
     RDKit          2D

 15 15  0  0  0  0  0  0  0  0999 V2000
   -5.5053    0.0429    0.0000 C   0  0  0  0  0  0  0  0  0  0  0  0
   -4.0449    0.3855    0.0000 C   0  0  0  0  0  0  0  0  0  0  0  0
   -3.0181   -0.7079    0.0000 C   0  0  0  0  0  0  0  0  0  0  0  0
   -1.5577   -0.3654    0.0000 C   0  0  0  0  0  0  0  0  0  0  0  0
   -1.1242    1.0706    0.0000 C   0  0  0  0  0  0  0  0  0  0  0  0
    0.3362    1.4132    0.0000 C   0  0  0  0  0  0  0  0  0  0  0  0
    0.7697    2.8491    0.0000 O   0  0  0  0  0  0  0  0  0  0  0  0
    2.2301    3.1917    0.0000 C   0  0  0  0  0  0  0  0  0  0  0  0
    1.3630    0.3197    0.0000 C   0  0  0  0  0  0  0  0  0  0  0  0
    2.8234    0.6623    0.0000 O   0  0  0  0  0  0  0  0  0  0  0  0
    3.8502   -0.4312    0.0000 C   0  0  0  0  0  0  0  0  0  0  0  0
    0.9295   -1.1163    0.0000 C   0  0  0  0  0  0  0  0  0  0  0  0
    1.9563   -2.2097    0.0000 O   0  0  0  0  0  0  0  0  0  0  0  0
    1.5228   -3.6457    0.0000 C   0  0  0  0  0  0  0  0  0  0  0  0
   -0.5309   -1.4588    0.0000 C   0  0  0  0  0  0  0  0  0  0  0  0
  1  2  2  0
  2  3  1  0
  3  4  1  0
  4  5  2  0
  5  6  1  0
  6  7  1  0
  7  8  1  0
  6  9  2  0
  9 10  1  0
 10 11  1  0
  9 12  1  0
 12 13  1  0
 13 14  1  0
 12 15  2  0
 15  4  1  0
M  END
>  <identifier>  (1) 
CNP0286854.0

>  <canonical_smiles>  (1) 
C=CCC1=CC(OC)=C(OC)C(OC)=C1

>  <standard_inchi>  (1) 
InChI=1S/C12H16O3/c1-5-6-9-7-10(13-2)12(15-4)11(8-9)14-3/h5,7-8H,1,6H2,2-4H3

>  <standard_inchi_key>  (1) 
BPLQKQKXWHCZSS-UHFFFAOYSA-N

>  <name>  (1) 
Elemicin

>  <iupac_name>  (1) 
5-allyl-1,2,3-trimethoxy-benzene

>  <annotation_level>  (1) 
5

>  <total_atom_count>  (1) 
31

>  <heavy_atom_count>  (1) 
15

>  <molecular_weight>  (1) 
208.26

>  <exact_molecular_weight>  (1) 
208.10994

>  <molecular_formula>  (1) 
C12H16O3

>  <alogp>  (1) 
2.44

>  <topological_polar_surface_area>  (1) 
27.69

>  <rotatable_bond_count>  (1) 
5

>  <hydrogen_bond_acceptors>  (1) 
3

>  <hydrogen_bond_donors>  (1) 
0

>  <hydrogen_bond_acceptors_lipinski>  (1) 
3

>  <hydrogen_bond_donors_lipinski>  (1) 
0

>  <lipinski_rule_of_five_violations>  (1) 
0

>  <aromatic_rings_count>  (1) 
1

>  <qed_drug_likeliness>  (1) 
0.70

>  <formal_charge>  (1) 
0

>  <fractioncsp3>  (1) 
0.33

>  <number_of_minimal_rings>  (1) 
1

>  <van_der_walls_volume>  (1) 
204.02

>  <contains_sugar>  (1) 
False

>  <contains_ring_sugars>  (1) 
False

>  <contains_linear_sugars>  (1) 
False

>  <murcko_framework>  (1) 
c1ccccc1

>  <np_likeness>  (1) 
0.65

>  <chemical_class>  (1) 
Phenol ethers

>  <chemical_sub_class>  (1) 
Anisoles

>  <chemical_super_class>  (1) 
Benzenoids

>  <direct_parent_classification>  (1) 
Anisoles

>  <np_classifier_pathway>  (1) 
Shikimates and Phenylpropanoids

>  <np_classifier_superclass>  (1) 
Phenylpropanoids (C6-C3)

>  <np_classifier_class>  (1) 
Cinnamic acids and derivatives

>  <np_classifier_is_glycoside>  (1) 
False

>  <organisms>  (1) 
Aconitum episcopale|Aconitum leucostomum|Acorus calamus|Acorus gramineus|Acorus tatarinowii|Actaea dahurica|Actaea heracleifolia|Actaea simplex|Agastache rugosus|Ammi majus|Anarsia lineatella|Andinobates fulguritus|Anemopsis californica|Anethum graveolens|Angelica pubescens|Aniba puchury-minor|Aniba spp.|Anisotome latifolia|Anoplophora chinensis|Anthriscus sylvestris|Apollonias barbujana|Aquilegia ecalcarata|Ardisia arborescens|Aristolochiaceae|Armillaria edodes|Aromia moschata|Artemisia abrotanum L.|Artemisia annua L.|Artemisia capillaris|Artemisia hanseniana|Asarum asaroides|Asarum asperum|Asarum canadense|Asarum caulescens|Asarum celsum|Asarum constrictum|Asarum costatum|Asarum crassum|Asarum curvistigma|Asarum dilatatum|Asarum epigynum|Asarum europaeum L.|Asarum fauriei|Asarum fauriei takaoi|Asarum forbesii|Asarum fudsinoi|Asarum gusk|Asarum hatushimae|Asarum heterotropoides|Asarum heterotropoides f. schm. var. mandshuricum (maxim.) kitag.|Asarum heterotropoides var. mandshuricum|Asarum hexalobum|Asarum hypogynum|Asarum kumageanum|Asarum lutchuense|Asarum macranthum|Asarum megacalyx|Asarum minamitanianum|Asarum muramatsui|Asarum nipponicum|Asarum petelotii|Asarum rigescens|Asarum sakawanum|Asarum savatieri|Asarum sieboldii|Asarum simile|Asarum subglobosum|Asarum tamaense|Asarum trigynum|Asarum unzen|Asarum yaeyamense|Asarum yakusimense|Asiasarum heterotropoides|Asiasarum sieboldii|Athamanta ramosissima|Athamanta vayredana|Athrotaxis selaginoides|Atractylodes lancea|Backhousia myrtifolia|Blepharocalyx salicifolius|Blepharocalyx tweediei|Blumea mollis|Boronia pinnata|Bridelia Retusa|Bridelia retusa|Bupleurum fruticosum|Bupleurum scorzonerifolium|Cacia concinna|Canarium commune|Castilleja sulphurea|Catalpa bignonioides|Ceanothus velutinus|Cephalonoplos segetum|Chlorophytum borivilianum|Chrysothamnus viscidiflorus|Cimicifuga foetida|Cinnamomum glanduliferum|Cinnamomum parthenoxylon|Comaster multifida|Conyza steudelii|Conyza steudellii|Cornus officinalis|Croton argyrophyllus|Croton conduplicatus|Croton essequiboensis|Croton grewioides|Croton jacobinensis|Croton micans|Croton nepetaefolius|Croton nepetifolius|Croton sonderianus|Croton tricolor|Croton zehntneri|Cryptocarya agathophylla|Cymbopogon flexuosus|Cymbopogon goeringii|Cymbopogon nardus|Cymbopogon procerus|Dalbergia spruceana|Daphne genkwa|Daucus Carota|Daucus carota|Daucus carota subsp. carota|Daucus carota subsp. sativus (Hoffm.) Schuebl. & G. Martens|Daucus glaber|Daucus littoralis|Dioscorea sativa|Diospyros melanoxylon|Diplolophium buchananii|Diplotaenia cachrydifolia|Dipterocarpus dyeri|Dryobalanops aromatica|Ecionemia geodides|Eremanthus arboreus|Esenbeckia nesiotica|Eucalyptus brassiana|Eucalyptus hybrid|Ferula communis|Foeniculum vulgare|Forsythia japonica|Fragaria vesca|Fructus amomi|Fructus amomi rotundus|Garcia parviflora|Garcinia oligantha|Garcinia scortechinii|Gardenia tubifera|Gymnosporia trigyna|Haplostichanthus johnsonii|Helipterum tenellum|Heterotropa|Heterotropha curvistigma|Heterotropha hexaloba|Heterotropha nipponca|Hexastylis arifolia|Hexastylis virginica|Homo sapiens|Huperzia miyoshiana|Hyptis tomentosa|Ipomoea cairica|Ipomoea cristulata|Iris spuria|Isodon lophanthoides|Isodon rubescens|Juniperus gamboana|Kopsia grandifolia|Lachnoanaerobaculum saburreum|Lasianthus fordii|Ledebouria socialis|Lens phaseoloides|Licaria canella|Ligusticum porteri|Lindera aggregata|Lindera neesiana|Lophozonia menziesii|Lycopus europaeus|Macropiper excelsum|Mallotus rhamnifolius|Melaleuca bracteata|Melaleuca squamophloia|Micranthemum umbrosum|Monocyclanthus vignei|Monopterix uaucu|Monopteryx uaucu|Myristica|Myristica argentea|Myristica fragrans|Paeonia lactiflora|Pagrus major|Panax ginseng|Panax innovans|Panax pseudo - ginseng var. notoginseng|Panax pseudo-ginseng var. notoginseng|Pancratium trianthum|Parmelia vittata|Penicillium cinerascens|Peperomia circinnata|Perilla frutescens|Perilla frutescens (l.) britt. var. crispa (thunb.) hand.-mazz.|Perilla frutescens var. acuta|Perilla frutescens var. crispa|Perilla frutescens var. hirtella|Persea mexicana|Petasites albus|Petroselinum crispum|Petroselinum crispum (Mill.) Fuss|Pimenta racemosa|Pinellia ternata|Piper aduncum|Piper auritum|Piper banksii|Piper brachystachyum|Piper kadsura|Piper lanceaefolium|Piper marginatum|Piper pedicellosum|Piper solmsianum|Platostoma africanum|Pocillopora damicornis|Pogostemon cablin|Polygala sibirica|Polygala tenuifolia|Portenschlagiella ramosissima|Protaetia cuprea|Pseudobrickellia brasiliensis|Pycnocycla spinosa|Rabdosia rubescens|Rhizoma arisaema cum bile|Rhodobacter sphaeroides|Rhododendron latoucheae|Rhodotypos scandens|Rubus trifidus|Ruta graveolens|Sassafras albidum|Saururus chinensis|Saussurea lappa|Schisandra chinensis|Schizonepeta tenuifolia|Scutellaria baicalensis|Scutellaria barbata|Sordaria araneosa|Stockwellia|Streptomyces amakusaensis|Tasmannia lanceolata|Thapsia maxima|Thapsia villosa|Todaroa aurea|Uvariodendron connivens|Virola surinamensis|Volema|West African Pepper|Xanthostemon oppositifolius|Zieria arborescens|Zieria laxiflora|Zieria smithii|Zingiber officinale|parsley|tarragon

>  <collections>  (1) 
ANPDB|Australian natural products|BIOFACQUIM|CMAUP (cCollective molecular activities of useful plants)|ChEBI NPs|EMNPD|ETM (Ethiopian Traditional Medicine) DB|FooDB|HIM (Herbal Ingredients in-vivo Metabolism database)|KNApSaCK|Latin America dataset|NANPDB (Natural Products from Northern African Sources)|NPASS|NPEdia|NuBBEDB|Phyto4Health|Super Natural II|TCMDB-Taiwan (Traditional Chinese Medicine database)|TCMID (Traditional Chinese Medicine Integrated Database)|TPPT (Toxic Plants–PhytoToxins)|UNPD (Universal Natural Products Database)|VietHerb|WikiData Natural Products

>  <dois>  (1) 
10.1002/(SICI)1099-1026(199909/10)14:5<312::AID-FFJ835>3.0.CO;2-B|10.1002/(SICI)1099-1573(199808)12:5<335::AID-PTR306>3.0.CO;2-H|10.1002/9780470744307.gat218|10.1002/CBDV.201800531|10.1002/JCCS.198300010|10.1002/biuz.19840140514|10.1002/food.19880321030|10.1007/BF02533357|10.1007/S10600-019-02696-6|10.1007/S10886-006-9038-7|10.1007/S12272-015-0582-Y|10.1016/0031-9422(80)83015-9|10.1016/0031-9422(81)85097-2|10.1016/0031-9422(86)80017-6|10.1016/0031-9422(86)80070-X|10.1016/0031-9422(90)85278-N|10.1016/0031-9422(91)83036-K|10.1016/0031-9422(91)83064-R|10.1016/0031-9422(91)83500-K|10.1016/0031-9422(91)83736-5|10.1016/0031-9422(92)80456-O|10.1016/0031-9422(92)83455-8|10.1016/0305-1978(88)90078-6|10.1016/0378-8741(90)90054-W|10.1016/J.APJTM.2017.07.004|10.1016/J.FITOTE.2018.08.006|10.1016/J.INDCROP.2014.04.048|10.1016/J.PHYTOCHEM.2006.05.007|10.1016/J.PHYTOCHEM.2007.11.006|10.1016/S0021-5198(19)34633-5|10.1016/S0031-9422(00)00295-8|10.1016/S0031-9422(00)80112-0|10.1016/S0031-9422(00)80682-2|10.1016/S0031-9422(00)82268-2|10.1016/S0031-9422(00)88941-4|10.1016/S0031-9422(00)94541-2|10.1016/S0031-9422(02)00623-4|10.1016/S0031-9422(97)00172-6|10.1016/S0031-9422(97)00324-5|10.1016/S0031-9422(98)00208-8|10.1016/S0165-022X(00)00079-8|10.1016/S0304-3835(99)00147-0|10.1016/S0305-1978(00)00103-4|10.1016/S0378-8741(99)00072-0|10.1016/S0960-894X(01)00781-8|10.1016/s0031-9422(00)82268-2|10.1021/JF00065A004|10.1021/JF00083A001|10.1021/JF60221A041|10.1021/NP0000318|10.1021/NP100440P|10.1021/NP100447A|10.1021/NP50012A010|10.1021/NP50017A019|10.1021/NP50035A036|10.1021/NP50038A025|10.1021/NP50038A026|10.1021/NP50040A040|10.1021/NP50046A033|10.1021/NP50052A041|10.1021/NP50053A047|10.1021/NP50058A023|10.1021/NP50072A028|10.1021/NP50115A019|10.1021/acs.jnatprod.9b00520|10.1021/np100440p|10.1055/S-2006-959379|10.1055/S-2006-959432|10.1055/S-2006-960148|10.1055/S-2006-961434|10.1055/S-2006-961996|10.1055/S-2006-962093|10.1055/S-2006-962452|10.1055/S-2007-969683|10.1080/00021369.1989.10869813|10.1080/10412905.1989.9697801|10.1080/10412905.1990.9697875|10.1080/10412905.1991.9697906|10.1080/10412905.1991.9697952|10.1080/10412905.1992.9698072|10.1080/10412905.1992.9698110|10.1080/10412905.1992.9698111|10.1080/10412905.1995.9698462|10.1080/10412905.1995.9698505|10.1080/10412905.1995.9698530|10.1080/10412905.1995.9700534|10.1080/10412905.1998.9700865|10.1080/10412905.1998.9700878|10.1080/10412905.1998.9700913|10.1080/10412905.1999.9701146|10.1080/10412905.1999.9711991|10.1080/10412905.2003.9698598|10.1080/1057563029001/4764|10.1097/00007691-200608000-00013|10.1248/BPB.23.359|10.1248/CPB.34.3885|10.1248/CPB.36.648|10.1248/CPB.46.871|10.1248/CPB.53.121|10.1248/YAKUSHI1947.107.3_209|10.1248/YAKUSHI1947.107.3_219|10.1248/YAKUSHI1947.107.3_227|10.1248/YAKUSHI1947.87.12_1535|10.1248/YAKUSHI1947.90.11_1367|10.1271/BBB1961.51.1449|10.1515/ZNC-1984-7-803|10.1515/ZNC-1988-5-604|10.1515/ZNC-2004-5-615|10.4314/NJNPM.V1I1.11800|10.5897/JMPR10.078

>  <synonyms>  (1) 
1,2,3-Trimethoxy-5-(2-propenyl)benzene|1,2,3-Trimethoxy-5-allylbenzene|1,2,3-Trimethoxy-5-allylbenzene (elemicin)|1,2,3-trimethoxy-5-prop-2-enylbenzene|1-(3,4,5-TRIMETHOXYPHENYL)-2-PROPENE|1-ALLYL-3,4,5-TRIMETHOXYBENZENE|3,4,5-Trimethoxyallylbenzene|3-(3,4,5-Trimethoxyphenyl)-1-propene|4-(2-Ethyl-benzoimidazol-1-yl)-4-oxo-butyricacid|4-06-00-07478 (Beilstein Handbook Reference)|487-11-6|5'-metoxy eugenol|5-(PROP-2-ENYL)-1,2,3-TRIMETHOXYBENZENE|5-(Prop-2-en-1-yl)-1,2,3-trimethoxybenzene|5-Allyl-1,2,3-trimethoxybenzene|A827594|AI3-20815|AKOS015896443|BENZENE, 1,2,3-TRIMETHOXY-5-(2-PROPEN-1-YL)-|BENZENE, 5-ALLYL-1,2,3-TRIMETHOXY-|BRN 1912664|Benzene, 1,2,3-trimethoxy-5-(2-propenyl)-|Benzene, 5-(2-propenyl)-1,2,3-trimethoxy|CCG-266643|CCRIS 6783|CHEBI:4771|CHEMBL458690|CS-0030665|DB-081347|DTXSID60197586|EINECS 207-649-0|Elemicin, 345-trimethoxyallylbenzene|Elemicine|HSZ191AKAN|HY-N6807|J-520432|MFCD01656688|NS00022224|NSC 16704|NSC-16704|PS-4970|Q417746|SCHEMBL68542|UNII-HSZ191AKAN|elemicin|s5120

>  <cas>  (1) 
487-11-6

$$$$

     RDKit          2D

 21 22  0  0  0  0  0  0  0  0999 V2000
    6.1910   -2.2908    0.0000 C   0  0  0  0  0  0  0  0  0  0  0  0
    6.1488   -0.7914    0.0000 O   0  0  0  0  0  0  0  0  0  0  0  0
    4.8291   -0.0783    0.0000 C   0  0  0  0  0  0  0  0  0  0  0  0
    3.5517   -0.8646    0.0000 C   0  0  0  0  0  0  0  0  0  0  0  0
    2.2321   -0.1515    0.0000 C   0  0  0  0  0  0  0  0  0  0  0  0
    0.9547   -0.9378    0.0000 C   0  0  0  0  0  0  0  0  0  0  0  0
   -0.3650   -0.2247    0.0000 C   0  0  0  0  0  0  0  0  0  0  0  0
   -1.6424   -1.0110    0.0000 C   0  0  0  0  0  0  0  0  0  0  0  0
   -1.6001   -2.5104    0.0000 O   0  0  0  0  0  0  0  0  0  0  0  0
   -2.9620   -0.2978    0.0000 C   0  0  0  0  0  0  0  0  0  0  0  0
   -3.0043    1.2016    0.0000 C   0  0  0  0  0  0  0  0  0  0  0  0
   -4.3239    1.9147    0.0000 C   0  0  0  0  0  0  0  0  0  0  0  0
   -5.6013    1.1284    0.0000 C   0  0  0  0  0  0  0  0  0  0  0  0
   -6.9210    1.8415    0.0000 O   0  0  0  0  0  0  0  0  0  0  0  0
   -5.5591   -0.3710    0.0000 C   0  0  0  0  0  0  0  0  0  0  0  0
   -4.2394   -1.0841    0.0000 C   0  0  0  0  0  0  0  0  0  0  0  0
   -4.1972   -2.5835    0.0000 O   0  0  0  0  0  0  0  0  0  0  0  0
    2.1898    1.3479    0.0000 C   0  0  0  0  0  0  0  0  0  0  0  0
    3.4672    2.1342    0.0000 C   0  0  0  0  0  0  0  0  0  0  0  0
    4.7869    1.4211    0.0000 C   0  0  0  0  0  0  0  0  0  0  0  0
    6.0643    2.2074    0.0000 O   0  0  0  0  0  0  0  0  0  0  0  0
  1  2  1  0
  2  3  1  0
  3  4  2  0
  4  5  1  0
  5  6  1  0
  6  7  1  0
  7  8  1  0
  8  9  2  0
  8 10  1  0
 10 11  2  0
 11 12  1  0
 12 13  2  0
 13 14  1  0
 13 15  1  0
 15 16  2  0
 16 17  1  0
  5 18  2  0
 18 19  1  0
 19 20  2  0
 20 21  1  0
 20  3  1  0
 16 10  1  0
M  END
>  <identifier>  (2) 
CNP0279910.0

>  <canonical_smiles>  (2) 
COC1=CC(CCC(=O)C2=CC=C(O)C=C2O)=CC=C1O

>  <standard_inchi>  (2) 
InChI=1S/C16H16O5/c1-21-16-8-10(3-7-14(16)19)2-6-13(18)12-5-4-11(17)9-15(12)20/h3-5,7-9,17,19-20H,2,6H2,1H3

>  <standard_inchi_key>  (2) 
NKLQEBAADGTJCF-UHFFFAOYSA-N

>  <name>  (2) 
4,2',4'-Trihydroxy-3-methoxydihydrochalcone

>  <iupac_name>  (2) 
1-(2,4-dihydroxyphenyl)-3-(4-hydroxy-3-methoxy-phenyl)propan-1-one

>  <annotation_level>  (2) 
5

>  <total_atom_count>  (2) 
37

>  <heavy_atom_count>  (2) 
21

>  <molecular_weight>  (2) 
288.3

>  <exact_molecular_weight>  (2) 
288.09977

>  <molecular_formula>  (2) 
C16H16O5

>  <alogp>  (2) 
2.63

>  <topological_polar_surface_area>  (2) 
86.99

>  <rotatable_bond_count>  (2) 
5

>  <hydrogen_bond_acceptors>  (2) 
5

>  <hydrogen_bond_donors>  (2) 
3

>  <hydrogen_bond_acceptors_lipinski>  (2) 
5

>  <hydrogen_bond_donors_lipinski>  (2) 
3

>  <lipinski_rule_of_five_violations>  (2) 
0

>  <aromatic_rings_count>  (2) 
2

>  <qed_drug_likeliness>  (2) 
0.74

>  <formal_charge>  (2) 
0

>  <fractioncsp3>  (2) 
0.19

>  <number_of_minimal_rings>  (2) 
2

>  <van_der_walls_volume>  (2) 
256.70

>  <contains_sugar>  (2) 
False

>  <contains_ring_sugars>  (2) 
False

>  <contains_linear_sugars>  (2) 
False

>  <murcko_framework>  (2) 
c1ccc(cc1)CCCc2ccccc2

>  <np_likeness>  (2) 
0.76

>  <chemical_class>  (2) 
Linear 1,3-diarylpropanoids

>  <chemical_sub_class>  (2) 
Chalcones and dihydrochalcones

>  <chemical_super_class>  (2) 
Phenylpropanoids and polyketides

>  <direct_parent_classification>  (2) 
2'-Hydroxy-dihydrochalcones

>  <np_classifier_pathway>  (2) 
Shikimates and Phenylpropanoids

>  <np_classifier_superclass>  (2) 
Flavonoids

>  <np_classifier_class>  (2) 
Chalcones

>  <np_classifier_is_glycoside>  (2) 
False

>  <organisms>  (2) 
Iryanthera polyneura

>  <collections>  (2) 
KNApSaCK|Latin America dataset|NPEdia|NuBBEDB|Super Natural II|UNPD (Universal Natural Products Database)|WikiData Natural Products|ZINC NP

>  <dois>  (2) 
10.1016/S0031-9422(00)91467-5

>  <synonyms>  (2) 
1-(2,4-dihydroxyphenyl)-3-(4-hydroxy-3-methoxyphenyl)propan-1-one|4,2',4'-Trihydroxy-3-methoxydihydrochalcone|CHEBI:197220|LMPK12120458|SCHEMBL1840837|dihydrochalcone

>  <cas>  (2) 
nan

$$$$

     RDKit          2D

 18 18  0  0  0  0  0  0  0  0999 V2000
   -7.4481    1.1925    0.0000 C   0  0  0  0  0  0  0  0  0  0  0  0
   -6.1957    0.3670    0.0000 S   0  0  0  0  0  0  0  0  0  0  0  0
   -5.3702    1.6194    0.0000 O   0  0  0  0  0  0  0  0  0  0  0  0
   -7.0212   -0.8854    0.0000 O   0  0  0  0  0  0  0  0  0  0  0  0
   -4.9432   -0.4585    0.0000 C   0  0  0  0  0  0  0  0  0  0  0  0
   -3.6021    0.2134    0.0000 C   0  0  0  0  0  0  0  0  0  0  0  0
   -2.3497   -0.6121    0.0000 C   0  0  0  0  0  0  0  0  0  0  0  0
   -1.0086    0.0597    0.0000 O   0  0  0  0  0  0  0  0  0  0  0  0
    0.2438   -0.7658    0.0000 C   0  0  0  0  0  0  0  0  0  0  0  0
    0.1551   -2.2631    0.0000 O   0  0  0  0  0  0  0  0  0  0  0  0
    1.5849   -0.0939    0.0000 C   0  0  0  0  0  0  0  0  0  0  0  0
    2.8374   -0.9194    0.0000 C   0  0  0  0  0  0  0  0  0  0  0  0
    4.1785   -0.2475    0.0000 C   0  0  0  0  0  0  0  0  0  0  0  0
    4.2672    1.2499    0.0000 C   0  0  0  0  0  0  0  0  0  0  0  0
    5.6083    1.9218    0.0000 C   0  0  0  0  0  0  0  0  0  0  0  0
    6.8607    1.0963    0.0000 C   0  0  0  0  0  0  0  0  0  0  0  0
    6.7720   -0.4011    0.0000 C   0  0  0  0  0  0  0  0  0  0  0  0
    5.4309   -1.0730    0.0000 C   0  0  0  0  0  0  0  0  0  0  0  0
  1  2  1  0
  2  3  2  0
  2  4  2  0
  2  5  1  0
  5  6  2  0
  6  7  1  0
  7  8  1  0
  8  9  1  0
  9 10  2  0
  9 11  1  0
 11 12  2  0
 12 13  1  0
 13 14  2  0
 14 15  1  0
 15 16  2  0
 16 17  1  0
 17 18  2  0
 18 13  1  0
M  END
>  <identifier>  (3) 
CNP0241910.1

>  <canonical_smiles>  (3) 
CS(=O)(=O)/C=C/COC(=O)/C=C/C1=CC=CC=C1

>  <standard_inchi>  (3) 
InChI=1S/C13H14O4S/c1-18(15,16)11-5-10-17-13(14)9-8-12-6-3-2-4-7-12/h2-9,11H,10H2,1H3/b9-8+,11-5+

>  <standard_inchi_key>  (3) 
XKWYWPLJJOFUCZ-SXGHKVHISA-N

>  <name>  (3) 
nan

>  <iupac_name>  (3) 
nan

>  <annotation_level>  (3) 
0

>  <total_atom_count>  (3) 
32

>  <heavy_atom_count>  (3) 
18

>  <molecular_weight>  (3) 
266.32

>  <exact_molecular_weight>  (3) 
266.06128

>  <molecular_formula>  (3) 
C13H14O4S

>  <alogp>  (3) 
1.80

>  <topological_polar_surface_area>  (3) 
60.44

>  <rotatable_bond_count>  (3) 
5

>  <hydrogen_bond_acceptors>  (3) 
4

>  <hydrogen_bond_donors>  (3) 
0

>  <hydrogen_bond_acceptors_lipinski>  (3) 
4

>  <hydrogen_bond_donors_lipinski>  (3) 
0

>  <lipinski_rule_of_five_violations>  (3) 
0

>  <aromatic_rings_count>  (3) 
1

>  <qed_drug_likeliness>  (3) 
0.60

>  <formal_charge>  (3) 
0

>  <fractioncsp3>  (3) 
0.15

>  <number_of_minimal_rings>  (3) 
1

>  <van_der_walls_volume>  (3) 
235.11

>  <contains_sugar>  (3) 
False

>  <contains_ring_sugars>  (3) 
False

>  <contains_linear_sugars>  (3) 
False

>  <murcko_framework>  (3) 
c1ccccc1

>  <np_likeness>  (3) 
0.71

>  <chemical_class>  (3) 
nan

>  <chemical_sub_class>  (3) 
nan

>  <chemical_super_class>  (3) 
nan

>  <direct_parent_classification>  (3) 
nan

>  <np_classifier_pathway>  (3) 
Shikimates and Phenylpropanoids

>  <np_classifier_superclass>  (3) 
Phenylpropanoids (C6-C3)

>  <np_classifier_class>  (3) 
Cinnamic acids and derivatives

>  <np_classifier_is_glycoside>  (3) 
False

>  <organisms>  (3) 
Aiouea montana|Cinnamomum australe

>  <collections>  (3) 
ChemSpider NPs|Latin America dataset|NuBBEDB|Super Natural II|WikiData Natural Products|ZINC NP

>  <dois>  (3) 
10.1590/S0100-40422004000200005

>  <synonyms>  (3) 
nan

>  <cas>  (3) 
nan

$$$$

     RDKit          2D

 15 14  0  0  0  0  0  0  0  0999 V2000
   -6.5013    0.2068    0.0000 C   0  0  0  0  0  0  0  0  0  0  0  0
   -5.1429    0.8430    0.0000 C   0  0  0  0  0  0  0  0  0  0  0  0
   -3.9128   -0.0154    0.0000 C   0  0  0  0  0  0  0  0  0  0  0  0
   -2.5543    0.6208    0.0000 C   0  0  0  0  0  0  0  0  0  0  0  0
   -1.3242   -0.2376    0.0000 C   0  0  0  0  0  0  0  0  0  0  0  0
    0.0342    0.3985    0.0000 C   0  0  0  0  0  0  0  0  0  0  0  0
    1.2643   -0.4598    0.0000 C   0  0  0  0  0  0  0  0  0  0  0  0
    1.1360   -1.9543    0.0000 C   0  0  0  0  0  0  0  0  0  0  0  0
   -0.2224   -2.5905    0.0000 O   0  0  0  0  0  0  0  0  0  0  0  0
    2.3662   -2.8127    0.0000 O   0  0  0  0  0  0  0  0  0  0  0  0
    2.6228    0.1763    0.0000 C   0  0  0  0  0  0  0  0  0  0  0  0
    3.8529   -0.6821    0.0000 C   0  0  0  0  0  0  0  0  0  0  0  0
    2.7511    1.6708    0.0000 C   0  0  0  0  0  0  0  0  0  0  0  0
    1.5209    2.5292    0.0000 O   0  0  0  0  0  0  0  0  0  0  0  0
    4.1095    2.3069    0.0000 O   0  0  0  0  0  0  0  0  0  0  0  0
  1  2  1  0
  2  3  1  0
  3  4  1  0
  4  5  1  0
  5  6  1  0
  6  7  2  0
  7  8  1  0
  8  9  2  0
  8 10  1  0
  7 11  1  0
 11 12  1  0
 11 13  1  0
 13 14  2  0
 13 15  1  0
M  END
>  <identifier>  (4) 
CNP0301093.4

>  <canonical_smiles>  (4) 
CCCCC/C=C(\C(=O)O)C(C)C(=O)O

>  <standard_inchi>  (4) 
InChI=1S/C11H18O4/c1-3-4-5-6-7-9(11(14)15)8(2)10(12)13/h7-8H,3-6H2,1-2H3,(H,12,13)(H,14,15)/b9-7-

>  <standard_inchi_key>  (4) 
YTUQECDNJQCQAE-CLFYSBASSA-N

>  <name>  (4) 
nan

>  <iupac_name>  (4) 
nan

>  <annotation_level>  (4) 
0

>  <total_atom_count>  (4) 
33

>  <heavy_atom_count>  (4) 
15

>  <molecular_weight>  (4) 
214.26

>  <exact_molecular_weight>  (4) 
214.12051

>  <molecular_formula>  (4) 
C11H18O4

>  <alogp>  (4) 
2.30

>  <topological_polar_surface_area>  (4) 
74.60

>  <rotatable_bond_count>  (4) 
7

>  <hydrogen_bond_acceptors>  (4) 
2

>  <hydrogen_bond_donors>  (4) 
2

>  <hydrogen_bond_acceptors_lipinski>  (4) 
2

>  <hydrogen_bond_donors_lipinski>  (4) 
2

>  <lipinski_rule_of_five_violations>  (4) 
0

>  <aromatic_rings_count>  (4) 
0

>  <qed_drug_likeliness>  (4) 
0.50

>  <formal_charge>  (4) 
0

>  <fractioncsp3>  (4) 
0.64

>  <number_of_minimal_rings>  (4) 
0

>  <van_der_walls_volume>  (4) 
212.01

>  <contains_sugar>  (4) 
False

>  <contains_ring_sugars>  (4) 
False

>  <contains_linear_sugars>  (4) 
False

>  <murcko_framework>  (4) 
nan

>  <np_likeness>  (4) 
1.87

>  <chemical_class>  (4) 
nan

>  <chemical_sub_class>  (4) 
nan

>  <chemical_super_class>  (4) 
nan

>  <direct_parent_classification>  (4) 
nan

>  <np_classifier_pathway>  (4) 
Fatty acids

>  <np_classifier_superclass>  (4) 
Fatty Acids and Conjugates

>  <np_classifier_class>  (4) 
Branched fatty acids

>  <np_classifier_is_glycoside>  (4) 
False

>  <organisms>  (4) 
Poronia pileiformis|Xylaria|Xylaria mali|Xylaria sp.

>  <collections>  (4) 
Latin America dataset|NuBBEDB|WikiData Natural Products

>  <dois>  (4) 
10.1039/A606589I|10.1248/CPB.57.1409|10.1590/S0100-40422005000600011

>  <synonyms>  (4) 
nan

>  <cas>  (4) 
nan

$$$$

     RDKit          2D

 31 35  0  0  0  0  0  0  0  0999 V2000
    2.9926   -3.0689    0.0000 C   0  0  0  0  0  0  0  0  0  0  0  0
    4.3603   -2.4531    0.0000 C   0  0  0  0  0  0  0  0  0  0  0  0
    5.5775   -3.3297    0.0000 C   0  0  0  0  0  0  0  0  0  0  0  0
    4.5109   -0.9607    0.0000 C   0  0  0  0  0  0  0  0  0  0  0  0
    5.8068   -0.2053    0.0000 C   0  0  0  0  0  0  0  0  0  0  0  0
    5.4888    1.2606    0.0000 C   0  0  0  0  0  0  0  0  0  0  0  0
    3.9964    1.4112    0.0000 C   0  0  0  0  0  0  0  0  0  0  0  0
    4.7410    2.7133    0.0000 C   0  0  0  0  0  0  0  0  0  0  0  0
    3.1097    2.6210    0.0000 C   0  0  0  0  0  0  0  0  0  0  0  0
    1.6185    2.4580    0.0000 C   0  0  0  0  0  0  0  0  0  0  0  0
    1.0142    1.0852    0.0000 C   0  0  0  0  0  0  0  0  0  0  0  0
    0.1274    2.2950    0.0000 C   0  0  0  0  0  0  0  0  0  0  0  0
    1.9009   -0.1247    0.0000 C   0  0  0  0  0  0  0  0  0  0  0  0
    1.2965   -1.4975    0.0000 C   0  0  0  0  0  0  0  0  0  0  0  0
   -0.1946   -1.6605    0.0000 C   0  0  0  0  0  0  0  0  0  0  0  0
   -1.0813   -0.4507    0.0000 C   0  0  0  0  0  0  0  0  0  0  0  0
   -2.5724   -0.6137    0.0000 C   0  0  0  0  0  0  0  0  0  0  0  0
   -1.6857   -1.8236    0.0000 C   0  0  0  0  0  0  0  0  0  0  0  0
   -3.1768   -1.9866    0.0000 C   0  0  0  0  0  0  0  0  0  0  0  0
   -4.6679   -2.1496    0.0000 C   0  0  0  0  0  0  0  0  0  0  0  0
   -5.5547   -0.9397    0.0000 C   0  0  0  0  0  0  0  0  0  0  0  0
   -7.0458   -1.1028    0.0000 O   0  0  0  0  0  0  0  0  0  0  0  0
   -4.9503    0.4331    0.0000 C   0  0  0  0  0  0  0  0  0  0  0  0
   -4.8519    1.9299    0.0000 C   0  0  0  0  0  0  0  0  0  0  0  0
   -6.4072    0.7899    0.0000 C   0  0  0  0  0  0  0  0  0  0  0  0
   -3.4592    0.5961    0.0000 C   0  0  0  0  0  0  0  0  0  0  0  0
   -2.8548    1.9690    0.0000 C   0  0  0  0  0  0  0  0  0  0  0  0
   -1.3637    2.1320    0.0000 C   0  0  0  0  0  0  0  0  0  0  0  0
   -0.4769    0.9221    0.0000 C   0  0  0  0  0  0  0  0  0  0  0  0
    0.4098   -0.2877    0.0000 C   0  0  0  0  0  0  0  0  0  0  0  0
    3.3920    0.0383    0.0000 C   0  0  0  0  0  0  0  0  0  0  0  0
  1  2  2  0
  2  3  1  0
  4  2  1  1
  4  5  1  0
  5  6  1  0
  6  7  1  0
  7  8  1  6
  7  9  1  0
  9 10  1  0
 10 11  1  0
 11 12  1  1
 11 13  1  0
 13 14  1  1
 14 15  1  0
 16 15  1  6
 16 17  1  0
 17 18  1  6
 17 19  1  0
 19 20  1  0
 20 21  1  0
 21 22  2  0
 21 23  1  0
 23 24  1  0
 23 25  1  0
 23 26  1  0
 26 27  1  6
 27 28  1  0
 28 29  1  0
 29 30  1  6
 13 31  1  0
 31  4  1  6
 31  7  1  0
 29 11  1  0
 29 16  1  0
 26 17  1  0
M  END
>  <identifier>  (5) 
CNP0214159.2

>  <canonical_smiles>  (5) 
C=C(C)[C@@H]1CC[C@]2(C)CC[C@]3(C)[C@H](CC[C@@H]4[C@@]5(C)CCC(=O)C(C)(C)[C@@H]5CC[C@]43C)[C@@H]12

>  <standard_inchi>  (5) 
InChI=1S/C30H48O/c1-19(2)20-11-14-27(5)17-18-29(7)21(25(20)27)9-10-23-28(6)15-13-24(31)26(3,4)22(28)12-16-30(23,29)8/h20-23,25H,1,9-18H2,2-8H3/t20-,21+,22-,23+,25+,27+,28-,29+,30+/m0/s1

>  <standard_inchi_key>  (5) 
GRBHNQFQFHLCHO-BHMAJAPKSA-N

>  <name>  (5) 
LUPENONE

>  <iupac_name>  (5) 
(1~{R},3~{a}~{R},5~{a}~{R},5~{b}~{R},7~{a}~{R},11~{a}~{R},11~{b}~{R},13~{a}~{R},13~{b}~{R})-1-isopropenyl-3~{a},5~{a},5~{b},8,8,11~{a}-hexamethyl-2,3,4,5,6,7,7~{a},10,11,11~{b},12,13,13~{a},13~{b}-tetradecahydro-1~{H}-cyclopenta[a]chrysen-9-one

>  <annotation_level>  (5) 
5

>  <total_atom_count>  (5) 
79

>  <heavy_atom_count>  (5) 
31

>  <molecular_weight>  (5) 
424.71

>  <exact_molecular_weight>  (5) 
424.37052

>  <molecular_formula>  (5) 
C30H48O

>  <alogp>  (5) 
8.23

>  <topological_polar_surface_area>  (5) 
17.07

>  <rotatable_bond_count>  (5) 
1

>  <hydrogen_bond_acceptors>  (5) 
1

>  <hydrogen_bond_donors>  (5) 
0

>  <hydrogen_bond_acceptors_lipinski>  (5) 
1

>  <hydrogen_bond_donors_lipinski>  (5) 
0

>  <lipinski_rule_of_five_violations>  (5) 
1

>  <aromatic_rings_count>  (5) 
0

>  <qed_drug_likeliness>  (5) 
0.39

>  <formal_charge>  (5) 
0

>  <fractioncsp3>  (5) 
0.90

>  <number_of_minimal_rings>  (5) 
5

>  <van_der_walls_volume>  (5) 
440.21

>  <contains_sugar>  (5) 
False

>  <contains_ring_sugars>  (5) 
False

>  <contains_linear_sugars>  (5) 
False

>  <murcko_framework>  (5) 
C1CCC2C(C1)CCC3C2CCC4C5CCCC5CCC43

>  <np_likeness>  (5) 
3.06

>  <chemical_class>  (5) 
Prenol lipids

>  <chemical_sub_class>  (5) 
Triterpenoids

>  <chemical_super_class>  (5) 
Lipids and lipid-like molecules

>  <direct_parent_classification>  (5) 
Lupane triterpenoids

>  <np_classifier_pathway>  (5) 
Terpenoids

>  <np_classifier_superclass>  (5) 
Triterpenoids

>  <np_classifier_class>  (5) 
Lupane triterpenoids

>  <np_classifier_is_glycoside>  (5) 
False

>  <organisms>  (5) 
Acacia cambagei|Acacia dealbata|Acanthoscelides obtectus|Achyranthemum paniculatum|Adenophora|Adenophora capillaris|Adenophora coelestis|Adenophora hunanensis|Adenophora lamarckii|Adenophora potaninii|Adenophora stenophylla|Adenophora stricta|Adenophora wawreana|Aegiceras majus|Aframomum alboviolaceum|Aglaia forbesii|Aglaia foveolata|Aglaia rubiginosa|Ajania achilleoides|Albizia gummifera|Albizia schimperiana|Albizia versicolor|Alnus cordata|Aloe deltoideodonta|Amoora rohituka|Anadenanthera colubrina|Antrodia sinuosa|Aphyllocladus denticulatus|Arabidopsis thaliana|Araucaria araucana|Arctium lappa|Arctotheca calendula|Arctotheca populifolia|Arnica viscosa|Artemisia alba|Artemisia argyi|Artemisia austriaca|Artemisia dracunculus var. glauca|Arum maximum|Aster alpinus|Astragalus mongholicus|Atalantia wightii|Athanasia dregeana|Baccharis minutiflora|Baccharis solieri|Balanophora indica|Bauhinia purpurea|Berberis crataegina|Betula alleghaniensis|Betula lenta|Bishopanthus soliceps|Bishopiella elegans|Blainvillea acmella|Boswellia carterii|Boswellia sacra|Breea segeta|Bruguiera cylindrica|Bruguiera parviflora|Butea monosperma|Cajanus trinervius|Calceolaria thyrsiflora|Calophyllum gracilipes|Calophyllum thwaitesii|Campylospermum flavum|Candida albicans|Casearia clarkei|Cayratia japonica|Celastrus Hindsii|Celastrus hindsii|Centaurea coronopifolia|Cephalocroton cordofanus|Ceriops decandra|Chamomilla recutita|Chilo auricilius|Chrysanthemum|Chrysolaena propinqua|Chuquiraga ulicina|Cichorium spinosum|Cirsium setosum|Cissus quadrangularis|Cladonia macaronesica|Clathrina clathrus|Codonopsis benthamii|Codonopsis bulleyana|Codonopsis canescens|Codonopsis chlorocodon|Codonopsis clematidea|Codonopsis lanceolata|Codonopsis macrocalyx|Codonopsis meleagris|Codonopsis pilosula|Codonopsis subglobosa|Codonopsis subscaposa|Codonopsis ussuriensis|Coffea bengalensis|Colletotrichum acutatum|Coptis trifolia subsp. groenlandica|Cordiera macrophylla|Crataegus pontica|Crinum latifolium|Croton arboreus|Croton betulaster|Cucumis melo|Cunninghamella echinulata|Cupania cinerea|Curio talinoides|Cyclamen neapolitanum|Daphne blagayana|Deguelia amazonica|Dendranthema|Derris amazonica|Derris canarensis|Derris cuneifolia|Digitalis obscura|Diospyros maritima|Diospyros mollis|Diospyros rhodocalyx|Diospyros wallichii|Discaria chacaye|Dorstenia convexa|Dysoxylum malabaricum|Echinocystis lobata|Echinops niveus|Elmerrillia papuana|Eremanthus capitatus|Eremanthus glomerulatus|Eremanthus pohlii|Erythrina orientalis|Erythrophleum fordii|Eupatorium leptophyllum|Euphorbia characias|Euphorbia cyparissias|Euphorbia drupifera|Euphorbia larica|Euphorbia nicaeensis|Euphorbia peplus|Euphorbia segetalis|Euphorbia stygiana|Fagara heitzii|Felicia amelloides|Festuca argentina|Festuca hieronymi|Firmiana simplex|Garcinia livingstonei|Gardenia saxatilis|Gelasia cretica|Geoffroea decorticans|Glochidion puberum|Glochidion zeylanicum|Goldfussia yunnanensis|Gymnosporia emarginata|Haemanthus toxicarius|Halimium halimifolium|Hannoa undulata|Haploclathra paniculata|Helenium quadridentatum|Helichrysum retortum|Heliotropium hirsutissimum|Heliotropium olgae|Hilliardiella aristata|Hypericum amblycalyx|Hypericum balearicum|Inulanthera calva|Ixeris chinensis|Joannesia princeps|Kleinia galpinii|Kleinia neriifolia|Lasianthus gardneri|Laurentia longiflora|Leitneria floridana|Lepidaploa myriocephala|Lepraria citrina|Leptogorgia alba|Leuceria thermarum|Leucheria hahnii|Liatris acidota|Liatris spicata|Lophanthus chinensis|Lotus villosus|Mahonia nepalensis|Manihot Esculenta|Manihot esculenta|Maytenus chiapensis|Maytenus cuzcoina|Melaleuca decora|Mesua elegans|Metalasia capitata|Michelia rajaniana|Monanthotaxis congoensis|Monteverdia aquifolium|Monteverdia chiapensis|Monteverdia cuzcoina|Monteverdia ilioppjfeowneviufheiuwfew fgr|Monteverdia truncata|Morus tinctoria|Muntingia calabura|Mutisia acerosa|Nassauvia pyramidalis|Nassauvia uniflora|Neolitsea parvigemma|Nicotiana raimondii|Nitraria tangutorum|Notholaena aschenborniana|Notholaena neglecta|Onoseris albicans|Onoseris gnaphalioides|Onoseris lopezii|Onychopetalum amazonicum|Operculina turpethum|Ormosia henryi|Oxylobus arbutifolius|Oxyphyllum ulicinum|Pachira glabra|Paramignya griffithii|Perezia pilifera|Petrosia hebes|Phellodendron Amurense|Phellodendron amurense|Phellodendron amurense var. wilsonii|Phellodendron chinense var. glabriusculum|Phlomoides medicinalis|Phora atra|Phora scalaris|Phoradendron vernicosum|Phyllanthus puberus|Picris hieracioides|Pinus montezumae|Piptolepis ericoides|Piptolepis leptospermoides|Platypodium elegans|Plumbago zeylanica|Poa huecu|Podocarpus montanus|Polytolypa hystricis|Pongamia Pinnata|Pongamia pinnata|Primula grandiflora|Proteopsis argentea|Prumnopitys ferruginea|Pseudallescheria boydii|Pseudocodon convolvulaceus|Pteris inaequalis|Pterocarpus santalinus|Pueraria montana var. lobata|Purpura aperta|Quercus suber|Rhodoglossum japonicum|Roccellaria mollis|Russula subnigricans|Salacia beddomei|Salisaeta longa|Salvia multicaulis|Salvia recognita|Sapium pachystachys|Sapium rigidifolium|Sarcomyxa serotina|Sarmienta scandens|Saussurea japonica|Scaevola spinescens|Schisandra arisanensis|Scolopia chinensis|Scorzonera cretica|Senecio|Senecio bracteolatus|Senecio crassissimus|Senecio fulgens|Senecio polyodon|Senecio scandens|Senegalia gaumeri|Senegalia mellifera|Senna siamea|Senna sophera|Sideritis flavovirens|Skimmia laureola|Sophora japonica|Soroseris hookeriana|Stauntonia obovatifoliola|Stenocereus beneckei|Stevia serrata|Streptomyces filamentosus|Streptomyces halstedii|Strobilomyces floccopus|Symphyopappus compressus|Synsepalum dulcificum|Syphonota geographica|Taraxacum japonicum|Tephroseris helenitis|Tephroseris longifolia|Tephrosia sinapou|Tephrosia villosa|Terminalia calamansanay|Terminalia glabrescens|Thermopsis mollis|Tichocarpus crinitus|Tipuana tipu|Tragopogon orientalis|Tricholoma batschii|Trollius europaeus|Umbelopsis vinacea|Vellozia declinans|Vernonia tufnellae|Voacanga|Xanthoparmelia pokornyi|Zanthoxylum ailanthoides|Zanthoxylum heitzii|Zanthoxylum rhoifolium|Zanthoxylum schinifolium|[polyangium] brachysporum

>  <collections>  (5) 
Australian natural products|CMAUP (cCollective molecular activities of useful plants)|ChEBI NPs|ChemSpider NPs|Latin America dataset|NPASS|NuBBEDB|Phyto4Health|SANCDB|Super Natural II|TCMDB-Taiwan (Traditional Chinese Medicine database)|VietHerb|WikiData Natural Products

>  <dois>  (5) 
10.1002/BSCB.19860950903|10.1002/CHIN.199734227|10.1002/CHIN.200533207|10.1002/HLCA.200790187|10.1002/JCCS.199700056|10.1002/JCCS.199800018|10.1002/JCCS.200300178|10.1007/BF03046638|10.1007/S10600-010-9658-6|10.1016/0031-9422(73)80719-8|10.1016/0031-9422(80)87042-7|10.1016/0031-9422(81)85163-1|10.1016/0031-9422(81)85165-5|10.1016/0031-9422(82)80161-1|10.1016/0031-9422(82)83183-X|10.1016/0031-9422(82)85189-3|10.1016/0031-9422(82)85222-9|10.1016/0031-9422(82)85226-6|10.1016/0031-9422(82)85252-7|10.1016/0031-9422(83)83036-2|10.1016/0031-9422(88)80118-3|10.1016/0031-9422(88)80473-4|10.1016/0031-9422(88)80708-8|10.1016/0031-9422(88)80772-6|10.1016/0031-9422(89)80195-5|10.1016/0031-9422(89)85056-3|10.1016/0031-9422(90)83033-W|10.1016/0031-9422(90)85217-4|10.1016/0031-9422(90)89036-9|10.1016/0031-9422(91)83025-G|10.1016/0031-9422(91)85077-D|10.1016/0031-9422(91)85270-A|10.1016/0031-9422(92)80451-J|10.1016/0031-9422(93)85112-5|10.1016/0031-9422(95)00424-6|10.1016/0305-1978(92)90104-L|10.1016/0305-1978(95)00082-8|10.1016/0305-1978(96)00011-7|10.1016/J.BMC.2005.07.050|10.1016/J.BMC.2005.10.063|10.1016/J.BMC.2008.09.021|10.1016/J.FITOTE.2004.03.009|10.1016/J.FITOTE.2007.02.002|10.1016/J.FITOTE.2011.10.007|10.1016/J.JEP.2013.07.023|10.1016/J.PHYMED.2009.10.015|10.1016/J.PHYTOCHEM.2004.03.002|10.1016/J.PHYTOCHEM.2007.06.016|10.1016/J.PHYTOCHEM.2008.03.004|10.1016/J.PHYTOCHEM.2009.08.007|10.1016/S0031-9422(00)00413-1|10.1016/S0031-9422(00)81146-2|10.1016/S0031-9422(00)81571-X|10.1016/S0031-9422(00)83115-5|10.1016/S0031-9422(00)83830-3|10.1016/S0031-9422(00)84168-0|10.1016/S0031-9422(00)84543-4|10.1016/S0031-9422(00)85232-2|10.1016/S0031-9422(00)86705-9|10.1016/S0031-9422(00)88751-8|10.1016/S0031-9422(00)89542-4|10.1016/S0031-9422(00)89705-8|10.1016/S0031-9422(00)89799-X|10.1016/S0031-9422(00)95025-8|10.1016/S0031-9422(00)97131-0|10.1016/S0031-9422(00)97169-3|10.1016/S0031-9422(00)97239-X|10.1016/S0031-9422(00)97880-4|10.1016/S0031-9422(00)98481-4|10.1016/S0031-9422(00)98542-X|10.1016/S0031-9422(00)98664-3|10.1016/S0031-9422(01)00025-5|10.1016/S0031-9422(03)00007-4|10.1016/S0031-9422(03)00112-2|10.1016/S0031-9422(82)85038-3|10.1016/S0031-9422(96)00777-7|10.1016/S0031-9422(97)00540-2|10.1016/S0031-9422(97)01011-X|10.1016/S0031-9422(97)01020-0|10.1016/S0031-9422(97)01056-X|10.1016/S0031-9422(98)00277-5|10.1016/S0031-9422(99)00362-3|10.1016/S0040-4039(97)01032-0|10.1016/S0305-1978(02)00079-0|10.1016/S0305-1978(02)00083-2|10.1016/S0305-1978(02)00145-X|10.1016/S0305-1978(98)00070-2|10.1016/S0367-326X(00)00259-8|10.1016/S0367-326X(00)00276-8|10.1016/S0367-326X(00)00279-3|10.1016/S0378-8741(03)00261-7|10.1016/j.jep.2013.07.023|10.1021/JF025848G|10.1021/NP0103665|10.1021/NP030034V|10.1021/NP030207G|10.1021/NP0302100|10.1021/NP030374G|10.1021/NP030485F|10.1021/NP030515E|10.1021/NP058016W|10.1021/NP100415M|10.1021/NP50034A017|10.1021/NP50050A009|10.1021/NP50052A040|10.1021/NP50085A017|10.1021/NP501025R|10.1021/NP50108A006|10.1021/NP9603941|10.1021/OL800389Q|10.1021/acs.jnatprod.7b00177|10.1021/np030034v|10.1021/np030207g|10.1021/np058016w|10.1021/np100415m|10.1021/np501025r|10.1055/S-2003-38488|10.1055/S-2004-818920|10.1055/S-2006-957703|10.1055/S-2006-957961|10.1055/S-2006-958085|10.1055/S-2006-959586|10.1055/S-2006-960221|10.1055/s-2006-957961|10.1071/CH05010|10.1071/CH05087|10.1071/ch9650927|10.1080/10575639608043247|10.1080/14786410310001605841|10.1080/14786419.2010.551769|10.1139/V10-084|10.1248/BPB.22.606|10.1248/CPB.32.723|10.1248/CPB.43.1634|10.1248/CPB.44.509|10.1248/CPB.45.1221|10.1248/CPB.46.1189|10.1248/CPB.48.1079|10.1248/CPB.53.95|10.1248/CPB.54.1308|10.1248/CPB.58.1541|10.1351/PAC198153061101|10.1515/HFSG.1991.45.4.265|10.1515/ZNC-1988-11-1202|10.1515/ZNC-1989-7-804|10.1515/ZNC-1991-1-203|10.1515/ZNC-1994-5-617|10.1515/ZNC-1995-5-617|10.1515/ZNC-2002-9-1002|10.1515/ZNC-2003-3-411|10.1515/ZNC-2003-7-814|10.1590/S0103-50531999000600017|10.1590/S0103-50532002000200022|10.1590/S0103-50532003000300021|10.3987/COM-92-6288|10.3987/COM-95-7069|10.4038/JNSFSR.V18I2.8195|10.4067/S0717-97072009000300004|10.4268/CJCMM20111611|10.5012/BKCS.2010.31.04.1081

>  <synonyms>  (5) 
(1R,3aR,4S,5aR,5bR,7aR,11aR,11bR,13aR,13bR)-1-Isopropenyl-3a,5a,5b,8,8,11a-hexamethyl-eicosahydro-cyclopenta[a]chrysen-9-one|(1R,3aR,5aR,5bR,7aR,11aR,11bR,13aR,13bR)-3a,5a,5b,8,8,11a-hexamethyl-1-prop-1-en-2-yl-2,3,4,5,6,7,7a,10,11,11b,12,13,13a,13b-tetradecahydro-1H-cyclopenta[a]chrysen-9-one|(1S,3aR,5aR,5bR,7aR,11aR,11bR,13aR,13bR)-1-Isopropyl-3a,5a,5b,8,8,11a-hexamethyl-1,2,3,3a,4,5,5a,5b,6,7,7a,8,11a,11b,12,13,13a,13b-octadecahydro-9H-cyclopenta[a]chrysen-9-one|1617-70-5|A883058|AC-35031|AKOS016009444|AS-78715|BAA61770|BDBM50241944|C16990|CHEBI:67823|CHEMBL486393|CS-0022942|GRBHNQFQFHLCHO-BHMAJAPKSA-N|HY-N2590|Lup-20(29)-en-3-one|Lup-20(30)-en-3-one|Lupenone|MFCD00083578|NSC 281807|Q27136299|SCHEMBL1224027|lupeone

>  <cas>  (5) 
1617-70-5

$$$$

     RDKit          2D

 34 38  0  0  0  0  0  0  0  0999 V2000
    0.5120   -4.8427    0.0000 C   0  0  0  0  0  0  0  0  0  0  0  0
    1.2381   -3.5302    0.0000 C   0  0  0  0  0  0  0  0  0  0  0  0
    2.7267   -3.3460    0.0000 O   0  0  0  0  0  0  0  0  0  0  0  0
    3.0116   -1.8733    0.0000 C   0  0  0  0  0  0  0  0  0  0  0  0
    4.2966   -1.0996    0.0000 C   0  0  0  0  0  0  0  0  0  0  0  0
    4.2691    0.4002    0.0000 C   0  0  0  0  0  0  0  0  0  0  0  0
    5.5541    1.1739    0.0000 O   0  0  0  0  0  0  0  0  0  0  0  0
    2.9565    1.1262    0.0000 C   0  0  0  0  0  0  0  0  0  0  0  0
    1.9714    2.2574    0.0000 C   0  0  0  0  0  0  0  0  0  0  0  0
    3.8994    2.2928    0.0000 C   0  0  0  0  0  0  0  0  0  0  0  0
    1.6715    0.3525    0.0000 C   0  0  0  0  0  0  0  0  0  0  0  0
    0.3589    1.0785    0.0000 C   0  0  0  0  0  0  0  0  0  0  0  0
    0.3313    2.5782    0.0000 C   0  0  0  0  0  0  0  0  0  0  0  0
    1.6164    3.3520    0.0000 O   0  0  0  0  0  0  0  0  0  0  0  0
   -0.9813    3.3043    0.0000 O   0  0  0  0  0  0  0  0  0  0  0  0
   -1.0088    4.8040    0.0000 C   0  0  0  0  0  0  0  0  0  0  0  0
    1.6990   -1.1473    0.0000 C   0  0  0  0  0  0  0  0  0  0  0  0
    2.1886   -2.5651    0.0000 C   0  0  0  0  0  0  0  0  0  0  0  0
    0.6029   -2.1713    0.0000 C   0  0  0  0  0  0  0  0  0  0  0  0
   -0.4932   -3.1953    0.0000 C   0  0  0  0  0  0  0  0  0  0  0  0
   -1.8058   -2.4692    0.0000 C   0  0  0  0  0  0  0  0  0  0  0  0
   -1.5209   -0.9965    0.0000 C   0  0  0  0  0  0  0  0  0  0  0  0
   -2.9822   -1.3353    0.0000 C   0  0  0  0  0  0  0  0  0  0  0  0
   -0.0323   -0.8124    0.0000 C   0  0  0  0  0  0  0  0  0  0  0  0
    0.5526    0.5689    0.0000 C   0  0  0  0  0  0  0  0  0  0  0  0
   -0.3512    1.7660    0.0000 C   0  0  0  0  0  0  0  0  0  0  0  0
   -0.1180    3.2478    0.0000 O   0  0  0  0  0  0  0  0  0  0  0  0
   -1.8399    1.5819    0.0000 O   0  0  0  0  0  0  0  0  0  0  0  0
   -2.4247    0.2006    0.0000 C   0  0  0  0  0  0  0  0  0  0  0  0
   -3.9134    0.0165    0.0000 C   0  0  0  0  0  0  0  0  0  0  0  0
   -4.6394   -1.2961    0.0000 C   0  0  0  0  0  0  0  0  0  0  0  0
   -6.1121   -1.0113    0.0000 O   0  0  0  0  0  0  0  0  0  0  0  0
   -6.2963    0.4774    0.0000 C   0  0  0  0  0  0  0  0  0  0  0  0
   -4.9374    1.1126    0.0000 C   0  0  0  0  0  0  0  0  0  0  0  0
  1  2  2  0
  2  3  1  0
  3  4  1  0
  4  5  2  0
  5  6  1  0
  6  7  2  0
  6  8  1  0
  8  9  1  0
  8 10  1  0
  8 11  1  0
 11 12  1  6
 12 13  1  0
 13 14  2  0
 13 15  1  0
 15 16  1  0
 11 17  1  0
 17 18  1  6
 17 19  1  0
 19 20  1  1
 20 21  1  0
 21 22  1  0
 22 23  1  6
 22 24  1  0
 24 25  2  0
 25 26  1  0
 26 27  2  0
 26 28  1  0
 28 29  1  0
 29 30  1  6
 30 31  2  0
 31 32  1  0
 32 33  1  0
 33 34  2  0
 19  2  1  0
 29 22  1  0
 34 30  1  0
 17  4  1  0
 24 19  1  0
M  END
>  <identifier>  (6) 
CNP0173930.1

>  <canonical_smiles>  (6) 
C=C1OC2=CC(=O)C(C)(C)[C@@H](CC(=O)OC)[C@]2(C)[C@]12CC[C@]1(C)C2=CC(=O)O[C@H]1C1=COC=C1

>  <standard_inchi>  (6) 
InChI=1S/C27H30O7/c1-15-27(9-8-25(4)18(27)12-22(30)34-23(25)16-7-10-32-14-16)26(5)17(11-21(29)31-6)24(2,3)19(28)13-20(26)33-15/h7,10,12-14,17,23H,1,8-9,11H2,2-6H3/t17-,23+,25-,26+,27-/m1/s1

>  <standard_inchi_key>  (6) 
NSCZLWCHFDNMJH-FPSOBLPQSA-N

>  <name>  (6) 
nan

>  <iupac_name>  (6) 
methyl 2-[(1'~{R},3~{R},3~{a}~{R},4~{S},7'~{a}~{R})-1'-(3-furyl)-3~{a},5,5,7'~{a}-tetramethyl-2-methylene-3',6-dioxo-spiro[4~{H}-benzofuran-3,5'-6,7-dihydro-1~{H}-cyclopenta[c]pyran]-4-yl]acetate

>  <annotation_level>  (6) 
4

>  <total_atom_count>  (6) 
64

>  <heavy_atom_count>  (6) 
34

>  <molecular_weight>  (6) 
466.53

>  <exact_molecular_weight>  (6) 
466.19915

>  <molecular_formula>  (6) 
C27H30O7

>  <alogp>  (6) 
4.81

>  <topological_polar_surface_area>  (6) 
92.04

>  <rotatable_bond_count>  (6) 
3

>  <hydrogen_bond_acceptors>  (6) 
7

>  <hydrogen_bond_donors>  (6) 
0

>  <hydrogen_bond_acceptors_lipinski>  (6) 
7

>  <hydrogen_bond_donors_lipinski>  (6) 
0

>  <lipinski_rule_of_five_violations>  (6) 
0

>  <aromatic_rings_count>  (6) 
1

>  <qed_drug_likeliness>  (6) 
0.59

>  <formal_charge>  (6) 
0

>  <fractioncsp3>  (6) 
0.52

>  <number_of_minimal_rings>  (6) 
5

>  <van_der_walls_volume>  (6) 
nan

>  <contains_sugar>  (6) 
False

>  <contains_ring_sugars>  (6) 
False

>  <contains_linear_sugars>  (6) 
False

>  <murcko_framework>  (6) 
o1ccc(c1)C2OCC=C3C2CCC34COC5=CCCCC54

>  <np_likeness>  (6) 
2.43

>  <chemical_class>  (6) 
Pyrans

>  <chemical_sub_class>  (6) 
Pyranones and derivatives

>  <chemical_super_class>  (6) 
Organoheterocyclic compounds

>  <direct_parent_classification>  (6) 
Dihydropyranones

>  <np_classifier_pathway>  (6) 
Terpenoids

>  <np_classifier_superclass>  (6) 
Triterpenoids

>  <np_classifier_class>  (6) 
Limonoids

>  <np_classifier_is_glycoside>  (6) 
False

>  <organisms>  (6) 
Hortia oreadica

>  <collections>  (6) 
Latin America dataset|NuBBEDB|WikiData Natural Products

>  <dois>  (6) 
10.1016/j.phytochem.2011.12.016|10.3390/MOLECULES190812031

>  <synonyms>  (6) 
hortiolide E

>  <cas>  (6) 
nan

$$$$

     RDKit          2D

 36 39  0  0  0  0  0  0  0  0999 V2000
   -1.3432   -3.8822    0.0000 C   0  0  0  0  0  0  0  0  0  0  0  0
   -1.1714   -2.3920    0.0000 O   0  0  0  0  0  0  0  0  0  0  0  0
    0.2050   -1.7957    0.0000 C   0  0  0  0  0  0  0  0  0  0  0  0
    1.4096   -2.6895    0.0000 O   0  0  0  0  0  0  0  0  0  0  0  0
    0.3767   -0.3056    0.0000 C   0  0  0  0  0  0  0  0  0  0  0  0
    1.7531    0.2907    0.0000 C   0  0  0  0  0  0  0  0  0  0  0  0
    2.9577   -0.6031    0.0000 C   0  0  0  0  0  0  0  0  0  0  0  0
    3.8515    0.6015    0.0000 C   0  0  0  0  0  0  0  0  0  0  0  0
    2.0639   -1.8077    0.0000 C   0  0  0  0  0  0  0  0  0  0  0  0
    4.1623   -1.4969    0.0000 C   0  0  0  0  0  0  0  0  0  0  0  0
    5.5387   -0.9006    0.0000 O   0  0  0  0  0  0  0  0  0  0  0  0
    3.9906   -2.9870    0.0000 O   0  0  0  0  0  0  0  0  0  0  0  0
    5.1952   -3.8808    0.0000 C   0  0  0  0  0  0  0  0  0  0  0  0
    1.9248    1.7809    0.0000 C   0  0  0  0  0  0  0  0  0  0  0  0
    3.3889    1.4543    0.0000 C   0  0  0  0  0  0  0  0  0  0  0  0
    2.4027    3.2027    0.0000 C   0  0  0  0  0  0  0  0  0  0  0  0
    3.8338    3.6519    0.0000 O   0  0  0  0  0  0  0  0  0  0  0  0
    1.1980    4.0965    0.0000 C   0  0  0  0  0  0  0  0  0  0  0  0
   -0.0243    3.2271    0.0000 C   0  0  0  0  0  0  0  0  0  0  0  0
   -1.4461    3.7049    0.0000 C   0  0  0  0  0  0  0  0  0  0  0  0
    0.4249    1.7959    0.0000 C   0  0  0  0  0  0  0  0  0  0  0  0
    0.8741    0.3648    0.0000 C   0  0  0  0  0  0  0  0  0  0  0  0
   -0.3482   -0.5047    0.0000 C   0  0  0  0  0  0  0  0  0  0  0  0
   -1.5528    0.3891    0.0000 C   0  0  0  0  0  0  0  0  0  0  0  0
   -1.8794   -1.0749    0.0000 C   0  0  0  0  0  0  0  0  0  0  0  0
   -1.0750    1.8110    0.0000 C   0  0  0  0  0  0  0  0  0  0  0  0
   -2.0675    2.9357    0.0000 C   0  0  0  0  0  0  0  0  0  0  0  0
   -3.5377    2.6386    0.0000 C   0  0  0  0  0  0  0  0  0  0  0  0
   -4.5302    3.7633    0.0000 O   0  0  0  0  0  0  0  0  0  0  0  0
   -4.0156    1.2167    0.0000 O   0  0  0  0  0  0  0  0  0  0  0  0
   -3.0231    0.0920    0.0000 C   0  0  0  0  0  0  0  0  0  0  0  0
   -3.5009   -1.3299    0.0000 C   0  0  0  0  0  0  0  0  0  0  0  0
   -2.6315   -2.5522    0.0000 C   0  0  0  0  0  0  0  0  0  0  0  0
   -3.5253   -3.7568    0.0000 O   0  0  0  0  0  0  0  0  0  0  0  0
   -4.9471   -3.2790    0.0000 C   0  0  0  0  0  0  0  0  0  0  0  0
   -4.9321   -1.7791    0.0000 C   0  0  0  0  0  0  0  0  0  0  0  0
  1  2  1  0
  2  3  1  0
  3  4  2  0
  3  5  1  0
  6  5  1  6
  6  7  1  0
  7  8  1  0
  7  9  1  0
  7 10  1  0
 10 11  2  0
 10 12  1  0
 12 13  1  0
  6 14  1  0
 14 15  1  1
 14 16  1  0
 16 17  2  0
 16 18  1  0
 18 19  2  0
 19 20  1  0
 19 21  1  0
 21 22  1  6
 22 23  1  0
 23 24  1  0
 24 25  1  6
 24 26  1  0
 26 27  2  0
 27 28  1  0
 28 29  2  0
 28 30  1  0
 30 31  1  0
 31 32  1  6
 32 33  2  0
 33 34  1  0
 34 35  1  0
 35 36  2  0
 21 14  1  0
 31 24  1  0
 36 32  1  0
 26 21  1  0
M  END
>  <identifier>  (7) 
CNP0251897.1

>  <canonical_smiles>  (7) 
COC(=O)C[C@@H](C(C)(C)C(=O)OC)[C@@]1(C)C(=O)C=C(C)[C@@]12CC[C@]1(C)C2=CC(=O)O[C@H]1C1=COC=C1

>  <standard_inchi>  (7) 
InChI=1S/C28H34O8/c1-16-12-20(29)27(5,18(13-21(30)33-6)25(2,3)24(32)34-7)28(16)10-9-26(4)19(28)14-22(31)36-23(26)17-8-11-35-15-17/h8,11-12,14-15,18,23H,9-10,13H2,1-7H3/t18-,23-,26+,27-,28+/m0/s1

>  <standard_inchi_key>  (7) 
CCEOEBVPPOEYLJ-KFYAJZQUSA-N

>  <name>  (7) 
nan

>  <iupac_name>  (7) 
dimethyl (3~{R})-3-[(1~{R},1'~{R},5~{R},7~{a}~{R})-1-(3-furyl)-1',3',7~{a}-trimethyl-3,5'-dioxo-spiro[6,7-dihydro-1~{H}-cyclopenta[c]pyran-5,2'-cyclopent-3-ene]-1'-yl]-2,2-dimethyl-pentanedioate

>  <annotation_level>  (7) 
4

>  <total_atom_count>  (7) 
70

>  <heavy_atom_count>  (7) 
36

>  <molecular_weight>  (7) 
498.57

>  <exact_molecular_weight>  (7) 
498.22537

>  <molecular_formula>  (7) 
C28H34O8

>  <alogp>  (7) 
4.50

>  <topological_polar_surface_area>  (7) 
109.11

>  <rotatable_bond_count>  (7) 
6

>  <hydrogen_bond_acceptors>  (7) 
8

>  <hydrogen_bond_donors>  (7) 
0

>  <hydrogen_bond_acceptors_lipinski>  (7) 
8

>  <hydrogen_bond_donors_lipinski>  (7) 
0

>  <lipinski_rule_of_five_violations>  (7) 
0

>  <aromatic_rings_count>  (7) 
1

>  <qed_drug_likeliness>  (7) 
0.42

>  <formal_charge>  (7) 
0

>  <fractioncsp3>  (7) 
0.57

>  <number_of_minimal_rings>  (7) 
4

>  <van_der_walls_volume>  (7) 
nan

>  <contains_sugar>  (7) 
False

>  <contains_ring_sugars>  (7) 
False

>  <contains_linear_sugars>  (7) 
False

>  <murcko_framework>  (7) 
o1ccc(c1)C2OCC=C3C2CCC43C=CCC4

>  <np_likeness>  (7) 
1.69

>  <chemical_class>  (7) 
Prenol lipids

>  <chemical_sub_class>  (7) 
Terpene lactones

>  <chemical_super_class>  (7) 
Lipids and lipid-like molecules

>  <direct_parent_classification>  (7) 
Terpene lactones

>  <np_classifier_pathway>  (7) 
Terpenoids

>  <np_classifier_superclass>  (7) 
Triterpenoids

>  <np_classifier_class>  (7) 
Limonoids

>  <np_classifier_is_glycoside>  (7) 
False

>  <organisms>  (7) 
Hortia oreadica

>  <collections>  (7) 
Latin America dataset|NuBBEDB|WikiData Natural Products|ZINC NP

>  <dois>  (7) 
10.1016/J.PHYTOCHEM.2011.12.016|10.1016/j.phytochem.2011.12.016

>  <synonyms>  (7) 
Guyanin

>  <cas>  (7) 
nan

$$$$

     RDKit          2D

 24 27  0  0  0  0  0  0  0  0999 V2000
   -5.0633   -0.3642    0.0000 C   0  0  0  0  0  0  0  0  0  0  0  0
   -3.9406    0.6305    0.0000 C   0  0  0  0  0  0  0  0  0  0  0  0
   -4.2407    2.1002    0.0000 C   0  0  0  0  0  0  0  0  0  0  0  0
   -3.1180    3.0950    0.0000 C   0  0  0  0  0  0  0  0  0  0  0  0
   -1.6952    2.6200    0.0000 C   0  0  0  0  0  0  0  0  0  0  0  0
   -0.5725    3.6148    0.0000 C   0  0  0  0  0  0  0  0  0  0  0  0
   -1.3950    1.1504    0.0000 C   0  0  0  0  0  0  0  0  0  0  0  0
   -2.5177    0.1556    0.0000 C   0  0  0  0  0  0  0  0  0  0  0  0
   -2.2176   -1.3140    0.0000 C   0  0  0  0  0  0  0  0  0  0  0  0
   -0.7948   -1.7890    0.0000 C   0  0  0  0  0  0  0  0  0  0  0  0
   -0.4946   -3.2586    0.0000 C   0  0  0  0  0  0  0  0  0  0  0  0
    0.9750   -2.9585    0.0000 C   0  0  0  0  0  0  0  0  0  0  0  0
   -1.9643   -3.5588    0.0000 C   0  0  0  0  0  0  0  0  0  0  0  0
   -0.1945   -4.7283    0.0000 O   0  0  0  0  0  0  0  0  0  0  0  0
    0.3279   -0.7942    0.0000 C   0  0  0  0  0  0  0  0  0  0  0  0
    1.7508   -1.2691    0.0000 N   0  0  0  0  0  0  0  0  0  0  0  0
    2.8735   -0.2744    0.0000 C   0  0  0  0  0  0  0  0  0  0  0  0
    4.2963   -0.7493    0.0000 C   0  0  0  0  0  0  0  0  0  0  0  0
    5.4190    0.2455    0.0000 C   0  0  0  0  0  0  0  0  0  0  0  0
    5.1189    1.7152    0.0000 C   0  0  0  0  0  0  0  0  0  0  0  0
    3.6960    2.1901    0.0000 C   0  0  0  0  0  0  0  0  0  0  0  0
    2.5733    1.1953    0.0000 C   0  0  0  0  0  0  0  0  0  0  0  0
    1.1505    1.6702    0.0000 N   0  0  0  0  0  0  0  0  0  0  0  0
    0.0278    0.6755    0.0000 C   0  0  0  0  0  0  0  0  0  0  0  0
  1  2  1  0
  2  3  2  0
  3  4  1  0
  4  5  2  0
  5  6  1  0
  5  7  1  0
  7  8  2  0
  8  9  1  0
  9 10  2  0
 10 11  1  0
 11 12  1  0
 11 13  1  0
 11 14  1  0
 10 15  1  0
 15 16  2  0
 16 17  1  0
 17 18  2  0
 18 19  1  0
 19 20  2  0
 20 21  1  0
 21 22  2  0
 22 23  1  0
 23 24  2  0
  8  2  1  0
 24 15  1  0
 24  7  1  0
 22 17  1  0
M  END
>  <identifier>  (8) 
CNP0080653.0

>  <canonical_smiles>  (8) 
CC1=CC=C(C)C2=C1C=C(C(C)(C)O)C1=NC3=CC=CC=C3N=C12

>  <standard_inchi>  (8) 
InChI=1S/C21H20N2O/c1-12-9-10-13(2)18-14(12)11-15(21(3,4)24)19-20(18)23-17-8-6-5-7-16(17)22-19/h5-11,24H,1-4H3

>  <standard_inchi_key>  (8) 
ZSQFZAHODYUZHY-UHFFFAOYSA-N

>  <name>  (8) 
nan

>  <iupac_name>  (8) 
2-(1,4-dimethylbenzo[a]phenazin-6-yl)propan-2-ol

>  <annotation_level>  (8) 
4

>  <total_atom_count>  (8) 
44

>  <heavy_atom_count>  (8) 
24

>  <molecular_weight>  (8) 
316.4

>  <exact_molecular_weight>  (8) 
316.15756

>  <molecular_formula>  (8) 
C21H20N2O

>  <alogp>  (8) 
4.78

>  <topological_polar_surface_area>  (8) 
46.01

>  <rotatable_bond_count>  (8) 
1

>  <hydrogen_bond_acceptors>  (8) 
3

>  <hydrogen_bond_donors>  (8) 
1

>  <hydrogen_bond_acceptors_lipinski>  (8) 
3

>  <hydrogen_bond_donors_lipinski>  (8) 
1

>  <lipinski_rule_of_five_violations>  (8) 
0

>  <aromatic_rings_count>  (8) 
4

>  <qed_drug_likeliness>  (8) 
0.41

>  <formal_charge>  (8) 
0

>  <fractioncsp3>  (8) 
0.24

>  <number_of_minimal_rings>  (8) 
4

>  <van_der_walls_volume>  (8) 
nan

>  <contains_sugar>  (8) 
False

>  <contains_ring_sugars>  (8) 
False

>  <contains_linear_sugars>  (8) 
False

>  <murcko_framework>  (8) 
n1c2ccccc2nc3c1ccc4ccccc43

>  <np_likeness>  (8) 
0.01

>  <chemical_class>  (8) 
Diazanaphthalenes

>  <chemical_sub_class>  (8) 
Benzodiazines

>  <chemical_super_class>  (8) 
Organoheterocyclic compounds

>  <direct_parent_classification>  (8) 
Phenazines and derivatives

>  <np_classifier_pathway>  (8) 
Alkaloids

>  <np_classifier_superclass>  (8) 
Anthranilic acid alkaloids

>  <np_classifier_class>  (8) 
Phenazine alkaloids

>  <np_classifier_is_glycoside>  (8) 
False

>  <organisms>  (8) 
Emmotum nitens

>  <collections>  (8) 
Latin America dataset|NuBBEDB|WikiData Natural Products|ZINC NP

>  <dois>  (8) 
10.1016/0031-9422(76)85091-1

>  <synonyms>  (8) 
6-(2'-hydroxyisopropyl)-14-dimethylbenzo[a]phenazine

>  <cas>  (8) 
nan

$$$$

     RDKit          2D

 23 26  0  0  0  0  0  0  0  0999 V2000
   -4.5247    2.2695    0.0000 C   0  0  0  0  0  0  0  0  0  0  0  0
   -4.8464    0.8044    0.0000 C   0  0  0  0  0  0  0  0  0  0  0  0
   -3.7385   -0.2068    0.0000 C   0  0  0  0  0  0  0  0  0  0  0  0
   -4.9266   -1.1223    0.0000 C   0  0  0  0  0  0  0  0  0  0  0  0
   -2.9351    1.0599    0.0000 C   0  0  0  0  0  0  0  0  0  0  0  0
   -1.4364    0.9975    0.0000 C   0  0  0  0  0  0  0  0  0  0  0  0
   -0.6330    2.2643    0.0000 C   0  0  0  0  0  0  0  0  0  0  0  0
    0.8657    2.2018    0.0000 C   0  0  0  0  0  0  0  0  0  0  0  0
    1.5610    0.8727    0.0000 C   0  0  0  0  0  0  0  0  0  0  0  0
    2.2563   -0.4564    0.0000 O   0  0  0  0  0  0  0  0  0  0  0  0
    0.7576   -0.3940    0.0000 C   0  0  0  0  0  0  0  0  0  0  0  0
    1.4529   -1.7231    0.0000 C   0  0  0  0  0  0  0  0  0  0  0  0
    2.9516   -1.7855    0.0000 C   0  0  0  0  0  0  0  0  0  0  0  0
    3.7550   -0.5188    0.0000 C   0  0  0  0  0  0  0  0  0  0  0  0
    5.2537   -0.5812    0.0000 C   0  0  0  0  0  0  0  0  0  0  0  0
    3.0597    0.8103    0.0000 C   0  0  0  0  0  0  0  0  0  0  0  0
    2.8609    2.2971    0.0000 C   0  0  0  0  0  0  0  0  0  0  0  0
    4.4894    1.2643    0.0000 C   0  0  0  0  0  0  0  0  0  0  0  0
   -0.7411   -0.3316    0.0000 C   0  0  0  0  0  0  0  0  0  0  0  0
   -0.0458   -1.6607    0.0000 C   0  0  0  0  0  0  0  0  0  0  0  0
   -1.5445   -1.5983    0.0000 C   0  0  0  0  0  0  0  0  0  0  0  0
   -0.8491   -2.9274    0.0000 O   0  0  0  0  0  0  0  0  0  0  0  0
   -3.0432   -1.5359    0.0000 C   0  0  0  0  0  0  0  0  0  0  0  0
  1  2  2  0
  2  3  1  0
  3  4  1  1
  3  5  1  0
  5  6  1  0
  6  7  1  0
  7  8  1  0
  9  8  1  1
  9 10  1  0
 10 11  1  0
 11 12  1  1
 12 13  1  0
 13 14  1  0
 14 15  2  0
 14 16  1  0
 16 17  1  0
 16 18  1  0
 11 19  1  0
 19 20  1  1
 19 21  1  0
 21 22  1  1
 21 23  1  0
 23  3  1  0
 19  6  1  0
 11  9  1  0
 16  9  1  0
M  END
>  <identifier>  (9) 
CNP0176189.1

>  <canonical_smiles>  (9) 
C=C[C@]1(C)CC2CC[C@@]34O[C@]3(CCC(=C)C4(C)C)[C@]2(C)[C@@H](O)C1

>  <standard_inchi>  (9) 
InChI=1S/C21H32O2/c1-7-18(5)12-15-9-11-20-17(3,4)14(2)8-10-21(20,23-20)19(15,6)16(22)13-18/h7,15-16,22H,1-2,8-13H2,3-6H3/t15?,16-,18+,19-,20-,21+/m0/s1

>  <standard_inchi_key>  (9) 
OXMXRSUILKJLIR-UKWKYZRESA-N

>  <name>  (9) 
(1~{R},2~{S},3~{S},5~{R},10~{S})-2,5,11,11-tetramethyl-12-methylene-5-vinyl-15-oxatetracyclo[8.4.1.0^{1,10}.0^{2,7}]pentadecan-3-ol

>  <iupac_name>  (9) 
(1~{R},2~{S},3~{S},5~{R},10~{S})-2,5,11,11-tetramethyl-12-methylene-5-vinyl-15-oxatetracyclo[8.4.1.0^{1,10}.0^{2,7}]pentadecan-3-ol

>  <annotation_level>  (9) 
3

>  <total_atom_count>  (9) 
55

>  <heavy_atom_count>  (9) 
23

>  <molecular_weight>  (9) 
316.49

>  <exact_molecular_weight>  (9) 
316.24023

>  <molecular_formula>  (9) 
C21H32O2

>  <alogp>  (9) 
4.63

>  <topological_polar_surface_area>  (9) 
32.76

>  <rotatable_bond_count>  (9) 
1

>  <hydrogen_bond_acceptors>  (9) 
2

>  <hydrogen_bond_donors>  (9) 
1

>  <hydrogen_bond_acceptors_lipinski>  (9) 
2

>  <hydrogen_bond_donors_lipinski>  (9) 
1

>  <lipinski_rule_of_five_violations>  (9) 
0

>  <aromatic_rings_count>  (9) 
0

>  <qed_drug_likeliness>  (9) 
0.56

>  <formal_charge>  (9) 
0

>  <fractioncsp3>  (9) 
0.81

>  <number_of_minimal_rings>  (9) 
4

>  <van_der_walls_volume>  (9) 
nan

>  <contains_sugar>  (9) 
False

>  <contains_ring_sugars>  (9) 
False

>  <contains_linear_sugars>  (9) 
False

>  <murcko_framework>  (9) 
O1C23CCCCC13C4CCCCC4CC2

>  <np_likeness>  (9) 
2.70

>  <chemical_class>  (9) 
Prenol lipids

>  <chemical_sub_class>  (9) 
Sesquiterpenoids

>  <chemical_super_class>  (9) 
Lipids and lipid-like molecules

>  <direct_parent_classification>  (9) 
Sesquiterpenoids

>  <np_classifier_pathway>  (9) 
Terpenoids

>  <np_classifier_superclass>  (9) 
Diterpenoids

>  <np_classifier_class>  (9) 
Erythroxylane diterpenoids

>  <np_classifier_is_glycoside>  (9) 
False

>  <organisms>  (9) 
Vellozia candida

>  <collections>  (9) 
Latin America dataset|NuBBEDB|WikiData Natural Products

>  <dois>  (9) 
10.1016/S0040-4039(00)94036-X

>  <synonyms>  (9) 
nan

>  <cas>  (9) 
nan

$$$$

     RDKit          2D

 27 28  0  0  0  0  0  0  0  0999 V2000
   -6.7074   -2.4622    0.0000 C   0  0  0  0  0  0  0  0  0  0  0  0
   -6.3816   -0.9980    0.0000 S   0  0  0  0  0  0  0  0  0  0  0  0
   -4.9507   -0.5480    0.0000 C   0  0  0  0  0  0  0  0  0  0  0  0
   -4.6250    0.9162    0.0000 C   0  0  0  0  0  0  0  0  0  0  0  0
   -5.7301    1.9304    0.0000 O   0  0  0  0  0  0  0  0  0  0  0  0
   -3.1941    1.3662    0.0000 N   0  0  0  0  0  0  0  0  0  0  0  0
   -2.8683    2.8304    0.0000 C   0  0  0  0  0  0  0  0  0  0  0  0
   -2.0889    0.3520    0.0000 C   0  0  0  0  0  0  0  0  0  0  0  0
   -1.2820    1.6165    0.0000 C   0  0  0  0  0  0  0  0  0  0  0  0
    0.2165    1.5500    0.0000 C   0  0  0  0  0  0  0  0  0  0  0  0
    0.9081    0.2189    0.0000 C   0  0  0  0  0  0  0  0  0  0  0  0
    2.4067    0.1524    0.0000 C   0  0  0  0  0  0  0  0  0  0  0  0
    3.2136    1.4169    0.0000 C   0  0  0  0  0  0  0  0  0  0  0  0
    4.7121    1.3503    0.0000 O   0  0  0  0  0  0  0  0  0  0  0  0
    5.4037    0.0193    0.0000 C   0  0  0  0  0  0  0  0  0  0  0  0
    6.9022   -0.0473    0.0000 C   0  0  0  0  0  0  0  0  0  0  0  0
    7.5939   -1.3783    0.0000 C   0  0  0  0  0  0  0  0  0  0  0  0
    9.0924   -1.4449    0.0000 C   0  0  0  0  0  0  0  0  0  0  0  0
    6.7870   -2.6428    0.0000 C   0  0  0  0  0  0  0  0  0  0  0  0
    2.5219    2.7479    0.0000 C   0  0  0  0  0  0  0  0  0  0  0  0
    1.0234    2.8144    0.0000 C   0  0  0  0  0  0  0  0  0  0  0  0
   -0.7035   -0.2230    0.0000 S   0  0  0  0  0  0  0  0  0  0  0  0
   -0.5088   -1.7104    0.0000 C   0  0  0  0  0  0  0  0  0  0  0  0
   -2.4147   -1.1122    0.0000 C   0  0  0  0  0  0  0  0  0  0  0  0
   -1.3095   -2.1264    0.0000 O   0  0  0  0  0  0  0  0  0  0  0  0
   -3.8456   -1.5622    0.0000 N   0  0  0  0  0  0  0  0  0  0  0  0
   -4.1713   -3.0264    0.0000 C   0  0  0  0  0  0  0  0  0  0  0  0
  1  2  1  0
  3  2  1  1
  3  4  1  0
  4  5  2  0
  4  6  1  0
  6  7  1  0
  6  8  1  0
  8  9  1  6
  9 10  1  0
 10 11  2  0
 11 12  1  0
 12 13  2  0
 13 14  1  0
 14 15  1  0
 15 16  1  0
 16 17  2  0
 17 18  1  0
 17 19  1  0
 13 20  1  0
 20 21  2  0
  8 22  1  0
 22 23  1  0
  8 24  1  0
 24 25  2  0
 24 26  1  0
 26 27  1  0
 26  3  1  0
 21 10  1  0
M  END
>  <identifier>  (10) 
CNP0266495.2

>  <canonical_smiles>  (10) 
CS[C@H]1C(=O)N(C)[C@@](CC2=CC=C(OCC=C(C)C)C=C2)(SC)C(=O)N1C

>  <standard_inchi>  (10) 
InChI=1S/C20H28N2O3S2/c1-14(2)11-12-25-16-9-7-15(8-10-16)13-20(27-6)19(24)21(3)18(26-5)17(23)22(20)4/h7-11,18H,12-13H2,1-6H3/t18-,20-/m0/s1

>  <standard_inchi_key>  (10) 
XBKBUMFBHNQOLC-ICSRJNTNSA-N

>  <name>  (10) 
nan

>  <iupac_name>  (10) 
(3~{S},6~{S})-1,4-dimethyl-3-[[4-(3-methylbut-2-enoxy)phenyl]methyl]-3,6-bis(methylsulfanyl)piperazine-2,5-dione

>  <annotation_level>  (10) 
4

>  <total_atom_count>  (10) 
55

>  <heavy_atom_count>  (10) 
27

>  <molecular_weight>  (10) 
408.59

>  <exact_molecular_weight>  (10) 
408.15413

>  <molecular_formula>  (10) 
C20H28N2O3S2

>  <alogp>  (10) 
3.25

>  <topological_polar_surface_area>  (10) 
49.85

>  <rotatable_bond_count>  (10) 
7

>  <hydrogen_bond_acceptors>  (10) 
5

>  <hydrogen_bond_donors>  (10) 
0

>  <hydrogen_bond_acceptors_lipinski>  (10) 
5

>  <hydrogen_bond_donors_lipinski>  (10) 
0

>  <lipinski_rule_of_five_violations>  (10) 
0

>  <aromatic_rings_count>  (10) 
1

>  <qed_drug_likeliness>  (10) 
0.65

>  <formal_charge>  (10) 
0

>  <fractioncsp3>  (10) 
0.50

>  <number_of_minimal_rings>  (10) 
2

>  <van_der_walls_volume>  (10) 
nan

>  <contains_sugar>  (10) 
False

>  <contains_ring_sugars>  (10) 
False

>  <contains_linear_sugars>  (10) 
False

>  <murcko_framework>  (10) 
c1ccc(cc1)CC2NCCNC2

>  <np_likeness>  (10) 
1.35

>  <chemical_class>  (10) 
Carboxylic acids and derivatives

>  <chemical_sub_class>  (10) 
Amino acids, peptides, and analogues

>  <chemical_super_class>  (10) 
Organic acids and derivatives

>  <direct_parent_classification>  (10) 
Alpha amino acids

>  <np_classifier_pathway>  (10) 
Alkaloids

>  <np_classifier_superclass>  (10) 
Peptide alkaloids

>  <np_classifier_class>  (10) 
Thiodiketopiperazine alkaloids

>  <np_classifier_is_glycoside>  (10) 
False

>  <organisms>  (10) 
Penicillium crustosum|Penicillium solitum

>  <collections>  (10) 
Latin America dataset|NPEdia|NuBBEDB|Super Natural II|WikiData Natural Products|ZINC NP

>  <dois>  (10) 
10.1016/J.PHYTOCHEM.2010.05.012|10.1016/j.phytochem.2010.05.012

>  <synonyms>  (10) 
cis-Bis(methylthio)silvatin

>  <cas>  (10) 
nan

$$$$

     RDKit          2D

 31 35  0  0  0  0  0  0  0  0999 V2000
    6.9113   -1.8002    0.0000 C   0  0  0  0  0  0  0  0  0  0  0  0
    5.4672   -1.3946    0.0000 C   0  0  0  0  0  0  0  0  0  0  0  0
    5.3185   -2.8873    0.0000 C   0  0  0  0  0  0  0  0  0  0  0  0
    3.9714   -1.5075    0.0000 C   0  0  0  0  0  0  0  0  0  0  0  0
    3.1258   -0.2685    0.0000 C   0  0  0  0  0  0  0  0  0  0  0  0
    1.6301   -0.3813    0.0000 C   0  0  0  0  0  0  0  0  0  0  0  0
    0.9799   -1.7331    0.0000 C   0  0  0  0  0  0  0  0  0  0  0  0
   -0.5159   -1.8459    0.0000 C   0  0  0  0  0  0  0  0  0  0  0  0
   -1.3614   -0.6070    0.0000 C   0  0  0  0  0  0  0  0  0  0  0  0
   -2.8572   -0.7198    0.0000 C   0  0  0  0  0  0  0  0  0  0  0  0
   -2.0116   -1.9587    0.0000 C   0  0  0  0  0  0  0  0  0  0  0  0
   -3.5074   -2.0716    0.0000 C   0  0  0  0  0  0  0  0  0  0  0  0
   -5.0031   -2.1844    0.0000 C   0  0  0  0  0  0  0  0  0  0  0  0
   -5.8487   -0.9454    0.0000 C   0  0  0  0  0  0  0  0  0  0  0  0
   -7.3444   -1.0582    0.0000 O   0  0  0  0  0  0  0  0  0  0  0  0
   -5.1985    0.4063    0.0000 C   0  0  0  0  0  0  0  0  0  0  0  0
   -5.0499    1.8990    0.0000 C   0  0  0  0  0  0  0  0  0  0  0  0
   -6.6426    0.8119    0.0000 C   0  0  0  0  0  0  0  0  0  0  0  0
   -3.7028    0.5192    0.0000 C   0  0  0  0  0  0  0  0  0  0  0  0
   -3.0526    1.8709    0.0000 C   0  0  0  0  0  0  0  0  0  0  0  0
   -1.5568    1.9837    0.0000 C   0  0  0  0  0  0  0  0  0  0  0  0
   -0.7113    0.7448    0.0000 C   0  0  0  0  0  0  0  0  0  0  0  0
   -0.0611    2.0966    0.0000 C   0  0  0  0  0  0  0  0  0  0  0  0
    0.7845    0.8576    0.0000 C   0  0  0  0  0  0  0  0  0  0  0  0
    2.2802    0.9704    0.0000 C   0  0  0  0  0  0  0  0  0  0  0  0
    1.4347    2.2094    0.0000 C   0  0  0  0  0  0  0  0  0  0  0  0
    2.9304    2.3222    0.0000 C   0  0  0  0  0  0  0  0  0  0  0  0
    3.7760    1.0833    0.0000 C   0  0  0  0  0  0  0  0  0  0  0  0
    4.4262    2.4350    0.0000 C   0  0  0  0  0  0  0  0  0  0  0  0
    5.2717    1.1961    0.0000 C   0  0  0  0  0  0  0  0  0  0  0  0
    6.1173   -0.0429    0.0000 C   0  0  0  0  0  0  0  0  0  0  0  0
  1  2  1  0
  2  3  1  0
  2  4  1  0
  4  5  2  0
  5  6  1  0
  6  7  1  1
  7  8  1  0
  9  8  1  6
  9 10  1  0
 10 11  1  6
 10 12  1  0
 12 13  1  0
 13 14  1  0
 14 15  2  0
 14 16  1  0
 16 17  1  0
 16 18  1  0
 16 19  1  0
 19 20  1  6
 20 21  1  0
 21 22  1  0
 22 23  1  6
 22 24  1  0
 24 25  1  1
 24 26  1  0
 26 27  1  0
 27 28  1  0
 28 29  1  6
 28 30  1  0
 30 31  1  0
 31  2  1  0
 28  5  1  0
 24  6  1  0
 22  9  1  0
 19 10  1  0
M  END
>  <identifier>  (11) 
CNP0322896.1

>  <canonical_smiles>  (11) 
CC1(C)C=C2[C@H]3CC[C@@H]4[C@@]5(C)CCC(=O)C(C)(C)[C@@H]5CC[C@@]4(C)[C@]3(C)CC[C@@]2(C)CC1

>  <standard_inchi>  (11) 
InChI=1S/C30H48O/c1-25(2)15-16-27(5)17-18-29(7)20(21(27)19-25)9-10-23-28(6)13-12-24(31)26(3,4)22(28)11-14-30(23,29)8/h19-20,22-23H,9-18H2,1-8H3/t20-,22+,23-,27-,28+,29-,30-/m1/s1

>  <standard_inchi_key>  (11) 
NQIUPAJMEMKVPU-YZGSOOAFSA-N

>  <name>  (11) 
germanicone

>  <iupac_name>  (11) 
(4~{a}~{R},6~{a}~{S},6~{a}~{R},6~{b}~{R},8~{a}~{R},14~{a}~{R},14~{b}~{R})-4,4,6~{a},6~{b},8~{a},11,11,14~{b}-octamethyl-2,4~{a},5,6,6~{a},7,8,9,10,13,14,14~{a}-dodecahydro-1~{H}-picen-3-one

>  <annotation_level>  (11) 
5

>  <total_atom_count>  (11) 
79

>  <heavy_atom_count>  (11) 
31

>  <molecular_weight>  (11) 
424.71

>  <exact_molecular_weight>  (11) 
424.37052

>  <molecular_formula>  (11) 
C30H48O

>  <alogp>  (11) 
8.38

>  <topological_polar_surface_area>  (11) 
17.07

>  <rotatable_bond_count>  (11) 
0

>  <hydrogen_bond_acceptors>  (11) 
1

>  <hydrogen_bond_donors>  (11) 
0

>  <hydrogen_bond_acceptors_lipinski>  (11) 
1

>  <hydrogen_bond_donors_lipinski>  (11) 
0

>  <lipinski_rule_of_five_violations>  (11) 
1

>  <aromatic_rings_count>  (11) 
0

>  <qed_drug_likeliness>  (11) 
0.36

>  <formal_charge>  (11) 
0

>  <fractioncsp3>  (11) 
0.90

>  <number_of_minimal_rings>  (11) 
5

>  <van_der_walls_volume>  (11) 
441.04

>  <contains_sugar>  (11) 
False

>  <contains_ring_sugars>  (11) 
False

>  <contains_linear_sugars>  (11) 
False

>  <murcko_framework>  (11) 
C1=C2C(CCC1)CCC3C2CCC4C5CCCCC5CCC34

>  <np_likeness>  (11) 
2.95

>  <chemical_class>  (11) 
Prenol lipids

>  <chemical_sub_class>  (11) 
Triterpenoids

>  <chemical_super_class>  (11) 
Lipids and lipid-like molecules

>  <direct_parent_classification>  (11) 
Oleanane triterpenoids

>  <np_classifier_pathway>  (11) 
Terpenoids

>  <np_classifier_superclass>  (11) 
Triterpenoids

>  <np_classifier_class>  (11) 
Taraxerane triterpenoids

>  <np_classifier_is_glycoside>  (11) 
False

>  <organisms>  (11) 
Acanthothamnus aphyllus|Adiantum capillus-veneris|Albizia odoratissima|Barringtonia racemosa|Celastraceae|Cordiera macrophylla|Culcitium canescens|Euphorbia tirucalli|Festuca hieronymi|Flindersia bourjotiana|Gelasia cretica|Ixeris chinensis|Mallotus nudiflorus|Picris hieracioides|Poa huecu|Pterogyne nitens|Scorzonera cretica|Xerosicyos danguyi|celastraceae sp.

>  <collections>  (11) 
Australian natural products|ChemSpider NPs|KNApSaCK|Latin America dataset|NPASS|NuBBEDB|Super Natural II|WikiData Natural Products|ZINC NP

>  <dois>  (11) 
10.1002/CHIN.200307128|10.1002/CHIN.200630195|10.1002/HLCA.200590178|10.1002/HLCA.200690256|10.1002/HLCA.200790187|10.1016/0031-9422(91)85077-D|10.1016/0305-1978(96)00011-7|10.1016/J.EJMECH.2012.03.035|10.1016/S0031-9422(00)89810-6|10.1016/S0031-9422(00)97558-7|10.1016/S0305-1978(98)00070-2|10.1016/j.ejmech.2012.03.035|10.1021/NP0103665|10.1021/NP50052A040|10.1071/CH9660455|10.1071/ch9660455|10.1248/CPB.43.1634|10.1248/CPB.44.509|10.1248/CPB.50.1273|10.4067/S0717-97072009000300004

>  <synonyms>  (11) 
CHEMBL2023104|Germanicone|Olean 18-en-3-one|SCHEMBL1642921

>  <cas>  (11) 
nan

$$$$

     RDKit          2D

 35 38  0  0  0  0  0  0  0  0999 V2000
   -5.4653    3.2630    0.0000 C   0  0  0  0  0  0  0  0  0  0  0  0
   -5.9410    1.8404    0.0000 O   0  0  0  0  0  0  0  0  0  0  0  0
   -4.9469    0.7172    0.0000 C   0  0  0  0  0  0  0  0  0  0  0  0
   -3.4770    1.0165    0.0000 C   0  0  0  0  0  0  0  0  0  0  0  0
   -2.4829   -0.1067    0.0000 C   0  0  0  0  0  0  0  0  0  0  0  0
   -1.0131    0.1926    0.0000 C   0  0  0  0  0  0  0  0  0  0  0  0
   -0.5374    1.6152    0.0000 C   0  0  0  0  0  0  0  0  0  0  0  0
    0.9324    1.9145    0.0000 C   0  0  0  0  0  0  0  0  0  0  0  0
    1.4081    3.3371    0.0000 O   0  0  0  0  0  0  0  0  0  0  0  0
    1.9266    0.7913    0.0000 C   0  0  0  0  0  0  0  0  0  0  0  0
    3.3964    1.0906    0.0000 C   0  0  0  0  0  0  0  0  0  0  0  0
    3.8721    2.5132    0.0000 O   0  0  0  0  0  0  0  0  0  0  0  0
    5.3419    2.8125    0.0000 C   0  0  0  0  0  0  0  0  0  0  0  0
    5.8176    4.2351    0.0000 C   0  0  0  0  0  0  0  0  0  0  0  0
    6.3361    1.6893    0.0000 O   0  0  0  0  0  0  0  0  0  0  0  0
    4.3906   -0.0326    0.0000 C   0  0  0  0  0  0  0  0  0  0  0  0
    3.9149   -1.4552    0.0000 C   0  0  0  0  0  0  0  0  0  0  0  0
    2.4450   -1.7545    0.0000 C   0  0  0  0  0  0  0  0  0  0  0  0
    1.4509   -0.6313    0.0000 C   0  0  0  0  0  0  0  0  0  0  0  0
   -0.0189   -0.9306    0.0000 O   0  0  0  0  0  0  0  0  0  0  0  0
    4.9090   -2.5785    0.0000 O   0  0  0  0  0  0  0  0  0  0  0  0
    6.3789   -2.2791    0.0000 C   0  0  0  0  0  0  0  0  0  0  0  0
    7.8624   -2.5006    0.0000 C   0  0  0  0  0  0  0  0  0  0  0  0
    6.4184   -3.7786    0.0000 C   0  0  0  0  0  0  0  0  0  0  0  0
    6.8545   -0.8565    0.0000 C   0  0  0  0  0  0  0  0  0  0  0  0
    5.8604    0.2667    0.0000 C   0  0  0  0  0  0  0  0  0  0  0  0
   -2.9586   -1.5293    0.0000 C   0  0  0  0  0  0  0  0  0  0  0  0
   -4.4284   -1.8286    0.0000 C   0  0  0  0  0  0  0  0  0  0  0  0
   -4.9041   -3.2512    0.0000 O   0  0  0  0  0  0  0  0  0  0  0  0
   -6.3739   -3.5505    0.0000 C   0  0  0  0  0  0  0  0  0  0  0  0
   -5.4226   -0.7054    0.0000 C   0  0  0  0  0  0  0  0  0  0  0  0
   -6.8924   -1.0047    0.0000 O   0  0  0  0  0  0  0  0  0  0  0  0
   -7.8865    0.1185    0.0000 C   0  0  0  0  0  0  0  0  0  0  0  0
   -9.3564   -0.1808    0.0000 C   0  0  0  0  0  0  0  0  0  0  0  0
   -7.4109    1.5411    0.0000 O   0  0  0  0  0  0  0  0  0  0  0  0
  1  2  1  0
  2  3  1  0
  3  4  2  0
  4  5  1  0
  5  6  1  0
  6  7  2  0
  7  8  1  0
  8  9  2  0
  8 10  1  0
 10 11  2  0
 11 12  1  0
 12 13  1  0
 13 14  1  0
 13 15  2  0
 11 16  1  0
 16 17  2  0
 17 18  1  0
 18 19  2  0
 19 20  1  0
 17 21  1  0
 21 22  1  0
 22 23  1  0
 22 24  1  0
 22 25  1  0
 25 26  2  0
  5 27  2  0
 27 28  1  0
 28 29  1  0
 29 30  1  0
 28 31  2  0
 31 32  1  0
 32 33  1  0
 33 34  1  0
 33 35  2  0
 31  3  1  0
 20  6  1  0
 19 10  1  0
 26 16  1  0
M  END
>  <identifier>  (12) 
CNP0080467.0

>  <canonical_smiles>  (12) 
COC1=CC(C2=CC(=O)C3=C(OC(C)=O)C4=C(C=C3O2)OC(C)(C)C=C4)=CC(OC)=C1OC(C)=O

>  <standard_inchi>  (12) 
InChI=1S/C26H24O9/c1-13(27)32-24-16-7-8-26(3,4)35-19(16)12-20-23(24)17(29)11-18(34-20)15-9-21(30-5)25(33-14(2)28)22(10-15)31-6/h7-12H,1-6H3

>  <standard_inchi_key>  (12) 
KTYQQSHWLHGDFO-UHFFFAOYSA-N

>  <name>  (12) 
nan

>  <iupac_name>  (12) 
[4-(5-acetoxy-2,2-dimethyl-6-oxo-pyrano[3,2-g]chromen-8-yl)-2,6-dimethoxy-phenyl] acetate

>  <annotation_level>  (12) 
4

>  <total_atom_count>  (12) 
59

>  <heavy_atom_count>  (12) 
35

>  <molecular_weight>  (12) 
480.47

>  <exact_molecular_weight>  (12) 
480.14203

>  <molecular_formula>  (12) 
C26H24O9

>  <alogp>  (12) 
4.51

>  <topological_polar_surface_area>  (12) 
110.50

>  <rotatable_bond_count>  (12) 
5

>  <hydrogen_bond_acceptors>  (12) 
9

>  <hydrogen_bond_donors>  (12) 
0

>  <hydrogen_bond_acceptors_lipinski>  (12) 
9

>  <hydrogen_bond_donors_lipinski>  (12) 
0

>  <lipinski_rule_of_five_violations>  (12) 
0

>  <aromatic_rings_count>  (12) 
3

>  <qed_drug_likeliness>  (12) 
0.38

>  <formal_charge>  (12) 
0

>  <fractioncsp3>  (12) 
0.27

>  <number_of_minimal_rings>  (12) 
4

>  <van_der_walls_volume>  (12) 
nan

>  <contains_sugar>  (12) 
False

>  <contains_ring_sugars>  (12) 
False

>  <contains_linear_sugars>  (12) 
False

>  <murcko_framework>  (12) 
O1c2cc3OCC=Cc3cc2CC=C1c4ccccc4

>  <np_likeness>  (12) 
1.66

>  <chemical_class>  (12) 
Flavonoids

>  <chemical_sub_class>  (12) 
Pyranoflavonoids

>  <chemical_super_class>  (12) 
Phenylpropanoids and polyketides

>  <direct_parent_classification>  (12) 
Pyranoflavonoids

>  <np_classifier_pathway>  (12) 
Shikimates and Phenylpropanoids

>  <np_classifier_superclass>  (12) 
Flavonoids

>  <np_classifier_class>  (12) 
Flavones

>  <np_classifier_is_glycoside>  (12) 
False

>  <organisms>  (12) 
Neoraputia paraensis

>  <collections>  (12) 
Latin America dataset|NuBBEDB|WikiData Natural Products|ZINC NP

>  <dois>  (12) 
10.1016/S0031-9422(99)00197-1

>  <synonyms>  (12) 
3'5'-diacetyl-54'-dihydroxy-67-(2''2''-dimethylpyran)flavone

>  <cas>  (12) 
nan

$$$$

     RDKit          2D

 35 39  0  0  0  0  0  0  0  0999 V2000
    5.9918   -4.3103    0.0000 C   0  0  0  0  0  0  0  0  0  0  0  0
    6.0321   -2.8109    0.0000 O   0  0  0  0  0  0  0  0  0  0  0  0
    4.7537   -2.0262    0.0000 C   0  0  0  0  0  0  0  0  0  0  0  0
    3.4350   -2.7410    0.0000 O   0  0  0  0  0  0  0  0  0  0  0  0
    4.7941   -0.5268    0.0000 C   0  0  0  0  0  0  0  0  0  0  0  0
    6.2637   -0.8269    0.0000 C   0  0  0  0  0  0  0  0  0  0  0  0
    3.3104   -0.7474    0.0000 C   0  0  0  0  0  0  0  0  0  0  0  0
    2.3774    0.4271    0.0000 C   0  0  0  0  0  0  0  0  0  0  0  0
    2.9282    1.8224    0.0000 C   0  0  0  0  0  0  0  0  0  0  0  0
    3.4789    3.2176    0.0000 C   0  0  0  0  0  0  0  0  0  0  0  0
    1.9952    2.9969    0.0000 C   0  0  0  0  0  0  0  0  0  0  0  0
    0.5116    2.7763    0.0000 C   0  0  0  0  0  0  0  0  0  0  0  0
   -0.4214    3.9509    0.0000 C   0  0  0  0  0  0  0  0  0  0  0  0
   -0.0392    1.3810    0.0000 C   0  0  0  0  0  0  0  0  0  0  0  0
   -1.5229    1.1604    0.0000 C   0  0  0  0  0  0  0  0  0  0  0  0
   -2.4558    2.3350    0.0000 C   0  0  0  0  0  0  0  0  0  0  0  0
   -3.9395    2.1143    0.0000 C   0  0  0  0  0  0  0  0  0  0  0  0
   -4.4902    0.7191    0.0000 C   0  0  0  0  0  0  0  0  0  0  0  0
   -3.5573   -0.4555    0.0000 C   0  0  0  0  0  0  0  0  0  0  0  0
   -4.1080   -1.8508    0.0000 C   0  0  0  0  0  0  0  0  0  0  0  0
   -5.5917   -2.0714    0.0000 C   0  0  0  0  0  0  0  0  0  0  0  0
   -6.1424   -3.4666    0.0000 O   0  0  0  0  0  0  0  0  0  0  0  0
   -6.5246   -0.8968    0.0000 C   0  0  0  0  0  0  0  0  0  0  0  0
   -8.0083   -1.1175    0.0000 O   0  0  0  0  0  0  0  0  0  0  0  0
   -5.9739    0.4984    0.0000 C   0  0  0  0  0  0  0  0  0  0  0  0
   -6.9068    1.6730    0.0000 C   0  0  0  0  0  0  0  0  0  0  0  0
   -2.0736   -0.2349    0.0000 C   0  0  0  0  0  0  0  0  0  0  0  0
   -2.6243   -1.6301    0.0000 C   0  0  0  0  0  0  0  0  0  0  0  0
   -1.1407   -1.4094    0.0000 C   0  0  0  0  0  0  0  0  0  0  0  0
    0.3430   -1.1888    0.0000 C   0  0  0  0  0  0  0  0  0  0  0  0
    0.8938    0.2065    0.0000 C   0  0  0  0  0  0  0  0  0  0  0  0
    1.8267   -0.9681    0.0000 C   0  0  0  0  0  0  0  0  0  0  0  0
    4.4119    2.0430    0.0000 C   0  0  0  0  0  0  0  0  0  0  0  0
    5.3448    0.8685    0.0000 C   0  0  0  0  0  0  0  0  0  0  0  0
    6.8285    1.0891    0.0000 O   0  0  0  0  0  0  0  0  0  0  0  0
  1  2  1  0
  2  3  1  0
  3  4  2  0
  3  5  1  0
  5  6  1  6
  5  7  1  0
  8  7  1  1
  8  9  1  0
  9 10  1  6
  9 11  1  0
 11 12  1  0
 12 13  1  0
 12 14  2  0
 14 15  1  0
 15 16  2  0
 16 17  1  0
 17 18  2  0
 18 19  1  0
 19 20  2  0
 20 21  1  0
 21 22  2  0
 21 23  1  0
 23 24  1  0
 23 25  2  0
 25 26  1  0
 19 27  1  0
 27 28  1  6
 27 29  1  0
 29 30  1  0
 30 31  1  0
 31 32  1  1
  9 33  1  0
 33 34  1  0
 34 35  1  6
 34  5  1  0
 31  8  1  0
 31 14  1  0
 27 15  1  0
 25 18  1  0
M  END
>  <identifier>  (13) 
CNP0255506.1

>  <canonical_smiles>  (13) 
COC(=O)[C@@]1(C)C[C@@H]2[C@@](C)(CC(C)=C3C4=CC=C5C(=CC(=O)C(O)=C5C)[C@]4(C)CC[C@]32C)C[C@@H]1O

>  <standard_inchi>  (13) 
InChI=1S/C30H38O5/c1-16-13-27(3)15-23(32)30(6,26(34)35-7)14-22(27)29(5)11-10-28(4)19(24(16)29)9-8-18-17(2)25(33)21(31)12-20(18)28/h8-9,12,22-23,32-33H,10-11,13-15H2,1-7H3/t22-,23+,27+,28-,29+,30+/m1/s1

>  <standard_inchi_key>  (13) 
AKILTDMBUDIAST-KILMDDQQSA-N

>  <name>  (13) 
Netzahualcoyonol

>  <iupac_name>  (13) 
methyl (2~{S},3~{S},4~{a}~{S},6~{a}~{S},14~{a}~{S},14~{b}~{R})-3,10-dihydroxy-2,4~{a},6,6~{a},9,14~{a}-hexamethyl-11-oxo-3,4,5,13,14,14~{b}-hexahydro-1~{H}-picene-2-carboxylate

>  <annotation_level>  (13) 
5

>  <total_atom_count>  (13) 
73

>  <heavy_atom_count>  (13) 
35

>  <molecular_weight>  (13) 
478.63

>  <exact_molecular_weight>  (13) 
478.27192

>  <molecular_formula>  (13) 
C30H38O5

>  <alogp>  (13) 
5.68

>  <topological_polar_surface_area>  (13) 
83.83

>  <rotatable_bond_count>  (13) 
1

>  <hydrogen_bond_acceptors>  (13) 
5

>  <hydrogen_bond_donors>  (13) 
2

>  <hydrogen_bond_acceptors_lipinski>  (13) 
5

>  <hydrogen_bond_donors_lipinski>  (13) 
2

>  <lipinski_rule_of_five_violations>  (13) 
1

>  <aromatic_rings_count>  (13) 
0

>  <qed_drug_likeliness>  (13) 
0.47

>  <formal_charge>  (13) 
0

>  <fractioncsp3>  (13) 
0.60

>  <number_of_minimal_rings>  (13) 
5

>  <van_der_walls_volume>  (13) 
449.35

>  <contains_sugar>  (13) 
False

>  <contains_ring_sugars>  (13) 
False

>  <contains_linear_sugars>  (13) 
False

>  <murcko_framework>  (13) 
C=1C=C2C3=CCC4CCCCC4C3CCC2C5=CCC=CC15

>  <np_likeness>  (13) 
3.07

>  <chemical_class>  (13) 
Steroids and steroid derivatives

>  <chemical_sub_class>  (13) 
Hydroxysteroids

>  <chemical_super_class>  (13) 
Lipids and lipid-like molecules

>  <direct_parent_classification>  (13) 
3-hydroxysteroids

>  <np_classifier_pathway>  (13) 
Terpenoids

>  <np_classifier_superclass>  (13) 
Triterpenoids

>  <np_classifier_class>  (13) 
nan

>  <np_classifier_is_glycoside>  (13) 
False

>  <organisms>  (13) 
Cheiloclinium cognatum|Orthosphenia mexicana|Salacia cordata|Salacia petenensis

>  <collections>  (13) 
ChemSpider NPs|Latin America dataset|NuBBEDB|Super Natural II|WikiData Natural Products|ZINC NP

>  <dois>  (13) 
10.1016/0031-9422(88)83123-6|10.1016/J.PHYTOCHEM.2004.03.039|10.1016/j.phytochem.2004.03.039|10.1055/S-2001-10879

>  <synonyms>  (13) 
AKOS040746154|Netzahualcoyonol

>  <cas>  (13) 
nan

$$$$

     RDKit          2D

 27 30  0  0  0  0  0  0  0  0999 V2000
    6.4994   -3.1331    0.0000 C   0  0  0  0  0  0  0  0  0  0  0  0
    6.9463   -1.7012    0.0000 O   0  0  0  0  0  0  0  0  0  0  0  0
    5.9296   -0.5982    0.0000 C   0  0  0  0  0  0  0  0  0  0  0  0
    4.4661   -0.9272    0.0000 C   0  0  0  0  0  0  0  0  0  0  0  0
    3.4495    0.1757    0.0000 C   0  0  0  0  0  0  0  0  0  0  0  0
    1.9860   -0.1533    0.0000 C   0  0  0  0  0  0  0  0  0  0  0  0
    1.3919   -1.5306    0.0000 O   0  0  0  0  0  0  0  0  0  0  0  0
   -0.1016   -1.3913    0.0000 C   0  0  0  0  0  0  0  0  0  0  0  0
   -0.4305    0.0722    0.0000 C   0  0  0  0  0  0  0  0  0  0  0  0
    0.8597    0.8373    0.0000 C   0  0  0  0  0  0  0  0  0  0  0  0
    0.5307    2.3008    0.0000 C   0  0  0  0  0  0  0  0  0  0  0  0
   -0.9628    2.4402    0.0000 O   0  0  0  0  0  0  0  0  0  0  0  0
   -1.5569    1.0628    0.0000 C   0  0  0  0  0  0  0  0  0  0  0  0
   -3.0204    0.7339    0.0000 C   0  0  0  0  0  0  0  0  0  0  0  0
   -4.0370    1.8368    0.0000 C   0  0  0  0  0  0  0  0  0  0  0  0
   -5.5005    1.5078    0.0000 C   0  0  0  0  0  0  0  0  0  0  0  0
   -5.9473    0.0759    0.0000 C   0  0  0  0  0  0  0  0  0  0  0  0
   -7.4108   -0.2531    0.0000 O   0  0  0  0  0  0  0  0  0  0  0  0
   -8.4275    0.8499    0.0000 C   0  0  0  0  0  0  0  0  0  0  0  0
   -4.9307   -1.0270    0.0000 C   0  0  0  0  0  0  0  0  0  0  0  0
   -5.3775   -2.4589    0.0000 O   0  0  0  0  0  0  0  0  0  0  0  0
   -4.3609   -3.5618    0.0000 C   0  0  0  0  0  0  0  0  0  0  0  0
   -3.4672   -0.6980    0.0000 C   0  0  0  0  0  0  0  0  0  0  0  0
    3.8963    1.6076    0.0000 C   0  0  0  0  0  0  0  0  0  0  0  0
    5.3598    1.9366    0.0000 C   0  0  0  0  0  0  0  0  0  0  0  0
    6.3765    0.8337    0.0000 C   0  0  0  0  0  0  0  0  0  0  0  0
    7.8399    1.1626    0.0000 O   0  0  0  0  0  0  0  0  0  0  0  0
  1  2  1  0
  2  3  1  0
  3  4  2  0
  4  5  1  0
  6  5  1  1
  6  7  1  0
  7  8  1  0
  9  8  1  6
  9 10  1  0
 10 11  1  6
 11 12  1  0
 12 13  1  0
 13 14  1  1
 14 15  2  0
 15 16  1  0
 16 17  2  0
 17 18  1  0
 18 19  1  0
 17 20  1  0
 20 21  1  0
 21 22  1  0
 20 23  2  0
  5 24  2  0
 24 25  1  0
 25 26  2  0
 26 27  1  0
 26  3  1  0
 10  6  1  0
 23 14  1  0
 13  9  1  0
M  END
>  <identifier>  (14) 
CNP0276676.1

>  <canonical_smiles>  (14) 
COC1=CC([C@H]2OC[C@H]3[C@@H]2CO[C@@H]3C2=CC=C(OC)C(OC)=C2)=CC=C1O

>  <standard_inchi>  (14) 
InChI=1S/C21H24O6/c1-23-17-7-5-13(9-19(17)25-3)21-15-11-26-20(14(15)10-27-21)12-4-6-16(22)18(8-12)24-2/h4-9,14-15,20-22H,10-11H2,1-3H3/t14-,15-,20+,21+/m0/s1

>  <standard_inchi_key>  (14) 
CPJKKWDCUOOTEW-VUEDXXQZSA-N

>  <name>  (14) 
MEGxp0_000528

>  <iupac_name>  (14) 
4-[(3~{S},3~{a}~{R},6~{S},6~{a}~{R})-6-(3,4-dimethoxyphenyl)-1,3,3~{a},4,6,6~{a}-hexahydrofuro[3,4-c]furan-3-yl]-2-methoxy-phenol

>  <annotation_level>  (14) 
5

>  <total_atom_count>  (14) 
51

>  <heavy_atom_count>  (14) 
27

>  <molecular_weight>  (14) 
372.42

>  <exact_molecular_weight>  (14) 
372.15729

>  <molecular_formula>  (14) 
C21H24O6

>  <alogp>  (14) 
3.49

>  <topological_polar_surface_area>  (14) 
66.38

>  <rotatable_bond_count>  (14) 
5

>  <hydrogen_bond_acceptors>  (14) 
6

>  <hydrogen_bond_donors>  (14) 
1

>  <hydrogen_bond_acceptors_lipinski>  (14) 
6

>  <hydrogen_bond_donors_lipinski>  (14) 
1

>  <lipinski_rule_of_five_violations>  (14) 
0

>  <aromatic_rings_count>  (14) 
2

>  <qed_drug_likeliness>  (14) 
0.87

>  <formal_charge>  (14) 
0

>  <fractioncsp3>  (14) 
0.43

>  <number_of_minimal_rings>  (14) 
4

>  <van_der_walls_volume>  (14) 
333.43

>  <contains_sugar>  (14) 
False

>  <contains_ring_sugars>  (14) 
False

>  <contains_linear_sugars>  (14) 
False

>  <murcko_framework>  (14) 
O1CC2C(OCC2C1c3ccccc3)c4ccccc4

>  <np_likeness>  (14) 
0.94

>  <chemical_class>  (14) 
Furanoid lignans

>  <chemical_sub_class>  (14) 
Furan lignans

>  <chemical_super_class>  (14) 
Lignans, neolignans and related compounds

>  <direct_parent_classification>  (14) 
Furan lignans

>  <np_classifier_pathway>  (14) 
Shikimates and Phenylpropanoids

>  <np_classifier_superclass>  (14) 
Lignans

>  <np_classifier_class>  (14) 
Furofuranoid lignans

>  <np_classifier_is_glycoside>  (14) 
False

>  <organisms>  (14) 
Amentotaxus yunnanensis|Araucaria angustifolia|Forsythia giraldiana|Forsythia japonica|Pandanus odoratissimus|Pandanus odorifer|Pandanus tectorius|Pandanus utilis|Torreta yunnanensis

>  <collections>  (14) 
AnalytiCon Discovery NPs|GNPS (Global Natural Products Social Molecular Networking)|KNApSaCK|Latin America dataset|NuBBEDB|Super Natural II|WikiData Natural Products|ZINC NP

>  <dois>  (14) 
10.1016/0031-9422(79)80188-0|10.1016/0031-9422(92)80293-N|10.1016/S0031-9422(98)00390-2|10.1021/NP030117B|10.1248/CPB.36.3667

>  <synonyms>  (14) 
(+)-Pinoresinol monomethyl ether|ACon1_001697|AKOS040734036|BRD-K15077846-001-01-2|NCGC00180234-01|NCGC00180234-02!4-[(3S,3aR,6S,6aR)-6-(3,4-dimethoxyphenyl)-1,3,3a,4,6,6a-hexahydrofuro[3,4-c]furan-3-yl]-2-methoxyphenol|NS00097465|Pinoresinol-4''-methyl ether

>  <cas>  (14) 
nan

$$$$

     RDKit          2D

 20 21  0  0  0  0  0  0  0  0999 V2000
   -2.2211   -3.5194    0.0000 C   0  0  0  0  0  0  0  0  0  0  0  0
   -1.7858   -2.0839    0.0000 O   0  0  0  0  0  0  0  0  0  0  0  0
   -0.3250   -1.7432    0.0000 C   0  0  0  0  0  0  0  0  0  0  0  0
    0.7005   -2.8379    0.0000 C   0  0  0  0  0  0  0  0  0  0  0  0
    2.1612   -2.4972    0.0000 C   0  0  0  0  0  0  0  0  0  0  0  0
    2.5966   -1.0617    0.0000 C   0  0  0  0  0  0  0  0  0  0  0  0
    4.0573   -0.7210    0.0000 C   0  0  0  0  0  0  0  0  0  0  0  0
    4.4927    0.7144    0.0000 C   0  0  0  0  0  0  0  0  0  0  0  0
    3.4672    1.8092    0.0000 C   0  0  0  0  0  0  0  0  0  0  0  0
    3.9025    3.2446    0.0000 O   0  0  0  0  0  0  0  0  0  0  0  0
    2.0064    1.4684    0.0000 O   0  0  0  0  0  0  0  0  0  0  0  0
    1.5711    0.0330    0.0000 C   0  0  0  0  0  0  0  0  0  0  0  0
    0.1103   -0.3078    0.0000 C   0  0  0  0  0  0  0  0  0  0  0  0
   -0.9152    0.7870    0.0000 C   0  0  0  0  0  0  0  0  0  0  0  0
   -2.3760    0.4462    0.0000 C   0  0  0  0  0  0  0  0  0  0  0  0
   -2.8113   -0.9892    0.0000 O   0  0  0  0  0  0  0  0  0  0  0  0
   -3.4014    1.5409    0.0000 C   0  0  0  0  0  0  0  0  0  0  0  0
   -2.3067    2.5664    0.0000 C   0  0  0  0  0  0  0  0  0  0  0  0
   -4.4962    0.5155    0.0000 C   0  0  0  0  0  0  0  0  0  0  0  0
   -4.4269    2.6357    0.0000 O   0  0  0  0  0  0  0  0  0  0  0  0
  1  2  1  0
  2  3  1  0
  3  4  2  0
  4  5  1  0
  5  6  2  0
  6  7  1  0
  7  8  2  0
  8  9  1  0
  9 10  2  0
  9 11  1  0
 11 12  1  0
 12 13  2  0
 13 14  1  0
 14 15  1  0
 15 16  1  6
 15 17  1  0
 17 18  1  0
 17 19  1  0
 17 20  1  0
 13  3  1  0
 12  6  1  0
M  END
>  <identifier>  (15) 
CNP0310873.1

>  <canonical_smiles>  (15) 
COC1=CC=C2C=CC(=O)OC2=C1C[C@H](O)C(C)(C)O

>  <standard_inchi>  (15) 
InChI=1S/C15H18O5/c1-15(2,18)12(16)8-10-11(19-3)6-4-9-5-7-13(17)20-14(9)10/h4-7,12,16,18H,8H2,1-3H3/t12-/m0/s1

>  <standard_inchi_key>  (15) 
KGGUASRIGLRPAX-LBPRGKRZSA-N

>  <name>  (15) 
Meranzin hydrate

>  <iupac_name>  (15) 
8-[(2~{S})-2,3-dihydroxy-3-methyl-butyl]-7-methoxy-chromen-2-one

>  <annotation_level>  (15) 
5

>  <total_atom_count>  (15) 
38

>  <heavy_atom_count>  (15) 
20

>  <molecular_weight>  (15) 
278.3

>  <exact_molecular_weight>  (15) 
278.11542

>  <molecular_formula>  (15) 
C15H18O5

>  <alogp>  (15) 
1.48

>  <topological_polar_surface_area>  (15) 
79.90

>  <rotatable_bond_count>  (15) 
4

>  <hydrogen_bond_acceptors>  (15) 
5

>  <hydrogen_bond_donors>  (15) 
2

>  <hydrogen_bond_acceptors_lipinski>  (15) 
5

>  <hydrogen_bond_donors_lipinski>  (15) 
2

>  <lipinski_rule_of_five_violations>  (15) 
0

>  <aromatic_rings_count>  (15) 
2

>  <qed_drug_likeliness>  (15) 
0.83

>  <formal_charge>  (15) 
0

>  <fractioncsp3>  (15) 
0.40

>  <number_of_minimal_rings>  (15) 
2

>  <van_der_walls_volume>  (15) 
248.74

>  <contains_sugar>  (15) 
False

>  <contains_ring_sugars>  (15) 
False

>  <contains_linear_sugars>  (15) 
False

>  <murcko_framework>  (15) 
O1c2ccccc2C=CC1

>  <np_likeness>  (15) 
1.65

>  <chemical_class>  (15) 
Coumarins and derivatives

>  <chemical_sub_class>  (15) 
Coumarins and derivatives

>  <chemical_super_class>  (15) 
Phenylpropanoids and polyketides

>  <direct_parent_classification>  (15) 
Coumarins and derivatives

>  <np_classifier_pathway>  (15) 
Shikimates and Phenylpropanoids

>  <np_classifier_superclass>  (15) 
Coumarins

>  <np_classifier_class>  (15) 
Simple coumarins

>  <np_classifier_is_glycoside>  (15) 
False

>  <organisms>  (15) 
Achillea ageratum|Aglaia odorata|Angelica Pubescens|Angelica pubescens|Aplidium californicum|Citrus aurantium|Citrus maxima|Citrus medica|Citrus natsudaidai|Citrus sinensis|Citrus trifoliata|Citrus wilsonii|Cnidium Monnieri|Cnidium monnieri|Ferula moschata|Ferula sumbul|Glycosmis pentaphylla|Leionema coxii|Monoon membranifolium|Murraya Paniculata|Murraya exotica|Murraya paniculata|Phebalium canaliculatum|Phebalium tuberculosum|Pilocarpus riedelianus|Pulmonaria officinalis|Strychnos malacoclados

>  <collections>  (15) 
Australian natural products|CMAUP (cCollective molecular activities of useful plants)|KNApSaCK|Latin America dataset|NPASS|NuBBEDB|Super Natural II|TIPdb (database of Taiwan indigenous plants)|VietHerb|WikiData Natural Products|ZINC NP

>  <dois>  (15) 
10.1002/JCCS.199400032|10.1016/0031-9422(92)83450-D|10.1016/0031-9422(93)80055-W|10.1016/S0031-9422(00)97490-9|10.1016/S0031-9422(99)00554-3|10.1021/NP990522W|10.1021/np50085a003|10.1248/CPB.35.4277|10.1248/CPB.37.358

>  <synonyms>  (15) 
(-)-8-[(S)-2,3-Dihydroxy-3-methylbutyl]-7-methoxy-2H-1-benzopyran-2-one|5875-49-0|8-[(2S)-2,3-dihydroxy-3-methylbutyl]-7-methoxychromen-2-one|AKOS032962086|C75749|CS-0023839|HY-N3297|MFCD18974714|MS-23947|Meranzin (hydrate)|Meranzin hydrate, >=90% (LC\/MS-ELSD)|PD125347|merazin hydrate

>  <cas>  (15) 
5875-49-0

$$$$

     RDKit          2D

 23 25  0  0  0  0  0  0  0  0999 V2000
   -5.2442   -0.8509    0.0000 C   0  0  0  0  0  0  0  0  0  0  0  0
   -3.8992   -1.5150    0.0000 O   0  0  0  0  0  0  0  0  0  0  0  0
   -2.6516   -0.6823    0.0000 C   0  0  0  0  0  0  0  0  0  0  0  0
   -1.3066   -1.3464    0.0000 C   0  0  0  0  0  0  0  0  0  0  0  0
   -1.2093   -2.8432    0.0000 C   0  0  0  0  0  0  0  0  0  0  0  0
    0.1357   -3.5073    0.0000 C   0  0  0  0  0  0  0  0  0  0  0  0
    1.3833   -2.6746    0.0000 C   0  0  0  0  0  0  0  0  0  0  0  0
    2.7283   -3.3387    0.0000 O   0  0  0  0  0  0  0  0  0  0  0  0
    1.2860   -1.1777    0.0000 C   0  0  0  0  0  0  0  0  0  0  0  0
    1.7064    0.2621    0.0000 C   0  0  0  0  0  0  0  0  0  0  0  0
    3.1636    0.6179    0.0000 C   0  0  0  0  0  0  0  0  0  0  0  0
    3.5841    2.0578    0.0000 C   0  0  0  0  0  0  0  0  0  0  0  0
    5.0413    2.4136    0.0000 C   0  0  0  0  0  0  0  0  0  0  0  0
    2.5473    3.1419    0.0000 C   0  0  0  0  0  0  0  0  0  0  0  0
    2.7770   -1.3418    0.0000 O   0  0  0  0  0  0  0  0  0  0  0  0
    3.6645   -0.1326    0.0000 C   0  0  0  0  0  0  0  0  0  0  0  0
   -0.0590   -0.5136    0.0000 C   0  0  0  0  0  0  0  0  0  0  0  0
   -0.1564    0.9832    0.0000 N   0  0  0  0  0  0  0  0  0  0  0  0
   -1.5014    1.6473    0.0000 C   0  0  0  0  0  0  0  0  0  0  0  0
   -2.7490    0.8146    0.0000 C   0  0  0  0  0  0  0  0  0  0  0  0
   -3.9265    1.7438    0.0000 C   0  0  0  0  0  0  0  0  0  0  0  0
   -3.4066    3.1508    0.0000 C   0  0  0  0  0  0  0  0  0  0  0  0
   -1.9078    3.0912    0.0000 O   0  0  0  0  0  0  0  0  0  0  0  0
  1  2  1  0
  2  3  1  0
  3  4  2  0
  4  5  1  0
  5  6  1  0
  6  7  1  0
  7  8  1  6
  7  9  1  0
  9 10  1  6
 10 11  1  0
 11 12  2  0
 12 13  1  0
 12 14  1  0
  9 15  1  0
 15 16  1  0
  9 17  1  0
 17 18  2  0
 18 19  1  0
 19 20  2  0
 20 21  1  0
 21 22  2  0
 22 23  1  0
 20  3  1  0
 17  4  1  0
 23 19  1  0
M  END
>  <identifier>  (16) 
CNP0104616.1

>  <canonical_smiles>  (16) 
COC1=C2CC[C@@H](O)[C@](CC=C(C)C)(OC)C2=NC2=C1C=CO2

>  <standard_inchi>  (16) 
InChI=1S/C18H23NO4/c1-11(2)7-9-18(22-4)14(20)6-5-12-15(21-3)13-8-10-23-17(13)19-16(12)18/h7-8,10,14,20H,5-6,9H2,1-4H3/t14-,18+/m1/s1

>  <standard_inchi_key>  (16) 
RNZIQNGNLJSLHV-KDOFPFPSSA-N

>  <name>  (16) 
Haplophyllidine

>  <iupac_name>  (16) 
(7~{R},8~{R})-4,8-dimethoxy-8-(3-methylbut-2-enyl)-6,7-dihydro-5~{H}-furo[2,3-b]quinolin-7-ol

>  <annotation_level>  (16) 
5

>  <total_atom_count>  (16) 
46

>  <heavy_atom_count>  (16) 
23

>  <molecular_weight>  (16) 
317.39

>  <exact_molecular_weight>  (16) 
317.16271

>  <molecular_formula>  (16) 
C18H23NO4

>  <alogp>  (16) 
3.34

>  <topological_polar_surface_area>  (16) 
64.72

>  <rotatable_bond_count>  (16) 
4

>  <hydrogen_bond_acceptors>  (16) 
5

>  <hydrogen_bond_donors>  (16) 
1

>  <hydrogen_bond_acceptors_lipinski>  (16) 
5

>  <hydrogen_bond_donors_lipinski>  (16) 
1

>  <lipinski_rule_of_five_violations>  (16) 
0

>  <aromatic_rings_count>  (16) 
2

>  <qed_drug_likeliness>  (16) 
0.88

>  <formal_charge>  (16) 
0

>  <fractioncsp3>  (16) 
0.50

>  <number_of_minimal_rings>  (16) 
3

>  <van_der_walls_volume>  (16) 
293.61

>  <contains_sugar>  (16) 
False

>  <contains_ring_sugars>  (16) 
False

>  <contains_linear_sugars>  (16) 
False

>  <murcko_framework>  (16) 
n1c2occc2cc3c1CCCC3

>  <np_likeness>  (16) 
2.43

>  <chemical_class>  (16) 
Furopyridines

>  <chemical_sub_class>  (16) 
Furopyridines

>  <chemical_super_class>  (16) 
Organoheterocyclic compounds

>  <direct_parent_classification>  (16) 
Furopyridines

>  <np_classifier_pathway>  (16) 
Alkaloids

>  <np_classifier_superclass>  (16) 
Anthranilic acid alkaloids

>  <np_classifier_class>  (16) 
Quinoline alkaloids

>  <np_classifier_is_glycoside>  (16) 
False

>  <organisms>  (16) 
Almeidea coerulea|Conchocarpus coeruleus|Haplophyllum|Haplophyllum acutifolium|Haplophyllum perforatum

>  <collections>  (16) 
ChEBI NPs|InterBioScreen Ltd|KNApSaCK|Latin America dataset|NPASS|NPEdia|NuBBEDB|Super Natural II|TCMDB-Taiwan (Traditional Chinese Medicine database)|WikiData Natural Products|ZINC NP

>  <dois>  (16) 
10.1007/BF00566989|10.1007/BF02323307|10.1016/0031-9422(88)80170-5|10.1590/S0103-50531998000100007

>  <synonyms>  (16) 
(7R,8R)-4,8-dimethoxy-8-(3-methylbut-2-enyl)-6,7-dihydro-5H-furo[2,3-b]quinolin-7-ol|18063-21-3|AC1L9DMK|AKOS015955608|BB_NC-0665|C10692|CHEBI:5618|CHEMBL4779508|DTXSID70332002|Haplophyllidine|MolPort-002-507-183|Q27106826|ZINC00199444

>  <cas>  (16) 
18063-21-3

$$$$

     RDKit          2D

 10 10  0  0  0  0  0  0  0  0999 V2000
    3.7500    0.0000    0.0000 C   0  0  0  0  0  0  0  0  0  0  0  0
    2.2500   -0.0000    0.0000 C   0  0  0  0  0  0  0  0  0  0  0  0
    1.5000   -1.2990    0.0000 C   0  0  0  0  0  0  0  0  0  0  0  0
   -0.0000   -1.2990    0.0000 C   0  0  0  0  0  0  0  0  0  0  0  0
   -0.7500    0.0000    0.0000 C   0  0  0  0  0  0  0  0  0  0  0  0
   -2.2500    0.0000    0.0000 C   0  0  0  0  0  0  0  0  0  0  0  0
   -3.0000    1.2990    0.0000 C   0  0  0  0  0  0  0  0  0  0  0  0
   -3.0000   -1.2990    0.0000 C   0  0  0  0  0  0  0  0  0  0  0  0
    0.0000    1.2990    0.0000 C   0  0  0  0  0  0  0  0  0  0  0  0
    1.5000    1.2990    0.0000 C   0  0  0  0  0  0  0  0  0  0  0  0
  1  2  1  0
  2  3  2  0
  3  4  1  0
  4  5  1  0
  5  6  1  0
  6  7  1  0
  6  8  1  0
  5  9  2  0
  9 10  1  0
 10  2  1  0
M  END
>  <identifier>  (17) 
CNP0255720.0

>  <canonical_smiles>  (17) 
CC1=CCC(C(C)C)=CC1

>  <standard_inchi>  (17) 
InChI=1S/C10H16/c1-8(2)10-6-4-9(3)5-7-10/h4,7-8H,5-6H2,1-3H3

>  <standard_inchi_key>  (17) 
YKFLAYDHMOASIY-UHFFFAOYSA-N

>  <name>  (17) 
GAMMA-TERPINENE

>  <iupac_name>  (17) 
1-isopropyl-4-methyl-cyclohexa-1,4-diene

>  <annotation_level>  (17) 
5

>  <total_atom_count>  (17) 
26

>  <heavy_atom_count>  (17) 
10

>  <molecular_weight>  (17) 
136.24

>  <exact_molecular_weight>  (17) 
136.1252

>  <molecular_formula>  (17) 
C10H16

>  <alogp>  (17) 
3.31

>  <topological_polar_surface_area>  (17) 
0.00

>  <rotatable_bond_count>  (17) 
1

>  <hydrogen_bond_acceptors>  (17) 
0

>  <hydrogen_bond_donors>  (17) 
0

>  <hydrogen_bond_acceptors_lipinski>  (17) 
0

>  <hydrogen_bond_donors_lipinski>  (17) 
0

>  <lipinski_rule_of_five_violations>  (17) 
0

>  <aromatic_rings_count>  (17) 
0

>  <qed_drug_likeliness>  (17) 
0.49

>  <formal_charge>  (17) 
0

>  <fractioncsp3>  (17) 
0.60

>  <number_of_minimal_rings>  (17) 
1

>  <van_der_walls_volume>  (17) 
154.82

>  <contains_sugar>  (17) 
False

>  <contains_ring_sugars>  (17) 
False

>  <contains_linear_sugars>  (17) 
False

>  <murcko_framework>  (17) 
C1=CCC=CC1

>  <np_likeness>  (17) 
2.52

>  <chemical_class>  (17) 
Unsaturated hydrocarbons

>  <chemical_sub_class>  (17) 
Branched unsaturated hydrocarbons

>  <chemical_super_class>  (17) 
Hydrocarbons

>  <direct_parent_classification>  (17) 
Branched unsaturated hydrocarbons

>  <np_classifier_pathway>  (17) 
Terpenoids

>  <np_classifier_superclass>  (17) 
Monoterpenoids

>  <np_classifier_class>  (17) 
Monocyclic monoterpenoids

>  <np_classifier_is_glycoside>  (17) 
False

>  <organisms>  (17) 
Abies sachalinensis|Acca sellowiana|Aceriphyllum rossii|Achillea abrotanoides|Achillea arabica|Achillea biebersteinii|Achillea clypeolata|Achillea crithmifolia|Achillea erba-rotta|Achillea millefolium|Achillea moschata|Achillea nana|Achillea nobilis|Achillea ptarmica|Acmella ciliata|Aconitum episcopale|Acorus calamus|Acorus calanus L.|Acorus gramineus|Actinodium cunninghamii|Aegle marmelos|Aeollanthus pubescens|Aframomum angustifolium|Aframomum melegueta|Agaricus hortensis|Agastache rugosa|Agathosma betulina|Agathosma capensis|Agnorhiza bolanderi|Aguacate|Ajania fastigiata|Akebia quinata|Akebia trifoliata|Alligator mississippiensis|Aloysia citriodora|Aloysia citrodora|Aloysia triphylla|Alphinia galanga|Alpinia breviligulata|Alpinia galanga|Alpinia katsumadai|Alpinia zerumbet|Ambrosia artemisiifolia|Ammi majus|Amomum compactum|Amomum krervanh|Anaxagorea clavata|Anethum graveolens|Anethum graveolens L.|Angelica acutiloba|Angelica gigas|Angelica sinensis|Anisotome antipoda|Annona cascarilloides|Anthemis aciphylla|Anthemis aciphylla BOISS.var.discoidea BOISS|Apium graveolens|Arabidopsis thaliana|Araujia sericifera|Ardisia arborescens|Aria pallescens|Arnica nevadensis|Aromia moschata|Artemisia Annua|Artemisia absinthium|Artemisia afra|Artemisia ammaniana|Artemisia annua|Artemisia annua L.|Artemisia apiacea|Artemisia arborescens|Artemisia argyi|Artemisia capillaris|Artemisia halophila|Artemisia herba-alba|Artemisia indica|Artemisia messerschmidtiana|Artemisia monogyna|Artemisia montana|Artemisia princeps|Artemisia salsoloides|Artemisia sericea|Artemisia spicigera|Artemisia thuscula|Artemisia xerophytica|Asarum heterotropoides|Asarum heterotropoides f. schm. var. mandshuricum (maxim.) kitag.|Asarum sieboldii|Asiasarum heterotropoides|Asiasarum sieboldii|Aster scaber|Asterolasia squamuligera|Atalantia buxifolia|Athamanta macedonica|Athanasia crithmifolia|Atractylodes chinensis|Atractylodes lancea|Austrobaileya scandens|Baccharis dracunculifolia|Baccharis rufescens|Baeckea frutescens|Baeckea frutescens L.|Bassia butyracea|Bazzania japonica|Beilschmiedia pendula|Benzoin praecox|Berberis julianae|Beyeria brevifolia|Bidens andicola|Bitter bush|Blepharocalyx salicifolius|Blepharocalyx tweediei|Boswellia carteri|Boswellia carterii|Boswellia sacra|Bothriochloa bladhii|Bridelia ferruginea|Bunium paucifolium|Bupleurum fruticescens|Bupleurum fruticosum|Bursaria spinosa|Bystropogon canariensis|Bystropogon mollis|Bystropogon origanifolius|Cacia concinna|Callistemon linearis|Calycolpus warszewiczianus|Camellia sinensis|Canarium luzonicum|Canella winterana|Cannabis sativa|Cantinoa mutabilis|Capsicum annuum|Carapichea ipecacuanha|Cardamine pinnata|Carica papaya|Carum carvi|Carum copticum|Catha edulis|Catharanthus roseus|Caulis perillae|Caulis perillae frutescentis|Cedrus libani|Centella asiatica|Centranthus longiflorus ssp. longiflorus|Ceratophyllum demersum|Cerbera dilatata|Cetraria aculeata|Chaerophyllum azoricum|Chamaecyparis lawsoniana|Chamaecyparis lawsoniana (A. Murray bis) Parl.|Chamaecyparis obtusa|Chamaecyparis obtusa var. formosana|Chamaecyparis pisifera|Chamomilla recutita|Chenopodium ambrosioides|Chiliadenus lopadusanus|Chloranthus tianmushanensis|Chresta sphaerocephala|Chromolaena odorata|Chromolaena pulchella|Chrysanthemum indicum|Chrysanthemum x morifolium|Chrysanthemum zawadskii|Cinamomum cassia|Cinnamomum aromaticum|Cinnamomum camphora|Cinnamomum illicioides|Cinnamomum sieboldii|Cinnamomum tenuifolium|Cinnamomum verum|Cinnamomum zeylanicum|Cinnamon|Cistus albidus|Cistus creticus|Cistus ladanifer|Cistus laurifolius|Cistus monspeliensis|Citrus|Citrus Aurantifolia|Citrus Sinensis|Citrus aurantifolia|Citrus aurantiifolia|Citrus aurantium|Citrus hystrix|Citrus japonica|Citrus junos|Citrus limon|Citrus maxima|Citrus medica|Citrus natsudaidai|Citrus reticulata|Citrus sinensis|Citrus sinensis L.|Citrus spp.|Citrus sudachi|Citrus trifoliata|Citrus unshiu|Citrus wilsonii|Citrus × deliciosa|Citrus × paradisi|Citrus ×iyo|Cladonia evansii|Clausena excavata|Cleistopholis patens|Cleonia lusitanica|Clinopodium album|Clinopodium barbatum|Clinopodium carolinianum|Clinopodium congestum|Clinopodium grandiflorum|Clinopodium thymifolium|Clonostachys rosea|Cneorum pulverulentum|Cnidium officinale|Coccus fagi|Codonocarpus australis|Coespeletia timotensis|Commiphora gurreh|Conioselinum anthriscoides|Conyza newii|Coriandrum sativum|Coriandrum sativum L.|Coridothymus capitatus|Cornulaca monacantha|Cornus officinalis|Corydalis nakaii|Corydalis stricta|Corymbia citriodora|Corymbia maculata|Couroupita guianensis|Crateva nurvala|Crithmum maritimum|Croton adenocalyx|Croton eluteria|Croton jimenezii|Croton mucronifolius|Croton sonderianus|Croton stellulifer|Croton stelluliferus|Cryptocarya agathophylla|Cryptomeria japonica|Cuminum|Cuminum cyminum|Cuminum cyminum L.|Cunila fasciculata|Cunila microcephala|Cupressus macrocarpa|Cupressus sempervirens|Curcuma amada|Curcuma amanda Roxb|Curcuma kwangsiensis|Curcuma longa|Curcuma phaeocaulis|Curcuma pierreana|Curcuma wenyujin|Curcuma zedoaria|Cymbopogon flexuosus|Cymbopogon martinii|Cymbopogon schoenanthus|Cyperaceae|Dacrydium nausoriense|Dacrydium nidulum|Daucus carota|Daucus glaber|Daucus littoralis|Dendrosenecio kilimanjari|Dictamnus albus|Dimocarpus fumatus|Diospyros verrucosa|Diplolophium africanum|Diplotaenia cachrydifolia|Dipterocarpus alatus|Drosera peltata|Ducrosia ismaelis|Dysphania ambrosioides|Echinophora tenuifolia|Echinophora trichophylla|Echinops amplexicaulis|Elettaria cardamomum|Elsholtzia bodinieri|Elsholtzia fruticosa|Elsholtzia pilosa|Elsholtzia splendens|Epaltes gariepina|Ephedra sinica|Erigeron canadensis|Eryngium foetidum|Espeletia timotensis|Etlingera cevuga|Etlingera elatior|Etlingera pavieana|Eucalyptus|Eucalyptus angulosa|Eucalyptus apodophylla|Eucalyptus behriana|Eucalyptus bosistoana|Eucalyptus botryoides|Eucalyptus brassiana|Eucalyptus bridgesiana|Eucalyptus camaldulensis|Eucalyptus ceratocorys|Eucalyptus cladocalyx|Eucalyptus cloeziana|Eucalyptus crenulata|Eucalyptus cuprea|Eucalyptus dealbata|Eucalyptus delegatensis|Eucalyptus deuaensis|Eucalyptus diversicolor|Eucalyptus dolichorhyncha|Eucalyptus exserta|Eucalyptus fasciculosa|Eucalyptus forrestiana|Eucalyptus globulus|Eucalyptus grandis|Eucalyptus hybrid|Eucalyptus incrassata|Eucalyptus intertexta|Eucalyptus jensenii|Eucalyptus lansdowneana|Eucalyptus leucoxylon|Eucalyptus longifolia|Eucalyptus maidenii|Eucalyptus melanophloia|Eucalyptus melliodora|Eucalyptus moluccana|Eucalyptus nitens|Eucalyptus nova-anglica|Eucalyptus ochrophloia|Eucalyptus odorata|Eucalyptus oviformis|Eucalyptus paniculata|Eucalyptus polyanthemos|Eucalyptus populnea|Eucalyptus porosa|Eucalyptus pulverulenta|Eucalyptus punctata|Eucalyptus radiata|Eucalyptus saligna|Eucalyptus siderophloia|Eucalyptus sideroxylon|Eucalyptus sparsa|Eucalyptus spp.|Eucalyptus stoatei|Eucalyptus tereticornis|Eucalyptus tetraptera|Eucalyptus viridis|Eugenia uniflora|Euonymus nanoides|Eupatorium fortunei|Fagara ailanthoides|Ferula assafoetida|Ferulago nodosa|Ficus formosana|Flacourtia inermis|Foeniculum vulgare|Folium perillae|Forsythia suspensa|Forsythia suspense|Forsythia viridissima|Freesia hybrida|Fructus schiandrae|Fructus syzygii|Fusarium gibbosum|Garcinia dulcis|Garcinia oligantha|Gardenia fosbergii|Gossypium hirsutum|Gossypium sturtianum|Hansenia forbesii|Hansenia weberbaueriana|Hedeoma mandoniana|Hedychium coronarium|Hedychium spicatum|Hedyosmum mexicanum|Helichrysum bracteiferum|Helichrysum odoratissimum|Heracleum dissectum|Heracleum persicum|Herba ecliptae prostratae|Heteranthemis viscidehirta|Heterotropa|Homalomena occulta|Homo sapiens|Houttuynia Cordata|Houttuynia cordata|Houttuynia emeiensis|Humulus lupulus|Hypericum hyssopifolium|Hypericum perforatum|Hypericum scabrum|Hyptis emoryi|Hyptis goyazensis|Hyptis mutabilis|Hyptis pectinata|Hyptis spicigera|Hyptis suaveolens|Hyssopus officinalis|Hyssopus seravschanicus|Ilex affinis|Illicium anisatum|Illicium difengpi|Illicium verum|Iris spuria|Isodon kameba|Isodon melissoides|Isodon rugosus|Jacobaea subalpina|Jaspis stellifera|Jugo|Jungermannia vulcanicola|Juniperus communis|Juniperus drupacea|Juniperus excelsa|Juniperus foetidissima|Juniperus jaliscana|Juniperus monticola|Juniperus rigida|Juniperus scopulorum|Juniperus spp.|Juniperus taxifolia|Kaempferia pulchra|Kumquat|Kunzea ericoides|Kunzea flavescens|Kunzea pauciflora|Kunzea sinclairii|Lactarius scrobiculatus|Lactobacillus casei|Laggera pterodonta|Lagoecia cuminoides|Lamiaceae|Lantana camara|Larix gmelinii var. gmelinii|Larix kaempferi|Larix laricina|Larix lyallii|Larix occidentalis|Larix sibirica|Larix sukaczewii|Laurus nobilis|Lavandula angustifolia|Lavandula latifolia|Lavandula stoechas|Leonotis leonurus|Lepechinia chamaedryoides|Lepechinia chilensis|Lepechinia floribunda|Leptospermum scoparium|Levisticum officinale|Licaria puchuri-major|Licaria puchury-major|Ligularia hodgsonii|Ligusticum chuanxiong|Ligusticum sinense|Ligusticum striatum|Lippia Myriocephala|Lippia abyssinica|Lippia adoensis|Lippia alnifolia|Lippia gracilis|Lippia grata|Lippia graveolens|Lippia multiflora|Lippia origanoides|Lippia sidoides|Lippia ukambensis|Liquidambar orientalis|Liquidambar styraciflua|Liriodendron tulipifera|Litchi chinensis|Litsea cubeba|Litsea glaucescens|Maesopsis eminii|Magnolia biondii|Magnolia denudata|Magnolia kobus|Magnolia liliflora|Magnolia liliiflora|Magnolia officinalis|Magnolia salicifolia|Magnolia sprengeri|Manekia naranjoana|Mangifera indica|Matricaria chamomilla|Melaleuca Leucadendra|Melaleuca alternifolia|Melaleuca decussata|Melaleuca leucadendra|Melaleuca leucadendra L.|Melaleuca linariifolia|Melaleuca parviflora|Melaleuca quinquenervia|Melaleuca squarrosa|Mentha|Mentha Piperita|Mentha X piperita|Mentha aquatica|Mentha arvensis|Mentha canadensis|Mentha piperita|Mentha piperita L.|Mentha pulegium|Mentha spicata|Mentha spp.|Mentha suaveolens|Mesosphaerum pectinatum|Methylosinus trichosporium|Microcitrus|Micromeria biflora|Micromeria croatica|Micromeria juliana|Micromeria maderensis|Micromeria myrtifolia|Micromeria teneriffae|Minthostachys andina|Minthostachys glabrescens|Minthostachys mollis|Monarda citriodora|Monarda fistulosa|Monodora tenuifolia|Moringa oleifera|Mortierella elongata|Mosla cavaleriei|Mosla chinensis|Murraya koenigii|Murraya paniculata|Mycobacterium tuberculosis|Myrcia hedraiophylla|Myrcianthes fragrans|Myristica fragrans|Myrtus communis|Narcissus tazetta|Nardostachys jatamansi|Nasutitermes ephratae|Nasutitermes nigriceps|Nelumbo lutea|Nelumbo nucifera|Nepeta annua|Nepeta crispa|Nepeta mussini|Nepeta nuda|Nepeta racemosa|Nepeta viscida|Nicotiana tabacum|Nigella sativa|Nigella sativa L|Notopterygium forbesii|Notopterygium incisum|Ocimum americanum|Ocimum basilicum|Ocimum gratissimum|Ocotea austinii|Ocotea morae|Odixia angusta|Oplopanax elatus|Opuntia ficus-indica|Origanum acutidens|Origanum adanense|Origanum cordifolium|Origanum dictamnus|Origanum dubium|Origanum floribundum|Origanum hypericifolium|Origanum intercedens|Origanum laevigatum|Origanum minutiflorum|Origanum onites|Origanum paniculatum|Origanum ramonense|Origanum sipyleum|Origanum syriacum|Origanum vulgare|Osbornia octodonta|Osmorhiza aristata|Ostericum grosseserratum|Otostegia fruticosa|Pagrus major|Parmelia vittata|Pelargonium citronellum|Pelargonium quercifolium|Peltigera aphthosa|Pericarpium citri|Pericarpium citri reticulatae|Pericarpium citri reticulatae viride|Perilla frutescens|Perovskia abrotanoides|Perovskia atriplicifolia|Persea tolimanensis|Petasites albus|Petasites tatewakianus|Petriella guttulata|Petroselinum crispum|Peucedanum oreoselinum|Phaseolus vulgaris|Pheidole pallidula|Phyla nodiflora|Phyllobates aurotaenia|Phyllocladus trichomanoides|Picea abies|Picea abies var. abies|Picea glehnii|Picea koraiensis|Picridium crystallinum|Pilocarpus|Pilocarpus jaborandi|Pilocarpus pauciflorus|Pimenta dioica|Pimenta racemosa|Pimpinella anisum|Pimpinella serbica|Pinus aristata|Pinus brutia var. eldarica|Pinus brutia var. pityusa|Pinus cembra|Pinus cembroides|Pinus densiflora|Pinus flexilis|Pinus halepensis|Pinus heldreichii|Pinus longaeva|Pinus merkusii|Pinus pumila|Pinus remota|Pinus spp|Pinus spp.|Pinus sylvestris|Piper aduncum|Piper augustum|Piper auritum|Piper crassinervium|Piper cubeba|Piper lanceaefolium|Piper marginatum|Piper nigrum|Piper sylvestre|Pistacia integerrima|Pistacia vera|Platycladus orientalis|Plectranthus fruticosus|Plectranthus marrubioides|Pleogyne cunninghami|Pleogyne cunninghamii|Pluchea dioscoridis|Pocillopora damicornis|Podachaenium eminens|Polygala amara|Polygala senega|Porophyllum ruderale|Portulaca okinawensis|Primula macrophylla|Prosopis glandulosa|Protaetia cuprea|Protium heptaphyllum|Prunus laurocerasus|Pseudallescheria boydii|Pseudopterogorgia kallos|Psidium friedrichsthalianum|Psidium guajava|Psidium salutare|Pteris prolifera|Pterocarpus grandiflorus|Punica granatum|Pyrola decorata|Pyrola rotundifolia|Pyrosoma giganteum|Quercus aegilops|Quercus ilex|Quercus serrata|Radix chuanxiong|Radix et rhizoma anisochili|Renealmia floribunda|Rhinella arenarum|Rhizobium phaseoli|Rhizoma ahemones daddeanae|Rhizoma chuanxiong|Rhodiola rosea|Rhodiola rosea L.|Rhododendron mucronulatum|Rosmarinus Officinalis|Rosmarinus eriocalyx|Rosmarinus officinalis|Rosmarinus officinalis L.|Rosmarinus tomentosus|Rubus rosa|Rubus trifidus|Salvia|Salvia abrotanoides|Salvia absconditiflora|Salvia brandegeei|Salvia caespitosa|Salvia candidissima|Salvia columbariae|Salvia dorisiana|Salvia dorystaechas|Salvia fruticosa|Salvia granatensis|Salvia hydrangea|Salvia jordanii|Salvia mellifera|Salvia munzii|Salvia officinalis|Salvia pomifera|Salvia sclarea|Salvia syriaca|Salvia tomentosa|Salvia triloba|Santolina canescens|Santolina chamaecyparissus|Santolina corsica|Santolina corsica Jordan et Fourr|Santolina insularis|Satureja bachtiarica|Satureja boissieri|Satureja cilicica|Satureja cuneifolia|Satureja hortensis|Satureja montana|Satureja spicigera|Satureja thymbra|Satureja wiedemanniana|Saussurea lappa|Scalesia aspera|Schinus molle|Schisandra chinensis|Schizonepeta multifida|Scutellaria lateriflora|Securidaca inappendiculata|Senecio alcicornis|Senecio chrysanthemoides|Senecio squalidus|Senna alexandrina|Septoria pistaciarum|Sequoia sempervirens|Sequoiadendron giganteum|Seriphidium cinum|Sesbania punicea|Seseli farrenyi|Sideritis chamaedryfolia|Sideritis dichotoma|Sideritis hirsuta|Sideritis hispida|Sideritis leucantha|Sideritis lyciae|Sideritis paulii|Sideritis perfoliata|Sideritis romana|Simira eliezeriana|Sinopodophyllum hexandrum|Smallanthus maculatus|Solidago canadensis|Solidago odora|Spongia maynardii|Stachys aegyptiaca|Stachys glutinosa|Steganotaenia araliacea|Stenostomum lucidum|Stephania sutchuenensis|Stereocaulon sasakii|Stevia alpina|Stockwellia|Stoeba extensa|Stoebe plumosa|Stoebe vulgaris|Streptomyces althioticus|Streptomyces fumanus|Streptomyces lavendofoliae|Streptomyces odorifer|Streptomyces violaceochromogenes|Strobilanthes callosa|Strobilanthes zeylanica|Strophanthus eminii|Stypopodium flabelliforme|Swertia japonica|Syzygium cumini|Syzygium samarangense|Tagetes minuta|Talaromyces luteus|Tanacetum annuum|Tanacetum parthenium|Tanacetum vulgare|Tarchonanthus camphoratus|Taxodium mucronatum|Tetradenia riparia|Tetraneuris acaulis|Teucrium asiaticum|Teucrium cyprium|Teucrium kotschyanum|Teucrium leucocladum|Teucrium micropodioides|Teucrium montanum|Teucrium oxylepis|Teucrium pseudoscorodonia|Teucrium salviastrum|Teucrium scorodonia|Thapsia maxima|Thapsia villosa|Thuja occidentalis|Thuja plicata|Thuja standishii|Thymbra capitata|Thymbra spicata|Thymus|Thymus Carmanicus|Thymus broussonetii|Thymus camphoratus|Thymus capitatus|Thymus carnosus|Thymus daghestanicus|Thymus eigii|Thymus fedtschenkoi|Thymus funkii|Thymus kotschyanus|Thymus longicaulis|Thymus longiflorus|Thymus membranaceus|Thymus nummularius|Thymus orespedanus|Thymus pastoralis|Thymus pectinatus|Thymus piperella|Thymus pubescens|Thymus pulegioides|Thymus quinquecostatus|Thymus revolutus|Thymus riatarum|Thymus saturejoides|Thymus schimperi|Thymus sibthorpii|Thymus thracicus|Thymus vulgaris|Thymus willkommii|Thymus zygioides|Thymus zygis|Tithonia diversifolia|Torulopsis magnoliae|Trachyspermum ammi|Trachyspermum roxburghianum|Trichostema dichotomum|Trifoliate orange|Trypetheliopsis boninensis|Turbo argyrostoma|Ulva clathrata|Umbellularia californica|Unonopsis glaucopetala|Valeriana jatamansi|Valeriana officinalis|Varronia curassavica|Viburnum orientale|Virola surinamensis|Vitex agnus-castus|Vitex madiensis|Vitex negundo|Vitex trifolia|Vitis rotundifolia|Vitis vinifera|Vogtia annua|West African Pepper|Xenia puertogalerae|Xenophyllum poposum|Xylocarpus moluccensis|Xylopia aromatica|Xylopia sericea|Zanthoxylum armatum|Zanthoxylum bungeanum|Zanthoxylum chalybaeum|Zanthoxylum chalybeum|Zanthoxylum piperitum|Zanthoxylum schinifolium|Zanthoxylum simulans|Zanthoxylum zanthoxyloides|Zataria multiflora|Zieria laevigata|Zieria pilosa|Zieria smithii|Zingiber cassumunar|Zingiber cassumunar Roxb.|Zingiber montanum|Zingiber officinale|Zingiber ottensii|Zingiber purpureum|Zingiber spectabile|Zingiber spectabile Griff.|Zingiber zerumbet|basil|bellis perennis|candyleaf|cicely|common myrtle|common sunflower|corn mint|garlic|marjoram|parsley|pomegranate|rooibos|solanum betaceum|tarragon|tomato|water mint

>  <collections>  (17) 
ANPDB|Australian natural products|BitterDB|CMAUP (cCollective molecular activities of useful plants)|ChEBI NPs|EMNPD|ETM (Ethiopian Traditional Medicine) DB|FooDB|KNApSaCK|Latin America dataset|Mitishamba database|NANPDB (Natural Products from Northern African Sources)|NAPRORE-CR|NPASS|NPCARE|NPDBEjeCol|NPEdia|NuBBEDB|Phyto4Health|ReSpect|Super Natural II|TCMDB-Taiwan (Traditional Chinese Medicine database)|TCMID (Traditional Chinese Medicine Integrated Database)|TIPdb (database of Taiwan indigenous plants)|TPPT (Toxic Plants–PhytoToxins)|UEFS (Natural Products Databse of the UEFS)|UNPD (Universal Natural Products Database)|VietHerb|WikiData Natural Products

>  <dois>  (17) 
10.1002/(SICI)1097-0231(199608)10:11<1345::AID-RCM631>3.0.CO;2-4|10.1002/(SICI)1099-1026(199601)11:1<15::AID-FFJ541>3.0.CO;2-H|10.1002/(SICI)1099-1026(199611)11:6<367::AID-FFJ598>3.0.CO;2-R|10.1002/(SICI)1099-1026(199705)12:3<205::AID-FFJ636>3.0.CO;2-I|10.1002/(SICI)1099-1026(199707)12:4<285::AID-FFJ649>3.0.CO;2-W|10.1002/(SICI)1099-1026(1998070)13:4<245::AID-FFJ736>3.0.CO;2-J|10.1002/(SICI)1099-1026(199903/04)14:2<140::AID-FFJ800>3.0.CO;2-R|10.1002/(SICI)1099-1026(199909/10)14:5<287::AID-FFJ827>3.0.CO;2-O|10.1002/(SICI)1099-1026(199911/12)14:6<393::AID-FFJ849>3.0.CO;2-5|10.1002/(SICI)1099-1026(199911/12)14:6<405::AID-FFJ853>3.0.CO;2-M|10.1002/(SICI)1099-1565(199909/10)10:5<241::AID-PCA460>3.0.CO;2-5|10.1002/1099-1026(200005/06)15:3<186::AID-FFJ889>3.0.CO;2-I|10.1002/1099-1026(200005/06)15:3<201::AID-FFJ893>3.0.CO;2-I|10.1002/1099-1026(200009/10)15:5<339::AID-FFJ922>3.0.CO;2-H|10.1002/1099-1026(200011/12)15:6<373::AID-FFJ923>3.0.CO;2-9|10.1002/9780470744307.gat218|10.1002/CBDV.200900162|10.1002/CBDV.201100039|10.1002/CBDV.201700436|10.1002/CBDV.201800531|10.1002/ECE3.5390|10.1002/FFJ.1053|10.1002/FFJ.1105|10.1002/FFJ.1175|10.1002/FFJ.1187|10.1002/FFJ.1248|10.1002/FFJ.1279|10.1002/FFJ.1281|10.1002/FFJ.1547|10.1002/FFJ.1582|10.1002/FFJ.1588|10.1002/FFJ.2730010103|10.1002/FFJ.2730020108|10.1002/FFJ.2730020110|10.1002/FFJ.2730020310|10.1002/FFJ.2730030204|10.1002/FFJ.2730030208|10.1002/FFJ.2730040206|10.1002/FFJ.2730060205|10.1002/FFJ.2730060307|10.1002/FFJ.2730070111|10.1002/FFJ.2730070309|10.1002/FFJ.2730070603|10.1002/FFJ.2730090107|10.1002/FFJ.2730090305|10.1002/FFJ.2730100310|10.1002/FFJ.2730100313|10.1002/FFJ.2730100317|10.1002/FFJ.2730100408|10.1002/FFJ.2730100602|10.1002/FFJ.2730100605|10.1002/FFJ.2730100609|10.1002/HLCA.201200359|10.1002/JSFA.2740430304|10.1002/JSFA.2740580109|10.1002/JSFA.4146|10.1002/JSSC.200900378|10.1002/PCA.674|10.1002/PTR.2137|10.1002/PTR.2650010304|10.1002/PTR.2650040210|10.1002/PTR.2650090215|10.1002/PTR.856|10.1002/RCM.1290091307|10.1002/biuz.19840140514|10.1007/BF00567053|10.1007/BF00567284|10.1007/BF00567793|10.1007/BF00568252|10.1007/BF00568256|10.1007/BF00568367|10.1007/BF00570218|10.1007/BF00574326|10.1007/BF00574355|10.1007/BF00574605|10.1007/BF00575062|10.1007/BF00576212|10.1007/BF00576230|10.1007/BF00576231|10.1007/BF00579167|10.1007/BF00579447|10.1007/BF00580068|10.1007/BF00580452|10.1007/BF00580453|10.1007/BF00598430|10.1007/BF00629870|10.1007/BF00713346|10.1007/BF01386197|10.1007/BF01959201|10.1007/BF01959202|10.1007/BF02236290|10.1007/BF02269705|10.1007/BF02536610|10.1007/BF02858924|10.1007/BF02860163|10.1007/BF02860485|10.1007/BF02866639|10.1007/BF02985250|10.1007/S004030050433|10.1007/S11418-007-0175-2|10.1016/0031-9422(74)85146-0|10.1016/0031-9422(75)85347-7|10.1016/0031-9422(82)80129-5|10.1016/0031-9422(82)85264-3|10.1016/0031-9422(83)85029-8|10.1016/0031-9422(88)80124-9|10.1016/0031-9422(88)80461-8|10.1016/0031-9422(90)85109-S|10.1016/0031-9422(90)85269-L|10.1016/0031-9422(90)85421-B|10.1016/0031-9422(91)83064-R|10.1016/0031-9422(91)83632-U|10.1016/0031-9422(92)80396-V|10.1016/0031-9422(92)83136-M|10.1016/0031-9422(93)85408-J|10.1016/0031-9422(94)85021-6|10.1016/0031-9422(95)00183-8|10.1016/0031-9422(95)00347-A|10.1016/0031-9422(95)00492-P|10.1016/0031-9422(95)00601-X|10.1016/0031-9422(96)00119-7|10.1016/0300-483X(95)03242-8|10.1016/0305-1978(82)90045-X|10.1016/0305-1978(85)90081-X|10.1016/0305-1978(86)90043-8|10.1016/0305-1978(86)90078-5|10.1016/0305-1978(88)90075-0|10.1016/0305-1978(88)90083-X|10.1016/0305-1978(91)90079-F|10.1016/0305-1978(92)90070-T|10.1016/0305-1978(93)90029-Q|10.1016/0305-1978(93)90031-L|10.1016/0305-1978(94)90033-7|10.1016/0305-1978(94)90086-8|10.1016/0305-1978(95)00094-1|10.1016/0305-1978(96)00023-3|10.1016/0378-8741(83)90056-9|10.1016/0378-8741(91)90062-I|10.1016/0378-8741(91)90063-J|10.1016/J.APJTM.2016.06.009|10.1016/J.ARABJC.2012.04.042|10.1016/J.ARABJC.2014.11.043|10.1016/J.BSE.2003.12.009|10.1016/J.CHROMA.2014.10.058|10.1016/J.FCT.2010.05.044|10.1016/J.FOODCHEM.2007.07.062|10.1016/J.FOODRES.2012.03.015|10.1016/J.FOODRES.2018.12.054|10.1016/J.IJFOODMICRO.2008.10.017|10.1016/J.INDCROP.2013.06.023|10.1016/J.INDCROP.2017.12.016|10.1016/J.JPBA.2007.01.024|10.1016/J.JPLPH.2018.10.006|10.1016/J.PHYMED.2004.04.006|10.1016/J.PHYMED.2007.03.013|10.1016/J.PHYMED.2010.03.020|10.1016/J.PHYMED.2011.12.003|10.1016/J.PHYTOCHEM.2004.03.019|10.1016/J.PHYTOCHEM.2005.01.007|10.1016/J.PHYTOCHEM.2005.08.001|10.1016/J.PHYTOCHEM.2005.09.020|10.1016/J.PHYTOCHEM.2006.04.025|10.1016/J.PHYTOCHEM.2007.04.027|10.1016/J.PHYTOCHEM.2009.06.013|10.1016/J.PHYTOCHEM.2015.02.003|10.1016/J.TALANTA.2011.12.041|10.1016/S0021-9673(01)82096-3|10.1016/S0021-9673(01)95036-8|10.1016/S0031-9422(00)80081-3|10.1016/S0031-9422(00)80325-8|10.1016/S0031-9422(00)80682-2|10.1016/S0031-9422(00)80814-6|10.1016/S0031-9422(00)81692-1|10.1016/S0031-9422(00)81741-0|10.1016/S0031-9422(00)82268-2|10.1016/S0031-9422(00)83061-7|10.1016/S0031-9422(00)83062-9|10.1016/S0031-9422(00)84088-1|10.1016/S0031-9422(00)84581-1|10.1016/S0031-9422(00)84709-3|10.1016/S0031-9422(00)84802-5|10.1016/S0031-9422(00)84946-8|10.1016/S0031-9422(00)86727-8|10.1016/S0031-9422(00)90514-4|10.1016/S0031-9422(00)94539-4|10.1016/S0031-9422(00)94990-2|10.1016/S0031-9422(02)00004-3|10.1016/S0031-9422(02)00038-9|10.1016/S0031-9422(02)00477-6|10.1016/S0031-9422(03)00188-2|10.1016/S0031-9422(96)00726-1|10.1016/S0031-9422(97)00016-2|10.1016/S0031-9422(97)00117-9|10.1016/S0031-9422(97)00203-3|10.1016/S0031-9422(97)00324-5|10.1016/S0031-9422(97)00737-1|10.1016/S0031-9422(97)00795-4|10.1016/S0031-9422(98)00022-3|10.1016/S0031-9422(98)00105-8|10.1016/S0031-9422(99)00050-3|10.1016/S0031-9422(99)00346-5|10.1016/S0305-1978(00)00062-4|10.1016/S0305-1978(00)00103-4|10.1016/S0308-8146(00)00187-4|10.1016/S0367-326X(00)00154-4|10.1016/S0367-326X(01)00327-6|10.1016/S0378-8741(01)00238-0|10.1016/S0378-8741(97)01528-6|10.1016/S0378-8741(99)00072-0|10.1016/S0378-8741(99)00209-3|10.1016/S0926-6690(03)00076-1|10.1016/S0944-7113(11)80031-0|10.1016/S0944-7113(97)80003-7|10.1016/S0944-7113(98)80048-2|10.1016/j.lwt.2023.115213|10.1016/j.phytochem.2004.08.035|10.1016/j.talanta.2011.12.041|10.1021/JF00019A020|10.1021/JF00029A021|10.1021/JF00034A020|10.1021/JF00034A033|10.1021/JF00035A029|10.1021/JF00056A055|10.1021/JF00062A024|10.1021/JF00063A015|10.1021/JF00073A015|10.1021/JF00078A009|10.1021/JF00083A001|10.1021/JF00083A023|10.1021/JF00087A036|10.1021/JF00091A049|10.1021/JF00094A032|10.1021/JF00098A007|10.1021/JF00100A013|10.1021/JF00104A026|10.1021/JF0116303|10.1021/JF035377D|10.1021/JF60160A012|10.1021/JF60196A027|10.1021/JF60198A031|10.1021/JF60199A051|10.1021/JF60199A053|10.1021/JF60200A011|10.1021/JF60201A021|10.1021/JF60206A038|10.1021/JF60218A031|10.1021/JF60218A053|10.1021/JF60221A025|10.1021/JF60222A026|10.1021/JF60230A021|10.1021/JF950540T|10.1021/JF950577D|10.1021/JF970031M|10.1021/JF970110Y|10.1021/JF9702149|10.1021/JF9708296|10.1021/JF9800559|10.1021/JO00200A028|10.1021/JO01159A001|10.1021/JO01199A001|10.1021/JO040272A|10.1021/NP030475E|10.1021/NP50006A014|10.1021/NP50008A001|10.1021/NP50009A015|10.1021/NP50017A018|10.1021/NP50018A028|10.1021/NP50028A031|10.1021/NP50033A002|10.1021/NP50034A039|10.1021/NP50034A044|10.1021/NP50035A036|10.1021/NP50035A037|10.1021/NP50038A026|10.1021/NP50039A037|10.1021/NP50040A037|10.1021/NP50045A046|10.1021/NP50046A033|10.1021/NP50046A035|10.1021/NP50046A047|10.1021/NP50047A039|10.1021/NP50048A037|10.1021/NP50048A039|10.1021/NP50050A051|10.1021/NP50050A053|10.1021/NP50051A029|10.1021/NP50051A035|10.1021/NP50053A047|10.1021/NP50062A008|10.1021/NP50083A010|10.1021/NP50094A002|10.1021/es901034u|10.1021/jf011456i|10.1021/np50017a018|10.1021/np50083a010|10.1021/np50125a018|10.1034/J.1399-3054.1992.840320.X|10.1039/J39690000541|10.1055/S-0028-1097363|10.1055/S-0028-1097609|10.1055/S-0028-1097957|10.1055/S-0028-1097962|10.1055/S-0028-1097977|10.1055/S-0028-1099434|10.1055/S-0028-1099455|10.1055/S-0028-1100058|10.1055/S-0028-1100131|10.1055/S-0029-1243136|10.1055/S-2000-8623|10.1055/S-2000-9773|10.1055/S-2003-37032|10.1055/S-2006-957378|10.1055/S-2006-957489|10.1055/S-2006-957640|10.1055/S-2006-957707|10.1055/S-2006-957814|10.1055/S-2006-959506|10.1055/S-2006-959542|10.1055/S-2006-959548|10.1055/S-2006-959580|10.1055/S-2006-959714|10.1055/S-2006-959755|10.1055/S-2006-960024|10.1055/S-2006-960081|10.1055/S-2006-960096|10.1055/S-2006-960126|10.1055/S-2006-960128|10.1055/S-2006-960832|10.1055/S-2006-960930|10.1055/S-2006-961434|10.1055/S-2006-961452|10.1055/S-2006-961490|10.1055/S-2006-962018|10.1055/S-2006-962450|10.1055/S-2006-962452|10.1055/S-2006-962540|10.1055/S-2006-962640|10.1055/S-2006-962745|10.1055/S-2007-969050|10.1055/S-2007-969160|10.1055/S-2007-969171|10.1055/S-2007-969172|10.1055/S-2007-969261|10.1055/S-2007-969275|10.1055/S-2007-969442|10.1055/S-2007-969621|10.1055/S-2007-969862|10.1055/S-2007-969883|10.1055/S-2007-969897|10.1055/S-2007-969917|10.1055/S-2007-969948|10.1055/S-2007-970006|10.1055/S-2008-1074841|10.1071/CH9640283|10.1071/bru9860105|10.1073/PNAS.93.18.9966|10.1076/1388-0209(200004)3821-1FT106|10.1076/1388-0209(200007)3831-SFT197|10.1076/PHBI.35.1.66.13267|10.1080/00021369.1989.10869813|10.1080/00387018508062249|10.1080/0972060X.2010.10643892|10.1080/0972060x.2009.10643771|10.1080/10286020802514622|10.1080/10412905.1989.9697751|10.1080/10412905.1989.9697797|10.1080/10412905.1989.9699438|10.1080/10412905.1989.9699439|10.1080/10412905.1990.9697824|10.1080/10412905.1990.9697825|10.1080/10412905.1990.9697829|10.1080/10412905.1990.9697830|10.1080/10412905.1990.9697845|10.1080/10412905.1990.9697847|10.1080/10412905.1990.9697854|10.1080/10412905.1990.9697857|10.1080/10412905.1990.9697864|10.1080/10412905.1990.9697878|10.1080/10412905.1990.9697892|10.1080/10412905.1991.9697898|10.1080/10412905.1991.9697905|10.1080/10412905.1991.9697906|10.1080/10412905.1991.9697921|10.1080/10412905.1991.9697923|10.1080/10412905.1991.9697930|10.1080/10412905.1991.9697932|10.1080/10412905.1991.9697936|10.1080/10412905.1991.9697950|10.1080/10412905.1991.9697952|10.1080/10412905.1991.9697953|10.1080/10412905.1991.9697959|10.1080/10412905.1991.9697971|10.1080/10412905.1991.9697973|10.1080/10412905.1991.9697980|10.1080/10412905.1991.9697982|10.1080/10412905.1991.9697984|10.1080/10412905.1991.9697985|10.1080/10412905.1991.9697994|10.1080/10412905.1991.9700494|10.1080/10412905.1991.9700495|10.1080/10412905.1991.9700498|10.1080/10412905.1992.9698006|10.1080/10412905.1992.9698015|10.1080/10412905.1992.9698034|10.1080/10412905.1992.9698035|10.1080/10412905.1992.9698053|10.1080/10412905.1992.9698059|10.1080/10412905.1992.9698061|10.1080/10412905.1992.9698062|10.1080/10412905.1992.9698067|10.1080/10412905.1992.9698069|10.1080/10412905.1992.9698070|10.1080/10412905.1992.9698071|10.1080/10412905.1992.9698084|10.1080/10412905.1992.9698086|10.1080/10412905.1992.9698087|10.1080/10412905.1992.9698088|10.1080/10412905.1992.9698095|10.1080/10412905.1992.9698109|10.1080/10412905.1992.9698110|10.1080/10412905.1992.9698111|10.1080/10412905.1992.9698125|10.1080/10412905.1992.9698129|10.1080/10412905.1992.9698136|10.1080/10412905.1992.9698137|10.1080/10412905.1992.9698138|10.1080/10412905.1992.9698149|10.1080/10412905.1993.9698162|10.1080/10412905.1993.9698164|10.1080/10412905.1993.9698169|10.1080/10412905.1993.9698170|10.1080/10412905.1993.9698174|10.1080/10412905.1993.9698176|10.1080/10412905.1993.9698179|10.1080/10412905.1993.9698181|10.1080/10412905.1993.9698189|10.1080/10412905.1993.9698205|10.1080/10412905.1993.9698206|10.1080/10412905.1993.9698207|10.1080/10412905.1993.9698214|10.1080/10412905.1993.9698215|10.1080/10412905.1993.9698216|10.1080/10412905.1993.9698218|10.1080/10412905.1993.9698230|10.1080/10412905.1993.9698231|10.1080/10412905.1993.9698232|10.1080/10412905.1993.9698235|10.1080/10412905.1993.9698236|10.1080/10412905.1993.9698237|10.1080/10412905.1993.9698248|10.1080/10412905.1993.9698250|10.1080/10412905.1993.9698253|10.1080/10412905.1993.9698256|10.1080/10412905.1993.9698275|10.1080/10412905.1993.9698279|10.1080/10412905.1993.9698294|10.1080/10412905.1993.9698309|10.1080/10412905.1994.9698320|10.1080/10412905.1994.9698326|10.1080/10412905.1994.9698330|10.1080/10412905.1994.9698337|10.1080/10412905.1994.9698359|10.1080/10412905.1994.9698380|10.1080/10412905.1994.9698382|10.1080/10412905.1994.9698394|10.1080/10412905.1994.9698396|10.1080/10412905.1994.9698400|10.1080/10412905.1994.9698401|10.1080/10412905.1994.9698402|10.1080/10412905.1994.9698404|10.1080/10412905.1994.9698405|10.1080/10412905.1994.9698406|10.1080/10412905.1994.9698408|10.1080/10412905.1994.9698409|10.1080/10412905.1994.9698412|10.1080/10412905.1994.9698418|10.1080/10412905.1994.9698427|10.1080/10412905.1994.9698428|10.1080/10412905.1994.9698433|10.1080/10412905.1994.9698440|10.1080/10412905.1994.9698446|10.1080/10412905.1994.9698448|10.1080/10412905.1994.9699346|10.1080/10412905.1994.9699348|10.1080/10412905.1994.9699354|10.1080/10412905.1994.9699355|10.1080/10412905.1994.9699356|10.1080/10412905.1994.9699358|10.1080/10412905.1994.9699365|10.1080/10412905.1995.9698473|10.1080/10412905.1995.9698475|10.1080/10412905.1995.9698478|10.1080/10412905.1995.9698479|10.1080/10412905.1995.9698496|10.1080/10412905.1995.9698503|10.1080/10412905.1995.9698506|10.1080/10412905.1995.9698507|10.1080/10412905.1995.9698508|10.1080/10412905.1995.9698515|10.1080/10412905.1995.9698516|10.1080/10412905.1995.9698520|10.1080/10412905.1995.9698522|10.1080/10412905.1995.9698524|10.1080/10412905.1995.9698528|10.1080/10412905.1995.9698530|10.1080/10412905.1995.9698531|10.1080/10412905.1995.9698532|10.1080/10412905.1995.9698553|10.1080/10412905.1995.9698558|10.1080/10412905.1995.9698575|10.1080/10412905.1995.9698577|10.1080/10412905.1995.9698581|10.1080/10412905.1995.9698591|10.1080/10412905.1995.9700515|10.1080/10412905.1995.9700518|10.1080/10412905.1995.9700519|10.1080/10412905.1995.9700523|10.1080/10412905.1995.9700529|10.1080/10412905.1995.9700530|10.1080/10412905.1995.9700531|10.1080/10412905.1995.9700537|10.1080/10412905.1996.9700547|10.1080/10412905.1996.9700554|10.1080/10412905.1996.9700555|10.1080/10412905.1996.9700557|10.1080/10412905.1996.9700558|10.1080/10412905.1996.9700559|10.1080/10412905.1996.9700562|10.1080/10412905.1996.9700565|10.1080/10412905.1996.9700567|10.1080/10412905.1996.9700568|10.1080/10412905.1996.9701028|10.1080/10412905.1996.9701048|10.1080/10412905.1997.9699459|10.1080/10412905.1997.9700709|10.1080/10412905.1997.9700721|10.1080/10412905.1997.9700725|10.1080/10412905.1997.9700727|10.1080/10412905.1997.9700731|10.1080/10412905.1997.9700741|10.1080/10412905.1997.9700774|10.1080/10412905.1997.9700780|10.1080/10412905.1997.9700787|10.1080/10412905.1997.9700822|10.1080/10412905.1998.9700854|10.1080/10412905.1998.9700865|10.1080/10412905.1998.9700913|10.1080/10412905.1998.9700918|10.1080/10412905.1998.9700992|10.1080/10412905.1998.9701015|10.1080/10412905.1999.9701080|10.1080/10412905.1999.9701113|10.1080/10412905.1999.9701118|10.1080/10412905.1999.9701126|10.1080/10412905.1999.9701147|10.1080/10412905.1999.9701154|10.1080/10412905.1999.9701184|10.1080/10412905.2000.9699524|10.1080/10412905.2000.9699530|10.1080/10412905.2000.9699555|10.1080/10412905.2000.9699569|10.1080/10412905.2000.9712032|10.1080/10412905.2000.9712058|10.1080/10412905.2000.9712155|10.1080/10412905.2000.9712167|10.1080/10412905.2000.9712194|10.1080/10412905.2000.9712203|10.1080/10412905.2000.9712208|10.1080/10412905.2000.9712211|10.1080/10412905.2001.9699659|10.1080/10412905.2002.9699754|10.1080/10412905.2002.9699760|10.1080/10412905.2002.9699852|10.1080/10412905.2002.9699883|10.1080/10412905.2004.9698641|10.1080/10412905.2004.9698688|10.1080/10412905.2004.9698740|10.1080/10412905.2004.9698744|10.1080/10412905.2007.9699946|10.1080/10412905.2010.9700320|10.1080/10412905.2012.747271|10.1080/10412905.2012.755478|10.1080/10412905.2013.796498|10.1080/10412905.2018.1431966|10.1080/10575639808044941|10.1080/10942912.2016.1155057|10.1080/14786410500528478|10.1080/14786410701848154|10.1080/17429140600968177|10.1088/1752-7155/8/1/014001|10.1093/pcp/pcn183|10.1096/FJ.06-6927COM|10.1096/fj.06-6927com|10.1111/J.1095-8339.1986.TB01826.X|10.1111/J.1365-2621.1984.TB13669.X|10.1111/J.1365-2621.1985.TB10476.X|10.1111/J.1365-2672.1994.TB01661.X|10.1111/J.1365-313X.2004.02113.X|10.1111/J.1399-3054.1992.TB04690.X|10.1128/AEM.64.9.3546-3546.1998|10.1128/CMR.19.1.50-62.2006|10.1135/CCCC19661113|10.1135/CCCC19862884|10.1135/CCCC19912969|10.1139/V69-334|10.1163/1574-9347_DNP_E832720|10.1177/1934578X1100600135|10.1186/1472-6882-6-39|10.1186/1756-3305-7-407|10.1201/B22102-8|10.1211/0022357001774598|10.1246/NIKKASHI1921.63.1465|10.1246/NIKKASHI1948.83.3_350|10.1248/CPB.12.991|10.1248/CPB.54.222|10.1248/CPB.54.725|10.1248/CPB.54.936|10.1248/YAKUSHI1947.106.1_17|10.1248/YAKUSHI1947.87.7_871|10.1248/YAKUSHI1947.99.11_1116|10.12692/IJB/12.4.370-382|10.1271/BBB1961.45.1493|10.1271/BBB1961.47.1841|10.1271/BBB1961.48.2843|10.1271/BBB1961.52.2961|10.1271/BBB1961.55.2571|10.1271/NOGEIKAGAKU1924.67.1417|10.1365/S10337-008-0921-Y|10.1515/ZNC-1984-7-802|10.1515/ZNC-1984-7-803|10.1515/ZNC-1988-5-608|10.1515/ZNC-1990-9-1023|10.1515/ZNC-2003-9-1004|10.1515/ZNC-2004-5-615|10.1590/S0103-50532010000500012|10.1590/S0103-50532011000400018|10.17660/ACTAHORTIC.2005.677.9|10.17678/BEUSCITECH.348447|10.21273/HORTSCI.25.5.556|10.2307/2423424|10.2307/3242952|10.23850/24220582.3465|10.23893/1307-2080.APS.05611|10.2478/V10007-009-0022-Y|10.3109/13880208209055190|10.3109/13880208409070665|10.3109/13880208709060907|10.3109/13880209009082783|10.3109/13880209109082875|10.3109/13880209309082924|10.3109/13880209409083015|10.3329/BJP.V3I2.844|10.3329/BJP.V4I1.845|10.3390/12030283|10.3390/12030389|10.3390/60100092|10.3390/MOLECULES13030488|10.3390/MOLECULES21060814|10.3390/MOLECULES24112053|10.3390/MOLECULES24234244|10.3891/ACTA.CHEM.SCAND.15-1003|10.4268/CJCMM20111319|10.4314/BCSE.V11I1.21012|10.4314/BCSE.V12I1.21037|10.4324/9780203219430_CHAPTER_13|10.5650/JOS.ESS14057|10.5694/J.1326-5377.1998.TB126732.X|10.5897/JMPR10.078

>  <synonyms>  (17) 
|-terpinene|1, 1-methyl-4-isopropyl-|1,4-Cyclohexadiene, 1-methyl-4-(1-methylethyl)-|1,4-Cyclohexadiene, 1-methyl-4-isopropyl-|1,4-p-Menthadiene|1-Methyl-4-(1-methylethyl)-1,4-cyclohexadiene|1-Methyl-4-isopropyl-1,4-cyclohexadiene|1-Methyl-4-isopropylcyclohexadiene-1,4|1-isopropyl-4-methylcyclohexa-1,4-diene|1-methyl-4-propan-2-ylcyclohexa-1,4-diene|1ST1650|4-Isopropyl-1-methyl-1,4-cyclohexadiene|4YGF4PQP49|99-85-4|9NI|? TERPINENE|A-TPN|AI3-26468|AKOS015840812|Alpha terpinene|BS-23574|C09900|CAS-99-85-4|CHEBI:10577|CHEMBL449693|Crithmene|Crithmene; Moslene; NSC 21448; gamma-Terpinene|DTXCID4021210|DTXSID6041210|E80754|EINECS 202-794-6|EN300-211578|FEMA No. 3559|GAMMA-TERPINENE [FCC]|Gamma terpinene|Gamma-terpinene gamma-terpinene|HY-W020183|InChI=1\/C10H16\/c1-8(2)10-6-4-9(3)5-7-10\/h4,7-8H,5-6H2,1-3H|LMPR0102090027|M0318|MFCD00001537|Moslene|NCGC00248232-01|NCGC00254865-01|NS00013198|NSC 21448|NSC-21448|P-MENTHA-1,4-DIENE [FHFI]|Q423975|TERPINENE, ALPHA|Terpinene, .gamma.-|Tox21_300963|UNII-4YGF4PQP49|W-100015|WLN: L6U CUTJ AY1&1 D1|Z1255382936|\u03b3-terpinene|\u221a\u00e9\u00ac\u2265-Terpinene|bmse000778|gama-terpinene|gamma-Terpinen|gamma-Terpinene (natural)|gamma-Terpinene, 97%|gamma-Terpinene, >=95%, FG|gamma-Terpinene, analytical standard|gamma-Terpinene, natural, 95%, FG|gamma-Terpinene, primary pharmaceutical reference standard|gamma-Terpinene, purum, >=97.0% (GC)|p-Mentha-1,4-diene

>  <cas>  (17) 
99-85-4

$$$$

     RDKit          2D

 40 44  0  0  0  0  0  0  0  0999 V2000
    7.5415    4.7277    0.0000 C   0  0  0  0  0  0  0  0  0  0  0  0
    6.1959    4.0649    0.0000 C   0  0  0  0  0  0  0  0  0  0  0  0
    6.0972    2.5681    0.0000 C   0  0  0  0  0  0  0  0  0  0  0  0
    7.3440    1.7342    0.0000 C   0  0  0  0  0  0  0  0  0  0  0  0
    4.7516    1.9053    0.0000 C   0  0  0  0  0  0  0  0  0  0  0  0
    3.5047    2.7392    0.0000 O   0  0  0  0  0  0  0  0  0  0  0  0
    4.6528    0.4085    0.0000 O   0  0  0  0  0  0  0  0  0  0  0  0
    3.3072   -0.2543    0.0000 C   0  0  0  0  0  0  0  0  0  0  0  0
    2.0604    0.5796    0.0000 C   0  0  0  0  0  0  0  0  0  0  0  0
    0.8136    1.4135    0.0000 C   0  0  0  0  0  0  0  0  0  0  0  0
   -0.5320    0.7506    0.0000 C   0  0  0  0  0  0  0  0  0  0  0  0
   -1.7789    1.5845    0.0000 C   0  0  0  0  0  0  0  0  0  0  0  0
   -1.6801    3.0813    0.0000 C   0  0  0  0  0  0  0  0  0  0  0  0
   -2.9270    3.9152    0.0000 C   0  0  0  0  0  0  0  0  0  0  0  0
   -2.8282    5.4119    0.0000 O   0  0  0  0  0  0  0  0  0  0  0  0
   -4.2726    3.2523    0.0000 O   0  0  0  0  0  0  0  0  0  0  0  0
   -4.3713    1.7556    0.0000 C   0  0  0  0  0  0  0  0  0  0  0  0
   -5.7169    1.0927    0.0000 C   0  0  0  0  0  0  0  0  0  0  0  0
   -5.9716   -0.3855    0.0000 C   0  0  0  0  0  0  0  0  0  0  0  0
   -7.4562   -0.6001    0.0000 O   0  0  0  0  0  0  0  0  0  0  0  0
   -8.1190    0.7455    0.0000 C   0  0  0  0  0  0  0  0  0  0  0  0
   -7.0441    1.7917    0.0000 C   0  0  0  0  0  0  0  0  0  0  0  0
   -3.1245    0.9217    0.0000 C   0  0  0  0  0  0  0  0  0  0  0  0
   -4.4701    0.2588    0.0000 C   0  0  0  0  0  0  0  0  0  0  0  0
   -3.2232   -0.5751    0.0000 C   0  0  0  0  0  0  0  0  0  0  0  0
   -1.9764   -1.4090    0.0000 C   0  0  0  0  0  0  0  0  0  0  0  0
   -0.6308   -0.7461    0.0000 C   0  0  0  0  0  0  0  0  0  0  0  0
    0.6160   -1.5800    0.0000 C   0  0  0  0  0  0  0  0  0  0  0  0
    0.5173   -3.0768    0.0000 C   0  0  0  0  0  0  0  0  0  0  0  0
    1.9616   -0.9172    0.0000 C   0  0  0  0  0  0  0  0  0  0  0  0
    2.7118   -1.1868    0.0000 O   0  0  0  0  0  0  0  0  0  0  0  0
    1.8629   -2.4139    0.0000 C   0  0  0  0  0  0  0  0  0  0  0  0
    1.7641   -3.9107    0.0000 C   0  0  0  0  0  0  0  0  0  0  0  0
    0.4185   -4.5735    0.0000 C   0  0  0  0  0  0  0  0  0  0  0  0
   -0.8283   -3.7396    0.0000 O   0  0  0  0  0  0  0  0  0  0  0  0
    0.3198   -6.0703    0.0000 O   0  0  0  0  0  0  0  0  0  0  0  0
   -1.0258   -6.7331    0.0000 C   0  0  0  0  0  0  0  0  0  0  0  0
    3.2085   -1.7511    0.0000 C   0  0  0  0  0  0  0  0  0  0  0  0
    3.6276   -3.1913    0.0000 C   0  0  0  0  0  0  0  0  0  0  0  0
    4.6996   -1.5884    0.0000 C   0  0  0  0  0  0  0  0  0  0  0  0
  1  2  1  0
  2  3  2  0
  3  4  1  0
  3  5  1  0
  5  6  2  0
  5  7  1  0
  8  7  1  1
  8  9  1  0
  9 10  1  1
 10 11  2  0
 11 12  1  0
 12 13  1  1
 13 14  1  0
 14 15  2  0
 14 16  1  0
 16 17  1  0
 17 18  1  6
 18 19  2  0
 19 20  1  0
 20 21  1  0
 21 22  2  0
 17 23  1  0
 23 24  1  6
 23 25  1  0
 25 26  1  0
 27 26  1  1
 27 28  1  0
 28 29  1  6
 28 30  1  0
 30 31  2  0
 28 32  1  0
 32 33  1  6
 33 34  1  0
 34 35  2  0
 34 36  1  0
 36 37  1  0
 32 38  1  0
 38 39  1  0
 38 40  1  0
 38  8  1  0
 30  9  1  0
 27 11  1  0
 23 12  1  0
 22 18  1  0
M  END
>  <identifier>  (18) 
CNP0155182.1

>  <canonical_smiles>  (18) 
C/C=C(\C)C(=O)O[C@@H]1[C@@H]2C=C3[C@@H]4CC(=O)O[C@@H](C5=COC=C5)[C@]4(C)CC[C@@H]3[C@@](C)(C2=O)[C@@H](CC(=O)OC)C1(C)C

>  <standard_inchi>  (18) 
InChI=1S/C32H40O8/c1-8-17(2)29(36)40-28-20-13-19-21(32(6,26(20)35)23(30(28,3)4)15-24(33)37-7)9-11-31(5)22(19)14-25(34)39-27(31)18-10-12-38-16-18/h8,10,12-13,16,20-23,27-28H,9,11,14-15H2,1-7H3/b17-8+/t20-,21+,22+,23+,27+,28-,31-,32-/m1/s1

>  <standard_inchi_key>  (18) 
ZUPIHFVWSWCKSD-LEYZETLNSA-N

>  <name>  (18) 
nan

>  <iupac_name>  (18) 
[(1~{R},2~{S},5~{R},6~{R},10~{S},13~{S},14~{R},16~{S})-6-(3-furyl)-16-(2-methoxy-2-oxo-ethyl)-1,5,15,15-tetramethyl-8,17-dioxo-7-oxatetracyclo[11.3.1.0^{2,11}.0^{5,10}]heptadec-11-en-14-yl] (~{E})-2-methylbut-2-enoate

>  <annotation_level>  (18) 
4

>  <total_atom_count>  (18) 
80

>  <heavy_atom_count>  (18) 
40

>  <molecular_weight>  (18) 
552.66

>  <exact_molecular_weight>  (18) 
552.27232

>  <molecular_formula>  (18) 
C32H40O8

>  <alogp>  (18) 
5.53

>  <topological_polar_surface_area>  (18) 
109.11

>  <rotatable_bond_count>  (18) 
5

>  <hydrogen_bond_acceptors>  (18) 
8

>  <hydrogen_bond_donors>  (18) 
0

>  <hydrogen_bond_acceptors_lipinski>  (18) 
8

>  <hydrogen_bond_donors_lipinski>  (18) 
0

>  <lipinski_rule_of_five_violations>  (18) 
2

>  <aromatic_rings_count>  (18) 
1

>  <qed_drug_likeliness>  (18) 
0.20

>  <formal_charge>  (18) 
0

>  <fractioncsp3>  (18) 
0.63

>  <number_of_minimal_rings>  (18) 
5

>  <van_der_walls_volume>  (18) 
504.02

>  <contains_sugar>  (18) 
False

>  <contains_ring_sugars>  (18) 
False

>  <contains_linear_sugars>  (18) 
False

>  <murcko_framework>  (18) 
o1ccc(c1)C2OCCC3C4=CC5CCCC(C5)C4CCC23

>  <np_likeness>  (18) 
2.96

>  <chemical_class>  (18) 
Naphthopyrans

>  <chemical_sub_class>  (18) 
Naphthopyrans

>  <chemical_super_class>  (18) 
Organoheterocyclic compounds

>  <direct_parent_classification>  (18) 
Naphthopyrans

>  <np_classifier_pathway>  (18) 
Terpenoids

>  <np_classifier_superclass>  (18) 
Triterpenoids

>  <np_classifier_class>  (18) 
Limonoids

>  <np_classifier_is_glycoside>  (18) 
False

>  <organisms>  (18) 
Arenaria venezuelana|Cipadessa Baccifera|Cipadessa baccifera|Cipadessa baccifera (Roth) Miq.|Cipadessa fruticosa|Eptatretus burgeri|Pandaros acanthifolium|Paraburkholderia caryophylli|Randia nilotica|Soymida febrifuga|Swietenia macrophylla|Toona ciliata|Veronica undulata|Xylocarpus granatum

>  <collections>  (18) 
Australian natural products|KNApSaCK|Latin America dataset|NPASS|NuBBEDB|Super Natural II|VietHerb|WikiData Natural Products

>  <dois>  (18) 
10.1016/J.FOODCHEM.2009.09.093|10.1016/S0031-9422(00)00247-8|10.1016/S0031-9422(00)83542-6|10.1021/NP070146C|10.1021/NP070229T|10.1021/NP100395W|10.1021/NP900625W|10.1021/NP990199X|10.1021/np900625w|10.1515/ZNB-2005-0321|10.1515/znc-2009-5-623|10.1590/S0102-695X2010000100002

>  <synonyms>  (18) 
Febrifugin

>  <cas>  (18) 
nan

$$$$

     RDKit          2D

 28 29  0  0  0  0  0  0  0  0999 V2000
    6.2605   -4.5096    0.0000 C   0  0  0  0  0  0  0  0  0  0  0  0
    5.2281   -3.4214    0.0000 C   0  0  0  0  0  0  0  0  0  0  0  0
    5.6544   -1.9832    0.0000 C   0  0  0  0  0  0  0  0  0  0  0  0
    4.6220   -0.8950    0.0000 C   0  0  0  0  0  0  0  0  0  0  0  0
    3.1634   -1.2449    0.0000 C   0  0  0  0  0  0  0  0  0  0  0  0
    2.1311   -0.1567    0.0000 C   0  0  0  0  0  0  0  0  0  0  0  0
    2.5573    1.2815    0.0000 C   0  0  0  0  0  0  0  0  0  0  0  0
    1.5250    2.3697    0.0000 O   0  0  0  0  0  0  0  0  0  0  0  0
    0.0664    2.0198    0.0000 C   0  0  0  0  0  0  0  0  0  0  0  0
   -0.9660    3.1080    0.0000 C   0  0  0  0  0  0  0  0  0  0  0  0
   -0.3599    0.5816    0.0000 C   0  0  0  0  0  0  0  0  0  0  0  0
    0.6725   -0.5066    0.0000 O   0  0  0  0  0  0  0  0  0  0  0  0
   -1.8185    0.2317    0.0000 C   0  0  0  0  0  0  0  0  0  0  0  0
   -2.8509    1.3199    0.0000 C   0  0  0  0  0  0  0  0  0  0  0  0
   -4.3095    0.9700    0.0000 C   0  0  0  0  0  0  0  0  0  0  0  0
   -5.3418    2.0582    0.0000 O   0  0  0  0  0  0  0  0  0  0  0  0
   -4.9156    3.4963    0.0000 C   0  0  0  0  0  0  0  0  0  0  0  0
   -4.7357   -0.4682    0.0000 C   0  0  0  0  0  0  0  0  0  0  0  0
   -6.1943   -0.8181    0.0000 O   0  0  0  0  0  0  0  0  0  0  0  0
   -6.6206   -2.2563    0.0000 C   0  0  0  0  0  0  0  0  0  0  0  0
   -3.7034   -1.5564    0.0000 C   0  0  0  0  0  0  0  0  0  0  0  0
   -4.1296   -2.9946    0.0000 O   0  0  0  0  0  0  0  0  0  0  0  0
   -3.0973   -4.0828    0.0000 C   0  0  0  0  0  0  0  0  0  0  0  0
   -2.2448   -1.2065    0.0000 C   0  0  0  0  0  0  0  0  0  0  0  0
    4.0159    1.6314    0.0000 C   0  0  0  0  0  0  0  0  0  0  0  0
    4.4422    3.0696    0.0000 O   0  0  0  0  0  0  0  0  0  0  0  0
    5.9008    3.4195    0.0000 C   0  0  0  0  0  0  0  0  0  0  0  0
    5.0483    0.5432    0.0000 C   0  0  0  0  0  0  0  0  0  0  0  0
  1  2  1  0
  2  3  2  0
  3  4  1  0
  4  5  2  0
  5  6  1  0
  6  7  2  0
  7  8  1  0
  8  9  1  0
  9 10  1  0
  9 11  1  0
 11 12  2  0
 11 13  1  0
 13 14  2  0
 14 15  1  0
 15 16  1  0
 16 17  1  0
 15 18  2  0
 18 19  1  0
 19 20  1  0
 18 21  1  0
 21 22  1  0
 22 23  1  0
 21 24  2  0
  7 25  1  0
 25 26  1  0
 26 27  1  0
 25 28  2  0
 28  4  1  0
 24 13  1  0
M  END
>  <identifier>  (19) 
CNP0080438.2

>  <canonical_smiles>  (19) 
C/C=C/C1=CC=C(OC(C)C(=O)C2=CC(OC)=C(OC)C(OC)=C2)C(OC)=C1

>  <standard_inchi>  (19) 
InChI=1S/C22H26O6/c1-7-8-15-9-10-17(18(11-15)24-3)28-14(2)21(23)16-12-19(25-4)22(27-6)20(13-16)26-5/h7-14H,1-6H3/b8-7+

>  <standard_inchi_key>  (19) 
UWSPBGKTPVZWIB-BQYQJAHWSA-N

>  <name>  (19) 
nan

>  <iupac_name>  (19) 
nan

>  <annotation_level>  (19) 
0

>  <total_atom_count>  (19) 
54

>  <heavy_atom_count>  (19) 
28

>  <molecular_weight>  (19) 
386.44

>  <exact_molecular_weight>  (19) 
386.17294

>  <molecular_formula>  (19) 
C22H26O6

>  <alogp>  (19) 
4.40

>  <topological_polar_surface_area>  (19) 
63.22

>  <rotatable_bond_count>  (19) 
9

>  <hydrogen_bond_acceptors>  (19) 
6

>  <hydrogen_bond_donors>  (19) 
0

>  <hydrogen_bond_acceptors_lipinski>  (19) 
6

>  <hydrogen_bond_donors_lipinski>  (19) 
0

>  <lipinski_rule_of_five_violations>  (19) 
0

>  <aromatic_rings_count>  (19) 
2

>  <qed_drug_likeliness>  (19) 
0.60

>  <formal_charge>  (19) 
0

>  <fractioncsp3>  (19) 
0.32

>  <number_of_minimal_rings>  (19) 
2

>  <van_der_walls_volume>  (19) 
361.96

>  <contains_sugar>  (19) 
False

>  <contains_ring_sugars>  (19) 
False

>  <contains_linear_sugars>  (19) 
False

>  <murcko_framework>  (19) 
O(c1ccccc1)CCc2ccccc2

>  <np_likeness>  (19) 
0.19

>  <chemical_class>  (19) 
nan

>  <chemical_sub_class>  (19) 
nan

>  <chemical_super_class>  (19) 
nan

>  <direct_parent_classification>  (19) 
nan

>  <np_classifier_pathway>  (19) 
Shikimates and Phenylpropanoids

>  <np_classifier_superclass>  (19) 
Lignans

>  <np_classifier_class>  (19) 
Neolignans

>  <np_classifier_is_glycoside>  (19) 
False

>  <organisms>  (19) 
Virola surinamensis

>  <collections>  (19) 
Latin America dataset|NuBBEDB|WikiData Natural Products

>  <dois>  (19) 
10.1016/S0031-9422(00)94227-4

>  <synonyms>  (19) 
nan

>  <cas>  (19) 
nan

$$$$

     RDKit          2D

 15 16  0  0  0  0  0  0  0  0999 V2000
   -3.2379    3.1978    0.0000 C   0  0  0  0  0  0  0  0  0  0  0  0
   -3.3049    1.6993    0.0000 O   0  0  0  0  0  0  0  0  0  0  0  0
   -2.0407    0.8920    0.0000 C   0  0  0  0  0  0  0  0  0  0  0  0
   -2.1076   -0.6065    0.0000 C   0  0  0  0  0  0  0  0  0  0  0  0
   -0.8434   -1.4137    0.0000 C   0  0  0  0  0  0  0  0  0  0  0  0
   -0.9104   -2.9122    0.0000 O   0  0  0  0  0  0  0  0  0  0  0  0
   -2.2416   -3.6035    0.0000 C   0  0  0  0  0  0  0  0  0  0  0  0
    0.4878   -0.7225    0.0000 C   0  0  0  0  0  0  0  0  0  0  0  0
    1.7521   -1.5298    0.0000 C   0  0  0  0  0  0  0  0  0  0  0  0
    3.0833   -0.8385    0.0000 C   0  0  0  0  0  0  0  0  0  0  0  0
    3.1503    0.6600    0.0000 C   0  0  0  0  0  0  0  0  0  0  0  0
    4.4815    1.3512    0.0000 O   0  0  0  0  0  0  0  0  0  0  0  0
    1.8861    1.4672    0.0000 O   0  0  0  0  0  0  0  0  0  0  0  0
    0.5548    0.7760    0.0000 C   0  0  0  0  0  0  0  0  0  0  0  0
   -0.7094    1.5833    0.0000 C   0  0  0  0  0  0  0  0  0  0  0  0
  1  2  1  0
  2  3  1  0
  3  4  2  0
  4  5  1  0
  5  6  1  0
  6  7  1  0
  5  8  2  0
  8  9  1  0
  9 10  2  0
 10 11  1  0
 11 12  2  0
 11 13  1  0
 13 14  1  0
 14 15  2  0
 15  3  1  0
 14  8  1  0
M  END
>  <identifier>  (20) 
CNP0292843.0

>  <canonical_smiles>  (20) 
COC1=CC(OC)=C2C=CC(=O)OC2=C1

>  <standard_inchi>  (20) 
InChI=1S/C11H10O4/c1-13-7-5-9(14-2)8-3-4-11(12)15-10(8)6-7/h3-6H,1-2H3

>  <standard_inchi_key>  (20) 
NXJCRELRQHZBQA-UHFFFAOYSA-N

>  <name>  (20) 
citropten

>  <iupac_name>  (20) 
5,7-dimethoxychromen-2-one

>  <annotation_level>  (20) 
5

>  <total_atom_count>  (20) 
25

>  <heavy_atom_count>  (20) 
15

>  <molecular_weight>  (20) 
206.2

>  <exact_molecular_weight>  (20) 
206.05791

>  <molecular_formula>  (20) 
C11H10O4

>  <alogp>  (20) 
1.81

>  <topological_polar_surface_area>  (20) 
48.67

>  <rotatable_bond_count>  (20) 
2

>  <hydrogen_bond_acceptors>  (20) 
4

>  <hydrogen_bond_donors>  (20) 
0

>  <hydrogen_bond_acceptors_lipinski>  (20) 
4

>  <hydrogen_bond_donors_lipinski>  (20) 
0

>  <lipinski_rule_of_five_violations>  (20) 
0

>  <aromatic_rings_count>  (20) 
2

>  <qed_drug_likeliness>  (20) 
0.70

>  <formal_charge>  (20) 
0

>  <fractioncsp3>  (20) 
0.18

>  <number_of_minimal_rings>  (20) 
2

>  <van_der_walls_volume>  (20) 
177.83

>  <contains_sugar>  (20) 
False

>  <contains_ring_sugars>  (20) 
False

>  <contains_linear_sugars>  (20) 
False

>  <murcko_framework>  (20) 
O1c2ccccc2C=CC1

>  <np_likeness>  (20) 
0.57

>  <chemical_class>  (20) 
Coumarins and derivatives

>  <chemical_sub_class>  (20) 
Coumarins and derivatives

>  <chemical_super_class>  (20) 
Phenylpropanoids and polyketides

>  <direct_parent_classification>  (20) 
Coumarins and derivatives

>  <np_classifier_pathway>  (20) 
Shikimates and Phenylpropanoids

>  <np_classifier_superclass>  (20) 
Coumarins

>  <np_classifier_class>  (20) 
Simple coumarins

>  <np_classifier_is_glycoside>  (20) 
False

>  <organisms>  (20) 
Adenia fruticosa|Aeromonas hydrophila|Artemisia caucasica|Aster ptarmicoides|Bidens andicola|Boenninghausenia albiflora|Bunium paucifolium|Bupleurum salicifolium|Centrosema haitense|Citrus limetta|Citrus limon|Citrus medica|Citrus medica var. sarcodactylis|Citrus sp.|Citrus wilsonii|Corydalis gigantea|Crella incrustans|Dinosperma melanophloium|Dysosma delavayi|Echinochloa esculenta|Echinopepon bigelovii|Edgeworthia chrysantha|Eriostemon obovalis|Euphorbia hirta|Exobasidium vaccinii|Galium album|Gomphostemma crinitum|Halosaccion ramentaceum|Heracleum mantegazzianum|Hopea brevipetiolaris|Lactarius vellereus|Laurencia glandulifera|Ligularia hodgsonii|Lobelia chinensis|Lophozia floerkei|Maharanga bicolor|Melicope borbonica|Metrodorea nigra|Millettia rubiginosa|Mosla japonica|Murraya paniculata var. omphalocarpa|Nocardia pseudobrasiliensis|Osteospermum hyoseroides|Picridium crystallinum|Pinus massoniana|Plagiomnium undulatum|Rubus phoenicolasius|Saussurea pulchella|Schisandra chinensis|Sedum cepaea|Streptomyces olivaceus|Toddalia asiatica|Torricellia tiliifolia|Trifoliate orange|Urbanodendron verrucosum|Zanthoxylum asiaticum|Zanthoxylum belizense|Zingiber officinale

>  <collections>  (20) 
AnalytiCon Discovery NPs|Australian natural products|CMAUP (cCollective molecular activities of useful plants)|ETM (Ethiopian Traditional Medicine) DB|FooDB|Latin America dataset|NPASS|NPEdia|NuBBEDB|Phyto4Health|PhytoLab phyproof® Reference Substances|PubChem NPs|Super Natural II|TCMDB-Taiwan (Traditional Chinese Medicine database)|TCMID (Traditional Chinese Medicine Integrated Database)|UNPD (Universal Natural Products Database)|WikiData Natural Products

>  <dois>  (20) 
10.1016/0031-9422(89)85042-3|10.1016/0031-9422(95)00504-Z|10.1016/J.PHYTOCHEM.2006.03.012|10.1016/S0031-9422(97)00678-X|10.1016/S0040-4020(01)90430-2|10.1016/S0305-1978(97)00116-6|10.1016/S0378-8741(98)00137-8|10.1016/s0031-9422(00)84670-1|10.1021/NP50120A010|10.1039/CT8905700323|10.1055/S-0034-1368568|10.1055/S-2006-959710|10.1076/1388-0209(200009)3841-AFT308|10.1248/CPB.58.61|10.1248/CPB.58.971|10.3987/COM-08-11630|10.3987/COM-99-8782

>  <synonyms>  (20) 
nan

>  <cas>  (20) 
487-06-9

$$$$

     RDKit          2D

 28 30  0  0  0  0  0  0  0  0999 V2000
   -5.5934   -3.7378    0.0000 C   0  0  0  0  0  0  0  0  0  0  0  0
   -4.1687   -3.2685    0.0000 O   0  0  0  0  0  0  0  0  0  0  0  0
   -3.8629   -1.8000    0.0000 C   0  0  0  0  0  0  0  0  0  0  0  0
   -4.9817   -0.8008    0.0000 C   0  0  0  0  0  0  0  0  0  0  0  0
   -4.6758    0.6676    0.0000 C   0  0  0  0  0  0  0  0  0  0  0  0
   -3.2511    1.1370    0.0000 C   0  0  0  0  0  0  0  0  0  0  0  0
   -2.9452    2.6055    0.0000 C   0  0  0  0  0  0  0  0  0  0  0  0
   -1.5205    3.0748    0.0000 C   0  0  0  0  0  0  0  0  0  0  0  0
   -1.0628    4.5033    0.0000 C   0  0  0  0  0  0  0  0  0  0  0  0
    0.4371    4.5094    0.0000 O   0  0  0  0  0  0  0  0  0  0  0  0
    0.9065    3.0847    0.0000 C   0  0  0  0  0  0  0  0  0  0  0  0
    2.3349    2.6270    0.0000 O   0  0  0  0  0  0  0  0  0  0  0  0
   -0.3034    2.1981    0.0000 C   0  0  0  0  0  0  0  0  0  0  0  0
   -0.2973    0.6981    0.0000 C   0  0  0  0  0  0  0  0  0  0  0  0
    1.0048   -0.0466    0.0000 C   0  0  0  0  0  0  0  0  0  0  0  0
    1.0109   -1.5466    0.0000 C   0  0  0  0  0  0  0  0  0  0  0  0
    2.3130   -2.2913    0.0000 C   0  0  0  0  0  0  0  0  0  0  0  0
    3.6089   -1.5360    0.0000 C   0  0  0  0  0  0  0  0  0  0  0  0
    4.9110   -2.2807    0.0000 O   0  0  0  0  0  0  0  0  0  0  0  0
    4.9171   -3.7807    0.0000 C   0  0  0  0  0  0  0  0  0  0  0  0
    3.6028   -0.0360    0.0000 C   0  0  0  0  0  0  0  0  0  0  0  0
    4.8988    0.7193    0.0000 O   0  0  0  0  0  0  0  0  0  0  0  0
    6.2009   -0.0254    0.0000 C   0  0  0  0  0  0  0  0  0  0  0  0
    2.3007    0.7087    0.0000 C   0  0  0  0  0  0  0  0  0  0  0  0
   -2.1323    0.1378    0.0000 C   0  0  0  0  0  0  0  0  0  0  0  0
   -2.4382   -1.3306    0.0000 C   0  0  0  0  0  0  0  0  0  0  0  0
   -1.3194   -2.3298    0.0000 O   0  0  0  0  0  0  0  0  0  0  0  0
    0.1053   -1.8604    0.0000 C   0  0  0  0  0  0  0  0  0  0  0  0
  1  2  1  0
  2  3  1  0
  3  4  2  0
  4  5  1  0
  5  6  2  0
  6  7  1  0
  8  7  1  1
  8  9  1  0
  9 10  1  0
 10 11  1  0
 11 12  2  0
 11 13  1  0
 13 14  1  6
 14 15  1  0
 15 16  2  0
 16 17  1  0
 17 18  2  0
 18 19  1  0
 19 20  1  0
 18 21  1  0
 21 22  1  0
 22 23  1  0
 21 24  2  0
  6 25  1  0
 25 26  2  0
 26 27  1  0
 27 28  1  0
 26  3  1  0
 13  8  1  0
 24 15  1  0
M  END
>  <identifier>  (21) 
CNP0302776.1

>  <canonical_smiles>  (21) 
COC1=CC=C(C[C@H]2COC(=O)[C@@H]2CC2=CC=C(OC)C(OC)=C2)C=C1OC

>  <standard_inchi>  (21) 
InChI=1S/C22H26O6/c1-24-18-7-5-14(11-20(18)26-3)9-16-13-28-22(23)17(16)10-15-6-8-19(25-2)21(12-15)27-4/h5-8,11-12,16-17H,9-10,13H2,1-4H3/t16-,17+/m0/s1

>  <standard_inchi_key>  (21) 
SNAOLIMFHAAIER-DLBZAZTESA-N

>  <name>  (21) 
Arctigenin methyl ether

>  <iupac_name>  (21) 
(3~{R},4~{R})-3,4-bis[(3,4-dimethoxyphenyl)methyl]tetrahydrofuran-2-one

>  <annotation_level>  (21) 
5

>  <total_atom_count>  (21) 
54

>  <heavy_atom_count>  (21) 
28

>  <molecular_weight>  (21) 
386.44

>  <exact_molecular_weight>  (21) 
386.17294

>  <molecular_formula>  (21) 
C22H26O6

>  <alogp>  (21) 
3.30

>  <topological_polar_surface_area>  (21) 
63.22

>  <rotatable_bond_count>  (21) 
8

>  <hydrogen_bond_acceptors>  (21) 
6

>  <hydrogen_bond_donors>  (21) 
0

>  <hydrogen_bond_acceptors_lipinski>  (21) 
6

>  <hydrogen_bond_donors_lipinski>  (21) 
0

>  <lipinski_rule_of_five_violations>  (21) 
0

>  <aromatic_rings_count>  (21) 
2

>  <qed_drug_likeliness>  (21) 
0.65

>  <formal_charge>  (21) 
0

>  <fractioncsp3>  (21) 
0.41

>  <number_of_minimal_rings>  (21) 
3

>  <van_der_walls_volume>  (21) 
356.40

>  <contains_sugar>  (21) 
False

>  <contains_ring_sugars>  (21) 
False

>  <contains_linear_sugars>  (21) 
False

>  <murcko_framework>  (21) 
O1CC(Cc2ccccc2)C(C1)Cc3ccccc3

>  <np_likeness>  (21) 
1.01

>  <chemical_class>  (21) 
Furanoid lignans

>  <chemical_sub_class>  (21) 
Tetrahydrofuran lignans

>  <chemical_super_class>  (21) 
Lignans, neolignans and related compounds

>  <direct_parent_classification>  (21) 
Dibenzylbutyrolactone lignans

>  <np_classifier_pathway>  (21) 
Shikimates and Phenylpropanoids

>  <np_classifier_superclass>  (21) 
Lignans

>  <np_classifier_class>  (21) 
Dibenzylbutyrolactone lignans

>  <np_classifier_is_glycoside>  (21) 
False

>  <organisms>  (21) 
Adenia fruticosa|Aeromonas hydrophila|Aglaia tomentosa|Artemisia austriaca|Artemisia caucasica|Aster ptarmicoides|Bupleurum salicifolium|Centaurea orphanidea|Centrosema haitense|Chrysolaena propinqua|Cinnamomum camphora|Corydalis gigantea|Crella incrustans|Daphne blagayana|Digitalis obscura|Dysosma delavayi|Echinochloa esculenta|Echinopepon bigelovii|Erythrina orientalis|Exobasidium vaccinii|Fagara heitzii|Fagara tessmannii Engl.|Fragaria|Galium album|Gomphostemma crinitum|Hernandia guianensis|Hernandia nymphaeifolia|Hernandia ovigera|Hernandia peltata|Hopea brevipetiolaris|Lactarius vellereus|Lophozia floerkei|Lotus villosus|Maharanga bicolor|Mesua elegans|Michelia rajaniana|Millettia rubiginosa|Mosla japonica|Nocardia pseudobrasiliensis|Oenanthe aquatica|Onychopetalum amazonicum|Osteospermum hyoseroides|Peperomia vulcanica|Phora atra|Pinus massoniana|Plagiomnium undulatum|Ptelea trifoliata|Ribes nigrum|Rubus chamaemorus|Rubus phoenicolasius|Russula subnigricans|Sarcomyxa serotina|Saussurea pulchella|Sedum cepaea|Stevia serrata|Streptomyces olivaceus|Taiwania cryptomerioides|Torricellia tiliifolia|Umbelopsis vinacea|Urbanodendron verrucosum|Vaccinium myrtillus|Vaccinium vitis-idaea|Vernonia tufnellae|Virola elongata|Virola michelii|Virola sebifera|West African Pepper|Zanthoxylum gilletii|Zanthoxylum heitzii

>  <collections>  (21) 
AfroMalariaDB|CMAUP (cCollective molecular activities of useful plants)|ConMedNP|KNApSaCK|Latin America dataset|NPASS|NuBBEDB|Phenol-explorer|Super Natural II|TCMDB-Taiwan (Traditional Chinese Medicine database)|WikiData Natural Products|ZINC NP

>  <dois>  (21) 
10.1002/CHIN.200340213|10.1007/BF02059594|10.1016/0031-9422(90)85020-G|10.1016/0031-9422(90)85051-G|10.1016/0031-9422(95)00464-I|10.1016/0731-7085(87)80060-2|10.1016/J.FOODCHEM.2012.03.133|10.1016/J.PHYTOCHEM.2006.12.015|10.1016/J.PHYTOCHEM.2009.08.007|10.1016/S0031-9422(00)00275-2|10.1016/S0031-9422(00)84055-8|10.1016/S0031-9422(00)90373-X|10.1016/S0031-9422(02)00191-7|10.1016/S0040-4020(01)90430-2|10.1016/S0040-4039(01)88517-8|10.1016/S0305-1978(02)00162-X|10.1021/NP030125S|10.1021/NP030125S.S001|10.1021/NP9801965|10.1021/np030125s|10.1246/BCSJ.50.2821|10.1248/CPB.39.1873

>  <synonyms>  (21) 
(-)-ARCITIN|(-)-maculatin|(2R3R)-23-Di-(34-dimethoxybenzyl)-butyrolactone|(3R,4R)-3,4-bis[(3,4-dimethoxyphenyl)methyl]oxolan-2-one|(3r,4r)-3,4-bis(3,4-dimethoxybenzyl)dihydrofuran-2(3h)-one|2(3H)-FURANONE, 3,4-BIS((3,4-DIMETHOXYPHENYL)METHYL)DIHYDRO-, (3R,4R)-|2(3H)-Furanone, 3,4-bis((3,4-dimethoxyphenyl)methyl)dihydro-, (3R-trans)-|2,3-Bis(3,4-dimethoxybenzyl)butyrolactone|25488-59-9|4,4'-DIMETHYLMATAIRESINOL|9TF8GZN966|AKOS032948440|Arctigenin methyl ether|Arctigenin methyl ether; Maculatin; Maculatin (lignan); Matairesinol dimethyl ether|CHEMBL476709|CS-0024168|DTXSID101341854|Dimethylmatairesinol|FS-9661|HY-N3761|Iriflophenone 2-O--rhamnoside|MACULATIN|MATAIRESINOL DIMETHYL ETHER|Methylarctigenin|NSC675473|Q27273182|SCHEMBL18677702|UNII-9TF8GZN966|[2-[(6-Deoxy--L-mannopyranosyl)oxy]-4,6-dihydroxyphenyl](4-hydroxyphenyl)methanone

>  <cas>  (21) 
25488-59-9

$$$$

     RDKit          2D

 34 37  0  0  0  0  0  0  0  0999 V2000
   -2.1545    2.6974    0.0000 C   0  0  0  0  0  0  0  0  0  0  0  0
   -2.3955    1.2168    0.0000 O   0  0  0  0  0  0  0  0  0  0  0  0
   -1.2338    0.2679    0.0000 C   0  0  0  0  0  0  0  0  0  0  0  0
    0.1688    0.7994    0.0000 C   0  0  0  0  0  0  0  0  0  0  0  0
    1.3305   -0.1495    0.0000 C   0  0  0  0  0  0  0  0  0  0  0  0
    1.0895   -1.6300    0.0000 C   0  0  0  0  0  0  0  0  0  0  0  0
   -0.3131   -2.1616    0.0000 C   0  0  0  0  0  0  0  0  0  0  0  0
   -0.5541   -3.6421    0.0000 O   0  0  0  0  0  0  0  0  0  0  0  0
   -1.4748   -1.2126    0.0000 C   0  0  0  0  0  0  0  0  0  0  0  0
   -2.8775   -1.7442    0.0000 O   0  0  0  0  0  0  0  0  0  0  0  0
   -4.0391   -0.7952    0.0000 C   0  0  0  0  0  0  0  0  0  0  0  0
   -3.7981    0.6853    0.0000 O   0  0  0  0  0  0  0  0  0  0  0  0
   -4.9598    1.6342    0.0000 C   0  0  0  0  0  0  0  0  0  0  0  0
   -4.7188    3.1147    0.0000 C   0  0  0  0  0  0  0  0  0  0  0  0
   -5.8805    4.0637    0.0000 O   0  0  0  0  0  0  0  0  0  0  0  0
   -6.3625    1.1027    0.0000 C   0  0  0  0  0  0  0  0  0  0  0  0
   -7.5241    2.0516    0.0000 O   0  0  0  0  0  0  0  0  0  0  0  0
   -6.6035   -0.3778    0.0000 C   0  0  0  0  0  0  0  0  0  0  0  0
   -8.0061   -0.9094    0.0000 O   0  0  0  0  0  0  0  0  0  0  0  0
   -5.4418   -1.3268    0.0000 C   0  0  0  0  0  0  0  0  0  0  0  0
   -5.6828   -2.8073    0.0000 O   0  0  0  0  0  0  0  0  0  0  0  0
    2.2512   -2.5790    0.0000 C   0  0  0  0  0  0  0  0  0  0  0  0
    2.0102   -4.0595    0.0000 O   0  0  0  0  0  0  0  0  0  0  0  0
    3.6538   -2.0474    0.0000 C   0  0  0  0  0  0  0  0  0  0  0  0
    3.8948   -0.5669    0.0000 C   0  0  0  0  0  0  0  0  0  0  0  0
    5.2975   -0.0354    0.0000 C   0  0  0  0  0  0  0  0  0  0  0  0
    6.4592   -0.9843    0.0000 C   0  0  0  0  0  0  0  0  0  0  0  0
    7.8618   -0.4528    0.0000 C   0  0  0  0  0  0  0  0  0  0  0  0
    8.1028    1.0278    0.0000 C   0  0  0  0  0  0  0  0  0  0  0  0
    9.5055    1.5593    0.0000 O   0  0  0  0  0  0  0  0  0  0  0  0
    6.9411    1.9767    0.0000 C   0  0  0  0  0  0  0  0  0  0  0  0
    7.1821    3.4572    0.0000 O   0  0  0  0  0  0  0  0  0  0  0  0
    5.5385    1.4452    0.0000 C   0  0  0  0  0  0  0  0  0  0  0  0
    2.7332    0.3820    0.0000 O   0  0  0  0  0  0  0  0  0  0  0  0
  1  2  1  0
  2  3  1  0
  3  4  2  0
  4  5  1  0
  5  6  2  0
  6  7  1  0
  7  8  1  0
  7  9  2  0
  9 10  1  0
 11 10  1  1
 11 12  1  0
 12 13  1  0
 13 14  1  1
 14 15  1  0
 13 16  1  0
 16 17  1  6
 16 18  1  0
 18 19  1  1
 18 20  1  0
 20 21  1  6
  6 22  1  0
 22 23  2  0
 22 24  1  0
 24 25  2  0
 25 26  1  0
 26 27  2  0
 27 28  1  0
 28 29  2  0
 29 30  1  0
 29 31  1  0
 31 32  1  0
 31 33  2  0
 25 34  1  0
  9  3  1  0
 20 11  1  0
 33 26  1  0
 34  5  1  0
M  END
>  <identifier>  (22) 
CNP0199505.1

>  <canonical_smiles>  (22) 
COC1=CC2=C(C(O)=C1O[C@@H]1O[C@H](CO)[C@@H](O)[C@H](O)[C@H]1O)C(=O)C=C(C1=CC=C(O)C(O)=C1)O2

>  <standard_inchi>  (22) 
InChI=1S/C22H22O12/c1-31-14-6-13-16(11(26)5-12(32-13)8-2-3-9(24)10(25)4-8)18(28)21(14)34-22-20(30)19(29)17(27)15(7-23)33-22/h2-6,15,17,19-20,22-25,27-30H,7H2,1H3/t15-,17-,19+,20-,22+/m1/s1

>  <standard_inchi_key>  (22) 
WLDSVYQTJXGHOT-GSVZXUNASA-N

>  <name>  (22) 
Pedaliin

>  <iupac_name>  (22) 
2-(3,4-dihydroxyphenyl)-5-hydroxy-7-methoxy-6-[(2~{S},3~{R},4~{S},5~{S},6~{R})-3,4,5-trihydroxy-6-(hydroxymethyl)tetrahydropyran-2-yl]oxy-chromen-4-one

>  <annotation_level>  (22) 
5

>  <total_atom_count>  (22) 
56

>  <heavy_atom_count>  (22) 
34

>  <molecular_weight>  (22) 
478.41

>  <exact_molecular_weight>  (22) 
478.11113

>  <molecular_formula>  (22) 
C22H22O12

>  <alogp>  (22) 
-0.24

>  <topological_polar_surface_area>  (22) 
199.51

>  <rotatable_bond_count>  (22) 
5

>  <hydrogen_bond_acceptors>  (22) 
12

>  <hydrogen_bond_donors>  (22) 
7

>  <hydrogen_bond_acceptors_lipinski>  (22) 
12

>  <hydrogen_bond_donors_lipinski>  (22) 
7

>  <lipinski_rule_of_five_violations>  (22) 
2

>  <aromatic_rings_count>  (22) 
3

>  <qed_drug_likeliness>  (22) 
0.24

>  <formal_charge>  (22) 
0

>  <fractioncsp3>  (22) 
0.32

>  <number_of_minimal_rings>  (22) 
4

>  <van_der_walls_volume>  (22) 
387.98

>  <contains_sugar>  (22) 
True

>  <contains_ring_sugars>  (22) 
True

>  <contains_linear_sugars>  (22) 
False

>  <murcko_framework>  (22) 
O1c2ccc(OC3OCCCC3)cc2CC=C1c4ccccc4

>  <np_likeness>  (22) 
1.90

>  <chemical_class>  (22) 
Flavonoids

>  <chemical_sub_class>  (22) 
Flavonoid glycosides

>  <chemical_super_class>  (22) 
Phenylpropanoids and polyketides

>  <direct_parent_classification>  (22) 
Flavonoid O-glycosides

>  <np_classifier_pathway>  (22) 
Shikimates and Phenylpropanoids

>  <np_classifier_superclass>  (22) 
Flavonoids

>  <np_classifier_class>  (22) 
Flavones

>  <np_classifier_is_glycoside>  (22) 
True

>  <organisms>  (22) 
Dracocephalum tanguticum|Linaria vulgaris|Pterogyne nitens|Semen sesami|Sesamum indicum|Sesamum orientale|Trifolium pratense|sesame

>  <collections>  (22) 
CMAUP (cCollective molecular activities of useful plants)|ChemSpider NPs|KNApSaCK|Latin America dataset|NPASS|NuBBEDB|Phyto4Health|Super Natural II|WikiData Natural Products|ZINC NP

>  <dois>  (22) 
10.1016/J.BMCL.2010.09.086|10.1021/NP800612X|10.1080/00021369.1981.10864843|10.1248/CPB.56.723|10.1248/cpb.56.723

>  <synonyms>  (22) 
2-(3,4-Dihydroxyphenyl)-6-(I(2)-D-glucopyranosyloxy)-5-hydroxy-7-methoxy-4H-1-benzopyran-4-one|2-(3,4-dihydroxyphenyl)-5-hydroxy-7-methoxy-6-[(2S,3R,4S,5S,6R)-3,4,5-trihydroxy-6-(hydroxymethyl)oxan-2-yl]oxychromen-4-one|22860-72-6|AKOS040762745|CHEBI:191737|CHEMBL1272196|CS-0201485|DTXSID901120686|Glucosyl-6-pedalitin|HY-N9588|Pedalin pedalitin 6-O-\u221a\u00e9\u00ac\u2264 -glucopyranoside|Pedalitin 6-O-beta-glucopyranoside|SCHEMBL9063808

>  <cas>  (22) 
22860-72-6

$$$$

     RDKit          2D

 44 48  0  0  0  0  0  0  0  0999 V2000
    2.1467    2.3994    0.0000 O   0  0  0  0  0  0  0  0  0  0  0  0
    2.9530    1.1345    0.0000 C   0  0  0  0  0  0  0  0  0  0  0  0
    2.2608   -0.1962    0.0000 C   0  0  0  0  0  0  0  0  0  0  0  0
    0.7622   -0.2620    0.0000 O   0  0  0  0  0  0  0  0  0  0  0  0
   -0.0441    1.0028    0.0000 C   0  0  0  0  0  0  0  0  0  0  0  0
    0.6482    2.3335    0.0000 O   0  0  0  0  0  0  0  0  0  0  0  0
   -0.1581    3.5984    0.0000 C   0  0  0  0  0  0  0  0  0  0  0  0
    0.5341    4.9291    0.0000 C   0  0  0  0  0  0  0  0  0  0  0  0
   -0.2722    6.1940    0.0000 O   0  0  0  0  0  0  0  0  0  0  0  0
   -1.6567    3.5326    0.0000 C   0  0  0  0  0  0  0  0  0  0  0  0
   -2.4630    4.7974    0.0000 O   0  0  0  0  0  0  0  0  0  0  0  0
   -2.3489    2.2018    0.0000 C   0  0  0  0  0  0  0  0  0  0  0  0
   -3.8475    2.1360    0.0000 O   0  0  0  0  0  0  0  0  0  0  0  0
   -1.5426    0.9370    0.0000 C   0  0  0  0  0  0  0  0  0  0  0  0
   -2.2349   -0.3937    0.0000 O   0  0  0  0  0  0  0  0  0  0  0  0
   -3.7334   -0.4596    0.0000 C   0  0  0  0  0  0  0  0  0  0  0  0
   -4.5397    0.8053    0.0000 O   0  0  0  0  0  0  0  0  0  0  0  0
   -6.0383    0.7394    0.0000 C   0  0  0  0  0  0  0  0  0  0  0  0
   -6.8446    2.0043    0.0000 C   0  0  0  0  0  0  0  0  0  0  0  0
   -8.3431    1.9385    0.0000 O   0  0  0  0  0  0  0  0  0  0  0  0
   -6.7305   -0.5913    0.0000 C   0  0  0  0  0  0  0  0  0  0  0  0
   -8.2291   -0.6571    0.0000 O   0  0  0  0  0  0  0  0  0  0  0  0
   -5.9242   -1.8561    0.0000 C   0  0  0  0  0  0  0  0  0  0  0  0
   -6.6165   -3.1868    0.0000 O   0  0  0  0  0  0  0  0  0  0  0  0
   -4.4257   -1.7903    0.0000 C   0  0  0  0  0  0  0  0  0  0  0  0
   -3.6194   -3.0551    0.0000 O   0  0  0  0  0  0  0  0  0  0  0  0
    3.0671   -1.4610    0.0000 C   0  0  0  0  0  0  0  0  0  0  0  0
    2.3748   -2.7917    0.0000 C   0  0  0  0  0  0  0  0  0  0  0  0
    0.8763   -2.8576    0.0000 C   0  0  0  0  0  0  0  0  0  0  0  0
    0.1840   -4.1883    0.0000 C   0  0  0  0  0  0  0  0  0  0  0  0
    0.9903   -5.4532    0.0000 C   0  0  0  0  0  0  0  0  0  0  0  0
    0.2981   -6.7839    0.0000 O   0  0  0  0  0  0  0  0  0  0  0  0
    2.4889   -5.3873    0.0000 C   0  0  0  0  0  0  0  0  0  0  0  0
    3.2952   -6.6522    0.0000 O   0  0  0  0  0  0  0  0  0  0  0  0
    3.1811   -4.0566    0.0000 C   0  0  0  0  0  0  0  0  0  0  0  0
    4.5656   -1.3952    0.0000 O   0  0  0  0  0  0  0  0  0  0  0  0
    5.2579   -0.0645    0.0000 C   0  0  0  0  0  0  0  0  0  0  0  0
    6.7565    0.0014    0.0000 C   0  0  0  0  0  0  0  0  0  0  0  0
    7.4487    1.3321    0.0000 C   0  0  0  0  0  0  0  0  0  0  0  0
    8.9473    1.3979    0.0000 O   0  0  0  0  0  0  0  0  0  0  0  0
    6.6424    2.5969    0.0000 C   0  0  0  0  0  0  0  0  0  0  0  0
    5.1438    2.5311    0.0000 C   0  0  0  0  0  0  0  0  0  0  0  0
    4.3375    3.7960    0.0000 O   0  0  0  0  0  0  0  0  0  0  0  0
    4.4516    1.2004    0.0000 C   0  0  0  0  0  0  0  0  0  0  0  0
  1  2  2  0
  2  3  1  0
  3  4  1  0
  5  4  1  6
  5  6  1  0
  6  7  1  0
  7  8  1  1
  8  9  1  0
  7 10  1  0
 10 11  1  6
 10 12  1  0
 12 13  1  1
 12 14  1  0
 14 15  1  6
 16 15  1  1
 16 17  1  0
 17 18  1  0
 18 19  1  1
 19 20  1  0
 18 21  1  0
 21 22  1  6
 21 23  1  0
 23 24  1  1
 23 25  1  0
 25 26  1  6
  3 27  2  0
 27 28  1  0
 28 29  2  0
 29 30  1  0
 30 31  2  0
 31 32  1  0
 31 33  1  0
 33 34  1  0
 33 35  2  0
 27 36  1  0
 36 37  1  0
 37 38  2  0
 38 39  1  0
 39 40  1  0
 39 41  2  0
 41 42  1  0
 42 43  1  0
 42 44  2  0
 44  2  1  0
 14  5  1  0
 25 16  1  0
 35 28  1  0
 44 37  1  0
M  END
>  <identifier>  (23) 
CNP0235373.2

>  <canonical_smiles>  (23) 
O=C1C(O[C@H]2O[C@H](CO)[C@@H](O)[C@H](O)[C@H]2O[C@@H]2O[C@H](CO)[C@@H](O)[C@H](O)[C@H]2O)=C(C2=CC=C(O)C(O)=C2)OC2=CC(O)=CC(O)=C12

>  <standard_inchi>  (23) 
InChI=1S/C27H30O17/c28-6-14-17(34)20(37)22(39)26(41-14)44-25-21(38)18(35)15(7-29)42-27(25)43-24-19(36)16-12(33)4-9(30)5-13(16)40-23(24)8-1-2-10(31)11(32)3-8/h1-5,14-15,17-18,20-22,25-35,37-39H,6-7H2/t14-,15-,17-,18-,20+,21+,22-,25-,26+,27-/m1/s1

>  <standard_inchi_key>  (23) 
RDUAJIJVNHKTQC-FFFMXZAGSA-N

>  <name>  (23) 
nan

>  <iupac_name>  (23) 
3-[(2~{R},3~{R},4~{S},5~{S},6~{R})-4,5-dihydroxy-6-(hydroxymethyl)-3-[(2~{S},3~{R},4~{S},5~{S},6~{R})-3,4,5-trihydroxy-6-(hydroxymethyl)tetrahydropyran-2-yl]oxy-tetrahydropyran-2-yl]oxy-2-(3,4-dihydroxyphenyl)-5,7-dihydroxy-chromen-4-one

>  <annotation_level>  (23) 
5

>  <total_atom_count>  (23) 
74

>  <heavy_atom_count>  (23) 
44

>  <molecular_weight>  (23) 
626.52

>  <exact_molecular_weight>  (23) 
626.1483

>  <molecular_formula>  (23) 
C27H30O17

>  <alogp>  (23) 
-2.71

>  <topological_polar_surface_area>  (23) 
289.66

>  <rotatable_bond_count>  (23) 
7

>  <hydrogen_bond_acceptors>  (23) 
17

>  <hydrogen_bond_donors>  (23) 
11

>  <hydrogen_bond_acceptors_lipinski>  (23) 
17

>  <hydrogen_bond_donors_lipinski>  (23) 
11

>  <lipinski_rule_of_five_violations>  (23) 
3

>  <aromatic_rings_count>  (23) 
3

>  <qed_drug_likeliness>  (23) 
0.12

>  <formal_charge>  (23) 
0

>  <fractioncsp3>  (23) 
0.44

>  <number_of_minimal_rings>  (23) 
5

>  <van_der_walls_volume>  (23) 
502.49

>  <contains_sugar>  (23) 
True

>  <contains_ring_sugars>  (23) 
True

>  <contains_linear_sugars>  (23) 
False

>  <murcko_framework>  (23) 
O1c2ccccc2CC(OC3OCCCC3OC4OCCCC4)=C1c5ccccc5

>  <np_likeness>  (23) 
1.93

>  <chemical_class>  (23) 
Flavonoids

>  <chemical_sub_class>  (23) 
Flavonoid glycosides

>  <chemical_super_class>  (23) 
Phenylpropanoids and polyketides

>  <direct_parent_classification>  (23) 
Flavonoid-3-O-glycosides

>  <np_classifier_pathway>  (23) 
Shikimates and Phenylpropanoids

>  <np_classifier_superclass>  (23) 
Flavonoids

>  <np_classifier_class>  (23) 
Flavonols

>  <np_classifier_is_glycoside>  (23) 
True

>  <organisms>  (23) 
Amaranthus hypochondriacus|Amphilophis odorata|Berberis repens|Cistus ladanifer|Croton laccifer|Dendrilla cavernosa|Diphasiastrum thyoides|Euphorbia myrsinites|Fomes robiniae|Gymnothorax javanicus|Helicteres angustifolia|Hippeastrum papilio|Hygrophorus chrysodon|Ips confusus|Limnocharis flava|Millettia ferruginea|Polyporus dryadeus|Ptarmica ptarmicifolia|Pterogyne nitens|Sedum litoreum|Senecio viscosus|Teucrium asiaticum|Thermopsis dolichocarpa|Vicia amurensis|Warburgia stuhlmannii|Wyethia mollis|Zanthoxylum fraxineum

>  <collections>  (23) 
CMAUP (cCollective molecular activities of useful plants)|ChemSpider NPs|Latin America dataset|NPASS|NuBBEDB|Super Natural II|WikiData Natural Products|ZINC NP

>  <dois>  (23) 
10.1016/0031-9422(92)80355-I|10.1016/S0031-9422(03)00105-5|10.1590/S0100-40422008000400018

>  <synonyms>  (23) 
Quercetin 3-O-sophoroside

>  <cas>  (23) 
nan

$$$$

     RDKit          2D

 23 24  0  0  0  0  0  0  0  0999 V2000
    4.7731   -3.3640    0.0000 C   0  0  0  0  0  0  0  0  0  0  0  0
    4.9517   -1.8747    0.0000 O   0  0  0  0  0  0  0  0  0  0  0  0
    3.7512   -0.9753    0.0000 C   0  0  0  0  0  0  0  0  0  0  0  0
    2.3721   -1.5653    0.0000 C   0  0  0  0  0  0  0  0  0  0  0  0
    1.1716   -0.6660    0.0000 C   0  0  0  0  0  0  0  0  0  0  0  0
   -0.2075   -1.2560    0.0000 C   0  0  0  0  0  0  0  0  0  0  0  0
   -1.4080   -0.3566    0.0000 C   0  0  0  0  0  0  0  0  0  0  0  0
   -2.7871   -0.9466    0.0000 C   0  0  0  0  0  0  0  0  0  0  0  0
   -2.9657   -2.4360    0.0000 O   0  0  0  0  0  0  0  0  0  0  0  0
   -3.9876   -0.0473    0.0000 N   0  0  0  0  0  0  0  0  0  0  0  0
   -3.8090    1.4420    0.0000 C   0  0  0  0  0  0  0  0  0  0  0  0
   -5.0095    2.3414    0.0000 C   0  0  0  0  0  0  0  0  0  0  0  0
   -6.3886    1.7514    0.0000 C   0  0  0  0  0  0  0  0  0  0  0  0
   -6.5672    0.2621    0.0000 C   0  0  0  0  0  0  0  0  0  0  0  0
   -5.3667   -0.6373    0.0000 C   0  0  0  0  0  0  0  0  0  0  0  0
   -5.5453   -2.1266    0.0000 O   0  0  0  0  0  0  0  0  0  0  0  0
    1.3502    0.8234    0.0000 C   0  0  0  0  0  0  0  0  0  0  0  0
    2.7293    1.4133    0.0000 C   0  0  0  0  0  0  0  0  0  0  0  0
    2.9079    2.9027    0.0000 O   0  0  0  0  0  0  0  0  0  0  0  0
    4.2870    3.4927    0.0000 C   0  0  0  0  0  0  0  0  0  0  0  0
    3.9298    0.5140    0.0000 C   0  0  0  0  0  0  0  0  0  0  0  0
    5.3089    1.1040    0.0000 O   0  0  0  0  0  0  0  0  0  0  0  0
    6.5094    0.2047    0.0000 C   0  0  0  0  0  0  0  0  0  0  0  0
  1  2  1  0
  2  3  1  0
  3  4  2  0
  4  5  1  0
  5  6  1  0
  6  7  1  0
  7  8  1  0
  8  9  2  0
  8 10  1  0
 10 11  1  0
 11 12  1  0
 12 13  1  0
 13 14  1  0
 14 15  1  0
 15 16  2  0
  5 17  2  0
 17 18  1  0
 18 19  1  0
 19 20  1  0
 18 21  2  0
 21 22  1  0
 22 23  1  0
 21  3  1  0
 15 10  1  0
M  END
>  <identifier>  (24) 
CNP0386980.0

>  <canonical_smiles>  (24) 
COC1=CC(CCC(=O)N2CCCCC2=O)=CC(OC)=C1OC

>  <standard_inchi>  (24) 
InChI=1S/C17H23NO5/c1-21-13-10-12(11-14(22-2)17(13)23-3)7-8-16(20)18-9-5-4-6-15(18)19/h10-11H,4-9H2,1-3H3

>  <standard_inchi_key>  (24) 
OTBKATNIYSZVJP-UHFFFAOYSA-N

>  <name>  (24) 
2466-36-6

>  <iupac_name>  (24) 
1-[3-(3,4,5-trimethoxyphenyl)propanoyl]piperidin-2-one

>  <annotation_level>  (24) 
5

>  <total_atom_count>  (24) 
46

>  <heavy_atom_count>  (24) 
23

>  <molecular_weight>  (24) 
321.37

>  <exact_molecular_weight>  (24) 
321.15762

>  <molecular_formula>  (24) 
C17H23NO5

>  <alogp>  (24) 
2.18

>  <topological_polar_surface_area>  (24) 
65.07

>  <rotatable_bond_count>  (24) 
6

>  <hydrogen_bond_acceptors>  (24) 
5

>  <hydrogen_bond_donors>  (24) 
0

>  <hydrogen_bond_acceptors_lipinski>  (24) 
5

>  <hydrogen_bond_donors_lipinski>  (24) 
0

>  <lipinski_rule_of_five_violations>  (24) 
0

>  <aromatic_rings_count>  (24) 
1

>  <qed_drug_likeliness>  (24) 
0.80

>  <formal_charge>  (24) 
0

>  <fractioncsp3>  (24) 
0.53

>  <number_of_minimal_rings>  (24) 
2

>  <van_der_walls_volume>  (24) 
300.92

>  <contains_sugar>  (24) 
False

>  <contains_ring_sugars>  (24) 
False

>  <contains_linear_sugars>  (24) 
False

>  <murcko_framework>  (24) 
c1ccc(cc1)CCCN2CCCCC2

>  <np_likeness>  (24) 
-0.25

>  <chemical_class>  (24) 
Piperidines

>  <chemical_sub_class>  (24) 
N-acylpiperidines

>  <chemical_super_class>  (24) 
Organoheterocyclic compounds

>  <direct_parent_classification>  (24) 
N-acylpiperidines

>  <np_classifier_pathway>  (24) 
Alkaloids

>  <np_classifier_superclass>  (24) 
Lysine alkaloids

>  <np_classifier_class>  (24) 
nan

>  <np_classifier_is_glycoside>  (24) 
False

>  <organisms>  (24) 
Piper swartzianum|Piper tuberculatum

>  <collections>  (24) 
ChemSpider NPs|Latin America dataset|NuBBEDB|Super Natural II|WikiData Natural Products|ZINC NP

>  <dois>  (24) 
10.1007/S00044-008-9161-9|10.1007/s00044-008-9161-9

>  <synonyms>  (24) 
1-[3-(3,4,5-Trimethoxyphenyl)propanoyl]piperidin-2-one|CHEMBL2260446|DTXSID90702465|N-(3-(3,4,5-TRIMETHOXYPHENYL)PROPIONYL)PIPERIDIN-2-ONE|Q63398461|SCHEMBL15422054|TETRAHYDROPIPLARTINE|Tetrahydropiplartine

>  <cas>  (24) 
nan

$$$$

     RDKit          2D

 27 28  0  0  0  0  0  0  0  0999 V2000
   -0.0662   -4.7861    0.0000 C   0  0  0  0  0  0  0  0  0  0  0  0
    0.4927   -3.3942    0.0000 C   0  0  0  0  0  0  0  0  0  0  0  0
    1.9776   -3.1822    0.0000 C   0  0  0  0  0  0  0  0  0  0  0  0
    2.5365   -1.7902    0.0000 C   0  0  0  0  0  0  0  0  0  0  0  0
    1.6105   -0.6102    0.0000 C   0  0  0  0  0  0  0  0  0  0  0  0
    2.1694    0.7818    0.0000 C   0  0  0  0  0  0  0  0  0  0  0  0
    2.2185    2.2810    0.0000 O   0  0  0  0  0  0  0  0  0  0  0  0
    3.5414    2.9881    0.0000 C   0  0  0  0  0  0  0  0  0  0  0  0
    0.7015    1.0905    0.0000 C   0  0  0  0  0  0  0  0  0  0  0  0
    0.2349    2.5161    0.0000 C   0  0  0  0  0  0  0  0  0  0  0  0
   -0.2998   -0.0264    0.0000 C   0  0  0  0  0  0  0  0  0  0  0  0
   -1.7677    0.2823    0.0000 C   0  0  0  0  0  0  0  0  0  0  0  0
   -2.2343    1.7079    0.0000 C   0  0  0  0  0  0  0  0  0  0  0  0
   -3.7022    2.0166    0.0000 C   0  0  0  0  0  0  0  0  0  0  0  0
   -4.7035    0.8997    0.0000 C   0  0  0  0  0  0  0  0  0  0  0  0
   -6.1713    1.2084    0.0000 O   0  0  0  0  0  0  0  0  0  0  0  0
   -6.6380    2.6340    0.0000 C   0  0  0  0  0  0  0  0  0  0  0  0
   -4.2368   -0.5259    0.0000 C   0  0  0  0  0  0  0  0  0  0  0  0
   -5.2381   -1.6428    0.0000 O   0  0  0  0  0  0  0  0  0  0  0  0
   -4.7715   -3.0683    0.0000 C   0  0  0  0  0  0  0  0  0  0  0  0
   -2.7690   -0.8346    0.0000 C   0  0  0  0  0  0  0  0  0  0  0  0
    3.6543    0.9938    0.0000 C   0  0  0  0  0  0  0  0  0  0  0  0
    4.2133    2.3858    0.0000 O   0  0  0  0  0  0  0  0  0  0  0  0
    5.6982    2.5977    0.0000 C   0  0  0  0  0  0  0  0  0  0  0  0
    4.5804   -0.1862    0.0000 C   0  0  0  0  0  0  0  0  0  0  0  0
    4.0215   -1.5782    0.0000 C   0  0  0  0  0  0  0  0  0  0  0  0
    4.9475   -2.7583    0.0000 O   0  0  0  0  0  0  0  0  0  0  0  0
  1  2  2  0
  2  3  1  0
  3  4  1  0
  4  5  2  0
  5  6  1  0
  6  7  1  1
  7  8  1  0
  6  9  1  0
  9 10  1  1
  9 11  1  0
 11 12  1  0
 12 13  2  0
 13 14  1  0
 14 15  2  0
 15 16  1  0
 16 17  1  0
 15 18  1  0
 18 19  1  0
 19 20  1  0
 18 21  2  0
  6 22  1  0
 22 23  1  0
 23 24  1  0
 22 25  2  0
 25 26  1  0
 26 27  2  0
 26  4  1  0
 21 12  1  0
M  END
>  <identifier>  (25) 
CNP0204170.2

>  <canonical_smiles>  (25) 
C=CCC1=C[C@](OC)([C@H](C)CC2=CC=C(OC)C(OC)=C2)C(OC)=CC1=O

>  <standard_inchi>  (25) 
InChI=1S/C22H28O5/c1-7-8-17-14-22(27-6,21(26-5)13-18(17)23)15(2)11-16-9-10-19(24-3)20(12-16)25-4/h7,9-10,12-15H,1,8,11H2,2-6H3/t15-,22+/m1/s1

>  <standard_inchi_key>  (25) 
MVOMQPWLJRZYDT-QRQCRPRQSA-N

>  <name>  (25) 
nan

>  <iupac_name>  (25) 
(4~{R})-2-allyl-4-[(1~{R})-2-(3,4-dimethoxyphenyl)-1-methyl-ethyl]-4,5-dimethoxy-cyclohexa-2,5-dien-1-one

>  <annotation_level>  (25) 
4

>  <total_atom_count>  (25) 
55

>  <heavy_atom_count>  (25) 
27

>  <molecular_weight>  (25) 
372.46

>  <exact_molecular_weight>  (25) 
372.19367

>  <molecular_formula>  (25) 
C22H28O5

>  <alogp>  (25) 
3.88

>  <topological_polar_surface_area>  (25) 
53.99

>  <rotatable_bond_count>  (25) 
9

>  <hydrogen_bond_acceptors>  (25) 
5

>  <hydrogen_bond_donors>  (25) 
0

>  <hydrogen_bond_acceptors_lipinski>  (25) 
5

>  <hydrogen_bond_donors_lipinski>  (25) 
0

>  <lipinski_rule_of_five_violations>  (25) 
0

>  <aromatic_rings_count>  (25) 
1

>  <qed_drug_likeliness>  (25) 
0.62

>  <formal_charge>  (25) 
0

>  <fractioncsp3>  (25) 
0.41

>  <number_of_minimal_rings>  (25) 
2

>  <van_der_walls_volume>  (25) 
nan

>  <contains_sugar>  (25) 
False

>  <contains_ring_sugars>  (25) 
False

>  <contains_linear_sugars>  (25) 
False

>  <murcko_framework>  (25) 
c1ccc(cc1)CCC2C=CCC=C2

>  <np_likeness>  (25) 
1.72

>  <chemical_class>  (25) 
Prenol lipids

>  <chemical_sub_class>  (25) 
Monoterpenoids

>  <chemical_super_class>  (25) 
Lipids and lipid-like molecules

>  <direct_parent_classification>  (25) 
Aromatic monoterpenoids

>  <np_classifier_pathway>  (25) 
Shikimates and Phenylpropanoids

>  <np_classifier_superclass>  (25) 
Lignans

>  <np_classifier_class>  (25) 
Neolignans

>  <np_classifier_is_glycoside>  (25) 
False

>  <organisms>  (25) 
Aniba lancifolia|Clitocybe inversa|Delphinus delphis|Hypericum calycinum|Kalanchoe petitiana|Piper argyrophyllum|Piper hymenophyllum|Piper schmidtii|Piper wightii|Tripora divaricata

>  <collections>  (25) 
Latin America dataset|NPASS|NuBBEDB|Super Natural II|WikiData Natural Products|ZINC NP

>  <dois>  (25) 
10.1016/S0031-9422(00)81975-5|10.1016/S0031-9422(96)00502-X|10.1016/S0040-4020(01)85081-X|10.3891/ACTA.CHEM.SCAND.49-0142

>  <synonyms>  (25) 
Lancifolin D

>  <cas>  (25) 
nan

$$$$

     RDKit          2D

 30 33  0  0  0  0  0  0  0  0999 V2000
    7.5610   -1.0056    0.0000 C   0  0  0  0  0  0  0  0  0  0  0  0
    6.0924   -1.3111    0.0000 C   0  0  0  0  0  0  0  0  0  0  0  0
    5.0936   -0.1921    0.0000 C   0  0  0  0  0  0  0  0  0  0  0  0
    5.4118    1.2738    0.0000 C   0  0  0  0  0  0  0  0  0  0  0  0
    6.7847    1.8779    0.0000 O   0  0  0  0  0  0  0  0  0  0  0  0
    4.1160    2.0294    0.0000 C   0  0  0  0  0  0  0  0  0  0  0  0
    2.9970    1.0305    0.0000 C   0  0  0  0  0  0  0  0  0  0  0  0
    1.5059    1.1938    0.0000 C   0  0  0  0  0  0  0  0  0  0  0  0
    0.9017    2.5667    0.0000 C   0  0  0  0  0  0  0  0  0  0  0  0
   -0.5894    2.7300    0.0000 C   0  0  0  0  0  0  0  0  0  0  0  0
   -1.4763    1.5203    0.0000 C   0  0  0  0  0  0  0  0  0  0  0  0
   -2.9674    1.6835    0.0000 C   0  0  0  0  0  0  0  0  0  0  0  0
   -3.8543    0.4738    0.0000 C   0  0  0  0  0  0  0  0  0  0  0  0
   -5.3454    0.6371    0.0000 O   0  0  0  0  0  0  0  0  0  0  0  0
   -5.9496    2.0100    0.0000 C   0  0  0  0  0  0  0  0  0  0  0  0
   -7.4407    2.1733    0.0000 C   0  0  0  0  0  0  0  0  0  0  0  0
   -5.0627    3.2197    0.0000 O   0  0  0  0  0  0  0  0  0  0  0  0
   -3.2502   -0.8991    0.0000 C   0  0  0  0  0  0  0  0  0  0  0  0
   -4.1371   -2.1088    0.0000 O   0  0  0  0  0  0  0  0  0  0  0  0
   -3.5329   -3.4818    0.0000 C   0  0  0  0  0  0  0  0  0  0  0  0
   -4.4198   -4.6915    0.0000 C   0  0  0  0  0  0  0  0  0  0  0  0
   -2.0418   -3.6450    0.0000 O   0  0  0  0  0  0  0  0  0  0  0  0
   -1.7591   -1.0624    0.0000 C   0  0  0  0  0  0  0  0  0  0  0  0
   -0.8722    0.1473    0.0000 C   0  0  0  0  0  0  0  0  0  0  0  0
   -0.2680   -1.2256    0.0000 C   0  0  0  0  0  0  0  0  0  0  0  0
    0.6189   -0.0159    0.0000 C   0  0  0  0  0  0  0  0  0  0  0  0
    1.2231   -1.3889    0.0000 C   0  0  0  0  0  0  0  0  0  0  0  0
    2.7142   -1.5521    0.0000 C   0  0  0  0  0  0  0  0  0  0  0  0
    3.6011   -0.3424    0.0000 C   0  0  0  0  0  0  0  0  0  0  0  0
    4.3455   -1.6447    0.0000 C   0  0  0  0  0  0  0  0  0  0  0  0
  1  2  1  0
  3  2  1  6
  3  4  1  0
  4  5  2  0
  4  6  1  0
  7  6  1  6
  7  8  1  0
  8  9  1  1
  9 10  1  0
 11 10  1  6
 11 12  1  0
 12 13  1  0
 13 14  1  6
 14 15  1  0
 15 16  1  0
 15 17  2  0
 13 18  1  0
 18 19  1  6
 19 20  1  0
 20 21  1  0
 20 22  2  0
 18 23  1  0
 23 24  1  0
 24 25  1  6
 24 26  1  0
 26 27  1  6
 27 28  1  0
 28 29  1  0
 29 30  1  6
 29  3  1  0
 29  7  1  0
 26  8  1  0
 24 11  1  0
M  END
>  <identifier>  (26) 
CNP0080785.2

>  <canonical_smiles>  (26) 
CC[C@H]1C(=O)C[C@H]2[C@@H]3CC[C@H]4C[C@@H](OC(C)=O)[C@@H](OC(C)=O)C[C@]4(C)[C@H]3CC[C@]12C

>  <standard_inchi>  (26) 
InChI=1S/C25H38O5/c1-6-18-21(28)12-20-17-8-7-16-11-22(29-14(2)26)23(30-15(3)27)13-25(16,5)19(17)9-10-24(18,20)4/h16-20,22-23H,6-13H2,1-5H3/t16-,17+,18-,19-,20-,22+,23-,24+,25-/m0/s1

>  <standard_inchi_key>  (26) 
MLTYJMYPDLQLJF-DRWUKLGOSA-N

>  <name>  (26) 
nan

>  <iupac_name>  (26) 
[(2~{S},3~{R},5~{S},8~{R},9~{S},10~{S},13~{S},14~{S},17~{R})-2-acetoxy-17-ethyl-10,13-dimethyl-16-oxo-1,2,3,4,5,6,7,8,9,11,12,14,15,17-tetradecahydrocyclopenta[a]phenanthren-3-yl] acetate

>  <annotation_level>  (26) 
4

>  <total_atom_count>  (26) 
68

>  <heavy_atom_count>  (26) 
30

>  <molecular_weight>  (26) 
418.57

>  <exact_molecular_weight>  (26) 
418.27192

>  <molecular_formula>  (26) 
C25H38O5

>  <alogp>  (26) 
4.71

>  <topological_polar_surface_area>  (26) 
69.67

>  <rotatable_bond_count>  (26) 
3

>  <hydrogen_bond_acceptors>  (26) 
5

>  <hydrogen_bond_donors>  (26) 
0

>  <hydrogen_bond_acceptors_lipinski>  (26) 
5

>  <hydrogen_bond_donors_lipinski>  (26) 
0

>  <lipinski_rule_of_five_violations>  (26) 
0

>  <aromatic_rings_count>  (26) 
0

>  <qed_drug_likeliness>  (26) 
0.62

>  <formal_charge>  (26) 
0

>  <fractioncsp3>  (26) 
0.88

>  <number_of_minimal_rings>  (26) 
4

>  <van_der_walls_volume>  (26) 
nan

>  <contains_sugar>  (26) 
False

>  <contains_ring_sugars>  (26) 
False

>  <contains_linear_sugars>  (26) 
False

>  <murcko_framework>  (26) 
C1CCC2C(C1)CCC3C4CCCC4CCC23

>  <np_likeness>  (26) 
2.35

>  <chemical_class>  (26) 
Steroids and steroid derivatives

>  <chemical_sub_class>  (26) 
Steroid esters

>  <chemical_super_class>  (26) 
Lipids and lipid-like molecules

>  <direct_parent_classification>  (26) 
Steroid esters

>  <np_classifier_pathway>  (26) 
Terpenoids

>  <np_classifier_superclass>  (26) 
Steroids

>  <np_classifier_class>  (26) 
Pregnane steroids

>  <np_classifier_is_glycoside>  (26) 
False

>  <organisms>  (26) 
Trichilia claussenii

>  <collections>  (26) 
Latin America dataset|NuBBEDB|WikiData Natural Products

>  <dois>  (26) 
10.1016/S0031-9422(97)00167-2

>  <synonyms>  (26) 
2\u221a\u00e9\u00ac\u22643\u221a\u00e9\u00ac\u2264-Diacetoxypregnan-16-one

>  <cas>  (26) 
nan

$$$$

     RDKit          2D

 21 23  0  0  0  0  0  0  0  0999 V2000
   -5.5965   -2.5296    0.0000 C   0  0  0  0  0  0  0  0  0  0  0  0
   -4.1193   -2.7904    0.0000 O   0  0  0  0  0  0  0  0  0  0  0  0
   -3.1549   -1.6415    0.0000 C   0  0  0  0  0  0  0  0  0  0  0  0
   -3.6676   -0.2319    0.0000 C   0  0  0  0  0  0  0  0  0  0  0  0
   -2.7032    0.9170    0.0000 C   0  0  0  0  0  0  0  0  0  0  0  0
   -3.2159    2.3266    0.0000 O   0  0  0  0  0  0  0  0  0  0  0  0
   -4.6930    2.5875    0.0000 C   0  0  0  0  0  0  0  0  0  0  0  0
   -1.2260    0.6562    0.0000 C   0  0  0  0  0  0  0  0  0  0  0  0
   -0.2616    1.8050    0.0000 C   0  0  0  0  0  0  0  0  0  0  0  0
   -0.7743    3.2147    0.0000 O   0  0  0  0  0  0  0  0  0  0  0  0
    1.2156    1.5442    0.0000 C   0  0  0  0  0  0  0  0  0  0  0  0
    1.7283    0.1346    0.0000 C   0  0  0  0  0  0  0  0  0  0  0  0
    3.2054   -0.1263    0.0000 C   0  0  0  0  0  0  0  0  0  0  0  0
    3.7182   -1.5359    0.0000 C   0  0  0  0  0  0  0  0  0  0  0  0
    5.1953   -1.7967    0.0000 C   0  0  0  0  0  0  0  0  0  0  0  0
    6.1597   -0.6479    0.0000 C   0  0  0  0  0  0  0  0  0  0  0  0
    5.6470    0.7618    0.0000 C   0  0  0  0  0  0  0  0  0  0  0  0
    4.1699    1.0226    0.0000 C   0  0  0  0  0  0  0  0  0  0  0  0
    0.7638   -1.0143    0.0000 O   0  0  0  0  0  0  0  0  0  0  0  0
   -0.7133   -0.7535    0.0000 C   0  0  0  0  0  0  0  0  0  0  0  0
   -1.6777   -1.9023    0.0000 C   0  0  0  0  0  0  0  0  0  0  0  0
  1  2  1  0
  2  3  1  0
  3  4  2  0
  4  5  1  0
  5  6  1  0
  6  7  1  0
  5  8  2  0
  8  9  1  0
  9 10  2  0
  9 11  1  0
 11 12  1  0
 12 13  1  1
 13 14  2  0
 14 15  1  0
 15 16  2  0
 16 17  1  0
 17 18  2  0
 12 19  1  0
 19 20  1  0
 20 21  2  0
 21  3  1  0
 20  8  1  0
 18 13  1  0
M  END
>  <identifier>  (27) 
CNP0288119.1

>  <canonical_smiles>  (27) 
COC1=CC(OC)=C2C(=O)C[C@@H](C3=CC=CC=C3)OC2=C1

>  <standard_inchi>  (27) 
InChI=1S/C17H16O4/c1-19-12-8-15(20-2)17-13(18)10-14(21-16(17)9-12)11-6-4-3-5-7-11/h3-9,14H,10H2,1-2H3/t14-/m0/s1

>  <standard_inchi_key>  (27) 
IAFBOKYTDSDNHV-AWEZNQCLSA-N

>  <name>  (27) 
(2S)-5,7-dimethoxy-2-phenyl-3,4-dihydro-2H-1-benzopyran-4-one

>  <iupac_name>  (27) 
(2~{S})-5,7-dimethoxy-2-phenyl-chroman-4-one

>  <annotation_level>  (27) 
5

>  <total_atom_count>  (27) 
37

>  <heavy_atom_count>  (27) 
21

>  <molecular_weight>  (27) 
284.31

>  <exact_molecular_weight>  (27) 
284.10486

>  <molecular_formula>  (27) 
C17H16O4

>  <alogp>  (27) 
3.41

>  <topological_polar_surface_area>  (27) 
44.76

>  <rotatable_bond_count>  (27) 
3

>  <hydrogen_bond_acceptors>  (27) 
4

>  <hydrogen_bond_donors>  (27) 
0

>  <hydrogen_bond_acceptors_lipinski>  (27) 
4

>  <hydrogen_bond_donors_lipinski>  (27) 
0

>  <lipinski_rule_of_five_violations>  (27) 
0

>  <aromatic_rings_count>  (27) 
2

>  <qed_drug_likeliness>  (27) 
0.87

>  <formal_charge>  (27) 
0

>  <fractioncsp3>  (27) 
0.24

>  <number_of_minimal_rings>  (27) 
3

>  <van_der_walls_volume>  (27) 
254.59

>  <contains_sugar>  (27) 
False

>  <contains_ring_sugars>  (27) 
False

>  <contains_linear_sugars>  (27) 
False

>  <murcko_framework>  (27) 
O1c2ccccc2CCC1c3ccccc3

>  <np_likeness>  (27) 
1.07

>  <chemical_class>  (27) 
Flavonoids

>  <chemical_sub_class>  (27) 
O-methylated flavonoids

>  <chemical_super_class>  (27) 
Phenylpropanoids and polyketides

>  <direct_parent_classification>  (27) 
5-O-methylated flavonoids

>  <np_classifier_pathway>  (27) 
Shikimates and Phenylpropanoids

>  <np_classifier_superclass>  (27) 
Flavonoids

>  <np_classifier_class>  (27) 
Flavanones

>  <np_classifier_is_glycoside>  (27) 
False

>  <organisms>  (27) 
Aconitum variegatum|Aeschynanthus parvifolius|Agelas longissima|Alpinia pulcherrima|Amorphophallus konjac|Aniba riparia|Aniba santalodora|Astragalus circassicus|Beilschmiedia madang|Bethencourtia palmensis|Betula papyrifera|Bignonia unguiscati|Boesenbergia pandurata|Boesenbergia rotunda|Boronia alata|Boswellia ovalifoliolata|Bufo bankorensis|Campanula choziatowskyi|Cedrelopsis grevei|Centaurea scoparia|Centaurea sonchifolia|Cheilanthes fragrans|Chromodoris cavae|Cinnamomum philippinense|Cladosiphon okamuranus|Colchicum filifolium|Coronilla hyrcana|Cyathus intermedius|Cynoglossum macrostylum|Cyperus capitatus|Delphinium tricorne|Dialium excelsum|Drymaria cordata|Dysidea fragilis|Echinocardium cordatum|Ephedra altissima|Eria siamensis|Erica cinerea|Erythrina hypaphorus|Esox lucius|Etmopterus spinax|Eucalyptus fraxinoides|Eucalyptus regnans|Eucalyptus sieberi|Euphorbia hylonoma|Fadogia agrestis|Haemanthus albiflos|Hardenbergia violacea|Heliotropium scabrum|Helleborus macranthus|Helleborus viridis|Hordeum bulbosum|Iris kashmiriana|Iris sibirica|Isolona pilosa|Jatropha gossypiifolia|Kaempferia parviflora|Keyserlingia koreensis|Lactarius mitissimus|Lactarius torminosus|Lecanora sulphurata|Lemonia spectabilis|Lepechinia urbanii|Leptospermum scoparium|Litsea nitida|Lobelia langeana|Lonchocarpus chiricanus|Maclura cochinchinensis|Macropiper latifolium|Macropiper methysticum|Magnolia henryi|Matricaria sabulosa|Matsucoccus josephi|Maytenus emarginata|Mentzelia decapetala|Micromelum falcatum|Mimosa pigra|Mocis latipes|Mucuna holtonii|Mycale tenuis|Mycosphaerella nawae|Nepytia freemani|Orgyia pseudotsugata|Ostrya carpinifolia|Parmotrema nilgherrense|Peltophorum dubium|Penicilliopsis clavariiformis|Petunia axillaris subsp. parodii|Phoma asparagi|Piper latifolium|Piper longum|Piper majusculum|Piper methysticum|Piper peltatum|Podocarpus dacrydioides|Preussia terricola|Prunus pseudocerasus|Pterocaulon serrulatum|Pulsatilla chinensis|Pycnothymus rigidus|Quercus marilandica|Rhizophagus intraradices|Rubia akane|Salix rosmarinifolia|Salvia lavanduloides|Salvia miniata|Salvia patens|Salvia virgata|Senecio platyphylloides|Sibiraea angustata|Sphaeria rousseliana|Stephania dielsiana|Streptomyces sakaiensis|Tamarix dioica|Thalassiosira weissflogii|Thelepus setosus|Tripterygium wilfordii|Valeriana officinalis|Vernonia aurea|Xanthium canadense

>  <collections>  (27) 
Australian natural products|CMAUP (cCollective molecular activities of useful plants)|ConMedNP|KNApSaCK|Latin America dataset|NPASS|NuBBEDB|Super Natural II|WikiData Natural Products|ZINC NP

>  <dois>  (27) 
10.1016/0031-9422(83)83075-1|10.1016/0305-1978(78)90024-8|10.1016/J.PHYTOCHEM.2008.09.001|10.1016/S0031-9422(00)90601-0|10.1016/S0031-9422(02)00675-1|10.1016/S0031-9422(03)00325-X|10.1016/j.indcrop.2019.01.050|10.1016/j.phytochem.2019.01.005|10.1021/JF010963X|10.1071/CH9720449

>  <synonyms>  (27) 
(2S)-57-di-O-methylpinocembrin, 57-dimethoxyflavanone|(S)-5,7-Dimethoxy-2-phenylchroman-4-one|5,7-Dimethoxyflavonone|CHEMBL1253912|Pinocembrin 5,7-dimethyl ether

>  <cas>  (27) 
nan

$$$$

     RDKit          2D

 22 24  0  0  0  0  0  0  0  0999 V2000
   -4.6190    2.2015    0.0000 C   0  0  0  0  0  0  0  0  0  0  0  0
   -4.6041    0.7016    0.0000 C   0  0  0  0  0  0  0  0  0  0  0  0
   -3.2977   -0.0355    0.0000 C   0  0  0  0  0  0  0  0  0  0  0  0
   -4.2505   -1.1941    0.0000 C   0  0  0  0  0  0  0  0  0  0  0  0
   -2.7987    1.3791    0.0000 C   0  0  0  0  0  0  0  0  0  0  0  0
   -1.3242    1.6542    0.0000 C   0  0  0  0  0  0  0  0  0  0  0  0
   -0.3486    0.5148    0.0000 C   0  0  0  0  0  0  0  0  0  0  0  0
    1.1259    0.7899    0.0000 C   0  0  0  0  0  0  0  0  0  0  0  0
    0.1504    1.9293    0.0000 C   0  0  0  0  0  0  0  0  0  0  0  0
    1.6250    2.2044    0.0000 C   0  0  0  0  0  0  0  0  0  0  0  0
    3.0995    2.4796    0.0000 C   0  0  0  0  0  0  0  0  0  0  0  0
    4.0750    1.3401    0.0000 C   0  0  0  0  0  0  0  0  0  0  0  0
    3.5760   -0.0745    0.0000 C   0  0  0  0  0  0  0  0  0  0  0  0
    3.5909   -1.5744    0.0000 C   0  0  0  0  0  0  0  0  0  0  0  0
    5.0558   -0.3203    0.0000 C   0  0  0  0  0  0  0  0  0  0  0  0
    2.1015   -0.3496    0.0000 C   0  0  0  0  0  0  0  0  0  0  0  0
    1.6025   -1.7641    0.0000 C   0  0  0  0  0  0  0  0  0  0  0  0
    0.1279   -2.0392    0.0000 C   0  0  0  0  0  0  0  0  0  0  0  0
   -0.3711   -3.4538    0.0000 O   0  0  0  0  0  0  0  0  0  0  0  0
   -0.8476   -0.8998    0.0000 C   0  0  0  0  0  0  0  0  0  0  0  0
   -1.3467   -2.3144    0.0000 O   0  0  0  0  0  0  0  0  0  0  0  0
   -2.3222   -1.1749    0.0000 C   0  0  0  0  0  0  0  0  0  0  0  0
  1  2  2  0
  2  3  1  0
  3  4  1  1
  3  5  1  0
  5  6  1  0
  6  7  1  0
  7  8  1  0
  8  9  1  1
  8 10  1  0
 10 11  1  0
 11 12  1  0
 12 13  1  0
 13 14  1  0
 13 15  1  0
 13 16  1  0
 16 17  1  0
 17 18  1  0
 18 19  2  0
 18 20  1  0
 20 21  1  1
 20 22  1  0
 22  3  1  0
 20  7  1  0
 16  8  1  0
M  END
>  <identifier>  (28) 
CNP0183737.2

>  <canonical_smiles>  (28) 
C=C[C@]1(C)CCC2[C@]3(C)CCCC(C)(C)C3CC(=O)[C@]2(O)C1

>  <standard_inchi>  (28) 
InChI=1S/C20H32O2/c1-6-18(4)11-8-14-19(5)10-7-9-17(2,3)15(19)12-16(21)20(14,22)13-18/h6,14-15,22H,1,7-13H2,2-5H3/t14?,15?,18-,19+,20+/m1/s1

>  <standard_inchi_key>  (28) 
LYKJEJVAXSGWAJ-TVCCVRHBSA-N

>  <name>  (28) 
nan

>  <iupac_name>  (28) 
(4~{a}~{R},7~{R},8~{a}~{S})-8~{a}-hydroxy-1,1,4~{a},7-tetramethyl-7-vinyl-3,4,4~{b},5,6,8,10,10~{a}-octahydro-2~{H}-phenanthren-9-one

>  <annotation_level>  (28) 
4

>  <total_atom_count>  (28) 
54

>  <heavy_atom_count>  (28) 
22

>  <molecular_weight>  (28) 
304.47

>  <exact_molecular_weight>  (28) 
304.24023

>  <molecular_formula>  (28) 
C20H32O2

>  <alogp>  (28) 
4.52

>  <topological_polar_surface_area>  (28) 
37.30

>  <rotatable_bond_count>  (28) 
1

>  <hydrogen_bond_acceptors>  (28) 
2

>  <hydrogen_bond_donors>  (28) 
1

>  <hydrogen_bond_acceptors_lipinski>  (28) 
2

>  <hydrogen_bond_donors_lipinski>  (28) 
1

>  <lipinski_rule_of_five_violations>  (28) 
0

>  <aromatic_rings_count>  (28) 
0

>  <qed_drug_likeliness>  (28) 
0.72

>  <formal_charge>  (28) 
0

>  <fractioncsp3>  (28) 
0.85

>  <number_of_minimal_rings>  (28) 
3

>  <van_der_walls_volume>  (28) 
nan

>  <contains_sugar>  (28) 
False

>  <contains_ring_sugars>  (28) 
False

>  <contains_linear_sugars>  (28) 
False

>  <murcko_framework>  (28) 
C1CCC2C(C1)CCC3CCCCC32

>  <np_likeness>  (28) 
2.87

>  <chemical_class>  (28) 
Prenol lipids

>  <chemical_sub_class>  (28) 
Diterpenoids

>  <chemical_super_class>  (28) 
Lipids and lipid-like molecules

>  <direct_parent_classification>  (28) 
Diterpenoids

>  <np_classifier_pathway>  (28) 
Terpenoids

>  <np_classifier_superclass>  (28) 
Diterpenoids

>  <np_classifier_class>  (28) 
Pimarane and Isopimarane diterpenoids

>  <np_classifier_is_glycoside>  (28) 
False

>  <organisms>  (28) 
Vellozia compacta

>  <collections>  (28) 
Latin America dataset|NuBBEDB|WikiData Natural Products

>  <dois>  (28) 
10.1016/S0031-9422(00)80444-6|10.1016/S0031-9422(00)82735-1

>  <synonyms>  (28) 
compactone

>  <cas>  (28) 
nan

$$$$

     RDKit          2D

 26 27  0  0  0  0  0  0  0  0999 V2000
   -4.4235   -4.3714    0.0000 C   0  0  0  0  0  0  0  0  0  0  0  0
   -4.8705   -2.9396    0.0000 O   0  0  0  0  0  0  0  0  0  0  0  0
   -3.8540   -1.8365    0.0000 C   0  0  0  0  0  0  0  0  0  0  0  0
   -2.3905   -2.1654    0.0000 O   0  0  0  0  0  0  0  0  0  0  0  0
   -4.3010   -0.4047    0.0000 C   0  0  0  0  0  0  0  0  0  0  0  0
   -5.6335   -1.0935    0.0000 O   0  0  0  0  0  0  0  0  0  0  0  0
   -5.2108    0.7879    0.0000 C   0  0  0  0  0  0  0  0  0  0  0  0
   -4.6328    2.1721    0.0000 C   0  0  0  0  0  0  0  0  0  0  0  0
   -5.5426    3.3647    0.0000 O   0  0  0  0  0  0  0  0  0  0  0  0
   -3.1451    2.3637    0.0000 C   0  0  0  0  0  0  0  0  0  0  0  0
   -2.5671    3.7479    0.0000 O   0  0  0  0  0  0  0  0  0  0  0  0
   -2.2353    1.1711    0.0000 C   0  0  0  0  0  0  0  0  0  0  0  0
   -0.7476    1.3626    0.0000 O   0  0  0  0  0  0  0  0  0  0  0  0
    0.1621    0.1700    0.0000 C   0  0  0  0  0  0  0  0  0  0  0  0
   -0.4158   -1.2142    0.0000 O   0  0  0  0  0  0  0  0  0  0  0  0
    1.6499    0.3616    0.0000 C   0  0  0  0  0  0  0  0  0  0  0  0
    2.5596   -0.8311    0.0000 C   0  0  0  0  0  0  0  0  0  0  0  0
    4.0473   -0.6395    0.0000 C   0  0  0  0  0  0  0  0  0  0  0  0
    4.9571   -1.8321    0.0000 C   0  0  0  0  0  0  0  0  0  0  0  0
    6.4448   -1.6406    0.0000 C   0  0  0  0  0  0  0  0  0  0  0  0
    7.0228   -0.2564    0.0000 C   0  0  0  0  0  0  0  0  0  0  0  0
    8.5105   -0.0648    0.0000 O   0  0  0  0  0  0  0  0  0  0  0  0
    6.1130    0.9362    0.0000 C   0  0  0  0  0  0  0  0  0  0  0  0
    6.6910    2.3204    0.0000 O   0  0  0  0  0  0  0  0  0  0  0  0
    4.6253    0.7447    0.0000 C   0  0  0  0  0  0  0  0  0  0  0  0
   -2.8133   -0.2131    0.0000 C   0  0  0  0  0  0  0  0  0  0  0  0
  1  2  1  0
  2  3  1  0
  3  4  2  0
  3  5  1  0
  5  6  1  0
  5  7  1  0
  7  8  1  0
  8  9  1  1
  8 10  1  0
 10 11  1  1
 10 12  1  0
 12 13  1  6
 13 14  1  0
 14 15  2  0
 14 16  1  0
 16 17  2  3
 17 18  1  0
 18 19  2  0
 19 20  1  0
 20 21  2  0
 21 22  1  0
 21 23  1  0
 23 24  1  0
 23 25  2  0
 12 26  1  0
 26  5  1  0
 25 18  1  0
M  END
>  <identifier>  (29) 
CNP0261619.12

>  <canonical_smiles>  (29) 
COC(=O)C1(O)C[C@@H](O)[C@@H](O)[C@H](OC(=O)C=CC2=CC=C(O)C(O)=C2)C1

>  <standard_inchi>  (29) 
InChI=1S/C17H20O9/c1-25-16(23)17(24)7-12(20)15(22)13(8-17)26-14(21)5-3-9-2-4-10(18)11(19)6-9/h2-6,12-13,15,18-20,22,24H,7-8H2,1H3/t12-,13-,15-,17?/m1/s1

>  <standard_inchi_key>  (29) 
MZNIJRAPCCELQX-JCEAQZCZSA-N

>  <name>  (29) 
nan

>  <iupac_name>  (29) 
methyl (3~{R},4~{R},5~{R})-3-[3-(3,4-dihydroxyphenyl)prop-2-enoyloxy]-1,4,5-trihydroxy-cyclohexanecarboxylate

>  <annotation_level>  (29) 
5

>  <total_atom_count>  (29) 
46

>  <heavy_atom_count>  (29) 
26

>  <molecular_weight>  (29) 
368.34

>  <exact_molecular_weight>  (29) 
368.11073

>  <molecular_formula>  (29) 
C17H20O9

>  <alogp>  (29) 
-0.56

>  <topological_polar_surface_area>  (29) 
153.75

>  <rotatable_bond_count>  (29) 
4

>  <hydrogen_bond_acceptors>  (29) 
9

>  <hydrogen_bond_donors>  (29) 
5

>  <hydrogen_bond_acceptors_lipinski>  (29) 
9

>  <hydrogen_bond_donors_lipinski>  (29) 
5

>  <lipinski_rule_of_five_violations>  (29) 
0

>  <aromatic_rings_count>  (29) 
1

>  <qed_drug_likeliness>  (29) 
0.27

>  <formal_charge>  (29) 
0

>  <fractioncsp3>  (29) 
0.41

>  <number_of_minimal_rings>  (29) 
2

>  <van_der_walls_volume>  (29) 
nan

>  <contains_sugar>  (29) 
False

>  <contains_ring_sugars>  (29) 
False

>  <contains_linear_sugars>  (29) 
False

>  <murcko_framework>  (29) 
O(CC=Cc1ccccc1)C2CCCCC2

>  <np_likeness>  (29) 
2.13

>  <chemical_class>  (29) 
Organooxygen compounds

>  <chemical_sub_class>  (29) 
Alcohols and polyols

>  <chemical_super_class>  (29) 
Organic oxygen compounds

>  <direct_parent_classification>  (29) 
Quinic acids and derivatives

>  <np_classifier_pathway>  (29) 
Shikimates and Phenylpropanoids

>  <np_classifier_superclass>  (29) 
Phenylpropanoids (C6-C3)

>  <np_classifier_class>  (29) 
Cinnamic acids and derivatives

>  <np_classifier_is_glycoside>  (29) 
False

>  <organisms>  (29) 
Chimarrhis turbinata

>  <collections>  (29) 
NuBBEDB

>  <dois>  (29) 
10.1021/np1007476

>  <synonyms>  (29) 
Methyl (3R4R5R)-3-{[(2Z)-3-(34-dihydroxyphenyl)-2-propenoyl]oxy}-145-trihydroxycyclohexanecarboxylate

>  <cas>  (29) 
nan

$$$$

     RDKit          2D

 36 40  0  0  0  0  0  0  0  0999 V2000
   -9.2636   -1.1018    0.0000 C   0  0  0  0  0  0  0  0  0  0  0  0
   -7.7671   -1.2043    0.0000 C   0  0  0  0  0  0  0  0  0  0  0  0
   -7.1076   -2.5515    0.0000 O   0  0  0  0  0  0  0  0  0  0  0  0
   -6.9301    0.0405    0.0000 O   0  0  0  0  0  0  0  0  0  0  0  0
   -5.4336   -0.0620    0.0000 C   0  0  0  0  0  0  0  0  0  0  0  0
   -4.7741   -1.4092    0.0000 C   0  0  0  0  0  0  0  0  0  0  0  0
   -3.2776   -1.5117    0.0000 C   0  0  0  0  0  0  0  0  0  0  0  0
   -2.4406   -0.2669    0.0000 C   0  0  0  0  0  0  0  0  0  0  0  0
   -1.7811   -1.6142    0.0000 C   0  0  0  0  0  0  0  0  0  0  0  0
   -0.9441   -0.3694    0.0000 C   0  0  0  0  0  0  0  0  0  0  0  0
   -0.2846   -1.7166    0.0000 C   0  0  0  0  0  0  0  0  0  0  0  0
    1.2119   -1.8191    0.0000 C   0  0  0  0  0  0  0  0  0  0  0  0
    2.0489   -0.5743    0.0000 C   0  0  0  0  0  0  0  0  0  0  0  0
    3.5454   -0.6768    0.0000 C   0  0  0  0  0  0  0  0  0  0  0  0
    4.2049   -2.0240    0.0000 C   0  0  0  0  0  0  0  0  0  0  0  0
    5.7014   -2.1265    0.0000 C   0  0  0  0  0  0  0  0  0  0  0  0
    7.0726   -2.7346    0.0000 C   0  0  0  0  0  0  0  0  0  0  0  0
    5.3406   -3.5824    0.0000 C   0  0  0  0  0  0  0  0  0  0  0  0
    6.5384   -0.8817    0.0000 C   0  0  0  0  0  0  0  0  0  0  0  0
    5.8789    0.4655    0.0000 C   0  0  0  0  0  0  0  0  0  0  0  0
    4.3824    0.5680    0.0000 C   0  0  0  0  0  0  0  0  0  0  0  0
    5.2194    1.8128    0.0000 C   0  0  0  0  0  0  0  0  0  0  0  0
    4.5598    3.1600    0.0000 O   0  0  0  0  0  0  0  0  0  0  0  0
    6.7159    1.7103    0.0000 O   0  0  0  0  0  0  0  0  0  0  0  0
    3.7229    1.9152    0.0000 C   0  0  0  0  0  0  0  0  0  0  0  0
    2.2264    2.0177    0.0000 C   0  0  0  0  0  0  0  0  0  0  0  0
    1.3894    0.7729    0.0000 C   0  0  0  0  0  0  0  0  0  0  0  0
    0.5524   -0.4718    0.0000 C   0  0  0  0  0  0  0  0  0  0  0  0
   -0.1071    0.8754    0.0000 C   0  0  0  0  0  0  0  0  0  0  0  0
    0.7299    2.1202    0.0000 C   0  0  0  0  0  0  0  0  0  0  0  0
   -0.7666    2.2226    0.0000 C   0  0  0  0  0  0  0  0  0  0  0  0
   -2.2631    2.3251    0.0000 C   0  0  0  0  0  0  0  0  0  0  0  0
   -3.1001    1.0803    0.0000 C   0  0  0  0  0  0  0  0  0  0  0  0
   -4.5966    1.1828    0.0000 C   0  0  0  0  0  0  0  0  0  0  0  0
   -4.2358    2.6387    0.0000 C   0  0  0  0  0  0  0  0  0  0  0  0
   -5.9678    1.7909    0.0000 C   0  0  0  0  0  0  0  0  0  0  0  0
  1  2  1  0
  2  3  2  0
  2  4  1  0
  4  5  1  0
  5  6  1  0
  6  7  1  0
  7  8  1  0
  8  9  1  6
  8 10  1  0
 10 11  1  6
 11 12  1  0
 12 13  2  0
 13 14  1  0
 14 15  1  1
 15 16  1  0
 16 17  1  0
 16 18  1  0
 16 19  1  0
 19 20  1  0
 20 21  1  0
 21 22  1  6
 22 23  2  0
 22 24  1  0
 21 25  1  0
 25 26  1  0
 26 27  1  0
 27 28  1  1
 27 29  1  0
 29 30  1  6
 29 31  1  0
 31 32  1  0
 33 32  1  6
 33 34  1  0
 34 35  1  0
 34 36  1  0
 34  5  1  0
 33  8  1  0
 29 10  1  0
 27 13  1  0
 21 14  1  0
M  END
>  <identifier>  (30) 
CNP0289313.5

>  <canonical_smiles>  (30) 
CC(=O)OC1CC[C@]2(C)[C@H]3CC=C4[C@@H]5CC(C)(C)CC[C@]5(C(=O)O)CC[C@@]4(C)[C@]3(C)CC[C@H]2C1(C)C

>  <standard_inchi>  (30) 
InChI=1S/C32H50O4/c1-20(33)36-25-12-13-29(6)23(28(25,4)5)11-14-31(8)24(29)10-9-21-22-19-27(2,3)15-17-32(22,26(34)35)18-16-30(21,31)7/h9,22-25H,10-19H2,1-8H3,(H,34,35)/t22-,23-,24+,25?,29-,30+,31+,32-/m0/s1

>  <standard_inchi_key>  (30) 
RIXNFYQZWDGQAE-SHHPMBJQSA-N

>  <name>  (30) 
nan

>  <iupac_name>  (30) 
(4~{a}~{S},6~{a}~{R},6~{a}~{S},6~{b}~{R},8~{a}~{R},12~{a}~{R},14~{b}~{S})-10-acetoxy-2,2,6~{a},6~{b},9,9,12~{a}-heptamethyl-1,3,4,5,6,6~{a},7,8,8~{a},10,11,12,13,14~{b}-tetradecahydropicene-4~{a}-carboxylic acid

>  <annotation_level>  (30) 
4

>  <total_atom_count>  (30) 
86

>  <heavy_atom_count>  (30) 
36

>  <molecular_weight>  (30) 
498.75

>  <exact_molecular_weight>  (30) 
498.37091

>  <molecular_formula>  (30) 
C32H50O4

>  <alogp>  (30) 
7.80

>  <topological_polar_surface_area>  (30) 
63.60

>  <rotatable_bond_count>  (30) 
2

>  <hydrogen_bond_acceptors>  (30) 
3

>  <hydrogen_bond_donors>  (30) 
1

>  <hydrogen_bond_acceptors_lipinski>  (30) 
3

>  <hydrogen_bond_donors_lipinski>  (30) 
1

>  <lipinski_rule_of_five_violations>  (30) 
1

>  <aromatic_rings_count>  (30) 
0

>  <qed_drug_likeliness>  (30) 
0.31

>  <formal_charge>  (30) 
0

>  <fractioncsp3>  (30) 
0.88

>  <number_of_minimal_rings>  (30) 
5

>  <van_der_walls_volume>  (30) 
nan

>  <contains_sugar>  (30) 
False

>  <contains_ring_sugars>  (30) 
False

>  <contains_linear_sugars>  (30) 
False

>  <murcko_framework>  (30) 
C1=C2C3CCCCC3CCC2C4CCC5CCCCC5C4C1

>  <np_likeness>  (30) 
3.22

>  <chemical_class>  (30) 
Prenol lipids

>  <chemical_sub_class>  (30) 
Triterpenoids

>  <chemical_super_class>  (30) 
Lipids and lipid-like molecules

>  <direct_parent_classification>  (30) 
Oleanane triterpenoids

>  <np_classifier_pathway>  (30) 
Terpenoids

>  <np_classifier_superclass>  (30) 
Triterpenoids

>  <np_classifier_class>  (30) 
Oleanane triterpenoids

>  <np_classifier_is_glycoside>  (30) 
False

>  <organisms>  (30) 
Myrcia lingua

>  <collections>  (30) 
Latin America dataset|NuBBEDB

>  <dois>  (30) 
10.1002/cbdv.201400065

>  <synonyms>  (30) 
3-O-acetyloleanolic acid

>  <cas>  (30) 
nan

$$$$

     RDKit          2D

 21 23  0  0  0  0  0  0  0  0999 V2000
   -6.4517    2.1064    0.0000 C   0  0  0  0  0  0  0  0  0  0  0  0
   -5.9312    0.6996    0.0000 O   0  0  0  0  0  0  0  0  0  0  0  0
   -4.4526    0.4470    0.0000 C   0  0  0  0  0  0  0  0  0  0  0  0
   -3.4945    1.6012    0.0000 C   0  0  0  0  0  0  0  0  0  0  0  0
   -2.0160    1.3485    0.0000 C   0  0  0  0  0  0  0  0  0  0  0  0
   -1.4955   -0.0583    0.0000 C   0  0  0  0  0  0  0  0  0  0  0  0
   -0.0169   -0.3109    0.0000 C   0  0  0  0  0  0  0  0  0  0  0  0
    0.5036   -1.7177    0.0000 C   0  0  0  0  0  0  0  0  0  0  0  0
    1.9822   -1.9703    0.0000 C   0  0  0  0  0  0  0  0  0  0  0  0
    2.5027   -3.3771    0.0000 O   0  0  0  0  0  0  0  0  0  0  0  0
    2.9403   -0.8161    0.0000 C   0  0  0  0  0  0  0  0  0  0  0  0
    4.4188   -1.0688    0.0000 C   0  0  0  0  0  0  0  0  0  0  0  0
    5.3769    0.0854    0.0000 C   0  0  0  0  0  0  0  0  0  0  0  0
    4.8564    1.4922    0.0000 C   0  0  0  0  0  0  0  0  0  0  0  0
    5.8145    2.6464    0.0000 O   0  0  0  0  0  0  0  0  0  0  0  0
    3.3778    1.7448    0.0000 C   0  0  0  0  0  0  0  0  0  0  0  0
    2.4198    0.5907    0.0000 C   0  0  0  0  0  0  0  0  0  0  0  0
    0.9412    0.8433    0.0000 O   0  0  0  0  0  0  0  0  0  0  0  0
   -2.4535   -1.2124    0.0000 C   0  0  0  0  0  0  0  0  0  0  0  0
   -3.9321   -0.9598    0.0000 C   0  0  0  0  0  0  0  0  0  0  0  0
   -4.8902   -2.1140    0.0000 O   0  0  0  0  0  0  0  0  0  0  0  0
  1  2  1  0
  2  3  1  0
  3  4  2  0
  4  5  1  0
  5  6  2  0
  6  7  1  0
  7  8  2  0
  8  9  1  0
  9 10  2  0
  9 11  1  0
 11 12  2  0
 12 13  1  0
 13 14  2  0
 14 15  1  0
 14 16  1  0
 16 17  2  0
 17 18  1  0
  6 19  1  0
 19 20  2  0
 20 21  1  0
 20  3  1  0
 18  7  1  0
 17 11  1  0
M  END
>  <identifier>  (31) 
CNP0219312.0

>  <canonical_smiles>  (31) 
COC1=CC=C(C2=CC(=O)C3=CC=C(O)C=C3O2)C=C1O

>  <standard_inchi>  (31) 
InChI=1S/C16H12O5/c1-20-14-5-2-9(6-13(14)19)15-8-12(18)11-4-3-10(17)7-16(11)21-15/h2-8,17,19H,1H3

>  <standard_inchi_key>  (31) 
QAGGICSUEVNSGH-UHFFFAOYSA-N

>  <name>  (31) 
Farnisin

>  <iupac_name>  (31) 
7-hydroxy-2-(3-hydroxy-4-methoxy-phenyl)chromen-4-one

>  <annotation_level>  (31) 
5

>  <total_atom_count>  (31) 
33

>  <heavy_atom_count>  (31) 
21

>  <molecular_weight>  (31) 
284.27

>  <exact_molecular_weight>  (31) 
284.06847

>  <molecular_formula>  (31) 
C16H12O5

>  <alogp>  (31) 
2.88

>  <topological_polar_surface_area>  (31) 
79.90

>  <rotatable_bond_count>  (31) 
2

>  <hydrogen_bond_acceptors>  (31) 
5

>  <hydrogen_bond_donors>  (31) 
2

>  <hydrogen_bond_acceptors_lipinski>  (31) 
5

>  <hydrogen_bond_donors_lipinski>  (31) 
2

>  <lipinski_rule_of_five_violations>  (31) 
0

>  <aromatic_rings_count>  (31) 
3

>  <qed_drug_likeliness>  (31) 
0.76

>  <formal_charge>  (31) 
0

>  <fractioncsp3>  (31) 
0.06

>  <number_of_minimal_rings>  (31) 
3

>  <van_der_walls_volume>  (31) 
240.14

>  <contains_sugar>  (31) 
False

>  <contains_ring_sugars>  (31) 
False

>  <contains_linear_sugars>  (31) 
False

>  <murcko_framework>  (31) 
O1c2ccccc2CC=C1c3ccccc3

>  <np_likeness>  (31) 
0.99

>  <chemical_class>  (31) 
Flavonoids

>  <chemical_sub_class>  (31) 
O-methylated flavonoids

>  <chemical_super_class>  (31) 
Phenylpropanoids and polyketides

>  <direct_parent_classification>  (31) 
4'-O-methylated flavonoids

>  <np_classifier_pathway>  (31) 
Shikimates and Phenylpropanoids

>  <np_classifier_superclass>  (31) 
Flavonoids

>  <np_classifier_class>  (31) 
Flavones

>  <np_classifier_is_glycoside>  (31) 
False

>  <organisms>  (31) 
Acacia Farnesiana|Acacia farnesiana|Cyclopia intermedia|Iryanthera juruensis

>  <collections>  (31) 
ChemSpider NPs|KNApSaCK|Latin America dataset|NPEdia|NuBBEDB|Super Natural II|TIPdb (database of Taiwan indigenous plants)|UEFS (Natural Products Databse of the UEFS)|UNPD (Universal Natural Products Database)|VietHerb|WikiData Natural Products

>  <dois>  (31) 
10.1021/JF0210730|10.1021/JF063451X|10.1021/jf063451x

>  <synonyms>  (31) 
3',7-Dihydroxy-4'-methoxyflavone|54867-60-6|7, 3a(2)-Dihydroxy-4a(2)-methoxyflavone|7-Hydroxy-2-(3-hydroxy-4-methoxyphenyl)-4H-1-benzopyran-4-one|7-hydroxy-2-(3-hydroxy-4-methoxyphenyl)chromen-4-one|CHEBI:174709|Calycosin, >=98% (HPLC)|DTXSID301300741|Farnisin|LMPK12110047|Q23055237|QAGGICSUEVNSGH-UHFFFAOYSA-N|SCHEMBL1744293

>  <cas>  (31) 
54867-60-6

$$$$

     RDKit          2D

 21 21  0  0  0  0  0  0  0  0999 V2000
  -10.7803    0.9865    0.0000 C   0  0  0  0  0  0  0  0  0  0  0  0
   -9.5522    0.1253    0.0000 C   0  0  0  0  0  0  0  0  0  0  0  0
   -9.6840   -1.3689    0.0000 O   0  0  0  0  0  0  0  0  0  0  0  0
   -8.1923    0.7583    0.0000 C   0  0  0  0  0  0  0  0  0  0  0  0
   -6.9642   -0.1029    0.0000 C   0  0  0  0  0  0  0  0  0  0  0  0
   -5.6043    0.5301    0.0000 C   0  0  0  0  0  0  0  0  0  0  0  0
   -4.3761   -0.3311    0.0000 C   0  0  0  0  0  0  0  0  0  0  0  0
   -3.0162    0.3018    0.0000 C   0  0  0  0  0  0  0  0  0  0  0  0
   -1.7881   -0.5594    0.0000 C   0  0  0  0  0  0  0  0  0  0  0  0
   -0.4282    0.0736    0.0000 C   0  0  0  0  0  0  0  0  0  0  0  0
    0.7999   -0.7876    0.0000 C   0  0  0  0  0  0  0  0  0  0  0  0
    2.1598   -0.1546    0.0000 C   0  0  0  0  0  0  0  0  0  0  0  0
    3.3880   -1.0158    0.0000 C   0  0  0  0  0  0  0  0  0  0  0  0
    4.7479   -0.3829    0.0000 C   0  0  0  0  0  0  0  0  0  0  0  0
    4.8796    1.1113    0.0000 C   0  0  0  0  0  0  0  0  0  0  0  0
    6.2395    1.7443    0.0000 C   0  0  0  0  0  0  0  0  0  0  0  0
    7.4677    0.8831    0.0000 C   0  0  0  0  0  0  0  0  0  0  0  0
    8.8276    1.5161    0.0000 O   0  0  0  0  0  0  0  0  0  0  0  0
    7.3359   -0.6111    0.0000 C   0  0  0  0  0  0  0  0  0  0  0  0
    8.5640   -1.4723    0.0000 C   0  0  0  0  0  0  0  0  0  0  0  0
    5.9760   -1.2441    0.0000 N   0  0  0  0  0  0  0  0  0  0  0  0
  1  2  1  0
  2  3  2  0
  2  4  1  0
  4  5  1  0
  5  6  1  0
  6  7  1  0
  7  8  1  0
  8  9  1  0
  9 10  1  0
 10 11  1  0
 11 12  1  0
 12 13  1  0
 14 13  1  1
 14 15  1  0
 15 16  1  0
 16 17  1  0
 17 18  1  1
 17 19  1  0
 19 20  1  1
 19 21  1  0
 21 14  1  0
M  END
>  <identifier>  (32) 
CNP0189037.2

>  <canonical_smiles>  (32) 
CC(=O)CCCCCCCCCC[C@H]1CC[C@@H](O)[C@@H](C)N1

>  <standard_inchi>  (32) 
InChI=1S/C18H35NO2/c1-15(20)11-9-7-5-3-4-6-8-10-12-17-13-14-18(21)16(2)19-17/h16-19,21H,3-14H2,1-2H3/t16-,17+,18-/m1/s1

>  <standard_inchi_key>  (32) 
QPRMGHKASRLPJP-FGTMMUONSA-N

>  <name>  (32) 
Cassine

>  <iupac_name>  (32) 
12-[(2~{S},5~{R},6~{R})-5-hydroxy-6-methyl-2-piperidyl]dodecan-2-one

>  <annotation_level>  (32) 
5

>  <total_atom_count>  (32) 
56

>  <heavy_atom_count>  (32) 
21

>  <molecular_weight>  (32) 
297.48

>  <exact_molecular_weight>  (32) 
297.26678

>  <molecular_formula>  (32) 
C18H35NO2

>  <alogp>  (32) 
3.98

>  <topological_polar_surface_area>  (32) 
49.33

>  <rotatable_bond_count>  (32) 
11

>  <hydrogen_bond_acceptors>  (32) 
3

>  <hydrogen_bond_donors>  (32) 
2

>  <hydrogen_bond_acceptors_lipinski>  (32) 
3

>  <hydrogen_bond_donors_lipinski>  (32) 
2

>  <lipinski_rule_of_five_violations>  (32) 
0

>  <aromatic_rings_count>  (32) 
0

>  <qed_drug_likeliness>  (32) 
0.57

>  <formal_charge>  (32) 
0

>  <fractioncsp3>  (32) 
0.94

>  <number_of_minimal_rings>  (32) 
1

>  <van_der_walls_volume>  (32) 
322.60

>  <contains_sugar>  (32) 
False

>  <contains_ring_sugars>  (32) 
False

>  <contains_linear_sugars>  (32) 
False

>  <murcko_framework>  (32) 
N1CCCCC1

>  <np_likeness>  (32) 
1.95

>  <chemical_class>  (32) 
nan

>  <chemical_sub_class>  (32) 
Alkaloids and derivatives

>  <chemical_super_class>  (32) 
Alkaloids and derivatives

>  <direct_parent_classification>  (32) 
Alkaloids and derivatives

>  <np_classifier_pathway>  (32) 
Alkaloids

>  <np_classifier_superclass>  (32) 
Lysine alkaloids

>  <np_classifier_class>  (32) 
Piperidine alkaloids

>  <np_classifier_is_glycoside>  (32) 
False

>  <organisms>  (32) 
Cassia carnaval|Cassia excelsa|Cassia fistula|Cassine metabelica|Elaeodendron matabelicum|Erythrophleum guineense E.Don.|Prosopis ruscifolia|Senna racemosa|Senna spectabilis|Senna spectabilis var. spectabilis

>  <collections>  (32) 
ChEBI NPs|ChemSpider NPs|KNApSaCK|Latin America dataset|NPASS|NPEdia|NuBBEDB|Super Natural II|WikiData Natural Products|ZINC NP

>  <dois>  (32) 
10.1016/S0040-4039(01)92567-5|10.1016/S0367-326X(00)00152-0|10.1016/j.bmc.2018.10.032|10.1055/S-2003-45156|10.1515/ZNC-2002-9-1003|10.1590/S0103-50532005000800023|10.2307/4117899

>  <synonyms>  (32) 
(-)-Cassine|12-(5-hydroxy-6-methylpiperidin-2-yl)dodecan-2-one|12-[(2S,5R,6R)-5-hydroxy-6-methylpiperidin-2-yl]dodecan-2-one|5227-24-7|AC1L4W78|AC1Q5CI5|CHEBI:3456|CHEMBL2262843|Cassine|DTXSID90966641|Q5756672

>  <cas>  (32) 
5227-24-7

$$$$

     RDKit          2D

 16 16  0  0  0  0  0  0  0  0999 V2000
    2.9021   -3.5461    0.0000 C   0  0  0  0  0  0  0  0  0  0  0  0
    3.2543   -2.0881    0.0000 O   0  0  0  0  0  0  0  0  0  0  0  0
    2.1676   -1.0540    0.0000 C   0  0  0  0  0  0  0  0  0  0  0  0
    0.7288   -1.4781    0.0000 C   0  0  0  0  0  0  0  0  0  0  0  0
   -0.3578   -0.4440    0.0000 C   0  0  0  0  0  0  0  0  0  0  0  0
   -1.7966   -0.8681    0.0000 C   0  0  0  0  0  0  0  0  0  0  0  0
   -2.8833    0.1660    0.0000 C   0  0  0  0  0  0  0  0  0  0  0  0
   -4.3221   -0.2581    0.0000 C   0  0  0  0  0  0  0  0  0  0  0  0
   -4.6743   -1.7161    0.0000 O   0  0  0  0  0  0  0  0  0  0  0  0
   -5.4087    0.7760    0.0000 O   0  0  0  0  0  0  0  0  0  0  0  0
   -0.0056    1.0140    0.0000 C   0  0  0  0  0  0  0  0  0  0  0  0
    1.4332    1.4381    0.0000 C   0  0  0  0  0  0  0  0  0  0  0  0
    1.7854    2.8962    0.0000 O   0  0  0  0  0  0  0  0  0  0  0  0
    0.6987    3.9302    0.0000 C   0  0  0  0  0  0  0  0  0  0  0  0
    2.5198    0.4040    0.0000 C   0  0  0  0  0  0  0  0  0  0  0  0
    3.9586    0.8281    0.0000 O   0  0  0  0  0  0  0  0  0  0  0  0
  1  2  1  0
  2  3  1  0
  3  4  2  0
  4  5  1  0
  5  6  1  0
  6  7  2  0
  7  8  1  0
  8  9  2  0
  8 10  1  0
  5 11  2  0
 11 12  1  0
 12 13  1  0
 13 14  1  0
 12 15  2  0
 15 16  1  0
 15  3  1  0
M  END
>  <identifier>  (33) 
CNP0195904.1

>  <canonical_smiles>  (33) 
COC1=CC(/C=C/C(=O)O)=CC(OC)=C1O

>  <standard_inchi>  (33) 
InChI=1S/C11H12O5/c1-15-8-5-7(3-4-10(12)13)6-9(16-2)11(8)14/h3-6,14H,1-2H3,(H,12,13)/b4-3+

>  <standard_inchi_key>  (33) 
PCMORTLOPMLEFB-ONEGZZNKSA-N

>  <name>  (33) 
nan

>  <iupac_name>  (33) 
nan

>  <annotation_level>  (33) 
0

>  <total_atom_count>  (33) 
28

>  <heavy_atom_count>  (33) 
16

>  <molecular_weight>  (33) 
224.21

>  <exact_molecular_weight>  (33) 
224.06847

>  <molecular_formula>  (33) 
C11H12O5

>  <alogp>  (33) 
1.51

>  <topological_polar_surface_area>  (33) 
75.99

>  <rotatable_bond_count>  (33) 
4

>  <hydrogen_bond_acceptors>  (33) 
4

>  <hydrogen_bond_donors>  (33) 
2

>  <hydrogen_bond_acceptors_lipinski>  (33) 
4

>  <hydrogen_bond_donors_lipinski>  (33) 
2

>  <lipinski_rule_of_five_violations>  (33) 
0

>  <aromatic_rings_count>  (33) 
1

>  <qed_drug_likeliness>  (33) 
0.76

>  <formal_charge>  (33) 
0

>  <fractioncsp3>  (33) 
0.18

>  <number_of_minimal_rings>  (33) 
1

>  <van_der_walls_volume>  (33) 
198.73

>  <contains_sugar>  (33) 
False

>  <contains_ring_sugars>  (33) 
False

>  <contains_linear_sugars>  (33) 
False

>  <murcko_framework>  (33) 
c1ccccc1

>  <np_likeness>  (33) 
0.76

>  <chemical_class>  (33) 
nan

>  <chemical_sub_class>  (33) 
nan

>  <chemical_super_class>  (33) 
nan

>  <direct_parent_classification>  (33) 
nan

>  <np_classifier_pathway>  (33) 
Shikimates and Phenylpropanoids

>  <np_classifier_superclass>  (33) 
Phenylpropanoids (C6-C3)

>  <np_classifier_class>  (33) 
Cinnamic acids and derivatives

>  <np_classifier_is_glycoside>  (33) 
False

>  <organisms>  (33) 
Abutilon theophrasti|Acacia adunca|Acer saccharinum|Achyranthes aspera|Actaea dahurica|Actaea heracleifolia|Actaea simplex|Adiantum lunulatum|Aglaia ignea|Aguacate|Alliaria petiolata|Allium Cepa|Allium cepa|Allium sativum|Aloe africana|Aloe ferox|Aloe spicata|Aloe vera|Alstonia spathulata|Althaea armeniaca|Althaea broussonetiifolia|Althaea cannabina|Althaea narbonensis|Althaea officinalis|Amathia pinnata|Amsinckia tessellata|Anacystis montana|Anagallis sp.|Anemone tomentosa|Anethum graveolens|Annona cornifolia|Anolis lineatopus|Antitoxicum scanden|Apium graveolens|Aplophyllum pedicellatum|Arabidopsis thaliana|Arachis hypogaea|Aristolochia clematis|Aristolochia sp.|Artemisia assoana|Asarum europaeum|Asarum sp.|Aspalathus linearis|Aspergillus mutabilis|Asterospicularia laurae|Astragalus sempervirens|Aucuba chinensis|Aurelia aurita|Avena sativa|Betula pubescens|Bishovia boliviensis|Bistorta vivipara|Blastochloris viridis|Bohadschia vitiensis|Brassica Juncea|Brassica carinata|Brassica carinata B line|Brassica carinata Y line|Brassica juncea|Brassica napus|Brassica oleracea|Brassica oleracea var. sabauda|Brassica rapa|Brassica rapa subsp. oleifera|Brassica sp.|Brickellia vernicosa|Caenorhabditis elegans|Calligonum leucocladum|Calostephane divaricata|Capparis spinosa|Capsella sp.|Capsicum annuum|Caragana aurantiaca|Carica dodecaphylla|Carum sp.|Cassia javanica|Cedronella canariensis|Centaurea huber-morathii|Centaurium sp.|Chaenomeles sinensis|Chamerion dodonaei|Chrysosplenium americanum|Cimicifuga foetida|Cinnamomum sp.|Citrus Limonia|Citrus aurantium|Citrus limon|Citrus limonia|Citrus paradisi|Citrus reticulata|Citrus sinensis|Citrus sp.|Citrus tangerina|Citrus unshiu|Cochlearia sp.|Cocos nucifera|Coffea|Coffea canephora|Colpomenia sinuosa|Cotyledon secunda|Crocus minimus|Crocus sativus|Cucumis sativus|Cucurbita maxima|Cucurbita moschata|Cucurbita pepo|Cunonia macrophylla|Curculigo pilosa|Cynanchum thesioides|Cynometra lujae|Dasiphora fruticosa|Delphinium crassifolium|Descurainia sophia|Drechslera avenae|Dumortiera hirsuta|Elettaria cardamomum|Entada rheedei|Epilobium dodonaei|Erica australis|Eritrichium sericeum|Erylus trisphaerus|Erysimum sp.|Eucalyptus melliodora|Eupatorium areolare|Eutrema japonicum|FOOD SAKE|Fagopyrum esculentum|Fallopia convolvulus|Felimida luteorosea|Filicium decipiens|Foeniculum Vulgare|Foeniculum vulgare|Fraxinus sp.|Ginkgo biloba|Glechoma hederacea|Glechoma sp.|Gleditsia caspica|Globularia sp.|Glycine|Glycine max|Glycyrrhiza uralensis|Gnetum latifolium|Goniothalamus malayanus|Gracilaria textorii|Haplophyllum ramosissimum|Hedysarum connatum|Helianthopsis microphylla|Helianthus annuus|Helichrysum mixtum|Helichrysum sp.|Helipterum roseum|Homo sapiens|Hordeum vulgare|Humata pectinata|Hypericum laricifolium|Ipomoea digitata|Iris sp.|Isatis quadrialata|Isatis tinctoria|Isodon japonicus|Jania rubens|Jateorhiza columba|Juglans nigra|Juglans regia|Jugo|Kali turgidum|Lactuca sativa|Laurencia spectabilis|Laurus sp.|Lavandula sp.|Leathesia nana|Lepidium apetalum|Lepidium sativum|Lepisorus ussuriensis|Limoniastrum guyonianum|Linum sp.|Linum usitatissimum|Lithospermum erythrorhizon|Lobophytum schoedei|Lycopus europaeus|Lycopus sp.|Lysiana subfalcata|Lysimachia mauritiana|Macaranga peltata|Magnolia denudata|Magnolia liliiflora|Magnolia officinalis|Malus domestica|Malus pumila|Mangifera indica|Manihot sp.|Marrubium anisodon|Matthiola incana|Medicago sativa|Melilotus sp.|Melissa sp.|Menyanthes trifoliata|Morus alba|Nasturtium sp.|Nasutitermes ephratae|Naucleopsis ternstroemiiflora|Nelumbo nucifera|Neurospora sitophila|Nostoc spongiaeforme|Olea europaea|Onobrychis kachetica|Ononis sp.|Origanum sp.|Oryza sativa|Osteospermum muricatum|Oxalis pes-caprae|Paeonia lactiflora|Paeonia rockii|Parablechnum minus|Pastinaca sativa|Peltostigma guatemalense|Peperomia vulcanica|Perilla frutescens|Persicaria amphibia|Persicaria hydropiper|Persicaria hydropiperoides|Persicaria mitis|Phaeolus schweinitzii|Phaseolus vulgaris|Phlogacanthus tubiflorus|Phoebe pittieri|Physalis edulis|Pimenta dioica|Piper sp.|Platycarya strobilacea|Poa huecu|Polygala sp.|Polygala tenuifolia|Polygonum aviculare|Posidonia oceanica|Potentilla fruticosa|Potentilla sp.|Premna odorata|Premna tomentosa|Prunus armeniaca|Prunus avium|Prunus cerasus|Prunus domestica|Prunus persica|Prunus persica var. nucipersica|Pseudoalteromonas luteoviolacea|Pterocarpus santalinus|Pterogyne nitens|Pyrus communis|Radix glycyrrhizae uralensis|Raphanus sativus|Rauvolfia vomitoria|Rhaponticum carthamoides|Rheum rhabarbarum|Rhododendron sp.|Rosmarinus sp.|Rumex maritimus|Ruta graveolens|Sabia japonica|Sabina sargentii|Sagittaria sagittifolia|Salvia sp.|Salvia syriaca|Satureja sp.|Saussurea amara|Scrophularia sp.|Scutellaria amoena|Secale cereale|Secamone afzelii|Securidaca longepedunculata|Sesamum sp.|Sia ferox|Sida acuta|Sideritis euboea|Sinapis alba|Sinapis sp.|Sinularia depressa|Sisymbrium columnae|Sisyrinchium californicum|Solanum laxum|Solanum lycopersicum|Solanum tuberosum|Sorbus tianschanica|Stephania elegans|Streptomyces argenteolus|Streptomyces avermectinius|Streptomyces pentaticus|Swertia franchetiana|Swertia swertopsis|Taxus brevifolia|Tecoma stans|Terminalia sp.|Thymus sp.|Trichoderma koningi|Triticum aestivum|Triticum durum|Triticum turgidum|Tsuga chinensis|Tussilago farfara|Urtica dioica|Usnea undulata|Utricularia australis|Vaccinium macrocarpon|Vaccinium oxycoccos|Vepris heterophylla|Vigna angularis|Vigna umbellata|Vigna umbeuata|Viguiera incana|Vincetoxicum hirundinaria|Vincetoxicum mongolicum|Vincetoxicum scandens|Vincetoxicum sp.|Viola sp.|Virgilia divaricata|Viscum sp.|Vitis Vinifera|Vitis vinifera|Waltheria americana|Wasabia japonica|Wikstroemia retusa|Woodsia manchuriensis|Zanthoxylum tetraspermum|Zingiber sp.|broad bean|cacao|garlic|maize|pomegranate|potato|soybean|tomato

>  <collections>  (33) 
ANPDB|CMAUP (cCollective molecular activities of useful plants)|ChEBI NPs|ChemSpider NPs|DrugBankNP|ETM (Ethiopian Traditional Medicine) DB|Exposome-explorer|FooDB|InterBioScreen Ltd|KNApSaCK|NANPDB (Natural Products from Northern African Sources)|NPASS|NPEdia|NuBBEDB|Phyto4Health|PhytoLab phyproof® Reference Substances|PubChem NPs|Super Natural II|TCMDB-Taiwan (Traditional Chinese Medicine database)|VietHerb|WikiData Natural Products|p-ANAPL

>  <dois>  (33) 
10.1002/(SICI)1099-1565(199711/12)8:6<312::AID-PCA358>3.0.CO;2-M|10.1002/ELPS.201300646|10.1002/JSSC.200390053|10.1002/JSSC.200500003|10.1006/JCRS.2002.0464|10.1007/BF00381261|10.1007/BF00563829|10.1007/BF00565058|10.1007/BF00571239|10.1007/BF00573563|10.1007/BF00579165|10.1007/BF00596761|10.1007/BF02467553|10.1007/BF02671339|10.1007/BF02976704|10.1007/S00217-003-0721-4|10.1007/S00217-003-0811-3|10.1007/S002170050544|10.1007/S11130-011-0236-2|10.1007/S11306-014-0658-6|10.1016/0031-9422(83)80188-5|10.1016/0031-9422(83)83029-5|10.1016/0304-3770(95)00504-8|10.1016/0305-1978(94)00092-U|10.1016/B978-0-12-397934-6.00012-7|10.1016/B978-0-12-675407-0.50017-8|10.1016/J.FCT.2016.02.009|10.1016/J.FOODCHEM.2005.07.053|10.1016/J.FOODCHEM.2006.11.008|10.1016/J.FOODCHEM.2007.08.038|10.1016/J.FOODCHEM.2012.09.111|10.1016/J.FOODRES.2017.06.052|10.1016/J.IFSET.2018.01.008|10.1016/J.INDCROP.2013.06.011|10.1016/J.INDCROP.2018.08.004|10.1016/J.JFCA.2005.09.003|10.1016/J.JFF.2015.04.049|10.1016/J.JPBA.2017.04.035|10.1016/J.LWT.2018.02.024|10.1016/J.PHYTOCHEM.2003.12.009|10.1016/J.PHYTOCHEM.2007.08.021|10.1016/J.PHYTOCHEM.2009.03.021|10.1016/J.PHYTOCHEM.2009.04.008|10.1016/J.PHYTOCHEM.2009.04.019|10.1016/J.PHYTOCHEM.2016.12.003|10.1016/J.PLAPHY.2015.04.008|10.1016/S0003-2670(01)01241-7|10.1016/S0021-9673(00)01030-X|10.1016/S0021-9673(01)87655-X|10.1016/S0021-9673(01)93959-7|10.1016/S0021-9673(97)01259-4|10.1016/S0031-9422(00)80093-X|10.1016/S0031-9422(00)81727-6|10.1016/S0031-9422(00)85114-6|10.1016/S0031-9422(00)85977-4|10.1016/S0031-9422(00)88025-5|10.1016/S0031-9422(02)00488-0|10.1016/S0031-9422(97)01118-7|10.1016/S0308-8146(02)00590-3|10.1016/S0367-326X(02)00237-X|10.1016/S0963-9969(00)00072-7|10.1016/S0981-9428(00)00774-9|10.1016/S1466-8564(01)00040-6|10.1016/j.jfca.2006.05.007|10.1021/CB3004226|10.1021/JF00042A006|10.1021/JF00078A018|10.1021/JF00110A030|10.1021/JF00123A028|10.1021/JF020055F|10.1021/JF020496Z|10.1021/JF050721N|10.1021/JF0615247|10.1021/JF062785J|10.1021/JF0636014|10.1021/JF072428O|10.1021/JF900695S|10.1021/JF991266W|10.1021/NP0702786|10.1021/NP0705615|10.1021/NP50027A025|10.1021/NP50052A040|10.1021/NP50088A010|10.1021/NP50091A020|10.1021/jf1017143|10.1021/np0705615|10.1055/S-0028-1099972|10.1055/S-2006-958019|10.1055/S-2007-969319|10.1080/01483918808076763|10.1080/01483919008049590|10.1080/1028602042000204072|10.1080/10408390802145377|10.1080/10575630008043782|10.1080/10826079408013763|10.1081/JLC-100101676|10.1081/JLC-100101744|10.1093/jn/133.6.1806|10.1104/PP.106.078428|10.1104/PP.69.2.522|10.1111/J.1745-4522.2007.00107.X|10.1111/J.1750-3841.2012.02803.X|10.1271/BBB.59.1780|10.1271/BBB.61.1674|10.1271/BBB.62.998|10.1365/S10337-005-0622-8|10.1371/JOURNAL.PONE.0156319|10.1590/S0100-40422008000400018|10.21577/0103-5053.20190018|10.3390/METABO4030599|10.3390/MOLECULES23071558|10.3390/NU11020402|10.3390/foods9060770|10.3390/molecules24162945|10.3390/molecules24183212|10.5586/ASBP.1977.015|10.5586/ASBP.1998.029|10.5586/ASBP.2000.003|10.5650/JOS1996.46.1399

>  <synonyms>  (33) 
trans-4-Hydroxy 3,5-dimethoxycinnamic acid|trans-Sinapinic acid

>  <cas>  (33) 
7362-37-0

$$$$

     RDKit          2D

 20 22  0  0  0  0  0  0  0  0999 V2000
   -5.8961   -2.4493    0.0000 C   0  0  0  0  0  0  0  0  0  0  0  0
   -4.8413   -1.3828    0.0000 C   0  0  0  0  0  0  0  0  0  0  0  0
   -5.2376    0.0639    0.0000 C   0  0  0  0  0  0  0  0  0  0  0  0
   -3.3903   -1.7630    0.0000 C   0  0  0  0  0  0  0  0  0  0  0  0
   -2.3356   -0.6965    0.0000 C   0  0  0  0  0  0  0  0  0  0  0  0
   -0.8845   -1.0767    0.0000 O   0  0  0  0  0  0  0  0  0  0  0  0
    0.1702   -0.0101    0.0000 C   0  0  0  0  0  0  0  0  0  0  0  0
   -0.2260    1.4366    0.0000 C   0  0  0  0  0  0  0  0  0  0  0  0
   -1.5663    2.1102    0.0000 O   0  0  0  0  0  0  0  0  0  0  0  0
   -1.3398    3.5930    0.0000 C   0  0  0  0  0  0  0  0  0  0  0  0
    0.1404    3.8358    0.0000 C   0  0  0  0  0  0  0  0  0  0  0  0
    0.8288    2.5031    0.0000 C   0  0  0  0  0  0  0  0  0  0  0  0
    2.2798    2.1229    0.0000 C   0  0  0  0  0  0  0  0  0  0  0  0
    2.6760    0.6762    0.0000 C   0  0  0  0  0  0  0  0  0  0  0  0
    1.6213   -0.3903    0.0000 C   0  0  0  0  0  0  0  0  0  0  0  0
    2.0175   -1.8371    0.0000 O   0  0  0  0  0  0  0  0  0  0  0  0
    3.4685   -2.2173    0.0000 C   0  0  0  0  0  0  0  0  0  0  0  0
    3.8648   -3.6640    0.0000 O   0  0  0  0  0  0  0  0  0  0  0  0
    4.5233   -1.1507    0.0000 C   0  0  0  0  0  0  0  0  0  0  0  0
    4.1270    0.2960    0.0000 C   0  0  0  0  0  0  0  0  0  0  0  0
  1  2  1  0
  2  3  1  0
  2  4  2  0
  4  5  1  0
  5  6  1  0
  6  7  1  0
  7  8  2  0
  8  9  1  0
  9 10  1  0
 10 11  2  0
 11 12  1  0
 12 13  2  0
 13 14  1  0
 14 15  2  0
 15 16  1  0
 16 17  1  0
 17 18  2  0
 17 19  1  0
 19 20  2  0
 15  7  1  0
 12  8  1  0
 20 14  1  0
M  END
>  <identifier>  (34) 
CNP0270767.0

>  <canonical_smiles>  (34) 
CC(C)=CCOC1=C2OC=CC2=CC2=C1OC(=O)C=C2

>  <standard_inchi>  (34) 
InChI=1S/C16H14O4/c1-10(2)5-7-19-16-14-12(6-8-18-14)9-11-3-4-13(17)20-15(11)16/h3-6,8-9H,7H2,1-2H3

>  <standard_inchi_key>  (34) 
OLOOJGVNMBJLLR-UHFFFAOYSA-N

>  <name>  (34) 
IMPERATORIN

>  <iupac_name>  (34) 
9-(3-methylbut-2-enoxy)furo[3,2-g]chromen-7-one

>  <annotation_level>  (34) 
5

>  <total_atom_count>  (34) 
34

>  <heavy_atom_count>  (34) 
20

>  <molecular_weight>  (34) 
270.28

>  <exact_molecular_weight>  (34) 
270.08921

>  <molecular_formula>  (34) 
C16H14O4

>  <alogp>  (34) 
3.88

>  <topological_polar_surface_area>  (34) 
52.58

>  <rotatable_bond_count>  (34) 
3

>  <hydrogen_bond_acceptors>  (34) 
4

>  <hydrogen_bond_donors>  (34) 
0

>  <hydrogen_bond_acceptors_lipinski>  (34) 
4

>  <hydrogen_bond_donors_lipinski>  (34) 
0

>  <lipinski_rule_of_five_violations>  (34) 
0

>  <aromatic_rings_count>  (34) 
3

>  <qed_drug_likeliness>  (34) 
0.53

>  <formal_charge>  (34) 
0

>  <fractioncsp3>  (34) 
0.19

>  <number_of_minimal_rings>  (34) 
3

>  <van_der_walls_volume>  (34) 
238.49

>  <contains_sugar>  (34) 
False

>  <contains_ring_sugars>  (34) 
False

>  <contains_linear_sugars>  (34) 
False

>  <murcko_framework>  (34) 
o1ccc2cc3C=CCOc3cc12

>  <np_likeness>  (34) 
1.57

>  <chemical_class>  (34) 
Coumarins and derivatives

>  <chemical_sub_class>  (34) 
Furanocoumarins

>  <chemical_super_class>  (34) 
Phenylpropanoids and polyketides

>  <direct_parent_classification>  (34) 
Psoralens

>  <np_classifier_pathway>  (34) 
Shikimates and Phenylpropanoids

>  <np_classifier_superclass>  (34) 
Coumarins

>  <np_classifier_class>  (34) 
Furocoumarins

>  <np_classifier_is_glycoside>  (34) 
False

>  <organisms>  (34) 
Acanthus montanus|Adlumia fungosa|Aegle Marmelos|Aegle marmelos|Aegle sp.|Aeglopsis chevalieri|Afraegle paniculata|Ajania fastigiata|Allium wallichii|Ambrosia arborescens|Ambrosia polystachya|Ammi majus|Ammi majus L.|Ammi visnaga|Amyris barbata|Amyris lineata|Amyris pinnata|Anastrophyllum donnianum|Angelica Dahurica|Angelica Sinensis|Angelica archangelica|Angelica archangelica L.|Angelica capitellata|Angelica dahurica|Angelica decurrens|Angelica decursiva|Angelica furcijuga|Angelica furcijuga KITAGAWA|Angelica gmelinii|Angelica komarovii|Angelica lucida|Angelica officinalis|Angelica polymorpha|Angelica pubescens|Angelica saxatilis|Angelica sinensis|Angelica sp.|Angelica spp.|Angelica sylvestris L.|Angelica taiwaniana|Angelica talwaniana|Angelica ursina|Angelica ursina Maxim|Annona haematantha|Antidesma membranaceum|Apium graveolens|Apium sp.|Aralia continentalis|Arnica foliosa|Ashitaba|Aspergillus flavus|Atalantia buxifolia|Atalantia ceylanica|Axinella polycapella|Azospirillum lipoferum|Azotobacter chroococcum|Baccharis flabellata|Brachyclados megalanthus|Cachrys sicula|Callitropsis nootkatensis|Changium smyrnioides|Cicerbita alpina|Cirsium canum|Citrus aurantium|Citrus maxima|Citrus medica|Citrus meyeri|Citrus natsudaidai|Citrus reticulata|Citrus sinensis|Citrus trifoliata|Citrus wilsonii|Citrus × deliciosa|Cladonia squamosula|Clausena anisata|Clausena lansium|Cnidium Monnieri|Cnidium monieri|Cnidium monnieri|Colutea arborescens|Coprinopsis atramentaria|Coprinus atramentarius|Cornicularia normoerica|Cudrania tricuspidata|Cyathus helenae|Cystoseira caespitosa|Daphne cannabina|Daucus carota|Decatropis bicolor|Deverra tortuosa|Dinosperma stipitatum|Earias insulana|Eleutherococcus senticosus|Esenbeckia|Esenbeckia grandiflora|Esenbeckia yaxhoob Lundell|Esperiopsis edwardii|Eucalyptus exserta|Euphorbia bivonae|Ferula communis|Ferula foetida|Ferula mogoltavica|Ferula moschata|Ferula sumbul|Ferula syreitschikowii|Foeniculum sp.|Foeniculum vulgare|Fragaria spp.|Garcinia parvifolia|Gardenia jasminoides|Gasteria bicolor|Glehnia Littoralis|Glehnia littoralis|Grindelia integrifolia|Hansenia forbesii|Hansenia weberbaueriana|Heracleum aconitifolium|Heracleum asperum|Heracleum candicans|Heracleum canescens|Heracleum dissectum|Heracleum granatense|Heracleum mantegazzianum|Heracleum mantegazzianum Sommier & Levier|Heracleum moellendorffii|Heracleum moellendorffii Hance|Heracleum moellendorffii Hance var.paucivitatum|Heracleum moellendorffii var. paucivittatum|Heracleum persicum (Fisch.) Desf.|Heracleum pinnatum|Heracleum ponticum|Heracleum rapula|Heracleum sosnowskyi Manden.|Heracleum sp.|Heracleum sphondylium|Heracleum sphondylium L. s.l. (H. sphondylium L. s.str., H. sphondylium subsp. alpinum (L.) Bonnier & Layens, H. sphondylium subsp. elegans (Crantz) Schuebl. & G. Martens and H. sphondylium  subsp. pyrenaicum (Lam.) Bonnier & Layens)|Heracleum spp.|Heracleum woroschiklowii|Hygrophila spinosa|Hypholoma capnoides|Hypoxylon sclerophaeum|Indian beech tree|Inga paterno|Isis hippuris|Juglans regia|Kniphofia tuckii|Lactarius deliciosus var. deterrimus|Leiothrix flavescens|Leonurus heterophyllus|Leptospermum liversidgei|Leptothyrsa sprucei|Levisticum officinale|Levisticum officinale W. D. J. Koch|Levisticum sp.|Ligusticum multivittatum|Maclura tricuspidata|Macrococculus pomiferus|Magydaris pastinacea|Melicope triphylla|Metrodorea flavida|Metrodorea nigra|Murraya Paniculata|Murraya paniculata|Myelois cribrella|Niphogeton ternata|Notopterygium forbesii|Notopterygium incisum|Oplopanax chironium|Opopanax chironium|Oppopanax chironium|Opuntia vulgaris|Orixa japonica|Osteospermum ecklonis|Ostericum grosseserratum|Pamburus missionis|Pastinaca sativa|Pastinaca sativa L.|Pastinaca sp.|Pastinaca spp.|Patrinia villosa|Petroselinum crispum|Petroselinum crispum (Mill.) Fuss|Petroselinum sp.|Peucedanum austriacum (Jacq.) W. D. J. Koch s.l.|Peucedanum carvifolia Vill.|Peucedanum cervaria (L.) Lapeyr.|Peucedanum dhana|Peucedanum japonicum|Peucedanum oreoselinum (L.) Moench|Peucedanum ostruthium|Peucedanum ostruthium (L.) W. D. J. Koch|Peucedanum palustre|Peucedanum palustre (L.) Moench|Peucedanum praeruptorum|Peucedanum rubricaule|Peucedanum venetum (Spreng.) W. D. J. Koch|Peucedanum verticillare (L.) Mert. & W. D. J. Koch|Phebalium canaliculatum|Phebalium drummondii|Phebalium tuberculosum|Phegopteris subaurita|Pilocarpus goudotianus|Pimpinella anisum|Pinus albicaulis|Pinus krempfii|Piper hancei|Piper ovatum|Pleurospermum rivulorum|Podocarpus henckelii|Poncirus trifoliata|Prangos bucharica|Prangos didyma|Prangos ferulacea|Prangos lipskyi|Prangos lophoptera|Prangos pabularia|Prangos platychlaena|Prangos trifida|Prangos tschimganica|Prangos uloptera|Ptelea|Ptelea trifolia|Quercus sessilis|Rhadinothamnus rudis|Rosa transmorrisonensis|Rubus idaeus|Ruta graveolens|Ruta sp.|Salvia lasiantha|Saposhnikovia divaricata|Saposhnikovia divaricata Schischkin|Sauropus quadrangularis|Schenkia spicata|Selinum monniere|Senecio barba-johannis|Seseli buchtormense|Seseli grandivittatum|Seseli mucronatum|Seseli sibiricum|Seseli tortuosum|Seseli tortuosum LBS.Eur.|Seseli webbii Cosson.|Seseli yunnanense|Silene wallichiana|Siphula applanata|Skimmia japonica|Skimmia laureola|Smilax macrophylla|Solanum lycocarpum|Solanum pseudocapsicum|Spilanthes ocymifolia|Spongia hispida|Stauranthus perforatus|Tephrosia lupinifolia|Tephrosia villosa|Tetrataenium canescens|Thalassia testudinum|Thamnosma rhodesica|Thamnosma texana|Thermus thermophilus|Tilletia levis|Tordyliopsis brunonis|Torilis japonica|Trichocline caulescens|Trichocline sinuata|Trifoliate orange|Trixis inula|Ulosa spongia|Vernonia echitifolia|Wedelia forsteriana|White sapote|Zanthoxylum americanum|Zanthoxylum echinocarpum|Zanthoxylum rhoifolium|Zanthoxylum sp.|Zanthoxylum spinosum|Zanthoxylum zanthoxyloides|Zeravschania regeliana|parsley

>  <collections>  (34) 
ANPDB|AfroCancer|AnalytiCon Discovery NPs|Australian natural products|CMAUP (cCollective molecular activities of useful plants)|ChEBI NPs|ConMedNP|FooDB|GNPS (Global Natural Products Social Molecular Networking)|KNApSaCK|Latin America dataset|NANPDB (Natural Products from Northern African Sources)|NPASS|NPEdia|NuBBEDB|Phyto4Health|PhytoLab phyproof® Reference Substances|PubChem NPs|Specs Natural Products|Super Natural II|TCMDB-Taiwan (Traditional Chinese Medicine database)|TCMID (Traditional Chinese Medicine Integrated Database)|TIPdb (database of Taiwan indigenous plants)|TPPT (Toxic Plants–PhytoToxins)|UNPD (Universal Natural Products Database)|VietHerb|WikiData Natural Products

>  <dois>  (34) 
10.1002/(SICI)1099-1565(199811/12)9:6<283::AID-PCA419>3.0.CO;2-9|10.1002/(SICI)1099-1565(199909/10)10:5<268::AID-PCA467>3.0.CO;2-Z|10.1002/(SICI)1099-1573(1998)12:1+<S25::AID-PTR239>3.0.CO;2-N|10.1002/(SICI)1099-1573(1998)12:1+<S74::AID-PTR255>3.0.CO;2-V|10.1002/9780470744307.gat218|10.1002/CHIN.200047207|10.1002/JHRC.1240181213|10.1002/JLAC.197919791116|10.1002/JPS.2600580605|10.1002/PCA.2800030108|10.1002/PCA.687|10.1002/PCA.937|10.1002/PTR.2650040604|10.1002/PTR.2650080303|10.1002/PTR.3690|10.1002/RCM.3559|10.1002/RECL.19680870808|10.1002/biuz.19840140514|10.1002/food.19880321030|10.1007/978-3-642-71425-2_1|10.1007/BF00563826|10.1007/BF00563960|10.1007/BF00563962|10.1007/BF00563983|10.1007/BF00565847|10.1007/BF00567813|10.1007/BF00568603|10.1007/BF00570686|10.1007/BF00576102|10.1007/BF00579653|10.1007/BF00580082|10.1007/BF00595082|10.1007/BF00600845|10.1007/BF00993733|10.1007/BF02234865|10.1007/BF02974073|10.1007/BF02974172|10.1007/BF02975883|10.1007/BF02976556|10.1007/BF02977004|10.1007/S10600-011-0026-Y|10.1016/0031-9422(73)85149-0|10.1016/0031-9422(75)85267-8|10.1016/0031-9422(75)85329-5|10.1016/0031-9422(75)85397-0|10.1016/0031-9422(86)88019-0|10.1016/0031-9422(89)80056-1|10.1016/0031-9422(92)83450-D|10.1016/0031-9422(94)85101-8|10.1016/0031-9422(95)00504-Z|10.1016/0031-9422(95)00625-7|10.1016/0165-7992(90)90123-2|10.1016/0305-1978(92)90104-L|10.1016/0306-3623(95)02143-4|10.1016/0378-8741(94)01215-L|10.1016/J.BSE.2004.12.020|10.1016/J.CHROMA.2010.04.076|10.1016/J.FITOTE.2003.08.004|10.1016/J.FOODCHEM.2011.09.099|10.1016/J.JEP.2004.03.054|10.1016/J.JPBA.2019.03.056|10.1016/J.PHYMED.2003.12.005|10.1016/J.PHYTOCHEM.2003.12.020|10.1016/J.PHYTOCHEM.2009.10.013|10.1016/J.PHYTOL.2011.08.013|10.1016/S0021-9673(00)00321-6|10.1016/S0021-9673(01)84214-X|10.1016/S0031-9422(00)80348-9|10.1016/S0031-9422(00)81503-4|10.1016/S0031-9422(00)81759-8|10.1016/S0031-9422(00)82295-5|10.1016/S0031-9422(00)83503-7|10.1016/S0031-9422(00)84114-X|10.1016/S0031-9422(00)85511-9|10.1016/S0031-9422(00)85512-0|10.1016/S0031-9422(00)90455-2|10.1016/S0031-9422(00)95225-7|10.1016/S0031-9422(00)98112-3|10.1016/S0031-9422(01)00248-5|10.1016/S0031-9422(02)00023-7|10.1016/S0031-9422(96)00634-6|10.1016/S0031-9422(97)00123-4|10.1016/S0031-9422(97)00528-1|10.1016/S0031-9422(98)00110-1|10.1016/S0031-9422(98)00638-4|10.1016/S0031-9422(99)00554-3|10.1016/S0039-9140(01)00327-7|10.1016/S0040-4020(01)82304-8|10.1016/S0040-4020(01)88928-6|10.1016/S0040-4039(00)72373-2|10.1016/S0304-3835(99)00248-7|10.1016/S0305-1978(01)00104-1|10.1016/S0305-1978(98)00107-0|10.1016/s0031-9422(00)81503-4|10.1021/ACS.JNATPROD.6B00204|10.1021/JA01166A523|10.1021/JF00111A001|10.1021/JO01014A022|10.1021/JO01273A076|10.1021/NP0340652|10.1021/NP0401462|10.1021/NP049706N|10.1021/NP049933P|10.1021/NP050301S|10.1021/NP200072A|10.1021/NP50015A016|10.1021/NP50039A030|10.1021/NP50046A035|10.1021/NP50047A044|10.1021/NP50048A034|10.1021/NP50050A046|10.1021/NP50060A016|10.1021/NP50062A003|10.1021/NP50085A003|10.1021/NP990522W|10.1021/np50085a003|10.1039/P19720002116|10.1055/S-0029-1243137|10.1055/S-2000-14894|10.1055/S-2001-11509|10.1055/S-2001-12013|10.1055/S-2002-32075|10.1055/S-2003-38876|10.1055/S-2003-39702|10.1055/S-2003-45188|10.1055/S-2006-951724|10.1055/S-2006-957653|10.1055/S-2006-957985|10.1055/S-2006-960965|10.1055/S-2006-961705|10.1055/S-2006-961919|10.1055/S-2006-961931|10.1055/S-2006-962141|10.1055/S-2006-962751|10.1055/S-2007-969254|10.1055/S-2007-969990|10.1076/1388-0209(200009)3841-AFT308|10.1080/10286020290019677|10.1080/15287398409530517|10.1135/CCCC19861509|10.1139/V62-059|10.1186/2191-2858-2-1|10.1211/0022357011776432|10.1211/0022357991777218|10.1248/BPB.24.1012|10.1248/BPB.25.260|10.1248/CPB.28.1847|10.1248/CPB.31.64|10.1248/CPB.33.1676|10.1248/CPB.38.1084|10.1248/CPB.46.1939|10.1248/CPB.49.154|10.1248/CPB.49.877|10.1248/CPB.50.115|10.1248/CPB.54.897|10.1248/CPB.56.839|10.1248/YAKUSHI1947.103.10_1091|10.1248/YAKUSHI1947.87.4_464|10.1254/JJP.85.95|10.1515/ZNB-2005-0514|10.1590/S0102-695X2008000100002|10.1590/S0103-50532010000400012|10.1590/S0103-50532011000100024|10.3390/MOLECULES14082729|10.3987/R-1986-02-0437|10.4268/CJCMM20101214

>  <synonyms>  (34) 
nan

>  <cas>  (34) 
482-44-0

$$$$

     RDKit          2D

 63 69  0  0  0  0  0  0  0  0999 V2000
  -13.3004    1.9747    0.0000 C   0  0  0  0  0  0  0  0  0  0  0  0
  -11.8009    2.0102    0.0000 C   0  0  0  0  0  0  0  0  0  0  0  0
  -11.0203    0.7293    0.0000 O   0  0  0  0  0  0  0  0  0  0  0  0
   -9.5208    0.7648    0.0000 C   0  0  0  0  0  0  0  0  0  0  0  0
   -8.7402   -0.5162    0.0000 O   0  0  0  0  0  0  0  0  0  0  0  0
   -7.2407   -0.4807    0.0000 C   0  0  0  0  0  0  0  0  0  0  0  0
   -6.4601   -1.7616    0.0000 C   0  0  0  0  0  0  0  0  0  0  0  0
   -4.9606   -1.7262    0.0000 O   0  0  0  0  0  0  0  0  0  0  0  0
   -4.1800   -3.0071    0.0000 C   0  0  0  0  0  0  0  0  0  0  0  0
   -2.6805   -2.9716    0.0000 O   0  0  0  0  0  0  0  0  0  0  0  0
   -1.9614   -1.6552    0.0000 C   0  0  0  0  0  0  0  0  0  0  0  0
   -2.7419   -0.3743    0.0000 C   0  0  0  0  0  0  0  0  0  0  0  0
   -4.2415   -0.4097    0.0000 O   0  0  0  0  0  0  0  0  0  0  0  0
   -2.0229    0.9422    0.0000 C   0  0  0  0  0  0  0  0  0  0  0  0
   -2.8034    2.2231    0.0000 C   0  0  0  0  0  0  0  0  0  0  0  0
   -0.5233    0.9776    0.0000 O   0  0  0  0  0  0  0  0  0  0  0  0
    0.2572   -0.3033    0.0000 C   0  0  0  0  0  0  0  0  0  0  0  0
    1.7568   -0.2678    0.0000 O   0  0  0  0  0  0  0  0  0  0  0  0
    2.4759    1.0486    0.0000 C   0  0  0  0  0  0  0  0  0  0  0  0
    3.9755    1.0841    0.0000 C   0  0  0  0  0  0  0  0  0  0  0  0
    4.7560   -0.1969    0.0000 O   0  0  0  0  0  0  0  0  0  0  0  0
    6.2556   -0.1614    0.0000 C   0  0  0  0  0  0  0  0  0  0  0  0
    7.0361   -1.4423    0.0000 C   0  0  0  0  0  0  0  0  0  0  0  0
    6.3170   -2.7587    0.0000 C   0  0  0  0  0  0  0  0  0  0  0  0
    4.8174   -2.7942    0.0000 C   0  0  0  0  0  0  0  0  0  0  0  0
    4.0984   -4.1106    0.0000 C   0  0  0  0  0  0  0  0  0  0  0  0
    4.8789   -5.3915    0.0000 C   0  0  0  0  0  0  0  0  0  0  0  0
    4.1598   -6.7080    0.0000 O   0  0  0  0  0  0  0  0  0  0  0  0
    6.3785   -5.3561    0.0000 C   0  0  0  0  0  0  0  0  0  0  0  0
    7.0975   -4.0397    0.0000 C   0  0  0  0  0  0  0  0  0  0  0  0
    8.5357   -1.4068    0.0000 O   0  0  0  0  0  0  0  0  0  0  0  0
    9.2547   -0.0904    0.0000 C   0  0  0  0  0  0  0  0  0  0  0  0
   10.7543   -0.0549    0.0000 C   0  0  0  0  0  0  0  0  0  0  0  0
   11.4734    1.2615    0.0000 C   0  0  0  0  0  0  0  0  0  0  0  0
   12.9730    1.2970    0.0000 O   0  0  0  0  0  0  0  0  0  0  0  0
   10.6929    2.5424    0.0000 C   0  0  0  0  0  0  0  0  0  0  0  0
    9.1933    2.5069    0.0000 C   0  0  0  0  0  0  0  0  0  0  0  0
    8.4128    3.7879    0.0000 O   0  0  0  0  0  0  0  0  0  0  0  0
    8.4742    1.1905    0.0000 C   0  0  0  0  0  0  0  0  0  0  0  0
    6.9746    1.1550    0.0000 C   0  0  0  0  0  0  0  0  0  0  0  0
    6.1941    2.4360    0.0000 O   0  0  0  0  0  0  0  0  0  0  0  0
    4.6945    2.4005    0.0000 O   0  0  0  0  0  0  0  0  0  0  0  0
    3.9140    3.6814    0.0000 C   0  0  0  0  0  0  0  0  0  0  0  0
    4.6331    4.9978    0.0000 C   0  0  0  0  0  0  0  0  0  0  0  0
    3.8526    6.2788    0.0000 O   0  0  0  0  0  0  0  0  0  0  0  0
    2.4144    3.6460    0.0000 C   0  0  0  0  0  0  0  0  0  0  0  0
    1.6339    4.9269    0.0000 O   0  0  0  0  0  0  0  0  0  0  0  0
    1.6954    2.3295    0.0000 C   0  0  0  0  0  0  0  0  0  0  0  0
    0.1958    2.2941    0.0000 O   0  0  0  0  0  0  0  0  0  0  0  0
   -0.4618   -1.6197    0.0000 C   0  0  0  0  0  0  0  0  0  0  0  0
    0.3187   -2.9006    0.0000 O   0  0  0  0  0  0  0  0  0  0  0  0
   -4.8991   -4.3235    0.0000 C   0  0  0  0  0  0  0  0  0  0  0  0
   -4.1186   -5.6044    0.0000 O   0  0  0  0  0  0  0  0  0  0  0  0
   -6.3987   -4.3590    0.0000 C   0  0  0  0  0  0  0  0  0  0  0  0
   -7.1177   -5.6754    0.0000 O   0  0  0  0  0  0  0  0  0  0  0  0
   -7.1792   -3.0781    0.0000 C   0  0  0  0  0  0  0  0  0  0  0  0
   -8.6788   -3.1135    0.0000 O   0  0  0  0  0  0  0  0  0  0  0  0
   -8.8017    2.0812    0.0000 C   0  0  0  0  0  0  0  0  0  0  0  0
   -7.3021    2.1166    0.0000 O   0  0  0  0  0  0  0  0  0  0  0  0
   -9.5822    3.3621    0.0000 C   0  0  0  0  0  0  0  0  0  0  0  0
   -8.8631    4.6785    0.0000 O   0  0  0  0  0  0  0  0  0  0  0  0
  -11.0818    3.3266    0.0000 C   0  0  0  0  0  0  0  0  0  0  0  0
  -11.8623    4.6076    0.0000 O   0  0  0  0  0  0  0  0  0  0  0  0
  2  1  1  1
  2  3  1  0
  3  4  1  0
  4  5  1  6
  5  6  1  0
  7  6  1  1
  7  8  1  0
  8  9  1  0
  9 10  1  1
 11 10  1  6
 11 12  1  0
 12 13  1  1
 12 14  1  0
 14 15  1  6
 14 16  1  0
 16 17  1  0
 17 18  1  1
 19 18  1  6
 19 20  1  0
 20 21  1  1
 21 22  1  0
 22 23  2  0
 23 24  1  0
 24 25  2  0
 25 26  1  0
 26 27  2  0
 27 28  1  0
 27 29  1  0
 29 30  2  0
 23 31  1  0
 31 32  1  0
 32 33  2  0
 33 34  1  0
 34 35  1  0
 34 36  2  0
 36 37  1  0
 37 38  1  0
 37 39  2  0
 39 40  1  0
 40 41  2  0
 20 42  1  0
 42 43  1  0
 43 44  1  1
 44 45  1  0
 43 46  1  0
 46 47  1  6
 46 48  1  0
 48 49  1  1
 17 50  1  0
 50 51  1  6
  9 52  1  0
 52 53  1  6
 52 54  1  0
 54 55  1  1
 54 56  1  0
 56 57  1  6
  4 58  1  0
 58 59  1  1
 58 60  1  0
 60 61  1  1
 60 62  1  0
 62 63  1  6
 62  2  1  0
 56  7  1  0
 50 11  1  0
 48 19  1  0
 40 22  1  0
 30 24  1  0
 39 32  1  0
M  END
>  <identifier>  (35) 
CNP0336506.1

>  <canonical_smiles>  (35) 
C[C@@H]1O[C@@H](OC[C@H]2O[C@@H](O[C@@H]3[C@@H](O)[C@H](C)O[C@@H](O[C@H]4[C@H](OC5=C(C6=CC=C(O)C=C6)OC6=CC(O)=CC(O)=C6C5=O)O[C@H](CO)[C@@H](O)[C@@H]4O)[C@@H]3O)[C@H](O)[C@@H](O)[C@@H]2O)[C@H](O)[C@H](O)[C@H]1O

>  <standard_inchi>  (35) 
InChI=1S/C39H50O24/c1-11-21(44)26(49)29(52)36(56-11)55-10-19-24(47)27(50)30(53)37(60-19)61-33-22(45)12(2)57-38(31(33)54)63-35-28(51)23(46)18(9-40)59-39(35)62-34-25(48)20-16(43)7-15(42)8-17(20)58-32(34)13-3-5-14(41)6-4-13/h3-8,11-12,18-19,21-24,26-31,33,35-47,49-54H,9-10H2,1-2H3/t11-,12-,18+,19+,21-,22-,23+,24+,26+,27-,28-,29+,30+,31+,33+,35+,36+,37-,38-,39-/m0/s1

>  <standard_inchi_key>  (35) 
JZYJKFSLZORUHU-MXOVRRHFSA-N

>  <name>  (35) 
nan

>  <iupac_name>  (35) 
3-[(2~{S},3~{R},4~{S},5~{S},6~{R})-3-[(2~{S},3~{R},4~{R},5~{S},6~{S})-3,5-dihydroxy-6-methyl-4-[(2~{S},3~{R},4~{S},5~{S},6~{R})-3,4,5-trihydroxy-6-[[(2~{R},3~{R},4~{R},5~{R},6~{S})-3,4,5-trihydroxy-6-methyl-tetrahydropyran-2-yl]oxymethyl]tetrahydropyran-2-yl]oxy-tetrahydropyran-2-yl]oxy-4,5-dihydroxy-6-(hydroxymethyl)tetrahydropyran-2-yl]oxy-5,7-dihydroxy-2-(4-hydroxyphenyl)chromen-4-one

>  <annotation_level>  (35) 
5

>  <total_atom_count>  (35) 
113

>  <heavy_atom_count>  (35) 
63

>  <molecular_weight>  (35) 
902.81

>  <exact_molecular_weight>  (35) 
902.2692

>  <molecular_formula>  (35) 
C39H50O24

>  <alogp>  (35) 
-4.72

>  <topological_polar_surface_area>  (35) 
387.27

>  <rotatable_bond_count>  (35) 
11

>  <hydrogen_bond_acceptors>  (35) 
24

>  <hydrogen_bond_donors>  (35) 
14

>  <hydrogen_bond_acceptors_lipinski>  (35) 
24

>  <hydrogen_bond_donors_lipinski>  (35) 
14

>  <lipinski_rule_of_five_violations>  (35) 
3

>  <aromatic_rings_count>  (35) 
3

>  <qed_drug_likeliness>  (35) 
0.09

>  <formal_charge>  (35) 
0

>  <fractioncsp3>  (35) 
0.62

>  <number_of_minimal_rings>  (35) 
7

>  <van_der_walls_volume>  (35) 
737.79

>  <contains_sugar>  (35) 
True

>  <contains_ring_sugars>  (35) 
True

>  <contains_linear_sugars>  (35) 
False

>  <murcko_framework>  (35) 
O1c2ccccc2CC(OC3OCCCC3OC4OCCC(OC5OC(COC6OCCCC6)CCC5)C4)=C1c7ccccc7

>  <np_likeness>  (35) 
1.69

>  <chemical_class>  (35) 
Flavonoids

>  <chemical_sub_class>  (35) 
Flavonoid glycosides

>  <chemical_super_class>  (35) 
Phenylpropanoids and polyketides

>  <direct_parent_classification>  (35) 
Flavonoid-3-O-glycosides

>  <np_classifier_pathway>  (35) 
Shikimates and Phenylpropanoids

>  <np_classifier_superclass>  (35) 
Flavonoids

>  <np_classifier_class>  (35) 
Flavonols

>  <np_classifier_is_glycoside>  (35) 
True

>  <organisms>  (35) 
Maytenus aquifolium|Monteverdia aquifolium

>  <collections>  (35) 
ChemSpider NPs|Latin America dataset|NuBBEDB|WikiData Natural Products|ZINC NP

>  <dois>  (35) 
10.1002/PTR.1249|10.1002/ptr.1249

>  <synonyms>  (35) 
Kaempferol 3-O-\u221a\u00e9\u00ac\u00b1-L-rhamnopyranosyl (1\u221a\u00a2\u201a\u00c4\u2020\u201a\u00c4\u00f46)-O-[\u221a\u00e9\u00ac\u2264 -D-glucopyranosyl (1\u221a\u00a2\u201a\u00c4\u2020\u201a\u00c4\u00f43)-O-\u221a\u00e9\u00ac\u00b1-L-rhamnopyranosyl-(1\u221a\u00a2\u201a\u00c4\u2020\u201a\u00c4\u00f42)]-O-\u221a\u00e9\u00ac\u2264 -D-glucopyranosyl

>  <cas>  (35) 
nan

$$$$

     RDKit          2D

 25 27  0  0  0  0  0  0  0  0999 V2000
   -8.1187    1.5319    0.0000 C   0  0  0  0  0  0  0  0  0  0  0  0
   -7.4826    0.1734    0.0000 O   0  0  0  0  0  0  0  0  0  0  0  0
   -5.9881    0.0450    0.0000 C   0  0  0  0  0  0  0  0  0  0  0  0
   -5.1297    1.2751    0.0000 C   0  0  0  0  0  0  0  0  0  0  0  0
   -3.6352    1.1467    0.0000 C   0  0  0  0  0  0  0  0  0  0  0  0
   -2.9991   -0.2117    0.0000 C   0  0  0  0  0  0  0  0  0  0  0  0
   -1.5046   -0.3401    0.0000 C   0  0  0  0  0  0  0  0  0  0  0  0
   -0.8686   -1.6986    0.0000 C   0  0  0  0  0  0  0  0  0  0  0  0
    0.6259   -1.8270    0.0000 C   0  0  0  0  0  0  0  0  0  0  0  0
    1.2620   -3.1854    0.0000 O   0  0  0  0  0  0  0  0  0  0  0  0
    1.4844   -0.5969    0.0000 C   0  0  0  0  0  0  0  0  0  0  0  0
    2.9789   -0.7253    0.0000 C   0  0  0  0  0  0  0  0  0  0  0  0
    3.6149   -2.0837    0.0000 O   0  0  0  0  0  0  0  0  0  0  0  0
    5.1094   -2.2121    0.0000 C   0  0  0  0  0  0  0  0  0  0  0  0
    3.8373    0.5048    0.0000 C   0  0  0  0  0  0  0  0  0  0  0  0
    5.3318    0.3764    0.0000 O   0  0  0  0  0  0  0  0  0  0  0  0
    5.9678   -0.9820    0.0000 C   0  0  0  0  0  0  0  0  0  0  0  0
    3.2012    1.8633    0.0000 C   0  0  0  0  0  0  0  0  0  0  0  0
    4.0596    3.0934    0.0000 O   0  0  0  0  0  0  0  0  0  0  0  0
    5.5541    2.9650    0.0000 C   0  0  0  0  0  0  0  0  0  0  0  0
    1.7067    1.9917    0.0000 C   0  0  0  0  0  0  0  0  0  0  0  0
    0.8483    0.7616    0.0000 C   0  0  0  0  0  0  0  0  0  0  0  0
   -0.6462    0.8900    0.0000 O   0  0  0  0  0  0  0  0  0  0  0  0
   -3.8576   -1.4418    0.0000 C   0  0  0  0  0  0  0  0  0  0  0  0
   -5.3521   -1.3134    0.0000 C   0  0  0  0  0  0  0  0  0  0  0  0
  1  2  1  0
  2  3  1  0
  3  4  2  0
  4  5  1  0
  5  6  2  0
  6  7  1  0
  7  8  2  0
  8  9  1  0
  9 10  2  0
  9 11  1  0
 11 12  2  0
 12 13  1  0
 13 14  1  0
 12 15  1  0
 15 16  1  0
 16 17  1  0
 15 18  2  0
 18 19  1  0
 19 20  1  0
 18 21  1  0
 21 22  2  0
 22 23  1  0
  6 24  1  0
 24 25  2  0
 25  3  1  0
 23  7  1  0
 22 11  1  0
M  END
>  <identifier>  (36) 
CNP0133041.0

>  <canonical_smiles>  (36) 
COC1=CC=C(C2=CC(=O)C3=C(OC)C(OC)=C(OC)C=C3O2)C=C1

>  <standard_inchi>  (36) 
InChI=1S/C19H18O6/c1-21-12-7-5-11(6-8-12)14-9-13(20)17-15(25-14)10-16(22-2)18(23-3)19(17)24-4/h5-10H,1-4H3

>  <standard_inchi_key>  (36) 
URSUMOWUGDXZHU-UHFFFAOYSA-N

>  <name>  (36) 
Scutellarein tetramethyl ether

>  <iupac_name>  (36) 
5,6,7-trimethoxy-2-(4-methoxyphenyl)chromen-4-one

>  <annotation_level>  (36) 
5

>  <total_atom_count>  (36) 
43

>  <heavy_atom_count>  (36) 
25

>  <molecular_weight>  (36) 
342.35

>  <exact_molecular_weight>  (36) 
342.11034

>  <molecular_formula>  (36) 
C19H18O6

>  <alogp>  (36) 
3.49

>  <topological_polar_surface_area>  (36) 
67.13

>  <rotatable_bond_count>  (36) 
5

>  <hydrogen_bond_acceptors>  (36) 
6

>  <hydrogen_bond_donors>  (36) 
0

>  <hydrogen_bond_acceptors_lipinski>  (36) 
6

>  <hydrogen_bond_donors_lipinski>  (36) 
0

>  <lipinski_rule_of_five_violations>  (36) 
0

>  <aromatic_rings_count>  (36) 
3

>  <qed_drug_likeliness>  (36) 
0.71

>  <formal_charge>  (36) 
0

>  <fractioncsp3>  (36) 
0.21

>  <number_of_minimal_rings>  (36) 
3

>  <van_der_walls_volume>  (36) 
299.02

>  <contains_sugar>  (36) 
False

>  <contains_ring_sugars>  (36) 
False

>  <contains_linear_sugars>  (36) 
False

>  <murcko_framework>  (36) 
O1c2ccccc2CC=C1c3ccccc3

>  <np_likeness>  (36) 
0.78

>  <chemical_class>  (36) 
Flavonoids

>  <chemical_sub_class>  (36) 
O-methylated flavonoids

>  <chemical_super_class>  (36) 
Phenylpropanoids and polyketides

>  <direct_parent_classification>  (36) 
6-O-methylated flavonoids

>  <np_classifier_pathway>  (36) 
Shikimates and Phenylpropanoids

>  <np_classifier_superclass>  (36) 
Flavonoids

>  <np_classifier_class>  (36) 
Flavones

>  <np_classifier_is_glycoside>  (36) 
False

>  <organisms>  (36) 
Ageratina altissima|Angelica ursina|Ardisia macrocarpa|Asplenium nidus|Asterias rubens|Astragalus inopinatus|Callicarpa japonica|Celmisia petriei|Cherry Orange|Chlorophytum malayense|Chromolaena Odorata|Chromolaena odorata|Chroogomphus rutilus|Cirsium helenioides|Citrus Aurantium|Citrus Sinensis|Citrus aurantium|Citrus japonica|Citrus reticulata|Citrus sinensis|Citrus spp.|Citrus × deliciosa|Clausena indica|Cleistochlamys kirkii|Clusia torresii|Colebrookia oppositifolia|Croton caudatus|Empetrum nigrum|Enterococcus faecalis|Ephedra lomatolepis|Eriogaster lanestris|Erythrina schliebenii|Euonymus maackii|Ferula assa-foetida|Ficus Altissima|Ficus altissima|Gentiana olivieri|Gnetum cleistostachyum|Handroanthus guayacan|Igernella notabilis|Ircinia aruensis|Jateorhiza palmata|Kickxia spuria|Kumquat|Laurencia mariannensis|Lindera umbellata|Marrubium peregrinum|Marrubium velutinum|Maytenus guianensis|Melibe leonina|Mentha aquatica var. citrata|Mentha x citrata|Morus yunnanensis|Nicotiana gossei|Oceanapia phillipensis|Ophioplocus japonicus|Orthosiphon aristatus|Orthosiphon grandiflorus|Orthosiphon spicatus|Orthosiphon stamineus|Oryza sativa|Phellodendron amurense|Phleum africanum|Picradeniopsis oppositifolia|Pinus halepensis|Pinus thunbergii|Populus tremula|Primula veris|Pterocaulon rugosum|Rauvolfia tetraphylla|Rutaceae|Salvia officinalis|Salvia prionitis|Salvia tingitana|Satureja montana|Saussurea triangulata|Senecio grandiflorus|Senecio integerrimus|Stephania succifera|Stevia salicifolia|Tetraria capillaris|Teucrium alyssifolium|Ulmus laciniata|Vernonia serratuloides|Zephyranthes carinata

>  <collections>  (36) 
ANPDB|AnalytiCon Discovery NPs|CMAUP (cCollective molecular activities of useful plants)|ChEBI NPs|FooDB|GNPS (Global Natural Products Social Molecular Networking)|InflamNat|KNApSaCK|Latin America dataset|NANPDB (Natural Products from Northern African Sources)|NPACT|NPASS|NPEdia|NuBBEDB|Phenol-explorer|Phyto4Health|PubChem NPs|Super Natural II|TCMDB-Taiwan (Traditional Chinese Medicine database)|TCMID (Traditional Chinese Medicine Integrated Database)|TIPdb (database of Taiwan indigenous plants)|UNPD (Universal Natural Products Database)|VietHerb|WikiData Natural Products

>  <dois>  (36) 
10.1002/JSSC.201300794|10.1007/BF00636017|10.1016/0031-9422(93)85530-5|10.1016/J.BMC.2007.01.035|10.1016/J.JPBA.2019.03.056|10.1016/J.PHYTOCHEM.2005.02.029|10.1016/S0031-9422(97)01042-X|10.1016/S0305-1978(99)00065-4|10.1016/j.bmc.2007.01.035|10.1021/NP000607T|10.1021/acs.jnatprod.6b00759|10.1021/acs.jnatprod.6b00839|10.1021/acs.jnatprod.9b01024|10.1021/jf801103p|10.1021/jf990176o|10.1021/np000607t|10.1055/S-2006-962099|10.1248/CPB.41.714|10.1248/CPB.48.1711|10.1248/CPB.48.433|10.1248/CPB.49.1356|10.3390/MOLECULES15031097|10.3390/MOLECULES22071114|10.3987/COM-08-S(F)79|10.4314/TJPR.V16I9.22|10.4314/tjpr.v16i9.22

>  <synonyms>  (36) 
1168-42-9|4',5,6,7-Tetramethoxyflavone|4H-1-Benzopyran-4-one, 5,6,7-trimethoxy-2-(4-methoxyphenyl)-|5,6,7,4'-Tetramethoxyflavone|5,6,7-Trimethoxy-2-(4-methoxyphenyl)-4H-1-benzopyran-4-one|5,6,7-trimethoxy-2-(4-methoxyphenyl)chromen-4-one|5-METHOXYSALVIGENIN|ACon1_001966|AKOS015969703|BCP10002|BDBM50451668|BRD-K36475601-001-01-8|CCG-35304|CHEBI:34357|CHEMBL75349|CS-0032724|DB-041341|DTXCID4074013|DTXSID60151522|DWN851IYG6|E80724|Flavone, 4',5,6,7-tetramethoxy-|Flavone, 5,6,7,4'-tetramethoxy|HMS2271J05|HY-N4314|LMPK12111167|MFCD00017442|MLS001048998|MS-25233|NCGC00179960-01|NCGC00179960-02!5,6,7-trimethoxy-2-(4-methoxyphenyl)chromen-4-one|NCI60_004329|NCIMech_000290|NS00134226|NSC 53908|NSC-53908|Oprea1_070007|PECTOLINARIGENIN DIMETHYL ETHER|Q27116014|Rutaceae|SCHEMBL739115|SMR000387012|STL578194|Scutellarein 5,6,7,4'-tetramethyl ether|Scutellarein tetramethylether|T3970|Tetra-O-methylscutellarein|Tetra-Omethylscutellarein, 4'567-tetramethoxyflavone|Tetramethyl-O-scutellarin|Tetrametlglscutellarein|UNII-DWN851IYG6|tetramethylscutellarein

>  <cas>  (36) 
1168-42-9

$$$$

     RDKit          2D

 17 19  0  0  0  0  0  0  0  0999 V2000
   -4.1821   -1.8222    0.0000 C   0  0  0  0  0  0  0  0  0  0  0  0
   -3.6376   -0.4245    0.0000 C   0  0  0  0  0  0  0  0  0  0  0  0
   -5.1086   -0.1310    0.0000 C   0  0  0  0  0  0  0  0  0  0  0  0
   -3.6040    1.0751    0.0000 C   0  0  0  0  0  0  0  0  0  0  0  0
   -2.2885    1.7958    0.0000 C   0  0  0  0  0  0  0  0  0  0  0  0
   -1.0066    1.0169    0.0000 C   0  0  0  0  0  0  0  0  0  0  0  0
    0.3089    1.7376    0.0000 C   0  0  0  0  0  0  0  0  0  0  0  0
    1.5908    0.9586    0.0000 C   0  0  0  0  0  0  0  0  0  0  0  0
    1.5572   -0.5410    0.0000 C   0  0  0  0  0  0  0  0  0  0  0  0
    0.2417   -1.2617    0.0000 C   0  0  0  0  0  0  0  0  0  0  0  0
   -1.0402   -0.4827    0.0000 C   0  0  0  0  0  0  0  0  0  0  0  0
   -2.3557   -1.2034    0.0000 O   0  0  0  0  0  0  0  0  0  0  0  0
    2.8391   -1.3199    0.0000 O   0  0  0  0  0  0  0  0  0  0  0  0
    4.1546   -0.5992    0.0000 C   0  0  0  0  0  0  0  0  0  0  0  0
    5.4365   -1.3782    0.0000 O   0  0  0  0  0  0  0  0  0  0  0  0
    4.1883    0.9004    0.0000 C   0  0  0  0  0  0  0  0  0  0  0  0
    2.9064    1.6793    0.0000 C   0  0  0  0  0  0  0  0  0  0  0  0
  1  2  1  0
  2  3  1  0
  2  4  1  0
  4  5  2  0
  5  6  1  0
  6  7  2  0
  7  8  1  0
  8  9  2  0
  9 10  1  0
 10 11  2  0
 11 12  1  0
  9 13  1  0
 13 14  1  0
 14 15  2  0
 14 16  1  0
 16 17  2  0
 12  2  1  0
 11  6  1  0
 17  8  1  0
M  END
>  <identifier>  (37) 
CNP0195687.0

>  <canonical_smiles>  (37) 
CC1(C)C=CC2=CC3=C(C=C2O1)OC(=O)C=C3

>  <standard_inchi>  (37) 
InChI=1S/C14H12O3/c1-14(2)6-5-10-7-9-3-4-13(15)16-11(9)8-12(10)17-14/h3-8H,1-2H3

>  <standard_inchi_key>  (37) 
QOTBQNVNUBKJMS-UHFFFAOYSA-N

>  <name>  (37) 
Xanthyletin

>  <iupac_name>  (37) 
2,2-dimethylpyrano[3,2-g]chromen-8-one

>  <annotation_level>  (37) 
5

>  <total_atom_count>  (37) 
29

>  <heavy_atom_count>  (37) 
17

>  <molecular_weight>  (37) 
228.25

>  <exact_molecular_weight>  (37) 
228.07864

>  <molecular_formula>  (37) 
C14H12O3

>  <alogp>  (37) 
2.98

>  <topological_polar_surface_area>  (37) 
39.44

>  <rotatable_bond_count>  (37) 
0

>  <hydrogen_bond_acceptors>  (37) 
3

>  <hydrogen_bond_donors>  (37) 
0

>  <hydrogen_bond_acceptors_lipinski>  (37) 
3

>  <hydrogen_bond_donors_lipinski>  (37) 
0

>  <lipinski_rule_of_five_violations>  (37) 
0

>  <aromatic_rings_count>  (37) 
2

>  <qed_drug_likeliness>  (37) 
0.65

>  <formal_charge>  (37) 
0

>  <fractioncsp3>  (37) 
0.21

>  <number_of_minimal_rings>  (37) 
3

>  <van_der_walls_volume>  (37) 
201.89

>  <contains_sugar>  (37) 
False

>  <contains_ring_sugars>  (37) 
False

>  <contains_linear_sugars>  (37) 
False

>  <murcko_framework>  (37) 
O1c2cc3OCC=Cc3cc2C=CC1

>  <np_likeness>  (37) 
2.14

>  <chemical_class>  (37) 
Coumarins and derivatives

>  <chemical_sub_class>  (37) 
Pyranocoumarins

>  <chemical_super_class>  (37) 
Phenylpropanoids and polyketides

>  <direct_parent_classification>  (37) 
Linear pyranocoumarins

>  <np_classifier_pathway>  (37) 
Shikimates and Phenylpropanoids

>  <np_classifier_superclass>  (37) 
Coumarins

>  <np_classifier_class>  (37) 
Pyranocoumarins

>  <np_classifier_is_glycoside>  (37) 
False

>  <organisms>  (37) 
Acanthophyllum sordidum|Aceriphyllum rossii|Aconitum habaense|Aconitum tanguticum|Agnorhiza bolanderi|Alligator mississippiensis|Anagallis arvensis|Anaxagorea clavata|Angelica gigas|Aphelandra chamissoniana|Araujia sericifera|Aria pallescens|Arnica nevadensis|Artemisia monogyna|Atalantia racemosa|Bassia butyracea|Bauhinia racemosa|Beyeria brevifolia|Boenninghausenia Albiflora|Boenninghausenia albiflora|Boronia lanceolata|Bougainvillea glabra|Brosimum brevipedunculatum|Brosimum gaudichaudii|Brosimum guianense|Brosimum lanciferum|Brosimum lecointei|Brosimum paraense|Brosimum parinarioides|Brosimum potabile|Brosimum rubescens|Brosimum sp.|Brosimum utile|Bryopsis pennata|Bursaria spinosa|Chloranthus tianmushanensis|Chloroxylon swietenia|Chromolaena odorata|Chromolaena pulchella|Cirsium canum|Citrus Aurantifolia|Citrus aurantifolia|Citrus aurantiifolia|Citrus canariculata|Citrus depressa|Citrus funadoko|Citrus grandis|Citrus hassaku|Citrus jambhiri|Citrus japonica|Citrus limon|Citrus limonia|Citrus medica|Citrus medica var. etrog|Citrus nobilis|Citrus reticulata|Citrus rugulosa|Citrus sinensis|Citrus sulcata|Citrus tachibana|Citrus tamurana|Citrus tankan|Citrus × deliciosa|Citrus × paradisi|Cladonia evansii|Clausena Excavata|Clausena excavata|Clonostachys rosea|Coccus fagi|Cudrania tricuspidata|Curvularia spicifera|Cyclamen balearicum|Cystoseira caespitosa|Dendrosenecio kilimanjari|Dipterocarpus alatus|Drosera peltata|Earias insulana|Echinogorgia|Echinops amplexicaulis|Epaltes gariepina|Euphorbia hirta|Fatoua pilosa|Fatoua villosa|Feroniella lucida|Ficus beecheyana|Ficus erecta var. beecheyana|Ficus formosana|Ficus nervosa|Flammulina velutipes|Flindersia pimenteliana|Fusarium gibbosum|Gardenia fosbergii|Grindelia humilis|Gustavia hexapetala|Halosaccion ramentaceum|Haplophyllum dshungaricum|Haplophyllum multicaule|Hypholoma capnoides|Ilex affinis|Isodon kameba|Kaempferia pulchra|Kumquat|Lactarius deliciosus var. deterrimus|Lactarius scrobiculatus|Laurencia glandulifera|Lecidea carpathica|Luvunga Scandens|Luvunga scandens|Lyophyllum connatum|Maclura tricuspidata|Maianthemum stellatum|Melicope semecarpifolia|Microcybe multiflora|Odixia angusta|Opuntia vulgaris|Palythoa tuberculosa|Pamburus missionis|Panax spinosus|Paramignya monophylla|Pheidole pallidula|Phellodendron Amurense|Phellodendron amurense|Phellodendron chinense|Pilocarpus goudotianus|Pilocarpus riedelianus|Piper hancei|Pleiospermium alatum|Plumbago Zeylanica|Plumbago zeylanica|Podocarpus henckelii|Polyalthia stenopetala|Prosopis glandulosa|Prunus laurocerasus|Pseudopterogorgia kallos|Pseudotsuga japonica|Pteris prolifera|Pterocarpus grandiflorus|Pyropia tenera|Pyrosoma giganteum|Quercus aegilops|Rauvolfia verticillata|Rhizobium phaseoli|Roemeria refracta|Rosa transmorrisonensis|Ruta Graveolens|Ruta chalepensis L.|Ruta graveolens|Rutaceae sp.|Salvia lasiantha|Salvia officinalis|Scaevola spinescens|Securidaca inappendiculata|Senecio squalidus|Seriphidium cinum|Sesbania punicea|Simira eliezeriana|Stauranthus perforatus|Stenostomum lucidum|Streptomyces althioticus|Strophanthus hispidus|Strychnos henningsii|Tanacetum argyrophyllum|Taxodium mucronatum|Thermus thermophilus|Trifoliate orange|Uncaria perrottetii|Vernonia scorpioides|Vitex madiensis|Zanthoxy ailanthoides|Zanthoxylum ailanthoides|Zanthoxylum americanum|Zanthoxylum rhetsa|pomelo

>  <collections>  (37) 
AnalytiCon Discovery NPs|Australian natural products|BIOFACQUIM|CMAUP (cCollective molecular activities of useful plants)|ChEBI NPs|ETM (Ethiopian Traditional Medicine) DB|FooDB|GNPS (Global Natural Products Social Molecular Networking)|KNApSaCK|Latin America dataset|NPASS|NPCARE|NPEdia|NuBBEDB|Phyto4Health|PubChem NPs|Specs Natural Products|Super Natural II|TCMDB-Taiwan (Traditional Chinese Medicine database)|TCMID (Traditional Chinese Medicine Integrated Database)|TIPdb (database of Taiwan indigenous plants)|UNPD (Universal Natural Products Database)|VietHerb|WikiData Natural Products|ZINC NP

>  <dois>  (37) 
10.1002/(SICI)1099-1573(200005)14:3<187::AID-PTR572>3.0.CO;2-I|10.1002/CBDV.200900227|10.1002/CBDV.200900326|10.1002/CHIN.200324150|10.1002/JCCS.200400067|10.1002/PTR.686|10.1007/BF00563909|10.1016/0031-9422(88)80782-9|10.1016/0031-9422(88)80815-X|10.1016/0031-9422(88)83146-7|10.1016/0031-9422(89)80402-9|10.1016/0031-9422(90)89054-D|10.1016/0305-1978(93)90064-X|10.1016/J.BMC.2005.07.050|10.1016/J.PHYTOCHEM.2004.12.028|10.1016/S0031-9422(00)84044-3|10.1016/S0031-9422(00)84608-7|10.1016/S0031-9422(00)86395-5|10.1016/S0031-9422(00)89816-7|10.1016/S0031-9422(00)89841-6|10.1016/S0031-9422(00)90455-2|10.1016/S0031-9422(00)97039-0|10.1016/S0031-9422(02)00519-8|10.1016/S0031-9422(96)00532-8|10.1016/S0031-9422(97)00760-7|10.1016/S0031-9422(99)00220-4|10.1016/S0040-4039(01)99141-5|10.1016/S0367-326X(00)00214-8|10.1016/j.chroma.2009.02.066|10.1016/j.phytochem.2004.12.028|10.1021/ACS.JNATPROD.6B00204|10.1021/JF00089A050|10.1021/NP000441W|10.1021/NP000582Y|10.1021/NP010122K|10.1021/NP030509I|10.1021/NP030509I.S001|10.1021/NP50032A016|10.1021/NP50039A034|10.1021/NP50066A017|10.1021/NP50087A013|10.1021/NP800689B|10.1021/NP9607215|10.1021/acs.jnatprod.6b00204|10.1021/jf801103p|10.1021/np030509i|10.1021/np50106a013|10.1039/JR9360001828|10.1039/P19900001593|10.1055/S-0029-1234991|10.1055/S-2003-39697|10.1055/S-2004-815500|10.1055/S-2006-957961|10.1055/S-2006-960965|10.1055/S-2006-962355|10.1071/ch9751393|10.1080/10286020.2011.572878|10.1080/10575639908048490|10.1248/CPB.31.895|10.1248/CPB.34.3922|10.1248/CPB.38.1230|10.1248/CPB.39.2252|10.1248/CPB.39.2509|10.1248/CPB.41.1657|10.1248/CPB.45.48|10.1248/CPB.46.693|10.1248/CPB.54.1308|10.1248/CPB.56.827|10.1248/CPB.58.61|10.1248/CPB.58.971|10.1248/YAKUSHI1947.103.3_279|10.1351/pac200173030617|10.1590/S0103-50532002000200023|10.1590/S0103-50532005000400031|10.3987/COM-08-11630|10.3987/R-1982-02-0273

>  <synonyms>  (37) 
2,2-DIMETHYLCHROMENOCOUMARIN|2,2-dimethylpyrano[3,2-g]chromen-8-one|2H,8H-Benzo[1,2-b:5,4-b']dipyran-2-one, 8,8-dimethyl-|3N789LD38N|553-19-5|7-HYDROXY-2,2-DIMETHYL-2H-1-BENZOPYRAN-6-ACRYLIC ACID .DELTA.-LACTONE|8,8-Dimethyl-2H,8H-benzo(1,2-b:5,4-b')dipyran-2-one|8,8-Dimethyl-2H,8H-pyrano[3,2-g]chromen-2-one|A830590|ACon1_000507|AKOS000278141|AMY25083|BDBM50292575|BRD-K28108221-001-02-3|BSPBio_001768|C09317|CCG-38639|CHEBI:10073|CHEMBL303846|CS-0032126|DTXSID60203818|DivK1c_006228|E88696|HMS2269H15|HY-N4116|KBio1_001172|KBio2_001153|KBio2_003721|KBio2_006289|KBio3_000928|KBioGR_001782|KBioSS_001153|MEGxp0_000991|MLS000863611|NCGC00095444-01|Q27108571|QOTBQNVNUBKJMS-UHFFFAOYSA-N|SCHEMBL2120500|SDCCGMLS-0066430.P001|SMR000440697|SPBio_000489|SPECTRUM100609|SR-01000780630|SpecPlus_000132|Spectrum2_000365|Spectrum3_000124|Spectrum4_001401|Spectrum5_000162|Spectrum_000673|UNII-3N789LD38N|XANTHYLETIN [MI]|XX163807|Xanthyletine|cid_65188|xanthyletin

>  <cas>  (37) 
553-19-5

$$$$

     RDKit          2D

 35 36  0  0  0  0  0  0  0  0999 V2000
    6.1718   -4.0114    0.0000 C   0  0  0  0  0  0  0  0  0  0  0  0
    4.7926   -3.4217    0.0000 O   0  0  0  0  0  0  0  0  0  0  0  0
    4.6137   -1.9324    0.0000 C   0  0  0  0  0  0  0  0  0  0  0  0
    5.4673   -1.4426    0.0000 O   0  0  0  0  0  0  0  0  0  0  0  0
    3.2345   -1.3426    0.0000 C   0  0  0  0  0  0  0  0  0  0  0  0
    2.0341   -2.2422    0.0000 C   0  0  0  0  0  0  0  0  0  0  0  0
    0.6549   -1.6525    0.0000 O   0  0  0  0  0  0  0  0  0  0  0  0
    0.4760   -0.1632    0.0000 C   0  0  0  0  0  0  0  0  0  0  0  0
   -0.9032    0.4265    0.0000 O   0  0  0  0  0  0  0  0  0  0  0  0
   -2.1035   -0.4730    0.0000 C   0  0  0  0  0  0  0  0  0  0  0  0
   -3.4827    0.1167    0.0000 O   0  0  0  0  0  0  0  0  0  0  0  0
   -4.6830   -0.7829    0.0000 C   0  0  0  0  0  0  0  0  0  0  0  0
   -6.0622   -0.1931    0.0000 C   0  0  0  0  0  0  0  0  0  0  0  0
   -6.2411    1.2962    0.0000 O   0  0  0  0  0  0  0  0  0  0  0  0
   -7.6203    1.8859    0.0000 C   0  0  0  0  0  0  0  0  0  0  0  0
   -7.7992    3.3752    0.0000 C   0  0  0  0  0  0  0  0  0  0  0  0
   -8.8207    0.9863    0.0000 O   0  0  0  0  0  0  0  0  0  0  0  0
   -4.5041   -2.2722    0.0000 C   0  0  0  0  0  0  0  0  0  0  0  0
   -5.7045   -3.1717    0.0000 O   0  0  0  0  0  0  0  0  0  0  0  0
   -3.1249   -2.8619    0.0000 C   0  0  0  0  0  0  0  0  0  0  0  0
   -2.9460   -4.3512    0.0000 O   0  0  0  0  0  0  0  0  0  0  0  0
   -1.9246   -1.9623    0.0000 C   0  0  0  0  0  0  0  0  0  0  0  0
   -0.5454   -2.5520    0.0000 O   0  0  0  0  0  0  0  0  0  0  0  0
    1.6764    0.7364    0.0000 C   0  0  0  0  0  0  0  0  0  0  0  0
    1.4975    2.2257    0.0000 C   0  0  0  0  0  0  0  0  0  0  0  0
    0.1183    2.8154    0.0000 C   0  0  0  0  0  0  0  0  0  0  0  0
    2.6978    3.1252    0.0000 O   0  0  0  0  0  0  0  0  0  0  0  0
    2.5189    4.6145    0.0000 C   0  0  0  0  0  0  0  0  0  0  0  0
    3.7192    5.5141    0.0000 C   0  0  0  0  0  0  0  0  0  0  0  0
    1.1397    5.2043    0.0000 O   0  0  0  0  0  0  0  0  0  0  0  0
    3.0556    0.1467    0.0000 C   0  0  0  0  0  0  0  0  0  0  0  0
    4.2559    1.0462    0.0000 C   0  0  0  0  0  0  0  0  0  0  0  0
    5.6351    0.4565    0.0000 C   0  0  0  0  0  0  0  0  0  0  0  0
    5.8707   -0.4990    0.0000 O   0  0  0  0  0  0  0  0  0  0  0  0
    6.8354    1.3561    0.0000 O   0  0  0  0  0  0  0  0  0  0  0  0
  1  2  1  0
  2  3  1  0
  3  4  2  0
  3  5  1  0
  5  6  2  0
  6  7  1  0
  7  8  1  0
  8  9  1  0
 10  9  1  1
 10 11  1  0
 11 12  1  0
 12 13  1  1
 13 14  1  0
 14 15  1  0
 15 16  1  0
 15 17  2  0
 12 18  1  0
 18 19  1  6
 18 20  1  0
 20 21  1  1
 20 22  1  0
 22 23  1  6
  8 24  1  0
 24 25  1  0
 25 26  1  6
 25 27  1  0
 27 28  1  0
 28 29  1  0
 28 30  2  0
 24 31  1  0
 31 32  1  6
 32 33  1  0
 33 34  2  0
 33 35  1  0
 31  5  1  0
 22 10  1  0
M  END
>  <identifier>  (38) 
CNP0183681.3

>  <canonical_smiles>  (38) 
COC(=O)C1=COC(O[C@@H]2O[C@H](COC(C)=O)[C@@H](O)[C@H](O)[C@H]2O)C([C@H](C)OC(C)=O)[C@@H]1CC(=O)O

>  <standard_inchi>  (38) 
InChI=1S/C21H30O14/c1-8(33-10(3)23)15-11(5-14(24)25)12(19(29)30-4)6-32-20(15)35-21-18(28)17(27)16(26)13(34-21)7-31-9(2)22/h6,8,11,13,15-18,20-21,26-28H,5,7H2,1-4H3,(H,24,25)/t8-,11+,13+,15?,16+,17-,18+,20?,21-/m0/s1

>  <standard_inchi_key>  (38) 
FWVFWBXGZOLBJL-AMBWJBCNSA-N

>  <name>  (38) 
nan

>  <iupac_name>  (38) 
2-[(4~{S})-3-[(1~{S})-1-acetoxyethyl]-2-[(2~{S},3~{R},4~{S},5~{S},6~{R})-6-(acetoxymethyl)-3,4,5-trihydroxy-tetrahydropyran-2-yl]oxy-5-methoxycarbonyl-3,4-dihydro-2~{H}-pyran-4-yl]acetic acid

>  <annotation_level>  (38) 
4

>  <total_atom_count>  (38) 
65

>  <heavy_atom_count>  (38) 
35

>  <molecular_weight>  (38) 
506.46

>  <exact_molecular_weight>  (38) 
506.16356

>  <molecular_formula>  (38) 
C21H30O14

>  <alogp>  (38) 
-1.55

>  <topological_polar_surface_area>  (38) 
204.58

>  <rotatable_bond_count>  (38) 
9

>  <hydrogen_bond_acceptors>  (38) 
13

>  <hydrogen_bond_donors>  (38) 
4

>  <hydrogen_bond_acceptors_lipinski>  (38) 
13

>  <hydrogen_bond_donors_lipinski>  (38) 
4

>  <lipinski_rule_of_five_violations>  (38) 
2

>  <aromatic_rings_count>  (38) 
0

>  <qed_drug_likeliness>  (38) 
0.21

>  <formal_charge>  (38) 
0

>  <fractioncsp3>  (38) 
0.71

>  <number_of_minimal_rings>  (38) 
2

>  <van_der_walls_volume>  (38) 
nan

>  <contains_sugar>  (38) 
True

>  <contains_ring_sugars>  (38) 
True

>  <contains_linear_sugars>  (38) 
False

>  <murcko_framework>  (38) 
O1C=CCCC1OC2OCCCC2

>  <np_likeness>  (38) 
2.15

>  <chemical_class>  (38) 
Carboxylic acids and derivatives

>  <chemical_sub_class>  (38) 
Tetracarboxylic acids and derivatives

>  <chemical_super_class>  (38) 
Organic acids and derivatives

>  <direct_parent_classification>  (38) 
Tetracarboxylic acids and derivatives

>  <np_classifier_pathway>  (38) 
Terpenoids

>  <np_classifier_superclass>  (38) 
Monoterpenoids

>  <np_classifier_class>  (38) 
Secoiridoid monoterpenoids

>  <np_classifier_is_glycoside>  (38) 
True

>  <organisms>  (38) 
Calycophyllum spruceanum

>  <collections>  (38) 
Latin America dataset|NuBBEDB

>  <dois>  (38) 
10.1016/S0031-9422(03)00153-5

>  <synonyms>  (38) 
6'-Acetyl-\u221a\u00e9\u00ac\u2264-D-glucopyranosyldiderroside

>  <cas>  (38) 
nan

$$$$

     RDKit          2D

 18 19  0  0  0  0  0  0  0  0999 V2000
   -1.5236   -3.4082    0.0000 C   0  0  0  0  0  0  0  0  0  0  0  0
   -1.9257   -1.9632    0.0000 C   0  0  0  0  0  0  0  0  0  0  0  0
   -3.3783   -1.5889    0.0000 C   0  0  0  0  0  0  0  0  0  0  0  0
   -3.7805   -0.1438    0.0000 C   0  0  0  0  0  0  0  0  0  0  0  0
   -2.7300    0.9270    0.0000 C   0  0  0  0  0  0  0  0  0  0  0  0
   -3.1322    2.3721    0.0000 C   0  0  0  0  0  0  0  0  0  0  0  0
   -1.2775    0.5527    0.0000 C   0  0  0  0  0  0  0  0  0  0  0  0
   -0.8753   -0.8923    0.0000 C   0  0  0  0  0  0  0  0  0  0  0  0
    0.5772   -1.2666    0.0000 C   0  0  0  0  0  0  0  0  0  0  0  0
    1.6276   -0.1958    0.0000 C   0  0  0  0  0  0  0  0  0  0  0  0
    3.0802   -0.5701    0.0000 C   0  0  0  0  0  0  0  0  0  0  0  0
    3.4545    0.8825    0.0000 C   0  0  0  0  0  0  0  0  0  0  0  0
    2.7059   -2.0226    0.0000 C   0  0  0  0  0  0  0  0  0  0  0  0
    4.5327   -0.9443    0.0000 O   0  0  0  0  0  0  0  0  0  0  0  0
    1.2255    1.2493    0.0000 C   0  0  0  0  0  0  0  0  0  0  0  0
    2.2759    2.3201    0.0000 O   0  0  0  0  0  0  0  0  0  0  0  0
   -0.2271    1.6236    0.0000 C   0  0  0  0  0  0  0  0  0  0  0  0
   -0.6292    3.0686    0.0000 O   0  0  0  0  0  0  0  0  0  0  0  0
  1  2  1  0
  2  3  2  0
  3  4  1  0
  4  5  2  0
  5  6  1  0
  5  7  1  0
  7  8  2  0
  8  9  1  0
  9 10  2  0
 10 11  1  0
 11 12  1  0
 11 13  1  0
 11 14  1  0
 10 15  1  0
 15 16  2  0
 15 17  1  0
 17 18  2  0
  8  2  1  0
 17  7  1  0
M  END
>  <identifier>  (39) 
CNP0311590.0

>  <canonical_smiles>  (39) 
CC1=CC=C(C)C2=C1C=C(C(C)(C)O)C(=O)C2=O

>  <standard_inchi>  (39) 
InChI=1S/C15H16O3/c1-8-5-6-9(2)12-10(8)7-11(15(3,4)18)13(16)14(12)17/h5-7,18H,1-4H3

>  <standard_inchi_key>  (39) 
TYIWPAAARMXKSH-UHFFFAOYSA-N

>  <name>  (39) 
61263-74-9

>  <iupac_name>  (39) 
3-(1-hydroxy-1-methyl-ethyl)-5,8-dimethyl-naphthalene-1,2-dione

>  <annotation_level>  (39) 
5

>  <total_atom_count>  (39) 
34

>  <heavy_atom_count>  (39) 
18

>  <molecular_weight>  (39) 
244.29

>  <exact_molecular_weight>  (39) 
244.10994

>  <molecular_formula>  (39) 
C15H16O3

>  <alogp>  (39) 
2.22

>  <topological_polar_surface_area>  (39) 
54.37

>  <rotatable_bond_count>  (39) 
1

>  <hydrogen_bond_acceptors>  (39) 
3

>  <hydrogen_bond_donors>  (39) 
1

>  <hydrogen_bond_acceptors_lipinski>  (39) 
3

>  <hydrogen_bond_donors_lipinski>  (39) 
1

>  <lipinski_rule_of_five_violations>  (39) 
0

>  <aromatic_rings_count>  (39) 
1

>  <qed_drug_likeliness>  (39) 
0.77

>  <formal_charge>  (39) 
0

>  <fractioncsp3>  (39) 
0.33

>  <number_of_minimal_rings>  (39) 
2

>  <van_der_walls_volume>  (39) 
227.55

>  <contains_sugar>  (39) 
False

>  <contains_ring_sugars>  (39) 
False

>  <contains_linear_sugars>  (39) 
False

>  <murcko_framework>  (39) 
c1ccc2c(c1)C=CCC2

>  <np_likeness>  (39) 
1.00

>  <chemical_class>  (39) 
Naphthalenes

>  <chemical_sub_class>  (39) 
Naphthoquinones

>  <chemical_super_class>  (39) 
Benzenoids

>  <direct_parent_classification>  (39) 
Naphthoquinones

>  <np_classifier_pathway>  (39) 
Terpenoids

>  <np_classifier_superclass>  (39) 
Sesquiterpenoids

>  <np_classifier_class>  (39) 
Cadinane sesquiterpenoids

>  <np_classifier_is_glycoside>  (39) 
False

>  <organisms>  (39) 
Emmotum nitens

>  <collections>  (39) 
KNApSaCK|Latin America dataset|NPEdia|NuBBEDB|Super Natural II|UNPD (Universal Natural Products Database)|WikiData Natural Products|ZINC NP

>  <dois>  (39) 
10.1016/0031-9422(76)85091-1

>  <synonyms>  (39) 
1,2-Dihydro-3-(1-hydroxy-1-methylethyl)-5,8-dimethyl-1,2-naphthalenedione|DB-291015|Emmotin H|Emmotin-H

>  <cas>  (39) 
nan

$$$$

     RDKit          2D

 31 35  0  0  0  0  0  0  0  0999 V2000
   -3.4807   -2.7778    0.0000 C   0  0  0  0  0  0  0  0  0  0  0  0
   -4.1277   -1.4245    0.0000 C   0  0  0  0  0  0  0  0  0  0  0  0
   -5.6232   -1.3082    0.0000 C   0  0  0  0  0  0  0  0  0  0  0  0
   -6.4717   -2.5451    0.0000 C   0  0  0  0  0  0  0  0  0  0  0  0
   -6.2702    0.0451    0.0000 C   0  0  0  0  0  0  0  0  0  0  0  0
   -5.4217    1.2821    0.0000 C   0  0  0  0  0  0  0  0  0  0  0  0
   -3.9262    1.1657    0.0000 C   0  0  0  0  0  0  0  0  0  0  0  0
   -4.5732    2.5190    0.0000 C   0  0  0  0  0  0  0  0  0  0  0  0
   -3.0777    2.4027    0.0000 C   0  0  0  0  0  0  0  0  0  0  0  0
   -1.5822    2.2863    0.0000 C   0  0  0  0  0  0  0  0  0  0  0  0
   -0.9353    0.9330    0.0000 C   0  0  0  0  0  0  0  0  0  0  0  0
   -0.2883   -0.4202    0.0000 C   0  0  0  0  0  0  0  0  0  0  0  0
   -1.7838   -0.3039    0.0000 C   0  0  0  0  0  0  0  0  0  0  0  0
   -1.1368   -1.6572    0.0000 C   0  0  0  0  0  0  0  0  0  0  0  0
    0.3587   -1.7735    0.0000 C   0  0  0  0  0  0  0  0  0  0  0  0
    1.2072   -0.5366    0.0000 C   0  0  0  0  0  0  0  0  0  0  0  0
    2.7027   -0.6529    0.0000 C   0  0  0  0  0  0  0  0  0  0  0  0
    1.8542   -1.8899    0.0000 C   0  0  0  0  0  0  0  0  0  0  0  0
    3.3497   -2.0062    0.0000 C   0  0  0  0  0  0  0  0  0  0  0  0
    4.8452   -2.1226    0.0000 C   0  0  0  0  0  0  0  0  0  0  0  0
    5.6937   -0.8856    0.0000 C   0  0  0  0  0  0  0  0  0  0  0  0
    7.1891   -1.0020    0.0000 O   0  0  0  0  0  0  0  0  0  0  0  0
    5.0467    0.4677    0.0000 C   0  0  0  0  0  0  0  0  0  0  0  0
    4.9016    1.9606    0.0000 C   0  0  0  0  0  0  0  0  0  0  0  0
    6.4918    0.8698    0.0000 C   0  0  0  0  0  0  0  0  0  0  0  0
    3.5512    0.5840    0.0000 C   0  0  0  0  0  0  0  0  0  0  0  0
    2.9042    1.9373    0.0000 C   0  0  0  0  0  0  0  0  0  0  0  0
    1.4087    2.0537    0.0000 C   0  0  0  0  0  0  0  0  0  0  0  0
    0.5602    0.8167    0.0000 C   0  0  0  0  0  0  0  0  0  0  0  0
   -0.0868    2.1700    0.0000 C   0  0  0  0  0  0  0  0  0  0  0  0
   -3.2792   -0.1876    0.0000 C   0  0  0  0  0  0  0  0  0  0  0  0
  2  1  1  1
  2  3  1  0
  3  4  1  6
  3  5  1  0
  5  6  1  0
  6  7  1  0
  7  8  1  1
  7  9  1  0
  9 10  1  0
 10 11  1  0
 11 12  1  6
 11 13  1  0
 13 14  2  0
 14 15  1  0
 16 15  1  1
 16 17  1  0
 17 18  1  1
 17 19  1  0
 19 20  1  0
 20 21  1  0
 21 22  1  1
 21 23  1  0
 23 24  1  0
 23 25  1  0
 23 26  1  0
 26 27  1  1
 27 28  1  0
 28 29  1  0
 29 30  1  1
 31 13  1  6
 31  2  1  0
 31  7  1  0
 29 11  1  0
 29 16  1  0
 26 17  1  0
M  END
>  <identifier>  (40) 
CNP0299272.4

>  <canonical_smiles>  (40) 
C[C@H]1[C@H](C)CC[C@]2(C)CC[C@]3(C)C(=CC[C@@H]4[C@@]5(C)CC[C@H](O)C(C)(C)[C@@H]5CC[C@]43C)[C@H]12

>  <standard_inchi>  (40) 
InChI=1S/C30H50O/c1-19-11-14-27(5)17-18-29(7)21(25(27)20(19)2)9-10-23-28(6)15-13-24(31)26(3,4)22(28)12-16-30(23,29)8/h9,19-20,22-25,31H,10-18H2,1-8H3/t19-,20+,22+,23-,24+,25+,27-,28+,29-,30-/m1/s1

>  <standard_inchi_key>  (40) 
FSLPMRQHCOLESF-SFMCKYFRSA-N

>  <name>  (40) 
alpha-Amyrin

>  <iupac_name>  (40) 
(3~{S},4~{a}~{R},6~{a}~{R},6~{b}~{S},8~{a}~{R},11~{R},12~{S},12~{a}~{R},14~{a}~{R},14~{b}~{R})-4,4,6~{a},6~{b},8~{a},11,12,14~{b}-octamethyl-2,3,4~{a},5,6,7,8,9,10,11,12,12~{a},14,14~{a}-tetradecahydro-1~{H}-picen-3-ol

>  <annotation_level>  (40) 
5

>  <total_atom_count>  (40) 
81

>  <heavy_atom_count>  (40) 
31

>  <molecular_weight>  (40) 
426.73

>  <exact_molecular_weight>  (40) 
426.38617

>  <molecular_formula>  (40) 
C30H50O

>  <alogp>  (40) 
8.02

>  <topological_polar_surface_area>  (40) 
20.23

>  <rotatable_bond_count>  (40) 
0

>  <hydrogen_bond_acceptors>  (40) 
1

>  <hydrogen_bond_donors>  (40) 
1

>  <hydrogen_bond_acceptors_lipinski>  (40) 
1

>  <hydrogen_bond_donors_lipinski>  (40) 
1

>  <lipinski_rule_of_five_violations>  (40) 
1

>  <aromatic_rings_count>  (40) 
0

>  <qed_drug_likeliness>  (40) 
0.39

>  <formal_charge>  (40) 
0

>  <fractioncsp3>  (40) 
0.93

>  <number_of_minimal_rings>  (40) 
5

>  <van_der_walls_volume>  (40) 
445.10

>  <contains_sugar>  (40) 
False

>  <contains_ring_sugars>  (40) 
False

>  <contains_linear_sugars>  (40) 
False

>  <murcko_framework>  (40) 
C1=C2C3CCCCC3CCC2C4CCC5CCCCC5C4C1

>  <np_likeness>  (40) 
3.25

>  <chemical_class>  (40) 
Prenol lipids

>  <chemical_sub_class>  (40) 
Triterpenoids

>  <chemical_super_class>  (40) 
Lipids and lipid-like molecules

>  <direct_parent_classification>  (40) 
Taraxastane, ursane, and bauerane triterpenoids

>  <np_classifier_pathway>  (40) 
Terpenoids

>  <np_classifier_superclass>  (40) 
Triterpenoids

>  <np_classifier_class>  (40) 
Ursane and Taraxastane triterpenoids

>  <np_classifier_is_glycoside>  (40) 
False

>  <organisms>  (40) 
Aaptos aaptos|Abies balsamea|Abies nobilis|Abutilon pakistanicum|Acacia pruinosa|Acalypha marginata|Acalypha wilkesiana|Acanthothamnus aphyllus|Acanthus ilicifolius|Acer triflorum|Achillea magnifica|Achillea millefolium|Achillea sintenisii|Aconitum brevicalcaratum|Aconitum lycoctonum|Aconitum nevadense|Aconitum septentrionale|Acrocomia sclerocarpa|Adenia cissampeloides|Adiantum caudatum|Adina cordifolia|Aegilops geniculata|Aerva lanata|Aerva sp.|Aesculus hippocastanum|Aesculus sp.|Agathosma scaberula|Ageratina riparia|Ajania fruticulosa|Ajuga chamaepitys|Ajuga postii|Ajuga reptans|Alafia barteri|Aleurites moluccanus|Alibertia edulis|Alkanna cappadocica|Alkanna hirsutissima|Alnus firma|Alnus japonica|Alnus rugosa|Alseodaphne corneri|Alstonia scholaris|Alstonia sp.|Amaranthus hybr|Ammodendron conollyi|Amsinckia menziesii|Anadenanthera colubrina|Anaphalis margaritacea|Anaptychia speciosa|Anchietea pyrifolia|Anchietea salutaris|Annona impressivenia|Anthopleura elegantissima|Apis mellifera|Apocynum androsaemifolium|Apocynum cannabinum|Arabidopsis thaliana|Aralia continentalis|Aralia hispida|Aralia leschenaultii|Aralia nudicaulis|Arbutus unedo|Arctium lappa|Arctium sp.|Ardisia Solanacea|Ardisia elliptica|Arisaema flavum|Aristeguietia pseudarborea|Aristolochia tagala|Arnebia decumbens|Arnica amplexicaulis|Arnica foliosa|Arnica lanceolata|Arnica mollis|Arnicratea grahamii|Artabotrys uncinatus|Artemisia Vulgaris|Artemisia annua|Artemisia apiacea|Artemisia argyi|Artemisia carvifolia|Artemisia dentata|Artemisia douglasiana|Artemisia eriopoda|Artemisia feddei|Artemisia giraldii|Artemisia igniaria|Artemisia lancea|Artemisia mongolica|Artemisia montana|Artemisia phaeolepis|Artemisia roxburghiana|Artemisia vestita|Asclepias speciosa|Asclepias syriaca|Asclepias syriaca L.|Asparagus thunbergianus|Aspergillus unguis|Asphodeline tenuior|Aster acuminatus|Aster poliothamnus|Aster tongolensis|Asterias forbesi|Asterias glacialis|Astilbe myriantha|Atalantia racemosa|Atractylis japonica|Aulacocephalus temmincki|Austroderia toetoe|Avicennia officinalis|Avrainvillea nigricans|Baccharoides anthelmintica|Balanophora abbreviata|Balanophora harlandii|Barbacenia flava|Bejaranoa semistriata|Berkheya rhapontica|Bersama yangambiensis|Betula papyrifera|Bombax ceiba|Bombax malabaricum|Boswellia neglecta|Boswellia sacra|Boswellia serrata|Bothriocline amplifolia|Bothriocline longipes|Brachylaena ramiflora|Briareum violacea|Bruguiera gymnorhiza|Bruguiera gymnorrhiza|Bryonia dioica|Bryonopsis laciniosa|Bryum rutilans|Buddleja cordata|Buddleja variabilis|Buphane fischeri|Bursera graveolens|Bursera linanoe|Bursera simaruba|Caesalpinia bonducella|Cajanus cajan|Calea clausseniana|Calea megacephala|Calendula officinalis|Calendula sp.|Calophyllum verticillatum|Calotropis gigantea|Calotropis procera|Camelina sativa|Camellia crapnelliana|Camellia japonica|Camellia oleifera|Camellia reticulata|Camellia sasanqua|Camellia sinensis|Campsis grandiflora|Canarium album|Canarium sp.|Canarium strictum|Canarium zeylanicum|Carmona retusa|Carthamus tinctorius|Cassia fistula|Cassia javanica|Castanopsis sclerophylla|Cecropia pachystachya|Centaurea africana|Centaurea amanicola|Centaurea aspera|Centaurea cuneifolia|Centaurea horrida|Centaurea iberica|Centaurea nicolai|Centaurea nigra|Centaurea ptosimopappoides|Cephalotaxus hainanensis|Ceriops decandra|Cetraria pinastri|Chalciporus piperatus|Chamerion dodonaei|Chamomilla suaveolens|Chenopodium quinoa|Chromodoris willani|Chromolaena arnottiana|Chromolaena moritziana|Chrysanthemum|Chrysanthemum morifolium|Chrysolaena cognata|Chrysolaena platensis|Chrysolaena propinqua|Chuquiraga ulicina|Cicer arietinum|Cichorium intybus|Cirsium dipsacolepis|Cirsium japonicum|Cirsium nipponicum|Cirsium sp.|Citrullus colocynthis|Citrus limon|Citrus × paradisi|Cladonia amaurocraea|Cladonia macaronesica|Cladrastis kentukea|Clerodendrum cyrtophyllum|Clintonia borealis|Clusia havetioides|Cnicus sp.|Cocculus diversifolius|Coleus comosus|Coleus parvifolius|Comamonas testosteroni|Commiphora confusa|Commiphora kataf|Comptonia peregrina|Conocephalum japonicum|Convolvulus arvensis|Conyza canadensis|Coprosma australis|Coptis trifolia|Cordiera macrophylla|Cordylanthus kingii|Cordyline indivisa|Cornus canadensis|Coronophora gregaria|Corticium caeruleum|Cortinarius viola|Corydalis claviculata|Corydalis cornuta|Cosmos bipinnatus|Costus tonkinensis|Cousinia canescens|Craibiodendron yunnanense|Crambe tatarica|Crataegus monogyna|Crepis phoenix|Crinipellis scabella|Crinum kirkii|Crinum stuhlmannii|Crotalaria mitchellii|Croton cumingii|Croton gratissimus var. gratissimus|Croton hieronymi|Croton rhamnifolius|Cryptolepis nigrescens|Ctenodiscus crispatus|Cudrania tricuspidata|Culcitium canescens|Cuscuta reflexa|Cussonia spicata|Cyanthillium cinereum|Cyathus helenae|Cycas beddomei|Cylicodaphne sebifera|Cynanchum formosanum|Cynara cardunculus|Cyphostemma juttae|Cypripedium acaule|Cystophora scalaris|Cytisus scoparius|Dacrydium biforme|Dactylosporangium aurantiacum|Daphne mucronata|Daucus carota|Delphinium campylocentrum|Dendranthema|Dendranthema morifolium|Dendranthema sp.|Dendrodoris krebsii|Derris trifoliata|Dianthus armeria|Diaphus suborbitalis|Dichrostachys cinerea|Didemnum inarmatum|Diospyros Ebenum|Diospyros Kaki|Diospyros Montana|Diospyros argentea|Diospyros blancoi|Diospyros ebenum|Diospyros eriantha|Diospyros ismailii|Diospyros kaki|Diospyros lotus|Diospyros maingayi|Diospyros melanoxylon|Diospyros mollis|Diospyros siamang|Diospyros singaporensis|Diospyros sumatrana|Diospyros wallichii|Diploschistes cretaceus|Disepalum plagioneurum|Disynaphia halimifolia|Doellingeria umbellata var. umbellata|Dolichandrone crispa|Dolichospermum viguieri|Doodia picta|Dorstenia bahiensis|Dorstenia brasiliensis|Dorstenia bryoniaefolia|Dorstenia carautae|Dorstenia cayapia|Dorstenia heringeri|Dracaena ombet|Dryopteris crenata|Drypetes roxburghii|Duhaldea cappa|Duranta erecta L.|Durio zibethinus|Echinops galalensis|Echinops kebericho|Echinops niveus|Echinops ritro|Echiochilon pauciflorum|Eclipta alba|Eclipta prostrata|Ehretia microphylla|Ehretia monopyrena|Elaeagnus angustifolia|Epigaea repens|Epilobium dodonaei|Eragrostis viscosa|Eremanthus veadeiroensis|Eremophila serrulata|Eria subsessilis|Eria tomentosa|Erica andevalensis|Erigeron canadensis|Erythroxylum Coca|Erythroxylum sp.|Eschenbachia blinii|Escherichia coli W√É√Ç4IB4 [budB ilvCFBR ilvD kdcA adhAFBR ldhA adhE pta frdA]|Eucalyptus exserta|Eucalyptus froggattii|Eunicella cavolinii|Eupatorium perfoliatum|Euphorbia Hirta|Euphorbia aphylla|Euphorbia biglandulosa|Euphorbia bivonae|Euphorbia characias|Euphorbia cyparissias|Euphorbia esula|Euphorbia hirta|Euphorbia nicaeensis|Euphorbia peplus|Euphorbia piscatoria|Euphorbia pseudocactus|Euphorbia sancta|Euphorbia trigona|Euphorbiaceae|Euphrasia nemorosa|Euthamia graminifolia|Ferula gummosa|Ferula marmarica|Ficus Variegata|Ficus cordata|Ficus pandurata|Ficus pumila|Ficus sarmentosa var. thunbergii|Ficus septica|Ficus sp.|Ficus virens|Formica fusca|Forsteronia refracta|Fraxinus americana|Fridericia chica|Fritillaria ningguoensis|Fucus spiralis|Gaillardia aristata|Galactites tomentosus|Gaultheria procumbens|Gentiana davidii var. formosana|Gentiana lutea|Gentiana macrophylla|Gentiana scabra|Gerbera jamesonii|Girgensohnia diptera|Gladiolus italicus|Glycosmis puberula|Glycyrrhiza triphylla|Gonocaryum calleryanum|Great yellow gentian|Grewia mollis|Grindelia nana|Guarea guidonia|Guilandina bonduc|Gustavia longifolia|Gymnadenia conopsea|Gymnocarpium robertianum|Gynura japonica|Hakea saligna|Halopitys incurvus|Haloxylon salicornicum|Haminoea orbignyana|Hedysarum multijugum|Helianthus debilis|Helianthus radula|Heliotropium floridum|Heterotheca grandiflora|Hieracium canadense|Hieracium gymnocephalum|Hieracium kalmii|Himatanthus articulatus|Himatanthus sucuuba|Hippocratea volubilis|Hippophae rhamnoides|Hoffmannia strigillosa|Hololepis pedunculata|Hoslundia opposita|Hovenia acerba|Hoya australis|Hoya naumannii|Humulus lupulus|Hymenoxys scaposa|Hypericum perforatum|Hypericum triquetrifolium|Hypolepis punctata|Hyptis suaveolens|Hyrtios eubamma|Ilex aquifolium|Ilex aquifolium L.|Ilex goshiensis|Ilex latifolia|Ilex sp.|Ilex verticillata|Ilex verticillata (L.) A. Gray|Inga paterno|Inula Cappa|Inula crithmoides|Inula japonica|Inula multicaulis|Iodes cirrhosa|Iridaea membranacea|Iris hoogiana|Iris versicolor|Iris x germanica|Iryanthera polyneura|Isodon japonicus|Isodon rubescens|Isoplexis chalcantha|Ixeridium gracile|Ixeris chinensis|Ixeris japonica|Ixora chinensis|Ixora coccinea|Jaborosa caulescens|Jacobaea vulgaris|Jasminum azoricum|Jasminum fluminense|Jasminum grandiflorum|Juglans nigra|Jungermannia subulata|Juniperus communis|Juniperus horizontalis|Juniperus rigida var. conferta|Justicia simplex|Kaempferia marginata|Kalanchoe pinnata|Kalmia angustifolia|Karelinia|Kaunia saltensis|Khaya senegalensis|Kielmeyera pumila|Knightia deplanchei|Koompassia malaccensis|Lactuca tatarica|Laetiporus versisporus|Lantana camara|Larix laricina|Lathyrus sativus|Lavandula canariensis|Lecanora lividocinerea|Lemaireocereus griseus|Lens culinaris|Leontodon filii|Leptadenia hastata|Leptothorax acervorum|Lespedeza davidii|Lessingianthus rubricaulis|Leucanthemum maximum|Libocedrus yateensis|Ligularia amplexicaulis|Ligularia veitchiana|Liriodendron tulipifera|Lissoclinum japonicum|Lotus albus|Lupinus cosentinii|Luxemburgia nobilis|Lychnophora markgravii|Maclura tricuspidata|Macrotyloma biflorum var. biflorum|Maianthemum canadense|Malva sylvestris|Mangifera indica|Marsdenia oreophila|Marsdenia tinctoria|Marsypianthes chamaedrys|Maschalostachys markgrafii|Matricaria discoidea|Matricaria matricarioides|Maytenus buxifolia|Maytenus salicifolia|Melaleuca uncinata|Melastoma malabathricum|Mentha pulegiformis|Mesembryanthemum anatomicum|Metanarthecium luteoviride|Metzgeria pubescens|Micromelum minutum|Mikania haenkeana|Mikania micrantha|Mikania minima|Mikania stipulacea|Millettia erythrocalyx|Millettia usaramensis|Mirabilis jalapa|Mitchella repens|Mitragyna stipulosa|Mollinedia costaricensis|Monascus purpureus|Monosis parishii|Moquilea pyrifolia|Moraceae|Morus alba|Morus cathayana|Mycena haematopus|Mycobacterium leprae|Myrica arborea|Myrica cerifera|Myrica multiflora|Myrica rubra|Nabalus trifoliolatus|Narcissus concolor|Nassauvia lagascae|Nauclea officinalis|Negombata magnifica|Neolitsea dealbata|Nepeta hindostana|Nephroma australe|Nerium oleander|Nierembergia hippomanica|Nierembergia linariifolia|Nigella aristata|Niphogeton ternata|Nymphaea odorata|Oclemena acuminata|Ocotea suaveolens|Odontadenia macrantha|Odontadenia semidigyna|Oenothera biennis|Olea europaea|Olea sp.|Oncoba echinata|Ononis vaginalis|Oophaga speciosa|Ophiarthrum elegans|Ophiolepis superba|Opuntia ficus-indica|Ormosia elata|Oryza coarctata|Osmundaria colensoi|Otanthus maritimus|Oxytropis myriophylla|Pachylaena atriplicifolia|Papaver commutatum|Papaver rhoeas|Papilio phorcas|Parabenzoin trilobum|Parahancornia amara|Parahancornia fasciculata|Parerythropodium fulvum|Parkinsonia aculeata|Patrinia rupestris|Pavetta indica|Pergularia daemia|Pergularia tomentosa|Periploca calophylla|Periploca laevigata|Periploca sepium|Persea indica|Persicaria filiformis|Pestalotiopsis virgatula|Peucedanum longifolium|Phaleria cumingii|Phegopteris bukoensis|Phegopteris subaurita|Phlomis regelii|Phlomoides hamosa|Phytolacca americana|Phytolacca sp.|Picea mariana|Picea vulgaris|Picris hieracioides|Picris radicata|Picris spinifera|Pinus monophylla|Pinus picea|Piper aequale|Piptadenia peregrina|Piptocarpha opaca|Pistacia mexicana|Pisum sativum|Plantago asiatica|Plantago lanceolata|Plantago major|Plectranthus ornatus|Pleurostylia opposita|Plinia pennata|Pluchea lanceolata|Pluchea odorata|Plumeria|Plumeria obtusa|Plumeria rubra|Podolepis longipedata|Polemonium caeruleum|Polycephalomyces nipponicus|Polygala aureocauda|Polyphaga sinensis|Polypodium vulgare|Pontederia cordata|Populus tremuloides|Potentilla erecta|Potentilla tormentilla|Pouteria caimito|Pouteria torta|Prenanthes trifoliolata|Primula hirsuta|Prorocentrum micans|Protium crenatum|Protium heptaphyllum|Protium kleinii|Prunus pensylvanica|Pseudomonas syringae|Pseudoxandra sclerocarpa|Psilotum nudum|Psorospermum androsaemifolium|Psychotria Adenophylla|Pteris semipinnata|Pterocaulon polystachyum|Ptilidium ciliare|Pulicaria incisa|Rapanea lancifolia|Reinwardtiodendron anamalaiense|Rhaponticoides africana|Rhizophora mucronata|Rhododendron ferrugineum|Rhododendron formosanum|Rhododendron groenlandicum|Rhododendron macrophyllum|Rhododendron macrosepalum|Rhododendron sp.|Rhoiptelea chiliantha|Rhus typhina|Rhynchosporium orthosporum|Rodgersia podophylla|Rosmarinus officinalis|Rubrivivax gelatinosus|Rubus cochinchinensis|Rubus idaeus|Rubus plicatus|Rudbeckia hirta var. pulcherrima|Ruscus hypophyllum|Ruta pinnata|Saccharothrix mutabilis subsp. capreolus|Salmonella enterica subsp. enterica serovar anatum|Salvia aethiopis|Salvia amplexicaulis|Salvia caespitosa|Salvia cana|Salvia canariensis|Salvia candidissima|Salvia cyanescens|Salvia dorrii|Salvia farinacea|Salvia glutinosa|Salvia hispanica|Salvia lanata|Salvia montbretii|Salvia multicaulis|Salvia nemorosa|Salvia nubicola|Salvia officinalis|Salvia pomifera|Salvia sclarea|Salvia tomentosa|Salvia verticillata|Salvia × sylvestris|Sambucus chinensis|Sambucus nigra|Sanguinaria canadensis|Sarracenia flava|Sarracenia purpurea|Sauropus quadrangularis|Saussurea medusa|Saussurea nivea|Saussurea pricei|Scapania nemorea|Scapholeberis mucronata|Scorzonera pseudodivaricata|Scorzonera tomentosa|Scrophularia leucoclada|Scutellaria seleriana|Searsia thyrsiflora|Sebastiania schottiana|Sedum morganianum|Senecio madagascariensis|Senecio scandens|Senecio viscosus|Senna didymobotrya|Senna italica|Senna petersiana|Senna siamea|Senna villosa|Sesamum alatum|Sesamum angustifolium|Sesamum radiatum|Shigella flexneri|Shirakiopsis elliptica|Shorea resina-nigra|Shorea robusta|Sideritis argosphacelus|Sideritis canariensis|Sideritis candicans|Sideritis dendro-chahorra|Sideritis discolor|Sideritis kuegleriana|Sideritis lotsyi|Sideritis syriaca|Sideritis taurica|Silene fortunei|Silybum marianum|Sinacalia tangutica|Sindora wallichii|Sinularia leptoclados|Siphocampylus verticillatus|Siphoneugena densiflora|Smallanthus glabratus|Smenospongia echina|Smilax glabra|Smilax macrophylla|Smilax myosotiflora|Smooth hawksbeard|Smyrnium olusatrum|Solanum dulcamara|Solanum racemigerum|Solenostemma argel|Solenostemma oleifolium|Solidago chilensis|Solidago puberula|Solidago rugosa|Sonchus Arvensis|Sonchus arvensis|Sonchus asper|Sophora angustifolia|Sorbus americana|Sorbus aucuparia|Sorbus decora|Sorghum bicolor|Spilanthes ocymifolia|Stereocaulon azoreum|Stevia polycephala|Stizolophus coronopifolius|Streblus asper|Streptocaulon juventas|Streptomyces aureus|Streptomyces collinus|Streptomyces eurythermus|Streptomyces ipomoeae|Streptomyces misawanensis|Streptomyces naraensis|Streptomyces parvisporogenes|Streptomyces sclerotialus|Strobilanthes callosa|Strobilanthes zeylanica|Struthiopteris amabilis|Strychnos ledermannii|Strychnos spinosa|Stylotrichium rotundifolium|Stypandra imbricata|Suaeda maritima|Suregada lanceolata|Swamp dewberry|Swertia corymbosa|Swertia punctata|Symphoricarpos albus|Symphyotrichum novi-belgii var. novi-belgii|Symphyotrichum subulatum var. squamatum|Symplocarpus foetidus|Syncarpia hillii|Syzygium samarangense|Tabebuia aurea|Tabebuia rosea|Tabernaemontana catharinensis|Tabernaemontana divaricata|Tabernaemontana glandulosa|Tabernaemontana laeta|Tabernaemontana markgrafiana|Tabernaemontana ventricosa|Tanacetum argenteum|Tanacetum densum|Tanacetum sp.|Tanacetum vulgare|Tapeinosperma pseudojambosa|Taraxacum hallaisanense|Taraxacum japonicum|Taraxacum platycarpum|Taraxacum sp.|Tecoma stans|Tephrosia tepicana|Tessaria integrifolia var. ambigua|Teucrium chamaedrys|Teucrium depressum|Teucrium divaricatum|Teucrium heterophyllum|Teucrium leucocladum|Teucrium pestalozzae|Thevetia Peruviana|Thevetia peruviana|Thymus piperella|Tilia tomentosa|Tolypothrix tjipanasensis|Toona ciliata|Tovomita brasiliensis|Tovomita fructipendula|Trattinnickia aspera|Trichilia rubescens|Trichormus hallensis|Trifoliate orange|Trifolium apertum|Tripodanthus acutifolius|Tripterygium wilfordii|Trixis grisebachii|Tsuga canadensis|Tussilago farfara|Typha latifolia|Uvaria kirkii|Vaccinium myrtillus|Vaccinium sp.|Vallaris solanacea|Vepris unifoliolata|Verbascum thapsus|Verbena triphylla|Vernonanthura montevidensis|Vernonanthura squamulosa|Vernonia echitifolia|Vernonia galamensis|Vernonia incana|Vernonia mollissima|Veronica pectinata|Verpa digitaliformis|Viburnum davidii|Viburnum furcatum|Viburnum jucundum|Viburnum lantana L.|Viburnum nudum var. cassinoides|Viburnum opulus|Viburnum opulus L.|Viburnum plicatum Thunb.|Viburnum rhytidophyllum Hemsl.|Viburnum sp.|Viburnum tinus L.|Viburnum wrightii|Viburnum x bodnantense Aberc.|Vicoa indica|Vigna cylindrica|Vigna mungo|Viguiera annua|Vincetoxicum hemsleyanum|Vincetoxicum hirundinaria|Vincetoxicum indicum|Vincetoxicum sp.|Viscum coloratum|Vitellaria paradoxa|Vitex trifolia|Vitis vinifera|Volkameria inermis|Wrightia sp.|Xanthoparmelia camtschadalis|Xenoacremonium recifei|Zanthoxylum Armatum|Zanthoxylum armatum|Zanthoxylum tetraspermum|basil|bog bilberry|common dandelion|common sunflower|lettuce|maize|sesame|soybean

>  <collections>  (40) 
ANPDB|Australian natural products|CMAUP (cCollective molecular activities of useful plants)|ChEBI NPs|ChemSpider NPs|Latin America dataset|NANPDB (Natural Products from Northern African Sources)|NAPRORE-CR|NPACT|NPASS|NuBBEDB|Phyto4Health|PhytoLab phyproof® Reference Substances|Super Natural II|TCMDB-Taiwan (Traditional Chinese Medicine database)|TPPT (Toxic Plants–PhytoToxins)|VietHerb|WikiData Natural Products|ZINC NP

>  <dois>  (40) 
10.1002/(SICI)1099-1573(199908/09)13:5<433::AID-PTR457>3.0.CO;2-4|10.1002/9780470744307.gat218|10.1002/CBDV.200890015|10.1002/CBER.19650980115|10.1002/CHIN.197348479|10.1002/CHIN.198410290|10.1002/CHIN.200324153|10.1002/CHIN.200437183|10.1002/CHIN.200502185|10.1002/HLCA.200900220|10.1002/JCCS.200200019|10.1002/JCCS.200400211|10.1002/JCCS.200700064|10.1002/JHRC.1240200804|10.1002/JPS.2600620431|10.1002/JPS.2600641019|10.1002/JPS.2600650226|10.1002/JPS.2600710621|10.1002/JPS.3030360808|10.1002/JSFA.2740590309|10.1002/MRC.1147|10.1002/MRC.1600|10.1002/MRC.1734|10.1002/MRC.1844|10.1002/PCA.2800040508|10.1002/PS.1278|10.1002/PTR.1111|10.1002/biuz.19840140514|10.1002/ps.1278|10.1007/BF00397385|10.1007/BF00565853|10.1007/BF00569023|10.1007/BF00579142|10.1007/BF00580051|10.1007/BF00580456|10.1007/BF00597724|10.1007/BF00598326|10.1007/BF00607550|10.1007/BF00630417|10.1007/BF02249647|10.1007/BF02249650|10.1007/BF02282420|10.1007/BF02534064|10.1007/BF02535183|10.1007/BF02541591|10.1007/BF02541638|10.1007/BF02637687|10.1007/BF02861174|10.1007/BF02986020|10.1007/S00044-017-2033-4|10.1007/S10600-006-0002-0|10.1007/S10600-006-0266-4|10.1007/S10600-007-0232-9|10.1007/S10600-008-0012-1|10.1007/S10600-008-9078-Z|10.1007/S10600-010-9543-3|10.1007/S10600-010-9659-5|10.1007/S10600-011-0026-Y|10.1007/S10600-016-1771-8|10.1007/S10600-017-2003-6|10.1007/S10600-020-02963-X|10.1007/S11418-010-0403-Z|10.1007/S11418-010-0431-8|10.1007/SPRINGERREFERENCE_69355|10.1016/0031-9422(74)85147-2|10.1016/0031-9422(81)85164-3|10.1016/0031-9422(83)80045-4|10.1016/0031-9422(83)80160-5|10.1016/0031-9422(83)80245-3|10.1016/0031-9422(83)83027-1|10.1016/0031-9422(83)83062-3|10.1016/0031-9422(84)83081-2|10.1016/0031-9422(85)80024-8|10.1016/0031-9422(85)80030-3|10.1016/0031-9422(88)80158-4|10.1016/0031-9422(88)80696-4|10.1016/0031-9422(88)80706-4|10.1016/0031-9422(88)83029-2|10.1016/0031-9422(88)83098-X|10.1016/0031-9422(88)83136-4|10.1016/0031-9422(88)87045-6|10.1016/0031-9422(89)80295-X|10.1016/0031-9422(89)80376-0|10.1016/0031-9422(90)80037-H|10.1016/0031-9422(90)80134-3|10.1016/0031-9422(90)85028-E|10.1016/0031-9422(90)85226-6|10.1016/0031-9422(90)85371-L|10.1016/0031-9422(90)87129-I|10.1016/0031-9422(90)87137-J|10.1016/0031-9422(90)89059-I|10.1016/0031-9422(91)80034-X|10.1016/0031-9422(91)83035-J|10.1016/0031-9422(91)83210-C|10.1016/0031-9422(91)84158-O|10.1016/0031-9422(91)84221-D|10.1016/0031-9422(91)85077-D|10.1016/0031-9422(91)85154-R|10.1016/0031-9422(91)85157-U|10.1016/0031-9422(91)85249-Y|10.1016/0031-9422(92)80366-M|10.1016/0031-9422(92)80458-Q|10.1016/0031-9422(92)83142-L|10.1016/0031-9422(92)83720-J|10.1016/0031-9422(92)83724-D|10.1016/0031-9422(92)83744-J|10.1016/0031-9422(92)90045-R|10.1016/0031-9422(94)85021-6|10.1016/0031-9422(95)00091-K|10.1016/0031-9422(95)00179-B|10.1016/0031-9422(95)00731-8|10.1016/0031-9422(95)00778-4|10.1016/0031-9422(95)00806-3|10.1016/0031-9422(95)00973-6|10.1016/0031-9422(95)99386-3|10.1016/0031-9422(96)00149-5|10.1016/0031-9422(96)00325-1|10.1016/0165-1218(93)90043-D|10.1016/0305-1978(87)90052-4|10.1016/0305-1978(94)90107-4|10.1016/0378-8741(84)90002-3|10.1016/0960-8524(92)90053-Z|10.1016/B978-0-12-812491-8.00030-8|10.1016/J.ARABJC.2011.03.011|10.1016/J.BMCL.2010.10.058|10.1016/J.BSE.2005.07.017|10.1016/J.BSE.2013.01.005|10.1016/J.CCLET.2010.02.022|10.1016/J.EJPHAR.2004.11.012|10.1016/J.FITOTE.2004.06.007|10.1016/J.FITOTE.2004.11.003|10.1016/J.JEP.2005.01.029|10.1016/J.JEP.2010.01.009|10.1016/J.PHYTOCHEM.2004.02.023|10.1016/J.PHYTOCHEM.2008.12.008|10.1016/J.PHYTOCHEM.2009.05.011|10.1016/J.PHYTOL.2009.03.002|10.1016/J.PHYTOL.2012.10.012|10.1016/S0009-8981(02)00021-9|10.1016/S0021-9673(98)00084-3|10.1016/S0031-9422(00)00250-8|10.1016/S0031-9422(00)00296-X|10.1016/S0031-9422(00)00402-7|10.1016/S0031-9422(00)80074-6|10.1016/S0031-9422(00)80358-1|10.1016/S0031-9422(00)80490-2|10.1016/S0031-9422(00)80602-0|10.1016/S0031-9422(00)80608-1|10.1016/S0031-9422(00)80819-5|10.1016/S0031-9422(00)81125-5|10.1016/S0031-9422(00)81318-7|10.1016/S0031-9422(00)81419-3|10.1016/S0031-9422(00)81969-X|10.1016/S0031-9422(00)82392-4|10.1016/S0031-9422(00)82541-8|10.1016/S0031-9422(00)82608-4|10.1016/S0031-9422(00)83042-3|10.1016/S0031-9422(00)83122-2|10.1016/S0031-9422(00)84574-4|10.1016/S0031-9422(00)84784-6|10.1016/S0031-9422(00)84985-7|10.1016/S0031-9422(00)85520-X|10.1016/S0031-9422(00)86013-6|10.1016/S0031-9422(00)89601-6|10.1016/S0031-9422(00)89602-8|10.1016/S0031-9422(00)89651-X|10.1016/S0031-9422(00)89654-5|10.1016/S0031-9422(00)89812-X|10.1016/S0031-9422(00)90117-1|10.1016/S0031-9422(00)90410-2|10.1016/S0031-9422(00)90415-1|10.1016/S0031-9422(00)90474-6|10.1016/S0031-9422(00)90500-4|10.1016/S0031-9422(00)90672-1|10.1016/S0031-9422(00)90675-7|10.1016/S0031-9422(00)90717-9|10.1016/S0031-9422(00)90719-2|10.1016/S0031-9422(00)90814-8|10.1016/S0031-9422(00)90865-3|10.1016/S0031-9422(00)90867-7|10.1016/S0031-9422(00)94783-6|10.1016/S0031-9422(00)94844-1|10.1016/S0031-9422(00)95020-9|10.1016/S0031-9422(00)95112-4|10.1016/S0031-9422(00)97033-X|10.1016/S0031-9422(00)97065-1|10.1016/S0031-9422(00)97081-X|10.1016/S0031-9422(00)97086-9|10.1016/S0031-9422(00)97305-9|10.1016/S0031-9422(00)97553-8|10.1016/S0031-9422(00)97558-7|10.1016/S0031-9422(00)97560-5|10.1016/S0031-9422(00)97767-7|10.1016/S0031-9422(00)97935-4|10.1016/S0031-9422(00)97999-8|10.1016/S0031-9422(01)00006-1|10.1016/S0031-9422(01)00121-2|10.1016/S0031-9422(01)00171-6|10.1016/S0031-9422(01)00389-2|10.1016/S0031-9422(02)00021-3|10.1016/S0031-9422(03)00202-4|10.1016/S0031-9422(96)00343-3|10.1016/S0031-9422(96)00709-1|10.1016/S0031-9422(97)00004-6|10.1016/S0031-9422(97)00042-3|10.1016/S0031-9422(97)00101-5|10.1016/S0031-9422(97)00146-5|10.1016/S0031-9422(97)00309-9|10.1016/S0031-9422(97)00312-9|10.1016/S0031-9422(97)00540-2|10.1016/S0031-9422(97)00690-0|10.1016/S0031-9422(97)01137-0|10.1016/S0031-9422(97)80029-5|10.1016/S0031-9422(98)00536-6|10.1016/S0031-9422(98)00656-6|10.1016/S0031-9422(99)00207-1|10.1016/S0031-9422(99)00578-6|10.1016/S0040-4039(00)01347-2|10.1016/S0176-1617(85)80223-6|10.1016/S0305-1978(01)00073-4|10.1016/S0305-1978(01)00127-2|10.1016/S0305-1978(02)00027-3|10.1016/S0305-1978(98)00070-2|10.1016/S0305-1978(99)00064-2|10.1016/S0367-326X(00)00155-6|10.1016/S0367-326X(00)00265-3|10.1016/S0367-326X(00)00287-2|10.1016/S0367-326X(01)00289-1|10.1016/S0367-326X(01)00292-1|10.1016/S0367-326X(02)00011-4|10.1016/S0367-326X(99)00010-6|10.1016/S0378-8741(01)00414-7|10.1016/S0378-8741(02)00172-1|10.1016/S0378-8741(97)00111-6|10.1016/S0944-7113(98)80006-8|10.1016/S0969-2126(01)00690-6|10.1016/j.phytol.2012.10.012|10.1021/ACS.JNATPROD.6B00204|10.1021/JF00039A021|10.1021/JF010813M|10.1021/JO0491408|10.1021/NP000321O|10.1021/NP0201220|10.1021/NP0303512|10.1021/NP040041Z|10.1021/NP040072U|10.1021/NP0497548|10.1021/NP070038Q|10.1021/NP1003005|10.1021/NP50009A016|10.1021/NP50027A025|10.1021/NP50028A003|10.1021/NP50031A028|10.1021/NP50031A030|10.1021/NP50031A033|10.1021/NP50032A023|10.1021/NP50034A036|10.1021/NP50044A031|10.1021/NP50046A049|10.1021/NP50047A034|10.1021/NP50057A012|10.1021/NP50057A040|10.1021/NP50064A021|10.1021/NP50069A024|10.1021/NP50071A032|10.1021/NP50074A033|10.1021/NP50096A031|10.1021/NP50101A008|10.1021/NP50105A001|10.1021/NP50116A019|10.1021/NP50116A023|10.1021/NP960134J|10.1021/NP9700681|10.1021/NP970490H|10.1021/NP980224J|10.1021/NP990009I|10.1021/acs.jnatprod.6b00204|10.1021/acs.jnatprod.7b00241|10.1021/np040072u|10.1021/np070038q|10.1039/P19810002717|10.1042/BST0110595|10.1055/S-0028-1097228|10.1055/S-0028-1097496|10.1055/S-0028-1097541|10.1055/S-0028-1097546|10.1055/S-0028-1097821|10.1055/S-0028-1099467|10.1055/S-0028-1099474|10.1055/S-0028-1099523|10.1055/S-0028-1099554|10.1055/S-0028-1099578|10.1055/S-0028-1099603|10.1055/S-0034-1382449|10.1055/S-1999-13965|10.1055/S-2000-8632|10.1055/S-2001-15813|10.1055/S-2001-17357|10.1055/S-2001-18359|10.1055/S-2004-818920|10.1055/S-2006-957747|10.1055/S-2006-957793|10.1055/S-2006-957841|10.1055/S-2006-959562|10.1055/S-2006-959579|10.1055/S-2006-959670|10.1055/S-2006-960942|10.1055/S-2006-961488|10.1055/S-2006-961497|10.1055/S-2006-961513|10.1055/S-2006-961822|10.1055/S-2006-962041|10.1055/S-2006-962388|10.1055/S-2006-962517|10.1055/S-2007-969881|10.1055/S-2007-971441|10.1055/S-2008-1034301|10.1071/CH9781375|10.1071/ch9781375|10.1076/PHBI.39.1.20.5941|10.1078/0944-7113-00143|10.1080/10286020.2010.548808|10.1080/10286020.2012.733700|10.1080/10286020108041393|10.1080/1028602031000080441|10.1080/1028602042000325591|10.1080/10286020701782486|10.1080/10575630108041297|10.1080/10575630290033169|10.1080/10575639208048902|10.1080/13880200490510793|10.1080/13880200590928753|10.1080/13880200601026234|10.1080/13880200902933039|10.1080/14786410412331272095|10.1080/14786410500161205|10.1080/14786410802214009|10.1080/14786410902757899|10.1080/14786410902975566|10.1080/14786419.2010.518146|10.1080/14786419.2011.606219|10.1086/331761|10.1135/CCCC19842661|10.1139/V09-078|10.1139/V63-343|10.1139/V67-161|10.1139/V83-312|10.1139/V87-023|10.1139/V92-182|10.1177/1934578X0800300203|10.1177/1934578X0900400302|10.1186/2193-1801-3-253|10.1201/9780203022320.CH4|10.1211/002235702919|10.1248/BPB.22.606|10.1248/CPB.26.1394|10.1248/CPB.32.369|10.1248/CPB.32.723|10.1248/CPB.37.2621|10.1248/CPB.40.2007|10.1248/CPB.42.608|10.1248/CPB.42.960|10.1248/CPB.43.1634|10.1248/CPB.43.180|10.1248/CPB.44.1202|10.1248/CPB.44.1255|10.1248/CPB.44.509|10.1248/CPB.45.2016|10.1248/CPB.46.1408|10.1248/CPB.46.1647|10.1248/CPB.47.890|10.1248/CPB.49.1477|10.1248/CPB.51.89|10.1248/CPB.53.1416|10.1248/CPB.55.1258|10.1248/CPB.56.1428|10.1248/CPB.58.971|10.1248/YAKUSHI1947.103.3_356|10.14233/AJCHEM.2014.16935|10.1515/ZNB-1997-0319|10.1515/ZNB-2008-1113|10.1515/ZNC-1985-5-607|10.1515/ZNC-1988-1-206|10.1515/ZNC-1988-11-1202|10.1515/ZNC-1989-7-804|10.1515/ZNC-1991-1-203|10.1515/ZNC-1991-9-1005|10.1515/ZNC-1992-7-802|10.1515/ZNC-1992-7-805|10.1515/ZNC-2001-1-208|10.1515/ZNC-2002-1-214|10.1590/S0100-40422009000800010|10.1590/S0103-50531997000500016|10.1590/S0103-50531998000500004|10.1590/S0103-50532001000300008|10.1590/S0103-50532001000400019|10.1590/S0103-50532001000400020|10.1590/S0103-50532002000100020|10.1590/S0103-50532006000200010|10.21608/BFSA.1984.89566|10.21608/BFSA.1984.89568|10.21608/BFSA.1984.89869|10.21608/BFSA.1985.75705|10.21608/BFSA.1985.75886|10.21608/BFSA.1987.74392|10.21608/BFSA.1995.69668|10.21608/BFSA.1995.69697|10.21608/BFSA.1997.68739|10.21608/BFSA.2000.66312|10.21608/BFSA.2001.65755|10.21608/BFSA.2002.65703|10.21608/BFSA.2003.65484|10.21608/ZJPS.1993.187366|10.21779/2542-0321-2016-31-2-51-53|10.25073/2588-1140/VNUNST.5500|10.3109/10915819309140647|10.3109/13880208309070642|10.3109/13880209009082791|10.3109/13880209209054017|10.3329/DUJPS.V3I1.189|10.3390/molecules21020192|10.3987/COM-03-9822|10.4067/S0366-16442000000100007|10.4268/CJCMM20121011|10.4268/CJCMM20141334|10.4268/CJCMM20151919|10.4314/BCSE.V16I1.20951|10.4314/BCSE.V16I1.20952|10.4314/GJPAS.V6I1.16077|10.4314/bcse.v16i1.20952|10.48141/SBJCHEM.V7.N8.1999.52_1999.PDF|10.5012/BKCS.2004.25.7.1078|10.5353/TH_B3126140|10.5511/PLANTBIOTECHNOLOGY1984.10.275|10.5586/ASBP.1977.015|10.5650/JOS1956.29.82|10.5650/jos.ess19091|10.5935/0103-5053.19910004|10.7717/PEERJ.4998/FIG-8

>  <synonyms>  (40) 
nan

>  <cas>  (40) 
638-95-9

$$$$

     RDKit          2D

 26 30  0  0  0  0  0  0  0  0999 V2000
    1.1928   -3.9007    0.0000 C   0  0  0  0  0  0  0  0  0  0  0  0
    0.0754   -2.9001    0.0000 O   0  0  0  0  0  0  0  0  0  0  0  0
    0.3833   -1.4320    0.0000 C   0  0  0  0  0  0  0  0  0  0  0  0
    1.1783   -1.3743    0.0000 O   0  0  0  0  0  0  0  0  0  0  0  0
   -0.7342   -0.4313    0.0000 C   0  0  0  0  0  0  0  0  0  0  0  0
   -0.9315   -1.9183    0.0000 C   0  0  0  0  0  0  0  0  0  0  0  0
   -2.3179   -2.4909    0.0000 C   0  0  0  0  0  0  0  0  0  0  0  0
   -3.5070   -1.5765    0.0000 C   0  0  0  0  0  0  0  0  0  0  0  0
   -3.3097   -0.0896    0.0000 C   0  0  0  0  0  0  0  0  0  0  0  0
   -4.4988    0.8248    0.0000 C   0  0  0  0  0  0  0  0  0  0  0  0
   -5.8852    0.2522    0.0000 C   0  0  0  0  0  0  0  0  0  0  0  0
   -4.3015    2.3118    0.0000 O   0  0  0  0  0  0  0  0  0  0  0  0
   -1.9233    0.4830    0.0000 C   0  0  0  0  0  0  0  0  0  0  0  0
   -1.9498    1.9828    0.0000 N   0  0  0  0  0  0  0  0  0  0  0  0
   -0.7938    2.9386    0.0000 C   0  0  0  0  0  0  0  0  0  0  0  0
    0.6743    2.6307    0.0000 C   0  0  0  0  0  0  0  0  0  0  0  0
    1.3489    1.2910    0.0000 C   0  0  0  0  0  0  0  0  0  0  0  0
    0.7221   -0.0718    0.0000 C   0  0  0  0  0  0  0  0  0  0  0  0
    1.8244   -1.0890    0.0000 N   0  0  0  0  0  0  0  0  0  0  0  0
    3.1325   -0.3550    0.0000 C   0  0  0  0  0  0  0  0  0  0  0  0
    4.5534   -0.8359    0.0000 C   0  0  0  0  0  0  0  0  0  0  0  0
    5.6803    0.1540    0.0000 C   0  0  0  0  0  0  0  0  0  0  0  0
    5.3864    1.6250    0.0000 C   0  0  0  0  0  0  0  0  0  0  0  0
    3.9656    2.1059    0.0000 C   0  0  0  0  0  0  0  0  0  0  0  0
    2.8387    1.1159    0.0000 C   0  0  0  0  0  0  0  0  0  0  0  0
   -2.8038    0.7496    0.0000 C   0  0  0  0  0  0  0  0  0  0  0  0
  1  2  1  0
  2  3  1  0
  3  4  2  0
  5  3  1  1
  5  6  1  0
  7  6  1  1
  7  8  1  0
  9  8  1  1
  9 10  1  0
 10 11  1  6
 10 12  1  0
  9 13  1  0
 13 14  1  6
 14 15  1  0
 15 16  1  0
 16 17  1  0
 17 18  2  0
 18 19  1  0
 19 20  1  0
 20 21  2  0
 21 22  1  0
 22 23  2  0
 23 24  1  0
 24 25  2  0
 14 26  1  0
 13  5  1  0
 25 17  1  0
 18  5  1  0
 25 20  1  0
 26  7  1  0
M  END
>  <identifier>  (41) 
CNP0260951.3

>  <canonical_smiles>  (41) 
COC(=O)[C@@]12C[C@H]3C[C@@H]([C@H](C)O)[C@@H]1N(CCC1=C2NC2=CC=CC=C12)C3

>  <standard_inchi>  (41) 
InChI=1S/C21H26N2O3/c1-12(24)16-9-13-10-21(20(25)26-2)18-15(7-8-23(11-13)19(16)21)14-5-3-4-6-17(14)22-18/h3-6,12-13,16,19,22,24H,7-11H2,1-2H3/t12-,13+,16-,19-,21+/m0/s1

>  <standard_inchi_key>  (41) 
VGDQBNXQAOYMPS-CFWLMFDNSA-N

>  <name>  (41) 
nan

>  <iupac_name>  (41) 
methyl (1~{S},15~{R},17~{R},18~{S})-17-[(1~{S})-1-hydroxyethyl]-3,13-diazapentacyclo[13.3.1.0^{2,10}.0^{4,9}.0^{13,18}]nonadeca-2(10),4,6,8-tetraene-1-carboxylate

>  <annotation_level>  (41) 
5

>  <total_atom_count>  (41) 
52

>  <heavy_atom_count>  (41) 
26

>  <molecular_weight>  (41) 
354.45

>  <exact_molecular_weight>  (41) 
354.19434

>  <molecular_formula>  (41) 
C21H26N2O3

>  <alogp>  (41) 
2.23

>  <topological_polar_surface_area>  (41) 
65.56

>  <rotatable_bond_count>  (41) 
2

>  <hydrogen_bond_acceptors>  (41) 
4

>  <hydrogen_bond_donors>  (41) 
2

>  <hydrogen_bond_acceptors_lipinski>  (41) 
4

>  <hydrogen_bond_donors_lipinski>  (41) 
2

>  <lipinski_rule_of_five_violations>  (41) 
0

>  <aromatic_rings_count>  (41) 
2

>  <qed_drug_likeliness>  (41) 
0.81

>  <formal_charge>  (41) 
0

>  <fractioncsp3>  (41) 
0.57

>  <number_of_minimal_rings>  (41) 
6

>  <van_der_walls_volume>  (41) 
323.12

>  <contains_sugar>  (41) 
False

>  <contains_ring_sugars>  (41) 
False

>  <contains_linear_sugars>  (41) 
False

>  <murcko_framework>  (41) 
c1ccc2c(c1)[nH]c3c2CCN4CC5CCC4C3C5

>  <np_likeness>  (41) 
1.68

>  <chemical_class>  (41) 
Ibogan-type alkaloids

>  <chemical_sub_class>  (41) 
Ibogan-type alkaloids

>  <chemical_super_class>  (41) 
Alkaloids and derivatives

>  <direct_parent_classification>  (41) 
Ibogan-type alkaloids

>  <np_classifier_pathway>  (41) 
Alkaloids

>  <np_classifier_superclass>  (41) 
Tryptophan alkaloids

>  <np_classifier_class>  (41) 
Iboga type

>  <np_classifier_is_glycoside>  (41) 
False

>  <organisms>  (41) 
Ervatamia coronaria (Jacq.)|Pandaca mocquerysii|Peschiera catharinensis|Tabernaemontana amblyocarpa Urb.|Tabernaemontana apoda Wr.ex Sauv.|Tabernaemontana attenuata (Miers)Urb.|Tabernaemontana bufalina Lour.|Tabernaemontana calcarea|Tabernaemontana catharinensis|Tabernaemontana coffeoides Boj.|Tabernaemontana crassa Benth.|Tabernaemontana dichotoma Roxb.ex Wall|Tabernaemontana divaricata|Tabernaemontana mocquerysii|Tabernaemontana mocquerysii Aug.DC.|Tabernaemontana olivacea Mull.Arg.|Tabernaemontana quadrangularis|Tabernaemontana retusa (Lam.) Pichon|Tabernaemontana sananho Ruiz et Pav.

>  <collections>  (41) 
KNApSaCK|Latin America dataset|NuBBEDB|WikiData Natural Products

>  <dois>  (41) 
10.1016/0031-9422(75)85373-8|10.1016/S0031-9422(00)80552-X|10.1021/NP020548E|10.1021/NP50057A012

>  <synonyms>  (41) 
Heyneanine

>  <cas>  (41) 
nan

$$$$

     RDKit          2D

 27 29  0  0  0  0  0  0  0  0999 V2000
    5.6668   -3.9061    0.0000 C   0  0  0  0  0  0  0  0  0  0  0  0
    4.3525   -3.1830    0.0000 O   0  0  0  0  0  0  0  0  0  0  0  0
    4.3215   -1.6834    0.0000 C   0  0  0  0  0  0  0  0  0  0  0  0
    5.6048   -0.9067    0.0000 O   0  0  0  0  0  0  0  0  0  0  0  0
    3.0073   -0.9603    0.0000 C   0  0  0  0  0  0  0  0  0  0  0  0
    1.7240   -1.7370    0.0000 C   0  0  0  0  0  0  0  0  0  0  0  0
    0.4098   -1.0140    0.0000 O   0  0  0  0  0  0  0  0  0  0  0  0
    0.3788    0.4857    0.0000 C   0  0  0  0  0  0  0  0  0  0  0  0
   -0.9354    1.2087    0.0000 O   0  0  0  0  0  0  0  0  0  0  0  0
   -2.2187    0.4321    0.0000 C   0  0  0  0  0  0  0  0  0  0  0  0
   -3.5330    1.1551    0.0000 O   0  0  0  0  0  0  0  0  0  0  0  0
   -4.8162    0.3784    0.0000 C   0  0  0  0  0  0  0  0  0  0  0  0
   -6.1305    1.1015    0.0000 C   0  0  0  0  0  0  0  0  0  0  0  0
   -6.1614    2.6011    0.0000 O   0  0  0  0  0  0  0  0  0  0  0  0
   -4.7853   -1.1212    0.0000 C   0  0  0  0  0  0  0  0  0  0  0  0
   -6.0685   -1.8979    0.0000 O   0  0  0  0  0  0  0  0  0  0  0  0
   -3.4710   -1.8443    0.0000 C   0  0  0  0  0  0  0  0  0  0  0  0
   -3.4401   -3.3440    0.0000 O   0  0  0  0  0  0  0  0  0  0  0  0
   -2.1877   -1.0676    0.0000 C   0  0  0  0  0  0  0  0  0  0  0  0
   -0.8735   -1.7906    0.0000 O   0  0  0  0  0  0  0  0  0  0  0  0
    1.6621    1.2624    0.0000 C   0  0  0  0  0  0  0  0  0  0  0  0
    1.9436    2.7357    0.0000 C   0  0  0  0  0  0  0  0  0  0  0  0
    0.9171    3.8295    0.0000 C   0  0  0  0  0  0  0  0  0  0  0  0
    3.4318    2.9233    0.0000 C   0  0  0  0  0  0  0  0  0  0  0  0
    4.1548    4.2375    0.0000 O   0  0  0  0  0  0  0  0  0  0  0  0
    4.0701    1.5658    0.0000 C   0  0  0  0  0  0  0  0  0  0  0  0
    2.9763    0.5393    0.0000 C   0  0  0  0  0  0  0  0  0  0  0  0
  1  2  1  0
  2  3  1  0
  3  4  2  0
  3  5  1  0
  5  6  2  0
  6  7  1  0
  7  8  1  0
  8  9  1  1
 10  9  1  1
 10 11  1  0
 11 12  1  0
 12 13  1  1
 13 14  1  0
 12 15  1  0
 15 16  1  6
 15 17  1  0
 17 18  1  1
 17 19  1  0
 19 20  1  6
 21  8  1  6
 21 22  1  0
 22 23  1  1
 22 24  1  0
 24 25  1  1
 24 26  1  0
 27 26  1  6
 27  5  1  0
 19 10  1  0
 27 21  1  0
M  END
>  <identifier>  (42) 
CNP0182212.1

>  <canonical_smiles>  (42) 
COC(=O)C1=CO[C@@H](O[C@@H]2O[C@H](CO)[C@@H](O)[C@H](O)[C@H]2O)[C@@H]2[C@@H](C)[C@@H](O)C[C@H]12

>  <standard_inchi>  (42) 
InChI=1S/C17H26O10/c1-6-9(19)3-7-8(15(23)24-2)5-25-16(11(6)7)27-17-14(22)13(21)12(20)10(4-18)26-17/h5-7,9-14,16-22H,3-4H2,1-2H3/t6-,7+,9-,10+,11+,12+,13-,14+,16-,17-/m0/s1

>  <standard_inchi_key>  (42) 
AMBQHHVBBHTQBF-UOUCRYGSSA-N

>  <name>  (42) 
Loganin

>  <iupac_name>  (42) 
methyl (1~{S},4~{a}~{S},6~{S},7~{R},7~{a}~{S})-6-hydroxy-7-methyl-1-[(2~{S},3~{R},4~{S},5~{S},6~{R})-3,4,5-trihydroxy-6-(hydroxymethyl)tetrahydropyran-2-yl]oxy-1,4~{a},5,6,7,7~{a}-hexahydrocyclopenta[c]pyran-4-carboxylate

>  <annotation_level>  (42) 
5

>  <total_atom_count>  (42) 
53

>  <heavy_atom_count>  (42) 
27

>  <molecular_weight>  (42) 
390.39

>  <exact_molecular_weight>  (42) 
390.1526

>  <molecular_formula>  (42) 
C17H26O10

>  <alogp>  (42) 
-2.15

>  <topological_polar_surface_area>  (42) 
155.14

>  <rotatable_bond_count>  (42) 
4

>  <hydrogen_bond_acceptors>  (42) 
10

>  <hydrogen_bond_donors>  (42) 
5

>  <hydrogen_bond_acceptors_lipinski>  (42) 
10

>  <hydrogen_bond_donors_lipinski>  (42) 
5

>  <lipinski_rule_of_five_violations>  (42) 
0

>  <aromatic_rings_count>  (42) 
0

>  <qed_drug_likeliness>  (42) 
0.34

>  <formal_charge>  (42) 
0

>  <fractioncsp3>  (42) 
0.82

>  <number_of_minimal_rings>  (42) 
3

>  <van_der_walls_volume>  (42) 
336.84

>  <contains_sugar>  (42) 
True

>  <contains_ring_sugars>  (42) 
True

>  <contains_linear_sugars>  (42) 
False

>  <murcko_framework>  (42) 
O1C=CC2CCCC2C1OC3OCCCC3

>  <np_likeness>  (42) 
2.77

>  <chemical_class>  (42) 
Prenol lipids

>  <chemical_sub_class>  (42) 
Terpene glycosides

>  <chemical_super_class>  (42) 
Lipids and lipid-like molecules

>  <direct_parent_classification>  (42) 
Iridoid O-glycosides

>  <np_classifier_pathway>  (42) 
Terpenoids

>  <np_classifier_superclass>  (42) 
Monoterpenoids

>  <np_classifier_class>  (42) 
Iridoids monoterpenoids

>  <np_classifier_is_glycoside>  (42) 
True

>  <organisms>  (42) 
Acacia aulacocarpa|Acritopappus confertus|Adina racemosa|Anemone flaccida|Aosa gilgiana|Ardisia neriifolia|Aspidosperma subincanum|Avicennia officinalis|Blumenbachia hieronymi|Blumenbachia insignis|Brachylaena discolor var. rotundata|Caiophora andina|Caiophora chuquitensis|Caiophora contorta|Calycophyllum spruceanum|Castilleja tenuiflora|Catharanthus roseus|Centaurium erythraea|Cephalanthus occidentalis|Cephalaria ambrosioides|Cephalaria procera|Cerbera manghas|Cinchona calisaya|Coelospermum balansanum|Cornus officinalis|Cornus sp.|Cryptocarya aschersoniana|Desfontainia fulgens|Desfontainia spinosa|Dimocarpus fumatus|Diplopanax stachyanthus|Dipsacus Asper|Dipsacus asper|Dipsacus asperoides|Dipsacus inermis|Dipsacus laciniatus|Eucnide bartonioides|Eucommia ulmoides|Eupatorium argentinum|Fagara ailanthoides|Fouquieria columnaris|Gentiana crassicaulis|Gentiana dahurica|Gentiana depressa|Gentiana loureirii|Gentiana macrophylla|Gentiana pedicellata|Gentiana pyrenaica|Gentiana straminea|Gentiana verna|Guatteria boliviana|Guettarda platypoda|Huidobria fruticosa|Hydrangea macrophylla|Jasminum hemsleyi Yamamoto|Jasminum nervosum|Juniperus brevifolia|Lamiophlomis rotata|Lamium album|Lippia graveolens|Lippia origanoides|Loasa acerifolia|Loasa heterophylla|Loasa insons|Loasa nitida|Loasa prostrata|Loasa tricolor|Loasa triloba|Lomelosia variifolia|Lonicera Japonica|Lonicera angustifolia|Lonicera caerulea|Lonicera confusa|Lonicera dioica|Lonicera fulvotomentosa|Lonicera hypoglauca|Lonicera japonica|Lonicera japonica Thunb.|Lonicera korolkowii|Lonicera macranthoides|Lonicera morrowii|Lonicera periclymenum|Lonicera quinquelocularis|Lonicera tatarica|Maesopsis eminii|Melicope lasioneura|Mentzelia sp.|Menyanthes sp.|Menyanthes trifoliata|Nasa triphylla|Nasa weberbaueri|Neolentinus lepideus|Neonauclea Sessilifolia|Neonauclea sessilifolia|Nyctanthes Arbor|Nyctanthes arbor-tristis L.|Ophiorrhiza kuroiwae|Ophiorrhiza liukiuensis|Osmanthus austrocaledonicus (Vieill.) Knobl.|Patrinia Villosa|Patrinia villosa|Penstemon barbatus|Penstemon serrulatus|Peritassa compta|Phellodendron amurense|Phlomoides rotata|Picconia excelsa|Picconia excelsa (Aiton) DC.|Pithecollobium dulce|Plakothira parviflora|Porthetria dispar|Portulaca okinawensis|Presliophytum malesherbioides|Psiadia dentata|Pterocephalus hookeri|Pterocephalus perennis|Pterocephalus pinardi|Pterocephalus pinardii|Pulicaria uliginosa|Rauvolfia grandiflora|Rauvolfia serpentina|Rheedia acuminata|Scabiosa japonica|Scabiosa variifolia|Scaevola floribunda|Scaevola montana|Scaevola racemigera|Scutellaria lateriflora|Simira rubescens|Simira tinctoria|Simira williamsii|Sinoadina Racemosa|Sinoadina racemosa|Stephania viridiflavens|Streptomyces nitrosporeus|Strychnos Axillaris|Strychnos Ignatii|Strychnos Nux|Strychnos arborea|Strychnos axillaris|Strychnos ignatii|Strychnos lucida|Strychnos nux-blanda|Strychnos nux-vomica|Strychnos parvifolia|Strychnos psilosperma|Strychnos sp.|Strychnos spinosa|Symphoricarpos orbiculatus|Symphyocladia latiuscula|Tabernaemontana divaricata|Timonius timon|Torulopsis magnoliae|Trypetheliopsis boninensis|Uncaria cordata|Vitex mollis|Weigela coraeensis|Weigela florida|Weigela japonica|Weigela middendorfiana|Xenia puertogalerae|castilleja tenuiflora|cresentia alata|vitex mollis

>  <collections>  (42) 
ANPDB|Australian natural products|CMAUP (cCollective molecular activities of useful plants)|ChEBI NPs|ChemSpider NPs|ETM (Ethiopian Traditional Medicine) DB|FooDB|KNApSaCK|Latin America dataset|NANPDB (Natural Products from Northern African Sources)|NPASS|NPEdia|NuBBEDB|PhytoLab phyproof® Reference Substances|Super Natural II|TCMDB-Taiwan (Traditional Chinese Medicine database)|TIPdb (database of Taiwan indigenous plants)|VietHerb|WikiData Natural Products|ZINC NP

>  <dois>  (42) 
10.1002/(SICI)1099-1573(199603)10:2<161::AID-PTR803>3.0.CO;2-B|10.1002/(SICI)1099-1573(199809)12:6<405::AID-PTR322>3.0.CO;2-N|10.1002/CHIN.200402178|10.1002/CHIN.200612187|10.1002/HLCA.19840670119|10.1002/JSSC.201300794|10.1002/MRC.2559|10.1002/PTR.5529|10.1007/S10600-008-0041-9|10.1007/S10600-009-9343-9|10.1007/S10600-011-0079-Y|10.1007/S11418-005-0021-3|10.1016/0021-9673(95)01057-2|10.1016/0031-9422(72)80124-9|10.1016/0031-9422(90)83063-7|10.1016/0031-9422(90)89044-A|10.1016/0031-9422(90)89068-K|10.1016/0031-9422(91)80068-C|10.1016/0031-9422(91)85153-Q|10.1016/0031-9422(94)00853-L|10.1016/0031-9422(95)00900-0|10.1016/0031-9422(95)00904-3|10.1016/0300-9084(94)90117-1|10.1016/0305-1978(91)90041-W|10.1016/J.BMCL.2012.04.087|10.1016/J.BMCL.2015.08.075|10.1016/J.EJPHAR.2009.06.062|10.1016/J.FITOTE.2006.04.011|10.1016/J.JCHROMB.2015.12.020|10.1016/J.PHYTOCHEM.2007.12.002|10.1016/J.PHYTOCHEM.2009.03.018|10.1016/J.PHYTOCHEM.2018.07.015|10.1016/S0031-6989(88)80852-X|10.1016/S0031-9422(00)00279-X|10.1016/S0031-9422(00)81424-7|10.1016/S0031-9422(00)82565-0|10.1016/S0031-9422(00)84941-9|10.1016/S0031-9422(00)86881-8|10.1016/S0031-9422(00)90436-9|10.1016/S0031-9422(00)91306-2|10.1016/S0031-9422(00)97792-6|10.1016/S0031-9422(00)98016-6|10.1016/S0031-9422(02)00541-1|10.1016/S0031-9422(03)00153-5|10.1016/S0031-9422(82)85028-0|10.1016/S0031-9422(97)00023-X|10.1016/S0031-9422(97)00162-3|10.1016/S0031-9422(98)00196-4|10.1016/S0031-9422(98)00733-X|10.1016/S0031-9422(98)00744-4|10.1016/S0031-9422(99)00426-4|10.1016/S0168-9452(99)00115-6|10.1016/S0305-1978(02)00070-4|10.1016/S0367-326X(00)00149-0|10.1016/S0944-7113(11)80021-8|10.1016/j.bmcl.2012.04.087|10.1016/j.bmcl.2015.08.075|10.1016/j.ejphar.2009.06.062|10.1021/NP030217H|10.1021/NP058062W|10.1021/NP060499W|10.1021/NP50037A019|10.1021/NP50062A041|10.1021/NP50074A028|10.1021/NP50099A007|10.1021/NP50102A019|10.1021/NP50125A020|10.1021/NP800040K|10.1021/NP900549E|10.1021/NP9702852|10.1021/acs.jnatprod.6b01127|10.1021/np900549e|10.1055/S-2005-864103|10.1055/S-2006-957879|10.1055/S-2006-961403|10.1055/S-2007-969168|10.1055/S-2007-971697|10.1071/CH9530058|10.1071/ch9530058|10.1080/10575630290030720|10.1111/J.1365-313X.2000.00922.X|10.1135/CCCC19852914|10.1248/CPB.32.1671|10.1248/CPB.36.3664|10.1248/CPB.39.2737|10.1248/CPB.43.729|10.1248/CPB.44.1797|10.1248/CPB.45.367|10.1248/CPB.53.1355|10.1248/CPB.55.1677|10.1248/YAKUSHI1947.96.2_246|10.1371/JOURNAL.PONE.0096214|10.1515/ZNC-2002-1-217|10.3390/MOLECULES21050525|10.3390/MOLECULES24244478|10.3390/molecules21050525|10.3987/COM-09-11886

>  <synonyms>  (42) 
nan

>  <cas>  (42) 
18524-94-2

$$$$

     RDKit          2D

 31 35  0  0  0  0  0  0  0  0999 V2000
   -6.1212    1.5751    0.0000 C   0  0  0  0  0  0  0  0  0  0  0  0
   -5.2492    0.3547    0.0000 C   0  0  0  0  0  0  0  0  0  0  0  0
   -5.8701   -1.0108    0.0000 C   0  0  0  0  0  0  0  0  0  0  0  0
   -7.3631   -1.1558    0.0000 O   0  0  0  0  0  0  0  0  0  0  0  0
   -4.9980   -2.2312    0.0000 C   0  0  0  0  0  0  0  0  0  0  0  0
   -3.5051   -2.0863    0.0000 C   0  0  0  0  0  0  0  0  0  0  0  0
   -2.8841   -0.7208    0.0000 C   0  0  0  0  0  0  0  0  0  0  0  0
   -3.7562    0.4997    0.0000 C   0  0  0  0  0  0  0  0  0  0  0  0
   -4.6282    1.7201    0.0000 C   0  0  0  0  0  0  0  0  0  0  0  0
   -3.1353    1.8651    0.0000 C   0  0  0  0  0  0  0  0  0  0  0  0
   -1.6423    2.0101    0.0000 C   0  0  0  0  0  0  0  0  0  0  0  0
   -0.7702    0.7896    0.0000 C   0  0  0  0  0  0  0  0  0  0  0  0
   -1.3911   -0.5758    0.0000 C   0  0  0  0  0  0  0  0  0  0  0  0
   -2.0121   -1.9413    0.0000 C   0  0  0  0  0  0  0  0  0  0  0  0
   -0.5191   -1.7963    0.0000 C   0  0  0  0  0  0  0  0  0  0  0  0
    0.9739   -1.6513    0.0000 C   0  0  0  0  0  0  0  0  0  0  0  0
    1.5948   -0.2858    0.0000 C   0  0  0  0  0  0  0  0  0  0  0  0
    2.4669   -1.5063    0.0000 C   0  0  0  0  0  0  0  0  0  0  0  0
    3.0878   -0.1409    0.0000 C   0  0  0  0  0  0  0  0  0  0  0  0
    3.9598   -1.3613    0.0000 C   0  0  0  0  0  0  0  0  0  0  0  0
    5.4528   -1.2163    0.0000 C   0  0  0  0  0  0  0  0  0  0  0  0
    6.9053   -1.5907    0.0000 C   0  0  0  0  0  0  0  0  0  0  0  0
    5.3363   -2.7118    0.0000 C   0  0  0  0  0  0  0  0  0  0  0  0
    6.0737    0.1491    0.0000 C   0  0  0  0  0  0  0  0  0  0  0  0
    5.2017    1.3696    0.0000 C   0  0  0  0  0  0  0  0  0  0  0  0
    3.7087    1.2246    0.0000 C   0  0  0  0  0  0  0  0  0  0  0  0
    4.3296    2.5900    0.0000 C   0  0  0  0  0  0  0  0  0  0  0  0
    2.8367    2.4451    0.0000 C   0  0  0  0  0  0  0  0  0  0  0  0
    1.3437    2.3001    0.0000 C   0  0  0  0  0  0  0  0  0  0  0  0
    0.7228    0.9346    0.0000 C   0  0  0  0  0  0  0  0  0  0  0  0
   -0.1493    2.1551    0.0000 C   0  0  0  0  0  0  0  0  0  0  0  0
  2  1  1  6
  2  3  1  0
  3  4  1  6
  3  5  1  0
  5  6  1  0
  7  6  1  6
  7  8  1  0
  8  9  1  6
  8 10  1  0
 10 11  1  0
 12 11  1  6
 12 13  1  0
 13 14  1  6
 13 15  1  0
 15 16  1  0
 16 17  1  0
 17 18  1  1
 17 19  1  0
 19 20  1  1
 20 21  1  0
 21 22  1  0
 21 23  1  0
 21 24  1  0
 24 25  1  0
 25 26  1  0
 26 27  1  6
 26 28  1  0
 28 29  1  0
 29 30  1  0
 30 31  1  6
  8  2  1  0
 30 12  1  0
 13  7  1  0
 30 17  1  0
 26 19  1  0
M  END
>  <identifier>  (43) 
CNP0238564.2

>  <canonical_smiles>  (43) 
C[C@H]1[C@@H](O)CC[C@@H]2[C@]1(C)CC[C@H]1[C@@]2(C)CC[C@@]2(C)[C@@H]3CC(C)(C)CC[C@]3(C)CC[C@]12C

>  <standard_inchi>  (43) 
InChI=1S/C30H52O/c1-20-21(31)9-10-22-27(20,5)12-11-23-28(22,6)16-18-30(8)24-19-25(2,3)13-14-26(24,4)15-17-29(23,30)7/h20-24,31H,9-19H2,1-8H3/t20-,21-,22+,23-,24+,26+,27+,28-,29+,30-/m0/s1

>  <standard_inchi_key>  (43) 
XCDQFROEGGNAER-PFOIMGGJSA-N

>  <name>  (43) 
Epifriedelanol

>  <iupac_name>  (43) 
(3~{S},4~{R},4~{a}~{S},6~{a}~{S},6~{a}~{S},6~{b}~{R},8~{a}~{R},12~{a}~{R},14~{a}~{S},14~{b}~{S})-4,4~{a},6~{a},6~{b},8~{a},11,11,14~{a}-octamethyl-1,2,3,4,5,6,6~{a},7,8,9,10,12,12~{a},13,14,14~{b}-hexadecahydropicen-3-ol

>  <annotation_level>  (43) 
5

>  <total_atom_count>  (43) 
83

>  <heavy_atom_count>  (43) 
31

>  <molecular_weight>  (43) 
428.75

>  <exact_molecular_weight>  (43) 
428.40182

>  <molecular_formula>  (43) 
C30H52O

>  <alogp>  (43) 
8.25

>  <topological_polar_surface_area>  (43) 
20.23

>  <rotatable_bond_count>  (43) 
0

>  <hydrogen_bond_acceptors>  (43) 
1

>  <hydrogen_bond_donors>  (43) 
1

>  <hydrogen_bond_acceptors_lipinski>  (43) 
1

>  <hydrogen_bond_donors_lipinski>  (43) 
1

>  <lipinski_rule_of_five_violations>  (43) 
1

>  <aromatic_rings_count>  (43) 
0

>  <qed_drug_likeliness>  (43) 
0.41

>  <formal_charge>  (43) 
0

>  <fractioncsp3>  (43) 
1.00

>  <number_of_minimal_rings>  (43) 
5

>  <van_der_walls_volume>  (43) 
449.82

>  <contains_sugar>  (43) 
False

>  <contains_ring_sugars>  (43) 
False

>  <contains_linear_sugars>  (43) 
False

>  <murcko_framework>  (43) 
C1CCC2C(C1)CCC3C2CCC4C5CCCCC5CCC43

>  <np_likeness>  (43) 
2.71

>  <chemical_class>  (43) 
Prenol lipids

>  <chemical_sub_class>  (43) 
Triterpenoids

>  <chemical_super_class>  (43) 
Lipids and lipid-like molecules

>  <direct_parent_classification>  (43) 
Taraxerane, multiflorane, glutinane and friedelane triterpenoids

>  <np_classifier_pathway>  (43) 
Terpenoids

>  <np_classifier_superclass>  (43) 
Triterpenoids

>  <np_classifier_class>  (43) 
Friedelane triterpenoids

>  <np_classifier_is_glycoside>  (43) 
False

>  <organisms>  (43) 
Aaptos aaptos|Abies koreana|Abutilon grandiflorum|Acacia pachyphloia|Achillea arabica|Aconitum nevadense|Acritopappus heterolepis|Ageratum houstonianum|Alchornea latifolia|Alexandrian laurel|Alseodaphne corneri|Anchietea pyrifolia|Anchietea salutaris|Aniba parviflora|Annona impressivenia|Anochetus mayri|Anthemis plutonia|Antidesma ghaesembilla|Antrodia camphorata|Apium petroselinum|Aplysilla spinifera|Aquilaria sinensis|Arabidopsis lyrata subsp. lyrata|Arcopilus aureus|Ardisia japonica|Argyranthemum frutescens|Argyreia nervosa|Argyreia speciosa|Argyrochosma fendleri|Arnicratea grahamii|Artemisia annua|Arthrinium arundinis|Aspergillus flavipes|Aspergillus unguis|Aspilia paludosa|Aster baccharoides|Aster himalaicus|Aster koraiensis|Aster tataricus|Astragalus caprinus|Atalantia wightii|Aulacocephalus temmincki|Azara microphylla|Baccharis hutchisonii|Baccharis obtusifolia|Baccharis patagonica|Baccharis thesioides|Baccharis tricuneata|Bacillus badius|Bacillus thuringiensis|Balanops australiana|Baphicacanthus cusia|Barbados nut|Begonia malabarica|Berberis lambertii|Bersama yangambiensis|Betula davurica|Bischofia javanica|Bishofia javanica|Bistorta officinalis|Bonnetia dinizii|Bosistoa euodiiformis|Brassica nigra|Bridelia ferruginea|Bupleurum tenue|Caesalpinia minax|Cajanus cajan|Calea jamaicensis|Calea prunifolia|Calodendrum capense|Calophyllum calaba|Calophyllum tomentosum|Caloplaca ferruginea|Cannabis sativa|Carapa grandiflora|Castanopsis eyrei|Castanopsis sclerophylla|Catharsius molossus|Caulis millettiae|Caulis spatholobi|Celastrus vulcanicola|Celastrus vulcanicolus|Celtis durandii|Centipeda cunninghami|Centraria nivalis|Ceratopetalum apetalum|Cervus elaphus|Cetraria sanguinea|Chromodoris petechialis|Chrysanthemum x morifolium|Chrysoma pauciflosculosa|Cineraria parvifolia|Cissus quadrangularis|Clerodendrum formicarum|Clusia nemorosa|Combretum imberbe|Conocephalum japonicum|Conyza canadensis|Cordylanthus kingii|Cotylelobium lanceolatum|Cratoxylum arborescens|Cratoxylum maingayi|Crinipellis scabella|Crocus sieberi|Croton caudatus|Croton cumingii|Croton insularis|Cryptosphaeria eunomia|Cuphea appendiculata|Cuphea carthagenensis|Cuphea epilobiifolia|Cuphea infundibulum|Curcuma kwangsiensis|Cyanostegia microphylla|Cystophora scalaris|Dalea tinctoria|Delia coronariae|Dendroaspis angusticeps|Dendropanax trifidus|Desmodium incanum|Dimocarpus longan|Discodermia dissoluta|Disynaphia halimifolia|Dittrichia viscosa|Dolichandrone crispa|Doodia picta|Drynaria quercifolia|Drypetes gerrardii|Drypetes gossweileri|Drypetes tessmanniana|Duhaldea cappa|Echinochloa crus-galli|Elaeocarpus chelonimorphus|Elaeocarpus fuscoides|Elaeodendron glaucum|Elephantopus Scaber|Elephantopus mollis|Elephantopus scaber|Elephantopus tomentosus|Elliottia paniculata|Elymus repens|Encelia frutescens|Epaltes mexicana|Eragrostis viscosa|Eremanthus bicolor|Erigeron canadensis|Eugenia myrcianthes|Eugenia uniflora|Eunicella cavolinii|Euonymus lucidus|Euphorbia aellenii|Euphorbia antiquorum|Euphorbia boetica|Euphorbia characias|Euphorbia leuconeura|Euphorbia parviflora|Euphorbia polygonifolia|Euphorbia sapinii|Excoecaria agallocha|Forsteronia refracta|Forsythia suspensa|Fridericia chica|Fromia milleporella|Garcinia spicata|Glochidion puberum|Glycosmis ovoidea|Gonimbrasia belina|Gonzalezia decurrens|Graphis rikuzensis|Grewia mollis|Gymnocarpium robertianum|Gynochthodes officinalis|Gynura japonica|Hakea amplexicaulis|Hedeoma pulegioides|Heliotropium ellipticum|Heliotropium floridum|Herba acalyphae|Heterotheca grandiflora|Hololepis pedunculata|Holoptelea integrifolia|Hovenia acerba|Hyalis argentea|Ilex oldhami|Inula Cappa|Inula britannica|Inula cappa|Iotrochota baculifera|Ipomoea muelleri|Isocoma pluriflora|Jacobaea adonidifolia|Jacobaea persoonii|Jatropha grossidentata|Juglans nigra|Kaempferia marginata|Kaunia saltensis|Kickxia elatine|Kyrsteniopsis dibollii|Larix sukaczewii|Laurencia gracilis|Lavandula dentata|Lecanora sordida|Lechevalieria aerocolonigenes|Lendenfeldia frondosa|Lenzites sepiaria|Lepraria xanthina|Leucosyke quadrinervia|Liabum bourgeaui|Ligustrum sinense|Liriope spicata|Lolium cuneatum|Lubomirskia baicalensis|Macaranga tanarius|Malacosoma americanum|Mallotus apelta|Mallotus pallidus|Malus sylvestris|Mangifera indica|Marsdenia rostrata|Maytenus aquifolium|Maytenus canariensis|Maytenus cuzcoina|Maytenus salicifolia|Meconopsis horridula|Meliosma lanceolata|Methylobacterium extorquens|Millettia nitida|Mitragyna hirsuta|Montanoa karwinskii|Monteverdia aquifolium|Monteverdia macrocarpa|Monteverdia rigida|Monteverdia tetragona|Monteverdia truncata|Montipora mollis|Myrovernix scaber|Narcissus concolor|Nauclea officinalis|Nocardia alba|Ocotea acutangula|Ocotea heterochroma|Odontites vernus|Olearia paniculata|Oncoba echinata|Ophiolepis superba|Oreocnide frutescens|Oxera splendida|Pachysandra terminalis|Paeonia veitchii|Papilio phorcas|Parabenzoin trilobum|Paralychnophora bicolor|Parmelia perlata|Penicillium crustaceum|Penstemon richardsonii|Pentaclethra eetveldeana|Pentaclethra macroloba|Persicaria amphibia|Persicaria nodosa|Perymenium hintonii|Petunia hybr|Phaleria cumingii|Phallusia mammillata|Phyllanthus lanceolarius|Phyllanthus puberus|Phyllanthus reticulatus|Phyllanthus watsonii|Pimelobacter simplex|Pinus gerardiana|Plenckia populnea|Pleuranthodium racemigerum|Pleurostylia opposita|Pluchea sericea|Pogostemon cablin|Polycephalomyces nipponicus|Polygonum bistorta|Polygonum plebeium|Porophyllum riedelii|Poterium sanguisorba|Pourouma guianensis|Pristimera indica|Prunus japonica|Pseudophryne coriacea|Psorospermum glaberrimum|Pterogorgia bipinnata|Putranjiva roxburghii|Pygeum topengii|Pyrus pyrifolia|Pyrus ussuriensis|Quercus glauca|Quercus myrsinaefolia|Quercus variabilis|Ramalina paludosa|Ranunculus sceleratus|Raukaua simplex|Relbunium hypocarpium|Reniera cratera|Rhodobryum roseum|Rhododendron anthopogon|Rhododendron aureum|Rhododendron caucasicum|Rhododendron ferrugineum|Rhododendron formosanum|Roccella fucoides|Rolandra fruticosa|Rotheca serrata|Rubrivivax gelatinosus|Rugosa rugosa|Ruta pinnata|Salix matsudana|Salvia dorrii|Salvia infuscata|Santolina oblongifolia|Saracha punctata|Schotia brachypetala|Scorzonera laciniata|Senecio kilimanjari|Senna longiracemosa|Sideritis caesarea|Sideritis soluta|Sinocrassula indica|Sinularia hirta|Sophora angustifolia|Sphagneticola trilobata|Staphylea bumalda|Stevia lucida|Stevia polycephala|Stevia purpurea|Sticta mougeotiana|Streptomyces kanamyceticus|Streptomyces parvisporogenes|Strombus gigas|Strychnos decussata|Suberites domuncula|Suregada lanceolata|Swartzia madagascariensis|Swertia corymbosa|Symphytum asperum|Syncarpia laurifolia|Syzygium grande|Taiwanofungus camphoratus|Tanacetum albipannosum|Tanacetum densum|Tanacetum heterotomum|Testulea gabonensis|Teucrium depressum|Thalictrum strictum|Thapsia transtagana|Thryptomene kochii|Thunbergia grandiflora|Thymus piperella|Torrubiella hemipterigena|Toxicopueraria peduncularis|Tradescantia pallida|Trichilia rubescens|Trididemnum solidum|Tripetaleia paniculata|Ulmus davidiana|Ulmus pumila|Ulmus pumila L.|Uncaria lancifolia|Ungernia minor|Vaccinium bracteatum|Valeriana cardamines|Valeriana wolgensis|Verbena bonariensis|Vernonanthura discolor|Vernonia nitidula|Veronica chamaedrys|Viburnum rhytidophyllum|Viguiera decurrens|Vismia japurensis|Vismia micrantha|Vitex agnus-castus|Vitex peduncularis|Vitex pinnata|Volvariella volvacea|Wedelia triloba|Wolfiporia cocos|Xylosma longifolia|Zanthoxylum syncarpum

>  <collections>  (43) 
ANPDB|AfroCancer|Australian natural products|CMAUP (cCollective molecular activities of useful plants)|ChemSpider NPs|KNApSaCK|Latin America dataset|NANPDB (Natural Products from Northern African Sources)|NPASS|NuBBEDB|Phyto4Health|Super Natural II|TCMDB-Taiwan (Traditional Chinese Medicine database)|TIPdb (database of Taiwan indigenous plants)|VietHerb|WikiData Natural Products|ZINC NP

>  <dois>  (43) 
10.1002/1097-458X(200011)38:11<977::AID-MRC757>3.0.CO;2-9|10.1002/1097-458X(200012)38:12<1023::AID-MRC771>3.0.CO;2-X|10.1002/EJOC.200600742|10.1002/HLCA.201000301|10.1002/HLCA.201000313|10.1002/JCCS.200400211|10.1002/JPS.2600690917|10.1002/MRC.1734|10.1002/MRC.1844|10.1002/MRC.1954|10.1002/cbdv.200690050|10.1007/978-3-642-71425-2_1|10.1007/BF00569023|10.1007/BF01032020|10.1007/BF02975113|10.1007/BF03046638|10.1007/S10600-006-0266-4|10.1007/S10600-009-9304-3|10.1007/S10600-010-9595-4|10.1007/S10600-013-0640-Y|10.1007/S12272-010-0903-0|10.1016/0031-9422(75)83047-0|10.1016/0031-9422(80)83076-7|10.1016/0031-9422(81)80026-X|10.1016/0031-9422(81)84067-8|10.1016/0031-9422(83)83027-1|10.1016/0031-9422(88)80231-0|10.1016/0031-9422(88)83135-2|10.1016/0031-9422(88)83136-4|10.1016/0031-9422(89)80047-0|10.1016/0031-9422(89)80049-4|10.1016/0031-9422(89)85032-0|10.1016/0031-9422(90)85063-L|10.1016/0031-9422(90)87131-D|10.1016/0031-9422(90)87137-J|10.1016/0031-9422(91)83015-D|10.1016/0031-9422(91)85270-A|10.1016/0031-9422(92)80125-X|10.1016/0031-9422(92)80365-L|10.1016/0031-9422(93)85257-R|10.1016/0031-9422(95)00944-2|10.1016/0040-4020(68)88069-X|10.1016/0305-1978(92)90029-D|10.1016/J.CBI.2009.12.012|10.1016/J.CCLET.2010.02.022|10.1016/J.FITOTE.2010.02.005|10.1016/J.FITOTE.2010.05.008|10.1016/J.JEP.2005.01.029|10.1016/J.PHYTOCHEM.2005.07.008|10.1016/J.PHYTOCHEM.2009.05.011|10.1016/J.PHYTOL.2011.04.001|10.1016/J.PHYTOL.2011.04.008|10.1016/S0031-9422(00)00283-1|10.1016/S0031-9422(00)00285-5|10.1016/S0031-9422(00)80326-X|10.1016/S0031-9422(00)80758-X|10.1016/S0031-9422(00)82228-1|10.1016/S0031-9422(00)82558-3|10.1016/S0031-9422(00)82620-5|10.1016/S0031-9422(00)83940-0|10.1016/S0031-9422(00)83946-1|10.1016/S0031-9422(00)84603-8|10.1016/S0031-9422(00)85232-2|10.1016/S0031-9422(00)85888-4|10.1016/S0031-9422(00)86276-7|10.1016/S0031-9422(00)86474-2|10.1016/S0031-9422(00)88243-6|10.1016/S0031-9422(00)89705-8|10.1016/S0031-9422(00)90468-0|10.1016/S0031-9422(00)94448-0|10.1016/S0031-9422(00)94526-6|10.1016/S0031-9422(00)94842-8|10.1016/S0031-9422(00)97171-1|10.1016/S0031-9422(00)97174-7|10.1016/S0031-9422(00)97308-4|10.1016/S0031-9422(00)97524-1|10.1016/S0031-9422(02)00630-1|10.1016/S0031-9422(96)00714-5|10.1016/S0031-9422(97)00746-2|10.1016/S0031-9422(97)00793-0|10.1016/S0031-9422(98)00068-5|10.1016/S0031-9422(98)00656-6|10.1016/S0040-4039(01)97003-0|10.1016/S0367-326X(01)00267-2|10.1016/S0367-326X(01)00342-2|10.1016/S0367-326X(02)00011-4|10.1016/S0367-326X(99)00133-1|10.1016/S0378-8741(01)00352-X|10.1016/S0968-0896(02)00072-X|10.1021/JF1022115|10.1021/NP0500272|10.1021/NP060359M|10.1021/NP070045E|10.1021/NP0700927|10.1021/NP50008A001|10.1021/NP50035A008|10.1021/NP50055A026|10.1021/NP990232F|10.1021/jf1022115|10.1021/np50086a007|10.1039/jr9620000498|10.1055/S-0028-1097438|10.1055/S-0028-1097540|10.1055/S-0028-1097706|10.1055/S-0028-1099406|10.1055/S-2001-17349|10.1055/S-2006-951725|10.1055/S-2006-957945|10.1055/S-2006-959408|10.1055/S-2006-959585|10.1055/S-2006-960781|10.1055/S-2007-967132|10.1055/S-2007-969060|10.1055/S-2007-969792|10.1071/CH9640712|10.1071/CH9652043|10.1071/CH9682583|10.1071/CH9831067|10.1071/ch9752019|10.1078/0944-7113-00381|10.1080/13880200590928753|10.1093/ACPROF:OSO/9780199662685.003.0001|10.1248/CPB.36.571|10.1248/CPB.46.1824|10.1248/CPB.53.1194|10.1248/CPB.54.775|10.1248/CPB.55.1258|10.1248/CPB.56.1321|10.1248/CPB.56.222|10.1248/YAKUSHI1947.85.6_553|10.1248/YAKUSHI1947.94.12_1634|10.1271/BBB.65.1198|10.14233/ajchem.2017.20689|10.1515/ZNB-2010-0414|10.1590/S0103-50532011000500018|10.3987/COM-04-10221|10.4268/CJCMM20111611

>  <synonyms>  (43) 
(3S,4R,4aS,6aS,6aS,6bR,8aR,12aR,14aS,14bS)-4,4a,6a,6b,8a,11,11,14a-octamethyl-1,2,3,4,5,6,6a,7,8,9,10,12,12a,13,14,14b-hexadecahydropicen-3-ol|16844-71-6|24,25,26-Trinoroleanan-3-ol, 5,9,13-trimethyl-, (3beta,4beta,5beta,8alpha,9beta,10alpha,13alpha,14beta)-|3Beta-Friedelanol|3\u221a\u00e9\u00ac\u2264-Friedelanol|3beta-Hydroxyfriedelane|4,4a,6b,8a,11,11,12b,14a-Octamethyldocosahydropicen-3-ol|5,9,13-Trimethyl-24,25,26-trinoroleanan-3-ol (3beta,4beta,5beta,8alpha,9beta,10alpha,13alha,14beta)-|A882170|AC-34019|AKOS015896828|C17123|CHEBI:80941|CHEMBL464649|CS-0018243|DTXSID10937494|Epi-Friedelanol|Epifriedelinol|Epifriendelanol|Friedelan-3beta-ol|HY-N1931|Longan triterpane A|MFCD04039822|MS-27600|NSC741685|Q27154914|SCHEMBL2989072|_-friedelinol|beta-Friedelinol|epifriedelanol|friedelan-3_-ol

>  <cas>  (43) 
16844-71-6

$$$$

     RDKit          2D

 35 39  0  0  0  0  0  0  0  0999 V2000
   -6.8946   -2.3065    0.0000 C   0  0  0  0  0  0  0  0  0  0  0  0
   -6.0072   -1.0972    0.0000 C   0  0  0  0  0  0  0  0  0  0  0  0
   -6.6108    0.2760    0.0000 C   0  0  0  0  0  0  0  0  0  0  0  0
   -5.7234    1.4853    0.0000 C   0  0  0  0  0  0  0  0  0  0  0  0
   -4.2323    1.3215    0.0000 C   0  0  0  0  0  0  0  0  0  0  0  0
   -4.8360    2.6947    0.0000 C   0  0  0  0  0  0  0  0  0  0  0  0
   -3.3449    2.5308    0.0000 C   0  0  0  0  0  0  0  0  0  0  0  0
   -1.8539    2.3670    0.0000 C   0  0  0  0  0  0  0  0  0  0  0  0
   -1.2503    0.9938    0.0000 C   0  0  0  0  0  0  0  0  0  0  0  0
   -0.6467   -0.3794    0.0000 C   0  0  0  0  0  0  0  0  0  0  0  0
   -2.1377   -0.2155    0.0000 C   0  0  0  0  0  0  0  0  0  0  0  0
   -1.5341   -1.5887    0.0000 C   0  0  0  0  0  0  0  0  0  0  0  0
   -0.0431   -1.7526    0.0000 C   0  0  0  0  0  0  0  0  0  0  0  0
    0.8443   -0.5432    0.0000 C   0  0  0  0  0  0  0  0  0  0  0  0
    2.3354   -0.7071    0.0000 C   0  0  0  0  0  0  0  0  0  0  0  0
    1.4479   -1.9164    0.0000 C   0  0  0  0  0  0  0  0  0  0  0  0
    2.9390   -2.0803    0.0000 C   0  0  0  0  0  0  0  0  0  0  0  0
    4.4300   -2.2441    0.0000 C   0  0  0  0  0  0  0  0  0  0  0  0
    5.0336   -3.6173    0.0000 O   0  0  0  0  0  0  0  0  0  0  0  0
    5.3174   -1.0348    0.0000 C   0  0  0  0  0  0  0  0  0  0  0  0
    6.8084   -1.1987    0.0000 O   0  0  0  0  0  0  0  0  0  0  0  0
    4.7138    0.3384    0.0000 C   0  0  0  0  0  0  0  0  0  0  0  0
    4.6162    1.8352    0.0000 C   0  0  0  0  0  0  0  0  0  0  0  0
    3.2712    2.4991    0.0000 O   0  0  0  0  0  0  0  0  0  0  0  0
    6.1709    0.6944    0.0000 C   0  0  0  0  0  0  0  0  0  0  0  0
    6.5912    2.1343    0.0000 O   0  0  0  0  0  0  0  0  0  0  0  0
    3.2228    0.5022    0.0000 C   0  0  0  0  0  0  0  0  0  0  0  0
    2.6192    1.8754    0.0000 C   0  0  0  0  0  0  0  0  0  0  0  0
    1.1281    2.0393    0.0000 C   0  0  0  0  0  0  0  0  0  0  0  0
    0.2407    0.8299    0.0000 C   0  0  0  0  0  0  0  0  0  0  0  0
   -0.3629    2.2031    0.0000 C   0  0  0  0  0  0  0  0  0  0  0  0
   -3.6287   -0.0517    0.0000 C   0  0  0  0  0  0  0  0  0  0  0  0
   -4.5161   -1.2610    0.0000 C   0  0  0  0  0  0  0  0  0  0  0  0
   -3.1711   -1.9250    0.0000 C   0  0  0  0  0  0  0  0  0  0  0  0
   -4.9364   -2.7010    0.0000 O   0  0  0  0  0  0  0  0  0  0  0  0
  2  1  1  6
  2  3  1  0
  3  4  1  0
  4  5  1  0
  5  6  1  1
  5  7  1  0
  7  8  1  0
  8  9  1  0
  9 10  1  6
  9 11  1  0
 11 12  2  0
 12 13  1  0
 14 13  1  1
 14 15  1  0
 15 16  1  1
 15 17  1  0
 17 18  1  0
 18 19  1  6
 18 20  1  0
 20 21  1  1
 20 22  1  0
 22 23  1  0
 23 24  1  0
 22 25  1  0
 25 26  1  0
 22 27  1  0
 27 28  1  1
 28 29  1  0
 29 30  1  0
 30 31  1  1
 32 11  1  6
 32 33  1  0
 33 34  1  1
 33 35  1  0
 33  2  1  0
 32  5  1  0
 30  9  1  0
 30 14  1  0
 27 15  1  0
M  END
>  <identifier>  (44) 
CNP0312311.1

>  <canonical_smiles>  (44) 
C[C@@H]1CC[C@]2(C)CC[C@]3(C)C(=CC[C@@H]4[C@@]5(C)C[C@@H](O)[C@H](O)C(CO)(CO)[C@@H]5CC[C@]43C)[C@@H]2[C@]1(C)O

>  <standard_inchi>  (44) 
InChI=1S/C30H50O5/c1-18-9-11-25(2)13-14-27(4)19(23(25)29(18,6)35)7-8-21-26(3)15-20(33)24(34)30(16-31,17-32)22(26)10-12-28(21,27)5/h7,18,20-24,31-35H,8-17H2,1-6H3/t18-,20-,21-,22-,23+,24+,25-,26-,27-,28-,29-/m1/s1

>  <standard_inchi_key>  (44) 
RLCUKXXGZYXKAF-WZMFRAHISA-N

>  <name>  (44) 
viburgenin

>  <iupac_name>  (44) 
(1~{R},2~{R},4~{a}~{R},6~{a}~{R},6~{a}~{S},6~{b}~{R},8~{a}~{R},10~{R},11~{R},12~{a}~{R},14~{b}~{R})-9,9-bis(hydroxymethyl)-1,2,4~{a},6~{a},6~{b},12~{a}-hexamethyl-2,3,4,5,6,6~{a},7,8,8~{a},10,11,12,13,14~{b}-tetradecahydropicene-1,10,11-triol

>  <annotation_level>  (44) 
5

>  <total_atom_count>  (44) 
85

>  <heavy_atom_count>  (44) 
35

>  <molecular_weight>  (44) 
490.73

>  <exact_molecular_weight>  (44) 
490.36582

>  <molecular_formula>  (44) 
C30H50O5

>  <alogp>  (44) 
4.06

>  <topological_polar_surface_area>  (44) 
101.15

>  <rotatable_bond_count>  (44) 
2

>  <hydrogen_bond_acceptors>  (44) 
5

>  <hydrogen_bond_donors>  (44) 
5

>  <hydrogen_bond_acceptors_lipinski>  (44) 
5

>  <hydrogen_bond_donors_lipinski>  (44) 
5

>  <lipinski_rule_of_five_violations>  (44) 
0

>  <aromatic_rings_count>  (44) 
0

>  <qed_drug_likeliness>  (44) 
0.38

>  <formal_charge>  (44) 
0

>  <fractioncsp3>  (44) 
0.93

>  <number_of_minimal_rings>  (44) 
5

>  <van_der_walls_volume>  (44) 
478.49

>  <contains_sugar>  (44) 
False

>  <contains_ring_sugars>  (44) 
False

>  <contains_linear_sugars>  (44) 
False

>  <murcko_framework>  (44) 
C1=C2C3CCCCC3CCC2C4CCC5CCCCC5C4C1

>  <np_likeness>  (44) 
3.28

>  <chemical_class>  (44) 
Steroids and steroid derivatives

>  <chemical_sub_class>  (44) 
Hydroxysteroids

>  <chemical_super_class>  (44) 
Lipids and lipid-like molecules

>  <direct_parent_classification>  (44) 
Hydroxysteroids

>  <np_classifier_pathway>  (44) 
Terpenoids

>  <np_classifier_superclass>  (44) 
Triterpenoids

>  <np_classifier_class>  (44) 
Ursane and Taraxastane triterpenoids

>  <np_classifier_is_glycoside>  (44) 
False

>  <organisms>  (44) 
Rudgea viburnioides|Rudgea viburnoides

>  <collections>  (44) 
ChemSpider NPs|KNApSaCK|Latin America dataset|NPASS|NuBBEDB|Super Natural II|WikiData Natural Products

>  <dois>  (44) 
10.1021/NP9704617|10.1021/np9704617

>  <synonyms>  (44) 
(1R,2R,4aR,6aR,6aS,6bR,8aR,10R,11R,12aR,14bR)-9,9-bis(hydroxymethyl)-1,2,4a,6a,6b,12a-hexamethyl-2,3,4,5,6,6a,7,8,8a,10,11,12,13,14b-tetradecahydropicene-1,10,11-triol|CHEMBL473862|InChI=1\/C30H50O5\/c1-18-9-11-25(2)13-14-27(4)19(23(25)29(18,6)35)7-8-21-26(3)15-20(33)24(34)30(16-31,17-32)22(26)10-12-28(21,27)5\/h7,18,20-24,31-35H,8-17H2,1-6H3\/t18-,20-,21-,22-,23+,24+,25-,26-,27-,28-,29-\/m1\/s1|RLCUKXXGZYXKAF-WZMFRAHISA-|Viburgenin

>  <cas>  (44) 
nan

$$$$

     RDKit          2D

 34 38  0  0  0  0  0  0  0  0999 V2000
    4.8870   -2.6450    0.0000 C   0  0  0  0  0  0  0  0  0  0  0  0
    3.7711   -1.6426    0.0000 C   0  0  0  0  0  0  0  0  0  0  0  0
    4.0812   -0.1750    0.0000 C   0  0  0  0  0  0  0  0  0  0  0  0
    3.0762    0.9385    0.0000 O   0  0  0  0  0  0  0  0  0  0  0  0
    3.8246    2.2384    0.0000 C   0  0  0  0  0  0  0  0  0  0  0  0
    2.4536    2.8469    0.0000 C   0  0  0  0  0  0  0  0  0  0  0  0
    4.2864    3.6656    0.0000 C   0  0  0  0  0  0  0  0  0  0  0  0
    5.2922    1.9283    0.0000 C   0  0  0  0  0  0  0  0  0  0  0  0
    6.4057    2.9334    0.0000 O   0  0  0  0  0  0  0  0  0  0  0  0
    5.4508    0.4367    0.0000 C   0  0  0  0  0  0  0  0  0  0  0  0
    6.7507   -0.3117    0.0000 O   0  0  0  0  0  0  0  0  0  0  0  0
    2.3450   -2.1078    0.0000 C   0  0  0  0  0  0  0  0  0  0  0  0
    1.8832   -3.5350    0.0000 C   0  0  0  0  0  0  0  0  0  0  0  0
    0.3832   -3.5368    0.0000 C   0  0  0  0  0  0  0  0  0  0  0  0
   -0.0820   -2.1107    0.0000 C   0  0  0  0  0  0  0  0  0  0  0  0
   -1.1955   -3.1158    0.0000 C   0  0  0  0  0  0  0  0  0  0  0  0
   -1.4531   -1.5023    0.0000 C   0  0  0  0  0  0  0  0  0  0  0  0
   -2.6655   -2.3854    0.0000 C   0  0  0  0  0  0  0  0  0  0  0  0
   -4.0366   -1.7769    0.0000 C   0  0  0  0  0  0  0  0  0  0  0  0
   -4.1951   -0.2853    0.0000 C   0  0  0  0  0  0  0  0  0  0  0  0
   -5.5662    0.3231    0.0000 C   0  0  0  0  0  0  0  0  0  0  0  0
   -7.0627    0.4260    0.0000 C   0  0  0  0  0  0  0  0  0  0  0  0
   -5.9273   -1.1327    0.0000 C   0  0  0  0  0  0  0  0  0  0  0  0
   -5.7248    1.8147    0.0000 C   0  0  0  0  0  0  0  0  0  0  0  0
   -7.0958    2.4232    0.0000 O   0  0  0  0  0  0  0  0  0  0  0  0
   -4.5123    2.6979    0.0000 C   0  0  0  0  0  0  0  0  0  0  0  0
   -3.1413    2.0894    0.0000 C   0  0  0  0  0  0  0  0  0  0  0  0
   -2.9827    0.5978    0.0000 C   0  0  0  0  0  0  0  0  0  0  0  0
   -1.7702    1.4809    0.0000 C   0  0  0  0  0  0  0  0  0  0  0  0
   -1.6116   -0.0107    0.0000 C   0  0  0  0  0  0  0  0  0  0  0  0
   -0.3992    0.8725    0.0000 C   0  0  0  0  0  0  0  0  0  0  0  0
    0.9719    0.2640    0.0000 C   0  0  0  0  0  0  0  0  0  0  0  0
    1.1305   -1.2276    0.0000 C   0  0  0  0  0  0  0  0  0  0  0  0
    2.4286   -0.4761    0.0000 C   0  0  0  0  0  0  0  0  0  0  0  0
  2  1  1  6
  2  3  1  0
  3  4  1  0
  4  5  1  0
  5  6  1  0
  5  7  1  0
  5  8  1  0
  8  9  1  1
  8 10  1  0
 10 11  1  1
  2 12  1  0
 12 13  1  6
 13 14  1  0
 14 15  1  0
 15 16  1  1
 15 17  1  0
 17 18  2  0
 18 19  1  0
 20 19  1  1
 20 21  1  0
 21 22  1  0
 21 23  1  0
 21 24  1  0
 24 25  2  0
 24 26  1  0
 26 27  1  0
 27 28  1  0
 28 29  1  1
 28 30  1  0
 30 31  1  1
 31 32  1  0
 32 33  1  0
 33 34  1  6
 10  3  1  0
 33 12  1  0
 33 15  1  0
 30 17  1  0
 28 20  1  0
M  END
>  <identifier>  (45) 
CNP0154687.2

>  <canonical_smiles>  (45) 
C[C@@H](C1OC(C)(C)[C@@H](O)[C@H]1O)[C@@H]1CC[C@]2(C)C3=CC[C@H]4C(C)(C)C(=O)CC[C@]4(C)[C@H]3CC[C@@]12C

>  <standard_inchi>  (45) 
InChI=1S/C30H48O4/c1-17(24-23(32)25(33)27(4,5)34-24)18-11-15-30(8)20-9-10-21-26(2,3)22(31)13-14-28(21,6)19(20)12-16-29(18,30)7/h9,17-19,21,23-25,32-33H,10-16H2,1-8H3/t17-,18+,19+,21+,23+,24?,25+,28-,29+,30-/m1/s1

>  <standard_inchi_key>  (45) 
QVEUBDDZMCFHNJ-UTEGIPINSA-N

>  <name>  (45) 
nan

>  <iupac_name>  (45) 
(5~{R},9~{R},10~{R},13~{S},14~{S},17~{S})-17-[(1~{R})-1-[(3~{R},4~{S})-3,4-dihydroxy-5,5-dimethyl-tetrahydrofuran-2-yl]ethyl]-4,4,10,13,14-pentamethyl-1,2,5,6,9,11,12,15,16,17-decahydrocyclopenta[a]phenanthren-3-one

>  <annotation_level>  (45) 
4

>  <total_atom_count>  (45) 
82

>  <heavy_atom_count>  (45) 
34

>  <molecular_weight>  (45) 
472.71

>  <exact_molecular_weight>  (45) 
472.35526

>  <molecular_formula>  (45) 
C30H48O4

>  <alogp>  (45) 
5.70

>  <topological_polar_surface_area>  (45) 
66.76

>  <rotatable_bond_count>  (45) 
2

>  <hydrogen_bond_acceptors>  (45) 
4

>  <hydrogen_bond_donors>  (45) 
2

>  <hydrogen_bond_acceptors_lipinski>  (45) 
4

>  <hydrogen_bond_donors_lipinski>  (45) 
2

>  <lipinski_rule_of_five_violations>  (45) 
1

>  <aromatic_rings_count>  (45) 
0

>  <qed_drug_likeliness>  (45) 
0.51

>  <formal_charge>  (45) 
0

>  <fractioncsp3>  (45) 
0.90

>  <number_of_minimal_rings>  (45) 
5

>  <van_der_walls_volume>  (45) 
nan

>  <contains_sugar>  (45) 
False

>  <contains_ring_sugars>  (45) 
False

>  <contains_linear_sugars>  (45) 
False

>  <murcko_framework>  (45) 
O1CCCC1CC2CCC3C4=CCC5CCCCC5C4CCC32

>  <np_likeness>  (45) 
3.32

>  <chemical_class>  (45) 
Steroids and steroid derivatives

>  <chemical_sub_class>  (45) 
Oxosteroids

>  <chemical_super_class>  (45) 
Lipids and lipid-like molecules

>  <direct_parent_classification>  (45) 
3-oxosteroids

>  <np_classifier_pathway>  (45) 
Terpenoids

>  <np_classifier_superclass>  (45) 
Triterpenoids

>  <np_classifier_class>  (45) 
Lanostane, Tirucallane and Euphane triterpenoids

>  <np_classifier_is_glycoside>  (45) 
False

>  <organisms>  (45) 
Cedrela fissilis

>  <collections>  (45) 
Latin America dataset|NuBBEDB

>  <dois>  (45) 
10.1055/s-0028-1088323

>  <synonyms>  (45) 
22S3\u221a\u00e9\u00ac\u00b1-dihydrotirucala- 724-dien-23-one

>  <cas>  (45) 
nan

$$$$

     RDKit          2D

 27 30  0  0  0  0  0  0  0  0999 V2000
    6.9224   -0.6779    0.0000 C   0  0  0  0  0  0  0  0  0  0  0  0
    5.8247   -1.7002    0.0000 C   0  0  0  0  0  0  0  0  0  0  0  0
    6.1613   -3.1620    0.0000 C   0  0  0  0  0  0  0  0  0  0  0  0
    4.3905   -1.2608    0.0000 C   0  0  0  0  0  0  0  0  0  0  0  0
    3.2929   -2.2831    0.0000 Cl  0  0  0  0  0  0  0  0  0  0  0  0
    4.0540    0.2010    0.0000 C   0  0  0  0  0  0  0  0  0  0  0  0
    2.6198    0.6404    0.0000 C   0  0  0  0  0  0  0  0  0  0  0  0
    2.2832    2.1021    0.0000 C   0  0  0  0  0  0  0  0  0  0  0  0
    3.3809    3.1245    0.0000 C   0  0  0  0  0  0  0  0  0  0  0  0
    0.8490    2.5416    0.0000 C   0  0  0  0  0  0  0  0  0  0  0  0
    0.3615    3.9601    0.0000 C   0  0  0  0  0  0  0  0  0  0  0  0
   -1.1382    3.9349    0.0000 C   0  0  0  0  0  0  0  0  0  0  0  0
   -1.5777    2.5007    0.0000 C   0  0  0  0  0  0  0  0  0  0  0  0
   -2.7091    3.4854    0.0000 C   0  0  0  0  0  0  0  0  0  0  0  0
   -2.9375    1.8675    0.0000 O   0  0  0  0  0  0  0  0  0  0  0  0
   -3.0691    0.3733    0.0000 C   0  0  0  0  0  0  0  0  0  0  0  0
   -1.8409   -0.4878    0.0000 C   0  0  0  0  0  0  0  0  0  0  0  0
   -0.4811    0.1453    0.0000 C   0  0  0  0  0  0  0  0  0  0  0  0
   -0.3495    1.6396    0.0000 C   0  0  0  0  0  0  0  0  0  0  0  0
   -1.9725   -1.9820    0.0000 C   0  0  0  0  0  0  0  0  0  0  0  0
   -0.7443   -2.8431    0.0000 O   0  0  0  0  0  0  0  0  0  0  0  0
   -3.3324   -2.6151    0.0000 C   0  0  0  0  0  0  0  0  0  0  0  0
   -2.3100   -3.7127    0.0000 O   0  0  0  0  0  0  0  0  0  0  0  0
   -4.8213   -2.7970    0.0000 C   0  0  0  0  0  0  0  0  0  0  0  0
   -5.4544   -1.4372    0.0000 O   0  0  0  0  0  0  0  0  0  0  0  0
   -4.3568   -0.4148    0.0000 C   0  0  0  0  0  0  0  0  0  0  0  0
   -3.0453   -1.1428    0.0000 C   0  0  0  0  0  0  0  0  0  0  0  0
  1  2  2  0
  2  3  1  0
  2  4  1  0
  4  5  1  0
  4  6  1  0
  6  7  1  0
  7  8  2  3
  8  9  1  0
 10  8  1  0
 10 11  1  1
 11 12  1  0
 12 13  1  0
 13 14  1  1
 13 15  1  0
 15 16  1  0
 16 17  2  0
 17 18  1  0
 19 18  1  6
 17 20  1  0
 20 21  2  0
 20 22  1  0
 22 23  1  1
 22 24  1  0
 24 25  1  0
 26 25  1  6
 26 27  1  0
 19 10  1  0
 27 22  1  0
 19 13  1  0
 26 16  1  0
M  END
>  <identifier>  (46) 
CNP0331119.1

>  <canonical_smiles>  (46) 
C=C(C)C(Cl)CC=C(C)[C@@H]1CC[C@@]2(C)OC3=C(C[C@@H]12)C(=O)[C@]1(O)CO[C@H]3C1

>  <standard_inchi>  (46) 
InChI=1S/C22H29ClO4/c1-12(2)17(23)6-5-13(3)14-7-8-21(4)16(14)9-15-19(27-21)18-10-22(25,11-26-18)20(15)24/h5,14,16-18,25H,1,6-11H2,2-4H3/t14-,16-,17?,18-,21+,22+/m0/s1

>  <standard_inchi_key>  (46) 
SPHHHXFBOCONBA-LHVVFWNESA-N

>  <name>  (46) 
nan

>  <iupac_name>  (46) 
(1~{S},4~{R},7~{R},8~{S},12~{R})-7-(4-chloro-1,5-dimethyl-hexa-1,5-dienyl)-12-hydroxy-4-methyl-3,14-dioxatetracyclo[10.2.1.0^{2,10}.0^{4,8}]pentadec-2(10)-en-11-one

>  <annotation_level>  (46) 
4

>  <total_atom_count>  (46) 
56

>  <heavy_atom_count>  (46) 
27

>  <molecular_weight>  (46) 
392.92

>  <exact_molecular_weight>  (46) 
392.17544

>  <molecular_formula>  (46) 
C22H29ClO4

>  <alogp>  (46) 
4.07

>  <topological_polar_surface_area>  (46) 
55.76

>  <rotatable_bond_count>  (46) 
4

>  <hydrogen_bond_acceptors>  (46) 
4

>  <hydrogen_bond_donors>  (46) 
1

>  <hydrogen_bond_acceptors_lipinski>  (46) 
4

>  <hydrogen_bond_donors_lipinski>  (46) 
1

>  <lipinski_rule_of_five_violations>  (46) 
0

>  <aromatic_rings_count>  (46) 
0

>  <qed_drug_likeliness>  (46) 
0.58

>  <formal_charge>  (46) 
0

>  <fractioncsp3>  (46) 
0.68

>  <number_of_minimal_rings>  (46) 
4

>  <van_der_walls_volume>  (46) 
nan

>  <contains_sugar>  (46) 
False

>  <contains_ring_sugars>  (46) 
False

>  <contains_linear_sugars>  (46) 
False

>  <murcko_framework>  (46) 
O1C2=C(CC3COC2C3)CC4CCCC14

>  <np_likeness>  (46) 
2.58

>  <chemical_class>  (46) 
Prenol lipids

>  <chemical_sub_class>  (46) 
Sesquiterpenoids

>  <chemical_super_class>  (46) 
Lipids and lipid-like molecules

>  <direct_parent_classification>  (46) 
Sesquiterpenoids

>  <np_classifier_pathway>  (46) 
Terpenoids

>  <np_classifier_superclass>  (46) 
Meroterpenoids

>  <np_classifier_class>  (46) 
Miscellaneous meroterpenoids

>  <np_classifier_is_glycoside>  (46) 
False

>  <organisms>  (46) 
Guignardia mangiferae

>  <collections>  (46) 
Latin America dataset|NuBBEDB

>  <dois>  (46) 
10.1016/j.phytol.2012.05.004

>  <synonyms>  (46) 
guignardone E

>  <cas>  (46) 
nan

$$$$

     RDKit          2D

 26 28  0  0  0  0  0  0  0  0999 V2000
    7.6957   -2.5876    0.0000 C   0  0  0  0  0  0  0  0  0  0  0  0
    6.3286   -1.9703    0.0000 C   0  0  0  0  0  0  0  0  0  0  0  0
    6.1797   -0.4777    0.0000 C   0  0  0  0  0  0  0  0  0  0  0  0
    4.8126    0.1396    0.0000 C   0  0  0  0  0  0  0  0  0  0  0  0
    3.5944   -0.7356    0.0000 C   0  0  0  0  0  0  0  0  0  0  0  0
    2.2273   -0.1183    0.0000 C   0  0  0  0  0  0  0  0  0  0  0  0
    2.0784    1.3743    0.0000 C   0  0  0  0  0  0  0  0  0  0  0  0
    3.2966    2.2495    0.0000 C   0  0  0  0  0  0  0  0  0  0  0  0
    4.6636    1.6322    0.0000 C   0  0  0  0  0  0  0  0  0  0  0  0
    5.8818    2.5075    0.0000 O   0  0  0  0  0  0  0  0  0  0  0  0
    0.6128    1.6939    0.0000 O   0  0  0  0  0  0  0  0  0  0  0  0
   -0.1440    0.3988    0.0000 C   0  0  0  0  0  0  0  0  0  0  0  0
   -1.6366    0.2499    0.0000 C   0  0  0  0  0  0  0  0  0  0  0  0
   -2.5119    1.4680    0.0000 C   0  0  0  0  0  0  0  0  0  0  0  0
   -4.0044    1.3191    0.0000 C   0  0  0  0  0  0  0  0  0  0  0  0
   -4.8797    2.5373    0.0000 O   0  0  0  0  0  0  0  0  0  0  0  0
   -4.2624    3.9043    0.0000 C   0  0  0  0  0  0  0  0  0  0  0  0
   -4.6218   -0.0480    0.0000 C   0  0  0  0  0  0  0  0  0  0  0  0
   -6.1143   -0.1969    0.0000 O   0  0  0  0  0  0  0  0  0  0  0  0
   -6.7317   -1.5640    0.0000 C   0  0  0  0  0  0  0  0  0  0  0  0
   -3.7465   -1.2661    0.0000 C   0  0  0  0  0  0  0  0  0  0  0  0
   -4.3638   -2.6332    0.0000 O   0  0  0  0  0  0  0  0  0  0  0  0
   -3.4885   -3.8514    0.0000 C   0  0  0  0  0  0  0  0  0  0  0  0
   -2.2539   -1.1172    0.0000 C   0  0  0  0  0  0  0  0  0  0  0  0
    0.8538   -0.7212    0.0000 C   0  0  0  0  0  0  0  0  0  0  0  0
    0.5342   -2.1868    0.0000 C   0  0  0  0  0  0  0  0  0  0  0  0
  1  2  2  0
  2  3  1  0
  3  4  1  0
  4  5  2  0
  5  6  1  0
  6  7  2  0
  7  8  1  0
  8  9  2  0
  9 10  1  0
  7 11  1  0
 11 12  1  0
 12 13  1  1
 13 14  2  0
 14 15  1  0
 15 16  1  0
 16 17  1  0
 15 18  2  0
 18 19  1  0
 19 20  1  0
 18 21  1  0
 21 22  1  0
 22 23  1  0
 21 24  2  0
 12 25  1  0
 25 26  1  6
  9  4  1  0
 24 13  1  0
 25  6  1  0
M  END
>  <identifier>  (47) 
CNP0286233.1

>  <canonical_smiles>  (47) 
C=CCC1=CC2=C(C=C1O)O[C@H](C1=CC(OC)=C(OC)C(OC)=C1)[C@H]2C

>  <standard_inchi>  (47) 
InChI=1S/C21H24O5/c1-6-7-13-8-15-12(2)20(26-17(15)11-16(13)22)14-9-18(23-3)21(25-5)19(10-14)24-4/h6,8-12,20,22H,1,7H2,2-5H3/t12-,20-/m0/s1

>  <standard_inchi_key>  (47) 
AEFIJALBGAGMIC-YUNKPMOVSA-N

>  <name>  (47) 
(2S,3S)-3-methyl-5-(prop-2-en-1-yl)-2-(3,4,5-trimethoxyphenyl)-2,3-dihydro-1-benzofuran-6-ol

>  <iupac_name>  (47) 
(2~{S},3~{S})-5-allyl-3-methyl-2-(3,4,5-trimethoxyphenyl)-2,3-dihydrobenzofuran-6-ol

>  <annotation_level>  (47) 
5

>  <total_atom_count>  (47) 
50

>  <heavy_atom_count>  (47) 
26

>  <molecular_weight>  (47) 
356.42

>  <exact_molecular_weight>  (47) 
356.16237

>  <molecular_formula>  (47) 
C21H24O5

>  <alogp>  (47) 
4.38

>  <topological_polar_surface_area>  (47) 
57.15

>  <rotatable_bond_count>  (47) 
6

>  <hydrogen_bond_acceptors>  (47) 
5

>  <hydrogen_bond_donors>  (47) 
1

>  <hydrogen_bond_acceptors_lipinski>  (47) 
5

>  <hydrogen_bond_donors_lipinski>  (47) 
1

>  <lipinski_rule_of_five_violations>  (47) 
0

>  <aromatic_rings_count>  (47) 
2

>  <qed_drug_likeliness>  (47) 
0.78

>  <formal_charge>  (47) 
0

>  <fractioncsp3>  (47) 
0.33

>  <number_of_minimal_rings>  (47) 
3

>  <van_der_walls_volume>  (47) 
nan

>  <contains_sugar>  (47) 
False

>  <contains_ring_sugars>  (47) 
False

>  <contains_linear_sugars>  (47) 
False

>  <murcko_framework>  (47) 
O1c2ccccc2CC1c3ccccc3

>  <np_likeness>  (47) 
1.64

>  <chemical_class>  (47) 
2-arylbenzofuran flavonoids

>  <chemical_sub_class>  (47) 
2-arylbenzofuran flavonoids

>  <chemical_super_class>  (47) 
Phenylpropanoids and polyketides

>  <direct_parent_classification>  (47) 
2-arylbenzofuran flavonoids

>  <np_classifier_pathway>  (47) 
Shikimates and Phenylpropanoids

>  <np_classifier_superclass>  (47) 
Lignans

>  <np_classifier_class>  (47) 
Neolignans

>  <np_classifier_is_glycoside>  (47) 
False

>  <organisms>  (47) 
Aniba|Aniba sp.

>  <collections>  (47) 
Latin America dataset|NuBBEDB|WikiData Natural Products|ZINC NP

>  <dois>  (47) 
10.1016/0031-9422(75)85358-1

>  <synonyms>  (47) 
(2S3S)-5-allyl-3-methyl-2-(345-trimethoxyphenyl)-23-dihydrobenzofuran-6-ol|SCHEMBL10800092

>  <cas>  (47) 
nan

$$$$

     RDKit          2D

 18 19  0  0  0  0  0  0  0  0999 V2000
   -4.5619   -0.8974    0.0000 C   0  0  0  0  0  0  0  0  0  0  0  0
   -4.5298    0.6023    0.0000 C   0  0  0  0  0  0  0  0  0  0  0  0
   -4.4977    2.1019    0.0000 C   0  0  0  0  0  0  0  0  0  0  0  0
   -6.0295    0.6344    0.0000 O   0  0  0  0  0  0  0  0  0  0  0  0
   -3.0302    0.5702    0.0000 C   0  0  0  0  0  0  0  0  0  0  0  0
   -2.3081   -0.7446    0.0000 C   0  0  0  0  0  0  0  0  0  0  0  0
   -0.8085   -0.7767    0.0000 C   0  0  0  0  0  0  0  0  0  0  0  0
   -0.0864   -2.0915    0.0000 C   0  0  0  0  0  0  0  0  0  0  0  0
    1.4132   -2.1236    0.0000 C   0  0  0  0  0  0  0  0  0  0  0  0
    2.1352   -3.4384    0.0000 O   0  0  0  0  0  0  0  0  0  0  0  0
    2.1908   -0.8409    0.0000 C   0  0  0  0  0  0  0  0  0  0  0  0
    3.6905   -0.8730    0.0000 C   0  0  0  0  0  0  0  0  0  0  0  0
    4.4681    0.4097    0.0000 C   0  0  0  0  0  0  0  0  0  0  0  0
    3.7461    1.7245    0.0000 C   0  0  0  0  0  0  0  0  0  0  0  0
    4.5237    3.0071    0.0000 O   0  0  0  0  0  0  0  0  0  0  0  0
    2.2464    1.7566    0.0000 C   0  0  0  0  0  0  0  0  0  0  0  0
    1.4688    0.4739    0.0000 C   0  0  0  0  0  0  0  0  0  0  0  0
   -0.0308    0.5060    0.0000 N   0  0  0  0  0  0  0  0  0  0  0  0
  1  2  1  0
  2  3  1  0
  2  4  1  0
  2  5  1  0
  5  6  1  0
  6  7  1  0
  7  8  2  0
  8  9  1  0
  9 10  2  0
  9 11  1  0
 11 12  2  0
 12 13  1  0
 13 14  2  0
 14 15  1  0
 14 16  1  0
 16 17  2  0
 17 18  1  0
 18  7  1  0
 17 11  1  0
M  END
>  <identifier>  (48) 
CNP0323045.0

>  <canonical_smiles>  (48) 
CC(C)(O)CCC1=CC(=O)C2=CC=C(O)C=C2N1

>  <standard_inchi>  (48) 
InChI=1S/C14H17NO3/c1-14(2,18)6-5-9-7-13(17)11-4-3-10(16)8-12(11)15-9/h3-4,7-8,16,18H,5-6H2,1-2H3,(H,15,17)

>  <standard_inchi_key>  (48) 
PDIDOKBDQJPHOI-UHFFFAOYSA-N

>  <name>  (48) 
nan

>  <iupac_name>  (48) 
7-hydroxy-2-(3-hydroxy-3-methyl-butyl)-1~{H}-quinolin-4-one

>  <annotation_level>  (48) 
4

>  <total_atom_count>  (48) 
35

>  <heavy_atom_count>  (48) 
18

>  <molecular_weight>  (48) 
247.29

>  <exact_molecular_weight>  (48) 
247.12084

>  <molecular_formula>  (48) 
C14H17NO3

>  <alogp>  (48) 
1.94

>  <topological_polar_surface_area>  (48) 
73.32

>  <rotatable_bond_count>  (48) 
3

>  <hydrogen_bond_acceptors>  (48) 
3

>  <hydrogen_bond_donors>  (48) 
3

>  <hydrogen_bond_acceptors_lipinski>  (48) 
3

>  <hydrogen_bond_donors_lipinski>  (48) 
3

>  <lipinski_rule_of_five_violations>  (48) 
0

>  <aromatic_rings_count>  (48) 
2

>  <qed_drug_likeliness>  (48) 
0.78

>  <formal_charge>  (48) 
0

>  <fractioncsp3>  (48) 
0.36

>  <number_of_minimal_rings>  (48) 
2

>  <van_der_walls_volume>  (48) 
nan

>  <contains_sugar>  (48) 
False

>  <contains_ring_sugars>  (48) 
False

>  <contains_linear_sugars>  (48) 
False

>  <murcko_framework>  (48) 
c1ccc2c(c1)NC=CC2

>  <np_likeness>  (48) 
1.04

>  <chemical_class>  (48) 
Quinolines and derivatives

>  <chemical_sub_class>  (48) 
Quinolones and derivatives

>  <chemical_super_class>  (48) 
Organoheterocyclic compounds

>  <direct_parent_classification>  (48) 
Hydroquinolones

>  <np_classifier_pathway>  (48) 
Alkaloids

>  <np_classifier_superclass>  (48) 
Tryptophan alkaloids

>  <np_classifier_class>  (48) 
Acridone alkaloids

>  <np_classifier_is_glycoside>  (48) 
False

>  <organisms>  (48) 
Sohnreyia excelsa|Spathelia excelsa

>  <collections>  (48) 
Latin America dataset|NuBBEDB|TCMDB-Taiwan (Traditional Chinese Medicine database)|TCMID (Traditional Chinese Medicine Integrated Database)|UNPD (Universal Natural Products Database)|WikiData Natural Products|ZINC NP

>  <dois>  (48) 
10.1016/J.PHYTOCHEM.2005.05.019|10.1016/j.phytochem.2005.05.019

>  <synonyms>  (48) 
7-hydroxy-2-(3-hydroxy-3-methylbutyl)-4-quinolone

>  <cas>  (48) 
nan

$$$$

     RDKit          2D

 27 29  0  0  0  0  0  0  0  0999 V2000
   -7.8312    0.8106    0.0000 C   0  0  0  0  0  0  0  0  0  0  0  0
   -7.0792   -0.4872    0.0000 O   0  0  0  0  0  0  0  0  0  0  0  0
   -5.5792   -0.4848    0.0000 C   0  0  0  0  0  0  0  0  0  0  0  0
   -4.8312    0.8154    0.0000 C   0  0  0  0  0  0  0  0  0  0  0  0
   -3.3312    0.8178    0.0000 C   0  0  0  0  0  0  0  0  0  0  0  0
   -2.5833    2.1180    0.0000 C   0  0  0  0  0  0  0  0  0  0  0  0
   -1.0833    2.1204    0.0000 C   0  0  0  0  0  0  0  0  0  0  0  0
   -0.2035    3.3353    0.0000 C   0  0  0  0  0  0  0  0  0  0  0  0
    1.2238    2.8740    0.0000 O   0  0  0  0  0  0  0  0  0  0  0  0
    1.2261    1.3740    0.0000 C   0  0  0  0  0  0  0  0  0  0  0  0
    2.4411    0.4943    0.0000 C   0  0  0  0  0  0  0  0  0  0  0  0
    2.2866   -0.9977    0.0000 C   0  0  0  0  0  0  0  0  0  0  0  0
    3.5016   -1.8775    0.0000 C   0  0  0  0  0  0  0  0  0  0  0  0
    4.8709   -1.2652    0.0000 C   0  0  0  0  0  0  0  0  0  0  0  0
    6.0858   -2.1450    0.0000 O   0  0  0  0  0  0  0  0  0  0  0  0
    5.9314   -3.6370    0.0000 C   0  0  0  0  0  0  0  0  0  0  0  0
    5.0253    0.2268    0.0000 C   0  0  0  0  0  0  0  0  0  0  0  0
    6.3947    0.8391    0.0000 O   0  0  0  0  0  0  0  0  0  0  0  0
    6.5491    2.3311    0.0000 C   0  0  0  0  0  0  0  0  0  0  0  0
    3.8104    1.1066    0.0000 C   0  0  0  0  0  0  0  0  0  0  0  0
   -0.1997    0.9083    0.0000 C   0  0  0  0  0  0  0  0  0  0  0  0
   -0.6610   -0.5191    0.0000 C   0  0  0  0  0  0  0  0  0  0  0  0
    0.3445   -1.6322    0.0000 O   0  0  0  0  0  0  0  0  0  0  0  0
   -2.5792   -0.4801    0.0000 C   0  0  0  0  0  0  0  0  0  0  0  0
   -3.3271   -1.7803    0.0000 C   0  0  0  0  0  0  0  0  0  0  0  0
   -4.8271   -1.7827    0.0000 C   0  0  0  0  0  0  0  0  0  0  0  0
   -5.5751   -3.0829    0.0000 O   0  0  0  0  0  0  0  0  0  0  0  0
  1  2  1  0
  2  3  1  0
  3  4  2  0
  4  5  1  0
  5  6  1  0
  7  6  1  1
  7  8  1  0
  8  9  1  0
  9 10  1  0
 10 11  1  6
 11 12  2  0
 12 13  1  0
 13 14  2  0
 14 15  1  0
 15 16  1  0
 14 17  1  0
 17 18  1  0
 18 19  1  0
 17 20  2  0
 10 21  1  0
 21 22  1  1
 22 23  1  0
  5 24  2  0
 24 25  1  0
 25 26  2  0
 26 27  1  0
 26  3  1  0
 21  7  1  0
 20 11  1  0
M  END
>  <identifier>  (49) 
CNP0378720.1

>  <canonical_smiles>  (49) 
COC1=CC(C[C@H]2CO[C@H](C3=CC=C(OC)C(OC)=C3)[C@H]2CO)=CC=C1O

>  <standard_inchi>  (49) 
InChI=1S/C21H26O6/c1-24-18-7-5-14(10-20(18)26-3)21-16(11-22)15(12-27-21)8-13-4-6-17(23)19(9-13)25-2/h4-7,9-10,15-16,21-23H,8,11-12H2,1-3H3/t15-,16-,21+/m0/s1

>  <standard_inchi_key>  (49) 
VVKJZDWKHOGKOG-CKJXQJPGSA-N

>  <name>  (49) 
3-Furanmethanol, 2-(3,4-dimethoxyphenyl)tetrahydro-4-((4-hydroxy-3-methoxyphenyl)methyl)-, (2S,3R,4R)-

>  <iupac_name>  (49) 
4-[[(3~{R},4~{R},5~{S})-5-(3,4-dimethoxyphenyl)-4-(hydroxymethyl)tetrahydrofuran-3-yl]methyl]-2-methoxy-phenol

>  <annotation_level>  (49) 
5

>  <total_atom_count>  (49) 
53

>  <heavy_atom_count>  (49) 
27

>  <molecular_weight>  (49) 
374.43

>  <exact_molecular_weight>  (49) 
374.17294

>  <molecular_formula>  (49) 
C21H26O6

>  <alogp>  (49) 
2.96

>  <topological_polar_surface_area>  (49) 
77.38

>  <rotatable_bond_count>  (49) 
7

>  <hydrogen_bond_acceptors>  (49) 
6

>  <hydrogen_bond_donors>  (49) 
2

>  <hydrogen_bond_acceptors_lipinski>  (49) 
6

>  <hydrogen_bond_donors_lipinski>  (49) 
2

>  <lipinski_rule_of_five_violations>  (49) 
0

>  <aromatic_rings_count>  (49) 
2

>  <qed_drug_likeliness>  (49) 
0.78

>  <formal_charge>  (49) 
0

>  <fractioncsp3>  (49) 
0.43

>  <number_of_minimal_rings>  (49) 
3

>  <van_der_walls_volume>  (49) 
345.58

>  <contains_sugar>  (49) 
False

>  <contains_ring_sugars>  (49) 
False

>  <contains_linear_sugars>  (49) 
False

>  <murcko_framework>  (49) 
O1CC(Cc2ccccc2)CC1c3ccccc3

>  <np_likeness>  (49) 
1.51

>  <chemical_class>  (49) 
Furanoid lignans

>  <chemical_sub_class>  (49) 
Tetrahydrofuran lignans

>  <chemical_super_class>  (49) 
Lignans, neolignans and related compounds

>  <direct_parent_classification>  (49) 
7,9'-epoxylignans

>  <np_classifier_pathway>  (49) 
Shikimates and Phenylpropanoids

>  <np_classifier_superclass>  (49) 
Lignans

>  <np_classifier_class>  (49) 
Furanoid lignans

>  <np_classifier_is_glycoside>  (49) 
False

>  <organisms>  (49) 
Abies spectabilis|Araucaria angustifolia|Daphne oleoides|Monechma ciliatum|Monechma debile|Turraea nilotica|Turrea nilotica

>  <collections>  (49) 
CMAUP (cCollective molecular activities of useful plants)|KNApSaCK|Latin America dataset|NPASS|NPEdia|NuBBEDB|Super Natural II|TCMDB-Taiwan (Traditional Chinese Medicine database)|WikiData Natural Products|ZINC NP

>  <dois>  (49) 
10.1016/0031-9422(79)80188-0|10.1016/S0031-9422(98)00468-3|10.1021/np50035a023|10.1248/CPB.58.1646

>  <synonyms>  (49) 
(+)-Lariciresinol 4-methyl ether|4,9'-Dihydroxy-3',4',5-trimethoxy-7',9-epoxylignan|73354-13-9|CHEMBL483422|DTXSID40223599|lariciresinol-4'-monomethyl ether

>  <cas>  (49) 
73354-13-9

$$$$

     RDKit          2D

 16 17  0  0  0  0  0  0  0  0999 V2000
   -3.7914    2.6124    0.0000 C   0  0  0  0  0  0  0  0  0  0  0  0
   -3.5917    1.1258    0.0000 O   0  0  0  0  0  0  0  0  0  0  0  0
   -2.2044    0.5553    0.0000 C   0  0  0  0  0  0  0  0  0  0  0  0
   -1.0168    1.4715    0.0000 C   0  0  0  0  0  0  0  0  0  0  0  0
    0.3705    0.9011    0.0000 C   0  0  0  0  0  0  0  0  0  0  0  0
    0.5701   -0.5856    0.0000 C   0  0  0  0  0  0  0  0  0  0  0  0
   -0.6175   -1.5018    0.0000 C   0  0  0  0  0  0  0  0  0  0  0  0
   -0.4179   -2.9884    0.0000 O   0  0  0  0  0  0  0  0  0  0  0  0
   -2.0048   -0.9313    0.0000 C   0  0  0  0  0  0  0  0  0  0  0  0
   -3.1925   -1.8475    0.0000 C   0  0  0  0  0  0  0  0  0  0  0  0
    1.9574   -1.1560    0.0000 C   0  0  0  0  0  0  0  0  0  0  0  0
    2.1571   -2.6427    0.0000 O   0  0  0  0  0  0  0  0  0  0  0  0
    3.1451   -0.2398    0.0000 C   0  0  0  0  0  0  0  0  0  0  0  0
    2.9455    1.2468    0.0000 C   0  0  0  0  0  0  0  0  0  0  0  0
    4.1332    2.1630    0.0000 C   0  0  0  0  0  0  0  0  0  0  0  0
    1.5582    1.8173    0.0000 O   0  0  0  0  0  0  0  0  0  0  0  0
  1  2  1  0
  2  3  1  0
  3  4  2  0
  4  5  1  0
  5  6  2  0
  6  7  1  0
  7  8  1  0
  7  9  2  0
  9 10  1  0
  6 11  1  0
 11 12  2  0
 11 13  1  0
 13 14  2  0
 14 15  1  0
 14 16  1  0
  9  3  1  0
 16  5  1  0
M  END
>  <identifier>  (50) 
CNP0332654.0

>  <canonical_smiles>  (50) 
COC1=CC2=C(C(O)=C1C)C(=O)C=C(C)O2

>  <standard_inchi>  (50) 
InChI=1S/C12H12O4/c1-6-4-8(13)11-10(16-6)5-9(15-3)7(2)12(11)14/h4-5,14H,1-3H3

>  <standard_inchi_key>  (50) 
RGTSAUBIQAKKLC-UHFFFAOYSA-N

>  <name>  (50) 
Eugenitin

>  <iupac_name>  (50) 
5-hydroxy-7-methoxy-2,6-dimethyl-chromen-4-one

>  <annotation_level>  (50) 
5

>  <total_atom_count>  (50) 
28

>  <heavy_atom_count>  (50) 
16

>  <molecular_weight>  (50) 
220.22

>  <exact_molecular_weight>  (50) 
220.07356

>  <molecular_formula>  (50) 
C12H12O4

>  <alogp>  (50) 
2.12

>  <topological_polar_surface_area>  (50) 
59.67

>  <rotatable_bond_count>  (50) 
1

>  <hydrogen_bond_acceptors>  (50) 
4

>  <hydrogen_bond_donors>  (50) 
1

>  <hydrogen_bond_acceptors_lipinski>  (50) 
4

>  <hydrogen_bond_donors_lipinski>  (50) 
1

>  <lipinski_rule_of_five_violations>  (50) 
0

>  <aromatic_rings_count>  (50) 
2

>  <qed_drug_likeliness>  (50) 
0.80

>  <formal_charge>  (50) 
0

>  <fractioncsp3>  (50) 
0.25

>  <number_of_minimal_rings>  (50) 
2

>  <van_der_walls_volume>  (50) 
193.28

>  <contains_sugar>  (50) 
False

>  <contains_ring_sugars>  (50) 
False

>  <contains_linear_sugars>  (50) 
False

>  <murcko_framework>  (50) 
O1C=CCc2ccccc12

>  <np_likeness>  (50) 
1.55

>  <chemical_class>  (50) 
Benzopyrans

>  <chemical_sub_class>  (50) 
1-benzopyrans

>  <chemical_super_class>  (50) 
Organoheterocyclic compounds

>  <direct_parent_classification>  (50) 
Chromones

>  <np_classifier_pathway>  (50) 
Polyketides

>  <np_classifier_superclass>  (50) 
Chromanes

>  <np_classifier_class>  (50) 
Chromones

>  <np_classifier_is_glycoside>  (50) 
False

>  <organisms>  (50) 
Aconitum sajanense|Andinobates bombetes|Artemisia jacutica|Avrainvillea rawsonii|Bersama abyssinica|Cassia jahnii|Chaetomium chiversii|Coriaria japonica|Cylindrocarpon|Cyperus teneriffae|Cyphelium chrysocephalum|Damnacanthus major|Eugenia caryophyllata|Eugenia caryopyhllata|Floropilus chiversii|Galeocerdo arcticus|Lactifluus subvellereus|Lithocolletis coryli|Melaleuca cajuputi|Muyocopron sahnii|Mycoleptodiscus indicus|Pellicularia sasakii|Piper attenuatum|Puccinia lagenophorae|Rubus sanctus|Siphonaria australis|Stauntonia hexaphylla|Strychnos triplinervia|Syzygium aromaticum|Tellima grandifolia|Thymus membranaceus|clove

>  <collections>  (50) 
Australian natural products|CMAUP (cCollective molecular activities of useful plants)|ChEBI NPs|EMNPD|FooDB|KNApSaCK|Latin America dataset|NPASS|NPEdia|NuBBEDB|PubChem NPs|Super Natural II|TCMDB-Taiwan (Traditional Chinese Medicine database)|TCMID (Traditional Chinese Medicine Integrated Database)|UNPD (Universal Natural Products Database)|WikiData Natural Products

>  <dois>  (50) 
10.1002/HLCA.19490320429|10.1016/J.TET.2006.06.089|10.1016/j.molcatb.2011.08.003|10.1021/NP070504B|10.1021/NP200020T|10.1021/NP4006822|10.1021/np200020t|10.1021/np4006822|10.1071/ch9720875|10.1080/14786419.2012.666750

>  <synonyms>  (50) 
480-12-6|4H-1-Benzopyran-4-one, 5-hydroxy-7-methoxy-2,6-dimethyl-|5-hydroxy-7-methoxy-2,6-dimethyl-4h -1-benzopyran-4-one|5-hydroxy-7-methoxy-2,6-dimethylchromen-4-one|CHEBI:67491|CHEMBL3104955|CS-0746885|D85078|DTXSID30197376|EUGENITIN(RG)|Eugenetin|Eugenitin|HY-W663230|MLS004257385|Q5408353|SMR003082516|eugenetin|eugenitin

>  <cas>  (50) 
480-12-6

$$$$

     RDKit          2D

 33 37  0  0  0  0  0  0  0  0999 V2000
    8.0049    0.4896    0.0000 C   0  0  0  0  0  0  0  0  0  0  0  0
    7.0867   -0.6965    0.0000 C   0  0  0  0  0  0  0  0  0  0  0  0
    6.1684   -1.8826    0.0000 C   0  0  0  0  0  0  0  0  0  0  0  0
    8.2727   -1.6148    0.0000 O   0  0  0  0  0  0  0  0  0  0  0  0
    5.9006    0.2218    0.0000 C   0  0  0  0  0  0  0  0  0  0  0  0
    5.9463    1.7211    0.0000 C   0  0  0  0  0  0  0  0  0  0  0  0
    4.5345    2.2279    0.0000 C   0  0  0  0  0  0  0  0  0  0  0  0
    3.6163    1.0418    0.0000 C   0  0  0  0  0  0  0  0  0  0  0  0
    2.5327    2.0790    0.0000 C   0  0  0  0  0  0  0  0  0  0  0  0
    2.4715    0.0725    0.0000 C   0  0  0  0  0  0  0  0  0  0  0  0
    2.5827   -1.4233    0.0000 C   0  0  0  0  0  0  0  0  0  0  0  0
    1.1944   -1.9914    0.0000 C   0  0  0  0  0  0  0  0  0  0  0  0
    0.2252   -0.8466    0.0000 C   0  0  0  0  0  0  0  0  0  0  0  0
   -0.4264   -2.1977    0.0000 C   0  0  0  0  0  0  0  0  0  0  0  0
    1.0144    0.4290    0.0000 C   0  0  0  0  0  0  0  0  0  0  0  0
    0.3044    1.7503    0.0000 C   0  0  0  0  0  0  0  0  0  0  0  0
   -1.1949    1.7960    0.0000 C   0  0  0  0  0  0  0  0  0  0  0  0
   -1.9842    0.5204    0.0000 C   0  0  0  0  0  0  0  0  0  0  0  0
   -3.4835    0.5662    0.0000 C   0  0  0  0  0  0  0  0  0  0  0  0
   -2.6942    1.8417    0.0000 C   0  0  0  0  0  0  0  0  0  0  0  0
   -4.1935    1.8875    0.0000 C   0  0  0  0  0  0  0  0  0  0  0  0
   -5.6928    1.9332    0.0000 C   0  0  0  0  0  0  0  0  0  0  0  0
   -6.4821    0.6576    0.0000 C   0  0  0  0  0  0  0  0  0  0  0  0
   -7.9814    0.7034    0.0000 O   0  0  0  0  0  0  0  0  0  0  0  0
   -5.7720   -0.6637    0.0000 C   0  0  0  0  0  0  0  0  0  0  0  0
   -5.5567   -2.1481    0.0000 C   0  0  0  0  0  0  0  0  0  0  0  0
   -7.1966   -1.1335    0.0000 C   0  0  0  0  0  0  0  0  0  0  0  0
   -4.2727   -0.7094    0.0000 C   0  0  0  0  0  0  0  0  0  0  0  0
   -3.5627   -2.0307    0.0000 C   0  0  0  0  0  0  0  0  0  0  0  0
   -2.0634   -2.0764    0.0000 C   0  0  0  0  0  0  0  0  0  0  0  0
   -1.2741   -0.8009    0.0000 C   0  0  0  0  0  0  0  0  0  0  0  0
   -0.4849    0.4747    0.0000 C   0  0  0  0  0  0  0  0  0  0  0  0
    4.4605   -0.1981    0.0000 O   0  0  0  0  0  0  0  0  0  0  0  0
  1  2  1  0
  2  3  1  0
  2  4  1  0
  5  2  1  1
  5  6  1  0
  6  7  1  0
  7  8  1  0
  8  9  1  1
  8 10  1  0
 10 11  1  1
 11 12  1  0
 12 13  1  0
 13 14  1  6
 13 15  1  0
 15 16  1  6
 16 17  1  0
 18 17  1  1
 18 19  1  0
 19 20  1  1
 19 21  1  0
 21 22  1  0
 22 23  1  0
 23 24  1  6
 23 25  1  0
 25 26  1  0
 25 27  1  0
 25 28  1  0
 28 29  1  1
 29 30  1  0
 30 31  1  0
 31 32  1  1
  8 33  1  0
 33  5  1  0
 15 10  1  0
 31 18  1  0
 31 13  1  0
 28 19  1  0
M  END
>  <identifier>  (51) 
CNP0117652.2

>  <canonical_smiles>  (51) 
CC(C)(O)[C@@H]1CC[C@@](C)([C@H]2CC[C@]3(C)[C@@H]2CC[C@@H]2[C@@]4(C)CC[C@@H](O)C(C)(C)[C@@H]4CC[C@]23C)O1

>  <standard_inchi>  (51) 
InChI=1S/C30H52O3/c1-25(2)21-12-17-29(7)22(27(21,5)15-13-23(25)31)10-9-19-20(11-16-28(19,29)6)30(8)18-14-24(33-30)26(3,4)32/h19-24,31-32H,9-18H2,1-8H3/t19-,20+,21+,22-,23-,24+,27+,28-,29-,30+/m1/s1

>  <standard_inchi_key>  (51) 
RQBNSDSKUAGBOI-ZNYSIYOKSA-N

>  <name>  (51) 
Cabraleadiol

>  <iupac_name>  (51) 
(3~{R},5~{R},8~{R},9~{R},10~{R},13~{R},14~{R},17~{S})-17-[(2~{S},5~{S})-5-(1-hydroxy-1-methyl-ethyl)-2-methyl-tetrahydrofuran-2-yl]-4,4,8,10,14-pentamethyl-2,3,5,6,7,9,11,12,13,15,16,17-dodecahydro-1~{H}-cyclopenta[a]phenanthren-3-ol

>  <annotation_level>  (51) 
5

>  <total_atom_count>  (51) 
85

>  <heavy_atom_count>  (51) 
33

>  <molecular_weight>  (51) 
460.74

>  <exact_molecular_weight>  (51) 
460.39165

>  <molecular_formula>  (51) 
C30H52O3

>  <alogp>  (51) 
6.74

>  <topological_polar_surface_area>  (51) 
49.69

>  <rotatable_bond_count>  (51) 
2

>  <hydrogen_bond_acceptors>  (51) 
3

>  <hydrogen_bond_donors>  (51) 
2

>  <hydrogen_bond_acceptors_lipinski>  (51) 
3

>  <hydrogen_bond_donors_lipinski>  (51) 
2

>  <lipinski_rule_of_five_violations>  (51) 
1

>  <aromatic_rings_count>  (51) 
0

>  <qed_drug_likeliness>  (51) 
0.48

>  <formal_charge>  (51) 
0

>  <fractioncsp3>  (51) 
1.00

>  <number_of_minimal_rings>  (51) 
5

>  <van_der_walls_volume>  (51) 
470.15

>  <contains_sugar>  (51) 
False

>  <contains_ring_sugars>  (51) 
False

>  <contains_linear_sugars>  (51) 
False

>  <murcko_framework>  (51) 
O1CCCC1C2CCC3C2CCC4C5CCCCC5CCC43

>  <np_likeness>  (51) 
3.00

>  <chemical_class>  (51) 
Steroids and steroid derivatives

>  <chemical_sub_class>  (51) 
Hydroxysteroids

>  <chemical_super_class>  (51) 
Lipids and lipid-like molecules

>  <direct_parent_classification>  (51) 
Hydroxysteroids

>  <np_classifier_pathway>  (51) 
Terpenoids

>  <np_classifier_superclass>  (51) 
Triterpenoids

>  <np_classifier_class>  (51) 
Dammarane and Protostane triterpenoids

>  <np_classifier_is_glycoside>  (51) 
False

>  <organisms>  (51) 
Aglaia abbreviata|Aglaia elaeagnoidea|Aglaia lawii|Amoora rohituka|Baccharis minutiflora|Blepharidophyllum densifolium|Cabralea canjerana|Cabralea polytricha|Commiphora dalzielii|Cordia spinescens|Dysoxylum binectariferum|Dysoxylum ficiforme|Dysoxylum gotadhora|Dysoxylum malabaricum|Halimium halimifolium|Heliotropium olgae|Sideritis flavovirens|Streptomyces halstedii|Tragopogon orientalis|Varronia spinescens|dysoxylum binecteriferum

>  <collections>  (51) 
CMAUP (cCollective molecular activities of useful plants)|ChEBI NPs|Latin America dataset|NPACT|NPASS|NuBBEDB|Super Natural II|WikiData Natural Products|ZINC NP

>  <dois>  (51) 
10.1002/(SICI)1097-458X(199602)34:2<146::AID-OMR850>3.0.CO;2-U|10.1016/0040-4020(72)80138-8|10.1016/S0031-9422(00)00463-5|10.1016/S0031-9422(00)80607-X|10.1016/S0031-9422(97)00407-X|10.1021/NP100599G|10.1021/NP400700G|10.1021/np100599g|10.1021/np400700g|10.1515/ZNC-1999-7-804|10.1515/ZNC-2011-5-607

>  <synonyms>  (51) 
(3,24S)-20,24-Epoxydammarane-3,25-diol; 3-Epiocotillol II|(3R,5R,8R,9R,10R,13R,14R,17S)-17-[(2S,5S)-5-(2-hydroxypropan-2-yl)-2-methyloxolan-2-yl]-4,4,8,10,14-pentamethyl-2,3,5,6,7,9,11,12,13,15,16,17-dodecahydro-1H-cyclopenta[a]phenanthren-3-ol|(3alpha,24S)-20,24-epoxydammarane-3,25-diol|67253-01-4|AKOS032962143|CHEBI:70272|CHEMBL3109461|CS-0023620|Cabraleadiol|FS-8945|HY-N2975|Q27138612

>  <cas>  (51) 
67253-01-4

$$$$

     RDKit          2D

 21 21  0  0  0  0  0  0  0  0999 V2000
   -9.9841    0.8869    0.0000 C   0  0  0  0  0  0  0  0  0  0  0  0
   -8.7384    0.0513    0.0000 C   0  0  0  0  0  0  0  0  0  0  0  0
   -7.3919    0.7124    0.0000 C   0  0  0  0  0  0  0  0  0  0  0  0
   -6.1462   -0.1232    0.0000 C   0  0  0  0  0  0  0  0  0  0  0  0
   -4.7997    0.5379    0.0000 C   0  0  0  0  0  0  0  0  0  0  0  0
   -3.5540   -0.2977    0.0000 C   0  0  0  0  0  0  0  0  0  0  0  0
   -3.6547   -1.7943    0.0000 O   0  0  0  0  0  0  0  0  0  0  0  0
   -2.2075    0.3634    0.0000 C   0  0  0  0  0  0  0  0  0  0  0  0
   -0.9618   -0.4722    0.0000 C   0  0  0  0  0  0  0  0  0  0  0  0
   -1.0625   -1.9688    0.0000 O   0  0  0  0  0  0  0  0  0  0  0  0
    0.3847    0.1889    0.0000 C   0  0  0  0  0  0  0  0  0  0  0  0
    1.6304   -0.6467    0.0000 C   0  0  0  0  0  0  0  0  0  0  0  0
    2.9769    0.0144    0.0000 C   0  0  0  0  0  0  0  0  0  0  0  0
    3.0777    1.5110    0.0000 C   0  0  0  0  0  0  0  0  0  0  0  0
    4.4242    2.1720    0.0000 C   0  0  0  0  0  0  0  0  0  0  0  0
    5.6699    1.3365    0.0000 C   0  0  0  0  0  0  0  0  0  0  0  0
    7.0164    1.9975    0.0000 O   0  0  0  0  0  0  0  0  0  0  0  0
    5.5691   -0.1601    0.0000 C   0  0  0  0  0  0  0  0  0  0  0  0
    6.8149   -0.9957    0.0000 O   0  0  0  0  0  0  0  0  0  0  0  0
    6.7141   -2.4923    0.0000 C   0  0  0  0  0  0  0  0  0  0  0  0
    4.2226   -0.8212    0.0000 C   0  0  0  0  0  0  0  0  0  0  0  0
  1  2  1  0
  2  3  1  0
  3  4  1  0
  4  5  1  0
  5  6  1  0
  6  7  1  1
  6  8  1  0
  8  9  1  0
  9 10  2  0
  9 11  1  0
 11 12  1  0
 12 13  1  0
 13 14  2  0
 14 15  1  0
 15 16  2  0
 16 17  1  0
 16 18  1  0
 18 19  1  0
 19 20  1  0
 18 21  2  0
 21 13  1  0
M  END
>  <identifier>  (52) 
CNP0314204.1

>  <canonical_smiles>  (52) 
CCCCC[C@H](O)CC(=O)CCC1=CC=C(O)C(OC)=C1

>  <standard_inchi>  (52) 
InChI=1S/C17H26O4/c1-3-4-5-6-14(18)12-15(19)9-7-13-8-10-16(20)17(11-13)21-2/h8,10-11,14,18,20H,3-7,9,12H2,1-2H3/t14-/m0/s1

>  <standard_inchi_key>  (52) 
NLDDIKRKFXEWBK-AWEZNQCLSA-N

>  <name>  (52) 
6-Gingerol

>  <iupac_name>  (52) 
(5~{S})-5-hydroxy-1-(4-hydroxy-3-methoxy-phenyl)decan-3-one

>  <annotation_level>  (52) 
5

>  <total_atom_count>  (52) 
47

>  <heavy_atom_count>  (52) 
21

>  <molecular_weight>  (52) 
294.39

>  <exact_molecular_weight>  (52) 
294.18311

>  <molecular_formula>  (52) 
C17H26O4

>  <alogp>  (52) 
3.23

>  <topological_polar_surface_area>  (52) 
66.76

>  <rotatable_bond_count>  (52) 
10

>  <hydrogen_bond_acceptors>  (52) 
4

>  <hydrogen_bond_donors>  (52) 
2

>  <hydrogen_bond_acceptors_lipinski>  (52) 
4

>  <hydrogen_bond_donors_lipinski>  (52) 
2

>  <lipinski_rule_of_five_violations>  (52) 
0

>  <aromatic_rings_count>  (52) 
1

>  <qed_drug_likeliness>  (52) 
0.65

>  <formal_charge>  (52) 
0

>  <fractioncsp3>  (52) 
0.59

>  <number_of_minimal_rings>  (52) 
1

>  <van_der_walls_volume>  (52) 
292.78

>  <contains_sugar>  (52) 
False

>  <contains_ring_sugars>  (52) 
False

>  <contains_linear_sugars>  (52) 
False

>  <murcko_framework>  (52) 
c1ccccc1

>  <np_likeness>  (52) 
1.48

>  <chemical_class>  (52) 
Phenols

>  <chemical_sub_class>  (52) 
Methoxyphenols

>  <chemical_super_class>  (52) 
Benzenoids

>  <direct_parent_classification>  (52) 
Gingerols

>  <np_classifier_pathway>  (52) 
nan

>  <np_classifier_superclass>  (52) 
nan

>  <np_classifier_class>  (52) 
nan

>  <np_classifier_is_glycoside>  (52) 
False

>  <organisms>  (52) 
Aframomum melegueta|Carum carvi|Cinnamomum|Cortex zingiberis|Cuminum cyminum|Illicium verum|Laurus|Morinda citrifolia|Myristica fragrans|Physcia mediterranea|Piper nigrum|Rhizoma zingiberis praeparata|Rhizoma zingiberis recens preparata|Zingiber|Zingiber Officinale|Zingiber aromaticum|Zingiber officinale|Zingiber sp.|Zingiberaceae|clove

>  <collections>  (52) 
Australian natural products|CMAUP (cCollective molecular activities of useful plants)|ChEBI NPs|ConMedNP|ETM (Ethiopian Traditional Medicine) DB|Indofine Chemical Company|InflamNat|KNApSaCK|Latin America dataset|NAPRORE-CR|NPACT|NPASS|NPEdia|NuBBEDB|PhytoLab phyproof® Reference Substances|Super Natural II|TCMDB-Taiwan (Traditional Chinese Medicine database)|TIPdb (database of Taiwan indigenous plants)|VietHerb|WikiData Natural Products

>  <dois>  (52) 
10.1002/JPS.2600711025|10.1002/JSFA.2740680213|10.1002/MC.20374|10.1002/PS.263|10.1002/PTR.1335|10.1016/0005-2736(87)90159-3|10.1016/0021-9673(92)80189-2|10.1016/0031-9422(91)80085-F|10.1016/0031-9422(92)83147-Q|10.1016/0031-9422(95)00154-Y|10.1016/0165-7992(82)90016-1|10.1016/0304-3835(87)90094-2|10.1016/0378-8741(85)90009-1|10.1016/0378-8741(85)90025-X|10.1016/0378-8741(88)90009-8|10.1016/J.BBRC.2007.08.012|10.1016/J.CBI.2010.02.017|10.1016/J.JCHROMB.2012.07.013|10.1016/J.PHYTOCHEM.2004.06.008|10.1016/S0021-9673(01)90593-X|10.1016/S0021-9673(97)01013-3|10.1016/S0031-9422(02)00618-0|10.1016/S0168-9452(96)04512-8|10.1016/j.jchromb.2012.07.013|10.1016/j.jep.2009.10.004|10.1016/j.phytol.2015.11.006|10.1021/JF00069A027|10.1021/JF051513Y|10.1021/JF9027443|10.1021/JF970948L|10.1021/NP070279Y|10.1021/NP800555Y|10.1021/NP8006183|10.1021/np300375t|10.1021/np800555y|10.1055/S-2002-34928|10.1055/S-2005-871265|10.1055/S-2006-960986|10.1071/CH9691033|10.1071/ch9691033|10.1080/01483919008049223|10.1080/14786419.2010.490917|10.1111/J.1365-2621.1986.TB13124.X|10.1111/J.1365-2621.1990.TB01116.X|10.1111/J.1365-2621.1993.TB06194.X|10.1111/J.1365-2621.1994.TB14710.X|10.1155/2011/960193|10.1186/1472-6882-7-44|10.1248/BPB.28.495|10.1248/CPB.38.430|10.1248/CPB.40.387|10.1248/CPB.42.1226|10.1248/YAKUSHI1947.112.9_645|10.1248/YAKUSHI1947.113.10_712|10.1248/YAKUSHI1947.94.6_735|10.1515/ZNB-2011-0716|10.3390/MOLECULES26041121|10.3390/pr10040691

>  <synonyms>  (52) 
(+)-[6]-Gingerol|(6)-GINGEROL [MI]|(6)-Gingerol|(S)-(+)-[6]Gingerol|(S)-(+)-[6]Gingerol;6-Gingerol|(S)-(6)-Gingerol|(S)-5-Hydroxy-1-(4-hydroxy-3-methoxyphenyl)decan-3-one|1391-73-7|1ST000358|23513-14-6|3-Decanone, 5-hydroxy-1-(4-hydroxy-3-methoxyphenyl)-, (5S)-|5-Hydroxy-1-(4'-hydroxy-3'-methoxyphenyl)-3-decanone|6-GINGEROL|6-GINGEROL (CONSTITUENT OF GINGER)|6-Gingerol|6-gingerol|925QK2Z900|A816759|AC-33934|AKOS015888215|BDBM50275147|BDBM50317427|BRD-K26117720-001-02-2|BSPBio_001347|Bio1_000072|Bio1_000561|Bio1_001050|Bio2_000547|C10462|C17-H26-O4|CA-422|CBiol_001786|CCG-208033|CCG-208214|CHEBI:10136|CHEMBL402978|CHEMBL446043|CS-6333|DS-12369|DTXSID3041035|GTPL2428|HMS1361D09|HMS1791D09|HMS1989D09|HMS3402D09|HY-14615|IDI1_033817|KBio2_000067|KBio2_002635|KBio2_005203|KBio3_000133|KBioGR_000067|KBioSS_000067|MFCD00210507|NCGC00163131-01|NLDDIKRKFXEWBK-AWEZNQCLSA-N|NS00027445|Q-100300|Q421081|SCHEMBL32102|SR-05000002341|SRCG-00265|UNII-925QK2Z900|W-205525|Zingiberaceae|[1-(4''-hydroxy-3''-methoxyphenyl)-5-hydroxy-3-decanone]|[6]-Gingerol|[6]-Gingerol, >=98% (HPLC)|[6]-Gingerol, analytical standard|gingerol|s3836

>  <cas>  (52) 
23513-14-6|1391-73-7

$$$$

     RDKit          2D

 30 33  0  0  0  0  0  0  0  0999 V2000
   -4.7198   -1.7888    0.0000 C   0  0  0  0  0  0  0  0  0  0  0  0
   -4.8833   -0.2978    0.0000 C   0  0  0  0  0  0  0  0  0  0  0  0
   -6.3233   -0.7177    0.0000 C   0  0  0  0  0  0  0  0  0  0  0  0
   -5.5469    1.0475    0.0000 C   0  0  0  0  0  0  0  0  0  0  0  0
   -7.0437    1.1454    0.0000 O   0  0  0  0  0  0  0  0  0  0  0  0
   -4.7137    2.2948    0.0000 C   0  0  0  0  0  0  0  0  0  0  0  0
   -3.2169    2.1969    0.0000 C   0  0  0  0  0  0  0  0  0  0  0  0
   -2.5533    0.8517    0.0000 C   0  0  0  0  0  0  0  0  0  0  0  0
   -1.7201    2.0990    0.0000 C   0  0  0  0  0  0  0  0  0  0  0  0
   -3.3865   -0.3957    0.0000 C   0  0  0  0  0  0  0  0  0  0  0  0
   -2.7229   -1.7409    0.0000 C   0  0  0  0  0  0  0  0  0  0  0  0
   -1.2261   -1.8388    0.0000 C   0  0  0  0  0  0  0  0  0  0  0  0
   -0.5625   -3.1840    0.0000 O   0  0  0  0  0  0  0  0  0  0  0  0
   -0.3929   -0.5915    0.0000 C   0  0  0  0  0  0  0  0  0  0  0  0
    0.2707   -1.9367    0.0000 C   0  0  0  0  0  0  0  0  0  0  0  0
   -1.0565    0.7538    0.0000 C   0  0  0  0  0  0  0  0  0  0  0  0
   -0.2233    2.0011    0.0000 C   0  0  0  0  0  0  0  0  0  0  0  0
    1.2735    1.9032    0.0000 C   0  0  0  0  0  0  0  0  0  0  0  0
    1.9371    0.5579    0.0000 C   0  0  0  0  0  0  0  0  0  0  0  0
    2.8961    1.7113    0.0000 C   0  0  0  0  0  0  0  0  0  0  0  0
    1.1039   -0.6894    0.0000 C   0  0  0  0  0  0  0  0  0  0  0  0
    2.0327   -1.8672    0.0000 C   0  0  0  0  0  0  0  0  0  0  0  0
    1.6258   -3.3110    0.0000 O   0  0  0  0  0  0  0  0  0  0  0  0
    3.4399   -1.3479    0.0000 C   0  0  0  0  0  0  0  0  0  0  0  0
    3.3808    0.1510    0.0000 C   0  0  0  0  0  0  0  0  0  0  0  0
    4.5587    1.0798    0.0000 C   0  0  0  0  0  0  0  0  0  0  0  0
    5.9520    0.5241    0.0000 C   0  0  0  0  0  0  0  0  0  0  0  0
    6.1674   -0.9603    0.0000 O   0  0  0  0  0  0  0  0  0  0  0  0
    7.1298    1.4529    0.0000 C   0  0  0  0  0  0  0  0  0  0  0  0
    8.5231    0.8973    0.0000 O   0  0  0  0  0  0  0  0  0  0  0  0
  1  2  1  0
  2  3  1  0
  2  4  1  0
  4  5  2  0
  4  6  1  0
  6  7  2  0
  7  8  1  0
  8  9  1  1
  8 10  1  0
 10 11  1  0
 11 12  1  0
 12 13  1  6
 12 14  1  0
 14 15  1  1
 14 16  1  0
 16 17  1  0
 17 18  1  0
 18 19  1  0
 19 20  1  6
 19 21  1  0
 21 22  1  0
 22 23  2  0
 22 24  1  0
 24 25  1  0
 25 26  1  6
 26 27  1  0
 27 28  2  0
 27 29  1  0
 29 30  1  0
 10  2  1  0
 21 14  1  0
 16  8  1  0
 25 19  1  0
M  END
>  <identifier>  (53) 
CNP0331516.1

>  <canonical_smiles>  (53) 
CC1(C)C(=O)C=C[C@@]2(C)C1C[C@@H](O)[C@]1(C)C2CC[C@]2(C)C1C(=O)C[C@H]2CC(=O)CO

>  <standard_inchi>  (53) 
InChI=1S/C25H36O5/c1-22(2)18-12-20(30)25(5)17(24(18,4)9-7-19(22)29)6-8-23(3)14(10-15(27)13-26)11-16(28)21(23)25/h7,9,14,17-18,20-21,26,30H,6,8,10-13H2,1-5H3/t14-,17?,18?,20-,21?,23+,24-,25+/m1/s1

>  <standard_inchi_key>  (53) 
HGMJKTQTXZQERC-CVLJXKBESA-N

>  <name>  (53) 
nan

>  <iupac_name>  (53) 
(7~{R},8~{R},10~{R},13~{S},17~{S})-7-hydroxy-17-(3-hydroxy-2-oxo-propyl)-4,4,8,10,13-pentamethyl-6,7,9,11,12,14,16,17-octahydro-5~{H}-cyclopenta[a]phenanthrene-3,15-dione

>  <annotation_level>  (53) 
4

>  <total_atom_count>  (53) 
66

>  <heavy_atom_count>  (53) 
30

>  <molecular_weight>  (53) 
416.56

>  <exact_molecular_weight>  (53) 
416.25627

>  <molecular_formula>  (53) 
C25H36O5

>  <alogp>  (53) 
3.12

>  <topological_polar_surface_area>  (53) 
91.67

>  <rotatable_bond_count>  (53) 
3

>  <hydrogen_bond_acceptors>  (53) 
5

>  <hydrogen_bond_donors>  (53) 
2

>  <hydrogen_bond_acceptors_lipinski>  (53) 
5

>  <hydrogen_bond_donors_lipinski>  (53) 
2

>  <lipinski_rule_of_five_violations>  (53) 
0

>  <aromatic_rings_count>  (53) 
0

>  <qed_drug_likeliness>  (53) 
0.74

>  <formal_charge>  (53) 
0

>  <fractioncsp3>  (53) 
0.80

>  <number_of_minimal_rings>  (53) 
4

>  <van_der_walls_volume>  (53) 
nan

>  <contains_sugar>  (53) 
False

>  <contains_ring_sugars>  (53) 
False

>  <contains_linear_sugars>  (53) 
False

>  <murcko_framework>  (53) 
C1=CC2C(CC1)CCC3C4CCCC4CCC23

>  <np_likeness>  (53) 
2.86

>  <chemical_class>  (53) 
Steroids and steroid derivatives

>  <chemical_sub_class>  (53) 
Androstane steroids

>  <chemical_super_class>  (53) 
Lipids and lipid-like molecules

>  <direct_parent_classification>  (53) 
Androgens and derivatives

>  <np_classifier_pathway>  (53) 
Terpenoids

>  <np_classifier_superclass>  (53) 
Triterpenoids

>  <np_classifier_class>  (53) 
Apotirucallane triterpenoids

>  <np_classifier_is_glycoside>  (53) 
False

>  <organisms>  (53) 
Trichilia|Trichilia estipulata

>  <collections>  (53) 
Latin America dataset|NuBBEDB|WikiData Natural Products

>  <dois>  (53) 
10.1016/S0031-9422(00)00298-3

>  <synonyms>  (53) 
2124252627-pentanor-1522-oxo-7\u221a\u00e9\u00ac\u00b123-dihydroxy-apotirucalla(eupha)-1-en-3-one

>  <cas>  (53) 
nan

$$$$

     RDKit          2D

 41 45  0  0  0  0  0  0  0  0999 V2000
   -9.1864    0.3175    0.0000 C   0  0  0  0  0  0  0  0  0  0  0  0
   -8.1362   -0.7535    0.0000 O   0  0  0  0  0  0  0  0  0  0  0  0
   -6.6836   -0.3795    0.0000 C   0  0  0  0  0  0  0  0  0  0  0  0
   -6.2812    1.0655    0.0000 C   0  0  0  0  0  0  0  0  0  0  0  0
   -4.8285    1.4395    0.0000 C   0  0  0  0  0  0  0  0  0  0  0  0
   -3.7783    0.3685    0.0000 C   0  0  0  0  0  0  0  0  0  0  0  0
   -4.1807   -1.0765    0.0000 C   0  0  0  0  0  0  0  0  0  0  0  0
   -5.6333   -1.4505    0.0000 C   0  0  0  0  0  0  0  0  0  0  0  0
   -6.0357   -2.8955    0.0000 O   0  0  0  0  0  0  0  0  0  0  0  0
   -3.1305   -2.1475    0.0000 O   0  0  0  0  0  0  0  0  0  0  0  0
   -1.6779   -1.7734    0.0000 C   0  0  0  0  0  0  0  0  0  0  0  0
   -0.6276   -2.8444    0.0000 O   0  0  0  0  0  0  0  0  0  0  0  0
   -1.2755   -0.3284    0.0000 C   0  0  0  0  0  0  0  0  0  0  0  0
    0.1771    0.0456    0.0000 C   0  0  0  0  0  0  0  0  0  0  0  0
    0.5795    1.4906    0.0000 C   0  0  0  0  0  0  0  0  0  0  0  0
    2.0322    1.8647    0.0000 O   0  0  0  0  0  0  0  0  0  0  0  0
    3.0824    0.7937    0.0000 C   0  0  0  0  0  0  0  0  0  0  0  0
    2.6800   -0.6513    0.0000 O   0  0  0  0  0  0  0  0  0  0  0  0
    3.7302   -1.7223    0.0000 C   0  0  0  0  0  0  0  0  0  0  0  0
    3.3278   -3.1674    0.0000 C   0  0  0  0  0  0  0  0  0  0  0  0
    1.8752   -3.5414    0.0000 O   0  0  0  0  0  0  0  0  0  0  0  0
    1.4728   -4.9864    0.0000 C   0  0  0  0  0  0  0  0  0  0  0  0
    0.0202   -5.3604    0.0000 C   0  0  0  0  0  0  0  0  0  0  0  0
    2.5230   -6.0574    0.0000 O   0  0  0  0  0  0  0  0  0  0  0  0
    5.1828   -1.3483    0.0000 C   0  0  0  0  0  0  0  0  0  0  0  0
    6.2331   -2.4193    0.0000 O   0  0  0  0  0  0  0  0  0  0  0  0
    5.5852    0.0967    0.0000 C   0  0  0  0  0  0  0  0  0  0  0  0
    7.0379    0.4707    0.0000 O   0  0  0  0  0  0  0  0  0  0  0  0
    7.4402    1.9158    0.0000 C   0  0  0  0  0  0  0  0  0  0  0  0
    8.8929    2.2898    0.0000 C   0  0  0  0  0  0  0  0  0  0  0  0
    6.3900    2.9867    0.0000 O   0  0  0  0  0  0  0  0  0  0  0  0
    4.5350    1.1677    0.0000 C   0  0  0  0  0  0  0  0  0  0  0  0
    4.9374    2.6127    0.0000 O   0  0  0  0  0  0  0  0  0  0  0  0
   -0.4707    2.5616    0.0000 C   0  0  0  0  0  0  0  0  0  0  0  0
   -0.0683    4.0066    0.0000 O   0  0  0  0  0  0  0  0  0  0  0  0
    1.3843    4.3807    0.0000 C   0  0  0  0  0  0  0  0  0  0  0  0
   -1.9233    2.1876    0.0000 C   0  0  0  0  0  0  0  0  0  0  0  0
   -2.3257    0.7426    0.0000 C   0  0  0  0  0  0  0  0  0  0  0  0
   -2.9735    3.2586    0.0000 O   0  0  0  0  0  0  0  0  0  0  0  0
   -4.4262    2.8846    0.0000 C   0  0  0  0  0  0  0  0  0  0  0  0
   -5.4764    3.9555    0.0000 O   0  0  0  0  0  0  0  0  0  0  0  0
  1  2  1  0
  2  3  1  0
  3  4  2  0
  4  5  1  0
  5  6  2  0
  6  7  1  0
  7  8  2  0
  8  9  1  0
  7 10  1  0
 10 11  1  0
 11 12  2  0
 11 13  1  0
 13 14  2  0
 14 15  1  0
 15 16  1  0
 17 16  1  1
 17 18  1  0
 18 19  1  0
 19 20  1  1
 20 21  1  0
 21 22  1  0
 22 23  1  0
 22 24  2  0
 19 25  1  0
 25 26  1  6
 25 27  1  0
 27 28  1  1
 28 29  1  0
 29 30  1  0
 29 31  2  0
 27 32  1  0
 32 33  1  6
 15 34  2  0
 34 35  1  0
 35 36  1  0
 34 37  1  0
 37 38  2  0
 37 39  1  0
 39 40  1  0
 40 41  2  0
  8  3  1  0
 38 13  1  0
 40  5  1  0
 38  6  1  0
 32 17  1  0
M  END
>  <identifier>  (54) 
CNP0080425.1

>  <canonical_smiles>  (54) 
COC1=CC2=C3C(=C1O)OC(=O)C1=CC(O[C@@H]4O[C@H](COC(C)=O)[C@@H](O)[C@H](OC(C)=O)[C@H]4O)=C(OC)C(=C13)OC2=O

>  <standard_inchi>  (54) 
InChI=1S/C26H24O15/c1-8(27)36-7-14-18(30)23(37-9(2)28)19(31)26(39-14)38-13-6-11-16-15-10(25(33)41-22(16)20(13)35-4)5-12(34-3)17(29)21(15)40-24(11)32/h5-6,14,18-19,23,26,29-31H,7H2,1-4H3/t14-,18-,19-,23+,26-/m1/s1

>  <standard_inchi_key>  (54) 
SAPUSSPVZZIVQM-MXVPEQCNSA-N

>  <name>  (54) 
nan

>  <iupac_name>  (54) 
[(2~{R},3~{R},4~{S},5~{R},6~{S})-4-acetoxy-3,5-dihydroxy-6-[(14-hydroxy-7,13-dimethoxy-3,10-dioxo-2,9-dioxatetracyclo[6.6.2.0^{4,16}.0^{11,15}]hexadeca-1(14),4,6,8(16),11(15),12-hexaen-6-yl)oxy]tetrahydropyran-2-yl]methyl acetate

>  <annotation_level>  (54) 
4

>  <total_atom_count>  (54) 
65

>  <heavy_atom_count>  (54) 
41

>  <molecular_weight>  (54) 
576.46

>  <exact_molecular_weight>  (54) 
576.11152

>  <molecular_formula>  (54) 
C26H24O15

>  <alogp>  (54) 
0.53

>  <topological_polar_surface_area>  (54) 
210.63

>  <rotatable_bond_count>  (54) 
7

>  <hydrogen_bond_acceptors>  (54) 
15

>  <hydrogen_bond_donors>  (54) 
3

>  <hydrogen_bond_acceptors_lipinski>  (54) 
15

>  <hydrogen_bond_donors_lipinski>  (54) 
3

>  <lipinski_rule_of_five_violations>  (54) 
2

>  <aromatic_rings_count>  (54) 
4

>  <qed_drug_likeliness>  (54) 
0.16

>  <formal_charge>  (54) 
0

>  <fractioncsp3>  (54) 
0.39

>  <number_of_minimal_rings>  (54) 
5

>  <van_der_walls_volume>  (54) 
nan

>  <contains_sugar>  (54) 
True

>  <contains_ring_sugars>  (54) 
True

>  <contains_linear_sugars>  (54) 
False

>  <murcko_framework>  (54) 
O1c2cccc3c2-c4c(OC3)cc(OC5OCCCC5)cc4C1

>  <np_likeness>  (54) 
1.86

>  <chemical_class>  (54) 
Tannins

>  <chemical_sub_class>  (54) 
Hydrolyzable tannins

>  <chemical_super_class>  (54) 
Phenylpropanoids and polyketides

>  <direct_parent_classification>  (54) 
Hydrolyzable tannins

>  <np_classifier_pathway>  (54) 
Shikimates and Phenylpropanoids

>  <np_classifier_superclass>  (54) 
Coumarins

>  <np_classifier_class>  (54) 
Isocoumarins

>  <np_classifier_is_glycoside>  (54) 
True

>  <organisms>  (54) 
Siphoneugena densiflora

>  <collections>  (54) 
Latin America dataset|NuBBEDB|WikiData Natural Products|ZINC NP

>  <dois>  (54) 
10.1002/PS.1278|10.1002/ps.1278|10.1590/S0103-50532006000200010

>  <synonyms>  (54) 
34'-di-O-methylellagic acid 4-O-\u221a\u00e9\u00ac\u2264-D-3''6''-di-O-acetylglucopyranoside

>  <cas>  (54) 
nan

$$$$

     RDKit          2D

 19 21  0  0  0  0  0  0  0  0999 V2000
    4.7975   -0.8573    0.0000 C   0  0  0  0  0  0  0  0  0  0  0  0
    4.2974    0.5569    0.0000 O   0  0  0  0  0  0  0  0  0  0  0  0
    2.8226    0.8308    0.0000 C   0  0  0  0  0  0  0  0  0  0  0  0
    2.3225    2.2450    0.0000 C   0  0  0  0  0  0  0  0  0  0  0  0
    0.8477    2.5189    0.0000 C   0  0  0  0  0  0  0  0  0  0  0  0
   -0.1269    1.3787    0.0000 C   0  0  0  0  0  0  0  0  0  0  0  0
   -1.6017    1.6526    0.0000 C   0  0  0  0  0  0  0  0  0  0  0  0
   -2.1019    3.0668    0.0000 O   0  0  0  0  0  0  0  0  0  0  0  0
   -2.5763    0.5124    0.0000 C   0  0  0  0  0  0  0  0  0  0  0  0
   -2.0762   -0.9018    0.0000 C   0  0  0  0  0  0  0  0  0  0  0  0
   -3.2666   -1.8144    0.0000 O   0  0  0  0  0  0  0  0  0  0  0  0
   -4.5024   -0.9643    0.0000 C   0  0  0  0  0  0  0  0  0  0  0  0
   -4.0758    0.4737    0.0000 C   0  0  0  0  0  0  0  0  0  0  0  0
   -0.6014   -1.1757    0.0000 N   0  0  0  0  0  0  0  0  0  0  0  0
   -0.1013   -2.5899    0.0000 C   0  0  0  0  0  0  0  0  0  0  0  0
    0.3732   -0.0355    0.0000 C   0  0  0  0  0  0  0  0  0  0  0  0
    1.8480   -0.3094    0.0000 C   0  0  0  0  0  0  0  0  0  0  0  0
    2.3481   -1.7236    0.0000 O   0  0  0  0  0  0  0  0  0  0  0  0
    1.3735   -2.8638    0.0000 C   0  0  0  0  0  0  0  0  0  0  0  0
  1  2  1  0
  2  3  1  0
  3  4  2  0
  4  5  1  0
  5  6  2  0
  6  7  1  0
  7  8  2  0
  7  9  1  0
  9 10  2  0
 10 11  1  0
 11 12  1  0
 12 13  2  0
 10 14  1  0
 14 15  1  0
 14 16  1  0
 16 17  2  0
 17 18  1  0
 18 19  1  0
 17  3  1  0
 16  6  1  0
 13  9  1  0
M  END
>  <identifier>  (55) 
CNP0184541.0

>  <canonical_smiles>  (55) 
COC1=CC=C2C(=O)C3=C(OC=C3)N(C)C2=C1OC

>  <standard_inchi>  (55) 
InChI=1S/C14H13NO4/c1-15-11-8(4-5-10(17-2)13(11)18-3)12(16)9-6-7-19-14(9)15/h4-7H,1-3H3

>  <standard_inchi_key>  (55) 
LPUGGFROWXFRHP-UHFFFAOYSA-N

>  <name>  (55) 
Isoskimmianine

>  <iupac_name>  (55) 
7,8-dimethoxy-9-methyl-furo[2,3-b]quinolin-4-one

>  <annotation_level>  (55) 
5

>  <total_atom_count>  (55) 
32

>  <heavy_atom_count>  (55) 
19

>  <molecular_weight>  (55) 
259.26

>  <exact_molecular_weight>  (55) 
259.08446

>  <molecular_formula>  (55) 
C14H13NO4

>  <alogp>  (55) 
2.30

>  <topological_polar_surface_area>  (55) 
53.60

>  <rotatable_bond_count>  (55) 
2

>  <hydrogen_bond_acceptors>  (55) 
5

>  <hydrogen_bond_donors>  (55) 
0

>  <hydrogen_bond_acceptors_lipinski>  (55) 
5

>  <hydrogen_bond_donors_lipinski>  (55) 
0

>  <lipinski_rule_of_five_violations>  (55) 
0

>  <aromatic_rings_count>  (55) 
3

>  <qed_drug_likeliness>  (55) 
0.71

>  <formal_charge>  (55) 
0

>  <fractioncsp3>  (55) 
0.21

>  <number_of_minimal_rings>  (55) 
3

>  <van_der_walls_volume>  (55) 
221.83

>  <contains_sugar>  (55) 
False

>  <contains_ring_sugars>  (55) 
False

>  <contains_linear_sugars>  (55) 
False

>  <murcko_framework>  (55) 
o1ccc2c1Nc3ccccc3C2

>  <np_likeness>  (55) 
1.20

>  <chemical_class>  (55) 
Quinolines and derivatives

>  <chemical_sub_class>  (55) 
Furanoquinolines

>  <chemical_super_class>  (55) 
Organoheterocyclic compounds

>  <direct_parent_classification>  (55) 
Furanoquinolines

>  <np_classifier_pathway>  (55) 
Alkaloids

>  <np_classifier_superclass>  (55) 
Tryptophan alkaloids

>  <np_classifier_class>  (55) 
Quinoline alkaloids

>  <np_classifier_is_glycoside>  (55) 
False

>  <organisms>  (55) 
Almeidea rubra|Artemisia austriaca|Chrysolaena propinqua|Daphne blagayana|Digitalis obscura|Erythrina orientalis|Fagara heitzii|Lotus villosus|Mesua elegans|Michelia rajaniana|Onychopetalum amazonicum|Phora atra|Russula subnigricans|Sarcomyxa serotina|Stevia serrata|Umbelopsis vinacea|Vernonia tufnellae|Zanthoxylum heitzii

>  <collections>  (55) 
Australian natural products|CMAUP (cCollective molecular activities of useful plants)|ConMedNP|KNApSaCK|Latin America dataset|NPASS|NuBBEDB|UNPD (Universal Natural Products Database)|WikiData Natural Products

>  <dois>  (55) 
10.1016/J.PHYTOCHEM.2009.08.007|10.1071/ch9630451|10.1590/S0103-50532005000300018

>  <synonyms>  (55) 
7,8-Dimethoxy-9-methylfuro[2,3-b]quinolin-4(9H)-one #|Furo[2,3-b]quinolin-4(9H)-one, 7,8-dimethoxy-9-methyl-|Isoskimmianine|LPUGGFROWXFRHP-UHFFFAOYSA-N|Oprea1_266590

>  <cas>  (55) 
nan

$$$$

     RDKit          2D

 18 19  0  0  0  0  0  0  0  0999 V2000
   -1.5236   -3.4082    0.0000 C   0  0  0  0  0  0  0  0  0  0  0  0
   -1.9257   -1.9632    0.0000 C   0  0  0  0  0  0  0  0  0  0  0  0
   -3.3783   -1.5889    0.0000 C   0  0  0  0  0  0  0  0  0  0  0  0
   -3.7805   -0.1438    0.0000 C   0  0  0  0  0  0  0  0  0  0  0  0
   -2.7300    0.9270    0.0000 C   0  0  0  0  0  0  0  0  0  0  0  0
   -3.1322    2.3721    0.0000 C   0  0  0  0  0  0  0  0  0  0  0  0
   -1.2775    0.5527    0.0000 C   0  0  0  0  0  0  0  0  0  0  0  0
   -0.8753   -0.8923    0.0000 C   0  0  0  0  0  0  0  0  0  0  0  0
    0.5772   -1.2666    0.0000 C   0  0  0  0  0  0  0  0  0  0  0  0
    1.6276   -0.1958    0.0000 C   0  0  0  0  0  0  0  0  0  0  0  0
    3.0802   -0.5701    0.0000 C   0  0  0  0  0  0  0  0  0  0  0  0
    3.4545    0.8825    0.0000 C   0  0  0  0  0  0  0  0  0  0  0  0
    2.7059   -2.0226    0.0000 C   0  0  0  0  0  0  0  0  0  0  0  0
    4.5327   -0.9443    0.0000 O   0  0  0  0  0  0  0  0  0  0  0  0
    1.2255    1.2493    0.0000 C   0  0  0  0  0  0  0  0  0  0  0  0
    2.2759    2.3201    0.0000 O   0  0  0  0  0  0  0  0  0  0  0  0
   -0.2271    1.6236    0.0000 C   0  0  0  0  0  0  0  0  0  0  0  0
   -0.6292    3.0686    0.0000 O   0  0  0  0  0  0  0  0  0  0  0  0
  1  2  1  0
  2  3  2  0
  3  4  1  0
  4  5  2  0
  5  6  1  0
  5  7  1  0
  7  8  2  0
  8  9  1  0
  9 10  1  0
 10 11  1  1
 11 12  1  0
 11 13  1  0
 11 14  1  0
 10 15  1  0
 15 16  1  6
 15 17  1  0
 17 18  2  0
  8  2  1  0
 17  7  1  0
M  END
>  <identifier>  (56) 
CNP0238162.1

>  <canonical_smiles>  (56) 
CC1=CC=C(C)C2=C1C[C@H](C(C)(C)O)[C@@H](O)C2=O

>  <standard_inchi>  (56) 
InChI=1S/C15H20O3/c1-8-5-6-9(2)12-10(8)7-11(15(3,4)18)13(16)14(12)17/h5-6,11,13,16,18H,7H2,1-4H3/t11-,13+/m0/s1

>  <standard_inchi_key>  (56) 
JNGKSECPHZPRSM-WCQYABFASA-N

>  <name>  (56) 
nan

>  <iupac_name>  (56) 
(2~{R},3~{S})-2-hydroxy-3-(1-hydroxy-1-methyl-ethyl)-5,8-dimethyl-tetralin-1-one

>  <annotation_level>  (56) 
4

>  <total_atom_count>  (56) 
38

>  <heavy_atom_count>  (56) 
18

>  <molecular_weight>  (56) 
248.32

>  <exact_molecular_weight>  (56) 
248.14124

>  <molecular_formula>  (56) 
C15H20O3

>  <alogp>  (56) 
1.79

>  <topological_polar_surface_area>  (56) 
57.53

>  <rotatable_bond_count>  (56) 
1

>  <hydrogen_bond_acceptors>  (56) 
3

>  <hydrogen_bond_donors>  (56) 
2

>  <hydrogen_bond_acceptors_lipinski>  (56) 
3

>  <hydrogen_bond_donors_lipinski>  (56) 
2

>  <lipinski_rule_of_five_violations>  (56) 
0

>  <aromatic_rings_count>  (56) 
1

>  <qed_drug_likeliness>  (56) 
0.80

>  <formal_charge>  (56) 
0

>  <fractioncsp3>  (56) 
0.53

>  <number_of_minimal_rings>  (56) 
2

>  <van_der_walls_volume>  (56) 
237.72

>  <contains_sugar>  (56) 
False

>  <contains_ring_sugars>  (56) 
False

>  <contains_linear_sugars>  (56) 
False

>  <murcko_framework>  (56) 
c1ccc2c(c1)CCCC2

>  <np_likeness>  (56) 
1.28

>  <chemical_class>  (56) 
Tetralins

>  <chemical_sub_class>  (56) 
Tetralins

>  <chemical_super_class>  (56) 
Benzenoids

>  <direct_parent_classification>  (56) 
Tetralins

>  <np_classifier_pathway>  (56) 
Terpenoids

>  <np_classifier_superclass>  (56) 
Sesquiterpenoids

>  <np_classifier_class>  (56) 
nan

>  <np_classifier_is_glycoside>  (56) 
False

>  <organisms>  (56) 
Emmotum nitens

>  <collections>  (56) 
KNApSaCK|Latin America dataset|NPEdia|NuBBEDB|Super Natural II|WikiData Natural Products|ZINC NP

>  <dois>  (56) 
10.1016/0031-9422(76)85091-1

>  <synonyms>  (56) 
Emmotin F|Emmotin-F

>  <cas>  (56) 
nan

$$$$

     RDKit          2D

 14 14  0  0  0  0  0  0  0  0999 V2000
   -5.2771    1.1397    0.0000 C   0  0  0  0  0  0  0  0  0  0  0  0
   -4.2491    0.0473    0.0000 C   0  0  0  0  0  0  0  0  0  0  0  0
   -2.7891    0.3914    0.0000 O   0  0  0  0  0  0  0  0  0  0  0  0
   -1.7612   -0.7010    0.0000 C   0  0  0  0  0  0  0  0  0  0  0  0
   -2.1932   -2.1374    0.0000 O   0  0  0  0  0  0  0  0  0  0  0  0
   -0.3012   -0.3570    0.0000 C   0  0  0  0  0  0  0  0  0  0  0  0
    0.1309    1.0795    0.0000 C   0  0  0  0  0  0  0  0  0  0  0  0
    1.5909    1.4235    0.0000 C   0  0  0  0  0  0  0  0  0  0  0  0
    2.0230    2.8599    0.0000 O   0  0  0  0  0  0  0  0  0  0  0  0
    2.6189    0.3311    0.0000 C   0  0  0  0  0  0  0  0  0  0  0  0
    4.0789    0.6752    0.0000 O   0  0  0  0  0  0  0  0  0  0  0  0
    2.1868   -1.1053    0.0000 C   0  0  0  0  0  0  0  0  0  0  0  0
    3.2148   -2.1977    0.0000 O   0  0  0  0  0  0  0  0  0  0  0  0
    0.7268   -1.4493    0.0000 C   0  0  0  0  0  0  0  0  0  0  0  0
  1  2  1  0
  2  3  1  0
  3  4  1  0
  4  5  2  0
  4  6  1  0
  6  7  2  0
  7  8  1  0
  8  9  1  0
  8 10  2  0
 10 11  1  0
 10 12  1  0
 12 13  1  0
 12 14  2  0
 14  6  1  0
M  END
>  <identifier>  (57) 
CNP0276010.0

>  <canonical_smiles>  (57) 
CCOC(=O)C1=CC(O)=C(O)C(O)=C1

>  <standard_inchi>  (57) 
InChI=1S/C9H10O5/c1-2-14-9(13)5-3-6(10)8(12)7(11)4-5/h3-4,10-12H,2H2,1H3

>  <standard_inchi_key>  (57) 
VFPFQHQNJCMNBZ-UHFFFAOYSA-N

>  <name>  (57) 
ETHYL GALLATE

>  <iupac_name>  (57) 
ethyl 3,4,5-trihydroxybenzoate

>  <annotation_level>  (57) 
5

>  <total_atom_count>  (57) 
24

>  <heavy_atom_count>  (57) 
14

>  <molecular_weight>  (57) 
198.17

>  <exact_molecular_weight>  (57) 
198.05282

>  <molecular_formula>  (57) 
C9H10O5

>  <alogp>  (57) 
0.98

>  <topological_polar_surface_area>  (57) 
86.99

>  <rotatable_bond_count>  (57) 
2

>  <hydrogen_bond_acceptors>  (57) 
5

>  <hydrogen_bond_donors>  (57) 
3

>  <hydrogen_bond_acceptors_lipinski>  (57) 
5

>  <hydrogen_bond_donors_lipinski>  (57) 
3

>  <lipinski_rule_of_five_violations>  (57) 
0

>  <aromatic_rings_count>  (57) 
1

>  <qed_drug_likeliness>  (57) 
0.49

>  <formal_charge>  (57) 
0

>  <fractioncsp3>  (57) 
0.22

>  <number_of_minimal_rings>  (57) 
1

>  <van_der_walls_volume>  (57) 
171.54

>  <contains_sugar>  (57) 
False

>  <contains_ring_sugars>  (57) 
False

>  <contains_linear_sugars>  (57) 
False

>  <murcko_framework>  (57) 
c1ccccc1

>  <np_likeness>  (57) 
0.50

>  <chemical_class>  (57) 
Benzene and substituted derivatives

>  <chemical_sub_class>  (57) 
Benzoic acids and derivatives

>  <chemical_super_class>  (57) 
Benzenoids

>  <direct_parent_classification>  (57) 
p-Hydroxybenzoic acid alkyl esters

>  <np_classifier_pathway>  (57) 
Shikimates and Phenylpropanoids

>  <np_classifier_superclass>  (57) 
Phenolic acids (C6-C1)

>  <np_classifier_class>  (57) 
Shikimic acids and derivatives

>  <np_classifier_is_glycoside>  (57) 
False

>  <organisms>  (57) 
Aaptos aaptos|Acacia arabica|Acalypha hispida|Acanthopanax senticosus|Acer ginnala|Acer negundo|Acer oblongum|Acer rubrum|Acer rubrum L.|Acer tataricum subsp. ginnala|Acer truncatum|Aconitum nevadense|Ailanthus altissima|Alchornea glandulosa|Alseodaphne corneri|Ampelopsis Brevipedunculata|Ampelopsis brevipedunculata|Ampelopsis glandulosa var. brevipedunculata|Anacardium occidentale|Annona impressivenia|Archidendron clypearia|Aronia arbutifolia|Aspergillus unguis|Aulacocephalus temmincki|Bersama yangambiensis|Bombax ceiba|Bombax malabaricum|Brassica oleracea var. sabauda|Canarium album|Cashew|Castanea Mollissima|Castanea mollissima|Castanopsis sclerophylla|Celtis reticulosa|Centaurea squarrosa|Clematis angustifolia|Cleome chrysantha|Clibadium mexiae|Conocephalum japonicum|Cordylanthus kingii|Crinipellis scabella|Croton cumingii|Cystophora scalaris|Dimocarpus longan|Discaria serratifolia|Distylium racemosum|Disynaphia halimifolia|Doodia picta|Elaeocarpus tuberculatus|Eleutherococcus senticosus|Entada pervillei|Eragrostis viscosa|Eunicella cavolinii|Euphorbia ebracteolata|Euphorbia ferganensis|Euphorbia fischeriana|Euphorbia maculata|Excoecaria acerifolia|Excoecaria agallocha|Fagara zanthoxyloides|Forsteronia refracta|Fridericia chica|Gleditsia japonica|Gleditsia sinensis|Grewia mollis|Gymnocarpium robertianum|Haematoxylon campechianum|Haematoxylum campechianum|Hamamelis sp.|Heliotropium floridum|Heterotheca grandiflora|Hovenia acerba|Ideopsis similis|Ilex hainanensis|Juglans nigra|Justicia hayatai|Kaempferia marginata|Kaunia saltensis|Kitasatospora mediocidica|Koelreuteria paniculata|Lactarius camphoratus|Limonium axillare|Litsea rotundifolia|Mabea fistulifera|Mangifera indica|Melicope sarcococca|Metagentiana rhodantha|Morus rubra|Mutisia spinosa|Narcissus concolor|Nauclea officinalis|Nephelium lappaceum|Nymphaea alba|Nymphaea caerulea|Ocimum tenuiflorum|Oncoba echinata|Ophiolepis superba|Paeonia anomala|Papilio phorcas|Parabenzoin trilobum|Phyfnnvik eyyfn|Phyllanthus emblica|Phyllanthus sellowianus|Phyllanthus sp.|Phyllanthus urinaria|Pistacia Weinmannifolia|Pistacia mexicana|Pistacia weinmannifolia J.Pisson ex.Franch|Plinia cauliflora|Polycephalomyces nipponicus|Potentilla discolor|Psora corallina|Pteris australis|Pteris dactylina|Pulicaria wightiana|Putranjiva sp.|Pyrostegia venusta|Radix paeoniae rubra|Rana amurensis|Rhodiola crenulata|Rhodiola fastigiata|Rhodiola sacra|Rhus chinensis|Rhus coriaria|Rosa chinensis|Rubrivivax gelatinosus|Rumex chalepensis|Rumex japonicus|Ruta pinnata|Salvia dorrii|Senecio callosus|Sideritis nutans|Sophora angustifolia|Stenomesson miniatum|Stevia polycephala|Streptomyces blastmyceticus|Streptomyces parvisporogenes|Syzygium cumini|Tagetes ercta|Tagetes erecta|Terminalia Chebula|Terminalia arjuna|Terminalia chebula|Terminalia myriocarpa|Terminalia sp.|Teucrium depressum|Thymus piperella|Toona sinensis|Toxicodendron vernicifluum|Trewia nudiflora|Trichilia rubescens|Uncaria guianensis|Viscaria viscosa|Vitis vinifera|Woodfordia uniflora|Xylopia brasiliensis|pomegranate

>  <collections>  (57) 
Australian natural products|CMAUP (cCollective molecular activities of useful plants)|ChEBI NPs|ChemSpider NPs|FooDB|GNPS (Global Natural Products Social Molecular Networking)|KNApSaCK|Latin America dataset|NPACT|NPASS|NPCARE|NuBBEDB|Phenol-explorer|PhytoLab phyproof® Reference Substances|Super Natural II|TCMDB-Taiwan (Traditional Chinese Medicine database)|TCMID (Traditional Chinese Medicine Integrated Database)|TIPdb (database of Taiwan indigenous plants)|UNPD (Universal Natural Products Database)|VietHerb|WikiData Natural Products

>  <dois>  (57) 
10.1002/1099-1573(200008)14:5<371::AID-PTR625>3.0.CO;2-F|10.1002/1521-4184(20008)333:8<275::AID-ARDP275>3.0.CO;2-4|10.1002/HLCA.200490070|10.1002/HLCA.200890222|10.1002/JCCS.200700228|10.1002/PTR.3439|10.1007/BF00579166|10.1007/BF00629791|10.1007/S002109900081|10.1007/S10600-009-9289-Y|10.1007/S10600-010-9543-3|10.1007/S10600-015-1336-2|10.1016/0031-9422(88)83068-1|10.1016/0031-9422(95)00924-8|10.1016/0305-1978(94)90063-9|10.1016/J.BMCL.2011.11.109|10.1016/J.CARRES.2011.04.028|10.1016/J.CHROMA.2019.460472|10.1016/J.FCT.2007.07.003|10.1016/J.FITOTE.2004.01.011|10.1016/J.FITOTE.2009.04.009|10.1016/J.FOODCHEM.2005.02.007|10.1016/J.JEP.2010.11.001|10.1016/S0031-9422(00)85421-7|10.1016/S0031-9422(00)91374-8|10.1016/S0031-9422(98)00667-0|10.1016/S0031-9422(99)00236-8|10.1016/S0378-8741(02)00099-5|10.1016/S0378-8741(96)01421-3|10.1016/s0031-9422(00)85421-7|10.1021/acs.jnatprod.0c00395|10.1021/jf101029a|10.1055/S-0028-1097584|10.1055/S-0028-1097643|10.1055/S-0028-1097868|10.1055/S-0028-1099524|10.1055/S-2002-32549|10.1055/S-2006-957715|10.1055/S-2006-958120|10.1055/S-2006-961558|10.1055/S-2007-969561|10.1055/S-2008-1034328|10.1055/S-2009-1216479|10.1080/1028602021000049087|10.1080/14786410903335232|10.1080/14786419.2010.488625|10.1248/BPB.20.401|10.1248/BPB.31.1626|10.21608/BFSA.2000.66324|10.21608/BFSA.2003.65470|10.3109/09637486.2014.886181|10.3390/MOLECULES15042178|10.4268/CJCMM20141227|10.5246/JCPS.2011.02.019|10.5586/ASBP.1991.011

>  <synonyms>  (57) 
nan

>  <cas>  (57) 
831-61-8

$$$$

     RDKit          2D

 21 23  0  0  0  0  0  0  0  0999 V2000
   -6.3690   -1.2483    0.0000 C   0  0  0  0  0  0  0  0  0  0  0  0
   -5.0266   -1.9176    0.0000 O   0  0  0  0  0  0  0  0  0  0  0  0
   -3.7758   -1.0897    0.0000 C   0  0  0  0  0  0  0  0  0  0  0  0
   -3.8673    0.4075    0.0000 C   0  0  0  0  0  0  0  0  0  0  0  0
   -2.6165    1.2354    0.0000 C   0  0  0  0  0  0  0  0  0  0  0  0
   -2.7081    2.7326    0.0000 C   0  0  0  0  0  0  0  0  0  0  0  0
   -1.2741    0.5661    0.0000 C   0  0  0  0  0  0  0  0  0  0  0  0
   -0.0233    1.3940    0.0000 C   0  0  0  0  0  0  0  0  0  0  0  0
   -0.1149    2.8912    0.0000 O   0  0  0  0  0  0  0  0  0  0  0  0
    1.3191    0.7247    0.0000 C   0  0  0  0  0  0  0  0  0  0  0  0
    2.5699    1.5527    0.0000 C   0  0  0  0  0  0  0  0  0  0  0  0
    2.4784    3.0499    0.0000 O   0  0  0  0  0  0  0  0  0  0  0  0
    3.9123    0.8834    0.0000 C   0  0  0  0  0  0  0  0  0  0  0  0
    4.0039   -0.6138    0.0000 C   0  0  0  0  0  0  0  0  0  0  0  0
    5.3463   -1.2831    0.0000 O   0  0  0  0  0  0  0  0  0  0  0  0
    5.4379   -2.7803    0.0000 C   0  0  0  0  0  0  0  0  0  0  0  0
    2.7531   -1.4417    0.0000 C   0  0  0  0  0  0  0  0  0  0  0  0
    1.4107   -0.7725    0.0000 C   0  0  0  0  0  0  0  0  0  0  0  0
    0.1599   -1.6004    0.0000 O   0  0  0  0  0  0  0  0  0  0  0  0
   -1.1825   -0.9311    0.0000 C   0  0  0  0  0  0  0  0  0  0  0  0
   -2.4334   -1.7590    0.0000 C   0  0  0  0  0  0  0  0  0  0  0  0
  1  2  1  0
  2  3  1  0
  3  4  2  0
  4  5  1  0
  5  6  1  0
  5  7  2  0
  7  8  1  0
  8  9  2  0
  8 10  1  0
 10 11  2  0
 11 12  1  0
 11 13  1  0
 13 14  2  0
 14 15  1  0
 15 16  1  0
 14 17  1  0
 17 18  2  0
 18 19  1  0
 19 20  1  0
 20 21  2  0
 21  3  1  0
 20  7  1  0
 18 10  1  0
M  END
>  <identifier>  (58) 
CNP0277395.0

>  <canonical_smiles>  (58) 
COC1=CC(C)=C2C(=O)C3=C(O)C=C(OC)C=C3OC2=C1

>  <standard_inchi>  (58) 
InChI=1S/C16H14O5/c1-8-4-9(19-2)6-12-14(8)16(18)15-11(17)5-10(20-3)7-13(15)21-12/h4-7,17H,1-3H3

>  <standard_inchi_key>  (58) 
QDLAGTHXVHQKRE-UHFFFAOYSA-N

>  <name>  (58) 
Lichexanthone

>  <iupac_name>  (58) 
1-hydroxy-3,6-dimethoxy-8-methyl-xanthen-9-one

>  <annotation_level>  (58) 
5

>  <total_atom_count>  (58) 
35

>  <heavy_atom_count>  (58) 
21

>  <molecular_weight>  (58) 
286.28

>  <exact_molecular_weight>  (58) 
286.08412

>  <molecular_formula>  (58) 
C16H14O5

>  <alogp>  (58) 
2.98

>  <topological_polar_surface_area>  (58) 
68.90

>  <rotatable_bond_count>  (58) 
2

>  <hydrogen_bond_acceptors>  (58) 
5

>  <hydrogen_bond_donors>  (58) 
1

>  <hydrogen_bond_acceptors_lipinski>  (58) 
5

>  <hydrogen_bond_donors_lipinski>  (58) 
1

>  <lipinski_rule_of_five_violations>  (58) 
0

>  <aromatic_rings_count>  (58) 
3

>  <qed_drug_likeliness>  (58) 
0.73

>  <formal_charge>  (58) 
0

>  <fractioncsp3>  (58) 
0.19

>  <number_of_minimal_rings>  (58) 
3

>  <van_der_walls_volume>  (58) 
243.62

>  <contains_sugar>  (58) 
False

>  <contains_ring_sugars>  (58) 
False

>  <contains_linear_sugars>  (58) 
False

>  <murcko_framework>  (58) 
O1c2ccccc2Cc3ccccc13

>  <np_likeness>  (58) 
0.88

>  <chemical_class>  (58) 
Benzopyrans

>  <chemical_sub_class>  (58) 
1-benzopyrans

>  <chemical_super_class>  (58) 
Organoheterocyclic compounds

>  <direct_parent_classification>  (58) 
Xanthones

>  <np_classifier_pathway>  (58) 
Polyketides

>  <np_classifier_superclass>  (58) 
Xanthones

>  <np_classifier_class>  (58) 
Methyl xanthones

>  <np_classifier_is_glycoside>  (58) 
False

>  <organisms>  (58) 
Agathis lanceolata|Anthocleista djalonensis|Aspidosperma formosanum|Briareum asbestinum|Croton cuneatus|Cupania cinerea|Cystoseira barbatula|Dialium excelsum|Dracaena concinna|Eminium lehmannii|Faramea occidentalis|Flindersia amboinensis|Guatteria blepharophylla|Gustavia hexapetala|Henriettea fascicularis|Henriettella fascicularis|Inga punctata|Isodon amethystoides|Jatropha mahafalensis|Karenia mikimotoi|Laurencia saitoi|Liparis keitaoensis|Minquartia guianensis|Mucor spinosus|Nectandra turbacensis|Neolitsea pulchella|Ophiorrhiza kuroiwae|Oriciopsis glaberrima|Parmelia formosana|Parmotrema lichexanthonicum|Parmotrema reticulatum|Parmotrema tinctorum|Penicillium diversum|Pertusaria sulphurata|Physalis coztomatl|Polyscias fulva|Pseudocyphellaria hirsuta|Pyxine berteriana|Rauvolfia mattfeldiana|Rhizophora mucronata|Ruprechtia tangarana|Salvia amplexicaulis|Sibthorpia europaea|Stachyurus praecox|Stevia pilosa|Talaromyces diversus|Ursinia anethoides|Vepris glaberrima|Vigna angularis|Wikstroemia lanceolata|Zanthoxylum rhoifolium|Zanthoxylum tetraspermum

>  <collections>  (58) 
Australian natural products|BIOFACQUIM|CMAUP (cCollective molecular activities of useful plants)|ChEBI NPs|ConMedNP|GNPS (Global Natural Products Social Molecular Networking)|KNApSaCK|Latin America dataset|Marine Natural Products|NPASS|NPEdia|NuBBEDB|Super Natural II|UNPD (Universal Natural Products Database)|WikiData Natural Products|ZINC NP|p-ANAPL

>  <dois>  (58) 
10.1016/J.BSE.2003.10.008|10.1016/J.PHYMED.2009.07.018|10.1016/J.PHYTOCHEM.2005.09.031|10.1016/S0031-9422(00)00402-7|10.1016/S0031-9422(00)80719-0|10.1016/S0031-9422(00)81525-3|10.1016/S0031-9422(00)84426-X|10.1016/S0031-9422(00)94841-6|10.1016/S0031-9422(00)97499-5|10.1016/S0031-9422(00)97907-X|10.1021/JF1049613|10.1021/NP0001326|10.1021/NP0201164|10.1021/NP0300986|10.1021/NP030509I|10.1021/NP030509I.S001|10.1021/NP100415M|10.1021/NP50005A010|10.1021/NP900442Y|10.1021/np0001326|10.1021/np0300986|10.1021/np030509i|10.1021/np100415m|10.1039/P19830001365|10.1055/S-2004-815540|10.1080/14786410310001622004|10.1248/CPB.C12-00739|10.1515/ZNB-2011-0610|10.1590/S0103-50531998000100016|10.1590/S0103-50532011000600016

>  <synonyms>  (58) 
1-Hydroxy-3,6-dimethoxy-8-methyl-9H-xanthen-9-one|1-hydroxy-3,6-dimethoxy-8-methylxanthone|15222-53-4|92O5D9Z07W|CHEBI:67821|CHEMBL470650|DTXSID80164977|DivK1c_006167|KBio1_001111|LICHEXANTHONE B804322K045|Lichexanthone|NS00134237|NSC-288657|Q27136297|QDLAGTHXVHQKRE-UHFFFAOYSA-N|SCHEMBL4272316|SpecPlus_000071|Spectrum5_001811|UNII-92O5D9Z07W|Xanthen-9-one, 1-hydroxy-3,6-dimethoxy-8-methyl-|Xanthen-9-one,6-dimethoxy-8-methyl-|lichenxanthone

>  <cas>  (58) 
15222-53-4

$$$$

     RDKit          2D

 22 24  0  0  0  0  0  0  0  0999 V2000
   -5.2171   -1.4160    0.0000 C   0  0  0  0  0  0  0  0  0  0  0  0
   -3.7212   -1.5273    0.0000 C   0  0  0  0  0  0  0  0  0  0  0  0
   -2.8769   -0.2874    0.0000 C   0  0  0  0  0  0  0  0  0  0  0  0
   -3.5285    1.0636    0.0000 C   0  0  0  0  0  0  0  0  0  0  0  0
   -5.0244    1.1749    0.0000 C   0  0  0  0  0  0  0  0  0  0  0  0
   -2.6842    2.3035    0.0000 C   0  0  0  0  0  0  0  0  0  0  0  0
   -1.1884    2.1922    0.0000 C   0  0  0  0  0  0  0  0  0  0  0  0
   -0.5368    0.8412    0.0000 C   0  0  0  0  0  0  0  0  0  0  0  0
   -1.3811   -0.3987    0.0000 C   0  0  0  0  0  0  0  0  0  0  0  0
   -0.7295   -1.7498    0.0000 C   0  0  0  0  0  0  0  0  0  0  0  0
   -1.5737   -2.9896    0.0000 O   0  0  0  0  0  0  0  0  0  0  0  0
    0.7664   -1.8610    0.0000 C   0  0  0  0  0  0  0  0  0  0  0  0
    1.6107   -0.6212    0.0000 C   0  0  0  0  0  0  0  0  0  0  0  0
    3.1066   -0.7324    0.0000 C   0  0  0  0  0  0  0  0  0  0  0  0
    4.4742   -1.3486    0.0000 C   0  0  0  0  0  0  0  0  0  0  0  0
    2.7372   -2.1862    0.0000 C   0  0  0  0  0  0  0  0  0  0  0  0
    3.9508    0.5074    0.0000 C   0  0  0  0  0  0  0  0  0  0  0  0
    5.4467    0.3962    0.0000 O   0  0  0  0  0  0  0  0  0  0  0  0
    3.2992    1.8585    0.0000 C   0  0  0  0  0  0  0  0  0  0  0  0
    1.8034    1.9698    0.0000 C   0  0  0  0  0  0  0  0  0  0  0  0
    0.9591    0.7299    0.0000 C   0  0  0  0  0  0  0  0  0  0  0  0
    0.3075    2.0810    0.0000 C   0  0  0  0  0  0  0  0  0  0  0  0
  1  2  1  0
  2  3  1  0
  3  4  2  0
  4  5  1  0
  4  6  1  0
  6  7  2  0
  7  8  1  0
  8  9  2  0
  9 10  1  0
 10 11  2  0
 10 12  1  0
 12 13  1  0
 13 14  1  0
 14 15  1  0
 14 16  1  0
 14 17  1  0
 17 18  2  0
 17 19  1  0
 19 20  1  0
 20 21  1  0
 21 22  1  6
  9  3  1  0
 21 13  1  0
 21  8  1  0
M  END
>  <identifier>  (59) 
CNP0332370.1

>  <canonical_smiles>  (59) 
CCC1=C(C)C=CC2=C1C(=O)CC1C(C)(C)C(=O)CC[C@]21C

>  <standard_inchi>  (59) 
InChI=1S/C20H26O2/c1-6-13-12(2)7-8-14-18(13)15(21)11-16-19(3,4)17(22)9-10-20(14,16)5/h7-8,16H,6,9-11H2,1-5H3/t16?,20-/m1/s1

>  <standard_inchi_key>  (59) 
UXGFDGDPHNRIBO-OTOKDRCRSA-N

>  <name>  (59) 
nan

>  <iupac_name>  (59) 
(4~{a}~{S})-8-ethyl-1,1,4~{a},7-tetramethyl-3,4,10,10~{a}-tetrahydrophenanthrene-2,9-dione

>  <annotation_level>  (59) 
4

>  <total_atom_count>  (59) 
48

>  <heavy_atom_count>  (59) 
22

>  <molecular_weight>  (59) 
298.43

>  <exact_molecular_weight>  (59) 
298.19328

>  <molecular_formula>  (59) 
C20H26O2

>  <alogp>  (59) 
4.41

>  <topological_polar_surface_area>  (59) 
34.14

>  <rotatable_bond_count>  (59) 
1

>  <hydrogen_bond_acceptors>  (59) 
2

>  <hydrogen_bond_donors>  (59) 
0

>  <hydrogen_bond_acceptors_lipinski>  (59) 
2

>  <hydrogen_bond_donors_lipinski>  (59) 
0

>  <lipinski_rule_of_five_violations>  (59) 
0

>  <aromatic_rings_count>  (59) 
1

>  <qed_drug_likeliness>  (59) 
0.77

>  <formal_charge>  (59) 
0

>  <fractioncsp3>  (59) 
0.60

>  <number_of_minimal_rings>  (59) 
3

>  <van_der_walls_volume>  (59) 
nan

>  <contains_sugar>  (59) 
False

>  <contains_ring_sugars>  (59) 
False

>  <contains_linear_sugars>  (59) 
False

>  <murcko_framework>  (59) 
c1ccc2c(c1)CCC3CCCCC23

>  <np_likeness>  (59) 
2.01

>  <chemical_class>  (59) 
Prenol lipids

>  <chemical_sub_class>  (59) 
Diterpenoids

>  <chemical_super_class>  (59) 
Lipids and lipid-like molecules

>  <direct_parent_classification>  (59) 
Diterpenoids

>  <np_classifier_pathway>  (59) 
Terpenoids

>  <np_classifier_superclass>  (59) 
Diterpenoids

>  <np_classifier_class>  (59) 
Cleistanthane diterpenoids

>  <np_classifier_is_glycoside>  (59) 
False

>  <organisms>  (59) 
Vellozia piresiana

>  <collections>  (59) 
Latin America dataset|NuBBEDB

>  <dois>  (59) 
10.1016/S0031-9422(00)80444-6

>  <synonyms>  (59) 
81113-Cleistanthatrien-37-dione

>  <cas>  (59) 
nan

$$$$

     RDKit          2D

 16 15  0  0  0  0  0  0  0  0999 V2000
   -9.7451   -0.3086    0.0000 C   0  0  0  0  0  0  0  0  0  0  0  0
   -8.4410    0.4326    0.0000 O   0  0  0  0  0  0  0  0  0  0  0  0
   -7.1471   -0.3263    0.0000 O   0  0  0  0  0  0  0  0  0  0  0  0
   -5.8430    0.4149    0.0000 C   0  0  0  0  0  0  0  0  0  0  0  0
   -4.5491   -0.3440    0.0000 C   0  0  0  0  0  0  0  0  0  0  0  0
   -3.2450    0.3971    0.0000 C   0  0  0  0  0  0  0  0  0  0  0  0
   -1.9511   -0.3617    0.0000 C   0  0  0  0  0  0  0  0  0  0  0  0
   -0.6469    0.3794    0.0000 C   0  0  0  0  0  0  0  0  0  0  0  0
    0.6469   -0.3794    0.0000 C   0  0  0  0  0  0  0  0  0  0  0  0
    1.9511    0.3617    0.0000 C   0  0  0  0  0  0  0  0  0  0  0  0
    3.2450   -0.3971    0.0000 C   0  0  0  0  0  0  0  0  0  0  0  0
    4.5491    0.3440    0.0000 C   0  0  0  0  0  0  0  0  0  0  0  0
    5.8430   -0.4149    0.0000 C   0  0  0  0  0  0  0  0  0  0  0  0
    7.1471    0.3263    0.0000 O   0  0  0  0  0  0  0  0  0  0  0  0
    8.4410   -0.4326    0.0000 O   0  0  0  0  0  0  0  0  0  0  0  0
    9.7451    0.3086    0.0000 C   0  0  0  0  0  0  0  0  0  0  0  0
  1  2  1  0
  2  3  1  0
  3  4  1  0
  4  5  1  0
  5  6  1  0
  6  7  1  0
  7  8  1  0
  8  9  1  0
  9 10  1  0
 10 11  1  0
 11 12  1  0
 12 13  1  0
 13 14  1  0
 14 15  1  0
 15 16  1  0
M  END
>  <identifier>  (60) 
CNP0080382.0

>  <canonical_smiles>  (60) 
COOCCCCCCCCCCOOC

>  <standard_inchi>  (60) 
InChI=1S/C12H26O4/c1-13-15-11-9-7-5-3-4-6-8-10-12-16-14-2/h3-12H2,1-2H3

>  <standard_inchi_key>  (60) 
ZVZFKAXIDPEZML-UHFFFAOYSA-N

>  <name>  (60) 
nan

>  <iupac_name>  (60) 
1,10-bis(methylperoxy)decane

>  <annotation_level>  (60) 
4

>  <total_atom_count>  (60) 
42

>  <heavy_atom_count>  (60) 
16

>  <molecular_weight>  (60) 
234.34

>  <exact_molecular_weight>  (60) 
234.18311

>  <molecular_formula>  (60) 
C12H26O4

>  <alogp>  (60) 
3.26

>  <topological_polar_surface_area>  (60) 
36.92

>  <rotatable_bond_count>  (60) 
13

>  <hydrogen_bond_acceptors>  (60) 
4

>  <hydrogen_bond_donors>  (60) 
0

>  <hydrogen_bond_acceptors_lipinski>  (60) 
4

>  <hydrogen_bond_donors_lipinski>  (60) 
0

>  <lipinski_rule_of_five_violations>  (60) 
0

>  <aromatic_rings_count>  (60) 
0

>  <qed_drug_likeliness>  (60) 
0.28

>  <formal_charge>  (60) 
0

>  <fractioncsp3>  (60) 
1.00

>  <number_of_minimal_rings>  (60) 
0

>  <van_der_walls_volume>  (60) 
nan

>  <contains_sugar>  (60) 
False

>  <contains_ring_sugars>  (60) 
False

>  <contains_linear_sugars>  (60) 
False

>  <murcko_framework>  (60) 
nan

>  <np_likeness>  (60) 
0.67

>  <chemical_class>  (60) 
Organic oxides

>  <chemical_sub_class>  (60) 
Organic peroxides

>  <chemical_super_class>  (60) 
Organic oxygen compounds

>  <direct_parent_classification>  (60) 
Dialkyl peroxides

>  <np_classifier_pathway>  (60) 
Fatty acids

>  <np_classifier_superclass>  (60) 
Fatty Acids and Conjugates

>  <np_classifier_class>  (60) 
Hydroperoxy fatty acids

>  <np_classifier_is_glycoside>  (60) 
False

>  <organisms>  (60) 
Nectandra rubra|Sextonia rubra

>  <collections>  (60) 
Latin America dataset|NuBBEDB|WikiData Natural Products|ZINC NP

>  <dois>  (60) 
10.1016/S0031-9422(00)86797-7

>  <synonyms>  (60) 
dimethyl sebacate

>  <cas>  (60) 
nan

$$$$

     RDKit          2D

 23 27  0  0  0  0  0  0  0  0999 V2000
   -4.5277    0.0737    0.0000 C   0  0  0  0  0  0  0  0  0  0  0  0
   -3.0298    0.1525    0.0000 O   0  0  0  0  0  0  0  0  0  0  0  0
   -2.2126   -1.1054    0.0000 C   0  0  0  0  0  0  0  0  0  0  0  0
   -2.8933   -2.4420    0.0000 C   0  0  0  0  0  0  0  0  0  0  0  0
   -2.0761   -3.6999    0.0000 C   0  0  0  0  0  0  0  0  0  0  0  0
   -0.5782   -3.6211    0.0000 C   0  0  0  0  0  0  0  0  0  0  0  0
    0.1025   -2.2845    0.0000 C   0  0  0  0  0  0  0  0  0  0  0  0
   -0.7147   -1.0266    0.0000 C   0  0  0  0  0  0  0  0  0  0  0  0
   -0.0339    0.3100    0.0000 C   0  0  0  0  0  0  0  0  0  0  0  0
   -0.8511    1.5679    0.0000 C   0  0  0  0  0  0  0  0  0  0  0  0
   -2.3327    1.8023    0.0000 O   0  0  0  0  0  0  0  0  0  0  0  0
   -2.5677    3.2837    0.0000 C   0  0  0  0  0  0  0  0  0  0  0  0
   -1.2313    3.9650    0.0000 O   0  0  0  0  0  0  0  0  0  0  0  0
   -0.1704    2.9045    0.0000 C   0  0  0  0  0  0  0  0  0  0  0  0
    1.3275    2.9833    0.0000 C   0  0  0  0  0  0  0  0  0  0  0  0
    2.1447    1.7255    0.0000 C   0  0  0  0  0  0  0  0  0  0  0  0
    3.6426    1.8043    0.0000 C   0  0  0  0  0  0  0  0  0  0  0  0
    4.4598    0.5464    0.0000 C   0  0  0  0  0  0  0  0  0  0  0  0
    3.7791   -0.7902    0.0000 N   0  0  0  0  0  0  0  0  0  0  0  0
    2.2812   -0.8690    0.0000 C   0  0  0  0  0  0  0  0  0  0  0  0
    1.4640    0.3888    0.0000 C   0  0  0  0  0  0  0  0  0  0  0  0
    1.6005   -2.2057    0.0000 C   0  0  0  0  0  0  0  0  0  0  0  0
    2.4177   -3.4635    0.0000 O   0  0  0  0  0  0  0  0  0  0  0  0
  1  2  1  0
  2  3  1  0
  3  4  2  0
  4  5  1  0
  5  6  2  0
  6  7  1  0
  7  8  2  0
  8  9  1  0
  9 10  2  0
 10 11  1  0
 11 12  1  0
 12 13  1  0
 13 14  1  0
 14 15  2  0
 15 16  1  0
 16 17  2  0
 17 18  1  0
 18 19  2  0
 19 20  1  0
 20 21  2  0
 20 22  1  0
 22 23  2  0
  8  3  1  0
 21  9  1  0
 22  7  1  0
 14 10  1  0
 21 16  1  0
M  END
>  <identifier>  (61) 
CNP0323563.0

>  <canonical_smiles>  (61) 
COC1=CC=CC2=C1C1=C3OCOC3=CC3=CC=NC(=C13)C2=O

>  <standard_inchi>  (61) 
InChI=1S/C18H11NO4/c1-21-11-4-2-3-10-14(11)15-13-9(5-6-19-16(13)17(10)20)7-12-18(15)23-8-22-12/h2-7H,8H2,1H3

>  <standard_inchi_key>  (61) 
LENYISKFJJQKGE-UHFFFAOYSA-N

>  <name>  (61) 
12-methoxy-8H-benzo[g][1,3]benzodioxolo[6,5,4-de]quinolin-8-one

>  <iupac_name>  (61) 
18-methoxy-3,5-dioxa-11-azapentacyclo[10.7.1.0^{2,6}.0^{8,20}.0^{14,19}]icosa-1,6,8,10,12(20),14(19),15,17-octaen-13-one

>  <annotation_level>  (61) 
5

>  <total_atom_count>  (61) 
34

>  <heavy_atom_count>  (61) 
23

>  <molecular_weight>  (61) 
305.29

>  <exact_molecular_weight>  (61) 
305.06881

>  <molecular_formula>  (61) 
C18H11NO4

>  <alogp>  (61) 
3.18

>  <topological_polar_surface_area>  (61) 
57.65

>  <rotatable_bond_count>  (61) 
1

>  <hydrogen_bond_acceptors>  (61) 
5

>  <hydrogen_bond_donors>  (61) 
0

>  <hydrogen_bond_acceptors_lipinski>  (61) 
5

>  <hydrogen_bond_donors_lipinski>  (61) 
0

>  <lipinski_rule_of_five_violations>  (61) 
0

>  <aromatic_rings_count>  (61) 
3

>  <qed_drug_likeliness>  (61) 
0.54

>  <formal_charge>  (61) 
0

>  <fractioncsp3>  (61) 
0.11

>  <number_of_minimal_rings>  (61) 
5

>  <van_der_walls_volume>  (61) 
248.61

>  <contains_sugar>  (61) 
False

>  <contains_ring_sugars>  (61) 
False

>  <contains_linear_sugars>  (61) 
False

>  <murcko_framework>  (61) 
n1ccc2cc3OCOc3c4-c5ccccc5Cc1c24

>  <np_likeness>  (61) 
1.14

>  <chemical_class>  (61) 
Aporphines

>  <chemical_sub_class>  (61) 
Aporphines

>  <chemical_super_class>  (61) 
Alkaloids and derivatives

>  <direct_parent_classification>  (61) 
Aporphines

>  <np_classifier_pathway>  (61) 
Alkaloids

>  <np_classifier_superclass>  (61) 
Tyrosine alkaloids

>  <np_classifier_class>  (61) 
Aporphine alkaloids

>  <np_classifier_is_glycoside>  (61) 
False

>  <organisms>  (61) 
Abies magnifica|Corydalis sheareri|Duguetia eximia|Garcinia brasiliensis|Guatteria maypurensis|Guatteria punctata|Guatteria sagotiana|Laurelia novae-zelandiae|Mahonia manipurensis|Millettia taiwaniana|Mitrephora maingayi|Mitrephora teysmannii|Mitrephora thorelii|Mitrephora tomentosa|Mitrephora vulpina|Scenedesmus acutus|Stephania excentrica|Stephania excentrica H.S.Lo

>  <collections>  (61) 
KNApSaCK|Latin America dataset|NPASS|NuBBEDB|Super Natural II|UNPD (Universal Natural Products Database)|WikiData Natural Products|ZINC NP

>  <dois>  (61) 
10.1002/HLCA.200890109|10.1016/0031-9422(82)83185-3|10.1016/J.BSE.2007.01.011|10.1016/S0031-9422(00)94260-2|10.1016/S0367-326X(98)00011-2|10.1021/NP50048A018|10.1021/NP960371M|10.1080/10575639308043823|10.3390/MOLECULES15117840

>  <synonyms>  (61) 
8H-benzo[g]-1,3-benzodioxolo[6,5,4-de]quinolin-8-one, 12-methoxy-|InChI=1\/C18H11NO4\/c1-21-11-4-2-3-10-14(11)15-13-9(5-6-19-16(13)17(10)20)7-12-18(15)23-8-22-12\/h2-7H,8H2,1H|Oxo-O-methylpukateine, 11-methoxy-12-methylenedioxyoxoaprophine|Oxoputerine

>  <cas>  (61) 
nan

$$$$

     RDKit          2D

 22 25  0  0  0  0  0  0  0  0999 V2000
   -3.5074    0.1800    0.0000 C   0  0  0  0  0  0  0  0  0  0  0  0
   -2.4885   -0.9209    0.0000 C   0  0  0  0  0  0  0  0  0  0  0  0
   -2.7803   -2.3922    0.0000 C   0  0  0  0  0  0  0  0  0  0  0  0
   -4.1421   -3.0210    0.0000 O   0  0  0  0  0  0  0  0  0  0  0  0
   -1.4711   -3.1244    0.0000 O   0  0  0  0  0  0  0  0  0  0  0  0
   -0.3702   -2.1055    0.0000 C   0  0  0  0  0  0  0  0  0  0  0  0
    1.1236   -2.2419    0.0000 C   0  0  0  0  0  0  0  0  0  0  0  0
    1.9886   -1.0164    0.0000 C   0  0  0  0  0  0  0  0  0  0  0  0
    3.4824   -1.1527    0.0000 C   0  0  0  0  0  0  0  0  0  0  0  0
    4.1112   -2.5146    0.0000 O   0  0  0  0  0  0  0  0  0  0  0  0
    4.3473    0.0727    0.0000 C   0  0  0  0  0  0  0  0  0  0  0  0
    3.7185    1.4346    0.0000 C   0  0  0  0  0  0  0  0  0  0  0  0
    2.2247    1.5709    0.0000 C   0  0  0  0  0  0  0  0  0  0  0  0
    1.3598    0.3455    0.0000 C   0  0  0  0  0  0  0  0  0  0  0  0
   -0.1340    0.4818    0.0000 C   0  0  0  0  0  0  0  0  0  0  0  0
    0.7310    1.7073    0.0000 C   0  0  0  0  0  0  0  0  0  0  0  0
    0.1022    3.0691    0.0000 C   0  0  0  0  0  0  0  0  0  0  0  0
   -1.3916    3.2055    0.0000 C   0  0  0  0  0  0  0  0  0  0  0  0
   -2.0204    4.5673    0.0000 O   0  0  0  0  0  0  0  0  0  0  0  0
   -2.2566    1.9800    0.0000 O   0  0  0  0  0  0  0  0  0  0  0  0
   -1.6278    0.6182    0.0000 C   0  0  0  0  0  0  0  0  0  0  0  0
   -0.9990   -0.7437    0.0000 C   0  0  0  0  0  0  0  0  0  0  0  0
  2  1  1  6
  2  3  1  0
  3  4  2  0
  3  5  1  0
  5  6  1  0
  6  7  1  1
  8  7  1  6
  8  9  1  0
  9 10  1  6
  9 11  1  0
 11 12  1  0
 12 13  1  0
 14 13  1  1
 14 15  1  0
 15 16  1  6
 16 17  1  0
 17 18  1  0
 18 19  2  0
 18 20  1  0
 20 21  1  0
 15 22  1  0
 22  2  1  1
 22  6  1  0
 14  8  1  0
 21 15  1  0
M  END
>  <identifier>  (62) 
CNP0102231.1

>  <canonical_smiles>  (62) 
C[C@H]1C(=O)O[C@@H]2C[C@H]3[C@@H](O)CCC[C@@H]3[C@@]3(CCC(=O)OC3)[C@@H]21

>  <standard_inchi>  (62) 
InChI=1S/C17H24O5/c1-9-15-13(22-16(9)20)7-10-11(3-2-4-12(10)18)17(15)6-5-14(19)21-8-17/h9-13,15,18H,2-8H2,1H3/t9-,10-,11+,12+,13-,15-,17+/m1/s1

>  <standard_inchi_key>  (62) 
FQIJIXDHDJNSIE-KVSRASOQSA-N

>  <name>  (62) 
nan

>  <iupac_name>  (62) 
(3~{R},3~{a}~{S},4~{S},4~{a}~{S},8~{S},8~{a}~{R},9~{a}~{R})-8-hydroxy-3-methyl-spiro[3,3~{a},4~{a},5,6,7,8,8~{a},9,9~{a}-decahydrobenzo[f]benzofuran-4,5'-tetrahydropyran]-2,2'-dione

>  <annotation_level>  (62) 
3

>  <total_atom_count>  (62) 
46

>  <heavy_atom_count>  (62) 
22

>  <molecular_weight>  (62) 
308.37

>  <exact_molecular_weight>  (62) 
308.16237

>  <molecular_formula>  (62) 
C17H24O5

>  <alogp>  (62) 
1.67

>  <topological_polar_surface_area>  (62) 
72.83

>  <rotatable_bond_count>  (62) 
0

>  <hydrogen_bond_acceptors>  (62) 
5

>  <hydrogen_bond_donors>  (62) 
1

>  <hydrogen_bond_acceptors_lipinski>  (62) 
5

>  <hydrogen_bond_donors_lipinski>  (62) 
1

>  <lipinski_rule_of_five_violations>  (62) 
0

>  <aromatic_rings_count>  (62) 
0

>  <qed_drug_likeliness>  (62) 
0.69

>  <formal_charge>  (62) 
0

>  <fractioncsp3>  (62) 
0.88

>  <number_of_minimal_rings>  (62) 
4

>  <van_der_walls_volume>  (62) 
nan

>  <contains_sugar>  (62) 
False

>  <contains_ring_sugars>  (62) 
False

>  <contains_linear_sugars>  (62) 
False

>  <murcko_framework>  (62) 
O1CCCC2(C1)C3CCOC3CC4CCCCC42

>  <np_likeness>  (62) 
2.99

>  <chemical_class>  (62) 
Naphthofurans

>  <chemical_sub_class>  (62) 
Naphthofurans

>  <chemical_super_class>  (62) 
Organoheterocyclic compounds

>  <direct_parent_classification>  (62) 
Naphthofurans

>  <np_classifier_pathway>  (62) 
nan

>  <np_classifier_superclass>  (62) 
nan

>  <np_classifier_class>  (62) 
nan

>  <np_classifier_is_glycoside>  (62) 
False

>  <organisms>  (62) 
Casimirella rupestris|Humirianthera rupestris

>  <collections>  (62) 
Latin America dataset|NuBBEDB|WikiData Natural Products

>  <dois>  (62) 
10.1016/S0031-9422(00)98552-2

>  <synonyms>  (62) 
nan

>  <cas>  (62) 
nan

$$$$

     RDKit          2D

 22 23  0  0  0  0  0  0  0  0999 V2000
    4.2004   -2.2021    0.0000 C   0  0  0  0  0  0  0  0  0  0  0  0
    2.7517   -1.8130    0.0000 C   0  0  0  0  0  0  0  0  0  0  0  0
    1.6904   -2.8731    0.0000 C   0  0  0  0  0  0  0  0  0  0  0  0
    0.2418   -2.4840    0.0000 C   0  0  0  0  0  0  0  0  0  0  0  0
   -0.8195   -3.5441    0.0000 O   0  0  0  0  0  0  0  0  0  0  0  0
   -0.1456   -1.0349    0.0000 C   0  0  0  0  0  0  0  0  0  0  0  0
    0.9156    0.0251    0.0000 C   0  0  0  0  0  0  0  0  0  0  0  0
    0.5282    1.4742    0.0000 C   0  0  0  0  0  0  0  0  0  0  0  0
   -0.3314    2.7035    0.0000 C   0  0  0  0  0  0  0  0  0  0  0  0
   -0.8316    0.8411    0.0000 C   0  0  0  0  0  0  0  0  0  0  0  0
   -2.0598    1.7022    0.0000 C   0  0  0  0  0  0  0  0  0  0  0  0
   -3.4197    1.0690    0.0000 C   0  0  0  0  0  0  0  0  0  0  0  0
   -4.6479    1.9301    0.0000 C   0  0  0  0  0  0  0  0  0  0  0  0
   -3.5512   -0.4252    0.0000 C   0  0  0  0  0  0  0  0  0  0  0  0
   -4.9111   -1.0584    0.0000 C   0  0  0  0  0  0  0  0  0  0  0  0
   -5.0427   -2.5526    0.0000 O   0  0  0  0  0  0  0  0  0  0  0  0
    1.5895    2.5343    0.0000 C   0  0  0  0  0  0  0  0  0  0  0  0
    1.2021    3.9834    0.0000 C   0  0  0  0  0  0  0  0  0  0  0  0
    3.0381    2.1452    0.0000 C   0  0  0  0  0  0  0  0  0  0  0  0
    3.4256    0.6961    0.0000 C   0  0  0  0  0  0  0  0  0  0  0  0
    2.3643   -0.3639    0.0000 C   0  0  0  0  0  0  0  0  0  0  0  0
    3.8130   -0.7530    0.0000 C   0  0  0  0  0  0  0  0  0  0  0  0
  1  2  1  0
  2  3  2  0
  3  4  1  0
  4  5  2  0
  4  6  1  0
  7  6  1  1
  7  8  1  0
  8  9  1  1
  8 10  1  0
 10 11  1  0
 11 12  1  0
 12 13  1  0
 12 14  1  0
 14 15  1  0
 15 16  1  0
  8 17  1  0
 17 18  1  1
 17 19  1  0
 19 20  1  0
 20 21  1  0
 21 22  1  6
 21  2  1  0
 21  7  1  0
M  END
>  <identifier>  (63) 
CNP0302111.1

>  <canonical_smiles>  (63) 
CC1=CC(=O)C[C@H]2[C@](C)(CCC(C)CCO)[C@@H](C)CC[C@@]12C

>  <standard_inchi>  (63) 
InChI=1S/C20H34O2/c1-14(8-11-21)6-9-19(4)15(2)7-10-20(5)16(3)12-17(22)13-18(19)20/h12,14-15,18,21H,6-11,13H2,1-5H3/t14?,15-,18-,19+,20-/m0/s1

>  <standard_inchi_key>  (63) 
YQBWIXCLEMHBEA-XSCJZGSRSA-N

>  <name>  (63) 
nan

>  <iupac_name>  (63) 
(4~{a}~{R},7~{S},8~{R},8~{a}~{S})-8-(5-hydroxy-3-methyl-pentyl)-4,4~{a},7,8-tetramethyl-5,6,7,8~{a}-tetrahydro-1~{H}-naphthalen-2-one

>  <annotation_level>  (63) 
4

>  <total_atom_count>  (63) 
56

>  <heavy_atom_count>  (63) 
22

>  <molecular_weight>  (63) 
306.49

>  <exact_molecular_weight>  (63) 
306.25588

>  <molecular_formula>  (63) 
C20H34O2

>  <alogp>  (63) 
4.76

>  <topological_polar_surface_area>  (63) 
37.30

>  <rotatable_bond_count>  (63) 
5

>  <hydrogen_bond_acceptors>  (63) 
2

>  <hydrogen_bond_donors>  (63) 
1

>  <hydrogen_bond_acceptors_lipinski>  (63) 
2

>  <hydrogen_bond_donors_lipinski>  (63) 
1

>  <lipinski_rule_of_five_violations>  (63) 
0

>  <aromatic_rings_count>  (63) 
0

>  <qed_drug_likeliness>  (63) 
0.79

>  <formal_charge>  (63) 
0

>  <fractioncsp3>  (63) 
0.85

>  <number_of_minimal_rings>  (63) 
2

>  <van_der_walls_volume>  (63) 
nan

>  <contains_sugar>  (63) 
False

>  <contains_ring_sugars>  (63) 
False

>  <contains_linear_sugars>  (63) 
False

>  <murcko_framework>  (63) 
C1=CC2CCCCC2CC1

>  <np_likeness>  (63) 
3.01

>  <chemical_class>  (63) 
Prenol lipids

>  <chemical_sub_class>  (63) 
Diterpenoids

>  <chemical_super_class>  (63) 
Lipids and lipid-like molecules

>  <direct_parent_classification>  (63) 
Colensane and clerodane diterpenoids

>  <np_classifier_pathway>  (63) 
Terpenoids

>  <np_classifier_superclass>  (63) 
Diterpenoids

>  <np_classifier_class>  (63) 
Colensane and Clerodane diterpenoids

>  <np_classifier_is_glycoside>  (63) 
False

>  <organisms>  (63) 
Casearia sylvestris

>  <collections>  (63) 
Latin America dataset|NuBBEDB|WikiData Natural Products

>  <dois>  (63) 
10.1590/S0100-40422007000500009

>  <synonyms>  (63) 
15-hydroxy-3-cleroden-2-one

>  <cas>  (63) 
nan

$$$$

     RDKit          2D

 15 15  0  0  0  0  0  0  0  0999 V2000
    1.5153   -3.3139    0.0000 C   0  0  0  0  0  0  0  0  0  0  0  0
    2.1034   -1.9340    0.0000 C   0  0  0  0  0  0  0  0  0  0  0  0
    1.2024   -0.7347    0.0000 C   0  0  0  0  0  0  0  0  0  0  0  0
    2.5399   -0.0557    0.0000 C   0  0  0  0  0  0  0  0  0  0  0  0
    0.1778   -1.8303    0.0000 C   0  0  0  0  0  0  0  0  0  0  0  0
   -1.2832   -1.4907    0.0000 C   0  0  0  0  0  0  0  0  0  0  0  0
   -1.7197   -0.0556    0.0000 C   0  0  0  0  0  0  0  0  0  0  0  0
   -3.1807    0.2840    0.0000 C   0  0  0  0  0  0  0  0  0  0  0  0
   -4.2053   -0.8116    0.0000 C   0  0  0  0  0  0  0  0  0  0  0  0
   -3.6172    1.7191    0.0000 C   0  0  0  0  0  0  0  0  0  0  0  0
   -0.6951    1.0399    0.0000 C   0  0  0  0  0  0  0  0  0  0  0  0
    0.7660    0.7004    0.0000 C   0  0  0  0  0  0  0  0  0  0  0  0
    1.7906    1.7959    0.0000 C   0  0  0  0  0  0  0  0  0  0  0  0
    1.3541    3.2310    0.0000 C   0  0  0  0  0  0  0  0  0  0  0  0
    3.2516    1.4563    0.0000 C   0  0  0  0  0  0  0  0  0  0  0  0
  1  2  2  0
  2  3  1  0
  3  4  1  1
  3  5  1  0
  5  6  1  0
  6  7  1  0
  7  8  1  1
  8  9  2  0
  8 10  1  0
  7 11  1  0
 11 12  1  0
 12 13  1  1
 13 14  2  0
 13 15  1  0
 12  3  1  0
M  END
>  <identifier>  (64) 
CNP0176529.2

>  <canonical_smiles>  (64) 
C=C[C@]1(C)CC[C@@H](C(=C)C)C[C@H]1C(=C)C

>  <standard_inchi>  (64) 
InChI=1S/C15H24/c1-7-15(6)9-8-13(11(2)3)10-14(15)12(4)5/h7,13-14H,1-2,4,8-10H2,3,5-6H3/t13-,14+,15-/m1/s1

>  <standard_inchi_key>  (64) 
OPFTUNCRGUEPRZ-QLFBSQMISA-N

>  <name>  (64) 
BETA-ELEMENE

>  <iupac_name>  (64) 
(1~{S},2~{S},4~{R})-2,4-diisopropenyl-1-methyl-1-vinyl-cyclohexane

>  <annotation_level>  (64) 
5

>  <total_atom_count>  (64) 
39

>  <heavy_atom_count>  (64) 
15

>  <molecular_weight>  (64) 
204.36

>  <exact_molecular_weight>  (64) 
204.1878

>  <molecular_formula>  (64) 
C15H24

>  <alogp>  (64) 
4.75

>  <topological_polar_surface_area>  (64) 
0.00

>  <rotatable_bond_count>  (64) 
3

>  <hydrogen_bond_acceptors>  (64) 
0

>  <hydrogen_bond_donors>  (64) 
0

>  <hydrogen_bond_acceptors_lipinski>  (64) 
0

>  <hydrogen_bond_donors_lipinski>  (64) 
0

>  <lipinski_rule_of_five_violations>  (64) 
0

>  <aromatic_rings_count>  (64) 
0

>  <qed_drug_likeliness>  (64) 
0.58

>  <formal_charge>  (64) 
0

>  <fractioncsp3>  (64) 
0.60

>  <number_of_minimal_rings>  (64) 
1

>  <van_der_walls_volume>  (64) 
230.42

>  <contains_sugar>  (64) 
False

>  <contains_ring_sugars>  (64) 
False

>  <contains_linear_sugars>  (64) 
False

>  <murcko_framework>  (64) 
C1CCCCC1

>  <np_likeness>  (64) 
2.86

>  <chemical_class>  (64) 
Prenol lipids

>  <chemical_sub_class>  (64) 
Sesquiterpenoids

>  <chemical_super_class>  (64) 
Lipids and lipid-like molecules

>  <direct_parent_classification>  (64) 
Elemane sesquiterpenoids

>  <np_classifier_pathway>  (64) 
Terpenoids

>  <np_classifier_superclass>  (64) 
Sesquiterpenoids

>  <np_classifier_class>  (64) 
Elemane sesquiterpenoids

>  <np_classifier_is_glycoside>  (64) 
False

>  <organisms>  (64) 
Aca sellowiana|Acca sellowiana|Achillea ageratum|Achillea millefolium|Achyrospermum africanum|Aconitum subcuneatum|Acorus Calamus|Acorus calamus|Acorus calanus L.|Acorus gramineus|Actinodaphne acuminata|Actinodaphne longifolia|Aframomum melegueta|Agastache rugosa|Agathosma betulina|Ageratum conyzoides|Aloysia citriodora|Aloysia citrodora|Aloysia triphylla|Alphinia galanga|Alpinia chinensis|Alstonia muelleriana|Amphimedon terpenensis|Andropogon laniger|Anethum graveolens|Angelica archangelica|Angelica dahurica|Angelica pubescens|Angelica sinensis|Angostura trifoliata|Annona cascarilloides|Annona reticulata|Anthotroche blackii|Apium graveolens|Arabidopsis thaliana|Arctium lappa|Aristolochia birostris|Aristolochia cymbifera|Aristolochia debilis|Aristolochia didyma|Aristolochia elegans|Aristolochia gigantea|Aristolochia littoralis|Aristolochia macroura|Aristolochia triangularis|Aristolochia trilobata|Aristolochiaceae|Artabotrys lastoursvillensis|Artemisia Annua|Artemisia annua|Artemisia annua L.|Artemisia annua L.cultivar Jwarharti|Artemisia argyi|Artemisia capillaries|Artemisia cina|Artemisia herba-alba|Artemisia montana|Artemisia pallens|Artemisia princeps|Artemisia vulgaris|Asarum asperum|Asarum celsum|Asarum epigynum|Asarum lutchuense|Asarum nipponicum|Asarum simile|Ascocoryne sarcoides|Aspergillus candidus|Astilbe odontophylla|Atractylodes lancea|Aucklandia costus|Aucklandia lappa|Austrobaileya scandens|Austromyrtus dulcis|Baccharis articulata|Baccharis dracunculifolia|Baccharis rufescens|Baccharis sarothroides|Barbarea vulgaris subsp. arcuata|Bazzania spiralis|Beilschmiedia pendula|Bitter bush|Boswellia papyrifera|Brassica napus|Bupleurum chinense|Bupleurum falcatum|Bupleurum gibraltaricum|Bupleurum scorzonerifolium|Caiman crocodilus|Callicarpa japonica|Callitris columellaris|Callitris intratropica|Calypogeia granulata|Calypogeia muelleriana|Canella winterana|Cantinoa mutabilis|Capparis flavicans|Carica papaya|Castanea dentata|Cedrela odorata|Chamomilla recutita|Chrysanthemum spp.|Cinnamomum camphora|Cinnamomum illicioides|Cinnamomum parthenoxylon|Cistus albidus|Cistus creticus|Citrus Aurantifolia|Citrus Hystrix|Citrus Paradisi|Citrus Reticulata|Citrus Sinensis|Citrus aurantifolia|Citrus grandis|Citrus hystrix|Citrus japonica|Citrus medica|Citrus paradisi|Citrus reticulata|Citrus sinensis|Citrus sudachi|Citrus sunki|Citrus unshiu|Citrus unshiu Marc.|Citrus × deliciosa|Citrus × paradisi|Clausena anisata|Clausena excavata|Clavularia viridis|Cleistopholis patens|Commiphora gurreh|Commiphora kataf|Commiphora molmol|Commiphora myrrha|Commiphora sphaerocarpa|Coreopsis nodosa|Cornus officinalis|Cota saguramica|Croton adenocalyx|Croton argyrophyllus|Croton eluteria|Croton essequiboensis|Croton jacobinensis|Croton jimenezii|Croton micans|Croton nepetifolius|Croton sonderianus|Croton tricolor|Cryptocarya angulata|Cryptocarya triplinervis|Cryptomeria japonica|Cuminum cyminum|Cuminum cyminum L.|Curcuma Aeruginosa|Curcuma Aromatica|Curcuma aeruginosa|Curcuma amada|Curcuma amanda Roxb|Curcuma aromatica|Curcuma harmandii|Curcuma longa|Curcuma mangga|Curcuma ochrorhiza|Curcuma trichosantha|Curcuma xanthorrhiza|Curcuma zedoaria|Cyathocline purpurea|Cymbopogon martinii|Cymbopogon nardus|Cymbopogon nervatus|Cymbopogon schoenanthus|Cynara cardunculus|Cynara scolymus|Cyperus Rotundus|Cyperus conglomeratus|Cyperus erectus|Cyperus rotundus|Cyperus rotundus L.|Dacrydium cupressinum|Dacryodes normandii|Daldinia eschscholtzii|Daniellia oliveri|Daphne composita|Daucus carota|Dictyopteris divaricata|Dolomiaea costus|Doona spp.|Elaphoglossum lindbergii|Entandrophragma cylindricum|Eremanthus arboreus|Eriosolena composita|Etlingera pavieana|Eucalyptus angulosa|Eucalyptus astringens|Eucalyptus behriana|Eucalyptus camaldulensis|Eucalyptus ceratocorys|Eucalyptus cuprea|Eucalyptus dolichorhyncha|Eucalyptus fasciculosa|Eucalyptus forrestiana|Eucalyptus incrassata|Eucalyptus intertexta|Eucalyptus jensenii|Eucalyptus lansdowneana|Eucalyptus leucoxylon|Eucalyptus melanophloia|Eucalyptus ochrophloia|Eucalyptus odorata|Eucalyptus paniculata|Eucalyptus perriniana|Eucalyptus populnea|Eucalyptus porosa|Eucalyptus sideroxylon|Eucalyptus sparsa|Eucalyptus stoatei|Eucalyptus tereticornis|Eucalyptus tetraptera|Eucalyptus viridis|Eugenia uniflora|Eupatorium cannabinum|Eupatorium capillifolium|Euphorbia officinarum subsp. echinus|Ferula ammoniacum|Ferulago nodosa|Foeniculum vulgare|Frullania aterrima var. lepida|Frullania congesta|Frullania falciloba|Frullania fragilifolia|Frullania fugax|Frullania incumbens|Frullania lobulata|Frullania media|Frullania monocera|Frullania ptychantha|Frullania serrata|Frullania tamarisci|Glycine tomentella|Grindelia hirsutula|Guatteriopsis blepharophylla|Haematococcus lacustris|Haplostichanthus johnsonii|Hedychium spicatum|Hedyosmum mexicanum|Helenium autumnale|Helichrysum amorginum|Helichrysum harveyanum|Helichrysum italicum|Helichrysum stoechas|Heracleum dissectum|Herba artemisiae scopariae|Heteranthemis viscidehirta|Heterotropa|Hexalobus crispiflorus|Hexastylis virginica|Homo sapiens|Homo sapiens (Exhaled breath)|Houttuynia cordata|Hydnocarpus venenata|Hypericum androsaemum|Hypoxylon rubiginosum|Hyptis mutabilis|Hyptis spicigera|Hyptis suaveolens|Ibacus peronii|Illicium difengpi|Illicium verum|Inula helenium|Inula racemosa|Ipomoea hederacea|Jugo|Juniperus rigida|Kleinia pendula|Kumquat|Laggera alata|Larix laricina|Larix lyallii|Larix occidentalis|Lasioderma serricorne|Launea|Lepidozia fauriana|Lepidozia vitrea|Leptospermum scoparium|Leucocarpus perfoliatus|Levisticum officinale|Liatris elegans|Libanotis intermedia|Ligusticum chuanxiong|Ligusticum sinense|Linzia glabra|Lippia Aff. aristata|Lippia rehmannii|Litophyton brassicum|Litophyton chabrolii|Lobophora variegata|Lycopodium casuarinoides|Machilus japonica|Machilus thunbergii|Macleaya cordata|Malus sieboldii|Manekia naranjoana|Mangifera indica|Marsilea quadrifolia|Marsupella aquatica|Mastophora hutchinsoni|Matricaria chamomilla|Melampodium camphoratum|Melissa officinalis|Mentha|Mentha aquatica|Mentha insularis|Mentha piperita|Mentha pulegium|Mentha spicata|Mentha spp.|Mentha suaveolens|Micranthes stellaris|Micromeria biflora|Micromeria maderensis|Monodora tenuifolia|Mulguraea tridens|Murraya gleniei|Murraya paniculata|Mycale cecilia|Myrcia tricona|Nasutitermes gracilirostris|Nasutitermes novarumhebridarum|Nasutitermes torresi|Nasutitermes triodiae|Nectandra salicina|Neolitsea aciculata|Nepeta cataria|Nepeta nuda|Nephthea brassica|Nicotiana undulata|Nigella damascena|Ocimum americanum|Ocimum basilicum|Ocimum campechianum|Ocimum carnosum|Ocimum gratissimum|Ocimum micranthum|Ocimum selloi|Ocimum tenuiflorum|Ocotea austinii|Ocotea gomezii|Ocotea morae|Oleum curcumae|Ophryosporus charua|Origanum vulgare|Orthosiphon aristatus|Orthosiphon grandiflorus|Oxytropis pseudoglandulosa|Panax ginseng|Panax notoginseng|Panax schinseng|Papilio xuthus|Passiflora incarnata|Pectis brevipedunculata|Pectis elongata var. floribunda|Pedicularis plicata|Pelargonium endlicherianum|Pelargonium quercifolium|Peltigera venosa|Penicillium abidjanum|Perezia lactucoides|Perezia pilifera|Perezia recurvata|Periconia atropurpurea|Perilla frutescens|Petasites albus|Petasites hybridus|Petroselinum crispum|Peucedanum paniculatum|Peucedanum paniculatum L.|Peucedanum zenkeri|Philadelphia fleabane|Phoma herbarum|Picea koraiensis|Pimenta racemosa|Pinus halepensis|Pinus monticola|Pinus parviflora|Piper arboreum|Piper augustum|Piper cernuum|Piper fimbriulatum|Piper gaudichaudianum|Piper marginatum|Piper nigrum|Piper obliquum|Piper sylvestre|Pistacia atlantica|Pittosporum viridiflorum|Plantago hookeriana|Platostoma africanum|Podachaenium eminens|Pogostemon cablin|Polyscias fruticosa|Porella acutifolia|Protium heptaphyllum|Psiadia altissima|Psidium friedrichsthalianum|Pterocladiella tenuis|Pterodon emarginatus|Rabdosia flexicaulis|Radix ginseng rubra|Radix heraclei maximi|Rapanea neurophylla|Rhaponticum carthamoides|Rhizoma curcumae|Riccia fluitans|Rogeria adenophylla|Rosmarinus officinalis|Saccharomyces pastori|Saccogyna viticulosa|Salvia ianthina|Salvia syriaca|Sambucus nigra|Sarcophyton acutangulum|Sarcophyton ehrenbergi|Satureja wiedemanniana|Saussurea costus|Saxifraga stolonifera|Scaphechinus mirabilis|Schinus molle|Schisandra chinensis|Schizonepeta tenuifolia|Scrophularia buergeriana|Scutellaria baicalensis|Scutellaria lateriflora|Scytosiphon lomentaria|Senecio paludaffinis|Senegalia tenuifolia|Sinularia|Sinularia dissecta|Smallanthus maculatus|Solanum Tuberosum|Solanum agrimoniifolium|Solanum habrochaites|Solanum incisum|Solanum lycopersicum|Solanum stuckertii|Solanum tuberosum|Solenostoma triste|Solidago canadensis|Solidago odora|Sonchus gummifer|Sphaerella rubella|Stachys aegyptiaca|Stemodia maritima|Stephania hispidula|Stephania tetrandra|Stockwellia|Streptomyces flocculus|Streptomyces prunicolor|Tachardia acaciae|Tachigalia paniculata|Tagetes lucida|Tamarindus indica|Tanacetum vulgare|Teucrium leucocladum|Thermotoga maritima|Thujopsis dolabrata|Thujopsis dolabrata var. dolabrata|Thymus funkii|Thymus kosteletzkyanus|Thymus longiflorus|Thymus marschallianus|Thymus pannonicus|Thymus pulegioides|Tilesia baccata|Tolypothrix nodosa|Tordylium apulum|Trifoliate orange|Trifolium hybridum|Trigonella foenum-graecum|Trigonella grandiflora|Trilophozia quinquedentata|Tripolium pannonicum|Tritomaria quinquedentata|Tritomaria quinquedentata (Huds.)|Trixis inula|Tunica prolifera|Umbilicaria spodochroa|Uvaria calamistrata|Uvaria chamae|Uvaria narum|Vaccaria hispanica|Valeriana jatamansi|Valeriana officinalis|Varronia curassavica|Verbesina diversifolia|Virola surinamensis|Vitex negundo|Wedelia calycina|Wedelia scaberrima|West African Pepper|Xylopia aethiopica|Xylopia holtzii|Xylopia sericea|Xylosalsola richteri|Xyris semifuscata|Zanthoxylum gardneri|Zanthoxylum kauaense|Zanthoxylum zanthoxyloides|Zingiber cassumunar Roxb.|Zingiber mioga|Zingiber officinale|Zingiber ottensii|Zinnia elegans|Zinnia violacea|basil|candyleaf|common myrtle|common sunflower|parsley|pomelo|potato|tomato|water mint

>  <collections>  (64) 
ANPDB|CMAUP (cCollective molecular activities of useful plants)|EMNPD|FooDB|KNApSaCK|Latin America dataset|NANPDB (Natural Products from Northern African Sources)|NAPRORE-CR|NPASS|NPAtlas|NPDBEjeCol|NPEdia|NuBBEDB|Phyto4Health|Super Natural II|TCMDB-Taiwan (Traditional Chinese Medicine database)|TIPdb (database of Taiwan indigenous plants)|VietHerb|WikiData Natural Products

>  <dois>  (64) 
10.1002/(SICI)1099-1026(199601)11:1<15::AID-FFJ541>3.0.CO;2-H|10.1002/(SICI)1099-1026(199701)12:1<47::AID-FFJ610>3.0.CO;2-7|10.1002/(SICI)1099-1565(199909/10)10:5<241::AID-PCA460>3.0.CO;2-5|10.1002/(SICI)1099-1573(199605)10:3<248::AID-PTR807>3.0.CO;2-9|10.1002/(SICI)1099-1573(1998)12:1+<S117::AID-PTR269>3.0.CO;2-2|10.1002/1099-1026(200005/06)15:3<201::AID-FFJ893>3.0.CO;2-I|10.1002/CBDV.201000088|10.1002/CBDV.201100039|10.1002/CBDV.201100059|10.1002/CBDV.201800531|10.1002/CBER.19791120206|10.1002/CHIN.198734320|10.1002/CHIN.200052207|10.1002/CHIN.200503177|10.1002/ECE3.5390|10.1002/FFJ.1582|10.1002/FFJ.2730010103|10.1002/FFJ.2730030106|10.1002/FFJ.2730030208|10.1002/FFJ.2730050307|10.1002/FFJ.2730050309|10.1002/FFJ.2730060307|10.1002/FFJ.2730090305|10.1002/FFJ.2730100203|10.1002/FFJ.2730100310|10.1002/FFJ.2730100313|10.1002/FFJ.2730100602|10.1002/FFJ.2730100605|10.1002/FFJ.2730100609|10.1002/HLCA.201200359|10.1002/JSFA.9972|10.1002/PCA.2800060604|10.1002/PCA.564|10.1002/PCA.594|10.1002/PTR.2501|10.1002/ptr.2501|10.1002/ptr.2501/abstract|10.1007/BF00570218|10.1007/BF00579141|10.1007/BF00579167|10.1007/BF00580068|10.1007/BF00980588|10.1007/BF01959201|10.1007/BF02282508|10.1007/BF02312888|10.1007/BF02866639|10.1007/BF02907824|10.1007/S10886-012-0201-Z|10.1007/S11418-007-0175-2|10.1016/0031-9422(75)85347-7|10.1016/0031-9422(82)83156-7|10.1016/0031-9422(83)80212-X|10.1016/0031-9422(83)83016-7|10.1016/0031-9422(88)80099-2|10.1016/0031-9422(88)83085-1|10.1016/0031-9422(88)83114-5|10.1016/0031-9422(89)80070-6|10.1016/0031-9422(90)83037-2|10.1016/0031-9422(91)83064-R|10.1016/0031-9422(91)83456-U|10.1016/0031-9422(91)85017-T|10.1016/0031-9422(92)80396-V|10.1016/0031-9422(95)00492-P|10.1016/0278-6915(94)90200-3|10.1016/0305-1978(92)90055-I|10.1016/J.APJTM.2016.06.009|10.1016/J.APJTM.2017.07.004|10.1016/J.BSE.2003.12.009|10.1016/J.CHROMA.2006.08.080|10.1016/J.CHROMA.2007.12.011|10.1016/J.FITOTE.2005.06.007|10.1016/J.FOODCHEM.2006.01.045|10.1016/J.FOODCHEM.2010.08.043|10.1016/J.FOODCHEM.2013.10.093|10.1016/J.FOODCHEM.2015.11.033|10.1016/J.FOODRES.2018.12.054|10.1016/J.INDCROP.2014.04.048|10.1016/J.JEP.2012.11.045|10.1016/J.JPBA.2006.01.024|10.1016/J.LWT.2018.05.011|10.1016/J.PHYTOCHEM.2003.08.004|10.1016/J.PHYTOCHEM.2004.03.019|10.1016/J.PHYTOCHEM.2004.05.024|10.1016/J.PHYTOCHEM.2005.01.007|10.1016/J.PHYTOCHEM.2005.07.001|10.1016/J.PHYTOCHEM.2005.09.012|10.1016/J.PHYTOCHEM.2008.12.018|10.1016/J.PHYTOCHEM.2009.06.013|10.1016/J.PHYTOCHEM.2009.07.031|10.1016/J.PHYTOL.2014.03.007|10.1016/S0031-9422(00)80085-0|10.1016/S0031-9422(00)80112-0|10.1016/S0031-9422(00)80600-7|10.1016/S0031-9422(00)80682-2|10.1016/S0031-9422(00)80683-4|10.1016/S0031-9422(00)81445-4|10.1016/S0031-9422(00)81569-1|10.1016/S0031-9422(00)83061-7|10.1016/S0031-9422(00)83760-7|10.1016/S0031-9422(00)84581-1|10.1016/S0031-9422(00)84596-3|10.1016/S0031-9422(00)84709-3|10.1016/S0031-9422(00)88484-8|10.1016/S0031-9422(00)95206-3|10.1016/S0031-9422(00)97409-0|10.1016/S0031-9422(00)97781-1|10.1016/S0031-9422(00)97879-8|10.1016/S0031-9422(00)97880-4|10.1016/S0031-9422(01)00018-8|10.1016/S0031-9422(01)00322-3|10.1016/S0031-9422(02)00006-7|10.1016/S0031-9422(02)00207-8|10.1016/S0031-9422(02)00214-5|10.1016/S0031-9422(02)00542-3|10.1016/S0031-9422(82)85033-4|10.1016/S0031-9422(97)00324-5|10.1016/S0031-9422(97)00400-7|10.1016/S0031-9422(97)00762-0|10.1016/S0031-9422(97)84397-X|10.1016/S0031-9422(98)00158-7|10.1016/S0031-9422(98)00283-0|10.1016/S0031-9422(99)00383-0|10.1016/S0031-9422(99)00451-3|10.1016/S0031-9422(99)00601-9|10.1016/S0040-4020(01)91707-7|10.1016/S0040-4020(01)98186-4|10.1016/S0040-4039(98)01879-6|10.1016/S0045-6535(99)00015-6|10.1016/S0308-8146(03)00014-1|10.1016/S0367-326X(00)00154-4|10.1016/S0367-326X(01)00367-7|10.1016/S0367-326X(98)00020-3|10.1016/S0378-8741(99)00072-0|10.1016/S0926-6690(03)00076-1|10.1016/j.foodchem.2020.127109|10.1016/s0045-6535(99)00015-6|10.1021/ACS.JAFC.5B00546|10.1021/JF00037A027|10.1021/JF00046A030|10.1021/JF00073A015|10.1021/JF00083A001|10.1021/JF00087A036|10.1021/JF00091A025|10.1021/JF00116A075|10.1021/JF020872F|10.1021/JF040437G|10.1021/JF0615653|10.1021/JF60201A021|10.1021/JO00200A028|10.1021/JO040272A|10.1021/NP000209Q|10.1021/NP030475E|10.1021/NP50012A010|10.1021/NP50017A019|10.1021/NP50018A028|10.1021/NP50031A024|10.1021/NP50034A044|10.1021/NP50044A039|10.1021/NP50046A033|10.1021/NP50046A035|10.1021/NP50050A051|10.1021/NP50052A041|10.1021/NP960732Y|10.1021/NP980449U|10.1021/NP990212D|10.1021/acsomega.3c03865|10.1021/jf011456i|10.1021/np50017a018|10.1055/S-0028-1097693|10.1055/S-0028-1097962|10.1055/S-1999-14025|10.1055/S-2001-18363|10.1055/S-2003-39704|10.1055/S-2006-957378|10.1055/S-2006-957458|10.1055/S-2006-957488|10.1055/S-2006-957489|10.1055/S-2006-957641|10.1055/S-2006-957914|10.1055/S-2006-959506|10.1055/S-2006-959580|10.1055/S-2006-959673|10.1055/S-2006-960032|10.1055/S-2006-960128|10.1055/S-2006-960872|10.1055/S-2006-960930|10.1055/S-2006-962016|10.1055/S-2006-962093|10.1055/S-2006-962450|10.1055/S-2007-969136|10.1055/S-2007-969171|10.1055/S-2007-969274|10.1055/S-2007-969591|10.1055/S-2007-969599|10.1080/00021369.1989.10869813|10.1080/07373937.2011.634976|10.1080/0972060X.2007.10643581|10.1080/0972060X.2008.10643675|10.1080/0972060X.2014.895210|10.1080/10412905.1989.9697758|10.1080/10412905.1989.9697769|10.1080/10412905.1989.9697801|10.1080/10412905.1990.9697836|10.1080/10412905.1990.9697845|10.1080/10412905.1990.9697854|10.1080/10412905.1990.9697857|10.1080/10412905.1990.9697864|10.1080/10412905.1991.9697900|10.1080/10412905.1991.9697921|10.1080/10412905.1991.9697930|10.1080/10412905.1991.9697952|10.1080/10412905.1991.9697953|10.1080/10412905.1991.9697963|10.1080/10412905.1991.9697974|10.1080/10412905.1992.9698059|10.1080/10412905.1992.9698068|10.1080/10412905.1992.9698069|10.1080/10412905.1992.9698072|10.1080/10412905.1992.9698101|10.1080/10412905.1992.9698109|10.1080/10412905.1992.9698112|10.1080/10412905.1992.9698144|10.1080/10412905.1993.9698164|10.1080/10412905.1993.9698167|10.1080/10412905.1993.9698174|10.1080/10412905.1993.9698177|10.1080/10412905.1993.9698195|10.1080/10412905.1993.9698206|10.1080/10412905.1993.9698251|10.1080/10412905.1994.9698333|10.1080/10412905.1994.9698334|10.1080/10412905.1994.9698337|10.1080/10412905.1994.9698361|10.1080/10412905.1994.9698380|10.1080/10412905.1994.9698395|10.1080/10412905.1994.9698407|10.1080/10412905.1994.9698409|10.1080/10412905.1994.9698414|10.1080/10412905.1994.9698438|10.1080/10412905.1994.9698449|10.1080/10412905.1994.9699347|10.1080/10412905.1994.9699348|10.1080/10412905.1994.9699356|10.1080/10412905.1994.9699357|10.1080/10412905.1994.9699362|10.1080/10412905.1995.9698462|10.1080/10412905.1995.9698468|10.1080/10412905.1995.9698473|10.1080/10412905.1995.9698501|10.1080/10412905.1995.9698555|10.1080/10412905.1995.9698562|10.1080/10412905.1995.9698581|10.1080/10412905.1995.9698587|10.1080/10412905.1995.9700522|10.1080/10412905.1995.9700530|10.1080/10412905.1996.9700559|10.1080/10412905.1996.9700567|10.1080/10412905.1996.9700568|10.1080/10412905.1997.10554259|10.1080/10412905.1997.9700709|10.1080/10412905.1997.9700728|10.1080/10412905.1997.9700810|10.1080/10412905.1997.9700822|10.1080/10412905.1998.9700844|10.1080/10412905.1998.9700853|10.1080/10412905.1998.9700937|10.1080/10412905.1998.9700962|10.1080/10412905.1998.9700992|10.1080/10412905.1998.9701015|10.1080/10412905.1999.9701062|10.1080/10412905.1999.9701102|10.1080/10412905.1999.9701151|10.1080/10412905.1999.9701189|10.1080/10412905.2000.9699552|10.1080/10412905.2000.9712167|10.1080/10412905.2000.9712178|10.1080/10412905.2001.9699608|10.1080/10412905.2001.9712227|10.1080/10412905.2002.9699852|10.1080/10412905.2002.9699883|10.1080/10412905.2003.9698598|10.1080/10412905.2004.9698740|10.1080/10412905.2004.9698744|10.1080/10412905.2004.9698765|10.1080/10412905.2007.9699946|10.1080/10412905.2010.9700320|10.1080/10412905.2012.747271|10.1080/10412905.2012.755478|10.1080/10412905.2018.1431966|10.1080/10575630108041259|10.1080/10575639908048484|10.1080/10575639908048790|10.1080/13880209.2016.1254251|10.1080/14620316.2003.11511610|10.1080/14786410701848154|10.1111/J.1365-2621.1985.TB10476.X|10.1111/J.1365-313X.2005.02417.X|10.1135/CCCC19582188|10.1135/CCCC19621870|10.1135/CCCC19622711|10.1135/CCCC19661113|10.1139/B90-317|10.1142/S0192415X0400193X|10.1177/1934578X1100600135|10.1186/1471-2229-14-140|10.1186/1472-6882-14-125|10.1186/1752-153X-7-61|10.1201/B22102-8|10.1246/BCSJ.41.234|10.1246/BCSJ.56.1265|10.1246/NIKKASHI1948.83.3_350|10.1248/YAKUSHI1947.107.3_209|10.1248/YAKUSHI1947.107.3_219|10.1248/YAKUSHI1947.90.11_1367|10.1271/BBB1961.45.507|10.1271/BBB1961.51.1449|10.1271/BBB1961.55.1655|10.1271/BBB1961.55.2571|10.1271/NOGEIKAGAKU1924.59.389|10.1271/NOGEIKAGAKU1924.67.1417|10.14233/AJCHEM.2013.14387A|10.1515/ZNC-1984-7-803|10.1515/ZNC-1990-9-1023|10.1590/S0100-40422009000200028|10.1590/S0103-50532010000500012|10.1590/S0103-50532011000400018|10.17660/ACTAHORTIC.1999.500.11|10.23850/24220582.3465|10.3109/13880209109082875|10.3184/030823400103167165|10.3390/21100165|10.3390/MEDICINES3010007|10.3390/MOLECULES200610298|10.3390/MOLECULES21060814|10.3390/MOLECULES22030335|10.3390/MOLECULES24112053|10.3390/MOLECULES24234244|10.3719/WEED.25.42|10.4314/BCSE.V15I1.71732|10.5650/JOS.ESS14057|10.5650/JOS.ESS17049|10.5650/JOS1956.23.246|10.5897/JMPR10.078|10.5897/JMPR11.972

>  <synonyms>  (64) 
(-)-b-Elemene|(-)-beta-Elemene|(-)-beta-Elemene, analytical standard|(-)-bete-elemene|(1S,2S,4R)-(-)-1-methyl-1-vinyl-2,4-diisopropenylcyclohexane|(1S,2S,4R)-1-ethenyl-1-methyl-2,4-bis(prop-1-en-2-yl)cyclohexane|(1S,2S,4R)-1-methyl-2,4-di(prop-1-en-2-yl)-1-vinylcyclohexane|(1S,2S,4R)-2,4-diisopropenyl-1-methyl-1-vinylcyclohexane|(1S,2S,4R)-beta-elemene|(1alpha,2beta,4beta)-1-ethenyl-1-methyl-2,4-bis(1-methylethenyl)cyclohexane|.beta.-Elemene|1-ethenyl-1-methyl-2,4-bis(1-methylethenyl)-cyclohexane|2,4-Diisopropenyl-1-methyl-1-vinylcyclohexane|2QG8CX6LXD|33880-83-0|515-13-9|?-Elemene (10mg\/ml in ethanol)|AKOS028108977|AS-82909|Beta elemene [WHO-DD]|Beta-Elemene|C17094|CHEBI:62855|CHEMBL448502|CS-0028143|Cyclohexane|Cyclohexane, 1-ethenyl-1-methyl-2,4-bis(1-methylethenyl)-|Cyclohexane, 1-ethenyl-1-methyl-2,4-bis(1-methylethenyl)-, (1S,2S,4R)-|Cyclohexane, 1-ethenyl-1-methyl-2,4-bis(1-methylethenyl)-, (1S-(1-alpha,2-beta,4-beta))-|Cyclohexane, 2,4-diisopropenyl-1-methyl-1-vinyl-, (1S,2S,4R)-|DTXSID40865690|DTXSID60881211|E79113|EINECS 251-713-0|ELEMENE, (-)-BETA-|EN300-1709739|Elemene|Epitope ID:153551|HY-107324|Levo-beta-elemene|NS00096333|OPFTUNCRGUEPRZ-QLFBSQMISA-N|Q27132237|SDP-111|UNII-2QG8CX6LXD|\u03b4-elemene|\u221a\u00e9\u00ac\u2264-elemene|b-Elemen|b-elemene|beta-Elemen|beta-Elemene, (-)-|beta-elemene|elemene|s6957

>  <cas>  (64) 
515-13-9|33880-83-0

$$$$

     RDKit          2D

 38 42  0  0  0  0  0  0  0  0999 V2000
    2.1300   -3.7750    0.0000 C   0  0  0  0  0  0  0  0  0  0  0  0
    0.8668   -2.9661    0.0000 C   0  0  0  0  0  0  0  0  0  0  0  0
   -0.4654   -3.6555    0.0000 O   0  0  0  0  0  0  0  0  0  0  0  0
    0.9358   -1.4676    0.0000 O   0  0  0  0  0  0  0  0  0  0  0  0
   -0.3274   -0.6587    0.0000 C   0  0  0  0  0  0  0  0  0  0  0  0
   -1.4594   -1.6428    0.0000 C   0  0  0  0  0  0  0  0  0  0  0  0
   -2.0147   -3.0362    0.0000 O   0  0  0  0  0  0  0  0  0  0  0  0
   -2.9438   -1.8586    0.0000 C   0  0  0  0  0  0  0  0  0  0  0  0
   -4.3093   -1.2377    0.0000 C   0  0  0  0  0  0  0  0  0  0  0  0
   -5.7664   -1.5936    0.0000 C   0  0  0  0  0  0  0  0  0  0  0  0
   -4.4495   -2.7311    0.0000 O   0  0  0  0  0  0  0  0  0  0  0  0
   -5.1222    0.0229    0.0000 C   0  0  0  0  0  0  0  0  0  0  0  0
   -6.5608   -0.4019    0.0000 O   0  0  0  0  0  0  0  0  0  0  0  0
   -5.1246    1.5229    0.0000 C   0  0  0  0  0  0  0  0  0  0  0  0
   -6.5645    1.9432    0.0000 C   0  0  0  0  0  0  0  0  0  0  0  0
   -4.3156    2.7861    0.0000 C   0  0  0  0  0  0  0  0  0  0  0  0
   -2.8306    2.5750    0.0000 C   0  0  0  0  0  0  0  0  0  0  0  0
   -1.4671    3.2003    0.0000 C   0  0  0  0  0  0  0  0  0  0  0  0
   -0.3319    2.2198    0.0000 C   0  0  0  0  0  0  0  0  0  0  0  0
    0.7015    3.3070    0.0000 C   0  0  0  0  0  0  0  0  0  0  0  0
    0.2766    4.7456    0.0000 O   0  0  0  0  0  0  0  0  0  0  0  0
    2.1597    2.9557    0.0000 C   0  0  0  0  0  0  0  0  0  0  0  0
    3.1931    4.0430    0.0000 C   0  0  0  0  0  0  0  0  0  0  0  0
    2.5846    1.5171    0.0000 C   0  0  0  0  0  0  0  0  0  0  0  0
    4.0429    1.1658    0.0000 C   0  0  0  0  0  0  0  0  0  0  0  0
    1.5512    0.4299    0.0000 C   0  0  0  0  0  0  0  0  0  0  0  0
    1.6677   -1.0656    0.0000 C   0  0  0  0  0  0  0  0  0  0  0  0
    2.9461   -1.8503    0.0000 C   0  0  0  0  0  0  0  0  0  0  0  0
    4.2649   -1.1356    0.0000 C   0  0  0  0  0  0  0  0  0  0  0  0
    4.3053    0.3638    0.0000 C   0  0  0  0  0  0  0  0  0  0  0  0
    5.6241    1.0785    0.0000 C   0  0  0  0  0  0  0  0  0  0  0  0
    6.9024    0.2937    0.0000 C   0  0  0  0  0  0  0  0  0  0  0  0
    6.8620   -1.2057    0.0000 C   0  0  0  0  0  0  0  0  0  0  0  0
    5.5432   -1.9204    0.0000 C   0  0  0  0  0  0  0  0  0  0  0  0
    0.2815   -1.6385    0.0000 N   0  0  0  0  0  0  0  0  0  0  0  0
   -0.6918   -0.4971    0.0000 C   0  0  0  0  0  0  0  0  0  0  0  0
   -2.1873   -0.6136    0.0000 O   0  0  0  0  0  0  0  0  0  0  0  0
    0.0929    0.7812    0.0000 C   0  0  0  0  0  0  0  0  0  0  0  0
  1  2  1  0
  2  3  2  0
  2  4  1  0
  5  4  1  6
  5  6  1  0
  6  7  1  6
  8  7  1  1
  8  9  1  0
  9 10  1  6
  9 11  1  0
  9 12  1  0
 12 13  2  0
 12 14  1  0
 14 15  1  1
 14 16  1  0
 16 17  1  0
 17 18  2  0
 19 18  1  1
 19 20  1  0
 20 21  1  6
 20 22  1  0
 22 23  1  0
 22 24  2  0
 24 25  1  0
 26 24  1  1
 26 27  1  0
 27 28  1  6
 28 29  1  0
 29 30  2  0
 30 31  1  0
 31 32  2  0
 32 33  1  0
 33 34  2  0
 27 35  1  0
 35 36  1  0
 36 37  2  0
 38 36  1  1
 38  5  1  0
  8  6  1  0
 38 19  1  0
 38 26  1  0
 34 29  1  0
M  END
>  <identifier>  (65) 
CNP0214346.1

>  <canonical_smiles>  (65) 
CC(=O)O[C@@H]1[C@@H]2O[C@H]2[C@@](C)(O)C(=O)[C@@H](C)C/C=C/[C@H]2[C@H](O)C(C)=C(C)[C@H]3[C@H](CC4=CC=CC=C4)NC(=O)[C@@]123

>  <standard_inchi>  (65) 
InChI=1S/C30H37NO7/c1-15-10-9-13-20-23(33)17(3)16(2)22-21(14-19-11-7-6-8-12-19)31-28(35)30(20,22)27(37-18(4)32)24-26(38-24)29(5,36)25(15)34/h6-9,11-13,15,20-24,26-27,33,36H,10,14H2,1-5H3,(H,31,35)/b13-9+/t15-,20-,21-,22-,23+,24+,26+,27+,29-,30-/m0/s1

>  <standard_inchi_key>  (65) 
ZOSGFLUFAVFHCM-OVLWGNJGSA-N

>  <name>  (65) 
HY-N8385

>  <iupac_name>  (65) 
[(1~{R},2~{S},3~{S},5~{R},6~{R},8~{S},10~{E},12~{R},13~{S},16~{R},17~{S})-17-benzyl-6,13-dihydroxy-6,8,14,15-tetramethyl-7,19-dioxo-4-oxa-18-azatetracyclo[10.7.0.0^{1,16}.0^{3,5}]nonadeca-10,14-dien-2-yl] acetate

>  <annotation_level>  (65) 
5

>  <total_atom_count>  (65) 
75

>  <heavy_atom_count>  (65) 
38

>  <molecular_weight>  (65) 
523.63

>  <exact_molecular_weight>  (65) 
523.257

>  <molecular_formula>  (65) 
C30H37NO7

>  <alogp>  (65) 
2.27

>  <topological_polar_surface_area>  (65) 
125.46

>  <rotatable_bond_count>  (65) 
3

>  <hydrogen_bond_acceptors>  (65) 
7

>  <hydrogen_bond_donors>  (65) 
3

>  <hydrogen_bond_acceptors_lipinski>  (65) 
7

>  <hydrogen_bond_donors_lipinski>  (65) 
3

>  <lipinski_rule_of_five_violations>  (65) 
1

>  <aromatic_rings_count>  (65) 
1

>  <qed_drug_likeliness>  (65) 
0.32

>  <formal_charge>  (65) 
0

>  <fractioncsp3>  (65) 
0.57

>  <number_of_minimal_rings>  (65) 
5

>  <van_der_walls_volume>  (65) 
nan

>  <contains_sugar>  (65) 
False

>  <contains_ring_sugars>  (65) 
False

>  <contains_linear_sugars>  (65) 
False

>  <murcko_framework>  (65) 
O1C2CCCCC=CC3CC=CC4C(NCC34CC12)Cc5ccccc5

>  <np_likeness>  (65) 
2.68

>  <chemical_class>  (65) 
Isoindoles and derivatives

>  <chemical_sub_class>  (65) 
Isoindolines

>  <chemical_super_class>  (65) 
Organoheterocyclic compounds

>  <direct_parent_classification>  (65) 
Isoindolones

>  <np_classifier_pathway>  (65) 
Alkaloids

>  <np_classifier_superclass>  (65) 
Pseudoalkaloids

>  <np_classifier_class>  (65) 
Cytochalasan alkaloids

>  <np_classifier_is_glycoside>  (65) 
False

>  <organisms>  (65) 
Xylaria hypoxylon|Xylaria sp.

>  <collections>  (65) 
EMNPD|Latin America dataset|NuBBEDB|Super Natural II|WikiData Natural Products

>  <dois>  (65) 
10.1016/S0040-4020(97)00305-0|10.1590/S0100-40422010001000006

>  <synonyms>  (65) 
1920-Epoxycytochalasin C|CS-0143810|PD117359

>  <cas>  (65) 
nan

$$$$

     RDKit          2D

 38 42  0  0  0  0  0  0  0  0999 V2000
    0.3122    5.9766    0.0000 C   0  0  0  0  0  0  0  0  0  0  0  0
    0.0808    4.4945    0.0000 C   0  0  0  0  0  0  0  0  0  0  0  0
    1.2485    3.5531    0.0000 C   0  0  0  0  0  0  0  0  0  0  0  0
    2.6477    4.0936    0.0000 C   0  0  0  0  0  0  0  0  0  0  0  0
    1.0170    2.0710    0.0000 C   0  0  0  0  0  0  0  0  0  0  0  0
    1.9635    0.9073    0.0000 C   0  0  0  0  0  0  0  0  0  0  0  0
    3.4613    0.9891    0.0000 C   0  0  0  0  0  0  0  0  0  0  0  0
    4.2809   -0.2672    0.0000 C   0  0  0  0  0  0  0  0  0  0  0  0
    3.6028   -1.6052    0.0000 C   0  0  0  0  0  0  0  0  0  0  0  0
    4.4225   -2.8614    0.0000 C   0  0  0  0  0  0  0  0  0  0  0  0
    5.9203   -2.7797    0.0000 C   0  0  0  0  0  0  0  0  0  0  0  0
    6.5984   -1.4417    0.0000 C   0  0  0  0  0  0  0  0  0  0  0  0
    5.7787   -0.1855    0.0000 C   0  0  0  0  0  0  0  0  0  0  0  0
    1.1493   -0.3524    0.0000 N   0  0  0  0  0  0  0  0  0  0  0  0
   -0.3005    0.0327    0.0000 C   0  0  0  0  0  0  0  0  0  0  0  0
   -1.4642   -0.9138    0.0000 O   0  0  0  0  0  0  0  0  0  0  0  0
   -0.3822    1.5305    0.0000 C   0  0  0  0  0  0  0  0  0  0  0  0
   -0.6084    0.0823    0.0000 C   0  0  0  0  0  0  0  0  0  0  0  0
    1.5902    0.1603    0.0000 O   0  0  0  0  0  0  0  0  0  0  0  0
    2.3858   -1.1113    0.0000 C   0  0  0  0  0  0  0  0  0  0  0  0
    3.8532   -1.4224    0.0000 C   0  0  0  0  0  0  0  0  0  0  0  0
    1.6824   -2.4361    0.0000 O   0  0  0  0  0  0  0  0  0  0  0  0
   -0.2801   -1.3462    0.0000 C   0  0  0  0  0  0  0  0  0  0  0  0
    0.0558   -2.8081    0.0000 O   0  0  0  0  0  0  0  0  0  0  0  0
   -1.3782   -2.3681    0.0000 C   0  0  0  0  0  0  0  0  0  0  0  0
   -2.8544   -2.6341    0.0000 C   0  0  0  0  0  0  0  0  0  0  0  0
   -2.1202   -3.9421    0.0000 C   0  0  0  0  0  0  0  0  0  0  0  0
   -3.8504   -3.7557    0.0000 O   0  0  0  0  0  0  0  0  0  0  0  0
   -4.2401   -2.0597    0.0000 C   0  0  0  0  0  0  0  0  0  0  0  0
   -5.1816   -3.2275    0.0000 O   0  0  0  0  0  0  0  0  0  0  0  0
   -5.0953   -0.8274    0.0000 C   0  0  0  0  0  0  0  0  0  0  0  0
   -6.5187   -1.3007    0.0000 C   0  0  0  0  0  0  0  0  0  0  0  0
   -5.1485    0.6717    0.0000 C   0  0  0  0  0  0  0  0  0  0  0  0
   -4.3828    1.9615    0.0000 C   0  0  0  0  0  0  0  0  0  0  0  0
   -2.8914    1.8008    0.0000 C   0  0  0  0  0  0  0  0  0  0  0  0
   -1.5499    2.4719    0.0000 C   0  0  0  0  0  0  0  0  0  0  0  0
   -1.3184    3.9540    0.0000 C   0  0  0  0  0  0  0  0  0  0  0  0
   -2.4862    4.8955    0.0000 O   0  0  0  0  0  0  0  0  0  0  0  0
  1  2  2  0
  2  3  1  0
  3  4  1  1
  5  3  1  1
  5  6  1  0
  6  7  1  6
  7  8  1  0
  8  9  2  0
  9 10  1  0
 10 11  2  0
 11 12  1  0
 12 13  2  0
  6 14  1  0
 14 15  1  0
 15 16  2  0
 17 15  1  1
 17 18  1  0
 18 19  1  1
 19 20  1  0
 20 21  1  0
 20 22  2  0
 18 23  1  0
 23 24  1  6
 25 24  1  1
 25 26  1  0
 26 27  1  6
 26 28  1  0
 26 29  1  0
 29 30  2  0
 29 31  1  0
 31 32  1  1
 31 33  1  0
 33 34  1  0
 34 35  2  0
 36 35  1  1
 36 37  1  0
 37 38  1  6
 37  2  1  0
 17  5  1  0
 25 23  1  0
 13  8  1  0
 36 17  1  0
M  END
>  <identifier>  (66) 
CNP0172579.2

>  <canonical_smiles>  (66) 
C=C1[C@@H](C)[C@H]2[C@H](CC3=CC=CC=C3)NC(=O)[C@]23[C@H](OC(C)=O)[C@@H]2O[C@H]2[C@@](C)(O)C(=O)[C@@H](C)C/C=C/[C@H]3[C@@H]1O

>  <standard_inchi>  (66) 
InChI=1S/C30H37NO7/c1-15-10-9-13-20-23(33)17(3)16(2)22-21(14-19-11-7-6-8-12-19)31-28(35)30(20,22)27(37-18(4)32)24-26(38-24)29(5,36)25(15)34/h6-9,11-13,15-16,20-24,26-27,33,36H,3,10,14H2,1-2,4-5H3,(H,31,35)/b13-9+/t15-,16+,20-,21-,22-,23+,24+,26+,27+,29-,30-/m0/s1

>  <standard_inchi_key>  (66) 
WHJRAYUHVRYTTH-MQQXPATASA-N

>  <name>  (66) 
19,20-Epoxycytochalasin D

>  <iupac_name>  (66) 
[(1~{R},2~{S},3~{S},5~{R},6~{R},8~{S},10~{E},12~{R},13~{S},15~{S},16~{R},17~{S})-17-benzyl-6,13-dihydroxy-6,8,15-trimethyl-14-methylene-7,19-dioxo-4-oxa-18-azatetracyclo[10.7.0.0^{1,16}.0^{3,5}]nonadec-10-en-2-yl] acetate

>  <annotation_level>  (66) 
5

>  <total_atom_count>  (66) 
75

>  <heavy_atom_count>  (66) 
38

>  <molecular_weight>  (66) 
523.63

>  <exact_molecular_weight>  (66) 
523.257

>  <molecular_formula>  (66) 
C30H37NO7

>  <alogp>  (66) 
2.13

>  <topological_polar_surface_area>  (66) 
125.46

>  <rotatable_bond_count>  (66) 
3

>  <hydrogen_bond_acceptors>  (66) 
7

>  <hydrogen_bond_donors>  (66) 
3

>  <hydrogen_bond_acceptors_lipinski>  (66) 
7

>  <hydrogen_bond_donors_lipinski>  (66) 
3

>  <lipinski_rule_of_five_violations>  (66) 
1

>  <aromatic_rings_count>  (66) 
1

>  <qed_drug_likeliness>  (66) 
0.31

>  <formal_charge>  (66) 
0

>  <fractioncsp3>  (66) 
0.57

>  <number_of_minimal_rings>  (66) 
5

>  <van_der_walls_volume>  (66) 
479.38

>  <contains_sugar>  (66) 
False

>  <contains_ring_sugars>  (66) 
False

>  <contains_linear_sugars>  (66) 
False

>  <murcko_framework>  (66) 
O1C2CCCCC=CC3CCCC4C(NCC34CC12)Cc5ccccc5

>  <np_likeness>  (66) 
2.94

>  <chemical_class>  (66) 
Isoindoles and derivatives

>  <chemical_sub_class>  (66) 
Isoindolines

>  <chemical_super_class>  (66) 
Organoheterocyclic compounds

>  <direct_parent_classification>  (66) 
Isoindolones

>  <np_classifier_pathway>  (66) 
Alkaloids

>  <np_classifier_superclass>  (66) 
Pseudoalkaloids

>  <np_classifier_class>  (66) 
Cytochalasan alkaloids

>  <np_classifier_is_glycoside>  (66) 
False

>  <organisms>  (66) 
Xylaria hypoxylon|Xylaria sp.

>  <collections>  (66) 
EMNPD|KNApSaCK|Latin America dataset|NuBBEDB|Super Natural II|WikiData Natural Products

>  <dois>  (66) 
10.1016/S0040-4020(97)00305-0|10.1590/S0100-40422010001000006

>  <synonyms>  (66) 
19,20-Epoxycytochalasin D|CS-0143454|HY-N8349

>  <cas>  (66) 
nan

$$$$

     RDKit          2D

 34 38  0  0  0  0  0  0  0  0999 V2000
    4.8870   -2.6450    0.0000 C   0  0  0  0  0  0  0  0  0  0  0  0
    3.7711   -1.6426    0.0000 C   0  0  0  0  0  0  0  0  0  0  0  0
    4.0812   -0.1750    0.0000 C   0  0  0  0  0  0  0  0  0  0  0  0
    3.0762    0.9385    0.0000 O   0  0  0  0  0  0  0  0  0  0  0  0
    3.8246    2.2384    0.0000 C   0  0  0  0  0  0  0  0  0  0  0  0
    2.4536    2.8469    0.0000 C   0  0  0  0  0  0  0  0  0  0  0  0
    4.2864    3.6656    0.0000 C   0  0  0  0  0  0  0  0  0  0  0  0
    5.2922    1.9283    0.0000 C   0  0  0  0  0  0  0  0  0  0  0  0
    6.4057    2.9334    0.0000 O   0  0  0  0  0  0  0  0  0  0  0  0
    5.4508    0.4367    0.0000 C   0  0  0  0  0  0  0  0  0  0  0  0
    6.7507   -0.3117    0.0000 O   0  0  0  0  0  0  0  0  0  0  0  0
    2.3450   -2.1078    0.0000 C   0  0  0  0  0  0  0  0  0  0  0  0
    1.8832   -3.5350    0.0000 C   0  0  0  0  0  0  0  0  0  0  0  0
    0.3832   -3.5368    0.0000 C   0  0  0  0  0  0  0  0  0  0  0  0
   -0.0820   -2.1107    0.0000 C   0  0  0  0  0  0  0  0  0  0  0  0
   -1.1955   -3.1158    0.0000 C   0  0  0  0  0  0  0  0  0  0  0  0
   -1.4531   -1.5023    0.0000 C   0  0  0  0  0  0  0  0  0  0  0  0
   -2.6655   -2.3854    0.0000 C   0  0  0  0  0  0  0  0  0  0  0  0
   -4.0366   -1.7769    0.0000 C   0  0  0  0  0  0  0  0  0  0  0  0
   -4.1951   -0.2853    0.0000 C   0  0  0  0  0  0  0  0  0  0  0  0
   -5.5662    0.3231    0.0000 C   0  0  0  0  0  0  0  0  0  0  0  0
   -7.0627    0.4260    0.0000 C   0  0  0  0  0  0  0  0  0  0  0  0
   -5.9273   -1.1327    0.0000 C   0  0  0  0  0  0  0  0  0  0  0  0
   -5.7248    1.8147    0.0000 C   0  0  0  0  0  0  0  0  0  0  0  0
   -7.0958    2.4232    0.0000 O   0  0  0  0  0  0  0  0  0  0  0  0
   -4.5123    2.6979    0.0000 C   0  0  0  0  0  0  0  0  0  0  0  0
   -3.1413    2.0894    0.0000 C   0  0  0  0  0  0  0  0  0  0  0  0
   -2.9827    0.5978    0.0000 C   0  0  0  0  0  0  0  0  0  0  0  0
   -1.7702    1.4809    0.0000 C   0  0  0  0  0  0  0  0  0  0  0  0
   -1.6116   -0.0107    0.0000 C   0  0  0  0  0  0  0  0  0  0  0  0
   -0.3992    0.8725    0.0000 C   0  0  0  0  0  0  0  0  0  0  0  0
    0.9719    0.2640    0.0000 C   0  0  0  0  0  0  0  0  0  0  0  0
    1.1305   -1.2276    0.0000 C   0  0  0  0  0  0  0  0  0  0  0  0
    2.4286   -0.4761    0.0000 C   0  0  0  0  0  0  0  0  0  0  0  0
  2  1  1  6
  2  3  1  0
  3  4  1  0
  4  5  1  0
  5  6  1  0
  5  7  1  0
  5  8  1  0
  8  9  1  1
  8 10  1  0
 10 11  1  1
  2 12  1  0
 12 13  1  6
 13 14  1  0
 14 15  1  0
 15 16  1  1
 15 17  1  0
 17 18  2  0
 18 19  1  0
 20 19  1  1
 20 21  1  0
 21 22  1  0
 21 23  1  0
 21 24  1  0
 24 25  1  6
 24 26  1  0
 26 27  1  0
 27 28  1  0
 28 29  1  1
 28 30  1  0
 30 31  1  1
 31 32  1  0
 32 33  1  0
 33 34  1  6
 10  3  1  0
 33 12  1  0
 33 15  1  0
 30 17  1  0
 28 20  1  0
M  END
>  <identifier>  (67) 
CNP0119487.2

>  <canonical_smiles>  (67) 
C[C@@H](C1OC(C)(C)[C@@H](O)[C@H]1O)[C@@H]1CC[C@]2(C)C3=CC[C@H]4C(C)(C)[C@H](O)CC[C@]4(C)[C@H]3CC[C@@]12C

>  <standard_inchi>  (67) 
InChI=1S/C30H50O4/c1-17(24-23(32)25(33)27(4,5)34-24)18-11-15-30(8)20-9-10-21-26(2,3)22(31)13-14-28(21,6)19(20)12-16-29(18,30)7/h9,17-19,21-25,31-33H,10-16H2,1-8H3/t17-,18+,19+,21+,22-,23+,24?,25+,28-,29+,30-/m1/s1

>  <standard_inchi_key>  (67) 
YOUXXTAYUXXFPG-TWEMMCLTSA-N

>  <name>  (67) 
nan

>  <iupac_name>  (67) 
(3~{S},4~{R})-5-[(1~{R})-1-[(3~{R},5~{R},9~{R},10~{R},13~{S},14~{S},17~{S})-3-hydroxy-4,4,10,13,14-pentamethyl-2,3,5,6,9,11,12,15,16,17-decahydro-1~{H}-cyclopenta[a]phenanthren-17-yl]ethyl]-2,2-dimethyl-tetrahydrofuran-3,4-diol

>  <annotation_level>  (67) 
4

>  <total_atom_count>  (67) 
84

>  <heavy_atom_count>  (67) 
34

>  <molecular_weight>  (67) 
474.73

>  <exact_molecular_weight>  (67) 
474.37091

>  <molecular_formula>  (67) 
C30H50O4

>  <alogp>  (67) 
5.49

>  <topological_polar_surface_area>  (67) 
69.92

>  <rotatable_bond_count>  (67) 
2

>  <hydrogen_bond_acceptors>  (67) 
4

>  <hydrogen_bond_donors>  (67) 
3

>  <hydrogen_bond_acceptors_lipinski>  (67) 
4

>  <hydrogen_bond_donors_lipinski>  (67) 
3

>  <lipinski_rule_of_five_violations>  (67) 
1

>  <aromatic_rings_count>  (67) 
0

>  <qed_drug_likeliness>  (67) 
0.46

>  <formal_charge>  (67) 
0

>  <fractioncsp3>  (67) 
0.93

>  <number_of_minimal_rings>  (67) 
5

>  <van_der_walls_volume>  (67) 
nan

>  <contains_sugar>  (67) 
False

>  <contains_ring_sugars>  (67) 
False

>  <contains_linear_sugars>  (67) 
False

>  <murcko_framework>  (67) 
O1CCCC1CC2CCC3C4=CCC5CCCCC5C4CCC32

>  <np_likeness>  (67) 
3.24

>  <chemical_class>  (67) 
Steroids and steroid derivatives

>  <chemical_sub_class>  (67) 
Hydroxysteroids

>  <chemical_super_class>  (67) 
Lipids and lipid-like molecules

>  <direct_parent_classification>  (67) 
3-hydroxysteroids

>  <np_classifier_pathway>  (67) 
Terpenoids

>  <np_classifier_superclass>  (67) 
Triterpenoids

>  <np_classifier_class>  (67) 
Lanostane, Tirucallane and Euphane triterpenoids

>  <np_classifier_is_glycoside>  (67) 
False

>  <organisms>  (67) 
Cedrela fissilis

>  <collections>  (67) 
Latin America dataset|NuBBEDB|WikiData Natural Products

>  <dois>  (67) 
10.1055/S-0028-1088323|10.1055/s-0028-1088323

>  <synonyms>  (67) 
Iso-odoratol

>  <cas>  (67) 
nan

$$$$

     RDKit          2D

 19 22  0  0  0  0  0  0  0  0999 V2000
   -2.8236   -3.0874    0.0000 C   0  0  0  0  0  0  0  0  0  0  0  0
   -3.0475   -1.6042    0.0000 C   0  0  0  0  0  0  0  0  0  0  0  0
   -4.4440   -1.0565    0.0000 N   0  0  0  0  0  0  0  0  0  0  0  0
   -4.6680    0.4266    0.0000 C   0  0  0  0  0  0  0  0  0  0  0  0
   -3.4955    1.3622    0.0000 C   0  0  0  0  0  0  0  0  0  0  0  0
   -2.0990    0.8146    0.0000 C   0  0  0  0  0  0  0  0  0  0  0  0
   -0.9265    1.7501    0.0000 C   0  0  0  0  0  0  0  0  0  0  0  0
   -1.1505    3.2333    0.0000 C   0  0  0  0  0  0  0  0  0  0  0  0
    0.4699    1.2025    0.0000 C   0  0  0  0  0  0  0  0  0  0  0  0
    0.6939   -0.2807    0.0000 C   0  0  0  0  0  0  0  0  0  0  0  0
   -0.4786   -1.2162    0.0000 C   0  0  0  0  0  0  0  0  0  0  0  0
   -1.8750   -0.6686    0.0000 C   0  0  0  0  0  0  0  0  0  0  0  0
    2.1737   -0.5260    0.0000 C   0  0  0  0  0  0  0  0  0  0  0  0
    2.9816   -1.7898    0.0000 C   0  0  0  0  0  0  0  0  0  0  0  0
    4.4801   -1.7221    0.0000 C   0  0  0  0  0  0  0  0  0  0  0  0
    5.1707   -0.3906    0.0000 C   0  0  0  0  0  0  0  0  0  0  0  0
    4.3628    0.8733    0.0000 C   0  0  0  0  0  0  0  0  0  0  0  0
    2.8643    0.8056    0.0000 C   0  0  0  0  0  0  0  0  0  0  0  0
    1.8113    1.8739    0.0000 N   0  0  0  0  0  0  0  0  0  0  0  0
  1  2  1  0
  2  3  2  0
  3  4  1  0
  4  5  2  0
  5  6  1  0
  6  7  2  0
  7  8  1  0
  7  9  1  0
  9 10  2  0
 10 11  1  0
 11 12  2  0
 10 13  1  0
 13 14  2  0
 14 15  1  0
 15 16  2  0
 16 17  1  0
 17 18  2  0
 18 19  1  0
 12  2  1  0
 18 13  1  0
 12  6  1  0
 19  9  1  0
M  END
>  <identifier>  (68) 
CNP0372888.0

>  <canonical_smiles>  (68) 
CC1=NC=CC2=C(C)C3=C(C=C12)C1=CC=CC=C1N3

>  <standard_inchi>  (68) 
InChI=1S/C17H14N2/c1-10-12-7-8-18-11(2)14(12)9-15-13-5-3-4-6-16(13)19-17(10)15/h3-9,19H,1-2H3

>  <standard_inchi_key>  (68) 
ZIXGXMMUKPLXBB-UHFFFAOYSA-N

>  <name>  (68) 
Olivacine

>  <iupac_name>  (68) 
1,5-dimethyl-6~{H}-pyrido[4,3-b]carbazole

>  <annotation_level>  (68) 
5

>  <total_atom_count>  (68) 
33

>  <heavy_atom_count>  (68) 
19

>  <molecular_weight>  (68) 
246.31

>  <exact_molecular_weight>  (68) 
246.1157

>  <molecular_formula>  (68) 
C17H14N2

>  <alogp>  (68) 
4.49

>  <topological_polar_surface_area>  (68) 
28.68

>  <rotatable_bond_count>  (68) 
0

>  <hydrogen_bond_acceptors>  (68) 
1

>  <hydrogen_bond_donors>  (68) 
1

>  <hydrogen_bond_acceptors_lipinski>  (68) 
1

>  <hydrogen_bond_donors_lipinski>  (68) 
1

>  <lipinski_rule_of_five_violations>  (68) 
0

>  <aromatic_rings_count>  (68) 
4

>  <qed_drug_likeliness>  (68) 
0.49

>  <formal_charge>  (68) 
0

>  <fractioncsp3>  (68) 
0.12

>  <number_of_minimal_rings>  (68) 
4

>  <van_der_walls_volume>  (68) 
225.48

>  <contains_sugar>  (68) 
False

>  <contains_ring_sugars>  (68) 
False

>  <contains_linear_sugars>  (68) 
False

>  <murcko_framework>  (68) 
n1ccc2cc3[nH]c4ccccc4c3cc2c1

>  <np_likeness>  (68) 
0.16

>  <chemical_class>  (68) 
Indoles and derivatives

>  <chemical_sub_class>  (68) 
Carbazoles

>  <chemical_super_class>  (68) 
Organoheterocyclic compounds

>  <direct_parent_classification>  (68) 
Carbazoles

>  <np_classifier_pathway>  (68) 
Alkaloids

>  <np_classifier_superclass>  (68) 
Tryptophan alkaloids

>  <np_classifier_class>  (68) 
Carboline alkaloids

>  <np_classifier_is_glycoside>  (68) 
False

>  <organisms>  (68) 
Adonis mongolica|Aspidosperma campus-belus|Aspidosperma nigricans|Aspidosperma olivaceum|Aspidosperma subincanum|Corchorus capsularis|Corchorus olitorius|Tabernaemontana affinis|Tabernaemontana catharinensis|Tabernaemontana cerifera|Tabernaemontana cymosa|Tabernaemontana heterophylla|Tabernaemontana hystrix|Tabernaemontana lundii|Tabernaemontana psychotriifolia

>  <collections>  (68) 
CMAUP (cCollective molecular activities of useful plants)|ChEBI NPs|Latin America dataset|NPASS|NuBBEDB|TCMDB-Taiwan (Traditional Chinese Medicine database)|TCMID (Traditional Chinese Medicine Integrated Database)|UEFS (Natural Products Databse of the UEFS)|UNPD (Universal Natural Products Database)|WikiData Natural Products|ZINC NP

>  <dois>  (68) 
10.1007/BF00937795|10.1016/0031-9422(95)00050-H|10.1016/0040-4020(61)80021-5|10.1016/0378-8741(84)90046-1|10.1016/S0031-9422(00)84426-X|10.1021/NP50026A012|10.1055/S-0028-1097929|10.1590/1809-43921983132409|10.3109/13880209309082955

>  <synonyms>  (68) 
Olivacine

>  <cas>  (68) 
nan

$$$$

     RDKit          2D

 41 46  0  0  0  0  0  0  0  0999 V2000
    1.9544    1.9408    0.0000 C   0  0  0  0  0  0  0  0  0  0  0  0
    3.1556    1.0423    0.0000 O   0  0  0  0  0  0  0  0  0  0  0  0
    2.9780   -0.4472    0.0000 C   0  0  0  0  0  0  0  0  0  0  0  0
    4.1791   -1.3457    0.0000 C   0  0  0  0  0  0  0  0  0  0  0  0
    5.5578   -0.7548    0.0000 C   0  0  0  0  0  0  0  0  0  0  0  0
    6.7589   -1.6533    0.0000 C   0  0  0  0  0  0  0  0  0  0  0  0
    8.1376   -1.0623    0.0000 O   0  0  0  0  0  0  0  0  0  0  0  0
    8.3152    0.4271    0.0000 C   0  0  0  0  0  0  0  0  0  0  0  0
    9.6939    1.0180    0.0000 C   0  0  0  0  0  0  0  0  0  0  0  0
    9.8714    2.5075    0.0000 C   0  0  0  0  0  0  0  0  0  0  0  0
   11.2501    3.0984    0.0000 O   0  0  0  0  0  0  0  0  0  0  0  0
    8.6703    3.4060    0.0000 C   0  0  0  0  0  0  0  0  0  0  0  0
    7.2916    2.8151    0.0000 C   0  0  0  0  0  0  0  0  0  0  0  0
    7.1141    1.3256    0.0000 C   0  0  0  0  0  0  0  0  0  0  0  0
    5.7354    0.7347    0.0000 C   0  0  0  0  0  0  0  0  0  0  0  0
    4.0015   -2.8351    0.0000 C   0  0  0  0  0  0  0  0  0  0  0  0
    2.6228   -3.4261    0.0000 C   0  0  0  0  0  0  0  0  0  0  0  0
    1.4217   -2.5276    0.0000 C   0  0  0  0  0  0  0  0  0  0  0  0
    0.0430   -3.1185    0.0000 O   0  0  0  0  0  0  0  0  0  0  0  0
   -1.1581   -2.2200    0.0000 C   0  0  0  0  0  0  0  0  0  0  0  0
   -0.9805   -0.7305    0.0000 C   0  0  0  0  0  0  0  0  0  0  0  0
   -2.1816    0.1680    0.0000 C   0  0  0  0  0  0  0  0  0  0  0  0
   -3.5603   -0.4229    0.0000 C   0  0  0  0  0  0  0  0  0  0  0  0
   -4.7614    0.4756    0.0000 C   0  0  0  0  0  0  0  0  0  0  0  0
   -4.5839    1.9650    0.0000 C   0  0  0  0  0  0  0  0  0  0  0  0
   -5.7850    2.8636    0.0000 O   0  0  0  0  0  0  0  0  0  0  0  0
   -7.1637    2.2726    0.0000 C   0  0  0  0  0  0  0  0  0  0  0  0
   -8.3648    3.1711    0.0000 C   0  0  0  0  0  0  0  0  0  0  0  0
   -9.7435    2.5802    0.0000 C   0  0  0  0  0  0  0  0  0  0  0  0
  -10.9446    3.4787    0.0000 O   0  0  0  0  0  0  0  0  0  0  0  0
   -9.9211    1.0908    0.0000 C   0  0  0  0  0  0  0  0  0  0  0  0
   -8.7199    0.1922    0.0000 C   0  0  0  0  0  0  0  0  0  0  0  0
   -7.3412    0.7832    0.0000 C   0  0  0  0  0  0  0  0  0  0  0  0
   -6.1401   -0.1153    0.0000 C   0  0  0  0  0  0  0  0  0  0  0  0
   -3.7379   -1.9124    0.0000 C   0  0  0  0  0  0  0  0  0  0  0  0
   -5.1166   -2.5033    0.0000 O   0  0  0  0  0  0  0  0  0  0  0  0
   -5.2942   -3.9928    0.0000 C   0  0  0  0  0  0  0  0  0  0  0  0
   -2.5368   -2.8109    0.0000 C   0  0  0  0  0  0  0  0  0  0  0  0
   -2.7144   -4.3003    0.0000 O   0  0  0  0  0  0  0  0  0  0  0  0
    1.5993   -1.0381    0.0000 C   0  0  0  0  0  0  0  0  0  0  0  0
    0.3982   -0.1396    0.0000 O   0  0  0  0  0  0  0  0  0  0  0  0
  1  2  1  0
  2  3  1  0
  3  4  2  0
  5  4  1  1
  5  6  1  0
  6  7  1  0
  7  8  1  0
  8  9  2  0
  9 10  1  0
 10 11  1  0
 10 12  2  0
 12 13  1  0
 13 14  2  0
 14 15  1  0
  4 16  1  0
 16 17  2  0
 17 18  1  0
 18 19  1  0
 19 20  1  0
 20 21  2  0
 21 22  1  0
 22 23  2  0
 24 23  1  1
 24 25  1  0
 25 26  1  0
 26 27  1  0
 27 28  2  0
 28 29  1  0
 29 30  1  0
 29 31  2  0
 31 32  1  0
 32 33  2  0
 33 34  1  0
 23 35  1  0
 35 36  1  0
 36 37  1  0
 35 38  2  0
 38 39  1  0
 18 40  2  0
 40 41  1  0
 40  3  1  0
 15  5  1  0
 38 20  1  0
 14  8  1  0
 34 24  1  0
 33 27  1  0
M  END
>  <identifier>  (69) 
CNP0116832.1

>  <canonical_smiles>  (69) 
COC1=C([C@@H]2COC3=CC(O)=CC=C3C2)C=CC(OC2=CC=C([C@@H]3COC4=CC(O)=CC=C4C3)C(OC)=C2O)=C1O

>  <standard_inchi>  (69) 
InChI=1S/C32H30O9/c1-37-31-23(19-11-17-3-5-21(33)13-27(17)39-15-19)7-9-25(29(31)35)41-26-10-8-24(32(38-2)30(26)36)20-12-18-4-6-22(34)14-28(18)40-16-20/h3-10,13-14,19-20,33-36H,11-12,15-16H2,1-2H3/t19-,20-/m0/s1

>  <standard_inchi_key>  (69) 
YNSOGFXHKXTWBP-PMACEKPBSA-N

>  <name>  (69) 
nan

>  <iupac_name>  (69) 
(3~{R})-3-[3-hydroxy-4-[2-hydroxy-4-[(3~{R})-7-hydroxychroman-3-yl]-3-methoxy-phenoxy]-2-methoxy-phenyl]chroman-7-ol

>  <annotation_level>  (69) 
5

>  <total_atom_count>  (69) 
71

>  <heavy_atom_count>  (69) 
41

>  <molecular_weight>  (69) 
558.58

>  <exact_molecular_weight>  (69) 
558.18898

>  <molecular_formula>  (69) 
C32H30O9

>  <alogp>  (69) 
5.76

>  <topological_polar_surface_area>  (69) 
127.07

>  <rotatable_bond_count>  (69) 
6

>  <hydrogen_bond_acceptors>  (69) 
9

>  <hydrogen_bond_donors>  (69) 
4

>  <hydrogen_bond_acceptors_lipinski>  (69) 
9

>  <hydrogen_bond_donors_lipinski>  (69) 
4

>  <lipinski_rule_of_five_violations>  (69) 
2

>  <aromatic_rings_count>  (69) 
4

>  <qed_drug_likeliness>  (69) 
0.23

>  <formal_charge>  (69) 
0

>  <fractioncsp3>  (69) 
0.25

>  <number_of_minimal_rings>  (69) 
6

>  <van_der_walls_volume>  (69) 
486.09

>  <contains_sugar>  (69) 
False

>  <contains_ring_sugars>  (69) 
False

>  <contains_linear_sugars>  (69) 
False

>  <murcko_framework>  (69) 
O(c1ccc(cc1)C2COc3ccccc3C2)c4ccc(cc4)C5COc6ccccc6C5

>  <np_likeness>  (69) 
0.86

>  <chemical_class>  (69) 
Isoflavonoids

>  <chemical_sub_class>  (69) 
O-methylated isoflavonoids

>  <chemical_super_class>  (69) 
Phenylpropanoids and polyketides

>  <direct_parent_classification>  (69) 
2'-O-methylated isoflavonoids

>  <np_classifier_pathway>  (69) 
Shikimates and Phenylpropanoids

>  <np_classifier_superclass>  (69) 
Isoflavonoids

>  <np_classifier_class>  (69) 
Pterocarpan

>  <np_classifier_is_glycoside>  (69) 
False

>  <organisms>  (69) 
Cyclolobium brasiliense|Cyclolobium clausseni|Cyclolobium claussenii

>  <collections>  (69) 
KNApSaCK|Latin America dataset|NPEdia|NuBBEDB|WikiData Natural Products|ZINC NP

>  <dois>  (69) 
10.1016/0031-9422(75)80372-4

>  <synonyms>  (69) 
Biscyclolobin

>  <cas>  (69) 
nan

$$$$

     RDKit          2D

 26 29  0  0  0  0  0  0  0  0999 V2000
   -4.3423    3.9341    0.0000 C   0  0  0  0  0  0  0  0  0  0  0  0
   -4.7762    2.4983    0.0000 O   0  0  0  0  0  0  0  0  0  0  0  0
   -3.7497    1.4045    0.0000 C   0  0  0  0  0  0  0  0  0  0  0  0
   -2.2893    1.7466    0.0000 C   0  0  0  0  0  0  0  0  0  0  0  0
   -1.2627    0.6529    0.0000 C   0  0  0  0  0  0  0  0  0  0  0  0
   -1.6967   -0.7830    0.0000 C   0  0  0  0  0  0  0  0  0  0  0  0
   -3.1572   -1.1251    0.0000 C   0  0  0  0  0  0  0  0  0  0  0  0
   -3.5912   -2.5609    0.0000 O   0  0  0  0  0  0  0  0  0  0  0  0
   -5.0516   -2.9030    0.0000 C   0  0  0  0  0  0  0  0  0  0  0  0
   -4.1837   -0.0313    0.0000 C   0  0  0  0  0  0  0  0  0  0  0  0
   -5.6442   -0.3734    0.0000 O   0  0  0  0  0  0  0  0  0  0  0  0
   -6.6707    0.7203    0.0000 C   0  0  0  0  0  0  0  0  0  0  0  0
   -0.6702   -1.8767    0.0000 C   0  0  0  0  0  0  0  0  0  0  0  0
   -1.1042   -3.3126    0.0000 O   0  0  0  0  0  0  0  0  0  0  0  0
    0.7903   -1.5346    0.0000 C   0  0  0  0  0  0  0  0  0  0  0  0
    1.2242   -0.0988    0.0000 C   0  0  0  0  0  0  0  0  0  0  0  0
    2.6847    0.2433    0.0000 C   0  0  0  0  0  0  0  0  0  0  0  0
    3.1187    1.6792    0.0000 C   0  0  0  0  0  0  0  0  0  0  0  0
    4.5791    2.0213    0.0000 C   0  0  0  0  0  0  0  0  0  0  0  0
    5.6056    0.9275    0.0000 C   0  0  0  0  0  0  0  0  0  0  0  0
    7.1053    0.9585    0.0000 O   0  0  0  0  0  0  0  0  0  0  0  0
    7.5982   -0.4582    0.0000 C   0  0  0  0  0  0  0  0  0  0  0  0
    6.4031   -1.3648    0.0000 O   0  0  0  0  0  0  0  0  0  0  0  0
    5.1717   -0.5083    0.0000 C   0  0  0  0  0  0  0  0  0  0  0  0
    3.7112   -0.8504    0.0000 C   0  0  0  0  0  0  0  0  0  0  0  0
    0.1977    0.9950    0.0000 O   0  0  0  0  0  0  0  0  0  0  0  0
  1  2  1  0
  2  3  1  0
  3  4  2  0
  4  5  1  0
  5  6  2  0
  6  7  1  0
  7  8  1  0
  8  9  1  0
  7 10  2  0
 10 11  1  0
 11 12  1  0
  6 13  1  0
 13 14  2  0
 13 15  1  0
 15 16  2  0
 16 17  1  0
 17 18  2  0
 18 19  1  0
 19 20  2  0
 20 21  1  0
 21 22  1  0
 22 23  1  0
 23 24  1  0
 24 25  2  0
 16 26  1  0
 10  3  1  0
 25 17  1  0
 26  5  1  0
 24 20  1  0
M  END
>  <identifier>  (70) 
CNP0182958.0

>  <canonical_smiles>  (70) 
COC1=CC2=C(C(OC)=C1OC)C(=O)C=C(C1=CC=C3OCOC3=C1)O2

>  <standard_inchi>  (70) 
InChI=1S/C19H16O7/c1-21-16-8-15-17(19(23-3)18(16)22-2)11(20)7-13(26-15)10-4-5-12-14(6-10)25-9-24-12/h4-8H,9H2,1-3H3

>  <standard_inchi_key>  (70) 
UWMIBQBUKOVZNB-UHFFFAOYSA-N

>  <name>  (70) 
Ageconyflavone A

>  <iupac_name>  (70) 
2-(1,3-benzodioxol-5-yl)-5,6,7-trimethoxy-chromen-4-one

>  <annotation_level>  (70) 
5

>  <total_atom_count>  (70) 
42

>  <heavy_atom_count>  (70) 
26

>  <molecular_weight>  (70) 
356.33

>  <exact_molecular_weight>  (70) 
356.0896

>  <molecular_formula>  (70) 
C19H16O7

>  <alogp>  (70) 
3.21

>  <topological_polar_surface_area>  (70) 
76.36

>  <rotatable_bond_count>  (70) 
4

>  <hydrogen_bond_acceptors>  (70) 
7

>  <hydrogen_bond_donors>  (70) 
0

>  <hydrogen_bond_acceptors_lipinski>  (70) 
7

>  <hydrogen_bond_donors_lipinski>  (70) 
0

>  <lipinski_rule_of_five_violations>  (70) 
0

>  <aromatic_rings_count>  (70) 
3

>  <qed_drug_likeliness>  (70) 
0.71

>  <formal_charge>  (70) 
0

>  <fractioncsp3>  (70) 
0.21

>  <number_of_minimal_rings>  (70) 
4

>  <van_der_walls_volume>  (70) 
297.47

>  <contains_sugar>  (70) 
False

>  <contains_ring_sugars>  (70) 
False

>  <contains_linear_sugars>  (70) 
False

>  <murcko_framework>  (70) 
O1c2ccccc2CC=C1c3ccc4OCOc4c3

>  <np_likeness>  (70) 
0.89

>  <chemical_class>  (70) 
Flavonoids

>  <chemical_sub_class>  (70) 
O-methylated flavonoids

>  <chemical_super_class>  (70) 
Phenylpropanoids and polyketides

>  <direct_parent_classification>  (70) 
6-O-methylated flavonoids

>  <np_classifier_pathway>  (70) 
Shikimates and Phenylpropanoids

>  <np_classifier_superclass>  (70) 
Flavonoids

>  <np_classifier_class>  (70) 
Flavones

>  <np_classifier_is_glycoside>  (70) 
False

>  <organisms>  (70) 
Ageratum Conyzoides|Ageratum conyzoides|Ageratum corymbosum|Neoraputia magnifica|Neoraputia paraensis

>  <collections>  (70) 
Australian natural products|KNApSaCK|Latin America dataset|NPEdia|NuBBEDB|Super Natural II|TIPdb (database of Taiwan indigenous plants)|UNPD (Universal Natural Products Database)|VietHerb|WikiData Natural Products|ZINC NP

>  <dois>  (70) 
10.1016/0031-9422(92)83647-H|10.1016/S0031-9422(00)00248-X|10.1016/S0031-9422(00)84523-9|10.1016/s0031-9422(00)84523-9|10.1590/S0103-50532003000300007

>  <synonyms>  (70) 
106636-80-0|3',4'-Methylenedioxy-5,6,7-trimethoxyflavone|5,6,7-trimethoxy-3',4'-methylenedioxyflavone|AgeconyflavoneA|LMPK12111248

>  <cas>  (70) 
106636-80-0

$$$$

     RDKit          2D

 19 20  0  0  0  0  0  0  0  0999 V2000
   -0.6940   -3.7128    0.0000 C   0  0  0  0  0  0  0  0  0  0  0  0
   -1.3234   -2.3512    0.0000 C   0  0  0  0  0  0  0  0  0  0  0  0
   -2.8173   -2.2155    0.0000 C   0  0  0  0  0  0  0  0  0  0  0  0
   -3.4467   -0.8540    0.0000 C   0  0  0  0  0  0  0  0  0  0  0  0
   -2.5822    0.3719    0.0000 C   0  0  0  0  0  0  0  0  0  0  0  0
   -3.2116    1.7334    0.0000 C   0  0  0  0  0  0  0  0  0  0  0  0
   -4.7055    1.8691    0.0000 O   0  0  0  0  0  0  0  0  0  0  0  0
   -1.0884    0.2362    0.0000 C   0  0  0  0  0  0  0  0  0  0  0  0
   -0.2239    1.4620    0.0000 C   0  0  0  0  0  0  0  0  0  0  0  0
   -0.8533    2.8236    0.0000 O   0  0  0  0  0  0  0  0  0  0  0  0
    1.2699    1.3263    0.0000 C   0  0  0  0  0  0  0  0  0  0  0  0
    2.1344    2.5522    0.0000 O   0  0  0  0  0  0  0  0  0  0  0  0
    1.8993   -0.0352    0.0000 C   0  0  0  0  0  0  0  0  0  0  0  0
    3.3932   -0.1709    0.0000 C   0  0  0  0  0  0  0  0  0  0  0  0
    3.5289    1.3229    0.0000 C   0  0  0  0  0  0  0  0  0  0  0  0
    3.2575   -1.6648    0.0000 C   0  0  0  0  0  0  0  0  0  0  0  0
    4.8870   -0.3066    0.0000 O   0  0  0  0  0  0  0  0  0  0  0  0
    1.0349   -1.2611    0.0000 C   0  0  0  0  0  0  0  0  0  0  0  0
   -0.4590   -1.1254    0.0000 C   0  0  0  0  0  0  0  0  0  0  0  0
  1  2  1  0
  2  3  2  0
  3  4  1  0
  4  5  2  0
  5  6  1  0
  6  7  2  0
  5  8  1  0
  8  9  2  0
  9 10  1  0
  9 11  1  0
 11 12  1  0
 11 13  2  0
 13 14  1  0
 14 15  1  0
 14 16  1  0
 14 17  1  0
 13 18  1  0
 18 19  2  0
 19  2  1  0
 19  8  1  0
M  END
>  <identifier>  (71) 
CNP0161902.0

>  <canonical_smiles>  (71) 
CC1=CC=C(C=O)C2=C(O)C(O)=C(C(C)(C)O)C=C12

>  <standard_inchi>  (71) 
InChI=1S/C15H16O4/c1-8-4-5-9(7-16)12-10(8)6-11(15(2,3)19)13(17)14(12)18/h4-7,17-19H,1-3H3

>  <standard_inchi_key>  (71) 
KBVALMFOLUGDBB-UHFFFAOYSA-N

>  <name>  (71) 
nan

>  <iupac_name>  (71) 
7,8-dihydroxy-6-(1-hydroxy-1-methyl-ethyl)-4-methyl-naphthalene-1-carbaldehyde

>  <annotation_level>  (71) 
4

>  <total_atom_count>  (71) 
35

>  <heavy_atom_count>  (71) 
19

>  <molecular_weight>  (71) 
260.29

>  <exact_molecular_weight>  (71) 
260.10486

>  <molecular_formula>  (71) 
C15H16O4

>  <alogp>  (71) 
2.60

>  <topological_polar_surface_area>  (71) 
77.76

>  <rotatable_bond_count>  (71) 
2

>  <hydrogen_bond_acceptors>  (71) 
4

>  <hydrogen_bond_donors>  (71) 
3

>  <hydrogen_bond_acceptors_lipinski>  (71) 
4

>  <hydrogen_bond_donors_lipinski>  (71) 
3

>  <lipinski_rule_of_five_violations>  (71) 
0

>  <aromatic_rings_count>  (71) 
2

>  <qed_drug_likeliness>  (71) 
0.57

>  <formal_charge>  (71) 
0

>  <fractioncsp3>  (71) 
0.27

>  <number_of_minimal_rings>  (71) 
2

>  <van_der_walls_volume>  (71) 
nan

>  <contains_sugar>  (71) 
False

>  <contains_ring_sugars>  (71) 
False

>  <contains_linear_sugars>  (71) 
False

>  <murcko_framework>  (71) 
c1ccc2ccccc2c1

>  <np_likeness>  (71) 
0.84

>  <chemical_class>  (71) 
Naphthalenes

>  <chemical_sub_class>  (71) 
Naphthalenecarboxylic acids and derivatives

>  <chemical_super_class>  (71) 
Benzenoids

>  <direct_parent_classification>  (71) 
Naphthalenecarboxylic acids

>  <np_classifier_pathway>  (71) 
Terpenoids

>  <np_classifier_superclass>  (71) 
Sesquiterpenoids

>  <np_classifier_class>  (71) 
Cadinane sesquiterpenoids

>  <np_classifier_is_glycoside>  (71) 
False

>  <organisms>  (71) 
Emmotum nitens

>  <collections>  (71) 
Latin America dataset|NuBBEDB|Super Natural II|UNPD (Universal Natural Products Database)|WikiData Natural Products|ZINC NP

>  <dois>  (71) 
10.1016/0031-9422(76)85091-1

>  <synonyms>  (71) 
Emmotin-I

>  <cas>  (71) 
nan

$$$$

     RDKit          2D

 20 22  0  0  0  0  0  0  0  0999 V2000
   -6.6268    1.7619    0.0000 C   0  0  0  0  0  0  0  0  0  0  0  0
   -6.0340    0.3840    0.0000 O   0  0  0  0  0  0  0  0  0  0  0  0
   -4.5443    0.2085    0.0000 C   0  0  0  0  0  0  0  0  0  0  0  0
   -3.6475    1.4108    0.0000 C   0  0  0  0  0  0  0  0  0  0  0  0
   -2.1578    1.2353    0.0000 C   0  0  0  0  0  0  0  0  0  0  0  0
   -1.5649   -0.1426    0.0000 C   0  0  0  0  0  0  0  0  0  0  0  0
   -0.0752   -0.3181    0.0000 C   0  0  0  0  0  0  0  0  0  0  0  0
    0.5176   -1.6960    0.0000 C   0  0  0  0  0  0  0  0  0  0  0  0
    2.0073   -1.8716    0.0000 O   0  0  0  0  0  0  0  0  0  0  0  0
    2.9041   -0.6692    0.0000 C   0  0  0  0  0  0  0  0  0  0  0  0
    4.3938   -0.8448    0.0000 C   0  0  0  0  0  0  0  0  0  0  0  0
    5.2907    0.3576    0.0000 C   0  0  0  0  0  0  0  0  0  0  0  0
    6.7804    0.1820    0.0000 O   0  0  0  0  0  0  0  0  0  0  0  0
    4.6979    1.7355    0.0000 C   0  0  0  0  0  0  0  0  0  0  0  0
    3.2082    1.9110    0.0000 C   0  0  0  0  0  0  0  0  0  0  0  0
    2.3113    0.7087    0.0000 C   0  0  0  0  0  0  0  0  0  0  0  0
    0.8216    0.8842    0.0000 C   0  0  0  0  0  0  0  0  0  0  0  0
   -2.4618   -1.3449    0.0000 C   0  0  0  0  0  0  0  0  0  0  0  0
   -1.8690   -2.7228    0.0000 O   0  0  0  0  0  0  0  0  0  0  0  0
   -3.9515   -1.1694    0.0000 C   0  0  0  0  0  0  0  0  0  0  0  0
  1  2  1  0
  2  3  1  0
  3  4  2  0
  4  5  1  0
  5  6  2  0
  7  6  1  1
  7  8  1  0
  8  9  1  0
  9 10  1  0
 10 11  2  0
 11 12  1  0
 12 13  1  0
 12 14  2  0
 14 15  1  0
 15 16  2  0
 16 17  1  0
  6 18  1  0
 18 19  1  0
 18 20  2  0
 20  3  1  0
 17  7  1  0
 16 10  1  0
M  END
>  <identifier>  (72) 
CNP0112992.2

>  <canonical_smiles>  (72) 
COC1=CC=C([C@@H]2COC3=CC(O)=CC=C3C2)C(O)=C1

>  <standard_inchi>  (72) 
InChI=1S/C16H16O4/c1-19-13-4-5-14(15(18)8-13)11-6-10-2-3-12(17)7-16(10)20-9-11/h2-5,7-8,11,17-18H,6,9H2,1H3/t11-/m0/s1

>  <standard_inchi_key>  (72) 
XRVFNNUXNVWYTI-NSHDSACASA-N

>  <name>  (72) 
(-)-Vestitol

>  <iupac_name>  (72) 
(3~{R})-3-(2-hydroxy-4-methoxy-phenyl)chroman-7-ol

>  <annotation_level>  (72) 
5

>  <total_atom_count>  (72) 
36

>  <heavy_atom_count>  (72) 
20

>  <molecular_weight>  (72) 
272.3

>  <exact_molecular_weight>  (72) 
272.10486

>  <molecular_formula>  (72) 
C16H16O4

>  <alogp>  (72) 
2.83

>  <topological_polar_surface_area>  (72) 
58.92

>  <rotatable_bond_count>  (72) 
2

>  <hydrogen_bond_acceptors>  (72) 
4

>  <hydrogen_bond_donors>  (72) 
2

>  <hydrogen_bond_acceptors_lipinski>  (72) 
4

>  <hydrogen_bond_donors_lipinski>  (72) 
2

>  <lipinski_rule_of_five_violations>  (72) 
0

>  <aromatic_rings_count>  (72) 
2

>  <qed_drug_likeliness>  (72) 
0.88

>  <formal_charge>  (72) 
0

>  <fractioncsp3>  (72) 
0.25

>  <number_of_minimal_rings>  (72) 
3

>  <van_der_walls_volume>  (72) 
243.66

>  <contains_sugar>  (72) 
False

>  <contains_ring_sugars>  (72) 
False

>  <contains_linear_sugars>  (72) 
False

>  <murcko_framework>  (72) 
O1c2ccccc2CC(c3ccccc3)C1

>  <np_likeness>  (72) 
1.29

>  <chemical_class>  (72) 
Isoflavonoids

>  <chemical_sub_class>  (72) 
O-methylated isoflavonoids

>  <chemical_super_class>  (72) 
Phenylpropanoids and polyketides

>  <direct_parent_classification>  (72) 
4'-O-methylated isoflavonoids

>  <np_classifier_pathway>  (72) 
Shikimates and Phenylpropanoids

>  <np_classifier_superclass>  (72) 
Isoflavonoids

>  <np_classifier_class>  (72) 
Isoflavanones

>  <np_classifier_is_glycoside>  (72) 
False

>  <organisms>  (72) 
Aframomum amaniense|Alectoria divergens|Aristolochia zollingeriana|Avena sativa|Balanophora involucrata|Bartramia pomiformis|Beilschmiedia anacardioides|Cadophora gregata|Castanea mollissima|Caulis millettiae|Caulis spatholobi|Cedrus libani|Centrolobium tomentosum|Cephalaria grossheimii|Cerinthe minor|Coccus ilicis|Craspidospermum verticillatum|Cyclolobium brasiliense|Cyclolobium clausseni|Cyclolobium claussenii|Dalbergia assamica|Dalbergia candenatensis|Dalbergia odorifera|Dalbergia parviflora|Dalbergia sissoo|Dasycladus vermicularis|Dictyopteris acrostichoides|Dioscorea japonica|Echinops transiliensis|Ehretia dicksonii|Endosamara racemosa|Fraxinus angustifolia subsp. oxycarpa|Gliricidia sepium|Glycyrrhiza Uralensis|Glycyrrhiza pallidiflora|Glycyrrhiza uralensis|Haemanthus amarylloides|Hedysarum polybotrys|Hedysarum theinum|Hypericum ascyron|Isaria felina|Ixeris stolonifera|Justicia paniculata|Khaya ivorensis|Khaya senegalensis|Lantana montevidensis|Larix cajanderi|Lentinus tigrinus|Lotus angustissimus|Lotus corniculatus|Lotus edulis|Lotus japonicus|Lupinus verbasciformis|Maackia amurensis|Medicago rugosa|Medicago rugosa L.|Melaleuca rhaphiophylla|Millettia racemosa|Mitracarpus scaber|Muscari botryoides|Mycena sanguinolenta|Nama hispidum|Olearia pimeleoides|Penicillium paxilli|Pieris napi|Polyporus pini|Pterocarpus soyauxii|Salvia castanea|Senecio renardii|Senecio suaveolens|Senna siamea|Sextonia rubra|Stellaria holostea|Streptomyces lydicus|Streptomyces nobilis|Streptomyces paulus|Teclea gerrardii|Thalictrum flavum|Triaenophora rupestris|Tropicoporus linteus|Vigna angularis|Virola multinervia|Wisteria brachybotrys|liquorice

>  <collections>  (72) 
CMAUP (cCollective molecular activities of useful plants)|ChEBI NPs|KNApSaCK|Latin America dataset|NPASS|NuBBEDB|Phyto4Health|Super Natural II|TCMDB-Taiwan (Traditional Chinese Medicine database)|VietHerb|WikiData Natural Products|ZINC NP

>  <dois>  (72) 
10.1007/S10600-007-0052-Y|10.1016/0031-9422(75)80372-4|10.1016/0031-9422(88)80628-9|10.1016/0305-1978(93)90090-E|10.1016/J.BMC.2009.11.027|10.1016/S0024-3205(02)01864-7|10.1016/S0031-9422(00)81448-X|10.1016/S0031-9422(00)83980-1|10.1016/S0031-9422(00)86904-6|10.1016/S0031-9422(00)97984-6|10.1016/S0367-326X(03)00164-3|10.1021/JF9808731|10.1021/NP070478H|10.1021/NP2004775|10.1021/NP50052A020|10.1021/NP900676Y|10.1021/NP980002L|10.1021/acs.jnatprod.9b00262|10.1021/np50052a020|10.1021/np900676y|10.1023/B:CONC.0000018120.22592.36|10.1055/S-2007-971240|10.1248/BPB.20.865|10.1248/CPB.32.3267|10.1248/CPB.37.979|10.1248/CPB.40.2452|10.1271/BBB.100285|10.1271/BBB1961.51.349

>  <synonyms>  (72) 
(+-)-Vestitol|(3R)-3-(2-hydroxy-4-methoxyphenyl)-3,4-dihydro-2H-1-benzopyran-7-ol|(3R)-3-(2-hydroxy-4-methoxyphenyl)-3,4-dihydro-2H-chromen-7-ol|(3R)-Vestitol, 72'-dihydroxy-4'-methoxyisoflavan|(3S)-3-(2-hydroxy-4-methoxyphenyl)chroman-7-ol|(R)-(-)-Vestitol|(R)-Vestitol|2H-1-BENZOPYRAN-7-OL, 3,4-DIHYDRO-3-(2-HYDROXY-4-METHOXYPHENYL)-, (3R)-|35878-41-2|7,2'-dihydroxy-4'-methoxyisoflavan|9JHS2AVR43|AKOS040762485|CHEBI:80392|CHEMBL479145|DTXSID201318024|FS-9800|NSC782671|Q27149418|UNII-9JHS2AVR43|Vestitol, (-)-

>  <cas>  (72) 
35878-41-2

$$$$

     RDKit          2D

 24 26  0  0  0  0  0  0  0  0999 V2000
   -6.8666    2.0045    0.0000 C   0  0  0  0  0  0  0  0  0  0  0  0
   -6.3262    0.6052    0.0000 O   0  0  0  0  0  0  0  0  0  0  0  0
   -4.8442    0.3736    0.0000 C   0  0  0  0  0  0  0  0  0  0  0  0
   -3.9026    1.5413    0.0000 C   0  0  0  0  0  0  0  0  0  0  0  0
   -2.4206    1.3096    0.0000 C   0  0  0  0  0  0  0  0  0  0  0  0
   -1.8801   -0.0896    0.0000 C   0  0  0  0  0  0  0  0  0  0  0  0
   -0.3981   -0.3213    0.0000 C   0  0  0  0  0  0  0  0  0  0  0  0
    0.1423   -1.7205    0.0000 C   0  0  0  0  0  0  0  0  0  0  0  0
    1.6243   -1.9522    0.0000 O   0  0  0  0  0  0  0  0  0  0  0  0
    2.5659   -0.7845    0.0000 C   0  0  0  0  0  0  0  0  0  0  0  0
    4.0479   -1.0161    0.0000 C   0  0  0  0  0  0  0  0  0  0  0  0
    4.9895    0.1515    0.0000 C   0  0  0  0  0  0  0  0  0  0  0  0
    6.4715   -0.0801    0.0000 O   0  0  0  0  0  0  0  0  0  0  0  0
    7.0119   -1.4794    0.0000 C   0  0  0  0  0  0  0  0  0  0  0  0
    4.4491    1.5508    0.0000 C   0  0  0  0  0  0  0  0  0  0  0  0
    2.9671    1.7824    0.0000 C   0  0  0  0  0  0  0  0  0  0  0  0
    2.4267    3.1817    0.0000 O   0  0  0  0  0  0  0  0  0  0  0  0
    2.0255    0.6148    0.0000 C   0  0  0  0  0  0  0  0  0  0  0  0
    0.5435    0.8464    0.0000 C   0  0  0  0  0  0  0  0  0  0  0  0
    0.0030    2.2457    0.0000 O   0  0  0  0  0  0  0  0  0  0  0  0
   -2.8217   -1.2573    0.0000 C   0  0  0  0  0  0  0  0  0  0  0  0
   -2.2813   -2.6566    0.0000 O   0  0  0  0  0  0  0  0  0  0  0  0
   -3.2229   -3.8242    0.0000 C   0  0  0  0  0  0  0  0  0  0  0  0
   -4.3037   -1.0257    0.0000 C   0  0  0  0  0  0  0  0  0  0  0  0
  1  2  1  0
  2  3  1  0
  3  4  2  0
  4  5  1  0
  5  6  2  0
  6  7  1  0
  7  8  2  0
  8  9  1  0
  9 10  1  0
 10 11  2  0
 11 12  1  0
 12 13  1  0
 13 14  1  0
 12 15  2  0
 15 16  1  0
 16 17  1  0
 16 18  2  0
 18 19  1  0
 19 20  2  0
  6 21  1  0
 21 22  1  0
 22 23  1  0
 21 24  2  0
 24  3  1  0
 19  7  1  0
 18 10  1  0
M  END
>  <identifier>  (73) 
CNP0080586.0

>  <canonical_smiles>  (73) 
COC1=CC=C(C2=COC3=CC(OC)=CC(O)=C3C2=O)C(OC)=C1

>  <standard_inchi>  (73) 
InChI=1S/C18H16O6/c1-21-10-4-5-12(15(7-10)23-3)13-9-24-16-8-11(22-2)6-14(19)17(16)18(13)20/h4-9,19H,1-3H3

>  <standard_inchi_key>  (73) 
CFHCVJYTPSPHJZ-UHFFFAOYSA-N

>  <name>  (73) 
54443-60-6

>  <iupac_name>  (73) 
3-(2,4-dimethoxyphenyl)-5-hydroxy-7-methoxy-chromen-4-one

>  <annotation_level>  (73) 
5

>  <total_atom_count>  (73) 
40

>  <heavy_atom_count>  (73) 
24

>  <molecular_weight>  (73) 
328.32

>  <exact_molecular_weight>  (73) 
328.09469

>  <molecular_formula>  (73) 
C18H16O6

>  <alogp>  (73) 
3.19

>  <topological_polar_surface_area>  (73) 
78.13

>  <rotatable_bond_count>  (73) 
4

>  <hydrogen_bond_acceptors>  (73) 
6

>  <hydrogen_bond_donors>  (73) 
1

>  <hydrogen_bond_acceptors_lipinski>  (73) 
6

>  <hydrogen_bond_donors_lipinski>  (73) 
1

>  <lipinski_rule_of_five_violations>  (73) 
0

>  <aromatic_rings_count>  (73) 
3

>  <qed_drug_likeliness>  (73) 
0.79

>  <formal_charge>  (73) 
0

>  <fractioncsp3>  (73) 
0.17

>  <number_of_minimal_rings>  (73) 
3

>  <van_der_walls_volume>  (73) 
282.29

>  <contains_sugar>  (73) 
False

>  <contains_ring_sugars>  (73) 
False

>  <contains_linear_sugars>  (73) 
False

>  <murcko_framework>  (73) 
O1C=C(c2ccccc2)Cc3ccccc13

>  <np_likeness>  (73) 
0.92

>  <chemical_class>  (73) 
Isoflavonoids

>  <chemical_sub_class>  (73) 
O-methylated isoflavonoids

>  <chemical_super_class>  (73) 
Phenylpropanoids and polyketides

>  <direct_parent_classification>  (73) 
7-O-methylisoflavones

>  <np_classifier_pathway>  (73) 
Shikimates and Phenylpropanoids

>  <np_classifier_superclass>  (73) 
Isoflavonoids

>  <np_classifier_class>  (73) 
Isoflavones

>  <np_classifier_is_glycoside>  (73) 
False

>  <organisms>  (73) 
Nerita albicilla|Virola caducifolia

>  <collections>  (73) 
CMNPD|Latin America dataset|Marine Natural Products|NuBBEDB|WikiData Natural Products|ZINC NP

>  <dois>  (73) 
10.1016/S0031-9422(00)84396-4|10.1039/np9860300001

>  <synonyms>  (73) 
3-(2,4-Dimethoxyphenyl)-5-hydroxy-7-methoxy-4H-1-benzopyran-4-one|3-(2,4-Dimethoxyphenyl)-5-hydroxy-7-methoxy-4H-chromen-4-one #|4H-1-Benzopyran-4-one, 3-(2,4-dimethoxyphenyl)-5-hydroxy-7-methoxy-|5-Hydroxy-72'4'-trimethoxyisoflavone|CFHCVJYTPSPHJZ-UHFFFAOYSA-N|DB-293434|No Data

>  <cas>  (73) 
nan

$$$$

     RDKit          2D

 19 21  0  0  0  0  0  0  0  0999 V2000
    4.3594    2.8221    0.0000 C   0  0  0  0  0  0  0  0  0  0  0  0
    4.1680    1.3343    0.0000 O   0  0  0  0  0  0  0  0  0  0  0  0
    2.7839    0.7562    0.0000 C   0  0  0  0  0  0  0  0  0  0  0  0
    1.5911    1.6659    0.0000 C   0  0  0  0  0  0  0  0  0  0  0  0
    0.2070    1.0877    0.0000 C   0  0  0  0  0  0  0  0  0  0  0  0
   -0.9857    1.9974    0.0000 N   0  0  0  0  0  0  0  0  0  0  0  0
   -2.3698    1.4192    0.0000 C   0  0  0  0  0  0  0  0  0  0  0  0
   -2.5612   -0.0685    0.0000 C   0  0  0  0  0  0  0  0  0  0  0  0
   -4.0353   -0.3462    0.0000 C   0  0  0  0  0  0  0  0  0  0  0  0
   -4.7549    0.9699    0.0000 C   0  0  0  0  0  0  0  0  0  0  0  0
   -3.7256    2.0610    0.0000 O   0  0  0  0  0  0  0  0  0  0  0  0
   -1.3685   -0.9781    0.0000 C   0  0  0  0  0  0  0  0  0  0  0  0
   -1.5599   -2.4659    0.0000 O   0  0  0  0  0  0  0  0  0  0  0  0
   -2.9440   -3.0440    0.0000 C   0  0  0  0  0  0  0  0  0  0  0  0
    0.0156   -0.4000    0.0000 C   0  0  0  0  0  0  0  0  0  0  0  0
    1.2084   -1.3096    0.0000 C   0  0  0  0  0  0  0  0  0  0  0  0
    2.5925   -0.7315    0.0000 C   0  0  0  0  0  0  0  0  0  0  0  0
    3.7852   -1.6411    0.0000 O   0  0  0  0  0  0  0  0  0  0  0  0
    3.5938   -3.1289    0.0000 C   0  0  0  0  0  0  0  0  0  0  0  0
  1  2  1  0
  2  3  1  0
  3  4  2  0
  4  5  1  0
  5  6  2  0
  6  7  1  0
  7  8  2  0
  8  9  1  0
  9 10  2  0
 10 11  1  0
  8 12  1  0
 12 13  1  0
 13 14  1  0
 12 15  2  0
 15 16  1  0
 16 17  2  0
 17 18  1  0
 18 19  1  0
 17  3  1  0
 15  5  1  0
 11  7  1  0
M  END
>  <identifier>  (74) 
CNP0323192.0

>  <canonical_smiles>  (74) 
COC1=CC2=NC3=C(C=CO3)C(OC)=C2C=C1OC

>  <standard_inchi>  (74) 
InChI=1S/C14H13NO4/c1-16-11-6-9-10(7-12(11)17-2)15-14-8(4-5-19-14)13(9)18-3/h4-7H,1-3H3

>  <standard_inchi_key>  (74) 
JBRXRVFXQIKPEA-UHFFFAOYSA-N

>  <name>  (74) 
Kokusaginine

>  <iupac_name>  (74) 
4,6,7-trimethoxyfuro[2,3-b]quinoline

>  <annotation_level>  (74) 
5

>  <total_atom_count>  (74) 
32

>  <heavy_atom_count>  (74) 
19

>  <molecular_weight>  (74) 
259.26

>  <exact_molecular_weight>  (74) 
259.08446

>  <molecular_formula>  (74) 
C14H13NO4

>  <alogp>  (74) 
3.01

>  <topological_polar_surface_area>  (74) 
53.72

>  <rotatable_bond_count>  (74) 
3

>  <hydrogen_bond_acceptors>  (74) 
5

>  <hydrogen_bond_donors>  (74) 
0

>  <hydrogen_bond_acceptors_lipinski>  (74) 
5

>  <hydrogen_bond_donors_lipinski>  (74) 
0

>  <lipinski_rule_of_five_violations>  (74) 
0

>  <aromatic_rings_count>  (74) 
3

>  <qed_drug_likeliness>  (74) 
0.72

>  <formal_charge>  (74) 
0

>  <fractioncsp3>  (74) 
0.21

>  <number_of_minimal_rings>  (74) 
3

>  <van_der_walls_volume>  (74) 
223.84

>  <contains_sugar>  (74) 
False

>  <contains_ring_sugars>  (74) 
False

>  <contains_linear_sugars>  (74) 
False

>  <murcko_framework>  (74) 
n1c2occc2cc3ccccc13

>  <np_likeness>  (74) 
0.70

>  <chemical_class>  (74) 
Quinolines and derivatives

>  <chemical_sub_class>  (74) 
Furanoquinolines

>  <chemical_super_class>  (74) 
Organoheterocyclic compounds

>  <direct_parent_classification>  (74) 
Furanoquinolines

>  <np_classifier_pathway>  (74) 
Alkaloids

>  <np_classifier_superclass>  (74) 
Tryptophan alkaloids

>  <np_classifier_class>  (74) 
Quinoline alkaloids

>  <np_classifier_is_glycoside>  (74) 
False

>  <organisms>  (74) 
Aconitum volubile|Acronychia baeuerlenii|Acronychia laurifolia|Acronychia pedunculata|Acronychia pubescens|Acronychia spp.|Aeollanthus buchnerianus|Allium ramosum|Balfourodendron riedelianum|Boronia anemonifolia|Cassia singueana|Cetorhinus maximus|Choisya ternata|Cladosporium phlei|Clausena anisata|Clausena dunniana|Cynoglossum viridiflorum|Dacrydium fonkii|Daphne tangutica|Derris malaccensis|Dictamnus albus L.|Echium plantagineum|Erigeron acris|Ertela trifolia|Esenbeckia febrifuga|Esenbeckia grandiflora|Esenbeckia leiocarpa|Esenbeckia pilocarpoides|Euodia|Euodia spp.|Euphorbia hirta|Evodia sp.|Flindersia collina|Flindersia maculosa|Flindersia schottiana|Glycosmis angustifolia|Glycosmis cochinchinensis|Glycosmis cyanocarpa|Glycosmis pentaphylla|Halfordia kendack|Halosaccion ramentaceum|Haplophyllum|Haplophyllum buxbaumii|Haplophyllum obtusifolium|Haplophyllum sp.|Haplophyllum spp.|Haplophyllum suaveolens|Haplophyllum thesioides|Haplophyllum vulcanicum|Helianthus niveus|Helietta apiculata|Hernandia sonora|Ilex oblonga|Laurencia glandulifera|Leionema nudum|Leptospermum recurvum|Limonium bicolor|Maclurodendron oligophlebium|Melicope confusa|Melicope erromangensis|Melicope leptococca|Melicope semecarpifolia|Melicope sp|Melicope sp.|Melicope spp.|Melicope triphylla|Oricia suaveolens|Orixa japonica|Orixa japonica Thunb.|Orixa sp|Orixa sp.|Orixa spp.|Pachysandra axillaris|Parmelia damaziana|Peltostigma guatemalense|Pitaviaster haplophyllus|Ptelea aptera|Ptelea trifoliata|Raputiarana heptaphylla|Ruta Graveolens|Ruta chalepensis|Ruta chalepensis L.|Ruta graveolens|Ruta graveolens L.|Rutaceae|Sarcomelicope glauca|Strychnos potatorum|Teclea nobilis|Teclea simplicifolia|Tinospora crispa|Tinospora malabarica|Tinospora sinensis|Tricleocarpa fragilis|Vepris afzelii|Vepris ampody|Vepris heterophylla|Vepris nobilis|Vepris oubanguensis|Vepris pilosa|Vepris punctata|Vepris renieri|Vepris suaveolens|Vepris unifoliolata|Vepris verdoorniana|Vitellaria paradoxa|Zanthoxylum bungeanum

>  <collections>  (74) 
ANPDB|AfroCancer|AfroDB|Australian natural products|CMAUP (cCollective molecular activities of useful plants)|ChEBI NPs|ChemSpider NPs|ConMedNP|KNApSaCK|Latin America dataset|NANPDB (Natural Products from Northern African Sources)|NPASS|NPCARE|NPEdia|NuBBEDB|Phyto4Health|PubChem NPs|Specs Natural Products|Super Natural II|TCMDB-Taiwan (Traditional Chinese Medicine database)|TCMID (Traditional Chinese Medicine Integrated Database)|TIPdb (database of Taiwan indigenous plants)|TPPT (Toxic Plants–PhytoToxins)|UNPD (Universal Natural Products Database)|VietHerb|WikiData Natural Products|ZINC NP

>  <dois>  (74) 
10.1002/ARDP.19783110210|10.1002/CHIN.199005299|10.1002/HLCA.200390259|10.1002/JCCS.200300024|10.1002/PTR.2650080409|10.1002/PTR.2894|10.1002/biuz.19840140514|10.1002/food.19880321030|10.1007/BF00596740|10.1007/BF02857699|10.1007/S007060050230|10.1016/0031-9422(79)80162-4|10.1016/0031-9422(79)80218-6|10.1016/0031-9422(80)80229-9|10.1016/0031-9422(81)85282-X|10.1016/0031-9422(88)83169-8|10.1016/0031-9422(89)80234-1|10.1016/0031-9422(90)85390-2|10.1016/0031-9422(90)89042-8|10.1016/0031-9422(95)00457-I|10.1016/0031-9422(95)00564-1|10.1016/0031-9422(96)00077-5|10.1016/0040-4020(58)88046-1|10.1016/J.FITOTE.2003.08.004|10.1016/J.JPHOTOBIOL.2013.01.006|10.1016/J.PHYMED.2008.02.001|10.1016/J.PHYTOCHEM.2003.09.013|10.1016/J.PHYTOL.2011.08.012|10.1016/S0031-9422(00)83563-3|10.1016/S0031-9422(00)84549-5|10.1016/S0031-9422(00)85006-2|10.1016/S0031-9422(00)85320-0|10.1016/S0031-9422(00)86348-7|10.1016/S0031-9422(00)89294-8|10.1016/S0031-9422(00)89934-3|10.1016/S0031-9422(00)90269-3|10.1016/S0031-9422(99)00039-4|10.1016/S0040-4020(01)90784-7|10.1016/S0040-4020(01)99319-6|10.1016/S0305-1978(96)00067-1|10.1016/j.phytol.2011.08.012|10.1021/JF0259361|10.1021/NP010122K|10.1021/NP020578H|10.1021/NP0303512|10.1021/NP0303512.S001|10.1021/NP50024A012|10.1021/NP50029A021|10.1021/NP50032A026|10.1021/NP50039A034|10.1021/NP800276F|10.1021/jf0259361|10.1021/np010122k|10.1021/np020578h|10.1021/np800276f|10.1039/B707576F|10.1039/P19820000909|10.1039/P19910002261|10.1055/S-0028-1097380|10.1055/S-0028-1100097|10.1055/S-0029-1243116|10.1055/S-2002-32898|10.1055/S-2002-34412|10.1055/S-2003-40637|10.1055/S-2005-871295|10.1055/S-2006-959512|10.1055/S-2007-969588|10.1055/S-2007-969789|10.1071/CH9520412|10.1071/CH9520579|10.1071/CH9540181|10.1071/CH9570480|10.1071/CH9600510|10.1071/CH9610100|10.1071/CH9683075|10.1071/ch20125|10.1071/ch9520412|10.1080/10575639308050059|10.1080/14786410802228439|10.1177/1934578x0600100502|10.1248/CPB.47.1579|10.1248/CPB.59.855|10.1248/CPB.8.377|10.1248/YAKUSHI1881.51.9_707|10.1248/YAKUSHI1947.91.7_782|10.2307/4117899|10.3109/13880208709088132|10.3109/13880209509065379|10.3390/MOLECULES15129205|10.3390/molecules15129205|10.3987/COM-11-12228|10.3987/R-1984-12-2821|10.5586/ASBP.1997.039

>  <synonyms>  (74) 
4,6,7-TRIMETHOXYFURO(2,3-B)QUINOLINE|4,6,7-Trimethoxyfuro[2,3-b]quinoline|4-27-00-02295 (Beilstein Handbook Reference)|484-08-2|6,7-Dimethoxydictamnine|AKOS040734863|BDBM50098783|BRN 0256613|CCRIS 3582|CHEBI:6142|CHEMBL278779|DS-011128|DTXSID60197506|Dictamnine, 6,7-dimethoxy-|FURO(2,3-b)QUINOLINE, 4,6,7-TRIMETHOXY-|Furo[2, 4,6,7-trimethoxy-|Furo[2,3-b]quinoline, 4,6,7-trimethoxy-|HMS2194N12|HMS3328E08|JBRXRVFXQIKPEA-UHFFFAOYSA-N|JG1753DK5H|Kokusaginin|Kokusaginine;6,7-Dimethoxydictamnine|MEGxp0_000038|MLS000574882|NCGC00247607-01|NS00094753|NSC 103013|Q27107100|SCHEMBL23870280|SMR000156276|UNII-JG1753DK5H|XK161821|kokusaginine

>  <cas>  (74) 
484-08-2

$$$$

     RDKit          2D

 17 19  0  0  0  0  0  0  0  0999 V2000
   -0.6191   -2.6687    0.0000 O   0  0  0  0  0  0  0  0  0  0  0  0
   -0.3621   -1.1909    0.0000 C   0  0  0  0  0  0  0  0  0  0  0  0
    1.0462   -0.6744    0.0000 C   0  0  0  0  0  0  0  0  0  0  0  0
    2.1975   -1.6359    0.0000 C   0  0  0  0  0  0  0  0  0  0  0  0
    3.6058   -1.1194    0.0000 C   0  0  0  0  0  0  0  0  0  0  0  0
    3.8628    0.3584    0.0000 C   0  0  0  0  0  0  0  0  0  0  0  0
    5.2711    0.8748    0.0000 O   0  0  0  0  0  0  0  0  0  0  0  0
    2.7114    1.3198    0.0000 C   0  0  0  0  0  0  0  0  0  0  0  0
    1.3031    0.8034    0.0000 C   0  0  0  0  0  0  0  0  0  0  0  0
    0.1517    1.7648    0.0000 O   0  0  0  0  0  0  0  0  0  0  0  0
   -1.2566    1.2484    0.0000 C   0  0  0  0  0  0  0  0  0  0  0  0
   -2.4080    2.2098    0.0000 C   0  0  0  0  0  0  0  0  0  0  0  0
   -3.8163    1.6934    0.0000 C   0  0  0  0  0  0  0  0  0  0  0  0
   -4.0732    0.2155    0.0000 C   0  0  0  0  0  0  0  0  0  0  0  0
   -2.9218   -0.7459    0.0000 C   0  0  0  0  0  0  0  0  0  0  0  0
   -3.1787   -2.2237    0.0000 O   0  0  0  0  0  0  0  0  0  0  0  0
   -1.5135   -0.2295    0.0000 C   0  0  0  0  0  0  0  0  0  0  0  0
  1  2  2  0
  2  3  1  0
  3  4  2  0
  4  5  1  0
  5  6  2  0
  6  7  1  0
  6  8  1  0
  8  9  2  0
  9 10  1  0
 10 11  1  0
 11 12  2  0
 12 13  1  0
 13 14  2  0
 14 15  1  0
 15 16  1  0
 15 17  2  0
 17  2  1  0
  9  3  1  0
 17 11  1  0
M  END
>  <identifier>  (75) 
CNP0311138.0

>  <canonical_smiles>  (75) 
O=C1C2=CC=C(O)C=C2OC2=CC=CC(O)=C12

>  <standard_inchi>  (75) 
InChI=1S/C13H8O4/c14-7-4-5-8-11(6-7)17-10-3-1-2-9(15)12(10)13(8)16/h1-6,14-15H

>  <standard_inchi_key>  (75) 
IUSXGFFUHTXSRD-UHFFFAOYSA-N

>  <name>  (75) 
1,6-Dihydroxyxanthone

>  <iupac_name>  (75) 
1,6-dihydroxyxanthen-9-one

>  <annotation_level>  (75) 
5

>  <total_atom_count>  (75) 
25

>  <heavy_atom_count>  (75) 
17

>  <molecular_weight>  (75) 
228.2

>  <exact_molecular_weight>  (75) 
228.04226

>  <molecular_formula>  (75) 
C13H8O4

>  <alogp>  (75) 
2.36

>  <topological_polar_surface_area>  (75) 
70.67

>  <rotatable_bond_count>  (75) 
0

>  <hydrogen_bond_acceptors>  (75) 
4

>  <hydrogen_bond_donors>  (75) 
2

>  <hydrogen_bond_acceptors_lipinski>  (75) 
4

>  <hydrogen_bond_donors_lipinski>  (75) 
2

>  <lipinski_rule_of_five_violations>  (75) 
0

>  <aromatic_rings_count>  (75) 
3

>  <qed_drug_likeliness>  (75) 
0.58

>  <formal_charge>  (75) 
0

>  <fractioncsp3>  (75) 
0.00

>  <number_of_minimal_rings>  (75) 
3

>  <van_der_walls_volume>  (75) 
185.66

>  <contains_sugar>  (75) 
False

>  <contains_ring_sugars>  (75) 
False

>  <contains_linear_sugars>  (75) 
False

>  <murcko_framework>  (75) 
O1c2ccccc2Cc3ccccc13

>  <np_likeness>  (75) 
1.18

>  <chemical_class>  (75) 
Benzopyrans

>  <chemical_sub_class>  (75) 
1-benzopyrans

>  <chemical_super_class>  (75) 
Organoheterocyclic compounds

>  <direct_parent_classification>  (75) 
Xanthones

>  <np_classifier_pathway>  (75) 
Shikimates and Phenylpropanoids

>  <np_classifier_superclass>  (75) 
Xanthones

>  <np_classifier_class>  (75) 
Plant xanthones

>  <np_classifier_is_glycoside>  (75) 
False

>  <organisms>  (75) 
Garcinia brasiliensis|Garcinia cowa|Garcinia gardneriana|Garcinia griffithii|Garcinia vieillardii|Hypericum Sampsonii|Hypericum japonicum|Hypericum sampsonii|Polygala tenuifolia|Rhachidosorus mesosorus|Rheedia gardneriana|Securidaca Inappendiculata|Securidaca inappendiculata|Securidaca longepedunculata

>  <collections>  (75) 
Australian natural products|CMAUP (cCollective molecular activities of useful plants)|ConMedNP|KNApSaCK|Latin America dataset|NPASS|NuBBEDB|Phyto4Health|Super Natural II|TCMDB-Taiwan (Traditional Chinese Medicine database)|TCMID (Traditional Chinese Medicine Integrated Database)|TIPdb (database of Taiwan indigenous plants)|UNPD (Universal Natural Products Database)|VietHerb|WikiData Natural Products|ZINC NP

>  <dois>  (75) 
10.1016/J.BMC.2013.10.027|10.1016/J.BMCL.2013.08.085|10.1016/J.FITOTE.2006.01.006|10.1016/J.FITOTE.2007.07.005|10.1016/J.LFS.2004.07.009|10.1016/J.PHYTOCHEM.2005.02.025|10.1016/J.PHYTOCHEM.2009.04.024|10.1016/S0031-9422(00)85714-3|10.1016/S0031-9422(01)00356-9|10.1016/j.bmc.2013.10.027|10.1016/j.bmcl.2013.08.085|10.1016/j.phytochem.2019.04.012|10.1139/V09-123|10.1248/CPB.32.4455|10.1248/CPB.52.866

>  <synonyms>  (75) 
1,6-Dihydroxy-9H-xanthen-9-one|1,6-Dihydroxyxanthone|1,6-dihydroxyxanthen-9-one|5042-08-0|CHEMBL459695|DTXSID60420523|IUSXGFFUHTXSRD-UHFFFAOYSA-N|SCHEMBL2316559

>  <cas>  (75) 
5042-08-0

$$$$

     RDKit          2D

 14 15  0  0  0  0  0  0  0  0999 V2000
    3.7042   -1.2601    0.0000 C   0  0  0  0  0  0  0  0  0  0  0  0
    2.8286   -0.0422    0.0000 C   0  0  0  0  0  0  0  0  0  0  0  0
    3.4456    1.3251    0.0000 C   0  0  0  0  0  0  0  0  0  0  0  0
    1.3360   -0.1915    0.0000 C   0  0  0  0  0  0  0  0  0  0  0  0
    0.7191   -1.5587    0.0000 N   0  0  0  0  0  0  0  0  0  0  0  0
   -0.7735   -1.7080    0.0000 C   0  0  0  0  0  0  0  0  0  0  0  0
   -1.3904   -3.0753    0.0000 O   0  0  0  0  0  0  0  0  0  0  0  0
   -1.6490   -0.4901    0.0000 C   0  0  0  0  0  0  0  0  0  0  0  0
   -3.1400   -0.3259    0.0000 C   0  0  0  0  0  0  0  0  0  0  0  0
   -3.4445    1.1429    0.0000 C   0  0  0  0  0  0  0  0  0  0  0  0
   -2.1418    1.8864    0.0000 C   0  0  0  0  0  0  0  0  0  0  0  0
   -1.0321    0.8771    0.0000 N   0  0  0  0  0  0  0  0  0  0  0  0
    0.4605    1.0265    0.0000 C   0  0  0  0  0  0  0  0  0  0  0  0
    1.0774    2.3937    0.0000 O   0  0  0  0  0  0  0  0  0  0  0  0
  1  2  1  0
  2  3  1  0
  4  2  1  6
  4  5  1  0
  5  6  1  0
  6  7  2  0
  6  8  1  0
  8  9  1  6
  9 10  1  0
 10 11  1  0
 11 12  1  0
 12 13  1  0
 13 14  2  0
 13  4  1  0
 12  8  1  0
M  END
>  <identifier>  (76) 
CNP0261443.1

>  <canonical_smiles>  (76) 
CC(C)[C@@H]1NC(=O)[C@@H]2CCCN2C1=O

>  <standard_inchi>  (76) 
InChI=1S/C10H16N2O2/c1-6(2)8-10(14)12-5-3-4-7(12)9(13)11-8/h6-8H,3-5H2,1-2H3,(H,11,13)/t7-,8-/m0/s1

>  <standard_inchi_key>  (76) 
XLUAWXQORJEMBD-YUMQZZPRSA-N

>  <name>  (76) 
cyclo(L-Pro-L-Val)

>  <iupac_name>  (76) 
(3~{S},8~{a}~{S})-3-isopropyl-2,3,6,7,8,8~{a}-hexahydropyrrolo[1,2-a]pyrazine-1,4-dione

>  <annotation_level>  (76) 
5

>  <total_atom_count>  (76) 
30

>  <heavy_atom_count>  (76) 
14

>  <molecular_weight>  (76) 
196.25

>  <exact_molecular_weight>  (76) 
196.12118

>  <molecular_formula>  (76) 
C10H16N2O2

>  <alogp>  (76) 
0.13

>  <topological_polar_surface_area>  (76) 
49.41

>  <rotatable_bond_count>  (76) 
1

>  <hydrogen_bond_acceptors>  (76) 
2

>  <hydrogen_bond_donors>  (76) 
1

>  <hydrogen_bond_acceptors_lipinski>  (76) 
2

>  <hydrogen_bond_donors_lipinski>  (76) 
1

>  <lipinski_rule_of_five_violations>  (76) 
0

>  <aromatic_rings_count>  (76) 
0

>  <qed_drug_likeliness>  (76) 
0.65

>  <formal_charge>  (76) 
0

>  <fractioncsp3>  (76) 
0.80

>  <number_of_minimal_rings>  (76) 
2

>  <van_der_walls_volume>  (76) 
187.46

>  <contains_sugar>  (76) 
False

>  <contains_ring_sugars>  (76) 
False

>  <contains_linear_sugars>  (76) 
False

>  <murcko_framework>  (76) 
N1CCN2CCCC2C1

>  <np_likeness>  (76) 
1.27

>  <chemical_class>  (76) 
Carboxylic acids and derivatives

>  <chemical_sub_class>  (76) 
Amino acids, peptides, and analogues

>  <chemical_super_class>  (76) 
Organic acids and derivatives

>  <direct_parent_classification>  (76) 
Alpha amino acids

>  <np_classifier_pathway>  (76) 
Amino acids and Peptides

>  <np_classifier_superclass>  (76) 
Small peptides

>  <np_classifier_class>  (76) 
Dipeptides

>  <np_classifier_is_glycoside>  (76) 
False

>  <organisms>  (76) 
Aspergillus flavipes|Aspergillus fumigatus|Bacillus cereus|Bacillus litoralis|Chromocleista|Chromocleista sp.|Escherichia coli|Halobacillus litoralis|Hypomyces aurantius|Micrococcus|Ophiocordyceps sinensis|Penicillium|Penicillium cluniae|Penicillium herquei|Penicillium sp.|Penicillium striatisporum|Portulaca oleracea|Pseudomonas aeruginosa|Stelletta clavosa|Streptomyces|Streptomyces M10946|Streptomyces SUK 25|Streptomyces albospinus|Streptomyces albospinus RLe7|Streptomyces asenjonii|Streptomyces asenjonii strain KNN 42.f|Streptomyces fungicidicus|Streptomyces nigra 452T|Streptomyces olivaceus SCSIO T05|Streptomyces puniceus|Streptomyces puniceus Act1085|Streptomyces sp.|Streptomyces sp. (USC-16018)|Streptomyces sp. AGM12-1|Streptomyces xiamenensis MCCC 1A01570|Ulva australis|Ulva pertusa|unidentified bacterium

>  <collections>  (76) 
ANPDB|Australian natural products|CMNPD|ChEBI NPs|ChemSpider NPs|EMNPD|KNApSaCK|Latin America dataset|NANPDB (Natural Products from Northern African Sources)|NuBBEDB|StreptomeDB|Super Natural II|WikiData Natural Products|ZINC NP

>  <dois>  (76) 
10.1002/rcm.3526|10.1007/BF01939910|10.1007/S10600-010-9760-9|10.1007/s10482-015-0492-5|10.1016/J.BMC.2004.07.061|10.1016/J.BMCL.2011.05.002|10.1016/J.BMCL.2015.06.010|10.1016/S0040-4039(02)01458-2|10.1016/j.bmcl.2015.06.010|10.1021/ACS.JNATPROD.6B00870|10.1021/JF0530998|10.1021/NP058087V|10.1021/NP058113P|10.1021/NP100902F|10.1021/NP50106A005|10.1021/NP700751B|10.1021/NP960095B|10.1021/acs.jnatprod.6b00870|10.1021/np0702483|10.1038/S41429-017-0012-0|10.1038/s41429-017-0012-0|10.1039/b415080p|10.1080/10286020.2011.570262|10.1080/13693780802307720|10.1080/14786419.2018.1508148|10.1248/CPB.42.2612|10.1515/ZNC-2009-11-1212|10.1515/znc-2009-11-1212|10.3389/fmicb.2017.00438|10.3389/fmicb.2018.01587|10.3390/MOLECULES24112111|10.3390/md16060189|10.3390/md17080442|10.3390/molecules24112111|10.4014/jmb.1608.08032|10.5582/ddt.2013.v7.6.243|10.7164/ANTIBIOTICS.51.963

>  <synonyms>  (76) 
(3S,8aS)-3-(propan-2-yl)-octahydropyrrolo[1,2-a]piperazine-1,4-dione|(3S,8aS)-3-Isopropylhexahydropyrrolo[1,2-a]pyrazine-1,4-dione|(3S,8aS)-3-propan-2-yl-2,3,6,7,8,8a-hexahydropyrrolo[1,2-a]pyrazine-1,4-dione|2854-40-2|A12384|AKOS006276364|Aspergillus diketopiperazine 10|BDBM163711|CHEBI:69439|CHEMBL499570|CS-0100112|Cyclo L-Pro-L-Val (Fr. 2-1)|Cyclo(-Pro-Val)|DTXSID40426301|EN300-2827110|HY-P1938|J-017121|MFCD03093469|No Data|Pyrrolo[1,2-a]pyrazine-1,4-dione, hexahydro-3-(1-methylethyl)-, (3S,8aS)-|Q27137780|SCHEMBL2042324|XLUAWXQORJEMBD-YUMQZZPRSA-N|cyclo(D)-Pro-(D)-Val|cyclo(L-Pro-L-Val)|cyclo(L-val-L-pro)|cyclo(l-prolyl-l-valyl)|cyclo-Val-Pro-diketopiperazine

>  <cas>  (76) 
2854-40-2

$$$$

     RDKit          2D

 34 38  0  0  0  0  0  0  0  0999 V2000
    6.7977    2.3055    0.0000 C   0  0  0  0  0  0  0  0  0  0  0  0
    7.3960    0.9300    0.0000 C   0  0  0  0  0  0  0  0  0  0  0  0
    7.9943   -0.4456    0.0000 C   0  0  0  0  0  0  0  0  0  0  0  0
    8.7715    1.5282    0.0000 O   0  0  0  0  0  0  0  0  0  0  0  0
    6.0205    0.3317    0.0000 C   0  0  0  0  0  0  0  0  0  0  0  0
    5.8508   -1.1587    0.0000 O   0  0  0  0  0  0  0  0  0  0  0  0
    4.4753   -1.7570    0.0000 C   0  0  0  0  0  0  0  0  0  0  0  0
    3.2694   -0.8648    0.0000 C   0  0  0  0  0  0  0  0  0  0  0  0
    1.8939   -1.4631    0.0000 C   0  0  0  0  0  0  0  0  0  0  0  0
    1.5694   -2.9276    0.0000 C   0  0  0  0  0  0  0  0  0  0  0  0
    0.0763   -3.0715    0.0000 C   0  0  0  0  0  0  0  0  0  0  0  0
   -0.5220   -1.6960    0.0000 C   0  0  0  0  0  0  0  0  0  0  0  0
   -1.5352   -2.8020    0.0000 C   0  0  0  0  0  0  0  0  0  0  0  0
   -1.9445   -1.2202    0.0000 C   0  0  0  0  0  0  0  0  0  0  0  0
   -3.0678   -2.2142    0.0000 C   0  0  0  0  0  0  0  0  0  0  0  0
   -4.4904   -1.7384    0.0000 C   0  0  0  0  0  0  0  0  0  0  0  0
   -4.7896   -0.2686    0.0000 C   0  0  0  0  0  0  0  0  0  0  0  0
   -6.2121    0.2072    0.0000 C   0  0  0  0  0  0  0  0  0  0  0  0
   -7.7116    0.1678    0.0000 C   0  0  0  0  0  0  0  0  0  0  0  0
   -6.4337   -1.2763    0.0000 C   0  0  0  0  0  0  0  0  0  0  0  0
   -6.5113    1.6771    0.0000 C   0  0  0  0  0  0  0  0  0  0  0  0
   -7.9339    2.1529    0.0000 O   0  0  0  0  0  0  0  0  0  0  0  0
   -5.3880    2.6711    0.0000 C   0  0  0  0  0  0  0  0  0  0  0  0
   -3.9655    2.1953    0.0000 C   0  0  0  0  0  0  0  0  0  0  0  0
   -3.6663    0.7255    0.0000 C   0  0  0  0  0  0  0  0  0  0  0  0
   -2.5429    1.7195    0.0000 C   0  0  0  0  0  0  0  0  0  0  0  0
   -2.2437    0.2497    0.0000 C   0  0  0  0  0  0  0  0  0  0  0  0
   -1.1204    1.2437    0.0000 C   0  0  0  0  0  0  0  0  0  0  0  0
    0.3021    0.7679    0.0000 C   0  0  0  0  0  0  0  0  0  0  0  0
    0.6014   -0.7019    0.0000 C   0  0  0  0  0  0  0  0  0  0  0  0
    1.8224    0.1692    0.0000 C   0  0  0  0  0  0  0  0  0  0  0  0
    3.4391    0.6255    0.0000 C   0  0  0  0  0  0  0  0  0  0  0  0
    4.8146    1.2238    0.0000 C   0  0  0  0  0  0  0  0  0  0  0  0
    4.9842    2.7142    0.0000 O   0  0  0  0  0  0  0  0  0  0  0  0
  1  2  1  0
  2  3  1  0
  2  4  1  0
  5  2  1  1
  5  6  1  0
  6  7  1  0
  8  7  1  1
  8  9  1  0
  9 10  1  6
 10 11  1  0
 11 12  1  0
 12 13  1  1
 12 14  1  0
 14 15  2  0
 15 16  1  0
 17 16  1  1
 17 18  1  0
 18 19  1  0
 18 20  1  0
 18 21  1  0
 21 22  2  0
 21 23  1  0
 23 24  1  0
 24 25  1  0
 25 26  1  1
 25 27  1  0
 27 28  1  1
 28 29  1  0
 29 30  1  0
 30 31  1  6
  8 32  1  0
 32 33  1  0
 33 34  1  6
 33  5  1  0
 30  9  1  0
 30 12  1  0
 27 14  1  0
 25 17  1  0
M  END
>  <identifier>  (77) 
CNP0225042.4

>  <canonical_smiles>  (77) 
CC(C)(O)[C@H]1OC[C@@H]([C@@H]2CC[C@]3(C)C4=CC[C@H]5C(C)(C)C(=O)CC[C@]5(C)[C@H]4CC[C@@]23C)C[C@@H]1O

>  <standard_inchi>  (77) 
InChI=1S/C30H48O4/c1-26(2)23-9-8-21-20(28(23,5)13-12-24(26)32)11-15-29(6)19(10-14-30(21,29)7)18-16-22(31)25(34-17-18)27(3,4)33/h8,18-20,22-23,25,31,33H,9-17H2,1-7H3/t18-,19-,20-,22-,23-,25-,28+,29-,30+/m0/s1

>  <standard_inchi_key>  (77) 
RNETYSXHFSDFMM-QTPVUCHESA-N

>  <name>  (77) 
nan

>  <iupac_name>  (77) 
(5~{R},9~{R},10~{R},13~{S},14~{S},17~{S})-17-[(3~{R},5~{S},6~{S})-5-hydroxy-6-(1-hydroxy-1-methyl-ethyl)tetrahydropyran-3-yl]-4,4,10,13,14-pentamethyl-1,2,5,6,9,11,12,15,16,17-decahydrocyclopenta[a]phenanthren-3-one

>  <annotation_level>  (77) 
4

>  <total_atom_count>  (77) 
82

>  <heavy_atom_count>  (77) 
34

>  <molecular_weight>  (77) 
472.71

>  <exact_molecular_weight>  (77) 
472.35526

>  <molecular_formula>  (77) 
C30H48O4

>  <alogp>  (77) 
5.70

>  <topological_polar_surface_area>  (77) 
66.76

>  <rotatable_bond_count>  (77) 
2

>  <hydrogen_bond_acceptors>  (77) 
4

>  <hydrogen_bond_donors>  (77) 
2

>  <hydrogen_bond_acceptors_lipinski>  (77) 
4

>  <hydrogen_bond_donors_lipinski>  (77) 
2

>  <lipinski_rule_of_five_violations>  (77) 
1

>  <aromatic_rings_count>  (77) 
0

>  <qed_drug_likeliness>  (77) 
0.51

>  <formal_charge>  (77) 
0

>  <fractioncsp3>  (77) 
0.90

>  <number_of_minimal_rings>  (77) 
5

>  <van_der_walls_volume>  (77) 
nan

>  <contains_sugar>  (77) 
False

>  <contains_ring_sugars>  (77) 
False

>  <contains_linear_sugars>  (77) 
False

>  <murcko_framework>  (77) 
O1CCCC(C1)C2CCC3C4=CCC5CCCCC5C4CCC32

>  <np_likeness>  (77) 
3.54

>  <chemical_class>  (77) 
Steroids and steroid derivatives

>  <chemical_sub_class>  (77) 
Oxosteroids

>  <chemical_super_class>  (77) 
Lipids and lipid-like molecules

>  <direct_parent_classification>  (77) 
3-oxosteroids

>  <np_classifier_pathway>  (77) 
Terpenoids

>  <np_classifier_superclass>  (77) 
Triterpenoids

>  <np_classifier_class>  (77) 
Lanostane, Tirucallane and Euphane triterpenoids

>  <np_classifier_is_glycoside>  (77) 
False

>  <organisms>  (77) 
Trichilia hirta

>  <collections>  (77) 
Latin America dataset|NuBBEDB|UEFS (Natural Products Databse of the UEFS)|WikiData Natural Products|ZINC NP

>  <dois>  (77) 
10.1016/0031-9422(92)90048-U

>  <synonyms>  (77) 
bourjotinolone A

>  <cas>  (77) 
nan

$$$$

     RDKit          2D

 32 37  0  0  0  0  0  0  0  0999 V2000
   -6.2885   -0.2608    0.0000 C   0  0  0  0  0  0  0  0  0  0  0  0
   -4.8094   -0.0114    0.0000 C   0  0  0  0  0  0  0  0  0  0  0  0
   -4.8206   -1.5114    0.0000 C   0  0  0  0  0  0  0  0  0  0  0  0
   -3.3341   -0.2829    0.0000 C   0  0  0  0  0  0  0  0  0  0  0  0
   -2.8317   -1.6963    0.0000 C   0  0  0  0  0  0  0  0  0  0  0  0
   -1.3564   -1.9678    0.0000 C   0  0  0  0  0  0  0  0  0  0  0  0
   -0.8540   -3.3811    0.0000 O   0  0  0  0  0  0  0  0  0  0  0  0
   -0.3837   -0.8260    0.0000 C   0  0  0  0  0  0  0  0  0  0  0  0
   -1.8589   -0.5544    0.0000 C   0  0  0  0  0  0  0  0  0  0  0  0
   -0.8862    0.5874    0.0000 C   0  0  0  0  0  0  0  0  0  0  0  0
    0.0866    1.7292    0.0000 C   0  0  0  0  0  0  0  0  0  0  0  0
    1.5618    1.4577    0.0000 C   0  0  0  0  0  0  0  0  0  0  0  0
    2.0643    0.0443    0.0000 C   0  0  0  0  0  0  0  0  0  0  0  0
    3.0370    1.1862    0.0000 C   0  0  0  0  0  0  0  0  0  0  0  0
    3.5395   -0.2272    0.0000 C   0  0  0  0  0  0  0  0  0  0  0  0
    4.5123    0.9146    0.0000 C   0  0  0  0  0  0  0  0  0  0  0  0
    4.1603    2.3728    0.0000 C   0  0  0  0  0  0  0  0  0  0  0  0
    5.4383    3.1581    0.0000 O   0  0  0  0  0  0  0  0  0  0  0  0
    6.5801    2.1853    0.0000 C   0  0  0  0  0  0  0  0  0  0  0  0
    6.0078    0.7988    0.0000 C   0  0  0  0  0  0  0  0  0  0  0  0
    4.0420   -1.6405    0.0000 O   0  0  0  0  0  0  0  0  0  0  0  0
    3.0692   -2.7823    0.0000 C   0  0  0  0  0  0  0  0  0  0  0  0
    3.5717   -4.1957    0.0000 O   0  0  0  0  0  0  0  0  0  0  0  0
    1.5940   -2.5108    0.0000 C   0  0  0  0  0  0  0  0  0  0  0  0
    0.1188   -2.2393    0.0000 O   0  0  0  0  0  0  0  0  0  0  0  0
    1.0915   -1.0975    0.0000 C   0  0  0  0  0  0  0  0  0  0  0  0
   -2.3614    0.8589    0.0000 C   0  0  0  0  0  0  0  0  0  0  0  0
   -1.3886    2.0007    0.0000 C   0  0  0  0  0  0  0  0  0  0  0  0
   -2.8638    2.2722    0.0000 C   0  0  0  0  0  0  0  0  0  0  0  0
   -4.3391    2.5438    0.0000 C   0  0  0  0  0  0  0  0  0  0  0  0
   -5.3118    1.4019    0.0000 C   0  0  0  0  0  0  0  0  0  0  0  0
   -6.7870    1.6735    0.0000 O   0  0  0  0  0  0  0  0  0  0  0  0
  1  2  1  0
  2  3  1  0
  2  4  1  0
  4  5  1  0
  5  6  1  0
  6  7  2  0
  6  8  1  0
  8  9  1  1
  8 10  1  0
 10 11  1  0
 11 12  1  0
 12 13  1  0
 13 14  1  6
 13 15  1  0
 15 16  1  6
 16 17  2  0
 17 18  1  0
 18 19  1  0
 19 20  2  0
 15 21  1  0
 21 22  1  0
 22 23  2  0
 22 24  1  0
 24 25  1  1
 26 25  1  1
 10 27  1  0
 27 28  1  1
 27 29  1  0
 29 30  1  0
 30 31  1  0
 31 32  1  1
 31  2  1  0
 27  4  1  0
 26  8  1  0
 26 13  1  0
 20 16  1  0
 26 24  1  0
M  END
>  <identifier>  (78) 
CNP0322622.1

>  <canonical_smiles>  (78) 
CC1(C)C2CC(=O)[C@]3(C)C(CC[C@@]4(C)[C@H](C5=COC=C5)OC(=O)[C@H]5O[C@]543)[C@@]2(C)CC[C@@H]1O

>  <standard_inchi>  (78) 
InChI=1S/C26H34O6/c1-22(2)16-12-18(28)25(5)15(23(16,3)9-7-17(22)27)6-10-24(4)19(14-8-11-30-13-14)31-21(29)20-26(24,25)32-20/h8,11,13,15-17,19-20,27H,6-7,9-10,12H2,1-5H3/t15?,16?,17-,19-,20+,23+,24-,25-,26+/m0/s1

>  <standard_inchi_key>  (78) 
PHTAMFNWUKAAAC-MHKPZZPRSA-N

>  <name>  (78) 
nan

>  <iupac_name>  (78) 
(1~{R},2~{R},4~{S},7~{S},8~{S},12~{S},15~{S})-7-(3-furyl)-15-hydroxy-1,8,12,16,16-pentamethyl-3,6-dioxapentacyclo[9.8.0.0^{2,4}.0^{2,8}.0^{12,17}]nonadecane-5,19-dione

>  <annotation_level>  (78) 
4

>  <total_atom_count>  (78) 
66

>  <heavy_atom_count>  (78) 
32

>  <molecular_weight>  (78) 
442.55

>  <exact_molecular_weight>  (78) 
442.23554

>  <molecular_formula>  (78) 
C26H34O6

>  <alogp>  (78) 
4.21

>  <topological_polar_surface_area>  (78) 
89.27

>  <rotatable_bond_count>  (78) 
1

>  <hydrogen_bond_acceptors>  (78) 
6

>  <hydrogen_bond_donors>  (78) 
1

>  <hydrogen_bond_acceptors_lipinski>  (78) 
6

>  <hydrogen_bond_donors_lipinski>  (78) 
1

>  <lipinski_rule_of_five_violations>  (78) 
0

>  <aromatic_rings_count>  (78) 
1

>  <qed_drug_likeliness>  (78) 
0.52

>  <formal_charge>  (78) 
0

>  <fractioncsp3>  (78) 
0.77

>  <number_of_minimal_rings>  (78) 
6

>  <van_der_walls_volume>  (78) 
nan

>  <contains_sugar>  (78) 
False

>  <contains_ring_sugars>  (78) 
False

>  <contains_linear_sugars>  (78) 
False

>  <murcko_framework>  (78) 
o1ccc(c1)C2OCC3OC34C2CCC5C6CCCCC6CCC54

>  <np_likeness>  (78) 
3.16

>  <chemical_class>  (78) 
Naphthopyrans

>  <chemical_sub_class>  (78) 
Naphthopyrans

>  <chemical_super_class>  (78) 
Organoheterocyclic compounds

>  <direct_parent_classification>  (78) 
Naphthopyrans

>  <np_classifier_pathway>  (78) 
Terpenoids

>  <np_classifier_superclass>  (78) 
Triterpenoids

>  <np_classifier_class>  (78) 
Limonoids

>  <np_classifier_is_glycoside>  (78) 
False

>  <organisms>  (78) 
Carapa guianensis|Cedrela fissilis

>  <collections>  (78) 
Latin America dataset|NuBBEDB|WikiData Natural Products

>  <dois>  (78) 
10.1590/S0103-50532006000300017

>  <synonyms>  (78) 
12-dihydro- 3\u221a\u00e9\u00ac\u2264-hydroxy-7-deacetoxy-7-oxogedunin

>  <cas>  (78) 
nan

$$$$

     RDKit          2D

 30 33  0  0  0  0  0  0  0  0999 V2000
   -8.4289    0.6277    0.0000 C   0  0  0  0  0  0  0  0  0  0  0  0
   -7.4023   -0.4659    0.0000 O   0  0  0  0  0  0  0  0  0  0  0  0
   -5.9419   -0.1237    0.0000 C   0  0  0  0  0  0  0  0  0  0  0  0
   -5.5081    1.3123    0.0000 C   0  0  0  0  0  0  0  0  0  0  0  0
   -4.0476    1.6545    0.0000 C   0  0  0  0  0  0  0  0  0  0  0  0
   -3.0210    0.5609    0.0000 C   0  0  0  0  0  0  0  0  0  0  0  0
   -1.5606    0.9032    0.0000 C   0  0  0  0  0  0  0  0  0  0  0  0
   -1.1268    2.3391    0.0000 C   0  0  0  0  0  0  0  0  0  0  0  0
    0.3336    2.6814    0.0000 C   0  0  0  0  0  0  0  0  0  0  0  0
    0.7674    4.1173    0.0000 O   0  0  0  0  0  0  0  0  0  0  0  0
    1.3603    1.5878    0.0000 C   0  0  0  0  0  0  0  0  0  0  0  0
    2.8207    1.9300    0.0000 C   0  0  0  0  0  0  0  0  0  0  0  0
    3.2545    3.3660    0.0000 O   0  0  0  0  0  0  0  0  0  0  0  0
    3.8473    0.8364    0.0000 C   0  0  0  0  0  0  0  0  0  0  0  0
    3.4136   -0.5995    0.0000 C   0  0  0  0  0  0  0  0  0  0  0  0
    4.4402   -1.6931    0.0000 O   0  0  0  0  0  0  0  0  0  0  0  0
    5.9006   -1.3508    0.0000 C   0  0  0  0  0  0  0  0  0  0  0  0
    7.3900   -1.5287    0.0000 C   0  0  0  0  0  0  0  0  0  0  0  0
    5.9841   -2.8485    0.0000 C   0  0  0  0  0  0  0  0  0  0  0  0
    6.3344    0.0851    0.0000 C   0  0  0  0  0  0  0  0  0  0  0  0
    5.3078    1.1787    0.0000 C   0  0  0  0  0  0  0  0  0  0  0  0
    1.9531   -0.9418    0.0000 C   0  0  0  0  0  0  0  0  0  0  0  0
    1.5193   -2.3777    0.0000 O   0  0  0  0  0  0  0  0  0  0  0  0
    0.0589   -2.7200    0.0000 C   0  0  0  0  0  0  0  0  0  0  0  0
    0.9265    0.1519    0.0000 C   0  0  0  0  0  0  0  0  0  0  0  0
   -0.5339   -0.1904    0.0000 O   0  0  0  0  0  0  0  0  0  0  0  0
   -3.4548   -0.8750    0.0000 C   0  0  0  0  0  0  0  0  0  0  0  0
   -4.9152   -1.2173    0.0000 C   0  0  0  0  0  0  0  0  0  0  0  0
   -5.3490   -2.6532    0.0000 O   0  0  0  0  0  0  0  0  0  0  0  0
   -4.3224   -3.7468    0.0000 C   0  0  0  0  0  0  0  0  0  0  0  0
  1  2  1  0
  2  3  1  0
  3  4  2  0
  4  5  1  0
  5  6  2  0
  6  7  1  0
  7  8  2  0
  8  9  1  0
  9 10  2  0
  9 11  1  0
 11 12  2  0
 12 13  1  0
 12 14  1  0
 14 15  2  0
 15 16  1  0
 16 17  1  0
 17 18  1  0
 17 19  1  0
 17 20  1  0
 20 21  2  0
 15 22  1  0
 22 23  1  0
 23 24  1  0
 22 25  2  0
 25 26  1  0
  6 27  1  0
 27 28  2  0
 28 29  1  0
 29 30  1  0
 28  3  1  0
 26  7  1  0
 25 11  1  0
 21 14  1  0
M  END
>  <identifier>  (79) 
CNP0304866.0

>  <canonical_smiles>  (79) 
COC1=CC=C(C2=CC(=O)C3=C(O)C4=C(OC(C)(C)C=C4)C(OC)=C3O2)C=C1OC

>  <standard_inchi>  (79) 
InChI=1S/C23H22O7/c1-23(2)9-8-13-19(25)18-14(24)11-16(29-21(18)22(28-5)20(13)30-23)12-6-7-15(26-3)17(10-12)27-4/h6-11,25H,1-5H3

>  <standard_inchi_key>  (79) 
DIOIPXZGSXBDJU-UHFFFAOYSA-N

>  <name>  (79) 
nan

>  <iupac_name>  (79) 
8-(3,4-dimethoxyphenyl)-5-hydroxy-10-methoxy-2,2-dimethyl-pyrano[3,2-g]chromen-6-one

>  <annotation_level>  (79) 
4

>  <total_atom_count>  (79) 
52

>  <heavy_atom_count>  (79) 
30

>  <molecular_weight>  (79) 
410.42

>  <exact_molecular_weight>  (79) 
410.13655

>  <molecular_formula>  (79) 
C23H22O7

>  <alogp>  (79) 
4.38

>  <topological_polar_surface_area>  (79) 
87.36

>  <rotatable_bond_count>  (79) 
4

>  <hydrogen_bond_acceptors>  (79) 
7

>  <hydrogen_bond_donors>  (79) 
1

>  <hydrogen_bond_acceptors_lipinski>  (79) 
7

>  <hydrogen_bond_donors_lipinski>  (79) 
1

>  <lipinski_rule_of_five_violations>  (79) 
0

>  <aromatic_rings_count>  (79) 
3

>  <qed_drug_likeliness>  (79) 
0.68

>  <formal_charge>  (79) 
0

>  <fractioncsp3>  (79) 
0.26

>  <number_of_minimal_rings>  (79) 
4

>  <van_der_walls_volume>  (79) 
nan

>  <contains_sugar>  (79) 
False

>  <contains_ring_sugars>  (79) 
False

>  <contains_linear_sugars>  (79) 
False

>  <murcko_framework>  (79) 
O1c2cc3OCC=Cc3cc2CC=C1c4ccccc4

>  <np_likeness>  (79) 
1.97

>  <chemical_class>  (79) 
Flavonoids

>  <chemical_sub_class>  (79) 
Pyranoflavonoids

>  <chemical_super_class>  (79) 
Phenylpropanoids and polyketides

>  <direct_parent_classification>  (79) 
Pyranoflavonoids

>  <np_classifier_pathway>  (79) 
Shikimates and Phenylpropanoids

>  <np_classifier_superclass>  (79) 
Flavonoids

>  <np_classifier_class>  (79) 
Flavones

>  <np_classifier_is_glycoside>  (79) 
False

>  <organisms>  (79) 
Neoraputia alba

>  <collections>  (79) 
Latin America dataset|NuBBEDB|Super Natural II|UNPD (Universal Natural Products Database)|WikiData Natural Products|ZINC NP

>  <dois>  (79) 
10.5935/0103-5053.19930018

>  <synonyms>  (79) 
3'4'8-trimethoxy-5-hydroxy-67-(2''2''-dimethylpyran)-flavone

>  <cas>  (79) 
nan

$$$$

     RDKit          2D

 20 22  0  0  0  0  0  0  0  0999 V2000
    6.0607    2.7620    0.0000 C   0  0  0  0  0  0  0  0  0  0  0  0
    4.5866    2.4843    0.0000 O   0  0  0  0  0  0  0  0  0  0  0  0
    4.0901    1.0688    0.0000 C   0  0  0  0  0  0  0  0  0  0  0  0
    5.0676   -0.0689    0.0000 C   0  0  0  0  0  0  0  0  0  0  0  0
    4.5711   -1.4843    0.0000 C   0  0  0  0  0  0  0  0  0  0  0  0
    5.5486   -2.6220    0.0000 O   0  0  0  0  0  0  0  0  0  0  0  0
    3.0970   -1.7620    0.0000 O   0  0  0  0  0  0  0  0  0  0  0  0
    2.1195   -0.6243    0.0000 C   0  0  0  0  0  0  0  0  0  0  0  0
    0.6454   -0.9020    0.0000 C   0  0  0  0  0  0  0  0  0  0  0  0
   -0.3321    0.2357    0.0000 C   0  0  0  0  0  0  0  0  0  0  0  0
   -1.8062   -0.0420    0.0000 C   0  0  0  0  0  0  0  0  0  0  0  0
   -2.3027   -1.4574    0.0000 C   0  0  0  0  0  0  0  0  0  0  0  0
   -3.7768   -1.7351    0.0000 C   0  0  0  0  0  0  0  0  0  0  0  0
   -4.7543   -0.5974    0.0000 C   0  0  0  0  0  0  0  0  0  0  0  0
   -6.2539   -0.5625    0.0000 O   0  0  0  0  0  0  0  0  0  0  0  0
   -6.6842    0.8744    0.0000 C   0  0  0  0  0  0  0  0  0  0  0  0
   -5.4505    1.7277    0.0000 O   0  0  0  0  0  0  0  0  0  0  0  0
   -4.2578    0.8181    0.0000 C   0  0  0  0  0  0  0  0  0  0  0  0
   -2.7837    1.0958    0.0000 C   0  0  0  0  0  0  0  0  0  0  0  0
    2.6160    0.7911    0.0000 C   0  0  0  0  0  0  0  0  0  0  0  0
  1  2  1  0
  2  3  1  0
  3  4  2  0
  4  5  1  0
  5  6  2  0
  5  7  1  0
  7  8  1  0
  8  9  1  0
  9 10  2  0
 10 11  1  0
 11 12  2  0
 12 13  1  0
 13 14  2  0
 14 15  1  0
 15 16  1  0
 16 17  1  0
 17 18  1  0
 18 19  2  0
  8 20  2  0
 20  3  1  0
 19 11  1  0
 18 14  1  0
M  END
>  <identifier>  (80) 
CNP0236261.1

>  <canonical_smiles>  (80) 
COC1=CC(=O)OC(/C=C/C2=CC=C3OCOC3=C2)=C1

>  <standard_inchi>  (80) 
InChI=1S/C15H12O5/c1-17-12-7-11(20-15(16)8-12)4-2-10-3-5-13-14(6-10)19-9-18-13/h2-8H,9H2,1H3/b4-2+

>  <standard_inchi_key>  (80) 
GLWFCJOUIQRVSV-DUXPYHPUSA-N

>  <name>  (80) 
nan

>  <iupac_name>  (80) 
nan

>  <annotation_level>  (80) 
0

>  <total_atom_count>  (80) 
32

>  <heavy_atom_count>  (80) 
20

>  <molecular_weight>  (80) 
272.26

>  <exact_molecular_weight>  (80) 
272.06847

>  <molecular_formula>  (80) 
C15H12O5

>  <alogp>  (80) 
2.55

>  <topological_polar_surface_area>  (80) 
57.90

>  <rotatable_bond_count>  (80) 
3

>  <hydrogen_bond_acceptors>  (80) 
5

>  <hydrogen_bond_donors>  (80) 
0

>  <hydrogen_bond_acceptors_lipinski>  (80) 
5

>  <hydrogen_bond_donors_lipinski>  (80) 
0

>  <lipinski_rule_of_five_violations>  (80) 
0

>  <aromatic_rings_count>  (80) 
2

>  <qed_drug_likeliness>  (80) 
0.86

>  <formal_charge>  (80) 
0

>  <fractioncsp3>  (80) 
0.13

>  <number_of_minimal_rings>  (80) 
3

>  <van_der_walls_volume>  (80) 
231.98

>  <contains_sugar>  (80) 
False

>  <contains_ring_sugars>  (80) 
False

>  <contains_linear_sugars>  (80) 
False

>  <murcko_framework>  (80) 
O1C(=CC=CC1)C=Cc2ccc3OCOc3c2

>  <np_likeness>  (80) 
0.69

>  <chemical_class>  (80) 
nan

>  <chemical_sub_class>  (80) 
nan

>  <chemical_super_class>  (80) 
nan

>  <direct_parent_classification>  (80) 
nan

>  <np_classifier_pathway>  (80) 
Shikimates and Phenylpropanoids

>  <np_classifier_superclass>  (80) 
Styrylpyrones

>  <np_classifier_class>  (80) 
Kavalactones and derivatives

>  <np_classifier_is_glycoside>  (80) 
False

>  <organisms>  (80) 
Aniba kappleri|Aniba permollis|Aniba riparia|Piper methysticum|Polygala sabulosa|Polygala sellowiana

>  <collections>  (80) 
KNApSaCK|Latin America dataset|NuBBEDB|Super Natural II|TCMDB-Taiwan (Traditional Chinese Medicine database)|WikiData Natural Products|ZINC NP

>  <dois>  (80) 
10.1016/S0031-9422(00)00301-0|10.1016/S0031-9422(00)83890-X|10.1016/S0031-9422(00)97370-9|10.1590/1809-43921982123668

>  <synonyms>  (80) 
nan

>  <cas>  (80) 
nan

$$$$

     RDKit          2D

 29 33  0  0  0  0  0  0  0  0999 V2000
   -7.2310    1.7663    0.0000 C   0  0  0  0  0  0  0  0  0  0  0  0
   -6.0841    0.7996    0.0000 C   0  0  0  0  0  0  0  0  0  0  0  0
   -6.3479   -0.6771    0.0000 C   0  0  0  0  0  0  0  0  0  0  0  0
   -5.2010   -1.6438    0.0000 C   0  0  0  0  0  0  0  0  0  0  0  0
   -3.7903   -1.1339    0.0000 C   0  0  0  0  0  0  0  0  0  0  0  0
   -3.5265    0.3427    0.0000 C   0  0  0  0  0  0  0  0  0  0  0  0
   -4.6734    1.3094    0.0000 C   0  0  0  0  0  0  0  0  0  0  0  0
   -2.1158    0.8525    0.0000 C   0  0  0  0  0  0  0  0  0  0  0  0
   -1.8521    2.3292    0.0000 C   0  0  0  0  0  0  0  0  0  0  0  0
   -0.4414    2.8390    0.0000 C   0  0  0  0  0  0  0  0  0  0  0  0
    0.7055    1.8723    0.0000 C   0  0  0  0  0  0  0  0  0  0  0  0
    2.1162    2.3822    0.0000 O   0  0  0  0  0  0  0  0  0  0  0  0
    0.4417    0.3957    0.0000 C   0  0  0  0  0  0  0  0  0  0  0  0
    1.5887   -0.5711    0.0000 C   0  0  0  0  0  0  0  0  0  0  0  0
    1.3249   -2.0477    0.0000 O   0  0  0  0  0  0  0  0  0  0  0  0
    2.9993   -0.0612    0.0000 C   0  0  0  0  0  0  0  0  0  0  0  0
    4.1462   -1.0280    0.0000 C   0  0  0  0  0  0  0  0  0  0  0  0
    5.5569   -0.5181    0.0000 C   0  0  0  0  0  0  0  0  0  0  0  0
    6.7038   -1.4849    0.0000 C   0  0  0  0  0  0  0  0  0  0  0  0
    8.1145   -0.9750    0.0000 C   0  0  0  0  0  0  0  0  0  0  0  0
    8.3783    0.5016    0.0000 C   0  0  0  0  0  0  0  0  0  0  0  0
    7.2314    1.4684    0.0000 C   0  0  0  0  0  0  0  0  0  0  0  0
    5.8207    0.9585    0.0000 C   0  0  0  0  0  0  0  0  0  0  0  0
   -0.9689   -0.1142    0.0000 C   0  0  0  0  0  0  0  0  0  0  0  0
   -1.2327   -1.5908    0.0000 O   0  0  0  0  0  0  0  0  0  0  0  0
   -2.6434   -2.1007    0.0000 C   0  0  0  0  0  0  0  0  0  0  0  0
   -3.7946   -3.0623    0.0000 C   0  0  0  0  0  0  0  0  0  0  0  0
   -1.8963   -3.4014    0.0000 C   0  0  0  0  0  0  0  0  0  0  0  0
   -3.3287    2.5930    0.0000 O   0  0  0  0  0  0  0  0  0  0  0  0
  1  2  1  0
  2  3  1  0
  3  4  1  0
  4  5  1  0
  5  6  1  0
  6  7  1  0
  6  8  1  0
  8  9  2  0
  9 10  1  0
 10 11  2  0
 11 12  1  0
 11 13  1  0
 13 14  1  0
 14 15  2  0
 14 16  1  0
 16 17  2  0
 17 18  1  0
 18 19  2  0
 19 20  1  0
 20 21  2  0
 21 22  1  0
 22 23  2  0
 13 24  2  0
 24 25  1  0
 25 26  1  0
 26 27  1  0
 26 28  1  0
  9 29  1  0
  7  2  1  0
 24  8  1  0
 29  2  1  0
 26  5  1  0
 23 18  1  0
M  END
>  <identifier>  (81) 
CNP0178343.3

>  <canonical_smiles>  (81) 
CC12CCC3C(C1)C1=C(C=C(O)C(C(=O)/C=C/C4=CC=CC=C4)=C1OC3(C)C)O2

>  <standard_inchi>  (81) 
InChI=1S/C25H26O4/c1-24(2)17-11-12-25(3)14-16(17)21-20(28-25)13-19(27)22(23(21)29-24)18(26)10-9-15-7-5-4-6-8-15/h4-10,13,16-17,27H,11-12,14H2,1-3H3/b10-9+

>  <standard_inchi_key>  (81) 
JBBGZRUAGCHOGS-MDZDMXLPSA-N

>  <name>  (81) 
nan

>  <iupac_name>  (81) 
nan

>  <annotation_level>  (81) 
0

>  <total_atom_count>  (81) 
55

>  <heavy_atom_count>  (81) 
29

>  <molecular_weight>  (81) 
390.48

>  <exact_molecular_weight>  (81) 
390.18311

>  <molecular_formula>  (81) 
C25H26O4

>  <alogp>  (81) 
5.49

>  <topological_polar_surface_area>  (81) 
55.76

>  <rotatable_bond_count>  (81) 
3

>  <hydrogen_bond_acceptors>  (81) 
4

>  <hydrogen_bond_donors>  (81) 
1

>  <hydrogen_bond_acceptors_lipinski>  (81) 
4

>  <hydrogen_bond_donors_lipinski>  (81) 
1

>  <lipinski_rule_of_five_violations>  (81) 
1

>  <aromatic_rings_count>  (81) 
2

>  <qed_drug_likeliness>  (81) 
0.56

>  <formal_charge>  (81) 
0

>  <fractioncsp3>  (81) 
0.40

>  <number_of_minimal_rings>  (81) 
5

>  <van_der_walls_volume>  (81) 
356.18

>  <contains_sugar>  (81) 
False

>  <contains_ring_sugars>  (81) 
False

>  <contains_linear_sugars>  (81) 
False

>  <murcko_framework>  (81) 
O1c2c(ccc3OC4CCC(C1)C(c32)C4)CC=Cc5ccccc5

>  <np_likeness>  (81) 
2.05

>  <chemical_class>  (81) 
nan

>  <chemical_sub_class>  (81) 
nan

>  <chemical_super_class>  (81) 
nan

>  <direct_parent_classification>  (81) 
nan

>  <np_classifier_pathway>  (81) 
Shikimates and Phenylpropanoids

>  <np_classifier_superclass>  (81) 
Flavonoids

>  <np_classifier_class>  (81) 
Chalcones

>  <np_classifier_is_glycoside>  (81) 
False

>  <organisms>  (81) 
Aniba rosaeodora

>  <collections>  (81) 
Latin America dataset|NuBBEDB|WikiData Natural Products

>  <dois>  (81) 
10.1016/S0031-9422(00)89351-6

>  <synonyms>  (81) 
nan

>  <cas>  (81) 
nan

$$$$

     RDKit          2D

 28 30  0  0  0  0  0  0  0  0999 V2000
   -7.4782   -1.9492    0.0000 C   0  0  0  0  0  0  0  0  0  0  0  0
   -5.9866   -2.1085    0.0000 O   0  0  0  0  0  0  0  0  0  0  0  0
   -5.1029   -0.8964    0.0000 C   0  0  0  0  0  0  0  0  0  0  0  0
   -5.7107    0.4749    0.0000 C   0  0  0  0  0  0  0  0  0  0  0  0
   -4.8270    1.6870    0.0000 C   0  0  0  0  0  0  0  0  0  0  0  0
   -3.3355    1.5277    0.0000 C   0  0  0  0  0  0  0  0  0  0  0  0
   -2.4518    2.7397    0.0000 C   0  0  0  0  0  0  0  0  0  0  0  0
   -0.9603    2.5804    0.0000 C   0  0  0  0  0  0  0  0  0  0  0  0
    0.0453    3.6935    0.0000 C   0  0  0  0  0  0  0  0  0  0  0  0
    1.4146    3.0810    0.0000 O   0  0  0  0  0  0  0  0  0  0  0  0
    1.2553    1.5895    0.0000 C   0  0  0  0  0  0  0  0  0  0  0  0
    2.3683    0.5840    0.0000 C   0  0  0  0  0  0  0  0  0  0  0  0
    2.0540   -0.8827    0.0000 C   0  0  0  0  0  0  0  0  0  0  0  0
    3.1670   -1.8883    0.0000 C   0  0  0  0  0  0  0  0  0  0  0  0
    4.5944   -1.4272    0.0000 C   0  0  0  0  0  0  0  0  0  0  0  0
    5.7074   -2.4327    0.0000 O   0  0  0  0  0  0  0  0  0  0  0  0
    5.3931   -3.8994    0.0000 C   0  0  0  0  0  0  0  0  0  0  0  0
    4.9087    0.0395    0.0000 C   0  0  0  0  0  0  0  0  0  0  0  0
    6.3361    0.5007    0.0000 O   0  0  0  0  0  0  0  0  0  0  0  0
    6.6504    1.9674    0.0000 C   0  0  0  0  0  0  0  0  0  0  0  0
    3.7957    1.0451    0.0000 C   0  0  0  0  0  0  0  0  0  0  0  0
   -0.2124    1.2801    0.0000 C   0  0  0  0  0  0  0  0  0  0  0  0
   -0.8249   -0.0892    0.0000 C   0  0  0  0  0  0  0  0  0  0  0  0
    0.0548   -1.3042    0.0000 O   0  0  0  0  0  0  0  0  0  0  0  0
   -2.7277    0.1563    0.0000 C   0  0  0  0  0  0  0  0  0  0  0  0
   -3.6114   -1.0557    0.0000 C   0  0  0  0  0  0  0  0  0  0  0  0
   -3.0036   -2.4270    0.0000 O   0  0  0  0  0  0  0  0  0  0  0  0
   -1.5121   -2.5863    0.0000 C   0  0  0  0  0  0  0  0  0  0  0  0
  1  2  1  0
  2  3  1  0
  3  4  2  0
  4  5  1  0
  5  6  2  0
  6  7  1  0
  8  7  1  1
  8  9  1  0
  9 10  1  0
 10 11  1  0
 11 12  1  6
 12 13  2  0
 13 14  1  0
 14 15  2  0
 15 16  1  0
 16 17  1  0
 15 18  1  0
 18 19  1  0
 19 20  1  0
 18 21  2  0
 11 22  1  0
 22 23  1  1
 23 24  1  0
  6 25  1  0
 25 26  2  0
 26 27  1  0
 27 28  1  0
 26  3  1  0
 22  8  1  0
 21 12  1  0
M  END
>  <identifier>  (82) 
CNP0303070.1

>  <canonical_smiles>  (82) 
COC1=CC=C(C[C@H]2CO[C@H](C3=CC=C(OC)C(OC)=C3)[C@H]2CO)C=C1OC

>  <standard_inchi>  (82) 
InChI=1S/C22H28O6/c1-24-18-7-5-14(10-20(18)26-3)9-16-13-28-22(17(16)12-23)15-6-8-19(25-2)21(11-15)27-4/h5-8,10-11,16-17,22-23H,9,12-13H2,1-4H3/t16-,17-,22+/m0/s1

>  <standard_inchi_key>  (82) 
AYWPHVUFQNWITL-PNLZDCPESA-N

>  <name>  (82) 
67560-68-3

>  <iupac_name>  (82) 
[(2~{S},3~{R},4~{R})-2-(3,4-dimethoxyphenyl)-4-[(3,4-dimethoxyphenyl)methyl]tetrahydrofuran-3-yl]methanol

>  <annotation_level>  (82) 
5

>  <total_atom_count>  (82) 
56

>  <heavy_atom_count>  (82) 
28

>  <molecular_weight>  (82) 
388.46

>  <exact_molecular_weight>  (82) 
388.18859

>  <molecular_formula>  (82) 
C22H28O6

>  <alogp>  (82) 
3.26

>  <topological_polar_surface_area>  (82) 
66.38

>  <rotatable_bond_count>  (82) 
8

>  <hydrogen_bond_acceptors>  (82) 
6

>  <hydrogen_bond_donors>  (82) 
1

>  <hydrogen_bond_acceptors_lipinski>  (82) 
6

>  <hydrogen_bond_donors_lipinski>  (82) 
1

>  <lipinski_rule_of_five_violations>  (82) 
0

>  <aromatic_rings_count>  (82) 
2

>  <qed_drug_likeliness>  (82) 
0.75

>  <formal_charge>  (82) 
0

>  <fractioncsp3>  (82) 
0.46

>  <number_of_minimal_rings>  (82) 
3

>  <van_der_walls_volume>  (82) 
361.50

>  <contains_sugar>  (82) 
False

>  <contains_ring_sugars>  (82) 
False

>  <contains_linear_sugars>  (82) 
False

>  <murcko_framework>  (82) 
O1CC(Cc2ccccc2)CC1c3ccccc3

>  <np_likeness>  (82) 
1.24

>  <chemical_class>  (82) 
Furanoid lignans

>  <chemical_sub_class>  (82) 
Tetrahydrofuran lignans

>  <chemical_super_class>  (82) 
Lignans, neolignans and related compounds

>  <direct_parent_classification>  (82) 
7,9'-epoxylignans

>  <np_classifier_pathway>  (82) 
Shikimates and Phenylpropanoids

>  <np_classifier_superclass>  (82) 
Lignans

>  <np_classifier_class>  (82) 
Furanoid lignans

>  <np_classifier_is_glycoside>  (82) 
False

>  <organisms>  (82) 
Araucaria angustifolia|Berberis koreana|Magnolia biondii|Magnolia fargesii CHENG|Megalochlamys violacea|Monechma ciliatum|Virola michelii

>  <collections>  (82) 
CMAUP (cCollective molecular activities of useful plants)|KNApSaCK|Latin America dataset|NPASS|NPEdia|NuBBEDB|Super Natural II|WikiData Natural Products|ZINC NP

>  <dois>  (82) 
10.1002/MRC.1260230520|10.1016/0031-9422(95)00464-I|10.1016/J.BMCL.2011.02.104|10.1016/S0031-9422(00)89347-4|10.1016/j.bmcl.2011.02.104|10.1248/CPB.55.137

>  <synonyms>  (82) 
(+)-Lariciresinol Dimethyl Ether|(2S,3R,4R)-2-(3,4-Dimethoxyphenyl)-4-[(3,4-dimethoxyphenyl)methyl]tetrahydro-3-furanmethanol; (+)-Lariciresinol dimethyl ether|AKOS040761969|CHEMBL1760590|DTXSID40217892|FS-8946|Lariciresinol dimethyl ether|SCHEMBL17371414|[(2S,3R,4R)-2-(3,4-dimethoxyphenyl)-4-[(3,4-dimethoxyphenyl)methyl]oxolan-3-yl]methanol

>  <cas>  (82) 
nan

$$$$

     RDKit          2D

 23 26  0  0  0  0  0  0  0  0999 V2000
   -6.9006   -1.9603    0.0000 C   0  0  0  0  0  0  0  0  0  0  0  0
   -5.4412   -2.3069    0.0000 O   0  0  0  0  0  0  0  0  0  0  0  0
   -4.4113   -1.2163    0.0000 C   0  0  0  0  0  0  0  0  0  0  0  0
   -4.8408    0.2208    0.0000 C   0  0  0  0  0  0  0  0  0  0  0  0
   -3.8110    1.3114    0.0000 C   0  0  0  0  0  0  0  0  0  0  0  0
   -2.3516    0.9648    0.0000 C   0  0  0  0  0  0  0  0  0  0  0  0
   -1.9220   -0.4724    0.0000 C   0  0  0  0  0  0  0  0  0  0  0  0
   -2.9519   -1.5629    0.0000 C   0  0  0  0  0  0  0  0  0  0  0  0
   -0.4626   -0.8189    0.0000 O   0  0  0  0  0  0  0  0  0  0  0  0
    0.5672    0.2716    0.0000 C   0  0  0  0  0  0  0  0  0  0  0  0
    2.0267   -0.0750    0.0000 C   0  0  0  0  0  0  0  0  0  0  0  0
    2.4562   -1.5121    0.0000 C   0  0  0  0  0  0  0  0  0  0  0  0
    3.9156   -1.8587    0.0000 C   0  0  0  0  0  0  0  0  0  0  0  0
    4.3451   -3.2959    0.0000 O   0  0  0  0  0  0  0  0  0  0  0  0
    4.9455   -0.7681    0.0000 C   0  0  0  0  0  0  0  0  0  0  0  0
    6.4049   -1.1147    0.0000 O   0  0  0  0  0  0  0  0  0  0  0  0
    4.5159    0.6690    0.0000 C   0  0  0  0  0  0  0  0  0  0  0  0
    3.0565    1.0156    0.0000 C   0  0  0  0  0  0  0  0  0  0  0  0
    2.6270    2.4528    0.0000 C   0  0  0  0  0  0  0  0  0  0  0  0
    1.1676    2.7994    0.0000 O   0  0  0  0  0  0  0  0  0  0  0  0
    0.1377    1.7088    0.0000 C   0  0  0  0  0  0  0  0  0  0  0  0
   -1.3217    2.0554    0.0000 C   0  0  0  0  0  0  0  0  0  0  0  0
   -1.7512    3.4926    0.0000 O   0  0  0  0  0  0  0  0  0  0  0  0
  1  2  1  0
  2  3  1  0
  3  4  2  0
  4  5  1  0
  5  6  2  0
  6  7  1  0
  7  8  2  0
  7  9  1  0
 10  9  1  6
 10 11  1  0
 11 12  2  0
 12 13  1  0
 13 14  1  0
 13 15  2  0
 15 16  1  0
 15 17  1  0
 17 18  2  0
 18 19  1  0
 19 20  1  0
 21 20  1  1
 21 22  1  0
 22 23  1  6
  8  3  1  0
 21 10  1  0
 22  6  1  0
 18 11  1  0
M  END
>  <identifier>  (83) 
CNP0242941.1

>  <canonical_smiles>  (83) 
COC1=CC=C2C(=C1)O[C@H]1C3=CC(O)=C(O)C=C3CO[C@@H]1[C@H]2O

>  <standard_inchi>  (83) 
InChI=1S/C17H16O6/c1-21-9-2-3-10-14(5-9)23-16-11-6-13(19)12(18)4-8(11)7-22-17(16)15(10)20/h2-6,15-20H,7H2,1H3/t15-,16-,17+/m0/s1

>  <standard_inchi_key>  (83) 
ITTMSOHPADBFBP-YESZJQIVSA-N

>  <name>  (83) 
nan

>  <iupac_name>  (83) 
(6~{a}~{R},7~{S},12~{a}~{S})-10-methoxy-5,6~{a},7,12~{a}-tetrahydroisochromeno[4,3-b]chromene-2,3,7-triol

>  <annotation_level>  (83) 
4

>  <total_atom_count>  (83) 
39

>  <heavy_atom_count>  (83) 
23

>  <molecular_weight>  (83) 
316.31

>  <exact_molecular_weight>  (83) 
316.09469

>  <molecular_formula>  (83) 
C17H16O6

>  <alogp>  (83) 
2.17

>  <topological_polar_surface_area>  (83) 
88.38

>  <rotatable_bond_count>  (83) 
1

>  <hydrogen_bond_acceptors>  (83) 
6

>  <hydrogen_bond_donors>  (83) 
3

>  <hydrogen_bond_acceptors_lipinski>  (83) 
6

>  <hydrogen_bond_donors_lipinski>  (83) 
3

>  <lipinski_rule_of_five_violations>  (83) 
0

>  <aromatic_rings_count>  (83) 
2

>  <qed_drug_likeliness>  (83) 
0.70

>  <formal_charge>  (83) 
0

>  <fractioncsp3>  (83) 
0.29

>  <number_of_minimal_rings>  (83) 
4

>  <van_der_walls_volume>  (83) 
nan

>  <contains_sugar>  (83) 
False

>  <contains_ring_sugars>  (83) 
False

>  <contains_linear_sugars>  (83) 
False

>  <murcko_framework>  (83) 
O1c2ccccc2CC3OCc4ccccc4C13

>  <np_likeness>  (83) 
1.72

>  <chemical_class>  (83) 
Flavonoids

>  <chemical_sub_class>  (83) 
Pyranoflavonoids

>  <chemical_super_class>  (83) 
Phenylpropanoids and polyketides

>  <direct_parent_classification>  (83) 
Pyranoflavonoids

>  <np_classifier_pathway>  (83) 
Shikimates and Phenylpropanoids

>  <np_classifier_superclass>  (83) 
Flavonoids

>  <np_classifier_class>  (83) 
Flavandiols (Leucoanthocyanidins)

>  <np_classifier_is_glycoside>  (83) 
False

>  <organisms>  (83) 
Peltogyne paniculata

>  <collections>  (83) 
Latin America dataset|NuBBEDB|WikiData Natural Products

>  <dois>  (83) 
10.1016/0031-9422(74)80105-6

>  <synonyms>  (83) 
7-O-methylpeltogynol

>  <cas>  (83) 
nan

$$$$

     RDKit          2D

 29 31  0  0  0  0  0  0  0  0999 V2000
   -6.7984    2.8181    0.0000 C   0  0  0  0  0  0  0  0  0  0  0  0
   -6.4056    1.3705    0.0000 O   0  0  0  0  0  0  0  0  0  0  0  0
   -4.9555    0.9868    0.0000 C   0  0  0  0  0  0  0  0  0  0  0  0
   -3.8982    2.0508    0.0000 C   0  0  0  0  0  0  0  0  0  0  0  0
   -2.4481    1.6671    0.0000 C   0  0  0  0  0  0  0  0  0  0  0  0
   -2.0553    0.2195    0.0000 C   0  0  0  0  0  0  0  0  0  0  0  0
   -0.6052   -0.1642    0.0000 C   0  0  0  0  0  0  0  0  0  0  0  0
   -0.2125   -1.6119    0.0000 C   0  0  0  0  0  0  0  0  0  0  0  0
   -1.2698   -2.6759    0.0000 O   0  0  0  0  0  0  0  0  0  0  0  0
   -2.7199   -2.2922    0.0000 C   0  0  0  0  0  0  0  0  0  0  0  0
    1.2376   -1.9955    0.0000 C   0  0  0  0  0  0  0  0  0  0  0  0
    1.6304   -3.4432    0.0000 O   0  0  0  0  0  0  0  0  0  0  0  0
    2.2950   -0.9316    0.0000 C   0  0  0  0  0  0  0  0  0  0  0  0
    3.7451   -1.3152    0.0000 C   0  0  0  0  0  0  0  0  0  0  0  0
    4.1379   -2.7629    0.0000 O   0  0  0  0  0  0  0  0  0  0  0  0
    5.5880   -3.1466    0.0000 C   0  0  0  0  0  0  0  0  0  0  0  0
    4.8024   -0.2512    0.0000 C   0  0  0  0  0  0  0  0  0  0  0  0
    4.4096    1.1964    0.0000 C   0  0  0  0  0  0  0  0  0  0  0  0
    5.4669    2.2604    0.0000 O   0  0  0  0  0  0  0  0  0  0  0  0
    6.9170    1.8767    0.0000 C   0  0  0  0  0  0  0  0  0  0  0  0
    2.9595    1.5801    0.0000 C   0  0  0  0  0  0  0  0  0  0  0  0
    2.5667    3.0278    0.0000 O   0  0  0  0  0  0  0  0  0  0  0  0
    3.6240    4.0917    0.0000 C   0  0  0  0  0  0  0  0  0  0  0  0
    1.9022    0.5161    0.0000 C   0  0  0  0  0  0  0  0  0  0  0  0
    0.4521    0.8998    0.0000 O   0  0  0  0  0  0  0  0  0  0  0  0
   -3.1127   -0.8445    0.0000 C   0  0  0  0  0  0  0  0  0  0  0  0
   -4.5628   -0.4609    0.0000 C   0  0  0  0  0  0  0  0  0  0  0  0
   -5.6201   -1.5249    0.0000 O   0  0  0  0  0  0  0  0  0  0  0  0
   -7.0702   -1.1412    0.0000 C   0  0  0  0  0  0  0  0  0  0  0  0
  1  2  1  0
  2  3  1  0
  3  4  2  0
  4  5  1  0
  5  6  2  0
  6  7  1  0
  7  8  2  0
  8  9  1  0
  9 10  1  0
  8 11  1  0
 11 12  2  0
 11 13  1  0
 13 14  2  0
 14 15  1  0
 15 16  1  0
 14 17  1  0
 17 18  2  0
 18 19  1  0
 19 20  1  0
 18 21  1  0
 21 22  1  0
 22 23  1  0
 21 24  2  0
 24 25  1  0
  6 26  1  0
 26 27  2  0
 27 28  1  0
 28 29  1  0
 27  3  1  0
 25  7  1  0
 24 13  1  0
M  END
>  <identifier>  (84) 
CNP0360684.0

>  <canonical_smiles>  (84) 
COC1=CC=C(C2=C(OC)C(=O)C3=C(OC)C=C(OC)C(OC)=C3O2)C=C1OC

>  <standard_inchi>  (84) 
InChI=1S/C21H22O8/c1-23-12-8-7-11(9-13(12)24-2)18-21(28-6)17(22)16-14(25-3)10-15(26-4)19(27-5)20(16)29-18/h7-10H,1-6H3

>  <standard_inchi_key>  (84) 
XBZIUXVIWRAJKB-UHFFFAOYSA-N

>  <name>  (84) 
Gossypetin hexamethyl ether

>  <iupac_name>  (84) 
2-(3,4-dimethoxyphenyl)-3,5,7,8-tetramethoxy-chromen-4-one

>  <annotation_level>  (84) 
5

>  <total_atom_count>  (84) 
51

>  <heavy_atom_count>  (84) 
29

>  <molecular_weight>  (84) 
402.4

>  <exact_molecular_weight>  (84) 
402.13147

>  <molecular_formula>  (84) 
C21H22O8

>  <alogp>  (84) 
3.51

>  <topological_polar_surface_area>  (84) 
85.59

>  <rotatable_bond_count>  (84) 
7

>  <hydrogen_bond_acceptors>  (84) 
8

>  <hydrogen_bond_donors>  (84) 
0

>  <hydrogen_bond_acceptors_lipinski>  (84) 
8

>  <hydrogen_bond_donors_lipinski>  (84) 
0

>  <lipinski_rule_of_five_violations>  (84) 
0

>  <aromatic_rings_count>  (84) 
3

>  <qed_drug_likeliness>  (84) 
0.59

>  <formal_charge>  (84) 
0

>  <fractioncsp3>  (84) 
0.29

>  <number_of_minimal_rings>  (84) 
3

>  <van_der_walls_volume>  (84) 
350.14

>  <contains_sugar>  (84) 
False

>  <contains_ring_sugars>  (84) 
False

>  <contains_linear_sugars>  (84) 
False

>  <murcko_framework>  (84) 
O1c2ccccc2CC=C1c3ccccc3

>  <np_likeness>  (84) 
0.88

>  <chemical_class>  (84) 
Flavonoids

>  <chemical_sub_class>  (84) 
O-methylated flavonoids

>  <chemical_super_class>  (84) 
Phenylpropanoids and polyketides

>  <direct_parent_classification>  (84) 
3-O-methylated flavonoids

>  <np_classifier_pathway>  (84) 
Shikimates and Phenylpropanoids

>  <np_classifier_superclass>  (84) 
Flavonoids

>  <np_classifier_class>  (84) 
Flavonols

>  <np_classifier_is_glycoside>  (84) 
False

>  <organisms>  (84) 
Aesculus turbinata|Alnus alnobetula|Argyreia speciosa|Artocarpus styracifolius|Capsella Bursa|Capsella bursa|Capsella bursa-pastoris|Chondodendron toxicoferum|Citrus Sinensis|Citrus aurantium|Citrus hassaku|Citrus medica|Citrus reticulata|Citrus sinensis|Citrus × deliciosa|Dacrydium intermedium|Dickeya chrysanthemi|Dorstenia mannii|Equisetum hyemale|Forsythia giraldiana|Krameria parvifolia|Laurencia nidifica|Lecanora coniza|Melicope triphylla|Murraya Paniculata|Murraya paniculata|Phyllidiella pustulosa|Streptomyces griseolus|Swertia chinensis|Vernonia profuga

>  <collections>  (84) 
Australian natural products|CMAUP (cCollective molecular activities of useful plants)|FooDB|KNApSaCK|Latin America dataset|NPACT|NPASS|NPEdia|NuBBEDB|Super Natural II|TCMDB-Taiwan (Traditional Chinese Medicine database)|TCMID (Traditional Chinese Medicine Integrated Database)|TIPdb (database of Taiwan indigenous plants)|UNPD (Universal Natural Products Database)|VietHerb|WikiData Natural Products

>  <dois>  (84) 
10.1016/J.JPBA.2019.03.056|10.1016/S0031-9422(00)88391-0|10.1016/S0031-9422(97)00598-0|10.1016/s0031-9422(97)00598-0|10.1248/CPB.37.1092|10.1248/CPB.41.714|10.3987/COM-11-12228

>  <synonyms>  (84) 
2-(3,4-Dimethoxyphenyl)-3,5,7,8-tetramethoxy-4H-1-benzopyran-4-one|2-(3,4-dimethoxyphenyl)-3,5,7,8-tetramethoxychromen-4-one|3,3',4',5,7,8-Hexamethoxyflavone|3,5,7,8,3 inverted exclamation marka,4 inverted exclamation marka-Hexamethoxyflavone|3,5,7,8,3',4'-Hexamethoxyflavone|35783'4'-hexamethoxyflavone|4H-1-Benzopyran-4-one, 2-(3,4-dimethoxyphenyl)-3,5,7,8-tetramethoxy-|7741-47-1|CHEBI:175984|CS-0639018|DTXSID60228122|Gossypetin hexamethyl ether|HY-N11166|Hexamethylgossypetin|LMPK12113255|SCHEMBL988273|XBZIUXVIWRAJKB-UHFFFAOYSA-N

>  <cas>  (84) 
7741-47-1

$$$$

     RDKit          2D

 28 30  0  0  0  0  0  0  0  0999 V2000
   -7.0486   -2.6093    0.0000 C   0  0  0  0  0  0  0  0  0  0  0  0
   -5.5682   -2.8512    0.0000 O   0  0  0  0  0  0  0  0  0  0  0  0
   -4.6186   -1.6900    0.0000 C   0  0  0  0  0  0  0  0  0  0  0  0
   -5.1493   -0.2871    0.0000 C   0  0  0  0  0  0  0  0  0  0  0  0
   -4.1997    0.8741    0.0000 C   0  0  0  0  0  0  0  0  0  0  0  0
   -4.7305    2.2770    0.0000 O   0  0  0  0  0  0  0  0  0  0  0  0
   -6.2109    2.5188    0.0000 C   0  0  0  0  0  0  0  0  0  0  0  0
   -2.7194    0.6322    0.0000 C   0  0  0  0  0  0  0  0  0  0  0  0
   -1.7697    1.7934    0.0000 C   0  0  0  0  0  0  0  0  0  0  0  0
   -2.3005    3.1963    0.0000 O   0  0  0  0  0  0  0  0  0  0  0  0
   -0.2894    1.5516    0.0000 C   0  0  0  0  0  0  0  0  0  0  0  0
    0.6602    2.7127    0.0000 O   0  0  0  0  0  0  0  0  0  0  0  0
    0.2414    0.1486    0.0000 C   0  0  0  0  0  0  0  0  0  0  0  0
    1.7218   -0.0932    0.0000 C   0  0  0  0  0  0  0  0  0  0  0  0
    2.2525   -1.4962    0.0000 C   0  0  0  0  0  0  0  0  0  0  0  0
    3.7329   -1.7380    0.0000 C   0  0  0  0  0  0  0  0  0  0  0  0
    4.2637   -3.1409    0.0000 O   0  0  0  0  0  0  0  0  0  0  0  0
    3.3141   -4.3021    0.0000 C   0  0  0  0  0  0  0  0  0  0  0  0
    4.6825   -0.5769    0.0000 C   0  0  0  0  0  0  0  0  0  0  0  0
    6.1629   -0.8187    0.0000 O   0  0  0  0  0  0  0  0  0  0  0  0
    7.1125    0.3425    0.0000 C   0  0  0  0  0  0  0  0  0  0  0  0
    4.1518    0.8261    0.0000 C   0  0  0  0  0  0  0  0  0  0  0  0
    5.1014    1.9872    0.0000 O   0  0  0  0  0  0  0  0  0  0  0  0
    4.5706    3.3902    0.0000 C   0  0  0  0  0  0  0  0  0  0  0  0
    2.6714    1.0679    0.0000 C   0  0  0  0  0  0  0  0  0  0  0  0
   -0.7082   -1.0125    0.0000 O   0  0  0  0  0  0  0  0  0  0  0  0
   -2.1886   -0.7707    0.0000 C   0  0  0  0  0  0  0  0  0  0  0  0
   -3.1382   -1.9318    0.0000 C   0  0  0  0  0  0  0  0  0  0  0  0
  1  2  1  0
  2  3  1  0
  3  4  2  0
  4  5  1  0
  5  6  1  0
  6  7  1  0
  5  8  2  0
  8  9  1  0
  9 10  2  0
  9 11  1  0
 11 12  1  0
 11 13  2  0
 13 14  1  0
 14 15  2  0
 15 16  1  0
 16 17  1  0
 17 18  1  0
 16 19  2  0
 19 20  1  0
 20 21  1  0
 19 22  1  0
 22 23  1  0
 23 24  1  0
 22 25  2  0
 13 26  1  0
 26 27  1  0
 27 28  2  0
 28  3  1  0
 27  8  1  0
 25 14  1  0
M  END
>  <identifier>  (85) 
CNP0274280.0

>  <canonical_smiles>  (85) 
COC1=CC(OC)=C2C(=O)C(O)=C(C3=CC(OC)=C(OC)C(OC)=C3)OC2=C1

>  <standard_inchi>  (85) 
InChI=1S/C20H20O8/c1-23-11-8-12(24-2)16-13(9-11)28-19(18(22)17(16)21)10-6-14(25-3)20(27-5)15(7-10)26-4/h6-9,22H,1-5H3

>  <standard_inchi_key>  (85) 
WNXKIASVAMSBQI-UHFFFAOYSA-N

>  <name>  (85) 
3-Hydroxy-5,7,3',4',5'-pentamethoxyflavone

>  <iupac_name>  (85) 
3-hydroxy-5,7-dimethoxy-2-(3,4,5-trimethoxyphenyl)chromen-4-one

>  <annotation_level>  (85) 
5

>  <total_atom_count>  (85) 
48

>  <heavy_atom_count>  (85) 
28

>  <molecular_weight>  (85) 
388.37

>  <exact_molecular_weight>  (85) 
388.11582

>  <molecular_formula>  (85) 
C20H20O8

>  <alogp>  (85) 
3.21

>  <topological_polar_surface_area>  (85) 
96.59

>  <rotatable_bond_count>  (85) 
6

>  <hydrogen_bond_acceptors>  (85) 
8

>  <hydrogen_bond_donors>  (85) 
1

>  <hydrogen_bond_acceptors_lipinski>  (85) 
8

>  <hydrogen_bond_donors_lipinski>  (85) 
1

>  <lipinski_rule_of_five_violations>  (85) 
0

>  <aromatic_rings_count>  (85) 
3

>  <qed_drug_likeliness>  (85) 
0.69

>  <formal_charge>  (85) 
0

>  <fractioncsp3>  (85) 
0.25

>  <number_of_minimal_rings>  (85) 
3

>  <van_der_walls_volume>  (85) 
332.85

>  <contains_sugar>  (85) 
False

>  <contains_ring_sugars>  (85) 
False

>  <contains_linear_sugars>  (85) 
False

>  <murcko_framework>  (85) 
O1c2ccccc2CC=C1c3ccccc3

>  <np_likeness>  (85) 
1.01

>  <chemical_class>  (85) 
Flavonoids

>  <chemical_sub_class>  (85) 
Flavones

>  <chemical_super_class>  (85) 
Phenylpropanoids and polyketides

>  <direct_parent_classification>  (85) 
Flavonols

>  <np_classifier_pathway>  (85) 
Shikimates and Phenylpropanoids

>  <np_classifier_superclass>  (85) 
Flavonoids

>  <np_classifier_class>  (85) 
Flavonols

>  <np_classifier_is_glycoside>  (85) 
False

>  <organisms>  (85) 
Murraya paniculata

>  <collections>  (85) 
Australian natural products|KNApSaCK|Latin America dataset|NPEdia|NuBBEDB|Super Natural II|TIPdb (database of Taiwan indigenous plants)|UNPD (Universal Natural Products Database)|WikiData Natural Products|ZINC NP

>  <dois>  (85) 
10.1016/S0031-9422(96)00853-9|10.1016/S0031-9422(97)00598-0|10.1016/s0031-9422(96)00853-9|10.1016/s0031-9422(97)00598-0

>  <synonyms>  (85) 
3-Hydroxy-5,7,3',4',5'-pentamethoxyflavone|573'4'5'-pentamethoxyflavone|LMPK12112796|SCHEMBL16894653

>  <cas>  (85) 
nan

$$$$

     RDKit          2D

 26 28  0  0  0  0  0  0  0  0999 V2000
   -5.5905   -3.0100    0.0000 C   0  0  0  0  0  0  0  0  0  0  0  0
   -4.2480   -2.3408    0.0000 O   0  0  0  0  0  0  0  0  0  0  0  0
   -4.1563   -0.8436    0.0000 C   0  0  0  0  0  0  0  0  0  0  0  0
   -5.4071   -0.0156    0.0000 C   0  0  0  0  0  0  0  0  0  0  0  0
   -5.3154    1.4816    0.0000 C   0  0  0  0  0  0  0  0  0  0  0  0
   -6.5661    2.3097    0.0000 O   0  0  0  0  0  0  0  0  0  0  0  0
   -3.9729    2.1508    0.0000 O   0  0  0  0  0  0  0  0  0  0  0  0
   -2.7221    1.3228    0.0000 C   0  0  0  0  0  0  0  0  0  0  0  0
   -1.3797    1.9919    0.0000 C   0  0  0  0  0  0  0  0  0  0  0  0
   -0.1289    1.1639    0.0000 C   0  0  0  0  0  0  0  0  0  0  0  0
    1.2135    1.8331    0.0000 O   0  0  0  0  0  0  0  0  0  0  0  0
    2.4643    1.0050    0.0000 C   0  0  0  0  0  0  0  0  0  0  0  0
    2.3726   -0.4921    0.0000 O   0  0  0  0  0  0  0  0  0  0  0  0
    3.6233   -1.3202    0.0000 C   0  0  0  0  0  0  0  0  0  0  0  0
    3.5316   -2.8174    0.0000 C   0  0  0  0  0  0  0  0  0  0  0  0
    2.1891   -3.4865    0.0000 O   0  0  0  0  0  0  0  0  0  0  0  0
    4.9658   -0.6510    0.0000 C   0  0  0  0  0  0  0  0  0  0  0  0
    6.2165   -1.4790    0.0000 O   0  0  0  0  0  0  0  0  0  0  0  0
    5.0575    0.8462    0.0000 C   0  0  0  0  0  0  0  0  0  0  0  0
    6.4000    1.5154    0.0000 O   0  0  0  0  0  0  0  0  0  0  0  0
    3.8068    1.6742    0.0000 C   0  0  0  0  0  0  0  0  0  0  0  0
    3.8985    3.1714    0.0000 O   0  0  0  0  0  0  0  0  0  0  0  0
   -0.2206   -0.3333    0.0000 C   0  0  0  0  0  0  0  0  0  0  0  0
   -1.5631   -1.0025    0.0000 C   0  0  0  0  0  0  0  0  0  0  0  0
   -1.6548   -2.4996    0.0000 C   0  0  0  0  0  0  0  0  0  0  0  0
   -2.8139   -0.1744    0.0000 C   0  0  0  0  0  0  0  0  0  0  0  0
  1  2  1  0
  2  3  1  0
  3  4  2  0
  4  5  1  0
  5  6  2  0
  5  7  1  0
  7  8  1  0
  8  9  2  0
  9 10  1  0
 10 11  1  0
 12 11  1  1
 12 13  1  0
 13 14  1  0
 14 15  1  1
 15 16  1  0
 14 17  1  0
 17 18  1  6
 17 19  1  0
 19 20  1  1
 19 21  1  0
 21 22  1  6
 10 23  2  0
 23 24  1  0
 24 25  1  0
 24 26  2  0
 26  3  1  0
 26  8  1  0
 21 12  1  0
M  END
>  <identifier>  (86) 
CNP0327709.1

>  <canonical_smiles>  (86) 
COC1=CC(=O)OC2=CC(O[C@@H]3O[C@H](CO)[C@@H](O)[C@H](O)[C@H]3O)=CC(C)=C12

>  <standard_inchi>  (86) 
InChI=1S/C17H20O9/c1-7-3-8(4-10-13(7)9(23-2)5-12(19)25-10)24-17-16(22)15(21)14(20)11(6-18)26-17/h3-5,11,14-18,20-22H,6H2,1-2H3/t11-,14-,15+,16-,17-/m1/s1

>  <standard_inchi_key>  (86) 
BOLMALFORSMGQY-ZQOQDGPXSA-N

>  <name>  (86) 
nan

>  <iupac_name>  (86) 
4-methoxy-5-methyl-7-[(2~{S},3~{R},4~{S},5~{S},6~{R})-3,4,5-trihydroxy-6-(hydroxymethyl)tetrahydropyran-2-yl]oxy-chromen-2-one

>  <annotation_level>  (86) 
4

>  <total_atom_count>  (86) 
46

>  <heavy_atom_count>  (86) 
26

>  <molecular_weight>  (86) 
368.34

>  <exact_molecular_weight>  (86) 
368.11073

>  <molecular_formula>  (86) 
C17H20O9

>  <alogp>  (86) 
-0.71

>  <topological_polar_surface_area>  (86) 
138.82

>  <rotatable_bond_count>  (86) 
4

>  <hydrogen_bond_acceptors>  (86) 
9

>  <hydrogen_bond_donors>  (86) 
4

>  <hydrogen_bond_acceptors_lipinski>  (86) 
9

>  <hydrogen_bond_donors_lipinski>  (86) 
4

>  <lipinski_rule_of_five_violations>  (86) 
0

>  <aromatic_rings_count>  (86) 
2

>  <qed_drug_likeliness>  (86) 
0.52

>  <formal_charge>  (86) 
0

>  <fractioncsp3>  (86) 
0.47

>  <number_of_minimal_rings>  (86) 
3

>  <van_der_walls_volume>  (86) 
nan

>  <contains_sugar>  (86) 
True

>  <contains_ring_sugars>  (86) 
True

>  <contains_linear_sugars>  (86) 
False

>  <murcko_framework>  (86) 
O1c2cc(OC3OCCCC3)ccc2C=CC1

>  <np_likeness>  (86) 
1.75

>  <chemical_class>  (86) 
Coumarins and derivatives

>  <chemical_sub_class>  (86) 
Coumarin glycosides

>  <chemical_super_class>  (86) 
Phenylpropanoids and polyketides

>  <direct_parent_classification>  (86) 
Coumarin glycosides

>  <np_classifier_pathway>  (86) 
Shikimates and Phenylpropanoids

>  <np_classifier_superclass>  (86) 
Coumarins

>  <np_classifier_class>  (86) 
Simple coumarins

>  <np_classifier_is_glycoside>  (86) 
True

>  <organisms>  (86) 
Platymiscium praecox

>  <collections>  (86) 
Latin America dataset|NuBBEDB|ZINC NP

>  <dois>  (86) 
10.1016/S0031-9422(00)89849-0

>  <synonyms>  (86) 
7-O-glucosyloxy-4-methoxy-5-methylcoumarin

>  <cas>  (86) 
nan

$$$$

     RDKit          2D

 64 70  0  0  0  0  0  0  0  0999 V2000
  -13.4491    1.8251    0.0000 C   0  0  0  0  0  0  0  0  0  0  0  0
  -11.9505    1.8889    0.0000 C   0  0  0  0  0  0  0  0  0  0  0  0
  -11.1459    0.6229    0.0000 O   0  0  0  0  0  0  0  0  0  0  0  0
   -9.6473    0.6867    0.0000 C   0  0  0  0  0  0  0  0  0  0  0  0
   -8.8427   -0.5793    0.0000 O   0  0  0  0  0  0  0  0  0  0  0  0
   -7.3441   -0.5156    0.0000 C   0  0  0  0  0  0  0  0  0  0  0  0
   -6.5396   -1.7816    0.0000 C   0  0  0  0  0  0  0  0  0  0  0  0
   -5.0409   -1.7178    0.0000 O   0  0  0  0  0  0  0  0  0  0  0  0
   -4.2364   -2.9838    0.0000 C   0  0  0  0  0  0  0  0  0  0  0  0
   -2.7377   -2.9200    0.0000 O   0  0  0  0  0  0  0  0  0  0  0  0
   -2.0436   -1.5903    0.0000 C   0  0  0  0  0  0  0  0  0  0  0  0
   -2.8482   -0.3243    0.0000 C   0  0  0  0  0  0  0  0  0  0  0  0
   -4.3468   -0.3881    0.0000 O   0  0  0  0  0  0  0  0  0  0  0  0
   -2.1541    1.0054    0.0000 C   0  0  0  0  0  0  0  0  0  0  0  0
   -2.9586    2.2714    0.0000 C   0  0  0  0  0  0  0  0  0  0  0  0
   -0.6554    1.0692    0.0000 O   0  0  0  0  0  0  0  0  0  0  0  0
    0.1491   -0.1968    0.0000 C   0  0  0  0  0  0  0  0  0  0  0  0
    1.6478   -0.1331    0.0000 O   0  0  0  0  0  0  0  0  0  0  0  0
    2.3419    1.1967    0.0000 C   0  0  0  0  0  0  0  0  0  0  0  0
    3.8405    1.2604    0.0000 C   0  0  0  0  0  0  0  0  0  0  0  0
    4.6451   -0.0056    0.0000 O   0  0  0  0  0  0  0  0  0  0  0  0
    6.1437    0.0582    0.0000 C   0  0  0  0  0  0  0  0  0  0  0  0
    6.9482   -1.2078    0.0000 C   0  0  0  0  0  0  0  0  0  0  0  0
    6.2541   -2.5375    0.0000 C   0  0  0  0  0  0  0  0  0  0  0  0
    4.7555   -2.6013    0.0000 C   0  0  0  0  0  0  0  0  0  0  0  0
    4.0614   -3.9310    0.0000 C   0  0  0  0  0  0  0  0  0  0  0  0
    4.8659   -5.1970    0.0000 C   0  0  0  0  0  0  0  0  0  0  0  0
    4.1718   -6.5268    0.0000 O   0  0  0  0  0  0  0  0  0  0  0  0
    6.3645   -5.1333    0.0000 C   0  0  0  0  0  0  0  0  0  0  0  0
    7.1691   -6.3993    0.0000 O   0  0  0  0  0  0  0  0  0  0  0  0
    7.0587   -3.8035    0.0000 C   0  0  0  0  0  0  0  0  0  0  0  0
    8.4469   -1.1440    0.0000 O   0  0  0  0  0  0  0  0  0  0  0  0
    9.1410    0.1857    0.0000 C   0  0  0  0  0  0  0  0  0  0  0  0
   10.6396    0.2495    0.0000 C   0  0  0  0  0  0  0  0  0  0  0  0
   11.3337    1.5792    0.0000 C   0  0  0  0  0  0  0  0  0  0  0  0
   12.8324    1.6429    0.0000 O   0  0  0  0  0  0  0  0  0  0  0  0
   10.5292    2.8452    0.0000 C   0  0  0  0  0  0  0  0  0  0  0  0
    9.0306    2.7814    0.0000 C   0  0  0  0  0  0  0  0  0  0  0  0
    8.2260    4.0474    0.0000 O   0  0  0  0  0  0  0  0  0  0  0  0
    8.3365    1.4517    0.0000 C   0  0  0  0  0  0  0  0  0  0  0  0
    6.8378    1.3879    0.0000 C   0  0  0  0  0  0  0  0  0  0  0  0
    6.0333    2.6539    0.0000 O   0  0  0  0  0  0  0  0  0  0  0  0
    4.5346    2.5902    0.0000 O   0  0  0  0  0  0  0  0  0  0  0  0
    3.7301    3.8562    0.0000 C   0  0  0  0  0  0  0  0  0  0  0  0
    4.4242    5.1859    0.0000 C   0  0  0  0  0  0  0  0  0  0  0  0
    3.6197    6.4519    0.0000 O   0  0  0  0  0  0  0  0  0  0  0  0
    2.2315    3.7924    0.0000 C   0  0  0  0  0  0  0  0  0  0  0  0
    1.4269    5.0584    0.0000 O   0  0  0  0  0  0  0  0  0  0  0  0
    1.5373    2.4627    0.0000 C   0  0  0  0  0  0  0  0  0  0  0  0
    0.0387    2.3989    0.0000 O   0  0  0  0  0  0  0  0  0  0  0  0
   -0.5450   -1.5266    0.0000 C   0  0  0  0  0  0  0  0  0  0  0  0
    0.2595   -2.7925    0.0000 O   0  0  0  0  0  0  0  0  0  0  0  0
   -4.9305   -4.3135    0.0000 C   0  0  0  0  0  0  0  0  0  0  0  0
   -4.1260   -5.5795    0.0000 O   0  0  0  0  0  0  0  0  0  0  0  0
   -6.4291   -4.3773    0.0000 C   0  0  0  0  0  0  0  0  0  0  0  0
   -7.1233   -5.7070    0.0000 O   0  0  0  0  0  0  0  0  0  0  0  0
   -7.2337   -3.1113    0.0000 C   0  0  0  0  0  0  0  0  0  0  0  0
   -8.7323   -3.1751    0.0000 O   0  0  0  0  0  0  0  0  0  0  0  0
   -8.9532    2.0164    0.0000 C   0  0  0  0  0  0  0  0  0  0  0  0
   -7.4545    2.0802    0.0000 O   0  0  0  0  0  0  0  0  0  0  0  0
   -9.7577    3.2824    0.0000 C   0  0  0  0  0  0  0  0  0  0  0  0
   -9.0636    4.6121    0.0000 O   0  0  0  0  0  0  0  0  0  0  0  0
  -11.2563    3.2186    0.0000 C   0  0  0  0  0  0  0  0  0  0  0  0
  -12.0609    4.4846    0.0000 O   0  0  0  0  0  0  0  0  0  0  0  0
  2  1  1  1
  2  3  1  0
  3  4  1  0
  4  5  1  6
  5  6  1  0
  7  6  1  1
  7  8  1  0
  8  9  1  0
  9 10  1  1
 11 10  1  6
 11 12  1  0
 12 13  1  1
 12 14  1  0
 14 15  1  6
 14 16  1  0
 16 17  1  0
 17 18  1  1
 19 18  1  6
 19 20  1  0
 20 21  1  1
 21 22  1  0
 22 23  2  0
 23 24  1  0
 24 25  2  0
 25 26  1  0
 26 27  2  0
 27 28  1  0
 27 29  1  0
 29 30  1  0
 29 31  2  0
 23 32  1  0
 32 33  1  0
 33 34  2  0
 34 35  1  0
 35 36  1  0
 35 37  2  0
 37 38  1  0
 38 39  1  0
 38 40  2  0
 40 41  1  0
 41 42  2  0
 20 43  1  0
 43 44  1  0
 44 45  1  1
 45 46  1  0
 44 47  1  0
 47 48  1  6
 47 49  1  0
 49 50  1  1
 17 51  1  0
 51 52  1  6
  9 53  1  0
 53 54  1  6
 53 55  1  0
 55 56  1  1
 55 57  1  0
 57 58  1  6
  4 59  1  0
 59 60  1  1
 59 61  1  0
 61 62  1  1
 61 63  1  0
 63 64  1  6
 63  2  1  0
 57  7  1  0
 51 11  1  0
 49 19  1  0
 41 22  1  0
 31 24  1  0
 40 33  1  0
M  END
>  <identifier>  (87) 
CNP0080399.1

>  <canonical_smiles>  (87) 
C[C@@H]1O[C@@H](OC[C@H]2O[C@@H](O[C@@H]3[C@@H](O)[C@H](C)O[C@@H](O[C@H]4[C@H](OC5=C(C6=CC=C(O)C(O)=C6)OC6=CC(O)=CC(O)=C6C5=O)O[C@H](CO)[C@@H](O)[C@@H]4O)[C@@H]3O)[C@H](O)[C@@H](O)[C@@H]2O)[C@H](O)[C@H](O)[C@H]1O

>  <standard_inchi>  (87) 
InChI=1S/C39H50O25/c1-10-21(45)26(50)29(53)36(57-10)56-9-19-24(48)27(51)30(54)37(61-19)62-33-22(46)11(2)58-38(31(33)55)64-35-28(52)23(47)18(8-40)60-39(35)63-34-25(49)20-16(44)6-13(41)7-17(20)59-32(34)12-3-4-14(42)15(43)5-12/h3-7,10-11,18-19,21-24,26-31,33,35-48,50-55H,8-9H2,1-2H3/t10-,11-,18+,19+,21-,22-,23+,24+,26+,27-,28-,29+,30+,31+,33+,35+,36+,37-,38-,39-/m0/s1

>  <standard_inchi_key>  (87) 
RPVRWBAOHGXARW-OOPHAMHDSA-N

>  <name>  (87) 
nan

>  <iupac_name>  (87) 
3-[(2~{S},3~{R},4~{S},5~{S},6~{R})-3-[(2~{S},3~{R},4~{R},5~{S},6~{S})-3,5-dihydroxy-6-methyl-4-[(2~{S},3~{R},4~{S},5~{S},6~{R})-3,4,5-trihydroxy-6-[[(2~{R},3~{R},4~{R},5~{R},6~{S})-3,4,5-trihydroxy-6-methyl-tetrahydropyran-2-yl]oxymethyl]tetrahydropyran-2-yl]oxy-tetrahydropyran-2-yl]oxy-4,5-dihydroxy-6-(hydroxymethyl)tetrahydropyran-2-yl]oxy-2-(3,4-dihydroxyphenyl)-5,7-dihydroxy-chromen-4-one

>  <annotation_level>  (87) 
5

>  <total_atom_count>  (87) 
114

>  <heavy_atom_count>  (87) 
64

>  <molecular_weight>  (87) 
918.8

>  <exact_molecular_weight>  (87) 
918.26412

>  <molecular_formula>  (87) 
C39H50O25

>  <alogp>  (87) 
-5.01

>  <topological_polar_surface_area>  (87) 
407.50

>  <rotatable_bond_count>  (87) 
11

>  <hydrogen_bond_acceptors>  (87) 
25

>  <hydrogen_bond_donors>  (87) 
15

>  <hydrogen_bond_acceptors_lipinski>  (87) 
25

>  <hydrogen_bond_donors_lipinski>  (87) 
15

>  <lipinski_rule_of_five_violations>  (87) 
3

>  <aromatic_rings_count>  (87) 
3

>  <qed_drug_likeliness>  (87) 
0.08

>  <formal_charge>  (87) 
0

>  <fractioncsp3>  (87) 
0.62

>  <number_of_minimal_rings>  (87) 
7

>  <van_der_walls_volume>  (87) 
746.16

>  <contains_sugar>  (87) 
True

>  <contains_ring_sugars>  (87) 
True

>  <contains_linear_sugars>  (87) 
False

>  <murcko_framework>  (87) 
O1c2ccccc2CC(OC3OCCCC3OC4OCCC(OC5OC(COC6OCCCC6)CCC5)C4)=C1c7ccccc7

>  <np_likeness>  (87) 
1.74

>  <chemical_class>  (87) 
Flavonoids

>  <chemical_sub_class>  (87) 
Flavonoid glycosides

>  <chemical_super_class>  (87) 
Phenylpropanoids and polyketides

>  <direct_parent_classification>  (87) 
Flavonoid-3-O-glycosides

>  <np_classifier_pathway>  (87) 
Shikimates and Phenylpropanoids

>  <np_classifier_superclass>  (87) 
Flavonoids

>  <np_classifier_class>  (87) 
Flavonols

>  <np_classifier_is_glycoside>  (87) 
True

>  <organisms>  (87) 
Maytenus aquifolium|Monteverdia aquifolium

>  <collections>  (87) 
ChemSpider NPs|Latin America dataset|NuBBEDB|WikiData Natural Products|ZINC NP

>  <dois>  (87) 
10.1002/PTR.1249|10.1002/ptr.1249

>  <synonyms>  (87) 
Quercetin 3-O-\u221a\u00e9\u00ac\u00b1-L-rhamnopyranosyl (1\u221a\u00a2\u201a\u00c4\u2020\u201a\u00c4\u00f46)-O-[\u221a\u00e9\u00ac\u2264 -D-glucopyranosyl (1\u221a\u00a2\u201a\u00c4\u2020\u201a\u00c4\u00f43)-O-\u221a\u00e9\u00ac\u00b1-L-rhamnopyranosyl-(1\u221a\u00a2\u201a\u00c4\u2020\u201a\u00c4\u00f42)]-O-\u221a\u00e9\u00ac\u2264 -D-glucopyranosyl

>  <cas>  (87) 
nan

$$$$

     RDKit          2D

 22 24  0  0  0  0  0  0  0  0999 V2000
   -4.8061    2.1634    0.0000 C   0  0  0  0  0  0  0  0  0  0  0  0
   -4.8507    0.6641    0.0000 C   0  0  0  0  0  0  0  0  0  0  0  0
   -3.5746   -0.1242    0.0000 C   0  0  0  0  0  0  0  0  0  0  0  0
   -4.5725   -1.2441    0.0000 C   0  0  0  0  0  0  0  0  0  0  0  0
   -3.0199    1.2694    0.0000 C   0  0  0  0  0  0  0  0  0  0  0  0
   -1.5355    1.4859    0.0000 C   0  0  0  0  0  0  0  0  0  0  0  0
   -0.6060    0.3086    0.0000 C   0  0  0  0  0  0  0  0  0  0  0  0
   -1.1607   -1.0850    0.0000 C   0  0  0  0  0  0  0  0  0  0  0  0
   -1.7154   -2.4787    0.0000 O   0  0  0  0  0  0  0  0  0  0  0  0
   -0.2311   -2.2623    0.0000 C   0  0  0  0  0  0  0  0  0  0  0  0
    1.2532   -2.0459    0.0000 C   0  0  0  0  0  0  0  0  0  0  0  0
    1.8079   -0.6522    0.0000 C   0  0  0  0  0  0  0  0  0  0  0  0
    3.2922   -0.4358    0.0000 C   0  0  0  0  0  0  0  0  0  0  0  0
    4.7610   -0.7401    0.0000 C   0  0  0  0  0  0  0  0  0  0  0  0
    3.2476   -1.9351    0.0000 C   0  0  0  0  0  0  0  0  0  0  0  0
    3.8469    0.9579    0.0000 C   0  0  0  0  0  0  0  0  0  0  0  0
    5.3313    1.1743    0.0000 O   0  0  0  0  0  0  0  0  0  0  0  0
    2.9174    2.1351    0.0000 C   0  0  0  0  0  0  0  0  0  0  0  0
    1.4331    1.9187    0.0000 C   0  0  0  0  0  0  0  0  0  0  0  0
    0.8783    0.5250    0.0000 C   0  0  0  0  0  0  0  0  0  0  0  0
   -0.0512    1.7023    0.0000 C   0  0  0  0  0  0  0  0  0  0  0  0
   -2.6450   -1.3014    0.0000 C   0  0  0  0  0  0  0  0  0  0  0  0
  1  2  2  0
  2  3  1  0
  3  4  1  6
  3  5  1  0
  5  6  1  0
  6  7  1  0
  7  8  1  0
  8  9  1  6
  8 10  1  0
 10 11  1  0
 11 12  1  0
 12 13  1  0
 13 14  1  0
 13 15  1  0
 13 16  1  0
 16 17  2  0
 16 18  1  0
 18 19  1  0
 19 20  1  0
 20 21  1  6
  8 22  1  0
 22  3  1  0
 20  7  1  0
 20 12  1  0
M  END
>  <identifier>  (88) 
CNP0279595.1

>  <canonical_smiles>  (88) 
C=C[C@@]1(C)CCC2[C@@](O)(CCC3C(C)(C)C(=O)CC[C@@]32C)C1

>  <standard_inchi>  (88) 
InChI=1S/C20H32O2/c1-6-18(4)10-7-15-19(5)11-9-16(21)17(2,3)14(19)8-12-20(15,22)13-18/h6,14-15,22H,1,7-13H2,2-5H3/t14?,15?,18-,19-,20+/m0/s1

>  <standard_inchi_key>  (88) 
QFWORCWEUCFUNT-ULDLNYQNSA-N

>  <name>  (88) 
nan

>  <iupac_name>  (88) 
(4~{a}~{S},7~{S},8~{a}~{R})-8~{a}-hydroxy-1,1,4~{a},7-tetramethyl-7-vinyl-4,4~{b},5,6,8,9,10,10~{a}-octahydro-3~{H}-phenanthren-2-one

>  <annotation_level>  (88) 
4

>  <total_atom_count>  (88) 
54

>  <heavy_atom_count>  (88) 
22

>  <molecular_weight>  (88) 
304.47

>  <exact_molecular_weight>  (88) 
304.24023

>  <molecular_formula>  (88) 
C20H32O2

>  <alogp>  (88) 
4.52

>  <topological_polar_surface_area>  (88) 
37.30

>  <rotatable_bond_count>  (88) 
1

>  <hydrogen_bond_acceptors>  (88) 
2

>  <hydrogen_bond_donors>  (88) 
1

>  <hydrogen_bond_acceptors_lipinski>  (88) 
2

>  <hydrogen_bond_donors_lipinski>  (88) 
1

>  <lipinski_rule_of_five_violations>  (88) 
0

>  <aromatic_rings_count>  (88) 
0

>  <qed_drug_likeliness>  (88) 
0.72

>  <formal_charge>  (88) 
0

>  <fractioncsp3>  (88) 
0.85

>  <number_of_minimal_rings>  (88) 
3

>  <van_der_walls_volume>  (88) 
nan

>  <contains_sugar>  (88) 
False

>  <contains_ring_sugars>  (88) 
False

>  <contains_linear_sugars>  (88) 
False

>  <murcko_framework>  (88) 
C1CCC2C(C1)CCC3CCCCC32

>  <np_likeness>  (88) 
3.36

>  <chemical_class>  (88) 
Prenol lipids

>  <chemical_sub_class>  (88) 
Diterpenoids

>  <chemical_super_class>  (88) 
Lipids and lipid-like molecules

>  <direct_parent_classification>  (88) 
Diterpenoids

>  <np_classifier_pathway>  (88) 
Terpenoids

>  <np_classifier_superclass>  (88) 
Diterpenoids

>  <np_classifier_class>  (88) 
Norpimarane and Norisopimarane diterpenoids

>  <np_classifier_is_glycoside>  (88) 
False

>  <organisms>  (88) 
Vellozia piresiana

>  <collections>  (88) 
Latin America dataset|NuBBEDB

>  <dois>  (88) 
10.1016/S0031-9422(00)80444-6

>  <synonyms>  (88) 
8\u221a\u00e9\u00ac\u2264-Hydroxy-3-oxopimar-15-ene

>  <cas>  (88) 
nan

$$$$

     RDKit          2D

 31 35  0  0  0  0  0  0  0  0999 V2000
   -7.6683   -3.8358    0.0000 C   0  0  0  0  0  0  0  0  0  0  0  0
   -7.3520   -2.3695    0.0000 C   0  0  0  0  0  0  0  0  0  0  0  0
   -8.4637   -1.3625    0.0000 C   0  0  0  0  0  0  0  0  0  0  0  0
   -5.9241   -1.9103    0.0000 C   0  0  0  0  0  0  0  0  0  0  0  0
   -5.6078   -0.4440    0.0000 C   0  0  0  0  0  0  0  0  0  0  0  0
   -4.1799    0.0153    0.0000 C   0  0  0  0  0  0  0  0  0  0  0  0
   -3.8636    1.4816    0.0000 C   0  0  0  0  0  0  0  0  0  0  0  0
   -4.9753    2.4886    0.0000 C   0  0  0  0  0  0  0  0  0  0  0  0
   -2.4356    1.9408    0.0000 C   0  0  0  0  0  0  0  0  0  0  0  0
   -1.9679    3.3660    0.0000 C   0  0  0  0  0  0  0  0  0  0  0  0
   -0.4679    3.3615    0.0000 C   0  0  0  0  0  0  0  0  0  0  0  0
   -0.0086    1.9336    0.0000 C   0  0  0  0  0  0  0  0  0  0  0  0
    1.1091    2.9339    0.0000 C   0  0  0  0  0  0  0  0  0  0  0  0
    1.3599    1.3194    0.0000 C   0  0  0  0  0  0  0  0  0  0  0  0
    2.5760    2.1974    0.0000 C   0  0  0  0  0  0  0  0  0  0  0  0
    3.9445    1.5832    0.0000 C   0  0  0  0  0  0  0  0  0  0  0  0
    4.0969    0.0910    0.0000 C   0  0  0  0  0  0  0  0  0  0  0  0
    5.4654   -0.5232    0.0000 C   0  0  0  0  0  0  0  0  0  0  0  0
    6.9614   -0.6323    0.0000 C   0  0  0  0  0  0  0  0  0  0  0  0
    5.8326    0.9311    0.0000 C   0  0  0  0  0  0  0  0  0  0  0  0
    5.6177   -2.0155    0.0000 C   0  0  0  0  0  0  0  0  0  0  0  0
    6.9862   -2.6297    0.0000 O   0  0  0  0  0  0  0  0  0  0  0  0
    4.4015   -2.8935    0.0000 C   0  0  0  0  0  0  0  0  0  0  0  0
    3.0331   -2.2793    0.0000 C   0  0  0  0  0  0  0  0  0  0  0  0
    2.8807   -0.7871    0.0000 C   0  0  0  0  0  0  0  0  0  0  0  0
    1.6646   -1.6651    0.0000 C   0  0  0  0  0  0  0  0  0  0  0  0
    1.5122   -0.1729    0.0000 C   0  0  0  0  0  0  0  0  0  0  0  0
    0.2961   -1.0509    0.0000 C   0  0  0  0  0  0  0  0  0  0  0  0
   -1.0724   -0.4367    0.0000 C   0  0  0  0  0  0  0  0  0  0  0  0
   -1.2248    1.0555    0.0000 C   0  0  0  0  0  0  0  0  0  0  0  0
   -2.5260    0.3094    0.0000 C   0  0  0  0  0  0  0  0  0  0  0  0
  1  2  1  0
  2  3  1  0
  2  4  2  0
  4  5  1  0
  5  6  1  0
  6  7  1  0
  7  8  1  1
  7  9  1  0
  9 10  1  1
 10 11  1  0
 11 12  1  0
 12 13  1  6
 12 14  1  0
 14 15  1  6
 15 16  1  0
 17 16  1  1
 17 18  1  0
 18 19  1  0
 18 20  1  0
 18 21  1  0
 21 22  2  0
 21 23  1  0
 23 24  1  0
 25 24  1  6
 25 26  1  0
 27 26  1  1
 27 28  1  0
 28 29  1  0
 29 30  1  0
 30 31  1  1
 30  9  1  0
 30 12  1  0
 27 14  1  0
 25 17  1  0
 27 25  1  0
M  END
>  <identifier>  (89) 
CNP0274128.2

>  <canonical_smiles>  (89) 
CC(C)=CCC[C@@H](C)[C@H]1CC[C@@]2(C)[C@@H]3CC[C@H]4C(C)(C)C(=O)CC[C@@]45C[C@@]35CC[C@]12C

>  <standard_inchi>  (89) 
InChI=1S/C30H48O/c1-20(2)9-8-10-21(3)22-13-15-28(7)24-12-11-23-26(4,5)25(31)14-16-29(23)19-30(24,29)18-17-27(22,28)6/h9,21-24H,8,10-19H2,1-7H3/t21-,22-,23+,24+,27-,28+,29-,30+/m1/s1

>  <standard_inchi_key>  (89) 
NAJCQAAOHKVCES-ZZOQNIIDSA-N

>  <name>  (89) 
CYCLOARTENONE

>  <iupac_name>  (89) 
(1~{S},3~{R},8~{R},11~{S},12~{S},15~{R},16~{R})-15-[(1~{R})-1,5-dimethylhex-4-enyl]-7,7,12,16-tetramethyl-pentacyclo[9.7.0.0^{1,3}.0^{3,8}.0^{12,16}]octadecan-6-one

>  <annotation_level>  (89) 
5

>  <total_atom_count>  (89) 
79

>  <heavy_atom_count>  (89) 
31

>  <molecular_weight>  (89) 
424.71

>  <exact_molecular_weight>  (89) 
424.37052

>  <molecular_formula>  (89) 
C30H48O

>  <alogp>  (89) 
8.38

>  <topological_polar_surface_area>  (89) 
17.07

>  <rotatable_bond_count>  (89) 
4

>  <hydrogen_bond_acceptors>  (89) 
1

>  <hydrogen_bond_donors>  (89) 
0

>  <hydrogen_bond_acceptors_lipinski>  (89) 
1

>  <hydrogen_bond_donors_lipinski>  (89) 
0

>  <lipinski_rule_of_five_violations>  (89) 
1

>  <aromatic_rings_count>  (89) 
0

>  <qed_drug_likeliness>  (89) 
0.41

>  <formal_charge>  (89) 
0

>  <fractioncsp3>  (89) 
0.90

>  <number_of_minimal_rings>  (89) 
5

>  <van_der_walls_volume>  (89) 
448.34

>  <contains_sugar>  (89) 
False

>  <contains_ring_sugars>  (89) 
False

>  <contains_linear_sugars>  (89) 
False

>  <murcko_framework>  (89) 
C1CCC23CC43CCC5CCCC5C4CCC2C1

>  <np_likeness>  (89) 
3.27

>  <chemical_class>  (89) 
Steroids and steroid derivatives

>  <chemical_sub_class>  (89) 
Cycloartanols and derivatives

>  <chemical_super_class>  (89) 
Lipids and lipid-like molecules

>  <direct_parent_classification>  (89) 
Cycloartanols and derivatives

>  <np_classifier_pathway>  (89) 
Terpenoids

>  <np_classifier_superclass>  (89) 
Triterpenoids

>  <np_classifier_class>  (89) 
Cycloartane triterpenoids

>  <np_classifier_is_glycoside>  (89) 
False

>  <organisms>  (89) 
Aaptos aaptos|Abrus precatorius|Aconitum nevadense|Acorus gramineus|Acorus tatarinowii|Adina racemosa|Alseodaphne corneri|Andira paruiflora|Andira parviflora|Annona impressivenia|Artemisia diffusa|Artocarpus heterophyllus|Artocarpus integer|Aspergillus unguis|Aster yunnanensis|Aulacocephalus temmincki|Bersama yangambiensis|Caesalpinia japonica|Castanopsis sclerophylla|Cephalotaxus sinensis|Chrysanthemum lacustre|Citrus chachiensis|Citrus reticulata|Conocephalum japonicum|Cordylanthus kingii|Crinipellis scabella|Croton cumingii|Cystophora scalaris|Digitalis canariensis|Discaria chacaye|Disynaphia halimifolia|Doodia picta|Eragrostis viscosa|Eunicella cavolinii|Euonymus mupinensis|Euphorbia antiquorum|Euploca scabra|Forsteronia refracta|Fridericia chica|Gardenia gordonii|Gardenia grievei|Gardenia hillii|Gardenia storckii|Glycine max|Grewia mollis|Gymnocarpium robertianum|Heliotropium ellipticum|Heliotropium floridum|Heliotropium marifolium|Heritiera ornithocephala|Heterotheca grandiflora|Hovenia acerba|Juglans nigra|Kadsura heteroclita|Kaempferia marginata|Kaunia saltensis|Krameria bicolor|Krameria grayi|Mangifera indica|Methanothermobacter thermautotrophicus|Narcissus concolor|Nauclea officinalis|Nicotiana tabacum|Oncoba echinata|Ophiolepis superba|Oreaster nodosus|Papaver somniferum|Papilio phorcas|Parabenzoin trilobum|Philadelphia fleabane|Polycephalomyces nipponicus|Pseudocyphellaria norvegica|Rubrivivax gelatinosus|Ruta pinnata|Salvia dorrii|Senecio canchahuinganquensis|Sophora angustifolia|Stevia polycephala|Streptomyces parvisporogenes|Teucrium depressum|Thymus piperella|Tillandsia recurvata|Tillandsia usneoides|Trichilia rubescens|Trigona minor|Ulva lactuca|Ulva pertusa|Wrightia tinctoria

>  <collections>  (89) 
CMAUP (cCollective molecular activities of useful plants)|Latin America dataset|NPASS|NuBBEDB|Phyto4Health|Super Natural II|WikiData Natural Products

>  <dois>  (89) 
10.1002/BSCB.19860950903|10.1002/PTR.759|10.1016/0031-9422(73)85046-0|10.1016/0031-9422(90)83064-8|10.1016/0031-9422(91)83026-H|10.1016/0031-9422(94)00932-J|10.1016/S0031-9422(00)81585-X|10.1016/S0031-9422(00)90655-1|10.1016/S0031-9422(00)97767-7|10.1016/S0031-9422(00)97943-3|10.1016/S0031-9422(00)98075-0|10.1016/S0031-9422(98)00656-6|10.1016/S0367-326X(01)00267-2|10.1021/NP50100A022|10.1021/NP50126A020|10.1021/NP960075+|10.1021/NP960330Q|10.1021/acs.jnatprod.7b00375|10.1055/S-2005-916263

>  <synonyms>  (89) 
CHEMBL226084|Cycloartenone

>  <cas>  (89) 
nan

$$$$

     RDKit          2D

 25 28  0  0  0  0  0  0  0  0999 V2000
    3.3759   -3.5405    0.0000 C   0  0  0  0  0  0  0  0  0  0  0  0
    3.2153   -2.0491    0.0000 C   0  0  0  0  0  0  0  0  0  0  0  0
    1.8434   -1.4425    0.0000 C   0  0  0  0  0  0  0  0  0  0  0  0
    1.6828    0.0488    0.0000 C   0  0  0  0  0  0  0  0  0  0  0  0
    3.1106   -0.4110    0.0000 C   0  0  0  0  0  0  0  0  0  0  0  0
    4.2227    0.5955    0.0000 C   0  0  0  0  0  0  0  0  0  0  0  0
    5.6505    0.1356    0.0000 O   0  0  0  0  0  0  0  0  0  0  0  0
    5.9661   -1.3308    0.0000 C   0  0  0  0  0  0  0  0  0  0  0  0
    3.9071    2.0619    0.0000 C   0  0  0  0  0  0  0  0  0  0  0  0
    5.0192    3.0685    0.0000 O   0  0  0  0  0  0  0  0  0  0  0  0
    2.4793    2.5218    0.0000 C   0  0  0  0  0  0  0  0  0  0  0  0
    1.3672    1.5153    0.0000 C   0  0  0  0  0  0  0  0  0  0  0  0
   -0.1250    1.6682    0.0000 O   0  0  0  0  0  0  0  0  0  0  0  0
   -0.7316    0.2964    0.0000 C   0  0  0  0  0  0  0  0  0  0  0  0
   -2.1980   -0.0193    0.0000 C   0  0  0  0  0  0  0  0  0  0  0  0
   -2.6579   -1.4470    0.0000 C   0  0  0  0  0  0  0  0  0  0  0  0
   -4.1243   -1.7627    0.0000 C   0  0  0  0  0  0  0  0  0  0  0  0
   -5.1308   -0.6505    0.0000 C   0  0  0  0  0  0  0  0  0  0  0  0
   -6.6308   -0.6544    0.0000 O   0  0  0  0  0  0  0  0  0  0  0  0
   -7.0980    0.7710    0.0000 C   0  0  0  0  0  0  0  0  0  0  0  0
   -5.8867    1.6558    0.0000 O   0  0  0  0  0  0  0  0  0  0  0  0
   -4.6710    0.7773    0.0000 C   0  0  0  0  0  0  0  0  0  0  0  0
   -3.2045    1.0929    0.0000 C   0  0  0  0  0  0  0  0  0  0  0  0
    0.3857   -0.7045    0.0000 C   0  0  0  0  0  0  0  0  0  0  0  0
    0.2327   -2.1967    0.0000 C   0  0  0  0  0  0  0  0  0  0  0  0
  1  2  2  0
  2  3  1  0
  4  3  1  1
  4  5  1  0
  5  6  1  0
  6  7  1  6
  7  8  1  0
  6  9  1  0
  9 10  2  0
  9 11  1  0
 11 12  2  0
 12 13  1  0
 13 14  1  0
 14 15  1  1
 15 16  2  0
 16 17  1  0
 17 18  2  0
 18 19  1  0
 19 20  1  0
 20 21  1  0
 21 22  1  0
 22 23  2  0
 14 24  1  0
 24 25  1  6
 12  4  1  0
 23 15  1  0
 24  4  1  0
 22 18  1  0
M  END
>  <identifier>  (90) 
CNP0418702.2

>  <canonical_smiles>  (90) 
C=CC[C@]12C[C@@H](OC)C(=O)C=C1O[C@H](C1=CC=C3OCOC3=C1)[C@H]2C

>  <standard_inchi>  (90) 
InChI=1S/C20H22O5/c1-4-7-20-10-17(22-3)14(21)9-18(20)25-19(12(20)2)13-5-6-15-16(8-13)24-11-23-15/h4-6,8-9,12,17,19H,1,7,10-11H2,2-3H3/t12-,17-,19+,20-/m1/s1

>  <standard_inchi_key>  (90) 
KVPKFECEKYTIPA-HINUTXJASA-N

>  <name>  (90) 
nan

>  <iupac_name>  (90) 
(2~{S},3~{S},3~{a}~{R},5~{R})-3~{a}-allyl-2-(1,3-benzodioxol-5-yl)-5-methoxy-3-methyl-2,3,4,5-tetrahydrobenzofuran-6-one

>  <annotation_level>  (90) 
4

>  <total_atom_count>  (90) 
47

>  <heavy_atom_count>  (90) 
25

>  <molecular_weight>  (90) 
342.39

>  <exact_molecular_weight>  (90) 
342.14672

>  <molecular_formula>  (90) 
C20H22O5

>  <alogp>  (90) 
3.56

>  <topological_polar_surface_area>  (90) 
53.99

>  <rotatable_bond_count>  (90) 
4

>  <hydrogen_bond_acceptors>  (90) 
5

>  <hydrogen_bond_donors>  (90) 
0

>  <hydrogen_bond_acceptors_lipinski>  (90) 
5

>  <hydrogen_bond_donors_lipinski>  (90) 
0

>  <lipinski_rule_of_five_violations>  (90) 
0

>  <aromatic_rings_count>  (90) 
1

>  <qed_drug_likeliness>  (90) 
0.78

>  <formal_charge>  (90) 
0

>  <fractioncsp3>  (90) 
0.45

>  <number_of_minimal_rings>  (90) 
4

>  <van_der_walls_volume>  (90) 
nan

>  <contains_sugar>  (90) 
False

>  <contains_ring_sugars>  (90) 
False

>  <contains_linear_sugars>  (90) 
False

>  <murcko_framework>  (90) 
O1c2ccc(cc2OC1)C3OC4=CCCCC4C3

>  <np_likeness>  (90) 
2.35

>  <chemical_class>  (90) 
Benzodioxoles

>  <chemical_sub_class>  (90) 
Benzodioxoles

>  <chemical_super_class>  (90) 
Organoheterocyclic compounds

>  <direct_parent_classification>  (90) 
Benzodioxoles

>  <np_classifier_pathway>  (90) 
Shikimates and Phenylpropanoids

>  <np_classifier_superclass>  (90) 
Lignans

>  <np_classifier_class>  (90) 
Neolignans

>  <np_classifier_is_glycoside>  (90) 
False

>  <organisms>  (90) 
Licaria armeniaca

>  <collections>  (90) 
Latin America dataset|NuBBEDB|WikiData Natural Products

>  <dois>  (90) 
10.1016/S0031-9422(00)88765-8

>  <synonyms>  (90) 
(2S3S3aR5R)-3a-Allyl-5-methoxy-2-(3'4'-methylene-dioxyphenyl)-3-methyl-233a456-hexahydro-6-oxo-benzofuran

>  <cas>  (90) 
nan

$$$$

     RDKit          2D

 16 17  0  0  0  0  0  0  0  0999 V2000
    1.1989   -3.8750    0.0000 C   0  0  0  0  0  0  0  0  0  0  0  0
    1.1127   -2.3775    0.0000 C   0  0  0  0  0  0  0  0  0  0  0  0
   -0.2273   -1.7034    0.0000 C   0  0  0  0  0  0  0  0  0  0  0  0
   -0.3135   -0.2058    0.0000 C   0  0  0  0  0  0  0  0  0  0  0  0
   -1.6534    0.4683    0.0000 C   0  0  0  0  0  0  0  0  0  0  0  0
   -2.9072   -0.3551    0.0000 C   0  0  0  0  0  0  0  0  0  0  0  0
   -2.8211   -1.8526    0.0000 O   0  0  0  0  0  0  0  0  0  0  0  0
   -4.2472    0.3190    0.0000 O   0  0  0  0  0  0  0  0  0  0  0  0
   -1.7396    1.9658    0.0000 C   0  0  0  0  0  0  0  0  0  0  0  0
   -0.4858    2.7892    0.0000 C   0  0  0  0  0  0  0  0  0  0  0  0
    0.8542    2.1151    0.0000 C   0  0  0  0  0  0  0  0  0  0  0  0
    2.1080    2.9385    0.0000 O   0  0  0  0  0  0  0  0  0  0  0  0
    0.9404    0.6175    0.0000 C   0  0  0  0  0  0  0  0  0  0  0  0
    2.2803   -0.0566    0.0000 C   0  0  0  0  0  0  0  0  0  0  0  0
    3.5341    0.7668    0.0000 O   0  0  0  0  0  0  0  0  0  0  0  0
    2.3665   -1.5541    0.0000 O   0  0  0  0  0  0  0  0  0  0  0  0
  2  1  1  6
  2  3  1  0
  3  4  1  0
  4  5  2  0
  5  6  1  0
  6  7  2  0
  6  8  1  0
  5  9  1  0
  9 10  2  0
 10 11  1  0
 11 12  1  0
 11 13  2  0
 13 14  1  0
 14 15  2  0
 14 16  1  0
 16  2  1  0
 13  4  1  0
M  END
>  <identifier>  (91) 
CNP0155039.2

>  <canonical_smiles>  (91) 
C[C@@H]1CC2=C(C(=O)O)C=CC(O)=C2C(=O)O1

>  <standard_inchi>  (91) 
InChI=1S/C11H10O5/c1-5-4-7-6(10(13)14)2-3-8(12)9(7)11(15)16-5/h2-3,5,12H,4H2,1H3,(H,13,14)/t5-/m1/s1

>  <standard_inchi_key>  (91) 
QRLBIKRXEQOMSF-RXMQYKEDSA-N

>  <name>  (91) 
(3R)-8-hydroxy-3-methyl-1-oxo-3,4-dihydroisochromene-5-carboxylic acid

>  <iupac_name>  (91) 
(3~{R})-8-hydroxy-3-methyl-1-oxo-isochromane-5-carboxylic acid

>  <annotation_level>  (91) 
5

>  <total_atom_count>  (91) 
26

>  <heavy_atom_count>  (91) 
16

>  <molecular_weight>  (91) 
222.2

>  <exact_molecular_weight>  (91) 
222.05282

>  <molecular_formula>  (91) 
C11H10O5

>  <alogp>  (91) 
1.19

>  <topological_polar_surface_area>  (91) 
83.83

>  <rotatable_bond_count>  (91) 
1

>  <hydrogen_bond_acceptors>  (91) 
4

>  <hydrogen_bond_donors>  (91) 
2

>  <hydrogen_bond_acceptors_lipinski>  (91) 
4

>  <hydrogen_bond_donors_lipinski>  (91) 
2

>  <lipinski_rule_of_five_violations>  (91) 
0

>  <aromatic_rings_count>  (91) 
1

>  <qed_drug_likeliness>  (91) 
0.70

>  <formal_charge>  (91) 
0

>  <fractioncsp3>  (91) 
0.27

>  <number_of_minimal_rings>  (91) 
2

>  <van_der_walls_volume>  (91) 
186.26

>  <contains_sugar>  (91) 
False

>  <contains_ring_sugars>  (91) 
False

>  <contains_linear_sugars>  (91) 
False

>  <murcko_framework>  (91) 
O1Cc2ccccc2CC1

>  <np_likeness>  (91) 
1.48

>  <chemical_class>  (91) 
Benzene and substituted derivatives

>  <chemical_sub_class>  (91) 
Benzoic acids and derivatives

>  <chemical_super_class>  (91) 
Benzenoids

>  <direct_parent_classification>  (91) 
m-Phthalate esters

>  <np_classifier_pathway>  (91) 
Shikimates and Phenylpropanoids

>  <np_classifier_superclass>  (91) 
Coumarins

>  <np_classifier_class>  (91) 
Isocoumarins

>  <np_classifier_is_glycoside>  (91) 
False

>  <organisms>  (91) 
Azadirachta indica|Cytospora ceratosperma|Phomopsis velata|Virola caducifolia|Xylaria mellissii

>  <collections>  (91) 
CMAUP (cCollective molecular activities of useful plants)|EMNPD|Latin America dataset|NPEdia|NuBBEDB|Super Natural II|WikiData Natural Products|ZINC NP

>  <dois>  (91) 
10.1007/S10600-011-0086-Z|10.1016/J.TETLET.2004.12.110|10.1016/S0031-9422(00)83157-X|10.1016/S0031-9422(00)89350-4|10.1271/BBB1961.50.997

>  <synonyms>  (91) 
(3R)-S-Carboxy-8-hydroxy-3-methyl-34-dihydroisocoumarin|5-Carboxymellein|BDBM50524020|CHEMBL4556318

>  <cas>  (91) 
nan

$$$$

     RDKit          2D

 37 40  0  0  0  0  0  0  0  0999 V2000
  -18.6829   -0.1298    0.0000 C   0  0  0  0  0  0  0  0  0  0  0  0
  -17.3714    0.5981    0.0000 C   0  0  0  0  0  0  0  0  0  0  0  0
  -16.0852   -0.1737    0.0000 C   0  0  0  0  0  0  0  0  0  0  0  0
  -14.7737    0.5542    0.0000 C   0  0  0  0  0  0  0  0  0  0  0  0
  -13.4875   -0.2177    0.0000 C   0  0  0  0  0  0  0  0  0  0  0  0
  -12.1760    0.5102    0.0000 C   0  0  0  0  0  0  0  0  0  0  0  0
  -10.8898   -0.2617    0.0000 C   0  0  0  0  0  0  0  0  0  0  0  0
   -9.5783    0.4662    0.0000 C   0  0  0  0  0  0  0  0  0  0  0  0
   -8.2921   -0.3057    0.0000 C   0  0  0  0  0  0  0  0  0  0  0  0
   -6.9806    0.4223    0.0000 C   0  0  0  0  0  0  0  0  0  0  0  0
   -5.6944   -0.3496    0.0000 C   0  0  0  0  0  0  0  0  0  0  0  0
   -4.3829    0.3783    0.0000 C   0  0  0  0  0  0  0  0  0  0  0  0
   -3.0967   -0.3936    0.0000 C   0  0  0  0  0  0  0  0  0  0  0  0
   -1.7852    0.3343    0.0000 C   0  0  0  0  0  0  0  0  0  0  0  0
   -0.4990   -0.4376    0.0000 C   0  0  0  0  0  0  0  0  0  0  0  0
    0.8125    0.2903    0.0000 C   0  0  0  0  0  0  0  0  0  0  0  0
    2.0987   -0.4815    0.0000 C   0  0  0  0  0  0  0  0  0  0  0  0
    3.4102    0.2464    0.0000 C   0  0  0  0  0  0  0  0  0  0  0  0
    4.6964   -0.5255    0.0000 C   0  0  0  0  0  0  0  0  0  0  0  0
    4.6710   -2.0253    0.0000 O   0  0  0  0  0  0  0  0  0  0  0  0
    5.9572   -2.7972    0.0000 C   0  0  0  0  0  0  0  0  0  0  0  0
    5.9318   -4.2970    0.0000 C   0  0  0  0  0  0  0  0  0  0  0  0
    7.2179   -5.0688    0.0000 C   0  0  0  0  0  0  0  0  0  0  0  0
    8.5295   -4.3409    0.0000 C   0  0  0  0  0  0  0  0  0  0  0  0
    8.5549   -2.8411    0.0000 C   0  0  0  0  0  0  0  0  0  0  0  0
    7.2687   -2.0693    0.0000 C   0  0  0  0  0  0  0  0  0  0  0  0
    7.2941   -0.5695    0.0000 C   0  0  0  0  0  0  0  0  0  0  0  0
    6.0079    0.2024    0.0000 C   0  0  0  0  0  0  0  0  0  0  0  0
    6.0333    1.7022    0.0000 C   0  0  0  0  0  0  0  0  0  0  0  0
    4.7472    2.4741    0.0000 O   0  0  0  0  0  0  0  0  0  0  0  0
    7.3449    2.4301    0.0000 C   0  0  0  0  0  0  0  0  0  0  0  0
    7.3703    3.9299    0.0000 C   0  0  0  0  0  0  0  0  0  0  0  0
    8.6818    4.6578    0.0000 C   0  0  0  0  0  0  0  0  0  0  0  0
    9.9680    3.8859    0.0000 C   0  0  0  0  0  0  0  0  0  0  0  0
    9.9426    2.3861    0.0000 C   0  0  0  0  0  0  0  0  0  0  0  0
    8.6310    1.6582    0.0000 C   0  0  0  0  0  0  0  0  0  0  0  0
    8.6057    0.1584    0.0000 O   0  0  0  0  0  0  0  0  0  0  0  0
  1  2  1  0
  2  3  2  0
  3  4  1  0
  4  5  1  0
  5  6  1  0
  6  7  1  0
  7  8  1  0
  8  9  1  0
  9 10  1  0
 10 11  1  0
 11 12  1  0
 12 13  1  0
 13 14  1  0
 14 15  1  0
 15 16  1  0
 16 17  1  0
 17 18  1  0
 18 19  1  0
 19 20  1  0
 20 21  1  0
 21 22  2  0
 22 23  1  0
 23 24  2  0
 24 25  1  0
 25 26  2  0
 26 27  1  0
 27 28  2  0
 28 29  1  0
 29 30  2  0
 29 31  1  0
 31 32  2  0
 32 33  1  0
 33 34  2  0
 34 35  1  0
 35 36  2  0
 36 37  1  0
 28 19  1  0
 36 31  1  0
 26 21  1  0
 37 27  1  0
M  END
>  <identifier>  (92) 
CNP0292666.2

>  <canonical_smiles>  (92) 
C/C=C/CCCCCCCCCCCCCCCC1OC2=CC=CC=C2C2=C1C(=O)C1=CC=CC=C1O2

>  <standard_inchi>  (92) 
InChI=1S/C34H44O3/c1-2-3-4-5-6-7-8-9-10-11-12-13-14-15-16-17-26-31-32-33(35)27-22-18-20-24-29(27)37-34(32)28-23-19-21-25-30(28)36-31/h2-3,18-25,31H,4-17,26H2,1H3/b3-2+

>  <standard_inchi_key>  (92) 
NMWIAIPMZASPNI-NSCUHMNNSA-N

>  <name>  (92) 
nan

>  <iupac_name>  (92) 
nan

>  <annotation_level>  (92) 
0

>  <total_atom_count>  (92) 
81

>  <heavy_atom_count>  (92) 
37

>  <molecular_weight>  (92) 
500.72

>  <exact_molecular_weight>  (92) 
500.32905

>  <molecular_formula>  (92) 
C34H44O3

>  <alogp>  (92) 
10.32

>  <topological_polar_surface_area>  (92) 
39.44

>  <rotatable_bond_count>  (92) 
16

>  <hydrogen_bond_acceptors>  (92) 
3

>  <hydrogen_bond_donors>  (92) 
0

>  <hydrogen_bond_acceptors_lipinski>  (92) 
3

>  <hydrogen_bond_donors_lipinski>  (92) 
0

>  <lipinski_rule_of_five_violations>  (92) 
2

>  <aromatic_rings_count>  (92) 
3

>  <qed_drug_likeliness>  (92) 
0.14

>  <formal_charge>  (92) 
0

>  <fractioncsp3>  (92) 
0.50

>  <number_of_minimal_rings>  (92) 
4

>  <van_der_walls_volume>  (92) 
505.27

>  <contains_sugar>  (92) 
False

>  <contains_ring_sugars>  (92) 
False

>  <contains_linear_sugars>  (92) 
False

>  <murcko_framework>  (92) 
O1c2ccccc2CC3=C1c4ccccc4OC3

>  <np_likeness>  (92) 
0.85

>  <chemical_class>  (92) 
nan

>  <chemical_sub_class>  (92) 
nan

>  <chemical_super_class>  (92) 
nan

>  <direct_parent_classification>  (92) 
nan

>  <np_classifier_pathway>  (92) 
Shikimates and Phenylpropanoids

>  <np_classifier_superclass>  (92) 
Flavonoids

>  <np_classifier_class>  (92) 
nan

>  <np_classifier_is_glycoside>  (92) 
False

>  <organisms>  (92) 
Conchocarpus heterophyllus

>  <collections>  (92) 
Latin America dataset|NuBBEDB|WikiData Natural Products

>  <dois>  (92) 
10.1590/S0100-40422008000400005

>  <synonyms>  (92) 
nan

>  <cas>  (92) 
nan

$$$$

     RDKit          2D

 19 20  0  0  0  0  0  0  0  0999 V2000
   -4.7195   -0.8623    0.0000 C   0  0  0  0  0  0  0  0  0  0  0  0
   -3.8515    0.3610    0.0000 C   0  0  0  0  0  0  0  0  0  0  0  0
   -4.4770    1.7244    0.0000 C   0  0  0  0  0  0  0  0  0  0  0  0
   -2.3581    0.2210    0.0000 C   0  0  0  0  0  0  0  0  0  0  0  0
   -1.7326   -1.1423    0.0000 C   0  0  0  0  0  0  0  0  0  0  0  0
   -0.2391   -1.2823    0.0000 C   0  0  0  0  0  0  0  0  0  0  0  0
    0.3864   -2.6457    0.0000 C   0  0  0  0  0  0  0  0  0  0  0  0
   -0.4816   -3.8691    0.0000 C   0  0  0  0  0  0  0  0  0  0  0  0
    1.8798   -2.7857    0.0000 C   0  0  0  0  0  0  0  0  0  0  0  0
    2.7478   -1.5623    0.0000 C   0  0  0  0  0  0  0  0  0  0  0  0
    2.1223   -0.1989    0.0000 C   0  0  0  0  0  0  0  0  0  0  0  0
    2.9902    1.0244    0.0000 C   0  0  0  0  0  0  0  0  0  0  0  0
    4.4837    0.8845    0.0000 O   0  0  0  0  0  0  0  0  0  0  0  0
    5.3517    2.1078    0.0000 C   0  0  0  0  0  0  0  0  0  0  0  0
    0.6288   -0.0589    0.0000 C   0  0  0  0  0  0  0  0  0  0  0  0
    0.0033    1.3044    0.0000 C   0  0  0  0  0  0  0  0  0  0  0  0
    0.8713    2.5278    0.0000 O   0  0  0  0  0  0  0  0  0  0  0  0
   -1.4901    1.4444    0.0000 C   0  0  0  0  0  0  0  0  0  0  0  0
   -2.1156    2.8078    0.0000 O   0  0  0  0  0  0  0  0  0  0  0  0
  1  2  2  0
  2  3  1  0
  4  2  1  6
  4  5  1  0
  5  6  1  0
  6  7  2  0
  7  8  1  0
  7  9  1  0
  9 10  2  0
 10 11  1  0
 11 12  1  0
 12 13  1  0
 13 14  1  0
 11 15  2  0
 15 16  1  0
 16 17  2  0
 16 18  1  0
 18 19  1  1
 18  4  1  0
 15  6  1  0
M  END
>  <identifier>  (93) 
CNP0080619.1

>  <canonical_smiles>  (93) 
C=C(C)[C@H]1CC2=C(C)C=CC(COC)=C2C(=O)[C@@H]1O

>  <standard_inchi>  (93) 
InChI=1S/C16H20O3/c1-9(2)12-7-13-10(3)5-6-11(8-19-4)14(13)16(18)15(12)17/h5-6,12,15,17H,1,7-8H2,2-4H3/t12-,15-/m1/s1

>  <standard_inchi_key>  (93) 
ZOFZFNULWHEXPL-IUODEOHRSA-N

>  <name>  (93) 
nan

>  <iupac_name>  (93) 
(2~{R},3~{R})-2-hydroxy-3-isopropenyl-8-(methoxymethyl)-5-methyl-tetralin-1-one

>  <annotation_level>  (93) 
3

>  <total_atom_count>  (93) 
39

>  <heavy_atom_count>  (93) 
19

>  <molecular_weight>  (93) 
260.33

>  <exact_molecular_weight>  (93) 
260.14124

>  <molecular_formula>  (93) 
C16H20O3

>  <alogp>  (93) 
2.43

>  <topological_polar_surface_area>  (93) 
46.53

>  <rotatable_bond_count>  (93) 
3

>  <hydrogen_bond_acceptors>  (93) 
3

>  <hydrogen_bond_donors>  (93) 
1

>  <hydrogen_bond_acceptors_lipinski>  (93) 
3

>  <hydrogen_bond_donors_lipinski>  (93) 
1

>  <lipinski_rule_of_five_violations>  (93) 
0

>  <aromatic_rings_count>  (93) 
1

>  <qed_drug_likeliness>  (93) 
0.85

>  <formal_charge>  (93) 
0

>  <fractioncsp3>  (93) 
0.44

>  <number_of_minimal_rings>  (93) 
2

>  <van_der_walls_volume>  (93) 
nan

>  <contains_sugar>  (93) 
False

>  <contains_ring_sugars>  (93) 
False

>  <contains_linear_sugars>  (93) 
False

>  <murcko_framework>  (93) 
c1ccc2c(c1)CCCC2

>  <np_likeness>  (93) 
1.18

>  <chemical_class>  (93) 
Tetralins

>  <chemical_sub_class>  (93) 
Tetralins

>  <chemical_super_class>  (93) 
Benzenoids

>  <direct_parent_classification>  (93) 
Tetralins

>  <np_classifier_pathway>  (93) 
Terpenoids

>  <np_classifier_superclass>  (93) 
nan

>  <np_classifier_class>  (93) 
nan

>  <np_classifier_is_glycoside>  (93) 
False

>  <organisms>  (93) 
Emmotum nitens

>  <collections>  (93) 
NuBBEDB|WikiData Natural Products|ZINC NP

>  <dois>  (93) 
10.1016/0031-9422(74)80100-7

>  <synonyms>  (93) 
nan

>  <cas>  (93) 
nan

$$$$

     RDKit          2D

 10 10  0  0  0  0  0  0  0  0999 V2000
    3.7500    0.0000    0.0000 C   0  0  0  0  0  0  0  0  0  0  0  0
    2.2500   -0.0000    0.0000 C   0  0  0  0  0  0  0  0  0  0  0  0
    1.5000   -1.2990    0.0000 C   0  0  0  0  0  0  0  0  0  0  0  0
   -0.0000   -1.2990    0.0000 C   0  0  0  0  0  0  0  0  0  0  0  0
   -0.7500    0.0000    0.0000 C   0  0  0  0  0  0  0  0  0  0  0  0
   -2.2500    0.0000    0.0000 C   0  0  0  0  0  0  0  0  0  0  0  0
   -3.0000    1.2990    0.0000 C   0  0  0  0  0  0  0  0  0  0  0  0
   -3.0000   -1.2990    0.0000 C   0  0  0  0  0  0  0  0  0  0  0  0
    0.0000    1.2990    0.0000 C   0  0  0  0  0  0  0  0  0  0  0  0
    1.5000    1.2990    0.0000 C   0  0  0  0  0  0  0  0  0  0  0  0
  1  2  1  0
  2  3  2  0
  3  4  1  0
  4  5  2  0
  5  6  1  0
  6  7  1  0
  6  8  1  0
  5  9  1  0
  9 10  2  0
 10  2  1  0
M  END
>  <identifier>  (94) 
CNP0145577.0

>  <canonical_smiles>  (94) 
CC1=CC=C(C(C)C)C=C1

>  <standard_inchi>  (94) 
InChI=1S/C10H14/c1-8(2)10-6-4-9(3)5-7-10/h4-8H,1-3H3

>  <standard_inchi_key>  (94) 
HFPZCAJZSCWRBC-UHFFFAOYSA-N

>  <name>  (94) 
P-CYMENE

>  <iupac_name>  (94) 
1-isopropyl-4-methyl-benzene

>  <annotation_level>  (94) 
5

>  <total_atom_count>  (94) 
24

>  <heavy_atom_count>  (94) 
10

>  <molecular_weight>  (94) 
134.22

>  <exact_molecular_weight>  (94) 
134.10955

>  <molecular_formula>  (94) 
C10H14

>  <alogp>  (94) 
3.12

>  <topological_polar_surface_area>  (94) 
0.00

>  <rotatable_bond_count>  (94) 
1

>  <hydrogen_bond_acceptors>  (94) 
0

>  <hydrogen_bond_donors>  (94) 
0

>  <hydrogen_bond_acceptors_lipinski>  (94) 
0

>  <hydrogen_bond_donors_lipinski>  (94) 
0

>  <lipinski_rule_of_five_violations>  (94) 
0

>  <aromatic_rings_count>  (94) 
1

>  <qed_drug_likeliness>  (94) 
0.55

>  <formal_charge>  (94) 
0

>  <fractioncsp3>  (94) 
0.40

>  <number_of_minimal_rings>  (94) 
1

>  <van_der_walls_volume>  (94) 
149.11

>  <contains_sugar>  (94) 
False

>  <contains_ring_sugars>  (94) 
False

>  <contains_linear_sugars>  (94) 
False

>  <murcko_framework>  (94) 
c1ccccc1

>  <np_likeness>  (94) 
-0.72

>  <chemical_class>  (94) 
Prenol lipids

>  <chemical_sub_class>  (94) 
Monoterpenoids

>  <chemical_super_class>  (94) 
Lipids and lipid-like molecules

>  <direct_parent_classification>  (94) 
Aromatic monoterpenoids

>  <np_classifier_pathway>  (94) 
Terpenoids

>  <np_classifier_superclass>  (94) 
Monoterpenoids

>  <np_classifier_class>  (94) 
Menthane monoterpenoids

>  <np_classifier_is_glycoside>  (94) 
False

>  <organisms>  (94) 
Abies sachalinensis|Abrus pulchellus|Aceriphyllum rossii|Achillea Millefolium|Achillea abrotanoides|Achillea ageratum|Achillea arabica|Achillea asiatica|Achillea biebersteinii|Achillea crithmifolia|Achillea cuneatiloba|Achillea erba-rotta|Achillea grandifolia|Achillea millefolium|Achillea moschata|Achillea nana|Achillea nobilis|Achillea pannonica|Achillea ptarmica|Achillea wilhelmsii|Achyrospermum africanum|Acmella ciliata|Aconitum episcopale|Aconitum kamtschaticum|Aconitum leucostomum|Aconitum vilmorinianum|Acorus calamus|Acorus calanus L.|Acorus gramineus|Actinidia chinensis|Actinidia kolomikta|Actinodium cunninghamii|Adina trichotoma|Aethalium septicum|Afraegle paniculata|Aframomum angustifolium|Aframomum melegueta|Agastache rugosa|Agastache rugosus|Agathosma betulina|Agathosma capensis|Ageratum conyzoides|Agnorhiza bolanderi|Aiouea costaricensis|Ajania fastigiata|Akebia quinata|Akebia trifoliata|Alangium premnifolium|Alligator mississippiensis|Allium cepa|Allium victorialis|Alloascoidea hylecoeti|Aloe africana|Aloe ferox|Aloe spicata|Aloe vera|Aloysia citriodora|Aloysia citrodora|Aloysia gratissima|Aloysia triphylla|Alphinia galanga|Alpinia breviligulata|Alpinia carinata|Alpinia chinensis|Alpinia conchigera|Alpinia galanga|Alpinia latilabris|Alpinia mutica|Alpinia oxyphylla|Alpinia zerumbet|Ambrosia artemisiifolia|Amomum compactum|Amomum krervanh|Amomum medium|Amomum villosum|Amyris marshii|Anarsia lineatella|Anaxagorea clavata|Anethum graveolens|Anethum graveolens L.|Angelica Pubescens|Angelica acutiloba|Angelica acutiloba var. sugiyamae|Angelica acutiloba var.sugiyamae|Angelica archangelica|Angelica dahurica|Angelica gigas|Angelica pubescens|Angelica pubescens f.biserrata|Angelica sinensis|Angelica tarokoensis|Annona cascarilloides|Annona reticulata|Annulusmagnus triseptatus|Anthemis aciphylla|Anthemis aciphylla BOISS.var.discoidea BOISS|Anthocercis genistoides|Aphanamixis polystachya|Apium graveolens|Apocynum androsaemifolium|Apocynum cannabinum|Apocynum venetum|Apollonias barbujana|Aquilegia ecalcarata|Araujia sericifera|Ardisia arborescens|Aria pallescens|Aristolochia debilis|Aristolochia trilobata|Aristolochiaceae|Armillaria tabescens|Armina maculata|Arnebia euchroma|Arnebia guttata|Arnica nevadensis|Aromia moschata|Artemisia|Artemisia Annua|Artemisia Capillaris|Artemisia absinthium|Artemisia afra|Artemisia alba|Artemisia ammaniana|Artemisia annua|Artemisia arborescens|Artemisia arbuscula|Artemisia argyi|Artemisia capillaries|Artemisia capillaris|Artemisia halophila|Artemisia hanseniana|Artemisia herba-alba|Artemisia jacutica|Artemisia judaica|Artemisia lagocephala|Artemisia macrocephala|Artemisia messerschmidtiana|Artemisia molinieri|Artemisia monogyna|Artemisia montana|Artemisia princeps|Artemisia rubripes|Artemisia salsoloides|Artemisia santonicum|Artemisia scoparia|Artemisia scoparia.|Artemisia sericea|Artemisia spicigera|Artemisia szowitziana|Artemisia thuscula|Artemisia vulgaris|Artemisia xerophytica|Arthrophytum leptocladum|Asarum asperum|Asarum canadense|Asarum celsum|Asarum dilatatum|Asarum fauriei|Asarum fudsinoi|Asarum gusk|Asarum heterotropoides|Asarum heterotropoides f. schm. var. mandshuricum (maxim.) kitag.|Asarum heterotropoides var. mandshuricum|Asarum heterotropoides var.mandsuricum|Asarum macranthum|Asarum sieboldii|Asarum simile|Asarum takaoi|Asarum yakusimense|Asclepias speciosa|Asiasarum heterotropoides|Asiasarum sieboldii|Aspergillus ruber|Aspergillus violaceus|Aster scaber|Asteraceae|Asterolasia squamuligera|Astragalus glycyphyllos|Athamanta macedonica|Athrixia elata|Aucklandia lappa|Aucoumea klaineana|Austrobaileya scandens|Azadirachta indica|Baccharis dracunculifolia|Baeckea frutescens|Bassia butyracea|Beilschmiedia pendula|Beyeria brevifolia|Bidens andicola|Bistorta manshuriensis|Bistorta officinalis|Bitter bush|Blepharis sindica|Blepharocalyx salicifolius|Blepharocalyx tweediei|Blumea mollis|Bombax ceiba|Boronella koniambiensis|Boronia latipinna|Boswellia carteri|Boswellia carterii|Boswellia frereana|Boswellia sacra|Boswellia serrata|Bothriochloa bladhii|Botryotrichum murorum|Brachyspira hyodysenteriae|Bragantia wallichii|Brevibacillus laterosporus|Bunium paucifolium|Bupleurum fruticescens|Bupleurum fruticosum|Bupleurum gibraltaricum|Bursaria spinosa|Cacia concinna|Caesulia axillaris|Calamintha incana|Callicarpa bodinieri|Callistemon linearis|Callitropsis nootkatensis|Camellia saluenensis|Camellia sinensis|Canarium luzonicum|Canarium strictum|Canella winterana|Cannabis sativa|Cantinoa mutabilis|Capsicum annuum|Carica papaya|Carthamus tinctorius|Carum carvi|Carum copticum|Casimiroa greggii|Cassinia subtropica|Catha edulis|Catharanthus roseus|Caulis perillae|Caulis perillae frutescentis|Ceanothus velutinus|Cedrus atlantica|Cedrus deodara|Cellulomonas biazotea|Centaurea benedicta|Centaurea cheiranthifolia|Centaurea oltensis|Centaurea sessilis|Centaurea solstitialis|Centranthus longiflorus ssp. longiflorus|Centratherum punctatum|Centromadia fitchii|Ceratiomyxa fruticulosa|Cetraria aculeata|Chaerophyllum macrospermum|Chamaecyparis lawsoniana|Chamaecyparis obtusa|Chamaecyparis pisifera|Chamomilla recutita|Chenopodium Ambrosioides|Chenopodium ambrosioides|Chenopodium ambrosioides L.|Chenopodium multifidum|Chiliadenus lopadusanus|Chloranthus tianmushanensis|Chlorophytum borivilianum|Chresta sphaerocephala|Chromolaena odorata|Chromolaena pulchella|Chrysanthemum indicum|Chrysanthemum morifolium|Chrysanthemum x morifolium|Chrysocephalum ambiguum|Chrysopogon zizanioides|Cicuta virosa|Cinnamomum aromaticum|Cinnamomum burmanni|Cinnamomum camphora|Cinnamomum illicioides|Cinnamomum impressinervium|Cinnamomum sieboldii|Cinnamomum tamala|Cinnamomum tenuifolium|Cinnamomum verum|Cinnamomum zeylanicum|Cinnamon|Cistus albidus|Cistus creticus|Cistus ladanifer|Cistus laurifolius|Cistus monspeliensis|Citrus Aurantifolia|Citrus Aurantium|Citrus Grandis|Citrus Hystrix|Citrus Paradisi|Citrus Reticulata|Citrus Sinensis|Citrus aurantifolia|Citrus aurantiifolia|Citrus aurantium|Citrus grandis|Citrus hystrix|Citrus junos|Citrus limon|Citrus medica|Citrus medica var. sarcodactylis|Citrus paradisi|Citrus reticulata|Citrus reticulate|Citrus sinensis|Citrus sp.|Citrus unshiu|Citrus wilsonii|Citrus × deliciosa|Citrus × paradisi|Citrus ×iyo|Cladanthus arabicus|Cladonia evansii|Cladosporium tenuissimum|Clausena anisata|Clausena excavata|Cleistopholis patens|Cleonia lusitanica|Clinopodium album|Clinopodium barbatum|Clinopodium brevifolium|Clinopodium brownei|Clinopodium carolinianum|Clinopodium congestum|Clinopodium gilliesii|Clinopodium grandiflorum|Clinopodium insulare|Clinopodium odorum|Clinopodium suaveolens|Clinopodium thymifolium|Clonostachys rosea|Cnicus benedictus|Cnidium officinale|Coccus fagi|Coelogorgia palmosa|Coespeletia timotensis|Colchicum arenarium|Coleus amboinicus|Colobocentrotus atratus|Commiphora africana|Commiphora gurreh|Commiphora quadricincta|Conioselinum anthriscoides|Conobea scoparioides|Conyza incana|Conyza newii|Coptis chinensis|Coptis deltoidea|Coptis japonica|Coptis teeta|Corbicula fluminea|Coreopsis grandiflora|Coriandrum sativum|Coriandrum sp.|Coridothymus capitatus|Cornulaca monacantha|Cornus officinalis|Cortinellus berkeleyanus|Corydalis flabellata|Corydalis nakaii|Corymbia citriodora|Corymbia maculata|Cotinus coggygria|Craibiodendron yunnanese|Crateva religiosa|Cratoxylum pruniflorum|Crithmum maritimum|Crocus asturicus|Croton adenocalyx|Croton conduplicatus|Croton eluteria|Croton grewioides|Croton jimenezii|Croton lachnostachyus|Croton mucronifolius|Croton sarcopetalus|Croton sonderianus|Croton stellulifer|Croton stelluliferus|Croton zambesicus|Croton zehntneri|Cryptocarya agathophylla|Cryptomeria japonica|Cryptotaenia japonica|Cuminum cyminum|Cuminum cyminum L.|Cupressus sempervirens|Curcuma Xanthorrhiza|Curcuma amada|Curcuma amanda Roxb|Curcuma longa|Curcuma pierreana|Curcuma xanthorrhiza|Cyclotrichium niveum|Cyerce cristallina|Cymbopogon citratus|Cymbopogon flexuosus|Cymbopogon martinii|Cymbopogon schoenanthus|Cyperaceae|Cyperus Rotundus|Cyperus rotundus|Cyperus rotundus L.|Daphnandra johnsonii|Daucus carota|Delphinium andersoni|Dendranthema indicum|Dendrobium chrysanthum|Dendrobium officinale|Dendrosenecio kilimanjari|Dianella revoluta|Dichapetalum madagascariense|Dimocarpus fumatus|Diospyros crassiflora|Diphasia angolensis|Diplolophium africanum|Diplotaenia cachrydifolia|Dipterocarpus alatus|Dipterocarpus dyeri|Dipteronia dyeriana|Dodonaea polyandra|Doriopsilla albopunctata|Drosera peltata|Ducrosia ismaelis|Dysphania ambrosioides|Dysphania multifida|Echinophora chrysantha|Echinophora lamondiana|Echinophora orientalis|Echinophora tenuifolia|Echinophora tournefortii|Echinophora trichophylla|Echinops amplexicaulis|Echites hirsuta|Ectropis bicolor|Elettaria cardamomum|Elsholtzia blanda|Elsholtzia bodinieri|Elsholtzia ciliata|Elsholtzia fruticosa|Elsholtzia pilosa|Elsholtzia splendens|Epaltes gariepina|Ephedra sinica|Epimedium davidii|Epimedium versicolor|Erica carnea|Erigeron canadensis|Erinaceus europaeus|Erodendrum neriifolium|Eryngium foetidum|Erysimum odoratum|Erythrina burttii|Eschweilera coriacea|Esox saurus|Espeletia timotensis|Etlingera cevuga|Etlingera elatior|Etlingera pavieana|Eucalyptus|Eucalyptus angulosa|Eucalyptus apodophylla|Eucalyptus approximans|Eucalyptus behriana|Eucalyptus botryoides|Eucalyptus brassiana|Eucalyptus bridgesiana|Eucalyptus burgessiana|Eucalyptus camaldulensis|Eucalyptus ceratocorys|Eucalyptus cladocalyx|Eucalyptus cloeziana|Eucalyptus crenulata|Eucalyptus cuprea|Eucalyptus dealbata|Eucalyptus deglupta|Eucalyptus delegatensis|Eucalyptus dendromorpha|Eucalyptus dolichorhyncha|Eucalyptus fasciculosa|Eucalyptus forrestiana|Eucalyptus fraxinoides|Eucalyptus globulus|Eucalyptus grandis|Eucalyptus hybrid|Eucalyptus incrassata|Eucalyptus intertexta|Eucalyptus jensenii|Eucalyptus lansdowneana|Eucalyptus leucoxylon|Eucalyptus macarthurii|Eucalyptus maidenii|Eucalyptus melanophloia|Eucalyptus melliodora|Eucalyptus mitchelli|Eucalyptus mitchelliana|Eucalyptus nitens|Eucalyptus nova-anglica|Eucalyptus occidentalis|Eucalyptus ochrophloia|Eucalyptus odorata|Eucalyptus paliformis|Eucalyptus paniculata|Eucalyptus pellita|Eucalyptus polyanthemos|Eucalyptus polybractea|Eucalyptus populnea|Eucalyptus porosa|Eucalyptus pulverulenta|Eucalyptus punctata|Eucalyptus radiata|Eucalyptus saligna|Eucalyptus sideroxylon|Eucalyptus sparsa|Eucalyptus stenostoma|Eucalyptus stoatei|Eucalyptus tereticornis|Eucalyptus tetraptera|Eucalyptus triflora|Eucalyptus viridis|Eupatorium Fortunei|Eupatorium cannabinum|Eupatorium capillifolium|Eupatorium fortunei|Eupatorium pauciflorum|Eupolyphaga sinensis|Eutypella scoparia|Exodermis poria|Fagara ailanthoides|Falcaria vulgaris|Ferula assafoetida|Ferula fukanensis|Ferula jaeschkeana|Ferula sinkiangensis|Ferulago contracta|Ferulago nodosa|Ferulago thirkeana|Ficus formosana|Flacourtia inermis|Fleischmannia prasiifolia|Foeniculum vulgare|Folium perillae|Forsythia suspensa|Forsythia suspense|Fragaria indica|Fragaria vesca|Fructus amomi|Fructus galangae|Fructus schiandrae|Frullania brittoniae|Frullania tamarisci|Fusarium gibbosum|Galenia africana|Garcinia dulcis|Garcinia macrophylla|Garcinia oligantha|Garcinia scortechinii|Gardenia fosbergii|Gardenia tubifera|Gastrolobium callistachys|Geranium|Geum heterocarpum|Glehnia littoralis|Globba malaccensis|Gnidia lamprantha|Gossypium herbaceum|Gouania microcarpa|Grindelia hirsutula|Guatteria hispida|Guatteriopsis hispida|Guavaberry|Gymnanthemum amygdalinum|Gyrothyra underwoodiana|Hansenia forbesii|Hansenia weberbaueriana|Hardwickia pinnata|Hedeoma mandoniana|Hedychium coronarium|Hedyosmum mexicanum|Helenium alternifolium|Helichrysum ambiguum|Helichrysum bracteiferum|Helichrysum odoratissimum|Heracleum dissectum|Heracleum persicum|Herba artemisiae scopariae|Herba coriandri|Hesperozygis rhododon|Heteranthemis viscidehirta|Heterocondylus didymus|Heterotheca inuloides|Heterotropa|Hippeastrum aulicum|Homo sapiens|Houttuynia cordata|Humulus lupulus|Huperzia lucidula|Hypericum heterophyllum|Hypericum hyssopifolium|Hypericum perforatum|Hyptis goyazensis|Hyptis mutabilis|Hyptis pectinata|Hyptis suaveolens|Hyssopus officinalis|Hyssopus seravschanicus|Ilex affinis|Ilex amara|Illicium difengpi|Illicium verum|Inula helenium|Inula racemosa|Ipomoea cairica|Iris spuria|Isodon japonicus|Isodon kameba|Isodon lophanthoides|Isodon melissoides|Isodon rubescens|Isodon rugosus|Jacobaea argunensis|Jaspis stellifera|Juniperus communis|Juniperus drupacea|Juniperus durangensis|Juniperus jaliscana|Juniperus monticola|Juniperus occidentalis|Juniperus oxycedrus|Juniperus rigida|Juniperus taxifolia|Justicia ghiesbreghtiana|Kaempferia pulchra|Knightia excelsa|Kokoona ochracea|Kopsia grandifolia|Kunzea ericoides|Kunzea flavescens|Kunzea salina|Kunzea sinclairii|Kyllinga brevifolia|Lactarius scrobiculatus|Laggera alata|Laggera aurita|Laggera pterodonta|Lagoecia cuminoides|Lamellodysidea herbacea|Lamiaceae|Lamprolobium fruticosum|Lantana Camara|Lantana camara|Lantana indica|Lanxangia tsao-ko|Larix gmelinii var. gmelinii|Larix kaempferi|Larix sibirica|Larix sukaczewii|Lasianthus fordii|Latua pubiflora|Launea|Laurencia distichophylla|Laurus nobilis|Lavandula angustifolia|Lavandula latifolia|Lavandula stoechas|Ledebouria socialis|Leonotis leonurus|Leonurus glaucescens|Lepechinia chamaedryoides|Lepechinia chilensis|Lepidium draba|Leptospermum scoparium|Leucopaxillus giganteus|Levisticum officinale|Libocedrus bidwillii|Ligularia|Ligularia hodgsonii|Ligusticum chuanxiong|Ligusticum porteri|Ligusticum sinense|Ligusticum striatum|Limnophila repens|Lindera aggregata|Lindera pulcherrima var. hemsleyana|Lindera strichnifolia|Lippia Myriocephala|Lippia alnifolia|Lippia chevalieri|Lippia gracilis|Lippia grata|Lippia graveolens|Lippia multiflora|Lippia origanoides|Lippia rehmannii|Lippia sidoides|Lippia ukambensis|Liquidambar orientalis|Liquidambar styraciflua|Litchi chinensis|Lithospermum erythrorhizon|Litsea cubeba|Litsea glaucescens|Lobelia st|Lycopus europaeus|Lysimachia clethroides|Maba buxifolia|Maesopsis eminii|Magnolia biondii|Magnolia denudata|Magnolia kobus|Magnolia liliflora|Magnolia liliiflora|Magnolia obovata|Magnolia officinalis|Magnolia salicifolia|Magnolia sprengeri|Mallotus rhamnifolius|Malus domestica|Malus pumila|Manekia naranjoana|Mangifera indica|Manilkara hexandra|Marasmius graminum|Marrubium vulgare|Marrubium vulgare L.|Masla dianthera|Matricaria chamomilla|Matsutake|Maytenus loeseneri|Maytenus serrata|Medicago truncatula|Melaleuca Leucadendra|Melaleuca alternifolia|Melaleuca decussata|Melaleuca dissitiflora|Melaleuca leucadendra|Melaleuca leucadendra L.|Melaleuca linariifolia|Melaleuca parviflora|Melaleuca quinquenervia|Melaleuca sp.|Melaleuca squarrosa|Melia azadirach|Melissa officinalis|Mentha|Mentha Piperita|Mentha X piperita|Mentha aquatica|Mentha arvensis|Mentha arvensis L.|Mentha canadensis|Mentha haplocalyx|Mentha piperita|Mentha piperita L.|Mentha pulegium|Mentha spicata|Mentha suaveolens|Mentha suaveolens Ehrh.|Mesosphaerum pectinatum|Microcitrus|Micromeria biflora|Micromeria croatica|Micromeria juliana|Micromeria maderensis|Micromeria myrtifolia|Micromeria pineolens|Micromeria teneriffae|Mikania banisteriae|Mikania congesta|Mikania cordifolia|Mikania grazielae|Mikania parviflora|Mimosa tenuiflora|Minthostachys andina|Minthostachys glabrescens|Molopospermum peloponnesiacum|Monarda citriodora|Monarda fistulosa|Monodora tenuifolia|Monomorium floricola|Moringa oleifera|Moringa stenopetala|Mosla Dianthera|Mosla cavaleriei|Mosla chinensis|Mosla dianthera|Mourera fluviatilis|Murraya kwangsiensis|Myrcia hedraiophylla|Myrcianthes fragrans|Myrciaria rupestris|Myristica fragrans|Myrtaceae|Myrtus communis|Narcissus tazetta|Nardostachys jatamansi|Nasutitermes nigriceps|Nectandra salicina|Nemalion vermiculare|Nepeta annua|Nepeta crispa|Nepeta nepetella|Nepeta nuda|Nepeta racemosa|Nepeta trachonitica|Nicotiana tabacum|Nidorella resedifolia|Nidula candida|Nigella glandulifera|Nigella sativa|Nigella sativa L|Notopterygium forbesii|Notopterygium incisum|Ocimum americanum|Ocimum basilicum|Ocimum gratissimum|Ocotea|Ocotea austinii|Ocotea gomezii|Ocotea morae|Ocotea veraguensis|Odixia angusta|Odontites rubra|Oenanthe aquatica|Oleum ocimi gratissimi|Ongokea klaineana|Ophiocoma scolopendrina|Ophioparma ventosa|Ophiorrhiza blumeana|Ophryosporus charua|Origanum acutidens|Origanum adanense|Origanum cordifolium|Origanum dictamnus|Origanum dubium|Origanum floribundum|Origanum intercedens|Origanum majorana|Origanum minutiflorum|Origanum onites|Origanum paniculatum|Origanum sipyleum|Origanum syriacum|Origanum vulgare|Osbornia octodonta|Osmorhiza aristata|Otostegia fruticosa|Paeonia delavayi|Pagrus major|Panax innovans|Parmelia pseudoreticulata|Parmelia vittata|Parthenium argentatum|Parthenium confertum|Parthenium fruticosum|Parthenium hysterophorus|Parthenium incanum|Parthenium schottii|Parthenium tomentosum|Pectis elongata var. floribunda|Pelargonium citronellum|Pelargonium endlicherianum|Pelargonium graveolens|Pelargonium quercifolium|Pelargonium ternifolium|Pelargonium vitifolium|Pelargonium x hortorum|Peltigera aphthosa|Peltodon longipes|Penicillium cinerascens|Penicillium citreonigrum|Pericarpium citri|Pericarpium citri reticulatae|Pericarpium citri reticulatae viride|Pericarpium zanthoxyli|Perilla frutescens|Perilla frutescens (l.) britt. var. crispa (thunb.) hand.-mazz.|Perilla frutescens var. acuta|Perilla frutescens var. arguta|Perilla frutescens var.arguta|Periploca graeca|Perovskia|Perovskia atriplicifolia|Persea mexicana|Persea obovatifolia|Petasites albus|Petasites hybridus|Petasites tatewakianus|Petriella guttulata|Petroselinum crispum|Peucedanum palustre|Peucedanum zenkeri|Phalaenopsis aphrodite|Phaseolus vulgaris|Phaulopsis imbricata|Phebalium gracile|Pheidole pallidula|Philadelphia fleabane|Phyla nodiflora|Phyllobates aurotaenia|Physalis solanaceus|Physcia aegialita|Picea abies|Picea abies var. abies|Picea glehnii|Picea koraiensis|Picea obovata|Picea rubens|Picridium crystallinum|Pieris melete|Pieris napi|Pimenta dioica|Pimenta racemosa|Pimpinella anisum|Pimpinella serbica|Pinna muricata|Pinus aristata|Pinus cembroides|Pinus densiflora var. densiflora|Pinus flexilis|Pinus halepensis|Pinus longaeva|Pinus merkusii|Pinus pumila|Pinus remota|Pinus sibirica|Pinus sp.|Pinus sylvestris|Piper aduncum|Piper arboreum|Piper augustum|Piper auritum|Piper betle|Piper callosum|Piper cubeba|Piper fimbriulatum|Piper gibbilimbum|Piper lanceaefolium|Piper marginatum|Piper nigrum|Piper obliquum|Piper regnellii|Piper sintenense|Piper sylvestre|Piper vitaceum|Pistacia integerrima|Pistacia vera|Pittocaulon bombycophole|Pittosporum balfourii|Plagiochila rutilans|Plagiochila rutilans var. standleyi|Platycladus orientalis|Plectranthus marrubioides|Plectranthus mollis|Pluchea dioscoridis|Pocillopora damicornis|Podachaenium eminens|Podocarpus elongata|Podocarpus salignus|Poliomintha incana|Polyachyrus sphaerocephalus|Polygala senega|Polyopes affinis|Porophyllum ruderale|Portulaca okinawensis|Poterium sanguisorba|Prangos uechtritzii|Prangos uloptera|Primula macrophylla|Prosopis glandulosa|Prosopis ruscifolia|Prostanthera ovalifolia|Protaetia cuprea|Protium heptaphyllum|Prunus armeniaca|Prunus armenica|Prunus laurocerasus|Pseudopterogorgia kallos|Psiadia altissima|Psidium friedrichsthalianum|Psidium guajava|Psidium salutare|Psidium salutare var. pohlianum|Psychotria bahiensis|Pteris palmiformis|Pteris prolifera|Pterocarpus grandiflorus|Pteronia incana|Ptychopetalum olacoides|Pycnanthemum floridanum|Pyrola rotundifolia|Pyrosoma giganteum|Pyura sacciformis|Quercus aegilops|Quercus coccifera|Quercus ilex|Quercus sessiliflora|Rabdosia rubescens|Radix chuanxiong|Remijia pedunculata|Renealmia floribunda|Rhanterium epapposum|Rhizobium phaseoli|Rhizoma chuanxiong|Rhodiola rosea|Rhodiola rosea L.|Rhodobacter sphaeroides|Rhododendron dauricum|Rhododendron groenlandicum|Rhododendron tomentosum|Rhodomicrobium vannielii|Ribes nigrum|Ricciocarpos natans|Rosmarinus Officinalis|Rosmarinus eriocalyx|Rosmarinus officinalis|Rosmarinus officinalis L.|Rosmarinus sp.|Rosmarinus tomentosus|Rubus pungens|Rubus trifidus|Rudbeckia hirta|Rusavskia elegans|Russula queletii|Ruta angustifolia|Salacia madagascariensis|Salvadora persica|Salvia|Salvia abrotanoides|Salvia absconditiflora|Salvia aurea|Salvia brandegeei|Salvia caespitosa|Salvia candidissima|Salvia columbariae|Salvia dichroa|Salvia dorisiana|Salvia dorystaechas|Salvia fruticosa|Salvia granatensis|Salvia hydrangea|Salvia jordanii|Salvia mellifera|Salvia munzii|Salvia officinalis|Salvia pomifera|Salvia sclarea|Salvia syriaca|Salvia tomentosa|Salvia triloba|Santolina canescens|Santolina chamaecyparissus|Saracha viscosa|Sarcodon aspratus|Sarcophyton glaucum|Sassafras albidum|Satureja bachtiarica|Satureja boissieri|Satureja cilicica|Satureja cuneifolia|Satureja hortensis|Satureja montana|Satureja parnassica|Satureja spicigera|Satureja thymbra|Satureja wiedemanniana|Saussurea Lappa|Saussurea carthamoides|Saussurea lappa|Saxifraga Stolonifera|Saxifraga stolonifera|Saxifraga stolonifera Meerb.|Scalesia affinis|Scalesia aspera|Scalesia baurii|Scalesia cordata|Scalesia crockeri|Scalesia helleri|Scalesia incisa|Scalesia microcephala|Scalesia pedunculata|Scalesia stewartii|Scalesia villosa|Schinus|Schinus molle|Schinus terebinthus|Schisandra Chinensis|Schisandra chinensis|Schistostephium rotundifolium|Schizonepeta tenuifolia|Scutellaria lateriflora|Scutellaria violacea|Scytalidium uredinicola|Securidaca inappendiculata|Senecio squalidus|Senna alexandrina|Senna sophera|Sequoia sempervirens|Sequoiadendron giganteum|Seriphidium cinum|Sesbania punicea|Sideritis amasiaca|Sideritis athoa|Sideritis chamaedryfolia|Sideritis condensata|Sideritis congesta|Sideritis dichotoma|Sideritis hirsuta|Sideritis hispida|Sideritis lanata|Sideritis leucantha|Sideritis lyciae|Sideritis paulii|Sideritis perfoliata|Sideritis romana|Sideritis syriaca|Simira eliezeriana|Sinopodophyllum emodi|Sinopodophyllum hexandrum|Siparuna thecaphora|Siphocampylus verticillatus|Siphula roccellaeformis|Sium latifolium|Smallanthus fruticosus|Smallanthus maculatus|Solanecio biafrae|Solanum acaule|Solanum betaceum|Solanum incisum|Solanum stuckertii|Solanum toxicarum|Solidago canadensis|Solidago gigantea|Solidago odora|Sophora flavescens|Sordaria araneosa|Spirastrella inconstans|Spodoptera eridania|Spongia australis|Stachys aegyptiaca|Steganotaenia araliacea|Stelletta inconspicua|Stenostomum lucidum|Stereocaulon sasakii|Stevia alpina|Stevia satureiaefolia|Stillingia sanguinolenta|Stockwellia|Stoeba extensa|Streptomyces althioticus|Streptomyces fervens|Streptomyces griseovariabilis|Streptomyces lavendulae|Streptomyces tumescens|Streptomyces violaceochromogenes|Strobilanthes callosa|Strobilanthes zeylanica|Strophanthus eminii|Strophanthus kombe|Succinus|Suillus granulatus|Swertia delavayi|Synoicum castellatum|Syringa komarowi|Syzygium aromaticum|Syzygium cumini|Syzygium nervosum|Syzygium samarangense|Tagetes minuta|Talaromyces coalescens|Tamarix gallica|Tambourissa leptophylla|Tanacetum annuum|Tanacetum millefolium|Tanacetum parthenium|Tanacetum vulgare|Tarchonanthus camphoratus|Taxodium mucronatum|Tessaria fastigiata|Tetradenia riparia|Teucrium asiaticum|Teucrium cyprium|Teucrium kotschyanum|Teucrium leucocladum|Teucrium micropodioides|Teucrium oxylepis|Teucrium polium|Teucrium pseudoscorodonia|Teucrium salviastrum|Teucrium scorodonia|Teucrium trifidum|Thalictrum fortunei|Thapsia garganica|Thapsia maxima|Thapsia villosa|Thuja occidentalis|Thuja standishii|Thujopsis dolabrata|Thujopsis dolabrata var. dolabrata|Thymbra capitata|Thymbra spicata|Thymus|Thymus Carmanicus|Thymus Vulgaris|Thymus baeticus|Thymus broussonetii|Thymus camphoratus|Thymus capitatus|Thymus cariensis|Thymus carnosus|Thymus cilicicus|Thymus daghestanicus|Thymus eigii|Thymus fedtschenkoi|Thymus funkii|Thymus kotschyanus|Thymus longicaulis|Thymus longiflorus|Thymus magnus|Thymus membranaceus|Thymus nummularius|Thymus orespedanus|Thymus pastoralis|Thymus pectinatus|Thymus piperella|Thymus pubescens|Thymus pulegioides|Thymus quinquecostatus|Thymus revolutus|Thymus riatarum|Thymus saturejoides|Thymus schimperi|Thymus sibthorpii|Thymus sipyleus|Thymus sp.|Thymus thracicus|Thymus villosus|Thymus vulgaris|Thymus vulgaris L.|Thymus willkommii|Thymus zygioides|Thymus zygis|Toddalia asiatica|Torulopsis magnoliae|Trachyspermum ammi|Trapa bispinosa|Trichia favoginea|Trichostema dichotomum|Trichostema lanceolatum|Trifoliate orange|Trifolium Repens|Trifolium repens L.|Trypetheliopsis boninensis|Ulva clathrata|Ulva pertusa|Umbellularia californica|Umbilicaria pustulata|Uncaria glabrata|Urolepis hecatantha|Usnea florida|Uvaria chamae|Uvaria narum|Vaccinium angustifolium|Vaccinium ashei|Vaccinium corymbosum|Vaccinium virgatum|Vaccinium vitis-idaea|Valeriana Jatamansi|Valeriana jatamansi|Valeriana jatamansii|Valeriana officinalis|Valeriana officinalis l. var. latifolia miq.|Valeriana officinalis var. latifolia|Valeriana officinalis var.latifolia|Vallota purpurea|Varronia curassavica|Vepris boiviniana|Vepris pilosa|Veratrum stenophyllum|Viburnum chingii|Viburnum fur|Viola hondoensis|Virola surinamensis|Vismia jefensis|Vitex agnus-castus|Vitex madiensis|Vitex negundo|Vitex trifolia|Vitis rotundifolia|Vitis vinifera|Vogtia annua|West African Pepper|Wurfbainia villosa|Xanthium orientale|Xanthium strumarium|Xanthocyparis nootkatensis|Xenia puertogalerae|Xenophyllum poposum|Xylopia aethiopica|Xylopia aromatica|Xylopia sericea|Zanthoxylum armatum|Zanthoxylum asiaticum|Zanthoxylum bungeanum|Zanthoxylum chalybaeum|Zanthoxylum chalybeum|Zanthoxylum chiriquinum|Zanthoxylum piperitum|Zanthoxylum schinifolium|Zanthoxylum simulans|Zataria multiflora|Zingiber Officinale|Zingiber mioga|Zingiber officinale|Zingiber zerumbet|Zinnia elegans|Zinnia violacea|basil|bellis perennis|candyleaf|common myrtle|common sunflower|corn mint|liquorice|marjoram|parsley|pomegranate|pomelo|tarragon|tomato|water mint

>  <collections>  (94) 
ANPDB|Australian natural products|CMAUP (cCollective molecular activities of useful plants)|ChEBI NPs|EMNPD|ETM (Ethiopian Traditional Medicine) DB|FooDB|HIM (Herbal Ingredients in-vivo Metabolism database)|KNApSaCK|Latin America dataset|Mitishamba database|NANPDB (Natural Products from Northern African Sources)|NAPRORE-CR|NPASS|NPDBEjeCol|NPEdia|NuBBEDB|Phyto4Health|PhytoLab phyproof® Reference Substances|Super Natural II|TCMDB-Taiwan (Traditional Chinese Medicine database)|TCMID (Traditional Chinese Medicine Integrated Database)|TIPdb (database of Taiwan indigenous plants)|TPPT (Toxic Plants–PhytoToxins)|UEFS (Natural Products Databse of the UEFS)|UNPD (Universal Natural Products Database)|VietHerb|WikiData Natural Products

>  <dois>  (94) 
10.1002/(SICI)1097-0231(199608)10:11<1345::AID-RCM631>3.0.CO;2-4|10.1002/(SICI)1099-1026(199601)11:1<15::AID-FFJ541>3.0.CO;2-H|10.1002/(SICI)1099-1026(199605)11:3<153::AID-FFJ558>3.0.CO;2-L|10.1002/(SICI)1099-1026(199611)11:6<367::AID-FFJ598>3.0.CO;2-R|10.1002/(SICI)1099-1026(199703)12:2<117::AID-FFJ612>3.0.CO;2-X|10.1002/(SICI)1099-1026(199901/02)14:1<15::AID-FFJ777>3.0.CO;2-M|10.1002/(SICI)1099-1026(199903/04)14:2<140::AID-FFJ800>3.0.CO;2-R|10.1002/(SICI)1099-1026(199911/12)14:6<393::AID-FFJ849>3.0.CO;2-5|10.1002/(SICI)1099-1026(199911/12)14:6<405::AID-FFJ853>3.0.CO;2-M|10.1002/(SICI)1099-1565(199909/10)10:5<241::AID-PCA460>3.0.CO;2-5|10.1002/(SICI)1099-1573(199605)10:3<248::AID-PTR807>3.0.CO;2-9|10.1002/(SICI)1099-1573(199702)11:1<67::AID-PTR29>3.0.CO;2-I|10.1002/(SICI)1099-1573(1998)12:1+<S117::AID-PTR269>3.0.CO;2-2|10.1002/(SICI)1522-2675(19990113)82:1<53::AID-HLCA53>3.0.CO;2-7|10.1002/1099-1026(200005/06)15:3<201::AID-FFJ893>3.0.CO;2-I|10.1002/1099-1026(200009/10)15:5<339::AID-FFJ922>3.0.CO;2-H|10.1002/1099-1026(200011/12)15:6<373::AID-FFJ923>3.0.CO;2-9|10.1002/1099-1026(200011/12)15:6<413::AID-FFJ931>3.0.CO;2-H|10.1002/1099-1026(200101/02)16:1<19::AID-FFJ940>3.0.CO;2-U|10.1002/1099-1573(200008)14:5<323::AID-PTR621>3.0.CO;2-Q|10.1002/1099-1573(200011)14:7<549::AID-PTR623>3.0.CO;2-T|10.1002/9780470744307.gat218|10.1002/ARDP.19673000509|10.1002/BMC.696|10.1002/CBDV.200900162|10.1002/CBDV.201100039|10.1002/CBDV.201100326|10.1002/CBDV.201800531|10.1002/CBER.188201501176|10.1002/CBER.190003302157|10.1002/CBER.19610941204|10.1002/CJOC.201180379|10.1002/ECE3.5390|10.1002/FFJ.1029|10.1002/FFJ.1053|10.1002/FFJ.1105|10.1002/FFJ.1124|10.1002/FFJ.1175|10.1002/FFJ.1187|10.1002/FFJ.1248|10.1002/FFJ.1279|10.1002/FFJ.1417|10.1002/FFJ.1582|10.1002/FFJ.2730010103|10.1002/FFJ.2730020106|10.1002/FFJ.2730020108|10.1002/FFJ.2730020110|10.1002/FFJ.2730020404|10.1002/FFJ.2730030204|10.1002/FFJ.2730030208|10.1002/FFJ.2730040206|10.1002/FFJ.2730050207|10.1002/FFJ.2730050307|10.1002/FFJ.2730060307|10.1002/FFJ.2730070109|10.1002/FFJ.2730070110|10.1002/FFJ.2730070111|10.1002/FFJ.2730070603|10.1002/FFJ.2730090107|10.1002/FFJ.2730090305|10.1002/FFJ.2730100313|10.1002/FFJ.2730100317|10.1002/FFJ.2730100408|10.1002/FFJ.2730100605|10.1002/FFJ.2730100609|10.1002/HLCA.19840670504|10.1002/JCTB.5000681208|10.1002/JPS.3080240806|10.1002/JSFA.2740430304|10.1002/JSFA.2740580109|10.1002/PCA.759|10.1002/PTR.2137|10.1002/PTR.2650010304|10.1002/PTR.2650040210|10.1002/PTR.2650040606|10.1002/PTR.2650070123|10.1002/PTR.2650090215|10.1002/RCM.1290091307|10.1002/RECL.19310500506|10.1002/biuz.19840140514|10.1007/978-0-85729-323-7_1048|10.1007/BF00567053|10.1007/BF00567171|10.1007/BF00567284|10.1007/BF00567793|10.1007/BF00568252|10.1007/BF00568254|10.1007/BF00568256|10.1007/BF00568367|10.1007/BF00570218|10.1007/BF00574355|10.1007/BF00574605|10.1007/BF00575062|10.1007/BF00576231|10.1007/BF00579167|10.1007/BF00579447|10.1007/BF00579841|10.1007/BF00580068|10.1007/BF00580907|10.1007/BF00598430|10.1007/BF00629779|10.1007/BF00629870|10.1007/BF00629951|10.1007/BF00630022|10.1007/BF00630335|10.1007/BF00713346|10.1007/BF00937609|10.1007/BF00988299|10.1007/BF01042567|10.1007/BF01177415|10.1007/BF01947255|10.1007/BF01959201|10.1007/BF01961467|10.1007/BF02269705|10.1007/BF02312888|10.1007/BF02857217|10.1007/BF02858924|10.1007/BF02860163|10.1007/BF02866639|10.1007/BF02984953|10.1007/BF02985250|10.1007/S002170050405|10.1007/S004030050433|10.1007/S11418-006-0039-1|10.1007/S11418-007-0175-2|10.1016/0031-9422(73)85053-8|10.1016/0031-9422(74)85146-0|10.1016/0031-9422(75)85347-7|10.1016/0031-9422(80)85154-5|10.1016/0031-9422(81)85188-6|10.1016/0031-9422(81)85239-9|10.1016/0031-9422(82)83156-7|10.1016/0031-9422(82)85188-1|10.1016/0031-9422(82)85242-4|10.1016/0031-9422(83)83016-7|10.1016/0031-9422(83)85029-8|10.1016/0031-9422(83)85052-3|10.1016/0031-9422(83)85064-X|10.1016/0031-9422(88)80124-9|10.1016/0031-9422(88)80461-8|10.1016/0031-9422(88)83101-7|10.1016/0031-9422(88)83114-5|10.1016/0031-9422(89)80069-X|10.1016/0031-9422(90)85066-O|10.1016/0031-9422(90)85109-S|10.1016/0031-9422(90)85269-L|10.1016/0031-9422(90)85421-B|10.1016/0031-9422(91)83064-R|10.1016/0031-9422(91)83632-U|10.1016/0031-9422(91)84207-9|10.1016/0031-9422(91)85039-3|10.1016/0031-9422(92)80396-V|10.1016/0031-9422(92)83136-M|10.1016/0031-9422(93)85290-8|10.1016/0031-9422(93)85408-J|10.1016/0031-9422(95)00183-8|10.1016/0031-9422(95)00328-5|10.1016/0031-9422(95)00347-A|10.1016/0031-9422(95)00492-P|10.1016/0031-9422(95)00522-9|10.1016/0031-9422(95)00601-X|10.1016/0031-9422(96)00119-7|10.1016/0278-6915(94)90200-3|10.1016/0300-483X(95)03242-8|10.1016/0305-1978(82)90045-X|10.1016/0305-1978(85)90081-X|10.1016/0305-1978(86)90043-8|10.1016/0305-1978(86)90078-5|10.1016/0305-1978(91)90079-F|10.1016/0305-1978(92)90070-T|10.1016/0305-1978(93)90029-Q|10.1016/0305-1978(93)90031-L|10.1016/0305-1978(94)90033-7|10.1016/0305-1978(94)90086-8|10.1016/0305-1978(95)00094-1|10.1016/0305-1978(96)00023-3|10.1016/0378-8741(91)90062-I|10.1016/0378-8741(91)90063-J|10.1016/0926-6690(94)90038-8|10.1016/J.APJTM.2016.06.009|10.1016/J.ARABJC.2010.11.006|10.1016/J.ARABJC.2012.04.042|10.1016/J.BSE.2003.12.009|10.1016/J.CHROMA.2005.10.032|10.1016/J.CHROMA.2014.10.058|10.1016/J.EXPPARA.2013.01.018|10.1016/J.FITOTE.2007.11.004|10.1016/J.FOODCHEM.2016.04.071|10.1016/J.FOODRES.2018.12.054|10.1016/J.IJFOODMICRO.2008.10.017|10.1016/J.INDCROP.2013.06.023|10.1016/J.JEP.2011.02.025|10.1016/J.JPBA.2006.01.024|10.1016/J.JPBA.2007.01.024|10.1016/J.PHYMED.2004.04.006|10.1016/J.PHYTOCHEM.2003.08.004|10.1016/J.PHYTOCHEM.2004.03.019|10.1016/J.PHYTOCHEM.2005.01.007|10.1016/J.PHYTOCHEM.2005.04.006|10.1016/J.PHYTOCHEM.2005.09.020|10.1016/J.PHYTOCHEM.2006.04.025|10.1016/J.PHYTOCHEM.2008.03.005|10.1016/J.PHYTOCHEM.2009.06.013|10.1016/J.PHYTOCHEM.2009.07.031|10.1016/S0021-9673(01)82096-3|10.1016/S0021-9673(01)95036-8|10.1016/S0021-9673(97)00276-8|10.1016/S0031-9422(00)80081-3|10.1016/S0031-9422(00)80268-X|10.1016/S0031-9422(00)80325-8|10.1016/S0031-9422(00)80531-2|10.1016/S0031-9422(00)80558-0|10.1016/S0031-9422(00)80682-2|10.1016/S0031-9422(00)80814-6|10.1016/S0031-9422(00)81063-8|10.1016/S0031-9422(00)81286-8|10.1016/S0031-9422(00)81692-1|10.1016/S0031-9422(00)82147-0|10.1016/S0031-9422(00)83062-9|10.1016/S0031-9422(00)83760-7|10.1016/S0031-9422(00)84088-1|10.1016/S0031-9422(00)84581-1|10.1016/S0031-9422(00)84709-3|10.1016/S0031-9422(00)84802-5|10.1016/S0031-9422(00)84946-8|10.1016/S0031-9422(00)85772-6|10.1016/S0031-9422(00)86727-8|10.1016/S0031-9422(00)90374-1|10.1016/S0031-9422(00)90514-4|10.1016/S0031-9422(00)94183-9|10.1016/S0031-9422(00)94384-X|10.1016/S0031-9422(00)94539-4|10.1016/S0031-9422(00)94990-2|10.1016/S0031-9422(01)00056-5|10.1016/S0031-9422(02)00004-3|10.1016/S0031-9422(02)00477-6|10.1016/S0031-9422(96)00559-6|10.1016/S0031-9422(97)00117-9|10.1016/S0031-9422(97)00203-3|10.1016/S0031-9422(97)00324-5|10.1016/S0031-9422(97)00737-1|10.1016/S0031-9422(97)00762-0|10.1016/S0031-9422(97)00795-4|10.1016/S0031-9422(97)84397-X|10.1016/S0031-9422(98)00022-3|10.1016/S0031-9422(99)00050-3|10.1016/S0031-9422(99)00346-5|10.1016/S0305-1978(00)00062-4|10.1016/S0305-1978(00)00103-4|10.1016/S0308-8146(00)00187-4|10.1016/S0367-326X(00)00154-4|10.1016/S0367-326X(01)00327-6|10.1016/S0367-326X(98)00002-1|10.1016/S0378-8741(01)00238-0|10.1016/S0378-8741(99)00209-3|10.1016/S0926-6690(03)00076-1|10.1016/S0944-7113(98)80048-2|10.1016/j.arabjc.2010.11.006|10.1016/j.lwt.2023.115213|10.1016/j.phytochem.2004.08.035|10.1021/JF00025A025|10.1021/JF00034A020|10.1021/JF00034A033|10.1021/JF00046A030|10.1021/JF00056A055|10.1021/JF00063A015|10.1021/JF00064A020|10.1021/JF00065A004|10.1021/JF00069A050|10.1021/JF00071A004|10.1021/JF00073A015|10.1021/JF00083A001|10.1021/JF00083A023|10.1021/JF00085A053|10.1021/JF00087A036|10.1021/JF00091A049|10.1021/JF00098A007|10.1021/JF00100A013|10.1021/JF00104A026|10.1021/JF00112A014|10.1021/JF00116A075|10.1021/JF0116303|10.1021/JF60160A012|10.1021/JF60198A031|10.1021/JF60199A051|10.1021/JF60199A053|10.1021/JF60201A021|10.1021/JF60206A038|10.1021/JF60209A051|10.1021/JF60214A042|10.1021/JF60218A031|10.1021/JF60230A021|10.1021/JF950540T|10.1021/JF950577D|10.1021/JF950653C|10.1021/JF950686S|10.1021/JF970031M|10.1021/JF970110Y|10.1021/JF9708296|10.1021/JF9908594|10.1021/JO040272A|10.1021/NP030475E|10.1021/NP50008A001|10.1021/NP50009A015|10.1021/NP50017A018|10.1021/NP50017A019|10.1021/NP50018A028|10.1021/NP50033A002|10.1021/NP50033A020|10.1021/NP50034A042|10.1021/NP50034A044|10.1021/NP50035A036|10.1021/NP50035A037|10.1021/NP50039A032|10.1021/NP50039A037|10.1021/NP50040A037|10.1021/NP50041A034|10.1021/NP50041A038|10.1021/NP50043A034|10.1021/NP50045A046|10.1021/NP50046A033|10.1021/NP50047A038|10.1021/NP50047A039|10.1021/NP50048A037|10.1021/NP50048A039|10.1021/NP50051A035|10.1021/NP50052A041|10.1021/NP50062A008|10.1021/NP50071A016|10.1021/NP50094A002|10.1021/NP960732Y|10.1021/NP990292L|10.1021/es901034u|10.1021/jf011456i|10.1021/np50017a018|10.1021/np50125a018|10.1034/J.1399-3054.1992.840320.X|10.1039/JR9420000188|10.1055/S-0028-1097363|10.1055/S-0028-1097609|10.1055/S-0028-1097637|10.1055/S-0028-1097719|10.1055/S-0028-1097957|10.1055/S-0028-1097962|10.1055/S-0028-1097977|10.1055/S-0028-1099422|10.1055/S-0028-1099455|10.1055/S-0028-1099484|10.1055/S-0028-1099572|10.1055/S-0028-1099600|10.1055/S-0028-1099968|10.1055/S-0028-1100058|10.1055/S-0028-1100131|10.1055/S-0029-1243136|10.1055/S-2000-8623|10.1055/S-2000-8627|10.1055/S-2000-9773|10.1055/S-2001-12001|10.1055/S-2001-18363|10.1055/S-2002-32557|10.1055/S-2003-37024|10.1055/S-2003-37032|10.1055/S-2004-832654|10.1055/S-2006-957433|10.1055/S-2006-957465|10.1055/S-2006-957488|10.1055/S-2006-957489|10.1055/S-2006-957552|10.1055/S-2006-957640|10.1055/S-2006-957707|10.1055/S-2006-957810|10.1055/S-2006-957814|10.1055/S-2006-959379|10.1055/S-2006-959474|10.1055/S-2006-959506|10.1055/S-2006-959548|10.1055/S-2006-959580|10.1055/S-2006-959581|10.1055/S-2006-959673|10.1055/S-2006-959714|10.1055/S-2006-959755|10.1055/S-2006-959993|10.1055/S-2006-960024|10.1055/S-2006-960034|10.1055/S-2006-960081|10.1055/S-2006-960096|10.1055/S-2006-960128|10.1055/S-2006-960216|10.1055/S-2006-960832|10.1055/S-2006-960872|10.1055/S-2006-960908|10.1055/S-2006-960931|10.1055/S-2006-960936|10.1055/S-2006-960939|10.1055/S-2006-961401|10.1055/S-2006-961434|10.1055/S-2006-961452|10.1055/S-2006-961490|10.1055/S-2006-961555|10.1055/S-2006-962016|10.1055/S-2006-962018|10.1055/S-2006-962450|10.1055/S-2006-962451|10.1055/S-2006-962452|10.1055/S-2006-962467|10.1055/S-2006-962540|10.1055/S-2006-962640|10.1055/S-2006-962688|10.1055/S-2006-962745|10.1055/S-2006-962781|10.1055/S-2007-969050|10.1055/S-2007-969160|10.1055/S-2007-969171|10.1055/S-2007-969172|10.1055/S-2007-969176|10.1055/S-2007-969187|10.1055/S-2007-969274|10.1055/S-2007-969275|10.1055/S-2007-969442|10.1055/S-2007-969599|10.1055/S-2007-969621|10.1055/S-2007-969632|10.1055/S-2007-969862|10.1055/S-2007-969883|10.1055/S-2007-969897|10.1055/S-2007-969917|10.1055/S-2007-969948|10.1055/S-2007-970006|10.1055/S-2008-1074841|10.1071/CH9600357|10.1071/CH9630515|10.1071/CH9640283|10.1073/PNAS.93.18.9966|10.1076/1388-0209(200004)3821-1FT106|10.1076/1388-0209(200007)3831-SFT197|10.1080/00021369.1989.10869813|10.1080/00387018508062249|10.1080/0972060X.2010.10643892|10.1080/0972060X.2014.895210|10.1080/10286020802514622|10.1080/10412905.1989.9697751|10.1080/10412905.1989.9697754|10.1080/10412905.1989.9697780|10.1080/10412905.1989.9697797|10.1080/10412905.1989.9699438|10.1080/10412905.1989.9699439|10.1080/10412905.1989.9699441|10.1080/10412905.1990.9697808|10.1080/10412905.1990.9697824|10.1080/10412905.1990.9697829|10.1080/10412905.1990.9697830|10.1080/10412905.1990.9697840|10.1080/10412905.1990.9697845|10.1080/10412905.1990.9697847|10.1080/10412905.1990.9697854|10.1080/10412905.1990.9697857|10.1080/10412905.1990.9697864|10.1080/10412905.1990.9697873|10.1080/10412905.1990.9697878|10.1080/10412905.1990.9697881|10.1080/10412905.1990.9697892|10.1080/10412905.1991.9697898|10.1080/10412905.1991.9697905|10.1080/10412905.1991.9697906|10.1080/10412905.1991.9697908|10.1080/10412905.1991.9697921|10.1080/10412905.1991.9697923|10.1080/10412905.1991.9697930|10.1080/10412905.1991.9697936|10.1080/10412905.1991.9697950|10.1080/10412905.1991.9697952|10.1080/10412905.1991.9697953|10.1080/10412905.1991.9697956|10.1080/10412905.1991.9697959|10.1080/10412905.1991.9697964|10.1080/10412905.1991.9697971|10.1080/10412905.1991.9697980|10.1080/10412905.1991.9697982|10.1080/10412905.1991.9697984|10.1080/10412905.1991.9697985|10.1080/10412905.1991.9697994|10.1080/10412905.1991.9700494|10.1080/10412905.1991.9700495|10.1080/10412905.1991.9700498|10.1080/10412905.1991.9700500|10.1080/10412905.1992.9698006|10.1080/10412905.1992.9698015|10.1080/10412905.1992.9698020|10.1080/10412905.1992.9698034|10.1080/10412905.1992.9698035|10.1080/10412905.1992.9698043|10.1080/10412905.1992.9698053|10.1080/10412905.1992.9698059|10.1080/10412905.1992.9698061|10.1080/10412905.1992.9698062|10.1080/10412905.1992.9698067|10.1080/10412905.1992.9698069|10.1080/10412905.1992.9698070|10.1080/10412905.1992.9698071|10.1080/10412905.1992.9698079|10.1080/10412905.1992.9698083|10.1080/10412905.1992.9698084|10.1080/10412905.1992.9698086|10.1080/10412905.1992.9698087|10.1080/10412905.1992.9698088|10.1080/10412905.1992.9698091|10.1080/10412905.1992.9698109|10.1080/10412905.1992.9698110|10.1080/10412905.1992.9698111|10.1080/10412905.1992.9698112|10.1080/10412905.1992.9698125|10.1080/10412905.1992.9698129|10.1080/10412905.1992.9698130|10.1080/10412905.1992.9698136|10.1080/10412905.1992.9698137|10.1080/10412905.1992.9698138|10.1080/10412905.1992.9698144|10.1080/10412905.1992.9698147|10.1080/10412905.1992.9698149|10.1080/10412905.1992.9698156|10.1080/10412905.1993.9698162|10.1080/10412905.1993.9698164|10.1080/10412905.1993.9698169|10.1080/10412905.1993.9698170|10.1080/10412905.1993.9698174|10.1080/10412905.1993.9698176|10.1080/10412905.1993.9698177|10.1080/10412905.1993.9698178|10.1080/10412905.1993.9698179|10.1080/10412905.1993.9698181|10.1080/10412905.1993.9698184|10.1080/10412905.1993.9698189|10.1080/10412905.1993.9698191|10.1080/10412905.1993.9698192|10.1080/10412905.1993.9698202|10.1080/10412905.1993.9698205|10.1080/10412905.1993.9698207|10.1080/10412905.1993.9698209|10.1080/10412905.1993.9698214|10.1080/10412905.1993.9698215|10.1080/10412905.1993.9698216|10.1080/10412905.1993.9698218|10.1080/10412905.1993.9698222|10.1080/10412905.1993.9698230|10.1080/10412905.1993.9698231|10.1080/10412905.1993.9698235|10.1080/10412905.1993.9698236|10.1080/10412905.1993.9698237|10.1080/10412905.1993.9698248|10.1080/10412905.1993.9698250|10.1080/10412905.1993.9698253|10.1080/10412905.1993.9698254|10.1080/10412905.1993.9698256|10.1080/10412905.1993.9698275|10.1080/10412905.1993.9698276|10.1080/10412905.1993.9698277|10.1080/10412905.1993.9698294|10.1080/10412905.1993.9698303|10.1080/10412905.1993.9698309|10.1080/10412905.1994.9698316|10.1080/10412905.1994.9698320|10.1080/10412905.1994.9698326|10.1080/10412905.1994.9698327|10.1080/10412905.1994.9698330|10.1080/10412905.1994.9698334|10.1080/10412905.1994.9698337|10.1080/10412905.1994.9698359|10.1080/10412905.1994.9698360|10.1080/10412905.1994.9698380|10.1080/10412905.1994.9698394|10.1080/10412905.1994.9698396|10.1080/10412905.1994.9698398|10.1080/10412905.1994.9698401|10.1080/10412905.1994.9698402|10.1080/10412905.1994.9698404|10.1080/10412905.1994.9698405|10.1080/10412905.1994.9698406|10.1080/10412905.1994.9698407|10.1080/10412905.1994.9698408|10.1080/10412905.1994.9698409|10.1080/10412905.1994.9698412|10.1080/10412905.1994.9698414|10.1080/10412905.1994.9698417|10.1080/10412905.1994.9698418|10.1080/10412905.1994.9698427|10.1080/10412905.1994.9698428|10.1080/10412905.1994.9698433|10.1080/10412905.1994.9698440|10.1080/10412905.1994.9698442|10.1080/10412905.1994.9698447|10.1080/10412905.1994.9698448|10.1080/10412905.1994.9699345|10.1080/10412905.1994.9699347|10.1080/10412905.1994.9699348|10.1080/10412905.1994.9699354|10.1080/10412905.1994.9699358|10.1080/10412905.1994.9699365|10.1080/10412905.1994.9699366|10.1080/10412905.1995.9698456|10.1080/10412905.1995.9698468|10.1080/10412905.1995.9698473|10.1080/10412905.1995.9698475|10.1080/10412905.1995.9698478|10.1080/10412905.1995.9698479|10.1080/10412905.1995.9698496|10.1080/10412905.1995.9698499|10.1080/10412905.1995.9698501|10.1080/10412905.1995.9698505|10.1080/10412905.1995.9698506|10.1080/10412905.1995.9698508|10.1080/10412905.1995.9698516|10.1080/10412905.1995.9698522|10.1080/10412905.1995.9698524|10.1080/10412905.1995.9698530|10.1080/10412905.1995.9698531|10.1080/10412905.1995.9698532|10.1080/10412905.1995.9698553|10.1080/10412905.1995.9698555|10.1080/10412905.1995.9698558|10.1080/10412905.1995.9698577|10.1080/10412905.1995.9698581|10.1080/10412905.1995.9700515|10.1080/10412905.1995.9700518|10.1080/10412905.1995.9700519|10.1080/10412905.1995.9700523|10.1080/10412905.1995.9700529|10.1080/10412905.1995.9700530|10.1080/10412905.1995.9700531|10.1080/10412905.1995.9700536|10.1080/10412905.1995.9700537|10.1080/10412905.1996.9700547|10.1080/10412905.1996.9700554|10.1080/10412905.1996.9700555|10.1080/10412905.1996.9700557|10.1080/10412905.1996.9700559|10.1080/10412905.1996.9700562|10.1080/10412905.1996.9700565|10.1080/10412905.1996.9700567|10.1080/10412905.1996.9700568|10.1080/10412905.1996.9700569|10.1080/10412905.1996.9701028|10.1080/10412905.1996.9701048|10.1080/10412905.1997.9699459|10.1080/10412905.1997.9700709|10.1080/10412905.1997.9700721|10.1080/10412905.1997.9700725|10.1080/10412905.1997.9700727|10.1080/10412905.1997.9700728|10.1080/10412905.1997.9700780|10.1080/10412905.1997.9700785|10.1080/10412905.1997.9700787|10.1080/10412905.1997.9700812|10.1080/10412905.1998.9700844|10.1080/10412905.1998.9700846|10.1080/10412905.1998.9700852|10.1080/10412905.1998.9700854|10.1080/10412905.1998.9700913|10.1080/10412905.1998.9700917|10.1080/10412905.1998.9700918|10.1080/10412905.1998.9700962|10.1080/10412905.1998.9700992|10.1080/10412905.1998.9701015|10.1080/10412905.1999.9701059|10.1080/10412905.1999.9701062|10.1080/10412905.1999.9701080|10.1080/10412905.1999.9701113|10.1080/10412905.1999.9701118|10.1080/10412905.1999.9701147|10.1080/10412905.1999.9701148|10.1080/10412905.1999.9701152|10.1080/10412905.1999.9701154|10.1080/10412905.1999.9701184|10.1080/10412905.1999.9701223|10.1080/10412905.2000.9699483|10.1080/10412905.2000.9699530|10.1080/10412905.2000.9699552|10.1080/10412905.2000.9699569|10.1080/10412905.2000.9712050|10.1080/10412905.2000.9712058|10.1080/10412905.2000.9712152|10.1080/10412905.2000.9712155|10.1080/10412905.2000.9712167|10.1080/10412905.2000.9712194|10.1080/10412905.2000.9712208|10.1080/10412905.2001.9699620|10.1080/10412905.2001.9699659|10.1080/10412905.2001.9712227|10.1080/10412905.2002.9699754|10.1080/10412905.2002.9699760|10.1080/10412905.2002.9699852|10.1080/10412905.2002.9699883|10.1080/10412905.2002.9699888|10.1080/10412905.2004.9698641|10.1080/10412905.2004.9698688|10.1080/10412905.2004.9698740|10.1080/10412905.2004.9698744|10.1080/10412905.2007.9699946|10.1080/10412905.2010.9700320|10.1080/10412905.2010.9700338|10.1080/10412905.2010.9700389|10.1080/10412905.2013.796498|10.1080/10412905.2018.1431966|10.1080/10575630108041259|10.1080/10942912.2016.1155057|10.1080/14620316.1988.11515884|10.1080/14786410500528478|10.1080/14786410701848154|10.1080/17429140600968177|10.1088/1752-7155/8/1/014001|10.1111/J.1095-8339.1986.TB01826.X|10.1111/J.1365-2621.1985.TB10476.X|10.1111/J.1365-2621.1985.TB13419.X|10.1111/J.1365-2672.1994.TB01661.X|10.1111/J.1365-313X.2004.02113.X|10.1111/J.1399-3054.1992.TB04690.X|10.1128/CMR.19.1.50-62.2006|10.1135/CCCC19611362|10.1135/CCCC19620987|10.1135/CCCC19661113|10.1135/CCCC19832411|10.1135/CCCC19912969|10.1139/V69-334|10.1155/2017/7436259|10.1163/1574-9347_DNP_E832720|10.1177/1934578X1100600135|10.1186/1472-6882-6-39|10.1186/1756-3305-7-407|10.1201/B22102-8|10.1211/0022357991777218|10.1246/BCSJ.42.3026|10.1246/BCSJ.53.785|10.1246/CL.1979.1137|10.1246/NIKKASHI1921.63.1465|10.1246/NIKKASHI1921.64.1041|10.1246/NIKKASHI1921.64.1125|10.1248/CPB.54.222|10.1248/YAKUSHI1947.106.1_17|10.1248/YAKUSHI1947.107.3_209|10.1248/YAKUSHI1947.107.3_219|10.1248/YAKUSHI1947.90.11_1367|10.1248/YAKUSHI1947.90.12_1514|10.1248/YAKUSHI1947.99.11_1116|10.1271/BBB1961.45.1493|10.1271/BBB1961.45.373|10.1271/BBB1961.45.507|10.1271/BBB1961.47.1841|10.1271/BBB1961.52.2961|10.1271/BBB1961.55.1655|10.1271/BBB1961.55.2571|10.1271/NOGEIKAGAKU1924.67.1417|10.1300/J044V01N01_06|10.1300/J044V01N01_07|10.1300/J044V07N02_02|10.1371/journal.pone.0073076|10.1515/ZNB-1992-0324|10.1515/ZNB-1999-0616|10.1515/ZNC-1984-7-802|10.1515/ZNC-1984-7-803|10.1515/ZNC-1988-5-604|10.1515/ZNC-1988-5-608|10.1515/ZNC-2002-9-1007|10.1515/ZNC-2003-9-1004|10.1515/ZNC-2008-9-1009|10.1590/S0100-40422009000200028|10.1590/S0102-695X2010000400016|10.1590/S0103-50532011000400018|10.21273/HORTSCI.25.5.556|10.2307/2423424|10.23850/24220582.3465|10.23893/1307-2080.APS.05611|10.2503/JJSHS.53.141|10.3109/13880208209055190|10.3109/13880208409070665|10.3109/13880208709060907|10.3109/13880208709060911|10.3109/13880208709088133|10.3109/13880209109082868|10.3109/13880209109082875|10.3109/13880209109082876|10.3109/13880209309082924|10.3109/13880209409083015|10.3136/NSKKK1962.41.512|10.3390/12030389|10.3390/60100092|10.3390/MOLECULES14082909|10.3390/MOLECULES20045346|10.3390/MOLECULES200610298|10.3390/MOLECULES22030335|10.3390/MOLECULES24234244|10.3891/ACTA.CHEM.SCAND.15-1003|10.3891/ACTA.CHEM.SCAND.21-0945|10.3891/ACTA.CHEM.SCAND.21-2076|10.4268/CJCMM20111319|10.4314/BCSE.V11I1.21012|10.4314/BCSE.V12I1.21037|10.4324/9780203219430_CHAPTER_13|10.5897/JMPR10.078|10.5897/JMPR12.157

>  <synonyms>  (94) 
nan

>  <cas>  (94) 
99-87-6|4939-75-7

$$$$

     RDKit          2D

 44 47  0  0  0  0  0  0  0  0999 V2000
    4.1950   -0.1018    0.0000 C   0  0  0  0  0  0  0  0  0  0  0  0
    3.7605    1.3339    0.0000 C   0  0  0  0  0  0  0  0  0  0  0  0
    2.2999    1.6755    0.0000 O   0  0  0  0  0  0  0  0  0  0  0  0
    1.8655    3.1112    0.0000 C   0  0  0  0  0  0  0  0  0  0  0  0
    0.4049    3.4528    0.0000 O   0  0  0  0  0  0  0  0  0  0  0  0
   -0.6212    2.3587    0.0000 C   0  0  0  0  0  0  0  0  0  0  0  0
   -2.0818    2.7003    0.0000 C   0  0  0  0  0  0  0  0  0  0  0  0
   -2.5163    4.1360    0.0000 O   0  0  0  0  0  0  0  0  0  0  0  0
   -3.1079    1.6062    0.0000 C   0  0  0  0  0  0  0  0  0  0  0  0
   -4.5685    1.9478    0.0000 O   0  0  0  0  0  0  0  0  0  0  0  0
   -5.5946    0.8536    0.0000 C   0  0  0  0  0  0  0  0  0  0  0  0
   -7.0552    1.1952    0.0000 C   0  0  0  0  0  0  0  0  0  0  0  0
   -8.0814    0.1011    0.0000 C   0  0  0  0  0  0  0  0  0  0  0  0
   -9.5419    0.4427    0.0000 C   0  0  0  0  0  0  0  0  0  0  0  0
  -10.5681   -0.6514    0.0000 C   0  0  0  0  0  0  0  0  0  0  0  0
  -10.1336   -2.0871    0.0000 C   0  0  0  0  0  0  0  0  0  0  0  0
  -11.1597   -3.1812    0.0000 O   0  0  0  0  0  0  0  0  0  0  0  0
   -8.6730   -2.4287    0.0000 C   0  0  0  0  0  0  0  0  0  0  0  0
   -8.2386   -3.8644    0.0000 O   0  0  0  0  0  0  0  0  0  0  0  0
   -7.6469   -1.3346    0.0000 C   0  0  0  0  0  0  0  0  0  0  0  0
   -2.6735    0.1705    0.0000 O   0  0  0  0  0  0  0  0  0  0  0  0
   -1.2129   -0.1711    0.0000 C   0  0  0  0  0  0  0  0  0  0  0  0
   -0.7784   -1.6068    0.0000 C   0  0  0  0  0  0  0  0  0  0  0  0
   -1.8045   -2.7009    0.0000 O   0  0  0  0  0  0  0  0  0  0  0  0
   -0.1868    0.9230    0.0000 C   0  0  0  0  0  0  0  0  0  0  0  0
    1.2738    0.5814    0.0000 O   0  0  0  0  0  0  0  0  0  0  0  0
    1.7083   -0.8543    0.0000 C   0  0  0  0  0  0  0  0  0  0  0  0
    0.6822   -1.9484    0.0000 O   0  0  0  0  0  0  0  0  0  0  0  0
    3.1689   -1.1959    0.0000 C   0  0  0  0  0  0  0  0  0  0  0  0
    3.6033   -2.6316    0.0000 C   0  0  0  0  0  0  0  0  0  0  0  0
    5.0639   -2.9732    0.0000 C   0  0  0  0  0  0  0  0  0  0  0  0
    5.4984   -4.4089    0.0000 C   0  0  0  0  0  0  0  0  0  0  0  0
    6.9590   -4.7505    0.0000 C   0  0  0  0  0  0  0  0  0  0  0  0
    7.9851   -3.6564    0.0000 C   0  0  0  0  0  0  0  0  0  0  0  0
    9.4457   -3.9980    0.0000 O   0  0  0  0  0  0  0  0  0  0  0  0
    7.5506   -2.2207    0.0000 C   0  0  0  0  0  0  0  0  0  0  0  0
    8.5768   -1.1266    0.0000 O   0  0  0  0  0  0  0  0  0  0  0  0
    6.0900   -1.8791    0.0000 C   0  0  0  0  0  0  0  0  0  0  0  0
    2.8916    4.2053    0.0000 C   0  0  0  0  0  0  0  0  0  0  0  0
    2.4571    5.6410    0.0000 O   0  0  0  0  0  0  0  0  0  0  0  0
    4.3522    3.8637    0.0000 C   0  0  0  0  0  0  0  0  0  0  0  0
    5.3783    4.9578    0.0000 O   0  0  0  0  0  0  0  0  0  0  0  0
    4.7867    2.4280    0.0000 C   0  0  0  0  0  0  0  0  0  0  0  0
    6.2472    2.0864    0.0000 O   0  0  0  0  0  0  0  0  0  0  0  0
  2  1  1  6
  2  3  1  0
  3  4  1  0
  4  5  1  1
  6  5  1  1
  6  7  1  0
  7  8  1  6
  7  9  1  0
  9 10  1  1
 10 11  1  0
 11 12  1  0
 12 13  1  0
 13 14  2  0
 14 15  1  0
 15 16  2  0
 16 17  1  0
 16 18  1  0
 18 19  1  0
 18 20  2  0
  9 21  1  0
 21 22  1  0
 22 23  1  1
 23 24  1  0
 22 25  1  0
 25 26  1  6
 26 27  1  0
 27 28  2  0
 27 29  1  0
 29 30  2  0
 30 31  1  0
 31 32  2  0
 32 33  1  0
 33 34  2  0
 34 35  1  0
 34 36  1  0
 36 37  1  0
 36 38  2  0
  4 39  1  0
 39 40  1  6
 39 41  1  0
 41 42  1  6
 41 43  1  0
 43 44  1  1
 43  2  1  0
 25  6  1  0
 38 31  1  0
 20 13  1  0
M  END
>  <identifier>  (95) 
CNP0241232.1

>  <canonical_smiles>  (95) 
C[C@@H]1O[C@@H](O[C@@H]2[C@@H](O)[C@H](OCCC3=CC=C(O)C(O)=C3)O[C@H](CO)[C@H]2OC(=O)/C=C/C2=CC=C(O)C(O)=C2)[C@H](O)[C@H](O)[C@H]1O

>  <standard_inchi>  (95) 
InChI=1S/C29H36O15/c1-13-22(36)23(37)24(38)29(41-13)44-27-25(39)28(40-9-8-15-3-6-17(32)19(34)11-15)42-20(12-30)26(27)43-21(35)7-4-14-2-5-16(31)18(33)10-14/h2-7,10-11,13,20,22-34,36-39H,8-9,12H2,1H3/b7-4+/t13-,20+,22-,23+,24+,25+,26+,27+,28+,29-/m0/s1

>  <standard_inchi_key>  (95) 
FBSKJMQYURKNSU-ZLSOWSIRSA-N

>  <name>  (95) 
Acteoside

>  <iupac_name>  (95) 
[(2~{R},3~{R},4~{R},5~{R},6~{R})-6-[2-(3,4-dihydroxyphenyl)ethoxy]-5-hydroxy-2-(hydroxymethyl)-4-[(2~{S},3~{R},4~{R},5~{R},6~{S})-3,4,5-trihydroxy-6-methyl-tetrahydropyran-2-yl]oxy-tetrahydropyran-3-yl] (~{E})-3-(3,4-dihydroxyphenyl)prop-2-enoate

>  <annotation_level>  (95) 
5

>  <total_atom_count>  (95) 
80

>  <heavy_atom_count>  (95) 
44

>  <molecular_weight>  (95) 
624.59

>  <exact_molecular_weight>  (95) 
624.20542

>  <molecular_formula>  (95) 
C29H36O15

>  <alogp>  (95) 
-1.02

>  <topological_polar_surface_area>  (95) 
245.29

>  <rotatable_bond_count>  (95) 
10

>  <hydrogen_bond_acceptors>  (95) 
15

>  <hydrogen_bond_donors>  (95) 
9

>  <hydrogen_bond_acceptors_lipinski>  (95) 
15

>  <hydrogen_bond_donors_lipinski>  (95) 
9

>  <lipinski_rule_of_five_violations>  (95) 
3

>  <aromatic_rings_count>  (95) 
2

>  <qed_drug_likeliness>  (95) 
0.09

>  <formal_charge>  (95) 
0

>  <fractioncsp3>  (95) 
0.48

>  <number_of_minimal_rings>  (95) 
4

>  <van_der_walls_volume>  (95) 
531.15

>  <contains_sugar>  (95) 
True

>  <contains_ring_sugars>  (95) 
True

>  <contains_linear_sugars>  (95) 
False

>  <murcko_framework>  (95) 
O(CCc1ccccc1)C2OCC(OCC=Cc3ccccc3)C(OC4OCCCC4)C2

>  <np_likeness>  (95) 
1.82

>  <chemical_class>  (95) 
Cinnamic acids and derivatives

>  <chemical_sub_class>  (95) 
Hydroxycinnamic acids and derivatives

>  <chemical_super_class>  (95) 
Phenylpropanoids and polyketides

>  <direct_parent_classification>  (95) 
Hydroxycinnamic acids

>  <np_classifier_pathway>  (95) 
Shikimates and Phenylpropanoids

>  <np_classifier_superclass>  (95) 
Phenylethanoids (C6-C2)

>  <np_classifier_class>  (95) 
Cinnamic acids and derivatives

>  <np_classifier_is_glycoside>  (95) 
True

>  <organisms>  (95) 
Abeliophyllum distichum|Abies alba|Acacia kempeana|Acacia lasiopetala|Acanthias vulgaris|Acanthus Ebracteatus|Acanthus Ilicifolius|Acanthus ebracteatus|Acanthus ilicifolius|Acanthus montanus|Achillea millefolium|Aconitum racemulosum|Adonis aleppica|Aeginetia indica|Aegiphila obducta|Aframomum sulcatum|Ajuga incisa|Ajuga japonica|Ajuga nipponensis|Alhagi persarum|Allium stipitatum|Alnus mandshurica|Aloysia citriodora|Aloysia citrodora|Aloysia triphylla|Alstonia pittieri|Alternaria scirpicola|Alysicarpus bupleurifolius|Amphilophium paniculatum|Anemoclema glaucifolium|Angiopteris evecta|Aniba gigantifolia|Antirrhinum majus|Arcopilus cupreus|Arctotheca calendula|Arisaema triphyllum|Artemisia argentea|Artemisia frigida|Asphodeline damascena|Asystasia intrusa|Avicennia germinans|Avicennia marina|Avicennia officinalis|Bacopa crenata|Bacopa monnieri|Badilloa salicina|Baillonella toxisperma|Ballota nigra|Barleria Lupulina|Barleria Prionitis|Barleria lupulina|Barleria prionitis|Barleria strigosa|Bartsia alpina|Bassia parkii|Betonica macrantha|Boletus bovinus|Bombus pascuorum|Bontia bontioides|Brandisia hancei|Brodiaea californica|Broussonetia papyrifera|Buddleja cordata|Buddleja davidii|Buddleja globosa|Buddleja officinalis|Buddleja parviflora|Buddleja salviifolia|Buddleja scordioides|Buddleja yunnanensis|Byblis liniflora|Calceolaria adscendens|Calceolaria andina|Calceolaria biflora|Calceolaria corymbosa|Calceolaria glandulosa|Calceolaria hypericina|Calceolaria integrifolia|Calceolaria plectranthifolia|Calceolaria purpurea|Calceolaria thyrsiflora|Calea morii|Callicarpa Formosana|Callicarpa dichotoma|Callicarpa japonica|Callicarpa kwangtungensis|Callicarpa macrophylla|Callicarpa nudiflora|Callitriche stagnalis|Campsis grandiflora|Campsis radicans|Carcinus maenas|Carex distachya|Carpinus laxiflora|Caryopteris incana|Cassinopsis madagascariensis|Cassytha filiformis|Castanopsis cuspidata|Castilleja angustifolia var. dubia|Castilleja attenuata|Castilleja indivisa|Castilleja integra|Castilleja linariaefolia|Castilleja minor|Castilleja minor var. exilis|Castilleja purpurea|Castilleja sessiliflora|Castilleja wightii|Centaurea cana|Cereus pachanoi|Cereus stellatus|Chaetomella raphigera|Chelone obliqua|Cinchona succirubra|Cistanche deserticola|Cistanche mongolica|Cistanche phelypaea|Cistanche salsa|Cistanche tubulosa|Clerodendrum Inerme|Clerodendrum brachyanthum|Clerodendrum bungei|Clerodendrum formicarum|Clerodendrum infortunatum|Clerodendrum trichotomum|Codium fragile|Comanthosphace japonica|Connarus paniculatus|Cordylanthus kingii|Corynebacterium poinsettiae|Crematogaster brevis|Crepis capillaris|Crotalaria laburnifolia|Crotalaria lachnosema|Croton argyrophylloides|Cryptomonas ovata|Cyathula tomentosa|Cyberlindnera jadinii|Danae racemosa|Daphnia magna|Daphniphyllum calycinum|Decaisnea fargesii|Dendrobium crepidatum|Dendrobium thyrsiflorum|Deplanchea speciosa|Dictyota dichotoma|Digitalis purpurea|Diospyros buxifolia|Dolichandrone heterophylla|Dolichandrone serrulata|Dregea volubilis|Dryopteris sieboldii|Duranta erecta|Echinacea angustifolia|Echinacea pallida|Echinacea purpurea|Echinacea sp.|Elaeagnus orientalis|Epilobium parviflorum|Eremophila clarkei|Eremophila decipiens|Eremophila denticulata|Eremophila drummondii|Eremophila forrestii|Eremophila gilesii|Eremophila glabra|Eremophila viscida|Eucalyptus kitsoniana|Eudistoma toealensis|Eulophia ochreata|Euodia bodinieri|Euodia officinalis|Euodia ruticarpa|Euonymus japonicus|Euphorbia antiquorum|Euphorbia calycina|Euphrasia rubra|Evodia rutaecarpa|Exochorda giraldii|Fagraea ceilanica|Fernandoa Adenophylla|Fernandoa adenophylla|Fontanesia fortunei|Forsythia europaea|Forsythia giraldiana|Forsythia japonica|Forsythia koreana|Forsythia ovata|Forsythia suspensa|Forsythia viridissima|Fraxinus americana|Fraxinus angustifolia|Fraxinus excelsior|Fraxinus formosana|Fraxinus griffithii|Fraxinus malacophylla|Fraxinus uhdei|Fusarium equiseti|Gardenia carinata|Globularia alypum|Globularia bisnagarica|Globularia dumulosa|Globularia orientalis|Globularia trichosantha|Gmelina arborea|Gratiola officinalis|Gratiola sp.|Guatteria subsessilis|Gymnopus androsaceus|Haemanthus natalensis|Haliclona lunisimilis|Halleria lucida|Harpagophytum procumbens|Harpagophytum sp.|Harpagophytum zeyheri|Helenium elegans|Heliotropium ellipticum|Himantoglossum hircinum|Hippuris vulgaris|Hordeum vulgare var. distichon|Hygrophila erecta|Hymenaea courbaril|Hymenocardia acida|Incarvillea arguta|Incarvillea diffusa|Isodon pleiophyllus|Isodon sculponeatus|Ixora undulata|Jacaranda caucana|Jacaranda mimosifolia|Jacaranda sp.|Jasminum Amplexicaule|Jasminum amplexicaule|Jasminum azoricum|Jasminum elongatum|Jasminum fluminense|Jasminum grandiflorum|Jasminum mesnyi|Jasminum nudiflorum|Jasminum officinale|Jasminum polyanthum|Jasminum sambac|Kigelia Africana|Kigelia africana|Kigelia pinnata|Klebsiella pneumoniae|Kopsia longiflora|Laburnum watereri|Lagotis brevituba|Lagotis stolonifera|Lamium album|Lamium garganicum|Lamium purpureum|Lamium sp.|Lancea tibetica|Lantana camara|Lantana fucata|Lantana lilacina|Lantana radula|Lantana trifolia|Laurencia pacifica|Lecanora carpinea|Leonotis leonitis|Leonotis nepetifolia|Leonurus cardiaca|Leonurus glaucescens|Leonurus heterophyllus|Leonurus sp.|Lepidophorum repandum|Lethasterias fusca|Ligustrum expansum|Ligustrum japonicus|Ligustrum lucidum|Ligustrum robustum|Limnodynastes salmini|Lindera sericea|Lippia|Lippia alba|Lippia dulcis|Lippia multiflora|Lippia rubella|Littorella uniflora|Lupinus mutabilis|Lycopodium confertum|Lycopus asper|Lycopus lucidus|Lysionotus Pauciflorus|Lysionotus pauciflorus|Magnolia officinalis|Magnolia salicifolia|Markhamia Stipulata|Markhamia lutea|Markhamia stipulata|Marrubium alysson|Marrubium velutinum|Marrubium vulgare|Melampodium argophyllum|Meloidogyne incognita|Metapenaeus endeavouri|Metatrichia vesparium|Methanosarcina barkeri|Microbispora rosea subsp. aerata|Millingtonia hortensis|Mitraria coccinea|Momordica charantia|Monochasma savatieri|Montanelia tominii|Montanoa guatemalensis|Moussonia Deppeana|Myristica malabarica|Nepeta ucranica|Newbouldia laevis|Notholaena lemmonii|Olea Europaea|Olea europaea|Olea sp.|Oophaga histrionica|Orobanche amethystea|Orobanche coerulescens|Orobanche crenata|Orobanche hederae|Orobanche rapum-genistae|Orobanche variegata|Osmanthus Fragrans|Osmanthus fragrans|Osmanthus × fortunei|Ostracion cubicus|Oxera morieri|Ozothamnus obcordatus|Paliurus spina-christi|Panax trifoliatus|Panzerina lanata|Parmelia norcrambidiocarpa|Paulownia coreana|Paulownia sp.|Paulownia tomentosa|Paulownia tomentosa (Thunb.) Steud.|Pedicularis artselaeri|Pedicularis condensata|Pedicularis densispica|Pedicularis lasiophrys|Pedicularis longiflora|Pedicularis nordmanniana|Pedicularis rex|Pedicularis sibthorpii|Pedicularis spicata|Pedicularis striata|Pedicularis torta|Pedicularis verticillata|Pedicularis wilhelmsiana|Peltanthera floribunda|Penicillium chrysogenum|Penicillium sclerotiorum|Penstemon albidus|Penstemon ambiguus|Penstemon auriberbis|Penstemon crandallii|Penstemon cyathophorus|Penstemon gentianoides|Penstemon hirsutus|Penstemon linarioides|Penstemon nitidus|Penstemon roseus|Penstemon rydbergii|Penstemon secundiflorus|Penstemon serrulatus|Peumus boldus|Phillyrea latifolia|Phlomis armeniaca|Phlomis aurea|Phlomis brunneogaleata|Phlomis crinita|Phlomis grandiflora|Phlomis herba-venti|Phlomis samia|Phlomis umbrosa|Phlomoides hamosa|Phlomoides rotata|Phlomoides tuberosa|Phtheirospermum japonicum|Phyla nodiflora minor|Picconia excelsa|Pinellia ternata|Pinguicula moranensis|Pinus pumilio|Plagiomnium cuspidatum|Plantago Asiatica|Plantago Major|Plantago afra|Plantago alpina|Plantago altissima|Plantago arborescens|Plantago asiatica|Plantago atrata|Plantago australis|Plantago bellardii|Plantago coronopus|Plantago crassifolia|Plantago cretica|Plantago depressa|Plantago hookeriana|Plantago lagopus|Plantago lanceolata|Plantago lundborgii|Plantago major|Plantago myosuros|Plantago nivalis|Plantago ovata|Plantago patagonica|Plantago raoulii|Plantago reniformis|Plantago sempervirens|Plantago serraria|Plantago sp.|Plantago subspathulata|Plantago subulata|Plantago unibracteata|Plantago uniflora|Plantago webbii|Plectranthus lanuginosus|Plectranthus parviflorus|Pogostemon cablin|Polygonatum stenophyllum|Populus yunnanensis|Premna corymbosa|Premna microphylla|Premna odorata|Premna subscandens|Prostanthera melissifolia|Pseudocyphellaria rubella|Pseudoxandra cuspidata|Psydrax livida|Pteris pacifica|Quercus pedunculata|Rauvolfia serpentina|Recordia reitzii|Rehmannia Glutinosa|Rehmannia glutinosa|Rehmannia sp.|Retzia capensis|Rhodanthe maryonii|Rhododendron campylocarpum|Rhytidophyllum onacaense|Rogeria adenophylla|Rollinia dolabripetala|Rosa rugosa|Ruellia patula|Ruellia tuberosa|Rumex aquaticus|Rzedowskia tolantonguensis|Salsola foetida|Salvia ballotiflora|Salvia recognita|Samuela carnerosana|Santisukia kerrii|Scabiosa comosa|Scapania aequiloba|Scapharca broughtonii|Scorzonera undulata|Scrophularia Ningpoensis|Scrophularia buergeriana|Scrophularia cryptophila|Scrophularia ningpoensis|Scrophularia nodosa|Scrophularia scopolii|Scrophularia scorodonia|Scrophulariaceae|Scutellaria albida|Scutellaria baicalensis|Scutellaria orientalis|Scutellaria pekinensis var. pekinensis|Scutellaria prostrata|Scutellaria repens|Scutellaria salviifolia|Senecio ilicifolius|Senecio magnificus|Senecio variabilis|Sesamum alatum|Sesamum angolense|Sesamum orientale|Sesamum sp.|Sideritis brevibracteata|Sideritis lyciae|Sideritis ozturkii|Sideritis perfoliata|Sideritis trojana|Solanum dasyphyllum|Solanum pseudopersicum|Spartium junceum|Spergula japonica|Sporothrix flocculosa|Stachys albens|Stachys byzantina|Stachys lavandulifolia|Stachys macrantha|Stachys officinalis|Stachys palaestina|Stachys riederi|Stachys rigida|Stachys schtschegleevii|Stachytarpheta cayennensis|Stentor coeruleus|Stephania aculeata|Streptomyces erythrochromogenes|Streptomyces niveus|Streptomyces noursei|Strobilanthes|Strobilanthes Cusia|Strobilanthes cusia|Sutherlandia frutescens|Swartzia langsdorffii|Syringa josikaea|Syringa komarowii|Syringa reflexa|Syringa reticulata|Syringa vulgaris|Syringa yunnanensis|Tapinella panuoides|Tecoma fulva|Tecoma stans var. sambucifolia|Tecoma stans var. velutina|Tectona grandis|Tetrachondra hamiltonii|Teucrium|Teucrium chamaedrys|Teucrium lanigerum|Teucrium polium|Teucrium sp.|Toddalia aculeata|Trametes albida|Triaenophora rupestris|Trillium erectum|Tynanthus panurensis|Ulva pertusa|Urceolaria scruposa|Usnea bayleyi|Verbascum macrurum|Verbascum phlomoides|Verbascum pseudonobile|Verbascum sp.|Verbascum spinosum|Verbascum thapsus|Verbascum undulatum|Verbascum wiedemannianum|Verbena brasiliensis|Verbena litoralis|Verbena officinalis|Verbena sp.|Veronica austriaca|Veronica persica|Vigna umbellata|Viscum album|Viscum coloratum|Volkameria inermis|Xylosalsola arbuscula|buddleja yunanesis|hemp broomrape|sesame|strobilanthes cusia|teucrium chamaedris

>  <collections>  (95) 
ANPDB|Australian natural products|CMAUP (cCollective molecular activities of useful plants)|ChEBI NPs|ChemSpider NPs|ConMedNP|DrugBankNP|Latin America dataset|NANPDB (Natural Products from Northern African Sources)|NPACT|NPASS|Nat-UV DB|NuBBEDB|Phenol-explorer|Phyto4Health|PhytoLab phyproof® Reference Substances|SANCDB|Super Natural II|TCMDB-Taiwan (Traditional Chinese Medicine database)|TPPT (Toxic Plants–PhytoToxins)|VietHerb|WikiData Natural Products|ZINC NP

>  <dois>  (95) 
10.1002/(SICI)1099-0690(199808)1998:8<1665::AID-EJOC1665>3.0.CO;2-D|10.1002/(SICI)1099-1565(199801/02)9:1<39::AID-PCA375>3.0.CO;2-D|10.1002/(SICI)1099-1573(200003)14:2<93::AID-PTR558>3.0.CO;2-X|10.1002/1097-458X(200008)38:8<688::AID-MRC714>3.0.CO;2-5|10.1002/1099-1565(200011/12)11:6<351::AID-PCA544>3.0.CO;2-S|10.1002/1099-1573(200009)14:6<463::AID-PTR611>3.0.CO;2-G|10.1002/ARDP.19863190306|10.1002/BMC.3698|10.1002/CHIN.200348199|10.1002/CHIN.200406148|10.1002/CHIN.200407161|10.1002/CHIN.200445206|10.1002/CHIN.200502205|10.1002/CHIN.200608153|10.1002/CHIN.200927180|10.1002/EJLT.200500227|10.1002/HLCA.19910740615|10.1002/HLCA.19920750318|10.1002/HLCA.200790007|10.1002/HLCA.200790024|10.1002/JCCS.199600025|10.1002/JCCS.200400160|10.1002/JLAC.1992199201113|10.1002/JLAC.199419941110|10.1002/JSFA.2384|10.1002/PCA.2800020107|10.1002/PTR.2266|10.1002/PTR.2333|10.1002/PTR.2650060208|10.1002/PTR.2650090713|10.1002/PTR.990|10.1002/RCM.2875|10.1002/ptr.5357|10.1007/BF00232101|10.1007/BF00597667|10.1007/BF00629789|10.1007/BF00630353|10.1007/BF00630379|10.1007/BF02976861|10.1007/BF02979128|10.1007/S10600-011-0065-4|10.1007/S10600-011-9920-6|10.1007/S10600-012-0123-6|10.1007/S10600-013-0549-5|10.1007/S11418-006-0043-5|10.1007/S11418-007-0135-X|10.1007/S11418-009-0383-Z|10.1016/0021-9673(93)83400-M|10.1016/0031-9422(83)80018-1|10.1016/0031-9422(88)80216-4|10.1016/0031-9422(88)80664-2|10.1016/0031-9422(88)83164-9|10.1016/0031-9422(88)87042-0|10.1016/0031-9422(89)80134-7|10.1016/0031-9422(89)85064-2|10.1016/0031-9422(90)85068-Q|10.1016/0031-9422(90)85289-R|10.1016/0031-9422(91)80018-V|10.1016/0031-9422(91)80031-U|10.1016/0031-9422(91)80101-6|10.1016/0031-9422(91)83028-J|10.1016/0031-9422(91)83050-U|10.1016/0031-9422(91)83078-Y|10.1016/0031-9422(91)83660-D|10.1016/0031-9422(91)85040-7|10.1016/0031-9422(91)85059-9|10.1016/0031-9422(91)85273-3|10.1016/0031-9422(92)80032-A|10.1016/0031-9422(92)80118-X|10.1016/0031-9422(92)80178-H|10.1016/0031-9422(92)80354-H|10.1016/0031-9422(92)80441-G|10.1016/0031-9422(92)80442-H|10.1016/0031-9422(92)83458-B|10.1016/0031-9422(92)83459-C|10.1016/0031-9422(92)83740-P|10.1016/0031-9422(93)85128-E|10.1016/0031-9422(93)85194-V|10.1016/0031-9422(93)85238-M|10.1016/0031-9422(93)85240-R|10.1016/0031-9422(93)85348-U|10.1016/0031-9422(93)85409-K|10.1016/0031-9422(94)00683-K|10.1016/0031-9422(94)00727-B|10.1016/0031-9422(94)00750-N|10.1016/0031-9422(94)00939-Q|10.1016/0031-9422(94)85019-4|10.1016/0031-9422(95)00024-2|10.1016/0031-9422(95)00172-4|10.1016/0031-9422(95)00200-Q|10.1016/0031-9422(96)00158-6|10.1016/0031-9422(96)00186-0|10.1016/0031-9422(96)00322-6|10.1016/0305-1978(92)90089-V|10.1016/0305-1978(94)00088-X|10.1016/0305-1978(95)00078-X|10.1016/0378-8741(84)90075-8|10.1016/0378-8741(93)90041-3|10.1016/0889-1575(88)90035-X|10.1016/0952-3278(88)90067-1|10.1016/J.BMC.2007.01.035|10.1016/J.BMC.2009.07.065|10.1016/J.BMC.2010.01.047|10.1016/J.BMCL.2011.03.078|10.1016/J.BSE.2005.01.006|10.1016/J.BSE.2006.05.004|10.1016/J.CCLET.2011.01.029|10.1016/J.FCT.2012.01.019|10.1016/J.FITOTE.2010.03.019|10.1016/J.FITOTE.2011.10.003|10.1016/J.FITOTE.2011.11.005|10.1016/J.FITOTE.2011.12.025|10.1016/J.FOODCHEM.2009.05.034|10.1016/J.FOODRES.2008.02.003|10.1016/J.JEP.2013.04.047|10.1016/J.PHYTOCHEM.2003.08.001|10.1016/J.PHYTOCHEM.2004.03.009|10.1016/J.PHYTOCHEM.2006.01.016|10.1016/J.PHYTOCHEM.2007.03.035|10.1016/J.PHYTOCHEM.2007.04.014|10.1016/J.PHYTOCHEM.2008.05.010|10.1016/J.PHYTOCHEM.2008.07.002|10.1016/J.PHYTOCHEM.2009.10.007|10.1016/J.PHYTOCHEM.2012.02.001|10.1016/J.PHYTOCHEM.2014.10.008|10.1016/J.PHYTOCHEM.2015.02.020|10.1016/J.TET.2003.08.029|10.1016/S0014-2999(00)00354-X|10.1016/S0021-9673(00)90712-X|10.1016/S0021-9673(01)00583-0|10.1016/S0021-9673(99)00719-0|10.1016/S0031-9422(00)00171-0|10.1016/S0031-9422(00)00306-X|10.1016/S0031-9422(00)00319-8|10.1016/S0031-9422(00)00331-9|10.1016/S0031-9422(00)00362-9|10.1016/S0031-9422(00)80823-7|10.1016/S0031-9422(00)81224-8|10.1016/S0031-9422(00)81424-7|10.1016/S0031-9422(00)81738-0|10.1016/S0031-9422(00)81742-2|10.1016/S0031-9422(00)81758-6|10.1016/S0031-9422(00)81833-6|10.1016/S0031-9422(00)82331-6|10.1016/S0031-9422(00)82429-2|10.1016/S0031-9422(00)82474-7|10.1016/S0031-9422(00)83027-7|10.1016/S0031-9422(00)83456-1|10.1016/S0031-9422(00)83749-8|10.1016/S0031-9422(00)90465-5|10.1016/S0031-9422(00)90529-6|10.1016/S0031-9422(00)90744-1|10.1016/S0031-9422(00)90799-4|10.1016/S0031-9422(00)90811-2|10.1016/S0031-9422(00)90861-6|10.1016/S0031-9422(00)95007-6|10.1016/S0031-9422(00)95015-5|10.1016/S0031-9422(00)95234-8|10.1016/S0031-9422(00)97876-2|10.1016/S0031-9422(00)97978-0|10.1016/S0031-9422(01)00208-4|10.1016/S0031-9422(01)00212-6|10.1016/S0031-9422(01)00236-9|10.1016/S0031-9422(01)00306-5|10.1016/S0031-9422(01)00466-6|10.1016/S0031-9422(01)00476-9|10.1016/S0031-9422(02)00700-8|10.1016/S0031-9422(03)00100-6|10.1016/S0031-9422(03)00242-5|10.1016/S0031-9422(03)00378-9|10.1016/S0031-9422(06)80127-5|10.1016/S0031-9422(96)00443-8|10.1016/S0031-9422(96)00446-3|10.1016/S0031-9422(96)00578-X|10.1016/S0031-9422(96)00611-5|10.1016/S0031-9422(96)00751-0|10.1016/S0031-9422(96)00770-4|10.1016/S0031-9422(97)00023-X|10.1016/S0031-9422(97)00115-5|10.1016/S0031-9422(97)00231-8|10.1016/S0031-9422(97)00472-X|10.1016/S0031-9422(97)01129-1|10.1016/S0031-9422(97)01134-5|10.1016/S0031-9422(98)00210-6|10.1016/S0031-9422(98)00435-X|10.1016/S0031-9422(98)00538-X|10.1016/S0031-9422(98)00734-1|10.1016/S0031-9422(98)80092-7|10.1016/S0031-9422(99)00167-3|10.1016/S0031-9422(99)00306-4|10.1016/S0040-4020(01)85518-6|10.1016/S0305-1978(02)00032-7|10.1016/S0305-1978(97)84855-7|10.1016/S0305-1978(99)00040-X|10.1016/S0367-326X(00)00182-9|10.1016/S0367-326X(98)00016-1|10.1016/S0378-8741(00)00189-6|10.1016/S0378-8741(01)00297-5|10.1016/S0378-8741(01)00415-9|10.1016/S0378-8741(03)00034-5|10.1016/S0378-8741(03)00274-5|10.1016/S0378-8741(97)00136-0|10.1016/S0378-8741(98)00203-7|10.1016/S0378-8741(99)00019-7|10.1016/S0378-8741(99)00169-5|10.1016/j.bmc.2007.01.035|10.1016/j.bmc.2009.07.065|10.1016/j.bmc.2010.01.047|10.1016/j.bmcl.2011.03.078|10.1016/j.jep.2013.04.047|10.1016/j.jep.2016.04.033|10.1016/s0031-9422(00)97876-2|10.1021/JF000596+|10.1021/JF0100604|10.1021/JF034528+|10.1021/JF0479867|10.1021/JF048076S|10.1021/JF401191Q|10.1021/JF801603S|10.1021/JF980264T|10.1021/NP010025R|10.1021/NP010128+|10.1021/NP020238W|10.1021/NP020568G|10.1021/NP0300131|10.1021/NP0499416|10.1021/NP0501233|10.1021/NP0501233.S001|10.1021/NP050504G|10.1021/NP058046Z|10.1021/NP0601612|10.1021/NP060511K.S001|10.1021/NP070204U|10.1021/NP070564H|10.1021/NP50035A033|10.1021/NP50043A037|10.1021/NP50050A060|10.1021/NP50051A024|10.1021/NP50054A006|10.1021/NP50055A033|10.1021/NP50057A035|10.1021/NP50063A028|10.1021/NP50068A026|10.1021/NP50072A013|10.1021/NP50074A024|10.1021/NP50074A050|10.1021/NP50078A016|10.1021/NP50086A016|10.1021/NP50100A006|10.1021/NP50101A006|10.1021/NP50114A013|10.1021/NP8001805|10.1021/NP800494E|10.1021/NP900038J|10.1021/NP900086Y|10.1021/NP9605910|10.1021/NP9703914|10.1021/NP980086Y|10.1021/NP980147S|10.1021/NP980351F|10.1021/NP9805746|10.1021/NP9900526|10.1021/NP990092+|10.1021/acs.jnatprod.8b00975|10.1021/np010128+|10.1021/np020568g|10.1021/np0501233|10.1021/np058046z|10.1021/np5003274|10.1021/np50068a026|10.1021/np50078a016|10.1021/np900038j|10.1021/np9703914|10.1021/np980086y|10.1021/np980147s|10.1021/np9900526|10.1021/np990092+|10.1023/B:CONC.0000033944.13290.EF|10.1055/S-0031-1282534|10.1055/S-0031-1300158|10.1055/S-1999-14026|10.1055/S-2001-14324|10.1055/S-2001-16473|10.1055/S-2003-43214|10.1055/S-2003-43225|10.1055/S-2004-827200|10.1055/S-2004-827232|10.1055/S-2006-957374|10.1055/S-2006-957382|10.1055/S-2006-957387|10.1055/S-2006-957540|10.1055/S-2006-957565|10.1055/S-2006-957647|10.1055/S-2006-957758|10.1055/S-2006-957854|10.1055/S-2006-958118|10.1055/S-2006-958143|10.1055/S-2006-959701|10.1055/S-2006-959711|10.1055/S-2006-960025|10.1055/S-2006-960072|10.1055/S-2006-960177|10.1055/S-2006-960215|10.1055/S-2006-960854|10.1055/S-2006-961173|10.1055/S-2006-961548|10.1055/S-2006-961836|10.1055/S-2006-961903|10.1055/S-2006-962106|10.1055/S-2006-962164|10.1055/S-2006-962658|10.1055/S-2007-971645|10.1055/S-2008-1074499|10.1076/PHBI.37.2.118.6081|10.1076/PHBI.37.4.318.5808|10.1080/10286020.2010.509718|10.1080/1028602021000000053|10.1080/13880200590928799|10.1080/14786410802267544|10.1080/14786411003754330|10.1142/S0192415X08005667|10.1142/S0192415X08006594|10.1177/1934578x0800300903|10.1211/0022357011776009|10.1246/BCSJ.56.1573|10.1248/BPB.18.1396|10.1248/BPB.19.1580|10.1248/BPB.24.1338|10.1248/BPB.25.920|10.1248/BPB.29.71|10.1248/BPB.34.160|10.1248/CPB.32.1209|10.1248/CPB.32.3009|10.1248/CPB.34.1403|10.1248/CPB.35.3309|10.1248/CPB.36.3667|10.1248/CPB.37.3153|10.1248/CPB.39.1047|10.1248/CPB.39.1171|10.1248/CPB.39.3265|10.1248/CPB.39.927|10.1248/CPB.40.1928|10.1248/CPB.40.780|10.1248/CPB.45.367|10.1248/CPB.45.499|10.1248/CPB.47.1341|10.1248/CPB.47.284|10.1248/CPB.50.384|10.1248/CPB.50.678|10.1248/CPB.50.869|10.1248/CPB.50.896|10.1248/CPB.52.1242|10.1248/CPB.52.980|10.1248/CPB.53.1175|10.1248/CPB.54.1421|10.1248/CPB.54.1705|10.1248/CPB.58.394|10.1248/CPB.59.725|10.1248/YAKUSHI1947.103.5_508|10.1248/YAKUSHI1947.104.5_535|10.1248/YAKUSHI1947.105.12_1131|10.1248/YAKUSHI1947.105.6_542|10.1248/YAKUSHI1947.106.8_725|10.1248/YAKUSHI1947.107.4_274|10.1248/YAKUSHI1947.107.5_350|10.1248/YAKUSHI1947.110.6_453|10.1248/YAKUSHI1947.114.10_775|10.1248/YAKUSHI1947.115.12_992|10.1271/BBB.63.983|10.1365/S10337-004-0359-9|10.1515/ZNB-1982-1227|10.1515/ZNB-2007-1117|10.1515/ZNB-2009-0414|10.1515/ZNB-2011-0613|10.1515/ZNC-1986-1-204|10.1515/ZNC-1997-7-803|10.1515/ZNC-2001-9-1004|10.1515/ZNC-2002-7-807|10.1515/ZNC-2003-3-407|10.1590/S0102-695X2008000200010|10.1590/S0102-695X2008000400003|10.21608/BFSA.2002.65695|10.3109/13880209009082807|10.3109/13880209209054633|10.3358/SHOKUEISHI.42.84|10.3390/12061210|10.3390/MOLECULES15128967|10.3390/MOLECULES201219845|10.3987/COM-88-S125|10.3987/COM-89-S36|10.3987/R-1986-09-2593|10.5586/ASBP.2004.002

>  <synonyms>  (95) 
nan

>  <cas>  (95) 
61276-17-3

$$$$

     RDKit          2D

 20 22  0  0  0  0  0  0  0  0999 V2000
    4.1352    2.3089    0.0000 O   0  0  0  0  0  0  0  0  0  0  0  0
    4.0568    0.8110    0.0000 C   0  0  0  0  0  0  0  0  0  0  0  0
    2.7203    0.1299    0.0000 C   0  0  0  0  0  0  0  0  0  0  0  0
    1.4623    0.9468    0.0000 C   0  0  0  0  0  0  0  0  0  0  0  0
    0.1258    0.2658    0.0000 C   0  0  0  0  0  0  0  0  0  0  0  0
   -1.1322    1.0827    0.0000 C   0  0  0  0  0  0  0  0  0  0  0  0
   -2.4687    0.4016    0.0000 C   0  0  0  0  0  0  0  0  0  0  0  0
   -2.5472   -1.0963    0.0000 C   0  0  0  0  0  0  0  0  0  0  0  0
   -3.8837   -1.7773    0.0000 C   0  0  0  0  0  0  0  0  0  0  0  0
   -5.1417   -0.9604    0.0000 C   0  0  0  0  0  0  0  0  0  0  0  0
   -6.5906   -1.3487    0.0000 O   0  0  0  0  0  0  0  0  0  0  0  0
   -7.4076   -0.0907    0.0000 C   0  0  0  0  0  0  0  0  0  0  0  0
   -6.4636    1.0750    0.0000 O   0  0  0  0  0  0  0  0  0  0  0  0
   -5.0633    0.5375    0.0000 C   0  0  0  0  0  0  0  0  0  0  0  0
   -3.7268    1.2186    0.0000 C   0  0  0  0  0  0  0  0  0  0  0  0
    5.3148   -0.0060    0.0000 N   0  0  0  0  0  0  0  0  0  0  0  0
    6.7152    0.5317    0.0000 C   0  0  0  0  0  0  0  0  0  0  0  0
    7.6592   -0.6340    0.0000 C   0  0  0  0  0  0  0  0  0  0  0  0
    6.8423   -1.8921    0.0000 C   0  0  0  0  0  0  0  0  0  0  0  0
    5.3934   -1.5039    0.0000 C   0  0  0  0  0  0  0  0  0  0  0  0
  1  2  2  0
  2  3  1  0
  3  4  2  0
  4  5  1  0
  5  6  2  0
  6  7  1  0
  7  8  2  0
  8  9  1  0
  9 10  2  0
 10 11  1  0
 11 12  1  0
 12 13  1  0
 13 14  1  0
 14 15  2  0
  2 16  1  0
 16 17  1  0
 17 18  1  0
 18 19  1  0
 19 20  1  0
 15  7  1  0
 20 16  1  0
 14 10  1  0
M  END
>  <identifier>  (96) 
CNP0202571.3

>  <canonical_smiles>  (96) 
O=C(/C=C/C=CC1=CC=C2OCOC2=C1)N1CCCC1

>  <standard_inchi>  (96) 
InChI=1S/C16H17NO3/c18-16(17-9-3-4-10-17)6-2-1-5-13-7-8-14-15(11-13)20-12-19-14/h1-2,5-8,11H,3-4,9-10,12H2/b5-1?,6-2+

>  <standard_inchi_key>  (96) 
GQIJYUMTOUBHSH-DCWBTWQJSA-N

>  <name>  (96) 
nan

>  <iupac_name>  (96) 
nan

>  <annotation_level>  (96) 
0

>  <total_atom_count>  (96) 
37

>  <heavy_atom_count>  (96) 
20

>  <molecular_weight>  (96) 
271.32

>  <exact_molecular_weight>  (96) 
271.12084

>  <molecular_formula>  (96) 
C16H17NO3

>  <alogp>  (96) 
2.61

>  <topological_polar_surface_area>  (96) 
38.77

>  <rotatable_bond_count>  (96) 
3

>  <hydrogen_bond_acceptors>  (96) 
3

>  <hydrogen_bond_donors>  (96) 
0

>  <hydrogen_bond_acceptors_lipinski>  (96) 
3

>  <hydrogen_bond_donors_lipinski>  (96) 
0

>  <lipinski_rule_of_five_violations>  (96) 
0

>  <aromatic_rings_count>  (96) 
1

>  <qed_drug_likeliness>  (96) 
0.63

>  <formal_charge>  (96) 
0

>  <fractioncsp3>  (96) 
0.31

>  <number_of_minimal_rings>  (96) 
3

>  <van_der_walls_volume>  (96) 
251.16

>  <contains_sugar>  (96) 
False

>  <contains_ring_sugars>  (96) 
False

>  <contains_linear_sugars>  (96) 
False

>  <murcko_framework>  (96) 
O1c2ccc(C=CC=CCN3CCCC3)cc2OC1

>  <np_likeness>  (96) 
0.15

>  <chemical_class>  (96) 
nan

>  <chemical_sub_class>  (96) 
nan

>  <chemical_super_class>  (96) 
nan

>  <direct_parent_classification>  (96) 
nan

>  <np_classifier_pathway>  (96) 
Alkaloids

>  <np_classifier_superclass>  (96) 
Lysine alkaloids

>  <np_classifier_class>  (96) 
Piperidine alkaloids

>  <np_classifier_is_glycoside>  (96) 
False

>  <organisms>  (96) 
Piper arboreum

>  <collections>  (96) 
Latin America dataset|NuBBEDB

>  <dois>  (96) 
10.1016/S0031-9422(01)00431-9

>  <synonyms>  (96) 
nan

>  <cas>  (96) 
nan

$$$$

     RDKit          2D

 33 37  0  0  0  0  0  0  0  0999 V2000
    2.4138   -3.4759    0.0000 C   0  0  0  0  0  0  0  0  0  0  0  0
    3.8262   -2.9708    0.0000 C   0  0  0  0  0  0  0  0  0  0  0  0
    4.9698   -3.9415    0.0000 C   0  0  0  0  0  0  0  0  0  0  0  0
    4.0951   -1.4951    0.0000 C   0  0  0  0  0  0  0  0  0  0  0  0
    5.4469   -0.8452    0.0000 C   0  0  0  0  0  0  0  0  0  0  0  0
    5.2466    0.6414    0.0000 C   0  0  0  0  0  0  0  0  0  0  0  0
    3.7709    0.9102    0.0000 C   0  0  0  0  0  0  0  0  0  0  0  0
    4.6167    2.1490    0.0000 C   0  0  0  0  0  0  0  0  0  0  0  0
    3.9667    3.5009    0.0000 O   0  0  0  0  0  0  0  0  0  0  0  0
    6.1124    2.0359    0.0000 O   0  0  0  0  0  0  0  0  0  0  0  0
    2.9832    2.1867    0.0000 C   0  0  0  0  0  0  0  0  0  0  0  0
    1.4838    2.1429    0.0000 C   0  0  0  0  0  0  0  0  0  0  0  0
    0.7721    0.8224    0.0000 C   0  0  0  0  0  0  0  0  0  0  0  0
   -0.0155    2.0990    0.0000 C   0  0  0  0  0  0  0  0  0  0  0  0
    1.5598   -0.4541    0.0000 C   0  0  0  0  0  0  0  0  0  0  0  0
    0.8481   -1.7745    0.0000 C   0  0  0  0  0  0  0  0  0  0  0  0
   -0.6512   -1.8184    0.0000 C   0  0  0  0  0  0  0  0  0  0  0  0
   -1.4389   -0.5419    0.0000 C   0  0  0  0  0  0  0  0  0  0  0  0
   -2.9383   -0.5857    0.0000 C   0  0  0  0  0  0  0  0  0  0  0  0
   -2.1506   -1.8623    0.0000 C   0  0  0  0  0  0  0  0  0  0  0  0
   -3.6499   -1.9062    0.0000 C   0  0  0  0  0  0  0  0  0  0  0  0
   -5.1493   -1.9500    0.0000 C   0  0  0  0  0  0  0  0  0  0  0  0
   -5.9370   -0.6735    0.0000 C   0  0  0  0  0  0  0  0  0  0  0  0
   -7.4363   -0.7174    0.0000 O   0  0  0  0  0  0  0  0  0  0  0  0
   -5.2253    0.6469    0.0000 C   0  0  0  0  0  0  0  0  0  0  0  0
   -5.0081    2.1311    0.0000 C   0  0  0  0  0  0  0  0  0  0  0  0
   -6.6492    1.1185    0.0000 C   0  0  0  0  0  0  0  0  0  0  0  0
   -3.7259    0.6908    0.0000 C   0  0  0  0  0  0  0  0  0  0  0  0
   -3.0142    2.0112    0.0000 C   0  0  0  0  0  0  0  0  0  0  0  0
   -1.5149    2.0551    0.0000 C   0  0  0  0  0  0  0  0  0  0  0  0
   -0.7272    0.7786    0.0000 C   0  0  0  0  0  0  0  0  0  0  0  0
    0.0605   -0.4980    0.0000 C   0  0  0  0  0  0  0  0  0  0  0  0
    3.0592   -0.4102    0.0000 C   0  0  0  0  0  0  0  0  0  0  0  0
  1  2  2  0
  2  3  1  0
  4  2  1  1
  4  5  1  0
  5  6  1  0
  6  7  1  0
  7  8  1  6
  8  9  2  0
  8 10  1  0
  7 11  1  0
 11 12  1  0
 12 13  1  0
 13 14  1  1
 13 15  1  0
 15 16  1  1
 16 17  1  0
 18 17  1  6
 18 19  1  0
 19 20  1  6
 19 21  1  0
 21 22  1  0
 22 23  1  0
 23 24  1  6
 23 25  1  0
 25 26  1  0
 25 27  1  0
 25 28  1  0
 28 29  1  6
 29 30  1  0
 30 31  1  0
 31 32  1  6
 15 33  1  0
 33  4  1  6
 33  7  1  0
 31 13  1  0
 31 18  1  0
 28 19  1  0
M  END
>  <identifier>  (97) 
CNP0226572.4

>  <canonical_smiles>  (97) 
C=C(C)[C@@H]1CC[C@]2(C(=O)O)CC[C@]3(C)[C@H](CC[C@@H]4[C@@]5(C)CC[C@H](O)C(C)(C)[C@@H]5CC[C@]43C)[C@@H]12

>  <standard_inchi>  (97) 
InChI=1S/C30H48O3/c1-18(2)19-10-15-30(25(32)33)17-16-28(6)20(24(19)30)8-9-22-27(5)13-12-23(31)26(3,4)21(27)11-14-29(22,28)7/h19-24,31H,1,8-17H2,2-7H3,(H,32,33)/t19-,20+,21-,22+,23-,24+,27-,28+,29+,30-/m0/s1

>  <standard_inchi_key>  (97) 
QGJZLNKBHJESQX-FZFNOLFKSA-N

>  <name>  (97) 
betulinic acid

>  <iupac_name>  (97) 
(1~{R},3~{a}~{S},5~{a}~{R},5~{b}~{R},7~{a}~{R},9~{S},11~{a}~{R},11~{b}~{R},13~{a}~{R},13~{b}~{R})-9-hydroxy-1-isopropenyl-5~{a},5~{b},8,8,11~{a}-pentamethyl-1,2,3,4,5,6,7,7~{a},9,10,11,11~{b},12,13,13~{a},13~{b}-hexadecahydrocyclopenta[a]chrysene-3~{a}-carboxylic acid

>  <annotation_level>  (97) 
5

>  <total_atom_count>  (97) 
81

>  <heavy_atom_count>  (97) 
33

>  <molecular_weight>  (97) 
456.71

>  <exact_molecular_weight>  (97) 
456.36035

>  <molecular_formula>  (97) 
C30H48O3

>  <alogp>  (97) 
7.09

>  <topological_polar_surface_area>  (97) 
57.53

>  <rotatable_bond_count>  (97) 
2

>  <hydrogen_bond_acceptors>  (97) 
2

>  <hydrogen_bond_donors>  (97) 
2

>  <hydrogen_bond_acceptors_lipinski>  (97) 
2

>  <hydrogen_bond_donors_lipinski>  (97) 
2

>  <lipinski_rule_of_five_violations>  (97) 
1

>  <aromatic_rings_count>  (97) 
0

>  <qed_drug_likeliness>  (97) 
0.44

>  <formal_charge>  (97) 
0

>  <fractioncsp3>  (97) 
0.90

>  <number_of_minimal_rings>  (97) 
5

>  <van_der_walls_volume>  (97) 
456.75

>  <contains_sugar>  (97) 
False

>  <contains_ring_sugars>  (97) 
False

>  <contains_linear_sugars>  (97) 
False

>  <murcko_framework>  (97) 
C1CCC2C(C1)CCC3C2CCC4C5CCCC5CCC43

>  <np_likeness>  (97) 
3.07

>  <chemical_class>  (97) 
Steroids and steroid derivatives

>  <chemical_sub_class>  (97) 
Hydroxysteroids

>  <chemical_super_class>  (97) 
Lipids and lipid-like molecules

>  <direct_parent_classification>  (97) 
Hydroxysteroids

>  <np_classifier_pathway>  (97) 
Terpenoids

>  <np_classifier_superclass>  (97) 
Triterpenoids

>  <np_classifier_class>  (97) 
Lupane triterpenoids

>  <np_classifier_is_glycoside>  (97) 
False

>  <organisms>  (97) 
Abies lasiocarpa|Abies nobilis|Acacia acuminata|Acacia mellifera|Acacia salicina|Acanthaster planci|Acanthospermum australe|Acer rubrum|Achillea arabica|Achillea santolina|Achillea wilhelmsii|Acicarpha tribuloides|Aconitum brevicalcaratum|Aconitum japonicum|Aconitum palmatum|Aconitum tianschanicum|Acritopappus longifolius|Acrocomia sclerocarpa|Adansonia digitata|Adenocarpus hispanicus|Adenopeltis colliguaya|Aegiphila verticillata|Aegle marmelos|Aframomum zambesiacum|Agathis vitiensis|Agathosma scaberula|Aglaia elaeagnoidea|Agrostis epigeios|Ahnfeltia plicata|Ailanthus sp.|Albatrellus caeruleoporus|Albertisia papuana|Albizia versicolor|Aleurites sp.|Alexandrian laurel|Alkanna hirsutissima|Alnus cordata|Alnus japonica|Alnus viridis ssp. viridis|Aloe deltoideodonta|Alphitonia excelsa|Alphitonia excelsa Boiss.|Alphitonia petriei|Alphitonia petriei Braid et White.|Alphitonia whitei|Alphitonia whitei Braid|Alphitonia zizyphoides|Alpinia calcarata|Alstonia scholaris|Alyxia buxifolia|Amanita pseudoporphyria|Amanoa oblongifolia|Ambrosia tenuifolia|Ammodendron conollyi|Ampelozizyphus amazonicus|Amsinckia menziesii|Amsonia grandiflora|Amycolatopsis sulphurea|Anadenanthera colubrina|Ancistrocladus heyneanus|Anemone Rivularis|Anemone raddeana|Anemone rivularis|Angelica ursina|Aniba rosaeodora|Annulohypoxylon cohaerens|Annulohypoxylon truncatum|Anthocercis intricata|Anthocercis littorea|Aphelasterias japonica|Apium petroselinum|Aplidium orthium|Aplysilla rosea|Aplysilla spinifera|Aplysinella rhax|Apterostigma dentigerum|Aquilegia microphylla|Arbacia pustulosa|Arbutus menziesii|Arbutus sp.|Arbutus unedo|Ardisia macrocarpa|Argyranthemum frutescens|Ariocarpus fissuratus|Aristolochia elegans|Artemisia anomala|Artemisia tournefortiana|Artocarpus integer|Artocarpus integra|Artocarpus rigidus|Arum maculatum L.|Asparagus africanus|Aspergillus arenarius|Aspergillus candidus|Aspergillus fumigatus|Aspergillus quadrilineatus|Asterias glacialis|Asterias rubens|Astilbe myriantha|Astragalus altaicola|Astragalus altaicus|Astragalus asper|Astragalus gummifer|Aulacomnium androgynum|Avrainvillea nigricans|Baccharis calvescens|Bacillus megaterium|Backhousia angustifolia|Bacopa crenata|Bacopa monnieri|Balanophora harlandii|Balanops australiana|Baphicacanthus cusia|Barbarea verna|Barringtonia racemosa|Bauhinia purpurea|Bauhinia vahlii L.|Beauveria felina|Beilschmiedia zenkeri|Berberis brandisiana|Berberis koreana|Berberis stolonifera|Bergenia stracheyi|Berlinia grandiflora|Bertholletia excelsa|Betula alnoides|Betula ermanii|Betula lenta|Betula maximowicziana|Betula pendula|Betula platyphylla|Betula sp.|Betula utilis|Biancaea decapetala|Bidens tripartita|Bituminaria bituminosa|Blighia welwitschii|Blitum virgatum|Boehmeria excelsa|Bombus hortorum|Bonnetia paniculata|Bowdichia virgilioides|Brenneria rubrifaciens|Breynia fruticosa|Breynia vitis-idaea|Brucea javanica|Buddleja variabilis|Buxus wallichiana|Byrsonima crassifolia|Cacalia robusta|Calea megacephala|Calliandra haematocephala|Callicarpa macrophylla|Callitriche stagnalis|Callitropsis funebris|Calophyllum gracilipes|Calophyllum macrocarpum|Calophyllum teysmannii|Calophyllum tomentosum|Calvatia lilacina|Camellia sinensis|Camptotheca acuminata|Campylopus clavatus|Caraipa densifolia|Cardiospermum halicacabum|Carpesium faberi|Cassinia laevis|Castanea sp.|Catharsius molossus|Cavernularia obesa|Ceanothus americanus|Ceanothus sp.|Ceanothus velutinus|Cedrela angustifolia|Centaurea arbutifolia|Centaurea horrida|Centaurea musimomum|Centaurea nigrescens|Centaurea seridis|Centella asiatica|Centella sp.|Ceratocystis clavigera|Cereus weberi|Ceriops Tagal|Ceriops decandra|Ceriops tagal|Chaenomeles sinensis|Chaenomeles sinensis KOEHNE|Chamaecrista greggii|Chlamydomonas allensworthii|Chlorophytum malayense|Chrozophora obliqua|Cichorium intybus|Cirsium dipsacolepis|Cirsium japonicum|Cissus tricuspidata|Cladiella krempfi|Cladonia pityrea|Clausena indica|Claviceps microcephala|Clematis tangutica|Clematoclethra scandens|Clermontia fauriei|Clerodendrum bungei|Clerodendrum mandarinorum|Clinopodium laxiflorum|Clinopodium umbrosum|Clusia columnaris|Clusia havetioides|Clusia nemorosa|Clusia paralicola|Cneorum pulverulentum|Coccoloba excoriata|Cocculus diversifolius|Codonopsis cordifolioidea|Colchicum doerfleri|Coleogyne ramosissima|Coleus garckeanus|Colubrina greggii|Colubrina retusa|Combretum imberbe|Combretum indicum|Combretum malabaricum|Combretum quadrangulare|Condea albida|Conger myriaster|Consolida ajacis|Convolvulus scammonia|Conyza canadensis|Cordia curassavica|Cordyline indivisa|Coreopsis fasciculata|Cornus capitata|Cornus florida|Cornus florida L.|Cornus kousa|Cornus sp.|Cornus walteri|Coronophora gregaria|Corydalis cornuta|Corydalis sewerzowi|Cosmos pringlei|Couepia polyandra|Couepia ulei|Coussarea paniculata|Cratoxylum arborescens|Cratoxylum maingayi|Cratoxylum sumatranum|Crematogaster africana|Crepis foetida|Crinum defixum|Crinum kirkii|Crinum latifolium|Crocus sieberi|Crossopteryx febrifuga|Crotalaria trifoliastrum|Croton discolor|Croton rhamnifolius|Cryptolestes pusillus|Cudrania tricuspidata|Cunninghamia lanceolata var. konishii|Cuphea appendiculata|Cuphea carthagenensis|Cuphea epilobiifolia|Cuphea infundibulum|Cussonia bancoensis|Cyclolepis genistoides|Cylicodiscus gabunensis|Cynanchum formosanum|Cytisus scoparius|Dacrydium biforme|Daemonorops draco|Dahlstedtia araripensis|Dahlstedtia pentaphylla|Dalbergia stipulacea|Daphne lancifolia|Datura inoxia|Decarya madagascariensis|Delphinium campylocentrum|Dendrodoris krebsii|Dermocybe semisanguinea|Derris uliginosa|Dialium excelsum|Diaphus suborbitalis|Dichapetalum gelonioides|Dichotomaria marginata|Didemnum inarmatum|Dillenia indica|Dillenia papuana|Dillenia serrata|Dinemasporium strigosum|Dioscorea althaeoides|Dioscorea villosa|Dioscoreophyllum cumminsii|Diospyros Castanea|Diospyros Ebenum|Diospyros Kaki|Diospyros Lotus|Diospyros Maritima|Diospyros Montana|Diospyros abyssinica|Diospyros alboflavescens|Diospyros argentea|Diospyros bipindensis|Diospyros blancoi|Diospyros bussei|Diospyros buxifolia|Diospyros canaliculata|Diospyros candalleana|Diospyros candolleana|Diospyros castanea|Diospyros cauliflora|Diospyros celebica|Diospyros chevalieri|Diospyros chloroxylon|Diospyros cinnabarina|Diospyros consolatae|Diospyros cornii|Diospyros crassiflora|Diospyros curranii|Diospyros decandra|Diospyros dendo|Diospyros diepenhorstii|Diospyros discolor|Diospyros ebenum|Diospyros ehretioides|Diospyros elliptifolia|Diospyros embryopteris|Diospyros eriantha|Diospyros evena|Diospyros exsculpta|Diospyros ferrea|Diospyros fragrans|Diospyros gabunensis|Diospyros gilleti|Diospyros gracilescens|Diospyros greeniway|Diospyros greenwayi|Diospyros guianensis|Diospyros hirsuta|Diospyros hoyleana|Diospyros ismailii|Diospyros iturensis|Diospyros kaki|Diospyros kaki var.sylvestris|Diospyros kamerunensis|Diospyros leucomelas|Diospyros longiflora|Diospyros lotus|Diospyros mafiensis|Diospyros maingayi|Diospyros malabarica|Diospyros malanonilau|Diospyros mannii|Diospyros maritima|Diospyros mcphersonii|Diospyros melanoxylon|Diospyros mespiliformis|Diospyros mollis|Diospyros monbuttensis|Diospyros monobuttensis|Diospyros montana|Diospyros moonii|Diospyros morrisiana|Diospyros natalensis|Diospyros nigra|Diospyros obliquifolia|Diospyros palmeri|Diospyros paniculata|Diospyros peregrina|Diospyros pseudo-malabarica|Diospyros quaesita|Diospyros rhodocalyx|Diospyros sanza-minika|Diospyros siamang|Diospyros siamensis|Diospyros siderophylla|Diospyros singaporensis|Diospyros spinescens|Diospyros sumatrana|Diospyros sylvatica|Diospyros thwaitesii|Diospyros tomentosa|Diospyros verrucosa|Diospyros virginiana|Diospyros walkeri|Diospyros wallichii|Diospyros zenkeri|Diotis maritima|Discaria americana|Disepalum plagioneurum|Doliocarpus dentatus|Doliocarpus schottianus|Doliocarpus verruculosus|Dorstenia convexa|Dorstenia lindeniana|Dracocephalum forrestii|Dracocephalum peregrinum|Dryobalanops oblongifolia|Dryopteris crenata|Drypetes roxburghii|Duboscia macrocarpa|Durio zibethinus|Echinops echinatus|Eclipta prostrata|Ekebergia benguelensis|Elaeagnus commutata|Eleocharis sellowiana|Elmerrillia papuana|Empetrum nigrum|Enkianthus cernuus|Enterococcus faecalis|Ephedra lomatolepis|Epigaea asiatica|Epimedium pubescens|Equisetum arvense|Eremanthus veadeiroensis|Eremophila serrulata|Eria robusta|Eria subsessilis|Ericerus pela|Eriobotrya japonica|Eriocapitella tomentosa|Eriogaster lanestris|Erium villosum|Erylus nobilis|Eryngium sp.|Erythrina sacleuxii|Escherichia coli HH 31-LT [hmaSAmopt hmoScopt]|Eskemukerjea megacarpum|Eucalyptus Camaldulensis|Eucalyptus camaldulensis|Eucalyptus camaldulensis var.obtusa|Eucalyptus citriodora|Eucalyptus exserta|Eucalyptus flocktoniae|Eucommia ulmoides|Eugenia modesta|Eugenia moraviana|Eugenia myrcianthes|Eugenia sandwicensis|Euonymus maackii|Eupatorium sachalinense|Euphausia superba|Euphorbia biglandulosa|Euphorbia micractina|Euphorbia polygonifolia|Euphorbia segetalis|Euptelea polyandra|Eurya japonica|Excoecaria acerifolia|Eysenhardtia platycarpa|Fagara cuspidata|Fagara tessmannii Engl.|Fagonia indica|Fagus × taurica|Fasciola hepatica|Ficus auriculata|Ficus conraui|Ficus cordata|Ficus cordata subsp. salicifolia|Ficus pandurata|Ficus polita|Ficus pumila|Ficus sarmentosa var. thunbergii|Flemingia philippinensis|Flindersia brayleyana|Forcipomyia marksae|Formica fusca|Forsythia suspensa|Forsythia viridissima|Fragaria chiloensis|Frasera caroliniensis|Fructus syzygii|Fucus spiralis|Fusarium avenaceum|Fusarium sacchari|Garcinia dulcis|Garcinia hanburyi|Garcinia hombroniana|Gardenia saxatilis|Gardneria insularis|Garrya laurifolia|Genista corsica|Genista sessilifolia|Gentiana olivieri|Gerbera piloselloides|Gladiolus italicus|Gliricidia sepium|Glycyrrhiza lepidota|Glycyrrhiza sp.|Gnetum cleistostachyum|Goldfussia yunnanensis|Gomphostemma microdon|Gomphostemma parviflorum|Goniothalamus thwaitesii|Gouania ulmifolia|Goupia glabra|Grammosolen odgersii|Gratiola sp.|Grindelia nana|Gustavia hexapetala|Gynochthodes officinalis|Gypsophila sp.|Gypsophila struthium|Gyrophora hyperborea|Hakea amplexicaulis|Hakea saligna|Halichondria melanadocia|Halichondria okadai|Haliclona tubifera|Halopitys incurvus|Haloxylon salicornicum|Harpalyce brasiliana|Harungana madagascariensis|Harungana sp.|Hedyotis lawsoniae|Hedysarum multijugum|Helenium argentinum|Helichrysum candolleanum|Helicteres Angustifolia|Helicteres angustifolia|Helicteres isora|Helipterum gnaphaloides|Henriettea fascicularis|Henriettella fascicularis|Heptapleurum heptaphyllum|Heracleum sphondylium|Hibiscus syriacus|Hippasteria phrygiana|Hippobroma longiflora|Hoffmannia strigillosa|Hydnocarpus pentandrus|Hydnocarpus sp.|Hydrangea macrophylla|Hypericum ascyron|Hypericum chinense|Hypericum geminiflorum|Hypericum japonicum|Hypericum patulum|Hypericum prolificum|Hypericum sampsonii|Hypericum triquetrifolium|Hypericum wightianum|Hypolepis punctata|Hyptis suaveolens|Igernella notabilis|Ilex latifolia|Ilex macropoda|Illicium difengpi|Inga punctata|Io fluvialis|Iotrochota baculifera|Ircinia aruensis|Iris missouriensis|Isodon coetsa|Isodon japonicus|Isolona campanulata|Ixeridium gracile|Ixora chinensis|Jacobaea persoonii|Jasminum Lanceolarium|Jasminum grandiflorum|Jasminum lanceolarium|Jateorhiza palmata|Jugo|Jungermannia obovata|Juniperus ashei|Juniperus foetidissima|Kadsura interior|Kalanchoe blossfeldiana|Katmon|Kingiella taenialis|Knightia deplanchei|Koompassia malaccensis|Kummerowia striata|Kyrsteniopsis dibollii|Laetiporus versisporus|Lafoensia glyptocarpa|Laggera alata|Lambertella corni|Lantana camara|Lantana viburnoides sp viburnoides var kisi|Lathraea clandestina|Laurencia mariannensis|Laurentia longiflora|Lavandula angustifolia|Lavandula latifolia|Lavandula sp.|Lavandula spica|Lecanora lividocinerea|Leitneria floridana|Lepechinia caulescens|Lepidiota negatoria|Lepidorhinus squamosus|Lepraria citrina|Leptochloa digitata|Leptospermum scoparium|Leptosyne bigelovii|Leptothorax acervorum|Lespedeza bicolor|Lespedeza davidii|Leucanthemum maximum|Leucothoe grayana|Leucothoe grayana Max.|Libidibia paraguariensis|Licania cariae|Licania heteromorpha|Licaria aritu|Ligustrum sinense|Limnophila geoffrayi|Lindera umbellata|Liparis nakaharai|Lippia dulcis|Lithothamnion corallioides|Litsea zeylanica|Lobaria adusta|Lobophytum microlobulatum|Lonchocarpus orotinus|Luisia brachystachys|Luisia volucris|Lumnitzera racemosa|Lupinus cosentinii|Luxemburgia nobilis|Luxemburgia octandra|Lycoperdon pyriforme|Lycopus asper|Lycopus lucidus|Lyophyllum shimeji|Machaerium kuhlmannii|Machaerocereus eruca|Maclura tricuspidata|Magnolia sprengeri|Malacosoma americanum|Malassezia furfur|Malus sylvestris|Malva sylvestris|Marila laxiflora|Mascarenhasia arborescens|Maytenus buxifolia|Maytenus canariensis|Maytenus guianensis|Meconopsis napaulensis|Medinilla magnifica|Melaleuca cuticularis|Melaleuca decussata|Melaleuca ericifolia|Melaleuca genistifolia|Melaleuca lanceolata|Melaleuca leucadendra|Melaleuca leucadendron|Melaleuca parviflora|Melaleuca rhaphiophylla|Melaleuca sp.|Melaleuca squarrosa|Melaleuca uncinata|Melaleuca viminea|Melibe leonina|Melilotus messanensis|Melilotus siculus|Meliosma lanceolata|Melissa sp.|Melochia chamaedrys|Mentha pulegiformis|Menyanthes sp.|Menyanthes trifoliata|Merremia umbellata|Mesembryanthemum anatomicum|Mesua beccariana|Mesua ferrea|Mesua myrtifolia|Metanarthecium luteoviride|Methylosinus trichosporium|Micranthemum umbrosum|Microcosmus vulgaris|Micromelum minutum|Microtropis fokienensis|Millettia auriculata|Millettia conraui|Millettia pinnata|Mimosa diplotricha|Mitrephora heyneana|Modiolus demissus|Moldenhavera nutans|Moldenhawera nutans|Mollinedia costaricensis|Monascus purpureus|Monochaetia compta|Monopteryx uaucu|Montanoa karwinskii|Moquilea cariae|Moquilea licaniaeflora|Moquilea pyrifolia|Moquilea tomentosa|Moringa oleifera|Morus Australis|Morus alba|Morus alba var. multicaulis|Morus australis|Morus indica|Morus sp.|Morus yunnanensis|Mosla dianthera|Myodocarpus gracilis|Myrica multiflora|Mytilus galloprovincialis|Nauclea pilosa|Nelumbo nucifera|Neocosmospora tenuicristata|Nephroma australe|Nerine krigei|Nerium Oleander|Nerium oleander|Nerium sp.|Nicotiana gossei|Nocardia alba|Notholaena aschenborniana|Notholirion bulbuliferum|Nuytsia floribunda|Ocimum basilicum|Oedera calycina|Oedera fruticosa|Oedera genistifolia|Olea Europaea|Olea europaea|Olea sp.|Onobrychis bobrovii|Onoseris alata|Oophaga speciosa|Oospora colorans|Ophelia neglecta|Ophiarthrum elegans|Ophioplocus japonicus|Oplopanax horridus|Origanum compactum|Origanum sp.|Ormosia flava|Ormosia panamensis|Orobanche speciosa|Orthocaulis attenuatus|Orthosiphon aristatus|Orthosiphon grandiflorus|Orthosiphon stamineus|Oscillatoria princeps|Osmanthus armatus|Osmerus mordax|Osmites hirsuta|Osmundaria colensoi|Osteophloeum platyspermum|Ozoroa insignis|Ozothamnus ledifolius|Paeonia Suffruticosa|Paeonia emodi|Paeonia lactiflora|Paeonia rockii|Paeonia suffruticosa|Palafoxia rosea|Paliurus hemsleyanus|Paliurus ramosissimus|Papaver persicum|Parastrephia lepidophylla|Parazoanthus gracilis|Parerythropodium fulvum|Parmotrema tinctorum|Pedicularis condensata|Peganum nigellastrum|Pellia fabbroniana|Peniophora affinis|Penstemon newberryi|Penstemon secundiflorus|Peperomia humilis|Peperomia leptostachya|Peperomia sui|Perityle vaseyi|Perrottetia arisanensis|Perrottetia multiflora|Persea indica|Persicaria nodosa|Peruvian amazonian|Pestalotiopsis guepinii|Petalostigma|Petriella sordida|Petrosia corticata|Petrosia hebes|Petteria ramentacea|Phallusia mammillata|Phedimus kamtschaticus|Phegopteris bukoensis|Phlegmariurus fordii|Phleum africanum|Phlogacanthus thyrsiflorus|Phlomoides hamosa|Phoebe formosana|Phoradendron vernicosum|Phormia regina|Phyla dulcis|Phyllanthus Reticulatus|Phyllanthus reticulatus|Phyllanthus sp.|Phyllogeiton zeyheri|Physopsis viscida|Phytolacca acinosa|Picea vulgaris|Picradeniopsis oppositifolia|Picrasma javanica|Picris radicata|Pieris japonica D.Don.|Pinus halepensis|Pinus heldreichii|Pinus monophylla|Pinus picea|Pinus thunbergii|Piper acutifolium|Piper aequale|Piper arboreum|Piper falconeri|Piper nepalense|Piper umbellatum|Pittocaulon velatum|Plantago lanceolata|Platanus occidentalis|Platanus sp.|Plectranthus ornatus|Plesionika izumiae|Plocamium corallorhiza|Pluchea lanceolata|Plumeria|Plumeria obtusa|Plumeria rubra|Podolepis longipedata|Podospora curvicolla|Podostictina degelii|Polemonium caeruleum|Polygonum plebeium|Polyphaga sinensis|Polysaccharidum versicolor|Pongamia Pinnata|Pongamia pinnata|Porella swartziana|Potentilla chinensis|Pouteria torta|Pouzolzia occidentalis|Primula hirsuta|Prunella vulgaris|Prunus avium|Prunus dulcis|Pseudopterogorgia rigida|Pseudoscleropodium purum|Psilotum nudum|Psoroma crassum|Psorospermum aurantiacum|Psorospermum glaberrimum|Psychotria Adenophylla|Psychotria adenophylla|Pteris glauca|Pterocaulon rugosum|Pterogorgia bipinnata|Ptilidium ciliare|Punica Granatum|Punica granatum|Punica sp.|Purpura aperta|Pyracantha coccinea|Pyrus communis|Quercus mongolica|Quercus suber|Ramalina paludosa|Ramalina pollinaria|Rauvolfia tetraphylla|Rauvolfia vomitoria|Recombinant Saccharomyces cerevisiae(overexpressed strain MO3) [ACE1]|Relhania calycina|Relhania fruticosa|Reniera cratera|Retanilla trinervia|Rhaphiolepis loquata|Rheum webbianum|Rhizomnium pseudopunctatum|Rhododendron anthopogon|Rhododendron arboreum|Rhododendron ferrugineum|Rhododendron maximum|Rhododendron ovatum|Rhynchosporium orthosporum|Ritterella sigillinoides|Rodgersia podophylla|Rosa davurica|Rosa multiflora|Rosa rugosa|Rosmarinus Officinalis|Rosmarinus officinalis|Rosmarinus officinalis L.|Rotala floribunda|Ruscus hypoglossum|Russula vesca|Ruta microcarpa|Salacia chinensis|Salix babylonica|Salix matsudana|Salvia abrotanoides|Salvia aegyptiaca|Salvia coulteri|Salvia farinacea|Salvia longistyla|Salvia miltiorrhiza|Salvia nicolsoniana|Salvia nubicola|Salvia officinalis|Salvia prionitis|Salvia roborowskii|Salvia thymoides|Salvia verticillata|Salvia xalapensis|Sanguisorba officinalis|Sanguisorba sp.|Sarcandra glabra|Sarcomphalus joazeiro|Sarcopyramis bodinieri|Sarracenia flava|Sassafras officinalis|Satureja cuneifolia|Satureja montana|Saussurea triangulata|Scabiosa pyrenaica|Scaevola floribunda|Scapania nemorea|Sceletium subvelutinum|Schima wallichi|Schleichera Oleosa|Schleichera oleosa|Scilla maritima|Scirpophaga incertula|Scleroderma tinctorium|Scoparia Dulcis|Scoparia dulcis|Scoparia dulcis L.|Scorzonera laciniata|Scrophularia glabrata|Scutellaria seleriana|Scytonema ocellatum|Selinum carvifolium|Senecio brasiliensis|Senecio cathcartensis|Senecio flavus|Senecio grandiflorus|Senecio scandens|Senecio zoellneri|Senegalia mellifera|Senna lindheimeriana|Senna obtusifolia|Sequoia sempervirens|Setosphaeria turcica|Shigella flexneri|Sida cordifolia|Sidastrum acuminatum|Sideritis romana|Simplicillium lamellicola|Sindora wallichii|Sinularia molesta|Smenospongia echina|Smilax medica|Solanum aviculare|Solanum chilense|Solanum diflorum|Solanum racemigerum|Solanum sisymbriifolium|Solenopsis invicta|Solenopsis xyloni|Sonchus neriifolius|Sorbus decora|Sorbus domestica|Sorocea bonplandii|Spatholobus suberectus|Spodoptera littoralis|Staehelina fruticosa|Stauntonia hexahylla|Stauntonia hexaphylla|Stemodia foliosa|Stemodia maritima|Stemodia trifoliata|Stenocereus eruca|Stephania succifera|Stevia origanoides|Stevia salicifolia|Streptomyces eurythermus|Streptomyces fradiae|Streptomyces misawanensis|Streptomyces mobaraensis|Strobilanthes dimorphotricha|Strobilanthes pentstemonoides|Strobilanthes psilostachys|Strychnos decussata|Strychnos ledermannii|Strychnos spinosa|Strychnos vanprukii|Suberites domuncula|Swartzia arborescens|Swertia punctata|Syncarpia glomulifera|Syncolostemon parviflorus|Syphonota geographica|Syzigium claviflorum|Syzygium Cumini|Syzygium claviflorum|Syzygium corticosum|Syzygium cumini|Syzygium formosanum|Syzygium grande|Syzygium sandwicense|Syzygium sp.|Tabebuia rosea|Tadehagi triquetrum|Tanacetum nubigenum|Taraxacum bicorne|Tasmannia lanceolata|Tectona grandis|Tephrosia purpurea|Terminalia alata|Terminalia brachystemma|Terminalia glabrescens|Terminalia superba|Ternstroemia Gymnanthera|Ternstroemia cherryi|Ternstroemia gymnanthera|Ternstroemia merrilliana|Tetracentron sinense|Tetracera asiatica|Tetracera boiviniana|Tetraria capillaris|Teucrium alyssifolium|Teucrium nuchense|Teucrium pestalozzae|Thamnolia subuliformis|Thermopsis mollis|Thorectandra excavatus|Thuja plicata|Thymbra spicata|Toddalia floribunda|Tolypothrix tjipanasensis|Tovomita brasiliensis|Tovomita brevistaminea|Tovomita choisyana|Tovomita excelsa|Tovomita fructipendula|Tovomita krukovii|Toxicodendron radicans|Trapa bicornis|Triadenum japonicum|Trichia floriformis|Trichilia claussenii|Trichilia connaroides|Trifoliate orange|Trifolium apertum|Trifolium strepens|Triglochin maritima|Trigonia nivea var. fasciculata|Triphyophyllum peltatum|Tripodanthus acutifolius|Tripterygium wilfordii|Turbinaria ornata|Turraeanthus mannii|Uapaca acuminata|Uapaca guineensis|Uapaca mole|Uapaca nitida|Ugni molinae|Ulmus davidiana|Ungernia minor|Urtica triangularis|Uvaria kirkii|Vachellia farnesiana var. farnesiana|Valeriana fedtschenkoi|Valeriana laxiflora|Vallaris heynei|Vallaris solanacea|Vatica cinerea|Vatica diospyroides|Vellozia declinans|Vellozia stipitata|Vellozia streptophylla|Verbena bonariensis|Vernonanthura discolor|Vernonanthura squamulosa|Vernonia serratuloides|Veronica pectinata|Verpa digitaliformis|Viburnum cylindricum|Viburnum davidii|Viburnum odoratissimum|Viguiera annua|Vinca herbacea|Viola odorata|Virola oleifera|Viscum album|Viscum coloratum|Viscum sp.|Vismia baccifera|Vismia cayennensis|Vismia guianensis|Vismia martiana|Vismia micrantha|Vismia parviflora|Vitex negundo|Vitex rotundifolia|Vitex trifolia|Vitis vinifera|Vochysia divergens|Widely distributed in plant|Woodfordia fruticosa|Wrightia coccinea|Xyris indica|Zanthoxylum brachyacanthum|Zanthoxylum gilletii|Zanthoxylum monophyllum|Zanthoxylum tetraspermum|Zataria multiflora|Zephyranthes carinata|Ziziphus Cambodiana|Ziziphus cambodiana|Ziziphus jujuba|Ziziphus jujuba mill. var. inermis (bge.) rehd.|Ziziphus jujuba var.spinosa|Ziziphus mauritiana|Ziziphus spina-christi|Ziziphus xylopyra|Ziziphus xylopyrus|Zizphus cambodiana|Zizyphus joazeiro|Zizyphus vulgaris|Zygosaccharomyces rouxii|basil|clermontia fauerei|liquorice|perrottetia arisanensis|platanus hispanica|zizyphus cambodiana

>  <collections>  (97) 
ANPDB|Australian natural products|CMAUP (cCollective molecular activities of useful plants)|ChEBI NPs|ChemSpider NPs|ConMedNP|DrugBankNP|InflamNat|KNApSaCK|Latin America dataset|NANPDB (Natural Products from Northern African Sources)|NPACT|NPASS|NPEdia|NuBBEDB|Phyto4Health|PhytoLab phyproof® Reference Substances|SANCDB|Super Natural II|TCMDB-Taiwan (Traditional Chinese Medicine database)|VietHerb|WikiData Natural Products|ZINC NP

>  <dois>  (97) 
10.1002/(SICI)1099-1565(199907/08)10:4<187::AID-PCA443>3.0.CO;2-K|10.1002/(SICI)1099-1573(199602)10:1<1::AID-PTR757>3.0.CO;2-A|10.1002/(SICI)1099-1573(199605)10:3<194::AID-PTR703>3.0.CO;2-Y|10.1002/(SICI)1099-1573(199711)11:7<504::AID-PTR145>3.0.CO;2-O|10.1002/(SICI)1099-1573(199903)13:2<115::AID-PTR404>3.0.CO;2-1|10.1002/ARDP.19963291005|10.1002/CBDV.200800266|10.1002/CBDV.200900172|10.1002/CBDV.201000310|10.1002/CHIN.198528357|10.1002/CHIN.200307143|10.1002/CHIN.200413142|10.1002/CHIN.200451186|10.1002/CHIN.200630195|10.1002/CHIN.200640213|10.1002/HLCA.200390068|10.1002/HLCA.200690271|10.1002/HLCA.200800420|10.1002/HLCA.201000278|10.1002/HLCA.201100173|10.1002/JCCS.198500029|10.1002/JCCS.199300014|10.1002/JCCS.199400028|10.1002/JCCS.200000028|10.1002/JCCS.200200042|10.1002/JCCS.200500117|10.1002/JLAC.19666920122|10.1002/MRC.1236|10.1002/MRC.1954|10.1002/MRC.2597|10.1002/PCA.628|10.1002/PCA.757|10.1002/PTR.1088|10.1002/RECL.19470660309|10.1007/978-1-4615-4913-0_23|10.1007/978-3-642-48618-0_9|10.1007/978-3-642-71425-2_1|10.1007/BF00272743|10.1007/BF00567057|10.1007/BF00597825|10.1007/BF00598324|10.1007/BF00599285|10.1007/BF02976931|10.1007/BF02976955|10.1007/BF02980101|10.1007/BF02994763|10.1007/BF03046367|10.1007/BF03046638|10.1007/S10600-008-9078-Z|10.1007/S10600-009-9377-Z|10.1007/S10600-010-9461-4|10.1007/S10600-010-9550-4|10.1007/S10600-011-9859-7|10.1007/S10600-011-9944-Y|10.1007/S10600-013-0614-0|10.1007/S10600-013-0640-Y|10.1007/S12272-010-0903-0|10.1007/S13205-017-0759-9|10.1007/S13369-010-0015-7|10.1016/0031-6865(96)00010-6|10.1016/0031-9422(73)80050-0|10.1016/0031-9422(81)80026-X|10.1016/0031-9422(81)83035-X|10.1016/0031-9422(81)84067-8|10.1016/0031-9422(81)85243-0|10.1016/0031-9422(83)80162-9|10.1016/0031-9422(83)80163-0|10.1016/0031-9422(84)83092-7|10.1016/0031-9422(88)83027-9|10.1016/0031-9422(88)83047-4|10.1016/0031-9422(88)83135-2|10.1016/0031-9422(89)80295-X|10.1016/0031-9422(89)80297-3|10.1016/0031-9422(90)80181-F|10.1016/0031-9422(90)80218-6|10.1016/0031-9422(90)85035-E|10.1016/0031-9422(90)85129-4|10.1016/0031-9422(90)85192-I|10.1016/0031-9422(90)85281-J|10.1016/0031-9422(90)87133-F|10.1016/0031-9422(91)80130-S|10.1016/0031-9422(91)83076-W|10.1016/0031-9422(92)80309-3|10.1016/0031-9422(92)80451-J|10.1016/0031-9422(92)80458-Q|10.1016/0031-9422(92)80483-U|10.1016/0031-9422(92)83658-L|10.1016/0031-9422(92)83754-M|10.1016/0031-9422(93)80051-S|10.1016/0031-9422(94)00445-Y|10.1016/0031-9422(94)00574-D|10.1016/0031-9422(95)00060-K|10.1016/0031-9422(95)00491-O|10.1016/0031-9422(95)00907-8|10.1016/0031-9422(96)00110-0|10.1016/0031-9422(96)00352-4|10.1016/0040-4020(95)00720-S|10.1016/0378-8741(95)01260-K|10.1016/B978-0-12-818162-1.00040-7|10.1016/J.BMC.2006.04.021|10.1016/J.BMCL.2010.01.156|10.1016/J.BMCL.2012.08.074|10.1016/J.BMCL.2013.12.098|10.1016/J.BSE.2005.08.004|10.1016/J.BSE.2012.10.013|10.1016/J.FITOTE.2003.07.012|10.1016/J.FITOTE.2004.09.008|10.1016/J.FITOTE.2005.04.018|10.1016/J.FITOTE.2008.09.005|10.1016/J.FITOTE.2009.05.006|10.1016/J.FITOTE.2010.03.019|10.1016/J.FITOTE.2010.05.011|10.1016/J.FITOTE.2011.11.017|10.1016/J.JEP.2005.03.013|10.1016/J.PHYMED.2009.07.010|10.1016/J.PHYTOCHEM.2004.03.002|10.1016/J.PHYTOCHEM.2004.03.010|10.1016/J.PHYTOCHEM.2004.04.024|10.1016/J.PHYTOCHEM.2005.04.041|10.1016/J.PHYTOCHEM.2005.06.025|10.1016/J.PHYTOCHEM.2006.03.005|10.1016/J.PHYTOCHEM.2006.12.015|10.1016/J.PHYTOCHEM.2007.02.020|10.1016/J.PHYTOCHEM.2008.04.004|10.1016/J.PHYTOL.2010.07.003|10.1016/J.PHYTOL.2011.02.011|10.1016/J.TET.2006.03.034|10.1016/J.TET.2008.05.054|10.1016/S0031-9422(00)00058-3|10.1016/S0031-9422(00)00296-X|10.1016/S0031-9422(00)00346-0|10.1016/S0031-9422(00)00402-7|10.1016/S0031-9422(00)80286-1|10.1016/S0031-9422(00)80490-2|10.1016/S0031-9422(00)80565-8|10.1016/S0031-9422(00)80639-1|10.1016/S0031-9422(00)81516-2|10.1016/S0031-9422(00)82359-6|10.1016/S0031-9422(00)82386-9|10.1016/S0031-9422(00)82610-2|10.1016/S0031-9422(00)84106-0|10.1016/S0031-9422(00)84521-5|10.1016/S0031-9422(00)84983-3|10.1016/S0031-9422(00)85205-X|10.1016/S0031-9422(00)86539-5|10.1016/S0031-9422(00)86845-4|10.1016/S0031-9422(00)88243-6|10.1016/S0031-9422(00)89540-0|10.1016/S0031-9422(00)89726-5|10.1016/S0031-9422(00)90367-4|10.1016/S0031-9422(00)90605-8|10.1016/S0031-9422(00)94448-0|10.1016/S0031-9422(00)95279-8|10.1016/S0031-9422(00)97178-4|10.1016/S0031-9422(00)97179-6|10.1016/S0031-9422(00)97552-6|10.1016/S0031-9422(01)00006-1|10.1016/S0031-9422(01)00180-7|10.1016/S0031-9422(01)00234-5|10.1016/S0031-9422(03)00183-3|10.1016/S0031-9422(96)00518-3|10.1016/S0031-9422(96)00644-9|10.1016/S0031-9422(97)00021-6|10.1016/S0031-9422(97)00313-0|10.1016/S0031-9422(97)00338-5|10.1016/S0031-9422(97)00588-8|10.1016/S0031-9422(97)00746-2|10.1016/S0031-9422(97)00827-3|10.1016/S0031-9422(97)01020-0|10.1016/S0031-9422(97)80021-0|10.1016/S0031-9422(98)00325-2|10.1016/S0031-9422(98)00590-1|10.1016/S0031-9422(98)00750-X|10.1016/S0031-9422(99)00270-8|10.1016/S0031-9422(99)00274-5|10.1016/S0031-9422(99)00412-4|10.1016/S0031-9422(99)00457-4|10.1016/S0040-4039(01)00560-3|10.1016/S0040-4039(97)01032-0|10.1016/S0304-3835(02)00593-1|10.1016/S0305-1978(02)00027-3|10.1016/S0305-1978(98)00061-1|10.1016/S0305-1978(98)00108-2|10.1016/S0367-326X(00)00219-7|10.1016/S0367-326X(00)00259-8|10.1016/S0367-326X(00)00321-X|10.1016/S0367-326X(98)00030-6|10.1016/S0367-326X(99)00129-X|10.1016/S0378-8741(03)00013-8|10.1016/S0378-8741(03)00261-7|10.1016/S0926-6690(01)00091-7|10.1016/j.bmc.2008.09.053|10.1016/j.bmc.2018.07.025|10.1016/j.bmcl.2012.08.074|10.1016/j.bmcl.2013.12.098|10.1016/j.sajb.2012.05.007|10.1016/j.synbio.2021.12.008|10.1021/ACS.JNATPROD.6B00204|10.1021/JA064630Y|10.1021/JF00092A031|10.1021/JF0483117|10.1021/JF052812Q|10.1021/JF970768B|10.1021/JF9908289|10.1021/JO9902087|10.1021/NP000321O|10.1021/NP010395F|10.1021/NP0201164|10.1021/NP020127X|10.1021/NP020379Y|10.1021/NP020412G|10.1021/NP0204848|10.1021/NP030069V|10.1021/NP0301893|10.1021/NP030207G|10.1021/NP030469I|10.1021/NP030477Z|10.1021/NP030509I|10.1021/NP030509I.S001|10.1021/NP030515E|10.1021/NP040072U|10.1021/NP050041E|10.1021/NP050041E.S001|10.1021/NP050132B|10.1021/NP050132B.S001|10.1021/NP050132B.S002|10.1021/NP0502793|10.1021/NP058083Q|10.1021/NP060166Z|10.1021/NP068010M|10.1021/NP070038Q|10.1021/NP070560C|10.1021/NP1002065|10.1021/NP1003005|10.1021/NP1004483|10.1021/NP2000914|10.1021/NP200307R|10.1021/NP200359V|10.1021/NP50005A010|10.1021/NP50009A016|10.1021/NP500150F|10.1021/NP50025A012|10.1021/NP50036A047|10.1021/NP50037A039|10.1021/NP50040A042|10.1021/NP50044A005|10.1021/NP50044A024|10.1021/NP50045A039|10.1021/NP50046A034|10.1021/NP50048A050|10.1021/NP50054A031|10.1021/NP50056A006|10.1021/NP50067A028|10.1021/NP50077A010|10.1021/NP50104A008|10.1021/NP50105A013|10.1021/NP50124A014|10.1021/NP800001V|10.1021/NP800093A|10.1021/NP800106X|10.1021/NP800360A|10.1021/NP900305J|10.1021/NP900341F|10.1021/NP960134J|10.1021/NP9606052|10.1021/NP970186O|10.1021/NP9702852|10.1021/NP970364D|10.1021/NP9800710|10.1021/NP980313W|10.1021/NP990226J|10.1021/NP990227B|10.1021/NP990326P|10.1021/acs.jnatprod.6b00027|10.1021/acs.jnatprod.6b00204|10.1021/acs.jnatprod.6b00525|10.1021/acs.jnatprod.6b00805|10.1021/acs.jnatprod.7b00111|10.1021/acs.jnatprod.7b00177|10.1021/np020379y|10.1021/np0204848|10.1021/np030207g|10.1021/np030469i|10.1021/np030509i|10.1021/np040072u|10.1021/np050182g|10.1021/np060436d|10.1021/np070038q|10.1021/np070560c|10.1021/np1004483|10.1021/np2000914|10.1021/np200118q|10.1021/np200307r|10.1021/np200359v|10.1021/np3007638|10.1021/np3007809|10.1021/np500150f|10.1021/np50054a031|10.1021/np800001v|10.1021/np800093a|10.1021/np800360a|10.1021/np900341f|10.1021/np980313w|10.1021/np990326p|10.1038/NM1095-1046|10.1039/JR9390001267|10.1039/JR9520004065|10.1039/P19770000006|10.1039/P19860000675|10.1039/jr9520004065|10.1055/S-0028-1097262|10.1055/S-0028-1097302|10.1055/S-0028-1097706|10.1055/S-0028-1099558|10.1055/S-0028-1112201|10.1055/S-0029-1186193|10.1055/S-0029-1240611|10.1055/S-0029-1241017|10.1055/S-0031-1282668|10.1055/S-1999-14054|10.1055/S-1999-14093|10.1055/S-2000-11129|10.1055/S-2000-8531|10.1055/S-2000-9601|10.1055/S-2002-20049|10.1055/S-2002-36354|10.1055/S-2003-45155|10.1055/S-2004-818920|10.1055/S-2004-827149|10.1055/S-2005-873125|10.1055/S-2006-951725|10.1055/S-2006-951766|10.1055/S-2006-957602|10.1055/S-2006-957666|10.1055/S-2006-957704|10.1055/S-2006-957705|10.1055/S-2006-957923|10.1055/S-2006-957988|10.1055/S-2006-958085|10.1055/S-2006-958147|10.1055/S-2006-959585|10.1055/S-2006-962358|10.1055/S-2006-962425|10.1055/S-2006-962679|10.1055/S-2006-962681|10.1055/S-2006-962754|10.1055/S-2006-962783|10.1055/S-2007-967166|10.1055/S-2007-969308|10.1055/S-2007-969511|10.1071/CH00066|10.1071/CH05087|10.1071/CH9620314|10.1071/CH9650591|10.1071/CH9662133|10.1071/CH9722209|10.1071/ch9722209|10.1076/PHBI.36.2.103.4603|10.1078/0944-7113-00023|10.1080/1028602021000000053|10.1080/10286020310001595935|10.1080/10286020600782454|10.1080/10286020701611636|10.1080/10575639308043837|10.1080/14786410310001608037|10.1080/14786410500161205|10.1080/14786410802689713|10.1080/14786410902757899|10.1080/14786410902951088|10.1080/14786419.2010.551769|10.1080/14786419.2012.676547|10.1080/14786419.2019.1608546|10.1093/OXFORDJOURNALS.PCP.A076871|10.1111/J.1744-7909.2005.00060.X|10.1139/V10-084|10.1139/V61-225|10.1155/2013/942541|10.1201/9780203022320.CH4|10.1246/CL.1985.443|10.1248/BPB.25.1485|10.1248/BPB.28.1995|10.1248/BPB.29.382|10.1248/CPB.26.1394|10.1248/CPB.32.3906|10.1248/CPB.35.3292|10.1248/CPB.37.2232|10.1248/CPB.39.3276|10.1248/CPB.40.2461|10.1248/CPB.42.608|10.1248/CPB.44.1033|10.1248/CPB.44.2249|10.1248/CPB.46.1189|10.1248/CPB.46.1647|10.1248/CPB.47.1152|10.1248/CPB.48.1711|10.1248/CPB.48.1771|10.1248/CPB.48.496|10.1248/CPB.51.1318|10.1248/CPB.54.1063|10.1248/CPB.54.535|10.1248/CPB.54.546|10.1248/CPB.55.464|10.1248/CPB.55.474|10.1248/CPB.55.516|10.1248/CPB.55.784|10.1248/CPB.56.222|10.1248/CPB.57.532|10.1248/CPB.58.971|10.1248/CPB.59.397|10.1248/YAKUSHI1947.106.4_302|10.14233/AJCHEM.2014.16935|10.14264/UQL.2014.538|10.1515/HFSG.1991.45.4.265|10.1515/ZNB-1999-0616|10.1515/ZNB-2008-1113|10.1515/ZNB-2009-0415|10.1515/ZNB-2011-0610|10.1515/ZNC-1998-3-420|10.1515/ZNC-2003-1-213|10.1590/S0102-695X2008000100003|10.1590/S0103-50531997000500011|10.1590/S0103-50531999000200005|10.1590/S0103-50531999000600003|10.1590/S0103-50532000000300005|10.1590/S0103-50532001000200009|10.1590/S0103-50532003000300011|10.1590/S0103-50532003000300021|10.1590/S0103-50532004000100023|10.1590/S0103-50532010000800025|10.1590/S0103-50532011000700013|10.21608/BFSA.1985.75704|10.21608/BFSA.1987.74392|10.21608/BFSA.2000.66312|10.21608/BFSA.2001.65958|10.2174/157017811796064430|10.21779/2542-0321-2016-31-2-51-53|10.26510/2394-0859.PBE.2017.07|10.3109/13880208509069005|10.3109/13880209109082884|10.3109/13880209509088143|10.3329/DUJPS.V3I1.189|10.3389/fnmol.2018.00098|10.3390/MOLECULES15106733|10.3390/MOLECULES16076010|10.3390/MOLECULES16097249|10.3390/MOLECULES20023206|10.3390/microorganisms9020233|10.3390/molecules27020483|10.3891/ACTA.CHEM.SCAND.07-0446|10.3987/COM-01-S(K)67|10.3987/COM-88-S2|10.3987/COM-91-5703|10.3987/COM-95-7249|10.3987/COM-97-7901|10.3998/ARK.5550190.0004.304|10.3998/ARK.5550190.0011.227|10.4268/CJCMM20100813|10.4268/CJCMM20112416|10.4268/CJCMM20130315|10.4268/CJCMM20131917|10.4268/CJCMM20161216|10.4314/NJNPM.V3I1.11761

>  <synonyms>  (97) 
nan

>  <cas>  (97) 
472-15-1

$$$$

     RDKit          2D

 23 25  0  0  0  0  0  0  0  0999 V2000
   -4.0841    2.1446    0.0000 C   0  0  0  0  0  0  0  0  0  0  0  0
   -2.6212    1.8132    0.0000 S   0  0  0  0  0  0  0  0  0  0  0  0
   -2.1767    0.3806    0.0000 C   0  0  0  0  0  0  0  0  0  0  0  0
   -3.6648    0.1916    0.0000 C   0  0  0  0  0  0  0  0  0  0  0  0
   -4.5724    1.3858    0.0000 O   0  0  0  0  0  0  0  0  0  0  0  0
   -0.8430    1.0671    0.0000 C   0  0  0  0  0  0  0  0  0  0  0  0
   -0.7707    2.5654    0.0000 O   0  0  0  0  0  0  0  0  0  0  0  0
    0.4184    0.2554    0.0000 N   0  0  0  0  0  0  0  0  0  0  0  0
    1.8656    0.6496    0.0000 C   0  0  0  0  0  0  0  0  0  0  0  0
    2.6878   -0.6050    0.0000 C   0  0  0  0  0  0  0  0  0  0  0  0
    4.1854   -0.5203    0.0000 C   0  0  0  0  0  0  0  0  0  0  0  0
    4.8608    0.8190    0.0000 C   0  0  0  0  0  0  0  0  0  0  0  0
    4.0387    2.0736    0.0000 C   0  0  0  0  0  0  0  0  0  0  0  0
    2.5411    1.9889    0.0000 C   0  0  0  0  0  0  0  0  0  0  0  0
    1.7189    3.2435    0.0000 O   0  0  0  0  0  0  0  0  0  0  0  0
    1.7486   -1.7746    0.0000 C   0  0  0  0  0  0  0  0  0  0  0  0
    0.3461   -1.2429    0.0000 C   0  0  0  0  0  0  0  0  0  0  0  0
    0.4308   -2.7405    0.0000 S   0  0  0  0  0  0  0  0  0  0  0  0
    1.7701   -3.4159    0.0000 C   0  0  0  0  0  0  0  0  0  0  0  0
   -0.9876   -1.9294    0.0000 C   0  0  0  0  0  0  0  0  0  0  0  0
   -1.0599   -3.4277    0.0000 O   0  0  0  0  0  0  0  0  0  0  0  0
   -2.2490   -1.1177    0.0000 N   0  0  0  0  0  0  0  0  0  0  0  0
   -3.5827   -1.8042    0.0000 C   0  0  0  0  0  0  0  0  0  0  0  0
  1  2  1  0
  2  3  1  0
  3  4  1  1
  4  5  1  0
  3  6  1  0
  6  7  2  0
  6  8  1  0
  9  8  1  6
  9 10  1  0
 10 11  2  0
 11 12  1  0
 12 13  2  0
 13 14  1  0
 14 15  1  1
 10 16  1  0
 16 17  1  0
 17 18  1  6
 18 19  1  0
 17 20  1  0
 20 21  2  0
 20 22  1  0
 22 23  1  0
 22  3  1  0
 17  8  1  0
 14  9  1  0
M  END
>  <identifier>  (98) 
CNP0299713.1

>  <canonical_smiles>  (98) 
CS[C@]1(CO)C(=O)N2[C@H]3C(=CC=C[C@@H]3O)C[C@@]2(SC)C(=O)N1C

>  <standard_inchi>  (98) 
InChI=1S/C15H20N2O4S2/c1-16-12(20)14(22-2)7-9-5-4-6-10(19)11(9)17(14)13(21)15(16,8-18)23-3/h4-6,10-11,18-19H,7-8H2,1-3H3/t10-,11-,14+,15+/m0/s1

>  <standard_inchi_key>  (98) 
OVBAGMZLGLXSBN-UOVKNHIHSA-N

>  <name>  (98) 
Bisdethiobis(methylthio)gliotoxin

>  <iupac_name>  (98) 
(3~{R},5~{a}~{S},6~{S},10~{a}~{R})-6-hydroxy-3-(hydroxymethyl)-2-methyl-3,10~{a}-bis(methylsulfanyl)-6,10-dihydro-5~{a}~{H}-pyrazino[1,2-a]indole-1,4-dione

>  <annotation_level>  (98) 
5

>  <total_atom_count>  (98) 
43

>  <heavy_atom_count>  (98) 
23

>  <molecular_weight>  (98) 
356.47

>  <exact_molecular_weight>  (98) 
356.08645

>  <molecular_formula>  (98) 
C15H20N2O4S2

>  <alogp>  (98) 
0.03

>  <topological_polar_surface_area>  (98) 
81.08

>  <rotatable_bond_count>  (98) 
3

>  <hydrogen_bond_acceptors>  (98) 
6

>  <hydrogen_bond_donors>  (98) 
2

>  <hydrogen_bond_acceptors_lipinski>  (98) 
6

>  <hydrogen_bond_donors_lipinski>  (98) 
2

>  <lipinski_rule_of_five_violations>  (98) 
0

>  <aromatic_rings_count>  (98) 
0

>  <qed_drug_likeliness>  (98) 
0.74

>  <formal_charge>  (98) 
0

>  <fractioncsp3>  (98) 
0.60

>  <number_of_minimal_rings>  (98) 
3

>  <van_der_walls_volume>  (98) 
301.87

>  <contains_sugar>  (98) 
False

>  <contains_ring_sugars>  (98) 
False

>  <contains_linear_sugars>  (98) 
False

>  <murcko_framework>  (98) 
C=1C=C2CC3N(CCNC3)C2CC1

>  <np_likeness>  (98) 
2.82

>  <chemical_class>  (98) 
Carboxylic acids and derivatives

>  <chemical_sub_class>  (98) 
Amino acids, peptides, and analogues

>  <chemical_super_class>  (98) 
Organic acids and derivatives

>  <direct_parent_classification>  (98) 
Alpha amino acids

>  <np_classifier_pathway>  (98) 
Alkaloids

>  <np_classifier_superclass>  (98) 
Peptide alkaloids

>  <np_classifier_class>  (98) 
Thiodiketopiperazine alkaloids

>  <np_classifier_is_glycoside>  (98) 
False

>  <organisms>  (98) 
Aspergillus fumigatus|Colletotrichum gloeosporioides|Cordyceps tenuipes|Elysia tuca|Gliocladium deliquescens|Gliocladium flavofuscum|Isaria tenuipes|Isaria tenuipes BCC12625|Lagochilus inebrians|Parmelia abessinica|Penicillium|Penicillium sp.|Saussurea macrota|Scorzonera latifolia|Sterculia parviflora|Trichoderma deliquescens

>  <collections>  (98) 
AnalytiCon Discovery NPs|EMNPD|GNPS (Global Natural Products Social Molecular Networking)|KNApSaCK|Latin America dataset|NPASS|NPAtlas|NPEdia|NuBBEDB|Super Natural II|WikiData Natural Products|ZINC NP

>  <dois>  (98) 
10.1007/S10600-005-0122-Y|10.1016/0031-9422(92)80225-4|10.1016/J.PHYTOCHEM.2010.05.012|10.1016/j.phytochem.2010.05.012|10.1021/JF300146N|10.1021/NP200740E|10.1021/NP800702C|10.1021/np200740e|10.1039/P19800000119|10.1080/14786410600906970

>  <synonyms>  (98) 
(3R,5aS,6S,10aR)-6-hydroxy-3-(hydroxymethyl)-2-methyl-3,10a-bis(methylsulfanyl)-1H,2H,3H,4H,5aH,6H,10H,10aH-piperazino[1,2-a]indole-1,4-dione|(3R,5aS,6S,10aR)-6-hydroxy-3-(hydroxymethyl)-2-methyl-3,10a-bis(methylsulfanyl)-6,10-dihydro-5aH-pyrazino[1,2-a]indole-1,4-dione|(3R,5aS,6S,10aR)-6-hydroxy-3-(hydroxymethyl)-2-methyl-3,10a-bis(methylthio)-2,3,5a,6,10,10a-hexahydropyrazino[1,2-a]indole-1,4-dione|3R,10Ar-Dithiomethyl Gliotoxin A|6-Hydroxy-3-(hydroxymethyl)-2-methyl-3,10a-bis(methylsulfanyl)-2,3,5a,6,10,10a-hexahydropyrazino[1,2-a]indole-1,4-dione|74149-38-5|AC1L4YI4|AKOS040761419|BDBM50315535|Bis(methylthio)gliotoxin (FR-49175)|Bis(methylthio)gliotoxin (FR-49175) is known as a PAF receptor ligand.|Bis(methylthio)gliotoxin, 99%|Bisdethiobis(methylthio)gliotoxin|BmGT|CHEBI:219781|CHEMBL1088981|CS-0203642|DTXSID70995590|FR 49175|FR-49175|GTPL3150|HY-N9710|MFCD00133146|NCGC00380667-01|NS00097472|Pyrazino(1,2-a)indole-1,4-dione, 2,3,5a,6,10,10a-hexahydro-6-hydroxy-3-(hydroxymethyl)-2-methyl-3,10a-bis(methylthio)-, (3R-(3alpha,5abeta,6beta,10aalpha))-|Q27077740|S,S-Dimethyl gliotoxin|SCHEMBL18652994|bis(methylsulfanyl)gliotoxin|bis(methylthio)gliotoxin|dimethylgliotoxin

>  <cas>  (98) 
74149-38-5

$$$$

     RDKit          2D

 39 44  0  0  0  0  0  0  0  0999 V2000
   -4.5915   -4.0823    0.0000 C   0  0  0  0  0  0  0  0  0  0  0  0
   -3.4767   -3.0786    0.0000 C   0  0  0  0  0  0  0  0  0  0  0  0
   -2.0502   -3.5422    0.0000 O   0  0  0  0  0  0  0  0  0  0  0  0
   -3.7885   -1.6114    0.0000 O   0  0  0  0  0  0  0  0  0  0  0  0
   -2.6737   -0.6078    0.0000 C   0  0  0  0  0  0  0  0  0  0  0  0
   -1.2472   -1.0714    0.0000 C   0  0  0  0  0  0  0  0  0  0  0  0
   -0.9354   -2.5386    0.0000 O   0  0  0  0  0  0  0  0  0  0  0  0
    0.4912   -3.0022    0.0000 C   0  0  0  0  0  0  0  0  0  0  0  0
    0.8030   -4.4694    0.0000 C   0  0  0  0  0  0  0  0  0  0  0  0
    1.1951   -2.6280    0.0000 O   0  0  0  0  0  0  0  0  0  0  0  0
   -0.1324   -0.0677    0.0000 C   0  0  0  0  0  0  0  0  0  0  0  0
   -1.5590    0.3959    0.0000 C   0  0  0  0  0  0  0  0  0  0  0  0
   -0.4442    1.3995    0.0000 C   0  0  0  0  0  0  0  0  0  0  0  0
    0.6706    2.4031    0.0000 C   0  0  0  0  0  0  0  0  0  0  0  0
    2.0971    1.9395    0.0000 C   0  0  0  0  0  0  0  0  0  0  0  0
    2.4089    0.4723    0.0000 C   0  0  0  0  0  0  0  0  0  0  0  0
    3.5237    1.4759    0.0000 C   0  0  0  0  0  0  0  0  0  0  0  0
    3.8355    0.0087    0.0000 C   0  0  0  0  0  0  0  0  0  0  0  0
    4.9503    1.0123    0.0000 C   0  0  0  0  0  0  0  0  0  0  0  0
    4.7935    2.5041    0.0000 C   0  0  0  0  0  0  0  0  0  0  0  0
    6.1639    3.1142    0.0000 O   0  0  0  0  0  0  0  0  0  0  0  0
    7.1675    1.9994    0.0000 C   0  0  0  0  0  0  0  0  0  0  0  0
    6.4175    0.7004    0.0000 C   0  0  0  0  0  0  0  0  0  0  0  0
    4.1473   -1.4585    0.0000 O   0  0  0  0  0  0  0  0  0  0  0  0
    3.0325   -2.4622    0.0000 C   0  0  0  0  0  0  0  0  0  0  0  0
    3.3443   -3.9294    0.0000 O   0  0  0  0  0  0  0  0  0  0  0  0
    1.6059   -1.9986    0.0000 C   0  0  0  0  0  0  0  0  0  0  0  0
    0.1794   -1.5350    0.0000 O   0  0  0  0  0  0  0  0  0  0  0  0
    1.2942   -0.5313    0.0000 C   0  0  0  0  0  0  0  0  0  0  0  0
   -1.8708    1.8631    0.0000 C   0  0  0  0  0  0  0  0  0  0  0  0
   -0.7560    2.8667    0.0000 C   0  0  0  0  0  0  0  0  0  0  0  0
   -2.1825    3.3303    0.0000 C   0  0  0  0  0  0  0  0  0  0  0  0
   -3.6091    3.7939    0.0000 C   0  0  0  0  0  0  0  0  0  0  0  0
   -4.7239    2.7903    0.0000 C   0  0  0  0  0  0  0  0  0  0  0  0
   -6.1504    3.2539    0.0000 O   0  0  0  0  0  0  0  0  0  0  0  0
   -4.4121    1.3231    0.0000 C   0  0  0  0  0  0  0  0  0  0  0  0
   -4.6209   -0.1623    0.0000 C   0  0  0  0  0  0  0  0  0  0  0  0
   -5.9112    1.2708    0.0000 C   0  0  0  0  0  0  0  0  0  0  0  0
   -2.9855    0.8595    0.0000 C   0  0  0  0  0  0  0  0  0  0  0  0
  1  2  1  0
  2  3  2  0
  2  4  1  0
  5  4  1  6
  5  6  1  0
  6  7  1  6
  7  8  1  0
  8  9  1  0
  8 10  2  0
  6 11  1  0
 11 12  1  1
 11 13  1  0
 13 14  1  1
 14 15  1  0
 15 16  1  0
 16 17  1  6
 16 18  1  0
 18 19  1  6
 19 20  2  0
 20 21  1  0
 21 22  1  0
 22 23  2  0
 18 24  1  0
 24 25  1  0
 25 26  2  0
 25 27  1  0
 27 28  1  1
 29 28  1  1
 13 30  1  0
 30 31  1  1
 30 32  1  0
 32 33  2  0
 33 34  1  0
 34 35  2  0
 34 36  1  0
 36 37  1  0
 36 38  1  0
 39 36  1  1
 39  5  1  0
 29 11  1  0
 39 30  1  0
 29 16  1  0
 23 19  1  0
 29 27  1  0
M  END
>  <identifier>  (99) 
CNP0263397.1

>  <canonical_smiles>  (99) 
CC(=O)O[C@H]1[C@@H](OC(C)=O)[C@]2(C)[C@H](CC[C@@]3(C)[C@H](C4=COC=C4)OC(=O)[C@H]4O[C@@]423)[C@@]2(C)C=CC(=O)C(C)(C)[C@H]12

>  <standard_inchi>  (99) 
InChI=1S/C30H36O9/c1-15(31)36-20-21-26(3,4)19(33)9-11-27(21,5)18-8-12-28(6)22(17-10-13-35-14-17)38-25(34)24-30(28,39-24)29(18,7)23(20)37-16(2)32/h9-11,13-14,18,20-24H,8,12H2,1-7H3/t18-,20-,21+,22+,23-,24-,27-,28+,29+,30-/m1/s1

>  <standard_inchi_key>  (99) 
KSMGXOJIWMFMLJ-HZLHTTAUSA-N

>  <name>  (99) 
6-alpha-acetoxygedunin

>  <iupac_name>  (99) 
[(1~{S},2~{R},4~{S},7~{S},8~{S},11~{R},12~{R},17~{R},18~{R},19~{S})-19-acetoxy-7-(3-furyl)-1,8,12,16,16-pentamethyl-5,15-dioxo-3,6-dioxapentacyclo[9.8.0.0^{2,4}.0^{2,8}.0^{12,17}]nonadec-13-en-18-yl] acetate

>  <annotation_level>  (99) 
5

>  <total_atom_count>  (99) 
75

>  <heavy_atom_count>  (99) 
39

>  <molecular_weight>  (99) 
540.61

>  <exact_molecular_weight>  (99) 
540.23593

>  <molecular_formula>  (99) 
C30H36O9

>  <alogp>  (99) 
4.10

>  <topological_polar_surface_area>  (99) 
121.64

>  <rotatable_bond_count>  (99) 
3

>  <hydrogen_bond_acceptors>  (99) 
9

>  <hydrogen_bond_donors>  (99) 
0

>  <hydrogen_bond_acceptors_lipinski>  (99) 
9

>  <hydrogen_bond_donors_lipinski>  (99) 
0

>  <lipinski_rule_of_five_violations>  (99) 
1

>  <aromatic_rings_count>  (99) 
1

>  <qed_drug_likeliness>  (99) 
0.32

>  <formal_charge>  (99) 
0

>  <fractioncsp3>  (99) 
0.67

>  <number_of_minimal_rings>  (99) 
6

>  <van_der_walls_volume>  (99) 
nan

>  <contains_sugar>  (99) 
False

>  <contains_ring_sugars>  (99) 
False

>  <contains_linear_sugars>  (99) 
False

>  <murcko_framework>  (99) 
o1ccc(c1)C2OCC3OC34C2CCC5C6C=CCCC6CCC54

>  <np_likeness>  (99) 
3.20

>  <chemical_class>  (99) 
Prenol lipids

>  <chemical_sub_class>  (99) 
Triterpenoids

>  <chemical_super_class>  (99) 
Lipids and lipid-like molecules

>  <direct_parent_classification>  (99) 
Limonoids

>  <np_classifier_pathway>  (99) 
Terpenoids

>  <np_classifier_superclass>  (99) 
Triterpenoids

>  <np_classifier_class>  (99) 
Limonoids

>  <np_classifier_is_glycoside>  (99) 
False

>  <organisms>  (99) 
Alaria nana|Artemisia arctica|Carapa guianensis|Cyperus compressus|Ferreirea spectabilis|Pieris melete|Streptomyces fungicidicus|Swietenia mahagoni

>  <collections>  (99) 
Latin America dataset|NPASS|NuBBEDB|WikiData Natural Products

>  <dois>  (99) 
10.1016/0045-2068(73)90007-2|10.1016/J.TET.2010.11.028|10.1248/CPB.38.1495|10.1248/CPB.38.639|10.2174/187152010794728620

>  <synonyms>  (99) 
(1S,3aS,4aR,4bS,5S,6R, 6aR,10aR,10bR,12aS)-5,6-bis(acetyloxy)- 1-(3-furyl)-1,5,6,6a,7,10a,10b,11,12,12a-decahydro-4b,7,7,10a,12a- pentamethyloxireno[c]phenanthro[1,2-d]pyran- 3,8(3aH,4bH)-dione|6-Acetoxygedunin|SCHEMBL5614214

>  <cas>  (99) 
nan

$$$$

     RDKit          2D

 32 36  0  0  0  0  0  0  0  0999 V2000
   -7.4630   -2.1477    0.0000 C   0  0  0  0  0  0  0  0  0  0  0  0
   -6.0302   -1.7037    0.0000 C   0  0  0  0  0  0  0  0  0  0  0  0
   -5.6984   -0.2409    0.0000 C   0  0  0  0  0  0  0  0  0  0  0  0
   -4.2656    0.2032    0.0000 C   0  0  0  0  0  0  0  0  0  0  0  0
   -3.9338    1.6660    0.0000 C   0  0  0  0  0  0  0  0  0  0  0  0
   -5.0347    2.6848    0.0000 C   0  0  0  0  0  0  0  0  0  0  0  0
   -2.5010    2.1101    0.0000 C   0  0  0  0  0  0  0  0  0  0  0  0
   -2.0181    3.5302    0.0000 C   0  0  0  0  0  0  0  0  0  0  0  0
   -0.5183    3.5098    0.0000 C   0  0  0  0  0  0  0  0  0  0  0  0
   -0.0742    2.0770    0.0000 C   0  0  0  0  0  0  0  0  0  0  0  0
    1.0541    3.0654    0.0000 C   0  0  0  0  0  0  0  0  0  0  0  0
    1.2877    1.4483    0.0000 C   0  0  0  0  0  0  0  0  0  0  0  0
    2.5131    2.3133    0.0000 C   0  0  0  0  0  0  0  0  0  0  0  0
    3.8750    1.6846    0.0000 C   0  0  0  0  0  0  0  0  0  0  0  0
    4.0114    0.1908    0.0000 C   0  0  0  0  0  0  0  0  0  0  0  0
    5.3733   -0.4379    0.0000 C   0  0  0  0  0  0  0  0  0  0  0  0
    6.8681   -0.5629    0.0000 C   0  0  0  0  0  0  0  0  0  0  0  0
    5.7560    1.0125    0.0000 C   0  0  0  0  0  0  0  0  0  0  0  0
    5.5097   -1.9317    0.0000 C   0  0  0  0  0  0  0  0  0  0  0  0
    6.8716   -2.5604    0.0000 O   0  0  0  0  0  0  0  0  0  0  0  0
    4.2843   -2.7967    0.0000 C   0  0  0  0  0  0  0  0  0  0  0  0
    2.9224   -2.1680    0.0000 C   0  0  0  0  0  0  0  0  0  0  0  0
    2.7860   -0.6742    0.0000 C   0  0  0  0  0  0  0  0  0  0  0  0
    1.5606   -1.5393    0.0000 C   0  0  0  0  0  0  0  0  0  0  0  0
    1.4241   -0.0455    0.0000 C   0  0  0  0  0  0  0  0  0  0  0  0
    0.1987   -0.9106    0.0000 C   0  0  0  0  0  0  0  0  0  0  0  0
   -1.1632   -0.2818    0.0000 C   0  0  0  0  0  0  0  0  0  0  0  0
   -1.2996    1.2119    0.0000 C   0  0  0  0  0  0  0  0  0  0  0  0
   -2.6088    0.4797    0.0000 C   0  0  0  0  0  0  0  0  0  0  0  0
   -4.9293   -2.7225    0.0000 C   0  0  0  0  0  0  0  0  0  0  0  0
   -5.2611   -4.1853    0.0000 C   0  0  0  0  0  0  0  0  0  0  0  0
   -3.4965   -2.2784    0.0000 C   0  0  0  0  0  0  0  0  0  0  0  0
  1  2  2  0
  2  3  1  0
  3  4  1  0
  4  5  1  0
  5  6  1  1
  5  7  1  0
  7  8  1  1
  8  9  1  0
  9 10  1  0
 10 11  1  6
 10 12  1  0
 12 13  1  0
 13 14  1  0
 14 15  1  0
 15 16  1  0
 16 17  1  0
 16 18  1  0
 16 19  1  0
 19 20  1  1
 19 21  1  0
 21 22  1  0
 23 22  1  6
 23 24  1  0
 25 24  1  1
 25 26  1  0
 26 27  1  0
 27 28  1  0
 28 29  1  1
  2 30  1  0
 30 31  1  0
 30 32  1  0
 28  7  1  0
 28 10  1  0
 25 12  1  0
 23 15  1  0
 25 23  1  0
M  END
>  <identifier>  (100) 
CNP0164563.9

>  <canonical_smiles>  (100) 
C=C(CC[C@@H](C)[C@H]1CC[C@@]2(C)C3CCC4C(C)(C)[C@@H](O)CC[C@@]45C[C@@]35CC[C@]12C)C(C)C

>  <standard_inchi>  (100) 
InChI=1S/C31H52O/c1-20(2)21(3)9-10-22(4)23-13-15-29(8)25-12-11-24-27(5,6)26(32)14-16-30(24)19-31(25,30)18-17-28(23,29)7/h20,22-26,32H,3,9-19H2,1-2,4-8H3/t22-,23-,24?,25?,26+,28-,29+,30-,31+/m1/s1

>  <standard_inchi_key>  (100) 
BDHQMRXFDYJGII-FJEFULPVSA-N

>  <name>  (100) 
(1S,3R,6S,12S,15R,16R)-7,7,12,16-tetramethyl-15-[(2R)-6-methyl-5-methylideneheptan-2-yl]pentacyclo[9.7.0.0^{1,3}.0^{3,8}.0^{12,16}]octadecan-6-ol

>  <iupac_name>  (100) 
(1~{S},3~{R},6~{S},12~{S},15~{R},16~{R})-15-[(1~{R})-1,5-dimethyl-4-methylene-hexyl]-7,7,12,16-tetramethyl-pentacyclo[9.7.0.0^{1,3}.0^{3,8}.0^{12,16}]octadecan-6-ol

>  <annotation_level>  (100) 
5

>  <total_atom_count>  (100) 
84

>  <heavy_atom_count>  (100) 
32

>  <molecular_weight>  (100) 
440.76

>  <exact_molecular_weight>  (100) 
440.40182

>  <molecular_formula>  (100) 
C31H52O

>  <alogp>  (100) 
8.41

>  <topological_polar_surface_area>  (100) 
20.23

>  <rotatable_bond_count>  (100) 
5

>  <hydrogen_bond_acceptors>  (100) 
1

>  <hydrogen_bond_donors>  (100) 
1

>  <hydrogen_bond_acceptors_lipinski>  (100) 
1

>  <hydrogen_bond_donors_lipinski>  (100) 
1

>  <lipinski_rule_of_five_violations>  (100) 
1

>  <aromatic_rings_count>  (100) 
0

>  <qed_drug_likeliness>  (100) 
0.43

>  <formal_charge>  (100) 
0

>  <fractioncsp3>  (100) 
0.94

>  <number_of_minimal_rings>  (100) 
5

>  <van_der_walls_volume>  (100) 
nan

>  <contains_sugar>  (100) 
False

>  <contains_ring_sugars>  (100) 
False

>  <contains_linear_sugars>  (100) 
False

>  <murcko_framework>  (100) 
C1CCC23CC43CCC5CCCC5C4CCC2C1

>  <np_likeness>  (100) 
3.27

>  <chemical_class>  (100) 
Steroids and steroid derivatives

>  <chemical_sub_class>  (100) 
Cycloartanols and derivatives

>  <chemical_super_class>  (100) 
Lipids and lipid-like molecules

>  <direct_parent_classification>  (100) 
Cycloartanols and derivatives

>  <np_classifier_pathway>  (100) 
Terpenoids

>  <np_classifier_superclass>  (100) 
Triterpenoids

>  <np_classifier_class>  (100) 
Cycloartane triterpenoids

>  <np_classifier_is_glycoside>  (100) 
False

>  <organisms>  (100) 
Papulaspora immersa|Trichilia claussenii|Trichilia pallida

>  <collections>  (100) 
Latin America dataset|NuBBEDB|WikiData Natural Products

>  <dois>  (100) 
10.1002/CBDV.201000011|10.1002/cbdv.201000011|10.1016/0031-9422(95)00969-8|10.1590/S1519-566X2008000600013

>  <synonyms>  (100) 
24-methylenecycloartan-3b-ol|SCHEMBL13420256

>  <cas>  (100) 
nan

$$$$

     RDKit          2D

 26 27  0  0  0  0  0  0  0  0999 V2000
   -6.5051   -1.0358    0.0000 C   0  0  0  0  0  0  0  0  0  0  0  0
   -5.5136    0.0899    0.0000 O   0  0  0  0  0  0  0  0  0  0  0  0
   -4.0431   -0.2060    0.0000 C   0  0  0  0  0  0  0  0  0  0  0  0
   -3.0516    0.9197    0.0000 C   0  0  0  0  0  0  0  0  0  0  0  0
   -3.5307    2.3411    0.0000 C   0  0  0  0  0  0  0  0  0  0  0  0
   -2.5393    3.4667    0.0000 C   0  0  0  0  0  0  0  0  0  0  0  0
   -1.0687    3.1709    0.0000 C   0  0  0  0  0  0  0  0  0  0  0  0
   -0.0773    4.2965    0.0000 C   0  0  0  0  0  0  0  0  0  0  0  0
   -0.5896    1.7495    0.0000 C   0  0  0  0  0  0  0  0  0  0  0  0
   -1.5811    0.6238    0.0000 C   0  0  0  0  0  0  0  0  0  0  0  0
   -1.1020   -0.7976    0.0000 C   0  0  0  0  0  0  0  0  0  0  0  0
   -2.0935   -1.9232    0.0000 O   0  0  0  0  0  0  0  0  0  0  0  0
    0.3685   -1.0934    0.0000 C   0  0  0  0  0  0  0  0  0  0  0  0
    0.8476   -2.5148    0.0000 O   0  0  0  0  0  0  0  0  0  0  0  0
   -0.1438   -3.6405    0.0000 C   0  0  0  0  0  0  0  0  0  0  0  0
    0.3352   -5.0619    0.0000 C   0  0  0  0  0  0  0  0  0  0  0  0
   -1.6144   -3.3446    0.0000 O   0  0  0  0  0  0  0  0  0  0  0  0
    1.3600    0.0322    0.0000 C   0  0  0  0  0  0  0  0  0  0  0  0
    2.8305   -0.2636    0.0000 C   0  0  0  0  0  0  0  0  0  0  0  0
    3.1263    1.2069    0.0000 C   0  0  0  0  0  0  0  0  0  0  0  0
    2.5347   -1.7342    0.0000 C   0  0  0  0  0  0  0  0  0  0  0  0
    4.3011   -0.5594    0.0000 O   0  0  0  0  0  0  0  0  0  0  0  0
    5.2925    0.5662    0.0000 C   0  0  0  0  0  0  0  0  0  0  0  0
    6.7631    0.2704    0.0000 C   0  0  0  0  0  0  0  0  0  0  0  0
    4.8134    1.9876    0.0000 O   0  0  0  0  0  0  0  0  0  0  0  0
    0.8809    1.4536    0.0000 C   0  0  0  0  0  0  0  0  0  0  0  0
  1  2  1  0
  2  3  1  0
  3  4  1  0
  4  5  2  0
  5  6  1  0
  6  7  2  0
  7  8  1  0
  7  9  1  0
  9 10  2  0
 10 11  1  0
 11 12  2  0
 11 13  1  0
 13 14  1  1
 14 15  1  0
 15 16  1  0
 15 17  2  0
 13 18  1  0
 18 19  1  6
 19 20  1  0
 19 21  1  0
 19 22  1  0
 22 23  1  0
 23 24  1  0
 23 25  2  0
 18 26  1  0
 10  4  1  0
 26  9  1  0
M  END
>  <identifier>  (101) 
CNP0080485.1

>  <canonical_smiles>  (101) 
COCC1=CC=C(C)C2=C1C(=O)[C@H](OC(C)=O)[C@@H](C(C)(C)OC(C)=O)C2

>  <standard_inchi>  (101) 
InChI=1S/C20H26O6/c1-11-7-8-14(10-24-6)17-15(11)9-16(20(4,5)26-13(3)22)19(18(17)23)25-12(2)21/h7-8,16,19H,9-10H2,1-6H3/t16-,19+/m0/s1

>  <standard_inchi_key>  (101) 
CIKRUAPTDKFNSL-QFBILLFUSA-N

>  <name>  (101) 
nan

>  <iupac_name>  (101) 
[(2~{R},3~{S})-3-(1-acetoxy-1-methyl-ethyl)-8-(methoxymethyl)-5-methyl-1-oxo-tetralin-2-yl] acetate

>  <annotation_level>  (101) 
4

>  <total_atom_count>  (101) 
52

>  <heavy_atom_count>  (101) 
26

>  <molecular_weight>  (101) 
362.42

>  <exact_molecular_weight>  (101) 
362.17294

>  <molecular_formula>  (101) 
C20H26O6

>  <alogp>  (101) 
2.77

>  <topological_polar_surface_area>  (101) 
78.90

>  <rotatable_bond_count>  (101) 
5

>  <hydrogen_bond_acceptors>  (101) 
6

>  <hydrogen_bond_donors>  (101) 
0

>  <hydrogen_bond_acceptors_lipinski>  (101) 
6

>  <hydrogen_bond_donors_lipinski>  (101) 
0

>  <lipinski_rule_of_five_violations>  (101) 
0

>  <aromatic_rings_count>  (101) 
1

>  <qed_drug_likeliness>  (101) 
0.75

>  <formal_charge>  (101) 
0

>  <fractioncsp3>  (101) 
0.55

>  <number_of_minimal_rings>  (101) 
2

>  <van_der_walls_volume>  (101) 
nan

>  <contains_sugar>  (101) 
False

>  <contains_ring_sugars>  (101) 
False

>  <contains_linear_sugars>  (101) 
False

>  <murcko_framework>  (101) 
c1ccc2c(c1)CCCC2

>  <np_likeness>  (101) 
1.17

>  <chemical_class>  (101) 
Tetralins

>  <chemical_sub_class>  (101) 
Tetralins

>  <chemical_super_class>  (101) 
Benzenoids

>  <direct_parent_classification>  (101) 
Tetralins

>  <np_classifier_pathway>  (101) 
Terpenoids

>  <np_classifier_superclass>  (101) 
nan

>  <np_classifier_class>  (101) 
nan

>  <np_classifier_is_glycoside>  (101) 
False

>  <organisms>  (101) 
Emmotum nitens

>  <collections>  (101) 
Latin America dataset|NuBBEDB|WikiData Natural Products|ZINC NP

>  <dois>  (101) 
10.1016/0031-9422(74)80100-7

>  <synonyms>  (101) 
Emmotin-A diacetate

>  <cas>  (101) 
nan

$$$$

     RDKit          2D

 25 28  0  0  0  0  0  0  0  0999 V2000
   -7.1884   -3.3790    0.0000 C   0  0  0  0  0  0  0  0  0  0  0  0
   -6.2477   -2.2107    0.0000 C   0  0  0  0  0  0  0  0  0  0  0  0
   -4.7655   -2.4411    0.0000 C   0  0  0  0  0  0  0  0  0  0  0  0
   -3.8248   -1.2728    0.0000 C   0  0  0  0  0  0  0  0  0  0  0  0
   -4.3663    0.1261    0.0000 C   0  0  0  0  0  0  0  0  0  0  0  0
   -3.4256    1.2945    0.0000 C   0  0  0  0  0  0  0  0  0  0  0  0
   -3.9671    2.6933    0.0000 O   0  0  0  0  0  0  0  0  0  0  0  0
   -5.4493    2.9238    0.0000 C   0  0  0  0  0  0  0  0  0  0  0  0
   -1.9434    1.0640    0.0000 C   0  0  0  0  0  0  0  0  0  0  0  0
   -1.0027    2.2324    0.0000 O   0  0  0  0  0  0  0  0  0  0  0  0
    0.4795    2.0019    0.0000 C   0  0  0  0  0  0  0  0  0  0  0  0
    1.4202    3.1703    0.0000 C   0  0  0  0  0  0  0  0  0  0  0  0
    1.0210    0.6030    0.0000 C   0  0  0  0  0  0  0  0  0  0  0  0
    2.5032    0.3726    0.0000 C   0  0  0  0  0  0  0  0  0  0  0  0
    3.4439    1.5409    0.0000 C   0  0  0  0  0  0  0  0  0  0  0  0
    4.9261    1.3104    0.0000 C   0  0  0  0  0  0  0  0  0  0  0  0
    5.4675   -0.0884    0.0000 C   0  0  0  0  0  0  0  0  0  0  0  0
    6.8694   -0.6220    0.0000 O   0  0  0  0  0  0  0  0  0  0  0  0
    6.7951   -2.1202    0.0000 C   0  0  0  0  0  0  0  0  0  0  0  0
    5.3474   -2.5125    0.0000 O   0  0  0  0  0  0  0  0  0  0  0  0
    4.5269   -1.2568    0.0000 C   0  0  0  0  0  0  0  0  0  0  0  0
    3.0447   -1.0263    0.0000 C   0  0  0  0  0  0  0  0  0  0  0  0
    0.0803   -0.5653    0.0000 O   0  0  0  0  0  0  0  0  0  0  0  0
   -1.4019   -0.3349    0.0000 C   0  0  0  0  0  0  0  0  0  0  0  0
   -2.3426   -1.5032    0.0000 C   0  0  0  0  0  0  0  0  0  0  0  0
  1  2  2  0
  2  3  1  0
  3  4  1  0
  4  5  2  0
  5  6  1  0
  6  7  1  0
  7  8  1  0
  6  9  2  0
  9 10  1  0
 10 11  1  0
 11 12  1  6
 11 13  1  0
 13 14  1  1
 14 15  2  0
 15 16  1  0
 16 17  2  0
 17 18  1  0
 18 19  1  0
 19 20  1  0
 20 21  1  0
 21 22  2  0
 13 23  1  0
 23 24  1  0
 24 25  2  0
 25  4  1  0
 24  9  1  0
 22 14  1  0
 21 17  1  0
M  END
>  <identifier>  (102) 
CNP0239326.1

>  <canonical_smiles>  (102) 
C=CCC1=CC(OC)=C2O[C@H](C)[C@@H](C3=CC=C4OCOC4=C3)OC2=C1

>  <standard_inchi>  (102) 
InChI=1S/C20H20O5/c1-4-5-13-8-17(21-3)20-18(9-13)25-19(12(2)24-20)14-6-7-15-16(10-14)23-11-22-15/h4,6-10,12,19H,1,5,11H2,2-3H3/t12-,19+/m1/s1

>  <standard_inchi_key>  (102) 
ZWXZTOYXYBPRJT-BLVKFPJESA-N

>  <name>  (102) 
(2R,3R)-2-(1,3-benzodioxol-5-yl)-5-methoxy-3-methyl-7-prop-2-enyl-2,3-dihydro-1,4-benzodioxine

>  <iupac_name>  (102) 
(2~{R},3~{R})-7-allyl-2-(1,3-benzodioxol-5-yl)-5-methoxy-3-methyl-2,3-dihydro-1,4-benzodioxine

>  <annotation_level>  (102) 
5

>  <total_atom_count>  (102) 
45

>  <heavy_atom_count>  (102) 
25

>  <molecular_weight>  (102) 
340.38

>  <exact_molecular_weight>  (102) 
340.13107

>  <molecular_formula>  (102) 
C20H20O5

>  <alogp>  (102) 
4.05

>  <topological_polar_surface_area>  (102) 
46.15

>  <rotatable_bond_count>  (102) 
4

>  <hydrogen_bond_acceptors>  (102) 
5

>  <hydrogen_bond_donors>  (102) 
0

>  <hydrogen_bond_acceptors_lipinski>  (102) 
5

>  <hydrogen_bond_donors_lipinski>  (102) 
0

>  <lipinski_rule_of_five_violations>  (102) 
0

>  <aromatic_rings_count>  (102) 
2

>  <qed_drug_likeliness>  (102) 
0.79

>  <formal_charge>  (102) 
0

>  <fractioncsp3>  (102) 
0.30

>  <number_of_minimal_rings>  (102) 
4

>  <van_der_walls_volume>  (102) 
nan

>  <contains_sugar>  (102) 
False

>  <contains_ring_sugars>  (102) 
False

>  <contains_linear_sugars>  (102) 
False

>  <murcko_framework>  (102) 
O1c2ccc(cc2OC1)C3Oc4ccccc4OC3

>  <np_likeness>  (102) 
1.40

>  <chemical_class>  (102) 
Benzodioxanes

>  <chemical_sub_class>  (102) 
Benzo-1,4-dioxanes

>  <chemical_super_class>  (102) 
Organoheterocyclic compounds

>  <direct_parent_classification>  (102) 
Benzo-1,4-dioxanes

>  <np_classifier_pathway>  (102) 
Shikimates and Phenylpropanoids

>  <np_classifier_superclass>  (102) 
Lignans

>  <np_classifier_class>  (102) 
Neolignans

>  <np_classifier_is_glycoside>  (102) 
False

>  <organisms>  (102) 
Licaria chrysophylla|Licaria rigida

>  <collections>  (102) 
Latin America dataset|NuBBEDB|Super Natural II|WikiData Natural Products|ZINC NP

>  <dois>  (102) 
10.1016/0031-9422(81)84071-X

>  <synonyms>  (102) 
CHEMBL4527813|Eusiderin B

>  <cas>  (102) 
nan

$$$$

     RDKit          2D

 33 36  0  0  0  0  0  0  0  0999 V2000
    1.9234   -1.1111    0.0000 O   0  0  0  0  0  0  0  0  0  0  0  0
    0.4347   -1.2949    0.0000 C   0  0  0  0  0  0  0  0  0  0  0  0
   -0.4689   -0.0976    0.0000 C   0  0  0  0  0  0  0  0  0  0  0  0
    0.1163    1.2836    0.0000 O   0  0  0  0  0  0  0  0  0  0  0  0
    1.6050    1.4674    0.0000 C   0  0  0  0  0  0  0  0  0  0  0  0
    2.5085    0.2701    0.0000 O   0  0  0  0  0  0  0  0  0  0  0  0
    3.9972    0.4539    0.0000 C   0  0  0  0  0  0  0  0  0  0  0  0
    4.9008   -0.7434    0.0000 C   0  0  0  0  0  0  0  0  0  0  0  0
    6.3895   -0.5596    0.0000 O   0  0  0  0  0  0  0  0  0  0  0  0
    4.5824    1.8351    0.0000 C   0  0  0  0  0  0  0  0  0  0  0  0
    6.0711    2.0189    0.0000 O   0  0  0  0  0  0  0  0  0  0  0  0
    3.6788    3.0324    0.0000 C   0  0  0  0  0  0  0  0  0  0  0  0
    4.2640    4.4136    0.0000 O   0  0  0  0  0  0  0  0  0  0  0  0
    2.1901    2.8486    0.0000 C   0  0  0  0  0  0  0  0  0  0  0  0
    1.2866    4.0459    0.0000 O   0  0  0  0  0  0  0  0  0  0  0  0
   -1.9575   -0.2814    0.0000 C   0  0  0  0  0  0  0  0  0  0  0  0
   -2.8611    0.9159    0.0000 C   0  0  0  0  0  0  0  0  0  0  0  0
   -2.2759    2.2971    0.0000 C   0  0  0  0  0  0  0  0  0  0  0  0
   -3.1795    3.4944    0.0000 C   0  0  0  0  0  0  0  0  0  0  0  0
   -4.6682    3.3106    0.0000 C   0  0  0  0  0  0  0  0  0  0  0  0
   -5.5717    4.5079    0.0000 O   0  0  0  0  0  0  0  0  0  0  0  0
   -5.2533    1.9294    0.0000 C   0  0  0  0  0  0  0  0  0  0  0  0
   -6.7420    1.7456    0.0000 O   0  0  0  0  0  0  0  0  0  0  0  0
   -4.3498    0.7321    0.0000 C   0  0  0  0  0  0  0  0  0  0  0  0
   -2.5427   -1.6626    0.0000 O   0  0  0  0  0  0  0  0  0  0  0  0
   -1.6391   -2.8599    0.0000 C   0  0  0  0  0  0  0  0  0  0  0  0
   -2.2243   -4.2410    0.0000 C   0  0  0  0  0  0  0  0  0  0  0  0
   -1.3207   -5.4384    0.0000 C   0  0  0  0  0  0  0  0  0  0  0  0
   -1.9059   -6.8195    0.0000 O   0  0  0  0  0  0  0  0  0  0  0  0
    0.1680   -5.2545    0.0000 C   0  0  0  0  0  0  0  0  0  0  0  0
    0.7531   -3.8734    0.0000 C   0  0  0  0  0  0  0  0  0  0  0  0
    2.2418   -3.6895    0.0000 O   0  0  0  0  0  0  0  0  0  0  0  0
   -0.1504   -2.6761    0.0000 C   0  0  0  0  0  0  0  0  0  0  0  0
  1  2  2  0
  2  3  1  0
  3  4  1  0
  5  4  1  1
  5  6  1  0
  6  7  1  0
  7  8  1  1
  8  9  1  0
  7 10  1  0
 10 11  1  6
 10 12  1  0
 12 13  1  1
 12 14  1  0
 14 15  1  6
  3 16  2  0
 16 17  1  0
 17 18  2  0
 18 19  1  0
 19 20  2  0
 20 21  1  0
 20 22  1  0
 22 23  1  0
 22 24  2  0
 16 25  1  0
 25 26  1  0
 26 27  2  0
 27 28  1  0
 28 29  1  0
 28 30  2  0
 30 31  1  0
 31 32  1  0
 31 33  2  0
 33  2  1  0
 14  5  1  0
 24 17  1  0
 33 26  1  0
M  END
>  <identifier>  (103) 
CNP0180599.2

>  <canonical_smiles>  (103) 
O=C1C(O[C@@H]2O[C@H](CO)[C@@H](O)[C@H](O)[C@H]2O)=C(C2=CC=C(O)C(O)=C2)OC2=CC(O)=CC(O)=C12

>  <standard_inchi>  (103) 
InChI=1S/C21H20O12/c22-6-13-15(27)17(29)18(30)21(32-13)33-20-16(28)14-11(26)4-8(23)5-12(14)31-19(20)7-1-2-9(24)10(25)3-7/h1-5,13,15,17-18,21-27,29-30H,6H2/t13-,15-,17+,18-,21+/m1/s1

>  <standard_inchi_key>  (103) 
OVSQVDMCBVZWGM-QSOFNFLRSA-N

>  <name>  (103) 
Isoquercetin

>  <iupac_name>  (103) 
2-(3,4-dihydroxyphenyl)-5,7-dihydroxy-3-[(2~{S},3~{R},4~{S},5~{S},6~{R})-3,4,5-trihydroxy-6-(hydroxymethyl)tetrahydropyran-2-yl]oxy-chromen-4-one

>  <annotation_level>  (103) 
5

>  <total_atom_count>  (103) 
53

>  <heavy_atom_count>  (103) 
33

>  <molecular_weight>  (103) 
464.38

>  <exact_molecular_weight>  (103) 
464.09548

>  <molecular_formula>  (103) 
C21H20O12

>  <alogp>  (103) 
-0.54

>  <topological_polar_surface_area>  (103) 
210.51

>  <rotatable_bond_count>  (103) 
4

>  <hydrogen_bond_acceptors>  (103) 
12

>  <hydrogen_bond_donors>  (103) 
8

>  <hydrogen_bond_acceptors_lipinski>  (103) 
12

>  <hydrogen_bond_donors_lipinski>  (103) 
8

>  <lipinski_rule_of_five_violations>  (103) 
2

>  <aromatic_rings_count>  (103) 
3

>  <qed_drug_likeliness>  (103) 
0.23

>  <formal_charge>  (103) 
0

>  <fractioncsp3>  (103) 
0.29

>  <number_of_minimal_rings>  (103) 
4

>  <van_der_walls_volume>  (103) 
372.27

>  <contains_sugar>  (103) 
True

>  <contains_ring_sugars>  (103) 
True

>  <contains_linear_sugars>  (103) 
False

>  <murcko_framework>  (103) 
O1c2ccccc2CC(OC3OCCCC3)=C1c4ccccc4

>  <np_likeness>  (103) 
2.16

>  <chemical_class>  (103) 
Flavonoids

>  <chemical_sub_class>  (103) 
Flavonoid glycosides

>  <chemical_super_class>  (103) 
Phenylpropanoids and polyketides

>  <direct_parent_classification>  (103) 
Flavonoid-3-O-glycosides

>  <np_classifier_pathway>  (103) 
Shikimates and Phenylpropanoids

>  <np_classifier_superclass>  (103) 
Flavonoids

>  <np_classifier_class>  (103) 
Flavonols

>  <np_classifier_is_glycoside>  (103) 
True

>  <organisms>  (103) 
Abacopteris penangiana|Abelmoschus manihot|Abies nephrolepis|Acacia adunca|Acacia armata|Acacia aulacocarpa|Acacia kempeana|Acacia sp.|Acaena magellanica|Acalypha australis|Acalypha indica|Acanthias vulgaris|Acanthopanax gracilistylus|Acanthopanax sessiliflorum|Acanthospermum glabratum|Acanthus Ilicifolius|Acer barbinerve|Acer mandshuricum|Achillea clypeolata|Achillea pseudopectinata|Acnistus breviflorus|Aconitum kamtschaticum|Aconitum seravschanicum|Aconitum tasiromontanum|Aconitum vilmorinianum|Aconitum violaceum|Acrostichum aureum|Actinidia chinensis var. deliciosa|Actinidia chinensis var. hispida|Actinidia deliciosa|Actinidia kolomikta|Adansonia grandidieri|Adenocarpus foliolosus|Adenocaulon himalaicum|Adenothamnus validus|Adiantum lunulatum|Adiantum sp.|Adonis sutchuenensis|Aegopodium sp.|Aesculus chinensis|Aesculus sp.|Aframomum sulcatum|Aganosma heynei|Agaricus hortensis|Agarista salicifolia|Agelas linnaei|Ageratina saltillensis|Aglaia australiensis|Aglaia tsangii|Agrimonia eupatoria|Agrimonia pilosa|Ailanthus sp.|Ajuga integrifolia|Alangium chinense|Alangium platanifolium|Alangium platanifolium var. trilobum|Albizia inundata|Alhagi persarum|Alkanna cappadocica|Alkanna orientalis|Alkanna sp.|Allagopappus viscosissimus|Allium cepa|Allium myrianthum|Allium neapolitanum|Allium rosenorum|Allium sp.|Allium victorialis|Alstonia spathulata|Alternaria japonica|Amaranthus hypochondriacus|Amaranthus viridis|Amathia pinnata|Ambrosia tenuifolia|Ammoides pusilla|Amomum longiligulare|Amomum villosum|Amomum xanthioides|Amphilophis odorata|Amsinckia tessellata|Amyris marshii|Anacystis montana|Anaphalis sinica|Anaxagorea dolichocarpa|Anchusa azurea|Anchusa sp.|Ancistrocladus abbreviatus|Andrographis paniculata|Anemone flaccida|Angelica gmelinii|Angelica pubescens|Angelica sp.|Angelica tenuisecta var. furcijuga|Anigozanthos pulcherrimus|Anigozanthos rufus|Annona cornifolia|Anolis lineatopus|Anthelia juratzkana|Anthemis altissima|Anthemis cairica|Anthocleista procera|Anthopleura xanthogrammica|Anthoxanthum nitens|Anthyllis onobrychoides|Antillogorgia elisabethae|Aphyllocladus denticulatus|Apium sp.|Apocynum cannabinum|Apocynum venetum|Arabidopsis thaliana|Arca noae|Arctium sp.|Arctostaphylos sp.|Ardisia Colorata|Ardisia complanata|Ardisia neriifolia|Ardisia sanguinolenta|Argemone platyceras|Argemone polyanthemos|Arnica longifolia|Arnica sp.|Arnica viscosa|Aronia melanocarpa|Artemisia Annua|Artemisia annua|Artemisia annua L.|Artemisia apiacea|Artemisia argyi|Artemisia armeniaca|Artemisia assoana|Artemisia capillaris|Artemisia dentata|Artemisia gmelinii|Artemisia iwayomogi|Artemisia lactiflora|Artemisia lerchiana|Artemisia montana|Artemisia princeps|Arthrobacter glacialis|Arum alpinum|Aruncus dioicus|Asarum heterotropoides|Asarum sp.|Ascidia ahodori|Asclepias sp.|Aspalathus linearis|Aspalathus sp.|Asparagus officinalis|Asparagus sp.|Aspergillus falconensis|Aspergillus mutabilis|Aspergillus wentii|Aspidosperma subincanum|Asplenium sp.|Aster koraiensis|Aster oharai|Aster sedifolius|Asterias glacialis|Asterospicularia laurae|Astilbe myriantha|Astragalus arguricus|Astragalus asper|Astragalus bungeanus|Astragalus captiosus|Astragalus cicer|Astragalus ciceroides|Astragalus circassicus|Astragalus complanatus|Astragalus dissectus|Astragalus ernestii|Astragalus goktschaicus|Astragalus interpositus|Astragalus lagopoides|Astragalus laguroides|Astragalus lagurus|Astragalus membranaceus|Astragalus mongholicus|Astragalus muelleri|Astragalus onobrychis|Astragalus pycnanthus|Astragalus saganlugensis|Astragalus sempervirens|Astragalus sevangensis|Astragalus spinosus|Astragalus varius|Astrantia sp.|Atalantia racemosa|Athanasia crithmifolia|Atractylodes macrocephala|Atraphaxis frutescens|Atta cephalotes|Attalea excelsa|Atuna racemosa|Aucuba chinensis|Aurelia aurita|Austrocedrus chilensis|Azadirachta indica|Baccharis angustifolia|Baccharis dracunculifolia|Baccharis ochracea|Baccharis rosmarinifolia|Baccharis sagittalis|Baccharis thesioides|Badilloa salicina|Baillonella toxisperma|Baptisia sp.|Barleria buxifolia|Bassia muricata|Bauhinia glauca|Benzoin praecox|Berberis floribunda|Berberis julianae|Berberis repens|Berberis vulgaris|Berlandiera pumila|Berlinia tomentosa|Berneuxia thibetica|Betula alnoides|Betula exilis|Bidens bipinnata|Bishovia boliviensis|Bistorta vivipara|Blastochloris viridis|Bleekeria vitiensis|Bonamia spectabilis|Bongardia chrysogonum|Bonnetia dinizii|Borago officinalis|Boronella koniambiensis|Botryosphaeria berengeriana|Botryotrichum piluliferum|Brachyspira hyodysenteriae|Brassica oleracea var. sabauda|Breea segeta|Brevibacillus laterosporus|Briareum asbestinum|Brickellia cylindracea|Brickellia vernicosa|Bridelia ferruginea|Bridelia sp.|Buddleja cordata|Bunodosoma caissarum|Buphane fischeri|Buphthalmum salicifolium|Bupleurum chinense|Bupleurum sp.|Burkholderia pyrrocinia|Byrsonima crassifolia|Byssothecium obiones|Bystropogon origanifolius|Caenorhabditis elegans|Caesalpinia pulcherrima|Calendula Officinalis|Calendula officinalis|Calendula sp.|Callitris drummondii|Calocephalus citreus|Calostephane divaricata|Calycanthus chinensis|Camellia Sinensis|Camellia sinensis|Campanula barbata|Campanula kemulariae|Campanula kolenatiana|Campanula persicifolia|Campanula raddeana|Camptotheca acuminata|Canarium album|Canarium strictum|Capnoides sempervirens|Capparis spinosa|Capuronianthus mahafalensis|Caragana alaica|Caragana arborescens|Caragana aurantiaca|Cardamine pinnata|Cardiospermum hirsutum|Carica dodecaphylla|Carthamus lanatus|Carthamus tinctorius|Carum sp.|Castanea sp.|Castanopsis cuspidata|Castanopsis fissa|Casuarina Equisetifolia|Casuarina sp.|Catalpa ovata|Catunaregam spinosa|Caulerpa serrulata|Caulocystis cephalornithos|Cedrela fissilis|Cedronella canariensis|Celosia argentea|Centaurea aspera|Centaurea cana|Centaurea horrida|Centaurea huber-morathii|Centaurea jacea|Centaurea sinaica|Centella asiatica|Cephalotaxus harringtonii var. harringtonii|Ceramium rubrum|Ceratosoma brevicaudatum|Cerbera dilatata|Cereus dumortieri|Cereus polyrhizus|Ceroplastes albolineatus|Chaenomeles sinensis|Chaetomium cochliodes|Cheiropteris palmatopedata|Chelidonium majus|Cheniella glauca|Chenopodium album|Chenopodium murale|Chenopodium sp.|Chisocheton ceramicus|Chromodoris inornata|Chromolaena arnottiana|Chrysanthemum indicum|Chrysanthemum x morifolium|Chrysophyllum cainito|Cichorium sp.|Cicuta sp.|Cinnamomum philippinense|Cirsium setosum|Cissus discolor|Cissus sicyoides|Cistus creticus|Cistus ladanifer|Citrus hassaku|Citrus rugulosa|Citrus tangerina|Cladogynos orientalis|Cladophora laetevirens|Cleome pungens|Clerodendron cyrtophyllum|Clethra macrophylla|Clitoria Ternatea|Clitoria ternatea|Clusia ellipticifolia|Cneorum pulverulentum|Codonocarpus australis|Codonopsis pilosula|Coelogorgia palmosa|Coleogyne ramosissima|Commelina Communis|Commelina communis|Commiphora abyssinica|Conus marmoreus|Conus parius|Conus tribblei|Conyza dioscoridis|Conyza filaginoides|Corchorus olitorius|Corchorus sp.|Cordyline neocaledonica|Coreopsis grandiflora|Coriandrum sp.|Cornus mas|Cornus officinalis|Cornus sp.|Corticium simplex|Corydalis ochotensis|Cosmos sulphureus|Cotoneaster orbicularis|Cotyledon secunda|Coutarea latifolia|Craibiodendron yunnanense|Crambe tatarica|Crassocephalum crepidioides|Crataegus pinnatifida|Crateva nurvala|Crepidiastrum sonchifolium|Cressa cretica|Crocus minimus|Crocus sativus|Crotalaria lachnophora|Crotalaria medicaginea|Crotalaria novae-hollandiae|Croton laccifer|Cryptocarya aschersoniana|Cryptocarya lividula|Cryptocarya moschata|Cryptomonas ovata|Cucumis Sativus|Cucurbita maxima|Cucurbita moschata|Cucurbita sp.|Cunonia macrophylla|Curculigo pilosa|Cuscuta chinensis|Cyberlindnera jadinii|Cycas armstrongii|Cycas revoluta|Cyclamen persicum|Cydonia sp.|Cymodocea nodosa|Cynometra lujae|Cystoseira crinita|Cystoseira fimbriata|Cytisus scoparius|Cytisus sp.|Cytophaga hutchinsoni|Daemonorops draco|Dalbergia sissoo|Daphne sp.|Daphniphyllum angustifolium|Dasystenella acanthina|Decaisnea fargesii|Delphinium shawurense|Dendrilla cavernosa|Dendriopoterium menendezii|Dendroaspis angusticeps|Dendrobates azureus|Dendrobium crepidatum|Dendrobium thyrsiflorum|Dendroctonus ponderosae|Dendrodoris krebsii|Descurainia sophia|Desmodium styracifolium|Diaphus suborbitalis|Dicranopteris Linearis|Dicranopteris linearis|Dictamnus albus|Dictamnus dasycarpus|Dictamnus sp.|Dictyopteris australis|Dictyota bartayresiana|Didemnum chartaceum|Dimerostemma brasilianum|Dinophysis fortii|Dionaea sp.|Dioscorea bulbifera|Diospyros Kaki|Diospyros buxifolia|Diospyros cathayensis|Diospyros eriantha|Diospyros kaki|Diospyros verrucosa|Diphasiastrum thyoides|Diplacus longiflorus|Diplotaxis acris|Dipsacus asper|Dipteronia dyeriana|Diptychocarpus strictus|Dodonaea polyandra|Dodonaea viscosa|Dolichothele uberiformis|Dorycnium suffruticosum|Draba nemorosa|Dracocephalum ruyschiana|Drechslera avenae|Dryopteris sacrosancta|Duguetia calycina|Dumoria heckeli|Dumortiera hirsuta|Dunalia solanacea|Dysidea amblia|Dysoxylum cumingianum|Dysphania botrys|Echium pininana|Ectropis bicolor|Elaeodendron paniculatum|Eleusine indica|Elizabethkingia meningoseptica|Elsholtzia Rugulosa|Elsholtzia cristata|Empetrum nigrum|Enceliopsis argophylla|Entada rheedei|Ephedra aphylla|Ephydatia syriaca|Epichloe festucae var. lolii|Epilobium sp.|Epimedium brevicornu|Epimedium brevicornum|Epimedium grandiflorum|Epimedium koreanum|Epimedium pubescens|Epimedium sagittatum|Epimedium sempervirens|Epimedium wushanense|Epirrhoe sperryi|Equisetum Arvense|Equisetum arvense|Equisetum sp.|Eragrostis curvula|Eria alba|Eria floribunda|Eria mollis|Erica cinerea|Erica sp.|Erinaceus europaeus|Eriobotrya Japonica|Eriobotrya japonica|Eriocapitella tomentosa|Eriocheir sinensis|Eriostemon spicatus|Eriostemon tomentellus|Erodium arborescens|Erodium chium|Erodium cicutarium|Erodium crassifolium|Erodium glaucophyllum|Erodium laciniatum|Erodium malacoides|Erodium moschatum|Erodium neuradifolium|Erodium oxyrrhynchum|Erodium stephanianum|Erodium tunetanum|Erylus trisphaerus|Eryngium sp.|Erythrospermum zeylanicum|Erythroxylum passerinum|Esenbeckia hartmanii|Esox saurus|Eucalyptus dalrympleana|Eucalyptus maideni|Eucalyptus melliodora|Eucalyptus rostrata|Eucalyptus sideroxylon|Eucalyptus sp.|Eucalyptus staigeriana|Eucalyptus viminalis|Eucommia Ulmoides|Eucommia ulmoides|Euonymus nanoides|Eupatorium areolare|Eupatorium argentinum|Eupatorium petiolare|Euphorbia ebracteolata|Euphorbia helioscopia|Euphorbia humifusa|Euphorbia myrsinites|Euphorbia pannonica|Euphorbia pekinensis|Euphorbia retusa|Euphorbia sp.|Euphorbia sulcata|Euphorbia watanabei|Euphoria longan|Euphrasia sp.|Euplotes raikovi|Euscaphis japonica|Eutreptia viridis|Evolvulus alsinoides|Excoecaria acerifolia|Excoecaria agallocha|Fadogia ancylantha|Fagonia indica|Fagonia paulayana|Fagopyrum tataricum|Fagraea gracilipes|Fagus sp.|Fallopia multiflora|Fallopia multiflora var. ciliinervis|Fallopia sp.|Felimida luteorosea|Ficus alba|Ficus auriculata|Ficus pandurata|Ficus ruficaulis|Flacourtia jangomas|Foeniculum sp.|Foeniculum vulgare|Fomes robiniae|Forsythia suspensa|Forsythia viridissima|Fragaria|Fragaria x ananassa|Fraxinus ornus|Fritillaria meleagris|Fritillaria ningguoensis|Fritillaria stenanthera|Fructus mori|Fumaria micrantha|Fumaria sp.|Fusarium avenaceum|Fusarium sacchari|Fusarium sambucinum|Gadus morhua callarias|Galium sp.|Garcinia macrophylla|Garcinia pyrifera|Garcinia xipshuanbannaensis|Gardenia jasminoides|Gardenia turgida|Garrya elliptica|Garrya laurifolia|Genista pichisermolliana|Genista tricuspidata|Genista tridentata|Geranium carolinianum|Geranium dissectum|Geranium saxatile|Geranium sp.|Geranium thunbergii|Geranium tuberosum|Geranium wilfordii|Gerbera ambigua|Ginkgo biloba|Ginkgo sp.|Gladiolus italicus|Glebionis coronaria|Glebionis coronarium|Glechoma sp.|Gleditsia caspica|Glehnia Littoralis|Glehnia littoralis|Glinus lotoides|Gloiopeltis furcata|Glycosmis ovoidea|Glycyrrhiza Uralensis|Glycyrrhiza glabra|Glycyrrhiza inflata|Glycyrrhiza sp.|Glycyrrhiza uralensis|Gnaphalium oligandrum|Gnetum latifolium|Goniothalamus giganteus|Goniothalamus malayanus|Gossypium Barbadense|Gossypium hirsutum|Gossypium sp.|Gouania microcarpa|Goupia glabra|Gracilaria textorii|Graphis cognata|Grataegus pinnatifida|Greenwayodendron oliveri|Grewia villosa|Grona styracifolia|Guatteria boliviana|Gutierrezia lucida|Gymnanthemum amygdalinum|Gymnothorax javanicus|Habenaria petalodes|Habropetalum dawei|Haematoxylum campechianum|Haliclona nigra|Halocnemum strobilaceum|Halostachys belangeriana|Halostachys caspica|Haloxylon persicum|Hamamelis sp.|Haplophyllum ramosissimum|Hedera sp.|Hedysarum connatum|Heimia salicifolia|Helianthus sp.|Helichrysum arenarium|Helichrysum graveolens|Helichrysum mixtum|Helichrysum stoechas|Helicteres angustifolia|Heliotropium amplexicaule|Helipterum gnaphaloides|Helipterum roseum|Hemerocallis fulva|Hepatica sp.|Herba sedi sarmentosi|Heterophyllaea pustulata|Heterotheca|Heterotheca sp.|Hibiscus Mutabilis|Hibiscus sabdariffa|Hippeastrum papilio|Hippophae rhamnoides|Hoffmannia strigillosa|Holboellia fargesi|Holomelina lamae|Houttuynia Cordata|Houttuynia cordata|Humata pectinata|Humulus lupulus|Humulus sp.|Hydrangea serrata|Hygrophorus chrysodon|Hylocereus ocamponis|Hymenaea courbaril|Hymenothrix wislizenii|Hypericum Ascyron|Hypericum Sampsonii|Hypericum japonicum|Hypericum laricifolium|Hypericum perforatum|Hypericum richeri|Hypericum sampsonii|Hypericum sikokumontanum|Hypericum sp.|Hypericum thasium|Hypolepis punctata|Hypoxis multiceps|Hyptis brevipes|Iberis amara|Ichthyothere terminalis|Ilex dunniana|Ilex hainanensis|Ilex sp.|Illicium sp.|Impatiens balsamina|Inula sp.|Iochroma gesnerioides|Iphiona scabra|Ipomoea digitata|Ipomoea reptans|Ipomopsis polycladon|Ips confusus|Ips paraconfusus|Ips pini|Ircinia dendroides|Ircinia ramosa|Iris florentina|Iryanthera paraensis|Isaria fumosorosea|Isatis tinctoria|Isophysis tasmanica|Ixeris chinensis|Ixeris denticulata|Ixeris tamagawaensis|Iyengaria stellata|Jaborosa kurtzii|Jacaranda chelonia|Jacobaea subalpina|Jamesoniella colorata|Jasminum grandiflorum|Juglans sp.|Juniperus brevifolia|Juniperus rigida var. conferta|Juniperus sp.|Juniperus utahensis|Justicia secunda|Kali turgidum|Kandelia candel|Khaya senegalensis|Kitaibelia vitifolia|Klebsiella pneumoniae|Knautia montana|Koompassia malaccensis|Kopsia teoi|Krameria lappacea|Krascheninnikovia ceratoides|Laburnum watereri|Laccaria vinaceoavellanea|Lactobacillus casei|Lactuca indica|Lactuca sp.|Laennecia filaginoides|Laetiporus versisporus|Laggera alata|Lamium album|Lamium sp.|Larix sibirica|Larrea sp.|Lathyrus nissolia|Laurencia spectabilis|Laurus|Laurus sp.|Lavandula vera|Lawsonia inermis|Leathesia nana|Lemaireocereus griseus|Lemna trisulca|Lens culinaris|Lentinus tigrinus|Lenzites betulinus|Leonurus heterophyllus|Leonurus japonicus|Leonurus persicus|Leonurus sp.|Lepidium apetalum|Lepidosperma ustulatum|Lepisorus contortus|Lepisorus thunbergianus|Lepisorus ussuriensis|Lespedeza bicolor|Leucopaxillus giganteus|Licania cariae|Licania pittieri|Licaria armeniaca|Limnocharis flava|Liparis loeselii|Liquidambar sp.|Liriodendron sp.|Litchi chinensis|Lithothamnion corallioides|Litsea guatemalensis|Lonchocarpus laxiflorus|Lonicera confusa|Lonicera confuse|Lonicera dasystyla|Lonicera fulvotomentosa|Lonicera hypoglauca|Lonicera japonica|Lonicera macranthoides|Lotus corniculatus|Lotus ucrainicus|Lunularia cruciata|Lycium sp.|Lycopodium flabelliforme|Lycopus europaeus|Lycopus sp.|Lysiana subfalcata|Lysimachia christinae|Lysimachia mauritiana|Macadamia ternifolia|Macaranga peltata|Macaranga tanarius|Machilus japonica|Macrothele gigas|Magnolia pterocarpa|Magnolia sieboldii|Mahonia simonsii|Malus domestica|Malus pumila|Malus sieversii|Malus sp.|Mammillaria magnimamma|Mantella aurantiaca|Marcetella moquiniana|Marrubium anisodon|Matricaria matricarioides|Mayaca fluviatilis|Maytenus buxifolia|Maytenus loeseneri|Maytenus serrata|Meadow vetchling|Meconopsis quintuplinervia|Medinilla magnifica|Meiogyne virgata|Melia azedarach|Melia azedarach var. toosendan|Melia indica|Melilotus sulcatus|Melissa sp.|Melochia corchorifolia|Menegazzia asahinae|Menyanthes sp.|Mesua ferrea|Metanarthecium luteoviride|Metasequoia glyptostroboides|Metatrichia vesparium|Meum sp.|Micarea austroternaria|Miconia cabucu|Microbispora rosea subsp. aerata|Microciona eurypa|Microglossa pyrrhopappa|Microlepia speluncae|Mikania mendocina|Mikania parodii|Miliusa sinensis|Miliusa velutina|Millettia erythrocalyx|Millettia ferruginea|Mitracarpus scaber|Mitragyna speciosa|Mitrephora diversifolia|Mollinedia costaricensis|Monanchora pulchra|Monnieria trifolia|Monochaetum multiflorum|Monodora brevipes|Monomorium floricola|Monopteryx uaucu|Montanoa guatemalensis|Moquilea cariae|Morinda citrifolia|Moringa oleifera|Mortierella elongata|Morus Alba|Morus alba|Morus bombycis|Morus insignis|Morus nigra|Morus sp.|Mucor hiemalis|Munronia delavayi|Murraya kwangsiensis|Mycobacterium avium subsp. paratuberculosis|Mycobacterium leprae|Mycobacterium tuberculosis|Myrsine africana|Narcissus asturiensis|Nassauvia cumingii|Nasutitermes ephratae|Naucleopsis ternstroemiiflora|Navanax inermis|Negombata magnifica|Nelumbo Nucifera|Nelumbo nucifera|Neobalanocarpus heimii|Neolentinus lepideus|Neonectria candida|Nostoc spongiaeforme|Nymphaea ampla|Nymphaea maculata|Nymphaea nouchali var. caerulea|Nymphaea odorata|Ochna obtusata|Ocotea minarum|Odontites rubra|Oenothera sp.|Ongokea klaineana|Onobrychis arenaria|Onobrychis bobrovii|Onobrychis cyri|Ononis pubescens|Ononis vaginalis|Onopordum alexandrinum|Onychium contiguum C.Hope (1901)|Onychium lucidum|Oophaga histrionica|Ophioparma ventosa|Ophiorrhiza blumeana|Ophryosporus floribundus|Orchis sp.|Oreoherzogia fallax|Ormosia balansae|Orostachys fimbriata|Orostachys japonicus|Osteospermum muricatum|Ostryopsis davidiana|Osyris abyssinica|Oxalis purpurea|Oxytropis racemosa|Paliurus spina-christi|Panax ginseng|Panopsis rubescens|Panorpa japonica|Papaver persicum|Papaver sp.|Papaver tatricum|Papuacedrus papuana|Parablechnum minus|Paradendryphiella salina|Paralemnalia clavata|Parmelia subrudecta|Pastinaca sativa|Payena lucida|Pedicularis longiflora|Pedicularis procera|Pedilanthus Tithymaloides|Pelargonium graveolens|Pelargonium reniforme|Peltogyne porphyrocardia|Peltogyne pubescens|Peltostigma guatemalense|Penstemon gentianoides|Peperomia proctorii|Peperomia vulcanica|Periploca calophylla|Periploca sepium|Peritassa compta|Perovskia abrotanoides|Persicaria amphibia|Persicaria decipiens|Persicaria lapathifolia|Persicaria salicifolia|Persicaria sp.|Persicaria tinctoria|Pestalotiopsis heterocornis|Petasites japonicus|Petasites sp.|Petteria ramentacea|Peucedanum japonicum|Peucedanum palustre|Peyssonnelia caulifera|Phaeolus schweinitzii|Phalaenopsis aphrodite|Phalaenopsis schilleriana|Phalaris canariensis|Phaseolus vulgaris|Phedimus stoloniferus|Phellodendron Amurense|Phellodendron amurense|Phellodendron amurense var. wilsonii|Phellodendron chinense var. glabriusculum|Philadelphus coronarius|Phlomis spinidens|Phlomoides hamosa|Phoebe pittieri|Phoenix canariensis|Phyfnnvik eyyfn|Phyllanthus Emblica|Phyllanthus amarus|Phyllanthus emblica|Phyllanthus sp.|Physalis alkekengi|Physalis edulis|Physalis solanaceus|Phytolacca sp.|Picea abies|Picris conyzoides|Picrorhiza kurrooa|Pilularia globulifera|Pilularia minuta|Pimpinella sp.|Pinus brutia var. eldarica|Pinus radiata|Pinus sp.|Piper taboganum|Piptocarpha oblonga|Planchonella obovata|Planchonia careya|Plantago lundborgii|Platanus sp.|Platycarya strobilacea|Plectocephalus chilensis|Plectranthus mollis|Plenodomus tracheiphilus|Pleogyne cunninghami|Pleogyne cunninghamii|Pleurotus japonicus|Plexaurella nutans|Plinia cauliflora|Pluchea dioscoridis|Pluchea lanceolata|Plumbagella micrantha|Poacynum venetum|Podocarpus fasciculus|Podocarpus salignus|Podolepis longipedata|Podospora curvicolla|Polyalthia barnesii|Polyalthia longifolia|Polygala amara|Polygala reinii|Polygonatum glaberrimum|Polygonatum orientale|Polygonatum stenophyllum|Polygonum Cuspidatum|Polygonum Persicaria|Polygonum aviculare|Polygonum cuspidatum|Polygonum salicifolium|Polymnia uvedalia|Polyporus dryadeus|Polyporus pargamenus|Populus alba|Populus balsamifera|Populus candicans|Populus ussuriensis|Potamilla occelata|Potentilla discolor|Premna odorata|Premna tomentosa|Primula sp.|Prorocentrum micans|Prosopis ruscifolia|Prumnopitys ferruginoides|Prunella vulgaris|Prunus armeniaca|Prunus cerasus|Prunus domestica|Prunus dulcis|Prunus mume|Prunus persica|Prunus persica var. nucipersica|Prunus salicina|Pseudaegle trifoliata|Pseudallescheria boydii|Pseudeurotium zonatum|Pseudoalteromonas luteoviolacea|Pseudoceratina arabica|Pseudocyphellaria faveolata|Psiadia dentata|Psidium guajava|Psoroma pallidum|Psychotria bahiensis|Psychotria st|Psychotria stachyoides|Ptarmica ptarmicifolia|Pteridium Aquilinum|Pteridium aquilinum|Pteris fauriei|Pteris linearis|Pteris pacifica|Pteris semipinnata|Pterodon emarginatus|Pterogyne nitens|Pulicaria arabica|Pulsatilla campanella|Punica sp.|Pyrola decorata|Pyrola elliptica|Pyrola japonica|Pyrrosia Lingua|Pyrrosia lingua|Pyrus communis|Quercus ilex|Quercus petraea|Quercus serrata|Quercus sp.|Quercus suber|Ranunculus peltatus|Rapanea lancifolia|Ratibida mexicana|Rattus rattus|Raukaua simplex|Rauvolfia vomitoria|Retama duriaei|Rhamnus sp.|Rhaphiolepis loquata|Rheedia acuminata|Rheum sp.|Rhinella arenarum|Rhodiola coccinea|Rhododendron decorum|Rhododendron ellipticum|Rhododendron latoucheae|Rhododendron luteum|Rhododendron moulmainense|Rhododendron spinuliferum|Rhodomicrobium vannielii|Rhus sp.|Ribes nigrum|Ribes rubrum|Ribes sp.|Ricinus sp.|Ripariosida hermaphrodita|Rivina humilis|Rivularia firma|Roboastra tigris|Roccella fucoides|Rodgersia podophylla|Rosa chinensis|Rosa gallica|Rosa rugosa|Rosa sp.|Rosa × damascena|Rostellularia procumbens|Rosulabryum capillare|Rubia schumanniana|Rubus|Rubus adenotrichos|Rubus adenotrichus|Rubus chamaemorus|Rubus glaucus|Rubus idaeus|Rubus koehneanus|Rubus lambertianus|Rubus loganobaccus|Rubus rigidus|Rubus rosa|Rudbeckia fulgida|Rumex maritimus|Rusavskia elegans|Ruscus sp.|Sabal causiarum|Sabina sargentii|Saccharopolyspora spinosa|Sagittaria sagittifolia|Salix pantosericea|Salmonella enterica subsp. enterica serovar muenster|Salsola collina|Salta triflora|Salvia blepharophylla|Salvia hispanica|Salvia miltiorrhiza|Salvia polystachya|Salvia syriaca|Samadera indica|Sambucus nigra|Sambucus sp.|Sanguisorba officinalis|Sanguisorba sp.|Sanicula sp.|Sapium haematospermum|Sapium sebiferum|Sapium sp.|Sargassum hemiphyllum|Saururus Chinensis|Saururus chinensis|Saussurea amara|Saussurea involucrata|Saussurea medusa|Saxifraga stolonifera|Scandosorbus intermedia|Scarlet firethorn|Schinus molle|Schisandra chinensis|Schistostephium rotundifolium|Schizonepeta multifida|Schotia brachypetala|Scilla dracomontana|Sclerocarya birrea|Scorzonera pseudodivaricata|Scutellaria amoena|Scutellaria orientalis|Securidaca diversifolia|Sedum acre|Sedum litoreum|Sedum sarmentosum|Senecio ambraceus|Senecio cathcartensis|Senecio hoggariensis|Senecio scandens|Senecio sp.|Senecio subdentatus|Senecio variabilis|Senecio viravira|Senecio viscosus|Septoria pistaciarum|Sequoia sempervirens|Serenoa repens|Serenoa sp.|Serratula wolffii|Sia ferox|Sibiraea angustata|Sida hermaphrodita|Sidastrum burrerense|Sideritis arborescens|Sideritis euboea|Sideritis hirsuta|Sideritis syriaca|Silphium perfoliatum|Sindora wallichii|Sinocrassula indica|Sinopodophyllum hexandrum|Sinularia depressa|Siphocampylus verticillatus|Sisyrinchium californicum|Smilax glyciphylla|Solanum Tuberosum|Solanum giganteum|Solanum incanum|Solanum laxum|Solanum olgae|Solanum pseudoquina|Solenostemma argel|Solenostemma oleifolium|Solidago altissima|Solidago sp.|Sonchus erzincanicus|Sophora Japonica|Sophora japonica|Sophora lehmanni|Sophora lehmannii|Sophora tometosa|Sorbus aucuparia|Sorbus intermedia|Sorbus tianschanica|Spathodea campanulata|Sphaerella laricina|Spiraea canescens|Spiraea formosa|Stachys palustris|Stachyurus himalaicus|Staphylea japonica|Stellaria media|Stemphylium radicinum|Stephania elegans|Stephania sutchuenensis|Stereospermum cylindricum|Stevia paniculata|Stevia sp.|Stigma croci|Stigmatella erecta|Stilpnopappus pickelii|Streptomyces avermectinius|Streptomyces chryseus|Streptomyces ehimensis|Streptomyces fervens|Streptomyces fumanus|Streptomyces griseochromogenes|Streptomyces lavendofoliae|Streptomyces lavendulae|Streptomyces libani|Streptomyces odorifer|Streptomyces setonensis|Streptomyces yokosukanensis|Striga lutea|Strombus gigas|Strychnos guianensis|Styphnolobium japonicum|Suillus bovinus|Sutherlandia frutescens|Swertia decussata|Swertia franchetiana|Swertia japonica|Swertia swertopsis|Symphyocladia latiuscula|Syncarpia hillii|Syzygium nervosum|Syzygium sp.|Tabebuia argentea|Tabebuia aurea|Tabebuia sp.|Tachigali paniculata|Tachigalia paniculata|Talaromyces coalescens|Tamarix aphylla|Tanacetum parthenifolium|Taraxacum borealisinense|Taraxacum coreanum|Taraxacum mongolicum|Taraxacum officinale|Taraxacum platycarpum|Taxus brevifolia|Tephrosia toxicaria|Tephrosia vogelii|Tethya amamensis|Tetraena mongolica|Tetragonia tetragonioides|Tetraneuris acaulis|Teucrium asiaticum|Teucrium heterophyllum|Teucrium lanigerum|Teucrium yemense|Thalictrum foetidum|Theobroma Cacao|Thermopsis dolichocarpa|Thorecta marginalis|Thymus quinquecostatus|Thymus vulgaris|Tilia miqueliana|Tilia sp.|Tilia tomentosa|Tipuana tipu|Toddalia floribunda|Toricellia angulata|Torminalis glaberrima|Trachelospermum asiaticum|Trachelospermum jasminoides|Tribulus pentandrus|Tribulus terrestris|Trichilia hirta|Trichoderma koningi|Trifolium aureum|Trifolium echinatum|Trifolium montanum|Trifolium strepens|Trigonella sp.|Tripteris vaillantii|Trogoderma granarium|Tsuga chinensis|Tulipa gesneriana|Turbo argyrostoma|Tussilago farfara|Typha domingensis|Ulmus pumila|Ulva conglobata|Ulva lactuca|Umbilicus rupestris|Uncaria sinensis|Unonopsis glaucopetala|Urena lobata|Urginea sp.|Urtica sp.|Usnea florida|Usnea undulata|Utricularia australis|Uvaria kirkii|Vaccinium corymbosum|Vaccinium hirtum var. koreanum|Vaccinium macrocarpon|Vaccinium myrtillus|Vaccinium oxycoccos|Vaccinium sp.|Vaccinium vitis-idaea|Vahlia capensis|Vauquelinia corymbosa|Vepris pilosa|Veratrum dahuricum|Veratrum stenophyllum|Vernonia arborea|Vernonia steetziana|Veronica chamaedrys|Vibrio fluvialis|Viburnum chingii|Viburnum dilatatum|Viburnum tinus|Vicia amurensis|Vicia subvillosa|Vidalia volubilis|Vigna radiata var. radiata|Viguiera incana|Viguiera procumbens|Vincetoxicum sp.|Virgilia divaricata|Vitex agnus-castus|Vitex quinata|Vitis Vinifera|Vitis aestivalis|Vitis cinerea|Vitis riparia|Vitis rotundifolia|Vitis sp.|Vitis vinifera|Vitis vulpina|Waldsteinia fragarioides|Walsura piscidia|Warburgia stuhlmannii|Wikstroemia canescens|Wikstroemia retusa|Wikstroemia sp.|Woodfordia uniflora|Wulfenia orientalis|Wyethia mollis|Xanthoceras sorbifolia Bunge|Xanthosoma violaceum|Xenoacremonium recifei|Xylonagra arborea|Yucca recurvifolia|Zanthoxylum chiriquinum|Zanthoxylum fraxineum|Zanthoxylum sp.|Zanthoxylum tetraspermum|Zieria smithii|Zinnia Elegans|Ziziphus jujuba|[enterobacter] aerogenes|borage|broccoli|byrsonima coccolobifolia|dracocephalum ruyschiana|liquorice|moringa|peanut|smilax glyciphylla|sweet potato

>  <collections>  (103) 
ANPDB|AfroCancer|AnalytiCon Discovery NPs|Australian natural products|BIOFACQUIM|CMAUP (cCollective molecular activities of useful plants)|ChEBI NPs|ChemSpider NPs|ConMedNP|DrugBankNP|ETM (Ethiopian Traditional Medicine) DB|FooDB|GNPS (Global Natural Products Social Molecular Networking)|Latin America dataset|Mitishamba database|NANPDB (Natural Products from Northern African Sources)|NPASS|NuBBEDB|Phenol-explorer|Phyto4Health|PhytoLab phyproof® Reference Substances|SANCDB|Super Natural II|TCMDB-Taiwan (Traditional Chinese Medicine database)|VietHerb|WikiData Natural Products

>  <dois>  (103) 
10.1002/(SICI)1097-0010(199808)77:4<468::AID-JSFA66>3.0.CO;2-B|10.1002/ARDP.19893220211|10.1002/ARDP.2503240811|10.1002/BMC.1040|10.1002/CBDV.201000279|10.1002/CBDV.201000284|10.1002/CBDV.201000373|10.1002/HLCA.200800346|10.1002/HLCA.200890199|10.1002/HLCA.200900230|10.1002/HLCA.200900264|10.1002/HLCA.201000385|10.1002/J.1537-2197.1987.TB12148.X|10.1002/JCCS.199700075|10.1002/JCCS.200000029|10.1002/JCCS.200400063|10.1002/JCCS.200700015|10.1002/JCCS.201190020|10.1002/JSFA.1885|10.1002/MNFR.200400064|10.1002/MNFR.200500064|10.1002/MRC.2516|10.1002/PTR.1834|10.1002/PTR.2403|10.1002/PTR.2529|10.1002/ptr.1834/abstract|10.1007/0-387-28822-8_5|10.1007/BF00563912|10.1007/BF00564357|10.1007/BF00564461|10.1007/BF00564611|10.1007/BF00565315|10.1007/BF00571235|10.1007/BF00574227|10.1007/BF00575725|10.1007/BF00579082|10.1007/BF00579158|10.1007/BF00579494|10.1007/BF00579837|10.1007/BF00579979|10.1007/BF00579982|10.1007/BF00580083|10.1007/BF00580088|10.1007/BF00580090|10.1007/BF00595063|10.1007/BF00596666|10.1007/BF00598093|10.1007/BF00598181|10.1007/BF00598202|10.1007/BF00598323|10.1007/BF00598372|10.1007/BF00599276|10.1007/BF00602480|10.1007/BF00607552|10.1007/BF00607553|10.1007/BF00607555|10.1007/BF00630448|10.1007/BF00630553|10.1007/BF00633405|10.1007/BF02238224|10.1007/BF02329612|10.1007/BF02759632|10.1007/BF02759633|10.1007/BF02977770|10.1007/S002170100328|10.1007/S10600-005-0048-4|10.1007/S10600-005-0085-Z|10.1007/S10600-006-0264-6|10.1007/S10600-007-0056-7|10.1007/S10600-007-0058-5|10.1007/S10600-007-0084-3|10.1007/S10600-007-0222-Y|10.1007/S10600-007-0233-8|10.1007/S10600-008-0012-1|10.1007/S10600-008-9067-2|10.1007/S10600-008-9112-1|10.1007/S10600-009-9245-X|10.1007/S10600-009-9247-8|10.1007/S10600-009-9362-6|10.1007/S10600-009-9409-8|10.1007/S10600-009-9410-2|10.1007/S10600-010-9543-3|10.1007/S10600-010-9569-6|10.1007/S10600-010-9597-2|10.1007/S10600-010-9645-Y|10.1007/S10600-010-9646-X|10.1007/S10600-010-9697-Z|10.1007/S10600-010-9746-7|10.1007/S10600-011-0014-2|10.1007/S10600-011-0016-0|10.1007/S10600-011-0072-5|10.1007/S10600-011-9801-Z|10.1007/S10600-011-9847-Y|10.1007/S10600-011-9903-7|10.1007/S10600-012-0285-2|10.1007/S11306-014-0638-X|10.1007/S11418-006-0027-5|10.1007/S11418-009-0362-4|10.1007/S11418-010-0400-2|10.1007/S12272-010-0806-0|10.1007/S12272-011-0404-9|10.1007/S13369-010-0015-7|10.1007/s11306-014-0638-x|10.1016/0003-9861(53)90127-1|10.1016/0031-6865(94)90049-3|10.1016/0031-6865(95)00027-7|10.1016/0031-6865(96)00010-6|10.1016/0031-9422(74)85048-X|10.1016/0031-9422(81)83066-X|10.1016/0031-9422(82)80105-2|10.1016/0031-9422(82)83030-6|10.1016/0031-9422(82)83123-3|10.1016/0031-9422(83)80111-3|10.1016/0031-9422(83)80148-4|10.1016/0031-9422(88)80645-9|10.1016/0031-9422(88)83050-4|10.1016/0031-9422(88)87035-3|10.1016/0031-9422(90)85105-O|10.1016/0031-9422(91)84233-I|10.1016/0031-9422(92)80355-I|10.1016/0031-9422(92)83305-I|10.1016/0031-9422(93)85108-4|10.1016/0031-9422(93)85134-D|10.1016/0031-9422(93)85414-M|10.1016/0031-9422(93)85416-O|10.1016/0031-9422(93)85448-z|10.1016/0031-9422(93)85545-3|10.1016/0031-9422(94)00591-G|10.1016/0031-9422(94)00727-B|10.1016/0031-9422(94)00905-9|10.1016/0031-9422(95)00383-I|10.1016/0031-9422(95)00924-8|10.1016/0305-1978(87)90085-8|10.1016/0305-1978(88)90012-9|10.1016/J.ACA.2012.02.051|10.1016/J.ARABJC.2014.11.059|10.1016/J.BMC.2007.10.072|10.1016/J.BMC.2011.03.055|10.1016/J.BMCL.2007.10.046|10.1016/J.BMCL.2010.08.054|10.1016/J.BMCL.2011.01.066|10.1016/J.BMCL.2011.04.043|10.1016/J.BMCL.2011.11.109|10.1016/J.BMCL.2011.12.036|10.1016/J.BMCL.2012.10.043|10.1016/J.BMCL.2013.04.013|10.1016/J.BMCL.2014.01.028|10.1016/J.BMCL.2015.02.048|10.1016/J.BMCL.2015.04.045|10.1016/J.BMCL.2015.04.052|10.1016/J.BMCL.2015.05.089|10.1016/J.BSE.2006.03.001|10.1016/J.BSE.2014.05.015|10.1016/J.CARRES.2003.12.017|10.1016/J.CHROMA.2007.03.038|10.1016/J.EJPHAR.2005.08.046|10.1016/J.FITOTE.2004.05.008|10.1016/J.FITOTE.2009.09.003|10.1016/J.FITOTE.2010.04.012|10.1016/J.FOODCHEM.2005.02.007|10.1016/J.FOODCHEM.2008.11.094|10.1016/J.FOODCHEM.2009.07.063|10.1016/J.FOODCHEM.2011.09.063|10.1016/J.HELIYON.2020.E04150|10.1016/J.JEP.2018.11.034|10.1016/J.JPBA.2008.09.037|10.1016/J.LFS.2004.07.001|10.1016/J.PHYTOCHEM.2004.06.009|10.1016/J.PHYTOCHEM.2005.02.027|10.1016/J.PHYTOCHEM.2005.07.019|10.1016/J.PHYTOCHEM.2005.12.002|10.1016/J.PHYTOCHEM.2006.01.005|10.1016/J.PHYTOCHEM.2006.11.026|10.1016/J.PHYTOCHEM.2007.04.020|10.1016/J.PHYTOCHEM.2008.01.006|10.1016/J.PHYTOCHEM.2008.04.009|10.1016/J.PHYTOCHEM.2008.10.006|10.1016/J.PHYTOCHEM.2008.11.006|10.1016/J.PHYTOCHEM.2009.07.013|10.1016/J.PHYTOCHEM.2009.07.020|10.1016/J.PHYTOCHEM.2010.08.007|10.1016/J.PHYTOCHEM.2011.02.021|10.1016/J.PHYTOCHEM.2011.07.007|10.1016/J.PHYTOL.2011.02.005|10.1016/J.PHYTOL.2011.02.011|10.1016/J.PHYTOL.2013.10.006|10.1016/J.TETLET.2009.01.158|10.1016/J.TETLET.2010.10.102|10.1016/S0031-9422(00)00192-8|10.1016/S0031-9422(00)00423-4|10.1016/S0031-9422(00)80646-9|10.1016/S0031-9422(00)80695-0|10.1016/S0031-9422(00)80813-4|10.1016/S0031-9422(00)81848-8|10.1016/S0031-9422(00)82558-3|10.1016/S0031-9422(00)83511-6|10.1016/S0031-9422(00)83562-1|10.1016/S0031-9422(00)89581-3|10.1016/S0031-9422(00)90045-1|10.1016/S0031-9422(00)90131-6|10.1016/S0031-9422(00)97156-5|10.1016/S0031-9422(00)97305-9|10.1016/S0031-9422(00)97307-2|10.1016/S0031-9422(01)00247-3|10.1016/S0031-9422(01)00401-0|10.1016/S0031-9422(01)00403-4|10.1016/S0031-9422(01)00441-1|10.1016/S0031-9422(02)00133-4|10.1016/S0031-9422(02)00486-7|10.1016/S0031-9422(03)00105-5|10.1016/S0031-9422(03)00504-1|10.1016/S0031-9422(96)00329-9|10.1016/S0031-9422(96)00565-1|10.1016/S0031-9422(96)00571-7|10.1016/S0031-9422(96)00663-2|10.1016/S0031-9422(96)00842-4|10.1016/S0031-9422(97)00878-9|10.1016/S0031-9422(98)00106-X|10.1016/S0031-9422(99)00082-5|10.1016/S0031-9422(99)00297-6|10.1016/S0031-9422(99)00324-6|10.1016/S0031-9422(99)00598-1|10.1016/S0308-8146(99)00099-0|10.1016/S0367-326X(99)00116-1|10.1016/S0731-7085(00)00431-3|10.1016/S0968-0896(00)00102-4|10.1016/S0968-0896(01)00321-2|10.1016/S0968-0896(02)00470-4|10.1016/j.arabjc.2014.11.059|10.1016/j.bmc.2007.10.072|10.1016/j.bmcl.2011.04.043|10.1016/j.bmcl.2011.11.109|10.1016/j.bmcl.2011.12.036|10.1016/j.bmcl.2012.10.043|10.1016/j.bmcl.2013.04.013|10.1016/j.bmcl.2014.01.028|10.1016/j.bmcl.2015.02.048|10.1016/j.bmcl.2015.04.045|10.1016/j.bmcl.2015.04.052|10.1016/j.bmcl.2015.05.089|10.1016/j.bmcl.2016.08.094|10.1016/j.jep.2018.11.034|10.1016/j.phymed.2011.12.001|10.1016/j.phytochem.2005.07.019|10.1016/j.phytochem.2007.03.010|10.1016/j.phytol.2008.04.003|10.1016/j.phytol.2013.10.006|10.1016/s0031-9422(00)86268-8|10.1016/s0367-326x(99)00116-1|10.1021/JA01097A013|10.1021/JA01113A529|10.1021/JA01137A038|10.1021/JA01176A016|10.1021/JA01259A066|10.1021/JF00035A025|10.1021/JF00048A016|10.1021/JF000815R|10.1021/JF00097A031|10.1021/JF010192X|10.1021/JF0104681|10.1021/JF010492E|10.1021/JF011178N|10.1021/JF0262458|10.1021/JF030374M|10.1021/JF0307402|10.1021/JF030813H|10.1021/JF034475W|10.1021/JF0346298|10.1021/JF0347517|10.1021/JF034970S|10.1021/JF035416L|10.1021/JF048152R|10.1021/JF049317Z|10.1021/JF049450R|10.1021/JF0623687|10.1021/JF071475D|10.1021/JF0734727|10.1021/JF703652A|10.1021/JF703709R|10.1021/JF800421J|10.1021/JF903515F|10.1021/JF9601628|10.1021/JF9800211|10.1021/NP000442O|10.1021/NP010081S|10.1021/NP0200764|10.1021/NP030034V|10.1021/NP0303411|10.1021/NP030470H|10.1021/NP0401056|10.1021/NP050034Q|10.1021/NP050181O|10.1021/NP050447R|10.1021/NP0600999|10.1021/NP068016B|10.1021/NP068016B.S001|10.1021/NP070327E|10.1021/NP0780046|10.1021/NP100373F|10.1021/NP200646E|10.1021/NP300609U|10.1021/NP4005163|10.1021/NP400717M|10.1021/NP50044A034|10.1021/NP50050A047|10.1021/NP9000653|10.1021/NP900466X|10.1021/NP9604590|10.1021/NP9900674|10.1021/NP990391Z|10.1021/acs.jnatprod.0c00395|10.1021/acs.jnatprod.6b00981|10.1021/acs.jnatprod.7b00063|10.1021/acs.jnatprod.8b00948|10.1021/acs.jnatprod.9b00212|10.1021/jf9810261|10.1021/np000442o|10.1021/np0200764|10.1021/np020472m|10.1021/np030034v|10.1021/np0303411|10.1021/np030470h|10.1021/np050447r|10.1021/np068016b|10.1021/np0703850|10.1021/np100373f|10.1021/np200646e|10.1021/np300609u|10.1021/np4005163|10.1021/np400717m|10.1021/np50044a034|10.1021/np50050a047|10.1021/np50052a017|10.1021/np50088a022|10.1021/np900530n|10.1023/B:CONC.0000033925.00693.7B|10.1038/192288B0|10.1055/S-0028-1099447|10.1055/S-0031-1282668|10.1055/S-0033-1352389|10.1055/S-1999-14059|10.1055/S-2000-11119|10.1055/S-2000-11135|10.1055/S-2003-45150|10.1055/S-2004-835854|10.1055/S-2006-957419|10.1055/S-2006-957671|10.1055/S-2006-958151|10.1055/S-2007-969296|10.1055/S-2007-981551|10.1071/bi9691425|10.1080/10286020.2010.503652|10.1080/1071576021000006707|10.1080/14786410601035811|10.1080/14786410802044885|10.1080/14786410802401390|10.1080/14786410902757899|10.1080/14786419.2010.490214|10.1080/14786419.2016.1226831|10.1081/JLC-100100418|10.1089/JMF.2014.3196|10.1104/PP.109.148031|10.1111/1750-3841.14660|10.1111/J.1365-2621.2003.TB12340.X|10.1155/2014/673286|10.1177/1934578X0900400602|10.1177/1934578X1501000714|10.1211/0022357021779014|10.1248/BPB.23.451|10.1248/BPB.25.102|10.1248/BPB.27.2035|10.1248/BPB.28.19|10.1248/BPB.31.743|10.1248/BPB.33.122|10.1248/CPB.39.2053|10.1248/CPB.41.1238|10.1248/CPB.43.1800|10.1248/CPB.44.1293|10.1248/CPB.47.1510|10.1248/CPB.48.1768|10.1248/CPB.49.1039|10.1248/CPB.49.1388|10.1248/CPB.49.151|10.1248/CPB.50.1484|10.1248/CPB.50.73|10.1248/CPB.52.1227|10.1248/CPB.52.1483|10.1248/CPB.52.866|10.1248/CPB.53.1416|10.1248/CPB.53.387|10.1248/CPB.53.591|10.1248/CPB.54.1308|10.1248/CPB.54.234|10.1248/CPB.55.1308|10.1248/CPB.55.771|10.1248/CPB.55.815|10.1248/CPB.56.585|10.1248/CPB.57.1089|10.1248/CPB.57.361|10.1248/CPB.57.853|10.1248/CPB.58.1587|10.1248/CPB.58.859|10.1248/YAKUSHI1881.60.8_449|10.1248/YAKUSHI1947.89.1_122|10.1271/BBB.100200|10.1271/BBB.66.1571|10.1271/BBB1961.55.613|10.1515/ZNB-2006-0111|10.1590/S0103-50532008000600007|10.21548/25-2-2143|10.3136/FSTI9596T9798.4.278|10.3390/12020263|10.3390/70200245|10.3390/MOLECULES13112796|10.3390/MOLECULES15042593|10.3390/MOLECULES15117933|10.3390/MOLECULES200815330|10.3390/molecules200815330|10.3390/molecules24162945|10.3390/molecules24183212|10.3797/SCIPHARM.2007.75.179|10.3987/COM-03-S31|10.3987/COM-04-10150|10.3987/COM-04-10188|10.5012/BKCS.2010.31.01.227|10.5012/BKCS.2010.31.04.929|10.5897/AJB10.140|10.5897/JMPR.9000078

>  <synonyms>  (103) 
nan

>  <cas>  (103) 
482-35-9

$$$$

     RDKit          2D

 44 48  0  0  0  0  0  0  0  0999 V2000
    9.2744    1.6393    0.0000 C   0  0  0  0  0  0  0  0  0  0  0  0
    7.9398    0.9545    0.0000 C   0  0  0  0  0  0  0  0  0  0  0  0
    6.6795    1.7680    0.0000 O   0  0  0  0  0  0  0  0  0  0  0  0
    5.3449    1.0832    0.0000 C   0  0  0  0  0  0  0  0  0  0  0  0
    4.0846    1.8966    0.0000 O   0  0  0  0  0  0  0  0  0  0  0  0
    2.7500    1.2119    0.0000 C   0  0  0  0  0  0  0  0  0  0  0  0
    1.4897    2.0253    0.0000 C   0  0  0  0  0  0  0  0  0  0  0  0
    0.1552    1.3406    0.0000 O   0  0  0  0  0  0  0  0  0  0  0  0
   -1.1051    2.1540    0.0000 C   0  0  0  0  0  0  0  0  0  0  0  0
   -2.4397    1.4692    0.0000 O   0  0  0  0  0  0  0  0  0  0  0  0
   -2.5140   -0.0289    0.0000 C   0  0  0  0  0  0  0  0  0  0  0  0
   -3.8486   -0.7137    0.0000 C   0  0  0  0  0  0  0  0  0  0  0  0
   -5.1089    0.0997    0.0000 C   0  0  0  0  0  0  0  0  0  0  0  0
   -5.0346    1.5979    0.0000 C   0  0  0  0  0  0  0  0  0  0  0  0
   -6.2949    2.4113    0.0000 C   0  0  0  0  0  0  0  0  0  0  0  0
   -7.6295    1.7266    0.0000 C   0  0  0  0  0  0  0  0  0  0  0  0
   -8.8898    2.5400    0.0000 O   0  0  0  0  0  0  0  0  0  0  0  0
   -7.7038    0.2284    0.0000 C   0  0  0  0  0  0  0  0  0  0  0  0
   -9.0384   -0.4563    0.0000 O   0  0  0  0  0  0  0  0  0  0  0  0
   -6.4435   -0.5850    0.0000 C   0  0  0  0  0  0  0  0  0  0  0  0
   -3.9229   -2.2118    0.0000 O   0  0  0  0  0  0  0  0  0  0  0  0
   -2.6626   -3.0253    0.0000 C   0  0  0  0  0  0  0  0  0  0  0  0
   -2.7369   -4.5234    0.0000 C   0  0  0  0  0  0  0  0  0  0  0  0
   -1.4766   -5.3368    0.0000 C   0  0  0  0  0  0  0  0  0  0  0  0
   -1.5509   -6.8350    0.0000 O   0  0  0  0  0  0  0  0  0  0  0  0
   -0.1420   -4.6521    0.0000 C   0  0  0  0  0  0  0  0  0  0  0  0
    1.1183   -5.4655    0.0000 O   0  0  0  0  0  0  0  0  0  0  0  0
   -0.0677   -3.1539    0.0000 C   0  0  0  0  0  0  0  0  0  0  0  0
    1.2669   -2.4692    0.0000 O   0  0  0  0  0  0  0  0  0  0  0  0
   -1.3280   -2.3405    0.0000 C   0  0  0  0  0  0  0  0  0  0  0  0
   -1.2537   -0.8424    0.0000 C   0  0  0  0  0  0  0  0  0  0  0  0
    0.0809   -0.1576    0.0000 O   0  0  0  0  0  0  0  0  0  0  0  0
   -1.0309    3.6521    0.0000 C   0  0  0  0  0  0  0  0  0  0  0  0
   -2.2912    4.4655    0.0000 O   0  0  0  0  0  0  0  0  0  0  0  0
    0.3037    4.3369    0.0000 C   0  0  0  0  0  0  0  0  0  0  0  0
    0.3780    5.8350    0.0000 O   0  0  0  0  0  0  0  0  0  0  0  0
    1.5640    3.5235    0.0000 C   0  0  0  0  0  0  0  0  0  0  0  0
    2.8986    4.2082    0.0000 O   0  0  0  0  0  0  0  0  0  0  0  0
    5.2706   -0.4150    0.0000 C   0  0  0  0  0  0  0  0  0  0  0  0
    3.9361   -1.0997    0.0000 O   0  0  0  0  0  0  0  0  0  0  0  0
    6.5309   -1.2284    0.0000 C   0  0  0  0  0  0  0  0  0  0  0  0
    6.4567   -2.7265    0.0000 O   0  0  0  0  0  0  0  0  0  0  0  0
    7.8655   -0.5436    0.0000 C   0  0  0  0  0  0  0  0  0  0  0  0
    9.1258   -1.3570    0.0000 O   0  0  0  0  0  0  0  0  0  0  0  0
  2  1  1  1
  2  3  1  0
  3  4  1  0
  4  5  1  6
  5  6  1  0
  7  6  1  1
  7  8  1  0
  8  9  1  0
  9 10  1  1
 10 11  1  0
 11 12  2  0
 12 13  1  0
 13 14  2  0
 14 15  1  0
 15 16  2  0
 16 17  1  0
 16 18  1  0
 18 19  1  0
 18 20  2  0
 12 21  1  0
 21 22  1  0
 22 23  2  0
 23 24  1  0
 24 25  1  0
 24 26  2  0
 26 27  1  0
 26 28  1  0
 28 29  1  0
 28 30  2  0
 30 31  1  0
 31 32  2  0
  9 33  1  0
 33 34  1  6
 33 35  1  0
 35 36  1  1
 35 37  1  0
 37 38  1  6
  4 39  1  0
 39 40  1  1
 39 41  1  0
 41 42  1  1
 41 43  1  0
 43 44  1  6
 43  2  1  0
 37  7  1  0
 31 11  1  0
 20 13  1  0
 30 22  1  0
M  END
>  <identifier>  (104) 
CNP0247758.1

>  <canonical_smiles>  (104) 
C[C@@H]1O[C@@H](OC[C@H]2O[C@@H](OC3=C(C4=CC=C(O)C(O)=C4)OC4=CC(O)=C(O)C(O)=C4C3=O)[C@H](O)[C@@H](O)[C@@H]2O)[C@H](O)[C@H](O)[C@H]1O

>  <standard_inchi>  (104) 
InChI=1S/C27H30O17/c1-7-15(31)20(36)22(38)26(41-7)40-6-13-17(33)21(37)23(39)27(43-13)44-25-19(35)14-12(5-11(30)16(32)18(14)34)42-24(25)8-2-3-9(28)10(29)4-8/h2-5,7,13,15,17,20-23,26-34,36-39H,6H2,1H3/t7-,13+,15-,17+,20+,21-,22+,23+,26+,27-/m0/s1

>  <standard_inchi_key>  (104) 
JJGRMQWUXKVOLM-DBHLLKKXSA-N

>  <name>  (104) 
nan

>  <iupac_name>  (104) 
2-(3,4-dihydroxyphenyl)-5,6,7-trihydroxy-3-[(2~{S},3~{R},4~{S},5~{S},6~{R})-3,4,5-trihydroxy-6-[[(2~{R},3~{R},4~{R},5~{R},6~{S})-3,4,5-trihydroxy-6-methyl-tetrahydropyran-2-yl]oxymethyl]tetrahydropyran-2-yl]oxy-chromen-4-one

>  <annotation_level>  (104) 
5

>  <total_atom_count>  (104) 
74

>  <heavy_atom_count>  (104) 
44

>  <molecular_weight>  (104) 
626.52

>  <exact_molecular_weight>  (104) 
626.1483

>  <molecular_formula>  (104) 
C27H30O17

>  <alogp>  (104) 
-1.98

>  <topological_polar_surface_area>  (104) 
289.66

>  <rotatable_bond_count>  (104) 
6

>  <hydrogen_bond_acceptors>  (104) 
17

>  <hydrogen_bond_donors>  (104) 
11

>  <hydrogen_bond_acceptors_lipinski>  (104) 
17

>  <hydrogen_bond_donors_lipinski>  (104) 
11

>  <lipinski_rule_of_five_violations>  (104) 
3

>  <aromatic_rings_count>  (104) 
3

>  <qed_drug_likeliness>  (104) 
0.13

>  <formal_charge>  (104) 
0

>  <fractioncsp3>  (104) 
0.44

>  <number_of_minimal_rings>  (104) 
5

>  <van_der_walls_volume>  (104) 
502.06

>  <contains_sugar>  (104) 
True

>  <contains_ring_sugars>  (104) 
True

>  <contains_linear_sugars>  (104) 
False

>  <murcko_framework>  (104) 
O1c2ccccc2CC(OC3OC(COC4OCCCC4)CCC3)=C1c5ccccc5

>  <np_likeness>  (104) 
2.02

>  <chemical_class>  (104) 
Flavonoids

>  <chemical_sub_class>  (104) 
Flavonoid glycosides

>  <chemical_super_class>  (104) 
Phenylpropanoids and polyketides

>  <direct_parent_classification>  (104) 
Flavonoid-3-O-glycosides

>  <np_classifier_pathway>  (104) 
Shikimates and Phenylpropanoids

>  <np_classifier_superclass>  (104) 
Flavonoids

>  <np_classifier_class>  (104) 
Flavonols

>  <np_classifier_is_glycoside>  (104) 
True

>  <organisms>  (104) 
Chimarrhis turbinata

>  <collections>  (104) 
ChemSpider NPs|Latin America dataset|NuBBEDB|WikiData Natural Products

>  <dois>  (104) 
10.1590/S0103-50532005000800008

>  <synonyms>  (104) 
6-Hydroxy-rutin

>  <cas>  (104) 
nan

$$$$

     RDKit          2D

 36 38  0  0  0  0  0  0  0  0999 V2000
    5.0432   -2.9833    0.0000 O   0  0  0  0  0  0  0  0  0  0  0  0
    4.0947   -1.8212    0.0000 C   0  0  0  0  0  0  0  0  0  0  0  0
    4.6269   -0.4187    0.0000 C   0  0  0  0  0  0  0  0  0  0  0  0
    6.1075   -0.1784    0.0000 C   0  0  0  0  0  0  0  0  0  0  0  0
    6.6397    1.2240    0.0000 C   0  0  0  0  0  0  0  0  0  0  0  0
    8.1203    1.4644    0.0000 C   0  0  0  0  0  0  0  0  0  0  0  0
    8.6524    2.8668    0.0000 C   0  0  0  0  0  0  0  0  0  0  0  0
    7.7040    4.0289    0.0000 C   0  0  0  0  0  0  0  0  0  0  0  0
    8.2362    5.4313    0.0000 O   0  0  0  0  0  0  0  0  0  0  0  0
    6.2234    3.7885    0.0000 C   0  0  0  0  0  0  0  0  0  0  0  0
    5.2749    4.9506    0.0000 O   0  0  0  0  0  0  0  0  0  0  0  0
    5.6912    2.3861    0.0000 C   0  0  0  0  0  0  0  0  0  0  0  0
    2.6141   -2.0615    0.0000 O   0  0  0  0  0  0  0  0  0  0  0  0
    2.0819   -3.4639    0.0000 C   0  0  0  0  0  0  0  0  0  0  0  0
    0.6013   -3.7043    0.0000 C   0  0  0  0  0  0  0  0  0  0  0  0
   -0.3471   -2.5422    0.0000 O   0  0  0  0  0  0  0  0  0  0  0  0
   -1.8278   -2.7826    0.0000 C   0  0  0  0  0  0  0  0  0  0  0  0
   -2.7762   -1.6205    0.0000 O   0  0  0  0  0  0  0  0  0  0  0  0
   -2.2441   -0.2180    0.0000 C   0  0  0  0  0  0  0  0  0  0  0  0
   -0.7634    0.0223    0.0000 O   0  0  0  0  0  0  0  0  0  0  0  0
   -3.1925    0.9440    0.0000 C   0  0  0  0  0  0  0  0  0  0  0  0
   -4.6731    0.7037    0.0000 C   0  0  0  0  0  0  0  0  0  0  0  0
   -5.6216    1.8658    0.0000 C   0  0  0  0  0  0  0  0  0  0  0  0
   -5.0894    3.2682    0.0000 C   0  0  0  0  0  0  0  0  0  0  0  0
   -6.0379    4.4303    0.0000 C   0  0  0  0  0  0  0  0  0  0  0  0
   -7.5185    4.1899    0.0000 C   0  0  0  0  0  0  0  0  0  0  0  0
   -8.4670    5.3520    0.0000 O   0  0  0  0  0  0  0  0  0  0  0  0
   -8.0507    2.7875    0.0000 C   0  0  0  0  0  0  0  0  0  0  0  0
   -9.5313    2.5472    0.0000 O   0  0  0  0  0  0  0  0  0  0  0  0
   -7.1022    1.6254    0.0000 C   0  0  0  0  0  0  0  0  0  0  0  0
   -2.3599   -4.1850    0.0000 C   0  0  0  0  0  0  0  0  0  0  0  0
   -3.8405   -4.4253    0.0000 O   0  0  0  0  0  0  0  0  0  0  0  0
   -1.4115   -5.3471    0.0000 C   0  0  0  0  0  0  0  0  0  0  0  0
   -1.9436   -6.7495    0.0000 O   0  0  0  0  0  0  0  0  0  0  0  0
    0.0691   -5.1067    0.0000 C   0  0  0  0  0  0  0  0  0  0  0  0
    1.0176   -6.2688    0.0000 O   0  0  0  0  0  0  0  0  0  0  0  0
  1  2  2  0
  2  3  1  0
  3  4  2  0
  4  5  1  0
  5  6  2  0
  6  7  1  0
  7  8  2  0
  8  9  1  0
  8 10  1  0
 10 11  1  0
 10 12  2  0
  2 13  1  0
 13 14  1  0
 15 14  1  6
 15 16  1  0
 16 17  1  0
 17 18  1  6
 18 19  1  0
 19 20  2  0
 19 21  1  0
 21 22  2  0
 22 23  1  0
 23 24  2  0
 24 25  1  0
 25 26  2  0
 26 27  1  0
 26 28  1  0
 28 29  1  0
 28 30  2  0
 17 31  1  0
 31 32  1  1
 31 33  1  0
 33 34  1  6
 33 35  1  0
 35 36  1  1
 12  5  1  0
 35 15  1  0
 30 23  1  0
M  END
>  <identifier>  (105) 
CNP0213995.1

>  <canonical_smiles>  (105) 
O=C(/C=C/C1=CC=C(O)C(O)=C1)OC[C@H]1O[C@@H](OC(=O)/C=C/C2=CC=C(O)C(O)=C2)[C@H](O)[C@@H](O)[C@@H]1O

>  <standard_inchi>  (105) 
InChI=1S/C24H24O12/c25-14-5-1-12(9-16(14)27)3-7-19(29)34-11-18-21(31)22(32)23(33)24(35-18)36-20(30)8-4-13-2-6-15(26)17(28)10-13/h1-10,18,21-28,31-33H,11H2/b7-3+,8-4+/t18-,21-,22+,23-,24+/m1/s1

>  <standard_inchi_key>  (105) 
TZEMRDVCZWVBHT-UTTQFQDJSA-N

>  <name>  (105) 
nan

>  <iupac_name>  (105) 
[(2~{R},3~{S},4~{S},5~{R},6~{S})-6-[(~{E})-3-(3,4-dihydroxyphenyl)prop-2-enoyl]oxy-3,4,5-trihydroxy-tetrahydropyran-2-yl]methyl (~{E})-3-(3,4-dihydroxyphenyl)prop-2-enoate

>  <annotation_level>  (105) 
5

>  <total_atom_count>  (105) 
60

>  <heavy_atom_count>  (105) 
36

>  <molecular_weight>  (105) 
504.44

>  <exact_molecular_weight>  (105) 
504.12678

>  <molecular_formula>  (105) 
C24H24O12

>  <alogp>  (105) 
0.13

>  <topological_polar_surface_area>  (105) 
203.44

>  <rotatable_bond_count>  (105) 
7

>  <hydrogen_bond_acceptors>  (105) 
12

>  <hydrogen_bond_donors>  (105) 
7

>  <hydrogen_bond_acceptors_lipinski>  (105) 
12

>  <hydrogen_bond_donors_lipinski>  (105) 
7

>  <lipinski_rule_of_five_violations>  (105) 
3

>  <aromatic_rings_count>  (105) 
2

>  <qed_drug_likeliness>  (105) 
0.15

>  <formal_charge>  (105) 
0

>  <fractioncsp3>  (105) 
0.25

>  <number_of_minimal_rings>  (105) 
3

>  <van_der_walls_volume>  (105) 
423.91

>  <contains_sugar>  (105) 
True

>  <contains_ring_sugars>  (105) 
True

>  <contains_linear_sugars>  (105) 
False

>  <murcko_framework>  (105) 
O(CC=Cc1ccccc1)CC2OC(OCC=Cc3ccccc3)CCC2

>  <np_likeness>  (105) 
1.43

>  <chemical_class>  (105) 
Cinnamic acids and derivatives

>  <chemical_sub_class>  (105) 
Hydroxycinnamic acids and derivatives

>  <chemical_super_class>  (105) 
Phenylpropanoids and polyketides

>  <direct_parent_classification>  (105) 
Hydroxycinnamic acids

>  <np_classifier_pathway>  (105) 
Shikimates and Phenylpropanoids

>  <np_classifier_superclass>  (105) 
Phenylpropanoids (C6-C3)

>  <np_classifier_class>  (105) 
Cinnamic acids and derivatives

>  <np_classifier_is_glycoside>  (105) 
True

>  <organisms>  (105) 
Coussarea hydrangeifolia|Prunus buergeri|Prunus buergeriana

>  <collections>  (105) 
ChemSpider NPs|Latin America dataset|NuBBEDB|Super Natural II|WikiData Natural Products|ZINC NP

>  <dois>  (105) 
10.1016/0031-9422(88)83165-0|10.1016/J.PHYTOCHEM.2005.06.019|10.1016/j.phytochem.2005.06.019

>  <synonyms>  (105) 
16-di-O-caffeoyl-\u221a\u00e9\u00ac\u2264-D-glucopyranoside

>  <cas>  (105) 
nan

$$$$

     RDKit          2D

 40 42  0  0  0  0  0  0  0  0999 V2000
    7.6373   -1.1221    0.0000 C   0  0  0  0  0  0  0  0  0  0  0  0
    6.1383   -1.1748    0.0000 C   0  0  0  0  0  0  0  0  0  0  0  0
    5.4344   -2.4995    0.0000 C   0  0  0  0  0  0  0  0  0  0  0  0
    6.2297   -3.7713    0.0000 C   0  0  0  0  0  0  0  0  0  0  0  0
    3.9353   -2.5522    0.0000 C   0  0  0  0  0  0  0  0  0  0  0  0
    3.1401   -1.2804    0.0000 C   0  0  0  0  0  0  0  0  0  0  0  0
    1.6410   -1.3331    0.0000 C   0  0  0  0  0  0  0  0  0  0  0  0
    1.9533   -2.8003    0.0000 C   0  0  0  0  0  0  0  0  0  0  0  0
    1.8494    0.1523    0.0000 C   0  0  0  0  0  0  0  0  0  0  0  0
    3.2400    0.7146    0.0000 C   0  0  0  0  0  0  0  0  0  0  0  0
    0.6671    1.0755    0.0000 C   0  0  0  0  0  0  0  0  0  0  0  0
    0.8755    2.5610    0.0000 O   0  0  0  0  0  0  0  0  0  0  0  0
    2.2661    3.1232    0.0000 C   0  0  0  0  0  0  0  0  0  0  0  0
    3.4484    2.2001    0.0000 O   0  0  0  0  0  0  0  0  0  0  0  0
    2.4744    4.6087    0.0000 C   0  0  0  0  0  0  0  0  0  0  0  0
    3.8651    5.1710    0.0000 C   0  0  0  0  0  0  0  0  0  0  0  0
    4.0734    6.6565    0.0000 C   0  0  0  0  0  0  0  0  0  0  0  0
   -0.7235    0.5132    0.0000 C   0  0  0  0  0  0  0  0  0  0  0  0
   -1.6473    1.6950    0.0000 O   0  0  0  0  0  0  0  0  0  0  0  0
   -0.9318   -0.9723    0.0000 C   0  0  0  0  0  0  0  0  0  0  0  0
   -2.3225   -1.5346    0.0000 C   0  0  0  0  0  0  0  0  0  0  0  0
   -2.5308   -3.0200    0.0000 C   0  0  0  0  0  0  0  0  0  0  0  0
   -1.3485   -3.9432    0.0000 C   0  0  0  0  0  0  0  0  0  0  0  0
   -1.5569   -5.4286    0.0000 O   0  0  0  0  0  0  0  0  0  0  0  0
   -2.9475   -5.9909    0.0000 C   0  0  0  0  0  0  0  0  0  0  0  0
    0.0421   -3.3809    0.0000 C   0  0  0  0  0  0  0  0  0  0  0  0
    0.2504   -1.8954    0.0000 C   0  0  0  0  0  0  0  0  0  0  0  0
   -1.8224   -1.7708    0.0000 C   0  0  0  0  0  0  0  0  0  0  0  0
   -4.7833   -0.4908    0.0000 O   0  0  0  0  0  0  0  0  0  0  0  0
   -5.6224    0.7525    0.0000 C   0  0  0  0  0  0  0  0  0  0  0  0
   -4.9652    2.1009    0.0000 O   0  0  0  0  0  0  0  0  0  0  0  0
   -7.1187    0.6475    0.0000 C   0  0  0  0  0  0  0  0  0  0  0  0
   -7.9579    1.8908    0.0000 C   0  0  0  0  0  0  0  0  0  0  0  0
   -9.4542    1.7857    0.0000 C   0  0  0  0  0  0  0  0  0  0  0  0
   -1.7052   -1.0603    0.0000 O   0  0  0  0  0  0  0  0  0  0  0  0
   -1.1271   -1.4897    0.0000 C   0  0  0  0  0  0  0  0  0  0  0  0
    0.1119    1.4886    0.0000 O   0  0  0  0  0  0  0  0  0  0  0  0
   -0.1490    2.9657    0.0000 C   0  0  0  0  0  0  0  0  0  0  0  0
    0.9998    3.9302    0.0000 C   0  0  0  0  0  0  0  0  0  0  0  0
   -1.5587    3.4783    0.0000 O   0  0  0  0  0  0  0  0  0  0  0  0
  1  2  2  0
  2  3  1  0
  3  4  1  0
  3  5  2  0
  5  6  1  0
  6  7  1  0
  7  8  1  6
  7  9  1  0
  9 10  1  1
  9 11  1  0
 11 12  1  6
 12 13  1  0
 13 14  2  0
 13 15  1  0
 15 16  1  0
 16 17  1  0
 11 18  1  0
 18 19  1  1
 18 20  1  0
 20 21  1  6
 21 22  2  0
 22 23  1  0
 23 24  1  1
 24 25  1  0
 23 26  1  0
 27 26  1  6
 21 28  1  0
 28 29  1  6
 29 30  1  0
 30 31  2  0
 30 32  1  0
 32 33  1  0
 33 34  1  0
 28 35  1  0
 35 36  1  0
 36 37  1  6
 37 38  1  0
 38 39  1  0
 38 40  2  0
 27  7  1  0
 27 20  1  0
 36 20  1  0
M  END
>  <identifier>  (106) 
CNP0204749.1

>  <canonical_smiles>  (106) 
C=C/C(C)=C\C[C@]1(C)[C@H](C)[C@@H](OC(=O)CCC)[C@H](O)[C@@]23C(=C[C@H](OC)C[C@@H]12)[C@@H](OC(=O)CCC)O[C@H]3OC(C)=O

>  <standard_inchi>  (106) 
InChI=1S/C31H46O9/c1-9-12-24(33)38-26-19(5)30(7,15-14-18(4)11-3)23-17-21(36-8)16-22-28(39-25(34)13-10-2)40-29(37-20(6)32)31(22,23)27(26)35/h11,14,16,19,21,23,26-29,35H,3,9-10,12-13,15,17H2,1-2,4-8H3/b18-14-/t19-,21+,23+,26-,27+,28+,29-,30-,31-/m1/s1

>  <standard_inchi_key>  (106) 
SBQNYWSGQZHIRT-OKFYIUJRSA-N

>  <name>  (106) 
nan

>  <iupac_name>  (106) 
[(1~{S},3~{R},5~{R},6~{a}~{S},7~{S},8~{S},9~{R},10~{R},10~{a}~{S})-1-acetoxy-3-butanoyloxy-10-hydroxy-5-methoxy-7,8-dimethyl-7-[(2~{Z})-3-methylpenta-2,4-dienyl]-1,3,5,6,6~{a},8,9,10-octahydrobenzo[d]isobenzofuran-9-yl] butanoate

>  <annotation_level>  (106) 
5

>  <total_atom_count>  (106) 
86

>  <heavy_atom_count>  (106) 
40

>  <molecular_weight>  (106) 
562.7

>  <exact_molecular_weight>  (106) 
562.31418

>  <molecular_formula>  (106) 
C31H46O9

>  <alogp>  (106) 
4.77

>  <topological_polar_surface_area>  (106) 
117.59

>  <rotatable_bond_count>  (106) 
11

>  <hydrogen_bond_acceptors>  (106) 
9

>  <hydrogen_bond_donors>  (106) 
1

>  <hydrogen_bond_acceptors_lipinski>  (106) 
9

>  <hydrogen_bond_donors_lipinski>  (106) 
1

>  <lipinski_rule_of_five_violations>  (106) 
1

>  <aromatic_rings_count>  (106) 
0

>  <qed_drug_likeliness>  (106) 
0.16

>  <formal_charge>  (106) 
0

>  <fractioncsp3>  (106) 
0.71

>  <number_of_minimal_rings>  (106) 
3

>  <van_der_walls_volume>  (106) 
531.67

>  <contains_sugar>  (106) 
False

>  <contains_ring_sugars>  (106) 
False

>  <contains_linear_sugars>  (106) 
False

>  <murcko_framework>  (106) 
O1CC2=CCCC3CCCCC23C1

>  <np_likeness>  (106) 
3.22

>  <chemical_class>  (106) 
Prenol lipids

>  <chemical_sub_class>  (106) 
Diterpenoids

>  <chemical_super_class>  (106) 
Lipids and lipid-like molecules

>  <direct_parent_classification>  (106) 
Colensane and clerodane diterpenoids

>  <np_classifier_pathway>  (106) 
Terpenoids

>  <np_classifier_superclass>  (106) 
Diterpenoids

>  <np_classifier_class>  (106) 
Colensane and Clerodane diterpenoids

>  <np_classifier_is_glycoside>  (106) 
True

>  <organisms>  (106) 
Casearia sylvestris

>  <collections>  (106) 
ChemSpider NPs|Latin America dataset|NuBBEDB|Super Natural II|WikiData Natural Products|ZINC NP

>  <dois>  (106) 
10.1002/PCA.902|10.1002/pca.902|10.1248/CPB.39.693

>  <synonyms>  (106) 
Casearin J

>  <cas>  (106) 
nan

$$$$

     RDKit          2D

 29 32  0  0  0  0  0  0  0  0999 V2000
   -4.7033    4.1635    0.0000 C   0  0  0  0  0  0  0  0  0  0  0  0
   -4.4022    2.6941    0.0000 C   0  0  0  0  0  0  0  0  0  0  0  0
   -2.9790    2.2201    0.0000 C   0  0  0  0  0  0  0  0  0  0  0  0
   -5.5242    1.6986    0.0000 C   0  0  0  0  0  0  0  0  0  0  0  0
   -6.9474    2.1725    0.0000 C   0  0  0  0  0  0  0  0  0  0  0  0
   -5.2231    0.2291    0.0000 C   0  0  0  0  0  0  0  0  0  0  0  0
   -3.7999   -0.2448    0.0000 C   0  0  0  0  0  0  0  0  0  0  0  0
   -3.4988   -1.7143    0.0000 C   0  0  0  0  0  0  0  0  0  0  0  0
   -4.6209   -2.7098    0.0000 C   0  0  0  0  0  0  0  0  0  0  0  0
   -2.0757   -2.1883    0.0000 C   0  0  0  0  0  0  0  0  0  0  0  0
   -1.6226   -3.6182    0.0000 C   0  0  0  0  0  0  0  0  0  0  0  0
   -0.1226   -3.6292    0.0000 C   0  0  0  0  0  0  0  0  0  0  0  0
    0.3513   -2.2060    0.0000 C   0  0  0  0  0  0  0  0  0  0  0  0
    1.7261   -1.6060    0.0000 C   0  0  0  0  0  0  0  0  0  0  0  0
    2.9331   -2.4965    0.0000 C   0  0  0  0  0  0  0  0  0  0  0  0
    4.3078   -1.8965    0.0000 C   0  0  0  0  0  0  0  0  0  0  0  0
    4.4756   -0.4059    0.0000 C   0  0  0  0  0  0  0  0  0  0  0  0
    5.8503    0.1942    0.0000 C   0  0  0  0  0  0  0  0  0  0  0  0
    6.0180    1.6848    0.0000 C   0  0  0  0  0  0  0  0  0  0  0  0
    7.3928    2.2848    0.0000 O   0  0  0  0  0  0  0  0  0  0  0  0
    4.8110    2.5753    0.0000 C   0  0  0  0  0  0  0  0  0  0  0  0
    3.4362    1.9753    0.0000 C   0  0  0  0  0  0  0  0  0  0  0  0
    3.2685    0.4847    0.0000 C   0  0  0  0  0  0  0  0  0  0  0  0
    2.0615    1.3752    0.0000 C   0  0  0  0  0  0  0  0  0  0  0  0
    1.8938   -0.1154    0.0000 C   0  0  0  0  0  0  0  0  0  0  0  0
    0.6867    0.7751    0.0000 C   0  0  0  0  0  0  0  0  0  0  0  0
   -0.6880    0.1751    0.0000 C   0  0  0  0  0  0  0  0  0  0  0  0
   -0.8557   -1.3155    0.0000 C   0  0  0  0  0  0  0  0  0  0  0  0
   -2.1492   -0.5560    0.0000 C   0  0  0  0  0  0  0  0  0  0  0  0
  1  2  1  0
  2  3  1  0
  2  4  1  0
  4  5  1  6
  4  6  1  0
  6  7  2  0
  7  8  1  0
  8  9  1  6
  8 10  1  0
 10 11  1  6
 11 12  1  0
 12 13  1  0
 13 14  2  0
 14 15  1  0
 15 16  2  0
 16 17  1  0
 17 18  2  0
 18 19  1  0
 19 20  2  0
 19 21  1  0
 21 22  1  0
 22 23  1  0
 23 24  1  6
 23 25  1  0
 25 26  1  0
 26 27  1  0
 27 28  1  0
 28 29  1  6
 28 10  1  0
 28 13  1  0
 25 14  1  0
 23 17  1  0
M  END
>  <identifier>  (107) 
CNP0193956.5

>  <canonical_smiles>  (107) 
CC(C)[C@@H](C)/C=C/[C@@H](C)[C@H]1CCC2=C3C=CC4=CC(=O)CC[C@]4(C)C3CC[C@@]21C

>  <standard_inchi>  (107) 
InChI=1S/C28H40O/c1-18(2)19(3)7-8-20(4)24-11-12-25-23-10-9-21-17-22(29)13-15-27(21,5)26(23)14-16-28(24,25)6/h7-10,17-20,24,26H,11-16H2,1-6H3/b8-7+/t19-,20+,24+,26?,27-,28+/m0/s1

>  <standard_inchi_key>  (107) 
OIMXTYUHMBQQJM-GDJCSSNXSA-N

>  <name>  (107) 
nan

>  <iupac_name>  (107) 
(10~{R},13~{R},17~{R})-10,13-dimethyl-17-[(~{E},1~{R},4~{R})-1,4,5-trimethylhex-2-enyl]-1,2,9,11,12,15,16,17-octahydrocyclopenta[a]phenanthren-3-one

>  <annotation_level>  (107) 
4

>  <total_atom_count>  (107) 
69

>  <heavy_atom_count>  (107) 
29

>  <molecular_weight>  (107) 
392.63

>  <exact_molecular_weight>  (107) 
392.30792

>  <molecular_formula>  (107) 
C28H40O

>  <alogp>  (107) 
7.46

>  <topological_polar_surface_area>  (107) 
17.07

>  <rotatable_bond_count>  (107) 
4

>  <hydrogen_bond_acceptors>  (107) 
1

>  <hydrogen_bond_donors>  (107) 
0

>  <hydrogen_bond_acceptors_lipinski>  (107) 
1

>  <hydrogen_bond_donors_lipinski>  (107) 
0

>  <lipinski_rule_of_five_violations>  (107) 
1

>  <aromatic_rings_count>  (107) 
0

>  <qed_drug_likeliness>  (107) 
0.45

>  <formal_charge>  (107) 
0

>  <fractioncsp3>  (107) 
0.68

>  <number_of_minimal_rings>  (107) 
4

>  <van_der_walls_volume>  (107) 
nan

>  <contains_sugar>  (107) 
False

>  <contains_ring_sugars>  (107) 
False

>  <contains_linear_sugars>  (107) 
False

>  <murcko_framework>  (107) 
C1=CC2=C3CCCC3CCC2C4C1=CCCC4

>  <np_likeness>  (107) 
2.94

>  <chemical_class>  (107) 
Steroids and steroid derivatives

>  <chemical_sub_class>  (107) 
Ergostane steroids

>  <chemical_super_class>  (107) 
Lipids and lipid-like molecules

>  <direct_parent_classification>  (107) 
Ergosterols and derivatives

>  <np_classifier_pathway>  (107) 
Terpenoids

>  <np_classifier_superclass>  (107) 
Steroids

>  <np_classifier_class>  (107) 
Ergostane steroids

>  <np_classifier_is_glycoside>  (107) 
False

>  <organisms>  (107) 
Guanomyces polythrix|Paradendryphiella salina|Phoma betae|Pleospora bjoerlingii

>  <collections>  (107) 
CMNPD|Latin America dataset|NPEdia|NuBBEDB|WikiData Natural Products

>  <dois>  (107) 
10.1002/JOBM.200800093|10.1002/jobm.200800093|10.1021/JF030115X|10.1039/np9920900323

>  <synonyms>  (107) 
(22E24R)-ergosta-468(14)22-tetraen-3-one

>  <cas>  (107) 
nan

$$$$

     RDKit          2D

 26 29  0  0  0  0  0  0  0  0999 V2000
   -6.2137   -0.9492    0.0000 C   0  0  0  0  0  0  0  0  0  0  0  0
   -4.9629   -1.7772    0.0000 O   0  0  0  0  0  0  0  0  0  0  0  0
   -3.6205   -1.1079    0.0000 C   0  0  0  0  0  0  0  0  0  0  0  0
   -3.5289    0.3893    0.0000 C   0  0  0  0  0  0  0  0  0  0  0  0
   -2.1864    1.0586    0.0000 C   0  0  0  0  0  0  0  0  0  0  0  0
   -2.0948    2.5558    0.0000 C   0  0  0  0  0  0  0  0  0  0  0  0
   -3.3457    3.3837    0.0000 O   0  0  0  0  0  0  0  0  0  0  0  0
   -0.7524    3.2250    0.0000 C   0  0  0  0  0  0  0  0  0  0  0  0
   -0.6608    4.7222    0.0000 C   0  0  0  0  0  0  0  0  0  0  0  0
    0.4984    2.3971    0.0000 C   0  0  0  0  0  0  0  0  0  0  0  0
    1.8408    3.0664    0.0000 C   0  0  0  0  0  0  0  0  0  0  0  0
    0.4068    0.8999    0.0000 C   0  0  0  0  0  0  0  0  0  0  0  0
    1.6576    0.0720    0.0000 C   0  0  0  0  0  0  0  0  0  0  0  0
    1.5660   -1.4252    0.0000 C   0  0  0  0  0  0  0  0  0  0  0  0
    2.8168   -2.2531    0.0000 C   0  0  0  0  0  0  0  0  0  0  0  0
    4.1592   -1.5839    0.0000 C   0  0  0  0  0  0  0  0  0  0  0  0
    5.5548   -2.1336    0.0000 O   0  0  0  0  0  0  0  0  0  0  0  0
    6.5090   -0.9762    0.0000 C   0  0  0  0  0  0  0  0  0  0  0  0
    5.7031    0.2889    0.0000 O   0  0  0  0  0  0  0  0  0  0  0  0
    4.2508   -0.0867    0.0000 C   0  0  0  0  0  0  0  0  0  0  0  0
    3.0000    0.7413    0.0000 C   0  0  0  0  0  0  0  0  0  0  0  0
   -0.9356    0.2306    0.0000 C   0  0  0  0  0  0  0  0  0  0  0  0
   -1.0272   -1.2666    0.0000 C   0  0  0  0  0  0  0  0  0  0  0  0
   -2.3696   -1.9358    0.0000 C   0  0  0  0  0  0  0  0  0  0  0  0
   -2.4612   -3.4330    0.0000 O   0  0  0  0  0  0  0  0  0  0  0  0
   -3.8036   -4.1023    0.0000 C   0  0  0  0  0  0  0  0  0  0  0  0
  1  2  1  0
  2  3  1  0
  3  4  2  0
  4  5  1  0
  5  6  2  0
  6  7  1  0
  6  8  1  0
  8  9  1  0
  8 10  2  0
 10 11  1  0
 10 12  1  0
 12 13  1  0
 13 14  2  0
 14 15  1  0
 15 16  2  0
 16 17  1  0
 17 18  1  0
 18 19  1  0
 19 20  1  0
 20 21  2  0
 12 22  2  0
 22 23  1  0
 23 24  2  0
 24 25  1  0
 25 26  1  0
 24  3  1  0
 22  5  1  0
 21 13  1  0
 20 16  1  0
M  END
>  <identifier>  (108) 
CNP0080606.0

>  <canonical_smiles>  (108) 
COC1=CC2=C(O)C(C)=C(C)C(C3=CC=C4OCOC4=C3)=C2C=C1OC

>  <standard_inchi>  (108) 
InChI=1S/C21H20O5/c1-11-12(2)21(22)15-9-18(24-4)17(23-3)8-14(15)20(11)13-5-6-16-19(7-13)26-10-25-16/h5-9,22H,10H2,1-4H3

>  <standard_inchi_key>  (108) 
BZJKHNHRCIQQGH-UHFFFAOYSA-N

>  <name>  (108) 
nan

>  <iupac_name>  (108) 
4-(1,3-benzodioxol-5-yl)-6,7-dimethoxy-2,3-dimethyl-naphthalen-1-ol

>  <annotation_level>  (108) 
4

>  <total_atom_count>  (108) 
46

>  <heavy_atom_count>  (108) 
26

>  <molecular_weight>  (108) 
352.39

>  <exact_molecular_weight>  (108) 
352.13107

>  <molecular_formula>  (108) 
C21H20O5

>  <alogp>  (108) 
4.58

>  <topological_polar_surface_area>  (108) 
57.15

>  <rotatable_bond_count>  (108) 
3

>  <hydrogen_bond_acceptors>  (108) 
5

>  <hydrogen_bond_donors>  (108) 
1

>  <hydrogen_bond_acceptors_lipinski>  (108) 
5

>  <hydrogen_bond_donors_lipinski>  (108) 
1

>  <lipinski_rule_of_five_violations>  (108) 
0

>  <aromatic_rings_count>  (108) 
3

>  <qed_drug_likeliness>  (108) 
0.75

>  <formal_charge>  (108) 
0

>  <fractioncsp3>  (108) 
0.24

>  <number_of_minimal_rings>  (108) 
4

>  <van_der_walls_volume>  (108) 
nan

>  <contains_sugar>  (108) 
False

>  <contains_ring_sugars>  (108) 
False

>  <contains_linear_sugars>  (108) 
False

>  <murcko_framework>  (108) 
O1c2ccc(cc2OC1)-c3cccc4ccccc43

>  <np_likeness>  (108) 
0.65

>  <chemical_class>  (108) 
Arylnaphthalene lignans

>  <chemical_sub_class>  (108) 
Arylnaphthalene lignans

>  <chemical_super_class>  (108) 
Lignans, neolignans and related compounds

>  <direct_parent_classification>  (108) 
Arylnaphthalene lignans

>  <np_classifier_pathway>  (108) 
Shikimates and Phenylpropanoids

>  <np_classifier_superclass>  (108) 
Lignans

>  <np_classifier_class>  (108) 
Arylnaphthalene and aryltetralin lignans

>  <np_classifier_is_glycoside>  (108) 
False

>  <organisms>  (108) 
Virola sebifera

>  <collections>  (108) 
Latin America dataset|NuBBEDB|WikiData Natural Products|ZINC NP

>  <dois>  (108) 
10.1016/0031-9422(82)83181-6

>  <synonyms>  (108) 
67- Dimethoxy-23-dimethyl-4-piperonyl-1-naphthol

>  <cas>  (108) 
nan

$$$$

     RDKit          2D

  5  5  0  0  0  0  0  0  0  0999 V2000
    1.2760   -0.0000    0.0000 C   0  0  0  0  0  0  0  0  0  0  0  0
    0.3943    1.2135    0.0000 C   0  0  0  0  0  0  0  0  0  0  0  0
   -1.0323    0.7500    0.0000 S   0  0  0  0  0  0  0  0  0  0  0  0
   -1.0323   -0.7500    0.0000 S   0  0  0  0  0  0  0  0  0  0  0  0
    0.3943   -1.2135    0.0000 C   0  0  0  0  0  0  0  0  0  0  0  0
  1  2  2  0
  2  3  1  0
  3  4  1  0
  4  5  1  0
  5  1  1  0
M  END
>  <identifier>  (109) 
CNP0490976.0

>  <canonical_smiles>  (109) 
C1=CSSC1

>  <standard_inchi>  (109) 
InChI=1S/C3H4S2/c1-2-4-5-3-1/h1-2H,3H2

>  <standard_inchi_key>  (109) 
PCGDBWLKAYKBTN-UHFFFAOYSA-N

>  <name>  (109) 
1,2-dithiole

>  <iupac_name>  (109) 
3~{H}-dithiole

>  <annotation_level>  (109) 
5

>  <total_atom_count>  (109) 
9

>  <heavy_atom_count>  (109) 
5

>  <molecular_weight>  (109) 
104.2

>  <exact_molecular_weight>  (109) 
103.97544

>  <molecular_formula>  (109) 
C3H4S2

>  <alogp>  (109) 
1.90

>  <topological_polar_surface_area>  (109) 
0.00

>  <rotatable_bond_count>  (109) 
0

>  <hydrogen_bond_acceptors>  (109) 
2

>  <hydrogen_bond_donors>  (109) 
0

>  <hydrogen_bond_acceptors_lipinski>  (109) 
2

>  <hydrogen_bond_donors_lipinski>  (109) 
0

>  <lipinski_rule_of_five_violations>  (109) 
0

>  <aromatic_rings_count>  (109) 
0

>  <qed_drug_likeliness>  (109) 
0.43

>  <formal_charge>  (109) 
0

>  <fractioncsp3>  (109) 
0.33

>  <number_of_minimal_rings>  (109) 
1

>  <van_der_walls_volume>  (109) 
nan

>  <contains_sugar>  (109) 
False

>  <contains_ring_sugars>  (109) 
False

>  <contains_linear_sugars>  (109) 
False

>  <murcko_framework>  (109) 
S1SCC=C1

>  <np_likeness>  (109) 
2.12

>  <chemical_class>  (109) 
Dithioles

>  <chemical_sub_class>  (109) 
1,2-dithioles

>  <chemical_super_class>  (109) 
Organoheterocyclic compounds

>  <direct_parent_classification>  (109) 
1,2-dithioles

>  <np_classifier_pathway>  (109) 
nan

>  <np_classifier_superclass>  (109) 
nan

>  <np_classifier_class>  (109) 
nan

>  <np_classifier_is_glycoside>  (109) 
False

>  <organisms>  (109) 
Adenocalymma alliaceum|Mansoa alliacea

>  <collections>  (109) 
Latin America dataset|NuBBEDB|Supernatural3|WikiData Natural Products|ZINC NP

>  <dois>  (109) 
10.1021/JF00125A014|10.1021/jf00125a014

>  <synonyms>  (109) 
1,2-Dithiacyclopentene|1,2-Dithiolene|1,3-Dibicyclo[2.2.1]hepta-2,5-dien-2-yl-1,3-dichloro-1,3-bis[3-(trimethylsilyl)propyl]disiloxane|288-26-6|3H-1,2-Dithiole|3H-1,2-dithiolene|3H-dithiole|DTXSID901031881|NDY9U8RY64|Q18343387|Ref.: J.Agric. Food Chem., Vol. 46, #1, 1998, 220-223|SCHEMBL22568

>  <cas>  (109) 
288-26-6

$$$$

     RDKit          2D

 17 19  0  0  0  0  0  0  0  0999 V2000
    1.9683    3.0962    0.0000 O   0  0  0  0  0  0  0  0  0  0  0  0
    1.3858    1.7140    0.0000 C   0  0  0  0  0  0  0  0  0  0  0  0
   -0.1026    1.5274    0.0000 C   0  0  0  0  0  0  0  0  0  0  0  0
   -0.6851    0.1451    0.0000 C   0  0  0  0  0  0  0  0  0  0  0  0
   -2.1735   -0.0415    0.0000 C   0  0  0  0  0  0  0  0  0  0  0  0
   -3.0793    1.1542    0.0000 C   0  0  0  0  0  0  0  0  0  0  0  0
   -4.5676    0.9676    0.0000 C   0  0  0  0  0  0  0  0  0  0  0  0
   -5.1502   -0.4147    0.0000 C   0  0  0  0  0  0  0  0  0  0  0  0
   -4.2444   -1.6103    0.0000 C   0  0  0  0  0  0  0  0  0  0  0  0
   -2.7561   -1.4237    0.0000 C   0  0  0  0  0  0  0  0  0  0  0  0
    0.2206   -1.0505    0.0000 O   0  0  0  0  0  0  0  0  0  0  0  0
    1.7090   -0.8639    0.0000 C   0  0  0  0  0  0  0  0  0  0  0  0
    2.6148   -2.0595    0.0000 C   0  0  0  0  0  0  0  0  0  0  0  0
    4.1031   -1.8729    0.0000 C   0  0  0  0  0  0  0  0  0  0  0  0
    4.6857   -0.4907    0.0000 C   0  0  0  0  0  0  0  0  0  0  0  0
    3.7799    0.7050    0.0000 C   0  0  0  0  0  0  0  0  0  0  0  0
    2.2916    0.5184    0.0000 C   0  0  0  0  0  0  0  0  0  0  0  0
  1  2  2  0
  2  3  1  0
  3  4  2  0
  4  5  1  0
  5  6  2  0
  6  7  1  0
  7  8  2  0
  8  9  1  0
  9 10  2  0
  4 11  1  0
 11 12  1  0
 12 13  2  0
 13 14  1  0
 14 15  2  0
 15 16  1  0
 16 17  2  0
 17  2  1  0
 10  5  1  0
 17 12  1  0
M  END
>  <identifier>  (110) 
CNP0216699.0

>  <canonical_smiles>  (110) 
O=C1C=C(C2=CC=CC=C2)OC2=CC=CC=C12

>  <standard_inchi>  (110) 
InChI=1S/C15H10O2/c16-13-10-15(11-6-2-1-3-7-11)17-14-9-5-4-8-12(13)14/h1-10H

>  <standard_inchi_key>  (110) 
VHBFFQKBGNRLFZ-UHFFFAOYSA-N

>  <name>  (110) 
FLAVONE

>  <iupac_name>  (110) 
2-phenylchromen-4-one

>  <annotation_level>  (110) 
5

>  <total_atom_count>  (110) 
27

>  <heavy_atom_count>  (110) 
17

>  <molecular_weight>  (110) 
222.24

>  <exact_molecular_weight>  (110) 
222.06808

>  <molecular_formula>  (110) 
C15H10O2

>  <alogp>  (110) 
3.46

>  <topological_polar_surface_area>  (110) 
30.21

>  <rotatable_bond_count>  (110) 
1

>  <hydrogen_bond_acceptors>  (110) 
2

>  <hydrogen_bond_donors>  (110) 
0

>  <hydrogen_bond_acceptors_lipinski>  (110) 
2

>  <hydrogen_bond_donors_lipinski>  (110) 
0

>  <lipinski_rule_of_five_violations>  (110) 
0

>  <aromatic_rings_count>  (110) 
3

>  <qed_drug_likeliness>  (110) 
0.63

>  <formal_charge>  (110) 
0

>  <fractioncsp3>  (110) 
0.00

>  <number_of_minimal_rings>  (110) 
3

>  <van_der_walls_volume>  (110) 
196.96

>  <contains_sugar>  (110) 
False

>  <contains_ring_sugars>  (110) 
False

>  <contains_linear_sugars>  (110) 
False

>  <murcko_framework>  (110) 
O1c2ccccc2CC=C1c3ccccc3

>  <np_likeness>  (110) 
0.29

>  <chemical_class>  (110) 
Flavonoids

>  <chemical_sub_class>  (110) 
Flavonoids

>  <chemical_super_class>  (110) 
Phenylpropanoids and polyketides

>  <direct_parent_classification>  (110) 
Flavonoids

>  <np_classifier_pathway>  (110) 
Shikimates and Phenylpropanoids

>  <np_classifier_superclass>  (110) 
Flavonoids

>  <np_classifier_class>  (110) 
Flavones

>  <np_classifier_is_glycoside>  (110) 
False

>  <organisms>  (110) 
Acca sellowiana|Amycolatopsis azurea|Anaphalis lactea|Annona muricata|Anthocleista grandiflora|Aplysina cauliformis|Artemisia monosperma|Asphodeline damascena|Asphodeline globifera|Asplenium normale|Brucea javanica|Camellia sinensis|Carpobrotus edulis|Castanea crenata|Centrolobium tomentosum|Cephalonomia gallicola|Ceratophyllum submersum|Chamaemelum nobile|Chelidonura fulvipunctata|Chrysanthemum morifolium|Cipadessa fruticosa|Commelina communis|Conchocarpus heterophyllus|Coriandrum sativum|Daedaleopsis confragosa|Desmodium styracifolium|Dionysia spp.|Dracocephalum kotschyi|Epicoccum nigrum|Feijoa sellowiana|Folium aconiti|Folium aconiti szechenyiani|Ginkgo biloba|Grindelia camporum|Grindelia hirsutula|Helleborus caucasicus|Hemerocallis minor|Herba desmodii styracifolii|Hypoestes serpens|Ilex rotunda|Lespedeza homoloba|Lippia carviodora|Lolium perenne|Lonchocarpus|Medicago sativa|Myrica nana|Oecophylla smaragdina|Orgyia australis postica|Oroxylum indicum|Oryza sativa|Parmelia metastrigosa|Pericarpium citri reticulatae viride|Phoenix dactylifera|Pimelea decora|Pimelea simplex|Plutella xylostella|Pneumatospora obcoronata|Primula denticulata|Primula farinosa|Primula pulverulenta|Primula spp.|Primula veris|Psilostrophe cooperi|Radix tetrastigmatis hemsleyani|Rhizoma paridis|Salvia officinalis|Schkuhria multiflora|Sideritis tragoriganum|Solanum jamaicense|Streptomyces venezuelae|Swertia hickinii|Tilia tomentosa|Tilletia laevis|Trifolium alexandrinum|Widely distributed in plant|Yponomeuta malinellus|garlic

>  <collections>  (110) 
ANPDB|AnalytiCon Discovery NPs|Australian natural products|BitterDB|CMAUP (cCollective molecular activities of useful plants)|ChEBI NPs|ChemSpider NPs|DrugBankNP|ETM (Ethiopian Traditional Medicine) DB|FooDB|GNPS (Global Natural Products Social Molecular Networking)|HIT (Herbal Ingredients Targets)|InflamNat|KNApSaCK|Latin America dataset|NANPDB (Natural Products from Northern African Sources)|NCI DTP data|NPACT|NPASS|NPCARE|NPEdia|NuBBEDB|Phyto4Health|PubChem NPs|Specs Natural Products|StreptomeDB|Super Natural II|TCMDB-Taiwan (Traditional Chinese Medicine database)|TCMID (Traditional Chinese Medicine Integrated Database)|UNPD (Universal Natural Products Database)|WikiData Natural Products

>  <dois>  (110) 
10.1002/CHIN.200505221|10.1002/HLCA.201100165|10.1007/S10529-015-1825-1|10.1007/S11947-012-0877-7|10.1007/S13197-014-1289-7|10.1016/0031-9422(85)80028-5|10.1016/0031-9422(88)83128-5|10.1016/0378-8741(94)90098-1|10.1016/J.ARABJC.2013.12.011|10.1016/J.INDCROP.2018.08.004|10.1016/J.PHYMED.2006.11.027|10.1016/J.PHYTOCHEM.2004.06.038|10.1016/J.PHYTOCHEM.2005.03.024|10.1016/S0031-9422(00)80845-6|10.1016/S0031-9422(00)83176-3|10.1016/j.arabjc.2013.12.011|10.1021/JF0347160|10.1021/NP50103A006|10.1038/SREP32534|10.1055/S-2006-958030|10.1071/ch9640975|10.1111/JIPB.12204|10.1155/2007/45673|10.1590/S0102-695X2010000100002|10.22376/IJPBS.2017.8.3.B691-700|10.3390/MOLECULES24112053|10.3390/MOLECULES24244608|10.4014/JMB.1108.08012|10.4014/jmb.1108.08012

>  <synonyms>  (110) 
11091-19-3|2-Phenyl-4-benzopyron|2-Phenyl-4H-1-benzopyran-4-one|2-Phenyl-4H-chromen-4-one|2-Phenyl-gamma-benzopyrone|2-Phenylbenzopyran-4-one|2-Phenylchromone|2-phenyl-1,4-benzopyrone|2-phenyl-4H-chromone|2-phenylchromen-4-one|4H-1-Benzopyran-4-one, 2-phenyl-|4hki|5-17-10-00552 (Beilstein Handbook Reference)|525-82-6|6CC153EB-39A6-42FC-BE96-C8BF1D585E27|A829155|AC-35144|ACon1_000055|AKOS000603572|AS-58464|Asmacoril|BDBM50028962|BIDD:ER0515|BRD-K86741145-001-01-5|BRN 0157598|C10043|CAS-525-82-6|CBiol_000263|CCG-214679|CCRIS 4288|CHEBI:42491|CHEMBL275638|CS-0022637|CU-00000000060-1|Chromocor|Cromaril|DB-052142|DB07776|DTXCID602048|DTXSID2022048|EINECS 208-383-8|EN300-18246169|F-2700|F0015|FLAVONE [MI]|FLN|FSL0555|Flavon|Flavone (VAN)|Flavone, Flavone|Flavones|GTPL409|HMS1446A06|HMS2269O06|HMS3604K19|HY-N2424|ICCB2_000263|IDI1_016673|InChI=1\/C15H10O2\/c16-13-10-15(11-6-2-1-3-7-11)17-14-9-5-4-8-12(13)14\/h1-10|L001213|LMPK12110097|MEGxp0_001685|MFCD00006825|MLS002177804|MLS002473400|MLS002638647|Maybridge3_005286|NCGC00090962-05|NCGC00168837-01|NCGC00260532-01|NS00007856|NSC 19028|NSC-19028|Q2742033|S2V45N7G3B|SCHEMBL18879|SMR000112315|STK164205|SY012830|Tox21_202987|Tox21_400059|UNII-S2V45N7G3B|Widely distributed in plant|bmse000945|flavone|s3967

>  <cas>  (110) 
525-82-6|11091-19-3

$$$$

     RDKit          2D

 16 17  0  0  0  0  0  0  0  0999 V2000
    5.0866    0.9634    0.0000 C   0  0  0  0  0  0  0  0  0  0  0  0
    3.6630    0.4906    0.0000 C   0  0  0  0  0  0  0  0  0  0  0  0
    2.5418    1.4870    0.0000 C   0  0  0  0  0  0  0  0  0  0  0  0
    1.1182    1.0142    0.0000 C   0  0  0  0  0  0  0  0  0  0  0  0
   -0.0030    2.0106    0.0000 C   0  0  0  0  0  0  0  0  0  0  0  0
   -1.4265    1.5378    0.0000 C   0  0  0  0  0  0  0  0  0  0  0  0
   -1.7288    0.0686    0.0000 C   0  0  0  0  0  0  0  0  0  0  0  0
   -3.2195   -0.0980    0.0000 O   0  0  0  0  0  0  0  0  0  0  0  0
   -3.8386    1.2683    0.0000 C   0  0  0  0  0  0  0  0  0  0  0  0
   -2.7304    2.2793    0.0000 O   0  0  0  0  0  0  0  0  0  0  0  0
   -0.6076   -0.9278    0.0000 C   0  0  0  0  0  0  0  0  0  0  0  0
   -0.9099   -2.3971    0.0000 O   0  0  0  0  0  0  0  0  0  0  0  0
   -2.3334   -2.8699    0.0000 C   0  0  0  0  0  0  0  0  0  0  0  0
    0.8160   -0.4550    0.0000 C   0  0  0  0  0  0  0  0  0  0  0  0
    1.9372   -1.4514    0.0000 O   0  0  0  0  0  0  0  0  0  0  0  0
    1.6349   -2.9207    0.0000 C   0  0  0  0  0  0  0  0  0  0  0  0
  1  2  2  0
  2  3  1  0
  3  4  1  0
  4  5  2  0
  5  6  1  0
  6  7  2  0
  7  8  1  0
  8  9  1  0
  9 10  1  0
  7 11  1  0
 11 12  1  0
 12 13  1  0
 11 14  2  0
 14 15  1  0
 15 16  1  0
 14  4  1  0
 10  6  1  0
M  END
>  <identifier>  (111) 
CNP0319842.0

>  <canonical_smiles>  (111) 
C=CCC1=CC2=C(OCO2)C(OC)=C1OC

>  <standard_inchi>  (111) 
InChI=1S/C12H14O4/c1-4-5-8-6-9-11(16-7-15-9)12(14-3)10(8)13-2/h4,6H,1,5,7H2,2-3H3

>  <standard_inchi_key>  (111) 
LIKYNOPXHGPMIH-UHFFFAOYSA-N

>  <name>  (111) 
Dillapiole

>  <iupac_name>  (111) 
6-allyl-4,5-dimethoxy-1,3-benzodioxole

>  <annotation_level>  (111) 
5

>  <total_atom_count>  (111) 
30

>  <heavy_atom_count>  (111) 
16

>  <molecular_weight>  (111) 
222.24

>  <exact_molecular_weight>  (111) 
222.08921

>  <molecular_formula>  (111) 
C12H14O4

>  <alogp>  (111) 
2.16

>  <topological_polar_surface_area>  (111) 
36.92

>  <rotatable_bond_count>  (111) 
4

>  <hydrogen_bond_acceptors>  (111) 
4

>  <hydrogen_bond_donors>  (111) 
0

>  <hydrogen_bond_acceptors_lipinski>  (111) 
4

>  <hydrogen_bond_donors_lipinski>  (111) 
0

>  <lipinski_rule_of_five_violations>  (111) 
0

>  <aromatic_rings_count>  (111) 
1

>  <qed_drug_likeliness>  (111) 
0.73

>  <formal_charge>  (111) 
0

>  <fractioncsp3>  (111) 
0.33

>  <number_of_minimal_rings>  (111) 
2

>  <van_der_walls_volume>  (111) 
204.01

>  <contains_sugar>  (111) 
False

>  <contains_ring_sugars>  (111) 
False

>  <contains_linear_sugars>  (111) 
False

>  <murcko_framework>  (111) 
O1c2ccccc2OC1

>  <np_likeness>  (111) 
0.90

>  <chemical_class>  (111) 
Benzodioxoles

>  <chemical_sub_class>  (111) 
Benzodioxoles

>  <chemical_super_class>  (111) 
Organoheterocyclic compounds

>  <direct_parent_classification>  (111) 
Benzodioxoles

>  <np_classifier_pathway>  (111) 
Shikimates and Phenylpropanoids

>  <np_classifier_superclass>  (111) 
Phenylpropanoids (C6-C3)

>  <np_classifier_class>  (111) 
Cinnamic acids and derivatives

>  <np_classifier_is_glycoside>  (111) 
False

>  <organisms>  (111) 
Aconitum leucostomum|Actinomadura hibisca|Amycolatopsis azurea|Anarsia lineatella|Anastrepha suspensa|Anethum Graveolens|Anethum graveolens|Anethum sowa|Aniba ferrea|Apium graveolens|Aplysina cauliformis|Apollonias barbujana|Aquilegia ecalcarata|Artemisia dracunculus|Artemisia hanseniana|Asarum yaeyamense|Aspergillus caespitosus|Asplenium normale|Astilbe koreana|Blumea mollis|Boronia muelleri|Brucea javanica|Bunium persicum|Burkholderia cepacia|Carpobrotus edulis|Carum montanum|Cassia carnaval|Castanea crenata|Ceanothus velutinus|Centrolobium tomentosum|Cephalonomia gallicola|Ceratophyllum submersum|Chelidonura fulvipunctata|Chlorophytum borivilianum|Codonopsis cordifolioidea|Colchicum macedonicum|Conoideocrella tenuis|Coprosma acerosa|Coptis deltoidea|Coriandrum sativum|Cranfillia vulcanica|Crithmum maritimum|Cuminum cyminum|Cyanospira rippkae|Cymathere triplicata|Dalbergia frutescens|Daucus carota subsp. maritimus|Diaporthe phaseolorum|Dicliptera riparia|Dillenia papuana|Dipterocarpus dyeri|Dracocephalum kotschyi|Endicheria aff.|Endlicheria|Erigeron conyzoides|Erigeron sp|Erigeron sp.|Erigeron spp.|Erwinia rhapontici|Euphorbia caducifolia|Euphorbia splendens|Ficus elastica|Foeniculum vulgare|Fragaria vesca|Garcinia scortechinii|Gardenia tubifera|Helianthopsis bishopii|Heterotropa|Hypericum papuanum|Hypselodoris cantabrica|Ilex kaushue|Inula thapsoides|Ipomoea cairica|Isodon lophanthoides|Kaunia arbuscularis|Kopsia grandifolia|Lasianthus fordii|Laurelia serrata|Ledebouria socialis|Leptotaenia multifida|Licaria canella|Ligusticum chuanxiong|Ligusticum scothicum|Ligusticum scoticum|Ligusticum sinense|Limeum pterocarpum|Lippia carviodora|Lunasia costulata|Lupinus formosus|Lycopus europaeus|Macrocystidia cucumis|Mangifera indica|Masla dianthera|Mespilodaphne cymbarum|Mosla dianthera|Myrica nana|Nerita albicilla|Ocotea aciphylla|Oecophylla smaragdina|Orthodon formosanus|Oxandra xylopioides|Palicourea alpina|Panax innovans|Parmelia enteromorpha|Parmelia metastrigosa|Penicillium cinerascens|Peperomia pellucida|Perilla frutescens|Perilla frutescens var. acuta|Perilla frutescens var. crispa|Persea mexicana|Persicaria thunbergii|Peucedanum zenkeri|Pimpinella serbica|Piper aduncum|Piper auritum|Piper marginatum|Piper neesii|Piper nigrum|Piper novae-hollandiae|Piper nove|Piper nove-hollandae|Piper pedicellosum|Piper regnellii|Piper solmsianum|Piper spp.|Piperaceae|Pneumatospora obcoronata|Posoqueria latifolia|Protium heptaphyllum|Psilostrophe cooperi|Rhodobacter sphaeroides|Rhodomyrtus tomentosa|Rudbeckia speciosa|Salix sieboldiana|Salvia xalapensis|Sambucus ebulus|Scrophularia smithii|Sideritis tragoriganum|Solanum jamaicense|Solanum torvum|Sordaria araneosa|Streptomyces fulvoviridis|Tanacetum santolinoides|Trifolium alexandrinum|Trifolium alexandrium|Trifolium pratense|Tylophora flava|West African Pepper|Woodsia manchuriensis|Wunderlichia mirabilis|Yponomeuta malinellus|Zilla spinosa

>  <collections>  (111) 
ANPDB|Australian natural products|CMAUP (cCollective molecular activities of useful plants)|ChEBI NPs|ETM (Ethiopian Traditional Medicine) DB|FooDB|InflamNat|KNApSaCK|Latin America dataset|NANPDB (Natural Products from Northern African Sources)|NPASS|NPEdia|NuBBEDB|Phyto4Health|Super Natural II|TCMDB-Taiwan (Traditional Chinese Medicine database)|TCMID (Traditional Chinese Medicine Integrated Database)|UNPD (Universal Natural Products Database)|VietHerb|WikiData Natural Products

>  <dois>  (111) 
10.1002/(SICI)1099-1026(199909/10)14:5<312::AID-FFJ835>3.0.CO;2-B|10.1002/1099-1026(200005/06)15:3<186::AID-FFJ889>3.0.CO;2-I|10.1002/FFJ.2730070309|10.1002/PTR.2820|10.1002/cbdv.200800144/|10.1002/ptr.2820|10.1002/ptr.2820/abstract|10.1006/JFCA.1999.0841|10.1007/BF02033462|10.1007/BF02976556|10.1007/BF03173943|10.1007/S12272-015-0582-Y|10.1007/bf02976556|10.1016/0031-9422(80)83081-0|10.1016/0031-9422(86)80017-6|10.1016/0031-9422(86)80070-X|10.1016/0031-9422(88)83069-3|10.1016/0031-9422(89)80078-0|10.1016/0031-9422(90)85066-O|10.1016/J.BSE.2010.01.009|10.1016/J.FITOTE.2020.104544|10.1016/J.FOODRES.2018.12.054|10.1016/S0031-9422(00)00224-7|10.1016/S0031-9422(00)00295-8|10.1016/S0031-9422(00)81240-6|10.1016/S0031-9422(82)85050-4|10.1016/S0031-9422(98)00208-8|10.1016/S0031-9422(99)00177-6|10.1016/j.indcrop.2016.11.042|10.1021/JF00083A001|10.1021/JF0402633|10.1021/NP030507Y|10.1021/NP030507Y.S001|10.1021/NP50046A033|10.1021/np1004278|10.1055/S-2006-959758|10.1055/S-2007-969883|10.1071/ch9690751|10.1080/10412905.1991.9697936|10.1080/10412905.1991.9697937|10.1080/10412905.1994.9698344|10.1080/10412905.1995.9698456|10.1080/10412905.1995.9698468|10.1080/10412905.1995.9698505|10.1080/10412905.1995.9698581|10.1080/10412905.1996.9700565|10.1089/JMF.2008.0327|10.1248/BPB.22.598|10.1248/CPB.36.3153|10.1248/YAKUSHI1881.59.5_313|10.1248/YAKUSHI1947.107.3_209|10.1248/YAKUSHI1947.107.3_219|10.1515/ZNC-1984-7-803|10.3109/13880209.2011.575793|10.3109/13880209109082850|10.3390/12030389|10.5012/BKCS.2012.33.1.278

>  <synonyms>  (111) 
1,3-Benzodioxole, 4,5-dimethoxy-6-(2-propenyl)-|1-Allyl-2,3-dimethoxy-4,5-methylenedioxybenzene|4,5-Dimethoxy-6-(2-propenyl)-1,3-benzodioxole|4,5-dimethoxy-6-prop-2-enyl-1,3-benzodioxole|438CJQ562D|484-31-1|5-Allyl 6,7-dimethoxy 1,3-benzodioxole|6-Allyl-4,5-dimethoxy-1,3-benzodioxole|6-allyl-4,5-dimethoxybenzo[d][1,3]dioxole|8025-95-4|AKOS005602275|APIOLE (DILL) [MI]|APIOLE, DILL|Apiol, liquid|Apiole (dill)|BDBM50242106|BENZENE, 1-ALLYL-2,3-DIMETHOXY-4,5-(METHYLENEDIOXY)-|BRN 0196037|CHEBI:70453|CHEMBL470874|CS-0360943|DTXSID80862007|Dillapiol|Dillapiole, analytical standard|LIKYNOPXHGPMIH-UHFFFAOYSA-N|MFCD00210045|NS00123152|Parsley fruit oleoresin|Parsley oleoresin|Piperaceae|Q419537|Resins, oleo-, parsley|SCHEMBL310992|STK689576|UNII-438CJQ562D|dillapiole

>  <cas>  (111) 
484-31-1|8025-95-4

$$$$

     RDKit          2D

 21 23  0  0  0  0  0  0  0  0999 V2000
   -5.0787    1.9404    0.0000 C   0  0  0  0  0  0  0  0  0  0  0  0
   -4.5684    0.5299    0.0000 C   0  0  0  0  0  0  0  0  0  0  0  0
   -5.5348   -0.6173    0.0000 C   0  0  0  0  0  0  0  0  0  0  0  0
   -3.0917    0.2665    0.0000 C   0  0  0  0  0  0  0  0  0  0  0  0
   -2.1253    1.4137    0.0000 C   0  0  0  0  0  0  0  0  0  0  0  0
   -0.6485    1.1504    0.0000 C   0  0  0  0  0  0  0  0  0  0  0  0
   -0.1382   -0.2601    0.0000 C   0  0  0  0  0  0  0  0  0  0  0  0
   -1.1046   -1.4073    0.0000 C   0  0  0  0  0  0  0  0  0  0  0  0
   -2.5814   -1.1440    0.0000 C   0  0  0  0  0  0  0  0  0  0  0  0
   -3.5478   -2.2912    0.0000 O   0  0  0  0  0  0  0  0  0  0  0  0
    1.3385   -0.5235    0.0000 C   0  0  0  0  0  0  0  0  0  0  0  0
    0.3721   -1.6706    0.0000 C   0  0  0  0  0  0  0  0  0  0  0  0
    1.8488   -1.9340    0.0000 C   0  0  0  0  0  0  0  0  0  0  0  0
    3.3255   -2.1973    0.0000 C   0  0  0  0  0  0  0  0  0  0  0  0
    4.2919   -1.0501    0.0000 C   0  0  0  0  0  0  0  0  0  0  0  0
    3.7816    0.3604    0.0000 C   0  0  0  0  0  0  0  0  0  0  0  0
    3.7845    1.8604    0.0000 C   0  0  0  0  0  0  0  0  0  0  0  0
    5.2593    0.6180    0.0000 C   0  0  0  0  0  0  0  0  0  0  0  0
    2.3049    0.6237    0.0000 C   0  0  0  0  0  0  0  0  0  0  0  0
    1.7946    2.0343    0.0000 C   0  0  0  0  0  0  0  0  0  0  0  0
    0.3179    2.2976    0.0000 C   0  0  0  0  0  0  0  0  0  0  0  0
  1  2  1  0
  2  3  1  0
  2  4  1  0
  4  5  2  0
  5  6  1  0
  6  7  2  0
  7  8  1  0
  8  9  2  0
  9 10  1  0
  7 11  1  0
 11 12  1  1
 11 13  1  0
 13 14  1  0
 14 15  1  0
 15 16  1  0
 16 17  1  0
 16 18  1  0
 16 19  1  0
 19 20  1  1
 20 21  1  0
  9  4  1  0
 19 11  1  0
 21  6  1  0
M  END
>  <identifier>  (112) 
CNP0201801.2

>  <canonical_smiles>  (112) 
CC(C)C1=CC2=C(C=C1O)[C@@]1(C)CCCC(C)(C)[C@@H]1CC2

>  <standard_inchi>  (112) 
InChI=1S/C20H30O/c1-13(2)15-11-14-7-8-18-19(3,4)9-6-10-20(18,5)16(14)12-17(15)21/h11-13,18,21H,6-10H2,1-5H3/t18-,20+/m0/s1

>  <standard_inchi_key>  (112) 
QXNWVJOHUAQHLM-AZUAARDMSA-N

>  <name>  (112) 
Ferruginol

>  <iupac_name>  (112) 
(4~{b}~{S},8~{a}~{S})-2-isopropyl-4~{b},8,8-trimethyl-5,6,7,8~{a},9,10-hexahydrophenanthren-3-ol

>  <annotation_level>  (112) 
5

>  <total_atom_count>  (112) 
51

>  <heavy_atom_count>  (112) 
21

>  <molecular_weight>  (112) 
286.46

>  <exact_molecular_weight>  (112) 
286.22967

>  <molecular_formula>  (112) 
C20H30O

>  <alogp>  (112) 
5.55

>  <topological_polar_surface_area>  (112) 
20.23

>  <rotatable_bond_count>  (112) 
1

>  <hydrogen_bond_acceptors>  (112) 
1

>  <hydrogen_bond_donors>  (112) 
1

>  <hydrogen_bond_acceptors_lipinski>  (112) 
1

>  <hydrogen_bond_donors_lipinski>  (112) 
1

>  <lipinski_rule_of_five_violations>  (112) 
1

>  <aromatic_rings_count>  (112) 
1

>  <qed_drug_likeliness>  (112) 
0.72

>  <formal_charge>  (112) 
0

>  <fractioncsp3>  (112) 
0.70

>  <number_of_minimal_rings>  (112) 
3

>  <van_der_walls_volume>  (112) 
296.95

>  <contains_sugar>  (112) 
False

>  <contains_ring_sugars>  (112) 
False

>  <contains_linear_sugars>  (112) 
False

>  <murcko_framework>  (112) 
c1ccc2c(c1)CCC3CCCCC23

>  <np_likeness>  (112) 
2.35

>  <chemical_class>  (112) 
Prenol lipids

>  <chemical_sub_class>  (112) 
Diterpenoids

>  <chemical_super_class>  (112) 
Lipids and lipid-like molecules

>  <direct_parent_classification>  (112) 
Diterpenoids

>  <np_classifier_pathway>  (112) 
Terpenoids

>  <np_classifier_superclass>  (112) 
Diterpenoids

>  <np_classifier_class>  (112) 
Abietane diterpenoids

>  <np_classifier_is_glycoside>  (112) 
False

>  <organisms>  (112) 
Acacia myrtifolia|Aconitum ibukiense|Agathis robusta|Agathosma thymifolia|Allochromatium minutissimum|Amentotaxus formosana|Amentotaxus yunnanensis|Anacardium humile|Aniba firmula|Apis mellifera ligustica|Aralia continentalis|Artemisia siversiana|Betula divaricata|Breonia chinensis|Calocedrus formosana|Calocedrus macrolepis|Camptothecium lutescens|Campylospermum flavum|Campylotropis hirtella|Cephalotaxus harringtonia var.drupacea|Ceropegia dichotoma|Chamaecyparis formosensis|Chamaecyparis lawsoniana|Chamaecyparis obtusa|Chamaecyparis pisifera|Cladonia bellidiflora|Clerodendrum tomentosum|Coleus barbatus|Complex-toothed flying squirrel|Coprosma australis|Crepis zacintha|Crinum moorei|Crotalaria candicans|Cryptomeria japonica|Cryptomeria japonica D.DON.|Ctenodiscus crispatus|Cupressus arizonica|Cupressus sempervirens|Decachaeta ovatifolia|Deguelia hatschbachii|Delphinium cyphoplectrum|Dendrobium loddigesii|Didemnum obscurum|Dioscorea communis|Distephanus angulifolius|Dysoxylum lenticellare|Echinops kebericho|Edgeworthia chrysantha|Eria japonica|Eria macrophylla|Eucalyptus apodophylla|Eucalyptus globulus subsp. bicostata|Euphorbia retusa|Fevillea trilobata|Fokienia hodginsii|Fraxinus mandschurica|Fuerstia africana|Glaucium oxylobum|Glycine falcata|Glycosmis macrophylla|Graphis handelii|Gypsophila perfoliata|Haliotis diversicolor|Harpagophytum procumbens|Hedyotis acutangula|Herniaria fontanesii|Hydrolithon reinboldii|Hypericum polyanthemum|Illicium anisatum|Inula royleana|Isodon serra|Juniperus chinensis|Juniperus communis|Juniperus drupacea|Juniperus excelsa|Juniperus formosana|Juniperus formosana Hay.var.concolor Hay|Juniperus phoenicea|Juniperus procera|Juniperus rigida|Juniperus scopulorum|Koelpinia linearis|Lechevalieria flava|Liatris tenuifolia|Lysimachia candida|Martensia denticulata|Melodorum oldhamii|Mentha cardiaca|Mycetinis alliaceus|Nicotiana trigonophylla|Notholaena dealbata|Ononis spinosa|Pachysandra terminalis|Palmaria palmata|Pentaclethra macrophylla|Periploca sepium|Persicaria filiformis|Petasites spurius|Phallusia fumigata|Picradeniopsis pringlei|Platycladus orientalis|Plectranthus barbatus|Plectranthus myrianthus|Pleurophycus gardneri|Podocarpus ferrugineus|Polystictus versicolor|Premna herbacea|Premna serratifolia|Prumnopitys andina|Prumnopitys ferruginea|Prumnopitys taxifolia|Pterocaulon virgatum|Rhabdia lycioides|Rhaphiolepis umbellata|Rhodiola semenovii|Ritterella rubra|Salvia Miltiorrhiza|Salvia amplexicaulis|Salvia amplexicaulis Lam.|Salvia apiana|Salvia argentea|Salvia blepharochaena Hedge and Hub.Mor.|Salvia blepharochlaena|Salvia bracteata|Salvia bracteata Banks and Sol.|Salvia broussonetii|Salvia caespitosa|Salvia caespitosa Montbret and Aucher ex.Bentham|Salvia candidissima|Salvia ceratophylla|Salvia ceratophylla L.|Salvia cilicica|Salvia cyanescens|Salvia deserta|Salvia deserti|Salvia dorystaechas|Salvia eriophora|Salvia eriophora Boiss and Kotschy|Salvia fruticosa|Salvia hypargeia|Salvia jaminiana|Salvia kronenburgii|Salvia lanigera|Salvia limbata|Salvia microstegia|Salvia miltiorrhiza|Salvia montbretii|Salvia multicaulis|Salvia munzii|Salvia napifolia|Salvia officinalis|Salvia pisidica|Salvia prionitis|Salvia przewalskii|Salvia recognita|Salvia recognita Fisch.et Mey.|Salvia sahendica|Salvia sclarea|Salvia sessei|Salvia staminea|Salvia syriaca|Salvia syriaca L.|Salvia tiliaefolia|Salvia tomentosa|Salvia trijuga|Salvia triloba|Salvia virgata|Salvia viridis|Salvia viridis L.|Salvia wiedemannii|Salvia yunnanensis|Salvinia molesta|Saussurea candicans|Scutellaria baicalensis|Sequoia sempervirens|Sonneratia caseolaris|Sphaerellopsis filum|Stauntonia obovatifoliola|Stephania zippeliana|Streptomyces cyaneus|Streptomyces lateritius|Stylotrichium rotundifolium|Taiwania cryptomerioides|Talaromyces variabilis|Taxodium distichum|Tetraclinis articulata|Teucrium polium|Thuja occidentalis|Thuja plicata|Thuja standishii|Thujopsis dolabrata|Torreya nucifera|Torreya nucifera var. radicans|Torreya nucifera var.radicans|Trichocereus bridgesii|Tristania conferta|Trogopterus xanthipes|Uvaria klaineana|Vernonia cistifolia|Veronica polita|Viburnum jucundum|Viburnum sieboldi|Vicia sativa|Vitex rotundifolia|fokienia hodginsii

>  <collections>  (112) 
ANPDB|AnalytiCon Discovery NPs|Australian natural products|CMAUP (cCollective molecular activities of useful plants)|ChEBI NPs|KNApSaCK|Latin America dataset|Mitishamba database|NANPDB (Natural Products from Northern African Sources)|NPASS|NPEdia|NuBBEDB|Phyto4Health|Super Natural II|TCMDB-Taiwan (Traditional Chinese Medicine database)|TIPdb (database of Taiwan indigenous plants)|VietHerb|WikiData Natural Products|ZINC NP

>  <dois>  (112) 
10.1002/CHIN.200431150|10.1002/HLCA.200390214|10.1002/JCCS.197500043|10.1002/JCCS.200300022|10.1002/PTR.2650060508|10.1002/PTR.2650090810|10.1007/BF00629881|10.1007/BF00831355|10.1016/0031-9422(86)88014-1|10.1016/0031-9422(89)80294-8|10.1016/0031-9422(90)83071-8|10.1016/0031-9422(91)83665-8|10.1016/0031-9422(91)85075-B|10.1016/0031-9422(92)83130-Q|10.1016/0031-9422(92)83131-H|10.1016/0031-9422(92)83493-I|10.1016/0031-9422(92)83745-K|10.1016/0031-9422(93)85043-Q|10.1016/0031-9422(95)00298-L|10.1016/0031-9422(95)00358-E|10.1016/0031-9422(95)00416-5|10.1016/0031-9422(95)00795-4|10.1016/0031-9422(96)00248-8|10.1016/J.BMC.2010.09.035|10.1016/J.BMC.2011.06.067|10.1016/J.BMCL.2005.02.057|10.1016/J.BMCL.2013.10.040|10.1016/J.FITOTE.2005.03.011|10.1016/J.LFS.2005.10.018|10.1016/J.PHYTOCHEM.2005.11.005|10.1016/J.PHYTOCHEM.2005.12.023|10.1016/J.PHYTOCHEM.2006.10.001|10.1016/J.PHYTOCHEM.2010.08.012|10.1016/J.TET.2011.11.058|10.1016/S0021-9673(01)88770-7|10.1016/S0031-9422(00)80268-X|10.1016/S0031-9422(00)81063-8|10.1016/S0031-9422(00)81143-7|10.1016/S0031-9422(00)81178-4|10.1016/S0031-9422(00)81221-2|10.1016/S0031-9422(00)81826-9|10.1016/S0031-9422(00)82385-7|10.1016/S0031-9422(00)82471-1|10.1016/S0031-9422(00)84973-0|10.1016/S0031-9422(00)86934-4|10.1016/S0031-9422(00)86969-1|10.1016/S0031-9422(00)89538-2|10.1016/S0031-9422(00)90474-6|10.1016/S0031-9422(00)90849-5|10.1016/S0031-9422(00)94837-4|10.1016/S0031-9422(00)95156-2|10.1016/S0031-9422(00)97023-7|10.1016/S0031-9422(00)98103-2|10.1016/S0031-9422(01)00390-9|10.1016/S0031-9422(02)00361-8|10.1016/S0031-9422(03)00225-5|10.1016/S0031-9422(96)00709-1|10.1016/S0031-9422(97)00146-5|10.1016/S0031-9422(97)00312-9|10.1016/S0031-9422(97)00540-2|10.1016/S0031-9422(97)01056-X|10.1016/S0031-9422(98)00577-9|10.1016/S0031-9422(99)00074-6|10.1016/S0031-9422(99)00343-X|10.1016/S0031-9422(99)00453-7|10.1016/S0040-4020(01)87965-5|10.1016/S0040-4020(01)88671-3|10.1016/S0040-4039(00)80633-4|10.1016/S0040-4039(00)90571-9|10.1016/S0305-1978(00)00047-8|10.1016/S0944-7113(99)80009-9|10.1016/j.bmc.2011.06.067|10.1016/j.bmcl.2013.10.040|10.1016/j.bse.2005.08.002|10.1016/j.bse.2006.09.013|10.1016/j.bse.2007.05.009|10.1021/JF058045C|10.1021/NP0004956|10.1021/NP0204949|10.1021/NP050368F|10.1021/NP058090E|10.1021/NP0601612|10.1021/NP400010C|10.1021/NP50082A006|10.1021/NP50121A011|10.1021/NP900814S|10.1021/NP9602224|10.1021/NP960389X|10.1021/NP960513C|10.1021/NP990204X|10.1021/acs.jnatprod.5b01131|10.1021/np0004956|10.1021/np400010c|10.1021/np900814s|10.1021/np990204x|10.1039/C39850000121|10.1055/S-2000-8596|10.1055/S-2000-8629|10.1055/S-2001-18359|10.1055/S-2002-34408|10.1055/S-2003-37037|10.1055/S-2003-39705|10.1055/S-2006-960890|10.1055/S-2006-961622|10.1055/S-2006-962043|10.1055/S-2007-969854|10.1055/S-2007-990233|10.1071/CH9710217|10.1076/PHBI.37.2.148.6082|10.1080/10575630108041297|10.1080/10575639208048902|10.1080/14786419.2010.523827|10.1139/V62-232|10.1248/BPB.31.722|10.1248/CPB.46.107|10.1248/CPB.52.354|10.1248/CPB.53.1575|10.1248/CPB.54.315|10.1271/BBB.70610|10.1271/BBB1961.48.2523|10.1271/BBB1961.51.1449|10.1515/HF.1999.080|10.2478/V10007-009-0022-Y|10.3891/ACTA.CHEM.SCAND.10-1511|10.4067/S0366-16442001000100010|10.4268/CJCMM20111611

>  <synonyms>  (112) 
(+)-Ferruginol|(+)-Ferruginol, (4bS8aS)-2-isopropyl-4b88-trimethyl-4b56788a910-octahydrophenanthren-3-ol|(4BS,8AS)-4B,5,6,7,8,8A,9,10-OCTAHYDRO-4B,8,8-TRIMETHYL-2-(1-METHYLETHYL)-3-PHENANTHRENOL|(4BS,8AS)-4B,8,8-TRIMETHYL-2-(PROPAN-2-YL)-4B,5,6,7,8,8A,9,10-OCTAHYDROPHENANTHREN-3-OL|(4bS,8aS)-2-isopropyl-4b,8,8-trimethyl-5,6,7,8a,9,10-hexahydrophenanthren-3-ol|(4bS,8aS)-4b,8,8-trimethyl-2-propan-2-yl-5,6,7,8a,9,10-hexahydrophenanthren-3-ol|12-hydroxyabieta-8,11,13-triene|3-PHENANTHRENOL, 4B,5,6,7,8,8A,9,10-OCTAHYDRO-4B,8,8-TRIMETHYL-2-(1-METHYLETHYL)-, (4BS-TRANS)-|3-Phenanthrenol, 4b,5,6,7,8,8a,9,10-octahydro-4b,8,8-trimethyl-2-(1-methylethyl)-, (4bS,8aS)-|514-62-5|8,11,13-abietatrien-12-ol|A937505|AC1L9C4T|ACon1_000701|AKOS032948384|AMY22250|Abieta-9(11),8(14),12-trien-12-ol #|BDBM50483056|BRD-K27959543-001-01-3|C09092|CHEBI:78274|CHEMBL197308|CS-0032206|DTXSID20331722|FS-7565|Ferruginol|HY-N6033|MEGxp0_000699|N2CMM6X37M|Podocarpa-8,11,13-trien-12-ol, 13-isopropyl-|Q3743828|SCHEMBL155580|SureCN155580|UNII-N2CMM6X37M|abieta-8,11,13-trien-12-ol|trans-Ferruginol

>  <cas>  (112) 
514-62-5

$$$$

     RDKit          2D

 25 28  0  0  0  0  0  0  0  0999 V2000
    6.6235   -0.9706    0.0000 C   0  0  0  0  0  0  0  0  0  0  0  0
    5.1723   -1.3500    0.0000 C   0  0  0  0  0  0  0  0  0  0  0  0
    4.1181   -0.2830    0.0000 C   0  0  0  0  0  0  0  0  0  0  0  0
    4.3618    1.1971    0.0000 C   0  0  0  0  0  0  0  0  0  0  0  0
    5.7024    1.8700    0.0000 O   0  0  0  0  0  0  0  0  0  0  0  0
    3.0294    1.8862    0.0000 C   0  0  0  0  0  0  0  0  0  0  0  0
    1.9623    0.8320    0.0000 C   0  0  0  0  0  0  0  0  0  0  0  0
    0.4649    0.9196    0.0000 C   0  0  0  0  0  0  0  0  0  0  0  0
   -0.2080    2.2602    0.0000 C   0  0  0  0  0  0  0  0  0  0  0  0
   -1.7054    2.3478    0.0000 C   0  0  0  0  0  0  0  0  0  0  0  0
   -2.5300    1.0948    0.0000 C   0  0  0  0  0  0  0  0  0  0  0  0
   -4.0274    1.1824    0.0000 C   0  0  0  0  0  0  0  0  0  0  0  0
   -4.7003    2.5230    0.0000 O   0  0  0  0  0  0  0  0  0  0  0  0
   -4.8520   -0.0706    0.0000 C   0  0  0  0  0  0  0  0  0  0  0  0
   -6.3495    0.0170    0.0000 O   0  0  0  0  0  0  0  0  0  0  0  0
   -4.1792   -1.4113    0.0000 C   0  0  0  0  0  0  0  0  0  0  0  0
   -5.0037   -2.6643    0.0000 O   0  0  0  0  0  0  0  0  0  0  0  0
   -2.6817   -1.4988    0.0000 C   0  0  0  0  0  0  0  0  0  0  0  0
   -1.8571   -0.2458    0.0000 C   0  0  0  0  0  0  0  0  0  0  0  0
   -1.1843   -1.5864    0.0000 C   0  0  0  0  0  0  0  0  0  0  0  0
   -0.3597   -0.3334    0.0000 C   0  0  0  0  0  0  0  0  0  0  0  0
    0.3132   -1.6740    0.0000 C   0  0  0  0  0  0  0  0  0  0  0  0
    1.8106   -1.7616    0.0000 C   0  0  0  0  0  0  0  0  0  0  0  0
    2.6352   -0.5086    0.0000 C   0  0  0  0  0  0  0  0  0  0  0  0
    3.4445   -1.7716    0.0000 C   0  0  0  0  0  0  0  0  0  0  0  0
  1  2  1  0
  3  2  1  6
  3  4  1  0
  4  5  2  0
  4  6  1  0
  7  6  1  6
  7  8  1  0
  8  9  1  1
  9 10  1  0
 11 10  1  6
 11 12  1  0
 12 13  1  6
 12 14  1  0
 14 15  1  6
 14 16  1  0
 16 17  1  6
 16 18  1  0
 18 19  1  0
 19 20  1  6
 19 21  1  0
 21 22  1  6
 22 23  1  0
 23 24  1  0
 24 25  1  6
 24  3  1  0
 24  7  1  0
 21  8  1  0
 19 11  1  0
M  END
>  <identifier>  (113) 
CNP0421515.6

>  <canonical_smiles>  (113) 
CC[C@H]1C(=O)C[C@H]2[C@@H]3CC[C@H]4[C@@H](O)[C@@H](O)[C@@H](O)C[C@]4(C)[C@H]3CC[C@]12C

>  <standard_inchi>  (113) 
InChI=1S/C21H34O4/c1-4-12-16(22)9-15-11-5-6-14-18(24)19(25)17(23)10-21(14,3)13(11)7-8-20(12,15)2/h11-15,17-19,23-25H,4-10H2,1-3H3/t11-,12+,13+,14+,15+,17+,18-,19+,20-,21-/m1/s1

>  <standard_inchi_key>  (113) 
JHBBZIAPXDEPET-IBKFOYENSA-N

>  <name>  (113) 
nan

>  <iupac_name>  (113) 
(2~{S},3~{S},4~{R},5~{R},8~{R},9~{S},10~{R},13~{S},14~{S},17~{R})-17-ethyl-2,3,4-trihydroxy-10,13-dimethyl-1,2,3,4,5,6,7,8,9,11,12,14,15,17-tetradecahydrocyclopenta[a]phenanthren-16-one

>  <annotation_level>  (113) 
4

>  <total_atom_count>  (113) 
59

>  <heavy_atom_count>  (113) 
25

>  <molecular_weight>  (113) 
350.5

>  <exact_molecular_weight>  (113) 
350.24571

>  <molecular_formula>  (113) 
C21H34O4

>  <alogp>  (113) 
2.54

>  <topological_polar_surface_area>  (113) 
77.76

>  <rotatable_bond_count>  (113) 
1

>  <hydrogen_bond_acceptors>  (113) 
4

>  <hydrogen_bond_donors>  (113) 
3

>  <hydrogen_bond_acceptors_lipinski>  (113) 
4

>  <hydrogen_bond_donors_lipinski>  (113) 
3

>  <lipinski_rule_of_five_violations>  (113) 
0

>  <aromatic_rings_count>  (113) 
0

>  <qed_drug_likeliness>  (113) 
0.68

>  <formal_charge>  (113) 
0

>  <fractioncsp3>  (113) 
0.95

>  <number_of_minimal_rings>  (113) 
4

>  <van_der_walls_volume>  (113) 
nan

>  <contains_sugar>  (113) 
False

>  <contains_ring_sugars>  (113) 
False

>  <contains_linear_sugars>  (113) 
False

>  <murcko_framework>  (113) 
C1CCC2C(C1)CCC3C4CCCC4CCC23

>  <np_likeness>  (113) 
2.65

>  <chemical_class>  (113) 
Steroids and steroid derivatives

>  <chemical_sub_class>  (113) 
Pregnane steroids

>  <chemical_super_class>  (113) 
Lipids and lipid-like molecules

>  <direct_parent_classification>  (113) 
Gluco\/mineralocorticoids, progestogins and derivatives

>  <np_classifier_pathway>  (113) 
Terpenoids

>  <np_classifier_superclass>  (113) 
Steroids

>  <np_classifier_class>  (113) 
Pregnane steroids

>  <np_classifier_is_glycoside>  (113) 
False

>  <organisms>  (113) 
Cipadessa baccifera|Melia azedarach|Trichilia claussenii

>  <collections>  (113) 
Australian natural products|Latin America dataset|NuBBEDB|Super Natural II|WikiData Natural Products

>  <dois>  (113) 
10.1016/S0031-9422(00)00247-8|10.1016/S0031-9422(97)00167-2|10.1021/np1000472

>  <synonyms>  (113) 
2\u221a\u00e9\u00ac\u22643\u221a\u00e9\u00ac\u22644\u221a\u00e9\u00ac\u2264-Trihydroxypregnan-16-one

>  <cas>  (113) 
nan

$$$$

     RDKit          2D

 23 26  0  0  0  0  0  0  0  0999 V2000
    0.3538   -2.6881    0.0000 C   0  0  0  0  0  0  0  0  0  0  0  0
    0.9455   -1.3097    0.0000 N   0  0  0  0  0  0  0  0  0  0  0  0
    2.4351   -1.1331    0.0000 C   0  0  0  0  0  0  0  0  0  0  0  0
    3.3329   -2.3347    0.0000 C   0  0  0  0  0  0  0  0  0  0  0  0
    4.8224   -2.1581    0.0000 C   0  0  0  0  0  0  0  0  0  0  0  0
    5.4142   -0.7797    0.0000 C   0  0  0  0  0  0  0  0  0  0  0  0
    4.5164    0.4219    0.0000 C   0  0  0  0  0  0  0  0  0  0  0  0
    3.0269    0.2452    0.0000 C   0  0  0  0  0  0  0  0  0  0  0  0
    2.1291    1.4469    0.0000 C   0  0  0  0  0  0  0  0  0  0  0  0
    2.7209    2.8252    0.0000 O   0  0  0  0  0  0  0  0  0  0  0  0
    0.6395    1.2702    0.0000 C   0  0  0  0  0  0  0  0  0  0  0  0
   -0.2582    2.4719    0.0000 C   0  0  0  0  0  0  0  0  0  0  0  0
    0.3335    3.8502    0.0000 O   0  0  0  0  0  0  0  0  0  0  0  0
   -1.7478    2.2952    0.0000 C   0  0  0  0  0  0  0  0  0  0  0  0
   -2.3396    0.9169    0.0000 C   0  0  0  0  0  0  0  0  0  0  0  0
   -3.8291    0.7402    0.0000 O   0  0  0  0  0  0  0  0  0  0  0  0
   -4.4209   -0.6381    0.0000 C   0  0  0  0  0  0  0  0  0  0  0  0
   -5.4484   -1.7309    0.0000 C   0  0  0  0  0  0  0  0  0  0  0  0
   -5.6755    0.1840    0.0000 C   0  0  0  0  0  0  0  0  0  0  0  0
   -3.5231   -1.8398    0.0000 C   0  0  0  0  0  0  0  0  0  0  0  0
   -2.0336   -1.6631    0.0000 C   0  0  0  0  0  0  0  0  0  0  0  0
   -1.4418   -0.2848    0.0000 C   0  0  0  0  0  0  0  0  0  0  0  0
    0.0478   -0.1081    0.0000 C   0  0  0  0  0  0  0  0  0  0  0  0
  1  2  1  0
  2  3  1  0
  3  4  2  0
  4  5  1  0
  5  6  2  0
  6  7  1  0
  7  8  2  0
  8  9  1  0
  9 10  2  0
  9 11  1  0
 11 12  2  0
 12 13  1  0
 12 14  1  0
 14 15  2  0
 15 16  1  0
 16 17  1  0
 17 18  1  0
 17 19  1  0
 17 20  1  0
 20 21  2  0
 21 22  1  0
 22 23  2  0
 23  2  1  0
  8  3  1  0
 23 11  1  0
 22 15  1  0
M  END
>  <identifier>  (114) 
CNP0385863.0

>  <canonical_smiles>  (114) 
CN1C2=CC=CC=C2C(=O)C2=C(O)C=C3OC(C)(C)C=CC3=C21

>  <standard_inchi>  (114) 
InChI=1S/C19H17NO3/c1-19(2)9-8-12-15(23-19)10-14(21)16-17(12)20(3)13-7-5-4-6-11(13)18(16)22/h4-10,21H,1-3H3

>  <standard_inchi_key>  (114) 
CBXBWBNEFPNSDO-UHFFFAOYSA-N

>  <name>  (114) 
Noracronycine

>  <iupac_name>  (114) 
6-hydroxy-3,3,12-trimethyl-pyrano[2,3-c]acridin-7-one

>  <annotation_level>  (114) 
5

>  <total_atom_count>  (114) 
40

>  <heavy_atom_count>  (114) 
23

>  <molecular_weight>  (114) 
307.35

>  <exact_molecular_weight>  (114) 
307.12084

>  <molecular_formula>  (114) 
C19H17NO3

>  <alogp>  (114) 
3.58

>  <topological_polar_surface_area>  (114) 
51.46

>  <rotatable_bond_count>  (114) 
0

>  <hydrogen_bond_acceptors>  (114) 
4

>  <hydrogen_bond_donors>  (114) 
1

>  <hydrogen_bond_acceptors_lipinski>  (114) 
4

>  <hydrogen_bond_donors_lipinski>  (114) 
1

>  <lipinski_rule_of_five_violations>  (114) 
0

>  <aromatic_rings_count>  (114) 
3

>  <qed_drug_likeliness>  (114) 
0.65

>  <formal_charge>  (114) 
0

>  <fractioncsp3>  (114) 
0.21

>  <number_of_minimal_rings>  (114) 
4

>  <van_der_walls_volume>  (114) 
269.06

>  <contains_sugar>  (114) 
False

>  <contains_ring_sugars>  (114) 
False

>  <contains_linear_sugars>  (114) 
False

>  <murcko_framework>  (114) 
O1c2ccc3c(Nc4ccccc4C3)c2C=CC1

>  <np_likeness>  (114) 
1.90

>  <chemical_class>  (114) 
Quinolines and derivatives

>  <chemical_sub_class>  (114) 
Benzoquinolines

>  <chemical_super_class>  (114) 
Organoheterocyclic compounds

>  <direct_parent_classification>  (114) 
Acridones

>  <np_classifier_pathway>  (114) 
Alkaloids

>  <np_classifier_superclass>  (114) 
Anthranilic acid alkaloids

>  <np_classifier_class>  (114) 
Acridone alkaloids

>  <np_classifier_is_glycoside>  (114) 
False

>  <organisms>  (114) 
Boenninghausenia albiflora|Glycosmis Pentaphylla|Glycosmis citrifolia|Glycosmis cochinchinensis|Glycosmis mauritiana|Glycosmis parviflora|Glycosmis pentaphylla|Juniperus rigida|Medicosma subsessilis|Melicope fareana|Murraya Paniculata|Murraya paniculata|Sarcomelicope megistophylla|Swinglea glutinosa

>  <collections>  (114) 
Australian natural products|CMAUP (cCollective molecular activities of useful plants)|KNApSaCK|Latin America dataset|NPASS|NuBBEDB|Super Natural II|TCMDB-Taiwan (Traditional Chinese Medicine database)|TCMID (Traditional Chinese Medicine Integrated Database)|UNPD (Universal Natural Products Database)|VietHerb|WikiData Natural Products|ZINC NP

>  <dois>  (114) 
10.1002/(SICI)1099-1573(1998)12:1+<S77::AID-PTR256>3.0.CO;2-J|10.1016/S0031-9422(00)84305-8|10.1016/S0031-9422(00)89714-9|10.1016/S0040-4020(01)92510-4|10.1021/NP9904096|10.1039/P19830001681|10.1071/CH9891375|10.1071/ch9500593|10.1080/14786410600907002|10.1248/CPB.47.1579|10.1515/ZNB-2003-1213

>  <synonyms>  (114) 
13161-79-0|3,12-Dihydro-6-hydroxy-3,3,12-trimethyl-7H-pyrano(2,3-c)acridin-7-one|6-NORACRONINE|6-hydroxy-3,3,12-trimethyl-3,12-dihydro-7h-pyrano[2,3-c]acridin-7-one|6-hydroxy-3,3,12-trimethylpyrano[2,3-c]acridin-7-one|7H-Pyrano(2,3-c)acridin-7-one, 3,12-dihydro-6-hydroxy-3,3,12-trimethyl-|CHEBI:201861|CHEMBL509922|DTXSID50157139|NCI60_000082|NORACRONYCIN|NSC103005|Noracronine|O-DEMETHYLACRONYCINE|O4TQA37UF4|SCHEMBL7475179|UNII-O4TQA37UF4|des-N-methylnoracronycine|noracronycine

>  <cas>  (114) 
13161-79-0

$$$$

     RDKit          2D

 22 24  0  0  0  0  0  0  0  0999 V2000
   -4.1454    0.7041    0.0000 C   0  0  0  0  0  0  0  0  0  0  0  0
   -4.7041   -0.6880    0.0000 C   0  0  0  0  0  0  0  0  0  0  0  0
   -5.2628   -2.0800    0.0000 C   0  0  0  0  0  0  0  0  0  0  0  0
   -6.0961   -0.1293    0.0000 O   0  0  0  0  0  0  0  0  0  0  0  0
   -3.3120   -1.2467    0.0000 C   0  0  0  0  0  0  0  0  0  0  0  0
   -3.0998   -2.7316    0.0000 O   0  0  0  0  0  0  0  0  0  0  0  0
   -2.1321   -0.3205    0.0000 C   0  0  0  0  0  0  0  0  0  0  0  0
   -0.7401   -0.8792    0.0000 O   0  0  0  0  0  0  0  0  0  0  0  0
    0.4398    0.0470    0.0000 C   0  0  0  0  0  0  0  0  0  0  0  0
    0.2277    1.5319    0.0000 C   0  0  0  0  0  0  0  0  0  0  0  0
   -1.0178    2.3679    0.0000 C   0  0  0  0  0  0  0  0  0  0  0  0
   -0.6077    3.8107    0.0000 C   0  0  0  0  0  0  0  0  0  0  0  0
    0.8913    3.8665    0.0000 O   0  0  0  0  0  0  0  0  0  0  0  0
    1.4076    2.4581    0.0000 C   0  0  0  0  0  0  0  0  0  0  0  0
    2.7996    1.8994    0.0000 C   0  0  0  0  0  0  0  0  0  0  0  0
    3.0118    0.4145    0.0000 C   0  0  0  0  0  0  0  0  0  0  0  0
    1.8319   -0.5117    0.0000 C   0  0  0  0  0  0  0  0  0  0  0  0
    2.0441   -1.9966    0.0000 C   0  0  0  0  0  0  0  0  0  0  0  0
    3.4361   -2.5553    0.0000 C   0  0  0  0  0  0  0  0  0  0  0  0
    4.6160   -1.6291    0.0000 C   0  0  0  0  0  0  0  0  0  0  0  0
    6.0081   -2.1878    0.0000 O   0  0  0  0  0  0  0  0  0  0  0  0
    4.4039   -0.1442    0.0000 O   0  0  0  0  0  0  0  0  0  0  0  0
  1  2  1  0
  2  3  1  0
  2  4  1  0
  2  5  1  0
  5  6  1  1
  5  7  1  0
  7  8  1  0
  8  9  1  0
  9 10  2  0
 10 11  1  0
 11 12  2  0
 12 13  1  0
 13 14  1  0
 14 15  2  0
 15 16  1  0
 16 17  2  0
 17 18  1  0
 18 19  2  0
 19 20  1  0
 20 21  2  0
 20 22  1  0
 17  9  1  0
 14 10  1  0
 22 16  1  0
M  END
>  <identifier>  (115) 
CNP0162174.2

>  <canonical_smiles>  (115) 
CC(C)(O)[C@H](O)COC1=C2C=COC2=CC2=C1C=CC(=O)O2

>  <standard_inchi>  (115) 
InChI=1S/C16H16O6/c1-16(2,19)13(17)8-21-15-9-3-4-14(18)22-12(9)7-11-10(15)5-6-20-11/h3-7,13,17,19H,8H2,1-2H3/t13-/m1/s1

>  <standard_inchi_key>  (115) 
PEWFWDOPJISUOK-CYBMUJFWSA-N

>  <name>  (115) 
Oxypeucedanin hydrate

>  <iupac_name>  (115) 
4-[(2~{R})-2,3-dihydroxy-3-methyl-butoxy]furo[3,2-g]chromen-7-one

>  <annotation_level>  (115) 
5

>  <total_atom_count>  (115) 
38

>  <heavy_atom_count>  (115) 
22

>  <molecular_weight>  (115) 
304.3

>  <exact_molecular_weight>  (115) 
304.09469

>  <molecular_formula>  (115) 
C16H16O6

>  <alogp>  (115) 
2.05

>  <topological_polar_surface_area>  (115) 
93.04

>  <rotatable_bond_count>  (115) 
4

>  <hydrogen_bond_acceptors>  (115) 
6

>  <hydrogen_bond_donors>  (115) 
2

>  <hydrogen_bond_acceptors_lipinski>  (115) 
6

>  <hydrogen_bond_donors_lipinski>  (115) 
2

>  <lipinski_rule_of_five_violations>  (115) 
0

>  <aromatic_rings_count>  (115) 
3

>  <qed_drug_likeliness>  (115) 
0.72

>  <formal_charge>  (115) 
0

>  <fractioncsp3>  (115) 
0.31

>  <number_of_minimal_rings>  (115) 
3

>  <van_der_walls_volume>  (115) 
260.14

>  <contains_sugar>  (115) 
False

>  <contains_ring_sugars>  (115) 
False

>  <contains_linear_sugars>  (115) 
False

>  <murcko_framework>  (115) 
o1ccc2cc3C=CCOc3cc12

>  <np_likeness>  (115) 
1.56

>  <chemical_class>  (115) 
Coumarins and derivatives

>  <chemical_sub_class>  (115) 
Furanocoumarins

>  <chemical_super_class>  (115) 
Phenylpropanoids and polyketides

>  <direct_parent_classification>  (115) 
Psoralens

>  <np_classifier_pathway>  (115) 
Shikimates and Phenylpropanoids

>  <np_classifier_superclass>  (115) 
Coumarins

>  <np_classifier_class>  (115) 
Furocoumarins

>  <np_classifier_is_glycoside>  (115) 
False

>  <organisms>  (115) 
Angelica Dahurica|Angelica archangelica|Angelica dahurica|Angelica dahurica var.dahurica|Angelica furcijuga|Angelica japonica|Angelica lucida|Angelica officinalis|Angelica tenuisecta var. furcijuga|Citrus hystrix|Citrus limon|Citrus medica|Citrus trifoliata|Citrus wilsonii|Diplolophium buchanani|Dorstenia gigas|Eriostemon brucei|Euxylophora paraensis|Ferula moschata|Ferula sumbul|Ferula syreitschikowii|Ferulago sylvatica|Ficus carica L.|Ficus elastica Roxb.|Glehnia littoralis|Hansenia forbesii|Hansenia weberbaueriana|Leutea turcomanica|Niphogeton ternata|Ostericum grosseserratum|Ostericum koreanum|Peucedanum japonicum|Peucedanum ostruthium|Peucedanum ruthenicum|Peucedanum tauricum|Peucedanum turcomanicum|Prangos bucharica|Prangos latiloba|Prangos pabularia|Seseli webbii Cosson.|Skimmia japonica|Sphallerocarpus gracilis

>  <collections>  (115) 
Australian natural products|CMAUP (cCollective molecular activities of useful plants)|ChEBI NPs|ConMedNP|FooDB|KNApSaCK|Latin America dataset|NPASS|NuBBEDB|Super Natural II|TCMDB-Taiwan (Traditional Chinese Medicine database)|TPPT (Toxic Plants–PhytoToxins)|VietHerb|WikiData Natural Products|ZINC NP

>  <dois>  (115) 
10.1002/biuz.19840140514|10.1002/food.19880321030|10.1007/BF00563960|10.1007/BF00565580|10.1007/BF00565847|10.1007/BF00570861|10.1007/BF00579654|10.1007/BF02066241|10.1016/0031-9422(75)85329-5|10.1016/0031-9422(92)83731-d|10.1016/0031-9422(95)00625-7|10.1016/J.CHROMA.2010.04.076|10.1016/J.PHYTOCHEM.2005.01.022|10.1016/S0031-9422(00)00419-2|10.1016/S0031-9422(00)80344-1|10.1016/S0031-9422(02)00023-7|10.1016/S0031-9422(99)00554-3|10.1016/s0031-9422(00)81503-4|10.1021/NP100531X|10.1021/NP200072A|10.1021/NP960407A|10.1021/acs.jnatprod.0c00551|10.1021/acs.jnatprod.9b00547|10.1021/np100531x|10.1021/np200072a|10.1021/np50115a019|10.1021/np960407a|10.1055/S-2001-11509|10.1055/S-2002-32075|10.1055/S-2006-962141|10.1248/BPB.28.380|10.1248/CPB.47.96|10.1248/CPB.50.115|10.1248/CPB.53.387|10.1248/CPB.55.1065|10.1590/S0100-40422012001100004|10.3390/MOLECULES14082729

>  <synonyms>  (115) 
(+)-Oxypeucedanin hydrate|(R)-(+)-Oxypeucedanin Hydrate|1ST164211|2643-85-8|4-[(2R)-2,3-dihydroxy-3-methylbutoxy]furo[3,2-g]chromen-7-one|7H-FURO(3,2-g)(1)BENZOPYRAN-7-ONE, 4-(2,3-DIHYDROXY-3-METHYLBUTOXY)-, (R)-(+)-|7H-Furo(3,2-g)(1)benzopyran-7-one, 4-(2,3-dihydroxy-3-methylbutoxy)-, (R)-|7H-Furo[3,2-g][1]benzopyran-7-one, 4-[(2R)-2,3-dihydroxy-3-methylbutoxy]-|AKOS000278024|Aviprin|Aviprin (Oxypeucedaninhydrate)|BDBM50361377|CHEBI:69829|CHEMBL454060|CS-0023028|DTXSID90949318|HMS2196F22|HY-N2622|Hydroxypeucedanin hydrate|MLS000574909|MS-24390|NS00094521|Oxypeucedaninhydrate|Prangol|Prangolarin hydrate|Prawgol|Q27138170|SMR000156244

>  <cas>  (115) 
2643-85-8

$$$$

     RDKit          2D

 33 37  0  0  0  0  0  0  0  0999 V2000
   -6.1898   -2.9137    0.0000 C   0  0  0  0  0  0  0  0  0  0  0  0
   -5.4026   -1.6369    0.0000 C   0  0  0  0  0  0  0  0  0  0  0  0
   -6.1147   -0.3167    0.0000 C   0  0  0  0  0  0  0  0  0  0  0  0
   -5.3275    0.9601    0.0000 C   0  0  0  0  0  0  0  0  0  0  0  0
   -3.8281    0.9167    0.0000 C   0  0  0  0  0  0  0  0  0  0  0  0
   -4.5402    2.2369    0.0000 C   0  0  0  0  0  0  0  0  0  0  0  0
   -3.1160   -0.4034    0.0000 C   0  0  0  0  0  0  0  0  0  0  0  0
   -1.6166   -0.4468    0.0000 C   0  0  0  0  0  0  0  0  0  0  0  0
   -0.9044   -1.7670    0.0000 C   0  0  0  0  0  0  0  0  0  0  0  0
    0.5949   -1.8103    0.0000 C   0  0  0  0  0  0  0  0  0  0  0  0
    1.3071   -3.1305    0.0000 O   0  0  0  0  0  0  0  0  0  0  0  0
    1.3822   -0.5335    0.0000 C   0  0  0  0  0  0  0  0  0  0  0  0
    2.8815   -0.5768    0.0000 C   0  0  0  0  0  0  0  0  0  0  0  0
    2.0943   -1.8537    0.0000 C   0  0  0  0  0  0  0  0  0  0  0  0
    3.5937   -1.8970    0.0000 C   0  0  0  0  0  0  0  0  0  0  0  0
    5.0930   -1.9404    0.0000 C   0  0  0  0  0  0  0  0  0  0  0  0
    5.8803   -0.6636    0.0000 C   0  0  0  0  0  0  0  0  0  0  0  0
    7.3796   -0.7069    0.0000 O   0  0  0  0  0  0  0  0  0  0  0  0
    5.1681    0.6566    0.0000 C   0  0  0  0  0  0  0  0  0  0  0  0
    4.9505    2.1407    0.0000 C   0  0  0  0  0  0  0  0  0  0  0  0
    6.5919    1.1287    0.0000 C   0  0  0  0  0  0  0  0  0  0  0  0
    3.6688    0.7000    0.0000 C   0  0  0  0  0  0  0  0  0  0  0  0
    2.9566    2.0201    0.0000 C   0  0  0  0  0  0  0  0  0  0  0  0
    1.4572    2.0635    0.0000 C   0  0  0  0  0  0  0  0  0  0  0  0
    0.6700    0.7867    0.0000 C   0  0  0  0  0  0  0  0  0  0  0  0
   -0.0421    2.1069    0.0000 C   0  0  0  0  0  0  0  0  0  0  0  0
   -0.8294    0.8300    0.0000 C   0  0  0  0  0  0  0  0  0  0  0  0
   -2.3287    0.8734    0.0000 C   0  0  0  0  0  0  0  0  0  0  0  0
   -1.5415    2.1502    0.0000 C   0  0  0  0  0  0  0  0  0  0  0  0
   -3.0409    2.1936    0.0000 C   0  0  0  0  0  0  0  0  0  0  0  0
   -3.7530    3.5137    0.0000 O   0  0  0  0  0  0  0  0  0  0  0  0
   -3.9032   -1.6803    0.0000 C   0  0  0  0  0  0  0  0  0  0  0  0
   -3.1911   -3.0004    0.0000 C   0  0  0  0  0  0  0  0  0  0  0  0
  2  1  1  6
  2  3  1  0
  3  4  1  0
  4  5  1  0
  5  6  1  1
  5  7  1  0
  7  8  1  0
  8  9  2  0
  9 10  1  0
 10 11  1  6
 10 12  1  0
 12 13  1  0
 13 14  1  1
 13 15  1  0
 15 16  1  0
 16 17  1  0
 17 18  1  1
 17 19  1  0
 19 20  1  0
 19 21  1  0
 19 22  1  0
 22 23  1  0
 23 24  1  0
 24 25  1  0
 25 26  1  1
 25 27  1  0
 27 28  1  6
 27 29  1  0
 29 30  1  0
 30 31  1  1
  7 32  1  0
 32 33  1  1
 32  2  1  0
 30  5  1  0
 27  8  1  0
 25 12  1  0
 22 13  1  0
M  END
>  <identifier>  (116) 
CNP0387689.1

>  <canonical_smiles>  (116) 
C[C@@H]1CC[C@@]2(C)C(C3=C[C@@H](O)C4[C@@]5(C)CC[C@H](O)C(C)(C)C5CC[C@@]4(C)[C@]3(C)C[C@@H]2O)[C@H]1C

>  <standard_inchi>  (116) 
InChI=1S/C30H50O3/c1-17-9-12-28(6)23(33)16-30(8)19(24(28)18(17)2)15-20(31)25-27(5)13-11-22(32)26(3,4)21(27)10-14-29(25,30)7/h15,17-18,20-25,31-33H,9-14,16H2,1-8H3/t17-,18+,20-,21?,22+,23+,24?,25?,27+,28-,29-,30-/m1/s1

>  <standard_inchi_key>  (116) 
MKQJTUYVYJWNKT-KKXHWHDKSA-N

>  <name>  (116) 
nan

>  <iupac_name>  (116) 
(3~{S},6~{a}~{R},6~{b}~{S},8~{S},8~{a}~{S},11~{R},12~{S},14~{R},14~{b}~{S})-4,4,6~{a},6~{b},8~{a},11,12,14~{b}-octamethyl-2,3,4~{a},5,6,7,8,9,10,11,12,12~{a},14,14~{a}-tetradecahydro-1~{H}-picene-3,8,14-triol

>  <annotation_level>  (116) 
4

>  <total_atom_count>  (116) 
83

>  <heavy_atom_count>  (116) 
33

>  <molecular_weight>  (116) 
458.73

>  <exact_molecular_weight>  (116) 
458.376

>  <molecular_formula>  (116) 
C30H50O3

>  <alogp>  (116) 
5.97

>  <topological_polar_surface_area>  (116) 
60.69

>  <rotatable_bond_count>  (116) 
0

>  <hydrogen_bond_acceptors>  (116) 
3

>  <hydrogen_bond_donors>  (116) 
3

>  <hydrogen_bond_acceptors_lipinski>  (116) 
3

>  <hydrogen_bond_donors_lipinski>  (116) 
3

>  <lipinski_rule_of_five_violations>  (116) 
1

>  <aromatic_rings_count>  (116) 
0

>  <qed_drug_likeliness>  (116) 
0.39

>  <formal_charge>  (116) 
0

>  <fractioncsp3>  (116) 
0.93

>  <number_of_minimal_rings>  (116) 
5

>  <van_der_walls_volume>  (116) 
nan

>  <contains_sugar>  (116) 
False

>  <contains_ring_sugars>  (116) 
False

>  <contains_linear_sugars>  (116) 
False

>  <murcko_framework>  (116) 
C1=C2C3CCCCC3CCC2C4CCC5CCCCC5C4C1

>  <np_likeness>  (116) 
3.13

>  <chemical_class>  (116) 
Steroids and steroid derivatives

>  <chemical_sub_class>  (116) 
Hydroxysteroids

>  <chemical_super_class>  (116) 
Lipids and lipid-like molecules

>  <direct_parent_classification>  (116) 
Hydroxysteroids

>  <np_classifier_pathway>  (116) 
Terpenoids

>  <np_classifier_superclass>  (116) 
Triterpenoids

>  <np_classifier_class>  (116) 
Ursane and Taraxastane triterpenoids

>  <np_classifier_is_glycoside>  (116) 
False

>  <organisms>  (116) 
Trattinnickia burserifolia

>  <collections>  (116) 
Latin America dataset|NuBBEDB|WikiData Natural Products

>  <dois>  (116) 
10.1590/S0103-50532004000300008

>  <synonyms>  (116) 
3\u221a\u00e9\u00ac\u226416\u221a\u00e9\u00ac\u226411\u221a\u00e9\u00ac\u00b1-trihydroxyurs-12-ene

>  <cas>  (116) 
nan

$$$$

     RDKit          2D

 15 16  0  0  0  0  0  0  0  0999 V2000
    4.3166   -1.3738    0.0000 C   0  0  0  0  0  0  0  0  0  0  0  0
    2.9488   -0.7579    0.0000 C   0  0  0  0  0  0  0  0  0  0  0  0
    1.7316   -1.6345    0.0000 C   0  0  0  0  0  0  0  0  0  0  0  0
    0.3639   -1.0186    0.0000 C   0  0  0  0  0  0  0  0  0  0  0  0
   -0.8534   -1.8952    0.0000 C   0  0  0  0  0  0  0  0  0  0  0  0
   -2.2211   -1.2793    0.0000 C   0  0  0  0  0  0  0  0  0  0  0  0
   -3.4383   -2.1559    0.0000 O   0  0  0  0  0  0  0  0  0  0  0  0
   -2.3716    0.2131    0.0000 C   0  0  0  0  0  0  0  0  0  0  0  0
   -3.7394    0.8290    0.0000 O   0  0  0  0  0  0  0  0  0  0  0  0
   -1.1544    1.0897    0.0000 C   0  0  0  0  0  0  0  0  0  0  0  0
   -1.3049    2.5821    0.0000 O   0  0  0  0  0  0  0  0  0  0  0  0
    0.2133    0.4738    0.0000 C   0  0  0  0  0  0  0  0  0  0  0  0
    1.4306    1.3504    0.0000 C   0  0  0  0  0  0  0  0  0  0  0  0
    1.2801    2.8428    0.0000 O   0  0  0  0  0  0  0  0  0  0  0  0
    2.7983    0.7345    0.0000 O   0  0  0  0  0  0  0  0  0  0  0  0
  1  2  1  0
  2  3  2  0
  3  4  1  0
  4  5  2  0
  5  6  1  0
  6  7  1  0
  6  8  2  0
  8  9  1  0
  8 10  1  0
 10 11  1  0
 10 12  2  0
 12 13  1  0
 13 14  2  0
 13 15  1  0
 15  2  1  0
 12  4  1  0
M  END
>  <identifier>  (117) 
CNP0176108.0

>  <canonical_smiles>  (117) 
CC1=CC2=CC(O)=C(O)C(O)=C2C(=O)O1

>  <standard_inchi>  (117) 
InChI=1S/C10H8O5/c1-4-2-5-3-6(11)8(12)9(13)7(5)10(14)15-4/h2-3,11-13H,1H3

>  <standard_inchi_key>  (117) 
FBJMEOFSLTXPKH-UHFFFAOYSA-N

>  <name>  (117) 
33624-51-0

>  <iupac_name>  (117) 
6,7,8-trihydroxy-3-methyl-isochromen-1-one

>  <annotation_level>  (117) 
5

>  <total_atom_count>  (117) 
23

>  <heavy_atom_count>  (117) 
15

>  <molecular_weight>  (117) 
208.17

>  <exact_molecular_weight>  (117) 
208.03717

>  <molecular_formula>  (117) 
C10H8O5

>  <alogp>  (117) 
1.22

>  <topological_polar_surface_area>  (117) 
90.90

>  <rotatable_bond_count>  (117) 
0

>  <hydrogen_bond_acceptors>  (117) 
5

>  <hydrogen_bond_donors>  (117) 
3

>  <hydrogen_bond_acceptors_lipinski>  (117) 
5

>  <hydrogen_bond_donors_lipinski>  (117) 
3

>  <lipinski_rule_of_five_violations>  (117) 
0

>  <aromatic_rings_count>  (117) 
2

>  <qed_drug_likeliness>  (117) 
0.57

>  <formal_charge>  (117) 
0

>  <fractioncsp3>  (117) 
0.10

>  <number_of_minimal_rings>  (117) 
2

>  <van_der_walls_volume>  (117) 
168.84

>  <contains_sugar>  (117) 
False

>  <contains_ring_sugars>  (117) 
False

>  <contains_linear_sugars>  (117) 
False

>  <murcko_framework>  (117) 
O1C=Cc2ccccc2C1

>  <np_likeness>  (117) 
1.42

>  <chemical_class>  (117) 
Isocoumarins and derivatives

>  <chemical_sub_class>  (117) 
Isocoumarins and derivatives

>  <chemical_super_class>  (117) 
Phenylpropanoids and polyketides

>  <direct_parent_classification>  (117) 
Isocoumarins and derivatives

>  <np_classifier_pathway>  (117) 
Shikimates and Phenylpropanoids

>  <np_classifier_superclass>  (117) 
Coumarins

>  <np_classifier_class>  (117) 
Isocoumarins

>  <np_classifier_is_glycoside>  (117) 
False

>  <organisms>  (117) 
Aspergillus navahoensis|Aster conspicuus|Clitocybula oculus|Crotalaria ferruginea|Kleinia tomentosa|Melanocarpus albomyces|Murrayella periclados|Papulaspora immersa|Senna didymobotrya|Sorocea ilicifolia|Streptomyces microflavus|Streptomyces mobaraensis|Zanthoxylum parviflorum

>  <collections>  (117) 
CMAUP (cCollective molecular activities of useful plants)|Latin America dataset|Marine Natural Products|NPASS|NPEdia|NuBBEDB|UNPD (Universal Natural Products Database)|WikiData Natural Products|ZINC NP

>  <dois>  (117) 
10.1002/CBDV.201000011|10.1002/cbdv.201000011|10.1016/S0040-4039(01)96703-6|10.1248/CPB.33.4296|10.1248/CPB.36.670

>  <synonyms>  (117) 
6,7,8-Trihydroxy-3-methyl-1H-2-benzpyran-1-one|6,7,8-Trihydroxy-3-methyl-1H-isochromen-1-one|6,7,8-trihydroxy-3-methyl-isocoumarin|SCHEMBL16431371

>  <cas>  (117) 
nan

$$$$

     RDKit          2D

 20 21  0  0  0  0  0  0  0  0999 V2000
   -6.7847   -0.8365    0.0000 C   0  0  0  0  0  0  0  0  0  0  0  0
   -5.5100   -1.6271    0.0000 O   0  0  0  0  0  0  0  0  0  0  0  0
   -4.1880   -0.9184    0.0000 C   0  0  0  0  0  0  0  0  0  0  0  0
   -4.1407    0.5808    0.0000 C   0  0  0  0  0  0  0  0  0  0  0  0
   -2.8186    1.2895    0.0000 C   0  0  0  0  0  0  0  0  0  0  0  0
   -2.7713    2.7888    0.0000 O   0  0  0  0  0  0  0  0  0  0  0  0
   -1.5439    0.4989    0.0000 C   0  0  0  0  0  0  0  0  0  0  0  0
   -0.2218    1.2076    0.0000 C   0  0  0  0  0  0  0  0  0  0  0  0
   -0.1746    2.7068    0.0000 O   0  0  0  0  0  0  0  0  0  0  0  0
    1.0529    0.4170    0.0000 C   0  0  0  0  0  0  0  0  0  0  0  0
    2.3749    1.1257    0.0000 C   0  0  0  0  0  0  0  0  0  0  0  0
    3.6497    0.3351    0.0000 C   0  0  0  0  0  0  0  0  0  0  0  0
    3.6024   -1.1642    0.0000 C   0  0  0  0  0  0  0  0  0  0  0  0
    4.8771   -1.9547    0.0000 C   0  0  0  0  0  0  0  0  0  0  0  0
    6.1992   -1.2461    0.0000 C   0  0  0  0  0  0  0  0  0  0  0  0
    6.2465    0.2532    0.0000 C   0  0  0  0  0  0  0  0  0  0  0  0
    4.9717    1.0438    0.0000 C   0  0  0  0  0  0  0  0  0  0  0  0
   -1.5912   -1.0003    0.0000 C   0  0  0  0  0  0  0  0  0  0  0  0
   -0.3164   -1.7909    0.0000 O   0  0  0  0  0  0  0  0  0  0  0  0
   -2.9132   -1.7090    0.0000 C   0  0  0  0  0  0  0  0  0  0  0  0
  1  2  1  0
  2  3  1  0
  3  4  2  0
  4  5  1  0
  5  6  1  0
  5  7  1  0
  7  8  1  0
  8  9  2  0
  8 10  1  0
 10 11  2  0
 11 12  1  0
 12 13  2  0
 13 14  1  0
 14 15  2  0
 15 16  1  0
 16 17  2  0
  7 18  1  0
 18 19  1  0
 18 20  2  0
 20  3  1  0
 17 12  1  0
M  END
>  <identifier>  (118) 
CNP0104555.3

>  <canonical_smiles>  (118) 
COC1=CC(O)C(C(=O)/C=C/C2=CC=CC=C2)C(O)=C1

>  <standard_inchi>  (118) 
InChI=1S/C16H16O4/c1-20-12-9-14(18)16(15(19)10-12)13(17)8-7-11-5-3-2-4-6-11/h2-10,14,16,18-19H,1H3/b8-7+

>  <standard_inchi_key>  (118) 
JYKQJAUWHLNCIH-BQYQJAHWSA-N

>  <name>  (118) 
nan

>  <iupac_name>  (118) 
nan

>  <annotation_level>  (118) 
0

>  <total_atom_count>  (118) 
36

>  <heavy_atom_count>  (118) 
20

>  <molecular_weight>  (118) 
272.3

>  <exact_molecular_weight>  (118) 
272.10486

>  <molecular_formula>  (118) 
C16H16O4

>  <alogp>  (118) 
2.23

>  <topological_polar_surface_area>  (118) 
66.76

>  <rotatable_bond_count>  (118) 
4

>  <hydrogen_bond_acceptors>  (118) 
4

>  <hydrogen_bond_donors>  (118) 
2

>  <hydrogen_bond_acceptors_lipinski>  (118) 
4

>  <hydrogen_bond_donors_lipinski>  (118) 
2

>  <lipinski_rule_of_five_violations>  (118) 
0

>  <aromatic_rings_count>  (118) 
1

>  <qed_drug_likeliness>  (118) 
0.82

>  <formal_charge>  (118) 
0

>  <fractioncsp3>  (118) 
0.19

>  <number_of_minimal_rings>  (118) 
2

>  <van_der_walls_volume>  (118) 
249.05

>  <contains_sugar>  (118) 
False

>  <contains_ring_sugars>  (118) 
False

>  <contains_linear_sugars>  (118) 
False

>  <murcko_framework>  (118) 
c1ccc(cc1)C=CCC2C=CC=CC2

>  <np_likeness>  (118) 
1.43

>  <chemical_class>  (118) 
nan

>  <chemical_sub_class>  (118) 
nan

>  <chemical_super_class>  (118) 
nan

>  <direct_parent_classification>  (118) 
nan

>  <np_classifier_pathway>  (118) 
Shikimates and Phenylpropanoids

>  <np_classifier_superclass>  (118) 
Flavonoids

>  <np_classifier_class>  (118) 
Chalcones

>  <np_classifier_is_glycoside>  (118) 
False

>  <organisms>  (118) 
Piper aduncum|Polygonum senegalense

>  <collections>  (118) 
ANPDB|Latin America dataset|NANPDB (Natural Products from Northern African Sources)|NuBBEDB|WikiData Natural Products

>  <dois>  (118) 
10.1021/NP030530J|10.1021/np030530j

>  <synonyms>  (118) 
nan

>  <cas>  (118) 
nan

$$$$

     RDKit          2D

 15 15  0  0  0  0  0  0  0  0999 V2000
    0.1617   -3.9603    0.0000 C   0  0  0  0  0  0  0  0  0  0  0  0
    0.3616   -2.4737    0.0000 C   0  0  0  0  0  0  0  0  0  0  0  0
   -0.9904   -1.8242    0.0000 C   0  0  0  0  0  0  0  0  0  0  0  0
   -0.7905   -0.3376    0.0000 C   0  0  0  0  0  0  0  0  0  0  0  0
   -1.5025    0.9827    0.0000 C   0  0  0  0  0  0  0  0  0  0  0  0
   -2.9781    0.7135    0.0000 C   0  0  0  0  0  0  0  0  0  0  0  0
   -3.9491    1.8568    0.0000 C   0  0  0  0  0  0  0  0  0  0  0  0
   -3.4828   -0.6991    0.0000 C   0  0  0  0  0  0  0  0  0  0  0  0
   -0.4669    2.0678    0.0000 C   0  0  0  0  0  0  0  0  0  0  0  0
    1.0088    2.3370    0.0000 C   0  0  0  0  0  0  0  0  0  0  0  0
    2.3608    1.6875    0.0000 C   0  0  0  0  0  0  0  0  0  0  0  0
    3.3964    2.7726    0.0000 C   0  0  0  0  0  0  0  0  0  0  0  0
    2.1608    0.2009    0.0000 C   0  0  0  0  0  0  0  0  0  0  0  0
    2.8729   -1.1194    0.0000 C   0  0  0  0  0  0  0  0  0  0  0  0
    1.8373   -2.2045    0.0000 C   0  0  0  0  0  0  0  0  0  0  0  0
  1  2  2  0
  2  3  1  0
  3  4  2  0
  4  5  1  0
  5  6  1  6
  6  7  1  0
  6  8  1  0
  5  9  1  0
  9 10  1  0
 10 11  1  0
 11 12  1  0
 11 13  2  0
 13 14  1  0
 14 15  1  0
 15  2  1  0
M  END
>  <identifier>  (119) 
CNP0224506.1

>  <canonical_smiles>  (119) 
C=C1/C=C/[C@H](C(C)C)CC/C(C)=C/CC1

>  <standard_inchi>  (119) 
InChI=1S/C15H24/c1-12(2)15-10-8-13(3)6-5-7-14(4)9-11-15/h7-8,10,12,15H,3,5-6,9,11H2,1-2,4H3/b10-8+,14-7+/t15-/m0/s1

>  <standard_inchi_key>  (119) 
GAIBLDCXCZKKJE-RXJOXMPGSA-N

>  <name>  (119) 
(-)-Germacrene D

>  <iupac_name>  (119) 
(1~{E},6~{E},8~{S})-8-isopropyl-1-methyl-5-methylene-cyclodeca-1,6-diene

>  <annotation_level>  (119) 
5

>  <total_atom_count>  (119) 
39

>  <heavy_atom_count>  (119) 
15

>  <molecular_weight>  (119) 
204.36

>  <exact_molecular_weight>  (119) 
204.1878

>  <molecular_formula>  (119) 
C15H24

>  <alogp>  (119) 
4.89

>  <topological_polar_surface_area>  (119) 
0.00

>  <rotatable_bond_count>  (119) 
1

>  <hydrogen_bond_acceptors>  (119) 
0

>  <hydrogen_bond_donors>  (119) 
0

>  <hydrogen_bond_acceptors_lipinski>  (119) 
0

>  <hydrogen_bond_donors_lipinski>  (119) 
0

>  <lipinski_rule_of_five_violations>  (119) 
0

>  <aromatic_rings_count>  (119) 
0

>  <qed_drug_likeliness>  (119) 
0.53

>  <formal_charge>  (119) 
0

>  <fractioncsp3>  (119) 
0.60

>  <number_of_minimal_rings>  (119) 
1

>  <van_der_walls_volume>  (119) 
230.98

>  <contains_sugar>  (119) 
False

>  <contains_ring_sugars>  (119) 
False

>  <contains_linear_sugars>  (119) 
False

>  <murcko_framework>  (119) 
C1=CCCCC=CCCC1

>  <np_likeness>  (119) 
3.27

>  <chemical_class>  (119) 
Prenol lipids

>  <chemical_sub_class>  (119) 
Sesquiterpenoids

>  <chemical_super_class>  (119) 
Lipids and lipid-like molecules

>  <direct_parent_classification>  (119) 
Germacrane sesquiterpenoids

>  <np_classifier_pathway>  (119) 
Terpenoids

>  <np_classifier_superclass>  (119) 
Sesquiterpenoids

>  <np_classifier_class>  (119) 
Germacrane sesquiterpenoids

>  <np_classifier_is_glycoside>  (119) 
False

>  <organisms>  (119) 
Abies pinsapo|Acacia catechuoides|Acanthospermum hispidum|Acca sellowiana|Acer caesium|Achillea abrotanoides|Achillea erba-rotta|Achillea millefolium|Achillea moschata|Achillea nana|Achillea nobilis|Achillea ptarmica|Acinos alpinus|Aconitum coreanum|Aconitum likiangense|Acorus calamus|Acorus gramineus|Acorus tatarinowii|Acrisione denticulata|Acritopappus confertus|Acritopappus heterolepis|Acritopappus morii|Acritopappus prunifolius|Acritopappus teixeirae|Actinoplanes missouriensis|Actinopyga mauritiana|Adenocarpus foliolosus|Aframomum melegueta|Afrocarpus mannii|Agastache foeniculum|Agastache rugosa|Agathosma betulina|Ageratina anisochroma|Ageratina ixiocladon|Ageratina riparia|Ageratina tristis|Ageratum conyzoides|Ageratum fastigiatum|Aglaia lawii|Agrimonia pilosa|Aguacate|Ajuga chamaepitys|Aldama helianthoides|Alicyclobacillus acidocaldarius|Alisma orientale|Aloe ferox|Aloysia citriodora|Aloysia citrodora|Aloysia triphylla|Alpinia chinensis|Alstonia mairei|Amaioua guianensis|Amomum longiligulare|Amomum villosum|Amomum xanthioides|Andryala ragusina|Anethum graveolens|Angelica archangelica|Angiopteris evecta|Angostura trifoliata|Aniba puchury-minor|Annona diversifolia|Annona reticulata|Annona spinescens|Annona squamosa|Antennaria canadensis|Anthelia glauca|Anthemis aciphylla|Anthemis aciphylla BOISS.var.discoidea BOISS|Anthoxanthum nitens|Antiaris toxicaria|Antidesma laciniatum|Antidorcas marsupialis|Antillogorgia elisabethae|Aphanizomenon|Apium graveolens|Aplophyllum acutifolium|Aplysilla pallida|Araucaria columnaris|Araucaria excelsa|Aristeguietia buddleaefolia|Aristeguietia glutinosa|Aristolochia birostris|Aristolochia cymbifera|Aristolochia didyma|Aristolochia elegans|Aristolochia gigantea|Aristolochia littoralis|Aristolochia macroura|Aristolochia odoratissima|Aristolochia triangularis|Aristolochia trilobata|Arnica chamissonis|Arnica sachalinensis|Artabotrys lastoursvillensis|Artemisia Annua|Artemisia absinthium|Artemisia afra|Artemisia alba|Artemisia ammaniana|Artemisia annua|Artemisia annua L.|Artemisia apiacea|Artemisia arborescens|Artemisia argyi|Artemisia capillaris|Artemisia douglasiana|Artemisia filifolia|Artemisia frigida|Artemisia glauca|Artemisia gmelinii|Artemisia inculta|Artemisia indica|Artemisia iwayomogi|Artemisia judaica|Artemisia koidzumii|Artemisia lagocephala|Artemisia molinieri|Artemisia montana|Artemisia moorcroftiana|Artemisia pallens|Artemisia palustris|Artemisia princeps|Artemisia santolinifolia|Artemisia schmidtiana|Artemisia sericea|Artemisia siversiana|Artemisia stechmanniana|Arum maculatum|Asanthus solidaginifolius|Asclepias eriocarpa|Aspergillus versicolor|Aspilia africana|Aspilia jolyana|Aspilia mossambicensis|Aster altaicus|Aster scaber|Asteraceae|Asterolasia squamuligera|Athrixia elata|Atractylodes chinensis|Atractylodes lancea|Austrobaileya scandens|Austrobrickellia patens|Austroeupatorium chaparense|Austroeupatorium inulaefolium|Ayapana amygdalina|Baccharis alaternoides|Baccharis articulata|Baccharis bigelovii|Baccharis bolivensis|Baccharis boliviensis|Baccharis dracunculifolia|Baccharis eggersii|Baccharis gnidiifolia|Baccharis grandicapitulata|Baccharis halimifolia|Baccharis heterophylla|Baccharis hutchisonii|Baccharis kingii|Baccharis microcephala|Baccharis minutiflora|Baccharis neglecta|Baccharis patagonica|Baccharis phylicoides|Baccharis rufescens|Baccharis santelicis|Baccharis scoparia|Baccharis sulcata|Baccharis tricuneata|Baccharis trimera|Bacillus subtilis|Badilloa salicina|Bazzania praerupta|Bazzania tridens|Bejaranoa balansae|Berchemia floribunda|Betula exilis|Betula maximowicziana|Bidens cynapiifolia|Bidens pilosa|Biscogniauxia mediterranea|Bishovia boliviensis|Bistorta manshuriensis|Bistorta officinalis|Bleasdalea bleasdalei|Blepharispermum zanguebaricum|Blumea|Boronia bipinnata|Brachylaena discolor var. transvaalensis|Brickellia californica|Brickellia diffusa|Brickellia laciniata|Brickellia lemmonii|Brickellia veronicaefolia|Bugula neritina|Bupleurum gibraltaricum|Byrsonima microphylla|Bystropogon canariensis|Bystropogon mollis|Calamintha incana|Calanthe arisanensis|Calea clematidea|Calea harleyi|Calea hispida|Calea jamaicensis|Calea morii|Calea prunifolia|Calea rotundifolia|Calea sickii|Calea triantha|Callicarpa japonica|Callilepis laureola|Callilepis salicifolia|Calypogeia muelleriana|Campuloclinium megacephalum|Cananga odorata|Capillipedium parviflorum|Capsicum annuum|Caputia tomentosa|Carapichea ipecacuanha|Carica papaya|Carpolobia glabrescens|Carthamus tinctorius|Cassia roxburghii|Cassipourea guianensis|Catha cassinoides|Catharanthus roseus|Cedrus libani|Centaurea armena|Centaurea oltensis|Centaurea sessilis|Centaurea solstitialis|Centella asiatica|Centratherum punctatum|Cereus dumortieri|Chaenorhinum villosum|Chamaemelum nobile|Chamomilla recutita|Chamomilla suaveolens|Channa argus|Chlorella vulgaris|Choisya arizonica|Chromolaena arnottiana|Chromolaena connivens|Chromolaena tunariensis|Chrysanthemum indicum|Chrysanthemum morifolium|Chrysanthemum x morifolium|Chrysanthemum zawadskii|Chrysocoma cernua|Chrysocoma coma-aurea|Chrysosplenium oppositifolium|Cinnamomum camphora|Cinnamomum parthenoxylon|Cinnamomum tenuifolium|Cinnamomum zeylanicum|Cinnamon|Cirsium microspicatum|Cistus creticus|Citrus aurantium|Citrus hystrix|Citrus junos|Citrus maxima|Citrus medica|Citrus natsudaidai|Citrus reticulata|Citrus sinensis|Citrus sunki|Citrus trifoliata|Citrus unshiu|Citrus × deliciosa|Cleistopholis patens|Cleonia lusitanica|Clethra macrophylla|Clibadium armanii|Clinopodium acinos|Clinopodium brevifolium|Clinopodium brownei|Clinopodium carolinianum|Clinopodium grandiflorum|Clinopodium insulare|Clinopodium troodi|Clitoria macrophylla|Cnidium monieri|Cnidium monnieri|Cnidium officinale|Colorado potato beetle|Commiphora kataf|Commiphora myrrha|Conioselinum anthriscoides|Conocliniopsis prasiifolia|Conospermum incurvum|Conyza bonariensis|Conyza pallidiflora|Conyza pyrifolia|Conyza schimperi|Coreopsis grandiflora|Critonia hebebotrya|Critonia quadrangularis|Cronquistianthus trianae|Crotalaria madurensis|Croton adenocalyx|Croton cortesianus|Croton eluteria|Croton sarcopetalus|Croton smithianus|Cryptomeria japonica|Cunila fasciculata|Cunila microcephala|Curcuma Aeruginosa|Curcuma aeruginosa|Curcuma amada|Curcuma amanda Roxb|Curcuma aromatica|Curcuma kwangsiensis|Curcuma longa|Curcuma phaeocaulis|Curcuma wenyujin|Curcuma zedoaria|Cutaneotrichosporon cutaneum|Cyclotrichium niveum|Cymbopogon martinii|Cymbopogon nervatus|Cyperus haspan|Cystophora moniliformis|Dacryodes normandii|Daniellia oliveri|Daphne odora|Daucus carota|Davilanthus hypargyreus|Dendranthema morifolium|Dendropanax trifidus|Dictyopteris divaricata|Dictyota dichotoma|Dictyota dichotoma (Huds.)|Dimerostemma brasilianum|Dimerostemma lippioides|Diplostephium ericoides|Disynaphia multicrenulata|Dracaena deisteliana|Duboisia myoporoides|Duguetia flagellaris|Echinacea angustifolia|Echinacea pallida|Echinacea purpurea|Echinus auritus|Ekimia bornmuelleri|Elsholtzia ciliata|Elysia halimedae|Encelia canescens|Entandrophragma cylindricum|Epimedium sagittatum|Epinephelus drummondhayi|Eremanthus brasiliensis|Eremanthus capitatus|Eremanthus crotonoides|Eremanthus glomerulatus|Eremanthus mollis|Eremanthus pohlii|Ericameria parryi var. parryi|Erigeron annuus|Erigeron bonariensis|Erigeron canadensis|Erigeron sumatrensis|Eriogonum nudum|Erythrina sandwicensis|Etlingera pavieana|Eucalyptus agglomerata|Eucalyptus apodophylla|Eugenia uniflora|Euodia merrillii|Eupatorium altissimum|Eupatorium cannabinum|Eupatorium chinense|Eupatorium serotinum|Euphorbia balsamifera|Euphorbia sessiliflora|Falcaria vulgaris|Felicia erigeroides|Ferulago thirkeana|Ferulago trachycarpa|Ficus carica|Ficus mucuso|Fleischmannia prasiifolia|Fleischmannia pratensis|Flourensia heterolepis|Flourensia macrophylla|Foeniculum vulgare|Folium callicarpae nudiflorae|Fusarium culmorum|Geigeria aspera|Geigeria brevifolia|Geigeria burkei|Geigeria burkei var. burkei|Geitlerinema splendidum|Gentiana asclepiadea|Gentiana formosana|Geranium|Glebionis coronaria|Glebionis coronarium|Glehnia littoralis|Gnidia subcordata|Goniothalamus thwaitesii|Goyazianthus tetrastichus|Grazielia serrata|Grindelia aphanactis|Grindelia camporum|Grindelia chiloensis|Grindelia hirsutula|Grindelia paludosa|Grindelia squarrosa|Grosvenoria rimbachii|Guarea guidonia|Guarea macrophylla ssp.tuberculata|Guatteria leiophylla|Guatteriopsis blepharophylla|Gutierrezia espinosae|Gutierrezia gilliesii|Gutierrezia sarothrae|Gymnanthemum corymbosum|Gynoxys acostae|Gynoxys dielsiana|Gynoxys nitida|Halocarpus bidwillii|Halocarpus biformis|Hamamelis virginiana|Haminoea fusari|Hansenia forbesii|Hansenia weberbaueriana|Haplopappus deserticola|Haplopappus glutinosus|Haplopappus marginalis|Haplopappus paucidentatus|Haplostichanthus johnsonii|Hartwrightia floridana|Hebeclinium macrophyllum|Hedeoma mandoniana|Hedyosmum bonplandianum|Hedyosmum costaricense|Hedyosmum mexicanum|Helianthopsis microphylla|Helichrysum drakensbergense|Helichrysum glomeratum|Helichrysum herbaceum|Helichrysum splendidum|Helietta apiculata|Heliopsis buphthalmoides|Helvella esculenta|Hepialus hecta|Heracleum antasiaticum|Heracleum dissectum|Heracleum maximum|Hertia pallens|Heteromma decurrens|Heteropappus altaicus|Heterotheca grandiflora|Hexalobus crispiflorus|Hilliardiella aristata|Hoslundia opposita|Houttuynia cordata|Humulus lupulus|Hyacinthoides hispanica|Hygrophila polysperma|Hymenocrater incanus|Hymenopappus scabiosaeus|Hymenothrix wislizeni|Hymenothrix wislizenii|Hypericum androsaemum|Hypericum australe|Hypericum humifusum|Hypericum perfoliatum|Hypericum perforatum|Hypericum pulchrum|Hypericum rumeliacum|Hypericum tomentosum|Hypericum undulatum|Hyssopus officinalis|Ichthyothere connata|Ichthyothere terminalis|Illicium anisatum|Illicium difengpi|Incarvillea emodi|Inezia integrifolia|Inulanthera tridens|Ipomoea reptans|Iris potaninii|Iris tectorum|Isocoma veneta|Isodon rugosus|Iva annua|Jaaginema geminatum|Jacobaea vulgaris|Jaspis stellifera|Jeffreycia zanzibarensis|Jugo|Juniperus comitana|Juniperus communis|Juniperus gamboana|Juniperus jaliscana|Juniperus monticola|Juniperus standleyi|Juniperus taxifolia|Jurinea suffruticosa|Kadsura japonica|Kleinia petraea|Koanophyllon albicaule|Koanophyllon albicaulis|Kumquat|Laggera alata|Lallemantia peltata|Lantana xenica|Larix laricina|Larix lyallii|Larix occidentalis|Lasianthea fruticosa|Lasiolaena morii|Launea|Lavandula angustifolia|Lavandula latifolia|Lemnalia africana|Leonurus heterophyllus|Lepechinia chamaedryoides|Lepechinia chilensis|Lepechinia floribunda|Lepidium virginicum|Lessingianthus compactiflorus|Leucanthemum maximum|Levisticum officinale|Liabum floribundum|Liatris squarrosa|Ligularia fischerii|Ligularia thyrsoidea|Ligusticum chuanxiong|Ligusticum jeholense|Ligusticum sinense|Ligusticum striatum|Ligusticum tenuissimum|Lilium elegans|Lindera aggregata|Lindera strichnifolia|Linum capitatum|Linzia glabra|Lippia Myriocephala|Lippia alba|Lippia multiflora|Liquidambar styraciflua|Litsea cubeba|Litsea laurifolia|Lobularia elongata|Locusta migratoria|Lomatia silaifolia|Lonicera japonica|Lophozia ventricosa|Loxothysanus sinuatus|Lupinus caudatus|Macaranga indica|Magnolia balansae|Magnolia obovata|Magnolia officinalis|Magnolia stellata|Malus|Malus toringoides|Manekia naranjoana|Marrubium parviflorum|Marsypianthes chamaedrys|Matricaria chamomilla|Matricaria discoidea|Matricaria matricarioides|Mattfeldanthus andrade-limae|Mcneillia graminifolia|Melampyrum arvense|Melissa officinalis|Mentha aquatica|Mentha arvensis L.|Mentha longifolia|Mentha longifolia var. asiatica|Mentha piperita|Mentha spicata|Mentha suaveolens|Metopium brownei|Microcoleus amoenus|Microglossa pyrifolia|Microglossa pyrrhopappa|Micromeria cremnophila|Micromeria myrtifolia|Micromonospora rosaria|Mikania arrojadoi|Mikania goyazensis|Mikania hookeriana|Mikania laevigata|Mikania pohlii|Mikania purpurascens|Milleria quinqueflora|Minthostachys andina|Minthostachys glabrescens|Minthostachys mollis|Monarda fistulosa|Monodora tenuifolia|Montanoa hibiscifolia|Monticalia firmipes|Morina persica|Moringa aptera|Moringa oleifera|Mosla cavaleriei|Mosla chinensis|Mucuna sloanei|Mulguraea tridens|Murraya exotica|Murraya paniculata|Mutisia retrorsa|Mycale laxissima|Myelochroa rhytidodes|Nassauvia aculeata|Nassauvia darwinii|Naucleopsis stipularis|Nectandra salicina|Neodilsea yendoana|Neodiprion sertifer|Neofusicoccum australe|Neomirandea angularis|Neomirandea arthodes|Nepeta caesarea|Nepeta nuda|Nepeta racemosa|Nepeta trachonitica|Nepeta viscida|Nervilia fordii|Nicotiana alata|Nidorella auriculata|Nidorella hottentotica|Nidorella podocephala|Nidorella resedifolia|Nidorella welwitschii|Notholaena peninsularis|Ochrocarpos odoratus|Ocimum basilicum|Ocimum gratissimum|Ocimum tenuiflorum|Ocotea austinii|Ocotea gomezii|Ocotea holdrigeana|Ocotea meziana|Ocotea morae|Ocotea sinuata|Ocotea valeriana|Oedera squarrosa|Olearia phlogopappa|Oligonychus bessardi|Ophiorrhiza acuminata|Ophryosporus floribundus|Oreoherzogia fallax|Origanum acutidens|Origanum adanense|Origanum laevigatum|Origanum paniculatum|Origanum vulgare|Orthosiphon aristatus|Orthosiphon grandiflorus|Oscillatoria amoena|Oscillatoria geminata|Oscillatoria splendida|Osteospermum thodei|Ostericum grosseserratum|Otostegia fruticosa|Oyedaea verbesinoides|Panax ginseng|Panax quinquefolius|Pappobolus microphyllus|Parmelia leucotyliza|Parmelia xanthosorediata|Parthenium integrifolium|Pecten jacobaeus|Pegolettia senegalensis|Pelargonium citronellum|Pelargonium endlicherianum|Pelargonium quercifolium|Pelargonium ternifolium|Pelargonium vitifolium|Perilla frutescens|Perilla frutescens var. hirtella|Perilla ocimoides|Persea tolimanensis|Persicaria hydropiperoides|Persicaria minor|Perymeniopsis ovalifolia|Perymenium featherstonei|Perymenium klattianum|Petalonia fascia|Petasites albus|Petasites hybridus|Petersianthus macrocarpus|Petriella guttulata|Petroselinum crispum|Peucedanum paniculatum|Peucedanum paniculatum L.|Peucedanum zenkeri|Phaseolus atropurpureus|Phialocephala fortinii|Philadelphia fleabane|Pholiota nameko|Phoma violacea|Phyllanthus fraternus|Phyllobates aurotaenia|Picradeniopsis multiflora|Pimenta racemosa|Pinus halepensis|Pinus pinaster|Pinus sibirica|Pinus sitchensis|Pinus sylvestris|Pinus sylvestris var. hamata|Piper aduncum|Piper anisum|Piper arboreum|Piper auritum|Piper cernuum|Piper clusii|Piper corcovadense|Piper cubeba|Piper fimbriulatum|Piper gaudichaudianum|Piper kadsura|Piper lanceaefolium|Piper nigrum|Piper obliquum|Piper ossanum|Piper regnellii|Piper taboganum|Pistacia lentiscus|Pittosporum tobira|Pittosporum viridiflorum|Plagius flosculosus|Planaltoa lychnophoroides|Platostoma africanum|Platycladus orientalis|Plenodomus tracheiphilus|Plexaurella grisea|Plocama calabrica|Pluchea dioscoridis|Polemannia montana|Polydora poskeana|Polygala reinii|Polygonatum falcatum|Polygonatum glaberrimum|Polygonum Minus|Polygonum minus|Polymnia canadensis|Polyscias fruticosa|Polysiphonia morrowii|Porcelia macrocarpa|Porella canariensis|Prangos heyniae|Prangos uechtritzii|Prangos uloptera|Premna schimperi|Prumnopitys andina|Prumnopitys ferruginoides|Prumnopitys taxifolia|Pseudocedrela kotschyi|Pseudodistoma megalarva|Pseudognaphalium oligandrum|Pseudopegolettia tenella|Pseudotaxus chienii|Pseudotsuga japonica|Pseudotsuga japonicum|Psiadia altissima|Psidium friedrichsthalianum|Psychotria rubra|Pteronia camphorata|Pteronia incana|Pulsatilla cernua var. koreana|Punctelia microsticta|Pycnanthemum floridanum|Pyrola rotundifolia|Pyrrosia davidii|Quercus spicata|Raulinoa echinata|Retama duriaei|Rhaponticum carthamoides|Rheedia benthamiana|Rhus coriaria|Riccia fluitans|Roldana barba-johannis|Rothmannia urcelliformis|Rubia schumanniana|Rubus pinfaensis|Sabal causiarum|Salmea scandens|Salvia absconditiflora|Salvia amarissima Ortega|Salvia caespitosa|Salvia ianthina|Salvia iodantha|Salvia nemorosa|Salvia officinalis|Salvia reuteriana|Salvia sahendica|Salvia sclarea|Salvia syriaca|Salvia virgata|Salvia × sylvestris|Salvinia imbricata|Santolina rosmarinifolia|Sarcococca coriacea|Satureja montana|Satureja spicigera|Satureja wiedemanniana|Scaligeria lazica|Scandix australis|Schefferomitra subaequalis|Schinus lentiscifolia|Schinus lentiscifolius|Schinus molle|Schisandra chinensis|Schistostephium crataegifolium|Schizonepeta tenuifolia|Schizonepeta tenuisfolia|Schkuhria schkuhrioides|Senecio bergii|Senecio brasiliensis|Senecio coahuilensis|Senecio coronatus|Senecio digitalifolius|Senecio gallicus|Senecio lanceus|Senecio lydenburgensis|Senecio othonniformis|Senecio oxyriifolius|Senecio pachyphyllos|Senecio philippicus|Senecio polyanthemoides|Senecio portalesianus|Senecio richii|Senecio subrubriflorus|Senecio subsessilis|Senecio subumbellatus|Senecio tricephalus|Senecio variabilis|Senecio venosus|Sequoia sempervirens|Serratula wolfi|Serratula xeranthemoides|Seseli|Shorea robusta|Sida hermaphrodita|Sideritis amasiaca|Sideritis athoa|Sideritis brevidens|Sideritis chamaedryfolia|Sideritis condensata|Sideritis congesta|Sideritis curvidens|Sideritis dichotoma|Sideritis hirsuta|Sideritis hispida|Sideritis lanata|Sideritis lyciae|Sideritis montana|Sideritis romana|Sideritis rubriflora|Sideritis tragoriganum|Silphium perfoliatum|Sinularia erecta|Sinularia manaarensis|Siparuna thecaphora|Smallanthus glabratus|Smallanthus uvedalia|Sogatella furcifera|Solanecio biafrae|Solanum incisum|Solanum lycopersicum|Solanum stuckertii|Solidago canadensis|Solidago drummondii|Solidago flexicaulis|Solidago gigantea|Solidago leavenworthii|Solidago nemoralis|Solidago odora|Solidago spathulata|Spermacoce stricta|Sphaeria biglobosa|Sphaeria doliolum|Spiraea thunbergii|Spiranthera odoratissima|Spongia zimocca|Stachys aegyptiaca|Stachys obliqua|Steganotaenia araliacea|Stemodia viscosa|Stephania micrantha|Stevia alpina|Stevia amambayensis|Stevia andina|Stevia aristata|Stevia chamaedrys|Stevia eupatoria|Stevia ovata|Stevia philippiana|Stevia polyphylla|Stevia porphyrea|Stevia samaipatensis|Stevia sarensis|Stevia stricta|Stevia viscida|Stevia yaconensis|Stichopus multifidus|Stilpnopappus glomeratus|Stilpnopappus tomentosus|Stilpnopappus trichospiroides|Stoeba extensa|Streptomyces albidoflavus|Streptomyces coelicolor|Streptomyces flavofungini|Streptomyces rugosporus|Streptomyces violaceochromogenes|Strophanthus eminii|Strychnos tomentosa|Swertia decora|Symphyopappus compressus|Symphyopappus reticulatus|Syncephalastrum racemosum|Syncretocarpus sericeus|Synedrella nodiflora|Syneilesis aconitifolia|Syzygium nervosum|Tagetes minuta|Talaromyces purpureogenus|Talinum paniculatum|Tamaulipa azurea|Tanacetum annuum|Tanacetum parthenium|Tanacetum sibiricum|Tanacetum vulgare|Taonia atomaria|Taraxacum udum|Tasmannia lanceolata|Tessaria fastigiata|Teucrium melissoides|Teucrium montanum|Teucrium polium|Teucrium sandrasicum|Thaumetopoea pityocampa|Thecocarpus carvifolius|Theonella cupola|Thymus|Thymus X-porlock|Thymus camphoratus|Thymus eriocalyx|Thymus kotschyanus|Thymus longicaulis|Thymus nummularius|Thymus quinquecostatus|Thymus sibthorpii|Thymus subcollinus|Thymus thracicus|Thymus vulgaris|Thymus willkommii|Thymus zygioides|Toona ciliata|Tordylium apulum|Torilis japonica|Trichogonia grazielae|Trichogonia salviaefolia|Trichogonia villosa|Tricholoma scalpturatum|Trichothecium sympodiale|Trifoliate orange|Trifolium medium|Tripleurospermum inodorum|Tritomaria quinquedentata|Trixis antimenorrhoea|Trixis pterocaulis|Tubifera ferruginosa|Ursinia abrotanifolia|Ursinia nudicaulis|Ursinia serrata|Uvaria chamae|Valeriana officinalis|Varronia curassavica|Venidium hirsutum|Veratrum eschscholtzii|Veratrum fimbriatum|Verbesina glabrata|Verbesina persicifolia|Verbesina sordescens|Verbesina subcordata|Vernonia colorata|Vernonia holstii|Vernonia syringifolia|Veronica alpina|Viburnum japonicum|Vicoa vestita|Vidalia volubilis|Viguiera grammatoglossa|Virola surinamensis|Vitex agnus-castus|Vitex lucens|Vitex negundo|Vitis heyneana|Vogtia annua|Webera corymbosa|Wedelia bishoplecta|Wedelia foliacea|Wedelia hispidantha|Wedelia hookeriana|Wedelia laevissima|Wedelia regis|Wedelia riedellii|West African Pepper|Wunderlichia mirabilis|Xanthium orientale|Xanthium strumarium|Xylopia phloiodora|Zanthoxylum bungeanum|Zanthoxylum piperitum|Zanthoxylum schinifolium|Zanthoxylum simulans|Zemisia discolor|Zingiber Officinale|Zingiber cassumunar Roxb.|Zingiber mioga|Zingiber officinale|Zingiber officinale ROSC.|Zinnia elegans|Zinnia peruviana|Zinnia violacea|basil|candyleaf|cicely|common myrtle|common sunflower|potato|tarragon

>  <collections>  (119) 
ANPDB|BIOFACQUIM|CMAUP (cCollective molecular activities of useful plants)|FooDB|KNApSaCK|Latin America dataset|NANPDB (Natural Products from Northern African Sources)|NAPRORE-CR|NPASS|NPDBEjeCol|NuBBEDB|Super Natural II|TCMDB-Taiwan (Traditional Chinese Medicine database)|TIPdb (database of Taiwan indigenous plants)|VietHerb|WikiData Natural Products

>  <dois>  (119) 
10.1002/(SICI)1099-1026(199601)11:1<15::AID-FFJ541>3.0.CO;2-H|10.1002/(SICI)1099-1026(199609)11:5<315::AID-FFJ594>3.0.CO;2-B|10.1002/(SICI)1099-1026(199705)12:3<211::AID-FFJ622>3.0.CO;2-5|10.1002/(SICI)1099-1026(199901/02)14:1<45::AID-FFJ774>3.0.CO;2-S|10.1002/(SICI)1099-1026(199901/02)14:1<50::AID-FFJ783>3.0.CO;2-7|10.1002/(SICI)1099-1026(199901/02)14:1<55::AID-FFJ784>3.0.CO;2-Q|10.1002/(SICI)1099-1026(199901/02)14:1<60::AID-FFJ785>3.0.CO;2-0|10.1002/(SICI)1099-1026(199905/06)14:3<167::AID-FFJ802>3.0.CO;2-O|10.1002/(SICI)1099-1026(199905/06)14:3<195::AID-FFJ807>3.0.CO;2-C|10.1002/(SICI)1099-1026(199907/08)14:4<230::AID-FFJ816>3.0.CO;2-L|10.1002/(SICI)1099-1026(200001/02)15:1<47::AID-FFJ869>3.0.CO;2-9|10.1002/(SICI)1099-1565(199803/04)9:2<88::AID-PCA384>3.0.CO;2-4|10.1002/(SICI)1099-1565(200003/04)11:2<99::AID-PCA494>3.0.CO;2-9|10.1002/(SICI)1099-1573(1998)12:1+<S117::AID-PTR269>3.0.CO;2-2|10.1002/(SICI)1521-3773(19980605)37:10<1400::AID-ANIE1400>3.0.CO;2-I|10.1002/1099-1026(200005/06)15:3<201::AID-FFJ893>3.0.CO;2-I|10.1002/1099-1026(200101/02)16:1<19::AID-FFJ940>3.0.CO;2-U|10.1002/BSCB.19860950903|10.1002/CBDV.201800531|10.1002/CBER.19761091109|10.1002/CBER.19771100210|10.1002/CBER.19791120206|10.1002/ECE3.5390|10.1002/FFJ.1174|10.1002/FFJ.1582|10.1002/FFJ.2730010103|10.1002/FFJ.2730020110|10.1002/FFJ.2730030105|10.1002/FFJ.2730030208|10.1002/FFJ.2730030406|10.1002/FFJ.2730040106|10.1002/FFJ.2730050307|10.1002/FFJ.2730050309|10.1002/FFJ.2730060109|10.1002/FFJ.2730060206|10.1002/FFJ.2730060307|10.1002/FFJ.2730070205|10.1002/FFJ.2730080303|10.1002/FFJ.2730080504|10.1002/FFJ.2730100208|10.1002/FFJ.958|10.1002/FFJ.983|10.1002/JLAC.198319830422|10.1002/JSFA.8889|10.1002/JSSC.200800253|10.1002/MRC.1260240321|10.1002/PCA.564|10.1002/PCA.594|10.1002/PTR.1093|10.1002/PTR.856|10.1006/JFCA.2000.0968|10.1007/BF00579991|10.1007/BF00580548|10.1007/BF00581596|10.1007/BF00630335|10.1007/BF01959201|10.1007/BF02238211|10.1007/BF02266966|10.1007/BF02269705|10.1007/BF02312888|10.1007/BF02495145|10.1007/BF02866639|10.1007/S10886-013-0311-2|10.1007/S11418-007-0175-2|10.1016/0031-9422(79)80129-6|10.1016/0031-9422(79)80132-6|10.1016/0031-9422(79)80141-7|10.1016/0031-9422(79)80147-8|10.1016/0031-9422(79)80182-X|10.1016/0031-9422(79)80198-3|10.1016/0031-9422(79)80205-8|10.1016/0031-9422(79)83019-8|10.1016/0031-9422(79)83026-5|10.1016/0031-9422(80)80218-4|10.1016/0031-9422(80)80219-6|10.1016/0031-9422(80)85015-1|10.1016/0031-9422(80)85023-0|10.1016/0031-9422(80)85024-2|10.1016/0031-9422(80)85025-4|10.1016/0031-9422(80)85036-9|10.1016/0031-9422(80)85130-2|10.1016/0031-9422(80)85155-7|10.1016/0031-9422(80)87019-1|10.1016/0031-9422(80)87021-X|10.1016/0031-9422(80)87041-5|10.1016/0031-9422(81)80032-5|10.1016/0031-9422(81)85163-1|10.1016/0031-9422(81)85166-7|10.1016/0031-9422(81)85192-8|10.1016/0031-9422(81)85194-1|10.1016/0031-9422(81)85228-4|10.1016/0031-9422(82)80030-7|10.1016/0031-9422(82)80032-0|10.1016/0031-9422(82)80035-6|10.1016/0031-9422(82)80036-8|10.1016/0031-9422(82)80098-8|10.1016/0031-9422(82)80139-8|10.1016/0031-9422(82)80140-4|10.1016/0031-9422(82)83091-4|10.1016/0031-9422(82)83100-2|10.1016/0031-9422(82)83114-2|10.1016/0031-9422(82)83157-9|10.1016/0031-9422(82)83165-8|10.1016/0031-9422(82)83167-1|10.1016/0031-9422(82)83168-3|10.1016/0031-9422(82)83170-1|10.1016/0031-9422(82)85189-3|10.1016/0031-9422(82)85198-4|10.1016/0031-9422(82)85199-6|10.1016/0031-9422(82)85252-7|10.1016/0031-9422(82)85265-5|10.1016/0031-9422(83)80100-9|10.1016/0031-9422(83)80101-0|10.1016/0031-9422(83)80102-2|10.1016/0031-9422(83)80212-X|10.1016/0031-9422(83)80215-5|10.1016/0031-9422(83)80224-6|10.1016/0031-9422(83)80242-8|10.1016/0031-9422(83)80246-5|10.1016/0031-9422(83)83034-9|10.1016/0031-9422(83)83045-3|10.1016/0031-9422(83)85036-5|10.1016/0031-9422(86)80021-8|10.1016/0031-9422(86)80022-X|10.1016/0031-9422(86)88017-7|10.1016/0031-9422(88)80056-6|10.1016/0031-9422(88)80463-1|10.1016/0031-9422(88)80612-5|10.1016/0031-9422(88)80673-3|10.1016/0031-9422(88)80683-6|10.1016/0031-9422(88)83029-2|10.1016/0031-9422(88)83058-9|10.1016/0031-9422(88)87031-6|10.1016/0031-9422(89)80047-0|10.1016/0031-9422(89)80070-6|10.1016/0031-9422(89)80072-X|10.1016/0031-9422(89)80149-9|10.1016/0031-9422(89)80195-5|10.1016/0031-9422(89)80314-0|10.1016/0031-9422(89)85025-3|10.1016/0031-9422(90)80178-J|10.1016/0031-9422(90)80180-O|10.1016/0031-9422(90)80181-F|10.1016/0031-9422(90)80191-I|10.1016/0031-9422(90)80193-K|10.1016/0031-9422(90)83037-2|10.1016/0031-9422(90)83041-X|10.1016/0031-9422(90)83046-4|10.1016/0031-9422(90)85118-Y|10.1016/0031-9422(90)85434-H|10.1016/0031-9422(90)89064-G|10.1016/0031-9422(91)80089-J|10.1016/0031-9422(91)83025-G|10.1016/0031-9422(91)83037-L|10.1016/0031-9422(91)83038-M|10.1016/0031-9422(91)83197-S|10.1016/0031-9422(91)83457-V|10.1016/0031-9422(91)83632-U|10.1016/0031-9422(91)83735-4|10.1016/0031-9422(91)83756-B|10.1016/0031-9422(91)84214-D|10.1016/0031-9422(91)84215-E|10.1016/0031-9422(91)84242-K|10.1016/0031-9422(91)85072-8|10.1016/0031-9422(91)85116-H|10.1016/0031-9422(91)85124-I|10.1016/0031-9422(92)80176-F|10.1016/0031-9422(92)83136-M|10.1016/0031-9422(92)83462-8|10.1016/0031-9422(92)83657-K|10.1016/0031-9422(94)85021-6|10.1016/0031-9422(95)00522-9|10.1016/0031-9422(95)00543-G|10.1016/0031-9422(95)00601-X|10.1016/0031-9422(95)00806-3|10.1016/0305-1978(85)90081-X|10.1016/0305-1978(92)90070-T|10.1016/0305-1978(95)00026-Q|10.1016/J.APJTM.2017.07.004|10.1016/J.CHROMA.2007.12.011|10.1016/J.FOODCHEM.2010.08.043|10.1016/J.FOODRES.2018.12.054|10.1016/J.INDCROP.2013.06.023|10.1016/J.INDCROP.2014.04.048|10.1016/J.JPBA.2007.01.024|10.1016/J.LWT.2018.05.011|10.1016/J.PHYMED.2007.03.013|10.1016/J.PHYTOCHEM.2003.08.004|10.1016/J.PHYTOCHEM.2004.04.003|10.1016/J.PHYTOCHEM.2004.06.018|10.1016/J.PHYTOCHEM.2004.08.019|10.1016/J.PHYTOCHEM.2005.04.006|10.1016/J.PHYTOCHEM.2005.07.001|10.1016/J.PHYTOCHEM.2005.08.001|10.1016/J.PHYTOCHEM.2006.05.038|10.1016/J.PHYTOCHEM.2009.03.012|10.1016/J.PHYTOCHEM.2009.06.013|10.1016/S0021-9673(01)96050-9|10.1016/S0031-9422(00)00461-1|10.1016/S0031-9422(00)80081-3|10.1016/S0031-9422(00)80155-7|10.1016/S0031-9422(00)80325-8|10.1016/S0031-9422(00)80481-1|10.1016/S0031-9422(00)80483-5|10.1016/S0031-9422(00)80497-5|10.1016/S0031-9422(00)80693-7|10.1016/S0031-9422(00)80755-4|10.1016/S0031-9422(00)80757-8|10.1016/S0031-9422(00)80758-X|10.1016/S0031-9422(00)80774-8|10.1016/S0031-9422(00)81111-5|10.1016/S0031-9422(00)81122-X|10.1016/S0031-9422(00)81124-3|10.1016/S0031-9422(00)81166-8|10.1016/S0031-9422(00)81231-5|10.1016/S0031-9422(00)81232-7|10.1016/S0031-9422(00)81255-8|10.1016/S0031-9422(00)81431-4|10.1016/S0031-9422(00)81433-8|10.1016/S0031-9422(00)81571-X|10.1016/S0031-9422(00)81748-3|10.1016/S0031-9422(00)81970-6|10.1016/S0031-9422(00)82360-2|10.1016/S0031-9422(00)82414-0|10.1016/S0031-9422(00)82426-7|10.1016/S0031-9422(00)82437-1|10.1016/S0031-9422(00)82471-1|10.1016/S0031-9422(00)82616-3|10.1016/S0031-9422(00)82620-5|10.1016/S0031-9422(00)82639-4|10.1016/S0031-9422(00)82717-X|10.1016/S0031-9422(00)82719-3|10.1016/S0031-9422(00)82734-X|10.1016/S0031-9422(00)82740-5|10.1016/S0031-9422(00)82744-2|10.1016/S0031-9422(00)83114-3|10.1016/S0031-9422(00)83171-4|10.1016/S0031-9422(00)83172-6|10.1016/S0031-9422(00)83174-X|10.1016/S0031-9422(00)83175-1|10.1016/S0031-9422(00)83199-4|10.1016/S0031-9422(00)83466-4|10.1016/S0031-9422(00)83754-1|10.1016/S0031-9422(00)83758-9|10.1016/S0031-9422(00)83830-3|10.1016/S0031-9422(00)83872-8|10.1016/S0031-9422(00)83939-4|10.1016/S0031-9422(00)83940-0|10.1016/S0031-9422(00)83942-4|10.1016/S0031-9422(00)83946-1|10.1016/S0031-9422(00)84184-9|10.1016/S0031-9422(00)84709-3|10.1016/S0031-9422(00)84713-5|10.1016/S0031-9422(00)84743-3|10.1016/S0031-9422(00)84959-6|10.1016/S0031-9422(00)85512-0|10.1016/S0031-9422(00)86728-X|10.1016/S0031-9422(00)86737-0|10.1016/S0031-9422(00)88691-4|10.1016/S0031-9422(00)89260-2|10.1016/S0031-9422(00)89262-6|10.1016/S0031-9422(00)90407-2|10.1016/S0031-9422(00)91034-3|10.1016/S0031-9422(00)91055-0|10.1016/S0031-9422(00)91056-2|10.1016/S0031-9422(00)91057-4|10.1016/S0031-9422(00)91071-9|10.1016/S0031-9422(00)91482-1|10.1016/S0031-9422(00)91484-5|10.1016/S0031-9422(00)91493-6|10.1016/S0031-9422(00)95102-1|10.1016/S0031-9422(00)95275-0|10.1016/S0031-9422(00)95294-4|10.1016/S0031-9422(00)97716-1|10.1016/S0031-9422(00)97781-1|10.1016/S0031-9422(00)98080-4|10.1016/S0031-9422(00)98238-4|10.1016/S0031-9422(00)98487-5|10.1016/S0031-9422(00)98542-X|10.1016/S0031-9422(00)98545-5|10.1016/S0031-9422(00)98546-7|10.1016/S0031-9422(00)98549-2|10.1016/S0031-9422(00)98550-9|10.1016/S0031-9422(01)00018-8|10.1016/S0031-9422(02)00006-7|10.1016/S0031-9422(02)00068-7|10.1016/S0031-9422(02)00207-8|10.1016/S0031-9422(82)85036-X|10.1016/S0031-9422(82)85038-3|10.1016/S0031-9422(82)85040-1|10.1016/S0031-9422(82)85041-3|10.1016/S0031-9422(82)85042-5|10.1016/S0031-9422(82)85073-5|10.1016/S0031-9422(96)00726-1|10.1016/S0031-9422(97)00016-2|10.1016/S0031-9422(97)00117-9|10.1016/S0031-9422(97)00172-6|10.1016/S0031-9422(97)00292-6|10.1016/S0031-9422(97)00324-5|10.1016/S0031-9422(97)00400-7|10.1016/S0031-9422(97)00762-0|10.1016/S0031-9422(98)00283-0|10.1016/S0031-9422(99)00050-3|10.1016/S0305-1978(00)00103-4|10.1016/S0305-1978(01)00090-4|10.1016/S0305-1978(03)00039-5|10.1016/S0305-1978(03)00061-9|10.1016/S0367-326X(01)00367-7|10.1016/S0378-8741(01)00211-2|10.1016/S0378-8741(99)00072-0|10.1016/S0926-6690(03)00076-1|10.1016/s0960-894x(99)00536-3|10.1021/JA062669X|10.1021/JF00034A033|10.1021/JF00035A029|10.1021/JF00046A030|10.1021/JF00069A028|10.1021/JF00071A004|10.1021/JF00071A013|10.1021/JF00073A015|10.1021/JF00083A001|10.1021/JF00094A032|10.1021/JF00104A026|10.1021/JF00118A056|10.1021/JF020422N|10.1021/JF020872F|10.1021/JF040437G|10.1021/JF902669D|10.1021/JF950577D|10.1021/JF970808B|10.1021/JF9708296|10.1021/JF9800559|10.1021/JF980108M|10.1021/JF981170M|10.1021/JF9908594|10.1021/JF991395C|10.1021/JO040272A|10.1021/NP030475E|10.1021/NP060180B|10.1021/NP50009A015|10.1021/NP50031A024|10.1021/NP50034A016|10.1021/NP50034A042|10.1021/NP50035A008|10.1021/NP50040A037|10.1021/NP50040A040|10.1021/NP50041A034|10.1021/NP50050A051|10.1021/NP50094A009|10.1021/NP50121A011|10.1021/NP960732Y|10.1021/NP9705064|10.1021/jf011456i|10.1021/np060180b|10.1038/NCHEMBIO.2007.29|10.1055/S-0029-1243136|10.1055/S-2000-10685|10.1055/S-2000-8627|10.1055/S-2000-9780|10.1055/S-2001-18363|10.1055/S-2001-18857|10.1055/S-2002-32557|10.1055/S-2002-32898|10.1055/S-2002-33803|10.1055/S-2006-957378|10.1055/S-2006-957420|10.1055/S-2006-957458|10.1055/S-2006-957640|10.1055/S-2006-957896|10.1055/S-2006-959474|10.1055/S-2006-959580|10.1055/S-2006-959673|10.1055/S-2006-959714|10.1055/S-2006-959993|10.1055/S-2006-960123|10.1055/S-2006-960128|10.1055/S-2006-960872|10.1055/S-2006-961452|10.1055/S-2006-961701|10.1055/S-2006-962016|10.1055/S-2006-962018|10.1055/S-2006-962093|10.1055/S-2006-962206|10.1055/S-2006-962450|10.1055/S-2006-962614|10.1055/S-2006-962665|10.1055/S-2007-969055|10.1055/S-2007-969104|10.1055/S-2007-969136|10.1055/S-2007-969294|10.1055/S-2007-969446|10.1055/S-2007-969499|10.1055/S-2007-969570|10.1055/S-2007-969599|10.1055/S-2007-969675|10.1055/S-2007-969897|10.1055/S-2008-1074841|10.1076/1388-0209(200004)3821-1FT106|10.1076/PHBI.39.5.388.5894|10.1078/0944-7113-00016|10.1080/0972060X.2005.10643413|10.1080/0972060X.2008.10643675|10.1080/0972060X.2013.813219|10.1080/0972060X.2014.895210|10.1080/10412905.1989.9697751|10.1080/10412905.1989.9697786|10.1080/10412905.1989.9699438|10.1080/10412905.1989.9699439|10.1080/10412905.1990.9697824|10.1080/10412905.1990.9697836|10.1080/10412905.1990.9697845|10.1080/10412905.1990.9697857|10.1080/10412905.1990.9697864|10.1080/10412905.1990.9697873|10.1080/10412905.1990.9697878|10.1080/10412905.1990.9697881|10.1080/10412905.1991.9697930|10.1080/10412905.1991.9697936|10.1080/10412905.1991.9697952|10.1080/10412905.1991.9697953|10.1080/10412905.1991.9697958|10.1080/10412905.1991.9697974|10.1080/10412905.1991.9697980|10.1080/10412905.1991.9697991|10.1080/10412905.1992.9698015|10.1080/10412905.1992.9698043|10.1080/10412905.1992.9698053|10.1080/10412905.1992.9698066|10.1080/10412905.1992.9698067|10.1080/10412905.1992.9698068|10.1080/10412905.1992.9698070|10.1080/10412905.1992.9698072|10.1080/10412905.1992.9698079|10.1080/10412905.1992.9698083|10.1080/10412905.1992.9698084|10.1080/10412905.1992.9698088|10.1080/10412905.1992.9698091|10.1080/10412905.1992.9698095|10.1080/10412905.1992.9698109|10.1080/10412905.1992.9698135|10.1080/10412905.1992.9698139|10.1080/10412905.1992.9698147|10.1080/10412905.1992.9698149|10.1080/10412905.1993.9698164|10.1080/10412905.1993.9698167|10.1080/10412905.1993.9698174|10.1080/10412905.1993.9698177|10.1080/10412905.1993.9698184|10.1080/10412905.1993.9698205|10.1080/10412905.1993.9698208|10.1080/10412905.1993.9698209|10.1080/10412905.1993.9698214|10.1080/10412905.1993.9698215|10.1080/10412905.1993.9698232|10.1080/10412905.1993.9698243|10.1080/10412905.1993.9698254|10.1080/10412905.1993.9698256|10.1080/10412905.1993.9698261|10.1080/10412905.1993.9698267|10.1080/10412905.1993.9698303|10.1080/10412905.1993.9698309|10.1080/10412905.1994.9698316|10.1080/10412905.1994.9698333|10.1080/10412905.1994.9698359|10.1080/10412905.1994.9698380|10.1080/10412905.1994.9698382|10.1080/10412905.1994.9698395|10.1080/10412905.1994.9698404|10.1080/10412905.1994.9698409|10.1080/10412905.1994.9698418|10.1080/10412905.1994.9698442|10.1080/10412905.1994.9698446|10.1080/10412905.1994.9699344|10.1080/10412905.1994.9699347|10.1080/10412905.1994.9699357|10.1080/10412905.1994.9699361|10.1080/10412905.1994.9699362|10.1080/10412905.1994.9699366|10.1080/10412905.1995.9698462|10.1080/10412905.1995.9698468|10.1080/10412905.1995.9698473|10.1080/10412905.1995.9698475|10.1080/10412905.1995.9698478|10.1080/10412905.1995.9698479|10.1080/10412905.1995.9698496|10.1080/10412905.1995.9698501|10.1080/10412905.1995.9698503|10.1080/10412905.1995.9698508|10.1080/10412905.1995.9698515|10.1080/10412905.1995.9698522|10.1080/10412905.1995.9698555|10.1080/10412905.1995.9698591|10.1080/10412905.1995.9700523|10.1080/10412905.1995.9700529|10.1080/10412905.1995.9700531|10.1080/10412905.1995.9700536|10.1080/10412905.1996.9700554|10.1080/10412905.1996.9700558|10.1080/10412905.1996.9700567|10.1080/10412905.1996.9701028|10.1080/10412905.1996.9701048|10.1080/10412905.1997.9699459|10.1080/10412905.1997.9700708|10.1080/10412905.1997.9700721|10.1080/10412905.1997.9700726|10.1080/10412905.1997.9700727|10.1080/10412905.1997.9700728|10.1080/10412905.1997.9700774|10.1080/10412905.1997.9700778|10.1080/10412905.1997.9700820|10.1080/10412905.1997.9700824|10.1080/10412905.1998.9700856|10.1080/10412905.1998.9700913|10.1080/10412905.1998.9700917|10.1080/10412905.1998.9700918|10.1080/10412905.1998.9700962|10.1080/10412905.1998.9700976|10.1080/10412905.1998.9701001|10.1080/10412905.1998.9701003|10.1080/10412905.1999.9701056|10.1080/10412905.1999.9701059|10.1080/10412905.1999.9701080|10.1080/10412905.1999.9701096|10.1080/10412905.1999.9701102|10.1080/10412905.1999.9701111|10.1080/10412905.1999.9701121|10.1080/10412905.1999.9701122|10.1080/10412905.1999.9701138|10.1080/10412905.1999.9701169|10.1080/10412905.1999.9701178|10.1080/10412905.1999.9701184|10.1080/10412905.1999.9701187|10.1080/10412905.1999.9711991|10.1080/10412905.2000.9699552|10.1080/10412905.2000.9699569|10.1080/10412905.2000.9712056|10.1080/10412905.2000.9712152|10.1080/10412905.2000.9712159|10.1080/10412905.2000.9712191|10.1080/10412905.2001.9699592|10.1080/10412905.2001.9699601|10.1080/10412905.2001.9699620|10.1080/10412905.2001.9699635|10.1080/10412905.2001.9699717|10.1080/10412905.2002.9699882|10.1080/10412905.2002.9699890|10.1080/10412905.2003.9698598|10.1080/10412905.2004.9698688|10.1080/10412905.2004.9698765|10.1080/10412905.2007.9699946|10.1080/10412905.2010.9700338|10.1080/10412905.2012.747271|10.1080/10575630108041259|10.1080/10575639808044941|10.1080/14786419.2010.513685|10.1177/1934578X1100600135|10.1246/BCSJ.51.3395|10.1248/BPB.23.359|10.1248/CPB.31.1743|10.1248/CPB.54.222|10.1248/YAKUSHI1947.101.9_852|10.1271/BBB1961.39.1517|10.1271/BBB1961.45.507|10.1271/BBB1961.47.483|10.1271/BBB1961.55.1655|10.1371/JOURNAL.PONE.0207097|10.14233/AJCHEM.2013.14346|10.1515/ZNC-1999-3-402|10.1590/S0100-40422009000200028|10.1590/S0102-695X2010000400016|10.1590/S0103-50532000000600012|10.1590/S0103-50532003000100004|10.1590/S0103-50532010000500012|10.1590/S0103-50532011000400018|10.17660/ACTAHORTIC.2005.677.9|10.17660/ACTAHORTIC.2005.678.19|10.17678/BEUSCITECH.348447|10.2307/2423424|10.2478/V10007-009-0022-Y|10.3109/13880209109082875|10.3390/FOODS8020053|10.3390/MOLECULES191119220|10.3390/MOLECULES200610298|10.3390/MOLECULES21060814|10.3390/MOLECULES22030335|10.3390/MOLECULES24112053|10.3390/MOLECULES24234244|10.3390/molecules25153530|10.3844/AJBBSP.2008.277.278|10.4268/CJCMM20142423|10.5650/JOS1956.31.151|10.5650/JOS1956.35.176|10.5694/J.1326-5377.1998.TB126732.X|10.5897/JMPR11.972

>  <synonyms>  (119) 
(-)-(S)-germacrene D|(-)-Germacrene D|(1E,5E)-germacra-1(10),4(15),5-triene|(1E,6E,8S)-1-methyl-5-methylidene-8-propan-2-ylcyclodeca-1,6-diene|(1E,6E,8S)-1-methyl-8-(1-methylethyl)-5-methylidenecyclodeca-1,6-diene|(1E,6E,8S)-8-isopropyl-1-methyl-5-methylenecyclodeca-1,6-diene|1(10),4(14),5-Germacratriene|1-Methyl-5-methylene-8-(1-methylethyl)-1,6-cyclodecadiene|23986-74-5|AKOS040733249|CHEBI:49044|CS-0093013|DTXCID40909740|DTXSID101019972|GAIBLDCXCZKKJE-QRYCCKSOSA-N|Germacrene D|Germacrene D (~90%) (Stabilized with Hydroquinone)|HY-125685|MS-23113|Q27121450|UNII-V2I9ATG34E|V2I9ATG34E|germacrene

>  <cas>  (119) 
23986-74-5

$$$$

     RDKit          2D

 32 33  0  0  0  0  0  0  0  0999 V2000
  -14.6187    3.1149    0.0000 C   0  0  0  0  0  0  0  0  0  0  0  0
  -13.6684    1.9543    0.0000 C   0  0  0  0  0  0  0  0  0  0  0  0
  -14.1982    0.5510    0.0000 O   0  0  0  0  0  0  0  0  0  0  0  0
  -12.1881    2.1971    0.0000 C   0  0  0  0  0  0  0  0  0  0  0  0
  -11.2378    1.0366    0.0000 C   0  0  0  0  0  0  0  0  0  0  0  0
   -9.7576    1.2793    0.0000 C   0  0  0  0  0  0  0  0  0  0  0  0
   -8.8072    0.1188    0.0000 C   0  0  0  0  0  0  0  0  0  0  0  0
   -7.3270    0.3616    0.0000 C   0  0  0  0  0  0  0  0  0  0  0  0
   -6.3766   -0.7990    0.0000 C   0  0  0  0  0  0  0  0  0  0  0  0
   -4.8964   -0.5562    0.0000 C   0  0  0  0  0  0  0  0  0  0  0  0
   -3.9461   -1.7167    0.0000 C   0  0  0  0  0  0  0  0  0  0  0  0
   -2.4658   -1.4740    0.0000 C   0  0  0  0  0  0  0  0  0  0  0  0
   -1.5155   -2.6345    0.0000 C   0  0  0  0  0  0  0  0  0  0  0  0
   -0.0353   -2.3917    0.0000 C   0  0  0  0  0  0  0  0  0  0  0  0
    0.4946   -0.9884    0.0000 C   0  0  0  0  0  0  0  0  0  0  0  0
    1.9748   -0.7457    0.0000 C   0  0  0  0  0  0  0  0  0  0  0  0
    2.9252   -1.9062    0.0000 C   0  0  0  0  0  0  0  0  0  0  0  0
    4.4054   -1.6635    0.0000 O   0  0  0  0  0  0  0  0  0  0  0  0
    4.9353   -0.2602    0.0000 C   0  0  0  0  0  0  0  0  0  0  0  0
    3.9849    0.9004    0.0000 O   0  0  0  0  0  0  0  0  0  0  0  0
    6.4155   -0.0174    0.0000 C   0  0  0  0  0  0  0  0  0  0  0  0
    6.9454    1.3859    0.0000 C   0  0  0  0  0  0  0  0  0  0  0  0
    8.4256    1.6287    0.0000 C   0  0  0  0  0  0  0  0  0  0  0  0
    9.3760    0.4681    0.0000 C   0  0  0  0  0  0  0  0  0  0  0  0
   10.8562    0.7109    0.0000 C   0  0  0  0  0  0  0  0  0  0  0  0
   11.3861    2.1142    0.0000 C   0  0  0  0  0  0  0  0  0  0  0  0
   12.8663    2.3570    0.0000 O   0  0  0  0  0  0  0  0  0  0  0  0
   10.4357    3.2747    0.0000 C   0  0  0  0  0  0  0  0  0  0  0  0
    8.9555    3.0320    0.0000 C   0  0  0  0  0  0  0  0  0  0  0  0
    2.3953   -3.3095    0.0000 C   0  0  0  0  0  0  0  0  0  0  0  0
    3.3457   -4.4700    0.0000 C   0  0  0  0  0  0  0  0  0  0  0  0
    0.9151   -3.5523    0.0000 N   0  0  0  0  0  0  0  0  0  0  0  0
  1  2  1  0
  2  3  2  0
  2  4  1  0
  4  5  1  0
  5  6  1  0
  6  7  1  0
  7  8  1  0
  8  9  1  0
  9 10  1  0
 10 11  1  0
 11 12  1  0
 12 13  1  0
 13 14  1  0
 14 15  1  0
 15 16  1  0
 16 17  1  0
 17 18  1  0
 18 19  1  0
 19 20  2  0
 19 21  1  0
 21 22  2  0
 22 23  1  0
 23 24  2  0
 24 25  1  0
 25 26  2  0
 26 27  1  0
 26 28  1  0
 28 29  2  0
 17 30  1  0
 30 31  1  0
 30 32  1  0
 32 14  1  0
 29 23  1  0
M  END
>  <identifier>  (120) 
CNP0080357.3

>  <canonical_smiles>  (120) 
CC(=O)CCCCCCCCCCC1CCC(OC(=O)/C=C/C2=CC=C(O)C=C2)C(C)N1

>  <standard_inchi>  (120) 
InChI=1S/C27H41NO4/c1-21(29)11-9-7-5-3-4-6-8-10-12-24-16-19-26(22(2)28-24)32-27(31)20-15-23-13-17-25(30)18-14-23/h13-15,17-18,20,22,24,26,28,30H,3-12,16,19H2,1-2H3/b20-15+

>  <standard_inchi_key>  (120) 
DYQQVJOMOHCUIP-HMMYKYKNSA-N

>  <name>  (120) 
nan

>  <iupac_name>  (120) 
nan

>  <annotation_level>  (120) 
0

>  <total_atom_count>  (120) 
73

>  <heavy_atom_count>  (120) 
32

>  <molecular_weight>  (120) 
443.63

>  <exact_molecular_weight>  (120) 
443.30356

>  <molecular_formula>  (120) 
C27H41NO4

>  <alogp>  (120) 
5.95

>  <topological_polar_surface_area>  (120) 
75.63

>  <rotatable_bond_count>  (120) 
14

>  <hydrogen_bond_acceptors>  (120) 
5

>  <hydrogen_bond_donors>  (120) 
2

>  <hydrogen_bond_acceptors_lipinski>  (120) 
5

>  <hydrogen_bond_donors_lipinski>  (120) 
2

>  <lipinski_rule_of_five_violations>  (120) 
1

>  <aromatic_rings_count>  (120) 
1

>  <qed_drug_likeliness>  (120) 
0.21

>  <formal_charge>  (120) 
0

>  <fractioncsp3>  (120) 
0.63

>  <number_of_minimal_rings>  (120) 
2

>  <van_der_walls_volume>  (120) 
451.18

>  <contains_sugar>  (120) 
False

>  <contains_ring_sugars>  (120) 
False

>  <contains_linear_sugars>  (120) 
False

>  <murcko_framework>  (120) 
O(CC=Cc1ccccc1)C2CNCCC2

>  <np_likeness>  (120) 
1.62

>  <chemical_class>  (120) 
nan

>  <chemical_sub_class>  (120) 
nan

>  <chemical_super_class>  (120) 
nan

>  <direct_parent_classification>  (120) 
nan

>  <np_classifier_pathway>  (120) 
Alkaloids

>  <np_classifier_superclass>  (120) 
Lysine alkaloids

>  <np_classifier_class>  (120) 
Piperidine alkaloids

>  <np_classifier_is_glycoside>  (120) 
False

>  <organisms>  (120) 
Senna spectabilis

>  <collections>  (120) 
Latin America dataset|NuBBEDB|WikiData Natural Products

>  <dois>  (120) 
10.1590/S0103-50532005000800023

>  <synonyms>  (120) 
nan

>  <cas>  (120) 
nan

$$$$

     RDKit          2D

 43 45  0  0  0  0  0  0  0  0999 V2000
    7.9096   -0.7909    0.0000 C   0  0  0  0  0  0  0  0  0  0  0  0
    6.4213   -0.9772    0.0000 C   0  0  0  0  0  0  0  0  0  0  0  0
    5.8385   -2.3594    0.0000 C   0  0  0  0  0  0  0  0  0  0  0  0
    6.7441   -3.5552    0.0000 C   0  0  0  0  0  0  0  0  0  0  0  0
    4.3501   -2.5458    0.0000 C   0  0  0  0  0  0  0  0  0  0  0  0
    3.4445   -1.3500    0.0000 C   0  0  0  0  0  0  0  0  0  0  0  0
    1.9561   -1.5364    0.0000 C   0  0  0  0  0  0  0  0  0  0  0  0
    2.3981   -2.9698    0.0000 C   0  0  0  0  0  0  0  0  0  0  0  0
    2.0310   -0.0382    0.0000 C   0  0  0  0  0  0  0  0  0  0  0  0
    3.3659    0.6460    0.0000 C   0  0  0  0  0  0  0  0  0  0  0  0
    0.7711    0.7757    0.0000 C   0  0  0  0  0  0  0  0  0  0  0  0
    0.8460    2.2738    0.0000 O   0  0  0  0  0  0  0  0  0  0  0  0
    2.1809    2.9580    0.0000 C   0  0  0  0  0  0  0  0  0  0  0  0
    3.4408    2.1441    0.0000 O   0  0  0  0  0  0  0  0  0  0  0  0
    2.2558    4.4562    0.0000 C   0  0  0  0  0  0  0  0  0  0  0  0
    3.5906    5.1403    0.0000 C   0  0  0  0  0  0  0  0  0  0  0  0
    3.6655    6.6385    0.0000 C   0  0  0  0  0  0  0  0  0  0  0  0
   -0.5638    0.0915    0.0000 C   0  0  0  0  0  0  0  0  0  0  0  0
   -1.8238    0.9055    0.0000 O   0  0  0  0  0  0  0  0  0  0  0  0
   -1.7488    2.4036    0.0000 C   0  0  0  0  0  0  0  0  0  0  0  0
   -3.0088    3.2175    0.0000 C   0  0  0  0  0  0  0  0  0  0  0  0
   -0.6192    3.3904    0.0000 O   0  0  0  0  0  0  0  0  0  0  0  0
   -0.6387   -1.4066    0.0000 C   0  0  0  0  0  0  0  0  0  0  0  0
   -1.9736   -2.0908    0.0000 C   0  0  0  0  0  0  0  0  0  0  0  0
   -2.0485   -3.5889    0.0000 C   0  0  0  0  0  0  0  0  0  0  0  0
   -0.7885   -4.4029    0.0000 C   0  0  0  0  0  0  0  0  0  0  0  0
   -0.8634   -5.9010    0.0000 O   0  0  0  0  0  0  0  0  0  0  0  0
   -2.1983   -6.5852    0.0000 C   0  0  0  0  0  0  0  0  0  0  0  0
    0.5463   -3.7187    0.0000 C   0  0  0  0  0  0  0  0  0  0  0  0
    0.6213   -2.2205    0.0000 C   0  0  0  0  0  0  0  0  0  0  0  0
   -3.0368   -1.0327    0.0000 C   0  0  0  0  0  0  0  0  0  0  0  0
   -4.5177   -1.2709    0.0000 O   0  0  0  0  0  0  0  0  0  0  0  0
   -5.4645   -0.1074    0.0000 C   0  0  0  0  0  0  0  0  0  0  0  0
   -4.9303    1.2942    0.0000 O   0  0  0  0  0  0  0  0  0  0  0  0
   -6.9455   -0.3456    0.0000 C   0  0  0  0  0  0  0  0  0  0  0  0
   -7.8923    0.8178    0.0000 C   0  0  0  0  0  0  0  0  0  0  0  0
   -9.3732    0.5796    0.0000 C   0  0  0  0  0  0  0  0  0  0  0  0
   -2.3590    0.3055    0.0000 O   0  0  0  0  0  0  0  0  0  0  0  0
   -0.8769    0.0744    0.0000 C   0  0  0  0  0  0  0  0  0  0  0  0
    0.1812    1.1376    0.0000 O   0  0  0  0  0  0  0  0  0  0  0  0
   -0.2105    2.5855    0.0000 C   0  0  0  0  0  0  0  0  0  0  0  0
    0.8476    3.6487    0.0000 C   0  0  0  0  0  0  0  0  0  0  0  0
   -1.5241    3.3096    0.0000 O   0  0  0  0  0  0  0  0  0  0  0  0
  1  2  2  0
  2  3  1  0
  3  4  1  0
  3  5  2  0
  5  6  1  0
  6  7  1  0
  7  8  1  6
  7  9  1  0
  9 10  1  1
  9 11  1  0
 11 12  1  6
 12 13  1  0
 13 14  2  0
 13 15  1  0
 15 16  1  0
 16 17  1  0
 11 18  1  0
 18 19  1  1
 19 20  1  0
 20 21  1  0
 20 22  2  0
 18 23  1  0
 23 24  1  6
 24 25  2  0
 25 26  1  0
 26 27  1  1
 27 28  1  0
 26 29  1  0
 30 29  1  6
 24 31  1  0
 31 32  1  1
 32 33  1  0
 33 34  2  0
 33 35  1  0
 35 36  1  0
 36 37  1  0
 31 38  1  0
 38 39  1  0
 39 40  1  1
 40 41  1  0
 41 42  1  0
 41 43  2  0
 30  7  1  0
 30 23  1  0
 39 23  1  0
M  END
>  <identifier>  (121) 
CNP0114915.1

>  <canonical_smiles>  (121) 
C=C/C(C)=C\C[C@]1(C)[C@H](C)[C@@H](OC(=O)CCC)[C@H](OC(C)=O)[C@@]23C(=C[C@H](OC)C[C@@H]12)[C@@H](OC(=O)CCC)O[C@H]3OC(C)=O

>  <standard_inchi>  (121) 
InChI=1S/C33H48O10/c1-10-13-26(36)41-28-20(5)32(8,16-15-19(4)12-3)25-18-23(38-9)17-24-30(42-27(37)14-11-2)43-31(40-22(7)35)33(24,25)29(28)39-21(6)34/h12,15,17,20,23,25,28-31H,3,10-11,13-14,16,18H2,1-2,4-9H3/b19-15-/t20-,23+,25+,28-,29+,30+,31-,32-,33-/m1/s1

>  <standard_inchi_key>  (121) 
SOBDSHJYJAAUDH-QWNSEVKLSA-N

>  <name>  (121) 
nan

>  <iupac_name>  (121) 
[(1~{S},3~{R},5~{R},6~{a}~{S},7~{S},8~{S},9~{R},10~{R},10~{a}~{S})-1,10-diacetoxy-3-butanoyloxy-5-methoxy-7,8-dimethyl-7-[(2~{Z})-3-methylpenta-2,4-dienyl]-1,3,5,6,6~{a},8,9,10-octahydrobenzo[d]isobenzofuran-9-yl] butanoate

>  <annotation_level>  (121) 
5

>  <total_atom_count>  (121) 
91

>  <heavy_atom_count>  (121) 
43

>  <molecular_weight>  (121) 
604.74

>  <exact_molecular_weight>  (121) 
604.32475

>  <molecular_formula>  (121) 
C33H48O10

>  <alogp>  (121) 
5.34

>  <topological_polar_surface_area>  (121) 
123.66

>  <rotatable_bond_count>  (121) 
12

>  <hydrogen_bond_acceptors>  (121) 
10

>  <hydrogen_bond_donors>  (121) 
0

>  <hydrogen_bond_acceptors_lipinski>  (121) 
10

>  <hydrogen_bond_donors_lipinski>  (121) 
0

>  <lipinski_rule_of_five_violations>  (121) 
2

>  <aromatic_rings_count>  (121) 
0

>  <qed_drug_likeliness>  (121) 
0.12

>  <formal_charge>  (121) 
0

>  <fractioncsp3>  (121) 
0.70

>  <number_of_minimal_rings>  (121) 
3

>  <van_der_walls_volume>  (121) 
569.47

>  <contains_sugar>  (121) 
False

>  <contains_ring_sugars>  (121) 
False

>  <contains_linear_sugars>  (121) 
False

>  <murcko_framework>  (121) 
O1CC2=CCCC3CCCCC23C1

>  <np_likeness>  (121) 
3.01

>  <chemical_class>  (121) 
Prenol lipids

>  <chemical_sub_class>  (121) 
Diterpenoids

>  <chemical_super_class>  (121) 
Lipids and lipid-like molecules

>  <direct_parent_classification>  (121) 
Colensane and clerodane diterpenoids

>  <np_classifier_pathway>  (121) 
Terpenoids

>  <np_classifier_superclass>  (121) 
Diterpenoids

>  <np_classifier_class>  (121) 
Colensane and Clerodane diterpenoids

>  <np_classifier_is_glycoside>  (121) 
True

>  <organisms>  (121) 
Casearia sylvestris

>  <collections>  (121) 
ChemSpider NPs|Latin America dataset|NuBBEDB|Super Natural II|WikiData Natural Products|ZINC NP

>  <dois>  (121) 
10.1002/cbdv.200800342|10.1016/J.CBI.2010.08.008

>  <synonyms>  (121) 
Casearin O, (1R*3S*5S*6aR*7R*8R*9S*10S*10aR*)-110-Bis(acetyloxy)-5-methoxy-78-dimethyl-7-[(2Z)-3-methylpenta-24-dien-1-yl]-3566a78910-octahydronaphtho[18a-c]furan-39-diyl Dibutanoate

>  <cas>  (121) 
nan

$$$$

     RDKit          2D

 29 32  0  0  0  0  0  0  0  0999 V2000
   -5.9657    3.1795    0.0000 C   0  0  0  0  0  0  0  0  0  0  0  0
   -6.3341    1.7254    0.0000 O   0  0  0  0  0  0  0  0  0  0  0  0
   -5.2590    0.6794    0.0000 C   0  0  0  0  0  0  0  0  0  0  0  0
   -3.8155    1.0875    0.0000 C   0  0  0  0  0  0  0  0  0  0  0  0
   -2.7404    0.0414    0.0000 C   0  0  0  0  0  0  0  0  0  0  0  0
   -1.2970    0.4495    0.0000 C   0  0  0  0  0  0  0  0  0  0  0  0
   -0.9287    1.9035    0.0000 C   0  0  0  0  0  0  0  0  0  0  0  0
    0.5148    2.3116    0.0000 C   0  0  0  0  0  0  0  0  0  0  0  0
    0.8831    3.7657    0.0000 O   0  0  0  0  0  0  0  0  0  0  0  0
    1.5899    1.2656    0.0000 C   0  0  0  0  0  0  0  0  0  0  0  0
    3.0333    1.6736    0.0000 C   0  0  0  0  0  0  0  0  0  0  0  0
    3.4016    3.1277    0.0000 O   0  0  0  0  0  0  0  0  0  0  0  0
    4.1084    0.6276    0.0000 C   0  0  0  0  0  0  0  0  0  0  0  0
    3.7400   -0.8265    0.0000 C   0  0  0  0  0  0  0  0  0  0  0  0
    2.2966   -1.2346    0.0000 C   0  0  0  0  0  0  0  0  0  0  0  0
    1.2215   -0.1885    0.0000 C   0  0  0  0  0  0  0  0  0  0  0  0
   -0.2219   -0.5966    0.0000 O   0  0  0  0  0  0  0  0  0  0  0  0
    4.8151   -1.8725    0.0000 O   0  0  0  0  0  0  0  0  0  0  0  0
    6.2586   -1.4645    0.0000 C   0  0  0  0  0  0  0  0  0  0  0  0
    7.7545   -1.5747    0.0000 C   0  0  0  0  0  0  0  0  0  0  0  0
    6.4098   -2.9569    0.0000 C   0  0  0  0  0  0  0  0  0  0  0  0
    6.6269   -0.0104    0.0000 C   0  0  0  0  0  0  0  0  0  0  0  0
    5.5518    1.0356    0.0000 C   0  0  0  0  0  0  0  0  0  0  0  0
   -3.1088   -1.4126    0.0000 C   0  0  0  0  0  0  0  0  0  0  0  0
   -4.5522   -1.8207    0.0000 C   0  0  0  0  0  0  0  0  0  0  0  0
   -4.9206   -3.2748    0.0000 O   0  0  0  0  0  0  0  0  0  0  0  0
   -6.3640   -3.6828    0.0000 C   0  0  0  0  0  0  0  0  0  0  0  0
   -5.6273   -0.7747    0.0000 C   0  0  0  0  0  0  0  0  0  0  0  0
   -7.0707   -1.1827    0.0000 O   0  0  0  0  0  0  0  0  0  0  0  0
  1  2  1  0
  2  3  1  0
  3  4  2  0
  4  5  1  0
  5  6  1  0
  6  7  2  0
  7  8  1  0
  8  9  2  0
  8 10  1  0
 10 11  2  0
 11 12  1  0
 11 13  1  0
 13 14  2  0
 14 15  1  0
 15 16  2  0
 16 17  1  0
 14 18  1  0
 18 19  1  0
 19 20  1  0
 19 21  1  0
 19 22  1  0
 22 23  2  0
  5 24  2  0
 24 25  1  0
 25 26  1  0
 26 27  1  0
 25 28  2  0
 28 29  1  0
 28  3  1  0
 17  6  1  0
 16 10  1  0
 23 13  1  0
M  END
>  <identifier>  (122) 
CNP0108351.0

>  <canonical_smiles>  (122) 
COC1=CC(C2=CC(=O)C3=C(O)C4=C(C=C3O2)OC(C)(C)C=C4)=CC(OC)=C1O

>  <standard_inchi>  (122) 
InChI=1S/C22H20O7/c1-22(2)6-5-12-15(29-22)10-16-19(20(12)24)13(23)9-14(28-16)11-7-17(26-3)21(25)18(8-11)27-4/h5-10,24-25H,1-4H3

>  <standard_inchi_key>  (122) 
LJNMTAALHAPGLP-UHFFFAOYSA-N

>  <name>  (122) 
5-Hydroxy-8-(4-hydroxy-3,5-dimethoxyphenyl)-2,2-dimethyl-2H,6H-benzo[1,2-b:5,4-b']dipyran-6-one

>  <iupac_name>  (122) 
5-hydroxy-8-(4-hydroxy-3,5-dimethoxy-phenyl)-2,2-dimethyl-pyrano[3,2-g]chromen-6-one

>  <annotation_level>  (122) 
5

>  <total_atom_count>  (122) 
49

>  <heavy_atom_count>  (122) 
29

>  <molecular_weight>  (122) 
396.4

>  <exact_molecular_weight>  (122) 
396.1209

>  <molecular_formula>  (122) 
C22H20O7

>  <alogp>  (122) 
4.07

>  <topological_polar_surface_area>  (122) 
98.36

>  <rotatable_bond_count>  (122) 
3

>  <hydrogen_bond_acceptors>  (122) 
7

>  <hydrogen_bond_donors>  (122) 
2

>  <hydrogen_bond_acceptors_lipinski>  (122) 
7

>  <hydrogen_bond_donors_lipinski>  (122) 
2

>  <lipinski_rule_of_five_violations>  (122) 
0

>  <aromatic_rings_count>  (122) 
3

>  <qed_drug_likeliness>  (122) 
0.69

>  <formal_charge>  (122) 
0

>  <fractioncsp3>  (122) 
0.23

>  <number_of_minimal_rings>  (122) 
4

>  <van_der_walls_volume>  (122) 
338.06

>  <contains_sugar>  (122) 
False

>  <contains_ring_sugars>  (122) 
False

>  <contains_linear_sugars>  (122) 
False

>  <murcko_framework>  (122) 
O1c2cc3OCC=Cc3cc2CC=C1c4ccccc4

>  <np_likeness>  (122) 
2.02

>  <chemical_class>  (122) 
Flavonoids

>  <chemical_sub_class>  (122) 
Pyranoflavonoids

>  <chemical_super_class>  (122) 
Phenylpropanoids and polyketides

>  <direct_parent_classification>  (122) 
Pyranoflavonoids

>  <np_classifier_pathway>  (122) 
Shikimates and Phenylpropanoids

>  <np_classifier_superclass>  (122) 
Flavonoids

>  <np_classifier_class>  (122) 
Flavones

>  <np_classifier_is_glycoside>  (122) 
False

>  <organisms>  (122) 
Neoraputia paraensis|Rodgersia sambucifolia

>  <collections>  (122) 
KNApSaCK|Latin America dataset|NPEdia|NuBBEDB|Super Natural II|UNPD (Universal Natural Products Database)|WikiData Natural Products|ZINC NP

>  <dois>  (122) 
10.1002/JCCS.200700013|10.1016/S0031-9422(99)00197-1

>  <synonyms>  (122) 
5-Hydroxy-8-(4-hydroxy-3,5-dimethoxyphenyl)-2,2-dimethyl-2H,6H-benzo[1,2-b:5,4-b']dipyran-6-one|54'-dihydroxy-3'5'-dimethoxy-67-(2''2''-dimethylpyran)flavone|LMPK12110872

>  <cas>  (122) 
nan

$$$$

     RDKit          2D

 18 18  0  0  0  0  0  0  0  0999 V2000
    1.7340   -3.9722    0.0000 C   0  0  0  0  0  0  0  0  0  0  0  0
    0.8861   -2.7349    0.0000 C   0  0  0  0  0  0  0  0  0  0  0  0
   -0.5527   -3.1589    0.0000 C   0  0  0  0  0  0  0  0  0  0  0  0
   -1.9659   -2.6562    0.0000 C   0  0  0  0  0  0  0  0  0  0  0  0
   -2.8138   -1.4188    0.0000 C   0  0  0  0  0  0  0  0  0  0  0  0
   -2.7724    0.0806    0.0000 C   0  0  0  0  0  0  0  0  0  0  0  0
   -4.1857    0.5833    0.0000 C   0  0  0  0  0  0  0  0  0  0  0  0
   -4.4570    2.0586    0.0000 O   0  0  0  0  0  0  0  0  0  0  0  0
   -1.8576    1.2694    0.0000 C   0  0  0  0  0  0  0  0  0  0  0  0
   -0.4188    1.6934    0.0000 C   0  0  0  0  0  0  0  0  0  0  0  0
    0.9945    1.1907    0.0000 C   0  0  0  0  0  0  0  0  0  0  0  0
    1.9093    2.3794    0.0000 C   0  0  0  0  0  0  0  0  0  0  0  0
    0.7205    3.2943    0.0000 C   0  0  0  0  0  0  0  0  0  0  0  0
    3.0980    1.4646    0.0000 C   0  0  0  0  0  0  0  0  0  0  0  0
    2.8241    3.5682    0.0000 O   0  0  0  0  0  0  0  0  0  0  0  0
    1.8423   -0.0467    0.0000 C   0  0  0  0  0  0  0  0  0  0  0  0
    1.8010   -1.5461    0.0000 C   0  0  0  0  0  0  0  0  0  0  0  0
    3.2142   -2.0488    0.0000 O   0  0  0  0  0  0  0  0  0  0  0  0
  1  2  2  0
  2  3  1  0
  3  4  1  0
  4  5  1  0
  5  6  1  0
  6  7  1  0
  7  8  1  0
  6  9  1  0
  9 10  1  0
 10 11  1  0
 11 12  1  6
 12 13  1  0
 12 14  1  0
 12 15  1  0
 11 16  1  0
 16 17  1  0
 17 18  1  0
 17  2  1  0
M  END
>  <identifier>  (123) 
CNP0080624.1

>  <canonical_smiles>  (123) 
C=C1CCCC(CO)CC[C@H](C(C)(C)O)CC1O

>  <standard_inchi>  (123) 
InChI=1S/C15H28O3/c1-11-5-4-6-12(10-16)7-8-13(9-14(11)17)15(2,3)18/h12-14,16-18H,1,4-10H2,2-3H3/t12?,13-,14?/m0/s1

>  <standard_inchi_key>  (123) 
XLCNKKSFPBMHMK-MOKVOYLWSA-N

>  <name>  (123) 
nan

>  <iupac_name>  (123) 
(9~{S})-6-(hydroxymethyl)-9-(1-hydroxy-1-methyl-ethyl)-2-methylene-cyclodecanol

>  <annotation_level>  (123) 
4

>  <total_atom_count>  (123) 
46

>  <heavy_atom_count>  (123) 
18

>  <molecular_weight>  (123) 
256.39

>  <exact_molecular_weight>  (123) 
256.20384

>  <molecular_formula>  (123) 
C15H28O3

>  <alogp>  (123) 
2.25

>  <topological_polar_surface_area>  (123) 
60.69

>  <rotatable_bond_count>  (123) 
2

>  <hydrogen_bond_acceptors>  (123) 
3

>  <hydrogen_bond_donors>  (123) 
3

>  <hydrogen_bond_acceptors_lipinski>  (123) 
3

>  <hydrogen_bond_donors_lipinski>  (123) 
3

>  <lipinski_rule_of_five_violations>  (123) 
0

>  <aromatic_rings_count>  (123) 
0

>  <qed_drug_likeliness>  (123) 
0.66

>  <formal_charge>  (123) 
0

>  <fractioncsp3>  (123) 
0.87

>  <number_of_minimal_rings>  (123) 
1

>  <van_der_walls_volume>  (123) 
nan

>  <contains_sugar>  (123) 
False

>  <contains_ring_sugars>  (123) 
False

>  <contains_linear_sugars>  (123) 
False

>  <murcko_framework>  (123) 
C1CCCCCCCCC1

>  <np_likeness>  (123) 
2.03

>  <chemical_class>  (123) 
Prenol lipids

>  <chemical_sub_class>  (123) 
Sesquiterpenoids

>  <chemical_super_class>  (123) 
Lipids and lipid-like molecules

>  <direct_parent_classification>  (123) 
Germacrane sesquiterpenoids

>  <np_classifier_pathway>  (123) 
Terpenoids

>  <np_classifier_superclass>  (123) 
Sesquiterpenoids

>  <np_classifier_class>  (123) 
Germacrane sesquiterpenoids

>  <np_classifier_is_glycoside>  (123) 
False

>  <organisms>  (123) 
Trichilia claussenii

>  <collections>  (123) 
Latin America dataset|NuBBEDB|WikiData Natural Products

>  <dois>  (123) 
10.1590/S0103-50532002000300014

>  <synonyms>  (123) 
Germacra-10(14)-en-91115-triol

>  <cas>  (123) 
nan

$$$$

     RDKit          2D

 17 19  0  0  0  0  0  0  0  0999 V2000
    2.0551   -2.8406    0.0000 C   0  0  0  0  0  0  0  0  0  0  0  0
    2.2030   -1.3479    0.0000 C   0  0  0  0  0  0  0  0  0  0  0  0
    0.9842   -0.4735    0.0000 C   0  0  0  0  0  0  0  0  0  0  0  0
   -0.3824   -1.0917    0.0000 C   0  0  0  0  0  0  0  0  0  0  0  0
   -0.5303   -2.5844    0.0000 O   0  0  0  0  0  0  0  0  0  0  0  0
   -1.6012   -0.2173    0.0000 C   0  0  0  0  0  0  0  0  0  0  0  0
   -1.4533    1.2754    0.0000 C   0  0  0  0  0  0  0  0  0  0  0  0
   -0.0866    1.8937    0.0000 C   0  0  0  0  0  0  0  0  0  0  0  0
    1.1321    1.0192    0.0000 C   0  0  0  0  0  0  0  0  0  0  0  0
    1.2800    2.5119    0.0000 C   0  0  0  0  0  0  0  0  0  0  0  0
    2.4988    1.6375    0.0000 C   0  0  0  0  0  0  0  0  0  0  0  0
    3.7175    0.7630    0.0000 C   0  0  0  0  0  0  0  0  0  0  0  0
    3.5696   -0.7296    0.0000 C   0  0  0  0  0  0  0  0  0  0  0  0
   -2.8272    1.8773    0.0000 O   0  0  0  0  0  0  0  0  0  0  0  0
   -3.8243    0.7567    0.0000 C   0  0  0  0  0  0  0  0  0  0  0  0
   -3.0665   -0.5379    0.0000 C   0  0  0  0  0  0  0  0  0  0  0  0
   -3.6685   -1.9118    0.0000 C   0  0  0  0  0  0  0  0  0  0  0  0
  1  2  1  0
  2  3  2  0
  3  4  1  0
  4  5  2  0
  4  6  1  0
  6  7  2  0
  7  8  1  0
  8  9  1  0
  9 10  1  6
  9 11  1  0
 11 12  1  0
 12 13  1  0
  7 14  1  0
 14 15  1  0
 15 16  2  0
 16 17  1  0
 13  2  1  0
  9  3  1  0
 16  6  1  0
M  END
>  <identifier>  (124) 
CNP0280894.1

>  <canonical_smiles>  (124) 
CC1=C2C(=O)C3=C(C[C@@]2(C)CCC1)OC=C3C

>  <standard_inchi>  (124) 
InChI=1S/C15H18O2/c1-9-5-4-6-15(3)7-11-12(10(2)8-17-11)14(16)13(9)15/h8H,4-7H2,1-3H3/t15-/m1/s1

>  <standard_inchi_key>  (124) 
NKPGPFRAHOCSPY-OAHLLOKOSA-N

>  <name>  (124) 
NKPGPFRAHOCSPY-OAHLLOKOSA-N

>  <iupac_name>  (124) 
(8~{a}~{R})-3,5,8~{a}-trimethyl-6,7,8,9-tetrahydrobenzo[f]benzofuran-4-one

>  <annotation_level>  (124) 
5

>  <total_atom_count>  (124) 
35

>  <heavy_atom_count>  (124) 
17

>  <molecular_weight>  (124) 
230.31

>  <exact_molecular_weight>  (124) 
230.13068

>  <molecular_formula>  (124) 
C15H18O2

>  <alogp>  (124) 
3.83

>  <topological_polar_surface_area>  (124) 
30.21

>  <rotatable_bond_count>  (124) 
0

>  <hydrogen_bond_acceptors>  (124) 
2

>  <hydrogen_bond_donors>  (124) 
0

>  <hydrogen_bond_acceptors_lipinski>  (124) 
2

>  <hydrogen_bond_donors_lipinski>  (124) 
0

>  <lipinski_rule_of_five_violations>  (124) 
0

>  <aromatic_rings_count>  (124) 
1

>  <qed_drug_likeliness>  (124) 
0.68

>  <formal_charge>  (124) 
0

>  <fractioncsp3>  (124) 
0.53

>  <number_of_minimal_rings>  (124) 
3

>  <van_der_walls_volume>  (124) 
220.14

>  <contains_sugar>  (124) 
False

>  <contains_ring_sugars>  (124) 
False

>  <contains_linear_sugars>  (124) 
False

>  <murcko_framework>  (124) 
o1ccc2c1CC3C(=CCCC3)C2

>  <np_likeness>  (124) 
2.44

>  <chemical_class>  (124) 
Prenol lipids

>  <chemical_sub_class>  (124) 
Sesquiterpenoids

>  <chemical_super_class>  (124) 
Lipids and lipid-like molecules

>  <direct_parent_classification>  (124) 
Eremophilane, 8,9-secoeremophilane and furoeremophilane sesquiterpenoids

>  <np_classifier_pathway>  (124) 
Terpenoids

>  <np_classifier_superclass>  (124) 
Sesquiterpenoids

>  <np_classifier_class>  (124) 
Eudesmane sesquiterpenoids

>  <np_classifier_is_glycoside>  (124) 
False

>  <organisms>  (124) 
Ocotea pulchella

>  <collections>  (124) 
ChemSpider NPs|Latin America dataset|NuBBEDB|Super Natural II|WikiData Natural Products|ZINC NP

>  <dois>  (124) 
10.1016/S0031-9422(00)95115-X

>  <synonyms>  (124) 
(R)-3,5,8a-Trimethyl-7,8,8a,9-tetrahydronaphtho[2,3-b]furan-4(6H)-one|4-Furanoeudesmen-6-one|Naphtho[2,3-b]furan-4(6H)-one, 7,8,8a,9-tetrahydro-3,5,8a-trimethyl-, (8aR)-

>  <cas>  (124) 
nan

$$$$

     RDKit          2D

 28 30  0  0  0  0  0  0  0  0999 V2000
    5.3666   -4.1785    0.0000 C   0  0  0  0  0  0  0  0  0  0  0  0
    4.0789   -3.4092    0.0000 O   0  0  0  0  0  0  0  0  0  0  0  0
    4.1012   -1.9094    0.0000 C   0  0  0  0  0  0  0  0  0  0  0  0
    5.4112   -1.1788    0.0000 O   0  0  0  0  0  0  0  0  0  0  0  0
    2.8134   -1.1402    0.0000 C   0  0  0  0  0  0  0  0  0  0  0  0
    1.5034   -1.8708    0.0000 C   0  0  0  0  0  0  0  0  0  0  0  0
    0.2156   -1.1015    0.0000 O   0  0  0  0  0  0  0  0  0  0  0  0
    0.2379    0.3983    0.0000 C   0  0  0  0  0  0  0  0  0  0  0  0
   -1.0498    1.1675    0.0000 O   0  0  0  0  0  0  0  0  0  0  0  0
   -2.3599    0.4369    0.0000 C   0  0  0  0  0  0  0  0  0  0  0  0
   -3.6476    1.2061    0.0000 O   0  0  0  0  0  0  0  0  0  0  0  0
   -4.9577    0.4755    0.0000 C   0  0  0  0  0  0  0  0  0  0  0  0
   -6.2454    1.2448    0.0000 C   0  0  0  0  0  0  0  0  0  0  0  0
   -6.2231    2.7446    0.0000 O   0  0  0  0  0  0  0  0  0  0  0  0
   -4.9800   -1.0243    0.0000 C   0  0  0  0  0  0  0  0  0  0  0  0
   -6.2900   -1.7549    0.0000 O   0  0  0  0  0  0  0  0  0  0  0  0
   -3.6922   -1.7935    0.0000 C   0  0  0  0  0  0  0  0  0  0  0  0
   -3.7145   -3.2934    0.0000 O   0  0  0  0  0  0  0  0  0  0  0  0
   -2.3822   -1.0629    0.0000 C   0  0  0  0  0  0  0  0  0  0  0  0
   -1.0944   -1.8321    0.0000 O   0  0  0  0  0  0  0  0  0  0  0  0
    1.5480    1.1289    0.0000 C   0  0  0  0  0  0  0  0  0  0  0  0
    1.5703    2.6287    0.0000 C   0  0  0  0  0  0  0  0  0  0  0  0
    0.2825    3.3980    0.0000 C   0  0  0  0  0  0  0  0  0  0  0  0
    2.8803    3.3593    0.0000 O   0  0  0  0  0  0  0  0  0  0  0  0
    4.1680    2.5901    0.0000 C   0  0  0  0  0  0  0  0  0  0  0  0
    5.4781    3.3207    0.0000 O   0  0  0  0  0  0  0  0  0  0  0  0
    4.1458    1.0903    0.0000 C   0  0  0  0  0  0  0  0  0  0  0  0
    2.8357    0.3597    0.0000 C   0  0  0  0  0  0  0  0  0  0  0  0
  1  2  1  0
  2  3  1  0
  3  4  2  0
  3  5  1  0
  5  6  2  0
  6  7  1  0
  7  8  1  0
  8  9  1  1
 10  9  1  1
 10 11  1  0
 11 12  1  0
 12 13  1  1
 13 14  1  0
 12 15  1  0
 15 16  1  6
 15 17  1  0
 17 18  1  1
 17 19  1  0
 19 20  1  6
 21  8  1  6
 21 22  1  0
 22 23  1  6
 22 24  1  0
 24 25  1  0
 25 26  2  0
 25 27  1  0
 28 27  1  6
 28  5  1  0
 19 10  1  0
 28 21  1  0
M  END
>  <identifier>  (125) 
CNP0307394.1

>  <canonical_smiles>  (125) 
COC(=O)C1=CO[C@@H](O[C@@H]2O[C@H](CO)[C@@H](O)[C@H](O)[C@H]2O)[C@@H]2[C@H](C)OC(=O)C[C@H]12

>  <standard_inchi>  (125) 
InChI=1S/C17H24O11/c1-6-11-7(3-10(19)26-6)8(15(23)24-2)5-25-16(11)28-17-14(22)13(21)12(20)9(4-18)27-17/h5-7,9,11-14,16-18,20-22H,3-4H2,1-2H3/t6-,7+,9+,11+,12+,13-,14+,16-,17-/m0/s1

>  <standard_inchi_key>  (125) 
QZCJFXSHMSZCLH-QAPDQXECSA-N

>  <name>  (125) 
Kingiside

>  <iupac_name>  (125) 
methyl (1~{S},4~{a}~{S},8~{S},8~{a}~{S})-1-methyl-3-oxo-8-[(2~{S},3~{R},4~{S},5~{S},6~{R})-3,4,5-trihydroxy-6-(hydroxymethyl)tetrahydropyran-2-yl]oxy-4,4~{a},8,8~{a}-tetrahydro-1~{H}-pyrano[3,4-c]pyran-5-carboxylate

>  <annotation_level>  (125) 
5

>  <total_atom_count>  (125) 
52

>  <heavy_atom_count>  (125) 
28

>  <molecular_weight>  (125) 
404.37

>  <exact_molecular_weight>  (125) 
404.13186

>  <molecular_formula>  (125) 
C17H24O11

>  <alogp>  (125) 
-2.22

>  <topological_polar_surface_area>  (125) 
161.21

>  <rotatable_bond_count>  (125) 
4

>  <hydrogen_bond_acceptors>  (125) 
11

>  <hydrogen_bond_donors>  (125) 
4

>  <hydrogen_bond_acceptors_lipinski>  (125) 
11

>  <hydrogen_bond_donors_lipinski>  (125) 
4

>  <lipinski_rule_of_five_violations>  (125) 
1

>  <aromatic_rings_count>  (125) 
0

>  <qed_drug_likeliness>  (125) 
0.38

>  <formal_charge>  (125) 
0

>  <fractioncsp3>  (125) 
0.77

>  <number_of_minimal_rings>  (125) 
3

>  <van_der_walls_volume>  (125) 
339.43

>  <contains_sugar>  (125) 
True

>  <contains_ring_sugars>  (125) 
True

>  <contains_linear_sugars>  (125) 
False

>  <murcko_framework>  (125) 
O1CCC2C=COC(OC3OCCCC3)C2C1

>  <np_likeness>  (125) 
2.58

>  <chemical_class>  (125) 
Lactones

>  <chemical_sub_class>  (125) 
Delta valerolactones

>  <chemical_super_class>  (125) 
Organoheterocyclic compounds

>  <direct_parent_classification>  (125) 
Delta valerolactones

>  <np_classifier_pathway>  (125) 
Terpenoids

>  <np_classifier_superclass>  (125) 
Monoterpenoids

>  <np_classifier_class>  (125) 
Iridoids monoterpenoids

>  <np_classifier_is_glycoside>  (125) 
True

>  <organisms>  (125) 
Acacia aulacocarpa|Anemone flaccida|Ardisia neriifolia|Aspidosperma subincanum|Calycophyllum spruceanum|Citronella gongonha|Cryptocarya aschersoniana|Eucnide bartonioides|Eupatorium argentinum|Gentiana crassicaulis|Gentiana dahurica|Gentiana macrophylla|Gentiana pyrenaica|Gentiana straminea|Guatteria boliviana|Isertia haenkeana|Juniperus brevifolia|Ligustrum lucidum|Lonicera Japonica|Lonicera alpigena|Lonicera japonica|Lonicera morrowii|Metagentiana rhodantha|Neolentinus lepideus|Peritassa compta|Psiadia dentata|Rheedia acuminata|Sarracenia alata|Strychnos guianensis|Symphyocladia latiuscula

>  <collections>  (125) 
AnalytiCon Discovery NPs|Australian natural products|CMAUP (cCollective molecular activities of useful plants)|ChemSpider NPs|Latin America dataset|NPASS|NuBBEDB|Super Natural II|VietHerb|WikiData Natural Products|ZINC NP

>  <dois>  (125) 
10.1002/CHIN.200402178|10.1002/HLCA.19940770621|10.1002/HLCA.200800248|10.1016/0031-9422(90)80214-2|10.1016/0031-9422(93)85259-T|10.1016/J.JEP.2013.03.016|10.1016/S0031-9422(00)00279-X|10.1016/S0031-9422(03)00153-5|10.1016/S0031-9422(97)00162-3|10.1021/NP50017A011|10.1021/NP800040K|10.1021/np800040k|10.1055/S-2006-961403|10.1248/YAKUSHI1947.119.6_444|10.3987/COM-88-4724

>  <synonyms>  (125) 
1H,3H-Pyrano(3,4-c)pyran-5-carboxylic acid, 8-(beta-D-glucopyranosyloxy)-4,4a,8,8a-tetrahydro-1-methyl-6-oxo-, methyl ester, (1S-(1alpha,4abeta,8beta,8abeta))-|25406-67-1|AKOS040735201|CS-0851568|DTXSID701104147|HY-N11795|Methyl (1S,4aS,8S,8aS)-8-(I(2)-D-glucopyranosyloxy)-4,4a,8,8a-tetrahydro-1-methyl-3-oxo-1H,3H-pyrano[3,4-c]pyran-5-carboxylate|kingiside|methyl (1S,4aS,8S,8aS)-1-methyl-3-oxo-8-[(2S,3R,4S,5S,6R)-3,4,5-trihydroxy-6-(hydroxymethyl)oxan-2-yl]oxy-4,4a,8,8a-tetrahydro-1H-pyrano[3,4-c]pyran-5-carboxylate

>  <cas>  (125) 
25406-67-1

$$$$

     RDKit          2D

 10  9  0  0  0  0  0  0  0  0999 V2000
   -5.8514   -0.2717    0.0000 C   0  0  0  0  0  0  0  0  0  0  0  0
   -4.5393    0.4553    0.0000 C   0  0  0  0  0  0  0  0  0  0  0  0
   -3.2537   -0.3176    0.0000 C   0  0  0  0  0  0  0  0  0  0  0  0
   -1.9416    0.4094    0.0000 C   0  0  0  0  0  0  0  0  0  0  0  0
   -0.6560   -0.3635    0.0000 C   0  0  0  0  0  0  0  0  0  0  0  0
    0.6560    0.3635    0.0000 C   0  0  0  0  0  0  0  0  0  0  0  0
    1.9416   -0.4094    0.0000 C   0  0  0  0  0  0  0  0  0  0  0  0
    3.2537    0.3176    0.0000 C   0  0  0  0  0  0  0  0  0  0  0  0
    4.5393   -0.4553    0.0000 C   0  0  0  0  0  0  0  0  0  0  0  0
    5.8514    0.2717    0.0000 C   0  0  0  0  0  0  0  0  0  0  0  0
  1  2  2  0
  2  3  1  0
  3  4  1  0
  4  5  1  0
  5  6  1  0
  6  7  1  0
  7  8  1  0
  8  9  1  0
  9 10  1  0
M  END
>  <identifier>  (126) 
CNP0330037.0

>  <canonical_smiles>  (126) 
C=CCCCCCCCC

>  <standard_inchi>  (126) 
InChI=1S/C10H20/c1-3-5-7-9-10-8-6-4-2/h3H,1,4-10H2,2H3

>  <standard_inchi_key>  (126) 
AFFLGGQVNFXPEV-UHFFFAOYSA-N

>  <name>  (126) 
1-DECENE

>  <iupac_name>  (126) 
dec-1-ene

>  <annotation_level>  (126) 
5

>  <total_atom_count>  (126) 
30

>  <heavy_atom_count>  (126) 
10

>  <molecular_weight>  (126) 
140.27

>  <exact_molecular_weight>  (126) 
140.1565

>  <molecular_formula>  (126) 
C10H20

>  <alogp>  (126) 
3.92

>  <topological_polar_surface_area>  (126) 
0.00

>  <rotatable_bond_count>  (126) 
7

>  <hydrogen_bond_acceptors>  (126) 
0

>  <hydrogen_bond_donors>  (126) 
0

>  <hydrogen_bond_acceptors_lipinski>  (126) 
0

>  <hydrogen_bond_donors_lipinski>  (126) 
0

>  <lipinski_rule_of_five_violations>  (126) 
0

>  <aromatic_rings_count>  (126) 
0

>  <qed_drug_likeliness>  (126) 
0.37

>  <formal_charge>  (126) 
0

>  <fractioncsp3>  (126) 
0.80

>  <number_of_minimal_rings>  (126) 
0

>  <van_der_walls_volume>  (126) 
172.46

>  <contains_sugar>  (126) 
False

>  <contains_ring_sugars>  (126) 
False

>  <contains_linear_sugars>  (126) 
False

>  <murcko_framework>  (126) 
nan

>  <np_likeness>  (126) 
1.02

>  <chemical_class>  (126) 
Unsaturated hydrocarbons

>  <chemical_sub_class>  (126) 
Olefins

>  <chemical_super_class>  (126) 
Hydrocarbons

>  <direct_parent_classification>  (126) 
Alkenes

>  <np_classifier_pathway>  (126) 
Fatty acids

>  <np_classifier_superclass>  (126) 
Fatty acyls

>  <np_classifier_class>  (126) 
Hydrocarbons

>  <np_classifier_is_glycoside>  (126) 
False

>  <organisms>  (126) 
Artemisia herba-alba|Cleome gynandra|Elaeis guineensis|Gossypium hirsutum|Inula helenium|Montipora digitata|Oryza sativa|Petasites hybridus|Tussilago farfara|Vitis vinifera|Zanthoxylum zanthoxyloides

>  <collections>  (126) 
ANPDB|CMAUP (cCollective molecular activities of useful plants)|EMNPD|KNApSaCK|Latin America dataset|NANPDB (Natural Products from Northern African Sources)|NPASS|NuBBEDB|Phyto4Health|Super Natural II|TCMDB-Taiwan (Traditional Chinese Medicine database)|TCMID (Traditional Chinese Medicine Integrated Database)|UNPD (Universal Natural Products Database)|WikiData Natural Products|ZINC NP

>  <dois>  (126) 
10.1002/CBDV.201800531|10.1016/J.ARABJC.2012.04.042|10.1016/J.RENENE.2017.12.012|10.1016/j.arabjc.2012.04.042|10.1021/JF00120A031|10.1021/JF60200A011|10.1021/NP010148B|10.1021/NP50046A035|10.1021/jf00120a031|10.1248/YAKUSHI1947.112.8_571

>  <synonyms>  (126) 
1-C10H20|1-DECENE  MFC10 H20|1-DECENE [HSDB]|1-DECENE [STANDARD MATERIAL FOR GC]|1-Decene, 94%|1-Decene, >=97.0% (GC)|1-Decene, analytical standard|1-Decene, purum, >=95.0% (GC)|1-decene|1-n-Decene|25189-70-2|37309-58-3|4U179ML4TJ|4YI0729529|672-05-9|68037-01-4|75Y1X69O7I|7O4U4C718P|872-05-9|AHec-1-ene|AKOS015902910|Alkenes, C10-16 alpha-|CAS-872-05-9|CCRIS 5718|CHEBI:87315|CHEMBL3187990|CQ4IKK1766|D0028|DB-056981|DECENE [INCI]|DECENE, 1-|DTXCID507329|DTXSID8027329|Dec-1-ene|Decene, n-|Decylene|Dialene 10|EC 212-819-2|EC 500-183-1|EINECS 212-819-2|EINECS 272-492-7|EN300-384588|F8881-0779|Gulftene 10|HSDB 1073|InChI=1\/C10H20\/c1-3-5-7-9-10-8-6-4-2\/h3H,1,4-10H2,2H|LMFA11000311|Linealene 10|MFCD00009577|Montiporic acid B|NCGC00248557-01|NCGC00257749-01|NS00002641|NSC 62122|NSC-62122|Neodene 10|Q151410|S0340|T73018|Tox21_200195|U333RI6EB7|UNII-4U179ML4TJ|UNII-4YI0729529|UNII-75Y1X69O7I|UNII-7O4U4C718P|UNII-CQ4IKK1766|UNII-U333RI6EB7|W-107244|alpha-Decene|decene-1|n-1-Decene|n-Decylene

>  <cas>  (126) 
872-05-9|68037-01-4|25189-70-2|37309-58-3|672-05-9|14638-82-5

$$$$

     RDKit          2D

 47 52  0  0  0  0  0  0  0  0999 V2000
   -1.5957   -6.1504    0.0000 C   0  0  0  0  0  0  0  0  0  0  0  0
   -2.4416   -4.9117    0.0000 C   0  0  0  0  0  0  0  0  0  0  0  0
   -3.5146   -5.9598    0.0000 C   0  0  0  0  0  0  0  0  0  0  0  0
   -3.6602   -4.0370    0.0000 C   0  0  0  0  0  0  0  0  0  0  0  0
   -3.5120   -2.5443    0.0000 C   0  0  0  0  0  0  0  0  0  0  0  0
   -2.1452   -1.9264    0.0000 C   0  0  0  0  0  0  0  0  0  0  0  0
   -3.3638   -1.0517    0.0000 C   0  0  0  0  0  0  0  0  0  0  0  0
   -4.7305   -1.6696    0.0000 O   0  0  0  0  0  0  0  0  0  0  0  0
   -3.2155    0.4410    0.0000 O   0  0  0  0  0  0  0  0  0  0  0  0
   -4.4341    1.3157    0.0000 C   0  0  0  0  0  0  0  0  0  0  0  0
   -4.2859    2.8083    0.0000 O   0  0  0  0  0  0  0  0  0  0  0  0
   -5.5044    3.6830    0.0000 C   0  0  0  0  0  0  0  0  0  0  0  0
   -5.3562    5.1757    0.0000 C   0  0  0  0  0  0  0  0  0  0  0  0
   -3.9894    5.7937    0.0000 O   0  0  0  0  0  0  0  0  0  0  0  0
   -6.8712    3.0651    0.0000 C   0  0  0  0  0  0  0  0  0  0  0  0
   -8.0898    3.9398    0.0000 O   0  0  0  0  0  0  0  0  0  0  0  0
   -7.0195    1.5724    0.0000 C   0  0  0  0  0  0  0  0  0  0  0  0
   -8.3863    0.9545    0.0000 O   0  0  0  0  0  0  0  0  0  0  0  0
   -5.8009    0.6977    0.0000 C   0  0  0  0  0  0  0  0  0  0  0  0
   -5.9491   -0.7949    0.0000 O   0  0  0  0  0  0  0  0  0  0  0  0
   -1.9970   -0.4337    0.0000 C   0  0  0  0  0  0  0  0  0  0  0  0
   -0.6302    0.1843    0.0000 C   0  0  0  0  0  0  0  0  0  0  0  0
    0.5884   -0.6904    0.0000 C   0  0  0  0  0  0  0  0  0  0  0  0
    1.8070   -1.5651    0.0000 C   0  0  0  0  0  0  0  0  0  0  0  0
    0.4402   -2.1831    0.0000 C   0  0  0  0  0  0  0  0  0  0  0  0
    1.6587   -3.0578    0.0000 C   0  0  0  0  0  0  0  0  0  0  0  0
    3.0255   -2.4398    0.0000 C   0  0  0  0  0  0  0  0  0  0  0  0
    3.1738   -0.9472    0.0000 C   0  0  0  0  0  0  0  0  0  0  0  0
    4.5405   -0.3292    0.0000 C   0  0  0  0  0  0  0  0  0  0  0  0
    4.3923   -1.8219    0.0000 C   0  0  0  0  0  0  0  0  0  0  0  0
    5.7591   -1.2039    0.0000 C   0  0  0  0  0  0  0  0  0  0  0  0
    7.1259   -0.5859    0.0000 C   0  0  0  0  0  0  0  0  0  0  0  0
    8.3445   -1.4606    0.0000 O   0  0  0  0  0  0  0  0  0  0  0  0
    7.2741    0.9067    0.0000 C   0  0  0  0  0  0  0  0  0  0  0  0
    8.6409    1.5247    0.0000 O   0  0  0  0  0  0  0  0  0  0  0  0
    6.0556    1.7814    0.0000 C   0  0  0  0  0  0  0  0  0  0  0  0
    5.2096    3.0201    0.0000 C   0  0  0  0  0  0  0  0  0  0  0  0
    7.1286    2.8296    0.0000 C   0  0  0  0  0  0  0  0  0  0  0  0
    6.7573    4.2829    0.0000 O   0  0  0  0  0  0  0  0  0  0  0  0
    4.6888    1.1635    0.0000 C   0  0  0  0  0  0  0  0  0  0  0  0
    3.4702    2.0382    0.0000 C   0  0  0  0  0  0  0  0  0  0  0  0
    3.6184    3.5308    0.0000 O   0  0  0  0  0  0  0  0  0  0  0  0
    2.1034    1.4202    0.0000 C   0  0  0  0  0  0  0  0  0  0  0  0
    1.9552   -0.0725    0.0000 C   0  0  0  0  0  0  0  0  0  0  0  0
    0.7366    0.8022    0.0000 C   0  0  0  0  0  0  0  0  0  0  0  0
   -0.9266   -2.8011    0.0000 C   0  0  0  0  0  0  0  0  0  0  0  0
   -1.0748   -4.2937    0.0000 C   0  0  0  0  0  0  0  0  0  0  0  0
  1  2  1  0
  2  3  1  0
  2  4  1  0
  4  5  1  0
  5  6  1  0
  6  7  1  1
  7  8  2  0
  7  9  1  0
 10  9  1  1
 10 11  1  0
 11 12  1  0
 12 13  1  1
 13 14  1  0
 12 15  1  0
 15 16  1  6
 15 17  1  0
 17 18  1  1
 17 19  1  0
 19 20  1  6
  6 21  1  0
 21 22  1  0
 22 23  1  0
 23 24  1  6
 23 25  1  0
 25 26  2  0
 26 27  1  0
 28 27  1  1
 28 29  1  0
 29 30  1  1
 29 31  1  0
 31 32  1  0
 32 33  1  6
 32 34  1  0
 34 35  1  1
 34 36  1  0
 36 37  1  1
 36 38  1  0
 38 39  1  0
 36 40  1  0
 40 41  1  1
 41 42  1  1
 41 43  1  0
 43 44  1  0
 44 45  1  1
 25 46  1  0
 46 47  1  6
 47  2  1  0
 46  6  1  0
 19 10  1  0
 44 23  1  0
 44 28  1  0
 40 29  1  0
M  END
>  <identifier>  (127) 
CNP0260746.3

>  <canonical_smiles>  (127) 
CC1(C)CC[C@]2(C(=O)O[C@@H]3O[C@H](CO)[C@@H](O)[C@H](O)[C@H]3O)CC[C@]3(C)C(=CC[C@@H]4[C@@]5(C)C[C@@H](O)[C@H](O)[C@@](C)(CO)[C@@H]5[C@H](O)C[C@]43C)[C@@H]2C1

>  <standard_inchi>  (127) 
InChI=1S/C36H58O11/c1-31(2)9-11-36(30(45)47-29-26(43)25(42)24(41)22(16-37)46-29)12-10-34(5)18(19(36)13-31)7-8-23-32(3)14-21(40)28(44)33(4,17-38)27(32)20(39)15-35(23,34)6/h7,19-29,37-44H,8-17H2,1-6H3/t19-,20+,21+,22+,23+,24+,25-,26+,27+,28-,29-,32+,33-,34+,35+,36-/m0/s1

>  <standard_inchi_key>  (127) 
DZVIFFMYEULLBY-ZBNHRINCSA-N

>  <name>  (127) 
chebuloside II

>  <iupac_name>  (127) 
[(2~{S},3~{R},4~{S},5~{S},6~{R})-3,4,5-trihydroxy-6-(hydroxymethyl)tetrahydropyran-2-yl] (4~{a}~{S},6~{a}~{R},6~{a}~{S},6~{b}~{R},8~{R},8~{a}~{R},9~{R},10~{R},11~{R},12~{a}~{R},14~{b}~{S})-8,10,11-trihydroxy-9-(hydroxymethyl)-2,2,6~{a},6~{b},9,12~{a}-hexamethyl-1,3,4,5,6,6~{a},7,8,8~{a},10,11,12,13,14~{b}-tetradecahydropicene-4~{a}-carboxylate

>  <annotation_level>  (127) 
5

>  <total_atom_count>  (127) 
105

>  <heavy_atom_count>  (127) 
47

>  <molecular_weight>  (127) 
666.85

>  <exact_molecular_weight>  (127) 
666.39791

>  <molecular_formula>  (127) 
C36H58O11

>  <alogp>  (127) 
1.41

>  <topological_polar_surface_area>  (127) 
197.37

>  <rotatable_bond_count>  (127) 
4

>  <hydrogen_bond_acceptors>  (127) 
11

>  <hydrogen_bond_donors>  (127) 
8

>  <hydrogen_bond_acceptors_lipinski>  (127) 
11

>  <hydrogen_bond_donors_lipinski>  (127) 
8

>  <lipinski_rule_of_five_violations>  (127) 
3

>  <aromatic_rings_count>  (127) 
0

>  <qed_drug_likeliness>  (127) 
0.16

>  <formal_charge>  (127) 
0

>  <fractioncsp3>  (127) 
0.92

>  <number_of_minimal_rings>  (127) 
6

>  <van_der_walls_volume>  (127) 
611.75

>  <contains_sugar>  (127) 
True

>  <contains_ring_sugars>  (127) 
True

>  <contains_linear_sugars>  (127) 
False

>  <murcko_framework>  (127) 
O1CCCCC1OCC23CCCCC3C4=CCC5C(CCC6CCCCC65)C4CC2

>  <np_likeness>  (127) 
3.09

>  <chemical_class>  (127) 
Steroids and steroid derivatives

>  <chemical_sub_class>  (127) 
Hydroxysteroids

>  <chemical_super_class>  (127) 
Lipids and lipid-like molecules

>  <direct_parent_classification>  (127) 
Hydroxysteroids

>  <np_classifier_pathway>  (127) 
Terpenoids

>  <np_classifier_superclass>  (127) 
Triterpenoids

>  <np_classifier_class>  (127) 
Oleanane triterpenoids

>  <np_classifier_is_glycoside>  (127) 
True

>  <organisms>  (127) 
Combretum fruticosum|Combretum laxum|Combretum quadrangulare|Harpagophytum procumbens|Plagiomnium affine|Siphoneugena densiflora|Terminalia chebula|Terminalia macroptera|Teucrium hyrcanicum|buchenavia parviflora

>  <collections>  (127) 
CMAUP (cCollective molecular activities of useful plants)|KNApSaCK|Latin America dataset|NPASS|NuBBEDB|Super Natural II|WikiData Natural Products|ZINC NP

>  <dois>  (127) 
10.1002/PS.1278|10.1016/0031-9422(93)85243-K|10.1016/J.PHYTOCHEM.2014.06.012|10.1021/np020289t|10.1080/10575630108041255|10.1248/BPB.23.1328|10.1248/CPB.48.1114|10.1590/S0103-50532006000200010|10.3390/MOLECULES13112717

>  <synonyms>  (127) 
CHEMBL391767|Chebuloside II|Chebuloside II, >=95% (LC\/MS-ELSD)

>  <cas>  (127) 
nan

$$$$

     RDKit          2D

 20 21  0  0  0  0  0  0  0  0999 V2000
   -5.2402    2.6573    0.0000 C   0  0  0  0  0  0  0  0  0  0  0  0
   -3.7703    2.3582    0.0000 O   0  0  0  0  0  0  0  0  0  0  0  0
   -3.2945    0.9356    0.0000 C   0  0  0  0  0  0  0  0  0  0  0  0
   -4.2885   -0.1877    0.0000 O   0  0  0  0  0  0  0  0  0  0  0  0
   -1.8246    0.6365    0.0000 C   0  0  0  0  0  0  0  0  0  0  0  0
   -0.8306    1.7599    0.0000 C   0  0  0  0  0  0  0  0  0  0  0  0
    0.6393    1.4607    0.0000 C   0  0  0  0  0  0  0  0  0  0  0  0
    1.1151    0.0382    0.0000 C   0  0  0  0  0  0  0  0  0  0  0  0
    2.5850   -0.2610    0.0000 O   0  0  0  0  0  0  0  0  0  0  0  0
    3.5790    0.8624    0.0000 C   0  0  0  0  0  0  0  0  0  0  0  0
    4.8973    1.5780    0.0000 C   0  0  0  0  0  0  0  0  0  0  0  0
    4.5127   -0.3116    0.0000 C   0  0  0  0  0  0  0  0  0  0  0  0
    3.1031    2.2849    0.0000 C   0  0  0  0  0  0  0  0  0  0  0  0
    1.6333    2.5841    0.0000 C   0  0  0  0  0  0  0  0  0  0  0  0
    0.1211   -1.0852    0.0000 C   0  0  0  0  0  0  0  0  0  0  0  0
    0.5970   -2.5077    0.0000 O   0  0  0  0  0  0  0  0  0  0  0  0
   -0.3971   -3.6311    0.0000 C   0  0  0  0  0  0  0  0  0  0  0  0
    0.0788   -5.0536    0.0000 C   0  0  0  0  0  0  0  0  0  0  0  0
   -1.8669   -3.3319    0.0000 O   0  0  0  0  0  0  0  0  0  0  0  0
   -1.3488   -0.7860    0.0000 C   0  0  0  0  0  0  0  0  0  0  0  0
  1  2  1  0
  2  3  1  0
  3  4  2  0
  3  5  1  0
  5  6  2  0
  6  7  1  0
  7  8  2  0
  8  9  1  0
  9 10  1  0
 10 11  1  0
 10 12  1  0
 10 13  1  0
 13 14  2  0
  8 15  1  0
 15 16  1  0
 16 17  1  0
 17 18  1  0
 17 19  2  0
 15 20  2  0
 20  5  1  0
 14  7  1  0
M  END
>  <identifier>  (128) 
CNP0080594.0

>  <canonical_smiles>  (128) 
COC(=O)C1=CC2=C(OC(C)(C)C=C2)C(OC(C)=O)=C1

>  <standard_inchi>  (128) 
InChI=1S/C15H16O5/c1-9(16)19-12-8-11(14(17)18-4)7-10-5-6-15(2,3)20-13(10)12/h5-8H,1-4H3

>  <standard_inchi_key>  (128) 
BOQCKTHNWHOLGU-UHFFFAOYSA-N

>  <name>  (128) 
nan

>  <iupac_name>  (128) 
methyl 8-acetoxy-2,2-dimethyl-chromene-6-carboxylate

>  <annotation_level>  (128) 
5

>  <total_atom_count>  (128) 
36

>  <heavy_atom_count>  (128) 
20

>  <molecular_weight>  (128) 
276.29

>  <exact_molecular_weight>  (128) 
276.09977

>  <molecular_formula>  (128) 
C15H16O5

>  <alogp>  (128) 
2.58

>  <topological_polar_surface_area>  (128) 
61.83

>  <rotatable_bond_count>  (128) 
2

>  <hydrogen_bond_acceptors>  (128) 
5

>  <hydrogen_bond_donors>  (128) 
0

>  <hydrogen_bond_acceptors_lipinski>  (128) 
5

>  <hydrogen_bond_donors_lipinski>  (128) 
0

>  <lipinski_rule_of_five_violations>  (128) 
0

>  <aromatic_rings_count>  (128) 
1

>  <qed_drug_likeliness>  (128) 
0.61

>  <formal_charge>  (128) 
0

>  <fractioncsp3>  (128) 
0.33

>  <number_of_minimal_rings>  (128) 
2

>  <van_der_walls_volume>  (128) 
249.64

>  <contains_sugar>  (128) 
False

>  <contains_ring_sugars>  (128) 
False

>  <contains_linear_sugars>  (128) 
False

>  <murcko_framework>  (128) 
O1c2ccccc2C=CC1

>  <np_likeness>  (128) 
1.70

>  <chemical_class>  (128) 
Benzopyrans

>  <chemical_sub_class>  (128) 
1-benzopyrans

>  <chemical_super_class>  (128) 
Organoheterocyclic compounds

>  <direct_parent_classification>  (128) 
2,2-dimethyl-1-benzopyrans

>  <np_classifier_pathway>  (128) 
Terpenoids

>  <np_classifier_superclass>  (128) 
Meroterpenoids

>  <np_classifier_class>  (128) 
Merohemiterpenoids

>  <np_classifier_is_glycoside>  (128) 
False

>  <organisms>  (128) 
Piper aduncum

>  <collections>  (128) 
ChemSpider NPs|Latin America dataset|NuBBEDB|Super Natural II|WikiData Natural Products|ZINC NP

>  <dois>  (128) 
10.1248/BPB.31.538|10.1248/bpb.31.538

>  <synonyms>  (128) 
Methyl-8-(ethanoyloxy)-22-dimethyl-2H-chromene-6-carboxylate

>  <cas>  (128) 
nan

$$$$

     RDKit          2D

  8  8  0  0  0  0  0  0  0  0999 V2000
   -3.0851    0.4695    0.0000 C   0  0  0  0  0  0  0  0  0  0  0  0
   -2.0677   -0.6327    0.0000 C   0  0  0  0  0  0  0  0  0  0  0  0
   -0.6045   -0.3028    0.0000 C   0  0  0  0  0  0  0  0  0  0  0  0
   -0.1586    1.1294    0.0000 C   0  0  0  0  0  0  0  0  0  0  0  0
    1.3047    1.4594    0.0000 C   0  0  0  0  0  0  0  0  0  0  0  0
    2.3221    0.3572    0.0000 C   0  0  0  0  0  0  0  0  0  0  0  0
    1.8762   -1.0750    0.0000 C   0  0  0  0  0  0  0  0  0  0  0  0
    0.4129   -1.4050    0.0000 C   0  0  0  0  0  0  0  0  0  0  0  0
  1  2  1  0
  2  3  1  0
  3  4  1  0
  4  5  1  0
  5  6  1  0
  6  7  1  0
  7  8  1  0
  8  3  1  0
M  END
>  <identifier>  (129) 
CNP0300322.0

>  <canonical_smiles>  (129) 
CCC1CCCCC1

>  <standard_inchi>  (129) 
InChI=1S/C8H16/c1-2-8-6-4-3-5-7-8/h8H,2-7H2,1H3

>  <standard_inchi_key>  (129) 
IIEWJVIFRVWJOD-UHFFFAOYSA-N

>  <name>  (129) 
ETHYLCYCLOHEXANE

>  <iupac_name>  (129) 
ethylcyclohexane

>  <annotation_level>  (129) 
5

>  <total_atom_count>  (129) 
24

>  <heavy_atom_count>  (129) 
8

>  <molecular_weight>  (129) 
112.22

>  <exact_molecular_weight>  (129) 
112.1252

>  <molecular_formula>  (129) 
C8H16

>  <alogp>  (129) 
2.98

>  <topological_polar_surface_area>  (129) 
0.00

>  <rotatable_bond_count>  (129) 
1

>  <hydrogen_bond_acceptors>  (129) 
0

>  <hydrogen_bond_donors>  (129) 
0

>  <hydrogen_bond_acceptors_lipinski>  (129) 
0

>  <hydrogen_bond_donors_lipinski>  (129) 
0

>  <lipinski_rule_of_five_violations>  (129) 
0

>  <aromatic_rings_count>  (129) 
0

>  <qed_drug_likeliness>  (129) 
0.49

>  <formal_charge>  (129) 
0

>  <fractioncsp3>  (129) 
1.00

>  <number_of_minimal_rings>  (129) 
1

>  <van_der_walls_volume>  (129) 
133.70

>  <contains_sugar>  (129) 
False

>  <contains_ring_sugars>  (129) 
False

>  <contains_linear_sugars>  (129) 
False

>  <murcko_framework>  (129) 
C1CCCCC1

>  <np_likeness>  (129) 
0.09

>  <chemical_class>  (129) 
Saturated hydrocarbons

>  <chemical_sub_class>  (129) 
Cycloalkanes

>  <chemical_super_class>  (129) 
Hydrocarbons

>  <direct_parent_classification>  (129) 
Cycloalkanes

>  <np_classifier_pathway>  (129) 
Fatty acids

>  <np_classifier_superclass>  (129) 
Fatty acyls

>  <np_classifier_class>  (129) 
Hydrocarbons

>  <np_classifier_is_glycoside>  (129) 
False

>  <organisms>  (129) 
Asystasia gangetica|Caryocar coriaceum|Crataegus pinnatifida|Cynara cardunculus|Cynara scolymus|Garcinia mangostana|Kaempferia galanga

>  <collections>  (129) 
Australian natural products|CMAUP (cCollective molecular activities of useful plants)|Latin America dataset|NPASS|NuBBEDB|Super Natural II|TCMDB-Taiwan (Traditional Chinese Medicine database)|TCMID (Traditional Chinese Medicine Integrated Database)|UNPD (Universal Natural Products Database)|WikiData Natural Products|ZINC NP

>  <dois>  (129) 
10.1016/0031-9422(82)80025-3|10.1016/S0031-9422(82)85033-4|10.1021/JF00120A031|10.1021/jf00120a031|10.1080/0972060x.2011.10643975

>  <synonyms>  (129) 
1-ETHYL-CYCLOHEXANECARBALDEHYDE|1678-91-7|567IJI1215|A810916|AI3-15348|AKOS015906531|CAS-1678-91-7|CHEBI:137775|CHEMBL1882821|Cyclohexane, ethyl-|DTXCID4030334|DTXSID1051779|E0073|EINECS 216-835-0|Ethyl cyclohexane|Ethylcyclohexane, >=99%|InChI=1\/C8H16\/c1-2-8-6-4-3-5-7-8\/h8H,2-7H2,1H|J-010406|J-521341|LMFA11000659|LS-13496|MFCD00001523|NCGC00166032-01|NCGC00357050-01|NS00019408|NSC 8880|NSC-8880|Q21024279|QSPL 100|SWACLEAN ECH|Tox21_303745|UNII-567IJI1215|WLN: L6TJ A2|cyclohexylethane|ethyl-cyclohexane

>  <cas>  (129) 
1678-91-7

$$$$

     RDKit          2D

 15 15  0  0  0  0  0  0  0  0999 V2000
    3.9534    1.2990    0.0000 C   0  0  0  0  0  0  0  0  0  0  0  0
    3.2034    0.0000    0.0000 C   0  0  0  0  0  0  0  0  0  0  0  0
    3.9534   -1.2990    0.0000 C   0  0  0  0  0  0  0  0  0  0  0  0
    1.7034   -0.0000    0.0000 C   0  0  0  0  0  0  0  0  0  0  0  0
    1.2399   -1.4266    0.0000 C   0  0  0  0  0  0  0  0  0  0  0  0
    0.0264   -2.3083    0.0000 C   0  0  0  0  0  0  0  0  0  0  0  0
   -1.4736   -2.3083    0.0000 C   0  0  0  0  0  0  0  0  0  0  0  0
   -1.9371   -3.7348    0.0000 C   0  0  0  0  0  0  0  0  0  0  0  0
   -2.6871   -1.4266    0.0000 C   0  0  0  0  0  0  0  0  0  0  0  0
   -3.1507    0.0000    0.0000 C   0  0  0  0  0  0  0  0  0  0  0  0
   -2.6871    1.4266    0.0000 C   0  0  0  0  0  0  0  0  0  0  0  0
   -1.4736    2.3083    0.0000 C   0  0  0  0  0  0  0  0  0  0  0  0
   -1.9371    3.7348    0.0000 C   0  0  0  0  0  0  0  0  0  0  0  0
    0.0264    2.3083    0.0000 C   0  0  0  0  0  0  0  0  0  0  0  0
    1.2399    1.4266    0.0000 C   0  0  0  0  0  0  0  0  0  0  0  0
  1  2  2  0
  2  3  1  0
  4  2  1  6
  4  5  1  0
  5  6  1  0
  6  7  2  0
  7  8  1  0
  7  9  1  0
  9 10  1  0
 10 11  1  0
 11 12  2  0
 12 13  1  0
 12 14  1  0
 14 15  1  0
 15  4  1  0
M  END
>  <identifier>  (130) 
CNP0169677.1

>  <canonical_smiles>  (130) 
C=C(C)[C@@H]1C/C=C(/C)CC/C=C(/C)CC1

>  <standard_inchi>  (130) 
InChI=1S/C15H24/c1-12(2)15-10-8-13(3)6-5-7-14(4)9-11-15/h6,9,15H,1,5,7-8,10-11H2,2-4H3/b13-6-,14-9-/t15-/m0/s1

>  <standard_inchi_key>  (130) 
XMRKUJJDDKYUHV-ZCGSDFCLSA-N

>  <name>  (130) 
germacrene a

>  <iupac_name>  (130) 
(1~{Z},5~{Z},8~{S})-8-isopropenyl-1,5-dimethyl-cyclodeca-1,5-diene

>  <annotation_level>  (130) 
5

>  <total_atom_count>  (130) 
39

>  <heavy_atom_count>  (130) 
15

>  <molecular_weight>  (130) 
204.36

>  <exact_molecular_weight>  (130) 
204.1878

>  <molecular_formula>  (130) 
C15H24

>  <alogp>  (130) 
5.04

>  <topological_polar_surface_area>  (130) 
0.00

>  <rotatable_bond_count>  (130) 
1

>  <hydrogen_bond_acceptors>  (130) 
0

>  <hydrogen_bond_donors>  (130) 
0

>  <hydrogen_bond_acceptors_lipinski>  (130) 
0

>  <hydrogen_bond_donors_lipinski>  (130) 
0

>  <lipinski_rule_of_five_violations>  (130) 
1

>  <aromatic_rings_count>  (130) 
0

>  <qed_drug_likeliness>  (130) 
0.53

>  <formal_charge>  (130) 
0

>  <fractioncsp3>  (130) 
0.60

>  <number_of_minimal_rings>  (130) 
1

>  <van_der_walls_volume>  (130) 
230.62

>  <contains_sugar>  (130) 
False

>  <contains_ring_sugars>  (130) 
False

>  <contains_linear_sugars>  (130) 
False

>  <murcko_framework>  (130) 
C1=CCCCCC=CCC1

>  <np_likeness>  (130) 
2.22

>  <chemical_class>  (130) 
Prenol lipids

>  <chemical_sub_class>  (130) 
Sesquiterpenoids

>  <chemical_super_class>  (130) 
Lipids and lipid-like molecules

>  <direct_parent_classification>  (130) 
Germacrane sesquiterpenoids

>  <np_classifier_pathway>  (130) 
Terpenoids

>  <np_classifier_superclass>  (130) 
Sesquiterpenoids

>  <np_classifier_class>  (130) 
Germacrane sesquiterpenoids

>  <np_classifier_is_glycoside>  (130) 
False

>  <organisms>  (130) 
Acacia nuperrima|Aristolochia birostris|Aristolochia cymbifera|Aristolochia didyma|Aristolochia gigantea|Aristolochia macroura|Aristolochia triangularis|Aspergillus candidus|Cichorium glandulosum|Cichorium intybus|Croton nepetifolius|Dictyopteris divaricata|Dolomiaea costus|Eunicea succinea|Inula helenium|Lindera aggregata|Lindera strichnifolia|Litsea cubeba|Magnolia sieboldii|Mentha piperita|Nasutitermes gracilirostris|Nasutitermes torresi|Nasutitermes triodiae|Piper cernuum|Piper cubeba|Protium heptaphyllum|Prumnopitys ferruginoides|Scapania undulata|Tilesia baccata|Toona ciliata|basil

>  <collections>  (130) 
Australian natural products|CMAUP (cCollective molecular activities of useful plants)|FooDB|Latin America dataset|NPASS|NPEdia|NuBBEDB|WikiData Natural Products|ZINC NP

>  <dois>  (130) 
10.1007/BF00980588|10.1016/0031-9422(90)80058-O|10.1016/J.PHYTOCHEM.2003.10.018|10.1016/S0031-9422(01)00291-6|10.1016/S0045-6535(99)00015-6|10.1021/NP50034A007|10.1021/NP960452I|10.1055/S-1999-14025|10.1055/S-2001-18363|10.1080/10412905.1991.9697974|10.1080/10412905.1993.9698164|10.1080/10412905.1994.9699344|10.1080/10412905.1995.9698501|10.1080/10412905.1995.9698581|10.1080/10412905.2000.9699552|10.1080/10412905.2000.9712160|10.1590/S0103-50532000000600012

>  <synonyms>  (130) 
(-)-Germacrene A|(1Z,5Z,8S)-1,5-dimethyl-8-prop-1-en-2-ylcyclodeca-1,5-diene|(S,1E,5E)-1,5-Dimethyl-8-(prop-1-en-2-yl)cyclodeca-1,5-diene|Germacrene A

>  <cas>  (130) 
nan

$$$$

     RDKit          2D

 41 46  0  0  0  0  0  0  0  0999 V2000
    4.9499   -3.4813    0.0000 C   0  0  0  0  0  0  0  0  0  0  0  0
    6.4287   -3.2300    0.0000 C   0  0  0  0  0  0  0  0  0  0  0  0
    7.3857   -4.3851    0.0000 C   0  0  0  0  0  0  0  0  0  0  0  0
    6.9505   -1.8237    0.0000 C   0  0  0  0  0  0  0  0  0  0  0  0
    8.3949   -1.4192    0.0000 C   0  0  0  0  0  0  0  0  0  0  0  0
    8.4566    0.0795    0.0000 C   0  0  0  0  0  0  0  0  0  0  0  0
    7.0502    0.6013    0.0000 C   0  0  0  0  0  0  0  0  0  0  0  0
    8.0989    1.6738    0.0000 C   0  0  0  0  0  0  0  0  0  0  0  0
    6.4970    1.9955    0.0000 C   0  0  0  0  0  0  0  0  0  0  0  0
    5.0129    2.2135    0.0000 C   0  0  0  0  0  0  0  0  0  0  0  0
    4.0821    1.0373    0.0000 C   0  0  0  0  0  0  0  0  0  0  0  0
    3.5288    2.4315    0.0000 C   0  0  0  0  0  0  0  0  0  0  0  0
    4.6353   -0.3570    0.0000 C   0  0  0  0  0  0  0  0  0  0  0  0
    3.7045   -1.5332    0.0000 C   0  0  0  0  0  0  0  0  0  0  0  0
    2.2205   -1.3153    0.0000 C   0  0  0  0  0  0  0  0  0  0  0  0
    1.6672    0.0790    0.0000 C   0  0  0  0  0  0  0  0  0  0  0  0
    0.1831    0.2969    0.0000 C   0  0  0  0  0  0  0  0  0  0  0  0
    0.7364   -1.0973    0.0000 C   0  0  0  0  0  0  0  0  0  0  0  0
   -0.7477   -0.8793    0.0000 C   0  0  0  0  0  0  0  0  0  0  0  0
   -2.2318   -0.6613    0.0000 C   0  0  0  0  0  0  0  0  0  0  0  0
   -2.7850    0.7329    0.0000 C   0  0  0  0  0  0  0  0  0  0  0  0
   -4.2691    0.9509    0.0000 O   0  0  0  0  0  0  0  0  0  0  0  0
   -5.1999   -0.2254    0.0000 C   0  0  0  0  0  0  0  0  0  0  0  0
   -4.6467   -1.6196    0.0000 O   0  0  0  0  0  0  0  0  0  0  0  0
   -6.6840   -0.0074    0.0000 C   0  0  0  0  0  0  0  0  0  0  0  0
   -7.6148   -1.1837    0.0000 C   0  0  0  0  0  0  0  0  0  0  0  0
   -9.0989   -0.9657    0.0000 C   0  0  0  0  0  0  0  0  0  0  0  0
   -9.6522    0.4286    0.0000 C   0  0  0  0  0  0  0  0  0  0  0  0
  -11.1362    0.6465    0.0000 C   0  0  0  0  0  0  0  0  0  0  0  0
  -12.0671   -0.5297    0.0000 C   0  0  0  0  0  0  0  0  0  0  0  0
  -11.5138   -1.9240    0.0000 C   0  0  0  0  0  0  0  0  0  0  0  0
  -10.0297   -2.1419    0.0000 C   0  0  0  0  0  0  0  0  0  0  0  0
   -1.8542    1.9092    0.0000 C   0  0  0  0  0  0  0  0  0  0  0  0
   -1.3819    3.3328    0.0000 C   0  0  0  0  0  0  0  0  0  0  0  0
   -3.1742    2.6216    0.0000 C   0  0  0  0  0  0  0  0  0  0  0  0
   -0.3701    1.6912    0.0000 C   0  0  0  0  0  0  0  0  0  0  0  0
    0.5607    2.8674    0.0000 C   0  0  0  0  0  0  0  0  0  0  0  0
    2.0447    2.6495    0.0000 C   0  0  0  0  0  0  0  0  0  0  0  0
    2.5980    1.2552    0.0000 C   0  0  0  0  0  0  0  0  0  0  0  0
    3.1513   -0.1390    0.0000 C   0  0  0  0  0  0  0  0  0  0  0  0
    6.1194   -0.5750    0.0000 C   0  0  0  0  0  0  0  0  0  0  0  0
  1  2  2  0
  2  3  1  0
  4  2  1  1
  4  5  1  0
  5  6  1  0
  6  7  1  0
  7  8  1  6
  7  9  1  0
  9 10  1  0
 10 11  1  0
 11 12  1  1
 11 13  1  0
 13 14  1  1
 14 15  1  0
 16 15  1  6
 16 17  1  0
 17 18  1  6
 17 19  1  0
 19 20  1  0
 20 21  1  0
 21 22  1  0
 22 23  1  0
 23 24  2  0
 23 25  1  0
 25 26  2  0
 26 27  1  0
 27 28  2  0
 28 29  1  0
 29 30  2  0
 30 31  1  0
 31 32  2  0
 21 33  1  0
 33 34  1  0
 33 35  1  0
 33 36  1  0
 36 37  1  6
 37 38  1  0
 38 39  1  0
 39 40  1  6
 13 41  1  0
 41  4  1  6
 41  7  1  0
 39 11  1  0
 39 16  1  0
 36 17  1  0
 32 27  1  0
M  END
>  <identifier>  (131) 
CNP0220472.2

>  <canonical_smiles>  (131) 
C=C(C)[C@@H]1CC[C@]2(C)CC[C@]3(C)[C@H](CC[C@@H]4[C@@]5(C)CCC(OC(=O)/C=C/C6=CC=CC=C6)C(C)(C)[C@@H]5CC[C@]43C)[C@@H]12

>  <standard_inchi>  (131) 
InChI=1S/C39H56O2/c1-26(2)28-18-21-36(5)24-25-38(7)29(34(28)36)15-16-31-37(6)22-20-32(35(3,4)30(37)19-23-39(31,38)8)41-33(40)17-14-27-12-10-9-11-13-27/h9-14,17,28-32,34H,1,15-16,18-25H2,2-8H3/b17-14+/t28-,29+,30-,31+,32?,34+,36+,37-,38+,39+/m0/s1

>  <standard_inchi_key>  (131) 
HHCSYPMWJQHCMZ-BVSVFUDQSA-N

>  <name>  (131) 
nan

>  <iupac_name>  (131) 
[(1~{R},3~{a}~{R},5~{a}~{R},5~{b}~{R},7~{a}~{R},11~{a}~{R},11~{b}~{R},13~{a}~{R},13~{b}~{R})-1-isopropenyl-3~{a},5~{a},5~{b},8,8,11~{a}-hexamethyl-1,2,3,4,5,6,7,7~{a},9,10,11,11~{b},12,13,13~{a},13~{b}-hexadecahydrocyclopenta[a]chrysen-9-yl] (~{E})-3-phenylprop-2-enoate

>  <annotation_level>  (131) 
4

>  <total_atom_count>  (131) 
97

>  <heavy_atom_count>  (131) 
41

>  <molecular_weight>  (131) 
556.88

>  <exact_molecular_weight>  (131) 
556.42803

>  <molecular_formula>  (131) 
C39H56O2

>  <alogp>  (131) 
10.29

>  <topological_polar_surface_area>  (131) 
26.30

>  <rotatable_bond_count>  (131) 
4

>  <hydrogen_bond_acceptors>  (131) 
2

>  <hydrogen_bond_donors>  (131) 
0

>  <hydrogen_bond_acceptors_lipinski>  (131) 
2

>  <hydrogen_bond_donors_lipinski>  (131) 
0

>  <lipinski_rule_of_five_violations>  (131) 
2

>  <aromatic_rings_count>  (131) 
1

>  <qed_drug_likeliness>  (131) 
0.21

>  <formal_charge>  (131) 
0

>  <fractioncsp3>  (131) 
0.72

>  <number_of_minimal_rings>  (131) 
6

>  <van_der_walls_volume>  (131) 
nan

>  <contains_sugar>  (131) 
False

>  <contains_ring_sugars>  (131) 
False

>  <contains_linear_sugars>  (131) 
False

>  <murcko_framework>  (131) 
O(CC=Cc1ccccc1)C2CCC3C(CCC4C3CCC5C6CCCC6CCC54)C2

>  <np_likeness>  (131) 
2.48

>  <chemical_class>  (131) 
Prenol lipids

>  <chemical_sub_class>  (131) 
Triterpenoids

>  <chemical_super_class>  (131) 
Lipids and lipid-like molecules

>  <direct_parent_classification>  (131) 
Lupane triterpenoids

>  <np_classifier_pathway>  (131) 
Terpenoids

>  <np_classifier_superclass>  (131) 
Triterpenoids

>  <np_classifier_class>  (131) 
Lupane triterpenoids

>  <np_classifier_is_glycoside>  (131) 
False

>  <organisms>  (131) 
Himatanthus articulatus|Himatanthus sucuuba

>  <collections>  (131) 
Latin America dataset|NuBBEDB|WikiData Natural Products

>  <dois>  (131) 
10.1590/S0100-40421998000600005

>  <synonyms>  (131) 
Lupeol cinnamate

>  <cas>  (131) 
nan

$$$$

     RDKit          2D

 25 27  0  0  0  0  0  0  0  0999 V2000
    6.4940   -2.4840    0.0000 C   0  0  0  0  0  0  0  0  0  0  0  0
    6.4386   -0.9850    0.0000 O   0  0  0  0  0  0  0  0  0  0  0  0
    5.1127   -0.2835    0.0000 C   0  0  0  0  0  0  0  0  0  0  0  0
    3.8423   -1.0811    0.0000 C   0  0  0  0  0  0  0  0  0  0  0  0
    2.5164   -0.3796    0.0000 C   0  0  0  0  0  0  0  0  0  0  0  0
    2.4609    1.1193    0.0000 C   0  0  0  0  0  0  0  0  0  0  0  0
    3.7313    1.9169    0.0000 C   0  0  0  0  0  0  0  0  0  0  0  0
    5.0572    1.2154    0.0000 C   0  0  0  0  0  0  0  0  0  0  0  0
    6.3276    2.0130    0.0000 O   0  0  0  0  0  0  0  0  0  0  0  0
    1.0181    1.5298    0.0000 O   0  0  0  0  0  0  0  0  0  0  0  0
    0.1819    0.2845    0.0000 C   0  0  0  0  0  0  0  0  0  0  0  0
   -1.3170    0.2290    0.0000 C   0  0  0  0  0  0  0  0  0  0  0  0
   -2.1146    1.4994    0.0000 C   0  0  0  0  0  0  0  0  0  0  0  0
   -3.6135    1.4440    0.0000 C   0  0  0  0  0  0  0  0  0  0  0  0
   -4.4111    2.7144    0.0000 O   0  0  0  0  0  0  0  0  0  0  0  0
   -3.7096    4.0403    0.0000 C   0  0  0  0  0  0  0  0  0  0  0  0
   -4.3150    0.1181    0.0000 C   0  0  0  0  0  0  0  0  0  0  0  0
   -5.8139    0.0626    0.0000 O   0  0  0  0  0  0  0  0  0  0  0  0
   -6.5154   -1.2633    0.0000 C   0  0  0  0  0  0  0  0  0  0  0  0
   -3.5174   -1.1523    0.0000 C   0  0  0  0  0  0  0  0  0  0  0  0
   -4.2189   -2.4782    0.0000 O   0  0  0  0  0  0  0  0  0  0  0  0
   -3.4214   -3.7486    0.0000 C   0  0  0  0  0  0  0  0  0  0  0  0
   -2.0185   -1.0969    0.0000 C   0  0  0  0  0  0  0  0  0  0  0  0
    1.1079   -0.8956    0.0000 C   0  0  0  0  0  0  0  0  0  0  0  0
    0.6975   -2.3384    0.0000 C   0  0  0  0  0  0  0  0  0  0  0  0
  1  2  1  0
  2  3  1  0
  3  4  2  0
  4  5  1  0
  5  6  2  0
  6  7  1  0
  7  8  2  0
  8  9  1  0
  6 10  1  0
 10 11  1  0
 11 12  1  1
 12 13  2  0
 13 14  1  0
 14 15  1  0
 15 16  1  0
 14 17  2  0
 17 18  1  0
 18 19  1  0
 17 20  1  0
 20 21  1  0
 21 22  1  0
 20 23  2  0
 11 24  1  0
 24 25  1  6
  8  3  1  0
 23 12  1  0
 24  5  1  0
M  END
>  <identifier>  (132) 
CNP0317599.2

>  <canonical_smiles>  (132) 
COC1=CC2=C(C=C1O)O[C@H](C1=CC(OC)=C(OC)C(OC)=C1)[C@H]2C

>  <standard_inchi>  (132) 
InChI=1S/C19H22O6/c1-10-12-8-15(21-2)13(20)9-14(12)25-18(10)11-6-16(22-3)19(24-5)17(7-11)23-4/h6-10,18,20H,1-5H3/t10-,18-/m0/s1

>  <standard_inchi_key>  (132) 
CXZSMUPWCVAGRO-YPMLDQLKSA-N

>  <name>  (132) 
nan

>  <iupac_name>  (132) 
(2~{S},3~{S})-5-methoxy-3-methyl-2-(3,4,5-trimethoxyphenyl)-2,3-dihydrobenzofuran-6-ol

>  <annotation_level>  (132) 
4

>  <total_atom_count>  (132) 
47

>  <heavy_atom_count>  (132) 
25

>  <molecular_weight>  (132) 
346.38

>  <exact_molecular_weight>  (132) 
346.14164

>  <molecular_formula>  (132) 
C19H22O6

>  <alogp>  (132) 
3.66

>  <topological_polar_surface_area>  (132) 
66.38

>  <rotatable_bond_count>  (132) 
5

>  <hydrogen_bond_acceptors>  (132) 
6

>  <hydrogen_bond_donors>  (132) 
1

>  <hydrogen_bond_acceptors_lipinski>  (132) 
6

>  <hydrogen_bond_donors_lipinski>  (132) 
1

>  <lipinski_rule_of_five_violations>  (132) 
0

>  <aromatic_rings_count>  (132) 
2

>  <qed_drug_likeliness>  (132) 
0.89

>  <formal_charge>  (132) 
0

>  <fractioncsp3>  (132) 
0.37

>  <number_of_minimal_rings>  (132) 
3

>  <van_der_walls_volume>  (132) 
nan

>  <contains_sugar>  (132) 
False

>  <contains_ring_sugars>  (132) 
False

>  <contains_linear_sugars>  (132) 
False

>  <murcko_framework>  (132) 
O1c2ccccc2CC1c3ccccc3

>  <np_likeness>  (132) 
1.51

>  <chemical_class>  (132) 
2-arylbenzofuran flavonoids

>  <chemical_sub_class>  (132) 
2-arylbenzofuran flavonoids

>  <chemical_super_class>  (132) 
Phenylpropanoids and polyketides

>  <direct_parent_classification>  (132) 
2-arylbenzofuran flavonoids

>  <np_classifier_pathway>  (132) 
Shikimates and Phenylpropanoids

>  <np_classifier_superclass>  (132) 
Lignans

>  <np_classifier_class>  (132) 
Neolignans

>  <np_classifier_is_glycoside>  (132) 
False

>  <organisms>  (132) 
Aniba|Aniba sp.

>  <collections>  (132) 
Latin America dataset|NuBBEDB|WikiData Natural Products|ZINC NP

>  <dois>  (132) 
10.1016/0031-9422(75)85358-1

>  <synonyms>  (132) 
(2S3S)-6-hydroxy-5-methoxy-2-(345-trimethoxyphenyl)-3-methyl-23-dihydrobenzofuran

>  <cas>  (132) 
nan

$$$$

     RDKit          2D

 57 60  0  0  0  0  0  0  0  0999 V2000
    6.5691   -1.2990    0.0000 C   0  0  0  0  0  0  0  0  0  0  0  0
    5.8191    0.0000    0.0000 C   0  0  0  0  0  0  0  0  0  0  0  0
    6.5691    1.2990    0.0000 C   0  0  0  0  0  0  0  0  0  0  0  0
    4.3191    0.0000    0.0000 C   0  0  0  0  0  0  0  0  0  0  0  0
    4.0586   -1.4772    0.0000 O   0  0  0  0  0  0  0  0  0  0  0  0
    3.3086   -2.7762    0.0000 C   0  0  0  0  0  0  0  0  0  0  0  0
    4.4577   -3.7404    0.0000 O   0  0  0  0  0  0  0  0  0  0  0  0
    2.1595   -3.7404    0.0000 C   0  0  0  0  0  0  0  0  0  0  0  0
    2.9095   -5.0395    0.0000 C   0  0  0  0  0  0  0  0  0  0  0  0
    2.1595   -6.3385    0.0000 C   0  0  0  0  0  0  0  0  0  0  0  0
    0.6595   -6.3385    0.0000 C   0  0  0  0  0  0  0  0  0  0  0  0
   -0.0905   -7.6375    0.0000 C   0  0  0  0  0  0  0  0  0  0  0  0
    0.6595   -8.9366    0.0000 C   0  0  0  0  0  0  0  0  0  0  0  0
    2.1595   -8.9366    0.0000 C   0  0  0  0  0  0  0  0  0  0  0  0
    2.9095   -7.6375    0.0000 C   0  0  0  0  0  0  0  0  0  0  0  0
    0.7500   -4.2535    0.0000 N   0  0  0  0  0  0  0  0  0  0  0  0
    1.0105   -5.7307    0.0000 C   0  0  0  0  0  0  0  0  0  0  0  0
   -0.7500   -4.2535    0.0000 C   0  0  0  0  0  0  0  0  0  0  0  0
   -1.0105   -5.7307    0.0000 O   0  0  0  0  0  0  0  0  0  0  0  0
   -2.1595   -3.7404    0.0000 C   0  0  0  0  0  0  0  0  0  0  0  0
   -2.9095   -5.0395    0.0000 C   0  0  0  0  0  0  0  0  0  0  0  0
   -4.4095   -5.0395    0.0000 C   0  0  0  0  0  0  0  0  0  0  0  0
   -2.1595   -6.3385    0.0000 C   0  0  0  0  0  0  0  0  0  0  0  0
   -3.3086   -2.7762    0.0000 O   0  0  0  0  0  0  0  0  0  0  0  0
   -4.0586   -1.4772    0.0000 C   0  0  0  0  0  0  0  0  0  0  0  0
   -5.4681   -1.9902    0.0000 O   0  0  0  0  0  0  0  0  0  0  0  0
   -4.3191    0.0000    0.0000 C   0  0  0  0  0  0  0  0  0  0  0  0
   -5.8191    0.0000    0.0000 C   0  0  0  0  0  0  0  0  0  0  0  0
   -6.5691    1.2990    0.0000 C   0  0  0  0  0  0  0  0  0  0  0  0
   -5.8191    2.5981    0.0000 C   0  0  0  0  0  0  0  0  0  0  0  0
   -6.5691    3.8971    0.0000 C   0  0  0  0  0  0  0  0  0  0  0  0
   -8.0691    3.8971    0.0000 C   0  0  0  0  0  0  0  0  0  0  0  0
   -8.8191    2.5981    0.0000 C   0  0  0  0  0  0  0  0  0  0  0  0
   -8.0691    1.2990    0.0000 C   0  0  0  0  0  0  0  0  0  0  0  0
   -4.0586    1.4772    0.0000 N   0  0  0  0  0  0  0  0  0  0  0  0
   -5.4681    1.9902    0.0000 C   0  0  0  0  0  0  0  0  0  0  0  0
   -3.3086    2.7762    0.0000 C   0  0  0  0  0  0  0  0  0  0  0  0
   -4.4577    3.7404    0.0000 O   0  0  0  0  0  0  0  0  0  0  0  0
   -2.1595    3.7404    0.0000 C   0  0  0  0  0  0  0  0  0  0  0  0
   -2.9095    5.0395    0.0000 C   0  0  0  0  0  0  0  0  0  0  0  0
   -2.1595    6.3385    0.0000 C   0  0  0  0  0  0  0  0  0  0  0  0
   -4.4095    5.0395    0.0000 C   0  0  0  0  0  0  0  0  0  0  0  0
   -0.7500    4.2535    0.0000 O   0  0  0  0  0  0  0  0  0  0  0  0
    0.7500    4.2535    0.0000 C   0  0  0  0  0  0  0  0  0  0  0  0
    1.0105    5.7307    0.0000 O   0  0  0  0  0  0  0  0  0  0  0  0
    2.1595    3.7404    0.0000 C   0  0  0  0  0  0  0  0  0  0  0  0
    2.9095    5.0395    0.0000 C   0  0  0  0  0  0  0  0  0  0  0  0
    4.4095    5.0395    0.0000 C   0  0  0  0  0  0  0  0  0  0  0  0
    5.1595    3.7404    0.0000 C   0  0  0  0  0  0  0  0  0  0  0  0
    6.6595    3.7404    0.0000 C   0  0  0  0  0  0  0  0  0  0  0  0
    7.4095    5.0395    0.0000 C   0  0  0  0  0  0  0  0  0  0  0  0
    6.6595    6.3385    0.0000 C   0  0  0  0  0  0  0  0  0  0  0  0
    5.1595    6.3385    0.0000 C   0  0  0  0  0  0  0  0  0  0  0  0
    3.3086    2.7762    0.0000 N   0  0  0  0  0  0  0  0  0  0  0  0
    4.4577    3.7404    0.0000 C   0  0  0  0  0  0  0  0  0  0  0  0
    4.0586    1.4772    0.0000 C   0  0  0  0  0  0  0  0  0  0  0  0
    5.4681    1.9902    0.0000 O   0  0  0  0  0  0  0  0  0  0  0  0
  1  2  1  0
  2  3  1  0
  4  2  1  1
  4  5  1  0
  5  6  1  0
  6  7  2  0
  6  8  1  0
  8  9  1  6
  9 10  1  0
 10 11  2  0
 11 12  1  0
 12 13  2  0
 13 14  1  0
 14 15  2  0
  8 16  1  0
 16 17  1  0
 16 18  1  0
 18 19  2  0
 18 20  1  0
 20 21  1  1
 21 22  1  0
 21 23  1  0
 20 24  1  0
 24 25  1  0
 25 26  2  0
 25 27  1  0
 27 28  1  6
 28 29  1  0
 29 30  2  0
 30 31  1  0
 31 32  2  0
 32 33  1  0
 33 34  2  0
 27 35  1  0
 35 36  1  0
 35 37  1  0
 37 38  2  0
 37 39  1  0
 39 40  1  1
 40 41  1  0
 40 42  1  0
 39 43  1  0
 43 44  1  0
 44 45  2  0
 44 46  1  0
 46 47  1  6
 47 48  1  0
 48 49  2  0
 49 50  1  0
 50 51  2  0
 51 52  1  0
 52 53  2  0
 46 54  1  0
 54 55  1  0
 54 56  1  0
 56 57  2  0
 56  4  1  0
 15 10  1  0
 34 29  1  0
 53 48  1  0
M  END
>  <identifier>  (133) 
CNP0283929.1

>  <canonical_smiles>  (133) 
CC(C)[C@H]1OC(=O)[C@H](CC2=CC=CC=C2)N(C)C(=O)[C@@H](C(C)C)OC(=O)[C@H](CC2=CC=CC=C2)N(C)C(=O)[C@@H](C(C)C)OC(=O)[C@H](CC2=CC=CC=C2)N(C)C1=O

>  <standard_inchi>  (133) 
InChI=1S/C45H57N3O9/c1-28(2)37-40(49)46(7)35(26-32-21-15-11-16-22-32)44(53)56-39(30(5)6)42(51)48(9)36(27-33-23-17-12-18-24-33)45(54)57-38(29(3)4)41(50)47(8)34(43(52)55-37)25-31-19-13-10-14-20-31/h10-24,28-30,34-39H,25-27H2,1-9H3/t34-,35-,36-,37+,38+,39+/m0/s1

>  <standard_inchi_key>  (133) 
GYSCAQFHASJXRS-FFCOJMSVSA-N

>  <name>  (133) 
Beauvericin

>  <iupac_name>  (133) 
(3~{S},6~{R},9~{S},12~{R},15~{S},18~{R})-3,9,15-tribenzyl-6,12,18-triisopropyl-4,10,16-trimethyl-1,7,13-trioxa-4,10,16-triazacyclooctadecane-2,5,8,11,14,17-hexone

>  <annotation_level>  (133) 
5

>  <total_atom_count>  (133) 
114

>  <heavy_atom_count>  (133) 
57

>  <molecular_weight>  (133) 
783.96

>  <exact_molecular_weight>  (133) 
783.40948

>  <molecular_formula>  (133) 
C45H57N3O9

>  <alogp>  (133) 
4.91

>  <topological_polar_surface_area>  (133) 
139.83

>  <rotatable_bond_count>  (133) 
9

>  <hydrogen_bond_acceptors>  (133) 
9

>  <hydrogen_bond_donors>  (133) 
0

>  <hydrogen_bond_acceptors_lipinski>  (133) 
9

>  <hydrogen_bond_donors_lipinski>  (133) 
0

>  <lipinski_rule_of_five_violations>  (133) 
1

>  <aromatic_rings_count>  (133) 
3

>  <qed_drug_likeliness>  (133) 
0.22

>  <formal_charge>  (133) 
0

>  <fractioncsp3>  (133) 
0.47

>  <number_of_minimal_rings>  (133) 
4

>  <van_der_walls_volume>  (133) 
741.79

>  <contains_sugar>  (133) 
False

>  <contains_ring_sugars>  (133) 
False

>  <contains_linear_sugars>  (133) 
False

>  <murcko_framework>  (133) 
O1CCNC(COCCNC(COCCNC(C1)Cc2ccccc2)Cc3ccccc3)Cc4ccccc4

>  <np_likeness>  (133) 
0.41

>  <chemical_class>  (133) 
Peptidomimetics

>  <chemical_sub_class>  (133) 
Depsipeptides

>  <chemical_super_class>  (133) 
Organic acids and derivatives

>  <direct_parent_classification>  (133) 
Cyclic depsipeptides

>  <np_classifier_pathway>  (133) 
Amino acids and Peptides

>  <np_classifier_superclass>  (133) 
Oligopeptides

>  <np_classifier_class>  (133) 
Cyclic peptides

>  <np_classifier_is_glycoside>  (133) 
False

>  <organisms>  (133) 
Beauveria bassiana|Cordyceps cicadae (Miq.) Massee|Cordyceps fumosorosea|Cordyceps tenuipes|Fusarium avenaceum|Fusarium equiseti|Fusarium fujikuroi|Fusarium incarnatum|Fusarium oxysporum|Fusarium poae|Fusarium proliferatum|Fusarium sporotrichioides|Fusarium subglutinans|Guignardia|Guignardia sp.|Isaria cicadae|Isaria tenuipes|Paecilomyces tenuipes

>  <collections>  (133) 
AnalytiCon Discovery NPs|ChEBI NPs|GNPS (Global Natural Products Social Molecular Networking)|Latin America dataset|NPASS|NuBBEDB|WikiData Natural Products|ZINC NP

>  <dois>  (133) 
10.1007/BF00462223|10.1007/S11427-013-4505-1|10.1016/J.CANLET.2004.12.044|10.1016/J.CHEMBIOL.2008.07.011|10.1016/J.FM.2014.09.009|10.1016/S0031-9422(00)80257-5|10.1016/S0953-7562(09)80899-X|10.1021/ACS.JNATPROD.5B00008|10.1021/NP060394T|10.1021/NP50119A012|10.1021/NP800702C|10.1055/S-2000-9776|10.1590/S0102-695X2012005000106|10.7164/ANTIBIOTICS.36.1762|10.7164/ANTIBIOTICS.41.352

>  <synonyms>  (133) 
(3S,6R,9S,12R,15S,18R)-3,9,15-tribenzyl-4,10,16-trimethyl-6,12,18-tri(propan-2-yl)-1,7,13-trioxa-4,10,16-triazacyclooctadecane-2,5,8,11,14,17-hexone|(3S,6R,9S,12R,15S,18R)-3,9,15-tribenzyl-6,12,18-triisopropyl-4,10,16-trimethyl-1,7,13-trioxa-4,10,16-triazacyclooctadecane-2,5,8,11,14,17-hexaone|1ST7258|1ST7258-100A|26048-05-5|26S048LS2R|AKOS030622850|Beauvericin|Beauvericin Solution in Acetonitrile, 100ug\/mL|CHEBI:3000|CHEMBL249052|CS-W020817|DTXSID00891834|GYSCAQFHASJXRS-FFCOJMSVSA-N|HY-N6739|NCGC00380798-01|NS00018333|SCHEMBL29355|UNII-26S048LS2R

>  <cas>  (133) 
26048-05-5

$$$$

     RDKit          2D

 24 27  0  0  0  0  0  0  0  0999 V2000
   -3.3928    2.9877    0.0000 C   0  0  0  0  0  0  0  0  0  0  0  0
   -3.5462    1.4956    0.0000 O   0  0  0  0  0  0  0  0  0  0  0  0
   -2.3307    0.6166    0.0000 C   0  0  0  0  0  0  0  0  0  0  0  0
   -0.9618    1.2298    0.0000 C   0  0  0  0  0  0  0  0  0  0  0  0
   -0.8084    2.7220    0.0000 O   0  0  0  0  0  0  0  0  0  0  0  0
   -2.0239    3.6009    0.0000 C   0  0  0  0  0  0  0  0  0  0  0  0
    0.2537    0.3509    0.0000 C   0  0  0  0  0  0  0  0  0  0  0  0
    0.1003   -1.1412    0.0000 C   0  0  0  0  0  0  0  0  0  0  0  0
    1.3158   -2.0202    0.0000 C   0  0  0  0  0  0  0  0  0  0  0  0
    1.1624   -3.5123    0.0000 N   0  0  0  0  0  0  0  0  0  0  0  0
   -0.2066   -4.1255    0.0000 C   0  0  0  0  0  0  0  0  0  0  0  0
   -1.4221   -3.2466    0.0000 C   0  0  0  0  0  0  0  0  0  0  0  0
   -1.2686   -1.7544    0.0000 C   0  0  0  0  0  0  0  0  0  0  0  0
   -2.4841   -0.8755    0.0000 C   0  0  0  0  0  0  0  0  0  0  0  0
   -3.8531   -1.4887    0.0000 O   0  0  0  0  0  0  0  0  0  0  0  0
   -5.0686   -0.6098    0.0000 C   0  0  0  0  0  0  0  0  0  0  0  0
    2.6847   -1.4070    0.0000 C   0  0  0  0  0  0  0  0  0  0  0  0
    3.9003   -2.2859    0.0000 O   0  0  0  0  0  0  0  0  0  0  0  0
    2.8382    0.0851    0.0000 C   0  0  0  0  0  0  0  0  0  0  0  0
    4.2071    0.6983    0.0000 C   0  0  0  0  0  0  0  0  0  0  0  0
    4.3605    2.1905    0.0000 C   0  0  0  0  0  0  0  0  0  0  0  0
    3.1450    3.0694    0.0000 C   0  0  0  0  0  0  0  0  0  0  0  0
    1.7761    2.4562    0.0000 C   0  0  0  0  0  0  0  0  0  0  0  0
    1.6227    0.9641    0.0000 C   0  0  0  0  0  0  0  0  0  0  0  0
  1  2  1  0
  2  3  1  0
  3  4  2  0
  4  5  1  0
  5  6  1  0
  4  7  1  0
  7  8  2  0
  8  9  1  0
  9 10  2  0
 10 11  1  0
 11 12  2  0
 12 13  1  0
 13 14  2  0
 14 15  1  0
 15 16  1  0
  9 17  1  0
 17 18  2  0
 17 19  1  0
 19 20  2  0
 20 21  1  0
 21 22  2  0
 22 23  1  0
 23 24  2  0
 14  3  1  0
 24 19  1  0
 24  7  1  0
 13  8  1  0
M  END
>  <identifier>  (134) 
CNP0176301.0

>  <canonical_smiles>  (134) 
COC1=C(OC)C2=C3C(=NC=CC3=C1OC)C(=O)C1=CC=CC=C12

>  <standard_inchi>  (134) 
InChI=1S/C19H15NO4/c1-22-17-12-8-9-20-15-13(12)14(18(23-2)19(17)24-3)10-6-4-5-7-11(10)16(15)21/h4-9H,1-3H3

>  <standard_inchi_key>  (134) 
WXGQWNXTPSGPIX-UHFFFAOYSA-N

>  <name>  (134) 
Homomoschatoline

>  <iupac_name>  (134) 
14,15,16-trimethoxy-10-azatetracyclo[7.7.1.0^{2,7}.0^{13,17}]heptadeca-1(17),2,4,6,9,11,13,15-octaen-8-one

>  <annotation_level>  (134) 
5

>  <total_atom_count>  (134) 
39

>  <heavy_atom_count>  (134) 
24

>  <molecular_weight>  (134) 
321.33

>  <exact_molecular_weight>  (134) 
321.10011

>  <molecular_formula>  (134) 
C19H15NO4

>  <alogp>  (134) 
3.47

>  <topological_polar_surface_area>  (134) 
57.65

>  <rotatable_bond_count>  (134) 
3

>  <hydrogen_bond_acceptors>  (134) 
5

>  <hydrogen_bond_donors>  (134) 
0

>  <hydrogen_bond_acceptors_lipinski>  (134) 
5

>  <hydrogen_bond_donors_lipinski>  (134) 
0

>  <lipinski_rule_of_five_violations>  (134) 
0

>  <aromatic_rings_count>  (134) 
3

>  <qed_drug_likeliness>  (134) 
0.58

>  <formal_charge>  (134) 
0

>  <fractioncsp3>  (134) 
0.16

>  <number_of_minimal_rings>  (134) 
4

>  <van_der_walls_volume>  (134) 
277.72

>  <contains_sugar>  (134) 
False

>  <contains_ring_sugars>  (134) 
False

>  <contains_linear_sugars>  (134) 
False

>  <murcko_framework>  (134) 
n1ccc2cccc3-c4ccccc4Cc1c23

>  <np_likeness>  (134) 
1.01

>  <chemical_class>  (134) 
Aporphines

>  <chemical_sub_class>  (134) 
Aporphines

>  <chemical_super_class>  (134) 
Alkaloids and derivatives

>  <direct_parent_classification>  (134) 
Aporphines

>  <np_classifier_pathway>  (134) 
Alkaloids

>  <np_classifier_superclass>  (134) 
Tyrosine alkaloids

>  <np_classifier_class>  (134) 
Aporphine alkaloids

>  <np_classifier_is_glycoside>  (134) 
False

>  <organisms>  (134) 
Abuta rufescens|Abuta sp.|Abuta_rufescens_Aublet|Alstonia villosa|Anemone anhuiensis|Annickia polycarpa|Annona acuminata|Annona ambotay|Annona foetida|Annona neosericea|Annona squamosa|Anthemis cotula|Aquilegia oxysepala|Artabotrys Uncinatus|Artabotrys hexapetalus|Artabotrys uncinatus|Atherosperma moschatum|Baccharis scoparia|Camoensia maxima|Cananga odorata|Cheimophila salicella|Cucurbita pepo|Duguetia vallicola|Duguetia vollicola|Enantia chlorantha|Enicosanthum acuminatum|Enicosanthum cupulare|Epimedium grandiflorum|Eucalyptus cneorifolia|Fissistigma Oldhamii|Fissistigma oldhamii|Greenwayodendron oliveri|Guatteria amplifolia|Guatteria blepharophylla|Guatteria dielsiana|Guatteria diospyroides|Guatteria dolichopoda|Guatteria hispida|Guatteria saffordiana|Guatteria tonduzii|Laurelia sempervirens|Leucanthemum vulgare|Licaria armeniaca|Limacia oblonga|Limacia oblonga (Miers) Hook.& Thoms.|Liriodendron tulipifera|Lobophytum strictum|Miliusa|Neostenanthera gabonensis|Niphates rowi|Piptostigma fugax|Plectranthus crassus|Polyalthia insignis|Polyalthia microtus|Pseudoxandra cuspidata|Pseuduvaria macrophylla|Rumex japonicus|Syzygium formosanum|Telitoxicum glaziovii|Telitoxicum glaziovii Moldenke|Triclisia patens|Triclisia patens Oliv.|Unonopsis guatterioides|Uvaria littoralis|Uvaria macrophylla|Verbascum undulatum|Xylopia aethiopica|Xylopia championi|Xylopia championii|guatteria hispida|miliusa cf. banacea

>  <collections>  (134) 
Australian natural products|CMAUP (cCollective molecular activities of useful plants)|KNApSaCK|Latin America dataset|NCI DTP data|NPASS|NuBBEDB|PeruNPDB|Phyto4Health|Specs Natural Products|Super Natural II|TCMDB-Taiwan (Traditional Chinese Medicine database)|TCMID (Traditional Chinese Medicine Integrated Database)|TIPdb (database of Taiwan indigenous plants)|UNPD (Universal Natural Products Database)|VietHerb|WikiData Natural Products|ZINC NP

>  <dois>  (134) 
10.1002/(SICI)1099-1573(199903)13:2<175::AID-PTR395>3.0.CO;2-N|10.1007/BF00568268|10.1007/BF00568496|10.1016/0031-9422(75)80390-6|10.1016/0031-9422(81)84045-9|10.1016/0031-9422(90)85037-G|10.1016/0031-9422(94)00675-J|10.1016/0031-9422(96)00181-1|10.1016/J.BMC.2006.10.034|10.1016/J.BSE.2011.03.001|10.1016/J.FITOTE.2005.08.011|10.1016/S0031-9422(00)81237-6|10.1016/S0031-9422(00)81328-X|10.1016/S0031-9422(00)83902-3|10.1016/S0031-9422(00)97022-5|10.1016/S0040-4039(97)00051-8|10.1021/JO00275A046|10.1021/NP010036K|10.1021/NP050422S|10.1021/NP100013R|10.1021/NP50019A011|10.1021/NP50022A020|10.1021/NP50027A028|10.1021/NP50032A036|10.1021/NP50059A029|10.1021/NP50060A043|10.1021/NP50103A009|10.1021/NP970273G|10.1055/S-0028-1097597|10.1055/S-2006-947184|10.1055/S-2006-959639|10.1055/S-2006-959646|10.1055/s-0031-1280383|10.1071/CH9671403|10.1071/ch9671403|10.1080/14786411003774338|10.1139/V79-264|10.1590/S0103-50532011000600016|10.2174/1570178043488743|10.4324/9780203304310_CHAPTER_3

>  <synonyms>  (134) 
1,2,3-Trimethoxy-7H-dibenzo[de,g]quinolin-7-one|14,15,16-trimethoxy-10-azatetracyclo[7.7.1.02,7.013,17]heptadeca-1(16),2,4,6,9,11,13(17),14-octaen-8-one|5140-38-5|7H-Dibenzo(de,g)quinolin-7-one, 1,2,3-trimethoxy-|AKOS040746901|CHEMBL227533|DTXSID70199394|Homomoschatoline|Liridine|Moschatoline, O-methyl-|NSC785149|Noraporphin-7-one, 4,5,6,6a-tetradehydro-1,2,3-trimethoxy-|O-Methylmoschatoline|WXGQWNXTPSGPIX-UHFFFAOYSA-N|tri-O-methylmoschatoline

>  <cas>  (134) 
5140-38-5

$$$$

     RDKit          2D

 27 29  0  0  0  0  0  0  0  0999 V2000
   -7.4185   -0.3548    0.0000 C   0  0  0  0  0  0  0  0  0  0  0  0
   -6.4394    0.7816    0.0000 O   0  0  0  0  0  0  0  0  0  0  0  0
   -4.9657    0.5019    0.0000 C   0  0  0  0  0  0  0  0  0  0  0  0
   -4.4712   -0.9143    0.0000 C   0  0  0  0  0  0  0  0  0  0  0  0
   -2.9975   -1.1940    0.0000 C   0  0  0  0  0  0  0  0  0  0  0  0
   -2.0184   -0.0576    0.0000 C   0  0  0  0  0  0  0  0  0  0  0  0
   -0.5447   -0.3374    0.0000 C   0  0  0  0  0  0  0  0  0  0  0  0
   -0.0501   -1.7535    0.0000 C   0  0  0  0  0  0  0  0  0  0  0  0
   -1.0292   -2.8898    0.0000 O   0  0  0  0  0  0  0  0  0  0  0  0
   -2.5029   -2.6101    0.0000 C   0  0  0  0  0  0  0  0  0  0  0  0
    1.4236   -2.0332    0.0000 C   0  0  0  0  0  0  0  0  0  0  0  0
    1.9182   -3.4493    0.0000 O   0  0  0  0  0  0  0  0  0  0  0  0
    2.4027   -0.8968    0.0000 C   0  0  0  0  0  0  0  0  0  0  0  0
    3.8764   -1.1766    0.0000 C   0  0  0  0  0  0  0  0  0  0  0  0
    4.3709   -2.5927    0.0000 O   0  0  0  0  0  0  0  0  0  0  0  0
    4.8555   -0.0402    0.0000 C   0  0  0  0  0  0  0  0  0  0  0  0
    6.3292   -0.3199    0.0000 O   0  0  0  0  0  0  0  0  0  0  0  0
    4.3609    1.3759    0.0000 C   0  0  0  0  0  0  0  0  0  0  0  0
    5.3400    2.5123    0.0000 O   0  0  0  0  0  0  0  0  0  0  0  0
    4.8454    3.9284    0.0000 C   0  0  0  0  0  0  0  0  0  0  0  0
    2.8872    1.6557    0.0000 C   0  0  0  0  0  0  0  0  0  0  0  0
    1.9081    0.5193    0.0000 C   0  0  0  0  0  0  0  0  0  0  0  0
    0.4344    0.7990    0.0000 O   0  0  0  0  0  0  0  0  0  0  0  0
   -2.5130    1.3585    0.0000 C   0  0  0  0  0  0  0  0  0  0  0  0
   -1.5339    2.4949    0.0000 O   0  0  0  0  0  0  0  0  0  0  0  0
   -3.9866    1.6382    0.0000 C   0  0  0  0  0  0  0  0  0  0  0  0
   -4.4812    3.0544    0.0000 O   0  0  0  0  0  0  0  0  0  0  0  0
  1  2  1  0
  2  3  1  0
  3  4  2  0
  4  5  1  0
  5  6  2  0
  6  7  1  0
  7  8  2  0
  8  9  1  0
  9 10  1  0
  8 11  1  0
 11 12  2  0
 11 13  1  0
 13 14  2  0
 14 15  1  0
 14 16  1  0
 16 17  1  0
 16 18  2  0
 18 19  1  0
 19 20  1  0
 18 21  1  0
 21 22  2  0
 22 23  1  0
  6 24  1  0
 24 25  1  0
 24 26  2  0
 26 27  1  0
 26  3  1  0
 23  7  1  0
 22 13  1  0
M  END
>  <identifier>  (135) 
CNP0171468.0

>  <canonical_smiles>  (135) 
COC1=CC=C(C2=C(OC)C(=O)C3=C(O)C(O)=C(OC)C=C3O2)C(O)=C1O

>  <standard_inchi>  (135) 
InChI=1S/C18H16O9/c1-24-8-5-4-7(12(19)13(8)20)17-18(26-3)16(23)11-9(27-17)6-10(25-2)14(21)15(11)22/h4-6,19-22H,1-3H3

>  <standard_inchi_key>  (135) 
GNHURUAFLJVHLD-UHFFFAOYSA-N

>  <name>  (135) 
Apuleisin

>  <iupac_name>  (135) 
2-(2,3-dihydroxy-4-methoxy-phenyl)-5,6-dihydroxy-3,7-dimethoxy-chromen-4-one

>  <annotation_level>  (135) 
5

>  <total_atom_count>  (135) 
43

>  <heavy_atom_count>  (135) 
27

>  <molecular_weight>  (135) 
376.32

>  <exact_molecular_weight>  (135) 
376.07943

>  <molecular_formula>  (135) 
C18H16O9

>  <alogp>  (135) 
2.31

>  <topological_polar_surface_area>  (135) 
138.82

>  <rotatable_bond_count>  (135) 
4

>  <hydrogen_bond_acceptors>  (135) 
9

>  <hydrogen_bond_donors>  (135) 
4

>  <hydrogen_bond_acceptors_lipinski>  (135) 
9

>  <hydrogen_bond_donors_lipinski>  (135) 
4

>  <lipinski_rule_of_five_violations>  (135) 
0

>  <aromatic_rings_count>  (135) 
3

>  <qed_drug_likeliness>  (135) 
0.51

>  <formal_charge>  (135) 
0

>  <fractioncsp3>  (135) 
0.17

>  <number_of_minimal_rings>  (135) 
3

>  <van_der_walls_volume>  (135) 
306.86

>  <contains_sugar>  (135) 
False

>  <contains_ring_sugars>  (135) 
False

>  <contains_linear_sugars>  (135) 
False

>  <murcko_framework>  (135) 
O1c2ccccc2CC=C1c3ccccc3

>  <np_likeness>  (135) 
1.21

>  <chemical_class>  (135) 
Flavonoids

>  <chemical_sub_class>  (135) 
O-methylated flavonoids

>  <chemical_super_class>  (135) 
Phenylpropanoids and polyketides

>  <direct_parent_classification>  (135) 
3-O-methylated flavonoids

>  <np_classifier_pathway>  (135) 
Shikimates and Phenylpropanoids

>  <np_classifier_superclass>  (135) 
Flavonoids

>  <np_classifier_class>  (135) 
Flavonols

>  <np_classifier_is_glycoside>  (135) 
False

>  <organisms>  (135) 
Adiantum monochlamys|Apuleia leiocarpa|Baileya pauciradiata|Becium grandiflorum|Centaurea webbiana|Commiphora erythraea|Crinum yemense|Lissoclinum bistratum|Pachyphragma macrophyllum|Spilanthes mauritiana|Vernonanthura chamaedrys|Vicia faba

>  <collections>  (135) 
CMAUP (cCollective molecular activities of useful plants)|KNApSaCK|Latin America dataset|NPASS|NPEdia|NuBBEDB|Super Natural II|UNPD (Universal Natural Products Database)|WikiData Natural Products|ZINC NP

>  <dois>  (135) 
10.1016/S0031-9422(00)89891-X

>  <synonyms>  (135) 
2-(2,3-Dihydroxy-4-methoxyphenyl)-5,6-dihydroxy-3,7-dimethoxy-4H-1-benzopyran-4-one|2-(2,3-dihydroxy-4-methoxyphenyl)-5,6-dihydroxy-3,7-dimethoxychromen-4-one|34211-15-9|Apuleisin|CHEBI:180423|LMPK12113050

>  <cas>  (135) 
34211-15-9

$$$$

     RDKit          2D

 21 22  0  0  0  0  0  0  0  0999 V2000
   -9.0933   -1.2500    0.0000 C   0  0  0  0  0  0  0  0  0  0  0  0
   -9.0933    0.2500    0.0000 C   0  0  0  0  0  0  0  0  0  0  0  0
   -7.7942    1.0000    0.0000 C   0  0  0  0  0  0  0  0  0  0  0  0
   -6.4952    0.2500    0.0000 C   0  0  0  0  0  0  0  0  0  0  0  0
   -5.1962    1.0000    0.0000 C   0  0  0  0  0  0  0  0  0  0  0  0
   -3.8971    0.2500    0.0000 S   0  0  0  0  0  0  0  0  0  0  0  0
   -2.5981    1.0000    0.0000 S   0  0  0  0  0  0  0  0  0  0  0  0
   -1.2990    0.2500    0.0000 S   0  0  0  0  0  0  0  0  0  0  0  0
   -0.0000    1.0000    0.0000 C   0  0  0  0  0  0  0  0  0  0  0  0
    1.2990    0.2500    0.0000 S   0  0  0  0  0  0  0  0  0  0  0  0
    2.5981    1.0000    0.0000 S   0  0  0  0  0  0  0  0  0  0  0  0
    3.8971    0.2500    0.0000 S   0  0  0  0  0  0  0  0  0  0  0  0
    5.1962    1.0000    0.0000 C   0  0  0  0  0  0  0  0  0  0  0  0
    6.4952    0.2500    0.0000 C   0  0  0  0  0  0  0  0  0  0  0  0
    6.4952   -1.2500    0.0000 C   0  0  0  0  0  0  0  0  0  0  0  0
    7.7942   -2.0000    0.0000 C   0  0  0  0  0  0  0  0  0  0  0  0
    9.0933   -1.2500    0.0000 C   0  0  0  0  0  0  0  0  0  0  0  0
    9.0933    0.2500    0.0000 C   0  0  0  0  0  0  0  0  0  0  0  0
    7.7942    1.0000    0.0000 C   0  0  0  0  0  0  0  0  0  0  0  0
   -6.4952   -1.2500    0.0000 C   0  0  0  0  0  0  0  0  0  0  0  0
   -7.7942   -2.0000    0.0000 C   0  0  0  0  0  0  0  0  0  0  0  0
  1  2  2  0
  2  3  1  0
  3  4  2  0
  4  5  1  0
  5  6  1  0
  6  7  1  0
  7  8  1  0
  8  9  1  0
  9 10  1  0
 10 11  1  0
 11 12  1  0
 12 13  1  0
 13 14  1  0
 14 15  2  0
 15 16  1  0
 16 17  2  0
 17 18  1  0
 18 19  2  0
  4 20  1  0
 20 21  2  0
 21  1  1  0
 19 14  1  0
M  END
>  <identifier>  (136) 
CNP0376972.0

>  <canonical_smiles>  (136) 
C1=CC=C(CSSSCSSSCC2=CC=CC=C2)C=C1

>  <standard_inchi>  (136) 
InChI=1S/C15H16S6/c1-3-7-14(8-4-1)11-16-20-18-13-19-21-17-12-15-9-5-2-6-10-15/h1-10H,11-13H2

>  <standard_inchi_key>  (136) 
USUTWOHYZKLVGQ-UHFFFAOYSA-N

>  <name>  (136) 
nan

>  <iupac_name>  (136) 
[(benzyltrisulfanyl)methyltrisulfanyl]methylbenzene

>  <annotation_level>  (136) 
5

>  <total_atom_count>  (136) 
37

>  <heavy_atom_count>  (136) 
21

>  <molecular_weight>  (136) 
388.7

>  <exact_molecular_weight>  (136) 
387.95763

>  <molecular_formula>  (136) 
C15H16S6

>  <alogp>  (136) 
7.40

>  <topological_polar_surface_area>  (136) 
0.00

>  <rotatable_bond_count>  (136) 
10

>  <hydrogen_bond_acceptors>  (136) 
6

>  <hydrogen_bond_donors>  (136) 
0

>  <hydrogen_bond_acceptors_lipinski>  (136) 
6

>  <hydrogen_bond_donors_lipinski>  (136) 
0

>  <lipinski_rule_of_five_violations>  (136) 
1

>  <aromatic_rings_count>  (136) 
2

>  <qed_drug_likeliness>  (136) 
0.23

>  <formal_charge>  (136) 
0

>  <fractioncsp3>  (136) 
0.20

>  <number_of_minimal_rings>  (136) 
2

>  <van_der_walls_volume>  (136) 
316.90

>  <contains_sugar>  (136) 
False

>  <contains_ring_sugars>  (136) 
False

>  <contains_linear_sugars>  (136) 
False

>  <murcko_framework>  (136) 
S(SCSSSCc1ccccc1)SCc2ccccc2

>  <np_likeness>  (136) 
0.30

>  <chemical_class>  (136) 
Benzene and substituted derivatives

>  <chemical_sub_class>  (136) 
Benzene and substituted derivatives

>  <chemical_super_class>  (136) 
Benzenoids

>  <direct_parent_classification>  (136) 
Benzene and substituted derivatives

>  <np_classifier_pathway>  (136) 
nan

>  <np_classifier_superclass>  (136) 
nan

>  <np_classifier_class>  (136) 
nan

>  <np_classifier_is_glycoside>  (136) 
False

>  <organisms>  (136) 
Petiveria alliacea

>  <collections>  (136) 
ChemSpider NPs|Latin America dataset|NuBBEDB|Super Natural II|TCMDB-Taiwan (Traditional Chinese Medicine database)|UNPD (Universal Natural Products Database)|WikiData Natural Products|ZINC NP

>  <dois>  (136) 
10.1016/S0031-9422(01)00079-6

>  <synonyms>  (136) 
Di(benzyltrithio) methane

>  <cas>  (136) 
nan

$$$$

     RDKit          2D

 16 18  0  0  0  0  0  0  0  0999 V2000
   -5.6345   -0.8177    0.0000 C   0  0  0  0  0  0  0  0  0  0  0  0
   -4.2477   -1.3895    0.0000 O   0  0  0  0  0  0  0  0  0  0  0  0
   -3.0592   -0.4745    0.0000 C   0  0  0  0  0  0  0  0  0  0  0  0
   -3.2573    1.0124    0.0000 C   0  0  0  0  0  0  0  0  0  0  0  0
   -2.0688    1.9274    0.0000 C   0  0  0  0  0  0  0  0  0  0  0  0
   -0.6820    1.3557    0.0000 C   0  0  0  0  0  0  0  0  0  0  0  0
    0.6708    2.0036    0.0000 N   0  0  0  0  0  0  0  0  0  0  0  0
    1.7051    0.9172    0.0000 C   0  0  0  0  0  0  0  0  0  0  0  0
    0.9915   -0.4022    0.0000 C   0  0  0  0  0  0  0  0  0  0  0  0
    1.7773   -1.6799    0.0000 C   0  0  0  0  0  0  0  0  0  0  0  0
    3.2767   -1.6382    0.0000 C   0  0  0  0  0  0  0  0  0  0  0  0
    3.9903   -0.3188    0.0000 N   0  0  0  0  0  0  0  0  0  0  0  0
    5.4897   -0.2771    0.0000 C   0  0  0  0  0  0  0  0  0  0  0  0
    3.2045    0.9589    0.0000 C   0  0  0  0  0  0  0  0  0  0  0  0
   -0.4839   -0.1312    0.0000 C   0  0  0  0  0  0  0  0  0  0  0  0
   -1.6724   -1.0462    0.0000 C   0  0  0  0  0  0  0  0  0  0  0  0
  1  2  1  0
  2  3  1  0
  3  4  2  0
  4  5  1  0
  5  6  2  0
  6  7  1  0
  7  8  1  0
  8  9  2  0
  9 10  1  0
 10 11  1  0
 11 12  1  0
 12 13  1  0
 12 14  1  0
  9 15  1  0
 15 16  2  0
 16  3  1  0
 15  6  1  0
 14  8  1  0
M  END
>  <identifier>  (137) 
CNP0110392.0

>  <canonical_smiles>  (137) 
COC1=CC=C2NC3=C(CCN(C)C3)C2=C1

>  <standard_inchi>  (137) 
InChI=1S/C13H16N2O/c1-15-6-5-10-11-7-9(16-2)3-4-12(11)14-13(10)8-15/h3-4,7,14H,5-6,8H2,1-2H3

>  <standard_inchi_key>  (137) 
WOIXRQJXGWXSBU-UHFFFAOYSA-N

>  <name>  (137) 
2-Methyl-6-methoxy-1,2,3,4-tetrahydro-beta-carboline

>  <iupac_name>  (137) 
6-methoxy-2-methyl-1,3,4,9-tetrahydropyrido[3,4-b]indole

>  <annotation_level>  (137) 
5

>  <total_atom_count>  (137) 
32

>  <heavy_atom_count>  (137) 
16

>  <molecular_weight>  (137) 
216.28

>  <exact_molecular_weight>  (137) 
216.12626

>  <molecular_formula>  (137) 
C13H16N2O

>  <alogp>  (137) 
2.16

>  <topological_polar_surface_area>  (137) 
28.26

>  <rotatable_bond_count>  (137) 
1

>  <hydrogen_bond_acceptors>  (137) 
2

>  <hydrogen_bond_donors>  (137) 
1

>  <hydrogen_bond_acceptors_lipinski>  (137) 
2

>  <hydrogen_bond_donors_lipinski>  (137) 
1

>  <lipinski_rule_of_five_violations>  (137) 
0

>  <aromatic_rings_count>  (137) 
2

>  <qed_drug_likeliness>  (137) 
0.79

>  <formal_charge>  (137) 
0

>  <fractioncsp3>  (137) 
0.39

>  <number_of_minimal_rings>  (137) 
3

>  <van_der_walls_volume>  (137) 
204.59

>  <contains_sugar>  (137) 
False

>  <contains_ring_sugars>  (137) 
False

>  <contains_linear_sugars>  (137) 
False

>  <murcko_framework>  (137) 
c1ccc2c(c1)[nH]c3c2CCNC3

>  <np_likeness>  (137) 
-0.23

>  <chemical_class>  (137) 
Indoles and derivatives

>  <chemical_sub_class>  (137) 
Pyridoindoles

>  <chemical_super_class>  (137) 
Organoheterocyclic compounds

>  <direct_parent_classification>  (137) 
Beta carbolines

>  <np_classifier_pathway>  (137) 
Alkaloids

>  <np_classifier_superclass>  (137) 
Tryptophan alkaloids

>  <np_classifier_class>  (137) 
Carboline alkaloids

>  <np_classifier_is_glycoside>  (137) 
False

>  <organisms>  (137) 
Antirhea lucida|Artemisia santolina|Daucus carota var. sativa|Horsfieldia superba|Nectandra angustifolia|Nectandra megapotamica|Phalaris aquatica|Phalaris arundinacea|Phalaris coerulescens|Phalaris tuberosa|Phyllocladus aspleniifolius|Phyllodium pulchellum|Stegobium paniceum|Stenostomum lucidum

>  <collections>  (137) 
Australian natural products|KNApSaCK|Latin America dataset|NPASS|NuBBEDB|TCMDB-Taiwan (Traditional Chinese Medicine database)|TCMID (Traditional Chinese Medicine Integrated Database)|UNPD (Universal Natural Products Database)|WikiData Natural Products

>  <dois>  (137) 
10.1016/0031-9422(75)83050-0|10.1016/S0031-9422(00)94432-7|10.1016/S0031-9422(97)00946-1|10.1016/s0021-9673(01)91532-8|10.1021/JO00023A016|10.1055/S-0028-1099570|10.1055/S-2006-959377|10.1071/CH9712189

>  <synonyms>  (137) 
5R59U3R5MP|6-Methoxy-2-methyl-1,2,3,4-tetrahydro-beta-carboline|6-methoxy-2-methyl-1,3,4,9-tetrahydropyrido[3,4-b]indole|6-methoxy-N-methyl-1234-tetrahydro-\u221a\u00e9\u00ac\u2264-carboline|6582-80-5|CHEBI:228992|H-Pyrido[3,4-b]indole, 2,3,4,9-tetrahydro-6-methoxy-2-methyl-|N-Methylpinoline|SCHEMBL12083125|TQP1248

>  <cas>  (137) 
6582-80-5

$$$$

     RDKit          2D

 10 10  0  0  0  0  0  0  0  0999 V2000
   -4.6450    0.6199    0.0000 O   0  0  0  0  0  0  0  0  0  0  0  0
   -3.5176   -0.3695    0.0000 C   0  0  0  0  0  0  0  0  0  0  0  0
   -2.0970    0.1121    0.0000 S   0  0  0  0  0  0  0  0  0  0  0  0
   -0.9696   -0.8774    0.0000 C   0  0  0  0  0  0  0  0  0  0  0  0
    0.4510   -0.3958    0.0000 C   0  0  0  0  0  0  0  0  0  0  0  0
    0.7442    1.0753    0.0000 C   0  0  0  0  0  0  0  0  0  0  0  0
    2.1647    1.5569    0.0000 C   0  0  0  0  0  0  0  0  0  0  0  0
    3.2921    0.5674    0.0000 C   0  0  0  0  0  0  0  0  0  0  0  0
    2.9989   -0.9036    0.0000 C   0  0  0  0  0  0  0  0  0  0  0  0
    1.5783   -1.3852    0.0000 C   0  0  0  0  0  0  0  0  0  0  0  0
  1  2  1  0
  2  3  1  0
  3  4  1  0
  4  5  1  0
  5  6  2  0
  6  7  1  0
  7  8  2  0
  8  9  1  0
  9 10  2  0
 10  5  1  0
M  END
>  <identifier>  (138) 
CNP0193580.0

>  <canonical_smiles>  (138) 
OCSCC1=CC=CC=C1

>  <standard_inchi>  (138) 
InChI=1S/C8H10OS/c9-7-10-6-8-4-2-1-3-5-8/h1-5,9H,6-7H2

>  <standard_inchi_key>  (138) 
RRGVORDGAOCWNZ-UHFFFAOYSA-N

>  <name>  (138) 
Benzylsulfanylmethanol

>  <iupac_name>  (138) 
benzylsulfanylmethanol

>  <annotation_level>  (138) 
5

>  <total_atom_count>  (138) 
20

>  <heavy_atom_count>  (138) 
10

>  <molecular_weight>  (138) 
154.23

>  <exact_molecular_weight>  (138) 
154.04524

>  <molecular_formula>  (138) 
C8H10OS

>  <alogp>  (138) 
1.87

>  <topological_polar_surface_area>  (138) 
20.23

>  <rotatable_bond_count>  (138) 
3

>  <hydrogen_bond_acceptors>  (138) 
2

>  <hydrogen_bond_donors>  (138) 
1

>  <hydrogen_bond_acceptors_lipinski>  (138) 
2

>  <hydrogen_bond_donors_lipinski>  (138) 
1

>  <lipinski_rule_of_five_violations>  (138) 
0

>  <aromatic_rings_count>  (138) 
1

>  <qed_drug_likeliness>  (138) 
0.67

>  <formal_charge>  (138) 
0

>  <fractioncsp3>  (138) 
0.25

>  <number_of_minimal_rings>  (138) 
1

>  <van_der_walls_volume>  (138) 
144.25

>  <contains_sugar>  (138) 
False

>  <contains_ring_sugars>  (138) 
False

>  <contains_linear_sugars>  (138) 
False

>  <murcko_framework>  (138) 
c1ccccc1

>  <np_likeness>  (138) 
-0.18

>  <chemical_class>  (138) 
Benzene and substituted derivatives

>  <chemical_sub_class>  (138) 
Benzene and substituted derivatives

>  <chemical_super_class>  (138) 
Benzenoids

>  <direct_parent_classification>  (138) 
Benzene and substituted derivatives

>  <np_classifier_pathway>  (138) 
Shikimates and Phenylpropanoids

>  <np_classifier_superclass>  (138) 
nan

>  <np_classifier_class>  (138) 
nan

>  <np_classifier_is_glycoside>  (138) 
False

>  <organisms>  (138) 
Petiveria alliacea

>  <collections>  (138) 
ChemSpider NPs|Latin America dataset|NuBBEDB|TCMDB-Taiwan (Traditional Chinese Medicine database)|TCMID (Traditional Chinese Medicine Integrated Database)|UNPD (Universal Natural Products Database)|WikiData Natural Products|ZINC NP

>  <dois>  (138) 
10.1016/S0031-9422(01)00079-6

>  <synonyms>  (138) 
(Benzylthio)methanol|100378-43-6|Benzylhydroxymethyl sulphide|DTXSID80293433|Methanol, [(phenylmethyl)thio]-|SCHEMBL1904343

>  <cas>  (138) 
100378-43-6

$$$$

     RDKit          2D

 24 26  0  0  0  0  0  0  0  0999 V2000
   -2.6318   -2.0074    0.0000 H   0  0  0  0  0  0  0  0  0  0  0  0
   -1.2372   -1.4550    0.0000 C   0  0  0  0  0  0  0  0  0  0  0  0
   -1.1167   -2.9502    0.0000 H   0  0  0  0  0  0  0  0  0  0  0  0
    0.2562   -1.5960    0.0000 C   0  0  0  0  0  0  0  0  0  0  0  0
    0.8808   -2.9598    0.0000 O   0  0  0  0  0  0  0  0  0  0  0  0
    1.1249   -0.3732    0.0000 C   0  0  0  0  0  0  0  0  0  0  0  0
    1.7495   -1.7370    0.0000 O   0  0  0  0  0  0  0  0  0  0  0  0
    2.6183   -0.5142    0.0000 C   0  0  0  0  0  0  0  0  0  0  0  0
    3.4870    0.7086    0.0000 C   0  0  0  0  0  0  0  0  0  0  0  0
    4.7216    1.5606    0.0000 C   0  0  0  0  0  0  0  0  0  0  0  0
    4.5404   -0.3593    0.0000 C   0  0  0  0  0  0  0  0  0  0  0  0
    4.1423   -1.8055    0.0000 C   0  0  0  0  0  0  0  0  0  0  0  0
    2.8625    2.0724    0.0000 C   0  0  0  0  0  0  0  0  0  0  0  0
    1.3691    2.2134    0.0000 C   0  0  0  0  0  0  0  0  0  0  0  0
    0.5003    0.9906    0.0000 C   0  0  0  0  0  0  0  0  0  0  0  0
   -0.9930    1.1315    0.0000 C   0  0  0  0  0  0  0  0  0  0  0  0
   -0.1243    2.3544    0.0000 C   0  0  0  0  0  0  0  0  0  0  0  0
   -1.6176    2.4953    0.0000 C   0  0  0  0  0  0  0  0  0  0  0  0
   -3.1110    2.6363    0.0000 C   0  0  0  0  0  0  0  0  0  0  0  0
   -3.9798    1.4135    0.0000 C   0  0  0  0  0  0  0  0  0  0  0  0
   -3.3552    0.0497    0.0000 C   0  0  0  0  0  0  0  0  0  0  0  0
   -3.4178   -1.4490    0.0000 C   0  0  0  0  0  0  0  0  0  0  0  0
   -4.8067   -0.3286    0.0000 C   0  0  0  0  0  0  0  0  0  0  0  0
   -1.8618   -0.0913    0.0000 C   0  0  0  0  0  0  0  0  0  0  0  0
  1  2  1  0
  2  3  1  0
  2  4  1  0
  4  5  2  0
  4  6  1  0
  6  7  1  1
  6  8  1  0
  8  9  1  0
  9 10  1  1
  9 11  1  0
 11 12  2  0
  9 13  1  0
 13 14  1  0
 14 15  1  0
 15 16  1  0
 16 17  1  1
 16 18  1  0
 18 19  1  0
 19 20  1  0
 20 21  1  0
 21 22  1  0
 21 23  1  0
 24 21  1  1
 24  2  1  0
 15  6  1  0
 24 16  1  0
M  ISO  2   1   2   3   2
M  END
>  <identifier>  (139) 
CNP0183737.1

>  <canonical_smiles>  (139) 
[2H]C1([2H])C(=O)[C@@]2(O)C[C@@](C)(C=C)CCC2[C@@]2(C)CCCC(C)(C)[C@H]12

>  <standard_inchi>  (139) 
InChI=1S/C20H32O2/c1-6-18(4)11-8-14-19(5)10-7-9-17(2,3)15(19)12-16(21)20(14,22)13-18/h6,14-15,22H,1,7-13H2,2-5H3/t14?,15-,18-,19+,20+/m0/s1/i12D2

>  <standard_inchi_key>  (139) 
LYKJEJVAXSGWAJ-WFBUVHSGSA-N

>  <name>  (139) 
nan

>  <iupac_name>  (139) 
(4~{a}~{S},7~{S},8~{a}~{R},10~{a}~{S})-10,10-dideuterio-8~{a}-hydroxy-1,1,4~{a},7-tetramethyl-7-vinyl-2,3,4,4~{b},5,6,8,10~{a}-octahydrophenanthren-9-one

>  <annotation_level>  (139) 
5

>  <total_atom_count>  (139) 
54

>  <heavy_atom_count>  (139) 
22

>  <molecular_weight>  (139) 
306.49

>  <exact_molecular_weight>  (139) 
306.25278

>  <molecular_formula>  (139) 
C20H32O2

>  <alogp>  (139) 
4.52

>  <topological_polar_surface_area>  (139) 
37.30

>  <rotatable_bond_count>  (139) 
1

>  <hydrogen_bond_acceptors>  (139) 
2

>  <hydrogen_bond_donors>  (139) 
1

>  <hydrogen_bond_acceptors_lipinski>  (139) 
2

>  <hydrogen_bond_donors_lipinski>  (139) 
1

>  <lipinski_rule_of_five_violations>  (139) 
0

>  <aromatic_rings_count>  (139) 
0

>  <qed_drug_likeliness>  (139) 
0.72

>  <formal_charge>  (139) 
0

>  <fractioncsp3>  (139) 
0.85

>  <number_of_minimal_rings>  (139) 
3

>  <van_der_walls_volume>  (139) 
nan

>  <contains_sugar>  (139) 
False

>  <contains_ring_sugars>  (139) 
False

>  <contains_linear_sugars>  (139) 
False

>  <murcko_framework>  (139) 
C1CCC2C(C1)CCC3CCCCC32

>  <np_likeness>  (139) 
2.38

>  <chemical_class>  (139) 
Prenol lipids

>  <chemical_sub_class>  (139) 
Diterpenoids

>  <chemical_super_class>  (139) 
Lipids and lipid-like molecules

>  <direct_parent_classification>  (139) 
Diterpenoids

>  <np_classifier_pathway>  (139) 
Terpenoids

>  <np_classifier_superclass>  (139) 
Diterpenoids

>  <np_classifier_class>  (139) 
Pimarane and Isopimarane diterpenoids

>  <np_classifier_is_glycoside>  (139) 
False

>  <organisms>  (139) 
Vellozia compacta

>  <collections>  (139) 
Latin America dataset|NuBBEDB|Supernatural3

>  <dois>  (139) 
10.1016/S0031-9422(00)82735-1

>  <synonyms>  (139) 
(4aS,7S,8aR,10aS)-10,10-dideuterio-7-ethenyl-8a-hydroxy-1,1,4a,7-tetramethyl-2,3,4,4b,5,6,8,10a-octahydrophenanthren-9-one|compactone deuterium

>  <cas>  (139) 
nan

$$$$

     RDKit          2D

 24 27  0  0  0  0  0  0  0  0999 V2000
    4.1985   -2.9655    0.0000 C   0  0  0  0  0  0  0  0  0  0  0  0
    3.8578   -1.5047    0.0000 O   0  0  0  0  0  0  0  0  0  0  0  0
    2.4224   -1.0693    0.0000 C   0  0  0  0  0  0  0  0  0  0  0  0
    1.3276   -2.0947    0.0000 C   0  0  0  0  0  0  0  0  0  0  0  0
   -0.1078   -1.6593    0.0000 C   0  0  0  0  0  0  0  0  0  0  0  0
   -0.4484   -0.1985    0.0000 C   0  0  0  0  0  0  0  0  0  0  0  0
    0.6463    0.8269    0.0000 C   0  0  0  0  0  0  0  0  0  0  0  0
    2.0817    0.3915    0.0000 C   0  0  0  0  0  0  0  0  0  0  0  0
    3.1765    1.4170    0.0000 O   0  0  0  0  0  0  0  0  0  0  0  0
    4.6119    0.9816    0.0000 C   0  0  0  0  0  0  0  0  0  0  0  0
   -1.8839    0.2369    0.0000 C   0  0  0  0  0  0  0  0  0  0  0  0
   -0.6865    0.7432    0.0000 C   0  0  0  0  0  0  0  0  0  0  0  0
   -0.2291    1.3996    0.0000 C   0  0  0  0  0  0  0  0  0  0  0  0
    1.9629    1.2127    0.0000 O   0  0  0  0  0  0  0  0  0  0  0  0
    2.8206    2.4433    0.0000 C   0  0  0  0  0  0  0  0  0  0  0  0
   -0.5688    2.1239    0.0000 C   0  0  0  0  0  0  0  0  0  0  0  0
   -1.3659    2.1918    0.0000 C   0  0  0  0  0  0  0  0  0  0  0  0
   -2.5208    1.5950    0.0000 C   0  0  0  0  0  0  0  0  0  0  0  0
   -4.0092    1.4089    0.0000 C   0  0  0  0  0  0  0  0  0  0  0  0
   -4.2922   -0.0642    0.0000 C   0  0  0  0  0  0  0  0  0  0  0  0
   -2.9786   -0.7885    0.0000 N   0  0  0  0  0  0  0  0  0  0  0  0
   -4.1746   -1.6938    0.0000 O   0  0  0  0  0  0  0  0  0  0  0  0
   -2.6380   -2.2493    0.0000 C   0  0  0  0  0  0  0  0  0  0  0  0
   -1.2026   -2.6847    0.0000 C   0  0  0  0  0  0  0  0  0  0  0  0
  1  2  1  0
  2  3  1  0
  3  4  2  0
  4  5  1  0
  5  6  2  0
  6  7  1  0
  7  8  2  0
  8  9  1  0
  9 10  1  0
  6 11  1  0
 11 12  1  6
 12 13  1  0
 13 14  1  6
 14 15  1  0
 13 16  1  0
 16 17  2  0
 17 18  1  0
 18 19  2  0
 19 20  1  0
 20 21  1  0
 21 22  1  6
 21 23  1  0
 23 24  1  0
  8  3  1  0
 18 11  1  0
 24  5  1  0
 21 11  1  0
M  CHG  2  21   1  22  -1
M  END
>  <identifier>  (140) 
CNP0503030.2

>  <canonical_smiles>  (140) 
COC1=CC2=C(C=C1OC)[C@]13C[C@@H](OC)C=CC1=CC[N@+]3([O-])CC2

>  <standard_inchi>  (140) 
InChI=1S/C19H23NO4/c1-22-15-5-4-14-7-9-20(21)8-6-13-10-17(23-2)18(24-3)11-16(13)19(14,20)12-15/h4-5,7,10-11,15H,6,8-9,12H2,1-3H3/t15-,19-,20+/m0/s1

>  <standard_inchi_key>  (140) 
LAYFSBDIAGEQJD-RYGJVYDSSA-N

>  <name>  (140) 
nan

>  <iupac_name>  (140) 
(2~{R},7~{R},13~{b}~{S})-2,11,12-trimethoxy-7-oxido-2,6,8,9-tetrahydro-1~{H}-indolo[7~{a},1-a]isoquinolin-7-ium

>  <annotation_level>  (140) 
5

>  <total_atom_count>  (140) 
47

>  <heavy_atom_count>  (140) 
24

>  <molecular_weight>  (140) 
329.4

>  <exact_molecular_weight>  (140) 
329.16271

>  <molecular_formula>  (140) 
C19H23NO4

>  <alogp>  (140) 
2.68

>  <topological_polar_surface_area>  (140) 
50.75

>  <rotatable_bond_count>  (140) 
3

>  <hydrogen_bond_acceptors>  (140) 
4

>  <hydrogen_bond_donors>  (140) 
0

>  <hydrogen_bond_acceptors_lipinski>  (140) 
4

>  <hydrogen_bond_donors_lipinski>  (140) 
0

>  <lipinski_rule_of_five_violations>  (140) 
0

>  <aromatic_rings_count>  (140) 
1

>  <qed_drug_likeliness>  (140) 
0.63

>  <formal_charge>  (140) 
0

>  <fractioncsp3>  (140) 
0.47

>  <number_of_minimal_rings>  (140) 
4

>  <van_der_walls_volume>  (140) 
298.51

>  <contains_sugar>  (140) 
False

>  <contains_ring_sugars>  (140) 
False

>  <contains_linear_sugars>  (140) 
False

>  <murcko_framework>  (140) 
c1ccc2c(c1)CCN3CC=C4C=CCCC423

>  <np_likeness>  (140) 
1.84

>  <chemical_class>  (140) 
Erythrina alkaloids

>  <chemical_sub_class>  (140) 
Erythrinanes

>  <chemical_super_class>  (140) 
Alkaloids and derivatives

>  <direct_parent_classification>  (140) 
Erythrinanes

>  <np_classifier_pathway>  (140) 
Alkaloids

>  <np_classifier_superclass>  (140) 
Lysine alkaloids

>  <np_classifier_class>  (140) 
Indolizidine alkaloids

>  <np_classifier_is_glycoside>  (140) 
False

>  <organisms>  (140) 
Erythrina herbacea|Erythrina mulungu

>  <collections>  (140) 
Latin America dataset|NuBBEDB|Super Natural II|Supernatural3|WikiData Natural Products|ZINC NP

>  <dois>  (140) 
10.1007/S11418-007-0222-Z|10.1139/V81-400|10.1139/v81-400

>  <synonyms>  (140) 
(1S,16R)-4,5,16-trimethoxy-10-azatetracyclo[8.7.0.0\u00b9,\u00b9\u00b3.0\u00b2,\u2077]heptadeca-2(7),3,5,12,14-pentaen-10-ium-10-olate|Erysotrine-N-oxide

>  <cas>  (140) 
nan

$$$$

     RDKit          2D

 21 22  0  0  0  0  0  0  0  0999 V2000
  -10.0643    0.5065    0.0000 C   0  0  0  0  0  0  0  0  0  0  0  0
   -8.6406    0.9788    0.0000 C   0  0  0  0  0  0  0  0  0  0  0  0
   -7.5197   -0.0180    0.0000 C   0  0  0  0  0  0  0  0  0  0  0  0
   -6.0960    0.4543    0.0000 C   0  0  0  0  0  0  0  0  0  0  0  0
   -4.9751   -0.5425    0.0000 C   0  0  0  0  0  0  0  0  0  0  0  0
   -3.5514   -0.0702    0.0000 C   0  0  0  0  0  0  0  0  0  0  0  0
   -2.4305   -1.0670    0.0000 C   0  0  0  0  0  0  0  0  0  0  0  0
   -1.0068   -0.5947    0.0000 C   0  0  0  0  0  0  0  0  0  0  0  0
    0.1141   -1.5915    0.0000 C   0  0  0  0  0  0  0  0  0  0  0  0
    1.5378   -1.1192    0.0000 C   0  0  0  0  0  0  0  0  0  0  0  0
    2.6587   -2.1160    0.0000 C   0  0  0  0  0  0  0  0  0  0  0  0
    4.0824   -1.6437    0.0000 C   0  0  0  0  0  0  0  0  0  0  0  0
    5.2032   -2.6405    0.0000 O   0  0  0  0  0  0  0  0  0  0  0  0
    4.3852   -0.1746    0.0000 C   0  0  0  0  0  0  0  0  0  0  0  0
    5.8089    0.2977    0.0000 C   0  0  0  0  0  0  0  0  0  0  0  0
    6.1117    1.7668    0.0000 C   0  0  0  0  0  0  0  0  0  0  0  0
    4.9908    2.7636    0.0000 C   0  0  0  0  0  0  0  0  0  0  0  0
    3.5671    2.2913    0.0000 C   0  0  0  0  0  0  0  0  0  0  0  0
    3.2643    0.8222    0.0000 C   0  0  0  0  0  0  0  0  0  0  0  0
    1.8406    0.3499    0.0000 N   0  0  0  0  0  0  0  0  0  0  0  0
    0.7197    1.3467    0.0000 C   0  0  0  0  0  0  0  0  0  0  0  0
  1  2  1  0
  2  3  1  0
  3  4  1  0
  4  5  1  0
  5  6  1  0
  6  7  1  0
  7  8  1  0
  8  9  1  0
  9 10  1  0
 10 11  2  0
 11 12  1  0
 12 13  2  0
 12 14  1  0
 14 15  2  0
 15 16  1  0
 16 17  2  0
 17 18  1  0
 18 19  2  0
 19 20  1  0
 20 21  1  0
 20 10  1  0
 19 14  1  0
M  END
>  <identifier>  (141) 
CNP0102531.0

>  <canonical_smiles>  (141) 
CCCCCCCCCC1=CC(=O)C2=CC=CC=C2N1C

>  <standard_inchi>  (141) 
InChI=1S/C19H27NO/c1-3-4-5-6-7-8-9-12-16-15-19(21)17-13-10-11-14-18(17)20(16)2/h10-11,13-15H,3-9,12H2,1-2H3

>  <standard_inchi_key>  (141) 
XIGBBPQAXHSVSN-UHFFFAOYSA-N

>  <name>  (141) 
1-Methyl-2-nonylquinolin-4(1H)-one

>  <iupac_name>  (141) 
1-methyl-2-nonyl-quinolin-4-one

>  <annotation_level>  (141) 
5

>  <total_atom_count>  (141) 
48

>  <heavy_atom_count>  (141) 
21

>  <molecular_weight>  (141) 
285.43

>  <exact_molecular_weight>  (141) 
285.20926

>  <molecular_formula>  (141) 
C19H27NO

>  <alogp>  (141) 
4.83

>  <topological_polar_surface_area>  (141) 
22.00

>  <rotatable_bond_count>  (141) 
8

>  <hydrogen_bond_acceptors>  (141) 
2

>  <hydrogen_bond_donors>  (141) 
0

>  <hydrogen_bond_acceptors_lipinski>  (141) 
2

>  <hydrogen_bond_donors_lipinski>  (141) 
0

>  <lipinski_rule_of_five_violations>  (141) 
0

>  <aromatic_rings_count>  (141) 
2

>  <qed_drug_likeliness>  (141) 
0.64

>  <formal_charge>  (141) 
0

>  <fractioncsp3>  (141) 
0.53

>  <number_of_minimal_rings>  (141) 
2

>  <van_der_walls_volume>  (141) 
294.46

>  <contains_sugar>  (141) 
False

>  <contains_ring_sugars>  (141) 
False

>  <contains_linear_sugars>  (141) 
False

>  <murcko_framework>  (141) 
c1ccc2c(c1)NC=CC2

>  <np_likeness>  (141) 
0.38

>  <chemical_class>  (141) 
Quinolines and derivatives

>  <chemical_sub_class>  (141) 
Quinolones and derivatives

>  <chemical_super_class>  (141) 
Organoheterocyclic compounds

>  <direct_parent_classification>  (141) 
Hydroquinolones

>  <np_classifier_pathway>  (141) 
Alkaloids

>  <np_classifier_superclass>  (141) 
Tryptophan alkaloids

>  <np_classifier_class>  (141) 
Quinoline alkaloids

>  <np_classifier_is_glycoside>  (141) 
False

>  <organisms>  (141) 
Boronia bowmanii|Boronia coerulescens|Boronia lanceolata|Boronia ramosa|Cyanothamnus coerulescens|Cyanothamnus ramosus|Euodia rutaecarpa|Evodia rutaecarpa|Haplophyllum tuberculatum|Raulinoa echinata|Ruta graveolens|Tetradium ruticarpum

>  <collections>  (141) 
Australian natural products|GNPS (Global Natural Products Social Molecular Networking)|Latin America dataset|Marine Natural Products|NPASS|NPEdia|NuBBEDB|Super Natural II|UNPD (Universal Natural Products Database)|WikiData Natural Products

>  <dois>  (141) 
10.1002/PTR.999|10.1002/ptr.999|10.1007/PL00010251|10.1007/S007060050230|10.1016/0021-9673(95)01220-6|10.1016/0031-9422(96)00304-4|10.1016/S0021-9673(96)00588-2|10.1016/S0031-9422(00)82500-5|10.1021/np50107a020|10.1055/S-1999-14028|10.1590/S0103-50532002000100010

>  <synonyms>  (141) 
1-METHYL-2-NONYLQUINOLIN-4-ONE|1-Methyl-2-nonyl-4(1H)-quinolinone; 1-Methyl-2-n-nonyl-4(1H) quinolone; 1-Methyl-2-nonyl-4(1H)-quinolone|1-Methyl-2-nonyl-quinolin-4-one|1-methyl-2-n-nonyl-4-quinolone|1-methyl-2-nonyl-1,4-dihydroquinolin-4-one|1-methyl-2-nonyl-4(1h)-quinolinone|4(1H)-Quinolinone, 1-methyl-2-nonyl-|68353-24-2|AKOS025288422|CHEBI:174025|DA-31699|DT3ECS6LN5|DTXSID90553439|E88695|FS-8763|NCGC00385599-01!1-methyl-2-nonylquinolin-4-one

>  <cas>  (141) 
68353-24-2

$$$$

     RDKit          2D

 17 18  0  0  0  0  0  0  0  0999 V2000
    4.6831   -1.0239    0.0000 C   0  0  0  0  0  0  0  0  0  0  0  0
    3.3479   -0.3403    0.0000 C   0  0  0  0  0  0  0  0  0  0  0  0
    2.0883   -1.1549    0.0000 C   0  0  0  0  0  0  0  0  0  0  0  0
    0.7531   -0.4714    0.0000 C   0  0  0  0  0  0  0  0  0  0  0  0
   -0.5064   -1.2859    0.0000 C   0  0  0  0  0  0  0  0  0  0  0  0
   -0.4308   -2.7840    0.0000 C   0  0  0  0  0  0  0  0  0  0  0  0
   -1.6903   -3.5986    0.0000 O   0  0  0  0  0  0  0  0  0  0  0  0
   -1.8416   -0.6024    0.0000 C   0  0  0  0  0  0  0  0  0  0  0  0
   -3.1012   -1.4170    0.0000 O   0  0  0  0  0  0  0  0  0  0  0  0
   -1.9173    0.8957    0.0000 C   0  0  0  0  0  0  0  0  0  0  0  0
   -2.5008    2.2775    0.0000 C   0  0  0  0  0  0  0  0  0  0  0  0
   -3.3795    0.5610    0.0000 O   0  0  0  0  0  0  0  0  0  0  0  0
   -0.6578    1.7102    0.0000 C   0  0  0  0  0  0  0  0  0  0  0  0
   -0.7334    3.2083    0.0000 O   0  0  0  0  0  0  0  0  0  0  0  0
    0.6775    1.0267    0.0000 C   0  0  0  0  0  0  0  0  0  0  0  0
    1.9370    1.8413    0.0000 C   0  0  0  0  0  0  0  0  0  0  0  0
    3.2722    1.1578    0.0000 O   0  0  0  0  0  0  0  0  0  0  0  0
  1  2  1  0
  2  3  2  0
  3  4  1  0
  4  5  2  0
  5  6  1  0
  6  7  2  0
  5  8  1  0
  8  9  2  0
  8 10  1  0
 10 11  1  1
 10 12  1  0
 10 13  1  0
 13 14  1  1
 13 15  1  0
 15 16  2  0
 16 17  1  0
 17  2  1  0
 15  4  1  0
M  END
>  <identifier>  (142) 
CNP0295389.1

>  <canonical_smiles>  (142) 
CC1=CC2=C(C=O)C(=O)[C@](C)(O)[C@@H](O)C2=CO1

>  <standard_inchi>  (142) 
InChI=1S/C12H12O5/c1-6-3-7-8(4-13)10(14)12(2,16)11(15)9(7)5-17-6/h3-5,11,15-16H,1-2H3/t11-,12-/m0/s1

>  <standard_inchi_key>  (142) 
QVMUHZHZYCDMAI-RYUDHWBXSA-N

>  <name>  (142) 
Austidiol

>  <iupac_name>  (142) 
(7~{R},8~{S})-7,8-dihydroxy-3,7-dimethyl-6-oxo-8~{H}-isochromene-5-carbaldehyde

>  <annotation_level>  (142) 
5

>  <total_atom_count>  (142) 
29

>  <heavy_atom_count>  (142) 
17

>  <molecular_weight>  (142) 
236.22

>  <exact_molecular_weight>  (142) 
236.06847

>  <molecular_formula>  (142) 
C12H12O5

>  <alogp>  (142) 
-0.01

>  <topological_polar_surface_area>  (142) 
83.83

>  <rotatable_bond_count>  (142) 
1

>  <hydrogen_bond_acceptors>  (142) 
5

>  <hydrogen_bond_donors>  (142) 
2

>  <hydrogen_bond_acceptors_lipinski>  (142) 
5

>  <hydrogen_bond_donors_lipinski>  (142) 
2

>  <lipinski_rule_of_five_violations>  (142) 
0

>  <aromatic_rings_count>  (142) 
0

>  <qed_drug_likeliness>  (142) 
0.49

>  <formal_charge>  (142) 
0

>  <fractioncsp3>  (142) 
0.33

>  <number_of_minimal_rings>  (142) 
2

>  <van_der_walls_volume>  (142) 
203.26

>  <contains_sugar>  (142) 
False

>  <contains_ring_sugars>  (142) 
False

>  <contains_linear_sugars>  (142) 
False

>  <murcko_framework>  (142) 
O1C=CC2=CCCCC2=C1

>  <np_likeness>  (142) 
3.21

>  <chemical_class>  (142) 
Azaphilones

>  <chemical_sub_class>  (142) 
Azaphilones

>  <chemical_super_class>  (142) 
Organoheterocyclic compounds

>  <direct_parent_classification>  (142) 
Azaphilones

>  <np_classifier_pathway>  (142) 
Polyketides

>  <np_classifier_superclass>  (142) 
Chromanes

>  <np_classifier_class>  (142) 
Azaphilones

>  <np_classifier_is_glycoside>  (142) 
False

>  <organisms>  (142) 
Aspergillus ustus|Muyocopron sahnii|Mycoleptodiscus indicus|Penicillium aurantiogriseum|Penicillium viridicatum

>  <collections>  (142) 
AnalytiCon Discovery NPs|GNPS (Global Natural Products Social Molecular Networking)|Latin America dataset|NCI DTP data|NPASS|NPAtlas|NPEdia|NuBBEDB|Super Natural II|WikiData Natural Products

>  <dois>  (142) 
10.1021/NP4006822|10.1021/np4006822|10.1039/C39830001436|10.1039/P19740000045|10.1039/P19830002745|10.1039/p19740000045

>  <synonyms>  (142) 
(7R,8S)-7,8-dihydroxy-3,7-dimethyl-6-oxo-8H-isochromene-5-carbaldehyde|(7R-E)-7,8-Dihydro-7,8-dihydroxy-3,7-dimethyl-6-oxo-6H-2-benzopyran-5-carboxaldehyde|3348BWJ4V7|5-18-04-00348 (Beilstein Handbook Reference)|53043-28-0|6H-2-Benzopyran-5-carboxaldehyde, 7,8-dihydro-7,8-dihydroxy-3,7-dimethyl-6-oxo-, (7R-trans)-|AKOS040734783|Austdiol|Austdiol, >=95% (LC\/MS-ELSD)|BRN 1383761|CHEBI:174211|CHEMBL1976714|DTXSID70201087|MFCD00133114|NCI60_001176|NS00097091|NSC159632|UNII-3348BWJ4V7

>  <cas>  (142) 
53043-28-0

$$$$

     RDKit          2D

 24 27  0  0  0  0  0  0  0  0999 V2000
    6.3702   -2.3377    0.0000 C   0  0  0  0  0  0  0  0  0  0  0  0
    6.2880   -0.8399    0.0000 O   0  0  0  0  0  0  0  0  0  0  0  0
    4.9499   -0.1622    0.0000 C   0  0  0  0  0  0  0  0  0  0  0  0
    3.6939   -0.9822    0.0000 C   0  0  0  0  0  0  0  0  0  0  0  0
    2.3557   -0.3045    0.0000 C   0  0  0  0  0  0  0  0  0  0  0  0
    2.2736    1.1932    0.0000 C   0  0  0  0  0  0  0  0  0  0  0  0
    3.5296    2.0133    0.0000 C   0  0  0  0  0  0  0  0  0  0  0  0
    4.8677    1.3355    0.0000 C   0  0  0  0  0  0  0  0  0  0  0  0
    6.1237    2.1556    0.0000 O   0  0  0  0  0  0  0  0  0  0  0  0
    0.8237    1.5779    0.0000 O   0  0  0  0  0  0  0  0  0  0  0  0
    0.0098    0.3179    0.0000 C   0  0  0  0  0  0  0  0  0  0  0  0
   -1.4879    0.2358    0.0000 C   0  0  0  0  0  0  0  0  0  0  0  0
   -2.1656   -1.1024    0.0000 C   0  0  0  0  0  0  0  0  0  0  0  0
   -3.6634   -1.1845    0.0000 C   0  0  0  0  0  0  0  0  0  0  0  0
   -4.3411   -2.5227    0.0000 O   0  0  0  0  0  0  0  0  0  0  0  0
   -3.5211   -3.7787    0.0000 C   0  0  0  0  0  0  0  0  0  0  0  0
   -4.4834    0.0715    0.0000 C   0  0  0  0  0  0  0  0  0  0  0  0
   -5.9655    0.3025    0.0000 O   0  0  0  0  0  0  0  0  0  0  0  0
   -6.2038    1.7835    0.0000 C   0  0  0  0  0  0  0  0  0  0  0  0
   -4.8689    2.4677    0.0000 O   0  0  0  0  0  0  0  0  0  0  0  0
   -3.8057    1.4096    0.0000 C   0  0  0  0  0  0  0  0  0  0  0  0
   -2.3079    1.4918    0.0000 C   0  0  0  0  0  0  0  0  0  0  0  0
    0.9566   -0.8455    0.0000 C   0  0  0  0  0  0  0  0  0  0  0  0
    0.5720   -2.2953    0.0000 C   0  0  0  0  0  0  0  0  0  0  0  0
  1  2  1  0
  2  3  1  0
  3  4  2  0
  4  5  1  0
  5  6  2  0
  6  7  1  0
  7  8  2  0
  8  9  1  0
  6 10  1  0
 10 11  1  0
 11 12  1  1
 12 13  2  0
 13 14  1  0
 14 15  1  0
 15 16  1  0
 14 17  2  0
 17 18  1  0
 18 19  1  0
 19 20  1  0
 20 21  1  0
 21 22  2  0
 11 23  1  0
 23 24  1  6
  8  3  1  0
 22 12  1  0
 23  5  1  0
 21 17  1  0
M  END
>  <identifier>  (143) 
CNP0080614.1

>  <canonical_smiles>  (143) 
COC1=CC2=C(C=C1O)O[C@H](C1=CC(OC)=C3OCOC3=C1)[C@H]2C

>  <standard_inchi>  (143) 
InChI=1S/C18H18O6/c1-9-11-6-14(20-2)12(19)7-13(11)24-17(9)10-4-15(21-3)18-16(5-10)22-8-23-18/h4-7,9,17,19H,8H2,1-3H3/t9-,17-/m0/s1

>  <standard_inchi_key>  (143) 
JIBMYYMYQBDTSV-XYZCENFISA-N

>  <name>  (143) 
nan

>  <iupac_name>  (143) 
(2~{S},3~{S})-5-methoxy-2-(7-methoxy-1,3-benzodioxol-5-yl)-3-methyl-2,3-dihydrobenzofuran-6-ol

>  <annotation_level>  (143) 
4

>  <total_atom_count>  (143) 
42

>  <heavy_atom_count>  (143) 
24

>  <molecular_weight>  (143) 
330.34

>  <exact_molecular_weight>  (143) 
330.11034

>  <molecular_formula>  (143) 
C18H18O6

>  <alogp>  (143) 
3.38

>  <topological_polar_surface_area>  (143) 
66.38

>  <rotatable_bond_count>  (143) 
3

>  <hydrogen_bond_acceptors>  (143) 
6

>  <hydrogen_bond_donors>  (143) 
1

>  <hydrogen_bond_acceptors_lipinski>  (143) 
6

>  <hydrogen_bond_donors_lipinski>  (143) 
1

>  <lipinski_rule_of_five_violations>  (143) 
0

>  <aromatic_rings_count>  (143) 
2

>  <qed_drug_likeliness>  (143) 
0.93

>  <formal_charge>  (143) 
0

>  <fractioncsp3>  (143) 
0.33

>  <number_of_minimal_rings>  (143) 
4

>  <van_der_walls_volume>  (143) 
nan

>  <contains_sugar>  (143) 
False

>  <contains_ring_sugars>  (143) 
False

>  <contains_linear_sugars>  (143) 
False

>  <murcko_framework>  (143) 
O1c2ccc(cc2OC1)C3Oc4ccccc4C3

>  <np_likeness>  (143) 
1.77

>  <chemical_class>  (143) 
2-arylbenzofuran flavonoids

>  <chemical_sub_class>  (143) 
2-arylbenzofuran flavonoids

>  <chemical_super_class>  (143) 
Phenylpropanoids and polyketides

>  <direct_parent_classification>  (143) 
2-arylbenzofuran flavonoids

>  <np_classifier_pathway>  (143) 
Shikimates and Phenylpropanoids

>  <np_classifier_superclass>  (143) 
Lignans

>  <np_classifier_class>  (143) 
Minor lignans

>  <np_classifier_is_glycoside>  (143) 
False

>  <organisms>  (143) 
Aniba|Aniba sp.

>  <collections>  (143) 
Latin America dataset|NuBBEDB|WikiData Natural Products|ZINC NP

>  <dois>  (143) 
10.1016/0031-9422(75)85358-1

>  <synonyms>  (143) 
(2S3S)-6-hydroxy-5-methoxy-2-(3-methoxy-45-methylenedioxyphenyl)-3-methyl-23-dihydrobenzofuran

>  <cas>  (143) 
nan

$$$$

     RDKit          2D

 24 26  0  0  0  0  0  0  0  0999 V2000
   -4.1893   -2.6483    0.0000 C   0  0  0  0  0  0  0  0  0  0  0  0
   -4.2093   -1.1484    0.0000 O   0  0  0  0  0  0  0  0  0  0  0  0
   -2.9204   -0.3811    0.0000 C   0  0  0  0  0  0  0  0  0  0  0  0
   -2.9404    1.1188    0.0000 C   0  0  0  0  0  0  0  0  0  0  0  0
   -4.2493    1.8513    0.0000 C   0  0  0  0  0  0  0  0  0  0  0  0
   -4.2694    3.3512    0.0000 C   0  0  0  0  0  0  0  0  0  0  0  0
   -5.5382    1.0841    0.0000 C   0  0  0  0  0  0  0  0  0  0  0  0
   -1.6515    1.8860    0.0000 C   0  0  0  0  0  0  0  0  0  0  0  0
   -0.3426    1.1534    0.0000 C   0  0  0  0  0  0  0  0  0  0  0  0
    0.8176    2.1043    0.0000 C   0  0  0  0  0  0  0  0  0  0  0  0
    2.2843    1.7900    0.0000 C   0  0  0  0  0  0  0  0  0  0  0  0
    2.9531    0.4474    0.0000 C   0  0  0  0  0  0  0  0  0  0  0  0
    2.3204   -0.9126    0.0000 C   0  0  0  0  0  0  0  0  0  0  0  0
    3.1819   -2.1406    0.0000 C   0  0  0  0  0  0  0  0  0  0  0  0
    4.6760   -2.0085    0.0000 C   0  0  0  0  0  0  0  0  0  0  0  0
    5.3088   -0.6485    0.0000 C   0  0  0  0  0  0  0  0  0  0  0  0
    4.4473    0.5794    0.0000 C   0  0  0  0  0  0  0  0  0  0  0  0
    4.0578    2.0280    0.0000 C   0  0  0  0  0  0  0  0  0  0  0  0
    5.8062    1.2146    0.0000 C   0  0  0  0  0  0  0  0  0  0  0  0
    0.8626   -1.2659    0.0000 C   0  0  0  0  0  0  0  0  0  0  0  0
   -0.3225   -0.3464    0.0000 C   0  0  0  0  0  0  0  0  0  0  0  0
   -1.6114   -1.1137    0.0000 C   0  0  0  0  0  0  0  0  0  0  0  0
   -1.5914   -2.6136    0.0000 O   0  0  0  0  0  0  0  0  0  0  0  0
   -2.8803   -3.3808    0.0000 C   0  0  0  0  0  0  0  0  0  0  0  0
  1  2  1  0
  2  3  1  0
  3  4  2  0
  4  5  1  0
  5  6  1  0
  5  7  1  0
  4  8  1  0
  8  9  2  0
  9 10  1  0
 10 11  1  0
 12 11  1  1
 12 13  1  0
 13 14  2  0
 14 15  1  0
 15 16  1  0
 16 17  1  0
 17 18  1  0
 17 19  1  0
 13 20  1  0
 20 21  1  0
 21 22  2  0
 22 23  1  0
 23 24  1  0
 22  3  1  0
 21  9  1  0
 17 12  1  0
M  END
>  <identifier>  (144) 
CNP0342380.1

>  <canonical_smiles>  (144) 
COC1=C(C(C)C)C=C2CC[C@@H]3C(=CCCC3(C)C)CC2=C1OC

>  <standard_inchi>  (144) 
InChI=1S/C22H32O2/c1-14(2)17-12-15-9-10-19-16(8-7-11-22(19,3)4)13-18(15)21(24-6)20(17)23-5/h8,12,14,19H,7,9-11,13H2,1-6H3/t19-/m1/s1

>  <standard_inchi_key>  (144) 
QXHAKXGZUGCVJD-LJQANCHMSA-N

>  <name>  (144) 
nan

>  <iupac_name>  (144) 
(11~{S})-6-isopropyl-4,5-dimethoxy-12,12-dimethyl-tricyclo[9.4.0.0^{3,8}]pentadeca-1(15),3,5,7-tetraene

>  <annotation_level>  (144) 
4

>  <total_atom_count>  (144) 
56

>  <heavy_atom_count>  (144) 
24

>  <molecular_weight>  (144) 
328.5

>  <exact_molecular_weight>  (144) 
328.24023

>  <molecular_formula>  (144) 
C22H32O2

>  <alogp>  (144) 
5.68

>  <topological_polar_surface_area>  (144) 
18.46

>  <rotatable_bond_count>  (144) 
3

>  <hydrogen_bond_acceptors>  (144) 
2

>  <hydrogen_bond_donors>  (144) 
0

>  <hydrogen_bond_acceptors_lipinski>  (144) 
2

>  <hydrogen_bond_donors_lipinski>  (144) 
0

>  <lipinski_rule_of_five_violations>  (144) 
1

>  <aromatic_rings_count>  (144) 
1

>  <qed_drug_likeliness>  (144) 
0.66

>  <formal_charge>  (144) 
0

>  <fractioncsp3>  (144) 
0.64

>  <number_of_minimal_rings>  (144) 
3

>  <van_der_walls_volume>  (144) 
nan

>  <contains_sugar>  (144) 
False

>  <contains_ring_sugars>  (144) 
False

>  <contains_linear_sugars>  (144) 
False

>  <murcko_framework>  (144) 
c1ccc2c(c1)CC3=CCCCC3CC2

>  <np_likeness>  (144) 
1.88

>  <chemical_class>  (144) 
Prenol lipids

>  <chemical_sub_class>  (144) 
Diterpenoids

>  <chemical_super_class>  (144) 
Lipids and lipid-like molecules

>  <direct_parent_classification>  (144) 
Diterpenoids

>  <np_classifier_pathway>  (144) 
Terpenoids

>  <np_classifier_superclass>  (144) 
Diterpenoids

>  <np_classifier_class>  (144) 
Icetexane diterpenoids

>  <np_classifier_is_glycoside>  (144) 
False

>  <organisms>  (144) 
Coleus barbatus|Plectranthus barbatus

>  <collections>  (144) 
Latin America dataset|NuBBEDB|WikiData Natural Products|ZINC NP

>  <dois>  (144) 
10.1016/S0040-4020(01)88671-3

>  <synonyms>  (144) 
67-Di-O-methylbarbatusol

>  <cas>  (144) 
nan

$$$$

     RDKit          2D

 37 42  0  0  0  0  0  0  0  0999 V2000
   -2.4559    6.0883    0.0000 C   0  0  0  0  0  0  0  0  0  0  0  0
   -3.0319    4.7033    0.0000 O   0  0  0  0  0  0  0  0  0  0  0  0
   -2.1204    3.5120    0.0000 C   0  0  0  0  0  0  0  0  0  0  0  0
   -0.6330    3.7057    0.0000 O   0  0  0  0  0  0  0  0  0  0  0  0
   -2.6964    2.1270    0.0000 C   0  0  0  0  0  0  0  0  0  0  0  0
   -1.7849    0.9357    0.0000 C   0  0  0  0  0  0  0  0  0  0  0  0
   -2.3609   -0.4493    0.0000 C   0  0  0  0  0  0  0  0  0  0  0  0
   -3.3919    0.6402    0.0000 C   0  0  0  0  0  0  0  0  0  0  0  0
   -3.4644    1.8530    0.0000 O   0  0  0  0  0  0  0  0  0  0  0  0
   -4.7467   -0.0037    0.0000 O   0  0  0  0  0  0  0  0  0  0  0  0
   -4.5530   -1.4911    0.0000 C   0  0  0  0  0  0  0  0  0  0  0  0
   -6.0525   -1.5283    0.0000 C   0  0  0  0  0  0  0  0  0  0  0  0
   -4.6728   -2.9863    0.0000 C   0  0  0  0  0  0  0  0  0  0  0  0
   -3.0785   -1.7665    0.0000 C   0  0  0  0  0  0  0  0  0  0  0  0
   -2.2966   -3.0466    0.0000 C   0  0  0  0  0  0  0  0  0  0  0  0
   -0.7970   -3.0094    0.0000 C   0  0  0  0  0  0  0  0  0  0  0  0
   -0.0151   -4.2895    0.0000 O   0  0  0  0  0  0  0  0  0  0  0  0
   -0.0794   -1.6922    0.0000 C   0  0  0  0  0  0  0  0  0  0  0  0
   -1.5790   -1.7294    0.0000 C   0  0  0  0  0  0  0  0  0  0  0  0
   -0.8614   -0.4122    0.0000 C   0  0  0  0  0  0  0  0  0  0  0  0
   -0.1438    0.9051    0.0000 C   0  0  0  0  0  0  0  0  0  0  0  0
   -0.9257    2.1851    0.0000 O   0  0  0  0  0  0  0  0  0  0  0  0
    1.3558    0.9422    0.0000 C   0  0  0  0  0  0  0  0  0  0  0  0
    2.1377   -0.3378    0.0000 C   0  0  0  0  0  0  0  0  0  0  0  0
    2.8553    0.9794    0.0000 C   0  0  0  0  0  0  0  0  0  0  0  0
    3.6372   -0.3007    0.0000 C   0  0  0  0  0  0  0  0  0  0  0  0
    4.3548    1.0165    0.0000 C   0  0  0  0  0  0  0  0  0  0  0  0
    3.7110    2.3713    0.0000 C   0  0  0  0  0  0  0  0  0  0  0  0
    4.8005    3.4023    0.0000 O   0  0  0  0  0  0  0  0  0  0  0  0
    6.1177    2.6847    0.0000 C   0  0  0  0  0  0  0  0  0  0  0  0
    5.8423    1.2102    0.0000 C   0  0  0  0  0  0  0  0  0  0  0  0
    4.4192   -1.5808    0.0000 O   0  0  0  0  0  0  0  0  0  0  0  0
    3.7016   -2.8980    0.0000 C   0  0  0  0  0  0  0  0  0  0  0  0
    4.4835   -4.1780    0.0000 O   0  0  0  0  0  0  0  0  0  0  0  0
    2.2021   -2.9351    0.0000 C   0  0  0  0  0  0  0  0  0  0  0  0
    0.7025   -2.9723    0.0000 O   0  0  0  0  0  0  0  0  0  0  0  0
    1.4201   -1.6551    0.0000 C   0  0  0  0  0  0  0  0  0  0  0  0
  1  2  1  0
  2  3  1  0
  3  4  2  0
  3  5  1  0
  5  6  2  3
  7  6  1  1
  7  8  1  0
  8  9  2  0
  8 10  1  0
 10 11  1  0
 11 12  1  0
 11 13  1  0
 11 14  1  0
 14 15  1  0
 15 16  1  0
 16 17  2  0
 16 18  1  0
 18 19  1  1
 18 20  1  0
 20 21  1  0
 21 22  1  6
 21 23  1  0
 23 24  1  0
 24 25  1  6
 24 26  1  0
 26 27  1  6
 27 28  2  0
 28 29  1  0
 29 30  1  0
 30 31  2  0
 26 32  1  0
 32 33  1  0
 33 34  2  0
 33 35  1  0
 35 36  1  1
 37 36  1  1
 14  7  1  0
 37 18  1  0
 20  7  1  0
 37 24  1  0
 31 27  1  0
 37 35  1  0
M  END
>  <identifier>  (145) 
CNP0358592.1

>  <canonical_smiles>  (145) 
COC(=O)C=C[C@]12C(=O)OC(C)(C)C1CC(=O)[C@]1(C)C2[C@H](O)C[C@@]2(C)[C@H](C3=COC=C3)OC(=O)[C@H]3O[C@]321

>  <standard_inchi>  (145) 
InChI=1S/C27H30O10/c1-23(2)15-10-16(29)25(4)18(26(15,22(32)37-23)8-6-17(30)33-5)14(28)11-24(3)19(13-7-9-34-12-13)35-21(31)20-27(24,25)36-20/h6-9,12,14-15,18-20,28H,10-11H2,1-5H3/t14-,15?,18?,19+,20-,24+,25-,26+,27-/m1/s1

>  <standard_inchi_key>  (145) 
KDBSGDOGSZCQHJ-AQJFGNAISA-N

>  <name>  (145) 
nan

>  <iupac_name>  (145) 
methyl 3-[(1~{R},2~{R},4~{S},7~{S},8~{S},10~{R},12~{R})-7-(3-furyl)-10-hydroxy-1,8,15,15-tetramethyl-5,13,18-trioxo-3,6,14-trioxapentacyclo[9.7.0.0^{2,4}.0^{2,8}.0^{12,16}]octadecan-12-yl]prop-2-enoate

>  <annotation_level>  (145) 
3

>  <total_atom_count>  (145) 
67

>  <heavy_atom_count>  (145) 
37

>  <molecular_weight>  (145) 
514.53

>  <exact_molecular_weight>  (145) 
514.1839

>  <molecular_formula>  (145) 
C27H30O10

>  <alogp>  (145) 
2.05

>  <topological_polar_surface_area>  (145) 
141.87

>  <rotatable_bond_count>  (145) 
3

>  <hydrogen_bond_acceptors>  (145) 
10

>  <hydrogen_bond_donors>  (145) 
1

>  <hydrogen_bond_acceptors_lipinski>  (145) 
10

>  <hydrogen_bond_donors_lipinski>  (145) 
1

>  <lipinski_rule_of_five_violations>  (145) 
1

>  <aromatic_rings_count>  (145) 
1

>  <qed_drug_likeliness>  (145) 
0.28

>  <formal_charge>  (145) 
0

>  <fractioncsp3>  (145) 
0.63

>  <number_of_minimal_rings>  (145) 
6

>  <van_der_walls_volume>  (145) 
nan

>  <contains_sugar>  (145) 
False

>  <contains_ring_sugars>  (145) 
False

>  <contains_linear_sugars>  (145) 
False

>  <murcko_framework>  (145) 
o1ccc(c1)C2OCC3OC34C2CCC5C6COCC6CCC54

>  <np_likeness>  (145) 
2.77

>  <chemical_class>  (145) 
Steroids and steroid derivatives

>  <chemical_sub_class>  (145) 
Steroid lactones

>  <chemical_super_class>  (145) 
Lipids and lipid-like molecules

>  <direct_parent_classification>  (145) 
Steroid lactones

>  <np_classifier_pathway>  (145) 
Terpenoids

>  <np_classifier_superclass>  (145) 
Triterpenoids

>  <np_classifier_class>  (145) 
Limonoids

>  <np_classifier_is_glycoside>  (145) 
False

>  <organisms>  (145) 
Spiranthera odoratissima St. odoratissima

>  <collections>  (145) 
Latin America dataset|NuBBEDB

>  <dois>  (145) 
10.1590/S0103-50532005000800007

>  <synonyms>  (145) 
nan

>  <cas>  (145) 
nan

$$$$

     RDKit          2D

 26 31  0  0  0  0  0  0  0  0999 V2000
   -3.5976    1.3936    0.0000 C   0  0  0  0  0  0  0  0  0  0  0  0
   -5.0361    1.8185    0.0000 C   0  0  0  0  0  0  0  0  0  0  0  0
   -6.1234    0.7852    0.0000 C   0  0  0  0  0  0  0  0  0  0  0  0
   -5.7721   -0.6731    0.0000 C   0  0  0  0  0  0  0  0  0  0  0  0
   -4.3336   -1.0981    0.0000 C   0  0  0  0  0  0  0  0  0  0  0  0
   -3.2463   -0.0647    0.0000 C   0  0  0  0  0  0  0  0  0  0  0  0
   -1.8078   -0.4897    0.0000 C   0  0  0  0  0  0  0  0  0  0  0  0
   -1.3060   -1.9033    0.0000 O   0  0  0  0  0  0  0  0  0  0  0  0
    0.1935   -1.8629    0.0000 C   0  0  0  0  0  0  0  0  0  0  0  0
    0.6184   -0.4243    0.0000 C   0  0  0  0  0  0  0  0  0  0  0  0
   -0.6184    0.4243    0.0000 C   0  0  0  0  0  0  0  0  0  0  0  0
   -0.1935    1.8629    0.0000 C   0  0  0  0  0  0  0  0  0  0  0  0
    1.3060    1.9033    0.0000 O   0  0  0  0  0  0  0  0  0  0  0  0
    1.8078    0.4897    0.0000 C   0  0  0  0  0  0  0  0  0  0  0  0
    3.2463    0.0647    0.0000 C   0  0  0  0  0  0  0  0  0  0  0  0
    3.5976   -1.3936    0.0000 C   0  0  0  0  0  0  0  0  0  0  0  0
    5.0361   -1.8185    0.0000 C   0  0  0  0  0  0  0  0  0  0  0  0
    6.1234   -0.7852    0.0000 C   0  0  0  0  0  0  0  0  0  0  0  0
    7.6189   -0.9017    0.0000 O   0  0  0  0  0  0  0  0  0  0  0  0
    8.1919    0.4845    0.0000 C   0  0  0  0  0  0  0  0  0  0  0  0
    7.0505    1.4578    0.0000 O   0  0  0  0  0  0  0  0  0  0  0  0
    5.7721    0.6731    0.0000 C   0  0  0  0  0  0  0  0  0  0  0  0
    4.3336    1.0981    0.0000 C   0  0  0  0  0  0  0  0  0  0  0  0
   -7.0505   -1.4578    0.0000 O   0  0  0  0  0  0  0  0  0  0  0  0
   -8.1919   -0.4845    0.0000 C   0  0  0  0  0  0  0  0  0  0  0  0
   -7.6189    0.9017    0.0000 O   0  0  0  0  0  0  0  0  0  0  0  0
  1  2  2  0
  2  3  1  0
  3  4  2  0
  4  5  1  0
  5  6  2  0
  7  6  1  1
  7  8  1  0
  8  9  1  0
 10  9  1  1
 10 11  1  0
 11 12  1  1
 12 13  1  0
 13 14  1  0
 14 15  1  1
 15 16  2  0
 16 17  1  0
 17 18  2  0
 18 19  1  0
 19 20  1  0
 20 21  1  0
 21 22  1  0
 22 23  2  0
  4 24  1  0
 24 25  1  0
 25 26  1  0
  6  1  1  0
 11  7  1  0
 23 15  1  0
 26  3  1  0
 14 10  1  0
 22 18  1  0
M  END
>  <identifier>  (146) 
CNP0123354.12

>  <canonical_smiles>  (146) 
C1=CC2=C(C=C1[C@@H]1OC[C@H]3[C@@H]1CO[C@H]3C1=CC=C3OCOC3=C1)OCO2

>  <standard_inchi>  (146) 
InChI=1S/C20H18O6/c1-3-15-17(25-9-23-15)5-11(1)19-13-7-22-20(14(13)8-21-19)12-2-4-16-18(6-12)26-10-24-16/h1-6,13-14,19-20H,7-10H2/t13-,14-,19-,20-/m0/s1

>  <standard_inchi_key>  (146) 
PEYUIKBAABKQKQ-FEBSWUBLSA-N

>  <name>  (146) 
Epiasarinin

>  <iupac_name>  (146) 
5-[(3~{R},3~{a}~{R},6~{R},6~{a}~{R})-6-(1,3-benzodioxol-5-yl)-1,3,3~{a},4,6,6~{a}-hexahydrofuro[3,4-c]furan-3-yl]-1,3-benzodioxole

>  <annotation_level>  (146) 
5

>  <total_atom_count>  (146) 
44

>  <heavy_atom_count>  (146) 
26

>  <molecular_weight>  (146) 
354.36

>  <exact_molecular_weight>  (146) 
354.11034

>  <molecular_formula>  (146) 
C20H18O6

>  <alogp>  (146) 
3.22

>  <topological_polar_surface_area>  (146) 
55.38

>  <rotatable_bond_count>  (146) 
2

>  <hydrogen_bond_acceptors>  (146) 
6

>  <hydrogen_bond_donors>  (146) 
0

>  <hydrogen_bond_acceptors_lipinski>  (146) 
6

>  <hydrogen_bond_donors_lipinski>  (146) 
0

>  <lipinski_rule_of_five_violations>  (146) 
0

>  <aromatic_rings_count>  (146) 
2

>  <qed_drug_likeliness>  (146) 
0.83

>  <formal_charge>  (146) 
0

>  <fractioncsp3>  (146) 
0.40

>  <number_of_minimal_rings>  (146) 
6

>  <van_der_walls_volume>  (146) 
nan

>  <contains_sugar>  (146) 
False

>  <contains_ring_sugars>  (146) 
False

>  <contains_linear_sugars>  (146) 
False

>  <murcko_framework>  (146) 
O1c2ccc(cc2OC1)C3OCC4C(OCC34)c5ccc6OCOc6c5

>  <np_likeness>  (146) 
0.75

>  <chemical_class>  (146) 
Furanoid lignans

>  <chemical_sub_class>  (146) 
Furan lignans

>  <chemical_super_class>  (146) 
Lignans, neolignans and related compounds

>  <direct_parent_classification>  (146) 
Furan lignans

>  <np_classifier_pathway>  (146) 
Shikimates and Phenylpropanoids

>  <np_classifier_superclass>  (146) 
Lignans

>  <np_classifier_class>  (146) 
Furofuranoid lignans

>  <np_classifier_is_glycoside>  (146) 
False

>  <organisms>  (146) 
Magnolia coco|Raulinoa echinata|Zanthoxylum ciliatum

>  <collections>  (146) 
Latin America dataset|NuBBEDB|Super Natural II|WikiData Natural Products

>  <dois>  (146) 
10.1002/1099-1565(200101/02)12:1<64::AID-PCA562>3.0.CO,2-3|10.1016/0031-9422(80)80197-X|10.1021/NP970571D

>  <synonyms>  (146) 
2-endo,6-endo-bis(3',4'-methylenedioxyphenyl) -3,7-dioxa- bicyclo(3.3.0)octane|5-[(3R,3aR,6R,6aR)-3-(1,3-benzodioxol-5-yl)-1,3,3a,4,6,6a-hexahydrofuro[3,4-c]furan-6-yl]-1,3-benzodioxole|sesamin

>  <cas>  (146) 
nan

$$$$

     RDKit          2D

 21 23  0  0  0  0  0  0  0  0999 V2000
   -3.7145    2.0079    0.0000 C   0  0  0  0  0  0  0  0  0  0  0  0
   -3.9588    0.5279    0.0000 O   0  0  0  0  0  0  0  0  0  0  0  0
   -2.7992   -0.4236    0.0000 C   0  0  0  0  0  0  0  0  0  0  0  0
   -3.0435   -1.9036    0.0000 C   0  0  0  0  0  0  0  0  0  0  0  0
   -4.4474   -2.4320    0.0000 O   0  0  0  0  0  0  0  0  0  0  0  0
   -1.8840   -2.8551    0.0000 C   0  0  0  0  0  0  0  0  0  0  0  0
   -0.4801   -2.3267    0.0000 C   0  0  0  0  0  0  0  0  0  0  0  0
   -0.2358   -0.8468    0.0000 C   0  0  0  0  0  0  0  0  0  0  0  0
   -1.3954    0.1048    0.0000 C   0  0  0  0  0  0  0  0  0  0  0  0
   -1.1511    1.5848    0.0000 N   0  0  0  0  0  0  0  0  0  0  0  0
   -2.3106    2.5363    0.0000 C   0  0  0  0  0  0  0  0  0  0  0  0
    0.2528    2.1132    0.0000 C   0  0  0  0  0  0  0  0  0  0  0  0
    0.4971    3.5932    0.0000 O   0  0  0  0  0  0  0  0  0  0  0  0
    1.4123    1.1616    0.0000 C   0  0  0  0  0  0  0  0  0  0  0  0
    1.1680   -0.3183    0.0000 C   0  0  0  0  0  0  0  0  0  0  0  0
    2.3276   -1.2699    0.0000 O   0  0  0  0  0  0  0  0  0  0  0  0
    3.7314   -0.7415    0.0000 C   0  0  0  0  0  0  0  0  0  0  0  0
    5.2313   -0.7251    0.0000 C   0  0  0  0  0  0  0  0  0  0  0  0
    4.0080   -2.2158    0.0000 C   0  0  0  0  0  0  0  0  0  0  0  0
    3.9757    0.7385    0.0000 C   0  0  0  0  0  0  0  0  0  0  0  0
    2.8162    1.6901    0.0000 C   0  0  0  0  0  0  0  0  0  0  0  0
  1  2  1  0
  2  3  1  0
  3  4  2  0
  4  5  1  0
  4  6  1  0
  6  7  2  0
  7  8  1  0
  8  9  2  0
  9 10  1  0
 10 11  1  0
 10 12  1  0
 12 13  2  0
 12 14  1  0
 14 15  2  0
 15 16  1  0
 16 17  1  0
 17 18  1  0
 17 19  1  0
 17 20  1  0
 20 21  2  0
  9  3  1  0
 21 14  1  0
 15  8  1  0
M  END
>  <identifier>  (147) 
CNP0328786.0

>  <canonical_smiles>  (147) 
COC1=C(O)C=CC2=C1N(C)C(=O)C1=C2OC(C)(C)C=C1

>  <standard_inchi>  (147) 
InChI=1S/C16H17NO4/c1-16(2)8-7-10-13(21-16)9-5-6-11(18)14(20-4)12(9)17(3)15(10)19/h5-8,18H,1-4H3

>  <standard_inchi_key>  (147) 
DJTWUVOZSVQLMB-UHFFFAOYSA-N

>  <name>  (147) 
nan

>  <iupac_name>  (147) 
8-hydroxy-7-methoxy-2,2,6-trimethyl-pyrano[3,2-c]quinolin-5-one

>  <annotation_level>  (147) 
4

>  <total_atom_count>  (147) 
38

>  <heavy_atom_count>  (147) 
21

>  <molecular_weight>  (147) 
287.31

>  <exact_molecular_weight>  (147) 
287.11576

>  <molecular_formula>  (147) 
C16H17NO4

>  <alogp>  (147) 
2.44

>  <topological_polar_surface_area>  (147) 
60.69

>  <rotatable_bond_count>  (147) 
1

>  <hydrogen_bond_acceptors>  (147) 
5

>  <hydrogen_bond_donors>  (147) 
1

>  <hydrogen_bond_acceptors_lipinski>  (147) 
5

>  <hydrogen_bond_donors_lipinski>  (147) 
1

>  <lipinski_rule_of_five_violations>  (147) 
0

>  <aromatic_rings_count>  (147) 
2

>  <qed_drug_likeliness>  (147) 
0.87

>  <formal_charge>  (147) 
0

>  <fractioncsp3>  (147) 
0.31

>  <number_of_minimal_rings>  (147) 
3

>  <van_der_walls_volume>  (147) 
nan

>  <contains_sugar>  (147) 
False

>  <contains_ring_sugars>  (147) 
False

>  <contains_linear_sugars>  (147) 
False

>  <murcko_framework>  (147) 
O1C=2c3ccccc3NCC2C=CC1

>  <np_likeness>  (147) 
2.37

>  <chemical_class>  (147) 
Quinolines and derivatives

>  <chemical_sub_class>  (147) 
Quinolones and derivatives

>  <chemical_super_class>  (147) 
Organoheterocyclic compounds

>  <direct_parent_classification>  (147) 
Pyranoquinolines

>  <np_classifier_pathway>  (147) 
Alkaloids

>  <np_classifier_superclass>  (147) 
Tryptophan alkaloids

>  <np_classifier_class>  (147) 
Quinoline alkaloids

>  <np_classifier_is_glycoside>  (147) 
False

>  <organisms>  (147) 
Rauia resinosa

>  <collections>  (147) 
Latin America dataset|NuBBEDB|WikiData Natural Products

>  <dois>  (147) 
10.1590/S0100-40422010001000024

>  <synonyms>  (147) 
7-hydroxy-8-methoxy-N-methylflindersine

>  <cas>  (147) 
nan

$$$$

     RDKit          2D

 27 29  0  0  0  0  0  0  0  0999 V2000
   -2.6437    2.1319    0.0000 C   0  0  0  0  0  0  0  0  0  0  0  0
   -1.1774    2.4477    0.0000 C   0  0  0  0  0  0  0  0  0  0  0  0
   -0.5709    3.8196    0.0000 C   0  0  0  0  0  0  0  0  0  0  0  0
   -1.3243    5.1167    0.0000 O   0  0  0  0  0  0  0  0  0  0  0  0
    0.9213    3.6668    0.0000 O   0  0  0  0  0  0  0  0  0  0  0  0
    1.2371    2.2004    0.0000 C   0  0  0  0  0  0  0  0  0  0  0  0
    2.7150    1.9438    0.0000 C   0  0  0  0  0  0  0  0  0  0  0  0
    3.6822    0.7973    0.0000 C   0  0  0  0  0  0  0  0  0  0  0  0
    5.0904    1.3141    0.0000 C   0  0  0  0  0  0  0  0  0  0  0  0
    6.2420    0.3529    0.0000 O   0  0  0  0  0  0  0  0  0  0  0  0
    3.3472   -0.8996    0.0000 C   0  0  0  0  0  0  0  0  0  0  0  0
    3.6629   -2.3660    0.0000 C   0  0  0  0  0  0  0  0  0  0  0  0
    2.3659   -3.1194    0.0000 C   0  0  0  0  0  0  0  0  0  0  0  0
    2.2130   -4.6116    0.0000 O   0  0  0  0  0  0  0  0  0  0  0  0
    1.2485   -2.1187    0.0000 C   0  0  0  0  0  0  0  0  0  0  0  0
   -0.2179   -2.4344    0.0000 C   0  0  0  0  0  0  0  0  0  0  0  0
   -0.0525   -1.3721    0.0000 C   0  0  0  0  0  0  0  0  0  0  0  0
   -0.5693    0.0360    0.0000 C   0  0  0  0  0  0  0  0  0  0  0  0
   -2.0693    0.0321    0.0000 O   0  0  0  0  0  0  0  0  0  0  0  0
   -2.8158   -1.2689    0.0000 C   0  0  0  0  0  0  0  0  0  0  0  0
   -2.0624   -2.5660    0.0000 O   0  0  0  0  0  0  0  0  0  0  0  0
   -4.3158   -1.2729    0.0000 C   0  0  0  0  0  0  0  0  0  0  0  0
   -5.0624   -2.5739    0.0000 C   0  0  0  0  0  0  0  0  0  0  0  0
   -5.0693    0.0241    0.0000 C   0  0  0  0  0  0  0  0  0  0  0  0
   -6.5693    0.0202    0.0000 C   0  0  0  0  0  0  0  0  0  0  0  0
   -0.0600    1.4469    0.0000 C   0  0  0  0  0  0  0  0  0  0  0  0
    1.8550   -0.7468    0.0000 O   0  0  0  0  0  0  0  0  0  0  0  0
  1  2  2  0
  2  3  1  0
  3  4  2  0
  3  5  1  0
  6  5  1  6
  6  7  1  0
  7  8  2  0
  8  9  1  0
  9 10  1  0
  8 11  1  0
 11 12  2  0
 12 13  1  0
 13 14  2  0
 13 15  1  0
 15 16  1  6
 15 17  1  0
 17 18  1  0
 18 19  1  1
 19 20  1  0
 20 21  2  0
 20 22  1  0
 22 23  1  0
 22 24  2  3
 24 25  1  0
 18 26  1  0
 15 27  1  0
 26  2  1  1
 26  6  1  0
 27 11  1  0
M  END
>  <identifier>  (148) 
CNP0269689.13

>  <canonical_smiles>  (148) 
C=C1C(=O)O[C@@H]2/C=C(/CO)C3=CC(=O)[C@@](C)(C[C@@H](OC(=O)C(C)=CC)[C@@H]12)O3

>  <standard_inchi>  (148) 
InChI=1S/C20H22O7/c1-5-10(2)18(23)26-15-8-20(4)16(22)7-13(27-20)12(9-21)6-14-17(15)11(3)19(24)25-14/h5-7,14-15,17,21H,3,8-9H2,1-2,4H3/b10-5?,12-6-/t14-,15-,17+,20-/m1/s1

>  <standard_inchi_key>  (148) 
BMVJFNLJSZHNNS-DUJOMUNYSA-N

>  <name>  (148) 
nan

>  <iupac_name>  (148) 
[(2~{Z},4~{R},8~{R},9~{R},11~{R})-2-(hydroxymethyl)-11-methyl-7-methylene-6,12-dioxo-5,14-dioxatricyclo[9.2.1.0^{4,8}]tetradeca-1(13),2-dien-9-yl] 2-methylbut-2-enoate

>  <annotation_level>  (148) 
5

>  <total_atom_count>  (148) 
49

>  <heavy_atom_count>  (148) 
27

>  <molecular_weight>  (148) 
374.39

>  <exact_molecular_weight>  (148) 
374.13655

>  <molecular_formula>  (148) 
C20H22O7

>  <alogp>  (148) 
1.53

>  <topological_polar_surface_area>  (148) 
99.13

>  <rotatable_bond_count>  (148) 
3

>  <hydrogen_bond_acceptors>  (148) 
7

>  <hydrogen_bond_donors>  (148) 
1

>  <hydrogen_bond_acceptors_lipinski>  (148) 
7

>  <hydrogen_bond_donors_lipinski>  (148) 
1

>  <lipinski_rule_of_five_violations>  (148) 
0

>  <aromatic_rings_count>  (148) 
0

>  <qed_drug_likeliness>  (148) 
0.59

>  <formal_charge>  (148) 
0

>  <fractioncsp3>  (148) 
0.45

>  <number_of_minimal_rings>  (148) 
3

>  <van_der_walls_volume>  (148) 
nan

>  <contains_sugar>  (148) 
False

>  <contains_ring_sugars>  (148) 
False

>  <contains_linear_sugars>  (148) 
False

>  <murcko_framework>  (148) 
O1C=2C=CC3OCCC3CCC1CC2

>  <np_likeness>  (148) 
3.55

>  <chemical_class>  (148) 
Fatty Acyls

>  <chemical_sub_class>  (148) 
Fatty acid esters

>  <chemical_super_class>  (148) 
Lipids and lipid-like molecules

>  <direct_parent_classification>  (148) 
Fatty acid esters

>  <np_classifier_pathway>  (148) 
Terpenoids

>  <np_classifier_superclass>  (148) 
Sesquiterpenoids

>  <np_classifier_class>  (148) 
Germacrane sesquiterpenoids

>  <np_classifier_is_glycoside>  (148) 
False

>  <organisms>  (148) 
Viguiera robusta

>  <collections>  (148) 
NuBBEDB

>  <dois>  (148) 
10.1016/j.ejphar.2007.01.029

>  <synonyms>  (148) 
Budlein A

>  <cas>  (148) 
nan

$$$$

     RDKit          2D

 15 16  0  0  0  0  0  0  0  0999 V2000
   -4.9064   -0.5072    0.0000 C   0  0  0  0  0  0  0  0  0  0  0  0
   -3.6719   -1.3592    0.0000 O   0  0  0  0  0  0  0  0  0  0  0  0
   -2.3167   -0.7161    0.0000 C   0  0  0  0  0  0  0  0  0  0  0  0
   -2.1961    0.7791    0.0000 C   0  0  0  0  0  0  0  0  0  0  0  0
   -0.8410    1.4222    0.0000 C   0  0  0  0  0  0  0  0  0  0  0  0
   -0.7204    2.9174    0.0000 O   0  0  0  0  0  0  0  0  0  0  0  0
    0.3935    0.5702    0.0000 C   0  0  0  0  0  0  0  0  0  0  0  0
    1.7487    1.2133    0.0000 C   0  0  0  0  0  0  0  0  0  0  0  0
    1.8693    2.7085    0.0000 O   0  0  0  0  0  0  0  0  0  0  0  0
    2.9832    0.3613    0.0000 O   0  0  0  0  0  0  0  0  0  0  0  0
    2.8626   -1.1338    0.0000 C   0  0  0  0  0  0  0  0  0  0  0  0
    4.0971   -1.9858    0.0000 C   0  0  0  0  0  0  0  0  0  0  0  0
    1.5075   -1.7770    0.0000 C   0  0  0  0  0  0  0  0  0  0  0  0
    0.2729   -0.9249    0.0000 C   0  0  0  0  0  0  0  0  0  0  0  0
   -1.0822   -1.5681    0.0000 C   0  0  0  0  0  0  0  0  0  0  0  0
  1  2  1  0
  2  3  1  0
  3  4  2  0
  4  5  1  0
  5  6  1  0
  5  7  2  0
  7  8  1  0
  8  9  2  0
  8 10  1  0
 10 11  1  0
 11 12  1  0
 11 13  2  0
 13 14  1  0
 14 15  2  0
 15  3  1  0
 14  7  1  0
M  END
>  <identifier>  (149) 
CNP0307918.0

>  <canonical_smiles>  (149) 
COC1=CC(O)=C2C(=O)OC(C)=CC2=C1

>  <standard_inchi>  (149) 
InChI=1S/C11H10O4/c1-6-3-7-4-8(14-2)5-9(12)10(7)11(13)15-6/h3-5,12H,1-2H3

>  <standard_inchi_key>  (149) 
BZMCHKXIXROMSY-UHFFFAOYSA-N

>  <name>  (149) 
8-hydroxy-6-methoxy-3-methylisocoumarin

>  <iupac_name>  (149) 
8-hydroxy-6-methoxy-3-methyl-isochromen-1-one

>  <annotation_level>  (149) 
5

>  <total_atom_count>  (149) 
25

>  <heavy_atom_count>  (149) 
15

>  <molecular_weight>  (149) 
206.2

>  <exact_molecular_weight>  (149) 
206.05791

>  <molecular_formula>  (149) 
C11H10O4

>  <alogp>  (149) 
1.82

>  <topological_polar_surface_area>  (149) 
59.67

>  <rotatable_bond_count>  (149) 
1

>  <hydrogen_bond_acceptors>  (149) 
4

>  <hydrogen_bond_donors>  (149) 
1

>  <hydrogen_bond_acceptors_lipinski>  (149) 
4

>  <hydrogen_bond_donors_lipinski>  (149) 
1

>  <lipinski_rule_of_five_violations>  (149) 
0

>  <aromatic_rings_count>  (149) 
2

>  <qed_drug_likeliness>  (149) 
0.77

>  <formal_charge>  (149) 
0

>  <fractioncsp3>  (149) 
0.18

>  <number_of_minimal_rings>  (149) 
2

>  <van_der_walls_volume>  (149) 
177.13

>  <contains_sugar>  (149) 
False

>  <contains_ring_sugars>  (149) 
False

>  <contains_linear_sugars>  (149) 
False

>  <murcko_framework>  (149) 
O1C=Cc2ccccc2C1

>  <np_likeness>  (149) 
1.09

>  <chemical_class>  (149) 
Isocoumarins and derivatives

>  <chemical_sub_class>  (149) 
Isocoumarins and derivatives

>  <chemical_super_class>  (149) 
Phenylpropanoids and polyketides

>  <direct_parent_classification>  (149) 
Isocoumarins and derivatives

>  <np_classifier_pathway>  (149) 
Shikimates and Phenylpropanoids

>  <np_classifier_superclass>  (149) 
Coumarins

>  <np_classifier_class>  (149) 
Isocoumarins

>  <np_classifier_is_glycoside>  (149) 
False

>  <organisms>  (149) 
Artemisia gilvescens|Bryophyllum calycinum|Ceratocystis fimbriata|Cheilanthes chusana|Datura stramonium|Oenanthe fistulosa|Phoma betae|Picris evae|Pleospora bjoerlingii|Streptomyces

>  <collections>  (149) 
CMAUP (cCollective molecular activities of useful plants)|EMNPD|Latin America dataset|NPASS|NPAtlas|NPEdia|NuBBEDB|Super Natural II|WikiData Natural Products|ZINC NP

>  <dois>  (149) 
10.1002/JOBM.200800093|10.1002/jobm.200800093|10.1007/S11306-016-1025-6|10.1016/0006-291X(69)90265-4|10.1016/0006-291x(69)90265-4

>  <synonyms>  (149) 
1702-86-9|6-Methoxy-3-methyl-8-hydroxy-1H-2-benzopyran-1-one|8-hydroxy-6-methoxy-3-methylisochromen-1-one|8-hydroxy-6-methoxy-3-methylisocoumarin|CHEBI:217431|SCHEMBL5079030

>  <cas>  (149) 
1702-86-9

$$$$

     RDKit          2D

 25 29  0  0  0  0  0  0  0  0999 V2000
    5.1712    1.8768    0.0000 C   0  0  0  0  0  0  0  0  0  0  0  0
    3.8913    1.0946    0.0000 C   0  0  0  0  0  0  0  0  0  0  0  0
    3.9287   -0.4049    0.0000 C   0  0  0  0  0  0  0  0  0  0  0  0
    2.6488   -1.1871    0.0000 C   0  0  0  0  0  0  0  0  0  0  0  0
    2.6862   -2.6866    0.0000 C   0  0  0  0  0  0  0  0  0  0  0  0
    1.4062   -3.4688    0.0000 C   0  0  0  0  0  0  0  0  0  0  0  0
    0.0889   -2.7514    0.0000 C   0  0  0  0  0  0  0  0  0  0  0  0
   -1.3257   -3.2504    0.0000 O   0  0  0  0  0  0  0  0  0  0  0  0
   -2.2374   -2.0592    0.0000 C   0  0  0  0  0  0  0  0  0  0  0  0
   -1.3862   -0.8241    0.0000 O   0  0  0  0  0  0  0  0  0  0  0  0
    0.0515   -1.2519    0.0000 C   0  0  0  0  0  0  0  0  0  0  0  0
    1.3314   -0.4697    0.0000 C   0  0  0  0  0  0  0  0  0  0  0  0
    1.2940    1.0298    0.0000 C   0  0  0  0  0  0  0  0  0  0  0  0
    0.7460    2.4261    0.0000 O   0  0  0  0  0  0  0  0  0  0  0  0
   -0.1762    0.7326    0.0000 C   0  0  0  0  0  0  0  0  0  0  0  0
   -0.6540   -0.6893    0.0000 C   0  0  0  0  0  0  0  0  0  0  0  0
   -2.1242   -0.9865    0.0000 C   0  0  0  0  0  0  0  0  0  0  0  0
   -3.1168    0.1381    0.0000 C   0  0  0  0  0  0  0  0  0  0  0  0
   -4.6167    0.1531    0.0000 O   0  0  0  0  0  0  0  0  0  0  0  0
   -5.0660    1.5842    0.0000 C   0  0  0  0  0  0  0  0  0  0  0  0
   -3.8437    2.4538    0.0000 O   0  0  0  0  0  0  0  0  0  0  0  0
   -2.6390    1.5600    0.0000 C   0  0  0  0  0  0  0  0  0  0  0  0
   -1.1688    1.8573    0.0000 C   0  0  0  0  0  0  0  0  0  0  0  0
    2.5740    1.8120    0.0000 C   0  0  0  0  0  0  0  0  0  0  0  0
    2.5365    3.3115    0.0000 C   0  0  0  0  0  0  0  0  0  0  0  0
  2  1  1  6
  2  3  1  0
  3  4  1  0
  4  5  2  0
  5  6  1  0
  6  7  2  0
  7  8  1  0
  8  9  1  0
  9 10  1  0
 10 11  1  0
 11 12  2  0
 12 13  1  0
 13 14  1  1
 13 15  1  0
 15 16  2  0
 16 17  1  0
 17 18  2  0
 18 19  1  0
 19 20  1  0
 20 21  1  0
 21 22  1  0
 22 23  2  0
 13 24  1  0
 24 25  1  1
 24  2  1  0
 12  4  1  0
 23 15  1  0
 11  7  1  0
 22 18  1  0
M  END
>  <identifier>  (150) 
CNP0286758.1

>  <canonical_smiles>  (150) 
C[C@@H]1CC2=CC=C3OCOC3=C2[C@](O)(C2=CC=C3OCOC3=C2)[C@H]1C

>  <standard_inchi>  (150) 
InChI=1S/C20H20O5/c1-11-7-13-3-5-16-19(25-10-23-16)18(13)20(21,12(11)2)14-4-6-15-17(8-14)24-9-22-15/h3-6,8,11-12,21H,7,9-10H2,1-2H3/t11-,12+,20-/m1/s1

>  <standard_inchi_key>  (150) 
WRSHLXQWVVZAJI-XAAFQQQXSA-N

>  <name>  (150) 
nan

>  <iupac_name>  (150) 
(7~{R},8~{S},9~{R})-9-(1,3-benzodioxol-5-yl)-7,8-dimethyl-7,8-dihydro-6~{H}-benzo[e][1,3]benzodioxol-9-ol

>  <annotation_level>  (150) 
5

>  <total_atom_count>  (150) 
45

>  <heavy_atom_count>  (150) 
25

>  <molecular_weight>  (150) 
340.38

>  <exact_molecular_weight>  (150) 
340.13107

>  <molecular_formula>  (150) 
C20H20O5

>  <alogp>  (150) 
3.21

>  <topological_polar_surface_area>  (150) 
57.15

>  <rotatable_bond_count>  (150) 
1

>  <hydrogen_bond_acceptors>  (150) 
5

>  <hydrogen_bond_donors>  (150) 
1

>  <hydrogen_bond_acceptors_lipinski>  (150) 
5

>  <hydrogen_bond_donors_lipinski>  (150) 
1

>  <lipinski_rule_of_five_violations>  (150) 
0

>  <aromatic_rings_count>  (150) 
2

>  <qed_drug_likeliness>  (150) 
0.86

>  <formal_charge>  (150) 
0

>  <fractioncsp3>  (150) 
0.40

>  <number_of_minimal_rings>  (150) 
5

>  <van_der_walls_volume>  (150) 
298.12

>  <contains_sugar>  (150) 
False

>  <contains_ring_sugars>  (150) 
False

>  <contains_linear_sugars>  (150) 
False

>  <murcko_framework>  (150) 
O1c2ccc(cc2OC1)C3c4c5OCOc5ccc4CCC3

>  <np_likeness>  (150) 
1.30

>  <chemical_class>  (150) 
Aryltetralin lignans

>  <chemical_sub_class>  (150) 
Aryltetralin lignans

>  <chemical_super_class>  (150) 
Lignans, neolignans and related compounds

>  <direct_parent_classification>  (150) 
Aryltetralin lignans

>  <np_classifier_pathway>  (150) 
Shikimates and Phenylpropanoids

>  <np_classifier_superclass>  (150) 
Lignans

>  <np_classifier_class>  (150) 
Arylnaphthalene and aryltetralin lignans

>  <np_classifier_is_glycoside>  (150) 
False

>  <organisms>  (150) 
Virola sebifera

>  <collections>  (150) 
ChemSpider NPs|Latin America dataset|NuBBEDB|Super Natural II|ZINC NP

>  <dois>  (150) 
10.1002/1099-1565(200011/12)11:6<383::AID-PCA543>3.0.CO,2-M

>  <synonyms>  (150) 
Hydroxy-otobain

>  <cas>  (150) 
nan

$$$$

     RDKit          2D

 26 28  0  0  0  0  0  0  0  0999 V2000
    7.5521    0.4951    0.0000 C   0  0  0  0  0  0  0  0  0  0  0  0
    6.1741   -0.0975    0.0000 C   0  0  0  0  0  0  0  0  0  0  0  0
    4.9719    0.7995    0.0000 C   0  0  0  0  0  0  0  0  0  0  0  0
    3.5939    0.2069    0.0000 C   0  0  0  0  0  0  0  0  0  0  0  0
    2.3917    1.1040    0.0000 C   0  0  0  0  0  0  0  0  0  0  0  0
    1.0137    0.5114    0.0000 C   0  0  0  0  0  0  0  0  0  0  0  0
   -0.4838    0.4258    0.0000 O   0  0  0  0  0  0  0  0  0  0  0  0
   -1.1585   -0.9139    0.0000 C   0  0  0  0  0  0  0  0  0  0  0  0
    0.6694    1.9714    0.0000 C   0  0  0  0  0  0  0  0  0  0  0  0
    1.7616    2.9995    0.0000 C   0  0  0  0  0  0  0  0  0  0  0  0
   -0.7671    2.4031    0.0000 C   0  0  0  0  0  0  0  0  0  0  0  0
   -1.8593    1.3750    0.0000 C   0  0  0  0  0  0  0  0  0  0  0  0
   -1.5150   -0.0850    0.0000 C   0  0  0  0  0  0  0  0  0  0  0  0
   -2.6072   -1.1131    0.0000 C   0  0  0  0  0  0  0  0  0  0  0  0
   -4.0437   -0.6813    0.0000 C   0  0  0  0  0  0  0  0  0  0  0  0
   -5.3258   -1.4599    0.0000 O   0  0  0  0  0  0  0  0  0  0  0  0
   -6.4625   -0.4812    0.0000 C   0  0  0  0  0  0  0  0  0  0  0  0
   -5.8829    0.9023    0.0000 O   0  0  0  0  0  0  0  0  0  0  0  0
   -4.3880    0.7786    0.0000 C   0  0  0  0  0  0  0  0  0  0  0  0
   -3.2958    1.8068    0.0000 C   0  0  0  0  0  0  0  0  0  0  0  0
    0.8380   -0.9783    0.0000 C   0  0  0  0  0  0  0  0  0  0  0  0
   -0.5400   -1.5709    0.0000 O   0  0  0  0  0  0  0  0  0  0  0  0
   -0.7158   -3.0605    0.0000 C   0  0  0  0  0  0  0  0  0  0  0  0
    2.0402   -1.8753    0.0000 C   0  0  0  0  0  0  0  0  0  0  0  0
    3.4181   -1.2827    0.0000 C   0  0  0  0  0  0  0  0  0  0  0  0
    4.6203   -2.1798    0.0000 O   0  0  0  0  0  0  0  0  0  0  0  0
  1  2  2  0
  2  3  1  0
  3  4  1  0
  4  5  2  0
  5  6  1  0
  6  7  1  1
  7  8  1  0
  6  9  1  0
  9 10  1  1
  9 11  1  0
 11 12  1  0
 12 13  2  0
 13 14  1  0
 14 15  2  0
 15 16  1  0
 16 17  1  0
 17 18  1  0
 18 19  1  0
 19 20  2  0
  6 21  1  0
 21 22  1  0
 22 23  1  0
 21 24  2  0
 24 25  1  0
 25 26  2  0
 25  4  1  0
 20 12  1  0
 19 15  1  0
M  END
>  <identifier>  (151) 
CNP0268822.2

>  <canonical_smiles>  (151) 
C=CCC1=C[C@@](OC)([C@H](C)CC2=CC=C3OCOC3=C2)C(OC)=CC1=O

>  <standard_inchi>  (151) 
InChI=1S/C21H24O5/c1-5-6-16-12-21(24-4,20(23-3)11-17(16)22)14(2)9-15-7-8-18-19(10-15)26-13-25-18/h5,7-8,10-12,14H,1,6,9,13H2,2-4H3/t14-,21-/m1/s1

>  <standard_inchi_key>  (151) 
SMOHLDSEWHACKE-SPLOXXLWSA-N

>  <name>  (151) 
Isodihydrofutoquinol B

>  <iupac_name>  (151) 
(4~{S})-2-allyl-4-[(1~{R})-2-(1,3-benzodioxol-5-yl)-1-methyl-ethyl]-4,5-dimethoxy-cyclohexa-2,5-dien-1-one

>  <annotation_level>  (151) 
5

>  <total_atom_count>  (151) 
50

>  <heavy_atom_count>  (151) 
26

>  <molecular_weight>  (151) 
356.42

>  <exact_molecular_weight>  (151) 
356.16237

>  <molecular_formula>  (151) 
C21H24O5

>  <alogp>  (151) 
3.59

>  <topological_polar_surface_area>  (151) 
53.99

>  <rotatable_bond_count>  (151) 
7

>  <hydrogen_bond_acceptors>  (151) 
5

>  <hydrogen_bond_donors>  (151) 
0

>  <hydrogen_bond_acceptors_lipinski>  (151) 
5

>  <hydrogen_bond_donors_lipinski>  (151) 
0

>  <lipinski_rule_of_five_violations>  (151) 
0

>  <aromatic_rings_count>  (151) 
1

>  <qed_drug_likeliness>  (151) 
0.70

>  <formal_charge>  (151) 
0

>  <fractioncsp3>  (151) 
0.38

>  <number_of_minimal_rings>  (151) 
3

>  <van_der_walls_volume>  (151) 
329.34

>  <contains_sugar>  (151) 
False

>  <contains_ring_sugars>  (151) 
False

>  <contains_linear_sugars>  (151) 
False

>  <murcko_framework>  (151) 
O1c2ccc(cc2OC1)CCC3C=CCC=C3

>  <np_likeness>  (151) 
1.85

>  <chemical_class>  (151) 
Prenol lipids

>  <chemical_sub_class>  (151) 
Monoterpenoids

>  <chemical_super_class>  (151) 
Lipids and lipid-like molecules

>  <direct_parent_classification>  (151) 
Bicyclic monoterpenoids

>  <np_classifier_pathway>  (151) 
Shikimates and Phenylpropanoids

>  <np_classifier_superclass>  (151) 
Lignans

>  <np_classifier_class>  (151) 
Neolignans

>  <np_classifier_is_glycoside>  (151) 
False

>  <organisms>  (151) 
Aniba lancifolia|Clitocybe inversa|Delphinus delphis|Hypericum calycinum|Kalanchoe petitiana|Magnolia denudata|Piper hymenophyllum|Piper schmidtii|Piper wightii|Tripora divaricata

>  <collections>  (151) 
CMAUP (cCollective molecular activities of useful plants)|KNApSaCK|Latin America dataset|NPASS|NuBBEDB|Super Natural II|TCMDB-Taiwan (Traditional Chinese Medicine database)|WikiData Natural Products|ZINC NP

>  <dois>  (151) 
10.1016/S0031-9422(00)81975-5|10.1016/S0031-9422(00)95012-X|10.1016/S0040-4020(01)85081-X|10.1248/CPB.48.832

>  <synonyms>  (151) 
AKOS040761880|CHEMBL290066|CS-0024367|HY-N3489|Isodihydrofutoquinol B|Lancifolin E

>  <cas>  (151) 
nan

$$$$

     RDKit          2D

 15 17  0  0  0  0  0  0  0  0999 V2000
   -3.0041   -0.3170    0.0000 C   0  0  0  0  0  0  0  0  0  0  0  0
   -1.5245   -0.5634    0.0000 C   0  0  0  0  0  0  0  0  0  0  0  0
   -0.8541   -1.9052    0.0000 C   0  0  0  0  0  0  0  0  0  0  0  0
   -2.2491   -1.3537    0.0000 C   0  0  0  0  0  0  0  0  0  0  0  0
   -2.1556    0.1433    0.0000 C   0  0  0  0  0  0  0  0  0  0  0  0
   -0.7029    0.5171    0.0000 C   0  0  0  0  0  0  0  0  0  0  0  0
    0.1014   -0.7490    0.0000 C   0  0  0  0  0  0  0  0  0  0  0  0
    1.5928   -0.9095    0.0000 C   0  0  0  0  0  0  0  0  0  0  0  0
    1.1045   -2.3278    0.0000 C   0  0  0  0  0  0  0  0  0  0  0  0
    2.8669   -1.7012    0.0000 C   0  0  0  0  0  0  0  0  0  0  0  0
    2.6482    0.1564    0.0000 C   0  0  0  0  0  0  0  0  0  0  0  0
    2.4728    1.6461    0.0000 C   0  0  0  0  0  0  0  0  0  0  0  0
    1.1988    2.4378    0.0000 C   0  0  0  0  0  0  0  0  0  0  0  0
   -0.2146    1.9354    0.0000 C   0  0  0  0  0  0  0  0  0  0  0  0
   -1.2805    2.9907    0.0000 C   0  0  0  0  0  0  0  0  0  0  0  0
  1  2  2  0
  2  3  1  0
  3  4  1  6
  4  5  1  0
  6  5  1  1
  6  7  1  0
  7  8  1  1
  8  9  1  0
  8 10  1  0
  8 11  1  0
 11 12  1  0
 12 13  1  0
 13 14  1  0
 14 15  1  6
 14  2  1  0
  7  3  1  0
 14  6  1  0
M  END
>  <identifier>  (152) 
CNP0253868.3

>  <canonical_smiles>  (152) 
C=C1[C@H]2CC[C@@H]3[C@H]2C(C)(C)CCC[C@]13C

>  <standard_inchi>  (152) 
InChI=1S/C15H24/c1-10-11-6-7-12-13(11)14(2,3)8-5-9-15(10,12)4/h11-13H,1,5-9H2,2-4H3/t11-,12-,13+,15-/m1/s1

>  <standard_inchi_key>  (152) 
PDSNLYSELAIEBU-GUIRCDHDSA-N

>  <name>  (152) 
(+)-Longifolene

>  <iupac_name>  (152) 
(1~{R},2~{S},7~{S},9~{S})-3,3,7-trimethyl-8-methylene-tricyclo[5.4.0.0^{2,9}]undecane

>  <annotation_level>  (152) 
5

>  <total_atom_count>  (152) 
39

>  <heavy_atom_count>  (152) 
15

>  <molecular_weight>  (152) 
204.36

>  <exact_molecular_weight>  (152) 
204.1878

>  <molecular_formula>  (152) 
C15H24

>  <alogp>  (152) 
4.42

>  <topological_polar_surface_area>  (152) 
0.00

>  <rotatable_bond_count>  (152) 
0

>  <hydrogen_bond_acceptors>  (152) 
0

>  <hydrogen_bond_donors>  (152) 
0

>  <hydrogen_bond_acceptors_lipinski>  (152) 
0

>  <hydrogen_bond_donors_lipinski>  (152) 
0

>  <lipinski_rule_of_five_violations>  (152) 
0

>  <aromatic_rings_count>  (152) 
0

>  <qed_drug_likeliness>  (152) 
0.51

>  <formal_charge>  (152) 
0

>  <fractioncsp3>  (152) 
0.87

>  <number_of_minimal_rings>  (152) 
3

>  <van_der_walls_volume>  (152) 
218.94

>  <contains_sugar>  (152) 
False

>  <contains_ring_sugars>  (152) 
False

>  <contains_linear_sugars>  (152) 
False

>  <murcko_framework>  (152) 
C1CCC2C3CCC2C(C1)C3

>  <np_likeness>  (152) 
3.05

>  <chemical_class>  (152) 
Prenol lipids

>  <chemical_sub_class>  (152) 
Sesquiterpenoids

>  <chemical_super_class>  (152) 
Lipids and lipid-like molecules

>  <direct_parent_classification>  (152) 
Sesquiterpenoids

>  <np_classifier_pathway>  (152) 
Terpenoids

>  <np_classifier_superclass>  (152) 
Sesquiterpenoids

>  <np_classifier_class>  (152) 
Longifolane sesquiterpenoids

>  <np_classifier_is_glycoside>  (152) 
False

>  <organisms>  (152) 
Abies magnifica|Acacia simplicifolia|Acanthodoris nanaimoensis|Acorus calamus|Acorus gramineus|Acronychia haplophylla|Agathis dammara|Alligator sinensis|Alstonia rostrata|Amauris niavius|Ammodendron karelinii|Anacyclus pyrethrum|Aquilaria agallochum|Aquilaria sinensis|Ascotricha chartarum|Aster tataricus|Bellardia trixago|Bowdichia virgilioides|Brachylaena perrieri|Buglossoides arvensis|Cedrela fissilis|Centaurea zuccariniana|Cetraria komarovii|Chrysanthemum x morifolium|Cinnamomum philippinense|Cousinia canescens|Crinum giganteum|Crocus sativus|Cuscuta australis|Cyperus rotundus|Dactynotus rudbeckiae|Daucus carota|Dendrodoris limbata|Diplotropis ferruginea|Elettaria cardamomum|Eria bicolor|Eucalyptus globulus|Eucalyptus viminalis|Euphorbia kaleniczenkii|Euphrasia regelii|Exodermis poria|Firmiana simplex|Fructus schiandrae|Gnephosis arachnoidea|Guarea glabra|Halocarpus biformis|Herbertus dicranus|Herbertus norenus|Herbertus sakuraii|Hortonia angustifolia|Humicola grisea|Illicium verum|Julbernardia globifera|Laggera pterodonta|Lanice conchilega|Larix gmelinii|Larix gmelinii var. gmelinii|Liatris graminifolia|Limnodynastes terraereginae|Lupinus macounii|Lychnophora hakeaefolia|Manoao colensoi|Matthiola incana|Medicosma fareana|Mentha sylvestris|Methysticodendron amesianum|Mikania grazielae|Miliusa balansae|Mimusops laurifolia|Mosla chinensis|Myrrhis odorata|Nauclea parva|Odocoileus hemionus|Ophiomastix mixta|Oscillatoria raoi|Othonna macrophylla|Pentachondra pumila|Phagnalon rupestre|Phebalium squamulosum|Phlomis ostrowskiana|Phlox decussata|Phoenix hanceana|Pholas dactylus|Phoma linga|Picea abies|Picea glehnii|Piliostigma thonningii|Pimpinella peregrina|Pinus brutia var. pityusa|Pinus engelmannii|Pinus longifolia|Pinus monticola|Pinus palustris|Pinus ponderosa|Pinus radiata|Pinus sp.|Piper betle|Prumnopitys andina|Prumnopitys taxifolia|Salix petiolaris|Salvia dugesii|Salvia lanigera|Salvia pisidica|Scapania undulata|Scutellaria baicalensis|Scymnorhinus lichia|Senna alexandrina|Seriphium plumosum|Solanum crinitum|Stoebe plumosa|Stoebe vulgaris|Streptomyces jumonjinensis|Streptomyces ribosidificus|Tetradenia glauca|Teucrium scorodonia|Tinospora hainanensis|Titanotrichum oldhamii|Trigonostemon heterophyllus|Triphasia trifolia|Tubocapsicum anomalum|Uncaria longiflora|Uperoleia inundata|Ursinia speciosa|Uvaria microcarpa|Veronica anagallis|Viburnum tinus|Waitzia acuminata|Wrightia tinctoria|Xylaria hypoxylon

>  <collections>  (152) 
Australian natural products|CMAUP (cCollective molecular activities of useful plants)|Latin America dataset|NPASS|NuBBEDB|Phyto4Health|PhytoLab phyproof® Reference Substances|Super Natural II|TCMDB-Taiwan (Traditional Chinese Medicine database)|WikiData Natural Products|ZINC NP

>  <dois>  (152) 
10.1002/CBER.19620950804|10.1002/CJOC.201180379|10.1002/JCTB.5010020405|10.1002/JPS.3030431207|10.1002/JSFA.2740061203|10.1007/BF00576212|10.1007/BF00580453|10.1007/BF00713346|10.1007/s11738-013-1344-4|10.1016/0031-9422(88)80023-2|10.1016/0031-9422(88)80795-7|10.1016/S0031-9422(00)00317-4|10.1016/S0031-9422(00)82445-0|10.1016/S0031-9422(00)82471-1|10.1016/S0031-9422(00)85915-4|10.1055/S-0028-1097609|10.1076/PHBI.35.1.66.13267|10.1590/S0103-50532000000600012

>  <synonyms>  (152) 
nan

>  <cas>  (152) 
475-20-7

$$$$

     RDKit          2D

 15 16  0  0  0  0  0  0  0  0999 V2000
   -0.2909    3.9283    0.0000 C   0  0  0  0  0  0  0  0  0  0  0  0
    0.0825    2.4755    0.0000 C   0  0  0  0  0  0  0  0  0  0  0  0
   -1.1838    1.6715    0.0000 C   0  0  0  0  0  0  0  0  0  0  0  0
   -1.7356    0.2766    0.0000 C   0  0  0  0  0  0  0  0  0  0  0  0
   -1.3622   -1.1761    0.0000 C   0  0  0  0  0  0  0  0  0  0  0  0
   -0.2062   -2.1320    0.0000 C   0  0  0  0  0  0  0  0  0  0  0  0
    1.2908   -2.2258    0.0000 C   0  0  0  0  0  0  0  0  0  0  0  0
    2.5571   -1.4217    0.0000 C   0  0  0  0  0  0  0  0  0  0  0  0
    3.7131   -2.3776    0.0000 C   0  0  0  0  0  0  0  0  0  0  0  0
    3.1090   -0.0269    0.0000 C   0  0  0  0  0  0  0  0  0  0  0  0
    2.7356    1.4259    0.0000 C   0  0  0  0  0  0  0  0  0  0  0  0
    1.5796    2.3817    0.0000 C   0  0  0  0  0  0  0  0  0  0  0  0
   -2.8071   -0.7731    0.0000 C   0  0  0  0  0  0  0  0  0  0  0  0
   -3.4549   -2.1260    0.0000 C   0  0  0  0  0  0  0  0  0  0  0  0
   -4.0269    0.0998    0.0000 C   0  0  0  0  0  0  0  0  0  0  0  0
  1  2  1  0
  2  3  2  0
  3  4  1  0
  4  5  1  0
  5  6  1  1
  6  7  1  0
  7  8  1  0
  8  9  1  0
  8 10  2  0
 10 11  1  0
 11 12  1  0
  5 13  1  0
 13 14  1  0
 13 15  1  0
 12  2  1  0
  4 13  1  1
M  END
>  <identifier>  (153) 
CNP0196946.1

>  <canonical_smiles>  (153) 
C/C1=C/[C@H]2[C@@H](CC/C(C)=C\CC1)C2(C)C

>  <standard_inchi>  (153) 
InChI=1S/C15H24/c1-11-6-5-7-12(2)10-14-13(9-8-11)15(14,3)4/h6,10,13-14H,5,7-9H2,1-4H3/b11-6-,12-10-/t13-,14+/m1/s1

>  <standard_inchi_key>  (153) 
VPDZRSSKICPUEY-GQRSATBHSA-N

>  <name>  (153) 
(1S,2E,6E,10R)-3,7,11,11-tetramethylbicyclo[8.1.0]undeca-2,6-diene

>  <iupac_name>  (153) 
(1~{S},2~{Z},6~{Z},10~{R})-3,7,11,11-tetramethylbicyclo[8.1.0]undeca-2,6-diene

>  <annotation_level>  (153) 
5

>  <total_atom_count>  (153) 
39

>  <heavy_atom_count>  (153) 
15

>  <molecular_weight>  (153) 
204.36

>  <exact_molecular_weight>  (153) 
204.1878

>  <molecular_formula>  (153) 
C15H24

>  <alogp>  (153) 
4.73

>  <topological_polar_surface_area>  (153) 
0.00

>  <rotatable_bond_count>  (153) 
0

>  <hydrogen_bond_acceptors>  (153) 
0

>  <hydrogen_bond_donors>  (153) 
0

>  <hydrogen_bond_acceptors_lipinski>  (153) 
0

>  <hydrogen_bond_donors_lipinski>  (153) 
0

>  <lipinski_rule_of_five_violations>  (153) 
0

>  <aromatic_rings_count>  (153) 
0

>  <qed_drug_likeliness>  (153) 
0.50

>  <formal_charge>  (153) 
0

>  <fractioncsp3>  (153) 
0.73

>  <number_of_minimal_rings>  (153) 
2

>  <van_der_walls_volume>  (153) 
227.70

>  <contains_sugar>  (153) 
False

>  <contains_ring_sugars>  (153) 
False

>  <contains_linear_sugars>  (153) 
False

>  <murcko_framework>  (153) 
C1=CCCC2CC2C=CCC1

>  <np_likeness>  (153) 
3.20

>  <chemical_class>  (153) 
Prenol lipids

>  <chemical_sub_class>  (153) 
Sesquiterpenoids

>  <chemical_super_class>  (153) 
Lipids and lipid-like molecules

>  <direct_parent_classification>  (153) 
Bicyclogermacrane and isolepidozane sesquiterpenoids

>  <np_classifier_pathway>  (153) 
Terpenoids

>  <np_classifier_superclass>  (153) 
Sesquiterpenoids

>  <np_classifier_class>  (153) 
Bicyclogermacrane sesquiterpenoids

>  <np_classifier_is_glycoside>  (153) 
False

>  <organisms>  (153) 
Agastache rugosa|Angelica acutiloba|Angelica gigas|Angelica sinensis|Artemisia capillaris|Cedrela odorata|Citrus medica|Cnidium monieri|Cnidium monnieri|Coleonema pulchellum|Daucus carota|Halocarpus biformis|Hypericum perforatum|Ligusticum jeholense|Ligusticum sinense|Ligusticum tenuissimum|Murraya exotica|Murraya paniculata|Panax ginseng|Panax notoginseng|Schisandra chinensis|Streptomyces citreus CBS 109.60|Torilis japonica|Zanthoxylum bungeanum|Zanthoxylum piperitum|Zanthoxylum schinifolium

>  <collections>  (153) 
Australian natural products|CMAUP (cCollective molecular activities of useful plants)|ChemSpider NPs|Latin America dataset|NPASS|NPAtlas|NPEdia|NuBBEDB|Super Natural II|WikiData Natural Products

>  <dois>  (153) 
10.1002/ffj.2730010405|10.1016/0031-9422(86)88017-7|10.1016/0031-9422(90)80178-J|10.1128/aem.62.4.1295-1299.1996|10.1590/S0103-50532000000600012

>  <synonyms>  (153) 
(+)-Bicyclogermacrene|Bicyclogermacrene|Lepidozene

>  <cas>  (153) 
nan

$$$$

     RDKit          2D

 25 29  0  0  0  0  0  0  0  0999 V2000
   -5.3309    1.2183    0.0000 C   0  0  0  0  0  0  0  0  0  0  0  0
   -4.3595    0.0754    0.0000 C   0  0  0  0  0  0  0  0  0  0  0  0
   -2.8840    0.3451    0.0000 C   0  0  0  0  0  0  0  0  0  0  0  0
   -2.3798    1.7579    0.0000 C   0  0  0  0  0  0  0  0  0  0  0  0
   -3.6264    0.9236    0.0000 C   0  0  0  0  0  0  0  0  0  0  0  0
   -3.5273   -0.5731    0.0000 C   0  0  0  0  0  0  0  0  0  0  0  0
   -2.1120   -2.2845    0.0000 N   0  0  0  0  0  0  0  0  0  0  0  0
   -1.2153   -1.3442    0.0000 C   0  0  0  0  0  0  0  0  0  0  0  0
   -1.3337   -1.4684    0.0000 C   0  0  0  0  0  0  0  0  0  0  0  0
   -0.4370   -0.5281    0.0000 C   0  0  0  0  0  0  0  0  0  0  0  0
    0.7508   -1.4441    0.0000 C   0  0  0  0  0  0  0  0  0  0  0  0
    0.8648   -2.9398    0.0000 C   0  0  0  0  0  0  0  0  0  0  0  0
    2.2171   -3.5888    0.0000 C   0  0  0  0  0  0  0  0  0  0  0  0
    3.4554   -2.7422    0.0000 C   0  0  0  0  0  0  0  0  0  0  0  0
    3.3413   -1.2466    0.0000 C   0  0  0  0  0  0  0  0  0  0  0  0
    4.5796   -0.4000    0.0000 O   0  0  0  0  0  0  0  0  0  0  0  0
    1.9890   -0.5975    0.0000 C   0  0  0  0  0  0  0  0  0  0  0  0
    1.5665    0.8417    0.0000 N   0  0  0  0  0  0  0  0  0  0  0  0
    2.4825    2.0295    0.0000 C   0  0  0  0  0  0  0  0  0  0  0  0
    3.9692    1.8301    0.0000 O   0  0  0  0  0  0  0  0  0  0  0  0
    1.9119    3.4168    0.0000 C   0  0  0  0  0  0  0  0  0  0  0  0
    2.8279    4.6046    0.0000 C   0  0  0  0  0  0  0  0  0  0  0  0
    0.0671    0.8847    0.0000 C   0  0  0  0  0  0  0  0  0  0  0  0
   -0.9043    2.0276    0.0000 C   0  0  0  0  0  0  0  0  0  0  0  0
   -1.9126   -0.7979    0.0000 C   0  0  0  0  0  0  0  0  0  0  0  0
  1  2  1  0
  2  3  2  0
  3  4  1  0
  4  5  1  0
  5  6  1  0
  6  7  1  0
  7  8  1  0
  8  9  1  0
  9 10  1  0
 10 11  1  0
 11 12  2  0
 12 13  1  0
 13 14  2  0
 14 15  1  0
 15 16  1  0
 15 17  2  0
 17 18  1  0
 18 19  1  0
 19 20  2  0
 19 21  1  0
 21 22  1  0
 18 23  1  0
 23 24  1  0
 10 25  1  0
 25  3  1  0
 24  4  1  0
 25  7  1  0
 23 10  1  0
 17 11  1  0
M  END
>  <identifier>  (154) 
CNP0189057.3

>  <canonical_smiles>  (154) 
C/C=C1\C2CCN3CCC4(C5=CC=CC(O)=C5N(C(=O)CC)C4C2)C13

>  <standard_inchi>  (154) 
InChI=1S/C21H26N2O2/c1-3-14-13-8-10-22-11-9-21(20(14)22)15-6-5-7-16(24)19(15)23(17(21)12-13)18(25)4-2/h3,5-7,13,17,20,24H,4,8-12H2,1-2H3/b14-3+

>  <standard_inchi_key>  (154) 
NZLZSUHUMSMTMR-LZWSPWQCSA-N

>  <name>  (154) 
nan

>  <iupac_name>  (154) 
nan

>  <annotation_level>  (154) 
0

>  <total_atom_count>  (154) 
51

>  <heavy_atom_count>  (154) 
25

>  <molecular_weight>  (154) 
338.45

>  <exact_molecular_weight>  (154) 
338.19943

>  <molecular_formula>  (154) 
C21H26N2O2

>  <alogp>  (154) 
3.20

>  <topological_polar_surface_area>  (154) 
43.78

>  <rotatable_bond_count>  (154) 
1

>  <hydrogen_bond_acceptors>  (154) 
3

>  <hydrogen_bond_donors>  (154) 
1

>  <hydrogen_bond_acceptors_lipinski>  (154) 
3

>  <hydrogen_bond_donors_lipinski>  (154) 
1

>  <lipinski_rule_of_five_violations>  (154) 
0

>  <aromatic_rings_count>  (154) 
1

>  <qed_drug_likeliness>  (154) 
0.80

>  <formal_charge>  (154) 
0

>  <fractioncsp3>  (154) 
0.57

>  <number_of_minimal_rings>  (154) 
5

>  <van_der_walls_volume>  (154) 
317.30

>  <contains_sugar>  (154) 
False

>  <contains_ring_sugars>  (154) 
False

>  <contains_linear_sugars>  (154) 
False

>  <murcko_framework>  (154) 
c1ccc2c(c1)NC3CC4CCN5CCC23C5C4

>  <np_likeness>  (154) 
1.75

>  <chemical_class>  (154) 
nan

>  <chemical_sub_class>  (154) 
nan

>  <chemical_super_class>  (154) 
nan

>  <direct_parent_classification>  (154) 
nan

>  <np_classifier_pathway>  (154) 
Alkaloids

>  <np_classifier_superclass>  (154) 
Tryptophan alkaloids

>  <np_classifier_class>  (154) 
Aspidosperma type

>  <np_classifier_is_glycoside>  (154) 
False

>  <organisms>  (154) 
Aspidosperma tomentosum

>  <collections>  (154) 
Latin America dataset|NuBBEDB|WikiData Natural Products

>  <dois>  (154) 
10.1016/S0031-9422(00)82898-8

>  <synonyms>  (154) 
nan

>  <cas>  (154) 
nan

$$$$

     RDKit          2D

 26 27  0  0  0  0  0  0  0  0999 V2000
   -8.6160   -2.6396    0.0000 O   0  0  0  0  0  0  0  0  0  0  0  0
   -8.4187   -1.1527    0.0000 C   0  0  0  0  0  0  0  0  0  0  0  0
   -9.6078   -0.2383    0.0000 C   0  0  0  0  0  0  0  0  0  0  0  0
   -9.4105    1.2487    0.0000 C   0  0  0  0  0  0  0  0  0  0  0  0
   -8.0241    1.8213    0.0000 C   0  0  0  0  0  0  0  0  0  0  0  0
   -6.8350    0.9069    0.0000 C   0  0  0  0  0  0  0  0  0  0  0  0
   -5.4486    1.4795    0.0000 C   0  0  0  0  0  0  0  0  0  0  0  0
   -4.2595    0.5652    0.0000 C   0  0  0  0  0  0  0  0  0  0  0  0
   -2.8731    1.1378    0.0000 C   0  0  0  0  0  0  0  0  0  0  0  0
   -1.6840    0.2234    0.0000 C   0  0  0  0  0  0  0  0  0  0  0  0
   -1.8813   -1.2635    0.0000 O   0  0  0  0  0  0  0  0  0  0  0  0
   -0.2976    0.7961    0.0000 C   0  0  0  0  0  0  0  0  0  0  0  0
    0.8915   -0.1183    0.0000 C   0  0  0  0  0  0  0  0  0  0  0  0
    0.6942   -1.6053    0.0000 O   0  0  0  0  0  0  0  0  0  0  0  0
    2.2779    0.4543    0.0000 C   0  0  0  0  0  0  0  0  0  0  0  0
    3.4670   -0.4600    0.0000 C   0  0  0  0  0  0  0  0  0  0  0  0
    3.2697   -1.9470    0.0000 O   0  0  0  0  0  0  0  0  0  0  0  0
    4.8534    0.1126    0.0000 C   0  0  0  0  0  0  0  0  0  0  0  0
    6.0425   -0.8018    0.0000 C   0  0  0  0  0  0  0  0  0  0  0  0
    7.4289   -0.2292    0.0000 C   0  0  0  0  0  0  0  0  0  0  0  0
    8.6180   -1.1435    0.0000 C   0  0  0  0  0  0  0  0  0  0  0  0
   10.0044   -0.5709    0.0000 C   0  0  0  0  0  0  0  0  0  0  0  0
   10.2017    0.9161    0.0000 C   0  0  0  0  0  0  0  0  0  0  0  0
    9.0126    1.8304    0.0000 C   0  0  0  0  0  0  0  0  0  0  0  0
    7.6262    1.2578    0.0000 C   0  0  0  0  0  0  0  0  0  0  0  0
   -7.0323   -0.5800    0.0000 O   0  0  0  0  0  0  0  0  0  0  0  0
  1  2  2  0
  2  3  1  0
  3  4  2  0
  4  5  1  0
  5  6  1  0
  6  7  1  6
  7  8  2  0
  8  9  1  0
  9 10  1  0
 10 11  1  1
 10 12  1  0
 12 13  1  0
 13 14  1  6
 13 15  1  0
 15 16  1  0
 16 17  1  6
 16 18  1  0
 18 19  2  0
 19 20  1  0
 20 21  2  0
 21 22  1  0
 22 23  2  0
 23 24  1  0
 24 25  2  0
  6 26  1  0
 26  2  1  0
 25 20  1  0
M  END
>  <identifier>  (155) 
CNP0368533.2

>  <canonical_smiles>  (155) 
O=C1C=CC[C@H](/C=C/C[C@H](O)C[C@@H](O)C[C@@H](O)/C=C/C2=CC=CC=C2)O1

>  <standard_inchi>  (155) 
InChI=1S/C21H26O5/c22-17(8-4-9-20-10-5-11-21(25)26-20)14-19(24)15-18(23)13-12-16-6-2-1-3-7-16/h1-7,9,11-13,17-20,22-24H,8,10,14-15H2/b9-4+,13-12+/t17-,18-,19+,20-/m0/s1

>  <standard_inchi_key>  (155) 
HDJDRGQCGAWPGK-KUSHCJQLSA-N

>  <name>  (155) 
nan

>  <iupac_name>  (155) 
(2~{R})-2-[(1~{E},4~{S},6~{R},8~{R},9~{E})-4,6,8-trihydroxy-10-phenyl-deca-1,9-dienyl]-2,3-dihydropyran-6-one

>  <annotation_level>  (155) 
4

>  <total_atom_count>  (155) 
52

>  <heavy_atom_count>  (155) 
26

>  <molecular_weight>  (155) 
358.43

>  <exact_molecular_weight>  (155) 
358.17802

>  <molecular_formula>  (155) 
C21H26O5

>  <alogp>  (155) 
2.38

>  <topological_polar_surface_area>  (155) 
86.99

>  <rotatable_bond_count>  (155) 
9

>  <hydrogen_bond_acceptors>  (155) 
5

>  <hydrogen_bond_donors>  (155) 
3

>  <hydrogen_bond_acceptors_lipinski>  (155) 
5

>  <hydrogen_bond_donors_lipinski>  (155) 
3

>  <lipinski_rule_of_five_violations>  (155) 
0

>  <aromatic_rings_count>  (155) 
1

>  <qed_drug_likeliness>  (155) 
0.47

>  <formal_charge>  (155) 
0

>  <fractioncsp3>  (155) 
0.38

>  <number_of_minimal_rings>  (155) 
2

>  <van_der_walls_volume>  (155) 
338.56

>  <contains_sugar>  (155) 
False

>  <contains_ring_sugars>  (155) 
False

>  <contains_linear_sugars>  (155) 
False

>  <murcko_framework>  (155) 
O1CC=CCC1C=CCCCCCCC=Cc2ccccc2

>  <np_likeness>  (155) 
2.45

>  <chemical_class>  (155) 
Cinnamyl alcohols

>  <chemical_sub_class>  (155) 
Cinnamyl alcohols

>  <chemical_super_class>  (155) 
Phenylpropanoids and polyketides

>  <direct_parent_classification>  (155) 
Cinnamyl alcohols

>  <np_classifier_pathway>  (155) 
Polyketides

>  <np_classifier_superclass>  (155) 
Cyclic polyketides

>  <np_classifier_class>  (155) 
nan

>  <np_classifier_is_glycoside>  (155) 
False

>  <organisms>  (155) 
Cryptocarya moschata

>  <collections>  (155) 
KNApSaCK|Latin America dataset|NuBBEDB|Super Natural II|WikiData Natural Products

>  <dois>  (155) 
10.1002/pca.818|10.1016/S0031-9422(99)00532-4|10.1365/S10337-009-1338-Y

>  <synonyms>  (155) 
Cryptomoscatone F1|Cryptomoscatone F1, 56-dihydro-6-[(4'S6'R8'R1'E9'E)-4'6'8'-trihydroxy-10'-phenyl-1'9'-decadienyl]-2-pyrone

>  <cas>  (155) 
nan

$$$$

     RDKit          2D

 23 25  0  0  0  0  0  0  0  0999 V2000
   -6.7296    2.2455    0.0000 C   0  0  0  0  0  0  0  0  0  0  0  0
   -6.3248    0.8012    0.0000 O   0  0  0  0  0  0  0  0  0  0  0  0
   -4.8715    0.4296    0.0000 C   0  0  0  0  0  0  0  0  0  0  0  0
   -3.8231    1.5023    0.0000 C   0  0  0  0  0  0  0  0  0  0  0  0
   -2.3698    1.1307    0.0000 C   0  0  0  0  0  0  0  0  0  0  0  0
   -1.9651   -0.3137    0.0000 C   0  0  0  0  0  0  0  0  0  0  0  0
   -0.5118   -0.6853    0.0000 C   0  0  0  0  0  0  0  0  0  0  0  0
   -0.1070   -2.1296    0.0000 C   0  0  0  0  0  0  0  0  0  0  0  0
    1.3462   -2.5013    0.0000 O   0  0  0  0  0  0  0  0  0  0  0  0
    2.3947   -1.4285    0.0000 C   0  0  0  0  0  0  0  0  0  0  0  0
    3.8479   -1.8001    0.0000 C   0  0  0  0  0  0  0  0  0  0  0  0
    4.8963   -0.7274    0.0000 C   0  0  0  0  0  0  0  0  0  0  0  0
    6.3496   -1.0990    0.0000 O   0  0  0  0  0  0  0  0  0  0  0  0
    4.4916    0.7169    0.0000 C   0  0  0  0  0  0  0  0  0  0  0  0
    5.5400    1.7897    0.0000 O   0  0  0  0  0  0  0  0  0  0  0  0
    5.1352    3.2340    0.0000 C   0  0  0  0  0  0  0  0  0  0  0  0
    3.0383    1.0886    0.0000 C   0  0  0  0  0  0  0  0  0  0  0  0
    1.9899    0.0158    0.0000 C   0  0  0  0  0  0  0  0  0  0  0  0
    0.5366    0.3874    0.0000 C   0  0  0  0  0  0  0  0  0  0  0  0
    0.1318    1.8318    0.0000 O   0  0  0  0  0  0  0  0  0  0  0  0
   -3.0135   -1.3864    0.0000 C   0  0  0  0  0  0  0  0  0  0  0  0
   -4.4667   -1.0148    0.0000 C   0  0  0  0  0  0  0  0  0  0  0  0
   -5.5152   -2.0875    0.0000 O   0  0  0  0  0  0  0  0  0  0  0  0
  1  2  1  0
  2  3  1  0
  3  4  2  0
  4  5  1  0
  5  6  2  0
  6  7  1  0
  7  8  2  0
  8  9  1  0
  9 10  1  0
 10 11  2  0
 11 12  1  0
 12 13  1  0
 12 14  2  0
 14 15  1  0
 15 16  1  0
 14 17  1  0
 17 18  2  0
 18 19  1  0
 19 20  2  0
  6 21  1  0
 21 22  2  0
 22 23  1  0
 22  3  1  0
 19  7  1  0
 18 10  1  0
M  END
>  <identifier>  (156) 
CNP0170235.0

>  <canonical_smiles>  (156) 
COC1=CC=C(C2=COC3=CC(O)=C(OC)C=C3C2=O)C=C1O

>  <standard_inchi>  (156) 
InChI=1S/C17H14O6/c1-21-14-4-3-9(5-12(14)18)11-8-23-15-7-13(19)16(22-2)6-10(15)17(11)20/h3-8,18-19H,1-2H3

>  <standard_inchi_key>  (156) 
BYNYZQQDQIQLSO-UHFFFAOYSA-N

>  <name>  (156) 
Odoratin

>  <iupac_name>  (156) 
7-hydroxy-3-(3-hydroxy-4-methoxy-phenyl)-6-methoxy-chromen-4-one

>  <annotation_level>  (156) 
5

>  <total_atom_count>  (156) 
37

>  <heavy_atom_count>  (156) 
23

>  <molecular_weight>  (156) 
314.29

>  <exact_molecular_weight>  (156) 
314.07904

>  <molecular_formula>  (156) 
C17H14O6

>  <alogp>  (156) 
2.89

>  <topological_polar_surface_area>  (156) 
89.13

>  <rotatable_bond_count>  (156) 
3

>  <hydrogen_bond_acceptors>  (156) 
6

>  <hydrogen_bond_donors>  (156) 
2

>  <hydrogen_bond_acceptors_lipinski>  (156) 
6

>  <hydrogen_bond_donors_lipinski>  (156) 
2

>  <lipinski_rule_of_five_violations>  (156) 
0

>  <aromatic_rings_count>  (156) 
3

>  <qed_drug_likeliness>  (156) 
0.77

>  <formal_charge>  (156) 
0

>  <fractioncsp3>  (156) 
0.12

>  <number_of_minimal_rings>  (156) 
3

>  <van_der_walls_volume>  (156) 
265.99

>  <contains_sugar>  (156) 
False

>  <contains_ring_sugars>  (156) 
False

>  <contains_linear_sugars>  (156) 
False

>  <murcko_framework>  (156) 
O1C=C(c2ccccc2)Cc3ccccc13

>  <np_likeness>  (156) 
0.87

>  <chemical_class>  (156) 
Isoflavonoids

>  <chemical_sub_class>  (156) 
O-methylated isoflavonoids

>  <chemical_super_class>  (156) 
Phenylpropanoids and polyketides

>  <direct_parent_classification>  (156) 
3'-hydroxy,4'-methoxyisoflavonoids

>  <np_classifier_pathway>  (156) 
Shikimates and Phenylpropanoids

>  <np_classifier_superclass>  (156) 
Isoflavonoids

>  <np_classifier_class>  (156) 
Isoflavones

>  <np_classifier_is_glycoside>  (156) 
False

>  <organisms>  (156) 
Astragalus membranaceus|Astragalus mongholicus|Astragalus trimestris|Bitter bush|Bowdichia virgilioides|Caragana sinica|Caulis millettiae|Caulis spatholobi|Chromolaena odorata|Dalbergia frutescens|Dalbergia louvelii|Dalbergia parviflora|Dipteryx odorata|Odontites serotina|Odontites vernus subsp. serotinus|Pterodon apparicioi|Wisteria brachybotrys|liquorice

>  <collections>  (156) 
AnalytiCon Discovery NPs|CMAUP (cCollective molecular activities of useful plants)|GNPS (Global Natural Products Social Molecular Networking)|Latin America dataset|NPASS|NPEdia|NuBBEDB|Super Natural II|TCMDB-Taiwan (Traditional Chinese Medicine database)|TCMID (Traditional Chinese Medicine Integrated Database)|UNPD (Universal Natural Products Database)|WikiData Natural Products|ZINC NP

>  <dois>  (156) 
10.1002/(SICI)1099-1573(199712)11:8<603::AID-PTR161>3.0.CO;2-U|10.1002/(SICI)1099-1573(19980201)12:1<59::AID-PTR182>3.0.CO;2-R|10.1002/CHIN.200552195|10.1002/chin.200552195|10.1016/0031-9422(88)80628-9|10.1016/J.PHYTOCHEM.2007.07.011|10.1016/S0031-9422(00)86942-3|10.1016/S0031-9422(98)00623-2|10.1016/S0367-326X(99)00084-2|10.1021/NP000010D|10.1021/NP030008X|10.1021/NP300386D|10.1021/np000010d|10.1021/np300386d|10.1248/CPB.53.740

>  <synonyms>  (156) 
3',7-dihydroxy-4',6-dimethoxyisoflavone|3'7-Dihidroxy-4'6-dimethoxyisoflavone Odoratin|53948-00-8|7-hydroxy-3-(3-hydroxy-4-methoxyphenyl)-6-methoxychromen-4-one|BDBM50441625|CHEBI:229865|CHEMBL469824|LMPK12050113|NCGC00385697-01!7-hydroxy-3-(3-hydroxy-4-methoxyphenyl)-6-methoxychromen-4-one|Odoratin|SCHEMBL1248967

>  <cas>  (156) 
53948-00-8

$$$$

     RDKit          2D

 28 30  0  0  0  0  0  0  0  0999 V2000
   -6.4489    3.0460    0.0000 C   0  0  0  0  0  0  0  0  0  0  0  0
   -6.1321    1.5798    0.0000 O   0  0  0  0  0  0  0  0  0  0  0  0
   -4.7039    1.1211    0.0000 C   0  0  0  0  0  0  0  0  0  0  0  0
   -3.5926    2.1285    0.0000 C   0  0  0  0  0  0  0  0  0  0  0  0
   -2.1645    1.6698    0.0000 C   0  0  0  0  0  0  0  0  0  0  0  0
   -1.8477    0.2036    0.0000 C   0  0  0  0  0  0  0  0  0  0  0  0
   -0.4195   -0.2551    0.0000 C   0  0  0  0  0  0  0  0  0  0  0  0
   -0.1027   -1.7212    0.0000 C   0  0  0  0  0  0  0  0  0  0  0  0
   -1.2141   -2.7287    0.0000 O   0  0  0  0  0  0  0  0  0  0  0  0
   -2.6422   -2.2700    0.0000 C   0  0  0  0  0  0  0  0  0  0  0  0
    1.3254   -2.1800    0.0000 C   0  0  0  0  0  0  0  0  0  0  0  0
    1.6422   -3.6461    0.0000 O   0  0  0  0  0  0  0  0  0  0  0  0
    2.4367   -1.1725    0.0000 C   0  0  0  0  0  0  0  0  0  0  0  0
    3.8649   -1.6312    0.0000 C   0  0  0  0  0  0  0  0  0  0  0  0
    4.1817   -3.0974    0.0000 O   0  0  0  0  0  0  0  0  0  0  0  0
    4.9762   -0.6238    0.0000 C   0  0  0  0  0  0  0  0  0  0  0  0
    4.6594    0.8424    0.0000 C   0  0  0  0  0  0  0  0  0  0  0  0
    5.7707    1.8498    0.0000 O   0  0  0  0  0  0  0  0  0  0  0  0
    7.1989    1.3911    0.0000 C   0  0  0  0  0  0  0  0  0  0  0  0
    3.2313    1.3011    0.0000 C   0  0  0  0  0  0  0  0  0  0  0  0
    2.9145    2.7673    0.0000 O   0  0  0  0  0  0  0  0  0  0  0  0
    4.0258    3.7747    0.0000 C   0  0  0  0  0  0  0  0  0  0  0  0
    2.1199    0.2936    0.0000 C   0  0  0  0  0  0  0  0  0  0  0  0
    0.6918    0.7524    0.0000 O   0  0  0  0  0  0  0  0  0  0  0  0
   -2.9590   -0.8038    0.0000 C   0  0  0  0  0  0  0  0  0  0  0  0
   -4.3871   -0.3451    0.0000 C   0  0  0  0  0  0  0  0  0  0  0  0
   -5.4985   -1.3525    0.0000 O   0  0  0  0  0  0  0  0  0  0  0  0
   -6.9266   -0.8938    0.0000 C   0  0  0  0  0  0  0  0  0  0  0  0
  1  2  1  0
  2  3  1  0
  3  4  2  0
  4  5  1  0
  5  6  2  0
  6  7  1  0
  7  8  2  0
  8  9  1  0
  9 10  1  0
  8 11  1  0
 11 12  2  0
 11 13  1  0
 13 14  2  0
 14 15  1  0
 14 16  1  0
 16 17  2  0
 17 18  1  0
 18 19  1  0
 17 20  1  0
 20 21  1  0
 21 22  1  0
 20 23  2  0
 23 24  1  0
  6 25  1  0
 25 26  2  0
 26 27  1  0
 27 28  1  0
 26  3  1  0
 24  7  1  0
 23 13  1  0
M  END
>  <identifier>  (157) 
CNP0111603.0

>  <canonical_smiles>  (157) 
COC1=CC=C(C2=C(OC)C(=O)C3=C(O)C=C(OC)C(OC)=C3O2)C=C1OC

>  <standard_inchi>  (157) 
InChI=1S/C20H20O8/c1-23-12-7-6-10(8-13(12)24-2)17-20(27-5)16(22)15-11(21)9-14(25-3)18(26-4)19(15)28-17/h6-9,21H,1-5H3

>  <standard_inchi_key>  (157) 
NPMMYTVKEWLZKD-UHFFFAOYSA-N

>  <name>  (157) 
5-Hydroxy-3,7,8,3',4'-pentamethoxyflavone

>  <iupac_name>  (157) 
2-(3,4-dimethoxyphenyl)-5-hydroxy-3,7,8-trimethoxy-chromen-4-one

>  <annotation_level>  (157) 
5

>  <total_atom_count>  (157) 
48

>  <heavy_atom_count>  (157) 
28

>  <molecular_weight>  (157) 
388.37

>  <exact_molecular_weight>  (157) 
388.11582

>  <molecular_formula>  (157) 
C20H20O8

>  <alogp>  (157) 
3.21

>  <topological_polar_surface_area>  (157) 
96.59

>  <rotatable_bond_count>  (157) 
6

>  <hydrogen_bond_acceptors>  (157) 
8

>  <hydrogen_bond_donors>  (157) 
1

>  <hydrogen_bond_acceptors_lipinski>  (157) 
8

>  <hydrogen_bond_donors_lipinski>  (157) 
1

>  <lipinski_rule_of_five_violations>  (157) 
0

>  <aromatic_rings_count>  (157) 
3

>  <qed_drug_likeliness>  (157) 
0.69

>  <formal_charge>  (157) 
0

>  <fractioncsp3>  (157) 
0.25

>  <number_of_minimal_rings>  (157) 
3

>  <van_der_walls_volume>  (157) 
332.51

>  <contains_sugar>  (157) 
False

>  <contains_ring_sugars>  (157) 
False

>  <contains_linear_sugars>  (157) 
False

>  <murcko_framework>  (157) 
O1c2ccccc2CC=C1c3ccccc3

>  <np_likeness>  (157) 
1.10

>  <chemical_class>  (157) 
Flavonoids

>  <chemical_sub_class>  (157) 
O-methylated flavonoids

>  <chemical_super_class>  (157) 
Phenylpropanoids and polyketides

>  <direct_parent_classification>  (157) 
3-O-methylated flavonoids

>  <np_classifier_pathway>  (157) 
Shikimates and Phenylpropanoids

>  <np_classifier_superclass>  (157) 
Flavonoids

>  <np_classifier_class>  (157) 
Flavonols

>  <np_classifier_is_glycoside>  (157) 
False

>  <organisms>  (157) 
Cistus albanicus|Citrus reticulata|Citrus sinensis|Citrus × deliciosa|Cyanostegia spp.|Helichrysum foetidum|Knema glomerata|Micromelum zeylanicum|Murraya paniculata|Ozothamnus lycopodioides|Ricinocarpos stylosus|Simaba orinocensis|Solanum paludosum

>  <collections>  (157) 
Australian natural products|FooDB|KNApSaCK|Latin America dataset|NPASS|NPEdia|NuBBEDB|Super Natural II|TIPdb (database of Taiwan indigenous plants)|UNPD (Universal Natural Products Database)|WikiData Natural Products|ZINC NP

>  <dois>  (157) 
10.1016/J.JPBA.2019.03.056|10.1016/S0031-9422(00)82492-9|10.1016/S0031-9422(97)00598-0|10.1016/S0305-1978(01)00105-3|10.1016/s0031-9422(97)00598-0|10.1021/NP50105A007|10.1021/np50105a007|10.1071/ch9640934c

>  <synonyms>  (157) 
2-(3,4-DIMETHOXYPHENYL)-5-HYDROXY-3,7,8-TRIMETHOXYCHROMEN-4-ONE|2-(3,4-Dimethoxyphenyl)-5-hydroxy-3,7,8-trimethoxy-4H-1-benzopyran-4-one|3,3',4',7,8-Pentamethylgossypetin|5-Hydroxy-3,3',4',7,8-pentamethoxyflavone|5-hydroxy-3783'4'-pentamethoxyflavone|CHEBI:175927|CHEMBL479326|Gossypetin 3,7,8,3',4'-pentamethyl ether|LMPK12113254|SCHEMBL1764425

>  <cas>  (157) 
nan

$$$$

     RDKit          2D

 25 28  0  0  0  0  0  0  0  0999 V2000
   -6.6301   -1.2203    0.0000 C   0  0  0  0  0  0  0  0  0  0  0  0
   -5.7518   -0.0043    0.0000 C   0  0  0  0  0  0  0  0  0  0  0  0
   -7.1018    0.6494    0.0000 C   0  0  0  0  0  0  0  0  0  0  0  0
   -5.3424    1.4387    0.0000 C   0  0  0  0  0  0  0  0  0  0  0  0
   -3.8880    1.8057    0.0000 C   0  0  0  0  0  0  0  0  0  0  0  0
   -2.8430    0.7296    0.0000 C   0  0  0  0  0  0  0  0  0  0  0  0
   -3.2524   -0.7134    0.0000 C   0  0  0  0  0  0  0  0  0  0  0  0
   -2.2074   -1.7895    0.0000 C   0  0  0  0  0  0  0  0  0  0  0  0
   -0.7529   -1.4225    0.0000 C   0  0  0  0  0  0  0  0  0  0  0  0
    0.2921   -2.4986    0.0000 O   0  0  0  0  0  0  0  0  0  0  0  0
    1.7465   -2.1317    0.0000 C   0  0  0  0  0  0  0  0  0  0  0  0
    2.1559   -0.6886    0.0000 C   0  0  0  0  0  0  0  0  0  0  0  0
    3.6103   -0.3216    0.0000 C   0  0  0  0  0  0  0  0  0  0  0  0
    4.6553   -1.3977    0.0000 C   0  0  0  0  0  0  0  0  0  0  0  0
    6.1098   -1.0307    0.0000 C   0  0  0  0  0  0  0  0  0  0  0  0
    6.5192    0.4123    0.0000 C   0  0  0  0  0  0  0  0  0  0  0  0
    7.9736    0.7793    0.0000 O   0  0  0  0  0  0  0  0  0  0  0  0
    5.4741    1.4884    0.0000 C   0  0  0  0  0  0  0  0  0  0  0  0
    4.0197    1.1214    0.0000 C   0  0  0  0  0  0  0  0  0  0  0  0
    1.1109    0.3875    0.0000 C   0  0  0  0  0  0  0  0  0  0  0  0
    1.5203    1.8305    0.0000 O   0  0  0  0  0  0  0  0  0  0  0  0
   -0.3435    0.0205    0.0000 C   0  0  0  0  0  0  0  0  0  0  0  0
   -1.3885    1.0966    0.0000 C   0  0  0  0  0  0  0  0  0  0  0  0
   -0.9791    2.5396    0.0000 O   0  0  0  0  0  0  0  0  0  0  0  0
   -4.7068   -1.0804    0.0000 O   0  0  0  0  0  0  0  0  0  0  0  0
  1  2  1  0
  2  3  1  0
  2  4  1  0
  4  5  2  0
  5  6  1  0
  6  7  2  0
  7  8  1  0
  8  9  2  0
  9 10  1  0
 10 11  1  0
 11 12  2  0
 12 13  1  0
 13 14  2  0
 14 15  1  0
 15 16  2  0
 16 17  1  0
 16 18  1  0
 18 19  2  0
 12 20  1  0
 20 21  2  0
 20 22  1  0
 22 23  2  0
 23 24  1  0
  7 25  1  0
 25  2  1  0
 23  6  1  0
 22  9  1  0
 19 13  1  0
M  END
>  <identifier>  (158) 
CNP0115115.0

>  <canonical_smiles>  (158) 
CC1(C)C=CC2=C(C=C3OC=C(C4=CC=C(O)C=C4)C(=O)C3=C2O)O1

>  <standard_inchi>  (158) 
InChI=1S/C20H16O5/c1-20(2)8-7-13-15(25-20)9-16-17(18(13)22)19(23)14(10-24-16)11-3-5-12(21)6-4-11/h3-10,21-22H,1-2H3

>  <standard_inchi_key>  (158) 
RQAMSFTXEFSBPK-UHFFFAOYSA-N

>  <name>  (158) 
Alpinumisoflavone

>  <iupac_name>  (158) 
5-hydroxy-7-(4-hydroxyphenyl)-2,2-dimethyl-pyrano[3,2-g]chromen-6-one

>  <annotation_level>  (158) 
5

>  <total_atom_count>  (158) 
41

>  <heavy_atom_count>  (158) 
25

>  <molecular_weight>  (158) 
336.34

>  <exact_molecular_weight>  (158) 
336.09977

>  <molecular_formula>  (158) 
C20H16O5

>  <alogp>  (158) 
4.06

>  <topological_polar_surface_area>  (158) 
79.90

>  <rotatable_bond_count>  (158) 
1

>  <hydrogen_bond_acceptors>  (158) 
5

>  <hydrogen_bond_donors>  (158) 
2

>  <hydrogen_bond_acceptors_lipinski>  (158) 
5

>  <hydrogen_bond_donors_lipinski>  (158) 
2

>  <lipinski_rule_of_five_violations>  (158) 
0

>  <aromatic_rings_count>  (158) 
3

>  <qed_drug_likeliness>  (158) 
0.70

>  <formal_charge>  (158) 
0

>  <fractioncsp3>  (158) 
0.15

>  <number_of_minimal_rings>  (158) 
4

>  <van_der_walls_volume>  (158) 
288.54

>  <contains_sugar>  (158) 
False

>  <contains_ring_sugars>  (158) 
False

>  <contains_linear_sugars>  (158) 
False

>  <murcko_framework>  (158) 
O1C=C(c2ccccc2)Cc3cc4C=CCOc4cc13

>  <np_likeness>  (158) 
2.26

>  <chemical_class>  (158) 
Isoflavonoids

>  <chemical_sub_class>  (158) 
Isoflav-2-enes

>  <chemical_super_class>  (158) 
Phenylpropanoids and polyketides

>  <direct_parent_classification>  (158) 
Isoflavones

>  <np_classifier_pathway>  (158) 
Shikimates and Phenylpropanoids

>  <np_classifier_superclass>  (158) 
Isoflavonoids

>  <np_classifier_class>  (158) 
Isoflavanones

>  <np_classifier_is_glycoside>  (158) 
False

>  <organisms>  (158) 
Abelia chinensis|Amaranthus spinosus|Aplophyllum alberti-regelii|Asimina parviflora|Atraphaxis spinosa|Baccharis neglecta|Centaurea maculosa|Chionodoxa gigantea|Chlorophora tinctoria|Chondrodendron tomentosum|Clerodendrum bungei|Conus mus|Cordia leucocephala|Crassostrea virginica|Cudrania cochinchinensis|Dendronephthya griffini|Derris|Derris eriocarpa|Derris sp.|Diospyros assimilis|Dolabella californica|Embelia parviflora|Embelia schimperi|Ephedra sinica|Epilobium hirsutum|Eria anomala|Erycibe expansa|Erysimum leptophyllum|Erythrina Variegata|Erythrina afra|Erythrina arborescens|Erythrina indica|Erythrina lysistemon|Erythrina melanacantha|Erythrina mildbraedii|Erythrina poeppigiana|Erythrina senegalensis|Erythrina suberosa|Erythrina variegata|Erythrina vespertilio|Esenbeckia leiocarpa|Euphorbia nematocypha|Faramea salicifolia|Ficus cordata|Ficus glumosa|Ficus mucuso|Ficus nervosa|Ficus nymphaeifolia|Genista ephedroides|Glycyrrhiza inflata|Gymnocalycium schickendantzii|Haplophyllum obtusifolium|Helichrysum tenuifolium|Hypericum styphelioides|Laburnum anagyroides|Latrunculia magnifica|Lemaireocereus longispinus|Lupinus albus|Lupinus luteus|Lycogala epidendrum|Lythrum salicaria|Maclura cochinchinensis|Maclura pomifera|Macrocentrus cingulum|Megaselia flavescens|Millettia pachycarpa|Millettia thonningii|Monsonia senegalensis|Morella rubra|Myxococcus stipitatus|Onopordum acanthium|Osmundaria fimbriata|Pancratium sickenbergeri|Piper dilatatum|Piper regnellii|Planchonia grandis|Plathymenia reticulata|Pteridium esculentum|Rhinella marina|Rissoella verruculosa|Shigella dysenteriae|Simarouba glauca|Siphonaria capensis|Smallanthus fruticosus|Sophora Flavescens|Sophora flavescens|Syzygium polycephaloides|Tephrosia watsoniana|Theonella conica|Tricholoma columbetta|Ulex airensis|Usnea japonica|Vellozia nanuzae|Vernonia fagifolia|ulex europaeus ssp. europaeus

>  <collections>  (158) 
ANPDB|AfroDB|AnalytiCon Discovery NPs|Australian natural products|CMAUP (cCollective molecular activities of useful plants)|ChEBI NPs|ConMedNP|Latin America dataset|NANPDB (Natural Products from Northern African Sources)|NPACT|NPASS|NPEdia|NuBBEDB|SANCDB|Super Natural II|TCMDB-Taiwan (Traditional Chinese Medicine database)|TCMID (Traditional Chinese Medicine Integrated Database)|TIPdb (database of Taiwan indigenous plants)|UNPD (Universal Natural Products Database)|VietHerb|WikiData Natural Products|ZINC NP|p-ANAPL

>  <dois>  (158) 
10.1002/CBDV.200900227|10.1002/JCCS.199600077|10.1002/PTR.2650090603|10.1002/PTR.3159|10.1002/ptr.3159|10.1016/0031-9422(83)85041-9|10.1016/0031-9422(94)00971-U|10.1016/0031-9422(95)00029-7|10.1016/0378-8741(86)90156-X|10.1016/J.BMC.2017.05.009|10.1016/J.JEP.2008.06.025|10.1016/J.JEP.2008.07.026|10.1016/S0031-9422(00)00441-6|10.1016/S0031-9422(01)00368-5|10.1016/S0031-9422(02)00202-9|10.1016/S0031-9422(02)00671-4|10.1016/S0031-9422(99)00019-9|10.1016/S0031-9422(99)00171-5|10.1016/j.bmc.2017.05.009|10.1021/NP000406P|10.1021/NP010147J|10.1021/NP0101696|10.1021/NP030554Q|10.1021/NP0601861|10.1021/NP100896W|10.1021/NP900271M|10.1021/NP980112S|10.1055/S-0031-1298310|10.1055/S-2000-8602|10.1055/S-2001-18852|10.1055/s-0031-1298310|10.1515/ZNC-1983-3-407|10.1515/ZNC-1991-5-602|10.1590/1809-43921982123615|10.1590/S0103-50532012000300015|10.3987/COM-01-9346|10.3987/COM-98-8334

>  <synonyms>  (158) 
2H,6H-Benzodipyran-6-one, 5-hydroxy-7-(4-hydroxyphenyl)-2,2-dimethyl-|34086-50-5|5-HYDROXY-3-(4-HYDROXYPHENYL)-8,8-DIMETHYLPYRANO(3,2-G)CHROMEN-4-ONE|5-Hydroxy-7-(p-hydroxyphenyl)-2,2-dimethyl-2H,6H-benzodipyran-6-one|5-hydroxy-7-(4-hydroxyphenyl)-2,2-dimethyl-2h,6h-benzo[1,2-b:5,4-b']dipyran-6-one|5-hydroxy-7-(4-hydroxyphenyl)-2,2-dimethylpyrano[3,2-g]chromen-6-one|6Q33HOF94Z|AKOS032962128|Alpinum Isoflavone|B0005-188629|BDBM50200542|CHEBI:69746|CHEMBL238628|DTXSID00187683|FS-9772|GLXC-17501|InChI=1\/C20H16O5\/c1-20(2)8-7-13-15(25-20)9-16-17(18(13)22)19(23)14(10-24-16)11-3-5-12(21)6-4-11\/h3-10,21-22H,1-2H|LMPK12050202|NSC775898|Q4735614|SCHEMBL571695|UNII-6Q33HOF94Z|XA161646|alpinumisoflavone

>  <cas>  (158) 
34086-50-5

$$$$

     RDKit          2D

 28 32  0  0  0  0  0  0  0  0999 V2000
   -3.1058   -5.6837    0.0000 C   0  0  0  0  0  0  0  0  0  0  0  0
   -2.3603   -4.3821    0.0000 C   0  0  0  0  0  0  0  0  0  0  0  0
   -0.8603   -4.3770    0.0000 C   0  0  0  0  0  0  0  0  0  0  0  0
   -3.1147   -3.0857    0.0000 C   0  0  0  0  0  0  0  0  0  0  0  0
   -2.3692   -1.7841    0.0000 C   0  0  0  0  0  0  0  0  0  0  0  0
   -0.8779   -1.6222    0.0000 C   0  0  0  0  0  0  0  0  0  0  0  0
   -0.5711   -0.1539    0.0000 C   0  0  0  0  0  0  0  0  0  0  0  0
    0.0343    1.2185    0.0000 C   0  0  0  0  0  0  0  0  0  0  0  0
    0.8571   -0.6125    0.0000 C   0  0  0  0  0  0  0  0  0  0  0  0
    1.9683    0.3950    0.0000 C   0  0  0  0  0  0  0  0  0  0  0  0
    3.3965   -0.0637    0.0000 C   0  0  0  0  0  0  0  0  0  0  0  0
    3.7134   -1.5298    0.0000 C   0  0  0  0  0  0  0  0  0  0  0  0
    5.1416   -1.9884    0.0000 C   0  0  0  0  0  0  0  0  0  0  0  0
    6.2528   -0.9809    0.0000 C   0  0  0  0  0  0  0  0  0  0  0  0
    5.9359    0.4852    0.0000 C   0  0  0  0  0  0  0  0  0  0  0  0
    4.5078    0.9439    0.0000 C   0  0  0  0  0  0  0  0  0  0  0  0
    4.5026    2.4438    0.0000 N   0  0  0  0  0  0  0  0  0  0  0  0
    5.9276    2.9123    0.0000 C   0  0  0  0  0  0  0  0  0  0  0  0
    6.8135    1.7018    0.0000 C   0  0  0  0  0  0  0  0  0  0  0  0
   -1.8727    0.5917    0.0000 C   0  0  0  0  0  0  0  0  0  0  0  0
   -2.1896    2.0578    0.0000 C   0  0  0  0  0  0  0  0  0  0  0  0
   -3.6178    2.5164    0.0000 C   0  0  0  0  0  0  0  0  0  0  0  0
   -4.7290    1.5089    0.0000 C   0  0  0  0  0  0  0  0  0  0  0  0
   -6.0306    2.2545    0.0000 C   0  0  0  0  0  0  0  0  0  0  0  0
   -5.7238    3.7228    0.0000 C   0  0  0  0  0  0  0  0  0  0  0  0
   -4.2325    3.8847    0.0000 N   0  0  0  0  0  0  0  0  0  0  0  0
   -4.4121    0.0428    0.0000 C   0  0  0  0  0  0  0  0  0  0  0  0
   -2.9840   -0.4159    0.0000 C   0  0  0  0  0  0  0  0  0  0  0  0
  1  2  1  0
  2  3  1  0
  2  4  2  0
  5  4  1  6
  5  6  1  0
  6  7  1  0
  7  8  1  6
  7  9  1  0
  9 10  2  0
 10 11  1  0
 11 12  2  0
 12 13  1  0
 13 14  2  0
 14 15  1  0
 15 16  2  0
 16 17  1  0
 17 18  1  0
 18 19  1  0
  7 20  1  0
 20 21  2  0
 21 22  1  0
 22 23  2  0
 23 24  1  0
 24 25  2  0
 25 26  1  0
 23 27  1  0
 27 28  2  0
 28  5  1  0
 16 11  1  0
 28 20  1  0
 19 15  1  0
 26 22  1  0
M  END
>  <identifier>  (159) 
CNP0170619.1

>  <canonical_smiles>  (159) 
CC(C)=C[C@H]1C[C@](C)(/C=C/C2=CC=CC3=C2NCC3)C2=CC3=C(C=CN3)C=C21

>  <standard_inchi>  (159) 
InChI=1S/C26H28N2/c1-17(2)13-21-16-26(3,23-15-24-20(9-11-27-24)14-22(21)23)10-7-18-5-4-6-19-8-12-28-25(18)19/h4-7,9-11,13-15,21,27-28H,8,12,16H2,1-3H3/b10-7+/t21-,26-/m0/s1

>  <standard_inchi_key>  (159) 
GKHRETADSMOCEN-CSEYZPLKSA-N

>  <name>  (159) 
nan

>  <iupac_name>  (159) 
(5~{R},7~{R})-7-[(~{E})-2-indolin-7-ylvinyl]-7-methyl-5-(2-methylprop-1-enyl)-5,6-dihydro-1~{H}-cyclopenta[f]indole

>  <annotation_level>  (159) 
4

>  <total_atom_count>  (159) 
56

>  <heavy_atom_count>  (159) 
28

>  <molecular_weight>  (159) 
368.52

>  <exact_molecular_weight>  (159) 
368.22525

>  <molecular_formula>  (159) 
C26H28N2

>  <alogp>  (159) 
6.56

>  <topological_polar_surface_area>  (159) 
27.82

>  <rotatable_bond_count>  (159) 
3

>  <hydrogen_bond_acceptors>  (159) 
1

>  <hydrogen_bond_donors>  (159) 
2

>  <hydrogen_bond_acceptors_lipinski>  (159) 
1

>  <hydrogen_bond_donors_lipinski>  (159) 
2

>  <lipinski_rule_of_five_violations>  (159) 
1

>  <aromatic_rings_count>  (159) 
3

>  <qed_drug_likeliness>  (159) 
0.50

>  <formal_charge>  (159) 
0

>  <fractioncsp3>  (159) 
0.31

>  <number_of_minimal_rings>  (159) 
5

>  <van_der_walls_volume>  (159) 
nan

>  <contains_sugar>  (159) 
False

>  <contains_ring_sugars>  (159) 
False

>  <contains_linear_sugars>  (159) 
False

>  <murcko_framework>  (159) 
c1cc(C=CC2c3cc4[nH]ccc4cc3CC2)c5NCCc5c1

>  <np_likeness>  (159) 
1.02

>  <chemical_class>  (159) 
Indoles and derivatives

>  <chemical_sub_class>  (159) 
Indoles

>  <chemical_super_class>  (159) 
Organoheterocyclic compounds

>  <direct_parent_classification>  (159) 
Indoles

>  <np_classifier_pathway>  (159) 
Alkaloids

>  <np_classifier_superclass>  (159) 
Tryptophan alkaloids

>  <np_classifier_class>  (159) 
Simple indole alkaloids

>  <np_classifier_is_glycoside>  (159) 
False

>  <organisms>  (159) 
Raputia megalantha|Raputia simulans

>  <collections>  (159) 
Latin America dataset|NuBBEDB|WikiData Natural Products|ZINC NP

>  <dois>  (159) 
10.1590/S0103-50532011000700021

>  <synonyms>  (159) 
Raputindole B

>  <cas>  (159) 
nan

$$$$

     RDKit          2D

 21 22  0  0  0  0  0  0  0  0999 V2000
    0.2386   -1.8747    0.0000 O   0  0  0  0  0  0  0  0  0  0  0  0
    0.5467   -0.4067    0.0000 C   0  0  0  0  0  0  0  0  0  0  0  0
    1.9721    0.0605    0.0000 C   0  0  0  0  0  0  0  0  0  0  0  0
    3.0894   -0.9403    0.0000 C   0  0  0  0  0  0  0  0  0  0  0  0
    4.5148   -0.4731    0.0000 C   0  0  0  0  0  0  0  0  0  0  0  0
    5.6321   -1.4740    0.0000 C   0  0  0  0  0  0  0  0  0  0  0  0
    7.0575   -1.0068    0.0000 C   0  0  0  0  0  0  0  0  0  0  0  0
    7.3656    0.4612    0.0000 C   0  0  0  0  0  0  0  0  0  0  0  0
    8.7910    0.9284    0.0000 O   0  0  0  0  0  0  0  0  0  0  0  0
    6.2483    1.4621    0.0000 C   0  0  0  0  0  0  0  0  0  0  0  0
    4.8229    0.9949    0.0000 C   0  0  0  0  0  0  0  0  0  0  0  0
   -0.5706    0.5942    0.0000 N   0  0  0  0  0  0  0  0  0  0  0  0
   -1.9960    0.1270    0.0000 C   0  0  0  0  0  0  0  0  0  0  0  0
   -3.1133    1.1278    0.0000 C   0  0  0  0  0  0  0  0  0  0  0  0
   -4.5386    0.6606    0.0000 C   0  0  0  0  0  0  0  0  0  0  0  0
   -5.6559    1.6614    0.0000 C   0  0  0  0  0  0  0  0  0  0  0  0
   -7.0813    1.1943    0.0000 C   0  0  0  0  0  0  0  0  0  0  0  0
   -7.3894   -0.2738    0.0000 C   0  0  0  0  0  0  0  0  0  0  0  0
   -8.8148   -0.7409    0.0000 O   0  0  0  0  0  0  0  0  0  0  0  0
   -6.2721   -1.2746    0.0000 C   0  0  0  0  0  0  0  0  0  0  0  0
   -4.8467   -0.8074    0.0000 C   0  0  0  0  0  0  0  0  0  0  0  0
  1  2  2  0
  2  3  1  0
  3  4  2  0
  4  5  1  0
  5  6  2  0
  6  7  1  0
  7  8  2  0
  8  9  1  0
  8 10  1  0
 10 11  2  0
  2 12  1  0
 12 13  1  0
 13 14  1  0
 14 15  1  0
 15 16  2  0
 16 17  1  0
 17 18  2  0
 18 19  1  0
 18 20  1  0
 20 21  2  0
 11  5  1  0
 21 15  1  0
M  END
>  <identifier>  (160) 
CNP0182970.1

>  <canonical_smiles>  (160) 
O=C(/C=C/C1=CC=C(O)C=C1)NCCC1=CC=C(O)C=C1

>  <standard_inchi>  (160) 
InChI=1S/C17H17NO3/c19-15-6-1-13(2-7-15)5-10-17(21)18-12-11-14-3-8-16(20)9-4-14/h1-10,19-20H,11-12H2,(H,18,21)/b10-5+

>  <standard_inchi_key>  (160) 
RXGUTQNKCXHALN-BJMVGYQFSA-N

>  <name>  (160) 
nan

>  <iupac_name>  (160) 
nan

>  <annotation_level>  (160) 
0

>  <total_atom_count>  (160) 
38

>  <heavy_atom_count>  (160) 
21

>  <molecular_weight>  (160) 
283.33

>  <exact_molecular_weight>  (160) 
283.12084

>  <molecular_formula>  (160) 
C17H17NO3

>  <alogp>  (160) 
2.47

>  <topological_polar_surface_area>  (160) 
69.56

>  <rotatable_bond_count>  (160) 
5

>  <hydrogen_bond_acceptors>  (160) 
3

>  <hydrogen_bond_donors>  (160) 
3

>  <hydrogen_bond_acceptors_lipinski>  (160) 
3

>  <hydrogen_bond_donors_lipinski>  (160) 
3

>  <lipinski_rule_of_five_violations>  (160) 
0

>  <aromatic_rings_count>  (160) 
2

>  <qed_drug_likeliness>  (160) 
0.74

>  <formal_charge>  (160) 
0

>  <fractioncsp3>  (160) 
0.12

>  <number_of_minimal_rings>  (160) 
2

>  <van_der_walls_volume>  (160) 
264.44

>  <contains_sugar>  (160) 
False

>  <contains_ring_sugars>  (160) 
False

>  <contains_linear_sugars>  (160) 
False

>  <murcko_framework>  (160) 
c1ccc(cc1)C=CCNCCc2ccccc2

>  <np_likeness>  (160) 
0.06

>  <chemical_class>  (160) 
nan

>  <chemical_sub_class>  (160) 
nan

>  <chemical_super_class>  (160) 
nan

>  <direct_parent_classification>  (160) 
nan

>  <np_classifier_pathway>  (160) 
Amino acids and Peptides

>  <np_classifier_superclass>  (160) 
Phenylpropanoids (C6-C3)

>  <np_classifier_class>  (160) 
Cinnamic acid amides

>  <np_classifier_is_glycoside>  (160) 
False

>  <organisms>  (160) 
Aesculus hippocastanum|Alchornea cordifolia|Alexandrium excavatum|Allium chinense|Alstonia angustiloba|Amomum daniellii|Anemarrhena asphodeloides|Annona cherimola|Annona glabra|Annona montana|Annona muricata|Arcangelisia gusanlung|Aristolochia elegans|Aristolochia littoralis|Aristolochia manshuriensis|Artabotrys Uncinatus|Artabotrys hexapetalus|Artabotrys uncinatus|Artemisia juncea|Artemisia pectinata|Asimina triloba|Aspergillus microcysticus|Atalantia wightii|Atraphaxis frutescens|Atriplex parvifolia|Baccharis grandicapitulata|Balanophora japonica|Beesia calthifolia|Berberis vulgaris|Boschniakia rossica|Botrychium ternatum|Bursera kerberi|Calcarisporium thermophilum|Camonea bifida|Camonea umbellata|Cannabis sativa|Capsicum annuum|Capsicum annuum var. annuum|Capsicum sp.|Celtis bungeana|Celtis chinensis|Clerodendrum trichotomum|Clinacanthus nutans|Coffea liberica var. dewevrei|Conchocarpus gaudichaudianus|Cortex lycii radicis|Corydalis persica|Corynanthe pachyceras|Costasiella ocellifera|Cota tinctoria|Creosphaeria sassafras|Crinum asiaticum|Crotalaria crispata|Crotalaria stolzii|Curcuma aeruginosa|Cynoglossum amabile|Dasymaschalon dasymaschalum|Datura metel|Delisea elegans|Delphinium giraldii|Dendrobium officinale|Dendrobium sp.|Emericellopsis minima|Erycibe hainanensis|Eucalyptus albens|Euonymus fortunei|Eupatorium laevigatum|Euploca racemosa|Fibraurea tinctoria|Fumaria indica|Gaillardia powellii|Glycosmis pseudoracemosa|Gutierrezia dracunculoides|Haplopappus deserticola|Hedysarum gmelini|Helenium integrifolium|Hesperocyparis arizonica|Humulus japonicus|Humulus sp.|Hygrophorus eburneus|Inula grantioides|Ipomoea nil|Isolona congolana|Isolona maitlandii|Juniperus horizontalis|Juniperus scopulorum|Lasianthaea podocephala|Lathyrus tingitanus|Lindera glauca|Liriope muscari|Liriope sp.|Litsea sp.|Lupinus cosentinii|Lycium barbarum|Lycium chinense|Macleaya microcarpa|Meconopsis horridula|Melampodium leucanthum|Melicope hayesii|Merremia umbellata|Micromonospora echinospora|Miliusa cuneata|Mitrephora thorelii|Mitrephora tomentosa|Morella pensylvanica|Nelumbo nucifera|Ophiopogon japonicus|Ormosia dasycarpa|Oryza sativa|Papaver pseudocanescens|Pellacalyx axillaris|Peperomia duclouxii C.DC.|Peperomia heyneana|Persicaria orientalis|Pestalotiopsis oenotherae|Peucedanum oroselinum|Phellodendron japonicum|Phellodendron sp.|Phlomis crinita|Piper auritum|Piper brachystachyum|Piper kadsura|Piper nigrum|Piper sanctum|Piper sp.|Piper umbellatum|Plectosphaerella cucumerina|Plectranthus caninus|Polyalthia longifolia|Polyalthia suberosa|Polygonatum sp.|Polygonum sp.|Portulaca oleracea|Pseudocyphellaria australiensis|Psidium acutangulum|Pyrus communis|Rauvolfia salicifolia|Reineckia sp.|Renealmia alpinia|Rhizoplaca baranowii|Rhododendron mucronulatum|Rubus idaeus|Salmonella enterica subsp. enterica serovar bovismorbificans|Sarcophyton flexuosum|Saussurea muliensis|Selinum libanotis|Senecio congestus|Senecio provincialis|Sideritis dasygnaphala|Solanum annuum|Solanum indicum|Solanum lasiocarpum|Solanum melongena|Solanum sp.|Solanum verbascifolium|Solanum violaceum|Stellaria media|Streptomyces melanogenes|Streptomyces parvisporogenes|Strychnos spinosa|Tephroseris kirilowii|Tetradium glabrifolium|Tinospora baenzigeri|Tinospora sinensis|Toddalia asiatica|Trema micrantha|Tribulus terrestris|Viburnum lantana|Vicia faba|Welsh onion|Zanthoxylum asiaticum|Zanthoxylum nitidum|Zephyranthes flava|broad bean|common sunflower|erycibe hainanesis|potato|solanum violaceum|tomato

>  <collections>  (160) 
AfroCancer|AnalytiCon Discovery NPs|Australian natural products|CMAUP (cCollective molecular activities of useful plants)|ChEBI NPs|ChemSpider NPs|ConMedNP|ETM (Ethiopian Traditional Medicine) DB|FooDB|HIT (Herbal Ingredients Targets)|KNApSaCK|Latin America dataset|NPASS|NuBBEDB|Phyto4Health|PhytoLab phyproof® Reference Substances|Super Natural II|TCMDB-Taiwan (Traditional Chinese Medicine database)|TIPdb (database of Taiwan indigenous plants)|VietHerb|WikiData Natural Products|p-ANAPL

>  <dois>  (160) 
10.1002/CBDV.200800273|10.1002/ELPS.201300646|10.1002/HLCA.200890109|10.1002/JCCS.200000124|10.1002/JCCS.200100116|10.1002/PTR.2443|10.1007/BF00381261|10.1007/BF02976684|10.1016/0031-9422(92)83291-6|10.1016/0031-9422(92)83649-J|10.1016/0031-9422(95)00248-6|10.1016/0031-9422(95)00333-3|10.1016/0091-3057(91)90348-6|10.1016/J.BMC.2003.10.031|10.1016/J.BMC.2008.09.023|10.1016/J.BMCL.2013.04.013|10.1016/J.PHYTOCHEM.2008.02.018|10.1016/J.PHYTOCHEM.2010.02.007|10.1016/J.PLAPHY.2015.04.008|10.1016/J.SCIENTA.2006.01.037|10.1016/S0031-9422(00)88735-X|10.1016/S0031-9422(97)01086-8|10.1016/S0031-9422(98)00123-X|10.1016/S0031-9422(98)00720-1|10.1016/S0031-9422(99)00535-X|10.1016/S0305-1978(99)00081-2|10.1016/j.bmc.2017.12.011|10.1016/j.bmcl.2013.04.013|10.1016/j.bse.2020.104080|10.1021/ACS.JNATPROD.0C00564|10.1021/NP010186V|10.1021/NP0301238|10.1021/NP0305472|10.1021/NP0401260|10.1021/NP049864E|10.1021/NP0505521|10.1021/NP0604533|10.1021/NP070618N|10.1021/NP100900K|10.1021/NP200877U|10.1021/NP300655Y|10.1021/NP50081A011|10.1021/NP50123A015|10.1021/NP900593Q|10.1021/acs.jnatprod.0c00564|10.1021/acs.jnatprod.5b01054|10.1021/acs.jnatprod.6b00720|10.1021/acs.jnatprod.8b00483|10.1021/acs.jnatprod.9b00506|10.1021/np0505521|10.1021/np100900k|10.1021/np200877u|10.1021/np300655y|10.1021/np50081a011|10.1021/np900593q|10.1055/S-2006-951691|10.1055/S-2006-957535|10.1055/S-2006-958035|10.1080/00021369.1978.10863028|10.1080/00021369.1981.10864909|10.1080/10286020290011396|10.1080/14786410802682239|10.1080/14786410902757998|10.1080/14786419.2017.1419226|10.1104/PP.121.1.135|10.1104/PP.69.2.522|10.1155/2017/7436259|10.1248/BPB.B14-00026|10.1248/CPB.55.1597|10.1271/BBB.61.1138|10.1271/BBB1961.42.623|10.1271/bbb1961.42.623|10.3390/MOLECULES15118241|10.3390/molecules15118241|10.3987/COM-09-11671|10.4268/CJCMM20100303

>  <synonyms>  (160) 
Paprazine

>  <cas>  (160) 
36417-86-4

$$$$

     RDKit          2D

 18 20  0  0  0  0  0  0  0  0999 V2000
   -2.9958   -2.9969    0.0000 C   0  0  0  0  0  0  0  0  0  0  0  0
   -1.5197   -2.7303    0.0000 O   0  0  0  0  0  0  0  0  0  0  0  0
   -1.0126   -1.3186    0.0000 C   0  0  0  0  0  0  0  0  0  0  0  0
   -1.9815   -0.1736    0.0000 C   0  0  0  0  0  0  0  0  0  0  0  0
   -3.4808   -0.1275    0.0000 C   0  0  0  0  0  0  0  0  0  0  0  0
   -3.9003    1.3126    0.0000 C   0  0  0  0  0  0  0  0  0  0  0  0
   -2.6603    2.1566    0.0000 O   0  0  0  0  0  0  0  0  0  0  0  0
   -1.4744    1.2381    0.0000 C   0  0  0  0  0  0  0  0  0  0  0  0
    0.0017    1.5047    0.0000 C   0  0  0  0  0  0  0  0  0  0  0  0
    0.5089    2.9164    0.0000 O   0  0  0  0  0  0  0  0  0  0  0  0
    1.9850    3.1830    0.0000 C   0  0  0  0  0  0  0  0  0  0  0  0
    0.9707    0.3597    0.0000 C   0  0  0  0  0  0  0  0  0  0  0  0
    0.4635   -1.0520    0.0000 C   0  0  0  0  0  0  0  0  0  0  0  0
    1.4325   -2.1970    0.0000 C   0  0  0  0  0  0  0  0  0  0  0  0
    2.9086   -1.9304    0.0000 C   0  0  0  0  0  0  0  0  0  0  0  0
    3.4158   -0.5187    0.0000 C   0  0  0  0  0  0  0  0  0  0  0  0
    4.8919   -0.2521    0.0000 O   0  0  0  0  0  0  0  0  0  0  0  0
    2.4468    0.6263    0.0000 O   0  0  0  0  0  0  0  0  0  0  0  0
  1  2  1  0
  2  3  1  0
  3  4  2  0
  4  5  1  0
  5  6  2  0
  6  7  1  0
  7  8  1  0
  8  9  2  0
  9 10  1  0
 10 11  1  0
  9 12  1  0
 12 13  2  0
 13 14  1  0
 14 15  2  0
 15 16  1  0
 16 17  2  0
 16 18  1  0
 13  3  1  0
  8  4  1  0
 18 12  1  0
M  END
>  <identifier>  (161) 
CNP0153549.0

>  <canonical_smiles>  (161) 
COC1=C2C=COC2=C(OC)C2=C1C=CC(=O)O2

>  <standard_inchi>  (161) 
InChI=1S/C13H10O5/c1-15-10-7-3-4-9(14)18-12(7)13(16-2)11-8(10)5-6-17-11/h3-6H,1-2H3

>  <standard_inchi_key>  (161) 
DFMAXQKDIGCMTL-UHFFFAOYSA-N

>  <name>  (161) 
Isopimpinellin

>  <iupac_name>  (161) 
4,9-dimethoxyfuro[3,2-g]chromen-7-one

>  <annotation_level>  (161) 
5

>  <total_atom_count>  (161) 
28

>  <heavy_atom_count>  (161) 
18

>  <molecular_weight>  (161) 
246.22

>  <exact_molecular_weight>  (161) 
246.05282

>  <molecular_formula>  (161) 
C13H10O5

>  <alogp>  (161) 
2.56

>  <topological_polar_surface_area>  (161) 
61.81

>  <rotatable_bond_count>  (161) 
2

>  <hydrogen_bond_acceptors>  (161) 
5

>  <hydrogen_bond_donors>  (161) 
0

>  <hydrogen_bond_acceptors_lipinski>  (161) 
5

>  <hydrogen_bond_donors_lipinski>  (161) 
0

>  <lipinski_rule_of_five_violations>  (161) 
0

>  <aromatic_rings_count>  (161) 
3

>  <qed_drug_likeliness>  (161) 
0.65

>  <formal_charge>  (161) 
0

>  <fractioncsp3>  (161) 
0.15

>  <number_of_minimal_rings>  (161) 
3

>  <van_der_walls_volume>  (161) 
204.70

>  <contains_sugar>  (161) 
False

>  <contains_ring_sugars>  (161) 
False

>  <contains_linear_sugars>  (161) 
False

>  <murcko_framework>  (161) 
o1ccc2cc3C=CCOc3cc12

>  <np_likeness>  (161) 
1.25

>  <chemical_class>  (161) 
Coumarins and derivatives

>  <chemical_sub_class>  (161) 
Furanocoumarins

>  <chemical_super_class>  (161) 
Phenylpropanoids and polyketides

>  <direct_parent_classification>  (161) 
5-methoxypsoralens

>  <np_classifier_pathway>  (161) 
Shikimates and Phenylpropanoids

>  <np_classifier_superclass>  (161) 
Coumarins

>  <np_classifier_class>  (161) 
Furocoumarins

>  <np_classifier_is_glycoside>  (161) 
False

>  <organisms>  (161) 
Acanthus montanus|Aeglopsis chevalieri|Ajania fastigiata|Aliivibrio fischeri|Alocasia macrorrhizos|Aloe castanea|Alpinia officinarum|Ambrosia arborescens|Ammi majus|Ammi majus L.|Amomum reticulatum|Amyris lineata|Amyris texana|Angelica Pubescens|Angelica acutiloba|Angelica archangelica|Angelica archangelica L.|Angelica biserrata|Angelica capitellata|Angelica dahurica|Angelica decursiva|Angelica japonica|Angelica keiskei|Angelica pubescens|Angelica pubescens f.biserrata|Angelica sp.|Angelica spp.|Angelica sylvestris L.|Annona haematantha|Antidesma membranaceum|Apium graveolens|Apium graveolens L.|Apium sp.|Arnica foliosa|Ascodesmis sphaerospora|Ashitaba|Asterolasia phebalioides|Axinella polycapella|Azotobacter chroococcum|Bidens cynapiifolia|Boenninghausenia albiflora|Cachrys sicula|Campylotropis hirtella|Campylotropis hirtella (FRANCH.) SCHNDL|Caralluma russeliana|Casimiroa edulis|Casimiroa pubescens|Changium smyrnioides|Chloroxylon swietenia|Cirsium canum|Citrus Aurantifolia|Citrus aurantifolia|Citrus medica|Citrus sp.|Cnidium Monnieri|Cnidium japonicum|Cnidium monieri|Cnidium monnieri|Cornicularia normoerica|Cryptostegia grandiflora|Cullen drupaceum|Cyathus helenae|Cystoseira caespitosa|Dalbergia monetaria|Daucus carota|Davallia solida|Dendrobium nobile|Deverra tortuosa|Dinosperma melanophloium|Dinosperma stipitatum|Dorstenia Contrajerva|Dorstenia asaroides|Dorstenia bahiensis|Dorstenia barnimiana|Dorstenia brasiliensis|Dorstenia bryoniaefolia|Dorstenia bryonifolia|Dorstenia cayapiaa|Dorstenia contrajerva|Dorstenia drakena|Dorstenia excentria|Dorstenia foetida|Dorstenia heringeri|Dorstenia heringerii|Dorstenia lindeniana|Dorstenia psilurus|Dysosma pleiantha|Earias insulana|Eleutherococcus senticosus|Esenbeckia|Esenbeckia almawillia|Esenbeckia grandiflora|Espeletiopsis purpurascens|Esperiopsis edwardii|Eucalyptus exserta|Eunicea asperula|Euphorbia bivonae|Fagara mayu|Feronia limonia|Ferula mogoltavica|Ferula sp.|Ferula spp.|Ficus cunninghamii|Flindersia bennettiana|Flindersia bennettii|Foeniculum vulgare|Garcinia parvifolia|Glehnia littoralis|Grosvenoria rimbachii|Hansenia weberbaueriana|Helianthus californicus|Heracleum asperum|Heracleum dissectum|Heracleum granatense|Heracleum grandiflorum|Heracleum laciniatum|Heracleum lanatum|Heracleum lehmannianum|Heracleum leskovii|Heracleum mantegazzianum|Heracleum mantegazzianum Sommier & Levier|Heracleum maximum|Heracleum moellendorffii|Heracleum moellendorffii Hance|Heracleum moellendorffii Hance var.paucivitatum|Heracleum moellendorffii var. paucivittatum|Heracleum nepalense|Heracleum persicum|Heracleum persicum (Fisch.) Desf.|Heracleum ponticum|Heracleum pyrenaicum|Heracleum rapula|Heracleum sosnowskyi Manden.|Heracleum sp.|Heracleum sphondylium|Heracleum sphondylium L. s.l. (H. sphondylium L. s.str., H. sphondylium subsp. alpinum (L.) Bonnier & Layens, H. sphondylium subsp. elegans (Crantz) Schuebl. & G. Martens and H. sphondylium  subsp. pyrenaicum (Lam.) Bonnier & Layens)|Heracleum spp.|Heracleum stevenii|Heracleum vicinum|Heracleum wallichii|Heracleum wolongense|Heracleum woroschiklowii|Heracleum yungningense|Hortia superba|Hygrophila spinosa|Hypholoma capnoides|Hypoxylon sclerophaeum|Imperata cylindrica|Indian beech tree|Inga paterno|Kleinia pendula|Kniphofia tuckii|Lactarius deliciosus var. deterrimus|Lactarius fuliginosus|Leionema ambiens|Leonurus heterophyllus|Ligusticopsis multivittata|Ligusticum multivittatum|Limonia acidissima|Lobaria subretigera|Luvunga sp.|Macrococculus pomiferus|Magydaris pastinacea|Melicope denhamii|Mesocentrotus nudus|Metrodorea flavida|Metrodorea nigra|Myelois cribrella|Niphogeton ternata|Opuntia vulgaris|Orixa japonica|Pamburus missionis|Pastinaca sativa|Pastinaca sativa L.|Pastinaca sp.|Pastinaca spp.|Patrinia villosa|Petroselinum crispum|Petroselinum crispum (Mill.) Fuss|Petroselinum sp.|Peucedanum officinale|Peucedanum praeruptorum|Phegopteris subaurita|Physcia obscura|Pilocarpus goudotianus|Pimpinella major (L.) Huds.|Pimpinella nigra Mill.|Pimpinella peregrina L.|Pimpinella saxifraga|Pimpinella saxifraga L.|Pimpinella sp.|Pimpinella spp.|Pinus formosana|Pinus krempfii|Piper hancei|Pituranthos triradiatus|Platypodium elegans|Plectranthus hereroensis|Pleurospermum angelicoides|Pleurospermum rivulorum|Podocarpus henckelii|Polypodium aureum|Pseudodistoma aureum|Psilopeganum sinense|Quercus sessilis|Rhadinothamnus anceps|Rosa transmorrisonensis|Ruta Graveolens|Ruta chalepensis|Ruta chalepensis L.|Ruta corsica|Ruta graveolens|Ruta graveolens L.|Ruta macrophylla|Ruta montana|Ruta pinnata|Ruta sp.|Salvia cilicica|Salvia lasiantha|Saposhnikovia divaricata|Sauropus quadrangularis|Schenkia spicata|Seseli elatum|Seseli gouanii|Seseli kochii|Seseli longifolium|Seseli spp.|Silene gallica|Skimmia japonica|Skimmia laureola|Smilax macrophylla|Spilanthes ocymifolia|Spilanthes oleracea|Spiraea prunifolia|Stauranthus perforatus|Stellera chamaejasme|Stellera sp.|Tetradium daniellii|Tetrataenium wallichii|Thamnosma montana|Thamnosma rhodesica|Thamnosma texana|Thermus thermophilus|Toddalia Asiatica|Toddalia asiatica|Tordylium apulum|Torilis japonica|Trichocline incana|Trichocline sinuata|Trixis inula|Ulosa spongia|Ursinia anthemoides|Vernonia echitifolia|Vitex agnus-castus|Vitex negundo|White sapote|Xanthogalum sachokianum|Zanthoxylum ailanthoides|Zanthoxylum asiaticum|Zanthoxylum belizense|Zanthoxylum echinocarpum|Zanthoxylum ekmanii|Zanthoxylum mayu|Zanthoxylum nitidum|Zanthoxylum ovalifolium|Zanthoxylum rhoifolium|Zanthoxylum spinosum|parsley

>  <collections>  (161) 
ANPDB|AnalytiCon Discovery NPs|Australian natural products|CMAUP (cCollective molecular activities of useful plants)|ChEBI NPs|ConMedNP|ETM (Ethiopian Traditional Medicine) DB|FooDB|GNPS (Global Natural Products Social Molecular Networking)|HIT (Herbal Ingredients Targets)|KNApSaCK|Latin America dataset|NANPDB (Natural Products from Northern African Sources)|NPASS|NPCARE|NPEdia|NuBBEDB|Phenol-explorer|Phyto4Health|PhytoLab phyproof® Reference Substances|PubChem NPs|Specs Natural Products|Super Natural II|TCMDB-Taiwan (Traditional Chinese Medicine database)|TCMID (Traditional Chinese Medicine Integrated Database)|TIPdb (database of Taiwan indigenous plants)|TPPT (Toxic Plants–PhytoToxins)|UEFS (Natural Products Databse of the UEFS)|UNPD (Universal Natural Products Database)|VietHerb|WikiData Natural Products

>  <dois>  (161) 
10.1002/(SICI)1099-1573(1998)12:1+<S25::AID-PTR239>3.0.CO;2-N|10.1002/9780470744307.gat218|10.1002/CHIN.200047207|10.1002/CHIN.200333216|10.1002/CHIN.200430200|10.1002/HLCA.19970800507|10.1002/J.1537-2197.1953.TB06445.X|10.1002/JCCS.200300024|10.1002/JCCS.200300178|10.1002/JHRC.1240080305|10.1002/JPS.2600580605|10.1002/PCA.2800030108|10.1002/PCA.2800040508|10.1002/PCA.687|10.1002/PTR.2650080409|10.1002/RCM.3559|10.1002/RECL.19680870808|10.1002/biuz.19840140514|10.1002/food.19880321030|10.1006/PMPP.1993.1014|10.1007/BF00055511|10.1007/BF00563460|10.1007/BF00565845|10.1007/BF00566351|10.1007/BF00569817|10.1007/BF00570685|10.1007/BF00579653|10.1007/BF00598318|10.1007/BF00600845|10.1007/BF00630133|10.1007/BF01021776|10.1007/BF01134615|10.1007/BF01638226|10.1007/BF02066241|10.1007/BF02249699|10.1007/BF02976999|10.1007/S10600-007-0196-9|10.1007/S10600-008-9114-Z|10.1007/S10600-011-0026-Y|10.1007/S11101-023-09858-Z|10.1007/s10600-007-0196-9|10.1016/0031-9422(73)85150-7|10.1016/0031-9422(74)85154-X|10.1016/0031-9422(75)80398-0|10.1016/0031-9422(75)85149-1|10.1016/0031-9422(81)85120-5|10.1016/0031-9422(81)85291-0|10.1016/0031-9422(83)80173-3|10.1016/0031-9422(86)88019-0|10.1016/0031-9422(88)80276-0|10.1016/0031-9422(90)85357-L|10.1016/0031-9422(90)85418-F|10.1016/0031-9422(91)80052-3|10.1016/0031-9422(91)85122-G|10.1016/0031-9422(92)83450-D|10.1016/0031-9422(94)85101-8|10.1016/0031-9422(95)00504-Z|10.1016/0165-7992(90)90123-2|10.1016/0278-6915(83)90231-4|10.1016/0305-1978(88)90011-7|10.1016/0305-1978(92)90104-L|10.1016/0305-1978(94)90036-1|10.1016/0960-894X(96)00315-0|10.1016/J.BMC.2005.07.050|10.1016/J.CHROMA.2010.04.076|10.1016/J.FITOTE.2003.08.004|10.1016/J.FITOTE.2003.12.014|10.1016/J.PHYMED.2008.02.001|10.1016/J.PHYTOCHEM.2003.12.020|10.1016/J.PHYTOCHEM.2011.03.008|10.1016/J.TET.2012.01.007|10.1016/S0021-9673(00)00321-6|10.1016/S0021-9673(01)84214-X|10.1016/S0031-9422(00)00419-2|10.1016/S0031-9422(00)80348-9|10.1016/S0031-9422(00)81503-4|10.1016/S0031-9422(00)81759-8|10.1016/S0031-9422(00)81908-1|10.1016/S0031-9422(00)83503-7|10.1016/S0031-9422(00)84478-7|10.1016/S0031-9422(00)84549-5|10.1016/S0031-9422(00)84671-3|10.1016/S0031-9422(00)85189-4|10.1016/S0031-9422(00)85242-5|10.1016/S0031-9422(00)85511-9|10.1016/S0031-9422(00)85512-0|10.1016/S0031-9422(00)86838-7|10.1016/S0031-9422(00)88988-8|10.1016/S0031-9422(00)89556-4|10.1016/S0031-9422(00)90453-9|10.1016/S0031-9422(00)90455-2|10.1016/S0031-9422(00)90538-7|10.1016/S0031-9422(00)91132-4|10.1016/S0031-9422(00)98508-X|10.1016/S0031-9422(01)00423-X|10.1016/S0031-9422(02)00748-3|10.1016/S0031-9422(97)00123-4|10.1016/S0031-9422(97)00678-X|10.1016/S0031-9422(98)00018-1|10.1016/S0031-9422(98)00650-5|10.1016/S0040-4020(01)88928-6|10.1016/S0040-4039(01)99141-5|10.1016/S0305-1978(97)00116-6|10.1016/S0305-1978(98)00107-0|10.1016/S0367-326X(02)00083-7|10.1016/S0367-326X(02)00239-3|10.1016/S0367-326X(02)00313-1|10.1016/s0031-9422(00)81503-4|10.1021/JF00100A013|10.1021/JF00111A001|10.1021/JF0497049|10.1021/JF60220A023|10.1021/JF9802373|10.1021/JO01273A076|10.1021/NP000012Y|10.1021/NP058080D|10.1021/NP50037A032|10.1021/NP50047A020|10.1021/NP50050A046|10.1021/NP50087A013|10.1021/NP990522W|10.1021/np058080d|10.1039/c7md00388a|10.1055/S-0034-1368568|10.1055/S-2000-8595|10.1055/S-2001-12013|10.1055/S-2003-45188|10.1055/S-2006-959710|10.1055/S-2006-960965|10.1055/S-2006-962141|10.1055/S-2006-962751|10.1055/S-2007-969254|10.1055/S-2007-969990|10.1055/s-2006-962158.pdf|10.1071/CH9600427|10.1071/CH9683079|10.1071/ch9640975|10.1076/1388-0209(200009)3841-AFT308|10.1080/00021369.1977.10862665|10.1080/00021369.1990.10870237|10.1080/10286020290019677|10.1080/10412905.1993.9698257|10.1104/PP.104.1.67|10.1111/J.1432-1033.1983.TB07277.X|10.1111/J.1600-0536.1983.TB04386.X|10.1135/CCCC19622714|10.1139/B00-112|10.1139/B93-109|10.1186/2191-2858-2-1|10.1248/BPB.24.1012|10.1248/BPB.28.1229|10.1248/CPB.28.1782|10.1248/CPB.29.2565|10.1248/CPB.33.1676|10.1248/CPB.50.115|10.1248/CPB.53.701|10.1248/CPB.54.897|10.1248/CPB.56.1338|10.1248/YAKUSHI1947.111.7_365|10.1248/YAKUSHI1947.111.7_376|10.1248/YAKUSHI1947.73.7_770|10.1271/BBB1961.41.1263|10.1271/BBB1961.54.2141|10.1371/journal.pone.0019825|10.1590/S0103-50531997000500016|10.1590/S0103-50532003000100008|10.3390/MOLECULES190812031|10.3906/KIM-0810-22|10.5586/ASBP.1997.039

>  <synonyms>  (161) 
nan

>  <cas>  (161) 
482-27-9

$$$$

     RDKit          2D

 32 36  0  0  0  0  0  0  0  0999 V2000
   -6.0949   -2.3162    0.0000 C   0  0  0  0  0  0  0  0  0  0  0  0
   -5.3714   -1.0022    0.0000 C   0  0  0  0  0  0  0  0  0  0  0  0
   -6.1476    0.2813    0.0000 C   0  0  0  0  0  0  0  0  0  0  0  0
   -7.6473    0.2509    0.0000 O   0  0  0  0  0  0  0  0  0  0  0  0
   -5.4241    1.5953    0.0000 C   0  0  0  0  0  0  0  0  0  0  0  0
   -6.2003    2.8789    0.0000 O   0  0  0  0  0  0  0  0  0  0  0  0
   -3.9244    1.6257    0.0000 C   0  0  0  0  0  0  0  0  0  0  0  0
   -3.1482    0.3422    0.0000 C   0  0  0  0  0  0  0  0  0  0  0  0
   -3.8717   -0.9718    0.0000 C   0  0  0  0  0  0  0  0  0  0  0  0
   -3.0955   -2.2554    0.0000 C   0  0  0  0  0  0  0  0  0  0  0  0
   -1.5958   -2.2249    0.0000 C   0  0  0  0  0  0  0  0  0  0  0  0
   -0.8723   -0.9110    0.0000 C   0  0  0  0  0  0  0  0  0  0  0  0
   -1.6485    0.3726    0.0000 C   0  0  0  0  0  0  0  0  0  0  0  0
   -2.4247    1.6562    0.0000 C   0  0  0  0  0  0  0  0  0  0  0  0
   -0.9250    1.6866    0.0000 C   0  0  0  0  0  0  0  0  0  0  0  0
    0.5747    1.7170    0.0000 C   0  0  0  0  0  0  0  0  0  0  0  0
    1.3509    0.4334    0.0000 C   0  0  0  0  0  0  0  0  0  0  0  0
    2.0744    1.7474    0.0000 C   0  0  0  0  0  0  0  0  0  0  0  0
    2.8506    0.4639    0.0000 C   0  0  0  0  0  0  0  0  0  0  0  0
    3.5741    1.7778    0.0000 C   0  0  0  0  0  0  0  0  0  0  0  0
    5.0737    1.8083    0.0000 C   0  0  0  0  0  0  0  0  0  0  0  0
    5.7973    3.1222    0.0000 C   0  0  0  0  0  0  0  0  0  0  0  0
    5.8499    0.5247    0.0000 C   0  0  0  0  0  0  0  0  0  0  0  0
    7.3496    0.5551    0.0000 O   0  0  0  0  0  0  0  0  0  0  0  0
    5.1264   -0.7893    0.0000 C   0  0  0  0  0  0  0  0  0  0  0  0
    5.9026   -2.0729    0.0000 O   0  0  0  0  0  0  0  0  0  0  0  0
    3.6267   -0.8197    0.0000 C   0  0  0  0  0  0  0  0  0  0  0  0
    4.4029   -2.1033    0.0000 C   0  0  0  0  0  0  0  0  0  0  0  0
    2.9032   -2.1337    0.0000 C   0  0  0  0  0  0  0  0  0  0  0  0
    1.4035   -2.1641    0.0000 C   0  0  0  0  0  0  0  0  0  0  0  0
    0.6274   -0.8805    0.0000 C   0  0  0  0  0  0  0  0  0  0  0  0
   -0.0961   -2.1945    0.0000 C   0  0  0  0  0  0  0  0  0  0  0  0
  1  2  1  0
  2  3  2  0
  3  4  1  0
  3  5  1  0
  5  6  2  0
  5  7  1  0
  7  8  2  0
  8  9  1  0
  9 10  2  0
 10 11  1  0
 11 12  2  0
 12 13  1  0
 13 14  1  1
 13 15  1  0
 15 16  1  0
 16 17  1  0
 17 18  1  6
 17 19  1  0
 19 20  1  6
 20 21  1  0
 21 22  1  1
 21 23  1  0
 23 24  2  0
 23 25  1  0
 25 26  1  1
 25 27  1  0
 27 28  1  1
 27 29  1  0
 29 30  1  0
 30 31  1  0
 31 32  1  1
  9  2  1  0
 31 12  1  0
 13  8  1  0
 31 17  1  0
 27 19  1  0
M  END
>  <identifier>  (162) 
CNP0281275.1

>  <canonical_smiles>  (162) 
CC1=C(O)C(=O)C=C2C1=CC=C1[C@@]2(C)CC[C@@]2(C)[C@@H]3C[C@@H](C)C(=O)[C@@H](O)[C@]3(C)CC[C@]12C

>  <standard_inchi>  (162) 
InChI=1S/C28H36O4/c1-15-13-21-26(4,24(32)22(15)30)10-12-27(5)20-8-7-17-16(2)23(31)19(29)14-18(17)25(20,3)9-11-28(21,27)6/h7-8,14-15,21,24,31-32H,9-13H2,1-6H3/t15-,21-,24-,25+,26-,27-,28+/m1/s1

>  <standard_inchi_key>  (162) 
QIRUFAFQGKOTKA-ZRWKYKNNSA-N

>  <name>  (162) 
Tingenin B

>  <iupac_name>  (162) 
(6~{a}~{S},6~{b}~{S},8~{a}~{R},9~{S},11~{R},12~{a}~{S},14~{a}~{R})-3,9-dihydroxy-4,6~{a},6~{b},8~{a},11,14~{a}-hexamethyl-7,8,9,11,12,12~{a},13,14-octahydropicene-2,10-dione

>  <annotation_level>  (162) 
5

>  <total_atom_count>  (162) 
68

>  <heavy_atom_count>  (162) 
32

>  <molecular_weight>  (162) 
436.59

>  <exact_molecular_weight>  (162) 
436.26136

>  <molecular_formula>  (162) 
C28H36O4

>  <alogp>  (162) 
5.39

>  <topological_polar_surface_area>  (162) 
74.60

>  <rotatable_bond_count>  (162) 
0

>  <hydrogen_bond_acceptors>  (162) 
4

>  <hydrogen_bond_donors>  (162) 
2

>  <hydrogen_bond_acceptors_lipinski>  (162) 
4

>  <hydrogen_bond_donors_lipinski>  (162) 
2

>  <lipinski_rule_of_five_violations>  (162) 
1

>  <aromatic_rings_count>  (162) 
0

>  <qed_drug_likeliness>  (162) 
0.53

>  <formal_charge>  (162) 
0

>  <fractioncsp3>  (162) 
0.64

>  <number_of_minimal_rings>  (162) 
5

>  <van_der_walls_volume>  (162) 
410.69

>  <contains_sugar>  (162) 
False

>  <contains_ring_sugars>  (162) 
False

>  <contains_linear_sugars>  (162) 
False

>  <murcko_framework>  (162) 
C=1C=C2C(C3=CCC=CC13)CCC4C2CCC5CCCCC54

>  <np_likeness>  (162) 
3.44

>  <chemical_class>  (162) 
Organooxygen compounds

>  <chemical_sub_class>  (162) 
Alcohols and polyols

>  <chemical_super_class>  (162) 
Organic oxygen compounds

>  <direct_parent_classification>  (162) 
Cyclic alcohols and derivatives

>  <np_classifier_pathway>  (162) 
Terpenoids

>  <np_classifier_superclass>  (162) 
Triterpenoids

>  <np_classifier_class>  (162) 
nan

>  <np_classifier_is_glycoside>  (162) 
False

>  <organisms>  (162) 
Acanthothamnus aphyllus|Adenopeltis colliguaya|Aspergillus arenarius|Aspergillus quadrilineatus|Berberis lambertii|Bituminaria bituminosa|Bombus hortorum|Catha edulis|Centaurea seridis|Ceratocystis clavigera|Cereus weberi|Cheiloclinium cognatum|Chrozophora obliqua|Cneorum pulverulentum|Coleus garckeanus|Consolida ajacis|Dalbergia stipulacea|Dinemasporium strigosum|Echinochloa crus-galli|Elaeagnus commutata|Elaeodendron balae|Elaeodendron croceum|Elaeodendron papillosum|Elaeodendron schlechteranum|Eucalyptus flocktoniae|Flindersia brayleyana|Gerbera piloselloides|Glyptopetalum sclerocarpum|Gymnosporia cassinoides|Heracleum sphondylium|Jungermannia obovata|Kothala himbutu|Kummerowia striata|Lyophyllum shimeji|Mascarenhasia arborescens|Maytenus chuchuhuasca|Maytenus ilicifolia|Maytenus retusa|Meconopsis napaulensis|Merremia umbellata|Millettia conraui|Monteverdia krukovii|Monteverdia laevis|Monteverdia macrocarpa|Monteverdia retusa|Ormosia panamensis|Osmerus mordax|Palafoxia rosea|Pedicularis condensata|Peritassa campestris|Perityle vaseyi|Phoebe formosana|Porella swartziana|Quercus mongolica|Rheum webbianum|Salacia campestris|Salacia chinensis|Salvia coulteri|Satureja cuneifolia|Senecio flavus|Sida cordifolia|Solanum sisymbriifolium|Solenopsis invicta|Spodoptera littoralis|Streptomyces fradiae|Streptomyces mobaraensis|Thunbergia grandiflora|Thymbra spicata|Trichia floriformis|Tripterygium wilfordii|Turraeanthus mannii|Zanthoxylum syncarpum

>  <collections>  (162) 
ANPDB|CMAUP (cCollective molecular activities of useful plants)|ChemSpider NPs|KNApSaCK|NANPDB (Natural Products from Northern African Sources)|NPASS|NuBBEDB|SANCDB|Super Natural II|TCMDB-Taiwan (Traditional Chinese Medicine database)|WikiData Natural Products|ZINC NP

>  <dois>  (162) 
10.1002/CHIN.199004272|10.1016/0031-9422(93)85252-M|10.1016/0031-9422(96)00205-1|10.1016/0031-9422(96)00886-2|10.1016/0378-8741(82)90022-8|10.1016/J.BMCL.2007.12.016|10.1016/J.PHYTOCHEM.2004.03.039|10.1016/S0031-9422(00)00285-5|10.1016/S0031-9422(00)89810-6|10.1016/S0031-9422(96)00858-8|10.1016/S0031-9422(96)00859-X|10.1016/S0031-9422(96)00860-6|10.1016/S0031-9422(98)00290-8|10.1016/S0031-9422(98)00300-8|10.1016/S0040-4020(01)89113-4|10.1016/j.bmcl.2007.12.016|10.1016/j.jep.2010.03.034|10.1021/NP0301543|10.1021/NP100517U|10.1021/np0301543|10.1021/np100517u|10.1021/np50114a009|10.1039/9781847555649-00238|10.1055/S-2006-960988|10.1080/14786410903052399|10.1139/V92-182|10.1248/CPB.51.1051

>  <synonyms>  (162) 
(6aS,6bS,8aR,9S,11R,12aS,14aR)-3,9-dihydroxy-4,6a,6b,8a,11,14a-hexamethyl-7,8,9,11,12,12a,13,14-octahydropicene-2,10-dione|22-Hydroxytingenone|22\u221a\u00e9\u00ac\u2264-Hydroxymaytenin 22-hydroxytingenone tingenin B|22beta-Hydroxymaytenin|22beta-hydroxytingenone|24,25,26,30-Tetranoroleana-1(10),3,5,7-tetraene-2,21-dione,3,22-dihydroxy-9,13-dimethyl-, (9b,13a,14b,20b,22b)-|24,25,26,30-Tetranoroleana-1(10),3,5,7-tetraene-2,21-dione,3,22-dihydroxy-9,13-dimethyl-,(9.beta.,13.alpha.,14.beta,20.beta.,22.beta.)-|3,9-Dihydroxy-4,6b,8a,11,12b,14a-hexamethyl-7,8,8a,11,12,12a,12b,13,14,14a-decahydropicene-2,10(6bH,9H)-dione|50656-68-3|AKOS040746410|D:A-Friedo-24,30-dinoroleana-1(10),3,5,7-tetraene-2,21-dione, 3,22-dihydroxy-, (20beta,22beta)-|DTXSID80964893|SCHEMBL20957640|Tingenine B|tingenin B

>  <cas>  (162) 
50656-68-3

$$$$

     RDKit          2D

 21 22  0  0  0  0  0  0  0  0999 V2000
    6.1910   -2.2908    0.0000 C   0  0  0  0  0  0  0  0  0  0  0  0
    6.1488   -0.7914    0.0000 O   0  0  0  0  0  0  0  0  0  0  0  0
    4.8291   -0.0783    0.0000 C   0  0  0  0  0  0  0  0  0  0  0  0
    3.5517   -0.8646    0.0000 C   0  0  0  0  0  0  0  0  0  0  0  0
    2.2321   -0.1515    0.0000 C   0  0  0  0  0  0  0  0  0  0  0  0
    0.9547   -0.9378    0.0000 C   0  0  0  0  0  0  0  0  0  0  0  0
   -0.3650   -0.2247    0.0000 C   0  0  0  0  0  0  0  0  0  0  0  0
   -1.6424   -1.0110    0.0000 C   0  0  0  0  0  0  0  0  0  0  0  0
   -1.6001   -2.5104    0.0000 O   0  0  0  0  0  0  0  0  0  0  0  0
   -2.9620   -0.2978    0.0000 C   0  0  0  0  0  0  0  0  0  0  0  0
   -3.0043    1.2016    0.0000 C   0  0  0  0  0  0  0  0  0  0  0  0
   -4.3239    1.9147    0.0000 C   0  0  0  0  0  0  0  0  0  0  0  0
   -5.6013    1.1284    0.0000 C   0  0  0  0  0  0  0  0  0  0  0  0
   -6.9210    1.8415    0.0000 O   0  0  0  0  0  0  0  0  0  0  0  0
   -5.5591   -0.3710    0.0000 C   0  0  0  0  0  0  0  0  0  0  0  0
   -4.2394   -1.0841    0.0000 C   0  0  0  0  0  0  0  0  0  0  0  0
   -4.1972   -2.5835    0.0000 O   0  0  0  0  0  0  0  0  0  0  0  0
    2.1898    1.3479    0.0000 C   0  0  0  0  0  0  0  0  0  0  0  0
    3.4672    2.1342    0.0000 C   0  0  0  0  0  0  0  0  0  0  0  0
    4.7869    1.4211    0.0000 C   0  0  0  0  0  0  0  0  0  0  0  0
    6.0643    2.2074    0.0000 O   0  0  0  0  0  0  0  0  0  0  0  0
  1  2  1  0
  2  3  1  0
  3  4  2  0
  4  5  1  0
  5  6  1  0
  6  7  2  0
  7  8  1  0
  8  9  2  0
  8 10  1  0
 10 11  2  0
 11 12  1  0
 12 13  2  0
 13 14  1  0
 13 15  1  0
 15 16  2  0
 16 17  1  0
  5 18  2  0
 18 19  1  0
 19 20  2  0
 20 21  1  0
 20  3  1  0
 16 10  1  0
M  END
>  <identifier>  (163) 
CNP0225079.1

>  <canonical_smiles>  (163) 
COC1=CC(/C=C/C(=O)C2=CC=C(O)C=C2O)=CC=C1O

>  <standard_inchi>  (163) 
InChI=1S/C16H14O5/c1-21-16-8-10(3-7-14(16)19)2-6-13(18)12-5-4-11(17)9-15(12)20/h2-9,17,19-20H,1H3/b6-2+

>  <standard_inchi_key>  (163) 
BWFSBUVPIAIXKJ-QHHAFSJGSA-N

>  <name>  (163) 
nan

>  <iupac_name>  (163) 
nan

>  <annotation_level>  (163) 
0

>  <total_atom_count>  (163) 
35

>  <heavy_atom_count>  (163) 
21

>  <molecular_weight>  (163) 
286.28

>  <exact_molecular_weight>  (163) 
286.08412

>  <molecular_formula>  (163) 
C16H14O5

>  <alogp>  (163) 
2.71

>  <topological_polar_surface_area>  (163) 
86.99

>  <rotatable_bond_count>  (163) 
4

>  <hydrogen_bond_acceptors>  (163) 
5

>  <hydrogen_bond_donors>  (163) 
3

>  <hydrogen_bond_acceptors_lipinski>  (163) 
5

>  <hydrogen_bond_donors_lipinski>  (163) 
3

>  <lipinski_rule_of_five_violations>  (163) 
0

>  <aromatic_rings_count>  (163) 
2

>  <qed_drug_likeliness>  (163) 
0.59

>  <formal_charge>  (163) 
0

>  <fractioncsp3>  (163) 
0.06

>  <number_of_minimal_rings>  (163) 
2

>  <van_der_walls_volume>  (163) 
252.39

>  <contains_sugar>  (163) 
False

>  <contains_ring_sugars>  (163) 
False

>  <contains_linear_sugars>  (163) 
False

>  <murcko_framework>  (163) 
c1ccc(cc1)C=CCc2ccccc2

>  <np_likeness>  (163) 
0.83

>  <chemical_class>  (163) 
nan

>  <chemical_sub_class>  (163) 
nan

>  <chemical_super_class>  (163) 
nan

>  <direct_parent_classification>  (163) 
nan

>  <np_classifier_pathway>  (163) 
Shikimates and Phenylpropanoids

>  <np_classifier_superclass>  (163) 
Flavonoids

>  <np_classifier_class>  (163) 
Chalcones

>  <np_classifier_is_glycoside>  (163) 
False

>  <organisms>  (163) 
Acacia kempeana|Amburana cearensis|Erythrina abyssinica|Glycyrrhiza uralensis|Iryanthera polyneura|Tithonia fruticosa|Trifolium fruticosa|Trifolium subterraneum|Wedelia asperrima

>  <collections>  (163) 
ANPDB|Australian natural products|CMAUP (cCollective molecular activities of useful plants)|EMNPD|KNApSaCK|Latin America dataset|NANPDB (Natural Products from Northern African Sources)|NPASS|NPEdia|NuBBEDB|Super Natural II|TCMDB-Taiwan (Traditional Chinese Medicine database)|WikiData Natural Products|ZINC NP

>  <dois>  (163) 
10.1016/J.PHYTOCHEM.2004.08.050|10.1016/S0031-9422(00)91467-5|10.1016/j.phytochem.2004.08.050|10.1016/s0031-9422(98)80079-4|10.1021/acs.jnatprod.5b00877|10.1590/S0103-50532011000200025

>  <synonyms>  (163) 
nan

>  <cas>  (163) 
nan

$$$$

     RDKit          2D

 28 30  0  0  0  0  0  0  0  0999 V2000
   -7.1967   -0.0819    0.0000 C   0  0  0  0  0  0  0  0  0  0  0  0
   -6.1564    0.9988    0.0000 C   0  0  0  0  0  0  0  0  0  0  0  0
   -4.7004    0.6382    0.0000 C   0  0  0  0  0  0  0  0  0  0  0  0
   -4.3398    2.0942    0.0000 C   0  0  0  0  0  0  0  0  0  0  0  0
   -5.0610   -0.8178    0.0000 C   0  0  0  0  0  0  0  0  0  0  0  0
   -3.2444    0.2777    0.0000 C   0  0  0  0  0  0  0  0  0  0  0  0
   -2.2041    1.3583    0.0000 C   0  0  0  0  0  0  0  0  0  0  0  0
   -0.7481    0.9978    0.0000 C   0  0  0  0  0  0  0  0  0  0  0  0
    0.2922    2.0785    0.0000 C   0  0  0  0  0  0  0  0  0  0  0  0
   -0.1236    3.5197    0.0000 O   0  0  0  0  0  0  0  0  0  0  0  0
    1.7482    1.7179    0.0000 C   0  0  0  0  0  0  0  0  0  0  0  0
    2.1639    0.2767    0.0000 C   0  0  0  0  0  0  0  0  0  0  0  0
    3.6200   -0.0839    0.0000 O   0  0  0  0  0  0  0  0  0  0  0  0
    4.6602    0.9968    0.0000 C   0  0  0  0  0  0  0  0  0  0  0  0
    6.0074    1.6565    0.0000 C   0  0  0  0  0  0  0  0  0  0  0  0
    5.5438   -0.2153    0.0000 C   0  0  0  0  0  0  0  0  0  0  0  0
    4.2445    2.4380    0.0000 C   0  0  0  0  0  0  0  0  0  0  0  0
    2.7884    2.7986    0.0000 C   0  0  0  0  0  0  0  0  0  0  0  0
    1.1237   -0.8040    0.0000 C   0  0  0  0  0  0  0  0  0  0  0  0
    1.5394   -2.2452    0.0000 C   0  0  0  0  0  0  0  0  0  0  0  0
    0.0982   -2.6610    0.0000 C   0  0  0  0  0  0  0  0  0  0  0  0
    2.9807   -1.8295    0.0000 C   0  0  0  0  0  0  0  0  0  0  0  0
    1.9552   -3.6865    0.0000 C   0  0  0  0  0  0  0  0  0  0  0  0
    3.4112   -4.0470    0.0000 C   0  0  0  0  0  0  0  0  0  0  0  0
   -0.3323   -0.4435    0.0000 C   0  0  0  0  0  0  0  0  0  0  0  0
   -1.3726   -1.5241    0.0000 O   0  0  0  0  0  0  0  0  0  0  0  0
   -2.8286   -1.1636    0.0000 C   0  0  0  0  0  0  0  0  0  0  0  0
   -3.8689   -2.2442    0.0000 O   0  0  0  0  0  0  0  0  0  0  0  0
  1  2  2  0
  2  3  1  0
  3  4  1  0
  3  5  1  0
  3  6  1  0
  6  7  2  0
  7  8  1  0
  8  9  2  0
  9 10  1  0
  9 11  1  0
 11 12  2  0
 12 13  1  0
 13 14  1  0
 14 15  1  0
 14 16  1  0
 14 17  1  0
 17 18  2  0
 12 19  1  0
 19 20  1  0
 20 21  1  0
 20 22  1  0
 20 23  1  0
 23 24  2  0
 19 25  2  0
 25 26  1  0
 26 27  1  0
 27 28  2  0
 27  6  1  0
 25  8  1  0
 18 11  1  0
M  END
>  <identifier>  (164) 
CNP0125959.0

>  <canonical_smiles>  (164) 
C=CC(C)(C)C1=CC2=C(O)C3=C(OC(C)(C)C=C3)C(C(C)(C)C=C)=C2OC1=O

>  <standard_inchi>  (164) 
InChI=1S/C24H28O4/c1-9-22(3,4)16-13-15-18(25)14-11-12-24(7,8)28-20(14)17(23(5,6)10-2)19(15)27-21(16)26/h9-13,25H,1-2H2,3-8H3

>  <standard_inchi_key>  (164) 
LMEKIDFKWUPZGE-UHFFFAOYSA-N

>  <name>  (164) 
Clausarin

>  <iupac_name>  (164) 
7,10-bis(1,1-dimethylallyl)-5-hydroxy-2,2-dimethyl-pyrano[3,2-g]chromen-8-one

>  <annotation_level>  (164) 
5

>  <total_atom_count>  (164) 
56

>  <heavy_atom_count>  (164) 
28

>  <molecular_weight>  (164) 
380.48

>  <exact_molecular_weight>  (164) 
380.19876

>  <molecular_formula>  (164) 
C24H28O4

>  <alogp>  (164) 
5.61

>  <topological_polar_surface_area>  (164) 
59.67

>  <rotatable_bond_count>  (164) 
4

>  <hydrogen_bond_acceptors>  (164) 
4

>  <hydrogen_bond_donors>  (164) 
1

>  <hydrogen_bond_acceptors_lipinski>  (164) 
4

>  <hydrogen_bond_donors_lipinski>  (164) 
1

>  <lipinski_rule_of_five_violations>  (164) 
1

>  <aromatic_rings_count>  (164) 
2

>  <qed_drug_likeliness>  (164) 
0.55

>  <formal_charge>  (164) 
0

>  <fractioncsp3>  (164) 
0.38

>  <number_of_minimal_rings>  (164) 
3

>  <van_der_walls_volume>  (164) 
358.78

>  <contains_sugar>  (164) 
False

>  <contains_ring_sugars>  (164) 
False

>  <contains_linear_sugars>  (164) 
False

>  <murcko_framework>  (164) 
O1c2cc3OCC=Cc3cc2C=CC1

>  <np_likeness>  (164) 
2.54

>  <chemical_class>  (164) 
Coumarins and derivatives

>  <chemical_sub_class>  (164) 
Pyranocoumarins

>  <chemical_super_class>  (164) 
Phenylpropanoids and polyketides

>  <direct_parent_classification>  (164) 
Linear pyranocoumarins

>  <np_classifier_pathway>  (164) 
Shikimates and Phenylpropanoids

>  <np_classifier_superclass>  (164) 
Coumarins

>  <np_classifier_class>  (164) 
Pyranocoumarins

>  <np_classifier_is_glycoside>  (164) 
False

>  <organisms>  (164) 
Acanthopanax senticosus|Anagallis arvensis|Asterolasia squamuligera|Bauhinia racemosa|Catharanthus roseus|Cinnamomum tenuifolium|Citrus depressa|Citrus funadoko|Citrus grandis|Citrus jambhiri|Citrus junos|Citrus medica|Citrus medica var. etrog|Citrus reticulata|Citrus sinensis|Citrus tamurana|Citrus × deliciosa|Clausena Excavata|Clausena excavata|Clausena harmandiana|Clausena pentaphylla|Clausena pentaphylla (Roxb.)DC.|Curvularia spicifera|Cyclamen balearicum|Eleutherococcus senticosus|Enkleia malaccensis|Enkleia siamensis|Grindelia humilis|Jaspis stellifera|Maianthemum stellatum|Moringa oleifera|Palythoa tuberculosa|Petriella guttulata|Phyllobates aurotaenia|Pluchea dioscoridis|Pyrola rotundifolia|Stevia alpina|Stoeba extensa|Streptomyces violaceochromogenes|Strophanthus eminii|Tanacetum argyrophyllum|Trifoliate orange|Uncaria perrottetii|pomelo

>  <collections>  (164) 
AnalytiCon Discovery NPs|CMAUP (cCollective molecular activities of useful plants)|GNPS (Global Natural Products Social Molecular Networking)|KNApSaCK|Latin America dataset|NPASS|NuBBEDB|Super Natural II|TCMDB-Taiwan (Traditional Chinese Medicine database)|TCMID (Traditional Chinese Medicine Integrated Database)|TIPdb (database of Taiwan indigenous plants)|UNPD (Universal Natural Products Database)|VietHerb|WikiData Natural Products|ZINC NP

>  <dois>  (164) 
10.1007/BF01922181|10.1016/0031-9422(88)80815-X|10.1016/0031-9422(88)83146-7|10.1016/0031-9422(96)00212-9|10.1016/S0031-9422(00)84044-3|10.1016/S0031-9422(96)00532-8|10.1016/S0031-9422(99)00220-4|10.1016/j.bmc.2009.02.050|10.1021/NP50036A038|10.1021/NP50048A051|10.1021/jf801103p|10.1039/P19900001593|10.1055/S-2000-8558|10.1248/CPB.31.895|10.1248/CPB.34.3922|10.1248/CPB.38.1230|10.1248/CPB.39.2252|10.1248/CPB.45.48|10.1248/CPB.56.827|10.1248/CPB.58.61|10.1248/CPB.58.971|10.3987/R-1982-02-0273

>  <synonyms>  (164) 
2H,8H-Benzo(1,2-b:5,4-b')dipyran-2-one, 3,10-bis(1,1-dimethyl-2-propenyl)-5-hydroxy-8,8-dimethyl-|5-hydroxy-2,2-dimethyl-7,10-bis(2-methylbut-3-en-2-yl)pyrano[3,2-g]chromen-8-one|62770-67-6|AKOS040734627|CHEMBL158198|Clausarin|DTXSID50211841|SCHEMBL3366447

>  <cas>  (164) 
62770-67-6

$$$$

     RDKit          2D

 21 22  0  0  0  0  0  0  0  0999 V2000
   -6.5628   -2.3876    0.0000 C   0  0  0  0  0  0  0  0  0  0  0  0
   -5.0648   -2.3092    0.0000 O   0  0  0  0  0  0  0  0  0  0  0  0
   -4.3837   -0.9727    0.0000 C   0  0  0  0  0  0  0  0  0  0  0  0
   -5.2006    0.2853    0.0000 C   0  0  0  0  0  0  0  0  0  0  0  0
   -4.5195    1.6218    0.0000 C   0  0  0  0  0  0  0  0  0  0  0  0
   -5.3364    2.8799    0.0000 O   0  0  0  0  0  0  0  0  0  0  0  0
   -3.0216    1.7002    0.0000 O   0  0  0  0  0  0  0  0  0  0  0  0
   -2.2047    0.4421    0.0000 C   0  0  0  0  0  0  0  0  0  0  0  0
   -0.7067    0.5205    0.0000 C   0  0  0  0  0  0  0  0  0  0  0  0
    0.1101   -0.7376    0.0000 C   0  0  0  0  0  0  0  0  0  0  0  0
    1.6081   -0.6592    0.0000 C   0  0  0  0  0  0  0  0  0  0  0  0
    2.4249   -1.9172    0.0000 C   0  0  0  0  0  0  0  0  0  0  0  0
    3.9229   -1.8388    0.0000 C   0  0  0  0  0  0  0  0  0  0  0  0
    4.6040   -0.5024    0.0000 C   0  0  0  0  0  0  0  0  0  0  0  0
    6.1019   -0.4240    0.0000 O   0  0  0  0  0  0  0  0  0  0  0  0
    6.9188   -1.6821    0.0000 C   0  0  0  0  0  0  0  0  0  0  0  0
    3.7871    0.7557    0.0000 C   0  0  0  0  0  0  0  0  0  0  0  0
    4.4682    2.0921    0.0000 O   0  0  0  0  0  0  0  0  0  0  0  0
    3.6513    3.3502    0.0000 C   0  0  0  0  0  0  0  0  0  0  0  0
    2.2892    0.6773    0.0000 C   0  0  0  0  0  0  0  0  0  0  0  0
   -2.8858   -0.8943    0.0000 C   0  0  0  0  0  0  0  0  0  0  0  0
  1  2  1  0
  2  3  1  0
  3  4  2  0
  4  5  1  0
  5  6  2  0
  5  7  1  0
  7  8  1  0
  8  9  1  1
  9 10  1  0
 10 11  1  0
 11 12  2  0
 12 13  1  0
 13 14  2  0
 14 15  1  0
 15 16  1  0
 14 17  1  0
 17 18  1  0
 18 19  1  0
 17 20  2  0
  8 21  1  0
 21  3  1  0
 20 11  1  0
M  END
>  <identifier>  (165) 
CNP0253161.1

>  <canonical_smiles>  (165) 
COC1=CC(=O)O[C@@H](CCC2=CC=C(OC)C(OC)=C2)C1

>  <standard_inchi>  (165) 
InChI=1S/C16H20O5/c1-18-13-9-12(21-16(17)10-13)6-4-11-5-7-14(19-2)15(8-11)20-3/h5,7-8,10,12H,4,6,9H2,1-3H3/t12-/m0/s1

>  <standard_inchi_key>  (165) 
HEURTYMJWQPWNN-LBPRGKRZSA-N

>  <name>  (165) 
Tetrahydro-11-methoxyiangonin

>  <iupac_name>  (165) 
(2~{S})-2-[2-(3,4-dimethoxyphenyl)ethyl]-4-methoxy-2,3-dihydropyran-6-one

>  <annotation_level>  (165) 
5

>  <total_atom_count>  (165) 
41

>  <heavy_atom_count>  (165) 
21

>  <molecular_weight>  (165) 
292.33

>  <exact_molecular_weight>  (165) 
292.13107

>  <molecular_formula>  (165) 
C16H20O5

>  <alogp>  (165) 
2.48

>  <topological_polar_surface_area>  (165) 
53.99

>  <rotatable_bond_count>  (165) 
6

>  <hydrogen_bond_acceptors>  (165) 
5

>  <hydrogen_bond_donors>  (165) 
0

>  <hydrogen_bond_acceptors_lipinski>  (165) 
5

>  <hydrogen_bond_donors_lipinski>  (165) 
0

>  <lipinski_rule_of_five_violations>  (165) 
0

>  <aromatic_rings_count>  (165) 
1

>  <qed_drug_likeliness>  (165) 
0.75

>  <formal_charge>  (165) 
0

>  <fractioncsp3>  (165) 
0.44

>  <number_of_minimal_rings>  (165) 
2

>  <van_der_walls_volume>  (165) 
nan

>  <contains_sugar>  (165) 
False

>  <contains_ring_sugars>  (165) 
False

>  <contains_linear_sugars>  (165) 
False

>  <murcko_framework>  (165) 
O1CC=CCC1CCc2ccccc2

>  <np_likeness>  (165) 
1.41

>  <chemical_class>  (165) 
Kavalactones

>  <chemical_sub_class>  (165) 
Kavalactones

>  <chemical_super_class>  (165) 
Phenylpropanoids and polyketides

>  <direct_parent_classification>  (165) 
Kavalactones

>  <np_classifier_pathway>  (165) 
Shikimates and Phenylpropanoids

>  <np_classifier_superclass>  (165) 
Styrylpyrones

>  <np_classifier_class>  (165) 
Kavalactones and derivatives

>  <np_classifier_is_glycoside>  (165) 
False

>  <organisms>  (165) 
Aniba gigantifolia|Aniba hostmanniana|Macropiper latifolium|Macropiper methysticum|Piper latifolium|Piper longum|Piper majusculum|Piper methysticum|Piper peltatum

>  <collections>  (165) 
Latin America dataset|NuBBEDB|Super Natural II|WikiData Natural Products

>  <dois>  (165) 
10.1016/0031-9422(73)85045-9|10.1016/S0031-9422(01)00443-5

>  <synonyms>  (165) 
(2S)-2-[2-(3,4-dimethoxyphenyl)ethyl]-4-methoxy-2,3-dihydropyran-6-one|(6S)-6-[2-(3,4-Dimethoxyphenyl)ethyl]-5,6-dihydro-4-methoxy-2H-pyran-2-one|(S)-6-(3,4-dimethoxyphenethyl)-4-methoxy-5,6-dihydro-2H-pyran-2-one|2H-Pyran-2-one, 6-[2-(3,4-dimethoxyphenyl)ethyl]-5,6-dihydro-4-methoxy-, (6S)-|38146-60-0|6-[2-(3,4-Dimethoxyphenyl)ethyl]-4-methoxy-5,6-dihydro-2H-pyran-2-one #|CHEBI:157734|DTXSID701145432|HEURTYMJWQPWNN-LBPRGKRZSA-N|SRY7RA5HT4|tetrahydro-11-methoxyiangonin

>  <cas>  (165) 
38146-60-0

$$$$

     RDKit          2D

 27 28  0  0  0  0  0  0  0  0999 V2000
    2.9825    3.0312    0.0000 C   0  0  0  0  0  0  0  0  0  0  0  0
    2.8680    1.5355    0.0000 O   0  0  0  0  0  0  0  0  0  0  0  0
    4.1060    0.6886    0.0000 C   0  0  0  0  0  0  0  0  0  0  0  0
    3.9915   -0.8071    0.0000 C   0  0  0  0  0  0  0  0  0  0  0  0
    2.6390   -1.4557    0.0000 C   0  0  0  0  0  0  0  0  0  0  0  0
    1.4010   -0.6087    0.0000 C   0  0  0  0  0  0  0  0  0  0  0  0
    0.0485   -1.2574    0.0000 C   0  0  0  0  0  0  0  0  0  0  0  0
   -1.1895   -0.4104    0.0000 C   0  0  0  0  0  0  0  0  0  0  0  0
   -2.5420   -1.0590    0.0000 C   0  0  0  0  0  0  0  0  0  0  0  0
   -3.7800   -0.2121    0.0000 C   0  0  0  0  0  0  0  0  0  0  0  0
   -5.1325   -0.8607    0.0000 C   0  0  0  0  0  0  0  0  0  0  0  0
   -6.3705   -0.0137    0.0000 C   0  0  0  0  0  0  0  0  0  0  0  0
   -7.7230   -0.6624    0.0000 C   0  0  0  0  0  0  0  0  0  0  0  0
   -8.9610    0.1846    0.0000 C   0  0  0  0  0  0  0  0  0  0  0  0
  -10.3135   -0.4640    0.0000 C   0  0  0  0  0  0  0  0  0  0  0  0
  -11.5515    0.3830    0.0000 C   0  0  0  0  0  0  0  0  0  0  0  0
  -12.9040   -0.2657    0.0000 C   0  0  0  0  0  0  0  0  0  0  0  0
  -11.4370    1.8786    0.0000 O   0  0  0  0  0  0  0  0  0  0  0  0
    5.2295   -1.6540    0.0000 N   0  0  0  0  0  0  0  0  0  0  0  0
    6.5820   -1.0054    0.0000 C   0  0  0  0  0  0  0  0  0  0  0  0
    7.8200   -1.8524    0.0000 C   0  0  0  0  0  0  0  0  0  0  0  0
    9.1725   -1.2037    0.0000 C   0  0  0  0  0  0  0  0  0  0  0  0
    9.2870    0.2919    0.0000 C   0  0  0  0  0  0  0  0  0  0  0  0
    8.0490    1.1389    0.0000 C   0  0  0  0  0  0  0  0  0  0  0  0
    6.6965    0.4902    0.0000 C   0  0  0  0  0  0  0  0  0  0  0  0
    5.4585    1.3372    0.0000 C   0  0  0  0  0  0  0  0  0  0  0  0
    5.5730    2.8328    0.0000 O   0  0  0  0  0  0  0  0  0  0  0  0
  1  2  1  0
  2  3  1  0
  3  4  2  0
  4  5  1  0
  5  6  1  0
  6  7  1  0
  7  8  1  0
  8  9  1  0
  9 10  1  0
 10 11  1  0
 11 12  1  0
 12 13  1  0
 13 14  1  0
 14 15  1  0
 15 16  1  0
 16 17  1  0
 16 18  2  0
  4 19  1  0
 19 20  1  0
 20 21  2  0
 21 22  1  0
 22 23  2  0
 23 24  1  0
 24 25  2  0
 25 26  1  0
 26 27  2  0
 26  3  1  0
 25 20  1  0
M  END
>  <identifier>  (166) 
CNP0113461.0

>  <canonical_smiles>  (166) 
COC1=C(CCCCCCCCCCCC(C)=O)NC2=CC=CC=C2C1=O

>  <standard_inchi>  (166) 
InChI=1S/C23H33NO3/c1-18(25)14-10-8-6-4-3-5-7-9-11-17-21-23(27-2)22(26)19-15-12-13-16-20(19)24-21/h12-13,15-16H,3-11,14,17H2,1-2H3,(H,24,26)

>  <standard_inchi_key>  (166) 
BCBKLCYXAVRVRC-UHFFFAOYSA-N

>  <name>  (166) 
nan

>  <iupac_name>  (166) 
3-methoxy-2-(12-oxotridecyl)-1~{H}-quinolin-4-one

>  <annotation_level>  (166) 
4

>  <total_atom_count>  (166) 
60

>  <heavy_atom_count>  (166) 
27

>  <molecular_weight>  (166) 
371.52

>  <exact_molecular_weight>  (166) 
371.24604

>  <molecular_formula>  (166) 
C23H33NO3

>  <alogp>  (166) 
5.57

>  <topological_polar_surface_area>  (166) 
59.16

>  <rotatable_bond_count>  (166) 
13

>  <hydrogen_bond_acceptors>  (166) 
3

>  <hydrogen_bond_donors>  (166) 
1

>  <hydrogen_bond_acceptors_lipinski>  (166) 
3

>  <hydrogen_bond_donors_lipinski>  (166) 
1

>  <lipinski_rule_of_five_violations>  (166) 
1

>  <aromatic_rings_count>  (166) 
2

>  <qed_drug_likeliness>  (166) 
0.47

>  <formal_charge>  (166) 
0

>  <fractioncsp3>  (166) 
0.57

>  <number_of_minimal_rings>  (166) 
2

>  <van_der_walls_volume>  (166) 
nan

>  <contains_sugar>  (166) 
False

>  <contains_ring_sugars>  (166) 
False

>  <contains_linear_sugars>  (166) 
False

>  <murcko_framework>  (166) 
c1ccc2c(c1)NC=CC2

>  <np_likeness>  (166) 
0.54

>  <chemical_class>  (166) 
Quinolines and derivatives

>  <chemical_sub_class>  (166) 
Quinolones and derivatives

>  <chemical_super_class>  (166) 
Organoheterocyclic compounds

>  <direct_parent_classification>  (166) 
Hydroquinolones

>  <np_classifier_pathway>  (166) 
Alkaloids

>  <np_classifier_superclass>  (166) 
Tryptophan alkaloids

>  <np_classifier_class>  (166) 
Quinoline alkaloids

>  <np_classifier_is_glycoside>  (166) 
False

>  <organisms>  (166) 
Sohnreyia excelsa|Spathelia excelsa

>  <collections>  (166) 
Latin America dataset|NuBBEDB|TCMDB-Taiwan (Traditional Chinese Medicine database)|TCMID (Traditional Chinese Medicine Integrated Database)|UNPD (Universal Natural Products Database)|WikiData Natural Products|ZINC NP

>  <dois>  (166) 
10.1016/J.PHYTOCHEM.2005.05.019|10.1016/j.phytochem.2005.05.019

>  <synonyms>  (166) 
2-(12-oxo-tridecanyl)-3-methoxy-4-quinolone

>  <cas>  (166) 
nan

$$$$

     RDKit          2D

 23 24  0  0  0  0  0  0  0  0999 V2000
   -4.6940    1.5918    0.0000 C   0  0  0  0  0  0  0  0  0  0  0  0
   -3.5653    0.6038    0.0000 C   0  0  0  0  0  0  0  0  0  0  0  0
   -2.1454    1.0873    0.0000 C   0  0  0  0  0  0  0  0  0  0  0  0
   -1.0167    0.0994    0.0000 C   0  0  0  0  0  0  0  0  0  0  0  0
    0.4032    0.5829    0.0000 C   0  0  0  0  0  0  0  0  0  0  0  0
    1.5319   -0.4051    0.0000 C   0  0  0  0  0  0  0  0  0  0  0  0
    0.1120   -0.8886    0.0000 C   0  0  0  0  0  0  0  0  0  0  0  0
    1.2407   -1.8765    0.0000 C   0  0  0  0  0  0  0  0  0  0  0  0
    2.3694   -2.8645    0.0000 C   0  0  0  0  0  0  0  0  0  0  0  0
    3.7893   -2.3810    0.0000 C   0  0  0  0  0  0  0  0  0  0  0  0
    4.0806   -0.9095    0.0000 C   0  0  0  0  0  0  0  0  0  0  0  0
    4.8575    0.3736    0.0000 C   0  0  0  0  0  0  0  0  0  0  0  0
    5.4791   -1.4519    0.0000 C   0  0  0  0  0  0  0  0  0  0  0  0
    2.9519    0.0784    0.0000 C   0  0  0  0  0  0  0  0  0  0  0  0
    3.2431    1.5499    0.0000 C   0  0  0  0  0  0  0  0  0  0  0  0
    2.1144    2.5378    0.0000 C   0  0  0  0  0  0  0  0  0  0  0  0
    0.6945    2.0543    0.0000 C   0  0  0  0  0  0  0  0  0  0  0  0
    0.4649    3.5367    0.0000 C   0  0  0  0  0  0  0  0  0  0  0  0
   -0.8052    2.0856    0.0000 O   0  0  0  0  0  0  0  0  0  0  0  0
   -3.8566   -0.8676    0.0000 C   0  0  0  0  0  0  0  0  0  0  0  0
   -5.2765   -1.3511    0.0000 C   0  0  0  0  0  0  0  0  0  0  0  0
   -6.4052   -0.3632    0.0000 O   0  0  0  0  0  0  0  0  0  0  0  0
   -5.5678   -2.8226    0.0000 O   0  0  0  0  0  0  0  0  0  0  0  0
  2  1  1  1
  2  3  1  0
  3  4  1  0
  5  4  1  6
  5  6  1  0
  6  7  1  6
  6  8  1  0
  8  9  1  0
  9 10  1  0
 10 11  1  0
 11 12  1  0
 11 13  1  0
 11 14  1  0
 14 15  1  6
 15 16  1  0
 16 17  1  0
 17 18  1  1
 17 19  1  0
  2 20  1  0
 20 21  1  0
 21 22  2  0
 21 23  1  0
 17  5  1  0
 14  6  1  0
M  END
>  <identifier>  (167) 
CNP0203806.4

>  <canonical_smiles>  (167) 
C[C@@H](CC[C@H]1[C@]2(C)CCCC(C)(C)[C@H]2CC[C@@]1(C)O)CC(=O)O

>  <standard_inchi>  (167) 
InChI=1S/C20H36O3/c1-14(13-17(21)22)7-8-16-19(4)11-6-10-18(2,3)15(19)9-12-20(16,5)23/h14-16,23H,6-13H2,1-5H3,(H,21,22)/t14-,15+,16-,19+,20+/m0/s1

>  <standard_inchi_key>  (167) 
KHCCSRVJJDOANA-HRYJEPKJSA-N

>  <name>  (167) 
nan

>  <iupac_name>  (167) 
(3~{S})-5-[(1~{S},2~{R},4~{a}~{R},8~{a}~{R})-2-hydroxy-2,5,5,8~{a}-tetramethyl-decalin-1-yl]-3-methyl-pentanoic acid

>  <annotation_level>  (167) 
4

>  <total_atom_count>  (167) 
59

>  <heavy_atom_count>  (167) 
23

>  <molecular_weight>  (167) 
324.51

>  <exact_molecular_weight>  (167) 
324.26645

>  <molecular_formula>  (167) 
C20H36O3

>  <alogp>  (167) 
4.87

>  <topological_polar_surface_area>  (167) 
57.53

>  <rotatable_bond_count>  (167) 
5

>  <hydrogen_bond_acceptors>  (167) 
2

>  <hydrogen_bond_donors>  (167) 
2

>  <hydrogen_bond_acceptors_lipinski>  (167) 
2

>  <hydrogen_bond_donors_lipinski>  (167) 
2

>  <lipinski_rule_of_five_violations>  (167) 
0

>  <aromatic_rings_count>  (167) 
0

>  <qed_drug_likeliness>  (167) 
0.76

>  <formal_charge>  (167) 
0

>  <fractioncsp3>  (167) 
0.95

>  <number_of_minimal_rings>  (167) 
2

>  <van_der_walls_volume>  (167) 
nan

>  <contains_sugar>  (167) 
False

>  <contains_ring_sugars>  (167) 
False

>  <contains_linear_sugars>  (167) 
False

>  <murcko_framework>  (167) 
C1CCC2CCCCC2C1

>  <np_likeness>  (167) 
2.57

>  <chemical_class>  (167) 
Prenol lipids

>  <chemical_sub_class>  (167) 
Diterpenoids

>  <chemical_super_class>  (167) 
Lipids and lipid-like molecules

>  <direct_parent_classification>  (167) 
Diterpenoids

>  <np_classifier_pathway>  (167) 
Terpenoids

>  <np_classifier_superclass>  (167) 
Diterpenoids

>  <np_classifier_class>  (167) 
Labdane diterpenoids

>  <np_classifier_is_glycoside>  (167) 
False

>  <organisms>  (167) 
Hymenea coubaril|Olearia fulgens

>  <collections>  (167) 
Australian natural products|Latin America dataset|NuBBEDB|ZINC NP

>  <dois>  (167) 
10.1016/0031-9422(75)85324-6|10.1016/j.phytol.2020.06.008

>  <synonyms>  (167) 
Labdan-8\u221a\u00e9\u00ac\u2264-ol-15-oic acid

>  <cas>  (167) 
nan

$$$$

     RDKit          2D

 32 36  0  0  0  0  0  0  0  0999 V2000
   -5.2611   -4.1853    0.0000 C   0  0  0  0  0  0  0  0  0  0  0  0
   -4.9293   -2.7225    0.0000 C   0  0  0  0  0  0  0  0  0  0  0  0
   -3.4965   -2.2784    0.0000 C   0  0  0  0  0  0  0  0  0  0  0  0
   -6.0302   -1.7037    0.0000 C   0  0  0  0  0  0  0  0  0  0  0  0
   -7.4630   -2.1477    0.0000 C   0  0  0  0  0  0  0  0  0  0  0  0
   -5.6984   -0.2409    0.0000 C   0  0  0  0  0  0  0  0  0  0  0  0
   -4.2656    0.2032    0.0000 C   0  0  0  0  0  0  0  0  0  0  0  0
   -3.9338    1.6660    0.0000 C   0  0  0  0  0  0  0  0  0  0  0  0
   -5.0347    2.6848    0.0000 C   0  0  0  0  0  0  0  0  0  0  0  0
   -2.5010    2.1101    0.0000 C   0  0  0  0  0  0  0  0  0  0  0  0
   -2.0181    3.5302    0.0000 C   0  0  0  0  0  0  0  0  0  0  0  0
   -0.5183    3.5098    0.0000 C   0  0  0  0  0  0  0  0  0  0  0  0
   -0.0742    2.0770    0.0000 C   0  0  0  0  0  0  0  0  0  0  0  0
    1.0541    3.0654    0.0000 C   0  0  0  0  0  0  0  0  0  0  0  0
    1.2877    1.4483    0.0000 C   0  0  0  0  0  0  0  0  0  0  0  0
    2.5131    2.3133    0.0000 C   0  0  0  0  0  0  0  0  0  0  0  0
    3.8750    1.6846    0.0000 C   0  0  0  0  0  0  0  0  0  0  0  0
    4.0114    0.1908    0.0000 C   0  0  0  0  0  0  0  0  0  0  0  0
    5.3733   -0.4379    0.0000 C   0  0  0  0  0  0  0  0  0  0  0  0
    6.8681   -0.5629    0.0000 C   0  0  0  0  0  0  0  0  0  0  0  0
    5.7560    1.0125    0.0000 C   0  0  0  0  0  0  0  0  0  0  0  0
    5.5097   -1.9317    0.0000 C   0  0  0  0  0  0  0  0  0  0  0  0
    6.8716   -2.5604    0.0000 O   0  0  0  0  0  0  0  0  0  0  0  0
    4.2843   -2.7967    0.0000 C   0  0  0  0  0  0  0  0  0  0  0  0
    2.9224   -2.1680    0.0000 C   0  0  0  0  0  0  0  0  0  0  0  0
    2.7860   -0.6742    0.0000 C   0  0  0  0  0  0  0  0  0  0  0  0
    1.5606   -1.5393    0.0000 C   0  0  0  0  0  0  0  0  0  0  0  0
    1.4241   -0.0455    0.0000 C   0  0  0  0  0  0  0  0  0  0  0  0
    0.1987   -0.9106    0.0000 C   0  0  0  0  0  0  0  0  0  0  0  0
   -1.1632   -0.2818    0.0000 C   0  0  0  0  0  0  0  0  0  0  0  0
   -1.2996    1.2119    0.0000 C   0  0  0  0  0  0  0  0  0  0  0  0
   -2.6088    0.4797    0.0000 C   0  0  0  0  0  0  0  0  0  0  0  0
  1  2  1  0
  2  3  1  0
  2  4  1  0
  4  5  1  0
  4  6  1  0
  6  7  1  0
  7  8  1  0
  8  9  1  0
  8 10  1  0
 10 11  1  0
 11 12  1  0
 12 13  1  0
 13 14  1  6
 13 15  1  0
 15 16  1  0
 16 17  1  0
 17 18  1  0
 18 19  1  0
 19 20  1  0
 19 21  1  0
 19 22  1  0
 22 23  1  1
 22 24  1  0
 24 25  1  0
 26 25  1  6
 26 27  1  0
 28 27  1  1
 28 29  1  0
 29 30  1  0
 30 31  1  0
 31 32  1  1
 31 10  1  0
 31 13  1  0
 28 15  1  0
 26 18  1  0
 28 26  1  0
M  END
>  <identifier>  (168) 
CNP0392797.1

>  <canonical_smiles>  (168) 
CC(C)C(C)CCC(C)C1CC[C@@]2(C)C3CCC4C(C)(C)[C@@H](O)CC[C@@]45C[C@@]35CC[C@]12C

>  <standard_inchi>  (168) 
InChI=1S/C31H54O/c1-20(2)21(3)9-10-22(4)23-13-15-29(8)25-12-11-24-27(5,6)26(32)14-16-30(24)19-31(25,30)18-17-28(23,29)7/h20-26,32H,9-19H2,1-8H3/t21?,22?,23?,24?,25?,26-,28+,29-,30+,31-/m0/s1

>  <standard_inchi_key>  (168) 
ZJFQVIALUCQMSK-QOKSXTBPSA-N

>  <name>  (168) 
nan

>  <iupac_name>  (168) 
(1~{S},3~{R},6~{S},12~{S},16~{R})-7,7,12,16-tetramethyl-15-(1,4,5-trimethylhexyl)pentacyclo[9.7.0.0^{1,3}.0^{3,8}.0^{12,16}]octadecan-6-ol

>  <annotation_level>  (168) 
4

>  <total_atom_count>  (168) 
86

>  <heavy_atom_count>  (168) 
32

>  <molecular_weight>  (168) 
442.77

>  <exact_molecular_weight>  (168) 
442.41747

>  <molecular_formula>  (168) 
C31H54O

>  <alogp>  (168) 
8.49

>  <topological_polar_surface_area>  (168) 
20.23

>  <rotatable_bond_count>  (168) 
5

>  <hydrogen_bond_acceptors>  (168) 
1

>  <hydrogen_bond_donors>  (168) 
1

>  <hydrogen_bond_acceptors_lipinski>  (168) 
1

>  <hydrogen_bond_donors_lipinski>  (168) 
1

>  <lipinski_rule_of_five_violations>  (168) 
1

>  <aromatic_rings_count>  (168) 
0

>  <qed_drug_likeliness>  (168) 
0.45

>  <formal_charge>  (168) 
0

>  <fractioncsp3>  (168) 
1.00

>  <number_of_minimal_rings>  (168) 
5

>  <van_der_walls_volume>  (168) 
nan

>  <contains_sugar>  (168) 
False

>  <contains_ring_sugars>  (168) 
False

>  <contains_linear_sugars>  (168) 
False

>  <murcko_framework>  (168) 
C1CCC23CC43CCC5CCCC5C4CCC2C1

>  <np_likeness>  (168) 
3.00

>  <chemical_class>  (168) 
Steroids and steroid derivatives

>  <chemical_sub_class>  (168) 
Cycloartanols and derivatives

>  <chemical_super_class>  (168) 
Lipids and lipid-like molecules

>  <direct_parent_classification>  (168) 
Cycloartanols and derivatives

>  <np_classifier_pathway>  (168) 
Terpenoids

>  <np_classifier_superclass>  (168) 
Triterpenoids

>  <np_classifier_class>  (168) 
Cycloartane triterpenoids

>  <np_classifier_is_glycoside>  (168) 
False

>  <organisms>  (168) 
Almeidea coerulea|Conchocarpus coeruleus

>  <collections>  (168) 
Latin America dataset|NuBBEDB|WikiData Natural Products

>  <dois>  (168) 
10.1590/S0103-50531998000100007

>  <synonyms>  (168) 
24-methylcycloartanol

>  <cas>  (168) 
nan

$$$$

     RDKit          2D

 22 25  0  0  0  0  0  0  0  0999 V2000
    1.9984   -3.2513    0.0000 O   0  0  0  0  0  0  0  0  0  0  0  0
    1.6233   -1.7990    0.0000 C   0  0  0  0  0  0  0  0  0  0  0  0
    2.6935   -0.7480    0.0000 C   0  0  0  0  0  0  0  0  0  0  0  0
    4.1388   -1.1493    0.0000 C   0  0  0  0  0  0  0  0  0  0  0  0
    5.2091   -0.0983    0.0000 C   0  0  0  0  0  0  0  0  0  0  0  0
    4.8340    1.3541    0.0000 C   0  0  0  0  0  0  0  0  0  0  0  0
    5.9042    2.4051    0.0000 O   0  0  0  0  0  0  0  0  0  0  0  0
    3.3887    1.7554    0.0000 C   0  0  0  0  0  0  0  0  0  0  0  0
    2.3185    0.7044    0.0000 C   0  0  0  0  0  0  0  0  0  0  0  0
    0.8731    1.1057    0.0000 O   0  0  0  0  0  0  0  0  0  0  0  0
   -0.1971    0.0547    0.0000 C   0  0  0  0  0  0  0  0  0  0  0  0
   -1.6424    0.4561    0.0000 C   0  0  0  0  0  0  0  0  0  0  0  0
   -2.0175    1.9084    0.0000 C   0  0  0  0  0  0  0  0  0  0  0  0
   -3.4628    2.3098    0.0000 C   0  0  0  0  0  0  0  0  0  0  0  0
   -4.5330    1.2588    0.0000 C   0  0  0  0  0  0  0  0  0  0  0  0
   -5.9783    1.6601    0.0000 O   0  0  0  0  0  0  0  0  0  0  0  0
   -4.1579   -0.1936    0.0000 C   0  0  0  0  0  0  0  0  0  0  0  0
   -5.2282   -1.2446    0.0000 O   0  0  0  0  0  0  0  0  0  0  0  0
   -2.7126   -0.5949    0.0000 C   0  0  0  0  0  0  0  0  0  0  0  0
   -2.3375   -2.0473    0.0000 C   0  0  0  0  0  0  0  0  0  0  0  0
   -0.8922   -2.4486    0.0000 O   0  0  0  0  0  0  0  0  0  0  0  0
    0.1780   -1.3976    0.0000 C   0  0  0  0  0  0  0  0  0  0  0  0
  1  2  2  0
  2  3  1  0
  3  4  2  0
  4  5  1  0
  5  6  2  0
  6  7  1  0
  6  8  1  0
  8  9  2  0
  9 10  1  0
 11 10  1  6
 11 12  1  0
 12 13  2  0
 13 14  1  0
 14 15  2  0
 15 16  1  0
 15 17  1  0
 17 18  1  0
 17 19  2  0
 19 20  1  0
 20 21  1  0
 22 21  1  1
 22  2  1  0
  9  3  1  0
 22 11  1  0
 19 12  1  0
M  END
>  <identifier>  (169) 
CNP0262212.2

>  <canonical_smiles>  (169) 
O=C1C2=CC=C(O)C=C2O[C@H]2C3=CC=C(O)C(O)=C3CO[C@H]12

>  <standard_inchi>  (169) 
InChI=1S/C16H12O6/c17-7-1-2-9-12(5-7)22-15-8-3-4-11(18)13(19)10(8)6-21-16(15)14(9)20/h1-5,15-19H,6H2/t15-,16+/m0/s1

>  <standard_inchi_key>  (169) 
JZKMGBIDNPULDV-JKSUJKDBSA-N

>  <name>  (169) 
nan

>  <iupac_name>  (169) 
(6~{a}~{S},12~{a}~{S})-3,4,10-trihydroxy-6~{a},12~{a}-dihydro-5~{H}-isochromeno[4,3-b]chromen-7-one

>  <annotation_level>  (169) 
4

>  <total_atom_count>  (169) 
34

>  <heavy_atom_count>  (169) 
22

>  <molecular_weight>  (169) 
300.27

>  <exact_molecular_weight>  (169) 
300.06339

>  <molecular_formula>  (169) 
C16H12O6

>  <alogp>  (169) 
2.02

>  <topological_polar_surface_area>  (169) 
96.22

>  <rotatable_bond_count>  (169) 
0

>  <hydrogen_bond_acceptors>  (169) 
6

>  <hydrogen_bond_donors>  (169) 
3

>  <hydrogen_bond_acceptors_lipinski>  (169) 
6

>  <hydrogen_bond_donors_lipinski>  (169) 
3

>  <lipinski_rule_of_five_violations>  (169) 
0

>  <aromatic_rings_count>  (169) 
2

>  <qed_drug_likeliness>  (169) 
0.64

>  <formal_charge>  (169) 
0

>  <fractioncsp3>  (169) 
0.19

>  <number_of_minimal_rings>  (169) 
4

>  <van_der_walls_volume>  (169) 
nan

>  <contains_sugar>  (169) 
False

>  <contains_ring_sugars>  (169) 
False

>  <contains_linear_sugars>  (169) 
False

>  <murcko_framework>  (169) 
O1c2ccccc2CC3OCc4ccccc4C13

>  <np_likeness>  (169) 
2.14

>  <chemical_class>  (169) 
Flavonoids

>  <chemical_sub_class>  (169) 
Pyranoflavonoids

>  <chemical_super_class>  (169) 
Phenylpropanoids and polyketides

>  <direct_parent_classification>  (169) 
Pyranoflavonoids

>  <np_classifier_pathway>  (169) 
Shikimates and Phenylpropanoids

>  <np_classifier_superclass>  (169) 
Flavonoids

>  <np_classifier_class>  (169) 
Flavanones

>  <np_classifier_is_glycoside>  (169) 
False

>  <organisms>  (169) 
Goniorrhachis marginata

>  <collections>  (169) 
Latin America dataset|NuBBEDB|WikiData Natural Products

>  <dois>  (169) 
10.1016/0031-9422(74)80106-8

>  <synonyms>  (169) 
mopanone

>  <cas>  (169) 
nan

$$$$

     RDKit          2D

 24 24  0  0  0  0  0  0  0  0999 V2000
  -13.7232    0.1450    0.0000 C   0  0  0  0  0  0  0  0  0  0  0  0
  -12.3706    0.7933    0.0000 C   0  0  0  0  0  0  0  0  0  0  0  0
  -11.1328   -0.0540    0.0000 C   0  0  0  0  0  0  0  0  0  0  0  0
   -9.7801    0.5944    0.0000 C   0  0  0  0  0  0  0  0  0  0  0  0
   -8.5423   -0.2529    0.0000 C   0  0  0  0  0  0  0  0  0  0  0  0
   -7.1897    0.3954    0.0000 C   0  0  0  0  0  0  0  0  0  0  0  0
   -5.9519   -0.4518    0.0000 C   0  0  0  0  0  0  0  0  0  0  0  0
   -4.5992    0.1965    0.0000 C   0  0  0  0  0  0  0  0  0  0  0  0
   -3.3614   -0.6508    0.0000 C   0  0  0  0  0  0  0  0  0  0  0  0
   -2.0088   -0.0024    0.0000 C   0  0  0  0  0  0  0  0  0  0  0  0
   -0.7710   -0.8497    0.0000 C   0  0  0  0  0  0  0  0  0  0  0  0
    0.5817   -0.2014    0.0000 C   0  0  0  0  0  0  0  0  0  0  0  0
    1.8195   -1.0486    0.0000 C   0  0  0  0  0  0  0  0  0  0  0  0
    3.1721   -0.4003    0.0000 C   0  0  0  0  0  0  0  0  0  0  0  0
    4.4099   -1.2476    0.0000 C   0  0  0  0  0  0  0  0  0  0  0  0
    5.7626   -0.5992    0.0000 C   0  0  0  0  0  0  0  0  0  0  0  0
    5.8774    0.8963    0.0000 C   0  0  0  0  0  0  0  0  0  0  0  0
    7.2301    1.5447    0.0000 C   0  0  0  0  0  0  0  0  0  0  0  0
    7.3449    3.0403    0.0000 O   0  0  0  0  0  0  0  0  0  0  0  0
    8.4679    0.6974    0.0000 C   0  0  0  0  0  0  0  0  0  0  0  0
    9.8205    1.3457    0.0000 C   0  0  0  0  0  0  0  0  0  0  0  0
    8.3530   -0.7982    0.0000 C   0  0  0  0  0  0  0  0  0  0  0  0
    9.5908   -1.6454    0.0000 O   0  0  0  0  0  0  0  0  0  0  0  0
    7.0004   -1.4465    0.0000 C   0  0  0  0  0  0  0  0  0  0  0  0
  1  2  1  0
  2  3  1  0
  3  4  1  0
  4  5  1  0
  5  6  1  0
  6  7  1  0
  7  8  1  0
  8  9  1  0
  9 10  1  0
 10 11  1  0
 11 12  1  0
 12 13  1  0
 13 14  1  0
 14 15  1  0
 15 16  1  0
 16 17  2  0
 17 18  1  0
 18 19  1  0
 18 20  2  0
 20 21  1  0
 20 22  1  0
 22 23  1  0
 22 24  2  0
 24 16  1  0
M  END
>  <identifier>  (170) 
CNP0295331.0

>  <canonical_smiles>  (170) 
CCCCCCCCCCCCCCCC1=CC(O)=C(C)C(O)=C1

>  <standard_inchi>  (170) 
InChI=1S/C22H38O2/c1-3-4-5-6-7-8-9-10-11-12-13-14-15-16-20-17-21(23)19(2)22(24)18-20/h17-18,23-24H,3-16H2,1-2H3

>  <standard_inchi_key>  (170) 
BKJGZUZQKDSBSN-UHFFFAOYSA-N

>  <name>  (170) 
16737-82-9

>  <iupac_name>  (170) 
2-methyl-5-pentadecyl-benzene-1,3-diol

>  <annotation_level>  (170) 
5

>  <total_atom_count>  (170) 
62

>  <heavy_atom_count>  (170) 
24

>  <molecular_weight>  (170) 
334.54

>  <exact_molecular_weight>  (170) 
334.28718

>  <molecular_formula>  (170) 
C22H38O2

>  <alogp>  (170) 
7.04

>  <topological_polar_surface_area>  (170) 
40.46

>  <rotatable_bond_count>  (170) 
14

>  <hydrogen_bond_acceptors>  (170) 
2

>  <hydrogen_bond_donors>  (170) 
2

>  <hydrogen_bond_acceptors_lipinski>  (170) 
2

>  <hydrogen_bond_donors_lipinski>  (170) 
2

>  <lipinski_rule_of_five_violations>  (170) 
1

>  <aromatic_rings_count>  (170) 
1

>  <qed_drug_likeliness>  (170) 
0.36

>  <formal_charge>  (170) 
0

>  <fractioncsp3>  (170) 
0.73

>  <number_of_minimal_rings>  (170) 
1

>  <van_der_walls_volume>  (170) 
365.10

>  <contains_sugar>  (170) 
False

>  <contains_ring_sugars>  (170) 
False

>  <contains_linear_sugars>  (170) 
False

>  <murcko_framework>  (170) 
c1ccccc1

>  <np_likeness>  (170) 
0.58

>  <chemical_class>  (170) 
Phenols

>  <chemical_sub_class>  (170) 
Benzenediols

>  <chemical_super_class>  (170) 
Benzenoids

>  <direct_parent_classification>  (170) 
Resorcinols

>  <np_classifier_pathway>  (170) 
Polyketides

>  <np_classifier_superclass>  (170) 
Aromatic polyketides

>  <np_classifier_class>  (170) 
Catechols with side chains

>  <np_classifier_is_glycoside>  (170) 
False

>  <organisms>  (170) 
Anacardium occidentale|Aronia arbutifolia|Cashew|Clibadium mexiae|Discaria serratifolia|Ideopsis similis|Justicia hayatai|Pteris dactylina|Pyrostegia venusta|Rana amurensis|Viscaria viscosa

>  <collections>  (170) 
CMAUP (cCollective molecular activities of useful plants)|Latin America dataset|NPASS|NuBBEDB|Super Natural II|UNPD (Universal Natural Products Database)|WikiData Natural Products|ZINC NP

>  <dois>  (170) 
10.1002/PTR.2650070309|10.1021/JF00002A039|10.1021/JF00030A035|10.1021/NP50106A021|10.1021/jf00030a035|10.1039/P19730001639

>  <synonyms>  (170) 
1,3-Benzenediol, 2-methyl-5-pentadecyl-|2-methyl-5-pentadecylbenzene-1,3-diol|CHEMBL470557|DTXSID50937312|SCHEMBL6577689|methyl-5-pentadecylresorcinol

>  <cas>  (170) 
nan

$$$$

     RDKit          2D

 24 26  0  0  0  0  0  0  0  0999 V2000
   -5.2391   -1.3978    0.0000 C   0  0  0  0  0  0  0  0  0  0  0  0
   -3.9030   -2.0796    0.0000 O   0  0  0  0  0  0  0  0  0  0  0  0
   -2.6445   -1.2635    0.0000 C   0  0  0  0  0  0  0  0  0  0  0  0
   -2.7221    0.2345    0.0000 C   0  0  0  0  0  0  0  0  0  0  0  0
   -4.0582    0.9164    0.0000 O   0  0  0  0  0  0  0  0  0  0  0  0
   -4.1358    2.4143    0.0000 C   0  0  0  0  0  0  0  0  0  0  0  0
   -1.4636    1.0507    0.0000 C   0  0  0  0  0  0  0  0  0  0  0  0
   -1.5412    2.5487    0.0000 O   0  0  0  0  0  0  0  0  0  0  0  0
   -2.8772    3.2305    0.0000 C   0  0  0  0  0  0  0  0  0  0  0  0
   -0.1275    0.3689    0.0000 C   0  0  0  0  0  0  0  0  0  0  0  0
   -0.0499   -1.1291    0.0000 C   0  0  0  0  0  0  0  0  0  0  0  0
   -1.3084   -1.9453    0.0000 C   0  0  0  0  0  0  0  0  0  0  0  0
   -1.2309   -3.4433    0.0000 O   0  0  0  0  0  0  0  0  0  0  0  0
    1.2862   -1.8109    0.0000 C   0  0  0  0  0  0  0  0  0  0  0  0
    1.3637   -3.3089    0.0000 O   0  0  0  0  0  0  0  0  0  0  0  0
    2.5447   -0.9947    0.0000 C   0  0  0  0  0  0  0  0  0  0  0  0
    3.8808   -1.6765    0.0000 C   0  0  0  0  0  0  0  0  0  0  0  0
    5.1393   -0.8604    0.0000 C   0  0  0  0  0  0  0  0  0  0  0  0
    5.0617    0.6376    0.0000 C   0  0  0  0  0  0  0  0  0  0  0  0
    3.7256    1.3194    0.0000 C   0  0  0  0  0  0  0  0  0  0  0  0
    3.6480    2.8174    0.0000 O   0  0  0  0  0  0  0  0  0  0  0  0
    2.4671    0.5033    0.0000 C   0  0  0  0  0  0  0  0  0  0  0  0
    1.1310    1.1851    0.0000 N   0  0  0  0  0  0  0  0  0  0  0  0
    1.0534    2.6831    0.0000 C   0  0  0  0  0  0  0  0  0  0  0  0
  1  2  1  0
  2  3  1  0
  3  4  2  0
  4  5  1  0
  5  6  1  0
  4  7  1  0
  7  8  1  0
  8  9  1  0
  7 10  2  0
 10 11  1  0
 11 12  2  0
 12 13  1  0
 11 14  1  0
 14 15  2  0
 14 16  1  0
 16 17  2  0
 17 18  1  0
 18 19  2  0
 19 20  1  0
 20 21  1  0
 20 22  2  0
 22 23  1  0
 23 24  1  0
 12  3  1  0
 22 16  1  0
 23 10  1  0
M  END
>  <identifier>  (171) 
CNP0140444.0

>  <canonical_smiles>  (171) 
COC1=C(OC)C(OC)=C2C(=C1O)C(=O)C1=CC=CC(O)=C1N2C

>  <standard_inchi>  (171) 
InChI=1S/C17H17NO6/c1-18-11-8(6-5-7-9(11)19)13(20)10-12(18)15(22-2)17(24-4)16(23-3)14(10)21/h5-7,19,21H,1-4H3

>  <standard_inchi_key>  (171) 
QYPQTPVQPNLXHV-UHFFFAOYSA-N

>  <name>  (171) 
Citibrasine

>  <iupac_name>  (171) 
1,5-dihydroxy-2,3,4-trimethoxy-10-methyl-acridin-9-one

>  <annotation_level>  (171) 
5

>  <total_atom_count>  (171) 
41

>  <heavy_atom_count>  (171) 
24

>  <molecular_weight>  (171) 
331.32

>  <exact_molecular_weight>  (171) 
331.10559

>  <molecular_formula>  (171) 
C17H17NO6

>  <alogp>  (171) 
2.13

>  <topological_polar_surface_area>  (171) 
90.15

>  <rotatable_bond_count>  (171) 
3

>  <hydrogen_bond_acceptors>  (171) 
7

>  <hydrogen_bond_donors>  (171) 
2

>  <hydrogen_bond_acceptors_lipinski>  (171) 
7

>  <hydrogen_bond_donors_lipinski>  (171) 
2

>  <lipinski_rule_of_five_violations>  (171) 
0

>  <aromatic_rings_count>  (171) 
3

>  <qed_drug_likeliness>  (171) 
0.71

>  <formal_charge>  (171) 
0

>  <fractioncsp3>  (171) 
0.24

>  <number_of_minimal_rings>  (171) 
3

>  <van_der_walls_volume>  (171) 
280.55

>  <contains_sugar>  (171) 
False

>  <contains_ring_sugars>  (171) 
False

>  <contains_linear_sugars>  (171) 
False

>  <murcko_framework>  (171) 
c1ccc2c(c1)Nc3ccccc3C2

>  <np_likeness>  (171) 
1.29

>  <chemical_class>  (171) 
Quinolines and derivatives

>  <chemical_sub_class>  (171) 
Benzoquinolines

>  <chemical_super_class>  (171) 
Organoheterocyclic compounds

>  <direct_parent_classification>  (171) 
Acridones

>  <np_classifier_pathway>  (171) 
Alkaloids

>  <np_classifier_superclass>  (171) 
Anthranilic acid alkaloids

>  <np_classifier_class>  (171) 
Acridone alkaloids

>  <np_classifier_is_glycoside>  (171) 
False

>  <organisms>  (171) 
Clematis flammula|Gentiana lactea|Hortia arborea|Korolkowia sewerzowi|Swinglea glutinosa

>  <collections>  (171) 
CMAUP (cCollective molecular activities of useful plants)|FooDB|Latin America dataset|NPASS|NuBBEDB|Super Natural II|UNPD (Universal Natural Products Database)|WikiData Natural Products

>  <dois>  (171) 
10.1016/J.BMC.2010.12.056|10.1021/JF902561C|10.1590/S0103-50532009000400008

>  <synonyms>  (171) 
1,5-Dihydroxy-2,3,4-trimethoxy-10-methylacridone|1,5-dihydroxy-2,3,4-trimethoxy-10-methyl-9,10-dihydroacridin-9-one|86680-34-4|BDBM50336482|CHEMBL1668599|Citbrasine|DTXSID401192210|GTPL8561|Q27076083|SCHEMBL9352197|compound 7 [PMID: 21277783]

>  <cas>  (171) 
86680-34-4

$$$$

     RDKit          2D

 26 29  0  0  0  0  0  0  0  0999 V2000
   -5.5095    2.3840    0.0000 C   0  0  0  0  0  0  0  0  0  0  0  0
   -4.4913    1.2826    0.0000 C   0  0  0  0  0  0  0  0  0  0  0  0
   -3.0283    1.6138    0.0000 C   0  0  0  0  0  0  0  0  0  0  0  0
   -2.5836    3.0463    0.0000 C   0  0  0  0  0  0  0  0  0  0  0  0
   -3.6019    4.1477    0.0000 O   0  0  0  0  0  0  0  0  0  0  0  0
   -2.0100    0.5124    0.0000 C   0  0  0  0  0  0  0  0  0  0  0  0
   -0.5470    0.8435    0.0000 C   0  0  0  0  0  0  0  0  0  0  0  0
    0.4713   -0.2579    0.0000 C   0  0  0  0  0  0  0  0  0  0  0  0
    1.9343    0.0733    0.0000 C   0  0  0  0  0  0  0  0  0  0  0  0
    2.9526   -1.0281    0.0000 C   0  0  0  0  0  0  0  0  0  0  0  0
    2.5079   -2.4607    0.0000 C   0  0  0  0  0  0  0  0  0  0  0  0
    1.0449   -2.7918    0.0000 C   0  0  0  0  0  0  0  0  0  0  0  0
    0.0266   -1.6904    0.0000 N   0  0  0  0  0  0  0  0  0  0  0  0
   -1.4364   -2.0216    0.0000 C   0  0  0  0  0  0  0  0  0  0  0  0
   -2.4547   -0.9202    0.0000 C   0  0  0  0  0  0  0  0  0  0  0  0
   -3.9177   -1.2514    0.0000 C   0  0  0  0  0  0  0  0  0  0  0  0
   -4.9360   -0.1499    0.0000 O   0  0  0  0  0  0  0  0  0  0  0  0
   -4.3624   -2.6839    0.0000 O   0  0  0  0  0  0  0  0  0  0  0  0
   -5.8254   -3.0151    0.0000 C   0  0  0  0  0  0  0  0  0  0  0  0
    4.3147   -0.4000    0.0000 C   0  0  0  0  0  0  0  0  0  0  0  0
    5.6930   -0.9920    0.0000 C   0  0  0  0  0  0  0  0  0  0  0  0
    6.8948   -0.0945    0.0000 C   0  0  0  0  0  0  0  0  0  0  0  0
    6.7184    1.3951    0.0000 C   0  0  0  0  0  0  0  0  0  0  0  0
    5.3401    1.9871    0.0000 C   0  0  0  0  0  0  0  0  0  0  0  0
    4.1383    1.0896    0.0000 C   0  0  0  0  0  0  0  0  0  0  0  0
    2.6671    1.3821    0.0000 N   0  0  0  0  0  0  0  0  0  0  0  0
  1  2  1  0
  2  3  2  0
  3  4  1  0
  4  5  1  0
  6  3  1  6
  6  7  1  0
  8  7  1  1
  8  9  1  0
  9 10  2  0
 10 11  1  0
 11 12  1  0
 12 13  1  0
 13 14  1  0
 14 15  2  0
 15 16  1  0
 16 17  2  0
 16 18  1  0
 18 19  1  0
 10 20  1  0
 20 21  2  0
 21 22  1  0
 22 23  2  0
 23 24  1  0
 24 25  2  0
 25 26  1  0
 15  6  1  0
 25 20  1  0
 13  8  1  0
 26  9  1  0
M  END
>  <identifier>  (172) 
CNP0205544.2

>  <canonical_smiles>  (172) 
C/C=C(\CO)[C@@H]1C[C@H]2C3=C(CCN2C=C1C(=O)OC)C1=CC=CC=C1N3

>  <standard_inchi>  (172) 
InChI=1S/C21H24N2O3/c1-3-13(12-24)16-10-19-20-15(14-6-4-5-7-18(14)22-20)8-9-23(19)11-17(16)21(25)26-2/h3-7,11,16,19,22,24H,8-10,12H2,1-2H3/b13-3+/t16-,19-/m0/s1

>  <standard_inchi_key>  (172) 
FRUFGLJBMBUARK-AHHXMMTISA-N

>  <name>  (172) 
nan

>  <iupac_name>  (172) 
methyl (2~{S},12~{b}~{S})-2-[(~{Z})-1-(hydroxymethyl)prop-1-enyl]-1,2,6,7,12,12~{b}-hexahydroindolo[2,3-a]quinolizine-3-carboxylate

>  <annotation_level>  (172) 
5

>  <total_atom_count>  (172) 
50

>  <heavy_atom_count>  (172) 
26

>  <molecular_weight>  (172) 
352.43

>  <exact_molecular_weight>  (172) 
352.17869

>  <molecular_formula>  (172) 
C21H24N2O3

>  <alogp>  (172) 
3.08

>  <topological_polar_surface_area>  (172) 
65.56

>  <rotatable_bond_count>  (172) 
3

>  <hydrogen_bond_acceptors>  (172) 
4

>  <hydrogen_bond_donors>  (172) 
2

>  <hydrogen_bond_acceptors_lipinski>  (172) 
4

>  <hydrogen_bond_donors_lipinski>  (172) 
2

>  <lipinski_rule_of_five_violations>  (172) 
0

>  <aromatic_rings_count>  (172) 
2

>  <qed_drug_likeliness>  (172) 
0.66

>  <formal_charge>  (172) 
0

>  <fractioncsp3>  (172) 
0.38

>  <number_of_minimal_rings>  (172) 
4

>  <van_der_walls_volume>  (172) 
324.90

>  <contains_sugar>  (172) 
False

>  <contains_ring_sugars>  (172) 
False

>  <contains_linear_sugars>  (172) 
False

>  <murcko_framework>  (172) 
c1ccc2c(c1)[nH]c3c2CCN4C=CCCC34

>  <np_likeness>  (172) 
1.33

>  <chemical_class>  (172) 
Indoles and derivatives

>  <chemical_sub_class>  (172) 
Pyridoindoles

>  <chemical_super_class>  (172) 
Organoheterocyclic compounds

>  <direct_parent_classification>  (172) 
Beta carbolines

>  <np_classifier_pathway>  (172) 
Alkaloids

>  <np_classifier_superclass>  (172) 
Tryptophan alkaloids

>  <np_classifier_class>  (172) 
Corynanthe type

>  <np_classifier_is_glycoside>  (172) 
False

>  <organisms>  (172) 
Chimarrhis turbinata

>  <collections>  (172) 
ChemSpider NPs|Latin America dataset|NuBBEDB|WikiData Natural Products|ZINC NP

>  <dois>  (172) 
10.1021/np020547m|10.1590/S0102-695X2008000100007

>  <synonyms>  (172) 
Vallesiachotamine

>  <cas>  (172) 
nan

$$$$

     RDKit          2D

 16 17  0  0  0  0  0  0  0  0999 V2000
   -1.5424   -3.0325    0.0000 C   0  0  0  0  0  0  0  0  0  0  0  0
   -1.9298   -1.5834    0.0000 C   0  0  0  0  0  0  0  0  0  0  0  0
   -3.3785   -1.1944    0.0000 C   0  0  0  0  0  0  0  0  0  0  0  0
   -3.7659    0.2547    0.0000 C   0  0  0  0  0  0  0  0  0  0  0  0
   -2.7047    1.3148    0.0000 C   0  0  0  0  0  0  0  0  0  0  0  0
   -1.2560    0.9257    0.0000 C   0  0  0  0  0  0  0  0  0  0  0  0
   -1.6434    2.3748    0.0000 C   0  0  0  0  0  0  0  0  0  0  0  0
   -0.1948    1.9858    0.0000 C   0  0  0  0  0  0  0  0  0  0  0  0
    1.2539    1.5968    0.0000 C   0  0  0  0  0  0  0  0  0  0  0  0
    1.6413    0.1477    0.0000 C   0  0  0  0  0  0  0  0  0  0  0  0
    3.0900   -0.2413    0.0000 C   0  0  0  0  0  0  0  0  0  0  0  0
    3.4790    1.2074    0.0000 C   0  0  0  0  0  0  0  0  0  0  0  0
    2.7010   -1.6900    0.0000 C   0  0  0  0  0  0  0  0  0  0  0  0
    4.5387   -0.6303    0.0000 O   0  0  0  0  0  0  0  0  0  0  0  0
    0.5801   -0.9124    0.0000 C   0  0  0  0  0  0  0  0  0  0  0  0
   -0.8686   -0.5234    0.0000 C   0  0  0  0  0  0  0  0  0  0  0  0
  1  2  1  0
  2  3  2  0
  3  4  1  0
  4  5  1  0
  5  6  1  0
  6  7  1  1
  6  8  1  0
  8  9  1  0
  9 10  1  0
 10 11  1  1
 11 12  1  0
 11 13  1  0
 11 14  1  0
 10 15  1  0
 16 15  1  1
 16  2  1  0
 16  6  1  0
M  END
>  <identifier>  (173) 
CNP0106573.2

>  <canonical_smiles>  (173) 
CC1=CCC[C@]2(C)CC[C@@H](C(C)(C)O)C[C@@H]12

>  <standard_inchi>  (173) 
InChI=1S/C15H26O/c1-11-6-5-8-15(4)9-7-12(10-13(11)15)14(2,3)16/h6,12-13,16H,5,7-10H2,1-4H3/t12-,13+,15-/m1/s1

>  <standard_inchi_key>  (173) 
FCSRUSQUAVXUKK-VNHYZAJKSA-N

>  <name>  (173) 
alpha-Eudesmol

>  <iupac_name>  (173) 
2-[(2~{R},4~{a}~{R},8~{a}~{R})-4~{a},8-dimethyl-2,3,4,5,6,8~{a}-hexahydro-1~{H}-naphthalen-2-yl]propan-2-ol

>  <annotation_level>  (173) 
5

>  <total_atom_count>  (173) 
42

>  <heavy_atom_count>  (173) 
16

>  <molecular_weight>  (173) 
222.37

>  <exact_molecular_weight>  (173) 
222.19837

>  <molecular_formula>  (173) 
C15H26O

>  <alogp>  (173) 
3.92

>  <topological_polar_surface_area>  (173) 
20.23

>  <rotatable_bond_count>  (173) 
1

>  <hydrogen_bond_acceptors>  (173) 
1

>  <hydrogen_bond_donors>  (173) 
1

>  <hydrogen_bond_acceptors_lipinski>  (173) 
1

>  <hydrogen_bond_donors_lipinski>  (173) 
1

>  <lipinski_rule_of_five_violations>  (173) 
0

>  <aromatic_rings_count>  (173) 
0

>  <qed_drug_likeliness>  (173) 
0.67

>  <formal_charge>  (173) 
0

>  <fractioncsp3>  (173) 
0.87

>  <number_of_minimal_rings>  (173) 
2

>  <van_der_walls_volume>  (173) 
238.74

>  <contains_sugar>  (173) 
False

>  <contains_ring_sugars>  (173) 
False

>  <contains_linear_sugars>  (173) 
False

>  <murcko_framework>  (173) 
C1=CC2CCCCC2CC1

>  <np_likeness>  (173) 
3.04

>  <chemical_class>  (173) 
Prenol lipids

>  <chemical_sub_class>  (173) 
Sesquiterpenoids

>  <chemical_super_class>  (173) 
Lipids and lipid-like molecules

>  <direct_parent_classification>  (173) 
Eudesmane, isoeudesmane or cycloeudesmane sesquiterpenoids

>  <np_classifier_pathway>  (173) 
Terpenoids

>  <np_classifier_superclass>  (173) 
Sesquiterpenoids

>  <np_classifier_class>  (173) 
Eudesmane sesquiterpenoids

>  <np_classifier_is_glycoside>  (173) 
False

>  <organisms>  (173) 
'Salvia africana-lutea'  [ L. (1753) ]|Abies firma|Abies sibirica|Aeollanthus parvifolius|Aiouea costaricensis|Alpinia flabellata|Alternaria bataticola|Amyris balsamifera|Amyris elemifera|Angelica japonica|Annona reticulata|Aristolochiaceae|Atractylodes lancea|Baccharis aliena|Baccharis truncata|Balsamorhiza sagittata|Beilschmiedia pendula|Benincasa hispida|Bipolaris sacchari|Breonia chinensis|Bupleurum gibraltaricum|Callitris columellaris|Callitris intratropica|Callyspongia spinosissima|Campylotropis hirtella|Centaurea benedicta|Ceropegia dichotoma|Chamaecyparis formosensis|Chamaecyparis lawsoniana|Chenopodium botrys|Chloranthus fortunei|Chuquiraga erinacea|Citrus hystrix|Cleistopholis patens|Cordia trichotoma|Corymbia citriodora|Corymbia maculata|Crinum moorei|Crotalaria candicans|Cryptomeria japonica|Cuphea hyssopifolia|Cymbopogon schoenanthus|Dendrobium loddigesii|Diplolophium africanum|Distephanus angulifolius|Dolichorrhiza persica|Dysphania botrys|Echinoclathria subhispida|Eremophila dalyana|Eria japonica|Eria rigida|Eucalyptus Globulus|Eucalyptus amplifolia|Eucalyptus angulosa|Eucalyptus apodophylla|Eucalyptus approximans|Eucalyptus behriana|Eucalyptus brassiana|Eucalyptus burgessiana|Eucalyptus campanulata|Eucalyptus ceratocorys|Eucalyptus citriodora|Eucalyptus cuprea|Eucalyptus delegatensis|Eucalyptus dendromorpha|Eucalyptus deuaensis|Eucalyptus dolichorhyncha|Eucalyptus fasciculosa|Eucalyptus forrestiana|Eucalyptus fraxinoides|Eucalyptus globulus|Eucalyptus globulus subsp. bicostata|Eucalyptus incrassata|Eucalyptus intertexta|Eucalyptus lansdowneana|Eucalyptus leucoxylon|Eucalyptus maculata|Eucalyptus maidenii|Eucalyptus melanophloia|Eucalyptus nova-anglica|Eucalyptus oblonga|Eucalyptus ochrophloia|Eucalyptus odorata|Eucalyptus paliformis|Eucalyptus populnea|Eucalyptus porosa|Eucalyptus pulverulenta|Eucalyptus sparsa|Eucalyptus stenostoma|Eucalyptus stoatei|Eucalyptus tetraptera|Eucalyptus triflora|Eucalyptus viridis|Euphorbia palustris|Euphorbia pithyusa|Farfugium japonicum|Flourensia cernua|Fokienia hodginsii|Fouquieria diguetii|Fritillaria hupehensis|Glycosmis macrophylla|Gynoxys verrucosa|Gypsophila perfoliata|Hamamelis virginiana|Hedycarya angustifolia|Helichrysum bracteiferum|Hexalobus crispiflorus|Holarrhena floribunda|Holothuria squamifera|Humulus lupulus|Hypericum polyanthemum|Hypogymnia vittata|Illicium simonsii|Iphiona scabra|Juniperus comitana|Juniperus drupacea|Juniperus monticola|Juniperus standleyi|Juniperus taxifolia|Lathyrus latifolius|Lepechinia chamaedryoides|Lepechinia chilensis|Leplaea cedrata|Leptospermum scoparium|Magnolia biloba|Magnolia obovata|Mamestra brassicae|Manekia naranjoana|Martensia denticulata|Mentha cardiaca|Monocyclanthus vignei|Ocotea gomezii|Oenanthe javanica|Olearia phlogopappa|Ononis spinosa|Ononis viscosa|Origanum vulgare|Osbornia octodonta|Parectatosoma mocquerysi|Pedicularis rex|Pegolettia oxyodonta|Pelargonium quercifolium|Pentaclethra macrophylla|Periploca sepium|Persicaria hydropiperoides|Persicaria minor|Persicaria mitis|Phyllobates bicolor|Pinus edulis|Piper lanceaefolium|Piper lhotzkyanum|Plectranthus myrianthus|Polygonum Minus|Porella perrottetiana|Posidonia oceanica|Pseudocyphellaria coronata|Psiadia altissima|Psidium friedrichsthalianum|Psidium guajava|Psidium salutare|Pterocarpus erinaceus|Pterocarpus santalinus|Pterocaulon virgatum|Pyrus bourgaeana|Rhodiola semenovii|Rhododendron calostrotum|Rhododendron concinnum|Rhododendron cuneatum|Rhododendron dasypetalum|Rhododendron dauricum|Rhododendron edgeworthii|Rhododendron glaucophyllum|Rhododendron hippophaeoides|Rhododendron impeditum|Rhododendron intricatum|Rhododendron keiskei|Rhododendron lepidotum|Rhododendron lutescens|Rhododendron micranthum|Rhododendron moupinense|Rhododendron mucronulatum|Rhododendron polycladum|Rhododendron virgatum|Rhododendron xanthocodon|Salvia absconditiflora|Salvia aurea|Salvia broussonetii|Salvia caespitosa|Salvia cinnabarina|Salvia sclarea|Salvia sessei|Sandoricum koetjape|Schinus molle|Sedum sarmentosum|Sigillina signifera|Siparuna thecaphora|Solanum melongena|Sonneratia caseolaris|Sorbus torminalis|Stephania zippeliana|Suaeda maritima|Talaromyces variabilis|Thelephora aurantiotincta|Thioalkalivibrio versutus|Thuja occidentalis|Thuja standishii|Thymus camphoratus|Thymus funkii|Thymus longiflorus|Tristania conferta|Triunia erythrocarpa|Vernonia cistifolia|Veronica polita|water mint

>  <collections>  (173) 
ANPDB|Australian natural products|CMAUP (cCollective molecular activities of useful plants)|ChEBI NPs|Latin America dataset|NANPDB (Natural Products from Northern African Sources)|NAPRORE-CR|NPASS|NuBBEDB|SANCDB|Super Natural II|TCMDB-Taiwan (Traditional Chinese Medicine database)|VietHerb|WikiData Natural Products|ZINC NP

>  <dois>  (173) 
10.1002/(SICI)1099-1573(1998)12:1+<S117::AID-PTR269>3.0.CO;2-2|10.1002/FFJ.2730060314|10.1002/FFJ.2730090305|10.1002/FFJ.2730100605|10.1002/FFJ.2730100609|10.1002/JLAC.19717450107|10.1002/JLAC.199619960115|10.1007/BF00600860|10.1007/BF01386197|10.1016/0031-9422(82)85188-1|10.1016/0031-9422(91)83641-W|10.1016/0031-9422(92)80456-O|10.1016/0031-9422(93)85295-3|10.1016/0031-9422(95)00013-W|10.1016/0031-9422(95)00559-5|10.1016/0305-1978(85)90081-X|10.1016/J.APJTM.2016.06.009|10.1016/J.PHYTOCHEM.2003.08.004|10.1016/J.PHYTOCHEM.2004.03.019|10.1016/J.PHYTOCHEM.2019.112249|10.1016/S0031-9422(00)80837-7|10.1016/S0031-9422(00)81225-X|10.1016/S0031-9422(00)81428-4|10.1016/S0031-9422(00)83116-7|10.1016/S0031-9422(00)83991-6|10.1016/S0031-9422(00)84946-8|10.1016/S0031-9422(00)86634-0|10.1016/S0031-9422(00)91365-7|10.1016/S0031-9422(00)97885-3|10.1016/S0031-9422(00)97892-0|10.1016/S0031-9422(00)97945-7|10.1016/S0031-9422(97)00117-9|10.1016/S0031-9422(98)00067-3|10.1016/S0031-9422(98)00158-7|10.1016/S0031-9422(98)80072-1|10.1016/S0031-9422(99)00074-6|10.1016/S0031-9422(99)00299-X|10.1016/S0305-1978(00)00103-4|10.1016/j.apjtm.2016.06.009|10.1016/j.phytochem.2019.112249|10.1021/JF00116A075|10.1021/JF00118A056|10.1021/JF0116303|10.1021/NP400872M|10.1021/NP50009A015|10.1021/NP50040A040|10.1021/NP960732Y|10.1021/jf011456i|10.1021/np400872m|10.1023/B:JOEC.0000042400.14451.08|10.1055/S-2006-957420|10.1055/S-2006-957640|10.1055/S-2006-961452|10.1055/S-2006-962450|10.1055/S-2007-969442|10.1071/CH9630515|10.1071/CH9661541|10.1071/CH9870405|10.1071/bru9860105|10.1076/PHBI.35.3.218.13295|10.1080/10412905.1990.9697838|10.1080/10412905.1990.9697857|10.1080/10412905.1991.9697906|10.1080/10412905.1991.9697930|10.1080/10412905.1991.9697953|10.1080/10412905.1992.9698006|10.1080/10412905.1992.9698125|10.1080/10412905.1993.9698162|10.1080/10412905.1993.9698243|10.1080/10412905.1994.9698428|10.1080/10412905.1994.9699345|10.1080/10412905.1994.9699347|10.1080/10412905.1995.9698479|10.1080/10412905.1995.9698502|10.1080/10412905.1995.9698508|10.1080/10412905.1997.9699459|10.1080/10412905.1997.9700799|10.1080/10412905.1998.9701005|10.1080/10412905.2000.9712037|10.1080/10412905.2010.9700320|10.1080/10412905.2010.9700338|10.1080/10412905.2010.9700389|10.1139/V64-059|10.1139/V86-001|10.1163/1574-9347_DNP_E832720|10.1177/1934578X1100600135|10.1246/NIKKASHI1921.63.1465|10.1248/CPB.42.112|10.1248/CPB.49.716|10.1271/NOGEIKAGAKU1924.67.1417|10.1515/ZNC-2006-7-801|10.1515/znc-2006-7-801|10.1590/S0103-50531999000200009|10.1590/S0103-50532011000400018|10.3109/13880208909116900|10.3390/MOLECULES191119220|10.3987/R-1987-02-0447

>  <synonyms>  (173) 
(-)-.ALPHA.-EUDESMOL|(-)-alpha-EUDESMOL|(2R,4aR,8aR)-1,2,3,4,4a,5,6,8a-octahydro-alpha,alpha,4a,8-tetramethyl-2-naphthalenemethanol|.ALPHA.-SELINENOL|1,2,3,4,4a,5,6,8a-octahydro-alpha,alpha,4a,8-tetramethyl-(2R-(2alpha,4aalpha,8abeta))-2-naphthalenemethanol|2-((2R,4AR,8aR)-4a,8-dimethyl-1,2,3,4,4a,5,6,8a-octahydronaphthalen-2-yl)propan-2-ol|2-NAPHTHALENEMETHANOL, 1,2.BETA.,3,4,4A,5,6,8A.BETA.-OCTAHYDRO-.ALPHA.,.ALPHA.,4A.ALPHA.,8-TETRAMETHYL-|2-NAPHTHALENEMETHANOL, 1,2beta,3,4,4A,5,6,8Abeta-OCTAHYDRO-alpha,alpha,4Aalpha,8-TETRAMETHYL-|2-Naphthalenemethanol, 1,2,3,4,4a,5,6,8a-octahydro-alpha,alpha,4a,8-tetramethyl-, (2R,4aR,8aR)-|2-[(2R,4aR,8aR)-4a,8-dimethyl-2,3,4,5,6,8a-hexahydro-1H-naphthalen-2-yl]propan-2-ol|473-16-5|C09663|CHEBI:10278|CHEMBL3120654|DTXSID20883392|FCSRUSQUAVXUKK-VNHYZAJKSA-N|Q27108609|SCHEMBL1251075|SZ9QGL7BOX|UNII-SZ9QGL7BOX|[alpha]-Eudesmol|\u03b1-bisabolol|\u221a\u00e9\u00ac\u00b1-eudesmol|_-eudesmol|alpha-SELINENOL|alpha-eudesmol|eudesm-3-en-11-ol

>  <cas>  (173) 
473-16-5

$$$$

     RDKit          2D

 12 12  0  0  0  0  0  0  0  0999 V2000
    2.2123   -2.7888    0.0000 C   0  0  0  0  0  0  0  0  0  0  0  0
    2.5001   -1.3167    0.0000 O   0  0  0  0  0  0  0  0  0  0  0  0
    1.3692   -0.3314    0.0000 C   0  0  0  0  0  0  0  0  0  0  0  0
   -0.0497   -0.8182    0.0000 C   0  0  0  0  0  0  0  0  0  0  0  0
   -1.1807    0.1671    0.0000 C   0  0  0  0  0  0  0  0  0  0  0  0
   -2.5995   -0.3197    0.0000 C   0  0  0  0  0  0  0  0  0  0  0  0
   -2.8873   -1.7918    0.0000 O   0  0  0  0  0  0  0  0  0  0  0  0
   -3.7305    0.6657    0.0000 O   0  0  0  0  0  0  0  0  0  0  0  0
   -0.8928    1.6393    0.0000 C   0  0  0  0  0  0  0  0  0  0  0  0
    0.5260    2.1261    0.0000 C   0  0  0  0  0  0  0  0  0  0  0  0
    1.6570    1.1408    0.0000 C   0  0  0  0  0  0  0  0  0  0  0  0
    3.0758    1.6276    0.0000 O   0  0  0  0  0  0  0  0  0  0  0  0
  1  2  1  0
  2  3  1  0
  3  4  2  0
  4  5  1  0
  5  6  1  0
  6  7  2  0
  6  8  1  0
  5  9  2  0
  9 10  1  0
 10 11  2  0
 11 12  1  0
 11  3  1  0
M  END
>  <identifier>  (174) 
CNP0122021.0

>  <canonical_smiles>  (174) 
COC1=CC(C(=O)O)=CC=C1O

>  <standard_inchi>  (174) 
InChI=1S/C8H8O4/c1-12-7-4-5(8(10)11)2-3-6(7)9/h2-4,9H,1H3,(H,10,11)

>  <standard_inchi_key>  (174) 
WKOLLVMJNQIZCI-UHFFFAOYSA-N

>  <name>  (174) 
Vanillic acid

>  <iupac_name>  (174) 
4-hydroxy-3-methoxy-benzoic acid

>  <annotation_level>  (174) 
5

>  <total_atom_count>  (174) 
20

>  <heavy_atom_count>  (174) 
12

>  <molecular_weight>  (174) 
168.15

>  <exact_molecular_weight>  (174) 
168.04226

>  <molecular_formula>  (174) 
C8H8O4

>  <alogp>  (174) 
1.10

>  <topological_polar_surface_area>  (174) 
66.76

>  <rotatable_bond_count>  (174) 
2

>  <hydrogen_bond_acceptors>  (174) 
3

>  <hydrogen_bond_donors>  (174) 
2

>  <hydrogen_bond_acceptors_lipinski>  (174) 
3

>  <hydrogen_bond_donors_lipinski>  (174) 
2

>  <lipinski_rule_of_five_violations>  (174) 
0

>  <aromatic_rings_count>  (174) 
1

>  <qed_drug_likeliness>  (174) 
0.69

>  <formal_charge>  (174) 
0

>  <fractioncsp3>  (174) 
0.13

>  <number_of_minimal_rings>  (174) 
1

>  <van_der_walls_volume>  (174) 
145.92

>  <contains_sugar>  (174) 
False

>  <contains_ring_sugars>  (174) 
False

>  <contains_linear_sugars>  (174) 
False

>  <murcko_framework>  (174) 
c1ccccc1

>  <np_likeness>  (174) 
0.52

>  <chemical_class>  (174) 
Benzene and substituted derivatives

>  <chemical_sub_class>  (174) 
Benzoic acids and derivatives

>  <chemical_super_class>  (174) 
Benzenoids

>  <direct_parent_classification>  (174) 
M-methoxybenzoic acids and derivatives

>  <np_classifier_pathway>  (174) 
Shikimates and Phenylpropanoids

>  <np_classifier_superclass>  (174) 
Phenolic acids (C6-C1)

>  <np_classifier_class>  (174) 
Cinnamic acids and derivatives

>  <np_classifier_is_glycoside>  (174) 
False

>  <organisms>  (174) 
Abies nephrolepis|Abies pinsapo subsp. marocana|Abutilon indicum|Acacia lasiopetala|Acalypha spiciflora|Acanthophyllum sordidum|Acer barbinerve|Acer nikoense|Achillea biebersteinii|Achillea millefolium|Achillea millefolium var. millefolium|Achlys triphylla|Achyranthes aspera|Acinetobacter baumannii|Acinetobacter calcoaceticus|Aconitum habaense|Aconitum tanguticum|Acrisione denticulata|Acronychia laurifolia|Actinidia chinensis|Adesmia boronioides|Aeginetia indica|Aeonium cuneatum|Aerva lanata|Aesculus hippocastanum|Aganosma caryophyllata|Aganosma heynei|Agathosma scaberula|Agave deserti|Agave salmiana|Aglaia formosana|Aglaia odorata|Aglaia pyramidata|Agrimonia sp.|Aguacate|Ailanthus altissima|Ailanthus integrifolia|Ajuga australis|Ajuga decumbens|Ajuga lupulina|Ajuga taiwanensis|Albizia procera|Alcea rosea|Alchemilla tianschanica|Alectoria ochroleuca|Allium cepa|Allium fistulosum|Allium sativum|Allium stipitatum|Alnus cordata|Alnus japonica|Aloe africana|Aloe barbadensis|Aloe deltoideodonta|Aloe ferox|Aloe microstigma|Aloe spicata|Aloe vera|Alseodaphnopsis hainanensis|Alstonia angustiloba|Alstonia pittieri|Alstonia undulifolia|Althaea armeniaca|Althaea broussonetiifolia|Althaea cannabina|Althaea narbonensis|Althaea officinalis|Amburana cearensis|Amomum longiligulare|Amomum villosum|Amomum xanthioides|Ampelopsis glandulosa var. brevipedunculata|Ampelopsis quinquefolia|Amsinckia tessellata|Anabaena laxa|Anastatica hierochuntica|Andrographis viscosula|Anemarrhena asphodeloides|Anethum graveolens|Angelica acutiloba|Angelica gigas|Angelica saxatilis|Angelica sinensis|Angelica sp.|Angiopteris evecta|Anigozanthos preissii|Annona cherimola|Anolis lineatopus|Anthocercis albicans|Aphelandra chamissoniana|Aphis graminum|Aphis pini|Aplidium multiplicatum|Aquilaria sinensis|Arabidopsis thaliana|Arachis hypogaea|Arachniodes mutica|Aralidium pinnatifidum|Arbutus unedo|Archidendron ellipticum|Arenaria oreophila|Aristolochia contorta|Aristolochia cucurbitifolia|Aristolochia debilis|Aristolochia heterophylla|Aristolochia kaempferi|Aristolochia manshuriensis|Aristolochia pubescens|Armoracia rusticana|Artemisia absinthium|Artemisia argentea|Artemisia capillaris|Artemisia dracunculus|Artemisia giraldii|Artemisia jacutica|Artemisia pectinata|Artemisia porrecta|Artemisia rehan|Artemisia siversiana|Artocarpus heterophyllus|Asarum sieboldii|Asclepias subulata|Aspalathus linearis|Aspergillus desertorum|Aspergillus microcysticus|Aspergillus mutabilis|Asphodeline damascena|Aspidixia articulata|Aster himalaicus|Aster indicus|Asteriscus aquaticus|Astragalus membranaceus|Astragalus mongholicus|Atractylodes lancea|Aucuba chinensis|Aulosira fertilissima|Aurelia aurita|Avena fatua|Avena sativa|Avrainvillea longicaulis|Axinella agnata|Baccharis dracunculifolia|Baccharis grandicapitulata|Bacterium from|Balanites aegyptiaca|Balanites aegyptiacus|Balanophora harlandii|Barbados nut|Barnettia kerrii|Bauerella simplicifolia|Bauhinia purpurea|Beesia calthifolia|Begonia nantoensis|Berberis koreana|Berberis orthobotrys|Berchemia floribunda|Berchemia racemosa|Bersama swinnyi|Beta vulgaris|Betula davurica|Betula pendula|Betula platyphylla|Betula pubescens|Betula sp.|Bhesa paniculata|Bidens pilosa|Bistorta manshuriensis|Bistorta officinalis|Bistorta vivipara|Bitter bush|Blainvillea latifolia|Blumea eriantha|Blutaparon portulacoides|Boletinus paluster|Boltonia asteroides|Bombus pascuorum|Boschniakia rossica|Botrychium ternatum|Bougainvillea glabra|Brachystemma calycinum|Brainea insignis|Brassica napus|Brassica oleracea|Brassica rapa|Brettanomyces anomalus|Brickellia vernicosa|Brodiaea californica|Brucea javanica|Bryopsis pennata|Bryum argenteum|Buddleja fallowiana|Buddleja officinalis|Bulbine frutescens|Bulbinella floribunda|Bulbophyllum protractum|Bupleurum sibiricum|Bursera kerberi|Bursera simaruba|Bursera tonkinensis|Buxus wallichiana|Cajanus cajan|Callicarpa integerrima|Callicarpa japonica|Callistemon speciosus|Calluna sp.|Calluna vulgaris|Calycotome villosa|Calystegia pubescens|Camellia sinensis|Campanula persicifolia|Cannabis sativa|Capparis ovata|Capsella sp.|Capsicum annuum|Carduus tenuiflorus|Carica dodecaphylla|Carthamus oxyacantha|Carthamus oxyacanthus|Carthamus tinctorius|Carum sp.|Carya ovata|Caryocar villosum|Casearia membranacea|Cassia fistula|Cassine papillosa|Castanea mollissima|Castanea sativa|Casuarina equisetifolia|Catalpa sp.|Ceanothus sp.|Cedronella canariensis|Celastrus monospermus|Centaurea amanicola|Centaurea collina|Centaurea huber-morathii|Centaurea regia|Centaurea scoparia|Centaurium sp.|Centipeda minima|Cephalaria leucantha|Ceratostigma willmottianum|Ceriops decandra|Cestrum nocturnum|Cestrum parqui|Chaenomeles sinensis|Chaetomella raphigera|Chamomilla recutita|Chamomilla sp.|Changium smyrnioides|Charpentiera obovata|Cheilanthes marantae|Chenopodium formosanum|Chiton tuberculatus|Chrozophora prostrata|Chrysanthemum indicum|Chrysanthemum x morifolium|Cichorium intybus|Cinnamomum Subavenium|Cinnamomum kotoense|Cinnamomum philippinense|Cinnamomum reticulatum|Cinnamomum sp.|Cinnamomum subavenium|Cinnamomum subavenium MIQ.|Cipadessa fruticosa|Cirsium setosum|Cissus discolor|Cissus quadrangularis|Cissus sicyoides|Citrullus lanatus|Citrus japonica|Citrus medica|Citrus paradisi|Citrus reticulata|Citrus sudachi|Citrus tangerina|Citrus unshiu|Citrus × paradisi|Cladonia impexa|Cladosporium cucumerinum|Cladrastis platycarpa|Clathria prolifera|Cleidion Spiciflorum|Cleidion spiciflorum (Burm. f.) Merr.|Clematis chinensis|Clematis hexapetala|Clematis manshurica|Clematis terniflora var. mandshurica|Clerodendranthus spicatus|Clerodendrum trichotomum|Clinacanthus nutans|Clione antarctica|Cnidium officinale|Coccinia sp.|Cocos nucifera|Cocos sp.|Codiaeum variegatum|Codium dwarkense|Codonopsis pilosula|Coffea|Coffea arabica|Coffea canephora|Coffea liberica var. dewevrei|Colchicum bornmuelleri|Colchicum kotschyi|Colchicum kurdicum|Colchicum manissadjianii|Colchicum soboliferum|Colchicum speciosum|Coleus wulfenioides|Colladonia triquetra|Colubrina faralaotra|Colubrina faralaotra subsp.trichocarpa.|Commelina communis|Conium maculatum|Consolida sp.|Conus pulicarius|Coprosma areolata|Coptis chinensis|Coptis deltoidea|Coptis japonica|Coptis teeta|Corchorus capsularis|Corchorus olitorius|Cordiera macrophylla|Cordyceps sinensis|Coriandrum sativum|Cortinarius orellanus|Corydalis pseudoadunca|Corylus americana|Costasiella ocellifera|Cremastra appendiculata|Creosphaeria sassafras|Crepidotus fulvotomentosus|Crinum latifolium|Crocus minimus|Crocus sativus|Crotalaria stolzii|Croton gratissimus|Croton montevidensis|Croton ruizianus|Cryptocarya infectoria|Cryptolepis nigrescens|Cryptotaenia japonica|Cucumis sativus|Cucurbita maxima|Cucurbita moschata|Cucurbita pepo|Cunonia macrophylla|Curculigo pilosa|Curcuma aeruginosa|Curcuma domestica|Curcuma longa|Curcuma parviflora|Curcuma sp.|Cyamopsis sp.|Cyathula tomentosa|Cyberlindnera jadinii|Cybister lateralimarginalis|Cyclocarya paliurus|Cylindrospermum muscicola|Cymbastela coralliophila|Cynometra lujae|Cyperus Rotundus|Cyperus rotundus|Cyperus rotundus L.|Cypripedium calceolus|Dalbergia ecastaphyllum|Dalbergia odorifera|Daphne mucronata|Datisca glomerata|Daucus carota|Deguelia scandens|Dekkera anomala|Delisea elegans|Delphinium denudatum|Delphinium giraldii|Dendrobium candidum|Dendrobium chrysanthum|Dendrobium chrysotoxum|Dendrobium fimbriatum|Dendrobium loddigesii|Dendrobium nobile|Dendrobium officinale|Dendrobium williamsonii|Dermocybe cardinalis|Derris Scandens|Derris scandens|Desmodium styracifolium|Diabelia serrata|Dianthus caryophyllus|Dicliptera riparia|Dioscorea japonica|Dioscorea nipponica|Dioscorea olfersiana|Dioscorea opposita|Dioscorea polystachya|Diospyros canaliculata|Diospyros glaucifolia|Diospyros kaki|Diospyros lotus|Diospyros maritima|Diplacus aurantiacus|Diplazium esculentum|Diplodia natalensis|Dipsacus Asper|Dipsacus asper|Dipsacus inermis|Dipteryx alata|Dodonaea viscosa|Drimia altissima|Drimia delagoensis|Drimia elata|Drimia fugax|Duhaldea cappa|Durio oxleyanus|Dysidea villosa|Dysosma aurantiocaulis|Dysosma versipellis|Dytiscus marginalis|Ecballium elaterium|Echinacea angustifolia|Echinacea purpurea|Echinus microtuberculatus|Elaeagnus pungens|Elaeis sp.|Elephantopus hirtiflorus|Eleusine coracana|Eleutherococcus senticosus|Elmerrillia papuana|Elsholtzia bodinieri|Elsholtzia ciliata|Elymnias thryallis|Elymus repens|Emericellopsis minima|Ena montana|Engelhardia roxburghiana|Entada phaseoloides|Entada rheedei|Ephedra equisetina|Ephedra sinica|Ephedra sp.|Epimedium brevicornu|Epimedium grandiflorum|Epimedium koreanum|Epimedium pubescens|Epimedium sagittatum|Epimedium sempervirens|Epimedium wushanense|Epipedobates anthonyi|Equisetum arvense|Equsetum arvense|Eremanthus seidelii|Erica australis|Erica sp.|Ericameria laricifolia|Erigeron canadensis|Eriocaulon buergerianum|Eriocaulon sieboldianum|Eriosema tuberosum|Eriostemon crowei|Erycibe hainanensis|Erylus trisphaerus|Erythrina americana|Erythrina latissima|Etlingera philippinensis|Eucalyptus albens|Eucalyptus kitsoniana|Euclea crispa|Euonymus alatus|Euonymus fortunei|Euonymus laxiflorus|Eupatorium areolare|Eupatorium rebaudianum|Euphorbia amygdaloides|Euphorbia antiquorum|Euphorbia biglandulosa|Euphorbia formosana|Euphorbia lagascae|Euphorbia latazi|Euphorbia quinquecostata|Euphorbia resinifera|Euphrasia rubra|Euploca racemosa|Eurycoma longifolia|Eurycoma sp.|Euthamia graminifolia|Eutrochium purpureum|Exochorda giraldii|Exostema sp.|FOOD SAKE|Fagara spp.|Fagara tessmannii Engl.|Fagus fusca|Fagus sp.|Falcaria vulgaris|Fallopia convolvulus|Fallopia multiflora|Felimida luteorosea|Ferula sp.|Festuca arundinacea|Festuca ovina|Festuca pratensis|Festuca rubra|Fibraurea tinctoria|Ficus beecheyana|Ficus erecta var. beecheyana|Ficus septica|Filipendula ulmaria|Flammulina velutipes|Flavoparmelia caperata|Flavoparmelia euplecta|Flemingia rhodocarpa|Flueggea microcarpa|Foeniculum sp.|Foeniculum vulgare|Forsythia suspensa|Forsythia viridissima|Fragaria|Fragaria x ananassa|Fraxinus sp.|Fructus choerospondiatis|Fructus galangae|Fusarium sulphureum|Galinsoga ciliata|Galinsoga quadriradiata|Gambierdiscus toxicus|Ganoderma lucidum|Garcinia conrauana|Gardenia carinata|Gardenia jasminoides|Gardenia sootepensis|Gastrodia elata|Gaultheria borneensis|Gaultheria itoana|Gaultheria procumbens|Geigeria schinzii|Gentiana strictiflora|Ginkgo biloba|Ginkgo sp.|Glebionis coronaria|Glebionis segetum|Gleditsia caspica|Glehnia Littoralis|Glehnia littoralis|Glinus oppositifolius|Gliricidia sepium|Globularia sp.|Glochidion philippicum|Glycine|Glycine max|Gmelina asiatica|Goldfussia yunnanensis|Gomphrena Celosioides|Gomphrena celosioides|Goniothalamus undulatus|Gossypium hirsutum|Gossypium mexicanum|Goupia glabra|Gracilaria textorii|Grindelia aphanactis|Grindelia sp.|Grosmannia crassivaginata|Gutierrezia dracunculoides|Gymnadenia conopsea|Gymnadenia conopsea R.BR.|Gymnopus androsaceus|Hagenia abyssinica|Halocharis hispida|Handroanthus impetiginosum|Handroanthus impetiginosus|Hansenia weberbaueriana|Haplophyllum cappadocicum|Haplophyllum ramosissimum|Haplophyllum telephioides|Haplopteris anguste-elongata|Hedysarum gmelini|Hedysarum polybotrys|Helenium integrifolium|Helichrysum angustifolium|Helichrysum auriceps|Helichrysum cephaloideum|Helichrysum mixtum|Helichrysum sutherlandii|Helminthosporium victoriae|Hemionitis japonica|Heptapleurum heptaphyllum|Herniaria|Hesperis matronalis|Hesperocyparis bakeri|Heterosigma akashiwo|Hibiscus taiwanensis|Himalaiella deltoidea|Himantoglossum hircinum|Himatanthus articulatus|Himatanthus sucuuba|Hintonia sp.|Hoffmannia strigillosa|Homalomena occulta|Homo sapiens|Hordeum vulgare|Hordeum vulgare var. distichon|Hornstedtia reticulata|Hortonia floribunda|Hosta sieboldiana|Houttuynia cordata|Hovenia dulcis|Hubertia tomentosa|Humata pectinata|Humulus japonicus|Humulus lupulus|Humulus sp.|Hydnellum zonatum|Hydrangea chinensis|Hydrangea febrifuga|Hymenidium lindleyanum|Hyoscyamus niger|Hypericum balearicum|Hypericum_laricifolium_Juss|Hyssopus officinalis|Ilex brevicuspis|Ilex pubescens|Illicium sp.|Imperata cylindrica|Inonotus obliquus|Inula salsoloides|Iotrochota birotulata|Iotrochota purpurea|Iris ensata|Iris lactea|Iris sp.|Iris triflora|Isatis quadrialata|Isatis tinctoria|Islaya minor|Isodon japonicus|Isodon serra|Jackiella javanica|Jacobaea cannabifolia|Jasione montana|Jatropha macrorhiza|Jeweled distaff thistle|Juglans nigra|Juncus effusus|Juniperus scopulorum|Jurinea maxima|Justicia sp.|Kadsura verrucosa|Kali turgidum|Kopsia longiflora|Kumquat|Lactarius sanguifluus|Lactarius subpiperatus|Lactuca laciniata|Lactuca sativa|Lagenaria breviflora|Lagerstroemia speciosa|Lamium sp.|Lampranthus sociorum|Lantana trifolia|Lanxangia tsao-ko|Larix kaempferi|Larix laricina|Larix sibirica|Larix sp.|Lasianthaea podocephala|Laurencia pacifica|Laurencia rigida|Laurentia longiflora|Laurus sp.|Lavandula pedunculata|Lavandula sp.|Lecidea carpathica|Leitneria floridana|Leontice kiangnanensis|Lepidophorum repandum|Lepisorus contortus|Lepraria citrina|Leptolaena diospyroidea|Leptolaena pauciflora|Lethasterias fusca|Ligularia cymbulifera|Ligusticum sinense|Ligustrum obtusifolium|Lilium umbellatum|Lindera glauca|Lindera obtusiloba|Lindera sericea|Lipschitziella deltoidea|Liquidambar orientalis|Liriodendron tulipifera|Lithospermum canescens|Litsea cubeba|Littorina littorea|Lobophytum laevigatum|Lonicera japonica|Lophiostoma vaginatispora|Lophocereus marginatus|Loranthus longiflorus|Lotus ucrainicus|Lupinus angustifolius|Lupinus cosentinii|Lycium barbarum|Lycium chinense|Lycium sp.|Lycopodium sp.|Lycopus europaeus|Lycopus sp.|Lyophyllum connatum|Lysiana subfalcata|Macaranga peltata|Machilus odoratissima|Machilus zuihoensis|Maclura cochinchinensis|Magnolia denudata|Magnolia liliiflora|Magnolia montana|Magnolia salicifolia|Malus domestica|Malus pumila|Malva pucheina|Matricaria chamomilla|Matteuccia struthiopteris|Maytenus sp.|Medium grandiflorum|Melampodium leucanthum|Melanargia galathea|Melia Azedarach|Melia azedarach|Melia azedarach var. toosendan|Melilotus messanensis|Melilotus siculus|Melilotus sp.|Melissa officinalis|Melissa sp.|Mentha incana|Mentha spicata|Menyanthes trifoliata|Merendera sobolifera|Methanosarcina barkeri|Metridium senile|Microcos paniculata|Micromonospora chalcea|Micromonospora echinospora|Microtropis fokienensis|Microtropis japonica|Mikania rimachii|Mikania stipulacea|Millettia duchesnei|Millettia leucantha|Millettia pinnata|Millettia vatkei|Momordica charantia|Monanchora unguiculata|Monascus kaoliang|Morella pensylvanica|Morella rubra|Morinda coreia|Morus alba|Morus macroura|Mucuna birdwoodiana|Mucuna membranacea|Muntingia calabura|Mycetia nutans|Myelobia smerintha|Myoporum platycarpum|Myriactis humilis|Myrica rubra|Myristica argentea|Myristica cagayanensis|Myristica malabarica|Naja naja|Nauclea officinalis|Nauclea rhynchophylla|Nelumbo nucifera|Nematolepis phebalioides|Nemuaron humboldtii|Neofusicoccum mangiferae|Neopicrorhiza scrophulariiflora|Neopringlea integrifolia|Nidorella hottentotica|Nostoc spongiaeforme|Notechis scutatus|Notholaena aschenborniana|Notholaena lemmonii|Notonia grandiflora|Notopterygium incisum|Nymphaea alba|Ocimum basilicum|Ocimum gratissimum|Ocimum tenuiflorum|Ocypus olens|Oenothera biennis|Oenothera suaveolens|Olea europaea|Olea sp.|Ongokea gore|Onopordum macrocanthum|Ophidiaster ophidianus|Ophiocordyceps sinensis|Ophiopholis aculeata|Ophiostoma crassioaginata|Ophryosporus charua|Opunitia dillenii HAW.|Opuntia Dillenii|Opuntia dillenii|Oreopteris quelpaertensis|Origanum majoricum|Origanum sp.|Origanum vulgare|Ormosia dasycarpa|Ormosia fordiana|Orthantha lutea|Oryza Sativa|Oryza aristata|Oryza sativa|Oryza sativa cv. Heugjinjubyeo|Osteospermum muricatum|Oxalis pes-caprae|Oxytropis muricata|Pachycereus pringlei|Paeonia hybrida|Paeonia lactiflora|Paeonia obovata|Paeonia rockii|Paeonia tenuifolia|Paeonia veitchii|Palaquium canaliculatum|Panax ginseng|Panax sp.|Panax spinosus|Pangium edule|Papaver pseudocanescens|Papaver radicatum|Papaver somniferum|Papaver sp.|Parablechnum minus|Paracoccus denitrificans|Paratecoma koraiensis|Parmelia zollingeri|Parmentiera cereifera|Parthenocissus tricuspidata|Passiflora morifolia|Pastinaca sativa|Pelargonium reniforme|Pellacalyx axillaris|Penicillium alutaceum|Penicillium chrysogenum|Penicillium citrinum|Penicillium cyclopium|Peperomia duclouxii C. DC.|Peperomia heyneana|Peperomia humilis|Peperomia leptostachya|Peperomia sui|Peperomia tetraphylla|Peperomia vulcanica|Perilla frutescens|Periplaneta americana|Persicaria amphibia|Persicaria capitata|Persicaria hydropiper|Persicaria hydropiperoides|Persicaria mitis|Persicaria nepalensis|Pertusaria amara|Perymenium mendezii|Pestalotiopsis oenotherae|Petasites formosanus|Petiveria alliaceae|Petroselinum crispum|Petrosia hebes|Phaeolus schweinitzii|Phaseolus vulgaris|Phebalium bilobum|Phebalium dentatum|Phellodendron Amurense|Phellodendron amurense var. wilsonii|Phellodendron amurense var.wilsonii|Phellodendron chinense var. glabriusculum|Phellodendron japonicum MAXIM|Phlebodium aureum|Phlojodicarpus sibiricus|Phlomis crinita|Phlomis umbrosa|Phoenix dactylifera|Phora velutina|Phragmites communis|Phyllanthus amarus|Phyllanthus emblica|Phyllanthus niruri|Phyllanthus oligospermus|Phyllanthus tenellus|Physalis edulis|Physalis sordida|Picea abies|Picea ajanensis|Picea glauca|Picea koraiensis|Picea obovata|Picrorhiza kurrooa|Picrorhiza kurrosa|Picrorhiza sp.|Picrorrhiza scrophulariaeflora|Picrorrhiza scrophulariiflora|Pilocarpus grandiflorus|Pimpinella anisum|Pimpinella sp.|Pinellia sp.|Pinus edulis|Pinus glauca|Pinus pinaster|Pinus sibirica|Pinus sylvestris|Piper brachystachyum|Piper lolot|Piper sarmentosum|Piper sp.|Pisum sativum|Pithecellobium racemosum|Plagiomnium cuspidatum|Plakortis simplex|Planchonella vitiensis|Plantago Major|Plantago asiatica|Plantago lanceolata|Plantago major|Plantago media|Platostoma palustre|Platycarya strobilacea|Plectranthus lanuginosus|Pleione bulbocodioides|Pleione yunnanensis|Pluchea arguta|Plumbago zeylanica|Podocarpus elatus|Pogostemon cablin|Polanisia trachysperma|Polemonium caeruleum|Polyalthia nemoralis|Polyalthia stenopetala|Polygala senega|Polygonatum zanlanscianense|Polygonum aviculare|Polygonum cognatum|Polygonum flaccidum|Polysaccharidum versicolor|Polytrichum commune|Polyzonium rosalbum|Pometia eximia|Populus deltoides|Populus euphratica|Populus lasiocarpa|Populus pseudosimonii|Populus yunnanensis|Poria cocos|Posidonia oceanica|Potentilla sp.|Premna fulva|Premna tomentosa|Prosopis kuntzei|Prunus amygdalus|Prunus avium|Prunus cerasus|Prunus domestica|Prunus dulcis|Prunus japonica|Prunus padus|Pseudocyphellaria australiensis|Pseudocyphellaria rubella|Pseudolarix amabilis|Pseudolarix kaempferi Gord.|Pseudomonas pseudoalcaligenes|Pseudostellaria heterophylla|Pseudotsuga japonica|Pseudowintera colorata|Psiadia anchusifolia|Psidium acutangulum|Psidium friedrichsthalianum|Psidium guajava|Pteris spinulosa|Pterocarpus santalinus|Pterocarpus sp.|Punica granatum|Purpura aperta|Pyropia tenera|Pyrrosia petiolosa|Quercus faginea|Quercus humboldtii|Quercus ilex|Quercus imbricaria|Quercus petraea|Quercus pyrenaica|Quercus robur|Quercus suber|Radix liriopes|Radix paeoniae rubra|Ramalina farinacea|Ranunculus baudotii|Ranunculus ternatus|Raphanus raphanistrum|Raphanus sativus|Renealmia alpinia|Rhaponticum carthamoides|Rheum rhabarbarum|Rhinacanthus nasutus|Rhizobium leguminosarum|Rhizoctonia repens|Rhizoma acori graminei|Rhizoma homalomenae occultae|Rhizophora mangle|Rhodanthe maryonii|Rhodiola crenulata|Rhododendron campylocarpum|Rhododendron dauricum|Rhododendron mucronulatum|Rhodomyrtus tomentosa|Rhodotorula mucilaginosa|Rhodotorula rubra|Rhus vulgaris|Roemeria refracta|Rorippa indica|Rorippa sylvestris|Rosa canina|Rosa chinensis|Rosa rugosa|Rosmarinus officinalis|Rosmarinus sp.|Rostellularia procumbens|Rubia yunnanensis|Rubus chingii|Rubus coreanus|Rubus idaeus|Rumex chalepensis|Rumex japonicus|Russula sardonia|Sagittaria sagittifolia|Salix alba|Salvia miltiorrhiza|Salvia officinalis|Sambucus williamsii|Sanguisorba sp.|Sanicula epipactis|Santalum album|Saposhnikovia divaricata|Sarcandra glabra|Sarcolaeana multiflora|Sarcophyton buitendijki|Sarcophyton elegans|Sarcophyton flexuosum|Sargentodoxa cuneata|Satureja sp.|Saussurea amara|Saussurea eriostemon|Saussurea medusa|Saussurea nepalensis|Scabiosa comosa|Scapania aequiloba|Scapholeberis mucronata|Schefflera heptaphylla|Schisandra|Schisandra sphaerandra|Schisandra sphenanthera|Schrebera swietenoides|Scolytus multistriatus|Scopolia atropoides|Scrophularia frutescens|Scrophularia koelzii|Scrophularia nodosa|Scrophularia sp.|Scutellaria barbata|Scutellaria ramosissima|Secale cereale|Secale sp.|Secamone afzelii|Securidaca inappendiculata|Sedum obtuso-lineare|Selaginella pulvinata|Selaginella tamariscina|Selinum libanotis|Senecio adenophyllus|Senecio congestus|Senecio flammeus|Senecio gilliesi|Senecio heliopsis|Senecio scandens|Senna alexandrina|Senna reticulata|Senna spectabilis|Sesamum orientale|Sesamum sp.|Sesbania grandiflora|Sia ferox|Sida acuta|Sideritis dasygnaphala|Sideritis euboea|Sideritis perfoliata|Sidnyum turbinatum|Silphium perfoliatum|Simaba orinocensis|Sinapis alba|Sinapis sp.|Siphoneugena densiflora|Sisyrinchium californicum|Smilax china|Smilax glabra|Solanum americanum|Solanum andigena|Solanum boerhaavii|Solanum lycopersicum|Solanum lyratum|Solanum melongena|Solanum nigrum|Solanum pseudopersicum|Solanum spirale|Solidago canadensis|Solidago flexicaulis|Solidago gigantea|Solidago petiolaris|Solidago virgaurea|Sophora leachiana|Sorbus tianschanica|Sparganium stoloniferum|Spartium junceum|Spatholobus suberectus|Spergula japonica|Spigelia sp.|Spilanthes acmella|Spina gleditsiae|Spiracantha cornifolia|Spiraea formosa|Spiraea formosana|Stellaria dichotoma|Stellaria media|Stenocereus thurberi|Stephania aculeata|Stephania elegans|Sterculia foetida|Stereocaulon azoreum|Stigma croci|Stizolobium deeringianum|Streblognathus aethiopicus|Streptomyces|Streptomyces D7|Streptomyces GW23/1540|Streptomyces erythrochromogenes|Streptomyces globisporus|Streptomyces griseocarneus|Streptomyces melanogenes|Streptomyces nigrescens|Streptomyces noursei|Streptomyces parvisporogenes|Streptomyces platensis|Streptomyces purpurogeneiscleroticus|Streptomyces rimofaciens|Streptomyces roseoverticillatus|Streptomyces sp. GW23/1540|Streptomyces sulfonofaciens|Streptomyces tateyamensis|Streptomyces xanthocidicus|Strophanthus hispidus|Strychnos henningsii|Strychnos ledermannii|Styrax benzoin|Styrax tonkinensis|Swertia swertopsis|Synsepalum dulcificum|Syphonota geographica|Syzygium sp.|Tabebuia avellanedae|Tabebuia sp.|Tabernaemontana divaricata|Tadehagi triquetrum|Takifugu rubripes|Talipariti tiliaceum|Taonia australasica|Tapinella panuoides|Taraxacum formosanum|Taraxacum mongolicum|Tarchonanthus camphoratus|Tarenna attenuata|Taxus baccata|Taxus brevifolia|Taxus drupacea|Taxus wallichiana|Tecoma stans|Tephroseris flammea|Tephroseris kirilowii|Tephrosia bidwilli|Tetracentron sinense|Teucrium divaricatum|Teucrium lusitanicum|Teucrium pernyi|Teucrium salviastrum|Thea sasanqua|Theobroma cacao|Thermopsis mollis|Thielavia terricola|Thymus|Thymus quinquecostatus|Thymus sp.|Thymus vulgaris|Tilia argentea|Tilia mandshurica|Tilia tomentosa|Tiliacora racemosa|Tinospora cordifolia|Toddalia aculeata|Tolypothrix tjipanasensis|Tornabea scutellifera|Trachelospermum asiaticum|Trachelospermum jasminoides|Trichoderma koningi|Trichophyton mentagrophytes|Trichosanthes Kirilowi|Trichosanthes bracteata|Trichosanthes cucumeroides|Trichosanthes kirilowii|Trichosanthes rosthornii|Triticum aestivum|Triticum durum|Trollius chinensis|Tsuga chinensis|Tupistra chinensis|Tylophora tanakae|Typha angustata|Umbilicaria esculenta|Uruparia lanosa|Usnea undulata|Utricularia australis|Uvaria chamae|Vaccinium angustifolium|Vaccinium macrocarpon|Vaccinium myrtillus|Vachellia karroo|Vanilla planifolia|Veratrum sabadilla|Verbascum laxum|Verbascum sp.|Vernonia lilacina|Vernonia scorpioides|Veronica peregrina L.|Veronica persica|Veronica sp.|Viburnum davidii|Vigna mungo|Viguiera linearis|Vincetoxicum pycnostelma|Viola sp.|Virgilia divaricata|Viscum coloratum|Viscum sp.|Visnea mocanera|Vitex agnus-castus|Vitex negundo|Vitex rotundifolia|Vitex trifolia|Vitis vinifera|Vittaria anguste-elongata|Viviparus japonicus|Welsh onion|Wurmbea deserticola|Wurmbea dioica|Wurmbea inframediana|Wurmbea tenella|Xanthium strumarium|Xanthoria parietina|Zaluzania grayana|Zanthoxylum acutifolium|Zanthoxylum ailanthoides|Zanthoxylum beecheyanum|Zanthoxylum chiloperone|Zanthoxylum gilletii|Zanthoxylum lemairei|Zanthoxylum leprieurii|Zanthoxylum rubescens|Zanthoxylum simulans|Zanthoxylum sp.|Zanthoxylum zanthoxyloides|Zea Mays|Zea mays|Zea mays L.|Zephyranthes flava|Zingiber cassumunar|Zingiber montanum|Zingiber officinale|Zingiber purpureum|Zingiber sp.|Ziziphus jujuba|Zostera marina|asparagus|basil|broad bean|cacao|erycibe hainanesis|garlic|maize|parsley|peanut|pomegranate|rooibos|soybean|tomato

>  <collections>  (174) 
ANPDB|Australian natural products|BIOFACQUIM|CMAUP (cCollective molecular activities of useful plants)|ChEBI NPs|ChemSpider NPs|ConMedNP|DrugBankNP|EMNPD|ETM (Ethiopian Traditional Medicine) DB|Exposome-explorer|FooDB|HIM (Herbal Ingredients in-vivo Metabolism database)|InterBioScreen Ltd|KNApSaCK|Latin America dataset|Mitishamba database|NANPDB (Natural Products from Northern African Sources)|NAPRORE-CR|NPACT|NPASS|NPAtlas|NPCARE|NPDBEjeCol|NPEdia|NuBBEDB|PeruNPDB|Phenol-explorer|Phyto4Health|PhytoLab phyproof® Reference Substances|PubChem NPs|SANCDB|Specs Natural Products|StreptomeDB|Super Natural II|TCMDB-Taiwan (Traditional Chinese Medicine database)|TCMID (Traditional Chinese Medicine Integrated Database)|TIPdb (database of Taiwan indigenous plants)|UNPD (Universal Natural Products Database)|VietHerb|Watermelon|WikiData Natural Products

>  <dois>  (174) 
10.1002/(SICI)1521-4133(199909)101:9<328::AID-LIPI328>3.0.CO;2-M|10.1002/1099-1565(200011/12)11:6<375::AID-PCA539>3.0.CO;2-0|10.1002/BMC.1207|10.1002/BMS.1200200504|10.1002/CBDV.200800270|10.1002/CBDV.200900007|10.1002/CBDV.201000166|10.1002/CBDV.201000373|10.1002/CBDV.201100002|10.1002/CBDV.201100219|10.1002/CHEM.200701328|10.1002/CHIN.199848194|10.1002/CHIN.200322218|10.1002/CHIN.200345171|10.1002/CHIN.200434239|10.1002/CHIN.200516167|10.1002/CHIN.200533256|10.1002/CHIN.200550175|10.1002/EJLT.200500227|10.1002/EJOC.200300284|10.1002/HLCA.194502801103|10.1002/HLCA.19890720406|10.1002/HLCA.200590217|10.1002/HLCA.200790187|10.1002/HLCA.200790230|10.1002/HLCA.200890135|10.1002/JCCS.199500136|10.1002/JCCS.199700056|10.1002/JCCS.199800035|10.1002/JCCS.199900010|10.1002/JCCS.200000050|10.1002/JCCS.200100154|10.1002/JCCS.200200019|10.1002/JCCS.200300178|10.1002/JCCS.200400067|10.1002/JCCS.200400100|10.1002/JCCS.200400159|10.1002/JCCS.200400160|10.1002/JCCS.200700169|10.1002/JPS.2600601135|10.1002/JSFA.2384|10.1002/JSFA.2449|10.1002/JSFA.2740420206|10.1002/JSFA.2740500106|10.1002/JSSC.200390053|10.1002/JSSC.200390054|10.1002/JSSC.200500003|10.1002/PCA.672|10.1002/PS.1278|10.1002/PTR.2639|10.1002/ps.1278|10.1006/JCRS.1996.0058|10.1006/JFCA.1999.0868|10.1007/978-3-642-71425-2_1|10.1007/978-3-642-73686-5_3|10.1007/BF00367119|10.1007/BF00563355|10.1007/BF00563959|10.1007/BF00564022|10.1007/BF00564480|10.1007/BF00565598|10.1007/BF00566073|10.1007/BF00568226|10.1007/BF00568230|10.1007/BF00571226|10.1007/BF00571236|10.1007/BF00574347|10.1007/BF00575727|10.1007/BF00575737|10.1007/BF00579165|10.1007/BF00579785|10.1007/BF00597724|10.1007/BF00598278|10.1007/BF00601301|10.1007/BF00629947|10.1007/BF00629948|10.1007/BF00629967|10.1007/BF00630225|10.1007/BF00982301|10.1007/BF00993699|10.1007/BF00994606|10.1007/BF02467553|10.1007/BF02523530|10.1007/BF02671339|10.1007/BF02856441|10.1007/BF02908196|10.1007/BF02973905|10.1007/BF02974274|10.1007/BF02976704|10.1007/BF02977346|10.1007/S00216-007-1298-8|10.1007/S00217-004-0938-X|10.1007/S00217-005-0160-5|10.1007/S00580-015-2192-Y|10.1007/S10600-007-0232-9|10.1007/S10600-008-9041-Z|10.1007/S10600-009-9329-7|10.1007/S10600-010-9595-4|10.1007/S10600-010-9599-0|10.1007/S10600-010-9639-9|10.1007/S10600-010-9696-0|10.1007/S10600-011-0016-0|10.1007/S10600-011-9885-5|10.1007/S10600-012-0141-4|10.1007/S10600-017-1933-3|10.1007/S10600-020-03081-4|10.1007/S11130-011-0236-2|10.1007/S11130-020-00822-2|10.1007/S11240-014-0506-4|10.1007/S11746-000-0107-4|10.1007/S12272-010-0404-1|10.1007/s11130-020-00822-2|10.1016/0021-9673(95)00585-B|10.1016/0021-9673(95)00877-2|10.1016/0021-9673(95)01335-0|10.1016/0031-9422(73)80048-2|10.1016/0031-9422(81)83035-X|10.1016/0031-9422(82)80150-7|10.1016/0031-9422(88)80758-1|10.1016/0031-9422(88)83055-3|10.1016/0031-9422(89)80284-5|10.1016/0031-9422(89)80310-3|10.1016/0031-9422(90)85281-J|10.1016/0031-9422(90)85309-4|10.1016/0031-9422(90)85371-L|10.1016/0031-9422(90)87143-I|10.1016/0031-9422(91)83614-Q|10.1016/0031-9422(91)85032-U|10.1016/0031-9422(92)80108-Q|10.1016/0031-9422(92)90044-Q|10.1016/0031-9422(94)00314-J|10.1016/0031-9422(94)00630-C|10.1016/0031-9422(94)00630-c|10.1016/0031-9422(94)00795-U|10.1016/0031-9422(95)00005-R|10.1016/0031-9422(95)00059-G|10.1016/0031-9422(95)00427-9|10.1016/0031-9422(95)00600-1|10.1016/0031-9422(95)00648-6|10.1016/0031-9422(96)00061-1|10.1016/0043-1648(86)90006-2|10.1016/0098-8472(86)90054-7|10.1016/0304-3770(86)90119-1|10.1016/0305-1978(94)00092-U|10.1016/0308-8146(93)90137-5|10.1016/0378-5173(89)90326-8|10.1016/0378-8741(90)90043-S|10.1016/0378-8741(95)01328-8|10.1016/0378-8741(96)01419-5|10.1016/0731-7085(90)80133-A|10.1016/0731-7085(91)80211-Q|10.1016/B978-0-12-374420-3.00099-1|10.1016/B978-0-12-397934-6.00012-7|10.1016/J.ARABJC.2013.12.011|10.1016/J.BMC.2003.11.017|10.1016/J.BMC.2008.09.023|10.1016/J.BMC.2010.01.046|10.1016/J.BMCL.2011.02.104|10.1016/J.BMCL.2011.10.072|10.1016/J.BMCL.2015.01.034|10.1016/J.BSE.2004.11.009|10.1016/J.BSE.2010.12.023|10.1016/J.CHMED.2022.08.010|10.1016/J.CHROMA.2007.01.090|10.1016/J.FITOTE.2007.05.003|10.1016/J.FITOTE.2008.01.002|10.1016/J.FITOTE.2009.12.009|10.1016/J.FITOTE.2011.11.015|10.1016/J.FOODCHEM.2003.07.012|10.1016/J.FOODCHEM.2005.02.007|10.1016/J.FOODCHEM.2005.07.053|10.1016/J.FOODCHEM.2006.08.014|10.1016/J.JEP.2008.06.025|10.1016/J.JFCA.2006.05.007|10.1016/J.JFF.2012.04.008|10.1016/J.JFF.2015.04.049|10.1016/J.JFOODENG.2005.05.061|10.1016/J.LWT.2006.07.003|10.1016/J.LWT.2018.02.024|10.1016/J.PHYMED.2006.08.005|10.1016/J.PHYMED.2006.11.021|10.1016/J.PHYTOCHEM.2004.08.051|10.1016/J.PHYTOCHEM.2005.11.023|10.1016/J.PHYTOCHEM.2006.03.024|10.1016/J.PHYTOCHEM.2006.05.017|10.1016/J.PHYTOCHEM.2006.12.015|10.1016/J.PHYTOCHEM.2007.01.018|10.1016/J.PHYTOCHEM.2007.05.027|10.1016/J.PHYTOCHEM.2007.05.032|10.1016/J.PHYTOCHEM.2007.11.014|10.1016/J.PHYTOCHEM.2008.02.016|10.1016/J.PHYTOCHEM.2009.04.008|10.1016/J.PHYTOCHEM.2009.10.007|10.1016/J.PHYTOCHEM.2014.04.010|10.1016/J.PHYTOCHEM.2018.05.011|10.1016/J.PHYTOL.2014.04.013|10.1016/J.SCIENTA.2006.12.036|10.1016/S0003-2670(01)01241-7|10.1016/S0021-9258(20)80477-3|10.1016/S0021-9673(00)91379-7|10.1016/S0021-9673(01)00598-2|10.1016/S0021-9673(01)01434-0|10.1016/S0021-9673(01)87655-X|10.1016/S0021-9673(01)93959-7|10.1016/S0021-9673(01)95373-7|10.1016/S0031-9422(00)82343-2|10.1016/S0031-9422(00)82492-9|10.1016/S0031-9422(00)86043-4|10.1016/S0031-9422(00)86894-6|10.1016/S0031-9422(00)86905-8|10.1016/S0031-9422(00)88025-5|10.1016/S0031-9422(00)88104-2|10.1016/S0031-9422(00)89801-5|10.1016/S0031-9422(00)89818-0|10.1016/S0031-9422(00)90415-1|10.1016/S0031-9422(00)90786-6|10.1016/S0031-9422(00)97569-1|10.1016/S0031-9422(00)97993-7|10.1016/S0031-9422(01)00415-0|10.1016/S0031-9422(02)00133-4|10.1016/S0031-9422(02)00163-2|10.1016/S0031-9422(02)00243-1|10.1016/S0031-9422(02)00268-6|10.1016/S0031-9422(03)00183-3|10.1016/S0031-9422(96)00388-3|10.1016/S0031-9422(97)01108-4|10.1016/S0031-9422(97)01118-7|10.1016/S0031-9422(98)00093-4|10.1016/S0031-9422(98)00453-1|10.1016/S0031-9422(99)00070-9|10.1016/S0031-9422(99)00116-8|10.1016/S0031-9422(99)00176-4|10.1016/S0031-9422(99)00180-6|10.1016/S0031-9422(99)00390-8|10.1016/S0031-9422(99)00457-4|10.1016/S0040-4020(01)98186-4|10.1016/S0166-3542(02)00007-4|10.1016/S0305-1978(97)00063-X|10.1016/S0305-1978(99)00091-5|10.1016/S0305-1978(99)00122-2|10.1016/S0308-8146(00)00322-8|10.1016/S0308-8146(02)00590-3|10.1016/S0308-8146(03)00127-4|10.1016/S0308-8146(98)00146-0|10.1016/S0367-326X(99)00010-6|10.1016/S0367-326X(99)00149-5|10.1016/S0731-7085(00)00272-7|10.1016/S0731-7085(00)00541-0|10.1016/S0928-0987(97)86374-9|10.1016/S0944-7113(11)80033-4|10.1016/S0960-894X(03)00088-X|10.1016/S0963-9969(00)00072-7|10.1016/S0968-0896(00)00225-X|10.1016/S0968-0896(02)00470-4|10.1016/S1466-8564(01)00040-6|10.1016/j.bmc.2010.01.046|10.1016/j.bmc.2010.01.079|10.1016/j.bmc.2017.12.011|10.1016/j.bmcl.2011.02.104|10.1016/j.bmcl.2015.01.034|10.1016/j.jfca.2006.05.007|10.1016/j.phytochem.2004.08.051|10.1016/s0031-9422(00)90067-0|10.1021/ACS.JAFC.5B05575|10.1021/ACS.JAFC.8B03600|10.1021/JF00021A005|10.1021/JF00035A076|10.1021/JF00042A006|10.1021/JF00044A027|10.1021/JF0006473|10.1021/JF00078A018|10.1021/JF00110A030|10.1021/JF00118A035|10.1021/JF00123A028|10.1021/JF010697N|10.1021/JF011454Y|10.1021/JF011533+|10.1021/JF020028P|10.1021/JF020055F|10.1021/JF0201327|10.1021/JF0205211|10.1021/JF020728U|10.1021/JF025651O|10.1021/JF035300P|10.1021/JF040083T|10.1021/JF049847V|10.1021/JF050579Q|10.1021/JF050579Q.S001|10.1021/JF061058L|10.1021/JF0615247|10.1021/JF0636014|10.1021/JF0713253|10.1021/JF071963L|10.1021/JF0734727|10.1021/JF2011535|10.1021/JF204660C|10.1021/JF802152Z|10.1021/JF900695S|10.1021/JF9014685|10.1021/JF9502461|10.1021/JF9505335|10.1021/JF9601628|10.1021/JF960486W|10.1021/JF960741C|10.1021/JF970863K|10.1021/JF980049C|10.1021/JF980264T|10.1021/JF990530I|10.1021/JF991266W|10.1021/NP010073B|10.1021/NP0202475|10.1021/NP020351M|10.1021/NP0205710|10.1021/NP030034V|10.1021/NP0301238|10.1021/NP0302394|10.1021/NP0302854|10.1021/NP0305425|10.1021/NP040080A|10.1021/NP0496035|10.1021/NP050060O|10.1021/NP050084V|10.1021/NP058067T|10.1021/NP060107L|10.1021/NP060217S|10.1021/NP060425K|10.1021/NP0604533|10.1021/NP060500R|10.1021/NP070186G|10.1021/NP0702786|10.1021/NP070594K|10.1021/NP100373F|10.1021/NP100902F|10.1021/NP200359V|10.1021/NP200780M|10.1021/NP400552W|10.1021/NP400701K|10.1021/NP50008A001|10.1021/NP50099A032|10.1021/NP800001V|10.1021/NP800097T|10.1021/NP800830V|10.1021/NP900593Q|10.1021/NP970044U|10.1021/NP970369A|10.1021/NP990033W|10.1021/acs.jnatprod.0c00756|10.1021/jf4025135|10.1021/np040080a|10.1021/np060500r|10.1021/np100373f|10.1021/np100902f|10.1021/np200359v|10.1021/np200780m|10.1021/np300576w|10.1021/np4001366|10.1021/np400552w|10.1021/np400701k|10.1021/np800001v|10.1021/np800097t|10.1021/np900593q|10.1021/np990033w|10.1034/J.1399-3054.2003.00068.X|10.1038/s41598-023-50281-3|10.1051/ctv/20173202093|10.1055/S-0028-1084385|10.1055/S-0028-1097188|10.1055/S-0028-1097628|10.1055/S-0028-1097714|10.1055/S-0028-1097904|10.1055/S-0028-1099447|10.1055/S-0028-1099839|10.1055/S-0033-1348773|10.1055/S-2002-32891|10.1055/S-2003-41120|10.1055/S-2005-864107|10.1055/S-2005-873196|10.1055/S-2006-931604|10.1055/S-2006-958019|10.1055/S-2006-959432|10.1055/S-2006-960035|10.1055/S-2006-960092|10.1055/S-2006-961558|10.1055/S-2006-962793|10.1055/S-2007-967165|10.1055/S-2007-969319|10.1055/S-2007-969772|10.1055/S-2008-1034309|10.1055/S-2008-1081295|10.1073/pnas.1114410109|10.1080/01483918808067200|10.1080/01483919008049590|10.1080/0957126032000114982|10.1080/09637486.2017.1418845|10.1080/10286020.2011.566562|10.1080/10286020.2011.600250|10.1080/10286020108040371|10.1080/1028602031000066843|10.1080/10286020903451757|10.1080/10408390802145377|10.1080/1057563029001/4764|10.1080/10826079808003594|10.1080/13880200600794105|10.1080/14786410903244962|10.1080/14786411003757929|10.1080/246-1071576021000016472|10.1081/JLC-100101744|10.1086/325089|10.1093/CHROMSCI/BMY030|10.1093/jn/133.6.1806|10.1104/PP.106.078428|10.1104/PP.99.1.256|10.1111/1750-3841.12404|10.1111/1750-3841.15463|10.1111/J.1365-2621.1983.TB14902.X|10.1111/J.1365-2621.1987.TB14056.X|10.1111/J.1745-4514.2007.00107.X|10.1111/J.1745-4522.2007.00107.X|10.1111/J.1745-4557.2006.00096.X|10.1128/AEM.66.4.1499-1508.2000|10.1139/B71-295|10.1155/2017/7436259|10.1246/BCSJ.60.981|10.1248/BPB.23.1216|10.1248/BPB.24.1373|10.1248/BPB.29.2310|10.1248/CPB.19.2534|10.1248/CPB.28.2948|10.1248/CPB.32.3267|10.1248/CPB.32.578|10.1248/CPB.34.4829|10.1248/CPB.35.2675|10.1248/CPB.36.1419|10.1248/CPB.39.3265|10.1248/CPB.42.1198|10.1248/CPB.42.1669|10.1248/CPB.46.1189|10.1248/CPB.46.1624|10.1248/CPB.47.375|10.1248/CPB.47.571|10.1248/CPB.47.887|10.1248/CPB.48.1006|10.1248/CPB.48.201|10.1248/CPB.48.357|10.1248/CPB.50.73|10.1248/CPB.51.62|10.1248/CPB.51.654|10.1248/CPB.52.1194|10.1248/CPB.52.1227|10.1248/CPB.52.1342|10.1248/CPB.52.1365|10.1248/CPB.52.345|10.1248/CPB.53.1118|10.1248/CPB.53.56|10.1248/CPB.53.641|10.1248/CPB.53.836|10.1248/CPB.53.853|10.1248/CPB.54.1063|10.1248/CPB.54.1308|10.1248/CPB.54.506|10.1248/CPB.55.153|10.1248/CPB.55.1677|10.1248/CPB.56.97|10.1248/CPB.57.1089|10.1248/CPB.57.1227|10.1248/CPB.57.1267|10.1248/CPB.58.868|10.1248/CPB.59.365|10.1248/YAKUSHI1947.103.9_997|10.1248/YAKUSHI1947.109.4_256|10.1248/YAKUSHI1947.110.5_354|10.1248/YAKUSHI1947.111.6_299|10.1248/YAKUSHI1947.99.4_439|10.1271/BBB.58.380|10.1271/BBB.59.1780|10.1271/BBB.68.942|10.1271/BBB1961.44.205|10.1365/S10337-005-0622-8|10.1365/S10337-009-1222-9|10.1371/JOURNAL.PONE.0086393|10.14233/AJCHEM.2014.16143A|10.1515/HF.1999.096|10.1515/ZNB-1964-0902|10.1515/ZNB-2000-0116|10.1515/ZNB-2005-0715|10.1515/ZNC-1990-0604|10.1515/ZNC-2001-9-1012|10.1515/ZNC-2008-5-611|10.1590/S0103-50532001000400019|10.1590/S0103-50532010000900022|10.17660/ACTAHORTIC.2003.597.15|10.21273/HORTSCI.29.4.313|10.21577/0103-5053.20190018|10.3186/JJPHYTOPATH.61.103|10.3389/FPHAR.2020.01246|10.3390/METABO4030599|10.3390/MOLECULES14020850|10.3390/MOLECULES15107075|10.3390/MOLECULES15118193|10.3390/MOLECULES16031917|10.3390/MOLECULES17088928|10.3390/MOLECULES19079675|10.3390/MOLECULES22101606|10.3390/MOLECULES23020383|10.3390/MOLECULES23071558|10.3390/NU11061377|10.3390/foods9060770|10.3390/molecules22010011|10.3390/molecules22030402|10.3390/molecules24162945|10.3390/molecules24183212|10.3390/molecules27020483|10.3390/molecules27061860|10.3390/plants6040050|10.3906/KIM-0805-46|10.3923/JBS.2001.843.845|10.3987/COM-02-9615|10.3987/COM-03-9777|10.3998/ARK.5550190.0011.213|10.4268/CJCMM20101214|10.4268/CJCMM20111611|10.4268/CJCMM20121914|10.4268/CJCMM20150419|10.4268/CJCMM20150722|10.5424/SJAR/2005031-130|10.5530/PJ.2014.3.6|10.5586/ASBP.1977.015|10.5586/ASBP.1991.011|10.5586/ASBP.1995.007|10.5586/ASBP.1998.029|10.5586/ASBP.1999.040|10.5586/ASBP.2000.003|10.5650/JOS1996.46.1399|10.9734/EJMP/2013/4976

>  <synonyms>  (174) 
121-34-6|1ST40128|2-METHOXY-4-CARBOXYPHENOL|3-Methoxy-4-hydroxybenzoate|3-Methoxy-4-hydroxybenzoic acid|3E9555E5-85F5-4FCE-A429-5182E959C6A3|4 Hydroxy 3 methoxybenzoic Acid|4-HYDROXY-3-METHOXYBENZOIC ACID|4-HYDROXY-3-METHOXYBENZOIC ACID [FHFI]|4-Hydroxy 3-methoxybenzoic acid|4-Hydroxy-3-methoxybenzoate|4-hydroxy-3-methoxy-Benzoic acid|4-hydroxy-m-Anisate|4-hydroxy-m-Anisic acid|A804715|AC-11841|AI3-19542|AKOS000113195|AM20050239|Acid, 4-Hydroxy-3-methoxybenzoic|Acid, Vanillic|Acide vanillique|BBL011982|BDBM50337364|BP-13246|BRN 2208364|Benzoic acid, 4-hydroxy-3-methoxy-|C06672|CCG-266343|CHEBI:30816|CHEMBL120568|CK2172|CS-0009728|DB-003804|DROXIDOPA METABOLITE (VA)|DTXCID1033668|DTXSID6059522|EINECS 204-466-8|EN300-105765|FEMA NO. 3988|GM8Q3JM2Y8|HMS2197E16|HY-N0708|InChI=1\/C8H8O4\/c1-12-7-4-5(8(10)11)2-3-6(7)9\/h2-4,9H,1H3,(H,10,11|M-METHOXY-P-HYDROXY-BENZOIC ACID|MFCD00002551|MLS000574833|NCGC00247610-01|NS00014581|NSC 3987|NSC 674322|NSC-3987|Protocatechuic acid, 3-methyl ester|Q-201921|Q419672|SCHEMBL26179|SMR000156289|STL163472|STR02334|SY001450|UNII-GM8Q3JM2Y8|V0017|VA|VA (VAN)|VANILLIC ACID [INCI]|VANILLIC ACID [MI]|VNL|Vanilic acid|Vanillate|Vanillic Acid,(S)|Vanillic acid (M2)|Vanillic acid, 97%|Vanillic acid, >=97%, FG|Vanillic acid, Vetec(TM) reagent grade, 97%|Vanillic acid, certified reference material, TraceCERT(R)|Vanillic acid, purum, >=97.0% (HPLC)|VanillicAcid|Vanillinsaure|WLN: QVR DQ CO1|Z381356666|bmse000486|bmse000614|bmse010205|m-Anisic acid, 4-hydroxy-|p-Hydroxy-m-methoxy-benzoic Acid|p-Vanillic acid|s5343|vanillic acid

>  <cas>  (174) 
121-34-6

$$$$

     RDKit          2D

 24 26  0  0  0  0  0  0  0  0999 V2000
   -6.4509   -1.3746    0.0000 O   0  0  0  0  0  0  0  0  0  0  0  0
   -5.7936   -0.0263    0.0000 C   0  0  0  0  0  0  0  0  0  0  0  0
   -6.6326    1.2171    0.0000 C   0  0  0  0  0  0  0  0  0  0  0  0
   -5.9753    2.5654    0.0000 C   0  0  0  0  0  0  0  0  0  0  0  0
   -4.4789    2.6703    0.0000 C   0  0  0  0  0  0  0  0  0  0  0  0
   -3.6399    1.4269    0.0000 C   0  0  0  0  0  0  0  0  0  0  0  0
   -2.1436    1.5318    0.0000 C   0  0  0  0  0  0  0  0  0  0  0  0
   -1.3046    0.2884    0.0000 C   0  0  0  0  0  0  0  0  0  0  0  0
   -1.9619   -1.0599    0.0000 C   0  0  0  0  0  0  0  0  0  0  0  0
   -1.1229   -2.3033    0.0000 C   0  0  0  0  0  0  0  0  0  0  0  0
   -1.7803   -3.6517    0.0000 O   0  0  0  0  0  0  0  0  0  0  0  0
    0.3734   -2.1985    0.0000 C   0  0  0  0  0  0  0  0  0  0  0  0
    1.2124   -3.4419    0.0000 O   0  0  0  0  0  0  0  0  0  0  0  0
    1.0307   -0.8502    0.0000 C   0  0  0  0  0  0  0  0  0  0  0  0
    2.5270   -0.7453    0.0000 C   0  0  0  0  0  0  0  0  0  0  0  0
    3.1844    0.6030    0.0000 C   0  0  0  0  0  0  0  0  0  0  0  0
    4.6807    0.7079    0.0000 C   0  0  0  0  0  0  0  0  0  0  0  0
    5.5197   -0.5355    0.0000 C   0  0  0  0  0  0  0  0  0  0  0  0
    7.0160   -0.4306    0.0000 C   0  0  0  0  0  0  0  0  0  0  0  0
    7.6734    0.9177    0.0000 C   0  0  0  0  0  0  0  0  0  0  0  0
    6.8344    2.1611    0.0000 C   0  0  0  0  0  0  0  0  0  0  0  0
    5.3380    2.0562    0.0000 C   0  0  0  0  0  0  0  0  0  0  0  0
    0.1917    0.3933    0.0000 O   0  0  0  0  0  0  0  0  0  0  0  0
   -4.2973    0.0786    0.0000 O   0  0  0  0  0  0  0  0  0  0  0  0
  1  2  2  0
  2  3  1  0
  3  4  2  0
  4  5  1  0
  5  6  1  0
  6  7  1  6
  8  7  1  1
  8  9  1  0
  9 10  1  0
 10 11  1  1
 10 12  1  0
 12 13  1  1
 12 14  1  0
 14 15  1  6
 15 16  2  0
 16 17  1  0
 17 18  2  0
 18 19  1  0
 19 20  2  0
 20 21  1  0
 21 22  2  0
 14 23  1  0
  6 24  1  0
 24  2  1  0
 23  8  1  0
 22 17  1  0
M  END
>  <identifier>  (175) 
CNP0210429.3

>  <canonical_smiles>  (175) 
O=C1C=CC[C@H](C[C@@H]2C[C@H](O)[C@H](O)[C@@H](/C=C/C3=CC=CC=C3)O2)O1

>  <standard_inchi>  (175) 
InChI=1S/C19H22O5/c20-16-12-15(11-14-7-4-8-18(21)24-14)23-17(19(16)22)10-9-13-5-2-1-3-6-13/h1-6,8-10,14-17,19-20,22H,7,11-12H2/b10-9+/t14-,15-,16+,17-,19+/m1/s1

>  <standard_inchi_key>  (175) 
JKIRIPQYXPLBKK-SQXSGJHNSA-N

>  <name>  (175) 
nan

>  <iupac_name>  (175) 
(2~{R})-2-[[(2~{S},4~{S},5~{S},6~{R})-4,5-dihydroxy-6-[(~{E})-styryl]tetrahydropyran-2-yl]methyl]-2,3-dihydropyran-6-one

>  <annotation_level>  (175) 
5

>  <total_atom_count>  (175) 
46

>  <heavy_atom_count>  (175) 
24

>  <molecular_weight>  (175) 
330.38

>  <exact_molecular_weight>  (175) 
330.14672

>  <molecular_formula>  (175) 
C19H22O5

>  <alogp>  (175) 
1.84

>  <topological_polar_surface_area>  (175) 
75.99

>  <rotatable_bond_count>  (175) 
4

>  <hydrogen_bond_acceptors>  (175) 
5

>  <hydrogen_bond_donors>  (175) 
2

>  <hydrogen_bond_acceptors_lipinski>  (175) 
5

>  <hydrogen_bond_donors_lipinski>  (175) 
2

>  <lipinski_rule_of_five_violations>  (175) 
0

>  <aromatic_rings_count>  (175) 
1

>  <qed_drug_likeliness>  (175) 
0.82

>  <formal_charge>  (175) 
0

>  <fractioncsp3>  (175) 
0.42

>  <number_of_minimal_rings>  (175) 
3

>  <van_der_walls_volume>  (175) 
300.66

>  <contains_sugar>  (175) 
False

>  <contains_ring_sugars>  (175) 
False

>  <contains_linear_sugars>  (175) 
False

>  <murcko_framework>  (175) 
O1CC=CCC1CC2OC(C=Cc3ccccc3)CCC2

>  <np_likeness>  (175) 
2.55

>  <chemical_class>  (175) 
Pyrans

>  <chemical_sub_class>  (175) 
Pyranones and derivatives

>  <chemical_super_class>  (175) 
Organoheterocyclic compounds

>  <direct_parent_classification>  (175) 
Dihydropyranones

>  <np_classifier_pathway>  (175) 
Shikimates and Phenylpropanoids

>  <np_classifier_superclass>  (175) 
Styrylpyrones

>  <np_classifier_class>  (175) 
Kavalactones and derivatives

>  <np_classifier_is_glycoside>  (175) 
False

>  <organisms>  (175) 
Cryptocarya moschata

>  <collections>  (175) 
ChemSpider NPs|Latin America dataset|NuBBEDB|Super Natural II|WikiData Natural Products

>  <dois>  (175) 
10.1016/S0031-9422(99)00532-4

>  <synonyms>  (175) 
Cryptopyranmoscatone A2

>  <cas>  (175) 
nan

$$$$

     RDKit          2D

 51 58  0  0  0  0  0  0  0  0999 V2000
    4.6055    6.7394    0.0000 C   0  0  0  0  0  0  0  0  0  0  0  0
    4.6839    5.2414    0.0000 C   0  0  0  0  0  0  0  0  0  0  0  0
    3.4259    4.4245    0.0000 C   0  0  0  0  0  0  0  0  0  0  0  0
    2.0894    5.1056    0.0000 C   0  0  0  0  0  0  0  0  0  0  0  0
    3.5043    2.9266    0.0000 C   0  0  0  0  0  0  0  0  0  0  0  0
    4.8408    2.2455    0.0000 O   0  0  0  0  0  0  0  0  0  0  0  0
    2.2462    2.1097    0.0000 O   0  0  0  0  0  0  0  0  0  0  0  0
    2.3246    0.6118    0.0000 C   0  0  0  0  0  0  0  0  0  0  0  0
    3.6611   -0.0693    0.0000 C   0  0  0  0  0  0  0  0  0  0  0  0
    3.7395   -1.5673    0.0000 C   0  0  0  0  0  0  0  0  0  0  0  0
    5.0760   -2.2483    0.0000 O   0  0  0  0  0  0  0  0  0  0  0  0
    6.3340   -1.4314    0.0000 C   0  0  0  0  0  0  0  0  0  0  0  0
    7.6705   -2.1125    0.0000 C   0  0  0  0  0  0  0  0  0  0  0  0
    6.2556    0.0665    0.0000 O   0  0  0  0  0  0  0  0  0  0  0  0
    2.4815   -2.3841    0.0000 C   0  0  0  0  0  0  0  0  0  0  0  0
    3.7394   -3.2012    0.0000 C   0  0  0  0  0  0  0  0  0  0  0  0
    4.5162   -3.0219    0.0000 O   0  0  0  0  0  0  0  0  0  0  0  0
    3.6608   -4.6991    0.0000 O   0  0  0  0  0  0  0  0  0  0  0  0
    4.9188   -5.5161    0.0000 C   0  0  0  0  0  0  0  0  0  0  0  0
    2.2467   -3.8656    0.0000 C   0  0  0  0  0  0  0  0  0  0  0  0
    0.7652   -4.1002    0.0000 O   0  0  0  0  0  0  0  0  0  0  0  0
    0.0843   -2.7637    0.0000 C   0  0  0  0  0  0  0  0  0  0  0  0
   -1.2650   -2.0929    0.0000 C   0  0  0  0  0  0  0  0  0  0  0  0
   -2.1677   -3.2909    0.0000 O   0  0  0  0  0  0  0  0  0  0  0  0
   -1.4995   -0.6114    0.0000 C   0  0  0  0  0  0  0  0  0  0  0  0
   -2.2267    0.7006    0.0000 C   0  0  0  0  0  0  0  0  0  0  0  0
   -2.9178   -1.0996    0.0000 C   0  0  0  0  0  0  0  0  0  0  0  0
   -2.5805   -2.5612    0.0000 O   0  0  0  0  0  0  0  0  0  0  0  0
   -4.0149   -2.1226    0.0000 C   0  0  0  0  0  0  0  0  0  0  0  0
   -4.6011   -3.5033    0.0000 C   0  0  0  0  0  0  0  0  0  0  0  0
   -5.4519   -1.5119    0.0000 C   0  0  0  0  0  0  0  0  0  0  0  0
   -3.9903   -1.1746    0.0000 C   0  0  0  0  0  0  0  0  0  0  0  0
   -3.5517    0.2599    0.0000 C   0  0  0  0  0  0  0  0  0  0  0  0
   -4.5746    1.3570    0.0000 O   0  0  0  0  0  0  0  0  0  0  0  0
   -6.0362    1.0196    0.0000 C   0  0  0  0  0  0  0  0  0  0  0  0
   -7.2649    1.8801    0.0000 O   0  0  0  0  0  0  0  0  0  0  0  0
   -8.4629    0.9774    0.0000 C   0  0  0  0  0  0  0  0  0  0  0  0
   -7.9746   -0.4409    0.0000 C   0  0  0  0  0  0  0  0  0  0  0  0
   -6.4748   -0.4148    0.0000 C   0  0  0  0  0  0  0  0  0  0  0  0
   -7.0610   -1.7955    0.0000 O   0  0  0  0  0  0  0  0  0  0  0  0
   -0.3337    0.3325    0.0000 C   0  0  0  0  0  0  0  0  0  0  0  0
    1.0666   -0.2051    0.0000 C   0  0  0  0  0  0  0  0  0  0  0  0
    2.0106    0.9605    0.0000 C   0  0  0  0  0  0  0  0  0  0  0  0
    1.1938    2.2186    0.0000 O   0  0  0  0  0  0  0  0  0  0  0  0
   -0.2551    1.8305    0.0000 C   0  0  0  0  0  0  0  0  0  0  0  0
   -1.7531    1.7521    0.0000 O   0  0  0  0  0  0  0  0  0  0  0  0
   -0.4897    3.3120    0.0000 C   0  0  0  0  0  0  0  0  0  0  0  0
    0.6761    4.2559    0.0000 O   0  0  0  0  0  0  0  0  0  0  0  0
   -1.8900    3.8497    0.0000 O   0  0  0  0  0  0  0  0  0  0  0  0
   -2.1246    5.3312    0.0000 C   0  0  0  0  0  0  0  0  0  0  0  0
    1.1450   -1.7031    0.0000 C   0  0  0  0  0  0  0  0  0  0  0  0
  1  2  1  0
  2  3  2  0
  3  4  1  0
  3  5  1  0
  5  6  2  0
  5  7  1  0
  8  7  1  1
  8  9  1  0
  9 10  1  0
 10 11  1  1
 11 12  1  0
 12 13  1  0
 12 14  2  0
 10 15  1  0
 15 16  1  6
 16 17  2  0
 16 18  1  0
 18 19  1  0
 15 20  1  0
 20 21  1  0
 22 21  1  1
 22 23  1  0
 23 24  1  1
 23 25  1  0
 25 26  1  6
 25 27  1  0
 27 28  1  1
 28 29  1  0
 29 30  1  6
 29 31  1  0
 31 32  1  1
 32 33  1  0
 33 34  1  6
 35 34  1  1
 35 36  1  0
 36 37  1  0
 37 38  2  0
 38 39  1  0
 39 40  1  6
 25 41  1  0
 41 42  1  0
 42 43  1  6
 43 44  1  0
 44 45  1  0
 45 46  1  6
 45 47  1  0
 47 48  2  0
 47 49  1  0
 49 50  1  0
 42 51  1  0
 42  8  1  0
 51 15  1  0
 51 22  1  6
 29 27  1  0
 39 31  1  0
 41 45  1  6
 33 27  1  0
 39 35  1  0
M  END
>  <identifier>  (176) 
CNP0303804.2

>  <canonical_smiles>  (176) 
C/C=C(\C)C(=O)O[C@H]1C[C@@H](OC(C)=O)[C@@]2(C(=O)OC)CO[C@H]3[C@@H](O)[C@@](C)([C@]45O[C@@]4(C)[C@H]4C[C@@H]5O[C@@H]5OC=C[C@@]54O)[C@H]4[C@]1(CO[C@]4(O)C(=O)OC)[C@@H]32

>  <standard_inchi>  (176) 
InChI=1S/C35H44O16/c1-8-15(2)24(38)49-18-12-19(48-16(3)36)32(26(39)43-6)13-46-21-22(32)31(18)14-47-34(42,27(40)44-7)25(31)29(4,23(21)37)35-20-11-17(30(35,5)51-35)33(41)9-10-45-28(33)50-20/h8-10,17-23,25,28,37,41-42H,11-14H2,1-7H3/b15-8+/t17-,18+,19-,20+,21-,22-,23-,25+,28+,29-,30+,31+,32+,33+,34+,35+/m1/s1

>  <standard_inchi_key>  (176) 
FTNJWQUOZFUQQJ-NDAWSKJSSA-N

>  <name>  (176) 
azadirachtin

>  <iupac_name>  (176) 
dimethyl (1~{S},4~{S},5~{R},6~{S},7~{S},8~{R},11~{S},12~{R},14~{S},15~{R})-12-acetoxy-4,7-dihydroxy-6-[(1~{S},2~{S},6~{S},8~{S},9~{R},11~{S})-2-hydroxy-11-methyl-5,7,10-trioxatetracyclo[6.3.1.0^{2,6}.0^{9,11}]dodec-3-en-9-yl]-6-methyl-14-[(~{E})-2-methylbut-2-enoyl]oxy-3,9-dioxatetracyclo[6.6.1.0^{1,5}.0^{11,15}]pentadecane-4,11-dicarboxylate

>  <annotation_level>  (176) 
5

>  <total_atom_count>  (176) 
95

>  <heavy_atom_count>  (176) 
51

>  <molecular_weight>  (176) 
720.72

>  <exact_molecular_weight>  (176) 
720.26294

>  <molecular_formula>  (176) 
C35H44O16

>  <alogp>  (176) 
-0.20

>  <topological_polar_surface_area>  (176) 
215.34

>  <rotatable_bond_count>  (176) 
6

>  <hydrogen_bond_acceptors>  (176) 
16

>  <hydrogen_bond_donors>  (176) 
3

>  <hydrogen_bond_acceptors_lipinski>  (176) 
16

>  <hydrogen_bond_donors_lipinski>  (176) 
3

>  <lipinski_rule_of_five_violations>  (176) 
2

>  <aromatic_rings_count>  (176) 
0

>  <qed_drug_likeliness>  (176) 
0.14

>  <formal_charge>  (176) 
0

>  <fractioncsp3>  (176) 
0.77

>  <number_of_minimal_rings>  (176) 
8

>  <van_der_walls_volume>  (176) 
606.80

>  <contains_sugar>  (176) 
False

>  <contains_ring_sugars>  (176) 
False

>  <contains_linear_sugars>  (176) 
False

>  <murcko_framework>  (176) 
O1CC2C(CC3OCC4CCCC2(C1)C34)C56OC6C7CC5OC8OC=CC87

>  <np_likeness>  (176) 
3.46

>  <chemical_class>  (176) 
Prenol lipids

>  <chemical_sub_class>  (176) 
Triterpenoids

>  <chemical_super_class>  (176) 
Lipids and lipid-like molecules

>  <direct_parent_classification>  (176) 
Limonoids

>  <np_classifier_pathway>  (176) 
Terpenoids

>  <np_classifier_superclass>  (176) 
Triterpenoids

>  <np_classifier_class>  (176) 
Limonoids

>  <np_classifier_is_glycoside>  (176) 
True

>  <organisms>  (176) 
Azadirachta|Azadirachta indica|Melia azedarach|Melia indica|Penicillium|Penicillium sp. TGM112

>  <collections>  (176) 
Australian natural products|CMAUP (cCollective molecular activities of useful plants)|ChEBI NPs|ChemSpider NPs|KNApSaCK|Latin America dataset|NPASS|NPEdia|NuBBEDB|Super Natural II|TCMDB-Taiwan (Traditional Chinese Medicine database)|WikiData Natural Products

>  <dois>  (176) 
10.1007/BF02275756|10.1016/0031-9422(73)80025-1|10.1016/j.bmcl.2016.05.076|10.1021/ACS.JNATPROD.8B00866|10.1021/JF9905368|10.1021/NP50083A006|10.1021/acs.jnatprod.8b00866|10.1039/C0AY00008F|10.1039/c0ay00008f|10.1080/10826079508010463|10.1080/10826079608014000|10.1081/JLC-100100484|10.1515/ZNB-1997-1120|10.1515/ZNC-1987-1-202

>  <synonyms>  (176) 
11141-17-6|176087-49-3|1H,7H-Naphtho(1,8-bc:4,4a-c')difuran-5,10a(8H)-dicarboxylic acid, 10-(acetyloxy)octahydro-3,5-dihydroxy-4-methyl-8-(((2E)-2-methyl-1-oxo-2-butenyl)oxy)-4-((1aR,2S,3aS,6aS,7S,7aS)-3a,6a,7,7a-tetrahydro-6a-hydroxy-7a-methyl-2,7-methanofuro(2,3-b)oxireno(e)oxepin-1a(2H)-yl)-, dimethyl ester, (2aR,3S,4S,4aR,5S,7aS,8S,10R,10aS,10bR)-|AKOS040760284|AZADIRACHTIN [MI]|AZADIRACTIN|Align|Azadirachtin A|Azatin|BIOSAL|C08748|CCRIS 9142|CHEBI:2942|CHEMBL509309|CS-0107060|DTXSID0037497|Ecozin|Gronim|HSDB 7372|HY-126741|LMPR0106100001|MS-31232|NCGC00163746-01|NSC 368675|NeemAzal|Nimbicidine|Nimurin|O4U1SAF85H|Oikos|Ornazin|Q793471|SCHEMBL27784|Safer BioNEEM|Suneem|Superneem|UNII-O4U1SAF85H|azadirachtin|bioneem|dimethyl (1S,4S,5R,6S,7S,8R,11S,12R,14S,15R)-12-acetyloxy-4,7-dihydroxy-6-[(1S,2S,6S,8S,9R,11S)-2-hydroxy-11-methyl-5,7,10-trioxatetracyclo[6.3.1.02,6.09,11]dodec-3-en-9-yl]-6-methyl-14-[(E)-2-methylbut-2-enoyl]oxy-3,9-dioxatetracyclo[6.6.1.01,5.011,15]pentadecane-4,11-dicarboxylate|dimethyl (2aR,3S,4S,4aR,5S,7aS,8S,10R,10aS,10bR)-10-acetoxy-3,5-dihydroxy-4-[(1aR,2S,3aS,6aS,7S,7aS)-6a-hydroxy-7a-methyl-3a,6a,7,7a-tetrahydro-2,7-methanofuro[2,3-b]oxireno[e]oxepin-1a(2H)-yl]-4-methyl-8-{[(2E)-2-methylbut-2-enoyl]oxy}octahydro-1H-naphtho[1,8a-c:4,5-b'c']difuran-5,10a(8H)-dicarboxylate|dimethyl acetoxy-dihydroxy-[hydroxy(methyl)[?]yl]-methyl-[(E)-2-methylbut-2-enoyl]oxy-[?]dicarboxylate

>  <cas>  (176) 
11141-17-6|176087-49-3

$$$$

     RDKit          2D

 36 38  0  0  0  0  0  0  0  0999 V2000
   15.9220   -3.0277    0.0000 C   0  0  0  0  0  0  0  0  0  0  0  0
   15.3138   -1.6566    0.0000 C   0  0  0  0  0  0  0  0  0  0  0  0
   16.0655   -0.3586    0.0000 O   0  0  0  0  0  0  0  0  0  0  0  0
   15.0633    0.7575    0.0000 C   0  0  0  0  0  0  0  0  0  0  0  0
   15.3771    2.2243    0.0000 O   0  0  0  0  0  0  0  0  0  0  0  0
   13.6922    0.1492    0.0000 C   0  0  0  0  0  0  0  0  0  0  0  0
   12.3941    0.9010    0.0000 C   0  0  0  0  0  0  0  0  0  0  0  0
   11.0941    0.1527    0.0000 C   0  0  0  0  0  0  0  0  0  0  0  0
    9.7961    0.9044    0.0000 C   0  0  0  0  0  0  0  0  0  0  0  0
    8.4960    0.1562    0.0000 C   0  0  0  0  0  0  0  0  0  0  0  0
    7.1980    0.9079    0.0000 C   0  0  0  0  0  0  0  0  0  0  0  0
    5.8979    0.1597    0.0000 C   0  0  0  0  0  0  0  0  0  0  0  0
    4.5999    0.9114    0.0000 C   0  0  0  0  0  0  0  0  0  0  0  0
    3.2999    0.1631    0.0000 C   0  0  0  0  0  0  0  0  0  0  0  0
    2.0018    0.9149    0.0000 C   0  0  0  0  0  0  0  0  0  0  0  0
    0.7018    0.1666    0.0000 C   0  0  0  0  0  0  0  0  0  0  0  0
   -0.5962    0.9184    0.0000 C   0  0  0  0  0  0  0  0  0  0  0  0
   -1.8963    0.1701    0.0000 C   0  0  0  0  0  0  0  0  0  0  0  0
   -3.1943    0.9218    0.0000 C   0  0  0  0  0  0  0  0  0  0  0  0
   -4.4943    0.1736    0.0000 C   0  0  0  0  0  0  0  0  0  0  0  0
   -5.7924    0.9253    0.0000 C   0  0  0  0  0  0  0  0  0  0  0  0
   -7.0924    0.1771    0.0000 C   0  0  0  0  0  0  0  0  0  0  0  0
   -8.3905    0.9288    0.0000 C   0  0  0  0  0  0  0  0  0  0  0  0
   -9.6905    0.1805    0.0000 C   0  0  0  0  0  0  0  0  0  0  0  0
  -10.9885    0.9323    0.0000 C   0  0  0  0  0  0  0  0  0  0  0  0
  -12.2886    0.1840    0.0000 C   0  0  0  0  0  0  0  0  0  0  0  0
  -12.2906   -1.3160    0.0000 C   0  0  0  0  0  0  0  0  0  0  0  0
  -13.5906   -2.0643    0.0000 C   0  0  0  0  0  0  0  0  0  0  0  0
  -14.8887   -1.3125    0.0000 C   0  0  0  0  0  0  0  0  0  0  0  0
  -16.3159   -1.7741    0.0000 O   0  0  0  0  0  0  0  0  0  0  0  0
  -17.1959   -0.5594    0.0000 C   0  0  0  0  0  0  0  0  0  0  0  0
  -16.3126    0.6529    0.0000 O   0  0  0  0  0  0  0  0  0  0  0  0
  -14.8866    0.1875    0.0000 C   0  0  0  0  0  0  0  0  0  0  0  0
  -13.5866    0.9357    0.0000 C   0  0  0  0  0  0  0  0  0  0  0  0
   13.8470   -1.3428    0.0000 C   0  0  0  0  0  0  0  0  0  0  0  0
   12.7309   -2.3450    0.0000 O   0  0  0  0  0  0  0  0  0  0  0  0
  2  1  1  1
  2  3  1  0
  3  4  1  0
  4  5  2  0
  4  6  1  0
  6  7  1  6
  7  8  1  0
  8  9  1  0
  9 10  1  0
 10 11  1  0
 11 12  1  0
 12 13  1  0
 13 14  1  0
 14 15  1  0
 15 16  1  0
 16 17  1  0
 17 18  1  0
 18 19  1  0
 19 20  1  0
 20 21  1  0
 21 22  1  0
 22 23  1  0
 23 24  1  0
 24 25  1  0
 25 26  1  0
 26 27  2  0
 27 28  1  0
 28 29  2  0
 29 30  1  0
 30 31  1  0
 31 32  1  0
 32 33  1  0
 33 34  2  0
  6 35  1  0
 35 36  1  6
 35  2  1  0
 34 26  1  0
 33 29  1  0
M  END
>  <identifier>  (177) 
CNP0378880.1

>  <canonical_smiles>  (177) 
C[C@@H]1OC(=O)[C@@H](CCCCCCCCCCCCCCCCCCCC2=CC=C3OCOC3=C2)[C@H]1O

>  <standard_inchi>  (177) 
InChI=1S/C31H50O5/c1-25-30(32)27(31(33)36-25)20-18-16-14-12-10-8-6-4-2-3-5-7-9-11-13-15-17-19-26-21-22-28-29(23-26)35-24-34-28/h21-23,25,27,30,32H,2-20,24H2,1H3/t25-,27-,30-/m0/s1

>  <standard_inchi_key>  (177) 
WMUJVEQSFVTRLN-XXJPWZBZSA-N

>  <name>  (177) 
nan

>  <iupac_name>  (177) 
(3~{S},4~{R},5~{S})-3-[19-(1,3-benzodioxol-5-yl)nonadecyl]-4-hydroxy-5-methyl-tetrahydrofuran-2-one

>  <annotation_level>  (177) 
4

>  <total_atom_count>  (177) 
86

>  <heavy_atom_count>  (177) 
36

>  <molecular_weight>  (177) 
502.74

>  <exact_molecular_weight>  (177) 
502.36582

>  <molecular_formula>  (177) 
C31H50O5

>  <alogp>  (177) 
7.90

>  <topological_polar_surface_area>  (177) 
64.99

>  <rotatable_bond_count>  (177) 
20

>  <hydrogen_bond_acceptors>  (177) 
5

>  <hydrogen_bond_donors>  (177) 
1

>  <hydrogen_bond_acceptors_lipinski>  (177) 
5

>  <hydrogen_bond_donors_lipinski>  (177) 
1

>  <lipinski_rule_of_five_violations>  (177) 
2

>  <aromatic_rings_count>  (177) 
1

>  <qed_drug_likeliness>  (177) 
0.14

>  <formal_charge>  (177) 
0

>  <fractioncsp3>  (177) 
0.77

>  <number_of_minimal_rings>  (177) 
3

>  <van_der_walls_volume>  (177) 
nan

>  <contains_sugar>  (177) 
False

>  <contains_ring_sugars>  (177) 
False

>  <contains_linear_sugars>  (177) 
False

>  <murcko_framework>  (177) 
O1c2ccc(cc2OC1)CCCCCCCCCCCCCCCCCCCC3COCC3

>  <np_likeness>  (177) 
0.86

>  <chemical_class>  (177) 
Benzodioxoles

>  <chemical_sub_class>  (177) 
Benzodioxoles

>  <chemical_super_class>  (177) 
Organoheterocyclic compounds

>  <direct_parent_classification>  (177) 
Benzodioxoles

>  <np_classifier_pathway>  (177) 
Polyketides

>  <np_classifier_superclass>  (177) 
Linear polyketides

>  <np_classifier_class>  (177) 
Acetogenins

>  <np_classifier_is_glycoside>  (177) 
False

>  <organisms>  (177) 
Iryanthera juruensis

>  <collections>  (177) 
Latin America dataset|NuBBEDB|WikiData Natural Products|ZINC NP

>  <dois>  (177) 
10.1016/0031-9422(75)85143-0

>  <synonyms>  (177) 
Juruenolide

>  <cas>  (177) 
nan

$$$$

     RDKit          2D

 20 23  0  0  0  0  0  0  0  0999 V2000
   -0.5376    3.8814    0.0000 O   0  0  0  0  0  0  0  0  0  0  0  0
   -0.2952    2.4011    0.0000 C   0  0  0  0  0  0  0  0  0  0  0  0
    1.1079    1.8708    0.0000 C   0  0  0  0  0  0  0  0  0  0  0  0
    1.3502    0.3905    0.0000 C   0  0  0  0  0  0  0  0  0  0  0  0
    2.7534   -0.1398    0.0000 C   0  0  0  0  0  0  0  0  0  0  0  0
    2.9957   -1.6201    0.0000 C   0  0  0  0  0  0  0  0  0  0  0  0
    4.3989   -2.1503    0.0000 C   0  0  0  0  0  0  0  0  0  0  0  0
    5.5597   -1.2003    0.0000 C   0  0  0  0  0  0  0  0  0  0  0  0
    5.3173    0.2800    0.0000 C   0  0  0  0  0  0  0  0  0  0  0  0
    3.9142    0.8103    0.0000 C   0  0  0  0  0  0  0  0  0  0  0  0
    0.1894   -0.5595    0.0000 O   0  0  0  0  0  0  0  0  0  0  0  0
   -1.2137   -0.0292    0.0000 C   0  0  0  0  0  0  0  0  0  0  0  0
   -1.4560    1.4511    0.0000 C   0  0  0  0  0  0  0  0  0  0  0  0
   -2.8592    1.9814    0.0000 C   0  0  0  0  0  0  0  0  0  0  0  0
   -4.0200    1.0313    0.0000 C   0  0  0  0  0  0  0  0  0  0  0  0
   -3.7776   -0.4490    0.0000 C   0  0  0  0  0  0  0  0  0  0  0  0
   -2.3745   -0.9792    0.0000 C   0  0  0  0  0  0  0  0  0  0  0  0
   -2.4452   -2.4776    0.0000 C   0  0  0  0  0  0  0  0  0  0  0  0
   -3.8921   -2.8733    0.0000 C   0  0  0  0  0  0  0  0  0  0  0  0
   -4.7156   -1.6196    0.0000 O   0  0  0  0  0  0  0  0  0  0  0  0
  1  2  2  0
  2  3  1  0
  3  4  2  0
  4  5  1  0
  5  6  2  0
  6  7  1  0
  7  8  2  0
  8  9  1  0
  9 10  2  0
  4 11  1  0
 11 12  1  0
 12 13  2  0
 13 14  1  0
 14 15  2  0
 15 16  1  0
 16 17  2  0
 17 18  1  0
 18 19  2  0
 19 20  1  0
 13  2  1  0
 20 16  1  0
 10  5  1  0
 17 12  1  0
M  END
>  <identifier>  (178) 
CNP0219142.0

>  <canonical_smiles>  (178) 
O=C1C=C(C2=CC=CC=C2)OC2=C1C=CC1=C2C=CO1

>  <standard_inchi>  (178) 
InChI=1S/C17H10O3/c18-14-10-16(11-4-2-1-3-5-11)20-17-12(14)6-7-15-13(17)8-9-19-15/h1-10H

>  <standard_inchi_key>  (178) 
NQNOTBRHBRJKKH-UHFFFAOYSA-N

>  <name>  (178) 
LANCEOLATIN B

>  <iupac_name>  (178) 
2-phenylfuro[2,3-h]chromen-4-one

>  <annotation_level>  (178) 
5

>  <total_atom_count>  (178) 
30

>  <heavy_atom_count>  (178) 
20

>  <molecular_weight>  (178) 
262.26

>  <exact_molecular_weight>  (178) 
262.06299

>  <molecular_formula>  (178) 
C17H10O3

>  <alogp>  (178) 
4.21

>  <topological_polar_surface_area>  (178) 
43.35

>  <rotatable_bond_count>  (178) 
1

>  <hydrogen_bond_acceptors>  (178) 
3

>  <hydrogen_bond_donors>  (178) 
0

>  <hydrogen_bond_acceptors_lipinski>  (178) 
3

>  <hydrogen_bond_donors_lipinski>  (178) 
0

>  <lipinski_rule_of_five_violations>  (178) 
0

>  <aromatic_rings_count>  (178) 
4

>  <qed_drug_likeliness>  (178) 
0.52

>  <formal_charge>  (178) 
0

>  <fractioncsp3>  (178) 
0.00

>  <number_of_minimal_rings>  (178) 
4

>  <van_der_walls_volume>  (178) 
221.78

>  <contains_sugar>  (178) 
False

>  <contains_ring_sugars>  (178) 
False

>  <contains_linear_sugars>  (178) 
False

>  <murcko_framework>  (178) 
o1ccc2c1ccc3c2OC(=CC3)c4ccccc4

>  <np_likeness>  (178) 
0.74

>  <chemical_class>  (178) 
Flavonoids

>  <chemical_sub_class>  (178) 
Flavones

>  <chemical_super_class>  (178) 
Phenylpropanoids and polyketides

>  <direct_parent_classification>  (178) 
Furanoflavones

>  <np_classifier_pathway>  (178) 
Shikimates and Phenylpropanoids

>  <np_classifier_superclass>  (178) 
Flavonoids

>  <np_classifier_class>  (178) 
Flavones

>  <np_classifier_is_glycoside>  (178) 
False

>  <organisms>  (178) 
Cissus discolor|Cissus sicyoides|Dahlstedtia pinnata|Leguminosae|Lonchocarpus heptaphyllus|Lonchocarpus latifolius|Millettia erythrocalyx|Millettia hemsleyana|Millettia leucantha|Millettia peguensis|Millettia pinnata|Millettia pulchra|Millettia sanagana|Millettia vatkei|Millettia xylocarpa|Millettia xylocarpia|Pongamia glabra|Pongamia pinnata|Pongamia pinnata var. pinnata|Tephrosia Purpurea|Tephrosia falciformis|Tephrosia purpurea

>  <collections>  (178) 
ANPDB|AnalytiCon Discovery NPs|Australian natural products|GNPS (Global Natural Products Social Molecular Networking)|InflamNat|KNApSaCK|Latin America dataset|Mitishamba database|NANPDB (Natural Products from Northern African Sources)|NPASS|NuBBEDB|Super Natural II|TIPdb (database of Taiwan indigenous plants)|UNPD (Universal Natural Products Database)|VietHerb|WikiData Natural Products|ZINC NP

>  <dois>  (178) 
10.1002/CHIN.200516190|10.1016/0031-9422(80)83083-4|10.1016/0031-9422(82)80177-5|10.1016/0031-9422(82)83183-X|10.1016/0031-9422(88)80277-2|10.1016/0031-9422(91)80130-S|10.1016/0031-9422(92)80055-J|10.1016/0031-9422(92)80201-O|10.1016/0031-9422(92)83754-M|10.1016/0031-9422(95)00058-F|10.1016/J.BMCL.2014.11.015|10.1016/J.BMCL.2015.01.009|10.1016/J.PHYTOCHEM.2003.09.011|10.1016/J.PHYTOCHEM.2006.03.019|10.1016/J.PHYTOCHEM.2006.05.016|10.1016/J.PHYTOCHEM.2018.02.005|10.1016/J.PHYTOL.2011.02.010|10.1016/S0031-9422(00)00300-9|10.1016/S0031-9422(00)80547-6|10.1016/S0031-9422(00)83561-X|10.1016/S0031-9422(02)00337-0|10.1016/S0305-1978(97)00088-4|10.1016/j.bmcl.2014.11.015|10.1016/j.bmcl.2015.01.009|10.1016/j.phytochem.2003.09.011|10.1016/j.phytochem.2018.02.005|10.1016/j.phytol.2011.02.010|10.1021/NP970236P|10.1021/np970236p|10.1039/P19810002491|10.1055/S-0028-1097406|10.1211/JPP.61.02.0017|10.1211/jpp/61.02.0017|10.1248/CPB.51.187|10.1248/CPB.57.1089|10.1248/CPB.58.1549

>  <synonyms>  (178) 
2-phenylfuro[2,3-h]chromen-4-one|482-00-8|7,8-(Oxyvinylene)flavone|BDBM50548258|CHEBI:228673|CHEMBL224157|Lanceolatin B (flavonoid)|Lanceolatin B, >=95% (LC\/MS-UV)|Leguminosae|SCHEMBL1161113|lanceolatin B

>  <cas>  (178) 
482-00-8

$$$$

     RDKit          2D

 15 16  0  0  0  0  0  0  0  0999 V2000
    3.0000   -2.7713    0.0000 C   0  0  0  0  0  0  0  0  0  0  0  0
    2.2500   -1.4722    0.0000 C   0  0  0  0  0  0  0  0  0  0  0  0
    0.7500   -1.4722    0.0000 C   0  0  0  0  0  0  0  0  0  0  0  0
    0.0000   -0.1732    0.0000 C   0  0  0  0  0  0  0  0  0  0  0  0
   -1.5000   -0.1732    0.0000 C   0  0  0  0  0  0  0  0  0  0  0  0
   -2.2500   -1.4722    0.0000 C   0  0  0  0  0  0  0  0  0  0  0  0
   -3.7500   -1.4722    0.0000 C   0  0  0  0  0  0  0  0  0  0  0  0
   -1.5000   -2.7713    0.0000 C   0  0  0  0  0  0  0  0  0  0  0  0
   -2.2500    1.1258    0.0000 C   0  0  0  0  0  0  0  0  0  0  0  0
   -1.5000    2.4249    0.0000 C   0  0  0  0  0  0  0  0  0  0  0  0
    0.0000    2.4249    0.0000 C   0  0  0  0  0  0  0  0  0  0  0  0
    0.7500    3.7239    0.0000 C   0  0  0  0  0  0  0  0  0  0  0  0
    0.7500    1.1258    0.0000 C   0  0  0  0  0  0  0  0  0  0  0  0
    2.2500    1.1258    0.0000 C   0  0  0  0  0  0  0  0  0  0  0  0
    3.0000   -0.1732    0.0000 C   0  0  0  0  0  0  0  0  0  0  0  0
  1  2  1  0
  2  3  2  0
  3  4  1  0
  4  5  2  0
  5  6  1  0
  6  7  1  0
  6  8  1  0
  5  9  1  0
  9 10  1  0
 10 11  1  0
 11 12  1  1
 11 13  1  0
 13 14  1  6
 14 15  1  0
 15  2  1  0
 13  4  1  0
M  END
>  <identifier>  (179) 
CNP0288057.1

>  <canonical_smiles>  (179) 
CC1=CC2=C(C(C)C)CC[C@@H](C)[C@@H]2CC1

>  <standard_inchi>  (179) 
InChI=1S/C15H24/c1-10(2)13-8-6-12(4)14-7-5-11(3)9-15(13)14/h9-10,12,14H,5-8H2,1-4H3/t12-,14+/m1/s1

>  <standard_inchi_key>  (179) 
FIAKMTRUEKZMNO-OCCSQVGLSA-N

>  <name>  (179) 
10-epizonarene

>  <iupac_name>  (179) 
(1~{R},8~{a}~{S})-4-isopropyl-1,6-dimethyl-1,2,3,7,8,8~{a}-hexahydronaphthalene

>  <annotation_level>  (179) 
5

>  <total_atom_count>  (179) 
39

>  <heavy_atom_count>  (179) 
15

>  <molecular_weight>  (179) 
204.36

>  <exact_molecular_weight>  (179) 
204.1878

>  <molecular_formula>  (179) 
C15H24

>  <alogp>  (179) 
4.73

>  <topological_polar_surface_area>  (179) 
0.00

>  <rotatable_bond_count>  (179) 
1

>  <hydrogen_bond_acceptors>  (179) 
0

>  <hydrogen_bond_donors>  (179) 
0

>  <hydrogen_bond_acceptors_lipinski>  (179) 
0

>  <hydrogen_bond_donors_lipinski>  (179) 
0

>  <lipinski_rule_of_five_violations>  (179) 
0

>  <aromatic_rings_count>  (179) 
0

>  <qed_drug_likeliness>  (179) 
0.58

>  <formal_charge>  (179) 
0

>  <fractioncsp3>  (179) 
0.73

>  <number_of_minimal_rings>  (179) 
2

>  <van_der_walls_volume>  (179) 
225.98

>  <contains_sugar>  (179) 
False

>  <contains_ring_sugars>  (179) 
False

>  <contains_linear_sugars>  (179) 
False

>  <murcko_framework>  (179) 
C1=CCCC2C1=CCCC2

>  <np_likeness>  (179) 
2.51

>  <chemical_class>  (179) 
Prenol lipids

>  <chemical_sub_class>  (179) 
Sesquiterpenoids

>  <chemical_super_class>  (179) 
Lipids and lipid-like molecules

>  <direct_parent_classification>  (179) 
Sesquiterpenoids

>  <np_classifier_pathway>  (179) 
Terpenoids

>  <np_classifier_superclass>  (179) 
Sesquiterpenoids

>  <np_classifier_class>  (179) 
Cadinane sesquiterpenoids

>  <np_classifier_is_glycoside>  (179) 
False

>  <organisms>  (179) 
Acca sellowiana|Araucaria araucana|Araucaria bidwillii|Araucaria heterophylla|Athanasia linifolia|Cedrela fissilis|Cinnamomum camphora|Crataegus pinnatifida|Juniperus communis|Macadamia integrifolia|Piper nigrum|Tanacetum longifolium|Zingiber officinale|basil

>  <collections>  (179) 
Australian natural products|CMAUP (cCollective molecular activities of useful plants)|FooDB|KNApSaCK|Latin America dataset|NPASS|NuBBEDB|Super Natural II|WikiData Natural Products|ZINC NP

>  <dois>  (179) 
10.1002/(SICI)1099-1565(200003/04)11:2<99::AID-PCA494>3.0.CO;2-9|10.1002/(sici)1099-1565(200003/04)11:2<99::aid-pca494>3.0.co;2-9|10.1016/J.INDCROP.2017.12.016|10.1016/S0031-9422(02)00396-5|10.1021/JO040272A|10.1021/NP030475E|10.1080/10575630108041259|10.1590/S0103-50532000000600012|10.3390/MOLECULES24112053|10.3390/MOLECULES24234244|10.3891/ACTA.CHEM.SCAND.15-0961

>  <synonyms>  (179) 
(+)-epizonarene|(1R,8aS)-1,6-dimethyl-4-propan-2-yl-1,2,3,7,8,8a-hexahydronaphthalene|10-Epizonarene|41702-63-0|CHEBI:156226|Epizonarene

>  <cas>  (179) 
41702-63-0

$$$$

     RDKit          2D

 15 16  0  0  0  0  0  0  0  0999 V2000
    4.9065    0.5308    0.0000 C   0  0  0  0  0  0  0  0  0  0  0  0
    3.5052   -0.0044    0.0000 C   0  0  0  0  0  0  0  0  0  0  0  0
    3.2680   -1.4855    0.0000 C   0  0  0  0  0  0  0  0  0  0  0  0
    2.3411    0.9416    0.0000 C   0  0  0  0  0  0  0  0  0  0  0  0
    0.9398    0.4065    0.0000 C   0  0  0  0  0  0  0  0  0  0  0  0
    0.7026   -1.0746    0.0000 N   0  0  0  0  0  0  0  0  0  0  0  0
   -0.6987   -1.6098    0.0000 C   0  0  0  0  0  0  0  0  0  0  0  0
   -0.9359   -3.0909    0.0000 O   0  0  0  0  0  0  0  0  0  0  0  0
   -1.8628   -0.6638    0.0000 C   0  0  0  0  0  0  0  0  0  0  0  0
   -3.3447   -0.8959    0.0000 C   0  0  0  0  0  0  0  0  0  0  0  0
   -4.0234    0.4418    0.0000 C   0  0  0  0  0  0  0  0  0  0  0  0
   -2.9609    1.5006    0.0000 C   0  0  0  0  0  0  0  0  0  0  0  0
   -1.6256    0.8174    0.0000 N   0  0  0  0  0  0  0  0  0  0  0  0
   -0.2243    1.3525    0.0000 C   0  0  0  0  0  0  0  0  0  0  0  0
    0.0129    2.8336    0.0000 O   0  0  0  0  0  0  0  0  0  0  0  0
  1  2  1  0
  2  3  1  0
  2  4  1  0
  5  4  1  6
  5  6  1  0
  6  7  1  0
  7  8  2  0
  7  9  1  0
  9 10  1  6
 10 11  1  0
 11 12  1  0
 12 13  1  0
 13 14  1  0
 14 15  2  0
 14  5  1  0
 13  9  1  0
M  END
>  <identifier>  (180) 
CNP0219683.1

>  <canonical_smiles>  (180) 
CC(C)C[C@@H]1NC(=O)[C@@H]2CCCN2C1=O

>  <standard_inchi>  (180) 
InChI=1S/C11H18N2O2/c1-7(2)6-8-11(15)13-5-3-4-9(13)10(14)12-8/h7-9H,3-6H2,1-2H3,(H,12,14)/t8-,9-/m0/s1

>  <standard_inchi_key>  (180) 
SZJNCZMRZAUNQT-IUCAKERBSA-N

>  <name>  (180) 
2873-36-1

>  <iupac_name>  (180) 
(3~{S},8~{a}~{S})-3-isobutyl-2,3,6,7,8,8~{a}-hexahydropyrrolo[1,2-a]pyrazine-1,4-dione

>  <annotation_level>  (180) 
5

>  <total_atom_count>  (180) 
33

>  <heavy_atom_count>  (180) 
15

>  <molecular_weight>  (180) 
210.28

>  <exact_molecular_weight>  (180) 
210.13683

>  <molecular_formula>  (180) 
C11H18N2O2

>  <alogp>  (180) 
0.52

>  <topological_polar_surface_area>  (180) 
49.41

>  <rotatable_bond_count>  (180) 
2

>  <hydrogen_bond_acceptors>  (180) 
2

>  <hydrogen_bond_donors>  (180) 
1

>  <hydrogen_bond_acceptors_lipinski>  (180) 
2

>  <hydrogen_bond_donors_lipinski>  (180) 
1

>  <lipinski_rule_of_five_violations>  (180) 
0

>  <aromatic_rings_count>  (180) 
0

>  <qed_drug_likeliness>  (180) 
0.72

>  <formal_charge>  (180) 
0

>  <fractioncsp3>  (180) 
0.82

>  <number_of_minimal_rings>  (180) 
2

>  <van_der_walls_volume>  (180) 
204.95

>  <contains_sugar>  (180) 
False

>  <contains_ring_sugars>  (180) 
False

>  <contains_linear_sugars>  (180) 
False

>  <murcko_framework>  (180) 
N1CCN2CCCC2C1

>  <np_likeness>  (180) 
1.04

>  <chemical_class>  (180) 
Carboxylic acids and derivatives

>  <chemical_sub_class>  (180) 
Amino acids, peptides, and analogues

>  <chemical_super_class>  (180) 
Organic acids and derivatives

>  <direct_parent_classification>  (180) 
Alpha amino acids

>  <np_classifier_pathway>  (180) 
Amino acids and Peptides

>  <np_classifier_superclass>  (180) 
Small peptides

>  <np_classifier_class>  (180) 
Dipeptides

>  <np_classifier_is_glycoside>  (180) 
False

>  <organisms>  (180) 
Achromobacter xylosoxidans|Aspergillus flavipes|Aspergillus fumigatus|Bacillus amyloliquefaciens|Bacillus cereus|Bacillus litoralis|Bacillus subtilis|Blumea riparia|Epichloe typhina|Geodia japonica|Grosmannia clavigera|Halobacillus litoralis|Hypomyces aurantius|Macrocystidia cucumis|Morinda citrifolia|Penicillium cluniae|Peroneutypa scoparia|Portulaca oleracea|Pseudomonas aeruginosa|Pseudomonas syringae|Rhaphisia pallida|Rhaphoxya pallida|Sedum sarmentosum|Streptomyces|Streptomyces AAK-84|Streptomyces KH614|Streptomyces M10946|Streptomyces No. AAK-84|Streptomyces SUK 25|Streptomyces TN262|Streptomyces antibiotic H41-55|Streptomyces blastmyceticus|Streptomyces blastmyceticus strain 12-6|Streptomyces chrestomyceticus strain ADP4|Streptomyces fungicidicus|Streptomyces gougerotii GT|Streptomyces malaysiense|Streptomyces nigra 452T|Streptomyces olivaceus SCSIO T05|Streptomyces prvulus Dosmb-D105|Streptomyces scabrisporus|Streptomyces sp. (USC-16018)|Streptomyces sp. CB-75|Streptomyces sp. DST119|Streptomyces sp. Did-27|Streptomyces sp. G248|Streptomyces sp. MUM273b|Streptomyces sp. PNM-161a|Streptomyces sp. Q24|Streptomyces sp. SUK10|Streptomyces sp. UTMC 1334|Streptomyces sp.S2A|Streptomyces xiamenensis|Streptomyces xiamenensis MCCC 1A01570|Trichoderma koningii|Ulva australis|Ulva pertusa|Verruculina enalia|unidentified bacterium

>  <collections>  (180) 
ANPDB|Australian natural products|CMNPD|ChEBI NPs|ChemSpider NPs|EMNPD|KNApSaCK|Latin America dataset|NANPDB (Natural Products from Northern African Sources)|NuBBEDB|StreptomeDB|Super Natural II|WikiData Natural Products

>  <dois>  (180) 
10.1002/(SICI)1099-0690(199801)1998:1<73::AID-EJOC73>3.0.CO;2-F|10.1002/cbdv.201100349|10.1002/mbo3.859|10.1002/rcm.3526|10.1007/S10600-009-9270-9|10.1007/S10600-010-9760-9|10.1007/S12010-009-8808-4|10.1007/s10482-015-0492-5|10.1007/s11033-018-4424-0|10.1007/s12010-009-8808-4|10.1007/s12088-008-0052-z|10.1016/J.BMCL.2011.05.002|10.1016/J.BMCL.2015.06.010|10.1016/J.RESMIC.2014.03.004|10.1016/J.TET.2008.03.016|10.1016/S0031-9422(01)00470-8|10.1016/S0040-4039(02)01458-2|10.1016/j.bmcl.2015.06.010|10.1021/JF0530998|10.1021/NP0100789|10.1021/NP020173X|10.1021/NP50106A005|10.1021/NP9600917|10.1021/NP960095B|10.1038/S41429-019-0201-0|10.1038/s41429-019-0201-0|10.1038/srep24247|10.1039/b415080p|10.1055/s-0042-112998|10.1080/10286020.2017.1349758|10.1080/12298093.2019.1635425|10.1080/13693780802307720|10.1080/14786419.2016.1253079|10.1080/14786419.2018.1508148|10.1111/jam.14043|10.1128/AEM.70.12.7466-7473.2004|10.1139/V86-149|10.1186/s12934-018-0912-0|10.1248/CPB.42.2612|10.1248/CPB.43.1035|10.1248/CPB.43.1663|10.1248/CPB.55.435|10.1271/BBB.69.1515|10.1556/030.63.2016.1.2|10.1590/S0103-50532005000800026|10.2147/DDDT.S121283|10.2174/1568026618666180711154110|10.3389/fmicb.2017.02704|10.3389/fmicb.2018.01587|10.3390/MD16060189|10.3390/MOLECULES21091116|10.3390/md16060189|10.3390/md17080442|10.3390/md17090529|10.3390/microorganisms6030072|10.3390/molecules21091116|10.4014/JMB.1608.08032|10.4014/jmb.1608.08032|10.5582/DDT.2013.V7.6.243|10.5582/ddt.2013.v7.6.243

>  <synonyms>  (180) 
(3S,8AS)-3-(2-METHYLPROPYL)-HEXAHYDROPYRROLO[1,2-A]PYRAZINE-1,4-DIONE|(3S,8aS)-3-(2-methylpropyl)-2,3,6,7,8,8a-hexahydropyrrolo[1,2-a]pyrazine-1,4-dione|(3S,8aS)-3-Isobutylhexahydropyrrolo[1,2-a]pyrazine-1,4-dione|(3S,8aS)-3-isobutyl-2,3,6,7,8,8a-hexahydropyrrolo[1,2-a]pyrazine-1,4-dione|AKOS024463311|AS-40794|Aspergillus diketopiperazine 9|BDBM163709|CHEBI:133094|CHEMBL508326|CS-0065365|Cyclo L-Pro-L-Leu (Fr. 1-6)|Cyclo(-L-Leu-L-Pro)|Cyclo(-Leu-Pro)|Cyclo(L-Pro-L-Leu)|Cyclo(L-leucyl-L-prolyl)|Cyclo(L-prolyl-L-leucyl)|Cyclo-L-leu-L-pro|DTXSID80951384|EN300-28258032|Gancidin W|HY-P1939|J-017224|KQV8MY059B|L,L-Cyclo(leucylprolyl)|L-Leucyl-L-proline lactam|L-cyclo(Leu-pro)|L-cyclo(Leucyloprolyl)|MFCD00237617|Maculosin 6|NS00049404|No Data|Pyrrolo[1,2-a]pyrazine-1,4-dione, hexahydro-3-(2-methylpropyl)-, (3S,8aS)-|SCHEMBL2037800|SZJNCZMRZAUNQT-IUCAKERBSA-N|cyclo (L)-Pro-(L)-Leu|cyclo(L-leu-L-pro)|cyclo(L-pro-L-leu)|cyclo(Leu-Pro)|cyclo(leucylprolyl)|cyclo[L-Leucyl-L-Prolyl]|rac-(3R,8aR)-3-(2-methylpropyl)-octahydropyrrolo[1,2-a]pyrazine-1,4-dione

>  <cas>  (180) 
2873-36-1

$$$$

     RDKit          2D

 20 20  0  0  0  0  0  0  0  0999 V2000
   -2.7011   -1.9987    0.0000 C   0  0  0  0  0  0  0  0  0  0  0  0
   -1.2074   -1.8613    0.0000 C   0  0  0  0  0  0  0  0  0  0  0  0
   -0.5797   -0.4989    0.0000 C   0  0  0  0  0  0  0  0  0  0  0  0
   -2.0303   -0.1173    0.0000 C   0  0  0  0  0  0  0  0  0  0  0  0
   -2.4250    1.3299    0.0000 O   0  0  0  0  0  0  0  0  0  0  0  0
   -3.8757    1.7115    0.0000 C   0  0  0  0  0  0  0  0  0  0  0  0
   -4.2704    3.1587    0.0000 C   0  0  0  0  0  0  0  0  0  0  0  0
   -4.9315    0.6461    0.0000 O   0  0  0  0  0  0  0  0  0  0  0  0
   -0.4557    0.9959    0.0000 C   0  0  0  0  0  0  0  0  0  0  0  0
    0.9009    1.6360    0.0000 C   0  0  0  0  0  0  0  0  0  0  0  0
    2.1335    0.7812    0.0000 C   0  0  0  0  0  0  0  0  0  0  0  0
    3.4901    1.4212    0.0000 C   0  0  0  0  0  0  0  0  0  0  0  0
    2.8500    2.7778    0.0000 C   0  0  0  0  0  0  0  0  0  0  0  0
    4.1302    0.0647    0.0000 C   0  0  0  0  0  0  0  0  0  0  0  0
    4.8467    2.0613    0.0000 O   0  0  0  0  0  0  0  0  0  0  0  0
    2.0095   -0.7137    0.0000 C   0  0  0  0  0  0  0  0  0  0  0  0
    0.6530   -1.3537    0.0000 C   0  0  0  0  0  0  0  0  0  0  0  0
    0.5290   -2.8486    0.0000 C   0  0  0  0  0  0  0  0  0  0  0  0
    1.7616   -3.7034    0.0000 C   0  0  0  0  0  0  0  0  0  0  0  0
   -0.8276   -3.4887    0.0000 C   0  0  0  0  0  0  0  0  0  0  0  0
  1  2  2  0
  2  3  1  0
  3  4  1  1
  4  5  1  0
  5  6  1  0
  6  7  1  0
  6  8  2  0
  3  9  1  0
  9 10  1  0
 10 11  1  0
 11 12  1  1
 12 13  1  0
 12 14  1  0
 12 15  1  0
 11 16  1  0
 16 17  1  0
 17 18  1  1
 18 19  2  0
 18 20  1  0
 17  3  1  0
M  END
>  <identifier>  (181) 
CNP0131398.1

>  <canonical_smiles>  (181) 
C=C[C@]1(COC(C)=O)CC[C@@H](C(C)(C)O)C[C@H]1C(=C)C

>  <standard_inchi>  (181) 
InChI=1S/C17H28O3/c1-7-17(11-20-13(4)18)9-8-14(16(5,6)19)10-15(17)12(2)3/h7,14-15,19H,1-2,8-11H2,3-6H3/t14-,15+,17-/m1/s1

>  <standard_inchi_key>  (181) 
QODWLPHYAHFAIW-HLLBOEOZSA-N

>  <name>  (181) 
nan

>  <iupac_name>  (181) 
[(1~{R},2~{S},4~{R})-4-(1-hydroxy-1-methyl-ethyl)-2-isopropenyl-1-vinyl-cyclohexyl]methyl acetate

>  <annotation_level>  (181) 
4

>  <total_atom_count>  (181) 
48

>  <heavy_atom_count>  (181) 
20

>  <molecular_weight>  (181) 
280.41

>  <exact_molecular_weight>  (181) 
280.20384

>  <molecular_formula>  (181) 
C17H28O3

>  <alogp>  (181) 
3.49

>  <topological_polar_surface_area>  (181) 
46.53

>  <rotatable_bond_count>  (181) 
5

>  <hydrogen_bond_acceptors>  (181) 
3

>  <hydrogen_bond_donors>  (181) 
1

>  <hydrogen_bond_acceptors_lipinski>  (181) 
3

>  <hydrogen_bond_donors_lipinski>  (181) 
1

>  <lipinski_rule_of_five_violations>  (181) 
0

>  <aromatic_rings_count>  (181) 
0

>  <qed_drug_likeliness>  (181) 
0.62

>  <formal_charge>  (181) 
0

>  <fractioncsp3>  (181) 
0.71

>  <number_of_minimal_rings>  (181) 
1

>  <van_der_walls_volume>  (181) 
nan

>  <contains_sugar>  (181) 
False

>  <contains_ring_sugars>  (181) 
False

>  <contains_linear_sugars>  (181) 
False

>  <murcko_framework>  (181) 
C1CCCCC1

>  <np_likeness>  (181) 
2.31

>  <chemical_class>  (181) 
Prenol lipids

>  <chemical_sub_class>  (181) 
Sesquiterpenoids

>  <chemical_super_class>  (181) 
Lipids and lipid-like molecules

>  <direct_parent_classification>  (181) 
Elemane sesquiterpenoids

>  <np_classifier_pathway>  (181) 
Terpenoids

>  <np_classifier_superclass>  (181) 
Sesquiterpenoids

>  <np_classifier_class>  (181) 
Elemane sesquiterpenoids

>  <np_classifier_is_glycoside>  (181) 
False

>  <organisms>  (181) 
Trichilia claussenii

>  <collections>  (181) 
Latin America dataset|NuBBEDB|WikiData Natural Products|ZINC NP

>  <dois>  (181) 
10.1590/S0103-50532002000300014

>  <synonyms>  (181) 
acetyl 4-Hydroxyelemol

>  <cas>  (181) 
nan

$$$$

     RDKit          2D

 14 15  0  0  0  0  0  0  0  0999 V2000
   -3.8471   -0.4638    0.0000 C   0  0  0  0  0  0  0  0  0  0  0  0
   -2.3475   -0.4277    0.0000 C   0  0  0  0  0  0  0  0  0  0  0  0
   -1.5665   -1.7083    0.0000 O   0  0  0  0  0  0  0  0  0  0  0  0
   -0.0670   -1.6723    0.0000 C   0  0  0  0  0  0  0  0  0  0  0  0
    0.7140   -2.9529    0.0000 O   0  0  0  0  0  0  0  0  0  0  0  0
    0.6516   -0.3556    0.0000 C   0  0  0  0  0  0  0  0  0  0  0  0
    2.1512   -0.3195    0.0000 C   0  0  0  0  0  0  0  0  0  0  0  0
    2.9322   -1.6002    0.0000 O   0  0  0  0  0  0  0  0  0  0  0  0
    2.8697    0.9971    0.0000 C   0  0  0  0  0  0  0  0  0  0  0  0
    2.0887    2.2778    0.0000 C   0  0  0  0  0  0  0  0  0  0  0  0
    0.5891    2.2417    0.0000 C   0  0  0  0  0  0  0  0  0  0  0  0
   -0.1294    0.9250    0.0000 C   0  0  0  0  0  0  0  0  0  0  0  0
   -1.6290    0.8890    0.0000 C   0  0  0  0  0  0  0  0  0  0  0  0
   -2.4100    2.1696    0.0000 O   0  0  0  0  0  0  0  0  0  0  0  0
  2  1  1  6
  2  3  1  0
  3  4  1  0
  4  5  2  0
  4  6  1  0
  6  7  2  0
  7  8  1  0
  7  9  1  0
  9 10  2  0
 10 11  1  0
 11 12  2  0
 12 13  1  0
 13 14  1  6
 13  2  1  0
 12  6  1  0
M  END
>  <identifier>  (182) 
CNP0244185.4

>  <canonical_smiles>  (182) 
C[C@H]1OC(=O)C2=C(O)C=CC=C2[C@H]1O

>  <standard_inchi>  (182) 
InChI=1S/C10H10O4/c1-5-9(12)6-3-2-4-7(11)8(6)10(13)14-5/h2-5,9,11-12H,1H3/t5-,9+/m1/s1

>  <standard_inchi_key>  (182) 
STSOHAOGZMLWFR-ANLVUFKYSA-N

>  <name>  (182) 
cis-4-Hydroxymellein

>  <iupac_name>  (182) 
(3~{R},4~{R})-4,8-dihydroxy-3-methyl-isochroman-1-one

>  <annotation_level>  (182) 
5

>  <total_atom_count>  (182) 
24

>  <heavy_atom_count>  (182) 
14

>  <molecular_weight>  (182) 
194.19

>  <exact_molecular_weight>  (182) 
194.05791

>  <molecular_formula>  (182) 
C10H10O4

>  <alogp>  (182) 
0.98

>  <topological_polar_surface_area>  (182) 
66.76

>  <rotatable_bond_count>  (182) 
0

>  <hydrogen_bond_acceptors>  (182) 
4

>  <hydrogen_bond_donors>  (182) 
2

>  <hydrogen_bond_acceptors_lipinski>  (182) 
4

>  <hydrogen_bond_donors_lipinski>  (182) 
2

>  <lipinski_rule_of_five_violations>  (182) 
0

>  <aromatic_rings_count>  (182) 
1

>  <qed_drug_likeliness>  (182) 
0.60

>  <formal_charge>  (182) 
0

>  <fractioncsp3>  (182) 
0.30

>  <number_of_minimal_rings>  (182) 
2

>  <van_der_walls_volume>  (182) 
167.24

>  <contains_sugar>  (182) 
False

>  <contains_ring_sugars>  (182) 
False

>  <contains_linear_sugars>  (182) 
False

>  <murcko_framework>  (182) 
O1Cc2ccccc2CC1

>  <np_likeness>  (182) 
2.08

>  <chemical_class>  (182) 
Benzopyrans

>  <chemical_sub_class>  (182) 
2-benzopyrans

>  <chemical_super_class>  (182) 
Organoheterocyclic compounds

>  <direct_parent_classification>  (182) 
2-benzopyrans

>  <np_classifier_pathway>  (182) 
Shikimates and Phenylpropanoids

>  <np_classifier_superclass>  (182) 
Coumarins

>  <np_classifier_class>  (182) 
Isocoumarins

>  <np_classifier_is_glycoside>  (182) 
False

>  <organisms>  (182) 
Actinopyga agassizi|Allium neapolitanum|Anthopleura xanthogrammica|Aplidium tabascum|Arcyria denudata|Aspergillus melleus|Aster bellidiastrum|Aster conspicuus|Burkholderia pyrrocinia|Byssothecium obiones|Chromatium okenii|Clitocybula oculus|Coniothyrium|Coniothyrium sp.|Crotalaria ferruginea|Cycas armstrongii|Cycas revoluta|Dasystenella acanthina|Diplodia corticola|Dolomiaea souliei|Emericellopsis minima|Ephedra aphylla|Eucalyptus camaldulensis|Eutreptia viridis|Garcinia mangostana|Gloiopeltis furcata|Halimodendron halodendron|Kleinia tomentosa|Lasiodiplodia theobromae|Leptogorgia sarmentosa|Licaria armeniaca|Lonicera hypoleuca|Mammillaria magnimamma|Melanocarpus albomyces|Microsphaeropsis|Monanchora pulchra|Munronia delavayi|Murrayella periclados|Myelochroa aurulenta|Neonectria candida|Nicotiana sylvestris|Papulaspora immersa|Phonus arborescens|Plectocephalus chilensis|Poria selecta|Prunus serrulata var. spontanea|Quercus suber|Scleronephthya pallida|Senecio vellereus|Senna didymobotrya|Serpocaulon triseriale|Sorocea ilicifolia|Streptomyces alboniger|Streptomyces microflavus|Suillus bovinus|Trametes cinnabarina|Trichilia hirta|Typha domingensis|Wibelia divaricata|Zanthoxylum parviflorum|microsphaeropsis sp.

>  <collections>  (182) 
CMAUP (cCollective molecular activities of useful plants)|EMNPD|NPASS|NuBBEDB|Super Natural II|WikiData Natural Products

>  <dois>  (182) 
10.1002/CBDV.201000011|10.1002/cbdv.201000011|10.1016/J.PHYTOL.2011.10.002|10.1016/J.PHYTOL.2012.11.007|10.1016/J.TET.2009.10.084|10.1021/NP050393L|10.1021/NP980341E|10.1021/np980341e|10.1039/P19840001021

>  <synonyms>  (182) 
(-)-(3R4R)-4-hydroxymellein|(3R,4R)-cis-4-Hydroxymellein|(3R,4R)-hydroxymellein|1H-2-Benzopyran-1-one, 3,4-dihydro-4,8-dihydroxy-3-methyl-, (3R,4R)-|32885-83-9|4-Hydroxymellein, cis-|CHEMBL444818|Isocoumarin, 3,4-dihydro-4,8-dihydroxy-3-methyl-, cis-|Q27294545|UNII-YJ8535DF71|YJ8535DF71|cis-(3R,4R)-4-Hydroxymellein|cis-4-Hydroxymellein, (-)-

>  <cas>  (182) 
32885-83-9

$$$$

     RDKit          2D

 25 27  0  0  0  0  0  0  0  0999 V2000
    2.6648   -3.5299    0.0000 C   0  0  0  0  0  0  0  0  0  0  0  0
    3.7460   -2.4901    0.0000 O   0  0  0  0  0  0  0  0  0  0  0  0
    3.3861   -1.0339    0.0000 C   0  0  0  0  0  0  0  0  0  0  0  0
    1.9450   -0.6175    0.0000 C   0  0  0  0  0  0  0  0  0  0  0  0
    1.5851    0.8386    0.0000 C   0  0  0  0  0  0  0  0  0  0  0  0
    0.1441    1.2550    0.0000 C   0  0  0  0  0  0  0  0  0  0  0  0
   -0.2159    2.7112    0.0000 C   0  0  0  0  0  0  0  0  0  0  0  0
    0.8653    3.7510    0.0000 C   0  0  0  0  0  0  0  0  0  0  0  0
   -1.6569    3.1276    0.0000 C   0  0  0  0  0  0  0  0  0  0  0  0
   -2.0168    4.5838    0.0000 C   0  0  0  0  0  0  0  0  0  0  0  0
   -2.7380    2.0878    0.0000 C   0  0  0  0  0  0  0  0  0  0  0  0
   -4.1791    2.5042    0.0000 O   0  0  0  0  0  0  0  0  0  0  0  0
   -2.3781    0.6316    0.0000 C   0  0  0  0  0  0  0  0  0  0  0  0
   -0.9371    0.2152    0.0000 C   0  0  0  0  0  0  0  0  0  0  0  0
   -0.5772   -1.2409    0.0000 C   0  0  0  0  0  0  0  0  0  0  0  0
   -1.6583   -2.2807    0.0000 C   0  0  0  0  0  0  0  0  0  0  0  0
   -1.6090   -3.7799    0.0000 O   0  0  0  0  0  0  0  0  0  0  0  0
   -3.0196   -4.2901    0.0000 C   0  0  0  0  0  0  0  0  0  0  0  0
   -3.9407   -3.1062    0.0000 O   0  0  0  0  0  0  0  0  0  0  0  0
   -3.0993   -1.8643    0.0000 C   0  0  0  0  0  0  0  0  0  0  0  0
   -3.4593   -0.4082    0.0000 C   0  0  0  0  0  0  0  0  0  0  0  0
    2.6662    1.8784    0.0000 C   0  0  0  0  0  0  0  0  0  0  0  0
    4.1073    1.4620    0.0000 C   0  0  0  0  0  0  0  0  0  0  0  0
    4.4672    0.0058    0.0000 C   0  0  0  0  0  0  0  0  0  0  0  0
    5.9082   -0.4105    0.0000 O   0  0  0  0  0  0  0  0  0  0  0  0
  1  2  1  0
  2  3  1  0
  3  4  2  0
  4  5  1  0
  5  6  1  0
  6  7  1  0
  7  8  1  1
  7  9  1  0
  9 10  1  1
  9 11  1  0
 11 12  2  0
 11 13  1  0
 13 14  2  0
 14 15  1  0
 15 16  2  0
 16 17  1  0
 17 18  1  0
 18 19  1  0
 19 20  1  0
 20 21  2  0
  5 22  2  0
 22 23  1  0
 23 24  2  0
 24 25  1  0
 24  3  1  0
 21 13  1  0
 20 16  1  0
M  END
>  <identifier>  (183) 
CNP0269458.2

>  <canonical_smiles>  (183) 
COC1=CC(C[C@H](C)[C@H](C)C(=O)C2=CC=C3OCOC3=C2)=CC=C1O

>  <standard_inchi>  (183) 
InChI=1S/C20H22O5/c1-12(8-14-4-6-16(21)18(9-14)23-3)13(2)20(22)15-5-7-17-19(10-15)25-11-24-17/h4-7,9-10,12-13,21H,8,11H2,1-3H3/t12-,13-/m0/s1

>  <standard_inchi_key>  (183) 
ZKPRUPNPBRCANP-STQMWFEESA-N

>  <name>  (183) 
(2s,3s)-1-(1,3-benzodioxol-5-yl)-4-(4-hydroxy-3-methoxyphenyl)-2,3-dimethyl-1-butanone

>  <iupac_name>  (183) 
(2~{S},3~{S})-1-(1,3-benzodioxol-5-yl)-4-(4-hydroxy-3-methoxy-phenyl)-2,3-dimethyl-butan-1-one

>  <annotation_level>  (183) 
5

>  <total_atom_count>  (183) 
47

>  <heavy_atom_count>  (183) 
25

>  <molecular_weight>  (183) 
342.39

>  <exact_molecular_weight>  (183) 
342.14672

>  <molecular_formula>  (183) 
C20H22O5

>  <alogp>  (183) 
3.83

>  <topological_polar_surface_area>  (183) 
64.99

>  <rotatable_bond_count>  (183) 
6

>  <hydrogen_bond_acceptors>  (183) 
5

>  <hydrogen_bond_donors>  (183) 
1

>  <hydrogen_bond_acceptors_lipinski>  (183) 
5

>  <hydrogen_bond_donors_lipinski>  (183) 
1

>  <lipinski_rule_of_five_violations>  (183) 
0

>  <aromatic_rings_count>  (183) 
2

>  <qed_drug_likeliness>  (183) 
0.81

>  <formal_charge>  (183) 
0

>  <fractioncsp3>  (183) 
0.35

>  <number_of_minimal_rings>  (183) 
3

>  <van_der_walls_volume>  (183) 
nan

>  <contains_sugar>  (183) 
False

>  <contains_ring_sugars>  (183) 
False

>  <contains_linear_sugars>  (183) 
False

>  <murcko_framework>  (183) 
O1c2ccc(cc2OC1)CCCCc3ccccc3

>  <np_likeness>  (183) 
0.71

>  <chemical_class>  (183) 
Dibenzylbutane lignans

>  <chemical_sub_class>  (183) 
Dibenzylbutane lignans

>  <chemical_super_class>  (183) 
Lignans, neolignans and related compounds

>  <direct_parent_classification>  (183) 
Dibenzylbutane lignans

>  <np_classifier_pathway>  (183) 
Shikimates and Phenylpropanoids

>  <np_classifier_superclass>  (183) 
Lignans

>  <np_classifier_class>  (183) 
Dibenzylbutane lignans

>  <np_classifier_is_glycoside>  (183) 
False

>  <organisms>  (183) 
Nectandra puberula

>  <collections>  (183) 
Latin America dataset|NuBBEDB|WikiData Natural Products|ZINC NP

>  <dois>  (183) 
10.1016/S0031-9422(00)81526-5

>  <synonyms>  (183) 
(8S8R)-4'-Hydroxy-3'-methoxy-34-methylenedioxy-7-oxo-88'-neolignan

>  <cas>  (183) 
nan

$$$$

     RDKit          2D

 17 18  0  0  0  0  0  0  0  0999 V2000
   -4.3909    0.6279    0.0000 C   0  0  0  0  0  0  0  0  0  0  0  0
   -3.6914   -0.6990    0.0000 O   0  0  0  0  0  0  0  0  0  0  0  0
   -2.1925   -0.7567    0.0000 C   0  0  0  0  0  0  0  0  0  0  0  0
   -1.4931   -2.0837    0.0000 C   0  0  0  0  0  0  0  0  0  0  0  0
    0.0058   -2.1414    0.0000 C   0  0  0  0  0  0  0  0  0  0  0  0
    0.7053   -3.4683    0.0000 O   0  0  0  0  0  0  0  0  0  0  0  0
    0.8053   -0.8722    0.0000 C   0  0  0  0  0  0  0  0  0  0  0  0
    2.3042   -0.9299    0.0000 C   0  0  0  0  0  0  0  0  0  0  0  0
    3.0036   -2.2568    0.0000 O   0  0  0  0  0  0  0  0  0  0  0  0
    3.1036    0.3393    0.0000 C   0  0  0  0  0  0  0  0  0  0  0  0
    2.4041    1.6662    0.0000 C   0  0  0  0  0  0  0  0  0  0  0  0
    3.2036    2.9355    0.0000 C   0  0  0  0  0  0  0  0  0  0  0  0
    0.9052    1.7240    0.0000 O   0  0  0  0  0  0  0  0  0  0  0  0
    0.1058    0.4547    0.0000 C   0  0  0  0  0  0  0  0  0  0  0  0
   -1.3931    0.5125    0.0000 C   0  0  0  0  0  0  0  0  0  0  0  0
   -2.0925    1.8394    0.0000 O   0  0  0  0  0  0  0  0  0  0  0  0
   -1.2931    3.1086    0.0000 C   0  0  0  0  0  0  0  0  0  0  0  0
  1  2  1  0
  2  3  1  0
  3  4  2  0
  4  5  1  0
  5  6  1  0
  5  7  2  0
  7  8  1  0
  8  9  2  0
  8 10  1  0
 10 11  2  0
 11 12  1  0
 11 13  1  0
 13 14  1  0
 14 15  2  0
 15 16  1  0
 16 17  1  0
 15  3  1  0
 14  7  1  0
M  END
>  <identifier>  (184) 
CNP0329416.0

>  <canonical_smiles>  (184) 
COC1=CC(O)=C2C(=O)C=C(C)OC2=C1OC

>  <standard_inchi>  (184) 
InChI=1S/C12H12O5/c1-6-4-7(13)10-8(14)5-9(15-2)11(16-3)12(10)17-6/h4-5,14H,1-3H3

>  <standard_inchi_key>  (184) 
ORWCVNGFNATXCY-UHFFFAOYSA-N

>  <name>  (184) 
5-Hydroxy-7,8-dimethoxy-2-methylchromon

>  <iupac_name>  (184) 
5-hydroxy-7,8-dimethoxy-2-methyl-chromen-4-one

>  <annotation_level>  (184) 
5

>  <total_atom_count>  (184) 
29

>  <heavy_atom_count>  (184) 
17

>  <molecular_weight>  (184) 
236.22

>  <exact_molecular_weight>  (184) 
236.06847

>  <molecular_formula>  (184) 
C12H12O5

>  <alogp>  (184) 
1.82

>  <topological_polar_surface_area>  (184) 
68.90

>  <rotatable_bond_count>  (184) 
2

>  <hydrogen_bond_acceptors>  (184) 
5

>  <hydrogen_bond_donors>  (184) 
1

>  <hydrogen_bond_acceptors_lipinski>  (184) 
5

>  <hydrogen_bond_donors_lipinski>  (184) 
1

>  <lipinski_rule_of_five_violations>  (184) 
0

>  <aromatic_rings_count>  (184) 
2

>  <qed_drug_likeliness>  (184) 
0.86

>  <formal_charge>  (184) 
0

>  <fractioncsp3>  (184) 
0.25

>  <number_of_minimal_rings>  (184) 
2

>  <van_der_walls_volume>  (184) 
nan

>  <contains_sugar>  (184) 
False

>  <contains_ring_sugars>  (184) 
False

>  <contains_linear_sugars>  (184) 
False

>  <murcko_framework>  (184) 
O1C=CCc2ccccc12

>  <np_likeness>  (184) 
1.58

>  <chemical_class>  (184) 
Benzopyrans

>  <chemical_sub_class>  (184) 
1-benzopyrans

>  <chemical_super_class>  (184) 
Organoheterocyclic compounds

>  <direct_parent_classification>  (184) 
Chromones

>  <np_classifier_pathway>  (184) 
Polyketides

>  <np_classifier_superclass>  (184) 
Chromanes

>  <np_classifier_class>  (184) 
Chromones

>  <np_classifier_is_glycoside>  (184) 
False

>  <organisms>  (184) 
Swartzia laevicarpa

>  <collections>  (184) 
Latin America dataset|NuBBEDB|Super Natural II|UNPD (Universal Natural Products Database)|WikiData Natural Products|ZINC NP

>  <dois>  (184) 
10.1016/0031-9422(80)83022-6

>  <synonyms>  (184) 
5-Hydroxy-78-dimethoxy-2-methylchromone

>  <cas>  (184) 
nan

$$$$

     RDKit          2D

 35 38  0  0  0  0  0  0  0  0999 V2000
    4.2227    2.8474    0.0000 C   0  0  0  0  0  0  0  0  0  0  0  0
    3.1580    1.7907    0.0000 C   0  0  0  0  0  0  0  0  0  0  0  0
    3.5408    0.3404    0.0000 C   0  0  0  0  0  0  0  0  0  0  0  0
    2.4762   -0.7163    0.0000 O   0  0  0  0  0  0  0  0  0  0  0  0
    4.9882   -0.0533    0.0000 C   0  0  0  0  0  0  0  0  0  0  0  0
    6.0529    1.0033    0.0000 O   0  0  0  0  0  0  0  0  0  0  0  0
    5.3710   -1.5037    0.0000 C   0  0  0  0  0  0  0  0  0  0  0  0
    4.3064   -2.5603    0.0000 O   0  0  0  0  0  0  0  0  0  0  0  0
    6.8184   -1.8973    0.0000 C   0  0  0  0  0  0  0  0  0  0  0  0
    7.2121   -0.4499    0.0000 C   0  0  0  0  0  0  0  0  0  0  0  0
    6.4247   -3.3448    0.0000 C   0  0  0  0  0  0  0  0  0  0  0  0
    8.2658   -2.2910    0.0000 O   0  0  0  0  0  0  0  0  0  0  0  0
    1.7106    2.1844    0.0000 C   0  0  0  0  0  0  0  0  0  0  0  0
    1.1783    3.5868    0.0000 C   0  0  0  0  0  0  0  0  0  0  0  0
   -0.3199    3.5139    0.0000 C   0  0  0  0  0  0  0  0  0  0  0  0
   -0.7136    2.0665    0.0000 C   0  0  0  0  0  0  0  0  0  0  0  0
   -1.8757    3.0148    0.0000 C   0  0  0  0  0  0  0  0  0  0  0  0
   -2.0526    1.3905    0.0000 C   0  0  0  0  0  0  0  0  0  0  0  0
   -3.3075    2.2122    0.0000 C   0  0  0  0  0  0  0  0  0  0  0  0
   -4.6466    1.5363    0.0000 C   0  0  0  0  0  0  0  0  0  0  0  0
   -4.7308    0.0386    0.0000 C   0  0  0  0  0  0  0  0  0  0  0  0
   -6.0698   -0.6373    0.0000 C   0  0  0  0  0  0  0  0  0  0  0  0
   -7.5593   -0.8145    0.0000 C   0  0  0  0  0  0  0  0  0  0  0  0
   -6.5030    0.7988    0.0000 C   0  0  0  0  0  0  0  0  0  0  0  0
   -6.1540   -2.1350    0.0000 C   0  0  0  0  0  0  0  0  0  0  0  0
   -7.4930   -2.8109    0.0000 O   0  0  0  0  0  0  0  0  0  0  0  0
   -4.8990   -2.9566    0.0000 C   0  0  0  0  0  0  0  0  0  0  0  0
   -3.5600   -2.2807    0.0000 C   0  0  0  0  0  0  0  0  0  0  0  0
   -3.4758   -0.7831    0.0000 C   0  0  0  0  0  0  0  0  0  0  0  0
   -2.2209   -1.6047    0.0000 C   0  0  0  0  0  0  0  0  0  0  0  0
   -2.1368   -0.1071    0.0000 C   0  0  0  0  0  0  0  0  0  0  0  0
   -0.8818   -0.9288    0.0000 C   0  0  0  0  0  0  0  0  0  0  0  0
    0.4572   -0.2528    0.0000 C   0  0  0  0  0  0  0  0  0  0  0  0
    0.5414    1.2448    0.0000 C   0  0  0  0  0  0  0  0  0  0  0  0
    1.8753    0.5588    0.0000 C   0  0  0  0  0  0  0  0  0  0  0  0
  2  1  1  1
  2  3  1  0
  3  4  1  0
  3  5  1  0
  5  6  1  0
  5  7  1  0
  7  8  1  0
  7  9  1  0
  9 10  1  0
  9 11  1  0
  9 12  1  0
  2 13  1  0
 13 14  1  1
 14 15  1  0
 15 16  1  0
 16 17  1  6
 16 18  1  0
 18 19  2  0
 19 20  1  0
 21 20  1  6
 21 22  1  0
 22 23  1  0
 22 24  1  0
 22 25  1  0
 25 26  1  1
 25 27  1  0
 27 28  1  0
 28 29  1  0
 29 30  1  6
 29 31  1  0
 31 32  1  6
 32 33  1  0
 33 34  1  0
 34 35  1  1
 34 13  1  0
 34 16  1  0
 31 18  1  0
 29 21  1  0
M  END
>  <identifier>  (185) 
CNP0302667.1

>  <canonical_smiles>  (185) 
C[C@@H](C(O)C(O)C(O)C(C)(C)O)[C@@H]1CC[C@]2(C)C3=CC[C@H]4C(C)(C)[C@H](O)CC[C@]4(C)[C@H]3CC[C@@]12C

>  <standard_inchi>  (185) 
InChI=1S/C30H52O5/c1-17(23(32)24(33)25(34)27(4,5)35)18-11-15-30(8)20-9-10-21-26(2,3)22(31)13-14-28(21,6)19(20)12-16-29(18,30)7/h9,17-19,21-25,31-35H,10-16H2,1-8H3/t17-,18+,19+,21+,22-,23?,24?,25?,28-,29+,30-/m1/s1

>  <standard_inchi_key>  (185) 
LHDJQZOTZGFAIP-SRPYFFJNSA-N

>  <name>  (185) 
nan

>  <iupac_name>  (185) 
(6~{R})-6-[(3~{R},5~{R},9~{R},10~{R},13~{S},14~{S},17~{S})-3-hydroxy-4,4,10,13,14-pentamethyl-2,3,5,6,9,11,12,15,16,17-decahydro-1~{H}-cyclopenta[a]phenanthren-17-yl]-2-methyl-heptane-2,3,4,5-tetrol

>  <annotation_level>  (185) 
4

>  <total_atom_count>  (185) 
87

>  <heavy_atom_count>  (185) 
35

>  <molecular_weight>  (185) 
492.74

>  <exact_molecular_weight>  (185) 
492.38147

>  <molecular_formula>  (185) 
C30H52O5

>  <alogp>  (185) 
4.44

>  <topological_polar_surface_area>  (185) 
101.15

>  <rotatable_bond_count>  (185) 
5

>  <hydrogen_bond_acceptors>  (185) 
5

>  <hydrogen_bond_donors>  (185) 
5

>  <hydrogen_bond_acceptors_lipinski>  (185) 
5

>  <hydrogen_bond_donors_lipinski>  (185) 
5

>  <lipinski_rule_of_five_violations>  (185) 
0

>  <aromatic_rings_count>  (185) 
0

>  <qed_drug_likeliness>  (185) 
0.37

>  <formal_charge>  (185) 
0

>  <fractioncsp3>  (185) 
0.93

>  <number_of_minimal_rings>  (185) 
4

>  <van_der_walls_volume>  (185) 
nan

>  <contains_sugar>  (185) 
True

>  <contains_ring_sugars>  (185) 
False

>  <contains_linear_sugars>  (185) 
True

>  <murcko_framework>  (185) 
C1=C2C3CCCC3CCC2C4CCCCC4C1

>  <np_likeness>  (185) 
3.20

>  <chemical_class>  (185) 
Steroids and steroid derivatives

>  <chemical_sub_class>  (185) 
Hydroxysteroids

>  <chemical_super_class>  (185) 
Lipids and lipid-like molecules

>  <direct_parent_classification>  (185) 
3-hydroxysteroids

>  <np_classifier_pathway>  (185) 
Terpenoids

>  <np_classifier_superclass>  (185) 
Triterpenoids

>  <np_classifier_class>  (185) 
Lanostane, Tirucallane and Euphane triterpenoids

>  <np_classifier_is_glycoside>  (185) 
False

>  <organisms>  (185) 
Cedrela fissilis

>  <collections>  (185) 
Latin America dataset|NuBBEDB|WikiData Natural Products

>  <dois>  (185) 
10.1055/S-0028-1088323|10.1055/s-0028-1088323

>  <synonyms>  (185) 
Pentaol

>  <cas>  (185) 
nan

$$$$

     RDKit          2D

 46 50  0  0  0  0  0  0  0  0999 V2000
    8.1065   -3.3270    0.0000 C   0  0  0  0  0  0  0  0  0  0  0  0
    7.4204   -1.9931    0.0000 O   0  0  0  0  0  0  0  0  0  0  0  0
    5.9222   -1.9203    0.0000 C   0  0  0  0  0  0  0  0  0  0  0  0
    5.1100   -3.1814    0.0000 O   0  0  0  0  0  0  0  0  0  0  0  0
    5.2361   -0.5864    0.0000 C   0  0  0  0  0  0  0  0  0  0  0  0
    6.7343   -0.6592    0.0000 C   0  0  0  0  0  0  0  0  0  0  0  0
    7.5465    0.6019    0.0000 C   0  0  0  0  0  0  0  0  0  0  0  0
    6.8604    1.9358    0.0000 C   0  0  0  0  0  0  0  0  0  0  0  0
    6.6719    3.4239    0.0000 C   0  0  0  0  0  0  0  0  0  0  0  0
    8.2932    2.3798    0.0000 C   0  0  0  0  0  0  0  0  0  0  0  0
    5.3622    2.0086    0.0000 C   0  0  0  0  0  0  0  0  0  0  0  0
    4.6761    3.3425    0.0000 O   0  0  0  0  0  0  0  0  0  0  0  0
    4.5500    0.7475    0.0000 C   0  0  0  0  0  0  0  0  0  0  0  0
    3.0518    0.8203    0.0000 C   0  0  0  0  0  0  0  0  0  0  0  0
    2.3657    2.1542    0.0000 C   0  0  0  0  0  0  0  0  0  0  0  0
    0.8675    2.2270    0.0000 C   0  0  0  0  0  0  0  0  0  0  0  0
    0.0553    0.9659    0.0000 C   0  0  0  0  0  0  0  0  0  0  0  0
   -1.4429    1.0387    0.0000 C   0  0  0  0  0  0  0  0  0  0  0  0
   -0.6308    2.2998    0.0000 C   0  0  0  0  0  0  0  0  0  0  0  0
   -2.1290    2.3726    0.0000 C   0  0  0  0  0  0  0  0  0  0  0  0
   -3.6272    2.4454    0.0000 C   0  0  0  0  0  0  0  0  0  0  0  0
   -4.4394    1.1842    0.0000 C   0  0  0  0  0  0  0  0  0  0  0  0
   -5.9376    1.2570    0.0000 O   0  0  0  0  0  0  0  0  0  0  0  0
   -6.6237    2.5910    0.0000 C   0  0  0  0  0  0  0  0  0  0  0  0
   -8.1219    2.6637    0.0000 C   0  0  0  0  0  0  0  0  0  0  0  0
   -5.8115    3.8521    0.0000 O   0  0  0  0  0  0  0  0  0  0  0  0
   -3.7533   -0.1497    0.0000 C   0  0  0  0  0  0  0  0  0  0  0  0
   -3.5648   -1.6378    0.0000 C   0  0  0  0  0  0  0  0  0  0  0  0
   -4.7593   -2.5450    0.0000 O   0  0  0  0  0  0  0  0  0  0  0  0
   -4.5709   -4.0332    0.0000 C   0  0  0  0  0  0  0  0  0  0  0  0
   -5.7654   -4.9404    0.0000 C   0  0  0  0  0  0  0  0  0  0  0  0
   -3.1879   -4.6140    0.0000 O   0  0  0  0  0  0  0  0  0  0  0  0
   -5.1861   -0.5937    0.0000 C   0  0  0  0  0  0  0  0  0  0  0  0
   -6.2870    0.4251    0.0000 O   0  0  0  0  0  0  0  0  0  0  0  0
   -7.7198   -0.0189    0.0000 C   0  0  0  0  0  0  0  0  0  0  0  0
   -8.8207    0.9999    0.0000 C   0  0  0  0  0  0  0  0  0  0  0  0
   -8.0516   -1.4817    0.0000 O   0  0  0  0  0  0  0  0  0  0  0  0
   -2.2551   -0.2225    0.0000 C   0  0  0  0  0  0  0  0  0  0  0  0
   -1.5690   -1.5564    0.0000 C   0  0  0  0  0  0  0  0  0  0  0  0
   -0.0708   -1.6292    0.0000 C   0  0  0  0  0  0  0  0  0  0  0  0
    0.7414   -0.3680    0.0000 C   0  0  0  0  0  0  0  0  0  0  0  0
    1.4275   -1.7019    0.0000 C   0  0  0  0  0  0  0  0  0  0  0  0
    2.2396   -0.4408    0.0000 C   0  0  0  0  0  0  0  0  0  0  0  0
    3.7378   -0.5136    0.0000 C   0  0  0  0  0  0  0  0  0  0  0  0
    2.9257   -1.7747    0.0000 C   0  0  0  0  0  0  0  0  0  0  0  0
    4.4239   -1.8475    0.0000 C   0  0  0  0  0  0  0  0  0  0  0  0
  1  2  1  0
  2  3  1  0
  3  4  2  0
  5  3  1  1
  5  6  1  0
  6  7  1  0
  7  8  1  0
  8  9  1  0
  8 10  1  0
  8 11  1  0
 11 12  1  6
 11 13  1  0
 13 14  1  6
 14 15  2  0
 15 16  1  0
 17 16  1  1
 17 18  1  0
 18 19  1  1
 18 20  1  0
 20 21  1  0
 21 22  1  0
 22 23  1  1
 23 24  1  0
 24 25  1  0
 24 26  2  0
 22 27  1  0
 27 28  1  0
 28 29  1  0
 29 30  1  0
 30 31  1  0
 30 32  2  0
 27 33  1  0
 33 34  1  0
 34 35  1  0
 35 36  1  0
 35 37  2  0
 27 38  1  0
 38 39  1  1
 39 40  1  0
 40 41  1  0
 41 42  1  1
 41 43  1  0
 43 44  1  6
 43 45  1  0
 45 46  1  0
 13  5  1  0
 43 14  1  0
 46  5  1  0
 41 17  1  0
 38 18  1  0
M  END
>  <identifier>  (186) 
CNP0102899.1

>  <canonical_smiles>  (186) 
COC(=O)[C@]12CCC(C)(C)[C@@H](O)[C@H]1C1=CC[C@@H]3[C@@]4(C)CC[C@H](OC(C)=O)C(COC(C)=O)(COC(C)=O)[C@@H]4CC[C@@]3(C)[C@]1(C)CC2

>  <standard_inchi>  (186) 
InChI=1S/C37H56O9/c1-22(38)44-20-37(21-45-23(2)39)27-12-15-35(8)26(33(27,6)14-13-28(37)46-24(3)40)11-10-25-29-30(41)32(4,5)16-18-36(29,31(42)43-9)19-17-34(25,35)7/h10,26-30,41H,11-21H2,1-9H3/t26-,27-,28+,29-,30+,33-,34-,35-,36+/m1/s1

>  <standard_inchi_key>  (186) 
AUMCXKMAZWGNEN-KGWFECLTSA-N

>  <name>  (186) 
nan

>  <iupac_name>  (186) 
methyl (1~{S},4~{a}~{R},6~{a}~{R},6~{a}~{S},6~{b}~{R},8~{a}~{R},10~{S},12~{a}~{R},14~{b}~{S})-10-acetoxy-9,9-bis(acetoxymethyl)-1-hydroxy-2,2,6~{a},6~{b},12~{a}-pentamethyl-1,3,4,5,6,6~{a},7,8,8~{a},10,11,12,13,14~{b}-tetradecahydropicene-4~{a}-carboxylate

>  <annotation_level>  (186) 
5

>  <total_atom_count>  (186) 
102

>  <heavy_atom_count>  (186) 
46

>  <molecular_weight>  (186) 
644.85

>  <exact_molecular_weight>  (186) 
644.39243

>  <molecular_formula>  (186) 
C37H56O9

>  <alogp>  (186) 
5.95

>  <topological_polar_surface_area>  (186) 
125.43

>  <rotatable_bond_count>  (186) 
6

>  <hydrogen_bond_acceptors>  (186) 
9

>  <hydrogen_bond_donors>  (186) 
1

>  <hydrogen_bond_acceptors_lipinski>  (186) 
9

>  <hydrogen_bond_donors_lipinski>  (186) 
1

>  <lipinski_rule_of_five_violations>  (186) 
2

>  <aromatic_rings_count>  (186) 
0

>  <qed_drug_likeliness>  (186) 
0.21

>  <formal_charge>  (186) 
0

>  <fractioncsp3>  (186) 
0.84

>  <number_of_minimal_rings>  (186) 
5

>  <van_der_walls_volume>  (186) 
609.42

>  <contains_sugar>  (186) 
False

>  <contains_ring_sugars>  (186) 
False

>  <contains_linear_sugars>  (186) 
False

>  <murcko_framework>  (186) 
C1=C2C3CCCCC3CCC2C4CCC5CCCCC5C4C1

>  <np_likeness>  (186) 
2.73

>  <chemical_class>  (186) 
Prenol lipids

>  <chemical_sub_class>  (186) 
Triterpenoids

>  <chemical_super_class>  (186) 
Lipids and lipid-like molecules

>  <direct_parent_classification>  (186) 
Triterpenoids

>  <np_classifier_pathway>  (186) 
Terpenoids

>  <np_classifier_superclass>  (186) 
Triterpenoids

>  <np_classifier_class>  (186) 
Oleanane triterpenoids

>  <np_classifier_is_glycoside>  (186) 
False

>  <organisms>  (186) 
Alibertia edulis

>  <collections>  (186) 
ChemSpider NPs|Latin America dataset|NuBBEDB|Super Natural II|WikiData Natural Products

>  <dois>  (186) 
10.1016/S0031-9422(00)89654-5

>  <synonyms>  (186) 
3\u221a\u00e9\u00ac\u226419\u221a\u00e9\u00ac\u00b12324-tetrahydroxy-12-oleanen-28-oic acid

>  <cas>  (186) 
nan

$$$$

     RDKit          2D

 16 17  0  0  0  0  0  0  0  0999 V2000
   -5.4051    0.0027    0.0000 C   0  0  0  0  0  0  0  0  0  0  0  0
   -3.9220    0.2273    0.0000 C   0  0  0  0  0  0  0  0  0  0  0  0
   -3.3749    1.6240    0.0000 O   0  0  0  0  0  0  0  0  0  0  0  0
   -2.9860   -0.9448    0.0000 C   0  0  0  0  0  0  0  0  0  0  0  0
   -1.5029   -0.7203    0.0000 C   0  0  0  0  0  0  0  0  0  0  0  0
   -0.5668   -1.8924    0.0000 C   0  0  0  0  0  0  0  0  0  0  0  0
    0.9163   -1.6678    0.0000 C   0  0  0  0  0  0  0  0  0  0  0  0
    1.8523   -2.8399    0.0000 O   0  0  0  0  0  0  0  0  0  0  0  0
    1.4633   -0.2711    0.0000 C   0  0  0  0  0  0  0  0  0  0  0  0
    2.9464   -0.0465    0.0000 C   0  0  0  0  0  0  0  0  0  0  0  0
    3.8825   -1.2187    0.0000 O   0  0  0  0  0  0  0  0  0  0  0  0
    3.4935    1.3501    0.0000 C   0  0  0  0  0  0  0  0  0  0  0  0
    2.5575    2.5222    0.0000 C   0  0  0  0  0  0  0  0  0  0  0  0
    1.0744    2.2977    0.0000 C   0  0  0  0  0  0  0  0  0  0  0  0
    0.5273    0.9010    0.0000 C   0  0  0  0  0  0  0  0  0  0  0  0
   -0.9558    0.6764    0.0000 O   0  0  0  0  0  0  0  0  0  0  0  0
  2  1  1  1
  2  3  1  0
  2  4  1  0
  4  5  1  0
  5  6  2  0
  6  7  1  0
  7  8  2  0
  7  9  1  0
  9 10  2  0
 10 11  1  0
 10 12  1  0
 12 13  2  0
 13 14  1  0
 14 15  2  0
 15 16  1  0
 16  5  1  0
 15  9  1  0
M  END
>  <identifier>  (187) 
CNP0321020.1

>  <canonical_smiles>  (187) 
C[C@@H](O)CC1=CC(=O)C2=C(O)C=CC=C2O1

>  <standard_inchi>  (187) 
InChI=1S/C12H12O4/c1-7(13)5-8-6-10(15)12-9(14)3-2-4-11(12)16-8/h2-4,6-7,13-14H,5H2,1H3/t7-/m1/s1

>  <standard_inchi_key>  (187) 
BEBIIRLVYJMQOS-SSDOTTSWSA-N

>  <name>  (187) 
(2'S)-2-(propan-2'-ol)-5-hydroxy-benzopyran-4-one

>  <iupac_name>  (187) 
5-hydroxy-2-[(2~{R})-2-hydroxypropyl]chromen-4-one

>  <annotation_level>  (187) 
5

>  <total_atom_count>  (187) 
28

>  <heavy_atom_count>  (187) 
16

>  <molecular_weight>  (187) 
220.22

>  <exact_molecular_weight>  (187) 
220.07356

>  <molecular_formula>  (187) 
C12H12O4

>  <alogp>  (187) 
1.42

>  <topological_polar_surface_area>  (187) 
70.67

>  <rotatable_bond_count>  (187) 
2

>  <hydrogen_bond_acceptors>  (187) 
4

>  <hydrogen_bond_donors>  (187) 
2

>  <hydrogen_bond_acceptors_lipinski>  (187) 
4

>  <hydrogen_bond_donors_lipinski>  (187) 
2

>  <lipinski_rule_of_five_violations>  (187) 
0

>  <aromatic_rings_count>  (187) 
2

>  <qed_drug_likeliness>  (187) 
0.80

>  <formal_charge>  (187) 
0

>  <fractioncsp3>  (187) 
0.25

>  <number_of_minimal_rings>  (187) 
2

>  <van_der_walls_volume>  (187) 
191.75

>  <contains_sugar>  (187) 
False

>  <contains_ring_sugars>  (187) 
False

>  <contains_linear_sugars>  (187) 
False

>  <murcko_framework>  (187) 
O1C=CCc2ccccc12

>  <np_likeness>  (187) 
1.58

>  <chemical_class>  (187) 
Benzopyrans

>  <chemical_sub_class>  (187) 
1-benzopyrans

>  <chemical_super_class>  (187) 
Organoheterocyclic compounds

>  <direct_parent_classification>  (187) 
Chromones

>  <np_classifier_pathway>  (187) 
Polyketides

>  <np_classifier_superclass>  (187) 
Chromanes

>  <np_classifier_class>  (187) 
Chromones

>  <np_classifier_is_glycoside>  (187) 
False

>  <organisms>  (187) 
Curvularia|Curvularia sp.|Ocotea corymbosa

>  <collections>  (187) 
ChemSpider NPs|Latin America dataset|NPAtlas|NuBBEDB|Super Natural II|WikiData Natural Products|ZINC NP

>  <dois>  (187) 
10.1016/J.PHYTOCHEM.2005.04.043|10.1016/j.phytochem.2005.04.043

>  <synonyms>  (187) 
(2'S)-2-(propan-2'-ol)-5-hydroxy-benzopyran-4-one|5-hydroxy-2-[(2R)-2-hydroxypropyl]chromen-4-one|CHEBI:198156

>  <cas>  (187) 
nan

$$$$

     RDKit          2D

 20 22  0  0  0  0  0  0  0  0999 V2000
    4.1352    2.3089    0.0000 O   0  0  0  0  0  0  0  0  0  0  0  0
    4.0568    0.8110    0.0000 C   0  0  0  0  0  0  0  0  0  0  0  0
    2.7203    0.1299    0.0000 C   0  0  0  0  0  0  0  0  0  0  0  0
    1.4623    0.9468    0.0000 C   0  0  0  0  0  0  0  0  0  0  0  0
    0.1258    0.2658    0.0000 C   0  0  0  0  0  0  0  0  0  0  0  0
   -1.1322    1.0827    0.0000 C   0  0  0  0  0  0  0  0  0  0  0  0
   -2.4687    0.4016    0.0000 C   0  0  0  0  0  0  0  0  0  0  0  0
   -2.5472   -1.0963    0.0000 C   0  0  0  0  0  0  0  0  0  0  0  0
   -3.8837   -1.7773    0.0000 C   0  0  0  0  0  0  0  0  0  0  0  0
   -5.1417   -0.9604    0.0000 C   0  0  0  0  0  0  0  0  0  0  0  0
   -6.5906   -1.3487    0.0000 O   0  0  0  0  0  0  0  0  0  0  0  0
   -7.4076   -0.0907    0.0000 C   0  0  0  0  0  0  0  0  0  0  0  0
   -6.4636    1.0750    0.0000 O   0  0  0  0  0  0  0  0  0  0  0  0
   -5.0633    0.5375    0.0000 C   0  0  0  0  0  0  0  0  0  0  0  0
   -3.7268    1.2186    0.0000 C   0  0  0  0  0  0  0  0  0  0  0  0
    5.3148   -0.0060    0.0000 N   0  0  0  0  0  0  0  0  0  0  0  0
    6.7152    0.5317    0.0000 C   0  0  0  0  0  0  0  0  0  0  0  0
    7.6592   -0.6340    0.0000 C   0  0  0  0  0  0  0  0  0  0  0  0
    6.8423   -1.8921    0.0000 C   0  0  0  0  0  0  0  0  0  0  0  0
    5.3934   -1.5039    0.0000 C   0  0  0  0  0  0  0  0  0  0  0  0
  1  2  2  0
  2  3  1  0
  3  4  2  0
  4  5  1  0
  5  6  2  0
  6  7  1  0
  7  8  2  0
  8  9  1  0
  9 10  2  0
 10 11  1  0
 11 12  1  0
 12 13  1  0
 13 14  1  0
 14 15  2  0
  2 16  1  0
 16 17  1  0
 17 18  1  0
 18 19  1  0
 19 20  1  0
 15  7  1  0
 20 16  1  0
 14 10  1  0
M  END
>  <identifier>  (188) 
CNP0202571.1

>  <canonical_smiles>  (188) 
O=C(/C=C/C=C/C1=CC=C2OCOC2=C1)N1CCCC1

>  <standard_inchi>  (188) 
InChI=1S/C16H17NO3/c18-16(17-9-3-4-10-17)6-2-1-5-13-7-8-14-15(11-13)20-12-19-14/h1-2,5-8,11H,3-4,9-10,12H2/b5-1+,6-2+

>  <standard_inchi_key>  (188) 
GQIJYUMTOUBHSH-IJIVKGSJSA-N

>  <name>  (188) 
nan

>  <iupac_name>  (188) 
nan

>  <annotation_level>  (188) 
0

>  <total_atom_count>  (188) 
37

>  <heavy_atom_count>  (188) 
20

>  <molecular_weight>  (188) 
271.32

>  <exact_molecular_weight>  (188) 
271.12084

>  <molecular_formula>  (188) 
C16H17NO3

>  <alogp>  (188) 
2.61

>  <topological_polar_surface_area>  (188) 
38.77

>  <rotatable_bond_count>  (188) 
3

>  <hydrogen_bond_acceptors>  (188) 
3

>  <hydrogen_bond_donors>  (188) 
0

>  <hydrogen_bond_acceptors_lipinski>  (188) 
3

>  <hydrogen_bond_donors_lipinski>  (188) 
0

>  <lipinski_rule_of_five_violations>  (188) 
0

>  <aromatic_rings_count>  (188) 
1

>  <qed_drug_likeliness>  (188) 
0.63

>  <formal_charge>  (188) 
0

>  <fractioncsp3>  (188) 
0.31

>  <number_of_minimal_rings>  (188) 
3

>  <van_der_walls_volume>  (188) 
251.24

>  <contains_sugar>  (188) 
False

>  <contains_ring_sugars>  (188) 
False

>  <contains_linear_sugars>  (188) 
False

>  <murcko_framework>  (188) 
O1c2ccc(C=CC=CCN3CCCC3)cc2OC1

>  <np_likeness>  (188) 
0.15

>  <chemical_class>  (188) 
nan

>  <chemical_sub_class>  (188) 
nan

>  <chemical_super_class>  (188) 
nan

>  <direct_parent_classification>  (188) 
nan

>  <np_classifier_pathway>  (188) 
Alkaloids

>  <np_classifier_superclass>  (188) 
Lysine alkaloids

>  <np_classifier_class>  (188) 
Piperidine alkaloids

>  <np_classifier_is_glycoside>  (188) 
False

>  <organisms>  (188) 
Abies webbiana|Agaricus xanthodermus|Brickellia longifolia|Bupleurum rigidum|Carpesium longifolium|Cochlearia officinalis|Coelogyne nitida|Crocus corsicus|Dichotomanthes tristaniicarpa|Didymosphaeria enalia|Dracontium loretense|Euphorbia wangii|Frullania brasiliensis|Homalium laurifolium|Leifsonia aquatica|Matsumurella chinensis|Monascus rubropunctatus|Mycoplasma mycoides|Palisota barteri|Penicillium tardum|Photorhabdus luminescens|Piper|Piper Nigrum|Piper amalago|Piper arboreum|Piper chaba|Piper guineense|Piper longum|Piper nigrum|Piper retrofractum|Piper trichostachya|Piper trichostachyon|Podocarpus minor|Pothomorphe peltata|Pseudomonas stutzeri|Schefflera venulosa|Silene banksia|Verbesina virginica|West African Pepper

>  <collections>  (188) 
CMAUP (cCollective molecular activities of useful plants)|ChEBI NPs|ChemSpider NPs|ETM (Ethiopian Traditional Medicine) DB|FooDB|GNPS (Global Natural Products Social Molecular Networking)|KNApSaCK|Latin America dataset|NPASS|NPEdia|NuBBEDB|Super Natural II|TCMDB-Taiwan (Traditional Chinese Medicine database)|VietHerb|WikiData Natural Products

>  <dois>  (188) 
10.1002/CHIN.200340213|10.1002/HLCA.19750580810|10.1016/J.TET.2011.01.015|10.1016/S0031-9422(01)00431-9|10.1016/S0040-4039(01)88862-6|10.1016/S0968-0896(02)00130-X|10.1021/ACS.JNATPROD.1C01154|10.1021/JO040272A|10.1021/NP030475E|10.1055/S-2007-969054|10.1248/CPB.36.2452|10.1271/BBB1961.45.1257

>  <synonyms>  (188) 
nan

>  <cas>  (188) 
25924-78-1

$$$$

     RDKit          2D

 23 27  0  0  0  0  0  0  0  0999 V2000
    3.4972   -2.7955    0.0000 O   0  0  0  0  0  0  0  0  0  0  0  0
    2.8662   -1.4346    0.0000 C   0  0  0  0  0  0  0  0  0  0  0  0
    3.7293   -0.2078    0.0000 C   0  0  0  0  0  0  0  0  0  0  0  0
    5.2233   -0.3418    0.0000 C   0  0  0  0  0  0  0  0  0  0  0  0
    6.0863    0.8851    0.0000 C   0  0  0  0  0  0  0  0  0  0  0  0
    5.4554    2.2459    0.0000 C   0  0  0  0  0  0  0  0  0  0  0  0
    3.9614    2.3799    0.0000 C   0  0  0  0  0  0  0  0  0  0  0  0
    3.0983    1.1531    0.0000 C   0  0  0  0  0  0  0  0  0  0  0  0
    1.6043    1.2871    0.0000 N   0  0  0  0  0  0  0  0  0  0  0  0
    0.7413    0.0602    0.0000 C   0  0  0  0  0  0  0  0  0  0  0  0
   -0.7527    0.1942    0.0000 C   0  0  0  0  0  0  0  0  0  0  0  0
   -1.6158   -1.0326    0.0000 C   0  0  0  0  0  0  0  0  0  0  0  0
   -0.9848   -2.3935    0.0000 C   0  0  0  0  0  0  0  0  0  0  0  0
    0.5092   -2.5275    0.0000 C   0  0  0  0  0  0  0  0  0  0  0  0
    1.3722   -1.3006    0.0000 N   0  0  0  0  0  0  0  0  0  0  0  0
   -3.0493   -0.5909    0.0000 C   0  0  0  0  0  0  0  0  0  0  0  0
   -4.3367   -1.3607    0.0000 C   0  0  0  0  0  0  0  0  0  0  0  0
   -5.6471   -0.6306    0.0000 C   0  0  0  0  0  0  0  0  0  0  0  0
   -5.6700    0.8692    0.0000 C   0  0  0  0  0  0  0  0  0  0  0  0
   -6.9803    1.5993    0.0000 O   0  0  0  0  0  0  0  0  0  0  0  0
   -4.3825    1.6390    0.0000 C   0  0  0  0  0  0  0  0  0  0  0  0
   -3.0722    0.9089    0.0000 C   0  0  0  0  0  0  0  0  0  0  0  0
   -1.6528    1.3941    0.0000 N   0  0  0  0  0  0  0  0  0  0  0  0
  1  2  2  0
  2  3  1  0
  3  4  2  0
  4  5  1  0
  5  6  2  0
  6  7  1  0
  7  8  2  0
  8  9  1  0
  9 10  2  0
 10 11  1  0
 11 12  2  0
 12 13  1  0
 13 14  1  0
 14 15  1  0
 12 16  1  0
 16 17  2  0
 17 18  1  0
 18 19  2  0
 19 20  1  0
 19 21  1  0
 21 22  2  0
 22 23  1  0
 15  2  1  0
 22 16  1  0
  8  3  1  0
 15 10  1  0
 23 11  1  0
M  END
>  <identifier>  (189) 
CNP0181560.0

>  <canonical_smiles>  (189) 
O=C1C2=CC=CC=C2N=C2C3=C(CCN21)C1=CC=C(O)C=C1N3

>  <standard_inchi>  (189) 
InChI=1S/C18H13N3O2/c22-10-5-6-11-12-7-8-21-17(16(12)19-15(11)9-10)20-14-4-2-1-3-13(14)18(21)23/h1-6,9,19,22H,7-8H2

>  <standard_inchi_key>  (189) 
LZNDAOKPOOIXKH-UHFFFAOYSA-N

>  <name>  (189) 
6-hydroxy-3,13,21-triazapentacyclo[11.8.0.02,10.04,9.015,20]henicosa-1(21),2(10),4(9),5,7,15,17,19-octaen-14-one

>  <iupac_name>  (189) 
6-hydroxy-3,13,21-triazapentacyclo[11.8.0.0^{2,10}.0^{4,9}.0^{15,20}]henicosa-1(21),2(10),4,6,8,15,17,19-octaen-14-one

>  <annotation_level>  (189) 
5

>  <total_atom_count>  (189) 
36

>  <heavy_atom_count>  (189) 
23

>  <molecular_weight>  (189) 
303.32

>  <exact_molecular_weight>  (189) 
303.10078

>  <molecular_formula>  (189) 
C18H13N3O2

>  <alogp>  (189) 
2.81

>  <topological_polar_surface_area>  (189) 
70.91

>  <rotatable_bond_count>  (189) 
0

>  <hydrogen_bond_acceptors>  (189) 
4

>  <hydrogen_bond_donors>  (189) 
2

>  <hydrogen_bond_acceptors_lipinski>  (189) 
4

>  <hydrogen_bond_donors_lipinski>  (189) 
2

>  <lipinski_rule_of_five_violations>  (189) 
0

>  <aromatic_rings_count>  (189) 
4

>  <qed_drug_likeliness>  (189) 
0.52

>  <formal_charge>  (189) 
0

>  <fractioncsp3>  (189) 
0.11

>  <number_of_minimal_rings>  (189) 
5

>  <van_der_walls_volume>  (189) 
255.82

>  <contains_sugar>  (189) 
False

>  <contains_ring_sugars>  (189) 
False

>  <contains_linear_sugars>  (189) 
False

>  <murcko_framework>  (189) 
N=1c2ccccc2CN3C1c4[nH]c5ccccc5c4CC3

>  <np_likeness>  (189) 
0.27

>  <chemical_class>  (189) 
Diazanaphthalenes

>  <chemical_sub_class>  (189) 
Benzodiazines

>  <chemical_super_class>  (189) 
Organoheterocyclic compounds

>  <direct_parent_classification>  (189) 
Indoloquinazolines

>  <np_classifier_pathway>  (189) 
Alkaloids

>  <np_classifier_superclass>  (189) 
Tryptophan alkaloids

>  <np_classifier_class>  (189) 
Carboline alkaloids

>  <np_classifier_is_glycoside>  (189) 
False

>  <organisms>  (189) 
Almeidea coerulea|Conchocarpus coeruleus

>  <collections>  (189) 
HIM (Herbal Ingredients in-vivo Metabolism database)|Latin America dataset|NuBBEDB|WikiData Natural Products

>  <dois>  (189) 
10.1590/S1516-89132011000100008

>  <synonyms>  (189) 
11-hydroxyrutaecarpine|BDBM50542288|CHEMBL4638725|NS00117222

>  <cas>  (189) 
nan

$$$$

     RDKit          2D

 11 10  0  0  0  0  0  0  0  0999 V2000
   -4.9314   -0.8643    0.0000 C   0  0  0  0  0  0  0  0  0  0  0  0
   -3.6609   -0.0669    0.0000 C   0  0  0  0  0  0  0  0  0  0  0  0
   -3.7163    1.4321    0.0000 C   0  0  0  0  0  0  0  0  0  0  0  0
   -2.3351   -0.7685    0.0000 C   0  0  0  0  0  0  0  0  0  0  0  0
   -1.0646    0.0289    0.0000 C   0  0  0  0  0  0  0  0  0  0  0  0
    0.2612   -0.6726    0.0000 C   0  0  0  0  0  0  0  0  0  0  0  0
    1.5317    0.1248    0.0000 C   0  0  0  0  0  0  0  0  0  0  0  0
    1.4763    1.6237    0.0000 C   0  0  0  0  0  0  0  0  0  0  0  0
    2.8575   -0.5768    0.0000 C   0  0  0  0  0  0  0  0  0  0  0  0
    4.1280    0.2206    0.0000 C   0  0  0  0  0  0  0  0  0  0  0  0
    5.4538   -0.4810    0.0000 O   0  0  0  0  0  0  0  0  0  0  0  0
  1  2  1  0
  2  3  1  0
  2  4  2  0
  4  5  1  0
  5  6  1  0
  6  7  1  0
  7  8  1  0
  7  9  2  0
  9 10  1  0
 10 11  2  0
M  END
>  <identifier>  (190) 
CNP0127332.2

>  <canonical_smiles>  (190) 
CC(C)=CCC/C(C)=C/C=O

>  <standard_inchi>  (190) 
InChI=1S/C10H16O/c1-9(2)5-4-6-10(3)7-8-11/h5,7-8H,4,6H2,1-3H3/b10-7+

>  <standard_inchi_key>  (190) 
WTEVQBCEXWBHNA-JXMROGBWSA-N

>  <name>  (190) 
Citral

>  <iupac_name>  (190) 
(2E)-3,7-dimethylocta-2,6-dienal

>  <annotation_level>  (190) 
0

>  <total_atom_count>  (190) 
27

>  <heavy_atom_count>  (190) 
11

>  <molecular_weight>  (190) 
152.24

>  <exact_molecular_weight>  (190) 
152.12012

>  <molecular_formula>  (190) 
C10H16O

>  <alogp>  (190) 
2.88

>  <topological_polar_surface_area>  (190) 
17.07

>  <rotatable_bond_count>  (190) 
4

>  <hydrogen_bond_acceptors>  (190) 
1

>  <hydrogen_bond_donors>  (190) 
0

>  <hydrogen_bond_acceptors_lipinski>  (190) 
1

>  <hydrogen_bond_donors_lipinski>  (190) 
0

>  <lipinski_rule_of_five_violations>  (190) 
0

>  <aromatic_rings_count>  (190) 
0

>  <qed_drug_likeliness>  (190) 
0.34

>  <formal_charge>  (190) 
0

>  <fractioncsp3>  (190) 
0.50

>  <number_of_minimal_rings>  (190) 
0

>  <van_der_walls_volume>  (190) 
169.78

>  <contains_sugar>  (190) 
False

>  <contains_ring_sugars>  (190) 
False

>  <contains_linear_sugars>  (190) 
False

>  <murcko_framework>  (190) 
nan

>  <np_likeness>  (190) 
2.64

>  <chemical_class>  (190) 
nan

>  <chemical_sub_class>  (190) 
nan

>  <chemical_super_class>  (190) 
nan

>  <direct_parent_classification>  (190) 
nan

>  <np_classifier_pathway>  (190) 
Terpenoids

>  <np_classifier_superclass>  (190) 
Monoterpenoids

>  <np_classifier_class>  (190) 
Acyclic monoterpenoids

>  <np_classifier_is_glycoside>  (190) 
False

>  <organisms>  (190) 
Acer triflorum|Aceriphyllum rossii|Achillea millefolium|Aconitum kamtschaticum|Aconitum leucostomum|Aconitum vilmorinianum|Acorus calamus|Actaea dahurica|Actaea heracleifolia|Actaea simplex|Actinidia kolomikta|Aframomum angustifolium|Afrormosia laxiflora|Agnorhiza bolanderi|Aleuroglyphus ovatus|Alligator mississippiensis|Allium Sativum|Allium sativum|Aloysia citriodora|Aloysia citrodora|Aloysia triphylla|Alphinia galanga|Alstonia Scholaris|Alstonia scholaris|Amyris marshii|Anarsia lineatella|Anaxagorea clavata|Aniba megaphylla|Apollonias barbujana|Aquilegia ecalcarata|Aralia fargesii|Araujia sericifera|Arctium lappa|Aria pallescens|Arnica nevadensis|Artemisia annua|Artemisia argyi|Artemisia capillaris|Artemisia hanseniana|Artemisia monogyna|Artemisia montana|Artemisia princeps|Aster scaber|Asterolasia squamuligera|Baccharis dracunculifolia|Backhousia citriodora|Bassia butyracea|Berberis integerrima|Beyeria brevifolia|Bidens andicola|Blumea mollis|Boesenbergia rotunda|Boronella koniambiensis|Brachyspira hyodysenteriae|Brevibacillus laterosporus|Bunium paucifolium|Bursaria spinosa|Camellia Sinensis|Camellia sinensis|Canarium strictum|Candidatus brocadia anammoxidans|Canella winterana|Canthium schimperianum|Capsella bursa-pastoris|Carum carvi|Catharanthus roseus|Ceanothus velutinus|Centaurea benedicta|Chamomilla recutita|Chenopodium ambrosioides|Chloranthus tianmushanensis|Chlorophytum borivilianum|Chromolaena odorata|Chromolaena pulchella|Cimicifuga foetida|Cinamomum cassia|Cinnamomum aromaticum|Cinnamomum camphora|Cinnamomum sieboldii|Cinnamomum tenuifolium|Cinnamomum zeylanicum|Cinnamon|Cistus creticus|Citrus Aurantifolia|Citrus Limonia|Citrus Paradisi|Citrus Reticulata|Citrus Sinensis|Citrus aurantifolia|Citrus aurantiifolia|Citrus aurantium|Citrus grandis|Citrus hystrix|Citrus junos|Citrus limon|Citrus limonia|Citrus maxima|Citrus medica|Citrus medica var. sarcodactylis|Citrus natsudaidai|Citrus paradisi|Citrus reticulata|Citrus sinensis|Citrus trifoliata|Citrus unshiu|Citrus wilsonii|Citrus × deliciosa|Citrus × paradisi|Cladonia evansii|Clonostachys rosea|Coccus fagi|Coelogorgia palmosa|Coreopsis grandiflora|Coriandrum sativum|Cortex zingiberis|Corydalis delavayi|Couroupita guianensis|Crataegus pinnatifida|Croton grewioides|Croton zehntneri|Curcuma amada|Curcuma amanda Roxb|Curcuma kwangsiensis|Curcuma longa|Curcuma phaeocaulis|Curcuma wenyujin|Cymbopogon Citratus|Cymbopogon Flexuosus|Cymbopogon citratus|Cymbopogon distans|Cymbopogon flexuosus|Cymbopogon khasianus|Cymbopogon nardus|Cymbopogon winterianus|Dalea purpurea|Daphne odora|Daucus Carota|Daucus carota|Daucus carota var. sativa|Daucus carota var.sativa|Dendrosenecio kilimanjari|Diplotaenia cachrydifolia|Dipterocarpus alatus|Dipterocarpus dyeri|Dipteronia dyeriana|Dodonaea polyandra|Dracocephalum kotschyi|Dracocephalum moldavica|Dracocephalum moldavicum|Drimia sanguinea|Drosera peltata|Dysphania ambrosioides|Echinops amplexicaulis|Ectropis bicolor|Elephantopus angustifolius|Elettaria cardamomum|Elionurus muticus|Elsholtzia ciliata|Elsholtzia eriostachya|Elsholtzia fruticosa|Epaltes gariepina|Erinaceus europaeus|Esox saurus|Eucalyptus pulverulenta|Eupatorium fortunei|Exocarpium citri grandis|Ficus carica|Ficus formosana|Flustra foliacea|Forsythia suspensa|Forsythia suspense|Fragaria vesca|Freesia hybrida|Fructus carpesii|Fructus syzygii|Fusarium gibbosum|Gaillardia coahuilensis|Ganoderma lucidum|Garcinia macrophylla|Garcinia scortechinii|Gardenia fosbergii|Gardenia tubifera|Geranium|Gouania microcarpa|Grindelia hirsutula|Gymnanthemum amygdalinum|Helichrysum odoratissimum|Herbertus sakuraii|Homo sapiens|Houttuynia cordata|Hyptis emoryi|Ilex affinis|Ipomoea cairica|Isodon kameba|Isodon lophanthoides|Isoplexis sceptrum|Jaspis stellifera|Kaempferia pandurata|Kaempferia pulchra|Kopsia grandifolia|Lactarius scrobiculatus|Lagerstroemia speciosa|Lantana camara|Lanxangia tsao-ko|Lasianthus fordii|Ledebouria socialis|Leucopaxillus giganteus|Libocedrus decurrens|Ligularia hodgsonii|Lindera citriodora|Lippia Myriocephala|Lippia alba|Lippia multiflora|Litchi chinensis|Litsea Cubeba|Litsea cubeba|Litsea verbena|Loranthus parasiticus|Lycopus europaeus|Magnolia liliflora|Magnolia liliiflora|Magnolia salicifolia|Malus domestica|Malus pumila|Mangifera indica|Matricaria chamomilla|Maytenus loeseneri|Maytenus serrata|Melaleuca acacioides|Melissa officinalis|Mentha X piperita|Microcitrus|Micromeria biflora|Micromeria maderensis|Monarda fistulosa|Monomorium floricola|Moringa oleifera|Mosla chinensis|Murraya kwangsiensis|Myrcia hedraiophylla|Nauclea latifolia|Nepeta cataria|Nepeta nepetella|Ocimum basilicum|Ocimum gratissimum|Odixia angusta|Odontites rubra|Omphacomeria acerba|Ongokea klaineana|Ophioparma ventosa|Ophiorrhiza blumeana|Ophrys sphegodes|Ovibos moschatus|Paeonia lactiflora|Panax innovans|Pectis brevipedunculata|Pectis elongata|Pelargonium citronellum|Pelargonium ternifolium|Pelargonium vitifolium|Penicillium cinerascens|Pericarpium citri reticulatae|Perilla frutescens|Perilla frutescens var. crispa|Perilla frutescens var.crispa|Persea mexicana|Petriella guttulata|Peucedanum palustre|Phalaenopsis aphrodite|Pheidole pallidula|Phyllobates aurotaenia|Physalis solanaceus|Picridium crystallinum|Pieris melete|Pieris napi|Pimenta racemosa|Piper Cubeba|Piper cubeba|Plectranthus mollis|Pluchea dioscoridis|Plumeria rubra|Podachaenium eminens|Podocarpus salignus|Polygala senega|Prosopis glandulosa|Prosopis ruscifolia|Prunus Armeniaca|Prunus armeniaca|Prunus avium|Prunus cerasoides|Prunus laurocerasus|Pseudopterogorgia kallos|Psidium guajava|Psychotria bahiensis|Pteris prolifera|Pterocarpus grandiflorus|Pyrola rotundifolia|Pyrosoma giganteum|Quercus aegilops|Rathayibacter rathayi|Rhizobium phaseoli|Rhizoma zingiberis praeparata|Rhizoma zingiberis recens preparata|Rhodiola crenulata|Rhodiola rosea|Rhodobacter sphaeroides|Rhodomicrobium vannielii|Rhodospirillum rubrum|Rosa gallica|Rosa × damascena|Rusavskia elegans|Saccharina japonica|Salvia fruticosa|Salvia officinalis|Salvia sclarea|Schisandra Chinensis|Schisandra chinensis|Schistostephium rotundifolium|Securidaca inappendiculata|Semen armeniacae amarum|Senecio squalidus|Seriphidium cinum|Sesbania punicea|Sideritis syriaca|Simaba maiana|Simira eliezeriana|Siparuna thecaphora|Siphocampylus verticillatus|Sordaria araneosa|Stenostomum lucidum|Stevia alpina|Stoeba extensa|Streptomyces althioticus|Streptomyces fervens|Streptomyces lavendulae|Streptomyces violaceochromogenes|Strophanthus eminii|Suidasia medanensis|Talaromyces coalescens|Taxodium mucronatum|Teucrium polium subsp. polium|Thapsia maxima|Thapsia villosa|Thymbra capitata|Thymus|Thymus camphoratus|Thymus capitatus|Thymus funkii|Thymus longicaulis|Thymus longiflorus|Thymus sibthorpii|Thymus sipyleus|Thymus thracicus|Thymus willkommii|Thymus zygis|Trichoderma vinosum|Trifoliate orange|Trifolium subterraneum|Usnea florida|Ustilago sphaerogena|Vepris pilosa|Veratrum stenophyllum|Verbena triphylla|Viburnum chingii|Vitex madiensis|Xenophyllum poposum|Xylopia emarginata|Zaluzianskya capensis|Zanthoxylum bungeanum|Zanthoxylum chalybaeum|Zanthoxylum chalybeum|Zanthoxylum chiriquinum|Zingiber Officinale|Zingiber officinale|Zingiber officinale ROSC.|basil|bellis perennis|clove|common myrtle|maize|pomelo|tomato|watermelon

>  <collections>  (190) 
ANPDB|AfroDB|Australian natural products|CMAUP (cCollective molecular activities of useful plants)|CMNPD|ChEBI NPs|EMNPD|FooDB|HIT (Herbal Ingredients Targets)|InterBioScreen Ltd|KNApSaCK|Latin America dataset|NANPDB (Natural Products from Northern African Sources)|NAPRORE-CR|NPACT|NPASS|NPDBEjeCol|NPEdia|NuBBEDB|Phyto4Health|Super Natural II|TCMDB-Taiwan (Traditional Chinese Medicine database)|TIPdb (database of Taiwan indigenous plants)|VietHerb|WikiData Natural Products

>  <dois>  (190) 
10.1002/(SICI)1099-1026(199601)11:1<15::AID-FFJ541>3.0.CO;2-H|10.1002/(SICI)1099-1026(199801/02)13:1<29::AID-FFJ682>3.0.CO;2-S|10.1002/(SICI)1099-1026(200003/04)15:2<100::AID-FFJ874>3.0.CO;2-Y|10.1002/CBDV.201100039|10.1002/FFJ.2730030305|10.1002/FFJ.2730060314|10.1002/FFJ.2730060407|10.1002/FFJ.2730100313|10.1002/FFJ.2730100317|10.1002/FFJ.2730100408|10.1002/FFJ.2730100506|10.1002/FFJ.2730100609|10.1002/JSFA.2740220213|10.1002/RECL.19400590203|10.1007/BF00554619|10.1007/BF00579447|10.1007/BF00580068|10.1007/BF01947255|10.1007/BF02399932|10.1007/BF02496320|10.1007/S10068-015-0261-2|10.1007/s10886-010-9846-7|10.1016/0031-9422(88)80124-9|10.1016/0031-9422(90)87094-B|10.1016/0031-9422(91)83632-U|10.1016/0031-9422(93)80020-S|10.1016/0031-9422(95)00183-8|10.1016/0031-9422(95)00347-A|10.1016/0031-9422(96)00018-0|10.1016/0378-8741(84)90057-6|10.1016/0378-8741(91)90187-I|10.1016/J.FOODCHEM.2013.11.092|10.1016/J.IJFOODMICRO.2008.10.017|10.1016/J.INDCROP.2011.07.024|10.1016/J.INDCROP.2014.04.048|10.1016/J.PHYMED.2008.04.018|10.1016/J.PHYTOCHEM.2005.08.001|10.1016/J.PHYTOCHEM.2005.10.025|10.1016/J.PHYTOCHEM.2009.03.012|10.1016/J.PHYTOCHEM.2009.06.013|10.1016/J.PHYTOCHEM.2009.07.031|10.1016/S0031-6865(97)00026-5|10.1016/S0031-9422(00)80673-1|10.1016/S0031-9422(00)81276-5|10.1016/S0031-9422(00)81284-4|10.1016/S0031-9422(00)81688-X|10.1016/S0031-9422(00)84088-1|10.1016/S0031-9422(00)84581-1|10.1016/S0031-9422(00)86089-6|10.1016/S0031-9422(00)94541-2|10.1016/S0031-9422(02)00004-3|10.1016/S0031-9422(97)00117-9|10.1016/S0367-326X(98)00016-1|10.1016/S0925-5214(02)00250-8|10.1021/IE50101A012|10.1021/JA01245A053|10.1021/JF00025A025|10.1021/JF00034A033|10.1021/JF00047A021|10.1021/JF00059A031|10.1021/JF00087A036|10.1021/JF00097A027|10.1021/JF0402633|10.1021/JF60218A022|10.1021/JF60218A031|10.1021/JF60230A021|10.1021/JF970031M|10.1021/NP50017A019|10.1021/NP50027A022|10.1021/NP50034A039|10.1021/NP50044A039|10.1021/NP50053A047|10.1021/np50017a018|10.1039/np9840100551|10.1042/BJ0201008|10.1055/S-0028-1099422|10.1055/S-0028-1099434|10.1055/S-0028-1099484|10.1055/S-0028-1099554|10.1055/S-2003-37024|10.1055/S-2004-827162|10.1055/S-2006-957488|10.1055/S-2006-960032|10.1055/S-2006-960939|10.1055/S-2006-961434|10.1055/S-2006-961490|10.1055/S-2006-961551|10.1055/S-2006-961997|10.1055/S-2006-962452|10.1055/S-2007-969172|10.1055/S-2007-969176|10.1055/S-2007-969442|10.1055/S-2007-969632|10.1076/1388-0209(200007)3831-SFT197|10.1076/PHBI.35.2.84.13279|10.1076/PHBI.35.3.218.13295|10.1080/00021369.1989.10869703|10.1080/0972060X.2014.895210|10.1080/10412905.1990.9697857|10.1080/10412905.1990.9697879|10.1080/10412905.1991.9697952|10.1080/10412905.1991.9697955|10.1080/10412905.1991.9700498|10.1080/10412905.1992.9698020|10.1080/10412905.1992.9698061|10.1080/10412905.1992.9698083|10.1080/10412905.1992.9698091|10.1080/10412905.1992.9698109|10.1080/10412905.1992.9698111|10.1080/10412905.1992.9698130|10.1080/10412905.1993.9698179|10.1080/10412905.1993.9698209|10.1080/10412905.1993.9698214|10.1080/10412905.1993.9698222|10.1080/10412905.1993.9698235|10.1080/10412905.1993.9698254|10.1080/10412905.1994.9698332|10.1080/10412905.1994.9698333|10.1080/10412905.1994.9698405|10.1080/10412905.1994.9698440|10.1080/10412905.1994.9699346|10.1080/10412905.1995.9698464|10.1080/10412905.1995.9698506|10.1080/10412905.1995.9698507|10.1080/10412905.1995.9698524|10.1080/10412905.1995.9698553|10.1080/10412905.1995.9698585|10.1080/10412905.1995.9700523|10.1080/10412905.1996.9700547|10.1080/10412905.1996.9700565|10.1080/10412905.1996.9700569|10.1080/10412905.1996.9701047|10.1080/10412905.1997.9700709|10.1080/10412905.1998.9700906|10.1080/10412905.1998.9700998|10.1080/10412905.1999.9701097|10.1080/10412905.1999.9701154|10.1080/10412905.1999.9701155|10.1080/10412905.2000.9699521|10.1080/10412905.2000.9712204|10.1080/10412905.2003.9698598|10.1080/10412905.2004.9698688|10.1080/10412905.2004.9698744|10.1080/10412905.2010.9700338|10.1080/10412905.2018.1431966|10.1094/PHYTO.2000.90.7.710|10.1186/1756-3305-7-407|10.1248/CPB.52.1249|10.1248/YAKUSHI1947.106.1_17|10.1248/YAKUSHI1947.80.12_1796|10.1271/BBB1961.47.483|10.1271/BBB1961.48.2843|10.1271/BBB1961.49.1583|10.1271/BBB1961.49.3145|10.1271/BBB1961.52.1299|10.1271/BBB1961.52.2961|10.1271/BBB1961.55.2571|10.1590/S0102-695X2010000400016|10.23850/24220582.3465|10.3390/MOLECULES200610298|10.3390/MOLECULES21060814|10.3403/30245698|10.5897/JMPR10.078|10.5935/0103-5053.20160142

>  <synonyms>  (190) 
|(2E)-3,7-Dimethyl-2,6-octadienal|(2E)-3,7-dimethyl-2,6-octadien-1-al|(2E)-3,7-dimethyl-octa-2,6-dienal|(2E)-3,7-dimethylocta-2,6-dienal|(2e)-geranial|(E)-3,7-Dimethyl-2,6-octadienal|(E)-3,7-Dimethylocta-2,6-dienal|(E)-Citral|(E)-Geranial|(E)-Neral|(E)-alpha-citral|(Z)-3,7-Dimethyl-2,6-octadienal|.alpha.-Citral|141-27-5|2,6- OCTADIENAL, 3,7-DIMETHYL-|2,6-Dimethyloctadien-2,6-al-8|2,6-OCTADIENAL, 3,7-DIMETHYL-(E)|2,6-Octadienal, 3,7-dimethyl-|2,6-Octadienal, 3,7-dimethyl-, (2E)-|2,6-Octadienal, 3,7-dimethyl-, (E)|2,6-Octadienal, 3,7-dimethyl-, (E)-|2,6-Octadienal,3,7-dimethyl-,reaction products with et alc.|226-394-6|3,2,6-octadienal|3,7-Dimethyl-1,2,6-octadienal|3,7-Dimethyl-2,6-octadienal|3,7-Dimethyl-trans-2,6-octadienal|3,7-dimethyl-(2e)-2,6-octadienal|3,7-dimethyl-(e)-2,6-octadienal|3-01-00-03053 (Beilstein Handbook Reference)|4-01-00-03569 (Beilstein Handbook Reference)|5392-40-5|758ZMW724E|AI3-01011|AI3-28519|AKOS000119519|AS-35309|BBL011666|BRN 1721871|BRN 1721873|C01499|CAS-5392-40-5|CCG-266236|CCRIS 1043|CHEBI:137934|CHEBI:16980|CHEBI:23316|CHEMBL1080997|CITRAL GERANIAL|CITRAL GERANIAL [MI]|CITRAL NATURAL|CITRAL SINTETICO|CS-W010948|Caswell No. 221B|Citral|Citral (Standard)|Citral (natural)|Citral N|Citral a|Citral alpha|Citral, 95%|Citral, Vetec(TM) reagent grade, 94%|Citral, analytical standard|Citral, cis + trans|Citral, natural, >=96%, FCC, FG|Citral-A|DTXCID304836|DTXSID20881217|DTXSID6024836|EBC-47154|EBC-618550|EC 205-476-5|EC 226-394-6|EINECS 205-476-5|EINECS 226-394-6|EN300-20399|EPA Pesticide Chemical Code 040510|Epitope ID:956295|F0001-1403|F791079|FC01643|FEMA No. 2303|FEMA Number 2303|GERANIAL|GTPL6327|Genanial|Geranaldehyde|HMS5084F09|HSDB 993|HY-N7083|HY-N7083R|HY-W1000105|LMPR0102010003|Lemarome n|Lemsyn GB|MFCD00006997|MFCD00213902|MSK3339|NCGC00091550-01|NCGC00091550-02|NCGC00091550-03|NCGC00091550-04|NCGC00254026-01|NCGC00259642-01|NCI-C56348|NS00076551|NSC 6170|NSC-6170|NSC6170|Q410888|RefChem:5692|S5138|SBB060834|SCHEMBL23073|SCHEMBL954111|ST50308094|STK802499|T7EU0O9VPP|Tox21_202093|Tox21_300095|UNII-758ZMW724E|UNII-T7EU0O9VPP|WLN: VH1UY1&3Y1&U1|Z104478042|a-Citral|alpha -Citral|alpha-Citral|beta-Geranial|cis-3,7-Dimethyl-2,6-octadienal|cis\/trans-3,7-Dimethyl-2,6-octadienal|citral-b|geranal|geranialdehyde|trans-3,7-Dimethyl-2,6-octadienal|trans-3,7-dimethyl-octa-2,6-dienal|trans-Citral|trans-Citral  = trans-3,7-Dimethyl-octa-2,6-dien-1-al|trans-Citral (Geranial)

>  <cas>  (190) 
5392-40-5|141-27-5|CAS-5392-40-5

$$$$

     RDKit          2D

 39 42  0  0  0  0  0  0  0  0999 V2000
    7.8813   -3.6617    0.0000 C   0  0  0  0  0  0  0  0  0  0  0  0
    7.9506   -2.1633    0.0000 O   0  0  0  0  0  0  0  0  0  0  0  0
    6.6876   -1.3541    0.0000 C   0  0  0  0  0  0  0  0  0  0  0  0
    5.3553   -2.0433    0.0000 C   0  0  0  0  0  0  0  0  0  0  0  0
    4.0923   -1.2342    0.0000 C   0  0  0  0  0  0  0  0  0  0  0  0
    2.7600   -1.9234    0.0000 C   0  0  0  0  0  0  0  0  0  0  0  0
    1.4970   -1.1142    0.0000 C   0  0  0  0  0  0  0  0  0  0  0  0
    0.1647   -1.8034    0.0000 C   0  0  0  0  0  0  0  0  0  0  0  0
    0.0954   -3.3018    0.0000 O   0  0  0  0  0  0  0  0  0  0  0  0
   -1.0983   -0.9942    0.0000 O   0  0  0  0  0  0  0  0  0  0  0  0
   -2.4306   -1.6834    0.0000 C   0  0  0  0  0  0  0  0  0  0  0  0
   -3.6936   -0.8742    0.0000 C   0  0  0  0  0  0  0  0  0  0  0  0
   -3.6243    0.6242    0.0000 O   0  0  0  0  0  0  0  0  0  0  0  0
   -2.2920    1.3134    0.0000 C   0  0  0  0  0  0  0  0  0  0  0  0
   -1.0290    0.5042    0.0000 O   0  0  0  0  0  0  0  0  0  0  0  0
    0.3033    1.1934    0.0000 C   0  0  0  0  0  0  0  0  0  0  0  0
    0.3725    2.6918    0.0000 C   0  0  0  0  0  0  0  0  0  0  0  0
    1.7048    3.3810    0.0000 C   0  0  0  0  0  0  0  0  0  0  0  0
    1.7741    4.8794    0.0000 O   0  0  0  0  0  0  0  0  0  0  0  0
    2.9678    2.5718    0.0000 O   0  0  0  0  0  0  0  0  0  0  0  0
   -0.8905    3.5010    0.0000 C   0  0  0  0  0  0  0  0  0  0  0  0
   -1.1343    4.9811    0.0000 C   0  0  0  0  0  0  0  0  0  0  0  0
   -2.6172    5.2066    0.0000 C   0  0  0  0  0  0  0  0  0  0  0  0
   -3.3064    6.5389    0.0000 O   0  0  0  0  0  0  0  0  0  0  0  0
   -3.2899    3.8659    0.0000 C   0  0  0  0  0  0  0  0  0  0  0  0
   -4.7700    3.6221    0.0000 C   0  0  0  0  0  0  0  0  0  0  0  0
   -2.2228    2.8118    0.0000 C   0  0  0  0  0  0  0  0  0  0  0  0
   -5.0259   -1.5634    0.0000 O   0  0  0  0  0  0  0  0  0  0  0  0
   -5.0952   -3.0618    0.0000 C   0  0  0  0  0  0  0  0  0  0  0  0
   -6.4275   -3.7510    0.0000 C   0  0  0  0  0  0  0  0  0  0  0  0
   -7.6905   -2.9418    0.0000 O   0  0  0  0  0  0  0  0  0  0  0  0
   -3.8322   -3.8710    0.0000 C   0  0  0  0  0  0  0  0  0  0  0  0
   -3.9014   -5.3694    0.0000 O   0  0  0  0  0  0  0  0  0  0  0  0
   -2.4999   -3.1818    0.0000 C   0  0  0  0  0  0  0  0  0  0  0  0
   -1.2369   -3.9910    0.0000 O   0  0  0  0  0  0  0  0  0  0  0  0
    4.1616    0.2642    0.0000 C   0  0  0  0  0  0  0  0  0  0  0  0
    5.4939    0.9535    0.0000 C   0  0  0  0  0  0  0  0  0  0  0  0
    6.7569    0.1443    0.0000 C   0  0  0  0  0  0  0  0  0  0  0  0
    8.0892    0.8335    0.0000 O   0  0  0  0  0  0  0  0  0  0  0  0
  1  2  1  0
  2  3  1  0
  3  4  2  0
  4  5  1  0
  5  6  1  0
  6  7  2  0
  7  8  1  0
  8  9  2  0
  8 10  1  0
 11 10  1  6
 11 12  1  0
 12 13  1  1
 14 13  1  1
 14 15  1  0
 15 16  1  0
 16 17  2  0
 17 18  1  0
 18 19  2  0
 18 20  1  0
 17 21  1  0
 21 22  1  6
 22 23  1  0
 23 24  1  1
 23 25  1  0
 25 26  1  1
 25 27  1  0
 12 28  1  0
 28 29  1  0
 29 30  1  1
 30 31  1  0
 29 32  1  0
 32 33  1  6
 32 34  1  0
 34 35  1  1
  5 36  2  0
 36 37  1  0
 37 38  2  0
 38 39  1  0
 38  3  1  0
 34 11  1  0
 27 14  1  6
 27 21  1  0
M  END
>  <identifier>  (191) 
CNP0169225.1

>  <canonical_smiles>  (191) 
COC1=CC(/C=C/C(=O)O[C@H]2[C@H](O[C@@H]3OC=C(C(=O)O)[C@H]4C[C@H](O)[C@H](C)[C@@H]34)O[C@H](CO)[C@@H](O)[C@@H]2O)=CC=C1O

>  <standard_inchi>  (191) 
InChI=1S/C26H32O13/c1-11-16(29)8-13-14(24(33)34)10-36-25(20(11)13)39-26-23(22(32)21(31)18(9-27)37-26)38-19(30)6-4-12-3-5-15(28)17(7-12)35-2/h3-7,10-11,13,16,18,20-23,25-29,31-32H,8-9H2,1-2H3,(H,33,34)/b6-4+/t11-,13+,16-,18+,20+,21+,22-,23+,25-,26-/m0/s1

>  <standard_inchi_key>  (191) 
GALCALDKJPMULI-QZRLTIIASA-N

>  <name>  (191) 
C26H32O13

>  <iupac_name>  (191) 
(1~{S},4~{a}~{S},6~{S},7~{R},7~{a}~{S})-1-[(2~{S},3~{R},4~{S},5~{S},6~{R})-4,5-dihydroxy-3-[(~{E})-3-(4-hydroxy-3-methoxy-phenyl)prop-2-enoyl]oxy-6-(hydroxymethyl)tetrahydropyran-2-yl]oxy-6-hydroxy-7-methyl-1,4~{a},5,6,7,7~{a}-hexahydrocyclopenta[c]pyran-4-carboxylic acid

>  <annotation_level>  (191) 
5

>  <total_atom_count>  (191) 
71

>  <heavy_atom_count>  (191) 
39

>  <molecular_weight>  (191) 
552.53

>  <exact_molecular_weight>  (191) 
552.18429

>  <molecular_formula>  (191) 
C26H32O13

>  <alogp>  (191) 
-0.26

>  <topological_polar_surface_area>  (191) 
201.67

>  <rotatable_bond_count>  (191) 
8

>  <hydrogen_bond_acceptors>  (191) 
12

>  <hydrogen_bond_donors>  (191) 
6

>  <hydrogen_bond_acceptors_lipinski>  (191) 
12

>  <hydrogen_bond_donors_lipinski>  (191) 
6

>  <lipinski_rule_of_five_violations>  (191) 
3

>  <aromatic_rings_count>  (191) 
1

>  <qed_drug_likeliness>  (191) 
0.18

>  <formal_charge>  (191) 
0

>  <fractioncsp3>  (191) 
0.54

>  <number_of_minimal_rings>  (191) 
4

>  <van_der_walls_volume>  (191) 
469.86

>  <contains_sugar>  (191) 
True

>  <contains_ring_sugars>  (191) 
True

>  <contains_linear_sugars>  (191) 
False

>  <murcko_framework>  (191) 
O1C=CC2CCCC2C1OC3OCCCC3OCC=Cc4ccccc4

>  <np_likeness>  (191) 
2.45

>  <chemical_class>  (191) 
Prenol lipids

>  <chemical_sub_class>  (191) 
Terpene glycosides

>  <chemical_super_class>  (191) 
Lipids and lipid-like molecules

>  <direct_parent_classification>  (191) 
Iridoid O-glycosides

>  <np_classifier_pathway>  (191) 
Terpenoids

>  <np_classifier_superclass>  (191) 
Monoterpenoids

>  <np_classifier_class>  (191) 
Iridoids monoterpenoids

>  <np_classifier_is_glycoside>  (191) 
True

>  <organisms>  (191) 
Chiococca alba

>  <collections>  (191) 
ChemSpider NPs|Latin America dataset|NuBBEDB|Super Natural II|WikiData Natural Products|ZINC NP

>  <dois>  (191) 
10.1016/S0031-9422(99)00105-3

>  <synonyms>  (191) 
Alboside I

>  <cas>  (191) 
nan

$$$$

     RDKit          2D

 37 39  0  0  0  0  0  0  0  0999 V2000
   -6.9367    4.1580    0.0000 C   0  0  0  0  0  0  0  0  0  0  0  0
   -5.6900    3.3239    0.0000 C   0  0  0  0  0  0  0  0  0  0  0  0
   -4.3443    3.9866    0.0000 C   0  0  0  0  0  0  0  0  0  0  0  0
   -4.2453    5.4833    0.0000 C   0  0  0  0  0  0  0  0  0  0  0  0
   -3.0975    3.1525    0.0000 C   0  0  0  0  0  0  0  0  0  0  0  0
   -3.1965    1.6558    0.0000 C   0  0  0  0  0  0  0  0  0  0  0  0
   -1.9498    0.8217    0.0000 C   0  0  0  0  0  0  0  0  0  0  0  0
   -1.3449    2.1943    0.0000 C   0  0  0  0  0  0  0  0  0  0  0  0
   -2.9877   -0.2612    0.0000 C   0  0  0  0  0  0  0  0  0  0  0  0
   -4.4445    0.0961    0.0000 C   0  0  0  0  0  0  0  0  0  0  0  0
   -2.5687   -1.7015    0.0000 C   0  0  0  0  0  0  0  0  0  0  0  0
   -1.1119   -2.0589    0.0000 C   0  0  0  0  0  0  0  0  0  0  0  0
   -1.0540   -3.5578    0.0000 O   0  0  0  0  0  0  0  0  0  0  0  0
   -0.0740   -0.9759    0.0000 C   0  0  0  0  0  0  0  0  0  0  0  0
    1.3828   -1.3333    0.0000 C   0  0  0  0  0  0  0  0  0  0  0  0
    2.4207   -0.2504    0.0000 C   0  0  0  0  0  0  0  0  0  0  0  0
    2.0017    1.1900    0.0000 C   0  0  0  0  0  0  0  0  0  0  0  0
    3.0396    2.2729    0.0000 O   0  0  0  0  0  0  0  0  0  0  0  0
    4.4964    1.9156    0.0000 C   0  0  0  0  0  0  0  0  0  0  0  0
    4.9153    0.4752    0.0000 O   0  0  0  0  0  0  0  0  0  0  0  0
    5.5343    2.9985    0.0000 C   0  0  0  0  0  0  0  0  0  0  0  0
    6.9911    2.6412    0.0000 C   0  0  0  0  0  0  0  0  0  0  0  0
    5.1154    4.4388    0.0000 C   0  0  0  0  0  0  0  0  0  0  0  0
    6.1533    5.5218    0.0000 C   0  0  0  0  0  0  0  0  0  0  0  0
    0.5449    1.5473    0.0000 C   0  0  0  0  0  0  0  0  0  0  0  0
   -0.4930    0.4644    0.0000 C   0  0  0  0  0  0  0  0  0  0  0  0
    1.1154   -0.8492    0.0000 C   0  0  0  0  0  0  0  0  0  0  0  0
    2.7682   -3.6193    0.0000 O   0  0  0  0  0  0  0  0  0  0  0  0
    2.7215   -5.1186    0.0000 C   0  0  0  0  0  0  0  0  0  0  0  0
    3.9966   -5.9086    0.0000 C   0  0  0  0  0  0  0  0  0  0  0  0
    1.3997   -5.8278    0.0000 O   0  0  0  0  0  0  0  0  0  0  0  0
    0.6047   -1.3569    0.0000 O   0  0  0  0  0  0  0  0  0  0  0  0
    0.3870   -0.6705    0.0000 C   0  0  0  0  0  0  0  0  0  0  0  0
   -2.3600   -2.3613    0.0000 O   0  0  0  0  0  0  0  0  0  0  0  0
   -3.0125   -3.7120    0.0000 C   0  0  0  0  0  0  0  0  0  0  0  0
   -4.5084   -3.8223    0.0000 C   0  0  0  0  0  0  0  0  0  0  0  0
   -2.1690   -4.9524    0.0000 O   0  0  0  0  0  0  0  0  0  0  0  0
  1  2  2  0
  2  3  1  0
  3  4  1  0
  3  5  2  0
  5  6  1  0
  6  7  1  0
  7  8  1  6
  7  9  1  0
  9 10  1  1
  9 11  1  0
 11 12  1  0
 12 13  1  1
 12 14  1  0
 14 15  1  6
 15 16  2  0
 16 17  1  0
 17 18  1  6
 18 19  1  0
 19 20  2  0
 19 21  1  0
 21 22  1  0
 21 23  1  0
 23 24  1  0
 17 25  1  0
 26 25  1  6
 15 27  1  0
 27 28  1  6
 28 29  1  0
 29 30  1  0
 29 31  2  0
 27 32  1  0
 32 33  1  0
 33 34  1  6
 34 35  1  0
 35 36  1  0
 35 37  2  0
 26  7  1  0
 26 14  1  0
 33 14  1  0
M  END
>  <identifier>  (192) 
CNP0382619.7

>  <canonical_smiles>  (192) 
C=C/C(C)=C\C[C@]1(C)[C@H](C)C[C@H](O)[C@@]23C(=C[C@@H](OC(=O)C(C)CC)C[C@@H]12)[C@@H](OC(C)=O)O[C@H]3OC(C)=O

>  <standard_inchi>  (192) 
InChI=1S/C29H42O8/c1-9-16(3)11-12-28(8)18(5)13-24(32)29-22(26(34-19(6)30)37-27(29)35-20(7)31)14-21(15-23(28)29)36-25(33)17(4)10-2/h9,11,14,17-18,21,23-24,26-27,32H,1,10,12-13,15H2,2-8H3/b16-11-/t17?,18-,21-,23+,24+,26+,27-,28-,29-/m1/s1

>  <standard_inchi_key>  (192) 
FGGPIWICAGRSLN-IUJVHYMVSA-N

>  <name>  (192) 
nan

>  <iupac_name>  (192) 
[(1~{S},3~{R},5~{S},6~{a}~{S},7~{R},8~{R},10~{S},10~{a}~{S})-1,3-diacetoxy-10-hydroxy-7,8-dimethyl-7-[(2~{Z})-3-methylpenta-2,4-dienyl]-1,3,5,6,6~{a},8,9,10-octahydrobenzo[d]isobenzofuran-5-yl] 2-methylbutanoate

>  <annotation_level>  (192) 
4

>  <total_atom_count>  (192) 
79

>  <heavy_atom_count>  (192) 
37

>  <molecular_weight>  (192) 
518.65

>  <exact_molecular_weight>  (192) 
518.28797

>  <molecular_formula>  (192) 
C29H42O8

>  <alogp>  (192) 
4.62

>  <topological_polar_surface_area>  (192) 
108.36

>  <rotatable_bond_count>  (192) 
8

>  <hydrogen_bond_acceptors>  (192) 
8

>  <hydrogen_bond_donors>  (192) 
1

>  <hydrogen_bond_acceptors_lipinski>  (192) 
8

>  <hydrogen_bond_donors_lipinski>  (192) 
1

>  <lipinski_rule_of_five_violations>  (192) 
1

>  <aromatic_rings_count>  (192) 
0

>  <qed_drug_likeliness>  (192) 
0.21

>  <formal_charge>  (192) 
0

>  <fractioncsp3>  (192) 
0.69

>  <number_of_minimal_rings>  (192) 
3

>  <van_der_walls_volume>  (192) 
nan

>  <contains_sugar>  (192) 
False

>  <contains_ring_sugars>  (192) 
False

>  <contains_linear_sugars>  (192) 
False

>  <murcko_framework>  (192) 
O1CC2=CCCC3CCCCC23C1

>  <np_likeness>  (192) 
3.48

>  <chemical_class>  (192) 
Prenol lipids

>  <chemical_sub_class>  (192) 
Diterpenoids

>  <chemical_super_class>  (192) 
Lipids and lipid-like molecules

>  <direct_parent_classification>  (192) 
Colensane and clerodane diterpenoids

>  <np_classifier_pathway>  (192) 
Terpenoids

>  <np_classifier_superclass>  (192) 
Diterpenoids

>  <np_classifier_class>  (192) 
Colensane and Clerodane diterpenoids

>  <np_classifier_is_glycoside>  (192) 
True

>  <organisms>  (192) 
Casearia sylvestris

>  <collections>  (192) 
Latin America dataset|NuBBEDB|WikiData Natural Products

>  <dois>  (192) 
10.1002/PCA.902|10.1002/pca.902

>  <synonyms>  (192) 
Casearvestrin B

>  <cas>  (192) 
nan

$$$$

     RDKit          2D

 15 16  0  0  0  0  0  0  0  0999 V2000
    3.0000   -2.7713    0.0000 C   0  0  0  0  0  0  0  0  0  0  0  0
    2.2500   -1.4722    0.0000 C   0  0  0  0  0  0  0  0  0  0  0  0
    0.7500   -1.4722    0.0000 C   0  0  0  0  0  0  0  0  0  0  0  0
    0.0000   -0.1732    0.0000 C   0  0  0  0  0  0  0  0  0  0  0  0
    0.7500    1.1258    0.0000 C   0  0  0  0  0  0  0  0  0  0  0  0
   -0.0000    2.4249    0.0000 C   0  0  0  0  0  0  0  0  0  0  0  0
    0.7500    3.7239    0.0000 C   0  0  0  0  0  0  0  0  0  0  0  0
   -1.5000    2.4249    0.0000 C   0  0  0  0  0  0  0  0  0  0  0  0
   -2.2500    1.1258    0.0000 C   0  0  0  0  0  0  0  0  0  0  0  0
   -1.5000   -0.1732    0.0000 C   0  0  0  0  0  0  0  0  0  0  0  0
   -2.2500   -1.4722    0.0000 C   0  0  0  0  0  0  0  0  0  0  0  0
   -3.7500   -1.4722    0.0000 C   0  0  0  0  0  0  0  0  0  0  0  0
   -1.5000   -2.7713    0.0000 C   0  0  0  0  0  0  0  0  0  0  0  0
    2.2500    1.1258    0.0000 C   0  0  0  0  0  0  0  0  0  0  0  0
    3.0000   -0.1732    0.0000 C   0  0  0  0  0  0  0  0  0  0  0  0
  1  2  1  0
  2  3  2  0
  4  3  1  1
  4  5  1  0
  5  6  2  0
  6  7  1  0
  6  8  1  0
  8  9  1  0
  9 10  1  0
 10 11  1  6
 11 12  1  0
 11 13  1  0
  5 14  1  0
 14 15  1  0
 15  2  1  0
 10  4  1  0
M  END
>  <identifier>  (193) 
CNP0357544.3

>  <canonical_smiles>  (193) 
CC1=C[C@@H]2C(=C(C)CC[C@H]2C(C)C)CC1

>  <standard_inchi>  (193) 
InChI=1S/C15H24/c1-10(2)13-8-6-12(4)14-7-5-11(3)9-15(13)14/h9-10,13,15H,5-8H2,1-4H3/t13-,15-/m0/s1

>  <standard_inchi_key>  (193) 
FUCYIEXQVQJBKY-ZFWWWQNUSA-N

>  <name>  (193) 
(+)-delta-Cadinene

>  <iupac_name>  (193) 
(1~{S},8~{a}~{R})-1-isopropyl-4,7-dimethyl-1,2,3,5,6,8~{a}-hexahydronaphthalene

>  <annotation_level>  (193) 
5

>  <total_atom_count>  (193) 
39

>  <heavy_atom_count>  (193) 
15

>  <molecular_weight>  (193) 
204.36

>  <exact_molecular_weight>  (193) 
204.1878

>  <molecular_formula>  (193) 
C15H24

>  <alogp>  (193) 
4.73

>  <topological_polar_surface_area>  (193) 
0.00

>  <rotatable_bond_count>  (193) 
1

>  <hydrogen_bond_acceptors>  (193) 
0

>  <hydrogen_bond_donors>  (193) 
0

>  <hydrogen_bond_acceptors_lipinski>  (193) 
0

>  <hydrogen_bond_donors_lipinski>  (193) 
0

>  <lipinski_rule_of_five_violations>  (193) 
0

>  <aromatic_rings_count>  (193) 
0

>  <qed_drug_likeliness>  (193) 
0.54

>  <formal_charge>  (193) 
0

>  <fractioncsp3>  (193) 
0.73

>  <number_of_minimal_rings>  (193) 
2

>  <van_der_walls_volume>  (193) 
225.18

>  <contains_sugar>  (193) 
False

>  <contains_ring_sugars>  (193) 
False

>  <contains_linear_sugars>  (193) 
False

>  <murcko_framework>  (193) 
C1=CC2C(=CCCC2)CC1

>  <np_likeness>  (193) 
2.47

>  <chemical_class>  (193) 
Prenol lipids

>  <chemical_sub_class>  (193) 
Sesquiterpenoids

>  <chemical_super_class>  (193) 
Lipids and lipid-like molecules

>  <direct_parent_classification>  (193) 
Sesquiterpenoids

>  <np_classifier_pathway>  (193) 
Terpenoids

>  <np_classifier_superclass>  (193) 
Sesquiterpenoids

>  <np_classifier_class>  (193) 
Cadinane sesquiterpenoids

>  <np_classifier_is_glycoside>  (193) 
False

>  <organisms>  (193) 
'Salvia africana-lutea'  [ L. (1753) ]|Abies nordmanniana|Abies pinsapo|Abies sachalinensis|Abrus pulchellus|Aca sellowiana|Acca sellowiana|Achillea millefolium|Achyrospermum africanum|Acorus calamus|Acremonium furcatum|Actinodium cunninghamii|Aframomum melegueta|Agastache foeniculum|Ageratina anisochroma|Ageratum conyzoides|Aguacate|Ajuga chamaepitys|Alangium premnifolium|Alliaria petiolata|Allium victorialis|Aloysia citriodora|Aloysia citrodora|Aloysia triphylla|Alphinia galanga|Alpinia breviligulata|Alpinia latilabris|Alpinia officinarum|Alpinia zerumbet|Alstonia muelleriana|Anethum graveolens|Angelica tarokoensis|Angostura trifoliata|Aniba|Annona cascarilloides|Annona reticulata|Anthemis aciphylla|Anthemis aciphylla BOISS.var.discoidea BOISS|Antidesma laciniatum|Aphyllocladus denticulatus|Apium graveolens|Arabidopsis thaliana|Araucaria araucana|Araucaria bidwillii|Aristolochia birostris|Aristolochia cymbifera|Aristolochia debilis|Aristolochia gigantea|Aristolochia macroura|Aristolochia triangularis|Aristolochia trilobata|Artemisia alba|Artemisia annua|Artemisia annua L.|Artemisia arborescens|Artemisia argyi|Artemisia capillaris|Artemisia cina|Artemisia herba-alba|Artemisia montana|Artemisia princeps|Artemisia xerophytica|Arthrophytum leptocladum|Arum maculatum|Asarum celsum|Asarum lutchuense|Asarum simile|Aster scaber|Asteriscus sericeus|Atalantia buxifolia|Austrobaileya scandens|Austromyrtus dulcis|Austromyrtus tenuifolia|Azadirachta indica|Baccharis articulata|Baccharis dracunculifolia|Baccharis genistelloides|Baccharis gnidiifolia|Baccharis rufescens|Baccharis sagittalis|Baccharis venosa|Baeckea frutescens|Baeckea frutescens L.|Beilschmiedia pendula|Bidens bipinnata|Bitter bush|Blepharis sindica|Bombax ceiba|Bouchardatia neurococca|Boykinia tellimoides|Bragantia wallichii|Breonia chinensis|Bupleurum acutifolium|Bupleurum chinense|Bupleurum falcatum|Bupleurum fruticescens|Bupleurum gibraltaricum|Bupleurum scorzonerifolium|Callistemon linearis|Calycolpus warszewiczianus|Calypogeia muelleriana|Camellia sinensis|Campylotropis hirtella|Cananga odorata|Canarium luzonicum|Cannabis sativa|Cantinoa mutabilis|Capsicum annuum|Carpesium abrotanoides|Carthamus tinctorius|Cassinia laevis|Cassinia longifolia|Cassinia uncata|Cavernulina grandiflora|Cellulomonas biazotea|Centella asiatica|Centratherum punctatum|Ceropegia dichotoma|Chamaecyparis formosensis|Chamaecyparis lawsoniana|Chamaecyparis lawsoniana (A. Murray bis) Parl.|Chamaecyparis pisifera|Chamomilla recutita|Chamonixia caespitosa|Chimonanthus praecox|Chromolaena morii|Chrysanthemum indicum|Chrysanthemum x morifolium|Cinnamomum camphora|Cinnamomum illicioides|Cinnamomum parthenoxylon|Cinnamomum sieboldii|Cinnamomum zeylanicum|Cinnamon|Cistus albidus|Cistus creticus|Cistus ladanifer|Cistus laurifolius|Cistus monspeliensis|Citrus|Citrus grandis|Citrus reticulata|Citrus × deliciosa|Citrus × paradisi|Cladonia squamosa|Cladosporium tenuissimum|Clausena excavata|Cleistopholis patens|Colobocentrotus atratus|Commiphora gurreh|Commiphora holtziana|Commiphora kataf|Commiphora quadricincta|Commiphora sphaerocarpa|Conyza incana|Copaifera langsdorffii|Copaifera langsdorfii|Copaifera multijuga|Corbicula fluminea|Coreopsis nodosa|Corymbia citriodora|Corymbia maculata|Craibiodendron yunnanese|Crinum moorei|Crotalaria candicans|Croton adenocalyx|Croton eluteria|Croton hemiargyreus|Croton nepetifolius|Croton sonderianus|Cryptocarya agathophylla|Cryptocarya cunninghamii|Cryptomeria japonica|Cucumaria frondosa|Culcitium canescens|Cupressus sempervirens|Curcuma aeruginosa|Curcuma aromatica|Curcuma pierreana|Curcuma trichosantha|Curcuma wenyujin|Cyathocline purpurea|Cymbopogon flexuosus|Cymbopogon martinii|Cymbopogon nardus|Cyperus alopecuroides|Cyperus rotundus|Dacrydium cupressinum|Daniellia oliveri|Daphne genkwa|Daphne odora|Daucus carota|Delphinium andersoni|Dendrobium loddigesii|Dendropanax trifidus|Dictyopteris divaricata|Diphasia angolensis|Distephanus angulifolius|Ducrosia ismaelis|Duguetia confinis|Echinacea purpurea|Echinus auritus|Ekimia bornmuelleri|Elsholtzia blanda|Elsholtzia fruticosa|Entandrophragma cylindricum|Epimedium davidii|Eremanthus arboreus|Eria japonica|Erigeron canadensis|Erysimum odoratum|Etlingera cevuga|Etlingera elatior|Etlingera pavieana|Eucalyptus angulosa|Eucalyptus apodophylla|Eucalyptus behriana|Eucalyptus ceratocorys|Eucalyptus citriodora|Eucalyptus cloeziana|Eucalyptus cuprea|Eucalyptus dealbata|Eucalyptus dolichorhyncha|Eucalyptus fasciculosa|Eucalyptus forrestiana|Eucalyptus globulus|Eucalyptus globulus subsp. bicostata|Eucalyptus incrassata|Eucalyptus intertexta|Eucalyptus lansdowneana|Eucalyptus leucoxylon|Eucalyptus melanophloia|Eucalyptus melliodora|Eucalyptus nova-anglica|Eucalyptus ochrophloia|Eucalyptus odorata|Eucalyptus populnea|Eucalyptus porosa|Eucalyptus sparsa|Eucalyptus stoatei|Eucalyptus tetraptera|Eucalyptus viridis|Eugenia dysenterica|Eupatorium cannabinum|Eupatorium capillifolium|Eupolyphaga sinensis|Euryops arabicus|Eutypella scoparia|Exodermis poria|Ferula flabelliloba|Ficus carica|Fragaria indica|Frullania brittoniae|Frullania tamarisci|Galenia africana|Ganoderma lucidum|Garcinia mangostana|Globba malaccensis|Glycine tomentella|Glycosmis macrophylla|Gnidia lamprantha|Gossypium arboreum|Gossypium barbadense|Grazielia serrata|Grindelia hirsutula|Guatteriopsis blepharophylla|Guatteriopsis hispida|Gymnodinium nagasakiense|Gypsophila perfoliata|Haematococcus lacustris|Halocarpus bidwillii|Halocarpus biformis|Hamamelis virginiana|Hansenia forbesii|Hansenia weberbaueriana|Haplostichanthus johnsonii|Hardwickia pinnata Roxb.|Hedychium coronarium|Hedychium spicatum|Hedyosmum costaricense|Helianthopsis microphylla|Helichrysum bracteiferum|Helichrysum cephaloideum|Helichrysum chionosphaerum|Helichrysum kraussii|Helichrysum odoratissimum|Helichrysum stoechas|Heracleum dissectum|Heteranthemis viscidehirta|Heterotheca grandiflora|Heterotheca inuloides|Hexalobus crispiflorus|Hippasteria kurilensis|Homo sapiens|Houttuynia cordata|Humulus lupulus|Hypericum coris|Hypericum perfoliatum|Hypericum perforatum|Hypericum polyanthemum|Hypericum rumeliacum|Hypoestes phyllostachya|Hypoxylon rubiginosum|Hyptis emoryi|Hyptis mutabilis|Hyssopus officinalis|Ilex amara|Illicium anisatum|Illicium verum|Iris tectorum|Isocoma coronopifolia|Isodon japonicus|Jugo|Juniperus comitana|Juniperus communis|Juniperus drupacea|Juniperus durangensis|Juniperus foetidissima|Juniperus gamboana|Juniperus jaliscana|Juniperus monticola|Juniperus oxycedrus|Juniperus rigida|Juniperus standleyi|Juniperus taxifolia|Karenia mikimotoi|Knightia excelsa|Koanophyllon albicaule|Koanophyllon albicaulis|Kumquat|Kunzea|Kunzea salina|Laggera alata|Lamellodysidea herbacea|Lantana camara|Larix gmelinii var. gmelinii|Larix gmelinii var. olgensis|Larix kaempferi|Latua pubiflora|Launea|Laurencia dendroidea|Laurencia distichophylla|Laurencia microcladia|Lavandula latifolia|Lavandula stoechas|Lentinellus cochleatus|Leonotis leonurus|Leonurus glaucescens|Lepechinia floribunda|Lepechinia urbani|Lepechinia urbanii|Lepidium draba|Lepidozia vitrea|Leptospermum scoparium|Levisticum officinale|Ligusticum chuanxiong|Lippia abyssinica|Lippia adoensis|Lippia alba|Lippia dulcis|Lippia multiflora|Liquidambar orientalis|Liquidambar styraciflua|Lobelia st|Maba buxifolia|Magnolia officinalis|Manekia naranjoana|Mangifera indica|Marrubium parviflorum|Marsupella emarginata|Martensia denticulata|Matricaria chamomilla|Matsutake|Melaleuca alternifolia|Melaleuca leucadendra|Melaleuca leucadendra L.|Melaleuca linariifolia|Melaleuca quinquenervia|Melia azadirach|Melia azedarach|Melia azedarach var. toosendan|Melissa officinalis|Mentha arvensis L.|Mentha cardiaca|Mentha piperita|Mentha spicata|Menyanthes trifoliata|Micromeria biflora|Micromeria maderensis|Micromeria myrtifolia|Micromeria pineolens|Micromeria sinaica|Mikania banisteriae|Mikania congesta|Mikania cordifolia|Mikania parviflora|Minuria leptophylla|Monardella hypoleuca|Montanoa hibiscifolia|Morina persica|Mosla chinensis|Mucuna prurita|Murraya gleniei|Myrcia hedraiophylla|Myrcia tricona|Nectandra salicina|Nemalion vermiculare|Neolentinus lepideus|Nepeta nuda|Nepeta racemosa|Nepeta viscida|Nicotiana tabacum|Nicotiana undulata|Nidula candida|Ocimum basilicum|Ocimum gratissimum|Ocotea austinii|Ocotea gomezii|Ocotea longifolia|Ocotea morae|Ocotea valeriana|Olearia phlogopappa|Ononis spinosa|Ophiocoma scolopendrina|Ophryosporus charua|Origanum acutidens|Origanum adanense|Origanum cordifolium|Origanum dubium|Origanum sipyleum|Origanum vulgare|Orthosiphon aristatus|Orthosiphon grandiflorus|Osbornia octodonta|Ostericum grosseserratum|Panax ginseng|Panax notoginseng|Panax schinseng|Pappobolus microphyllus|Passiflora incarnata|Pectis elongata|Pelargonium citronellum|Pelargonium endlicherianum|Pelargonium quercifolium|Pelargonium ternifolium|Pelargonium vitifolium|Penicillium citreonigrum|Pentaclethra macrophylla|Perilla frutescens|Periploca sepium|Persea tolimanensis|Persicaria hydropiperoides|Persicaria minor|Petasites albus|Petasites hybridus|Petroselinum crispum|Peucedanum paniculatum|Peucedanum paniculatum L.|Peucedanum zenkeri|Phebalium gracile|Philadelphia fleabane|Phlomis lanata|Phyla nodiflora|Picea abies|Picea glehnii|Picea koraiensis|Picea orientalis|Pilgerodendron uviferum|Pilocarpus|Pilocarpus jaborandi|Pilocarpus microphyllus|Pilocarpus pauciflorus|Pimenta dioica|Pimenta racemosa|Pinus densiflora var. densiflora|Pinus eldarica|Pinus halepensis|Pinus heldreichii|Pinus kochiana|Pinus pallasiana|Pinus pinaster|Pinus pumila|Pinus sibirica|Pinus sosnowskyi|Pinus sylvestris|Pinus sylvestris L.var.sylvestris.|Piper aduncum|Piper anisum|Piper arboreum|Piper augustum|Piper auritum|Piper betle|Piper cernuum|Piper corcovadense|Piper fimbriulatum|Piper gaudichaudianum|Piper lanceaefolium|Piper marginatum|Piper nigrum|Piper obliquum|Piper regnellii|Pistacia vera|Pittosporum balfourii|Platostoma africanum|Platycladus orientalis|Plectranthus myrianthus|Plumeria rubra|Podocarpus macrophyllus|Podocarpus macrophyllus var. maki|Pogostemon cablin|Polemannia montana|Polygala senega|Porcelia macrocarpa|Prangos uechtritzii|Prangos uloptera|Protium heptaphyllum|Prumnopitys andina|Prumnopitys ferruginoides|Prumnopitys taxifolia|Psiadia altissima|Psidium friedrichsthalianum|Psidium guajava|Psidium salutare|Pterocarpus dalbergioides|Pterocaulon virgatum|Pterocladiella tenuis|Pteronia camphorata|Ptychopetalum olacoides|Pulicaria arabica|Quercus coccifera|Quercus sessiliflora|Remijia pedunculata|Rhodiola semenovii|Rhododendron dauricum|Rhododendron groenlandicum|Rhododendron mucronulatum|Rhododendron tomentosum|Rosmarinus eriocalyx|Rosmarinus officinalis|Rosmarinus officinalis L.|Rosmarinus tomentosus|Rudbeckia hirta|Saccharomyces pastori|Salacia madagascariensis|Salvia absconditiflora|Salvia aurea|Salvia brandegeei|Salvia caespitosa|Salvia cinnabarina|Salvia columbariae|Salvia dorisiana|Salvia fruticosa|Salvia granatensis|Salvia grandiflora|Salvia ianthina|Salvia jordanii|Salvia mellifera|Salvia mirzayanii|Salvia munzii|Salvia officinalis|Salvia pomifera|Salvia sclarea|Salvia sessei|Salvia syriaca|Salvia tomentosa|Salvia triloba|Santolina chamaecyparissus|Saracha viscosa|Sarcodon aspratus|Satureja montana|Satureja spicigera|Satureja wiedemanniana|Saussurea carthamoides|Scapania undulata|Schinus lentiscifolia|Schinus lentiscifolius|Schinus molle|Schisandra chinensis|Schisandra sphenanthera|Scutellaria lateriflora|Senecio alcicornis|Senecio chrysanthemoides|Senecio nutans|Senecio paludaffinis|Sequoia sempervirens|Sequoiadendron giganteum|Seseli farrenyi|Sideritis argyrea|Sideritis brevidens|Sideritis chamaedryfolia|Sideritis condensata|Sideritis congesta|Sideritis cretica|Sideritis dichotoma|Sideritis hispida|Sideritis javalambrensis|Sideritis lanata|Sideritis leucantha|Sideritis linearifolia|Sideritis lyciae|Sideritis montana|Sideritis pungens|Sideritis reverchonii|Sideritis rubriflora|Sideritis syriaca|Sideritis tragoriganum|Siegesbeckia orientalis|Sinopodophyllum emodi|Siparuna thecaphora|Solanum acaule|Solanum incisum|Solanum lycopersicum|Solanum stuckertii|Solanum toxicarum|Solidago canadensis|Solidago canadensis L.|Solidago gigantea Aiton|Solidago nemoralis Aiton|Sonneratia caseolaris|Spodoptera eridania|Spondias mombin|Spongia australis|Stachys aegyptiaca|Stachys atherocalyx|Steiractinia sodiroi|Stelletta inconspicua|Stephania zippeliana|Stockwellia|Streptomyces citreus CBS 109.60|Streptomyces flocculus|Streptomyces griseovariabilis|Strychnos tomentosa|Sundacarpus amarus|Swertia delavayi|Swertia japonica|Syzygium aromaticum|Syzygium cumini|Syzygium nervosum|Tachigalia paniculata|Tagetes lucida|Tagetes minuta|Talaromyces variabilis|Tanacetum millefolium|Tanacetum parthenium|Tanacetum vulgare|Taonia atomaria|Telanthophora grandifolia|Tessaria fastigiata|Tetradenia riparia|Teucrium asiaticum|Teucrium cyprium|Teucrium kotschyanum|Teucrium leucocladum|Teucrium micropodioides|Teucrium oxylepis|Teucrium polium|Teucrium pseudoscorodonia|Teucrium salviastrum|Teucrium sandrasicum|Teucrium scorodonia|Teucrium stocksianum|Thalictrum sachalinense|Thapsia garganica|Thapsia villosa|Thecocarpus carvifolius|Thuja occidentalis|Thuja standishii|Thymbra capitata|Thymbra spicata|Thymus broussonetii|Thymus camphoratus|Thymus capitatus|Thymus eigii|Thymus funkii|Thymus longicaulis|Thymus longiflorus|Thymus orespedanus|Thymus riatarum|Thymus vulgaris|Thymus willkommii|Thymus zygioides|Tithonia diversifolia|Trichia favoginea|Trichothecium sympodiale|Trigonella grandiflora|Tripolium pannonicum|Tristania conferta|Uvaria calamistrata|Uvaria chamae|Vaccinium vitis-idaea|Valeriana jatamansi|Valeriana officinalis|Vallota purpurea|Varronia curassavica|Verbesina diversifolia|Vernonia cistifolia|Veronica polita|Vicia cracca|Virola surinamensis|Vismia jefensis|Warburgia stuhlmannii|Warburgia ugandensis|West African Pepper|Xanthium orientale|Xanthium strumarium|Xenophyllum poposum|Xylopia aethiopica|Xylopia phloiodora|Xylopia sericea|Zanthoxylum gardneri|Zanthoxylum schinifolium|Zanthoxylum simulans|Zingiber cassumunar Roxb.|Zingiber officinale|Ziziphora hispanica|basil|bellis perennis|candyleaf|clove|common myrtle|common sunflower|maize|marjoram|pomelo|potato

>  <collections>  (193) 
ANPDB|Australian natural products|CMAUP (cCollective molecular activities of useful plants)|CMNPD|ChEBI NPs|EMNPD|FooDB|KNApSaCK|Latin America dataset|NANPDB (Natural Products from Northern African Sources)|NAPRORE-CR|NPASS|NPAtlas|NPDBEjeCol|NPEdia|NuBBEDB|Phyto4Health|SANCDB|Seaweed Metabolite Database (SWMD)|Super Natural II|TCMDB-Taiwan (Traditional Chinese Medicine database)|TIPdb (database of Taiwan indigenous plants)|TPPT (Toxic Plants–PhytoToxins)|UEFS (Natural Products Databse of the UEFS)|WikiData Natural Products

>  <dois>  (193) 
10.1002/(SICI)1099-1026(199601)11:1<15::AID-FFJ541>3.0.CO;2-H|10.1002/(SICI)1099-1026(199611)11:6<367::AID-FFJ598>3.0.CO;2-R|10.1002/(SICI)1099-1026(199701)12:1<47::AID-FFJ610>3.0.CO;2-7|10.1002/(SICI)1099-1026(199901/02)14:1<12::AID-FFJ763>3.0.CO;2-7|10.1002/(SICI)1099-1565(200003/04)11:2<99::AID-PCA494>3.0.CO;2-9|10.1002/(SICI)1099-1573(1998)12:1+<S117::AID-PTR269>3.0.CO;2-2|10.1002/1099-1026(200005/06)15:3<201::AID-FFJ893>3.0.CO;2-I|10.1002/1099-1026(200009/10)15:5<352::AID-FFJ925>3.0.CO;2-R|10.1002/1099-1026(200009/10)15:5<352::aid-ffj925>3.0.co;2-r|10.1002/CBDV.201100059|10.1002/CBDV.201300390|10.1002/CBDV.201800531|10.1002/CHEM.200305023|10.1002/ECE3.5390|10.1002/FFJ.1128|10.1002/FFJ.1175|10.1002/FFJ.1281|10.1002/FFJ.1305|10.1002/FFJ.2730010103|10.1002/FFJ.2730010304|10.1002/FFJ.2730030106|10.1002/FFJ.2730030204|10.1002/FFJ.2730030208|10.1002/FFJ.2730040302|10.1002/FFJ.2730050205|10.1002/FFJ.2730050307|10.1002/FFJ.2730060110|10.1002/FFJ.2730060307|10.1002/FFJ.2730070108|10.1002/FFJ.2730070109|10.1002/FFJ.2730090107|10.1002/FFJ.2730090203|10.1002/FFJ.2730090305|10.1002/FFJ.2730100203|10.1002/FFJ.2730100310|10.1002/FFJ.2730100313|10.1002/FFJ.2730100408|10.1002/FFJ.2730100605|10.1002/FFJ.2730100609|10.1002/FFJ.979|10.1002/HLCA.201200359|10.1002/JSFA.4146|10.1002/JSSC.200800253|10.1002/JSSC.200900378|10.1002/PCA.1296|10.1002/PCA.594|10.1002/PTR.1093|10.1002/biuz.19840140514|10.1002/chem.200305023|10.1002/ffj.2730030109|10.1006/JFCA.1999.0841|10.1007/978-0-85729-323-7_1048|10.1007/BF00567284|10.1007/BF00567793|10.1007/BF00568367|10.1007/BF00570218|10.1007/BF00576212|10.1007/BF00576230|10.1007/BF00577187|10.1007/BF00579758|10.1007/BF00579988|10.1007/BF00580907|10.1007/BF00713346|10.1007/BF01386197|10.1007/BF01959201|10.1007/BF01970171|10.1007/BF02238211|10.1007/BF02269705|10.1007/BF02282508|10.1007/BF02312888|10.1007/S10068-015-0261-2|10.1007/S10086-018-1773-1|10.1007/S11418-007-0175-2|10.1016/0031-9422(75)85347-7|10.1016/0031-9422(79)80182-X|10.1016/0031-9422(80)85153-3|10.1016/0031-9422(81)80052-0|10.1016/0031-9422(82)80025-3|10.1016/0031-9422(82)83091-4|10.1016/0031-9422(83)85029-8|10.1016/0031-9422(83)85052-3|10.1016/0031-9422(86)88017-7|10.1016/0031-9422(88)80286-3|10.1016/0031-9422(88)80313-3|10.1016/0031-9422(88)80452-7|10.1016/0031-9422(88)80461-8|10.1016/0031-9422(88)80683-6|10.1016/0031-9422(88)83027-9|10.1016/0031-9422(88)83114-5|10.1016/0031-9422(89)80126-8|10.1016/0031-9422(89)80195-5|10.1016/0031-9422(90)80178-J|10.1016/0031-9422(90)85269-L|10.1016/0031-9422(90)85270-P|10.1016/0031-9422(90)85421-B|10.1016/0031-9422(90)85434-H|10.1016/0031-9422(91)83064-R|10.1016/0031-9422(91)83632-U|10.1016/0031-9422(91)84207-9|10.1016/0031-9422(92)80160-G|10.1016/0031-9422(92)83462-8|10.1016/0031-9422(95)00066-G|10.1016/0031-9422(95)00183-8|10.1016/0031-9422(95)00357-D|10.1016/0031-9422(95)00522-9|10.1016/0031-9422(95)00601-X|10.1016/0305-1978(85)90081-X|10.1016/0305-1978(89)90098-7|10.1016/0305-1978(95)00026-Q|10.1016/0305-1978(96)00023-3|10.1016/0378-8741(86)90105-4|10.1016/0378-8741(91)90062-I|10.1016/0378-8741(91)90063-J|10.1016/J.ARABJC.2012.04.042|10.1016/J.BSE.2003.12.009|10.1016/J.CHROMA.2004.11.095|10.1016/J.CHROMA.2014.10.058|10.1016/J.FOODCHEM.2008.09.107|10.1016/J.FOODCHEM.2012.09.111|10.1016/J.FOODRES.2018.12.054|10.1016/J.INDCROP.2014.04.048|10.1016/J.INDCROP.2014.11.043|10.1016/J.JEP.2012.11.045|10.1016/J.JPLPH.2018.10.006|10.1016/J.LWT.2018.05.011|10.1016/J.PHYMED.2010.03.020|10.1016/J.PHYMED.2011.12.003|10.1016/J.PHYTOCHEM.2003.08.004|10.1016/J.PHYTOCHEM.2003.10.018|10.1016/J.PHYTOCHEM.2004.03.019|10.1016/J.PHYTOCHEM.2005.07.001|10.1016/J.PHYTOCHEM.2005.10.025|10.1016/J.PHYTOCHEM.2008.02.017|10.1016/J.PHYTOCHEM.2009.03.012|10.1016/J.PHYTOCHEM.2009.06.013|10.1016/J.PHYTOCHEM.2011.09.002|10.1016/J.PHYTOCHEM.2018.06.006|10.1016/J.PHYTOCHEM.2019.112249|10.1016/S0031-9422(00)00131-X|10.1016/S0031-9422(00)00284-3|10.1016/S0031-9422(00)00374-5|10.1016/S0031-9422(00)80081-3|10.1016/S0031-9422(00)80279-4|10.1016/S0031-9422(00)80325-8|10.1016/S0031-9422(00)80558-0|10.1016/S0031-9422(00)81313-8|10.1016/S0031-9422(00)81445-4|10.1016/S0031-9422(00)81508-3|10.1016/S0031-9422(00)81569-1|10.1016/S0031-9422(00)81571-X|10.1016/S0031-9422(00)81573-3|10.1016/S0031-9422(00)82440-1|10.1016/S0031-9422(00)82471-1|10.1016/S0031-9422(00)82620-5|10.1016/S0031-9422(00)83061-7|10.1016/S0031-9422(00)83062-9|10.1016/S0031-9422(00)83199-4|10.1016/S0031-9422(00)83606-7|10.1016/S0031-9422(00)83763-2|10.1016/S0031-9422(00)84088-1|10.1016/S0031-9422(00)84581-1|10.1016/S0031-9422(00)84709-3|10.1016/S0031-9422(00)84743-3|10.1016/S0031-9422(00)84802-5|10.1016/S0031-9422(00)94990-2|10.1016/S0031-9422(00)95102-1|10.1016/S0031-9422(00)95204-X|10.1016/S0031-9422(00)97558-7|10.1016/S0031-9422(00)97879-8|10.1016/S0031-9422(01)00018-8|10.1016/S0031-9422(01)00301-6|10.1016/S0031-9422(01)00322-3|10.1016/S0031-9422(02)00006-7|10.1016/S0031-9422(02)00214-5|10.1016/S0031-9422(96)00559-6|10.1016/S0031-9422(96)00691-7|10.1016/S0031-9422(96)00749-2|10.1016/S0031-9422(97)00016-2|10.1016/S0031-9422(97)00117-9|10.1016/S0031-9422(97)00762-0|10.1016/S0031-9422(97)00795-4|10.1016/S0031-9422(97)01124-2|10.1016/S0031-9422(97)84397-X|10.1016/S0031-9422(98)00283-0|10.1016/S0031-9422(99)00050-3|10.1016/S0031-9422(99)00601-9|10.1016/S0040-4020(01)91707-7|10.1016/S0305-1978(00)00103-4|10.1016/S0367-326X(00)00154-4|10.1016/S0367-326X(01)00327-6|10.1016/S0367-326X(01)00367-7|10.1016/S0367-326X(02)00171-5|10.1016/S0378-8741(00)00214-2|10.1016/S0378-8741(01)00211-2|10.1016/S0378-8741(99)00072-0|10.1016/S0926-6690(03)00076-1|10.1016/S0944-7113(98)80048-2|10.1016/j.foodchem.2020.127109|10.1016/j.phytochem.2019.112249|10.1021/JF00034A020|10.1021/JF00034A033|10.1021/JF00035A029|10.1021/JF00069A028|10.1021/JF00073A015|10.1021/JF00083A001|10.1021/JF00098A007|10.1021/JF00104A026|10.1021/JF00116A075|10.1021/JF00118A056|10.1021/JF00125A044|10.1021/JF0116303|10.1021/JF0402633|10.1021/JF040437G|10.1021/JF60199A051|10.1021/JF902669D|10.1021/JF950577D|10.1021/JF981170M|10.1021/JO00200A028|10.1021/JO040272A|10.1021/NP030475E|10.1021/NP400872M|10.1021/NP50006A014|10.1021/NP50008A001|10.1021/NP50009A015|10.1021/NP50012A010|10.1021/NP50017A018|10.1021/NP50028A031|10.1021/NP50034A016|10.1021/NP50034A038|10.1021/NP50034A039|10.1021/NP50034A042|10.1021/NP50034A044|10.1021/NP50035A028|10.1021/NP50038A026|10.1021/NP50039A032|10.1021/NP50039A037|10.1021/NP50040A037|10.1021/NP50040A040|10.1021/NP50041A038|10.1021/NP50044A039|10.1021/NP50045A046|10.1021/NP50046A033|10.1021/NP50048A037|10.1021/NP50048A039|10.1021/NP50051A029|10.1021/NP50051A035|10.1021/NP50052A041|10.1021/NP50121A011|10.1021/NP960344W|10.1021/NP960732Y|10.1021/NP980445P|10.1021/jf011456i|10.1021/np400872m|10.1021/np50017a018|10.1039/np9840100251|10.1055/S-0028-1097609|10.1055/S-2000-8627|10.1055/S-2000-9780|10.1055/S-2001-18363|10.1055/S-2006-957420|10.1055/S-2006-957488|10.1055/S-2006-957489|10.1055/S-2006-957640|10.1055/S-2006-957641|10.1055/S-2006-959581|10.1055/S-2006-959674|10.1055/S-2006-959755|10.1055/S-2006-960024|10.1055/S-2006-960034|10.1055/S-2006-960216|10.1055/S-2006-960872|10.1055/S-2006-960930|10.1055/S-2006-960939|10.1055/S-2006-961490|10.1055/S-2006-962016|10.1055/S-2006-962093|10.1055/S-2006-962450|10.1055/S-2006-962688|10.1055/S-2007-969136|10.1055/S-2007-969160|10.1055/S-2007-969171|10.1055/S-2007-969241|10.1055/S-2007-969499|10.1055/S-2007-969599|10.1055/S-2007-969948|10.1055/S-2008-1074841|10.1076/1388-0209(200004)3821-1FT106|10.1076/1388-0209(200007)3831-SFT197|10.1076/PHBI.35.3.218.13295|10.1080/00387018508062249|10.1080/0972060X.2014.895210|10.1080/0972060x.2009.10643771|10.1080/10412905.1989.9697758|10.1080/10412905.1989.9697801|10.1080/10412905.1989.9699438|10.1080/10412905.1989.9699439|10.1080/10412905.1990.9697829|10.1080/10412905.1990.9697845|10.1080/10412905.1990.9697864|10.1080/10412905.1990.9697873|10.1080/10412905.1990.9697875|10.1080/10412905.1991.9697898|10.1080/10412905.1991.9697905|10.1080/10412905.1991.9697930|10.1080/10412905.1991.9697936|10.1080/10412905.1991.9697952|10.1080/10412905.1991.9697953|10.1080/10412905.1991.9697959|10.1080/10412905.1991.9697963|10.1080/10412905.1991.9697973|10.1080/10412905.1991.9697985|10.1080/10412905.1991.9700498|10.1080/10412905.1992.9698006|10.1080/10412905.1992.9698015|10.1080/10412905.1992.9698035|10.1080/10412905.1992.9698043|10.1080/10412905.1992.9698069|10.1080/10412905.1992.9698070|10.1080/10412905.1992.9698072|10.1080/10412905.1992.9698083|10.1080/10412905.1992.9698084|10.1080/10412905.1992.9698109|10.1080/10412905.1992.9698125|10.1080/10412905.1992.9698127|10.1080/10412905.1992.9698129|10.1080/10412905.1992.9698130|10.1080/10412905.1992.9698149|10.1080/10412905.1992.9698155|10.1080/10412905.1993.9698162|10.1080/10412905.1993.9698164|10.1080/10412905.1993.9698170|10.1080/10412905.1993.9698174|10.1080/10412905.1993.9698177|10.1080/10412905.1993.9698184|10.1080/10412905.1993.9698189|10.1080/10412905.1993.9698205|10.1080/10412905.1993.9698214|10.1080/10412905.1993.9698216|10.1080/10412905.1993.9698235|10.1080/10412905.1993.9698243|10.1080/10412905.1993.9698253|10.1080/10412905.1993.9698279|10.1080/10412905.1993.9698282|10.1080/10412905.1994.9698327|10.1080/10412905.1994.9698330|10.1080/10412905.1994.9698332|10.1080/10412905.1994.9698337|10.1080/10412905.1994.9698350|10.1080/10412905.1994.9698359|10.1080/10412905.1994.9698361|10.1080/10412905.1994.9698380|10.1080/10412905.1994.9698382|10.1080/10412905.1994.9698387|10.1080/10412905.1994.9698395|10.1080/10412905.1994.9698400|10.1080/10412905.1994.9698408|10.1080/10412905.1994.9698414|10.1080/10412905.1994.9698417|10.1080/10412905.1994.9698418|10.1080/10412905.1994.9698427|10.1080/10412905.1994.9698433|10.1080/10412905.1994.9698435|10.1080/10412905.1994.9698440|10.1080/10412905.1994.9698446|10.1080/10412905.1994.9698447|10.1080/10412905.1994.9699344|10.1080/10412905.1994.9699347|10.1080/10412905.1994.9699358|10.1080/10412905.1994.9699362|10.1080/10412905.1994.9699366|10.1080/10412905.1995.9698462|10.1080/10412905.1995.9698464|10.1080/10412905.1995.9698468|10.1080/10412905.1995.9698473|10.1080/10412905.1995.9698479|10.1080/10412905.1995.9698496|10.1080/10412905.1995.9698501|10.1080/10412905.1995.9698508|10.1080/10412905.1995.9698516|10.1080/10412905.1995.9698524|10.1080/10412905.1995.9698530|10.1080/10412905.1995.9698531|10.1080/10412905.1995.9698555|10.1080/10412905.1995.9698558|10.1080/10412905.1995.9698575|10.1080/10412905.1995.9698581|10.1080/10412905.1995.9700529|10.1080/10412905.1996.9700554|10.1080/10412905.1996.9700558|10.1080/10412905.1996.9700559|10.1080/10412905.1996.9700562|10.1080/10412905.1996.9701028|10.1080/10412905.1996.9701048|10.1080/10412905.1997.9700708|10.1080/10412905.1997.9700709|10.1080/10412905.1997.9700721|10.1080/10412905.1997.9700728|10.1080/10412905.1997.9700774|10.1080/10412905.1997.9700778|10.1080/10412905.1997.9700812|10.1080/10412905.1998.9700842|10.1080/10412905.1998.9700844|10.1080/10412905.1998.9700856|10.1080/10412905.1998.9700883|10.1080/10412905.1998.9700913|10.1080/10412905.1998.9700962|10.1080/10412905.1998.9700992|10.1080/10412905.1998.9701015|10.1080/10412905.1999.9701056|10.1080/10412905.1999.9701096|10.1080/10412905.1999.9701102|10.1080/10412905.1999.9701111|10.1080/10412905.1999.9701138|10.1080/10412905.1999.9701144|10.1080/10412905.2000.9699486|10.1080/10412905.2000.9699554|10.1080/10412905.2000.9699569|10.1080/10412905.2000.9712032|10.1080/10412905.2000.9712159|10.1080/10412905.2000.9712167|10.1080/10412905.2001.9699592|10.1080/10412905.2001.9699706|10.1080/10412905.2002.9699759|10.1080/10412905.2007.9699946|10.1080/10412905.2008.9699963|10.1080/10412905.2010.9700320|10.1080/10412905.2010.9700338|10.1080/10412905.2013.796498|10.1080/10412905.2018.1431966|10.1080/10575630108041259|10.1080/10575630108041276|10.1080/14620316.2003.11511610|10.1080/14786410500528478|10.1088/1752-7155/8/1/014001|10.1093/CHROMSCI/38.6.234|10.1094/ASBCJ-59-0222|10.1094/ASBCJ-60-0204|10.1111/J.1365-2621.1985.TB10476.X|10.1128/aem.62.4.1295-1299.1996|10.1135/CCCC19610811|10.1135/CCCC19611362|10.1177/1934578X1100600135|10.1246/BCSJ.37.1029|10.1246/BCSJ.51.3395|10.1246/BCSJ.54.2366|10.1246/BCSJ.56.3477|10.1246/CL.1979.1137|10.1246/NIKKASHI1948.83.3_350|10.1248/CPB.52.354|10.1248/CPB.54.222|10.1248/YAKUSHI1947.106.1_17|10.1271/BBB1961.45.1493|10.1271/BBB1961.45.373|10.1271/BBB1961.45.507|10.1271/BBB1961.47.483|10.1271/BBB1961.49.1583|10.1271/BBB1961.55.2571|10.14233/AJCHEM.2013.14346|10.1515/ZNC-1984-7-802|10.1515/ZNC-1984-7-803|10.1515/ZNC-1986-11-1201|10.1515/ZNC-2002-11-1206|10.1590/S0100-40422009000200028|10.1590/S0103-50532000000600012|10.1590/S0103-50532003000100004|10.1590/S0103-50532011000400018|10.1631/JZUS.B1200086|10.17660/ACTAHORTIC.1999.500.11|10.17660/ACTAHORTIC.2005.677.9|10.2307/2423424|10.23850/24220582.3465|10.23893/1307-2080.APS.05611|10.2478/V10007-009-0022-Y|10.3109/13880200903311136|10.3109/13880208709060907|10.3109/13880208709088136|10.3109/13880209109082875|10.3109/13880209109082876|10.3109/13880209109082877|10.3390/12030283|10.3390/12030389|10.3390/MOLECULES15107006|10.3390/MOLECULES200610298|10.3390/MOLECULES21060814|10.3390/MOLECULES22030335|10.3390/MOLECULES24112053|10.3390/MOLECULES24234244|10.3724/SP.J.1238.2012.00106|10.3891/ACTA.CHEM.SCAND.15-0721|10.3891/ACTA.CHEM.SCAND.15-0961|10.3891/ACTA.CHEM.SCAND.21-2076|10.3906/KIM-1206-45|10.4324/9780203219430_CHAPTER_13|10.5650/JOS1956.35.176|10.5897/JMPR10.078|10.5897/JMPR11.972

>  <synonyms>  (193) 
(+)-1(10),4-Cadinadiene|(+)-1S,8aR-Cadina-1(10),4-diene|(+)-??-Cadinene|(+)-D-Cadinene|(+)-[delta]-Cadinene|(+)-\u03b4-cadinene|(1S,8aR)-1-Isopropyl-4,7-dimethyl-1,2,3,5,6,8a-hexahydronaphthalene|(1S,8aR)-4,7-dimethyl-1-propan-2-yl-1,2,3,5,6,8a-hexahydronaphthalene|(1S,8aR)-delta-cadinene|.delta.-Cadinene, (+)-|1,2,3,5,6,8a-Hexahydro-4,7-dimethyl-1-(1-methylethyl)-(1S,8aR)-Naphthalene|1ST158489|483-76-1|7848KI47OS|AKOS016008860|C06394|C3734|CADINENE, .DELTA.-|CHEBI:15385|CHEMBL445759|D-Cadinene|DB-361881|DELTA-CADINENE|DTXSID70858792|F88000|FEMA NO. 4967|LMPR0103330001|MFCD02683434|NAPHTHALENE, DECAHYDRO-1,6-DIMETHYL-4- (1-METHYLETHYL)|NS00094789|Q27089406|UNII-7848KI47OS|\u03b1-cadinene|\u221a\u00e9\u00ac\u00a5-Cadinene|delta-Amorphene|delta-Cadinene

>  <cas>  (193) 
483-76-1

$$$$

     RDKit          2D

 21 23  0  0  0  0  0  0  0  0999 V2000
    0.2096    5.3744    0.0000 C   0  0  0  0  0  0  0  0  0  0  0  0
    0.6871    3.9525    0.0000 O   0  0  0  0  0  0  0  0  0  0  0  0
   -0.3056    2.8280    0.0000 C   0  0  0  0  0  0  0  0  0  0  0  0
   -1.7759    3.1254    0.0000 O   0  0  0  0  0  0  0  0  0  0  0  0
    0.1718    1.4060    0.0000 C   0  0  0  0  0  0  0  0  0  0  0  0
   -0.8209    0.2815    0.0000 C   0  0  0  0  0  0  0  0  0  0  0  0
   -2.3208    0.2668    0.0000 C   0  0  0  0  0  0  0  0  0  0  0  0
   -2.7703   -1.1643    0.0000 C   0  0  0  0  0  0  0  0  0  0  0  0
   -4.1923   -1.6418    0.0000 O   0  0  0  0  0  0  0  0  0  0  0  0
   -5.3168   -0.6491    0.0000 C   0  0  0  0  0  0  0  0  0  0  0  0
   -1.5482   -2.0340    0.0000 C   0  0  0  0  0  0  0  0  0  0  0  0
   -1.5335   -3.5340    0.0000 O   0  0  0  0  0  0  0  0  0  0  0  0
   -0.3434   -1.1405    0.0000 N   0  0  0  0  0  0  0  0  0  0  0  0
    1.1268   -1.4380    0.0000 C   0  0  0  0  0  0  0  0  0  0  0  0
    1.6043   -2.8599    0.0000 C   0  0  0  0  0  0  0  0  0  0  0  0
    3.0745   -3.1574    0.0000 C   0  0  0  0  0  0  0  0  0  0  0  0
    4.0673   -2.0329    0.0000 C   0  0  0  0  0  0  0  0  0  0  0  0
    3.5898   -0.6109    0.0000 C   0  0  0  0  0  0  0  0  0  0  0  0
    2.1196   -0.3134    0.0000 C   0  0  0  0  0  0  0  0  0  0  0  0
    1.6421    1.1085    0.0000 C   0  0  0  0  0  0  0  0  0  0  0  0
    2.6348    2.2330    0.0000 O   0  0  0  0  0  0  0  0  0  0  0  0
  1  2  1  0
  2  3  1  0
  3  4  2  0
  3  5  1  0
  5  6  2  0
  6  7  1  0
  7  8  2  0
  8  9  1  0
  9 10  1  0
  8 11  1  0
 11 12  2  0
 11 13  1  0
 13 14  1  0
 14 15  2  0
 15 16  1  0
 16 17  2  0
 17 18  1  0
 18 19  2  0
 19 20  1  0
 20 21  2  0
 20  5  1  0
 13  6  1  0
 19 14  1  0
M  END
>  <identifier>  (194) 
CNP0256326.0

>  <canonical_smiles>  (194) 
COC(=O)C1=C2C=C(OC)C(=O)N2C2=CC=CC=C2C1=O

>  <standard_inchi>  (194) 
InChI=1S/C15H11NO5/c1-20-11-7-10-12(15(19)21-2)13(17)8-5-3-4-6-9(8)16(10)14(11)18/h3-7H,1-2H3

>  <standard_inchi_key>  (194) 
WITUJUHQHMMCAH-UHFFFAOYSA-N

>  <name>  (194) 
nan

>  <iupac_name>  (194) 
methyl 2-methoxy-1,5-dioxo-pyrrolo[1,2-a]quinoline-4-carboxylate

>  <annotation_level>  (194) 
4

>  <total_atom_count>  (194) 
32

>  <heavy_atom_count>  (194) 
21

>  <molecular_weight>  (194) 
285.26

>  <exact_molecular_weight>  (194) 
285.06372

>  <molecular_formula>  (194) 
C15H11NO5

>  <alogp>  (194) 
1.43

>  <topological_polar_surface_area>  (194) 
74.60

>  <rotatable_bond_count>  (194) 
2

>  <hydrogen_bond_acceptors>  (194) 
6

>  <hydrogen_bond_donors>  (194) 
0

>  <hydrogen_bond_acceptors_lipinski>  (194) 
6

>  <hydrogen_bond_donors_lipinski>  (194) 
0

>  <lipinski_rule_of_five_violations>  (194) 
0

>  <aromatic_rings_count>  (194) 
2

>  <qed_drug_likeliness>  (194) 
0.78

>  <formal_charge>  (194) 
0

>  <fractioncsp3>  (194) 
0.13

>  <number_of_minimal_rings>  (194) 
3

>  <van_der_walls_volume>  (194) 
nan

>  <contains_sugar>  (194) 
False

>  <contains_ring_sugars>  (194) 
False

>  <contains_linear_sugars>  (194) 
False

>  <murcko_framework>  (194) 
c1ccc2c(c1)N3C(C=CC3)=CC2

>  <np_likeness>  (194) 
0.13

>  <chemical_class>  (194) 
Quinolines and derivatives

>  <chemical_sub_class>  (194) 
Pyrroloquinolines

>  <chemical_super_class>  (194) 
Organoheterocyclic compounds

>  <direct_parent_classification>  (194) 
Pyrroloquinolines

>  <np_classifier_pathway>  (194) 
Alkaloids

>  <np_classifier_superclass>  (194) 
Anthranilic acid alkaloids

>  <np_classifier_class>  (194) 
Acridone alkaloids

>  <np_classifier_is_glycoside>  (194) 
False

>  <organisms>  (194) 
Conchocarpus inopinatus

>  <collections>  (194) 
Latin America dataset|NuBBEDB|WikiData Natural Products|ZINC NP

>  <dois>  (194) 
10.1590/S0100-40422012001100006

>  <synonyms>  (194) 
Inopinatin

>  <cas>  (194) 
nan

$$$$

     RDKit          2D

 46 51  0  0  0  0  0  0  0  0999 V2000
   -1.1885   -6.1137    0.0000 C   0  0  0  0  0  0  0  0  0  0  0  0
   -2.0866   -4.9123    0.0000 C   0  0  0  0  0  0  0  0  0  0  0  0
   -3.1139   -6.0053    0.0000 C   0  0  0  0  0  0  0  0  0  0  0  0
   -3.3415   -4.0905    0.0000 C   0  0  0  0  0  0  0  0  0  0  0  0
   -3.2572   -2.5928    0.0000 C   0  0  0  0  0  0  0  0  0  0  0  0
   -1.9181   -1.9170    0.0000 C   0  0  0  0  0  0  0  0  0  0  0  0
   -3.1729   -1.0952    0.0000 C   0  0  0  0  0  0  0  0  0  0  0  0
   -4.5121   -1.7710    0.0000 O   0  0  0  0  0  0  0  0  0  0  0  0
   -3.0887    0.4024    0.0000 O   0  0  0  0  0  0  0  0  0  0  0  0
   -4.3435    1.2242    0.0000 C   0  0  0  0  0  0  0  0  0  0  0  0
   -4.2592    2.7219    0.0000 O   0  0  0  0  0  0  0  0  0  0  0  0
   -5.5141    3.5437    0.0000 C   0  0  0  0  0  0  0  0  0  0  0  0
   -5.4298    5.0413    0.0000 C   0  0  0  0  0  0  0  0  0  0  0  0
   -4.0907    5.7171    0.0000 O   0  0  0  0  0  0  0  0  0  0  0  0
   -6.8532    2.8678    0.0000 C   0  0  0  0  0  0  0  0  0  0  0  0
   -8.1081    3.6896    0.0000 O   0  0  0  0  0  0  0  0  0  0  0  0
   -6.9375    1.3702    0.0000 C   0  0  0  0  0  0  0  0  0  0  0  0
   -8.2766    0.6944    0.0000 O   0  0  0  0  0  0  0  0  0  0  0  0
   -5.6826    0.5484    0.0000 C   0  0  0  0  0  0  0  0  0  0  0  0
   -5.7669   -0.9492    0.0000 O   0  0  0  0  0  0  0  0  0  0  0  0
   -1.8338   -0.4194    0.0000 C   0  0  0  0  0  0  0  0  0  0  0  0
   -0.4947    0.2565    0.0000 C   0  0  0  0  0  0  0  0  0  0  0  0
    0.7602   -0.5653    0.0000 C   0  0  0  0  0  0  0  0  0  0  0  0
    2.0150   -1.3871    0.0000 C   0  0  0  0  0  0  0  0  0  0  0  0
    0.6759   -2.0630    0.0000 C   0  0  0  0  0  0  0  0  0  0  0  0
    1.9307   -2.8848    0.0000 C   0  0  0  0  0  0  0  0  0  0  0  0
    3.2699   -2.2089    0.0000 C   0  0  0  0  0  0  0  0  0  0  0  0
    3.3541   -0.7113    0.0000 C   0  0  0  0  0  0  0  0  0  0  0  0
    4.6933   -0.0355    0.0000 C   0  0  0  0  0  0  0  0  0  0  0  0
    4.6090   -1.5331    0.0000 C   0  0  0  0  0  0  0  0  0  0  0  0
    5.9481   -0.8573    0.0000 C   0  0  0  0  0  0  0  0  0  0  0  0
    7.2872   -0.1815    0.0000 C   0  0  0  0  0  0  0  0  0  0  0  0
    8.5421   -1.0033    0.0000 O   0  0  0  0  0  0  0  0  0  0  0  0
    7.3715    1.3162    0.0000 C   0  0  0  0  0  0  0  0  0  0  0  0
    8.7106    1.9920    0.0000 O   0  0  0  0  0  0  0  0  0  0  0  0
    6.1167    2.1380    0.0000 C   0  0  0  0  0  0  0  0  0  0  0  0
    5.2186    3.3394    0.0000 C   0  0  0  0  0  0  0  0  0  0  0  0
    7.1439    3.2311    0.0000 C   0  0  0  0  0  0  0  0  0  0  0  0
    4.7775    1.4621    0.0000 C   0  0  0  0  0  0  0  0  0  0  0  0
    3.5227    2.2839    0.0000 C   0  0  0  0  0  0  0  0  0  0  0  0
    3.6070    3.7816    0.0000 O   0  0  0  0  0  0  0  0  0  0  0  0
    2.1836    1.6081    0.0000 C   0  0  0  0  0  0  0  0  0  0  0  0
    2.0993    0.1105    0.0000 C   0  0  0  0  0  0  0  0  0  0  0  0
    0.8444    0.9323    0.0000 C   0  0  0  0  0  0  0  0  0  0  0  0
   -0.6632   -2.7388    0.0000 C   0  0  0  0  0  0  0  0  0  0  0  0
   -0.7475   -4.2364    0.0000 C   0  0  0  0  0  0  0  0  0  0  0  0
  1  2  1  0
  2  3  1  0
  2  4  1  0
  4  5  1  0
  5  6  1  0
  6  7  1  1
  7  8  2  0
  7  9  1  0
 10  9  1  1
 10 11  1  0
 11 12  1  0
 12 13  1  1
 13 14  1  0
 12 15  1  0
 15 16  1  6
 15 17  1  0
 17 18  1  1
 17 19  1  0
 19 20  1  6
  6 21  1  0
 21 22  1  0
 22 23  1  0
 23 24  1  6
 23 25  1  0
 25 26  2  0
 26 27  1  0
 28 27  1  1
 28 29  1  0
 29 30  1  1
 29 31  1  0
 31 32  1  0
 32 33  1  6
 32 34  1  0
 34 35  1  1
 34 36  1  0
 36 37  1  0
 36 38  1  0
 39 36  1  1
 39 40  1  0
 40 41  1  1
 40 42  1  0
 42 43  1  0
 43 44  1  1
 25 45  1  0
 45 46  1  6
 46  2  1  0
 45  6  1  0
 19 10  1  0
 43 23  1  0
 43 28  1  0
 39 29  1  0
M  END
>  <identifier>  (195) 
CNP0182302.2

>  <canonical_smiles>  (195) 
CC1(C)CC[C@]2(C(=O)O[C@@H]3O[C@H](CO)[C@@H](O)[C@H](O)[C@H]3O)CC[C@]3(C)C(=CC[C@@H]4[C@@]5(C)C[C@@H](O)[C@H](O)C(C)(C)[C@@H]5[C@H](O)C[C@]43C)[C@@H]2C1

>  <standard_inchi>  (195) 
InChI=1S/C36H58O10/c1-31(2)10-12-36(30(44)46-29-26(42)25(41)24(40)22(17-37)45-29)13-11-34(6)18(19(36)14-31)8-9-23-33(5)15-21(39)28(43)32(3,4)27(33)20(38)16-35(23,34)7/h8,19-29,37-43H,9-17H2,1-7H3/t19-,20+,21+,22+,23+,24+,25-,26+,27-,28-,29-,33+,34+,35+,36-/m0/s1

>  <standard_inchi_key>  (195) 
RYIVDKHRWLIXQM-NMYOEZETSA-N

>  <name>  (195) 
nan

>  <iupac_name>  (195) 
[(2~{S},3~{R},4~{S},5~{S},6~{R})-3,4,5-trihydroxy-6-(hydroxymethyl)tetrahydropyran-2-yl] (4~{a}~{S},6~{a}~{R},6~{a}~{S},6~{b}~{R},8~{R},8~{a}~{R},10~{R},11~{R},12~{a}~{R},14~{b}~{S})-8,10,11-trihydroxy-2,2,6~{a},6~{b},9,9,12~{a}-heptamethyl-1,3,4,5,6,6~{a},7,8,8~{a},10,11,12,13,14~{b}-tetradecahydropicene-4~{a}-carboxylate

>  <annotation_level>  (195) 
4

>  <total_atom_count>  (195) 
104

>  <heavy_atom_count>  (195) 
46

>  <molecular_weight>  (195) 
650.85

>  <exact_molecular_weight>  (195) 
650.403

>  <molecular_formula>  (195) 
C36H58O10

>  <alogp>  (195) 
2.43

>  <topological_polar_surface_area>  (195) 
177.14

>  <rotatable_bond_count>  (195) 
3

>  <hydrogen_bond_acceptors>  (195) 
10

>  <hydrogen_bond_donors>  (195) 
7

>  <hydrogen_bond_acceptors_lipinski>  (195) 
10

>  <hydrogen_bond_donors_lipinski>  (195) 
7

>  <lipinski_rule_of_five_violations>  (195) 
2

>  <aromatic_rings_count>  (195) 
0

>  <qed_drug_likeliness>  (195) 
0.18

>  <formal_charge>  (195) 
0

>  <fractioncsp3>  (195) 
0.92

>  <number_of_minimal_rings>  (195) 
6

>  <van_der_walls_volume>  (195) 
nan

>  <contains_sugar>  (195) 
True

>  <contains_ring_sugars>  (195) 
True

>  <contains_linear_sugars>  (195) 
False

>  <murcko_framework>  (195) 
O1CCCCC1OCC23CCCCC3C4=CCC5C(CCC6CCCCC65)C4CC2

>  <np_likeness>  (195) 
3.09

>  <chemical_class>  (195) 
Prenol lipids

>  <chemical_sub_class>  (195) 
Terpene glycosides

>  <chemical_super_class>  (195) 
Lipids and lipid-like molecules

>  <direct_parent_classification>  (195) 
Triterpene saponins

>  <np_classifier_pathway>  (195) 
Terpenoids

>  <np_classifier_superclass>  (195) 
Triterpenoids

>  <np_classifier_class>  (195) 
Oleanane triterpenoids

>  <np_classifier_is_glycoside>  (195) 
True

>  <organisms>  (195) 
Combretum fruticosum|Combretum laxum|Plagiomnium affine|Siphoneugena densiflora|Teucrium hyrcanicum

>  <collections>  (195) 
Latin America dataset|NPASS|NuBBEDB|Super Natural II|WikiData Natural Products

>  <dois>  (195) 
10.1590/S0103-50532006000200010|10.3390/MOLECULES13112717

>  <synonyms>  (195) 
\u221a\u00e9\u00ac\u2264-D-glucopyranosyl-2\u221a\u00e9\u00ac\u00b13\u221a\u00e9\u00ac\u22646\u221a\u00e9\u00ac\u2264-trihydroxyolean- 12-en-28-ate

>  <cas>  (195) 
nan

$$$$

     RDKit          2D

 19 20  0  0  0  0  0  0  0  0999 V2000
   -3.0480    2.7456    0.0000 C   0  0  0  0  0  0  0  0  0  0  0  0
   -1.5808    2.4334    0.0000 C   0  0  0  0  0  0  0  0  0  0  0  0
   -1.1176    1.0067    0.0000 C   0  0  0  0  0  0  0  0  0  0  0  0
    0.3496    0.6945    0.0000 C   0  0  0  0  0  0  0  0  0  0  0  0
    0.8128   -0.7322    0.0000 C   0  0  0  0  0  0  0  0  0  0  0  0
    2.2799   -1.0443    0.0000 C   0  0  0  0  0  0  0  0  0  0  0  0
    2.7432   -2.4710    0.0000 O   0  0  0  0  0  0  0  0  0  0  0  0
    3.2839    0.0702    0.0000 C   0  0  0  0  0  0  0  0  0  0  0  0
    4.7510   -0.2420    0.0000 O   0  0  0  0  0  0  0  0  0  0  0  0
    5.2142   -1.6687    0.0000 C   0  0  0  0  0  0  0  0  0  0  0  0
    2.8207    1.4968    0.0000 C   0  0  0  0  0  0  0  0  0  0  0  0
    1.3535    1.8090    0.0000 C   0  0  0  0  0  0  0  0  0  0  0  0
    0.8903    3.2357    0.0000 O   0  0  0  0  0  0  0  0  0  0  0  0
   -2.1215   -0.1078    0.0000 C   0  0  0  0  0  0  0  0  0  0  0  0
   -3.5887    0.2044    0.0000 C   0  0  0  0  0  0  0  0  0  0  0  0
   -4.5926   -0.9101    0.0000 C   0  0  0  0  0  0  0  0  0  0  0  0
   -4.1294   -2.3368    0.0000 C   0  0  0  0  0  0  0  0  0  0  0  0
   -2.6622   -2.6490    0.0000 C   0  0  0  0  0  0  0  0  0  0  0  0
   -1.6583   -1.5345    0.0000 C   0  0  0  0  0  0  0  0  0  0  0  0
  1  2  2  0
  3  2  1  6
  3  4  1  0
  4  5  2  0
  5  6  1  0
  6  7  2  0
  6  8  1  0
  8  9  1  0
  9 10  1  0
  8 11  2  0
 11 12  1  0
 12 13  2  0
  3 14  1  0
 14 15  2  0
 15 16  1  0
 16 17  2  0
 17 18  1  0
 18 19  2  0
 12  4  1  0
 19 14  1  0
M  END
>  <identifier>  (196) 
CNP0121906.2

>  <canonical_smiles>  (196) 
C=C[C@H](C1=CC(=O)C(OC)=CC1=O)C1=CC=CC=C1

>  <standard_inchi>  (196) 
InChI=1S/C16H14O3/c1-3-12(11-7-5-4-6-8-11)13-9-15(18)16(19-2)10-14(13)17/h3-10,12H,1H2,2H3/t12-/m0/s1

>  <standard_inchi_key>  (196) 
RGSUZUQISVAJJF-LBPRGKRZSA-N

>  <name>  (196) 
(S)-4-Methoxydalbergione

>  <iupac_name>  (196) 
2-methoxy-5-[(1~{S})-1-phenylallyl]-1,4-benzoquinone

>  <annotation_level>  (196) 
5

>  <total_atom_count>  (196) 
33

>  <heavy_atom_count>  (196) 
19

>  <molecular_weight>  (196) 
254.28

>  <exact_molecular_weight>  (196) 
254.09429

>  <molecular_formula>  (196) 
C16H14O3

>  <alogp>  (196) 
2.56

>  <topological_polar_surface_area>  (196) 
43.37

>  <rotatable_bond_count>  (196) 
4

>  <hydrogen_bond_acceptors>  (196) 
3

>  <hydrogen_bond_donors>  (196) 
0

>  <hydrogen_bond_acceptors_lipinski>  (196) 
3

>  <hydrogen_bond_donors_lipinski>  (196) 
0

>  <lipinski_rule_of_five_violations>  (196) 
0

>  <aromatic_rings_count>  (196) 
1

>  <qed_drug_likeliness>  (196) 
0.61

>  <formal_charge>  (196) 
0

>  <fractioncsp3>  (196) 
0.13

>  <number_of_minimal_rings>  (196) 
2

>  <van_der_walls_volume>  (196) 
234.68

>  <contains_sugar>  (196) 
False

>  <contains_ring_sugars>  (196) 
False

>  <contains_linear_sugars>  (196) 
False

>  <murcko_framework>  (196) 
c1ccc(cc1)CC2=CCC=CC2

>  <np_likeness>  (196) 
1.55

>  <chemical_class>  (196) 
Neoflavonoids

>  <chemical_sub_class>  (196) 
Dalbergiones

>  <chemical_super_class>  (196) 
Phenylpropanoids and polyketides

>  <direct_parent_classification>  (196) 
Dalbergiones

>  <np_classifier_pathway>  (196) 
Shikimates and Phenylpropanoids

>  <np_classifier_superclass>  (196) 
Flavonoids

>  <np_classifier_class>  (196) 
Open-chained neoflavonoids

>  <np_classifier_is_glycoside>  (196) 
False

>  <organisms>  (196) 
Dalbergia baronii|Dalbergia cearensis|Dalbergia cultrata|Dalbergia inundata|Dalbergia latifolia|Dalbergia melanoxylon|Dalbergia miscolobium|Dalbergia nitidula|Dalbergia odorifera|Dalbergia riparia|Dalbergia sissoo|Dalbergia spruceana|Dalbergia stevensonii|Nepalese propolis|Pueraria montana var. lobata|Pueraria montana var. thomsonii

>  <collections>  (196) 
CMAUP (cCollective molecular activities of useful plants)|Latin America dataset|NPASS|NPEdia|NuBBEDB|Super Natural II|TCMDB-Taiwan (Traditional Chinese Medicine database)|TIPdb (database of Taiwan indigenous plants)|WikiData Natural Products|ZINC NP

>  <dois>  (196) 
10.1016/0031-9422(72)80056-6|10.1016/0031-9422(73)85048-4|10.1016/B978-1-4831-9886-6.50048-6|10.1016/S0031-9422(00)89039-1|10.1016/S0031-9422(00)91118-X|10.1016/S0031-9422(00)91408-0|10.1016/S0031-9422(00)94592-8|10.1016/S0031-9422(00)94601-6|10.1016/S0031-9422(00)98663-1|10.1016/S0040-4020(01)82536-9|10.1021/NP070478H|10.1021/np050009k|10.1039/P19730001737|10.1055/S-2006-957394

>  <synonyms>  (196) 
(S)-2-Methoxy-5-(1-phenylallyl)cyclohexa-2,5-diene-1,4-dione|2,5-Cyclohexadiene-1,4-dione, 2-methoxy-5-[(1S)-1-phenyl-2-propen-1-yl]-|2-Methoxy-5-[(1S)-1-phenyl-2-propen-1-yl]-2,5-cyclohexadiene-1,4-dione|2-methoxy-5-[(1S)-1-phenylprop-2-enyl]cyclohexa-2,5-diene-1,4-dione|2543-95-5|AKOS040762947|CHEMBL255297|CS-0201480|DTXSID001154141|HY-N9583|S-4-methoxydalbergione

>  <cas>  (196) 
2543-95-5

$$$$

     RDKit          2D

  9  9  0  0  0  0  0  0  0  0999 V2000
   -3.4653    0.6606    0.0000 C   0  0  0  0  0  0  0  0  0  0  0  0
   -2.5353   -0.5163    0.0000 C   0  0  0  0  0  0  0  0  0  0  0  0
   -1.0511   -0.2995    0.0000 C   0  0  0  0  0  0  0  0  0  0  0  0
   -0.4968    1.0944    0.0000 C   0  0  0  0  0  0  0  0  0  0  0  0
    0.9874    1.3113    0.0000 C   0  0  0  0  0  0  0  0  0  0  0  0
    1.9174    0.1343    0.0000 C   0  0  0  0  0  0  0  0  0  0  0  0
    3.4016    0.3512    0.0000 O   0  0  0  0  0  0  0  0  0  0  0  0
    1.3631   -1.2595    0.0000 C   0  0  0  0  0  0  0  0  0  0  0  0
   -0.1211   -1.4764    0.0000 C   0  0  0  0  0  0  0  0  0  0  0  0
  1  2  1  0
  3  2  1  1
  3  4  1  0
  4  5  1  0
  5  6  1  0
  6  7  1  6
  6  8  1  0
  8  9  1  0
  9  3  1  0
M  END
>  <identifier>  (197) 
CNP0167936.1

>  <canonical_smiles>  (197) 
CC[C@H]1CC[C@H](O)CC1

>  <standard_inchi>  (197) 
InChI=1S/C8H16O/c1-2-7-3-5-8(9)6-4-7/h7-9H,2-6H2,1H3/t7-,8-

>  <standard_inchi_key>  (197) 
RVTKUJWGFBADIN-ZKCHVHJHSA-N

>  <name>  (197) 
Trans-4-ethylcyclohexanol

>  <iupac_name>  (197) 
trans-4-ethylcyclohexanol

>  <annotation_level>  (197) 
5

>  <total_atom_count>  (197) 
25

>  <heavy_atom_count>  (197) 
9

>  <molecular_weight>  (197) 
128.21

>  <exact_molecular_weight>  (197) 
128.12012

>  <molecular_formula>  (197) 
C8H16O

>  <alogp>  (197) 
1.95

>  <topological_polar_surface_area>  (197) 
20.23

>  <rotatable_bond_count>  (197) 
1

>  <hydrogen_bond_acceptors>  (197) 
1

>  <hydrogen_bond_donors>  (197) 
1

>  <hydrogen_bond_acceptors_lipinski>  (197) 
1

>  <hydrogen_bond_donors_lipinski>  (197) 
1

>  <lipinski_rule_of_five_violations>  (197) 
0

>  <aromatic_rings_count>  (197) 
0

>  <qed_drug_likeliness>  (197) 
0.57

>  <formal_charge>  (197) 
0

>  <fractioncsp3>  (197) 
1.00

>  <number_of_minimal_rings>  (197) 
1

>  <van_der_walls_volume>  (197) 
142.02

>  <contains_sugar>  (197) 
False

>  <contains_ring_sugars>  (197) 
False

>  <contains_linear_sugars>  (197) 
False

>  <murcko_framework>  (197) 
C1CCCCC1

>  <np_likeness>  (197) 
0.67

>  <chemical_class>  (197) 
Organooxygen compounds

>  <chemical_sub_class>  (197) 
Alcohols and polyols

>  <chemical_super_class>  (197) 
Organic oxygen compounds

>  <direct_parent_classification>  (197) 
Cyclohexanols

>  <np_classifier_pathway>  (197) 
nan

>  <np_classifier_superclass>  (197) 
nan

>  <np_classifier_class>  (197) 
nan

>  <np_classifier_is_glycoside>  (197) 
False

>  <organisms>  (197) 
Colletotrichum crassipes

>  <collections>  (197) 
ChemSpider NPs|Latin America dataset|NuBBEDB|WikiData Natural Products

>  <dois>  (197) 
10.1016/J.TETASY.2009.11.001|10.1016/j.tetasy.2009.11.001

>  <synonyms>  (197) 
Trans-4-ethylcyclohexanol

>  <cas>  (197) 
nan

$$$$

     RDKit          2D

 28 32  0  0  0  0  0  0  0  0999 V2000
   -0.1688   -5.1674    0.0000 C   0  0  0  0  0  0  0  0  0  0  0  0
   -0.2469   -3.6695    0.0000 C   0  0  0  0  0  0  0  0  0  0  0  0
    1.0112   -2.8528    0.0000 C   0  0  0  0  0  0  0  0  0  0  0  0
   -1.5833   -2.9882    0.0000 C   0  0  0  0  0  0  0  0  0  0  0  0
   -1.6615   -1.4903    0.0000 C   0  0  0  0  0  0  0  0  0  0  0  0
   -0.4956   -0.5465    0.0000 C   0  0  0  0  0  0  0  0  0  0  0  0
   -1.0329    0.8540    0.0000 C   0  0  0  0  0  0  0  0  0  0  0  0
   -1.2672    2.3355    0.0000 C   0  0  0  0  0  0  0  0  0  0  0  0
    0.4161    1.2419    0.0000 C   0  0  0  0  0  0  0  0  0  0  0  0
    1.4766    0.1810    0.0000 C   0  0  0  0  0  0  0  0  0  0  0  0
    2.9255    0.5689    0.0000 C   0  0  0  0  0  0  0  0  0  0  0  0
    3.3140    2.0177    0.0000 C   0  0  0  0  0  0  0  0  0  0  0  0
    4.7630    2.4057    0.0000 C   0  0  0  0  0  0  0  0  0  0  0  0
    5.8235    1.3448    0.0000 C   0  0  0  0  0  0  0  0  0  0  0  0
    7.3214    1.4230    0.0000 C   0  0  0  0  0  0  0  0  0  0  0  0
    7.8587    0.0225    0.0000 C   0  0  0  0  0  0  0  0  0  0  0  0
    6.6928   -0.9212    0.0000 N   0  0  0  0  0  0  0  0  0  0  0  0
    5.4349   -0.1040    0.0000 C   0  0  0  0  0  0  0  0  0  0  0  0
    3.9860   -0.4919    0.0000 C   0  0  0  0  0  0  0  0  0  0  0  0
   -2.5308    0.7758    0.0000 C   0  0  0  0  0  0  0  0  0  0  0  0
   -3.5913    1.8366    0.0000 C   0  0  0  0  0  0  0  0  0  0  0  0
   -5.0402    1.4487    0.0000 C   0  0  0  0  0  0  0  0  0  0  0  0
   -5.4288   -0.0001    0.0000 C   0  0  0  0  0  0  0  0  0  0  0  0
   -6.9267   -0.0783    0.0000 C   0  0  0  0  0  0  0  0  0  0  0  0
   -7.4640    1.3222    0.0000 C   0  0  0  0  0  0  0  0  0  0  0  0
   -6.2981    2.2659    0.0000 N   0  0  0  0  0  0  0  0  0  0  0  0
   -4.3683   -1.0610    0.0000 C   0  0  0  0  0  0  0  0  0  0  0  0
   -2.9193   -0.6730    0.0000 C   0  0  0  0  0  0  0  0  0  0  0  0
  1  2  1  0
  2  3  1  0
  2  4  2  0
  5  4  1  6
  5  6  1  0
  6  7  1  0
  7  8  1  6
  7  9  1  0
  9 10  2  3
 10 11  1  0
 11 12  2  0
 12 13  1  0
 13 14  2  0
 14 15  1  0
 15 16  2  0
 16 17  1  0
 17 18  1  0
 18 19  2  0
  7 20  1  0
 20 21  2  0
 21 22  1  0
 22 23  2  0
 23 24  1  0
 24 25  2  0
 25 26  1  0
 23 27  1  0
 27 28  2  0
 28  5  1  0
 19 11  1  0
 28 20  1  0
 18 14  1  0
 26 22  1  0
M  END
>  <identifier>  (198) 
CNP0080603.1

>  <canonical_smiles>  (198) 
CC(C)=C[C@H]1C[C@](C)(C=CC2=CC=C3C=CNC3=C2)C2=CC3=C(C=CN3)C=C21

>  <standard_inchi>  (198) 
InChI=1S/C26H26N2/c1-17(2)12-21-16-26(3,23-15-25-20(8-11-28-25)14-22(21)23)9-6-18-4-5-19-7-10-27-24(19)13-18/h4-15,21,27-28H,16H2,1-3H3/t21-,26-/m0/s1

>  <standard_inchi_key>  (198) 
NYGKKNQYURXQIA-LVXARBLLSA-N

>  <name>  (198) 
nan

>  <iupac_name>  (198) 
(5~{R},7~{R})-7-[2-(1~{H}-indol-6-yl)vinyl]-7-methyl-5-(2-methylprop-1-enyl)-5,6-dihydro-1~{H}-cyclopenta[f]indole

>  <annotation_level>  (198) 
4

>  <total_atom_count>  (198) 
54

>  <heavy_atom_count>  (198) 
28

>  <molecular_weight>  (198) 
366.51

>  <exact_molecular_weight>  (198) 
366.2096

>  <molecular_formula>  (198) 
C26H26N2

>  <alogp>  (198) 
7.07

>  <topological_polar_surface_area>  (198) 
31.58

>  <rotatable_bond_count>  (198) 
3

>  <hydrogen_bond_acceptors>  (198) 
0

>  <hydrogen_bond_donors>  (198) 
2

>  <hydrogen_bond_acceptors_lipinski>  (198) 
0

>  <hydrogen_bond_donors_lipinski>  (198) 
2

>  <lipinski_rule_of_five_violations>  (198) 
1

>  <aromatic_rings_count>  (198) 
4

>  <qed_drug_likeliness>  (198) 
0.36

>  <formal_charge>  (198) 
0

>  <fractioncsp3>  (198) 
0.23

>  <number_of_minimal_rings>  (198) 
5

>  <van_der_walls_volume>  (198) 
nan

>  <contains_sugar>  (198) 
False

>  <contains_ring_sugars>  (198) 
False

>  <contains_linear_sugars>  (198) 
False

>  <murcko_framework>  (198) 
c1cc2ccc(C=CC3c4cc5[nH]ccc5cc4CC3)cc2[nH]1

>  <np_likeness>  (198) 
1.01

>  <chemical_class>  (198) 
Indoles and derivatives

>  <chemical_sub_class>  (198) 
Indoles

>  <chemical_super_class>  (198) 
Organoheterocyclic compounds

>  <direct_parent_classification>  (198) 
Indoles

>  <np_classifier_pathway>  (198) 
Alkaloids

>  <np_classifier_superclass>  (198) 
Tryptophan alkaloids

>  <np_classifier_class>  (198) 
Simple indole alkaloids

>  <np_classifier_is_glycoside>  (198) 
False

>  <organisms>  (198) 
Raputia praetermissa

>  <collections>  (198) 
Latin America dataset|NuBBEDB

>  <dois>  (198) 
10.1590/S0103-50532011000700021

>  <synonyms>  (198) 
4-deoxyraputindole C

>  <cas>  (198) 
nan

$$$$

     RDKit          2D

 21 23  0  0  0  0  0  0  0  0999 V2000
    1.8066    3.0899    0.0000 O   0  0  0  0  0  0  0  0  0  0  0  0
    1.2601    1.6930    0.0000 C   0  0  0  0  0  0  0  0  0  0  0  0
   -0.2229    1.4678    0.0000 C   0  0  0  0  0  0  0  0  0  0  0  0
   -1.1594    2.6395    0.0000 O   0  0  0  0  0  0  0  0  0  0  0  0
   -0.7694    0.0709    0.0000 C   0  0  0  0  0  0  0  0  0  0  0  0
   -2.2524   -0.1543    0.0000 C   0  0  0  0  0  0  0  0  0  0  0  0
   -3.1889    1.0174    0.0000 C   0  0  0  0  0  0  0  0  0  0  0  0
   -4.6719    0.7922    0.0000 C   0  0  0  0  0  0  0  0  0  0  0  0
   -5.2184   -0.6047    0.0000 C   0  0  0  0  0  0  0  0  0  0  0  0
   -6.7014   -0.8299    0.0000 O   0  0  0  0  0  0  0  0  0  0  0  0
   -4.2818   -1.7764    0.0000 C   0  0  0  0  0  0  0  0  0  0  0  0
   -2.7988   -1.5512    0.0000 C   0  0  0  0  0  0  0  0  0  0  0  0
    0.1672   -1.1008    0.0000 O   0  0  0  0  0  0  0  0  0  0  0  0
    1.6502   -0.8756    0.0000 C   0  0  0  0  0  0  0  0  0  0  0  0
    2.5867   -2.0474    0.0000 C   0  0  0  0  0  0  0  0  0  0  0  0
    4.0697   -1.8221    0.0000 C   0  0  0  0  0  0  0  0  0  0  0  0
    5.0062   -2.9939    0.0000 O   0  0  0  0  0  0  0  0  0  0  0  0
    4.6162   -0.4252    0.0000 C   0  0  0  0  0  0  0  0  0  0  0  0
    3.6796    0.7465    0.0000 C   0  0  0  0  0  0  0  0  0  0  0  0
    4.2261    2.1434    0.0000 O   0  0  0  0  0  0  0  0  0  0  0  0
    2.1966    0.5213    0.0000 C   0  0  0  0  0  0  0  0  0  0  0  0
  1  2  2  0
  2  3  1  0
  3  4  1  0
  3  5  2  0
  5  6  1  0
  6  7  2  0
  7  8  1  0
  8  9  2  0
  9 10  1  0
  9 11  1  0
 11 12  2  0
  5 13  1  0
 13 14  1  0
 14 15  2  0
 15 16  1  0
 16 17  1  0
 16 18  2  0
 18 19  1  0
 19 20  1  0
 19 21  2  0
 21  2  1  0
 12  6  1  0
 21 14  1  0
M  END
>  <identifier>  (199) 
CNP0292269.0

>  <canonical_smiles>  (199) 
O=C1C(O)=C(C2=CC=C(O)C=C2)OC2=CC(O)=CC(O)=C12

>  <standard_inchi>  (199) 
InChI=1S/C15H10O6/c16-8-3-1-7(2-4-8)15-14(20)13(19)12-10(18)5-9(17)6-11(12)21-15/h1-6,16-18,20H

>  <standard_inchi_key>  (199) 
IYRMWMYZSQPJKC-UHFFFAOYSA-N

>  <name>  (199) 
kaempferol

>  <iupac_name>  (199) 
3,5,7-trihydroxy-2-(4-hydroxyphenyl)chromen-4-one

>  <annotation_level>  (199) 
5

>  <total_atom_count>  (199) 
31

>  <heavy_atom_count>  (199) 
21

>  <molecular_weight>  (199) 
286.24

>  <exact_molecular_weight>  (199) 
286.04774

>  <molecular_formula>  (199) 
C15H10O6

>  <alogp>  (199) 
2.28

>  <topological_polar_surface_area>  (199) 
111.13

>  <rotatable_bond_count>  (199) 
1

>  <hydrogen_bond_acceptors>  (199) 
6

>  <hydrogen_bond_donors>  (199) 
4

>  <hydrogen_bond_acceptors_lipinski>  (199) 
6

>  <hydrogen_bond_donors_lipinski>  (199) 
4

>  <lipinski_rule_of_five_violations>  (199) 
0

>  <aromatic_rings_count>  (199) 
3

>  <qed_drug_likeliness>  (199) 
0.55

>  <formal_charge>  (199) 
0

>  <fractioncsp3>  (199) 
0.00

>  <number_of_minimal_rings>  (199) 
3

>  <van_der_walls_volume>  (199) 
230.31

>  <contains_sugar>  (199) 
False

>  <contains_ring_sugars>  (199) 
False

>  <contains_linear_sugars>  (199) 
False

>  <murcko_framework>  (199) 
O1c2ccccc2CC=C1c3ccccc3

>  <np_likeness>  (199) 
1.55

>  <chemical_class>  (199) 
Flavonoids

>  <chemical_sub_class>  (199) 
Flavones

>  <chemical_super_class>  (199) 
Phenylpropanoids and polyketides

>  <direct_parent_classification>  (199) 
Flavonols

>  <np_classifier_pathway>  (199) 
Shikimates and Phenylpropanoids

>  <np_classifier_superclass>  (199) 
Flavonoids

>  <np_classifier_class>  (199) 
Flavonols

>  <np_classifier_is_glycoside>  (199) 
False

>  <organisms>  (199) 
Aaptos aaptos|Aaptos ciliata|Abies excelsa|Abies pinsapo var. marocana|Abutilon pakistanicum|Acacia pycnantha|Acacia salicina|Acacia terminalis|Acanthaster planci|Acer carpinifolium|Acer mandshuricum|Acer negundo|Acer oblongum|Acer sp.|Achillea clypeolata|Achillea pannonica|Achillea pseudopectinata|Achillea wilhelmsii|Achlya heterosexualis|Achlys triphylla|Acnistus breviflorus|Aconitum kamtschaticum|Aconitum nevadense|Aconitum vilmorinianum|Aconitum violaceum|Acritopappus longifolius|Actaea racemosa|Actinidia chinensis|Actinidia kolomikta|Actinidia valvata|Adenocarpus foliolosus|Adenostoma sparsifolium|Adesmia bicolor|Adesmia incana|Adiantum capillus-veneris|Adiantum malesianum|Adina cordifolia|Adina cordifolia Roxb.|Adina racemosa|Adonis mongolica|Aeonium glutinosum|Aeonium leucoblepharum|Aeonium lindleyi|Aesculus sp.|Aframomum amaniense|Afrocarpus falcatus|Afzelia bella|Afzelia bipindensis|Agaricus hortensis|Agastache rugosa|Agave americana|Agelas conifera|Agelas linnaei|Agelas nakamurai|Ageratina havanensis|Aglaia australiensis|Agrimonia eupatoria|Agrimonia pilosa|Aguacate|Ailanthus altissima|Ailanthus sp.|Ajuga genevensis|Ajuga taiwanensis|Akebia sp.|Alangium longiflorum|Alangium premnifolium|Alangium salviifolium|Albertisia papuana|Albizia inundata|Albizia julibrissin|Alectoria divergens|Alectoria japonica|Alectra parasitica|Alkanna cappadocica|Alkanna orientalis|Allagopappus viscosissimus|Allium ampeloprasum|Allium cepa|Allium ericetorum|Allium odorum|Allium ramosum|Allium sativum|Allium schoenoprasum|Allium sp.|Allium tuberosum|Alnus cordata|Aloe africana|Aloe castellorum|Aloe deltoideodonta|Aloe ferox|Aloe spicata|Aloe vera|Aloe vulgaris|Alphitonia macrocarpa|Alpinia allughas|Alpinia officinarum|Alseodaphne corneri|Alstonia muelleriana|Alstonia scholaris|Alternaria japonica|Alternaria kikuchiana|Alternaria macrospora|Althaea sp.|Amaranthus hypochondriacus|Ambrosia artemisioides|Ambrosia tenuifolia|Amelanchier vulgaris|Ampelocera edentula|Ampelopsis Brevipedunculata|Ampelopsis brevipedunculata|Amphilophis odorata|Amyris marshii|Anabaena minutissima|Anagallis sp.|Anaphalis contorta|Anaphalis sinica|Anastatica hierochuntica|Anaxagorea luzonensis|Anaxagorea luzonensis A.GRAY|Anchusa sp.|Andropogon jwarancusa|Androsace septentrionalis|Anethum graveolens|Angelica acutiloba|Angelica furcijuga KITAGAWA|Angelica gmelinii|Angelica tarokoensis|Anigozanthos pulcherrimus|Anigozanthos rufus|Anisodus tanguticus|Annona ambotay|Annona impressivenia|Annona muricata|Annulohypoxylon squamulosum|Anthemis|Anthemis auriculata|Anthemis cotula|Anthemis sp.|Anthoxanthum nitens|Anthyllis onobrychioides|Anthyllis onobrychoides|Anthyllis vulneraria|Antillogorgia elisabethae|Antitoxicum scanden|Apis|Apis mellifera|Apis mellifera ligustica|Apium graveolens|Apium graveolens var. dulce|Aplophyllum telephioides|Aplysina laevis|Apocynaceae|Apocynum cannabinum|Apocynum venetum|Arabidopsis thaliana|Ardisia Colorata|Ardisia colorata|Arisarum vulgare|Aristea alata|Aristea compressa|Aristea ensifolia|Aristea lugens|Aristea singularis|Aristolochia kaempferi|Aristolochia zollingeriana|Armeria maritima|Armoracia rusticana|Arnica acaulis|Arnica amplexicaulis|Arnica chamissonis|Arnica longifolia|Arnica mollis|Arnica nevadensis|Arnica parryi|Arnica sachalinensis|Arnica viscosa|Aronia arbutifolia|Aronia melanocarpa|Artabotrys blumei|Artabotrys hexapetalus|Artemisia Annua|Artemisia alba|Artemisia annua|Artemisia annua L.|Artemisia cina|Artemisia dentata|Artemisia dracunculus|Artemisia lactiflora|Artemisia lucentica|Artemisia ludoviciana subsp. mexicana|Artemisia nova|Artemisia tournefortiana|Artemisia tridentata|Arthrobacter glacialis|Artocarpus altilis|Artocarpus tonkinensis|Arum maximum|Asanthus solidaginifolius|Ascarina lucida|Ascidia ahodori|Askidiosperma andreaeanum|Askidiosperma chartaceum|Askidiosperma paniculatum|Asparagus officinalis|Aspergillus falconensis|Aspergillus unguis|Aspicilia caesiocinerea|Aster ageratoides|Aster indicus|Aster oharai|Aster tataricus|Asterogyne martiana|Astragalus Membranaceus|Astragalus aegobromus|Astragalus angustifolius|Astragalus asper|Astragalus babatagi|Astragalus bornmuellerianus|Astragalus brachycarpus|Astragalus chinensis|Astragalus coluteocarpus|Astragalus complanatus|Astragalus eupeplus|Astragalus eximius|Astragalus floccosifolius|Astragalus galegiformis|Astragalus kabadianus|Astragalus macropterus|Astragalus membranaceus|Astragalus mongholicus|Astragalus oleifolius|Astragalus onobrychis|Astragalus pycnanthus|Astragalus quisqualis|Astragalus robustus|Astragalus sieberi|Astragalus spinosus|Astragalus trimestris|Astragalus varius|Astrantia major|Atalantia racemosa|Athanasia crithmifolia|Athrotaxis selaginoides|Atraphaxis frutescens|Attalea excelsa|Atuna racemosa|Aulacocephalus temmincki|Aulacomnium androgynum|Axinyssa variabilis|Azadirachta indica|Baccharis bigelovii|Baccharis magellanica|Baccharis pteronioides|Baccharis salicifolia|Baccharis sarothroides|Baccharis vaccinioides|Backhousia angustifolia|Balanophora involucrata|Balanus glandula|Baphia bancoensis|Baptisia sp.|Bartramia pomiformis|Bauhinia glauca|Bauhinia purpurea|Bauhinia splendens|Bauhinia variegata|Befaria glutinosa|Beilschmiedia anacardioides|Beilschmiedia volckii|Benzoin praecox|Berberis floribunda|Berberis julianae|Berberis repens|Berberis valdiviana|Berchemia floribunda|Berchemia racemosa|Bergenia cordifolia|Bergenia crassifolia|Berkheya zeyheri|Berlinia tomentosa|Bersama yangambiensis|Berteroa incana|Bertholletia excelsa|Beta vulgaris|Betula ermanii|Betula exilis|Betula fruticosa|Bidens parviflora|Bidens sulphureus|Bistorta manshuriensis|Bistorta officinalis|Bitter bush|Bleekeria vitiensis|Bletilla formosana|Blighia welwitschii|Bobgunnia madagascariensis|Boehmeria pannosa|Boletus fomentarius|Boltonia asteroides|Bombax ceiba|Bombyx mori|Bonamia spectabilis|Boronella koniambiensis|Boronia pinnata|Botryosphaeria berengeriana|Botrytis cinerea|Brachyspira hyodysenteriae|Bragantia wallichii|Brassica carinata|Brassica carinata B line|Brassica carinata Y line|Brassica juncea|Brassica napus|Brassica oleracea|Brassica oleracea var. botrytis|Brassica oleracea var. sabauda|Brassica oleracea var. viridis|Brassica rapa|Brassica rapa subsp. chinensis|Brassica rapa subsp. oleifera|Brassicaceae|Brevibacillus laterosporus|Brickellia cavanillesii|Brickellia coulteri|Brickellia eupatorioides|Brickellia vernicosa|Bridelia ferruginea|Brownea ariza|Bryonia alba|Bryum pseudotriquetrum|Buchanania cochinchinensis|Buchanania lanzan|Buddleja asiatica|Buddleja cordata|Bufotes viridis|Bugula dentata|Buphane fischeri|Bupleurum chinense|Bupleurum sp.|Burkholderia cepacia|Byrsonima coccolobifolia|Bystropogon origanifolius|Cacalia floridana|Caesalpinia tinctoria|Calceolaria petiolaris|Calea pilosa|Callerya cinerea|Calligonum leucocladum|Callitris columellaris|Callitris sp.|Calluna sp.|Calluna vulgaris|Calonectria cylindrospora|Calvatia lilacina|Calycanthus chinensis|Calycotome villosa|Camchaya loloana|Camellia Sinensis|Camellia japonica|Camellia oleifera|Camellia semiserrata|Camellia sinensis|Campanula medium|Campanula oblongifolia|Campanula zangezura|Canarium album|Canarium strictum|Candida albicans|Canella winterana|Capnella erecta|Capparicordis tweediana|Capparis himalayensis|Capparis spinosa|Capsella bursa-pastoris|Capsicum annuum|Caragana frutex|Caragana spinosa|Cardamine pinnata|Carica papaya|Carlina acanthifolia|Carlina acaulis|Carpha glomerata|Carthamus Tinctorius|Carthamus tinctorius|Carum carvi|Carya illinoinensis|Casearia ilicifolia|Cashew|Cassia Tora|Cassia acutifolia|Cassia alata|Cassia angustifolia|Cassia fistula|Cassia grandis|Cassia javanica|Cassia nodosa|Cassia renigera|Cassia sp.|Cassia tora|Castanea sativa|Castanopsis sclerophylla|Casuarina Equisetifolia|Casuarina cunninghamiana|Casuarina cunninghamiana Miq.|Casuarina equisetifolia|Casuarina equisetifolia L.|Casuarina junghaniana|Casuarina rigida|Casuarina sp.|Catalpa ovata|Catha edulis|Catharanthus roseus|Cathormion altissimum|Catunaregam spinosa|Caulerpa serrulata|Cedrus atlantica|Cedrus atlantica Manetii cv.glauca|Cedrus libani|Centaurea cuneifolia|Centaurea cyanus|Centaurea raphanina|Centaurea solstitialis|Centaurea sp.|Centaurea tougourensis|Centaurea urvillei|Centaurium erythraea|Centella asiatica|Centella sp.|Cephalaria grossheimii|Ceramium rubrum|Ceratonia siliqua|Cerbera dilatata|Cerbera sp.|Cercidiphyllum japonicum|Cercis chinensis|Cereus blanckii|Cereus dumortieri|Cerinthe minor|Chaerophyllum sp.|Chaetomium globosum|Chaetomium subaffine|Chamaecyparis formosensis|Chamaemelum nobile|Chamaemelum sp.|Chamomilla recutita|Chamomilla suaveolens|Chara ceratophylla|Cheilanthes grisea|Chengiopanax sciadophylloides|Cheniella glauca|Chenopodium ambrosioides|Chenopodium hybridum|Chenopodium murale|Chenopodium quinoa|Chenopodium simplex|Chenopodium sp.|Chlorociboria aeruginascens|Chromolaena arnottiana|Chrysanthemum indicum|Chrysanthemum morifolium|Chrysanthemum uliginosum|Chrysanthemum x morifolium|Chrysosplenium echinus|Chrysosporum ovalisporum|Chuquiraga straminea|Cibotium barometz|Cicer arietinum|Cicer flexuosum|Cicer kopetdaghense|Cicer mogoltavicum|Cicer songaricum|Cicer tragacanthoides|Cicerbita plumieri|Cichorium endivia|Cichorium glandulosum|Cichorium intybus|Cichorium pumilum|Cicuta sp.|Cimicifuga sp.|Cineraria geifolia|Cinnamomum insulari-montanum|Cinnamomum kotoense|Cinnamomum philippinense|Cinnamomum sp.|Cinnamomum tamala|Cinnamomum yabunikkei|Cinnamomum zeylanicum|Cinnamon|Cirsium carolinianum|Cirsium oligophyllum|Cirsium tanakae|Cissus discolor|Cissus quadrangularis|Cissus sicyoides|Cistus albidus|Cistus creticus|Cistus ladanifer|Cistus laurifolius|Cistus monspeliensis|Cistus psilosepalus|Citrullus lanatus|Citrus aurantium|Citrus grandis|Citrus hassaku|Citrus limon|Citrus maxima|Citrus natsudaidai|Citrus paradisi|Citrus reticulata|Citrus rugulosa|Citrus sinensis|Citrus unshiu|Citrus × deliciosa|Citrus × paradisi|Cladonia incrassata|Clathrotropis brachypetala|Clausena lansium|Clavariopsis aquatica|Cleistanthus indochinensis|Cleistopholis staudtii|Clematis angustifolia|Cleome droserifolia|Clethra macrophylla|Clibadium mexiae|Clusia nemorosa|Cneorum pulverulentum|Coccus ilicis|Cochlospermum sp.|Cocos nucifera|Codonocarpus australis|Codonopsis pilosula|Coelogorgia palmosa|Coffea|Colobocentrotus atratus|Colocasia esculenta|Colubrina faralaotra|Colubrina faralaotra subsp.trichocarpa.|Combretum apiculatum|Conocephalum japonicum|Consolida oliveriana|Conyza japonica|Corchorus olitorius|Cordia curassavica|Cordylanthus kingii|Cordyline neocaledonica|Coreopsis grandiflora|Coreopsis nodosa|Coriandrum sativum|Coriandrum sp.|Coriaria japonica|Cornus florida|Cornus officinalis|Cornus sp.|Coronilla varia|Corticium simplex|Corydalis bungeana|Corydalis ochotensis|Corylus|Corylus avellana|Cosmos diversifolius|Cosmos pringlei|Coutarea latifolia|Craibiodendron henryi|Crambe tatarica|Crangon vulgaris|Craspidospermum verticillatum|Crataegus laevigata|Crataegus monogyna|Crataegus oxyacantha L. (1753)|Crataegus pinnatifida|Crataegus sp.|Crataegus tanacetifolia|Crateva nurvala|Crepidiastrum sonchifolium|Crepis divaricata|Crepis pygmaea|Crepis rubra|Crescentia alata|Crescentia cujete|Crinipellis scabella|Crinum latifolium|Crocus sativus|Crossaster papposus|Crotalaria lachnophora|Crotalus atrox|Croton cascarilloides|Croton caudatus|Croton cumingii|Croton gratissimus|Croton laccifer|Croton nitens|Cryptocarya alba|Cryptocarya liebertiana|Cryptocarya lividula|Cryptocarya oblata|Cryptosporium pinicola|Cucumis melo|Cucumis sativus|Cucurbita maxima|Cucurbita moschata|Cudrania cochinchinensis var. gerontogea|Cudrania tricuspidata|Cuminum cyminum|Cunninghamia lanceolata var. konishii|Cupressus sempervirens|Curcuma caesia|Cuscuta Australis|Cuscuta Japonica|Cuscuta australis|Cuscuta chinensis|Cuscuta japonica|Cuscuta lupuliformis|Cuscuta micrantha|Cuscuta platyloba|Cyanostegia angustifolia|Cyberlindnera jadinii|Cyclachaena xanthifolia|Cyclamen persicum|Cyclamen purpurascens|Cydonia|Cymodocea nodosa|Cyperus sesquiflorus|Cyperus sphaeroideus|Cyperus trinervis|Cyrtomium falcatum|Cystophora scalaris|Cystoseira amentacea|Cystoseira jabukae|Cytisus caramanicus|Dacrydium cupressinum|Dactylorhiza viridis|Dahlstedtia araripensis|Dalbergia hupeana|Dalbergia nigra|Dalbergia sissoides|Daphnandra aromatica|Daphne aurantiaca|Daphne feddei|Daphne genkwa|Daphne giraldii|Daphne holosericea|Daphne lancifolia|Daphne laureola|Daphne oleoides|Darmera peltata|Daucus carota|Davidsonia pruriens|Debregeasia orientalis|Decachaeta thieleana|Delphinium andersoni|Delphinium cashmerianum|Delphinium consolida|Delphinium formosum|Delphinium oliverianum|Delphinium semibarbartum|Delphinium semibarbatum|Delphinium shawurense|Delphinium thamarae|Delphinium venulosum|Delphinium zalil|Dendrilla cavernosa|Dendrilla membranosa|Dendrobium candidum|Dendroctonus ponderosae|Dendronephthya gigantea|Dennstaedtia scabra|Dennstaedtia zeylanica|Dermatophyllum secundiflorum|Derris uliginosa|Desmodium styracifolium|Dianthus caryophyllus|Diaporthe helianthi|Dichotomaria marginata|Dicliptera roxburghiana|Dicranopteris linearis|Dictyochaeta simplex|Dictyopteris acrostichoides|Dictyostelium mucoroides|Dictyota binghamiae|Didemnum solidum|Dilleniaceae|Dimorphotheca sinuata|Dinophysis fortii|Dioscorea Bulbifera|Dioscorea althaeoides|Dioscorea antaly|Dioscorea bulbifera|Dioscorea bulbifera L.var sativa|Dioscorea japonica|Dioscorea tokoro|Dioscorea villosa|Diospyros eriantha|Diospyros japonica|Diospyros kaki|Diospyros lotus|Diospyros verrucosa|Diotis maritima|Dipentodon sinicus|Diphasia angolensis|Diphasiastrum thyoides|Diphylleia grayi|Diphylleia sinensis|Diplacus longiflorus|Diplopterygium glaucum|Diplotaxis acris|Diplotaxis muralis|Diplotaxis simplex|Diplotaxis tenuifolia|Diplotaxis viminea|Dipsacus asper|Dipteronia dyeriana|Dipteryx odorata|Diptychocarpus strictus|Discaria serratifolia|Dischidia formosana|Disynaphia halimifolia|Dittrichia graveolens|Diuranthera major|Dodonaea angustifolia|Dodonaea polyandra|Dolichopentas longiflora|Doodia picta|Doronicum grandiflorum|Dracaena ombet|Dracocephalum moldavica|Drimys sp.|Drosera rotundifolia|Drosera sp.|Drynaria fortunei|Drynaria roosii|Dryopteris crassirhizoma|Duguetia calycina|Dunalia solanacea|Dysidea amblia|Dysidea tupha|Dysosma aurantiocaulis|Dysosma versipellis|Dysphania ambrosioides|Echinacea pallida|Echinacea sp.|Echinaster sepositus|Echinops echinatus|Ectropis bicolor|Ehretia dicksonii|Ekebergia senegalensis|Elaeagnus umbellata|Elateriospermum tapos|Elegia microcarpa|Eleocharis pallens|Elmerrillia papuana|Elsholtzia cristata|Elsholtzia rugulosa|Elymus repens|Embelia barbeyana|Empetrum nigrum|Endosamara racemosa|Entomophthora virulenta|Ephedra Sinica|Ephedra sinica|Ephydatia syriaca|Epilobium hirsutum|Epilobium sp.|Epimedium acuminatum|Epimedium brevicornu|Epimedium brevicornum|Epimedium davidii|Epimedium dolichostemen|Epimedium dolichostemon|Epimedium fargesii|Epimedium franchetii|Epimedium grandiflorum|Epimedium koreanum|Epimedium leishanense|Epimedium leptorrhizum|Epimedium membranaceum|Epimedium myrianthum|Epimedium pauciflorum|Epimedium pubescens|Epimedium sagittatum|Epimedium sempervirens|Epimedium stellatum|Epimedium wushanense|Epimedium zhenbaense|Epimedium zhushanense|Epirrhoe sperryi|Equisetum arvense|Equisetum hiemale|Equisetum hyemale|Eragrostis viscosa|Eremocarpus setiger|Eremostachys moluccelloides|Ericameria diffusa|Ericameria laricifolia|Erigeron annuus|Erigeron canadensis|Erinaceus europaeus|Eriocapitella tomentosa|Eriocephalus pauperrimus|Eriostemon spicatus|Eriostemon thryptomenoides|Eriostemon tomentellus|Erodium moschatum|Erodium stephanianum|Eruca vesicaria|Eryngium campestre|Erysimum canescens|Erysimum odoratum|Erysimum siliculosum|Erythrina pallida|Erythrina sacleuxii|Erythrophleum couminga|Erythrospermum zeylanicum|Erythroxylum microphyllum|Erythroxylum passerinum|Eschenbachia blinii|Escherichia coli NT1005/CadA-lysA-dapA-cadB [CadA lysA dapA cadB]|Esox saurus|Etlingera elatior|Eucalyptus australiana|Eucalyptus camaldulensis|Eucalyptus camaldulensis var. pendula|Eucalyptus globulus|Eucalyptus resinifera|Eucalyptus sieberiana|Eucalyptus sp.|Eucalyptus tereticornis|Eucommia Ulmoides|Eucommia ulmoides|Eugenia doubledayi|Eugenia edulis|Eugenia hirta|Eugenia jambolana|Eugenia selloi|Eugenia uniflora|Eumorphia sericea|Eunicella cavolinii|Euonymus alatus|Euonymus nanoides|Eupatorium birmanicum|Eupatorium lindleyanum|Eupatorium perfoliatum|Eupatorium serotinum|Eupatorium villosum|Euphorbia aleppica|Euphorbia altotibetica|Euphorbia chamaesyce|Euphorbia dracunculoides|Euphorbia franchetii|Euphorbia geniculata|Euphorbia helioscopia|Euphorbia heteradena|Euphorbia hirta|Euphorbia humifusa|Euphorbia lunulata|Euphorbia maculata|Euphorbia magalanta|Euphorbia myrsinites|Euphorbia officinarum|Euphorbia pannonica|Euphorbia prostrata|Euphorbia sapinii|Euphorbia smirnovii|Euphorbia sp.|Euphorbia virgata|Euphrasia genargentea|Euphrasia stricta|Euphydryas cynthia|Euplotes raikovi|Eupolyphaga sinensis|Eurycoma harmandiana|Euscaphis japonica|Euterpe precatoria|Eutypella scoparia|Evernia vulpina|Excoecaria acerifolia|Fabaceae|Fabiana densa|Fagara zanthoxyloides|Fagonia indica|Fagonia mollis|Fagonia paulayana|Fagonia schweinfurthii|Fagopyrum tataricum|Fagraea gracilipes|Fallopia multiflora|Farsetia aegyptia|Ficus alba|Ficus carica|Ficus cordata subsp. salicifolia|Ficus mucuso|Ficus sarmentosa var. thunbergii|Filipendula ulmaria|Fimbristylis tetragona|Flemingia chappar|Flindersia australis|Flindersia dissosperma|Foeniculum sp.|Foeniculum vulgare|Fomes robiniae|Fomitopsis insularis|Forking Larkspur|Forsteronia refracta|Fouquieria splendens|Fragaria|Fragaria chiloensis|Fragaria x ananassa|Fraxinus raibocarpa|Fridericia chica|Fritillaria ningguoensis|Frullania tamarisci|Fuirena ciliaris|Fuirena incrassata|Fumaria micrantha|Fusarium oxysporum|Fusarium roseum|Galenia africana|Galium dasypodum|Galium sp.|Ganoderma lucidum|Ganoderma sinense|Garcinia dulcis|Garcinia macrophylla|Garcinia mangostana L|Garcinia pseudoguttifera|Garcinia pyrifera|Garcinia xipshuanbannaensis|Gardenia sootepensis|Gardneria insularis|Garrya elliptica|Genista cinerea|Genista sp.|Gentiana manshurica|Gentiana rigescens|Gentiana scabra|Gentiana thunbergii|Gentiana triflora|Geranium carolinianum|Geranium pusillum|Geranium rectum|Geranium robertianum|Geranium sanguineum|Geranium sp.|Geranium thunbergii|Geranium wilfordii|Gesneria cardinalis|Geum rivale|Ginkgo biloba|Ginkgo sp.|Glebionis coronaria|Glebionis coronarium|Glinus lotoides|Globba malaccensis|Glochidion sphaerogynum|Glossocalyx brevipes|Glycine|Glycine canescens|Glycine max|Glycine tabacina|Glycine tomentella|Glycyrrhiza lepidota|Glycyrrhiza pallidiflora|Glycyrrhiza sp.|Glycyrrhiza uralensis|Gnidia lamprantha|Goldfussia yunnanensis|Gossypium sp.|Gouania microcarpa|Grataegus pinnatifida|Greenwayodendron oliveri|Gremmeniella abietina|Grewia mollis|Guarea trichilioides|Guiera senegalensis|Gutierrezia alamanii|Gutierrezia lucida|Gutierrezia microcephala|Gutierrezia wrightii|Gymnanthemum amygdalinum|Gymnocarpium robertianum|Gymnothorax javanicus|Gynostemma cardiospermum|Gynoxys nitida|Gynura divaricata|Haematococcus lacustris|Haematoxylum campechianum|Haematoxylum sp.|Haliclona tubifera|Halobacillus litoralis|Halobacterium salinarum|Halocarpus biformis|Halocharis hispida|Hamamelis sp.|Hamamelis virginiana|Haplopappus foliosus|Haplophyllum|Harpephyllum afrum|Havardia albicans|Hazardia squarrosa|Hedeoma multiflora|Hedera helix|Hedysarum caucasicum|Hedysarum coronarium|Hedysarum sericeum|Helianthus divaricatus|Helichrysum arenarium|Helichrysum armenium|Helichrysum aureum|Helichrysum davenportii|Helichrysum graveolen|Helichrysum graveolens|Helichrysum italicum|Helichrysum lepidissimum|Helichrysum stoechas|Helicteres angustifolia|Heliotropium amplexicaule|Heliotropium bovei|Heliotropium eichwaldii|Heliotropium floridum|Heliotropium hirsutissimum|Helleborus atrorubens|Helleborus multifidus|Herniaria mauritanica|Heterotheca|Heterotheca grandiflora|Heterotheca inuloides|Heuchera cylindrica|Hippeastrum papilio|Hippocratea excelsa|Hippocratea mucronata|Hippophae rhamnoides|Hippophae sp.|Hoffmannia strigillosa|Holboellia fargesi|Homo sapiens|Hopea utilis|Houttuynia cordata|Hovenia acerba|Humulus lupulus|Hunteria zeylanica|Hydrangea arborescens|Hydrangea aspera|Hydrangea heteromalla|Hydrangea integrifolia|Hydrangea paniculata|Hydrangea seemannii|Hydrangea serrata|Hydrophyllum sp.|Hydrophyllum tenuipes|Hydrophyllum virginianum|Hygrophorus chrysodon|Hylotelephium ewersii|Hymenothrix wislizenii|Hyoseris radiata|Hypericum Ascyron|Hypericum Sampsonii|Hypericum androsaemum|Hypericum ascyron|Hypericum brasiliense|Hypericum elegans|Hypericum erectum|Hypericum japonicum|Hypericum maculatum|Hypericum oblongifolium|Hypericum perforatum|Hypericum reflexum|Hypericum revolutum|Hypericum sampsonii|Hypericum sp.|Hypnum cupressiforme|Hypoxis multiceps|Hypoxylon rubiginosum|Hypsizygus ulmarius|Iberis amara|Ichnocarpus frutescens|Ichthyothere terminalis|Idea leuconoe|Ideopsis similis|Ilex affinis|Ilex amara|Ilex ambigua|Ilex amelanchier|Ilex amplifolia|Ilex argentina|Ilex boliviana|Ilex brasiliensis|Ilex brevicuspis|Ilex canariensis|Ilex cassine|Ilex chamaedryfolia|Ilex colchica|Ilex conocarpa|Ilex crenata|Ilex decidua|Ilex discolor|Ilex diuretica|Ilex dumosa|Ilex dunniana|Ilex ficoidea|Ilex glabra|Ilex guianensis|Ilex hainanensis|Ilex integerrima|Ilex krugiana|Ilex laevigata|Ilex leucoclada|Ilex macropoda|Ilex maximowicziana|Ilex microdonta|Ilex mitis|Ilex montana|Ilex nitida|Ilex ovalis|Ilex pseudobuxus|Ilex pseudovaccinium|Ilex quercetorum|Ilex sideroxyloides|Ilex sp.|Ilex taubertiana|Ilex teratopis|Ilex theezans|Ilex vitis-idaea|Illicium verum|Ilyonectria destructans|Impatiens balsamina|Impatiens capensis|Impatiens pallida|Indigofera linnaei|Indigofera spicata|Inga velutina|Inocybe geophylla|Inula britannica|Inula britannica var.chinensis|Inula japonica|Inula salsoloides|Inula sp.|Inulanthera calva|Io fluvialis|Iochroma australe|Iochroma gesnerioides|Ipomoea aquatica|Ipomoea batatas|Ipomoea reptans|Ips confusus|Ircinia dendroides|Iryanthera paraensis|Isaria felina|Isatis tinctoria|Isodon japonicus|Ixeris chinensis|Ixeris debilis|Ixeris stolonifera|Ixora coccinea|Iyengaria stellata|Jacaranda chelonia|Jacobaea subalpina|Jamesoniella colorata|Jasminum multiflorum|Jatropha variegata|Jnula britannica|Jovibarba heuffelii|Juglans nigra|Juglans sieboldiana|Jugo|Juniperus ashei|Juniperus rigida var. conferta|Juniperus sp.|Justicia ciliata|Justicia hayatai|Justicia paniculata|Kadsura sp.|Kaempferia Galanga|Kaempferia galanga|Kaempferia marginata|Kaempferia rotunda|Kaempferia sp.|Kalanchoe blossfeldiana|Kalanchoe ceratophylla|Kalanchoe laciniata|Kalanchoe pinnata|Kalmia latifolia|Kaunia saltensis|Khaya ivorensis|Khaya senegalensis|Klattia partita|Knautia montana|Knautia silvatica|Knightia excelsa|Koanophyllon simillimum|Koelpinia linearis|Koelreuteria henryi|Kopsia hainanensis|Krameria lappacea|Krascheninnikovia ceratoides|Kuehneromyces mutabilis|Kummerowia Striata|Kummerowia striata|Lactarius spinosulus|Lactobacillus casei|Lactuca sativa|Lactuca serriola|Lafoensia glyptocarpa|Lagenaria siceraria|Lagerstroemia speciosa|Lagochilus leiacanthus|Lagochilus platycalyx|Larix cajanderi|Larix sp.|Larrea divaricata|Larrea sp.|Larrea tridentata|Lasiocephalus ovatus|Lasiosiphon kraussianus|Lastrea thelypteris|Lathyrus amphicarpos|Lathyrus angulatus|Lathyrus aphaca|Lathyrus articulatus|Lathyrus bauhinii|Lathyrus cicera|Lathyrus clymenum|Lathyrus filiformis|Lathyrus gmelinii|Lathyrus grandiflorus|Lathyrus heterophyllus|Lathyrus hierosolymitanus|Lathyrus hirsutus|Lathyrus incurvus|Lathyrus latifolius|Lathyrus niger|Lathyrus nissolia|Lathyrus ochrus|Lathyrus palustris|Lathyrus sativus|Lathyrus setifolius|Lathyrus sphaericus|Lathyrus tingitanus|Lathyrus transsilvanicus|Lathyrus tremolsianus|Lathyrus tuberosus|Lathyrus venosus|Lathyrus vernus|Laurencia distichophylla|Laurentia longiflora|Laurus Nobilis|Laurus nobilis|Lavandula pedunculata|Leandra lacunosa|Lecidella chodati|Leea guineense|Leea guineensis|Leguminosae|Leitneria floridana|Lemaireocereus griseus|Lentinus tigrinus|Leonurus glaucescens|Leonurus japonicus|Leonurus persicus|Lepidium draba|Lepidium sativum|Lepidosperma costale|Lepidosperma laterale|Lepidosperma ustulatum|Lepraria citrina|Leptogorgia gilchristi|Lespedeza bicolor|Lespedeza virgata|Leucopaxillus cerealis|Leucopaxillus giganteus|Leucopaxillus tricolor|Leuzea centauroides|Levisticum officinale|Liatris gracilis|Libocedrus plumosa|Ligularia lamarum|Ligustrum obtusifolium|Lilium brownii|Lilium candidum|Lilium lancifolium|Lilium longiflorum Thunb.|Lilium pumilum|Limnocharis flava|Limonium aureum|Limonium axillare|Lindera aggregata|Lindera glauca|Lindera strichnifolia|Lippia mexicana|Lissoclinum fragile|Litsea pedunculata|Litsea rubescens|Litsea salicifolia|Lobophytum durum|Lonchocarpus orotinus|Lonicera japonica|Lotus corniculatus|Lotus dorycnium|Lotus herbaceus|Lotus japonicus|Lotus pedunculatus|Lotus polyphyllos|Lotus tenuis|Lotus ucrainicus|Lotus uliginosus|Luetkea pectinata|Lunularia cruciata|Lupinus luteus|Lupinus multiflorus|Lupinus sericeus|Lupinus verbasciformis|Lycium barbarum|Lycium sp.|Lycopersicon Esculentum|Lycopersicon esculentum|Lycopodium flabelliforme|Lygodium flexuosum|Lysimachia capillipes|Lysimachia christinae|Lysimachia fordiana|Lysimachia heterogenea|Lysimachia japonica|Maba buxifolia|Macadamia|Macadamia ternifolia|Machilus thunbergii|Maclura cochinchinensis|Maclura pomifera|Maclura tricuspidata|Macroptilium atropurpureum|Macrothelypteris torresiana|Magnolia denudata|Magnolia liliiflora|Magnolia sieboldii|Magnolia sprengeri|Maianthemum atropurpureum|Mallotus pallidus|Malus domestica|Malus pumila|Malus sieversii|Mandevilla hirsuta|Mandevilla martiana|Mandevilla pavonii|Mangifera indica|Marasmiellus troyanus|Markhamia stipulata|Matricaria discoidea|Matricaria matricarioides|Maytenus chuchuhuasha|Maytenus hookeri|Maytenus loeseneri|Maytenus serrata|Meconopsis betonicifolia|Medicago arabica|Medicago blancheana|Medicago cancellata|Medicago cretacea|Medicago falcata|Medicago glutinosa|Medicago hybrida|Medicago intertexta|Medicago laciniata|Medicago lupulina|Medicago monantha|Medicago monspeliaca|Medicago murex|Medicago nigra|Medicago orbicularis|Medicago orthoceras|Medicago polyceratia|Medicago polymorpha|Medicago radiata|Medicago rotata|Medicago sativa|Medicago scutellata|Medicago truncatula|Medicago turbinata|Melaleuca ericifolia|Melaleuca quinquenervia|Melaleuca rhaphiophylla|Melaleuca sp.|Melanophryniscus moreirae|Melia azedarach|Melia azedarach var. toosendan|Melicope sarcococca|Melilotus altus|Melilotus indicus|Melilotus italicus|Melilotus messanensis|Melilotus officinalis|Melilotus siculus|Melilotus sulcatus|Melilotus wolgicus|Melissa officinalis|Menegazzia asahinae|Menyanthes sp.|Menyanthes trifoliata|Meriandra dianthera|Mesembryanthemum expansum|Mesomelaena preissii|Mesomelaena stygia|Methylobacterium organophilum|Meum sp.|Miconia lacunosa|Microglossa pyrrhopappa|Micromelum tephrocarpum|Micromeria pineolens|Micromonospora carbonacea|Microtea debilis|Microtropis fokienensis|Mikania hoehnei|Millettia erythrocalyx|Millettia ferruginea|Mimosa acacioides|Minthostachys tomentosa|Mirabilis viscosa|Mitracarpus scaber|Mitragyna speciosa|Mollugo pentaphylla|Mollugo spergula|Momordica charantia|Monascus pilosus|Monochaetia compta|Monodora brevipes|Monomorium floricola|Monosis travancorica|Montanoa leucantha|Moquilea pyrifolia|Morinda Citrifolia|Morinda citrifolia|Morinda morindoides|Moringa oleifera|Moringa sp.|Mortierella elongata|Morus alba|Morus bombycis|Morus rubra|Muntingia calabura|Murraya exotica|Murraya kwangsiensis|Murraya paniculata|Musa|Mussaenda parviflora|Mycobacterium leprae|Mycobacterium tuberculosis|Myristica fragrans|Myristica sp.|Myrsine africana|Myrsine capitellata|Nama hispidum|Narcissus concolor|Narcissus obesus|Nardostachys jatamansi|Nassauvia cumingii|Nasturtium officinale|Nauclea officinalis|Nectandra hihua|Negombata magnifica|Nelumbo nucifera|Nemalion vermiculare|Neobellieria bullata|Neonotonia wightii|Neophaeosphaeria quadriseptata|Neoshirakia japonica|Nepenthes gracilis|Nepeta multifida|Nephelium lappaceum|Nerium Oleander|Nerium oleander|Neurolaena venturana|Nicotiana affinis|Nicotiana debneyi|Nicotiana raimondii|Nicotiana tabacum|Nicotiana undulata|Nidula candida|Nigella arvensis|Nivenia fruticosa|Notholaena aschenborniana|Notholaena standleyi|Notobasis syriaca|Nymphaea alba|Nymphoides cordata|Nymphoides crenata|Nymphoides cristata|Nymphoides fallax|Nymphoides geminata|Nymphoides grayana|Nymphoides grayanum|Nymphoides indica|Ochna beddomei|Ochna gamblei|Ochradenus baccatus|Ocimum pilosum|Ocotea heterochroma|Ocotea pulchella|Odontites rubra|Oenothera glazioviana|Olea sp.|Omphalotus nidiformis|Oncoba echinata|Ongokea klaineana|Onobrychis cyri|Onobrychis kachetica|Onobrychis michauxii|Onobrychis vassiltschenkoi|Onobrychis viciifolia|Ononis arvensis|Ononis leiosperma|Ononis sp.|Ononis spinosa|Ononis vaginalis|Ophiocoma scolopendrina|Ophiocordyceps sinensis|Ophioglossum Petiolatum|Ophioglossum petiolatum|Ophiolepis superba|Ophioparma ventosa|Ophiopogon chekiangensis|Ophiorrhiza blumeana|Ophryosporus floribundus|Opuntia ficus-indica|Orchis sp.|Oreoherzogia fallax|Origanum dictamnus|Origanum vulgare|Ormosia balansae|Ormosia henryi|Ormosia nobilis|Ornduffia reniformis|Orostachys fimbriata|Orostachys japonica|Orostachys japonicus|Oroxylum indicum|Orthosiphon spicatus|Oryza aristata|Oryza sativa|Osbeckia chinensis|Osmanthus heterophyllus|Osmanthus ilicifolius|Osmanthus × fortunei|Osmorhiza aristata|Osteophloeum platyspermum|Osteospermum fruticosum|Ovatus malisuctus|Oxalis purpurea|Oxytropis|Oxytropis falcata|Oxytropis muricata|Oxytropis oxyphylla|Oxytropis sylvatica|Oxytropis trichophysa|Oxytropis turczaninovii|Paeonia albiflora|Paeonia lactiflora|Paeonia rockii|Paeonia sp.|Paeonia suffruticosa|Pajanelia multijuga|Panax ginseng|Panax ginseng C.A.Meyer.|Panax papyrifer|Panax schinseng|Panzeria canescens|Panzerina lanata|Papaver hybridum|Papaver rhoeas|Papaver strigosum|Papaver tatricum|Papilio phorcas|Papularia sphaerosperma|Parabenzoin trilobum|Paraburkholderia caryophylli|Paracalyx scariosus|Paralemnalia clavata|Paranomus|Parkinsonia aculeata|Parmelia subrudecta|Paronychia kapela|Passiflora foetida|Passiflora incarnata|Pastinaca sativa|Patersonia fragilis|Patersonia occidentalis|Paulownia coreana|Paulownia tomentosa|Payena lucida|Pedicularis longiflora|Peganum harmala|Pelargonium reniforme|Pellia endiviaefolia|Pellicularia filamentosa|Peltiphyllum peltatum|Peltogyne porphyrocardia|Peltogyne pubescens|Peltophorum africanum|Penicillium citreonigrum|Penicillium lapidosum|Penicillium olsonii|Penicillium paxilli|Penstemon gentianoides|Pentagramma triangularis|Pericome caudata|Periploca calophylla|Perovskia abrotanoides|Persicaria amphibia|Persicaria glabra|Persicaria hydropiper|Persicaria lapathifolia|Persicaria orientalis|Persicaria pensylvanica|Persicaria sp.|Persicaria tinctoria|Pestalotiopsis guepinii|Petriella sordida|Petrorhagia dubia|Petroselinum crispum|Petrosia hebes|Petrosimonia monandra|Peucedanum palustre|Phaenocoma prolifera|Phalaenopsis aphrodite|Phalaris canariensis|Phaseolus vulgaris|Phegopteris connectilis|Phelline lucida|Phellodendron Amurense|Phellodendron amurense|Phellodendron amurense var. wilsonii|Phellodendron amurense var.wilsonii|Phellodendron chinense var. glabriusculum|Phoenix dactylifera|Phomopsis leptostromiformis|Phorbas amaranthus|Phycopsis terpnis|Phyllanthus Emblica|Phyllanthus discoideus|Phyllanthus emblica|Phyllanthus sp.|Phyllanthus urinaria|Phyllanthus virgatus|Phyllogeiton zeyheri Sond.|Physalis solanaceus|Picea abies|Picea neoveitchii|Picea obovata|Picea sp.|Picradeniopsis pringlei|Picris conyzoides|Picrorhiza kurrooa|Pieris napi|Pilocarpus spicatus|Pimpinella sp.|Pinguicula vulgaris|Pinus|Pinus brutia|Pinus brutia var. eldarica|Pinus brutia var. pityusa|Pinus halepensis|Pinus sibirica|Pinus sp.|Pinus uncinata|Piper lanceifolium|Piper nigrum|Piper sanctum|Piper taboganum|Piper umbellatum|Piptostigma fugax|Pistacia sp.|Pistacia vera|Pisum sativum|Pittocaulon velatum|Plantago bellardi|Platanus sp.|Plectranthus mollis|Plectranthus purpuratus|Pleiogynium timorense|Pleiogynium timoriense|Plenodomus tracheiphilus|Pleogyne cunninghami|Pleogyne cunninghamii|Pleurotus japonicus|Plinia cauliflora|Plinia edulis|Pluchea suaveolens|Plumbagella micrantha|Plumeria rubra|Podocarpus fasciculus|Podocarpus salignus|Podophyllum hexandrum|Podophyllum peltatum|Podophyllum versipelle|Pogostemon cablin|Pojarkovia stenocephala|Polanisia trachysperma|Polycephalomyces nipponicus|Polygala amara|Polygala nyikensis|Polygala reinii|Polygonatum glaberrimum|Polygonatum multiflorum|Polygonatum orientale|Polygonum aviculare|Polygonum cuspidatum|Polylepis besseri|Polylepis incana|Polyporus dryadeus|Pongamia pinnata|Pongamiopsis pervilleana|Populus alba|Populus angustifolia|Populus balsamifera|Populus candicans|Populus cathayana|Populus deltoides|Populus koreana|Populus maximowiczii|Populus nigra|Populus suaveolens|Populus szechuanica|Porophyllum ruderale|Portulaca oleracea|Potentilla chinensis|Potentilla sp.|Primula integrifolia|Primula sinensis|Primula sp.|Prorocentrum micans|Prosopis ruscifolia|Prumnopitys ferruginoides|Prunus Persica|Prunus armeniaca|Prunus avium|Prunus cerasus|Prunus davidiana|Prunus domestica|Prunus dulcis|Prunus lusitanica|Prunus mahaleb|Prunus persica|Prunus prostrata|Prunus spinosa|Psephellus huber-morathii|Pseudaegle trifoliata|Pseudallescheria boydii|Pseudeurotium zonatum|Pseudoceratina arabica|Pseudognaphalium affine|Pseudophegopteris bukoensis|Pseudophegopteris microstegia|Psorospermum laurentii|Psychotria bahiensis|Psychotria serpens|Ptarmica ptarmicifolia|Pteridium aquilinum|Pteris australis|Pteris dactylina|Pteris semipinnata|Pterocladiella tenuis|Pterodon emarginatus|Pterogyne nitens|Pterolobium hexapetalum|Pterospermum lanceaefolium|Ptilocaulis walpersi|Pulicaria crispa|Pulicaria incisa|Pulsatilla campanella|Pulsatilla sp.|Punica Granatum|Punica granatum|Punica granatum L.|Purpura aperta|Pycnandra acuminata|Pyrola decorata|Pyrostegia venusta|Pyrrosia Lingua|Pyrrosia lingua|Pyrus communis|Quercus dentata|Quercus gilva|Quercus salicina|Quercus serrata|Quercus sessiliflora|Radermachera xylocarpa|Radix et rhizoma rhodiolae|Rana amurensis|Ranunculaceae|Ranunculus acris|Ranunculus asiaticus|Ranunculus peltatus|Rapanea lancifolia|Raphanus sativus|Raphanus sativus subsp. niger|Raphanus sativus var. sativus|Ratibida mexicana|Rauvolfia vomitoria|Reaumuria mucronata|Reaumuria vermiculata|Reedia spathacea|Relhania corymbosa|Remirea maritima|Reseda muricata|Reseda muricata C.Presl.|Retama duriaei|Retama raetam|Rhagadiolus stellatus|Rhamnus cathartica|Rhamnus davurica|Rhamnus disperma|Rhamnus libanotica|Rhamnus lycioides|Rhamnus nakaharae|Rhamnus pallasii|Rhamnus sp.|Rhamnus taquetii (H.Lév. & Vaniot) H.Lév.|Rhamnus thymifolia|Rhamnus thymifolius|Rhaponticum carthamoides|Rheum|Rheum moorcroftianum|Rheum tataricum|Rhinella arenarum|Rhodiola coccinea|Rhodiola crenulata|Rhodiola crenulata (HOOK.f.et Thoms.) H.OHBA|Rhodiola heterodonta|Rhodiola quadrifida|Rhodiola rosea|Rhodiola sachalinensis|Rhodiola sacra|Rhododendron abietifolium|Rhododendron acuminatum|Rhododendron aurigeranum|Rhododendron bagobonum|Rhododendron beyerinckianum|Rhododendron brookeanum|Rhododendron buxifolium|Rhododendron christi|Rhododendron christianae|Rhododendron crassifolium|Rhododendron culminicola|Rhododendron culminicolum|Rhododendron dauricum|Rhododendron dianthosmum|Rhododendron durionifolium|Rhododendron gracilentum|Rhododendron hooglandii|Rhododendron huianum|Rhododendron inconspicuum|Rhododendron intranervatum|Rhododendron irroratum|Rhododendron jasminiflorum|Rhododendron javanicum|Rhododendron kawakamii|Rhododendron konori|Rhododendron laetum|Rhododendron lanceolatum|Rhododendron latoucheae|Rhododendron leptanthum|Rhododendron leucogigas|Rhododendron luteum|Rhododendron macgregoriae|Rhododendron meijeri|Rhododendron micranthum|Rhododendron micromalayanum|Rhododendron mucronatum|Rhododendron nervulosum|Rhododendron nieuwenhuisii|Rhododendron orbiculatum|Rhododendron phaeochitum|Rhododendron planecostatum|Rhododendron pneumonanthum|Rhododendron polyanthemum|Rhododendron praetervisum|Rhododendron rarum|Rhododendron retusum|Rhododendron robinsonii|Rhododendron rugosum|Rhododendron searleanum|Rhododendron spinuliferum|Rhododendron stapfianum|Rhododendron stenophyllum|Rhododendron suaveolens|Rhododendron superbum|Rhododendron ungerni|Rhododendron vandeursenii|Rhododendron womersleyi|Rhododendron wrightianum|Rhododendron yelliottii|Rhododendron zoelleri|Rhodomicrobium vannielii|Rhus coriaria|Rhus parviflora|Rhus sp.|Rhus wallichi|Rhynchosia rufescens|Ribes nigrum|Ribes rubrum|Ribes sp.|Ribes uva-crispa|Rivina humilis|Roboastra tigris|Rodgersia podophylla|Rorippa indica|Rosa agrestis|Rosa americana|Rosa chinensis|Rosa davidii|Rosa gallica|Rosa hybrida|Rosa multiflora|Rosa rugosa|Rosa sp.|Rosa taiwanensis|Rosa × damascena|Rosmarinus officinalis|Rosulabryum capillare|Rothmaleria granatensis|Rubia schumanniana|Rubrivivax gelatinosus|Rubus|Rubus arcticus|Rubus chingii|Rubus corchorifolius|Rubus coreanus|Rubus idaeus|Rubus rosa|Rubus ulmifolius|Ruellia rosea|Rumex lanceolatus|Rumex patientia|Rusavskia elegans|Russula japonica|Russula vesca|Ruta angustifolia|Ruta chalepensis|Ruta graveolens|Ruta montana|Ruta oreojasme|Ruta pinnata|Sabal causiarum|Saccharomyces pastori|Salacia elliptica|Salacia madagascariensis|Salix lindleyana|Salmonella enterica subsp. enterica serovar muenster|Salsola collina|Salvia Farinacea|Salvia digitaloides|Salvia dorrii|Salvia farinacea|Salvia folium|Salvia hispanica|Salvia miltiorrhiza|Salvia officinalis|Samadera indica|Sambucus sp.|Sanguisorba minor|Sapium sebiferum|Sarcandra glabra|Sarcandra hainanensis|Sargassum muticum|Sargassum thunbergii|Sasa paniculata|Sassafras officinalis|Saussurea carthamoides|Savoy cabbage|Saxifraga azizoon|Scabiosa succisa|Schefflera capitata|Schinus sp.|Schisandra chinensis|Schisandra lancifolia|Schistostephium rotundifolium|Schizonepeta multifida|Schizophyllum lobatum|Schoenoplectus tabernaemontani|Scilla maritima|Scleria mackaviensis|Scleria tricuspidata|Scolopia chinensis|Scolymus hispanicus|Scolymus maculatus|Scorzonera austriaca|Scorzonera graminifolia|Scorzonera hirsuta|Scorzonera hispanica|Scorzonera humilis|Scorzonera laciniata|Scorzonera mollis|Scorzonera pseudodivaricata|Scorzonera pseudolanata|Scorzonera pusilla|Searsia dregeana|Searsia lancea|Searsia parviflora|Sedum alpestre|Sedum anglicum|Sedum borissovae|Sedum brissemoreti|Sedum euxinum|Sedum ewersii|Sedum farinosum|Sedum forsteri|Sedum grisebachii|Sedum litoreum|Sedum melanantherum|Sedum sarmentosum|Sedum tuberosum|Sedum ursi|Semecarpus vitiensis|Sempervivum altum|Sempervivum arachnoideum|Sempervivum armenum|Sempervivum atlanticum|Sempervivum borissovae|Sempervivum calcareum|Sempervivum cantabricum|Sempervivum caucasicum|Sempervivum charadzeae|Sempervivum ciliosum|Sempervivum dzhavachischvilii|Sempervivum furseorum|Sempervivum grandiflorum|Sempervivum ingwersenii|Sempervivum kindingeri|Sempervivum kosaninii|Sempervivum leucanthum|Sempervivum macedonicum|Sempervivum marmoreum|Sempervivum montanum|Sempervivum nevadense|Sempervivum ossetiense|Sempervivum pumilum|Sempervivum ruthenicum|Sempervivum tectorum|Sempervivum thompsonianum|Sempervivum transcaucasicum|Senecio mexicanus|Senecio paludaffinis|Senecio renardii|Senecio rupestris|Senecio sandersonii|Senecio speciosus|Senecio viravira|Senecio viscosus|Senegalia catechu|Senna alata|Senna alexandrina|Senna didymobotrya|Senna italica|Senna polyantha|Senna siamea|Septoria pistaciarum|Serratula wolffii|Setosphaeria turcica|Sextonia rubra|Sideritis nutans|Sideritis soluta|Sideritis syriaca|Sideritis trojana|Siegesbeckia pubescens|Sigesbeckia glabrescens|Silene tatarica|Silphium perfoliatum|Silphium perfoliatum L.|Silybum marianum|Simsia foetida|Sinapis alba|Sinningia cardinalis|Sinoadina Racemosa|Sinoadina racemosa|Sinocrassula indica|Sinopodophyllum hexandrum|Sinularia molesta|Siphocampylus verticillatus|Siphonoglossa mexicana|Smallanthus sonchifolius|Smilax bockii|Smilax china|Smilax glabra|Smilax glyciphylla|Smilax sieboldi|Smilax sp.|Smyrnium creticum|Smyrnium perfoliatum|Smyrnium rotundifolium|Solanum acaule|Solanum aculeatissimum|Solanum crinitum|Solanum dulcamara|Solanum elaeagnifolium|Solanum incanum|Solanum lanceolatum|Solanum lycopersicum|Solanum melongena|Solanum nigrum|Solanum pubescens|Solanum tuberosum|Solenopsis punctaticeps|Solidago canadensis|Solidago sp.|Solidago virga-aurea|Solidago virgaurea|Sonchus pustulatus|Sophora Japonica|Sophora angustifolia|Sophora exigua|Sophora japonica|Sophora moorcroftiana|Sophora pachycarpa|Sophora tometosa|Sparganium stoloniferum|Sperganium stoloniferum|Spinacia oleracea|Spinulum annotinum|Spodoptera eridania|Sporobolus cynosuroides|Stachyurus himalaicus|Stenomesson miniatum|Stephania epigaea|Stephania sutchuenensis|Sterculia platanifolia|Stereocaulon leprocauloides|Stevia connata|Stevia polycephala|Stichopus chloronotus|Stipa vaseyi|Streptomyces albidoflavus|Streptomyces albus|Streptomyces blastmyceticus|Streptomyces cellulosae|Streptomyces cellulosae TES17|Streptomyces chattanoogensis|Streptomyces coelicolor|Streptomyces fervens|Streptomyces filamentosus|Streptomyces flocculus|Streptomyces fumanus|Streptomyces griseochromogenes|Streptomyces griseovariabilis|Streptomyces lavendofoliae|Streptomyces lavendulae|Streptomyces lomondensis|Streptomyces matensis|Streptomyces odorifer|Streptomyces orinoci|Streptomyces parvisporogenes|Streptomyces paulus|Streptomyces resistomycificus|Streptomyces sparsogenes|Streptomyces viridogenes|Streptomyces yokosukanensis|Strychnos tricalysioides|Strychnos vacacoua|Styphnolobium japonicum|Suillus tridentinus|Sulla coronaria|Swartzia apetala|Swertia decussata|Swertia delavayi|Swertia japonica|Swertia paniculata|Symphyotrichum bracteolatum|Symphyotrichum eatonii|Syncarpia hillii|Synoicum pulmonaria|Syphonota geographica|Syringa reticulata|Syringa vulgaris|Syzygium Cumini|Syzygium aromaticum|Syzygium cumini|Syzygium nervosum|Syzygium sp.|Tabebuia rosea|Tachigalia paniculata|Tadehagi triquetrum|Tagetes erecta|Tagetes lucida|Tagetes tenuifolia|Talaromyces coalescens|Tamarix chinensis|Tamarix nilotica|Tamarix senegalensis|Tanacetum argenteum|Tanacetum nubigenum|Tanacetum parthenifolium|Taraxacum bicorne|Tarenaya spinosa|Targionia hypophylla|Taxus brevifolia|Taxus wallichiana var. chinensis|Teclea boiviniana|Tephrosia elata|Tephrosia platycarpa|Tephrosia pumila|Tephrosia vogelii|Terminalia sp.|Tetraneuris acaulis|Tetraneuris linearifolia|Tetrapanax Papyriferus|Tetrapanax papyrifer|Tetrapanax papyriferus|Teucrium asiaticum|Teucrium depressum|Thalictrum atriplex|Thalictrum cultratum|Thalictrum filamentosum|Thaminophyllum multiflorum|Thamnosma rhodesica|Theobroma grandiflorum|Thermoplasma acidophilum|Thermopsis alpina|Thermopsis dolichocarpa|Thermopsis mollis|Thesium chinense|Thevetia Peruviana|Thevetia peruviana|Thorecta marginalis|Thuja sp.|Thymus|Thymus longiflorus|Thymus moroderi|Thymus piperella|Thymus quinquecostatus|Thymus vulgaris|Tiarella trifoliata|Tilia cordata|Tilia miqueliana|Tilia sp.|Tilia tomentosa|Tipuana tipu|Toddalia floribunda|Toona sinensis|Torreya fargesii var. yunnanensis|Toxicodendron vernicifluum|Toxicodendron wallichii|Tragopogon crocifolius|Tragopogon hybridus|Tragopogon longirostris|Tragopogon porrifolius|Tragopogon pratensis|Triadica sebifera|Triaenophora rupestris|Trichilia rubescens|Trichoderma polysporum|Trichodesma incanum|Trichophyton megnini|Trididemnum cyanophorum|Trifolium echinatum|Trifolium polyphyllum|Trifolium repens|Trifolium sp.|Trigonella balansae|Trigonella caerulea|Trigonella calliceras|Trigonella corniculata|Trigonella cretica|Trigonella foenum-graceum|Trigonella foenum-graecum|Trigonella grandiflora|Trikentrion flabelliforme|Tripolium pannonicum|Tripterygium wilfordii|Trogoderma granarium|Trollius europaeus|Tropaeolum majus|Tsuga chinensis|Turbinaria ornata|Turbo argyrostoma|Turraea nilotica|Turricula parryi|Tussilago farfara|Tussilago sp.|Tylosema esculentum|Typha Angustifolia|Typha angustifolia|Typha orientalis|Uncaria guianensis|Uncaria laevigata|Uncaria macrophylla|Ungernia sewerzowi|Unonopsis glaucopetala|Urena lobata|Urochloa decumbens|Urospermum picroides|Urtica dioica|Usnea florida|Usnea japonica|Uvaria acuminata|Uvaria calamistrata|Uvaria littoralis|Uvaria macrophylla|Vaccaria hispanica|Vaccinium angustifolium|Vaccinium corymbosum|Vaccinium deliciosum|Vaccinium macrocarpon|Vaccinium myrtillus|Vaccinium ovalifolium|Vaccinium ovatum|Vaccinium oxycoccos|Vaccinium parvifolium|Vaccinium vitis-idaea|Vahlia capensis|Valeriana amurensis|Valeriana cardamines|Valeriana eriophylla|Valeriana fedtschenkoi|Vallota purpurea|Vellozia candida|Vellozia scoparia|Vepris pilosa|Veratrum stenophyllum|Verbascum fruticulosum|Verbascum phlomoides|Verbascum sp.|Verbena officinalis|Vernonia anisochaetoides|Vernonia pachyclada|Vibrio parahaemolyticus|Viburnum betulifolium|Viburnum buddleifolium|Viburnum carlesii|Viburnum chingii|Viburnum cinnamomifolium|Viburnum corylifolium|Viburnum cotinifolium|Viburnum cylindricum|Viburnum davidii|Viburnum dentatum|Viburnum erubescens|Viburnum farreri|Viburnum foetens|Viburnum foetidum|Viburnum fragrans|Viburnum grandiflorum|Viburnum henryi|Viburnum lantana|Viburnum lentago|Viburnum lobophyllum|Viburnum macrocephalum|Viburnum mongolicum|Viburnum opulus|Viburnum plicatum|Viburnum rafinesqueanum|Viburnum rhytidophyllum|Viburnum sympodiale|Viburnum tinus|Vicia amoena|Vicia amurensis|Vicia articulata|Vicia benghalensis|Vicia cracca|Vicia faba|Vicia hirsuta|Vicia monantha|Vicia monanthos|Vicia peregrina|Vicia pisiformis|Vicia sativa|Vicia sylvatica|Vicia tenuifolia|Vicia tetrasperma|Vicia villosa|Vidalia volubilis|Vigna radiata|Vigna unguiculata|Viguiera stenoloba|Villarsia capensis|Vinca erecta|Vinca minor|Vincetoxicum scandens|Vincetoxicum sp.|Virola multinervia|Viscaria viscosa|Vismia jefensis|Vismia laurentii|Visnea mocanera|Vitex agnus-castus|Vitex quinata|Vitis aestivalis|Vitis cinerea|Vitis riparia|Vitis silvestris|Vitis vinifera|Vitis vulpina|Volkameria inermis|Walsura tubulata|Warburgia stuhlmannii|Warburgia ugandensis|Widely distributed in plant|Wikstroemia canescens|Wikstroemia viridiflora|Wisteria floribunda|Wyethia mollis|Xanthium pungens|Xanthoceras sorbifolia|Xanthoceras sorbifolium|Xanthorhiza simplicissima|Xanthorrhoea preissii|Xanthorrhoea resinosa|Xenia florida|Xenia obscuronata|Xenoacremonium recifei|Xylopia brasiliensis|Zanthoxylum chiriquinum|Zanthoxylum fraxineum|Zanthoxylum sp.|Zieria smithii|Zingiber|Zingiber officinale|Zingiber spectabile|Ziziphus jujuba|Ziziphus mauritiana|asparagus|basil|bog bilberry|broad bean|broccoli|byrsonima coccolobifolia|cacao|clove|common myrtle|gai lan|garlic|kohlrabi|lettuce|marjoram|microtea debilis|parsley|peanut|pomegranate|pomelo|potato|smilax glyciphylla|soybean|sweet pea|tarragon|tomato|umbellate wintergreen|yerba mate

>  <collections>  (199) 
ANPDB|AfroCancer|AnalytiCon Discovery NPs|Australian natural products|BIOFACQUIM|BitterDB|CMAUP (cCollective molecular activities of useful plants)|ChEBI NPs|ChemSpider NPs|ConMedNP|DrugBankNP|EMNPD|ETM (Ethiopian Traditional Medicine) DB|Exposome-explorer|FooDB|GNPS (Global Natural Products Social Molecular Networking)|HIM (Herbal Ingredients in-vivo Metabolism database)|HIT (Herbal Ingredients Targets)|InPACdb|InflamNat|KNApSaCK|Latin America dataset|Mitishamba database|NANPDB (Natural Products from Northern African Sources)|NAPRORE-CR|NPACT|NPASS|NPCARE|NPDBEjeCol|NPEdia|NuBBEDB|PeruNPDB|Phenol-explorer|Phyto4Health|PhytoLab phyproof® Reference Substances|PubChem NPs|ReSpect|SANCDB|StreptomeDB|Super Natural II|TCMDB-Taiwan (Traditional Chinese Medicine database)|TCMID (Traditional Chinese Medicine Integrated Database)|TIPdb (database of Taiwan indigenous plants)|TPPT (Toxic Plants–PhytoToxins)|TerPenoids database embedded with Content information (TPCN)|UEFS (Natural Products Databse of the UEFS)|UNPD (Universal Natural Products Database)|VietHerb|Watermelon|WikiData Natural Products|p-ANAPL

>  <dois>  (199) 
10.1002/(SICI)1096-9888(199706)32:6<645::AID-JMS518>3.0.CO;2-P|10.1002/(SICI)1097-0010(200004)80:5<561::AID-JSFA574>3.0.CO;2-|10.1002/(SICI)1099-1565(199603)7:2<97::AID-PCA286>3.0.CO;2-M|10.1002/(SICI)1099-1573(199605)10:3<202::AID-PTR805>3.0.CO;2-0|10.1002/(SICI)1099-1573(199808)12:5<324::AID-PTR300>3.0.CO;2-2|10.1002/1099-1573(200011)14:7<561::AID-PTR651>3.0.CO;2-H|10.1002/1521-4184(20008)333:8<275::AID-ARDP275>3.0.CO;2-4|10.1002/9780470744307.gat218|10.1002/ARDP.19002380606|10.1002/BMC.4601|10.1002/CBDV.200690093|10.1002/CBDV.201000279|10.1002/CHIN.198837311|10.1002/CHIN.200052210|10.1002/CHIN.200117207|10.1002/CHIN.200313168|10.1002/CHIN.200317212|10.1002/CHIN.200345199|10.1002/CHIN.200352233|10.1002/CHIN.200451186|10.1002/CHIN.200550175|10.1002/ELPS.200390159|10.1002/ELPS.201300646|10.1002/HLCA.201000195|10.1002/HLCA.201000385|10.1002/J.1537-2197.1979.TB06321.X|10.1002/J.1537-2197.1983.TB12458.X|10.1002/J.1537-2197.1986.TB08521.X|10.1002/JCCS.198500075|10.1002/JCCS.199300015|10.1002/JCCS.199500076|10.1002/JCCS.199500136|10.1002/JCCS.199700056|10.1002/JCCS.200000029|10.1002/JCCS.200000050|10.1002/JCCS.200400063|10.1002/JCCS.201190020|10.1002/JMS.395|10.1002/JPS.2600610534|10.1002/JPS.2600680236|10.1002/JPS.3080110306|10.1002/JSFA.1035|10.1002/JSFA.1820|10.1002/JSSC.200600289|10.1002/MRC.2331|10.1002/MRC.2540|10.1002/MRC.2546|10.1002/PRAC.19953370109|10.1002/PTR.1166|10.1002/PTR.1200|10.1002/PTR.2448|10.1002/PTR.2913|10.1002/PTR.865|10.1002/food.19880321030|10.1002/fsn3.3317|10.1002/jcp.10340|10.1006/BBRC.1996.1759|10.1006/MCHJ.1995.1079|10.1007/0-387-28822-8_5|10.1007/0-387-28822-8_8|10.1007/978-1-4020-4585-1_2243|10.1007/978-1-4020-4585-1_2389|10.1007/978-3-540-71095-0_6009|10.1007/978-3-642-73686-5_3|10.1007/BF00269127|10.1007/BF00381261|10.1007/BF00487242|10.1007/BF00563361|10.1007/BF00563466|10.1007/BF00563488|10.1007/BF00563636|10.1007/BF00563640|10.1007/BF00563641|10.1007/BF00563831|10.1007/BF00563908|10.1007/BF00564017|10.1007/BF00564021|10.1007/BF00564319|10.1007/BF00564758|10.1007/BF00564822|10.1007/BF00564825|10.1007/BF00564826|10.1007/BF00564828|10.1007/BF00564836|10.1007/BF00564977|10.1007/BF00565207|10.1007/BF00565316|10.1007/BF00565728|10.1007/BF00565806|10.1007/BF00566097|10.1007/BF00566810|10.1007/BF00567817|10.1007/BF00567953|10.1007/BF00568248|10.1007/BF00568544|10.1007/BF00568701|10.1007/BF00568705|10.1007/BF00569016|10.1007/BF00570205|10.1007/BF00570687|10.1007/BF00571239|10.1007/BF00573563|10.1007/BF00574277|10.1007/BF00574348|10.1007/BF00574349|10.1007/BF00574360|10.1007/BF00575035|10.1007/BF00575061|10.1007/BF00575192|10.1007/BF00575723|10.1007/BF00575726|10.1007/BF00575775|10.1007/BF00575776|10.1007/BF00576104|10.1007/BF00576105|10.1007/BF00577206|10.1007/BF00579160|10.1007/BF00579444|10.1007/BF00579496|10.1007/BF00579786|10.1007/BF00579802|10.1007/BF00579838|10.1007/BF00579981|10.1007/BF00580088|10.1007/BF00580092|10.1007/BF00580572|10.1007/BF00596666|10.1007/BF00597817|10.1007/BF00598180|10.1007/BF00598183|10.1007/BF00598319|10.1007/BF00598321|10.1007/BF00598325|10.1007/BF00598367|10.1007/BF00598370|10.1007/BF00598371|10.1007/BF00598374|10.1007/BF00598596|10.1007/BF00598601|10.1007/BF00598775|10.1007/BF00599013|10.1007/BF00599275|10.1007/BF00600854|10.1007/BF00600855|10.1007/BF00605216|10.1007/BF00607554|10.1007/BF00629810|10.1007/BF00629811|10.1007/BF00629813|10.1007/BF00630091|10.1007/BF00630331|10.1007/BF00630448|10.1007/BF00630449|10.1007/BF00630553|10.1007/BF00630665|10.1007/BF00630668|10.1007/BF00631362|10.1007/BF00636587|10.1007/BF00638415|10.1007/BF00683855|10.1007/BF00713341|10.1007/BF01032048|10.1007/BF01100201|10.1007/BF01100682|10.1007/BF02234887|10.1007/BF02234915|10.1007/BF02257318|10.1007/BF02259383|10.1007/BF02275745|10.1007/BF02282376|10.1007/BF02291545|10.1007/BF02311521|10.1007/BF02323304|10.1007/BF02858178|10.1007/BF02859211|10.1007/BF02892023|10.1007/BF02975189|10.1007/BF02976779|10.1007/BF02976956|10.1007/BF02977667|10.1007/BF02978826|10.1007/BF02980100|10.1007/S002160100898|10.1007/S002170000220|10.1007/S00425-017-2718-4|10.1007/S10529-015-1825-1|10.1007/S10600-006-0088-4|10.1007/S10600-006-0089-3|10.1007/S10600-006-0251-Y|10.1007/S10600-006-0267-3|10.1007/S10600-007-0056-7|10.1007/S10600-007-0166-2|10.1007/S10600-007-0222-Y|10.1007/S10600-007-0232-9|10.1007/S10600-008-0028-6|10.1007/S10600-008-9065-4|10.1007/S10600-009-9247-8|10.1007/S10600-009-9291-4|10.1007/S10600-009-9359-1|10.1007/S10600-009-9362-6|10.1007/S10600-009-9402-2|10.1007/S10600-009-9410-2|10.1007/S10600-010-9537-1|10.1007/S10600-010-9543-3|10.1007/S10600-010-9597-2|10.1007/S10600-010-9645-Y|10.1007/S10600-010-9649-7|10.1007/S10600-010-9697-Z|10.1007/S10600-011-0065-4|10.1007/S10600-011-0071-6|10.1007/S10600-011-0072-5|10.1007/S10600-011-9800-0|10.1007/S10600-011-9847-Y|10.1007/S10600-011-9905-5|10.1007/S10600-011-9907-3|10.1007/S10600-012-0124-5|10.1007/S10600-012-0125-4|10.1007/S10600-014-0994-9|10.1007/S10600-017-1933-3|10.1007/S10600-019-02638-2|10.1007/S11130-009-0133-0|10.1007/S11130-011-0236-2|10.1007/S11418-007-0152-9|10.1007/S11418-008-0256-X|10.1007/S11947-012-0877-7|10.1007/SPRINGERREFERENCE_68290|10.1007/SPRINGERREFERENCE_68291|10.1007/SPRINGERREFERENCE_69374|10.1007/s10600-007-0056-7|10.1007/s11130-012-0286-0|10.1016/0003-9861(58)90127-9|10.1016/0021-9673(92)85026-P|10.1016/0021-9673(93)83449-3|10.1016/0021-9673(94)89051-X|10.1016/0026-265X(82)90102-3|10.1016/0031-6865(94)90049-3|10.1016/0031-6865(96)00009-X|10.1016/0031-9422(73)80048-2|10.1016/0031-9422(73)80397-8|10.1016/0031-9422(73)80417-0|10.1016/0031-9422(77)83041-0|10.1016/0031-9422(80)83210-9|10.1016/0031-9422(82)80150-7|10.1016/0031-9422(82)80176-3|10.1016/0031-9422(82)83123-3|10.1016/0031-9422(83)80110-1|10.1016/0031-9422(84)83046-0|10.1016/0031-9422(86)80029-2|10.1016/0031-9422(88)80767-2|10.1016/0031-9422(88)83030-9|10.1016/0031-9422(88)83068-1|10.1016/0031-9422(89)80141-4|10.1016/0031-9422(89)85071-X|10.1016/0031-9422(90)80042-F|10.1016/0031-9422(90)80181-F|10.1016/0031-9422(90)85060-S|10.1016/0031-9422(90)85065-N|10.1016/0031-9422(90)85105-O|10.1016/0031-9422(90)85193-J|10.1016/0031-9422(90)85309-4|10.1016/0031-9422(90)85389-W|10.1016/0031-9422(91)83034-I|10.1016/0031-9422(91)83058-S|10.1016/0031-9422(91)83503-D|10.1016/0031-9422(91)83679-F|10.1016/0031-9422(91)84145-I|10.1016/0031-9422(91)85027-W|10.1016/0031-9422(91)85310-V|10.1016/0031-9422(92)80175-E|10.1016/0031-9422(92)80355-I|10.1016/0031-9422(92)80400-9|10.1016/0031-9422(92)83334-U|10.1016/0031-9422(92)83709-8|10.1016/0031-9422(93)00074-P|10.1016/0031-9422(93)85092-6|10.1016/0031-9422(93)85262-P|10.1016/0031-9422(93)85359-Y|10.1016/0031-9422(93)85448-Z|10.1016/0031-9422(94)00591-G|10.1016/0031-9422(94)85017-8|10.1016/0031-9422(95)00067-4|10.1016/0031-9422(95)00277-E|10.1016/0031-9422(95)00316-Y|10.1016/0031-9422(95)00383-I|10.1016/0031-9422(95)00507-4|10.1016/0031-9422(95)00573-0|10.1016/0031-9422(95)00889-6|10.1016/0031-9422(95)00924-8|10.1016/0031-9422(95)93530-S|10.1016/0098-8472(86)90054-7|10.1016/0305-1978(82)90020-5|10.1016/0305-1978(84)90033-4|10.1016/0305-1978(86)90060-8|10.1016/0305-1978(86)90088-8|10.1016/0305-1978(87)90085-8|10.1016/0305-1978(88)90012-9|10.1016/0305-1978(88)90048-8|10.1016/0305-1978(88)90086-5|10.1016/0305-1978(88)90094-4|10.1016/0305-1978(90)90026-C|10.1016/0305-1978(91)90068-B|10.1016/0305-1978(91)90082-B|10.1016/0305-1978(92)90025-9|10.1016/0305-1978(92)90027-B|10.1016/0305-1978(92)90062-I|10.1016/0305-1978(93)90077-5|10.1016/0305-1978(94)90063-9|10.1016/0305-1978(95)00048-Y|10.1016/0305-1978(95)00080-1|10.1016/0305-1978(95)93663-N|10.1016/0305-1978(95)93846-U|10.1016/0305-1978(95)97456-7|10.1016/0305-1978(96)00004-X|10.1016/0305-1978(96)88877-6|10.1016/0378-8741(84)90075-8|10.1016/0378-8741(88)90069-4|10.1016/0378-8741(94)90098-1|10.1016/0734-9750(93)90042-L|10.1016/B978-0-08-028853-6.50009-7|10.1016/B978-0-12-397934-6.00012-7|10.1016/B978-0-12-804678-4.00006-3|10.1016/B978-0-12-818162-1.00043-2|10.1016/J.ARABJC.2013.12.011|10.1016/J.BMC.2004.01.030|10.1016/J.BMC.2009.06.057|10.1016/J.BMC.2009.08.036|10.1016/J.BMC.2010.01.046|10.1016/J.BMC.2011.03.055|10.1016/J.BMC.2011.07.006|10.1016/J.BMCL.2009.05.070|10.1016/J.BMCL.2010.10.058|10.1016/J.BMCL.2011.01.066|10.1016/J.BMCL.2011.10.003|10.1016/J.BMCL.2012.02.064|10.1016/J.BMCL.2013.04.013|10.1016/J.BMCL.2015.04.045|10.1016/J.BMCL.2015.05.089|10.1016/J.BMCL.2015.07.017|10.1016/J.BSE.2019.103959|10.1016/J.CARRES.2010.09.002|10.1016/J.CARRES.2011.04.028|10.1016/J.CCLET.2009.12.019|10.1016/J.CHROMA.2005.11.056|10.1016/J.FCT.2004.01.008|10.1016/J.FCT.2007.07.003|10.1016/J.FITOTE.2007.04.005|10.1016/J.FITOTE.2008.03.005|10.1016/J.FITOTE.2008.04.002|10.1016/J.FITOTE.2009.11.003|10.1016/J.FITOTE.2010.12.003|10.1016/J.FITOTE.2011.08.014|10.1016/J.FITOTE.2011.10.007|10.1016/J.FITOTE.2012.06.007|10.1016/J.FOODCHEM.2005.02.007|10.1016/J.FOODCHEM.2005.07.028|10.1016/J.FOODCHEM.2006.06.063|10.1016/J.FOODCHEM.2007.08.038|10.1016/J.FOODCHEM.2009.03.042|10.1016/J.FOODCHEM.2011.09.040|10.1016/J.FOODCHEM.2011.09.063|10.1016/J.FOODCHEM.2020.128444|10.1016/J.FOODCONT.2014.02.001|10.1016/J.FOODRES.2004.10.005|10.1016/J.FOODRES.2017.06.052|10.1016/J.IFSET.2018.01.008|10.1016/J.INDCROP.2018.08.004|10.1016/J.JEP.2004.03.042|10.1016/J.JEP.2006.02.010|10.1016/J.JEP.2006.09.006|10.1016/J.JSS.2008.02.036|10.1016/J.LFS.2007.12.021|10.1016/J.LWT.2018.02.024|10.1016/J.LWT.2019.108673|10.1016/J.MOLSTRUC.2011.02.005|10.1016/J.NUTRES.2019.10.010|10.1016/J.PHYMED.2006.11.021|10.1016/J.PHYMED.2008.12.020|10.1016/J.PHYTOCHEM.2004.09.009|10.1016/J.PHYTOCHEM.2005.09.015|10.1016/J.PHYTOCHEM.2006.03.018|10.1016/J.PHYTOCHEM.2006.04.009|10.1016/J.PHYTOCHEM.2006.06.030|10.1016/J.PHYTOCHEM.2007.02.015|10.1016/J.PHYTOCHEM.2007.03.001|10.1016/J.PHYTOCHEM.2007.03.004|10.1016/J.PHYTOCHEM.2007.03.010|10.1016/J.PHYTOCHEM.2007.05.027|10.1016/J.PHYTOCHEM.2007.05.035|10.1016/J.PHYTOCHEM.2007.06.017|10.1016/J.PHYTOCHEM.2008.01.006|10.1016/J.PHYTOCHEM.2008.02.018|10.1016/J.PHYTOCHEM.2008.06.008|10.1016/J.PHYTOCHEM.2009.04.003|10.1016/J.PHYTOCHEM.2009.04.008|10.1016/J.PHYTOCHEM.2010.03.014|10.1016/J.PHYTOCHEM.2011.01.018|10.1016/J.PHYTOCHEM.2011.01.025|10.1016/J.PHYTOL.2010.08.001|10.1016/J.PHYTOL.2011.12.012|10.1016/J.PLAPHY.2015.04.008|10.1016/J.SAJB.2011.10.004|10.1016/J.TETLET.2010.11.040|10.1016/S0015-3796(86)80050-6|10.1016/S0021-9258(20)65194-8|10.1016/S0021-9673(00)91555-3|10.1016/S0021-9673(01)00598-2|10.1016/S0021-9673(01)87655-X|10.1016/S0021-9673(01)97678-2|10.1016/S0021-9673(97)01061-3|10.1016/S0024-3205(01)01425-4|10.1016/S0031-9422(00)00244-2|10.1016/S0031-9422(00)00479-9|10.1016/S0031-9422(00)80080-1|10.1016/S0031-9422(00)80124-7|10.1016/S0031-9422(00)80549-X|10.1016/S0031-9422(00)80675-5|10.1016/S0031-9422(00)81226-1|10.1016/S0031-9422(00)81324-2|10.1016/S0031-9422(00)81696-9|10.1016/S0031-9422(00)82391-2|10.1016/S0031-9422(00)83050-2|10.1016/S0031-9422(00)83207-0|10.1016/S0031-9422(00)83536-0|10.1016/S0031-9422(00)83767-X|10.1016/S0031-9422(00)83902-3|10.1016/S0031-9422(00)84889-X|10.1016/S0031-9422(00)85001-3|10.1016/S0031-9422(00)85782-9|10.1016/S0031-9422(00)86150-6|10.1016/S0031-9422(00)86879-X|10.1016/S0031-9422(00)88024-3|10.1016/S0031-9422(00)88397-1|10.1016/S0031-9422(00)88884-6|10.1016/S0031-9422(00)89739-3|10.1016/S0031-9422(00)89780-0|10.1016/S0031-9422(00)89801-5|10.1016/S0031-9422(00)89943-4|10.1016/S0031-9422(00)90131-6|10.1016/S0031-9422(00)90608-3|10.1016/S0031-9422(00)91129-4|10.1016/S0031-9422(00)94161-X|10.1016/S0031-9422(00)97243-1|10.1016/S0031-9422(00)97284-4|10.1016/S0031-9422(00)97572-1|10.1016/S0031-9422(00)97838-5|10.1016/S0031-9422(00)97906-8|10.1016/S0031-9422(00)98014-2|10.1016/S0031-9422(01)00006-1|10.1016/S0031-9422(01)00154-6|10.1016/S0031-9422(01)00365-X|10.1016/S0031-9422(01)00415-0|10.1016/S0031-9422(02)00133-4|10.1016/S0031-9422(02)00488-0|10.1016/S0031-9422(03)00105-5|10.1016/S0031-9422(03)00198-5|10.1016/S0031-9422(03)00374-1|10.1016/S0031-9422(03)00437-0|10.1016/S0031-9422(96)00329-9|10.1016/S0031-9422(96)00597-3|10.1016/S0031-9422(96)00800-X|10.1016/S0031-9422(96)00801-1|10.1016/S0031-9422(97)00370-1|10.1016/S0031-9422(97)00746-2|10.1016/S0031-9422(97)01003-0|10.1016/S0031-9422(98)00106-X|10.1016/S0031-9422(98)80097-6|10.1016/S0031-9422(99)00038-2|10.1016/S0031-9422(99)00074-6|10.1016/S0031-9422(99)00262-9|10.1016/S0031-9422(99)00297-6|10.1016/S0031-9422(99)00326-X|10.1016/S0031-9422(99)00412-4|10.1016/S0305-1978(00)00115-0|10.1016/S0305-1978(01)00098-9|10.1016/S0305-1978(96)00081-6|10.1016/S0305-1978(97)00049-5|10.1016/S0305-1978(97)00054-9|10.1016/S0305-1978(97)00080-X|10.1016/S0305-1978(97)00092-6|10.1016/S0305-1978(97)00122-1|10.1016/S0305-1978(98)00019-2|10.1016/S0308-8146(00)00091-1|10.1016/S0308-8146(01)00114-5|10.1016/S0308-8146(01)00305-3|10.1016/S0367-326X(00)00185-4|10.1016/S0367-326X(00)00229-X|10.1016/S0367-326X(01)00327-6|10.1016/S0367-326X(01)00331-8|10.1016/S0367-326X(02)00113-2|10.1016/S0367-326X(03)00061-3|10.1016/S0367-326X(99)00131-8|10.1016/S0378-8741(00)00304-4|10.1016/S0378-8741(01)00363-4|10.1016/S0378-8741(01)00379-8|10.1016/S0731-7085(00)00455-6|10.1016/S0731-7085(00)00539-2|10.1016/S0891-5849(02)00751-7|10.1016/S0963-9969(00)00086-7|10.1016/S0963-9969(00)00156-3|10.1016/S0963-9969(99)00095-2|10.1016/S0968-0896(00)00102-4|10.1016/S1875-5364(12)60009-0|10.1016/S2221-1691(12)60050-1|10.1016/j.bbrc.2008.07.131|10.1016/j.bmc.2009.06.057|10.1016/j.bmc.2009.08.036|10.1016/j.bmc.2010.01.046|10.1016/j.bmcl.2010.10.058|10.1016/j.bmcl.2012.02.064|10.1016/j.bmcl.2013.04.013|10.1016/j.bmcl.2015.04.045|10.1016/j.bmcl.2015.05.089|10.1016/j.bmcl.2015.07.017|10.1016/j.cbi.2008.10.048|10.1016/j.foodchem.2009.03.042|10.1016/j.foodchem.2020.128444|10.1016/j.foodcont.2014.02.001|10.1016/j.foodres.2019.108899|10.1016/j.jep.2006.09.006|10.1016/j.jep.2007.10.011|10.1016/j.phytochem.2008.01.006|10.1016/j.sajb.2011.10.004|10.1016/j.synbio.2021.09.004|10.1017/S0007114511004272|10.1021/ACS.JNATPROD.6B00839|10.1021/JA01143A027|10.1021/JF00002A006|10.1021/JF00024A011|10.1021/JF00032A015|10.1021/JF00035A025|10.1021/JF000388H|10.1021/JF00062A017|10.1021/JF000661F|10.1021/JF00070A001|10.1021/JF0010228|10.1021/JF00112A034|10.1021/JF001145S|10.1021/JF0115894|10.1021/JF011682S|10.1021/JF020661A|10.1021/JF020728U|10.1021/JF025781X|10.1021/JF026029Z|10.1021/JF0307402|10.1021/JF0307595|10.1021/JF030813H|10.1021/JF0483117|10.1021/JF050051L|10.1021/JF051513Y|10.1021/JF060185E|10.1021/JF061478A|10.1021/JF0620968|10.1021/JF062997G|10.1021/JF0734727|10.1021/JF100332W|10.1021/JF2014759|10.1021/JF400779W|10.1021/JF802152Z|10.1021/JF904596M|10.1021/JF950310E|10.1021/JF9505335|10.1021/JF960339Y|10.1021/JF9800211|10.1021/JF980669D|10.1021/JF990201Q|10.1021/JF9909757|10.1021/JF991274C|10.1021/NP000061A|10.1021/NP010035S|10.1021/NP010466A|10.1021/NP0105578|10.1021/NP020003K|10.1021/NP020608G|10.1021/NP030034V|10.1021/NP030217H|10.1021/NP0302854|10.1021/NP030440E|10.1021/NP034002J|10.1021/NP0401819|10.1021/NP040197Z|10.1021/NP0500272|10.1021/NP0501031|10.1021/NP050185T|10.1021/NP050458K|10.1021/NP0580210|10.1021/NP0600898|10.1021/NP060369N|10.1021/NP060430O|10.1021/NP0605539|10.1021/NP0605539.S001|10.1021/NP070489A|10.1021/NP070501Z|10.1021/NP070629G|10.1021/NP100896W|10.1021/NP200188W|10.1021/NP3001464|10.1021/NP300204P|10.1021/NP4005163|10.1021/NP400717M|10.1021/NP50019A012|10.1021/NP50020A005|10.1021/NP50021A021|10.1021/NP50022A009|10.1021/NP50022A030|10.1021/NP50027A025|10.1021/NP50028A007|10.1021/NP50028A037|10.1021/NP50030A024|10.1021/NP50032A022|10.1021/NP50034A033|10.1021/NP50037A036|10.1021/NP50043A042|10.1021/NP50044A034|10.1021/NP50045A034|10.1021/NP50045A042|10.1021/NP50046A053|10.1021/NP50048A063|10.1021/NP50052A045|10.1021/NP50057A037|10.1021/NP50065A009|10.1021/NP50082A008|10.1021/NP50085A021|10.1021/NP50086A021|10.1021/NP50099A032|10.1021/NP50101A022|10.1021/NP50102A017|10.1021/NP50104A016|10.1021/NP800016E|10.1021/NP8008122|10.1021/NP960037Q|10.1021/NP9601925|10.1021/NP960451Q|10.1021/NP970025K|10.1021/NP970336V|10.1021/NP990271R|10.1021/NP9902744|10.1021/NP9902993|10.1021/acs.jnatprod.5b00877|10.1021/acs.jnatprod.6b00981|10.1021/acs.jnatprod.7b00063|10.1021/acs.jnatprod.9b00262|10.1021/acs.jnatprod.9b01030|10.1021/np020018i|10.1021/np0302854|10.1021/np060369n|10.1021/np0605539|10.1021/np070489a|10.1021/np100896w|10.1021/np200188w|10.1021/np300204p|10.1021/np4005163|10.1021/np400717m|10.1021/np50032a022|10.1021/np50057a037|10.1021/np50096a027|10.1021/np8008122|10.1021/np960451q|10.1021/np970025k|10.1021/np970569m|10.1021/np990271r|10.1023/B:CONC.0000025477.18086.8B|10.1023/B:CONC.0000033925.00693.7B|10.1023/B:CONC.0000033945.16862.19|10.1034/J.1399-3054.1992.860213.X|10.1034/J.1399-3054.1999.100301.X|10.1038/018153A0|10.1038/181025B0|10.1038/sj.ejcn.1602744|10.1039/C9FO00799G|10.1039/CT8987300267|10.1039/CT9028100585|10.1039/CT9109700001|10.1039/CT9140502350|10.1039/JR9610002714|10.1039/P19750001776|10.1042/BJ0180957|10.1046/J.1365-313X.2003.01834.X|10.1046/J.1432-1033.2003.03729.X|10.1055/S-0028-1097371|10.1055/S-0028-1097462|10.1055/S-0028-1097486|10.1055/S-0028-1097578|10.1055/S-0028-1097628|10.1055/S-0028-1097913|10.1055/S-0028-1099426|10.1055/S-0029-1240864|10.1055/S-0029-1241017|10.1055/S-0030-1250113|10.1055/S-0030-1250144|10.1055/S-0034-1382449|10.1055/S-0035-1545201|10.1055/S-2001-18339|10.1055/S-2002-26738|10.1055/S-2002-35657|10.1055/S-2004-818939|10.1055/S-2004-818956|10.1055/S-2006-957620|10.1055/S-2006-957627|10.1055/S-2006-957639|10.1055/S-2006-957671|10.1055/S-2006-957682|10.1055/S-2006-957713|10.1055/S-2006-957860|10.1055/S-2006-958024|10.1055/S-2007-969169|10.1055/S-2007-969308|10.1055/S-2007-969312|10.1055/S-2007-971441|10.1055/S-2007-981551|10.1055/S-2007-981565|10.1055/S-2008-1034278|10.1055/S-2008-1074498|10.1071/BT9690133|10.1071/bt9690133|10.1076/PHBI.37.1.28.6327|10.1079/CABICOMPENDIUM.38193|10.1080/00021369.1987.10868448|10.1080/01635580802100851|10.1080/01811797.1985.10824657|10.1080/09637480500524299|10.1080/09637486.2017.1418845|10.1080/10286020.2010.485932|10.1080/10286020.2010.541156|10.1080/10286020.2011.603306|10.1080/10286020.2019.1642330|10.1080/10286020290019622|10.1080/1028602031000105867|10.1080/1028602031000147401|10.1080/1028602042000324826|10.1080/1057563021000060149|10.1080/10575639308043880|10.1080/10575639508043206|10.1080/10826079808001950|10.1080/14786410802242851|10.1080/14786410802278327|10.1080/14786410902836677|10.1080/14786410902991860|10.1080/14786410903075507|10.1080/14786411003766888|10.1080/14786419.2010.540760|10.1080/14786419.2013.782493|10.1080/14786419.2016.1226831|10.1080/246-1071576021000016472|10.1081/JLC-100100418|10.1081/JLC-100101645|10.1081/JLC-100101655|10.1081/JLC-100102074|10.1081/JLC-120014270|10.1081/JLC-120027086|10.1093/AJCN/68.1.60|10.1093/NOTESJ/S8-II.27.15-A|10.1093/pcp/pcn183|10.1104/PP.100.1.444|10.1104/PP.18.00549|10.1104/PP.69.2.522|10.1104/PP.74.4.877|10.1104/PP.93.1.20|10.1104/PP.97.1.343|10.1111/1750-3841.12404|10.1111/1750-3841.15463|10.1111/J.1095-8339.1984.TB02563.X|10.1111/J.1365-2621.1953.TB17705.X|10.1111/J.1365-2621.2003.TB12340.X|10.1111/J.1438-8677.1992.TB00302.X|10.1135/CCCC19883193|10.1136/STI.71.2.92|10.1139/B88-058|10.1139/B89-200|10.1139/V83-312|10.1155/2007/45673|10.1155/2010/759497|10.1155/2017/6873651|10.1158/1535-7163.MCT-08-0236|10.1159/000211505|10.1177/1934578X0800300227|10.1177/1934578X1501000714|10.1177/1934578X1701200337|10.1179/135100099101534800|10.1186/S12906-018-2154-4|10.1186/s12906-015-0838-6|10.1186/s12906-015-0873-3|10.1186/s12906-018-2154-4|10.1211/0022357001774075|10.1211/146080899128735009|10.1248/BPB.30.935|10.1248/BPB.31.2321|10.1248/BPB.31.743|10.1248/BPB.34.160|10.1248/CPB.14.877|10.1248/CPB.26.2346|10.1248/CPB.29.2844|10.1248/CPB.32.3493|10.1248/CPB.35.4757|10.1248/CPB.37.2431|10.1248/CPB.40.387|10.1248/CPB.41.1743|10.1248/CPB.45.367|10.1248/CPB.46.1624|10.1248/CPB.48.1219|10.1248/CPB.49.1474|10.1248/CPB.49.396|10.1248/CPB.50.1305|10.1248/CPB.50.1484|10.1248/CPB.50.841|10.1248/CPB.52.866|10.1248/CPB.53.1111|10.1248/CPB.53.836|10.1248/CPB.54.1308|10.1248/CPB.54.234|10.1248/CPB.55.1308|10.1248/CPB.55.1342|10.1248/CPB.55.1505|10.1248/CPB.55.57|10.1248/CPB.55.571|10.1248/CPB.55.598|10.1248/CPB.56.1297|10.1248/CPB.56.189|10.1248/CPB.56.536|10.1248/CPB.56.585|10.1248/CPB.56.695|10.1248/CPB.57.1089|10.1248/CPB.57.1123|10.1248/CPB.57.269|10.1248/CPB.58.1395|10.1248/CPB.58.852|10.1248/CPB.58.859|10.1248/CPB.59.653|10.1248/CPB.60.129|10.1248/YAKUSHI1881.49.3_232|10.1248/YAKUSHI1881.57.8_800|10.1248/YAKUSHI1947.104.2_157|10.1248/YAKUSHI1947.105.5_442|10.1248/YAKUSHI1947.105.6_542|10.1248/YAKUSHI1947.107.12_1001|10.1248/YAKUSHI1947.107.1_23|10.1248/YAKUSHI1947.107.7_491|10.1248/YAKUSHI1947.108.7_647|10.1248/YAKUSHI1947.109.3_188|10.1248/YAKUSHI1947.110.5_354|10.1248/YAKUSHI1947.88.9_1235|10.1248/YAKUSHI1947.89.1_122|10.1271/BBB.66.1396|10.1271/BBB.80162|10.1271/BBB1961.49.1851|10.1271/BBB1961.51.2801|10.1300/J044V05N02_05|10.1365/S10337-009-1281-Y|10.1371/JOURNAL.PONE.0207278|10.1371/JOURNAL.PONE.0219973|10.1371/journal.pone.0207278|10.14233/AJCHEM.2014.16143A|10.1515/ZNC-1977-11-1224|10.1515/ZNC-1983-1-226|10.1515/ZNC-1983-5-614|10.1515/ZNC-1984-11-1233|10.1515/ZNC-1984-3-418|10.1515/ZNC-1985-5-608|10.1515/ZNC-1986-1-214|10.1515/ZNC-1986-11-1204|10.1515/ZNC-1990-0604|10.1515/ZNC-1992-3-423|10.1515/ZNC-1992-3-424|10.1515/ZNC-1992-7-811|10.1515/ZNC-1992-9-1025|10.1515/ZNC-1994-9-1022|10.1515/ZNC-1995-11-1223|10.1515/ZNC-1996-11-1219|10.1515/ZNC-1996-5-606|10.1515/ZNC-1997-3-401|10.1515/ZNC-1998-11-1202|10.1515/ZNC-2001-9-1012|10.1515/ZNC-2003-7-826|10.1515/ZNC-2003-9-1014|10.1556/AALIM.29.2000.4.4|10.1556/AALIM.31.2002.1.7|10.1590/S0102-695X2011005000107|10.1590/S0103-50532003000500006|10.1590/S0103-50532010001200007|10.1787/9789264253421-7-EN|10.20959/WJPR20177-8876|10.21548/25-2-2143|10.21608/BFSA.1985.75705|10.21608/BFSA.1987.74392|10.21608/BFSA.1998.67958|10.21608/BFSA.1999.66080|10.21608/BFSA.1999.66096|10.21608/BFSA.2000.66324|10.21608/BFSA.2002.65511|10.21608/ZJPS.1994.186742|10.21608/ZJPS.1996.185015|10.2298/HEMIND0704272R|10.2307/3754908|10.23986/AFSCI.5652|10.3109/13880208309070608|10.3109/13880208709060924|10.3109/13880209309082934|10.3109/13880209409083017|10.3329/bjsir.v41i1.276|10.3390/10080971|10.3390/11090661|10.3390/IJMS15022327|10.3390/IJMS160715625|10.3390/MOLECULES13081931|10.3390/MOLECULES14104190|10.3390/MOLECULES15031097|10.3390/MOLECULES15042178|10.3390/MOLECULES15096244|10.3390/MOLECULES16010251|10.3390/MOLECULES16031917|10.3390/MOLECULES16098076|10.3390/MOLECULES16108305|10.3390/MOLECULES23020469|10.3390/MOLECULES23030580|10.3390/MOLECULES23071558|10.3390/NU11020402|10.3390/molecules24162945|10.3390/molecules24183212|10.3390/molecules25010011|10.3390/plants11030377|10.3409/173491605775789272|10.3724/SP.J.1008.2010.01120|10.3724/SP.J.1009.2008.00430|10.37360/blacpma.20.19.2.10|10.3742/OPEM.2007.7.4.336|10.38212/2224-6614.2810|10.38212/2224-6614.2825|10.38212/2224-6614.2935|10.3906/KIM-1206-45|10.3923/JBS.2001.843.845|10.3987/COM-03-9804|10.3987/COM-03-9882|10.3987/COM-04-10221|10.3987/COM-11-12354|10.3987/COM-90-5416|10.4161/cbt.7.7.6164|10.4268/CJCMM20100813|10.4268/CJCMM20111611|10.4268/CJCMM20121914|10.4268/CJCMM20140916|10.4268/CJCMM20141227|10.4268/CJCMM20142423|10.48141/SBJCHEM.V1.N1.1993.16_1993.PDF|10.5012/BKCS.2010.31.04.929|10.5012/BKCS.2010.31.8.2392|10.5012/BKCS.2011.32.6.2079|10.5040/9781474215718.CH-010|10.5246/JCPS.2011.02.019|10.5344/AJEV.1996.47.2.186|10.5530/phrev.2020.14.7|10.5586/ASBP.1991.010|10.5897/JMPR.9000078

>  <synonyms>  (199) 
nan

>  <cas>  (199) 
520-18-3

$$$$

     RDKit          2D

 39 43  0  0  0  0  0  0  0  0999 V2000
   -3.5643    3.0307    0.0000 O   0  0  0  0  0  0  0  0  0  0  0  0
   -2.1430    2.5511    0.0000 C   0  0  0  0  0  0  0  0  0  0  0  0
   -1.8477    1.0804    0.0000 O   0  0  0  0  0  0  0  0  0  0  0  0
   -2.9737    0.0894    0.0000 C   0  0  0  0  0  0  0  0  0  0  0  0
   -4.3949    0.5689    0.0000 C   0  0  0  0  0  0  0  0  0  0  0  0
   -4.6902    2.0396    0.0000 O   0  0  0  0  0  0  0  0  0  0  0  0
   -5.5209   -0.4221    0.0000 C   0  0  0  0  0  0  0  0  0  0  0  0
   -6.9422    0.0574    0.0000 O   0  0  0  0  0  0  0  0  0  0  0  0
   -5.2256   -1.8928    0.0000 C   0  0  0  0  0  0  0  0  0  0  0  0
   -6.3515   -2.8839    0.0000 C   0  0  0  0  0  0  0  0  0  0  0  0
   -6.0562   -4.3545    0.0000 O   0  0  0  0  0  0  0  0  0  0  0  0
   -3.8043   -2.3723    0.0000 O   0  0  0  0  0  0  0  0  0  0  0  0
   -2.6783   -1.3813    0.0000 C   0  0  0  0  0  0  0  0  0  0  0  0
   -1.2571   -1.8608    0.0000 C   0  0  0  0  0  0  0  0  0  0  0  0
   -0.9617   -3.3315    0.0000 C   0  0  0  0  0  0  0  0  0  0  0  0
   -2.0877   -4.3226    0.0000 O   0  0  0  0  0  0  0  0  0  0  0  0
    0.4595   -3.8110    0.0000 C   0  0  0  0  0  0  0  0  0  0  0  0
    1.5855   -2.8200    0.0000 C   0  0  0  0  0  0  0  0  0  0  0  0
    3.0068   -3.2995    0.0000 O   0  0  0  0  0  0  0  0  0  0  0  0
    4.1327   -2.3085    0.0000 C   0  0  0  0  0  0  0  0  0  0  0  0
    5.5540   -2.7880    0.0000 C   0  0  0  0  0  0  0  0  0  0  0  0
    6.6799   -1.7969    0.0000 C   0  0  0  0  0  0  0  0  0  0  0  0
    8.1012   -2.2765    0.0000 O   0  0  0  0  0  0  0  0  0  0  0  0
    6.3846   -0.3263    0.0000 C   0  0  0  0  0  0  0  0  0  0  0  0
    7.5106    0.6648    0.0000 O   0  0  0  0  0  0  0  0  0  0  0  0
    4.9633    0.1533    0.0000 C   0  0  0  0  0  0  0  0  0  0  0  0
    3.8374   -0.8378    0.0000 C   0  0  0  0  0  0  0  0  0  0  0  0
    2.4161   -0.3582    0.0000 C   0  0  0  0  0  0  0  0  0  0  0  0
    2.1208    1.1124    0.0000 O   0  0  0  0  0  0  0  0  0  0  0  0
    1.2902   -1.3493    0.0000 C   0  0  0  0  0  0  0  0  0  0  0  0
   -0.1311   -0.8698    0.0000 C   0  0  0  0  0  0  0  0  0  0  0  0
   -0.4264    0.6009    0.0000 O   0  0  0  0  0  0  0  0  0  0  0  0
   -1.0171    3.5422    0.0000 C   0  0  0  0  0  0  0  0  0  0  0  0
    0.4042    3.0626    0.0000 C   0  0  0  0  0  0  0  0  0  0  0  0
    1.5302    4.0537    0.0000 C   0  0  0  0  0  0  0  0  0  0  0  0
    1.2348    5.5243    0.0000 C   0  0  0  0  0  0  0  0  0  0  0  0
    2.3608    6.5154    0.0000 O   0  0  0  0  0  0  0  0  0  0  0  0
   -0.1864    6.0039    0.0000 C   0  0  0  0  0  0  0  0  0  0  0  0
   -1.3124    5.0128    0.0000 C   0  0  0  0  0  0  0  0  0  0  0  0
  1  2  2  0
  2  3  1  0
  4  3  1  1
  4  5  1  0
  5  6  1  6
  5  7  1  0
  7  8  1  1
  7  9  1  0
  9 10  1  6
 10 11  1  0
  9 12  1  0
 12 13  1  0
 13 14  1  6
 14 15  2  0
 15 16  1  0
 15 17  1  0
 17 18  2  0
 18 19  1  0
 19 20  1  0
 20 21  2  0
 21 22  1  0
 22 23  1  0
 22 24  2  0
 24 25  1  0
 24 26  1  0
 26 27  2  0
 27 28  1  0
 28 29  2  0
 28 30  1  0
 30 31  2  0
 31 32  1  0
  2 33  1  0
 33 34  2  0
 34 35  1  0
 35 36  2  0
 36 37  1  0
 36 38  1  0
 38 39  2  0
 13  4  1  0
 31 14  1  0
 39 33  1  0
 30 18  1  0
 27 20  1  0
M  END
>  <identifier>  (200) 
CNP0314728.1

>  <canonical_smiles>  (200) 
O=C(O[C@@H]1[C@@H](O)[C@H](O)[C@@H](CO)O[C@H]1C1=C(O)C=C2OC3=CC(O)=C(O)C=C3C(=O)C2=C1O)C1=CC=C(O)C=C1

>  <standard_inchi>  (200) 
InChI=1S/C26H22O13/c27-8-17-21(33)23(35)25(39-26(36)9-1-3-10(28)4-2-9)24(38-17)18-14(31)7-16-19(22(18)34)20(32)11-5-12(29)13(30)6-15(11)37-16/h1-7,17,21,23-25,27-31,33-35H,8H2/t17-,21-,23+,24+,25-/m1/s1

>  <standard_inchi_key>  (200) 
WVLYNCZFGCFUAG-FUFTYFEXSA-N

>  <name>  (200) 
muraxanthone

>  <iupac_name>  (200) 
[(2~{S},3~{R},4~{S},5~{S},6~{R})-4,5-dihydroxy-6-(hydroxymethyl)-2-(1,3,6,7-tetrahydroxy-9-oxo-xanthen-2-yl)tetrahydropyran-3-yl] 4-hydroxybenzoate

>  <annotation_level>  (200) 
5

>  <total_atom_count>  (200) 
61

>  <heavy_atom_count>  (200) 
39

>  <molecular_weight>  (200) 
542.45

>  <exact_molecular_weight>  (200) 
542.10604

>  <molecular_formula>  (200) 
C26H22O13

>  <alogp>  (200) 
0.85

>  <topological_polar_surface_area>  (200) 
227.58

>  <rotatable_bond_count>  (200) 
4

>  <hydrogen_bond_acceptors>  (200) 
13

>  <hydrogen_bond_donors>  (200) 
8

>  <hydrogen_bond_acceptors_lipinski>  (200) 
13

>  <hydrogen_bond_donors_lipinski>  (200) 
8

>  <lipinski_rule_of_five_violations>  (200) 
3

>  <aromatic_rings_count>  (200) 
4

>  <qed_drug_likeliness>  (200) 
0.10

>  <formal_charge>  (200) 
0

>  <fractioncsp3>  (200) 
0.23

>  <number_of_minimal_rings>  (200) 
5

>  <van_der_walls_volume>  (200) 
432.96

>  <contains_sugar>  (200) 
True

>  <contains_ring_sugars>  (200) 
True

>  <contains_linear_sugars>  (200) 
False

>  <murcko_framework>  (200) 
O1c2ccccc2Cc3cc(ccc13)C4OCCCC4OCc5ccccc5

>  <np_likeness>  (200) 
1.83

>  <chemical_class>  (200) 
Benzopyrans

>  <chemical_sub_class>  (200) 
1-benzopyrans

>  <chemical_super_class>  (200) 
Organoheterocyclic compounds

>  <direct_parent_classification>  (200) 
Xanthones

>  <np_classifier_pathway>  (200) 
Shikimates and Phenylpropanoids

>  <np_classifier_superclass>  (200) 
Xanthones

>  <np_classifier_class>  (200) 
Plant xanthones

>  <np_classifier_is_glycoside>  (200) 
False

>  <organisms>  (200) 
Arrabidaea samydoides|Delairea odorata|Fridericia samydoides|Senecio mikanioides|Seneico mikanioides

>  <collections>  (200) 
Australian natural products|ChemSpider NPs|KNApSaCK|Latin America dataset|NPASS|NuBBEDB|Super Natural II|WikiData Natural Products|ZINC NP

>  <dois>  (200) 
10.1016/0031-9422(96)00154-9|10.1021/NP030100T|10.1021/np030100t

>  <synonyms>  (200) 
CHEMBL468669|Muraxanthone

>  <cas>  (200) 
nan

$$$$

     RDKit          2D

 32 36  0  0  0  0  0  0  0  0999 V2000
   -5.1984   -3.0868    0.0000 C   0  0  0  0  0  0  0  0  0  0  0  0
   -5.3842   -1.5983    0.0000 C   0  0  0  0  0  0  0  0  0  0  0  0
   -6.8178   -2.0397    0.0000 C   0  0  0  0  0  0  0  0  0  0  0  0
   -6.0678   -0.2632    0.0000 C   0  0  0  0  0  0  0  0  0  0  0  0
   -5.2534    0.9965    0.0000 C   0  0  0  0  0  0  0  0  0  0  0  0
   -3.7553    0.9209    0.0000 C   0  0  0  0  0  0  0  0  0  0  0  0
   -4.4389    2.2561    0.0000 C   0  0  0  0  0  0  0  0  0  0  0  0
   -3.6245    3.5157    0.0000 O   0  0  0  0  0  0  0  0  0  0  0  0
   -2.9408    2.1806    0.0000 C   0  0  0  0  0  0  0  0  0  0  0  0
   -1.4427    2.1051    0.0000 C   0  0  0  0  0  0  0  0  0  0  0  0
   -0.7591    0.7699    0.0000 C   0  0  0  0  0  0  0  0  0  0  0  0
   -0.0754   -0.5652    0.0000 C   0  0  0  0  0  0  0  0  0  0  0  0
   -1.5735   -0.4897    0.0000 C   0  0  0  0  0  0  0  0  0  0  0  0
   -0.8899   -1.8249    0.0000 C   0  0  0  0  0  0  0  0  0  0  0  0
    0.6082   -1.9004    0.0000 C   0  0  0  0  0  0  0  0  0  0  0  0
    1.4227   -0.6408    0.0000 C   0  0  0  0  0  0  0  0  0  0  0  0
    2.9208   -0.7163    0.0000 C   0  0  0  0  0  0  0  0  0  0  0  0
    2.1063   -1.9759    0.0000 C   0  0  0  0  0  0  0  0  0  0  0  0
    3.6044   -2.0514    0.0000 C   0  0  0  0  0  0  0  0  0  0  0  0
    5.1025   -2.1270    0.0000 C   0  0  0  0  0  0  0  0  0  0  0  0
    5.9170   -0.8673    0.0000 C   0  0  0  0  0  0  0  0  0  0  0  0
    7.4151   -0.9429    0.0000 O   0  0  0  0  0  0  0  0  0  0  0  0
    5.2333    0.4678    0.0000 C   0  0  0  0  0  0  0  0  0  0  0  0
    5.0475    1.9563    0.0000 C   0  0  0  0  0  0  0  0  0  0  0  0
    6.6669    0.9092    0.0000 C   0  0  0  0  0  0  0  0  0  0  0  0
    3.7352    0.5433    0.0000 C   0  0  0  0  0  0  0  0  0  0  0  0
    3.0516    1.8785    0.0000 C   0  0  0  0  0  0  0  0  0  0  0  0
    1.5535    1.9540    0.0000 C   0  0  0  0  0  0  0  0  0  0  0  0
    0.7390    0.6944    0.0000 C   0  0  0  0  0  0  0  0  0  0  0  0
    0.0554    2.0295    0.0000 C   0  0  0  0  0  0  0  0  0  0  0  0
   -3.0716   -0.4142    0.0000 C   0  0  0  0  0  0  0  0  0  0  0  0
   -3.8861   -1.6738    0.0000 C   0  0  0  0  0  0  0  0  0  0  0  0
  1  2  1  0
  2  3  1  0
  2  4  1  0
  4  5  1  0
  5  6  1  0
  6  7  1  1
  7  8  1  0
  6  9  1  0
  9 10  1  0
 10 11  1  0
 11 12  1  6
 11 13  1  0
 13 14  2  0
 14 15  1  0
 16 15  1  1
 16 17  1  0
 17 18  1  1
 17 19  1  0
 19 20  1  0
 20 21  1  0
 21 22  1  1
 21 23  1  0
 23 24  1  0
 23 25  1  0
 23 26  1  0
 26 27  1  1
 27 28  1  0
 28 29  1  0
 29 30  1  1
 13 31  1  0
 31 32  1  6
 32  2  1  0
 31  6  1  0
 29 11  1  0
 29 16  1  0
 26 17  1  0
M  END
>  <identifier>  (201) 
CNP0278423.2

>  <canonical_smiles>  (201) 
CC1(C)CC[C@]2(CO)CC[C@]3(C)C(=CC[C@@H]4[C@@]5(C)CC[C@H](O)C(C)(C)[C@@H]5CC[C@]43C)[C@@H]2C1

>  <standard_inchi>  (201) 
InChI=1S/C30H50O2/c1-25(2)14-16-30(19-31)17-15-28(6)20(21(30)18-25)8-9-23-27(5)12-11-24(32)26(3,4)22(27)10-13-29(23,28)7/h8,21-24,31-32H,9-19H2,1-7H3/t21-,22-,23+,24-,27-,28+,29+,30+/m0/s1

>  <standard_inchi_key>  (201) 
PSZDOEIIIJFCFE-OSQDELBUSA-N

>  <name>  (201) 
Erythrodiol

>  <iupac_name>  (201) 
(3~{S},4~{a}~{R},6~{a}~{R},6~{b}~{S},8~{a}~{S},12~{a}~{S},14~{a}~{R},14~{b}~{R})-8~{a}-(hydroxymethyl)-4,4,6~{a},6~{b},11,11,14~{b}-heptamethyl-1,2,3,4~{a},5,6,7,8,9,10,12,12~{a},14,14~{a}-tetradecahydropicen-3-ol

>  <annotation_level>  (201) 
5

>  <total_atom_count>  (201) 
82

>  <heavy_atom_count>  (201) 
32

>  <molecular_weight>  (201) 
442.73

>  <exact_molecular_weight>  (201) 
442.38108

>  <molecular_formula>  (201) 
C30H50O2

>  <alogp>  (201) 
7.14

>  <topological_polar_surface_area>  (201) 
40.46

>  <rotatable_bond_count>  (201) 
1

>  <hydrogen_bond_acceptors>  (201) 
2

>  <hydrogen_bond_donors>  (201) 
2

>  <hydrogen_bond_acceptors_lipinski>  (201) 
2

>  <hydrogen_bond_donors_lipinski>  (201) 
2

>  <lipinski_rule_of_five_violations>  (201) 
1

>  <aromatic_rings_count>  (201) 
0

>  <qed_drug_likeliness>  (201) 
0.42

>  <formal_charge>  (201) 
0

>  <fractioncsp3>  (201) 
0.93

>  <number_of_minimal_rings>  (201) 
5

>  <van_der_walls_volume>  (201) 
455.64

>  <contains_sugar>  (201) 
False

>  <contains_ring_sugars>  (201) 
False

>  <contains_linear_sugars>  (201) 
False

>  <murcko_framework>  (201) 
C1=C2C3CCCCC3CCC2C4CCC5CCCCC5C4C1

>  <np_likeness>  (201) 
3.33

>  <chemical_class>  (201) 
Prenol lipids

>  <chemical_sub_class>  (201) 
Triterpenoids

>  <chemical_super_class>  (201) 
Lipids and lipid-like molecules

>  <direct_parent_classification>  (201) 
Oleanane triterpenoids

>  <np_classifier_pathway>  (201) 
Terpenoids

>  <np_classifier_superclass>  (201) 
Triterpenoids

>  <np_classifier_class>  (201) 
Oleanane triterpenoids

>  <np_classifier_is_glycoside>  (201) 
False

>  <organisms>  (201) 
Aaptos aaptos|Acicarpha tribuloides|Aconitum nevadense|Aconitum palmatum|Aconitum tianschanicum|Adenopeltis colliguaya|Albatrellus caeruleoporus|Alibertia edulis|Alseodaphne corneri|Amanita pseudoporphyria|American ginseng|Amyris texana|Andropogon laniger|Aniba rosaeodora|Annona impressivenia|Aplysilla rosea|Aplysinella rhax|Arbacia pustulosa|Ariocarpus fissuratus|Arrabidaea samydoides|Aspergillus arenarius|Aspergillus quadrilineatus|Aspergillus unguis|Aster poliothamnus|Aulacocephalus temmincki|Baccharis concava|Baccharis conferta|Baccharis intermedia|Baccharis linearis|Baccharis macraei|Baccharis patagonica|Baccharis pedunculata|Baccharis rhomboidalis|Baccharis sarothroides|Barbarea verna|Bersama yangambiensis|Betula sp.|Bidens tripartita|Bituminaria bituminosa|Blitum virgatum|Bombus hortorum|Bunias orientalis|Bupleurum fruticosum|Cacalia robusta|Canarium sp.|Canna x generalis|Capparis flavicans|Carpesium faberi|Castanopsis sclerophylla|Casuarina equisetifolia|Celastrus kusanoi|Centaurea arbutifolia|Centaurea musimomum|Centaurea seridis|Centaurium sp.|Ceratocystis clavigera|Cereus weberi|Chaenomeles sinensis|Chenopodium quinoa|Chlamydomonas allensworthii|Chrozophora obliqua|Chrysanthemum morifolium|Chuquiraga atacamensis|Cladonia pityrea|Claviceps microcephala|Cneorum pulverulentum|Coccinia grandis|Codonopsis cordifolioidea|Coleus garckeanus|Conocephalum japonicum|Consolida ajacis|Conyza Canadensis|Conyza filaginoides|Cordylanthus kingii|Corydalis sewerzowi|Corymbia citriodora|Crataegus monogyna|Crematogaster africana|Crinipellis scabella|Croton cumingii|Cryptolestes pusillus|Cystophora scalaris|Dahlstedtia pentaphylla|Dalbergia stipulacea|Dendranthema morifolium|Dinemasporium strigosum|Diospyros maritima|Disynaphia halimifolia|Doodia picta|Drypetes molunduana|Echinops galalensis|Elaeagnus commutata|Empetrum nigrum|Eragrostis viscosa|Erium villosum|Erylus nobilis|Erysimum cheiranthoides|Erythrina Variegata|Erythrina indica|Erythrina senegalensis|Erythrina sigmoidea|Erythrina variegata|Erythroxylum passerinum|Eucalyptus citriodora|Eucalyptus flocktoniae|Eucalyptus globulus|Eunicella cavolinii|Euphausia superba|Euphorbia micractina|Euphorbia retusa|Euphorbia sp.|Euphorbia sulcata|Euptelea polyandra|Flemingia philippinensis|Flindersia brayleyana|Forsteronia refracta|Fridericia chica|Gambeya africana|Gambeya boukokoensis|Genista sessilifolia|Genista tricuspidata|Gentiana sp.|Gerbera piloselloides|Globularia davisiana|Gochnatia hypoleuca|Gomphostemma parviflorum|Grewia mollis|Gymnocarpium robertianum|Heliotropium floridum|Heracleum sphondylium|Heterotheca grandiflora|Hippobroma longiflora|Hippophae rhamnoides|Hippophae sp.|Hovenia acerba|Hypericum japonicum|Ilex latifolia|Ilex macropoda|Ilex sp.|Ipomoea hederacea|Juglans nigra|Jungermannia obovata|Kaempferia marginata|Kaunia saltensis|Kummerowia striata|Laennecia filaginoides|Lambertella corni|Lasioderma serricorne|Lepidorhinus squamosus|Lessingia glandulifera|Lyophyllum shimeji|Machaerium kuhlmannii|Malus sieboldii|Mammillaria longimamma|Mangifera indica|Mascarenhasia arborescens|Meconopsis napaulensis|Merremia umbellata|Micranthes stellaris|Millettia conraui|Momordica charantia|Monteverdia ilioppjfeowneviufheiuwfew fgr|Monteverdia truncata|Mytilus galloprovincialis|Narcissus concolor|Nauclea officinalis|Neolamarckia cadamba|Oedera calycina|Olea Europaea|Olea europaea|Olea sp.|Oncoba echinata|Onoseris alata|Oophaga speciosa|Ophiolepis superba|Ormosia panamensis|Orthocaulis attenuatus|Osmerus mordax|Oxytropis pseudoglandulosa|Palafoxia rosea|Papilio phorcas|Parabenzoin trilobum|Pedicularis condensata|Pedicularis plicata|Peltigera venosa|Perityle vaseyi|Petrosia corticata|Philadelphia fleabane|Phoebe formosana|Phyllogeiton zeyheri|Phyllospongia dendyi|Picea vulgaris|Picris hieracioides|Piper acutifolium|Pistacia sp.|Pistacia terebinthus|Planchonia careya|Polycephalomyces nipponicus|Polyporus cinnabarinus|Porella swartziana|Pouteria caimito|Psilotum nudum|Psoroma crassum|Pterocarpus sp.|Quercus mongolica|Rabdosia flexicaulis|Relhania calycina|Rheum webbianum|Rhododendron|Rhododendron ferrugineum|Rubrivivax gelatinosus|Rubus idaeus|Ruta pinnata|Salacia chinensis|Salvia coulteri|Salvia dorrii|Salvia pomifera|Satureja cuneifolia|Scabiosa pyrenaica|Scaphechinus mirabilis|Scytonema ocellatum|Senecio flavus|Senecio zoellneri|Sida cordifolia|Sideritis discolor|Sideritis macrostachyos|Solanum diflorum|Solanum sisymbriifolium|Solenopsis invicta|Sonchus gummifer|Sophora angustifolia|Spermacoce articularis|Spodoptera littoralis|Staehelina fruticosa|Stauntonia hexaphylla|Stenocereus pruinosus|Stephania hispidula|Stevia polycephala|Streptomyces fradiae|Streptomyces mobaraensis|Streptomyces parvisporogenes|Strychnos spinosa|Styrax camporum|Swertia punctata|Syzygium corticosum|Terebinthina sp.|Ternstroemia Gymnanthera|Teucrium depressum|Thymbra spicata|Thymus piperella|Trapa bicornis|Trichia floriformis|Trichilia rubescens|Trichosanthes cucumeroides|Trichosanthes rosthornii|Turraeanthus mannii|Umbilicaria spodochroa|Uvaria grandiflora|Vaccaria hispanica|Vallaris heynei|Vatica cinerea|Vellozia streptophylla|Viburnum cylindricum|Vochysia ferruginea|Xylosalsola richteri|Xyris indica|Xyris semifuscata|Zygosaccharomyces rouxii|watermelon

>  <collections>  (201) 
ANPDB|Australian natural products|CMAUP (cCollective molecular activities of useful plants)|ChEBI NPs|ChemSpider NPs|Latin America dataset|NANPDB (Natural Products from Northern African Sources)|NPACT|NPASS|NuBBEDB|Phyto4Health|PhytoLab phyproof® Reference Substances|Super Natural II|TCMDB-Taiwan (Traditional Chinese Medicine database)|VietHerb|WikiData Natural Products

>  <dois>  (201) 
10.1002/HLCA.200890115|10.1002/JCCS.200000074|10.1002/MNFR.200700300|10.1002/mnfr.200700300|10.1007/BF00579142|10.1007/BF00580456|10.1007/BF02976931|10.1007/S10600-011-9903-7|10.1016/0031-9422(73)80709-5|10.1016/0031-9422(88)80126-2|10.1016/0031-9422(88)84107-4|10.1016/0031-9422(90)80181-F|10.1016/0031-9422(90)89063-F|10.1016/0031-9422(91)85145-P|10.1016/0031-9422(94)00671-F|10.1016/0031-9422(94)85026-7|10.1016/0040-4039(95)01286-Q|10.1016/0305-1978(91)90113-E|10.1016/J.PHYTOCHEM.2009.05.011|10.1016/J.PHYTOL.2012.10.012|10.1016/J.TET.2008.05.054|10.1016/S0031-9422(00)00040-6|10.1016/S0031-9422(00)00250-8|10.1016/S0031-9422(00)81585-X|10.1016/S0031-9422(00)82286-4|10.1016/S0031-9422(00)83122-2|10.1016/S0031-9422(00)89654-5|10.1016/S0031-9422(00)89809-X|10.1016/S0031-9422(00)95111-2|10.1016/S0031-9422(01)00368-5|10.1016/S0031-9422(03)00495-3|10.1016/S0031-9422(96)00461-X|10.1016/S0031-9422(96)00680-2|10.1016/S0031-9422(97)00227-6|10.1016/S0031-9422(97)00433-0|10.1016/S0031-9422(99)00070-9|10.1016/j.bmc.2018.07.025|10.1016/j.phytol.2012.10.012|10.1016/s0031-9422(96)00680-2|10.1021/ACS.JNATPROD.5B00627|10.1021/JF010164E|10.1021/JF010701V|10.1021/JF903833A|10.1021/NP000442O|10.1021/NP020379Y|10.1021/NP030379D|10.1021/NP030379D.S001|10.1021/NP070038Q|10.1021/NP100778K|10.1021/NP50009A016|10.1021/NP50028A021|10.1021/NP50045A025|10.1021/NP50054A031|10.1021/NP50055A026|10.1021/NP50063A024|10.1021/NP900305J|10.1021/acs.jnatprod.5b00627|10.1021/np000442o|10.1021/np020379y|10.1021/np070038q|10.1021/np100778k|10.1021/np50054a031|10.1021/np900305j|10.1055/S-2002-34416|10.1055/S-2006-957598|10.1055/S-2006-961497|10.1055/S-2008-1075295|10.1071/CH9791621|10.1071/ch9791621|10.1076/PHBI.36.1.50.4614|10.1079/BJN20041231|10.1211/0022357021771797|10.1248/CPB.43.1640|10.1248/CPB.51.1318|10.1248/CPB.54.570|10.1515/ZNC-2003-9-1002|10.1590/S0100-40422002000300002|10.1590/S0100-40422003000500003|10.1590/S0103-50532000000300007|10.1590/S0103-50532002000500021|10.3329/DUJPS.V3I1.189|10.4067/S0366-16442000000100007|10.4103/0974-8490.65510

>  <synonyms>  (201) 
(3S,4aR,6aR,6bS,8aS,12aS,14aR,14bR)-8a-(hydroxymethyl)-4,4,6a,6b,11,11,14b-heptamethyl-1,2,3,4a,5,6,7,8,9,10,12,12a,14,14a-tetradecahydropicen-3-ol|(3beta)-Olean-12-ene-3,28-diol|118204-21-0|1ST001407|3.BETA.,28-DIHYDROXYOLEAN-12-ENE|3.BETA.-ERYTHRODIOL|3VWF903FSS|3beta,28-DIHYDROXYOLEAN-12-ENE|3beta,28-dihydroxy-ole-12-ene|3beta-Erythrodiol|545-48-2|AKOS016036259|BDBM50218200|BS-32544|C20945|CHEBI:67939|CHEMBL400074|CS-0022626|DTXCID801474094|DTXSID401015931|EINECS 208-890-4|ERYTHRODIOL [INCI]|ERYTHRODIOL, (+)-|Erythrodiol|Erythrodiol, analytical standard|HY-N2419|MFCD00017294|NS00043364|Olean-12-ene-3,28-diol, (3b)-|Olean-12-ene-3beta,28-diol|Q27136414|SCHEMBL610723|UNII-3VWF903FSS|erythrodiol|oleanolic alcohol

>  <cas>  (201) 
545-48-2|118204-21-0

$$$$

     RDKit          2D

 27 30  0  0  0  0  0  0  0  0999 V2000
    3.3236    5.0400    0.0000 C   0  0  0  0  0  0  0  0  0  0  0  0
    3.4045    3.5422    0.0000 C   0  0  0  0  0  0  0  0  0  0  0  0
    2.1478    2.7232    0.0000 C   0  0  0  0  0  0  0  0  0  0  0  0
    2.2287    1.2254    0.0000 C   0  0  0  0  0  0  0  0  0  0  0  0
    3.5662    0.5466    0.0000 C   0  0  0  0  0  0  0  0  0  0  0  0
    3.6471   -0.9513    0.0000 C   0  0  0  0  0  0  0  0  0  0  0  0
    4.9847   -1.6301    0.0000 O   0  0  0  0  0  0  0  0  0  0  0  0
    5.0656   -3.1279    0.0000 C   0  0  0  0  0  0  0  0  0  0  0  0
    2.3904   -1.7702    0.0000 C   0  0  0  0  0  0  0  0  0  0  0  0
    2.4713   -3.2680    0.0000 O   0  0  0  0  0  0  0  0  0  0  0  0
    1.0528   -1.0914    0.0000 C   0  0  0  0  0  0  0  0  0  0  0  0
   -0.2039   -1.9103    0.0000 O   0  0  0  0  0  0  0  0  0  0  0  0
   -0.1230   -3.4082    0.0000 C   0  0  0  0  0  0  0  0  0  0  0  0
   -0.0095   -0.0324    0.0000 C   0  0  0  0  0  0  0  0  0  0  0  0
   -1.4907   -0.2694    0.0000 C   0  0  0  0  0  0  0  0  0  0  0  0
   -2.0260   -1.6706    0.0000 C   0  0  0  0  0  0  0  0  0  0  0  0
   -3.5071   -1.9077    0.0000 C   0  0  0  0  0  0  0  0  0  0  0  0
   -4.4530   -0.7434    0.0000 C   0  0  0  0  0  0  0  0  0  0  0  0
   -5.9510   -0.6673    0.0000 O   0  0  0  0  0  0  0  0  0  0  0  0
   -6.3416    0.7809    0.0000 C   0  0  0  0  0  0  0  0  0  0  0  0
   -5.0849    1.5999    0.0000 O   0  0  0  0  0  0  0  0  0  0  0  0
   -3.9177    0.6578    0.0000 C   0  0  0  0  0  0  0  0  0  0  0  0
   -2.4365    0.8948    0.0000 C   0  0  0  0  0  0  0  0  0  0  0  0
    0.6694    1.3052    0.0000 C   0  0  0  0  0  0  0  0  0  0  0  0
   -0.0138    2.6406    0.0000 C   0  0  0  0  0  0  0  0  0  0  0  0
    0.9720    0.4064    0.0000 C   0  0  0  0  0  0  0  0  0  0  0  0
   -0.3656    1.0853    0.0000 O   0  0  0  0  0  0  0  0  0  0  0  0
  1  2  2  0
  2  3  1  0
  4  3  1  1
  4  5  1  0
  5  6  2  0
  6  7  1  0
  7  8  1  0
  6  9  1  0
  9 10  2  0
  9 11  1  0
 11 12  1  1
 12 13  1  0
 11 14  1  0
 14 15  1  6
 15 16  2  0
 16 17  1  0
 17 18  2  0
 18 19  1  0
 19 20  1  0
 20 21  1  0
 21 22  1  0
 22 23  2  0
 14 24  1  0
 24 25  1  1
 11 26  1  0
 26 27  1  1
 24  4  1  0
 26  4  1  0
 23 15  1  0
 22 18  1  0
M  END
>  <identifier>  (202) 
CNP0359865.2

>  <canonical_smiles>  (202) 
C=CC[C@]12C=C(OC)C(=O)[C@](OC)([C@H](C3=CC=C4OCOC4=C3)[C@H]1C)[C@H]2O

>  <standard_inchi>  (202) 
InChI=1S/C21H24O6/c1-5-8-20-10-16(24-3)18(22)21(25-4,19(20)23)17(12(20)2)13-6-7-14-15(9-13)27-11-26-14/h5-7,9-10,12,17,19,23H,1,8,11H2,2-4H3/t12-,17+,19+,20+,21-/m1/s1

>  <standard_inchi_key>  (202) 
RTLORDLGFCTXOX-TXSLHZNYSA-N

>  <name>  (202) 
nan

>  <iupac_name>  (202) 
(1~{S},5~{R},6~{R},7~{S},8~{S})-5-allyl-7-(1,3-benzodioxol-5-yl)-8-hydroxy-1,3-dimethoxy-6-methyl-bicyclo[3.2.1]oct-3-en-2-one

>  <annotation_level>  (202) 
4

>  <total_atom_count>  (202) 
51

>  <heavy_atom_count>  (202) 
27

>  <molecular_weight>  (202) 
372.42

>  <exact_molecular_weight>  (202) 
372.15729

>  <molecular_formula>  (202) 
C21H24O6

>  <alogp>  (202) 
2.57

>  <topological_polar_surface_area>  (202) 
74.22

>  <rotatable_bond_count>  (202) 
5

>  <hydrogen_bond_acceptors>  (202) 
6

>  <hydrogen_bond_donors>  (202) 
1

>  <hydrogen_bond_acceptors_lipinski>  (202) 
6

>  <hydrogen_bond_donors_lipinski>  (202) 
1

>  <lipinski_rule_of_five_violations>  (202) 
0

>  <aromatic_rings_count>  (202) 
1

>  <qed_drug_likeliness>  (202) 
0.80

>  <formal_charge>  (202) 
0

>  <fractioncsp3>  (202) 
0.48

>  <number_of_minimal_rings>  (202) 
4

>  <van_der_walls_volume>  (202) 
nan

>  <contains_sugar>  (202) 
False

>  <contains_ring_sugars>  (202) 
False

>  <contains_linear_sugars>  (202) 
False

>  <murcko_framework>  (202) 
O1c2ccc(cc2OC1)C3CC4C=CCC3C4

>  <np_likeness>  (202) 
2.17

>  <chemical_class>  (202) 
Benzodioxoles

>  <chemical_sub_class>  (202) 
Benzodioxoles

>  <chemical_super_class>  (202) 
Organoheterocyclic compounds

>  <direct_parent_classification>  (202) 
Benzodioxoles

>  <np_classifier_pathway>  (202) 
Shikimates and Phenylpropanoids

>  <np_classifier_superclass>  (202) 
Lignans

>  <np_classifier_class>  (202) 
Neolignans

>  <np_classifier_is_glycoside>  (202) 
False

>  <organisms>  (202) 
Ocotea aciphylla

>  <collections>  (202) 
Latin America dataset|NuBBEDB|WikiData Natural Products|ZINC NP

>  <dois>  (202) 
10.1016/S0031-9422(00)84995-X

>  <synonyms>  (202) 
Methoxyguianin

>  <cas>  (202) 
nan

$$$$

     RDKit          2D

 21 23  0  0  0  0  0  0  0  0999 V2000
   -5.9679   -0.7007    0.0000 C   0  0  0  0  0  0  0  0  0  0  0  0
   -4.5056   -1.0348    0.0000 O   0  0  0  0  0  0  0  0  0  0  0  0
   -3.4850    0.0645    0.0000 C   0  0  0  0  0  0  0  0  0  0  0  0
   -3.9268    1.4980    0.0000 C   0  0  0  0  0  0  0  0  0  0  0  0
   -2.9063    2.5974    0.0000 C   0  0  0  0  0  0  0  0  0  0  0  0
   -1.4440    2.2632    0.0000 C   0  0  0  0  0  0  0  0  0  0  0  0
   -1.0022    0.8298    0.0000 C   0  0  0  0  0  0  0  0  0  0  0  0
   -2.0227   -0.2696    0.0000 C   0  0  0  0  0  0  0  0  0  0  0  0
   -1.5809   -1.7030    0.0000 N   0  0  0  0  0  0  0  0  0  0  0  0
   -0.1186   -2.0372    0.0000 C   0  0  0  0  0  0  0  0  0  0  0  0
    0.3232   -3.4706    0.0000 O   0  0  0  0  0  0  0  0  0  0  0  0
    0.9019   -0.9378    0.0000 C   0  0  0  0  0  0  0  0  0  0  0  0
    0.4601    0.4956    0.0000 C   0  0  0  0  0  0  0  0  0  0  0  0
    1.4806    1.5950    0.0000 O   0  0  0  0  0  0  0  0  0  0  0  0
    2.9429    1.2609    0.0000 C   0  0  0  0  0  0  0  0  0  0  0  0
    4.4313    1.4470    0.0000 C   0  0  0  0  0  0  0  0  0  0  0  0
    3.0181    2.7590    0.0000 C   0  0  0  0  0  0  0  0  0  0  0  0
    3.3847   -0.1726    0.0000 C   0  0  0  0  0  0  0  0  0  0  0  0
    4.8470   -0.5067    0.0000 O   0  0  0  0  0  0  0  0  0  0  0  0
    2.3642   -1.2719    0.0000 C   0  0  0  0  0  0  0  0  0  0  0  0
    2.8060   -2.7054    0.0000 O   0  0  0  0  0  0  0  0  0  0  0  0
  1  2  1  0
  2  3  1  0
  3  4  2  0
  4  5  1  0
  5  6  2  0
  6  7  1  0
  7  8  2  0
  8  9  1  0
  9 10  1  0
 10 11  2  0
 10 12  1  0
 12 13  2  0
 13 14  1  0
 14 15  1  0
 15 16  1  0
 15 17  1  0
 15 18  1  0
 18 19  1  6
 18 20  1  0
 20 21  1  1
  8  3  1  0
 20 12  1  0
 13  7  1  0
M  END
>  <identifier>  (203) 
CNP0418087.1

>  <canonical_smiles>  (203) 
COC1=CC=CC2=C1NC(=O)C1=C2OC(C)(C)[C@H](O)[C@H]1O

>  <standard_inchi>  (203) 
InChI=1S/C15H17NO5/c1-15(2)13(18)11(17)9-12(21-15)7-5-4-6-8(20-3)10(7)16-14(9)19/h4-6,11,13,17-18H,1-3H3,(H,16,19)/t11-,13+/m0/s1

>  <standard_inchi_key>  (203) 
KOGLPFSKEKZVCZ-WCQYABFASA-N

>  <name>  (203) 
nan

>  <iupac_name>  (203) 
(3~{R},4~{S})-3,4-dihydroxy-7-methoxy-2,2-dimethyl-4,6-dihydro-3~{H}-pyrano[3,2-c]quinolin-5-one

>  <annotation_level>  (203) 
4

>  <total_atom_count>  (203) 
38

>  <heavy_atom_count>  (203) 
21

>  <molecular_weight>  (203) 
291.3

>  <exact_molecular_weight>  (203) 
291.11067

>  <molecular_formula>  (203) 
C15H17NO5

>  <alogp>  (203) 
1.10

>  <topological_polar_surface_area>  (203) 
91.78

>  <rotatable_bond_count>  (203) 
1

>  <hydrogen_bond_acceptors>  (203) 
5

>  <hydrogen_bond_donors>  (203) 
3

>  <hydrogen_bond_acceptors_lipinski>  (203) 
5

>  <hydrogen_bond_donors_lipinski>  (203) 
3

>  <lipinski_rule_of_five_violations>  (203) 
0

>  <aromatic_rings_count>  (203) 
2

>  <qed_drug_likeliness>  (203) 
0.73

>  <formal_charge>  (203) 
0

>  <fractioncsp3>  (203) 
0.40

>  <number_of_minimal_rings>  (203) 
3

>  <van_der_walls_volume>  (203) 
nan

>  <contains_sugar>  (203) 
False

>  <contains_ring_sugars>  (203) 
False

>  <contains_linear_sugars>  (203) 
False

>  <murcko_framework>  (203) 
O1C=2c3ccccc3NCC2CCC1

>  <np_likeness>  (203) 
1.40

>  <chemical_class>  (203) 
Quinolines and derivatives

>  <chemical_sub_class>  (203) 
Quinolones and derivatives

>  <chemical_super_class>  (203) 
Organoheterocyclic compounds

>  <direct_parent_classification>  (203) 
Pyranoquinolines

>  <np_classifier_pathway>  (203) 
Alkaloids

>  <np_classifier_superclass>  (203) 
Tryptophan alkaloids

>  <np_classifier_class>  (203) 
Quinoline alkaloids

>  <np_classifier_is_glycoside>  (203) 
False

>  <organisms>  (203) 
Rauia resinosa

>  <collections>  (203) 
Latin America dataset|NuBBEDB

>  <dois>  (203) 
10.1590/S0100-40422010001000024

>  <synonyms>  (203) 
zanthodioline

>  <cas>  (203) 
nan

$$$$

     RDKit          2D

 26 29  0  0  0  0  0  0  0  0999 V2000
   -1.9449    4.9233    0.0000 C   0  0  0  0  0  0  0  0  0  0  0  0
   -1.8114    3.4293    0.0000 C   0  0  0  0  0  0  0  0  0  0  0  0
   -3.0385    2.5666    0.0000 C   0  0  0  0  0  0  0  0  0  0  0  0
   -2.9049    1.0726    0.0000 C   0  0  0  0  0  0  0  0  0  0  0  0
   -1.5443    0.4412    0.0000 C   0  0  0  0  0  0  0  0  0  0  0  0
   -2.7714   -0.4215    0.0000 C   0  0  0  0  0  0  0  0  0  0  0  0
   -2.6379   -1.9155    0.0000 C   0  0  0  0  0  0  0  0  0  0  0  0
   -3.9985   -1.2841    0.0000 C   0  0  0  0  0  0  0  0  0  0  0  0
   -4.1321    0.2099    0.0000 N   0  0  0  0  0  0  0  0  0  0  0  0
   -5.4927    0.8413    0.0000 C   0  0  0  0  0  0  0  0  0  0  0  0
   -1.2772   -2.5469    0.0000 C   0  0  0  0  0  0  0  0  0  0  0  0
   -1.1437   -4.0409    0.0000 C   0  0  0  0  0  0  0  0  0  0  0  0
    0.2170   -4.6723    0.0000 C   0  0  0  0  0  0  0  0  0  0  0  0
    1.4441   -3.8096    0.0000 C   0  0  0  0  0  0  0  0  0  0  0  0
    1.3105   -2.3156    0.0000 C   0  0  0  0  0  0  0  0  0  0  0  0
   -0.0501   -1.6842    0.0000 N   0  0  0  0  0  0  0  0  0  0  0  0
   -0.1837   -0.1902    0.0000 C   0  0  0  0  0  0  0  0  0  0  0  0
    1.0435    0.6725    0.0000 C   0  0  0  0  0  0  0  0  0  0  0  0
    2.4041    0.0411    0.0000 C   0  0  0  0  0  0  0  0  0  0  0  0
    3.6312    0.9038    0.0000 N   0  0  0  0  0  0  0  0  0  0  0  0
    4.9919    0.2724    0.0000 C   0  0  0  0  0  0  0  0  0  0  0  0
    5.1254   -1.2216    0.0000 C   0  0  0  0  0  0  0  0  0  0  0  0
    6.2190    1.1351    0.0000 O   0  0  0  0  0  0  0  0  0  0  0  0
    3.4977    2.3978    0.0000 C   0  0  0  0  0  0  0  0  0  0  0  0
    2.1370    3.0292    0.0000 C   0  0  0  0  0  0  0  0  0  0  0  0
    0.9099    2.1665    0.0000 C   0  0  0  0  0  0  0  0  0  0  0  0
  1  2  2  0
  2  3  1  0
  3  4  1  0
  5  4  1  6
  5  6  1  0
  6  7  1  0
  7  8  1  1
  8  9  1  0
  9 10  1  0
  7 11  1  0
 11 12  1  0
 12 13  1  0
 13 14  1  0
 14 15  1  0
 15 16  1  0
 16 17  1  0
 17 18  1  1
 18 19  2  0
 19 20  1  0
 20 21  1  0
 21 22  1  0
 21 23  2  0
 20 24  1  0
 24 25  1  0
 25 26  1  0
  9  4  1  0
 16 11  1  0
 26 18  1  0
 17  5  1  0
M  END
>  <identifier>  (204) 
CNP0118098.1

>  <canonical_smiles>  (204) 
C=CCC1[C@H]2C[C@H](CN1C)C1CCCCN1[C@@H]2C1=CN(C(C)=O)CCC1

>  <standard_inchi>  (204) 
InChI=1S/C22H35N3O/c1-4-8-21-19-13-18(14-23(21)3)20-10-5-6-12-25(20)22(19)17-9-7-11-24(15-17)16(2)26/h4,15,18-22H,1,5-14H2,2-3H3/t18-,19-,20?,21?,22-/m1/s1

>  <standard_inchi_key>  (204) 
NGYQGPQSBNFVQF-WWOKZEJKSA-N

>  <name>  (204) 
nan

>  <iupac_name>  (204) 
1-[5-[(1~{R},8~{S},9~{R})-10-allyl-11-methyl-7,11-diazatricyclo[7.3.1.0^{2,7}]tridecan-8-yl]-3,4-dihydro-2~{H}-pyridin-1-yl]ethanone

>  <annotation_level>  (204) 
4

>  <total_atom_count>  (204) 
61

>  <heavy_atom_count>  (204) 
26

>  <molecular_weight>  (204) 
357.54

>  <exact_molecular_weight>  (204) 
357.27801

>  <molecular_formula>  (204) 
C22H35N3O

>  <alogp>  (204) 
3.26

>  <topological_polar_surface_area>  (204) 
26.79

>  <rotatable_bond_count>  (204) 
3

>  <hydrogen_bond_acceptors>  (204) 
3

>  <hydrogen_bond_donors>  (204) 
0

>  <hydrogen_bond_acceptors_lipinski>  (204) 
3

>  <hydrogen_bond_donors_lipinski>  (204) 
0

>  <lipinski_rule_of_five_violations>  (204) 
0

>  <aromatic_rings_count>  (204) 
0

>  <qed_drug_likeliness>  (204) 
0.73

>  <formal_charge>  (204) 
0

>  <fractioncsp3>  (204) 
0.77

>  <number_of_minimal_rings>  (204) 
4

>  <van_der_walls_volume>  (204) 
nan

>  <contains_sugar>  (204) 
False

>  <contains_ring_sugars>  (204) 
False

>  <contains_linear_sugars>  (204) 
False

>  <murcko_framework>  (204) 
C=1NCCCC1C2N3CCCCC3C4CNCC2C4

>  <np_likeness>  (204) 
1.27

>  <chemical_class>  (204) 
Quinolizidines

>  <chemical_sub_class>  (204) 
Quinolizidines

>  <chemical_super_class>  (204) 
Organoheterocyclic compounds

>  <direct_parent_classification>  (204) 
Quinolizidines

>  <np_classifier_pathway>  (204) 
Alkaloids

>  <np_classifier_superclass>  (204) 
Lysine alkaloids

>  <np_classifier_class>  (204) 
Quinolizidine alkaloids

>  <np_classifier_is_glycoside>  (204) 
False

>  <organisms>  (204) 
Acosmium dasycarpum

>  <collections>  (204) 
Latin America dataset|NuBBEDB

>  <dois>  (204) 
10.1016/j.tetlet.2008.06.124

>  <synonyms>  (204) 
lupanacosmine

>  <cas>  (204) 
nan

$$$$

     RDKit          2D

 24 27  0  0  0  0  0  0  0  0999 V2000
    6.3702   -2.3377    0.0000 C   0  0  0  0  0  0  0  0  0  0  0  0
    6.2880   -0.8399    0.0000 O   0  0  0  0  0  0  0  0  0  0  0  0
    4.9499   -0.1622    0.0000 C   0  0  0  0  0  0  0  0  0  0  0  0
    3.6939   -0.9822    0.0000 C   0  0  0  0  0  0  0  0  0  0  0  0
    2.3557   -0.3045    0.0000 C   0  0  0  0  0  0  0  0  0  0  0  0
    2.2736    1.1932    0.0000 C   0  0  0  0  0  0  0  0  0  0  0  0
    3.5296    2.0133    0.0000 C   0  0  0  0  0  0  0  0  0  0  0  0
    4.8677    1.3355    0.0000 C   0  0  0  0  0  0  0  0  0  0  0  0
    6.1237    2.1556    0.0000 O   0  0  0  0  0  0  0  0  0  0  0  0
    0.8237    1.5779    0.0000 O   0  0  0  0  0  0  0  0  0  0  0  0
    0.0098    0.3179    0.0000 C   0  0  0  0  0  0  0  0  0  0  0  0
   -1.4879    0.2358    0.0000 C   0  0  0  0  0  0  0  0  0  0  0  0
   -2.1656   -1.1024    0.0000 C   0  0  0  0  0  0  0  0  0  0  0  0
   -3.6634   -1.1845    0.0000 C   0  0  0  0  0  0  0  0  0  0  0  0
   -4.3411   -2.5227    0.0000 O   0  0  0  0  0  0  0  0  0  0  0  0
   -3.5211   -3.7787    0.0000 C   0  0  0  0  0  0  0  0  0  0  0  0
   -4.4834    0.0715    0.0000 C   0  0  0  0  0  0  0  0  0  0  0  0
   -5.9655    0.3025    0.0000 O   0  0  0  0  0  0  0  0  0  0  0  0
   -6.2038    1.7835    0.0000 C   0  0  0  0  0  0  0  0  0  0  0  0
   -4.8689    2.4677    0.0000 O   0  0  0  0  0  0  0  0  0  0  0  0
   -3.8057    1.4096    0.0000 C   0  0  0  0  0  0  0  0  0  0  0  0
   -2.3079    1.4918    0.0000 C   0  0  0  0  0  0  0  0  0  0  0  0
    0.9566   -0.8455    0.0000 C   0  0  0  0  0  0  0  0  0  0  0  0
    0.5720   -2.2953    0.0000 C   0  0  0  0  0  0  0  0  0  0  0  0
  1  2  1  0
  2  3  1  0
  3  4  2  0
  4  5  1  0
  5  6  2  0
  6  7  1  0
  7  8  2  0
  8  9  1  0
  6 10  1  0
 10 11  1  0
 11 12  1  6
 12 13  2  0
 13 14  1  0
 14 15  1  0
 15 16  1  0
 14 17  2  0
 17 18  1  0
 18 19  1  0
 19 20  1  0
 20 21  1  0
 21 22  2  0
 11 23  1  0
 23 24  1  6
  8  3  1  0
 22 12  1  0
 23  5  1  0
 21 17  1  0
M  END
>  <identifier>  (205) 
CNP0080614.2

>  <canonical_smiles>  (205) 
COC1=CC2=C(C=C1O)O[C@@H](C1=CC(OC)=C3OCOC3=C1)[C@H]2C

>  <standard_inchi>  (205) 
InChI=1S/C18H18O6/c1-9-11-6-14(20-2)12(19)7-13(11)24-17(9)10-4-15(21-3)18-16(5-10)22-8-23-18/h4-7,9,17,19H,8H2,1-3H3/t9-,17+/m0/s1

>  <standard_inchi_key>  (205) 
JIBMYYMYQBDTSV-HUTHGQBESA-N

>  <name>  (205) 
nan

>  <iupac_name>  (205) 
(2~{R},3~{S})-5-methoxy-2-(7-methoxy-1,3-benzodioxol-5-yl)-3-methyl-2,3-dihydrobenzofuran-6-ol

>  <annotation_level>  (205) 
4

>  <total_atom_count>  (205) 
42

>  <heavy_atom_count>  (205) 
24

>  <molecular_weight>  (205) 
330.34

>  <exact_molecular_weight>  (205) 
330.11034

>  <molecular_formula>  (205) 
C18H18O6

>  <alogp>  (205) 
3.38

>  <topological_polar_surface_area>  (205) 
66.38

>  <rotatable_bond_count>  (205) 
3

>  <hydrogen_bond_acceptors>  (205) 
6

>  <hydrogen_bond_donors>  (205) 
1

>  <hydrogen_bond_acceptors_lipinski>  (205) 
6

>  <hydrogen_bond_donors_lipinski>  (205) 
1

>  <lipinski_rule_of_five_violations>  (205) 
0

>  <aromatic_rings_count>  (205) 
2

>  <qed_drug_likeliness>  (205) 
0.93

>  <formal_charge>  (205) 
0

>  <fractioncsp3>  (205) 
0.33

>  <number_of_minimal_rings>  (205) 
4

>  <van_der_walls_volume>  (205) 
nan

>  <contains_sugar>  (205) 
False

>  <contains_ring_sugars>  (205) 
False

>  <contains_linear_sugars>  (205) 
False

>  <murcko_framework>  (205) 
O1c2ccc(cc2OC1)C3Oc4ccccc4C3

>  <np_likeness>  (205) 
1.77

>  <chemical_class>  (205) 
2-arylbenzofuran flavonoids

>  <chemical_sub_class>  (205) 
2-arylbenzofuran flavonoids

>  <chemical_super_class>  (205) 
Phenylpropanoids and polyketides

>  <direct_parent_classification>  (205) 
2-arylbenzofuran flavonoids

>  <np_classifier_pathway>  (205) 
Shikimates and Phenylpropanoids

>  <np_classifier_superclass>  (205) 
Lignans

>  <np_classifier_class>  (205) 
Minor lignans

>  <np_classifier_is_glycoside>  (205) 
False

>  <organisms>  (205) 
Aniba|Aniba sp.

>  <collections>  (205) 
Latin America dataset|NuBBEDB|WikiData Natural Products|ZINC NP

>  <dois>  (205) 
10.1016/0031-9422(75)85358-1

>  <synonyms>  (205) 
(2R3S)-7-allyl-6-hydroxy-5-methoxy-2-(3-methoxy-45-methylenedioxyphenyl)-3-methyl-23-dihydrobenzofuran

>  <cas>  (205) 
nan

$$$$

     RDKit          2D

 32 36  0  0  0  0  0  0  0  0999 V2000
   -2.7478    3.6489    0.0000 C   0  0  0  0  0  0  0  0  0  0  0  0
   -1.2542    3.5103    0.0000 O   0  0  0  0  0  0  0  0  0  0  0  0
   -0.6275    2.1475    0.0000 C   0  0  0  0  0  0  0  0  0  0  0  0
   -1.4943    0.9234    0.0000 O   0  0  0  0  0  0  0  0  0  0  0  0
    0.8661    2.0089    0.0000 C   0  0  0  0  0  0  0  0  0  0  0  0
    1.4928    0.6461    0.0000 C   0  0  0  0  0  0  0  0  0  0  0  0
    0.6260   -0.5780    0.0000 C   0  0  0  0  0  0  0  0  0  0  0  0
   -0.1398    0.7118    0.0000 C   0  0  0  0  0  0  0  0  0  0  0  0
   -0.8637   -0.7530    0.0000 C   0  0  0  0  0  0  0  0  0  0  0  0
   -2.1718   -0.0189    0.0000 C   0  0  0  0  0  0  0  0  0  0  0  0
   -2.3468    1.4709    0.0000 C   0  0  0  0  0  0  0  0  0  0  0  0
   -3.2742   -1.0361    0.0000 C   0  0  0  0  0  0  0  0  0  0  0  0
   -4.7451   -0.7421    0.0000 C   0  0  0  0  0  0  0  0  0  0  0  0
   -5.8476   -1.7593    0.0000 C   0  0  0  0  0  0  0  0  0  0  0  0
   -7.1556   -1.0252    0.0000 O   0  0  0  0  0  0  0  0  0  0  0  0
   -6.8617    0.4457    0.0000 C   0  0  0  0  0  0  0  0  0  0  0  0
   -5.3719    0.6207    0.0000 C   0  0  0  0  0  0  0  0  0  0  0  0
   -2.6475   -2.3989    0.0000 C   0  0  0  0  0  0  0  0  0  0  0  0
   -1.1577   -2.2239    0.0000 C   0  0  0  0  0  0  0  0  0  0  0  0
    0.1504   -2.9580    0.0000 O   0  0  0  0  0  0  0  0  0  0  0  0
    1.2528   -1.9408    0.0000 C   0  0  0  0  0  0  0  0  0  0  0  0
    2.7463   -2.0794    0.0000 C   0  0  0  0  0  0  0  0  0  0  0  0
    3.3731   -3.4422    0.0000 O   0  0  0  0  0  0  0  0  0  0  0  0
    3.6132   -0.8553    0.0000 C   0  0  0  0  0  0  0  0  0  0  0  0
    5.1068   -0.9939    0.0000 C   0  0  0  0  0  0  0  0  0  0  0  0
    5.7335   -2.3567    0.0000 C   0  0  0  0  0  0  0  0  0  0  0  0
    5.9736    0.2303    0.0000 C   0  0  0  0  0  0  0  0  0  0  0  0
    5.3468    1.5931    0.0000 C   0  0  0  0  0  0  0  0  0  0  0  0
    3.8533    1.7317    0.0000 C   0  0  0  0  0  0  0  0  0  0  0  0
    3.2265    3.0945    0.0000 O   0  0  0  0  0  0  0  0  0  0  0  0
    2.9864    0.5075    0.0000 C   0  0  0  0  0  0  0  0  0  0  0  0
    2.3597    1.8703    0.0000 C   0  0  0  0  0  0  0  0  0  0  0  0
  1  2  1  0
  2  3  1  0
  3  4  2  0
  3  5  1  0
  6  5  1  6
  6  7  1  0
  7  8  1  6
  7  9  1  0
  9 10  2  0
 10 11  1  0
 10 12  1  0
 12 13  1  1
 13 14  2  0
 14 15  1  0
 15 16  1  0
 16 17  2  0
 12 18  1  0
 18 19  1  0
 19 20  1  0
 21 20  1  1
 21 22  1  0
 22 23  1  1
 22 24  1  0
 24 25  1  0
 25 26  1  0
 25 27  2  0
 27 28  1  0
 28 29  1  0
 29 30  2  0
 29 31  1  0
 31 32  1  6
 31  6  1  0
 21  7  1  0
 31 24  1  0
 19  9  1  0
 17 13  1  0
M  END
>  <identifier>  (206) 
CNP0160388.1

>  <canonical_smiles>  (206) 
COC(=O)C[C@H]1[C@]2(C)C3=C(C)[C@H](C4=COC=C4)CC3O[C@@H]2[C@H](O)C2C(C)=CCC(=O)[C@@]21C

>  <standard_inchi>  (206) 
InChI=1S/C26H32O6/c1-13-6-7-19(27)25(3)18(11-20(28)30-5)26(4)22-14(2)16(15-8-9-31-12-15)10-17(22)32-24(26)23(29)21(13)25/h6,8-9,12,16-18,21,23-24,29H,7,10-11H2,1-5H3/t16-,17?,18-,21?,23-,24-,25+,26-/m1/s1

>  <standard_inchi_key>  (206) 
KUCNSNKUGFEHJF-KSQKNYLWSA-N

>  <name>  (206) 
nan

>  <iupac_name>  (206) 
methyl 2-[(1~{S},2~{R},8~{R},9~{S},10~{R},13~{R})-13-(3-furyl)-2-hydroxy-4,8,10,12-tetramethyl-7-oxo-16-oxatetracyclo[8.6.0.0^{3,8}.0^{11,15}]hexadeca-4,11-dien-9-yl]acetate

>  <annotation_level>  (206) 
4

>  <total_atom_count>  (206) 
64

>  <heavy_atom_count>  (206) 
32

>  <molecular_weight>  (206) 
440.54

>  <exact_molecular_weight>  (206) 
440.21989

>  <molecular_formula>  (206) 
C26H32O6

>  <alogp>  (206) 
3.95

>  <topological_polar_surface_area>  (206) 
85.97

>  <rotatable_bond_count>  (206) 
3

>  <hydrogen_bond_acceptors>  (206) 
6

>  <hydrogen_bond_donors>  (206) 
1

>  <hydrogen_bond_acceptors_lipinski>  (206) 
6

>  <hydrogen_bond_donors_lipinski>  (206) 
1

>  <lipinski_rule_of_five_violations>  (206) 
0

>  <aromatic_rings_count>  (206) 
1

>  <qed_drug_likeliness>  (206) 
0.57

>  <formal_charge>  (206) 
0

>  <fractioncsp3>  (206) 
0.62

>  <number_of_minimal_rings>  (206) 
5

>  <van_der_walls_volume>  (206) 
nan

>  <contains_sugar>  (206) 
False

>  <contains_ring_sugars>  (206) 
False

>  <contains_linear_sugars>  (206) 
False

>  <murcko_framework>  (206) 
o1ccc(c1)C2C=C3C(OC4CC5C=CCCC5CC34)C2

>  <np_likeness>  (206) 
2.78

>  <chemical_class>  (206) 
Naphthofurans

>  <chemical_sub_class>  (206) 
Naphthofurans

>  <chemical_super_class>  (206) 
Organoheterocyclic compounds

>  <direct_parent_classification>  (206) 
Naphthofurans

>  <np_classifier_pathway>  (206) 
Terpenoids

>  <np_classifier_superclass>  (206) 
Triterpenoids

>  <np_classifier_class>  (206) 
Limonoids

>  <np_classifier_is_glycoside>  (206) 
False

>  <organisms>  (206) 
Azadirachta indica

>  <collections>  (206) 
Latin America dataset|NuBBEDB|WikiData Natural Products

>  <dois>  (206) 
10.1002/PCA.1208|10.1002/pca.1208|10.3987/COM-88-4683

>  <synonyms>  (206) 
6-deacetylnimbinene

>  <cas>  (206) 
nan

$$$$

     RDKit          2D

 14 15  0  0  0  0  0  0  0  0999 V2000
   -3.2214    1.6193    0.0000 C   0  0  0  0  0  0  0  0  0  0  0  0
   -2.4092    0.3581    0.0000 C   0  0  0  0  0  0  0  0  0  0  0  0
   -3.7922   -0.2226    0.0000 C   0  0  0  0  0  0  0  0  0  0  0  0
   -2.0774   -1.1047    0.0000 C   0  0  0  0  0  0  0  0  0  0  0  0
   -0.6447   -1.5488    0.0000 C   0  0  0  0  0  0  0  0  0  0  0  0
   -0.3129   -3.0116    0.0000 O   0  0  0  0  0  0  0  0  0  0  0  0
    0.4563   -0.5300    0.0000 C   0  0  0  0  0  0  0  0  0  0  0  0
    1.8890   -0.9741    0.0000 C   0  0  0  0  0  0  0  0  0  0  0  0
    2.9900    0.0447    0.0000 C   0  0  0  0  0  0  0  0  0  0  0  0
    4.4228   -0.3994    0.0000 O   0  0  0  0  0  0  0  0  0  0  0  0
    2.6582    1.5076    0.0000 C   0  0  0  0  0  0  0  0  0  0  0  0
    1.2254    1.9516    0.0000 C   0  0  0  0  0  0  0  0  0  0  0  0
    0.1245    0.9329    0.0000 C   0  0  0  0  0  0  0  0  0  0  0  0
   -1.3083    1.3769    0.0000 O   0  0  0  0  0  0  0  0  0  0  0  0
  1  2  1  0
  2  3  1  0
  2  4  1  0
  4  5  1  0
  5  6  2  0
  5  7  1  0
  7  8  2  0
  8  9  1  0
  9 10  1  0
  9 11  2  0
 11 12  1  0
 12 13  2  0
 13 14  1  0
 14  2  1  0
 13  7  1  0
M  END
>  <identifier>  (207) 
CNP0401510.0

>  <canonical_smiles>  (207) 
CC1(C)CC(=O)C2=CC(O)=CC=C2O1

>  <standard_inchi>  (207) 
InChI=1S/C11H12O3/c1-11(2)6-9(13)8-5-7(12)3-4-10(8)14-11/h3-5,12H,6H2,1-2H3

>  <standard_inchi_key>  (207) 
UAXWPLCLDSMHRF-UHFFFAOYSA-N

>  <name>  (207) 
31366-85-5

>  <iupac_name>  (207) 
6-hydroxy-2,2-dimethyl-chroman-4-one

>  <annotation_level>  (207) 
5

>  <total_atom_count>  (207) 
26

>  <heavy_atom_count>  (207) 
14

>  <molecular_weight>  (207) 
192.21

>  <exact_molecular_weight>  (207) 
192.07864

>  <molecular_formula>  (207) 
C11H12O3

>  <alogp>  (207) 
2.14

>  <topological_polar_surface_area>  (207) 
46.53

>  <rotatable_bond_count>  (207) 
0

>  <hydrogen_bond_acceptors>  (207) 
3

>  <hydrogen_bond_donors>  (207) 
1

>  <hydrogen_bond_acceptors_lipinski>  (207) 
3

>  <hydrogen_bond_donors_lipinski>  (207) 
1

>  <lipinski_rule_of_five_violations>  (207) 
0

>  <aromatic_rings_count>  (207) 
1

>  <qed_drug_likeliness>  (207) 
0.68

>  <formal_charge>  (207) 
0

>  <fractioncsp3>  (207) 
0.36

>  <number_of_minimal_rings>  (207) 
2

>  <van_der_walls_volume>  (207) 
175.64

>  <contains_sugar>  (207) 
False

>  <contains_ring_sugars>  (207) 
False

>  <contains_linear_sugars>  (207) 
False

>  <murcko_framework>  (207) 
O1c2ccccc2CCC1

>  <np_likeness>  (207) 
1.29

>  <chemical_class>  (207) 
Benzopyrans

>  <chemical_sub_class>  (207) 
1-benzopyrans

>  <chemical_super_class>  (207) 
Organoheterocyclic compounds

>  <direct_parent_classification>  (207) 
2,2-dimethyl-1-benzopyrans

>  <np_classifier_pathway>  (207) 
Terpenoids

>  <np_classifier_superclass>  (207) 
Meroterpenoids

>  <np_classifier_class>  (207) 
Merohemiterpenoids

>  <np_classifier_is_glycoside>  (207) 
False

>  <organisms>  (207) 
Calea cuneifolia|Cordia anisophylla|Gynura elliptica|Tussilago farfara

>  <collections>  (207) 
KNApSaCK|Latin America dataset|NPEdia|NuBBEDB|PubChem NPs|Super Natural II|TIPdb (database of Taiwan indigenous plants)|UNPD (Universal Natural Products Database)|WikiData Natural Products|ZINC NP

>  <dois>  (207) 
10.1016/0031-9422(81)85172-2|10.1016/S0031-9422(99)00599-3|10.1080/10286020.2011.600251|10.21577/0103-5053.20180221

>  <synonyms>  (207) 
2,2-DIMETHYL-6-HYDROXY-4-CHROMANONE|2,2-dimethyl-6-hydroxychroman-4-one|6-HYDROXY-2,2-DIMETHYL-3H-1-BENZOPYRAN-4-ONE|6-HYDROXY-2,2-DIMETHYLCHROMAN-4-ONE|6-Hydroxy-2,2-dimethylchroman-4-one|6-hydroxy-2,2-dimethyl-2,3-dihydro-4H-chromen-4-one|6-hydroxy-2,2-dimethyl-3,4-dihydro-2H-1-benzopyran-4-one|6-hydroxy-2,2-dimethyl-3H-chromen-4-one|A919190|AKOS002130568|AR2690|AS-9366|CHEMBL1384267|CS-0061117|DA-07032|DTXSID70393259|EN300-193176|F0918-7088|HMS1646M17|HMS2529K06|MFCD03830209|MLS000522023|NSC804055|Opera_ID_1082|SCHEMBL1146916|SMR000132431|SY088356|UAXWPLCLDSMHRF-UHFFFAOYSA-N|Z1198163333

>  <cas>  (207) 
nan

$$$$

     RDKit          2D

 38 40  0  0  0  0  0  0  0  0999 V2000
    6.1779   -3.5747    0.0000 C   0  0  0  0  0  0  0  0  0  0  0  0
    4.7384   -3.1529    0.0000 C   0  0  0  0  0  0  0  0  0  0  0  0
    3.6534   -4.1886    0.0000 C   0  0  0  0  0  0  0  0  0  0  0  0
    4.0079   -5.6462    0.0000 C   0  0  0  0  0  0  0  0  0  0  0  0
    2.2139   -3.7669    0.0000 C   0  0  0  0  0  0  0  0  0  0  0  0
    1.8595   -2.3093    0.0000 C   0  0  0  0  0  0  0  0  0  0  0  0
    0.4200   -1.8876    0.0000 C   0  0  0  0  0  0  0  0  0  0  0  0
    0.2546   -3.3784    0.0000 C   0  0  0  0  0  0  0  0  0  0  0  0
    1.0853   -0.5432    0.0000 C   0  0  0  0  0  0  0  0  0  0  0  0
    2.5823   -0.4472    0.0000 C   0  0  0  0  0  0  0  0  0  0  0  0
    0.2537    0.7052    0.0000 C   0  0  0  0  0  0  0  0  0  0  0  0
    0.9191    2.0496    0.0000 O   0  0  0  0  0  0  0  0  0  0  0  0
    2.4160    2.1455    0.0000 C   0  0  0  0  0  0  0  0  0  0  0  0
    3.2476    0.8972    0.0000 O   0  0  0  0  0  0  0  0  0  0  0  0
    3.0813    3.4899    0.0000 C   0  0  0  0  0  0  0  0  0  0  0  0
    4.5783    3.5859    0.0000 C   0  0  0  0  0  0  0  0  0  0  0  0
    5.2436    4.9303    0.0000 C   0  0  0  0  0  0  0  0  0  0  0  0
   -1.2432    0.6092    0.0000 C   0  0  0  0  0  0  0  0  0  0  0  0
   -1.9085   -0.7352    0.0000 C   0  0  0  0  0  0  0  0  0  0  0  0
   -3.4054   -0.8312    0.0000 C   0  0  0  0  0  0  0  0  0  0  0  0
   -4.0708   -2.1755    0.0000 C   0  0  0  0  0  0  0  0  0  0  0  0
   -3.2392   -3.4239    0.0000 C   0  0  0  0  0  0  0  0  0  0  0  0
   -3.9045   -4.7683    0.0000 O   0  0  0  0  0  0  0  0  0  0  0  0
   -1.7423   -3.3279    0.0000 C   0  0  0  0  0  0  0  0  0  0  0  0
   -1.0769   -1.9835    0.0000 C   0  0  0  0  0  0  0  0  0  0  0  0
   -3.0052   -1.2128    0.0000 C   0  0  0  0  0  0  0  0  0  0  0  0
   -5.4126    0.9341    0.0000 O   0  0  0  0  0  0  0  0  0  0  0  0
   -5.8178    2.3784    0.0000 C   0  0  0  0  0  0  0  0  0  0  0  0
   -7.2711    2.7497    0.0000 C   0  0  0  0  0  0  0  0  0  0  0  0
   -4.7695    3.4514    0.0000 O   0  0  0  0  0  0  0  0  0  0  0  0
   -2.6703   -0.5753    0.0000 O   0  0  0  0  0  0  0  0  0  0  0  0
   -2.2567   -1.1648    0.0000 C   0  0  0  0  0  0  0  0  0  0  0  0
   -0.1432    1.2720    0.0000 O   0  0  0  0  0  0  0  0  0  0  0  0
    0.0741    2.7562    0.0000 C   0  0  0  0  0  0  0  0  0  0  0  0
   -1.1026    3.6865    0.0000 O   0  0  0  0  0  0  0  0  0  0  0  0
    1.4681    3.3101    0.0000 C   0  0  0  0  0  0  0  0  0  0  0  0
    1.6854    4.7942    0.0000 C   0  0  0  0  0  0  0  0  0  0  0  0
    3.0794    5.3481    0.0000 C   0  0  0  0  0  0  0  0  0  0  0  0
  1  2  2  0
  2  3  1  0
  3  4  1  0
  3  5  2  0
  5  6  1  0
  6  7  1  0
  7  8  1  6
  7  9  1  0
  9 10  1  1
  9 11  1  0
 11 12  1  6
 12 13  1  0
 13 14  2  0
 13 15  1  0
 15 16  1  0
 16 17  1  0
 11 18  1  0
 19 18  1  1
 19 20  1  0
 20 21  2  0
 21 22  1  0
 22 23  1  1
 22 24  1  0
 25 24  1  6
 20 26  1  0
 26 27  1  6
 27 28  1  0
 28 29  1  0
 28 30  2  0
 26 31  1  0
 31 32  1  0
 32 33  1  6
 33 34  1  0
 34 35  2  0
 34 36  1  0
 36 37  1  0
 37 38  1  0
 25  7  1  0
 25 19  1  0
 32 19  1  0
M  END
>  <identifier>  (208) 
CNP0246836.1

>  <canonical_smiles>  (208) 
C=C/C(C)=C\C[C@]1(C)[C@H](C)[C@@H](OC(=O)CCC)C[C@@]23C(=C[C@H](O)C[C@@H]12)[C@@H](OC(C)=O)O[C@H]3OC(=O)CCC

>  <standard_inchi>  (208) 
InChI=1S/C30H44O8/c1-8-11-25(33)36-23-17-30-22(27(35-20(6)31)38-28(30)37-26(34)12-9-2)15-21(32)16-24(30)29(7,19(23)5)14-13-18(4)10-3/h10,13,15,19,21,23-24,27-28,32H,3,8-9,11-12,14,16-17H2,1-2,4-7H3/b18-13-/t19-,21+,23+,24+,27+,28-,29-,30-/m1/s1

>  <standard_inchi_key>  (208) 
OUDNKZRJDTVGFR-HUJKCTRQSA-N

>  <name>  (208) 
nan

>  <iupac_name>  (208) 
[(1~{S},3~{R},5~{R},6~{a}~{S},7~{S},8~{S},9~{S},10~{a}~{S})-3-acetoxy-1-butanoyloxy-5-hydroxy-7,8-dimethyl-7-[(2~{Z})-3-methylpenta-2,4-dienyl]-1,3,5,6,6~{a},8,9,10-octahydrobenzo[d]isobenzofuran-9-yl] butanoate

>  <annotation_level>  (208) 
5

>  <total_atom_count>  (208) 
82

>  <heavy_atom_count>  (208) 
38

>  <molecular_weight>  (208) 
532.67

>  <exact_molecular_weight>  (208) 
532.30362

>  <molecular_formula>  (208) 
C30H44O8

>  <alogp>  (208) 
5.15

>  <topological_polar_surface_area>  (208) 
108.36

>  <rotatable_bond_count>  (208) 
10

>  <hydrogen_bond_acceptors>  (208) 
8

>  <hydrogen_bond_donors>  (208) 
1

>  <hydrogen_bond_acceptors_lipinski>  (208) 
8

>  <hydrogen_bond_donors_lipinski>  (208) 
1

>  <lipinski_rule_of_five_violations>  (208) 
2

>  <aromatic_rings_count>  (208) 
0

>  <qed_drug_likeliness>  (208) 
0.18

>  <formal_charge>  (208) 
0

>  <fractioncsp3>  (208) 
0.70

>  <number_of_minimal_rings>  (208) 
3

>  <van_der_walls_volume>  (208) 
508.25

>  <contains_sugar>  (208) 
False

>  <contains_ring_sugars>  (208) 
False

>  <contains_linear_sugars>  (208) 
False

>  <murcko_framework>  (208) 
O1CC2=CCCC3CCCCC23C1

>  <np_likeness>  (208) 
3.03

>  <chemical_class>  (208) 
Prenol lipids

>  <chemical_sub_class>  (208) 
Diterpenoids

>  <chemical_super_class>  (208) 
Lipids and lipid-like molecules

>  <direct_parent_classification>  (208) 
Colensane and clerodane diterpenoids

>  <np_classifier_pathway>  (208) 
Terpenoids

>  <np_classifier_superclass>  (208) 
Diterpenoids

>  <np_classifier_class>  (208) 
Colensane and Clerodane diterpenoids

>  <np_classifier_is_glycoside>  (208) 
True

>  <organisms>  (208) 
Casearia sylvestris

>  <collections>  (208) 
ChemSpider NPs|Latin America dataset|NuBBEDB|Super Natural II|WikiData Natural Products|ZINC NP

>  <dois>  (208) 
10.1002/PCA.902|10.1002/pca.902

>  <synonyms>  (208) 
Casearin I

>  <cas>  (208) 
nan

$$$$

     RDKit          2D

 31 35  0  0  0  0  0  0  0  0999 V2000
    5.1629    4.0763    0.0000 C   0  0  0  0  0  0  0  0  0  0  0  0
    4.7816    2.6255    0.0000 C   0  0  0  0  0  0  0  0  0  0  0  0
    3.3346    2.2303    0.0000 C   0  0  0  0  0  0  0  0  0  0  0  0
    5.8473    1.5700    0.0000 C   0  0  0  0  0  0  0  0  0  0  0  0
    7.2943    1.9651    0.0000 C   0  0  0  0  0  0  0  0  0  0  0  0
    5.4660    0.1192    0.0000 C   0  0  0  0  0  0  0  0  0  0  0  0
    4.0190   -0.2759    0.0000 C   0  0  0  0  0  0  0  0  0  0  0  0
    3.6378   -1.7267    0.0000 C   0  0  0  0  0  0  0  0  0  0  0  0
    4.7035   -2.7822    0.0000 C   0  0  0  0  0  0  0  0  0  0  0  0
    2.1907   -2.1219    0.0000 C   0  0  0  0  0  0  0  0  0  0  0  0
    1.6599   -3.5248    0.0000 C   0  0  0  0  0  0  0  0  0  0  0  0
    0.1616   -3.4535    0.0000 C   0  0  0  0  0  0  0  0  0  0  0  0
   -0.2336   -2.0065    0.0000 C   0  0  0  0  0  0  0  0  0  0  0  0
   -1.4876   -2.8294    0.0000 O   0  0  0  0  0  0  0  0  0  0  0  0
   -1.5733   -1.3319    0.0000 C   0  0  0  0  0  0  0  0  0  0  0  0
   -2.8274   -2.1549    0.0000 C   0  0  0  0  0  0  0  0  0  0  0  0
   -4.1672   -1.4803    0.0000 C   0  0  0  0  0  0  0  0  0  0  0  0
   -5.4212   -2.3033    0.0000 O   0  0  0  0  0  0  0  0  0  0  0  0
   -4.2528    0.0172    0.0000 C   0  0  0  0  0  0  0  0  0  0  0  0
   -5.5926    0.6918    0.0000 C   0  0  0  0  0  0  0  0  0  0  0  0
   -5.6783    2.1894    0.0000 C   0  0  0  0  0  0  0  0  0  0  0  0
   -7.0181    2.8639    0.0000 O   0  0  0  0  0  0  0  0  0  0  0  0
   -4.4242    3.0123    0.0000 C   0  0  0  0  0  0  0  0  0  0  0  0
   -3.0845    2.3378    0.0000 C   0  0  0  0  0  0  0  0  0  0  0  0
   -2.9988    0.8402    0.0000 C   0  0  0  0  0  0  0  0  0  0  0  0
   -1.7447    1.6632    0.0000 C   0  0  0  0  0  0  0  0  0  0  0  0
   -1.6590    0.1657    0.0000 C   0  0  0  0  0  0  0  0  0  0  0  0
   -0.4049    0.9886    0.0000 C   0  0  0  0  0  0  0  0  0  0  0  0
    0.9348    0.3141    0.0000 C   0  0  0  0  0  0  0  0  0  0  0  0
    1.0205   -1.1835    0.0000 C   0  0  0  0  0  0  0  0  0  0  0  0
    2.3537   -0.4961    0.0000 C   0  0  0  0  0  0  0  0  0  0  0  0
  1  2  1  0
  2  3  1  0
  2  4  1  0
  4  5  1  6
  4  6  1  0
  6  7  2  0
  7  8  1  0
  8  9  1  1
  8 10  1  0
 10 11  1  1
 11 12  1  0
 13 12  1  6
 13 14  1  0
 14 15  1  0
 15 16  1  6
 16 17  1  0
 17 18  2  0
 17 19  1  0
 19 20  2  0
 20 21  1  0
 21 22  2  0
 21 23  1  0
 23 24  1  0
 24 25  1  0
 25 26  1  1
 25 27  1  0
 27 28  1  1
 28 29  1  0
 29 30  1  0
 30 31  1  1
 30 10  1  0
 15 13  1  0
 25 19  1  0
 30 13  1  0
 27 15  1  0
M  END
>  <identifier>  (209) 
CNP0243381.2

>  <canonical_smiles>  (209) 
CC(C)[C@H](C)/C=C/[C@@H](C)[C@H]1CC[C@]23O[C@]24CC(=O)C2=CC(=O)CC[C@]2(C)[C@H]4CC[C@]13C

>  <standard_inchi>  (209) 
InChI=1S/C28H40O3/c1-17(2)18(3)7-8-19(4)21-10-14-28-26(21,6)13-11-24-25(5)12-9-20(29)15-22(25)23(30)16-27(24,28)31-28/h7-8,15,17-19,21,24H,9-14,16H2,1-6H3/b8-7+/t18-,19-,21-,24-,25+,26-,27+,28-/m1/s1

>  <standard_inchi_key>  (209) 
DJVSRKXHTYPLOV-GRJJHXMQSA-N

>  <name>  (209) 
nan

>  <iupac_name>  (209) 
(1~{S},3~{R},6~{R},7~{R},10~{R},11~{R})-7,11-dimethyl-6-[(~{E},1~{R},4~{S})-1,4,5-trimethylhex-2-enyl]-2-oxapentacyclo[8.8.0.0^{1,3}.0^{3,7}.0^{11,16}]octadec-15-ene-14,17-dione

>  <annotation_level>  (209) 
4

>  <total_atom_count>  (209) 
71

>  <heavy_atom_count>  (209) 
31

>  <molecular_weight>  (209) 
424.63

>  <exact_molecular_weight>  (209) 
424.29775

>  <molecular_formula>  (209) 
C28H40O3

>  <alogp>  (209) 
6.07

>  <topological_polar_surface_area>  (209) 
46.67

>  <rotatable_bond_count>  (209) 
4

>  <hydrogen_bond_acceptors>  (209) 
3

>  <hydrogen_bond_donors>  (209) 
0

>  <hydrogen_bond_acceptors_lipinski>  (209) 
3

>  <hydrogen_bond_donors_lipinski>  (209) 
0

>  <lipinski_rule_of_five_violations>  (209) 
1

>  <aromatic_rings_count>  (209) 
0

>  <qed_drug_likeliness>  (209) 
0.41

>  <formal_charge>  (209) 
0

>  <fractioncsp3>  (209) 
0.79

>  <number_of_minimal_rings>  (209) 
5

>  <van_der_walls_volume>  (209) 
nan

>  <contains_sugar>  (209) 
False

>  <contains_ring_sugars>  (209) 
False

>  <contains_linear_sugars>  (209) 
False

>  <murcko_framework>  (209) 
O1C23CCCC3CCC4C5C(=CCCC5)CCC142

>  <np_likeness>  (209) 
2.97

>  <chemical_class>  (209) 
Steroids and steroid derivatives

>  <chemical_sub_class>  (209) 
Ergostane steroids

>  <chemical_super_class>  (209) 
Lipids and lipid-like molecules

>  <direct_parent_classification>  (209) 
Ergostane steroids

>  <np_classifier_pathway>  (209) 
Terpenoids

>  <np_classifier_superclass>  (209) 
Steroids

>  <np_classifier_class>  (209) 
Ergostane steroids

>  <np_classifier_is_glycoside>  (209) 
False

>  <organisms>  (209) 
Papulaspora immersa

>  <collections>  (209) 
Latin America dataset|NuBBEDB|WikiData Natural Products|ZINC NP

>  <dois>  (209) 
10.1002/CBDV.201000011|10.1002/cbdv.201000011

>  <synonyms>  (209) 
(22E24R)-814-Epoxyergosta-422-diene-36-dione

>  <cas>  (209) 
nan

$$$$

     RDKit          2D

 38 40  0  0  0  0  0  0  0  0999 V2000
    8.5248    0.1913    0.0000 C   0  0  0  0  0  0  0  0  0  0  0  0
    7.0251    0.1594    0.0000 C   0  0  0  0  0  0  0  0  0  0  0  0
    6.3029   -1.1552    0.0000 C   0  0  0  0  0  0  0  0  0  0  0  0
    7.0803   -2.4380    0.0000 C   0  0  0  0  0  0  0  0  0  0  0  0
    4.8032   -1.1871    0.0000 C   0  0  0  0  0  0  0  0  0  0  0  0
    4.0258    0.0958    0.0000 C   0  0  0  0  0  0  0  0  0  0  0  0
    2.5261    0.0639    0.0000 C   0  0  0  0  0  0  0  0  0  0  0  0
    2.8179   -1.4074    0.0000 C   0  0  0  0  0  0  0  0  0  0  0  0
    2.7552    1.5463    0.0000 C   0  0  0  0  0  0  0  0  0  0  0  0
    4.1535    2.0892    0.0000 C   0  0  0  0  0  0  0  0  0  0  0  0
    1.5859    2.4859    0.0000 C   0  0  0  0  0  0  0  0  0  0  0  0
    0.1876    1.9431    0.0000 C   0  0  0  0  0  0  0  0  0  0  0  0
   -0.7196    3.1377    0.0000 O   0  0  0  0  0  0  0  0  0  0  0  0
   -0.0415    0.4607    0.0000 C   0  0  0  0  0  0  0  0  0  0  0  0
   -1.4398   -0.0822    0.0000 C   0  0  0  0  0  0  0  0  0  0  0  0
   -1.6689   -1.5646    0.0000 C   0  0  0  0  0  0  0  0  0  0  0  0
   -0.4996   -2.5042    0.0000 C   0  0  0  0  0  0  0  0  0  0  0  0
   -0.7287   -3.9866    0.0000 O   0  0  0  0  0  0  0  0  0  0  0  0
   -2.1270   -4.5294    0.0000 C   0  0  0  0  0  0  0  0  0  0  0  0
   -3.2963   -3.5898    0.0000 O   0  0  0  0  0  0  0  0  0  0  0  0
   -2.3560   -6.0118    0.0000 C   0  0  0  0  0  0  0  0  0  0  0  0
   -3.7544   -6.5546    0.0000 C   0  0  0  0  0  0  0  0  0  0  0  0
   -3.9834   -8.0370    0.0000 C   0  0  0  0  0  0  0  0  0  0  0  0
    0.8987   -1.9613    0.0000 C   0  0  0  0  0  0  0  0  0  0  0  0
    1.1278   -0.4789    0.0000 C   0  0  0  0  0  0  0  0  0  0  0  0
   -0.9431   -0.3254    0.0000 C   0  0  0  0  0  0  0  0  0  0  0  0
   -3.8858    0.9958    0.0000 O   0  0  0  0  0  0  0  0  0  0  0  0
   -4.7075    2.2507    0.0000 C   0  0  0  0  0  0  0  0  0  0  0  0
   -4.0316    3.5898    0.0000 O   0  0  0  0  0  0  0  0  0  0  0  0
   -6.2052    2.1666    0.0000 C   0  0  0  0  0  0  0  0  0  0  0  0
   -7.0269    3.4215    0.0000 C   0  0  0  0  0  0  0  0  0  0  0  0
   -8.5245    3.3373    0.0000 C   0  0  0  0  0  0  0  0  0  0  0  0
   -0.8160    0.3834    0.0000 O   0  0  0  0  0  0  0  0  0  0  0  0
   -0.2440   -0.0540    0.0000 C   0  0  0  0  0  0  0  0  0  0  0  0
    1.0365    2.9067    0.0000 O   0  0  0  0  0  0  0  0  0  0  0  0
    0.7963    4.3873    0.0000 C   0  0  0  0  0  0  0  0  0  0  0  0
    1.9584    5.3357    0.0000 C   0  0  0  0  0  0  0  0  0  0  0  0
   -0.6061    4.9196    0.0000 O   0  0  0  0  0  0  0  0  0  0  0  0
  1  2  2  0
  2  3  1  0
  3  4  1  0
  3  5  2  0
  5  6  1  0
  6  7  1  0
  7  8  1  6
  7  9  1  0
  9 10  1  1
  9 11  1  0
 11 12  1  0
 12 13  1  1
 12 14  1  0
 14 15  1  6
 15 16  2  0
 16 17  1  0
 17 18  1  1
 18 19  1  0
 19 20  2  0
 19 21  1  0
 21 22  1  0
 22 23  1  0
 17 24  1  0
 25 24  1  6
 15 26  1  0
 26 27  1  6
 27 28  1  0
 28 29  2  0
 28 30  1  0
 30 31  1  0
 31 32  1  0
 26 33  1  0
 33 34  1  0
 34 35  1  6
 35 36  1  0
 36 37  1  0
 36 38  2  0
 25  7  1  0
 25 14  1  0
 34 14  1  0
M  END
>  <identifier>  (210) 
CNP0405688.1

>  <canonical_smiles>  (210) 
C=C/C(C)=C\C[C@]1(C)[C@H](C)C[C@H](O)[C@@]23C(=C[C@H](OC(=O)CCC)C[C@@H]12)[C@@H](OC(=O)CCC)O[C@H]3OC(C)=O

>  <standard_inchi>  (210) 
InChI=1S/C30H44O8/c1-8-11-25(33)36-21-16-22-27(37-26(34)12-9-2)38-28(35-20(6)31)30(22)23(17-21)29(7,14-13-18(4)10-3)19(5)15-24(30)32/h10,13,16,19,21,23-24,27-28,32H,3,8-9,11-12,14-15,17H2,1-2,4-7H3/b18-13-/t19-,21+,23+,24+,27+,28-,29-,30-/m1/s1

>  <standard_inchi_key>  (210) 
FOBZFECDCRDFJB-HUJKCTRQSA-N

>  <name>  (210) 
[(1S,3R,5R,6aS,7R,8R,10S,10aS)-1-acetyloxy-3-butanoyloxy-10-hydroxy-7,8-dimethyl-7-[(2Z)-3-methylpenta-2,4-dienyl]-1,3,5,6,6a,8,9,10-octahydrobenzo[d][2]benzofuran-5-yl] butanoate

>  <iupac_name>  (210) 
[(1~{S},3~{R},5~{R},6~{a}~{S},7~{R},8~{R},10~{S},10~{a}~{S})-1-acetoxy-3-butanoyloxy-10-hydroxy-7,8-dimethyl-7-[(2~{Z})-3-methylpenta-2,4-dienyl]-1,3,5,6,6~{a},8,9,10-octahydrobenzo[d]isobenzofuran-5-yl] butanoate

>  <annotation_level>  (210) 
5

>  <total_atom_count>  (210) 
82

>  <heavy_atom_count>  (210) 
38

>  <molecular_weight>  (210) 
532.67

>  <exact_molecular_weight>  (210) 
532.30362

>  <molecular_formula>  (210) 
C30H44O8

>  <alogp>  (210) 
5.15

>  <topological_polar_surface_area>  (210) 
108.36

>  <rotatable_bond_count>  (210) 
10

>  <hydrogen_bond_acceptors>  (210) 
8

>  <hydrogen_bond_donors>  (210) 
1

>  <hydrogen_bond_acceptors_lipinski>  (210) 
8

>  <hydrogen_bond_donors_lipinski>  (210) 
1

>  <lipinski_rule_of_five_violations>  (210) 
2

>  <aromatic_rings_count>  (210) 
0

>  <qed_drug_likeliness>  (210) 
0.18

>  <formal_charge>  (210) 
0

>  <fractioncsp3>  (210) 
0.70

>  <number_of_minimal_rings>  (210) 
3

>  <van_der_walls_volume>  (210) 
506.90

>  <contains_sugar>  (210) 
False

>  <contains_ring_sugars>  (210) 
False

>  <contains_linear_sugars>  (210) 
False

>  <murcko_framework>  (210) 
O1CC2=CCCC3CCCCC23C1

>  <np_likeness>  (210) 
3.27

>  <chemical_class>  (210) 
Prenol lipids

>  <chemical_sub_class>  (210) 
Diterpenoids

>  <chemical_super_class>  (210) 
Lipids and lipid-like molecules

>  <direct_parent_classification>  (210) 
Colensane and clerodane diterpenoids

>  <np_classifier_pathway>  (210) 
Terpenoids

>  <np_classifier_superclass>  (210) 
Diterpenoids

>  <np_classifier_class>  (210) 
Colensane and Clerodane diterpenoids

>  <np_classifier_is_glycoside>  (210) 
True

>  <organisms>  (210) 
Casearia sylvestris

>  <collections>  (210) 
ChemSpider NPs|Latin America dataset|NuBBEDB|Super Natural II|WikiData Natural Products|ZINC NP

>  <dois>  (210) 
10.1002/cbdv.200800342|10.1016/J.CBI.2010.08.008

>  <synonyms>  (210) 
CHEMBL4585117|Casearin X, (1R*3S*5S*6aR*7S*8S*10R*10aR*)-1-(Acetyloxy)-3566a78910-octahydro-10-hydroxy-78-dimethyl-7-[(2Z)-3-methylpenta-24-dien-1-yl]naphtho[18a-c]furan-35-diyl Dibutanoate

>  <cas>  (210) 
nan

$$$$

     RDKit          2D

 24 25  0  0  0  0  0  0  0  0999 V2000
   -0.4203   -1.7318    0.0000 O   0  0  0  0  0  0  0  0  0  0  0  0
   -0.0224   -0.2855    0.0000 C   0  0  0  0  0  0  0  0  0  0  0  0
    1.4290    0.0930    0.0000 C   0  0  0  0  0  0  0  0  0  0  0  0
    2.4826   -0.9747    0.0000 C   0  0  0  0  0  0  0  0  0  0  0  0
    3.9340   -0.5961    0.0000 C   0  0  0  0  0  0  0  0  0  0  0  0
    4.9876   -1.6638    0.0000 C   0  0  0  0  0  0  0  0  0  0  0  0
    6.4391   -1.2853    0.0000 C   0  0  0  0  0  0  0  0  0  0  0  0
    6.8369    0.1610    0.0000 C   0  0  0  0  0  0  0  0  0  0  0  0
    8.2884    0.5396    0.0000 O   0  0  0  0  0  0  0  0  0  0  0  0
    5.7834    1.2287    0.0000 C   0  0  0  0  0  0  0  0  0  0  0  0
    6.1812    2.6750    0.0000 O   0  0  0  0  0  0  0  0  0  0  0  0
    4.3319    0.8502    0.0000 C   0  0  0  0  0  0  0  0  0  0  0  0
   -1.0760    0.7822    0.0000 O   0  0  0  0  0  0  0  0  0  0  0  0
   -2.5274    0.4036    0.0000 C   0  0  0  0  0  0  0  0  0  0  0  0
   -3.5810    1.4713    0.0000 O   0  0  0  0  0  0  0  0  0  0  0  0
   -5.0324    1.0928    0.0000 C   0  0  0  0  0  0  0  0  0  0  0  0
   -6.0860    2.1605    0.0000 C   0  0  0  0  0  0  0  0  0  0  0  0
   -5.6881    3.6067    0.0000 O   0  0  0  0  0  0  0  0  0  0  0  0
   -5.4303   -0.3535    0.0000 C   0  0  0  0  0  0  0  0  0  0  0  0
   -6.8818   -0.7321    0.0000 O   0  0  0  0  0  0  0  0  0  0  0  0
   -4.3767   -1.4212    0.0000 C   0  0  0  0  0  0  0  0  0  0  0  0
   -4.7746   -2.8675    0.0000 O   0  0  0  0  0  0  0  0  0  0  0  0
   -2.9253   -1.0427    0.0000 C   0  0  0  0  0  0  0  0  0  0  0  0
   -1.8717   -2.1104    0.0000 O   0  0  0  0  0  0  0  0  0  0  0  0
  1  2  2  0
  2  3  1  0
  3  4  2  0
  4  5  1  0
  5  6  2  0
  6  7  1  0
  7  8  2  0
  8  9  1  0
  8 10  1  0
 10 11  1  0
 10 12  2  0
  2 13  1  0
 14 13  1  1
 14 15  1  0
 15 16  1  0
 16 17  1  1
 17 18  1  0
 16 19  1  0
 19 20  1  6
 19 21  1  0
 21 22  1  1
 21 23  1  0
 23 24  1  6
 12  5  1  0
 23 14  1  0
M  END
>  <identifier>  (211) 
CNP0201883.1

>  <canonical_smiles>  (211) 
O=C(/C=C/C1=CC=C(O)C(O)=C1)O[C@@H]1O[C@H](CO)[C@@H](O)[C@H](O)[C@H]1O

>  <standard_inchi>  (211) 
InChI=1S/C15H18O9/c16-6-10-12(20)13(21)14(22)15(23-10)24-11(19)4-2-7-1-3-8(17)9(18)5-7/h1-5,10,12-18,20-22H,6H2/b4-2+/t10-,12-,13+,14-,15+/m1/s1

>  <standard_inchi_key>  (211) 
WQSDYZZEIBAPIN-VBQORRLJSA-N

>  <name>  (211) 
1-Caffeoyl-beta-D-glucose

>  <iupac_name>  (211) 
[(2~{S},3~{R},4~{S},5~{S},6~{R})-3,4,5-trihydroxy-6-(hydroxymethyl)tetrahydropyran-2-yl] (~{E})-3-(3,4-dihydroxyphenyl)prop-2-enoate

>  <annotation_level>  (211) 
5

>  <total_atom_count>  (211) 
42

>  <heavy_atom_count>  (211) 
24

>  <molecular_weight>  (211) 
342.3

>  <exact_molecular_weight>  (211) 
342.09508

>  <molecular_formula>  (211) 
C15H18O9

>  <alogp>  (211) 
-1.55

>  <topological_polar_surface_area>  (211) 
156.91

>  <rotatable_bond_count>  (211) 
4

>  <hydrogen_bond_acceptors>  (211) 
9

>  <hydrogen_bond_donors>  (211) 
6

>  <hydrogen_bond_acceptors_lipinski>  (211) 
9

>  <hydrogen_bond_donors_lipinski>  (211) 
6

>  <lipinski_rule_of_five_violations>  (211) 
1

>  <aromatic_rings_count>  (211) 
1

>  <qed_drug_likeliness>  (211) 
0.22

>  <formal_charge>  (211) 
0

>  <fractioncsp3>  (211) 
0.40

>  <number_of_minimal_rings>  (211) 
2

>  <van_der_walls_volume>  (211) 
286.11

>  <contains_sugar>  (211) 
True

>  <contains_ring_sugars>  (211) 
True

>  <contains_linear_sugars>  (211) 
False

>  <murcko_framework>  (211) 
O(CC=Cc1ccccc1)C2OCCCC2

>  <np_likeness>  (211) 
2.13

>  <chemical_class>  (211) 
Cinnamic acids and derivatives

>  <chemical_sub_class>  (211) 
Hydroxycinnamic acids and derivatives

>  <chemical_super_class>  (211) 
Phenylpropanoids and polyketides

>  <direct_parent_classification>  (211) 
Hydroxycinnamic acids

>  <np_classifier_pathway>  (211) 
Shikimates and Phenylpropanoids

>  <np_classifier_superclass>  (211) 
Phenylpropanoids (C6-C3)

>  <np_classifier_class>  (211) 
Cinnamic acids and derivatives

>  <np_classifier_is_glycoside>  (211) 
True

>  <organisms>  (211) 
Adenocaulon himalaicum|Albugo candida|Aruncus dioicus|Balanophora fungosa|Balanophora harlandii|Balanophora japonica|Balanophora laxiflora|Brassica rapa|Capsicum annuum|Centella asiatica|Clematis tashiroi|Coussarea hydrangeifolia|Fragaria|Hypericum perforatum|Ligustrum obtusifolium|Luffa cylindrica|Moricandia arvensis|Raphanus Sativus|Ribes nigrum|Ribes rubrum|Ribes uva-crispa|Rubus|Vaccinium corymbosum

>  <collections>  (211) 
ANPDB|Australian natural products|CMAUP (cCollective molecular activities of useful plants)|ChEBI NPs|ChemSpider NPs|FooDB|Latin America dataset|NANPDB (Natural Products from Northern African Sources)|NPASS|NuBBEDB|Phenol-explorer|Phyto4Health|Super Natural II|TCMDB-Taiwan (Traditional Chinese Medicine database)|VietHerb|WikiData Natural Products|ZINC NP

>  <dois>  (211) 
10.1002/CBDV.200800139|10.1002/HLCA.200900036|10.1007/BF00579831|10.1016/J.PHYTOCHEM.2005.06.019|10.1016/J.PHYTOCHEM.2007.10.019|10.1016/S0031-9422(00)80722-0|10.1016/S0031-9422(97)00362-2|10.1016/j.phytochem.2005.06.019|10.1021/ACS.JNATPROD.5B00154|10.1021/JF0347517|10.1021/JF1035542|10.1021/NP049581M|10.1021/NP049581M.S001|10.1021/acs.jnatprod.5b00154|10.1021/jf0604790|10.1021/np049581m|10.1080/14786411003792165|10.1248/CPB.49.887|10.1248/CPB.57.1352|10.1248/YAKUSHI1947.108.7_647

>  <synonyms>  (211) 
1-O-(E)-caffeoyl-\u221a\u00e9\u00ac\u2264-D-glucopyranoside|1-O-[(2E)-3-(3,4-dihydroxyphenyl)prop-2-enoyl]-beta-D-glucopyranose|1-O-caffeoyl-beta-D-glucopyranoside|1-O-caffeoyl-beta-D-glucose|14364-08-0|ACon1_001812|AKOS040735825|CHEBI:614|CHEMBL482242|Caffeoyl glucose|DTXSID30415188|NCGC00180114-01|Q27105318|[(2S,3R,4S,5S,6R)-3,4,5-trihydroxy-6-(hydroxymethyl)oxan-2-yl] (E)-3-(3,4-dihydroxyphenyl)prop-2-enoate|b-D-Glucopyranose, 1-[3-(3,4-dihydroxyphenyl)-2-propenoate]

>  <cas>  (211) 
14364-08-0

$$$$

     RDKit          2D

 28 30  0  0  0  0  0  0  0  0999 V2000
   -8.0683   -2.8393    0.0000 C   0  0  0  0  0  0  0  0  0  0  0  0
   -7.0225   -1.7640    0.0000 C   0  0  0  0  0  0  0  0  0  0  0  0
   -5.5683   -2.1321    0.0000 C   0  0  0  0  0  0  0  0  0  0  0  0
   -4.5225   -1.0568    0.0000 C   0  0  0  0  0  0  0  0  0  0  0  0
   -4.9309    0.3866    0.0000 C   0  0  0  0  0  0  0  0  0  0  0  0
   -3.8851    1.4619    0.0000 C   0  0  0  0  0  0  0  0  0  0  0  0
   -4.2934    2.9052    0.0000 O   0  0  0  0  0  0  0  0  0  0  0  0
   -5.7476    3.2733    0.0000 C   0  0  0  0  0  0  0  0  0  0  0  0
   -2.4309    1.0938    0.0000 C   0  0  0  0  0  0  0  0  0  0  0  0
   -1.3851    2.1691    0.0000 O   0  0  0  0  0  0  0  0  0  0  0  0
    0.0690    1.8011    0.0000 C   0  0  0  0  0  0  0  0  0  0  0  0
    1.1148    2.8764    0.0000 C   0  0  0  0  0  0  0  0  0  0  0  0
    0.4774    0.3577    0.0000 C   0  0  0  0  0  0  0  0  0  0  0  0
    1.9315   -0.0103    0.0000 C   0  0  0  0  0  0  0  0  0  0  0  0
    2.3399   -1.4536    0.0000 C   0  0  0  0  0  0  0  0  0  0  0  0
    3.7940   -1.8217    0.0000 C   0  0  0  0  0  0  0  0  0  0  0  0
    4.2023   -3.2650    0.0000 O   0  0  0  0  0  0  0  0  0  0  0  0
    3.1565   -4.3403    0.0000 C   0  0  0  0  0  0  0  0  0  0  0  0
    4.8398   -0.7464    0.0000 C   0  0  0  0  0  0  0  0  0  0  0  0
    6.2940   -1.1144    0.0000 O   0  0  0  0  0  0  0  0  0  0  0  0
    7.3398   -0.0391    0.0000 C   0  0  0  0  0  0  0  0  0  0  0  0
    4.4315    0.6970    0.0000 C   0  0  0  0  0  0  0  0  0  0  0  0
    5.4773    1.7723    0.0000 O   0  0  0  0  0  0  0  0  0  0  0  0
    5.0689    3.2156    0.0000 C   0  0  0  0  0  0  0  0  0  0  0  0
    2.9773    1.0650    0.0000 C   0  0  0  0  0  0  0  0  0  0  0  0
   -0.5684   -0.7176    0.0000 O   0  0  0  0  0  0  0  0  0  0  0  0
   -2.0226   -0.3495    0.0000 C   0  0  0  0  0  0  0  0  0  0  0  0
   -3.0684   -1.4248    0.0000 C   0  0  0  0  0  0  0  0  0  0  0  0
  1  2  2  0
  2  3  1  0
  3  4  1  0
  4  5  2  0
  5  6  1  0
  6  7  1  0
  7  8  1  0
  6  9  2  0
  9 10  1  0
 10 11  1  0
 11 12  1  6
 11 13  1  0
 13 14  1  1
 14 15  2  0
 15 16  1  0
 16 17  1  0
 17 18  1  0
 16 19  2  0
 19 20  1  0
 20 21  1  0
 19 22  1  0
 22 23  1  0
 23 24  1  0
 22 25  2  0
 13 26  1  0
 26 27  1  0
 27 28  2  0
 28  4  1  0
 27  9  1  0
 25 14  1  0
M  END
>  <identifier>  (212) 
CNP0229217.1

>  <canonical_smiles>  (212) 
C=CCC1=CC(OC)=C2O[C@H](C)[C@@H](C3=CC(OC)=C(OC)C(OC)=C3)OC2=C1

>  <standard_inchi>  (212) 
InChI=1S/C22H26O6/c1-7-8-14-9-16(23-3)22-19(10-14)28-20(13(2)27-22)15-11-17(24-4)21(26-6)18(12-15)25-5/h7,9-13,20H,1,8H2,2-6H3/t13-,20+/m1/s1

>  <standard_inchi_key>  (212) 
BVNKWNRETUIZFZ-XCLFUZPHSA-N

>  <name>  (212) 
Eusiderin

>  <iupac_name>  (212) 
(2~{R},3~{R})-7-allyl-5-methoxy-3-methyl-2-(3,4,5-trimethoxyphenyl)-2,3-dihydro-1,4-benzodioxine

>  <annotation_level>  (212) 
5

>  <total_atom_count>  (212) 
54

>  <heavy_atom_count>  (212) 
28

>  <molecular_weight>  (212) 
386.44

>  <exact_molecular_weight>  (212) 
386.17294

>  <molecular_formula>  (212) 
C22H26O6

>  <alogp>  (212) 
4.35

>  <topological_polar_surface_area>  (212) 
55.38

>  <rotatable_bond_count>  (212) 
7

>  <hydrogen_bond_acceptors>  (212) 
6

>  <hydrogen_bond_donors>  (212) 
0

>  <hydrogen_bond_acceptors_lipinski>  (212) 
6

>  <hydrogen_bond_donors_lipinski>  (212) 
0

>  <lipinski_rule_of_five_violations>  (212) 
0

>  <aromatic_rings_count>  (212) 
2

>  <qed_drug_likeliness>  (212) 
0.66

>  <formal_charge>  (212) 
0

>  <fractioncsp3>  (212) 
0.36

>  <number_of_minimal_rings>  (212) 
3

>  <van_der_walls_volume>  (212) 
nan

>  <contains_sugar>  (212) 
False

>  <contains_ring_sugars>  (212) 
False

>  <contains_linear_sugars>  (212) 
False

>  <murcko_framework>  (212) 
O1c2ccccc2OC(c3ccccc3)C1

>  <np_likeness>  (212) 
1.31

>  <chemical_class>  (212) 
Benzodioxanes

>  <chemical_sub_class>  (212) 
Phenylbenzodioxanes

>  <chemical_super_class>  (212) 
Organoheterocyclic compounds

>  <direct_parent_classification>  (212) 
Phenylbenzo-1,4-dioxanes

>  <np_classifier_pathway>  (212) 
Shikimates and Phenylpropanoids

>  <np_classifier_superclass>  (212) 
Lignans

>  <np_classifier_class>  (212) 
Neolignans

>  <np_classifier_is_glycoside>  (212) 
False

>  <organisms>  (212) 
Aniba sp.|Licaria|Licaria chrysophylla|Licaria rigida|Licaria sp.|Ocotea aciphylla|Ocotea costulata|Virola carinata|Virola elongata|Virola guggenheimii|Virola pavonis|Virola surinamensis

>  <collections>  (212) 
Latin America dataset|NuBBEDB|Super Natural II|WikiData Natural Products|ZINC NP

>  <dois>  (212) 
10.1016/0031-9422(76)90000-5|10.1016/0031-9422(80)80209-3|10.1016/0031-9422(81)84071-X|10.1016/0031-9422(89)80082-2|10.1016/0378-8741(84)90087-4|10.1016/S0031-9422(00)80766-9|10.1016/S0031-9422(00)83181-7|10.1016/S0031-9422(82)85050-4

>  <synonyms>  (212) 
127420-50-2|CHEMBL4472700|DTXSID90464591|Eusiderin, rel-(2R3R)-7-allyl-5-methoxy-2-(345-trimethoxyphenyl)-3-methylbenzodioxan|Q5414263

>  <cas>  (212) 
127420-50-2

$$$$

     RDKit          2D

 20 21  0  0  0  0  0  0  0  0999 V2000
   -2.6577   -3.6135    0.0000 C   0  0  0  0  0  0  0  0  0  0  0  0
   -2.8586   -2.1270    0.0000 C   0  0  0  0  0  0  0  0  0  0  0  0
   -4.2464   -1.5577    0.0000 C   0  0  0  0  0  0  0  0  0  0  0  0
   -4.4473   -0.0712    0.0000 C   0  0  0  0  0  0  0  0  0  0  0  0
   -3.2604    0.8460    0.0000 C   0  0  0  0  0  0  0  0  0  0  0  0
   -3.4612    2.3325    0.0000 C   0  0  0  0  0  0  0  0  0  0  0  0
   -2.2743    3.2497    0.0000 C   0  0  0  0  0  0  0  0  0  0  0  0
   -4.8490    2.9018    0.0000 C   0  0  0  0  0  0  0  0  0  0  0  0
   -1.8726    0.2767    0.0000 C   0  0  0  0  0  0  0  0  0  0  0  0
   -1.6717   -1.2098    0.0000 C   0  0  0  0  0  0  0  0  0  0  0  0
   -0.2839   -1.7790    0.0000 O   0  0  0  0  0  0  0  0  0  0  0  0
    0.9030   -0.8618    0.0000 C   0  0  0  0  0  0  0  0  0  0  0  0
    0.7021    0.6246    0.0000 O   0  0  0  0  0  0  0  0  0  0  0  0
    2.2907   -1.4311    0.0000 C   0  0  0  0  0  0  0  0  0  0  0  0
    3.4776   -0.5139    0.0000 C   0  0  0  0  0  0  0  0  0  0  0  0
    4.8654   -1.0832    0.0000 C   0  0  0  0  0  0  0  0  0  0  0  0
    6.0523   -0.1660    0.0000 C   0  0  0  0  0  0  0  0  0  0  0  0
    5.8514    1.3205    0.0000 C   0  0  0  0  0  0  0  0  0  0  0  0
    4.4637    1.8898    0.0000 C   0  0  0  0  0  0  0  0  0  0  0  0
    3.2768    0.9726    0.0000 C   0  0  0  0  0  0  0  0  0  0  0  0
  1  2  2  0
  2  3  1  0
  3  4  2  0
  4  5  1  0
  5  6  1  1
  6  7  1  0
  6  8  1  0
  5  9  1  0
  9 10  1  0
 10 11  1  6
 11 12  1  0
 12 13  2  0
 12 14  1  0
 14 15  1  0
 15 16  2  0
 16 17  1  0
 17 18  2  0
 18 19  1  0
 19 20  2  0
 10  2  1  0
 20 15  1  0
M  END
>  <identifier>  (213) 
CNP0080550.1

>  <canonical_smiles>  (213) 
C=C1C=C[C@@H](C(C)C)C[C@@H]1OC(=O)CC1=CC=CC=C1

>  <standard_inchi>  (213) 
InChI=1S/C18H22O2/c1-13(2)16-10-9-14(3)17(12-16)20-18(19)11-15-7-5-4-6-8-15/h4-10,13,16-17H,3,11-12H2,1-2H3/t16-,17+/m1/s1

>  <standard_inchi_key>  (213) 
LRIJTJALEPQHJR-SJORKVTESA-N

>  <name>  (213) 
nan

>  <iupac_name>  (213) 
[(1~{S},5~{R})-5-isopropyl-2-methylene-cyclohex-3-en-1-yl] 2-phenylacetate

>  <annotation_level>  (213) 
4

>  <total_atom_count>  (213) 
42

>  <heavy_atom_count>  (213) 
20

>  <molecular_weight>  (213) 
270.37

>  <exact_molecular_weight>  (213) 
270.16198

>  <molecular_formula>  (213) 
C18H22O2

>  <alogp>  (213) 
3.93

>  <topological_polar_surface_area>  (213) 
26.30

>  <rotatable_bond_count>  (213) 
4

>  <hydrogen_bond_acceptors>  (213) 
2

>  <hydrogen_bond_donors>  (213) 
0

>  <hydrogen_bond_acceptors_lipinski>  (213) 
2

>  <hydrogen_bond_donors_lipinski>  (213) 
0

>  <lipinski_rule_of_five_violations>  (213) 
0

>  <aromatic_rings_count>  (213) 
1

>  <qed_drug_likeliness>  (213) 
0.77

>  <formal_charge>  (213) 
0

>  <fractioncsp3>  (213) 
0.39

>  <number_of_minimal_rings>  (213) 
2

>  <van_der_walls_volume>  (213) 
nan

>  <contains_sugar>  (213) 
False

>  <contains_ring_sugars>  (213) 
False

>  <contains_linear_sugars>  (213) 
False

>  <murcko_framework>  (213) 
O(CCc1ccccc1)C2CC=CCC2

>  <np_likeness>  (213) 
1.43

>  <chemical_class>  (213) 
Prenol lipids

>  <chemical_sub_class>  (213) 
Monoterpenoids

>  <chemical_super_class>  (213) 
Lipids and lipid-like molecules

>  <direct_parent_classification>  (213) 
Aromatic monoterpenoids

>  <np_classifier_pathway>  (213) 
Terpenoids

>  <np_classifier_superclass>  (213) 
Sesquiterpenoids

>  <np_classifier_class>  (213) 
Germacrane sesquiterpenoids

>  <np_classifier_is_glycoside>  (213) 
False

>  <organisms>  (213) 
Trattinnickia burserifolia

>  <collections>  (213) 
Latin America dataset|NuBBEDB|WikiData Natural Products|ZINC NP

>  <dois>  (213) 
10.1590/S0103-50532004000300008

>  <synonyms>  (213) 
2(S*)-Phenylacetoxy-4(R*)-p-mentha-1(7)5-dien

>  <cas>  (213) 
nan

$$$$

     RDKit          2D

 25 27  0  0  0  0  0  0  0  0999 V2000
    3.0156   -4.6479    0.0000 C   0  0  0  0  0  0  0  0  0  0  0  0
    3.1357   -3.1527    0.0000 C   0  0  0  0  0  0  0  0  0  0  0  0
    1.9008   -2.3011    0.0000 C   0  0  0  0  0  0  0  0  0  0  0  0
    2.0209   -0.8059    0.0000 C   0  0  0  0  0  0  0  0  0  0  0  0
    3.3758   -0.1623    0.0000 C   0  0  0  0  0  0  0  0  0  0  0  0
    3.4959    1.3328    0.0000 C   0  0  0  0  0  0  0  0  0  0  0  0
    4.8508    1.9764    0.0000 O   0  0  0  0  0  0  0  0  0  0  0  0
    6.0857    1.1248    0.0000 C   0  0  0  0  0  0  0  0  0  0  0  0
    2.2611    2.1844    0.0000 C   0  0  0  0  0  0  0  0  0  0  0  0
    2.3812    3.6796    0.0000 O   0  0  0  0  0  0  0  0  0  0  0  0
    0.9062    1.5408    0.0000 C   0  0  0  0  0  0  0  0  0  0  0  0
    0.7861    0.0456    0.0000 C   0  0  0  0  0  0  0  0  0  0  0  0
   -0.5688   -0.5979    0.0000 O   0  0  0  0  0  0  0  0  0  0  0  0
   -0.1102    0.3556    0.0000 C   0  0  0  0  0  0  0  0  0  0  0  0
   -1.5846    0.6313    0.0000 C   0  0  0  0  0  0  0  0  0  0  0  0
   -2.0830    2.0461    0.0000 C   0  0  0  0  0  0  0  0  0  0  0  0
   -3.5575    2.3218    0.0000 C   0  0  0  0  0  0  0  0  0  0  0  0
   -4.5335    1.1827    0.0000 C   0  0  0  0  0  0  0  0  0  0  0  0
   -6.0079    1.4584    0.0000 O   0  0  0  0  0  0  0  0  0  0  0  0
   -4.0350   -0.2320    0.0000 C   0  0  0  0  0  0  0  0  0  0  0  0
   -5.0110   -1.3711    0.0000 O   0  0  0  0  0  0  0  0  0  0  0  0
   -4.5126   -2.7858    0.0000 C   0  0  0  0  0  0  0  0  0  0  0  0
   -2.5606   -0.5078    0.0000 C   0  0  0  0  0  0  0  0  0  0  0  0
    0.5334   -0.9993    0.0000 C   0  0  0  0  0  0  0  0  0  0  0  0
   -0.1844   -2.3164    0.0000 C   0  0  0  0  0  0  0  0  0  0  0  0
  1  2  2  0
  2  3  1  0
  4  3  1  1
  4  5  1  0
  5  6  2  0
  6  7  1  0
  7  8  1  0
  6  9  1  0
  9 10  2  0
 11  9  1  1
 11 12  1  0
 12 13  2  0
 11 14  1  0
 14 15  1  1
 15 16  2  0
 16 17  1  0
 17 18  2  0
 18 19  1  0
 18 20  1  0
 20 21  1  0
 21 22  1  0
 20 23  2  0
 14 24  1  0
 24 25  1  6
 12  4  1  0
 23 15  1  0
 24  4  1  0
M  END
>  <identifier>  (214) 
CNP0167151.1

>  <canonical_smiles>  (214) 
C=CC[C@]12C=C(OC)C(=O)[C@@H](C1=O)[C@H](C1=CC=C(O)C(OC)=C1)[C@H]2C

>  <standard_inchi>  (214) 
InChI=1S/C20H22O5/c1-5-8-20-10-15(25-4)18(22)17(19(20)23)16(11(20)2)12-6-7-13(21)14(9-12)24-3/h5-7,9-11,16-17,21H,1,8H2,2-4H3/t11-,16+,17+,20-/m1/s1

>  <standard_inchi_key>  (214) 
WDPDGHCWVZXPFP-QZBDDJNGSA-N

>  <name>  (214) 
nan

>  <iupac_name>  (214) 
(1~{R},5~{S},6~{R},7~{R})-5-allyl-7-(4-hydroxy-3-methoxy-phenyl)-3-methoxy-6-methyl-bicyclo[3.2.1]oct-3-ene-2,8-dione

>  <annotation_level>  (214) 
4

>  <total_atom_count>  (214) 
47

>  <heavy_atom_count>  (214) 
25

>  <molecular_weight>  (214) 
342.39

>  <exact_molecular_weight>  (214) 
342.14672

>  <molecular_formula>  (214) 
C20H22O5

>  <alogp>  (214) 
2.99

>  <topological_polar_surface_area>  (214) 
72.83

>  <rotatable_bond_count>  (214) 
5

>  <hydrogen_bond_acceptors>  (214) 
5

>  <hydrogen_bond_donors>  (214) 
1

>  <hydrogen_bond_acceptors_lipinski>  (214) 
5

>  <hydrogen_bond_donors_lipinski>  (214) 
1

>  <lipinski_rule_of_five_violations>  (214) 
0

>  <aromatic_rings_count>  (214) 
1

>  <qed_drug_likeliness>  (214) 
0.66

>  <formal_charge>  (214) 
0

>  <fractioncsp3>  (214) 
0.40

>  <number_of_minimal_rings>  (214) 
3

>  <van_der_walls_volume>  (214) 
nan

>  <contains_sugar>  (214) 
False

>  <contains_ring_sugars>  (214) 
False

>  <contains_linear_sugars>  (214) 
False

>  <murcko_framework>  (214) 
c1ccc(cc1)C2CC3C=CCC2C3

>  <np_likeness>  (214) 
2.02

>  <chemical_class>  (214) 
Phenols

>  <chemical_sub_class>  (214) 
Methoxyphenols

>  <chemical_super_class>  (214) 
Benzenoids

>  <direct_parent_classification>  (214) 
Methoxyphenols

>  <np_classifier_pathway>  (214) 
Shikimates and Phenylpropanoids

>  <np_classifier_superclass>  (214) 
Lignans

>  <np_classifier_class>  (214) 
Neolignans

>  <np_classifier_is_glycoside>  (214) 
False

>  <organisms>  (214) 
Aniba|Aniba sp.

>  <collections>  (214) 
Latin America dataset|NuBBEDB|WikiData Natural Products

>  <dois>  (214) 
10.1016/0031-9422(80)83208-0

>  <synonyms>  (214) 
(7R8R1'R3'S)-(\u221a\u00e9\u201a\u00c4\u00f98')-4-Hydroxy-35'-dimethoxy-1'2'3'4'5'6'-hexahydro-4'-oxo-7.3'8.1'-neolignan

>  <cas>  (214) 
nan

$$$$

     RDKit          2D

 25 27  0  0  0  0  0  0  0  0999 V2000
    7.6507   -2.1005    0.0000 C   0  0  0  0  0  0  0  0  0  0  0  0
    6.9871   -0.7553    0.0000 O   0  0  0  0  0  0  0  0  0  0  0  0
    5.4903   -0.6575    0.0000 C   0  0  0  0  0  0  0  0  0  0  0  0
    4.6571   -1.9048    0.0000 C   0  0  0  0  0  0  0  0  0  0  0  0
    3.1603   -1.8069    0.0000 C   0  0  0  0  0  0  0  0  0  0  0  0
    2.4967   -0.4617    0.0000 C   0  0  0  0  0  0  0  0  0  0  0  0
    0.9999   -0.3639    0.0000 C   0  0  0  0  0  0  0  0  0  0  0  0
    0.0409   -1.5173    0.0000 C   0  0  0  0  0  0  0  0  0  0  0  0
   -1.3524   -0.9617    0.0000 C   0  0  0  0  0  0  0  0  0  0  0  0
   -2.6976   -1.6253    0.0000 C   0  0  0  0  0  0  0  0  0  0  0  0
   -3.9450   -0.7921    0.0000 C   0  0  0  0  0  0  0  0  0  0  0  0
   -5.2902   -1.4558    0.0000 C   0  0  0  0  0  0  0  0  0  0  0  0
   -6.5375   -0.6226    0.0000 C   0  0  0  0  0  0  0  0  0  0  0  0
   -7.8827   -1.2863    0.0000 C   0  0  0  0  0  0  0  0  0  0  0  0
   -9.1300   -0.4531    0.0000 O   0  0  0  0  0  0  0  0  0  0  0  0
   -3.8471    0.7047    0.0000 C   0  0  0  0  0  0  0  0  0  0  0  0
   -2.5019    1.3683    0.0000 C   0  0  0  0  0  0  0  0  0  0  0  0
   -2.4040    2.8651    0.0000 O   0  0  0  0  0  0  0  0  0  0  0  0
   -3.6514    3.6983    0.0000 C   0  0  0  0  0  0  0  0  0  0  0  0
   -1.2546    0.5351    0.0000 C   0  0  0  0  0  0  0  0  0  0  0  0
    0.1992    0.9046    0.0000 O   0  0  0  0  0  0  0  0  0  0  0  0
    3.3298    0.7856    0.0000 C   0  0  0  0  0  0  0  0  0  0  0  0
    4.8266    0.6877    0.0000 C   0  0  0  0  0  0  0  0  0  0  0  0
    5.6598    1.9351    0.0000 O   0  0  0  0  0  0  0  0  0  0  0  0
    4.9961    3.2803    0.0000 C   0  0  0  0  0  0  0  0  0  0  0  0
  1  2  1  0
  2  3  1  0
  3  4  2  0
  4  5  1  0
  5  6  2  0
  6  7  1  0
  7  8  2  0
  8  9  1  0
  9 10  2  0
 10 11  1  0
 11 12  1  0
 12 13  1  0
 13 14  1  0
 14 15  1  0
 11 16  2  0
 16 17  1  0
 17 18  1  0
 18 19  1  0
 17 20  2  0
 20 21  1  0
  6 22  1  0
 22 23  2  0
 23 24  1  0
 24 25  1  0
 23  3  1  0
 21  7  1  0
 20  9  1  0
M  END
>  <identifier>  (215) 
CNP0174349.0

>  <canonical_smiles>  (215) 
COC1=CC=C(C2=CC3=CC(CCCO)=CC(OC)=C3O2)C=C1OC

>  <standard_inchi>  (215) 
InChI=1S/C20H22O5/c1-22-16-7-6-14(11-18(16)23-2)17-12-15-9-13(5-4-8-21)10-19(24-3)20(15)25-17/h6-7,9-12,21H,4-5,8H2,1-3H3

>  <standard_inchi_key>  (215) 
PFOARMALXZGCHY-UHFFFAOYSA-N

>  <name>  (215) 
Homoegonol

>  <iupac_name>  (215) 
3-[2-(3,4-dimethoxyphenyl)-7-methoxy-benzofuran-5-yl]propan-1-ol

>  <annotation_level>  (215) 
5

>  <total_atom_count>  (215) 
47

>  <heavy_atom_count>  (215) 
25

>  <molecular_weight>  (215) 
342.39

>  <exact_molecular_weight>  (215) 
342.14672

>  <molecular_formula>  (215) 
C20H22O5

>  <alogp>  (215) 
4.05

>  <topological_polar_surface_area>  (215) 
61.06

>  <rotatable_bond_count>  (215) 
7

>  <hydrogen_bond_acceptors>  (215) 
5

>  <hydrogen_bond_donors>  (215) 
1

>  <hydrogen_bond_acceptors_lipinski>  (215) 
5

>  <hydrogen_bond_donors_lipinski>  (215) 
1

>  <lipinski_rule_of_five_violations>  (215) 
0

>  <aromatic_rings_count>  (215) 
3

>  <qed_drug_likeliness>  (215) 
0.70

>  <formal_charge>  (215) 
0

>  <fractioncsp3>  (215) 
0.30

>  <number_of_minimal_rings>  (215) 
3

>  <van_der_walls_volume>  (215) 
313.01

>  <contains_sugar>  (215) 
False

>  <contains_ring_sugars>  (215) 
False

>  <contains_linear_sugars>  (215) 
False

>  <murcko_framework>  (215) 
o1c2ccccc2cc1-c3ccccc3

>  <np_likeness>  (215) 
0.58

>  <chemical_class>  (215) 
2-arylbenzofuran flavonoids

>  <chemical_sub_class>  (215) 
2-arylbenzofuran flavonoids

>  <chemical_super_class>  (215) 
Phenylpropanoids and polyketides

>  <direct_parent_classification>  (215) 
2-arylbenzofuran flavonoids

>  <np_classifier_pathway>  (215) 
Shikimates and Phenylpropanoids

>  <np_classifier_superclass>  (215) 
Lignans

>  <np_classifier_class>  (215) 
Neolignans

>  <np_classifier_is_glycoside>  (215) 
False

>  <organisms>  (215) 
Styrax camporum|Styrax ferrugineus

>  <collections>  (215) 
CMAUP (cCollective molecular activities of useful plants)|ChemSpider NPs|Latin America dataset|NPASS|NuBBEDB|Super Natural II|TCMDB-Taiwan (Traditional Chinese Medicine database)|TCMID (Traditional Chinese Medicine Integrated Database)|UNPD (Universal Natural Products Database)|WikiData Natural Products|ZINC NP

>  <dois>  (215) 
10.1016/S0031-9422(00)00225-9|10.1080/14786410412331271979

>  <synonyms>  (215) 
17375-66-5|2-(3,4-Dimethoxyphenyl)-5-(3-hydroxypropyl)-7-methoxybenzofuran|3-[2-(3,4-dimethoxyphenyl)-7-methoxy-1-benzofuran-5-yl]propan-1-ol|5-(3''-Hydroxypropyl)-7-methoxy-2-(3',4'-dimethoxyphenyl)benzofuran|5-Benzofuranpropanol, 2-(3,4-dimethoxyphenyl)-7-methoxy-|CHEMBL3634694|DB-228502|DTXSID50169651|Homoegonol|PFOARMALXZGCHY-UHFFFAOYSA-N|SCHEMBL15258226

>  <cas>  (215) 
17375-66-5

$$$$

     RDKit          2D

 69 79  0  0  0  0  0  0  0  0999 V2000
  -16.0729   -0.6649    0.0000 C   0  0  0  0  0  0  0  0  0  0  0  0
  -14.6096   -0.3352    0.0000 O   0  0  0  0  0  0  0  0  0  0  0  0
  -13.5924   -1.4376    0.0000 C   0  0  0  0  0  0  0  0  0  0  0  0
  -14.0386   -2.8698    0.0000 O   0  0  0  0  0  0  0  0  0  0  0  0
  -12.1291   -1.1080    0.0000 C   0  0  0  0  0  0  0  0  0  0  0  0
  -12.0586   -2.6063    0.0000 C   0  0  0  0  0  0  0  0  0  0  0  0
  -12.7079    0.2759    0.0000 C   0  0  0  0  0  0  0  0  0  0  0  0
  -11.7988    1.4690    0.0000 C   0  0  0  0  0  0  0  0  0  0  0  0
  -10.3110    1.2783    0.0000 C   0  0  0  0  0  0  0  0  0  0  0  0
  -10.8898    2.6622    0.0000 C   0  0  0  0  0  0  0  0  0  0  0  0
   -9.4019    2.4715    0.0000 C   0  0  0  0  0  0  0  0  0  0  0  0
   -7.9141    2.2808    0.0000 C   0  0  0  0  0  0  0  0  0  0  0  0
   -7.3353    0.8970    0.0000 C   0  0  0  0  0  0  0  0  0  0  0  0
   -6.4263    2.0901    0.0000 C   0  0  0  0  0  0  0  0  0  0  0  0
   -5.8475    0.7063    0.0000 C   0  0  0  0  0  0  0  0  0  0  0  0
   -4.9385    1.8994    0.0000 C   0  0  0  0  0  0  0  0  0  0  0  0
   -3.4506    1.7087    0.0000 C   0  0  0  0  0  0  0  0  0  0  0  0
   -2.8719    0.3249    0.0000 C   0  0  0  0  0  0  0  0  0  0  0  0
   -3.7809   -0.8683    0.0000 C   0  0  0  0  0  0  0  0  0  0  0  0
   -3.2021   -2.2521    0.0000 C   0  0  0  0  0  0  0  0  0  0  0  0
   -1.7143   -2.4428    0.0000 C   0  0  0  0  0  0  0  0  0  0  0  0
   -1.1355   -3.8266    0.0000 O   0  0  0  0  0  0  0  0  0  0  0  0
   -0.8053   -1.2496    0.0000 C   0  0  0  0  0  0  0  0  0  0  0  0
   -0.2265   -2.6335    0.0000 O   0  0  0  0  0  0  0  0  0  0  0  0
    0.6826   -1.4403    0.0000 O   0  0  0  0  0  0  0  0  0  0  0  0
    1.5916   -0.2472    0.0000 C   0  0  0  0  0  0  0  0  0  0  0  0
    3.0795   -0.4379    0.0000 C   0  0  0  0  0  0  0  0  0  0  0  0
    3.9885    0.7553    0.0000 C   0  0  0  0  0  0  0  0  0  0  0  0
    3.4098    2.1391    0.0000 C   0  0  0  0  0  0  0  0  0  0  0  0
    4.3188    3.3323    0.0000 C   0  0  0  0  0  0  0  0  0  0  0  0
    3.7400    4.7161    0.0000 O   0  0  0  0  0  0  0  0  0  0  0  0
    5.8066    3.1416    0.0000 C   0  0  0  0  0  0  0  0  0  0  0  0
    6.3854    1.7577    0.0000 C   0  0  0  0  0  0  0  0  0  0  0  0
    5.4764    0.5646    0.0000 C   0  0  0  0  0  0  0  0  0  0  0  0
    4.5673   -0.6286    0.0000 C   0  0  0  0  0  0  0  0  0  0  0  0
    6.0551   -0.8193    0.0000 C   0  0  0  0  0  0  0  0  0  0  0  0
    7.5430   -1.0099    0.0000 C   0  0  0  0  0  0  0  0  0  0  0  0
    8.4520    0.1832    0.0000 C   0  0  0  0  0  0  0  0  0  0  0  0
    9.0308   -1.2006    0.0000 C   0  0  0  0  0  0  0  0  0  0  0  0
    9.9398   -0.0075    0.0000 C   0  0  0  0  0  0  0  0  0  0  0  0
   10.5186   -1.3913    0.0000 C   0  0  0  0  0  0  0  0  0  0  0  0
   12.0064   -1.5820    0.0000 C   0  0  0  0  0  0  0  0  0  0  0  0
   13.3393   -2.2701    0.0000 C   0  0  0  0  0  0  0  0  0  0  0  0
   11.5603   -3.0141    0.0000 C   0  0  0  0  0  0  0  0  0  0  0  0
   10.0970   -3.3438    0.0000 O   0  0  0  0  0  0  0  0  0  0  0  0
   12.5775   -4.1166    0.0000 O   0  0  0  0  0  0  0  0  0  0  0  0
   12.1313   -5.5487    0.0000 C   0  0  0  0  0  0  0  0  0  0  0  0
   12.9155   -0.3889    0.0000 C   0  0  0  0  0  0  0  0  0  0  0  0
   12.3367    0.9950    0.0000 C   0  0  0  0  0  0  0  0  0  0  0  0
   10.8489    1.1857    0.0000 C   0  0  0  0  0  0  0  0  0  0  0  0
   11.7580    2.3788    0.0000 C   0  0  0  0  0  0  0  0  0  0  0  0
   10.2701    2.5695    0.0000 C   0  0  0  0  0  0  0  0  0  0  0  0
    8.7823    2.7602    0.0000 C   0  0  0  0  0  0  0  0  0  0  0  0
    7.8732    1.5671    0.0000 C   0  0  0  0  0  0  0  0  0  0  0  0
    7.2945    2.9509    0.0000 C   0  0  0  0  0  0  0  0  0  0  0  0
    1.9219    2.3298    0.0000 C   0  0  0  0  0  0  0  0  0  0  0  0
    1.3432    3.7137    0.0000 C   0  0  0  0  0  0  0  0  0  0  0  0
    1.0129    1.1367    0.0000 C   0  0  0  0  0  0  0  0  0  0  0  0
   -0.4750    1.3274    0.0000 O   0  0  0  0  0  0  0  0  0  0  0  0
   -1.3840    0.1342    0.0000 C   0  0  0  0  0  0  0  0  0  0  0  0
   -1.9628    1.5180    0.0000 C   0  0  0  0  0  0  0  0  0  0  0  0
   -5.2687   -0.6776    0.0000 C   0  0  0  0  0  0  0  0  0  0  0  0
   -4.6900   -2.0614    0.0000 C   0  0  0  0  0  0  0  0  0  0  0  0
   -6.1778   -1.8707    0.0000 C   0  0  0  0  0  0  0  0  0  0  0  0
   -7.6656   -1.6800    0.0000 C   0  0  0  0  0  0  0  0  0  0  0  0
   -8.2444   -0.2962    0.0000 C   0  0  0  0  0  0  0  0  0  0  0  0
   -9.1535   -1.4893    0.0000 C   0  0  0  0  0  0  0  0  0  0  0  0
   -9.7322   -0.1055    0.0000 C   0  0  0  0  0  0  0  0  0  0  0  0
  -10.6413   -1.2987    0.0000 C   0  0  0  0  0  0  0  0  0  0  0  0
  1  2  1  0
  2  3  1  0
  3  4  2  0
  3  5  1  0
  5  6  1  1
  5  7  1  0
  7  8  1  0
  8  9  1  0
  9 10  1  1
  9 11  1  0
 11 12  1  0
 12 13  1  0
 13 14  1  1
 13 15  1  0
 15 16  2  0
 16 17  1  0
 17 18  2  0
 18 19  1  0
 19 20  2  0
 20 21  1  0
 21 22  2  0
 21 23  1  0
 23 24  1  6
 23 25  1  0
 25 26  1  0
 26 27  2  0
 27 28  1  0
 28 29  2  0
 29 30  1  0
 30 31  2  0
 30 32  1  0
 32 33  2  0
 33 34  1  0
 34 35  1  6
 34 36  1  0
 36 37  1  0
 37 38  1  0
 38 39  1  1
 38 40  1  0
 40 41  1  1
 41 42  1  0
 42 43  1  6
 42 44  1  0
 44 45  2  0
 44 46  1  0
 46 47  1  0
 42 48  1  0
 48 49  1  0
 49 50  1  0
 50 51  1  6
 50 52  1  0
 52 53  1  0
 53 54  1  0
 54 55  1  6
 29 56  1  0
 56 57  1  0
 56 58  2  0
 58 59  1  0
 59 60  1  0
 60 61  1  6
 19 62  1  0
 62 63  1  1
 62 64  1  0
 64 65  1  0
 65 66  1  0
 66 67  1  6
 66 68  1  0
 68 69  1  6
 69  5  1  0
 68  9  1  0
 66 13  1  0
 62 15  1  0
 60 18  1  0
 60 23  1  0
 58 26  1  0
 34 28  1  0
 54 38  1  0
 54 33  1  0
 50 40  1  0
M  END
>  <identifier>  (216) 
CNP0407805.1

>  <canonical_smiles>  (216) 
COC(=O)[C@]1(C)CC[C@]2(C)CC[C@]3(C)C4=CC=C5C(=CC(=O)[C@]6(O)OC7=CC8=C(C(=O)C=C9[C@@]8(C)CC[C@@]8(C)[C@@H]%10C[C@](C)(C(=O)OC)CC[C@]%10(C)CC[C@]98C)C(C)=C7O[C@]56C)[C@]4(C)CC[C@@]3(C)[C@@H]2C1

>  <standard_inchi>  (216) 
InChI=1S/C60H78O9/c1-34-45-37(54(7)24-28-58(11)43-33-52(5,48(64)67-14)20-18-50(43,3)22-26-56(58,9)41(54)31-38(45)61)29-39-46(34)69-59(12)35-15-16-40-53(6,36(35)30-44(62)60(59,65)68-39)23-27-57(10)42-32-51(4,47(63)66-13)19-17-49(42,2)21-25-55(40,57)8/h15-16,29-31,42-43,65H,17-28,32-33H2,1-14H3/t42-,43-,49-,50-,51-,52-,53+,54+,55-,56-,57+,58+,59-,60+/m1/s1

>  <standard_inchi_key>  (216) 
ZSUIKYWXQBBQHV-HODKZATGSA-N

>  <name>  (216) 
nan

>  <iupac_name>  (216) 
dimethyl (3~{R},8~{S},11~{S},14~{R},16~{R},17~{S},20~{R},24~{R},29~{R},32~{S},33~{R},35~{R},38~{S},41~{S})-24-hydroxy-3,8,11,14,17,20,29,32,35,38,41,46-dodecamethyl-23,44-dioxo-2,25-dioxaundecacyclo[24.20.0.0^{3,24}.0^{4,21}.0^{7,20}.0^{8,17}.0^{11,16}.0^{28,45}.0^{29,42}.0^{32,41}.0^{33,38}]hexatetraconta-1(46),4,6,21,26,28(45),42-heptaene-14,35-dicarboxylate

>  <annotation_level>  (216) 
4

>  <total_atom_count>  (216) 
147

>  <heavy_atom_count>  (216) 
69

>  <molecular_weight>  (216) 
943.27

>  <exact_molecular_weight>  (216) 
942.56458

>  <molecular_formula>  (216) 
C60H78O9

>  <alogp>  (216) 
12.15

>  <topological_polar_surface_area>  (216) 
125.43

>  <rotatable_bond_count>  (216) 
2

>  <hydrogen_bond_acceptors>  (216) 
9

>  <hydrogen_bond_donors>  (216) 
1

>  <hydrogen_bond_acceptors_lipinski>  (216) 
9

>  <hydrogen_bond_donors_lipinski>  (216) 
1

>  <lipinski_rule_of_five_violations>  (216) 
2

>  <aromatic_rings_count>  (216) 
1

>  <qed_drug_likeliness>  (216) 
0.29

>  <formal_charge>  (216) 
0

>  <fractioncsp3>  (216) 
0.70

>  <number_of_minimal_rings>  (216) 
11

>  <van_der_walls_volume>  (216) 
881.58

>  <contains_sugar>  (216) 
False

>  <contains_ring_sugars>  (216) 
False

>  <contains_linear_sugars>  (216) 
False

>  <murcko_framework>  (216) 
O1c2cc3c(cc2OC4CC=C5C(=CC=C6C5CCC7C6CCC8CCCCC87)C14)C9C(=CC3)C%10CCC%11CCCCC%11C%10CC9

>  <np_likeness>  (216) 
1.89

>  <chemical_class>  (216) 
Prenol lipids

>  <chemical_sub_class>  (216) 
Triterpenoids

>  <chemical_super_class>  (216) 
Lipids and lipid-like molecules

>  <direct_parent_classification>  (216) 
Triterpenoids

>  <np_classifier_pathway>  (216) 
Terpenoids

>  <np_classifier_superclass>  (216) 
Triterpenoids

>  <np_classifier_class>  (216) 
Friedelane triterpenoids

>  <np_classifier_is_glycoside>  (216) 
False

>  <organisms>  (216) 
Semialarium mexicanum

>  <collections>  (216) 
ChemSpider NPs|Latin America dataset|NuBBEDB|Super Natural II|WikiData Natural Products

>  <dois>  (216) 
10.1016/j.bmc.2007.11.008|10.1021/NP060559Y

>  <synonyms>  (216) 
Xuxuarine E\u221a\u00e9\u00ac\u2264

>  <cas>  (216) 
nan

$$$$

     RDKit          2D

 16 17  0  0  0  0  0  0  0  0999 V2000
   -5.1340   -0.5202    0.0000 C   0  0  0  0  0  0  0  0  0  0  0  0
   -3.8659    0.2810    0.0000 O   0  0  0  0  0  0  0  0  0  0  0  0
   -2.5380   -0.4166    0.0000 C   0  0  0  0  0  0  0  0  0  0  0  0
   -2.4782   -1.9154    0.0000 O   0  0  0  0  0  0  0  0  0  0  0  0
   -1.2699    0.3846    0.0000 C   0  0  0  0  0  0  0  0  0  0  0  0
   -1.3297    1.8835    0.0000 C   0  0  0  0  0  0  0  0  0  0  0  0
   -0.0616    2.6847    0.0000 O   0  0  0  0  0  0  0  0  0  0  0  0
    1.2663    1.9871    0.0000 C   0  0  0  0  0  0  0  0  0  0  0  0
    2.5344    2.7883    0.0000 O   0  0  0  0  0  0  0  0  0  0  0  0
    1.3261    0.4883    0.0000 C   0  0  0  0  0  0  0  0  0  0  0  0
    2.4799   -0.4702    0.0000 C   0  0  0  0  0  0  0  0  0  0  0  0
    3.9336   -0.1000    0.0000 C   0  0  0  0  0  0  0  0  0  0  0  0
    1.9250   -1.8637    0.0000 C   0  0  0  0  0  0  0  0  0  0  0  0
    2.7262   -3.1318    0.0000 O   0  0  0  0  0  0  0  0  0  0  0  0
    0.4281   -1.7666    0.0000 C   0  0  0  0  0  0  0  0  0  0  0  0
    0.0580   -0.3129    0.0000 C   0  0  0  0  0  0  0  0  0  0  0  0
  1  2  1  0
  2  3  1  0
  3  4  2  0
  3  5  1  0
  5  6  2  0
  6  7  1  0
  7  8  1  0
  8  9  1  1
 10  8  1  6
 10 11  1  0
 11 12  1  1
 11 13  1  0
 13 14  1  1
 13 15  1  0
 16 15  1  6
 16  5  1  0
 16 10  1  0
M  END
>  <identifier>  (217) 
CNP0117073.2

>  <canonical_smiles>  (217) 
COC(=O)C1=CO[C@@H](O)[C@@H]2[C@@H](C)[C@@H](O)C[C@H]12

>  <standard_inchi>  (217) 
InChI=1S/C11H16O5/c1-5-8(12)3-6-7(10(13)15-2)4-16-11(14)9(5)6/h4-6,8-9,11-12,14H,3H2,1-2H3/t5-,6+,8-,9+,11+/m0/s1

>  <standard_inchi_key>  (217) 
XWOHZIIPBYAMJX-KHBMLBSESA-N

>  <name>  (217) 
loganetin

>  <iupac_name>  (217) 
methyl (1~{R},4~{a}~{S},6~{S},7~{R},7~{a}~{S})-1,6-dihydroxy-7-methyl-1,4~{a},5,6,7,7~{a}-hexahydrocyclopenta[c]pyran-4-carboxylate

>  <annotation_level>  (217) 
5

>  <total_atom_count>  (217) 
32

>  <heavy_atom_count>  (217) 
16

>  <molecular_weight>  (217) 
228.24

>  <exact_molecular_weight>  (217) 
228.09977

>  <molecular_formula>  (217) 
C11H16O5

>  <alogp>  (217) 
0.02

>  <topological_polar_surface_area>  (217) 
75.99

>  <rotatable_bond_count>  (217) 
1

>  <hydrogen_bond_acceptors>  (217) 
5

>  <hydrogen_bond_donors>  (217) 
2

>  <hydrogen_bond_acceptors_lipinski>  (217) 
5

>  <hydrogen_bond_donors_lipinski>  (217) 
2

>  <lipinski_rule_of_five_violations>  (217) 
0

>  <aromatic_rings_count>  (217) 
0

>  <qed_drug_likeliness>  (217) 
0.62

>  <formal_charge>  (217) 
0

>  <fractioncsp3>  (217) 
0.73

>  <number_of_minimal_rings>  (217) 
2

>  <van_der_walls_volume>  (217) 
204.66

>  <contains_sugar>  (217) 
False

>  <contains_ring_sugars>  (217) 
False

>  <contains_linear_sugars>  (217) 
False

>  <murcko_framework>  (217) 
O1C=CC2CCCC2C1

>  <np_likeness>  (217) 
2.79

>  <chemical_class>  (217) 
Prenol lipids

>  <chemical_sub_class>  (217) 
Monoterpenoids

>  <chemical_super_class>  (217) 
Lipids and lipid-like molecules

>  <direct_parent_classification>  (217) 
Iridoids and derivatives

>  <np_classifier_pathway>  (217) 
Terpenoids

>  <np_classifier_superclass>  (217) 
Monoterpenoids

>  <np_classifier_class>  (217) 
Iridoids monoterpenoids

>  <np_classifier_is_glycoside>  (217) 
True

>  <organisms>  (217) 
Acritopappus confertus|Brachylaena discolor var. rotundata|Calycophyllum spruceanum|Cordiera macrophylla|Coryphantha greenwoodii|Desfontainia fulgens|Desfontainia spinosa|Dipsacus laciniatus|Gentiana verna|Lawsonia alba|Narcissus nivalis|Neonauclea sessilifolia|Polygala japonica|Pulicaria uliginosa|Scaevola floribunda|Strychnos lucida|Strychnos parvifolia

>  <collections>  (217) 
CMAUP (cCollective molecular activities of useful plants)|ChemSpider NPs|Latin America dataset|NPASS|NuBBEDB|Super Natural II|WikiData Natural Products|ZINC NP

>  <dois>  (217) 
10.1002/CHIN.200402178|10.1016/0031-9422(91)85153-Q|10.1016/0031-9422(92)83701-Y|10.1016/S0031-9422(00)82565-0|10.1016/S0031-9422(00)98016-6|10.1016/S0031-9422(02)00541-1|10.1016/S0031-9422(03)00153-5|10.1021/NP9702852|10.1248/CPB.39.2737

>  <synonyms>  (217) 
29748-10-5|AC-34498|AKOS037515404|BDBM50595028|CHEBI:195298|CHEMBL5174883|CS-0024031|Cyclopenta[c]pyran-4-carboxylic acid, 1,4a,5,6,7,7a-hexahydro-1,6-dihydroxy-7-methyl-, methyl ester, (1R,4aS,6S,7R,7aS)-|HY-N3373|Loganetin|Loganetin - Menyanthes trifoliata (bogbean)|METHYL (1R,4AS,6S,7R,7AS)-1,6-DIHYDROXY-7-METHYL-1H,4AH,5H,6H,7H,7AH-CYCLOPENTA[C]PYRAN-4-CARBOXYLATE|MS-23292|SCHEMBL10042272|XL170486|methyl (1R,4aS,6S,7R,7aS)-1,6-dihydroxy-7-methyl-1,4a,5,6,7,7a-hexahydrocyclopenta[c]pyran-4-carboxylate

>  <cas>  (217) 
29748-10-5

$$$$

     RDKit          2D

 26 27  0  0  0  0  0  0  0  0999 V2000
   -2.2983   -2.6054    0.0000 C   0  0  0  0  0  0  0  0  0  0  0  0
   -2.6022   -1.5550    0.0000 C   0  0  0  0  0  0  0  0  0  0  0  0
   -4.0914   -1.3758    0.0000 C   0  0  0  0  0  0  0  0  0  0  0  0
   -1.7024   -0.3549    0.0000 C   0  0  0  0  0  0  0  0  0  0  0  0
   -2.2918    1.0245    0.0000 O   0  0  0  0  0  0  0  0  0  0  0  0
   -3.7810    1.2037    0.0000 C   0  0  0  0  0  0  0  0  0  0  0  0
   -4.3705    2.5830    0.0000 C   0  0  0  0  0  0  0  0  0  0  0  0
   -4.6809    0.0036    0.0000 O   0  0  0  0  0  0  0  0  0  0  0  0
   -0.2131   -0.5341    0.0000 C   0  0  0  0  0  0  0  0  0  0  0  0
    0.3763   -1.9134    0.0000 O   0  0  0  0  0  0  0  0  0  0  0  0
   -0.5235   -3.1135    0.0000 C   0  0  0  0  0  0  0  0  0  0  0  0
    0.0659   -4.4929    0.0000 C   0  0  0  0  0  0  0  0  0  0  0  0
   -1.6170   -3.1162    0.0000 O   0  0  0  0  0  0  0  0  0  0  0  0
    0.6867    0.6660    0.0000 C   0  0  0  0  0  0  0  0  0  0  0  0
    0.0973    2.0454    0.0000 C   0  0  0  0  0  0  0  0  0  0  0  0
   -1.3919    2.2246    0.0000 O   0  0  0  0  0  0  0  0  0  0  0  0
   -1.9814    3.6039    0.0000 C   0  0  0  0  0  0  0  0  0  0  0  0
    0.9971    3.2455    0.0000 C   0  0  0  0  0  0  0  0  0  0  0  0
    2.4864    3.0663    0.0000 C   0  0  0  0  0  0  0  0  0  0  0  0
    3.0758    1.6869    0.0000 C   0  0  0  0  0  0  0  0  0  0  0  0
    2.1760    0.4868    0.0000 C   0  0  0  0  0  0  0  0  0  0  0  0
    2.7654   -0.8925    0.0000 O   0  0  0  0  0  0  0  0  0  0  0  0
    4.2547   -1.0717    0.0000 C   0  0  0  0  0  0  0  0  0  0  0  0
    4.8441   -2.4511    0.0000 O   0  0  0  0  0  0  0  0  0  0  0  0
    5.1545    0.1284    0.0000 C   0  0  0  0  0  0  0  0  0  0  0  0
    4.5651    1.5077    0.0000 C   0  0  0  0  0  0  0  0  0  0  0  0
  1  2  2  0
  2  3  1  0
  2  4  1  0
  4  5  1  1
  5  6  1  0
  6  7  1  0
  6  8  2  0
  4  9  1  0
  9 10  1  6
 10 11  1  0
 11 12  1  0
 11 13  2  0
  9 14  1  0
 14 15  2  0
 15 16  1  0
 16 17  1  0
 15 18  1  0
 18 19  2  0
 19 20  1  0
 20 21  2  0
 21 22  1  0
 22 23  1  0
 23 24  2  0
 23 25  1  0
 25 26  2  0
 21 14  1  0
 26 20  1  0
M  END
>  <identifier>  (218) 
CNP0418055.2

>  <canonical_smiles>  (218) 
C=C(C)[C@@H](OC(C)=O)[C@@H](OC(C)=O)C1=C(OC)C=CC2=C1OC(=O)C=C2

>  <standard_inchi>  (218) 
InChI=1S/C19H20O7/c1-10(2)17(24-11(3)20)19(25-12(4)21)16-14(23-5)8-6-13-7-9-15(22)26-18(13)16/h6-9,17,19H,1H2,2-5H3/t17-,19+/m1/s1

>  <standard_inchi_key>  (218) 
UXEHZTFFWWQEAU-MJGOQNOKSA-N

>  <name>  (218) 
AKOS040762075

>  <iupac_name>  (218) 
[(1~{S},2~{R})-2-acetoxy-1-(7-methoxy-2-oxo-chromen-8-yl)-3-methyl-but-3-enyl] acetate

>  <annotation_level>  (218) 
5

>  <total_atom_count>  (218) 
46

>  <heavy_atom_count>  (218) 
26

>  <molecular_weight>  (218) 
360.36

>  <exact_molecular_weight>  (218) 
360.1209

>  <molecular_formula>  (218) 
C19H20O7

>  <alogp>  (218) 
2.91

>  <topological_polar_surface_area>  (218) 
92.04

>  <rotatable_bond_count>  (218) 
6

>  <hydrogen_bond_acceptors>  (218) 
7

>  <hydrogen_bond_donors>  (218) 
0

>  <hydrogen_bond_acceptors_lipinski>  (218) 
7

>  <hydrogen_bond_donors_lipinski>  (218) 
0

>  <lipinski_rule_of_five_violations>  (218) 
0

>  <aromatic_rings_count>  (218) 
2

>  <qed_drug_likeliness>  (218) 
0.44

>  <formal_charge>  (218) 
0

>  <fractioncsp3>  (218) 
0.32

>  <number_of_minimal_rings>  (218) 
2

>  <van_der_walls_volume>  (218) 
nan

>  <contains_sugar>  (218) 
False

>  <contains_ring_sugars>  (218) 
False

>  <contains_linear_sugars>  (218) 
False

>  <murcko_framework>  (218) 
O1c2ccccc2C=CC1

>  <np_likeness>  (218) 
1.34

>  <chemical_class>  (218) 
Coumarins and derivatives

>  <chemical_sub_class>  (218) 
Coumarins and derivatives

>  <chemical_super_class>  (218) 
Phenylpropanoids and polyketides

>  <direct_parent_classification>  (218) 
Coumarins and derivatives

>  <np_classifier_pathway>  (218) 
Shikimates and Phenylpropanoids

>  <np_classifier_superclass>  (218) 
Coumarins

>  <np_classifier_class>  (218) 
Simple coumarins

>  <np_classifier_is_glycoside>  (218) 
False

>  <organisms>  (218) 
Rauia resinosa

>  <collections>  (218) 
Latin America dataset|NuBBEDB|WikiData Natural Products|ZINC NP

>  <dois>  (218) 
10.1590/S0100-40422010001000024

>  <synonyms>  (218) 
murrangatin diacetate

>  <cas>  (218) 
nan

$$$$

     RDKit          2D

 25 28  0  0  0  0  0  0  0  0999 V2000
   -7.2965    0.8790    0.0000 C   0  0  0  0  0  0  0  0  0  0  0  0
   -6.4673   -0.3709    0.0000 O   0  0  0  0  0  0  0  0  0  0  0  0
   -4.9702   -0.2777    0.0000 C   0  0  0  0  0  0  0  0  0  0  0  0
   -4.3023    1.0654    0.0000 C   0  0  0  0  0  0  0  0  0  0  0  0
   -2.8052    1.1586    0.0000 C   0  0  0  0  0  0  0  0  0  0  0  0
   -1.9760   -0.0914    0.0000 C   0  0  0  0  0  0  0  0  0  0  0  0
   -2.6438   -1.4345    0.0000 C   0  0  0  0  0  0  0  0  0  0  0  0
   -4.1409   -1.5277    0.0000 C   0  0  0  0  0  0  0  0  0  0  0  0
   -4.8088   -2.8708    0.0000 O   0  0  0  0  0  0  0  0  0  0  0  0
   -0.4789    0.0018    0.0000 C   0  0  0  0  0  0  0  0  0  0  0  0
    0.5921   -1.0484    0.0000 O   0  0  0  0  0  0  0  0  0  0  0  0
    1.9219   -0.3544    0.0000 C   0  0  0  0  0  0  0  0  0  0  0  0
    1.6728    1.1248    0.0000 C   0  0  0  0  0  0  0  0  0  0  0  0
    2.8292    2.0801    0.0000 C   0  0  0  0  0  0  0  0  0  0  0  0
    4.2348    1.5563    0.0000 C   0  0  0  0  0  0  0  0  0  0  0  0
    5.3912    2.5117    0.0000 O   0  0  0  0  0  0  0  0  0  0  0  0
    4.4839    0.0772    0.0000 C   0  0  0  0  0  0  0  0  0  0  0  0
    5.8895   -0.4466    0.0000 O   0  0  0  0  0  0  0  0  0  0  0  0
    6.1386   -1.9258    0.0000 C   0  0  0  0  0  0  0  0  0  0  0  0
    3.3275   -0.8782    0.0000 C   0  0  0  0  0  0  0  0  0  0  0  0
    3.5766   -2.3573    0.0000 O   0  0  0  0  0  0  0  0  0  0  0  0
    2.4202   -3.3127    0.0000 C   0  0  0  0  0  0  0  0  0  0  0  0
    0.1890    1.3449    0.0000 C   0  0  0  0  0  0  0  0  0  0  0  0
   -0.6402    2.5949    0.0000 C   0  0  0  0  0  0  0  0  0  0  0  0
   -2.1373    2.5017    0.0000 O   0  0  0  0  0  0  0  0  0  0  0  0
  1  2  1  0
  2  3  1  0
  3  4  2  0
  4  5  1  0
  5  6  2  0
  6  7  1  0
  7  8  2  0
  8  9  1  0
  6 10  1  0
 10 11  1  1
 11 12  1  0
 12 13  2  0
 13 14  1  0
 14 15  2  0
 15 16  1  0
 15 17  1  0
 17 18  1  0
 18 19  1  0
 17 20  2  0
 20 21  1  0
 21 22  1  0
 13 23  1  0
 23 24  1  1
 24 25  1  0
  8  3  1  0
 23 10  1  0
 25  5  1  0
 20 12  1  0
M  END
>  <identifier>  (219) 
CNP0314417.2

>  <canonical_smiles>  (219) 
COC1=CC2=C(C=C1O)[C@@H]1OC3=C(C=C(O)C(OC)=C3OC)[C@@H]1CO2

>  <standard_inchi>  (219) 
InChI=1S/C18H18O7/c1-21-14-6-13-9(5-11(14)19)15-10(7-24-13)8-4-12(20)17(22-2)18(23-3)16(8)25-15/h4-6,10,15,19-20H,7H2,1-3H3/t10-,15-/m0/s1

>  <standard_inchi_key>  (219) 
RJKDCHOJONROOJ-BONVTDFDSA-N

>  <name>  (219) 
nan

>  <iupac_name>  (219) 
(6~{a}~{R},11~{a}~{R})-3,9,10-trimethoxy-6~{a},11~{a}-dihydro-6~{H}-benzofuro[3,2-c]chromene-2,8-diol

>  <annotation_level>  (219) 
4

>  <total_atom_count>  (219) 
43

>  <heavy_atom_count>  (219) 
25

>  <molecular_weight>  (219) 
346.34

>  <exact_molecular_weight>  (219) 
346.10525

>  <molecular_formula>  (219) 
C18H18O7

>  <alogp>  (219) 
2.73

>  <topological_polar_surface_area>  (219) 
86.61

>  <rotatable_bond_count>  (219) 
3

>  <hydrogen_bond_acceptors>  (219) 
7

>  <hydrogen_bond_donors>  (219) 
2

>  <hydrogen_bond_acceptors_lipinski>  (219) 
7

>  <hydrogen_bond_donors_lipinski>  (219) 
2

>  <lipinski_rule_of_five_violations>  (219) 
0

>  <aromatic_rings_count>  (219) 
2

>  <qed_drug_likeliness>  (219) 
0.88

>  <formal_charge>  (219) 
0

>  <fractioncsp3>  (219) 
0.33

>  <number_of_minimal_rings>  (219) 
4

>  <van_der_walls_volume>  (219) 
nan

>  <contains_sugar>  (219) 
False

>  <contains_ring_sugars>  (219) 
False

>  <contains_linear_sugars>  (219) 
False

>  <murcko_framework>  (219) 
O1c2ccccc2C3Oc4ccccc4C3C1

>  <np_likeness>  (219) 
2.22

>  <chemical_class>  (219) 
Isoflavonoids

>  <chemical_sub_class>  (219) 
Furanoisoflavonoids

>  <chemical_super_class>  (219) 
Phenylpropanoids and polyketides

>  <direct_parent_classification>  (219) 
Pterocarpans

>  <np_classifier_pathway>  (219) 
Shikimates and Phenylpropanoids

>  <np_classifier_superclass>  (219) 
Isoflavonoids

>  <np_classifier_class>  (219) 
Pterocarpan

>  <np_classifier_is_glycoside>  (219) 
False

>  <organisms>  (219) 
Swartzia laevicarpa

>  <collections>  (219) 
Latin America dataset|NuBBEDB|Super Natural II|WikiData Natural Products|ZINC NP

>  <dois>  (219) 
10.1016/0031-9422(80)83022-6

>  <synonyms>  (219) 
(6aR11aR)-28-Dihydroxy-3910-trimehtoxypterocarpan

>  <cas>  (219) 
nan

$$$$

     RDKit          2D

 34 37  0  0  0  0  0  0  0  0999 V2000
   10.1086    0.0773    0.0000 C   0  0  0  0  0  0  0  0  0  0  0  0
    9.0712   -1.0061    0.0000 C   0  0  0  0  0  0  0  0  0  0  0  0
    9.4908   -2.4462    0.0000 O   0  0  0  0  0  0  0  0  0  0  0  0
    7.6143   -0.6493    0.0000 O   0  0  0  0  0  0  0  0  0  0  0  0
    6.5768   -1.7328    0.0000 C   0  0  0  0  0  0  0  0  0  0  0  0
    6.9964   -3.1729    0.0000 C   0  0  0  0  0  0  0  0  0  0  0  0
    5.1199   -1.3760    0.0000 C   0  0  0  0  0  0  0  0  0  0  0  0
    4.7003    0.0641    0.0000 C   0  0  0  0  0  0  0  0  0  0  0  0
    3.2434    0.4208    0.0000 C   0  0  0  0  0  0  0  0  0  0  0  0
    2.8238    1.8610    0.0000 C   0  0  0  0  0  0  0  0  0  0  0  0
    3.8612    2.9444    0.0000 C   0  0  0  0  0  0  0  0  0  0  0  0
    1.3669    2.2177    0.0000 C   0  0  0  0  0  0  0  0  0  0  0  0
    0.7991    3.6061    0.0000 C   0  0  0  0  0  0  0  0  0  0  0  0
   -0.6968    3.4951    0.0000 C   0  0  0  0  0  0  0  0  0  0  0  0
   -1.0535    2.0382    0.0000 C   0  0  0  0  0  0  0  0  0  0  0  0
   -2.2395    2.9567    0.0000 C   0  0  0  0  0  0  0  0  0  0  0  0
   -2.3750    1.3284    0.0000 C   0  0  0  0  0  0  0  0  0  0  0  0
   -3.6504    2.1179    0.0000 C   0  0  0  0  0  0  0  0  0  0  0  0
   -4.9718    1.4081    0.0000 C   0  0  0  0  0  0  0  0  0  0  0  0
   -5.0179   -0.0912    0.0000 C   0  0  0  0  0  0  0  0  0  0  0  0
   -6.3393   -0.8010    0.0000 C   0  0  0  0  0  0  0  0  0  0  0  0
   -7.8238   -1.0161    0.0000 C   0  0  0  0  0  0  0  0  0  0  0  0
   -6.8088    0.6236    0.0000 C   0  0  0  0  0  0  0  0  0  0  0  0
   -6.3853   -2.3003    0.0000 C   0  0  0  0  0  0  0  0  0  0  0  0
   -7.7067   -3.0101    0.0000 O   0  0  0  0  0  0  0  0  0  0  0  0
   -5.1099   -3.0898    0.0000 C   0  0  0  0  0  0  0  0  0  0  0  0
   -3.7884   -2.3800    0.0000 C   0  0  0  0  0  0  0  0  0  0  0  0
   -3.7424   -0.8807    0.0000 C   0  0  0  0  0  0  0  0  0  0  0  0
   -2.4670   -1.6702    0.0000 C   0  0  0  0  0  0  0  0  0  0  0  0
   -2.4210   -0.1709    0.0000 C   0  0  0  0  0  0  0  0  0  0  0  0
   -1.1456   -0.9604    0.0000 C   0  0  0  0  0  0  0  0  0  0  0  0
    0.1759   -0.2506    0.0000 C   0  0  0  0  0  0  0  0  0  0  0  0
    0.2219    1.2487    0.0000 C   0  0  0  0  0  0  0  0  0  0  0  0
    1.5728    0.5968    0.0000 C   0  0  0  0  0  0  0  0  0  0  0  0
  1  2  1  0
  2  3  2  0
  2  4  1  0
  4  5  1  0
  5  6  1  0
  5  7  2  3
  7  8  1  0
  8  9  1  0
  9 10  1  0
 10 11  1  1
 10 12  1  0
 12 13  1  1
 13 14  1  0
 14 15  1  0
 15 16  1  1
 15 17  1  0
 17 18  2  0
 18 19  1  0
 20 19  1  6
 20 21  1  0
 21 22  1  0
 21 23  1  0
 21 24  1  0
 24 25  2  0
 24 26  1  0
 26 27  1  0
 27 28  1  0
 28 29  1  6
 28 30  1  0
 30 31  1  6
 31 32  1  0
 32 33  1  0
 33 34  1  1
 33 12  1  0
 33 15  1  0
 30 17  1  0
 28 20  1  0
M  END
>  <identifier>  (220) 
CNP0264119.1

>  <canonical_smiles>  (220) 
CC(=O)OC(C)=CCC[C@H](C)[C@@H]1CC[C@@]2(C)C3=CC[C@H]4C(C)(C)C(=O)CC[C@]4(C)[C@H]3CC[C@@]12C

>  <standard_inchi>  (220) 
InChI=1S/C31H48O3/c1-20(10-9-11-21(2)34-22(3)32)23-14-18-31(8)25-12-13-26-28(4,5)27(33)16-17-29(26,6)24(25)15-19-30(23,31)7/h11-12,20,23-24,26H,9-10,13-19H2,1-8H3/t20-,23-,24-,26-,29+,30-,31-/m0/s1

>  <standard_inchi_key>  (220) 
CPCFBZYFZIZZCJ-GXIMCWPGSA-N

>  <name>  (220) 
nan

>  <iupac_name>  (220) 
[(5~{S})-1-methyl-5-[(5~{R},9~{R},10~{R},13~{S},14~{R},17~{S})-4,4,10,13,14-pentamethyl-3-oxo-1,2,5,6,9,11,12,15,16,17-decahydrocyclopenta[a]phenanthren-17-yl]hex-1-enyl] acetate

>  <annotation_level>  (220) 
4

>  <total_atom_count>  (220) 
82

>  <heavy_atom_count>  (220) 
34

>  <molecular_weight>  (220) 
468.72

>  <exact_molecular_weight>  (220) 
468.36035

>  <molecular_formula>  (220) 
C31H48O3

>  <alogp>  (220) 
8.04

>  <topological_polar_surface_area>  (220) 
43.37

>  <rotatable_bond_count>  (220) 
5

>  <hydrogen_bond_acceptors>  (220) 
3

>  <hydrogen_bond_donors>  (220) 
0

>  <hydrogen_bond_acceptors_lipinski>  (220) 
3

>  <hydrogen_bond_donors_lipinski>  (220) 
0

>  <lipinski_rule_of_five_violations>  (220) 
1

>  <aromatic_rings_count>  (220) 
0

>  <qed_drug_likeliness>  (220) 
0.23

>  <formal_charge>  (220) 
0

>  <fractioncsp3>  (220) 
0.81

>  <number_of_minimal_rings>  (220) 
4

>  <van_der_walls_volume>  (220) 
nan

>  <contains_sugar>  (220) 
False

>  <contains_ring_sugars>  (220) 
False

>  <contains_linear_sugars>  (220) 
False

>  <murcko_framework>  (220) 
C1=C2C3CCCC3CCC2C4CCCCC4C1

>  <np_likeness>  (220) 
3.23

>  <chemical_class>  (220) 
Steroids and steroid derivatives

>  <chemical_sub_class>  (220) 
Cholestane steroids

>  <chemical_super_class>  (220) 
Lipids and lipid-like molecules

>  <direct_parent_classification>  (220) 
Cholesterols and derivatives

>  <np_classifier_pathway>  (220) 
Terpenoids

>  <np_classifier_superclass>  (220) 
Triterpenoids

>  <np_classifier_class>  (220) 
Lanostane, Tirucallane and Euphane triterpenoids

>  <np_classifier_is_glycoside>  (220) 
False

>  <organisms>  (220) 
Schinus terebinthifolius

>  <collections>  (220) 
Latin America dataset|NuBBEDB

>  <dois>  (220) 
10.1002/cbdv.201400065

>  <synonyms>  (220) 
Masticadienoic acid methyl ester derivative

>  <cas>  (220) 
nan

$$$$

     RDKit          2D

 21 21  0  0  0  0  0  0  0  0999 V2000
  -10.7803    0.9865    0.0000 C   0  0  0  0  0  0  0  0  0  0  0  0
   -9.5522    0.1253    0.0000 C   0  0  0  0  0  0  0  0  0  0  0  0
   -9.6840   -1.3689    0.0000 O   0  0  0  0  0  0  0  0  0  0  0  0
   -8.1923    0.7583    0.0000 C   0  0  0  0  0  0  0  0  0  0  0  0
   -6.9642   -0.1029    0.0000 C   0  0  0  0  0  0  0  0  0  0  0  0
   -5.6043    0.5301    0.0000 C   0  0  0  0  0  0  0  0  0  0  0  0
   -4.3761   -0.3311    0.0000 C   0  0  0  0  0  0  0  0  0  0  0  0
   -3.0162    0.3018    0.0000 C   0  0  0  0  0  0  0  0  0  0  0  0
   -1.7881   -0.5594    0.0000 C   0  0  0  0  0  0  0  0  0  0  0  0
   -0.4282    0.0736    0.0000 C   0  0  0  0  0  0  0  0  0  0  0  0
    0.7999   -0.7876    0.0000 C   0  0  0  0  0  0  0  0  0  0  0  0
    2.1598   -0.1546    0.0000 C   0  0  0  0  0  0  0  0  0  0  0  0
    3.3880   -1.0158    0.0000 C   0  0  0  0  0  0  0  0  0  0  0  0
    4.7479   -0.3829    0.0000 C   0  0  0  0  0  0  0  0  0  0  0  0
    4.8796    1.1113    0.0000 C   0  0  0  0  0  0  0  0  0  0  0  0
    6.2395    1.7443    0.0000 C   0  0  0  0  0  0  0  0  0  0  0  0
    7.4677    0.8831    0.0000 C   0  0  0  0  0  0  0  0  0  0  0  0
    8.8276    1.5161    0.0000 O   0  0  0  0  0  0  0  0  0  0  0  0
    7.3359   -0.6111    0.0000 C   0  0  0  0  0  0  0  0  0  0  0  0
    8.5640   -1.4723    0.0000 C   0  0  0  0  0  0  0  0  0  0  0  0
    5.9760   -1.2441    0.0000 N   0  0  0  0  0  0  0  0  0  0  0  0
  1  2  1  0
  2  3  1  0
  2  4  1  0
  4  5  1  0
  5  6  1  0
  6  7  1  0
  7  8  1  0
  8  9  1  0
  9 10  1  0
 10 11  1  0
 11 12  1  0
 12 13  1  0
 14 13  1  6
 14 15  1  0
 15 16  1  0
 16 17  1  0
 17 18  1  1
 17 19  1  0
 19 20  1  1
 19 21  1  0
 21 14  1  0
M  END
>  <identifier>  (221) 
CNP0259507.1

>  <canonical_smiles>  (221) 
CC(O)CCCCCCCCCC[C@@H]1CC[C@@H](O)[C@@H](C)N1

>  <standard_inchi>  (221) 
InChI=1S/C18H37NO2/c1-15(20)11-9-7-5-3-4-6-8-10-12-17-13-14-18(21)16(2)19-17/h15-21H,3-14H2,1-2H3/t15?,16-,17-,18-/m1/s1

>  <standard_inchi_key>  (221) 
LWYXLXAMDLNBFQ-QSLYMNIHSA-N

>  <name>  (221) 
nan

>  <iupac_name>  (221) 
(2~{R},3~{R},6~{R})-6-(11-hydroxydodecyl)-2-methyl-piperidin-3-ol

>  <annotation_level>  (221) 
4

>  <total_atom_count>  (221) 
58

>  <heavy_atom_count>  (221) 
21

>  <molecular_weight>  (221) 
299.5

>  <exact_molecular_weight>  (221) 
299.28243

>  <molecular_formula>  (221) 
C18H37NO2

>  <alogp>  (221) 
3.77

>  <topological_polar_surface_area>  (221) 
52.49

>  <rotatable_bond_count>  (221) 
11

>  <hydrogen_bond_acceptors>  (221) 
3

>  <hydrogen_bond_donors>  (221) 
3

>  <hydrogen_bond_acceptors_lipinski>  (221) 
3

>  <hydrogen_bond_donors_lipinski>  (221) 
3

>  <lipinski_rule_of_five_violations>  (221) 
0

>  <aromatic_rings_count>  (221) 
0

>  <qed_drug_likeliness>  (221) 
0.51

>  <formal_charge>  (221) 
0

>  <fractioncsp3>  (221) 
1.00

>  <number_of_minimal_rings>  (221) 
1

>  <van_der_walls_volume>  (221) 
nan

>  <contains_sugar>  (221) 
False

>  <contains_ring_sugars>  (221) 
False

>  <contains_linear_sugars>  (221) 
False

>  <murcko_framework>  (221) 
N1CCCCC1

>  <np_likeness>  (221) 
2.17

>  <chemical_class>  (221) 
nan

>  <chemical_sub_class>  (221) 
Alkaloids and derivatives

>  <chemical_super_class>  (221) 
Alkaloids and derivatives

>  <direct_parent_classification>  (221) 
Alkaloids and derivatives

>  <np_classifier_pathway>  (221) 
Alkaloids

>  <np_classifier_superclass>  (221) 
Lysine alkaloids

>  <np_classifier_class>  (221) 
Piperidine alkaloids

>  <np_classifier_is_glycoside>  (221) 
False

>  <organisms>  (221) 
Cassia leptophylla

>  <collections>  (221) 
Latin America dataset|NuBBEDB

>  <dois>  (221) 
10.1016/0040-4020(95)00254-6

>  <synonyms>  (221) 
Iso-6-canavaline

>  <cas>  (221) 
nan

$$$$

     RDKit          2D

 37 42  0  0  0  0  0  0  0  0999 V2000
   -4.3275   -4.2459    0.0000 C   0  0  0  0  0  0  0  0  0  0  0  0
   -3.2467   -3.2058    0.0000 C   0  0  0  0  0  0  0  0  0  0  0  0
   -1.8055   -3.6218    0.0000 O   0  0  0  0  0  0  0  0  0  0  0  0
   -3.6071   -1.7497    0.0000 O   0  0  0  0  0  0  0  0  0  0  0  0
   -2.5262   -0.7096    0.0000 C   0  0  0  0  0  0  0  0  0  0  0  0
   -1.0851   -1.1256    0.0000 C   0  0  0  0  0  0  0  0  0  0  0  0
   -0.7247   -2.5816    0.0000 O   0  0  0  0  0  0  0  0  0  0  0  0
    0.7165   -2.9976    0.0000 C   0  0  0  0  0  0  0  0  0  0  0  0
    1.6644   -2.4525    0.0000 C   0  0  0  0  0  0  0  0  0  0  0  0
    1.0768   -4.4537    0.0000 O   0  0  0  0  0  0  0  0  0  0  0  0
   -0.0043   -0.0854    0.0000 C   0  0  0  0  0  0  0  0  0  0  0  0
   -1.4454    0.3305    0.0000 C   0  0  0  0  0  0  0  0  0  0  0  0
   -0.3646    1.3706    0.0000 C   0  0  0  0  0  0  0  0  0  0  0  0
    0.7162    2.4107    0.0000 C   0  0  0  0  0  0  0  0  0  0  0  0
    2.1574    1.9948    0.0000 C   0  0  0  0  0  0  0  0  0  0  0  0
    2.5177    0.5387    0.0000 C   0  0  0  0  0  0  0  0  0  0  0  0
    3.7013    1.4602    0.0000 C   0  0  0  0  0  0  0  0  0  0  0  0
    3.8409   -0.1678    0.0000 C   0  0  0  0  0  0  0  0  0  0  0  0
    5.1903    0.4874    0.0000 C   0  0  0  0  0  0  0  0  0  0  0  0
    5.4533    1.9642    0.0000 C   0  0  0  0  0  0  0  0  0  0  0  0
    6.9390    2.1704    0.0000 O   0  0  0  0  0  0  0  0  0  0  0  0
    7.5943    0.8211    0.0000 C   0  0  0  0  0  0  0  0  0  0  0  0
    6.5135   -0.2191    0.0000 C   0  0  0  0  0  0  0  0  0  0  0  0
    3.5779   -1.6445    0.0000 C   0  0  0  0  0  0  0  0  0  0  0  0
    2.0921   -1.8507    0.0000 C   0  0  0  0  0  0  0  0  0  0  0  0
    0.5960   -1.7435    0.0000 O   0  0  0  0  0  0  0  0  0  0  0  0
    1.4369   -0.5014    0.0000 C   0  0  0  0  0  0  0  0  0  0  0  0
   -1.8058    1.7866    0.0000 C   0  0  0  0  0  0  0  0  0  0  0  0
   -0.7250    2.8267    0.0000 C   0  0  0  0  0  0  0  0  0  0  0  0
   -2.1662    3.2426    0.0000 C   0  0  0  0  0  0  0  0  0  0  0  0
   -3.6073    3.6586    0.0000 C   0  0  0  0  0  0  0  0  0  0  0  0
   -4.6881    2.6185    0.0000 C   0  0  0  0  0  0  0  0  0  0  0  0
   -6.1293    3.0344    0.0000 O   0  0  0  0  0  0  0  0  0  0  0  0
   -4.3278    1.1624    0.0000 C   0  0  0  0  0  0  0  0  0  0  0  0
   -4.4872   -0.3291    0.0000 C   0  0  0  0  0  0  0  0  0  0  0  0
   -5.8243    1.0604    0.0000 C   0  0  0  0  0  0  0  0  0  0  0  0
   -2.8866    0.7465    0.0000 C   0  0  0  0  0  0  0  0  0  0  0  0
  1  2  1  0
  2  3  2  0
  2  4  1  0
  5  4  1  6
  5  6  1  0
  6  7  1  6
  7  8  1  0
  8  9  1  0
  8 10  2  0
  6 11  1  0
 11 12  1  1
 11 13  1  0
 13 14  1  1
 14 15  1  0
 15 16  1  0
 16 17  1  6
 16 18  1  0
 18 19  1  6
 19 20  2  0
 20 21  1  0
 21 22  1  0
 22 23  2  0
 18 24  1  0
 25 24  1  1
 25 26  1  0
 27 26  1  1
 13 28  1  0
 28 29  1  1
 28 30  1  0
 30 31  2  0
 31 32  1  0
 32 33  2  0
 32 34  1  0
 34 35  1  0
 34 36  1  0
 37 34  1  1
 37  5  1  0
 27 11  1  0
 37 28  1  0
 27 16  1  0
 23 19  1  0
 27 25  1  0
M  END
>  <identifier>  (222) 
CNP0233371.1

>  <canonical_smiles>  (222) 
CC(=O)O[C@H]1[C@@H](OC(C)=O)[C@]2(C)[C@H](CC[C@@]3(C)[C@H](C4=COC=C4)C[C@H]4O[C@@]423)[C@@]2(C)C=CC(=O)C(C)(C)[C@H]12

>  <standard_inchi>  (222) 
InChI=1S/C30H38O7/c1-16(31)35-23-24-26(3,4)21(33)9-11-27(24,5)20-8-12-28(6)19(18-10-13-34-15-18)14-22-30(28,37-22)29(20,7)25(23)36-17(2)32/h9-11,13,15,19-20,22-25H,8,12,14H2,1-7H3/t19-,20+,22+,23+,24-,25+,27+,28-,29-,30+/m0/s1

>  <standard_inchi_key>  (222) 
YRWFEWXMUWMULD-FUBQEATASA-N

>  <name>  (222) 
nan

>  <iupac_name>  (222) 
[(1~{S},2~{R},4~{R},6~{S},7~{S},10~{R},11~{R},16~{R},17~{R},18~{S})-18-acetoxy-6-(3-furyl)-1,7,11,15,15-pentamethyl-14-oxo-3-oxapentacyclo[8.8.0.0^{2,4}.0^{2,7}.0^{11,16}]octadec-12-en-17-yl] acetate

>  <annotation_level>  (222) 
4

>  <total_atom_count>  (222) 
75

>  <heavy_atom_count>  (222) 
37

>  <molecular_weight>  (222) 
510.63

>  <exact_molecular_weight>  (222) 
510.26175

>  <molecular_formula>  (222) 
C30H38O7

>  <alogp>  (222) 
4.99

>  <topological_polar_surface_area>  (222) 
95.34

>  <rotatable_bond_count>  (222) 
3

>  <hydrogen_bond_acceptors>  (222) 
7

>  <hydrogen_bond_donors>  (222) 
0

>  <hydrogen_bond_acceptors_lipinski>  (222) 
7

>  <hydrogen_bond_donors_lipinski>  (222) 
0

>  <lipinski_rule_of_five_violations>  (222) 
1

>  <aromatic_rings_count>  (222) 
1

>  <qed_drug_likeliness>  (222) 
0.42

>  <formal_charge>  (222) 
0

>  <fractioncsp3>  (222) 
0.70

>  <number_of_minimal_rings>  (222) 
6

>  <van_der_walls_volume>  (222) 
nan

>  <contains_sugar>  (222) 
False

>  <contains_ring_sugars>  (222) 
False

>  <contains_linear_sugars>  (222) 
False

>  <murcko_framework>  (222) 
o1ccc(c1)C2CC3OC34C2CCC5C6C=CCCC6CCC54

>  <np_likeness>  (222) 
3.39

>  <chemical_class>  (222) 
Prenol lipids

>  <chemical_sub_class>  (222) 
Triterpenoids

>  <chemical_super_class>  (222) 
Lipids and lipid-like molecules

>  <direct_parent_classification>  (222) 
Limonoids

>  <np_classifier_pathway>  (222) 
Terpenoids

>  <np_classifier_superclass>  (222) 
Triterpenoids

>  <np_classifier_class>  (222) 
Limonoids

>  <np_classifier_is_glycoside>  (222) 
False

>  <organisms>  (222) 
Cedrela odorata|Entandrophragma delevoyi|Toona ciliata

>  <collections>  (222) 
Latin America dataset|NuBBEDB|Super Natural II|WikiData Natural Products

>  <dois>  (222) 
10.1002/HLCA.201100325|10.1016/0031-9422(94)00568-E|10.1016/S0031-9422(00)90423-0|10.2174/187152010794728620

>  <synonyms>  (222) 
6\u221a\u00e9\u00ac\u00b1-acetoxy-14\u221a\u00e9\u00ac\u226415\u221a\u00e9\u00ac\u2264-epoxyazadirone

>  <cas>  (222) 
nan

$$$$

     RDKit          2D

 40 41  0  0  0  0  0  0  0  0999 V2000
   -1.9127   -1.9523    0.0000 C   0  0  0  0  0  0  0  0  0  0  0  0
   -3.2997   -1.3810    0.0000 C   0  0  0  0  0  0  0  0  0  0  0  0
   -4.4879   -2.2966    0.0000 C   0  0  0  0  0  0  0  0  0  0  0  0
   -3.4984    0.1057    0.0000 C   0  0  0  0  0  0  0  0  0  0  0  0
   -4.8854    0.6770    0.0000 C   0  0  0  0  0  0  0  0  0  0  0  0
   -6.0736   -0.2385    0.0000 C   0  0  0  0  0  0  0  0  0  0  0  0
   -7.4606    0.3327    0.0000 C   0  0  0  0  0  0  0  0  0  0  0  0
   -8.6488   -0.5828    0.0000 C   0  0  0  0  0  0  0  0  0  0  0  0
   -7.6593    1.8195    0.0000 C   0  0  0  0  0  0  0  0  0  0  0  0
   -2.3102    1.0212    0.0000 C   0  0  0  0  0  0  0  0  0  0  0  0
   -0.9233    0.4500    0.0000 C   0  0  0  0  0  0  0  0  0  0  0  0
   -1.7267   -0.8167    0.0000 C   0  0  0  0  0  0  0  0  0  0  0  0
   -1.0314   -2.1458    0.0000 C   0  0  0  0  0  0  0  0  0  0  0  0
   -1.8348   -3.4125    0.0000 C   0  0  0  0  0  0  0  0  0  0  0  0
   -1.1396   -4.7417    0.0000 C   0  0  0  0  0  0  0  0  0  0  0  0
   -3.3335   -3.3501    0.0000 C   0  0  0  0  0  0  0  0  0  0  0  0
    0.1847   -0.5612    0.0000 C   0  0  0  0  0  0  0  0  0  0  0  0
   -0.1371   -2.0263    0.0000 O   0  0  0  0  0  0  0  0  0  0  0  0
    1.6143   -0.1073    0.0000 C   0  0  0  0  0  0  0  0  0  0  0  0
    2.7223   -1.1185    0.0000 C   0  0  0  0  0  0  0  0  0  0  0  0
    2.4005   -2.5836    0.0000 C   0  0  0  0  0  0  0  0  0  0  0  0
    3.5085   -3.5947    0.0000 C   0  0  0  0  0  0  0  0  0  0  0  0
    3.1867   -5.0598    0.0000 C   0  0  0  0  0  0  0  0  0  0  0  0
    4.1520   -0.6646    0.0000 C   0  0  0  0  0  0  0  0  0  0  0  0
    5.2599   -1.6757    0.0000 C   0  0  0  0  0  0  0  0  0  0  0  0
    4.9381   -3.1408    0.0000 O   0  0  0  0  0  0  0  0  0  0  0  0
    6.6896   -1.2218    0.0000 O   0  0  0  0  0  0  0  0  0  0  0  0
    7.7975   -2.2330    0.0000 C   0  0  0  0  0  0  0  0  0  0  0  0
    1.9361    1.3578    0.0000 C   0  0  0  0  0  0  0  0  0  0  0  0
    3.3658    1.8117    0.0000 O   0  0  0  0  0  0  0  0  0  0  0  0
    3.6875    3.2768    0.0000 C   0  0  0  0  0  0  0  0  0  0  0  0
    5.1172    3.7307    0.0000 C   0  0  0  0  0  0  0  0  0  0  0  0
    2.5796    4.2880    0.0000 C   0  0  0  0  0  0  0  0  0  0  0  0
    2.9013    5.7531    0.0000 C   0  0  0  0  0  0  0  0  0  0  0  0
    1.1499    3.8341    0.0000 C   0  0  0  0  0  0  0  0  0  0  0  0
    0.0420    4.8452    0.0000 O   0  0  0  0  0  0  0  0  0  0  0  0
    0.8282    2.3690    0.0000 C   0  0  0  0  0  0  0  0  0  0  0  0
   -0.6015    1.9151    0.0000 C   0  0  0  0  0  0  0  0  0  0  0  0
   -1.7095    2.9263    0.0000 O   0  0  0  0  0  0  0  0  0  0  0  0
   -1.3877    4.3913    0.0000 C   0  0  0  0  0  0  0  0  0  0  0  0
  1  2  2  0
  2  3  1  0
  2  4  1  0
  4  5  1  0
  5  6  1  0
  6  7  2  0
  7  8  1  0
  7  9  1  0
  4 10  1  0
 10 11  1  0
 11 12  1  0
 12 13  1  0
 13 14  2  0
 14 15  1  0
 14 16  1  0
 11 17  1  0
 17 18  2  0
 17 19  1  0
 19 20  1  0
 20 21  1  0
 21 22  1  0
 22 23  1  0
 20 24  1  0
 24 25  1  0
 25 26  2  0
 25 27  1  0
 27 28  1  0
 19 29  2  0
 29 30  1  0
 30 31  1  0
 31 32  1  1
 31 33  1  0
 33 34  1  6
 33 35  1  0
 35 36  2  0
 35 37  1  0
 37 38  2  0
 38 39  1  0
 39 40  1  0
 38 11  1  0
 37 29  1  0
M  END
>  <identifier>  (223) 
CNP0080365.1

>  <canonical_smiles>  (223) 
C=C(C)C(CC=C(C)C)CC1(CC=C(C)C)C(=O)C(C(CCC)CC(=O)OC)=C2O[C@H](C)[C@@H](C)C(=O)C2=C1OC

>  <standard_inchi>  (223) 
InChI=1S/C34H50O6/c1-12-13-25(18-27(35)38-10)28-31-29(30(36)23(8)24(9)40-31)33(39-11)34(32(28)37,17-16-21(4)5)19-26(22(6)7)15-14-20(2)3/h14,16,23-26H,6,12-13,15,17-19H2,1-5,7-11H3/t23-,24-,25?,26?,34?/m1/s1

>  <standard_inchi_key>  (223) 
WOSAXPSFRBEFRQ-ORZQDWANSA-N

>  <name>  (223) 
nan

>  <iupac_name>  (223) 
methyl 3-[(2~{R},3~{R})-6-(2-isopropenyl-5-methyl-hex-4-enyl)-5-methoxy-2,3-dimethyl-6-(3-methylbut-2-enyl)-4,7-dioxo-2,3-dihydrochromen-8-yl]hexanoate

>  <annotation_level>  (223) 
4

>  <total_atom_count>  (223) 
90

>  <heavy_atom_count>  (223) 
40

>  <molecular_weight>  (223) 
554.77

>  <exact_molecular_weight>  (223) 
554.36074

>  <molecular_formula>  (223) 
C34H50O6

>  <alogp>  (223) 
7.61

>  <topological_polar_surface_area>  (223) 
78.90

>  <rotatable_bond_count>  (223) 
13

>  <hydrogen_bond_acceptors>  (223) 
6

>  <hydrogen_bond_donors>  (223) 
0

>  <hydrogen_bond_acceptors_lipinski>  (223) 
6

>  <hydrogen_bond_donors_lipinski>  (223) 
0

>  <lipinski_rule_of_five_violations>  (223) 
2

>  <aromatic_rings_count>  (223) 
0

>  <qed_drug_likeliness>  (223) 
0.17

>  <formal_charge>  (223) 
0

>  <fractioncsp3>  (223) 
0.62

>  <number_of_minimal_rings>  (223) 
2

>  <van_der_walls_volume>  (223) 
nan

>  <contains_sugar>  (223) 
False

>  <contains_ring_sugars>  (223) 
False

>  <contains_linear_sugars>  (223) 
False

>  <murcko_framework>  (223) 
O1C2=CCCC=C2CCC1

>  <np_likeness>  (223) 
2.29

>  <chemical_class>  (223) 
Prenol lipids

>  <chemical_sub_class>  (223) 
Monoterpenoids

>  <chemical_super_class>  (223) 
Lipids and lipid-like molecules

>  <direct_parent_classification>  (223) 
Bicyclic monoterpenoids

>  <np_classifier_pathway>  (223) 
Polyketides

>  <np_classifier_superclass>  (223) 
Meroterpenoids

>  <np_classifier_class>  (223) 
Polyprenylated cyclic polyketides (Hop meroterpenoids)

>  <np_classifier_is_glycoside>  (223) 
False

>  <organisms>  (223) 
Calophyllum brasiliense

>  <collections>  (223) 
Latin America dataset|NuBBEDB|WikiData Natural Products

>  <dois>  (223) 
10.1080/14786410701582282

>  <synonyms>  (223) 
6-O-methyl isobrasiliensic acid methyl ester

>  <cas>  (223) 
nan

$$$$

     RDKit          2D

 38 40  0  0  0  0  0  0  0  0999 V2000
    8.1605    1.5747    0.0000 C   0  0  0  0  0  0  0  0  0  0  0  0
    6.7478    1.0706    0.0000 C   0  0  0  0  0  0  0  0  0  0  0  0
    6.4781   -0.4050    0.0000 C   0  0  0  0  0  0  0  0  0  0  0  0
    7.6211   -1.3764    0.0000 C   0  0  0  0  0  0  0  0  0  0  0  0
    5.0653   -0.9092    0.0000 C   0  0  0  0  0  0  0  0  0  0  0  0
    3.9223    0.0622    0.0000 C   0  0  0  0  0  0  0  0  0  0  0  0
    2.5096   -0.4420    0.0000 C   0  0  0  0  0  0  0  0  0  0  0  0
    3.2514   -1.7457    0.0000 C   0  0  0  0  0  0  0  0  0  0  0  0
    2.2584    1.0368    0.0000 C   0  0  0  0  0  0  0  0  0  0  0  0
    3.4135    1.9938    0.0000 C   0  0  0  0  0  0  0  0  0  0  0  0
    0.8521    1.5587    0.0000 C   0  0  0  0  0  0  0  0  0  0  0  0
    0.6009    3.0375    0.0000 O   0  0  0  0  0  0  0  0  0  0  0  0
   -0.3030    0.6017    0.0000 C   0  0  0  0  0  0  0  0  0  0  0  0
   -1.7093    1.1235    0.0000 O   0  0  0  0  0  0  0  0  0  0  0  0
   -1.9605    2.6024    0.0000 C   0  0  0  0  0  0  0  0  0  0  0  0
   -3.3668    3.1242    0.0000 C   0  0  0  0  0  0  0  0  0  0  0  0
   -1.0713    3.8104    0.0000 O   0  0  0  0  0  0  0  0  0  0  0  0
   -0.0518   -0.8771    0.0000 C   0  0  0  0  0  0  0  0  0  0  0  0
   -1.2069   -1.8341    0.0000 C   0  0  0  0  0  0  0  0  0  0  0  0
   -0.9557   -3.3129    0.0000 C   0  0  0  0  0  0  0  0  0  0  0  0
    0.4506   -3.8348    0.0000 C   0  0  0  0  0  0  0  0  0  0  0  0
    0.7018   -5.3136    0.0000 O   0  0  0  0  0  0  0  0  0  0  0  0
   -0.4532   -6.2705    0.0000 C   0  0  0  0  0  0  0  0  0  0  0  0
    1.6057   -2.8778    0.0000 C   0  0  0  0  0  0  0  0  0  0  0  0
    1.3545   -1.3990    0.0000 C   0  0  0  0  0  0  0  0  0  0  0  0
   -2.4739   -1.0312    0.0000 C   0  0  0  0  0  0  0  0  0  0  0  0
   -3.8682   -1.5844    0.0000 O   0  0  0  0  0  0  0  0  0  0  0  0
   -5.0444   -0.6535    0.0000 C   0  0  0  0  0  0  0  0  0  0  0  0
   -4.8263    0.8305    0.0000 O   0  0  0  0  0  0  0  0  0  0  0  0
   -6.4387   -1.2067    0.0000 C   0  0  0  0  0  0  0  0  0  0  0  0
   -7.6149   -0.2759    0.0000 C   0  0  0  0  0  0  0  0  0  0  0  0
   -9.0092   -0.8290    0.0000 C   0  0  0  0  0  0  0  0  0  0  0  0
   -2.1019    0.4219    0.0000 O   0  0  0  0  0  0  0  0  0  0  0  0
   -0.6050    0.5171    0.0000 C   0  0  0  0  0  0  0  0  0  0  0  0
    0.1979    1.7842    0.0000 O   0  0  0  0  0  0  0  0  0  0  0  0
   -0.4980    3.1130    0.0000 C   0  0  0  0  0  0  0  0  0  0  0  0
    0.3048    4.3801    0.0000 C   0  0  0  0  0  0  0  0  0  0  0  0
   -1.9373    3.5356    0.0000 O   0  0  0  0  0  0  0  0  0  0  0  0
  1  2  2  0
  2  3  1  0
  3  4  1  0
  3  5  2  0
  5  6  1  0
  6  7  1  0
  7  8  1  6
  7  9  1  0
  9 10  1  1
  9 11  1  0
 11 12  1  6
 11 13  1  0
 13 14  1  1
 14 15  1  0
 15 16  1  0
 15 17  2  0
 13 18  1  0
 18 19  1  6
 19 20  2  0
 20 21  1  0
 21 22  1  1
 22 23  1  0
 21 24  1  0
 25 24  1  6
 19 26  1  0
 26 27  1  1
 27 28  1  0
 28 29  2  0
 28 30  1  0
 30 31  1  0
 31 32  1  0
 26 33  1  0
 33 34  1  0
 34 35  1  1
 35 36  1  0
 36 37  1  0
 36 38  2  0
 25  7  1  0
 25 18  1  0
 34 18  1  0
M  END
>  <identifier>  (224) 
CNP0306727.1

>  <canonical_smiles>  (224) 
C=C/C(C)=C\C[C@]1(C)[C@H](C)[C@@H](O)[C@H](OC(C)=O)[C@@]23C(=C[C@H](OC)C[C@@H]12)[C@@H](OC(=O)CCC)O[C@H]3OC(C)=O

>  <standard_inchi>  (224) 
InChI=1S/C29H42O9/c1-9-11-23(32)37-26-21-14-20(34-8)15-22-28(7,13-12-16(3)10-2)17(4)24(33)25(35-18(5)30)29(21,22)27(38-26)36-19(6)31/h10,12,14,17,20,22,24-27,33H,2,9,11,13,15H2,1,3-8H3/b16-12-/t17-,20+,22+,24-,25+,26+,27-,28-,29-/m1/s1

>  <standard_inchi_key>  (224) 
SLPUISRFGANXBA-RVLVUDRFSA-N

>  <name>  (224) 
nan

>  <iupac_name>  (224) 
[(1~{S},3~{R},5~{R},6~{a}~{S},7~{S},8~{S},9~{R},10~{R},10~{a}~{S})-1,10-diacetoxy-9-hydroxy-5-methoxy-7,8-dimethyl-7-[(2~{Z})-3-methylpenta-2,4-dienyl]-1,3,5,6,6~{a},8,9,10-octahydrobenzo[d]isobenzofuran-3-yl] butanoate

>  <annotation_level>  (224) 
5

>  <total_atom_count>  (224) 
80

>  <heavy_atom_count>  (224) 
38

>  <molecular_weight>  (224) 
534.65

>  <exact_molecular_weight>  (224) 
534.28288

>  <molecular_formula>  (224) 
C29H42O9

>  <alogp>  (224) 
3.99

>  <topological_polar_surface_area>  (224) 
117.59

>  <rotatable_bond_count>  (224) 
9

>  <hydrogen_bond_acceptors>  (224) 
9

>  <hydrogen_bond_donors>  (224) 
1

>  <hydrogen_bond_acceptors_lipinski>  (224) 
9

>  <hydrogen_bond_donors_lipinski>  (224) 
1

>  <lipinski_rule_of_five_violations>  (224) 
1

>  <aromatic_rings_count>  (224) 
0

>  <qed_drug_likeliness>  (224) 
0.20

>  <formal_charge>  (224) 
0

>  <fractioncsp3>  (224) 
0.69

>  <number_of_minimal_rings>  (224) 
3

>  <van_der_walls_volume>  (224) 
497.88

>  <contains_sugar>  (224) 
False

>  <contains_ring_sugars>  (224) 
False

>  <contains_linear_sugars>  (224) 
False

>  <murcko_framework>  (224) 
O1CC2=CCCC3CCCCC23C1

>  <np_likeness>  (224) 
3.38

>  <chemical_class>  (224) 
Prenol lipids

>  <chemical_sub_class>  (224) 
Diterpenoids

>  <chemical_super_class>  (224) 
Lipids and lipid-like molecules

>  <direct_parent_classification>  (224) 
Colensane and clerodane diterpenoids

>  <np_classifier_pathway>  (224) 
Terpenoids

>  <np_classifier_superclass>  (224) 
Diterpenoids

>  <np_classifier_class>  (224) 
Colensane and Clerodane diterpenoids

>  <np_classifier_is_glycoside>  (224) 
True

>  <organisms>  (224) 
Casearia sylvestris

>  <collections>  (224) 
ChemSpider NPs|Latin America dataset|NuBBEDB|Super Natural II|WikiData Natural Products|ZINC NP

>  <dois>  (224) 
10.1002/cbdv.200800342|10.1016/J.CBI.2010.08.008

>  <synonyms>  (224) 
Casearin L, (1R*3S*5S*6aR*7R*8R*9S*10S*10aR*)-110-Bis(acetyloxy)-3566a78910-octahydro-9-hydroxy-5-methoxy-78-dimethyl-7-[(2Z)-3-methylpenta-24-dien-1-yl]naphtho[18a-c]-furan-3-yl Butanoate

>  <cas>  (224) 
nan

$$$$

     RDKit          2D

 19 20  0  0  0  0  0  0  0  0999 V2000
   -3.6042   -2.5809    0.0000 C   0  0  0  0  0  0  0  0  0  0  0  0
   -2.7738   -1.3318    0.0000 O   0  0  0  0  0  0  0  0  0  0  0  0
   -1.2767   -1.4264    0.0000 C   0  0  0  0  0  0  0  0  0  0  0  0
   -0.6102   -2.7702    0.0000 C   0  0  0  0  0  0  0  0  0  0  0  0
    0.8868   -2.8648    0.0000 C   0  0  0  0  0  0  0  0  0  0  0  0
    1.7173   -1.6157    0.0000 C   0  0  0  0  0  0  0  0  0  0  0  0
    3.2143   -1.7103    0.0000 C   0  0  0  0  0  0  0  0  0  0  0  0
    4.0448   -0.4612    0.0000 C   0  0  0  0  0  0  0  0  0  0  0  0
    3.3782    0.8826    0.0000 C   0  0  0  0  0  0  0  0  0  0  0  0
    4.2087    2.1317    0.0000 O   0  0  0  0  0  0  0  0  0  0  0  0
    1.8812    0.9772    0.0000 O   0  0  0  0  0  0  0  0  0  0  0  0
    1.0507   -0.2719    0.0000 C   0  0  0  0  0  0  0  0  0  0  0  0
   -0.4463   -0.1773    0.0000 C   0  0  0  0  0  0  0  0  0  0  0  0
   -1.1128    1.1665    0.0000 C   0  0  0  0  0  0  0  0  0  0  0  0
   -0.2824    2.4156    0.0000 C   0  0  0  0  0  0  0  0  0  0  0  0
   -0.9489    3.7594    0.0000 O   0  0  0  0  0  0  0  0  0  0  0  0
   -2.6098    1.2611    0.0000 C   0  0  0  0  0  0  0  0  0  0  0  0
   -3.2764    2.6049    0.0000 C   0  0  0  0  0  0  0  0  0  0  0  0
   -3.4403    0.0120    0.0000 C   0  0  0  0  0  0  0  0  0  0  0  0
  1  2  1  0
  2  3  1  0
  3  4  2  0
  4  5  1  0
  5  6  2  0
  6  7  1  0
  7  8  2  0
  8  9  1  0
  9 10  2  0
  9 11  1  0
 11 12  1  0
 12 13  2  0
 13 14  1  0
 14 15  1  0
 15 16  2  0
 14 17  2  0
 17 18  1  0
 17 19  1  0
 13  3  1  0
 12  6  1  0
M  END
>  <identifier>  (225) 
CNP0177394.0

>  <canonical_smiles>  (225) 
COC1=CC=C2C=CC(=O)OC2=C1C(C=O)=C(C)C

>  <standard_inchi>  (225) 
InChI=1S/C15H14O4/c1-9(2)11(8-16)14-12(18-3)6-4-10-5-7-13(17)19-15(10)14/h4-8H,1-3H3

>  <standard_inchi_key>  (225) 
PBAZKMWQUBDDLZ-UHFFFAOYSA-N

>  <name>  (225) 
Murralongin

>  <iupac_name>  (225) 
2-(7-methoxy-2-oxo-chromen-8-yl)-3-methyl-but-2-enal

>  <annotation_level>  (225) 
5

>  <total_atom_count>  (225) 
33

>  <heavy_atom_count>  (225) 
19

>  <molecular_weight>  (225) 
258.27

>  <exact_molecular_weight>  (225) 
258.08921

>  <molecular_formula>  (225) 
C15H14O4

>  <alogp>  (225) 
2.79

>  <topological_polar_surface_area>  (225) 
56.51

>  <rotatable_bond_count>  (225) 
3

>  <hydrogen_bond_acceptors>  (225) 
4

>  <hydrogen_bond_donors>  (225) 
0

>  <hydrogen_bond_acceptors_lipinski>  (225) 
4

>  <hydrogen_bond_donors_lipinski>  (225) 
0

>  <lipinski_rule_of_five_violations>  (225) 
0

>  <aromatic_rings_count>  (225) 
2

>  <qed_drug_likeliness>  (225) 
0.48

>  <formal_charge>  (225) 
0

>  <fractioncsp3>  (225) 
0.20

>  <number_of_minimal_rings>  (225) 
2

>  <van_der_walls_volume>  (225) 
230.93

>  <contains_sugar>  (225) 
False

>  <contains_ring_sugars>  (225) 
False

>  <contains_linear_sugars>  (225) 
False

>  <murcko_framework>  (225) 
O1c2ccccc2C=CC1

>  <np_likeness>  (225) 
1.24

>  <chemical_class>  (225) 
Coumarins and derivatives

>  <chemical_sub_class>  (225) 
Coumarins and derivatives

>  <chemical_super_class>  (225) 
Phenylpropanoids and polyketides

>  <direct_parent_classification>  (225) 
Coumarins and derivatives

>  <np_classifier_pathway>  (225) 
Shikimates and Phenylpropanoids

>  <np_classifier_superclass>  (225) 
Coumarins

>  <np_classifier_class>  (225) 
Simple coumarins

>  <np_classifier_is_glycoside>  (225) 
False

>  <organisms>  (225) 
Boenninghausenia Albiflora|Boenninghausenia albiflora|Galipea panamensis|Leionema coxii|Leionema ralstonii|Micromelum minutum|Murraya Paniculata|Murraya alata|Murraya exotica|Murraya gleniei|Murraya paniculata|Murraya paniculata var. exotica|Murraya paniculata var. omphalocarpa|Phebalium anceps|Phebalium filifolium|Rauia resinosa|murraya alata

>  <collections>  (225) 
AnalytiCon Discovery NPs|Australian natural products|CMAUP (cCollective molecular activities of useful plants)|Latin America dataset|NPASS|NuBBEDB|Super Natural II|TCMDB-Taiwan (Traditional Chinese Medicine database)|TCMID (Traditional Chinese Medicine Integrated Database)|TIPdb (database of Taiwan indigenous plants)|UNPD (Universal Natural Products Database)|VietHerb|WikiData Natural Products|ZINC NP

>  <dois>  (225) 
10.1002/JCCS.199400032|10.1016/0031-9422(84)83056-3|10.1016/0031-9422(89)80236-5|10.1016/0031-9422(89)85027-7|10.1016/0031-9422(92)83450-D|10.1016/0031-9422(96)00255-5|10.1016/0305-1978(88)90076-2|10.1016/S0031-9422(00)80160-0|10.1016/S0031-9422(00)80543-9|10.1016/S0031-9422(00)81445-4|10.1016/S0031-9422(00)97490-9|10.1021/NP100146Y|10.1021/NP50085A003|10.1021/NP500861U|10.1021/np100146y|10.1021/np500861u|10.1039/P19900002047|10.1055/S-2002-19874|10.1055/S-2003-41112|10.1248/CPB.35.4277|10.1248/CPB.37.119|10.1248/CPB.37.358|10.1590/S0100-40422010001000024

>  <synonyms>  (225) 
2-(7-Methoxy-2-oxochromen-8-yl)-3-methylbut-2-enal|53011-72-6|7-Methoxy-alpha-(1-methylethylidene)-2-oxo-2H-1-benzopyran-8-acetaldehyde|AKOS032948558|BDBM50428427|CHEMBL1098016|CS-0023683|DTXSID40201059|FS-9981|HY-N3234|Murralongin, >=95% (LC\/MS-ELSD)|XM163795|murralongin

>  <cas>  (225) 
53011-72-6

$$$$

     RDKit          2D

 30 32  0  0  0  0  0  0  0  0999 V2000
   -0.8569    2.7533    0.0000 C   0  0  0  0  0  0  0  0  0  0  0  0
    0.3358    1.8436    0.0000 C   0  0  0  0  0  0  0  0  0  0  0  0
    0.1444    0.3559    0.0000 C   0  0  0  0  0  0  0  0  0  0  0  0
    1.3372   -0.5537    0.0000 C   0  0  0  0  0  0  0  0  0  0  0  0
    1.6830    0.9058    0.0000 C   0  0  0  0  0  0  0  0  0  0  0  0
    3.1200    1.3361    0.0000 C   0  0  0  0  0  0  0  0  0  0  0  0
    3.4659    2.7957    0.0000 O   0  0  0  0  0  0  0  0  0  0  0  0
    4.9028    3.2259    0.0000 C   0  0  0  0  0  0  0  0  0  0  0  0
    4.2111    0.3068    0.0000 C   0  0  0  0  0  0  0  0  0  0  0  0
    5.6481    0.7370    0.0000 O   0  0  0  0  0  0  0  0  0  0  0  0
    3.8652   -1.1528    0.0000 C   0  0  0  0  0  0  0  0  0  0  0  0
    4.9563   -2.1821    0.0000 O   0  0  0  0  0  0  0  0  0  0  0  0
    6.3933   -1.7519    0.0000 C   0  0  0  0  0  0  0  0  0  0  0  0
    2.4283   -1.5831    0.0000 C   0  0  0  0  0  0  0  0  0  0  0  0
    1.7865   -2.9388    0.0000 O   0  0  0  0  0  0  0  0  0  0  0  0
    0.2987   -2.7474    0.0000 C   0  0  0  0  0  0  0  0  0  0  0  0
   -0.7306   -3.8385    0.0000 C   0  0  0  0  0  0  0  0  0  0  0  0
    0.0210   -1.2734    0.0000 C   0  0  0  0  0  0  0  0  0  0  0  0
   -1.3347   -0.6316    0.0000 C   0  0  0  0  0  0  0  0  0  0  0  0
   -1.4568    0.8634    0.0000 C   0  0  0  0  0  0  0  0  0  0  0  0
   -2.8126    1.5052    0.0000 C   0  0  0  0  0  0  0  0  0  0  0  0
   -2.9347    3.0002    0.0000 O   0  0  0  0  0  0  0  0  0  0  0  0
   -1.7010    3.8535    0.0000 C   0  0  0  0  0  0  0  0  0  0  0  0
   -4.0463    0.6520    0.0000 C   0  0  0  0  0  0  0  0  0  0  0  0
   -5.4021    1.2937    0.0000 O   0  0  0  0  0  0  0  0  0  0  0  0
   -6.6357    0.4405    0.0000 C   0  0  0  0  0  0  0  0  0  0  0  0
   -3.9242   -0.8431    0.0000 C   0  0  0  0  0  0  0  0  0  0  0  0
   -5.1579   -1.6963    0.0000 O   0  0  0  0  0  0  0  0  0  0  0  0
   -5.0358   -3.1913    0.0000 C   0  0  0  0  0  0  0  0  0  0  0  0
   -2.5684   -1.4848    0.0000 C   0  0  0  0  0  0  0  0  0  0  0  0
  1  2  2  0
  2  3  1  0
  4  3  1  1
  4  5  1  0
  5  6  1  0
  6  7  1  6
  7  8  1  0
  6  9  1  0
  9 10  2  0
  9 11  1  0
 11 12  1  0
 12 13  1  0
 11 14  2  0
 14 15  1  0
 15 16  1  0
 16 17  1  6
 16 18  1  0
 18 19  1  1
 19 20  2  0
 20 21  1  0
 21 22  1  0
 22 23  1  0
 21 24  2  0
 24 25  1  0
 25 26  1  0
 24 27  1  0
 27 28  1  0
 28 29  1  0
 27 30  2  0
 14  4  1  0
 30 19  1  0
 18  4  1  0
M  END
>  <identifier>  (226) 
CNP0136253.1

>  <canonical_smiles>  (226) 
C=CC[C@@]12C[C@H](OC)C(=O)C(OC)=C1O[C@H](C)[C@H]2C1=CC(OC)=C(OC)C(OC)=C1

>  <standard_inchi>  (226) 
InChI=1S/C23H30O7/c1-8-9-23-12-17(27-5)19(24)21(29-7)22(23)30-13(2)18(23)14-10-15(25-3)20(28-6)16(11-14)26-4/h8,10-11,13,17-18H,1,9,12H2,2-7H3/t13-,17+,18+,23+/m1/s1

>  <standard_inchi_key>  (226) 
CSKJIGAKZXQTFO-OFBGFOQGSA-N

>  <name>  (226) 
nan

>  <iupac_name>  (226) 
(2~{R},3~{S},3~{a}~{S},5~{S})-3~{a}-allyl-5,7-dimethoxy-2-methyl-3-(3,4,5-trimethoxyphenyl)-2,3,4,5-tetrahydrobenzofuran-6-one

>  <annotation_level>  (226) 
4

>  <total_atom_count>  (226) 
60

>  <heavy_atom_count>  (226) 
30

>  <molecular_weight>  (226) 
418.49

>  <exact_molecular_weight>  (226) 
418.19915

>  <molecular_formula>  (226) 
C23H30O7

>  <alogp>  (226) 
3.62

>  <topological_polar_surface_area>  (226) 
72.45

>  <rotatable_bond_count>  (226) 
8

>  <hydrogen_bond_acceptors>  (226) 
7

>  <hydrogen_bond_donors>  (226) 
0

>  <hydrogen_bond_acceptors_lipinski>  (226) 
7

>  <hydrogen_bond_donors_lipinski>  (226) 
0

>  <lipinski_rule_of_five_violations>  (226) 
0

>  <aromatic_rings_count>  (226) 
1

>  <qed_drug_likeliness>  (226) 
0.60

>  <formal_charge>  (226) 
0

>  <fractioncsp3>  (226) 
0.52

>  <number_of_minimal_rings>  (226) 
3

>  <van_der_walls_volume>  (226) 
nan

>  <contains_sugar>  (226) 
False

>  <contains_ring_sugars>  (226) 
False

>  <contains_linear_sugars>  (226) 
False

>  <murcko_framework>  (226) 
O1C2=CCCCC2C(c3ccccc3)C1

>  <np_likeness>  (226) 
1.73

>  <chemical_class>  (226) 
Phenol ethers

>  <chemical_sub_class>  (226) 
Anisoles

>  <chemical_super_class>  (226) 
Benzenoids

>  <direct_parent_classification>  (226) 
Anisoles

>  <np_classifier_pathway>  (226) 
Shikimates and Phenylpropanoids

>  <np_classifier_superclass>  (226) 
Lignans

>  <np_classifier_class>  (226) 
Neolignans

>  <np_classifier_is_glycoside>  (226) 
False

>  <organisms>  (226) 
Licaria chrysophylla

>  <collections>  (226) 
Latin America dataset|NuBBEDB|Super Natural II|WikiData Natural Products

>  <dois>  (226) 
10.1016/0031-9422(82)83121-X

>  <synonyms>  (226) 
Chrysophyllin B

>  <cas>  (226) 
nan

$$$$

     RDKit          2D

 21 21  0  0  0  0  0  0  0  0999 V2000
    1.6195   -3.6650    0.0000 C   0  0  0  0  0  0  0  0  0  0  0  0
    0.5973   -2.5672    0.0000 C   0  0  0  0  0  0  0  0  0  0  0  0
   -0.7626   -3.2002    0.0000 C   0  0  0  0  0  0  0  0  0  0  0  0
   -2.2349   -2.9129    0.0000 C   0  0  0  0  0  0  0  0  0  0  0  0
   -3.2571   -1.8151    0.0000 C   0  0  0  0  0  0  0  0  0  0  0  0
   -3.4388   -0.3262    0.0000 C   0  0  0  0  0  0  0  0  0  0  0  0
   -4.9111   -0.0389    0.0000 C   0  0  0  0  0  0  0  0  0  0  0  0
   -5.3984    1.3797    0.0000 O   0  0  0  0  0  0  0  0  0  0  0  0
   -2.7107    0.9852    0.0000 C   0  0  0  0  0  0  0  0  0  0  0  0
   -1.3508    1.6182    0.0000 C   0  0  0  0  0  0  0  0  0  0  0  0
    0.1215    1.3309    0.0000 C   0  0  0  0  0  0  0  0  0  0  0  0
    0.8496    2.6423    0.0000 C   0  0  0  0  0  0  0  0  0  0  0  0
   -0.4618    3.3705    0.0000 C   0  0  0  0  0  0  0  0  0  0  0  0
    2.1610    1.9142    0.0000 C   0  0  0  0  0  0  0  0  0  0  0  0
    1.5778    3.9537    0.0000 O   0  0  0  0  0  0  0  0  0  0  0  0
    1.1437    0.2332    0.0000 C   0  0  0  0  0  0  0  0  0  0  0  0
    1.3254   -1.2558    0.0000 C   0  0  0  0  0  0  0  0  0  0  0  0
    2.7977   -1.5431    0.0000 O   0  0  0  0  0  0  0  0  0  0  0  0
    3.7826   -0.4117    0.0000 C   0  0  0  0  0  0  0  0  0  0  0  0
    5.2548   -0.6990    0.0000 C   0  0  0  0  0  0  0  0  0  0  0  0
    3.2952    1.0069    0.0000 O   0  0  0  0  0  0  0  0  0  0  0  0
  1  2  2  0
  2  3  1  0
  3  4  1  0
  4  5  1  0
  5  6  1  0
  6  7  1  0
  7  8  1  0
  6  9  1  0
  9 10  1  0
 10 11  1  0
 11 12  1  6
 12 13  1  0
 12 14  1  0
 12 15  1  0
 11 16  1  0
 16 17  1  0
 17 18  1  0
 18 19  1  0
 19 20  1  0
 19 21  2  0
 17  2  1  0
M  END
>  <identifier>  (227) 
CNP0080590.1

>  <canonical_smiles>  (227) 
C=C1CCCC(CO)CC[C@H](C(C)(C)O)CC1OC(C)=O

>  <standard_inchi>  (227) 
InChI=1S/C17H30O4/c1-12-6-5-7-14(11-18)8-9-15(17(3,4)20)10-16(12)21-13(2)19/h14-16,18,20H,1,5-11H2,2-4H3/t14?,15-,16?/m0/s1

>  <standard_inchi_key>  (227) 
UDIIUGFJZWJUKQ-PCKAHOCUSA-N

>  <name>  (227) 
nan

>  <iupac_name>  (227) 
[(9~{S})-6-(hydroxymethyl)-9-(1-hydroxy-1-methyl-ethyl)-2-methylene-cyclodecyl] acetate

>  <annotation_level>  (227) 
4

>  <total_atom_count>  (227) 
51

>  <heavy_atom_count>  (227) 
21

>  <molecular_weight>  (227) 
298.42

>  <exact_molecular_weight>  (227) 
298.21441

>  <molecular_formula>  (227) 
C17H30O4

>  <alogp>  (227) 
2.82

>  <topological_polar_surface_area>  (227) 
66.76

>  <rotatable_bond_count>  (227) 
3

>  <hydrogen_bond_acceptors>  (227) 
4

>  <hydrogen_bond_donors>  (227) 
2

>  <hydrogen_bond_acceptors_lipinski>  (227) 
4

>  <hydrogen_bond_donors_lipinski>  (227) 
2

>  <lipinski_rule_of_five_violations>  (227) 
0

>  <aromatic_rings_count>  (227) 
0

>  <qed_drug_likeliness>  (227) 
0.62

>  <formal_charge>  (227) 
0

>  <fractioncsp3>  (227) 
0.82

>  <number_of_minimal_rings>  (227) 
1

>  <van_der_walls_volume>  (227) 
nan

>  <contains_sugar>  (227) 
False

>  <contains_ring_sugars>  (227) 
False

>  <contains_linear_sugars>  (227) 
False

>  <murcko_framework>  (227) 
C1CCCCCCCCC1

>  <np_likeness>  (227) 
1.85

>  <chemical_class>  (227) 
Prenol lipids

>  <chemical_sub_class>  (227) 
Sesquiterpenoids

>  <chemical_super_class>  (227) 
Lipids and lipid-like molecules

>  <direct_parent_classification>  (227) 
Germacrane sesquiterpenoids

>  <np_classifier_pathway>  (227) 
Terpenoids

>  <np_classifier_superclass>  (227) 
Sesquiterpenoids

>  <np_classifier_class>  (227) 
Germacrane sesquiterpenoids

>  <np_classifier_is_glycoside>  (227) 
False

>  <organisms>  (227) 
Trichilia claussenii

>  <collections>  (227) 
Latin America dataset|NuBBEDB|WikiData Natural Products

>  <dois>  (227) 
10.1590/S0103-50532002000300014

>  <synonyms>  (227) 
9-acetate-1115-diol

>  <cas>  (227) 
nan

$$$$

     RDKit          2D

 20 22  0  0  0  0  0  0  0  0999 V2000
   -4.9384   -1.7990    0.0000 C   0  0  0  0  0  0  0  0  0  0  0  0
   -3.4388   -1.8341    0.0000 C   0  0  0  0  0  0  0  0  0  0  0  0
   -2.6586   -0.5529    0.0000 C   0  0  0  0  0  0  0  0  0  0  0  0
   -3.3780    0.7633    0.0000 C   0  0  0  0  0  0  0  0  0  0  0  0
   -4.8776    0.7983    0.0000 C   0  0  0  0  0  0  0  0  0  0  0  0
   -2.5979    2.0444    0.0000 C   0  0  0  0  0  0  0  0  0  0  0  0
   -1.0983    2.0093    0.0000 C   0  0  0  0  0  0  0  0  0  0  0  0
   -0.3789    0.6931    0.0000 C   0  0  0  0  0  0  0  0  0  0  0  0
   -1.1590   -0.5880    0.0000 C   0  0  0  0  0  0  0  0  0  0  0  0
   -0.4396   -1.9042    0.0000 C   0  0  0  0  0  0  0  0  0  0  0  0
    1.0600   -1.9393    0.0000 C   0  0  0  0  0  0  0  0  0  0  0  0
    1.8402   -0.6582    0.0000 C   0  0  0  0  0  0  0  0  0  0  0  0
    3.3398   -0.6932    0.0000 C   0  0  0  0  0  0  0  0  0  0  0  0
    4.7369   -1.2391    0.0000 C   0  0  0  0  0  0  0  0  0  0  0  0
    3.0448   -2.1640    0.0000 C   0  0  0  0  0  0  0  0  0  0  0  0
    4.1199    0.5879    0.0000 C   0  0  0  0  0  0  0  0  0  0  0  0
    3.4005    1.9041    0.0000 C   0  0  0  0  0  0  0  0  0  0  0  0
    1.9009    1.9392    0.0000 C   0  0  0  0  0  0  0  0  0  0  0  0
    1.1207    0.6581    0.0000 C   0  0  0  0  0  0  0  0  0  0  0  0
    0.4013    1.9743    0.0000 C   0  0  0  0  0  0  0  0  0  0  0  0
  1  2  1  0
  2  3  1  0
  3  4  2  0
  4  5  1  0
  4  6  1  0
  6  7  2  0
  7  8  1  0
  8  9  2  0
  9 10  1  0
 10 11  1  0
 12 11  1  6
 12 13  1  0
 13 14  1  0
 13 15  1  0
 13 16  1  0
 16 17  1  0
 17 18  1  0
 18 19  1  0
 19 20  1  6
  9  3  1  0
 19 12  1  0
 19  8  1  0
M  END
>  <identifier>  (228) 
CNP0080664.1

>  <canonical_smiles>  (228) 
CCC1=C(C)C=CC2=C1CC[C@H]1C(C)(C)CCC[C@]21C

>  <standard_inchi>  (228) 
InChI=1S/C20H30/c1-6-15-14(2)8-10-17-16(15)9-11-18-19(3,4)12-7-13-20(17,18)5/h8,10,18H,6-7,9,11-13H2,1-5H3/t18-,20+/m0/s1

>  <standard_inchi_key>  (228) 
JAXBFJVZLAUHTD-AZUAARDMSA-N

>  <name>  (228) 
nan

>  <iupac_name>  (228) 
(4~{a}~{S},10~{a}~{S})-8-ethyl-1,1,4~{a},7-tetramethyl-2,3,4,9,10,10~{a}-hexahydrophenanthrene

>  <annotation_level>  (228) 
4

>  <total_atom_count>  (228) 
50

>  <heavy_atom_count>  (228) 
20

>  <molecular_weight>  (228) 
270.46

>  <exact_molecular_weight>  (228) 
270.23475

>  <molecular_formula>  (228) 
C20H30

>  <alogp>  (228) 
5.59

>  <topological_polar_surface_area>  (228) 
0.00

>  <rotatable_bond_count>  (228) 
1

>  <hydrogen_bond_acceptors>  (228) 
0

>  <hydrogen_bond_donors>  (228) 
0

>  <hydrogen_bond_acceptors_lipinski>  (228) 
0

>  <hydrogen_bond_donors_lipinski>  (228) 
0

>  <lipinski_rule_of_five_violations>  (228) 
1

>  <aromatic_rings_count>  (228) 
1

>  <qed_drug_likeliness>  (228) 
0.62

>  <formal_charge>  (228) 
0

>  <fractioncsp3>  (228) 
0.70

>  <number_of_minimal_rings>  (228) 
3

>  <van_der_walls_volume>  (228) 
nan

>  <contains_sugar>  (228) 
False

>  <contains_ring_sugars>  (228) 
False

>  <contains_linear_sugars>  (228) 
False

>  <murcko_framework>  (228) 
c1ccc2c(c1)CCC3CCCCC23

>  <np_likeness>  (228) 
1.87

>  <chemical_class>  (228) 
Prenol lipids

>  <chemical_sub_class>  (228) 
Diterpenoids

>  <chemical_super_class>  (228) 
Lipids and lipid-like molecules

>  <direct_parent_classification>  (228) 
Diterpenoids

>  <np_classifier_pathway>  (228) 
Terpenoids

>  <np_classifier_superclass>  (228) 
Diterpenoids

>  <np_classifier_class>  (228) 
Cleistanthane diterpenoids

>  <np_classifier_is_glycoside>  (228) 
False

>  <organisms>  (228) 
Vellozia piresiana

>  <collections>  (228) 
Latin America dataset|NuBBEDB|WikiData Natural Products

>  <dois>  (228) 
10.1016/S0031-9422(00)80444-6

>  <synonyms>  (228) 
(+)-Cleistantha-81113-triene

>  <cas>  (228) 
nan

$$$$

     RDKit          2D

 15 16  0  0  0  0  0  0  0  0999 V2000
   -5.2232    0.4886    0.0000 C   0  0  0  0  0  0  0  0  0  0  0  0
   -3.7243    0.5473    0.0000 C   0  0  0  0  0  0  0  0  0  0  0  0
   -2.9240   -0.7213    0.0000 C   0  0  0  0  0  0  0  0  0  0  0  0
   -1.4251   -0.6626    0.0000 C   0  0  0  0  0  0  0  0  0  0  0  0
   -0.6248   -1.9312    0.0000 C   0  0  0  0  0  0  0  0  0  0  0  0
    0.8740   -1.8724    0.0000 C   0  0  0  0  0  0  0  0  0  0  0  0
    1.6744   -3.1411    0.0000 O   0  0  0  0  0  0  0  0  0  0  0  0
    1.5726   -0.5450    0.0000 C   0  0  0  0  0  0  0  0  0  0  0  0
    3.0714   -0.4863    0.0000 C   0  0  0  0  0  0  0  0  0  0  0  0
    3.7699    0.8412    0.0000 C   0  0  0  0  0  0  0  0  0  0  0  0
    2.9696    2.1098    0.0000 C   0  0  0  0  0  0  0  0  0  0  0  0
    1.4708    2.0511    0.0000 C   0  0  0  0  0  0  0  0  0  0  0  0
    0.7722    0.7236    0.0000 C   0  0  0  0  0  0  0  0  0  0  0  0
   -0.7266    0.6649    0.0000 N   0  0  0  0  0  0  0  0  0  0  0  0
   -1.5269    1.9335    0.0000 C   0  0  0  0  0  0  0  0  0  0  0  0
  1  2  1  0
  2  3  1  0
  3  4  1  0
  4  5  2  0
  5  6  1  0
  6  7  2  0
  6  8  1  0
  8  9  2  0
  9 10  1  0
 10 11  2  0
 11 12  1  0
 12 13  2  0
 13 14  1  0
 14 15  1  0
 14  4  1  0
 13  8  1  0
M  END
>  <identifier>  (229) 
CNP0222785.0

>  <canonical_smiles>  (229) 
CCCC1=CC(=O)C2=CC=CC=C2N1C

>  <standard_inchi>  (229) 
InChI=1S/C13H15NO/c1-3-6-10-9-13(15)11-7-4-5-8-12(11)14(10)2/h4-5,7-9H,3,6H2,1-2H3

>  <standard_inchi_key>  (229) 
HHCLDHNLTJDYEN-UHFFFAOYSA-N

>  <name>  (229) 
Leptomerine

>  <iupac_name>  (229) 
1-methyl-2-propyl-quinolin-4-one

>  <annotation_level>  (229) 
5

>  <total_atom_count>  (229) 
30

>  <heavy_atom_count>  (229) 
15

>  <molecular_weight>  (229) 
201.27

>  <exact_molecular_weight>  (229) 
201.11536

>  <molecular_formula>  (229) 
C13H15NO

>  <alogp>  (229) 
2.49

>  <topological_polar_surface_area>  (229) 
22.00

>  <rotatable_bond_count>  (229) 
2

>  <hydrogen_bond_acceptors>  (229) 
2

>  <hydrogen_bond_donors>  (229) 
0

>  <hydrogen_bond_acceptors_lipinski>  (229) 
2

>  <hydrogen_bond_donors_lipinski>  (229) 
0

>  <lipinski_rule_of_five_violations>  (229) 
0

>  <aromatic_rings_count>  (229) 
2

>  <qed_drug_likeliness>  (229) 
0.73

>  <formal_charge>  (229) 
0

>  <fractioncsp3>  (229) 
0.31

>  <number_of_minimal_rings>  (229) 
2

>  <van_der_walls_volume>  (229) 
195.18

>  <contains_sugar>  (229) 
False

>  <contains_ring_sugars>  (229) 
False

>  <contains_linear_sugars>  (229) 
False

>  <murcko_framework>  (229) 
c1ccc2c(c1)NC=CC2

>  <np_likeness>  (229) 
0.15

>  <chemical_class>  (229) 
Quinolines and derivatives

>  <chemical_sub_class>  (229) 
Quinolones and derivatives

>  <chemical_super_class>  (229) 
Organoheterocyclic compounds

>  <direct_parent_classification>  (229) 
Hydroquinolones

>  <np_classifier_pathway>  (229) 
Alkaloids

>  <np_classifier_superclass>  (229) 
Tryptophan alkaloids

>  <np_classifier_class>  (229) 
Acridone alkaloids

>  <np_classifier_is_glycoside>  (229) 
False

>  <organisms>  (229) 
Esenbeckia leiocarpa|Evodia rutaecarpa|Haplophyllum griffithianum|Haplophyllum leptomerum

>  <collections>  (229) 
ChemSpider NPs|KNApSaCK|Latin America dataset|NPASS|NuBBEDB|Super Natural II|UNPD (Universal Natural Products Database)|WikiData Natural Products|ZINC NP

>  <dois>  (229) 
10.1007/BF00574586|10.1007/S10600-010-9661-Y|10.3390/MOLECULES15129205|10.3390/molecules15129205

>  <synonyms>  (229) 
1-methyl-2-propylquinolin-4-one|22048-97-1|AKOS037515317|CS-0032427|FS-7140|G67922|HY-N4206|Leptomerine|N-methyl-2-propyl-4-quinolone|SCHEMBL9388476|lepomerine

>  <cas>  (229) 
22048-97-1

$$$$

     RDKit          2D

 33 37  0  0  0  0  0  0  0  0999 V2000
   -8.6993    1.4155    0.0000 C   0  0  0  0  0  0  0  0  0  0  0  0
   -7.1995    1.4350    0.0000 C   0  0  0  0  0  0  0  0  0  0  0  0
   -6.4664    2.7437    0.0000 O   0  0  0  0  0  0  0  0  0  0  0  0
   -6.4326    0.1458    0.0000 O   0  0  0  0  0  0  0  0  0  0  0  0
   -4.9328    0.1653    0.0000 C   0  0  0  0  0  0  0  0  0  0  0  0
   -4.1997    1.4740    0.0000 C   0  0  0  0  0  0  0  0  0  0  0  0
   -2.6998    1.4935    0.0000 C   0  0  0  0  0  0  0  0  0  0  0  0
   -1.9330    0.2043    0.0000 C   0  0  0  0  0  0  0  0  0  0  0  0
   -1.2000    1.5130    0.0000 C   0  0  0  0  0  0  0  0  0  0  0  0
   -0.4331    0.2238    0.0000 C   0  0  0  0  0  0  0  0  0  0  0  0
    0.2999    1.5325    0.0000 C   0  0  0  0  0  0  0  0  0  0  0  0
    1.7998    1.5520    0.0000 C   0  0  0  0  0  0  0  0  0  0  0  0
    2.5666    0.2629    0.0000 C   0  0  0  0  0  0  0  0  0  0  0  0
    4.0378   -0.0299    0.0000 C   0  0  0  0  0  0  0  0  0  0  0  0
    5.1393    0.9882    0.0000 C   0  0  0  0  0  0  0  0  0  0  0  0
    4.0117    1.9773    0.0000 C   0  0  0  0  0  0  0  0  0  0  0  0
    6.0052    2.2131    0.0000 C   0  0  0  0  0  0  0  0  0  0  0  0
    7.4376    1.7682    0.0000 C   0  0  0  0  0  0  0  0  0  0  0  0
    7.4572    0.2683    0.0000 C   0  0  0  0  0  0  0  0  0  0  0  0
    8.6820   -0.5975    0.0000 O   0  0  0  0  0  0  0  0  0  0  0  0
    6.0367   -0.2137    0.0000 O   0  0  0  0  0  0  0  0  0  0  0  0
    4.2139   -1.5195    0.0000 C   0  0  0  0  0  0  0  0  0  0  0  0
    2.8517   -2.1474    0.0000 C   0  0  0  0  0  0  0  0  0  0  0  0
    1.8336   -1.0458    0.0000 C   0  0  0  0  0  0  0  0  0  0  0  0
    1.2413   -2.4240    0.0000 C   0  0  0  0  0  0  0  0  0  0  0  0
    0.3337   -1.0653    0.0000 C   0  0  0  0  0  0  0  0  0  0  0  0
   -1.1662   -1.0848    0.0000 C   0  0  0  0  0  0  0  0  0  0  0  0
   -0.3993   -2.3740    0.0000 C   0  0  0  0  0  0  0  0  0  0  0  0
   -1.8992   -2.3935    0.0000 C   0  0  0  0  0  0  0  0  0  0  0  0
   -2.6661   -1.1043    0.0000 C   0  0  0  0  0  0  0  0  0  0  0  0
   -4.1659   -1.1239    0.0000 C   0  0  0  0  0  0  0  0  0  0  0  0
   -3.8863   -2.5976    0.0000 C   0  0  0  0  0  0  0  0  0  0  0  0
   -5.5687   -1.6552    0.0000 C   0  0  0  0  0  0  0  0  0  0  0  0
  1  2  1  0
  2  3  2  0
  2  4  1  0
  5  4  1  6
  5  6  1  0
  6  7  1  0
  7  8  1  0
  8  9  1  1
  8 10  1  0
 10 11  1  1
 11 12  1  0
 13 12  1  6
 13 14  1  0
 14 15  1  0
 15 16  1  1
 15 17  1  0
 17 18  1  0
 18 19  1  0
 19 20  2  0
 19 21  1  0
 14 22  1  1
 22 23  1  0
 23 24  1  0
 24 25  1  6
 24 26  1  0
 26 27  1  1
 26 28  1  0
 28 29  1  0
 30 29  1  1
 30 31  1  0
 31 32  1  0
 31 33  1  0
 31  5  1  0
 30  8  1  0
 26 10  1  0
 24 13  1  0
 21 15  1  0
M  END
>  <identifier>  (230) 
CNP0263943.1

>  <canonical_smiles>  (230) 
CC(=O)O[C@@H]1CC[C@]2(C)[C@H]3CC[C@@H]4[C@@H]([C@]5(C)CCC(=O)O5)CC[C@@]4(C)[C@]3(C)CC[C@H]2C1(C)C

>  <standard_inchi>  (230) 
InChI=1S/C29H46O4/c1-18(30)32-23-12-14-26(4)21(25(23,2)3)11-16-28(6)22(26)9-8-19-20(10-15-27(19,28)5)29(7)17-13-24(31)33-29/h19-23H,8-17H2,1-7H3/t19-,20+,21+,22-,23-,26+,27-,28-,29+/m1/s1

>  <standard_inchi_key>  (230) 
CKGAIIJMVWESST-LKJFLBAOSA-N

>  <name>  (230) 
Cabraleahydroxylactone acetate

>  <iupac_name>  (230) 
[(3~{R},5~{R},8~{R},9~{R},10~{R},13~{R},14~{R},17~{S})-4,4,8,10,14-pentamethyl-17-[(2~{S})-2-methyl-5-oxo-tetrahydrofuran-2-yl]-2,3,5,6,7,9,11,12,13,15,16,17-dodecahydro-1~{H}-cyclopenta[a]phenanthren-3-yl] acetate

>  <annotation_level>  (230) 
5

>  <total_atom_count>  (230) 
79

>  <heavy_atom_count>  (230) 
33

>  <molecular_weight>  (230) 
458.68

>  <exact_molecular_weight>  (230) 
458.33961

>  <molecular_formula>  (230) 
C29H46O4

>  <alogp>  (230) 
6.70

>  <topological_polar_surface_area>  (230) 
52.60

>  <rotatable_bond_count>  (230) 
2

>  <hydrogen_bond_acceptors>  (230) 
4

>  <hydrogen_bond_donors>  (230) 
0

>  <hydrogen_bond_acceptors_lipinski>  (230) 
4

>  <hydrogen_bond_donors_lipinski>  (230) 
0

>  <lipinski_rule_of_five_violations>  (230) 
1

>  <aromatic_rings_count>  (230) 
0

>  <qed_drug_likeliness>  (230) 
0.43

>  <formal_charge>  (230) 
0

>  <fractioncsp3>  (230) 
0.93

>  <number_of_minimal_rings>  (230) 
5

>  <van_der_walls_volume>  (230) 
453.48

>  <contains_sugar>  (230) 
False

>  <contains_ring_sugars>  (230) 
False

>  <contains_linear_sugars>  (230) 
False

>  <murcko_framework>  (230) 
O1CCCC1C2CCC3C2CCC4C5CCCCC5CCC43

>  <np_likeness>  (230) 
2.82

>  <chemical_class>  (230) 
Prenol lipids

>  <chemical_sub_class>  (230) 
Triterpenoids

>  <chemical_super_class>  (230) 
Lipids and lipid-like molecules

>  <direct_parent_classification>  (230) 
Triterpenoids

>  <np_classifier_pathway>  (230) 
Terpenoids

>  <np_classifier_superclass>  (230) 
Triterpenoids

>  <np_classifier_class>  (230) 
Dammarane and Protostane triterpenoids

>  <np_classifier_is_glycoside>  (230) 
False

>  <organisms>  (230) 
Aglaia abbreviata|Aglaia elaeagnoidea|Cabralea polytricha

>  <collections>  (230) 
ChEBI NPs|Latin America dataset|NuBBEDB|Super Natural II|WikiData Natural Products

>  <dois>  (230) 
10.1016/0040-4020(72)80138-8|10.1021/NP100599G

>  <synonyms>  (230) 
18-Norcholan-24-oic acid, 3-(acetyloxy)-20-hydroxy-4,4,8,14-tetramethyl-, I(3)-lactone, (3I+\/-,5I+\/-)-|35833-70-6|AKOS032962394|CHEBI:70270|Cabraleahydroxylactone, acetate|DTXSID201119531|FS-9798|Q27138610|[(3R,5R,8R,9R,10R,13R,14R,17S)-4,4,8,10,14-pentamethyl-17-[(2S)-2-methyl-5-oxooxolan-2-yl]-2,3,5,6,7,9,11,12,13,15,16,17-dodecahydro-1H-cyclopenta[a]phenanthren-3-yl] acetate

>  <cas>  (230) 
35833-70-6

$$$$

     RDKit          2D

 14 15  0  0  0  0  0  0  0  0999 V2000
   -3.4762    2.4998    0.0000 C   0  0  0  0  0  0  0  0  0  0  0  0
   -3.3976    1.0019    0.0000 O   0  0  0  0  0  0  0  0  0  0  0  0
   -2.0610    0.3210    0.0000 C   0  0  0  0  0  0  0  0  0  0  0  0
   -0.8030    1.1381    0.0000 C   0  0  0  0  0  0  0  0  0  0  0  0
    0.5335    0.4572    0.0000 C   0  0  0  0  0  0  0  0  0  0  0  0
    0.6121   -1.0408    0.0000 C   0  0  0  0  0  0  0  0  0  0  0  0
    1.9487   -1.7217    0.0000 C   0  0  0  0  0  0  0  0  0  0  0  0
    3.2066   -0.9046    0.0000 C   0  0  0  0  0  0  0  0  0  0  0  0
    3.1280    0.5933    0.0000 C   0  0  0  0  0  0  0  0  0  0  0  0
    4.3860    1.4103    0.0000 O   0  0  0  0  0  0  0  0  0  0  0  0
    1.7915    1.2742    0.0000 O   0  0  0  0  0  0  0  0  0  0  0  0
   -0.6458   -1.8578    0.0000 C   0  0  0  0  0  0  0  0  0  0  0  0
   -1.9824   -1.1769    0.0000 C   0  0  0  0  0  0  0  0  0  0  0  0
   -3.2403   -1.9940    0.0000 O   0  0  0  0  0  0  0  0  0  0  0  0
  1  2  1  0
  2  3  1  0
  3  4  2  0
  4  5  1  0
  5  6  2  0
  6  7  1  0
  7  8  2  0
  8  9  1  0
  9 10  2  0
  9 11  1  0
  6 12  1  0
 12 13  2  0
 13 14  1  0
 13  3  1  0
 11  5  1  0
M  END
>  <identifier>  (231) 
CNP0262443.0

>  <canonical_smiles>  (231) 
COC1=CC2=C(C=CC(=O)O2)C=C1O

>  <standard_inchi>  (231) 
InChI=1S/C10H8O4/c1-13-9-5-8-6(4-7(9)11)2-3-10(12)14-8/h2-5,11H,1H3

>  <standard_inchi_key>  (231) 
SYTYLPHCLSSCOJ-UHFFFAOYSA-N

>  <name>  (231) 
Isoscopoletin

>  <iupac_name>  (231) 
6-hydroxy-7-methoxy-chromen-2-one

>  <annotation_level>  (231) 
5

>  <total_atom_count>  (231) 
22

>  <heavy_atom_count>  (231) 
14

>  <molecular_weight>  (231) 
192.17

>  <exact_molecular_weight>  (231) 
192.04226

>  <molecular_formula>  (231) 
C10H8O4

>  <alogp>  (231) 
1.51

>  <topological_polar_surface_area>  (231) 
59.67

>  <rotatable_bond_count>  (231) 
1

>  <hydrogen_bond_acceptors>  (231) 
4

>  <hydrogen_bond_donors>  (231) 
1

>  <hydrogen_bond_acceptors_lipinski>  (231) 
4

>  <hydrogen_bond_donors_lipinski>  (231) 
1

>  <lipinski_rule_of_five_violations>  (231) 
0

>  <aromatic_rings_count>  (231) 
2

>  <qed_drug_likeliness>  (231) 
0.70

>  <formal_charge>  (231) 
0

>  <fractioncsp3>  (231) 
0.10

>  <number_of_minimal_rings>  (231) 
2

>  <van_der_walls_volume>  (231) 
161.02

>  <contains_sugar>  (231) 
False

>  <contains_ring_sugars>  (231) 
False

>  <contains_linear_sugars>  (231) 
False

>  <murcko_framework>  (231) 
O1c2ccccc2C=CC1

>  <np_likeness>  (231) 
1.04

>  <chemical_class>  (231) 
Coumarins and derivatives

>  <chemical_sub_class>  (231) 
Coumarins and derivatives

>  <chemical_super_class>  (231) 
Phenylpropanoids and polyketides

>  <direct_parent_classification>  (231) 
Coumarins and derivatives

>  <np_classifier_pathway>  (231) 
Shikimates and Phenylpropanoids

>  <np_classifier_superclass>  (231) 
Coumarins

>  <np_classifier_class>  (231) 
Simple coumarins

>  <np_classifier_is_glycoside>  (231) 
False

>  <organisms>  (231) 
Achillea arabica|Achillea biebersteinii|Aesculus hippocastanum|Aesculus turbinata|Agathosma betulina|Agathosma recurvifolia|Aglaia lawii|Ajania przewalskii|Aldama robusta|Alphitonia macrocarpa|Althaea armeniaca|Althaea officinalis|Amaioua guianensis|Ammi majus|Angelica dahurica|Aniba duckei|Anthriscus sylvestris|Aplophyllum telephioides|Arisarum vulgare|Aristolochia cucurbitifolia|Armillaria tabescens|Arnica sachalinensis|Arracacia tolucensis|Artemisia argyi|Artemisia capillaris|Artemisia feddei|Artemisia lancea|Artemisia nova|Artemisia scoparia|Artemisia tridentata|Baccharis santelicis|Berchemia floribunda|Betula maximowicziana|Bugula neritina|Buxus microphylla sieb. et zucc. var. sinica rehd. et wils.|Buxus microphylla var. sinica|Buxus microphylla var.sinica|Calanthe arisanensis|Canarium album|Carduus tenuiflorus|Cassia fistula|Centaurea spruneri|Chamomilla recutita|Channa argus|Chloranthus Japonicus|Chloranthus japonicus|Chloranthus serratus|Choisya arizonica|Chrysosplenium oppositifolium|Citrus medica|Citrus sinensis|Clausena anisata|Clausena dunniana|Clausena lansium|Clematis angustifolia|Cnidoscolus texanus|Conyza bonariensis|Coriandrum sativum|Coronilla elegans|Diaporthe amygdali|Dictamnus gymnostylis|Dysoxylum binectariferum|Elliottia paniculata|Epimedium sagittatum|Erigeron breviscapus|Erigeron sp.|Eriogonum nudum|Erythrina eriotriocha|Erythrina sandwicensis|Eucalyptus sieberiana|Euphorbia balsamifera|Euphorbia hirta|Euphorbia officinarum|Euphorbia quinquecostata|Euphorbia sp.|Fagara zanthoxyloides|Ferula latipinna|Ferula linkii|Fraxinus chinensis|Fraxinus chinensis subsp. rhynchophylla|Fraxinus excelsior|Fraxinus pallisiae|Fraxinus sp.|Fraxinus stylosa|Fraxinus szaboana|Garcinia volkensii|Glossocalyx brevipes|Glycyrrhiza pallidiflora|Guarea rhopalocarpa|Gundelia tournefortii|Haplophyllum bungei|Helianthus divaricatus|Helichrysum italicum|Helichrysum maracandicum|Hepialus hecta|Humulus japonicus|Hyacinthoides hispanica|Hygrophila polysperma|Hyphear tanakae|Ilex hainanensis|Incarvillea emodi|Indigofera linnaei|Isodon gesneroides|Kitagawia praeruptora|Ligularia subspicata|Lobelia chinensis|Lycium barbarum|Lycium chinense|Mallotus resinosus|Matricaria chamomilla|Mcneillia graminifolia|Melia azedarach|Melicope sarcococca|Mentzelia cordifolia|Mentzelia sp.|Mikania stipulacea|Morinda Citrifolia|Morinda citrifolia|Morinda sp.|Morus rubra|Mucuna sloanei|Mycale laxissima|Myelochroa rhytidodes|Nama johnstonii|Nephelium lappaceum|Nervilia fordii|Notholaena peninsularis|Ochrocarpos odoratus|Olea capensis|Olea europaea|Olea sp.|Oligonychus bessardi|Ophryosporus lorentzii|Papularia sphaerosperma|Pelargonium sidoides|Phaseolus vulgaris|Pinus sitchensis|Pittosporum viridiflorum|Plexaurella grisea|Plinia cauliflora|Polypodiodes formosana|Pseudocedrela kotschyi|Pseudotaxus chienii|Pteris australis|Pterocaulon polystachyum|Punctelia microsticta|Quercus acuta|Quercus gilva|Ranunculus sceleratus|Reaumuria mucronata|Reaumuria vermiculata|Resupinatus leightonii|Rhodopila globiformis|Roldana barba-johannis|Rothmannia urcelliformis|Rubus thibetanus|Ruta corsica|Santolina rosmarinifolia|Saussurea involucrata|Saussurea macrota|Saussurea parviflora|Saussurea sp.|Senecio coahuilensis|Senecio othonniformis|Serratula xeranthemoides|Sideritis nutans|Sinularia manaarensis|Siphonostegia chinensis|Skimmia laureola|Solanum melongena|Sophora davidii|Sphaeria biglobosa|Sphaeria doliolum|Stenomesson miniatum|Streptomyces blastmyceticus|Streptomyces griseus|Streptomyces orinoci|Swertia decora|Syringa vulgaris|Tagetes lucida|Theonella cupola|Tripetaleia paniculata|Tritomaria quinquedentata|Uncaria guianensis|Venidium hirsutum|Veratrum eschscholtzii|Vibrio parahaemolyticus|Vicoa vestita|Vigna radiata|Viola mandshurica|Viola philippica|Viola yedoensis|Virola sebifera|Withania frutescens|Xerula melanotricha|Xylopia brasiliensis|Zanthoxylum integrifoliolum|Zanthoxylum nitidum

>  <collections>  (231) 
ANPDB|Australian natural products|BIOFACQUIM|CMAUP (cCollective molecular activities of useful plants)|ChemSpider NPs|ConMedNP|ETM (Ethiopian Traditional Medicine) DB|FooDB|GNPS (Global Natural Products Social Molecular Networking)|HIM (Herbal Ingredients in-vivo Metabolism database)|KNApSaCK|Latin America dataset|NANPDB (Natural Products from Northern African Sources)|NPASS|NPCARE|NuBBEDB|Phyto4Health|PhytoLab phyproof® Reference Substances|SANCDB|Specs Natural Products|StreptomeDB|Super Natural II|TCMDB-Taiwan (Traditional Chinese Medicine database)|TCMID (Traditional Chinese Medicine Integrated Database)|TIPdb (database of Taiwan indigenous plants)|UNPD (Universal Natural Products Database)|VietHerb|WikiData Natural Products|ZINC NP

>  <dois>  (231) 
10.1002/CHIN.200516160|10.1002/HLCA.200390259|10.1002/JCCS.200100154|10.1002/PCA.2800040207|10.1002/PTR.785|10.1007/BF00575056|10.1007/BF00579153|10.1007/BF00579493|10.1007/BF00579781|10.1007/BF00598091|10.1007/BF00598601|10.1007/BF00598775|10.1007/BF00629946|10.1007/BF00630189|10.1007/BF00630665|10.1007/BF02978826|10.1007/S10600-010-9752-9|10.1016/0031-9422(75)83134-7|10.1016/0031-9422(88)80790-8|10.1016/0031-9422(93)85291-X|10.1016/0031-9422(94)00689-Q|10.1016/0031-9422(95)00783-0|10.1016/0031-9422(95)00930-2|10.1016/0031-9422(96)00106-9|10.1016/0305-1978(92)90072-L|10.1016/0305-1978(96)00057-9|10.1016/J.CARRES.2011.04.028|10.1016/J.FITOTE.2003.12.014|10.1016/J.FITOTE.2012.06.007|10.1016/J.FOODCHEM.2009.04.112|10.1016/J.JEP.2007.05.015|10.1016/S0021-9673(01)97678-2|10.1016/S0031-9422(00)00310-1|10.1016/S0031-9422(00)80354-4|10.1016/S0031-9422(00)80417-3|10.1016/S0031-9422(00)81759-8|10.1016/S0031-9422(00)85324-8|10.1016/S0031-9422(00)97569-1|10.1016/S0031-9422(02)00758-6|10.1016/S0031-9422(96)00634-6|10.1016/S0031-9422(98)00097-1|10.1016/S0305-1978(97)00006-9|10.1016/S0968-0896(00)00225-X|10.1016/S1875-5364(12)60009-0|10.1016/j.bmc.2017.12.011|10.1016/j.bse.2020.104080|10.1016/j.fitote.2012.06.007|10.1016/j.jep.2007.05.015|10.1021/JF053071W|10.1021/NP0202475|10.1021/NP040129C|10.1021/NP0605539|10.1021/NP070186G|10.1021/NP070501Z|10.1021/NP50044A042|10.1021/NP50060A015|10.1021/NP960412E|10.1021/jf801103p|10.1021/np0202475|10.1021/np040129c|10.1021/np0605539|10.1021/np070186g|10.1055/S-2001-17365|10.1055/S-2005-873169|10.1055/S-2006-947165|10.1055/S-2007-990226|10.1080/00021369.1978.10863028|10.1080/00021369.1984.10866207|10.1080/00021369.1985.10866891|10.1080/13880200500220268|10.1128/AEM.46.2.468-474.1983|10.1128/aem.46.2.468-474.1983|10.1186/2191-2858-2-1|10.1201/B10413-17|10.1248/BPB.30.1340|10.1248/CPB.36.769|10.1248/CPB.48.1006|10.1248/YAKUSHI1947.94.12_1634|10.1271/BBB1961.42.623|10.1590/S0103-50532001000400019|10.1590/S0103-50532010000400012|10.2298/JSC100127008C|10.3724/SP.J.1009.2012.00040|10.3724/sp.j.1009.2012.00040|10.4268/CJCMM20111111

>  <synonyms>  (231) 
nan

>  <cas>  (231) 
776-86-3

$$$$

     RDKit          2D

 15 16  0  0  0  0  0  0  0  0999 V2000
   -5.1962   -1.0000    0.0000 C   0  0  0  0  0  0  0  0  0  0  0  0
   -5.1962    0.5000    0.0000 C   0  0  0  0  0  0  0  0  0  0  0  0
   -3.8971    1.2500    0.0000 C   0  0  0  0  0  0  0  0  0  0  0  0
   -2.5981    0.5000    0.0000 C   0  0  0  0  0  0  0  0  0  0  0  0
   -1.2990    1.2500    0.0000 C   0  0  0  0  0  0  0  0  0  0  0  0
   -0.0000    0.5000    0.0000 S   0  0  0  0  0  0  0  0  0  0  0  0
    1.2990    1.2500    0.0000 C   0  0  0  0  0  0  0  0  0  0  0  0
    2.5981    0.5000    0.0000 C   0  0  0  0  0  0  0  0  0  0  0  0
    2.5981   -1.0000    0.0000 C   0  0  0  0  0  0  0  0  0  0  0  0
    3.8971   -1.7500    0.0000 C   0  0  0  0  0  0  0  0  0  0  0  0
    5.1962   -1.0000    0.0000 C   0  0  0  0  0  0  0  0  0  0  0  0
    5.1962    0.5000    0.0000 C   0  0  0  0  0  0  0  0  0  0  0  0
    3.8971    1.2500    0.0000 C   0  0  0  0  0  0  0  0  0  0  0  0
   -2.5981   -1.0000    0.0000 C   0  0  0  0  0  0  0  0  0  0  0  0
   -3.8971   -1.7500    0.0000 C   0  0  0  0  0  0  0  0  0  0  0  0
  1  2  2  0
  2  3  1  0
  3  4  2  0
  4  5  1  0
  5  6  1  0
  6  7  1  0
  7  8  1  0
  8  9  2  0
  9 10  1  0
 10 11  2  0
 11 12  1  0
 12 13  2  0
  4 14  1  0
 14 15  2  0
 15  1  1  0
 13  8  1  0
M  END
>  <identifier>  (232) 
CNP0349220.0

>  <canonical_smiles>  (232) 
C1=CC=C(CSCC2=CC=CC=C2)C=C1

>  <standard_inchi>  (232) 
InChI=1S/C14H14S/c1-3-7-13(8-4-1)11-15-12-14-9-5-2-6-10-14/h1-10H,11-12H2

>  <standard_inchi_key>  (232) 
LUFPJJNWMYZRQE-UHFFFAOYSA-N

>  <name>  (232) 
Dibenzyl sulfide

>  <iupac_name>  (232) 
benzylsulfanylmethylbenzene

>  <annotation_level>  (232) 
5

>  <total_atom_count>  (232) 
29

>  <heavy_atom_count>  (232) 
15

>  <molecular_weight>  (232) 
214.33

>  <exact_molecular_weight>  (232) 
214.08162

>  <molecular_formula>  (232) 
C14H14S

>  <alogp>  (232) 
4.12

>  <topological_polar_surface_area>  (232) 
0.00

>  <rotatable_bond_count>  (232) 
4

>  <hydrogen_bond_acceptors>  (232) 
1

>  <hydrogen_bond_donors>  (232) 
0

>  <hydrogen_bond_acceptors_lipinski>  (232) 
1

>  <hydrogen_bond_donors_lipinski>  (232) 
0

>  <lipinski_rule_of_five_violations>  (232) 
0

>  <aromatic_rings_count>  (232) 
2

>  <qed_drug_likeliness>  (232) 
0.74

>  <formal_charge>  (232) 
0

>  <fractioncsp3>  (232) 
0.14

>  <number_of_minimal_rings>  (232) 
2

>  <van_der_walls_volume>  (232) 
205.66

>  <contains_sugar>  (232) 
False

>  <contains_ring_sugars>  (232) 
False

>  <contains_linear_sugars>  (232) 
False

>  <murcko_framework>  (232) 
S(Cc1ccccc1)Cc2ccccc2

>  <np_likeness>  (232) 
-0.68

>  <chemical_class>  (232) 
Benzene and substituted derivatives

>  <chemical_sub_class>  (232) 
Benzene and substituted derivatives

>  <chemical_super_class>  (232) 
Benzenoids

>  <direct_parent_classification>  (232) 
Benzene and substituted derivatives

>  <np_classifier_pathway>  (232) 
Shikimates and Phenylpropanoids

>  <np_classifier_superclass>  (232) 
nan

>  <np_classifier_class>  (232) 
nan

>  <np_classifier_is_glycoside>  (232) 
False

>  <organisms>  (232) 
Petiveria alliacea

>  <collections>  (232) 
ChemSpider NPs|Latin America dataset|NPASS|NuBBEDB|PubChem NPs|Super Natural II|TCMDB-Taiwan (Traditional Chinese Medicine database)|TCMID (Traditional Chinese Medicine Integrated Database)|UNPD (Universal Natural Products Database)|WikiData Natural Products|ZINC NP

>  <dois>  (232) 
10.1016/S0031-9422(01)00079-6

>  <synonyms>  (232) 
((Benzylthio)methyl)benzene|(C6H5CH2)2S|(phenylmethylsulfanyl)methylbenzene|(phenylmethylthio)methylbenzene|1,1'-(Thiobis(methylene))bisbenzene|1,1'-(sulfanediyldimethanediyl)dibenzene|1,1'-[thiobis(methylene)]dibenzene|1,3-Diphenyl-2-thiapropane|4-AMINOBENZOICACIDHCL|538-74-9|A829811|AC-16469|AI3-00842|AKOS003626437|B0440|BENZYL SULFIDE|BENZYL SULFIDE [HSDB]|BENZYL SULFIDE [MI]|Benzene, 1,1'-[thiobis(methylene)]bis-|Benzyl monosulfide|Benzyl thioether|CAS-538-74-9|CCRIS 5969|CHEMBL1369381|D88649|DB-052416|DTXCID704599|DTXSID6024599|Dibenzyl monosulfide|Dibenzyl sulfide, >=95.0% (HPLC)|Dibenzyl sulphide|Dibenzyl thioether|Dibenzylsulfid|EINECS 208-703-6|HMS2270O24|HSDB 2794|InChI=1\/C14H14S\/c1-3-7-13(8-4-1)11-15-12-14-9-5-2-6-10-14\/h1-10H,11-12H|MFCD00004784|MLS002152894|NCGC00091191-01|NCGC00257880-01|NS00042676|NSC 212544|NSC6648|Q08048624M|Q10374760|SCHEMBL11075647|SCHEMBL206|SMR000112558|STL482503|SULFIDE,DIBENZYL|Sulfide, dibenzyl|Tox21_200326|UNII-Q08048624M|[(Benzylsulfanyl)methyl]benzene|benzylsulfanylmethylbenzene|dibenzylsulfane|dibenzylsulfide

>  <cas>  (232) 
538-74-9

$$$$

     RDKit          2D

 30 32  0  0  0  0  0  0  0  0999 V2000
   12.0334   -2.9224    0.0000 C   0  0  0  0  0  0  0  0  0  0  0  0
   11.4261   -1.5509    0.0000 C   0  0  0  0  0  0  0  0  0  0  0  0
   12.1788   -0.2534    0.0000 O   0  0  0  0  0  0  0  0  0  0  0  0
   11.1774    0.8634    0.0000 C   0  0  0  0  0  0  0  0  0  0  0  0
   11.4922    2.3300    0.0000 O   0  0  0  0  0  0  0  0  0  0  0  0
    9.8058    0.2561    0.0000 C   0  0  0  0  0  0  0  0  0  0  0  0
    8.5083    1.0087    0.0000 C   0  0  0  0  0  0  0  0  0  0  0  0
    7.2077    0.2614    0.0000 C   0  0  0  0  0  0  0  0  0  0  0  0
    5.9102    1.0140    0.0000 C   0  0  0  0  0  0  0  0  0  0  0  0
    4.6097    0.2667    0.0000 C   0  0  0  0  0  0  0  0  0  0  0  0
    3.3121    1.0193    0.0000 C   0  0  0  0  0  0  0  0  0  0  0  0
    2.0116    0.2720    0.0000 C   0  0  0  0  0  0  0  0  0  0  0  0
    0.7141    1.0246    0.0000 C   0  0  0  0  0  0  0  0  0  0  0  0
   -0.5865    0.2773    0.0000 C   0  0  0  0  0  0  0  0  0  0  0  0
   -1.8840    1.0299    0.0000 C   0  0  0  0  0  0  0  0  0  0  0  0
   -3.1846    0.2826    0.0000 C   0  0  0  0  0  0  0  0  0  0  0  0
   -4.4821    1.0352    0.0000 C   0  0  0  0  0  0  0  0  0  0  0  0
   -5.7826    0.2879    0.0000 C   0  0  0  0  0  0  0  0  0  0  0  0
   -7.0801    1.0405    0.0000 C   0  0  0  0  0  0  0  0  0  0  0  0
   -8.3807    0.2931    0.0000 C   0  0  0  0  0  0  0  0  0  0  0  0
   -8.3838   -1.2068    0.0000 C   0  0  0  0  0  0  0  0  0  0  0  0
   -9.6843   -1.9542    0.0000 C   0  0  0  0  0  0  0  0  0  0  0  0
  -10.9818   -1.2016    0.0000 C   0  0  0  0  0  0  0  0  0  0  0  0
  -12.4094   -1.6622    0.0000 O   0  0  0  0  0  0  0  0  0  0  0  0
  -13.2886   -0.4469    0.0000 C   0  0  0  0  0  0  0  0  0  0  0  0
  -12.4044    0.7649    0.0000 O   0  0  0  0  0  0  0  0  0  0  0  0
  -10.9788    0.2984    0.0000 C   0  0  0  0  0  0  0  0  0  0  0  0
   -9.6782    1.0458    0.0000 C   0  0  0  0  0  0  0  0  0  0  0  0
    9.9595   -1.2360    0.0000 C   0  0  0  0  0  0  0  0  0  0  0  0
    8.8428   -2.2374    0.0000 O   0  0  0  0  0  0  0  0  0  0  0  0
  1  2  2  0
  2  3  1  0
  3  4  1  0
  4  5  2  0
  4  6  1  0
  6  7  1  0
  7  8  1  0
  8  9  1  0
  9 10  1  0
 10 11  1  0
 11 12  1  0
 12 13  1  0
 13 14  1  0
 14 15  1  0
 15 16  1  0
 16 17  1  0
 17 18  1  0
 18 19  1  0
 19 20  1  0
 20 21  2  0
 21 22  1  0
 22 23  2  0
 23 24  1  0
 24 25  1  0
 25 26  1  0
 26 27  1  0
 27 28  2  0
  6 29  2  0
 29 30  1  0
 29  2  1  0
 28 20  1  0
 27 23  1  0
M  END
>  <identifier>  (233) 
CNP0123405.0

>  <canonical_smiles>  (233) 
C=C1OC(=O)C(CCCCCCCCCCCCCC2=CC=C3OCOC3=C2)=C1O

>  <standard_inchi>  (233) 
InChI=1S/C25H34O5/c1-19-24(26)21(25(27)30-19)14-12-10-8-6-4-2-3-5-7-9-11-13-20-15-16-22-23(17-20)29-18-28-22/h15-17,26H,1-14,18H2

>  <standard_inchi_key>  (233) 
CRCRYZRLFQWUDJ-UHFFFAOYSA-N

>  <name>  (233) 
nan

>  <iupac_name>  (233) 
3-[13-(1,3-benzodioxol-5-yl)tridecyl]-4-hydroxy-5-methylene-furan-2-one

>  <annotation_level>  (233) 
5

>  <total_atom_count>  (233) 
64

>  <heavy_atom_count>  (233) 
30

>  <molecular_weight>  (233) 
414.54

>  <exact_molecular_weight>  (233) 
414.24062

>  <molecular_formula>  (233) 
C25H34O5

>  <alogp>  (233) 
6.52

>  <topological_polar_surface_area>  (233) 
64.99

>  <rotatable_bond_count>  (233) 
14

>  <hydrogen_bond_acceptors>  (233) 
5

>  <hydrogen_bond_donors>  (233) 
1

>  <hydrogen_bond_acceptors_lipinski>  (233) 
5

>  <hydrogen_bond_donors_lipinski>  (233) 
1

>  <lipinski_rule_of_five_violations>  (233) 
1

>  <aromatic_rings_count>  (233) 
1

>  <qed_drug_likeliness>  (233) 
0.28

>  <formal_charge>  (233) 
0

>  <fractioncsp3>  (233) 
0.56

>  <number_of_minimal_rings>  (233) 
3

>  <van_der_walls_volume>  (233) 
405.94

>  <contains_sugar>  (233) 
False

>  <contains_ring_sugars>  (233) 
False

>  <contains_linear_sugars>  (233) 
False

>  <murcko_framework>  (233) 
O1c2ccc(cc2OC1)CCCCCCCCCCCCCC3=CCOC3

>  <np_likeness>  (233) 
0.99

>  <chemical_class>  (233) 
Benzodioxoles

>  <chemical_sub_class>  (233) 
Benzodioxoles

>  <chemical_super_class>  (233) 
Organoheterocyclic compounds

>  <direct_parent_classification>  (233) 
Benzodioxoles

>  <np_classifier_pathway>  (233) 
Polyketides

>  <np_classifier_superclass>  (233) 
nan

>  <np_classifier_class>  (233) 
nan

>  <np_classifier_is_glycoside>  (233) 
False

>  <organisms>  (233) 
Aiouea montana|Iryanthera elliptica

>  <collections>  (233) 
ChemSpider NPs|Latin America dataset|NuBBEDB|Super Natural II|UNPD (Universal Natural Products Database)|WikiData Natural Products|ZINC NP

>  <dois>  (233) 
10.1016/0031-9422(80)83200-6|10.1016/S0031-9422(00)94227-4|10.1590/S0100-40422004000200005

>  <synonyms>  (233) 
Iryelliptin, 2-(\u221a\u00e8\u201a\u00c4\u221e-piperonyltridecyl)-4-methylidenetetronic acid

>  <cas>  (233) 
nan

$$$$

     RDKit          2D

 26 29  0  0  0  0  0  0  0  0999 V2000
   -6.2137   -0.9492    0.0000 C   0  0  0  0  0  0  0  0  0  0  0  0
   -4.9629   -1.7772    0.0000 O   0  0  0  0  0  0  0  0  0  0  0  0
   -3.6205   -1.1079    0.0000 C   0  0  0  0  0  0  0  0  0  0  0  0
   -3.5289    0.3893    0.0000 C   0  0  0  0  0  0  0  0  0  0  0  0
   -2.1864    1.0586    0.0000 C   0  0  0  0  0  0  0  0  0  0  0  0
   -0.9356    0.2306    0.0000 C   0  0  0  0  0  0  0  0  0  0  0  0
   -1.0272   -1.2666    0.0000 C   0  0  0  0  0  0  0  0  0  0  0  0
   -2.3696   -1.9358    0.0000 C   0  0  0  0  0  0  0  0  0  0  0  0
   -2.4612   -3.4330    0.0000 O   0  0  0  0  0  0  0  0  0  0  0  0
   -3.8036   -4.1023    0.0000 C   0  0  0  0  0  0  0  0  0  0  0  0
    0.4068    0.8999    0.0000 C   0  0  0  0  0  0  0  0  0  0  0  0
    1.6576    0.0720    0.0000 C   0  0  0  0  0  0  0  0  0  0  0  0
    1.5660   -1.4252    0.0000 C   0  0  0  0  0  0  0  0  0  0  0  0
    2.8168   -2.2531    0.0000 C   0  0  0  0  0  0  0  0  0  0  0  0
    4.1592   -1.5839    0.0000 C   0  0  0  0  0  0  0  0  0  0  0  0
    5.5548   -2.1336    0.0000 O   0  0  0  0  0  0  0  0  0  0  0  0
    6.5090   -0.9762    0.0000 C   0  0  0  0  0  0  0  0  0  0  0  0
    5.7031    0.2889    0.0000 O   0  0  0  0  0  0  0  0  0  0  0  0
    4.2508   -0.0867    0.0000 C   0  0  0  0  0  0  0  0  0  0  0  0
    3.0000    0.7413    0.0000 C   0  0  0  0  0  0  0  0  0  0  0  0
    0.4984    2.3971    0.0000 C   0  0  0  0  0  0  0  0  0  0  0  0
    1.8408    3.0664    0.0000 C   0  0  0  0  0  0  0  0  0  0  0  0
   -0.7524    3.2250    0.0000 C   0  0  0  0  0  0  0  0  0  0  0  0
   -0.6608    4.7222    0.0000 C   0  0  0  0  0  0  0  0  0  0  0  0
   -2.0948    2.5558    0.0000 C   0  0  0  0  0  0  0  0  0  0  0  0
   -3.3457    3.3837    0.0000 O   0  0  0  0  0  0  0  0  0  0  0  0
  1  2  1  0
  2  3  1  0
  3  4  2  0
  4  5  1  0
  5  6  2  0
  6  7  1  0
  7  8  2  0
  8  9  1  0
  9 10  1  0
  6 11  1  0
 11 12  1  1
 12 13  2  0
 13 14  1  0
 14 15  2  0
 15 16  1  0
 16 17  1  0
 17 18  1  0
 18 19  1  0
 19 20  2  0
 11 21  1  0
 21 22  1  6
 21 23  1  0
 23 24  1  1
 23 25  1  0
 25 26  2  0
  8  3  1  0
 20 12  1  0
 25  5  1  0
 19 15  1  0
M  END
>  <identifier>  (234) 
CNP0195972.1

>  <canonical_smiles>  (234) 
COC1=CC2=C(C=C1OC)[C@H](C1=CC=C3OCOC3=C1)[C@@H](C)[C@H](C)C2=O

>  <standard_inchi>  (234) 
InChI=1S/C21H22O5/c1-11-12(2)21(22)15-9-18(24-4)17(23-3)8-14(15)20(11)13-5-6-16-19(7-13)26-10-25-16/h5-9,11-12,20H,10H2,1-4H3/t11-,12-,20-/m0/s1

>  <standard_inchi_key>  (234) 
AQILVQJBVWGDOL-PVUDRZGPSA-N

>  <name>  (234) 
nan

>  <iupac_name>  (234) 
(2~{S},3~{R},4~{S})-4-(1,3-benzodioxol-5-yl)-6,7-dimethoxy-2,3-dimethyl-tetralin-1-one

>  <annotation_level>  (234) 
3

>  <total_atom_count>  (234) 
48

>  <heavy_atom_count>  (234) 
26

>  <molecular_weight>  (234) 
354.4

>  <exact_molecular_weight>  (234) 
354.14672

>  <molecular_formula>  (234) 
C21H22O5

>  <alogp>  (234) 
4.03

>  <topological_polar_surface_area>  (234) 
53.99

>  <rotatable_bond_count>  (234) 
3

>  <hydrogen_bond_acceptors>  (234) 
5

>  <hydrogen_bond_donors>  (234) 
0

>  <hydrogen_bond_acceptors_lipinski>  (234) 
5

>  <hydrogen_bond_donors_lipinski>  (234) 
0

>  <lipinski_rule_of_five_violations>  (234) 
0

>  <aromatic_rings_count>  (234) 
2

>  <qed_drug_likeliness>  (234) 
0.83

>  <formal_charge>  (234) 
0

>  <fractioncsp3>  (234) 
0.38

>  <number_of_minimal_rings>  (234) 
4

>  <van_der_walls_volume>  (234) 
319.59

>  <contains_sugar>  (234) 
False

>  <contains_ring_sugars>  (234) 
False

>  <contains_linear_sugars>  (234) 
False

>  <murcko_framework>  (234) 
O1c2ccc(cc2OC1)C3c4ccccc4CCC3

>  <np_likeness>  (234) 
1.06

>  <chemical_class>  (234) 
Aryltetralin lignans

>  <chemical_sub_class>  (234) 
Aryltetralin lignans

>  <chemical_super_class>  (234) 
Lignans, neolignans and related compounds

>  <direct_parent_classification>  (234) 
Aryltetralin lignans

>  <np_classifier_pathway>  (234) 
Shikimates and Phenylpropanoids

>  <np_classifier_superclass>  (234) 
Lignans

>  <np_classifier_class>  (234) 
Arylnaphthalene and aryltetralin lignans

>  <np_classifier_is_glycoside>  (234) 
False

>  <organisms>  (234) 
Virola sebifera

>  <collections>  (234) 
ChemSpider NPs|Latin America dataset|NuBBEDB|Super Natural II|ZINC NP

>  <dois>  (234) 
10.1002/1099-1565(200011/12)11:6<383::AID-PCA543>3.0.CO,2-M

>  <synonyms>  (234) 
nan

>  <cas>  (234) 
nan

$$$$

     RDKit          2D

 46 51  0  0  0  0  0  0  0  0999 V2000
   -0.4601   -5.3911    0.0000 C   0  0  0  0  0  0  0  0  0  0  0  0
   -1.2635   -4.1244    0.0000 C   0  0  0  0  0  0  0  0  0  0  0  0
   -2.3715   -5.1356    0.0000 C   0  0  0  0  0  0  0  0  0  0  0  0
   -2.4518   -3.2089    0.0000 C   0  0  0  0  0  0  0  0  0  0  0  0
   -2.2530   -1.7221    0.0000 C   0  0  0  0  0  0  0  0  0  0  0  0
   -0.8661   -1.1508    0.0000 C   0  0  0  0  0  0  0  0  0  0  0  0
   -2.0543   -0.2353    0.0000 C   0  0  0  0  0  0  0  0  0  0  0  0
   -1.8556    1.2514    0.0000 O   0  0  0  0  0  0  0  0  0  0  0  0
   -3.4413   -0.8066    0.0000 O   0  0  0  0  0  0  0  0  0  0  0  0
   -4.6295    0.1089    0.0000 O   0  0  0  0  0  0  0  0  0  0  0  0
   -6.0164   -0.4624    0.0000 C   0  0  0  0  0  0  0  0  0  0  0  0
   -7.2047    0.4531    0.0000 C   0  0  0  0  0  0  0  0  0  0  0  0
   -7.0060    1.9398    0.0000 O   0  0  0  0  0  0  0  0  0  0  0  0
   -8.1942    2.8553    0.0000 C   0  0  0  0  0  0  0  0  0  0  0  0
   -7.9955    4.3421    0.0000 O   0  0  0  0  0  0  0  0  0  0  0  0
   -9.5811    2.2840    0.0000 C   0  0  0  0  0  0  0  0  0  0  0  0
  -10.7694    3.1995    0.0000 O   0  0  0  0  0  0  0  0  0  0  0  0
   -9.7798    0.7973    0.0000 C   0  0  0  0  0  0  0  0  0  0  0  0
  -11.1668    0.2260    0.0000 O   0  0  0  0  0  0  0  0  0  0  0  0
   -8.5916   -0.1182    0.0000 C   0  0  0  0  0  0  0  0  0  0  0  0
   -8.7903   -1.6050    0.0000 O   0  0  0  0  0  0  0  0  0  0  0  0
   -0.6674    0.3359    0.0000 C   0  0  0  0  0  0  0  0  0  0  0  0
    0.7196    0.9072    0.0000 C   0  0  0  0  0  0  0  0  0  0  0  0
    1.9078   -0.0083    0.0000 C   0  0  0  0  0  0  0  0  0  0  0  0
    3.0960   -0.9237    0.0000 C   0  0  0  0  0  0  0  0  0  0  0  0
    1.7091   -1.4950    0.0000 C   0  0  0  0  0  0  0  0  0  0  0  0
    2.8973   -2.4105    0.0000 C   0  0  0  0  0  0  0  0  0  0  0  0
    4.2843   -1.8392    0.0000 C   0  0  0  0  0  0  0  0  0  0  0  0
    4.4830   -0.3525    0.0000 C   0  0  0  0  0  0  0  0  0  0  0  0
    5.8699    0.2188    0.0000 C   0  0  0  0  0  0  0  0  0  0  0  0
    5.6712   -1.2679    0.0000 C   0  0  0  0  0  0  0  0  0  0  0  0
    7.0581   -0.6967    0.0000 C   0  0  0  0  0  0  0  0  0  0  0  0
    8.4451   -0.1254    0.0000 C   0  0  0  0  0  0  0  0  0  0  0  0
    9.6333   -1.0409    0.0000 O   0  0  0  0  0  0  0  0  0  0  0  0
    8.6438    1.3614    0.0000 C   0  0  0  0  0  0  0  0  0  0  0  0
   10.0308    1.9327    0.0000 O   0  0  0  0  0  0  0  0  0  0  0  0
    7.4556    2.2769    0.0000 C   0  0  0  0  0  0  0  0  0  0  0  0
    6.6521    3.5436    0.0000 C   0  0  0  0  0  0  0  0  0  0  0  0
    8.5635    3.2881    0.0000 C   0  0  0  0  0  0  0  0  0  0  0  0
    6.0686    1.7056    0.0000 C   0  0  0  0  0  0  0  0  0  0  0  0
    4.8804    2.6211    0.0000 C   0  0  0  0  0  0  0  0  0  0  0  0
    3.4935    2.0498    0.0000 C   0  0  0  0  0  0  0  0  0  0  0  0
    3.2947    0.5630    0.0000 C   0  0  0  0  0  0  0  0  0  0  0  0
    2.1065    1.4785    0.0000 C   0  0  0  0  0  0  0  0  0  0  0  0
    0.3221   -2.0663    0.0000 C   0  0  0  0  0  0  0  0  0  0  0  0
    0.1234   -3.5531    0.0000 C   0  0  0  0  0  0  0  0  0  0  0  0
  1  2  1  0
  2  3  1  0
  2  4  1  0
  4  5  1  0
  5  6  1  0
  6  7  1  1
  7  8  2  0
  7  9  1  0
  9 10  1  0
 10 11  1  0
 12 11  1  6
 12 13  1  0
 13 14  1  0
 14 15  1  6
 14 16  1  0
 16 17  1  1
 16 18  1  0
 18 19  1  6
 18 20  1  0
 20 21  1  1
  6 22  1  0
 22 23  1  0
 23 24  1  0
 24 25  1  6
 24 26  1  0
 26 27  2  0
 27 28  1  0
 29 28  1  1
 29 30  1  0
 30 31  1  1
 30 32  1  0
 32 33  1  0
 33 34  1  6
 33 35  1  0
 35 36  1  1
 35 37  1  0
 37 38  1  0
 37 39  1  0
 37 40  1  0
 40 41  1  1
 41 42  1  0
 42 43  1  0
 43 44  1  1
 26 45  1  0
 45 46  1  6
 46  2  1  0
 45  6  1  0
 20 12  1  0
 43 24  1  0
 43 29  1  0
 40 30  1  0
M  END
>  <identifier>  (235) 
CNP0080528.1

>  <canonical_smiles>  (235) 
CC1(C)CC[C@]2(C(=O)OOC[C@H]3O[C@@H](O)[C@H](O)[C@@H](O)[C@@H]3O)CC[C@]3(C)C(=CC[C@@H]4[C@@]5(C)C[C@@H](O)[C@H](O)C(C)(C)[C@@H]5CC[C@]43C)[C@@H]2C1

>  <standard_inchi>  (235) 
InChI=1S/C36H58O10/c1-31(2)12-14-36(30(43)46-44-18-22-25(38)26(39)27(40)29(42)45-22)15-13-34(6)19(20(36)16-31)8-9-24-33(5)17-21(37)28(41)32(3,4)23(33)10-11-35(24,34)7/h8,20-29,37-42H,9-18H2,1-7H3/t20-,21+,22+,23-,24+,25+,26-,27+,28-,29+,33-,34+,35+,36-/m0/s1

>  <standard_inchi_key>  (235) 
QDEKAHFSPICWCW-RYGICSROSA-N

>  <name>  (235) 
nan

>  <iupac_name>  (235) 
[(2~{R},3~{S},4~{S},5~{R},6~{R})-3,4,5,6-tetrahydroxytetrahydropyran-2-yl]methyl (4~{a}~{S},6~{a}~{R},6~{a}~{S},6~{b}~{R},8~{a}~{R},10~{R},11~{R},12~{a}~{R},14~{b}~{S})-10,11-dihydroxy-2,2,6~{a},6~{b},9,9,12~{a}-heptamethyl-1,3,4,5,6,6~{a},7,8,8~{a},10,11,12,13,14~{b}-tetradecahydropicene-4~{a}-carboperoxoate

>  <annotation_level>  (235) 
4

>  <total_atom_count>  (235) 
104

>  <heavy_atom_count>  (235) 
46

>  <molecular_weight>  (235) 
650.85

>  <exact_molecular_weight>  (235) 
650.403

>  <molecular_formula>  (235) 
C36H58O10

>  <alogp>  (235) 
3.39

>  <topological_polar_surface_area>  (235) 
166.14

>  <rotatable_bond_count>  (235) 
4

>  <hydrogen_bond_acceptors>  (235) 
10

>  <hydrogen_bond_donors>  (235) 
6

>  <hydrogen_bond_acceptors_lipinski>  (235) 
10

>  <hydrogen_bond_donors_lipinski>  (235) 
6

>  <lipinski_rule_of_five_violations>  (235) 
2

>  <aromatic_rings_count>  (235) 
0

>  <qed_drug_likeliness>  (235) 
0.15

>  <formal_charge>  (235) 
0

>  <fractioncsp3>  (235) 
0.92

>  <number_of_minimal_rings>  (235) 
6

>  <van_der_walls_volume>  (235) 
nan

>  <contains_sugar>  (235) 
True

>  <contains_ring_sugars>  (235) 
True

>  <contains_linear_sugars>  (235) 
False

>  <murcko_framework>  (235) 
O(OCC12CCCCC2C3=CCC4C(CCC5CCCCC54)C3CC1)CC6OCCCC6

>  <np_likeness>  (235) 
3.00

>  <chemical_class>  (235) 
Prenol lipids

>  <chemical_sub_class>  (235) 
Triterpenoids

>  <chemical_super_class>  (235) 
Lipids and lipid-like molecules

>  <direct_parent_classification>  (235) 
Oleanane triterpenoids

>  <np_classifier_pathway>  (235) 
Terpenoids

>  <np_classifier_superclass>  (235) 
Triterpenoids

>  <np_classifier_class>  (235) 
Oleanane triterpenoids

>  <np_classifier_is_glycoside>  (235) 
True

>  <organisms>  (235) 
Siphoneugena densiflora

>  <collections>  (235) 
Latin America dataset|NuBBEDB|WikiData Natural Products

>  <dois>  (235) 
10.1002/PS.1278|10.1002/ps.1278

>  <synonyms>  (235) 
28-\u221a\u00e9\u00ac\u2264-D-glucopyranosyl-6\u221a\u00e9\u00ac\u2264-hydroxymaslinate

>  <cas>  (235) 
nan

$$$$

     RDKit          2D

 11 11  0  0  0  0  0  0  0  0999 V2000
   -4.8075    0.5800    0.0000 C   0  0  0  0  0  0  0  0  0  0  0  0
   -3.6204   -0.3370    0.0000 C   0  0  0  0  0  0  0  0  0  0  0  0
   -2.2328    0.2325    0.0000 C   0  0  0  0  0  0  0  0  0  0  0  0
   -1.0457   -0.6845    0.0000 O   0  0  0  0  0  0  0  0  0  0  0  0
    0.3420   -0.1150    0.0000 C   0  0  0  0  0  0  0  0  0  0  0  0
    0.5426    1.3716    0.0000 C   0  0  0  0  0  0  0  0  0  0  0  0
    1.9303    1.9411    0.0000 C   0  0  0  0  0  0  0  0  0  0  0  0
    3.1173    1.0241    0.0000 C   0  0  0  0  0  0  0  0  0  0  0  0
    2.9167   -0.4624    0.0000 C   0  0  0  0  0  0  0  0  0  0  0  0
    1.5290   -1.0320    0.0000 C   0  0  0  0  0  0  0  0  0  0  0  0
    1.3284   -2.5185    0.0000 O   0  0  0  0  0  0  0  0  0  0  0  0
  1  2  1  0
  2  3  1  0
  3  4  1  0
  4  5  1  0
  5  6  2  0
  6  7  1  0
  7  8  2  0
  8  9  1  0
  9 10  2  0
 10 11  1  0
 10  5  1  0
M  END
>  <identifier>  (236) 
CNP0327850.0

>  <canonical_smiles>  (236) 
CCCOC1=CC=CC=C1O

>  <standard_inchi>  (236) 
InChI=1S/C9H12O2/c1-2-7-11-9-6-4-3-5-8(9)10/h3-6,10H,2,7H2,1H3

>  <standard_inchi_key>  (236) 
JFSVGKRARHIICJ-UHFFFAOYSA-N

>  <name>  (236) 
2-Propoxyphenol

>  <iupac_name>  (236) 
2-propoxyphenol

>  <annotation_level>  (236) 
5

>  <total_atom_count>  (236) 
23

>  <heavy_atom_count>  (236) 
11

>  <molecular_weight>  (236) 
152.19

>  <exact_molecular_weight>  (236) 
152.08373

>  <molecular_formula>  (236) 
C9H12O2

>  <alogp>  (236) 
2.18

>  <topological_polar_surface_area>  (236) 
29.46

>  <rotatable_bond_count>  (236) 
3

>  <hydrogen_bond_acceptors>  (236) 
2

>  <hydrogen_bond_donors>  (236) 
1

>  <hydrogen_bond_acceptors_lipinski>  (236) 
2

>  <hydrogen_bond_donors_lipinski>  (236) 
1

>  <lipinski_rule_of_five_violations>  (236) 
0

>  <aromatic_rings_count>  (236) 
1

>  <qed_drug_likeliness>  (236) 
0.72

>  <formal_charge>  (236) 
0

>  <fractioncsp3>  (236) 
0.33

>  <number_of_minimal_rings>  (236) 
1

>  <van_der_walls_volume>  (236) 
nan

>  <contains_sugar>  (236) 
False

>  <contains_ring_sugars>  (236) 
False

>  <contains_linear_sugars>  (236) 
False

>  <murcko_framework>  (236) 
c1ccccc1

>  <np_likeness>  (236) 
0.08

>  <chemical_class>  (236) 
Phenol ethers

>  <chemical_sub_class>  (236) 
Phenol ethers

>  <chemical_super_class>  (236) 
Benzenoids

>  <direct_parent_classification>  (236) 
Phenol ethers

>  <np_classifier_pathway>  (236) 
Shikimates and Phenylpropanoids

>  <np_classifier_superclass>  (236) 
nan

>  <np_classifier_class>  (236) 
nan

>  <np_classifier_is_glycoside>  (236) 
False

>  <organisms>  (236) 
Croton nepetaefolius|Croton nepetifolius

>  <collections>  (236) 
Latin America dataset|NuBBEDB|WikiData Natural Products|ZINC NP

>  <dois>  (236) 
10.1021/NP50017A019|10.1021/np50017a019

>  <synonyms>  (236) 
1-hydroxy-2-propoxybenzene|2-Propoxyphenol #|2-propoxy-phenol|4-amino-N-(4-methylpyrimidin-2-yl)benzenesulfonamide; 5-[(3,4,5-trimethoxyphenyl)methyl]pyrimidine-2,4-diamine|6280-96-2|A834009|AI3-08096|AKOS000271027|CHEMBL2252443|CS-0152050|D95014|DS-5243|DTXSID90211901|EINECS 228-484-0|EN300-09246|HMS1788H05|InChI=1\/C9H12O2\/c1-2-7-11-9-6-4-3-5-8(9)10\/h3-6,10H,2,7H2,1H3|J-510293|JFSVGKRARHIICJ-UHFFFAOYSA-|MFCD06655033|NS00035174|NSC6186|Phenol, 2-propoxy-|SCHEMBL1805086|Z55993120|n-propyl-catechol|o-Propoxyphenol|ortho-normalpropoxyphenol

>  <cas>  (236) 
6280-96-2

$$$$

     RDKit          2D

 23 24  0  0  0  0  0  0  0  0999 V2000
   -8.2830   -0.5882    0.0000 C   0  0  0  0  0  0  0  0  0  0  0  0
   -7.0208   -1.3986    0.0000 O   0  0  0  0  0  0  0  0  0  0  0  0
   -5.6879   -0.7107    0.0000 C   0  0  0  0  0  0  0  0  0  0  0  0
   -5.6171    0.7876    0.0000 C   0  0  0  0  0  0  0  0  0  0  0  0
   -4.2841    1.4755    0.0000 C   0  0  0  0  0  0  0  0  0  0  0  0
   -3.0219    0.6650    0.0000 C   0  0  0  0  0  0  0  0  0  0  0  0
   -1.6889    1.3529    0.0000 C   0  0  0  0  0  0  0  0  0  0  0  0
   -0.4267    0.5425    0.0000 C   0  0  0  0  0  0  0  0  0  0  0  0
    0.9062    1.2304    0.0000 C   0  0  0  0  0  0  0  0  0  0  0  0
    0.9770    2.7287    0.0000 O   0  0  0  0  0  0  0  0  0  0  0  0
    2.1685    0.4199    0.0000 C   0  0  0  0  0  0  0  0  0  0  0  0
    2.0977   -1.0784    0.0000 C   0  0  0  0  0  0  0  0  0  0  0  0
    0.7647   -1.7663    0.0000 O   0  0  0  0  0  0  0  0  0  0  0  0
    3.3599   -1.8889    0.0000 C   0  0  0  0  0  0  0  0  0  0  0  0
    4.6929   -1.2010    0.0000 C   0  0  0  0  0  0  0  0  0  0  0  0
    5.9551   -2.0114    0.0000 O   0  0  0  0  0  0  0  0  0  0  0  0
    5.8843   -3.5098    0.0000 C   0  0  0  0  0  0  0  0  0  0  0  0
    4.7636    0.2974    0.0000 C   0  0  0  0  0  0  0  0  0  0  0  0
    3.5014    1.1078    0.0000 C   0  0  0  0  0  0  0  0  0  0  0  0
    3.5722    2.6061    0.0000 O   0  0  0  0  0  0  0  0  0  0  0  0
    4.9052    3.2940    0.0000 C   0  0  0  0  0  0  0  0  0  0  0  0
   -3.0927   -0.8333    0.0000 C   0  0  0  0  0  0  0  0  0  0  0  0
   -4.4256   -1.5212    0.0000 C   0  0  0  0  0  0  0  0  0  0  0  0
  1  2  1  0
  2  3  1  0
  3  4  2  0
  4  5  1  0
  5  6  2  0
  6  7  1  0
  7  8  1  0
  8  9  1  0
  9 10  2  0
  9 11  1  0
 11 12  2  0
 12 13  1  0
 12 14  1  0
 14 15  2  0
 15 16  1  0
 16 17  1  0
 15 18  1  0
 18 19  2  0
 19 20  1  0
 20 21  1  0
  6 22  1  0
 22 23  2  0
 23  3  1  0
 19 11  1  0
M  END
>  <identifier>  (237) 
CNP0266889.0

>  <canonical_smiles>  (237) 
COC1=CC=C(CCC(=O)C2=C(O)C=C(OC)C=C2OC)C=C1

>  <standard_inchi>  (237) 
InChI=1S/C18H20O5/c1-21-13-7-4-12(5-8-13)6-9-15(19)18-16(20)10-14(22-2)11-17(18)23-3/h4-5,7-8,10-11,20H,6,9H2,1-3H3

>  <standard_inchi_key>  (237) 
KGFYDIZALLKOLQ-UHFFFAOYSA-N

>  <name>  (237) 
Flavokawin A

>  <iupac_name>  (237) 
1-(2-hydroxy-4,6-dimethoxy-phenyl)-3-(4-methoxyphenyl)propan-1-one

>  <annotation_level>  (237) 
5

>  <total_atom_count>  (237) 
43

>  <heavy_atom_count>  (237) 
23

>  <molecular_weight>  (237) 
316.35

>  <exact_molecular_weight>  (237) 
316.13107

>  <molecular_formula>  (237) 
C18H20O5

>  <alogp>  (237) 
3.23

>  <topological_polar_surface_area>  (237) 
64.99

>  <rotatable_bond_count>  (237) 
7

>  <hydrogen_bond_acceptors>  (237) 
5

>  <hydrogen_bond_donors>  (237) 
1

>  <hydrogen_bond_acceptors_lipinski>  (237) 
5

>  <hydrogen_bond_donors_lipinski>  (237) 
1

>  <lipinski_rule_of_five_violations>  (237) 
0

>  <aromatic_rings_count>  (237) 
2

>  <qed_drug_likeliness>  (237) 
0.79

>  <formal_charge>  (237) 
0

>  <fractioncsp3>  (237) 
0.28

>  <number_of_minimal_rings>  (237) 
2

>  <van_der_walls_volume>  (237) 
291.19

>  <contains_sugar>  (237) 
False

>  <contains_ring_sugars>  (237) 
False

>  <contains_linear_sugars>  (237) 
False

>  <murcko_framework>  (237) 
c1ccc(cc1)CCCc2ccccc2

>  <np_likeness>  (237) 
0.57

>  <chemical_class>  (237) 
Linear 1,3-diarylpropanoids

>  <chemical_sub_class>  (237) 
Chalcones and dihydrochalcones

>  <chemical_super_class>  (237) 
Phenylpropanoids and polyketides

>  <direct_parent_classification>  (237) 
2'-Hydroxy-dihydrochalcones

>  <np_classifier_pathway>  (237) 
Shikimates and Phenylpropanoids

>  <np_classifier_superclass>  (237) 
Flavonoids

>  <np_classifier_class>  (237) 
Chalcones

>  <np_classifier_is_glycoside>  (237) 
False

>  <organisms>  (237) 
Goniothalamus gardneri|Iryanthera laevis|Piper majusculum|Piper methysticum|Sarcandra glabra

>  <collections>  (237) 
KNApSaCK|Latin America dataset|NPASS|NPEdia|NuBBEDB|TCMDB-Taiwan (Traditional Chinese Medicine database)|TCMID (Traditional Chinese Medicine Integrated Database)|UNPD (Universal Natural Products Database)|WikiData Natural Products|ZINC NP

>  <dois>  (237) 
10.1016/0031-9422(80)83082-2|10.1016/0031-9422(96)00352-4|10.1016/S0031-9422(00)00346-0|10.1055/S-2006-957608|10.1078/0944-7113-00068

>  <synonyms>  (237) 
1-(2-hydroxy-4,6-dimethoxyphenyl)-3-(4-methoxyphenyl)propan-1-one|2'-Hydroxy-4,4',6'-trimethoxydihydrochalcone|2'-hydroxy-4'-methoxy-46'-dimethoxydihydrochalcone|3791-75-1|CHEMBL523190|DS-007994|DTXSID50296850|Flavokavain A|Flavokawine A|KGFYDIZALLKOLQ-UHFFFAOYSA-N|LMPK12120550|NSC112156|SCHEMBL2282039

>  <cas>  (237) 
3791-75-1

$$$$

     RDKit          2D

 17 18  0  0  0  0  0  0  0  0999 V2000
   -6.4952   -1.1029    0.0000 C   0  0  0  0  0  0  0  0  0  0  0  0
   -6.4952    0.3971    0.0000 C   0  0  0  0  0  0  0  0  0  0  0  0
   -5.1962    1.1471    0.0000 C   0  0  0  0  0  0  0  0  0  0  0  0
   -3.8971    0.3971    0.0000 C   0  0  0  0  0  0  0  0  0  0  0  0
   -2.5981    1.1471    0.0000 C   0  0  0  0  0  0  0  0  0  0  0  0
   -1.2990    0.3971    0.0000 S   0  0  0  0  0  0  0  0  0  0  0  0
   -0.0000    1.1471    0.0000 S   0  0  0  0  0  0  0  0  0  0  0  0
    1.2990    0.3971    0.0000 S   0  0  0  0  0  0  0  0  0  0  0  0
    2.5981    1.1471    0.0000 C   0  0  0  0  0  0  0  0  0  0  0  0
    3.8971    0.3971    0.0000 C   0  0  0  0  0  0  0  0  0  0  0  0
    3.8971   -1.1029    0.0000 C   0  0  0  0  0  0  0  0  0  0  0  0
    5.1962   -1.8529    0.0000 C   0  0  0  0  0  0  0  0  0  0  0  0
    6.4952   -1.1029    0.0000 C   0  0  0  0  0  0  0  0  0  0  0  0
    6.4952    0.3971    0.0000 C   0  0  0  0  0  0  0  0  0  0  0  0
    5.1962    1.1471    0.0000 C   0  0  0  0  0  0  0  0  0  0  0  0
   -3.8971   -1.1029    0.0000 C   0  0  0  0  0  0  0  0  0  0  0  0
   -5.1962   -1.8529    0.0000 C   0  0  0  0  0  0  0  0  0  0  0  0
  1  2  2  0
  2  3  1  0
  3  4  2  0
  4  5  1  0
  5  6  1  0
  6  7  1  0
  7  8  1  0
  8  9  1  0
  9 10  1  0
 10 11  2  0
 11 12  1  0
 12 13  2  0
 13 14  1  0
 14 15  2  0
  4 16  1  0
 16 17  2  0
 17  1  1  0
 15 10  1  0
M  END
>  <identifier>  (238) 
CNP0138093.0

>  <canonical_smiles>  (238) 
C1=CC=C(CSSSCC2=CC=CC=C2)C=C1

>  <standard_inchi>  (238) 
InChI=1S/C14H14S3/c1-3-7-13(8-4-1)11-15-17-16-12-14-9-5-2-6-10-14/h1-10H,11-12H2

>  <standard_inchi_key>  (238) 
UXDMWYANCHMSJX-UHFFFAOYSA-N

>  <name>  (238) 
Benzyl trisulfide

>  <iupac_name>  (238) 
(benzyltrisulfanyl)methylbenzene

>  <annotation_level>  (238) 
5

>  <total_atom_count>  (238) 
31

>  <heavy_atom_count>  (238) 
17

>  <molecular_weight>  (238) 
278.47

>  <exact_molecular_weight>  (238) 
278.02576

>  <molecular_formula>  (238) 
C14H14S3

>  <alogp>  (238) 
5.42

>  <topological_polar_surface_area>  (238) 
0.00

>  <rotatable_bond_count>  (238) 
6

>  <hydrogen_bond_acceptors>  (238) 
3

>  <hydrogen_bond_donors>  (238) 
0

>  <hydrogen_bond_acceptors_lipinski>  (238) 
3

>  <hydrogen_bond_donors_lipinski>  (238) 
0

>  <lipinski_rule_of_five_violations>  (238) 
1

>  <aromatic_rings_count>  (238) 
2

>  <qed_drug_likeliness>  (238) 
0.51

>  <formal_charge>  (238) 
0

>  <fractioncsp3>  (238) 
0.14

>  <number_of_minimal_rings>  (238) 
2

>  <van_der_walls_volume>  (238) 
243.38

>  <contains_sugar>  (238) 
False

>  <contains_ring_sugars>  (238) 
False

>  <contains_linear_sugars>  (238) 
False

>  <murcko_framework>  (238) 
S(SCc1ccccc1)SCc2ccccc2

>  <np_likeness>  (238) 
0.13

>  <chemical_class>  (238) 
Benzene and substituted derivatives

>  <chemical_sub_class>  (238) 
Benzene and substituted derivatives

>  <chemical_super_class>  (238) 
Benzenoids

>  <direct_parent_classification>  (238) 
Benzene and substituted derivatives

>  <np_classifier_pathway>  (238) 
Shikimates and Phenylpropanoids

>  <np_classifier_superclass>  (238) 
nan

>  <np_classifier_class>  (238) 
nan

>  <np_classifier_is_glycoside>  (238) 
False

>  <organisms>  (238) 
Petiveria alliacea

>  <collections>  (238) 
ChemSpider NPs|KNApSaCK|Latin America dataset|NuBBEDB|Super Natural II|TCMDB-Taiwan (Traditional Chinese Medicine database)|TCMID (Traditional Chinese Medicine Integrated Database)|UNPD (Universal Natural Products Database)|WikiData Natural Products|ZINC NP

>  <dois>  (238) 
10.1002/(SICI)1096-9063(199707)50:3<228::AID-PS575>3.0.CO;2-J|10.1016/0031-9422(90)85294-P|10.1016/S0031-9422(01)00079-6|10.1016/S0031-9422(01)00304-1|10.1590/S0043-31442007000100004

>  <synonyms>  (238) 
(benzyltrisulfanyl)methylbenzene|1,3-Dibenzyltrisulfane|6493-73-8|A854560|AKOS015913250|Benzyltrisulfide|Bis(phenylmethyl)trisulfide|C8U5BEF9RN|CHEMBL378770|DB-008926|DTS|DTXSID90215247|Dibenzyl trisulfide|GUINEA HEN WEED ACTIVE INGREDIENT|NCI60_038710|NSC709944|SCHEMBL2803113|Trisulfide, bis(phenylmethyl)|UNII-C8U5BEF9RN|dibenzyl trisulphide|dibenzyltrisulfane

>  <cas>  (238) 
6493-73-8

$$$$

     RDKit          2D

 11 11  0  0  0  0  0  0  0  0999 V2000
   -3.0172   -1.5150    0.0000 O   0  0  0  0  0  0  0  0  0  0  0  0
   -2.4629   -0.1212    0.0000 C   0  0  0  0  0  0  0  0  0  0  0  0
   -3.3929    1.0557    0.0000 O   0  0  0  0  0  0  0  0  0  0  0  0
   -0.9787    0.0957    0.0000 C   0  0  0  0  0  0  0  0  0  0  0  0
   -0.4244    1.4895    0.0000 C   0  0  0  0  0  0  0  0  0  0  0  0
    1.0599    1.7064    0.0000 C   0  0  0  0  0  0  0  0  0  0  0  0
    1.9898    0.5295    0.0000 C   0  0  0  0  0  0  0  0  0  0  0  0
    3.4740    0.7463    0.0000 O   0  0  0  0  0  0  0  0  0  0  0  0
    1.4355   -0.8644    0.0000 C   0  0  0  0  0  0  0  0  0  0  0  0
    2.3655   -2.0413    0.0000 O   0  0  0  0  0  0  0  0  0  0  0  0
   -0.0487   -1.0813    0.0000 C   0  0  0  0  0  0  0  0  0  0  0  0
  1  2  2  0
  2  3  1  0
  2  4  1  0
  4  5  2  0
  5  6  1  0
  6  7  2  0
  7  8  1  0
  7  9  1  0
  9 10  1  0
  9 11  2  0
 11  4  1  0
M  END
>  <identifier>  (239) 
CNP0348948.0

>  <canonical_smiles>  (239) 
O=C(O)C1=CC=C(O)C(O)=C1

>  <standard_inchi>  (239) 
InChI=1S/C7H6O4/c8-5-2-1-4(7(10)11)3-6(5)9/h1-3,8-9H,(H,10,11)

>  <standard_inchi_key>  (239) 
YQUVCSBJEUQKSH-UHFFFAOYSA-N

>  <name>  (239) 
3,4-DIHYDROXYBENZOIC ACID

>  <iupac_name>  (239) 
3,4-dihydroxybenzoic acid

>  <annotation_level>  (239) 
5

>  <total_atom_count>  (239) 
17

>  <heavy_atom_count>  (239) 
11

>  <molecular_weight>  (239) 
154.12

>  <exact_molecular_weight>  (239) 
154.02661

>  <molecular_formula>  (239) 
C7H6O4

>  <alogp>  (239) 
0.80

>  <topological_polar_surface_area>  (239) 
77.76

>  <rotatable_bond_count>  (239) 
1

>  <hydrogen_bond_acceptors>  (239) 
3

>  <hydrogen_bond_donors>  (239) 
3

>  <hydrogen_bond_acceptors_lipinski>  (239) 
3

>  <hydrogen_bond_donors_lipinski>  (239) 
3

>  <lipinski_rule_of_five_violations>  (239) 
0

>  <aromatic_rings_count>  (239) 
1

>  <qed_drug_likeliness>  (239) 
0.52

>  <formal_charge>  (239) 
0

>  <fractioncsp3>  (239) 
0.00

>  <number_of_minimal_rings>  (239) 
1

>  <van_der_walls_volume>  (239) 
129.47

>  <contains_sugar>  (239) 
False

>  <contains_ring_sugars>  (239) 
False

>  <contains_linear_sugars>  (239) 
False

>  <murcko_framework>  (239) 
c1ccccc1

>  <np_likeness>  (239) 
0.74

>  <chemical_class>  (239) 
Benzene and substituted derivatives

>  <chemical_sub_class>  (239) 
Benzoic acids and derivatives

>  <chemical_super_class>  (239) 
Benzenoids

>  <direct_parent_classification>  (239) 
Hydroxybenzoic acid derivatives

>  <np_classifier_pathway>  (239) 
Shikimates and Phenylpropanoids

>  <np_classifier_superclass>  (239) 
Phenolic acids (C6-C1)

>  <np_classifier_class>  (239) 
Simple phenolic acids

>  <np_classifier_is_glycoside>  (239) 
False

>  <organisms>  (239) 
Aaptos aaptos|Abutilon theophrasti|Acacia aulacocarpa|Acacia cambagei|Acacia confusa|Acalypha australis|Acanthopanax gracilistylus|Acanthopanax ricinifolius|Acanthopanax sessiliflorum|Acer barbinerve|Acer pictum|Achillea aspleniifolia|Achillea millefolium|Achillea virescens|Achlys triphylla|Achyranthes obtusifolia|Achyrocline sp.|Achyrocline tomentosa|Acinetobacter baumannii|Acinetobacter calcoaceticus|Aconitum contortum|Aconitum nevadense|Aconitum pseudohuiliense|Aconitum sachalinense|Aconitum seravschanicum|Aconitum tasiromontanum|Aconogonon coriarium|Acrocarpia paniculata|Actaea racemosa|Actinidia Chinensis|Actinidia arguta|Actinidia callosa var.henryi|Actinidia chinensis|Actinidia chrysantha|Actinidia deliciosa|Actinidia eriantha|Actinidia glaucophylla|Actinidia latifolia|Actinidia polygama|Actinidia rubricaulis var.coriacea|Adansonia grandidieri|Adenia globosa|Adenostoma fasciculatum|Adenostoma sparsifolium|Aethusa cynapium|Agardhiella tenera|Ageratum mexicanum|Aglaia formosana|Aglaia grandis|Aguacate|Akebia quinata|Albizia julibrissin|Albizia procera|Alchornea cordifolia|Alchornea sp.|Alcyonium molle|Alectoria ochroleuca|Alexandrium excavatum|Alhagi maurorum|Alibertia macrophylla|Alkanna cappadocica|Allium angulosum|Allium cepa|Allium sativum|Allium sp.|Allochromatium minutissimum|Aloe africana|Aloe berhana|Aloe ferox|Aloe spicata|Aloe vera|Alpinia|Alpinia oxyphylla|Alpinia zerumbet|Alseodaphne corneri|Alstonia deplanchei|Alstonia spectabilis|Althaea armeniaca|Althaea broussonetiifolia|Althaea cannabina|Althaea narbonensis|Althaea officinalis|Amanita cokeri|Amburana cearensis|Amentotaxus yunnanensis|Ammothamnus lehmannii|Amomum daniellii|Amomum kravanh|Amomum tsao-ko|Amorphophallus Konjac|Amorphophallus konjac|Amorphophallus konjac K.Koch|Amsinckia tessellata|Anacardium occidentale|Anacardium sp.|Anaphalis araneosa|Anastatica hierochuntica|Anchusa officinalis|Andrographis elongata|Andrographis paniculata|Anemone flaccida|Anemone thalictroides|Angelica acutiloba|Angelica gigas|Angelica sinensis|Annona impressivenia|Annona salzmannii|Anodendron affine|Anolis lineatopus|Anthemis|Aphis graminum|Aphis pini|Aphyllocladus denticulatus|Apis mellifera|Aplophyllum popovii|Arabidopsis thaliana|Aralidium pinnatifidum|Araucaria bidwillii|Arbutus unedo|Arctostaphylos sp.|Ardisia neriifolia|Arnica parryi|Arnica viscosa|Artemisia anomala|Artemisia dentata|Artemisia giraldii|Artemisia kurramensis|Artemisia porrecta|Artemisia rehan|Artemisia siversiana|Artocarpus integra|Aspalathus linearis|Aspergillus desertorum|Aspergillus mutabilis|Aspergillus unguis|Asphodelus tenuifolius|Aspidosperma subincanum|Aster alpinus|Aster himalaicus|Aster indicus|Aster sedifolius|Asterias glacialis|Asteriscus graveolens|Astilbe myriantha|Atalantia racemosa|Atalantia wightii|Athanasia dregeana|Aucuba chinensis|Aulacocephalus temmincki|Aulosira fertilissima|Aurelia aurita|Avena sativa|Avrainvillea longicaulis|Baccharis megapotamica|Baccharis solieri|Bacillus litoralis|Badilloa steetzii|Balanophora japonica|Baphia bancoensis|Bassia muricata|Bauhinia glauca|Bauhinia racemosa|Bauhinia vahlii|Beauveria bassiana|Begonia nantoensis|Berberis crataegina|Berchemia floribunda|Berchemia racemosa|Bersama swinnyi|Bersama yangambiensis|Beta vulgaris|Betula pendula|Betula pubescens|Bhesa nitidissima|Bistorta manshuriensis|Bistorta officinalis|Bistorta vivipara|Bitter bush|Blainvillea latifolia|Bletilla formosana|Bletilla striata|Blumea Balsamifera|Blumea balsamifera|Boletinus paluster|Bombus muscorum|Bombus terrestris|Botrydium granulatum|Botryllus leachi|Brassica napus|Brassica rapa|Brassica rapa subsp. oleifera|Breea segeta|Brickellia vernicosa|Brosimopsis acutifolium|Brosimum acutifolium|Broussonetia papyrifera|Bryophyllum pinnatum|Bryum argenteum|Buddleja cordata|Bulbophyllum protractum|Bulbophyllum vaginatum|Buphane fischeri|Bupleurum montanum|Bursera tonkinensis|Buxus hildebrandtii|Cacalia bicolor|Cacia confusa|Cajanus cajan|Calcarisporium thermophilum|Calceolaria thyrsiflora|Calendula sp.|Calliandra haematocephala|Callicarpa acuminata|Callicarpa japonica|Callistemon coccineus|Callophycus serratus|Calluna sp.|Calocera viscosa|Calophyllum brasiliense|Calophyllum polyanthum|Calophyllum thwaitesii|Caltha palustris|Calycanthus floridus|Calystegia pubescens|Camellia japonica|Camellia pitardii|Camellia sinensis|Campanula persicifolia|Campsis grandiflora|Camptothecium lutescens|Cananga odorata|Capsicum annuum|Carica dodecaphylla|Carum carvi|Carum sp.|Carya illinoinensis|Carya ovata|Caryopteris mongholica|Castanea dentata|Castanea mollissima|Castanopsis sclerophylla|Casuarina equisetifolia|Casuarina sp.|Catunaregam tomentosa|Caulocystis cephalornithos|Cecropia hololeuca|Cecropia pachystachya|Cedrela salvadorensis|Cedronella canariensis|Ceiba speciosa|Celastrus flagellaris|Centaurea bracteata|Centaurea bracteata Scop.|Centaurea collina|Centaurea deflexa|Centaurea horrida|Centaurea huber-morathii|Centaurea pseudoscabiosa|Centaurea pseudoscabiosa subsp.pseudoscabiosa Boiss.et aBuhse|Centaurea salonitana|Centaurea spruneri|Centaurium sp.|Centella asiatica|Centipeda minima|Centrosema pascuorum|Ceratozamia fuscoviridis|Chaenomeles sinensis|Chaenomeles speciosa|Chamaecyparis lawsoniana|Chamaemelum nobile|Chamerion dodonaei|Cheilanthes marantae|Cheniella glauca|Chondrilla juncea|Chromolaena hirsuta|Chromolaena subhastata|Chrysanthemum maximum|Chrysanthemum morifolium|Chrysanthemum segetum|Chrysanthemum sinense|Chrysanthemum x morifolium|Cibotium Barometz|Cibotium barometz|Cichorium glandulosum|Cichorium intybus|Cicuta sp.|Cinamomum cassia|Cinnamomum Cassia|Cinnamomum aromaticum|Cinnamomum burmanni|Cinnamomum cassia|Cinnamomum iners|Cinnamomum kotoense|Cinnamomum pachyphyllum|Cinnamomum reticulatum|Cinnamomum sp.|Cinnamomum verum|Cinnamomum zeylanicum|Cinnamon|Cirsium setosum|Cis punctifer|Cistus creticus|Citrullus lanatus|Citrus glauca|Citrus grandis|Citrus maxima|Citrus medica|Citrus paradisi|Citrus reticulata|Citrus tangerina|Citrus unshiu|Citrus × paradisi|Cladonia bellidiflora|Cladrastis platycarpa|Clathria basilana|Clematis hexapetala|Cleome chrysantha|Clinopodium laxiflorum|Clione antarctica|Clusia sandiensis|Cnidium officinale|Coccinia sp.|Cocos nucifera|Codiaeum variegatum|Codium decorticatum|Codonopsis pilosula|Coffea|Colchicum bornmuelleri|Colchicum brachyphyllum|Colchicum kotschyi|Colchicum speciosum|Colletotrichum gloeosporioides|Commelina communis|Commiphora mukul|Conocephalum japonicum|Consolida sp.|Conyza canadensis|Coprinopsis atramentaria|Coprosma areolata|Coptis trifolia subsp. groenlandica|Corchorus capsularis|Corchorus olitorius|Cordia sinensis|Cordiera macrophylla|Cordyceps sinensis|Cordylanthus kingii|Coriandrum sativum|Cornus officinalis|Cortinarius orellanus|Corydalis conspersa|Corydalis montana|Corydalis persica|Corylus americana|Corynanthe pachyceras|Cota palaestina|Cota samuelssonii|Cota tinctoria|Cotinus coggygria|Cotoneaster orbicularis|Cowania mexicana|Crambe tatarica|Crataegus laevigata|Crataegus monogyna|Crataegus oxyacantha L. (1753)|Crataegus pinnatifida|Crataegus pontica|Crataegus rhipidophylla|Cratoxylum arborescens|Cremastra appendiculata|Crinipellis scabella|Critonia quadrangularis|Crocus minimus|Crocus sativus|Croton cumingii|Croton geayi|Cryptocarya amygdalina|Cryptocarya aschersoniana|Cryptolepis Sinensis|Cryptolepis sinensis|Cryptolestes ferrugineus|Cryptosporium pinicola|Cryptotermes cynocephalus|Cryptotympana|Cryptotympana sp.|Cucurbita maxima|Cucurbita moschata|Cuminum cyminum|Cunonia macrophylla|Cupressus sempervirens|Curculigo breviscapa|Curculigo crassifolia|Curculigo pilosa|Curcuma sp.|Cyamopsis sp.|Cyanthillium patulum|Cylindrospermum muscicola|Cynoglossum amabile|Cynometra lujae|Cynomorium songaricum|Cyperus Rotundus|Cyperus rotundus|Cyperus rotundus L.|Cypripedium calceolus|Cystophora scalaris|Cytophaga hutchinsoni|Cytospora ceratosperma|Dacrydium fonki|Dalbergia assamica|Dalbergia nitidula|Dalbergia rubiginosa|Damson|Dasycladus vermicularis|Daucus carota|Davallia bullata|Davallia mariesii|Davallia trichomanoides|Decachaeta ovatifolia|Deguelia hatschbachii|Delphinium cyphoplectrum|Dendriopoterium menendezii|Dendrobium candidum|Dendrobium chrysanthum|Dendrobium chrysotoxum|Dendrobium fimbriatum|Dendrobium loddigesii|Dendrobium nobile|Dendrodoris krebsii|Dermocybe cardinalis|Derris amazonica|Desmodium gangeticum|Desmodium pulchellu|Desmodium styracifolium|Dianthus caryophyllus|Diaphus suborbitalis|Dicranopteris dichotoma|Dicranopteris linearis|Dicranopteris pedata|Dictyopteris australis|Dimocarpus longan|Dioscorea communis|Dioscorea nipponica|Diospyros cornii|Diospyros eriantha|Diospyros glaucifolia|Diospyros kaki|Diospyros lotus|Diospyros multiflora|Diplodia natalensis|Diploprion bifasciatum|Dipsacus asper|Dipsacus inermis|Dipteracanthus prostratus|Dipteryx alata|Disynaphia halimifolia|Dodonaea viscosa|Doodia picta|Dovyalis afra|Dracaena ombet|Drimia altissima|Drimia elata|Drynaria fortunei|Drypetes tessmanniana|Duchesnea chrysantha|Dumortiera hirsuta|Dysoxylum cumingianum|Echinacea angustifolia|Echinacea purpurea|Echinacea simulata|Echinocystis lobata|Echinops transiliensis|Echinopsis terscheckii|Eclipta alba|Eclipta prostrata|Elephantopus hirtiflorus|Elettaria cardamomum|Eleutherococcus giraldii|Eleutherococcus senticosus|Eleutherococcus sessiliflorus|Elsholtzia ciliata|Elymnias thryallis|Enceliopsis argophylla|Entada phaseoloides|Entada rheedei|Ephedra aphylla|Ephedra equisetina|Ephedra sp.|Epichloe festucae var. lolii|Epilobium angustifolium|Epilobium dodonaei|Epilobium hirsutum|Epilobium prantlii|Episcia cupreata|Equisetum arvense|Eragrostis viscosa|Eremanthus seidelii|Eremurus chinensis|Eria mollis|Erica australis|Erigeron breviscapus|Erigeron canadensis|Erigeron crispus|Eriocaulon buergerianum|Eriocaulon sieboldianum|Eriocheir sinensis|Erodium cicutarium|Erodium moschatum|Erodium stephanianum|Erycibe hainanensis|Erylus trisphaerus|Erythrophleum chlorostachys|Erythroxylum lucidum|Erythroxylum macrophyllum|Erythroxylum moonii|Escontria chiotilla|Eucalyptus|Eucalyptus dalrympleana|Eucalyptus grandis|Eucalyptus sieberiana|Eucommia Ulmoides|Eucommia ulmoides|Eucommia ulmoides Oliver|Eucryphia cordifolia|Eugenia edulis|Eugenia selloi|Eunicella cavolinii|Euonymus alatus|Eupatorium areolare|Eupatorium argentinum|Eupatorium gracile|Eupatorium sachalinense|Euphorbia amygdaloides|Euphorbia hirta|Euphorbia kansui|Euphorbia lunulata|Euphorbia resinifera|Euphorbia retusa|Euphorbia soongarica|Euphoria longana|Eurycoma longifolia|Euthamia graminifolia|Excoecaria acerifolia|Excoecaria agallocha|FOOD SAKE|Fagopyrum acutatum|Fagopyrum cymosum|Fagopyrum dibotrys|Fagopyrum esculentum|Fagopyrum sp.|Fagopyrum spp|Fagopyrum spp.|Fagopyrum tataricum|Falcaria vulgaris|Fallopia convolvulus|Fallopia multiflora|Fallopia sp.|Fatsia japonica|Felicia amelloides|Felimida luteorosea|Festuca arundinacea|Festuca ovina|Festuca pratensis|Festuca rubra|Ficaria verna|Ficus glumosa|Ficus mucuso|Ficus pandurata|Ficus simplicissima|Filipendula ulmaria|Flacourtia jangomas|Flemingia congesta|Foeniculum sp.|Foeniculum vulgare|Fomes cajanderi|Forsteronia refracta|Fragaria|Fragaria x ananassa|Fraxinus angustifolia subsp. oxycarpa|Fraxinus sp.|Fridericia chica|Fritillaria ningguoensis|Fructus choerospondiatis|Fructus mori|Fumaria agraria|Fumaria barnolae|Fumaria capreolata|Fumaria densiflora|Fumaria officinalis|Fumaria parviflora|Fumaria vaillantii|Gadus morhua callarias|Galatella sedifolia|Galinsoga ciliata|Galinsoga quadriradiata|Gambierdiscus toxicus|Ganoderma lucidum|Ganoderma sinense|Garcinia cambogia|Garcinia cowa|Garcinia gummi-gutta|Garcinia portoricensis|Gardenia jasminoides|Gaultheria procumbens|Geigeria schinzii|Gentiana rigescens|Geranium carolinianum|Geranium thunbergii|Geranium wilfordii|Geum aleppicum|Geum japonicum|Geum macrophyllum|Gillenia stipulata|Ginkgo biloba|Ginkgo sp.|Glebionis coronaria|Glebionis segetum|Glechoma grandis|Glechoma longituba|Gleditsia caspica|Gliricidia sepium|Globularia sp.|Glycine|Glycosmis pseudoracemosa|Glycyrrhiza uralensis|Gmelina asiatica|Goniothalamus dolichocarpus|Goniothalamus undulatus|Gossypium hirsutum|Gossypium hirsutum L.|Gracilaria textorii|Gratiola officinalis|Grewia mollis|Grindelia discoidea|Guatteria boliviana|Guettarda platypoda|Gymnocarpium robertianum|Gynochthodes parvifolia|Gyrophora hyperborea|Haemanthus amarylloides|Haemanthus toxicarius|Hagenia abyssinica|Haplophyllum dauricum|Haplophyllum ramosissimum|Haplopteris anguste-elongata|Harpephyllum afrum|Harpephyllum caffrum|Hedera helix|Hedera hibernica|Hedysarum setigerum|Hedysarum theinum|Helenium quadridentatum|Helianthemum sessiliflorum|Helichrysum angustifolium|Helichrysum cephaloideum|Helichrysum mixtum|Helichrysum sp.|Helichrysum sutherlandii|Helicia nilagirica|Heliotropium floridum|Helminthotheca echioides|Hemionitis japonica|Hemiselmis virescens|Herba acalyphae|Herba glechomae|Herba meconpsis integrifoliae|Herba serissae|Herniaria|Hertia cheirifolia|Hesperis matronalis|Hesperocyparis bakeri|Heterosigma akashiwo|Heterotheca grandiflora|Heterotheca sp.|Hibiscus Sabdariffa|Hibiscus sabdariffa|Hibiscus sabdariffa L.|Hippomarathrum cristatum|Hippophae rhamnoides|Hoffmannia strigillosa|Holothuria atra|Homalomena occulta|Homo sapiens|Hordeum vulgare|Hornstedtia reticulata|Hortonia floribunda|Houttuynia cordata|Hovenia acerba|Humata pectinata|Humulus lupulus|Humulus sp.|Hydnora abyssinica|Hydnora johannis|Hydrangea macrophylla|Hydrolithon reinboldii|Hygrophorus eburneus|Hylotelephium mingjinianum|Hylotrupes bajulus|Hymenochaete xerantica|Hypericum balearicum|Hypericum hirsutum|Hypericum japonicum|Hypericum perforatum|Hypericum reptans|Hypericum sampsonii|Hypericum_laricifolium_Juss|Hypochoeris radicata|Hypolepis punctata|Idea leuconoe|Ilex chinensis|Ilex cornuta|Ilex purpurea|Illicium sp.|Illicium verum|Impatiens edgeworthii|Imperata cylindrica|Imperata cylindrica var. major|Inonotus obliquus|Inula britannica|Inula grantioides|Iris florentina|Iris sp.|Iris x germanica|Isaria fumosorosea|Isatis quadrialata|Jacaranda caucana|Jackiella javanica|Jasminum grandiflorum|Jasonia candicans|Jatropha macrorhiza|Juglans cinerea|Juglans nigra|Juglans regia|Jugo|Juniperus brevifolia|Juniperus horizontalis|Juniperus rigida var. conferta|Justicia betonica|Justicia secunda|Kaempferia marginata|Kalanchoe delagoensis|Kalanchoe pinnata|Kalanchoe spathulata|Kalanchoe tubiflora|Kali turgidum|Kalopanax septemlobus|Kandelia candel|Kaunia saltensis|Kniphofia foliosa|Koenigia coriaria|Koompassia malaccensis|Lactarius deliciosus|Lactuca indica|Lactuca laciniata|Laetiporus versisporus|Lampranthus sociorum|Lantana montevidensis|Lantana trifolia|Lanxangia tsao-ko|Larix kaempferi|Lasiosiphon kraussianus|Lathyrus tingitanus|Laurus nobilis|Lavandula pedunculata|Lavandula sp.|Lavandula vera|Lecanora planaica|Lecanora sulphurella|Lecythis elliptica|Lemaireocereus griseus|Lemon Drop Mangosteen|Lens culinaris|Lentinus tigrinus|Leontice kiangnanensis|Leontodon saxatilis|Leontodon taraxacoides|Lepidaploa remotiflora|Lepisanthes rubiginosa|Leptochloa digitata|Lespedeza bicolor|Leucanthemum maximum|Leucetta microrhaphis|Leuzea carthamoides|Licaria chrysophylla|Ligularia cymbulifera|Ligusticum chuanxiong|Ligusticum sinense|Ligustrum japonicum|Ligustrum lucidum|Ligustrum ovalifolium|Lilium brownii|Lilium brownii f. e. brown var. colchesteri wils|Lilium lancifolium|Lilium pumilum|Lilium umbellatum|Liriodendron tulipifera|Litchi chinensis|Lithraea molleoides|Llex chinensis|Lobelia inflata|Lobophytum laevigatum|Lobophytum microlobulatum|Lolium arundinaceum|Lolium pratense|Lonicera japonica|Lonicera microphylla|Lophiostoma vaginatispora|Lophocereus marginatus|Lupinus angustifolius|Lycopus europaeus|Lycopus lucidus|Lygodium japonicum|Lysiana subfalcata|Lysimachia christinae|Macaranga peltata|Magnolia montana|Mallotus nudiflorus|Mallotus pallidus|Malus domestica|Malus doumeri varl formosana|Malus pumila|Mangifera indica|Manihot esculenta|Mappia foetida|Mappia nimmoniana|Marasmiellus ramealis|Marila laxiflora|Marrubium supinum|Matteuccia struthiopteris|Maytenus buxifolia|Medicago sativa|Medium grandiflorum|Melaleuca decora|Melaleuca leucadendra|Melanargia galathea|Melia azedarach|Melia azedarach var. toosendan|Melilotus sp.|Melissa officinalis|Melissa sp.|Mentha X piperita|Menyanthes trifoliata|Mesembryanthemum tortuosum|Mespilus germanica|Metalasia bolusii|Metanarthecium luteoviride|Metapenaeus macleayi|Methanosarcina barkeri|Mikania luetzelburgii|Miliusa velutina|Millettia erythrocalyx|Millettia pinnata|Mitracarpus scaber|Molineria capitulata|Molineria crassifolia|Mollinedia costaricensis|Momordica charantia|Monanchora unguiculata|Monomorium delagoense|Moonia heterophylla|Morinda morindoides|Morus alba|Mucuna membranacea|Musa sp.|Musanga cecropioides|Muscari botryoides|Mycena sanguinolenta|Mycobacterium leprae|Myrciaria cauliflora|Myristica fragrans|Nannocystis exedens|Narcissus concolor|Nardostachys jatamansi|Nauclea officinalis|Nauclea rhynchophylla|Nectandra grandiflora|Negombata magnifica|Nelumbo nucifera|Nematolepis phebalioides|Nemuaron humboldtii|Neobalanocarpus heimii|Neofusicoccum mangiferae|Neolentinus lepideus|Neolitsea villosa|Nephelium ramboutan-ake|Nidus vespae|Nonomuraea dietziae|Nostoc spongiaeforme|Nothapodytes nimmoniana|Notholaena dealbata|Ocimum tenuiflorum|Odontosoria gymnogrammoides|Oenothera biennis|Oenothera elata|Oenothera erythrosepala|Oenothera glazioviana|Oenothera grandiflora|Oenothera lamarckiana|Oenothera suaveolens|Olea europaea|Olea sp.|Olearia pimeleoides|Oleum cinnamomi|Oncoba echinata|Onobrychis arenaria|Onoclea struthiopteris|Ononis sp.|Ononis vaginalis|Ophiocordyceps heteropoda|Ophiocordyceps sinensis|Ophiolepis superba|Ophryosporus charua|Opuntia Dillenii|Opuntia dillenii HAW.|Oreopteris quelpaertensis|Origanum sp.|Origanum vulgare|Ormosia hosiei|Ormosia macrophylla|Ornithoglossum viride|Orthosphenia mexicana|Oryza Sativa|Oryza sativa|Oryza sativa cv. Heugjinjubyeo|Osmundaria spiralis|Osteospermum muricatum|Ostericum grosseserratum|Ostericum koreanum|Othonna sedifolia|Oxyanthus speciosus|Pachycereus pringlei|Pachycereus weberi|Pachygone dasycarpa|Palmaria palmata|Pangium edule|Papaver radicatum|Papaver rhoeas|Papilio phorcas|Parabenzoin trilobum|Parablechnum minus|Paramignya griffithii|Patrinia scabiosifolia|Pelargonium reniforme|Pelargonium sidoides|Pemphis acidula|Penicillium alutaceum|Penicillium commune|Penicillium cyclopium|Peperomia vulcanica|Perilla frutescens|Peritassa compta|Persicaria amphibia|Persicaria bistorta|Persicaria capitata|Persicaria hydropiper|Persicaria hydropiperoides|Persicaria lapathifolia|Persicaria mitis|Persicaria nepalensis|Persicaria orientalis|Persicaria sp.|Pertusaria amara|Pertusaria truncata|Perymenium mendezii|Petasites formosanus|Petasites laevigatus|Petiveria alliaceae|Petunia nyctaginiflora|Peucedanum oroselinum|Phaeolus schweinitzii|Phaleria macrocarpa|Phallusia fumigata|Phanera vahlii|Phaseolus vulgaris|Phellinus igniarius|Phellinus linteus|Phellodendron chinense|Phlomis umbrosa|Phlomoides hamosa|Phlomoides medicinalis|Phlomoides rotata|Phoenix dactylifera|Phora velutina|Phycomyces blakesleeanus|Phyllanthus Emblica|Phyllanthus emblica|Phyllanthus klotzschianus|Phyllanthus niruri|Phyllanthus sp.|Phyllanthus tenellus|Phyllanthus urinaria|Physalis alkekengi|Physalis edulis|Picea abies|Picea ajanensis|Picea glauca|Picea jezoensis|Picea jezoensis var. jezoensis|Picea koraiensis|Picea obovata|Picea polita|Picea torano|Picris echioides|Picrorhiza kurrooa|Picrorhiza kurrosa|Picrorhiza scrophulariiflora|Pimpinella sp.|Pinellia sp.|Pinellia ternata|Pinus abies|Pinus edulis|Pinus glauca|Pinus heldreichii|Pinus pinaster|Pinus ponderosa|Pinus sibirica|Pinus sylvestris|Piper nigrum|Piper sp.|Piper umbellatum|Pistacia chinensis|Pisum sativum|Pittosporum brevicalyx|Plantago lanceolata|Plantago media|Platostoma palustre|Platycarya strobilacea|Plectosphaerella cucumerina|Plectranthus caninus|Pleiogynium timorense|Pleiogynium timoriense|Pleione bulbocodioides|Pleione yunnanensis|Pleocarphus revolutus|Pleurolobus gangeticus|Pleurophycus gardneri|Plinia cauliflora|Plinia edulis|Pluchea lanceolata|Poaceae|Pocillopora eydouxi|Podocarpus montanus|Podocarpus neriifolius|Podolepis longipedata|Pogostemon cablin|Polycephalomyces nipponicus|Polygonum Cuspidatum|Polygonum arenastrum|Polygonum aviculare|Polygonum bistorta|Polygonum cognatum|Polygonum coriarium|Polygonum cuspidatum|Polygonum hydropiper|Polygonum lapathifolium|Polygonum mite|Polygonum orientale|Polygonum persicaria|Polypodium decumanum|Polyporus pini|Polytolypa hystricis|Polyzonium rosalbum|Populus angustifolia|Populus cathayana|Populus ciliata|Populus deltoides|Populus euphratica|Populus lasiocarpa|Poria cocos|Portulaca oleracea|Posidonia oceanica|Posoqueria latifolia|Potentilla sp.|Potentilla wallichiana|Premna tomentosa|Prorocentrum micans|Prosopis kuntzei|Protea obtusifolia|Prunella vulgaris|Prunus amygdalus|Prunus angustifolia|Prunus armeniaca|Prunus avium|Prunus cerasifera|Prunus cerasus|Prunus domestica|Prunus dulcis|Prunus japonica|Psephellus huber-morathii|Pseudocydonia sinensis|Pseudocyphellaria impressa|Pseudolarix amabilis|Pseudolarix kaempferi Gord.|Pseudomonas putida|Pseudonocardia autotrophica|Psiadia dentata|Psidium friedrichsthalianum|Psidium guajava|Psolus eximius|Psora corallina|Psychotria stachyoides|Pteris inaequalis|Pteris semipinnata|Pteris spinulosa|Pterocarpus officinalis|Pteryxia terebinthina|Puccinia coronata|Pulicaria insignis|Pulicaria wightiana|Punica granatum|Punica sp.|Purshia mexicana|Pyrola calliantha|Pyrrosia Sheareri|Pyrrosia lingua|Pyrrosia petiolosa|Pyrrosia sheareri|Pyrrosia tricuspis|Quercus dentata|Quercus ilex|Quercus suber|Ramalina terebrata|Ranunculus cantoniensis|Ranunculus chinensis|Ranunculus sceleratus|Ranunculus sieboldii|Ranzania japonica|Rapanea lancifolia|Raphanus sativus|Rattus rattus|Rauvolfia salicifolia|Rehmannia glutinosa|Relhania pumila|Rhabdia lycioides|Rhabdonia verticillata|Rhamnus disperma|Rhamnus thymifolia|Rhamnus thymifolius|Rhaponticum carthamoides|Rheedia acuminata|Rheum tanguticum|Rhinoceros sondaicus|Rhizobium leguminosarum|Rhizoma fagopyri cymosi|Rhizoma homalomenae occultae|Rhizophora tagal|Rhizoplaca baranowii|Rhizopus stolonifer|Rhodiola crenulata|Rhodiola sacra|Rhododendron dauricum|Rhododendron mucronulatum|Rhododendron simsii|Rhodoglossum japonicum|Rhodotorula mucilaginosa|Rhodotorula rubra|Rhus vulgaris|Ritterella rubra|Rivularia firma|Roccellaria mollis|Rosa canina|Rosa chinensis|Rosa roxburghii|Rosa rugosa|Rosa taiwanensis|Rosmarinus sp.|Rothmannia wittii|Rubia tetragona|Rubrivivax gelatinosus|Rubus chingii|Rubus coreanus|Rubus idaeus|Rubus laciniatus|Rudbeckia laciniata|Russula sardonia|Ruta pinnata|Sagittaria sagittifolia|Salacia prinoides|Salmonella enterica subsp. enterica serovar bovismorbificans|Salmonella enterica subsp. enterica serovar typhimurium|Salvia Miltiorrhiza|Salvia Plebeia|Salvia bowleyana|Salvia bulleyana|Salvia castanea|Salvia digitaloides|Salvia dorrii|Salvia flava|Salvia hispanica|Salvia lavandulifolia|Salvia miltiorrhiza|Salvia officinalis|Salvia plebeia|Salvia prionitis|Salvia przewalskii|Salvia przewalskll|Salvia sinica|Salvia sonchifolia|Salvia trijuga|Salvia yunnanensis|Salviaplebeia|Sapium glandulosum|Sapium indicum|Sapium laurifolium|Sarcandra glabra|Sarcophyton elegans|Sargentodoxa cuneata|Sarothamnus patens|Sasa paniculata|Satureja atropatana|Satureja odora|Satureja sp.|Saussurea amara|Saussurea salicifolia|Saxifraga stolonifera|Sceletium subvelutinum|Schedonorus arundinaceus|Schedonorus pratensis|Schinus molle|Schisandra arisanensis|Schisandra chinensis|Schizanthus tricolor|Scolochloa festucacea|Scolymus hispanicus|Scorzonera pseudodivaricata|Scrophularia frutescens|Scrophularia nodosa|Scrophularia sp.|Scutellaria barbata|Secale cereale|Secamone afzelii|Sedum forsteri|Sedum obtuso-lineare|Seiridium cupressi|Senecio adenophyllus|Senecio brasiliensis|Senecio callosus|Senecio latifolius|Senecio polyodon|Senecio rivularis|Senecio scandens|Senecio suaveolens|Senecio subdentatus|Senna alexandrina|Senna reticulata|Senna sophera|Sesamum sp.|Sia ferox|Sideritis euboea|Sideritis grandiflora|Silphium integrifolium|Sinapis alba|Sindora wallichii|Sisyrinchium californicum|Smilax china|Smilax corbularia|Smilax glabra|Solanum elaeagnifolium|Solanum euacanthum|Solanum incanum|Solanum lyratum|Solanum melongena|Solanum nigrum|Solanum paludosum|Solanum sisymbriifolium|Solidago canadensis|Solidago flexicaulis|Solidago gigantea|Solidago virgaurea|Sophora angustifolia|Sophora japonica|Sophora lehmanni|Sophora lehmannii|Sophora pachycarpa|Sorbus tianschanica|Sorghum bicolor|Sparganium eurycarpum|Sparganium stoloniferum|Spathodea campanulata|Spatholobus harmandii|Spatholobus sinensis|Spatholobus suberectus|Sphaeranthus confertifolius|Sphaerella laricina|Spigelia sp.|Spina gleditsiae|Spinacia oleracea|Spinulum annotinum|Stauntonia obovatifoliola|Stellaria holostea|Stenocarpella maydis|Stenocereus thurberi|Stephania elegans|Sterculia foetida|Stevia mercedensis|Stevia polycephala|Stigma croci|Stizolobium deeringianum|Streptomyces|Streptomyces ERI-CPDA-1|Streptomyces clavifer|Streptomyces corchorusii|Streptomyces lateritius|Streptomyces lydicus|Streptomyces nobilis|Streptomyces parvisporogenes|Streptomyces ramocissimus|Streptomyces xantholiticus|Strychnos amazonica|Strychnos spinosa|Strychnos tabascana|Styrax perkinsiae|Suillus tridentinus|Swertia angustifolia|Swertia swertopsis|Swinglea glutinosa|Symphyocladia latiuscula|Symploca hydnoides|Symplocos chinensis|Synadenium pereskiifolium|Syncarpia hillii|Syzygium sp.|Tanacetum parthenium|Tanacetum sp.|Taraxacum borealisinense|Taraxacum coreanum|Taraxacum hallaisanense|Taraxacum mongolicum|Taraxacum officinale|Taraxacum platycarpum|Tarchonanthus camphoratus|Taxillus levinei|Taxus baccata|Taxus brevifolia|Taxus mairei|Taxus wallichiana|Teclea gerrardii|Tecoma undulata|Tetradium glabrifolium|Tetrapanax papyrifer|Teucrium depressum|Teucrium yemense|Thalictrum atriplex|Thalictrum flavum|Thea sasanqua|Theobroma Cacao|Theobroma cacao|Theobroma cacao L.|Thuja standishii|Thymus piperella|Thymus quinquecostatus|Thymus sp.|Thymus vulgaris|Tilia sp.|Tolypothrix tenuis|Tovomita krukovii|Toxicodendron vernicifluum|Trachycarpus Fortunei|Trachycarpus fortunei|Tragopogon orientalis|Tragopogon pratensis|Trema orientale|Trewia nudiflora|Trichilia heudelotii|Trichilia monadelpha|Trichilia rubescens|Trichocolea tomentella|Trichoderma koningi|Tricholoma batschii|Trichophyton mentagrophytes|Trigonella foenum-graecum|Tristaniopsis calobuxus|Triticum aestivum|Triticum durum|Trollius chinensis|Tropicoporus linteus|Tsitsikamma favus|Tsuga chinensis|Tylosema esculentum|Typha Angustata|Typha angustata|Umbilicaria esculenta|Uncaria africana|Ungernia victoris|Urospermum dalechampii|Urospermum picroides|Uruparia lanosa|Usnea japonica|Usnea undulata|Utricularia australis|Uvaria kirkii|Uvaria klaineana|Uvaria lucida|Vaccinium macrocarpon|Vaccinium myrtillus|Vaccinium sp.|Valeriana jatamansi|Valeriana rossica|Valsa ceratosperma|Vanderbylia fraxinea|Verbascum sp.|Verbesina rupestris|Vernonia brevifolia|Vernonia lanuginosa|Vernonia patula|Veronica peregrina L.|Viburnum sieboldi|Vicia sativa|Vigna mungo|Viguiera linearis|Viguiera pinnatilobata|Viola philippica|Viola sp.|Viola yedoensis|Virgilia divaricata|Virola multinervia|Viscum angulatum|Viscum articulactum|Viscum articulatum|Viscum coloratum|Viscum sp.|Vismia parviflora|Visnea mocanera|Vitex agnus-castus|Vitex negundo|Vitex rotundifolia|Vitis vinifera|Vittaria anguste-elongata|Vladimiria muliensis|Xanthium sibiricum|Xanthium strumarium|Xanthoparmelia pokornyi|Xenoacremonium recifei|Zanthoxylum lemairei|Zanthoxylum leprieurii|Zanthoxylum myriacanthum|Zanthoxylum piperitum|Zebrina pendula|Zingiber|Ziziphus jujuba|Ziziphus mauritiana|Zostera marina|[polyangium] brachysporum|black cardamom|broad bean|cacao|chia|clove|erycibe hainanesis|garlic|maize|pomegranate|pomelo|potato|rooibos|soybean|tomato

>  <collections>  (239) 
ANPDB|AfroCancer|AfroDB|Australian natural products|CMAUP (cCollective molecular activities of useful plants)|ChEBI NPs|ChemSpider NPs|ConMedNP|DrugBankNP|EMNPD|ETM (Ethiopian Traditional Medicine) DB|Exposome-explorer|FooDB|HIM (Herbal Ingredients in-vivo Metabolism database)|HIT (Herbal Ingredients Targets)|InPACdb|InflamNat|InterBioScreen Ltd|KNApSaCK|Latin America dataset|NANPDB (Natural Products from Northern African Sources)|NAPRORE-CR|NCI DTP data|NPACT|NPASS|NPCARE|NPEdia|NuBBEDB|PeruNPDB|Phenol-explorer|Phyto4Health|PhytoLab phyproof® Reference Substances|PubChem NPs|ReSpect|SANCDB|StreptomeDB|Super Natural II|TCMDB-Taiwan (Traditional Chinese Medicine database)|TCMID (Traditional Chinese Medicine Integrated Database)|TIPdb (database of Taiwan indigenous plants)|UEFS (Natural Products Databse of the UEFS)|UNPD (Universal Natural Products Database)|VietHerb|Watermelon|WikiData Natural Products|p-ANAPL

>  <dois>  (239) 
10.1002/(SICI)1096-9888(199706)32:6<645::AID-JMS518>3.0.CO;2-P|10.1002/(SICI)1097-0010(19990515)79:7<1003::AID-JSFA317>3.0.CO;2-F|10.1002/(SICI)1099-1565(199901/02)10:1<6::AID-PCA431>3.0.CO;2-0|10.1002/1099-1565(200011/12)11:6<375::AID-PCA539>3.0.CO;2-0|10.1002/CBDV.200900007|10.1002/CBDV.201100002|10.1002/CBER.19610941204|10.1002/CBER.19610941205|10.1002/CHIN.200434239|10.1002/CHIN.200511237|10.1002/CHIN.200516167|10.1002/ELPS.201300646|10.1002/HLCA.19470300226|10.1002/HLCA.200490070|10.1002/HLCA.200790187|10.1002/HLCA.201000250|10.1002/JCCS.199500076|10.1002/JCCS.199500128|10.1002/JCCS.199800035|10.1002/JCCS.200000028|10.1002/JCCS.200000029|10.1002/JCCS.200200041|10.1002/JLAC.19666920122|10.1002/JMS.395|10.1002/JPS.2600530403|10.1002/JPS.3080220609|10.1002/JSFA.2740420206|10.1002/JSFA.2740500106|10.1002/JSFA.7075|10.1002/JSSC.200500003|10.1002/PCA.672|10.1002/PTR.1139|10.1002/PTR.1628|10.1002/PTR.2639|10.1002/PTR.2650040508|10.1002/RCM.5123|10.1006/JFCA.1999.0868|10.1006/JFCA.2002.1071|10.1007/978-3-642-73686-5_3|10.1007/BF00381261|10.1007/BF00487242|10.1007/BF00563959|10.1007/BF00564022|10.1007/BF00564480|10.1007/BF00565263|10.1007/BF00566073|10.1007/BF00568226|10.1007/BF00570720|10.1007/BF00571226|10.1007/BF00574347|10.1007/BF00574351|10.1007/BF00575055|10.1007/BF00575192|10.1007/BF00575727|10.1007/BF00579165|10.1007/BF00579785|10.1007/BF00597593|10.1007/BF00598278|10.1007/BF00630375|10.1007/BF00630671|10.1007/BF00982301|10.1007/BF00993699|10.1007/BF01100201|10.1007/BF01386200|10.1007/BF02254802|10.1007/BF02467553|10.1007/BF02575290|10.1007/BF02671339|10.1007/BF02908196|10.1007/BF02974274|10.1007/BF02979129|10.1007/BF02986020|10.1007/S00217-002-0603-1|10.1007/S00217-004-0938-X|10.1007/S002170100354|10.1007/S00580-015-2192-Y|10.1007/S10529-015-1825-1|10.1007/S10600-005-0055-5|10.1007/S10600-008-0009-9|10.1007/S10600-009-9329-7|10.1007/S10600-010-9515-7|10.1007/S10600-010-9660-Z|10.1007/S10600-010-9752-9|10.1007/S10600-010-9753-8|10.1007/S10600-011-0016-0|10.1007/S10600-011-9826-3|10.1007/S10600-011-9915-3|10.1007/S10600-012-0285-2|10.1007/S10600-016-1831-0|10.1007/S11101-023-09858-Z|10.1007/S11130-011-0236-2|10.1007/S11240-014-0506-4|10.1007/S11418-005-0026-Y|10.1007/S11746-000-0107-4|10.1007/S11746-002-0484-8|10.1007/S11947-012-0877-7|10.1007/S12272-014-0328-2|10.1016/0009-2797(96)03721-0|10.1016/0021-9673(95)00585-B|10.1016/0021-9673(95)00877-2|10.1016/0031-9422(81)85270-3|10.1016/0031-9422(83)85044-4|10.1016/0031-9422(88)80758-1|10.1016/0031-9422(90)85309-4|10.1016/0031-9422(90)87143-I|10.1016/0031-9422(91)83748-A|10.1016/0031-9422(91)85032-U|10.1016/0031-9422(91)85033-V|10.1016/0031-9422(96)00110-0|10.1016/0031-9422(96)00146-X|10.1016/0098-8472(86)90054-7|10.1016/0304-3770(86)90119-1|10.1016/0305-1978(93)90061-U|10.1016/0305-1978(94)00092-U|10.1016/0308-8146(93)90137-5|10.1016/0378-5173(89)90326-8|10.1016/0378-8741(87)90003-1|10.1016/0378-8741(90)90043-S|10.1016/0378-8741(96)01419-5|10.1016/0731-7085(90)80133-A|10.1016/0963-9969(94)00046-B|10.1016/B978-0-12-374420-3.00099-1|10.1016/B978-0-12-397934-6.00012-7|10.1016/B978-0-12-675407-0.50017-8|10.1016/J.BIORTECH.2012.02.059|10.1016/J.BMC.2003.11.017|10.1016/J.BMC.2007.10.072|10.1016/J.BMC.2010.01.046|10.1016/J.BMC.2011.07.006|10.1016/J.BMCL.2005.07.020|10.1016/J.BMCL.2006.08.016|10.1016/J.BMCL.2011.11.109|10.1016/J.BMCL.2015.02.048|10.1016/J.BMCL.2015.05.089|10.1016/J.BSE.2012.11.001|10.1016/J.BSE.2013.04.001|10.1016/J.CHROMA.2015.10.008|10.1016/J.DIB.2020.106469|10.1016/J.EJMECH.2011.03.011|10.1016/J.EJMECH.2012.01.057|10.1016/J.EJPHAR.2006.03.065|10.1016/J.FBIO.2018.07.004|10.1016/J.FITOTE.2003.07.012|10.1016/J.FITOTE.2005.08.011|10.1016/J.FITOTE.2007.05.003|10.1016/J.FITOTE.2009.12.009|10.1016/J.FITOTE.2011.08.014|10.1016/J.FOODCHEM.2005.02.007|10.1016/J.FOODCHEM.2005.11.053|10.1016/J.FOODCHEM.2006.06.063|10.1016/J.FOODCHEM.2006.11.008|10.1016/J.FOODCHEM.2012.08.025|10.1016/J.FOODCHEM.2019.125629|10.1016/J.FOODRES.2010.11.014|10.1016/J.INDCROP.2018.08.004|10.1016/J.INTIMP.2010.05.009|10.1016/J.JEP.2005.02.029|10.1016/J.JFCA.2006.05.007|10.1016/J.JFF.2012.04.008|10.1016/J.JPBA.2017.08.019|10.1016/J.LFS.2004.03.017|10.1016/J.LWT.2018.02.024|10.1016/J.PHYMED.2005.06.007|10.1016/J.PHYMED.2006.11.021|10.1016/J.PHYTOCHEM.2004.08.014|10.1016/J.PHYTOCHEM.2004.08.051|10.1016/J.PHYTOCHEM.2005.12.021|10.1016/J.PHYTOCHEM.2006.05.017|10.1016/J.PHYTOCHEM.2007.04.029|10.1016/J.PHYTOCHEM.2007.05.027|10.1016/J.PHYTOCHEM.2007.11.014|10.1016/J.PHYTOCHEM.2009.04.008|10.1016/J.PHYTOCHEM.2009.10.007|10.1016/J.PHYTOCHEM.2010.12.018|10.1016/J.PHYTOL.2011.07.004|10.1016/J.PLAPHY.2015.04.008|10.1016/J.SAJB.2011.09.010|10.1016/S0006-2952(00)00322-1|10.1016/S0021-9258(20)80477-3|10.1016/S0021-9673(01)00598-2|10.1016/S0021-9673(01)01434-0|10.1016/S0021-9673(01)87172-7|10.1016/S0021-9673(01)87655-X|10.1016/S0021-9673(97)01259-4|10.1016/S0031-9422(00)00256-9|10.1016/S0031-9422(00)00493-3|10.1016/S0031-9422(00)80080-1|10.1016/S0031-9422(00)80599-3|10.1016/S0031-9422(00)81803-8|10.1016/S0031-9422(00)84607-5|10.1016/S0031-9422(00)86894-6|10.1016/S0031-9422(00)88025-5|10.1016/S0031-9422(00)90729-5|10.1016/S0031-9422(00)90786-6|10.1016/S0031-9422(00)97993-7|10.1016/S0031-9422(01)00066-8|10.1016/S0031-9422(01)00415-0|10.1016/S0031-9422(02)00051-1|10.1016/S0031-9422(02)00229-7|10.1016/S0031-9422(03)00437-0|10.1016/S0031-9422(82)85089-9|10.1016/S0031-9422(96)00388-3|10.1016/S0031-9422(96)00479-7|10.1016/S0031-9422(97)00092-7|10.1016/S0031-9422(97)00370-1|10.1016/S0031-9422(97)01118-7|10.1016/S0031-9422(98)00075-2|10.1016/S0031-9422(98)00107-1|10.1016/S0031-9422(98)00687-6|10.1016/S0031-9422(98)80094-0|10.1016/S0031-9422(99)00070-9|10.1016/S0031-9422(99)00262-9|10.1016/S0031-9422(99)00598-1|10.1016/S0040-4020(01)90699-4|10.1016/S0040-4020(01)98186-4|10.1016/S0304-3835(98)00010-X|10.1016/S0305-1978(01)00105-3|10.1016/S0305-1978(02)00044-3|10.1016/S0305-1978(02)00055-8|10.1016/S0305-1978(97)00061-6|10.1016/S0308-8146(00)00322-8|10.1016/S0308-8146(02)00590-3|10.1016/S0308-8146(03)00127-4|10.1016/S0367-326X(02)00306-4|10.1016/S0367-326X(99)00143-4|10.1016/S0378-8741(98)00245-1|10.1016/S0731-7085(00)00272-7|10.1016/S0731-7085(00)00541-0|10.1016/S0889-1575(02)91071-9|10.1016/S0926-6690(00)00088-1|10.1016/S0928-0987(97)86374-9|10.1016/S0960-894X(03)00088-X|10.1016/S0963-9969(00)00070-3|10.1016/S0963-9969(00)00072-7|10.1016/S1875-5364(19)30114-1|10.1016/j.arabjc.2011.01.001|10.1016/j.biortech.2012.02.059|10.1016/j.bmc.2010.01.078|10.1016/j.intimp.2010.05.009|10.1016/j.phytochem.2004.08.051|10.1021/JA01990A001|10.1021/JF000150T|10.1021/JF00021A005|10.1021/JF00042A006|10.1021/JF00078A018|10.1021/JF00110A030|10.1021/JF00110A049|10.1021/JF00123A028|10.1021/JF0013407|10.1021/JF0110194|10.1021/JF011064B|10.1021/JF011454Y|10.1021/JF011533+|10.1021/JF0200164|10.1021/JF020028P|10.1021/JF0201327|10.1021/JF020262F|10.1021/JF025929C|10.1021/JF0259415|10.1021/JF050550M|10.1021/JF050579Q|10.1021/JF050579Q.S001|10.1021/JF051513Y|10.1021/JF052736R|10.1021/JF060251C|10.1021/JF0615247|10.1021/JF0620968|10.1021/JF0636014|10.1021/JF0734727|10.1021/JF2011535|10.1021/JF204660C|10.1021/JF900695S|10.1021/JF9505335|10.1021/JF9601628|10.1021/JF960486W|10.1021/JF9605557|10.1021/JF960741C|10.1021/JF970863K|10.1021/JF9912506|10.1021/JF991266W|10.1021/NP000053U|10.1021/NP000135I|10.1021/NP000306J|10.1021/NP020078O|10.1021/NP0302854|10.1021/NP030339+|10.1021/NP030505D|10.1021/NP040177X|10.1021/NP0496035|10.1021/NP0499158|10.1021/NP0500272|10.1021/NP050060O|10.1021/NP050084V|10.1021/NP0501031|10.1021/NP0501031.S001|10.1021/NP050447R|10.1021/NP0580210|10.1021/NP058067T|10.1021/NP0600999|10.1021/NP070104O|10.1021/NP100281G|10.1021/NP100896W|10.1021/NP100902F|10.1021/NP50054A008|10.1021/NP50101A022|10.1021/NP50110A006|10.1021/NP900038J|10.1021/NP9004129|10.1021/NP900593Q|10.1021/NP9902237|10.1034/j.1600-0773.2002.910505.x|10.1039/B009760H|10.1042/bj0920516|10.1046/J.1365-2621.1998.00219.X|10.1055/S-0028-1097641|10.1055/S-0028-1100041|10.1055/S-2002-20049|10.1055/S-2002-20053|10.1055/S-2002-33786|10.1055/S-2002-34925|10.1055/S-2004-818956|10.1055/S-2005-873169|10.1055/S-2005-873181|10.1055/S-2006-951725|10.1055/S-2006-957513|10.1055/S-2006-957627|10.1055/S-2006-957639|10.1055/S-2006-959552|10.1055/S-2006-961558|10.1055/S-2007-969296|10.1055/S-2007-969319|10.1055/S-2007-981565|10.1055/S-2008-1074536|10.1074/JBC.RA118.003351|10.1076/PHBI.36.2.103.4603|10.1076/PHBI.39.3.202.5930|10.1078/0944-7113-00003|10.1080/00021369.1989.10869290|10.1080/01140671.2004.9514321|10.1080/01483918808076763|10.1080/01483919008049590|10.1080/09637480500524299|10.1080/10286020.2010.481260|10.1080/10286020.2010.484806|10.1080/10286020.2011.600249|10.1080/10286020.2011.641535|10.1080/10286020903451757|10.1080/10286021003730330|10.1080/10575630008041225|10.1080/10826079808003594|10.1080/14786410902757899|10.1080/14786419.2013.869693|10.1081/JLC-100101744|10.1081/JLC-100106092|10.1093/CHROMSCI/BMY030|10.1093/carcin/21.10.1899|10.1093/pcp/pcn183|10.1104/PP.106.078428|10.1104/PP.69.2.522|10.1111/J.1365-2621.1983.TB14902.X|10.1111/J.1365-2621.1987.TB14056.X|10.1111/J.1365-2621.1994.TB05584.X|10.1111/J.1365-313X.2008.03576.X|10.1111/J.1745-4522.2007.00107.X|10.1111/J.1745-4557.2003.TB00243.X|10.1111/J.2042-7158.1998.TB03332.X|10.1139/B82-307|10.1139/V09-112|10.1142/S0192415X08005795|10.1177/1934578X0900400602|10.1177/1934578X1000500721|10.1248/BPB.22.157|10.1248/BPB.24.1373|10.1248/BPB.25.1101|10.1248/BPB.26.1031|10.1248/BPB.31.1626|10.1248/BPB.31.1968|10.1248/BPB.31.765|10.1248/CPB.30.2342|10.1248/CPB.39.865|10.1248/CPB.41.1491|10.1248/CPB.41.1743|10.1248/CPB.47.375|10.1248/CPB.48.1749|10.1248/CPB.52.1365|10.1248/CPB.52.345|10.1248/CPB.52.858|10.1248/CPB.53.1111|10.1248/CPB.53.347|10.1248/CPB.54.1063|10.1248/CPB.55.1065|10.1248/CPB.55.1222|10.1248/CPB.55.1677|10.1248/CPB.55.492|10.1248/CPB.57.1227|10.1248/CPB.57.397|10.1248/CPB.57.586|10.1248/YAKUSHI1947.101.12_1118|10.1248/YAKUSHI1947.103.6_679|10.1248/YAKUSHI1947.104.2_157|10.1248/YAKUSHI1947.107.10_774|10.1248/YAKUSHI1947.110.5_354|10.1248/YAKUSHI1947.74.1_109|10.1248/YAKUSHI1947.99.4_439|10.1271/BBB.58.1087|10.1271/BBB.66.1386|10.1271/BBB.67.945|10.1271/BBB1961.44.205|10.1271/BBB1961.46.2101|10.1271/BBB1961.53.519|10.1365/S10337-005-0622-8|10.14233/AJCHEM.2014.16143A|10.1515/HF.1999.096|10.1515/ZNB-1964-0902|10.1515/ZNB-2005-0513|10.1515/ZNB-2006-0518|10.1515/ZNB-2007-0615|10.1515/ZNC-1992-3-423|10.1515/ZNC-1992-7-807|10.1515/ZNC-1993-5-603|10.1515/ZNC-1994-9-1021|10.1515/ZNC-1997-7-805|10.1515/ZNC-1998-11-1225|10.1515/ZNC-2001-9-1012|10.1515/ZNC-2003-9-1014|10.1590/S0103-50531997000500011|10.1590/S0103-50532005000400005|10.1590/S0103-50532012000300015|10.17660/ACTAHORTIC.2003.597.15|10.21273/HORTSCI.29.4.313|10.21548/25-2-2143|10.2298/JSC100127008C|10.26459/JNS.V116I2.3763|10.3177/JNSV.47.167|10.3390/MOLECULES15042178|10.3390/MOLECULES15118193|10.3390/MOLECULES15118507|10.3390/MOLECULES16108305|10.3390/MOLECULES161210214|10.3390/MOLECULES22101606|10.3390/NU11020402|10.3390/molecules22010011|10.3390/molecules22030402|10.3390/molecules27020483|10.3390/plants6040050|10.3724/SP.J.1008.2010.01120|10.3746/JKFN.2006.35.6.713|10.3797/SCIPHARM.1410-10|10.38212/2224-6614.2935|10.3906/KIM-0805-46|10.3987/COM-04-10221|10.3987/COM-93-6550|10.4268/CJCMM20111319|10.4268/CJCMM20111611|10.4268/CJCMM20121914|10.4268/CJCMM20122316|10.4268/CJCMM20140217|10.4268/CJCMM20151816|10.4268/CJCMM20161721|10.4314/NJNPM.V3I1.11761|10.5012/BKCS.2010.31.01.224|10.5586/ASBP.1988.009|10.5586/ASBP.1995.007|10.5586/ASBP.1998.029|10.5586/ASBP.2000.003|10.5650/JOS1996.46.1399|10.5897/AJPP10.363|10.9734/EJMP/2013/4976

>  <synonyms>  (239) 
1225528-47-1|1ykp|3,4-DIHYDROXYBENZOIC ACID [INCI]|3,4-Dihydroxy Benzoic Acid|3,4-Dihydroxybenzoate, VIII|3,4-Dihydroxybenzoic acid|3,4-Dihydroxybenzoic acid, >=97.0% (T)|3,4-Dihydroxybenzoic acid, Vetec(TM) reagent grade, 97%|3,4-Dihydroxybenzoic acid, analytical standard|3,4-dihydroxy-benzoic acid|3,4-dihydroxybenzoate|3,4-dihydroxybenzoate;3,4-Dihydroxybenzoic acid|3,4-dihydroxybenzoic acid (protocatechuic acid)|36R5QJ8L4B|4,5-Dihydroxybenzoic acid|4-Carboxy-1,2-dihydroxybenzene|4fht|976C8CCE-B25D-4E0A-9A6F-3CEEA7A6964F|99-50-3|A846038|AC-9617|AE-562\/40524392|AKOS000119632|AM20060767|AS-10808|BBL012232|BDBM50100861|BRN 1448841|Benzoic acid, 3,4-dihydroxy-|C00230|CAS-99-50-3|CCG-207950|CCRIS 6291|CHEBI:36062|CHEMBL37537|CS-6092|Carbohydroquinonic acid|Catechol-4-carboxylic Acid|D-3487|DB-021903|DB03946|DIHYDROXYBENZOIC ACID, 3,4-|DROXIDOPA METABOLITE (PROTOCATECHOIC ACID)|DTXCID601212|DTXSID4021212|EINECS 202-760-0|EN300-21544|F11285|FEMA NO. 4430|HMS2270A17|HY-N0294|Hypogallic acid|InChI=1\/C7H6O4\/c8-5-2-1-4(7(10)11)3-6(5)9\/h1-3,8-9H,(H,10,11|KSC-10-128|KUC104409N|MFCD00002509|MLS000737807|NCGC00246757-01|NCGC00257721-01|NS00014667|NSC 16631|NSC-16631|PROTOCATECHOIC ACID|PROTOCATECHOIC ACID (CONSTITUENT OF MARITIME PINE)|PROTOCATECHUIC ACID (PCA)|PROTOCATECHUIC ACID [MI]|Poaceae|Protacatechuic Acid|ProtocatechicAcid|Protocatechuic Acid,(S)|Protocatechuic acid (M1)|Protocatechuic acid, United States Pharmacopeia (USP) Reference Standard|Protocatechuic acid, primary pharmaceutical reference standard|Pyrocatechol-4-carboxylic Acid|Q418599|SCHEMBL39435|SMR000528167|STL163570|SY014104|Tox21_200167|UNII-36R5QJ8L4B|Z104501142|ZINCSELENITE|b-Resorcylate|b-resorcylic acid|beta-Resorcylate|bmse000328|cid_72|protocatechuate|protocatechuic acid|s3975

>  <cas>  (239) 
99-50-3

$$$$

     RDKit          2D

 24 23  0  0  0  0  0  0  0  0999 V2000
    2.0952    1.5106    0.0000 C   0  0  0  0  0  0  0  0  0  0  0  0
    2.0577    0.0111    0.0000 C   0  0  0  0  0  0  0  0  0  0  0  0
    3.3376   -0.7712    0.0000 C   0  0  0  0  0  0  0  0  0  0  0  0
    4.6550   -0.0539    0.0000 C   0  0  0  0  0  0  0  0  0  0  0  0
    5.9349   -0.8361    0.0000 C   0  0  0  0  0  0  0  0  0  0  0  0
    7.2523   -0.1189    0.0000 C   0  0  0  0  0  0  0  0  0  0  0  0
    7.2898    1.3807    0.0000 C   0  0  0  0  0  0  0  0  0  0  0  0
    8.5321   -0.9011    0.0000 C   0  0  0  0  0  0  0  0  0  0  0  0
    9.8495   -0.1838    0.0000 C   0  0  0  0  0  0  0  0  0  0  0  0
    9.8870    1.3157    0.0000 O   0  0  0  0  0  0  0  0  0  0  0  0
   11.1294   -0.9660    0.0000 O   0  0  0  0  0  0  0  0  0  0  0  0
    0.7403   -0.7062    0.0000 C   0  0  0  0  0  0  0  0  0  0  0  0
   -0.5395    0.0760    0.0000 C   0  0  0  0  0  0  0  0  0  0  0  0
   -1.8569   -0.6413    0.0000 C   0  0  0  0  0  0  0  0  0  0  0  0
   -3.1368    0.1410    0.0000 C   0  0  0  0  0  0  0  0  0  0  0  0
   -3.0993    1.6405    0.0000 C   0  0  0  0  0  0  0  0  0  0  0  0
   -4.4542   -0.5763    0.0000 C   0  0  0  0  0  0  0  0  0  0  0  0
   -5.7341    0.2059    0.0000 C   0  0  0  0  0  0  0  0  0  0  0  0
   -7.0514   -0.5114    0.0000 C   0  0  0  0  0  0  0  0  0  0  0  0
   -8.3313    0.2709    0.0000 C   0  0  0  0  0  0  0  0  0  0  0  0
   -8.2938    1.7704    0.0000 C   0  0  0  0  0  0  0  0  0  0  0  0
   -9.6487   -0.4464    0.0000 C   0  0  0  0  0  0  0  0  0  0  0  0
   -9.6862   -1.9459    0.0000 O   0  0  0  0  0  0  0  0  0  0  0  0
  -10.9286    0.3358    0.0000 O   0  0  0  0  0  0  0  0  0  0  0  0
  1  2  1  0
  2  3  2  0
  3  4  1  0
  4  5  1  0
  5  6  1  0
  6  7  1  0
  6  8  2  0
  8  9  1  0
  9 10  2  0
  9 11  1  0
  2 12  1  0
 12 13  1  0
 13 14  1  0
 14 15  2  0
 15 16  1  0
 15 17  1  0
 17 18  1  0
 18 19  1  0
 19 20  2  0
 20 21  1  0
 20 22  1  0
 22 23  2  0
 22 24  1  0
M  END
>  <identifier>  (240) 
CNP0250413.1

>  <canonical_smiles>  (240) 
C/C(=C\CC/C(C)=C/C(=O)O)CC/C=C(\C)CC/C=C(\C)C(=O)O

>  <standard_inchi>  (240) 
InChI=1S/C20H30O4/c1-15(10-6-12-17(3)14-19(21)22)8-5-9-16(2)11-7-13-18(4)20(23)24/h9-10,13-14H,5-8,11-12H2,1-4H3,(H,21,22)(H,23,24)/b15-10+,16-9+,17-14+,18-13+

>  <standard_inchi_key>  (240) 
HCVPUYBRWDQARC-CBWMIROOSA-N

>  <name>  (240) 
nan

>  <iupac_name>  (240) 
nan

>  <annotation_level>  (240) 
0

>  <total_atom_count>  (240) 
54

>  <heavy_atom_count>  (240) 
24

>  <molecular_weight>  (240) 
334.46

>  <exact_molecular_weight>  (240) 
334.21441

>  <molecular_formula>  (240) 
C20H30O4

>  <alogp>  (240) 
5.28

>  <topological_polar_surface_area>  (240) 
74.60

>  <rotatable_bond_count>  (240) 
11

>  <hydrogen_bond_acceptors>  (240) 
2

>  <hydrogen_bond_donors>  (240) 
2

>  <hydrogen_bond_acceptors_lipinski>  (240) 
2

>  <hydrogen_bond_donors_lipinski>  (240) 
2

>  <lipinski_rule_of_five_violations>  (240) 
1

>  <aromatic_rings_count>  (240) 
0

>  <qed_drug_likeliness>  (240) 
0.40

>  <formal_charge>  (240) 
0

>  <fractioncsp3>  (240) 
0.50

>  <number_of_minimal_rings>  (240) 
0

>  <van_der_walls_volume>  (240) 
343.23

>  <contains_sugar>  (240) 
False

>  <contains_ring_sugars>  (240) 
False

>  <contains_linear_sugars>  (240) 
False

>  <murcko_framework>  (240) 
nan

>  <np_likeness>  (240) 
1.67

>  <chemical_class>  (240) 
nan

>  <chemical_sub_class>  (240) 
nan

>  <chemical_super_class>  (240) 
nan

>  <direct_parent_classification>  (240) 
nan

>  <np_classifier_pathway>  (240) 
Terpenoids

>  <np_classifier_superclass>  (240) 
Diterpenoids

>  <np_classifier_class>  (240) 
Phytane diterpenoids

>  <np_classifier_is_glycoside>  (240) 
False

>  <organisms>  (240) 
Aquilaria agallochum|Chrysosplenium japonicum|Nectandra puberula

>  <collections>  (240) 
CMAUP (cCollective molecular activities of useful plants)|Latin America dataset|NPASS|NuBBEDB|WikiData Natural Products|ZINC NP

>  <dois>  (240) 
10.1016/S0031-9422(00)81526-5

>  <synonyms>  (240) 
nan

>  <cas>  (240) 
nan

$$$$

     RDKit          2D

 21 24  0  0  0  0  0  0  0  0999 V2000
   -0.5331    2.5935    0.0000 C   0  0  0  0  0  0  0  0  0  0  0  0
   -1.1682    1.2346    0.0000 N   0  0  0  0  0  0  0  0  0  0  0  0
   -2.6626    1.1051    0.0000 C   0  0  0  0  0  0  0  0  0  0  0  0
   -3.2977   -0.2538    0.0000 C   0  0  0  0  0  0  0  0  0  0  0  0
   -4.7864   -0.0697    0.0000 C   0  0  0  0  0  0  0  0  0  0  0  0
   -5.0713    1.4030    0.0000 C   0  0  0  0  0  0  0  0  0  0  0  0
   -3.7588    2.1291    0.0000 O   0  0  0  0  0  0  0  0  0  0  0  0
   -2.4384   -1.4833    0.0000 C   0  0  0  0  0  0  0  0  0  0  0  0
   -3.0735   -2.8422    0.0000 O   0  0  0  0  0  0  0  0  0  0  0  0
   -0.9440   -1.3538    0.0000 C   0  0  0  0  0  0  0  0  0  0  0  0
   -0.0847   -2.5833    0.0000 C   0  0  0  0  0  0  0  0  0  0  0  0
    1.4097   -2.4538    0.0000 C   0  0  0  0  0  0  0  0  0  0  0  0
    2.0448   -1.0949    0.0000 C   0  0  0  0  0  0  0  0  0  0  0  0
    3.5392   -0.9654    0.0000 O   0  0  0  0  0  0  0  0  0  0  0  0
    4.1743    0.3935    0.0000 C   0  0  0  0  0  0  0  0  0  0  0  0
    5.2359    1.4532    0.0000 C   0  0  0  0  0  0  0  0  0  0  0  0
    5.4023   -0.4679    0.0000 C   0  0  0  0  0  0  0  0  0  0  0  0
    3.3150    1.6229    0.0000 C   0  0  0  0  0  0  0  0  0  0  0  0
    1.8206    1.4935    0.0000 C   0  0  0  0  0  0  0  0  0  0  0  0
    1.1855    0.1346    0.0000 C   0  0  0  0  0  0  0  0  0  0  0  0
   -0.3089    0.0051    0.0000 C   0  0  0  0  0  0  0  0  0  0  0  0
  1  2  1  0
  2  3  1  0
  3  4  2  0
  4  5  1  0
  5  6  2  0
  6  7  1  0
  4  8  1  0
  8  9  2  0
  8 10  1  0
 10 11  2  0
 11 12  1  0
 12 13  2  0
 13 14  1  0
 14 15  1  0
 15 16  1  0
 15 17  1  0
 15 18  1  0
 18 19  2  0
 19 20  1  0
 20 21  2  0
 21  2  1  0
  7  3  1  0
 21 10  1  0
 20 13  1  0
M  END
>  <identifier>  (241) 
CNP0169785.0

>  <canonical_smiles>  (241) 
CN1C2=C(C=CO2)C(=O)C2=CC=C3OC(C)(C)C=CC3=C21

>  <standard_inchi>  (241) 
InChI=1S/C17H15NO3/c1-17(2)8-6-10-13(21-17)5-4-11-14(10)18(3)16-12(15(11)19)7-9-20-16/h4-9H,1-3H3

>  <standard_inchi_key>  (241) 
HIUXXZLKLYTIGU-UHFFFAOYSA-N

>  <name>  (241) 
nan

>  <iupac_name>  (241) 
5,5,17-trimethyl-6,15-dioxa-17-azatetracyclo[8.7.0.0^{2,7}.0^{12,16}]heptadeca-1,3,7,9,12(16),13-hexaen-11-one

>  <annotation_level>  (241) 
5

>  <total_atom_count>  (241) 
36

>  <heavy_atom_count>  (241) 
21

>  <molecular_weight>  (241) 
281.31

>  <exact_molecular_weight>  (241) 
281.10519

>  <molecular_formula>  (241) 
C17H15NO3

>  <alogp>  (241) 
3.47

>  <topological_polar_surface_area>  (241) 
44.37

>  <rotatable_bond_count>  (241) 
0

>  <hydrogen_bond_acceptors>  (241) 
4

>  <hydrogen_bond_donors>  (241) 
0

>  <hydrogen_bond_acceptors_lipinski>  (241) 
4

>  <hydrogen_bond_donors_lipinski>  (241) 
0

>  <lipinski_rule_of_five_violations>  (241) 
0

>  <aromatic_rings_count>  (241) 
3

>  <qed_drug_likeliness>  (241) 
0.63

>  <formal_charge>  (241) 
0

>  <fractioncsp3>  (241) 
0.24

>  <number_of_minimal_rings>  (241) 
4

>  <van_der_walls_volume>  (241) 
244.11

>  <contains_sugar>  (241) 
False

>  <contains_ring_sugars>  (241) 
False

>  <contains_linear_sugars>  (241) 
False

>  <murcko_framework>  (241) 
o1ccc2c1Nc3c4C=CCOc4ccc3C2

>  <np_likeness>  (241) 
2.23

>  <chemical_class>  (241) 
Benzopyrans

>  <chemical_sub_class>  (241) 
1-benzopyrans

>  <chemical_super_class>  (241) 
Organoheterocyclic compounds

>  <direct_parent_classification>  (241) 
Chromenopyridines

>  <np_classifier_pathway>  (241) 
Alkaloids

>  <np_classifier_superclass>  (241) 
Anthranilic acid alkaloids

>  <np_classifier_class>  (241) 
Acridone alkaloids

>  <np_classifier_is_glycoside>  (241) 
False

>  <organisms>  (241) 
Almeidea rubra|Almeidia coerulea

>  <collections>  (241) 
KNApSaCK|Latin America dataset|NuBBEDB|UNPD (Universal Natural Products Database)|WikiData Natural Products

>  <dois>  (241) 
10.1590/S0103-50532005000300018

>  <synonyms>  (241) 
Isodutadrupine|isodutaduprine

>  <cas>  (241) 
nan

$$$$

     RDKit          2D

 22 24  0  0  0  0  0  0  0  0999 V2000
   -4.3355   -2.0758    0.0000 C   0  0  0  0  0  0  0  0  0  0  0  0
   -2.8359   -2.0415    0.0000 C   0  0  0  0  0  0  0  0  0  0  0  0
   -2.1157   -0.7257    0.0000 C   0  0  0  0  0  0  0  0  0  0  0  0
   -2.8952    0.5559    0.0000 C   0  0  0  0  0  0  0  0  0  0  0  0
   -4.3948    0.5216    0.0000 C   0  0  0  0  0  0  0  0  0  0  0  0
   -5.1150   -0.7943    0.0000 O   0  0  0  0  0  0  0  0  0  0  0  0
   -5.1743    1.8031    0.0000 O   0  0  0  0  0  0  0  0  0  0  0  0
   -2.1751    1.8717    0.0000 C   0  0  0  0  0  0  0  0  0  0  0  0
   -0.6755    1.9060    0.0000 C   0  0  0  0  0  0  0  0  0  0  0  0
    0.1040    0.6244    0.0000 C   0  0  0  0  0  0  0  0  0  0  0  0
   -0.6161   -0.6914    0.0000 C   0  0  0  0  0  0  0  0  0  0  0  0
    0.1634   -1.9730    0.0000 C   0  0  0  0  0  0  0  0  0  0  0  0
    1.6630   -1.9387    0.0000 C   0  0  0  0  0  0  0  0  0  0  0  0
    2.3831   -0.6228    0.0000 C   0  0  0  0  0  0  0  0  0  0  0  0
    3.8827   -0.5886    0.0000 C   0  0  0  0  0  0  0  0  0  0  0  0
    5.3036   -1.0692    0.0000 C   0  0  0  0  0  0  0  0  0  0  0  0
    3.6561   -2.0713    0.0000 C   0  0  0  0  0  0  0  0  0  0  0  0
    4.6028    0.7273    0.0000 C   0  0  0  0  0  0  0  0  0  0  0  0
    3.8233    2.0088    0.0000 C   0  0  0  0  0  0  0  0  0  0  0  0
    2.3237    1.9746    0.0000 C   0  0  0  0  0  0  0  0  0  0  0  0
    1.6036    0.6587    0.0000 C   0  0  0  0  0  0  0  0  0  0  0  0
    0.8241    1.9403    0.0000 C   0  0  0  0  0  0  0  0  0  0  0  0
  1  2  1  0
  2  3  1  0
  3  4  2  0
  4  5  1  0
  5  6  2  0
  5  7  1  0
  4  8  1  0
  8  9  2  0
  9 10  1  0
 10 11  2  0
 11 12  1  0
 12 13  1  0
 14 13  1  6
 14 15  1  0
 15 16  1  0
 15 17  1  0
 15 18  1  0
 18 19  1  0
 19 20  1  0
 20 21  1  0
 21 22  1  6
 11  3  1  0
 21 14  1  0
 21 10  1  0
M  END
>  <identifier>  (242) 
CNP0284871.1

>  <canonical_smiles>  (242) 
CCC1=C(C(=O)O)C=CC2=C1CC[C@H]1C(C)(C)CCC[C@]21C

>  <standard_inchi>  (242) 
InChI=1S/C20H28O2/c1-5-13-14-8-10-17-19(2,3)11-6-12-20(17,4)16(14)9-7-15(13)18(21)22/h7,9,17H,5-6,8,10-12H2,1-4H3,(H,21,22)/t17-,20+/m0/s1

>  <standard_inchi_key>  (242) 
REZJTIQZMQUTIO-FXAWDEMLSA-N

>  <name>  (242) 
nan

>  <iupac_name>  (242) 
(4~{b}~{S},8~{a}~{S})-1-ethyl-4~{b},8,8-trimethyl-5,6,7,8~{a},9,10-hexahydrophenanthrene-2-carboxylic acid

>  <annotation_level>  (242) 
4

>  <total_atom_count>  (242) 
50

>  <heavy_atom_count>  (242) 
22

>  <molecular_weight>  (242) 
300.44

>  <exact_molecular_weight>  (242) 
300.20893

>  <molecular_formula>  (242) 
C20H28O2

>  <alogp>  (242) 
4.98

>  <topological_polar_surface_area>  (242) 
37.30

>  <rotatable_bond_count>  (242) 
2

>  <hydrogen_bond_acceptors>  (242) 
1

>  <hydrogen_bond_donors>  (242) 
1

>  <hydrogen_bond_acceptors_lipinski>  (242) 
1

>  <hydrogen_bond_donors_lipinski>  (242) 
1

>  <lipinski_rule_of_five_violations>  (242) 
0

>  <aromatic_rings_count>  (242) 
1

>  <qed_drug_likeliness>  (242) 
0.84

>  <formal_charge>  (242) 
0

>  <fractioncsp3>  (242) 
0.65

>  <number_of_minimal_rings>  (242) 
3

>  <van_der_walls_volume>  (242) 
nan

>  <contains_sugar>  (242) 
False

>  <contains_ring_sugars>  (242) 
False

>  <contains_linear_sugars>  (242) 
False

>  <murcko_framework>  (242) 
c1ccc2c(c1)CCC3CCCCC23

>  <np_likeness>  (242) 
1.81

>  <chemical_class>  (242) 
Prenol lipids

>  <chemical_sub_class>  (242) 
Diterpenoids

>  <chemical_super_class>  (242) 
Lipids and lipid-like molecules

>  <direct_parent_classification>  (242) 
Diterpenoids

>  <np_classifier_pathway>  (242) 
Terpenoids

>  <np_classifier_superclass>  (242) 
Diterpenoids

>  <np_classifier_class>  (242) 
Cleistanthane diterpenoids

>  <np_classifier_is_glycoside>  (242) 
False

>  <organisms>  (242) 
Vellozia flavicans|Vellozia squamata

>  <collections>  (242) 
Latin America dataset|NuBBEDB|Super Natural II|WikiData Natural Products

>  <dois>  (242) 
10.1016/S0031-9422(00)84734-2|10.1016/S0031-9422(00)94671-5

>  <synonyms>  (242) 
Veadeiroic acid

>  <cas>  (242) 
nan

$$$$

     RDKit          2D

 22 24  0  0  0  0  0  0  0  0999 V2000
   -4.7345    1.7230    0.0000 C   0  0  0  0  0  0  0  0  0  0  0  0
   -4.6449    0.2257    0.0000 C   0  0  0  0  0  0  0  0  0  0  0  0
   -3.3033   -0.4454    0.0000 C   0  0  0  0  0  0  0  0  0  0  0  0
   -4.1971   -1.6500    0.0000 C   0  0  0  0  0  0  0  0  0  0  0  0
   -2.8754    0.9923    0.0000 C   0  0  0  0  0  0  0  0  0  0  0  0
   -1.4164    1.3406    0.0000 C   0  0  0  0  0  0  0  0  0  0  0  0
   -0.9885    2.7783    0.0000 O   0  0  0  0  0  0  0  0  0  0  0  0
   -0.3853    0.2512    0.0000 C   0  0  0  0  0  0  0  0  0  0  0  0
   -0.8132   -1.1865    0.0000 C   0  0  0  0  0  0  0  0  0  0  0  0
   -2.2722   -1.5348    0.0000 C   0  0  0  0  0  0  0  0  0  0  0  0
    0.2179   -2.2759    0.0000 C   0  0  0  0  0  0  0  0  0  0  0  0
   -0.2100   -3.7136    0.0000 O   0  0  0  0  0  0  0  0  0  0  0  0
    1.6769   -1.9276    0.0000 C   0  0  0  0  0  0  0  0  0  0  0  0
    2.1048   -0.4900    0.0000 C   0  0  0  0  0  0  0  0  0  0  0  0
    3.5638   -0.1417    0.0000 C   0  0  0  0  0  0  0  0  0  0  0  0
    5.0540   -0.3134    0.0000 C   0  0  0  0  0  0  0  0  0  0  0  0
    3.6534   -1.6390    0.0000 C   0  0  0  0  0  0  0  0  0  0  0  0
    3.9917    1.2960    0.0000 C   0  0  0  0  0  0  0  0  0  0  0  0
    2.9606    2.3854    0.0000 C   0  0  0  0  0  0  0  0  0  0  0  0
    1.5016    2.0371    0.0000 C   0  0  0  0  0  0  0  0  0  0  0  0
    1.0737    0.5994    0.0000 C   0  0  0  0  0  0  0  0  0  0  0  0
    0.0426    1.6889    0.0000 C   0  0  0  0  0  0  0  0  0  0  0  0
  1  2  2  0
  2  3  1  0
  3  4  1  6
  3  5  1  0
  5  6  1  0
  6  7  2  0
  8  6  1  6
  8  9  1  0
  9 10  1  1
  9 11  1  0
 11 12  2  0
 11 13  1  0
 14 13  1  6
 14 15  1  0
 15 16  1  0
 15 17  1  0
 15 18  1  0
 18 19  1  0
 19 20  1  0
 20 21  1  0
 21 22  1  6
 10  3  1  0
 21 14  1  0
 21  8  1  0
M  END
>  <identifier>  (243) 
CNP0149239.2

>  <canonical_smiles>  (243) 
C=C[C@@]1(C)CC(=O)[C@H]2[C@H](C1)C(=O)C[C@H]1C(C)(C)CCC[C@]21C

>  <standard_inchi>  (243) 
InChI=1S/C20H30O2/c1-6-19(4)11-13-14(21)10-16-18(2,3)8-7-9-20(16,5)17(13)15(22)12-19/h6,13,16-17H,1,7-12H2,2-5H3/t13-,16+,17-,19-,20+/m1/s1

>  <standard_inchi_key>  (243) 
UDWJCUSHQNQZOK-GKQNRZDQSA-N

>  <name>  (243) 
nan

>  <iupac_name>  (243) 
(2~{R},4~{a}~{S},4~{b}~{S},8~{a}~{S},10~{a}~{S})-2,4~{b},8,8-tetramethyl-2-vinyl-3,4~{a},5,6,7,8~{a},9,10~{a}-octahydro-1~{H}-phenanthrene-4,10-dione

>  <annotation_level>  (243) 
3

>  <total_atom_count>  (243) 
52

>  <heavy_atom_count>  (243) 
22

>  <molecular_weight>  (243) 
302.46

>  <exact_molecular_weight>  (243) 
302.22458

>  <molecular_formula>  (243) 
C20H30O2

>  <alogp>  (243) 
4.58

>  <topological_polar_surface_area>  (243) 
34.14

>  <rotatable_bond_count>  (243) 
1

>  <hydrogen_bond_acceptors>  (243) 
2

>  <hydrogen_bond_donors>  (243) 
0

>  <hydrogen_bond_acceptors_lipinski>  (243) 
2

>  <hydrogen_bond_donors_lipinski>  (243) 
0

>  <lipinski_rule_of_five_violations>  (243) 
0

>  <aromatic_rings_count>  (243) 
0

>  <qed_drug_likeliness>  (243) 
0.66

>  <formal_charge>  (243) 
0

>  <fractioncsp3>  (243) 
0.80

>  <number_of_minimal_rings>  (243) 
3

>  <van_der_walls_volume>  (243) 
nan

>  <contains_sugar>  (243) 
False

>  <contains_ring_sugars>  (243) 
False

>  <contains_linear_sugars>  (243) 
False

>  <murcko_framework>  (243) 
C1CCC2C(C1)CCC3CCCCC32

>  <np_likeness>  (243) 
2.67

>  <chemical_class>  (243) 
Prenol lipids

>  <chemical_sub_class>  (243) 
Diterpenoids

>  <chemical_super_class>  (243) 
Lipids and lipid-like molecules

>  <direct_parent_classification>  (243) 
Diterpenoids

>  <np_classifier_pathway>  (243) 
Terpenoids

>  <np_classifier_superclass>  (243) 
Diterpenoids

>  <np_classifier_class>  (243) 
Pimarane and Isopimarane diterpenoids

>  <np_classifier_is_glycoside>  (243) 
False

>  <organisms>  (243) 
Vellozia compacta

>  <collections>  (243) 
NuBBEDB|WikiData Natural Products

>  <dois>  (243) 
10.1016/0031-9422(83)80034-X

>  <synonyms>  (243) 
nan

>  <cas>  (243) 
nan

$$$$

     RDKit          2D

 41 44  0  0  0  0  0  0  0  0999 V2000
   -2.8813   -2.8406    0.0000 C   0  0  0  0  0  0  0  0  0  0  0  0
   -1.6684   -3.7232    0.0000 O   0  0  0  0  0  0  0  0  0  0  0  0
   -0.2976   -3.1140    0.0000 C   0  0  0  0  0  0  0  0  0  0  0  0
   -0.1398   -1.6223    0.0000 C   0  0  0  0  0  0  0  0  0  0  0  0
    1.2309   -1.0132    0.0000 C   0  0  0  0  0  0  0  0  0  0  0  0
    1.3888    0.4785    0.0000 C   0  0  0  0  0  0  0  0  0  0  0  0
    2.7595    1.0876    0.0000 C   0  0  0  0  0  0  0  0  0  0  0  0
    3.9724    0.2051    0.0000 C   0  0  0  0  0  0  0  0  0  0  0  0
    3.8146   -1.2866    0.0000 O   0  0  0  0  0  0  0  0  0  0  0  0
    5.0275   -2.1691    0.0000 C   0  0  0  0  0  0  0  0  0  0  0  0
    5.3432    0.8142    0.0000 C   0  0  0  0  0  0  0  0  0  0  0  0
    6.5561   -0.0683    0.0000 O   0  0  0  0  0  0  0  0  0  0  0  0
    5.5010    2.3059    0.0000 C   0  0  0  0  0  0  0  0  0  0  0  0
    6.8718    2.9151    0.0000 O   0  0  0  0  0  0  0  0  0  0  0  0
    7.0296    4.4067    0.0000 C   0  0  0  0  0  0  0  0  0  0  0  0
    4.2881    3.1884    0.0000 C   0  0  0  0  0  0  0  0  0  0  0  0
    2.9174    2.5793    0.0000 C   0  0  0  0  0  0  0  0  0  0  0  0
    1.7045    3.4618    0.0000 C   0  0  0  0  0  0  0  0  0  0  0  0
    0.3337    2.8527    0.0000 C   0  0  0  0  0  0  0  0  0  0  0  0
   -0.8792    3.7352    0.0000 C   0  0  0  0  0  0  0  0  0  0  0  0
   -0.7214    5.2269    0.0000 O   0  0  0  0  0  0  0  0  0  0  0  0
    0.1759    1.3610    0.0000 C   0  0  0  0  0  0  0  0  0  0  0  0
   -1.1949    0.7519    0.0000 C   0  0  0  0  0  0  0  0  0  0  0  0
   -2.4078    1.6344    0.0000 O   0  0  0  0  0  0  0  0  0  0  0  0
   -3.7785    1.0252    0.0000 C   0  0  0  0  0  0  0  0  0  0  0  0
   -4.9914    1.9078    0.0000 O   0  0  0  0  0  0  0  0  0  0  0  0
   -6.3622    1.2986    0.0000 C   0  0  0  0  0  0  0  0  0  0  0  0
   -7.5751    2.1812    0.0000 C   0  0  0  0  0  0  0  0  0  0  0  0
   -7.4172    3.6728    0.0000 O   0  0  0  0  0  0  0  0  0  0  0  0
   -6.5200   -0.1930    0.0000 C   0  0  0  0  0  0  0  0  0  0  0  0
   -7.8908   -0.8022    0.0000 O   0  0  0  0  0  0  0  0  0  0  0  0
   -5.3071   -1.0756    0.0000 C   0  0  0  0  0  0  0  0  0  0  0  0
   -5.4649   -2.5673    0.0000 O   0  0  0  0  0  0  0  0  0  0  0  0
   -3.9364   -0.4664    0.0000 C   0  0  0  0  0  0  0  0  0  0  0  0
   -2.7235   -1.3490    0.0000 O   0  0  0  0  0  0  0  0  0  0  0  0
    2.4438   -1.8957    0.0000 C   0  0  0  0  0  0  0  0  0  0  0  0
    2.2860   -3.3874    0.0000 C   0  0  0  0  0  0  0  0  0  0  0  0
    3.4989   -4.2699    0.0000 O   0  0  0  0  0  0  0  0  0  0  0  0
    3.3411   -5.7616    0.0000 C   0  0  0  0  0  0  0  0  0  0  0  0
    0.9153   -3.9965    0.0000 C   0  0  0  0  0  0  0  0  0  0  0  0
    0.7574   -5.4882    0.0000 O   0  0  0  0  0  0  0  0  0  0  0  0
  1  2  1  0
  2  3  1  0
  3  4  2  0
  4  5  1  0
  6  5  1  1
  6  7  1  0
  7  8  2  0
  8  9  1  0
  9 10  1  0
  8 11  1  0
 11 12  1  0
 11 13  2  0
 13 14  1  0
 14 15  1  0
 13 16  1  0
 16 17  2  0
 17 18  1  0
 18 19  1  0
 19 20  1  1
 20 21  1  0
 19 22  1  0
 22 23  1  6
 23 24  1  0
 25 24  1  1
 25 26  1  0
 26 27  1  0
 27 28  1  1
 28 29  1  0
 27 30  1  0
 30 31  1  6
 30 32  1  0
 32 33  1  1
 32 34  1  0
 34 35  1  6
  5 36  2  0
 36 37  1  0
 37 38  1  0
 38 39  1  0
 37 40  2  0
 40 41  1  0
 40  3  1  0
 22  6  1  0
 34 25  1  0
 17  7  1  0
M  END
>  <identifier>  (244) 
CNP0210130.2

>  <canonical_smiles>  (244) 
COC1=CC([C@@H]2C3=C(OC)C(O)=C(OC)C=C3C[C@H](CO)[C@H]2CO[C@@H]2O[C@H](CO)[C@@H](O)[C@H](O)[C@H]2O)=CC(OC)=C1O

>  <standard_inchi>  (244) 
InChI=1S/C28H38O13/c1-36-16-7-13(8-17(37-2)22(16)31)20-15(11-40-28-26(35)25(34)23(32)19(10-30)41-28)14(9-29)5-12-6-18(38-3)24(33)27(39-4)21(12)20/h6-8,14-15,19-20,23,25-26,28-35H,5,9-11H2,1-4H3/t14-,15-,19-,20+,23-,25+,26-,28-/m1/s1

>  <standard_inchi_key>  (244) 
PQQRNPDHSJDAGV-UGJKOEBBSA-N

>  <name>  (244) 
(-)-Lyoniresinol 9'-O-glucoside

>  <iupac_name>  (244) 
(2~{R},3~{R},4~{S},5~{S},6~{R})-2-[[(1~{R},2~{S},3~{S})-7-hydroxy-1-(4-hydroxy-3,5-dimethoxy-phenyl)-3-(hydroxymethyl)-6,8-dimethoxy-tetralin-2-yl]methoxy]-6-(hydroxymethyl)tetrahydropyran-3,4,5-triol

>  <annotation_level>  (244) 
5

>  <total_atom_count>  (244) 
79

>  <heavy_atom_count>  (244) 
41

>  <molecular_weight>  (244) 
582.6

>  <exact_molecular_weight>  (244) 
582.23124

>  <molecular_formula>  (244) 
C28H38O13

>  <alogp>  (244) 
-0.14

>  <topological_polar_surface_area>  (244) 
196.99

>  <rotatable_bond_count>  (244) 
10

>  <hydrogen_bond_acceptors>  (244) 
13

>  <hydrogen_bond_donors>  (244) 
7

>  <hydrogen_bond_acceptors_lipinski>  (244) 
13

>  <hydrogen_bond_donors_lipinski>  (244) 
7

>  <lipinski_rule_of_five_violations>  (244) 
3

>  <aromatic_rings_count>  (244) 
2

>  <qed_drug_likeliness>  (244) 
0.20

>  <formal_charge>  (244) 
0

>  <fractioncsp3>  (244) 
0.57

>  <number_of_minimal_rings>  (244) 
4

>  <van_der_walls_volume>  (244) 
505.53

>  <contains_sugar>  (244) 
True

>  <contains_ring_sugars>  (244) 
True

>  <contains_linear_sugars>  (244) 
False

>  <murcko_framework>  (244) 
O1CCCCC1OCC2CCc3ccccc3C2c4ccccc4

>  <np_likeness>  (244) 
1.96

>  <chemical_class>  (244) 
Lignan glycosides

>  <chemical_sub_class>  (244) 
Lignan glycosides

>  <chemical_super_class>  (244) 
Lignans, neolignans and related compounds

>  <direct_parent_classification>  (244) 
Lignan glycosides

>  <np_classifier_pathway>  (244) 
Shikimates and Phenylpropanoids

>  <np_classifier_superclass>  (244) 
Lignans

>  <np_classifier_class>  (244) 
Arylnaphthalene and aryltetralin lignans

>  <np_classifier_is_glycoside>  (244) 
True

>  <organisms>  (244) 
Acanthus Ebracteatus|Acanthus ebracteatus|Aegle marmelos|Alangium premnifolium|Alibertia sessilis|Amphilophium paniculatum|Betula pendula|Betula platyphylla|Cordiera sessilis|Eurya japonica|Pleuropterus ciliinervis|Spiraea canescens|Vitex negundo|Walsura robusta

>  <collections>  (244) 
ANPDB|Australian natural products|ChemSpider NPs|KNApSaCK|Latin America dataset|NANPDB (Natural Products from Northern African Sources)|NPASS|NuBBEDB|Super Natural II|TCMDB-Taiwan (Traditional Chinese Medicine database)|VietHerb|WikiData Natural Products|ZINC NP

>  <dois>  (244) 
10.1016/J.PHYTOCHEM.2009.07.013|10.1016/J.PHYTOCHEM.2015.02.020|10.1016/S0031-9422(01)00306-5|10.1016/S0031-9422(96)00879-5|10.1016/S0960-894X(98)00528-9|10.1016/j.phytochem.2015.02.020|10.1016/s0031-9422(01)00306-5|10.1080/10286020.2016.1142975|10.1080/14786410902819152|10.1248/CPB.42.1924|10.1590/S0100-46702006000400008|10.1590/S0103-50532007000700017

>  <synonyms>  (244) 
(-)-Lyoniresinol 3alpha-O-beta-D-glucopyranoside|(-)-Lyoniresinol-3\u221a\u00e9\u00ac\u00b1-O-\u221a\u00e9\u00ac\u2264-glucopyranoside|(2R,3R,4S,5S,6R)-2-[[(1R,2S,3S)-7-hydroxy-1-(4-hydroxy-3,5-dimethoxyphenyl)-3-(hydroxymethyl)-6,8-dimethoxy-1,2,3,4-tetrahydronaphthalen-2-yl]methoxy]-6-(hydroxymethyl)oxane-3,4,5-triol|143236-02-6|AKOS040762007|CHEMBL2332109|CS-0144593|FS-8818|HY-N8466|SCHEMBL23202638

>  <cas>  (244) 
143236-02-6

$$$$

     RDKit          2D

 26 26  0  0  0  0  0  0  0  0999 V2000
  -13.2709    1.4248    0.0000 C   0  0  0  0  0  0  0  0  0  0  0  0
  -12.0886    0.5016    0.0000 C   0  0  0  0  0  0  0  0  0  0  0  0
  -12.2970   -0.9839    0.0000 O   0  0  0  0  0  0  0  0  0  0  0  0
  -10.6980    1.0638    0.0000 C   0  0  0  0  0  0  0  0  0  0  0  0
   -9.5157    0.1406    0.0000 C   0  0  0  0  0  0  0  0  0  0  0  0
   -8.1251    0.7029    0.0000 C   0  0  0  0  0  0  0  0  0  0  0  0
   -6.9429   -0.2203    0.0000 C   0  0  0  0  0  0  0  0  0  0  0  0
   -5.5522    0.3420    0.0000 C   0  0  0  0  0  0  0  0  0  0  0  0
   -4.3700   -0.5812    0.0000 C   0  0  0  0  0  0  0  0  0  0  0  0
   -2.9793   -0.0190    0.0000 C   0  0  0  0  0  0  0  0  0  0  0  0
   -1.7971   -0.9422    0.0000 C   0  0  0  0  0  0  0  0  0  0  0  0
   -0.4065   -0.3799    0.0000 C   0  0  0  0  0  0  0  0  0  0  0  0
    0.7758   -1.3031    0.0000 C   0  0  0  0  0  0  0  0  0  0  0  0
    2.1664   -0.7408    0.0000 C   0  0  0  0  0  0  0  0  0  0  0  0
    3.3487   -1.6640    0.0000 C   0  0  0  0  0  0  0  0  0  0  0  0
    4.7393   -1.1018    0.0000 C   0  0  0  0  0  0  0  0  0  0  0  0
    4.9477    0.3837    0.0000 C   0  0  0  0  0  0  0  0  0  0  0  0
    6.3383    0.9459    0.0000 C   0  0  0  0  0  0  0  0  0  0  0  0
    7.5206    0.0227    0.0000 C   0  0  0  0  0  0  0  0  0  0  0  0
    8.9112    0.5850    0.0000 O   0  0  0  0  0  0  0  0  0  0  0  0
    9.1196    2.0705    0.0000 C   0  0  0  0  0  0  0  0  0  0  0  0
   10.5102    2.6327    0.0000 C   0  0  0  0  0  0  0  0  0  0  0  0
    7.9373    2.9936    0.0000 O   0  0  0  0  0  0  0  0  0  0  0  0
    7.3122   -1.4627    0.0000 C   0  0  0  0  0  0  0  0  0  0  0  0
    8.4944   -2.3859    0.0000 C   0  0  0  0  0  0  0  0  0  0  0  0
    5.9216   -2.0250    0.0000 N   0  0  0  0  0  0  0  0  0  0  0  0
  1  2  1  0
  2  3  2  0
  2  4  1  0
  4  5  1  0
  5  6  1  0
  6  7  1  0
  7  8  1  0
  8  9  1  0
  9 10  1  0
 10 11  1  0
 11 12  1  0
 12 13  1  0
 13 14  1  0
 14 15  1  0
 16 15  1  1
 16 17  1  0
 17 18  1  0
 18 19  1  0
 19 20  1  1
 20 21  1  0
 21 22  1  0
 21 23  2  0
 19 24  1  0
 24 25  1  1
 24 26  1  0
 26 16  1  0
M  END
>  <identifier>  (245) 
CNP0107242.2

>  <canonical_smiles>  (245) 
CC(=O)CCCCCCCCCCCC[C@H]1CC[C@@H](OC(C)=O)[C@@H](C)N1

>  <standard_inchi>  (245) 
InChI=1S/C22H41NO3/c1-18(24)14-12-10-8-6-4-5-7-9-11-13-15-21-16-17-22(19(2)23-21)26-20(3)25/h19,21-23H,4-17H2,1-3H3/t19-,21+,22-/m1/s1

>  <standard_inchi_key>  (245) 
LRKWDKCSHJWJST-BAGYTPMASA-N

>  <name>  (245) 
(-)-3-O-acetylspectaline

>  <iupac_name>  (245) 
[(2~{R},3~{R},6~{S})-2-methyl-6-(13-oxotetradecyl)-3-piperidyl] acetate

>  <annotation_level>  (245) 
5

>  <total_atom_count>  (245) 
67

>  <heavy_atom_count>  (245) 
26

>  <molecular_weight>  (245) 
367.57

>  <exact_molecular_weight>  (245) 
367.30864

>  <molecular_formula>  (245) 
C22H41NO3

>  <alogp>  (245) 
5.33

>  <topological_polar_surface_area>  (245) 
55.40

>  <rotatable_bond_count>  (245) 
14

>  <hydrogen_bond_acceptors>  (245) 
4

>  <hydrogen_bond_donors>  (245) 
1

>  <hydrogen_bond_acceptors_lipinski>  (245) 
4

>  <hydrogen_bond_donors_lipinski>  (245) 
1

>  <lipinski_rule_of_five_violations>  (245) 
1

>  <aromatic_rings_count>  (245) 
0

>  <qed_drug_likeliness>  (245) 
0.33

>  <formal_charge>  (245) 
0

>  <fractioncsp3>  (245) 
0.91

>  <number_of_minimal_rings>  (245) 
1

>  <van_der_walls_volume>  (245) 
392.53

>  <contains_sugar>  (245) 
False

>  <contains_ring_sugars>  (245) 
False

>  <contains_linear_sugars>  (245) 
False

>  <murcko_framework>  (245) 
N1CCCCC1

>  <np_likeness>  (245) 
1.74

>  <chemical_class>  (245) 
nan

>  <chemical_sub_class>  (245) 
Alkaloids and derivatives

>  <chemical_super_class>  (245) 
Alkaloids and derivatives

>  <direct_parent_classification>  (245) 
Alkaloids and derivatives

>  <np_classifier_pathway>  (245) 
Alkaloids

>  <np_classifier_superclass>  (245) 
Lysine alkaloids

>  <np_classifier_class>  (245) 
Piperidine alkaloids

>  <np_classifier_is_glycoside>  (245) 
False

>  <organisms>  (245) 
Cassia spectabilis|Senna spectabilis|cassia spectabilis

>  <collections>  (245) 
ChemSpider NPs|KNApSaCK|Latin America dataset|NPASS|NuBBEDB|Super Natural II|WikiData Natural Products|ZINC NP

>  <dois>  (245) 
10.1016/J.BMC.2005.04.030|10.1016/j.bmc.2018.10.032|10.1021/np0303963|10.1021/np070312g|10.1248/CPB.56.407|10.1248/cpb.56.407

>  <synonyms>  (245) 
(-)-3-O-Acetylspectaline|(2R,3R,6S)-2-Methyl-6-(13-oxotetradecyl)piperidin-3-yl acetate|14-((2S,5R,6R)-5-(Acetyloxy)-6-methyl-2-piperidinyl)-2-tetradecanone|2-Methyl-6-(13-oxotetradecyl)piperidin-3-yl acetate, (2R,3R,6S)-|2-Tetradecanone, 14-((2S,5R,6R)-5-(acetyloxy)-6-methyl-2-piperidinyl)-|709046-67-3|CHEMBL251644|Lassbio-767 free base|N6XK6QHP8K|UNII-N6XK6QHP8K

>  <cas>  (245) 
709046-67-3

$$$$

     RDKit          2D

 32 35  0  0  0  0  0  0  0  0999 V2000
    1.5925    5.5908    0.0000 C   0  0  0  0  0  0  0  0  0  0  0  0
    2.0690    4.1684    0.0000 C   0  0  0  0  0  0  0  0  0  0  0  0
    1.0755    3.0447    0.0000 C   0  0  0  0  0  0  0  0  0  0  0  0
    1.5519    1.6223    0.0000 C   0  0  0  0  0  0  0  0  0  0  0  0
    3.0219    1.3238    0.0000 C   0  0  0  0  0  0  0  0  0  0  0  0
    3.4984   -0.0985    0.0000 C   0  0  0  0  0  0  0  0  0  0  0  0
    4.9683   -0.3971    0.0000 O   0  0  0  0  0  0  0  0  0  0  0  0
    5.4448   -1.8194    0.0000 C   0  0  0  0  0  0  0  0  0  0  0  0
    6.9148   -2.1179    0.0000 C   0  0  0  0  0  0  0  0  0  0  0  0
    4.4513   -2.9432    0.0000 O   0  0  0  0  0  0  0  0  0  0  0  0
    2.5048   -1.2223    0.0000 C   0  0  0  0  0  0  0  0  0  0  0  0
    2.9813   -2.6446    0.0000 O   0  0  0  0  0  0  0  0  0  0  0  0
    1.0348   -0.9238    0.0000 C   0  0  0  0  0  0  0  0  0  0  0  0
    0.0413   -2.0475    0.0000 O   0  0  0  0  0  0  0  0  0  0  0  0
    0.5177   -3.4699    0.0000 C   0  0  0  0  0  0  0  0  0  0  0  0
    0.5584    0.4986    0.0000 C   0  0  0  0  0  0  0  0  0  0  0  0
   -0.9116    0.7971    0.0000 O   0  0  0  0  0  0  0  0  0  0  0  0
   -1.3881    2.2194    0.0000 C   0  0  0  0  0  0  0  0  0  0  0  0
   -2.8581    2.5180    0.0000 C   0  0  0  0  0  0  0  0  0  0  0  0
   -0.8601    2.8166    0.0000 O   0  0  0  0  0  0  0  0  0  0  0  0
   -0.2369   -0.0180    0.0000 C   0  0  0  0  0  0  0  0  0  0  0  0
   -1.6017   -0.6405    0.0000 C   0  0  0  0  0  0  0  0  0  0  0  0
   -1.7449   -2.1336    0.0000 C   0  0  0  0  0  0  0  0  0  0  0  0
   -3.1096   -2.7562    0.0000 C   0  0  0  0  0  0  0  0  0  0  0  0
   -4.3311   -1.8855    0.0000 C   0  0  0  0  0  0  0  0  0  0  0  0
   -5.7954   -2.2107    0.0000 O   0  0  0  0  0  0  0  0  0  0  0  0
   -6.5572   -0.9185    0.0000 C   0  0  0  0  0  0  0  0  0  0  0  0
   -5.5637    0.2053    0.0000 O   0  0  0  0  0  0  0  0  0  0  0  0
   -4.1879   -0.3924    0.0000 C   0  0  0  0  0  0  0  0  0  0  0  0
   -2.8231    0.2301    0.0000 C   0  0  0  0  0  0  0  0  0  0  0  0
    0.0616    1.4520    0.0000 C   0  0  0  0  0  0  0  0  0  0  0  0
   -0.3190    2.1525    0.0000 C   0  0  0  0  0  0  0  0  0  0  0  0
  1  2  2  0
  2  3  1  0
  4  3  1  1
  4  5  1  0
  5  6  2  0
  6  7  1  0
  7  8  1  0
  8  9  1  0
  8 10  2  0
  6 11  1  0
 11 12  2  0
 11 13  1  0
 13 14  1  1
 14 15  1  0
 13 16  1  0
 16 17  1  0
 17 18  1  0
 18 19  1  0
 18 20  2  0
 13 21  1  0
 21 22  1  1
 22 23  2  0
 23 24  1  0
 24 25  2  0
 25 26  1  0
 26 27  1  0
 27 28  1  0
 28 29  1  0
 29 30  2  0
 21 31  1  0
 31 32  1  6
 16  4  1  0
 30 22  1  0
 31  4  1  0
 29 25  1  0
M  END
>  <identifier>  (246) 
CNP0080500.1

>  <canonical_smiles>  (246) 
C=CC[C@@]12C=C(OC(C)=O)C(=O)[C@@](OC)(C1OC(C)=O)[C@@H](C1=CC=C3OCOC3=C1)[C@@H]2C

>  <standard_inchi>  (246) 
InChI=1S/C24H26O8/c1-6-9-23-11-19(31-14(3)25)21(27)24(28-5,22(23)32-15(4)26)20(13(23)2)16-7-8-17-18(10-16)30-12-29-17/h6-8,10-11,13,20,22H,1,9,12H2,2-5H3/t13-,20+,22?,23-,24+/m0/s1

>  <standard_inchi_key>  (246) 
YOJOMKQXHBDBOK-IBPQCQHASA-N

>  <name>  (246) 
nan

>  <iupac_name>  (246) 
[(1~{R},5~{S},6~{R},7~{S})-3-acetoxy-1-allyl-6-(1,3-benzodioxol-5-yl)-5-methoxy-7-methyl-4-oxo-8-bicyclo[3.2.1]oct-2-enyl] acetate

>  <annotation_level>  (246) 
4

>  <total_atom_count>  (246) 
58

>  <heavy_atom_count>  (246) 
32

>  <molecular_weight>  (246) 
442.46

>  <exact_molecular_weight>  (246) 
442.16277

>  <molecular_formula>  (246) 
C24H26O8

>  <alogp>  (246) 
3.06

>  <topological_polar_surface_area>  (246) 
97.36

>  <rotatable_bond_count>  (246) 
6

>  <hydrogen_bond_acceptors>  (246) 
8

>  <hydrogen_bond_donors>  (246) 
0

>  <hydrogen_bond_acceptors_lipinski>  (246) 
8

>  <hydrogen_bond_donors_lipinski>  (246) 
0

>  <lipinski_rule_of_five_violations>  (246) 
0

>  <aromatic_rings_count>  (246) 
1

>  <qed_drug_likeliness>  (246) 
0.49

>  <formal_charge>  (246) 
0

>  <fractioncsp3>  (246) 
0.46

>  <number_of_minimal_rings>  (246) 
4

>  <van_der_walls_volume>  (246) 
nan

>  <contains_sugar>  (246) 
False

>  <contains_ring_sugars>  (246) 
False

>  <contains_linear_sugars>  (246) 
False

>  <murcko_framework>  (246) 
O1c2ccc(cc2OC1)C3CC4C=CCC3C4

>  <np_likeness>  (246) 
1.87

>  <chemical_class>  (246) 
Benzodioxoles

>  <chemical_sub_class>  (246) 
Benzodioxoles

>  <chemical_super_class>  (246) 
Organoheterocyclic compounds

>  <direct_parent_classification>  (246) 
Benzodioxoles

>  <np_classifier_pathway>  (246) 
Shikimates and Phenylpropanoids

>  <np_classifier_superclass>  (246) 
Lignans

>  <np_classifier_class>  (246) 
Neolignans

>  <np_classifier_is_glycoside>  (246) 
False

>  <organisms>  (246) 
Ocotea catharinensis

>  <collections>  (246) 
Latin America dataset|NuBBEDB|WikiData Natural Products

>  <dois>  (246) 
10.1016/0031-9422(83)83046-5|10.1016/0031-9422(91)83479-5

>  <synonyms>  (246) 
rel-(7R8S1'R2'R3'S)-D-2'5'-Diacetate-3'-methoxy-34-methylenedioxy-1'2'3'4'-tetrahydro-73'81'-neolignan

>  <cas>  (246) 
nan

$$$$

     RDKit          2D

 23 25  0  0  0  0  0  0  0  0999 V2000
   -6.4692    2.2292    0.0000 C   0  0  0  0  0  0  0  0  0  0  0  0
   -5.9914    0.8073    0.0000 O   0  0  0  0  0  0  0  0  0  0  0  0
   -4.5211    0.5102    0.0000 C   0  0  0  0  0  0  0  0  0  0  0  0
   -3.5287    1.6350    0.0000 C   0  0  0  0  0  0  0  0  0  0  0  0
   -2.0584    1.3379    0.0000 C   0  0  0  0  0  0  0  0  0  0  0  0
   -1.5806   -0.0840    0.0000 C   0  0  0  0  0  0  0  0  0  0  0  0
   -0.1103   -0.3811    0.0000 C   0  0  0  0  0  0  0  0  0  0  0  0
    0.3676   -1.8029    0.0000 C   0  0  0  0  0  0  0  0  0  0  0  0
    1.8379   -2.1000    0.0000 O   0  0  0  0  0  0  0  0  0  0  0  0
    2.8303   -0.9753    0.0000 C   0  0  0  0  0  0  0  0  0  0  0  0
    4.3006   -1.2724    0.0000 C   0  0  0  0  0  0  0  0  0  0  0  0
    5.2930   -0.1476    0.0000 C   0  0  0  0  0  0  0  0  0  0  0  0
    6.7633   -0.4447    0.0000 O   0  0  0  0  0  0  0  0  0  0  0  0
    4.8152    1.2742    0.0000 C   0  0  0  0  0  0  0  0  0  0  0  0
    3.3449    1.5713    0.0000 C   0  0  0  0  0  0  0  0  0  0  0  0
    2.8671    2.9932    0.0000 O   0  0  0  0  0  0  0  0  0  0  0  0
    2.3525    0.4466    0.0000 C   0  0  0  0  0  0  0  0  0  0  0  0
    0.8822    0.7437    0.0000 C   0  0  0  0  0  0  0  0  0  0  0  0
    0.4043    2.1655    0.0000 O   0  0  0  0  0  0  0  0  0  0  0  0
   -2.5730   -1.2087    0.0000 C   0  0  0  0  0  0  0  0  0  0  0  0
   -2.0952   -2.6306    0.0000 O   0  0  0  0  0  0  0  0  0  0  0  0
   -3.0876   -3.7553    0.0000 C   0  0  0  0  0  0  0  0  0  0  0  0
   -4.0433   -0.9116    0.0000 C   0  0  0  0  0  0  0  0  0  0  0  0
  1  2  1  0
  2  3  1  0
  3  4  2  0
  4  5  1  0
  5  6  2  0
  6  7  1  0
  7  8  2  0
  8  9  1  0
  9 10  1  0
 10 11  2  0
 11 12  1  0
 12 13  1  0
 12 14  2  0
 14 15  1  0
 15 16  1  0
 15 17  2  0
 17 18  1  0
 18 19  2  0
  6 20  1  0
 20 21  1  0
 21 22  1  0
 20 23  2  0
 23  3  1  0
 18  7  1  0
 17 10  1  0
M  END
>  <identifier>  (247) 
CNP0414976.0

>  <canonical_smiles>  (247) 
COC1=CC=C(C2=COC3=CC(O)=CC(O)=C3C2=O)C(OC)=C1

>  <standard_inchi>  (247) 
InChI=1S/C17H14O6/c1-21-10-3-4-11(14(7-10)22-2)12-8-23-15-6-9(18)5-13(19)16(15)17(12)20/h3-8,18-19H,1-2H3

>  <standard_inchi_key>  (247) 
PBUHDEMRGWYORH-UHFFFAOYSA-N

>  <name>  (247) 
2'-methoxybiochanin A

>  <iupac_name>  (247) 
3-(2,4-dimethoxyphenyl)-5,7-dihydroxy-chromen-4-one

>  <annotation_level>  (247) 
5

>  <total_atom_count>  (247) 
37

>  <heavy_atom_count>  (247) 
23

>  <molecular_weight>  (247) 
314.29

>  <exact_molecular_weight>  (247) 
314.07904

>  <molecular_formula>  (247) 
C17H14O6

>  <alogp>  (247) 
2.89

>  <topological_polar_surface_area>  (247) 
89.13

>  <rotatable_bond_count>  (247) 
3

>  <hydrogen_bond_acceptors>  (247) 
6

>  <hydrogen_bond_donors>  (247) 
2

>  <hydrogen_bond_acceptors_lipinski>  (247) 
6

>  <hydrogen_bond_donors_lipinski>  (247) 
2

>  <lipinski_rule_of_five_violations>  (247) 
0

>  <aromatic_rings_count>  (247) 
3

>  <qed_drug_likeliness>  (247) 
0.77

>  <formal_charge>  (247) 
0

>  <fractioncsp3>  (247) 
0.12

>  <number_of_minimal_rings>  (247) 
3

>  <van_der_walls_volume>  (247) 
264.99

>  <contains_sugar>  (247) 
False

>  <contains_ring_sugars>  (247) 
False

>  <contains_linear_sugars>  (247) 
False

>  <murcko_framework>  (247) 
O1C=C(c2ccccc2)Cc3ccccc13

>  <np_likeness>  (247) 
1.13

>  <chemical_class>  (247) 
Isoflavonoids

>  <chemical_sub_class>  (247) 
Isoflav-2-enes

>  <chemical_super_class>  (247) 
Phenylpropanoids and polyketides

>  <direct_parent_classification>  (247) 
Isoflavones

>  <np_classifier_pathway>  (247) 
Shikimates and Phenylpropanoids

>  <np_classifier_superclass>  (247) 
Isoflavonoids

>  <np_classifier_class>  (247) 
Isoflavones

>  <np_classifier_is_glycoside>  (247) 
False

>  <organisms>  (247) 
Dalbergia parviflora|Virola caducifolia

>  <collections>  (247) 
CMAUP (cCollective molecular activities of useful plants)|Latin America dataset|NPASS|NPEdia|NuBBEDB|Super Natural II|UNPD (Universal Natural Products Database)|WikiData Natural Products|ZINC NP

>  <dois>  (247) 
10.1016/S0031-9422(00)84396-4|10.1016/S0031-9422(00)88981-5|10.1021/NP900676Y|10.1021/np900676y

>  <synonyms>  (247) 
2?-Methoxybiochanin A|3-(2,4-Dimethoxyphenyl)-5,7-dihydroxy-4H-1-benzopyran-4-one|3-(2,4-Dimethoxyphenyl)-5,7-dihydroxy-4H-chromen-4-one|5,7-Dihydroxy-2',4'-dimethoxyisoflavone|61243-75-2|CHEMBL1088580|DTXSID20658062|LMPK12050329|XM161900

>  <cas>  (247) 
61243-75-2

$$$$

     RDKit          2D

 31 34  0  0  0  0  0  0  0  0999 V2000
   -7.7886    0.7720    0.0000 C   0  0  0  0  0  0  0  0  0  0  0  0
   -6.2886    0.7686    0.0000 C   0  0  0  0  0  0  0  0  0  0  0  0
   -5.5356    2.0659    0.0000 O   0  0  0  0  0  0  0  0  0  0  0  0
   -4.0357    2.0625    0.0000 C   0  0  0  0  0  0  0  0  0  0  0  0
   -3.2827    3.3598    0.0000 C   0  0  0  0  0  0  0  0  0  0  0  0
   -3.2886    0.7617    0.0000 C   0  0  0  0  0  0  0  0  0  0  0  0
   -4.0415   -0.5356    0.0000 C   0  0  0  0  0  0  0  0  0  0  0  0
   -3.2945   -1.8363    0.0000 C   0  0  0  0  0  0  0  0  0  0  0  0
   -1.7945   -1.8397    0.0000 C   0  0  0  0  0  0  0  0  0  0  0  0
   -1.0475   -3.1405    0.0000 C   0  0  0  0  0  0  0  0  0  0  0  0
    0.4525   -3.1439    0.0000 C   0  0  0  0  0  0  0  0  0  0  0  0
    1.1996   -4.4446    0.0000 O   0  0  0  0  0  0  0  0  0  0  0  0
    1.2055   -1.8465    0.0000 C   0  0  0  0  0  0  0  0  0  0  0  0
    0.4584   -0.5458    0.0000 C   0  0  0  0  0  0  0  0  0  0  0  0
    1.2114    0.7515    0.0000 O   0  0  0  0  0  0  0  0  0  0  0  0
    2.7114    0.7481    0.0000 C   0  0  0  0  0  0  0  0  0  0  0  0
    3.4584   -0.5526    0.0000 O   0  0  0  0  0  0  0  0  0  0  0  0
    4.9584   -0.5560    0.0000 C   0  0  0  0  0  0  0  0  0  0  0  0
    5.7055   -1.8567    0.0000 C   0  0  0  0  0  0  0  0  0  0  0  0
    4.9525   -3.1541    0.0000 O   0  0  0  0  0  0  0  0  0  0  0  0
    5.7114    0.7413    0.0000 C   0  0  0  0  0  0  0  0  0  0  0  0
    7.2114    0.7379    0.0000 O   0  0  0  0  0  0  0  0  0  0  0  0
    4.9643    2.0421    0.0000 C   0  0  0  0  0  0  0  0  0  0  0  0
    5.7173    3.3394    0.0000 O   0  0  0  0  0  0  0  0  0  0  0  0
    3.4643    2.0455    0.0000 C   0  0  0  0  0  0  0  0  0  0  0  0
    2.7173    3.3462    0.0000 O   0  0  0  0  0  0  0  0  0  0  0  0
   -1.0416   -0.5424    0.0000 C   0  0  0  0  0  0  0  0  0  0  0  0
   -1.7886    0.7583    0.0000 C   0  0  0  0  0  0  0  0  0  0  0  0
   -1.0357    2.0557    0.0000 O   0  0  0  0  0  0  0  0  0  0  0  0
   -5.5415   -0.5322    0.0000 C   0  0  0  0  0  0  0  0  0  0  0  0
   -6.2945   -1.8295    0.0000 O   0  0  0  0  0  0  0  0  0  0  0  0
  1  2  1  0
  2  3  1  0
  3  4  1  0
  4  5  1  0
  4  6  1  0
  6  7  2  0
  7  8  1  0
  8  9  2  0
  9 10  1  0
 10 11  2  0
 11 12  1  0
 11 13  1  0
 13 14  2  0
 14 15  1  0
 16 15  1  1
 16 17  1  0
 17 18  1  0
 18 19  1  1
 19 20  1  0
 18 21  1  0
 21 22  1  6
 21 23  1  0
 23 24  1  1
 23 25  1  0
 25 26  1  6
 14 27  1  0
 27 28  2  0
 28 29  1  0
  7 30  1  0
 30 31  2  0
 30  2  1  0
 28  6  1  0
 27  9  1  0
 25 16  1  0
M  END
>  <identifier>  (248) 
CNP0204698.1

>  <canonical_smiles>  (248) 
CC1OC(C)C2=C(C=C3C=C(O)C=C(O[C@@H]4O[C@H](CO)[C@@H](O)[C@H](O)[C@H]4O)C3=C2O)C1=O

>  <standard_inchi>  (248) 
InChI=1S/C21H24O10/c1-7-14-11(16(24)8(2)29-7)4-9-3-10(23)5-12(15(9)18(14)26)30-21-20(28)19(27)17(25)13(6-22)31-21/h3-5,7-8,13,17,19-23,25-28H,6H2,1-2H3/t7?,8?,13-,17-,19+,20-,21-/m1/s1

>  <standard_inchi_key>  (248) 
NKCCZPQXMZBBMB-ZOUVLVPMSA-N

>  <name>  (248) 
nan

>  <iupac_name>  (248) 
7,10-dihydroxy-1,3-dimethyl-9-[(2~{S},3~{R},4~{S},5~{S},6~{R})-3,4,5-trihydroxy-6-(hydroxymethyl)tetrahydropyran-2-yl]oxy-1~{H}-benzo[g]isochromen-4-one

>  <annotation_level>  (248) 
4

>  <total_atom_count>  (248) 
55

>  <heavy_atom_count>  (248) 
31

>  <molecular_weight>  (248) 
436.41

>  <exact_molecular_weight>  (248) 
436.13695

>  <molecular_formula>  (248) 
C21H24O10

>  <alogp>  (248) 
0.09

>  <topological_polar_surface_area>  (248) 
166.14

>  <rotatable_bond_count>  (248) 
3

>  <hydrogen_bond_acceptors>  (248) 
10

>  <hydrogen_bond_donors>  (248) 
6

>  <hydrogen_bond_acceptors_lipinski>  (248) 
10

>  <hydrogen_bond_donors_lipinski>  (248) 
6

>  <lipinski_rule_of_five_violations>  (248) 
1

>  <aromatic_rings_count>  (248) 
2

>  <qed_drug_likeliness>  (248) 
0.39

>  <formal_charge>  (248) 
0

>  <fractioncsp3>  (248) 
0.48

>  <number_of_minimal_rings>  (248) 
4

>  <van_der_walls_volume>  (248) 
nan

>  <contains_sugar>  (248) 
True

>  <contains_ring_sugars>  (248) 
True

>  <contains_linear_sugars>  (248) 
False

>  <murcko_framework>  (248) 
O1Cc2cc3c(OC4OCCCC4)cccc3cc2CC1

>  <np_likeness>  (248) 
2.30

>  <chemical_class>  (248) 
Naphthopyrans

>  <chemical_sub_class>  (248) 
Naphthopyrans

>  <chemical_super_class>  (248) 
Organoheterocyclic compounds

>  <direct_parent_classification>  (248) 
Naphthopyrans

>  <np_classifier_pathway>  (248) 
Polyketides

>  <np_classifier_superclass>  (248) 
Naphthalenes

>  <np_classifier_class>  (248) 
Naphthalenes and derivatives

>  <np_classifier_is_glycoside>  (248) 
True

>  <organisms>  (248) 
Aphis nerii

>  <collections>  (248) 
Latin America dataset|NuBBEDB|WikiData Natural Products

>  <dois>  (248) 
10.1016/S0040-4039(01)97216-8

>  <synonyms>  (248) 
neriaphin

>  <cas>  (248) 
nan

$$$$

     RDKit          2D

 36 39  0  0  0  0  0  0  0  0999 V2000
   -6.2299    0.0737    0.0000 C   0  0  0  0  0  0  0  0  0  0  0  0
   -5.3847    1.3129    0.0000 C   0  0  0  0  0  0  0  0  0  0  0  0
   -6.0353    2.6645    0.0000 C   0  0  0  0  0  0  0  0  0  0  0  0
   -3.8889    1.2006    0.0000 C   0  0  0  0  0  0  0  0  0  0  0  0
   -3.0437    2.4398    0.0000 C   0  0  0  0  0  0  0  0  0  0  0  0
   -1.5479    2.3275    0.0000 C   0  0  0  0  0  0  0  0  0  0  0  0
   -0.7028    3.5667    0.0000 O   0  0  0  0  0  0  0  0  0  0  0  0
   -0.8973    0.9759    0.0000 C   0  0  0  0  0  0  0  0  0  0  0  0
   -2.3931    1.0882    0.0000 C   0  0  0  0  0  0  0  0  0  0  0  0
   -1.7425   -0.2633    0.0000 C   0  0  0  0  0  0  0  0  0  0  0  0
   -1.0919   -1.6149    0.0000 C   0  0  0  0  0  0  0  0  0  0  0  0
    0.4039   -1.7272    0.0000 C   0  0  0  0  0  0  0  0  0  0  0  0
    1.2491   -0.4880    0.0000 C   0  0  0  0  0  0  0  0  0  0  0  0
    2.7355   -0.2869    0.0000 C   0  0  0  0  0  0  0  0  0  0  0  0
    3.7719   -1.3713    0.0000 C   0  0  0  0  0  0  0  0  0  0  0  0
    2.5852   -2.2886    0.0000 C   0  0  0  0  0  0  0  0  0  0  0  0
    4.5602   -2.6474    0.0000 C   0  0  0  0  0  0  0  0  0  0  0  0
    6.0175   -2.2920    0.0000 C   0  0  0  0  0  0  0  0  0  0  0  0
    6.1299   -0.7962    0.0000 C   0  0  0  0  0  0  0  0  0  0  0  0
    7.4060   -0.0079    0.0000 C   0  0  0  0  0  0  0  0  0  0  0  0
    6.6177    1.2682    0.0000 C   0  0  0  0  0  0  0  0  0  0  0  0
    8.1943   -1.2841    0.0000 C   0  0  0  0  0  0  0  0  0  0  0  0
    8.6822    0.7804    0.0000 O   0  0  0  0  0  0  0  0  0  0  0  0
    4.7420   -0.2272    0.0000 O   0  0  0  0  0  0  0  0  0  0  0  0
    3.0036    1.1890    0.0000 C   0  0  0  0  0  0  0  0  0  0  0  0
    1.6828    1.9000    0.0000 C   0  0  0  0  0  0  0  0  0  0  0  0
    1.4817    3.3864    0.0000 O   0  0  0  0  0  0  0  0  0  0  0  0
    0.5984    0.8636    0.0000 C   0  0  0  0  0  0  0  0  0  0  0  0
    0.0927    2.2757    0.0000 C   0  0  0  0  0  0  0  0  0  0  0  0
   -3.2383   -0.1510    0.0000 C   0  0  0  0  0  0  0  0  0  0  0  0
   -3.0892   -1.6436    0.0000 C   0  0  0  0  0  0  0  0  0  0  0  0
   -4.6823   -0.5570    0.0000 C   0  0  0  0  0  0  0  0  0  0  0  0
   -5.0527   -2.0106    0.0000 C   0  0  0  0  0  0  0  0  0  0  0  0
   -6.4967   -2.4166    0.0000 C   0  0  0  0  0  0  0  0  0  0  0  0
   -7.5703   -1.3691    0.0000 O   0  0  0  0  0  0  0  0  0  0  0  0
   -6.8671   -3.8702    0.0000 O   0  0  0  0  0  0  0  0  0  0  0  0
  1  2  2  0
  2  3  1  0
  2  4  1  0
  4  5  1  0
  5  6  1  0
  6  7  1  6
  6  8  1  0
  8  9  1  6
  8 10  1  0
 10 11  1  0
 11 12  1  0
 12 13  1  0
 13 14  1  0
 14 15  1  0
 15 16  1  6
 15 17  1  0
 17 18  1  0
 18 19  1  0
 19 20  1  6
 20 21  1  0
 20 22  1  0
 20 23  1  0
 19 24  1  0
 14 25  1  6
 25 26  1  0
 26 27  1  1
 26 28  1  0
 28 29  1  1
 10 30  1  0
 30 31  1  6
 30 32  1  0
 32 33  1  0
 33 34  1  0
 34 35  2  0
 34 36  1  0
 30  4  1  0
 28  8  1  0
 28 13  1  0
 24 15  1  0
M  END
>  <identifier>  (249) 
CNP0080507.1

>  <canonical_smiles>  (249) 
C=C(C)C1C[C@H](O)[C@]2(C)C(CCC3[C@@H]([C@]4(C)CC[C@@H](C(C)(C)O)O4)C[C@H](O)[C@]32C)[C@@]1(C)CCC(=O)O

>  <standard_inchi>  (249) 
InChI=1S/C30H50O6/c1-17(2)19-15-23(32)30(8)21(27(19,5)13-12-25(33)34)10-9-18-20(16-22(31)29(18,30)7)28(6)14-11-24(36-28)26(3,4)35/h18-24,31-32,35H,1,9-16H2,2-8H3,(H,33,34)/t18?,19?,20-,21?,22-,23-,24-,27-,28-,29-,30-/m0/s1

>  <standard_inchi_key>  (249) 
QASYITVEEGPNPT-MNAUKPDGSA-N

>  <name>  (249) 
nan

>  <iupac_name>  (249) 
3-[(1~{S},3~{S},6~{S},9~{S},9~{a}~{R},9~{b}~{R})-1,9-dihydroxy-3-[(2~{S},5~{S})-5-(1-hydroxy-1-methyl-ethyl)-2-methyl-tetrahydrofuran-2-yl]-7-isopropenyl-6,9~{a},9~{b}-trimethyl-1,2,3,3~{a},4,5,5~{a},7,8,9-decahydrocyclopenta[a]naphthalen-6-yl]propanoic acid

>  <annotation_level>  (249) 
4

>  <total_atom_count>  (249) 
86

>  <heavy_atom_count>  (249) 
36

>  <molecular_weight>  (249) 
506.72

>  <exact_molecular_weight>  (249) 
506.36074

>  <molecular_formula>  (249) 
C30H50O6

>  <alogp>  (249) 
4.94

>  <topological_polar_surface_area>  (249) 
107.22

>  <rotatable_bond_count>  (249) 
6

>  <hydrogen_bond_acceptors>  (249) 
5

>  <hydrogen_bond_donors>  (249) 
4

>  <hydrogen_bond_acceptors_lipinski>  (249) 
5

>  <hydrogen_bond_donors_lipinski>  (249) 
4

>  <lipinski_rule_of_five_violations>  (249) 
1

>  <aromatic_rings_count>  (249) 
0

>  <qed_drug_likeliness>  (249) 
0.38

>  <formal_charge>  (249) 
0

>  <fractioncsp3>  (249) 
0.90

>  <number_of_minimal_rings>  (249) 
4

>  <van_der_walls_volume>  (249) 
nan

>  <contains_sugar>  (249) 
False

>  <contains_ring_sugars>  (249) 
False

>  <contains_linear_sugars>  (249) 
False

>  <murcko_framework>  (249) 
O1CCCC1C2CCC3C4CCCCC4CCC23

>  <np_likeness>  (249) 
2.65

>  <chemical_class>  (249) 
Prenol lipids

>  <chemical_sub_class>  (249) 
Terpene glycosides

>  <chemical_super_class>  (249) 
Lipids and lipid-like molecules

>  <direct_parent_classification>  (249) 
Diterpene glycosides

>  <np_classifier_pathway>  (249) 
Terpenoids

>  <np_classifier_superclass>  (249) 
Triterpenoids

>  <np_classifier_class>  (249) 
Dammarane and Protostane triterpenoids

>  <np_classifier_is_glycoside>  (249) 
False

>  <organisms>  (249) 
Cabralea canjerana

>  <collections>  (249) 
Latin America dataset|NuBBEDB|WikiData Natural Products

>  <dois>  (249) 
10.1016/J.BSE.2005.10.012|10.1016/j.bse.2005.10.012

>  <synonyms>  (249) 
20S24S-epoxy-7b15a25-trihydroxy-34-secodammar-4(28)-en-3-oic acid

>  <cas>  (249) 
nan

$$$$

     RDKit          2D

 26 27  0  0  0  0  0  0  0  0999 V2000
   -0.7378   -4.6375    0.0000 C   0  0  0  0  0  0  0  0  0  0  0  0
   -0.0571   -3.3009    0.0000 C   0  0  0  0  0  0  0  0  0  0  0  0
    1.4408   -3.2221    0.0000 C   0  0  0  0  0  0  0  0  0  0  0  0
    2.1216   -1.8855    0.0000 C   0  0  0  0  0  0  0  0  0  0  0  0
    1.3044   -0.6277    0.0000 C   0  0  0  0  0  0  0  0  0  0  0  0
    1.9852    0.7090    0.0000 C   0  0  0  0  0  0  0  0  0  0  0  0
    2.1677    2.1978    0.0000 O   0  0  0  0  0  0  0  0  0  0  0  0
    3.5484    2.7841    0.0000 C   0  0  0  0  0  0  0  0  0  0  0  0
    0.5507    1.1473    0.0000 C   0  0  0  0  0  0  0  0  0  0  0  0
    0.2130    2.6088    0.0000 C   0  0  0  0  0  0  0  0  0  0  0  0
   -0.5462    0.1241    0.0000 C   0  0  0  0  0  0  0  0  0  0  0  0
   -1.9807    0.5624    0.0000 C   0  0  0  0  0  0  0  0  0  0  0  0
   -2.3184    2.0239    0.0000 C   0  0  0  0  0  0  0  0  0  0  0  0
   -3.7529    2.4622    0.0000 C   0  0  0  0  0  0  0  0  0  0  0  0
   -4.8498    1.4391    0.0000 C   0  0  0  0  0  0  0  0  0  0  0  0
   -6.2843    1.8774    0.0000 O   0  0  0  0  0  0  0  0  0  0  0  0
   -4.5121   -0.0224    0.0000 C   0  0  0  0  0  0  0  0  0  0  0  0
   -5.6090   -1.0456    0.0000 O   0  0  0  0  0  0  0  0  0  0  0  0
   -5.2713   -2.5071    0.0000 C   0  0  0  0  0  0  0  0  0  0  0  0
   -3.0776   -0.4608    0.0000 C   0  0  0  0  0  0  0  0  0  0  0  0
    3.4831    0.7877    0.0000 C   0  0  0  0  0  0  0  0  0  0  0  0
    4.1639    2.1244    0.0000 O   0  0  0  0  0  0  0  0  0  0  0  0
    5.6618    2.2031    0.0000 C   0  0  0  0  0  0  0  0  0  0  0  0
    4.3003   -0.4701    0.0000 C   0  0  0  0  0  0  0  0  0  0  0  0
    3.6195   -1.8068    0.0000 C   0  0  0  0  0  0  0  0  0  0  0  0
    4.4367   -3.0646    0.0000 O   0  0  0  0  0  0  0  0  0  0  0  0
  1  2  2  0
  2  3  1  0
  3  4  1  0
  4  5  2  0
  5  6  1  0
  6  7  1  1
  7  8  1  0
  6  9  1  0
  9 10  1  1
  9 11  1  0
 11 12  1  0
 12 13  2  0
 13 14  1  0
 14 15  2  0
 15 16  1  0
 15 17  1  0
 17 18  1  0
 18 19  1  0
 17 20  2  0
  6 21  1  0
 21 22  1  0
 22 23  1  0
 21 24  2  0
 24 25  1  0
 25 26  2  0
 25  4  1  0
 20 12  1  0
M  END
>  <identifier>  (250) 
CNP0370214.2

>  <canonical_smiles>  (250) 
C=CCC1=C[C@](OC)([C@H](C)CC2=CC=C(O)C(OC)=C2)C(OC)=CC1=O

>  <standard_inchi>  (250) 
InChI=1S/C21H26O5/c1-6-7-16-13-21(26-5,20(25-4)12-18(16)23)14(2)10-15-8-9-17(22)19(11-15)24-3/h6,8-9,11-14,22H,1,7,10H2,2-5H3/t14-,21+/m1/s1

>  <standard_inchi_key>  (250) 
FVOYNDPUIIJRIA-SZNDQCEHSA-N

>  <name>  (250) 
nan

>  <iupac_name>  (250) 
(4~{R})-2-allyl-4-[(1~{R})-2-(4-hydroxy-3-methoxy-phenyl)-1-methyl-ethyl]-4,5-dimethoxy-cyclohexa-2,5-dien-1-one

>  <annotation_level>  (250) 
4

>  <total_atom_count>  (250) 
52

>  <heavy_atom_count>  (250) 
26

>  <molecular_weight>  (250) 
358.43

>  <exact_molecular_weight>  (250) 
358.17802

>  <molecular_formula>  (250) 
C21H26O5

>  <alogp>  (250) 
3.58

>  <topological_polar_surface_area>  (250) 
64.99

>  <rotatable_bond_count>  (250) 
8

>  <hydrogen_bond_acceptors>  (250) 
5

>  <hydrogen_bond_donors>  (250) 
1

>  <hydrogen_bond_acceptors_lipinski>  (250) 
5

>  <hydrogen_bond_donors_lipinski>  (250) 
1

>  <lipinski_rule_of_five_violations>  (250) 
0

>  <aromatic_rings_count>  (250) 
1

>  <qed_drug_likeliness>  (250) 
0.72

>  <formal_charge>  (250) 
0

>  <fractioncsp3>  (250) 
0.38

>  <number_of_minimal_rings>  (250) 
2

>  <van_der_walls_volume>  (250) 
nan

>  <contains_sugar>  (250) 
False

>  <contains_ring_sugars>  (250) 
False

>  <contains_linear_sugars>  (250) 
False

>  <murcko_framework>  (250) 
c1ccc(cc1)CCC2C=CCC=C2

>  <np_likeness>  (250) 
2.08

>  <chemical_class>  (250) 
Prenol lipids

>  <chemical_sub_class>  (250) 
Monoterpenoids

>  <chemical_super_class>  (250) 
Lipids and lipid-like molecules

>  <direct_parent_classification>  (250) 
Aromatic monoterpenoids

>  <np_classifier_pathway>  (250) 
Shikimates and Phenylpropanoids

>  <np_classifier_superclass>  (250) 
Lignans

>  <np_classifier_class>  (250) 
Neolignans

>  <np_classifier_is_glycoside>  (250) 
False

>  <organisms>  (250) 
Aniba lancifolia|Clitocybe inversa|Delphinus delphis|Hypericum calycinum|Kalanchoe petitiana|Tripora divaricata

>  <collections>  (250) 
Latin America dataset|NPASS|NuBBEDB|Super Natural II|WikiData Natural Products|ZINC NP

>  <dois>  (250) 
10.1016/S0031-9422(00)81975-5

>  <synonyms>  (250) 
Lancifolin B

>  <cas>  (250) 
nan

$$$$

     RDKit          2D

 22 26  0  0  0  0  0  0  0  0999 V2000
    3.5072    0.3220    0.0000 C   0  0  0  0  0  0  0  0  0  0  0  0
    2.0099    0.2325    0.0000 C   0  0  0  0  0  0  0  0  0  0  0  0
    2.5371    1.6368    0.0000 C   0  0  0  0  0  0  0  0  0  0  0  0
    3.9831    2.0357    0.0000 O   0  0  0  0  0  0  0  0  0  0  0  0
    1.3645    2.5721    0.0000 O   0  0  0  0  0  0  0  0  0  0  0  0
    0.1125    1.7459    0.0000 C   0  0  0  0  0  0  0  0  0  0  0  0
   -1.3919    1.8287    0.0000 C   0  0  0  0  0  0  0  0  0  0  0  0
   -2.3273    0.6560    0.0000 C   0  0  0  0  0  0  0  0  0  0  0  0
   -1.7794   -0.7403    0.0000 C   0  0  0  0  0  0  0  0  0  0  0  0
   -2.7148   -1.9130    0.0000 C   0  0  0  0  0  0  0  0  0  0  0  0
   -4.1980   -1.6892    0.0000 C   0  0  0  0  0  0  0  0  0  0  0  0
   -4.7459   -0.2929    0.0000 C   0  0  0  0  0  0  0  0  0  0  0  0
   -3.8105    0.8798    0.0000 C   0  0  0  0  0  0  0  0  0  0  0  0
   -4.3584    2.2761    0.0000 O   0  0  0  0  0  0  0  0  0  0  0  0
   -0.2962   -0.9641    0.0000 C   0  0  0  0  0  0  0  0  0  0  0  0
    0.3946   -2.2955    0.0000 C   0  0  0  0  0  0  0  0  0  0  0  0
    1.8931   -2.3630    0.0000 C   0  0  0  0  0  0  0  0  0  0  0  0
    2.7007   -1.0990    0.0000 C   0  0  0  0  0  0  0  0  0  0  0  0
    4.1992   -1.1664    0.0000 O   0  0  0  0  0  0  0  0  0  0  0  0
    1.8820   -1.0116    0.0000 O   0  0  0  0  0  0  0  0  0  0  0  0
    0.5271   -0.9506    0.0000 C   0  0  0  0  0  0  0  0  0  0  0  0
    0.5114    0.2999    0.0000 C   0  0  0  0  0  0  0  0  0  0  0  0
  2  1  1  6
  2  3  1  0
  3  4  2  0
  3  5  1  0
  5  6  1  0
  6  7  1  1
  8  7  1  6
  8  9  1  0
  9 10  1  0
 10 11  1  0
 11 12  1  0
 12 13  1  0
 13 14  1  1
 15  9  1  1
 15 16  1  0
 16 17  1  0
 17 18  1  0
 18 19  1  6
 18 20  1  0
 20 21  1  0
 15 22  1  0
 18  2  1  0
 22  2  1  0
 22  6  1  0
 13  8  1  0
 21 15  1  0
M  END
>  <identifier>  (251) 
CNP0107178.1

>  <canonical_smiles>  (251) 
C[C@]12C(=O)O[C@@H]3C[C@@H]4C(CCC[C@H]4O)[C@@]4(CC[C@@]1(O)OC4)C32

>  <standard_inchi>  (251) 
InChI=1S/C17H24O5/c1-15-13-12(22-14(15)19)7-9-10(3-2-4-11(9)18)16(13)5-6-17(15,20)21-8-16/h9-13,18,20H,2-8H2,1H3/t9-,10?,11-,12-,13?,15+,16+,17-/m1/s1

>  <standard_inchi_key>  (251) 
BGJDWCQXJDACLG-WKVOQSRDSA-N

>  <name>  (251) 
nan

>  <iupac_name>  (251) 
(1~{S},6~{R},7~{R},9~{R},12~{R},13~{R})-6,13-dihydroxy-12-methyl-10,14-dioxapentacyclo[11.2.2.1^{1,9}.0^{2,7}.0^{12,18}]octadecan-11-one

>  <annotation_level>  (251) 
4

>  <total_atom_count>  (251) 
46

>  <heavy_atom_count>  (251) 
22

>  <molecular_weight>  (251) 
308.37

>  <exact_molecular_weight>  (251) 
308.16237

>  <molecular_formula>  (251) 
C17H24O5

>  <alogp>  (251) 
1.21

>  <topological_polar_surface_area>  (251) 
75.99

>  <rotatable_bond_count>  (251) 
0

>  <hydrogen_bond_acceptors>  (251) 
5

>  <hydrogen_bond_donors>  (251) 
2

>  <hydrogen_bond_acceptors_lipinski>  (251) 
5

>  <hydrogen_bond_donors_lipinski>  (251) 
2

>  <lipinski_rule_of_five_violations>  (251) 
0

>  <aromatic_rings_count>  (251) 
0

>  <qed_drug_likeliness>  (251) 
0.66

>  <formal_charge>  (251) 
0

>  <fractioncsp3>  (251) 
0.94

>  <number_of_minimal_rings>  (251) 
6

>  <van_der_walls_volume>  (251) 
nan

>  <contains_sugar>  (251) 
False

>  <contains_ring_sugars>  (251) 
False

>  <contains_linear_sugars>  (251) 
False

>  <murcko_framework>  (251) 
O1CC2C3OCC4(CC3)C5CCCCC5CC1C24

>  <np_likeness>  (251) 
3.27

>  <chemical_class>  (251) 
Naphthopyrans

>  <chemical_sub_class>  (251) 
Naphthopyrans

>  <chemical_super_class>  (251) 
Organoheterocyclic compounds

>  <direct_parent_classification>  (251) 
Naphthopyrans

>  <np_classifier_pathway>  (251) 
Terpenoids

>  <np_classifier_superclass>  (251) 
Diterpenoids

>  <np_classifier_class>  (251) 
Norpimarane and Norisopimarane diterpenoids

>  <np_classifier_is_glycoside>  (251) 
True

>  <organisms>  (251) 
Casimirella rupestris|Humirianthera rupestris

>  <collections>  (251) 
Latin America dataset|NuBBEDB|WikiData Natural Products

>  <dois>  (251) 
10.1016/S0031-9422(00)98552-2

>  <synonyms>  (251) 
Humirianthenolide F

>  <cas>  (251) 
nan

$$$$

     RDKit          2D

 26 28  0  0  0  0  0  0  0  0999 V2000
    7.5521    0.4951    0.0000 C   0  0  0  0  0  0  0  0  0  0  0  0
    6.1741   -0.0975    0.0000 C   0  0  0  0  0  0  0  0  0  0  0  0
    4.9719    0.7995    0.0000 C   0  0  0  0  0  0  0  0  0  0  0  0
    3.5939    0.2069    0.0000 C   0  0  0  0  0  0  0  0  0  0  0  0
    2.3917    1.1040    0.0000 C   0  0  0  0  0  0  0  0  0  0  0  0
    1.0137    0.5114    0.0000 C   0  0  0  0  0  0  0  0  0  0  0  0
   -0.4838    0.4258    0.0000 O   0  0  0  0  0  0  0  0  0  0  0  0
   -1.1585   -0.9139    0.0000 C   0  0  0  0  0  0  0  0  0  0  0  0
    0.6694    1.9714    0.0000 C   0  0  0  0  0  0  0  0  0  0  0  0
    1.7616    2.9995    0.0000 C   0  0  0  0  0  0  0  0  0  0  0  0
   -0.7671    2.4031    0.0000 C   0  0  0  0  0  0  0  0  0  0  0  0
   -1.8593    1.3750    0.0000 C   0  0  0  0  0  0  0  0  0  0  0  0
   -1.5150   -0.0850    0.0000 C   0  0  0  0  0  0  0  0  0  0  0  0
   -2.6072   -1.1131    0.0000 C   0  0  0  0  0  0  0  0  0  0  0  0
   -4.0437   -0.6813    0.0000 C   0  0  0  0  0  0  0  0  0  0  0  0
   -5.3258   -1.4599    0.0000 O   0  0  0  0  0  0  0  0  0  0  0  0
   -6.4625   -0.4812    0.0000 C   0  0  0  0  0  0  0  0  0  0  0  0
   -5.8829    0.9023    0.0000 O   0  0  0  0  0  0  0  0  0  0  0  0
   -4.3880    0.7786    0.0000 C   0  0  0  0  0  0  0  0  0  0  0  0
   -3.2958    1.8068    0.0000 C   0  0  0  0  0  0  0  0  0  0  0  0
    0.8380   -0.9783    0.0000 C   0  0  0  0  0  0  0  0  0  0  0  0
   -0.5400   -1.5709    0.0000 O   0  0  0  0  0  0  0  0  0  0  0  0
   -0.7158   -3.0605    0.0000 C   0  0  0  0  0  0  0  0  0  0  0  0
    2.0402   -1.8753    0.0000 C   0  0  0  0  0  0  0  0  0  0  0  0
    3.4181   -1.2827    0.0000 C   0  0  0  0  0  0  0  0  0  0  0  0
    4.6203   -2.1798    0.0000 O   0  0  0  0  0  0  0  0  0  0  0  0
  1  2  2  0
  2  3  1  0
  3  4  1  0
  4  5  2  0
  5  6  1  0
  6  7  1  6
  7  8  1  0
  6  9  1  0
  9 10  1  1
  9 11  1  0
 11 12  1  0
 12 13  2  0
 13 14  1  0
 14 15  2  0
 15 16  1  0
 16 17  1  0
 17 18  1  0
 18 19  1  0
 19 20  2  0
  6 21  1  0
 21 22  1  0
 22 23  1  0
 21 24  2  0
 24 25  1  0
 25 26  2  0
 25  4  1  0
 20 12  1  0
 19 15  1  0
M  END
>  <identifier>  (252) 
CNP0268822.1

>  <canonical_smiles>  (252) 
C=CCC1=C[C@](OC)([C@H](C)CC2=CC=C3OCOC3=C2)C(OC)=CC1=O

>  <standard_inchi>  (252) 
InChI=1S/C21H24O5/c1-5-6-16-12-21(24-4,20(23-3)11-17(16)22)14(2)9-15-7-8-18-19(10-15)26-13-25-18/h5,7-8,10-12,14H,1,6,9,13H2,2-4H3/t14-,21+/m1/s1

>  <standard_inchi_key>  (252) 
SMOHLDSEWHACKE-SZNDQCEHSA-N

>  <name>  (252) 
Isodihydrofutoquinol A

>  <iupac_name>  (252) 
(4~{R})-2-allyl-4-[(1~{R})-2-(1,3-benzodioxol-5-yl)-1-methyl-ethyl]-4,5-dimethoxy-cyclohexa-2,5-dien-1-one

>  <annotation_level>  (252) 
5

>  <total_atom_count>  (252) 
50

>  <heavy_atom_count>  (252) 
26

>  <molecular_weight>  (252) 
356.42

>  <exact_molecular_weight>  (252) 
356.16237

>  <molecular_formula>  (252) 
C21H24O5

>  <alogp>  (252) 
3.59

>  <topological_polar_surface_area>  (252) 
53.99

>  <rotatable_bond_count>  (252) 
7

>  <hydrogen_bond_acceptors>  (252) 
5

>  <hydrogen_bond_donors>  (252) 
0

>  <hydrogen_bond_acceptors_lipinski>  (252) 
5

>  <hydrogen_bond_donors_lipinski>  (252) 
0

>  <lipinski_rule_of_five_violations>  (252) 
0

>  <aromatic_rings_count>  (252) 
1

>  <qed_drug_likeliness>  (252) 
0.70

>  <formal_charge>  (252) 
0

>  <fractioncsp3>  (252) 
0.38

>  <number_of_minimal_rings>  (252) 
3

>  <van_der_walls_volume>  (252) 
329.58

>  <contains_sugar>  (252) 
False

>  <contains_ring_sugars>  (252) 
False

>  <contains_linear_sugars>  (252) 
False

>  <murcko_framework>  (252) 
O1c2ccc(cc2OC1)CCC3C=CCC=C3

>  <np_likeness>  (252) 
1.85

>  <chemical_class>  (252) 
Prenol lipids

>  <chemical_sub_class>  (252) 
Monoterpenoids

>  <chemical_super_class>  (252) 
Lipids and lipid-like molecules

>  <direct_parent_classification>  (252) 
Bicyclic monoterpenoids

>  <np_classifier_pathway>  (252) 
Shikimates and Phenylpropanoids

>  <np_classifier_superclass>  (252) 
Lignans

>  <np_classifier_class>  (252) 
Neolignans

>  <np_classifier_is_glycoside>  (252) 
False

>  <organisms>  (252) 
Aniba lancifolia|Clitocybe inversa|Delphinus delphis|Hypericum calycinum|Kalanchoe petitiana|Magnolia denudata|Piper hymenophyllum|Piper schmidtii|Piper wightii|Tripora divaricata

>  <collections>  (252) 
CMAUP (cCollective molecular activities of useful plants)|KNApSaCK|Latin America dataset|NPASS|NuBBEDB|Super Natural II|TCMDB-Taiwan (Traditional Chinese Medicine database)|WikiData Natural Products|ZINC NP

>  <dois>  (252) 
10.1016/S0031-9422(00)81975-5|10.1016/S0031-9422(00)95012-X|10.1016/S0040-4020(01)85081-X|10.1248/CPB.48.832

>  <synonyms>  (252) 
(4R)-4-[(2R)-1-(1,3-benzodioxol-5-yl)propan-2-yl]-4,5-dimethoxy-2-prop-2-enylcyclohexa-2,5-dien-1-one|62560-95-6|AKOS032962677|Isodihydrofutoquinol A|Lancifolin F

>  <cas>  (252) 
62560-95-6

$$$$

     RDKit          2D

 29 32  0  0  0  0  0  0  0  0999 V2000
   -4.7033    4.1635    0.0000 C   0  0  0  0  0  0  0  0  0  0  0  0
   -4.4022    2.6941    0.0000 C   0  0  0  0  0  0  0  0  0  0  0  0
   -2.9790    2.2201    0.0000 C   0  0  0  0  0  0  0  0  0  0  0  0
   -5.5242    1.6986    0.0000 C   0  0  0  0  0  0  0  0  0  0  0  0
   -6.9474    2.1725    0.0000 C   0  0  0  0  0  0  0  0  0  0  0  0
   -5.2231    0.2291    0.0000 C   0  0  0  0  0  0  0  0  0  0  0  0
   -3.7999   -0.2448    0.0000 C   0  0  0  0  0  0  0  0  0  0  0  0
   -3.4988   -1.7143    0.0000 C   0  0  0  0  0  0  0  0  0  0  0  0
   -4.6209   -2.7098    0.0000 C   0  0  0  0  0  0  0  0  0  0  0  0
   -2.0757   -2.1883    0.0000 C   0  0  0  0  0  0  0  0  0  0  0  0
   -1.6226   -3.6182    0.0000 C   0  0  0  0  0  0  0  0  0  0  0  0
   -0.1226   -3.6292    0.0000 C   0  0  0  0  0  0  0  0  0  0  0  0
    0.3513   -2.2060    0.0000 C   0  0  0  0  0  0  0  0  0  0  0  0
    1.7261   -1.6060    0.0000 C   0  0  0  0  0  0  0  0  0  0  0  0
    2.9331   -2.4965    0.0000 C   0  0  0  0  0  0  0  0  0  0  0  0
    4.3078   -1.8965    0.0000 C   0  0  0  0  0  0  0  0  0  0  0  0
    4.4756   -0.4059    0.0000 C   0  0  0  0  0  0  0  0  0  0  0  0
    5.8503    0.1942    0.0000 C   0  0  0  0  0  0  0  0  0  0  0  0
    6.0180    1.6848    0.0000 C   0  0  0  0  0  0  0  0  0  0  0  0
    7.3928    2.2848    0.0000 O   0  0  0  0  0  0  0  0  0  0  0  0
    4.8110    2.5753    0.0000 C   0  0  0  0  0  0  0  0  0  0  0  0
    3.4362    1.9753    0.0000 C   0  0  0  0  0  0  0  0  0  0  0  0
    3.2685    0.4847    0.0000 C   0  0  0  0  0  0  0  0  0  0  0  0
    2.0615    1.3752    0.0000 C   0  0  0  0  0  0  0  0  0  0  0  0
    1.8938   -0.1154    0.0000 C   0  0  0  0  0  0  0  0  0  0  0  0
    0.6867    0.7751    0.0000 C   0  0  0  0  0  0  0  0  0  0  0  0
   -0.6880    0.1751    0.0000 C   0  0  0  0  0  0  0  0  0  0  0  0
   -0.8557   -1.3155    0.0000 C   0  0  0  0  0  0  0  0  0  0  0  0
   -2.1492   -0.5560    0.0000 C   0  0  0  0  0  0  0  0  0  0  0  0
  1  2  1  0
  2  3  1  0
  2  4  1  0
  4  5  1  1
  4  6  1  0
  6  7  1  0
  7  8  1  0
  8  9  1  6
  8 10  1  0
 10 11  1  6
 11 12  1  0
 13 12  1  6
 13 14  1  0
 14 15  1  1
 15 16  1  0
 16 17  1  0
 17 18  2  0
 18 19  1  0
 19 20  2  0
 19 21  1  0
 21 22  1  0
 22 23  1  0
 23 24  1  6
 23 25  1  0
 25 26  1  6
 26 27  1  0
 27 28  1  0
 28 29  1  6
 28 10  1  0
 28 13  1  0
 25 14  1  0
 23 17  1  0
M  END
>  <identifier>  (253) 
CNP0296331.2

>  <canonical_smiles>  (253) 
CC(C)[C@H](C)CC[C@@H](C)[C@H]1CC[C@H]2[C@@H]3CCC4=CC(=O)CC[C@]4(C)[C@H]3CC[C@]12C

>  <standard_inchi>  (253) 
InChI=1S/C28H46O/c1-18(2)19(3)7-8-20(4)24-11-12-25-23-10-9-21-17-22(29)13-15-27(21,5)26(23)14-16-28(24,25)6/h17-20,23-26H,7-16H2,1-6H3/t19-,20-,23+,24-,25+,26+,27+,28-/m1/s1

>  <standard_inchi_key>  (253) 
QQIOPZFVTIHASB-IMUDCKKOSA-N

>  <name>  (253) 
campest-4-en-3-one

>  <iupac_name>  (253) 
(8~{S},9~{S},10~{R},13~{R},14~{S},17~{R})-10,13-dimethyl-17-[(1~{R},4~{R})-1,4,5-trimethylhexyl]-1,2,6,7,8,9,11,12,14,15,16,17-dodecahydrocyclopenta[a]phenanthren-3-one

>  <annotation_level>  (253) 
5

>  <total_atom_count>  (253) 
75

>  <heavy_atom_count>  (253) 
29

>  <molecular_weight>  (253) 
398.68

>  <exact_molecular_weight>  (253) 
398.35487

>  <molecular_formula>  (253) 
C28H46O

>  <alogp>  (253) 
7.84

>  <topological_polar_surface_area>  (253) 
17.07

>  <rotatable_bond_count>  (253) 
5

>  <hydrogen_bond_acceptors>  (253) 
1

>  <hydrogen_bond_donors>  (253) 
0

>  <hydrogen_bond_acceptors_lipinski>  (253) 
1

>  <hydrogen_bond_donors_lipinski>  (253) 
0

>  <lipinski_rule_of_five_violations>  (253) 
1

>  <aromatic_rings_count>  (253) 
0

>  <qed_drug_likeliness>  (253) 
0.46

>  <formal_charge>  (253) 
0

>  <fractioncsp3>  (253) 
0.89

>  <number_of_minimal_rings>  (253) 
4

>  <van_der_walls_volume>  (253) 
423.86

>  <contains_sugar>  (253) 
False

>  <contains_ring_sugars>  (253) 
False

>  <contains_linear_sugars>  (253) 
False

>  <murcko_framework>  (253) 
C1=C2CCC3C(CCC4CCCC43)C2CCC1

>  <np_likeness>  (253) 
2.38

>  <chemical_class>  (253) 
Steroids and steroid derivatives

>  <chemical_sub_class>  (253) 
Ergostane steroids

>  <chemical_super_class>  (253) 
Lipids and lipid-like molecules

>  <direct_parent_classification>  (253) 
Ergosterols and derivatives

>  <np_classifier_pathway>  (253) 
Terpenoids

>  <np_classifier_superclass>  (253) 
Steroids

>  <np_classifier_class>  (253) 
Cholestane steroids

>  <np_classifier_is_glycoside>  (253) 
False

>  <organisms>  (253) 
Acanthus ilicifolius|Amphilectus fucorum|Cannabis sativa|Harrisonia abyssinica|Homalolepis cuneata|Melia azedarach|Pellia epiphylla|Phoenix dactylifera|Pinus sibirica|Simaba cuneata|Zanthoxylum wutaiense

>  <collections>  (253) 
Australian natural products|ChEBI NPs|FooDB|Latin America dataset|NuBBEDB|Super Natural II|TIPdb (database of Taiwan indigenous plants)|WikiData Natural Products

>  <dois>  (253) 
10.1007/BF00630021|10.1016/0031-9422(83)80054-5|10.1016/0031-9422(92)80374-N|10.1016/S0031-9422(97)00414-7|10.1016/S0040-4020(01)85914-7|10.1021/NP50008A001|10.1021/NP700719E|10.1055/S-2000-11120|10.1055/s-0028-1097188

>  <synonyms>  (253) 
(24R)-ergost-4-en-3-one|(24S)-Methyl-4-cholesten-3-one|(24r)-24-methylcholest-4-en-3-one|(8S,9S,10R,13R,14S,17R)-17-[(2R,5R)-5,6-dimethylheptan-2-yl]-10,13-dimethyl-1,2,6,7,8,9,11,12,14,15,16,17-dodecahydrocyclopenta[a]phenanthren-3-one|3-dehydro-Delta4-5-campesterol|4-Campestene-3-one|CHEBI:18534|Campestenone|Ergost-4-en-3-one|Ergostenone, .beta.-|LMST01030122|Q27109042|QQIOPZFVTIHASB-IMUDCKKOSA-N|SCHEMBL2164983|campest-4-en-3-one|methylcholestenone

>  <cas>  (253) 
nan

$$$$

     RDKit          2D

 25 29  0  0  0  0  0  0  0  0999 V2000
   -5.9748    1.0458    0.0000 C   0  0  0  0  0  0  0  0  0  0  0  0
   -4.5364    1.4714    0.0000 C   0  0  0  0  0  0  0  0  0  0  0  0
   -3.4486    0.4386    0.0000 C   0  0  0  0  0  0  0  0  0  0  0  0
   -3.7992   -1.0199    0.0000 C   0  0  0  0  0  0  0  0  0  0  0  0
   -2.7115   -2.0527    0.0000 C   0  0  0  0  0  0  0  0  0  0  0  0
   -3.2082   -0.6374    0.0000 C   0  0  0  0  0  0  0  0  0  0  0  0
   -1.8810    2.3586    0.0000 N   0  0  0  0  0  0  0  0  0  0  0  0
   -0.6320    3.1893    0.0000 C   0  0  0  0  0  0  0  0  0  0  0  0
    0.7962    2.7307    0.0000 C   0  0  0  0  0  0  0  0  0  0  0  0
    1.3281    1.3282    0.0000 C   0  0  0  0  0  0  0  0  0  0  0  0
    0.5632    0.0378    0.0000 C   0  0  0  0  0  0  0  0  0  0  0  0
    1.5540   -1.0883    0.0000 N   0  0  0  0  0  0  0  0  0  0  0  0
    2.9312   -0.4940    0.0000 C   0  0  0  0  0  0  0  0  0  0  0  0
    4.2945   -1.1199    0.0000 C   0  0  0  0  0  0  0  0  0  0  0  0
    5.5180   -0.2522    0.0000 C   0  0  0  0  0  0  0  0  0  0  0  0
    5.3784    1.2413    0.0000 C   0  0  0  0  0  0  0  0  0  0  0  0
    4.0152    1.8671    0.0000 C   0  0  0  0  0  0  0  0  0  0  0  0
    2.7916    0.9994    0.0000 C   0  0  0  0  0  0  0  0  0  0  0  0
   -0.9225   -0.1686    0.0000 C   0  0  0  0  0  0  0  0  0  0  0  0
    0.0850   -1.2799    0.0000 C   0  0  0  0  0  0  0  0  0  0  0  0
    0.8818   -1.3050    0.0000 O   0  0  0  0  0  0  0  0  0  0  0  0
   -0.3736   -2.7081    0.0000 O   0  0  0  0  0  0  0  0  0  0  0  0
    0.6340   -3.8193    0.0000 C   0  0  0  0  0  0  0  0  0  0  0  0
   -1.2731   -1.6271    0.0000 C   0  0  0  0  0  0  0  0  0  0  0  0
   -2.0103    0.8642    0.0000 C   0  0  0  0  0  0  0  0  0  0  0  0
  1  2  1  0
  3  2  1  6
  3  4  1  0
  5  4  1  1
  5  6  1  0
  6  7  1  0
  7  8  1  0
  8  9  1  0
  9 10  1  0
 10 11  2  0
 11 12  1  0
 12 13  1  0
 13 14  2  0
 14 15  1  0
 15 16  2  0
 16 17  1  0
 17 18  2  0
 11 19  1  0
 19 20  1  1
 20 21  2  0
 20 22  1  0
 22 23  1  0
 19 24  1  0
 19 25  1  0
 25  3  1  0
 24  5  1  0
 25  7  1  6
 18 10  1  0
 18 13  1  0
M  END
>  <identifier>  (254) 
CNP0382562.4

>  <canonical_smiles>  (254) 
CC[C@H]1C[C@H]2CN3CCC4=C(NC5=CC=CC=C45)[C@](C(=O)OC)(C2)[C@H]13

>  <standard_inchi>  (254) 
InChI=1S/C21H26N2O2/c1-3-14-10-13-11-21(20(24)25-2)18-16(8-9-23(12-13)19(14)21)15-6-4-5-7-17(15)22-18/h4-7,13-14,19,22H,3,8-12H2,1-2H3/t13-,14+,19+,21-/m1/s1

>  <standard_inchi_key>  (254) 
NVVDQMVGALBDGE-PZXGUROGSA-N

>  <name>  (254) 
CORONARIDINE

>  <iupac_name>  (254) 
methyl (1~{S},15~{R},17~{S},18~{S})-17-ethyl-3,13-diazapentacyclo[13.3.1.0^{2,10}.0^{4,9}.0^{13,18}]nonadeca-2(10),4,6,8-tetraene-1-carboxylate

>  <annotation_level>  (254) 
5

>  <total_atom_count>  (254) 
51

>  <heavy_atom_count>  (254) 
25

>  <molecular_weight>  (254) 
338.45

>  <exact_molecular_weight>  (254) 
338.19943

>  <molecular_formula>  (254) 
C21H26N2O2

>  <alogp>  (254) 
3.26

>  <topological_polar_surface_area>  (254) 
45.33

>  <rotatable_bond_count>  (254) 
2

>  <hydrogen_bond_acceptors>  (254) 
3

>  <hydrogen_bond_donors>  (254) 
1

>  <hydrogen_bond_acceptors_lipinski>  (254) 
3

>  <hydrogen_bond_donors_lipinski>  (254) 
1

>  <lipinski_rule_of_five_violations>  (254) 
0

>  <aromatic_rings_count>  (254) 
2

>  <qed_drug_likeliness>  (254) 
0.86

>  <formal_charge>  (254) 
0

>  <fractioncsp3>  (254) 
0.57

>  <number_of_minimal_rings>  (254) 
6

>  <van_der_walls_volume>  (254) 
315.22

>  <contains_sugar>  (254) 
False

>  <contains_ring_sugars>  (254) 
False

>  <contains_linear_sugars>  (254) 
False

>  <murcko_framework>  (254) 
c1ccc2c(c1)[nH]c3c2CCN4CC5CCC4C3C5

>  <np_likeness>  (254) 
1.58

>  <chemical_class>  (254) 
Ibogan-type alkaloids

>  <chemical_sub_class>  (254) 
Ibogan-type alkaloids

>  <chemical_super_class>  (254) 
Alkaloids and derivatives

>  <direct_parent_classification>  (254) 
Ibogan-type alkaloids

>  <np_classifier_pathway>  (254) 
Alkaloids

>  <np_classifier_superclass>  (254) 
Tryptophan alkaloids

>  <np_classifier_class>  (254) 
Iboga type

>  <np_classifier_is_glycoside>  (254) 
False

>  <organisms>  (254) 
Ervatamia divaricata Gouyahua|Pandaca mocquerysii|Peschiera affinis|Stemmadenia obovata Benth|Tabernaemontana calcarea|Tabernaemontana coronaria|Tabernaemontana heterophylla|Tabernaemontana oppositifolia|Tabernaemontana penduliflora|Tabernanthe iboga

>  <collections>  (254) 
KNApSaCK|Latin America dataset|NPEdia|NuBBEDB

>  <dois>  (254) 
10.1590/1809-43921983132409

>  <synonyms>  (254) 
(-)-Coronaridine|467-77-6|CHEBI:3887|CS-0079497|Coronardine|DTXSID60963642|EINECS 207-398-7|FS-8035|G13739|HY-121118|Ibogamine-18-carboxylic Acid Methyl Ester|Methyl ibogamine-18-carboxylate|NS00043651|NSC 127490|SCHEMBL2343450|methyl (1S,15R,17S,18S)-17-ethyl-3,13-diazapentacyclo[13.3.1.02,10.04,9.013,18]nonadeca-2(10),4,6,8-tetraene-1-carboxylate

>  <cas>  (254) 
467-77-6

$$$$

     RDKit          2D

 28 30  0  0  0  0  0  0  0  0999 V2000
    5.6229   -3.9121    0.0000 C   0  0  0  0  0  0  0  0  0  0  0  0
    4.2989   -3.2071    0.0000 O   0  0  0  0  0  0  0  0  0  0  0  0
    4.2474   -1.7080    0.0000 C   0  0  0  0  0  0  0  0  0  0  0  0
    5.5200   -0.9139    0.0000 O   0  0  0  0  0  0  0  0  0  0  0  0
    2.9234   -1.0030    0.0000 C   0  0  0  0  0  0  0  0  0  0  0  0
    1.6509   -1.7972    0.0000 C   0  0  0  0  0  0  0  0  0  0  0  0
    0.3269   -1.0922    0.0000 O   0  0  0  0  0  0  0  0  0  0  0  0
    0.2754    0.4069    0.0000 C   0  0  0  0  0  0  0  0  0  0  0  0
   -1.0486    1.1119    0.0000 O   0  0  0  0  0  0  0  0  0  0  0  0
   -2.3211    0.3178    0.0000 C   0  0  0  0  0  0  0  0  0  0  0  0
   -3.6451    1.0228    0.0000 O   0  0  0  0  0  0  0  0  0  0  0  0
   -4.9177    0.2286    0.0000 C   0  0  0  0  0  0  0  0  0  0  0  0
   -6.2417    0.9336    0.0000 C   0  0  0  0  0  0  0  0  0  0  0  0
   -6.2931    2.4327    0.0000 O   0  0  0  0  0  0  0  0  0  0  0  0
   -4.8662   -1.2705    0.0000 C   0  0  0  0  0  0  0  0  0  0  0  0
   -6.1387   -2.0646    0.0000 O   0  0  0  0  0  0  0  0  0  0  0  0
   -3.5422   -1.9755    0.0000 C   0  0  0  0  0  0  0  0  0  0  0  0
   -3.4907   -3.4746    0.0000 O   0  0  0  0  0  0  0  0  0  0  0  0
   -2.2697   -1.1813    0.0000 C   0  0  0  0  0  0  0  0  0  0  0  0
   -0.9456   -1.8863    0.0000 O   0  0  0  0  0  0  0  0  0  0  0  0
    1.5480    1.2011    0.0000 C   0  0  0  0  0  0  0  0  0  0  0  0
    1.8093    2.6781    0.0000 C   0  0  0  0  0  0  0  0  0  0  0  0
    0.7680    3.7577    0.0000 C   0  0  0  0  0  0  0  0  0  0  0  0
    1.1823    5.1994    0.0000 O   0  0  0  0  0  0  0  0  0  0  0  0
    3.2948    2.8860    0.0000 C   0  0  0  0  0  0  0  0  0  0  0  0
    3.9516    1.5374    0.0000 C   0  0  0  0  0  0  0  0  0  0  0  0
    5.4287    1.2761    0.0000 O   0  0  0  0  0  0  0  0  0  0  0  0
    2.8720    0.4961    0.0000 C   0  0  0  0  0  0  0  0  0  0  0  0
  1  2  1  0
  2  3  1  0
  3  4  2  0
  3  5  1  0
  5  6  2  0
  6  7  1  0
  7  8  1  0
  8  9  1  1
 10  9  1  1
 10 11  1  0
 11 12  1  0
 12 13  1  1
 13 14  1  0
 12 15  1  0
 15 16  1  6
 15 17  1  0
 17 18  1  1
 17 19  1  0
 19 20  1  6
  8 21  1  0
 21 22  1  6
 22 23  1  0
 23 24  1  0
 22 25  2  0
 25 26  1  0
 26 27  1  6
 26 28  1  0
 28  5  1  6
 19 10  1  0
 28 21  1  0
M  END
>  <identifier>  (255) 
CNP0228090.1

>  <canonical_smiles>  (255) 
COC(=O)C1=CO[C@@H](O[C@@H]2O[C@H](CO)[C@@H](O)[C@H](O)[C@H]2O)[C@@H]2C(CO)=C[C@H](O)[C@H]12

>  <standard_inchi>  (255) 
InChI=1S/C17H24O11/c1-25-15(24)7-5-26-16(10-6(3-18)2-8(20)11(7)10)28-17-14(23)13(22)12(21)9(4-19)27-17/h2,5,8-14,16-23H,3-4H2,1H3/t8-,9+,10+,11-,12+,13-,14+,16-,17-/m0/s1

>  <standard_inchi_key>  (255) 
WSGPLSDARZNMCW-FCVLBCLDSA-N

>  <name>  (255) 
52613-28-2

>  <iupac_name>  (255) 
methyl (1~{S},4~{a}~{S},5~{S},7~{a}~{S})-5-hydroxy-7-(hydroxymethyl)-1-[(2~{S},3~{R},4~{S},5~{S},6~{R})-3,4,5-trihydroxy-6-(hydroxymethyl)tetrahydropyran-2-yl]oxy-1,4~{a},5,7~{a}-tetrahydrocyclopenta[c]pyran-4-carboxylate

>  <annotation_level>  (255) 
5

>  <total_atom_count>  (255) 
52

>  <heavy_atom_count>  (255) 
28

>  <molecular_weight>  (255) 
404.37

>  <exact_molecular_weight>  (255) 
404.13186

>  <molecular_formula>  (255) 
C17H24O11

>  <alogp>  (255) 
-3.26

>  <topological_polar_surface_area>  (255) 
175.37

>  <rotatable_bond_count>  (255) 
5

>  <hydrogen_bond_acceptors>  (255) 
11

>  <hydrogen_bond_donors>  (255) 
6

>  <hydrogen_bond_acceptors_lipinski>  (255) 
11

>  <hydrogen_bond_donors_lipinski>  (255) 
6

>  <lipinski_rule_of_five_violations>  (255) 
2

>  <aromatic_rings_count>  (255) 
0

>  <qed_drug_likeliness>  (255) 
0.20

>  <formal_charge>  (255) 
0

>  <fractioncsp3>  (255) 
0.71

>  <number_of_minimal_rings>  (255) 
3

>  <van_der_walls_volume>  (255) 
337.46

>  <contains_sugar>  (255) 
True

>  <contains_ring_sugars>  (255) 
True

>  <contains_linear_sugars>  (255) 
False

>  <murcko_framework>  (255) 
O1C=CC2CC=CC2C1OC3OCCCC3

>  <np_likeness>  (255) 
2.69

>  <chemical_class>  (255) 
Prenol lipids

>  <chemical_sub_class>  (255) 
Terpene glycosides

>  <chemical_super_class>  (255) 
Lipids and lipid-like molecules

>  <direct_parent_classification>  (255) 
Iridoid O-glycosides

>  <np_classifier_pathway>  (255) 
Terpenoids

>  <np_classifier_superclass>  (255) 
Monoterpenoids

>  <np_classifier_class>  (255) 
Iridoids monoterpenoids

>  <np_classifier_is_glycoside>  (255) 
True

>  <organisms>  (255) 
Adina polycephala Benth|Adina trichotoma|Alibertia macrophylla|Arcytophyllum thymifolium|Catharanthus roseus|Catunaregam spinosa|Cordiera macrophylla|Daphniphyllum angustifolium|Daphniphyllum himalayense|Daphniphyllum himalense|Eucommia ulmoides|Feretia apodanthera|Gardenia jasminoides|Gardenia spp.|Genipa americana|Lamium amplexicaule|Mussaenda pubescens|Oldenlandia hedyotidea|Oldenlandia herbacea var. herbacea|Paederia Scandens|Paederia foetida|Paederia scandens|Pedicularis palustris|Plantago lagopus|Psychotria alliance|Randia spinosa|Ridsdalea wittii|Rothmannia globosa|Rothmannia macrophylla|Singaporandia macrophylla|Spermacoce alata|Spermacoce latifolia|Trichotosia latifolia

>  <collections>  (255) 
Australian natural products|CMAUP (cCollective molecular activities of useful plants)|ChemSpider NPs|KNApSaCK|Latin America dataset|NAPRORE-CR|NPASS|NuBBEDB|Super Natural II|TCMDB-Taiwan (Traditional Chinese Medicine database)|TIPdb (database of Taiwan indigenous plants)|VietHerb|WikiData Natural Products|ZINC NP

>  <dois>  (255) 
10.1002/CHIN.200610184|10.1002/HLCA.200690091|10.1002/HLCA.200790187|10.1002/HLCA.200890068|10.1002/HLCA.200900158|10.1002/HLCA.201000129|10.1002/HLCA.201000270|10.1002/RCM.4643|10.1002/hlca.200790187|10.1016/0031-9422(94)00861-M|10.1016/0031-9422(96)00086-6|10.1016/J.CCLET.2009.12.009|10.1016/J.PHYTOCHEM.2009.03.008|10.1016/S0031-9422(00)80266-6|10.1016/S0031-9422(00)80754-2|10.1016/S0031-9422(03)00109-2|10.1021/NP000524C|10.1021/NP0580816|10.1021/NP700758Q|10.1021/acs.jnatprod.6b00484|10.1021/np0580816|10.1076/1388-0209(200009)3841-AFT268|10.1248/CPB.51.1417|10.1248/CPB.52.1356|10.1248/CPB.55.632|10.3987/COM-01-S(K)45|10.3987/COM-02-9622

>  <synonyms>  (255) 
6|6-Hydroxygeniposide; Deacetylasperulosidic acid methyl ester|6alpha-hydroxygeniposide|6beta-Hydroxygeniposide|A-Hydroxygeniposide|AC-34628|AKOS032962772|AS-64493|C17H24O11|CCG-268690|CHEMBL463096|CS-0017048|DEACETYLASPERULOSIDIC ACID METHYL ESTER|Deacetyl asperulosidic acid methyl ester|HY-N1503|METHYL (1S,4AS,5S,7AS)-5-HYDROXY-7-(HYDROXYMETHYL)-1-{[(2S,3R,4S,5S,6R)-3,4,5-TRIHYDROXY-6-(HYDROXYMETHYL)OXAN-2-YL]OXY}-1H,4AH,5H,7AH-CYCLOPENTA[C]PYRAN-4-CARBOXYLATE|Methyl deacetylasperulosidate|WSGPLSDARZNMCW-FCVLBCLDSA-N|methyl (1S,4aS,5S,7aS)-5-hydroxy-7-(hydroxymethyl)-1-[(2S,3R,4S,5S,6R)-3,4,5-trihydroxy-6-(hydroxymethyl)oxan-2-yl]oxy-1,4a,5,7a-tetrahydrocyclopenta[c]pyran-4-carboxylate|s9429

>  <cas>  (255) 
nan

$$$$

     RDKit          2D

 24 26  0  0  0  0  0  0  0  0999 V2000
   -3.8019    3.2682    0.0000 C   0  0  0  0  0  0  0  0  0  0  0  0
   -2.8700    2.0928    0.0000 O   0  0  0  0  0  0  0  0  0  0  0  0
   -1.3861    2.3120    0.0000 C   0  0  0  0  0  0  0  0  0  0  0  0
   -0.8341    3.7068    0.0000 C   0  0  0  0  0  0  0  0  0  0  0  0
    0.6498    3.9260    0.0000 C   0  0  0  0  0  0  0  0  0  0  0  0
    1.5816    2.7506    0.0000 C   0  0  0  0  0  0  0  0  0  0  0  0
    1.0296    1.3559    0.0000 C   0  0  0  0  0  0  0  0  0  0  0  0
   -0.4543    1.1366    0.0000 C   0  0  0  0  0  0  0  0  0  0  0  0
   -1.0063   -0.2581    0.0000 N   0  0  0  0  0  0  0  0  0  0  0  0
   -2.4902   -0.4774    0.0000 C   0  0  0  0  0  0  0  0  0  0  0  0
   -3.0423   -1.8721    0.0000 O   0  0  0  0  0  0  0  0  0  0  0  0
   -4.5261   -2.0914    0.0000 C   0  0  0  0  0  0  0  0  0  0  0  0
   -5.0782   -3.4861    0.0000 C   0  0  0  0  0  0  0  0  0  0  0  0
   -5.4580   -0.9160    0.0000 O   0  0  0  0  0  0  0  0  0  0  0  0
   -0.0745   -1.4336    0.0000 C   0  0  0  0  0  0  0  0  0  0  0  0
   -0.6265   -2.8283    0.0000 O   0  0  0  0  0  0  0  0  0  0  0  0
    1.4094   -1.2143    0.0000 C   0  0  0  0  0  0  0  0  0  0  0  0
    1.9614    0.1804    0.0000 C   0  0  0  0  0  0  0  0  0  0  0  0
    3.4453    0.3997    0.0000 O   0  0  0  0  0  0  0  0  0  0  0  0
    4.3772   -0.7758    0.0000 C   0  0  0  0  0  0  0  0  0  0  0  0
    5.6548   -1.5616    0.0000 C   0  0  0  0  0  0  0  0  0  0  0  0
    5.3729    0.3460    0.0000 C   0  0  0  0  0  0  0  0  0  0  0  0
    3.8251   -2.1705    0.0000 C   0  0  0  0  0  0  0  0  0  0  0  0
    2.3412   -2.3898    0.0000 C   0  0  0  0  0  0  0  0  0  0  0  0
  1  2  1  0
  2  3  1  0
  3  4  2  0
  4  5  1  0
  5  6  2  0
  6  7  1  0
  7  8  2  0
  8  9  1  0
  9 10  1  0
 10 11  1  0
 11 12  1  0
 12 13  1  0
 12 14  2  0
  9 15  1  0
 15 16  2  0
 15 17  1  0
 17 18  2  0
 18 19  1  0
 19 20  1  0
 20 21  1  0
 20 22  1  0
 20 23  1  0
 23 24  2  0
  8  3  1  0
 24 17  1  0
 18  7  1  0
M  END
>  <identifier>  (256) 
CNP0118594.0

>  <canonical_smiles>  (256) 
COC1=CC=CC2=C1N(COC(C)=O)C(=O)C1=C2OC(C)(C)C=C1

>  <standard_inchi>  (256) 
InChI=1S/C18H19NO5/c1-11(20)23-10-19-15-12(6-5-7-14(15)22-4)16-13(17(19)21)8-9-18(2,3)24-16/h5-9H,10H2,1-4H3

>  <standard_inchi_key>  (256) 
WDZBPZQGNZNXOD-UHFFFAOYSA-N

>  <name>  (256) 
WDZBPZQGNZNXOD-UHFFFAOYSA-

>  <iupac_name>  (256) 
(7-methoxy-2,2-dimethyl-5-oxo-pyrano[3,2-c]quinolin-6-yl)methyl acetate

>  <annotation_level>  (256) 
5

>  <total_atom_count>  (256) 
43

>  <heavy_atom_count>  (256) 
24

>  <molecular_weight>  (256) 
329.35

>  <exact_molecular_weight>  (256) 
329.12632

>  <molecular_formula>  (256) 
C18H19NO5

>  <alogp>  (256) 
2.71

>  <topological_polar_surface_area>  (256) 
66.76

>  <rotatable_bond_count>  (256) 
3

>  <hydrogen_bond_acceptors>  (256) 
6

>  <hydrogen_bond_donors>  (256) 
0

>  <hydrogen_bond_acceptors_lipinski>  (256) 
6

>  <hydrogen_bond_donors_lipinski>  (256) 
0

>  <lipinski_rule_of_five_violations>  (256) 
0

>  <aromatic_rings_count>  (256) 
2

>  <qed_drug_likeliness>  (256) 
0.81

>  <formal_charge>  (256) 
0

>  <fractioncsp3>  (256) 
0.33

>  <number_of_minimal_rings>  (256) 
3

>  <van_der_walls_volume>  (256) 
290.42

>  <contains_sugar>  (256) 
False

>  <contains_ring_sugars>  (256) 
False

>  <contains_linear_sugars>  (256) 
False

>  <murcko_framework>  (256) 
O1C=2c3ccccc3NCC2C=CC1

>  <np_likeness>  (256) 
1.50

>  <chemical_class>  (256) 
Quinolines and derivatives

>  <chemical_sub_class>  (256) 
Quinolones and derivatives

>  <chemical_super_class>  (256) 
Organoheterocyclic compounds

>  <direct_parent_classification>  (256) 
Pyranoquinolines

>  <np_classifier_pathway>  (256) 
Alkaloids

>  <np_classifier_superclass>  (256) 
Tryptophan alkaloids

>  <np_classifier_class>  (256) 
Quinoline alkaloids

>  <np_classifier_is_glycoside>  (256) 
False

>  <organisms>  (256) 
Andreadoxa flava|Vepris stolzii|Zanthoxylum monophyllum|Zanthoxylum schreberi

>  <collections>  (256) 
KNApSaCK|Latin America dataset|NAPRORE-CR|NuBBEDB|Super Natural II|UNPD (Universal Natural Products Database)|WikiData Natural Products|ZINC NP

>  <dois>  (256) 
10.1016/0031-9422(77)80113-1|10.1016/J.BSE.2003.09.006|10.1016/j.bse.2003.09.006|10.1021/NP50021A017

>  <synonyms>  (256) 
InChI=1\/C18H19NO5\/c1-11(20)23-10-19-15-12(6-5-7-14(15)22-4)16-13(17(19)21)8-9-18(2,3)24-16\/h5-9H,10H2,1-4H3|Zanthophylline

>  <cas>  (256) 
nan

$$$$

     RDKit          2D

 30 32  0  0  0  0  0  0  0  0999 V2000
   -8.8477   -0.5877    0.0000 C   0  0  0  0  0  0  0  0  0  0  0  0
   -7.3621   -0.3803    0.0000 C   0  0  0  0  0  0  0  0  0  0  0  0
   -6.4397   -1.5632    0.0000 C   0  0  0  0  0  0  0  0  0  0  0  0
   -7.0028   -2.9534    0.0000 C   0  0  0  0  0  0  0  0  0  0  0  0
   -4.9541   -1.3557    0.0000 C   0  0  0  0  0  0  0  0  0  0  0  0
   -4.3909    0.0345    0.0000 C   0  0  0  0  0  0  0  0  0  0  0  0
   -2.9053    0.2420    0.0000 C   0  0  0  0  0  0  0  0  0  0  0  0
   -2.3422    1.6322    0.0000 C   0  0  0  0  0  0  0  0  0  0  0  0
   -0.8566    1.8397    0.0000 C   0  0  0  0  0  0  0  0  0  0  0  0
   -0.2934    3.2299    0.0000 C   0  0  0  0  0  0  0  0  0  0  0  0
   -1.2158    4.4128    0.0000 Cl  0  0  0  0  0  0  0  0  0  0  0  0
    1.1922    3.4374    0.0000 C   0  0  0  0  0  0  0  0  0  0  0  0
    1.7553    4.8276    0.0000 O   0  0  0  0  0  0  0  0  0  0  0  0
    2.1146    2.2545    0.0000 C   0  0  0  0  0  0  0  0  0  0  0  0
    2.8200    3.5783    0.0000 C   0  0  0  0  0  0  0  0  0  0  0  0
    3.6109    2.1485    0.0000 O   0  0  0  0  0  0  0  0  0  0  0  0
    3.9724    0.6928    0.0000 C   0  0  0  0  0  0  0  0  0  0  0  0
    5.3627    0.1296    0.0000 O   0  0  0  0  0  0  0  0  0  0  0  0
    2.6996   -0.1010    0.0000 C   0  0  0  0  0  0  0  0  0  0  0  0
    2.5937   -1.5972    0.0000 C   0  0  0  0  0  0  0  0  0  0  0  0
    1.2449   -2.2536    0.0000 O   0  0  0  0  0  0  0  0  0  0  0  0
    3.8365   -2.4371    0.0000 C   0  0  0  0  0  0  0  0  0  0  0  0
    5.1852   -1.7808    0.0000 C   0  0  0  0  0  0  0  0  0  0  0  0
    3.7305   -3.9334    0.0000 C   0  0  0  0  0  0  0  0  0  0  0  0
    2.3817   -4.5897    0.0000 C   0  0  0  0  0  0  0  0  0  0  0  0
    4.9733   -4.7733    0.0000 O   0  0  0  0  0  0  0  0  0  0  0  0
    1.5514    0.8642    0.0000 C   0  0  0  0  0  0  0  0  0  0  0  0
    0.0659    0.6568    0.0000 C   0  0  0  0  0  0  0  0  0  0  0  0
   -0.4973   -0.7335    0.0000 C   0  0  0  0  0  0  0  0  0  0  0  0
   -1.9829   -0.9409    0.0000 O   0  0  0  0  0  0  0  0  0  0  0  0
  1  2  1  0
  2  3  1  0
  3  4  1  1
  3  5  1  0
  5  6  2  0
  6  7  1  0
  7  8  2  0
  8  9  1  0
  9 10  2  0
 10 11  1  0
 10 12  1  0
 12 13  2  0
 12 14  1  0
 14 15  1  6
 14 16  1  0
 16 17  1  0
 17 18  2  0
 17 19  1  0
 19 20  1  0
 20 21  2  0
 20 22  1  0
 22 23  1  1
 22 24  1  0
 24 25  1  6
 24 26  1  0
 19 27  2  0
 27 28  1  0
 28 29  2  0
 29 30  1  0
 30  7  1  0
 28  9  1  0
 27 14  1  0
M  END
>  <identifier>  (257) 
CNP0208255.3

>  <canonical_smiles>  (257) 
CC[C@H](C)/C=C/C1=CC2=C(Cl)C(=O)[C@@]3(C)OC(=O)C(C(=O)[C@@H](C)[C@@H](C)O)=C3C2=CO1

>  <standard_inchi>  (257) 
InChI=1S/C23H25ClO6/c1-6-11(2)7-8-14-9-15-16(10-29-14)18-17(20(26)12(3)13(4)25)22(28)30-23(18,5)21(27)19(15)24/h7-13,25H,6H2,1-5H3/b8-7+/t11-,12-,13+,23-/m0/s1

>  <standard_inchi_key>  (257) 
HWSQVPGTQUYLEQ-CCBHEJLASA-N

>  <name>  (257) 
Chaetoviridin A

>  <iupac_name>  (257) 
(6~{a}~{S})-5-chloro-9-[(2~{S},3~{R})-3-hydroxy-2-methyl-butanoyl]-6~{a}-methyl-3-[(~{E},3~{S})-3-methylpent-1-enyl]furo[2,3-h]isochromene-6,8-dione

>  <annotation_level>  (257) 
5

>  <total_atom_count>  (257) 
55

>  <heavy_atom_count>  (257) 
30

>  <molecular_weight>  (257) 
432.9

>  <exact_molecular_weight>  (257) 
432.13397

>  <molecular_formula>  (257) 
C23H25ClO6

>  <alogp>  (257) 
3.66

>  <topological_polar_surface_area>  (257) 
89.90

>  <rotatable_bond_count>  (257) 
6

>  <hydrogen_bond_acceptors>  (257) 
6

>  <hydrogen_bond_donors>  (257) 
1

>  <hydrogen_bond_acceptors_lipinski>  (257) 
6

>  <hydrogen_bond_donors_lipinski>  (257) 
1

>  <lipinski_rule_of_five_violations>  (257) 
0

>  <aromatic_rings_count>  (257) 
0

>  <qed_drug_likeliness>  (257) 
0.51

>  <formal_charge>  (257) 
0

>  <fractioncsp3>  (257) 
0.44

>  <number_of_minimal_rings>  (257) 
3

>  <van_der_walls_volume>  (257) 
380.84

>  <contains_sugar>  (257) 
False

>  <contains_ring_sugars>  (257) 
False

>  <contains_linear_sugars>  (257) 
False

>  <murcko_framework>  (257) 
O1C=CC2=CCC3OCC=C3C2=C1

>  <np_likeness>  (257) 
2.77

>  <chemical_class>  (257) 
Organooxygen compounds

>  <chemical_sub_class>  (257) 
Carbonyl compounds

>  <chemical_super_class>  (257) 
Organic oxygen compounds

>  <direct_parent_classification>  (257) 
Cyclohexenones

>  <np_classifier_pathway>  (257) 
Polyketides

>  <np_classifier_superclass>  (257) 
Chromanes

>  <np_classifier_class>  (257) 
Azaphilones

>  <np_classifier_is_glycoside>  (257) 
False

>  <organisms>  (257) 
Chaetomium cochliodes|Chaetomium globosum|Chaetomium globosum MP4-S01-7

>  <collections>  (257) 
ChEBI NPs|EMNPD|Latin America dataset|NPASS|NPEdia|NuBBEDB|Super Natural II|WikiData Natural Products

>  <dois>  (257) 
10.1016/J.FEMSLE.2005.09.013|10.1016/J.TET.2008.07.040|10.1016/j.femsle.2005.09.013|10.1021/ACS.JNATPROD.9B01165|10.1021/NP200110F|10.1021/acs.jnatprod.9b01165|10.1021/np200110f|10.1248/CPB.38.625

>  <synonyms>  (257) 
(6aS)-5-chloro-9-[(2S,3R)-3-hydroxy-2-methylbutanoyl]-6a-methyl-3-[(E,3S)-3-methylpent-1-enyl]furo[2,3-h]isochromene-6,8-dione|128252-98-2|1308671-17-1|6H-Furo[2,3-h]-2-benzopyran-6,8(6aH)-dione, 5-chloro-9-[(2S,3R)-3-hydroxy-20methyl-1-oxobutyl]-6a-methyl-3-[(1E,3S)-3-methyl-1-pentenyl)-,(6aS)|CCRIS 7226|CHEBI:67610|CHEMBL1802150|DTXSID80893270|HB3829|J-005582|NS00094911|Q27136080|chaetoviridin A

>  <cas>  (257) 
128252-98-2

$$$$

     RDKit          2D

 22 24  0  0  0  0  0  0  0  0999 V2000
   -6.5249    1.8681    0.0000 C   0  0  0  0  0  0  0  0  0  0  0  0
   -6.0115    0.4587    0.0000 O   0  0  0  0  0  0  0  0  0  0  0  0
   -4.5342    0.1987    0.0000 C   0  0  0  0  0  0  0  0  0  0  0  0
   -3.5704    1.3480    0.0000 C   0  0  0  0  0  0  0  0  0  0  0  0
   -2.0931    1.0879    0.0000 C   0  0  0  0  0  0  0  0  0  0  0  0
   -1.5797   -0.3215    0.0000 C   0  0  0  0  0  0  0  0  0  0  0  0
   -0.1024   -0.5815    0.0000 C   0  0  0  0  0  0  0  0  0  0  0  0
    0.4111   -1.9909    0.0000 C   0  0  0  0  0  0  0  0  0  0  0  0
    1.8883   -2.2510    0.0000 O   0  0  0  0  0  0  0  0  0  0  0  0
    2.8522   -1.1017    0.0000 C   0  0  0  0  0  0  0  0  0  0  0  0
    4.3295   -1.3617    0.0000 C   0  0  0  0  0  0  0  0  0  0  0  0
    5.2933   -0.2124    0.0000 C   0  0  0  0  0  0  0  0  0  0  0  0
    6.7706   -0.4724    0.0000 O   0  0  0  0  0  0  0  0  0  0  0  0
    4.7799    1.1970    0.0000 C   0  0  0  0  0  0  0  0  0  0  0  0
    3.3026    1.4571    0.0000 C   0  0  0  0  0  0  0  0  0  0  0  0
    2.7892    2.8665    0.0000 O   0  0  0  0  0  0  0  0  0  0  0  0
    2.3388    0.3077    0.0000 C   0  0  0  0  0  0  0  0  0  0  0  0
    0.8615    0.5678    0.0000 C   0  0  0  0  0  0  0  0  0  0  0  0
    0.3481    1.9772    0.0000 O   0  0  0  0  0  0  0  0  0  0  0  0
   -2.5435   -1.4708    0.0000 C   0  0  0  0  0  0  0  0  0  0  0  0
   -4.0208   -1.2107    0.0000 C   0  0  0  0  0  0  0  0  0  0  0  0
   -4.9847   -2.3601    0.0000 O   0  0  0  0  0  0  0  0  0  0  0  0
  1  2  1  0
  2  3  1  0
  3  4  2  0
  4  5  1  0
  5  6  2  0
  6  7  1  0
  7  8  2  0
  8  9  1  0
  9 10  1  0
 10 11  2  0
 11 12  1  0
 12 13  1  0
 12 14  2  0
 14 15  1  0
 15 16  1  0
 15 17  2  0
 17 18  1  0
 18 19  2  0
  6 20  1  0
 20 21  2  0
 21 22  1  0
 21  3  1  0
 18  7  1  0
 17 10  1  0
M  END
>  <identifier>  (258) 
CNP0120850.0

>  <canonical_smiles>  (258) 
COC1=CC=C(C2=COC3=CC(O)=CC(O)=C3C2=O)C=C1O

>  <standard_inchi>  (258) 
InChI=1S/C16H12O6/c1-21-13-3-2-8(4-11(13)18)10-7-22-14-6-9(17)5-12(19)15(14)16(10)20/h2-7,17-19H,1H3

>  <standard_inchi_key>  (258) 
FPIOBTBNRZPWJW-UHFFFAOYSA-N

>  <name>  (258) 
Pratensein

>  <iupac_name>  (258) 
5,7-dihydroxy-3-(3-hydroxy-4-methoxy-phenyl)chromen-4-one

>  <annotation_level>  (258) 
5

>  <total_atom_count>  (258) 
34

>  <heavy_atom_count>  (258) 
22

>  <molecular_weight>  (258) 
300.27

>  <exact_molecular_weight>  (258) 
300.06339

>  <molecular_formula>  (258) 
C16H12O6

>  <alogp>  (258) 
2.59

>  <topological_polar_surface_area>  (258) 
100.13

>  <rotatable_bond_count>  (258) 
2

>  <hydrogen_bond_acceptors>  (258) 
6

>  <hydrogen_bond_donors>  (258) 
3

>  <hydrogen_bond_acceptors_lipinski>  (258) 
6

>  <hydrogen_bond_donors_lipinski>  (258) 
3

>  <lipinski_rule_of_five_violations>  (258) 
0

>  <aromatic_rings_count>  (258) 
3

>  <qed_drug_likeliness>  (258) 
0.67

>  <formal_charge>  (258) 
0

>  <fractioncsp3>  (258) 
0.06

>  <number_of_minimal_rings>  (258) 
3

>  <van_der_walls_volume>  (258) 
248.24

>  <contains_sugar>  (258) 
False

>  <contains_ring_sugars>  (258) 
False

>  <contains_linear_sugars>  (258) 
False

>  <murcko_framework>  (258) 
O1C=C(c2ccccc2)Cc3ccccc13

>  <np_likeness>  (258) 
1.37

>  <chemical_class>  (258) 
Isoflavonoids

>  <chemical_sub_class>  (258) 
O-methylated isoflavonoids

>  <chemical_super_class>  (258) 
Phenylpropanoids and polyketides

>  <direct_parent_classification>  (258) 
3'-hydroxy,4'-methoxyisoflavonoids

>  <np_classifier_pathway>  (258) 
Shikimates and Phenylpropanoids

>  <np_classifier_superclass>  (258) 
Isoflavonoids

>  <np_classifier_class>  (258) 
Isoflavones

>  <np_classifier_is_glycoside>  (258) 
False

>  <organisms>  (258) 
Ammopiptanthus mongolicus|Andira inermis|Andira surinamensis|Apis mellifera ligustica|Astragalus membranaceus|Astragalus mongholicus|Astragalus trimestris|Bassia scoparia|Bolusanthus speciosus|Brazilian Red Propolis|Brickellia cylindracea|Calocephalus citreus|Cicer anatolicum|Cicer arietinum|Cicer baldshuanicum|Cicer bijugum|Cicer canariense|Cicer chorassanicum|Cicer cuneatum|Cicer echinospermum|Cicer flexuosum|Cicer judaicum|Cicer kopetdaghense|Cicer macracanthum|Cicer microphyllum|Cicer mogoltavicum|Cicer nuristanicum|Cicer oxyodon|Cicer pungens|Cicer songaricum|Cicer tragacanthoides|Cicer yamashitae|Crotalaria medicaginea|Cytisus scoparius|Dalbergia parviflora|Dalbergia sissoo|Dermatophyllum secundiflorum|Eclipta prostrata|Eria alba|Eria floribunda|Fritillaria stenanthera|Genista pichisermolliana|Glycyrrhiza glabra|Glycyrrhiza inflata|Glycyrrhiza uralensis|Herba ecliptae prostratae|Inula britannica|Inula britannica var. chinensis|Inula britannica var.chinensis|Iris pseudacorus|Jnula britannica|Kopsia teoi|Monnieria trifolia|Monopterix inpae|Monopteryx inpae|Mucuna membranacea|Peucedanum praeruptorum|Pisum sativum|Polyalthia barnesii|Polyporus pargamenus|Pongamia pinnata|Propolis|Psychotria st|Retama raetam|Rubus lambertianus|Sedum lineare|Seseli tortuosum|Sidastrum burrerense|Sophora Japonica|Sophora japonica|Sophora koreensis|Sophora secundiflora|Stevia paniculata|Streptomyces peucetius|Striga lutea|Styphnolobium japonicum|Thermopsis spp.|Trifolium pratense|Trifolium subterraneum|Yucca recurvifolia|peanut

>  <collections>  (258) 
ANPDB|Australian natural products|CMAUP (cCollective molecular activities of useful plants)|ChEBI NPs|FooDB|GNPS (Global Natural Products Social Molecular Networking)|KNApSaCK|Latin America dataset|NANPDB (Natural Products from Northern African Sources)|NPASS|NPEdia|NuBBEDB|Phyto4Health|StreptomeDB|Super Natural II|TCMDB-Taiwan (Traditional Chinese Medicine database)|TCMID (Traditional Chinese Medicine Integrated Database)|TIPdb (database of Taiwan indigenous plants)|UNPD (Universal Natural Products Database)|VietHerb|WikiData Natural Products

>  <dois>  (258) 
10.1002/HLCA.200890108|10.1002/JCCS.199800035|10.1002/JPS.2600640504|10.1002/MRC.1806|10.1002/MRC.2138|10.1002/ptr.2560|10.1007/BF00599277|10.1007/BF00629810|10.1007/BF00629811|10.1007/s12272-015-0599-2|10.1016/0031-9422(81)85097-2|10.1016/0031-9422(91)84117-B|10.1016/0031-9422(92)83646-G|10.1016/0031-9422(92)90056-V|10.1016/0031-9422(95)00618-4|10.1016/0031-9422(95)93530-S|10.1016/J.BMC.2007.10.004|10.1016/J.BMC.2008.04.016|10.1016/J.BMCL.2011.12.036|10.1016/S0003-2670(01)01370-8|10.1016/S0021-9673(01)96392-7|10.1016/S0021-9673(96)00578-X|10.1016/S0031-9422(96)00582-1|10.1016/S0031-9422(97)00798-X|10.1016/S0378-8741(00)00285-3|10.1021/JF991002+|10.1021/NP900676Y|10.1039/C9FO00799G|10.1055/S-0029-1185944|10.1248/YAKUSHI1947.103.9_997|10.1515/ZNC-1985-9-1005|10.1515/ZNC-1987-11-1206|10.3390/molecules22010087

>  <synonyms>  (258) 
2284-31-3|3'-hydroxybiochanin A|4'-methoxy-3',5,7-trihydroxyisoflavone|4776B compound|4H-1-Benzopyran-4-one, 5,7-dihydroxy-3-(3-hydroxy-4-methoxyphenyl)-|5,7,3'-trihydroxy-4'-methoxyisoflavone|5,7-Dihydroxy-3-(3-hydroxy-4-methoxyphenyl)-4H-1-benzopyran-4-one|5,7-dihydroxy-3-(3-hydroxy-4-methoxyphenyl)-4H-chromen-4-one|AKOS040760647|CHEBI:8359|CHEMBL252904|CS-0138918|D2CF8CJ6AP|DTXCID4099879|DTXSID60177388|E88870|GTPL11857|HY-N7981|LMPK12050265|MS-24320|MT-8|PRATENSEIN [MI]|Pratensein|Q3401397|SCHEMBL73557|UNII-D2CF8CJ6AP|pratensin

>  <cas>  (258) 
2284-31-3

$$$$

     RDKit          2D

 14 14  0  0  0  0  0  0  0  0999 V2000
    3.1907   -2.6552    0.0000 C   0  0  0  0  0  0  0  0  0  0  0  0
    2.9348   -1.1772    0.0000 C   0  0  0  0  0  0  0  0  0  0  0  0
    1.5268   -0.6599    0.0000 C   0  0  0  0  0  0  0  0  0  0  0  0
    0.3748   -1.6205    0.0000 C   0  0  0  0  0  0  0  0  0  0  0  0
   -1.0332   -1.1032    0.0000 C   0  0  0  0  0  0  0  0  0  0  0  0
   -2.1852   -2.0639    0.0000 O   0  0  0  0  0  0  0  0  0  0  0  0
   -3.5931   -1.5465    0.0000 C   0  0  0  0  0  0  0  0  0  0  0  0
   -1.2891    0.3748    0.0000 C   0  0  0  0  0  0  0  0  0  0  0  0
   -2.6971    0.8921    0.0000 O   0  0  0  0  0  0  0  0  0  0  0  0
   -2.9530    2.3701    0.0000 C   0  0  0  0  0  0  0  0  0  0  0  0
   -0.1371    1.3355    0.0000 C   0  0  0  0  0  0  0  0  0  0  0  0
    1.2709    0.8181    0.0000 C   0  0  0  0  0  0  0  0  0  0  0  0
    2.4229    1.7788    0.0000 O   0  0  0  0  0  0  0  0  0  0  0  0
    2.1669    3.2568    0.0000 C   0  0  0  0  0  0  0  0  0  0  0  0
  1  2  2  0
  2  3  1  0
  3  4  2  0
  4  5  1  0
  5  6  1  0
  6  7  1  0
  5  8  2  0
  8  9  1  0
  9 10  1  0
  8 11  1  0
 11 12  2  0
 12 13  1  0
 13 14  1  0
 12  3  1  0
M  END
>  <identifier>  (259) 
CNP0179624.0

>  <canonical_smiles>  (259) 
C=CC1=CC(OC)=C(OC)C=C1OC

>  <standard_inchi>  (259) 
InChI=1S/C11H14O3/c1-5-8-6-10(13-3)11(14-4)7-9(8)12-2/h5-7H,1H2,2-4H3

>  <standard_inchi_key>  (259) 
DAINMNHDGRVBQF-UHFFFAOYSA-N

>  <name>  (259) 
2,4,5-Trimethoxystyrene

>  <iupac_name>  (259) 
1,2,4-trimethoxy-5-vinyl-benzene

>  <annotation_level>  (259) 
5

>  <total_atom_count>  (259) 
28

>  <heavy_atom_count>  (259) 
14

>  <molecular_weight>  (259) 
194.23

>  <exact_molecular_weight>  (259) 
194.09429

>  <molecular_formula>  (259) 
C11H14O3

>  <alogp>  (259) 
2.36

>  <topological_polar_surface_area>  (259) 
27.69

>  <rotatable_bond_count>  (259) 
4

>  <hydrogen_bond_acceptors>  (259) 
3

>  <hydrogen_bond_donors>  (259) 
0

>  <hydrogen_bond_acceptors_lipinski>  (259) 
3

>  <hydrogen_bond_donors_lipinski>  (259) 
0

>  <lipinski_rule_of_five_violations>  (259) 
0

>  <aromatic_rings_count>  (259) 
1

>  <qed_drug_likeliness>  (259) 
0.74

>  <formal_charge>  (259) 
0

>  <fractioncsp3>  (259) 
0.27

>  <number_of_minimal_rings>  (259) 
1

>  <van_der_walls_volume>  (259) 
187.18

>  <contains_sugar>  (259) 
False

>  <contains_ring_sugars>  (259) 
False

>  <contains_linear_sugars>  (259) 
False

>  <murcko_framework>  (259) 
c1ccccc1

>  <np_likeness>  (259) 
0.49

>  <chemical_class>  (259) 
Phenol ethers

>  <chemical_sub_class>  (259) 
Anisoles

>  <chemical_super_class>  (259) 
Benzenoids

>  <direct_parent_classification>  (259) 
Anisoles

>  <np_classifier_pathway>  (259) 
Shikimates and Phenylpropanoids

>  <np_classifier_superclass>  (259) 
Phenylpropanoids (C6-C3)

>  <np_classifier_class>  (259) 
Cinnamic acids and derivatives

>  <np_classifier_is_glycoside>  (259) 
False

>  <organisms>  (259) 
Duguetia confinis|Duguetia eximia|Duguetia staudtii|Pachypodanthium confine|Piper lhotzkyanum

>  <collections>  (259) 
KNApSaCK|Latin America dataset|NuBBEDB|Super Natural II|UNPD (Universal Natural Products Database)|WikiData Natural Products|ZINC NP

>  <dois>  (259) 
10.1016/0031-9422(89)85044-7|10.1016/S0031-9422(00)00121-7|10.1016/S0031-9422(00)89033-0|10.1016/S0031-9422(00)94260-2

>  <synonyms>  (259) 
1,2,4-trimethoxy-5-vinylbenzene|1-ethenyl-2,4,5-trimethoxybenzene|17598-03-7|2,4,5-Tms|2,4,5-Trimethoxy-styrene|245-trimethoxystyrene|AKOS012403471|Benzene, 1-ethenyl-2,4,5-trimethoxy-|CCG-223447|CHEMBL488200|CS-0302466|DAINMNHDGRVBQF-UHFFFAOYSA-N|DTXSID60170051|EN300-1849932|SCHEMBL5603597

>  <cas>  (259) 
17598-03-7

$$$$

     RDKit          2D

 33 36  0  0  0  0  0  0  0  0999 V2000
    5.2488    0.1875    0.0000 C   0  0  0  0  0  0  0  0  0  0  0  0
    4.1160    1.1708    0.0000 C   0  0  0  0  0  0  0  0  0  0  0  0
    2.6981    0.6814    0.0000 O   0  0  0  0  0  0  0  0  0  0  0  0
    1.5653    1.6646    0.0000 C   0  0  0  0  0  0  0  0  0  0  0  0
    0.1474    1.1752    0.0000 O   0  0  0  0  0  0  0  0  0  0  0  0
   -0.1378   -0.2974    0.0000 C   0  0  0  0  0  0  0  0  0  0  0  0
   -1.5557   -0.7868    0.0000 C   0  0  0  0  0  0  0  0  0  0  0  0
   -2.6885    0.1965    0.0000 C   0  0  0  0  0  0  0  0  0  0  0  0
   -2.4033    1.6691    0.0000 C   0  0  0  0  0  0  0  0  0  0  0  0
   -3.5361    2.6524    0.0000 C   0  0  0  0  0  0  0  0  0  0  0  0
   -3.2510    4.1250    0.0000 O   0  0  0  0  0  0  0  0  0  0  0  0
   -4.9540    2.1630    0.0000 C   0  0  0  0  0  0  0  0  0  0  0  0
   -6.0868    3.1462    0.0000 O   0  0  0  0  0  0  0  0  0  0  0  0
   -5.2392    0.6903    0.0000 C   0  0  0  0  0  0  0  0  0  0  0  0
   -6.6571    0.2009    0.0000 O   0  0  0  0  0  0  0  0  0  0  0  0
   -4.1064   -0.2929    0.0000 C   0  0  0  0  0  0  0  0  0  0  0  0
   -1.8408   -2.2595    0.0000 O   0  0  0  0  0  0  0  0  0  0  0  0
   -0.7081   -3.2427    0.0000 C   0  0  0  0  0  0  0  0  0  0  0  0
   -0.9932   -4.7154    0.0000 C   0  0  0  0  0  0  0  0  0  0  0  0
    0.1396   -5.6986    0.0000 C   0  0  0  0  0  0  0  0  0  0  0  0
   -0.1455   -7.1713    0.0000 O   0  0  0  0  0  0  0  0  0  0  0  0
    1.5575   -5.2092    0.0000 C   0  0  0  0  0  0  0  0  0  0  0  0
    1.8427   -3.7366    0.0000 C   0  0  0  0  0  0  0  0  0  0  0  0
    3.2606   -3.2472    0.0000 O   0  0  0  0  0  0  0  0  0  0  0  0
    0.7099   -2.7533    0.0000 C   0  0  0  0  0  0  0  0  0  0  0  0
    0.9950   -1.2807    0.0000 C   0  0  0  0  0  0  0  0  0  0  0  0
    2.4129   -0.7913    0.0000 O   0  0  0  0  0  0  0  0  0  0  0  0
    1.8504    3.1373    0.0000 C   0  0  0  0  0  0  0  0  0  0  0  0
    0.7176    4.1205    0.0000 O   0  0  0  0  0  0  0  0  0  0  0  0
    3.2683    3.6267    0.0000 C   0  0  0  0  0  0  0  0  0  0  0  0
    3.5535    5.0993    0.0000 O   0  0  0  0  0  0  0  0  0  0  0  0
    4.4011    2.6434    0.0000 C   0  0  0  0  0  0  0  0  0  0  0  0
    5.8190    3.1328    0.0000 O   0  0  0  0  0  0  0  0  0  0  0  0
  2  1  1  6
  2  3  1  0
  3  4  1  0
  4  5  1  1
  5  6  1  0
  6  7  2  0
  7  8  1  0
  8  9  2  0
  9 10  1  0
 10 11  1  0
 10 12  2  0
 12 13  1  0
 12 14  1  0
 14 15  1  0
 14 16  2  0
  7 17  1  0
 17 18  1  0
 18 19  2  0
 19 20  1  0
 20 21  1  0
 20 22  2  0
 22 23  1  0
 23 24  1  0
 23 25  2  0
 25 26  1  0
 26 27  2  0
  4 28  1  0
 28 29  1  6
 28 30  1  0
 30 31  1  6
 30 32  1  0
 32 33  1  1
 32  2  1  0
 26  6  1  0
 16  8  1  0
 25 18  1  0
M  END
>  <identifier>  (260) 
CNP0365444.2

>  <canonical_smiles>  (260) 
C[C@@H]1O[C@@H](OC2=C(C3=CC(O)=C(O)C(O)=C3)OC3=CC(O)=CC(O)=C3C2=O)[C@H](O)[C@H](O)[C@H]1O

>  <standard_inchi>  (260) 
InChI=1S/C21H20O12/c1-6-14(26)17(29)18(30)21(31-6)33-20-16(28)13-9(23)4-8(22)5-12(13)32-19(20)7-2-10(24)15(27)11(25)3-7/h2-6,14,17-18,21-27,29-30H,1H3/t6-,14-,17+,18+,21-/m0/s1

>  <standard_inchi_key>  (260) 
DCYOADKBABEMIQ-OWMUPTOHSA-N

>  <name>  (260) 
Myricitrin

>  <iupac_name>  (260) 
5,7-dihydroxy-3-[(2~{S},3~{R},4~{R},5~{R},6~{S})-3,4,5-trihydroxy-6-methyl-tetrahydropyran-2-yl]oxy-2-(3,4,5-trihydroxyphenyl)chromen-4-one

>  <annotation_level>  (260) 
5

>  <total_atom_count>  (260) 
53

>  <heavy_atom_count>  (260) 
33

>  <molecular_weight>  (260) 
464.38

>  <exact_molecular_weight>  (260) 
464.09548

>  <molecular_formula>  (260) 
C21H20O12

>  <alogp>  (260) 
0.19

>  <topological_polar_surface_area>  (260) 
210.51

>  <rotatable_bond_count>  (260) 
3

>  <hydrogen_bond_acceptors>  (260) 
12

>  <hydrogen_bond_donors>  (260) 
8

>  <hydrogen_bond_acceptors_lipinski>  (260) 
12

>  <hydrogen_bond_donors_lipinski>  (260) 
8

>  <lipinski_rule_of_five_violations>  (260) 
2

>  <aromatic_rings_count>  (260) 
3

>  <qed_drug_likeliness>  (260) 
0.24

>  <formal_charge>  (260) 
0

>  <fractioncsp3>  (260) 
0.29

>  <number_of_minimal_rings>  (260) 
4

>  <van_der_walls_volume>  (260) 
371.30

>  <contains_sugar>  (260) 
True

>  <contains_ring_sugars>  (260) 
True

>  <contains_linear_sugars>  (260) 
False

>  <murcko_framework>  (260) 
O1c2ccccc2CC(OC3OCCCC3)=C1c4ccccc4

>  <np_likeness>  (260) 
2.19

>  <chemical_class>  (260) 
Flavonoids

>  <chemical_sub_class>  (260) 
Flavonoid glycosides

>  <chemical_super_class>  (260) 
Phenylpropanoids and polyketides

>  <direct_parent_classification>  (260) 
Flavonoid-3-O-glycosides

>  <np_classifier_pathway>  (260) 
Shikimates and Phenylpropanoids

>  <np_classifier_superclass>  (260) 
Flavonoids

>  <np_classifier_class>  (260) 
Flavonols

>  <np_classifier_is_glycoside>  (260) 
True

>  <organisms>  (260) 
Acanthospermum glabratum|Aconitum heterophylloides|Adina sessilifolia|Aegiceras corniculatum|Aeschynomene brasiliana|Ajuga genevensis|Alangium grisolleoides|Alchornea glandulosa|Alyxia reinwardtii|Amyris texana|Angelica lucida|Annella reticulata|Annona ambotay|Aplysia parvula|Araliopsis soyauxii|Arctostaphylos sp.|Argania spinosa|Artemisia klotzchiana|Arum alpinum|Aspergillus panamensis|Astilbe thunbergii|Astraeus pteridis|Astragalus cibarius|Atraphaxis frutescens|Austrocedrus chilensis|Baeckea frutescens|Bauhinia glauca|Berchemia floribunda|Berchemia racemosa|Betula oycoviensis|Betula pendula|Betula schmidtii|Betula sp.|Bitis gabonica|Boronia pinnata|Brevibacterium linens|Bridelia ferruginea|Bunias orientalis|Burkholderia gladioli|Caesalpinia Pulcherrima|Camellia crassicolumna|Camellia crassicolumna var. multiplex|Capnoides sempervirens|Carica pennata|Castanea sp.|Castanea vesca|Castanopsis fissa|Catha edulis|Catunaregam spinosa|Celaenodendron mexicanum|Centaurea linifolia|Cheniella glauca|Choerospondias axillaris|Chondropetalum|Chromodoris lochi|Chrysophyllum cainito|Chrysophyllum marginatum|Cistus laurifolius|Cladosiphon decipiens|Clausena anisata|Clausena dunniana|Cleistanthus indochinensis|Cneoridium dumosum|Corylus avellana|Corylus sp.|Cotula cinerea|Cryptocarya alba|Cryptotaenia japonica|Cuphea hyssopifolia|Cupressus sempervirens|Curvularia coicis|Cyrtomium falcatum|Daphniphyllum paxianum|Dermocybe canaria|Desmanthus illinoensis|Dianthus caryophyllus|Dichrostachys cinerea|Diospyros glaucifolia|Diospyros japonica|Diploknema butyracea|Diplusodon astictus|Diplusodon speciosus|Drosera adelae|Elegia deusta|Elymus repens|Ephedra equisetina|Epilobium alpinum|Epilobium dodonaei|Epilobium hirsutum|Epilobium hybridum|Epilobium montanum|Epilobium parviflorum|Epilobium roseum|Epilobium sp.|Epilobium tetragonum|Eria pubescens|Eriogonum umbellatum|Eugenia myrcianthes|Eugenia selloi|Eugenia sp.|Eugenia uniflora|Euphorbia hirta|Euphorbia lunulata|Euphorbia petiolata|Euphorbia sp.|Euphorbiaceae|Euxylophora paraensis|Fagopyrum megacarpum|Flemingia faginea|Flemingia stricta|Gardenia turgida|Globularia davisiana|Glochidion sphaerogynum|Goniothalamus amuyon|Guiera senegalensis|Haloxylon recurvum|Hamamelis sp.|Heliotropium ternatum|Hippocratea excelsa|Holomelina lamae|Hylotelephium telephium|Hymenoxys insignis|Hypericum aucheri|Hypericum scabrum|Ilex lepta|Inula salicifolia|Juglans mandshurica|Juglans sp.|Juniperus phoenicea|Kalanchoe pinnata|Lannea alata|Leandra subseriata|Leea Thorelii|Leea thorelii|Lens culinaris|Lespedeza bicolor|Libocedrus plumosa|Licania heteromorpha|Limonium aureum|Limonium axillare|Limonium caspium|Limonium gmelini|Limonium gmelinii|Limonium popovii|Limonium sinense|Liquidambar sp.|Litsea triflora|Loropetalum chinense|Lotus dorycnium|Lotus herbaceus|Lysimachia christinae|Lysimachia congestiflora|Lysimachia nummularia|Machilus macrantha|Macrothele gigas|Maesa lanceolata|Manilkara Zapota|Manilkara zapota|Marine actinobacterium|Melaleuca quinquenervia|Micarea austroternaria|Miconia cabucu|Microtropis fokienensis|Mimusops caffra|Moquilea pyrifolia|Morella esculenta|Morella nana|Morella rubra|Morus alba|Myrcia multiflora|Myrcia neoglabra|Myrcia splendens|Myrica cerifera|Myrica rubra|Myrocarpus frondosus|Myrsine africana|Myrsine seguinii|Myrtus sp.|Nerine bowdenii|Norantea guianensis|Nymphaea caerulea|Nymphaea lotus|Nymphaea nouchali var. caerulea|Nymphaea odorata|Oenothera deserticola|Oenothera glaucifolia|Oenothera howardii|Oenothera kunthiana|Oenothera multicaulis|Oenothera rosea|Oenothera speciosa|Oenothera tetraptera|Ononis sp.|Oophaga pumilio|Oscillochloris trichoides|Parinari capensis|Parinari congolana|Parinari curatellifolia|Penicillium herquei|Persicaria orientalis|Persicaria pubescens|Persicaria senticosa|Petiveria alliacea|Phedimus aizoon|Phedimus kamtschaticus|Phedimus selskanianus|Phedimus selskianus|Phyllanthus Emblica|Phyllanthus emblica|Phyllanthus tenellus|Phyllanthus virgatus|Pinguicula vulgaris|Piptocarpha oblonga|Pistacia Weinmannifolia|Pistacia lentiscus|Pistacia weinmannifolia|Platycarya strobilacea|Platycladus orientalis|Plinia cauliflora|Plinia pennata|Polygonum aviculare|Polygonum senticosum|Pongamiopsis pervilleana|Potentilla anserina|Pseudodistoma arborescens|Psoroma pallidum|Ranunculus fluitans|Rhododendron dahuricum|Rhododendron ellipticum|Rhododendron farrerae|Rhododendron latoucheae|Rhododendron luteum|Rhododendron simsii|Rhoiptelea chiliantha|Rhus chinensis|Rhus sp.|Ribes alpinum|Rodgersia podophylla|Rubus|Sageretia thea|Sargassum muticum|Saxifraga cernua|Schnella microstachya|Schotia brachypetala|Sclerocarya birrea|Searsia thyrsiflora|Sedum crassularia|Sedum montanum|Sedum sediforme|Senecio carthamoides|Serratula inermis|Sesbania bispinosa|Solidago serotina|Sorbaria sorbifolia|Stachys cinerea|Stachys germanica|Stereospermum cylindricum|Streptomyces sparsogenes|Streptomyces thermoviolaceus|Strophanthus kombe|Syzygium aqueum|Syzygium corynocarpum|Syzygium cumini|Syzygium levinei|Syzygium malaccense|Syzygium samarangense|Tarenaya spinosa|Tetraclinis articulata|Thymus vulgaris|Toxicodendron succedaneum|Trichosanthes rosthornii|Tridachia crispata|Trididemnum cyclops|Uvaria griffithii|Vaccinium corymbosum|Veratrum dahuricum|Vernonia menthaefolia|Veronica arvensis|Vitellaria paradoxa|Vitis aestivalis|Vitis vinifera|Warburgia stuhlmannii|Xanthoceras sorbifolia Bunge|Xylaria cubensis|Xylonagra arborea|Zanthoxylum fagara|Zephyranthes sulphurea|common myrtle

>  <collections>  (260) 
ANPDB|AnalytiCon Discovery NPs|Australian natural products|CMAUP (cCollective molecular activities of useful plants)|ChEBI NPs|ChemSpider NPs|GNPS (Global Natural Products Social Molecular Networking)|HIT (Herbal Ingredients Targets)|Latin America dataset|NANPDB (Natural Products from Northern African Sources)|NPASS|NPDBEjeCol|NuBBEDB|Phenol-explorer|Phyto4Health|PhytoLab phyproof® Reference Substances|SANCDB|Super Natural II|TCMDB-Taiwan (Traditional Chinese Medicine database)|TIPdb (database of Taiwan indigenous plants)|VietHerb|WikiData Natural Products|ZINC NP

>  <dois>  (260) 
10.1002/(SICI)1099-1573(199605)10:3<260::AID-PTR811>3.0.CO;2-B|10.1002/1521-4184(20008)333:8<275::AID-ARDP275>3.0.CO;2-4|10.1002/CHIN.200117207|10.1002/HLCA.200390259|10.1002/J.1537-2197.1988.TB13465.X|10.1002/JCCS.200900146|10.1002/JSFA.1885|10.1002/PCA.627|10.1007/0-387-28822-8_8|10.1007/BF00563640|10.1007/BF00564127|10.1007/BF00567044|10.1007/BF00568461|10.1007/BF00598319|10.1007/BF00598599|10.1007/BF00683855|10.1007/BF01374035|10.1007/BF02275745|10.1007/BF02467181|10.1007/BF02976598|10.1007/S00217-002-0603-1|10.1007/S10600-005-0012-3|10.1007/S10600-005-0148-1|10.1007/S10600-006-0089-3|10.1007/S11418-007-0170-7|10.1007/S11418-009-0382-0|10.1016/0031-6865(96)00009-X|10.1016/0031-9422(73)85143-X|10.1016/0031-9422(74)85149-6|10.1016/0031-9422(83)80111-3|10.1016/0031-9422(83)80112-5|10.1016/0031-9422(83)83073-8|10.1016/0031-9422(90)80155-A|10.1016/0031-9422(90)85105-O|10.1016/0031-9422(92)83304-H|10.1016/0031-9422(93)85102-W|10.1016/0031-9422(93)85416-O|10.1016/0031-9422(94)00905-9|10.1016/0031-9422(95)00603-6|10.1016/0305-1978(84)90068-1|10.1016/0305-1978(85)90089-4|10.1016/0305-1978(91)90116-H|10.1016/0305-1978(94)90094-9|10.1016/0305-1978(94)90120-1|10.1016/0378-8741(87)90128-0|10.1016/J.BMCL.2015.05.089|10.1016/J.FITOTE.2004.01.011|10.1016/J.FITOTE.2009.08.021|10.1016/J.FITOTE.2009.09.013|10.1016/J.FOODCHEM.2005.11.053|10.1016/J.FOODCHEM.2012.08.056|10.1016/J.JEP.2018.11.034|10.1016/J.PHYTOCHEM.2007.04.020|10.1016/J.PHYTOCHEM.2008.04.009|10.1016/J.PHYTOCHEM.2011.02.020|10.1016/J.PHYTOCHEM.2011.07.007|10.1016/S0021-9673(01)87147-8|10.1016/S0021-9673(97)00900-X|10.1016/S0031-9422(00)82558-3|10.1016/S0031-9422(00)83536-0|10.1016/S0031-9422(00)85693-9|10.1016/S0031-9422(00)90500-4|10.1016/S0031-9422(00)95107-0|10.1016/S0031-9422(00)97163-2|10.1016/S0031-9422(01)00365-X|10.1016/S0031-9422(03)00105-5|10.1016/S0031-9422(03)00238-3|10.1016/S0031-9422(03)00374-1|10.1016/S0031-9422(03)00437-0|10.1016/S0031-9422(96)00329-9|10.1016/S0031-9422(96)00702-9|10.1016/S0031-9422(97)00366-X|10.1016/S0031-9422(97)00370-1|10.1016/S0031-9422(97)01025-X|10.1016/S0031-9422(98)00512-3|10.1016/S0031-9422(99)00049-7|10.1016/S0305-1978(00)00089-2|10.1016/S0305-1978(98)00108-2|10.1016/S0367-326X(02)00009-6|10.1016/j.bmcl.2016.08.094|10.1016/j.foodchem.2012.08.056|10.1016/j.jep.2018.11.034|10.1016/j.phytochem.2007.03.010|10.1016/j.phytochem.2015.08.017|10.1016/j.phytol.2013.06.003|10.1016/s0031-9422(99)00049-7|10.1021/JF011178N|10.1021/JF030374M|10.1021/JF802974M|10.1021/NP020576X|10.1021/NP040024+|10.1021/NP0600999|10.1021/NP078007I|10.1021/NP100572Z|10.1021/NP50025A011|10.1021/NP50043A032|10.1021/NP900095Z|10.1021/NP970336V|10.1021/NP970428K|10.1021/acs.jnatprod.6b00703|10.1021/acs.jnatprod.6b00720|10.1021/acs.jnatprod.7b00564|10.1021/np100572z|10.1055/S-0028-1097748|10.1055/S-0033-1350808|10.1055/S-2000-8540|10.1055/S-2000-8547|10.1055/S-2000-8633|10.1055/S-2001-15813|10.1055/S-2004-827163|10.1055/S-2004-835859|10.1055/S-2006-931559|10.1055/S-2006-957506|10.1055/S-2006-958146|10.1055/S-2006-959773|10.1055/S-2006-960977|10.1055/S-2006-960996|10.1055/S-2007-969483|10.1076/PHBI.37.1.28.6327|10.1080/12538078.2000.10515843|10.1080/13880200701214748|10.1080/14786410802214009|10.1080/14786411003774320|10.1080/14786419.2014.987144|10.1080/14786419.2017.1402320|10.1089/JMF.2007.571|10.1246/NIKKASHI.1987.1853|10.1248/BPB.18.1148|10.1248/BPB.24.259|10.1248/BPB.26.1042|10.1248/CPB.14.877|10.1248/CPB.36.2940|10.1248/CPB.45.1915|10.1248/CPB.46.1051|10.1248/CPB.46.113|10.1248/CPB.48.194|10.1248/CPB.49.768|10.1248/CPB.50.208|10.1248/CPB.50.841|10.1248/CPB.54.136|10.1248/CPB.58.1408|10.1248/CPB.59.1274|10.1248/YAKUSHI1947.107.12_1001|10.1248/YAKUSHI1947.110.5_354|10.1515/ZNC-1991-1-207|10.1515/ZNC-2001-11-1204|10.1590/S0100-40422006000300016|10.1590/S0100-40422012001100004|10.2307/2806097|10.2307/3754908|10.3184/030823409X447754|10.3390/MOLECULES14041456|10.3390/MOLECULES16108305|10.3797/SCIPHARM.1410-10|10.3987/COM-03-9882|10.5586/ASBP.1982.038|10.5586/ASBP.1991.010

>  <synonyms>  (260) 
nan

>  <cas>  (260) 
17912-87-7

$$$$

     RDKit          2D

 21 21  0  0  0  0  0  0  0  0999 V2000
  -10.7803    0.9865    0.0000 C   0  0  0  0  0  0  0  0  0  0  0  0
   -9.5522    0.1253    0.0000 C   0  0  0  0  0  0  0  0  0  0  0  0
   -9.6840   -1.3689    0.0000 O   0  0  0  0  0  0  0  0  0  0  0  0
   -8.1923    0.7583    0.0000 C   0  0  0  0  0  0  0  0  0  0  0  0
   -6.9642   -0.1029    0.0000 C   0  0  0  0  0  0  0  0  0  0  0  0
   -5.6043    0.5301    0.0000 C   0  0  0  0  0  0  0  0  0  0  0  0
   -4.3761   -0.3311    0.0000 C   0  0  0  0  0  0  0  0  0  0  0  0
   -3.0162    0.3018    0.0000 C   0  0  0  0  0  0  0  0  0  0  0  0
   -1.7881   -0.5594    0.0000 C   0  0  0  0  0  0  0  0  0  0  0  0
   -0.4282    0.0736    0.0000 C   0  0  0  0  0  0  0  0  0  0  0  0
    0.7999   -0.7876    0.0000 C   0  0  0  0  0  0  0  0  0  0  0  0
    2.1598   -0.1546    0.0000 C   0  0  0  0  0  0  0  0  0  0  0  0
    3.3880   -1.0158    0.0000 C   0  0  0  0  0  0  0  0  0  0  0  0
    4.7479   -0.3829    0.0000 C   0  0  0  0  0  0  0  0  0  0  0  0
    4.8796    1.1113    0.0000 C   0  0  0  0  0  0  0  0  0  0  0  0
    6.2395    1.7443    0.0000 C   0  0  0  0  0  0  0  0  0  0  0  0
    7.4677    0.8831    0.0000 C   0  0  0  0  0  0  0  0  0  0  0  0
    8.8276    1.5161    0.0000 O   0  0  0  0  0  0  0  0  0  0  0  0
    7.3359   -0.6111    0.0000 C   0  0  0  0  0  0  0  0  0  0  0  0
    8.5640   -1.4723    0.0000 C   0  0  0  0  0  0  0  0  0  0  0  0
    5.9760   -1.2441    0.0000 N   0  0  0  0  0  0  0  0  0  0  0  0
  1  2  1  0
  2  3  1  0
  2  4  1  0
  4  5  1  0
  5  6  1  0
  6  7  1  0
  7  8  1  0
  8  9  1  0
  9 10  1  0
 10 11  1  0
 11 12  1  0
 12 13  1  0
 14 13  1  1
 14 15  1  0
 15 16  1  0
 16 17  1  0
 17 18  1  1
 17 19  1  0
 19 20  1  1
 19 21  1  0
 21 14  1  0
M  END
>  <identifier>  (261) 
CNP0259507.2

>  <canonical_smiles>  (261) 
CC(O)CCCCCCCCCC[C@H]1CC[C@@H](O)[C@@H](C)N1

>  <standard_inchi>  (261) 
InChI=1S/C18H37NO2/c1-15(20)11-9-7-5-3-4-6-8-10-12-17-13-14-18(21)16(2)19-17/h15-21H,3-14H2,1-2H3/t15?,16-,17+,18-/m1/s1

>  <standard_inchi_key>  (261) 
LWYXLXAMDLNBFQ-HQSKLWIPSA-N

>  <name>  (261) 
(2R,3R,6S)-6-(11-hydroxydodecyl)-2-methylpiperidin-3-ol

>  <iupac_name>  (261) 
(2~{R},3~{R},6~{S})-6-(11-hydroxydodecyl)-2-methyl-piperidin-3-ol

>  <annotation_level>  (261) 
5

>  <total_atom_count>  (261) 
58

>  <heavy_atom_count>  (261) 
21

>  <molecular_weight>  (261) 
299.5

>  <exact_molecular_weight>  (261) 
299.28243

>  <molecular_formula>  (261) 
C18H37NO2

>  <alogp>  (261) 
3.77

>  <topological_polar_surface_area>  (261) 
52.49

>  <rotatable_bond_count>  (261) 
11

>  <hydrogen_bond_acceptors>  (261) 
3

>  <hydrogen_bond_donors>  (261) 
3

>  <hydrogen_bond_acceptors_lipinski>  (261) 
3

>  <hydrogen_bond_donors_lipinski>  (261) 
3

>  <lipinski_rule_of_five_violations>  (261) 
0

>  <aromatic_rings_count>  (261) 
0

>  <qed_drug_likeliness>  (261) 
0.51

>  <formal_charge>  (261) 
0

>  <fractioncsp3>  (261) 
1.00

>  <number_of_minimal_rings>  (261) 
1

>  <van_der_walls_volume>  (261) 
nan

>  <contains_sugar>  (261) 
False

>  <contains_ring_sugars>  (261) 
False

>  <contains_linear_sugars>  (261) 
False

>  <murcko_framework>  (261) 
N1CCCCC1

>  <np_likeness>  (261) 
2.17

>  <chemical_class>  (261) 
nan

>  <chemical_sub_class>  (261) 
Alkaloids and derivatives

>  <chemical_super_class>  (261) 
Alkaloids and derivatives

>  <direct_parent_classification>  (261) 
Alkaloids and derivatives

>  <np_classifier_pathway>  (261) 
Alkaloids

>  <np_classifier_superclass>  (261) 
Lysine alkaloids

>  <np_classifier_class>  (261) 
Piperidine alkaloids

>  <np_classifier_is_glycoside>  (261) 
False

>  <organisms>  (261) 
Cassia leptophylla

>  <collections>  (261) 
Latin America dataset|NuBBEDB

>  <dois>  (261) 
10.1016/0040-4020(95)00254-6

>  <synonyms>  (261) 
Canavaline|SCHEMBL4050193

>  <cas>  (261) 
nan

$$$$

     RDKit          2D

 37 41  0  0  0  0  0  0  0  0999 V2000
   -6.4500   -2.8944    0.0000 C   0  0  0  0  0  0  0  0  0  0  0  0
   -5.6392   -1.6324    0.0000 C   0  0  0  0  0  0  0  0  0  0  0  0
   -6.3267   -0.2992    0.0000 C   0  0  0  0  0  0  0  0  0  0  0  0
   -5.5159    0.9628    0.0000 C   0  0  0  0  0  0  0  0  0  0  0  0
   -4.0176    0.8916    0.0000 C   0  0  0  0  0  0  0  0  0  0  0  0
   -4.7051    2.2248    0.0000 C   0  0  0  0  0  0  0  0  0  0  0  0
   -6.2034    2.2959    0.0000 O   0  0  0  0  0  0  0  0  0  0  0  0
   -3.8943    3.4867    0.0000 O   0  0  0  0  0  0  0  0  0  0  0  0
   -3.2068    2.1536    0.0000 C   0  0  0  0  0  0  0  0  0  0  0  0
   -1.7085    2.0824    0.0000 C   0  0  0  0  0  0  0  0  0  0  0  0
   -1.0210    0.7492    0.0000 C   0  0  0  0  0  0  0  0  0  0  0  0
   -0.3334   -0.5839    0.0000 C   0  0  0  0  0  0  0  0  0  0  0  0
   -1.8318   -0.5128    0.0000 C   0  0  0  0  0  0  0  0  0  0  0  0
   -1.1442   -1.8459    0.0000 C   0  0  0  0  0  0  0  0  0  0  0  0
    0.3541   -1.9171    0.0000 C   0  0  0  0  0  0  0  0  0  0  0  0
    1.1649   -0.6551    0.0000 C   0  0  0  0  0  0  0  0  0  0  0  0
    2.6632   -0.7263    0.0000 C   0  0  0  0  0  0  0  0  0  0  0  0
    1.8524   -1.9883    0.0000 C   0  0  0  0  0  0  0  0  0  0  0  0
    3.3507   -2.0595    0.0000 C   0  0  0  0  0  0  0  0  0  0  0  0
    4.8490   -2.1307    0.0000 C   0  0  0  0  0  0  0  0  0  0  0  0
    5.5365   -3.4638    0.0000 O   0  0  0  0  0  0  0  0  0  0  0  0
    5.6598   -0.8687    0.0000 C   0  0  0  0  0  0  0  0  0  0  0  0
    7.1581   -0.9399    0.0000 O   0  0  0  0  0  0  0  0  0  0  0  0
    4.9723    0.4645    0.0000 C   0  0  0  0  0  0  0  0  0  0  0  0
    4.7822    1.9524    0.0000 C   0  0  0  0  0  0  0  0  0  0  0  0
    3.3986    2.5317    0.0000 O   0  0  0  0  0  0  0  0  0  0  0  0
    6.4046    0.9101    0.0000 C   0  0  0  0  0  0  0  0  0  0  0  0
    6.7349    2.3732    0.0000 O   0  0  0  0  0  0  0  0  0  0  0  0
    3.4740    0.5357    0.0000 C   0  0  0  0  0  0  0  0  0  0  0  0
    2.7865    1.8688    0.0000 C   0  0  0  0  0  0  0  0  0  0  0  0
    1.2882    1.9400    0.0000 C   0  0  0  0  0  0  0  0  0  0  0  0
    0.4774    0.6780    0.0000 C   0  0  0  0  0  0  0  0  0  0  0  0
   -0.2102    2.0112    0.0000 C   0  0  0  0  0  0  0  0  0  0  0  0
   -3.3301   -0.4416    0.0000 C   0  0  0  0  0  0  0  0  0  0  0  0
   -4.1409   -1.7036    0.0000 C   0  0  0  0  0  0  0  0  0  0  0  0
   -2.7573   -2.2829    0.0000 C   0  0  0  0  0  0  0  0  0  0  0  0
   -4.4711   -3.1668    0.0000 O   0  0  0  0  0  0  0  0  0  0  0  0
  2  1  1  6
  2  3  1  0
  3  4  1  0
  4  5  1  0
  5  6  1  1
  6  7  2  0
  6  8  1  0
  5  9  1  0
  9 10  1  0
 10 11  1  0
 11 12  1  6
 11 13  1  0
 13 14  2  0
 14 15  1  0
 16 15  1  1
 16 17  1  0
 17 18  1  1
 17 19  1  0
 19 20  1  0
 20 21  1  6
 20 22  1  0
 22 23  1  1
 22 24  1  0
 24 25  1  0
 25 26  1  0
 24 27  1  0
 27 28  1  0
 24 29  1  0
 29 30  1  1
 30 31  1  0
 31 32  1  0
 32 33  1  1
 34 13  1  6
 34 35  1  0
 35 36  1  1
 35 37  1  0
 35  2  1  0
 34  5  1  0
 32 11  1  0
 32 16  1  0
 29 17  1  0
M  END
>  <identifier>  (262) 
CNP0230324.1

>  <canonical_smiles>  (262) 
C[C@@H]1CC[C@]2(C(=O)O)CC[C@]3(C)C(=CC[C@@H]4[C@@]5(C)C[C@@H](O)[C@H](O)C(CO)(CO)[C@@H]5CC[C@]43C)[C@@H]2[C@]1(C)O

>  <standard_inchi>  (262) 
InChI=1S/C30H48O7/c1-17-8-11-29(24(35)36)13-12-26(3)18(22(29)28(17,5)37)6-7-20-25(2)14-19(33)23(34)30(15-31,16-32)21(25)9-10-27(20,26)4/h6,17,19-23,31-34,37H,7-16H2,1-5H3,(H,35,36)/t17-,19-,20-,21-,22-,23+,25-,26-,27-,28-,29+/m1/s1

>  <standard_inchi_key>  (262) 
RIFJXBJHRYLRKR-YTOUHQNPSA-N

>  <name>  (262) 
trachelosperogenin B

>  <iupac_name>  (262) 
(1~{R},2~{R},4~{a}~{S},6~{a}~{R},6~{a}~{S},6~{b}~{R},8~{a}~{R},10~{R},11~{R},12~{a}~{R},14~{b}~{S})-1,10,11-trihydroxy-9,9-bis(hydroxymethyl)-1,2,6~{a},6~{b},12~{a}-pentamethyl-2,3,4,5,6,6~{a},7,8,8~{a},10,11,12,13,14~{b}-tetradecahydropicene-4~{a}-carboxylic acid

>  <annotation_level>  (262) 
5

>  <total_atom_count>  (262) 
85

>  <heavy_atom_count>  (262) 
37

>  <molecular_weight>  (262) 
520.71

>  <exact_molecular_weight>  (262) 
520.34

>  <molecular_formula>  (262) 
C30H48O7

>  <alogp>  (262) 
3.12

>  <topological_polar_surface_area>  (262) 
138.45

>  <rotatable_bond_count>  (262) 
3

>  <hydrogen_bond_acceptors>  (262) 
6

>  <hydrogen_bond_donors>  (262) 
6

>  <hydrogen_bond_acceptors_lipinski>  (262) 
6

>  <hydrogen_bond_donors_lipinski>  (262) 
6

>  <lipinski_rule_of_five_violations>  (262) 
2

>  <aromatic_rings_count>  (262) 
0

>  <qed_drug_likeliness>  (262) 
0.31

>  <formal_charge>  (262) 
0

>  <fractioncsp3>  (262) 
0.90

>  <number_of_minimal_rings>  (262) 
5

>  <van_der_walls_volume>  (262) 
490.43

>  <contains_sugar>  (262) 
False

>  <contains_ring_sugars>  (262) 
False

>  <contains_linear_sugars>  (262) 
False

>  <murcko_framework>  (262) 
C1=C2C3CCCCC3CCC2C4CCC5CCCCC5C4C1

>  <np_likeness>  (262) 
3.27

>  <chemical_class>  (262) 
Steroids and steroid derivatives

>  <chemical_sub_class>  (262) 
Hydroxysteroids

>  <chemical_super_class>  (262) 
Lipids and lipid-like molecules

>  <direct_parent_classification>  (262) 
Hydroxysteroids

>  <np_classifier_pathway>  (262) 
Terpenoids

>  <np_classifier_superclass>  (262) 
Triterpenoids

>  <np_classifier_class>  (262) 
Ursane and Taraxastane triterpenoids

>  <np_classifier_is_glycoside>  (262) 
False

>  <organisms>  (262) 
Rubus acuminatus|Rudgea viburnioides|Rudgea viburnoides

>  <collections>  (262) 
ChEBI NPs|ChemSpider NPs|Latin America dataset|NPASS|NuBBEDB|Super Natural II|WikiData Natural Products

>  <dois>  (262) 
10.1016/0031-9422(92)83747-M|10.1021/NP9704617|10.1021/np9704617

>  <synonyms>  (262) 
(1R,2R,4aS,6aR,6aS,6bR,8aR,10R,11R,12aR,14bS)-1,10,11-trihydroxy-9,9-bis(hydroxymethyl)-1,2,6a,6b,12a-pentamethyl-2,3,4,5,6,6a,7,8,8a,10,11,12,13,14b-tetradecahydropicene-4a-carboxylic acid|2alpha,3beta,19,23,24-pentahydroxyurs-12-en-28-oic acid|CHEBI:132819|InChI=1\/C30H48O7\/c1-17-8-11-29(24(35)36)13-12-26(3)18(22(29)28(17,5)37)6-7-20-25(2)14-19(33)23(34)30(15-31,16-32)21(25)9-10-27(20,26)4\/h6,17,19-23,31-34,37H,7-16H2,1-5H3,(H,35,36)\/t17-,19-,20-,21-,22-,23+,25-,26-,27-,28-,29+\/m1\/s1|RIFJXBJHRYLRKR-YTOUHQNPSA-|Trachelosperogenin B

>  <cas>  (262) 
nan

$$$$

     RDKit          2D

 30 34  0  0  0  0  0  0  0  0999 V2000
   -4.8450   -1.9475    0.0000 C   0  0  0  0  0  0  0  0  0  0  0  0
   -4.9795   -0.4535    0.0000 C   0  0  0  0  0  0  0  0  0  0  0  0
   -6.4274   -0.8454    0.0000 C   0  0  0  0  0  0  0  0  0  0  0  0
   -5.6168    0.9044    0.0000 C   0  0  0  0  0  0  0  0  0  0  0  0
   -7.1114    1.0313    0.0000 O   0  0  0  0  0  0  0  0  0  0  0  0
   -4.7595    2.1352    0.0000 C   0  0  0  0  0  0  0  0  0  0  0  0
   -3.2649    2.0083    0.0000 C   0  0  0  0  0  0  0  0  0  0  0  0
   -2.6276    0.6504    0.0000 C   0  0  0  0  0  0  0  0  0  0  0  0
   -1.7703    1.8813    0.0000 C   0  0  0  0  0  0  0  0  0  0  0  0
   -1.1330    0.5234    0.0000 C   0  0  0  0  0  0  0  0  0  0  0  0
   -0.2757    1.7543    0.0000 C   0  0  0  0  0  0  0  0  0  0  0  0
    1.2189    1.6273    0.0000 C   0  0  0  0  0  0  0  0  0  0  0  0
    1.8563    0.2694    0.0000 C   0  0  0  0  0  0  0  0  0  0  0  0
    3.2918   -0.1655    0.0000 C   0  0  0  0  0  0  0  0  0  0  0  0
    4.4875    0.7402    0.0000 C   0  0  0  0  0  0  0  0  0  0  0  0
    3.4618    1.8347    0.0000 C   0  0  0  0  0  0  0  0  0  0  0  0
    5.4687    1.8747    0.0000 C   0  0  0  0  0  0  0  0  0  0  0  0
    6.8510    1.2921    0.0000 C   0  0  0  0  0  0  0  0  0  0  0  0
    6.7240   -0.2025    0.0000 C   0  0  0  0  0  0  0  0  0  0  0  0
    7.8585   -1.1838    0.0000 O   0  0  0  0  0  0  0  0  0  0  0  0
    5.2633   -0.5436    0.0000 O   0  0  0  0  0  0  0  0  0  0  0  0
    3.3218   -1.6652    0.0000 C   0  0  0  0  0  0  0  0  0  0  0  0
    1.9047   -2.1571    0.0000 C   0  0  0  0  0  0  0  0  0  0  0  0
    0.9990   -0.9615    0.0000 C   0  0  0  0  0  0  0  0  0  0  0  0
    0.2751   -2.2752    0.0000 C   0  0  0  0  0  0  0  0  0  0  0  0
   -0.4956   -0.8345    0.0000 C   0  0  0  0  0  0  0  0  0  0  0  0
   -1.9902   -0.7075    0.0000 C   0  0  0  0  0  0  0  0  0  0  0  0
   -1.3529   -2.0653    0.0000 C   0  0  0  0  0  0  0  0  0  0  0  0
   -2.8475   -1.9384    0.0000 C   0  0  0  0  0  0  0  0  0  0  0  0
   -3.4849   -0.5805    0.0000 C   0  0  0  0  0  0  0  0  0  0  0  0
  1  2  1  0
  2  3  1  0
  2  4  1  0
  4  5  1  1
  4  6  1  0
  6  7  1  0
  7  8  1  0
  8  9  1  1
  8 10  1  0
 10 11  1  1
 11 12  1  0
 13 12  1  6
 13 14  1  0
 14 15  1  0
 15 16  1  1
 15 17  1  0
 17 18  1  0
 18 19  1  0
 19 20  2  0
 19 21  1  0
 14 22  1  1
 22 23  1  0
 23 24  1  0
 24 25  1  6
 24 26  1  0
 26 27  1  1
 26 28  1  0
 28 29  1  0
 30 29  1  1
 30  2  1  0
 30  8  1  0
 26 10  1  0
 24 13  1  0
 21 15  1  0
M  END
>  <identifier>  (263) 
CNP0285836.2

>  <canonical_smiles>  (263) 
CC1(C)[C@@H](O)CC[C@]2(C)[C@H]3CC[C@@H]4[C@@H]([C@]5(C)CCC(=O)O5)CC[C@@]4(C)[C@]3(C)CC[C@@H]12

>  <standard_inchi>  (263) 
InChI=1S/C27H44O3/c1-23(2)19-10-15-26(5)20(24(19,3)13-11-21(23)28)8-7-17-18(9-14-25(17,26)4)27(6)16-12-22(29)30-27/h17-21,28H,7-16H2,1-6H3/t17-,18+,19+,20-,21+,24+,25-,26-,27+/m1/s1

>  <standard_inchi_key>  (263) 
AHDUWGQSZYSNEY-BWNRNTQFSA-N

>  <name>  (263) 
3-Epicabraleahydroxylactone

>  <iupac_name>  (263) 
(5~{S})-5-[(3~{S},5~{R},8~{R},9~{R},10~{R},13~{R},14~{R},17~{S})-3-hydroxy-4,4,8,10,14-pentamethyl-2,3,5,6,7,9,11,12,13,15,16,17-dodecahydro-1~{H}-cyclopenta[a]phenanthren-17-yl]-5-methyl-tetrahydrofuran-2-one

>  <annotation_level>  (263) 
5

>  <total_atom_count>  (263) 
74

>  <heavy_atom_count>  (263) 
30

>  <molecular_weight>  (263) 
416.65

>  <exact_molecular_weight>  (263) 
416.32905

>  <molecular_formula>  (263) 
C27H44O3

>  <alogp>  (263) 
6.13

>  <topological_polar_surface_area>  (263) 
46.53

>  <rotatable_bond_count>  (263) 
1

>  <hydrogen_bond_acceptors>  (263) 
3

>  <hydrogen_bond_donors>  (263) 
1

>  <hydrogen_bond_acceptors_lipinski>  (263) 
3

>  <hydrogen_bond_donors_lipinski>  (263) 
1

>  <lipinski_rule_of_five_violations>  (263) 
1

>  <aromatic_rings_count>  (263) 
0

>  <qed_drug_likeliness>  (263) 
0.52

>  <formal_charge>  (263) 
0

>  <fractioncsp3>  (263) 
0.96

>  <number_of_minimal_rings>  (263) 
5

>  <van_der_walls_volume>  (263) 
nan

>  <contains_sugar>  (263) 
False

>  <contains_ring_sugars>  (263) 
False

>  <contains_linear_sugars>  (263) 
False

>  <murcko_framework>  (263) 
O1CCCC1C2CCC3C2CCC4C5CCCCC5CCC43

>  <np_likeness>  (263) 
2.88

>  <chemical_class>  (263) 
Steroids and steroid derivatives

>  <chemical_sub_class>  (263) 
Hydroxysteroids

>  <chemical_super_class>  (263) 
Lipids and lipid-like molecules

>  <direct_parent_classification>  (263) 
3-hydroxysteroids

>  <np_classifier_pathway>  (263) 
Terpenoids

>  <np_classifier_superclass>  (263) 
Triterpenoids

>  <np_classifier_class>  (263) 
Dammarane and Protostane triterpenoids

>  <np_classifier_is_glycoside>  (263) 
False

>  <organisms>  (263) 
Cabralea polytricha|Camellia japonica

>  <collections>  (263) 
Latin America dataset|NuBBEDB|Super Natural II|WikiData Natural Products

>  <dois>  (263) 
10.1016/0040-4020(72)80138-8|10.1248/CPB.52.153

>  <synonyms>  (263) 
(5S)-5-[(3S,5R,8R,9R,10R,13R,14R,17S)-3-hydroxy-4,4,8,10,14-pentamethyl-2,3,5,6,7,9,11,12,13,15,16,17-dodecahydro-1H-cyclopenta[a]phenanthren-17-yl]-5-methyloxolan-2-one|3-epi-Cabraleahydroxylactone|35833-72-8|AKOS032962406|CS-0017676|Cabraleahydroxylactone|FS-9799|HY-N1822

>  <cas>  (263) 
35833-72-8

$$$$

     RDKit          2D

 34 38  0  0  0  0  0  0  0  0999 V2000
    3.3195   -3.2341    0.0000 C   0  0  0  0  0  0  0  0  0  0  0  0
    4.7516   -2.7878    0.0000 C   0  0  0  0  0  0  0  0  0  0  0  0
    5.8542   -3.8048    0.0000 C   0  0  0  0  0  0  0  0  0  0  0  0
    5.0811   -1.3244    0.0000 C   0  0  0  0  0  0  0  0  0  0  0  0
    6.4586   -0.7308    0.0000 C   0  0  0  0  0  0  0  0  0  0  0  0
    6.3197    0.7628    0.0000 C   0  0  0  0  0  0  0  0  0  0  0  0
    4.8564    1.0922    0.0000 C   0  0  0  0  0  0  0  0  0  0  0  0
    5.7526    2.2951    0.0000 C   0  0  0  0  0  0  0  0  0  0  0  0
    4.1220    2.4002    0.0000 C   0  0  0  0  0  0  0  0  0  0  0  0
    2.6221    2.4182    0.0000 C   0  0  0  0  0  0  0  0  0  0  0  0
    1.8566    1.1283    0.0000 C   0  0  0  0  0  0  0  0  0  0  0  0
    1.1223    2.4362    0.0000 C   0  0  0  0  0  0  0  0  0  0  0  0
    2.5909   -0.1797    0.0000 C   0  0  0  0  0  0  0  0  0  0  0  0
    1.8254   -1.4696    0.0000 C   0  0  0  0  0  0  0  0  0  0  0  0
    0.3255   -1.4516    0.0000 C   0  0  0  0  0  0  0  0  0  0  0  0
   -0.4088   -0.1436    0.0000 C   0  0  0  0  0  0  0  0  0  0  0  0
   -1.9087   -0.1256    0.0000 C   0  0  0  0  0  0  0  0  0  0  0  0
   -1.1744   -1.4336    0.0000 C   0  0  0  0  0  0  0  0  0  0  0  0
   -2.6743   -1.4155    0.0000 C   0  0  0  0  0  0  0  0  0  0  0  0
   -4.1742   -1.3975    0.0000 C   0  0  0  0  0  0  0  0  0  0  0  0
   -4.9085   -0.0896    0.0000 C   0  0  0  0  0  0  0  0  0  0  0  0
   -6.4084   -0.0715    0.0000 O   0  0  0  0  0  0  0  0  0  0  0  0
   -7.1740   -1.3615    0.0000 C   0  0  0  0  0  0  0  0  0  0  0  0
   -8.6739   -1.3435    0.0000 C   0  0  0  0  0  0  0  0  0  0  0  0
   -6.4396   -2.6694    0.0000 O   0  0  0  0  0  0  0  0  0  0  0  0
   -4.1430    1.2004    0.0000 C   0  0  0  0  0  0  0  0  0  0  0  0
   -3.8648    2.6743    0.0000 C   0  0  0  0  0  0  0  0  0  0  0  0
   -5.5462    1.7303    0.0000 C   0  0  0  0  0  0  0  0  0  0  0  0
   -2.6431    1.1823    0.0000 C   0  0  0  0  0  0  0  0  0  0  0  0
   -1.8775    2.4723    0.0000 C   0  0  0  0  0  0  0  0  0  0  0  0
   -0.3776    2.4543    0.0000 C   0  0  0  0  0  0  0  0  0  0  0  0
    0.3567    1.1463    0.0000 C   0  0  0  0  0  0  0  0  0  0  0  0
    1.0910   -0.1616    0.0000 C   0  0  0  0  0  0  0  0  0  0  0  0
    4.0908   -0.1977    0.0000 C   0  0  0  0  0  0  0  0  0  0  0  0
  1  2  2  0
  2  3  1  0
  4  2  1  1
  4  5  1  0
  5  6  1  0
  6  7  1  0
  7  8  1  6
  7  9  1  0
  9 10  1  0
 10 11  1  0
 11 12  1  1
 11 13  1  0
 13 14  1  1
 14 15  1  0
 16 15  1  6
 16 17  1  0
 17 18  1  6
 17 19  1  0
 19 20  1  0
 20 21  1  0
 21 22  1  0
 22 23  1  0
 23 24  1  0
 23 25  2  0
 21 26  1  0
 26 27  1  0
 26 28  1  0
 26 29  1  0
 29 30  1  6
 30 31  1  0
 31 32  1  0
 32 33  1  6
 13 34  1  0
 34  4  1  6
 34  7  1  0
 32 11  1  0
 32 16  1  0
 29 17  1  0
M  END
>  <identifier>  (264) 
CNP0212836.11

>  <canonical_smiles>  (264) 
C=C(C)[C@@H]1CC[C@]2(C)CC[C@]3(C)[C@H](CC[C@@H]4[C@@]5(C)CCC(OC(C)=O)C(C)(C)[C@@H]5CC[C@]43C)[C@@H]12

>  <standard_inchi>  (264) 
InChI=1S/C32H52O2/c1-20(2)22-12-15-29(6)18-19-31(8)23(27(22)29)10-11-25-30(7)16-14-26(34-21(3)33)28(4,5)24(30)13-17-32(25,31)9/h22-27H,1,10-19H2,2-9H3/t22-,23+,24-,25+,26?,27+,29+,30-,31+,32+/m0/s1

>  <standard_inchi_key>  (264) 
ODSSDTBFHAYYMD-KJXGCDIRSA-N

>  <name>  (264) 
[(1R,3aR,5aR,5bR,7aR,11aR,11bR,13aR,13bR)-3a,5a,5b,8,8,11a-hexamethyl-1-prop-1-en-2-yl-1,2,3,4,5,6,7,7a,9,10,11,11b,12,13,13a,13b-hexadecahydrocyclopenta[a]chrysen-9-yl] acetate

>  <iupac_name>  (264) 
[(1~{R},3~{a}~{R},5~{a}~{R},5~{b}~{R},7~{a}~{R},11~{a}~{R},11~{b}~{R},13~{a}~{R},13~{b}~{R})-1-isopropenyl-3~{a},5~{a},5~{b},8,8,11~{a}-hexamethyl-1,2,3,4,5,6,7,7~{a},9,10,11,11~{b},12,13,13~{a},13~{b}-hexadecahydrocyclopenta[a]chrysen-9-yl] acetate

>  <annotation_level>  (264) 
5

>  <total_atom_count>  (264) 
86

>  <heavy_atom_count>  (264) 
34

>  <molecular_weight>  (264) 
468.77

>  <exact_molecular_weight>  (264) 
468.39673

>  <molecular_formula>  (264) 
C32H52O2

>  <alogp>  (264) 
8.60

>  <topological_polar_surface_area>  (264) 
26.30

>  <rotatable_bond_count>  (264) 
2

>  <hydrogen_bond_acceptors>  (264) 
2

>  <hydrogen_bond_donors>  (264) 
0

>  <hydrogen_bond_acceptors_lipinski>  (264) 
2

>  <hydrogen_bond_donors_lipinski>  (264) 
0

>  <lipinski_rule_of_five_violations>  (264) 
1

>  <aromatic_rings_count>  (264) 
0

>  <qed_drug_likeliness>  (264) 
0.30

>  <formal_charge>  (264) 
0

>  <fractioncsp3>  (264) 
0.91

>  <number_of_minimal_rings>  (264) 
5

>  <van_der_walls_volume>  (264) 
nan

>  <contains_sugar>  (264) 
False

>  <contains_ring_sugars>  (264) 
False

>  <contains_linear_sugars>  (264) 
False

>  <murcko_framework>  (264) 
C1CCC2C(C1)CCC3C2CCC4C5CCCC5CCC43

>  <np_likeness>  (264) 
2.96

>  <chemical_class>  (264) 
Prenol lipids

>  <chemical_sub_class>  (264) 
Triterpenoids

>  <chemical_super_class>  (264) 
Lipids and lipid-like molecules

>  <direct_parent_classification>  (264) 
Lupane triterpenoids

>  <np_classifier_pathway>  (264) 
Terpenoids

>  <np_classifier_superclass>  (264) 
Triterpenoids

>  <np_classifier_class>  (264) 
Lupane triterpenoids

>  <np_classifier_is_glycoside>  (264) 
False

>  <organisms>  (264) 
Tabernaemontana catharinensis|Tabernaemontana heterophylla

>  <collections>  (264) 
Latin America dataset|NuBBEDB|WikiData Natural Products

>  <dois>  (264) 
10.1590/1809-43921983132409|10.1590/S0100-40421998000600005

>  <synonyms>  (264) 
(1R,3aR,5aR,5bR,7aR,11aR,11bR,13aR,13bR)-3a,5a,5b,8,8,11a-Hexamethyl-1-(prop-1-en-2-yl)icosahydro-1H-cyclopenta[a]chrysen-9-yl acetate|1617-68-1|Lup-20(29)-en-3-yl acetate|Lupeol acetate 3-O-acetyllupeol|N066-0054|SCHEMBL936137|[(1R,3As,5aR,5bR,7aS,9S,11aR,11bR,13aR,13bR)-3a,5a,5b,8,8,11a-hexamethyl-1-prop-1-en-2-yl-1,2,3,4,5,6,7,7a,9,10,11,11b,12,13,13a,13b-hexadecahydrocyclopenta[a]chrysen-9-yl] acetate

>  <cas>  (264) 
1617-68-1

$$$$

     RDKit          2D

 23 24  0  0  0  0  0  0  0  0999 V2000
    4.7307   -2.6536    0.0000 C   0  0  0  0  0  0  0  0  0  0  0  0
    5.1266   -1.2067    0.0000 C   0  0  0  0  0  0  0  0  0  0  0  0
    4.0715   -0.1405    0.0000 C   0  0  0  0  0  0  0  0  0  0  0  0
    5.3047    0.7134    0.0000 C   0  0  0  0  0  0  0  0  0  0  0  0
    3.2047   -1.3647    0.0000 C   0  0  0  0  0  0  0  0  0  0  0  0
    1.7111   -1.2262    0.0000 C   0  0  0  0  0  0  0  0  0  0  0  0
    1.0843    0.1366    0.0000 C   0  0  0  0  0  0  0  0  0  0  0  0
   -0.4093    0.2752    0.0000 C   0  0  0  0  0  0  0  0  0  0  0  0
   -0.2864   -1.2198    0.0000 C   0  0  0  0  0  0  0  0  0  0  0  0
   -0.0135    1.7220    0.0000 C   0  0  0  0  0  0  0  0  0  0  0  0
   -1.0685    2.7882    0.0000 C   0  0  0  0  0  0  0  0  0  0  0  0
   -2.5195    2.4076    0.0000 C   0  0  0  0  0  0  0  0  0  0  0  0
   -2.9153    0.9607    0.0000 C   0  0  0  0  0  0  0  0  0  0  0  0
   -3.7821   -0.2635    0.0000 C   0  0  0  0  0  0  0  0  0  0  0  0
   -4.2714    1.6018    0.0000 C   0  0  0  0  0  0  0  0  0  0  0  0
   -1.8602   -0.1055    0.0000 C   0  0  0  0  0  0  0  0  0  0  0  0
   -2.2560   -1.5523    0.0000 C   0  0  0  0  0  0  0  0  0  0  0  0
   -3.7069   -1.9329    0.0000 C   0  0  0  0  0  0  0  0  0  0  0  0
   -4.7620   -0.8667    0.0000 O   0  0  0  0  0  0  0  0  0  0  0  0
   -4.1027   -3.3798    0.0000 O   0  0  0  0  0  0  0  0  0  0  0  0
    1.9511    1.3608    0.0000 C   0  0  0  0  0  0  0  0  0  0  0  0
    1.3243    2.7236    0.0000 O   0  0  0  0  0  0  0  0  0  0  0  0
    3.4447    1.2222    0.0000 C   0  0  0  0  0  0  0  0  0  0  0  0
  1  2  2  0
  2  3  1  0
  3  4  1  6
  3  5  1  0
  5  6  1  0
  7  6  1  6
  7  8  1  0
  8  9  1  1
  8 10  1  0
 10 11  1  0
 11 12  1  0
 12 13  1  0
 13 14  1  0
 13 15  1  0
 13 16  1  0
 16 17  1  1
 17 18  1  0
 18 19  2  0
 18 20  1  0
  7 21  1  0
 21 22  2  0
 21 23  1  0
 23  3  1  0
 16  8  1  0
M  END
>  <identifier>  (265) 
CNP0080588.1

>  <canonical_smiles>  (265) 
C=C[C@@]1(C)CC[C@H]([C@@]2(C)CCCC(C)(C)[C@@H]2CC(=O)O)C(=O)C1

>  <standard_inchi>  (265) 
InChI=1S/C20H32O3/c1-6-19(4)11-8-14(15(21)13-19)20(5)10-7-9-18(2,3)16(20)12-17(22)23/h6,14,16H,1,7-13H2,2-5H3,(H,22,23)/t14-,16-,19-,20+/m0/s1

>  <standard_inchi_key>  (265) 
CLNLHQFTXPHBNL-JKTDJZPLSA-N

>  <name>  (265) 
nan

>  <iupac_name>  (265) 
2-[(1~{S},6~{S})-2,2,6-trimethyl-6-[(1~{R},4~{S})-4-methyl-2-oxo-4-vinyl-cyclohexyl]cyclohexyl]acetic acid

>  <annotation_level>  (265) 
3

>  <total_atom_count>  (265) 
55

>  <heavy_atom_count>  (265) 
23

>  <molecular_weight>  (265) 
320.47

>  <exact_molecular_weight>  (265) 
320.23514

>  <molecular_formula>  (265) 
C20H32O3

>  <alogp>  (265) 
4.86

>  <topological_polar_surface_area>  (265) 
54.37

>  <rotatable_bond_count>  (265) 
4

>  <hydrogen_bond_acceptors>  (265) 
2

>  <hydrogen_bond_donors>  (265) 
1

>  <hydrogen_bond_acceptors_lipinski>  (265) 
2

>  <hydrogen_bond_donors_lipinski>  (265) 
1

>  <lipinski_rule_of_five_violations>  (265) 
0

>  <aromatic_rings_count>  (265) 
0

>  <qed_drug_likeliness>  (265) 
0.75

>  <formal_charge>  (265) 
0

>  <fractioncsp3>  (265) 
0.80

>  <number_of_minimal_rings>  (265) 
2

>  <van_der_walls_volume>  (265) 
nan

>  <contains_sugar>  (265) 
False

>  <contains_ring_sugars>  (265) 
False

>  <contains_linear_sugars>  (265) 
False

>  <murcko_framework>  (265) 
C1CCC(CC1)C2CCCCC2

>  <np_likeness>  (265) 
2.43

>  <chemical_class>  (265) 
Organooxygen compounds

>  <chemical_sub_class>  (265) 
Carbonyl compounds

>  <chemical_super_class>  (265) 
Organic oxygen compounds

>  <direct_parent_classification>  (265) 
Cyclic ketones

>  <np_classifier_pathway>  (265) 
Terpenoids

>  <np_classifier_superclass>  (265) 
Diterpenoids

>  <np_classifier_class>  (265) 
Pimarane and Isopimarane diterpenoids

>  <np_classifier_is_glycoside>  (265) 
False

>  <organisms>  (265) 
Vellozia compacta

>  <collections>  (265) 
Latin America dataset|NuBBEDB|WikiData Natural Products|ZINC NP

>  <dois>  (265) 
10.1016/0031-9422(83)80034-X

>  <synonyms>  (265) 
nan

>  <cas>  (265) 
nan

$$$$

     RDKit          2D

 46 52  0  0  0  0  0  0  0  0999 V2000
   -9.1862   -1.8470    0.0000 C   0  0  0  0  0  0  0  0  0  0  0  0
   -8.2651   -0.6631    0.0000 N   0  0  0  0  0  0  0  0  0  0  0  0
   -8.8299    0.7265    0.0000 C   0  0  0  0  0  0  0  0  0  0  0  0
  -10.3157    0.9322    0.0000 C   0  0  0  0  0  0  0  0  0  0  0  0
  -10.8804    2.3219    0.0000 C   0  0  0  0  0  0  0  0  0  0  0  0
   -9.9593    3.5058    0.0000 C   0  0  0  0  0  0  0  0  0  0  0  0
   -8.4735    3.3000    0.0000 C   0  0  0  0  0  0  0  0  0  0  0  0
   -7.9088    1.9104    0.0000 C   0  0  0  0  0  0  0  0  0  0  0  0
   -6.4229    1.7046    0.0000 C   0  0  0  0  0  0  0  0  0  0  0  0
   -5.5018    2.8885    0.0000 O   0  0  0  0  0  0  0  0  0  0  0  0
   -5.8582    0.3150    0.0000 O   0  0  0  0  0  0  0  0  0  0  0  0
   -4.3724    0.1093    0.0000 C   0  0  0  0  0  0  0  0  0  0  0  0
   -3.4513    1.2931    0.0000 C   0  0  0  0  0  0  0  0  0  0  0  0
   -1.9655    1.0874    0.0000 C   0  0  0  0  0  0  0  0  0  0  0  0
   -1.4007   -0.3022    0.0000 C   0  0  0  0  0  0  0  0  0  0  0  0
   -0.4797    0.8816    0.0000 C   0  0  0  0  0  0  0  0  0  0  0  0
    0.0851   -0.5080    0.0000 C   0  0  0  0  0  0  0  0  0  0  0  0
    1.0062    0.6759    0.0000 C   0  0  0  0  0  0  0  0  0  0  0  0
    2.4920    0.4701    0.0000 C   0  0  0  0  0  0  0  0  0  0  0  0
    3.0567   -0.9195    0.0000 C   0  0  0  0  0  0  0  0  0  0  0  0
    3.6215   -2.3091    0.0000 C   0  0  0  0  0  0  0  0  0  0  0  0
    2.1356   -2.1034    0.0000 C   0  0  0  0  0  0  0  0  0  0  0  0
    2.9769   -3.3452    0.0000 C   0  0  0  0  0  0  0  0  0  0  0  0
    4.4180   -2.9288    0.0000 C   0  0  0  0  0  0  0  0  0  0  0  0
    4.4673   -1.4297    0.0000 C   0  0  0  0  0  0  0  0  0  0  0  0
    5.7092   -0.5884    0.0000 C   0  0  0  0  0  0  0  0  0  0  0  0
    5.7585    0.9108    0.0000 C   0  0  0  0  0  0  0  0  0  0  0  0
    7.1995    1.3272    0.0000 C   0  0  0  0  0  0  0  0  0  0  0  0
    7.7097    2.7378    0.0000 C   0  0  0  0  0  0  0  0  0  0  0  0
    6.7432    3.8849    0.0000 O   0  0  0  0  0  0  0  0  0  0  0  0
    9.1864    3.0013    0.0000 C   0  0  0  0  0  0  0  0  0  0  0  0
    9.4498    1.5246    0.0000 C   0  0  0  0  0  0  0  0  0  0  0  0
    8.9229    4.4779    0.0000 C   0  0  0  0  0  0  0  0  0  0  0  0
   10.6630    3.2647    0.0000 O   0  0  0  0  0  0  0  0  0  0  0  0
    8.0408    0.0854    0.0000 O   0  0  0  0  0  0  0  0  0  0  0  0
    7.1197   -1.0985    0.0000 C   0  0  0  0  0  0  0  0  0  0  0  0
    7.5361   -2.5396    0.0000 O   0  0  0  0  0  0  0  0  0  0  0  0
    0.6498   -1.8976    0.0000 C   0  0  0  0  0  0  0  0  0  0  0  0
    1.2145   -3.2873    0.0000 C   0  0  0  0  0  0  0  0  0  0  0  0
   -0.2713   -3.0815    0.0000 C   0  0  0  0  0  0  0  0  0  0  0  0
    0.2934   -4.4711    0.0000 O   0  0  0  0  0  0  0  0  0  0  0  0
   -1.7571   -2.8758    0.0000 C   0  0  0  0  0  0  0  0  0  0  0  0
   -2.3218   -1.4861    0.0000 C   0  0  0  0  0  0  0  0  0  0  0  0
   -3.8077   -1.2804    0.0000 C   0  0  0  0  0  0  0  0  0  0  0  0
   -5.2742   -1.5952    0.0000 C   0  0  0  0  0  0  0  0  0  0  0  0
   -3.7523   -2.7794    0.0000 C   0  0  0  0  0  0  0  0  0  0  0  0
  1  2  1  0
  2  3  1  0
  3  4  2  0
  4  5  1  0
  5  6  2  0
  6  7  1  0
  7  8  2  0
  8  9  1  0
  9 10  2  0
  9 11  1  0
 12 11  1  1
 12 13  1  0
 13 14  1  0
 14 15  1  0
 15 16  1  1
 15 17  1  0
 17 18  1  1
 18 19  1  0
 20 19  1  6
 20 21  1  0
 22 21  1  6
 22 23  1  0
 23 24  1  0
 25 24  1  6
 25 26  1  0
 26 27  1  6
 28 27  1  6
 28 29  1  0
 29 30  1  6
 29 31  1  0
 31 32  1  0
 31 33  1  0
 31 34  1  0
 28 35  1  0
 35 36  1  0
 36 37  1  0
 22 38  1  0
 38 39  1  1
 38 40  1  0
 40 41  1  6
 40 42  1  0
 43 42  1  1
 43 44  1  0
 44 45  1  0
 44 46  1  0
  8  3  1  0
 44 12  1  0
 43 15  1  0
 38 17  1  0
 22 20  1  0
 36 26  1  0
 25 20  1  0
M  END
>  <identifier>  (266) 
CNP0240698.1

>  <canonical_smiles>  (266) 
CNC1=CC=CC=C1C(=O)O[C@H]1CC[C@]2(C)[C@H]3CC[C@]45C[C@]4(CC[C@H]5[C@@H]4C[C@H]([C@H](O)C(C)(C)O)OC4O)[C@]3(C)[C@H](O)C[C@H]2C1(C)C

>  <standard_inchi>  (266) 
InChI=1S/C38H57NO7/c1-33(2)27-19-28(40)36(6)26(35(27,5)15-14-29(33)46-31(42)21-10-8-9-11-24(21)39-7)13-16-37-20-38(36,37)17-12-23(37)22-18-25(45-32(22)43)30(41)34(3,4)44/h8-11,22-23,25-30,32,39-41,43-44H,12-20H2,1-7H3/t22-,23-,25+,26+,27-,28+,29-,30-,32?,35+,36-,37+,38+/m0/s1

>  <standard_inchi_key>  (266) 
FJSCIFMDQSXLCX-CVKWUQFVSA-N

>  <name>  (266) 
[(1S,2R,3R,5R,7S,10S,11R,14R,15S)-15-[(3S,5R)-5-[(1S)-1,2-dihydroxy-2-methylpropyl]-2-hydroxyoxolan-3-yl]-3-hydroxy-2,6,6,10-tetramethyl-7-pentacyclo[12.3.1.01,14.02,11.05,10]octadecanyl] 2-(methylamino)benzoate

>  <iupac_name>  (266) 
[(1~{S},2~{R},3~{R},5~{R},7~{S},10~{S},11~{R},14~{R},15~{S})-15-[(3~{S},5~{R})-5-[(1~{S})-1,2-dihydroxy-2-methyl-propyl]-2-hydroxy-tetrahydrofuran-3-yl]-3-hydroxy-2,6,6,10-tetramethyl-7-pentacyclo[12.3.1.0^{1,14}.0^{2,11}.0^{5,10}]octadecanyl] 2-(methylamino)benzoate

>  <annotation_level>  (266) 
5

>  <total_atom_count>  (266) 
103

>  <heavy_atom_count>  (266) 
46

>  <molecular_weight>  (266) 
639.87

>  <exact_molecular_weight>  (266) 
639.4135

>  <molecular_formula>  (266) 
C38H57NO7

>  <alogp>  (266) 
5.52

>  <topological_polar_surface_area>  (266) 
128.48

>  <rotatable_bond_count>  (266) 
6

>  <hydrogen_bond_acceptors>  (266) 
8

>  <hydrogen_bond_donors>  (266) 
5

>  <hydrogen_bond_acceptors_lipinski>  (266) 
8

>  <hydrogen_bond_donors_lipinski>  (266) 
5

>  <lipinski_rule_of_five_violations>  (266) 
2

>  <aromatic_rings_count>  (266) 
1

>  <qed_drug_likeliness>  (266) 
0.26

>  <formal_charge>  (266) 
0

>  <fractioncsp3>  (266) 
0.82

>  <number_of_minimal_rings>  (266) 
7

>  <van_der_walls_volume>  (266) 
nan

>  <contains_sugar>  (266) 
False

>  <contains_ring_sugars>  (266) 
False

>  <contains_linear_sugars>  (266) 
False

>  <murcko_framework>  (266) 
O1CCC(C1)C2CCC34CC24CCC5C6CCC(OCc7ccccc7)CC6CCC53

>  <np_likeness>  (266) 
2.70

>  <chemical_class>  (266) 
Steroids and steroid derivatives

>  <chemical_sub_class>  (266) 
Hydroxysteroids

>  <chemical_super_class>  (266) 
Lipids and lipid-like molecules

>  <direct_parent_classification>  (266) 
Hydroxysteroids

>  <np_classifier_pathway>  (266) 
Terpenoids

>  <np_classifier_superclass>  (266) 
Steroids

>  <np_classifier_class>  (266) 
Apotirucallane triterpenoids

>  <np_classifier_is_glycoside>  (266) 
True

>  <organisms>  (266) 
Raulinoa echinata

>  <collections>  (266) 
Latin America dataset|NPASS|NuBBEDB

>  <dois>  (266) 
10.1021/np0103970

>  <synonyms>  (266) 
(2123S)-Epoxy-7\u221a\u00e9\u00ac\u00b12124S25-tetrahydroxy-4\u221a\u00e9\u00ac\u00b14\u221a\u00e9\u00ac\u22648\u221a\u00e9\u00ac\u226410\u221a\u00e9\u00ac\u2264- tetramethyl-25-dimethyl-1418-cyclo-5\u221a\u00e9\u00ac\u00b113\u221a\u00e9\u00ac\u00b114\u221a\u00e9\u00ac\u00b117rcholestan-3\u221a\u00e9\u00ac\u2264-N-methylanthranilic acid ester|CHEMBL501381

>  <cas>  (266) 
nan

$$$$

     RDKit          2D

 27 29  0  0  0  0  0  0  0  0999 V2000
   -2.6796    4.4564    0.0000 C   0  0  0  0  0  0  0  0  0  0  0  0
   -3.3449    3.1121    0.0000 O   0  0  0  0  0  0  0  0  0  0  0  0
   -2.5133    1.8637    0.0000 C   0  0  0  0  0  0  0  0  0  0  0  0
   -1.0164    1.9597    0.0000 C   0  0  0  0  0  0  0  0  0  0  0  0
   -0.1848    0.7113    0.0000 C   0  0  0  0  0  0  0  0  0  0  0  0
   -0.8501   -0.6331    0.0000 C   0  0  0  0  0  0  0  0  0  0  0  0
   -0.0185   -1.8814    0.0000 O   0  0  0  0  0  0  0  0  0  0  0  0
    1.4784   -1.7854    0.0000 C   0  0  0  0  0  0  0  0  0  0  0  0
    2.3100   -3.0338    0.0000 C   0  0  0  0  0  0  0  0  0  0  0  0
    3.8070   -2.9378    0.0000 C   0  0  0  0  0  0  0  0  0  0  0  0
    4.4723   -1.5934    0.0000 C   0  0  0  0  0  0  0  0  0  0  0  0
    3.6407   -0.3450    0.0000 C   0  0  0  0  0  0  0  0  0  0  0  0
    4.3060    0.9993    0.0000 O   0  0  0  0  0  0  0  0  0  0  0  0
    5.8029    1.0954    0.0000 C   0  0  0  0  0  0  0  0  0  0  0  0
    6.4682    2.4397    0.0000 C   0  0  0  0  0  0  0  0  0  0  0  0
    6.6345   -0.1530    0.0000 O   0  0  0  0  0  0  0  0  0  0  0  0
    2.1437   -0.4410    0.0000 C   0  0  0  0  0  0  0  0  0  0  0  0
    1.3121    0.8073    0.0000 C   0  0  0  0  0  0  0  0  0  0  0  0
    1.9774    2.1517    0.0000 O   0  0  0  0  0  0  0  0  0  0  0  0
   -2.3470   -0.7291    0.0000 C   0  0  0  0  0  0  0  0  0  0  0  0
   -3.0124   -2.0734    0.0000 O   0  0  0  0  0  0  0  0  0  0  0  0
   -4.5093   -2.1695    0.0000 C   0  0  0  0  0  0  0  0  0  0  0  0
   -5.1746   -3.5138    0.0000 C   0  0  0  0  0  0  0  0  0  0  0  0
   -5.3409   -0.9211    0.0000 O   0  0  0  0  0  0  0  0  0  0  0  0
   -3.1786    0.5193    0.0000 C   0  0  0  0  0  0  0  0  0  0  0  0
   -4.6756    0.4233    0.0000 O   0  0  0  0  0  0  0  0  0  0  0  0
   -5.5072    1.6717    0.0000 C   0  0  0  0  0  0  0  0  0  0  0  0
  1  2  1  0
  2  3  1  0
  3  4  2  0
  4  5  1  0
  5  6  2  0
  6  7  1  0
  7  8  1  0
  8  9  2  0
  9 10  1  0
 10 11  2  0
 11 12  1  0
 12 13  1  0
 13 14  1  0
 14 15  1  0
 14 16  2  0
 12 17  2  0
 17 18  1  0
 18 19  2  0
  6 20  1  0
 20 21  1  0
 21 22  1  0
 22 23  1  0
 22 24  2  0
 20 25  2  0
 25 26  1  0
 26 27  1  0
 25  3  1  0
 18  5  1  0
 17  8  1  0
M  END
>  <identifier>  (267) 
CNP0080519.0

>  <canonical_smiles>  (267) 
COC1=CC2=C(OC3=CC=CC(OC(C)=O)=C3C2=O)C(OC(C)=O)=C1OC

>  <standard_inchi>  (267) 
InChI=1S/C19H16O8/c1-9(20)25-12-6-5-7-13-15(12)16(22)11-8-14(23-3)18(24-4)19(17(11)27-13)26-10(2)21/h5-8H,1-4H3

>  <standard_inchi_key>  (267) 
YHFAISBLADRSAL-UHFFFAOYSA-N

>  <name>  (267) 
nan

>  <iupac_name>  (267) 
(5-acetoxy-6,7-dimethoxy-9-oxo-xanthen-1-yl) acetate

>  <annotation_level>  (267) 
3

>  <total_atom_count>  (267) 
43

>  <heavy_atom_count>  (267) 
27

>  <molecular_weight>  (267) 
372.33

>  <exact_molecular_weight>  (267) 
372.08452

>  <molecular_formula>  (267) 
C19H16O8

>  <alogp>  (267) 
2.81

>  <topological_polar_surface_area>  (267) 
101.27

>  <rotatable_bond_count>  (267) 
4

>  <hydrogen_bond_acceptors>  (267) 
8

>  <hydrogen_bond_donors>  (267) 
0

>  <hydrogen_bond_acceptors_lipinski>  (267) 
8

>  <hydrogen_bond_donors_lipinski>  (267) 
0

>  <lipinski_rule_of_five_violations>  (267) 
0

>  <aromatic_rings_count>  (267) 
3

>  <qed_drug_likeliness>  (267) 
0.39

>  <formal_charge>  (267) 
0

>  <fractioncsp3>  (267) 
0.21

>  <number_of_minimal_rings>  (267) 
3

>  <van_der_walls_volume>  (267) 
nan

>  <contains_sugar>  (267) 
False

>  <contains_ring_sugars>  (267) 
False

>  <contains_linear_sugars>  (267) 
False

>  <murcko_framework>  (267) 
O1c2ccccc2Cc3ccccc13

>  <np_likeness>  (267) 
0.77

>  <chemical_class>  (267) 
Benzopyrans

>  <chemical_sub_class>  (267) 
1-benzopyrans

>  <chemical_super_class>  (267) 
Organoheterocyclic compounds

>  <direct_parent_classification>  (267) 
Xanthones

>  <np_classifier_pathway>  (267) 
Shikimates and Phenylpropanoids

>  <np_classifier_superclass>  (267) 
Xanthones

>  <np_classifier_class>  (267) 
Plant xanthones

>  <np_classifier_is_glycoside>  (267) 
False

>  <organisms>  (267) 
Tovomita brasiliensis|Tovomita fructipendula

>  <collections>  (267) 
Latin America dataset|NuBBEDB|WikiData Natural Products|ZINC NP

>  <dois>  (267) 
10.1590/1809-43921982124801

>  <synonyms>  (267) 
nan

>  <cas>  (267) 
nan

$$$$

     RDKit          2D

 28 30  0  0  0  0  0  0  0  0999 V2000
    3.5088   -3.6319    0.0000 C   0  0  0  0  0  0  0  0  0  0  0  0
    3.4932   -2.1320    0.0000 C   0  0  0  0  0  0  0  0  0  0  0  0
    2.1864   -1.3956    0.0000 C   0  0  0  0  0  0  0  0  0  0  0  0
    2.1708    0.1044    0.0000 C   0  0  0  0  0  0  0  0  0  0  0  0
    3.5474   -0.4914    0.0000 C   0  0  0  0  0  0  0  0  0  0  0  0
    4.7517    0.4028    0.0000 C   0  0  0  0  0  0  0  0  0  0  0  0
    6.1283   -0.1930    0.0000 O   0  0  0  0  0  0  0  0  0  0  0  0
    6.3006   -1.6830    0.0000 C   0  0  0  0  0  0  0  0  0  0  0  0
    4.5793    1.8929    0.0000 C   0  0  0  0  0  0  0  0  0  0  0  0
    5.7836    2.7872    0.0000 O   0  0  0  0  0  0  0  0  0  0  0  0
    3.2027    2.4887    0.0000 C   0  0  0  0  0  0  0  0  0  0  0  0
    1.9985    1.5944    0.0000 C   0  0  0  0  0  0  0  0  0  0  0  0
    0.5281    1.8910    0.0000 O   0  0  0  0  0  0  0  0  0  0  0  0
   -0.2084    0.5842    0.0000 C   0  0  0  0  0  0  0  0  0  0  0  0
   -1.6984    0.4119    0.0000 C   0  0  0  0  0  0  0  0  0  0  0  0
   -2.5927    1.6162    0.0000 C   0  0  0  0  0  0  0  0  0  0  0  0
   -4.0828    1.4438    0.0000 C   0  0  0  0  0  0  0  0  0  0  0  0
   -4.9770    2.6481    0.0000 O   0  0  0  0  0  0  0  0  0  0  0  0
   -4.3812    4.0247    0.0000 C   0  0  0  0  0  0  0  0  0  0  0  0
   -4.6786    0.0672    0.0000 C   0  0  0  0  0  0  0  0  0  0  0  0
   -6.1686   -0.1051    0.0000 O   0  0  0  0  0  0  0  0  0  0  0  0
   -6.7644   -1.4817    0.0000 C   0  0  0  0  0  0  0  0  0  0  0  0
   -3.7843   -1.1370    0.0000 C   0  0  0  0  0  0  0  0  0  0  0  0
   -4.3801   -2.5136    0.0000 O   0  0  0  0  0  0  0  0  0  0  0  0
   -3.4858   -3.7179    0.0000 C   0  0  0  0  0  0  0  0  0  0  0  0
   -2.2942   -0.9647    0.0000 C   0  0  0  0  0  0  0  0  0  0  0  0
    0.8069   -0.5200    0.0000 C   0  0  0  0  0  0  0  0  0  0  0  0
    0.5103   -1.9904    0.0000 C   0  0  0  0  0  0  0  0  0  0  0  0
  1  2  2  0
  2  3  1  0
  4  3  1  1
  4  5  1  0
  5  6  2  0
  6  7  1  0
  7  8  1  0
  6  9  1  0
  9 10  2  0
  9 11  1  0
 11 12  2  0
 12 13  1  0
 13 14  1  0
 14 15  1  1
 15 16  2  0
 16 17  1  0
 17 18  1  0
 18 19  1  0
 17 20  2  0
 20 21  1  0
 21 22  1  0
 20 23  1  0
 23 24  1  0
 24 25  1  0
 23 26  2  0
 14 27  1  0
 27 28  1  6
 12  4  1  0
 26 15  1  0
 27  4  1  0
M  END
>  <identifier>  (268) 
CNP0197140.3

>  <canonical_smiles>  (268) 
C=CC[C@]12C=C(OC)C(=O)C=C1O[C@H](C1=CC(OC)=C(OC)C(OC)=C1)[C@H]2C

>  <standard_inchi>  (268) 
InChI=1S/C22H26O6/c1-7-8-22-12-18(26-5)15(23)11-19(22)28-20(13(22)2)14-9-16(24-3)21(27-6)17(10-14)25-4/h7,9-13,20H,1,8H2,2-6H3/t13-,20+,22-/m1/s1

>  <standard_inchi_key>  (268) 
OKICALHDZHJOLZ-ZTHZXAOBSA-N

>  <name>  (268) 
nan

>  <iupac_name>  (268) 
(2~{S},3~{S},3~{a}~{S})-3~{a}-allyl-5-methoxy-3-methyl-2-(3,4,5-trimethoxyphenyl)-2,3-dihydrobenzofuran-6-one

>  <annotation_level>  (268) 
4

>  <total_atom_count>  (268) 
54

>  <heavy_atom_count>  (268) 
28

>  <molecular_weight>  (268) 
386.44

>  <exact_molecular_weight>  (268) 
386.17294

>  <molecular_formula>  (268) 
C22H26O6

>  <alogp>  (268) 
3.98

>  <topological_polar_surface_area>  (268) 
63.22

>  <rotatable_bond_count>  (268) 
7

>  <hydrogen_bond_acceptors>  (268) 
6

>  <hydrogen_bond_donors>  (268) 
0

>  <hydrogen_bond_acceptors_lipinski>  (268) 
6

>  <hydrogen_bond_donors_lipinski>  (268) 
0

>  <lipinski_rule_of_five_violations>  (268) 
0

>  <aromatic_rings_count>  (268) 
1

>  <qed_drug_likeliness>  (268) 
0.66

>  <formal_charge>  (268) 
0

>  <fractioncsp3>  (268) 
0.41

>  <number_of_minimal_rings>  (268) 
3

>  <van_der_walls_volume>  (268) 
nan

>  <contains_sugar>  (268) 
False

>  <contains_ring_sugars>  (268) 
False

>  <contains_linear_sugars>  (268) 
False

>  <murcko_framework>  (268) 
O1C2=CCC=CC2CC1c3ccccc3

>  <np_likeness>  (268) 
2.09

>  <chemical_class>  (268) 
2-arylbenzofuran flavonoids

>  <chemical_sub_class>  (268) 
2-arylbenzofuran flavonoids

>  <chemical_super_class>  (268) 
Phenylpropanoids and polyketides

>  <direct_parent_classification>  (268) 
2-arylbenzofuran flavonoids

>  <np_classifier_pathway>  (268) 
Shikimates and Phenylpropanoids

>  <np_classifier_superclass>  (268) 
Lignans

>  <np_classifier_class>  (268) 
Neolignans

>  <np_classifier_is_glycoside>  (268) 
False

>  <organisms>  (268) 
Aniba|Aniba sp.

>  <collections>  (268) 
Latin America dataset|NuBBEDB|WikiData Natural Products|ZINC NP

>  <dois>  (268) 
10.1016/0031-9422(75)85358-1|10.1016/S0031-9422(00)89244-4

>  <synonyms>  (268) 
(2S3S3aS)-3a-allyl-5-methoxy-2-(3'4'5'-trimethoxy-phenyl)-3-methyl-233a6-tetrahydro-6-oxobenzofuran

>  <cas>  (268) 
nan

$$$$

     RDKit          2D

 32 34  0  0  0  0  0  0  0  0999 V2000
   -5.1982    4.4277    0.0000 C   0  0  0  0  0  0  0  0  0  0  0  0
   -5.5787    2.9768    0.0000 O   0  0  0  0  0  0  0  0  0  0  0  0
   -4.5125    1.9218    0.0000 C   0  0  0  0  0  0  0  0  0  0  0  0
   -3.0657    2.3177    0.0000 C   0  0  0  0  0  0  0  0  0  0  0  0
   -2.6851    3.7686    0.0000 O   0  0  0  0  0  0  0  0  0  0  0  0
   -1.9994    1.2626    0.0000 C   0  0  0  0  0  0  0  0  0  0  0  0
   -2.3800   -0.1883    0.0000 C   0  0  0  0  0  0  0  0  0  0  0  0
   -1.3137   -1.2433    0.0000 C   0  0  0  0  0  0  0  0  0  0  0  0
    0.1331   -0.8474    0.0000 C   0  0  0  0  0  0  0  0  0  0  0  0
    1.1994   -1.9024    0.0000 C   0  0  0  0  0  0  0  0  0  0  0  0
    0.8188   -3.3534    0.0000 O   0  0  0  0  0  0  0  0  0  0  0  0
    2.6462   -1.5065    0.0000 C   0  0  0  0  0  0  0  0  0  0  0  0
    3.7125   -2.5616    0.0000 C   0  0  0  0  0  0  0  0  0  0  0  0
    3.3319   -4.0125    0.0000 O   0  0  0  0  0  0  0  0  0  0  0  0
    5.1593   -2.1657    0.0000 C   0  0  0  0  0  0  0  0  0  0  0  0
    5.5398   -0.7147    0.0000 C   0  0  0  0  0  0  0  0  0  0  0  0
    6.9866   -0.3188    0.0000 O   0  0  0  0  0  0  0  0  0  0  0  0
    7.3672    1.1321    0.0000 C   0  0  0  0  0  0  0  0  0  0  0  0
    8.2210    2.3654    0.0000 C   0  0  0  0  0  0  0  0  0  0  0  0
    8.7300    0.5054    0.0000 C   0  0  0  0  0  0  0  0  0  0  0  0
    6.3009    2.1871    0.0000 C   0  0  0  0  0  0  0  0  0  0  0  0
    4.8541    1.7912    0.0000 C   0  0  0  0  0  0  0  0  0  0  0  0
    4.4736    0.3403    0.0000 C   0  0  0  0  0  0  0  0  0  0  0  0
    3.0267   -0.0556    0.0000 C   0  0  0  0  0  0  0  0  0  0  0  0
    1.9605    0.9994    0.0000 O   0  0  0  0  0  0  0  0  0  0  0  0
   -3.8268   -0.5842    0.0000 C   0  0  0  0  0  0  0  0  0  0  0  0
   -4.8930    0.4708    0.0000 C   0  0  0  0  0  0  0  0  0  0  0  0
   -6.3398    0.0749    0.0000 C   0  0  0  0  0  0  0  0  0  0  0  0
   -6.7204   -1.3760    0.0000 C   0  0  0  0  0  0  0  0  0  0  0  0
   -8.1672   -1.7719    0.0000 C   0  0  0  0  0  0  0  0  0  0  0  0
   -8.5477   -3.2228    0.0000 C   0  0  0  0  0  0  0  0  0  0  0  0
   -9.2335   -0.7169    0.0000 C   0  0  0  0  0  0  0  0  0  0  0  0
  1  2  1  0
  2  3  1  0
  3  4  2  0
  4  5  1  0
  4  6  1  0
  6  7  2  0
  7  8  1  0
  8  9  1  0
  9 10  1  0
 10 11  2  0
 10 12  1  0
 12 13  2  0
 13 14  1  0
 13 15  1  0
 15 16  2  0
 16 17  1  0
 17 18  1  0
 18 19  1  0
 18 20  1  0
 18 21  1  0
 21 22  1  0
 22 23  1  0
 23 24  2  0
 24 25  1  0
  7 26  1  0
 26 27  2  0
 27 28  1  0
 28 29  1  0
 29 30  2  0
 30 31  1  0
 30 32  1  0
 27  3  1  0
 24 12  1  0
 23 16  1  0
M  END
>  <identifier>  (269) 
CNP0408176.0

>  <canonical_smiles>  (269) 
COC1=C(O)C=C(CCC(=O)C2=C(O)C=C3OC(C)(C)CCC3=C2O)C=C1CC=C(C)C

>  <standard_inchi>  (269) 
InChI=1S/C26H32O6/c1-15(2)6-8-17-12-16(13-21(29)25(17)31-5)7-9-19(27)23-20(28)14-22-18(24(23)30)10-11-26(3,4)32-22/h6,12-14,28-30H,7-11H2,1-5H3

>  <standard_inchi_key>  (269) 
RVQJIAIPJTVCLA-UHFFFAOYSA-N

>  <name>  (269) 
nan

>  <iupac_name>  (269) 
1-(5,7-dihydroxy-2,2-dimethyl-chroman-6-yl)-3-[3-hydroxy-4-methoxy-5-(3-methylbut-2-enyl)phenyl]propan-1-one

>  <annotation_level>  (269) 
4

>  <total_atom_count>  (269) 
64

>  <heavy_atom_count>  (269) 
32

>  <molecular_weight>  (269) 
440.54

>  <exact_molecular_weight>  (269) 
440.21989

>  <molecular_formula>  (269) 
C26H32O6

>  <alogp>  (269) 
5.24

>  <topological_polar_surface_area>  (269) 
96.22

>  <rotatable_bond_count>  (269) 
7

>  <hydrogen_bond_acceptors>  (269) 
6

>  <hydrogen_bond_donors>  (269) 
3

>  <hydrogen_bond_acceptors_lipinski>  (269) 
6

>  <hydrogen_bond_donors_lipinski>  (269) 
3

>  <lipinski_rule_of_five_violations>  (269) 
1

>  <aromatic_rings_count>  (269) 
2

>  <qed_drug_likeliness>  (269) 
0.40

>  <formal_charge>  (269) 
0

>  <fractioncsp3>  (269) 
0.42

>  <number_of_minimal_rings>  (269) 
3

>  <van_der_walls_volume>  (269) 
nan

>  <contains_sugar>  (269) 
False

>  <contains_ring_sugars>  (269) 
False

>  <contains_linear_sugars>  (269) 
False

>  <murcko_framework>  (269) 
O1c2ccc(cc2CCC1)CCCc3ccccc3

>  <np_likeness>  (269) 
1.91

>  <chemical_class>  (269) 
Linear 1,3-diarylpropanoids

>  <chemical_sub_class>  (269) 
Chalcones and dihydrochalcones

>  <chemical_super_class>  (269) 
Phenylpropanoids and polyketides

>  <direct_parent_classification>  (269) 
2'-Hydroxy-dihydrochalcones

>  <np_classifier_pathway>  (269) 
Shikimates and Phenylpropanoids

>  <np_classifier_superclass>  (269) 
Flavonoids

>  <np_classifier_class>  (269) 
Chalcones

>  <np_classifier_is_glycoside>  (269) 
False

>  <organisms>  (269) 
Metrodorea nigra

>  <collections>  (269) 
Latin America dataset|NuBBEDB|Super Natural II|UNPD (Universal Natural Products Database)|WikiData Natural Products|ZINC NP

>  <dois>  (269) 
10.1016/0031-9422(95)00504-Z

>  <synonyms>  (269) 
1-Propanone 1-(34-dihydro-57-dihydroxy-22-dimethyl-2H-1-benzopyran-6-yl)-3-[3-hydroxy-4-methoxy-5-(3-methyl-2-buten-1-yl)phenyl]-

>  <cas>  (269) 
nan

$$$$

     RDKit          2D

  7  7  0  0  0  0  0  0  0  0999 V2000
    2.5714    0.0000    0.0000 C   0  0  0  0  0  0  0  0  0  0  0  0
    1.0714   -0.0000    0.0000 C   0  0  0  0  0  0  0  0  0  0  0  0
    0.3214   -1.2990    0.0000 C   0  0  0  0  0  0  0  0  0  0  0  0
   -1.1786   -1.2990    0.0000 C   0  0  0  0  0  0  0  0  0  0  0  0
   -1.9286    0.0000    0.0000 C   0  0  0  0  0  0  0  0  0  0  0  0
   -1.1786    1.2990    0.0000 C   0  0  0  0  0  0  0  0  0  0  0  0
    0.3214    1.2990    0.0000 C   0  0  0  0  0  0  0  0  0  0  0  0
  1  2  1  0
  2  3  2  0
  3  4  1  0
  4  5  1  0
  5  6  1  0
  6  7  1  0
  7  2  1  0
M  END
>  <identifier>  (270) 
CNP0369235.0

>  <canonical_smiles>  (270) 
CC1=CCCCC1

>  <standard_inchi>  (270) 
InChI=1S/C7H12/c1-7-5-3-2-4-6-7/h5H,2-4,6H2,1H3

>  <standard_inchi_key>  (270) 
CTMHWPIWNRWQEG-UHFFFAOYSA-N

>  <name>  (270) 
1-Methyl-1-cyclohexene

>  <iupac_name>  (270) 
1-methylcyclohexene

>  <annotation_level>  (270) 
5

>  <total_atom_count>  (270) 
19

>  <heavy_atom_count>  (270) 
7

>  <molecular_weight>  (270) 
96.17

>  <exact_molecular_weight>  (270) 
96.0939

>  <molecular_formula>  (270) 
C7H12

>  <alogp>  (270) 
2.51

>  <topological_polar_surface_area>  (270) 
0.00

>  <rotatable_bond_count>  (270) 
0

>  <hydrogen_bond_acceptors>  (270) 
0

>  <hydrogen_bond_donors>  (270) 
0

>  <hydrogen_bond_acceptors_lipinski>  (270) 
0

>  <hydrogen_bond_donors_lipinski>  (270) 
0

>  <lipinski_rule_of_five_violations>  (270) 
0

>  <aromatic_rings_count>  (270) 
0

>  <qed_drug_likeliness>  (270) 
0.41

>  <formal_charge>  (270) 
0

>  <fractioncsp3>  (270) 
0.71

>  <number_of_minimal_rings>  (270) 
1

>  <van_der_walls_volume>  (270) 
111.78

>  <contains_sugar>  (270) 
False

>  <contains_ring_sugars>  (270) 
False

>  <contains_linear_sugars>  (270) 
False

>  <murcko_framework>  (270) 
C1=CCCCC1

>  <np_likeness>  (270) 
1.81

>  <chemical_class>  (270) 
Unsaturated hydrocarbons

>  <chemical_sub_class>  (270) 
Branched unsaturated hydrocarbons

>  <chemical_super_class>  (270) 
Hydrocarbons

>  <direct_parent_classification>  (270) 
Branched unsaturated hydrocarbons

>  <np_classifier_pathway>  (270) 
Terpenoids

>  <np_classifier_superclass>  (270) 
Monoterpenoids

>  <np_classifier_class>  (270) 
Monocyclic monoterpenoids

>  <np_classifier_is_glycoside>  (270) 
False

>  <organisms>  (270) 
Aiouea costaricensis|Caryocar coriaceum|Houttuynia cordata

>  <collections>  (270) 
AfroDB|CMAUP (cCollective molecular activities of useful plants)|Latin America dataset|Mitishamba database|NAPRORE-CR|NPASS|NuBBEDB|Super Natural II|TCMDB-Taiwan (Traditional Chinese Medicine database)|TCMID (Traditional Chinese Medicine Integrated Database)|UNPD (Universal Natural Products Database)|WikiData Natural Products|ZINC NP

>  <dois>  (270) 
10.1016/J.ACA.2004.09.082|10.1021/JF00120A031|10.1021/jf00120a031|10.1080/10412905.2010.9700389

>  <synonyms>  (270) 
.alpha.-Methylcyclohexene|1-METHYLCYCLOHEXENE|1-Methyl-1-cyclohexene, 97%|1-Methylcyclohex-1-ene|1-methyl-cyclohexene|1335-86-0|2,3,4,5-Tetrahydrotoluene|591-49-1|AI3-52478|AKOS015912507|C7H12|CHEBI:229299|CS-W004338|Cyclohexene, 1-methyl-|DTXSID3060451|EINECS 209-718-0|EINECS 215-640-8|EN300-84161|H10759|InChI=1\/C7H12\/c1-7-5-3-2-4-6-7\/h5H,2-4,6H2,1H|M0200|MFCD00001548|NS00034096|NSC 66539|NSC-66539|Q63392428|SY050145|TE4P8Q2044|UNII-TE4P8Q2044|Z1250167423|ghl.PD_Mitscher_leg0.949

>  <cas>  (270) 
591-49-1|1335-86-0

$$$$

     RDKit          2D

 39 41  0  0  0  0  0  0  0  0999 V2000
    7.6210    0.8334    0.0000 C   0  0  0  0  0  0  0  0  0  0  0  0
    6.1847    0.4007    0.0000 C   0  0  0  0  0  0  0  0  0  0  0  0
    5.8413   -1.0595    0.0000 C   0  0  0  0  0  0  0  0  0  0  0  0
    6.9341   -2.0870    0.0000 C   0  0  0  0  0  0  0  0  0  0  0  0
    4.4051   -1.4922    0.0000 C   0  0  0  0  0  0  0  0  0  0  0  0
    3.3122   -0.4647    0.0000 C   0  0  0  0  0  0  0  0  0  0  0  0
    1.8760   -0.8974    0.0000 C   0  0  0  0  0  0  0  0  0  0  0  0
    2.5515   -2.2367    0.0000 C   0  0  0  0  0  0  0  0  0  0  0  0
    1.6993    0.5922    0.0000 C   0  0  0  0  0  0  0  0  0  0  0  0
    2.9009    1.4900    0.0000 C   0  0  0  0  0  0  0  0  0  0  0  0
    0.3209    1.1839    0.0000 C   0  0  0  0  0  0  0  0  0  0  0  0
    0.1442    2.6735    0.0000 O   0  0  0  0  0  0  0  0  0  0  0  0
    1.3459    3.5713    0.0000 C   0  0  0  0  0  0  0  0  0  0  0  0
    1.1691    5.0608    0.0000 C   0  0  0  0  0  0  0  0  0  0  0  0
    2.7242    2.9795    0.0000 O   0  0  0  0  0  0  0  0  0  0  0  0
   -0.8807    0.2861    0.0000 C   0  0  0  0  0  0  0  0  0  0  0  0
   -2.2591    0.8778    0.0000 O   0  0  0  0  0  0  0  0  0  0  0  0
   -2.4358    2.3674    0.0000 C   0  0  0  0  0  0  0  0  0  0  0  0
   -3.8141    2.9591    0.0000 C   0  0  0  0  0  0  0  0  0  0  0  0
   -1.4871    3.5293    0.0000 O   0  0  0  0  0  0  0  0  0  0  0  0
   -0.7040   -1.2035    0.0000 C   0  0  0  0  0  0  0  0  0  0  0  0
   -1.9056   -2.1013    0.0000 C   0  0  0  0  0  0  0  0  0  0  0  0
   -1.7289   -3.5908    0.0000 C   0  0  0  0  0  0  0  0  0  0  0  0
   -0.3506   -4.1826    0.0000 C   0  0  0  0  0  0  0  0  0  0  0  0
   -0.1738   -5.6721    0.0000 O   0  0  0  0  0  0  0  0  0  0  0  0
   -1.3755   -6.5699    0.0000 C   0  0  0  0  0  0  0  0  0  0  0  0
    0.8511   -3.2847    0.0000 C   0  0  0  0  0  0  0  0  0  0  0  0
    0.6744   -1.7952    0.0000 C   0  0  0  0  0  0  0  0  0  0  0  0
   -3.1308   -1.2359    0.0000 C   0  0  0  0  0  0  0  0  0  0  0  0
   -4.5511   -1.7184    0.0000 O   0  0  0  0  0  0  0  0  0  0  0  0
   -5.6791   -0.7297    0.0000 C   0  0  0  0  0  0  0  0  0  0  0  0
   -7.0994   -1.2123    0.0000 C   0  0  0  0  0  0  0  0  0  0  0  0
   -5.3869    0.7415    0.0000 O   0  0  0  0  0  0  0  0  0  0  0  0
   -2.6864    0.1968    0.0000 O   0  0  0  0  0  0  0  0  0  0  0  0
   -1.1865    0.2168    0.0000 C   0  0  0  0  0  0  0  0  0  0  0  0
   -0.3212    1.4420    0.0000 O   0  0  0  0  0  0  0  0  0  0  0  0
   -0.9495    2.8041    0.0000 C   0  0  0  0  0  0  0  0  0  0  0  0
   -0.0841    4.0293    0.0000 C   0  0  0  0  0  0  0  0  0  0  0  0
   -2.3658    3.2983    0.0000 O   0  0  0  0  0  0  0  0  0  0  0  0
  1  2  2  0
  2  3  1  0
  3  4  1  0
  3  5  2  0
  5  6  1  0
  6  7  1  0
  7  8  1  6
  7  9  1  0
  9 10  1  1
  9 11  1  0
 11 12  1  6
 12 13  1  0
 13 14  1  0
 13 15  2  0
 11 16  1  0
 16 17  1  1
 17 18  1  0
 18 19  1  0
 18 20  2  0
 16 21  1  0
 21 22  1  6
 22 23  2  0
 23 24  1  0
 24 25  1  1
 25 26  1  0
 24 27  1  0
 28 27  1  6
 22 29  1  0
 29 30  1  1
 30 31  1  0
 31 32  1  0
 31 33  2  0
 29 34  1  0
 34 35  1  0
 35 36  1  1
 36 37  1  0
 37 38  1  0
 37 39  2  0
 28  7  1  0
 28 21  1  0
 35 21  1  0
M  END
>  <identifier>  (271) 
CNP0290297.1

>  <canonical_smiles>  (271) 
C=C/C(C)=C\C[C@]1(C)[C@H](C)[C@@H](OC(C)=O)[C@H](OC(C)=O)[C@@]23C(=C[C@H](OC)C[C@@H]12)[C@@H](OC(C)=O)O[C@H]3OC(C)=O

>  <standard_inchi>  (271) 
InChI=1S/C29H40O10/c1-10-15(2)11-12-28(8)16(3)24(35-17(4)30)25(36-18(5)31)29-22(13-21(34-9)14-23(28)29)26(37-19(6)32)39-27(29)38-20(7)33/h10-11,13,16,21,23-27H,1,12,14H2,2-9H3/b15-11-/t16-,21+,23+,24-,25+,26+,27-,28-,29-/m1/s1

>  <standard_inchi_key>  (271) 
ILEWTGOMGUCPGF-AUNSKJOFSA-N

>  <name>  (271) 
nan

>  <iupac_name>  (271) 
[(1~{S},3~{R},5~{R},6~{a}~{S},7~{S},8~{S},9~{R},10~{R},10~{a}~{S})-1,3,10-triacetoxy-5-methoxy-7,8-dimethyl-7-[(2~{Z})-3-methylpenta-2,4-dienyl]-1,3,5,6,6~{a},8,9,10-octahydrobenzo[d]isobenzofuran-9-yl] acetate

>  <annotation_level>  (271) 
5

>  <total_atom_count>  (271) 
79

>  <heavy_atom_count>  (271) 
39

>  <molecular_weight>  (271) 
548.63

>  <exact_molecular_weight>  (271) 
548.26215

>  <molecular_formula>  (271) 
C29H40O10

>  <alogp>  (271) 
3.78

>  <topological_polar_surface_area>  (271) 
123.66

>  <rotatable_bond_count>  (271) 
8

>  <hydrogen_bond_acceptors>  (271) 
10

>  <hydrogen_bond_donors>  (271) 
0

>  <hydrogen_bond_acceptors_lipinski>  (271) 
10

>  <hydrogen_bond_donors_lipinski>  (271) 
0

>  <lipinski_rule_of_five_violations>  (271) 
1

>  <aromatic_rings_count>  (271) 
0

>  <qed_drug_likeliness>  (271) 
0.19

>  <formal_charge>  (271) 
0

>  <fractioncsp3>  (271) 
0.66

>  <number_of_minimal_rings>  (271) 
3

>  <van_der_walls_volume>  (271) 
504.08

>  <contains_sugar>  (271) 
False

>  <contains_ring_sugars>  (271) 
False

>  <contains_linear_sugars>  (271) 
False

>  <murcko_framework>  (271) 
O1CC2=CCCC3CCCCC23C1

>  <np_likeness>  (271) 
3.25

>  <chemical_class>  (271) 
Prenol lipids

>  <chemical_sub_class>  (271) 
Diterpenoids

>  <chemical_super_class>  (271) 
Lipids and lipid-like molecules

>  <direct_parent_classification>  (271) 
Colensane and clerodane diterpenoids

>  <np_classifier_pathway>  (271) 
Terpenoids

>  <np_classifier_superclass>  (271) 
Diterpenoids

>  <np_classifier_class>  (271) 
Colensane and Clerodane diterpenoids

>  <np_classifier_is_glycoside>  (271) 
True

>  <organisms>  (271) 
Casearia sylvestris

>  <collections>  (271) 
ChemSpider NPs|Latin America dataset|NuBBEDB|Super Natural II|WikiData Natural Products|ZINC NP

>  <dois>  (271) 
10.1002/PCA.902|10.1002/pca.902|10.1248/CPB.39.693

>  <synonyms>  (271) 
Casearin P

>  <cas>  (271) 
nan

$$$$

     RDKit          2D

 27 28  0  0  0  0  0  0  0  0999 V2000
   -2.9902    4.1862    0.0000 C   0  0  0  0  0  0  0  0  0  0  0  0
   -4.0241    3.0994    0.0000 O   0  0  0  0  0  0  0  0  0  0  0  0
   -3.5998    1.6607    0.0000 C   0  0  0  0  0  0  0  0  0  0  0  0
   -2.1416    1.3088    0.0000 C   0  0  0  0  0  0  0  0  0  0  0  0
   -1.7173   -0.1300    0.0000 C   0  0  0  0  0  0  0  0  0  0  0  0
   -2.7511   -1.2168    0.0000 C   0  0  0  0  0  0  0  0  0  0  0  0
   -2.3268   -2.6555    0.0000 C   0  0  0  0  0  0  0  0  0  0  0  0
   -0.8687   -3.0074    0.0000 C   0  0  0  0  0  0  0  0  0  0  0  0
   -0.4444   -4.4462    0.0000 C   0  0  0  0  0  0  0  0  0  0  0  0
    0.1651   -1.9206    0.0000 C   0  0  0  0  0  0  0  0  0  0  0  0
   -0.2592   -0.4819    0.0000 C   0  0  0  0  0  0  0  0  0  0  0  0
    1.6233   -2.2725    0.0000 C   0  0  0  0  0  0  0  0  0  0  0  0
    2.0476   -3.7113    0.0000 O   0  0  0  0  0  0  0  0  0  0  0  0
    2.6571   -1.1857    0.0000 C   0  0  0  0  0  0  0  0  0  0  0  0
    4.1152   -1.5376    0.0000 C   0  0  0  0  0  0  0  0  0  0  0  0
    5.1491   -0.4508    0.0000 C   0  0  0  0  0  0  0  0  0  0  0  0
    4.7248    0.9880    0.0000 C   0  0  0  0  0  0  0  0  0  0  0  0
    5.7586    2.0748    0.0000 O   0  0  0  0  0  0  0  0  0  0  0  0
    7.2167    1.7229    0.0000 C   0  0  0  0  0  0  0  0  0  0  0  0
    3.2666    1.3399    0.0000 C   0  0  0  0  0  0  0  0  0  0  0  0
    2.8423    2.7786    0.0000 O   0  0  0  0  0  0  0  0  0  0  0  0
    1.3842    3.1305    0.0000 C   0  0  0  0  0  0  0  0  0  0  0  0
    2.2328    0.2530    0.0000 C   0  0  0  0  0  0  0  0  0  0  0  0
   -4.2093   -0.8649    0.0000 C   0  0  0  0  0  0  0  0  0  0  0  0
   -4.6336    0.5738    0.0000 C   0  0  0  0  0  0  0  0  0  0  0  0
   -6.0917    0.9257    0.0000 O   0  0  0  0  0  0  0  0  0  0  0  0
   -7.1255   -0.1611    0.0000 C   0  0  0  0  0  0  0  0  0  0  0  0
  1  2  1  0
  2  3  1  0
  3  4  2  0
  4  5  1  0
  5  6  2  0
  6  7  1  0
  7  8  1  0
  8  9  1  1
  8 10  1  0
 10 11  1  6
 10 12  1  0
 12 13  1  6
 12 14  1  0
 14 15  2  0
 15 16  1  0
 16 17  2  0
 17 18  1  0
 18 19  1  0
 17 20  1  0
 20 21  1  0
 21 22  1  0
 20 23  2  0
  6 24  1  0
 24 25  2  0
 25 26  1  0
 26 27  1  0
 25  3  1  0
 23 14  1  0
M  END
>  <identifier>  (272) 
CNP0283255.1

>  <canonical_smiles>  (272) 
COC1=CC=C(C[C@H](C)[C@H](C)[C@@H](O)C2=CC=C(OC)C(OC)=C2)C=C1OC

>  <standard_inchi>  (272) 
InChI=1S/C22H30O5/c1-14(11-16-7-9-18(24-3)20(12-16)26-5)15(2)22(23)17-8-10-19(25-4)21(13-17)27-6/h7-10,12-15,22-23H,11H2,1-6H3/t14-,15-,22+/m0/s1

>  <standard_inchi_key>  (272) 
JHEXMPZEYDIRNZ-AYSMAOOMSA-N

>  <name>  (272) 
nan

>  <iupac_name>  (272) 
(1~{R},2~{S},3~{S})-1,4-bis(3,4-dimethoxyphenyl)-2,3-dimethyl-butan-1-ol

>  <annotation_level>  (272) 
4

>  <total_atom_count>  (272) 
57

>  <heavy_atom_count>  (272) 
27

>  <molecular_weight>  (272) 
374.48

>  <exact_molecular_weight>  (272) 
374.20932

>  <molecular_formula>  (272) 
C22H30O5

>  <alogp>  (272) 
4.27

>  <topological_polar_surface_area>  (272) 
57.15

>  <rotatable_bond_count>  (272) 
9

>  <hydrogen_bond_acceptors>  (272) 
5

>  <hydrogen_bond_donors>  (272) 
1

>  <hydrogen_bond_acceptors_lipinski>  (272) 
5

>  <hydrogen_bond_donors_lipinski>  (272) 
1

>  <lipinski_rule_of_five_violations>  (272) 
0

>  <aromatic_rings_count>  (272) 
2

>  <qed_drug_likeliness>  (272) 
0.71

>  <formal_charge>  (272) 
0

>  <fractioncsp3>  (272) 
0.46

>  <number_of_minimal_rings>  (272) 
2

>  <van_der_walls_volume>  (272) 
nan

>  <contains_sugar>  (272) 
False

>  <contains_ring_sugars>  (272) 
False

>  <contains_linear_sugars>  (272) 
False

>  <murcko_framework>  (272) 
c1ccc(cc1)CCCCc2ccccc2

>  <np_likeness>  (272) 
0.71

>  <chemical_class>  (272) 
Dibenzylbutane lignans

>  <chemical_sub_class>  (272) 
Dibenzylbutane lignans

>  <chemical_super_class>  (272) 
Lignans, neolignans and related compounds

>  <direct_parent_classification>  (272) 
Dibenzylbutane lignans

>  <np_classifier_pathway>  (272) 
Shikimates and Phenylpropanoids

>  <np_classifier_superclass>  (272) 
Lignans

>  <np_classifier_class>  (272) 
Dibenzylbutane lignans

>  <np_classifier_is_glycoside>  (272) 
False

>  <organisms>  (272) 
Nectandra puberula

>  <collections>  (272) 
Latin America dataset|NuBBEDB|WikiData Natural Products|ZINC NP

>  <dois>  (272) 
10.1016/S0031-9422(00)81526-5

>  <synonyms>  (272) 
(7R8S8'R)-7-Hydroxy-343'4'-tetramethoxy-88'-neolignan

>  <cas>  (272) 
nan

$$$$

     RDKit          2D

 10 10  0  0  0  0  0  0  0  0999 V2000
   -3.7977    0.6707    0.0000 O   0  0  0  0  0  0  0  0  0  0  0  0
   -2.3110    0.8699    0.0000 C   0  0  0  0  0  0  0  0  0  0  0  0
   -1.3951   -0.3180    0.0000 C   0  0  0  0  0  0  0  0  0  0  0  0
   -1.9660   -1.7051    0.0000 O   0  0  0  0  0  0  0  0  0  0  0  0
    0.0916   -0.1188    0.0000 C   0  0  0  0  0  0  0  0  0  0  0  0
    0.6624    1.2683    0.0000 C   0  0  0  0  0  0  0  0  0  0  0  0
    2.1491    1.4676    0.0000 C   0  0  0  0  0  0  0  0  0  0  0  0
    3.0650    0.2796    0.0000 C   0  0  0  0  0  0  0  0  0  0  0  0
    2.4942   -1.1075    0.0000 C   0  0  0  0  0  0  0  0  0  0  0  0
    1.0075   -1.3067    0.0000 C   0  0  0  0  0  0  0  0  0  0  0  0
  1  2  1  0
  2  3  1  0
  3  4  1  6
  3  5  1  0
  5  6  2  0
  6  7  1  0
  7  8  2  0
  8  9  1  0
  9 10  2  0
 10  5  1  0
M  END
>  <identifier>  (273) 
CNP0106512.1

>  <canonical_smiles>  (273) 
OC[C@@H](O)C1=CC=CC=C1

>  <standard_inchi>  (273) 
InChI=1S/C8H10O2/c9-6-8(10)7-4-2-1-3-5-7/h1-5,8-10H,6H2/t8-/m1/s1

>  <standard_inchi_key>  (273) 
PWMWNFMRSKOCEY-MRVPVSSYSA-N

>  <name>  (273) 
25779-13-9

>  <iupac_name>  (273) 
(1~{S})-1-phenylethane-1,2-diol

>  <annotation_level>  (273) 
5

>  <total_atom_count>  (273) 
20

>  <heavy_atom_count>  (273) 
10

>  <molecular_weight>  (273) 
138.17

>  <exact_molecular_weight>  (273) 
138.06808

>  <molecular_formula>  (273) 
C8H10O2

>  <alogp>  (273) 
0.71

>  <topological_polar_surface_area>  (273) 
40.46

>  <rotatable_bond_count>  (273) 
2

>  <hydrogen_bond_acceptors>  (273) 
2

>  <hydrogen_bond_donors>  (273) 
2

>  <hydrogen_bond_acceptors_lipinski>  (273) 
2

>  <hydrogen_bond_donors_lipinski>  (273) 
2

>  <lipinski_rule_of_five_violations>  (273) 
0

>  <aromatic_rings_count>  (273) 
1

>  <qed_drug_likeliness>  (273) 
0.63

>  <formal_charge>  (273) 
0

>  <fractioncsp3>  (273) 
0.25

>  <number_of_minimal_rings>  (273) 
1

>  <van_der_walls_volume>  (273) 
132.70

>  <contains_sugar>  (273) 
False

>  <contains_ring_sugars>  (273) 
False

>  <contains_linear_sugars>  (273) 
False

>  <murcko_framework>  (273) 
c1ccccc1

>  <np_likeness>  (273) 
0.51

>  <chemical_class>  (273) 
Benzene and substituted derivatives

>  <chemical_sub_class>  (273) 
Benzene and substituted derivatives

>  <chemical_super_class>  (273) 
Benzenoids

>  <direct_parent_classification>  (273) 
Benzene and substituted derivatives

>  <np_classifier_pathway>  (273) 
Shikimates and Phenylpropanoids

>  <np_classifier_superclass>  (273) 
Phenylpropanoids (C6-C3)

>  <np_classifier_class>  (273) 
Cinnamic acids and derivatives

>  <np_classifier_is_glycoside>  (273) 
False

>  <organisms>  (273) 
Colletotrichum crassipes

>  <collections>  (273) 
ChemSpider NPs|FooDB|Latin America dataset|NuBBEDB|Super Natural II|WikiData Natural Products|ZINC NP

>  <dois>  (273) 
10.1016/J.TETASY.2009.11.001|10.1016/j.tetasy.2009.11.001

>  <synonyms>  (273) 
(+)-PHENYLGLYCOL|(S)-(+)-1-Phenyl-1,2-ethanediol|(S)-(+)-1-Phenyl-1,2-ethanediol, purum, >=98.0% (sum of enantiomers, HPLC)|(S)-(+)-Phenylethylene glycol|(S)-(+)-Styrene glycol|(S)-1-PHENYL-2-HYDROXYETHANOL|(S)-1-Phenylethane-1,2-diol|(S)-1-phenyl-1,2-ethanediol|(S)-STYRENE GLYCOL|(S)-phenylethylene glycol|(s)-phenylethane-1,2-diol|1,2-Ethanediol, 1-phenyl-, (1S)-|8IB2T1FT6B|A5163|AC-5684|AKOS005255106|AS-12223|BDBM36101|CS-W011049|EN300-304046|FD1181|J-016127|MFCD00066256|P1151|Q27270578|SCHEMBL1947849|Styrene glycol, (+)-|UNII-8IB2T1FT6B|styrene glycol (1-phenyl 1,2-ethanediol)

>  <cas>  (273) 
nan

$$$$

     RDKit          2D

 34 37  0  0  0  0  0  0  0  0999 V2000
   -6.0239   -2.8447    0.0000 C   0  0  0  0  0  0  0  0  0  0  0  0
   -5.3679   -1.4958    0.0000 C   0  0  0  0  0  0  0  0  0  0  0  0
   -6.2080   -0.2532    0.0000 C   0  0  0  0  0  0  0  0  0  0  0  0
   -3.8716   -1.3895    0.0000 C   0  0  0  0  0  0  0  0  0  0  0  0
   -3.0314   -2.6321    0.0000 C   0  0  0  0  0  0  0  0  0  0  0  0
   -1.5352   -2.5258    0.0000 C   0  0  0  0  0  0  0  0  0  0  0  0
   -0.8792   -1.1769    0.0000 C   0  0  0  0  0  0  0  0  0  0  0  0
   -2.3754   -1.2832    0.0000 C   0  0  0  0  0  0  0  0  0  0  0  0
   -1.7194    0.0657    0.0000 C   0  0  0  0  0  0  0  0  0  0  0  0
   -1.0633    1.4147    0.0000 C   0  0  0  0  0  0  0  0  0  0  0  0
    0.4329    1.5210    0.0000 C   0  0  0  0  0  0  0  0  0  0  0  0
    1.2731    0.2784    0.0000 C   0  0  0  0  0  0  0  0  0  0  0  0
    2.7587    0.0713    0.0000 C   0  0  0  0  0  0  0  0  0  0  0  0
    3.7995    1.1515    0.0000 C   0  0  0  0  0  0  0  0  0  0  0  0
    2.6165    2.0736    0.0000 C   0  0  0  0  0  0  0  0  0  0  0  0
    4.5930    2.4244    0.0000 C   0  0  0  0  0  0  0  0  0  0  0  0
    6.0488    2.0632    0.0000 C   0  0  0  0  0  0  0  0  0  0  0  0
    6.1551    0.5670    0.0000 C   0  0  0  0  0  0  0  0  0  0  0  0
    7.4281   -0.2265    0.0000 C   0  0  0  0  0  0  0  0  0  0  0  0
    8.2215    1.0465    0.0000 C   0  0  0  0  0  0  0  0  0  0  0  0
    6.6346   -1.4995    0.0000 C   0  0  0  0  0  0  0  0  0  0  0  0
    8.7011   -1.0199    0.0000 O   0  0  0  0  0  0  0  0  0  0  0  0
    4.7650    0.0035    0.0000 O   0  0  0  0  0  0  0  0  0  0  0  0
    3.0209   -1.4056    0.0000 C   0  0  0  0  0  0  0  0  0  0  0  0
    1.6972   -2.1113    0.0000 C   0  0  0  0  0  0  0  0  0  0  0  0
    0.6171   -1.0706    0.0000 C   0  0  0  0  0  0  0  0  0  0  0  0
    0.1056   -2.4807    0.0000 C   0  0  0  0  0  0  0  0  0  0  0  0
   -3.2156   -0.0406    0.0000 C   0  0  0  0  0  0  0  0  0  0  0  0
   -3.0605    1.4514    0.0000 C   0  0  0  0  0  0  0  0  0  0  0  0
   -4.6579    0.3713    0.0000 C   0  0  0  0  0  0  0  0  0  0  0  0
   -5.0225    1.8263    0.0000 C   0  0  0  0  0  0  0  0  0  0  0  0
   -6.4648    2.2381    0.0000 C   0  0  0  0  0  0  0  0  0  0  0  0
   -7.5427    1.1949    0.0000 O   0  0  0  0  0  0  0  0  0  0  0  0
   -6.8293    3.6932    0.0000 O   0  0  0  0  0  0  0  0  0  0  0  0
  1  2  2  0
  2  3  1  0
  4  2  1  1
  4  5  1  0
  5  6  1  0
  6  7  1  0
  7  8  1  1
  7  9  1  0
  9 10  1  1
 10 11  1  0
 12 11  1  6
 12 13  1  0
 13 14  1  0
 14 15  1  1
 14 16  1  0
 16 17  1  0
 17 18  1  0
 18 19  1  1
 19 20  1  0
 19 21  1  0
 19 22  1  0
 18 23  1  0
 13 24  1  1
 24 25  1  0
 25 26  1  0
 26 27  1  6
  9 28  1  0
 28 29  1  1
 28 30  1  0
 30 31  1  0
 31 32  1  0
 32 33  2  0
 32 34  1  0
 28  4  1  0
 26  7  1  0
 26 12  1  0
 23 14  1  0
M  END
>  <identifier>  (274) 
CNP0215020.1

>  <canonical_smiles>  (274) 
C=C(C)[C@@H]1CC[C@]2(C)[C@H](CC[C@@H]3[C@@H]([C@]4(C)CC[C@@H](C(C)(C)O)O4)CC[C@]32C)[C@@]1(C)CCC(=O)O

>  <standard_inchi>  (274) 
InChI=1S/C30H50O4/c1-19(2)20-11-17-29(7)23(27(20,5)15-14-25(31)32)10-9-21-22(12-16-28(21,29)6)30(8)18-13-24(34-30)26(3,4)33/h20-24,33H,1,9-18H2,2-8H3,(H,31,32)/t20-,21+,22-,23+,24-,27-,28+,29+,30-/m0/s1

>  <standard_inchi_key>  (274) 
ZKBGKWZSOPPDSD-ZFQFSHTNSA-N

>  <name>  (274) 
eichlerianic acid

>  <iupac_name>  (274) 
3-[(3~{S},3~{a}~{R},5~{a}~{R},6~{S},7~{S},9~{a}~{R},9~{b}~{R})-3-[(2~{S},5~{S})-5-(1-hydroxy-1-methyl-ethyl)-2-methyl-tetrahydrofuran-2-yl]-7-isopropenyl-6,9~{a},9~{b}-trimethyl-1,2,3,3~{a},4,5,5~{a},7,8,9-decahydrocyclopenta[a]naphthalen-6-yl]propanoic acid

>  <annotation_level>  (274) 
5

>  <total_atom_count>  (274) 
84

>  <heavy_atom_count>  (274) 
34

>  <molecular_weight>  (274) 
474.73

>  <exact_molecular_weight>  (274) 
474.37091

>  <molecular_formula>  (274) 
C30H50O4

>  <alogp>  (274) 
7.00

>  <topological_polar_surface_area>  (274) 
66.76

>  <rotatable_bond_count>  (274) 
6

>  <hydrogen_bond_acceptors>  (274) 
3

>  <hydrogen_bond_donors>  (274) 
2

>  <hydrogen_bond_acceptors_lipinski>  (274) 
3

>  <hydrogen_bond_donors_lipinski>  (274) 
2

>  <lipinski_rule_of_five_violations>  (274) 
1

>  <aromatic_rings_count>  (274) 
0

>  <qed_drug_likeliness>  (274) 
0.41

>  <formal_charge>  (274) 
0

>  <fractioncsp3>  (274) 
0.90

>  <number_of_minimal_rings>  (274) 
4

>  <van_der_walls_volume>  (274) 
479.22

>  <contains_sugar>  (274) 
False

>  <contains_ring_sugars>  (274) 
False

>  <contains_linear_sugars>  (274) 
False

>  <murcko_framework>  (274) 
O1CCCC1C2CCC3C4CCCCC4CCC23

>  <np_likeness>  (274) 
2.90

>  <chemical_class>  (274) 
Prenol lipids

>  <chemical_sub_class>  (274) 
Terpene glycosides

>  <chemical_super_class>  (274) 
Lipids and lipid-like molecules

>  <direct_parent_classification>  (274) 
Diterpene glycosides

>  <np_classifier_pathway>  (274) 
Terpenoids

>  <np_classifier_superclass>  (274) 
Triterpenoids

>  <np_classifier_class>  (274) 
Dammarane and Protostane triterpenoids

>  <np_classifier_is_glycoside>  (274) 
False

>  <organisms>  (274) 
Acacia rhodoxylon|Aglaia abbreviata|Aglaia elaeagnoidea|Aglaia elliptica|Aglaia foveolata|Aglaia lawii|Aglaia leucophylla|Aglaia perviridis|Aglaia rubiginosa|Ailanthus altissima|Cabralea canjerana|Cabralea eichleriana|Cinnamomum aromaticum|Cowania mexicana|Dysoxylum hainanense|Purshia mexicana

>  <collections>  (274) 
Australian natural products|CMAUP (cCollective molecular activities of useful plants)|ChEBI NPs|KNApSaCK|Latin America dataset|NPASS|NuBBEDB|Super Natural II|WikiData Natural Products

>  <dois>  (274) 
10.1016/0031-9422(75)85189-2|10.1016/B978-0-12-013320-8.50007-1|10.1016/J.BSE.2005.10.012|10.1016/J.PHYMED.2009.10.015|10.1016/S0031-9422(00)89545-X|10.1016/S0031-9422(98)00305-7|10.1016/S0031-9422(99)00053-9|10.1016/S0040-4020(97)10231-9|10.1016/j.bse.2005.10.012|10.1021/NP100503Q|10.1021/np100503q|10.1080/10286020903565226|10.1080/14786419.2010.511219

>  <synonyms>  (274) 
(3S,3aR,5aR,6S,7S,9aR,9bR)-Dodecahydro-6,9a,9b-trimethyl-7-(1-methylethenyl)-3-[(2S,5S)-tetrahydro-5-(1-hydroxy-1-methylethyl)-2-methyl-2-furanyl]-1H-benz[e]indene-6-propanoic acid|1H-Benz[e]indene-6-propanoic acid, dodecahydro-6,9a,9b-trimethyl-7-(1-methylethenyl)-3-[tetrahydro-5-(1-hydroxy-1-methylethyl)-2-methyl-2-furanyl]-, [3S-[3(2R*,5R*),3a,5a,6,7,9a,9b]]-|3-[(3S,3aR,5aR,6S,7S,9aR,9bR)-3-[(2S,5S)-5-(2-hydroxypropan-2-yl)-2-methyloxolan-2-yl]-6,9a,9b-trimethyl-7-prop-1-en-2-yl-1,2,3,3a,4,5,5a,7,8,9-decahydrocyclopenta[a]naphthalen-6-yl]propanoic acid|56421-13-7|AKOS032962140|CHEBI:70463|CHEMBL479140|CS-0024247|DTXSID501098817|Eichlerianic acid|Eichlerianic acid, Shoreic acid|FS-10020|HY-N3801|Q27138800

>  <cas>  (274) 
56421-13-7

$$$$

     RDKit          2D

 17 19  0  0  0  0  0  0  0  0999 V2000
    4.3327   -0.4004    0.0000 C   0  0  0  0  0  0  0  0  0  0  0  0
    3.0414    0.3629    0.0000 C   0  0  0  0  0  0  0  0  0  0  0  0
    1.7347   -0.3737    0.0000 C   0  0  0  0  0  0  0  0  0  0  0  0
    1.4078   -1.8377    0.0000 C   0  0  0  0  0  0  0  0  0  0  0  0
    2.4000   -2.9627    0.0000 O   0  0  0  0  0  0  0  0  0  0  0  0
   -0.0855   -1.9792    0.0000 O   0  0  0  0  0  0  0  0  0  0  0  0
   -0.6815   -0.6026    0.0000 C   0  0  0  0  0  0  0  0  0  0  0  0
   -2.1454   -0.2757    0.0000 C   0  0  0  0  0  0  0  0  0  0  0  0
   -3.2704   -1.2679    0.0000 C   0  0  0  0  0  0  0  0  0  0  0  0
   -4.5617   -0.5046    0.0000 O   0  0  0  0  0  0  0  0  0  0  0  0
   -4.2348    0.9593    0.0000 C   0  0  0  0  0  0  0  0  0  0  0  0
   -2.7414    1.1008    0.0000 C   0  0  0  0  0  0  0  0  0  0  0  0
    0.4435    0.3896    0.0000 C   0  0  0  0  0  0  0  0  0  0  0  0
   -0.9205    1.0137    0.0000 C   0  0  0  0  0  0  0  0  0  0  0  0
    0.4589    1.8895    0.0000 C   0  0  0  0  0  0  0  0  0  0  0  0
    1.7655    2.6261    0.0000 C   0  0  0  0  0  0  0  0  0  0  0  0
    3.0568    1.8628    0.0000 C   0  0  0  0  0  0  0  0  0  0  0  0
  1  2  1  0
  2  3  2  0
  3  4  1  0
  4  5  2  0
  4  6  1  0
  6  7  1  0
  7  8  1  1
  8  9  2  0
  9 10  1  0
 10 11  1  0
 11 12  2  0
  7 13  1  0
 13 14  1  1
 13 15  1  0
 15 16  1  0
 16 17  1  0
 17  2  1  0
 13  3  1  0
 12  8  1  0
M  END
>  <identifier>  (275) 
CNP0146263.1

>  <canonical_smiles>  (275) 
CC1=C2C(=O)O[C@@H](C3=COC=C3)[C@]2(C)CCC1

>  <standard_inchi>  (275) 
InChI=1S/C14H16O3/c1-9-4-3-6-14(2)11(9)13(15)17-12(14)10-5-7-16-8-10/h5,7-8,12H,3-4,6H2,1-2H3/t12-,14+/m0/s1

>  <standard_inchi_key>  (275) 
XYYAFLHHHZVPRN-GXTWGEPZSA-N

>  <name>  (275) 
Fraxinellone

>  <iupac_name>  (275) 
(3~{R},3~{a}~{R})-3-(3-furyl)-3~{a},7-dimethyl-3,4,5,6-tetrahydroisobenzofuran-1-one

>  <annotation_level>  (275) 
5

>  <total_atom_count>  (275) 
33

>  <heavy_atom_count>  (275) 
17

>  <molecular_weight>  (275) 
232.28

>  <exact_molecular_weight>  (275) 
232.10994

>  <molecular_formula>  (275) 
C14H16O3

>  <alogp>  (275) 
3.38

>  <topological_polar_surface_area>  (275) 
39.44

>  <rotatable_bond_count>  (275) 
1

>  <hydrogen_bond_acceptors>  (275) 
3

>  <hydrogen_bond_donors>  (275) 
0

>  <hydrogen_bond_acceptors_lipinski>  (275) 
3

>  <hydrogen_bond_donors_lipinski>  (275) 
0

>  <lipinski_rule_of_five_violations>  (275) 
0

>  <aromatic_rings_count>  (275) 
1

>  <qed_drug_likeliness>  (275) 
0.70

>  <formal_charge>  (275) 
0

>  <fractioncsp3>  (275) 
0.50

>  <number_of_minimal_rings>  (275) 
3

>  <van_der_walls_volume>  (275) 
214.74

>  <contains_sugar>  (275) 
False

>  <contains_ring_sugars>  (275) 
False

>  <contains_linear_sugars>  (275) 
False

>  <murcko_framework>  (275) 
o1ccc(c1)C2OCC3=CCCCC32

>  <np_likeness>  (275) 
2.78

>  <chemical_class>  (275) 
Lactones

>  <chemical_sub_class>  (275) 
Gamma butyrolactones

>  <chemical_super_class>  (275) 
Organoheterocyclic compounds

>  <direct_parent_classification>  (275) 
Gamma butyrolactones

>  <np_classifier_pathway>  (275) 
Terpenoids

>  <np_classifier_superclass>  (275) 
Sesquiterpenoids

>  <np_classifier_class>  (275) 
nan

>  <np_classifier_is_glycoside>  (275) 
False

>  <organisms>  (275) 
Ageratina saltillensis|Boophone disticha|Chrysanthemum poteriifolium|Cyathus earlei|Dictamnus|Dictamnus albus|Dictamnus albus L.|Dictamnus angustifolius|Dictamnus dasycarpus|Dictamnus radicis Cortex|Dictamnus sp.|Dictamus albus|Esenbeckia hartmanii|Fagaropsis glabra|Grewia villosa|Mammillaria infernillensis|Melia Azedarach|Melia azedarach|Raulinoa echinata|Rutaceae|Salta triflora|Salvia polystachya|Streptomyces chryseus|Trifolium montanum

>  <collections>  (275) 
AnalytiCon Discovery NPs|Australian natural products|CMAUP (cCollective molecular activities of useful plants)|ETM (Ethiopian Traditional Medicine) DB|GNPS (Global Natural Products Social Molecular Networking)|InflamNat|KNApSaCK|Latin America dataset|NPASS|NPEdia|NuBBEDB|PhytoLab phyproof® Reference Substances|Specs Natural Products|Super Natural II|TCMDB-Taiwan (Traditional Chinese Medicine database)|TIPdb (database of Taiwan indigenous plants)|VietHerb|WikiData Natural Products|ZINC NP

>  <dois>  (275) 
10.1002/ARDP.19302680108|10.1007/BF00168697|10.1016/0031-9422(90)80152-7|10.1016/0040-4020(73)80105-X|10.1016/S0031-9422(00)83045-9|10.1016/S0031-9422(02)00107-3|10.1016/S0031-9422(97)00541-4|10.1016/S0031-9422(97)00542-6|10.1016/S0031-9422(98)00262-3|10.1016/S0031-9422(98)00519-6|10.1016/S0165-1161(96)90341-6|10.1016/s0031-9422(02)00107-3|10.1021/JF00054A003|10.1021/JF010838L|10.1021/NP070588O|10.1021/np070588o|10.1055/S-2006-962756|10.1248/CPB.41.923|10.1248/CPB.56.102|10.1248/YAKUSHI1881.55.10_1153|10.1248/bpb.32.1062|10.1590/S0103-50532005000800025

>  <synonyms>  (275) 
(3R*,3aR*)-3-(3-furanyl)-3a,4,5,6- tetrahydro-3a,7-dimethyl-2-benzofuran-1(3H)-one|(3R,3aR)-3-(3-Furanyl)-3a,4,5,6-tetrahydro-3a,7-dimethyl-1(3H)-isobenzofuranone|(3R,3aR)-3-(furan-3-yl)-3a,7-dimethyl-3,4,5,6-tetrahydro-2-benzofuran-1-one|1(3H)-Isobenzofuranone, 3-(3-furanyl)-3a,4,5,6-tetrahydro-3a,7-dimethyl-, (3R,3aR)-|28808-62-0|2HP328XN7C|3-(Furan-3-yl)-3a,7-dimethyl-3a,4,5,6-tetrahydro-2-benzofuran-1(3H)-one|A876614|AC-35090|AKOS021768192|BS-16428|CCG-266803|CHEBI:181043|CHEMBL257170|CS-0008274|DTXSID30951450|F1187|Fraxinellone|Fraxinellone, >=98% (HPLC)|HMS3886L16|HY-N0242|MFCD11101451|NCGC00385492-01|NCI60_012928|NSC638730|Phthalide, 3-(3-furyl)-3a,4,5,6-tetrahydro-3a,7-dimethyl-|Q-100363|Rutaceae|SCHEMBL17503653|s9100

>  <cas>  (275) 
28808-62-0

$$$$

     RDKit          2D

 16 16  0  0  0  0  0  0  0  0999 V2000
   -4.9345   -0.6667    0.0000 C   0  0  0  0  0  0  0  0  0  0  0  0
   -3.6947   -1.5111    0.0000 O   0  0  0  0  0  0  0  0  0  0  0  0
   -2.3436   -0.8596    0.0000 C   0  0  0  0  0  0  0  0  0  0  0  0
   -2.2322    0.6362    0.0000 C   0  0  0  0  0  0  0  0  0  0  0  0
   -0.8811    1.2877    0.0000 C   0  0  0  0  0  0  0  0  0  0  0  0
   -0.7697    2.7836    0.0000 O   0  0  0  0  0  0  0  0  0  0  0  0
   -2.0095    3.6280    0.0000 C   0  0  0  0  0  0  0  0  0  0  0  0
    0.3587    0.4433    0.0000 C   0  0  0  0  0  0  0  0  0  0  0  0
    1.7098    1.0948    0.0000 C   0  0  0  0  0  0  0  0  0  0  0  0
    2.9496    0.2505    0.0000 C   0  0  0  0  0  0  0  0  0  0  0  0
    4.3007    0.9019    0.0000 C   0  0  0  0  0  0  0  0  0  0  0  0
    5.5405    0.0576    0.0000 O   0  0  0  0  0  0  0  0  0  0  0  0
    0.2473   -1.0525    0.0000 C   0  0  0  0  0  0  0  0  0  0  0  0
    1.4871   -1.8969    0.0000 O   0  0  0  0  0  0  0  0  0  0  0  0
    1.3757   -3.3927    0.0000 C   0  0  0  0  0  0  0  0  0  0  0  0
   -1.1038   -1.7040    0.0000 C   0  0  0  0  0  0  0  0  0  0  0  0
  1  2  1  0
  2  3  1  0
  3  4  2  0
  4  5  1  0
  5  6  1  0
  6  7  1  0
  5  8  2  0
  8  9  1  0
  9 10  2  0
 10 11  1  0
 11 12  2  0
  8 13  1  0
 13 14  1  0
 14 15  1  0
 13 16  2  0
 16  3  1  0
M  END
>  <identifier>  (276) 
CNP0080552.1

>  <canonical_smiles>  (276) 
COC1=CC(OC)=C(/C=C/C=O)C(OC)=C1

>  <standard_inchi>  (276) 
InChI=1S/C12H14O4/c1-14-9-7-11(15-2)10(5-4-6-13)12(8-9)16-3/h4-8H,1-3H3/b5-4+

>  <standard_inchi_key>  (276) 
ZHRKDNDVZCPRBF-SNAWJCMRSA-N

>  <name>  (276) 
nan

>  <iupac_name>  (276) 
nan

>  <annotation_level>  (276) 
0

>  <total_atom_count>  (276) 
30

>  <heavy_atom_count>  (276) 
16

>  <molecular_weight>  (276) 
222.24

>  <exact_molecular_weight>  (276) 
222.08921

>  <molecular_formula>  (276) 
C12H14O4

>  <alogp>  (276) 
1.92

>  <topological_polar_surface_area>  (276) 
44.76

>  <rotatable_bond_count>  (276) 
5

>  <hydrogen_bond_acceptors>  (276) 
4

>  <hydrogen_bond_donors>  (276) 
0

>  <hydrogen_bond_acceptors_lipinski>  (276) 
4

>  <hydrogen_bond_donors_lipinski>  (276) 
0

>  <lipinski_rule_of_five_violations>  (276) 
0

>  <aromatic_rings_count>  (276) 
1

>  <qed_drug_likeliness>  (276) 
0.56

>  <formal_charge>  (276) 
0

>  <fractioncsp3>  (276) 
0.25

>  <number_of_minimal_rings>  (276) 
1

>  <van_der_walls_volume>  (276) 
206.03

>  <contains_sugar>  (276) 
False

>  <contains_ring_sugars>  (276) 
False

>  <contains_linear_sugars>  (276) 
False

>  <murcko_framework>  (276) 
c1ccccc1

>  <np_likeness>  (276) 
0.81

>  <chemical_class>  (276) 
nan

>  <chemical_sub_class>  (276) 
nan

>  <chemical_super_class>  (276) 
nan

>  <direct_parent_classification>  (276) 
nan

>  <np_classifier_pathway>  (276) 
Polyketides

>  <np_classifier_superclass>  (276) 
nan

>  <np_classifier_class>  (276) 
nan

>  <np_classifier_is_glycoside>  (276) 
False

>  <organisms>  (276) 
Siphoneugena densiflora

>  <collections>  (276) 
Latin America dataset|NuBBEDB|WikiData Natural Products|ZINC NP

>  <dois>  (276) 
10.1002/PS.1278|10.1002/ps.1278

>  <synonyms>  (276) 
nan

>  <cas>  (276) 
nan

$$$$

     RDKit          2D

 24 28  0  0  0  0  0  0  0  0999 V2000
   -0.5575   -3.3081    0.0000 C   0  0  0  0  0  0  0  0  0  0  0  0
    0.6574   -2.4283    0.0000 C   0  0  0  0  0  0  0  0  0  0  0  0
    0.5029   -0.9363    0.0000 C   0  0  0  0  0  0  0  0  0  0  0  0
   -0.8665   -0.3241    0.0000 C   0  0  0  0  0  0  0  0  0  0  0  0
   -1.0210    1.1679    0.0000 C   0  0  0  0  0  0  0  0  0  0  0  0
   -2.3904    1.7802    0.0000 C   0  0  0  0  0  0  0  0  0  0  0  0
   -3.6052    0.9004    0.0000 C   0  0  0  0  0  0  0  0  0  0  0  0
   -5.0720    1.2145    0.0000 O   0  0  0  0  0  0  0  0  0  0  0  0
   -5.8240   -0.0834    0.0000 C   0  0  0  0  0  0  0  0  0  0  0  0
   -4.8220   -1.1997    0.0000 O   0  0  0  0  0  0  0  0  0  0  0  0
   -3.4507   -0.5917    0.0000 C   0  0  0  0  0  0  0  0  0  0  0  0
   -2.0814   -1.2039    0.0000 C   0  0  0  0  0  0  0  0  0  0  0  0
    1.7178   -0.0565    0.0000 C   0  0  0  0  0  0  0  0  0  0  0  0
    3.0871   -0.6687    0.0000 C   0  0  0  0  0  0  0  0  0  0  0  0
    4.3020    0.2111    0.0000 C   0  0  0  0  0  0  0  0  0  0  0  0
    4.1475    1.7031    0.0000 C   0  0  0  0  0  0  0  0  0  0  0  0
    2.7782    2.3153    0.0000 C   0  0  0  0  0  0  0  0  0  0  0  0
    1.5633    1.4355    0.0000 C   0  0  0  0  0  0  0  0  0  0  0  0
    0.3511    2.3191    0.0000 O   0  0  0  0  0  0  0  0  0  0  0  0
    0.8169    3.7449    0.0000 C   0  0  0  0  0  0  0  0  0  0  0  0
    2.3168    3.7426    0.0000 O   0  0  0  0  0  0  0  0  0  0  0  0
    3.2416   -2.1608    0.0000 C   0  0  0  0  0  0  0  0  0  0  0  0
    2.0267   -3.0406    0.0000 C   0  0  0  0  0  0  0  0  0  0  0  0
    2.1812   -4.5326    0.0000 C   0  0  0  0  0  0  0  0  0  0  0  0
  2  1  1  1
  2  3  1  0
  3  4  1  6
  4  5  2  0
  5  6  1  0
  6  7  2  0
  7  8  1  0
  8  9  1  0
  9 10  1  0
 10 11  1  0
 11 12  2  0
  3 13  1  0
 13 14  2  0
 14 15  1  0
 15 16  2  0
 16 17  1  0
 17 18  2  0
 18 19  1  0
 19 20  1  0
 20 21  1  0
 14 22  1  0
 22 23  1  0
 23 24  1  6
 23  2  1  0
 12  4  1  0
 18 13  1  0
 11  7  1  0
 21 17  1  0
M  END
>  <identifier>  (277) 
CNP0144450.2

>  <canonical_smiles>  (277) 
C[C@H]1[C@H](C2=CC=C3OCOC3=C2)C2=C(C=CC3=C2OCO3)C[C@@H]1C

>  <standard_inchi>  (277) 
InChI=1S/C20H20O4/c1-11-7-13-4-6-16-20(24-10-22-16)19(13)18(12(11)2)14-3-5-15-17(8-14)23-9-21-15/h3-6,8,11-12,18H,7,9-10H2,1-2H3/t11-,12+,18+/m0/s1

>  <standard_inchi_key>  (277) 
HTUIKPYRGODLDO-VNBZBWLYSA-N

>  <name>  (277) 
Otobain

>  <iupac_name>  (277) 
(7~{S},8~{R},9~{R})-9-(1,3-benzodioxol-5-yl)-7,8-dimethyl-6,7,8,9-tetrahydrobenzo[e][1,3]benzodioxole

>  <annotation_level>  (277) 
5

>  <total_atom_count>  (277) 
44

>  <heavy_atom_count>  (277) 
24

>  <molecular_weight>  (277) 
324.38

>  <exact_molecular_weight>  (277) 
324.13616

>  <molecular_formula>  (277) 
C20H20O4

>  <alogp>  (277) 
4.10

>  <topological_polar_surface_area>  (277) 
36.92

>  <rotatable_bond_count>  (277) 
1

>  <hydrogen_bond_acceptors>  (277) 
4

>  <hydrogen_bond_donors>  (277) 
0

>  <hydrogen_bond_acceptors_lipinski>  (277) 
4

>  <hydrogen_bond_donors_lipinski>  (277) 
0

>  <lipinski_rule_of_five_violations>  (277) 
0

>  <aromatic_rings_count>  (277) 
2

>  <qed_drug_likeliness>  (277) 
0.79

>  <formal_charge>  (277) 
0

>  <fractioncsp3>  (277) 
0.40

>  <number_of_minimal_rings>  (277) 
5

>  <van_der_walls_volume>  (277) 
289.84

>  <contains_sugar>  (277) 
False

>  <contains_ring_sugars>  (277) 
False

>  <contains_linear_sugars>  (277) 
False

>  <murcko_framework>  (277) 
O1c2ccc(cc2OC1)C3c4c5OCOc5ccc4CCC3

>  <np_likeness>  (277) 
1.37

>  <chemical_class>  (277) 
Aryltetralin lignans

>  <chemical_sub_class>  (277) 
Aryltetralin lignans

>  <chemical_super_class>  (277) 
Lignans, neolignans and related compounds

>  <direct_parent_classification>  (277) 
Aryltetralin lignans

>  <np_classifier_pathway>  (277) 
Shikimates and Phenylpropanoids

>  <np_classifier_superclass>  (277) 
Lignans

>  <np_classifier_class>  (277) 
Arylnaphthalene and aryltetralin lignans

>  <np_classifier_is_glycoside>  (277) 
False

>  <organisms>  (277) 
Myristica cagayanensis|Myristica otoba|Otoba novogranatensis|Peucedanum ostruthium|Staudtia kamerunensis|Virola sebifera

>  <collections>  (277) 
CMAUP (cCollective molecular activities of useful plants)|ChEBI NPs|Latin America dataset|NPASS|NuBBEDB|Super Natural II|TCMDB-Taiwan (Traditional Chinese Medicine database)|WikiData Natural Products|ZINC NP

>  <dois>  (277) 
10.1002/1099-1565(200011/12)11:6<383::AID-PCA543>3.0.CO,2-M|10.1002/1099-1565(200011/12)11:6<383::AID-PCA543>3.0.CO;2-M|10.1002/JLAC.18540910312|10.1021/JA01434A028|10.1076/PHBI.37.2.155.6088|10.1248/CPB.37.2310

>  <synonyms>  (277) 
(7S,8R,9R)-9-(1,3-benzodioxol-5-yl)-7,8-dimethyl-6,7,8,9-tetrahydrobenzo[g][1,3]benzodioxole|1TL45YF84D|3738-01-0|CHEBI:7803|NSC-119120|NSC-407222|Naphtho(1,2-d)-1,3-dioxole, 9-(1,3-benzodioxol-5-yl)-6,7,8,9-tetrahydro-7,8-dimethyl-, (7S,8R,9R)-|Otobain|Otobain [MI]|Q27107589|UNII-1TL45YF84D

>  <cas>  (277) 
3738-01-0

$$$$

     RDKit          2D

 26 27  0  0  0  0  0  0  0  0999 V2000
   -9.8564    1.8044    0.0000 C   0  0  0  0  0  0  0  0  0  0  0  0
  -10.7397    0.5921    0.0000 C   0  0  0  0  0  0  0  0  0  0  0  0
  -11.6230   -0.6203    0.0000 C   0  0  0  0  0  0  0  0  0  0  0  0
  -11.9521    1.4754    0.0000 O   0  0  0  0  0  0  0  0  0  0  0  0
   -9.5274   -0.2912    0.0000 C   0  0  0  0  0  0  0  0  0  0  0  0
   -8.1562    0.3171    0.0000 C   0  0  0  0  0  0  0  0  0  0  0  0
   -6.9439   -0.5662    0.0000 C   0  0  0  0  0  0  0  0  0  0  0  0
   -5.5728    0.0421    0.0000 C   0  0  0  0  0  0  0  0  0  0  0  0
   -4.3604   -0.8412    0.0000 C   0  0  0  0  0  0  0  0  0  0  0  0
   -2.9893   -0.2330    0.0000 C   0  0  0  0  0  0  0  0  0  0  0  0
   -1.7769   -1.1163    0.0000 C   0  0  0  0  0  0  0  0  0  0  0  0
   -0.4058   -0.5080    0.0000 C   0  0  0  0  0  0  0  0  0  0  0  0
    0.8066   -1.3913    0.0000 C   0  0  0  0  0  0  0  0  0  0  0  0
    2.1777   -0.7830    0.0000 C   0  0  0  0  0  0  0  0  0  0  0  0
    3.3900   -1.6663    0.0000 C   0  0  0  0  0  0  0  0  0  0  0  0
    4.7612   -1.0580    0.0000 C   0  0  0  0  0  0  0  0  0  0  0  0
    5.9735   -1.9413    0.0000 C   0  0  0  0  0  0  0  0  0  0  0  0
    7.3446   -1.3330    0.0000 C   0  0  0  0  0  0  0  0  0  0  0  0
    8.5570   -2.2163    0.0000 O   0  0  0  0  0  0  0  0  0  0  0  0
    7.5034    0.1585    0.0000 C   0  0  0  0  0  0  0  0  0  0  0  0
    8.8746    0.7668    0.0000 C   0  0  0  0  0  0  0  0  0  0  0  0
    9.0333    2.2584    0.0000 C   0  0  0  0  0  0  0  0  0  0  0  0
    7.8210    3.1417    0.0000 C   0  0  0  0  0  0  0  0  0  0  0  0
    6.4499    2.5334    0.0000 C   0  0  0  0  0  0  0  0  0  0  0  0
    6.2911    1.0418    0.0000 C   0  0  0  0  0  0  0  0  0  0  0  0
    4.9199    0.4336    0.0000 N   0  0  0  0  0  0  0  0  0  0  0  0
  1  2  1  0
  2  3  1  0
  2  4  1  0
  2  5  1  0
  5  6  1  0
  6  7  1  0
  7  8  1  0
  8  9  1  0
  9 10  1  0
 10 11  1  0
 11 12  1  0
 12 13  1  0
 13 14  1  0
 14 15  1  0
 15 16  1  0
 16 17  2  0
 17 18  1  0
 18 19  2  0
 18 20  1  0
 20 21  2  0
 21 22  1  0
 22 23  2  0
 23 24  1  0
 24 25  2  0
 25 26  1  0
 26 16  1  0
 25 20  1  0
M  END
>  <identifier>  (278) 
CNP0171945.0

>  <canonical_smiles>  (278) 
CC(C)(O)CCCCCCCCCCCC1=CC(=O)C2=CC=CC=C2N1

>  <standard_inchi>  (278) 
InChI=1S/C23H35NO2/c1-23(2,26)17-13-9-7-5-3-4-6-8-10-14-19-18-22(25)20-15-11-12-16-21(20)24-19/h11-12,15-16,18,26H,3-10,13-14,17H2,1-2H3,(H,24,25)

>  <standard_inchi_key>  (278) 
MYMYSGUFPZXICQ-UHFFFAOYSA-N

>  <name>  (278) 
nan

>  <iupac_name>  (278) 
2-(12-hydroxy-12-methyl-tridecyl)-1~{H}-quinolin-4-one

>  <annotation_level>  (278) 
4

>  <total_atom_count>  (278) 
61

>  <heavy_atom_count>  (278) 
26

>  <molecular_weight>  (278) 
357.54

>  <exact_molecular_weight>  (278) 
357.26678

>  <molecular_formula>  (278) 
C23H35NO2

>  <alogp>  (278) 
5.74

>  <topological_polar_surface_area>  (278) 
53.09

>  <rotatable_bond_count>  (278) 
12

>  <hydrogen_bond_acceptors>  (278) 
2

>  <hydrogen_bond_donors>  (278) 
2

>  <hydrogen_bond_acceptors_lipinski>  (278) 
2

>  <hydrogen_bond_donors_lipinski>  (278) 
2

>  <lipinski_rule_of_five_violations>  (278) 
1

>  <aromatic_rings_count>  (278) 
2

>  <qed_drug_likeliness>  (278) 
0.48

>  <formal_charge>  (278) 
0

>  <fractioncsp3>  (278) 
0.61

>  <number_of_minimal_rings>  (278) 
2

>  <van_der_walls_volume>  (278) 
nan

>  <contains_sugar>  (278) 
False

>  <contains_ring_sugars>  (278) 
False

>  <contains_linear_sugars>  (278) 
False

>  <murcko_framework>  (278) 
c1ccc2c(c1)NC=CC2

>  <np_likeness>  (278) 
0.46

>  <chemical_class>  (278) 
Quinolines and derivatives

>  <chemical_sub_class>  (278) 
Quinolones and derivatives

>  <chemical_super_class>  (278) 
Organoheterocyclic compounds

>  <direct_parent_classification>  (278) 
Hydroquinolones

>  <np_classifier_pathway>  (278) 
Alkaloids

>  <np_classifier_superclass>  (278) 
Tryptophan alkaloids

>  <np_classifier_class>  (278) 
Quinoline alkaloids

>  <np_classifier_is_glycoside>  (278) 
False

>  <organisms>  (278) 
Dictyoloma vandellianum

>  <collections>  (278) 
Latin America dataset|NuBBEDB|UNPD (Universal Natural Products Database)|WikiData Natural Products|ZINC NP

>  <dois>  (278) 
10.1016/S0031-9422(03)00006-2

>  <synonyms>  (278) 
2-(12'-hydroxy-12'-methyltridecanyl)-4-quinolone

>  <cas>  (278) 
nan

$$$$

     RDKit          2D

 10  9  0  0  0  0  0  0  0  0999 V2000
    4.9295    0.2604    0.0000 C   0  0  0  0  0  0  0  0  0  0  0  0
    3.6718   -0.5571    0.0000 C   0  0  0  0  0  0  0  0  0  0  0  0
    2.3350    0.1233    0.0000 C   0  0  0  0  0  0  0  0  0  0  0  0
    1.0773   -0.6941    0.0000 C   0  0  0  0  0  0  0  0  0  0  0  0
   -0.2594   -0.0137    0.0000 C   0  0  0  0  0  0  0  0  0  0  0  0
   -0.3386    1.4842    0.0000 O   0  0  0  0  0  0  0  0  0  0  0  0
   -1.5171   -0.8312    0.0000 C   0  0  0  0  0  0  0  0  0  0  0  0
   -2.8539   -0.1507    0.0000 C   0  0  0  0  0  0  0  0  0  0  0  0
   -4.1116   -0.9682    0.0000 C   0  0  0  0  0  0  0  0  0  0  0  0
   -2.9330    1.3472    0.0000 C   0  0  0  0  0  0  0  0  0  0  0  0
  1  2  1  0
  2  3  1  0
  3  4  1  0
  4  5  1  0
  5  6  1  1
  5  7  1  0
  7  8  1  0
  8  9  1  0
  8 10  1  0
M  END
>  <identifier>  (279) 
CNP0080555.2

>  <canonical_smiles>  (279) 
CCCC[C@H](O)CC(C)C

>  <standard_inchi>  (279) 
InChI=1S/C9H20O/c1-4-5-6-9(10)7-8(2)3/h8-10H,4-7H2,1-3H3/t9-/m0/s1

>  <standard_inchi_key>  (279) 
BIAVIOIDPRPYJK-VIFPVBQESA-N

>  <name>  (279) 
2-Methyloctan-4S-ol

>  <iupac_name>  (279) 
(4~{S})-2-methyloctan-4-ol

>  <annotation_level>  (279) 
5

>  <total_atom_count>  (279) 
30

>  <heavy_atom_count>  (279) 
10

>  <molecular_weight>  (279) 
144.26

>  <exact_molecular_weight>  (279) 
144.15142

>  <molecular_formula>  (279) 
C9H20O

>  <alogp>  (279) 
2.58

>  <topological_polar_surface_area>  (279) 
20.23

>  <rotatable_bond_count>  (279) 
5

>  <hydrogen_bond_acceptors>  (279) 
1

>  <hydrogen_bond_donors>  (279) 
1

>  <hydrogen_bond_acceptors_lipinski>  (279) 
1

>  <hydrogen_bond_donors_lipinski>  (279) 
1

>  <lipinski_rule_of_five_violations>  (279) 
0

>  <aromatic_rings_count>  (279) 
0

>  <qed_drug_likeliness>  (279) 
0.63

>  <formal_charge>  (279) 
0

>  <fractioncsp3>  (279) 
1.00

>  <number_of_minimal_rings>  (279) 
0

>  <van_der_walls_volume>  (279) 
nan

>  <contains_sugar>  (279) 
False

>  <contains_ring_sugars>  (279) 
False

>  <contains_linear_sugars>  (279) 
False

>  <murcko_framework>  (279) 
nan

>  <np_likeness>  (279) 
1.26

>  <chemical_class>  (279) 
Organooxygen compounds

>  <chemical_sub_class>  (279) 
Alcohols and polyols

>  <chemical_super_class>  (279) 
Organic oxygen compounds

>  <direct_parent_classification>  (279) 
Secondary alcohols

>  <np_classifier_pathway>  (279) 
Fatty acids

>  <np_classifier_superclass>  (279) 
Fatty acyls

>  <np_classifier_class>  (279) 
Fatty alcohols

>  <np_classifier_is_glycoside>  (279) 
False

>  <organisms>  (279) 
Sphenophorus levis

>  <collections>  (279) 
Latin America dataset|NuBBEDB|ZINC NP

>  <dois>  (279) 
10.1023/A:1022634012212

>  <synonyms>  (279) 
(4S)-2-METHYLOCTAN-4-OL|(S)-2-Methyl-4-Octanol|(s)-2-methyl-4-octanol|CHEBI:178396|LMFA05000491

>  <cas>  (279) 
nan

$$$$

     RDKit          2D

 20 22  0  0  0  0  0  0  0  0999 V2000
    4.0470    2.1800    0.0000 C   0  0  0  0  0  0  0  0  0  0  0  0
    2.5470    2.1823    0.0000 C   0  0  0  0  0  0  0  0  0  0  0  0
    1.6671    3.3971    0.0000 C   0  0  0  0  0  0  0  0  0  0  0  0
    0.2399    2.9357    0.0000 O   0  0  0  0  0  0  0  0  0  0  0  0
    0.2376    1.4357    0.0000 C   0  0  0  0  0  0  0  0  0  0  0  0
   -0.9772    0.5559    0.0000 C   0  0  0  0  0  0  0  0  0  0  0  0
   -0.8227   -0.9362    0.0000 C   0  0  0  0  0  0  0  0  0  0  0  0
   -2.0375   -1.8160    0.0000 C   0  0  0  0  0  0  0  0  0  0  0  0
   -3.4069   -1.2039    0.0000 C   0  0  0  0  0  0  0  0  0  0  0  0
   -4.7782   -1.8119    0.0000 N   0  0  0  0  0  0  0  0  0  0  0  0
   -5.7802   -0.6957    0.0000 C   0  0  0  0  0  0  0  0  0  0  0  0
   -5.0282    0.6022    0.0000 C   0  0  0  0  0  0  0  0  0  0  0  0
   -3.5615    0.2882    0.0000 C   0  0  0  0  0  0  0  0  0  0  0  0
   -2.3466    1.1680    0.0000 C   0  0  0  0  0  0  0  0  0  0  0  0
    1.6635    0.9701    0.0000 C   0  0  0  0  0  0  0  0  0  0  0  0
    2.1249   -0.4572    0.0000 C   0  0  0  0  0  0  0  0  0  0  0  0
    3.5916   -0.7713    0.0000 C   0  0  0  0  0  0  0  0  0  0  0  0
    4.0530   -2.1986    0.0000 C   0  0  0  0  0  0  0  0  0  0  0  0
    5.5198   -2.5126    0.0000 C   0  0  0  0  0  0  0  0  0  0  0  0
    3.0477   -3.3118    0.0000 C   0  0  0  0  0  0  0  0  0  0  0  0
  1  2  2  0
  2  3  1  0
  3  4  1  0
  4  5  1  0
  5  6  1  6
  6  7  2  0
  7  8  1  0
  8  9  2  0
  9 10  1  0
 10 11  1  0
 11 12  2  0
 12 13  1  0
 13 14  2  0
  5 15  1  0
 15 16  1  1
 16 17  1  0
 17 18  2  0
 18 19  1  0
 18 20  1  0
 15  2  1  0
 14  6  1  0
 13  9  1  0
M  END
>  <identifier>  (280) 
CNP0155673.1

>  <canonical_smiles>  (280) 
C=C1CO[C@@H](C2=CC=C3NC=CC3=C2)[C@@H]1CC=C(C)C

>  <standard_inchi>  (280) 
InChI=1S/C18H21NO/c1-12(2)4-6-16-13(3)11-20-18(16)15-5-7-17-14(10-15)8-9-19-17/h4-5,7-10,16,18-19H,3,6,11H2,1-2H3/t16-,18+/m1/s1

>  <standard_inchi_key>  (280) 
GUYHUNOTZXAXFK-AEFFLSMTSA-N

>  <name>  (280) 
nan

>  <iupac_name>  (280) 
5-[(2~{R},3~{R})-3-(3-methylbut-2-enyl)-4-methylene-tetrahydrofuran-2-yl]-1~{H}-indole

>  <annotation_level>  (280) 
4

>  <total_atom_count>  (280) 
41

>  <heavy_atom_count>  (280) 
20

>  <molecular_weight>  (280) 
267.37

>  <exact_molecular_weight>  (280) 
267.16231

>  <molecular_formula>  (280) 
C18H21NO

>  <alogp>  (280) 
4.77

>  <topological_polar_surface_area>  (280) 
25.02

>  <rotatable_bond_count>  (280) 
3

>  <hydrogen_bond_acceptors>  (280) 
1

>  <hydrogen_bond_donors>  (280) 
1

>  <hydrogen_bond_acceptors_lipinski>  (280) 
1

>  <hydrogen_bond_donors_lipinski>  (280) 
1

>  <lipinski_rule_of_five_violations>  (280) 
0

>  <aromatic_rings_count>  (280) 
2

>  <qed_drug_likeliness>  (280) 
0.80

>  <formal_charge>  (280) 
0

>  <fractioncsp3>  (280) 
0.33

>  <number_of_minimal_rings>  (280) 
3

>  <van_der_walls_volume>  (280) 
nan

>  <contains_sugar>  (280) 
False

>  <contains_ring_sugars>  (280) 
False

>  <contains_linear_sugars>  (280) 
False

>  <murcko_framework>  (280) 
O1CCCC1c2ccc3[nH]ccc3c2

>  <np_likeness>  (280) 
1.67

>  <chemical_class>  (280) 
Prenol lipids

>  <chemical_sub_class>  (280) 
Monoterpenoids

>  <chemical_super_class>  (280) 
Lipids and lipid-like molecules

>  <direct_parent_classification>  (280) 
Bicyclic monoterpenoids

>  <np_classifier_pathway>  (280) 
Alkaloids

>  <np_classifier_superclass>  (280) 
Tryptophan alkaloids

>  <np_classifier_class>  (280) 
Simple indole alkaloids

>  <np_classifier_is_glycoside>  (280) 
False

>  <organisms>  (280) 
Raputia praetermissa

>  <collections>  (280) 
Latin America dataset|NuBBEDB|WikiData Natural Products

>  <dois>  (280) 
10.1590/S0103-50532011000700021

>  <synonyms>  (280) 
Raputimonoindole A

>  <cas>  (280) 
nan

$$$$

     RDKit          2D

 62 67  0  0  0  0  0  0  0  0999 V2000
   -2.2038    6.6374    0.0000 C   0  0  0  0  0  0  0  0  0  0  0  0
   -1.1427    5.5772    0.0000 C   0  0  0  0  0  0  0  0  0  0  0  0
    0.2478    6.1396    0.0000 O   0  0  0  0  0  0  0  0  0  0  0  0
   -1.5304    4.1281    0.0000 O   0  0  0  0  0  0  0  0  0  0  0  0
   -0.4694    3.0679    0.0000 C   0  0  0  0  0  0  0  0  0  0  0  0
   -0.8571    1.6188    0.0000 C   0  0  0  0  0  0  0  0  0  0  0  0
   -2.3058    1.2301    0.0000 C   0  0  0  0  0  0  0  0  0  0  0  0
   -3.3669    2.2903    0.0000 O   0  0  0  0  0  0  0  0  0  0  0  0
   -4.8156    1.9016    0.0000 C   0  0  0  0  0  0  0  0  0  0  0  0
   -5.8767    2.9618    0.0000 C   0  0  0  0  0  0  0  0  0  0  0  0
   -5.2033    0.4525    0.0000 O   0  0  0  0  0  0  0  0  0  0  0  0
   -2.6935   -0.2190    0.0000 C   0  0  0  0  0  0  0  0  0  0  0  0
   -4.1422   -0.6077    0.0000 O   0  0  0  0  0  0  0  0  0  0  0  0
   -4.5299   -2.0568    0.0000 C   0  0  0  0  0  0  0  0  0  0  0  0
   -5.9787   -2.4455    0.0000 O   0  0  0  0  0  0  0  0  0  0  0  0
   -6.3664   -3.8946    0.0000 C   0  0  0  0  0  0  0  0  0  0  0  0
   -5.3053   -4.9548    0.0000 C   0  0  0  0  0  0  0  0  0  0  0  0
   -5.6930   -6.4039    0.0000 C   0  0  0  0  0  0  0  0  0  0  0  0
   -7.1417   -6.7926    0.0000 C   0  0  0  0  0  0  0  0  0  0  0  0
   -8.2028   -5.7324    0.0000 C   0  0  0  0  0  0  0  0  0  0  0  0
   -7.8151   -4.2833    0.0000 C   0  0  0  0  0  0  0  0  0  0  0  0
   -1.6324   -1.2792    0.0000 C   0  0  0  0  0  0  0  0  0  0  0  0
   -1.2472    0.1705    0.0000 C   0  0  0  0  0  0  0  0  0  0  0  0
   -2.1936    1.3342    0.0000 O   0  0  0  0  0  0  0  0  0  0  0  0
   -3.6746    1.0965    0.0000 C   0  0  0  0  0  0  0  0  0  0  0  0
   -4.8745    1.9967    0.0000 C   0  0  0  0  0  0  0  0  0  0  0  0
   -4.5325   -0.1339    0.0000 O   0  0  0  0  0  0  0  0  0  0  0  0
    0.3784    0.7331    0.0000 C   0  0  0  0  0  0  0  0  0  0  0  0
   -0.3198   -0.5945    0.0000 O   0  0  0  0  0  0  0  0  0  0  0  0
   -0.3727   -2.0936    0.0000 C   0  0  0  0  0  0  0  0  0  0  0  0
   -1.8460   -2.3755    0.0000 C   0  0  0  0  0  0  0  0  0  0  0  0
    0.2299   -3.4672    0.0000 C   0  0  0  0  0  0  0  0  0  0  0  0
    1.3689   -4.4432    0.0000 O   0  0  0  0  0  0  0  0  0  0  0  0
    2.8186   -4.8285    0.0000 C   0  0  0  0  0  0  0  0  0  0  0  0
    2.7656   -6.3275    0.0000 O   0  0  0  0  0  0  0  0  0  0  0  0
    4.2919   -4.5466    0.0000 C   0  0  0  0  0  0  0  0  0  0  0  0
    4.4629   -6.0368    0.0000 C   0  0  0  0  0  0  0  0  0  0  0  0
    5.8390   -6.6338    0.0000 C   0  0  0  0  0  0  0  0  0  0  0  0
    7.0440   -5.7405    0.0000 C   0  0  0  0  0  0  0  0  0  0  0  0
    6.8730   -4.2503    0.0000 N   0  0  0  0  0  0  0  0  0  0  0  0
    5.4969   -3.6533    0.0000 C   0  0  0  0  0  0  0  0  0  0  0  0
    6.1951   -2.3257    0.0000 C   0  0  0  0  0  0  0  0  0  0  0  0
    7.6448   -2.7109    0.0000 C   0  0  0  0  0  0  0  0  0  0  0  0
    6.2481   -0.8266    0.0000 C   0  0  0  0  0  0  0  0  0  0  0  0
    7.7213   -0.5447    0.0000 C   0  0  0  0  0  0  0  0  0  0  0  0
    5.6454    0.5470    0.0000 C   0  0  0  0  0  0  0  0  0  0  0  0
    6.8504    1.4402    0.0000 O   0  0  0  0  0  0  0  0  0  0  0  0
    4.5064    1.5230    0.0000 O   0  0  0  0  0  0  0  0  0  0  0  0
    3.0567    1.9083    0.0000 C   0  0  0  0  0  0  0  0  0  0  0  0
    1.2910    3.0803    0.0000 C   0  0  0  0  0  0  0  0  0  0  0  0
    1.9432    4.4311    0.0000 O   0  0  0  0  0  0  0  0  0  0  0  0
    3.4391    4.5417    0.0000 C   0  0  0  0  0  0  0  0  0  0  0  0
    4.0913    5.8925    0.0000 C   0  0  0  0  0  0  0  0  0  0  0  0
    4.2828    3.3015    0.0000 O   0  0  0  0  0  0  0  0  0  0  0  0
   -0.2049    2.9697    0.0000 C   0  0  0  0  0  0  0  0  0  0  0  0
   -1.0487    4.2098    0.0000 O   0  0  0  0  0  0  0  0  0  0  0  0
   -0.3965    5.5607    0.0000 C   0  0  0  0  0  0  0  0  0  0  0  0
   -1.2402    6.8009    0.0000 C   0  0  0  0  0  0  0  0  0  0  0  0
    1.1018    5.4881    0.0000 O   0  0  0  0  0  0  0  0  0  0  0  0
    1.5834    1.6263    0.0000 C   0  0  0  0  0  0  0  0  0  0  0  0
    0.3117    2.4218    0.0000 C   0  0  0  0  0  0  0  0  0  0  0  0
    1.4943    3.1237    0.0000 O   0  0  0  0  0  0  0  0  0  0  0  0
  1  2  1  0
  2  3  2  0
  2  4  1  0
  4  5  1  0
  6  5  1  1
  6  7  1  0
  7  8  1  1
  8  9  1  0
  9 10  1  0
  9 11  2  0
  7 12  1  0
 12 13  1  6
 13 14  1  0
 14 15  1  0
 15 16  1  0
 16 17  2  0
 17 18  1  0
 18 19  2  0
 19 20  1  0
 20 21  2  0
 12 22  1  0
 22 23  1  0
 23 24  1  1
 24 25  1  0
 25 26  1  0
 25 27  2  0
 23 28  1  0
 28 29  1  6
 29 30  1  0
 30 31  1  6
 30 32  1  0
 32 33  1  0
 33 34  1  0
 34 35  2  0
 34 36  1  0
 36 37  2  0
 37 38  1  0
 38 39  2  0
 39 40  1  0
 40 41  2  0
 41 42  1  0
 42 43  1  0
 42 44  1  0
 44 45  1  0
 44 46  1  0
 46 47  2  0
 46 48  1  0
 49 48  1  6
 49 50  1  0
 50 51  1  1
 51 52  1  0
 52 53  1  0
 52 54  2  0
 50 55  1  0
 55 56  1  1
 56 57  1  0
 57 58  1  0
 57 59  2  0
 49 60  1  0
 60 61  1  6
 60 62  1  0
 28  6  1  0
 41 36  1  0
 55  6  1  0
 21 16  1  0
 22 30  1  6
 60 28  1  0
M  END
>  <identifier>  (281) 
CNP0240870.1

>  <canonical_smiles>  (281) 
CC(=O)OC[C@]12[C@H](OC(C)=O)[C@@H](OCOC3=CC=CC=C3)[C@@H]3[C@@H](OC(C)=O)[C@@]14O[C@@]3(C)COC(=O)C1=CC=CN=C1C(C)C(C)C(=O)O[C@@H]([C@H](OC(C)=O)[C@@H]2OC(C)=O)[C@]4(C)O

>  <standard_inchi>  (281) 
InChI=1S/C43H51NO18/c1-21-22(2)38(50)61-35-33(57-24(4)46)37(60-27(7)49)42(19-53-23(3)45)36(59-26(6)48)32(56-20-55-28-14-11-10-12-15-28)30-34(58-25(5)47)43(42,41(35,9)52)62-40(30,8)18-54-39(51)29-16-13-17-44-31(21)29/h10-17,21-22,30,32-37,52H,18-20H2,1-9H3/t21?,22?,30-,32+,33+,34-,35+,36-,37+,40+,41+,42-,43+/m1/s1

>  <standard_inchi_key>  (281) 
MIWJRFYILWUTKL-OECDLLKCSA-N

>  <name>  (281) 
nan

>  <iupac_name>  (281) 
[(1~{S},3~{R},17~{S},18~{R},19~{R},20~{R},21~{S},22~{S},23~{R},24~{R},25~{S})-18,19,21,24-tetraacetoxy-25-hydroxy-3,13,14,25-tetramethyl-6,15-dioxo-22-(phenoxymethoxy)-2,5,16-trioxa-11-azapentacyclo[15.7.1.0^{1,20}.0^{3,23}.0^{7,12}]pentacosa-7,9,11-trien-20-yl]methyl acetate

>  <annotation_level>  (281) 
4

>  <total_atom_count>  (281) 
113

>  <heavy_atom_count>  (281) 
62

>  <molecular_weight>  (281) 
869.87

>  <exact_molecular_weight>  (281) 
869.31061

>  <molecular_formula>  (281) 
C43H51NO18

>  <alogp>  (281) 
2.52

>  <topological_polar_surface_area>  (281) 
244.91

>  <rotatable_bond_count>  (281) 
10

>  <hydrogen_bond_acceptors>  (281) 
19

>  <hydrogen_bond_donors>  (281) 
1

>  <hydrogen_bond_acceptors_lipinski>  (281) 
19

>  <hydrogen_bond_donors_lipinski>  (281) 
1

>  <lipinski_rule_of_five_violations>  (281) 
2

>  <aromatic_rings_count>  (281) 
2

>  <qed_drug_likeliness>  (281) 
0.20

>  <formal_charge>  (281) 
0

>  <fractioncsp3>  (281) 
0.58

>  <number_of_minimal_rings>  (281) 
6

>  <van_der_walls_volume>  (281) 
nan

>  <contains_sugar>  (281) 
False

>  <contains_ring_sugars>  (281) 
False

>  <contains_linear_sugars>  (281) 
False

>  <murcko_framework>  (281) 
n1cccc2c1CCCOC3CCC4CC(OCOc5ccccc5)C6CC4(OC6COC2)C3

>  <np_likeness>  (281) 
1.58

>  <chemical_class>  (281) 
nan

>  <chemical_sub_class>  (281) 
Alkaloids and derivatives

>  <chemical_super_class>  (281) 
Alkaloids and derivatives

>  <direct_parent_classification>  (281) 
Alkaloids and derivatives

>  <np_classifier_pathway>  (281) 
Alkaloids

>  <np_classifier_superclass>  (281) 
Nicotinic acid alkaloids

>  <np_classifier_class>  (281) 
Agarofuran sesquiterpenoids

>  <np_classifier_is_glycoside>  (281) 
False

>  <organisms>  (281) 
Maytenus aquifolium|Monteverdia aquifolium

>  <collections>  (281) 
Latin America dataset|NuBBEDB|WikiData Natural Products

>  <dois>  (281) 
10.1016/S0031-9422(97)00824-8

>  <synonyms>  (281) 
Aquifoliunine E-I

>  <cas>  (281) 
nan

$$$$

     RDKit          2D

 31 34  0  0  0  0  0  0  0  0999 V2000
    7.6683   -3.8358    0.0000 C   0  0  0  0  0  0  0  0  0  0  0  0
    7.3520   -2.3695    0.0000 C   0  0  0  0  0  0  0  0  0  0  0  0
    8.4637   -1.3625    0.0000 C   0  0  0  0  0  0  0  0  0  0  0  0
    5.9241   -1.9103    0.0000 C   0  0  0  0  0  0  0  0  0  0  0  0
    5.6078   -0.4440    0.0000 C   0  0  0  0  0  0  0  0  0  0  0  0
    4.1799    0.0153    0.0000 C   0  0  0  0  0  0  0  0  0  0  0  0
    3.8636    1.4816    0.0000 C   0  0  0  0  0  0  0  0  0  0  0  0
    4.9753    2.4886    0.0000 C   0  0  0  0  0  0  0  0  0  0  0  0
    2.4356    1.9408    0.0000 C   0  0  0  0  0  0  0  0  0  0  0  0
    1.9679    3.3660    0.0000 C   0  0  0  0  0  0  0  0  0  0  0  0
    0.4679    3.3615    0.0000 C   0  0  0  0  0  0  0  0  0  0  0  0
    0.0086    1.9336    0.0000 C   0  0  0  0  0  0  0  0  0  0  0  0
   -1.1091    2.9339    0.0000 C   0  0  0  0  0  0  0  0  0  0  0  0
   -1.3599    1.3194    0.0000 C   0  0  0  0  0  0  0  0  0  0  0  0
   -1.5122   -0.1729    0.0000 C   0  0  0  0  0  0  0  0  0  0  0  0
   -0.2961   -1.0509    0.0000 C   0  0  0  0  0  0  0  0  0  0  0  0
    1.0724   -0.4367    0.0000 C   0  0  0  0  0  0  0  0  0  0  0  0
    1.2248    1.0555    0.0000 C   0  0  0  0  0  0  0  0  0  0  0  0
    2.5260    0.3094    0.0000 C   0  0  0  0  0  0  0  0  0  0  0  0
   -2.8807   -0.7871    0.0000 C   0  0  0  0  0  0  0  0  0  0  0  0
   -1.6646   -1.6651    0.0000 C   0  0  0  0  0  0  0  0  0  0  0  0
   -3.0331   -2.2793    0.0000 C   0  0  0  0  0  0  0  0  0  0  0  0
   -4.4015   -2.8935    0.0000 C   0  0  0  0  0  0  0  0  0  0  0  0
   -5.6177   -2.0155    0.0000 C   0  0  0  0  0  0  0  0  0  0  0  0
   -6.9862   -2.6297    0.0000 O   0  0  0  0  0  0  0  0  0  0  0  0
   -5.4654   -0.5232    0.0000 C   0  0  0  0  0  0  0  0  0  0  0  0
   -5.8326    0.9311    0.0000 C   0  0  0  0  0  0  0  0  0  0  0  0
   -6.9614   -0.6323    0.0000 C   0  0  0  0  0  0  0  0  0  0  0  0
   -4.0969    0.0910    0.0000 C   0  0  0  0  0  0  0  0  0  0  0  0
   -3.9445    1.5832    0.0000 C   0  0  0  0  0  0  0  0  0  0  0  0
   -2.5760    2.1974    0.0000 C   0  0  0  0  0  0  0  0  0  0  0  0
  1  2  1  0
  2  3  1  0
  2  4  2  0
  4  5  1  0
  5  6  1  0
  6  7  1  0
  7  8  1  1
  7  9  1  0
  9 10  1  1
 10 11  1  0
 11 12  1  0
 12 13  1  6
 12 14  1  0
 14 15  2  0
 15 16  1  0
 16 17  1  0
 17 18  1  0
 18 19  1  1
 15 20  1  0
 20 21  1  6
 20 22  1  0
 22 23  1  0
 23 24  1  0
 24 25  1  6
 24 26  1  0
 26 27  1  0
 26 28  1  0
 26 29  1  0
 29 30  1  6
 30 31  1  0
 18  9  1  0
 29 20  1  0
 18 12  1  0
 31 14  1  0
M  END
>  <identifier>  (282) 
CNP0207495.5

>  <canonical_smiles>  (282) 
CC(C)=CCC[C@H](C)[C@@H]1CC[C@]2(C)C3=C(CC[C@@]12C)[C@@]1(C)CC[C@H](O)C(C)(C)[C@@H]1CC3

>  <standard_inchi>  (282) 
InChI=1S/C30H50O/c1-20(2)10-9-11-21(3)22-14-18-30(8)24-12-13-25-27(4,5)26(31)16-17-28(25,6)23(24)15-19-29(22,30)7/h10,21-22,25-26,31H,9,11-19H2,1-8H3/t21-,22-,25-,26-,28+,29-,30+/m0/s1

>  <standard_inchi_key>  (282) 
CAHGCLMLTWQZNJ-HGKXYCPESA-N

>  <name>  (282) 
TIRUCALLOL

>  <iupac_name>  (282) 
(3~{S},5~{R},10~{S},13~{S},14~{S},17~{S})-17-[(1~{S})-1,5-dimethylhex-4-enyl]-4,4,10,13,14-pentamethyl-2,3,5,6,7,11,12,15,16,17-decahydro-1~{H}-cyclopenta[a]phenanthren-3-ol

>  <annotation_level>  (282) 
5

>  <total_atom_count>  (282) 
81

>  <heavy_atom_count>  (282) 
31

>  <molecular_weight>  (282) 
426.73

>  <exact_molecular_weight>  (282) 
426.38617

>  <molecular_formula>  (282) 
C30H50O

>  <alogp>  (282) 
8.48

>  <topological_polar_surface_area>  (282) 
20.23

>  <rotatable_bond_count>  (282) 
4

>  <hydrogen_bond_acceptors>  (282) 
1

>  <hydrogen_bond_donors>  (282) 
1

>  <hydrogen_bond_acceptors_lipinski>  (282) 
1

>  <hydrogen_bond_donors_lipinski>  (282) 
1

>  <lipinski_rule_of_five_violations>  (282) 
1

>  <aromatic_rings_count>  (282) 
0

>  <qed_drug_likeliness>  (282) 
0.45

>  <formal_charge>  (282) 
0

>  <fractioncsp3>  (282) 
0.87

>  <number_of_minimal_rings>  (282) 
4

>  <van_der_walls_volume>  (282) 
452.81

>  <contains_sugar>  (282) 
False

>  <contains_ring_sugars>  (282) 
False

>  <contains_linear_sugars>  (282) 
False

>  <murcko_framework>  (282) 
C12=C(CCC3CCCCC13)C4CCCC4CC2

>  <np_likeness>  (282) 
3.42

>  <chemical_class>  (282) 
Steroids and steroid derivatives

>  <chemical_sub_class>  (282) 
Hydroxysteroids

>  <chemical_super_class>  (282) 
Lipids and lipid-like molecules

>  <direct_parent_classification>  (282) 
Hydroxysteroids

>  <np_classifier_pathway>  (282) 
Terpenoids

>  <np_classifier_superclass>  (282) 
Triterpenoids

>  <np_classifier_class>  (282) 
Lanostane, Tirucallane and Euphane triterpenoids

>  <np_classifier_is_glycoside>  (282) 
False

>  <organisms>  (282) 
Amaranthus hybridus subsp. cruentus|Cajanus cajan|Camellia japonica|Camellia oleifera|Camellia sasanqua|Camellia sinensis|Carduus acanthoides|Chorilaena quercifolia|Cicer arietinum|Crataegus flava|Cucumis melo|Cucumis sativus|Dacryodes hopkinsii|Euphorbia caducifolia|Euphorbia canariensis|Euphorbia esula|Euphorbia ingens|Euphorbia jaxartica|Euphorbia kansui|Euphorbia lactea|Euphorbia oxyphylla|Euphorbia tirucalli|Euphorbia tommasiniana|Euphorbia triangularis|Euphorbia virgata|Euphorbia wallichii|Garcinia thwaitesii|Hypogymnia billardieri|Lathyrus sativus|Lens culinaris|Macrotyloma biflorum var. biflorum|Nigella sativa|Olea europaea|Phytolacca americana|Pisum sativum|Vigna cylindrica|Vigna mungo|soybean

>  <collections>  (282) 
CMAUP (cCollective molecular activities of useful plants)|FooDB|Latin America dataset|NPASS|NuBBEDB|Super Natural II|TCMDB-Taiwan (Traditional Chinese Medicine database)|WikiData Natural Products

>  <dois>  (282) 
10.1007/BF00568611|10.1007/BF02534064|10.1007/BF02541591|10.1016/0031-9422(82)85222-9|10.1016/0031-9422(86)88046-3|10.1016/J.PHYMED.2009.05.009|10.1016/S0031-9422(00)80096-5|10.1016/S0031-9422(00)82286-4|10.1016/S0031-9422(00)94844-1|10.1016/S0031-9422(00)97902-0|10.1021/NP50006A011|10.1021/NP970490H|10.1039/JR9490002554|10.1039/JR949000S155|10.1055/S-0028-1097206|10.1055/S-2006-957574|10.1211/0022357001773607|10.1248/CPB.45.2016|10.1515/ZNC-1985-9-1008|10.1590/S0103-50532004000300008|10.38212/2224-6614.2818

>  <synonyms>  (282) 
(+)-Tirucallol|(13alpha,14beta,17alpha,20S)-5alpha-Lanosta-8,24-Dien-3beta-Ol|(20S)-(+)-triucalla-8,24-diene-3beta-ol|(3S,5R,10S,13S,14S,17S)-4,4,10,13,14-pentamethyl-17-[(2S)-6-methylhept-5-en-2-yl]-2,3,5,6,7,11,12,15,16,17-decahydro-1H-cyclopenta[a]phenanthren-3-ol|(3beta,13alpha,14beta,17alpha,20S)-Lanosta-8,24-dien-3-ol|20-Epi-Euphol|514-46-5|AKOS040760105|CHEBI:175463|CS-0022887|DTXSID001317294|HY-N2556|Kanzuiol|LMPR0106090001|Lanosta-8,24-dien-3-ol, (3beta,13alpha,14beta,17alpha,20S)-|MS-27537|NSC 403164|SCHEMBL244737|Tirucallol

>  <cas>  (282) 
514-46-5

$$$$

     RDKit          2D

 20 22  0  0  0  0  0  0  0  0999 V2000
    4.1352    2.3089    0.0000 O   0  0  0  0  0  0  0  0  0  0  0  0
    4.0568    0.8110    0.0000 C   0  0  0  0  0  0  0  0  0  0  0  0
    2.7203    0.1299    0.0000 C   0  0  0  0  0  0  0  0  0  0  0  0
    1.4623    0.9468    0.0000 C   0  0  0  0  0  0  0  0  0  0  0  0
    0.1258    0.2658    0.0000 C   0  0  0  0  0  0  0  0  0  0  0  0
   -1.1322    1.0827    0.0000 C   0  0  0  0  0  0  0  0  0  0  0  0
   -2.4687    0.4016    0.0000 C   0  0  0  0  0  0  0  0  0  0  0  0
   -2.5472   -1.0963    0.0000 C   0  0  0  0  0  0  0  0  0  0  0  0
   -3.8837   -1.7773    0.0000 C   0  0  0  0  0  0  0  0  0  0  0  0
   -5.1417   -0.9604    0.0000 C   0  0  0  0  0  0  0  0  0  0  0  0
   -6.5906   -1.3487    0.0000 O   0  0  0  0  0  0  0  0  0  0  0  0
   -7.4076   -0.0907    0.0000 C   0  0  0  0  0  0  0  0  0  0  0  0
   -6.4636    1.0750    0.0000 O   0  0  0  0  0  0  0  0  0  0  0  0
   -5.0633    0.5375    0.0000 C   0  0  0  0  0  0  0  0  0  0  0  0
   -3.7268    1.2186    0.0000 C   0  0  0  0  0  0  0  0  0  0  0  0
    5.3148   -0.0060    0.0000 N   0  0  0  0  0  0  0  0  0  0  0  0
    6.7152    0.5317    0.0000 C   0  0  0  0  0  0  0  0  0  0  0  0
    7.6592   -0.6340    0.0000 C   0  0  0  0  0  0  0  0  0  0  0  0
    6.8423   -1.8921    0.0000 C   0  0  0  0  0  0  0  0  0  0  0  0
    5.3934   -1.5039    0.0000 C   0  0  0  0  0  0  0  0  0  0  0  0
  1  2  2  0
  2  3  1  0
  3  4  2  0
  4  5  1  0
  5  6  1  0
  6  7  1  0
  7  8  2  0
  8  9  1  0
  9 10  2  0
 10 11  1  0
 11 12  1  0
 12 13  1  0
 13 14  1  0
 14 15  2  0
  2 16  1  0
 16 17  1  0
 17 18  1  0
 18 19  1  0
 19 20  1  0
 15  7  1  0
 20 16  1  0
 14 10  1  0
M  END
>  <identifier>  (283) 
CNP0366352.1

>  <canonical_smiles>  (283) 
O=C(/C=C/CCC1=CC=C2OCOC2=C1)N1CCCC1

>  <standard_inchi>  (283) 
InChI=1S/C16H19NO3/c18-16(17-9-3-4-10-17)6-2-1-5-13-7-8-14-15(11-13)20-12-19-14/h2,6-8,11H,1,3-5,9-10,12H2/b6-2+

>  <standard_inchi_key>  (283) 
XZTCTKKANUDQCW-QHHAFSJGSA-N

>  <name>  (283) 
nan

>  <iupac_name>  (283) 
nan

>  <annotation_level>  (283) 
0

>  <total_atom_count>  (283) 
39

>  <heavy_atom_count>  (283) 
20

>  <molecular_weight>  (283) 
273.33

>  <exact_molecular_weight>  (283) 
273.13649

>  <molecular_formula>  (283) 
C16H19NO3

>  <alogp>  (283) 
2.53

>  <topological_polar_surface_area>  (283) 
38.77

>  <rotatable_bond_count>  (283) 
4

>  <hydrogen_bond_acceptors>  (283) 
3

>  <hydrogen_bond_donors>  (283) 
0

>  <hydrogen_bond_acceptors_lipinski>  (283) 
3

>  <hydrogen_bond_donors_lipinski>  (283) 
0

>  <lipinski_rule_of_five_violations>  (283) 
0

>  <aromatic_rings_count>  (283) 
1

>  <qed_drug_likeliness>  (283) 
0.79

>  <formal_charge>  (283) 
0

>  <fractioncsp3>  (283) 
0.44

>  <number_of_minimal_rings>  (283) 
3

>  <van_der_walls_volume>  (283) 
256.29

>  <contains_sugar>  (283) 
False

>  <contains_ring_sugars>  (283) 
False

>  <contains_linear_sugars>  (283) 
False

>  <murcko_framework>  (283) 
O1c2ccc(cc2OC1)CCC=CCN3CCCC3

>  <np_likeness>  (283) 
0.25

>  <chemical_class>  (283) 
nan

>  <chemical_sub_class>  (283) 
nan

>  <chemical_super_class>  (283) 
nan

>  <direct_parent_classification>  (283) 
nan

>  <np_classifier_pathway>  (283) 
Alkaloids

>  <np_classifier_superclass>  (283) 
Lysine alkaloids

>  <np_classifier_class>  (283) 
Piperidine alkaloids

>  <np_classifier_is_glycoside>  (283) 
False

>  <organisms>  (283) 
Piper arboreum|Piper hispidum|Piper nigrum

>  <collections>  (283) 
ChemSpider NPs|FooDB|Latin America dataset|NuBBEDB|Super Natural II|TCMDB-Taiwan (Traditional Chinese Medicine database)|WikiData Natural Products

>  <dois>  (283) 
10.1016/S0031-9422(00)00226-0|10.1016/S0031-9422(01)00431-9|10.1021/NP030475E|10.1021/NP9703656|10.1248/CPB.45.685

>  <synonyms>  (283) 
nan

>  <cas>  (283) 
nan

$$$$

     RDKit          2D

 54 55  0  0  0  0  0  0  0  0999 V2000
    2.7924   -7.9588    0.0000 C   0  0  0  0  0  0  0  0  0  0  0  0
    3.4371   -6.6044    0.0000 C   0  0  0  0  0  0  0  0  0  0  0  0
    4.9324   -6.4855    0.0000 O   0  0  0  0  0  0  0  0  0  0  0  0
    2.5865   -5.3689    0.0000 O   0  0  0  0  0  0  0  0  0  0  0  0
    3.2312   -4.0145    0.0000 C   0  0  0  0  0  0  0  0  0  0  0  0
    2.3806   -2.7790    0.0000 C   0  0  0  0  0  0  0  0  0  0  0  0
    0.8853   -2.8979    0.0000 O   0  0  0  0  0  0  0  0  0  0  0  0
    0.0347   -1.6624    0.0000 C   0  0  0  0  0  0  0  0  0  0  0  0
   -1.4606   -1.7813    0.0000 O   0  0  0  0  0  0  0  0  0  0  0  0
   -2.1053   -3.1357    0.0000 C   0  0  0  0  0  0  0  0  0  0  0  0
   -3.6006   -3.2546    0.0000 C   0  0  0  0  0  0  0  0  0  0  0  0
   -4.2452   -4.6090    0.0000 C   0  0  0  0  0  0  0  0  0  0  0  0
   -3.3946   -5.8445    0.0000 C   0  0  0  0  0  0  0  0  0  0  0  0
   -5.7405   -4.7279    0.0000 C   0  0  0  0  0  0  0  0  0  0  0  0
   -6.5911   -3.4924    0.0000 C   0  0  0  0  0  0  0  0  0  0  0  0
   -8.0864   -3.6113    0.0000 C   0  0  0  0  0  0  0  0  0  0  0  0
   -8.9370   -2.3758    0.0000 C   0  0  0  0  0  0  0  0  0  0  0  0
  -10.4323   -2.4947    0.0000 C   0  0  0  0  0  0  0  0  0  0  0  0
   -8.2924   -1.0214    0.0000 C   0  0  0  0  0  0  0  0  0  0  0  0
   -9.1430    0.2141    0.0000 C   0  0  0  0  0  0  0  0  0  0  0  0
   -8.4983    1.5685    0.0000 C   0  0  0  0  0  0  0  0  0  0  0  0
   -9.3489    2.8040    0.0000 C   0  0  0  0  0  0  0  0  0  0  0  0
  -10.8442    2.6851    0.0000 C   0  0  0  0  0  0  0  0  0  0  0  0
   -8.7042    4.1584    0.0000 C   0  0  0  0  0  0  0  0  0  0  0  0
   -7.2090    4.2773    0.0000 C   0  0  0  0  0  0  0  0  0  0  0  0
   -6.5643    5.6317    0.0000 C   0  0  0  0  0  0  0  0  0  0  0  0
   -5.0690    5.7506    0.0000 C   0  0  0  0  0  0  0  0  0  0  0  0
   -4.4244    7.1050    0.0000 C   0  0  0  0  0  0  0  0  0  0  0  0
   -4.2184    4.5151    0.0000 C   0  0  0  0  0  0  0  0  0  0  0  0
    0.6793   -0.3080    0.0000 C   0  0  0  0  0  0  0  0  0  0  0  0
   -0.1713    0.9275    0.0000 O   0  0  0  0  0  0  0  0  0  0  0  0
    2.1746   -0.1891    0.0000 C   0  0  0  0  0  0  0  0  0  0  0  0
    2.8193    1.1653    0.0000 O   0  0  0  0  0  0  0  0  0  0  0  0
    4.3146    1.2842    0.0000 C   0  0  0  0  0  0  0  0  0  0  0  0
    5.1652    0.0487    0.0000 O   0  0  0  0  0  0  0  0  0  0  0  0
    6.6604    0.1676    0.0000 C   0  0  0  0  0  0  0  0  0  0  0  0
    7.5111   -1.0678    0.0000 C   0  0  0  0  0  0  0  0  0  0  0  0
    7.3051    1.5221    0.0000 C   0  0  0  0  0  0  0  0  0  0  0  0
    8.8004    1.6410    0.0000 O   0  0  0  0  0  0  0  0  0  0  0  0
    6.4545    2.7576    0.0000 C   0  0  0  0  0  0  0  0  0  0  0  0
    7.0992    4.1120    0.0000 O   0  0  0  0  0  0  0  0  0  0  0  0
    6.2486    5.3475    0.0000 C   0  0  0  0  0  0  0  0  0  0  0  0
    6.8932    6.7019    0.0000 C   0  0  0  0  0  0  0  0  0  0  0  0
    4.7533    5.2285    0.0000 O   0  0  0  0  0  0  0  0  0  0  0  0
    4.9592    2.6386    0.0000 C   0  0  0  0  0  0  0  0  0  0  0  0
    4.1086    3.8741    0.0000 O   0  0  0  0  0  0  0  0  0  0  0  0
    2.6133    3.7552    0.0000 C   0  0  0  0  0  0  0  0  0  0  0  0
    1.7627    4.9907    0.0000 C   0  0  0  0  0  0  0  0  0  0  0  0
    1.9687    2.4008    0.0000 O   0  0  0  0  0  0  0  0  0  0  0  0
    3.0252   -1.4246    0.0000 C   0  0  0  0  0  0  0  0  0  0  0  0
    4.5205   -1.3057    0.0000 O   0  0  0  0  0  0  0  0  0  0  0  0
    5.3711   -2.5412    0.0000 C   0  0  0  0  0  0  0  0  0  0  0  0
    6.8664   -2.4223    0.0000 C   0  0  0  0  0  0  0  0  0  0  0  0
    4.7264   -3.8956    0.0000 O   0  0  0  0  0  0  0  0  0  0  0  0
  1  2  1  0
  2  3  2  0
  2  4  1  0
  4  5  1  0
  6  5  1  1
  6  7  1  0
  7  8  1  0
  8  9  1  1
  9 10  1  0
 10 11  1  0
 11 12  2  0
 12 13  1  0
 12 14  1  0
 14 15  1  0
 15 16  1  0
 16 17  2  3
 17 18  1  0
 17 19  1  0
 19 20  1  0
 20 21  1  0
 21 22  2  0
 22 23  1  0
 22 24  1  0
 24 25  1  0
 25 26  1  0
 26 27  2  0
 27 28  1  0
 27 29  1  0
  8 30  1  0
 30 31  1  6
 30 32  1  0
 32 33  1  1
 34 33  1  1
 34 35  1  0
 35 36  1  0
 36 37  1  6
 36 38  1  0
 38 39  1  1
 38 40  1  0
 40 41  1  6
 41 42  1  0
 42 43  1  0
 42 44  2  0
 40 45  1  0
 45 46  1  6
 46 47  1  0
 47 48  1  0
 47 49  2  0
 32 50  1  0
 50 51  1  6
 51 52  1  0
 52 53  1  0
 52 54  2  0
 50  6  1  0
 45 34  1  0
M  END
>  <identifier>  (284) 
CNP0080336.2

>  <canonical_smiles>  (284) 
CC(=O)OC[C@H]1O[C@@H](OC/C=C(\C)CCC=C(C)CC/C=C(\C)CCC=C(C)C)[C@H](O)[C@@H](O[C@@H]2O[C@@H](C)[C@H](O)[C@@H](OC(C)=O)[C@H]2OC(C)=O)[C@@H]1OC(C)=O

>  <standard_inchi>  (284) 
InChI=1S/C40H62O14/c1-23(2)14-11-15-24(3)16-12-17-25(4)18-13-19-26(5)20-21-47-39-34(46)37(35(50-29(8)42)32(53-39)22-48-28(7)41)54-40-38(52-31(10)44)36(51-30(9)43)33(45)27(6)49-40/h14,16,18,20,27,32-40,45-46H,11-13,15,17,19,21-22H2,1-10H3/b24-16+,25-18?,26-20+/t27-,32+,33-,34+,35+,36+,37+,38+,39+,40-/m0/s1

>  <standard_inchi_key>  (284) 
XKNKITHFLRUKKY-CTKPDABASA-N

>  <name>  (284) 
nan

>  <iupac_name>  (284) 
[(2~{R},3~{R},4~{R},5~{R},6~{R})-3-acetoxy-4-[(2~{S},3~{R},4~{R},5~{S},6~{S})-3,4-diacetoxy-5-hydroxy-6-methyl-tetrahydropyran-2-yl]oxy-5-hydroxy-6-[(2~{E},10~{E})-3,7,11,15-tetramethylhexadeca-2,6,10,14-tetraenoxy]tetrahydropyran-2-yl]methyl acetate

>  <annotation_level>  (284) 
3

>  <total_atom_count>  (284) 
116

>  <heavy_atom_count>  (284) 
54

>  <molecular_weight>  (284) 
766.92

>  <exact_molecular_weight>  (284) 
766.41396

>  <molecular_formula>  (284) 
C40H62O14

>  <alogp>  (284) 
5.08

>  <topological_polar_surface_area>  (284) 
182.58

>  <rotatable_bond_count>  (284) 
19

>  <hydrogen_bond_acceptors>  (284) 
14

>  <hydrogen_bond_donors>  (284) 
2

>  <hydrogen_bond_acceptors_lipinski>  (284) 
14

>  <hydrogen_bond_donors_lipinski>  (284) 
2

>  <lipinski_rule_of_five_violations>  (284) 
3

>  <aromatic_rings_count>  (284) 
0

>  <qed_drug_likeliness>  (284) 
0.10

>  <formal_charge>  (284) 
0

>  <fractioncsp3>  (284) 
0.70

>  <number_of_minimal_rings>  (284) 
2

>  <van_der_walls_volume>  (284) 
nan

>  <contains_sugar>  (284) 
True

>  <contains_ring_sugars>  (284) 
True

>  <contains_linear_sugars>  (284) 
False

>  <murcko_framework>  (284) 
O1CCC(OC2OCCCC2)CC1

>  <np_likeness>  (284) 
1.67

>  <chemical_class>  (284) 
Prenol lipids

>  <chemical_sub_class>  (284) 
Diterpenoids

>  <chemical_super_class>  (284) 
Lipids and lipid-like molecules

>  <direct_parent_classification>  (284) 
Diterpenoids

>  <np_classifier_pathway>  (284) 
Terpenoids

>  <np_classifier_superclass>  (284) 
nan

>  <np_classifier_class>  (284) 
nan

>  <np_classifier_is_glycoside>  (284) 
True

>  <organisms>  (284) 
Cupania vernalis

>  <collections>  (284) 
Latin America dataset|NuBBEDB

>  <dois>  (284) 
10.1590/S0103-50532001000300014

>  <synonyms>  (284) 
nan

>  <cas>  (284) 
nan

$$$$

     RDKit          2D

 34 37  0  0  0  0  0  0  0  0999 V2000
    7.2703   -3.8153    0.0000 C   0  0  0  0  0  0  0  0  0  0  0  0
    6.9844   -2.3428    0.0000 C   0  0  0  0  0  0  0  0  0  0  0  0
    5.5663   -1.8541    0.0000 C   0  0  0  0  0  0  0  0  0  0  0  0
    5.2804   -0.3816    0.0000 C   0  0  0  0  0  0  0  0  0  0  0  0
    3.8623    0.1072    0.0000 C   0  0  0  0  0  0  0  0  0  0  0  0
    3.5764    1.5797    0.0000 C   0  0  0  0  0  0  0  0  0  0  0  0
    4.7088    2.5635    0.0000 C   0  0  0  0  0  0  0  0  0  0  0  0
    2.1583    2.0684    0.0000 C   0  0  0  0  0  0  0  0  0  0  0  0
    1.7201    3.5029    0.0000 C   0  0  0  0  0  0  0  0  0  0  0  0
    0.2203    3.5295    0.0000 C   0  0  0  0  0  0  0  0  0  0  0  0
   -0.2684    2.1113    0.0000 C   0  0  0  0  0  0  0  0  0  0  0  0
   -1.3652    3.1346    0.0000 C   0  0  0  0  0  0  0  0  0  0  0  0
   -1.6493    1.5256    0.0000 C   0  0  0  0  0  0  0  0  0  0  0  0
   -2.8470    2.4286    0.0000 C   0  0  0  0  0  0  0  0  0  0  0  0
   -4.2279    1.8429    0.0000 C   0  0  0  0  0  0  0  0  0  0  0  0
   -4.4111    0.3541    0.0000 C   0  0  0  0  0  0  0  0  0  0  0  0
   -5.7920   -0.2317    0.0000 C   0  0  0  0  0  0  0  0  0  0  0  0
   -7.2900   -0.3098    0.0000 C   0  0  0  0  0  0  0  0  0  0  0  0
   -6.1291    1.2300    0.0000 C   0  0  0  0  0  0  0  0  0  0  0  0
   -5.9752   -1.7204    0.0000 C   0  0  0  0  0  0  0  0  0  0  0  0
   -7.3561   -2.3062    0.0000 N   0  0  0  0  0  0  0  0  0  0  0  0
   -7.5393   -3.7950    0.0000 O   0  0  0  0  0  0  0  0  0  0  0  0
   -4.7774   -2.6235    0.0000 C   0  0  0  0  0  0  0  0  0  0  0  0
   -3.3965   -2.0377    0.0000 C   0  0  0  0  0  0  0  0  0  0  0  0
   -3.2134   -0.5489    0.0000 C   0  0  0  0  0  0  0  0  0  0  0  0
   -2.0156   -1.4520    0.0000 C   0  0  0  0  0  0  0  0  0  0  0  0
   -1.8325    0.0368    0.0000 C   0  0  0  0  0  0  0  0  0  0  0  0
   -0.6347   -0.8662    0.0000 C   0  0  0  0  0  0  0  0  0  0  0  0
    0.7462   -0.2805    0.0000 C   0  0  0  0  0  0  0  0  0  0  0  0
    0.9293    1.2083    0.0000 C   0  0  0  0  0  0  0  0  0  0  0  0
    2.2149    0.4354    0.0000 C   0  0  0  0  0  0  0  0  0  0  0  0
    8.1168   -1.3590    0.0000 C   0  0  0  0  0  0  0  0  0  0  0  0
    7.8309    0.1135    0.0000 O   0  0  0  0  0  0  0  0  0  0  0  0
    9.5349   -1.8477    0.0000 O   0  0  0  0  0  0  0  0  0  0  0  0
  1  2  1  0
  2  3  2  0
  3  4  1  0
  4  5  1  0
  5  6  1  0
  6  7  1  1
  6  8  1  0
  8  9  1  1
  9 10  1  0
 10 11  1  0
 11 12  1  6
 11 13  1  0
 13 14  2  0
 14 15  1  0
 16 15  1  6
 16 17  1  0
 17 18  1  0
 17 19  1  0
 17 20  1  0
 20 21  2  3
 21 22  1  0
 20 23  1  0
 23 24  1  0
 24 25  1  0
 25 26  1  6
 25 27  1  0
 27 28  1  6
 28 29  1  0
 29 30  1  0
 30 31  1  1
  2 32  1  0
 32 33  2  0
 32 34  1  0
 30  8  1  0
 30 11  1  0
 27 13  1  0
 25 16  1  0
M  END
>  <identifier>  (285) 
CNP0345997.1

>  <canonical_smiles>  (285) 
C/C(=C/CC[C@H](C)[C@@H]1CC[C@]2(C)C3=CC[C@H]4C(C)(C)C(=NO)CC[C@]4(C)[C@H]3CC[C@@]12C)C(=O)O

>  <standard_inchi>  (285) 
InChI=1S/C30H47NO3/c1-19(9-8-10-20(2)26(32)33)21-13-17-30(7)23-11-12-24-27(3,4)25(31-34)15-16-28(24,5)22(23)14-18-29(21,30)6/h10-11,19,21-22,24,34H,8-9,12-18H2,1-7H3,(H,32,33)/b20-10-,31-25?/t19-,21-,22-,24-,28+,29-,30+/m0/s1

>  <standard_inchi_key>  (285) 
HQRDPIWOOJDSNU-MEMBPCJYSA-N

>  <name>  (285) 
nan

>  <iupac_name>  (285) 
(~{Z},6~{S})-6-[(5~{R},9~{R},10~{R},13~{S},14~{S},17~{S})-3-hydroxyimino-4,4,10,13,14-pentamethyl-1,2,5,6,9,11,12,15,16,17-decahydrocyclopenta[a]phenanthren-17-yl]-2-methyl-hept-2-enoic acid

>  <annotation_level>  (285) 
4

>  <total_atom_count>  (285) 
81

>  <heavy_atom_count>  (285) 
34

>  <molecular_weight>  (285) 
469.71

>  <exact_molecular_weight>  (285) 
469.35559

>  <molecular_formula>  (285) 
C30H47NO3

>  <alogp>  (285) 
7.87

>  <topological_polar_surface_area>  (285) 
69.89

>  <rotatable_bond_count>  (285) 
5

>  <hydrogen_bond_acceptors>  (285) 
3

>  <hydrogen_bond_donors>  (285) 
2

>  <hydrogen_bond_acceptors_lipinski>  (285) 
3

>  <hydrogen_bond_donors_lipinski>  (285) 
2

>  <lipinski_rule_of_five_violations>  (285) 
1

>  <aromatic_rings_count>  (285) 
0

>  <qed_drug_likeliness>  (285) 
0.19

>  <formal_charge>  (285) 
0

>  <fractioncsp3>  (285) 
0.80

>  <number_of_minimal_rings>  (285) 
4

>  <van_der_walls_volume>  (285) 
nan

>  <contains_sugar>  (285) 
False

>  <contains_ring_sugars>  (285) 
False

>  <contains_linear_sugars>  (285) 
False

>  <murcko_framework>  (285) 
C1=C2C3CCCC3CCC2C4CCCCC4C1

>  <np_likeness>  (285) 
3.27

>  <chemical_class>  (285) 
Prenol lipids

>  <chemical_sub_class>  (285) 
Triterpenoids

>  <chemical_super_class>  (285) 
Lipids and lipid-like molecules

>  <direct_parent_classification>  (285) 
Triterpenoids

>  <np_classifier_pathway>  (285) 
Terpenoids

>  <np_classifier_superclass>  (285) 
Triterpenoids

>  <np_classifier_class>  (285) 
Lanostane, Tirucallane and Euphane triterpenoids

>  <np_classifier_is_glycoside>  (285) 
False

>  <organisms>  (285) 
Schinus terebinthifolius

>  <collections>  (285) 
Latin America dataset|NuBBEDB

>  <dois>  (285) 
10.1002/cbdv.201400065

>  <synonyms>  (285) 
(13\u221a\u00e9\u00ac\u00b114\u221a\u00e9\u00ac\u226417\u221a\u00e9\u00ac\u00b120S24Z)-3-(hydroxyimino)-lanosta-724-dien-26-oic acid

>  <cas>  (285) 
nan

$$$$

     RDKit          2D

 13 14  0  0  0  0  0  0  0  0999 V2000
    5.7884   -0.4662    0.0000 O   0  0  0  0  0  0  0  0  0  0  0  0
    4.6160    0.4694    0.0000 C   0  0  0  0  0  0  0  0  0  0  0  0
    3.2194   -0.0781    0.0000 C   0  0  0  0  0  0  0  0  0  0  0  0
    2.0470    0.8576    0.0000 C   0  0  0  0  0  0  0  0  0  0  0  0
    0.6505    0.3101    0.0000 C   0  0  0  0  0  0  0  0  0  0  0  0
    0.4264   -1.1730    0.0000 C   0  0  0  0  0  0  0  0  0  0  0  0
   -0.9701   -1.7205    0.0000 C   0  0  0  0  0  0  0  0  0  0  0  0
   -2.1425   -0.7848    0.0000 C   0  0  0  0  0  0  0  0  0  0  0  0
   -3.6223   -1.0300    0.0000 O   0  0  0  0  0  0  0  0  0  0  0  0
   -4.3128    0.3016    0.0000 C   0  0  0  0  0  0  0  0  0  0  0  0
   -3.2597    1.3698    0.0000 O   0  0  0  0  0  0  0  0  0  0  0  0
   -1.9184    0.6983    0.0000 C   0  0  0  0  0  0  0  0  0  0  0  0
   -0.5219    1.2458    0.0000 C   0  0  0  0  0  0  0  0  0  0  0  0
  1  2  1  0
  2  3  1  0
  3  4  2  0
  4  5  1  0
  5  6  2  0
  6  7  1  0
  7  8  2  0
  8  9  1  0
  9 10  1  0
 10 11  1  0
 11 12  1  0
 12 13  2  0
 13  5  1  0
 12  8  1  0
M  END
>  <identifier>  (286) 
CNP0320631.1

>  <canonical_smiles>  (286) 
OC/C=C/C1=CC=C2OCOC2=C1

>  <standard_inchi>  (286) 
InChI=1S/C10H10O3/c11-5-1-2-8-3-4-9-10(6-8)13-7-12-9/h1-4,6,11H,5,7H2/b2-1+

>  <standard_inchi_key>  (286) 
JQZASRHQYJJUCE-OWOJBTEDSA-N

>  <name>  (286) 
nan

>  <iupac_name>  (286) 
nan

>  <annotation_level>  (286) 
0

>  <total_atom_count>  (286) 
23

>  <heavy_atom_count>  (286) 
13

>  <molecular_weight>  (286) 
178.19

>  <exact_molecular_weight>  (286) 
178.06299

>  <molecular_formula>  (286) 
C10H10O3

>  <alogp>  (286) 
1.42

>  <topological_polar_surface_area>  (286) 
38.69

>  <rotatable_bond_count>  (286) 
2

>  <hydrogen_bond_acceptors>  (286) 
3

>  <hydrogen_bond_donors>  (286) 
1

>  <hydrogen_bond_acceptors_lipinski>  (286) 
3

>  <hydrogen_bond_donors_lipinski>  (286) 
1

>  <lipinski_rule_of_five_violations>  (286) 
0

>  <aromatic_rings_count>  (286) 
1

>  <qed_drug_likeliness>  (286) 
0.74

>  <formal_charge>  (286) 
0

>  <fractioncsp3>  (286) 
0.20

>  <number_of_minimal_rings>  (286) 
2

>  <van_der_walls_volume>  (286) 
160.16

>  <contains_sugar>  (286) 
False

>  <contains_ring_sugars>  (286) 
False

>  <contains_linear_sugars>  (286) 
False

>  <murcko_framework>  (286) 
O1c2ccccc2OC1

>  <np_likeness>  (286) 
1.16

>  <chemical_class>  (286) 
nan

>  <chemical_sub_class>  (286) 
nan

>  <chemical_super_class>  (286) 
nan

>  <direct_parent_classification>  (286) 
nan

>  <np_classifier_pathway>  (286) 
Shikimates and Phenylpropanoids

>  <np_classifier_superclass>  (286) 
Phenylpropanoids (C6-C3)

>  <np_classifier_class>  (286) 
Cinnamic acids and derivatives

>  <np_classifier_is_glycoside>  (286) 
False

>  <organisms>  (286) 
Boronia|Boronia pinnata|Licaria puchury-major|Virola peruviana

>  <collections>  (286) 
Australian natural products|ChemSpider NPs|HIM (Herbal Ingredients in-vivo Metabolism database)|Latin America dataset|NuBBEDB|Super Natural II|WikiData Natural Products|ZINC NP

>  <dois>  (286) 
10.1016/0031-9422(73)80047-0|10.1016/S0031-9422(00)82577-7|10.1021/NP0000318|10.1021/np0000318

>  <synonyms>  (286) 
nan

>  <cas>  (286) 
nan

$$$$

     RDKit          2D

 46 51  0  0  0  0  0  0  0  0999 V2000
   11.3117    1.0879    0.0000 C   0  0  0  0  0  0  0  0  0  0  0  0
   10.5014   -0.1744    0.0000 C   0  0  0  0  0  0  0  0  0  0  0  0
    9.6912   -1.4367    0.0000 C   0  0  0  0  0  0  0  0  0  0  0  0
   11.7638   -0.9846    0.0000 O   0  0  0  0  0  0  0  0  0  0  0  0
    9.2391    0.6359    0.0000 C   0  0  0  0  0  0  0  0  0  0  0  0
    9.1526    2.1334    0.0000 C   0  0  0  0  0  0  0  0  0  0  0  0
    7.7017    2.5139    0.0000 C   0  0  0  0  0  0  0  0  0  0  0  0
    6.8914    1.2515    0.0000 C   0  0  0  0  0  0  0  0  0  0  0  0
    5.7207    2.1893    0.0000 C   0  0  0  0  0  0  0  0  0  0  0  0
    5.8364    0.1853    0.0000 C   0  0  0  0  0  0  0  0  0  0  0  0
    6.0790   -1.2950    0.0000 C   0  0  0  0  0  0  0  0  0  0  0  0
    4.7461   -1.9831    0.0000 C   0  0  0  0  0  0  0  0  0  0  0  0
    3.6798   -0.9281    0.0000 C   0  0  0  0  0  0  0  0  0  0  0  0
    3.1497   -2.3313    0.0000 C   0  0  0  0  0  0  0  0  0  0  0  0
    4.3537    0.4120    0.0000 C   0  0  0  0  0  0  0  0  0  0  0  0
    3.5300    1.6657    0.0000 C   0  0  0  0  0  0  0  0  0  0  0  0
    2.0325    1.5792    0.0000 C   0  0  0  0  0  0  0  0  0  0  0  0
    1.3587    0.2391    0.0000 C   0  0  0  0  0  0  0  0  0  0  0  0
   -0.1388    0.1526    0.0000 C   0  0  0  0  0  0  0  0  0  0  0  0
    0.5350    1.4927    0.0000 C   0  0  0  0  0  0  0  0  0  0  0  0
   -0.9625    1.4062    0.0000 C   0  0  0  0  0  0  0  0  0  0  0  0
   -2.4600    1.3198    0.0000 C   0  0  0  0  0  0  0  0  0  0  0  0
   -3.1338   -0.0203    0.0000 C   0  0  0  0  0  0  0  0  0  0  0  0
   -4.6313   -0.1068    0.0000 N   0  0  0  0  0  0  0  0  0  0  0  0
   -5.4550    1.1468    0.0000 N   0  0  0  0  0  0  0  0  0  0  0  0
   -6.9525    1.0604    0.0000 C   0  0  0  0  0  0  0  0  0  0  0  0
   -7.7761    2.3140    0.0000 C   0  0  0  0  0  0  0  0  0  0  0  0
   -9.2736    2.2275    0.0000 C   0  0  0  0  0  0  0  0  0  0  0  0
   -9.9475    0.8874    0.0000 C   0  0  0  0  0  0  0  0  0  0  0  0
  -11.4450    0.8009    0.0000 N   0  0  0  0  0  0  0  0  0  0  0  0
  -12.1189   -0.5392    0.0000 O   0  0  0  0  0  0  0  0  0  0  0  0
  -12.2687    2.0546    0.0000 O   0  0  0  0  0  0  0  0  0  0  0  0
   -9.1239   -0.3662    0.0000 C   0  0  0  0  0  0  0  0  0  0  0  0
   -7.6264   -0.2798    0.0000 C   0  0  0  0  0  0  0  0  0  0  0  0
   -6.8027   -1.5334    0.0000 N   0  0  0  0  0  0  0  0  0  0  0  0
   -5.3052   -1.4469    0.0000 O   0  0  0  0  0  0  0  0  0  0  0  0
   -7.4766   -2.8735    0.0000 O   0  0  0  0  0  0  0  0  0  0  0  0
   -2.3102   -1.2740    0.0000 C   0  0  0  0  0  0  0  0  0  0  0  0
   -1.9650   -2.7337    0.0000 C   0  0  0  0  0  0  0  0  0  0  0  0
   -3.6878   -1.8674    0.0000 C   0  0  0  0  0  0  0  0  0  0  0  0
   -0.8127   -1.1875    0.0000 C   0  0  0  0  0  0  0  0  0  0  0  0
    0.0109   -2.4412    0.0000 C   0  0  0  0  0  0  0  0  0  0  0  0
    1.5084   -2.3547    0.0000 C   0  0  0  0  0  0  0  0  0  0  0  0
    2.1823   -1.0146    0.0000 C   0  0  0  0  0  0  0  0  0  0  0  0
    2.8562    0.3255    0.0000 C   0  0  0  0  0  0  0  0  0  0  0  0
    7.8416    0.0909    0.0000 O   0  0  0  0  0  0  0  0  0  0  0  0
  1  2  1  0
  2  3  1  0
  2  4  1  0
  5  2  1  1
  5  6  1  0
  6  7  1  0
  7  8  1  0
  8  9  1  1
  8 10  1  0
 10 11  1  1
 11 12  1  0
 12 13  1  0
 13 14  1  6
 13 15  1  0
 15 16  1  6
 16 17  1  0
 18 17  1  1
 18 19  1  0
 19 20  1  1
 19 21  1  0
 21 22  1  0
 22 23  1  0
 23 24  2  0
 24 25  1  0
 25 26  1  0
 26 27  2  0
 27 28  1  0
 28 29  2  0
 29 30  1  0
 30 31  2  0
 30 32  1  0
 29 33  1  0
 33 34  2  0
 34 35  1  0
 35 36  2  0
 35 37  1  0
 23 38  1  0
 38 39  1  0
 38 40  1  0
 38 41  1  0
 41 42  1  1
 42 43  1  0
 43 44  1  0
 44 45  1  1
  8 46  1  0
 46  5  1  0
 15 10  1  0
 44 18  1  0
 44 13  1  0
 41 19  1  0
 34 26  1  0
M  CHG  4  30   1  32  -1  35   1  37  -1
M  END
>  <identifier>  (287) 
CNP0522689.2

>  <canonical_smiles>  (287) 
CC(C)(O)[C@@H]1CC[C@@](C)([C@H]2CC[C@]3(C)[C@@H]2CC[C@@H]2[C@@]4(C)CC/C(=N\NC5=CC=C([N+](=O)[O-])C=C5[N+](=O)[O-])C(C)(C)[C@@H]4CC[C@]23C)O1

>  <standard_inchi>  (287) 
InChI=1S/C36H54N4O6/c1-31(2)27-14-19-35(7)28(12-10-23-24(13-18-34(23,35)6)36(8)20-16-30(46-36)32(3,4)41)33(27,5)17-15-29(31)38-37-25-11-9-22(39(42)43)21-26(25)40(44)45/h9,11,21,23-24,27-28,30,37,41H,10,12-20H2,1-8H3/b38-29+/t23-,24+,27+,28-,30+,33+,34-,35-,36+/m1/s1

>  <standard_inchi_key>  (287) 
PHIXSVWGVTWPSQ-VEVJCKSASA-N

>  <name>  (287) 
Cabraleone

>  <iupac_name>  (287) 
2-[(2~{S},5~{S})-5-[(3~{E},5~{R},8~{R},9~{R},10~{R},13~{R},14~{R},17~{S})-3-[(2,4-dinitrophenyl)hydrazono]-4,4,8,10,14-pentamethyl-1,2,5,6,7,9,11,12,13,15,16,17-dodecahydrocyclopenta[a]phenanthren-17-yl]-5-methyl-tetrahydrofuran-2-yl]propan-2-ol

>  <annotation_level>  (287) 
5

>  <total_atom_count>  (287) 
100

>  <heavy_atom_count>  (287) 
46

>  <molecular_weight>  (287) 
638.85

>  <exact_molecular_weight>  (287) 
638.40434

>  <molecular_formula>  (287) 
C36H54N4O6

>  <alogp>  (287) 
8.66

>  <topological_polar_surface_area>  (287) 
140.13

>  <rotatable_bond_count>  (287) 
6

>  <hydrogen_bond_acceptors>  (287) 
8

>  <hydrogen_bond_donors>  (287) 
2

>  <hydrogen_bond_acceptors_lipinski>  (287) 
8

>  <hydrogen_bond_donors_lipinski>  (287) 
2

>  <lipinski_rule_of_five_violations>  (287) 
2

>  <aromatic_rings_count>  (287) 
1

>  <qed_drug_likeliness>  (287) 
0.23

>  <formal_charge>  (287) 
0

>  <fractioncsp3>  (287) 
0.81

>  <number_of_minimal_rings>  (287) 
6

>  <van_der_walls_volume>  (287) 
nan

>  <contains_sugar>  (287) 
False

>  <contains_ring_sugars>  (287) 
False

>  <contains_linear_sugars>  (287) 
False

>  <murcko_framework>  (287) 
N(Nc1ccccc1)=C2CCC3C(C2)CCC4C3CCC5C(CCC54)C6OCCC6

>  <np_likeness>  (287) 
1.41

>  <chemical_class>  (287) 
Prenol lipids

>  <chemical_sub_class>  (287) 
Terpene glycosides

>  <chemical_super_class>  (287) 
Lipids and lipid-like molecules

>  <direct_parent_classification>  (287) 
Triterpene saponins

>  <np_classifier_pathway>  (287) 
Terpenoids

>  <np_classifier_superclass>  (287) 
Triterpenoids

>  <np_classifier_class>  (287) 
Dammarane and Protostane triterpenoids

>  <np_classifier_is_glycoside>  (287) 
False

>  <organisms>  (287) 
Cabralea polytricha

>  <collections>  (287) 
Latin America dataset|NuBBEDB|Supernatural3

>  <dois>  (287) 
10.1016/0040-4020(72)80138-8

>  <synonyms>  (287) 
Cabraleone

>  <cas>  (287) 
nan

$$$$

     RDKit          2D

 24 26  0  0  0  0  0  0  0  0999 V2000
   -7.5867    1.8289    0.0000 C   0  0  0  0  0  0  0  0  0  0  0  0
   -7.0535    0.4269    0.0000 O   0  0  0  0  0  0  0  0  0  0  0  0
   -5.5727    0.1876    0.0000 C   0  0  0  0  0  0  0  0  0  0  0  0
   -4.6251    1.3504    0.0000 C   0  0  0  0  0  0  0  0  0  0  0  0
   -3.1443    1.1111    0.0000 C   0  0  0  0  0  0  0  0  0  0  0  0
   -2.6111   -0.2909    0.0000 C   0  0  0  0  0  0  0  0  0  0  0  0
   -1.1303   -0.5301    0.0000 C   0  0  0  0  0  0  0  0  0  0  0  0
   -0.5971   -1.9322    0.0000 C   0  0  0  0  0  0  0  0  0  0  0  0
    0.8837   -2.1714    0.0000 C   0  0  0  0  0  0  0  0  0  0  0  0
    1.4169   -3.5735    0.0000 O   0  0  0  0  0  0  0  0  0  0  0  0
    1.8313   -1.0087    0.0000 C   0  0  0  0  0  0  0  0  0  0  0  0
    3.3121   -1.2479    0.0000 C   0  0  0  0  0  0  0  0  0  0  0  0
    3.8453   -2.6500    0.0000 O   0  0  0  0  0  0  0  0  0  0  0  0
    4.2597   -0.0851    0.0000 C   0  0  0  0  0  0  0  0  0  0  0  0
    5.7405   -0.3244    0.0000 C   0  0  0  0  0  0  0  0  0  0  0  0
    3.7265    1.3169    0.0000 C   0  0  0  0  0  0  0  0  0  0  0  0
    4.6741    2.4797    0.0000 O   0  0  0  0  0  0  0  0  0  0  0  0
    6.1549    2.2404    0.0000 C   0  0  0  0  0  0  0  0  0  0  0  0
    2.2457    1.5562    0.0000 C   0  0  0  0  0  0  0  0  0  0  0  0
    1.7125    2.9582    0.0000 C   0  0  0  0  0  0  0  0  0  0  0  0
    1.2981    0.3934    0.0000 C   0  0  0  0  0  0  0  0  0  0  0  0
   -0.1827    0.6326    0.0000 O   0  0  0  0  0  0  0  0  0  0  0  0
   -3.5587   -1.4537    0.0000 C   0  0  0  0  0  0  0  0  0  0  0  0
   -5.0395   -1.2144    0.0000 C   0  0  0  0  0  0  0  0  0  0  0  0
  1  2  1  0
  2  3  1  0
  3  4  2  0
  4  5  1  0
  5  6  2  0
  6  7  1  0
  7  8  2  0
  8  9  1  0
  9 10  2  0
  9 11  1  0
 11 12  2  0
 12 13  1  0
 12 14  1  0
 14 15  1  0
 14 16  2  0
 16 17  1  0
 17 18  1  0
 16 19  1  0
 19 20  1  0
 19 21  2  0
 21 22  1  0
  6 23  1  0
 23 24  2  0
 24  3  1  0
 22  7  1  0
 21 11  1  0
M  END
>  <identifier>  (288) 
CNP0277923.0

>  <canonical_smiles>  (288) 
COC1=CC=C(C2=CC(=O)C3=C(O)C(C)=C(OC)C(C)=C3O2)C=C1

>  <standard_inchi>  (288) 
InChI=1S/C19H18O5/c1-10-17(21)16-14(20)9-15(12-5-7-13(22-3)8-6-12)24-19(16)11(2)18(10)23-4/h5-9,21H,1-4H3

>  <standard_inchi_key>  (288) 
NHMMAMIRMITGRD-UHFFFAOYSA-N

>  <name>  (288) 
Eucalyptin

>  <iupac_name>  (288) 
5-hydroxy-7-methoxy-2-(4-methoxyphenyl)-6,8-dimethyl-chromen-4-one

>  <annotation_level>  (288) 
5

>  <total_atom_count>  (288) 
42

>  <heavy_atom_count>  (288) 
24

>  <molecular_weight>  (288) 
326.35

>  <exact_molecular_weight>  (288) 
326.11542

>  <molecular_formula>  (288) 
C19H18O5

>  <alogp>  (288) 
3.80

>  <topological_polar_surface_area>  (288) 
68.90

>  <rotatable_bond_count>  (288) 
3

>  <hydrogen_bond_acceptors>  (288) 
5

>  <hydrogen_bond_donors>  (288) 
1

>  <hydrogen_bond_acceptors_lipinski>  (288) 
5

>  <hydrogen_bond_donors_lipinski>  (288) 
1

>  <lipinski_rule_of_five_violations>  (288) 
0

>  <aromatic_rings_count>  (288) 
3

>  <qed_drug_likeliness>  (288) 
0.79

>  <formal_charge>  (288) 
0

>  <fractioncsp3>  (288) 
0.21

>  <number_of_minimal_rings>  (288) 
3

>  <van_der_walls_volume>  (288) 
289.47

>  <contains_sugar>  (288) 
False

>  <contains_ring_sugars>  (288) 
False

>  <contains_linear_sugars>  (288) 
False

>  <murcko_framework>  (288) 
O1c2ccccc2CC=C1c3ccccc3

>  <np_likeness>  (288) 
1.24

>  <chemical_class>  (288) 
Flavonoids

>  <chemical_sub_class>  (288) 
O-methylated flavonoids

>  <chemical_super_class>  (288) 
Phenylpropanoids and polyketides

>  <direct_parent_classification>  (288) 
4'-O-methylated flavonoids

>  <np_classifier_pathway>  (288) 
Shikimates and Phenylpropanoids

>  <np_classifier_superclass>  (288) 
Flavonoids

>  <np_classifier_class>  (288) 
Flavones

>  <np_classifier_is_glycoside>  (288) 
False

>  <organisms>  (288) 
Acicarpha tribuloides|Aconitum palmatum|Aconitum tianschanicum|Albatrellus caeruleoporus|Amanita pseudoporphyria|Angelica sinensis|Angophora lanceolata|Angophora subvelutina|Aniba rosaeodora|Aplysilla rosea|Aplysinella rhax|Arbacia pustulosa|Ariocarpus fissuratus|Bidens tripartita|Cacalia robusta|Callistemon citrinus|Callistemon lanceolatus|Carpesium faberi|Centaurea arbutifolia|Centaurea musimomum|Chlamydomonas allensworthii|Cladonia pityrea|Claviceps microcephala|Codonopsis cordifolioidea|Corydalis sewerzowi|Corymbia torelliana|Crematogaster africana|Cryptolestes pusillus|Dahlstedtia pentaphylla|Erium villosum|Erylus nobilis|Eucalyptus camaldulensis var. pendula|Eucalyptus cinerea|Eucalyptus citriodora|Eucalyptus cladocalyx|Eucalyptus globulus|Eucalyptus robusta|Eucalyptus saligna|Eucalyptus torelliana|Eugenia biflora|Euphausia superba|Flemingia philippinensis|Genista sessilifolia|Gomphostemma parviflorum|Hippobroma longiflora|Hypericum japonicum|Kalmia latifolia|Lambertella corni|Lepidorhinus squamosus|Machaerium kuhlmannii|Myrcia citrifolia|Myrcia glabra|Myrcia guianensis|Mytilus galloprovincialis|Onoseris alata|Petrosia corticata|Piper acutifolium|Psilotum nudum|Scytonema ocellatum|Senecio zoellneri|Solanum diflorum|Staehelina fruticosa|Streptomyces fradiae|Syncarpia glomulifera|Trapa bicornis|Vallaris heynei|Vellozia streptophylla|Xyris indica|Zygosaccharomyces rouxii

>  <collections>  (288) 
Australian natural products|CMAUP (cCollective molecular activities of useful plants)|GNPS (Global Natural Products Social Molecular Networking)|KNApSaCK|Latin America dataset|NPASS|NPEdia|NuBBEDB|Super Natural II|TCMDB-Taiwan (Traditional Chinese Medicine database)|TCMID (Traditional Chinese Medicine Integrated Database)|UNPD (Universal Natural Products Database)|WikiData Natural Products|ZINC NP

>  <dois>  (288) 
10.1002/CHIN.200535206|10.1016/0031-9422(83)85027-4|10.1016/J.PHYTOCHEM.2004.12.018|10.1016/J.PHYTOL.2011.08.010|10.1016/S0031-9422(00)86214-7|10.1016/S0031-9422(00)88490-3|10.1016/S0305-1978(03)00134-0|10.1021/acs.jnatprod.0c00330|10.1055/S-2006-957706|10.1055/s-2006-957706|10.1071/CH9640464|10.1515/ZNB-1991-0925

>  <synonyms>  (288) 
3122-88-1|4',7-Dimethoxy-6,8-dimethyl-5-hydroxyflavone|4',7-Dimethoxy-6,8-dimethyl-5-hydroxyflavone; Eucalyptin|5-Hydroxy-7-methoxy-2-(4-methoxyphenyl)-6,8-dimethyl-4-benzopyrone|5-Hydroxy-7-methoxy-2-(4-methoxyphenyl)-6,8-dimethyl-4H-chromen-4-one|5-hydroxy-7,4'-dimethoxy-6,8-dimethylflavone|A876000|AKOS016009468|B0005-178920|CHEMBL4750729|CS-0024388|DB-047989|DTXSID60185145|EINECS 221-502-8|Eucalyptin|Eucalyptin, 5-hydroxy-47-dimethoxy-68-dimethylflavone|FS-9743|Flavone, 5-hydroxy-4',7-dimethoxy-6,8-dimethyl-|HY-N3876|LMPK12111028|NHMMAMIRMITGRD-UHFFFAOYSA-N|NS00029040|SCHEMBL1250942

>  <cas>  (288) 
3122-88-1

$$$$

     RDKit          2D

 10 10  0  0  0  0  0  0  0  0999 V2000
   -4.6450    0.6199    0.0000 C   0  0  0  0  0  0  0  0  0  0  0  0
   -3.5176   -0.3695    0.0000 C   0  0  0  0  0  0  0  0  0  0  0  0
   -2.0970    0.1121    0.0000 C   0  0  0  0  0  0  0  0  0  0  0  0
   -0.9696   -0.8774    0.0000 C   0  0  0  0  0  0  0  0  0  0  0  0
    0.4510   -0.3958    0.0000 C   0  0  0  0  0  0  0  0  0  0  0  0
    0.7442    1.0753    0.0000 C   0  0  0  0  0  0  0  0  0  0  0  0
    2.1647    1.5569    0.0000 C   0  0  0  0  0  0  0  0  0  0  0  0
    3.2921    0.5674    0.0000 C   0  0  0  0  0  0  0  0  0  0  0  0
    2.9989   -0.9036    0.0000 C   0  0  0  0  0  0  0  0  0  0  0  0
    1.5783   -1.3852    0.0000 C   0  0  0  0  0  0  0  0  0  0  0  0
  1  2  1  0
  2  3  1  0
  3  4  1  0
  4  5  1  0
  5  6  2  0
  6  7  1  0
  7  8  1  0
  8  9  1  0
  9 10  1  0
 10  5  1  0
M  END
>  <identifier>  (289) 
CNP0080623.0

>  <canonical_smiles>  (289) 
CCCCC1=CCCCC1

>  <standard_inchi>  (289) 
InChI=1S/C10H18/c1-2-3-7-10-8-5-4-6-9-10/h8H,2-7,9H2,1H3

>  <standard_inchi_key>  (289) 
INNYVOGDZSDNIP-UHFFFAOYSA-N

>  <name>  (289) 
Cyclohexene, 1-butyl-

>  <iupac_name>  (289) 
1-butylcyclohexene

>  <annotation_level>  (289) 
5

>  <total_atom_count>  (289) 
28

>  <heavy_atom_count>  (289) 
10

>  <molecular_weight>  (289) 
138.25

>  <exact_molecular_weight>  (289) 
138.14085

>  <molecular_formula>  (289) 
C10H18

>  <alogp>  (289) 
3.68

>  <topological_polar_surface_area>  (289) 
0.00

>  <rotatable_bond_count>  (289) 
3

>  <hydrogen_bond_acceptors>  (289) 
0

>  <hydrogen_bond_donors>  (289) 
0

>  <hydrogen_bond_acceptors_lipinski>  (289) 
0

>  <hydrogen_bond_donors_lipinski>  (289) 
0

>  <lipinski_rule_of_five_violations>  (289) 
0

>  <aromatic_rings_count>  (289) 
0

>  <qed_drug_likeliness>  (289) 
0.52

>  <formal_charge>  (289) 
0

>  <fractioncsp3>  (289) 
0.80

>  <number_of_minimal_rings>  (289) 
1

>  <van_der_walls_volume>  (289) 
nan

>  <contains_sugar>  (289) 
False

>  <contains_ring_sugars>  (289) 
False

>  <contains_linear_sugars>  (289) 
False

>  <murcko_framework>  (289) 
C1=CCCCC1

>  <np_likeness>  (289) 
0.14

>  <chemical_class>  (289) 
Unsaturated hydrocarbons

>  <chemical_sub_class>  (289) 
Branched unsaturated hydrocarbons

>  <chemical_super_class>  (289) 
Hydrocarbons

>  <direct_parent_classification>  (289) 
Branched unsaturated hydrocarbons

>  <np_classifier_pathway>  (289) 
nan

>  <np_classifier_superclass>  (289) 
nan

>  <np_classifier_class>  (289) 
nan

>  <np_classifier_is_glycoside>  (289) 
False

>  <organisms>  (289) 
Caryocar coriaceum

>  <collections>  (289) 
Latin America dataset|NuBBEDB|WikiData Natural Products|ZINC NP

>  <dois>  (289) 
10.1021/JF00120A031|10.1021/jf00120a031

>  <synonyms>  (289) 
1-butyl-cyclohexene|3282-53-9|DTXSID60186495|INNYVOGDZSDNIP-UHFFFAOYSA-N

>  <cas>  (289) 
3282-53-9

$$$$

     RDKit          2D

  8  8  0  0  0  0  0  0  0  0999 V2000
   -2.5981   -1.1250    0.0000 O   0  0  0  0  0  0  0  0  0  0  0  0
   -1.2990   -0.3750    0.0000 C   0  0  0  0  0  0  0  0  0  0  0  0
   -1.2990    1.1250    0.0000 C   0  0  0  0  0  0  0  0  0  0  0  0
    0.0000    1.8750    0.0000 C   0  0  0  0  0  0  0  0  0  0  0  0
    1.2990    1.1250    0.0000 N   0  0  0  0  0  0  0  0  0  0  0  0
    1.2990   -0.3750    0.0000 C   0  0  0  0  0  0  0  0  0  0  0  0
    2.5981   -1.1250    0.0000 O   0  0  0  0  0  0  0  0  0  0  0  0
   -0.0000   -1.1250    0.0000 N   0  0  0  0  0  0  0  0  0  0  0  0
  1  2  2  0
  2  3  1  0
  3  4  2  0
  4  5  1  0
  5  6  1  0
  6  7  2  0
  6  8  1  0
  8  2  1  0
M  END
>  <identifier>  (290) 
CNP0289236.0

>  <canonical_smiles>  (290) 
O=C1C=CNC(=O)N1

>  <standard_inchi>  (290) 
InChI=1S/C4H4N2O2/c7-3-1-2-5-4(8)6-3/h1-2H,(H2,5,6,7,8)

>  <standard_inchi_key>  (290) 
ISAKRJDGNUQOIC-UHFFFAOYSA-N

>  <name>  (290) 
uracil

>  <iupac_name>  (290) 
1~{H}-pyrimidine-2,4-dione

>  <annotation_level>  (290) 
5

>  <total_atom_count>  (290) 
12

>  <heavy_atom_count>  (290) 
8

>  <molecular_weight>  (290) 
112.09

>  <exact_molecular_weight>  (290) 
112.02728

>  <molecular_formula>  (290) 
C4H4N2O2

>  <alogp>  (290) 
-0.94

>  <topological_polar_surface_area>  (290) 
65.72

>  <rotatable_bond_count>  (290) 
0

>  <hydrogen_bond_acceptors>  (290) 
2

>  <hydrogen_bond_donors>  (290) 
2

>  <hydrogen_bond_acceptors_lipinski>  (290) 
2

>  <hydrogen_bond_donors_lipinski>  (290) 
2

>  <lipinski_rule_of_five_violations>  (290) 
0

>  <aromatic_rings_count>  (290) 
1

>  <qed_drug_likeliness>  (290) 
0.45

>  <formal_charge>  (290) 
0

>  <fractioncsp3>  (290) 
0.00

>  <number_of_minimal_rings>  (290) 
1

>  <van_der_walls_volume>  (290) 
91.46

>  <contains_sugar>  (290) 
False

>  <contains_ring_sugars>  (290) 
False

>  <contains_linear_sugars>  (290) 
False

>  <murcko_framework>  (290) 
C1=CCNCN1

>  <np_likeness>  (290) 
0.03

>  <chemical_class>  (290) 
Diazines

>  <chemical_sub_class>  (290) 
Pyrimidines and pyrimidine derivatives

>  <chemical_super_class>  (290) 
Organoheterocyclic compounds

>  <direct_parent_classification>  (290) 
Pyrimidones

>  <np_classifier_pathway>  (290) 
Alkaloids

>  <np_classifier_superclass>  (290) 
Pseudoalkaloids

>  <np_classifier_class>  (290) 
Purine alkaloids

>  <np_classifier_is_glycoside>  (290) 
False

>  <organisms>  (290) 
Aconitum carmichaeli|Actinidia chinensis|Amanita muscaria|Angelica Sinensis|Angelica sinensis|Arabidopsis thaliana|Aristolochia heterophylla|Aristolochia kaempferi|Aspergillus fumigatus|Barbados nut|Begonia nantoensis|Caenorhabditis elegans|Carteriospongia|Citrullus lanatus|Colletotrichum gloeosporioides|Conioselinum anthriscoides|Cordyceps militaris|Coriandrum sativum|Corydyceps militaris cv.|Corydyceps sinensis|Crocus sativus|Cuminum cymimum L|Cuminum cyminum|Daphnia magna|Echinoclathria gibbosa|Eleutherococcus giraldii|Escherichia coli|Euphorbia altotibetica|FOOD SAKE|Ficus septica|Foeniculum vulgare|Fritillaria cirrhosa|Ganoderma japonicum|Ganoderma lucidum|Geodia japonica|Hamigera avellanea|Herpetospermum caudigerum WALL|Herpetospermum pedunculosum|Homo sapiens|Isotrema kaempferi|Junceella juncea|Kali collinum|Lathyrus davidii|Lepisorus fortunei|Leptochilus hemionitideus|Ligusticum chuanxiong|Ligusticum striatum|Lotus corniculatus|Mandragora officinarum|Momordica charantia|Muscari neglectum|Muscari racemosum|Neocheiropteris fortunei|Neolepisorus fortunei|Nocardia alba|Nothapodytes nimmoniana|Ophiocordyceps sinensis|Oreocome striata|Oryza aristata|Oryza sativa|Oxytropis racemosa|Panax ginseng|Pancratium maritimum|Paraphaeosphaeria minitans|Penicillium|Penicillium commune|Penicillium sp.|Petasites formosanus|Petrosiidae|Peucedanum japonicum|Phyllospongia|Phytophthora Phytophíhora drechsleri|Pinellia pedatisecta|Polyporus umbellatus|Procris repens|Rehmannia glutinosa|Salsola collina|Sauromatum giganteum|Scaphium affine|Senna didymobotrya|Sinorhizobium meliloti|Streptomyces xanthophaeus|Subergorgia suberosa|Tetradium daniellii|Trichoderma koningii|Trifolium glanduliferum|Tuber indicum|Ulva australis|Ulva pertusa|Viscum coloratum|Xanthium sibiricum|Xanthium strumarium|Zea Mays|Zea mays L.|maize

>  <collections>  (290) 
ANPDB|Australian natural products|ChEBI NPs|ChEMBL NPs|ChemSpider NPs|DrugBankNP|EMNPD|ETM (Ethiopian Traditional Medicine) DB|Exposome-explorer|FooDB|HIT (Herbal Ingredients Targets)|InterBioScreen Ltd|KNApSaCK|Latin America dataset|NANPDB (Natural Products from Northern African Sources)|Nat-UV DB|NuBBEDB|Phyto4Health|ReSpect|StreptomeDB|TCMDB-Taiwan (Traditional Chinese Medicine database)|TIPdb (database of Taiwan indigenous plants)|VietHerb|Watermelon|WikiData Natural Products

>  <dois>  (290) 
10.1002/CHIN.200313168|10.1002/CHIN.200338184|10.1002/CHIN.200345199|10.1002/CHIN.200434239|10.1002/HLCA.19690520320|10.1002/MRC.2393|10.1007/BF02976999|10.1007/S10600-007-0130-1|10.1007/S10600-010-9599-0|10.1007/S10600-010-9760-9|10.1007/S10600-011-9896-2|10.1007/S11306-015-0840-5|10.1007/S11306-016-1051-4|10.1007/S11745-004-1328-X|10.1016/0031-9422(91)83764-C|10.1016/0031-9422(94)00901-5|10.1016/0031-9422(95)00524-2|10.1016/J.BSE.2012.02.004|10.1016/J.ENVINT.2009.12.006|10.1016/J.FITOTE.2010.05.013|10.1016/J.JEP.2008.06.025|10.1016/J.PHYTOL.2014.04.008|10.1016/J.TET.2009.11.101|10.1016/S0021-9673(00)01241-3|10.1016/S0031-9422(00)97989-5|10.1016/S0031-9422(01)00129-7|10.1016/S0031-9422(03)00103-1|10.1016/S0031-9422(98)00531-7|10.1016/j.phytol.2014.04.008|10.1021/AC2001109|10.1021/ACSSYNBIO.8B00158|10.1021/JF0262458|10.1021/JF0502202|10.1021/JF300146N|10.1021/NP000204T|10.1021/NP0100789|10.1021/NP020188V|10.1021/NP020592U|10.1021/NP100902F|10.1021/jf0502202|10.1038/MSB.2011.65|10.1038/NBT.2488|10.1055/S-2006-957549|10.1055/S-2006-960851|10.1055/S-2009-1216432|10.1074/JBC.M100393200|10.1080/00032719.2011.551856|10.1080/10286020108040367|10.1080/14786419.2010.539182|10.1080/14786419.2016.1269100|10.1093/pcp/pcn183|10.1111/J.1365-3040.2009.02047.X|10.1111/J.1365-313X.2007.03381.X|10.1111/J.1469-8137.2011.03711.X|10.1142/S0192415X87000151|10.1201/B13959-20|10.1201/B14669-29|10.1248/CPB.43.1035|10.1248/CPB.43.1663|10.1248/CPB.47.887|10.1248/CPB.47.988|10.1248/CPB.50.1305|10.1248/CPB.51.32|10.1248/CPB.52.1476|10.1248/CPB.52.345|10.1248/CPB.54.1063|10.1248/CPB.55.153|10.1248/CPB.56.192|10.1248/CPB.56.993|10.1248/CPB.58.1587|10.1248/YAKUSHI1947.105.7_655|10.1248/YAKUSHI1947.98.8_1132|10.1515/ZNC-2009-11-1212|10.1515/znc-2009-11-1212|10.21608/BFSA.1988.73506|10.21767/2172-0479.100132|10.3184/030823409X12562954717147|10.3389/FMOLB.2018.00069|10.3389/FMOLB.2018.00096|10.3390/MOLECULES15053270|10.3390/MOLECULES16031917|10.3987/COM-02-9615|10.3987/COM-03-9787|10.4268/CJCMM20100813

>  <synonyms>  (290) 
(4-Hydroxypyrimidin-2-yl)oxidanyl|1,2,3,4-tetrahydropyrimidine-2,4-dione|144104-68-7|1H-Pyrimidine-2,4-dione|1H-pyrimidine-2,4-dione;Uracil|1ui0|2,3H)-Pyrimidinedione|2,4(1H,3H)-Pyrimidinedione|2,4(1H,3H)-Pyrimidinedione (9CI)|2,4-(1h,3h)-pyrimidinedione|2,4-Dihydroxypyrimidine|2,4-Dioxopyrimidine|2,4-Pyrimidinediol|2,4-Pyrimidinediol (9CI)|2,6-Dioxypyrimidin|2-Hydroxy-4(3H)-pyrimidinone|2-hydroxy-4-(1H)-pyrimidione|24897-51-6|4(3H)-Pyrimidinone, 2-hydroxy-|4-Hydroxy-2(1H)-pyrimidinone|4-Hydroxyuracil|51953-14-1|51953-19-6|56HH86ZVCT|66-22-8|66224-60-0|66255-05-8|8h-uracil|A835376|AB00171810_03|AB00918623-05|AC-907\/30002021|AI3-25470|AKOS000119989|AKOS002303991|AM83913|BCP26546|BDBM50549809|BMS 205603-01|C00106|CAS-66-22-8|CCG-213042|CCG-35866|CCRIS 3077|CHEBI:17568|CHEMBL566|CID 5274267|CS-W020104|D00027|DB-030518|DB-103964|DB-268940|DB-268966|DB-272084|DB-272202|DB03419|DTXCID101424|DTXSID4021424|DTXSID501007260|E2FC11E5-1887-46DF-B415-82313CE9B2BD|EINECS 200-621-9|EN300-17138|Epitope ID:120356|F1796-0008|FLUOROURACIL IMPURITY C (EP IMPURITY)|FLUOROURACIL SPECIFIED COMPOUND C (USP IMPURITY)|Fluorouracil Impurity C|Fluorouracil impurity C, European Pharmacopoeia (EP) Reference Standard|Fluorouracil specified compound c|GTPL4560|HMS2234E19|HMS3264C13|HMS3373E18|HMS3652N05|HY-I0960|Hybar X|InChI=1\/C4H4N2O2\/c7-3-1-2-5-4(8)6-3\/h1-2H,(H2,5,6,7,8|LAMIVUDINE IMPURITY E [USP IMPURITY]|LAMIVUDINE IMPURITY F (EP IMPURITY)|Lamivudine impurity e|MFCD00006016|MLS001304993|NCGC00181030-01|NCGC00247663-01|NCGC00258576-01|NCI60_003718|NCIMech_000782|NS00002070|NSC 3970|NSC-3970|NSC29742|NSC759649|PS-5279|Pharmakon1600-01502345|Pirod|Pyrimidine-2,4(1H,3H)-dione (Uracil)|Pyrod|Q182990|RU 12709|SB55489|SB55884|SCHEMBL8235|SMR000752912|SQ 6201|SQ 7726|SQ 8493|SQ-6201|SQ-7726|SQ-8493|STK301734|STL124066|SW220239-1|SY008943|Tox21_112680|Tox21_201023|U0013|UNII-56HH86ZVCT|URACIL (MART.)|URACIL (USP-RS)|URACIL [INCI]|URACIL [JAN]|URACIL [MART.]|URACIL [MI]|URACIL [USP-RS]|URACIL [WHO-DD]|URACIL-5-D1|Ura|Uracil|Uracil (8CI)|Uracil (JAN\/USAN)|Uracil [USAN:JAN]|Uracil [USAN]|Uracil, 99%|Uracil, >=99.0%|Uracil, >=99.0% (T)|Uracil, Pharmaceutical Secondary Standard; Certified Reference Material|Uracil, United States Pharmacopeia (USP) Reference Standard|Uracil, Vetec(TM) reagent grade, 98%|Uracil, suitable for cell culture, BioReagent|Uracil,(S)|Uracyl|Urazil|Z56889474|bmse000187|bmse000940|hydroxypyrimidinone|pyrimidine-2,4(1H,3H)-dione|pyrimidine-2,4-diol|s4177|uracil

>  <cas>  (290) 
66-22-8|51953-14-1|24897-51-6|66255-05-8|144104-68-7|66224-60-0|51953-19-6|28806-15-7

$$$$

     RDKit          2D

  9  8  0  0  0  0  0  0  0  0999 V2000
   -3.8971    0.7500    0.0000 C   0  0  0  0  0  0  0  0  0  0  0  0
   -2.5981    0.0000    0.0000 C   0  0  0  0  0  0  0  0  0  0  0  0
   -2.5981   -1.5000    0.0000 C   0  0  0  0  0  0  0  0  0  0  0  0
   -1.2990    0.7500    0.0000 C   0  0  0  0  0  0  0  0  0  0  0  0
    0.0000    0.0000    0.0000 C   0  0  0  0  0  0  0  0  0  0  0  0
    1.2990    0.7500    0.0000 N   0  0  0  0  0  0  0  0  0  0  0  0
    2.5981    0.0000    0.0000 C   0  0  0  0  0  0  0  0  0  0  0  0
    2.5981   -1.5000    0.0000 N   0  0  0  0  0  0  0  0  0  0  0  0
    3.8971    0.7500    0.0000 N   0  0  0  0  0  0  0  0  0  0  0  0
  1  2  1  0
  2  3  1  0
  2  4  2  0
  4  5  1  0
  5  6  1  0
  6  7  1  0
  7  8  2  0
  7  9  1  0
M  END
>  <identifier>  (291) 
CNP0549417.0

>  <canonical_smiles>  (291) 
CC(C)=CCNC(=N)N

>  <standard_inchi>  (291) 
InChI=1S/C6H13N3/c1-5(2)3-4-9-6(7)8/h3H,4H2,1-2H3,(H4,7,8,9)

>  <standard_inchi_key>  (291) 
UVMLHMAIUVSYOL-UHFFFAOYSA-N

>  <name>  (291) 
Galegine

>  <iupac_name>  (291) 
1-(3-methylbut-2-enyl)guanidine

>  <annotation_level>  (291) 
5

>  <total_atom_count>  (291) 
22

>  <heavy_atom_count>  (291) 
9

>  <molecular_weight>  (291) 
127.19

>  <exact_molecular_weight>  (291) 
127.11095

>  <molecular_formula>  (291) 
C6H13N3

>  <alogp>  (291) 
0.44

>  <topological_polar_surface_area>  (291) 
61.90

>  <rotatable_bond_count>  (291) 
2

>  <hydrogen_bond_acceptors>  (291) 
1

>  <hydrogen_bond_donors>  (291) 
3

>  <hydrogen_bond_acceptors_lipinski>  (291) 
1

>  <hydrogen_bond_donors_lipinski>  (291) 
3

>  <lipinski_rule_of_five_violations>  (291) 
0

>  <aromatic_rings_count>  (291) 
0

>  <qed_drug_likeliness>  (291) 
0.29

>  <formal_charge>  (291) 
0

>  <fractioncsp3>  (291) 
0.50

>  <number_of_minimal_rings>  (291) 
0

>  <van_der_walls_volume>  (291) 
138.18

>  <contains_sugar>  (291) 
False

>  <contains_ring_sugars>  (291) 
False

>  <contains_linear_sugars>  (291) 
False

>  <murcko_framework>  (291) 
nan

>  <np_likeness>  (291) 
1.66

>  <chemical_class>  (291) 
Organonitrogen compounds

>  <chemical_sub_class>  (291) 
Guanidines

>  <chemical_super_class>  (291) 
Organic nitrogen compounds

>  <direct_parent_classification>  (291) 
Guanidines

>  <np_classifier_pathway>  (291) 
Terpenoids

>  <np_classifier_superclass>  (291) 
Monoterpenoids

>  <np_classifier_class>  (291) 
nan

>  <np_classifier_is_glycoside>  (291) 
False

>  <organisms>  (291) 
Aristolochia triangularis|Galega officinalis|Machilus japonica|Pterogyne nitens|Verbena encelioides (Cav.) Benth.& Hook|Verbesina encelioides|verbesina caracasana

>  <collections>  (291) 
Australian natural products|CMAUP (cCollective molecular activities of useful plants)|ChEBI NPs|ChemSpider NPs|KNApSaCK|Latin America dataset|NPASS|NPEdia|NuBBEDB|Super Natural II|TCMDB-Taiwan (Traditional Chinese Medicine database)|UNPD (Universal Natural Products Database)|ZINC NP

>  <dois>  (291) 
10.1016/0031-9422(82)80021-6|10.1016/s0960-894x(99)00569-7|10.1021/np800612x

>  <synonyms>  (291) 
Galegine|galegine

>  <cas>  (291) 
543-83-9

$$$$

     RDKit          2D

 22 24  0  0  0  0  0  0  0  0999 V2000
   -7.0636    1.8589    0.0000 C   0  0  0  0  0  0  0  0  0  0  0  0
   -6.5991    0.4326    0.0000 O   0  0  0  0  0  0  0  0  0  0  0  0
   -5.1317    0.1216    0.0000 C   0  0  0  0  0  0  0  0  0  0  0  0
   -4.1287    1.2370    0.0000 C   0  0  0  0  0  0  0  0  0  0  0  0
   -2.6613    0.9261    0.0000 C   0  0  0  0  0  0  0  0  0  0  0  0
   -2.1969   -0.5002    0.0000 C   0  0  0  0  0  0  0  0  0  0  0  0
   -0.7294   -0.8112    0.0000 C   0  0  0  0  0  0  0  0  0  0  0  0
   -0.2650   -2.2375    0.0000 C   0  0  0  0  0  0  0  0  0  0  0  0
    1.2024   -2.5484    0.0000 O   0  0  0  0  0  0  0  0  0  0  0  0
    2.2054   -1.4330    0.0000 C   0  0  0  0  0  0  0  0  0  0  0  0
    3.6728   -1.7440    0.0000 C   0  0  0  0  0  0  0  0  0  0  0  0
    4.6758   -0.6286    0.0000 C   0  0  0  0  0  0  0  0  0  0  0  0
    6.1432   -0.9395    0.0000 O   0  0  0  0  0  0  0  0  0  0  0  0
    4.2114    0.7977    0.0000 C   0  0  0  0  0  0  0  0  0  0  0  0
    5.2144    1.9130    0.0000 O   0  0  0  0  0  0  0  0  0  0  0  0
    4.7499    3.3393    0.0000 C   0  0  0  0  0  0  0  0  0  0  0  0
    2.7439    1.1086    0.0000 C   0  0  0  0  0  0  0  0  0  0  0  0
    1.7410   -0.0067    0.0000 C   0  0  0  0  0  0  0  0  0  0  0  0
    0.2735    0.3042    0.0000 C   0  0  0  0  0  0  0  0  0  0  0  0
   -0.1909    1.7305    0.0000 O   0  0  0  0  0  0  0  0  0  0  0  0
   -3.1999   -1.6156    0.0000 C   0  0  0  0  0  0  0  0  0  0  0  0
   -4.6673   -1.3047    0.0000 C   0  0  0  0  0  0  0  0  0  0  0  0
  1  2  1  0
  2  3  1  0
  3  4  2  0
  4  5  1  0
  5  6  2  0
  6  7  1  0
  7  8  2  0
  8  9  1  0
  9 10  1  0
 10 11  2  0
 11 12  1  0
 12 13  1  0
 12 14  2  0
 14 15  1  0
 15 16  1  0
 14 17  1  0
 17 18  2  0
 18 19  1  0
 19 20  2  0
  6 21  1  0
 21 22  2  0
 22  3  1  0
 19  7  1  0
 18 10  1  0
M  END
>  <identifier>  (292) 
CNP0316994.0

>  <canonical_smiles>  (292) 
COC1=CC=C(C2=COC3=CC(O)=C(OC)C=C3C2=O)C=C1

>  <standard_inchi>  (292) 
InChI=1S/C17H14O5/c1-20-11-5-3-10(4-6-11)13-9-22-15-8-14(18)16(21-2)7-12(15)17(13)19/h3-9,18H,1-2H3

>  <standard_inchi_key>  (292) 
KJGPBYUQZLUKLL-UHFFFAOYSA-N

>  <name>  (292) 
Afrormosin

>  <iupac_name>  (292) 
7-hydroxy-6-methoxy-3-(4-methoxyphenyl)chromen-4-one

>  <annotation_level>  (292) 
5

>  <total_atom_count>  (292) 
36

>  <heavy_atom_count>  (292) 
22

>  <molecular_weight>  (292) 
298.29

>  <exact_molecular_weight>  (292) 
298.08412

>  <molecular_formula>  (292) 
C17H14O5

>  <alogp>  (292) 
3.18

>  <topological_polar_surface_area>  (292) 
68.90

>  <rotatable_bond_count>  (292) 
3

>  <hydrogen_bond_acceptors>  (292) 
5

>  <hydrogen_bond_donors>  (292) 
1

>  <hydrogen_bond_acceptors_lipinski>  (292) 
5

>  <hydrogen_bond_donors_lipinski>  (292) 
1

>  <lipinski_rule_of_five_violations>  (292) 
0

>  <aromatic_rings_count>  (292) 
3

>  <qed_drug_likeliness>  (292) 
0.80

>  <formal_charge>  (292) 
0

>  <fractioncsp3>  (292) 
0.12

>  <number_of_minimal_rings>  (292) 
3

>  <van_der_walls_volume>  (292) 
257.04

>  <contains_sugar>  (292) 
False

>  <contains_ring_sugars>  (292) 
False

>  <contains_linear_sugars>  (292) 
False

>  <murcko_framework>  (292) 
O1C=C(c2ccccc2)Cc3ccccc13

>  <np_likeness>  (292) 
0.69

>  <chemical_class>  (292) 
Isoflavonoids

>  <chemical_sub_class>  (292) 
Isoflav-2-enes

>  <chemical_super_class>  (292) 
Phenylpropanoids and polyketides

>  <direct_parent_classification>  (292) 
Isoflavones

>  <np_classifier_pathway>  (292) 
Shikimates and Phenylpropanoids

>  <np_classifier_superclass>  (292) 
Isoflavonoids

>  <np_classifier_class>  (292) 
Isoflavones

>  <np_classifier_is_glycoside>  (292) 
False

>  <organisms>  (292) 
Acacia myrtifolia|Aeschrion excelsa|Afrormosia elata|Amorpha fruticosa|Amphimas pterocarpoides|Andira inermis|Astragalus clusii|Astragalus membranaceus|Astragalus mongholicus|Astragalus trimestris|Avena sativa|Baptisia arachnifera|Baptisia australis|Baptisia bracteata|Baptisia cinerea|Baptisia lanceolata|Baptisia lecontei|Baptisia megacarpa|Baptisia nuttalliana|Baptisia perfoliata|Baptisia simplicifolia|Baptisia tinctoria|Bowdichia virgilioides|Brachymeris montana|Bryocaulon pseudosatoanum|Butea monosperma|Callerya cinerea|Castanea mollissima|Castanospermum australe|Caulis millettiae|Caulis spatholobi|Centrosema haitiense|Centrosema pubescens|Cladrastis kentukea|Cladrastis platycarpa|Cladrastis sikokiana|Commiphora sphaerocarpa|Croton zehntneri|Cyclopia intermedia|Dalbergia assamica|Dalbergia frutescens|Dalbergia riparia|Dasycladus vermicularis|Dipteryx alata|Dipteryx odorata|Dorstenia dinklagei|Echinops transiliensis|Erythrina speciosa|Fraxinus angustifolia subsp. oxycarpa|Gliricidia Sepium|Gliricidia sepium|Glycine Max|Glycine max|Glycine soja|Glycyrrhiza glabra|Glycyrrhiza pallidiflora|Haemanthus amarylloides|Hedysarum polybotrys|Hedysarum theinum|Helichrysum drakensbergense|Junceella gemmacea|Lantana montevidensis|Lecidea quernea|Medicago truncatula|Millettia dielsiana|Millettia leucantha|Millettia reticulata|Muscari botryoides|Mycena sanguinolenta|Myrocarpus fastigiatus|Myroxylon balsamum|Myroxylon peruiferum|Neurymenia fraxinifolia|Ochna gamblei|Olearia pimeleoides|Onobrychis ebenoides|Onobrychis viciifolia|Pericopsis elata|Pericopsis mooniana|Piper divaricatum|Pisum Sativum|Pisum sativum|Plakortis angulospiculatus|Polyporus pini|Prosopis africana|Prunus prostrata|Pterodon apparicioi|Richteria pyrethroides|Salvia castanea|Santolina pectinata|Sapium haematospermum|Satureja vulgaris|Senecio suaveolens|Spatholobus suberectus|Stellaria holostea|Streptomyces lydicus|Streptomyces nobilis|Swartzia arborescens|Swartzia simplex|Taverniera abyssinica|Teclea gerrardii|Terminalia arjuna|Thalictrum flavum|Trifolium pratense|Tropicoporus linteus|Wistaria brachybotrys|Wisteria brachybotrys|Wisteria floribunda|liquorice|soybean

>  <collections>  (292) 
ANPDB|Australian natural products|CMAUP (cCollective molecular activities of useful plants)|ChEBI NPs|GNPS (Global Natural Products Social Molecular Networking)|KNApSaCK|Latin America dataset|Mitishamba database|NANPDB (Natural Products from Northern African Sources)|NPASS|NPCARE|NPEdia|NuBBEDB|Super Natural II|TCMDB-Taiwan (Traditional Chinese Medicine database)|TCMID (Traditional Chinese Medicine Integrated Database)|TIPdb (database of Taiwan indigenous plants)|UNPD (Universal Natural Products Database)|VietHerb|WikiData Natural Products|ZINC NP

>  <dois>  (292) 
10.1002/(SICI)1099-1573(199712)11:8<603::AID-PTR161>3.0.CO;2-U|10.1002/(SICI)1099-1573(19980201)12:1<59::AID-PTR182>3.0.CO;2-R|10.1002/CHIN.200552195|10.1002/chin.200552195|10.1007/978-1-4615-3476-1_53|10.1007/S10600-009-9327-9|10.1016/0031-9422(79)80020-5|10.1016/0031-9422(81)80130-6|10.1016/0031-9422(88)80299-1|10.1016/0031-9422(88)80628-9|10.1016/0305-1978(93)90090-E|10.1016/J.CHROMA.2011.06.091|10.1016/J.PHYTOCHEM.2006.10.023|10.1016/S0031-9422(00)82901-5|10.1016/S0031-9422(00)85740-4|10.1016/S0031-9422(00)86942-3|10.1016/S0031-9422(00)91413-4|10.1016/S0031-9422(01)00295-3|10.1016/S0031-9422(97)00517-7|10.1016/S0031-9422(98)00066-1|10.1016/S0031-9422(98)00623-2|10.1016/S0040-4020(01)82920-3|10.1016/S0040-4039(01)88855-9|10.1016/S0367-326X(99)00084-2|10.1016/j.phytol.2014.02.001|10.1021/JF980258X|10.1021/JF991002+|10.1021/NP000010D|10.1021/NP50048A030|10.1021/NP50060A038|10.1021/NP50090A011|10.1021/NP50095A005|10.1021/NP9902993|10.1021/acs.jnatprod.5b00744|10.1021/np000010d|10.1021/np50060a038|10.1021/np50090a011|10.1021/np50095a005|10.1039/J39660000509|10.1039/P19760000186|10.1055/S-2005-916261|10.1055/S-2006-959380|10.1055/S-2008-1034291|10.1071/CH9630188|10.1071/ch9630188|10.1248/CPB.32.3267|10.1248/CPB.53.740|10.1248/CPB.57.428|10.1248/YAKUSHI1947.95.11_1388|10.1248/YAKUSHI1947.95.3_352|10.1515/ZNC-1980-11-1208|10.3390/MOLECULES15118193|10.3987/COM-11-12275|10.3987/COM-89-5304|10.3987/COM-95-7249

>  <synonyms>  (292) 
4H-1-Benzopyran-4-one, 7-hydroxy-3-(4-methoxyphenyl)-6-methoxy-|4H-1-Benzopyran-4-one, 7-hydroxy-6-methoxy-3-(4-methoxyphenyl)-|550-79-8|6,4'-Dimethoxy-7-hydroxyisoflavone|6-Methoxyformonetin|7-Hydroxy-4'6-dimethoxyisoflavone, Afrormosin, Afromosin|7-hydroxy-4',6-dimethoxyisoflavone|7-hydroxy-6-methoxy-3-(4-methoxyphenyl)-4H-1-benzopyran-4-one|7-hydroxy-6-methoxy-3-(4-methoxyphenyl)chromen-4-one|89P1SB9FYW|AFROMORSIN|AKOS024286653|Afromosin|BDBM50241529|CHEBI:2506|CHEMBL464404|CS-0078127|DTXSID90203543|FS-7688|HMS2198K16|HY-119846|Isoflavone, 7-hydroxy-4',6-dimethoxy-|LMPK12050100|MLS002473149|NCGC00247474-01|Q27105693|SCHEMBL572274|SMR001397241|UNII-89P1SB9FYW|afrormosin|castanin|cid_5281704

>  <cas>  (292) 
550-79-8

$$$$

     RDKit          2D

 25 28  0  0  0  0  0  0  0  0999 V2000
    4.0924   -4.7918    0.0000 C   0  0  0  0  0  0  0  0  0  0  0  0
    4.0840   -3.2918    0.0000 C   0  0  0  0  0  0  0  0  0  0  0  0
    2.7809   -2.5490    0.0000 C   0  0  0  0  0  0  0  0  0  0  0  0
    2.7725   -1.0490    0.0000 C   0  0  0  0  0  0  0  0  0  0  0  0
    4.0674   -0.2918    0.0000 C   0  0  0  0  0  0  0  0  0  0  0  0
    5.3706   -1.0346    0.0000 O   0  0  0  0  0  0  0  0  0  0  0  0
    4.0590    1.2082    0.0000 C   0  0  0  0  0  0  0  0  0  0  0  0
    5.3539    1.9654    0.0000 O   0  0  0  0  0  0  0  0  0  0  0  0
    5.3455    3.4653    0.0000 C   0  0  0  0  0  0  0  0  0  0  0  0
    2.7558    1.9509    0.0000 C   0  0  0  0  0  0  0  0  0  0  0  0
    1.4610    1.1937    0.0000 C   0  0  0  0  0  0  0  0  0  0  0  0
    1.4693   -0.3063    0.0000 C   0  0  0  0  0  0  0  0  0  0  0  0
    0.0453   -0.7777    0.0000 O   0  0  0  0  0  0  0  0  0  0  0  0
   -0.8431    0.4309    0.0000 C   0  0  0  0  0  0  0  0  0  0  0  0
   -2.3430    0.4225    0.0000 C   0  0  0  0  0  0  0  0  0  0  0  0
   -3.1003    1.7174    0.0000 C   0  0  0  0  0  0  0  0  0  0  0  0
   -4.6002    1.7091    0.0000 C   0  0  0  0  0  0  0  0  0  0  0  0
   -5.3430    0.4059    0.0000 C   0  0  0  0  0  0  0  0  0  0  0  0
   -6.8085    0.0858    0.0000 O   0  0  0  0  0  0  0  0  0  0  0  0
   -6.9570   -1.4068    0.0000 C   0  0  0  0  0  0  0  0  0  0  0  0
   -5.5833   -2.0093    0.0000 O   0  0  0  0  0  0  0  0  0  0  0  0
   -4.5858   -0.8890    0.0000 C   0  0  0  0  0  0  0  0  0  0  0  0
   -3.0858   -0.8806    0.0000 C   0  0  0  0  0  0  0  0  0  0  0  0
    0.0318    1.6493    0.0000 C   0  0  0  0  0  0  0  0  0  0  0  0
   -0.4396    3.0733    0.0000 C   0  0  0  0  0  0  0  0  0  0  0  0
  1  2  2  0
  2  3  1  0
  3  4  1  0
  4  5  2  0
  5  6  1  0
  5  7  1  0
  7  8  1  0
  8  9  1  0
  7 10  2  0
 10 11  1  0
 11 12  2  0
 12 13  1  0
 13 14  1  0
 14 15  1  1
 15 16  2  0
 16 17  1  0
 17 18  2  0
 18 19  1  0
 19 20  1  0
 20 21  1  0
 21 22  1  0
 22 23  2  0
 14 24  1  0
 24 25  1  1
 12  4  1  0
 23 15  1  0
 24 11  1  0
 22 18  1  0
M  END
>  <identifier>  (293) 
CNP0229639.2

>  <canonical_smiles>  (293) 
C=CCC1=C(O)C(OC)=CC2=C1O[C@@H](C1=CC=C3OCOC3=C1)[C@H]2C

>  <standard_inchi>  (293) 
InChI=1S/C20H20O5/c1-4-5-13-18(21)17(22-3)9-14-11(2)19(25-20(13)14)12-6-7-15-16(8-12)24-10-23-15/h4,6-9,11,19,21H,1,5,10H2,2-3H3/t11-,19+/m0/s1

>  <standard_inchi_key>  (293) 
FQNCUTFRYXECPL-JEOXALJRSA-N

>  <name>  (293) 
nan

>  <iupac_name>  (293) 
(2~{R},3~{S})-7-allyl-2-(1,3-benzodioxol-5-yl)-5-methoxy-3-methyl-2,3-dihydrobenzofuran-6-ol

>  <annotation_level>  (293) 
4

>  <total_atom_count>  (293) 
45

>  <heavy_atom_count>  (293) 
25

>  <molecular_weight>  (293) 
340.38

>  <exact_molecular_weight>  (293) 
340.13107

>  <molecular_formula>  (293) 
C20H20O5

>  <alogp>  (293) 
4.10

>  <topological_polar_surface_area>  (293) 
57.15

>  <rotatable_bond_count>  (293) 
4

>  <hydrogen_bond_acceptors>  (293) 
5

>  <hydrogen_bond_donors>  (293) 
1

>  <hydrogen_bond_acceptors_lipinski>  (293) 
5

>  <hydrogen_bond_donors_lipinski>  (293) 
1

>  <lipinski_rule_of_five_violations>  (293) 
0

>  <aromatic_rings_count>  (293) 
2

>  <qed_drug_likeliness>  (293) 
0.85

>  <formal_charge>  (293) 
0

>  <fractioncsp3>  (293) 
0.30

>  <number_of_minimal_rings>  (293) 
4

>  <van_der_walls_volume>  (293) 
nan

>  <contains_sugar>  (293) 
False

>  <contains_ring_sugars>  (293) 
False

>  <contains_linear_sugars>  (293) 
False

>  <murcko_framework>  (293) 
O1c2ccc(cc2OC1)C3Oc4ccccc4C3

>  <np_likeness>  (293) 
1.83

>  <chemical_class>  (293) 
2-arylbenzofuran flavonoids

>  <chemical_sub_class>  (293) 
2-arylbenzofuran flavonoids

>  <chemical_super_class>  (293) 
Phenylpropanoids and polyketides

>  <direct_parent_classification>  (293) 
2-arylbenzofuran flavonoids

>  <np_classifier_pathway>  (293) 
Shikimates and Phenylpropanoids

>  <np_classifier_superclass>  (293) 
Lignans

>  <np_classifier_class>  (293) 
Neolignans

>  <np_classifier_is_glycoside>  (293) 
False

>  <organisms>  (293) 
Aniba terminalis

>  <collections>  (293) 
Latin America dataset|NuBBEDB|WikiData Natural Products|ZINC NP

>  <dois>  (293) 
10.1016/0031-9422(75)85303-9

>  <synonyms>  (293) 
(2R3S)-7-allyl-6-hydroxy-5-methoxy-3-methyl-2-piperonyl-23-dihydrobenzofuran

>  <cas>  (293) 
nan

$$$$

     RDKit          2D

 37 43  0  0  0  0  0  0  0  0999 V2000
   -6.7298   -3.8044    0.0000 C   0  0  0  0  0  0  0  0  0  0  0  0
   -6.2222   -2.3929    0.0000 O   0  0  0  0  0  0  0  0  0  0  0  0
   -4.7460   -2.1267    0.0000 C   0  0  0  0  0  0  0  0  0  0  0  0
   -3.7774   -3.2720    0.0000 O   0  0  0  0  0  0  0  0  0  0  0  0
   -4.2385   -0.7152    0.0000 C   0  0  0  0  0  0  0  0  0  0  0  0
   -5.2071    0.4302    0.0000 O   0  0  0  0  0  0  0  0  0  0  0  0
   -2.7623   -0.4489    0.0000 C   0  0  0  0  0  0  0  0  0  0  0  0
   -1.6792   -1.4867    0.0000 C   0  0  0  0  0  0  0  0  0  0  0  0
   -2.7934   -2.4910    0.0000 C   0  0  0  0  0  0  0  0  0  0  0  0
   -0.2118   -1.7978    0.0000 C   0  0  0  0  0  0  0  0  0  0  0  0
    1.0021   -2.6789    0.0000 C   0  0  0  0  0  0  0  0  0  0  0  0
    2.3721   -2.0680    0.0000 C   0  0  0  0  0  0  0  0  0  0  0  0
    2.5282   -0.5762    0.0000 C   0  0  0  0  0  0  0  0  0  0  0  0
    3.7421   -1.4572    0.0000 C   0  0  0  0  0  0  0  0  0  0  0  0
    3.8982    0.0346    0.0000 C   0  0  0  0  0  0  0  0  0  0  0  0
    5.1121   -0.8464    0.0000 C   0  0  0  0  0  0  0  0  0  0  0  0
    6.5385   -0.3821    0.0000 C   0  0  0  0  0  0  0  0  0  0  0  0
    7.4208   -1.5952    0.0000 O   0  0  0  0  0  0  0  0  0  0  0  0
    6.5398   -2.8092    0.0000 C   0  0  0  0  0  0  0  0  0  0  0  0
    5.1129   -2.3464    0.0000 C   0  0  0  0  0  0  0  0  0  0  0  0
    4.0542    1.5265    0.0000 O   0  0  0  0  0  0  0  0  0  0  0  0
    2.8402    2.4075    0.0000 C   0  0  0  0  0  0  0  0  0  0  0  0
    2.9962    3.8994    0.0000 O   0  0  0  0  0  0  0  0  0  0  0  0
    1.4702    1.7967    0.0000 C   0  0  0  0  0  0  0  0  0  0  0  0
    1.3142    0.3049    0.0000 C   0  0  0  0  0  0  0  0  0  0  0  0
    0.6366    1.3279    0.0000 O   0  0  0  0  0  0  0  0  0  0  0  0
   -0.3108    2.1077    0.0000 C   0  0  0  0  0  0  0  0  0  0  0  0
   -1.0615    3.4063    0.0000 C   0  0  0  0  0  0  0  0  0  0  0  0
   -0.3122    4.7057    0.0000 O   0  0  0  0  0  0  0  0  0  0  0  0
   -2.5615    3.4055    0.0000 C   0  0  0  0  0  0  0  0  0  0  0  0
   -3.3122    4.7042    0.0000 C   0  0  0  0  0  0  0  0  0  0  0  0
   -3.3108    2.1061    0.0000 C   0  0  0  0  0  0  0  0  0  0  0  0
   -2.5601    0.8074    0.0000 C   0  0  0  0  0  0  0  0  0  0  0  0
   -3.1136    0.2337    0.0000 O   0  0  0  0  0  0  0  0  0  0  0  0
   -1.0601    0.8082    0.0000 C   0  0  0  0  0  0  0  0  0  0  0  0
   -0.0558   -0.3060    0.0000 C   0  0  0  0  0  0  0  0  0  0  0  0
   -1.5521   -0.4113    0.0000 O   0  0  0  0  0  0  0  0  0  0  0  0
  1  2  1  0
  2  3  1  0
  3  4  2  0
  3  5  1  0
  5  6  1  1
  7  5  1  1
  7  8  1  0
  8  9  1  1
  8 10  1  0
 10 11  1  6
 11 12  1  0
 12 13  1  0
 13 14  1  1
 13 15  1  0
 15 16  1  1
 16 17  2  0
 17 18  1  0
 18 19  1  0
 19 20  2  0
 15 21  1  0
 21 22  1  0
 22 23  2  0
 22 24  1  0
 25 24  1  1
 25 26  1  0
 26 27  1  0
 27 28  1  0
 28 29  2  0
 28 30  1  0
 30 31  1  6
 30 32  1  0
 32 33  1  0
 33 34  1  1
 33 35  1  0
 35 36  1  0
 36 37  1  1
 30  7  1  0
 33  8  1  0
 36 10  1  0
 25 13  1  0
 35 27  1  6
 20 16  1  0
 36 25  1  0
M  END
>  <identifier>  (294) 
CNP0194558.1

>  <canonical_smiles>  (294) 
COC(=O)[C@@H](O)[C@@H]1[C@@]2(C)[C@H]3CC[C@@]4(C)[C@H](C5=COC=C5)OC(=O)C[C@@]45OC4C(=O)[C@]1(C)C[C@]2(O)[C@H]4[C@@]35O

>  <standard_inchi>  (294) 
InChI=1S/C27H32O10/c1-22-11-25(32)18-16(19(22)30)37-26-9-14(28)36-20(12-6-8-35-10-12)23(26,2)7-5-13(27(18,26)33)24(25,3)17(22)15(29)21(31)34-4/h6,8,10,13,15-18,20,29,32-33H,5,7,9,11H2,1-4H3/t13-,15+,16?,17+,18+,20+,22-,23+,24-,25+,26-,27+/m1/s1

>  <standard_inchi_key>  (294) 
HOUJKWFMLMSPNW-OGOVIMGLSA-N

>  <name>  (294) 
nan

>  <iupac_name>  (294) 
methyl (2~{S})-2-[(1~{S},2~{S},3~{S},4~{R},7~{S},8~{S},12~{R},16~{R},17~{R},18~{S})-8-(3-furyl)-1,3-dihydroxy-7,16,18-trimethyl-10,15-dioxo-9,13-dioxahexacyclo[14.2.1.0^{2,14}.0^{3,12}.0^{4,18}.0^{7,12}]nonadecan-17-yl]-2-hydroxy-acetate

>  <annotation_level>  (294) 
4

>  <total_atom_count>  (294) 
69

>  <heavy_atom_count>  (294) 
37

>  <molecular_weight>  (294) 
516.54

>  <exact_molecular_weight>  (294) 
516.19955

>  <molecular_formula>  (294) 
C27H32O10

>  <alogp>  (294) 
1.06

>  <topological_polar_surface_area>  (294) 
152.73

>  <rotatable_bond_count>  (294) 
3

>  <hydrogen_bond_acceptors>  (294) 
10

>  <hydrogen_bond_donors>  (294) 
3

>  <hydrogen_bond_acceptors_lipinski>  (294) 
10

>  <hydrogen_bond_donors_lipinski>  (294) 
3

>  <lipinski_rule_of_five_violations>  (294) 
1

>  <aromatic_rings_count>  (294) 
1

>  <qed_drug_likeliness>  (294) 
0.50

>  <formal_charge>  (294) 
0

>  <fractioncsp3>  (294) 
0.74

>  <number_of_minimal_rings>  (294) 
7

>  <van_der_walls_volume>  (294) 
nan

>  <contains_sugar>  (294) 
False

>  <contains_ring_sugars>  (294) 
False

>  <contains_linear_sugars>  (294) 
False

>  <murcko_framework>  (294) 
o1ccc(c1)C2OCCC34OC5CC6CC7C(CCC23)C4C5C7C6

>  <np_likeness>  (294) 
2.88

>  <chemical_class>  (294) 
Lactones

>  <chemical_sub_class>  (294) 
Delta valerolactones

>  <chemical_super_class>  (294) 
Organoheterocyclic compounds

>  <direct_parent_classification>  (294) 
Delta valerolactones

>  <np_classifier_pathway>  (294) 
Terpenoids

>  <np_classifier_superclass>  (294) 
Triterpenoids

>  <np_classifier_class>  (294) 
Limonoids

>  <np_classifier_is_glycoside>  (294) 
False

>  <organisms>  (294) 
Khaya senegalensis

>  <collections>  (294) 
Latin America dataset|NuBBEDB|WikiData Natural Products

>  <dois>  (294) 
10.1016/0031-9422(95)00093-3

>  <synonyms>  (294) 
methyl 1\u221a\u00e9\u00ac\u00b168\u221a\u00e9\u00ac\u00b114\u221a\u00e9\u00ac\u226430\u221a\u00e9\u00ac\u2264-pentahydroxy-3-oxo-[3.3.1(102).1(14)]-tricyclomeliac-7-oate

>  <cas>  (294) 
nan

$$$$

     RDKit          2D

 15 17  0  0  0  0  0  0  0  0999 V2000
    3.2978   -0.6931    0.0000 C   0  0  0  0  0  0  0  0  0  0  0  0
    2.1514    0.2743    0.0000 C   0  0  0  0  0  0  0  0  0  0  0  0
    2.4160    1.7507    0.0000 C   0  0  0  0  0  0  0  0  0  0  0  0
    1.2696    2.7181    0.0000 C   0  0  0  0  0  0  0  0  0  0  0  0
   -0.1413    2.2091    0.0000 C   0  0  0  0  0  0  0  0  0  0  0  0
   -0.4059    0.7326    0.0000 C   0  0  0  0  0  0  0  0  0  0  0  0
    0.7404   -0.2348    0.0000 C   0  0  0  0  0  0  0  0  0  0  0  0
    0.6988   -1.7342    0.0000 C   0  0  0  0  0  0  0  0  0  0  0  0
    2.0317   -2.4223    0.0000 C   0  0  0  0  0  0  0  0  0  0  0  0
   -0.4994   -2.6366    0.0000 C   0  0  0  0  0  0  0  0  0  0  0  0
   -1.9520   -2.2624    0.0000 C   0  0  0  0  0  0  0  0  0  0  0  0
   -2.5651   -0.8934    0.0000 C   0  0  0  0  0  0  0  0  0  0  0  0
   -1.8770    0.4395    0.0000 C   0  0  0  0  0  0  0  0  0  0  0  0
   -3.3296    0.8137    0.0000 C   0  0  0  0  0  0  0  0  0  0  0  0
   -1.8354    1.9389    0.0000 C   0  0  0  0  0  0  0  0  0  0  0  0
  1  2  2  0
  2  3  1  0
  3  4  1  0
  4  5  1  0
  5  6  1  0
  6  7  1  0
  7  8  1  0
  8  9  1  1
  8 10  1  0
 10 11  1  0
 11 12  1  0
 12 13  1  0
 13 14  1  0
 13 15  1  0
  7  2  1  0
  8  5  1  0
  6 13  1  1
M  END
>  <identifier>  (295) 
CNP0135475.3

>  <canonical_smiles>  (295) 
C=C1CCC2[C@H]3C1[C@]2(C)CCCC3(C)C

>  <standard_inchi>  (295) 
InChI=1S/C15H24/c1-10-6-7-11-13-12(10)15(11,4)9-5-8-14(13,2)3/h11-13H,1,5-9H2,2-4H3/t11?,12?,13-,15+/m0/s1

>  <standard_inchi_key>  (295) 
DQOVXHMHLOWECL-NSOJWWLLSA-N

>  <name>  (295) 
nan

>  <iupac_name>  (295) 
(2~{R},7~{S})-2,6,6-trimethyl-9-methylene-tricyclo[5.4.0.0^{2,8}]undecane

>  <annotation_level>  (295) 
4

>  <total_atom_count>  (295) 
39

>  <heavy_atom_count>  (295) 
15

>  <molecular_weight>  (295) 
204.36

>  <exact_molecular_weight>  (295) 
204.1878

>  <molecular_formula>  (295) 
C15H24

>  <alogp>  (295) 
4.42

>  <topological_polar_surface_area>  (295) 
0.00

>  <rotatable_bond_count>  (295) 
0

>  <hydrogen_bond_acceptors>  (295) 
0

>  <hydrogen_bond_donors>  (295) 
0

>  <hydrogen_bond_acceptors_lipinski>  (295) 
0

>  <hydrogen_bond_donors_lipinski>  (295) 
0

>  <lipinski_rule_of_five_violations>  (295) 
0

>  <aromatic_rings_count>  (295) 
0

>  <qed_drug_likeliness>  (295) 
0.51

>  <formal_charge>  (295) 
0

>  <fractioncsp3>  (295) 
0.87

>  <number_of_minimal_rings>  (295) 
4

>  <van_der_walls_volume>  (295) 
nan

>  <contains_sugar>  (295) 
False

>  <contains_ring_sugars>  (295) 
False

>  <contains_linear_sugars>  (295) 
False

>  <murcko_framework>  (295) 
C1CCC2C3CCCC2C3C1

>  <np_likeness>  (295) 
3.11

>  <chemical_class>  (295) 
Prenol lipids

>  <chemical_sub_class>  (295) 
Monoterpenoids

>  <chemical_super_class>  (295) 
Lipids and lipid-like molecules

>  <direct_parent_classification>  (295) 
Bicyclic monoterpenoids

>  <np_classifier_pathway>  (295) 
Terpenoids

>  <np_classifier_superclass>  (295) 
Sesquiterpenoids

>  <np_classifier_class>  (295) 
Longipinane sesquiterpenoids

>  <np_classifier_is_glycoside>  (295) 
False

>  <organisms>  (295) 
Cedrela fissilis

>  <collections>  (295) 
Latin America dataset|NuBBEDB|WikiData Natural Products

>  <dois>  (295) 
10.1590/S0103-50532000000600012

>  <synonyms>  (295) 
\u221a\u00e9\u00ac\u2264-Longipinene

>  <cas>  (295) 
nan

$$$$

     RDKit          2D

 26 29  0  0  0  0  0  0  0  0999 V2000
   -3.6842    3.5771    0.0000 C   0  0  0  0  0  0  0  0  0  0  0  0
   -4.2816    2.2012    0.0000 C   0  0  0  0  0  0  0  0  0  0  0  0
   -3.3886    0.9959    0.0000 C   0  0  0  0  0  0  0  0  0  0  0  0
   -4.7307    0.3258    0.0000 C   0  0  0  0  0  0  0  0  0  0  0  0
   -2.3567    2.0845    0.0000 C   0  0  0  0  0  0  0  0  0  0  0  0
   -0.8980    1.7352    0.0000 C   0  0  0  0  0  0  0  0  0  0  0  0
    0.1339    2.8238    0.0000 C   0  0  0  0  0  0  0  0  0  0  0  0
    1.5927    2.4745    0.0000 C   0  0  0  0  0  0  0  0  0  0  0  0
    2.0195    1.0365    0.0000 C   0  0  0  0  0  0  0  0  0  0  0  0
    2.4464   -0.4015    0.0000 O   0  0  0  0  0  0  0  0  0  0  0  0
    0.9876   -0.0522    0.0000 C   0  0  0  0  0  0  0  0  0  0  0  0
    1.4144   -1.4901    0.0000 C   0  0  0  0  0  0  0  0  0  0  0  0
    2.8732   -1.8395    0.0000 C   0  0  0  0  0  0  0  0  0  0  0  0
    3.9051   -0.7508    0.0000 C   0  0  0  0  0  0  0  0  0  0  0  0
    5.3639   -1.1002    0.0000 O   0  0  0  0  0  0  0  0  0  0  0  0
    3.4783    0.6871    0.0000 C   0  0  0  0  0  0  0  0  0  0  0  0
    3.5690    2.1844    0.0000 C   0  0  0  0  0  0  0  0  0  0  0  0
    4.9685    0.8578    0.0000 C   0  0  0  0  0  0  0  0  0  0  0  0
   -0.4711    0.2972    0.0000 C   0  0  0  0  0  0  0  0  0  0  0  0
   -0.0443   -1.1408    0.0000 C   0  0  0  0  0  0  0  0  0  0  0  0
   -1.5031   -0.7914    0.0000 C   0  0  0  0  0  0  0  0  0  0  0  0
   -1.0762   -2.2294    0.0000 O   0  0  0  0  0  0  0  0  0  0  0  0
   -2.1081   -3.3181    0.0000 C   0  0  0  0  0  0  0  0  0  0  0  0
   -1.6813   -4.7561    0.0000 C   0  0  0  0  0  0  0  0  0  0  0  0
   -3.5669   -2.9687    0.0000 O   0  0  0  0  0  0  0  0  0  0  0  0
   -2.9618   -0.4421    0.0000 C   0  0  0  0  0  0  0  0  0  0  0  0
  1  2  2  0
  2  3  1  0
  3  4  1  1
  3  5  1  0
  5  6  1  0
  6  7  1  0
  7  8  1  0
  9  8  1  1
  9 10  1  0
 11 10  1  6
 11 12  1  0
 12 13  2  0
 13 14  1  0
 14 15  2  0
 14 16  1  0
 16 17  1  0
 16 18  1  0
 11 19  1  0
 19 20  1  1
 19 21  1  0
 21 22  1  1
 22 23  1  0
 23 24  1  0
 23 25  2  0
 21 26  1  0
 26  3  1  0
 19  6  1  0
 11  9  1  0
 16  9  1  0
M  END
>  <identifier>  (296) 
CNP0298881.1

>  <canonical_smiles>  (296) 
C=C[C@]1(C)CC2CC[C@@]34O[C@]3(C=CC(=O)C4(C)C)[C@]2(C)[C@@H](OC(C)=O)C1

>  <standard_inchi>  (296) 
InChI=1S/C22H30O4/c1-7-19(5)12-15-8-10-21-18(3,4)16(24)9-11-22(21,26-21)20(15,6)17(13-19)25-14(2)23/h7,9,11,15,17H,1,8,10,12-13H2,2-6H3/t15?,17-,19+,20-,21-,22+/m0/s1

>  <standard_inchi_key>  (296) 
DMXMOCZWZYYLSM-CPEUNVSASA-N

>  <name>  (296) 
[(1~{R},2~{S},3~{S},5~{R},10~{S})-2,5,11,11-tetramethyl-12-oxo-5-vinyl-15-oxatetracyclo[8.4.1.0^{1,10}.0^{2,7}]pentadec-13-en-3-yl] acetate

>  <iupac_name>  (296) 
[(1~{R},2~{S},3~{S},5~{R},10~{S})-2,5,11,11-tetramethyl-12-oxo-5-vinyl-15-oxatetracyclo[8.4.1.0^{1,10}.0^{2,7}]pentadec-13-en-3-yl] acetate

>  <annotation_level>  (296) 
3

>  <total_atom_count>  (296) 
56

>  <heavy_atom_count>  (296) 
26

>  <molecular_weight>  (296) 
358.48

>  <exact_molecular_weight>  (296) 
358.21441

>  <molecular_formula>  (296) 
C22H30O4

>  <alogp>  (296) 
3.99

>  <topological_polar_surface_area>  (296) 
55.90

>  <rotatable_bond_count>  (296) 
2

>  <hydrogen_bond_acceptors>  (296) 
4

>  <hydrogen_bond_donors>  (296) 
0

>  <hydrogen_bond_acceptors_lipinski>  (296) 
4

>  <hydrogen_bond_donors_lipinski>  (296) 
0

>  <lipinski_rule_of_five_violations>  (296) 
0

>  <aromatic_rings_count>  (296) 
0

>  <qed_drug_likeliness>  (296) 
0.43

>  <formal_charge>  (296) 
0

>  <fractioncsp3>  (296) 
0.73

>  <number_of_minimal_rings>  (296) 
4

>  <van_der_walls_volume>  (296) 
nan

>  <contains_sugar>  (296) 
False

>  <contains_ring_sugars>  (296) 
False

>  <contains_linear_sugars>  (296) 
False

>  <murcko_framework>  (296) 
O1C23CCC=CC13C4CCCCC4CC2

>  <np_likeness>  (296) 
2.81

>  <chemical_class>  (296) 
Prenol lipids

>  <chemical_sub_class>  (296) 
Sesquiterpenoids

>  <chemical_super_class>  (296) 
Lipids and lipid-like molecules

>  <direct_parent_classification>  (296) 
Sesquiterpenoids

>  <np_classifier_pathway>  (296) 
Terpenoids

>  <np_classifier_superclass>  (296) 
Diterpenoids

>  <np_classifier_class>  (296) 
Norpimarane and Norisopimarane diterpenoids

>  <np_classifier_is_glycoside>  (296) 
False

>  <organisms>  (296) 
Vellozia candida

>  <collections>  (296) 
Latin America dataset|NuBBEDB|WikiData Natural Products

>  <dois>  (296) 
10.1016/S0040-4039(00)94036-X

>  <synonyms>  (296) 
nan

>  <cas>  (296) 
nan

$$$$

     RDKit          2D

 27 28  0  0  0  0  0  0  0  0999 V2000
   -2.9902    4.1862    0.0000 C   0  0  0  0  0  0  0  0  0  0  0  0
   -4.0241    3.0994    0.0000 O   0  0  0  0  0  0  0  0  0  0  0  0
   -3.5998    1.6607    0.0000 C   0  0  0  0  0  0  0  0  0  0  0  0
   -2.1416    1.3088    0.0000 C   0  0  0  0  0  0  0  0  0  0  0  0
   -1.7173   -0.1300    0.0000 C   0  0  0  0  0  0  0  0  0  0  0  0
   -2.7511   -1.2168    0.0000 C   0  0  0  0  0  0  0  0  0  0  0  0
   -2.3268   -2.6555    0.0000 C   0  0  0  0  0  0  0  0  0  0  0  0
   -0.8687   -3.0074    0.0000 C   0  0  0  0  0  0  0  0  0  0  0  0
   -0.4444   -4.4462    0.0000 C   0  0  0  0  0  0  0  0  0  0  0  0
    0.1651   -1.9206    0.0000 C   0  0  0  0  0  0  0  0  0  0  0  0
   -0.2592   -0.4819    0.0000 C   0  0  0  0  0  0  0  0  0  0  0  0
    1.6233   -2.2725    0.0000 C   0  0  0  0  0  0  0  0  0  0  0  0
    2.0476   -3.7113    0.0000 O   0  0  0  0  0  0  0  0  0  0  0  0
    2.6571   -1.1857    0.0000 C   0  0  0  0  0  0  0  0  0  0  0  0
    4.1152   -1.5376    0.0000 C   0  0  0  0  0  0  0  0  0  0  0  0
    5.1491   -0.4508    0.0000 C   0  0  0  0  0  0  0  0  0  0  0  0
    4.7248    0.9880    0.0000 C   0  0  0  0  0  0  0  0  0  0  0  0
    5.7586    2.0748    0.0000 O   0  0  0  0  0  0  0  0  0  0  0  0
    7.2167    1.7229    0.0000 C   0  0  0  0  0  0  0  0  0  0  0  0
    3.2666    1.3399    0.0000 C   0  0  0  0  0  0  0  0  0  0  0  0
    2.8423    2.7786    0.0000 O   0  0  0  0  0  0  0  0  0  0  0  0
    1.3842    3.1305    0.0000 C   0  0  0  0  0  0  0  0  0  0  0  0
    2.2328    0.2530    0.0000 C   0  0  0  0  0  0  0  0  0  0  0  0
   -4.2093   -0.8649    0.0000 C   0  0  0  0  0  0  0  0  0  0  0  0
   -4.6336    0.5738    0.0000 C   0  0  0  0  0  0  0  0  0  0  0  0
   -6.0917    0.9257    0.0000 O   0  0  0  0  0  0  0  0  0  0  0  0
   -7.1255   -0.1611    0.0000 C   0  0  0  0  0  0  0  0  0  0  0  0
  1  2  1  0
  2  3  1  0
  3  4  2  0
  4  5  1  0
  5  6  2  0
  6  7  1  0
  7  8  1  0
  8  9  1  1
  8 10  1  0
 10 11  1  6
 10 12  1  0
 12 13  2  0
 12 14  1  0
 14 15  2  0
 15 16  1  0
 16 17  2  0
 17 18  1  0
 18 19  1  0
 17 20  1  0
 20 21  1  0
 21 22  1  0
 20 23  2  0
  6 24  1  0
 24 25  2  0
 25 26  1  0
 26 27  1  0
 25  3  1  0
 23 14  1  0
M  END
>  <identifier>  (297) 
CNP0108379.1

>  <canonical_smiles>  (297) 
COC1=CC=C(C[C@H](C)[C@H](C)C(=O)C2=CC=C(OC)C(OC)=C2)C=C1OC

>  <standard_inchi>  (297) 
InChI=1S/C22H28O5/c1-14(11-16-7-9-18(24-3)20(12-16)26-5)15(2)22(23)17-8-10-19(25-4)21(13-17)27-6/h7-10,12-15H,11H2,1-6H3/t14-,15-/m0/s1

>  <standard_inchi_key>  (297) 
SRJOMSFZTGEQFM-GJZGRUSLSA-N

>  <name>  (297) 
nan

>  <iupac_name>  (297) 
(2~{S},3~{S})-1,4-bis(3,4-dimethoxyphenyl)-2,3-dimethyl-butan-1-one

>  <annotation_level>  (297) 
4

>  <total_atom_count>  (297) 
55

>  <heavy_atom_count>  (297) 
27

>  <molecular_weight>  (297) 
372.46

>  <exact_molecular_weight>  (297) 
372.19367

>  <molecular_formula>  (297) 
C22H28O5

>  <alogp>  (297) 
4.42

>  <topological_polar_surface_area>  (297) 
53.99

>  <rotatable_bond_count>  (297) 
9

>  <hydrogen_bond_acceptors>  (297) 
5

>  <hydrogen_bond_donors>  (297) 
0

>  <hydrogen_bond_acceptors_lipinski>  (297) 
5

>  <hydrogen_bond_donors_lipinski>  (297) 
0

>  <lipinski_rule_of_five_violations>  (297) 
0

>  <aromatic_rings_count>  (297) 
2

>  <qed_drug_likeliness>  (297) 
0.61

>  <formal_charge>  (297) 
0

>  <fractioncsp3>  (297) 
0.41

>  <number_of_minimal_rings>  (297) 
2

>  <van_der_walls_volume>  (297) 
nan

>  <contains_sugar>  (297) 
False

>  <contains_ring_sugars>  (297) 
False

>  <contains_linear_sugars>  (297) 
False

>  <murcko_framework>  (297) 
c1ccc(cc1)CCCCc2ccccc2

>  <np_likeness>  (297) 
0.33

>  <chemical_class>  (297) 
Dibenzylbutane lignans

>  <chemical_sub_class>  (297) 
Dibenzylbutane lignans

>  <chemical_super_class>  (297) 
Lignans, neolignans and related compounds

>  <direct_parent_classification>  (297) 
Dibenzylbutane lignans

>  <np_classifier_pathway>  (297) 
Shikimates and Phenylpropanoids

>  <np_classifier_superclass>  (297) 
Lignans

>  <np_classifier_class>  (297) 
Dibenzylbutane lignans

>  <np_classifier_is_glycoside>  (297) 
False

>  <organisms>  (297) 
Nectandra puberula

>  <collections>  (297) 
Latin America dataset|NuBBEDB|WikiData Natural Products|ZINC NP

>  <dois>  (297) 
10.1016/S0031-9422(00)81526-5

>  <synonyms>  (297) 
(8S8'R)-343'4'-tetramethoxy-7-oxo-88'-neolignan

>  <cas>  (297) 
nan

$$$$

     RDKit          2D

 21 22  0  0  0  0  0  0  0  0999 V2000
   -6.1460    0.4872    0.0000 C   0  0  0  0  0  0  0  0  0  0  0  0
   -4.6880    0.8396    0.0000 O   0  0  0  0  0  0  0  0  0  0  0  0
   -3.6537   -0.2468    0.0000 C   0  0  0  0  0  0  0  0  0  0  0  0
   -4.0775   -1.6857    0.0000 O   0  0  0  0  0  0  0  0  0  0  0  0
   -2.1957    0.1056    0.0000 C   0  0  0  0  0  0  0  0  0  0  0  0
   -1.7720    1.5445    0.0000 C   0  0  0  0  0  0  0  0  0  0  0  0
   -0.3139    1.8970    0.0000 C   0  0  0  0  0  0  0  0  0  0  0  0
    0.7203    0.8105    0.0000 C   0  0  0  0  0  0  0  0  0  0  0  0
    2.1783    1.1630    0.0000 O   0  0  0  0  0  0  0  0  0  0  0  0
    2.6021    2.6019    0.0000 C   0  0  0  0  0  0  0  0  0  0  0  0
    3.4924    3.8090    0.0000 C   0  0  0  0  0  0  0  0  0  0  0  0
    3.9455    1.9347    0.0000 C   0  0  0  0  0  0  0  0  0  0  0  0
    1.5678    3.6883    0.0000 C   0  0  0  0  0  0  0  0  0  0  0  0
    0.1098    3.3359    0.0000 C   0  0  0  0  0  0  0  0  0  0  0  0
    0.2965   -0.6284    0.0000 C   0  0  0  0  0  0  0  0  0  0  0  0
    1.3307   -1.7148    0.0000 C   0  0  0  0  0  0  0  0  0  0  0  0
    0.9070   -3.1537    0.0000 C   0  0  0  0  0  0  0  0  0  0  0  0
    1.9412   -4.2402    0.0000 C   0  0  0  0  0  0  0  0  0  0  0  0
    1.5174   -5.6791    0.0000 C   0  0  0  0  0  0  0  0  0  0  0  0
    3.3992   -3.8877    0.0000 C   0  0  0  0  0  0  0  0  0  0  0  0
   -1.1615   -0.9808    0.0000 C   0  0  0  0  0  0  0  0  0  0  0  0
  1  2  1  0
  2  3  1  0
  3  4  2  0
  3  5  1  0
  5  6  2  0
  6  7  1  0
  7  8  2  0
  8  9  1  0
  9 10  1  0
 10 11  1  0
 10 12  1  0
 10 13  1  0
 13 14  2  0
  8 15  1  0
 15 16  1  0
 16 17  1  0
 17 18  2  0
 18 19  1  0
 18 20  1  0
 15 21  2  0
 21  5  1  0
 14  7  1  0
M  END
>  <identifier>  (298) 
CNP0185435.0

>  <canonical_smiles>  (298) 
COC(=O)C1=CC2=C(OC(C)(C)C=C2)C(CC=C(C)C)=C1

>  <standard_inchi>  (298) 
InChI=1S/C18H22O3/c1-12(2)6-7-13-10-15(17(19)20-5)11-14-8-9-18(3,4)21-16(13)14/h6,8-11H,7H2,1-5H3

>  <standard_inchi_key>  (298) 
RRVJCPRGSRFXLA-UHFFFAOYSA-N

>  <name>  (298) 
methyl 2,2-dimethyl-8-(3-methylbut-2-enyl)chromene-6-carboxylate

>  <iupac_name>  (298) 
methyl 2,2-dimethyl-8-(3-methylbut-2-enyl)chromene-6-carboxylate

>  <annotation_level>  (298) 
5

>  <total_atom_count>  (298) 
43

>  <heavy_atom_count>  (298) 
21

>  <molecular_weight>  (298) 
286.37

>  <exact_molecular_weight>  (298) 
286.15689

>  <molecular_formula>  (298) 
C18H22O3

>  <alogp>  (298) 
4.17

>  <topological_polar_surface_area>  (298) 
35.53

>  <rotatable_bond_count>  (298) 
3

>  <hydrogen_bond_acceptors>  (298) 
3

>  <hydrogen_bond_donors>  (298) 
0

>  <hydrogen_bond_acceptors_lipinski>  (298) 
3

>  <hydrogen_bond_donors_lipinski>  (298) 
0

>  <lipinski_rule_of_five_violations>  (298) 
0

>  <aromatic_rings_count>  (298) 
1

>  <qed_drug_likeliness>  (298) 
0.62

>  <formal_charge>  (298) 
0

>  <fractioncsp3>  (298) 
0.39

>  <number_of_minimal_rings>  (298) 
2

>  <van_der_walls_volume>  (298) 
280.42

>  <contains_sugar>  (298) 
False

>  <contains_ring_sugars>  (298) 
False

>  <contains_linear_sugars>  (298) 
False

>  <murcko_framework>  (298) 
O1c2ccccc2C=CC1

>  <np_likeness>  (298) 
2.29

>  <chemical_class>  (298) 
Benzopyrans

>  <chemical_sub_class>  (298) 
1-benzopyrans

>  <chemical_super_class>  (298) 
Organoheterocyclic compounds

>  <direct_parent_classification>  (298) 
2,2-dimethyl-1-benzopyrans

>  <np_classifier_pathway>  (298) 
Terpenoids

>  <np_classifier_superclass>  (298) 
Meroterpenoids

>  <np_classifier_class>  (298) 
Miscellaneous meroterpenoids

>  <np_classifier_is_glycoside>  (298) 
False

>  <organisms>  (298) 
Piper aduncum|piper sp.

>  <collections>  (298) 
ChemSpider NPs|KNApSaCK|Latin America dataset|NPASS|NuBBEDB|Super Natural II|UNPD (Universal Natural Products Database)|WikiData Natural Products|ZINC NP

>  <dois>  (298) 
10.1016/S0031-9422(97)00828-5|10.1016/S0031-9422(99)00132-6|10.1021/NP030530J|10.1021/np030530j|10.1080/14786410802243271|10.1248/BPB.31.538|10.1248/bpb.31.538

>  <synonyms>  (298) 
CHEMBL483216|Methyl 2,2-dimethyl-8-(3'-methyl-2'-butenyl)-2H-1-chromene-6-carboxylate

>  <cas>  (298) 
nan

$$$$

     RDKit          2D

 35 38  0  0  0  0  0  0  0  0999 V2000
    6.0029   -1.9625    0.0000 C   0  0  0  0  0  0  0  0  0  0  0  0
    4.9360   -3.0168    0.0000 C   0  0  0  0  0  0  0  0  0  0  0  0
    3.8690   -4.0712    0.0000 C   0  0  0  0  0  0  0  0  0  0  0  0
    5.9903   -4.0838    0.0000 O   0  0  0  0  0  0  0  0  0  0  0  0
    3.8816   -1.9499    0.0000 C   0  0  0  0  0  0  0  0  0  0  0  0
    2.4305   -2.3295    0.0000 O   0  0  0  0  0  0  0  0  0  0  0  0
    4.2785   -0.5033    0.0000 C   0  0  0  0  0  0  0  0  0  0  0  0
    3.2241    0.5636    0.0000 C   0  0  0  0  0  0  0  0  0  0  0  0
    1.7729    0.1840    0.0000 O   0  0  0  0  0  0  0  0  0  0  0  0
    3.6209    2.0102    0.0000 C   0  0  0  0  0  0  0  0  0  0  0  0
    5.0675    1.6133    0.0000 C   0  0  0  0  0  0  0  0  0  0  0  0
    4.0177    3.4567    0.0000 O   0  0  0  0  0  0  0  0  0  0  0  0
    2.1744    2.4070    0.0000 C   0  0  0  0  0  0  0  0  0  0  0  0
    1.6451    3.8105    0.0000 C   0  0  0  0  0  0  0  0  0  0  0  0
    0.1468    3.7409    0.0000 C   0  0  0  0  0  0  0  0  0  0  0  0
   -0.2501    2.2944    0.0000 C   0  0  0  0  0  0  0  0  0  0  0  0
   -1.4102    3.2452    0.0000 O   0  0  0  0  0  0  0  0  0  0  0  0
   -1.5906    1.6213    0.0000 C   0  0  0  0  0  0  0  0  0  0  0  0
   -2.8437    2.4457    0.0000 C   0  0  0  0  0  0  0  0  0  0  0  0
   -4.1843    1.7727    0.0000 C   0  0  0  0  0  0  0  0  0  0  0  0
   -5.4374    2.5971    0.0000 O   0  0  0  0  0  0  0  0  0  0  0  0
   -4.2716    0.2752    0.0000 C   0  0  0  0  0  0  0  0  0  0  0  0
   -5.6122   -0.3978    0.0000 C   0  0  0  0  0  0  0  0  0  0  0  0
   -5.6996   -1.8953    0.0000 C   0  0  0  0  0  0  0  0  0  0  0  0
   -7.0401   -2.5683    0.0000 O   0  0  0  0  0  0  0  0  0  0  0  0
   -4.4464   -2.7197    0.0000 C   0  0  0  0  0  0  0  0  0  0  0  0
   -4.5338   -4.2171    0.0000 O   0  0  0  0  0  0  0  0  0  0  0  0
   -3.1059   -2.0466    0.0000 C   0  0  0  0  0  0  0  0  0  0  0  0
   -3.0185   -0.5492    0.0000 C   0  0  0  0  0  0  0  0  0  0  0  0
   -1.7654   -1.3736    0.0000 C   0  0  0  0  0  0  0  0  0  0  0  0
   -1.6780    0.1239    0.0000 C   0  0  0  0  0  0  0  0  0  0  0  0
   -0.4249   -0.7006    0.0000 C   0  0  0  0  0  0  0  0  0  0  0  0
    0.9157   -0.0275    0.0000 C   0  0  0  0  0  0  0  0  0  0  0  0
    1.0031    1.4699    0.0000 C   0  0  0  0  0  0  0  0  0  0  0  0
    2.3355    0.7810    0.0000 C   0  0  0  0  0  0  0  0  0  0  0  0
  1  2  1  0
  2  3  1  0
  2  4  1  0
  2  5  1  0
  5  6  1  1
  5  7  1  0
  7  8  1  0
  8  9  1  1
  8 10  1  0
 10 11  1  6
 10 12  1  0
 10 13  1  0
 13 14  1  6
 14 15  1  0
 15 16  1  0
 16 17  1  1
 16 18  1  0
 18 19  2  0
 19 20  1  0
 20 21  2  0
 20 22  1  0
 22 23  1  1
 23 24  1  0
 24 25  1  6
 24 26  1  0
 26 27  1  6
 26 28  1  0
 28 29  1  0
 29 30  1  6
 29 31  1  0
 31 32  1  6
 32 33  1  0
 33 34  1  0
 34 35  1  6
 34 13  1  0
 34 16  1  0
 31 18  1  0
 29 22  1  0
M  END
>  <identifier>  (299) 
CNP0265220.2

>  <canonical_smiles>  (299) 
CC(C)(O)[C@@H](O)C[C@@H](O)[C@](C)(O)[C@H]1CC[C@@]2(O)C3=CC(=O)[C@@H]4C[C@@H](O)[C@@H](O)C[C@]4(C)[C@H]3CC[C@]12C

>  <standard_inchi>  (299) 
InChI=1S/C27H44O8/c1-23(2,33)21(31)12-22(32)26(5,34)20-7-9-27(35)15-10-17(28)16-11-18(29)19(30)13-24(16,3)14(15)6-8-25(20,27)4/h10,14,16,18-22,29-35H,6-9,11-13H2,1-5H3/t14-,16-,18+,19-,20-,21-,22+,24+,25+,26+,27+/m0/s1

>  <standard_inchi_key>  (299) 
NXKBQUXBPMOHPK-MLXSIWSOSA-N

>  <name>  (299) 
nan

>  <iupac_name>  (299) 
(2~{S},3~{R},5~{R},9~{R},10~{R},13~{R},14~{S},17~{S})-2,3,14-trihydroxy-10,13-dimethyl-17-[(1~{R},2~{R},4~{S})-1,2,4,5-tetrahydroxy-1,5-dimethyl-hexyl]-2,3,4,5,9,11,12,15,16,17-decahydro-1~{H}-cyclopenta[a]phenanthren-6-one

>  <annotation_level>  (299) 
4

>  <total_atom_count>  (299) 
79

>  <heavy_atom_count>  (299) 
35

>  <molecular_weight>  (299) 
496.64

>  <exact_molecular_weight>  (299) 
496.30362

>  <molecular_formula>  (299) 
C27H44O8

>  <alogp>  (299) 
0.82

>  <topological_polar_surface_area>  (299) 
158.68

>  <rotatable_bond_count>  (299) 
5

>  <hydrogen_bond_acceptors>  (299) 
8

>  <hydrogen_bond_donors>  (299) 
7

>  <hydrogen_bond_acceptors_lipinski>  (299) 
8

>  <hydrogen_bond_donors_lipinski>  (299) 
7

>  <lipinski_rule_of_five_violations>  (299) 
1

>  <aromatic_rings_count>  (299) 
0

>  <qed_drug_likeliness>  (299) 
0.29

>  <formal_charge>  (299) 
0

>  <fractioncsp3>  (299) 
0.89

>  <number_of_minimal_rings>  (299) 
4

>  <van_der_walls_volume>  (299) 
nan

>  <contains_sugar>  (299) 
False

>  <contains_ring_sugars>  (299) 
False

>  <contains_linear_sugars>  (299) 
False

>  <murcko_framework>  (299) 
C1=C2C3CCCC3CCC2C4CCCCC4C1

>  <np_likeness>  (299) 
3.49

>  <chemical_class>  (299) 
Steroids and steroid derivatives

>  <chemical_sub_class>  (299) 
Ecdysteroids

>  <chemical_super_class>  (299) 
Lipids and lipid-like molecules

>  <direct_parent_classification>  (299) 
Ecdysteroids

>  <np_classifier_pathway>  (299) 
Terpenoids

>  <np_classifier_superclass>  (299) 
Steroids

>  <np_classifier_class>  (299) 
Ecdysteroids

>  <np_classifier_is_glycoside>  (299) 
False

>  <organisms>  (299) 
Abuta velutina|Polypodium virginianum|Polypodium vulgare|Vitex canescens|Vitex strickeri

>  <collections>  (299) 
Latin America dataset|NuBBEDB|Super Natural II|WikiData Natural Products

>  <dois>  (299) 
10.1016/0031-9422(91)83046-N|10.1016/0031-9422(96)00336-6|10.1016/S0031-9422(00)80173-9|10.1016/S0031-9422(97)00102-7|10.1016/S0031-9422(97)80008-8|10.1016/S0040-4020(01)85247-9|10.1080/10826079208016352

>  <synonyms>  (299) 
abutasterone

>  <cas>  (299) 
nan

$$$$

     RDKit          2D

 27 29  0  0  0  0  0  0  0  0999 V2000
   -0.2838   -3.4952    0.0000 C   0  0  0  0  0  0  0  0  0  0  0  0
    0.8006   -2.4588    0.0000 O   0  0  0  0  0  0  0  0  0  0  0  0
    0.4452   -1.0015    0.0000 C   0  0  0  0  0  0  0  0  0  0  0  0
   -0.3513   -0.9696    0.0000 O   0  0  0  0  0  0  0  0  0  0  0  0
    1.5295    0.0349    0.0000 C   0  0  0  0  0  0  0  0  0  0  0  0
    1.8849   -1.4224    0.0000 C   0  0  0  0  0  0  0  0  0  0  0  0
    3.3247   -1.8433    0.0000 C   0  0  0  0  0  0  0  0  0  0  0  0
    4.4090   -0.8069    0.0000 C   0  0  0  0  0  0  0  0  0  0  0  0
    4.0537    0.6504    0.0000 C   0  0  0  0  0  0  0  0  0  0  0  0
    4.2181    2.1414    0.0000 C   0  0  0  0  0  0  0  0  0  0  0  0
    5.5505    0.7474    0.0000 C   0  0  0  0  0  0  0  0  0  0  0  0
    2.6139    1.0713    0.0000 C   0  0  0  0  0  0  0  0  0  0  0  0
    2.2585    2.5286    0.0000 C   0  0  0  0  0  0  0  0  0  0  0  0
    0.8188    2.9495    0.0000 C   0  0  0  0  0  0  0  0  0  0  0  0
   -0.2656    1.9131    0.0000 C   0  0  0  0  0  0  0  0  0  0  0  0
   -1.7053    2.3340    0.0000 C   0  0  0  0  0  0  0  0  0  0  0  0
   -2.7897    1.2975    0.0000 C   0  0  0  0  0  0  0  0  0  0  0  0
   -4.2294    1.7184    0.0000 C   0  0  0  0  0  0  0  0  0  0  0  0
   -4.5848    3.1757    0.0000 C   0  0  0  0  0  0  0  0  0  0  0  0
   -5.3138    0.6820    0.0000 C   0  0  0  0  0  0  0  0  0  0  0  0
   -2.4343   -0.1598    0.0000 C   0  0  0  0  0  0  0  0  0  0  0  0
   -3.5187   -1.1962    0.0000 O   0  0  0  0  0  0  0  0  0  0  0  0
   -3.1633   -2.6535    0.0000 C   0  0  0  0  0  0  0  0  0  0  0  0
   -0.9946   -0.5806    0.0000 C   0  0  0  0  0  0  0  0  0  0  0  0
   -0.6392   -2.0379    0.0000 O   0  0  0  0  0  0  0  0  0  0  0  0
   -1.7235   -3.0743    0.0000 C   0  0  0  0  0  0  0  0  0  0  0  0
    0.0898    0.4558    0.0000 C   0  0  0  0  0  0  0  0  0  0  0  0
  1  2  1  0
  2  3  1  0
  3  4  2  0
  5  3  1  1
  5  6  1  0
  6  7  1  0
  7  8  1  0
  8  9  1  0
  9 10  1  0
  9 11  1  0
  9 12  1  0
 12 13  1  0
 13 14  2  0
 14 15  1  0
 15 16  2  0
 16 17  1  0
 17 18  1  0
 18 19  1  0
 18 20  1  0
 17 21  2  0
 21 22  1  0
 22 23  1  0
 21 24  1  0
 24 25  1  0
 25 26  1  0
 24 27  2  0
 12  5  1  0
 27 15  1  0
 27  5  1  0
M  END
>  <identifier>  (300) 
CNP0310026.2

>  <canonical_smiles>  (300) 
COC(=O)[C@]12CCCC(C)(C)C1C=CC1=CC(C(C)C)=C(OC)C(OC)=C12

>  <standard_inchi>  (300) 
InChI=1S/C23H32O4/c1-14(2)16-13-15-9-10-17-22(3,4)11-8-12-23(17,21(24)27-7)18(15)20(26-6)19(16)25-5/h9-10,13-14,17H,8,11-12H2,1-7H3/t17?,23-/m1/s1

>  <standard_inchi_key>  (300) 
YSNDSABGXVFRFW-IRCUZVAFSA-N

>  <name>  (300) 
nan

>  <iupac_name>  (300) 
methyl (4~{a}~{R})-7-isopropyl-5,6-dimethoxy-1,1-dimethyl-2,3,4,10~{a}-tetrahydrophenanthrene-4~{a}-carboxylate

>  <annotation_level>  (300) 
4

>  <total_atom_count>  (300) 
59

>  <heavy_atom_count>  (300) 
27

>  <molecular_weight>  (300) 
372.51

>  <exact_molecular_weight>  (300) 
372.23006

>  <molecular_formula>  (300) 
C23H32O4

>  <alogp>  (300) 
5.09

>  <topological_polar_surface_area>  (300) 
44.76

>  <rotatable_bond_count>  (300) 
4

>  <hydrogen_bond_acceptors>  (300) 
4

>  <hydrogen_bond_donors>  (300) 
0

>  <hydrogen_bond_acceptors_lipinski>  (300) 
4

>  <hydrogen_bond_donors_lipinski>  (300) 
0

>  <lipinski_rule_of_five_violations>  (300) 
1

>  <aromatic_rings_count>  (300) 
1

>  <qed_drug_likeliness>  (300) 
0.69

>  <formal_charge>  (300) 
0

>  <fractioncsp3>  (300) 
0.61

>  <number_of_minimal_rings>  (300) 
3

>  <van_der_walls_volume>  (300) 
nan

>  <contains_sugar>  (300) 
False

>  <contains_ring_sugars>  (300) 
False

>  <contains_linear_sugars>  (300) 
False

>  <murcko_framework>  (300) 
c1ccc2c(c1)C=CC3CCCCC23

>  <np_likeness>  (300) 
1.78

>  <chemical_class>  (300) 
Prenol lipids

>  <chemical_sub_class>  (300) 
Diterpenoids

>  <chemical_super_class>  (300) 
Lipids and lipid-like molecules

>  <direct_parent_classification>  (300) 
Diterpenoids

>  <np_classifier_pathway>  (300) 
Terpenoids

>  <np_classifier_superclass>  (300) 
Diterpenoids

>  <np_classifier_class>  (300) 
Abietane diterpenoids

>  <np_classifier_is_glycoside>  (300) 
False

>  <organisms>  (300) 
Rosmarinus officinalis

>  <collections>  (300) 
Latin America dataset|NuBBEDB|WikiData Natural Products

>  <dois>  (300) 
10.1016/S0040-4020(01)88671-3

>  <synonyms>  (300) 
Methyl 1112-di-O-methyl-67-didehydrocarnosate

>  <cas>  (300) 
nan

$$$$

     RDKit          2D

 31 32  0  0  0  0  0  0  0  0999 V2000
  -12.2844   -0.1534    0.0000 C   0  0  0  0  0  0  0  0  0  0  0  0
  -10.8981    0.4195    0.0000 C   0  0  0  0  0  0  0  0  0  0  0  0
  -10.7011    1.9066    0.0000 C   0  0  0  0  0  0  0  0  0  0  0  0
   -9.7088   -0.4945    0.0000 C   0  0  0  0  0  0  0  0  0  0  0  0
   -8.3225    0.0784    0.0000 C   0  0  0  0  0  0  0  0  0  0  0  0
   -7.1332   -0.8357    0.0000 C   0  0  0  0  0  0  0  0  0  0  0  0
   -5.7469   -0.2627    0.0000 C   0  0  0  0  0  0  0  0  0  0  0  0
   -4.5576   -1.1768    0.0000 C   0  0  0  0  0  0  0  0  0  0  0  0
   -3.1713   -0.6039    0.0000 C   0  0  0  0  0  0  0  0  0  0  0  0
   -1.9820   -1.5179    0.0000 C   0  0  0  0  0  0  0  0  0  0  0  0
   -0.5958   -0.9450    0.0000 C   0  0  0  0  0  0  0  0  0  0  0  0
   -0.3988    0.5420    0.0000 C   0  0  0  0  0  0  0  0  0  0  0  0
    0.5936   -1.8591    0.0000 C   0  0  0  0  0  0  0  0  0  0  0  0
    1.9798   -1.2861    0.0000 C   0  0  0  0  0  0  0  0  0  0  0  0
    3.1691   -2.2002    0.0000 C   0  0  0  0  0  0  0  0  0  0  0  0
    4.5554   -1.6273    0.0000 C   0  0  0  0  0  0  0  0  0  0  0  0
    4.8789   -3.0920    0.0000 C   0  0  0  0  0  0  0  0  0  0  0  0
    3.7504   -0.3615    0.0000 C   0  0  0  0  0  0  0  0  0  0  0  0
    4.4441    0.9684    0.0000 C   0  0  0  0  0  0  0  0  0  0  0  0
    5.9427    1.0327    0.0000 C   0  0  0  0  0  0  0  0  0  0  0  0
    6.6364    2.3627    0.0000 C   0  0  0  0  0  0  0  0  0  0  0  0
    8.1350    2.4269    0.0000 C   0  0  0  0  0  0  0  0  0  0  0  0
    8.8287    3.7569    0.0000 O   0  0  0  0  0  0  0  0  0  0  0  0
    8.9400    1.1612    0.0000 C   0  0  0  0  0  0  0  0  0  0  0  0
    8.2463   -0.1688    0.0000 C   0  0  0  0  0  0  0  0  0  0  0  0
    9.0513   -1.4345    0.0000 C   0  0  0  0  0  0  0  0  0  0  0  0
    6.7477   -0.2330    0.0000 C   0  0  0  0  0  0  0  0  0  0  0  0
    6.0540   -1.5630    0.0000 O   0  0  0  0  0  0  0  0  0  0  0  0
   -5.5500    1.2243    0.0000 C   0  0  0  0  0  0  0  0  0  0  0  0
   -4.1637    1.7972    0.0000 O   0  0  0  0  0  0  0  0  0  0  0  0
   -6.7393    2.1384    0.0000 O   0  0  0  0  0  0  0  0  0  0  0  0
  1  2  1  0
  2  3  1  0
  2  4  2  0
  4  5  1  0
  5  6  1  0
  6  7  1  0
  7  8  2  0
  8  9  1  0
  9 10  1  0
 10 11  1  0
 11 12  1  0
 11 13  2  0
 13 14  1  0
 14 15  1  0
 15 16  1  0
 16 17  1  0
 16 18  1  0
 18 19  2  0
 19 20  1  0
 20 21  2  0
 21 22  1  0
 22 23  1  0
 22 24  2  0
 24 25  1  0
 25 26  1  0
 25 27  2  0
 27 28  1  0
  7 29  1  0
 29 30  2  0
 29 31  1  0
 28 16  1  0
 27 20  1  0
M  END
>  <identifier>  (301) 
CNP0177974.6

>  <canonical_smiles>  (301) 
CC(C)=CCC/C(=C/CC/C(C)=C/CCC1(C)C=CC2=CC(O)=CC(C)=C2O1)C(=O)O

>  <standard_inchi>  (301) 
InChI=1S/C27H36O4/c1-19(2)9-6-12-22(26(29)30)13-7-10-20(3)11-8-15-27(5)16-14-23-18-24(28)17-21(4)25(23)31-27/h9,11,13-14,16-18,28H,6-8,10,12,15H2,1-5H3,(H,29,30)/b20-11+,22-13-

>  <standard_inchi_key>  (301) 
QKXAGRZCXAYBQX-WDZAAMDOSA-N

>  <name>  (301) 
nan

>  <iupac_name>  (301) 
nan

>  <annotation_level>  (301) 
0

>  <total_atom_count>  (301) 
67

>  <heavy_atom_count>  (301) 
31

>  <molecular_weight>  (301) 
424.58

>  <exact_molecular_weight>  (301) 
424.26136

>  <molecular_formula>  (301) 
C27H36O4

>  <alogp>  (301) 
7.13

>  <topological_polar_surface_area>  (301) 
66.76

>  <rotatable_bond_count>  (301) 
10

>  <hydrogen_bond_acceptors>  (301) 
3

>  <hydrogen_bond_donors>  (301) 
2

>  <hydrogen_bond_acceptors_lipinski>  (301) 
3

>  <hydrogen_bond_donors_lipinski>  (301) 
2

>  <lipinski_rule_of_five_violations>  (301) 
1

>  <aromatic_rings_count>  (301) 
1

>  <qed_drug_likeliness>  (301) 
0.31

>  <formal_charge>  (301) 
0

>  <fractioncsp3>  (301) 
0.44

>  <number_of_minimal_rings>  (301) 
2

>  <van_der_walls_volume>  (301) 
426.04

>  <contains_sugar>  (301) 
False

>  <contains_ring_sugars>  (301) 
False

>  <contains_linear_sugars>  (301) 
False

>  <murcko_framework>  (301) 
O1c2ccccc2C=CC1

>  <np_likeness>  (301) 
2.83

>  <chemical_class>  (301) 
nan

>  <chemical_sub_class>  (301) 
nan

>  <chemical_super_class>  (301) 
nan

>  <direct_parent_classification>  (301) 
nan

>  <np_classifier_pathway>  (301) 
Terpenoids

>  <np_classifier_superclass>  (301) 
Meroterpenoids

>  <np_classifier_class>  (301) 
Merosesquiterpenoids

>  <np_classifier_is_glycoside>  (301) 
False

>  <organisms>  (301) 
Iryanthera juruensis|Pycnanthus angolensis|Sargassum fallax

>  <collections>  (301) 
Latin America dataset|NuBBEDB|Seaweed Metabolite Database (SWMD)|WikiData Natural Products

>  <dois>  (301) 
10.1016/S0031-9422(00)00477-5|10.1016/j.phytochem.2008.12.007|10.1021/JF063451X|10.1021/JO000568Q

>  <synonyms>  (301) 
nan

>  <cas>  (301) 
nan

$$$$

     RDKit          2D

 12 11  0  0  0  0  0  0  0  0999 V2000
   -6.9435   -0.1938    0.0000 C   0  0  0  0  0  0  0  0  0  0  0  0
   -5.6127    0.4981    0.0000 C   0  0  0  0  0  0  0  0  0  0  0  0
   -4.3480   -0.3085    0.0000 C   0  0  0  0  0  0  0  0  0  0  0  0
   -3.0171    0.3835    0.0000 C   0  0  0  0  0  0  0  0  0  0  0  0
   -1.7524   -0.4231    0.0000 C   0  0  0  0  0  0  0  0  0  0  0  0
   -0.4216    0.2689    0.0000 C   0  0  0  0  0  0  0  0  0  0  0  0
    0.8431   -0.5377    0.0000 C   0  0  0  0  0  0  0  0  0  0  0  0
    2.1740    0.1542    0.0000 C   0  0  0  0  0  0  0  0  0  0  0  0
    3.4387   -0.6523    0.0000 C   0  0  0  0  0  0  0  0  0  0  0  0
    4.7695    0.0396    0.0000 C   0  0  0  0  0  0  0  0  0  0  0  0
    4.8357    1.5381    0.0000 O   0  0  0  0  0  0  0  0  0  0  0  0
    6.0342   -0.7670    0.0000 O   0  0  0  0  0  0  0  0  0  0  0  0
  1  2  1  0
  2  3  1  0
  3  4  1  0
  4  5  1  0
  5  6  1  0
  6  7  1  0
  7  8  1  0
  8  9  1  0
  9 10  1  0
 10 11  2  0
 10 12  1  0
M  END
>  <identifier>  (302) 
CNP0213238.0

>  <canonical_smiles>  (302) 
CCCCCCCCCC(=O)O

>  <standard_inchi>  (302) 
InChI=1S/C10H20O2/c1-2-3-4-5-6-7-8-9-10(11)12/h2-9H2,1H3,(H,11,12)

>  <standard_inchi_key>  (302) 
GHVNFZFCNZKVNT-UHFFFAOYSA-N

>  <name>  (302) 
Decanoic acid

>  <iupac_name>  (302) 
decanoic acid

>  <annotation_level>  (302) 
5

>  <total_atom_count>  (302) 
32

>  <heavy_atom_count>  (302) 
12

>  <molecular_weight>  (302) 
172.27

>  <exact_molecular_weight>  (302) 
172.14633

>  <molecular_formula>  (302) 
C10H20O2

>  <alogp>  (302) 
3.21

>  <topological_polar_surface_area>  (302) 
37.30

>  <rotatable_bond_count>  (302) 
8

>  <hydrogen_bond_acceptors>  (302) 
1

>  <hydrogen_bond_donors>  (302) 
1

>  <hydrogen_bond_acceptors_lipinski>  (302) 
1

>  <hydrogen_bond_donors_lipinski>  (302) 
1

>  <lipinski_rule_of_five_violations>  (302) 
0

>  <aromatic_rings_count>  (302) 
0

>  <qed_drug_likeliness>  (302) 
0.57

>  <formal_charge>  (302) 
0

>  <fractioncsp3>  (302) 
0.90

>  <number_of_minimal_rings>  (302) 
0

>  <van_der_walls_volume>  (302) 
190.44

>  <contains_sugar>  (302) 
False

>  <contains_ring_sugars>  (302) 
False

>  <contains_linear_sugars>  (302) 
False

>  <murcko_framework>  (302) 
nan

>  <np_likeness>  (302) 
0.58

>  <chemical_class>  (302) 
Fatty Acyls

>  <chemical_sub_class>  (302) 
Fatty acids and conjugates

>  <chemical_super_class>  (302) 
Lipids and lipid-like molecules

>  <direct_parent_classification>  (302) 
Medium-chain fatty acids

>  <np_classifier_pathway>  (302) 
Fatty acids

>  <np_classifier_superclass>  (302) 
Fatty Acids and Conjugates

>  <np_classifier_class>  (302) 
Branched fatty acids

>  <np_classifier_is_glycoside>  (302) 
False

>  <organisms>  (302) 
Aconitum macrorhynchum|Actinidia chinensis|Agaricus bisporus|Agave decipiens|Aiouea montana|Akebia quinata|Akebia trifoliata|Allium sativum|Aloe vera|Alpinia latilabris|Anacardium occidentale|Angelica acutiloba|Angelica gigas|Angelica sinensis|Annona cherimola|Anthemis aciphylla|Anthemis aciphylla BOISS.var.discoidea BOISS|Anthemis tinctoria|Apium graveolens|Aquilaria agallochum|Aquilaria sinensis|Arabidopsis thaliana|Arachis hypogaea|Arnebia euchroma|Arnebia guttata|Arnica montana|Artemisia capillaries|Artemisia capillaris|Artemisia dracunculus|Artemisia xerophytica|Artocarpus heterophyllus|Aster tataricus|Attalea colenda|Attalea speciosa|Betula ovalifolia|Bos taurus|Brassica hirta|Brassica oleracea|Brassica rapa|Caenorhabditis elegans|Camptotheca acuminata|Canarium album|Capsicum annuum|Carica papaya|Carthamus tinctorius|Carum carvi|Caulis perillae|Caulis perillae frutescentis|Chamerion dodonaei|Chamomilla recutita|Chlamydomonas reinhardtii|Chrozophora obliqua|Chrozophora plicata|Chrozophora tinctoria|Chrozophora verbascifolia|Chrysanthemum indicum|Chrysanthemum x morifolium|Cinnamomum aromaticum|Cistus creticus|Citropsis articulata|Citrullus lanatus|Citrus aurantium|Citrus limon|Citrus natsudaidai|Citrus reticulata|Citrus sinensis|Citrus trifoliata|Citrus unshiu|Clematis chinensis|Clinopodium gilliesii|Clinopodium odorum|Cocos Nucifera|Cocos nucifera|Coptis omeiensis|Coriandrum sativum|Crocus sativus|Croton jimenezii|Cucumis melo|Cucurbita maxima|Cucurbita pepo|Cuminum cyminum|Cuphea koehneana|Cuphea spp.|Curcuma longa|Cyathula capitata|Cyperaceae|Cyperus conglomeratus|Cyperus erectus|Daphne odora|Daucus carota|Delphinapterus leucas|Delphinium staphisagria|Dictamnus albus|Dipteryx lacunifera|Drymaria cordata|Duhaldea cappa|Elaeagnus angustifolia|Electrophorus electricus|Elettaria cardamomum|Ephedra sinica|Epilobium dodonaei|Erucaria microcarpa|Eryngium foetidum|Escherichia coli|Etlingera elatior|Eucalyptus globulus|Fagopyrum esculentum|Feijoa sellowiana|Festuca arundinacea|Festuca rubra|Ficus carica|Flos mume|Fragaria|Fragaria x ananassa|Freesia hybrida|Fructus terminaliae|Fructus terminaliae preparata|Geum heterocarpum|Gleditsia triacanthos|Glehnia littoralis|Gossypium hirsutum|Hansenia forbesii|Hansenia weberbaueriana|Helianthus annuus|Helichrysum stoechas|Hippophae rhamnoides|Homo sapiens|Houttuynia Cordata|Houttuynia cordata|Houttuynia emeiensis|Hypericum ericoides|Hypericum maculatum|Hypericum olympicum|Hypericum perfoliatum|Hypericum perforatum|Hypericum tomentosum|Imperata cylindrica|Inula germanica|Iris|Isatis tinctoria|Kobus ellipsiprymnus|Laurencia irieii|Laurus nobilis|Leea guineense|Leea guineensis|Lens culinaris|Lentinus edodes|Lepidium meyenii|Ligusticum chuanxiong|Lindera neesiana|Linum usitatissimum|Lithospermum erythrorhizon|Litsea glutinosa|Litsea involucrata|Lonicera japonica|Lumbricus terrestris|Magnolia obovata|Malus pumila|Malva pucheina|Mandragora autumnalis|Mandragora officinarum|Mangifera indica|Matricaria chamomilla|Melaleuca quinquenervia|Mentha longifolia|Mentha spicata|Momordica charantia|Musa X paradisiaca|Musa acuminata|Narthecium ossifragum|Nectandra polita|Neolitsea cassia|Neolitsea foliosa|Neolitsea umbrosa|Neolitsea zeylanica|Nicotiana tabacum|Nuphar lutea|Oecophylla smaragdina|Oncorhynchus gorbuscha|Orbignya martiana|Origanum vulgare|Ostericum grosseserratum|Paederia scandens|Paeonia lactiflora|Panax ginseng|Panicum miliaceum|Pelargonium graveolens|Persicaria hydropiperoides|Persicaria minor|Phaseolus vulgaris|Philadelphia fleabane|Phoenix dactylifera|Pinus radiata|Piper nigrum|Plumeria rubra|Porphyra tenera|Portulaca oleracea|Pouteria sapota|Prunus avium|Prunus domestica|Prunus mume|Psidium friedrichsthalianum|Psidium guajava|Pycnandra acuminata|Radix smilacis|Red-lined Carrion Beetle|Rehmannia glutinosa|Rhodiola rosea|Rhodiola rosea L.|Rhododendron mucronulatum|Rhododendron sichotense|Rosmarinus officinalis|Ruellia tuberosa|Saccharomyces cerevisiae|Salvadora oleoides|Salvadora persica|Salvia fruticosa|Salvia officinalis|Salvia triloba|Saussurea involucrata|Saxifraga Stolonifera|Saxifraga stolonifera|Saxifraga stolonifera Meerb.|Scutellaria baicalensis|Sebertia acuminata|Senecio adenotrichius|Senna alexandrina|Serenoa repens|Sideritis curvidens|Sideritis hispida|Sideritis syriaca|Sideritis taurica|Siparuna thecaphora|Solanum pennellii|Solanum tuberosum|Sophora flavescens|Sorghum bicolor|Staphisagria macrosperma|Streptomyces filamentosus|Streptomyces roseosporus|Streptomyces sp. NP10|Streptomyces sp. mNP10|Struthiopteris spicant|Sus scrofa|Sus scrofa domesticus|Syagrus romanzoffiana|Syzygium aromaticum|Tephritidae|Terminalia chebula|Tetrapanax papyrifer|Theobroma cacao|Thymus vulgaris|Tilia platyphyllos|Tordylium apulum|Trichosanthes kirilowii|Trichosanthes rosthornii|Trifolium pratense|Trigonella foenum-graecum|Tripleurospermum inodorum|Triticum aestivum|Vigna unguiculata|Virola surinamensis|Vitellaria paradoxa|Vitis vinifera|Xerula longipes|Xerula pudens|Zea mays|Zingiber officinale|Ziziphora pedicellata|Ziziphus jujuba var. spinosa|bellis perennis|common dandelion|liquorice|pomegranate|snap bean

>  <collections>  (302) 
ANPDB|Australian natural products|CMAUP (cCollective molecular activities of useful plants)|ChEBI NPs|ChemSpider NPs|DrugBankNP|EMNPD|ETM (Ethiopian Traditional Medicine) DB|Exposome-explorer|FooDB|KNApSaCK|Latin America dataset|NANPDB (Natural Products from Northern African Sources)|NAPRORE-CR|NPASS|NPEdia|NuBBEDB|PeruNPDB|Phyto4Health|PubChem NPs|StreptomeDB|Super Natural II|TCMDB-Taiwan (Traditional Chinese Medicine database)|TCMID (Traditional Chinese Medicine Integrated Database)|TIPdb (database of Taiwan indigenous plants)|UNPD (Universal Natural Products Database)|VietHerb|Watermelon|WikiData Natural Products

>  <dois>  (302) 
10.1002/(SICI)1099-1573(199906)13:4<329::AID-PTR458>3.0.CO;2-U|10.1002/1099-1026(200005/06)15:3<182::AID-FFJ888>3.0.CO;2-X|10.1002/CHIN.200052207|10.1002/CHIN.201034210|10.1002/FFJ.1248|10.1002/FFJ.1582|10.1002/FFJ.2730060314|10.1002/FFJ.2730070108|10.1002/LIPI.19780800603|10.1002/LIPI.19800820608|10.1002/LIPI.19850870809|10.1007/BF00563628|10.1007/BF00568367|10.1007/BF00579976|10.1007/BF00629959|10.1007/BF00630623|10.1007/BF00711898|10.1007/BF02249628|10.1007/BF02249629|10.1007/BF02249647|10.1007/BF03183920|10.1007/S10600-010-9595-4|10.1007/S11306-016-1051-4|10.1016/0021-9673(95)00734-2|10.1016/0031-9422(82)83099-9|10.1016/0031-9422(83)85064-X|10.1016/0031-9422(86)88045-1|10.1016/0031-9422(90)83036-Z|10.1016/0031-9422(91)84185-U|10.1016/0031-9422(95)00183-8|10.1016/0305-1978(94)90067-1|10.1016/J.ARABJC.2013.10.019|10.1016/J.CHROMA.2004.03.057|10.1016/J.FOODCHEM.2013.11.092|10.1016/J.FOODCHEM.2014.10.145|10.1016/J.FOODCHEM.2015.03.005|10.1016/J.FOODRES.2020.109416|10.1016/J.PHYTOCHEM.2007.07.001|10.1016/J.PHYTOCHEM.2009.06.013|10.1016/J.TALANTA.2012.06.052|10.1016/S0031-9422(00)86884-3|10.1016/S0031-9422(02)00004-3|10.1016/S0031-9422(97)00265-3|10.1016/S0090-4295(99)00549-X|10.1016/S0305-1978(00)00114-9|10.1016/S0305-1978(02)00076-5|10.1016/S0367-326X(01)00327-6|10.1016/S0367-326X(99)00057-X|10.1016/S0378-8741(02)00172-1|10.1016/S0896-8446(01)00110-3|10.1016/S0926-6690(00)00088-1|10.1016/S0944-7113(11)80030-9|10.1016/j.arabjc.2013.10.019|10.1016/j.jep.2014.08.010|10.1021/BK-2002-0803.CH009|10.1021/JF00026A027|10.1021/JF00029A021|10.1021/JF00120A031|10.1021/JF0402633|10.1021/JF60197A010|10.1021/JF60199A018|10.1021/JF60200A011|10.1021/JF60209A051|10.1021/JF60231A019|10.1021/JO00277A028|10.1021/JO00300A020|10.1021/jf00120a031|10.1021/jf011456i|10.1023/A:1015205716921|10.1023/B:CONC.0000018118.52743.A8|10.1038/NBT.2488|10.1039/JR9380001610|10.1039/JR9390001015|10.1046/J.1365-2958.2003.03341.X|10.1055/S-0028-1099547|10.1055/S-2006-957641|10.1055/S-2006-957896|10.1055/S-2006-958019|10.1055/S-2006-960356|10.1055/S-2006-962459|10.1055/S-2007-969591|10.1076/1388-0209(200004)3821-1FT106|10.1080/00021369.1990.10870456|10.1080/10412905.1992.9698080|10.1080/10412905.1992.9698097|10.1080/10412905.1993.9698167|10.1080/10412905.1993.9698191|10.1080/10412905.1993.9698253|10.1080/10412905.1993.9698276|10.1080/10412905.1994.9698398|10.1080/10412905.1994.9698418|10.1080/10412905.1994.9698447|10.1080/10412905.1994.9699345|10.1080/10412905.1996.9700555|10.1080/10412905.1998.9700991|10.1080/10412905.1999.9701158|10.1080/10412905.2000.9712198|10.1080/10412905.2002.9699883|10.1080/10412905.2010.9700338|10.1080/14620316.2003.11511610|10.1099/mic.0.29022-0|10.1111/TPJ.12747|10.1248/CPB.54.222|10.1248/CPB.54.725|10.1248/CPB.54.936|10.1271/BBB1961.45.507|10.1271/BBB1961.47.483|10.1271/BBB1961.48.2843|10.1271/BBB1961.51.1449|10.1271/BBB1961.52.2379|10.1271/BBB1961.54.3335|10.1271/NOGEIKAGAKU1924.61.1119|10.1300/J044V05N02_05|10.1515/hf.2002.024|10.21608/BFSA.1985.75707|10.21608/ZJPS.1994.186612|10.21608/ZJPS.1997.169710|10.3109/13880208309070615|10.3109/13880208509070678|10.3136/FSTR.7.200|10.3389/FMICB.2018.01302|10.3389/FMOLB.2018.00096|10.3389/fmicb.2018.01302|10.3390/MOLECULES15107006|10.3390/MOLECULES18021368|10.3390/MOLECULES22101606|10.3390/molecules27020483|10.5650/JOS1956.25.561|10.7164/ANTIBIOTICS.36.661|10.7235/HORT.2013.12200

>  <synonyms>  (302) 
(1(1)(3)C)Decanoic acid|1-(S)- cis 9-Aminooctahydro-10-oxo-6H-pyridazino[1,2-a][1,2]diazepine-1-carboxylic acid, t-butyl ester|1-NONANE CARBOXYLIC ACID|1-Nonanecarboxylic acid|1-decanoic acid|1-nonanecarboxylate|334-48-5|4-02-00-01041 (Beilstein Handbook Reference)|4G9EDB6V73|98230577-0D20-4F70-B532-00AC60132CFE|A875289|AI3-04453|AKOS000119623|AS-14704|Acid C10|BP-27911|BRN 1754556|C-1095|C01571|C10:0|CAPRIC ACID|CAPRIC ACID (CONSTITUENT OF SAW PALMETTO)|CAPRIC ACID [INCI]|CAS-334-48-5|CCRIS 4610|CH3-(CH2)8-COOH|CH3-[CH2]8-COOH|CHEBI:30813|CHEMBL107498|CS-W016025|Capric acid (10:0)|Caprinic acid|D0017|D70225|DB03600|DECANOIC ACID [FCC]|DECANOIC ACID [FHFI]|DECANOIC ACID [HSDB]|DECANsaure (ALTSTOFF)|DKA|DTXCID201554|DTXSID9021554|Decanoic acid (Capric acid)|Decanoic acid (natural)|Decanoic acid anion|Decanoic acid, 96%|Decanoic acid, >=98%, FCC, FG|Decanoic acid, >=98.0%|Decanoic acid, >=98.0% (GC)|Decanoic acid, analytical standard|Decanoic acid, lead (2+) salt|Decanoic acid, natural, >=98%, FCC, FG|Decansaeure (Altstoff)|Decoic acid|Decylic acid|Dekansaeure|Docansaure|EINECS 206-376-4|EN300-19724|EPA Pesticide Chemical Code 128955|Econosan Acid Sanitizer|Emery 659|FA 10:0|FA(10:0)|FEMA No. 2364|GTPL5532|HMS2267B15|HSDB 2751|HY-W015309|Hexacid 1095|IS_D19-DECANOIC ACID|InChI=1\/C10H20O2\/c1-2-3-4-5-6-7-8-9-10(11)12\/h2-9H2,1H3,(H,11,12|Kaprinsaeure|LMFA01010010|Lead caprate|Lunac 10-95|MFCD00004441|MLS002415724|N-CAPRIC ACID [MI]|N-CAPRIC ACID [WHO-DD]|NAA 102|NCGC00091320-02|NCGC00254437-01|NCGC00259758-01|NS00005224|NSC 5025|NSC-5025|Nonane-1-carboxylic acid|PALMAC-99-10|PRIFAC-2906|Prifac 296|Q422613|SCHEMBL2682|SMR001252255|STL445666|SY061635|Tox21_113533|Tox21_202209|Tox21_300366|UNII-4G9EDB6V73|USEPA\/OPP Pesticide Code: 128955|Versatic 10|W-202368|WLN: QV9|Z104474944|bmse000370|capric acid|caprinsaure|caprynate|decansaure|decoate|decylate|fatty acid 10:0|n-Capric acid|n-Decanoic acid|n-caprate|n-decoate|n-decylate|s6906

>  <cas>  (302) 
334-48-5

$$$$

     RDKit          2D

 16 17  0  0  0  0  0  0  0  0999 V2000
    1.5424   -3.0325    0.0000 C   0  0  0  0  0  0  0  0  0  0  0  0
    1.9298   -1.5834    0.0000 C   0  0  0  0  0  0  0  0  0  0  0  0
    0.8686   -0.5234    0.0000 C   0  0  0  0  0  0  0  0  0  0  0  0
   -0.5801   -0.9124    0.0000 C   0  0  0  0  0  0  0  0  0  0  0  0
   -1.6413    0.1477    0.0000 C   0  0  0  0  0  0  0  0  0  0  0  0
   -3.0900   -0.2413    0.0000 C   0  0  0  0  0  0  0  0  0  0  0  0
   -2.7010   -1.6900    0.0000 C   0  0  0  0  0  0  0  0  0  0  0  0
   -3.4790    1.2074    0.0000 C   0  0  0  0  0  0  0  0  0  0  0  0
   -4.5387   -0.6303    0.0000 O   0  0  0  0  0  0  0  0  0  0  0  0
   -1.2539    1.5968    0.0000 C   0  0  0  0  0  0  0  0  0  0  0  0
    0.1948    1.9858    0.0000 C   0  0  0  0  0  0  0  0  0  0  0  0
    1.2560    0.9257    0.0000 C   0  0  0  0  0  0  0  0  0  0  0  0
    1.6434    2.3748    0.0000 C   0  0  0  0  0  0  0  0  0  0  0  0
    2.7047    1.3148    0.0000 C   0  0  0  0  0  0  0  0  0  0  0  0
    3.7659    0.2547    0.0000 C   0  0  0  0  0  0  0  0  0  0  0  0
    3.3785   -1.1944    0.0000 C   0  0  0  0  0  0  0  0  0  0  0  0
  1  2  1  0
  2  3  2  0
  3  4  1  0
  4  5  1  0
  5  6  1  6
  6  7  1  0
  6  8  1  0
  6  9  1  0
  5 10  1  0
 10 11  1  0
 11 12  1  0
 12 13  1  6
 12 14  1  0
 14 15  1  0
 15 16  1  0
 16  2  1  0
 12  3  1  0
M  END
>  <identifier>  (303) 
CNP0267962.1

>  <canonical_smiles>  (303) 
CC1=C2C[C@H](C(C)(C)O)CC[C@@]2(C)CCC1

>  <standard_inchi>  (303) 
InChI=1S/C15H26O/c1-11-6-5-8-15(4)9-7-12(10-13(11)15)14(2,3)16/h12,16H,5-10H2,1-4H3/t12-,15-/m1/s1

>  <standard_inchi_key>  (303) 
WMOPMQRJLLIEJV-IUODEOHRSA-N

>  <name>  (303) 
gamma-Eudesmol

>  <iupac_name>  (303) 
2-[(2~{R},4~{a}~{R})-4~{a},8-dimethyl-2,3,4,5,6,7-hexahydro-1~{H}-naphthalen-2-yl]propan-2-ol

>  <annotation_level>  (303) 
5

>  <total_atom_count>  (303) 
42

>  <heavy_atom_count>  (303) 
16

>  <molecular_weight>  (303) 
222.37

>  <exact_molecular_weight>  (303) 
222.19837

>  <molecular_formula>  (303) 
C15H26O

>  <alogp>  (303) 
4.06

>  <topological_polar_surface_area>  (303) 
20.23

>  <rotatable_bond_count>  (303) 
1

>  <hydrogen_bond_acceptors>  (303) 
1

>  <hydrogen_bond_donors>  (303) 
1

>  <hydrogen_bond_acceptors_lipinski>  (303) 
1

>  <hydrogen_bond_donors_lipinski>  (303) 
1

>  <lipinski_rule_of_five_violations>  (303) 
0

>  <aromatic_rings_count>  (303) 
0

>  <qed_drug_likeliness>  (303) 
0.66

>  <formal_charge>  (303) 
0

>  <fractioncsp3>  (303) 
0.87

>  <number_of_minimal_rings>  (303) 
2

>  <van_der_walls_volume>  (303) 
237.62

>  <contains_sugar>  (303) 
False

>  <contains_ring_sugars>  (303) 
False

>  <contains_linear_sugars>  (303) 
False

>  <murcko_framework>  (303) 
C1=C2CCCCC2CCC1

>  <np_likeness>  (303) 
2.53

>  <chemical_class>  (303) 
Prenol lipids

>  <chemical_sub_class>  (303) 
Sesquiterpenoids

>  <chemical_super_class>  (303) 
Lipids and lipid-like molecules

>  <direct_parent_classification>  (303) 
Eudesmane, isoeudesmane or cycloeudesmane sesquiterpenoids

>  <np_classifier_pathway>  (303) 
Terpenoids

>  <np_classifier_superclass>  (303) 
Sesquiterpenoids

>  <np_classifier_class>  (303) 
Eudesmane sesquiterpenoids

>  <np_classifier_is_glycoside>  (303) 
False

>  <organisms>  (303) 
Acca sellowiana|Agrimonia pilosa|Aiouea costaricensis|Alpinia breviligulata|Alpinia flabellata|Alpinia zerumbet|Alternaria bataticola|Amyris balsamifera|Angelica acutiloba|Angelica gigas|Angelica japonica|Angelica sinensis|Aquilaria agallochum|Aquilaria sinensis|Artemisia Annua|Artemisia annua|Artemisia annua L.cultivar Jwarharti|Atractylodes chinensis|Atractylodes lancea|Baccharis truncata|Benincasa hispida|Bipolaris sacchari|Bothriochloa bladhii|Breonia chinensis|Callitris columellaris|Callitris intratropica|Callyspongia spinosissima|Campylotropis hirtella|Cananga Odorata|Cananga odorata|Cannabis sativa|Carthamus arborescens|Centaurea benedicta|Ceropegia dichotoma|Chamaecyparis formosensis|Chloranthus fortunei|Chrysanthemum indicum|Chrysanthemum x morifolium|Chuquiraga erinacea|Cinnamomum camphora|Cistus creticus|Citrus reticulata|Citrus × deliciosa|Cordia trichotoma|Cortex magnoliae officinalis|Corymbia citriodora|Corymbia maculata|Crinum moorei|Crotalaria candicans|Cryptomeria japonica|Cuphea hyssopifolia|Curcuma amada|Curcuma kwangsiensis|Curcuma phaeocaulis|Curcuma wenyujin|Curcuma zedoaria|Cymbopogon schoenanthus|Cyperus rotundus|Dendrobium loddigesii|Distephanus angulifolius|Dolomiaea souliei|Echinoclathria subhispida|Elsholtzia ciliata|Eria japonica|Eria rigida|Etlingera elatior|Eucalyptus angulosa|Eucalyptus apodophylla|Eucalyptus behriana|Eucalyptus brassiana|Eucalyptus burgessiana|Eucalyptus campanulata|Eucalyptus ceratocorys|Eucalyptus citriodora|Eucalyptus cuprea|Eucalyptus delegatensis|Eucalyptus deuaensis|Eucalyptus dolichorhyncha|Eucalyptus fasciculosa|Eucalyptus forrestiana|Eucalyptus fraxinoides|Eucalyptus globulus|Eucalyptus globulus subsp. bicostata|Eucalyptus incrassata|Eucalyptus intertexta|Eucalyptus lansdowneana|Eucalyptus leucoxylon|Eucalyptus maculata|Eucalyptus maidenii|Eucalyptus melanophloia|Eucalyptus nova-anglica|Eucalyptus ochrophloia|Eucalyptus odorata|Eucalyptus populnea|Eucalyptus porosa|Eucalyptus pulverulenta|Eucalyptus sparsa|Eucalyptus stenostoma|Eucalyptus stoatei|Eucalyptus tetraptera|Eucalyptus triflora|Eucalyptus viridis|Euphorbia palustris|Euphorbia pithyusa|Farfugium japonicum|Flourensia cernua|Fouquieria diguetii|Fritillaria hupehensis|Fructus syzygii|Ganoderma lucidum|Ginkgo biloba|Glycosmis macrophylla|Guatteriopsis friesiana|Gynoxys verrucosa|Gypsophila perfoliata|Hamamelis virginiana|Holarrhena floribunda|Holothuria squamifera|Humulus lupulus|Hypericum polyanthemum|Hypogymnia vittata|Iphiona mucronata|Iphiona scabra|Juniperus drupacea|Juniperus gamboana|Juniperus monticola|Juniperus standleyi|Lathyrus latifolius|Machilus japonica|Magnolia obovata|Magnolia officinalis|Mamestra brassicae|Mangifera Indica|Mangifera indica|Martensia denticulata|Melaleuca Leucadendra|Melaleuca leucadendra L.|Mentha arvensis|Mentha arvensis L.|Mentha canadensis|Mentha cardiaca|Mosla chinensis|Murraya paniculata|Nectandra salicina|Nelumbo nucifera|Neocallitropsis araucarioides|Ocotea gomezii|Olearia phlogopappa|Ononis spinosa|Ononis viscosa|Oplopanax elatus|Osbornia octodonta|Panax ginseng|Parectatosoma mocquerysi|Parthenium argentatum|Pedicularis rex|Pentaclethra macrophylla|Periploca sepium|Phonus arborescens|Phyllobates bicolor|Pinus edulis|Plectranthus myrianthus|Posidonia oceanica|Pseudocyphellaria coronata|Psidium friedrichsthalianum|Psidium guajava|Psidium guyanense|Psidium salutare|Pterocarpus erinaceus|Pterocaulon virgatum|Pyrus bourgaeana|Rhodiola semenovii|Rhododendron baileyi|Rhododendron calostrotum|Rhododendron campylogynum|Rhododendron dasypetalum|Rhododendron dauricum|Rhododendron edgeworthii|Rhododendron glaucophyllum|Rhododendron hippophaeoides|Rhododendron impeditum|Rhododendron keiskei|Rhododendron nivale|Rhododendron polycladum|Rhododendron virgatum|Rhododendron xanthocodon|Salvia broussonetii|Salvia sessei|Sandoricum koetjape|Sassafras albidum|Saussurea lappa|Schinus molle|Sedum sarmentosum|Sigillina signifera|Sonneratia caseolaris|Sorbus torminalis|Stephania zippeliana|Suaeda maritima|Swertia japonica|Taiwania cryptomerioides|Talaromyces variabilis|Thelephora aurantiotincta|Thioalkalivibrio versutus|Thuja occidentalis|Thymus funkii|Thymus longiflorus|Thymus vulgaris|Tristania conferta|Triunia erythrocarpa|Vernonia cistifolia|Veronica polita|Virola surinamensis|Vitex negundo|Zingiber officinale|basil

>  <collections>  (303) 
ANPDB|Australian natural products|CMAUP (cCollective molecular activities of useful plants)|ChEBI NPs|KNApSaCK|Latin America dataset|NANPDB (Natural Products from Northern African Sources)|NAPRORE-CR|NPASS|NPEdia|NuBBEDB|Phyto4Health|Super Natural II|TCMDB-Taiwan (Traditional Chinese Medicine database)|TIPdb (database of Taiwan indigenous plants)|VietHerb|WikiData Natural Products|ZINC NP

>  <dois>  (303) 
10.1002/(SICI)1099-1573(199702)11:1<67::AID-PTR29>3.0.CO;2-I|10.1002/CBDV.201700436|10.1002/FFJ.2730090305|10.1002/FFJ.2730100605|10.1002/FFJ.2730100609|10.1002/JLAC.199619960115|10.1002/JSSC.200900378|10.1007/S10086-018-1773-1|10.1007/S11418-007-0175-2|10.1016/0031-9422(82)85188-1|10.1016/0031-9422(93)85295-3|10.1016/0031-9422(95)00013-W|10.1016/0031-9422(96)00225-7|10.1016/J.APJTM.2016.06.009|10.1016/J.FOODRES.2012.03.015|10.1016/J.PHYTOCHEM.2009.06.013|10.1016/J.PHYTOCHEM.2018.06.006|10.1016/S0031-9422(00)81225-X|10.1016/S0031-9422(00)81428-4|10.1016/S0031-9422(00)83991-6|10.1016/S0031-9422(00)84581-1|10.1016/S0031-9422(00)84946-8|10.1016/S0031-9422(00)86634-0|10.1016/S0031-9422(00)97885-3|10.1016/S0031-9422(00)97945-7|10.1016/S0031-9422(97)00324-5|10.1016/S0031-9422(98)00158-7|10.1016/S0031-9422(99)00050-3|10.1016/S0031-9422(99)00074-6|10.1021/JF00116A075|10.1021/JF00118A056|10.1021/JF0116303|10.1021/JF0402633|10.1021/NP0005208|10.1021/NP50008A001|10.1021/NP50009A015|10.1021/NP50040A040|10.1021/NP50070A047|10.1021/NP970122D|10.1021/jf011456i|10.1023/B:JOEC.0000042400.14451.08|10.1055/S-2006-957420|10.1055/S-2006-959379|10.1055/S-2006-959580|10.1055/S-2007-969442|10.1071/bru9860105|10.1080/0972060X.2017.1312552|10.1080/10412905.1990.9697838|10.1080/10412905.1991.9697906|10.1080/10412905.1991.9697930|10.1080/10412905.1992.9698006|10.1080/10412905.1992.9698135|10.1080/10412905.1993.9698162|10.1080/10412905.1993.9698218|10.1080/10412905.1993.9698231|10.1080/10412905.1993.9698243|10.1080/10412905.1994.9698350|10.1080/10412905.1994.9698428|10.1080/10412905.2010.9700389|10.1080/10412905.2012.747271|10.1139/V64-059|10.1177/1934578X1200700239|10.1246/BCSJ.56.3477|10.1248/CPB.23.1892|10.1248/CPB.49.716|10.1248/YAKUSHI1947.87.9_1153|10.14233/AJCHEM.2013.14346|10.1515/ZNC-2006-7-801|10.1590/S0100-40422009000200028|10.1590/S0103-50532011000400018|10.18845/tm.v37i7.7301|10.3390/MOLECULES24112053|10.5897/JMPR12.157

>  <synonyms>  (303) 
(+)-.GAMMA.-EUDESMOL|(+)-gamma-eudesmol|(2R,4AR)-1,2,3,4,4A,5,6,7-OCTAHYDRO-.ALPHA.,.ALPHA.,4A,8-TETRAMETHYL-2-NAPHTHALENEMETHANOL|(2R,4AR)-1,2,3,4,4A,5,6,7-OCTAHYDRO-alpha,alpha,4A,8-TETRAMETHYL-2-NAPHTHALENEMETHANOL|(2R-cis)-1,2,3,4,4a,5,6,7-Octahydro-alpha,alpha,4a,8-tetramethyl-2-naphthalenemethanol|.gamma.-Eudesmol|1209-71-8|2-((2R,4aR)-4a,8-Dimethyl-1,2,3,4,4a,5,6,7-octahydronaphthalen-2-yl)propan-2-ol|2-((4aR)-1,2,3,4,4alpha,5,6,7-octahydro-4alpha,8-dimethylnaphthalen-2-yl)-propan-2-ol|2-NAPHTHALENEMETHANOL, 1,2,3,4,4A,5,6,7-OCTAHYDRO-.ALPHA.,.ALPHA.,4A,8-TETRAMETHYL-, (2R,4AR)-|2-NAPHTHALENEMETHANOL, 1,2,3,4,4A,5,6,7-OCTAHYDRO-alpha,alpha,4A,8-TETRAMETHYL-, (2R,4AR)-|2-Naphthalenemethanol, 1,2,3,4,4a,5,6,7-octahydro-alpha,alpha,4a,8-tetramethyl-, (2R-cis)-|2-[(2R,4aR)-4a,8-dimethyl-2,3,4,5,6,7-hexahydro-1H-naphthalen-2-yl]propan-2-ol|C17124|C3M974G2BE|CHEBI:62513|CHEMBL477900|CS-0007112|DTXCID001475824|DTXSID301017639|EUDESMOL, .GAMMA.-|EUDESMOL, gamma-|Gamma-Eudesmol (>85%)|Ganodermanondiol|HY-N0065|Machilol|NS00126364|Q27131974|SCHEMBL194293|Selinenol|UNII-C3M974G2BE|Uncineol|\u221a\u00e9\u00ac\u2265-eudesmol|eudesm-4-en-11-ol|gamma-eudesmol

>  <cas>  (303) 
1209-71-8

$$$$

     RDKit          2D

 13 13  0  0  0  0  0  0  0  0999 V2000
   -5.0532    0.2836    0.0000 C   0  0  0  0  0  0  0  0  0  0  0  0
   -3.9454   -0.7277    0.0000 O   0  0  0  0  0  0  0  0  0  0  0  0
   -2.5157   -0.2741    0.0000 C   0  0  0  0  0  0  0  0  0  0  0  0
   -2.1937    1.1910    0.0000 C   0  0  0  0  0  0  0  0  0  0  0  0
   -0.7640    1.6446    0.0000 C   0  0  0  0  0  0  0  0  0  0  0  0
    0.3438    0.6333    0.0000 C   0  0  0  0  0  0  0  0  0  0  0  0
    1.7736    1.0869    0.0000 C   0  0  0  0  0  0  0  0  0  0  0  0
    2.8813    0.0756    0.0000 C   0  0  0  0  0  0  0  0  0  0  0  0
    4.3111    0.5292    0.0000 C   0  0  0  0  0  0  0  0  0  0  0  0
    5.4188   -0.4821    0.0000 O   0  0  0  0  0  0  0  0  0  0  0  0
    0.0218   -0.8318    0.0000 C   0  0  0  0  0  0  0  0  0  0  0  0
    1.1296   -1.8431    0.0000 O   0  0  0  0  0  0  0  0  0  0  0  0
   -1.4079   -1.2854    0.0000 C   0  0  0  0  0  0  0  0  0  0  0  0
  1  2  1  0
  2  3  1  0
  3  4  2  0
  4  5  1  0
  5  6  2  0
  6  7  1  0
  7  8  2  0
  8  9  1  0
  9 10  2  0
  6 11  1  0
 11 12  1  0
 11 13  2  0
 13  3  1  0
M  END
>  <identifier>  (304) 
CNP0080622.1

>  <canonical_smiles>  (304) 
COC1=CC=C(/C=C/C=O)C(O)=C1

>  <standard_inchi>  (304) 
InChI=1S/C10H10O3/c1-13-9-5-4-8(3-2-6-11)10(12)7-9/h2-7,12H,1H3/b3-2+

>  <standard_inchi_key>  (304) 
WMRKBFFUHNUAFH-NSCUHMNNSA-N

>  <name>  (304) 
nan

>  <iupac_name>  (304) 
nan

>  <annotation_level>  (304) 
0

>  <total_atom_count>  (304) 
23

>  <heavy_atom_count>  (304) 
13

>  <molecular_weight>  (304) 
178.19

>  <exact_molecular_weight>  (304) 
178.06299

>  <molecular_formula>  (304) 
C10H10O3

>  <alogp>  (304) 
1.61

>  <topological_polar_surface_area>  (304) 
46.53

>  <rotatable_bond_count>  (304) 
3

>  <hydrogen_bond_acceptors>  (304) 
3

>  <hydrogen_bond_donors>  (304) 
1

>  <hydrogen_bond_acceptors_lipinski>  (304) 
3

>  <hydrogen_bond_donors_lipinski>  (304) 
1

>  <lipinski_rule_of_five_violations>  (304) 
0

>  <aromatic_rings_count>  (304) 
1

>  <qed_drug_likeliness>  (304) 
0.56

>  <formal_charge>  (304) 
0

>  <fractioncsp3>  (304) 
0.10

>  <number_of_minimal_rings>  (304) 
1

>  <van_der_walls_volume>  (304) 
163.99

>  <contains_sugar>  (304) 
False

>  <contains_ring_sugars>  (304) 
False

>  <contains_linear_sugars>  (304) 
False

>  <murcko_framework>  (304) 
c1ccccc1

>  <np_likeness>  (304) 
1.04

>  <chemical_class>  (304) 
nan

>  <chemical_sub_class>  (304) 
nan

>  <chemical_super_class>  (304) 
nan

>  <direct_parent_classification>  (304) 
nan

>  <np_classifier_pathway>  (304) 
Shikimates and Phenylpropanoids

>  <np_classifier_superclass>  (304) 
Phenylpropanoids (C6-C3)

>  <np_classifier_class>  (304) 
Cinnamic acids and derivatives

>  <np_classifier_is_glycoside>  (304) 
False

>  <organisms>  (304) 
Toona ciliata

>  <collections>  (304) 
Latin America dataset|NuBBEDB|WikiData Natural Products|ZINC NP

>  <dois>  (304) 
10.3998/ARK.5550190.0005.606|10.3998/ark.5550190.0005.606

>  <synonyms>  (304) 
nan

>  <cas>  (304) 
nan

$$$$

     RDKit          2D

 16 17  0  0  0  0  0  0  0  0999 V2000
    4.5480    0.1064    0.0000 C   0  0  0  0  0  0  0  0  0  0  0  0
    3.0486    0.0651    0.0000 C   0  0  0  0  0  0  0  0  0  0  0  0
    2.6658   -1.3853    0.0000 C   0  0  0  0  0  0  0  0  0  0  0  0
    1.5596   -2.3984    0.0000 C   0  0  0  0  0  0  0  0  0  0  0  0
    0.0813   -2.6527    0.0000 C   0  0  0  0  0  0  0  0  0  0  0  0
   -1.2998   -2.0674    0.0000 C   0  0  0  0  0  0  0  0  0  0  0  0
   -1.5430   -3.5475    0.0000 C   0  0  0  0  0  0  0  0  0  0  0  0
   -2.7955   -2.1800    0.0000 O   0  0  0  0  0  0  0  0  0  0  0  0
   -2.1452   -0.8283    0.0000 C   0  0  0  0  0  0  0  0  0  0  0  0
   -2.1865    0.6711    0.0000 C   0  0  0  0  0  0  0  0  0  0  0  0
   -1.4106    1.9549    0.0000 C   0  0  0  0  0  0  0  0  0  0  0  0
   -1.5942    3.4436    0.0000 C   0  0  0  0  0  0  0  0  0  0  0  0
   -2.8775    2.2682    0.0000 C   0  0  0  0  0  0  0  0  0  0  0  0
   -0.0638    2.6153    0.0000 C   0  0  0  0  0  0  0  0  0  0  0  0
    1.4262    2.4428    0.0000 C   0  0  0  0  0  0  0  0  0  0  0  0
    2.5865    1.4921    0.0000 C   0  0  0  0  0  0  0  0  0  0  0  0
  1  2  1  0
  2  3  2  3
  3  4  1  0
  4  5  1  0
  5  6  1  0
  6  7  1  6
  6  8  1  0
  8  9  1  0
  9 10  1  6
 10 11  1  0
 11 12  1  0
 11 13  1  0
 11 14  1  0
 14 15  2  0
 15 16  1  0
 16  2  1  0
  9  6  1  0
M  END
>  <identifier>  (305) 
CNP0249936.3

>  <canonical_smiles>  (305) 
CC1=CCC[C@@]2(C)O[C@@H]2CC(C)(C)/C=C\C1

>  <standard_inchi>  (305) 
InChI=1S/C15H24O/c1-12-7-5-9-14(2,3)11-13-15(4,16-13)10-6-8-12/h5,8-9,13H,6-7,10-11H2,1-4H3/b9-5-,12-8?/t13-,15-/m1/s1

>  <standard_inchi_key>  (305) 
RKQDKXOBRXTSFS-MIYMVZBGSA-N

>  <name>  (305) 
nan

>  <iupac_name>  (305) 
(1~{R},7~{Z},11~{R})-1,5,9,9-tetramethyl-12-oxabicyclo[9.1.0]dodeca-4,7-diene

>  <annotation_level>  (305) 
4

>  <total_atom_count>  (305) 
40

>  <heavy_atom_count>  (305) 
16

>  <molecular_weight>  (305) 
220.36

>  <exact_molecular_weight>  (305) 
220.18272

>  <molecular_formula>  (305) 
C15H24O

>  <alogp>  (305) 
4.25

>  <topological_polar_surface_area>  (305) 
12.53

>  <rotatable_bond_count>  (305) 
0

>  <hydrogen_bond_acceptors>  (305) 
1

>  <hydrogen_bond_donors>  (305) 
0

>  <hydrogen_bond_acceptors_lipinski>  (305) 
1

>  <hydrogen_bond_donors_lipinski>  (305) 
0

>  <lipinski_rule_of_five_violations>  (305) 
0

>  <aromatic_rings_count>  (305) 
0

>  <qed_drug_likeliness>  (305) 
0.44

>  <formal_charge>  (305) 
0

>  <fractioncsp3>  (305) 
0.73

>  <number_of_minimal_rings>  (305) 
2

>  <van_der_walls_volume>  (305) 
nan

>  <contains_sugar>  (305) 
False

>  <contains_ring_sugars>  (305) 
False

>  <contains_linear_sugars>  (305) 
False

>  <murcko_framework>  (305) 
O1C2CCC=CCC=CCCC12

>  <np_likeness>  (305) 
3.62

>  <chemical_class>  (305) 
Epoxides

>  <chemical_sub_class>  (305) 
Epoxides

>  <chemical_super_class>  (305) 
Organoheterocyclic compounds

>  <direct_parent_classification>  (305) 
Epoxides

>  <np_classifier_pathway>  (305) 
Terpenoids

>  <np_classifier_superclass>  (305) 
Sesquiterpenoids

>  <np_classifier_class>  (305) 
Humulane sesquiterpenoids

>  <np_classifier_is_glycoside>  (305) 
False

>  <organisms>  (305) 
Cedrela odorata|Syzygium aromaticum|Trichilia lepidota

>  <collections>  (305) 
FooDB|Latin America dataset|NPASS|NuBBEDB|WikiData Natural Products

>  <dois>  (305) 
10.1590/S0103-50532000000600012|10.1590/S0103-50532002000300014

>  <synonyms>  (305) 
Humulene epoxide|alpha-Humulene epoxide

>  <cas>  (305) 
nan

$$$$

     RDKit          2D

 25 28  0  0  0  0  0  0  0  0999 V2000
    6.6235   -0.9706    0.0000 C   0  0  0  0  0  0  0  0  0  0  0  0
    5.1723   -1.3500    0.0000 C   0  0  0  0  0  0  0  0  0  0  0  0
    4.1181   -0.2830    0.0000 C   0  0  0  0  0  0  0  0  0  0  0  0
    4.3618    1.1971    0.0000 C   0  0  0  0  0  0  0  0  0  0  0  0
    5.7024    1.8700    0.0000 O   0  0  0  0  0  0  0  0  0  0  0  0
    3.0294    1.8862    0.0000 C   0  0  0  0  0  0  0  0  0  0  0  0
    1.9623    0.8320    0.0000 C   0  0  0  0  0  0  0  0  0  0  0  0
    0.4649    0.9196    0.0000 C   0  0  0  0  0  0  0  0  0  0  0  0
   -0.2080    2.2602    0.0000 C   0  0  0  0  0  0  0  0  0  0  0  0
   -1.7054    2.3478    0.0000 C   0  0  0  0  0  0  0  0  0  0  0  0
   -2.5300    1.0948    0.0000 C   0  0  0  0  0  0  0  0  0  0  0  0
   -4.0274    1.1824    0.0000 C   0  0  0  0  0  0  0  0  0  0  0  0
   -4.7003    2.5230    0.0000 O   0  0  0  0  0  0  0  0  0  0  0  0
   -4.8520   -0.0706    0.0000 C   0  0  0  0  0  0  0  0  0  0  0  0
   -6.3495    0.0170    0.0000 O   0  0  0  0  0  0  0  0  0  0  0  0
   -4.1792   -1.4113    0.0000 C   0  0  0  0  0  0  0  0  0  0  0  0
   -5.0037   -2.6643    0.0000 O   0  0  0  0  0  0  0  0  0  0  0  0
   -2.6817   -1.4988    0.0000 C   0  0  0  0  0  0  0  0  0  0  0  0
   -1.8571   -0.2458    0.0000 C   0  0  0  0  0  0  0  0  0  0  0  0
   -1.1843   -1.5864    0.0000 C   0  0  0  0  0  0  0  0  0  0  0  0
   -0.3597   -0.3334    0.0000 C   0  0  0  0  0  0  0  0  0  0  0  0
    0.3132   -1.6740    0.0000 C   0  0  0  0  0  0  0  0  0  0  0  0
    1.8106   -1.7616    0.0000 C   0  0  0  0  0  0  0  0  0  0  0  0
    2.6352   -0.5086    0.0000 C   0  0  0  0  0  0  0  0  0  0  0  0
    3.4445   -1.7716    0.0000 C   0  0  0  0  0  0  0  0  0  0  0  0
  1  2  1  0
  3  2  1  6
  3  4  1  0
  4  5  2  0
  4  6  1  0
  7  6  1  6
  7  8  1  0
  8  9  1  1
  9 10  1  0
 11 10  1  6
 11 12  1  0
 12 13  1  6
 12 14  1  0
 14 15  1  1
 14 16  1  0
 16 17  1  1
 16 18  1  0
 18 19  1  0
 19 20  1  6
 19 21  1  0
 21 22  1  6
 22 23  1  0
 23 24  1  0
 24 25  1  6
 24  3  1  0
 24  7  1  0
 21  8  1  0
 19 11  1  0
M  END
>  <identifier>  (306) 
CNP0421515.7

>  <canonical_smiles>  (306) 
CC[C@H]1C(=O)C[C@H]2[C@@H]3CC[C@H]4[C@@H](O)[C@H](O)[C@H](O)C[C@]4(C)[C@H]3CC[C@]12C

>  <standard_inchi>  (306) 
InChI=1S/C21H34O4/c1-4-12-16(22)9-15-11-5-6-14-18(24)19(25)17(23)10-21(14,3)13(11)7-8-20(12,15)2/h11-15,17-19,23-25H,4-10H2,1-3H3/t11-,12+,13+,14+,15+,17-,18-,19-,20-,21-/m1/s1

>  <standard_inchi_key>  (306) 
JHBBZIAPXDEPET-XSXSTQRRSA-N

>  <name>  (306) 
nan

>  <iupac_name>  (306) 
(2~{R},3~{R},4~{R},5~{R},8~{R},9~{S},10~{R},13~{S},14~{S},17~{R})-17-ethyl-2,3,4-trihydroxy-10,13-dimethyl-1,2,3,4,5,6,7,8,9,11,12,14,15,17-tetradecahydrocyclopenta[a]phenanthren-16-one

>  <annotation_level>  (306) 
4

>  <total_atom_count>  (306) 
59

>  <heavy_atom_count>  (306) 
25

>  <molecular_weight>  (306) 
350.5

>  <exact_molecular_weight>  (306) 
350.24571

>  <molecular_formula>  (306) 
C21H34O4

>  <alogp>  (306) 
2.54

>  <topological_polar_surface_area>  (306) 
77.76

>  <rotatable_bond_count>  (306) 
1

>  <hydrogen_bond_acceptors>  (306) 
4

>  <hydrogen_bond_donors>  (306) 
3

>  <hydrogen_bond_acceptors_lipinski>  (306) 
4

>  <hydrogen_bond_donors_lipinski>  (306) 
3

>  <lipinski_rule_of_five_violations>  (306) 
0

>  <aromatic_rings_count>  (306) 
0

>  <qed_drug_likeliness>  (306) 
0.68

>  <formal_charge>  (306) 
0

>  <fractioncsp3>  (306) 
0.95

>  <number_of_minimal_rings>  (306) 
4

>  <van_der_walls_volume>  (306) 
nan

>  <contains_sugar>  (306) 
False

>  <contains_ring_sugars>  (306) 
False

>  <contains_linear_sugars>  (306) 
False

>  <murcko_framework>  (306) 
C1CCC2C(C1)CCC3C4CCCC4CCC23

>  <np_likeness>  (306) 
2.65

>  <chemical_class>  (306) 
Steroids and steroid derivatives

>  <chemical_sub_class>  (306) 
Pregnane steroids

>  <chemical_super_class>  (306) 
Lipids and lipid-like molecules

>  <direct_parent_classification>  (306) 
Gluco\/mineralocorticoids, progestogins and derivatives

>  <np_classifier_pathway>  (306) 
Terpenoids

>  <np_classifier_superclass>  (306) 
Steroids

>  <np_classifier_class>  (306) 
Pregnane steroids

>  <np_classifier_is_glycoside>  (306) 
False

>  <organisms>  (306) 
Trichilia claussenii

>  <collections>  (306) 
Latin America dataset|NuBBEDB|Super Natural II|WikiData Natural Products

>  <dois>  (306) 
10.1016/S0031-9422(97)00167-2

>  <synonyms>  (306) 
2\u221a\u00e9\u00ac\u00b13\u221a\u00e9\u00ac\u00b14\u221a\u00e9\u00ac\u2264-Trihydroxypregnan-16-one

>  <cas>  (306) 
nan

$$$$

     RDKit          2D

 23 26  0  0  0  0  0  0  0  0999 V2000
    0.9727    3.8592    0.0000 C   0  0  0  0  0  0  0  0  0  0  0  0
   -0.4580    3.4086    0.0000 C   0  0  0  0  0  0  0  0  0  0  0  0
   -1.5635    4.4224    0.0000 C   0  0  0  0  0  0  0  0  0  0  0  0
   -0.7832    1.9443    0.0000 C   0  0  0  0  0  0  0  0  0  0  0  0
   -2.2139    1.4938    0.0000 C   0  0  0  0  0  0  0  0  0  0  0  0
   -2.5391    0.0294    0.0000 C   0  0  0  0  0  0  0  0  0  0  0  0
   -3.9699   -0.4211    0.0000 C   0  0  0  0  0  0  0  0  0  0  0  0
   -5.0754    0.5927    0.0000 C   0  0  0  0  0  0  0  0  0  0  0  0
   -4.2951   -1.8854    0.0000 C   0  0  0  0  0  0  0  0  0  0  0  0
   -3.1895   -2.8992    0.0000 C   0  0  0  0  0  0  0  0  0  0  0  0
   -1.7588   -2.4487    0.0000 C   0  0  0  0  0  0  0  0  0  0  0  0
   -0.6532   -3.4625    0.0000 C   0  0  0  0  0  0  0  0  0  0  0  0
   -1.4336   -0.9844    0.0000 C   0  0  0  0  0  0  0  0  0  0  0  0
   -0.0028   -0.5338    0.0000 C   0  0  0  0  0  0  0  0  0  0  0  0
    1.1027   -1.5476    0.0000 N   0  0  0  0  0  0  0  0  0  0  0  0
    2.5334   -1.0971    0.0000 C   0  0  0  0  0  0  0  0  0  0  0  0
    3.6390   -2.1109    0.0000 C   0  0  0  0  0  0  0  0  0  0  0  0
    5.0697   -1.6603    0.0000 C   0  0  0  0  0  0  0  0  0  0  0  0
    5.3949   -0.1960    0.0000 C   0  0  0  0  0  0  0  0  0  0  0  0
    4.2894    0.8178    0.0000 C   0  0  0  0  0  0  0  0  0  0  0  0
    2.8586    0.3673    0.0000 C   0  0  0  0  0  0  0  0  0  0  0  0
    1.7531    1.3810    0.0000 N   0  0  0  0  0  0  0  0  0  0  0  0
    0.3224    0.9305    0.0000 C   0  0  0  0  0  0  0  0  0  0  0  0
  1  2  2  0
  2  3  1  0
  2  4  1  0
  4  5  2  0
  5  6  1  0
  6  7  2  0
  7  8  1  0
  7  9  1  0
  9 10  2  0
 10 11  1  0
 11 12  1  0
 11 13  2  0
 13 14  1  0
 14 15  2  0
 15 16  1  0
 16 17  2  0
 17 18  1  0
 18 19  2  0
 19 20  1  0
 20 21  2  0
 21 22  1  0
 22 23  2  0
 23  4  1  0
 13  6  1  0
 23 14  1  0
 21 16  1  0
M  END
>  <identifier>  (307) 
CNP0080656.0

>  <canonical_smiles>  (307) 
C=C(C)C1=CC2=C(C)C=CC(C)=C2C2=NC3=CC=CC=C3N=C12

>  <standard_inchi>  (307) 
InChI=1S/C21H18N2/c1-12(2)15-11-16-13(3)9-10-14(4)19(16)21-20(15)22-17-7-5-6-8-18(17)23-21/h5-11H,1H2,2-4H3

>  <standard_inchi_key>  (307) 
QWQGDUNJMXPOLV-UHFFFAOYSA-N

>  <name>  (307) 
nan

>  <iupac_name>  (307) 
6-isopropenyl-1,4-dimethyl-benzo[a]phenazine

>  <annotation_level>  (307) 
4

>  <total_atom_count>  (307) 
41

>  <heavy_atom_count>  (307) 
23

>  <molecular_weight>  (307) 
298.39

>  <exact_molecular_weight>  (307) 
298.147

>  <molecular_formula>  (307) 
C21H18N2

>  <alogp>  (307) 
5.59

>  <topological_polar_surface_area>  (307) 
25.78

>  <rotatable_bond_count>  (307) 
1

>  <hydrogen_bond_acceptors>  (307) 
2

>  <hydrogen_bond_donors>  (307) 
0

>  <hydrogen_bond_acceptors_lipinski>  (307) 
2

>  <hydrogen_bond_donors_lipinski>  (307) 
0

>  <lipinski_rule_of_five_violations>  (307) 
1

>  <aromatic_rings_count>  (307) 
4

>  <qed_drug_likeliness>  (307) 
0.34

>  <formal_charge>  (307) 
0

>  <fractioncsp3>  (307) 
0.14

>  <number_of_minimal_rings>  (307) 
4

>  <van_der_walls_volume>  (307) 
nan

>  <contains_sugar>  (307) 
False

>  <contains_ring_sugars>  (307) 
False

>  <contains_linear_sugars>  (307) 
False

>  <murcko_framework>  (307) 
n1c2ccccc2nc3c1ccc4ccccc43

>  <np_likeness>  (307) 
0.04

>  <chemical_class>  (307) 
Diazanaphthalenes

>  <chemical_sub_class>  (307) 
Benzodiazines

>  <chemical_super_class>  (307) 
Organoheterocyclic compounds

>  <direct_parent_classification>  (307) 
Phenazines and derivatives

>  <np_classifier_pathway>  (307) 
Alkaloids

>  <np_classifier_superclass>  (307) 
Anthranilic acid alkaloids

>  <np_classifier_class>  (307) 
Phenazine alkaloids

>  <np_classifier_is_glycoside>  (307) 
False

>  <organisms>  (307) 
Emmotum nitens

>  <collections>  (307) 
Latin America dataset|NuBBEDB|WikiData Natural Products|ZINC NP

>  <dois>  (307) 
10.1016/0031-9422(76)85091-1

>  <synonyms>  (307) 
6-isopropenyl-14-dimethylbenzo[a]phenazine

>  <cas>  (307) 
nan

$$$$

     RDKit          2D

 26 29  0  0  0  0  0  0  0  0999 V2000
    3.7984   -3.3043    0.0000 C   0  0  0  0  0  0  0  0  0  0  0  0
    3.7122   -1.8068    0.0000 O   0  0  0  0  0  0  0  0  0  0  0  0
    2.3722   -1.1327    0.0000 C   0  0  0  0  0  0  0  0  0  0  0  0
    1.1184   -1.9561    0.0000 C   0  0  0  0  0  0  0  0  0  0  0  0
   -0.2216   -1.2819    0.0000 C   0  0  0  0  0  0  0  0  0  0  0  0
   -0.3077    0.2156    0.0000 C   0  0  0  0  0  0  0  0  0  0  0  0
    0.9461    1.0390    0.0000 C   0  0  0  0  0  0  0  0  0  0  0  0
    2.2860    0.3648    0.0000 C   0  0  0  0  0  0  0  0  0  0  0  0
    3.5398    1.1882    0.0000 O   0  0  0  0  0  0  0  0  0  0  0  0
    4.8798    0.5141    0.0000 C   0  0  0  0  0  0  0  0  0  0  0  0
   -1.6477    0.8897    0.0000 C   0  0  0  0  0  0  0  0  0  0  0  0
   -0.3815    1.1841    0.0000 C   0  0  0  0  0  0  0  0  0  0  0  0
    0.1813    1.7527    0.0000 C   0  0  0  0  0  0  0  0  0  0  0  0
    2.3092    1.1942    0.0000 O   0  0  0  0  0  0  0  0  0  0  0  0
    3.3644    2.2603    0.0000 C   0  0  0  0  0  0  0  0  0  0  0  0
   -0.0297    2.5244    0.0000 C   0  0  0  0  0  0  0  0  0  0  0  0
   -0.8035    2.7275    0.0000 C   0  0  0  0  0  0  0  0  0  0  0  0
   -2.0434    2.3366    0.0000 C   0  0  0  0  0  0  0  0  0  0  0  0
   -3.5417    2.4074    0.0000 C   0  0  0  0  0  0  0  0  0  0  0  0
   -4.0721    1.0043    0.0000 C   0  0  0  0  0  0  0  0  0  0  0  0
   -2.9015    0.0663    0.0000 N   0  0  0  0  0  0  0  0  0  0  0  0
   -4.2345   -0.6215    0.0000 O   0  0  0  0  0  0  0  0  0  0  0  0
   -2.8154   -1.4312    0.0000 C   0  0  0  0  0  0  0  0  0  0  0  0
   -1.4754   -2.1053    0.0000 C   0  0  0  0  0  0  0  0  0  0  0  0
   -1.3892   -3.6029    0.0000 O   0  0  0  0  0  0  0  0  0  0  0  0
   -2.6430   -4.4263    0.0000 C   0  0  0  0  0  0  0  0  0  0  0  0
  1  2  1  0
  2  3  1  0
  3  4  2  0
  4  5  1  0
  5  6  2  0
  6  7  1  0
  7  8  2  0
  8  9  1  0
  9 10  1  0
  6 11  1  0
 11 12  1  6
 12 13  1  0
 13 14  1  6
 14 15  1  0
 13 16  1  0
 16 17  2  0
 17 18  1  0
 18 19  2  0
 19 20  1  0
 20 21  1  0
 21 22  1  6
 21 23  1  0
 23 24  1  0
 24 25  1  1
 25 26  1  0
  8  3  1  0
 18 11  1  0
 24  5  1  0
 21 11  1  0
M  CHG  2  21   1  22  -1
M  END
>  <identifier>  (308) 
CNP0569866.1

>  <canonical_smiles>  (308) 
COC1=CC2=C(C=C1OC)[C@]13C[C@@H](OC)C=CC1=CC[N@+]3([O-])C[C@@H]2OC

>  <standard_inchi>  (308) 
InChI=1S/C20H25NO5/c1-23-14-6-5-13-7-8-21(22)12-19(26-4)15-9-17(24-2)18(25-3)10-16(15)20(13,21)11-14/h5-7,9-10,14,19H,8,11-12H2,1-4H3/t14-,19-,20-,21-/m0/s1

>  <standard_inchi_key>  (308) 
STSBYRGOIMMOGC-CXTHYWKRSA-N

>  <name>  (308) 
nan

>  <iupac_name>  (308) 
(2~{R},7~{S},9~{R},13~{b}~{S})-2,9,11,12-tetramethoxy-7-oxido-2,6,8,9-tetrahydro-1~{H}-indolo[7~{a},1-a]isoquinolin-7-ium

>  <annotation_level>  (308) 
4

>  <total_atom_count>  (308) 
51

>  <heavy_atom_count>  (308) 
26

>  <molecular_weight>  (308) 
359.42

>  <exact_molecular_weight>  (308) 
359.17327

>  <molecular_formula>  (308) 
C20H25NO5

>  <alogp>  (308) 
2.83

>  <topological_polar_surface_area>  (308) 
59.98

>  <rotatable_bond_count>  (308) 
4

>  <hydrogen_bond_acceptors>  (308) 
5

>  <hydrogen_bond_donors>  (308) 
0

>  <hydrogen_bond_acceptors_lipinski>  (308) 
5

>  <hydrogen_bond_donors_lipinski>  (308) 
0

>  <lipinski_rule_of_five_violations>  (308) 
0

>  <aromatic_rings_count>  (308) 
1

>  <qed_drug_likeliness>  (308) 
0.61

>  <formal_charge>  (308) 
0

>  <fractioncsp3>  (308) 
0.50

>  <number_of_minimal_rings>  (308) 
4

>  <van_der_walls_volume>  (308) 
325.11

>  <contains_sugar>  (308) 
False

>  <contains_ring_sugars>  (308) 
False

>  <contains_linear_sugars>  (308) 
False

>  <murcko_framework>  (308) 
c1ccc2c(c1)CCN3CC=C4C=CCCC423

>  <np_likeness>  (308) 
1.72

>  <chemical_class>  (308) 
Erythrina alkaloids

>  <chemical_sub_class>  (308) 
Erythrinanes

>  <chemical_super_class>  (308) 
Alkaloids and derivatives

>  <direct_parent_classification>  (308) 
Erythrinanes

>  <np_classifier_pathway>  (308) 
Alkaloids

>  <np_classifier_superclass>  (308) 
Lysine alkaloids

>  <np_classifier_class>  (308) 
Indolizidine alkaloids

>  <np_classifier_is_glycoside>  (308) 
False

>  <organisms>  (308) 
Erythrina mulungu

>  <collections>  (308) 
Latin America dataset|NuBBEDB|Supernatural3|WikiData Natural Products|ZINC NP

>  <dois>  (308) 
10.1139/V81-400|10.1139/v81-400

>  <synonyms>  (308) 
(1S,8R,16R)-4,5,8,16-tetramethoxy-10-azatetracyclo[8.7.0.0\u00b9,\u00b9\u00b3.0\u00b2,\u2077]heptadeca-2(7),3,5,12,14-pentaen-10-ium-10-olate|O-Methyl-erythrartine-N-oxide

>  <cas>  (308) 
nan

$$$$

     RDKit          2D

 22 24  0  0  0  0  0  0  0  0999 V2000
   -6.7016    1.7356    0.0000 C   0  0  0  0  0  0  0  0  0  0  0  0
   -6.1554    0.3386    0.0000 O   0  0  0  0  0  0  0  0  0  0  0  0
   -4.6724    0.1132    0.0000 C   0  0  0  0  0  0  0  0  0  0  0  0
   -3.7357    1.2847    0.0000 C   0  0  0  0  0  0  0  0  0  0  0  0
   -2.2527    1.0592    0.0000 C   0  0  0  0  0  0  0  0  0  0  0  0
   -1.7065   -0.3378    0.0000 C   0  0  0  0  0  0  0  0  0  0  0  0
   -0.2236   -0.5633    0.0000 C   0  0  0  0  0  0  0  0  0  0  0  0
    0.3226   -1.9603    0.0000 C   0  0  0  0  0  0  0  0  0  0  0  0
    1.8056   -2.1858    0.0000 O   0  0  0  0  0  0  0  0  0  0  0  0
    2.7423   -1.0142    0.0000 C   0  0  0  0  0  0  0  0  0  0  0  0
    4.2253   -1.2397    0.0000 C   0  0  0  0  0  0  0  0  0  0  0  0
    5.1620   -0.0681    0.0000 C   0  0  0  0  0  0  0  0  0  0  0  0
    6.6450   -0.2936    0.0000 O   0  0  0  0  0  0  0  0  0  0  0  0
    4.6158    1.3289    0.0000 C   0  0  0  0  0  0  0  0  0  0  0  0
    3.1329    1.5543    0.0000 C   0  0  0  0  0  0  0  0  0  0  0  0
    2.5867    2.9514    0.0000 O   0  0  0  0  0  0  0  0  0  0  0  0
    2.1961    0.3828    0.0000 C   0  0  0  0  0  0  0  0  0  0  0  0
    0.7132    0.6083    0.0000 C   0  0  0  0  0  0  0  0  0  0  0  0
    0.1670    2.0053    0.0000 O   0  0  0  0  0  0  0  0  0  0  0  0
   -2.6433   -1.5093    0.0000 C   0  0  0  0  0  0  0  0  0  0  0  0
   -2.0971   -2.9064    0.0000 O   0  0  0  0  0  0  0  0  0  0  0  0
   -4.1262   -1.2839    0.0000 C   0  0  0  0  0  0  0  0  0  0  0  0
  1  2  1  0
  2  3  1  0
  3  4  2  0
  4  5  1  0
  5  6  2  0
  6  7  1  0
  7  8  2  0
  8  9  1  0
  9 10  1  0
 10 11  2  0
 11 12  1  0
 12 13  1  0
 12 14  2  0
 14 15  1  0
 15 16  1  0
 15 17  2  0
 17 18  1  0
 18 19  2  0
  6 20  1  0
 20 21  1  0
 20 22  2  0
 22  3  1  0
 18  7  1  0
 17 10  1  0
M  END
>  <identifier>  (309) 
CNP0172675.0

>  <canonical_smiles>  (309) 
COC1=CC=C(C2=COC3=CC(O)=CC(O)=C3C2=O)C(O)=C1

>  <standard_inchi>  (309) 
InChI=1S/C16H12O6/c1-21-9-2-3-10(12(18)6-9)11-7-22-14-5-8(17)4-13(19)15(14)16(11)20/h2-7,17-19H,1H3

>  <standard_inchi_key>  (309) 
OZEVXMDBOINMTC-UHFFFAOYSA-N

>  <name>  (309) 
2'-Hydroxybiochanin A

>  <iupac_name>  (309) 
5,7-dihydroxy-3-(2-hydroxy-4-methoxy-phenyl)chromen-4-one

>  <annotation_level>  (309) 
5

>  <total_atom_count>  (309) 
34

>  <heavy_atom_count>  (309) 
22

>  <molecular_weight>  (309) 
300.27

>  <exact_molecular_weight>  (309) 
300.06339

>  <molecular_formula>  (309) 
C16H12O6

>  <alogp>  (309) 
2.59

>  <topological_polar_surface_area>  (309) 
100.13

>  <rotatable_bond_count>  (309) 
2

>  <hydrogen_bond_acceptors>  (309) 
6

>  <hydrogen_bond_donors>  (309) 
3

>  <hydrogen_bond_acceptors_lipinski>  (309) 
6

>  <hydrogen_bond_donors_lipinski>  (309) 
3

>  <lipinski_rule_of_five_violations>  (309) 
0

>  <aromatic_rings_count>  (309) 
3

>  <qed_drug_likeliness>  (309) 
0.67

>  <formal_charge>  (309) 
0

>  <fractioncsp3>  (309) 
0.06

>  <number_of_minimal_rings>  (309) 
3

>  <van_der_walls_volume>  (309) 
248.21

>  <contains_sugar>  (309) 
False

>  <contains_ring_sugars>  (309) 
False

>  <contains_linear_sugars>  (309) 
False

>  <murcko_framework>  (309) 
O1C=C(c2ccccc2)Cc3ccccc13

>  <np_likeness>  (309) 
1.35

>  <chemical_class>  (309) 
Isoflavonoids

>  <chemical_sub_class>  (309) 
Isoflav-2-enes

>  <chemical_super_class>  (309) 
Phenylpropanoids and polyketides

>  <direct_parent_classification>  (309) 
Isoflavones

>  <np_classifier_pathway>  (309) 
Shikimates and Phenylpropanoids

>  <np_classifier_superclass>  (309) 
Isoflavonoids

>  <np_classifier_class>  (309) 
Isoflavones

>  <np_classifier_is_glycoside>  (309) 
False

>  <organisms>  (309) 
Aaptos ciliata|Abies excelsa|Abies pinsapo var. marocana|Achlya heterosexualis|Alternaria macrospora|Ampelocera edentula|Angelica acutiloba|Apis mellifera ligustica|Arnica mollis|Aspilia parvifolia|Astragalus adsurgens|Barringtonia acutangula|Botrytis cinerea|Brassica carinata|Brazilian Red Propolis|Bryonia alba|Carpha glomerata|Chrysosporum ovalisporum|Corydalis densiflora|Craibiodendron yunnanense|Croton gratissimus|Cyanostegia angustifolia|Cystoseira mediterranea|Dactylorhiza viridis|Dalbergia congestiflora|Dalbergia parviflora|Desmodium canadense|Diplopterygium glaucum|Embelia ribes|Eucalyptus resinifera|Euchresta formosana|Euphrasia genargentea|Eurycoma harmandiana|Ficus nymphaeifolia|Halobacillus litoralis|Ixeris debilis|Khaya grandifoliola|Lobophytum durum|Lysimachia fordiana|Mabea fistulifera|Marasmiellus troyanus|Maytenus chuchuhuasha|Napoleonaea vogelii|Orthosiphon spicatus|Oxytropis falcata|Propolis|Pterolobium hexapetalum|Pycnanthus angolensis|Ranunculus asiaticus|Remirea maritima|Schizophyllum lobatum|Schleichera trijuga|Schultesia guianensis|Sinapis alba|Solanum lanceolatum|Streptomyces matensis|Tephrosia elata|Triclisia subcordata|Trididemnum cyanophorum|Viburnum erubescens|Virola caducifolia|Virola surinamensis|Wikstroemia viridiflora|Xanthorhiza simplicissima

>  <collections>  (309) 
CMAUP (cCollective molecular activities of useful plants)|ChEBI NPs|ConMedNP|Latin America dataset|NPASS|NPEdia|NuBBEDB|Super Natural II|TCMID (Traditional Chinese Medicine Integrated Database)|UNPD (Universal Natural Products Database)|WikiData Natural Products|ZINC NP

>  <dois>  (309) 
10.1002/JCCS.200200066|10.1002/ptr.3498|10.1016/J.BMC.2007.10.004|10.1016/J.BMC.2008.04.016|10.1016/J.FITOTE.2011.07.015|10.1016/J.JEP.2008.06.025|10.1016/S0031-9422(00)84396-4|10.1016/S0031-9422(00)88981-5|10.1016/j.bmc.2007.10.004|10.1016/j.bmc.2008.04.016|10.1021/NP100339U|10.1055/S-2006-957548

>  <synonyms>  (309) 
2''-HYDROXYBIOCHANIN A|2',5,7-trihydroxy-4'-methoxyisoflavone|2'-Hydroxybiochanin A|2a(2)-Hydroxybiochanin A|32884-35-8|5,7,2'-Trihydroxy-4'-methoxyisoflavone|5,7-dihydroxy-3-(2-hydroxy-4-methoxyphenyl)-4H-1-benzopyran-4-one|5,7-dihydroxy-3-(2-hydroxy-4-methoxyphenyl)chromen-4-one|CHEBI:31064|CHEMBL403228|DTXSID901314873|Dehydroferreirin|LMPK12050328|Q27114114

>  <cas>  (309) 
32884-35-8

$$$$

     RDKit          2D

 17 19  0  0  0  0  0  0  0  0999 V2000
   -3.3975   -2.4270    0.0000 C   0  0  0  0  0  0  0  0  0  0  0  0
   -1.8981   -2.3844    0.0000 O   0  0  0  0  0  0  0  0  0  0  0  0
   -1.1853   -1.0646    0.0000 C   0  0  0  0  0  0  0  0  0  0  0  0
   -1.9718    0.2126    0.0000 C   0  0  0  0  0  0  0  0  0  0  0  0
   -3.4473    0.4827    0.0000 C   0  0  0  0  0  0  0  0  0  0  0  0
   -3.6464    1.9694    0.0000 C   0  0  0  0  0  0  0  0  0  0  0  0
   -2.2939    2.6182    0.0000 O   0  0  0  0  0  0  0  0  0  0  0  0
   -1.2590    1.5324    0.0000 C   0  0  0  0  0  0  0  0  0  0  0  0
    0.2404    1.5750    0.0000 N   0  0  0  0  0  0  0  0  0  0  0  0
    1.0270    0.2977    0.0000 C   0  0  0  0  0  0  0  0  0  0  0  0
    2.5264    0.3403    0.0000 C   0  0  0  0  0  0  0  0  0  0  0  0
    3.2392    1.6601    0.0000 O   0  0  0  0  0  0  0  0  0  0  0  0
    4.7386    1.7027    0.0000 C   0  0  0  0  0  0  0  0  0  0  0  0
    3.3129   -0.9369    0.0000 C   0  0  0  0  0  0  0  0  0  0  0  0
    2.6001   -2.2567    0.0000 C   0  0  0  0  0  0  0  0  0  0  0  0
    1.1007   -2.2993    0.0000 C   0  0  0  0  0  0  0  0  0  0  0  0
    0.3141   -1.0221    0.0000 C   0  0  0  0  0  0  0  0  0  0  0  0
  1  2  1  0
  2  3  1  0
  3  4  2  0
  4  5  1  0
  5  6  2  0
  6  7  1  0
  7  8  1  0
  8  9  2  0
  9 10  1  0
 10 11  2  0
 11 12  1  0
 12 13  1  0
 11 14  1  0
 14 15  2  0
 15 16  1  0
 16 17  2  0
 17  3  1  0
  8  4  1  0
 17 10  1  0
M  END
>  <identifier>  (310) 
CNP0106892.0

>  <canonical_smiles>  (310) 
COC1=C2C=COC2=NC2=C(OC)C=CC=C12

>  <standard_inchi>  (310) 
InChI=1S/C13H11NO3/c1-15-10-5-3-4-8-11(10)14-13-9(6-7-17-13)12(8)16-2/h3-7H,1-2H3

>  <standard_inchi_key>  (310) 
KFBCTNNQFGONHB-UHFFFAOYSA-N

>  <name>  (310) 
gamma-Fagarine

>  <iupac_name>  (310) 
4,8-dimethoxyfuro[2,3-b]quinoline

>  <annotation_level>  (310) 
5

>  <total_atom_count>  (310) 
28

>  <heavy_atom_count>  (310) 
17

>  <molecular_weight>  (310) 
229.23

>  <exact_molecular_weight>  (310) 
229.07389

>  <molecular_formula>  (310) 
C13H11NO3

>  <alogp>  (310) 
3.00

>  <topological_polar_surface_area>  (310) 
44.49

>  <rotatable_bond_count>  (310) 
2

>  <hydrogen_bond_acceptors>  (310) 
4

>  <hydrogen_bond_donors>  (310) 
0

>  <hydrogen_bond_acceptors_lipinski>  (310) 
4

>  <hydrogen_bond_donors_lipinski>  (310) 
0

>  <lipinski_rule_of_five_violations>  (310) 
0

>  <aromatic_rings_count>  (310) 
3

>  <qed_drug_likeliness>  (310) 
0.68

>  <formal_charge>  (310) 
0

>  <fractioncsp3>  (310) 
0.15

>  <number_of_minimal_rings>  (310) 
3

>  <van_der_walls_volume>  (310) 
198.65

>  <contains_sugar>  (310) 
False

>  <contains_ring_sugars>  (310) 
False

>  <contains_linear_sugars>  (310) 
False

>  <murcko_framework>  (310) 
n1c2occc2cc3ccccc13

>  <np_likeness>  (310) 
0.73

>  <chemical_class>  (310) 
Quinolines and derivatives

>  <chemical_sub_class>  (310) 
Furanoquinolines

>  <chemical_super_class>  (310) 
Organoheterocyclic compounds

>  <direct_parent_classification>  (310) 
Furanoquinolines

>  <np_classifier_pathway>  (310) 
Alkaloids

>  <np_classifier_superclass>  (310) 
Tryptophan alkaloids

>  <np_classifier_class>  (310) 
Quinoline alkaloids

>  <np_classifier_is_glycoside>  (310) 
False

>  <organisms>  (310) 
Acronychia laurifolia|Acronychia pedunculata|Aegle Marmelos|Aegle marmelos|Aeollanthus buchnerianus|Agave deserti|Ageratina saltillensis|Aglaia pyramidata|Alchornea cordifolia|Alexandrium excavatum|Alpinia officinarum|Amomum daniellii|Amomum reticulatum|Amyris texana|Anoectochilus koshunensis|Aplophyllum villosum|Archaster typicus|Asclepias subulata|Ascodesmis sphaerospora|Asterolasia drummondii|Atalantia wightii|Balanophora japonica|Beaucarnea recurvata|Boronia bowmanii|Bulbine asphodeloides|Calcarisporium thermophilum|Caralluma russeliana|Casimiroa edulis|Celastrus monospermus|Centaurea arenaria|Cetorhinus maximus|Chloroxylon swietenia|Cicer cuneatum|Clausena anisata|Clausena vestita|Clitocybe subilludens|Conium maculatum|Corydalis persica|Corynanthe pachyceras|Cota tinctoria|Cotylelobium scabriusculum|Courbonia virgata|Cratystylis conocephala|Croton hutchinsonianus|Cynoglossum amabile|Cynoglossum viridiflorum|Dalbergia monetaria|Daldinia vernicosa|Delphinium speciosum|Dictamnus albus|Dictamnus albus L.|Dictamnus angustifolius|Dictamnus caucasicus|Dictamnus dasycarpus|Diospyros abyssinica|Diospyros elliptifolia|Diospyros peregrina|Drummondita calida|Drummondita hassellii|Dysidea villosa|Echium plantagineum|Ertela trifolia|Ertela trifolia L. Kuntze|Esenbeckia febrifuga|Esenbeckia grandiflora|Esenbeckia hartmanii|Espeletiopsis purpurascens|Eudendrium racemosum|Euodia|Euonymus europaeus|Eutrochium purpureum|Evea brasiliensis|Fagara coco|Ficus conraui|Flindersia spp.|Geijera balansae|Geijera salicifolia|Gloydius blomhoffii|Glycosmis arborea|Glycosmis citrifolia|Glycosmis cochinchinensis|Glycosmis parviflora|Glycosmis pentaphylla|Glycosmis pseudoracemosa|Glycosmis trichanthera|Gracilaria eucheumoides|Grewia villosa|Griselinia scandens|Grosvenoria rimbachii|Gutenbergia cordifolia|Gutenbergia marginata|Haplophyllum|Haplophyllum bucharicum|Haplophyllum buxbaumii|Haplophyllum dauricum|Haplophyllum griffithianum|Haplophyllum myrtifolium|Haplophyllum obtusifolium|Haplophyllum spp.|Haplophyllum suaveolens|Haplophyllum thesioides|Haplophyllum tuberculatum|Haplophyllum tuberculatum (Forssk.) Al Juss.|Haplophyllum vulcanicum|Helianthus californicus|Helianthus niveus|Helicia erratica|Helietta apiculata|Herbertus juniperoideus subsp. acanthelius|Hernandia sonora|Hortia brasiliana|Hortonia floribunda|Hosta sieboldiana|Hygrophorus eburneus|Hyptis urticoides|Imperata cylindrica|Inula grantioides|Inula salsoloides|Ipomoea carnea|Iris sanguinea|Jacobaea cannabifolia|Juniperus horizontalis|Lactarius fuliginosus|Lactarius subpiperatus|Lathyrus tingitanus|Leionema nudum|Leptospermum recurvum|Medicago hybrida|Melipotis perpendicularis|Mikania scandens|Monachosorum maximowiczii|Morinda coreia|Murraya paniculata|Myrtopsis myrtoidea|Myrtopsis novae-caledoniae|Myrtopsis sellingii|Nardia scalaris|Notechis scutatus|Octopus octopodia|Orixa japonica|Otholobium pubescens|Parmelia damaziana|Parmelia zollingeri|Passiflora morifolia|Peltostigma guatemalense|Persicaria tinctoria|Petrosia volcano|Peucedanum oroselinum|Phaeotremella fagi|Phellodendron Amurense|Phellodendron amurense|Phellodendron chinense|Phellodendron chinese|Philotheca coccinea|Phyllodium pulchellum|Pitavia punctata|Plakortis simplex|Plectosphaerella cucumerina|Plectranthus caninus|Plectranthus hereroensis|Poa sphondylodes|Podocalyx loranthoides|Polypodium aureum|Populus candicans|Pseudomonas cichorii|Pterocladiella capillacea|Pycnarrhena australiana|Rauvolfia salicifolia|Ravenia spectabilis|Rhizoplaca baranowii|Rhododendron edgeworthii|Ruditapes philippinarum|Ruta Graveolens|Ruta chalepensis|Ruta graveolens|Ruta graveolens L.|Ruta macrophylla|Rutaceae|Saccharina latissima|Salmonella enterica subsp. enterica serovar bovismorbificans|Salta triflora|Salvia polystachya|Sarcophyton infundibuliforme|Saussurea stella|Schrebera swietenoides|Scorzonera hispanica|Senecio gilliesi|Sickingia rubra|Skimmia reevesiana|Solanum spirale|Sophora leachiana|Spatoglossum pacificum|Spiraea prunifolia|Spiranthera odoratissima|Spiranthera odoratissima St. odoratissima|Stereocaulon salazinum|Streptomyces chryseus|Streptomyces venezuelae|Strychnos spinosa|Talipariti tiliaceum|Tephrosia bidwilli|Tetradium glabrifolium|Thamnosma montana|Thielavia terricola|Ticorea longiflora|Toddalia Asiatica|Toddalia asiatica|Trapa japonica|Trifolium montanum|Trixis grisebachii|Uresiphita reversalis|Ursinia anthemoides|Vernonia chloropappa|Vernonia lilacina|Vicia balansae|White sapote|Xanthoria parietina|Yucca elata|Zanthoxylum Planispinum|Zanthoxylum ailanthoides|Zanthoxylum asiaticum|Zanthoxylum avicennae|Zanthoxylum coco|Zanthoxylum dimorphophyllum|Zanthoxylum dinklagei|Zanthoxylum integrifoliolum|Zanthoxylum mayu|Zanthoxylum nitidum|Zanthoxylum piperitum|Zanthoxylum planispinum|Zanthoxylum rubescens|Zanthoxylum schinifolium|Zanthoxylum simulans|Zanthoxylum spp.|Zanthoxylum tsihanimposa|Zanthoxylum wutaiense|Zanthoxylum zanthoxyloides

>  <collections>  (310) 
ANPDB|Australian natural products|CMAUP (cCollective molecular activities of useful plants)|ChEBI NPs|ConMedNP|KNApSaCK|Latin America dataset|NANPDB (Natural Products from Northern African Sources)|NPASS|NPCARE|NPEdia|NuBBEDB|Phyto4Health|PubChem NPs|Specs Natural Products|Super Natural II|TCMDB-Taiwan (Traditional Chinese Medicine database)|TCMID (Traditional Chinese Medicine Integrated Database)|TIPdb (database of Taiwan indigenous plants)|TPPT (Toxic Plants–PhytoToxins)|UEFS (Natural Products Databse of the UEFS)|UNPD (Universal Natural Products Database)|VietHerb|WikiData Natural Products

>  <dois>  (310) 
10.1002/9780470744307.gat218|10.1002/CBDV.200800107|10.1002/JCCS.200300178|10.1002/JCCS.200400099|10.1002/JCCS.200700112|10.1002/biuz.19840140514|10.1002/food.19880321030|10.1007/BF00037792|10.1007/BF00055511|10.1007/BF00565245|10.1007/BF00574586|10.1007/BF00574794|10.1007/BF00596740|10.1007/BF00598351|10.1007/BF02238348|10.1007/S10600-010-9661-Y|10.1016/0031-9422(75)83142-6|10.1016/0031-9422(79)80218-6|10.1016/0031-9422(79)83044-7|10.1016/0031-9422(81)85120-5|10.1016/0031-9422(81)85291-0|10.1016/0031-9422(90)89042-8|10.1016/0031-9422(91)83459-X|10.1016/0031-9422(91)85122-G|10.1016/0031-9422(92)80274-I|10.1016/0031-9422(94)85072-0|10.1016/0031-9422(95)00171-3|10.1016/0031-9422(95)00248-6|10.1016/0031-9422(95)00856-X|10.1016/0031-9422(96)00062-3|10.1016/0040-4020(58)88046-1|10.1016/0165-7992(85)90054-5|10.1016/0165-7992(90)90123-2|10.1016/0305-1978(87)90110-4|10.1016/J.BMC.2005.07.050|10.1016/J.EJMECH.2011.10.047|10.1016/J.FITOTE.2003.08.004|10.1016/J.FITOTE.2004.03.008|10.1016/J.FOODCHEM.2010.09.069|10.1016/J.JEP.2005.11.001|10.1016/J.PHYMED.2008.02.001|10.1016/J.PHYTOCHEM.2007.08.009|10.1016/S0031-9422(00)81200-5|10.1016/S0031-9422(00)83563-3|10.1016/S0031-9422(00)84549-5|10.1016/S0031-9422(00)84814-1|10.1016/S0031-9422(00)85006-2|10.1016/S0031-9422(00)86717-5|10.1016/S0031-9422(00)88581-7|10.1016/S0031-9422(00)97045-6|10.1016/S0031-9422(00)97383-7|10.1016/S0031-9422(01)00041-3|10.1016/S0031-9422(02)00268-6|10.1016/S0031-9422(96)00877-1|10.1016/S0031-9422(97)00280-X|10.1016/S0031-9422(97)00678-X|10.1016/S0031-9422(97)00986-2|10.1016/S0031-9422(97)01130-8|10.1016/S0031-9422(98)00519-6|10.1016/S0031-9422(99)00039-4|10.1016/S0040-4020(01)99086-6|10.1016/S0305-1978(03)00039-5|10.1016/S0367-326X(03)00147-3|10.1016/j.ejmech.2011.10.047|10.1016/j.jep.2015.05.053|10.1021/JA01262A030|10.1021/JA01504A040|10.1021/JF9802373|10.1021/NP0400611|10.1021/NP0401462|10.1021/NP070186G|10.1021/NP070594K|10.1021/NP50032A026|10.1021/NP50041A009|10.1021/NP50052A032|10.1021/NP50054A029|10.1021/NP50104A024|10.1021/NP50107A020|10.1021/NP50111A003|10.1021/NP700719E|10.1021/NP800689B|10.1021/np0400611|10.1021/np070186g|10.1021/np070594k|10.1021/np700719e|10.1055/S-0028-1084416|10.1055/S-0028-1097674|10.1055/S-0028-1099965|10.1055/S-0029-1234991|10.1055/S-0030-1270963|10.1055/S-2000-8648|10.1055/S-2002-32898|10.1055/S-2005-864144|10.1055/S-2007-969634|10.1055/S-2007-969890|10.1055/S-2007-971491|10.1055/s-2007-971491|10.1071/CH9661991|10.1071/ch9661991|10.1080/14786410802228439|10.1093/MUTAGE/4.6.467|10.1248/CPB.22.2650|10.1248/CPB.34.1826|10.1248/CPB.43.2014|10.1248/YAKUSHI1947.93.5_624|10.1515/ZNC-2001-7-802|10.1590/S0103-50532010000500016|10.2307/4117899|10.2903/j.efsa.2012.2663|10.3109/13880208709088132|10.3390/MOLECULES190812031

>  <synonyms>  (310) 
.gamma.-Fagarine|4,8-DIMETHOXYFURO(2,3-B)QUINOLINE|4,8-Dimethoxy-Furo(2,3-b)quinoline|4,8-Dimethoxyfuro[2,3-b]quinoline; 8-Methoxydictamnine; Fagarine|4,8-dimethoxyfuro[2,3-b]quinoline|4-27-00-02211 (Beilstein Handbook Reference)|524-15-2|8-Methoxydictamine|AKOS000620722|BRN 0212820|CBDivE_012859|CCRIS 1584|CHEBI:10562|CHEMBL252925|CS-0024453|Cambridge id 5255764|D85115|DTXSID20200409|FAGARINE [MI]|FAGARINE, GAMMA-|FS-9968|Fagarine|Furo(2,3-b)quinoline, 4,8-dimethoxy-|GKS8Q870TY|HMS2495P10|HMS3561D11|HY-N3918|KFBCTNNQFGONHB-UHFFFAOYSA-N|MLS000532362|MLS001048993|NCGC00245737-01|NS00094652|Opera_ID_990|Oprea1_404574|Oprea1_872079|Q27108657|SCHEMBL679918|SMR000137321|SR-01000201268|ST077119|UNII-GKS8Q870TY|\u221a\u00e9\u00ac\u2265-Fagarine|g-fagarine|gamma-fargarine

>  <cas>  (310) 
524-15-2

$$$$

     RDKit          2D

 16 16  0  0  0  0  0  0  0  0999 V2000
   -6.9985    1.0109    0.0000 C   0  0  0  0  0  0  0  0  0  0  0  0
   -5.8644    0.0292    0.0000 C   0  0  0  0  0  0  0  0  0  0  0  0
   -4.4471    0.5206    0.0000 C   0  0  0  0  0  0  0  0  0  0  0  0
   -3.3130   -0.4611    0.0000 C   0  0  0  0  0  0  0  0  0  0  0  0
   -1.8957    0.0302    0.0000 O   0  0  0  0  0  0  0  0  0  0  0  0
   -0.7616   -0.9515    0.0000 C   0  0  0  0  0  0  0  0  0  0  0  0
   -1.0447   -2.4245    0.0000 O   0  0  0  0  0  0  0  0  0  0  0  0
    0.6556   -0.4601    0.0000 C   0  0  0  0  0  0  0  0  0  0  0  0
    0.9388    1.0129    0.0000 C   0  0  0  0  0  0  0  0  0  0  0  0
    2.3560    1.5042    0.0000 C   0  0  0  0  0  0  0  0  0  0  0  0
    2.6391    2.9773    0.0000 O   0  0  0  0  0  0  0  0  0  0  0  0
    3.4901    0.5226    0.0000 C   0  0  0  0  0  0  0  0  0  0  0  0
    4.9074    1.0139    0.0000 O   0  0  0  0  0  0  0  0  0  0  0  0
    3.2070   -0.9505    0.0000 C   0  0  0  0  0  0  0  0  0  0  0  0
    4.3412   -1.9322    0.0000 O   0  0  0  0  0  0  0  0  0  0  0  0
    1.7898   -1.4418    0.0000 C   0  0  0  0  0  0  0  0  0  0  0  0
  1  2  1  0
  2  3  1  0
  3  4  1  0
  4  5  1  0
  5  6  1  0
  6  7  2  0
  6  8  1  0
  8  9  2  0
  9 10  1  0
 10 11  1  0
 10 12  2  0
 12 13  1  0
 12 14  1  0
 14 15  1  0
 14 16  2  0
 16  8  1  0
M  END
>  <identifier>  (311) 
CNP0168219.0

>  <canonical_smiles>  (311) 
CCCCOC(=O)C1=CC(O)=C(O)C(O)=C1

>  <standard_inchi>  (311) 
InChI=1S/C11H14O5/c1-2-3-4-16-11(15)7-5-8(12)10(14)9(13)6-7/h5-6,12-14H,2-4H2,1H3

>  <standard_inchi_key>  (311) 
XOPOEBVTQYAOSV-UHFFFAOYSA-N

>  <name>  (311) 
BUTYL GALLATE

>  <iupac_name>  (311) 
butyl 3,4,5-trihydroxybenzoate

>  <annotation_level>  (311) 
5

>  <total_atom_count>  (311) 
30

>  <heavy_atom_count>  (311) 
16

>  <molecular_weight>  (311) 
226.23

>  <exact_molecular_weight>  (311) 
226.08412

>  <molecular_formula>  (311) 
C11H14O5

>  <alogp>  (311) 
1.76

>  <topological_polar_surface_area>  (311) 
86.99

>  <rotatable_bond_count>  (311) 
4

>  <hydrogen_bond_acceptors>  (311) 
5

>  <hydrogen_bond_donors>  (311) 
3

>  <hydrogen_bond_acceptors_lipinski>  (311) 
5

>  <hydrogen_bond_donors_lipinski>  (311) 
3

>  <lipinski_rule_of_five_violations>  (311) 
0

>  <aromatic_rings_count>  (311) 
1

>  <qed_drug_likeliness>  (311) 
0.41

>  <formal_charge>  (311) 
0

>  <fractioncsp3>  (311) 
0.36

>  <number_of_minimal_rings>  (311) 
1

>  <van_der_walls_volume>  (311) 
205.10

>  <contains_sugar>  (311) 
False

>  <contains_ring_sugars>  (311) 
False

>  <contains_linear_sugars>  (311) 
False

>  <murcko_framework>  (311) 
c1ccccc1

>  <np_likeness>  (311) 
0.53

>  <chemical_class>  (311) 
Benzene and substituted derivatives

>  <chemical_sub_class>  (311) 
Benzoic acids and derivatives

>  <chemical_super_class>  (311) 
Benzenoids

>  <direct_parent_classification>  (311) 
p-Hydroxybenzoic acid alkyl esters

>  <np_classifier_pathway>  (311) 
Shikimates and Phenylpropanoids

>  <np_classifier_superclass>  (311) 
Phenolic acids (C6-C1)

>  <np_classifier_class>  (311) 
Shikimic acids and derivatives

>  <np_classifier_is_glycoside>  (311) 
False

>  <organisms>  (311) 
Alchornea glandulosa|Radix paeoniae rubra

>  <collections>  (311) 
ChemSpider NPs|Latin America dataset|NPASS|NuBBEDB|Super Natural II|TCMID (Traditional Chinese Medicine Integrated Database)|WikiData Natural Products|ZINC NP

>  <dois>  (311) 
10.1080/14786410903335232

>  <synonyms>  (311) 
1083-41-6|3,4,5-trihydroxybenzoic acid butyl ester|4-10-00-02004 (Beilstein Handbook Reference)|67HZ41U710|A801860|AKOS015914064|BDBM50280382|BRN 3032709|Benzoic acid, 3,4,5-trihydroxy-, butyl ester|Butyl 3,4,5-trihydroxybenzoate|Butylester kyseliny gallove|Butylester kyseliny gallove [Czech]|CBDivE_013159|CCG-305745|CHEMBL494005|D90725|DB-040824|DTXSID40148490|EINECS 214-107-7|G0186|Gallic Acid Butyl Ester|Gallic acid, butyl ester|Gallicacidn-butylester|HMS1577L19|MFCD00016432|NF0|NS00023498|NSC33956|Progallin butyl|Q27264133|SCHEMBL35913|UNII-67HZ41U710|butyl 3,4,5-tris(oxidanyl)benzoate|n-Butyl gallate

>  <cas>  (311) 
1083-41-6

$$$$

     RDKit          2D

 33 36  0  0  0  0  0  0  0  0999 V2000
    1.9234   -1.1111    0.0000 O   0  0  0  0  0  0  0  0  0  0  0  0
    0.4347   -1.2949    0.0000 C   0  0  0  0  0  0  0  0  0  0  0  0
   -0.4689   -0.0976    0.0000 C   0  0  0  0  0  0  0  0  0  0  0  0
    0.1163    1.2836    0.0000 O   0  0  0  0  0  0  0  0  0  0  0  0
    1.6050    1.4674    0.0000 C   0  0  0  0  0  0  0  0  0  0  0  0
    2.5085    0.2701    0.0000 O   0  0  0  0  0  0  0  0  0  0  0  0
    3.9972    0.4539    0.0000 C   0  0  0  0  0  0  0  0  0  0  0  0
    4.9008   -0.7434    0.0000 C   0  0  0  0  0  0  0  0  0  0  0  0
    6.3895   -0.5596    0.0000 O   0  0  0  0  0  0  0  0  0  0  0  0
    4.5824    1.8351    0.0000 C   0  0  0  0  0  0  0  0  0  0  0  0
    6.0711    2.0189    0.0000 O   0  0  0  0  0  0  0  0  0  0  0  0
    3.6788    3.0324    0.0000 C   0  0  0  0  0  0  0  0  0  0  0  0
    4.2640    4.4136    0.0000 O   0  0  0  0  0  0  0  0  0  0  0  0
    2.1901    2.8486    0.0000 C   0  0  0  0  0  0  0  0  0  0  0  0
    1.2866    4.0459    0.0000 O   0  0  0  0  0  0  0  0  0  0  0  0
   -1.9575   -0.2814    0.0000 C   0  0  0  0  0  0  0  0  0  0  0  0
   -2.8611    0.9159    0.0000 C   0  0  0  0  0  0  0  0  0  0  0  0
   -2.2759    2.2971    0.0000 C   0  0  0  0  0  0  0  0  0  0  0  0
   -3.1795    3.4944    0.0000 C   0  0  0  0  0  0  0  0  0  0  0  0
   -4.6682    3.3106    0.0000 C   0  0  0  0  0  0  0  0  0  0  0  0
   -5.5717    4.5079    0.0000 O   0  0  0  0  0  0  0  0  0  0  0  0
   -5.2533    1.9294    0.0000 C   0  0  0  0  0  0  0  0  0  0  0  0
   -6.7420    1.7456    0.0000 O   0  0  0  0  0  0  0  0  0  0  0  0
   -4.3498    0.7321    0.0000 C   0  0  0  0  0  0  0  0  0  0  0  0
   -2.5427   -1.6626    0.0000 O   0  0  0  0  0  0  0  0  0  0  0  0
   -1.6391   -2.8599    0.0000 C   0  0  0  0  0  0  0  0  0  0  0  0
   -2.2243   -4.2410    0.0000 C   0  0  0  0  0  0  0  0  0  0  0  0
   -1.3207   -5.4384    0.0000 C   0  0  0  0  0  0  0  0  0  0  0  0
   -1.9059   -6.8195    0.0000 O   0  0  0  0  0  0  0  0  0  0  0  0
    0.1680   -5.2545    0.0000 C   0  0  0  0  0  0  0  0  0  0  0  0
    0.7531   -3.8734    0.0000 C   0  0  0  0  0  0  0  0  0  0  0  0
    2.2418   -3.6895    0.0000 O   0  0  0  0  0  0  0  0  0  0  0  0
   -0.1504   -2.6761    0.0000 C   0  0  0  0  0  0  0  0  0  0  0  0
  1  2  2  0
  2  3  1  0
  3  4  1  0
  5  4  1  1
  5  6  1  0
  6  7  1  0
  7  8  1  1
  8  9  1  0
  7 10  1  0
 10 11  1  6
 10 12  1  0
 12 13  1  6
 12 14  1  0
 14 15  1  6
  3 16  2  0
 16 17  1  0
 17 18  2  0
 18 19  1  0
 19 20  2  0
 20 21  1  0
 20 22  1  0
 22 23  1  0
 22 24  2  0
 16 25  1  0
 25 26  1  0
 26 27  2  0
 27 28  1  0
 28 29  1  0
 28 30  2  0
 30 31  1  0
 31 32  1  0
 31 33  2  0
 33  2  1  0
 14  5  1  0
 24 17  1  0
 33 26  1  0
M  END
>  <identifier>  (312) 
CNP0180599.4

>  <canonical_smiles>  (312) 
O=C1C(O[C@@H]2O[C@H](CO)[C@@H](O)[C@@H](O)[C@H]2O)=C(C2=CC=C(O)C(O)=C2)OC2=CC(O)=CC(O)=C12

>  <standard_inchi>  (312) 
InChI=1S/C21H20O12/c22-6-13-15(27)17(29)18(30)21(32-13)33-20-16(28)14-11(26)4-8(23)5-12(14)31-19(20)7-1-2-9(24)10(25)3-7/h1-5,13,15,17-18,21-27,29-30H,6H2/t13-,15-,17-,18-,21+/m1/s1

>  <standard_inchi_key>  (312) 
OVSQVDMCBVZWGM-IDRAQACASA-N

>  <name>  (312) 
Quercetin 3-alloside

>  <iupac_name>  (312) 
2-(3,4-dihydroxyphenyl)-5,7-dihydroxy-3-[(2~{S},3~{R},4~{R},5~{S},6~{R})-3,4,5-trihydroxy-6-(hydroxymethyl)tetrahydropyran-2-yl]oxy-chromen-4-one

>  <annotation_level>  (312) 
5

>  <total_atom_count>  (312) 
53

>  <heavy_atom_count>  (312) 
33

>  <molecular_weight>  (312) 
464.38

>  <exact_molecular_weight>  (312) 
464.09548

>  <molecular_formula>  (312) 
C21H20O12

>  <alogp>  (312) 
-0.54

>  <topological_polar_surface_area>  (312) 
210.51

>  <rotatable_bond_count>  (312) 
4

>  <hydrogen_bond_acceptors>  (312) 
12

>  <hydrogen_bond_donors>  (312) 
8

>  <hydrogen_bond_acceptors_lipinski>  (312) 
12

>  <hydrogen_bond_donors_lipinski>  (312) 
8

>  <lipinski_rule_of_five_violations>  (312) 
2

>  <aromatic_rings_count>  (312) 
3

>  <qed_drug_likeliness>  (312) 
0.23

>  <formal_charge>  (312) 
0

>  <fractioncsp3>  (312) 
0.29

>  <number_of_minimal_rings>  (312) 
4

>  <van_der_walls_volume>  (312) 
368.38

>  <contains_sugar>  (312) 
True

>  <contains_ring_sugars>  (312) 
True

>  <contains_linear_sugars>  (312) 
False

>  <murcko_framework>  (312) 
O1c2ccccc2CC(OC3OCCCC3)=C1c4ccccc4

>  <np_likeness>  (312) 
2.16

>  <chemical_class>  (312) 
Flavonoids

>  <chemical_sub_class>  (312) 
Flavonoid glycosides

>  <chemical_super_class>  (312) 
Phenylpropanoids and polyketides

>  <direct_parent_classification>  (312) 
Flavonoid-3-O-glycosides

>  <np_classifier_pathway>  (312) 
Shikimates and Phenylpropanoids

>  <np_classifier_superclass>  (312) 
Flavonoids

>  <np_classifier_class>  (312) 
Flavonols

>  <np_classifier_is_glycoside>  (312) 
True

>  <organisms>  (312) 
Abelmoschus manihot|Abies amabilis|Acacia caven|Acanthus ilicifolius|Aganosma caryophyllata|Ailanthus giraldii|Ajuga integrifolia|Ajuga remota|Alkanna orientalis|Alkekengi officinarum var. franchetii|Allium cepa|Anacardium humile|Angelica furcijuga KITAGAWA|Annona crassiflora|Annona dolabripetala|Annona monticola|Annona muricata|Annona tomentosa|Annona warmingiana|Anthemis altissima|Apocynum lancifolium|Apocynum venetum|Arabidopsis thaliana|Ardisia colorata|Arnica montana|Arnica montana cv.ARBO|Artemisia annua|Artemisia spp.|Ascarina lucida|Aspergillus clavatus|Baptisia spp.|Bauhinia vahlii L.|Bocagea sp.nov.|Bupleurum chinense|Bupleurum rotundifolia|Bupleurum rotundifolium|Bupleurum rotundifolium L.|Calendula officinalis|Camellia sinensis|Campanula glomerata|Campanula glomerata L.|Camptotheca acuminata|Capsella bursa-pastoris|Capsicum annuum|Carum carvi|Carya illinoinensis|Carya pecan|Castanea sativa|Casuarina equisetifolia|Centaurea gigantea|Centaurea solstitialis|Cephalaria paphlagonica|Chaerophyllum hirsutum|Chamaenerion angustifolium|Cistus creticus|Clibadium spp.|Clitoria ternatea|Coleogyne ramosissima|Coleogyne ramosissima Torr.|Commelina communis|Commelina communis L|Convallaria keiskei|Conyza filaginoides|Costus spicatus|Cota altissima|Crataegus pinnatifida var major|Croton celtidifolius|Cryptocarya mandioccana|Cryptocarya moschata|Cucumis sativus|Curcuma mangga|Cymbopogon citratus|Cytisus scoparius|Darmera peltata|Davidsonia pruriens|Descurainia Sophia|Descurainia sophia|Desmanthodium spp.|Dicranopteris linearis|Dictamnus angustifolius|Diospyros kaki|Diospyros rhombifolia|Dosidicus gigas|Dryopteris polylepis|Eledone moschata|Elsholtzia rugulosa Hemsl.|Equisetum arvense|Equisetum hiemale|Equisetum sylvaticum|Eriobotrya japonica|Etlingera elatior|Eucalyptus maideni|Eucalyptus maidenii|Eucommia ulmoides|Eucommia ulmoides Oliv.|Euphorbia chamaesyce|Euphorbia larica|Euphorbia magalanta|Euphorbia virgata|Ficus ruficaulis|Foeniculum vulgare|Forsythia viridissima|Gaillardia aristata|Gaillardia aristata Pursh.|Gemmingia chinensis|Gentiana pyrenaica L.|Ginkgo biloba|Glaucidium palmatum|Gleditsia japonica|Gleditsia japonica Miquel.|Gleditsia sinensis|Gleditsia sinensis Lam.|Glehnia littoralis|Glycyrrhiza glabra L.|Glycyrrhiza uralensis|Gossypium barbadense|Gossypium herbaceum|Gossypium hirsutum L.|Guatteria australis|Guatteria notabilis|Guatteria rupestris|Guatteria villosissima|Gutierrezia wrightii|Haplopappus foliosus|Hebe parviflora|Hedysarum sericeum|Heterogaura heterandra|Hibiscus cannabinus|Hibiscus mutabilis|Houttuynia cordata|Hypericum ascyron|Hypericum japonicum|Hypericum perforatum|Hypericum perforatum L.|Hypericum sampsonii|Hypericum thasium|Indigofera tetrantha|Inula britannica|Isodon leucophyllus|Kalanchoe blossfeldiana|Lactuca indica|Laennecia filaginoides|Larix decidua|Leptarrhena pyrolifolia|Lespedeza bicolor|Levisticum officinale|Lonchocarpus castilloi|Lotus japonicus|Lysimachia christinae|Lysimachia nummularia|Mallotus villosus|Manica rubida|Marah oregana|Marah oreganus|Marrubium velutinum|Melicope micrococca|Millettia zechiana|Momordica charantia|Monochaetum multiflorum|Monochaetun multiflorum|Morus alba|Morus insignis|Nassarius reticulatus|Nelumbo nucifera|Nicotiana tabacum|Nymphaea alba|Nymphaea caerulea|Ochna obtusata|Ocimum basilicum|Onobrychis amoena|Onobrychis chlorassanica|Onobrychis echidna|Onobrychis ferganica|Onobrychis grandis|Onobrychis seravschanica|Onopordum acanthium|Oryza sativa|Pedilanthus tithymaloides|Pelargonium reniforme|Peltiphyllum peltatum|Peltophorum africanum|Penicillium kewense|Perenniporia subacida|Phaseolus vulgaris|Phellodendron amurense|Phlomis spinidens|Phoenix hanceana var. formosana|Phoenix loureiroi var. loureiroi|Phyfnnvik eyyfn|Phyllanthus emblica|Phyllanthus niruri|Phyllopsora haemophaea|Physalis alkekengi var. franchetii|Picea rubens|Piper umbellatum|Pisum sativum|Pitcairnia rubiflora|Podocarpus fasciculus|Polygonum cuspidatum|Polygonum persicaria|Polygonum polystachyum|Porcelia macrocarpa|Prunus avium|Prunus cerasus|Psidium guaijava|Psidium guajava|Pteridium aquilinum|Pyrola decorata|Pyrola elliptica|Pyrola spp.|Pyrrosia lingua|Rodgersia podophylla|Rollinia dolabripetala|Rosa rugosa|Salix viminalis|Salvia blepharophylla|Salvia cavaleriei|Salvia lavandulifolia|Salvia pinnata|Sapium haematospermum|Saururus chinensis|Saussurea medusa|Sedum acre|Senecio integrifolius|Silphium perfoliatum|Silphium perfoliatum L.|Sinocrassula indica|Solanum tuberosum L.|Solidago altissima|Sophora japonica|Sorbus commixta|Spiraea formosana|Streptomyces diastatochromogenes|Strychnos spinosa|Styphnolobium japonicum|Tachigali paniculata|Tachigalia paniculata|Takakia spp.|Taxillus levinei|Thelypteris formosa|Thelypteris nipponica|Theobroma cacao L.|Tribulus alatus Del.|Trifolium pratense|Trifolium subterraneum|Tripterygium regelii|Tripterygium wilfordii|Vicia sativa|Vitis vinifera var.'Trebbiano'.|Warburgia stuhlmannii|Xylopia aromatica|Zinnia elegans|[candida] zeylanoides|liquorice|pomegranate|soybean|tomato

>  <collections>  (312) 
CMAUP (cCollective molecular activities of useful plants)|ChemSpider NPs|KNApSaCK|Latin America dataset|NPASS|NuBBEDB|Super Natural II|TIPdb (database of Taiwan indigenous plants)|WikiData Natural Products|ZINC NP

>  <dois>  (312) 
10.1002/CBER.19691020319|10.1002/JLAC.19666920122|10.1002/JMS.3423|10.1002/pca.818|10.1007/BF00576107|10.1007/S11130-011-0212-X|10.1007/S11418-008-0244-1|10.1016/0003-9861(65)90017-2|10.1016/0031-9422(75)85190-9|10.1016/0031-9422(90)85291-M|10.1016/0031-9422(95)00137-V|10.1016/J.BSE.2016.02.030|10.1016/J.FITOTE.2019.104190|10.1016/J.FOODCHEM.2007.08.038|10.1016/J.FOODCHEM.2014.10.145|10.1016/J.FOODCHEM.2019.125629|10.1016/J.FOODRES.2014.04.036|10.1016/J.FOODRES.2017.03.019|10.1016/J.JEP.2008.06.025|10.1016/J.PHYTOCHEM.2004.06.009|10.1016/J.PHYTOCHEM.2005.10.017|10.1016/J.PHYTOCHEM.2005.11.018|10.1016/J.PHYTOCHEM.2006.01.005|10.1016/J.PHYTOCHEM.2006.06.030|10.1016/J.PHYTOCHEM.2006.11.026|10.1016/J.PHYTOCHEM.2007.06.017|10.1016/J.PHYTOCHEM.2008.02.018|10.1016/J.PHYTOCHEM.2008.10.006|10.1016/J.PHYTOCHEM.2009.06.006|10.1016/S0031-9422(00)00192-8|10.1016/S0031-9422(00)00227-2|10.1016/S0031-9422(00)00397-6|10.1016/S0031-9422(00)88884-6|10.1016/S0031-9422(01)00247-3|10.1016/S0031-9422(01)00320-X|10.1016/S0031-9422(01)00403-4|10.1016/S0031-9422(01)00415-0|10.1016/S0031-9422(02)00133-4|10.1016/S0031-9422(02)00486-7|10.1016/S0031-9422(03)00242-5|10.1016/S0031-9422(03)00374-1|10.1016/S0031-9422(97)00623-7|10.1016/S0031-9422(97)00878-9|10.1016/S0031-9422(98)00106-X|10.1016/S0031-9422(98)00673-6|10.1016/S0031-9422(99)00441-0|10.1021/JF030717G|10.1021/JF048152R|10.1021/JF980936F|10.1021/JF991002+|10.1021/NP000061A|10.1021/NP000442O|10.1021/NP010035S|10.1021/NP010081S|10.1021/NP0105578|10.1021/NP0200764|10.1021/NP020472M|10.1021/NP0205349|10.1021/NP0303411|10.1021/NP058062W|10.1021/NP068016B|10.1021/NP0780046|10.1021/NP50021A021|10.1021/NP50022A009|10.1021/NP50022A016|10.1021/NP50044A034|10.1021/NP50046A053|10.1021/NP700713R|10.1021/NP900290S|10.1021/NP960037Q|10.1021/NP9604590|10.1039/C6RA16251G|10.1039/J39690000830|10.1055/S-0028-1097578|10.1055/S-2006-957713|10.1055/S-2007-969635|10.1080/00021369.1982.10865315|10.1080/10286020.2019.1642330|10.1104/PP.106.078428|10.1111/JIPB.12204|10.1139/B75-026|10.1248/CPB.25.3408|10.1248/CPB.41.1238|10.1248/CPB.48.687|10.1248/CPB.49.1039|10.1248/CPB.50.1484|10.1248/CPB.50.841|10.1248/CPB.51.1338|10.1248/CPB.52.1483|10.1248/CPB.52.866|10.1248/CPB.53.1416|10.1248/CPB.54.1308|10.1248/CPB.54.234|10.1248/CPB.55.1308|10.1248/CPB.55.815|10.1248/CPB.56.585|10.1248/CPB.57.532|10.1271/BBB1961.46.1705|10.1365/S10337-009-1338-Y|10.1515/ZNB-1964-0916|10.1515/ZNC-1977-5-623|10.1590/S0102-695X2011005000107|10.3390/IJMS160715625|10.3390/MOLECULES15107153|10.3390/MOLECULES22101606|10.3390/MOLECULES23020469|10.3390/MOLECULES24020302|10.4236/FNS.2012.33050|10.5586/ASBP.1991.010

>  <synonyms>  (312) 
Hirsutrin|LMPK12112170|Quercetin 3-alloside|Quercetin-3-O-allopyranoside

>  <cas>  (312) 
nan

$$$$

     RDKit          2D

 25 26  0  0  0  0  0  0  0  0999 V2000
   -8.1827   -0.4269    0.0000 C   0  0  0  0  0  0  0  0  0  0  0  0
   -6.7437   -0.0035    0.0000 C   0  0  0  0  0  0  0  0  0  0  0  0
   -6.3909    1.4544    0.0000 C   0  0  0  0  0  0  0  0  0  0  0  0
   -5.6576   -1.0381    0.0000 C   0  0  0  0  0  0  0  0  0  0  0  0
   -4.2185   -0.6147    0.0000 C   0  0  0  0  0  0  0  0  0  0  0  0
   -3.1324   -1.6492    0.0000 C   0  0  0  0  0  0  0  0  0  0  0  0
   -1.6934   -1.2258    0.0000 C   0  0  0  0  0  0  0  0  0  0  0  0
   -1.5263   -2.7165    0.0000 C   0  0  0  0  0  0  0  0  0  0  0  0
   -2.3602    0.1178    0.0000 C   0  0  0  0  0  0  0  0  0  0  0  0
   -1.5300    1.3671    0.0000 C   0  0  0  0  0  0  0  0  0  0  0  0
   -0.0330    1.2728    0.0000 C   0  0  0  0  0  0  0  0  0  0  0  0
    0.7972    2.5221    0.0000 C   0  0  0  0  0  0  0  0  0  0  0  0
    2.2943    2.4278    0.0000 C   0  0  0  0  0  0  0  0  0  0  0  0
    3.1245    3.6771    0.0000 C   0  0  0  0  0  0  0  0  0  0  0  0
    2.4576    5.0207    0.0000 O   0  0  0  0  0  0  0  0  0  0  0  0
    4.6215    3.5828    0.0000 O   0  0  0  0  0  0  0  0  0  0  0  0
    2.9611    1.0841    0.0000 C   0  0  0  0  0  0  0  0  0  0  0  0
    2.1309   -0.1652    0.0000 C   0  0  0  0  0  0  0  0  0  0  0  0
    2.7977   -1.5088    0.0000 C   0  0  0  0  0  0  0  0  0  0  0  0
    4.2948   -1.6031    0.0000 C   0  0  0  0  0  0  0  0  0  0  0  0
    4.9616   -2.9467    0.0000 C   0  0  0  0  0  0  0  0  0  0  0  0
    6.4586   -3.0411    0.0000 C   0  0  0  0  0  0  0  0  0  0  0  0
    4.1314   -4.1961    0.0000 C   0  0  0  0  0  0  0  0  0  0  0  0
    0.6339   -0.0708    0.0000 C   0  0  0  0  0  0  0  0  0  0  0  0
   -0.1963   -1.3201    0.0000 O   0  0  0  0  0  0  0  0  0  0  0  0
  1  2  1  0
  2  3  1  0
  2  4  2  0
  4  5  1  0
  5  6  1  0
  6  7  1  0
  7  8  1  6
  7  9  1  0
  9 10  2  0
 10 11  1  0
 11 12  2  0
 12 13  1  0
 13 14  1  0
 14 15  2  0
 14 16  1  0
 13 17  2  0
 17 18  1  0
 18 19  1  0
 19 20  1  0
 20 21  2  0
 21 22  1  0
 21 23  1  0
 18 24  2  0
 24 25  1  0
 25  7  1  0
 24 11  1  0
M  END
>  <identifier>  (313) 
CNP0231339.1

>  <canonical_smiles>  (313) 
CC(C)=CCC[C@@]1(C)C=CC2=CC(C(=O)O)=CC(CC=C(C)C)=C2O1

>  <standard_inchi>  (313) 
InChI=1S/C22H28O3/c1-15(2)7-6-11-22(5)12-10-18-14-19(21(23)24)13-17(20(18)25-22)9-8-16(3)4/h7-8,10,12-14H,6,9,11H2,1-5H3,(H,23,24)/t22-/m0/s1

>  <standard_inchi_key>  (313) 
TXHBNVYFCZMCPB-QFIPXVFZSA-N

>  <name>  (313) 
Gaudichaudianic Acid

>  <iupac_name>  (313) 
(2~{S})-2-methyl-8-(3-methylbut-2-enyl)-2-(4-methylpent-3-enyl)chromene-6-carboxylic acid

>  <annotation_level>  (313) 
5

>  <total_atom_count>  (313) 
53

>  <heavy_atom_count>  (313) 
25

>  <molecular_weight>  (313) 
340.46

>  <exact_molecular_weight>  (313) 
340.20384

>  <molecular_formula>  (313) 
C22H28O3

>  <alogp>  (313) 
5.80

>  <topological_polar_surface_area>  (313) 
46.53

>  <rotatable_bond_count>  (313) 
6

>  <hydrogen_bond_acceptors>  (313) 
2

>  <hydrogen_bond_donors>  (313) 
1

>  <hydrogen_bond_acceptors_lipinski>  (313) 
2

>  <hydrogen_bond_donors_lipinski>  (313) 
1

>  <lipinski_rule_of_five_violations>  (313) 
1

>  <aromatic_rings_count>  (313) 
1

>  <qed_drug_likeliness>  (313) 
0.67

>  <formal_charge>  (313) 
0

>  <fractioncsp3>  (313) 
0.41

>  <number_of_minimal_rings>  (313) 
2

>  <van_der_walls_volume>  (313) 
340.39

>  <contains_sugar>  (313) 
False

>  <contains_ring_sugars>  (313) 
False

>  <contains_linear_sugars>  (313) 
False

>  <murcko_framework>  (313) 
O1c2ccccc2C=CC1

>  <np_likeness>  (313) 
2.73

>  <chemical_class>  (313) 
Benzopyrans

>  <chemical_sub_class>  (313) 
1-benzopyrans

>  <chemical_super_class>  (313) 
Organoheterocyclic compounds

>  <direct_parent_classification>  (313) 
1-benzopyrans

>  <np_classifier_pathway>  (313) 
Terpenoids

>  <np_classifier_superclass>  (313) 
Meroterpenoids

>  <np_classifier_class>  (313) 
Polyprenylated cyclic polyketides (Hop meroterpenoids)

>  <np_classifier_is_glycoside>  (313) 
False

>  <organisms>  (313) 
Piper|Piper gaudichaudianum|Piper gaudichaudianum Kunth|piper sp.

>  <collections>  (313) 
ChemSpider NPs|KNApSaCK|Latin America dataset|NPASS|NuBBEDB|Super Natural II|WikiData Natural Products|ZINC NP

>  <dois>  (313) 
10.1016/J.PHYTOCHEM.2007.04.025|10.1016/j.phytochem.2007.04.025|10.1021/NP030530J|10.1248/BPB.31.538|10.1248/bpb.31.538

>  <synonyms>  (313) 
(+)-(S)-Gaudichaudianic Acid|(2S)-2-methyl-8-(3-methylbut-2-enyl)-2-(4-methylpent-3-enyl)chromene-6-carboxylic Acid|CHEMBL520792|Gaudichaudianic acid|Gaudichaudianic acid, (2S)-2-methyl-2-(4'methyl-3'-pentenyl)-8-(3''-methyl-2-butenyl)- 2H-1-benzopyran-6-carboxylic acid

>  <cas>  (313) 
nan

$$$$

     RDKit          2D

 20 22  0  0  0  0  0  0  0  0999 V2000
   -5.6520   -0.5080    0.0000 C   0  0  0  0  0  0  0  0  0  0  0  0
   -4.4738   -1.4364    0.0000 O   0  0  0  0  0  0  0  0  0  0  0  0
   -3.0807   -0.8802    0.0000 C   0  0  0  0  0  0  0  0  0  0  0  0
   -2.8658    0.6043    0.0000 C   0  0  0  0  0  0  0  0  0  0  0  0
   -1.4727    1.1605    0.0000 C   0  0  0  0  0  0  0  0  0  0  0  0
   -0.2945    0.2321    0.0000 C   0  0  0  0  0  0  0  0  0  0  0  0
   -0.5094   -1.2524    0.0000 C   0  0  0  0  0  0  0  0  0  0  0  0
   -1.9025   -1.8086    0.0000 C   0  0  0  0  0  0  0  0  0  0  0  0
   -2.1174   -3.2931    0.0000 O   0  0  0  0  0  0  0  0  0  0  0  0
    1.0985    0.7882    0.0000 C   0  0  0  0  0  0  0  0  0  0  0  0
    2.2767   -0.1401    0.0000 C   0  0  0  0  0  0  0  0  0  0  0  0
    2.0618   -1.6247    0.0000 C   0  0  0  0  0  0  0  0  0  0  0  0
    3.2400   -2.5530    0.0000 C   0  0  0  0  0  0  0  0  0  0  0  0
    4.6331   -1.9969    0.0000 C   0  0  0  0  0  0  0  0  0  0  0  0
    4.8480   -0.5123    0.0000 C   0  0  0  0  0  0  0  0  0  0  0  0
    3.6698    0.4160    0.0000 C   0  0  0  0  0  0  0  0  0  0  0  0
    1.3134    2.2728    0.0000 C   0  0  0  0  0  0  0  0  0  0  0  0
    0.1353    3.2011    0.0000 C   0  0  0  0  0  0  0  0  0  0  0  0
    0.3502    4.6857    0.0000 O   0  0  0  0  0  0  0  0  0  0  0  0
   -1.2578    2.6450    0.0000 O   0  0  0  0  0  0  0  0  0  0  0  0
  1  2  1  0
  2  3  1  0
  3  4  2  0
  4  5  1  0
  5  6  2  0
  6  7  1  0
  7  8  2  0
  8  9  1  0
  6 10  1  0
 10 11  1  0
 11 12  2  0
 12 13  1  0
 13 14  2  0
 14 15  1  0
 15 16  2  0
 10 17  2  0
 17 18  1  0
 18 19  2  0
 18 20  1  0
  8  3  1  0
 16 11  1  0
 20  5  1  0
M  END
>  <identifier>  (314) 
CNP0202664.0

>  <canonical_smiles>  (314) 
COC1=CC2=C(C=C1O)C(C1=CC=CC=C1)=CC(=O)O2

>  <standard_inchi>  (314) 
InChI=1S/C16H12O4/c1-19-15-9-14-12(7-13(15)17)11(8-16(18)20-14)10-5-3-2-4-6-10/h2-9,17H,1H3

>  <standard_inchi_key>  (314) 
AZELSOYQOIUPBZ-UHFFFAOYSA-N

>  <name>  (314) 
Dalbergin

>  <iupac_name>  (314) 
6-hydroxy-7-methoxy-4-phenyl-chromen-2-one

>  <annotation_level>  (314) 
5

>  <total_atom_count>  (314) 
32

>  <heavy_atom_count>  (314) 
20

>  <molecular_weight>  (314) 
268.27

>  <exact_molecular_weight>  (314) 
268.07356

>  <molecular_formula>  (314) 
C16H12O4

>  <alogp>  (314) 
3.17

>  <topological_polar_surface_area>  (314) 
59.67

>  <rotatable_bond_count>  (314) 
2

>  <hydrogen_bond_acceptors>  (314) 
4

>  <hydrogen_bond_donors>  (314) 
1

>  <hydrogen_bond_acceptors_lipinski>  (314) 
4

>  <hydrogen_bond_donors_lipinski>  (314) 
1

>  <lipinski_rule_of_five_violations>  (314) 
0

>  <aromatic_rings_count>  (314) 
3

>  <qed_drug_likeliness>  (314) 
0.73

>  <formal_charge>  (314) 
0

>  <fractioncsp3>  (314) 
0.06

>  <number_of_minimal_rings>  (314) 
3

>  <van_der_walls_volume>  (314) 
231.26

>  <contains_sugar>  (314) 
False

>  <contains_ring_sugars>  (314) 
False

>  <contains_linear_sugars>  (314) 
False

>  <murcko_framework>  (314) 
O1c2ccccc2C(=CC1)c3ccccc3

>  <np_likeness>  (314) 
0.54

>  <chemical_class>  (314) 
Neoflavonoids

>  <chemical_sub_class>  (314) 
Neoflavones

>  <chemical_super_class>  (314) 
Phenylpropanoids and polyketides

>  <direct_parent_classification>  (314) 
Neoflavones

>  <np_classifier_pathway>  (314) 
Shikimates and Phenylpropanoids

>  <np_classifier_superclass>  (314) 
Flavonoids

>  <np_classifier_class>  (314) 
Neoflavonoids

>  <np_classifier_is_glycoside>  (314) 
False

>  <organisms>  (314) 
Anadenanthera colubrina|Arnica longifolia|Cassia alata|Clerodendrum indicum|Dalbergia Volubilis|Dalbergia baronii|Dalbergia cearensis|Dalbergia cochinchinensis|Dalbergia cultrata|Dalbergia cultrate|Dalbergia melanoxylon|Dalbergia miscolobium|Dalbergia monetaria|Dalbergia nigra|Dalbergia nitidula|Dalbergia odorifera|Dalbergia ovalis|Dalbergia riparia|Dalbergia sissoides|Dalbergia sissoo|Dalbergia spruceana|Dalbergia stevensonii|Dalbergia volubilis|Goniorrhachis marginata|Kaempferia galanga|Lignum dalbergiae odoriferae rosewood|Machaerium kuhlmannii|Machaerium pedicellatum|Machaerium scleroxylon|Paraderris canarensis|Piptadenia macrocarpa|Plumbago auriculata|Prosopis kuntzei|Pterocarpus santalinus|Rubus rigidus|Senegalia caesia|Senna alata|Spodoptera exigua

>  <collections>  (314) 
ANPDB|Australian natural products|CMAUP (cCollective molecular activities of useful plants)|ChEBI NPs|ChemSpider NPs|FooDB|GNPS (Global Natural Products Social Molecular Networking)|KNApSaCK|Latin America dataset|NANPDB (Natural Products from Northern African Sources)|NPASS|NPEdia|NuBBEDB|Phenol-explorer|Super Natural II|TCMDB-Taiwan (Traditional Chinese Medicine database)|TCMID (Traditional Chinese Medicine Integrated Database)|TIPdb (database of Taiwan indigenous plants)|UNPD (Universal Natural Products Database)|VietHerb|WikiData Natural Products|ZINC NP

>  <dois>  (314) 
10.1002/BMC.535|10.1002/RCM.1936|10.1016/0031-9422(72)80056-6|10.1016/0031-9422(73)80478-9|10.1016/0031-9422(73)85048-4|10.1016/0031-9422(83)80186-1|10.1016/0031-9422(93)85192-T|10.1016/0031-9422(93)85192-t|10.1016/J.BMCL.2011.06.036|10.1016/J.PHYTOCHEM.2010.04.011|10.1016/S0031-9422(00)89039-1|10.1016/S0031-9422(00)89103-7|10.1016/S0031-9422(00)94592-8|10.1016/S0031-9422(00)94594-1|10.1016/S0031-9422(00)94601-6|10.1016/S0031-9422(00)98663-1|10.1016/S0031-9422(97)00365-8|10.1016/S0031-9422(97)80015-5|10.1016/S0040-4020(01)82536-9|10.1016/j.phytol.2013.08.018|10.1021/NP0300683|10.1039/P19730001737|10.1055/S-2006-957394|10.1248/CPB.56.1722

>  <synonyms>  (314) 
2H-1-Benzopyran-2-one, 6-hydroxy-7-methoxy-4-phenyl-|482-83-7|6-Hydroxy-7-methoxy-4-phenylcoumarin|6-hydroxy-7-methoxy-4-phenyl-2H-chromen-2-one|AKOS015856200|AS-77930|AZELSOYQOIUPBZ-UHFFFAOYSA-N|CHEBI:4308|CHEMBL1829658|CS-0143446|DTXSID60331943|Dalbergin|G12201|HY-N8347|LMPK12100003|MFCD00075721|NS00116190|Q27106329|SCHEMBL620349|dalbergin

>  <cas>  (314) 
482-83-7

$$$$

     RDKit          2D

 23 24  0  0  0  0  0  0  0  0999 V2000
   -3.4779   -3.1433    0.0000 C   0  0  0  0  0  0  0  0  0  0  0  0
   -2.6056   -1.9229    0.0000 C   0  0  0  0  0  0  0  0  0  0  0  0
   -3.2264   -0.5574    0.0000 O   0  0  0  0  0  0  0  0  0  0  0  0
   -1.1127   -2.0682    0.0000 O   0  0  0  0  0  0  0  0  0  0  0  0
   -0.2405   -0.8478    0.0000 C   0  0  0  0  0  0  0  0  0  0  0  0
    1.2525   -0.9931    0.0000 C   0  0  0  0  0  0  0  0  0  0  0  0
    1.8732   -2.3586    0.0000 C   0  0  0  0  0  0  0  0  0  0  0  0
    3.3662   -2.5038    0.0000 O   0  0  0  0  0  0  0  0  0  0  0  0
    4.2384   -1.2835    0.0000 C   0  0  0  0  0  0  0  0  0  0  0  0
    5.7314   -1.4287    0.0000 C   0  0  0  0  0  0  0  0  0  0  0  0
    3.6177    0.0820    0.0000 C   0  0  0  0  0  0  0  0  0  0  0  0
    2.1247    0.2273    0.0000 C   0  0  0  0  0  0  0  0  0  0  0  0
    1.5040    1.5928    0.0000 C   0  0  0  0  0  0  0  0  0  0  0  0
    2.3763    2.8131    0.0000 C   0  0  0  0  0  0  0  0  0  0  0  0
    1.7556    4.1787    0.0000 O   0  0  0  0  0  0  0  0  0  0  0  0
    0.0111    1.7380    0.0000 C   0  0  0  0  0  0  0  0  0  0  0  0
   -0.6096    3.1036    0.0000 O   0  0  0  0  0  0  0  0  0  0  0  0
   -0.8612    0.5177    0.0000 C   0  0  0  0  0  0  0  0  0  0  0  0
   -1.9115    1.5886    0.0000 C   0  0  0  0  0  0  0  0  0  0  0  0
   -2.0982   -0.3307    0.0000 O   0  0  0  0  0  0  0  0  0  0  0  0
   -3.4514    0.3164    0.0000 C   0  0  0  0  0  0  0  0  0  0  0  0
   -4.6884   -0.5320    0.0000 C   0  0  0  0  0  0  0  0  0  0  0  0
   -3.5677    1.8119    0.0000 O   0  0  0  0  0  0  0  0  0  0  0  0
  1  2  1  0
  2  3  2  0
  2  4  1  0
  5  4  1  6
  5  6  1  0
  6  7  2  0
  7  8  1  0
  8  9  1  0
  9 10  1  0
  9 11  2  0
 11 12  1  0
 12 13  2  0
 13 14  1  0
 14 15  2  0
 13 16  1  0
 16 17  2  0
 16 18  1  0
 18 19  1  6
 18 20  1  0
 20 21  1  0
 21 22  1  0
 21 23  2  0
 18  5  1  0
 12  6  1  0
M  END
>  <identifier>  (315) 
CNP0080543.1

>  <canonical_smiles>  (315) 
CC(=O)O[C@H]1C2=COC(C)=CC2=C(C=O)C(=O)[C@]1(C)OC(C)=O

>  <standard_inchi>  (315) 
InChI=1S/C16H16O7/c1-8-5-11-12(6-17)14(20)16(4,23-10(3)19)15(22-9(2)18)13(11)7-21-8/h5-7,15H,1-4H3/t15-,16-/m0/s1

>  <standard_inchi_key>  (315) 
QVXVIOCTOACBNT-HOTGVXAUSA-N

>  <name>  (315) 
[(7R,8S)-7-acetyloxy-5-formyl-3,7-dimethyl-6-oxo-8H-isochromen-8-yl] acetate

>  <iupac_name>  (315) 
[(7~{R},8~{S})-7-acetoxy-5-formyl-3,7-dimethyl-6-oxo-8~{H}-isochromen-8-yl] acetate

>  <annotation_level>  (315) 
5

>  <total_atom_count>  (315) 
39

>  <heavy_atom_count>  (315) 
23

>  <molecular_weight>  (315) 
320.3

>  <exact_molecular_weight>  (315) 
320.0896

>  <molecular_formula>  (315) 
C16H16O7

>  <alogp>  (315) 
1.14

>  <topological_polar_surface_area>  (315) 
95.97

>  <rotatable_bond_count>  (315) 
3

>  <hydrogen_bond_acceptors>  (315) 
7

>  <hydrogen_bond_donors>  (315) 
0

>  <hydrogen_bond_acceptors_lipinski>  (315) 
7

>  <hydrogen_bond_donors_lipinski>  (315) 
0

>  <lipinski_rule_of_five_violations>  (315) 
0

>  <aromatic_rings_count>  (315) 
0

>  <qed_drug_likeliness>  (315) 
0.44

>  <formal_charge>  (315) 
0

>  <fractioncsp3>  (315) 
0.38

>  <number_of_minimal_rings>  (315) 
2

>  <van_der_walls_volume>  (315) 
nan

>  <contains_sugar>  (315) 
False

>  <contains_ring_sugars>  (315) 
False

>  <contains_linear_sugars>  (315) 
False

>  <murcko_framework>  (315) 
O1C=CC2=CCCCC2=C1

>  <np_likeness>  (315) 
2.84

>  <chemical_class>  (315) 
Organooxygen compounds

>  <chemical_sub_class>  (315) 
Carbonyl compounds

>  <chemical_super_class>  (315) 
Organic oxygen compounds

>  <direct_parent_classification>  (315) 
Cyclohexenones

>  <np_classifier_pathway>  (315) 
Polyketides

>  <np_classifier_superclass>  (315) 
Chromanes

>  <np_classifier_class>  (315) 
Azaphilones

>  <np_classifier_is_glycoside>  (315) 
False

>  <organisms>  (315) 
Muyocopron sahnii|Mycoleptodiscus indicus

>  <collections>  (315) 
Latin America dataset|NuBBEDB|WikiData Natural Products|ZINC NP

>  <dois>  (315) 
10.1021/NP4006822|10.1021/np4006822

>  <synonyms>  (315) 
Austdiol diacetate|CHEMBL3104959

>  <cas>  (315) 
nan

$$$$

     RDKit          2D

 22 24  0  0  0  0  0  0  0  0999 V2000
    2.2448   -3.6199    0.0000 C   0  0  0  0  0  0  0  0  0  0  0  0
    2.1853   -2.1211    0.0000 C   0  0  0  0  0  0  0  0  0  0  0  0
    0.8576   -1.4232    0.0000 C   0  0  0  0  0  0  0  0  0  0  0  0
    0.7981    0.0756    0.0000 C   0  0  0  0  0  0  0  0  0  0  0  0
    2.1916   -0.4797    0.0000 C   0  0  0  0  0  0  0  0  0  0  0  0
    3.3692    0.4494    0.0000 C   0  0  0  0  0  0  0  0  0  0  0  0
    4.7626   -0.1059    0.0000 O   0  0  0  0  0  0  0  0  0  0  0  0
    4.9784   -1.5903    0.0000 C   0  0  0  0  0  0  0  0  0  0  0  0
    3.1534    1.9338    0.0000 C   0  0  0  0  0  0  0  0  0  0  0  0
    4.3310    2.8629    0.0000 O   0  0  0  0  0  0  0  0  0  0  0  0
    1.7600    2.4891    0.0000 C   0  0  0  0  0  0  0  0  0  0  0  0
    0.5823    1.5600    0.0000 C   0  0  0  0  0  0  0  0  0  0  0  0
   -0.8961    1.8135    0.0000 O   0  0  0  0  0  0  0  0  0  0  0  0
   -1.5940    0.4858    0.0000 C   0  0  0  0  0  0  0  0  0  0  0  0
   -3.0784    0.2700    0.0000 C   0  0  0  0  0  0  0  0  0  0  0  0
   -4.0075    1.4476    0.0000 C   0  0  0  0  0  0  0  0  0  0  0  0
   -5.4919    1.2318    0.0000 C   0  0  0  0  0  0  0  0  0  0  0  0
   -6.0472   -0.1616    0.0000 C   0  0  0  0  0  0  0  0  0  0  0  0
   -5.1181   -1.3393    0.0000 C   0  0  0  0  0  0  0  0  0  0  0  0
   -3.6337   -1.1235    0.0000 C   0  0  0  0  0  0  0  0  0  0  0  0
   -0.5469   -0.5883    0.0000 C   0  0  0  0  0  0  0  0  0  0  0  0
   -0.8004   -2.0667    0.0000 C   0  0  0  0  0  0  0  0  0  0  0  0
  1  2  2  0
  2  3  1  0
  4  3  1  1
  4  5  1  0
  5  6  2  0
  6  7  1  0
  7  8  1  0
  6  9  1  0
  9 10  2  0
  9 11  1  0
 11 12  2  0
 12 13  1  0
 13 14  1  0
 14 15  1  1
 15 16  2  0
 16 17  1  0
 17 18  2  0
 18 19  1  0
 19 20  2  0
 14 21  1  0
 21 22  1  6
 12  4  1  0
 20 15  1  0
 21  4  1  0
M  END
>  <identifier>  (316) 
CNP0080551.1

>  <canonical_smiles>  (316) 
C=CC[C@]12C=C(OC)C(=O)C=C1O[C@H](C1=CC=CC=C1)[C@H]2C

>  <standard_inchi>  (316) 
InChI=1S/C19H20O3/c1-4-10-19-12-16(21-3)15(20)11-17(19)22-18(13(19)2)14-8-6-5-7-9-14/h4-9,11-13,18H,1,10H2,2-3H3/t13-,18+,19-/m1/s1

>  <standard_inchi_key>  (316) 
BZGONHLQLISSBB-ZNZDAUKMSA-N

>  <name>  (316) 
nan

>  <iupac_name>  (316) 
(2~{S},3~{S},3~{a}~{S})-3~{a}-allyl-5-methoxy-3-methyl-2-phenyl-2,3-dihydrobenzofuran-6-one

>  <annotation_level>  (316) 
3

>  <total_atom_count>  (316) 
42

>  <heavy_atom_count>  (316) 
22

>  <molecular_weight>  (316) 
296.37

>  <exact_molecular_weight>  (316) 
296.14124

>  <molecular_formula>  (316) 
C19H20O3

>  <alogp>  (316) 
3.95

>  <topological_polar_surface_area>  (316) 
35.53

>  <rotatable_bond_count>  (316) 
4

>  <hydrogen_bond_acceptors>  (316) 
3

>  <hydrogen_bond_donors>  (316) 
0

>  <hydrogen_bond_acceptors_lipinski>  (316) 
3

>  <hydrogen_bond_donors_lipinski>  (316) 
0

>  <lipinski_rule_of_five_violations>  (316) 
0

>  <aromatic_rings_count>  (316) 
1

>  <qed_drug_likeliness>  (316) 
0.79

>  <formal_charge>  (316) 
0

>  <fractioncsp3>  (316) 
0.32

>  <number_of_minimal_rings>  (316) 
3

>  <van_der_walls_volume>  (316) 
nan

>  <contains_sugar>  (316) 
False

>  <contains_ring_sugars>  (316) 
False

>  <contains_linear_sugars>  (316) 
False

>  <murcko_framework>  (316) 
O1C2=CCC=CC2CC1c3ccccc3

>  <np_likeness>  (316) 
2.40

>  <chemical_class>  (316) 
2-arylbenzofuran flavonoids

>  <chemical_sub_class>  (316) 
2-arylbenzofuran flavonoids

>  <chemical_super_class>  (316) 
Phenylpropanoids and polyketides

>  <direct_parent_classification>  (316) 
2-arylbenzofuran flavonoids

>  <np_classifier_pathway>  (316) 
Shikimates and Phenylpropanoids

>  <np_classifier_superclass>  (316) 
nan

>  <np_classifier_class>  (316) 
nan

>  <np_classifier_is_glycoside>  (316) 
False

>  <organisms>  (316) 
Nectandra miranda|Rhodostemonodaphne miranda

>  <collections>  (316) 
Latin America dataset|NuBBEDB|WikiData Natural Products|ZINC NP

>  <dois>  (316) 
10.1016/S0031-9422(00)89245-6

>  <synonyms>  (316) 
nan

>  <cas>  (316) 
nan

$$$$

     RDKit          2D

 29 31  0  0  0  0  0  0  0  0999 V2000
   -8.2197   -1.0915    0.0000 C   0  0  0  0  0  0  0  0  0  0  0  0
   -6.8144   -1.6161    0.0000 C   0  0  0  0  0  0  0  0  0  0  0  0
   -6.5661   -3.0954    0.0000 C   0  0  0  0  0  0  0  0  0  0  0  0
   -5.6575   -0.6613    0.0000 C   0  0  0  0  0  0  0  0  0  0  0  0
   -4.2522   -1.1859    0.0000 C   0  0  0  0  0  0  0  0  0  0  0  0
   -3.0953   -0.2312    0.0000 C   0  0  0  0  0  0  0  0  0  0  0  0
   -3.3436    1.2481    0.0000 C   0  0  0  0  0  0  0  0  0  0  0  0
   -4.7489    1.7727    0.0000 O   0  0  0  0  0  0  0  0  0  0  0  0
   -2.1867    2.2028    0.0000 C   0  0  0  0  0  0  0  0  0  0  0  0
   -0.7814    1.6783    0.0000 C   0  0  0  0  0  0  0  0  0  0  0  0
   -0.5330    0.1990    0.0000 C   0  0  0  0  0  0  0  0  0  0  0  0
   -1.6900   -0.7558    0.0000 C   0  0  0  0  0  0  0  0  0  0  0  0
   -1.4416   -2.2351    0.0000 O   0  0  0  0  0  0  0  0  0  0  0  0
    0.8722   -0.3256    0.0000 C   0  0  0  0  0  0  0  0  0  0  0  0
    1.1206   -1.8049    0.0000 O   0  0  0  0  0  0  0  0  0  0  0  0
    2.0292    0.6291    0.0000 C   0  0  0  0  0  0  0  0  0  0  0  0
    3.4345    0.1046    0.0000 C   0  0  0  0  0  0  0  0  0  0  0  0
    3.6828   -1.3747    0.0000 C   0  0  0  0  0  0  0  0  0  0  0  0
    5.0881   -1.8993    0.0000 C   0  0  0  0  0  0  0  0  0  0  0  0
    5.3365   -3.3786    0.0000 C   0  0  0  0  0  0  0  0  0  0  0  0
    6.7417   -3.9032    0.0000 C   0  0  0  0  0  0  0  0  0  0  0  0
    4.1795   -4.3333    0.0000 C   0  0  0  0  0  0  0  0  0  0  0  0
    4.5914    1.0593    0.0000 C   0  0  0  0  0  0  0  0  0  0  0  0
    4.3430    2.5386    0.0000 C   0  0  0  0  0  0  0  0  0  0  0  0
    2.9378    3.0632    0.0000 C   0  0  0  0  0  0  0  0  0  0  0  0
    2.6894    4.5425    0.0000 O   0  0  0  0  0  0  0  0  0  0  0  0
    1.7808    2.1084    0.0000 C   0  0  0  0  0  0  0  0  0  0  0  0
    0.3755    2.6330    0.0000 N   0  0  0  0  0  0  0  0  0  0  0  0
    0.1272    4.1123    0.0000 C   0  0  0  0  0  0  0  0  0  0  0  0
  1  2  1  0
  2  3  1  0
  2  4  2  0
  4  5  1  0
  5  6  1  0
  6  7  2  0
  7  8  1  0
  7  9  1  0
  9 10  2  0
 10 11  1  0
 11 12  2  0
 12 13  1  0
 11 14  1  0
 14 15  2  0
 14 16  1  0
 16 17  2  0
 17 18  1  0
 18 19  1  0
 19 20  2  0
 20 21  1  0
 20 22  1  0
 17 23  1  0
 23 24  2  0
 24 25  1  0
 25 26  1  0
 25 27  2  0
 27 28  1  0
 28 29  1  0
 12  6  1  0
 27 16  1  0
 28 10  1  0
M  END
>  <identifier>  (317) 
CNP0271092.0

>  <canonical_smiles>  (317) 
CC(C)=CCC1=C(O)C=C2C(=C1O)C(=O)C1=C(CC=C(C)C)C=CC(O)=C1N2C

>  <standard_inchi>  (317) 
InChI=1S/C24H27NO4/c1-13(2)6-8-15-9-11-18(26)22-20(15)24(29)21-17(25(22)5)12-19(27)16(23(21)28)10-7-14(3)4/h6-7,9,11-12,26-28H,8,10H2,1-5H3

>  <standard_inchi_key>  (317) 
DYCRIHPNHAPQTH-UHFFFAOYSA-N

>  <name>  (317) 
1,3,5-trihydroxy-10-methyl-2,8-bis(3-methylbut-2-enyl)acridin-9-one

>  <iupac_name>  (317) 
1,3,5-trihydroxy-10-methyl-2,8-bis(3-methylbut-2-enyl)acridin-9-one

>  <annotation_level>  (317) 
5

>  <total_atom_count>  (317) 
56

>  <heavy_atom_count>  (317) 
29

>  <molecular_weight>  (317) 
393.48

>  <exact_molecular_weight>  (317) 
393.19401

>  <molecular_formula>  (317) 
C24H27NO4

>  <alogp>  (317) 
4.83

>  <topological_polar_surface_area>  (317) 
82.69

>  <rotatable_bond_count>  (317) 
4

>  <hydrogen_bond_acceptors>  (317) 
5

>  <hydrogen_bond_donors>  (317) 
3

>  <hydrogen_bond_acceptors_lipinski>  (317) 
5

>  <hydrogen_bond_donors_lipinski>  (317) 
3

>  <lipinski_rule_of_five_violations>  (317) 
0

>  <aromatic_rings_count>  (317) 
3

>  <qed_drug_likeliness>  (317) 
0.44

>  <formal_charge>  (317) 
0

>  <fractioncsp3>  (317) 
0.29

>  <number_of_minimal_rings>  (317) 
3

>  <van_der_walls_volume>  (317) 
363.65

>  <contains_sugar>  (317) 
False

>  <contains_ring_sugars>  (317) 
False

>  <contains_linear_sugars>  (317) 
False

>  <murcko_framework>  (317) 
c1ccc2c(c1)Nc3ccccc3C2

>  <np_likeness>  (317) 
1.69

>  <chemical_class>  (317) 
Quinolines and derivatives

>  <chemical_sub_class>  (317) 
Benzoquinolines

>  <chemical_super_class>  (317) 
Organoheterocyclic compounds

>  <direct_parent_classification>  (317) 
Acridones

>  <np_classifier_pathway>  (317) 
Alkaloids

>  <np_classifier_superclass>  (317) 
Anthranilic acid alkaloids

>  <np_classifier_class>  (317) 
Acridone alkaloids

>  <np_classifier_is_glycoside>  (317) 
False

>  <organisms>  (317) 
Clematis flammula|Gentiana lactea|Hortia arborea|Korolkowia sewerzowi|Swinglea glutinosa

>  <collections>  (317) 
CMAUP (cCollective molecular activities of useful plants)|Latin America dataset|NPASS|NuBBEDB|Super Natural II|UNPD (Universal Natural Products Database)|WikiData Natural Products

>  <dois>  (317) 
10.1016/J.BMC.2010.12.056|10.1016/j.bmc.2010.12.056|10.1021/NP0005762

>  <synonyms>  (317) 
1,3,5-Trihydroxy-10-methyl-2,8-bis(3-methyl-2-buten-1-yl)-9(10H)-acridinone|1,3,5-trihydroxy-2,8-bis(3-methylbut-2-enyl)-10-methyl-9-acridone|370095-45-7|BDBM50336476|CHEMBL464846|DTXSID501344355|SCHEMBL21541509

>  <cas>  (317) 
370095-45-7

$$$$

     RDKit          2D

 43 45  0  0  0  0  0  0  0  0999 V2000
    6.6274   -3.5782    0.0000 C   0  0  0  0  0  0  0  0  0  0  0  0
    5.1685   -3.2295    0.0000 C   0  0  0  0  0  0  0  0  0  0  0  0
    4.1371   -4.3186    0.0000 C   0  0  0  0  0  0  0  0  0  0  0  0
    4.5645   -5.7564    0.0000 C   0  0  0  0  0  0  0  0  0  0  0  0
    2.6782   -3.9699    0.0000 C   0  0  0  0  0  0  0  0  0  0  0  0
    2.2507   -2.5320    0.0000 C   0  0  0  0  0  0  0  0  0  0  0  0
    0.7918   -2.1833    0.0000 C   0  0  0  0  0  0  0  0  0  0  0  0
    0.7018   -3.6806    0.0000 C   0  0  0  0  0  0  0  0  0  0  0  0
    1.3886   -0.8071    0.0000 C   0  0  0  0  0  0  0  0  0  0  0  0
    2.8788   -0.6359    0.0000 C   0  0  0  0  0  0  0  0  0  0  0  0
    0.4952    0.3978    0.0000 C   0  0  0  0  0  0  0  0  0  0  0  0
    1.0919    1.7739    0.0000 O   0  0  0  0  0  0  0  0  0  0  0  0
    2.5821    1.9452    0.0000 C   0  0  0  0  0  0  0  0  0  0  0  0
    3.4755    0.7403    0.0000 O   0  0  0  0  0  0  0  0  0  0  0  0
    3.1789    3.3214    0.0000 C   0  0  0  0  0  0  0  0  0  0  0  0
    4.6691    3.4927    0.0000 C   0  0  0  0  0  0  0  0  0  0  0  0
    5.2658    4.8689    0.0000 C   0  0  0  0  0  0  0  0  0  0  0  0
   -0.9950    0.2265    0.0000 C   0  0  0  0  0  0  0  0  0  0  0  0
   -1.8885    1.4314    0.0000 O   0  0  0  0  0  0  0  0  0  0  0  0
   -1.2917    2.8075    0.0000 C   0  0  0  0  0  0  0  0  0  0  0  0
   -2.1851    4.0124    0.0000 C   0  0  0  0  0  0  0  0  0  0  0  0
    0.1128    3.3343    0.0000 O   0  0  0  0  0  0  0  0  0  0  0  0
   -1.5918   -1.1497    0.0000 C   0  0  0  0  0  0  0  0  0  0  0  0
   -3.0820   -1.3210    0.0000 C   0  0  0  0  0  0  0  0  0  0  0  0
   -3.6787   -2.6972    0.0000 C   0  0  0  0  0  0  0  0  0  0  0  0
   -2.7853   -3.9021    0.0000 C   0  0  0  0  0  0  0  0  0  0  0  0
   -3.3821   -5.2783    0.0000 O   0  0  0  0  0  0  0  0  0  0  0  0
   -4.8722   -5.4496    0.0000 C   0  0  0  0  0  0  0  0  0  0  0  0
   -1.2951   -3.7308    0.0000 C   0  0  0  0  0  0  0  0  0  0  0  0
   -0.6984   -2.3546    0.0000 C   0  0  0  0  0  0  0  0  0  0  0  0
   -3.7054    0.0433    0.0000 C   0  0  0  0  0  0  0  0  0  0  0  0
   -5.1756    0.3409    0.0000 O   0  0  0  0  0  0  0  0  0  0  0  0
   -5.6529    1.7629    0.0000 C   0  0  0  0  0  0  0  0  0  0  0  0
   -7.1231    2.0605    0.0000 C   0  0  0  0  0  0  0  0  0  0  0  0
   -4.6601    2.8873    0.0000 O   0  0  0  0  0  0  0  0  0  0  0  0
   -2.6005    1.0578    0.0000 O   0  0  0  0  0  0  0  0  0  0  0  0
   -1.2942    0.3205    0.0000 C   0  0  0  0  0  0  0  0  0  0  0  0
    0.0701    0.9439    0.0000 O   0  0  0  0  0  0  0  0  0  0  0  0
    0.2124    2.4371    0.0000 C   0  0  0  0  0  0  0  0  0  0  0  0
   -0.7628    3.5768    0.0000 O   0  0  0  0  0  0  0  0  0  0  0  0
    1.5767    3.0605    0.0000 C   0  0  0  0  0  0  0  0  0  0  0  0
    1.7190    4.5537    0.0000 C   0  0  0  0  0  0  0  0  0  0  0  0
    3.0833    5.1771    0.0000 C   0  0  0  0  0  0  0  0  0  0  0  0
  1  2  2  0
  2  3  1  0
  3  4  1  0
  3  5  2  0
  5  6  1  0
  6  7  1  0
  7  8  1  6
  7  9  1  0
  9 10  1  1
  9 11  1  0
 11 12  1  6
 12 13  1  0
 13 14  2  0
 13 15  1  0
 15 16  1  0
 16 17  1  0
 11 18  1  0
 18 19  1  1
 19 20  1  0
 20 21  1  0
 20 22  2  0
 18 23  1  0
 23 24  1  6
 24 25  2  0
 25 26  1  0
 26 27  1  1
 27 28  1  0
 26 29  1  0
 30 29  1  6
 24 31  1  0
 31 32  1  1
 32 33  1  0
 33 34  1  0
 33 35  2  0
 31 36  1  0
 36 37  1  0
 37 38  1  1
 38 39  1  0
 39 40  2  0
 39 41  1  0
 41 42  1  0
 42 43  1  0
 30  7  1  0
 30 23  1  0
 37 23  1  0
M  END
>  <identifier>  (318) 
CNP0303972.1

>  <canonical_smiles>  (318) 
C=C/C(C)=C\C[C@]1(C)[C@H](C)[C@@H](OC(=O)CCC)[C@H](OC(C)=O)[C@@]23C(=C[C@H](OC)C[C@@H]12)[C@@H](OC(C)=O)O[C@H]3OC(=O)CCC

>  <standard_inchi>  (318) 
InChI=1S/C33H48O10/c1-10-13-26(36)41-28-20(5)32(8,16-15-19(4)12-3)25-18-23(38-9)17-24-30(40-22(7)35)43-31(42-27(37)14-11-2)33(24,25)29(28)39-21(6)34/h12,15,17,20,23,25,28-31H,3,10-11,13-14,16,18H2,1-2,4-9H3/b19-15-/t20-,23+,25+,28-,29+,30+,31-,32-,33-/m1/s1

>  <standard_inchi_key>  (318) 
JSVHPHSBAOVKNB-QWNSEVKLSA-N

>  <name>  (318) 
nan

>  <iupac_name>  (318) 
[(1~{S},3~{R},5~{R},6~{a}~{S},7~{S},8~{S},9~{R},10~{R},10~{a}~{S})-3,10-diacetoxy-1-butanoyloxy-5-methoxy-7,8-dimethyl-7-[(2~{Z})-3-methylpenta-2,4-dienyl]-1,3,5,6,6~{a},8,9,10-octahydrobenzo[d]isobenzofuran-9-yl] butanoate

>  <annotation_level>  (318) 
5

>  <total_atom_count>  (318) 
91

>  <heavy_atom_count>  (318) 
43

>  <molecular_weight>  (318) 
604.74

>  <exact_molecular_weight>  (318) 
604.32475

>  <molecular_formula>  (318) 
C33H48O10

>  <alogp>  (318) 
5.34

>  <topological_polar_surface_area>  (318) 
123.66

>  <rotatable_bond_count>  (318) 
12

>  <hydrogen_bond_acceptors>  (318) 
10

>  <hydrogen_bond_donors>  (318) 
0

>  <hydrogen_bond_acceptors_lipinski>  (318) 
10

>  <hydrogen_bond_donors_lipinski>  (318) 
0

>  <lipinski_rule_of_five_violations>  (318) 
2

>  <aromatic_rings_count>  (318) 
0

>  <qed_drug_likeliness>  (318) 
0.12

>  <formal_charge>  (318) 
0

>  <fractioncsp3>  (318) 
0.70

>  <number_of_minimal_rings>  (318) 
3

>  <van_der_walls_volume>  (318) 
569.21

>  <contains_sugar>  (318) 
False

>  <contains_ring_sugars>  (318) 
False

>  <contains_linear_sugars>  (318) 
False

>  <murcko_framework>  (318) 
O1CC2=CCCC3CCCCC23C1

>  <np_likeness>  (318) 
3.01

>  <chemical_class>  (318) 
Prenol lipids

>  <chemical_sub_class>  (318) 
Diterpenoids

>  <chemical_super_class>  (318) 
Lipids and lipid-like molecules

>  <direct_parent_classification>  (318) 
Colensane and clerodane diterpenoids

>  <np_classifier_pathway>  (318) 
Terpenoids

>  <np_classifier_superclass>  (318) 
Diterpenoids

>  <np_classifier_class>  (318) 
Colensane and Clerodane diterpenoids

>  <np_classifier_is_glycoside>  (318) 
True

>  <organisms>  (318) 
Casearia sylvestris

>  <collections>  (318) 
ChemSpider NPs|Latin America dataset|NuBBEDB|Super Natural II|WikiData Natural Products|ZINC NP

>  <dois>  (318) 
10.1002/PCA.902|10.1002/pca.902

>  <synonyms>  (318) 
Casearin N

>  <cas>  (318) 
nan

$$$$

     RDKit          2D

 31 35  0  0  0  0  0  0  0  0999 V2000
    2.9926   -3.0689    0.0000 C   0  0  0  0  0  0  0  0  0  0  0  0
    4.3603   -2.4531    0.0000 C   0  0  0  0  0  0  0  0  0  0  0  0
    5.5775   -3.3297    0.0000 C   0  0  0  0  0  0  0  0  0  0  0  0
    4.5109   -0.9607    0.0000 C   0  0  0  0  0  0  0  0  0  0  0  0
    5.8068   -0.2053    0.0000 C   0  0  0  0  0  0  0  0  0  0  0  0
    5.4888    1.2606    0.0000 C   0  0  0  0  0  0  0  0  0  0  0  0
    3.9964    1.4112    0.0000 C   0  0  0  0  0  0  0  0  0  0  0  0
    4.7410    2.7133    0.0000 C   0  0  0  0  0  0  0  0  0  0  0  0
    3.1097    2.6210    0.0000 C   0  0  0  0  0  0  0  0  0  0  0  0
    1.6185    2.4580    0.0000 C   0  0  0  0  0  0  0  0  0  0  0  0
    1.0142    1.0852    0.0000 C   0  0  0  0  0  0  0  0  0  0  0  0
    0.1274    2.2950    0.0000 C   0  0  0  0  0  0  0  0  0  0  0  0
    1.9009   -0.1247    0.0000 C   0  0  0  0  0  0  0  0  0  0  0  0
    1.2965   -1.4975    0.0000 C   0  0  0  0  0  0  0  0  0  0  0  0
   -0.1946   -1.6605    0.0000 C   0  0  0  0  0  0  0  0  0  0  0  0
   -1.0813   -0.4507    0.0000 C   0  0  0  0  0  0  0  0  0  0  0  0
   -2.5724   -0.6137    0.0000 C   0  0  0  0  0  0  0  0  0  0  0  0
   -1.6857   -1.8236    0.0000 C   0  0  0  0  0  0  0  0  0  0  0  0
   -3.1768   -1.9866    0.0000 C   0  0  0  0  0  0  0  0  0  0  0  0
   -4.6679   -2.1496    0.0000 C   0  0  0  0  0  0  0  0  0  0  0  0
   -5.5547   -0.9397    0.0000 C   0  0  0  0  0  0  0  0  0  0  0  0
   -7.0458   -1.1028    0.0000 O   0  0  0  0  0  0  0  0  0  0  0  0
   -4.9503    0.4331    0.0000 C   0  0  0  0  0  0  0  0  0  0  0  0
   -4.8519    1.9299    0.0000 C   0  0  0  0  0  0  0  0  0  0  0  0
   -6.4072    0.7899    0.0000 C   0  0  0  0  0  0  0  0  0  0  0  0
   -3.4592    0.5961    0.0000 C   0  0  0  0  0  0  0  0  0  0  0  0
   -2.8548    1.9690    0.0000 C   0  0  0  0  0  0  0  0  0  0  0  0
   -1.3637    2.1320    0.0000 C   0  0  0  0  0  0  0  0  0  0  0  0
   -0.4769    0.9221    0.0000 C   0  0  0  0  0  0  0  0  0  0  0  0
    0.4098   -0.2877    0.0000 C   0  0  0  0  0  0  0  0  0  0  0  0
    3.3920    0.0383    0.0000 C   0  0  0  0  0  0  0  0  0  0  0  0
  1  2  2  0
  2  3  1  0
  4  2  1  1
  4  5  1  0
  5  6  1  0
  6  7  1  0
  7  8  1  6
  7  9  1  0
  9 10  1  0
 10 11  1  0
 11 12  1  1
 11 13  1  0
 13 14  1  1
 14 15  1  0
 16 15  1  6
 16 17  1  0
 17 18  1  6
 17 19  1  0
 19 20  1  0
 20 21  1  0
 21 22  1  6
 21 23  1  0
 23 24  1  0
 23 25  1  0
 23 26  1  0
 26 27  1  6
 27 28  1  0
 28 29  1  0
 29 30  1  6
 13 31  1  0
 31  4  1  6
 31  7  1  0
 29 11  1  0
 29 16  1  0
 26 17  1  0
M  END
>  <identifier>  (319) 
CNP0269715.3

>  <canonical_smiles>  (319) 
C=C(C)[C@@H]1CC[C@]2(C)CC[C@]3(C)[C@H](CC[C@@H]4[C@@]5(C)CC[C@H](O)C(C)(C)[C@@H]5CC[C@]43C)[C@@H]12

>  <standard_inchi>  (319) 
InChI=1S/C30H50O/c1-19(2)20-11-14-27(5)17-18-29(7)21(25(20)27)9-10-23-28(6)15-13-24(31)26(3,4)22(28)12-16-30(23,29)8/h20-25,31H,1,9-18H2,2-8H3/t20-,21+,22-,23+,24-,25+,27+,28-,29+,30+/m0/s1

>  <standard_inchi_key>  (319) 
MQYXUWHLBZFQQO-QGTGJCAVSA-N

>  <name>  (319) 
Lupeol

>  <iupac_name>  (319) 
(1~{R},3~{a}~{R},5~{a}~{R},5~{b}~{R},7~{a}~{R},9~{S},11~{a}~{R},11~{b}~{R},13~{a}~{R},13~{b}~{R})-1-isopropenyl-3~{a},5~{a},5~{b},8,8,11~{a}-hexamethyl-1,2,3,4,5,6,7,7~{a},9,10,11,11~{b},12,13,13~{a},13~{b}-hexadecahydrocyclopenta[a]chrysen-9-ol

>  <annotation_level>  (319) 
5

>  <total_atom_count>  (319) 
81

>  <heavy_atom_count>  (319) 
31

>  <molecular_weight>  (319) 
426.73

>  <exact_molecular_weight>  (319) 
426.38617

>  <molecular_formula>  (319) 
C30H50O

>  <alogp>  (319) 
8.02

>  <topological_polar_surface_area>  (319) 
20.23

>  <rotatable_bond_count>  (319) 
1

>  <hydrogen_bond_acceptors>  (319) 
1

>  <hydrogen_bond_donors>  (319) 
1

>  <hydrogen_bond_acceptors_lipinski>  (319) 
1

>  <hydrogen_bond_donors_lipinski>  (319) 
1

>  <lipinski_rule_of_five_violations>  (319) 
1

>  <aromatic_rings_count>  (319) 
0

>  <qed_drug_likeliness>  (319) 
0.42

>  <formal_charge>  (319) 
0

>  <fractioncsp3>  (319) 
0.93

>  <number_of_minimal_rings>  (319) 
5

>  <van_der_walls_volume>  (319) 
444.90

>  <contains_sugar>  (319) 
False

>  <contains_ring_sugars>  (319) 
False

>  <contains_linear_sugars>  (319) 
False

>  <murcko_framework>  (319) 
C1CCC2C(C1)CCC3C2CCC4C5CCCC5CCC43

>  <np_likeness>  (319) 
3.05

>  <chemical_class>  (319) 
Prenol lipids

>  <chemical_sub_class>  (319) 
Triterpenoids

>  <chemical_super_class>  (319) 
Lipids and lipid-like molecules

>  <direct_parent_classification>  (319) 
Lupane triterpenoids

>  <np_classifier_pathway>  (319) 
Terpenoids

>  <np_classifier_superclass>  (319) 
Triterpenoids

>  <np_classifier_class>  (319) 
Lupane triterpenoids

>  <np_classifier_is_glycoside>  (319) 
False

>  <organisms>  (319) 
Aaptos aaptos|Abies balsamea|Abies nobilis|Abies sp.|Abroma augusta|Abroma augustum|Abronia villosa|Abutilon grandiflorum|Abutilon indicum|Acacia confusa|Acacia dealbata|Acacia mellifera|Acacia myrtifolia|Acacia salicina|Acacia sparsiflora|Acacia trineura|Acaena splendens|Acanthaster planci|Acanthus ilicifolius|Acer griseum|Achillea biebersteinii|Achillea magnifica|Achillea micrantha|Achillea millefolium|Achillea odorata|Achillea pseudopectinata|Achillea spinulifolia|Achillea tuzsonii|Achillea wilhelmsii|Achyranthes bidentata|Acidipropionibacterium acidipropionici|Aconitum nevadense|Aconitum subcuneatum|Acrisione denticulata|Acritopappus longifolius|Acritopappus prunifolius|Acrocomia sclerocarpa|Acrostichum aureum|Adansonia digitata|Adenia cissampeloides|Adenocarpus hispanicus|Adiantum caudatum|Adina racemosa|Aegle Marmelos|Aegle marmelos|Aegopordon berarioides|Aeollanthus buchnerianus|Aeonium cuneatum|Aframomum alboviolaceum|Agarum cribrosum|Agathosma thymifolia|Agave shawii|Ageratina ligustrina|Ageratina lingustrina|Ageratum fastigiatum|Aglaia australiensis|Aglaia elaeagnoidea|Aglaia elliptica|Aglaia forbesii|Aglaia rubiginosa|Agrostis epigeios|Ahnfeltia plicata|Ailanthus sp.|Ajuga parviflora|Ajuga reptans|Alafia barteri|Alaria crispa|Albizia gummifera|Albizia julibrissin|Albizia schimperiana|Albizia versicolor|Alchornea cordifolia|Alchornea latifolia|Aleuroglyphus ovatus|Alexandrium excavatum|Alkanna cappadocica|Alkanna hirsutissima|Allagopappus viscosissimus|Allanblackia gabonensis|Allanblackia monticola|Allanblackia monticola Staner L.C|Allium waldsteinii|Alnaster fruticosus|Alnus cordata|Alnus firma|Alnus incana|Alnus rubra|Alnus rugosa|Aloe ballyi|Aloe castellorum|Aloe deltoideodonta|Alphitonia petriei|Alphitonia petriei Braid et White.|Alseodaphne corneri|Alstonia boonei|Alstonia scholaris|Amaranthus caudatus|Amaranthus cruentus|Amaranthus hybr|Amaranthus hybridus|Amaranthus retroflexus|Amblyraja radiata|Ambrosia grayi|Ambrosia hispida|Amelanchier spicata|American ginseng|Amomum daniellii|Amoora rohituka|Ampelozizyphus amazonicus|Amsinckia menziesii|Amsonia grandiflora|Amycolatopsis sulphurea|Anadenanthera colubrina|Anadenanthera colubrine|Anaphalis margaritacea|Anatheca montagnei|Ancathia igniaria|Ancistrocladus cochinchinensis|Ancistrocladus tectorius|Angelica saxatilis|Angylocalyx oligophyllus|Ania latifolia|Aniba parviflora|Annona impressivenia|Annulohypoxylon truncatum|Antennaria dioica|Antennaria sp.|Antheroporum pierrei|Anthocleista procera|Antidesma venosum|Aphelasterias japonica|Aphyllocladus denticulatus|Apis mellifera|Aplidium conicum|Aplidium orthium|Apocynum cannabinum|Apocynum venetum|Apterostigma dentigerum|Arabidopsis lyrata subsp. lyrata|Arabidopsis thaliana|Aralia bipinnata|Aralia hispida|Aralia nudicaulis|Araucaria araucana|Arbutus menziesii|Arbutus sp.|Arbutus unedo|Archidendron ellipticum|Arcopilus aureus|Arctium lappa|Arctium sp.|Arctotheca populifolia|Arctotis arctotoides|Arctotis aspera|Ardisia kivuensis|Ardisia staudtii|Arenaria juncea|Arisaema flavum|Aristolochia elegans|Arnebia hispidissima|Arnica foliosa|Artemisia alba|Artemisia austriaca|Artemisia dentata|Artemisia monosperma|Artemisia montana|Artemisia umbelliformis|Arum maximum|Asclepias sp.|Asclepias subulata|Aspergillus candidus|Aspergillus unguis|Asphodeline tenuior|Asphodelus albus|Asphodelus sp.|Aspidosperma pyrifolium|Aspilia parvifolia|Aspilia pluriseta|Asplenium septentrionale|Aster acuminatus|Aster batangensis|Aster fruticosus|Aster indicus|Asteracantha longifolia|Astragalus adsurgens|Astragalus caprinus|Astragalus gummifer|Astragalus onobrychis|Astragalus pycnanthus|Astragalus spinosus|Astrantia major|Atalantia racemosa|Atalantia wightii|Athamanta vayredana|Atractylodes lancea|Atractylodes macrocephala|Atuna racemosa|Aulacocephalus temmincki|Austroeupatorium inulifolium|Avicennia officinalis|Avrainvillea nigricans|Baccharis dracunculifolia|Baccharis genistifolia|Baccharis gnidiifolia|Baccharis minutiflora|Baccharoides anthelmintica|Bacillus subtilis|Backhousia angustifolia|Bacopa monnieri|Baeckea crenulata|Baeomyces roseus|Baeria californica|Bagarius bagarius|Baileya multiradiata|Balanophora fungosa|Balanophora indica|Balanophora japonica|Balsamorhiza hookeri|Baphicacanthus cusia|Barleria prionitis|Barringtonia acutangula|Barringtonia racemosa|Bauhinia purpurea|Beauveria felina|Befaria glutinosa|Beilschmiedia erythrophloia|Bejaranoa semistriata|Berberis brandisiana|Berberis floribunda|Berberis orthobotrys|Berberis vulgaris|Berlinia tomentosa|Bersama swinnyi|Bersama swinyi|Bersama yangambiensis|Betula alleghaniensis|Betula alnoides|Betula cordifolia|Betula dahurica|Betula davurica|Betula divaricata|Betula ermanii|Betula lenta|Betula maximowicziana|Betula papyrifera|Betula pendula|Betula platyphylla|Betula populifolia|Betula pubescens|Betula schmidtii|Betula sp.|Betula × caerulea|Biancaea decapetala|Bidens cernua|Bishopanthus soliceps|Bishopiella elegans|Bitis arietans|Blainvillea acmella|Blighia welwitschii|Blumea eriantha|Blumea malcolmii|Bombax ceiba|Bombax malabaricum|Bombyx mori|Bonamia spectabilis|Boraginaceae|Boronia inornata|Bosistoa brassii|Bosistoa selwynii|Bosistoa transversa|Boswellia carteri|Boswellia carterii|Boswellia sacra|Boswellia sp.|Bothriocline amplifolia|Bothriocline longipes|Botryosphaeria berengeriana|Bowdichia sp.|Bowdichia virgilioides|Brachylaena huillensis|Brachylaena perrieri|Brachylaena ramiflora|Brachylaena ramiflora var. ramiflora|Breea segeta|Brenneria rubrifaciens|Breynia fruticosa|Bruguiera cylindrica|Bruguiera gymnorhiza|Bruguiera gymnorrhiza|Bruguiera parviflora|Bryonia dioica|Bryum rutilans|Buddleja cordata|Buddleja globosa|Buddleja variabilis|Bulbinella floribunda|Buphane fischeri|Bupleurum acutifolium|Bursera graveolens|Bursera simaruba|Butea monosperma|Buxus natalensis|Buxus papillosa|Byrsonima crassifolia|Byrsonima microphylla|Byssochlamys fulva|Cacalia pilgeriana|Cacia confusa|Caesalpinia Decapetala|Caesalpinia Pulcherrima|Caesalpinia bonducella|Caesalpinia decapetala|Caesalpinia pulcherrima|Caiman crocodilus|Cajanus cajan|Calcarisporium thermophilum|Calea jamaicensis|Calea megacephala|Calea prunifolia|Calea subcordata|Calendula officinalis|Calliandra haematocephala|Callilepis laureola|Callilepis salicifolia|Callitris drummondii|Calophyllum gracilipes|Caloplaca ferruginea|Calvatia lilacina|Calycanthus chinensis|Calycotome villosa|Camchaya loloana|Camellia crapnelliana|Camellia japonica|Camellia oleifera|Camellia sasanqua|Camellia sinensis|Campylopus clavatus|Canavalia ensiformis|Candida albicans|Capsella bursa-pastoris|Capuronianthus mahafalensis|Caraipa densifolia|Carapa grandiflora|Cardiospermum halicacabum|Cardiospermum hirsutum|Carex aridula|Carlina sp.|Carpinus cordata|Carthamus tinctorius|Caryocar villosum|Cassia Siamea|Cassia fistula|Cassia javanica subsp. nodosa|Cassia siamea Lamk.|Cassia speciosa|Cassytha melantha|Castanea dentata|Castanea sp.|Castanopsis sclerophylla|Castor fiber|Catalpa sp.|Catananche caerulea|Cayratia japonica|Ceanothus americanus|Cecropia glaziovi|Celastrus paniculatus|Cenostigma pyramidale|Centaurea aspera|Centaurea horrida|Centaurea nigra|Centaurea nigrescens|Centaurea regia|Centaurea scoparia|Centaurea sinaica|Centella asiatica|Centipeda Minima|Centipeda minima|Cephalotaxus sinensis|Ceramaster patagonicus|Ceriops Tagal|Ceriops decandra|Ceriops tagal|Ceropegia juncea|Cetorhinus maximus|Chalciporus piperatus|Chamerion dodonaei|Chamomilla recutita|Chamomilla suaveolens|Cheiropleuria bicuspis|Chiton tuberculatus|Chondropetalum paniculatum|Chrozophora obliqua|Chrozophora plicata|Chrozophora tinctoria|Chrozophora verbascifolia|Chrysanthemum morifolium|Chrysanthemum uliginosum|Chrysocoma tenuifolia|Chrysolaena cognata|Chrysolaena platensis|Chrysolaena propinqua|Chthonocephalus muellerianus|Chuquiraga atacamensis|Chuquiraga aurea|Chuquiraga avellanedae|Chuquiraga erinacea|Chuquiraga kuschelii|Chuquiraga oppositifolia|Chuquiraga rosulata|Chuquiraga straminea|Chuquiraga ulicina|Chuquiraga ulicina ssp. ulicina|Cicer arietinum|Cichorium intybus|Cichorium spinosum|Cineraria grandibracteata|Cineraria parvifolia|Cipadessa fruticosa|Cirsium japonicum|Cirsium nipponicum|Cirsium setosum|Cirsium wallichii|Cissus tricuspidata|Citropsis articulata|Citrus bigaradia|Citrus hybr|Citrus medica|Citrus medica var. sarcodactylis|Citrus rugulosa|Cladiella krempfi|Cladonia cryptochlorophaea|Cladonia impexa|Cladonia macaronesica|Cladosporium cucumerinum|Clathrina clathrus|Cleistanthus gracilis|Cleistanthus indochinensis|Clematis tangutica|Clerodendrum mandarinorum|Clintonia borealis|Clusia havetioides|Cnidoscolus urens|Coccoloba excoriata|Codium arabicum|Codium dwarkense|Coleogyne ramosissima|Colladonia triquetra|Colliguaja salicifolia|Comamonas testosteroni|Comantheria briareus|Commiphora dalzielii|Commiphora holtziana|Comptonia peregrina|Conger myriaster|Conocephalum japonicum|Convallaria keiskei|Convolvulus scammonia|Conyza canadensis|Conyza japonica|Coprinus atramentarius|Coptis trifolia|Cordiera macrophylla|Cordylanthus kingii|Cordyline indivisa|Coreopsis fasciculata|Cornus canadensis|Cornus capitata|Cornus kousa|Coronophora gregaria|Corydalis calliantha|Corydalis cornuta|Corydalis densiflora|Corydalis persica|Corydalis rosea|Corynanthe pachyceras|Corynascus setosus|Cosmos bipinnatus|Cota tinctoria|Cousinia adenosticta|Coussarea paniculata|Craibiodendron yunnanense|Crambe tatarica|Crataeva benthami|Crataeva sp.|Crateva magna|Crateva nurvala|Crateva religiosa|Cratoxylum cochinchinense|Crepis foetida|Crinipellis scabella|Crinum defixum|Crinum latifolium|Critoniopsis paradoxa|Cronquistianthus bishopii|Crotalaria Assamica|Crotalaria Pallida|Crotalaria assamica|Crotalaria pallida|Crotalus atrox|Croton cumingii|Croton eluteria|Croton gratissimus|Croton haumanianus|Croton hieronymi|Croton megalocarpus|Croton zambesicus|Crotone hieronymi|Crucianella maritima|Cryptocarya densiflora|Cryptosphaeria eunomia|Cucurbita moschata|Culcitium canescens|Cullen plicatum|Cunninghamella echinulata|Cunninghamia lanceolata var. konishii|Cuphea carthagenensis|Curcuma kwangsiensis|Curio talinoides|Cuscuta reflexa|Cussonia spicata|Cutleria multifida|Cyanthillium patulum|Cyathocline lyrata|Cyathus helenae|Cyclamen neapolitanum|Cyclolepis genistoides|Cylicodiscus gabunensis|Cymbastela coralliophila|Cymodocea nodosa|Cynara cardunculus|Cynara humilis|Cynoglossum amabile|Cynoglossum viridiflorum|Cypripedium acaule|Cyrtocymura scorpioides|Cystophora scalaris|Cystoseira mediterranea|Dacrydium biforme|Dalbergia congestiflora|Dalbergia ecastaphyllum|Dalea tinctoria|Daphne aurantiaca|Daphne blagayana|Daphne genkwa|Dasyphyllum diacanthoides|Datura inoxia|Daucus carota|Debregeasia saeneb|Debregeasia salicifolia|Deguelia amazonica|Deguelia hatschbachii|Delphinium campylocentrum|Dendranthema morifolium|Dendranthema sp.|Dendrobium candidum|Dendroctonus pseudotsugae|Dendropanax querceti|Dermocybe semisanguinea|Derris amazonica|Derris brevipes|Derris canarensis|Derris cuneifolia|Derris laxiflora|Derris oblonga|Derris trifoliata|Desmodium canadense|Desmodium incanum|Desmodium styracifolium|Dianthus armeria|Dichothrix utahensis|Dicliptera japonica|Dicoma anomala|Didemnum inarmatum|Didemnum obscurum|Digitalis canariensis|Digitalis obscura|Dimetia scandens|Dinophysis fortii|Dioscorea villosa|Dioscoreophyllum cumminsii|Diospyros Castanea|Diospyros Ebenum|Diospyros Kaki|Diospyros Lotus|Diospyros Maritima|Diospyros Montana|Diospyros abyssinica|Diospyros acuta|Diospyros argentea|Diospyros bipindensis|Diospyros blancoi|Diospyros bussei|Diospyros buxifolia|Diospyros canaliculata|Diospyros candalleana|Diospyros candolleana|Diospyros castanea|Diospyros cauliflora|Diospyros chevalieri|Diospyros cinnabarina|Diospyros consolatae|Diospyros cordifolia|Diospyros cornii|Diospyros crassiflora|Diospyros curranii|Diospyros dendo|Diospyros diepenhorstii|Diospyros discolor|Diospyros ebenum|Diospyros ehretioides|Diospyros elliptifolia|Diospyros embryopteris|Diospyros eriantha|Diospyros evena|Diospyros exsculpta|Diospyros ferrea|Diospyros fragrans|Diospyros gabunensis|Diospyros gracilescens|Diospyros greeniway|Diospyros greenwayi|Diospyros guianensis|Diospyros hallieri|Diospyros hirsuta|Diospyros hoyleana|Diospyros ismailii|Diospyros iturensis|Diospyros kaki|Diospyros kaki var.sylvestris|Diospyros kamerunensis|Diospyros longiflora|Diospyros lotus|Diospyros lycioides|Diospyros mafiensis|Diospyros maingayi|Diospyros malabarica|Diospyros mannii|Diospyros maritima|Diospyros maritima BLUME|Diospyros mcphersonii|Diospyros melanoxylon|Diospyros mespiliformis|Diospyros mollis|Diospyros monbuttensis|Diospyros monobuttensis|Diospyros montana|Diospyros moonii|Diospyros morrisiana|Diospyros natalensis|Diospyros nigra|Diospyros obliquifolia|Diospyros oppositifolia|Diospyros paniculata|Diospyros peregrina|Diospyros pseudo-malabarica|Diospyros quaesita|Diospyros rheophytica|Diospyros rhodocalyx|Diospyros sanza-minika|Diospyros siamang|Diospyros siamensis|Diospyros siderophylla|Diospyros singaporensis|Diospyros spinescens|Diospyros sumatrana|Diospyros sylvatica|Diospyros thwaitesii|Diospyros tomentosa|Diospyros toposia|Diospyros virginiana|Diospyros walkeri|Diospyros wallichii|Diospyros zenkeri|Diplacus longiflorus|Diplazium esculentum|Diplopterygium glaucum|Diploschistes cretaceus|Dipteryx odorata|Dirca occidentalis|Discaria chacaye|Disepalum plagioneurum|Distimake tuberosus|Disynaphia halimifolia|Doellingeria umbellata var. umbellata|Dolichandra unguis-cati|Dolichandrone crispa|Dolichospermum viguieri|Doniophyton anomalum|Doodia picta|Dorstenia angusticornis|Dorstenia convexa|Dorstenia lindeniana|Dorstenia psilurus|Dracaena cinnabari|Dryocosmus kuriphilus|Dryopteris crenata|Drypetes littoralis|Drypetes roxburghii|Drypetes tessmanniana|Duboscia macrocarpa|Duhaldea cappa|Dunalia solanacea|Dunaliella tertiolecta|Durio zibethinus|Dysoxylum malabaricum|Dysoxylum spectabile|Dytiscus marginalis|Echinops echinatus|Echinops giganteus|Echium plantagineum|Edgeworthia gardneri|Ekebergia pterophylla|Elaeodendron buchananii|Elaphoglossum lindbergii|Elateriospermum tapos|Elephantopus Scaber|Elephantopus mollis|Elephantopus scaber|Elephantopus tomentosus|Elmerrillia papuana|Embelia ribes|Enkianthus cernuus|Entada scandens|Epaltes mexicana|Ephedra equisetina|Epigaea asiatica|Epigaea repens|Epilobium dodonaei|Epinetrum cordifolium|Eragrostis curvula|Eragrostis viscosa|Eremanthus bicolor|Eremanthus brasiliensis|Eremanthus capitatus|Eremanthus crotonoides|Eremanthus glomerulatus|Eremanthus incanus|Eremanthus mollis|Eremanthus pohlii|Eremanthus veadeiroensis|Eremophila serrulata|Eria macrophylla|Eria robusta|Eria tomentosa|Erica arborea L.|Erigeron linifolius|Eriolaena hookeriana|Ervum lens|Erysimum siliculosum|Erythrina orientalis|Erythrina schliebenii|Erythrina subumbrans|Erythroxylum passerinum|Esenbeckia|Esenbeckia nesiotica|Esenbeckia yaxhoob Lundell|Eskemukerjea megacarpum|Espeletia moritziana|Ethulia conyzoides|Ethulia gracilis|Eucalyptus exserta|Eucalyptus froggattii|Eucalyptus occidentalis|Eucalyptus regnans|Euclea crispa|Euclea divinorum|Euclea natalensis|Eulophia nuda|Eunicella cavolinii|Euodia|Euonymus alatus|Euonymus carnosus|Euonymus laxiflorus|Eupatorium altissimum|Eupatorium hyssopifolium|Eupatorium macrocephalum Lee.|Eupatorium perfoliatum|Euphorbia aellenii|Euphorbia aphylla|Euphorbia bivonae|Euphorbia chamaesyce|Euphorbia characias|Euphorbia cheiradenia|Euphorbia drupifera|Euphorbia fischeriana|Euphorbia formosana|Euphorbia granulata|Euphorbia hirta|Euphorbia humifusa|Euphorbia iberica|Euphorbia kansui|Euphorbia larica|Euphorbia latazi|Euphorbia lateriflora|Euphorbia maculata|Euphorbia nicaeensis|Euphorbia paralias|Euphorbia peplus|Euphorbia portlandica|Euphorbia portulacoides|Euphorbia sancta|Euphorbia segetalis|Euphorbia sp.|Euphorbia supina Rafin|Euphorbia tithymaloides|Euphorbia tortilis|Euphorbia trigona|Euphrasia nemorosa|Euphrasia stricta|Euplexaura erecta|Eupoecilia ambiguella|Euthamia graminifolia|Evasterias troschelii|Evodiopanax innovans|Excoecaria agallocha|Excoecaria parvifolia|Eysenhardtia platycarpa|Fagara cuspidata|Fagara heitzii|Fagara tessmannii Engl.|Fagonia mollis|Fatoua pilosa|Fatoua villosa|Fenneropenaeus orientalis|Ferula ammoniacum|Festuca argentina|Ficus Carica|Ficus Microcarpa|Ficus auriculata|Ficus carica|Ficus glumosa|Ficus microcarpa|Ficus polita|Ficus pumila|Ficus rasemosa|Ficus sarmentosa var. thunbergii|Ficus septica|Ficus sp.|Flemingia macrophylla|Flindersia laevicarpa|Flindersia laevicarpa C.T.White et Francis.|Florestina tripteris|Flourensia ilicifolia|Flueggea sp.|Formica fusca|Forsteronia refracta|Fraxinus americana|Fraxinus sp.|Fridericia chica|Fritillaria cirrhosa|Fritillaria ningguoensis|Fritillaria raddeana|Fromia milleporella|Frullania tamarisci|Fumaria micrantha|Gaillardia spathulata|Galactites tomentosus|Ganoderma lucidum|Garcinia bancana|Garcinia bancana MIQ|Garcinia buchneri|Garcinia hombroniana|Garcinia smeathmanii|Garcinia smeathmannii|Garcinia staudtii|Garcinia vilersiana|Gardenia lucida|Gardenia saxatilis|Gaultheria procumbens|Geigeria brevifolia|Gelasia cretica|Gentiana lutea|Gentiana scabra|Geoffroea decorticans|Girgensohnia diptera|Gleichenia japonica|Glochidion eriocarpum|Glochidion philippicum|Glochidion puberum|Glycine falcata|Glycosmis pseudoracemosa|Glycyrrhiza sp.|Glycyrrhiza triphylla|Gnaphalium oligandrum|Gochnatia hypoleuca|Goldfussia yunnanensis|Goniothalamus tamirensis|Gonocaryum calleryanum|Gonospermum canariense|Gouania ulmifolia|Grangea maderaspatana|Great yellow gentian|Grewia bicolor|Grewia damine|Grewia mollis|Grindelia nana|Grindelia perennis|Grona styracifolia|Guatteria elata|Guilandina bonduc|Gustavia longifolia|Gutenbergia cordifolia var. marginata|Gymnanthemum myrianthum|Gymnocarpium robertianum|Gynostemma yixingense|Gynura japonica|Hakea saligna|Halichondria okadai|Haliclona tubifera|Halimeda monile|Halimium halimifolium|Halopitys incurvus|Halothamnus somalensis|Haloxylon salicornicum|Hamamelistes betulae|Haminoea orbignyana|Haplocarpha lyrata|Haploclathra leiantha|Haploclathra paniculata|Hapsidospora irregularis|Harpullia arborea|Harungana madagascariensis|Hedeoma pulegioides|Hedera rhombea|Hedyotis acutangula|Hedysarum multijugum|Hedysarum polybotrys|Hedysarum sikkimense|Heisteria nitida|Helianthus debilis|Helianthus niveus|Helianthus radula|Helichrysum candolleanum|Helichrysum reflexum|Helicoverpa zea|Helietta apiculata|Heliopsis longipes|Heliotropium filifolium|Heliotropium floridum|Heliotropium hirsutissimum|Heliotropium indicum|Heliotropium olgae|Helminthotheca echioides|Hemidesmus indicus|Hernandia sonora|Herniaria fontanesii|Heterocoma ekmaniana|Heterotheca grandiflora|Hibiscus cannabinus|Hieracium canadense|Hieracium kalmii|Hieronyma alchorneoides|Hijmania angusticornis|Hilliardiella aristata|Himalaiella deltoidea|Hippasteria phrygiana|Hippeastrum morelianum|Hippophae rhamnoides|Hoffmannia strigillosa|Holarrhena floribunda|Holarrhena pubescens|Hololepis pedunculata|Hopea jucunda|Hovenia acerba|Hoya australis|Hoya naumannii|Humboldtia laurifolia|Humulus lupulus|Hyalis argentea|Hydnocarpus pentandrus|Hydrangea serrata|Hygrophila auriculata|Hygrophila schulli|Hygrophorus eburneus|Hymenopappus tenuifolius|Hypericum balearicum|Hypericum perforatum|Hypestes purpurea|Hypnum cupressiforme|Hypoestes purpurea|Hypoxylon microplacum|Hyptis suaveolens|Ibacus peronii|Ilex brevicuspis|Ilex cornuta|Ilex latifolia|Ilex macropoda|Ilex oldhami|Ilex verticillata|Illicium difengpi|Inga paterno|Inga punctata|Inula britannica|Inula grantioides|Inula japonica|Inula linariifolia|Inula salsoloides|Inulanthera calva|Io fluvialis|Iphiona grantioides|Ipomoea muelleri|Iris hoogiana|Iris pallida|Iris versicolor|Isolona campanulata|Ixeridium gracile|Ixeris chinensis|Ixeris denticulata|Ixora chinensis|Ixora coccinea|Iyengaria stellata|Jaborosa caulescens|Jacobaea boissieri|Jacobaea pancicii|Jacobaea vulgaris|Jamesoniella colorata|Jasminum grandiflorum|Jatropha grossidentata|Jeffreycia zanzibarensis|Joannesia princeps|Juglans nigra|Juglans sinensis|Jugo|Jungia polita|Juniperus ashei|Juniperus communis|Juniperus foetidissima|Juniperus horizontalis|Juniperus rigida var. conferta|Kadsura heteroclita|Kaempferia marginata|Kaempferia rotunda|Kalanchoe blossfeldiana|Kalmia angustifolia|Kaunia saltensis|Khaya grandifoliola|Kibatalia maingayi|Kickxia elatine|Kielmeyera albopunctata|Kleinia anteuphorbium|Kleinia grandiflora|Koanophyllon albicaule|Koanophyllon albicaulis|Koelpinia linearis|Kothala himbutu|Lactarius sanguifluus|Lactobacillus helveticus|Larix laricina|Lasianthus gardneri|Lathyrus sativus|Lathyrus tingitanus|Launaea arborescens|Launaea aspleniifolia|Laurentia longiflora|Lavandula sp.|Lecanora lividocinerea|Lecanora nipponica|Lecanora sordida|Lecidea speirodes|Leitneria floridana|Lemaireocereus griseus|Lendenfeldia frondosa|Lens culinaris|Lepidaploa cotoneaster|Lepidiota negatoria|Lepidosperma ustulatum|Lepraria citrina|Leptogorgia alba|Leptospermum recurvum|Leptosyne bigelovii|Leptothorax acervorum|Lessingianthus compactiflorus|Lessingianthus rubricaulis|Leucaena leucocephala|Leucanthemum maximum|Leuceria bridgesii|Leuceria floribunda|Leuceria gayana|Leuceria lithospermifolia|Leucheria glacialis|Leucheria rosea|Leucheria runcinata|Leucocarpus perfoliatus|Leucothoe grayana|Leucothoe grayana Max.|Liabum bourgeaui|Liabum floribundum|Liabum solidagineum|Liatris aspera|Liatris gracilis|Liatris laevigata|Liatris spicata|Liatris squarrosa|Libidibia paraguariensis|Ligularia anoleuca|Ligularia dentata|Ligularia dentata Hara|Ligularia intermedia|Ligularia kanaitzensis|Ligularia odontomanes|Ligularia pleurocaulis|Ligularia sagitta|Ligularia veitchiana|Ligustrum japonicus|Ligustrum lucidum|Limonia acidissima|Liparis nakaharai|Lipschitziella deltoidea|Liriodendron tulipifera|Lithocarpus elegans|Lithodora fruticosa|Lithospermum canescens|Litsea zeylanica|Littorina littorea|Lobophora variegata|Lolium cuneatum|Lomentaria catenata|Lonchocarpus atropurpureus|Lonicera tatarica var. morrowii|Lophanthus chinensis|Lophopetalum wallichii|Lophopetalum wightianum|Lophozia hatcheri|Loranthus parasiticus|Lotus japonicus|Lotus villosus|Lubomirskia baicalensis|Luehea candicans|Lunularia cruciata|Lupinus luteus|Luvunga Sarmentosa|Luvunga angustifolia|Luvunga sarmentosa|Luvunga sarmentosa (Bl.) Kurz.|Luxemburgia nobilis|Luxemburgia octandra|Lychnophora candelabrum|Lychnophora columnaris|Lychnophora ericoides|Lychnophora markgravii|Lychnophora pseudovillosissima|Lychnophora salicifolia|Lycium Chinense|Lycium chinense|Lycoperdon pyriforme|Lycoris radiata|Lycoseris triplinervia|Lysimachia candida|Mabea fistulifera|Macadamia ternifolia|Maclura pomifera|Macrozamia communis|Maianthemum canadense|Mallotus philippensis|Mallotus sp.|Mandevilla martiana|Mangifera indica|Maquira coriacea|Marsdenia rostrata|Marsypianthes chamaedrys|Maschalostachys markgrafii|Matricaria discoidea|Matricaria matricarioides|Mattfeldanthus andrade-limae|Maytenus apurimacensis|Maytenus boaria|Maytenus chiapensis|Maytenus cuzcoina|Maytenus horrida|Maytenus salicifolia|Melaleuca genistifolia|Melaleuca uncinata|Melilotus messanensis|Melilotus siculus|Mentha pulegiformis|Mesua elegans|Metalasia capitata|Metalasia lichtensteinii|Metalasia pulcherrima|Methanothermobacter thermautotrophicus|Methylosinus trichosporium|Metrodorea flavida|Metzgeria pubescens|Michelia rajaniana|Miconia myriantha|Micranthemum umbrosum|Microglossa pyrifolia|Micromelum minutum|Micromonas pusilla|Microtropis fokienensis|Mikania dusenii|Mikania guaco|Mikania haenkeana|Mikania micrantha|Mikania minima|Mikania rimachii|Mikania stipulacea|Millettia dura|Millettia erythrocalyx|Millettia pinnata|Millettia puguensis|Millettia thonningii|Mimusops elengi|Mitchella repens|Mitrephora heyneana|Modiolus demissus|Moghania macrophylla|Monascus purpureus|Monechma debile|Monechma debilis|Montanoa hibiscifolia|Monteverdia aquifolium|Monteverdia cuzcoina|Monteverdia horrida|Monteverdia ilioppjfeowneviufheiuwfew fgr|Monteverdia macrocarpa|Monteverdia retusa|Monteverdia truncata|Moquilea pyrifolia|Morella cerifera|Moringa pterygosperma|Mortonia diffusa|Morus Alba|Morus alba|Morus tinctoria|Moscharia pinnatifida|Mucor hiemalis|Mutisia acerosa|Mutisia acuminata|Mutisia decurrens|Mutisia orbignyana|Mutisia subulata|Mycobacterium leprae|Myoporum platycarpum|Myrica cerifera|Myrica rubra|Myriogramme smithii|Myrovernix scaber|Myrtus tomentosa|Mythimna loreyi|Myxoderma platyacanthum|Nabalus trifoliolatus|Napoleonaea vogelii|Narcissus concolor|Nardostachys jatamansi|Nassauvia aculeata|Nassauvia argentea|Nassauvia darwinii|Nassauvia lagascae|Nassauvia pyramidalis|Nassauvia uniflora|Nauclea gambir|Nauclea officinalis|Negombata magnifica|Neolitsea aciculata|Neolitsea sericea|Neomirandea eximia|Neothyonidium magnum|Nepeta caesarea|Nephroma australe|Neurolaena macrophylla|Nicotiana raimondii|Nicotiana trigonophylla|Nitraria tangutorum|Nonomuraea turkmeniaca|Nothofagus dombeyi|Notholaena aschenborniana|Notholirion bulbuliferum|Nuxia oppositifolia|Nuxia sphaerocephala|Nyctanthes Arbor|Nyctanthes arbor-tristis Linn.|Nymphaea odorata|Ochna obtusata|Ochradenus baccatus|Ocimum gratissimum|Oclemena acuminata|Ocotea acutangula|Odontites vernus|Oenothera biennis|Olea capensis|Olea europaea|Olearia subspicata|Oligochaeta divaricata|Oncoba echinata|Ongokea gore|Ononis vaginalis|Onopordum ambiguum|Onopordum anatolicum|Onoseris lopezii|Onoseris onoseroides|Onychopetalum amazonicum|Oophaga speciosa|Ophiolepis superba|Orbivestus cinerascens|Oreaster nodosus|Oricia gabonensis|Oricia suaveolens|Ormosia coarctata|Ormosia flava|Ormosia henryi|Orobanche rapum-genistae|Oroxylum indicum|Orthopappus angustifolius|Oryza coarctata|Oscillatoria princeps|Osmundaria colensoi|Osteospermum imbricatum|Ouratea semiserrata|Oxylobus arbutifolius|Oxylobus oaxacanus|Ozoroa insignis|Pachybasium candidum|Pachysandra terminalis|Paeonia emodi|Paeonia lactiflora|Palaquium canaliculatum|Paliurus hemsleyanus|Panax ginseng|Panzeria canescens|Papaver tatricum|Papilio phorcas|Parabenzoin trilobum|Paracoccus denitrificans|Parahancornia amara|Parahancornia fasciculata|Paralychnophora bicolor|Parasenecio pilgerianus|Parastrephia lepidophylla|Parkia biglobosa|Parmelia damaziana|Parsonsia alboflavescens|Parthenium argentatum|Patellaria scruposa|Paulownia coreana|Pedilanthus Tithymaloides|Pedilanthus tithymaloides|Peltogyne pubescens|Peltostigma guatemalense|Penicillium abidjanum|Penstemon mucronatus|Penstemon richardsonii|Penstemon secundiflorus|Pentadesma butyracea|Pentzia calva|Pera benensis|Perenniporia ochroleuca|Perezia carthamoides|Perezia lactucoides|Perezia linearis|Perezia lyrata|Perezia megalantha|Perezia nutans|Perezia recurvata|Periconia atropurpurea|Periploca aphylla|Periploca laevigata|Perna canaliculus|Perrottetia arisanensis|Persea indica|Petasites formosanus|Petasites hybridus|Petasites spurius|Petasites tricholobus|Petrosia hebes|Petunia hybr|Peucedanum longifolium|Peucedanum oroselinum|Phaleria cumingii|Pharbitis nil|Phebalium whitei|Phedimus kamtschaticus|Phegopteris bukoensis|Phegopteris subaurita|Philenoptera cyanescens|Phillyrea latifolia L.|Philodendron radiatum|Phlegmariurus fordii|Phlogacanthus Curviflorus|Phlogacanthus curviflorus|Phlogacanthus thyrsiflorus|Phlojodicarpus sibiricus|Phlomis regelii|Phoebe chekiangensis|Phoenix canariensis|Phoenix dactylifera|Pholiota squarrosa|Phora atra|Phoradendron reichenbachianum|Phormia regina|Phormidium sp|Phyllanthus Emblica|Phyllanthus emblica|Phyllanthus flexuosus|Phyllanthus oxyphyllus|Phyllanthus puberus|Phyllanthus sp.|Phyllanthus watsonii|Physalis sordida|Phytolacca acinosa|Phytolacca americana|Picea breweriana|Picea mariana|Picea vulgaris|Picradeniopsis pringlei|Picramnia teapensis|Picris cyanocarpa|Picris echioides|Picris hieracioides|Picris radicata|Pieris japonica|Pieris japonica D.Don.|Pimenta racemosa|Pinna nobilis|Pinus armandii|Pinus montezumae|Pinus picea|Piper aequale|Piper arboreum|Piptadenia macrocarpa|Piptocarpha opaca|Piptocarpha paradoxa|Piptolepis ericoides|Pistacia atlantica|Pistacia lentiscus|Pistacia mexicana|Pistacia sp.|Pisum sativum|Pithecellobium racemosum|Plantago asiatica|Plantago major|Platypodium elegans|Plazia daphnoides|Plectosphaerella cucumerina|Plectranthus caninus|Plectranthus ornatus|Pleiospermium alatum|Pleiotaxis rugosa|Pleurotus japonicus|Pluchea arguta|Pluchea sericea|Plumbago pulchella|Plumeria alba|Plumeria rubra|Poa huecu|Podostictina degelii|Pogonolepis muelleriana|Polyachyrus fuscus|Polybia occidentalis|Polycephalomyces nipponicus|Polygala ruwenzoriensis|Polygonum cymosum|Polyphaga sinensis|Pongamia Pinnata|Pongamia pinnata|Pontederia cordata|Populus grandidentata|Populus tremula L.|Populus tremuloides|Porophyllum riedelii|Portulaca oleracea|Posoqueria latifolia|Potentilla erecta|Potentilla tormentilla|Poterium sanguisorba|Pouteria caimito|Pouzolzia occidentalis|Premna tomentosa|Prenanthes trifoliolata|Primula hirsuta|Pristimera indica|Procris repens|Prorocentrum micans|Protea roupelliae|Proteopsis argentea|Protium heptaphyllum|Prunus japonica|Prunus pensylvanica|Pseudallescheria boydii|Pseudobrickellia brasiliensis|Pseudoceratina arabica|Pseudocyphellaria rubella|Ptelea aptera|Pteleopsis hylodendron|Pteris semipinnata|Pterocarpus marsupium|Pterocarpus santalinus|Pterocarpus sp.|Pterocaulon polystachyum|Pterodon emarginatus|Ptilostemon gnaphaloides|Pueraria montana var. lobata|Pulicaria angustifolia|Pulicaria crispa|Pulsatilla campanella|Punica granatum|Purpura aperta|Pyracantha coccinea|Pyrenophora lolii|Pyrrosia sheareri|Pyrus communis|Pyrus pyrifolia|Pyrus x bretschneideri|Quercus incana|Quercus leucotrichophora|Quercus myrsenaefolia|Quercus myrsinaefolia|Quercus oblongata|Quercus salicina|Quercus sp.|Quercus stenophylla Makino.|Quercus suber|Quercus variabilis|Radula complanata|Ramalina pollinaria|Ranunculus peltatus|Rapanea lancifolia|Rapanea neurophylla|Raputia simulans|Rauvolfia mattfeldiana|Rauvolfia salicifolia|Rauvolfia tetraphylla|Rauvolfia vomitoria|Reichardia tingitana|Relbunium hypocarpium|Reticulitermes flavipes|Rhamnus wightii|Rhaphiolepis umbellata|Rheum palaestinum|Rhinacanthus Nasutus|Rhinacanthus nasutus|Rhizobium etli|Rhizoctonia repens|Rhizophora apiculata|Rhizophora mucronata|Rhizoplaca baranowii|Rhododendron ferrugineum|Rhododendron formosanum|Rhododendron groenlandicum|Rhododendron maximum|Rhododendron sp.|Rhodomyrtus Tomentosa|Rhodomyrtus tomentosa|Rhus sylvestris|Rhus typhina|Rhynchosia minima|Ricinodendron heudelotii|Ricinus sp.|Rodgersia podophylla|Rogeria adenophylla|Rolandra fruticosa|Rosa agrestis|Rosa hybrid cultivar|Rosa taiwanensis|Rosulabryum capillare|Rotheca serrata|Rubrivivax gelatinosus|Rudbeckia hirta var. pulcherrima|Rudbeckia sp.|Rumex conglomeratus|Rumex nepalensis|Russelia equisetiformis|Russula subnigricans|Russula vesca|Ruta microcarpa|Ruta pinnata|Rutaceae|Saccharopolyspora hirsuta|Salix japonica|Salmonella enterica subsp. enterica serovar bovismorbificans|Salta triflora|Salvia aegyptiaca|Salvia bracteata|Salvia bucharica|Salvia caespitosa|Salvia dorrii|Salvia glutinosa|Salvia hispanica|Salvia hypargeia|Salvia infuscata|Salvia mellifera|Salvia miltiorrhiza|Salvia montbretii|Salvia moorcroftiana|Salvia multicaulis|Salvia nubicola|Salvia officinalis|Salvia palaefolia|Salvia palaestina|Salvia pinnata|Salvia pomifera|Salvia roborowskii|Salvia urolepis|Salvia viridis|Samadera indica|Sambucus nigra|Sambucus sp.|Sanguinaria canadensis|Sanicula epipactis|Santiria trimera|Sapium haematospermum|Sapium rigidifolium|Saracha punctata|Sarcomyxa serotina|Sarcophyton buitendijki|Sarcotragus spinosulus|Sarracenia flava|Sarracenia purpurea|Sassafras officinalis|Sauropus quadrangularis|Saussurea Lappa|Saussurea candicans|Saussurea hieracioides|Saussurea japonica|Saussurea lappa Clarke.|Saussurea medusa|Saussurea parviflora|Saussurea superba|Scapania nemorea|Schistostephium heptalobum|Schleichera Oleosa|Schleichera oleosa|Schleichera trijuga|Schotia brachypetala|Schultesia guianensis|Scilla kraussii|Sclerotinia fructicola|Scolopia chinensis|Scolytus multistriatus|Scombresox saurus|Scoparia Dulcis|Scoparia dulcis|Scoparia dulcis L.|Scopolia atropoides|Scorzonera cretica|Scorzonera pseudodivaricata|Scorzonera tomentosa|Scorzoneroides autumnalis|Scrophularia buergeriana|Scutellaria lateriflora|Scutellaria racemosa|Selinum carvifolium|Senecio chionophilus|Senecio desfontainei|Senecio glastifolius|Senecio heliopsis|Senecio kilimanjari|Senecio madagascariensis|Senecio nemorensis|Senecio scandens|Senecio viscosus|Senegalia gaumeri|Senegalia mellifera|Senna obtusifolia|Senna singueana|Senna spectabilis var. spectabilis|Setosphaeria turcica|Shigella flexneri|Shorea sp.|Sidastrum acuminatum|Sideritis argosphacelus|Sideritis argosphacelus var. spicata|Sideritis candicans|Sideritis candicans var.eriocephala|Sideritis flavovirens|Sideritis hirsuta|Sideritis kuegleriana|Sideritis romana|Silene fortunei|Silene inflata|Silybum marianum|Sinoadina racemosa|Sinocrassula indica|Siphoneugena densiflora|Siphonochilus aethiopicus|Skimmia laureola|Smallanthus glabratus|Smenospongia echina|Smilax glabra|Smilax macrophylla|Smilax myosotiflora|Smythea bombaiensis|Solanderia secunda|Solanum dulcamara|Solanum olgae|Solidago canadensis|Solidago chinensis|Solidago petiolaris|Solidago puberula|Solidago rugosa|Sonchus Arvensis|Sonchus arvensis|Sonchus asper|Sonchus macrocarpus|Sonchus neriifolius|Sophora angustifolia|Sophora flavescens|Sophora subprostrata|Sophora substrata|Sophora tonkinensis var. tonkinensis|Sorbus americana|Sorbus commixta|Sorbus sp.|Sorgum bicolor|Sphaerella rubella|Sphaerellopsis filum|Sphagnum rubellum|Spheciospongia vagabunda|Spilanthes ocymifolia|Spiracantha cornifolia|Spirostachys africana|Spirotropis longifolia|Staphylea bumalda|Stauntonia hexahylla|Stauntonia hexaphylla|Stauntonia obovatifoliola|Stemodia foliosa|Stemodia maritima|Stemona saxorum|Stenocereus beneckei|Sterculia sp.|Stereocaulon azoreum|Stevia alpina|Stevia jujuyensis|Stevia origanoides|Stevia polycephala|Stevia seleriana|Stevia serrata|Sticta mougeotiana|Stiretrus anchorago|Streblognathus aethiopicus|Streblus asper|Streptomyces collinus|Streptomyces filamentosus|Streptomyces griseochromogenes|Streptomyces griseoplanus|Streptomyces halstedii|Streptomyces misawanensis|Streptomyces parvisporogenes|Streptomyces prunicolor|Streptomyces purpurogeneiscleroticus|Streptomyces roseoverticillatus|Streptomyces sclerotialus|Streptomyces toyocaensis|Streptomyces xanthocidicus|Streptosporangium vulgare|Strobilanthes Cusia|Strobilanthes callosa|Strobilanthes cusia|Strobilanthes cusia BREMEK|Strobilanthes dimorphotricha|Strobilanthes pentstemonoides|Strobilanthes psilostachys|Strobilanthes zeylanica|Strobilomyces floccopus|Strychnos cocculoides|Strychnos ligustrina|Strychnos potatorum|Strychnos spinosa|Suaeda maritima|Swamp dewberry|Swartzia apetala|Swertia corymbosa|Swertia decussata|Swertia mussotii|Swertia punctata|Symphonia globulifera|Symphoricarpos albus|Symphyotrichum novi-belgii var. novi-belgii|Symphytum asperum|Symplocarpus foetidus|Syncarpia hillii|Syncolostemon parviflorus|Synsepalum dulcificum|Syphonota geographica|Syzygium formosanum|Syzygium jambos|Syzygium nervosum|Tabernaemontana catharinensis|Tabernaemontana cymosa|Tabernaemontana divaricata|Tabernaemontana heterophylla|Tachardia acaciae|Tagetes erecta|Tamarindus indica|Tamarix gallica|Tanacetum nubigenum|Tanacetum vulgare|Tanaecium pyramidatum|Taonia australasica|Taraxacum borealisinense|Taraxacum coreanum|Taraxacum japonicum|Taraxacum mongolicum|Taraxacum officinale|Taraxacum platycarpum|Tasmannia lanceolata|Taxus drupacea|Tectona grandis|Tephroseris palustris|Tephrosia Purpurea|Tephrosia purpurea|Tephrosia villosa|Terminalia alata|Terminalia glabrescens|Terminalia hylodendron|Terminalia superba|Tetracentron sinense|Tetracera asiatica|Tetradium glabrifolium|Teucrium depressum|Teucrium leucocladum|Teucrium royleanum|Tevenotica persica|Thapsia transtagana|Thermococcus kodakarensis|Thermopsis mollis|Thermopsis montana|Thesium humile|Thevetia Peruviana|Thevetia peruviana|Thryptomene kochii|Thuja plicata|Thymus piperella|Tichocarpus crinitus|Tilia vulgaris|Tiliacora triandra|Tipuana tipu|Tolypocladium ophioglossoides|Torenia anagallis|Tornabea scutellifera|Torrubiella hemipterigena|Tovomita brasiliensis|Tovomita fructipendula|Toxicodendron sylvestre|Toxicopueraria peduncularis|Tragopogon orientalis|Tragopogon pratensis|Trema orientale|Tricalysia okelensis|Trichilia claussenii|Trichilia rubescens|Trichosurus vulpecula|Triclisia subcordata|Tridax procumbens|Trifoliate orange|Trifolium alpestre|Trifolium hybridum|Triglochin maritima|Triumfetta cordifolia|Trixis grisebachii|Trixis praestans|Trogoderma granarium|Trollius europaeus|Tsuga canadensis|Turraeanthus africanus|Tussilago farfara|Tussilago sp.|Typha latifolia|Ulva lactuca|Umbelopsis vinacea|Uncaria lancifolia|Urmenetea atacamensis|Ursinia cakilefolia|Ursinia saxatilis|Urtica triangularis|Uvaria macrophylla|Vachellia pennatula|Valeriana cardamines|Vallaris solanacea|Vellozia declinans|Vellozia pusilla|Ventilago Leiocarpa|Ventilago calyculata|Ventilago denticulata|Ventilago leiocarpa|Vepris afzelii|Vepris gabonensis|Vepris grandifolia|Vepris louisii|Vepris oubanguensis|Vepris punctata|Vepris renieri|Vepris suaveolens|Vepris unifoliolata|Vepris verdoorniana|Verbascum thapsus|Verbena Officinalis|Verbena officinalis|Verbena officinalis L.|Verbena triphylla|Verbesina boliviana|Vernonanthura brasiliana|Vernonanthura fagifolia|Vernonanthura montevidensis|Vernonanthura nudiflora|Vernonanthura squamulosa|Vernonia echitifolia|Vernonia elaeagnifolia|Vernonia erdverbengii|Vernonia galamensis|Vernonia incana|Vernonia leopoldi|Vernonia mollissima|Vernonia potamophila|Vernonia tufnellae|Veronica cupressoides|Veronica kellereri|Veronica orientalis|Veronica virginica|Vibrio fluvialis|Viburnum ayavacense|Viburnum cylindricum|Viburnum jucundum|Viburnum nudum var. cassinoides|Viburnum opulus|Viburnum rhytidophyllum|Vigna angularis|Vigna cylindrica|Vigna mungo|Viola odorata|Virola elongata|Virola oleifera|Viscum coloratum|Vismia parviflora|Vitellaria paradoxa|Vitex trifolia|Vitis betulifolia|Vitis vinifera|Wedelia acapulcensis var. hispida|Wedelia montevidensis|Werneria decora|Widely distributed in plant|Wisteria floribunda|Witheringia solanacea|Woodfordia fruticosa|Woodwardia prolifera|Wulfenia orientalis|Xanthomendoza fallax|Xenoacremonium recifei|Zaluzania grayana|Zanthoxylum Armatum|Zanthoxylum acutifolium|Zanthoxylum ailanthoides|Zanthoxylum armatum|Zanthoxylum brachyacanthum|Zanthoxylum budrunga|Zanthoxylum capense|Zanthoxylum culantrillo|Zanthoxylum dimorphophyllum|Zanthoxylum dipetalum|Zanthoxylum gilletii|Zanthoxylum heitzii|Zanthoxylum integrifoliolum|Zanthoxylum leprieurii|Zanthoxylum martinicense|Zanthoxylum monophyllum|Zanthoxylum myriacanthum|Zanthoxylum petiolare|Zanthoxylum rhetsa|Zanthoxylum rhoifolium|Zanthoxylum rigidum|Zanthoxylum rubescens|Zanthoxylum sarasinii|Zanthoxylum schinifolium|Zanthoxylum setulosum|Zanthoxylum sp.|Zanthoxylum sprucei|Zanthoxylum zanthoxyloides|Ziziphus cambodiana|Ziziphus mauritiana|Zizphus cambodiana|common dandelion|common sunflower|euonymus carnosus|lettuce|liquorice|meadow clary|moringa|potato|soybean|tomato|voacanga globosa

>  <collections>  (319) 
ANPDB|CMAUP (cCollective molecular activities of useful plants)|ChEBI NPs|ChemSpider NPs|DrugBankNP|HIT (Herbal Ingredients Targets)|InflamNat|KNApSaCK|Latin America dataset|NANPDB (Natural Products from Northern African Sources)|NAPRORE-CR|NPACT|NPASS|NPEdia|NuBBEDB|Phyto4Health|PhytoLab phyproof® Reference Substances|SANCDB|Super Natural II|TCMDB-Taiwan (Traditional Chinese Medicine database)|TIPdb (database of Taiwan indigenous plants)|UEFS (Natural Products Databse of the UEFS)|VietHerb|WikiData Natural Products|ZINC NP

>  <dois>  (319) 
10.1002/(SICI)1099-1573(199612)10:8<694::AID-PTR923>3.0.CO;2-X|10.1002/(SICI)1099-1573(199908/09)13:5<433::AID-PTR457>3.0.CO;2-4|10.1002/1097-458X(200007)38:7<488::AID-MRC704>3.0.CO;2-G|10.1002/1099-1565(200011/12)11:6<345::AID-PCA540>3.0.CO;2-T|10.1002/CBDV.200800266|10.1002/CBDV.200900326|10.1002/CBDV.201000166|10.1002/CHIN.198339322|10.1002/CHIN.198528357|10.1002/CHIN.199410238|10.1002/CHIN.200307143|10.1002/CHIN.200319178|10.1002/CHIN.200324153|10.1002/CHIN.200413142|10.1002/CHIN.200431151|10.1002/CHIN.200533207|10.1002/CHIN.200533271|10.1002/CHIN.200537209|10.1002/CHIN.200539166|10.1002/CHIN.200543209|10.1002/CHIN.200630195|10.1002/CHIN.200640213|10.1002/CHIN.201034210|10.1002/EJOC.200600742|10.1002/EJOC.201100505|10.1002/HLCA.19930760712|10.1002/HLCA.200790187|10.1002/HLCA.200890115|10.1002/HLCA.200900431|10.1002/HLCA.201000138|10.1002/HLCA.201000207|10.1002/JCCS.196800006|10.1002/JCCS.199200061|10.1002/JCCS.199400028|10.1002/JCCS.199500076|10.1002/JCCS.199700056|10.1002/JCCS.200000075|10.1002/JCCS.200100154|10.1002/JCCS.200200019|10.1002/JCCS.200300178|10.1002/JCCS.200400099|10.1002/JCCS.200400211|10.1002/JCCS.200700112|10.1002/JHRC.1240090712|10.1002/JHRC.1240200804|10.1002/JLAC.198519850708|10.1002/JPS.2600640121|10.1002/MRC.1734|10.1002/MRC.1844|10.1002/MRC.2426|10.1002/MRC.2726|10.1002/PCA.2800020105|10.1002/PCA.656|10.1002/PTR.1852|10.1002/PTR.2894|10.1002/PTR.865|10.1002/RECL.19470660309|10.1007/BF00272743|10.1007/BF00574222|10.1007/BF00574230|10.1007/BF00579142|10.1007/BF00580051|10.1007/BF00597825|10.1007/BF00598704|10.1007/BF00599285|10.1007/BF00629882|10.1007/BF00634183|10.1007/BF00714929|10.1007/BF02236284|10.1007/BF02534064|10.1007/BF02535123|10.1007/BF02540958|10.1007/BF02541590|10.1007/BF02541638|10.1007/BF02645749|10.1007/BF02679791|10.1007/BF02969391|10.1007/BF02976931|10.1007/BF02994750|10.1007/BF03046367|10.1007/BF03046638|10.1007/S00044-017-2033-4|10.1007/S00217-004-0943-0|10.1007/S10600-005-0133-8|10.1007/S10600-006-0002-0|10.1007/S10600-006-0266-4|10.1007/S10600-007-0133-Y|10.1007/S10600-007-0232-9|10.1007/S10600-008-9078-Z|10.1007/S10600-009-9387-X|10.1007/S10600-010-9550-4|10.1007/S10600-010-9595-4|10.1007/S10600-010-9658-6|10.1007/S10600-010-9659-5|10.1007/S10600-010-9673-7|10.1007/S10600-011-0026-Y|10.1007/S10600-011-9795-6|10.1007/S10600-011-9810-Y|10.1007/S10600-011-9862-Z|10.1007/S10600-011-9905-5|10.1007/S10600-011-9920-6|10.1007/S10600-011-9944-Y|10.1007/S10600-016-1771-8|10.1007/S10600-017-2003-6|10.1007/S10600-018-2437-5|10.1007/S11418-007-0156-5|10.1007/S11745-004-1328-X|10.1007/S11745-997-0026-Z|10.1007/S11746-010-1584-Z|10.1007/S13580-020-00235-9|10.1016/0031-9422(73)80046-9|10.1016/0031-9422(73)80719-8|10.1016/0031-9422(75)83129-3|10.1016/0031-9422(80)83031-7|10.1016/0031-9422(81)85163-1|10.1016/0031-9422(81)85165-5|10.1016/0031-9422(81)85282-X|10.1016/0031-9422(82)80030-7|10.1016/0031-9422(82)80032-0|10.1016/0031-9422(82)80141-6|10.1016/0031-9422(82)80158-1|10.1016/0031-9422(82)80164-7|10.1016/0031-9422(82)83109-9|10.1016/0031-9422(82)83160-9|10.1016/0031-9422(82)83168-3|10.1016/0031-9422(82)83183-X|10.1016/0031-9422(82)85189-3|10.1016/0031-9422(82)85251-5|10.1016/0031-9422(83)80054-5|10.1016/0031-9422(83)80100-9|10.1016/0031-9422(83)80102-2|10.1016/0031-9422(83)80160-5|10.1016/0031-9422(83)80162-9|10.1016/0031-9422(83)80245-3|10.1016/0031-9422(83)80247-7|10.1016/0031-9422(83)83027-1|10.1016/0031-9422(83)83036-2|10.1016/0031-9422(83)83047-7|10.1016/0031-9422(83)85036-5|10.1016/0031-9422(84)83092-7|10.1016/0031-9422(85)80029-7|10.1016/0031-9422(86)80034-6|10.1016/0031-9422(86)88039-6|10.1016/0031-9422(88)80120-1|10.1016/0031-9422(88)80141-9|10.1016/0031-9422(88)80157-2|10.1016/0031-9422(88)80235-8|10.1016/0031-9422(88)80305-4|10.1016/0031-9422(88)80466-7|10.1016/0031-9422(88)80473-4|10.1016/0031-9422(88)80603-4|10.1016/0031-9422(88)80612-5|10.1016/0031-9422(88)80683-6|10.1016/0031-9422(88)80695-2|10.1016/0031-9422(88)80706-4|10.1016/0031-9422(88)80708-8|10.1016/0031-9422(88)83017-6|10.1016/0031-9422(88)83029-2|10.1016/0031-9422(88)83043-7|10.1016/0031-9422(88)83055-3|10.1016/0031-9422(88)83098-X|10.1016/0031-9422(88)83120-0|10.1016/0031-9422(88)83136-4|10.1016/0031-9422(88)83154-6|10.1016/0031-9422(88)84114-1|10.1016/0031-9422(88)87045-6|10.1016/0031-9422(89)80125-6|10.1016/0031-9422(89)80149-9|10.1016/0031-9422(89)80297-3|10.1016/0031-9422(89)80344-9|10.1016/0031-9422(89)80361-9|10.1016/0031-9422(90)80135-4|10.1016/0031-9422(90)80149-B|10.1016/0031-9422(90)83033-W|10.1016/0031-9422(90)85058-N|10.1016/0031-9422(90)85193-J|10.1016/0031-9422(90)85280-S|10.1016/0031-9422(90)85367-O|10.1016/0031-9422(90)85369-Q|10.1016/0031-9422(90)85370-U|10.1016/0031-9422(90)87130-M|10.1016/0031-9422(90)89034-7|10.1016/0031-9422(90)89036-9|10.1016/0031-9422(90)89042-8|10.1016/0031-9422(90)89054-D|10.1016/0031-9422(90)89059-I|10.1016/0031-9422(91)80045-3|10.1016/0031-9422(91)80095-I|10.1016/0031-9422(91)80119-L|10.1016/0031-9422(91)83025-G|10.1016/0031-9422(91)83035-J|10.1016/0031-9422(91)83076-W|10.1016/0031-9422(91)83457-V|10.1016/0031-9422(91)83502-C|10.1016/0031-9422(91)83683-C|10.1016/0031-9422(91)83733-2|10.1016/0031-9422(91)83738-7|10.1016/0031-9422(91)84221-D|10.1016/0031-9422(91)85077-D|10.1016/0031-9422(91)85115-G|10.1016/0031-9422(91)85154-R|10.1016/0031-9422(91)85274-4|10.1016/0031-9422(91)85309-N|10.1016/0031-9422(92)80125-X|10.1016/0031-9422(92)80279-N|10.1016/0031-9422(92)80362-I|10.1016/0031-9422(92)80366-M|10.1016/0031-9422(92)80369-P|10.1016/0031-9422(92)80371-K|10.1016/0031-9422(92)80451-J|10.1016/0031-9422(92)83139-P|10.1016/0031-9422(92)83142-L|10.1016/0031-9422(92)83156-S|10.1016/0031-9422(92)83462-8|10.1016/0031-9422(92)83630-H|10.1016/0031-9422(92)83658-L|10.1016/0031-9422(92)83713-9|10.1016/0031-9422(92)83720-J|10.1016/0031-9422(92)83741-G|10.1016/0031-9422(92)90044-Q|10.1016/0031-9422(92)90045-R|10.1016/0031-9422(93)85112-5|10.1016/0031-9422(94)00567-D|10.1016/0031-9422(94)00743-D|10.1016/0031-9422(94)00850-S|10.1016/0031-9422(94)00943-N|10.1016/0031-9422(94)85023-2|10.1016/0031-9422(95)00072-F|10.1016/0031-9422(95)00248-6|10.1016/0031-9422(95)00427-9|10.1016/0031-9422(95)00494-R|10.1016/0031-9422(95)00698-2|10.1016/0031-9422(95)00748-2|10.1016/0031-9422(95)00752-0|10.1016/0031-9422(95)00806-3|10.1016/0031-9422(95)00807-1|10.1016/0031-9422(96)00232-4|10.1016/0040-4020(95)00720-S|10.1016/0305-1978(91)90062-5|10.1016/0305-1978(92)90104-L|10.1016/0305-1978(96)00018-X|10.1016/0378-8741(84)90002-3|10.1016/0378-8741(84)90075-8|10.1016/0378-8741(86)90109-1|10.1016/0378-8741(86)90156-X|10.1016/0378-8741(92)90074-2|10.1016/J.BMC.2004.08.048|10.1016/J.BMC.2005.07.050|10.1016/J.BMC.2009.06.009|10.1016/J.BMC.2010.03.040|10.1016/J.BMCL.2003.11.074|10.1016/J.BMCL.2009.04.129|10.1016/J.BMCL.2009.08.002|10.1016/J.BMCL.2010.05.061|10.1016/J.BMCL.2010.10.058|10.1016/J.BMCL.2014.10.032|10.1016/J.BSE.2003.12.009|10.1016/J.BSE.2009.09.008|10.1016/J.BSE.2014.02.028|10.1016/J.FITOTE.2003.12.017|10.1016/J.FITOTE.2006.11.003|10.1016/J.FITOTE.2007.02.002|10.1016/J.FITOTE.2008.04.010|10.1016/J.FITOTE.2009.12.002|10.1016/J.FITOTE.2010.01.018|10.1016/J.FITOTE.2011.09.018|10.1016/J.FITOTE.2011.10.007|10.1016/J.JEP.2007.11.017|10.1016/J.JEP.2008.06.025|10.1016/J.PHYMED.2007.11.017|10.1016/J.PHYMED.2009.10.015|10.1016/J.PHYTOCHEM.2004.03.002|10.1016/J.PHYTOCHEM.2004.03.010|10.1016/J.PHYTOCHEM.2004.03.011|10.1016/J.PHYTOCHEM.2004.04.002|10.1016/J.PHYTOCHEM.2004.05.014|10.1016/J.PHYTOCHEM.2004.07.027|10.1016/J.PHYTOCHEM.2004.10.016|10.1016/J.PHYTOCHEM.2005.03.022|10.1016/J.PHYTOCHEM.2005.06.016|10.1016/J.PHYTOCHEM.2005.07.011|10.1016/J.PHYTOCHEM.2005.11.024|10.1016/J.PHYTOCHEM.2006.01.014|10.1016/J.PHYTOCHEM.2006.06.030|10.1016/J.PHYTOCHEM.2006.11.010|10.1016/J.PHYTOCHEM.2006.12.015|10.1016/J.PHYTOCHEM.2007.02.015|10.1016/J.PHYTOCHEM.2007.02.020|10.1016/J.PHYTOCHEM.2007.05.018|10.1016/J.PHYTOCHEM.2007.06.016|10.1016/J.PHYTOCHEM.2008.03.004|10.1016/J.PHYTOCHEM.2008.05.006|10.1016/J.PHYTOCHEM.2008.09.025|10.1016/J.PHYTOCHEM.2008.12.008|10.1016/J.PHYTOCHEM.2009.05.011|10.1016/J.PHYTOCHEM.2009.08.007|10.1016/J.PHYTOCHEM.2009.12.016|10.1016/J.PHYTOCHEM.2010.05.014|10.1016/J.PHYTOCHEM.2011.10.011|10.1016/J.PHYTOL.2010.08.004|10.1016/J.PHYTOL.2011.02.011|10.1016/J.PHYTOL.2011.04.003|10.1016/J.PHYTOL.2011.04.014|10.1016/J.TET.2003.10.023|10.1016/J.TET.2008.02.036|10.1016/J.TET.2008.05.125|10.1016/J.TETLET.2006.03.006|10.1016/J.TETLET.2010.10.102|10.1016/S0014-827X(01)01080-1|10.1016/S0021-9673(98)00084-3|10.1016/S0031-9422(00)00296-X|10.1016/S0031-9422(00)00413-1|10.1016/S0031-9422(00)00509-4|10.1016/S0031-9422(00)80074-6|10.1016/S0031-9422(00)80286-1|10.1016/S0031-9422(00)80335-0|10.1016/S0031-9422(00)80349-0|10.1016/S0031-9422(00)80390-8|10.1016/S0031-9422(00)80490-2|10.1016/S0031-9422(00)80533-6|10.1016/S0031-9422(00)80607-X|10.1016/S0031-9422(00)80783-9|10.1016/S0031-9422(00)80840-7|10.1016/S0031-9422(00)81059-6|10.1016/S0031-9422(00)81141-3|10.1016/S0031-9422(00)81146-2|10.1016/S0031-9422(00)81232-7|10.1016/S0031-9422(00)81253-4|10.1016/S0031-9422(00)81575-7|10.1016/S0031-9422(00)81836-1|10.1016/S0031-9422(00)82260-8|10.1016/S0031-9422(00)82352-3|10.1016/S0031-9422(00)82386-9|10.1016/S0031-9422(00)82422-X|10.1016/S0031-9422(00)82439-5|10.1016/S0031-9422(00)82447-4|10.1016/S0031-9422(00)82541-8|10.1016/S0031-9422(00)82610-2|10.1016/S0031-9422(00)82620-5|10.1016/S0031-9422(00)83115-5|10.1016/S0031-9422(00)83133-7|10.1016/S0031-9422(00)83498-6|10.1016/S0031-9422(00)83499-8|10.1016/S0031-9422(00)83591-8|10.1016/S0031-9422(00)83758-9|10.1016/S0031-9422(00)83830-3|10.1016/S0031-9422(00)83895-9|10.1016/S0031-9422(00)83940-0|10.1016/S0031-9422(00)84169-2|10.1016/S0031-9422(00)84515-X|10.1016/S0031-9422(00)84543-4|10.1016/S0031-9422(00)84786-X|10.1016/S0031-9422(00)84916-X|10.1016/S0031-9422(00)84996-1|10.1016/S0031-9422(00)85395-9|10.1016/S0031-9422(00)85510-7|10.1016/S0031-9422(00)86768-0|10.1016/S0031-9422(00)86873-9|10.1016/S0031-9422(00)86968-X|10.1016/S0031-9422(00)86975-7|10.1016/S0031-9422(00)88244-8|10.1016/S0031-9422(00)88402-2|10.1016/S0031-9422(00)89266-3|10.1016/S0031-9422(00)89542-4|10.1016/S0031-9422(00)89656-9|10.1016/S0031-9422(00)89704-6|10.1016/S0031-9422(00)89705-8|10.1016/S0031-9422(00)89726-5|10.1016/S0031-9422(00)89799-X|10.1016/S0031-9422(00)90373-X|10.1016/S0031-9422(00)90379-0|10.1016/S0031-9422(00)90411-4|10.1016/S0031-9422(00)90717-9|10.1016/S0031-9422(00)90814-8|10.1016/S0031-9422(00)90897-5|10.1016/S0031-9422(00)91034-3|10.1016/S0031-9422(00)91057-4|10.1016/S0031-9422(00)94210-9|10.1016/S0031-9422(00)94550-3|10.1016/S0031-9422(00)94844-1|10.1016/S0031-9422(00)95203-8|10.1016/S0031-9422(00)95275-0|10.1016/S0031-9422(00)95289-0|10.1016/S0031-9422(00)97025-0|10.1016/S0031-9422(00)97086-9|10.1016/S0031-9422(00)97131-0|10.1016/S0031-9422(00)97169-3|10.1016/S0031-9422(00)97175-9|10.1016/S0031-9422(00)97297-2|10.1016/S0031-9422(00)97404-1|10.1016/S0031-9422(00)97558-7|10.1016/S0031-9422(00)97560-5|10.1016/S0031-9422(00)97583-6|10.1016/S0031-9422(00)97880-4|10.1016/S0031-9422(00)97889-0|10.1016/S0031-9422(00)97890-7|10.1016/S0031-9422(00)97935-4|10.1016/S0031-9422(00)97947-0|10.1016/S0031-9422(00)97953-6|10.1016/S0031-9422(00)98083-X|10.1016/S0031-9422(00)98112-3|10.1016/S0031-9422(00)98481-4|10.1016/S0031-9422(00)98542-X|10.1016/S0031-9422(00)98664-3|10.1016/S0031-9422(01)00341-7|10.1016/S0031-9422(02)00021-3|10.1016/S0031-9422(02)00156-5|10.1016/S0031-9422(02)00166-8|10.1016/S0031-9422(02)00619-2|10.1016/S0031-9422(02)00758-6|10.1016/S0031-9422(03)00202-4|10.1016/S0031-9422(82)85038-3|10.1016/S0031-9422(82)85040-1|10.1016/S0031-9422(96)00343-3|10.1016/S0031-9422(96)00510-9|10.1016/S0031-9422(96)00517-1|10.1016/S0031-9422(96)00645-0|10.1016/S0031-9422(96)00657-7|10.1016/S0031-9422(96)00777-7|10.1016/S0031-9422(96)00842-4|10.1016/S0031-9422(97)00021-6|10.1016/S0031-9422(97)00042-3|10.1016/S0031-9422(97)00105-2|10.1016/S0031-9422(97)00251-3|10.1016/S0031-9422(97)00313-0|10.1016/S0031-9422(97)00398-1|10.1016/S0031-9422(97)00540-2|10.1016/S0031-9422(97)00588-8|10.1016/S0031-9422(97)00690-0|10.1016/S0031-9422(97)00747-4|10.1016/S0031-9422(97)00783-8|10.1016/S0031-9422(97)00832-7|10.1016/S0031-9422(97)01020-0|10.1016/S0031-9422(97)01137-0|10.1016/S0031-9422(98)00110-1|10.1016/S0031-9422(98)00277-5|10.1016/S0031-9422(98)00294-5|10.1016/S0031-9422(98)00306-9|10.1016/S0031-9422(98)00425-7|10.1016/S0031-9422(98)00467-1|10.1016/S0031-9422(98)80075-7|10.1016/S0031-9422(99)00041-2|10.1016/S0031-9422(99)00183-1|10.1016/S0031-9422(99)00333-7|10.1016/S0031-9422(99)00362-3|10.1016/S0031-9422(99)00388-X|10.1016/S0031-9422(99)00391-X|10.1016/S0031-9422(99)00401-X|10.1016/S0031-9422(99)00453-7|10.1016/S0031-9422(99)00457-4|10.1016/S0040-4020(01)87826-1|10.1016/S0040-4039(00)01347-2|10.1016/S0040-4039(97)01032-0|10.1016/S0040-4039(99)01035-7|10.1016/S0305-1978(01)00127-2|10.1016/S0305-1978(01)00130-2|10.1016/S0305-1978(02)00027-3|10.1016/S0305-1978(02)00055-8|10.1016/S0305-1978(98)00004-0|10.1016/S0305-1978(98)00061-1|10.1016/S0305-1978(98)00070-2|10.1016/S0305-1978(98)00079-9|10.1016/S0305-1978(98)00107-0|10.1016/S0306-3623(98)00212-2|10.1016/S0367-326X(00)00155-6|10.1016/S0367-326X(00)00259-8|10.1016/S0367-326X(00)00269-0|10.1016/S0367-326X(00)00276-8|10.1016/S0367-326X(00)00279-3|10.1016/S0367-326X(00)00319-1|10.1016/S0367-326X(00)00338-5|10.1016/S0367-326X(01)00292-1|10.1016/S0367-326X(01)00299-4|10.1016/S0367-326X(01)00317-3|10.1016/S0367-326X(01)00366-5|10.1016/S0367-326X(02)00011-4|10.1016/S0367-326X(03)00061-3|10.1016/S0367-326X(99)00006-4|10.1016/S0367-326X(99)00019-2|10.1016/S0367-326X(99)00060-X|10.1016/S0367-326X(99)00119-7|10.1016/S0367-326X(99)00133-1|10.1016/S0367-326X(99)00137-9|10.1016/S0367-326X(99)00145-8|10.1016/S0378-8741(03)00261-7|10.1016/j.bmc.2009.02.050|10.1016/j.bmcl.2009.04.129|10.1016/j.bmcl.2010.05.061|10.1016/j.bmcl.2010.10.058|10.1016/j.bmcl.2014.10.032|10.1016/j.ejmech.2011.04.025|10.1016/j.jep.2007.11.017|10.1016/j.lfs.2016.01.001|10.1021/JF00111A051|10.1021/JF010701V|10.1021/JF0203693|10.1021/JF025848G|10.1021/JF034780H|10.1021/NP000321O|10.1021/NP000569D|10.1021/NP010176U|10.1021/NP0103665|10.1021/NP0201220|10.1021/NP0201523|10.1021/NP0204848|10.1021/NP030207G|10.1021/NP0303411|10.1021/NP0303512|10.1021/NP0303512.S001|10.1021/NP030374G|10.1021/NP030465D|10.1021/NP030515E|10.1021/NP040027M|10.1021/NP040027M.S001|10.1021/NP0497402|10.1021/NP0497548|10.1021/NP0502793|10.1021/NP050315Y|10.1021/NP060166Z|10.1021/NP070038Q|10.1021/NP070174V|10.1021/NP070506W|10.1021/NP070629G|10.1021/NP100517U|10.1021/NP1008202|10.1021/NP2000914|10.1021/NP2002012|10.1021/NP400851K|10.1021/NP50005A010|10.1021/NP50009A016|10.1021/NP50013A020|10.1021/NP50020A012|10.1021/NP50022A025|10.1021/NP50025A012|10.1021/NP50026A025|10.1021/NP50030A023|10.1021/NP50030A026|10.1021/NP50031A033|10.1021/NP50034A016|10.1021/NP50034A017|10.1021/NP50034A043|10.1021/NP50035A008|10.1021/NP50039A032|10.1021/NP50039A034|10.1021/NP50044A031|10.1021/NP50046A004|10.1021/NP50046A034|10.1021/NP50046A035|10.1021/NP50052A040|10.1021/NP50057A010|10.1021/NP50057A012|10.1021/NP50057A031|10.1021/NP50057A040|10.1021/NP50058A027|10.1021/NP50064A021|10.1021/NP50066A019|10.1021/NP50069A024|10.1021/NP50070A030|10.1021/NP50074A036|10.1021/NP50077A010|10.1021/NP50077A012|10.1021/NP50085A017|10.1021/NP50087A013|10.1021/NP50095A015|10.1021/NP501025R|10.1021/NP50105A001|10.1021/NP50116A019|10.1021/NP800001V|10.1021/NP800093A|10.1021/NP800106X|10.1021/NP800276F|10.1021/NP800504W|10.1021/NP8005953|10.1021/NP900068T|10.1021/NP9005053|10.1021/NP960134J|10.1021/NP960370U|10.1021/NP9603941|10.1021/NP9700580|10.1021/NP9700681|10.1021/NP970490H|10.1021/NP980224J|10.1021/NP980313W|10.1021/NP980445P|10.1021/NP990232F|10.1021/NP990426V|10.1021/NP990523O|10.1021/OL800389Q|10.1021/acs.jnatprod.0c00464|10.1021/acs.jnatprod.5b01088|10.1021/acs.jnatprod.6b00027|10.1021/acs.jnatprod.6b00839|10.1021/acs.jnatprod.7b00241|10.1021/np000569d|10.1021/np010176u|10.1021/np0201220|10.1021/np0204848|10.1021/np030207g|10.1021/np0303411|10.1021/np050315y|10.1021/np058016w|10.1021/np070038q|10.1021/np070629g|10.1021/np1008202|10.1021/np2000914|10.1021/np2002012|10.1021/np400851k|10.1021/np501025r|10.1021/np800001v|10.1021/np900068t|10.1021/np9005053|10.1021/np960370u|10.1023/B:CONC.0000033929.60336.BB|10.1039/A708239H|10.1039/C39740000861|10.1039/J39670000329|10.1039/J39680002279|10.1039/P19810001750|10.1039/P19820000909|10.1055/S-0028-1097191|10.1055/S-0028-1097262|10.1055/S-0028-1097486|10.1055/S-0028-1097541|10.1055/S-0028-1099523|10.1055/S-0028-1099603|10.1055/S-0028-1099605|10.1055/S-0029-1186038|10.1055/S-0029-1240611|10.1055/S-0030-1250384|10.1055/S-0031-1282668|10.1055/S-2001-15823|10.1055/S-2001-17349|10.1055/S-2002-32898|10.1055/S-2003-38872|10.1055/S-2003-38877|10.1055/S-2003-41109|10.1055/S-2004-818920|10.1055/S-2005-864144|10.1055/S-2005-873125|10.1055/S-2006-941504|10.1055/S-2006-951689|10.1055/S-2006-957454|10.1055/S-2006-957703|10.1055/S-2006-957764|10.1055/S-2006-957773|10.1055/S-2006-957923|10.1055/S-2006-957945|10.1055/S-2006-958085|10.1055/S-2006-958147|10.1055/S-2006-959482|10.1055/S-2006-959562|10.1055/S-2006-960014|10.1055/S-2006-960850|10.1055/S-2006-960945|10.1055/S-2006-960985|10.1055/S-2006-962041|10.1055/S-2006-962398|10.1055/S-2006-962463|10.1055/S-2006-962469|10.1055/S-2007-967166|10.1055/S-2007-969060|10.1055/S-2007-969186|10.1055/S-2007-969440|10.1055/S-2007-969788|10.1055/S-2008-1034347|10.1055/S-2008-1074536|10.1071/CH05010|10.1071/CH05087|10.1071/CH9660175|10.1071/CH9670811|10.1071/CH9722209|10.1071/CH9762023|10.1071/CH9870461|10.1076/1388-0209(200007)3831-SFT210|10.1076/PHBI.35.1.49.13273|10.1076/PHBI.39.3.202.5930|10.1076/PHBI.41.4.231.15667|10.1078/0944-7113-00143|10.1080/10286020.2010.485566|10.1080/10286020.2011.589838|10.1080/1028602031000080441|10.1080/1028602042000324826|10.1080/10575630108041297|10.1080/10575630290020451|10.1080/10575639208048902|10.1080/10575639608043247|10.1080/10575639808041210|10.1080/14786410310001620538|10.1080/14786410310001630519|10.1080/14786410500161205|10.1080/14786410802228439|10.1080/14786410802242851|10.1080/14786410902951088|10.1080/14786411003752102|10.1080/14786419.2010.551769|10.1093/OXFORDJOURNALS.PCP.A076871|10.1111/NPH.12414|10.1111/PBI.12926|10.1135/CCCC19811048|10.1135/CCCC19820664|10.1139/V61-225|10.1139/V63-343|10.1155/2013/942541|10.1177/1934578X0900400302|10.1186/2193-1801-3-253|10.1211/0022357001773607|10.1211/0022357001773904|10.1246/BCSJ.39.2313|10.1246/CL.1985.443|10.1248/BPB.22.606|10.1248/BPB.26.41|10.1248/BPB.31.1429|10.1248/CPB.29.261|10.1248/CPB.32.3003|10.1248/CPB.38.2130|10.1248/CPB.39.3132|10.1248/CPB.40.2295|10.1248/CPB.40.2325|10.1248/CPB.40.2639|10.1248/CPB.41.624|10.1248/CPB.42.608|10.1248/CPB.43.1634|10.1248/CPB.43.180|10.1248/CPB.43.1937|10.1248/CPB.44.1033|10.1248/CPB.44.1202|10.1248/CPB.44.1255|10.1248/CPB.44.1748|10.1248/CPB.44.509|10.1248/CPB.45.1221|10.1248/CPB.45.2016|10.1248/CPB.46.1051|10.1248/CPB.46.1189|10.1248/CPB.46.1408|10.1248/CPB.46.1647|10.1248/CPB.46.413|10.1248/CPB.47.375|10.1248/CPB.49.845|10.1248/CPB.50.590|10.1248/CPB.51.89|10.1248/CPB.52.1242|10.1248/CPB.53.1416|10.1248/CPB.53.229|10.1248/CPB.53.342|10.1248/CPB.53.95|10.1248/CPB.54.1063|10.1248/CPB.54.535|10.1248/CPB.54.546|10.1248/CPB.55.577|10.1248/CPB.56.1321|10.1248/CPB.57.1352|10.1248/CPB.57.532|10.1248/CPB.58.1541|10.1248/CPB.58.971|10.1248/YAKUSHI1947.96.10_1202|10.1271/BBB.65.1198|10.1271/NOGEIKAGAKU1924.59.895|10.1351/PAC198153061101|10.1515/HFSG.1991.45.4.265|10.1515/ZNB-1997-0319|10.1515/ZNB-2005-0212|10.1515/ZNB-2007-0417|10.1515/ZNC-1988-1-206|10.1515/ZNC-1988-11-1202|10.1515/ZNC-1991-1-203|10.1515/ZNC-1992-7-802|10.1515/ZNC-1992-7-805|10.1515/ZNC-1994-5-617|10.1515/ZNC-2002-9-1002|10.1515/ZNC-2003-1-213|10.1515/ZNC-2003-3-411|10.1515/ZNC-2003-7-811|10.1590/1809-43921983132409|10.1590/S0102-695X2009000300005|10.1590/S0102-695X2011005000107|10.1590/S0103-50531997000500011|10.1590/S0103-50531998000100016|10.1590/S0103-50531998000300014|10.1590/S0103-50531999000600017|10.1590/S0103-50532001000300010|10.1590/S0103-50532001000400019|10.1590/S0103-50532001000400020|10.1590/S0103-50532002000100020|10.1590/S0103-50532002000500021|10.1590/S0103-50532003000300021|10.1590/S0103-50532004000100023|10.1590/S0103-50532006000200010|10.1590/S0103-50532012000300015|10.21608/BFSA.1999.66080|10.21608/ZJPS.1993.188983|10.21608/ZJPS.1994.186612|10.21608/ZJPS.1994.186742|10.25073/2588-1140/VNUNST.5500|10.28933/USHIE-IJTCM-2016|10.3109/13880208309070642|10.3109/13880208509069005|10.3109/13880208709055197|10.3109/13880209209054017|10.3109/13880209509088143|10.3109/13880209509088144|10.3109/13880209509088152|10.3184/174751911X13220462651507|10.3329/BPJ.V19I2.29286|10.3329/DUJPS.V3I1.189|10.3390/MOLECULES15096140|10.3390/molecules21020192|10.3390/molecules27020483|10.3797/SCIPHARM.AUT-00-39|10.3923/IJP.2008.227.229|10.3987/COM-08-11630|10.3987/COM-88-S2|10.3987/COM-92-6288|10.3987/COM-95-7069|10.3998/ARK.5550190.0011.227|10.4038/JNSFSR.V18I2.8195|10.4067/S0366-16442000000100007|10.4268/CJCMM20111013|10.4268/CJCMM20111518|10.4268/CJCMM20111611|10.4268/CJCMM20131917|10.4268/CJCMM20141227|10.4268/CJCMM20151921|10.4314/NJNPM.V3I1.11761|10.5012/BKCS.2010.31.04.1081|10.5012/BKCS.2011.32.6.2079|10.5455/spatula.20130402070601|10.5586/ASBP.1988.008|10.5650/JOS1956.29.82|10.5935/0103-5053.19910004|10.7883/YOKEN1952.48.211

>  <synonyms>  (319) 
nan

>  <cas>  (319) 
545-47-1

$$$$

     RDKit          2D

 39 43  0  0  0  0  0  0  0  0999 V2000
    0.2516    5.7935    0.0000 C   0  0  0  0  0  0  0  0  0  0  0  0
   -0.0350    4.3212    0.0000 C   0  0  0  0  0  0  0  0  0  0  0  0
    1.0968    3.3368    0.0000 C   0  0  0  0  0  0  0  0  0  0  0  0
    2.5152    3.8247    0.0000 C   0  0  0  0  0  0  0  0  0  0  0  0
    0.8101    1.8644    0.0000 C   0  0  0  0  0  0  0  0  0  0  0  0
    1.7125    0.6662    0.0000 C   0  0  0  0  0  0  0  0  0  0  0  0
    3.2123    0.6920    0.0000 C   0  0  0  0  0  0  0  0  0  0  0  0
    3.9845   -0.5940    0.0000 C   0  0  0  0  0  0  0  0  0  0  0  0
    3.3980   -1.9746    0.0000 C   0  0  0  0  0  0  0  0  0  0  0  0
    4.5298   -2.9590    0.0000 N   0  0  0  0  0  0  0  0  0  0  0  0
    5.8158   -2.1868    0.0000 C   0  0  0  0  0  0  0  0  0  0  0  0
    7.2501   -2.6258    0.0000 C   0  0  0  0  0  0  0  0  0  0  0  0
    8.3474   -1.6031    0.0000 C   0  0  0  0  0  0  0  0  0  0  0  0
    8.0104   -0.1414    0.0000 C   0  0  0  0  0  0  0  0  0  0  0  0
    6.5761    0.2975    0.0000 C   0  0  0  0  0  0  0  0  0  0  0  0
    5.4787   -0.7252    0.0000 C   0  0  0  0  0  0  0  0  0  0  0  0
    0.8518   -0.5623    0.0000 N   0  0  0  0  0  0  0  0  0  0  0  0
   -0.5825   -0.1233    0.0000 C   0  0  0  0  0  0  0  0  0  0  0  0
   -1.2193   -0.6029    0.0000 O   0  0  0  0  0  0  0  0  0  0  0  0
   -0.6083    1.3765    0.0000 C   0  0  0  0  0  0  0  0  0  0  0  0
   -0.7164    0.5869    0.0000 C   0  0  0  0  0  0  0  0  0  0  0  0
    0.3086    0.2141    0.0000 O   0  0  0  0  0  0  0  0  0  0  0  0
   -1.5443   -1.0273    0.0000 C   0  0  0  0  0  0  0  0  0  0  0  0
   -2.0095   -1.7146    0.0000 C   0  0  0  0  0  0  0  0  0  0  0  0
   -2.7408   -2.1070    0.0000 C   0  0  0  0  0  0  0  0  0  0  0  0
   -2.0212   -4.9162    0.0000 O   0  0  0  0  0  0  0  0  0  0  0  0
   -3.5707   -2.1145    0.0000 C   0  0  0  0  0  0  0  0  0  0  0  0
   -4.2390   -4.9365    0.0000 O   0  0  0  0  0  0  0  0  0  0  0  0
   -4.3091   -1.7356    0.0000 C   0  0  0  0  0  0  0  0  0  0  0  0
   -6.2123   -3.9237    0.0000 C   0  0  0  0  0  0  0  0  0  0  0  0
   -4.7867   -1.0569    0.0000 C   0  0  0  0  0  0  0  0  0  0  0  0
   -4.8943   -0.2340    0.0000 C   0  0  0  0  0  0  0  0  0  0  0  0
   -7.7762    0.0893    0.0000 C   0  0  0  0  0  0  0  0  0  0  0  0
   -4.6071    0.5447    0.0000 C   0  0  0  0  0  0  0  0  0  0  0  0
   -3.9909    1.1007    0.0000 C   0  0  0  0  0  0  0  0  0  0  0  0
   -2.5070    2.1444    0.0000 C   0  0  0  0  0  0  0  0  0  0  0  0
   -1.7401    2.3609    0.0000 C   0  0  0  0  0  0  0  0  0  0  0  0
   -1.4534    3.8332    0.0000 C   0  0  0  0  0  0  0  0  0  0  0  0
   -2.5852    4.8176    0.0000 O   0  0  0  0  0  0  0  0  0  0  0  0
  1  2  1  0
  2  3  2  0
  3  4  1  0
  5  3  1  1
  5  6  1  0
  6  7  1  6
  7  8  1  0
  8  9  2  0
  9 10  1  0
 10 11  1  0
 11 12  2  0
 12 13  1  0
 13 14  2  0
 14 15  1  0
 15 16  2  0
  6 17  1  0
 17 18  1  0
 18 19  2  0
 20 18  1  1
 20 21  1  0
 21 22  2  0
 21 23  1  0
 23 24  2  0
 24 25  1  0
 25 26  2  0
 25 27  1  0
 27 28  1  1
 27 29  1  0
 29 30  1  0
 29 31  2  0
 31 32  1  0
 32 33  1  6
 32 34  1  0
 34 35  1  0
 35 36  2  3
 37 36  1  1
 37 38  1  0
 38 39  1  6
 38  2  1  0
 20  5  1  0
 16  8  1  0
 37 20  1  0
 16 11  1  0
M  END
>  <identifier>  (320) 
CNP0259994.3

>  <canonical_smiles>  (320) 
CC1=C(C)[C@H]2[C@H](CC3=CNC4=CC=CC=C34)NC(=O)[C@]23C(=O)/C=C\C(=O)[C@@H](O)/C(C)=C\[C@H](C)CC=C[C@H]3[C@@H]1O

>  <standard_inchi>  (320) 
InChI=1S/C32H36N2O5/c1-17-8-7-10-23-30(38)20(4)19(3)28-25(15-21-16-33-24-11-6-5-9-22(21)24)34-31(39)32(23,28)27(36)13-12-26(35)29(37)18(2)14-17/h5-7,9-14,16-17,23,25,28-30,33,37-38H,8,15H2,1-4H3,(H,34,39)/b10-7?,13-12-,18-14-/t17-,23+,25+,28+,29+,30-,32-/m1/s1

>  <standard_inchi_key>  (320) 
VUEFRYQBOMQOMV-ICWRFVAESA-N

>  <name>  (320) 
Chaetoglobosin B

>  <iupac_name>  (320) 
(1~{R},3~{Z},6~{S},7~{Z},9~{R},13~{R},14~{S},17~{R},18~{S})-6,14-dihydroxy-18-(1~{H}-indol-3-ylmethyl)-7,9,15,16-tetramethyl-19-azatricyclo[11.7.0.0^{1,17}]icosa-3,7,11,15-tetraene-2,5,20-trione

>  <annotation_level>  (320) 
5

>  <total_atom_count>  (320) 
75

>  <heavy_atom_count>  (320) 
39

>  <molecular_weight>  (320) 
528.65

>  <exact_molecular_weight>  (320) 
528.26242

>  <molecular_formula>  (320) 
C32H36N2O5

>  <alogp>  (320) 
3.74

>  <topological_polar_surface_area>  (320) 
119.49

>  <rotatable_bond_count>  (320) 
2

>  <hydrogen_bond_acceptors>  (320) 
5

>  <hydrogen_bond_donors>  (320) 
4

>  <hydrogen_bond_acceptors_lipinski>  (320) 
5

>  <hydrogen_bond_donors_lipinski>  (320) 
4

>  <lipinski_rule_of_five_violations>  (320) 
1

>  <aromatic_rings_count>  (320) 
2

>  <qed_drug_likeliness>  (320) 
0.35

>  <formal_charge>  (320) 
0

>  <fractioncsp3>  (320) 
0.41

>  <number_of_minimal_rings>  (320) 
5

>  <van_der_walls_volume>  (320) 
nan

>  <contains_sugar>  (320) 
False

>  <contains_ring_sugars>  (320) 
False

>  <contains_linear_sugars>  (320) 
False

>  <murcko_framework>  (320) 
c1ccc2c(c1)[nH]cc2CC3NCC45CC=CCCC=CCCC=CC5CC=CC34

>  <np_likeness>  (320) 
2.33

>  <chemical_class>  (320) 
Isoindoles and derivatives

>  <chemical_sub_class>  (320) 
Isoindolines

>  <chemical_super_class>  (320) 
Organoheterocyclic compounds

>  <direct_parent_classification>  (320) 
Isoindolones

>  <np_classifier_pathway>  (320) 
Alkaloids

>  <np_classifier_superclass>  (320) 
Pseudoalkaloids

>  <np_classifier_class>  (320) 
Cytochalasan alkaloids

>  <np_classifier_is_glycoside>  (320) 
False

>  <organisms>  (320) 
Chaetomium globosum

>  <collections>  (320) 
Latin America dataset|NuBBEDB|WikiData Natural Products

>  <dois>  (320) 
10.1590/S0100-40422008000700015|10.1590/s0100-40422008000700015

>  <synonyms>  (320) 
Chaetoglobosin B

>  <cas>  (320) 
nan

$$$$

     RDKit          2D

 30 32  0  0  0  0  0  0  0  0999 V2000
   -3.8484   -3.3559    0.0000 C   0  0  0  0  0  0  0  0  0  0  0  0
   -2.8334   -2.2515    0.0000 C   0  0  0  0  0  0  0  0  0  0  0  0
   -3.2825   -0.8202    0.0000 O   0  0  0  0  0  0  0  0  0  0  0  0
   -1.3695   -2.5782    0.0000 O   0  0  0  0  0  0  0  0  0  0  0  0
   -0.3545   -1.4737    0.0000 C   0  0  0  0  0  0  0  0  0  0  0  0
   -0.8036   -0.0425    0.0000 C   0  0  0  0  0  0  0  0  0  0  0  0
   -2.2675    0.2842    0.0000 C   0  0  0  0  0  0  0  0  0  0  0  0
   -2.7166    1.7154    0.0000 C   0  0  0  0  0  0  0  0  0  0  0  0
   -4.1806    2.0422    0.0000 C   0  0  0  0  0  0  0  0  0  0  0  0
   -4.6296    3.4734    0.0000 C   0  0  0  0  0  0  0  0  0  0  0  0
   -6.0936    3.8001    0.0000 C   0  0  0  0  0  0  0  0  0  0  0  0
   -7.1085    2.6956    0.0000 C   0  0  0  0  0  0  0  0  0  0  0  0
   -6.6595    1.2644    0.0000 C   0  0  0  0  0  0  0  0  0  0  0  0
   -5.1955    0.9377    0.0000 C   0  0  0  0  0  0  0  0  0  0  0  0
    0.2114    1.0620    0.0000 O   0  0  0  0  0  0  0  0  0  0  0  0
    1.6754    0.7353    0.0000 C   0  0  0  0  0  0  0  0  0  0  0  0
    2.6903    1.8397    0.0000 C   0  0  0  0  0  0  0  0  0  0  0  0
    4.1543    1.5130    0.0000 C   0  0  0  0  0  0  0  0  0  0  0  0
    4.6033    0.0818    0.0000 C   0  0  0  0  0  0  0  0  0  0  0  0
    6.0673   -0.2449    0.0000 C   0  0  0  0  0  0  0  0  0  0  0  0
    7.0823    0.8595    0.0000 C   0  0  0  0  0  0  0  0  0  0  0  0
    6.6332    2.2908    0.0000 C   0  0  0  0  0  0  0  0  0  0  0  0
    7.6482    3.3952    0.0000 O   0  0  0  0  0  0  0  0  0  0  0  0
    5.1693    2.6175    0.0000 O   0  0  0  0  0  0  0  0  0  0  0  0
    2.1244   -0.6960    0.0000 C   0  0  0  0  0  0  0  0  0  0  0  0
    1.1095   -1.8004    0.0000 C   0  0  0  0  0  0  0  0  0  0  0  0
    1.5585   -3.2317    0.0000 O   0  0  0  0  0  0  0  0  0  0  0  0
    0.5436   -4.3361    0.0000 C   0  0  0  0  0  0  0  0  0  0  0  0
    0.9926   -5.7673    0.0000 C   0  0  0  0  0  0  0  0  0  0  0  0
   -0.9204   -4.0094    0.0000 O   0  0  0  0  0  0  0  0  0  0  0  0
  1  2  1  0
  2  3  2  0
  2  4  1  0
  5  4  1  6
  5  6  1  0
  6  7  1  1
  7  8  2  0
  8  9  1  0
  9 10  2  0
 10 11  1  0
 11 12  2  0
 12 13  1  0
 13 14  2  0
  6 15  1  0
 15 16  1  0
 16 17  1  6
 18 17  1  6
 18 19  1  0
 19 20  1  0
 20 21  2  0
 21 22  1  0
 22 23  2  0
 22 24  1  0
 16 25  1  0
 25 26  1  0
 26 27  1  1
 27 28  1  0
 28 29  1  0
 28 30  2  0
 26  5  1  0
 14  9  1  0
 24 18  1  0
M  END
>  <identifier>  (321) 
CNP0080459.1

>  <canonical_smiles>  (321) 
CC(=O)O[C@@H]1[C@@H](/C=C/C2=CC=CC=C2)O[C@H](C[C@H]2CC=CC(=O)O2)C[C@H]1OC(C)=O

>  <standard_inchi>  (321) 
InChI=1S/C23H26O7/c1-15(24)27-21-14-19(13-18-9-6-10-22(26)30-18)29-20(23(21)28-16(2)25)12-11-17-7-4-3-5-8-17/h3-8,10-12,18-21,23H,9,13-14H2,1-2H3/b12-11+/t18-,19-,20-,21-,23-/m1/s1

>  <standard_inchi_key>  (321) 
DNLFPYLWKUTPFH-GJFJUKHVSA-N

>  <name>  (321) 
nan

>  <iupac_name>  (321) 
[(2~{R},3~{S},4~{R},6~{R})-3-acetoxy-6-[[(2~{R})-6-oxo-2,3-dihydropyran-2-yl]methyl]-2-[(~{E})-styryl]tetrahydropyran-4-yl] acetate

>  <annotation_level>  (321) 
5

>  <total_atom_count>  (321) 
56

>  <heavy_atom_count>  (321) 
30

>  <molecular_weight>  (321) 
414.45

>  <exact_molecular_weight>  (321) 
414.16785

>  <molecular_formula>  (321) 
C23H26O7

>  <alogp>  (321) 
2.98

>  <topological_polar_surface_area>  (321) 
88.13

>  <rotatable_bond_count>  (321) 
6

>  <hydrogen_bond_acceptors>  (321) 
7

>  <hydrogen_bond_donors>  (321) 
0

>  <hydrogen_bond_acceptors_lipinski>  (321) 
7

>  <hydrogen_bond_donors_lipinski>  (321) 
0

>  <lipinski_rule_of_five_violations>  (321) 
0

>  <aromatic_rings_count>  (321) 
1

>  <qed_drug_likeliness>  (321) 
0.52

>  <formal_charge>  (321) 
0

>  <fractioncsp3>  (321) 
0.44

>  <number_of_minimal_rings>  (321) 
3

>  <van_der_walls_volume>  (321) 
376.30

>  <contains_sugar>  (321) 
False

>  <contains_ring_sugars>  (321) 
False

>  <contains_linear_sugars>  (321) 
False

>  <murcko_framework>  (321) 
O1CC=CCC1CC2OC(C=Cc3ccccc3)CCC2

>  <np_likeness>  (321) 
2.32

>  <chemical_class>  (321) 
Carboxylic acids and derivatives

>  <chemical_sub_class>  (321) 
Tricarboxylic acids and derivatives

>  <chemical_super_class>  (321) 
Organic acids and derivatives

>  <direct_parent_classification>  (321) 
Tricarboxylic acids and derivatives

>  <np_classifier_pathway>  (321) 
Shikimates and Phenylpropanoids

>  <np_classifier_superclass>  (321) 
Styrylpyrones

>  <np_classifier_class>  (321) 
Kavalactones and derivatives

>  <np_classifier_is_glycoside>  (321) 
False

>  <organisms>  (321) 
Cryptocarya moschata

>  <collections>  (321) 
ChemSpider NPs|Latin America dataset|NuBBEDB|Super Natural II|WikiData Natural Products|ZINC NP

>  <dois>  (321) 
10.1016/S0031-9422(99)00532-4

>  <synonyms>  (321) 
Cryptopyranmoscatone A1 diacetate

>  <cas>  (321) 
nan

$$$$

     RDKit          2D

 13 13  0  0  0  0  0  0  0  0999 V2000
   -4.2741   -1.4221    0.0000 O   0  0  0  0  0  0  0  0  0  0  0  0
   -3.9076    0.0325    0.0000 C   0  0  0  0  0  0  0  0  0  0  0  0
   -4.9841    1.0771    0.0000 O   0  0  0  0  0  0  0  0  0  0  0  0
   -2.4647    0.4424    0.0000 C   0  0  0  0  0  0  0  0  0  0  0  0
   -1.3883   -0.6022    0.0000 C   0  0  0  0  0  0  0  0  0  0  0  0
    0.0546   -0.1922    0.0000 C   0  0  0  0  0  0  0  0  0  0  0  0
    0.4211    1.2623    0.0000 C   0  0  0  0  0  0  0  0  0  0  0  0
    1.8639    1.6722    0.0000 C   0  0  0  0  0  0  0  0  0  0  0  0
    2.9404    0.6276    0.0000 C   0  0  0  0  0  0  0  0  0  0  0  0
    4.3833    1.0376    0.0000 O   0  0  0  0  0  0  0  0  0  0  0  0
    2.5740   -0.8269    0.0000 C   0  0  0  0  0  0  0  0  0  0  0  0
    3.6504   -1.8715    0.0000 O   0  0  0  0  0  0  0  0  0  0  0  0
    1.1311   -1.2369    0.0000 C   0  0  0  0  0  0  0  0  0  0  0  0
  1  2  2  0
  2  3  1  0
  2  4  1  0
  4  5  2  0
  5  6  1  0
  6  7  2  0
  7  8  1  0
  8  9  2  0
  9 10  1  0
  9 11  1  0
 11 12  1  0
 11 13  2  0
 13  6  1  0
M  END
>  <identifier>  (322) 
CNP0186784.1

>  <canonical_smiles>  (322) 
O=C(O)/C=C/C1=CC=C(O)C(O)=C1

>  <standard_inchi>  (322) 
InChI=1S/C9H8O4/c10-7-3-1-6(5-8(7)11)2-4-9(12)13/h1-5,10-11H,(H,12,13)/b4-2+

>  <standard_inchi_key>  (322) 
QAIPRVGONGVQAS-DUXPYHPUSA-N

>  <name>  (322) 
nan

>  <iupac_name>  (322) 
nan

>  <annotation_level>  (322) 
0

>  <total_atom_count>  (322) 
21

>  <heavy_atom_count>  (322) 
13

>  <molecular_weight>  (322) 
180.16

>  <exact_molecular_weight>  (322) 
180.04226

>  <molecular_formula>  (322) 
C9H8O4

>  <alogp>  (322) 
1.20

>  <topological_polar_surface_area>  (322) 
77.76

>  <rotatable_bond_count>  (322) 
2

>  <hydrogen_bond_acceptors>  (322) 
3

>  <hydrogen_bond_donors>  (322) 
3

>  <hydrogen_bond_acceptors_lipinski>  (322) 
3

>  <hydrogen_bond_donors_lipinski>  (322) 
3

>  <lipinski_rule_of_five_violations>  (322) 
0

>  <aromatic_rings_count>  (322) 
1

>  <qed_drug_likeliness>  (322) 
0.47

>  <formal_charge>  (322) 
0

>  <fractioncsp3>  (322) 
0.00

>  <number_of_minimal_rings>  (322) 
1

>  <van_der_walls_volume>  (322) 
156.78

>  <contains_sugar>  (322) 
False

>  <contains_ring_sugars>  (322) 
False

>  <contains_linear_sugars>  (322) 
False

>  <murcko_framework>  (322) 
c1ccccc1

>  <np_likeness>  (322) 
1.12

>  <chemical_class>  (322) 
nan

>  <chemical_sub_class>  (322) 
nan

>  <chemical_super_class>  (322) 
nan

>  <direct_parent_classification>  (322) 
nan

>  <np_classifier_pathway>  (322) 
Shikimates and Phenylpropanoids

>  <np_classifier_superclass>  (322) 
Phenylpropanoids (C6-C3)

>  <np_classifier_class>  (322) 
Cinnamic acids and derivatives

>  <np_classifier_is_glycoside>  (322) 
False

>  <organisms>  (322) 
'Salvia africana-lutea'  [ L. (1753) ]|Abies sp.|Abies spectabilis|Abrus precatorius|Abutilon indicum|Abutilon theophrasti|Acacia armata|Acacia aulacocarpa|Acalypha australis|Acanthospermum australe|Acer sp.|Achillea Millefolium|Achillea cartilaginea|Achillea millefolium|Achyrocline alata|Achyrocline flaccida|Achyrocline sp.|Achyrocline tomentosa|Acinidia rubricaulis var.coriacea|Aconitum koreanum|Aconitum leucostomum|Acrocarpia paniculata|Actaea dahurica|Actaea elata|Actaea heracleifolia|Actaea japonica|Actaea racemosa|Actaea simplex|Actinidia Chinensis|Actinidia arguta|Actinidia callosa var.henryi|Actinidia chinensis|Actinidia chrysantha|Actinidia deliciosa|Actinidia eriantha|Actinidia glaucophylla|Actinidia latifolia|Actinidia polygama|Actinidia polygana|Adenia globosa|Adenocaulon adhaerescens|Adenocaulon himalaicum|Adonis sutchuenensis|Aeschynomene americana|Aesculus sp.|Agastache foeniculum|Agastache mexicana|Agastache urticifolia|Agathis lanceolata|Agave salmiana|Ageratina glechonophylla|Aglaia grandis|Agrimonia Pilosa|Agrimonia pilosa|Agrimonia pilosa var.japonica|Aguacate|Ailanthus sp.|Ajania fruticulosa|Akebia sp.|Alcea rosea|Alchemilla tianschanica|Aleuritopteris farinosa|Aleuritopteris formosana|Alibertia macrophylla|Allium cepa|Allium fistulosum|Allium sativum|Alluaudia dumosa|Aloe africana|Aloe castellorum|Aloe ferox|Aloe spicata|Aloe vera|Alsophila spinulosa|Alstonia scholaris|Althaea armeniaca|Althaea broussonetiifolia|Althaea cannabina|Althaea narbonensis|Althaea officinalis|Alzatea verticillata|Amelanchier sanguinea|Amsinckia tessellata|Anagallis sp.|Anaphalis araneosa|Anarsia lineatella|Anchusa sp.|Anchusa strigosa|Andrographis Paniculata|Andrographis paniculata|Androsace septentrionalis|Anemone flaccida|Anethum graveolens|Angelica acutiloba|Angelica gigas|Angelica pubescens|Angelica sinensis|Angelica sp.|Angelica ursina|Annona muricata|Anodendron affine|Anolis lineatopus|Antennaria dioica|Antennaria microphylla|Antennaria sp.|Anthemis nobilis|Anthoceros punctatus|Antitoxicum scanden|Apis mellifera|Apium graveolens|Apium sp.|Apocynum venetum|Apollonias barbujana|Aquilegia ecalcarata|Aquilegia sp.|Arabidopsis thaliana|Arachis Hypogaea|Arachis glabrata|Arachis hypogaea|Aralia continentalis|Arbutus unedo|Arctium lappa|Arctium sp.|Ardisia macrocarpa|Ardisia neriifolia|Argylia radiata|Argyreia sp.|Aristolochia heterophylla|Aristolochia kaempferi|Armeria maritima|Armillaria tabescens|Arnica montana|Aronia melanocarpa|Artemisia Capillaris|Artemisia absinthium|Artemisia annua|Artemisia annua L.|Artemisia apiacea|Artemisia capillaries|Artemisia capillaris|Artemisia cina|Artemisia dracunculus|Artemisia echegarayi|Artemisia gmelinii|Artemisia hanseniana|Artemisia iwayomogi|Artemisia jacutica|Artemisia juncea|Artemisia kurramensis|Artemisia minor|Artemisia rubripes|Artemisia santolinifolia|Artemisia scoparia|Artemisia siversiana|Artemisia stechmanniana|Arum maculatum|Aruncus diocus|Aruncus dioicus|Aspalathus linearis|Aspergillus mutabilis|Aspidosperma subincanum|Aster salignus|Asterias rubens|Astragalus arguricus|Astragalus asper|Astragalus bungeanus|Astragalus captiosus|Astragalus cicer|Astragalus ciceroides|Astragalus circassicus|Astragalus ernestii|Astragalus eximius|Astragalus flexus|Astragalus floccosifolius|Astragalus goktschaicus|Astragalus levieri|Astragalus membranaceus|Astragalus mongholicus|Astragalus onobrychis|Astragalus quisqualis|Astragalus saganlugensis|Astragalus sevangensis|Astragalus trimestris|Astragalus wagneri|Atriplex parvifolia|Aucuba chinensis|Audouinia tentaculata|Aurelia aurita|Avena sativa|Balanophora japonica|Balanophora laxiflora|Balanophora tobiracola|Balbisia calycina|Begonia nantoensis|Berberis heteropoda|Berberis integerrima|Berberis koreana|Berberis sieboldii|Berberis vulgaris|Berneuxia thibetica|Beta vulgaris|Betonica macrantha|Betula obscura|Betula pendula|Betula pubescens|Betula sp.|Bhesa nitidissima|Bistorta vivipara|Blechnum Orientale|Blechnum orientale|Blechnum spicant|Blumea mollis|Boehmeria holosericea|Boehmeria japonica tenera|Boehmeria tricuspis|Bombax ceiba|Bombax malabaricum|Bongardia chrysogonum|Brainea insignis|Brassica juncea|Brassica napus|Brassica oleracea|Brassica rapa|Briareum asbestinum|Brickellia californica|Brickellia vernicosa|Buddleja asiatica|Bunodosoma caissarum|Bupleurum sp.|Cacalia hastata L. (1753)|Cajanus cajan|Calendula sp.|Calliandra haematocephala|Calligonum leucocladum|Callisia fragrans|Calluna vulgaris|Calycanthus floridus|Camchaya loloana|Camellia sp.|Camonea bifida|Camonea umbellata|Campanula persicifolia|Campanula rotundifolia|Canna indica|Capsicum annuum|Caragana spinosa|Carica dodecaphylla|Carica papaya|Carthamus tinctorius|Carum carvi|Carya ovata|Castanea dentata|Castanea mollissima|Catalpa bignonioides|Catunaregam tomentosa|Ceanothus velutinus|Cedrela salvadorensis|Cedronella canariensis|Centaurea bracteata|Centaurea bracteata Scop.|Centaurea cyanus|Centaurea huber-morathii|Centaurea pseudomaculosa|Centella asiatica|Centipeda minima|Cephalaria gigantea|Ceratostigma willmottianum|Cestrum parqui|Chaenomeles sinensis|Chaenomeles speciosa|Chamaemelum nobile|Chamaemelum sp.|Chamerion dodonaei|Chamomilla recutita|Chamomilla sp.|Chelidonium majus|Chenopodium quinoa|Chlorophytum borivilianum|Chlorophytum malayense|Chondrilla juncea|Chrozophora gracilis|Chrozophora sabulosa|Chrysanthemum indicum|Chrysanthemum morifolium|Chrysanthemum sinense|Chrysanthemum x morifolium|Cibotium Barometz|Cibotium barometz|Cicer arietinum|Cichorium glandulosum|Cichorium intybus|Cichorium sp.|Cicuta sp.|Cimicifuga dahurica|Cimicifuga foetida|Cimicifuga simplex|Cimicifuga sp.|Cinchona cuprea|Cinchona pubescens|Cinnamomum aromaticum|Cinnamomum sp.|Cinnamomum verum|Cinnamon|Cirsium sp.|Cis punctifer|Citrus limon|Citrus maxima|Citrus paradisi|Citrus reticulata|Citrus sinensis|Citrus sp.|Citrus tangerina|Citrus unshiu|Citrus × paradisi|Cladiella australis|Cladogynos orientalis|Clathria basilana|Clausena indica|Clematis vitalba|Clinopodium laxiflorum|Clostridium tetanomorphum|Clusia ellipticifolia|Cnidium officinale|Cocos nucifera|Coffea|Coffea Arabica|Coffea arabica|Coffea canephora|Colchicum bornmuelleri|Colchicum kotschyi|Colchicum speciosum|Coleus barbatus|Coleus scutellarioides|Colletotrichum gloeosporioides|Collinsonia japonica|Commelina communis|Commiphora mukul|Conium maculatum|Consolida sp.|Convolvulus microphyllus|Convolvulus prostratus|Conyza blinii|Coprinopsis atramentaria|Corchorus capsularis|Corchorus olitorius|Cordia myxa|Cordia sebestena|Cordiera macrophylla|Coriandrum sativum|Cornus officinalis|Cornus sp.|Corylus americana|Cotoneaster orbicularis|Crataegus laevigata|Crataegus monogyna|Crataegus oxyacantha L. (1753)|Crataegus pinnatifida|Crataegus sp.|Crinum asiaticum|Crocus minimus|Crocus sativus|Crotalaria crispata|Croton menthodorus|Cryptocarya aschersoniana|Cucumis sativus|Cucurbita maxima|Cucurbita moschata|Cucurbita pepo|Cuminum cyminum|Cunonia macrophylla|Curculigo pilosa|Curcuma longa|Cuscuta Australis|Cuscuta australis|Cuscuta chinensis|Cyamopsis sp.|Cyamopsis tetragonoloba|Cyanthillium patulum|Cyclocarya paliurus|Cymbaria borysthenica|Cymbaria daurica|Cymbopogon citratus|Cynara cardunculus|Cynara cardunculus var. scolymus|Cynara cornigera|Cynara humilis|Cynara scolymus|Cynara sp.|Cynometra lujae|Cyrtanthus obliquus|Dasiphora fruticosa|Datura Innoxia|Datura innoxia|Datura sp.|Daucus carota|Davallia bullata|Davallia mariesii|Davallia trichomanoides|Desmodium styracifolium|Dianthus caryophyllus|Dichrocephala bicolor|Digitalis Purpurea|Digitalis purpurea|Dimetia scandens|Dipsacus Asper|Dipsacus asper|Dipsacus asperoides|Dipsacus inermis|Dipterocarpus dyeri|Dodonaea Viscosa|Dodonaea viscosa|Dolichlasium lagascae|Dracaena concinna|Dracocephalum peregrinum|Dracocephalum ruyschiana|Drimys sp.|Drynaria fortunei|Dumoria heckeli|Durio kutejensis|Echinacea angustifolia|Echinacea pallida|Echinacea purpurea|Ehretia alba|Elaeagnus angustifolia|Eleutherococcus senticosus|Eleutherococcus sp.|Elizabethkingia meningoseptica|Elsholtzia Rugulosa|Elsholtzia bodinieri|Elsholtzia ciliata|Elsholtzia rugulosa Hemsl.|Elsholtzia stauntonii|Empetrum nigrum|Entada rheedei|Enterococcus faecalis|Ephedra campylopoda|Ephedra foeminea|Ephedra lomatolepis|Epilobium dodonaei|Epimedium brevicornu|Epimedium grandiflorum|Epimedium koreanum|Epimedium pubescens|Epimedium sagittatum|Epimedium sempervirens|Epimedium wushanense|Episcia cupreata|Equisetum arvense|Equisetum giganteum|Equisetum hiemale|Equisetum hyemale|Equisetum pratense|Equisetum ramosissimum|Equisetum telmateia|Equsetum arvense|Eragrostis curvula|Eremochloa ophiuroides|Erica arborea|Erigeron breviscapus|Erigeron canadensis|Eriocaulon buergerianum|Eriocaulon sieboldianum|Eriogaster lanestris|Erodium moschatum|Erycibe hainanensis|Erylus trisphaerus|Eryngium campestre|Eryngium yuccifolium|Erythrina Variegata|Erythrina variegata|Erythrostemon gilliesii|Erythroxylum sp.|Eschenbachia blinii|Etlingera elatior|Eucalyptus|Eucommia Ulmoides|Eucommia ulmoides|Euonymus alatus|Euonymus maackii|Eupatorium areolare|Eupatorium argentinum|Eupatorium cannabinum|Eupatorium laevigatum|Eupatorium petiolare|Euphorbia hirta|Euphorbia sp.|Euphorbia tithymaloides|Euphrasia officinalis|Euphrasia sp.|Euphrasia stricta|Euthamia graminifolia|Evolvulus Alsinoides|Evolvulus alsinoides|Falcaria vulgaris|Fallopia convolvulus|Fallopia multiflora|Fallopia sp.|Felimida luteorosea|Ferulago lutea|Festuca arundinacea|Festuca ovina|Festuca pratensis|Festuca rubra|Fibraurea tinctoria|Filipendula ulmaria|Foeniculum sp.|Foeniculum vulgare|Forsythia intermedia|Forsythia suspensa|Forsythia suspense|Forsythia viridissima|Fragaria|Fragaria vesca|Fragaria x ananassa|Fraxinus chinensis|Fraxinus chinensis subsp. rhynchophylla|Fraxinus stylosa|Fraxinus szaboana|Fritillaria meleagris|Fumago vagans|Fumaria agraria|Fumaria capreolata|Fumaria densiflora|Fumaria muralis|Fumaria officinalis|Fumaria parviflora|Fumaria vaillantii|Galinsoga ciliata|Galinsoga parviflora|Galinsoga quadriradiata|Galium palustre|Galium sp.|Garcinia cambogia|Garcinia multiflora|Garcinia scortechinii|Gardenia jasminoides|Gardenia thailandica|Gardenia tubifera|Gaultheria procumbens|Gaylussacia baccata|Gelonium aequoreum|Gentiana olivieri|Geranium pusillum|Geranium robertianum|Geranium sp.|Geum japonicum|Geum macrophyllum|Geum rivale|Ginkgo biloba|Glebionis coronaria|Glebionis coronarium|Glebionis segetum|Glechoma grandis|Glechoma hederacea|Glechoma longituba|Gleditsia caspica|Gleditsia japonica|Gleditsia sinensis|Glehnia Littoralis|Glehnia littoralis|Glycine|Glycine Max|Glycine max|Gnetum cleistostachyum|Gnetum montanum|Gonocaryum calleryanum|Gossypium Barbadense|Gossypium barbadense|Gossypium sp.|Gracilaria textorii|Guatteria boliviana|Gymnema sylvestre|Gypsophila sp.|Haematoxylon brasiletto|Haematoxylum brasiletto|Haematoxylum campechianum|Haematoxylum sp.|Halocharis hispida|Hamamelis sp.|Hamamelis virginiana|Haplopappus deserticola|Haplophyllum ramosissimum|Harpagophytum procumbens|Harpagophytum zeyheri|Hedeoma drummondii|Hedera helix|Hedera rhombea|Hedera sp.|Hedlundia thuringiaca|Hedychium villosum|Helianthus annuus|Helichrysum acutatum|Helichrysum arenarium|Helichrysum italicum|Helichrysum mixtum|Helichrysum stoechas|Heliomeris multiflora var. multiflora|Heliopsis helianthoides var. scabra|Helleborus atrorubens|Hemerocallis fulva|Hemizonia congesta|Herba serissae|Herniaria|Hertia cheirifolia|Hesperocyparis arizonica|Hibiscus sabdariffa|Hibiscus taiwanensis|Hieracium coloriscapum|Hieracium guentheri-beckii|Hieracium gymnocephalum|Hieracium naegelianum|Hieracium rotundatum|Hippophae rhamnoides|Homo sapiens|Hordeum vulgare|Houttuynia cordata|Humata pectinata|Humulus lupulus|Humulus sp.|Hydrangea macrophylla|Hydrophyllum sp.|Hydrophyllum tenuipes|Hydrophyllum virginianum|Hylotelephium populifolium|Hypericum androsaemum|Hypericum hirsutum|Hypericum laricifolium|Hypericum maculatum|Hypericum perforatum|Hypericum sampsonii|Hypericum ternum|Hyphear tanakae|Hypochoeris radicata|Hypoxis sp.|Hyssopus officinalis|Igernella notabilis|Ilex argentina|Ilex brevicuspis|Ilex chinensis|Ilex dumosa|Ilex hainanensis|Ilex microdonta|Ilex pseudobuxus|Ilex pubescens|Ilex sp.|Ilex taubertiana|Ilex theezans|Illicium sp.|Illicium verum|Impatiens edgeworthii|Inonotus obliquus|Inula britannica|Inula helenium|Inula japonica|Inula sp.|Ipomoea cairica|Ipomoea nil|Ipomoea orizabensis|Ipomoea purpurea|Ircinia aruensis|Iris sp.|Isatis tinctoria|Isodon amethystoides|Isodon japonicus|Isodon lophanthoides|Isodon rubescens|Isodon sculponeatus|Isophysis tasmanica|Ixora javanica|Jacaranda acutifolia|Jacaranda mimosifolia|Jacaranda sp.|Jasonia candicans|Jateorhiza palmata|Juglans cinerea|Juglans nigra|Juglans regia|Jugo|Juniperus brevifolia|Kadsura sp.|Kalanchoe delagoensis|Kalanchoe pinnata|Kalanchoe tubiflora|Kali turgidum|Kandelia candel|Knautia sp.|Kopsia grandifolia|Lactuca formosana|Lactuca sativa|Lactuca viminea|Lagerstroemia speciosa|Lamium amplexicaule|Lamium moschatum|Lantana trifolia|Lapsana communis|Larix sibirica|Lasianthus fordii|Lasthenia californica|Lathyrus spp.|Laurencia mariannensis|Laurencia saitoi|Lavandula angustifolia|Lavandula pedunculata|Lavandula sp.|Ledebouria socialis|Leontodon taraxacoides|Leptolaena diospyroidea|Leptolaena pauciflora|Lespedeza bicolor|Leucanthemum maximum|Licaria chrysophylla|Ligularia dentata|Ligularia nelumbifolia|Ligularia pleurocaulis|Ligusticum chuanxiong|Ligusticum sinense|Ligustrum japonicum|Ligustrum lucidum|Ligustrum obtusifolium|Lilium brownii|Lilium brownii f. e. brown var. colchesteri wils|Lilium lancifolium|Lilium pumilum|Linaria macroura|Lindera umbellata|Linum sp.|Linum usitatissimum|Liparis keitaoensis|Liriodendron tulipifera|Lithospermum erythrorhizon|Lithospermum sp.|Llex chinensis|Lomaridium contiguum|Lonchocarpus laxiflorus|Lonicera Japonica|Lonicera bournei|Lonicera confusa|Lonicera confuse|Lonicera dasystyla|Lonicera fulvotomentosa|Lonicera hypoglauca|Lonicera japonica|Lonicera macranthoides|Lonicera similis|Lophanthus chinensis|Lophatherum gracile|Lotus corniculatus|Lotus japonicus|Lychnophora ericoides|Lychnophora pinaster|Lychnophora pohlii|Lycium barbarum|Lycium chinense|Lycopodium sp.|Lycopus europaeus|Lycopus lucidus|Lycopus sp.|Lysiana subfalcata|Lythrum salicaria|Macaranga peltata|Magnolia denudata|Magnolia liliiflora|Mahonia simonsii|Maianthemum canadense|Mallotus stenanthus|Malus|Malus domestica|Malus pumila|Malus sp.|Manihot esculenta|Mantella aurantiaca|Markhamia lutea|Markhamia platycalyx|Marrubium alysson|Marrubium incanum|Marrubium leonuroides|Marrubium peregrinum|Marrubium supinum|Marrubium thessalum|Marrubium vulgare|Matricaria chamomilla|Matricaria matricarioides|Matricaria recutita|Matteuccia struthiopteris|Matthiola incana|Maytenus guianensis|Maytenus sp.|Medicago Sativa|Medicago sativa|Melaleuca cuticularis|Melia azedarach|Melia azedarach var. toosendan|Melibe leonina|Melilotus officinalis|Melissa officinalis|Melissa sp.|Mentha Piperita|Mentha X piperita|Mentha arvensis|Mentha canadensis|Mentha haplocalyx|Mentha piperitae|Mentha sp.|Mentha spicata|Menyanthes trifoliata|Merendera sobolifera|Metasequoia glyptostroboides|Moluccella laevis|Momordica charantia|Monarda bradburiana|Monarda citriodora|Monarda didyma|Monarda fistulosa|Monarda punctata|Monascus pilosus|Monascus pilosus BCRC38072|Morella rubra|Moringa pterygosperma|Morus alba|Morus yunnanensis|Mosla chinensis|Murraya euchrestifolia|Murraya exotica|Murraya paniculata|Mus musculus|Myosotis krylovii|Myosotis laxa|Myosotis scorpioides|Myrica gale|Myrica rubra|Myristica fragrans|Nardostachys jatamansi|Nelumbo nucifera|Neolentinus lepideus|Neolitsea pulchella|Nepenthes thorelii|Nepeta bucharica|Nepeta cataria|Nepeta grandiflora|Nepeta mussinii|Nepeta nepetoides|Nepeta sp.|Nicotiana gossei|Nicotiana tabacum|Nostoc spongiaeforme|Ocimum basilicum|Ocimum gratissimum|Ocimum tenuiflorum|Odontites vernus subsp. serotinus|Odontites vulgaris|Oenothera biennis|Oenothera erythrosepala|Oenothera glazioviana|Oenothera grandiflora|Oenothera lamarckiana|Oenothera sp.|Oenothera speciosa|Olea europaea|Olea sp.|Olinia rochetiana|Olinia usambarensis|Onobrychis arenaria|Onobrychis tanaitica|Ononis sp.|Onopordum acanthium|Onopordum alexandrinum|Ophioceras dolichostomum|Ophioplocus japonicus|Ophiorrhiza kuroiwae|Orchis sp.|Oricia gabonensis|Origanum dictamnus|Origanum heracleoticum|Origanum majorana|Origanum majoricum|Origanum onites|Origanum virens|Origanum vulgare|Origanum x majoricum|Ormosia hosiei|Ornithoglossum viride|Orobanche coerulescens|Orobanche pycnostachya|Orthosiphon aristatus|Orthosiphon grandiflorus|Orthosiphon stamineus|Oryza sativa|Osmanthus fragrans|Osmanthus heterophyllus|Osmanthus ilicifolius|Osmanthus × fortunei|Osteospermum muricatum|Ostericum grosseserratum|Othonna sedifolia|Oxalis pes-caprae|Oxyphyllum ulicinum|Paeonia lactiflora|Paeonia rockii|Panax innovans|Panzerina lanata|Papaver somniferum|Parablechnum minus|Parasenecio hastata|Paronychia kapela|Pastinaca sativa|Paulownia coreana|Paulownia tomentosa|Pavetta indica|Pelargonium incrassatum|Pelargonium reniforme|Pelargonium roseum|Pellia epiphylla|Penicillium cinerascens|Peperomia vulcanica|Perilla frutescens|Perilla frutescens (l.) britt. var. crispa (thunb.) hand.-mazz.|Perilla frutescens var.acuta.|Perilla sp.|Peritassa compta|Persea mexicana|Persicaria amphibia|Persicaria hydropiper|Persicaria hydropiperoides|Persicaria lapathifolia|Persicaria mitis|Persicaria pensylvanica|Persicaria sp.|Persicaria tinctoria|Pertusaria truncata|Petasites formosanus|Petasites japonicus|Petasites laevigatus|Petunia axillaris|Phaeolus schweinitzii|Pharbitis nil|Phaseolus Vulgaris|Phaseolus vulgaris|Phedimus kamtschaticus|Phellinus igniarius|Phellodendron japonicum MAXIM|Phleum africanum|Phlomis tuberosa|Phlomis umbrosa|Phlomoides rotata|Phlomoides tuberosa|Phoenix dactylifera|Phyllanthus sellowianus|Phyllostachys nigra|Physalis edulis|Picea abies|Picea obovata|Picradeniopsis oppositifolia|Pimpinella anisum|Pimpinella sp.|Pinus edulis|Pinus halepensis|Pinus pinaster|Pinus sibirica|Pinus sylvestris|Pinus thunbergii|Piper nigrum|Piper sp.|Pisum Sativum|Pisum sativum|Plantago Major|Plantago depressa|Plantago lanceolata|Plantago lundborgii|Plantago major|Plantago media|Plantago sp.|Plantanus orientalis|Platanus sp.|Platostoma palustre|Platycapnos spicata|Platycapnos spicatus|Platycarya strobilacea|Plectranthus barbatus|Plectranthus scutellarioides|Pleocarphus revolutus|Poa huecu|Pocillopora eydouxi|Pogostemon cablin|Polygonum Aviculare|Polygonum aviculare|Polygonum cuspidatum|Polygonum sp.|Polypodiodes formosana|Polypodium decumanum|Populus cathayana|Populus ciliata|Populus deltoides|Populus euphratica|Populus koreana|Populus laurifolia|Populus maximowiczii|Populus nigra|Populus pseudosimonii|Populus simonii|Populus suaveolens|Populus szechuanica|Populus tremuloides|Populus trichocarpa|Populus tristis|Populus violascens|Populus yunnanensis|Porophyllum obscurum|Porophyllum ruderale|Portulaca oleracea|Posidonia oceanica|Potentilla erecta|Potentilla fruticosa|Potentilla sp.|Potentilla tormentilla|Premna tomentosa|Preussia aemulans|Primula sp.|Protea obtusifolia|Prunella vulgaris|Prunus armeniaca|Prunus avium|Prunus cerasus|Prunus domestica|Prunus mume|Prunus persica|Prunus serrulata|Pseudocyphellaria hirsuta|Psiadia dentata|Psiadia viscosa|Psidium guajava|Psorothamnus spinosus|Pteris Multifida|Pteris multifida|Pterocarpus officinalis|Pterocaulon rugosum|Pterocaulon virgatum|Pueraria Phaseoloides|Pueraria phaseoloides|Pulsatilla cernua|Pulsatilla koreana|Punica Granatum|Punica granatum|Pyrethrum corymbosum|Pyrrosia Sheareri|Pyrrosia petiolosa|Pyrrosia sheareri|Pyrus calleryana|Pyrus communis|Pyxine coccifera|Quercus ilex|Quercus suber|Ranunculus baudotii|Ranunculus sardous|Ranzania japonica|Raphanus sativus|Rauvolfia tetraphylla|Rehmannia glutinosa|Reichardia tingitana|Reseda muricata|Reseda muricata C.Presl.|Rhabdonia verticillata|Rhaponticum carthamoides|Rheedia acuminata|Rheum coreanum|Rheum officinale|Rheum palmatum|Rheum rhabarbarum|Rheum tanguticum|Rhodiola crenulata|Rhodiola crenulata (HOOK.f.et Thoms.) H.OHBA|Rhodiola quadrifida|Rhodiola rosea|Rhodiola sachalinensis|Rhodiola sacra|Rhodobacter sphaeroides|Rhododendron dauricum|Rhododendron ponticum|Rhododendron sp.|Ribes nigrum|Rosa chinensis|Rosa rugosa|Rosmarinus officinalis|Rosmarinus sp.|Rothmannia wittii|Rubia tetragona|Rubus chamaemorus|Rubus chingii|Rubus coreanus|Rubus idaeus|Sagittaria sagittifolia|Salix babylonica|Salix cheilophila|Salix pantosericea|Salvia Miltiorrhiza|Salvia Plebeia|Salvia aethiopis|Salvia africana|Salvia albimaculata|Salvia amplexicaulis|Salvia argentea|Salvia aurea|Salvia austriaca|Salvia bowleyana|Salvia brachyantha|Salvia calycina|Salvia chinensis|Salvia deserta|Salvia deserti|Salvia dumetorum|Salvia fruticosa|Salvia fugax|Salvia glutinosa|Salvia hispanica|Salvia horminum|Salvia jurisicii|Salvia kuznetzovii|Salvia limbata|Salvia miltiorrhiza|Salvia nemorosa|Salvia nilotica|Salvia nubicola|Salvia nutans|Salvia officinalis|Salvia plebeia|Salvia prionitis|Salvia przewalskii|Salvia reflexa|Salvia sclarea|Salvia simonkaiana|Salvia somalensis|Salvia sonchifolia|Salvia sp.|Salvia splendens|Salvia tomentosa|Salvia transsylvanica|Salvia trijuga|Salvia triloba|Salvia verbenaca|Salvia verticillata|Salvia virgata|Salvia viridis|Salvia viscosa|Salvia × sylvestris|Salvinia molesta|Salvinia molesta D.S.Mitch.|Sambucus sp.|Sanguisorba sp.|Sanicula europaea|Sanicula graveolens|Sapium sebiferum|Sarcandra glabra|Sarcolaeana multiflora|Satureja montana|Sauromatum giganteum|Saussurea amara|Saussurea involucrata|Saussurea triangulata|Schizanthus tricolor|Scorzonera latifolia|Scrophularia buergeriana|Scrophularia frutescens|Scrophularia nodosa|Scrophularia sp.|Scutellaria albida|Scutellaria albida subsp.albida|Scutellaria altissima|Scutellaria baicalensis|Scutellaria columnae|Scutellaria nepetoides|Secale cereale|Secamone afzelii|Securidaca longepedunculata|Sedum takesimense|Sedum takesimense Nakai|Selaginella pulvinata|Selaginella tamariscina|Sempervivum ruthenicum|Senecio grandiflorus|Senecio scandens|Senna obtusifolia|Sesamum sp.|Seseli mucronatum|Sia ferox|Sibiraea angustata|Sideritis arborescens|Sideritis catillaris|Sideritis euboea|Sideritis hirsuta|Sideritis hyssopifolia|Silphium integrifolium|Silphium perfoliatum|Sinapis alba|Sisyrinchium californicum|Smilax china|Smilax corbularia|Smilax glabra|Solanum angustifolium|Solanum campaniforme|Solanum cernuum|Solanum habrochaites|Solanum incanum|Solanum lycopersicum|Solanum lyratum|Solanum melongena|Solanum neorickii|Solanum nigrum|Solanum parviflorum|Solanum pennellii|Solanum pimpinellifollium|Solanum pseudoquina|Solanum sp.|Solanum tuberosum|Solidago Virgaurea|Solidago altissima|Solidago altissima L.|Solidago canadensis|Solidago decurrens|Solidago gigantea|Solidago sp.|Solidago virgaurea|Solidago virgaurea l. var. leiocarpa (benth.) a. gray|Solidago virgaurea var.leiocarpa|Sonchus asper|Sonchus maritimus|Sorbus sp.|Sorbus tianschanica|Sordaria araneosa|Spartium junceum|Spathodea campanulata|Sphaeranthus confertifolius|Spina gleditsiae|Spinacia oleracea|Stachys chinensis|Stachys macrantha|Stachys menthifolia|Stachys officinalis|Stachys palustris|Stachys sylvatica|Stellaria delavayi|Stephania elegans|Stephania succifera|Stereospermum acuminatissimum|Stevia salicifolia|Stilpnopappus pickelii|Streptocaulon juventas|Streptomyces PM9|Streptomyces cellulosae|Streptomyces cellulosae TES17|Streptomyces ehimensis|Streptomyces inusitatus|Struthiopteris amabilis|Struthiopteris castanea|Struthiopteris niponica|Struthiopteris spicant|Strychnos sp.|Sweet Woodruff|Swertia swertopsis|Symphyocladia latiuscula|Symphytum officinale|Symplocarpus renifolius|Syringa reticulata|Syzygium aromaticum|Syzygium sp.|Tagetes lucida|Takhtajaniantha austriaca|Tanacetum coccineum|Tanacetum parthenium|Tanacetum sp.|Taraxacum borealisinense|Taraxacum coreanum|Taraxacum formosanum|Taraxacum mongolicum|Taraxacum officinale|Taraxacum platycarpum|Taraxacum scariosum|Taraxacum sinicum|Taxus baccata|Taxus brevifolia|Tecoma stans|Tephrosia Purpurea|Tephrosia candida|Tephrosia purpurea|Tethya amamensis|Tetragonia tetragonioides|Tetrapanax papyrifer|Tetrapleura tetraptera|Tetraria capillaris|Teucrium alyssifolium|Teucrium hircanicum|Teucrium lusitanicum|Teucrium salviastrum|Teucrium sp.|Thalassia hemprichii|Thalictrum atriplex|Thelocactus bicolor|Thymus|Thymus Vulgaris|Thymus bashkiriensis|Thymus quinquecostatus|Thymus serpyllum|Thymus sp.|Thymus vulgaris|Tilia mandshurica|Tilia sp.|Tilia tomentosa|Tocoyena formosa|Tolypothrix tenuis|Toxicodendron vernicifluum|Trachelospermum asiaticum|Trachelospermum jasminoides|Tragopogon orientalis|Tragopogon pratensis|Trichoderma koningi|Trichoderma longibrachiatum|Trigonella foenum-graecum|Trigonella sp.|Triticum|Triticum aestivum|Triticum durum|Tropaeolum majus|Tropicoporus linteus|Tsuga chinensis|Tussilago farfara|Typha domingensis|Typha domingensis P.|Uncaria Sinensis|Uncaria macrophylla|Uncaria rhynchophylla|Uncaria sinensis|Urospermum dalechampii|Urospermum picroides|Urtica dioica|Urtica sp.|Usnea undulata|Utricularia australis|Uvaria acuminatissima|Vaccinium alaskaense|Vaccinium angustifolium|Vaccinium corymbosum|Vaccinium deliciosum|Vaccinium dunalianum|Vaccinium macrocarpon|Vaccinium myrtillus|Vaccinium ovalifolium|Vaccinium ovatum|Vaccinium oxycoccos|Vaccinium parvifolium|Vaccinium uliginosum|Vaccinium vitis-idaea|Vachellia pennatula|Valeriana Jatamansi|Valeriana amurensis|Valeriana jatamansii|Valeriana officinalis|Valeriana rossica|Valeriana sp.|Vellozia nanuzae|Vepris glomerata|Verbascum sp.|Verbena officinalis|Vernonia arbor|Vernonia lanuginosa|Vernonia serratuloides|Veronica sp.|Viburnum dilatatum|Viburnum lantana|Viburnum sp.|Vigna angularis|Vincetoxicum scandens|Vincetoxicum sp.|Virgilia divaricata|Viscum album|Viscum coloratum|Viscum sp.|Vitex negundo|Vitis vinifera|Welsh onion|Westiella intricata|Widely distributed in plant|Wikstroemia lanceolata|Woodwardia orientalis|Woodwardia prolifera|Xanthium sibiricum|Xanthium strumarium|Zanthoxylum myriacanthum|Zea mays|Zephyranthes carinata|Zingiber|Zingiber officinale|Ziziphora clinopodioides|Ziziphus jujuba|Zostera marina|asparagus|basil|bog bilberry|broad bean|cacao|chia|clove|common dandelion|common myrtle|common sunflower|erycibe hainanesis|garlic|hedyotis scandens|maize|meadow clary|moringa|obedient plant|parsley|peanut|pomegranate|potato|rooibos|soybean|sweet potato|tomato|yerba mate

>  <collections>  (322) 
ANPDB|BIOFACQUIM|CMAUP (cCollective molecular activities of useful plants)|ChEBI NPs|ChemSpider NPs|ConMedNP|DrugBankNP|EMNPD|ETM (Ethiopian Traditional Medicine) DB|FooDB|HIM (Herbal Ingredients in-vivo Metabolism database)|HIT (Herbal Ingredients Targets)|Indofine Chemical Company|InflamNat|KNApSaCK|Latin America dataset|Mitishamba database|NANPDB (Natural Products from Northern African Sources)|NPACT|NPASS|NPEdia|NuBBEDB|Phenol-explorer|Phyto4Health|PhytoLab phyproof® Reference Substances|PubChem NPs|SANCDB|Specs Natural Products|StreptomeDB|Super Natural II|TCMDB-Taiwan (Traditional Chinese Medicine database)|TIPdb (database of Taiwan indigenous plants)|UEFS (Natural Products Databse of the UEFS)|VietHerb|WikiData Natural Products|p-ANAPL

>  <dois>  (322) 
10.1002/(SICI)1097-0010(200003)80:4<459::AID-JSFA549>3.0.CO;2-O|10.1002/(SICI)1099-1565(199603)7:2<97::AID-PCA286>3.0.CO;2-M|10.1002/(SICI)1099-1565(199901/02)10:1<6::AID-PCA431>3.0.CO;2-0|10.1002/(SICI)1099-1565(199909/10)10:5<268::AID-PCA467>3.0.CO;2-Z|10.1002/(SICI)1099-1573(199908/09)13:5<422::AID-PTR462>3.0.CO;2-M|10.1002/(SICI)1099-1573(200005)14:3<156::AID-PTR630>3.0.CO;2-V|10.1002/(SICI)1521-4133(199909)101:9<328::AID-LIPI328>3.0.CO;2-M|10.1002/(SICI)1521-4168(19990401)22:4<222::AID-JHRC222>3.0.CO;2-6|10.1002/1099-1565(200007/08)11:4<236::AID-PCA503>3.0.CO;2-B|10.1002/1099-1565(200011/12)11:6<375::AID-PCA539>3.0.CO;2-0|10.1002/1099-1573(200011)14:7<561::AID-PTR651>3.0.CO;2-H|10.1002/ARDP.19612940503|10.1002/ARDP.19632961009|10.1002/ARDP.19853181207|10.1002/CBDV.200800139|10.1002/CBDV.200800273|10.1002/CBDV.201100219|10.1002/CHIN.200342212|10.1002/CHIN.200434239|10.1002/CHIN.200533256|10.1002/CHIN.200624175|10.1002/ELAN.200403102|10.1002/HLCA.19480310317|10.1002/HLCA.19920750122|10.1002/HLCA.200790187|10.1002/HLCA.200800379|10.1002/HLCA.200890135|10.1002/HLCA.201000138|10.1002/J.1537-2197.1979.TB06321.X|10.1002/JCCS.199500018|10.1002/JCCS.200000028|10.1002/JCCS.200000029|10.1002/JCCS.200200069|10.1002/JCCS.200700169|10.1002/JCCS.200800059|10.1002/JLAC.19666920122|10.1002/JMS.395|10.1002/JPS.3080110306|10.1002/JSFA.1035|10.1002/JSFA.2740330512|10.1002/JSFA.2740420206|10.1002/JSFA.2740500106|10.1002/JSFA.955|10.1002/JSSC.200390053|10.1002/JSSC.200390054|10.1002/JSSC.200500003|10.1002/JSSC.200900348|10.1002/MCS.1047|10.1002/MNFR.200500064|10.1002/PTR.1324|10.1002/RCM.3166|10.1002/elan.200403102|10.1006/JCRS.1996.0058|10.1006/JFCA.2002.1071|10.1007/BF00487242|10.1007/BF00563469|10.1007/BF00563488|10.1007/BF00564480|10.1007/BF00564607|10.1007/BF00564757|10.1007/BF00565058|10.1007/BF00565061|10.1007/BF00565361|10.1007/BF00565848|10.1007/BF00566073|10.1007/BF00566097|10.1007/BF00566114|10.1007/BF00567040|10.1007/BF00567720|10.1007/BF00568226|10.1007/BF00568230|10.1007/BF00568247|10.1007/BF00570866|10.1007/BF00570871|10.1007/BF00571226|10.1007/BF00571239|10.1007/BF00573563|10.1007/BF00574220|10.1007/BF00574351|10.1007/BF00574353|10.1007/BF00574596|10.1007/BF00574748|10.1007/BF00575061|10.1007/BF00576105|10.1007/BF00577216|10.1007/BF00579083|10.1007/BF00579446|10.1007/BF00579658|10.1007/BF00579662|10.1007/BF00579782|10.1007/BF00579785|10.1007/BF00579786|10.1007/BF00579788|10.1007/BF00579831|10.1007/BF00579837|10.1007/BF00580083|10.1007/BF00580087|10.1007/BF00595084|10.1007/BF00596761|10.1007/BF00597593|10.1007/BF00597729|10.1007/BF00597867|10.1007/BF00597869|10.1007/BF00598180|10.1007/BF00598278|10.1007/BF00598279|10.1007/BF00598600|10.1007/BF00599274|10.1007/BF00602476|10.1007/BF00602480|10.1007/BF00629776|10.1007/BF00629790|10.1007/BF00629813|10.1007/BF00629850|10.1007/BF00629947|10.1007/BF00629948|10.1007/BF00630225|10.1007/BF00630226|10.1007/BF00630375|10.1007/BF00630446|10.1007/BF00630587|10.1007/BF00630667|10.1007/BF00633407|10.1007/BF00636560|10.1007/BF00713337|10.1007/BF00937636|10.1007/BF00941699|10.1007/BF01012389|10.1007/BF01100201|10.1007/BF01170225|10.1007/BF02236305|10.1007/BF02323304|10.1007/BF02467181|10.1007/BF02467553|10.1007/BF02490693|10.1007/BF02491096|10.1007/BF02523530|10.1007/BF02552708|10.1007/BF02671339|10.1007/BF02810208|10.1007/BF02855697|10.1007/BF02908196|10.1007/BF02974274|10.1007/BF02977526|10.1007/BF02977770|10.1007/BF02979070|10.1007/S00216-007-1298-8|10.1007/S002170000265|10.1007/S002170050544|10.1007/S002170100354|10.1007/S00394-019-01987-6|10.1007/S00425-010-1206-X|10.1007/S00425-015-2460-8|10.1007/S00580-015-2192-Y|10.1007/S10600-005-0115-X|10.1007/S10600-005-0118-7|10.1007/S10600-005-0179-7|10.1007/S10600-008-9041-Z|10.1007/S10600-008-9130-Z|10.1007/S10600-009-9174-8|10.1007/S10600-010-9596-3|10.1007/S10600-010-9597-2|10.1007/S10600-011-0025-Z|10.1007/S10600-011-0065-4|10.1007/S10600-011-9810-Y|10.1007/S10600-011-9872-X|10.1007/S10600-012-0124-5|10.1007/S10600-012-0285-2|10.1007/S10600-014-1040-7|10.1007/S10600-015-1519-X|10.1007/S10600-019-02770-Z|10.1007/S10637-005-5856-7|10.1007/S10725-005-6112-Z|10.1007/S11130-011-0236-2|10.1007/S11130-020-00822-2|10.1007/S11306-016-1051-4|10.1007/S11418-007-0139-6|10.1007/S11418-007-0156-5|10.1007/S11418-008-0265-9|10.1007/S11418-009-0362-4|10.1007/s00425-015-2460-8|10.1007/s11130-020-00822-2|10.1016/0021-9673(93)80301-N|10.1016/0021-9673(95)00492-4|10.1016/0021-9673(95)00877-2|10.1016/0021-9673(96)00169-0|10.1016/0031-9422(75)80399-2|10.1016/0031-9422(75)85190-9|10.1016/0031-9422(75)85315-5|10.1016/0031-9422(80)83209-2|10.1016/0031-9422(82)80150-7|10.1016/0031-9422(83)83029-5|10.1016/0031-9422(85)80044-3|10.1016/0031-9422(88)80050-5|10.1016/0031-9422(88)80118-3|10.1016/0031-9422(88)83042-5|10.1016/0031-9422(90)85186-J|10.1016/0031-9422(90)87143-I|10.1016/0031-9422(91)80032-V|10.1016/0031-9422(91)84214-D|10.1016/0031-9422(91)85032-U|10.1016/0031-9422(91)85033-V|10.1016/0031-9422(91)85044-Z|10.1016/0031-9422(91)85077-D|10.1016/0031-9422(92)80081-O|10.1016/0031-9422(92)80227-6|10.1016/0031-9422(92)80233-5|10.1016/0031-9422(93)85118-B|10.1016/0031-9422(95)00369-I|10.1016/0031-9422(95)00669-9|10.1016/0098-8472(86)90054-7|10.1016/0304-3770(86)90119-1|10.1016/0304-3835(90)90147-P|10.1016/0305-1978(88)90032-4|10.1016/0305-1978(90)90051-G|10.1016/0305-1978(92)90085-R|10.1016/0305-1978(93)90051-R|10.1016/0305-1978(93)90061-U|10.1016/0305-1978(93)90062-V|10.1016/0305-1978(94)00092-U|10.1016/0305-1978(94)90049-3|10.1016/0305-1978(94)90063-9|10.1016/0305-1978(95)97456-7|10.1016/0308-8146(93)90137-5|10.1016/0378-4347(95)00265-9|10.1016/0378-8741(84)90075-8|10.1016/0378-8741(93)90067-F|10.1016/0378-8741(96)01419-5|10.1016/0952-3278(94)90141-4|10.1016/0963-9969(94)00046-B|10.1016/B978-0-12-374420-3.00099-1|10.1016/B978-0-12-397934-6.00012-7|10.1016/B978-0-12-675407-0.50017-8|10.1016/J.ARABJC.2013.12.011|10.1016/J.BMC.2008.09.023|10.1016/J.BMCL.2011.10.043|10.1016/J.BMCL.2012.12.077|10.1016/J.BMCL.2013.04.081|10.1016/J.BMCL.2013.12.006|10.1016/J.BMCL.2015.02.048|10.1016/J.CARRES.2010.11.007|10.1016/J.CHROMA.2007.01.090|10.1016/J.CHROMA.2014.04.007|10.1016/J.FITOTE.2003.07.012|10.1016/J.FITOTE.2004.10.013|10.1016/J.FITOTE.2005.08.020|10.1016/J.FITOTE.2008.01.002|10.1016/J.FITOTE.2011.10.014|10.1016/J.FOODCHEM.2005.02.007|10.1016/J.FOODCHEM.2005.09.003|10.1016/J.FOODCHEM.2008.12.074|10.1016/J.FOODCHEM.2009.03.042|10.1016/J.FOODCHEM.2009.07.010|10.1016/J.FOODCHEM.2009.09.031|10.1016/J.FOODCHEM.2012.07.107|10.1016/J.FOODRES.2011.01.009|10.1016/J.FOODRES.2014.04.036|10.1016/J.FOODRES.2014.05.051|10.1016/J.FOODRES.2017.06.052|10.1016/J.IFSET.2018.01.008|10.1016/J.JCHROMB.2015.07.035|10.1016/J.JEP.2004.09.049|10.1016/J.JEP.2006.06.006|10.1016/J.JEP.2008.06.005|10.1016/J.JFCA.2003.09.010|10.1016/J.JFCA.2005.09.003|10.1016/J.JFCA.2006.05.007|10.1016/J.JFF.2012.01.006|10.1016/J.JFF.2015.12.019|10.1016/J.JPBA.2012.01.015|10.1016/J.JPBA.2017.04.035|10.1016/J.LWT.2006.07.003|10.1016/J.LWT.2014.11.023|10.1016/J.LWT.2018.02.024|10.1016/J.PHYMED.2005.06.007|10.1016/J.PHYMED.2006.08.005|10.1016/J.PHYMED.2006.11.021|10.1016/J.PHYTOCHEM.2004.05.008|10.1016/J.PHYTOCHEM.2004.06.003|10.1016/J.PHYTOCHEM.2004.08.014|10.1016/J.PHYTOCHEM.2005.05.002|10.1016/J.PHYTOCHEM.2005.12.021|10.1016/J.PHYTOCHEM.2007.04.014|10.1016/J.PHYTOCHEM.2007.05.031|10.1016/J.PHYTOCHEM.2007.10.028|10.1016/J.PHYTOCHEM.2008.03.020|10.1016/J.PHYTOCHEM.2008.06.001|10.1016/J.PHYTOCHEM.2009.04.008|10.1016/J.PHYTOCHEM.2009.10.007|10.1016/J.PHYTOCHEM.2010.09.008|10.1016/J.PHYTOCHEM.2010.12.018|10.1016/J.PHYTOCHEM.2014.04.010|10.1016/J.PHYTOCHEM.2016.12.003|10.1016/J.PHYTOCHEM.2018.05.011|10.1016/J.TETLET.2011.09.060|10.1016/S0003-2670(01)01241-7|10.1016/S0003-2670(02)00776-6|10.1016/S0003-2670(97)00668-5|10.1016/S0021-9673(00)01030-X|10.1016/S0021-9673(01)00513-1|10.1016/S0021-9673(01)00598-2|10.1016/S0021-9673(01)87655-X|10.1016/S0021-9673(01)92486-0|10.1016/S0021-9673(97)01259-4|10.1016/S0031-9422(00)00110-2|10.1016/S0031-9422(00)00479-9|10.1016/S0031-9422(00)80080-1|10.1016/S0031-9422(00)80460-4|10.1016/S0031-9422(00)80622-6|10.1016/S0031-9422(00)83060-5|10.1016/S0031-9422(00)83645-6|10.1016/S0031-9422(00)83758-9|10.1016/S0031-9422(00)84139-4|10.1016/S0031-9422(00)84947-X|10.1016/S0031-9422(00)85114-6|10.1016/S0031-9422(00)86637-6|10.1016/S0031-9422(00)86894-6|10.1016/S0031-9422(00)86978-2|10.1016/S0031-9422(00)88025-5|10.1016/S0031-9422(00)89547-3|10.1016/S0031-9422(00)89605-3|10.1016/S0031-9422(00)90588-0|10.1016/S0031-9422(00)90786-6|10.1016/S0031-9422(00)97305-9|10.1016/S0031-9422(00)97572-1|10.1016/S0031-9422(00)97805-1|10.1016/S0031-9422(01)00066-8|10.1016/S0031-9422(01)00415-0|10.1016/S0031-9422(01)00449-6|10.1016/S0031-9422(02)00133-4|10.1016/S0031-9422(02)00540-X|10.1016/S0031-9422(97)00690-0|10.1016/S0031-9422(97)01118-7|10.1016/S0031-9422(98)00084-3|10.1016/S0031-9422(98)00107-1|10.1016/S0031-9422(99)00087-4|10.1016/S0031-9422(99)00598-1|10.1016/S0040-4039(00)97569-5|10.1016/S0305-1978(02)00029-7|10.1016/S0305-1978(98)00128-8|10.1016/S0305-1978(99)00007-1|10.1016/S0308-8146(00)00322-8|10.1016/S0308-8146(02)00590-3|10.1016/S0308-8146(03)00127-4|10.1016/S0308-8146(96)00287-7|10.1016/S0308-8146(96)00311-1|10.1016/S0308-8146(98)00146-0|10.1016/S0367-326X(01)00299-4|10.1016/S0367-326X(01)00331-8|10.1016/S0367-326X(02)00237-X|10.1016/S0367-326X(99)00022-2|10.1016/S0378-5122(02)00343-2|10.1016/S0378-8741(00)00304-4|10.1016/S0378-8741(98)00245-1|10.1016/S0731-7085(00)00264-8|10.1016/S0731-7085(00)00455-6|10.1016/S0731-7085(00)00541-0|10.1016/S0889-1575(02)91071-9|10.1016/S0928-0987(97)86374-9|10.1016/S0944-7113(98)80071-8|10.1016/S0963-9969(00)00070-3|10.1016/S0963-9969(00)00072-7|10.1016/S0963-9969(00)00086-7|10.1016/S0963-9969(99)00095-2|10.1016/S0968-0896(00)00225-X|10.1016/S1466-8564(01)00040-6|10.1016/S1875-5364(19)30114-1|10.1016/j.bmcl.2012.12.077|10.1016/j.bmcl.2013.12.006|10.1016/j.bmcl.2015.02.048|10.1016/j.chroma.2014.04.007|10.1016/j.foodchem.2009.03.042|10.1016/j.foodres.2019.108899|10.1016/j.jep.2008.06.005|10.1016/j.jep.2013.06.004|10.1016/j.jfca.2006.05.007|10.1016/j.lwt.2014.11.023|10.1016/j.phytol.2012.03.017|10.1017/CBO9781139095655.005|10.1017/S0043174500026345|10.1021/JF000150T|10.1021/JF0001637|10.1021/JF00017A016|10.1021/JF00021A005|10.1021/JF00035A076|10.1021/JF000422S|10.1021/JF00052A008|10.1021/JF00067A013|10.1021/JF00078A018|10.1021/JF00088A050|10.1021/JF00091A019|10.1021/JF00097A031|10.1021/JF00102A014|10.1021/JF00110A030|10.1021/JF00118A035|10.1021/JF00123A028|10.1021/JF0013407|10.1021/JF010609Z|10.1021/JF010697N|10.1021/JF011454Y|10.1021/JF011582M|10.1021/JF0200164|10.1021/JF020028P|10.1021/JF020055F|10.1021/JF020120L|10.1021/JF0201327|10.1021/JF020725H|10.1021/JF020728U|10.1021/JF020957G|10.1021/JF0211229|10.1021/JF0257547|10.1021/JF0258858|10.1021/JF0307595|10.1021/JF035034F|10.1021/JF035034F.S001|10.1021/JF040083T|10.1021/JF0479766|10.1021/JF049450R|10.1021/JF049847V|10.1021/JF050579Q|10.1021/JF050579Q.S001|10.1021/JF050721N|10.1021/JF051513Y|10.1021/JF060460X|10.1021/JF0615247|10.1021/JF0620968|10.1021/JF0636014|10.1021/JF0713253|10.1021/JF1043508|10.1021/JF2008869|10.1021/JF2011535|10.1021/JF4025135|10.1021/JF504929M|10.1021/JF60196A035|10.1021/JF802152Z|10.1021/JF9001044|10.1021/JF904596M|10.1021/JF9601628|10.1021/JF960486W|10.1021/JF970831X|10.1021/JF970863K|10.1021/JF980049C|10.1021/JF980088O|10.1021/JF990530I|10.1021/JF990677+|10.1021/JF990761P|10.1021/JF9909757|10.1021/JF991266W|10.1021/JO01081A033|10.1021/NP020018I|10.1021/NP030177H|10.1021/NP030505D|10.1021/NP0501031|10.1021/NP0501031.S001|10.1021/NP050447R|10.1021/NP0702786|10.1021/NP200479A|10.1021/NP50030A026|10.1021/NP50052A040|10.1021/NP50054A027|10.1021/NP50055A035|10.1021/NP50091A020|10.1021/NP800643N|10.1021/NP9003195|10.1021/NP900593Q|10.1021/NP900752T|10.1021/NP970044U|10.1021/NP9701790|10.1021/NP970369A|10.1021/NP980153O|10.1021/NP9902237|10.1021/acs.jnatprod.0c00756|10.1021/acs.jnatprod.7b00433|10.1021/acs.jnatprod.7b00699|10.1021/acs.jnatprod.8b00638|10.1021/jf803911n|10.1021/np020018i|10.1021/np050447r|10.1021/np200479a|10.1021/np4005773|10.1021/np50052a004|10.1021/np800643n|10.1021/np9003195|10.1021/np900593q|10.1021/np9701790|10.1021/np980153o|10.1023/B:CONC.0000025477.18086.8B|10.1023/B:CONC.0000033925.00693.7B|10.1023/B:CONC.0000033945.16862.19|10.1024/0300-9831.73.2.152|10.1038/NBT.2488|10.1039/AN9891401021|10.1039/C3979001073B|10.1039/CT9120100001|10.1039/CT9140500559|10.1039/CT9140501829|10.1039/CT9140501845|10.1039/J39680000854|10.1046/J.1432-1033.2003.03729.X|10.1055/S-0028-1097443|10.1055/S-0028-1097714|10.1055/S-0028-1099426|10.1055/S-0028-1099453|10.1055/S-0028-1099474|10.1055/S-2000-8561|10.1055/S-2001-10878|10.1055/S-2001-14337|10.1055/S-2003-41127|10.1055/S-2003-43202|10.1055/S-2003-43225|10.1055/S-2004-815540|10.1055/S-2005-864148|10.1055/S-2005-873181|10.1055/S-2006-957510|10.1055/S-2006-957513|10.1055/S-2006-957540|10.1055/S-2006-957620|10.1055/S-2006-957627|10.1055/S-2006-957639|10.1055/S-2006-957738|10.1055/S-2006-957987|10.1055/S-2006-958024|10.1055/S-2006-959608|10.1055/S-2006-959751|10.1055/S-2006-959880|10.1055/S-2006-960003|10.1055/S-2006-960092|10.1055/S-2006-960413|10.1055/S-2006-960862|10.1055/S-2006-961558|10.1055/S-2006-961904|10.1055/S-2007-969319|10.1055/S-2007-979339|10.1055/S-2008-1081295|10.1076/PHBI.36.4.295.4579|10.1076/PHBI.36.5.362.4654|10.1076/PHBI.37.1.28.6327|10.1076/PHBI.37.1.92.6318|10.1076/PHBI.41.5.375.15938|10.1078/094471103322331476|10.1080/01140671.2004.9514321|10.1080/01483918808076763|10.1080/01483919008049590|10.1080/09637480500524299|10.1080/1028602031000066843|10.1080/1028602031000105867|10.1080/10408390802145377|10.1080/10826079708005561|10.1080/10826079808003594|10.1080/13880200500408491|10.1080/14786410802044885|10.1080/14786410802242851|10.1080/14786410902854126|10.1080/14786410903339044|10.1080/14786419.2010.533666|10.1080/14786419.2014.999242|10.1080/15592324.2016.1249080|10.1081/JLC-100101655|10.1081/JLC-100101676|10.1081/JLC-100101744|10.1081/JLC-100106092|10.1081/JLC-120027086|10.1081/JLC-200051475|10.1089/JMF.2009.0041|10.1093/CHROMSCI/45.6.354|10.1093/CHROMSCI/BMY030|10.1096/FJ.04-2126COM|10.11002/KJFP.2013.20.2.234|10.1104/PP.101.3.847|10.1111/1750-3841.12404|10.1111/1750-3841.15164|10.1111/J.1365-2621.1983.TB14842.X|10.1111/J.1365-2621.1983.TB14902.X|10.1111/J.1365-2621.1987.TB14056.X|10.1111/J.1365-2621.1994.TB05584.X|10.1111/J.1365-2621.2003.TB12340.X|10.1111/J.1438-8677.1961.TB00047.X|10.1111/J.1439-0434.1984.TB00743.X|10.1111/J.1745-4522.2007.00107.X|10.1111/J.1745-4557.2003.TB00243.X|10.1111/J.1745-4557.2006.00096.X|10.1111/J.2042-7158.1998.TB03332.X|10.1124/DMD.109.028019|10.1139/B82-307|10.1139/B91-288|10.1139/Y09-091|10.1142/S0192415X01000198|10.1142/S0192415X08005795|10.1177/1934578X0800300925|10.1177/1934578X0900400602|10.1177/1934578X1000500721|10.1186/S12906-018-2154-4|10.1186/s12906-015-0838-6|10.1186/s12906-015-0873-3|10.1186/s12906-018-2154-4|10.1201/9780203022320.CH4|10.1201/9781315120157-15|10.1211/146080899128734893|10.1248/BPB.22.157|10.1248/BPB.25.1101|10.1248/BPB.25.1197|10.1248/BPB.31.765|10.1248/BPB.34.160|10.1248/CPB.17.124|10.1248/CPB.30.1525|10.1248/CPB.30.4268|10.1248/CPB.35.1234|10.1248/CPB.35.1785|10.1248/CPB.38.3218|10.1248/CPB.39.3346|10.1248/CPB.46.362|10.1248/CPB.47.375|10.1248/CPB.47.887|10.1248/CPB.48.1711|10.1248/CPB.49.887|10.1248/CPB.50.73|10.1248/CPB.51.1439|10.1248/CPB.51.599|10.1248/CPB.52.345|10.1248/CPB.53.56|10.1248/CPB.54.1063|10.1248/CPB.55.1222|10.1248/CPB.55.1505|10.1248/CPB.55.1677|10.1248/CPB.55.771|10.1248/CPB.56.203|10.1248/CPB.56.394|10.1248/CPB.56.536|10.1248/CPB.57.397|10.1248/CPB.57.586|10.1248/CPB.58.1646|10.1248/CPB.59.1425|10.1248/CPB.60.121|10.1248/YAKUSHI1947.103.6_696|10.1248/YAKUSHI1947.103.9_997|10.1248/YAKUSHI1947.104.5_535|10.1248/YAKUSHI1947.105.5_442|10.1248/YAKUSHI1947.105.6_542|10.1248/YAKUSHI1947.107.1_23|10.1248/YAKUSHI1947.108.7_647|10.1248/YAKUSHI1947.117.4_211|10.1248/YAKUSHI1947.95.9_1098|10.1248/YAKUSHI1947.98.4_541|10.12691/JFNR-2-5-9|10.12691/jfnr-2-5-9|10.1271/BBB.58.1141|10.1271/BBB.59.1780|10.1271/BBB.60.1093|10.1271/BBB.60.732|10.1271/BBB.60507|10.1271/BBB.61.1674|10.1271/BBB.64.2689|10.1271/BBB.66.2336|10.1271/BBB.70.172|10.1271/BBB1961.27.121|10.1271/BBB1961.53.519|10.1300/J044V09N04_12|10.14233/AJCHEM.2014.16143A|10.14271/DMS-19177-DE|10.1515/HF.1999.096|10.1515/ZNC-1988-11-1201|10.1515/ZNC-1990-0604|10.1515/ZNC-1992-0602|10.1515/ZNC-1992-0624|10.1515/ZNC-1992-1-204|10.1515/ZNC-1992-3-423|10.1515/ZNC-1992-3-424|10.1515/ZNC-1992-7-804|10.1515/ZNC-1992-7-807|10.1515/ZNC-1992-9-1022|10.1515/ZNC-1992-9-1023|10.1515/ZNC-1993-5-603|10.1515/ZNC-1997-7-805|10.1515/ZNC-1998-11-1224|10.1515/ZNC-1998-11-1225|10.1515/ZNC-1998-9-1002|10.1515/ZNC-2001-1-203|10.1515/ZNC-2001-9-1012|10.1515/ZNC-2003-7-826|10.1590/S0100-40422008000400018|10.1631/JZUS.B0820095|10.17660/ACTAHORTIC.1999.479.17|10.17660/ACTAHORTIC.2003.597.15|10.18535/IJETST/V2I8.18|10.21273/HORTSCI.26.12.1525|10.21548/25-2-2143|10.21577/0103-5053.20190018|10.3109/13880208409070652|10.3109/14756369409040777|10.3358/SHOKUEISHI.32.504|10.3389/FNTPR.2023.1147195|10.3390/12030423|10.3390/IJMS15022327|10.3390/MOLECULES14041456|10.3390/MOLECULES15118241|10.3390/MOLECULES15118251|10.3390/MOLECULES16010251|10.3390/MOLECULES16032259|10.3390/MOLECULES21111576|10.3390/MOLECULES23020469|10.3390/MOLECULES23071558|10.3390/NU11020402|10.3390/NU11061377|10.3390/foods9060770|10.3390/molecules24162945|10.3390/molecules24183212|10.3390/molecules25010011|10.3390/plants11030377|10.3724/SP.J.1009.2010.00264|10.3746/JKFN.2006.35.6.713|10.38212/2224-6614.2935|10.3923/JBS.2001.843.845|10.3945/JN.110.127720|10.3987/COM-07-11291|10.3987/COM-93-6550|10.3987/COM-98-8408|10.4103/PM.PM_309_15|10.4268/CJCMM20111319|10.4268/CJCMM20111611|10.4268/CJCMM20120224|10.4268/CJCMM20121914|10.4268/CJCMM20122316|10.4314/NJNPM.V3I1.11761|10.5012/BKCS.2010.31.01.199|10.5344/AJEV.1996.47.2.186|10.5424/SJAR/2005031-130|10.5586/ASBP.1977.015|10.5586/ASBP.1980.025|10.5586/ASBP.1988.009|10.5586/ASBP.1995.007|10.5586/ASBP.1998.029|10.5586/ASBP.2000.003|10.9734/EJMP/2013/4976

>  <synonyms>  (322) 
trans-3,4-Dihydroxycinnamic acid

>  <cas>  (322) 
501-16-6

$$$$

     RDKit          2D

 40 43  0  0  0  0  0  0  0  0999 V2000
   -8.7740   -6.1197    0.0000 C   0  0  0  0  0  0  0  0  0  0  0  0
   -7.8716   -4.9215    0.0000 C   0  0  0  0  0  0  0  0  0  0  0  0
   -6.3827   -5.1039    0.0000 C   0  0  0  0  0  0  0  0  0  0  0  0
   -5.7962   -6.4845    0.0000 C   0  0  0  0  0  0  0  0  0  0  0  0
   -5.4803   -3.9057    0.0000 C   0  0  0  0  0  0  0  0  0  0  0  0
   -6.0668   -2.5251    0.0000 C   0  0  0  0  0  0  0  0  0  0  0  0
   -5.1644   -1.3269    0.0000 C   0  0  0  0  0  0  0  0  0  0  0  0
   -5.7508    0.0537    0.0000 C   0  0  0  0  0  0  0  0  0  0  0  0
   -4.8484    1.2519    0.0000 C   0  0  0  0  0  0  0  0  0  0  0  0
   -5.4349    2.6325    0.0000 C   0  0  0  0  0  0  0  0  0  0  0  0
   -4.5325    3.8307    0.0000 C   0  0  0  0  0  0  0  0  0  0  0  0
   -5.1190    5.2113    0.0000 O   0  0  0  0  0  0  0  0  0  0  0  0
   -3.0436    3.6483    0.0000 C   0  0  0  0  0  0  0  0  0  0  0  0
   -3.4826    5.0826    0.0000 C   0  0  0  0  0  0  0  0  0  0  0  0
   -1.9118    4.6327    0.0000 O   0  0  0  0  0  0  0  0  0  0  0  0
   -0.6259    3.8605    0.0000 C   0  0  0  0  0  0  0  0  0  0  0  0
    0.7547    4.4469    0.0000 O   0  0  0  0  0  0  0  0  0  0  0  0
   -0.9629    2.3988    0.0000 C   0  0  0  0  0  0  0  0  0  0  0  0
    0.0215    1.2670    0.0000 C   0  0  0  0  0  0  0  0  0  0  0  0
   -0.4665   -0.1514    0.0000 O   0  0  0  0  0  0  0  0  0  0  0  0
    1.4938    1.5536    0.0000 C   0  0  0  0  0  0  0  0  0  0  0  0
    1.9818    2.9720    0.0000 C   0  0  0  0  0  0  0  0  0  0  0  0
    2.4782    0.4218    0.0000 C   0  0  0  0  0  0  0  0  0  0  0  0
    1.9903   -0.9966    0.0000 C   0  0  0  0  0  0  0  0  0  0  0  0
    3.9506    0.7084    0.0000 O   0  0  0  0  0  0  0  0  0  0  0  0
    4.9350   -0.4234    0.0000 C   0  0  0  0  0  0  0  0  0  0  0  0
    4.4470   -1.8418    0.0000 O   0  0  0  0  0  0  0  0  0  0  0  0
    6.4074   -0.1368    0.0000 C   0  0  0  0  0  0  0  0  0  0  0  0
    6.8953    1.2816    0.0000 O   0  0  0  0  0  0  0  0  0  0  0  0
    8.3677    1.5683    0.0000 C   0  0  0  0  0  0  0  0  0  0  0  0
    7.3918   -1.2686    0.0000 C   0  0  0  0  0  0  0  0  0  0  0  0
    6.9038   -2.6870    0.0000 C   0  0  0  0  0  0  0  0  0  0  0  0
    7.8882   -3.8188    0.0000 C   0  0  0  0  0  0  0  0  0  0  0  0
    9.3605   -3.5322    0.0000 C   0  0  0  0  0  0  0  0  0  0  0  0
    9.8485   -2.1138    0.0000 C   0  0  0  0  0  0  0  0  0  0  0  0
    8.8641   -0.9820    0.0000 C   0  0  0  0  0  0  0  0  0  0  0  0
   -2.4572    2.2677    0.0000 C   0  0  0  0  0  0  0  0  0  0  0  0
   -3.3596    1.0695    0.0000 C   0  0  0  0  0  0  0  0  0  0  0  0
   -2.7731   -0.3111    0.0000 C   0  0  0  0  0  0  0  0  0  0  0  0
   -3.6755   -1.5093    0.0000 O   0  0  0  0  0  0  0  0  0  0  0  0
  1  2  1  0
  2  3  1  0
  3  4  1  1
  3  5  1  0
  5  6  2  0
  6  7  1  0
  7  8  2  0
  8  9  1  0
  9 10  2  0
 10 11  1  0
 11 12  2  0
 11 13  1  0
 13 14  1  6
 13 15  1  0
 15 16  1  0
 16 17  2  0
 16 18  1  0
 18 19  1  0
 19 20  2  0
 19 21  1  0
 21 22  1  1
 21 23  1  0
 23 24  1  6
 23 25  1  0
 25 26  1  0
 26 27  2  0
 26 28  1  0
 28 29  1  6
 29 30  1  0
 28 31  1  0
 31 32  2  0
 32 33  1  0
 33 34  2  0
 34 35  1  0
 35 36  2  0
 18 37  2  0
 37 38  1  0
 38 39  2  0
 39 40  1  0
 40  7  1  0
 38  9  1  0
 37 13  1  0
 36 31  1  0
M  END
>  <identifier>  (323) 
CNP0080403.4

>  <canonical_smiles>  (323) 
CC[C@H](C)/C=C/C1=CC2=CC(=O)[C@@]3(C)OC(=O)C(C(=O)[C@@H](C)[C@@H](C)OC(=O)[C@H](OC)C4=CC=CC=C4)=C3C2=CO1

>  <standard_inchi>  (323) 
InChI=1S/C32H34O8/c1-7-18(2)13-14-23-15-22-16-25(33)32(5)27(24(22)17-38-23)26(30(35)40-32)28(34)19(3)20(4)39-31(36)29(37-6)21-11-9-8-10-12-21/h8-20,29H,7H2,1-6H3/b14-13+/t18-,19-,20+,29+,32+/m0/s1

>  <standard_inchi_key>  (323) 
QZJDERIUMCEBDJ-WQHCYADBSA-N

>  <name>  (323) 
nan

>  <iupac_name>  (323) 
[(1~{R},2~{S})-3-[(6~{a}~{S})-6~{a}-methyl-3-[(~{E},3~{S})-3-methylpent-1-enyl]-6,8-dioxo-furo[2,3-h]isochromen-9-yl]-1,2-dimethyl-3-oxo-propyl] (2~{R})-2-methoxy-2-phenyl-acetate

>  <annotation_level>  (323) 
5

>  <total_atom_count>  (323) 
74

>  <heavy_atom_count>  (323) 
40

>  <molecular_weight>  (323) 
546.62

>  <exact_molecular_weight>  (323) 
546.22537

>  <molecular_formula>  (323) 
C32H34O8

>  <alogp>  (323) 
5.03

>  <topological_polar_surface_area>  (323) 
105.20

>  <rotatable_bond_count>  (323) 
10

>  <hydrogen_bond_acceptors>  (323) 
8

>  <hydrogen_bond_donors>  (323) 
0

>  <hydrogen_bond_acceptors_lipinski>  (323) 
8

>  <hydrogen_bond_donors_lipinski>  (323) 
0

>  <lipinski_rule_of_five_violations>  (323) 
2

>  <aromatic_rings_count>  (323) 
1

>  <qed_drug_likeliness>  (323) 
0.30

>  <formal_charge>  (323) 
0

>  <fractioncsp3>  (323) 
0.38

>  <number_of_minimal_rings>  (323) 
4

>  <van_der_walls_volume>  (323) 
nan

>  <contains_sugar>  (323) 
False

>  <contains_ring_sugars>  (323) 
False

>  <contains_linear_sugars>  (323) 
False

>  <murcko_framework>  (323) 
O1C=CC2=CCC3OCC(=C3C2=C1)CCCOCCc4ccccc4

>  <np_likeness>  (323) 
2.00

>  <chemical_class>  (323) 
Benzene and substituted derivatives

>  <chemical_sub_class>  (323) 
Benzylethers

>  <chemical_super_class>  (323) 
Benzenoids

>  <direct_parent_classification>  (323) 
Benzylethers

>  <np_classifier_pathway>  (323) 
Polyketides

>  <np_classifier_superclass>  (323) 
Chromanes

>  <np_classifier_class>  (323) 
Azaphilones

>  <np_classifier_is_glycoside>  (323) 
False

>  <organisms>  (323) 
Chaetomium globosum

>  <collections>  (323) 
NuBBEDB|WikiData Natural Products

>  <dois>  (323) 
10.1021/NP200110F|10.1021/np200110f

>  <synonyms>  (323) 
(R)- MPA-chaetoviridin H

>  <cas>  (323) 
nan

$$$$

     RDKit          2D

 31 33  0  0  0  0  0  0  0  0999 V2000
   -7.5043   -1.4487    0.0000 C   0  0  0  0  0  0  0  0  0  0  0  0
   -6.6937   -0.1866    0.0000 O   0  0  0  0  0  0  0  0  0  0  0  0
   -5.1954   -0.2575    0.0000 C   0  0  0  0  0  0  0  0  0  0  0  0
   -4.5077   -1.5906    0.0000 C   0  0  0  0  0  0  0  0  0  0  0  0
   -3.0093   -1.6615    0.0000 C   0  0  0  0  0  0  0  0  0  0  0  0
   -2.1988   -0.3993    0.0000 C   0  0  0  0  0  0  0  0  0  0  0  0
   -0.7004   -0.4703    0.0000 C   0  0  0  0  0  0  0  0  0  0  0  0
   -0.0127   -1.8033    0.0000 C   0  0  0  0  0  0  0  0  0  0  0  0
   -0.8233   -3.0654    0.0000 O   0  0  0  0  0  0  0  0  0  0  0  0
   -2.3216   -2.9945    0.0000 C   0  0  0  0  0  0  0  0  0  0  0  0
    1.4856   -1.8742    0.0000 C   0  0  0  0  0  0  0  0  0  0  0  0
    2.1734   -3.2073    0.0000 O   0  0  0  0  0  0  0  0  0  0  0  0
    2.2962   -0.6121    0.0000 C   0  0  0  0  0  0  0  0  0  0  0  0
    3.7945   -0.6830    0.0000 C   0  0  0  0  0  0  0  0  0  0  0  0
    4.4823   -2.0161    0.0000 O   0  0  0  0  0  0  0  0  0  0  0  0
    5.9806   -2.0870    0.0000 C   0  0  0  0  0  0  0  0  0  0  0  0
    4.6051    0.5791    0.0000 C   0  0  0  0  0  0  0  0  0  0  0  0
    6.1034    0.5082    0.0000 O   0  0  0  0  0  0  0  0  0  0  0  0
    6.7912   -0.8249    0.0000 C   0  0  0  0  0  0  0  0  0  0  0  0
    3.9174    1.9122    0.0000 C   0  0  0  0  0  0  0  0  0  0  0  0
    4.7279    3.1743    0.0000 O   0  0  0  0  0  0  0  0  0  0  0  0
    6.2263    3.1034    0.0000 C   0  0  0  0  0  0  0  0  0  0  0  0
    2.4190    1.9831    0.0000 C   0  0  0  0  0  0  0  0  0  0  0  0
    1.6085    0.7209    0.0000 C   0  0  0  0  0  0  0  0  0  0  0  0
    0.1101    0.7919    0.0000 O   0  0  0  0  0  0  0  0  0  0  0  0
   -2.8865    0.9337    0.0000 C   0  0  0  0  0  0  0  0  0  0  0  0
   -2.0759    2.1958    0.0000 O   0  0  0  0  0  0  0  0  0  0  0  0
   -2.7637    3.5289    0.0000 C   0  0  0  0  0  0  0  0  0  0  0  0
   -4.3848    1.0046    0.0000 C   0  0  0  0  0  0  0  0  0  0  0  0
   -5.0726    2.3377    0.0000 O   0  0  0  0  0  0  0  0  0  0  0  0
   -6.5709    2.4086    0.0000 C   0  0  0  0  0  0  0  0  0  0  0  0
  1  2  1  0
  2  3  1  0
  3  4  2  0
  4  5  1  0
  5  6  2  0
  6  7  1  0
  7  8  2  0
  8  9  1  0
  9 10  1  0
  8 11  1  0
 11 12  2  0
 11 13  1  0
 13 14  2  0
 14 15  1  0
 15 16  1  0
 14 17  1  0
 17 18  1  0
 18 19  1  0
 17 20  2  0
 20 21  1  0
 21 22  1  0
 20 23  1  0
 23 24  2  0
 24 25  1  0
  6 26  1  0
 26 27  1  0
 27 28  1  0
 26 29  2  0
 29 30  1  0
 30 31  1  0
 29  3  1  0
 25  7  1  0
 24 13  1  0
M  END
>  <identifier>  (324) 
CNP0339169.0

>  <canonical_smiles>  (324) 
COC1=CC=C(C2=C(OC)C(=O)C3=C(OC)C(OC)=C(OC)C=C3O2)C(OC)=C1OC

>  <standard_inchi>  (324) 
InChI=1S/C22H24O9/c1-24-12-9-8-11(17(26-3)19(12)27-4)18-22(30-7)16(23)15-13(31-18)10-14(25-2)20(28-5)21(15)29-6/h8-10H,1-7H3

>  <standard_inchi_key>  (324) 
GNXIYGACTWSGIG-UHFFFAOYSA-N

>  <name>  (324) 
3,5,6,7,2',3',4'-heptamethoxyflavone

>  <iupac_name>  (324) 
3,5,6,7-tetramethoxy-2-(2,3,4-trimethoxyphenyl)chromen-4-one

>  <annotation_level>  (324) 
5

>  <total_atom_count>  (324) 
55

>  <heavy_atom_count>  (324) 
31

>  <molecular_weight>  (324) 
432.43

>  <exact_molecular_weight>  (324) 
432.14203

>  <molecular_formula>  (324) 
C22H24O9

>  <alogp>  (324) 
3.52

>  <topological_polar_surface_area>  (324) 
94.82

>  <rotatable_bond_count>  (324) 
8

>  <hydrogen_bond_acceptors>  (324) 
9

>  <hydrogen_bond_donors>  (324) 
0

>  <hydrogen_bond_acceptors_lipinski>  (324) 
9

>  <hydrogen_bond_donors_lipinski>  (324) 
0

>  <lipinski_rule_of_five_violations>  (324) 
0

>  <aromatic_rings_count>  (324) 
3

>  <qed_drug_likeliness>  (324) 
0.53

>  <formal_charge>  (324) 
0

>  <fractioncsp3>  (324) 
0.32

>  <number_of_minimal_rings>  (324) 
3

>  <van_der_walls_volume>  (324) 
nan

>  <contains_sugar>  (324) 
False

>  <contains_ring_sugars>  (324) 
False

>  <contains_linear_sugars>  (324) 
False

>  <murcko_framework>  (324) 
O1c2ccccc2CC=C1c3ccccc3

>  <np_likeness>  (324) 
0.89

>  <chemical_class>  (324) 
Flavonoids

>  <chemical_sub_class>  (324) 
O-methylated flavonoids

>  <chemical_super_class>  (324) 
Phenylpropanoids and polyketides

>  <direct_parent_classification>  (324) 
6-O-methylated flavonoids

>  <np_classifier_pathway>  (324) 
Shikimates and Phenylpropanoids

>  <np_classifier_superclass>  (324) 
Flavonoids

>  <np_classifier_class>  (324) 
Flavonols

>  <np_classifier_is_glycoside>  (324) 
False

>  <organisms>  (324) 
Apuleia leiocarpa

>  <collections>  (324) 
Latin America dataset|NuBBEDB|WikiData Natural Products|ZINC NP

>  <dois>  (324) 
10.1016/S0031-9422(00)89891-X

>  <synonyms>  (324) 
Apuleisin tetramethyl ether

>  <cas>  (324) 
nan

$$$$

     RDKit          2D

 22 24  0  0  0  0  0  0  0  0999 V2000
    7.8274   -1.4521    0.0000 O   0  0  0  0  0  0  0  0  0  0  0  0
    6.3741   -1.0807    0.0000 C   0  0  0  0  0  0  0  0  0  0  0  0
    5.3258   -2.1535    0.0000 C   0  0  0  0  0  0  0  0  0  0  0  0
    3.8725   -1.7821    0.0000 C   0  0  0  0  0  0  0  0  0  0  0  0
    3.4675   -0.3378    0.0000 C   0  0  0  0  0  0  0  0  0  0  0  0
    2.0143    0.0337    0.0000 C   0  0  0  0  0  0  0  0  0  0  0  0
    1.6093    1.4780    0.0000 C   0  0  0  0  0  0  0  0  0  0  0  0
    0.1560    1.8494    0.0000 C   0  0  0  0  0  0  0  0  0  0  0  0
   -0.2489    3.2937    0.0000 C   0  0  0  0  0  0  0  0  0  0  0  0
   -1.7022    3.6652    0.0000 C   0  0  0  0  0  0  0  0  0  0  0  0
   -2.7505    2.5923    0.0000 C   0  0  0  0  0  0  0  0  0  0  0  0
   -2.3456    1.1480    0.0000 C   0  0  0  0  0  0  0  0  0  0  0  0
   -3.3939    0.0752    0.0000 C   0  0  0  0  0  0  0  0  0  0  0  0
   -4.8472    0.4466    0.0000 C   0  0  0  0  0  0  0  0  0  0  0  0
   -5.8955   -0.6262    0.0000 C   0  0  0  0  0  0  0  0  0  0  0  0
   -5.4906   -2.0705    0.0000 C   0  0  0  0  0  0  0  0  0  0  0  0
   -6.5389   -3.1434    0.0000 O   0  0  0  0  0  0  0  0  0  0  0  0
   -4.0373   -2.4420    0.0000 C   0  0  0  0  0  0  0  0  0  0  0  0
   -2.9890   -1.3691    0.0000 C   0  0  0  0  0  0  0  0  0  0  0  0
   -0.8923    0.7766    0.0000 O   0  0  0  0  0  0  0  0  0  0  0  0
    4.5159    0.7351    0.0000 C   0  0  0  0  0  0  0  0  0  0  0  0
    5.9691    0.3636    0.0000 C   0  0  0  0  0  0  0  0  0  0  0  0
  1  2  1  0
  2  3  2  0
  3  4  1  0
  4  5  2  0
  5  6  1  0
  6  7  1  0
  8  7  1  1
  8  9  1  0
  9 10  1  0
 10 11  1  0
 11 12  1  0
 12 13  1  1
 13 14  2  0
 14 15  1  0
 15 16  2  0
 16 17  1  0
 16 18  1  0
 18 19  2  0
 12 20  1  0
  5 21  1  0
 21 22  2  0
 22  2  1  0
 20  8  1  0
 19 13  1  0
M  END
>  <identifier>  (325) 
CNP0208643.1

>  <canonical_smiles>  (325) 
OC1=CC=C(CC[C@@H]2CCC[C@H](C3=CC=C(O)C=C3)O2)C=C1

>  <standard_inchi>  (325) 
InChI=1S/C19H22O3/c20-16-9-4-14(5-10-16)6-13-18-2-1-3-19(22-18)15-7-11-17(21)12-8-15/h4-5,7-12,18-21H,1-3,6,13H2/t18-,19+/m0/s1

>  <standard_inchi_key>  (325) 
PFPVUGVMSODGGR-RBUKOAKNSA-N

>  <name>  (325) 
nan

>  <iupac_name>  (325) 
4-[2-[(2~{S},6~{R})-6-(4-hydroxyphenyl)tetrahydropyran-2-yl]ethyl]phenol

>  <annotation_level>  (325) 
4

>  <total_atom_count>  (325) 
44

>  <heavy_atom_count>  (325) 
22

>  <molecular_weight>  (325) 
298.38

>  <exact_molecular_weight>  (325) 
298.15689

>  <molecular_formula>  (325) 
C19H22O3

>  <alogp>  (325) 
4.34

>  <topological_polar_surface_area>  (325) 
49.69

>  <rotatable_bond_count>  (325) 
4

>  <hydrogen_bond_acceptors>  (325) 
3

>  <hydrogen_bond_donors>  (325) 
2

>  <hydrogen_bond_acceptors_lipinski>  (325) 
3

>  <hydrogen_bond_donors_lipinski>  (325) 
2

>  <lipinski_rule_of_five_violations>  (325) 
0

>  <aromatic_rings_count>  (325) 
2

>  <qed_drug_likeliness>  (325) 
0.88

>  <formal_charge>  (325) 
0

>  <fractioncsp3>  (325) 
0.37

>  <number_of_minimal_rings>  (325) 
3

>  <van_der_walls_volume>  (325) 
nan

>  <contains_sugar>  (325) 
False

>  <contains_ring_sugars>  (325) 
False

>  <contains_linear_sugars>  (325) 
False

>  <murcko_framework>  (325) 
O1C(c2ccccc2)CCCC1CCc3ccccc3

>  <np_likeness>  (325) 
0.81

>  <chemical_class>  (325) 
Diarylheptanoids

>  <chemical_sub_class>  (325) 
Linear diarylheptanoids

>  <chemical_super_class>  (325) 
Phenylpropanoids and polyketides

>  <direct_parent_classification>  (325) 
Linear diarylheptanoids

>  <np_classifier_pathway>  (325) 
Shikimates and Phenylpropanoids

>  <np_classifier_superclass>  (325) 
Diarylheptanoids

>  <np_classifier_class>  (325) 
Linear diarylheptanoids

>  <np_classifier_is_glycoside>  (325) 
False

>  <organisms>  (325) 
Centrolobium paraense|Centrolobium robustum|Centrolobium sclerophyllum|Centrolobium tomentosum

>  <collections>  (325) 
Latin America dataset|NuBBEDB|Super Natural II|WikiData Natural Products|ZINC NP

>  <dois>  (325) 
10.1016/S0031-9422(00)85606-X|10.1016/S0031-9422(00)97984-6

>  <synonyms>  (325) 
(-)-de-O-methylcentrolobine

>  <cas>  (325) 
nan

$$$$

     RDKit          2D

 25 30  0  0  0  0  0  0  0  0999 V2000
    4.2942    0.3965    0.0000 C   0  0  0  0  0  0  0  0  0  0  0  0
    2.8000    0.2639    0.0000 C   0  0  0  0  0  0  0  0  0  0  0  0
    3.2866    1.6828    0.0000 C   0  0  0  0  0  0  0  0  0  0  0  0
    4.7205    2.1231    0.0000 O   0  0  0  0  0  0  0  0  0  0  0  0
    2.0876    2.5840    0.0000 O   0  0  0  0  0  0  0  0  0  0  0  0
    0.8599    1.7221    0.0000 C   0  0  0  0  0  0  0  0  0  0  0  0
   -0.6464    1.7616    0.0000 C   0  0  0  0  0  0  0  0  0  0  0  0
   -1.5476    0.5625    0.0000 C   0  0  0  0  0  0  0  0  0  0  0  0
   -3.0366    0.7435    0.0000 C   0  0  0  0  0  0  0  0  0  0  0  0
   -3.9379   -0.4556    0.0000 C   0  0  0  0  0  0  0  0  0  0  0  0
   -3.3501   -1.8356    0.0000 C   0  0  0  0  0  0  0  0  0  0  0  0
   -1.8610   -2.0166    0.0000 C   0  0  0  0  0  0  0  0  0  0  0  0
   -0.9598   -0.8175    0.0000 C   0  0  0  0  0  0  0  0  0  0  0  0
    0.5293   -0.9985    0.0000 C   0  0  0  0  0  0  0  0  0  0  0  0
    1.2581   -2.3095    0.0000 C   0  0  0  0  0  0  0  0  0  0  0  0
    2.7579   -2.3338    0.0000 C   0  0  0  0  0  0  0  0  0  0  0  0
    3.5289   -1.0471    0.0000 C   0  0  0  0  0  0  0  0  0  0  0  0
    5.0287   -1.0714    0.0000 O   0  0  0  0  0  0  0  0  0  0  0  0
    2.7079   -0.9833    0.0000 O   0  0  0  0  0  0  0  0  0  0  0  0
    1.3518   -0.9614    0.0000 C   0  0  0  0  0  0  0  0  0  0  0  0
    1.3002    0.2882    0.0000 C   0  0  0  0  0  0  0  0  0  0  0  0
   -5.3568    0.0310    0.0000 C   0  0  0  0  0  0  0  0  0  0  0  0
   -6.5844   -0.8309    0.0000 O   0  0  0  0  0  0  0  0  0  0  0  0
   -5.3324    1.5308    0.0000 C   0  0  0  0  0  0  0  0  0  0  0  0
   -3.8985    1.9711    0.0000 O   0  0  0  0  0  0  0  0  0  0  0  0
  2  1  1  6
  2  3  1  0
  3  4  2  0
  3  5  1  0
  5  6  1  0
  6  7  1  1
  8  7  1  6
  8  9  1  0
  9 10  2  0
 10 11  1  0
 11 12  1  0
 13 12  1  6
 13 14  1  0
 14 15  1  6
 15 16  1  0
 16 17  1  0
 17 18  1  1
 17 19  1  0
 19 20  1  0
 14 21  1  0
 10 22  1  0
 22 23  2  0
 22 24  1  0
 24 25  1  0
 17  2  1  0
 21  2  1  0
 21  6  1  1
 13  8  1  0
 20 14  1  0
 25  9  1  0
M  END
>  <identifier>  (326) 
CNP0109434.1

>  <canonical_smiles>  (326) 
C[C@]12C(=O)O[C@@H]3C[C@H]4C5=C(CC[C@H]4[C@@]4(CC[C@]1(O)OC4)[C@@H]32)C(=O)CO5

>  <standard_inchi>  (326) 
InChI=1S/C19H22O6/c1-17-15-13(25-16(17)21)6-10-11(3-2-9-12(20)7-23-14(9)10)18(15)4-5-19(17,22)24-8-18/h10-11,13,15,22H,2-8H2,1H3/t10-,11-,13-,15+,17+,18+,19+/m1/s1

>  <standard_inchi_key>  (326) 
KGRQDFZHUBOWKM-AJFIRTLESA-N

>  <name>  (326) 
nan

>  <iupac_name>  (326) 
(1~{S},2~{R},10~{R},12~{R},15~{R},16~{S},21~{R})-16-hydroxy-15-methyl-8,13,17-trioxahexacyclo[14.2.2.1^{1,12}.0^{2,10}.0^{5,9}.0^{15,21}]henicos-5(9)-ene-6,14-dione

>  <annotation_level>  (326) 
4

>  <total_atom_count>  (326) 
47

>  <heavy_atom_count>  (326) 
25

>  <molecular_weight>  (326) 
346.38

>  <exact_molecular_weight>  (326) 
346.14164

>  <molecular_formula>  (326) 
C19H22O6

>  <alogp>  (326) 
1.32

>  <topological_polar_surface_area>  (326) 
82.06

>  <rotatable_bond_count>  (326) 
0

>  <hydrogen_bond_acceptors>  (326) 
6

>  <hydrogen_bond_donors>  (326) 
1

>  <hydrogen_bond_acceptors_lipinski>  (326) 
6

>  <hydrogen_bond_donors_lipinski>  (326) 
1

>  <lipinski_rule_of_five_violations>  (326) 
0

>  <aromatic_rings_count>  (326) 
0

>  <qed_drug_likeliness>  (326) 
0.67

>  <formal_charge>  (326) 
0

>  <fractioncsp3>  (326) 
0.79

>  <number_of_minimal_rings>  (326) 
7

>  <van_der_walls_volume>  (326) 
nan

>  <contains_sugar>  (326) 
False

>  <contains_ring_sugars>  (326) 
False

>  <contains_linear_sugars>  (326) 
False

>  <murcko_framework>  (326) 
O1C2=C(CC1)CCC3C2CC4OCC5C6OCC3(CC6)C45

>  <np_likeness>  (326) 
3.11

>  <chemical_class>  (326) 
Naphthopyrans

>  <chemical_sub_class>  (326) 
Naphthopyrans

>  <chemical_super_class>  (326) 
Organoheterocyclic compounds

>  <direct_parent_classification>  (326) 
Naphthopyrans

>  <np_classifier_pathway>  (326) 
Terpenoids

>  <np_classifier_superclass>  (326) 
Diterpenoids

>  <np_classifier_class>  (326) 
Norpimarane and Norisopimarane diterpenoids

>  <np_classifier_is_glycoside>  (326) 
True

>  <organisms>  (326) 
Casimirella rupestris|Humirianthera rupestris

>  <collections>  (326) 
Latin America dataset|NuBBEDB|Super Natural II|WikiData Natural Products

>  <dois>  (326) 
10.1016/S0031-9422(00)98552-2

>  <synonyms>  (326) 
Humirianthenolide C

>  <cas>  (326) 
nan

$$$$

     RDKit          2D

 32 35  0  0  0  0  0  0  0  0999 V2000
    3.7001    5.3099    0.0000 C   0  0  0  0  0  0  0  0  0  0  0  0
    3.7225    3.8100    0.0000 C   0  0  0  0  0  0  0  0  0  0  0  0
    2.4348    3.0407    0.0000 C   0  0  0  0  0  0  0  0  0  0  0  0
    2.4572    1.5409    0.0000 C   0  0  0  0  0  0  0  0  0  0  0  0
    3.7673    0.8104    0.0000 C   0  0  0  0  0  0  0  0  0  0  0  0
    3.7897   -0.6895    0.0000 C   0  0  0  0  0  0  0  0  0  0  0  0
    5.0998   -1.4200    0.0000 O   0  0  0  0  0  0  0  0  0  0  0  0
    5.1221   -2.9198    0.0000 C   0  0  0  0  0  0  0  0  0  0  0  0
    2.5020   -1.4588    0.0000 C   0  0  0  0  0  0  0  0  0  0  0  0
    2.5244   -2.9586    0.0000 O   0  0  0  0  0  0  0  0  0  0  0  0
    1.2367   -3.7279    0.0000 C   0  0  0  0  0  0  0  0  0  0  0  0
    1.2590   -5.2277    0.0000 C   0  0  0  0  0  0  0  0  0  0  0  0
   -0.0734   -2.9974    0.0000 O   0  0  0  0  0  0  0  0  0  0  0  0
    1.1919   -0.7282    0.0000 C   0  0  0  0  0  0  0  0  0  0  0  0
   -0.0958   -1.4975    0.0000 O   0  0  0  0  0  0  0  0  0  0  0  0
   -1.0458   -1.2405    0.0000 C   0  0  0  0  0  0  0  0  0  0  0  0
    1.1695    0.7716    0.0000 C   0  0  0  0  0  0  0  0  0  0  0  0
   -0.1406    1.5021    0.0000 O   0  0  0  0  0  0  0  0  0  0  0  0
    0.2550    0.5208    0.0000 C   0  0  0  0  0  0  0  0  0  0  0  0
   -1.2343    0.3417    0.0000 C   0  0  0  0  0  0  0  0  0  0  0  0
   -2.1340    1.5420    0.0000 C   0  0  0  0  0  0  0  0  0  0  0  0
   -3.6233    1.3629    0.0000 C   0  0  0  0  0  0  0  0  0  0  0  0
   -4.5230    2.5632    0.0000 O   0  0  0  0  0  0  0  0  0  0  0  0
   -3.9334    3.9424    0.0000 C   0  0  0  0  0  0  0  0  0  0  0  0
   -4.2129   -0.0163    0.0000 C   0  0  0  0  0  0  0  0  0  0  0  0
   -5.6324   -0.5011    0.0000 O   0  0  0  0  0  0  0  0  0  0  0  0
   -5.6100   -2.0009    0.0000 C   0  0  0  0  0  0  0  0  0  0  0  0
   -4.1766   -2.4431    0.0000 O   0  0  0  0  0  0  0  0  0  0  0  0
   -3.3132   -1.2166    0.0000 C   0  0  0  0  0  0  0  0  0  0  0  0
   -1.8239   -1.0375    0.0000 C   0  0  0  0  0  0  0  0  0  0  0  0
    0.9855    1.8308    0.0000 C   0  0  0  0  0  0  0  0  0  0  0  0
    0.3550    3.1919    0.0000 C   0  0  0  0  0  0  0  0  0  0  0  0
  1  2  2  0
  2  3  1  0
  4  3  1  6
  4  5  1  0
  5  6  1  0
  6  7  1  6
  7  8  1  0
  6  9  1  0
  9 10  1  6
 10 11  1  0
 11 12  1  0
 11 13  2  0
  9 14  1  0
 14 15  1  6
 15 16  1  0
 14 17  1  0
 17 18  2  0
 14 19  1  0
 19 20  1  6
 20 21  2  0
 21 22  1  0
 22 23  1  0
 23 24  1  0
 22 25  2  0
 25 26  1  0
 26 27  1  0
 27 28  1  0
 28 29  1  0
 29 30  2  0
 19 31  1  0
 31 32  1  1
 17  4  1  0
 30 20  1  0
 31  4  1  0
 29 25  1  0
M  END
>  <identifier>  (327) 
CNP0080457.1

>  <canonical_smiles>  (327) 
C=CC[C@]12C[C@H](OC)[C@H](OC(C)=O)[C@](OC)(C1=O)[C@H](C1=CC(OC)=C3OCOC3=C1)[C@H]2C

>  <standard_inchi>  (327) 
InChI=1S/C24H30O8/c1-7-8-23-11-18(28-5)21(32-14(3)25)24(29-6,22(23)26)19(13(23)2)15-9-16(27-4)20-17(10-15)30-12-31-20/h7,9-10,13,18-19,21H,1,8,11-12H2,2-6H3/t13-,18+,19+,21+,23-,24+/m1/s1

>  <standard_inchi_key>  (327) 
KOMFWEOJBIDGEU-HTLSXTODSA-N

>  <name>  (327) 
nan

>  <iupac_name>  (327) 
[(1~{S},2~{S},3~{S},5~{R},6~{R},7~{S})-5-allyl-1,3-dimethoxy-7-(7-methoxy-1,3-benzodioxol-5-yl)-6-methyl-8-oxo-2-bicyclo[3.2.1]octanyl] acetate

>  <annotation_level>  (327) 
3

>  <total_atom_count>  (327) 
62

>  <heavy_atom_count>  (327) 
32

>  <molecular_weight>  (327) 
446.5

>  <exact_molecular_weight>  (327) 
446.19407

>  <molecular_formula>  (327) 
C24H30O8

>  <alogp>  (327) 
3.02

>  <topological_polar_surface_area>  (327) 
89.52

>  <rotatable_bond_count>  (327) 
7

>  <hydrogen_bond_acceptors>  (327) 
8

>  <hydrogen_bond_donors>  (327) 
0

>  <hydrogen_bond_acceptors_lipinski>  (327) 
8

>  <hydrogen_bond_donors_lipinski>  (327) 
0

>  <lipinski_rule_of_five_violations>  (327) 
0

>  <aromatic_rings_count>  (327) 
1

>  <qed_drug_likeliness>  (327) 
0.47

>  <formal_charge>  (327) 
0

>  <fractioncsp3>  (327) 
0.58

>  <number_of_minimal_rings>  (327) 
4

>  <van_der_walls_volume>  (327) 
nan

>  <contains_sugar>  (327) 
False

>  <contains_ring_sugars>  (327) 
False

>  <contains_linear_sugars>  (327) 
False

>  <murcko_framework>  (327) 
O1c2ccc(cc2OC1)C3CC4CCCC3C4

>  <np_likeness>  (327) 
1.83

>  <chemical_class>  (327) 
Benzodioxoles

>  <chemical_sub_class>  (327) 
Benzodioxoles

>  <chemical_super_class>  (327) 
Organoheterocyclic compounds

>  <direct_parent_classification>  (327) 
Benzodioxoles

>  <np_classifier_pathway>  (327) 
Terpenoids

>  <np_classifier_superclass>  (327) 
nan

>  <np_classifier_class>  (327) 
nan

>  <np_classifier_is_glycoside>  (327) 
False

>  <organisms>  (327) 
Aniba|Aniba sp.

>  <collections>  (327) 
Latin America dataset|NuBBEDB|WikiData Natural Products

>  <dois>  (327) 
10.1016/S0031-9422(82)85050-4

>  <synonyms>  (327) 
nan

>  <cas>  (327) 
nan

$$$$

     RDKit          2D

 22 24  0  0  0  0  0  0  0  0999 V2000
   -4.1578    3.8257    0.0000 C   0  0  0  0  0  0  0  0  0  0  0  0
   -4.6217    2.3992    0.0000 O   0  0  0  0  0  0  0  0  0  0  0  0
   -3.6183    1.2842    0.0000 C   0  0  0  0  0  0  0  0  0  0  0  0
   -2.1510    1.5957    0.0000 C   0  0  0  0  0  0  0  0  0  0  0  0
   -1.1476    0.4807    0.0000 C   0  0  0  0  0  0  0  0  0  0  0  0
   -1.6115   -0.9457    0.0000 C   0  0  0  0  0  0  0  0  0  0  0  0
   -3.0788   -1.2572    0.0000 C   0  0  0  0  0  0  0  0  0  0  0  0
   -3.5427   -2.6837    0.0000 O   0  0  0  0  0  0  0  0  0  0  0  0
   -4.0822   -0.1422    0.0000 C   0  0  0  0  0  0  0  0  0  0  0  0
   -5.5495   -0.4537    0.0000 O   0  0  0  0  0  0  0  0  0  0  0  0
   -0.6081   -2.0607    0.0000 C   0  0  0  0  0  0  0  0  0  0  0  0
   -1.0719   -3.4872    0.0000 O   0  0  0  0  0  0  0  0  0  0  0  0
    0.8592   -1.7492    0.0000 C   0  0  0  0  0  0  0  0  0  0  0  0
    1.3231   -0.3227    0.0000 C   0  0  0  0  0  0  0  0  0  0  0  0
    2.7904   -0.0112    0.0000 C   0  0  0  0  0  0  0  0  0  0  0  0
    3.7938   -1.1262    0.0000 C   0  0  0  0  0  0  0  0  0  0  0  0
    5.2612   -0.8147    0.0000 C   0  0  0  0  0  0  0  0  0  0  0  0
    5.7250    0.6117    0.0000 C   0  0  0  0  0  0  0  0  0  0  0  0
    7.1923    0.9232    0.0000 O   0  0  0  0  0  0  0  0  0  0  0  0
    4.7216    1.7267    0.0000 C   0  0  0  0  0  0  0  0  0  0  0  0
    3.2543    1.4152    0.0000 C   0  0  0  0  0  0  0  0  0  0  0  0
    0.3197    0.7922    0.0000 O   0  0  0  0  0  0  0  0  0  0  0  0
  1  2  1  0
  2  3  1  0
  3  4  2  0
  4  5  1  0
  5  6  2  0
  6  7  1  0
  7  8  1  0
  7  9  2  0
  9 10  1  0
  6 11  1  0
 11 12  2  0
 11 13  1  0
 13 14  2  0
 14 15  1  0
 15 16  2  0
 16 17  1  0
 17 18  2  0
 18 19  1  0
 18 20  1  0
 20 21  2  0
 14 22  1  0
  9  3  1  0
 21 15  1  0
 22  5  1  0
M  END
>  <identifier>  (328) 
CNP0290092.0

>  <canonical_smiles>  (328) 
COC1=CC2=C(C(O)=C1O)C(=O)C=C(C1=CC=C(O)C=C1)O2

>  <standard_inchi>  (328) 
InChI=1S/C16H12O6/c1-21-13-7-12-14(16(20)15(13)19)10(18)6-11(22-12)8-2-4-9(17)5-3-8/h2-7,17,19-20H,1H3

>  <standard_inchi_key>  (328) 
UWARRXZVZDFPQU-UHFFFAOYSA-N

>  <name>  (328) 
Sorbifolin

>  <iupac_name>  (328) 
5,6-dihydroxy-2-(4-hydroxyphenyl)-7-methoxy-chromen-4-one

>  <annotation_level>  (328) 
5

>  <total_atom_count>  (328) 
34

>  <heavy_atom_count>  (328) 
22

>  <molecular_weight>  (328) 
300.27

>  <exact_molecular_weight>  (328) 
300.06339

>  <molecular_formula>  (328) 
C16H12O6

>  <alogp>  (328) 
2.59

>  <topological_polar_surface_area>  (328) 
100.13

>  <rotatable_bond_count>  (328) 
2

>  <hydrogen_bond_acceptors>  (328) 
6

>  <hydrogen_bond_donors>  (328) 
3

>  <hydrogen_bond_acceptors_lipinski>  (328) 
6

>  <hydrogen_bond_donors_lipinski>  (328) 
3

>  <lipinski_rule_of_five_violations>  (328) 
0

>  <aromatic_rings_count>  (328) 
3

>  <qed_drug_likeliness>  (328) 
0.63

>  <formal_charge>  (328) 
0

>  <fractioncsp3>  (328) 
0.06

>  <number_of_minimal_rings>  (328) 
3

>  <van_der_walls_volume>  (328) 
247.22

>  <contains_sugar>  (328) 
False

>  <contains_ring_sugars>  (328) 
False

>  <contains_linear_sugars>  (328) 
False

>  <murcko_framework>  (328) 
O1c2ccccc2CC=C1c3ccccc3

>  <np_likeness>  (328) 
1.28

>  <chemical_class>  (328) 
Flavonoids

>  <chemical_sub_class>  (328) 
O-methylated flavonoids

>  <chemical_super_class>  (328) 
Phenylpropanoids and polyketides

>  <direct_parent_classification>  (328) 
7-O-methylated flavonoids

>  <np_classifier_pathway>  (328) 
Shikimates and Phenylpropanoids

>  <np_classifier_superclass>  (328) 
Flavonoids

>  <np_classifier_class>  (328) 
Flavones

>  <np_classifier_is_glycoside>  (328) 
False

>  <organisms>  (328) 
Adenocalymma alliaceum|Ambrosia ambrosioides|Anvillea garcinii|Balsamorhiza deltoidea|Balsamorhiza sagittata|Calanticaria greggii|Dracocephalum tanguticum|Galeopsis ladanum|Halophila johnsonii|Heterotheca subaxillaris|Lagochilus leiacanthus|Lantana trifolia|Mentha Piperita|Mentha piperita|Mentha pulegium|Mentha suaveolens|Mentha x piperita|Ocimum americanum|Onopordon sibthorpianum|Onopordum boissierianum|Onopordum myriacanthum|Patersonia umbrosa|Pleocarphus revolutus|Pterogyne nitens|Sanbaria stellipila|Scoparia Dulcis|Scoparia dulcis|Sorbaria sorbifolia|Sorbaria sorbifolia var. stellipila|Sorbaria stellipila|Spathelia glabrescens|Spathelia simplex|Spathelia sorbifolia|Teucrium hircanicum|Thymus herba-barona

>  <collections>  (328) 
ANPDB|Australian natural products|CMAUP (cCollective molecular activities of useful plants)|ChemSpider NPs|KNApSaCK|Latin America dataset|NANPDB (Natural Products from Northern African Sources)|NPASS|NPEdia|NuBBEDB|Super Natural II|TCMID (Traditional Chinese Medicine Integrated Database)|TIPdb (database of Taiwan indigenous plants)|UNPD (Universal Natural Products Database)|VietHerb|WikiData Natural Products|ZINC NP

>  <dois>  (328) 
10.1007/BF00564929|10.1007/S10600-005-0118-7|10.1016/0031-9422(77)80069-1|10.1016/0031-9422(89)80041-X|10.1016/0031-9422(92)83268-4|10.1016/0031-9422(95)00217-U|10.1016/0031-9422(95)00776-8|10.1016/0305-1978(88)90036-1|10.1016/0305-1978(94)90119-8|10.1016/J.BMCL.2010.09.086|10.1016/J.PHYTOCHEM.2008.07.007|10.1016/J.PHYTOCHEM.2008.09.026|10.1016/J.PHYTOCHEM.2009.10.007|10.1016/S0031-9422(00)00439-8|10.1016/S0031-9422(97)01042-X|10.1016/S0305-1978(98)00077-5|10.1016/s0031-9422(00)97881-6|10.1016/s0031-9422(97)01042-x|10.1021/NP800612X|10.1039/J39670002540|10.1039/P19770000397|10.1248/CPB.18.916|10.1248/CPB.56.723|10.1248/CPB.59.1535|10.1248/cpb.56.723

>  <synonyms>  (328) 
23130-22-5|4H-1-Benzopyran-4-one, 5,6-dihydroxy-2-(4-hydroxyphenyl)-7-methoxy-|5,6,4'-trihydroxy-7-methoxyflavone|5,6-dihydroxy-2-(4-hydroxyphenyl)-7-methoxy-4H-1-benzopyran-4-one|5,6-dihydroxy-2-(4-hydroxyphenyl)-7-methoxychromen-4-one|CHEBI:192701|CHEMBL3740428|CS-0649522|DTXSID70177697|HY-N11552|LMPK12111161|Q63395327|SCHEMBL739122|SCUTELLAREIN-7-METHYL ETHER|Sorbifolin|scutellarein 7-methyl ether

>  <cas>  (328) 
23130-22-5

$$$$

     RDKit          2D

  7  7  0  0  0  0  0  0  0  0999 V2000
   -2.8157    0.4537    0.0000 C   0  0  0  0  0  0  0  0  0  0  0  0
   -1.7770   -0.6285    0.0000 C   0  0  0  0  0  0  0  0  0  0  0  0
   -0.3205   -0.2700    0.0000 C   0  0  0  0  0  0  0  0  0  0  0  0
    0.8257   -1.2376    0.0000 C   0  0  0  0  0  0  0  0  0  0  0  0
    2.1002   -0.4466    0.0000 C   0  0  0  0  0  0  0  0  0  0  0  0
    1.7417    1.0099    0.0000 C   0  0  0  0  0  0  0  0  0  0  0  0
    0.2456    1.1191    0.0000 C   0  0  0  0  0  0  0  0  0  0  0  0
  1  2  1  0
  2  3  1  0
  3  4  2  0
  4  5  1  0
  5  6  1  0
  6  7  1  0
  7  3  1  0
M  END
>  <identifier>  (329) 
CNP0080677.0

>  <canonical_smiles>  (329) 
CCC1=CCCC1

>  <standard_inchi>  (329) 
InChI=1S/C7H12/c1-2-7-5-3-4-6-7/h5H,2-4,6H2,1H3

>  <standard_inchi_key>  (329) 
QYYQTLLGVAPKPN-UHFFFAOYSA-N

>  <name>  (329) 
1-Ethyl-1-cyclopentene

>  <iupac_name>  (329) 
1-ethylcyclopentene

>  <annotation_level>  (329) 
5

>  <total_atom_count>  (329) 
19

>  <heavy_atom_count>  (329) 
7

>  <molecular_weight>  (329) 
96.17

>  <exact_molecular_weight>  (329) 
96.0939

>  <molecular_formula>  (329) 
C7H12

>  <alogp>  (329) 
2.51

>  <topological_polar_surface_area>  (329) 
0.00

>  <rotatable_bond_count>  (329) 
1

>  <hydrogen_bond_acceptors>  (329) 
0

>  <hydrogen_bond_donors>  (329) 
0

>  <hydrogen_bond_acceptors_lipinski>  (329) 
0

>  <hydrogen_bond_donors_lipinski>  (329) 
0

>  <lipinski_rule_of_five_violations>  (329) 
0

>  <aromatic_rings_count>  (329) 
0

>  <qed_drug_likeliness>  (329) 
0.44

>  <formal_charge>  (329) 
0

>  <fractioncsp3>  (329) 
0.71

>  <number_of_minimal_rings>  (329) 
1

>  <van_der_walls_volume>  (329) 
nan

>  <contains_sugar>  (329) 
False

>  <contains_ring_sugars>  (329) 
False

>  <contains_linear_sugars>  (329) 
False

>  <murcko_framework>  (329) 
C1=CCCC1

>  <np_likeness>  (329) 
0.31

>  <chemical_class>  (329) 
Unsaturated hydrocarbons

>  <chemical_sub_class>  (329) 
Branched unsaturated hydrocarbons

>  <chemical_super_class>  (329) 
Hydrocarbons

>  <direct_parent_classification>  (329) 
Branched unsaturated hydrocarbons

>  <np_classifier_pathway>  (329) 
Terpenoids

>  <np_classifier_superclass>  (329) 
Monoterpenoids

>  <np_classifier_class>  (329) 
Monocyclic monoterpenoids

>  <np_classifier_is_glycoside>  (329) 
False

>  <organisms>  (329) 
Caryocar coriaceum

>  <collections>  (329) 
Latin America dataset|NuBBEDB|WikiData Natural Products|ZINC NP

>  <dois>  (329) 
10.1021/JF00120A031|10.1021/jf00120a031

>  <synonyms>  (329) 
1-Ethylcyclopentene|1-ethylcyclopent-1-ene|2146-38-5|CS-0449911|Cyclopentene, 1-ethyl-|DTXSID80175740|E0293|InChI=1\/C7H12\/c1-2-7-5-3-4-6-7\/h5H,2-4,6H2,1H|MFCD00039453|N5HEF75LON|NSC 73920|NSC-73920|T72078|UNII-N5HEF75LON|ethylcyclopentene

>  <cas>  (329) 
2146-38-5

$$$$

     RDKit          2D

 23 24  0  0  0  0  0  0  0  0999 V2000
   -1.4538   -3.8658    0.0000 C   0  0  0  0  0  0  0  0  0  0  0  0
   -1.7117   -2.3881    0.0000 C   0  0  0  0  0  0  0  0  0  0  0  0
   -2.7767   -2.1403    0.0000 C   0  0  0  0  0  0  0  0  0  0  0  0
   -0.5609   -1.4260    0.0000 C   0  0  0  0  0  0  0  0  0  0  0  0
    0.8478   -1.9415    0.0000 C   0  0  0  0  0  0  0  0  0  0  0  0
    1.9985   -0.9794    0.0000 C   0  0  0  0  0  0  0  0  0  0  0  0
    3.4072   -1.4949    0.0000 C   0  0  0  0  0  0  0  0  0  0  0  0
    3.6650   -2.9726    0.0000 C   0  0  0  0  0  0  0  0  0  0  0  0
    4.5579   -0.5328    0.0000 C   0  0  0  0  0  0  0  0  0  0  0  0
    4.3001    0.9449    0.0000 C   0  0  0  0  0  0  0  0  0  0  0  0
    2.8915    1.4604    0.0000 C   0  0  0  0  0  0  0  0  0  0  0  0
    2.6336    2.9381    0.0000 C   0  0  0  0  0  0  0  0  0  0  0  0
    1.7407    0.4983    0.0000 C   0  0  0  0  0  0  0  0  0  0  0  0
    0.3321    1.0138    0.0000 C   0  0  0  0  0  0  0  0  0  0  0  0
    0.0742    2.4915    0.0000 O   0  0  0  0  0  0  0  0  0  0  0  0
   -1.3344    3.0070    0.0000 C   0  0  0  0  0  0  0  0  0  0  0  0
   -1.5922    4.4847    0.0000 C   0  0  0  0  0  0  0  0  0  0  0  0
   -2.4852    2.0449    0.0000 O   0  0  0  0  0  0  0  0  0  0  0  0
   -0.8187    0.0517    0.0000 C   0  0  0  0  0  0  0  0  0  0  0  0
   -2.2273    0.5672    0.0000 O   0  0  0  0  0  0  0  0  0  0  0  0
   -3.3781   -0.3949    0.0000 C   0  0  0  0  0  0  0  0  0  0  0  0
   -4.7867    0.1206    0.0000 C   0  0  0  0  0  0  0  0  0  0  0  0
   -3.3229   -1.4870    0.0000 O   0  0  0  0  0  0  0  0  0  0  0  0
  1  2  2  0
  2  3  1  0
  2  4  1  0
  4  5  2  0
  5  6  1  0
  6  7  2  0
  7  8  1  0
  7  9  1  0
  9 10  2  0
 10 11  1  0
 11 12  1  0
 11 13  2  0
 13 14  1  0
 14 15  1  0
 15 16  1  0
 16 17  1  0
 16 18  2  0
 14 19  2  0
 19 20  1  0
 20 21  1  0
 21 22  1  0
 21 23  2  0
 19  4  1  0
 13  6  1  0
M  END
>  <identifier>  (330) 
CNP0080598.0

>  <canonical_smiles>  (330) 
C=C(C)C1=CC2=C(C)C=CC(C)=C2C(OC(C)=O)=C1OC(C)=O

>  <standard_inchi>  (330) 
InChI=1S/C19H20O4/c1-10(2)15-9-16-11(3)7-8-12(4)17(16)19(23-14(6)21)18(15)22-13(5)20/h7-9H,1H2,2-6H3

>  <standard_inchi_key>  (330) 
RKLGPDCGMPEFGB-UHFFFAOYSA-N

>  <name>  (330) 
nan

>  <iupac_name>  (330) 
(1-acetoxy-3-isopropenyl-5,8-dimethyl-2-naphthyl) acetate

>  <annotation_level>  (330) 
4

>  <total_atom_count>  (330) 
43

>  <heavy_atom_count>  (330) 
23

>  <molecular_weight>  (330) 
312.37

>  <exact_molecular_weight>  (330) 
312.13616

>  <molecular_formula>  (330) 
C19H20O4

>  <alogp>  (330) 
4.34

>  <topological_polar_surface_area>  (330) 
52.60

>  <rotatable_bond_count>  (330) 
3

>  <hydrogen_bond_acceptors>  (330) 
4

>  <hydrogen_bond_donors>  (330) 
0

>  <hydrogen_bond_acceptors_lipinski>  (330) 
4

>  <hydrogen_bond_donors_lipinski>  (330) 
0

>  <lipinski_rule_of_five_violations>  (330) 
0

>  <aromatic_rings_count>  (330) 
2

>  <qed_drug_likeliness>  (330) 
0.62

>  <formal_charge>  (330) 
0

>  <fractioncsp3>  (330) 
0.26

>  <number_of_minimal_rings>  (330) 
2

>  <van_der_walls_volume>  (330) 
nan

>  <contains_sugar>  (330) 
False

>  <contains_ring_sugars>  (330) 
False

>  <contains_linear_sugars>  (330) 
False

>  <murcko_framework>  (330) 
c1ccc2ccccc2c1

>  <np_likeness>  (330) 
0.48

>  <chemical_class>  (330) 
Naphthalenes

>  <chemical_sub_class>  (330) 
Naphthalenes

>  <chemical_super_class>  (330) 
Benzenoids

>  <direct_parent_classification>  (330) 
Naphthalenes

>  <np_classifier_pathway>  (330) 
Terpenoids

>  <np_classifier_superclass>  (330) 
nan

>  <np_classifier_class>  (330) 
nan

>  <np_classifier_is_glycoside>  (330) 
False

>  <organisms>  (330) 
Emmotum nitens

>  <collections>  (330) 
Latin America dataset|NuBBEDB|WikiData Natural Products

>  <dois>  (330) 
10.1016/0031-9422(76)85091-1

>  <synonyms>  (330) 
12-diacetoxy-3-isopropenyl-58-dimethylnaphthalene

>  <cas>  (330) 
nan

$$$$

     RDKit          2D

 26 29  0  0  0  0  0  0  0  0999 V2000
   -4.8354    0.1545    0.0000 C   0  0  0  0  0  0  0  0  0  0  0  0
   -3.4654   -0.4565    0.0000 C   0  0  0  0  0  0  0  0  0  0  0  0
   -3.3096   -1.9484    0.0000 C   0  0  0  0  0  0  0  0  0  0  0  0
   -1.9397   -2.5593    0.0000 O   0  0  0  0  0  0  0  0  0  0  0  0
   -4.5237   -2.8293    0.0000 O   0  0  0  0  0  0  0  0  0  0  0  0
   -4.3678   -4.3211    0.0000 C   0  0  0  0  0  0  0  0  0  0  0  0
   -2.2514    0.4244    0.0000 C   0  0  0  0  0  0  0  0  0  0  0  0
   -0.8814   -0.1865    0.0000 C   0  0  0  0  0  0  0  0  0  0  0  0
    0.3327    0.6944    0.0000 C   0  0  0  0  0  0  0  0  0  0  0  0
    0.1768    2.1862    0.0000 N   0  0  0  0  0  0  0  0  0  0  0  0
    1.5475    2.7955    0.0000 C   0  0  0  0  0  0  0  0  0  0  0  0
    2.5505    1.6801    0.0000 C   0  0  0  0  0  0  0  0  0  0  0  0
    1.7997    0.3816    0.0000 C   0  0  0  0  0  0  0  0  0  0  0  0
    1.0489   -0.9170    0.0000 C   0  0  0  0  0  0  0  0  0  0  0  0
   -0.4430   -1.0728    0.0000 O   0  0  0  0  0  0  0  0  0  0  0  0
    2.0518   -2.0324    0.0000 N   0  0  0  0  0  0  0  0  0  0  0  0
    3.4226   -1.4231    0.0000 C   0  0  0  0  0  0  0  0  0  0  0  0
    4.7925   -2.0341    0.0000 C   0  0  0  0  0  0  0  0  0  0  0  0
    6.0066   -1.1532    0.0000 C   0  0  0  0  0  0  0  0  0  0  0  0
    5.8507    0.3387    0.0000 C   0  0  0  0  0  0  0  0  0  0  0  0
    4.4808    0.9497    0.0000 C   0  0  0  0  0  0  0  0  0  0  0  0
    3.2667    0.0688    0.0000 C   0  0  0  0  0  0  0  0  0  0  0  0
   -1.1931    2.7972    0.0000 C   0  0  0  0  0  0  0  0  0  0  0  0
   -2.4072    1.9163    0.0000 C   0  0  0  0  0  0  0  0  0  0  0  0
   -3.7771    2.5273    0.0000 C   0  0  0  0  0  0  0  0  0  0  0  0
   -3.9330    4.0192    0.0000 C   0  0  0  0  0  0  0  0  0  0  0  0
  1  2  2  0
  2  3  1  0
  3  4  2  0
  3  5  1  0
  5  6  1  0
  7  2  1  1
  7  8  1  0
  9  8  1  1
  9 10  1  0
 10 11  1  0
 11 12  1  0
 13 12  1  6
 13 14  1  0
 14 15  2  0
 14 16  1  0
 16 17  1  0
 17 18  2  0
 18 19  1  0
 19 20  2  0
 20 21  1  0
 21 22  2  0
 10 23  1  0
 23 24  1  0
 24 25  1  1
 25 26  1  0
 24  7  1  0
 13  9  1  0
 22 17  1  0
 22 13  1  0
M  END
>  <identifier>  (331) 
CNP0195020.1

>  <canonical_smiles>  (331) 
C=C(C(=O)OC)[C@@H]1C[C@H]2N(CC[C@]23C(=O)NC2=CC=CC=C23)C[C@@H]1CC

>  <standard_inchi>  (331) 
InChI=1S/C21H26N2O3/c1-4-14-12-23-10-9-21(16-7-5-6-8-17(16)22-20(21)25)18(23)11-15(14)13(2)19(24)26-3/h5-8,14-15,18H,2,4,9-12H2,1,3H3,(H,22,25)/t14-,15-,18+,21+/m0/s1

>  <standard_inchi_key>  (331) 
ZGOYSFPFTZNFQT-PVMRSWARSA-N

>  <name>  (331) 
nan

>  <iupac_name>  (331) 
methyl 2-[(1~{R},6~{R},7~{R},8~{a}~{R})-6-ethyl-2'-oxo-spiro[3,5,6,7,8,8~{a}-hexahydro-2~{H}-indolizine-1,3'-indoline]-7-yl]prop-2-enoate

>  <annotation_level>  (331) 
4

>  <total_atom_count>  (331) 
52

>  <heavy_atom_count>  (331) 
26

>  <molecular_weight>  (331) 
354.45

>  <exact_molecular_weight>  (331) 
354.19434

>  <molecular_formula>  (331) 
C21H26N2O3

>  <alogp>  (331) 
2.73

>  <topological_polar_surface_area>  (331) 
58.64

>  <rotatable_bond_count>  (331) 
3

>  <hydrogen_bond_acceptors>  (331) 
4

>  <hydrogen_bond_donors>  (331) 
1

>  <hydrogen_bond_acceptors_lipinski>  (331) 
4

>  <hydrogen_bond_donors_lipinski>  (331) 
1

>  <lipinski_rule_of_five_violations>  (331) 
0

>  <aromatic_rings_count>  (331) 
1

>  <qed_drug_likeliness>  (331) 
0.67

>  <formal_charge>  (331) 
0

>  <fractioncsp3>  (331) 
0.52

>  <number_of_minimal_rings>  (331) 
4

>  <van_der_walls_volume>  (331) 
nan

>  <contains_sugar>  (331) 
False

>  <contains_ring_sugars>  (331) 
False

>  <contains_linear_sugars>  (331) 
False

>  <murcko_framework>  (331) 
c1ccc2c(c1)NCC23CCN4CCCCC43

>  <np_likeness>  (331) 
1.59

>  <chemical_class>  (331) 
Indoles and derivatives

>  <chemical_sub_class>  (331) 
Indoles

>  <chemical_super_class>  (331) 
Organoheterocyclic compounds

>  <direct_parent_classification>  (331) 
Indoles

>  <np_classifier_pathway>  (331) 
Alkaloids

>  <np_classifier_superclass>  (331) 
Tryptophan alkaloids

>  <np_classifier_class>  (331) 
Simple oxindole alkaloids

>  <np_classifier_is_glycoside>  (331) 
False

>  <organisms>  (331) 
Peschiera catharinensis|Tabernaemontana catharinensis

>  <collections>  (331) 
Latin America dataset|NuBBEDB|Super Natural II|WikiData Natural Products

>  <dois>  (331) 
10.1016/S0031-9422(00)80552-X

>  <synonyms>  (331) 
Catharinensine

>  <cas>  (331) 
nan

$$$$

     RDKit          2D

 31 35  0  0  0  0  0  0  0  0999 V2000
   -3.4807   -2.7778    0.0000 C   0  0  0  0  0  0  0  0  0  0  0  0
   -4.1277   -1.4245    0.0000 C   0  0  0  0  0  0  0  0  0  0  0  0
   -5.6232   -1.3082    0.0000 C   0  0  0  0  0  0  0  0  0  0  0  0
   -6.4717   -2.5451    0.0000 C   0  0  0  0  0  0  0  0  0  0  0  0
   -6.2702    0.0451    0.0000 C   0  0  0  0  0  0  0  0  0  0  0  0
   -5.4217    1.2821    0.0000 C   0  0  0  0  0  0  0  0  0  0  0  0
   -3.9262    1.1657    0.0000 C   0  0  0  0  0  0  0  0  0  0  0  0
   -4.5732    2.5190    0.0000 C   0  0  0  0  0  0  0  0  0  0  0  0
   -3.0777    2.4027    0.0000 C   0  0  0  0  0  0  0  0  0  0  0  0
   -1.5822    2.2863    0.0000 C   0  0  0  0  0  0  0  0  0  0  0  0
   -0.9353    0.9330    0.0000 C   0  0  0  0  0  0  0  0  0  0  0  0
   -0.2883   -0.4202    0.0000 C   0  0  0  0  0  0  0  0  0  0  0  0
   -1.7838   -0.3039    0.0000 C   0  0  0  0  0  0  0  0  0  0  0  0
   -1.1368   -1.6572    0.0000 C   0  0  0  0  0  0  0  0  0  0  0  0
    0.3587   -1.7735    0.0000 C   0  0  0  0  0  0  0  0  0  0  0  0
    1.2072   -0.5366    0.0000 C   0  0  0  0  0  0  0  0  0  0  0  0
    2.7027   -0.6529    0.0000 C   0  0  0  0  0  0  0  0  0  0  0  0
    1.8542   -1.8899    0.0000 C   0  0  0  0  0  0  0  0  0  0  0  0
    3.3497   -2.0062    0.0000 C   0  0  0  0  0  0  0  0  0  0  0  0
    4.8452   -2.1226    0.0000 C   0  0  0  0  0  0  0  0  0  0  0  0
    5.6937   -0.8856    0.0000 C   0  0  0  0  0  0  0  0  0  0  0  0
    7.1891   -1.0020    0.0000 O   0  0  0  0  0  0  0  0  0  0  0  0
    5.0467    0.4677    0.0000 C   0  0  0  0  0  0  0  0  0  0  0  0
    4.9016    1.9606    0.0000 C   0  0  0  0  0  0  0  0  0  0  0  0
    6.4918    0.8698    0.0000 C   0  0  0  0  0  0  0  0  0  0  0  0
    3.5512    0.5840    0.0000 C   0  0  0  0  0  0  0  0  0  0  0  0
    2.9042    1.9373    0.0000 C   0  0  0  0  0  0  0  0  0  0  0  0
    1.4087    2.0537    0.0000 C   0  0  0  0  0  0  0  0  0  0  0  0
    0.5602    0.8167    0.0000 C   0  0  0  0  0  0  0  0  0  0  0  0
   -0.0868    2.1700    0.0000 C   0  0  0  0  0  0  0  0  0  0  0  0
   -3.2792   -0.1876    0.0000 C   0  0  0  0  0  0  0  0  0  0  0  0
  2  1  1  1
  2  3  1  0
  3  4  1  6
  3  5  1  0
  5  6  1  0
  6  7  1  0
  7  8  1  1
  7  9  1  0
  9 10  1  0
 10 11  1  0
 11 12  1  6
 11 13  1  0
 13 14  2  0
 14 15  1  0
 15 16  1  0
 16 17  1  0
 17 18  1  1
 17 19  1  0
 19 20  1  0
 20 21  1  0
 21 22  2  0
 21 23  1  0
 23 24  1  0
 23 25  1  0
 23 26  1  0
 26 27  1  1
 27 28  1  0
 28 29  1  0
 29 30  1  1
 31 13  1  6
 31  2  1  0
 31  7  1  0
 29 11  1  0
 29 16  1  0
 26 17  1  0
M  END
>  <identifier>  (332) 
CNP0176781.1

>  <canonical_smiles>  (332) 
C[C@H]1[C@H](C)CC[C@]2(C)CC[C@]3(C)C(=CCC4[C@@]5(C)CCC(=O)C(C)(C)[C@@H]5CC[C@]43C)[C@H]12

>  <standard_inchi>  (332) 
InChI=1S/C30H48O/c1-19-11-14-27(5)17-18-29(7)21(25(27)20(19)2)9-10-23-28(6)15-13-24(31)26(3,4)22(28)12-16-30(23,29)8/h9,19-20,22-23,25H,10-18H2,1-8H3/t19-,20+,22+,23?,25+,27-,28+,29-,30-/m1/s1

>  <standard_inchi_key>  (332) 
DIFWJJFSELKWGA-ULFFALGTSA-N

>  <name>  (332) 
Urs-12-en-3-one

>  <iupac_name>  (332) 
(4~{a}~{R},6~{a}~{R},6~{b}~{S},8~{a}~{R},11~{R},12~{S},12~{a}~{R},14~{b}~{R})-4,4,6~{a},6~{b},8~{a},11,12,14~{b}-octamethyl-1,2,4~{a},5,6,7,8,9,10,11,12,12~{a},14,14~{a}-tetradecahydropicen-3-one

>  <annotation_level>  (332) 
5

>  <total_atom_count>  (332) 
79

>  <heavy_atom_count>  (332) 
31

>  <molecular_weight>  (332) 
424.71

>  <exact_molecular_weight>  (332) 
424.37052

>  <molecular_formula>  (332) 
C30H48O

>  <alogp>  (332) 
8.23

>  <topological_polar_surface_area>  (332) 
17.07

>  <rotatable_bond_count>  (332) 
0

>  <hydrogen_bond_acceptors>  (332) 
1

>  <hydrogen_bond_donors>  (332) 
0

>  <hydrogen_bond_acceptors_lipinski>  (332) 
1

>  <hydrogen_bond_donors_lipinski>  (332) 
0

>  <lipinski_rule_of_five_violations>  (332) 
1

>  <aromatic_rings_count>  (332) 
0

>  <qed_drug_likeliness>  (332) 
0.36

>  <formal_charge>  (332) 
0

>  <fractioncsp3>  (332) 
0.90

>  <number_of_minimal_rings>  (332) 
5

>  <van_der_walls_volume>  (332) 
438.26

>  <contains_sugar>  (332) 
False

>  <contains_ring_sugars>  (332) 
False

>  <contains_linear_sugars>  (332) 
False

>  <murcko_framework>  (332) 
C1=C2C3CCCCC3CCC2C4CCC5CCCCC5C4C1

>  <np_likeness>  (332) 
3.26

>  <chemical_class>  (332) 
Prenol lipids

>  <chemical_sub_class>  (332) 
Triterpenoids

>  <chemical_super_class>  (332) 
Lipids and lipid-like molecules

>  <direct_parent_classification>  (332) 
Taraxastane, ursane, and bauerane triterpenoids

>  <np_classifier_pathway>  (332) 
Terpenoids

>  <np_classifier_superclass>  (332) 
Triterpenoids

>  <np_classifier_class>  (332) 
Ursane and Taraxastane triterpenoids

>  <np_classifier_is_glycoside>  (332) 
False

>  <organisms>  (332) 
Boswellia carterii|Breea segeta|Cirsium setosum|Cnicus benedictus|Cynomorium songaricum|Schinus terebinthifolius

>  <collections>  (332) 
Australian natural products|CMAUP (cCollective molecular activities of useful plants)|Latin America dataset|NPASS|NuBBEDB|WikiData Natural Products

>  <dois>  (332) 
10.1016/J.JPBA.2009.01.038|10.1016/S0031-9422(00)91125-7|10.1055/s-0028-1097546

>  <synonyms>  (332) 
(4aR,6aR,6bS,8aR,11R,12S,12aR,14bR)-4,4,6a,6b,8a,11,12,14b-octamethyl-1,2,4a,5,6,7,8,9,10,11,12,12a,14,14a-tetradecahydropicen-3-one|.alpha.-Amyrenone|DTXSID10980369|\u221a\u00e9\u00ac\u00b1-Amyrenone

>  <cas>  (332) 
nan

$$$$

     RDKit          2D

 32 35  0  0  0  0  0  0  0  0999 V2000
   -0.7763   -3.0482    0.0000 O   0  0  0  0  0  0  0  0  0  0  0  0
   -1.3414   -1.6587    0.0000 C   0  0  0  0  0  0  0  0  0  0  0  0
   -2.8272   -1.4533    0.0000 C   0  0  0  0  0  0  0  0  0  0  0  0
   -3.3923   -0.0638    0.0000 C   0  0  0  0  0  0  0  0  0  0  0  0
   -4.8781    0.1417    0.0000 C   0  0  0  0  0  0  0  0  0  0  0  0
   -5.4431    1.5312    0.0000 C   0  0  0  0  0  0  0  0  0  0  0  0
   -6.9290    1.7366    0.0000 C   0  0  0  0  0  0  0  0  0  0  0  0
   -7.8499    0.5525    0.0000 C   0  0  0  0  0  0  0  0  0  0  0  0
   -9.3357    0.7580    0.0000 O   0  0  0  0  0  0  0  0  0  0  0  0
   -7.2848   -0.8370    0.0000 C   0  0  0  0  0  0  0  0  0  0  0  0
   -8.2057   -2.0211    0.0000 O   0  0  0  0  0  0  0  0  0  0  0  0
   -5.7990   -1.0424    0.0000 C   0  0  0  0  0  0  0  0  0  0  0  0
   -2.4714    1.1203    0.0000 O   0  0  0  0  0  0  0  0  0  0  0  0
   -0.9855    0.9149    0.0000 C   0  0  0  0  0  0  0  0  0  0  0  0
   -0.0647    2.0990    0.0000 C   0  0  0  0  0  0  0  0  0  0  0  0
    1.4212    1.8936    0.0000 C   0  0  0  0  0  0  0  0  0  0  0  0
    2.3420    3.0776    0.0000 O   0  0  0  0  0  0  0  0  0  0  0  0
    1.9862    0.5040    0.0000 C   0  0  0  0  0  0  0  0  0  0  0  0
    3.4720    0.2986    0.0000 C   0  0  0  0  0  0  0  0  0  0  0  0
    4.0371   -1.0909    0.0000 O   0  0  0  0  0  0  0  0  0  0  0  0
    5.5229   -1.2963    0.0000 C   0  0  0  0  0  0  0  0  0  0  0  0
    6.0880   -2.6859    0.0000 C   0  0  0  0  0  0  0  0  0  0  0  0
    5.1671   -3.8699    0.0000 O   0  0  0  0  0  0  0  0  0  0  0  0
    6.4438   -0.1123    0.0000 C   0  0  0  0  0  0  0  0  0  0  0  0
    7.9296   -0.3177    0.0000 O   0  0  0  0  0  0  0  0  0  0  0  0
    5.8788    1.2773    0.0000 C   0  0  0  0  0  0  0  0  0  0  0  0
    6.7996    2.4613    0.0000 O   0  0  0  0  0  0  0  0  0  0  0  0
    4.3929    1.4827    0.0000 C   0  0  0  0  0  0  0  0  0  0  0  0
    3.8279    2.8722    0.0000 O   0  0  0  0  0  0  0  0  0  0  0  0
    1.0653   -0.6800    0.0000 C   0  0  0  0  0  0  0  0  0  0  0  0
    1.6304   -2.0696    0.0000 O   0  0  0  0  0  0  0  0  0  0  0  0
   -0.4205   -0.4746    0.0000 C   0  0  0  0  0  0  0  0  0  0  0  0
  1  2  2  0
  2  3  1  0
  3  4  2  0
  4  5  1  0
  5  6  2  0
  6  7  1  0
  7  8  2  0
  8  9  1  0
  8 10  1  0
 10 11  1  0
 10 12  2  0
  4 13  1  0
 13 14  1  0
 14 15  2  0
 15 16  1  0
 16 17  1  0
 16 18  2  0
 19 18  1  1
 19 20  1  0
 20 21  1  0
 21 22  1  1
 22 23  1  0
 21 24  1  0
 24 25  1  6
 24 26  1  0
 26 27  1  1
 26 28  1  0
 28 29  1  6
 18 30  1  0
 30 31  1  0
 30 32  2  0
 32  2  1  0
 12  5  1  0
 32 14  1  0
 28 19  1  0
M  END
>  <identifier>  (333) 
CNP0222527.1

>  <canonical_smiles>  (333) 
O=C1C=C(C2=CC=C(O)C(O)=C2)OC2=CC(O)=C([C@@H]3O[C@H](CO)[C@@H](O)[C@H](O)[C@H]3O)C(O)=C12

>  <standard_inchi>  (333) 
InChI=1S/C21H20O11/c22-6-14-17(27)19(29)20(30)21(32-14)16-11(26)5-13-15(18(16)28)10(25)4-12(31-13)7-1-2-8(23)9(24)3-7/h1-5,14,17,19-24,26-30H,6H2/t14-,17-,19+,20-,21+/m1/s1

>  <standard_inchi_key>  (333) 
ODBRNZZJSYPIDI-VJXVFPJBSA-N

>  <name>  (333) 
Isoorientin

>  <iupac_name>  (333) 
2-(3,4-dihydroxyphenyl)-5,7-dihydroxy-6-[(2~{S},3~{R},4~{R},5~{S},6~{R})-3,4,5-trihydroxy-6-(hydroxymethyl)tetrahydropyran-2-yl]chromen-4-one

>  <annotation_level>  (333) 
5

>  <total_atom_count>  (333) 
52

>  <heavy_atom_count>  (333) 
32

>  <molecular_weight>  (333) 
448.38

>  <exact_molecular_weight>  (333) 
448.10056

>  <molecular_formula>  (333) 
C21H20O11

>  <alogp>  (333) 
-0.20

>  <topological_polar_surface_area>  (333) 
201.28

>  <rotatable_bond_count>  (333) 
3

>  <hydrogen_bond_acceptors>  (333) 
11

>  <hydrogen_bond_donors>  (333) 
8

>  <hydrogen_bond_acceptors_lipinski>  (333) 
11

>  <hydrogen_bond_donors_lipinski>  (333) 
8

>  <lipinski_rule_of_five_violations>  (333) 
2

>  <aromatic_rings_count>  (333) 
3

>  <qed_drug_likeliness>  (333) 
0.25

>  <formal_charge>  (333) 
0

>  <fractioncsp3>  (333) 
0.29

>  <number_of_minimal_rings>  (333) 
4

>  <van_der_walls_volume>  (333) 
359.62

>  <contains_sugar>  (333) 
True

>  <contains_ring_sugars>  (333) 
True

>  <contains_linear_sugars>  (333) 
False

>  <murcko_framework>  (333) 
O1c2ccc(cc2CC=C1c3ccccc3)C4OCCCC4

>  <np_likeness>  (333) 
2.03

>  <chemical_class>  (333) 
Flavonoids

>  <chemical_sub_class>  (333) 
Flavonoid glycosides

>  <chemical_super_class>  (333) 
Phenylpropanoids and polyketides

>  <direct_parent_classification>  (333) 
Flavonoid C-glycosides

>  <np_classifier_pathway>  (333) 
Shikimates and Phenylpropanoids

>  <np_classifier_superclass>  (333) 
Flavonoids

>  <np_classifier_class>  (333) 
Flavones

>  <np_classifier_is_glycoside>  (333) 
False

>  <organisms>  (333) 
Abrus Precatorius|Abrus precatorius|Achillea pseudopectinata|Adenia volkensii|Adonis sp.|Adonis spp.|Aeluropus lagopoides|Aglaia australiensis|Alchornea floribunda|Alchornea trewioides|Allagopappus viscosissimus|Alliaria petiolata|Ambrosia artemisiifolia var. elatior|Amsinckia tessellata|Anadenanthera peregrina|Anisothrix integra|Annona muricata|Anolis lineatopus|Aquarius grandiflorus|Aristotelia serrata|Arrhenatherum elatius|Artemisia mongolica|Arum maculatum|Arum palaestinum|Ascarina lucida|Aspalathus acuminata|Aspalathus linearis|Aspergillus mutabilis|Asphodelus ramosus|Asphodelus sp.|Astragalus pycnanthus|Astragalus spinosus|Astrantia major|Athyrium niponicum|Atractylis gummifera|Atuna racemosa|Aucuba chinensis|Aurelia aurita|Baccharis angustifolia|Bambusa multiplex|Baphicacanthus cusia|Barbacenia flava|Barbarea vulgaris|Barbus labeo|Berberis floribunda|Berlinia tomentosa|Bistorta vivipara|Bonamia spectabilis|Boscia salicifolia|Brickellia vernicosa|Bryonia dioica|Cachonina hallii|Cacospongia scalaris|Calamagrostis canadensis var. langsdorffii|Calamagrostis deschampsioides|Calamagrostis fauriei|Calamagrostis gigas|Calamagrostis hakonensis|Calamagrostis matsumurae|Calamagrostis sachalinensis|Calamagrostis tashiroi|Calophyllum apetalum|Capsicum annuum|Carallia brachiata|Carex folliculata|Carex fraseriana|Carica dodecaphylla|Carlina corymbosa|Carlina gummifera|Carlina macrocephala|Caulerpa sertularioides|Cecropia glaziovii|Cecropia hololeuca|Cecropia pachystachya|Cedronella cana|Cedronella canariensis|Centaurea gigantea|Centaurea hermannii|Centaurea huber-morathii|Centaurea macrocephala|Centaurea melitensis L.|Centaurea montana|Centaurea nervosa|Centaurea solstitialis|Centaurea triumfettii|Cerastium arvense|Chamaecytisus hirsutus|Chamaeleon gummifer|Citrullus colocynthis|Citrus grandis|Citrus maxima|Citrus rugulosa|Citrus tangerina|Cladonia furcata|Clematis rehderiana|Clinacanthus Nutans|Clinacanthus nutans|Cocos nucifera|Combretum micranthum|Commelina Communis|Commelina communis|Commelina communis L|Consolida oliveriana|Coronilla varia|Coryphantha calipensis|Crataegus curvisepala|Crataegus monogyna|Crataegus pinnatifida|Crataegus rhipidophylla|Crepidomanes minutum|Crocus minimus|Crossopteryx febrifuga|Crotalaria laburnifolia|Crotalaria sessiliflora|Croton gratissimus|Croton megistocarpus|Croton zambezicus|Cucumis sativus|Cunonia macrophylla|Curculigo pilosa|Cymbopogon citratus|Cymodocea nodosa|Cynometra lujae|Cynthia papillosa|Cytisus hirsutus|Dactylis glomerata|Daphne gnidium|Daphne laureola|Derris laxiflora|Desmodium canadense|Desmodium styracifolium|Dianthus arenarius|Dianthus crinitus|Dicranopteris ampla|Didymoglossum krausii|Didymoglossum kraussii|Dinophysis fortii|Diplacus longiflorus|Diplazium nipponicum|Dissotis rotundifolia|Drosophyllum lusitanicum|Drypetes molunduana|Dunalia solanacea|Entada rheedei|Eperua purpurea|Eriosema montanum|Eriosema psoraleoides|Eriosema robustum|Erylus trisphaerus|Eupatorium areolare|Euphorbia clarkeana|Euphorbia hirta|Euphorbia makinoi|Fagopyrum esculentum|Fagopyrum tataricum|Fargesia robusta|Felimida luteorosea|Ficus lutea|Ficus microcarpa|Flacourtia indica|Fumaria micrantha|Galactia glaucophylla|Gentiana arisanensis|Gentiana asclepiadea|Gentiana chosenica|Gentiana crassicaulis|Gentiana dahurica|Gentiana depressa|Gentiana elwesii|Gentiana loureirii|Gentiana macrophylla|Gentiana olivieri|Gentiana orbicularis|Gentiana pedicellata|Gentiana prolata|Gentiana pseudoaquatica|Gentiana sikkimensis|Gentiana sino-ornata|Gentiana sp.|Gentiana spp.|Gentiana straminea|Gentiana thunbergii|Gentianella campestris|Gentianella nitida|Gentianella serotina|Gentianopsis barbata|Gentianopsis barbellata|Gentianopsis ciliata|Gentianopsis crinita|Gentianopsis detonsa|Gentianopsis grandis|Gentianopsis lanceolata|Gentianopsis paludosa|Gentianopsis simplex|Gentianopsis thermalis|Geranium sibiricum|Ginkgo biloba|Gleditsia caspica|Gleditsia japonica|Gleditsia sinensis|Glochidion zeylanicum|Gluconobacter oxydans MD-16 [upp and l-sorbosone DH. Glucose DH2 NAD-dependent xylitol DH NAD-dependent xylitol DH 2 gluconate 5-DH sldSLC PTS glucose DH Mannitol DH PQQ-dependent DH 3 alcohol DH aldehyde DH 3 aldehyde DH (NAD(+)) gluconate2-DH aldehyde D|Glycyrrhiza uralensis|Gnidia involucrata|Gracilaria textorii|Great yellow gentian|Grona styracifolia|Gypsophila paniculata|Gypsophila sp.|Haplophyllum ramosissimum|Helenium sp.|Helenium spp.|Helichrysum infaustum|Helichrysum mixtum|Helminthosporium sativum|Heterocapsa niei|Heterotis rotundifolia|Humata pectinata|Hunteria umbellata|Hydrangea serrata|Hymenoxys scaposa|Hypaphorus subumbrans|Hyparrhenia hirta|Hypericum perforatum|Hypselodoris zebra|Impatiens capensis|Indocalamus tessellatus|Iris domestica|Iris ensata|Iris lactea|Iris pallasii|Iris pseudopumila|Iris triflora|Isatis quadrialata|Isatis tinctoria|Itea amoena|Itea chinensis|Itea ilicifolia|Itea indochinensis|Itea japonica|Itea macrophylla|Itea maesaefolia|Itea nutans|Itea oldhamii|Itea parviflora|Itea virginica|Itea yunnanensis|Iyengaria stellata|Jamesoniella colorata|Jatropha ciliata|Jatropha multifida|Kali turgidum|Kummerowia Striata|Kummerowia striata|Lagenaria siceraria|Lagerstroemia indica|Laurencia implicata|Leiothrix flavescens|Lemna sp.|Lepidosperma ustulatum|Leptopsammia pruvoti|Lespedeza Juncea|Lespedeza bicolor|Lespedeza capitata|Lespedeza davurica|Lespedeza hedysaroides|Lespedeza juncea|Linum capitatum|Linum sp.|Linum usitatissimum|Lissoclinum vareau|Lomatia polymorpha|Lomatogonium carinthiacum|Lomatogonium rotatum|Lophatherum gracile|Lophozia barbata|Lunularia cruciata|Lupinus polyphyllus|Lupinus sericeus|Lychnis fulgens|Lyngbya aestuarii|Lysiana subfalcata|Lysimachia christinae|Lysimachia foenum-graecum|Lythrum salicaria|Lythrum sp.|Macadamia ternifolia|Macaranga peltata|Marine isolate|Melandrium album|Melilotus alba|Melilotus altus|Melilotus indicus|Melilotus officinalis|Mentha longifolia|Mentha spicata|Metagentiana rhodantha|Mimosa pudica|Monnina emarginata|Moraea sisyrinchium|Mucuna sempervirens|Musanga cecropioides|Nelumbo nucifera|Nostoc spongiaeforme|Ocimum tenuiflorum|Oenothera canescens|Olea europaea|Oryza sativa|Osteospermum muricatum|Otholobium bolusii|Otholobium bracteolatum|Otholobium candicans|Otholobium foliosum|Otholobium fruticans|Otholobium hirtum|Otholobium obliquum|Otholobium parviflorum|Otholobium sericeum|Otholobium stachyerum|Otholobium striatum|Otholobium uncinatum|Otholobium zeyheri|Paenibacillus alvei|Papaver tatricum|Parablechnum minus|Parachlorella kessleri|Parkinsonia Aculeata|Parkinsonia aculeata|Passiflora alata|Passiflora allantophylla|Passiflora ampullacea|Passiflora biflora|Passiflora caerulea|Passiflora coactilis|Passiflora colinvauxii|Passiflora coriacea|Passiflora edulis|Passiflora incarnata|Passiflora macrophylla|Passiflora misera|Passiflora mucronata|Passiflora palmeri|Passiflora pavonis|Passiflora serratifolia|Passiflora sexflora|Passiflora sp.|Passiflora spp.|Passiflora trinervia|Patersonia umbrosa|Patrinia scabiosifolia|Patrinia villosa|Pediomelum esculentum|Pelargonium reniforme|Pelargonium sidoides|Peltogyne pubescens|Pentagonia gigantifolia|Peperomia vulcanica|Persea kusanoi|Persicaria orientalis|Persicaria tinctoria|Petrorhagia dubia|Petrorhagia velutina|Phaeolus schweinitzii|Phlomoides tuberosa|Phoenix hanceana var. formosana|Phoenix loureiroi|Phoenix loureiroi var. loureiroi|Phoma medicaginis|Phyllostachys bambusoides|Phyllostachys edulis|Phyllostachys nigra|Phyllostachys reticulata|Physalis edulis|Pimpinella major|Pimpinella sp.|Pisum Sativum|Pisum sativum|Plagiomnium affine|Platycarya strobilacea|Pleioblastus argenteostriatus|Pleioblastus chino|Pleioblastus simonii|Pleurotus japonicus|Poa annua|Polygala fallax|Polygonum Orientale|Polygonum orientale|Potentilla erecta|Premna tomentosa|Prunella vulgaris|Pseudoceratina arabica|Psoralea aculeata|Psoralea affinis|Psoralea arborea|Psoralea asarina|Psoralea axillaris|Psoralea connixa|Psoralea effusa|Psoralea exile|Psoralea fascicularis|Psoralea glabra|Psoralea imbricata|Psoralea laxa|Psoralea oligophylla|Psoralea oreopolum|Psoralea papillosa|Psoralea pinnata|Psoralea pullata|Psoralea ramulosa|Psoralea speciosa|Psoralea verrucosa|Pterodon emarginatus|Pterogorgia anceps|Pulsatilla campanella|Pygeum topengii|Pyrrosia lingua|Pyrrosia petiolosa|Pyrrosia sheareri|Pyrrosia tricuspis|Pyrus calleryana|Ranunculus japonicus|Ranunculus peltatus|Retama sphaerocarpa|Rhapis humilis|Rhynchosia Minima|Rhynchosia beddomei|Rhynchosia cana|Rhynchosia capitata|Rhynchosia heynei|Rhynchosia minima|Rhynchosia rothii|Rhynchosia rufescens|Rhynchosia suaveolens|Rosa davurica|Rosulabryum capillare|Rumex acetosa|Rumex cyprius|Rumex pictus|Rumex simpliciflorus|Rumex vesicarius|Sagittaria pygmaea|Sagittaria sagittifolia|Salvia miltiorrhiza|Sarcodon glaucopus|Sargassum spinuligerum|Sasa borealis|Sasa kurilensis|Sasa nipponica|Sasa senanensis|Sasamorpha borealis|Saussurea amara|Scleropyrum pentandrum|Securigera varia|Semiarundinaria fastuosa|Senecio eremophilus|Senecio isatideus|Setaria italica|Sia ferox|Sideritis euboea|Silene banksia|Silene fulgens|Silene saxatilis|Silene wilfordii|Siler trilobum|Sisyrinchium californicum|Sophora fraseri|Sorbus tianschanica|Stachys scardica|Stachys scardica Griseb.|Stellaria holostea|Stellaria media|Stephania elegans|Stichopus hermanni|Stillingia sylvatica|Streptomyces gougerotii|Streptomyces griseochromogenes|Sugarcane|Swartzia polyphylla|Swertia decora|Swertia decussata|Swertia delavayi|Swertia japonica|Swertia pseudochinensis|Swertia pubescens|Swertia punctata|Swertia punicea|Swertia sp.|Swertia swertopsis|Syzygium nervosum|Talaromyces pinophilus|Tamarindus Indica|Tamarindus indica|Tamarindus sp.|Tanacetum albipannosum|Tarenna ebracteata|Taxus brevifolia|Tephrosia polystachyoides|Terminalia brachystemma|Terminalia catappa|Terminalia myriocarpa|Theobroma Cacao|Theobroma cacao L.|Thermomyces dupontii|Tigridia pavonia|Tinospora crispa|Tournefortia argentea|Tragopogon orientalis|Tragopogon pratensis|Trichoderma koningi|Trichomanes crispum|Trichomanes cupressoides|Trichomanes holopterum|Trichomanes lucens|Trichomanes polypodioides|Trichomanes reptans|Trigonella foenum-graecum|Trigonella sp.|Tripterospermum chinense|Tripterospermum japonicum|Tripterospermum taiwanense|Tripterospermum trinervium|Triticum aestivum|Trogoderma granarium|Tsuga chinensis|Ulmus wallichiana|Usnea undulata|Utricularia australis|Vellozia coronata|Vellozia epidendroides|Vellozia glabra|Vellozia lilacina|Vellozia scoparia|Vellozia stipitata|Vellozia streptophylla|Verbena officinalis|Viguiera puruana|Viola sp.|Viola yedoensis|Virgilia divaricata|Vitex agnus-castus|Vitex cannabifolia Sieb.et.Zucc.|Vitex negundo|Vitex negundo var. cannabifolia|Vitex polygama|Vitex sp.|Vitex trifolia|Wettsteinia inversa|Wilbrandia ebracteata|broad bean|cacao|fargesia robusta|pomelo|rooibos

>  <collections>  (333) 
ANPDB|Australian natural products|CMAUP (cCollective molecular activities of useful plants)|ChEBI NPs|FooDB|HIT (Herbal Ingredients Targets)|KNApSaCK|Latin America dataset|NANPDB (Natural Products from Northern African Sources)|NPASS|NuBBEDB|Phenol-explorer|Phyto4Health|PhytoLab phyproof® Reference Substances|SANCDB|Super Natural II|TCMDB-Taiwan (Traditional Chinese Medicine database)|VietHerb|WikiData Natural Products|ZINC NP

>  <dois>  (333) 
10.1002/(SICI)1099-1565(200003/04)11:2<90::AID-PCA497>3.0.CO;2-R|10.1002/CHIN.198618358|10.1002/ELPS.201300646|10.1002/HLCA.19860690130|10.1002/J.1537-2197.1988.TB13465.X|10.1002/J.1537-2197.1996.TB13914.X|10.1002/JCCS.200000030|10.1002/JLAC.19666920122|10.1002/JMS.395|10.1002/PCA.688|10.1002/PS.1278|10.1002/ps.1278|10.1007/BF00381261|10.1007/BF00563376|10.1007/BF00563474|10.1007/BF00564266|10.1007/BF00564824|10.1007/BF00565265|10.1007/BF00566811|10.1007/BF00571143|10.1007/BF00574225|10.1007/BF00574811|10.1007/BF00579081|10.1007/BF00579784|10.1007/BF00579835|10.1007/BF00580572|10.1007/BF00580892|10.1007/BF00598320|10.1007/BF00598428|10.1007/BF00598775|10.1007/BF00600849|10.1007/BF00630227|10.1007/BF00630332|10.1007/BF02002621|10.1007/BF02491247|10.1007/BF02688048|10.1007/S00580-010-1023-4|10.1007/S10600-008-9113-0|10.1007/S10600-010-9746-7|10.1007/S10600-012-0377-Z|10.1007/S11418-008-0244-1|10.1007/S11746-003-0652-X|10.1007/S13197-014-1289-7|10.1016/0021-9673(93)80317-2|10.1016/0021-9673(94)85278-2|10.1016/0031-9422(73)80481-9|10.1016/0031-9422(75)85315-5|10.1016/0031-9422(79)83089-7|10.1016/0031-9422(80)83038-X|10.1016/0031-9422(86)88021-9|10.1016/0031-9422(88)80243-7|10.1016/0031-9422(88)87036-5|10.1016/0031-9422(89)80274-2|10.1016/0031-9422(91)83059-T|10.1016/0031-9422(91)83679-F|10.1016/0031-9422(91)85140-U|10.1016/0031-9422(92)90037-Q|10.1016/0031-9422(95)00069-J|10.1016/0031-9422(95)00528-5|10.1016/0305-1978(82)90006-0|10.1016/0305-1978(82)90034-5|10.1016/0305-1978(84)90034-6|10.1016/0305-1978(88)90056-7|10.1016/0305-1978(93)90030-U|10.1016/0305-1978(93)90049-W|10.1016/0305-1978(96)00020-8|10.1016/J.BMC.2015.04.053|10.1016/J.BMCL.2006.09.051|10.1016/J.BMCL.2009.06.074|10.1016/J.BMCL.2010.12.025|10.1016/J.FITOTE.2004.09.019|10.1016/J.FITOTE.2005.04.011|10.1016/J.FITOTE.2006.04.007|10.1016/J.FITOTE.2009.05.006|10.1016/J.FOODCHEM.2019.125629|10.1016/J.JEP.2007.09.020|10.1016/J.JEP.2015.12.016|10.1016/J.JPBA.2013.11.030|10.1016/J.JPBA.2016.01.021|10.1016/J.LFS.2004.07.024|10.1016/J.MATURITAS.2006.06.014|10.1016/J.PHYMED.2006.11.021|10.1016/J.PHYMED.2008.02.006|10.1016/J.PHYTOCHEM.2004.04.014|10.1016/J.PHYTOCHEM.2007.05.016|10.1016/J.PHYTOCHEM.2009.03.018|10.1016/J.PHYTOCHEM.2009.06.006|10.1016/J.PHYTOCHEM.2011.11.001|10.1016/J.PLAPHY.2015.04.008|10.1016/J.SAJB.2017.10.004|10.1016/S0021-9673(01)94458-9|10.1016/S0021-9673(97)00260-4|10.1016/S0024-3205(03)00117-6|10.1016/S0031-9422(00)00046-7|10.1016/S0031-9422(00)00480-5|10.1016/S0031-9422(00)83186-6|10.1016/S0031-9422(00)83638-9|10.1016/S0031-9422(00)83974-6|10.1016/S0031-9422(00)84808-6|10.1016/S0031-9422(00)85027-X|10.1016/S0031-9422(00)85201-2|10.1016/S0031-9422(00)86879-X|10.1016/S0031-9422(00)86995-2|10.1016/S0031-9422(00)88457-5|10.1016/S0031-9422(00)89068-8|10.1016/S0031-9422(00)90131-6|10.1016/S0031-9422(00)90808-2|10.1016/S0031-9422(00)94342-5|10.1016/S0031-9422(00)95162-8|10.1016/S0031-9422(00)97303-5|10.1016/S0031-9422(00)97373-4|10.1016/S0031-9422(00)98008-7|10.1016/S0031-9422(01)00273-4|10.1016/S0031-9422(01)00403-4|10.1016/S0031-9422(02)00231-5|10.1016/S0031-9422(02)00258-3|10.1016/S0031-9422(96)00465-7|10.1016/S0031-9422(96)00800-X|10.1016/S0031-9422(97)00100-3|10.1016/S0031-9422(97)00956-4|10.1016/S0031-9422(98)00416-6|10.1016/S0305-1978(01)00028-X|10.1016/S0305-1978(01)00086-2|10.1016/S0305-1978(02)00046-7|10.1016/S0367-326X(99)00062-3|10.1016/S0378-8741(97)00042-1|10.1016/S0378-8741(98)00147-0|10.1016/j.bmc.2015.04.053|10.1016/j.bmcl.2006.09.051|10.1016/j.bmcl.2009.06.074|10.1016/j.bmcl.2010.12.025|10.1016/j.sajb.2017.10.004|10.1016/j.synbio.2022.02.008|10.1016/s0031-9422(00)97881-6|10.1021/JF0347721|10.1021/JF0479766|10.1021/JF901716J|10.1021/JF980264T|10.1021/JF990625K|10.1021/NP030150Y|10.1021/NP100220G|10.1021/NP100255U|10.1021/NP50017A025|10.1021/NP50022A009|10.1021/NP50024A029|10.1021/NP50028A036|10.1021/NP50031A032|10.1021/NP50032A028|10.1021/NP50037A009|10.1021/NP50037A042|10.1021/NP50048A048|10.1021/NP50050A058|10.1021/NP970011E|10.1021/np100220g|10.1021/np100255u|10.1021/np970011e|10.1023/B:CONC.0000033926.72396.41|10.1042/BJ0830507|10.1055/S-0028-1099931|10.1055/S-0029-1243123|10.1055/S-0029-1243126|10.1055/S-0033-1352160|10.1055/S-2002-20053|10.1055/S-2002-32549|10.1055/S-2003-39699|10.1055/S-2006-957908|10.1055/S-2006-962408|10.1055/S-2006-962425|10.1055/S-2007-969168|10.1055/S-2007-969715|10.1071/ch9650531|10.1076/PHBI.34.4.300.13233|10.1076/PHBI.37.1.92.6318|10.1076/PHBI.40.2.81.5844|10.1078/0944-7113-00003|10.1078/0944-7113-00036|10.1080/00021369.1982.10865479|10.1080/10575630008043782|10.1080/10575639808044951|10.1080/14786410701642532|10.1080/14786410701740237|10.1080/14786410701782544|10.1104/PP.69.2.522|10.1111/JIPB.12204|10.1139/B97-921|10.1177/1934578X1000500521|10.1248/CPB.25.3408|10.1248/CPB.32.4003|10.1248/CPB.35.4317|10.1248/CPB.38.2277|10.1248/CPB.39.1455|10.1248/CPB.44.333|10.1248/CPB.47.1338|10.1248/CPB.49.699|10.1248/CPB.49.921|10.1248/CPB.51.1204|10.1248/CPB.56.485|10.1248/YAKUSHI1947.118.8_332|10.1271/BBB.67.410|10.1271/BBB1961.46.2595|10.1371/JOURNAL.PONE.0214193|10.1515/ZNC-1985-3-402|10.1515/ZNC-2000-5-607|10.1515/ZNC-2001-1-203|10.1590/S0102-695X2007000200002|10.1590/S0103-50532011000600014|10.2298/FUPCT0401067I|10.2307/4040974|10.3390/MOLECULES15020672|10.4268/CJCMM20141115|10.4268/CJCMM20151921|10.5586/ASBP.1988.009

>  <synonyms>  (333) 
nan

>  <cas>  (333) 
4261-42-1

$$$$

     RDKit          2D

 24 27  0  0  0  0  0  0  0  0999 V2000
   -6.6225   -2.3836    0.0000 C   0  0  0  0  0  0  0  0  0  0  0  0
   -5.1552   -2.6951    0.0000 O   0  0  0  0  0  0  0  0  0  0  0  0
   -4.1518   -1.5801    0.0000 C   0  0  0  0  0  0  0  0  0  0  0  0
   -4.6157   -0.1537    0.0000 C   0  0  0  0  0  0  0  0  0  0  0  0
   -3.6122    0.9613    0.0000 C   0  0  0  0  0  0  0  0  0  0  0  0
   -4.0761    2.3878    0.0000 O   0  0  0  0  0  0  0  0  0  0  0  0
   -5.5434    2.6993    0.0000 C   0  0  0  0  0  0  0  0  0  0  0  0
   -2.1449    0.6498    0.0000 C   0  0  0  0  0  0  0  0  0  0  0  0
   -1.1415    1.7647    0.0000 C   0  0  0  0  0  0  0  0  0  0  0  0
   -1.6054    3.1912    0.0000 O   0  0  0  0  0  0  0  0  0  0  0  0
    0.3258    1.4532    0.0000 C   0  0  0  0  0  0  0  0  0  0  0  0
    0.7897    0.0268    0.0000 C   0  0  0  0  0  0  0  0  0  0  0  0
    2.2569   -0.2848    0.0000 C   0  0  0  0  0  0  0  0  0  0  0  0
    2.7208   -1.7112    0.0000 C   0  0  0  0  0  0  0  0  0  0  0  0
    4.1881   -2.0227    0.0000 C   0  0  0  0  0  0  0  0  0  0  0  0
    5.1915   -0.9078    0.0000 C   0  0  0  0  0  0  0  0  0  0  0  0
    6.6915   -0.9074    0.0000 O   0  0  0  0  0  0  0  0  0  0  0  0
    7.1547    0.5193    0.0000 C   0  0  0  0  0  0  0  0  0  0  0  0
    5.9410    1.4007    0.0000 O   0  0  0  0  0  0  0  0  0  0  0  0
    4.7277    0.5187    0.0000 C   0  0  0  0  0  0  0  0  0  0  0  0
    3.2604    0.8302    0.0000 C   0  0  0  0  0  0  0  0  0  0  0  0
   -0.2138   -1.0882    0.0000 O   0  0  0  0  0  0  0  0  0  0  0  0
   -1.6811   -0.7767    0.0000 C   0  0  0  0  0  0  0  0  0  0  0  0
   -2.6845   -1.8916    0.0000 C   0  0  0  0  0  0  0  0  0  0  0  0
  1  2  1  0
  2  3  1  0
  3  4  2  0
  4  5  1  0
  5  6  1  0
  6  7  1  0
  5  8  2  0
  8  9  1  0
  9 10  2  0
  9 11  1  0
 11 12  2  0
 12 13  1  0
 13 14  2  0
 14 15  1  0
 15 16  2  0
 16 17  1  0
 17 18  1  0
 18 19  1  0
 19 20  1  0
 20 21  2  0
 12 22  1  0
 22 23  1  0
 23 24  2  0
 24  3  1  0
 23  8  1  0
 21 13  1  0
 20 16  1  0
M  END
>  <identifier>  (334) 
CNP0307414.0

>  <canonical_smiles>  (334) 
COC1=CC(OC)=C2C(=O)C=C(C3=CC=C4OCOC4=C3)OC2=C1

>  <standard_inchi>  (334) 
InChI=1S/C18H14O6/c1-20-11-6-16(21-2)18-12(19)8-14(24-17(18)7-11)10-3-4-13-15(5-10)23-9-22-13/h3-8H,9H2,1-2H3

>  <standard_inchi_key>  (334) 
MGZNLFNSCDJZGJ-UHFFFAOYSA-N

>  <name>  (334) 
89029-12-9

>  <iupac_name>  (334) 
2-(1,3-benzodioxol-5-yl)-5,7-dimethoxy-chromen-4-one

>  <annotation_level>  (334) 
5

>  <total_atom_count>  (334) 
38

>  <heavy_atom_count>  (334) 
24

>  <molecular_weight>  (334) 
326.3

>  <exact_molecular_weight>  (334) 
326.07904

>  <molecular_formula>  (334) 
C18H14O6

>  <alogp>  (334) 
3.21

>  <topological_polar_surface_area>  (334) 
67.13

>  <rotatable_bond_count>  (334) 
3

>  <hydrogen_bond_acceptors>  (334) 
6

>  <hydrogen_bond_donors>  (334) 
0

>  <hydrogen_bond_acceptors_lipinski>  (334) 
6

>  <hydrogen_bond_donors_lipinski>  (334) 
0

>  <lipinski_rule_of_five_violations>  (334) 
0

>  <aromatic_rings_count>  (334) 
3

>  <qed_drug_likeliness>  (334) 
0.74

>  <formal_charge>  (334) 
0

>  <fractioncsp3>  (334) 
0.17

>  <number_of_minimal_rings>  (334) 
4

>  <van_der_walls_volume>  (334) 
272.14

>  <contains_sugar>  (334) 
False

>  <contains_ring_sugars>  (334) 
False

>  <contains_linear_sugars>  (334) 
False

>  <murcko_framework>  (334) 
O1c2ccccc2CC=C1c3ccc4OCOc4c3

>  <np_likeness>  (334) 
0.72

>  <chemical_class>  (334) 
Flavonoids

>  <chemical_sub_class>  (334) 
O-methylated flavonoids

>  <chemical_super_class>  (334) 
Phenylpropanoids and polyketides

>  <direct_parent_classification>  (334) 
5-O-methylated flavonoids

>  <np_classifier_pathway>  (334) 
Shikimates and Phenylpropanoids

>  <np_classifier_superclass>  (334) 
Flavonoids

>  <np_classifier_class>  (334) 
Flavones

>  <np_classifier_is_glycoside>  (334) 
False

>  <organisms>  (334) 
Aeschynanthus parvifolius|Agelas longissima|Alpinia pulcherrima|Betula papyrifera|Bignonia unguiscati|Boronia alata|Bufo bankorensis|Caesalpinia pulcherrima|Chromodoris cavae|Cinnamomum philippinense|Cladosiphon okamuranus|Coronilla hyrcana|Cyathus intermedius|Cyperus capitatus|Delphinium tricorne|Echinocardium cordatum|Ephedra altissima|Eria siamensis|Erica cinerea|Haemanthus albiflos|Helleborus viridis|Hordeum bulbosum|Iris sibirica|Isolona pilosa|Jatropha gossypiifolia|Keyserlingia koreensis|Lactarius torminosus|Lecanora sulphurata|Litsea nitida|Lobelia langeana|Magnolia henryi|Maytenus emarginata|Micromelum falcatum|Millettia leucantha|Millettia vatkei|Mocis latipes|Mycale tenuis|Mycosphaerella nawae|Neoraputia magnifica|Peltophorum dubium|Penicilliopsis clavariiformis|Phoma asparagi|Prunus pseudocerasus|Pycnothymus rigidus|Rhizophagus intraradices|Salvia miniata|Sibiraea angustata|Streptomyces sakaiensis|Tamarix dioica|Thelepus setosus|Tripterygium wilfordii|Valeriana officinalis|Vernonia aurea|Xanthium canadense

>  <collections>  (334) 
CMAUP (cCollective molecular activities of useful plants)|KNApSaCK|Latin America dataset|NPASS|NPEdia|NuBBEDB|Super Natural II|UNPD (Universal Natural Products Database)|WikiData Natural Products|ZINC NP

>  <dois>  (334) 
10.1016/J.BMCL.2010.03.048|10.1016/S0031-9422(00)00248-X|10.1211/JPP.61.02.0017|10.1248/CPB.51.187

>  <synonyms>  (334) 
2-(2H-1,3-benzodioxol-5-yl)-5,7-dimethoxy-4H-chromen-4-one|2-(benzo[d][1,3]dioxol-5-yl)-5,7-dimethoxy-4H-chromen-4-one|3',4'-methylenedioxy-5,7-dimethoxyflavone|4H-1-Benzopyran-4-one, 2-(1,3-benzodioxol-5-yl)-5,7-dimethoxy-|5,7-Dimethoxy-3',4'-methylenedioxyflavone|CHEBI:196331|DTXSID50470552|LMPK12111073

>  <cas>  (334) 
nan

$$$$

     RDKit          2D

 19 21  0  0  0  0  0  0  0  0999 V2000
   -5.1718    1.2644    0.0000 C   0  0  0  0  0  0  0  0  0  0  0  0
   -3.8190    0.6164    0.0000 C   0  0  0  0  0  0  0  0  0  0  0  0
   -3.7038   -0.8792    0.0000 C   0  0  0  0  0  0  0  0  0  0  0  0
   -2.3510   -1.5272    0.0000 C   0  0  0  0  0  0  0  0  0  0  0  0
   -2.2358   -3.0228    0.0000 O   0  0  0  0  0  0  0  0  0  0  0  0
   -1.1134   -0.6796    0.0000 C   0  0  0  0  0  0  0  0  0  0  0  0
    0.2394   -1.3276    0.0000 C   0  0  0  0  0  0  0  0  0  0  0  0
    0.3546   -2.8232    0.0000 O   0  0  0  0  0  0  0  0  0  0  0  0
    1.4770   -0.4801    0.0000 C   0  0  0  0  0  0  0  0  0  0  0  0
    2.8298   -1.1281    0.0000 C   0  0  0  0  0  0  0  0  0  0  0  0
    4.0674   -0.2805    0.0000 C   0  0  0  0  0  0  0  0  0  0  0  0
    5.4202   -0.9285    0.0000 O   0  0  0  0  0  0  0  0  0  0  0  0
    3.9522    1.2150    0.0000 C   0  0  0  0  0  0  0  0  0  0  0  0
    2.5994    1.8631    0.0000 C   0  0  0  0  0  0  0  0  0  0  0  0
    1.3618    1.0155    0.0000 C   0  0  0  0  0  0  0  0  0  0  0  0
    0.0090    1.6635    0.0000 C   0  0  0  0  0  0  0  0  0  0  0  0
   -0.1062    3.1591    0.0000 O   0  0  0  0  0  0  0  0  0  0  0  0
   -1.2286    0.8159    0.0000 C   0  0  0  0  0  0  0  0  0  0  0  0
   -2.5814    1.4639    0.0000 C   0  0  0  0  0  0  0  0  0  0  0  0
  1  2  1  0
  2  3  2  0
  3  4  1  0
  4  5  1  0
  4  6  2  0
  6  7  1  0
  7  8  2  0
  7  9  1  0
  9 10  2  0
 10 11  1  0
 11 12  1  0
 11 13  2  0
 13 14  1  0
 14 15  2  0
 15 16  1  0
 16 17  2  0
 16 18  1  0
 18 19  2  0
 19  2  1  0
 18  6  1  0
 15  9  1  0
M  END
>  <identifier>  (335) 
CNP0298341.0

>  <canonical_smiles>  (335) 
CC1=CC(O)=C2C(=O)C3=CC(O)=CC=C3C(=O)C2=C1

>  <standard_inchi>  (335) 
InChI=1S/C15H10O4/c1-7-4-11-13(12(17)5-7)15(19)10-6-8(16)2-3-9(10)14(11)18/h2-6,16-17H,1H3

>  <standard_inchi_key>  (335) 
VQUUDWPESXALSD-UHFFFAOYSA-N

>  <name>  (335) 
23282-11-3

>  <iupac_name>  (335) 
1,7-dihydroxy-3-methyl-anthracene-9,10-dione

>  <annotation_level>  (335) 
5

>  <total_atom_count>  (335) 
29

>  <heavy_atom_count>  (335) 
19

>  <molecular_weight>  (335) 
254.24

>  <exact_molecular_weight>  (335) 
254.05791

>  <molecular_formula>  (335) 
C15H10O4

>  <alogp>  (335) 
2.18

>  <topological_polar_surface_area>  (335) 
74.60

>  <rotatable_bond_count>  (335) 
0

>  <hydrogen_bond_acceptors>  (335) 
4

>  <hydrogen_bond_donors>  (335) 
2

>  <hydrogen_bond_acceptors_lipinski>  (335) 
4

>  <hydrogen_bond_donors_lipinski>  (335) 
2

>  <lipinski_rule_of_five_violations>  (335) 
0

>  <aromatic_rings_count>  (335) 
2

>  <qed_drug_likeliness>  (335) 
0.64

>  <formal_charge>  (335) 
0

>  <fractioncsp3>  (335) 
0.07

>  <number_of_minimal_rings>  (335) 
3

>  <van_der_walls_volume>  (335) 
nan

>  <contains_sugar>  (335) 
False

>  <contains_ring_sugars>  (335) 
False

>  <contains_linear_sugars>  (335) 
False

>  <murcko_framework>  (335) 
c1ccc2c(c1)Cc3ccccc3C2

>  <np_likeness>  (335) 
1.23

>  <chemical_class>  (335) 
Anthracenes

>  <chemical_sub_class>  (335) 
Anthraquinones

>  <chemical_super_class>  (335) 
Benzenoids

>  <direct_parent_classification>  (335) 
Hydroxyanthraquinones

>  <np_classifier_pathway>  (335) 
Polyketides

>  <np_classifier_superclass>  (335) 
Polycyclic aromatic polyketides

>  <np_classifier_class>  (335) 
Anthraquinones and anthrones

>  <np_classifier_is_glycoside>  (335) 
False

>  <organisms>  (335) 
Epicoccum sorghinum|Phoma sorghina

>  <collections>  (335) 
Latin America dataset|NuBBEDB|Super Natural II|UNPD (Universal Natural Products Database)|WikiData Natural Products|ZINC NP

>  <dois>  (335) 
10.1590/S0103-50532006000500017

>  <synonyms>  (335) 
1,7-Dihydroxy-3-methylanthracene-9,10-dione|1,7-dihydroxy-3-methyl-9,10-anthraquinone|DTXSID60493994|SCHEMBL19461696

>  <cas>  (335) 
nan

$$$$

     RDKit          2D

 27 29  0  0  0  0  0  0  0  0999 V2000
   -5.7490    0.2110    0.0000 C   0  0  0  0  0  0  0  0  0  0  0  0
   -5.2428   -1.2010    0.0000 O   0  0  0  0  0  0  0  0  0  0  0  0
   -3.7668   -1.4685    0.0000 C   0  0  0  0  0  0  0  0  0  0  0  0
   -2.7971   -0.3241    0.0000 C   0  0  0  0  0  0  0  0  0  0  0  0
   -1.3212   -0.5917    0.0000 C   0  0  0  0  0  0  0  0  0  0  0  0
   -0.3515    0.5527    0.0000 C   0  0  0  0  0  0  0  0  0  0  0  0
    1.1245    0.2851    0.0000 C   0  0  0  0  0  0  0  0  0  0  0  0
    1.6307   -1.1269    0.0000 C   0  0  0  0  0  0  0  0  0  0  0  0
    3.1066   -1.3945    0.0000 C   0  0  0  0  0  0  0  0  0  0  0  0
    3.6129   -2.8065    0.0000 O   0  0  0  0  0  0  0  0  0  0  0  0
    2.6432   -3.9509    0.0000 C   0  0  0  0  0  0  0  0  0  0  0  0
    4.0763   -0.2501    0.0000 C   0  0  0  0  0  0  0  0  0  0  0  0
    5.5523   -0.5176    0.0000 O   0  0  0  0  0  0  0  0  0  0  0  0
    6.0585   -1.9296    0.0000 C   0  0  0  0  0  0  0  0  0  0  0  0
    3.5701    1.1619    0.0000 C   0  0  0  0  0  0  0  0  0  0  0  0
    2.0942    1.4295    0.0000 C   0  0  0  0  0  0  0  0  0  0  0  0
    1.5879    2.8415    0.0000 C   0  0  0  0  0  0  0  0  0  0  0  0
    0.1120    3.1091    0.0000 C   0  0  0  0  0  0  0  0  0  0  0  0
   -0.3943    4.5211    0.0000 C   0  0  0  0  0  0  0  0  0  0  0  0
    0.5754    5.6655    0.0000 O   0  0  0  0  0  0  0  0  0  0  0  0
   -0.8577    1.9647    0.0000 C   0  0  0  0  0  0  0  0  0  0  0  0
   -2.3337    2.2323    0.0000 C   0  0  0  0  0  0  0  0  0  0  0  0
   -2.8399    3.6443    0.0000 O   0  0  0  0  0  0  0  0  0  0  0  0
   -0.8150   -2.0037    0.0000 C   0  0  0  0  0  0  0  0  0  0  0  0
   -1.7847   -3.1481    0.0000 C   0  0  0  0  0  0  0  0  0  0  0  0
   -3.2606   -2.8805    0.0000 C   0  0  0  0  0  0  0  0  0  0  0  0
   -4.2303   -4.0249    0.0000 O   0  0  0  0  0  0  0  0  0  0  0  0
  1  2  1  0
  2  3  1  0
  3  4  2  0
  4  5  1  0
  6  5  1  6
  6  7  1  0
  7  8  2  0
  8  9  1  0
  9 10  1  0
 10 11  1  0
  9 12  2  0
 12 13  1  0
 13 14  1  0
 12 15  1  0
 15 16  2  0
 16 17  1  0
 17 18  1  0
 18 19  1  6
 19 20  1  0
 18 21  1  0
 21 22  1  1
 22 23  1  0
  5 24  2  0
 24 25  1  0
 25 26  2  0
 26 27  1  0
 26  3  1  0
 21  6  1  0
 16  7  1  0
M  END
>  <identifier>  (336) 
CNP0134316.2

>  <canonical_smiles>  (336) 
COC1=CC([C@H]2C3=CC(OC)=C(OC)C=C3C[C@@H](CO)[C@@H]2CO)=CC=C1O

>  <standard_inchi>  (336) 
InChI=1S/C21H26O6/c1-25-18-7-12(4-5-17(18)24)21-15-9-20(27-3)19(26-2)8-13(15)6-14(10-22)16(21)11-23/h4-5,7-9,14,16,21-24H,6,10-11H2,1-3H3/t14-,16-,21-/m0/s1

>  <standard_inchi_key>  (336) 
PDWZFAROGANMAJ-HTZUNMPGSA-N

>  <name>  (336) 
nan

>  <iupac_name>  (336) 
4-[(1~{S},2~{R},3~{R})-2,3-bis(hydroxymethyl)-6,7-dimethoxy-tetralin-1-yl]-2-methoxy-phenol

>  <annotation_level>  (336) 
4

>  <total_atom_count>  (336) 
53

>  <heavy_atom_count>  (336) 
27

>  <molecular_weight>  (336) 
374.43

>  <exact_molecular_weight>  (336) 
374.17294

>  <molecular_formula>  (336) 
C21H26O6

>  <alogp>  (336) 
2.32

>  <topological_polar_surface_area>  (336) 
88.38

>  <rotatable_bond_count>  (336) 
6

>  <hydrogen_bond_acceptors>  (336) 
6

>  <hydrogen_bond_donors>  (336) 
3

>  <hydrogen_bond_acceptors_lipinski>  (336) 
6

>  <hydrogen_bond_donors_lipinski>  (336) 
3

>  <lipinski_rule_of_five_violations>  (336) 
0

>  <aromatic_rings_count>  (336) 
2

>  <qed_drug_likeliness>  (336) 
0.72

>  <formal_charge>  (336) 
0

>  <fractioncsp3>  (336) 
0.43

>  <number_of_minimal_rings>  (336) 
3

>  <van_der_walls_volume>  (336) 
nan

>  <contains_sugar>  (336) 
False

>  <contains_ring_sugars>  (336) 
False

>  <contains_linear_sugars>  (336) 
False

>  <murcko_framework>  (336) 
c1ccc(cc1)C2c3ccccc3CCC2

>  <np_likeness>  (336) 
1.60

>  <chemical_class>  (336) 
Aryltetralin lignans

>  <chemical_sub_class>  (336) 
9,9p-dihydroxyaryltetralin lignans

>  <chemical_super_class>  (336) 
Lignans, neolignans and related compounds

>  <direct_parent_classification>  (336) 
9,9p-dihydroxyaryltetralin lignans

>  <np_classifier_pathway>  (336) 
Shikimates and Phenylpropanoids

>  <np_classifier_superclass>  (336) 
Lignans

>  <np_classifier_class>  (336) 
Arylnaphthalene and aryltetralin lignans

>  <np_classifier_is_glycoside>  (336) 
False

>  <organisms>  (336) 
Araucaria angustifolia

>  <collections>  (336) 
Latin America dataset|NuBBEDB|Super Natural II|WikiData Natural Products|ZINC NP

>  <dois>  (336) 
10.1016/S0031-9422(00)89347-4

>  <synonyms>  (336) 
isolariciresinol-4'-methylether

>  <cas>  (336) 
nan

$$$$

     RDKit          2D

 36 40  0  0  0  0  0  0  0  0999 V2000
   -9.1979    1.0122    0.0000 C   0  0  0  0  0  0  0  0  0  0  0  0
   -7.7023    1.1273    0.0000 C   0  0  0  0  0  0  0  0  0  0  0  0
   -7.0543    2.4801    0.0000 O   0  0  0  0  0  0  0  0  0  0  0  0
   -6.8548   -0.1104    0.0000 O   0  0  0  0  0  0  0  0  0  0  0  0
   -5.3593    0.0048    0.0000 C   0  0  0  0  0  0  0  0  0  0  0  0
   -4.7112    1.3576    0.0000 C   0  0  0  0  0  0  0  0  0  0  0  0
   -3.2156    1.4727    0.0000 C   0  0  0  0  0  0  0  0  0  0  0  0
   -2.3681    0.2351    0.0000 C   0  0  0  0  0  0  0  0  0  0  0  0
   -1.7200    1.5878    0.0000 C   0  0  0  0  0  0  0  0  0  0  0  0
   -0.8725    0.3502    0.0000 C   0  0  0  0  0  0  0  0  0  0  0  0
   -0.2245    1.7030    0.0000 C   0  0  0  0  0  0  0  0  0  0  0  0
    1.2711    1.8181    0.0000 C   0  0  0  0  0  0  0  0  0  0  0  0
    2.1186    0.5805    0.0000 C   0  0  0  0  0  0  0  0  0  0  0  0
    3.6142    0.6956    0.0000 C   0  0  0  0  0  0  0  0  0  0  0  0
    4.2623    2.0484    0.0000 C   0  0  0  0  0  0  0  0  0  0  0  0
    3.4148    3.2860    0.0000 C   0  0  0  0  0  0  0  0  0  0  0  0
    5.7578    2.1635    0.0000 C   0  0  0  0  0  0  0  0  0  0  0  0
    6.4059    3.5163    0.0000 C   0  0  0  0  0  0  0  0  0  0  0  0
    6.6053    0.9259    0.0000 C   0  0  0  0  0  0  0  0  0  0  0  0
    5.9573   -0.4269    0.0000 C   0  0  0  0  0  0  0  0  0  0  0  0
    4.4617   -0.5420    0.0000 C   0  0  0  0  0  0  0  0  0  0  0  0
    5.3092   -1.7797    0.0000 C   0  0  0  0  0  0  0  0  0  0  0  0
    6.8048   -1.6645    0.0000 O   0  0  0  0  0  0  0  0  0  0  0  0
    4.6611   -3.1325    0.0000 O   0  0  0  0  0  0  0  0  0  0  0  0
    3.8136   -1.8948    0.0000 C   0  0  0  0  0  0  0  0  0  0  0  0
    2.3180   -2.0100    0.0000 C   0  0  0  0  0  0  0  0  0  0  0  0
    1.4705   -0.7723    0.0000 C   0  0  0  0  0  0  0  0  0  0  0  0
    0.6230    0.4653    0.0000 C   0  0  0  0  0  0  0  0  0  0  0  0
   -0.0250   -0.8874    0.0000 C   0  0  0  0  0  0  0  0  0  0  0  0
    0.8225   -2.1251    0.0000 C   0  0  0  0  0  0  0  0  0  0  0  0
   -0.6731   -2.2402    0.0000 C   0  0  0  0  0  0  0  0  0  0  0  0
   -2.1687   -2.3554    0.0000 C   0  0  0  0  0  0  0  0  0  0  0  0
   -3.0162   -1.1177    0.0000 C   0  0  0  0  0  0  0  0  0  0  0  0
   -4.5118   -1.2329    0.0000 C   0  0  0  0  0  0  0  0  0  0  0  0
   -4.1387   -2.6857    0.0000 C   0  0  0  0  0  0  0  0  0  0  0  0
   -5.8778   -1.8526    0.0000 C   0  0  0  0  0  0  0  0  0  0  0  0
  1  2  1  0
  2  3  2  0
  2  4  1  0
  4  5  1  0
  5  6  1  0
  6  7  1  0
  7  8  1  0
  8  9  1  1
  8 10  1  0
 10 11  1  1
 11 12  1  0
 12 13  2  0
 14 13  1  6
 14 15  1  0
 15 16  1  1
 15 17  1  0
 17 18  1  6
 17 19  1  0
 19 20  1  0
 20 21  1  0
 21 22  1  1
 22 23  2  0
 22 24  1  0
 21 25  1  0
 25 26  1  0
 26 27  1  0
 27 28  1  6
 27 29  1  0
 29 30  1  1
 29 31  1  0
 31 32  1  0
 33 32  1  1
 33 34  1  0
 34 35  1  0
 34 36  1  0
 34  5  1  0
 33  8  1  0
 29 10  1  0
 27 13  1  0
 21 14  1  0
M  END
>  <identifier>  (337) 
CNP0156134.5

>  <canonical_smiles>  (337) 
CC(=O)OC1CC[C@]2(C)[C@H]3CC=C4[C@@H]5[C@@H](C)[C@H](C)CC[C@]5(C(=O)O)CC[C@@]4(C)[C@]3(C)CC[C@H]2C1(C)C

>  <standard_inchi>  (337) 
InChI=1S/C32H50O4/c1-19-11-16-32(27(34)35)18-17-30(7)22(26(32)20(19)2)9-10-24-29(6)14-13-25(36-21(3)33)28(4,5)23(29)12-15-31(24,30)8/h9,19-20,23-26H,10-18H2,1-8H3,(H,34,35)/t19-,20+,23+,24-,25?,26+,29+,30-,31-,32+/m1/s1

>  <standard_inchi_key>  (337) 
PHFUCJXOLZAQNH-LEQYMUEVSA-N

>  <name>  (337) 
nan

>  <iupac_name>  (337) 
(1~{S},2~{R},4~{a}~{S},6~{a}~{R},6~{a}~{S},6~{b}~{R},8~{a}~{R},12~{a}~{R},14~{b}~{S})-10-acetoxy-1,2,6~{a},6~{b},9,9,12~{a}-heptamethyl-2,3,4,5,6,6~{a},7,8,8~{a},10,11,12,13,14~{b}-tetradecahydro-1~{H}-picene-4~{a}-carboxylic acid

>  <annotation_level>  (337) 
4

>  <total_atom_count>  (337) 
86

>  <heavy_atom_count>  (337) 
36

>  <molecular_weight>  (337) 
498.75

>  <exact_molecular_weight>  (337) 
498.37091

>  <molecular_formula>  (337) 
C32H50O4

>  <alogp>  (337) 
7.66

>  <topological_polar_surface_area>  (337) 
63.60

>  <rotatable_bond_count>  (337) 
2

>  <hydrogen_bond_acceptors>  (337) 
3

>  <hydrogen_bond_donors>  (337) 
1

>  <hydrogen_bond_acceptors_lipinski>  (337) 
3

>  <hydrogen_bond_donors_lipinski>  (337) 
1

>  <lipinski_rule_of_five_violations>  (337) 
1

>  <aromatic_rings_count>  (337) 
0

>  <qed_drug_likeliness>  (337) 
0.31

>  <formal_charge>  (337) 
0

>  <fractioncsp3>  (337) 
0.88

>  <number_of_minimal_rings>  (337) 
5

>  <van_der_walls_volume>  (337) 
nan

>  <contains_sugar>  (337) 
False

>  <contains_ring_sugars>  (337) 
False

>  <contains_linear_sugars>  (337) 
False

>  <murcko_framework>  (337) 
C1=C2C3CCCCC3CCC2C4CCC5CCCCC5C4C1

>  <np_likeness>  (337) 
3.14

>  <chemical_class>  (337) 
Prenol lipids

>  <chemical_sub_class>  (337) 
Triterpenoids

>  <chemical_super_class>  (337) 
Lipids and lipid-like molecules

>  <direct_parent_classification>  (337) 
Taraxastane, ursane, and bauerane triterpenoids

>  <np_classifier_pathway>  (337) 
Terpenoids

>  <np_classifier_superclass>  (337) 
Triterpenoids

>  <np_classifier_class>  (337) 
Ursane and Taraxastane triterpenoids

>  <np_classifier_is_glycoside>  (337) 
False

>  <organisms>  (337) 
Myrcia guianensis|Myrcia lingua

>  <collections>  (337) 
Latin America dataset|NuBBEDB|WikiData Natural Products

>  <dois>  (337) 
10.1002/CBDV.201400065|10.1002/cbdv.201400065

>  <synonyms>  (337) 
3-O-acetylursolic acid

>  <cas>  (337) 
nan

$$$$

     RDKit          2D

 26 28  0  0  0  0  0  0  0  0999 V2000
   -7.2886   -0.6635    0.0000 C   0  0  0  0  0  0  0  0  0  0  0  0
   -5.9046   -0.0851    0.0000 C   0  0  0  0  0  0  0  0  0  0  0  0
   -5.7135    1.4027    0.0000 O   0  0  0  0  0  0  0  0  0  0  0  0
   -4.7117   -0.9944    0.0000 O   0  0  0  0  0  0  0  0  0  0  0  0
   -3.3277   -0.4160    0.0000 C   0  0  0  0  0  0  0  0  0  0  0  0
   -3.1366    1.0718    0.0000 C   0  0  0  0  0  0  0  0  0  0  0  0
   -1.7526    1.6502    0.0000 C   0  0  0  0  0  0  0  0  0  0  0  0
   -0.5597    0.7408    0.0000 C   0  0  0  0  0  0  0  0  0  0  0  0
    0.8243    1.3192    0.0000 C   0  0  0  0  0  0  0  0  0  0  0  0
    2.0172    0.4098    0.0000 C   0  0  0  0  0  0  0  0  0  0  0  0
    1.8261   -1.0779    0.0000 C   0  0  0  0  0  0  0  0  0  0  0  0
    3.0190   -1.9873    0.0000 C   0  0  0  0  0  0  0  0  0  0  0  0
    2.8279   -3.4751    0.0000 O   0  0  0  0  0  0  0  0  0  0  0  0
    1.4440   -4.0535    0.0000 C   0  0  0  0  0  0  0  0  0  0  0  0
    1.2529   -5.5413    0.0000 C   0  0  0  0  0  0  0  0  0  0  0  0
    0.2510   -3.1441    0.0000 O   0  0  0  0  0  0  0  0  0  0  0  0
    4.4030   -1.4089    0.0000 C   0  0  0  0  0  0  0  0  0  0  0  0
    4.5941    0.0789    0.0000 C   0  0  0  0  0  0  0  0  0  0  0  0
    3.4012    0.9882    0.0000 C   0  0  0  0  0  0  0  0  0  0  0  0
    3.5923    2.4760    0.0000 C   0  0  0  0  0  0  0  0  0  0  0  0
    2.3994    3.3854    0.0000 C   0  0  0  0  0  0  0  0  0  0  0  0
    2.5904    4.8732    0.0000 C   0  0  0  0  0  0  0  0  0  0  0  0
    1.0154    2.8070    0.0000 C   0  0  0  0  0  0  0  0  0  0  0  0
   -0.1775    3.7164    0.0000 C   0  0  0  0  0  0  0  0  0  0  0  0
   -0.7508   -0.7470    0.0000 C   0  0  0  0  0  0  0  0  0  0  0  0
   -2.1348   -1.3254    0.0000 C   0  0  0  0  0  0  0  0  0  0  0  0
  1  2  1  0
  2  3  2  0
  2  4  1  0
  4  5  1  0
  5  6  2  0
  6  7  1  0
  7  8  2  0
  9  8  1  6
  9 10  1  0
 10 11  2  0
 11 12  1  0
 12 13  1  0
 13 14  1  0
 14 15  1  0
 14 16  2  0
 12 17  2  0
 17 18  1  0
 18 19  2  0
 19 20  1  0
 20 21  1  0
 21 22  1  6
 21 23  1  0
 23 24  1  1
  8 25  1  0
 25 26  2  0
 26  5  1  0
 23  9  1  0
 19 10  1  0
M  END
>  <identifier>  (338) 
CNP0080537.1

>  <canonical_smiles>  (338) 
CC(=O)OC1=CC=C([C@H]2C3=CC(OC(C)=O)=CC=C3C[C@@H](C)[C@@H]2C)C=C1

>  <standard_inchi>  (338) 
InChI=1S/C22H24O4/c1-13-11-18-7-10-20(26-16(4)24)12-21(18)22(14(13)2)17-5-8-19(9-6-17)25-15(3)23/h5-10,12-14,22H,11H2,1-4H3/t13-,14+,22+/m1/s1

>  <standard_inchi_key>  (338) 
DQNBPZNXXFZFRR-QLEMLULZSA-N

>  <name>  (338) 
nan

>  <iupac_name>  (338) 
[4-[(1~{S},2~{S},3~{R})-7-acetoxy-2,3-dimethyl-tetralin-1-yl]phenyl] acetate

>  <annotation_level>  (338) 
4

>  <total_atom_count>  (338) 
50

>  <heavy_atom_count>  (338) 
26

>  <molecular_weight>  (338) 
352.43

>  <exact_molecular_weight>  (338) 
352.16746

>  <molecular_formula>  (338) 
C22H24O4

>  <alogp>  (338) 
4.50

>  <topological_polar_surface_area>  (338) 
52.60

>  <rotatable_bond_count>  (338) 
3

>  <hydrogen_bond_acceptors>  (338) 
4

>  <hydrogen_bond_donors>  (338) 
0

>  <hydrogen_bond_acceptors_lipinski>  (338) 
4

>  <hydrogen_bond_donors_lipinski>  (338) 
0

>  <lipinski_rule_of_five_violations>  (338) 
0

>  <aromatic_rings_count>  (338) 
2

>  <qed_drug_likeliness>  (338) 
0.60

>  <formal_charge>  (338) 
0

>  <fractioncsp3>  (338) 
0.36

>  <number_of_minimal_rings>  (338) 
3

>  <van_der_walls_volume>  (338) 
nan

>  <contains_sugar>  (338) 
False

>  <contains_ring_sugars>  (338) 
False

>  <contains_linear_sugars>  (338) 
False

>  <murcko_framework>  (338) 
c1ccc(cc1)C2c3ccccc3CCC2

>  <np_likeness>  (338) 
0.93

>  <chemical_class>  (338) 
Aryltetralin lignans

>  <chemical_sub_class>  (338) 
Aryltetralin lignans

>  <chemical_super_class>  (338) 
Lignans, neolignans and related compounds

>  <direct_parent_classification>  (338) 
Aryltetralin lignans

>  <np_classifier_pathway>  (338) 
Shikimates and Phenylpropanoids

>  <np_classifier_superclass>  (338) 
nan

>  <np_classifier_class>  (338) 
nan

>  <np_classifier_is_glycoside>  (338) 
False

>  <organisms>  (338) 
Iryanthera grandis

>  <collections>  (338) 
Latin America dataset|NuBBEDB|WikiData Natural Products|ZINC NP

>  <dois>  (338) 
10.1016/S0031-9422(00)80162-4

>  <synonyms>  (338) 
2-Naphthalenol 8-[4-(acetyloxy)phenyl]-5678-tetrahydro-67-dimethyl- 2-acetate (6R7S8S)-rel-

>  <cas>  (338) 
nan

$$$$

     RDKit          2D

 19 21  0  0  0  0  0  0  0  0999 V2000
   -0.2360   -3.3984    0.0000 C   0  0  0  0  0  0  0  0  0  0  0  0
    1.0524   -2.6303    0.0000 O   0  0  0  0  0  0  0  0  0  0  0  0
    1.0315   -1.1304    0.0000 C   0  0  0  0  0  0  0  0  0  0  0  0
    2.3199   -0.3624    0.0000 C   0  0  0  0  0  0  0  0  0  0  0  0
    3.6293   -1.0942    0.0000 C   0  0  0  0  0  0  0  0  0  0  0  0
    4.9177   -0.3261    0.0000 C   0  0  0  0  0  0  0  0  0  0  0  0
    4.8968    1.1738    0.0000 C   0  0  0  0  0  0  0  0  0  0  0  0
    3.5874    1.9056    0.0000 C   0  0  0  0  0  0  0  0  0  0  0  0
    2.2990    1.1375    0.0000 C   0  0  0  0  0  0  0  0  0  0  0  0
    0.9896    1.8693    0.0000 N   0  0  0  0  0  0  0  0  0  0  0  0
   -0.2988    1.1012    0.0000 C   0  0  0  0  0  0  0  0  0  0  0  0
   -0.2779   -0.3987    0.0000 C   0  0  0  0  0  0  0  0  0  0  0  0
   -1.6979   -0.8821    0.0000 C   0  0  0  0  0  0  0  0  0  0  0  0
   -2.5964    0.3190    0.0000 C   0  0  0  0  0  0  0  0  0  0  0  0
   -4.0963    0.2981    0.0000 C   0  0  0  0  0  0  0  0  0  0  0  0
   -4.0753   -1.2018    0.0000 C   0  0  0  0  0  0  0  0  0  0  0  0
   -4.1172    1.7979    0.0000 C   0  0  0  0  0  0  0  0  0  0  0  0
   -5.5961    0.2771    0.0000 O   0  0  0  0  0  0  0  0  0  0  0  0
   -1.7318    1.5448    0.0000 O   0  0  0  0  0  0  0  0  0  0  0  0
  1  2  1  0
  2  3  1  0
  3  4  2  0
  4  5  1  0
  5  6  2  0
  6  7  1  0
  7  8  2  0
  8  9  1  0
  9 10  2  0
 10 11  1  0
 11 12  2  0
 12 13  1  0
 13 14  2  0
 14 15  1  0
 15 16  1  0
 15 17  1  0
 15 18  1  0
 14 19  1  0
 12  3  1  0
  9  4  1  0
 19 11  1  0
M  END
>  <identifier>  (339) 
CNP0373892.0

>  <canonical_smiles>  (339) 
COC1=C2C=CC=CC2=NC2=C1C=C(C(C)(C)O)O2

>  <standard_inchi>  (339) 
InChI=1S/C15H15NO3/c1-15(2,17)12-8-10-13(18-3)9-6-4-5-7-11(9)16-14(10)19-12/h4-8,17H,1-3H3

>  <standard_inchi_key>  (339) 
KPQVKOCVRRAGSW-UHFFFAOYSA-N

>  <name>  (339) 
nan

>  <iupac_name>  (339) 
2-(4-methoxyfuro[2,3-b]quinolin-2-yl)propan-2-ol

>  <annotation_level>  (339) 
4

>  <total_atom_count>  (339) 
34

>  <heavy_atom_count>  (339) 
19

>  <molecular_weight>  (339) 
257.29

>  <exact_molecular_weight>  (339) 
257.10519

>  <molecular_formula>  (339) 
C15H15NO3

>  <alogp>  (339) 
3.22

>  <topological_polar_surface_area>  (339) 
55.49

>  <rotatable_bond_count>  (339) 
2

>  <hydrogen_bond_acceptors>  (339) 
4

>  <hydrogen_bond_donors>  (339) 
1

>  <hydrogen_bond_acceptors_lipinski>  (339) 
4

>  <hydrogen_bond_donors_lipinski>  (339) 
1

>  <lipinski_rule_of_five_violations>  (339) 
0

>  <aromatic_rings_count>  (339) 
3

>  <qed_drug_likeliness>  (339) 
0.77

>  <formal_charge>  (339) 
0

>  <fractioncsp3>  (339) 
0.27

>  <number_of_minimal_rings>  (339) 
3

>  <van_der_walls_volume>  (339) 
230.98

>  <contains_sugar>  (339) 
False

>  <contains_ring_sugars>  (339) 
False

>  <contains_linear_sugars>  (339) 
False

>  <murcko_framework>  (339) 
n1c2occc2cc3ccccc13

>  <np_likeness>  (339) 
0.59

>  <chemical_class>  (339) 
Quinolines and derivatives

>  <chemical_sub_class>  (339) 
Furanoquinolines

>  <chemical_super_class>  (339) 
Organoheterocyclic compounds

>  <direct_parent_classification>  (339) 
Furanoquinolines

>  <np_classifier_pathway>  (339) 
Alkaloids

>  <np_classifier_superclass>  (339) 
Tryptophan alkaloids

>  <np_classifier_class>  (339) 
Quinoline alkaloids

>  <np_classifier_is_glycoside>  (339) 
False

>  <organisms>  (339) 
Arachniodes mutica|Flavoparmelia caperata|Flueggea microcarpa|Gentiana strictiflora|Glinus oppositifolius|Helminthosporium victoriae|Jasione montana|Jurinea maxima|Machilus odoratissima|Machilus zuihoensis|Mycetia nutans|Naja naja|Notonia grandiflora|Ophiopholis aculeata|Pilocarpus grandiflorus|Psiadia anchusifolia|Sideritis perfoliata|Streptomyces globisporus|Streptomyces griseocarneus|Streptomyces sulfonofaciens|Streptomyces tateyamensis|Takifugu rubripes|Zanthoxylum chiloperone

>  <collections>  (339) 
CMAUP (cCollective molecular activities of useful plants)|Latin America dataset|NPASS|NuBBEDB|WikiData Natural Products|ZINC NP

>  <dois>  (339) 
10.1515/ZNB-2005-0715|10.1515/znb-2005-0715

>  <synonyms>  (339) 
Platydesmine

>  <cas>  (339) 
nan

$$$$

     RDKit          2D

 30 29  0  0  0  0  0  0  0  0999 V2000
  -14.9155   -0.9168    0.0000 C   0  0  0  0  0  0  0  0  0  0  0  0
  -13.6445   -0.1202    0.0000 C   0  0  0  0  0  0  0  0  0  0  0  0
  -13.6990    1.3788    0.0000 C   0  0  0  0  0  0  0  0  0  0  0  0
  -12.3191   -0.8226    0.0000 C   0  0  0  0  0  0  0  0  0  0  0  0
  -11.0482   -0.0259    0.0000 C   0  0  0  0  0  0  0  0  0  0  0  0
   -9.7228   -0.7283    0.0000 C   0  0  0  0  0  0  0  0  0  0  0  0
   -8.4518    0.0684    0.0000 C   0  0  0  0  0  0  0  0  0  0  0  0
   -8.5062    1.5674    0.0000 C   0  0  0  0  0  0  0  0  0  0  0  0
   -7.1264   -0.6340    0.0000 C   0  0  0  0  0  0  0  0  0  0  0  0
   -5.8554    0.1626    0.0000 C   0  0  0  0  0  0  0  0  0  0  0  0
   -4.5300   -0.5397    0.0000 C   0  0  0  0  0  0  0  0  0  0  0  0
   -3.2591    0.2569    0.0000 C   0  0  0  0  0  0  0  0  0  0  0  0
   -3.3135    1.7559    0.0000 C   0  0  0  0  0  0  0  0  0  0  0  0
   -1.9337   -0.4455    0.0000 C   0  0  0  0  0  0  0  0  0  0  0  0
   -0.6627    0.3512    0.0000 C   0  0  0  0  0  0  0  0  0  0  0  0
    0.6627   -0.3512    0.0000 C   0  0  0  0  0  0  0  0  0  0  0  0
    1.9337    0.4455    0.0000 C   0  0  0  0  0  0  0  0  0  0  0  0
    3.2591   -0.2569    0.0000 C   0  0  0  0  0  0  0  0  0  0  0  0
    3.3135   -1.7559    0.0000 C   0  0  0  0  0  0  0  0  0  0  0  0
    4.5300    0.5397    0.0000 C   0  0  0  0  0  0  0  0  0  0  0  0
    5.8554   -0.1626    0.0000 C   0  0  0  0  0  0  0  0  0  0  0  0
    7.1264    0.6340    0.0000 C   0  0  0  0  0  0  0  0  0  0  0  0
    8.4518   -0.0684    0.0000 C   0  0  0  0  0  0  0  0  0  0  0  0
    8.5062   -1.5674    0.0000 C   0  0  0  0  0  0  0  0  0  0  0  0
    9.7228    0.7283    0.0000 C   0  0  0  0  0  0  0  0  0  0  0  0
   11.0482    0.0259    0.0000 C   0  0  0  0  0  0  0  0  0  0  0  0
   12.3191    0.8226    0.0000 C   0  0  0  0  0  0  0  0  0  0  0  0
   13.6445    0.1202    0.0000 C   0  0  0  0  0  0  0  0  0  0  0  0
   14.9155    0.9168    0.0000 C   0  0  0  0  0  0  0  0  0  0  0  0
   13.6990   -1.3788    0.0000 C   0  0  0  0  0  0  0  0  0  0  0  0
  1  2  1  0
  2  3  1  0
  2  4  2  0
  4  5  1  0
  5  6  1  0
  6  7  1  0
  7  8  1  0
  7  9  2  0
  9 10  1  0
 10 11  1  0
 11 12  1  0
 12 13  1  0
 12 14  2  0
 14 15  1  0
 15 16  1  0
 16 17  1  0
 17 18  2  0
 18 19  1  0
 18 20  1  0
 20 21  1  0
 21 22  1  0
 22 23  2  0
 23 24  1  0
 23 25  1  0
 25 26  1  0
 26 27  1  0
 27 28  2  0
 28 29  1  0
 28 30  1  0
M  END
>  <identifier>  (340) 
CNP0183709.1

>  <canonical_smiles>  (340) 
CC(C)=CCC/C(C)=C/CC/C(C)=C/CC/C=C(\C)CC/C=C(\C)CCC=C(C)C

>  <standard_inchi>  (340) 
InChI=1S/C30H50/c1-25(2)15-11-19-29(7)23-13-21-27(5)17-9-10-18-28(6)22-14-24-30(8)20-12-16-26(3)4/h15-18,23-24H,9-14,19-22H2,1-8H3/b27-17+,28-18+,29-23+,30-24+

>  <standard_inchi_key>  (340) 
YYGNTYWPHWGJRM-AAJYLUCBSA-N

>  <name>  (340) 
squalene

>  <iupac_name>  (340) 
(6E,10E,14E,18E)-2,6,10,15,19,23-hexamethyltetracosa-2,6,10,14,18,22-hexaene

>  <annotation_level>  (340) 
0

>  <total_atom_count>  (340) 
80

>  <heavy_atom_count>  (340) 
30

>  <molecular_weight>  (340) 
410.73

>  <exact_molecular_weight>  (340) 
410.39125

>  <molecular_formula>  (340) 
C30H50

>  <alogp>  (340) 
10.60

>  <topological_polar_surface_area>  (340) 
0.00

>  <rotatable_bond_count>  (340) 
15

>  <hydrogen_bond_acceptors>  (340) 
0

>  <hydrogen_bond_donors>  (340) 
0

>  <hydrogen_bond_acceptors_lipinski>  (340) 
0

>  <hydrogen_bond_donors_lipinski>  (340) 
0

>  <lipinski_rule_of_five_violations>  (340) 
1

>  <aromatic_rings_count>  (340) 
0

>  <qed_drug_likeliness>  (340) 
0.19

>  <formal_charge>  (340) 
0

>  <fractioncsp3>  (340) 
0.60

>  <number_of_minimal_rings>  (340) 
0

>  <van_der_walls_volume>  (340) 
473.49

>  <contains_sugar>  (340) 
False

>  <contains_ring_sugars>  (340) 
False

>  <contains_linear_sugars>  (340) 
False

>  <murcko_framework>  (340) 
nan

>  <np_likeness>  (340) 
0.96

>  <chemical_class>  (340) 
nan

>  <chemical_sub_class>  (340) 
nan

>  <chemical_super_class>  (340) 
nan

>  <direct_parent_classification>  (340) 
nan

>  <np_classifier_pathway>  (340) 
Terpenoids

>  <np_classifier_superclass>  (340) 
Triterpenoids

>  <np_classifier_class>  (340) 
Acyclic triterpenoids

>  <np_classifier_is_glycoside>  (340) 
False

>  <organisms>  (340) 
A new engineered strain of Corynebacterium glutamicum [PcPS]|A new engineered strain of Escherichia coli XL1-Blue [hSQS tHMGR EGR13 EGR12 EGR8 MVD1 atoB ispA]|A new engineered strain of Escherichia coli XL1-Blue [tSQS tHMGR tHMGR ERG13 ERG12 ERG8 MVD1 atoB idi ispA]|A new engineered strain of Escherichia coli [PhANS At3GT]|A new engineered strain of Escherichia coli [aroGfbr tyrAfbr tyrR]|A new engineered strain of Escherichia coli [n.a.]|A new engineered strain of Nicotiana benthamiana [n.a.]|A new engineered strain of Saccharomyces cerevisiae H1246 [coPAI]|A new engineered strain of Saccharomyces cerevisiae SR7 [tHMGR1 ERG10]|A new engineered strain of Saccharomyces cerevisiae [UGTPg45]|A new engineered strain of Saccharomyces cerevisiae [n.a.]|A new engineered strain of Synechococcus elongatus PCC 7942 [CpcB1-SQS]|A new engineered strain of Yarrowia Lipolytica ATCC 201249 [CYPs CPRs ERG1 ERG9 and HMG1]|A new engineered strain of Yarrowia Lipolytica JMY2556 [POX1-6 √É√Ç12-desaturase,RcFAH12 CpFAH12 LRO1]|A new engineered strain of Yarrowia lipolytica [CLA4 MHY1]|A new engineered strain of Yarrowia lipolytica [acs ylACL1 ylHGM1]|A new engineered strain of Yarrowia lipolytica [codon-optimized linalool synthase gene]|A new engineered strain of Yarrowia lipolytica [n.a.]|A new engineered strain of Zymomonas mobilis [XDH gene xylose reductase gene]|Abrus Precatorius|Abrus precatorius|Acer spicatum|Achillea nana|Achyrocline alata|Acicarpha tribuloides|Aconitum coreanum|Aconitum napellus|Aconitum palmatum|Aconitum tianschanicum|Acritopappus prunifolius|Actinomadura pelletieri|Adenopeltis colliguaya|Aegiceras corniculatum|Afrocarpus gracilior|Agaricus integer|Agaricus silvaticus|Agathis dammara|Agave decipiens|Agave xylonacantha|Ageratina anisochroma|Aglaia foveolata|Ajania achilleoides|Ajuga bracteosa|Albatrellus caeruleoporus|Alchornea cordifolia|Aleurites cordata|Aleuritopteris agetae|Aleuritopteris mexicana|Alexandrium excavatum|Allium monspessulanum|Alnus cordata|Aloe deltoideodonta|Alstonia mairei|Alstonia undulifolia|Amanita pseudoporphyria|Amaranthus caudatus|Amaranthus cruentus|Amaranthus hybridus|Amaranthus hypochondriacus|Amaranthus tricolor|Ambrosia trifida|American ginseng|Amomum daniellii|Amomum sulcatum|Andira retusa|Andrographis paniculata|Angelica acutiloba|Angelica gigas|Angelica sinensis|Angiopteris evecta|Aniba rosaeodora|Anthemis cretica|Anthemis triumfetti|Antidesma montanum var. montanum|Antidesma pentandrum var. barbatum|Antiphiona pinnatisecta|Apium graveolens|Aplidium solidum|Aplysilla rosea|Aplysinella rhax|Apostichopus japonicus|Arabidopsis thaliana|Aralia hispida|Arbacia pustulosa|Arbutus menziesii|Ariocarpus fissuratus|Artemisia Vulgaris|Artemisia annua|Artemisia schmidtiana|Artemisia taurica|Artemisia vulgaris|Artocarpus heterophyllus|Asclepias speciosa|Asclepias syriaca|Aspergillus arenarius|Aspergillus fumisynnematus|Aspergillus giganteus|Aspergillus quadrilineatus|Aster koraiensis|Aster scaber|Asterias forbesi|Asteriscus aquaticus|Astragalus bisulcatus|Atalantia wightii|Athrixia elata|Austrobaileya scandens|Austroeupatorium chaparense|Avena sativa|Azadirachta indica|Azolla nilotica|Baccharis heterophylla|Baccharis spp.|Baccharis thesioides|Baccharoides lasiopus|Bacillus|Bactrocera kraussi|Baeckea frutescens|Balanophora japonica|Balanophora polyandra|Ballota limbata|Barringtonia asiatica|Bauhinia purpurea|Beilschmiedia tsangii|Betula platyphylla|Biancaea decapetala|Bidens pilosa|Bidens rubifolia|Bidens tripartita|Bituminaria bituminosa|Blepharispermum zanguebaricum|Boenninghausenia albiflora|Boerhavia repens|Bombus hortorum|Bonnetia dinizii|Bosistoa floydii|Bothriocline ripensis|Botryococcus braunii|Brachyglottis bidwillii|Broussonetia papyrifera|Bruguiera gymnorhiza|Buchenavia tetraphylla|Buellia canescens|Bupleurum acutifolium|Bussea sakalava|Byrsonima microphylla|Cacalia robusta|Caesalpinia Decapetala|Caesalpinia decapetala|Caiman crocodilus|Calcarisporium thermophilum|Calea harleyi|Calea jamaicensis|Calea lantanoides|Calea pilosa|Calea prunifolia|Calea rotundifolia|Calea sickii|Callicarpa pilosissima|Calophyllum gracilipes|Calophyllum inophyllum|Capparis ovata|Cardiagyris scabra|Carpesium faberi|Casearia membranacea|Cassia artemisioides|Cassia renigera|Cassine papillosa|Cassinia subtropica|Cassinia uncata|Cassipourea guianensis|Centaurea arbutifolia|Centaurea calcitrapa|Centaurea dealbata|Centaurea musimomum|Centaurea seridis|Centella asiatica|Cephalaria procera|Ceramium botryocarpum|Ceratocystis clavigera|Cereus chrysacanthus|Cereus weberi|Ceriops tagal|Cetraria pinastri|Chamaecyparis obtusa|Chamaecyparis pisifera|Charpentiera obovata|Cheimonophyllum candidissimum|Cheiropleuria bicuspis|Chenopodiastrum murale|Chenopodium quinoa|Chlamydomonas allensworthii|Chromodoris obsoleta|Chromolaena laevigata|Chromolaena odorata|Chroogomphus helveticus|Chrozophora obliqua|Chrysosplenium alternifolium|Cibotium barometz|Cicerbita alpina|Cineraria parvifolia|Cinnamomum Subavenium|Cinnamomum kotoense|Cinnamomum philippinense|Cinnamomum subavenium|Cinnamomum subavenium MIQ.|Cinnamosma madagascariensis|Citrus medica|Citrus paradisi|Cladonia amaurocraea|Cladonia pityrea|Clathria prolifera|Claviceps microcephala|Cleistanthus indochinensis|Clibadium armanii|Cneorum pulverulentum|Cnestis ferruginea|Coccinella septempunctata|Codonopsis cordifolioidea|Coeloseira pacifica|Coespeletia moritziana|Coleus garckeanus|Consolida ajacis|Conus pulicarius|Coprosma foetidissima|Coronilla cretica|Corydalis claviculata|Corydalis persica|Corydalis sewerzowi|Corymbia citriodora|Corynanthe pachyceras|Corynebacterium crenatum Cc1 [argGH argCJBDFR argR]|Corynebacterium crenatum Cc4 [pyc gltA]|Corynebacterium crenatum H-7 GH [argGH]|Corynebacterium crenatum SYPA-argBEH3 [n.a.]|Corynebacterium glutamicum|Corynebacterium glutamicum ARG (glnA√É¬¢√Ç√ÇaspA√É¬¢√Ç√Çgdh) [glnA aspA gdh]|Corynebacterium glutamicum CIT2 [argR argG]|Corynebacterium glutamicum CO9 [argF]|Corynebacterium glutamicum GABA6C [yggB cgmA]|Corynebacterium glutamicum JML05 [n.a.]|Corynebacterium glutamicum JML06 [n.a.]|Corynebacterium glutamicum ZQJY-7 [n.a.]|Cota austriaca|Cota tinctoria|Cota triumfetti|Cota triumfettii|Crematogaster africana|Crinum latifolium|Critonia quadrangularis|Crotalaria madurensis|Croton cortesianus|Croton montevidensis|Cryptocarya chinensis|Cryptolestes pusillus|Cucurbita|Curcuma kwangsiensis|Curcuma phaeocaulis|Curcuma wenyujin|Curcuma zedoaria|Cuvier's dwarf caiman|Cyathea podophylla|Cynanchum formosanum|Cynoglossum amabile|Cytisus ciliatus|Cyttaria johowii|Dactylanthus taylorii|Dahlstedtia pentaphylla|Dalatias licha|Dalbergia stipulacea|Daldinia concentrica|Daphne odora|Datisca glomerata|Davallia canariensis|Davidsonia pruriens|Delphinus globiceps|Dendroaspis angusticeps|Dendrophorbium elatum|Dendrophorbium usgorense|Dictyota dichotoma|Dinemasporium strigosum|Dioscorea olfersiana|Dioscorea prazeri|Diospyros blancoi|Diospyros maritima|Diplotaxis harra|Disynaphia multicrenulata|Doellingeria scaber|Dolichandrone crispa|Dolichospermum viguieri|Domohinea perrieri|Dracaena mannii|Drosera indica|Drummondita hassellii|Dryopteris assimilis|Dryopteris carthusiana|Dryopteris expansa|Dryopteris filix-mas|Dryopteris spinulosa|Drypetes indica|Duhaldea cappa|Dysosma pleianthum|Dyssodia anthemidifolia|Ecballium elaterium|Echinops niveus|Echinus microtuberculatus|Echiochilon pauciflorum|Ekebergia capensis|Elaeagnus commutata|Elaeodendron alluaudianum|Eleutherococcus senticosus|Elmerrillia papuana|Elysia timida|Engineered Escherichia coli strain YJM28 [n.a.]|Enicosanthum cupulare|Enterococcus faecalis|Ephedra distachya|Eremanthus brasiliensis|Eriocephalus kingesii|Eriocephalus scariosus|Erium villosum|Erucaria microcarpa|Erylus nobilis|Erythrophleum fordii|Espeletiopsis glandulosa|Etlingera philippinensis|Eucalyptus citriodora|Eucalyptus flocktoniae|Eucommia ulmoides|Euphausia pacifica|Euphausia superba|Euphorbia characias|Euphorbia hirta|Euphorbia jaxartica|Euphorbia tirucalli|Fagus fusca|Farlowia mollis|Ficus septica|Flemingia philippinensis|Flindersia brayleyana|Flindersia xanthoxyla|Fomes officinalis|Fornes officinalis|Fumaria kraliki|Fusarium fujikuroi|Fusarium striatum|Galeopsis bifida|Galium mollugo|Garcinia linii|Garcinia multiflora|Gardenia imperialis|Geigeria brevifolia|Geigeria burkei|Geigeria burkei var. burkei|Geigeria ornativa|Gelasinospora multiforis|Genista sessilifolia|Gentiana lutea L.|Geranium collinum|Gerbera ambigua|Gerbera piloselloides|Gibberella fujikuroi|Girgensohnia oppositiflora|Gloydius halys|Glycine Max|Glycine max|Glycosmis ovoidea|Glycosmis pseudoracemosa|Goldfussia yunnanensis|Gomesa radicans|Gomphostemma parviflorum|Gonotheca helianthoides|Goupia glabra|Great yellow gentian|Greenmaniella resinosa|Grindelia scorzonerifolia|Gustavia longifolia|Gutierrezia solbrigii|Gutierrezia spathulata|Gyalolechia fulgens|Gymnanthemum corymbosum|Gymnaster koraiensis|Haliclona cribricutis|Halimium viscosum|Hamamelis virginiana|Harpullia cupanioides|Hedysarum sachalinense|Helichrysum auriceps|Helichrysum mimetes|Helichrysum nudifolium|Helichrysum reflexum|Helicoverpa armigera|Heliopsis longipes|Helipterum propinquum|Heracleum sphondylium|Heterotheca latifolia|Hexanchus griseus|Hippobroma longiflora|Homo sapiens|Hoya naumannii|Hubertia tomentosa|Hydrangea chinensis|Hyella caespitosa|Hygrophorus eburneus|Hypericum japonicum|Hypocrella bambusae|Hypoxis nyasica|Hyptis capitata|Hyrtios eubamma|Illicium difengpi|Inocybe aeruginascens|Inula grantioides|Inula salsoloides|Iotrochota purpurea|Iris potaninii|Isoberlinia angolensis|Isocoma coronopifolia|Isodon eriocalyx|Isoplexis chalcantha|Jungermannia obovata|Jungia axillaris|Juniperus horizontalis|Justicia trinervia|Kleinia galpinii|Koanophyllon albicaule|Koanophyllon albicaulis|Kummerowia striata|Lactococcus lactis FS1076 (MG1363 √É√Ç3 ldh √É√Çpta √É√ÇadhE √É√Çals) [als]|Lambertella corni|Lamellodysidea chlorea|Lanice conchilega|Larix gmelinii|Lasiolaena morii|Lathyrus tingitanus|Laurencia decumbens|Laurentia longiflora|Lecocarpus lecocarpoides|Leitneria floridana|Lens culinaris|Lepidium graminifolium|Lepidorhinus squamosus|Lepisanthes tetraphylla|Lepista irina|Lepraria citrina|Lespedeza maximowiczi|Leucoblepharis subsessilis|Leuconostoc mesenteroides|Liabum floribundum|Liabum solidagineum|Ligularia fischerii|Ligustrum obtusifolium|Lilium rubrum|Limnodynastes interioris|Lindera glauca|Litsea acutivena|Lobelia syphilitica|Lobophytum denticulatum|Lomatia silaifolia|Lonchocarpus atropurpureus|Lotus ucrainicus|Luffa Cylindrica|Luffa cylindrica|Lychnophora bahiensis|Lychnophora pinaster|Lycopodium japonicum|Lyophyllum shimeji|Lysastrosoma anthosticta|Maackia amurensis|Maackia tashiroi|Macaranga sinensis|Machaerium kuhlmannii|Malva rotundifolia|Mandragora autumnalis|Mandragora officinarum|Mannia fragrans|Marrubium parviflorum|Mascarenhasia arborescens|Meconopsis napaulensis|Medicago scutellata|Melaleuca leucadendra|Melaleuca leucadendron|Melia azedarach|Melia azedarach var. toosendan|Mentha spicata|Merremia umbellata|Mesua beccariana|Methylomonas methanolica|Metridium senile|Microglossa pyrifolia|Microglossa zeylandica|Micromelum integerrimum|Microsphaeropsis olivacea|Mikania grazielae|Milleria quinqueflora|Millettia conraui|Millettia pinnata|Minquartia guianensis|Mirabilis jalapa|Mondia whitei|Monteverdia aquifolium|Monteverdia ilioppjfeowneviufheiuwfew fgr|Monteverdia truncata|Moscharia pinnatifida|Mucor circinelloides M65-TE-01 [TE-01]|Mucor circinelloides M65-TE-03 [TE-03]|Mucor circinelloides M65-TE-04 [TE-04]|Mus musculus|Mus striatus|Mycena alcalina|Mycena fagetorum|Mycoleptodiscus indicus|Myelobia smerintha|Myristica cagayanensis|Mytilus galloprovincialis|Nauclea latifolia|Neoboutonia glabrescens Prain|Neoboutonia mannii|Neofinetia falcata|Neomirandea angularis|Nephthea armata|Nicotiana tabacum|Nidorella aegyptiaca|Nidorella auriculata|Nidorella hottentotica|Nidorella podocephala|Nostoc muscorum|Notholaena aschenborniana|Odocoileus hemionus|Oedera squarrosa|Oenothera biennis|Olea europaea|Olearia brachyphylla|Olearia pimeleoides|Onoseris alata|Onoseris gnaphalioides|Ophidiaster ophidianus|Ormosia elata|Ormosia panamensis|Oryza Sativa|Oryza sativa|Osmerus mordax|Osteospermum muricatum|Otostegia fruticosa|Paeonia lactiflora|Paeonia rockii|Palafoxia rosea|Panax ginseng|Pandanus tectorius|Panicum crus-galli|Papaver glaucum|Paranephelius uniflorus|Pardachirus pavoninus|Parthenium bipinnatifidum|Parthenium confertum|Pedicularis condensata|Pentaceraster regulus|Perilla frutescens|Periploca forrestii|Perityle vaseyi|Persicaria perfoliata|Perymenium klattianum|Pestalotiopsis virgatula|Petalostemon purpureum|Petrosia corticata|Petrosia hebes|Peucedanum oroselinum|Phaleria cumingii|Phebalium dentatum|Phellinus igniarius|Philadelphia fleabane|Phoebe formosana|Phoenix hanceana|Phoradendron reichenbachianum|Phycomyces blakesleeanus|Phyllanthus oligospermus|Phymatopteris hastata|Pinus flexilis|Pinus heterophylla|Pinus monophylla|Pinus radiata|Piper acutifolium|Piptolepis leptospermoides|Pisaster giganteus|Pisum sativum|Pittosporum undulatum|Plagiochila trabeculata|Plagius flosculosus|Plakinastrella clathrata|Plakortis lita|Platycladus orientalis|Plectosphaerella cucumerina|Plectranthus caninus|Plectranthus cylindraceus|Pleurosigma strigosum|Podocarpus amarus|Podolepis hieracioides|Polemannia montana|Polydora poskeana|Polygala sibirica|Polygala tenuifolia|Polygonatum polyanthemum|Polygonum flaccidum|Porella cordaeana|Porella swartziana|Porophyllum angustissimum|Potebniamyces gallicola|Psathyrotes ramosissima|Pseudocyclosorus subochthodes|Pseudognaphalium gaudichaudianum|Pseudogynoxys pohlii|Pseudomonas|Pseudomonas chlororaphis|Pseudowintera colorata|Psiadia ceylanica|Psidium guajava|Psilotum nudum|Pterocaulon polystachyum|Pteronia camphorata|Ptilota pectinata|Purpura aperta|Pyropolyporus fomentarius|Qualea grandiflora|Quercus imbricaria|Quercus laurifolia|Quercus mongolica|Radianthus kuekenthali|Radula perrottetii|Raputia praetermissa|Raukaua simplex|Rauvolfia salicifolia|Rheum webbianum|Rhizophora mucronata|Rhizoplaca baranowii|Rhizopus arrhizus|Rhodococcus erythropolis|Rhododendron aureum|Rhododendron formosanum|Roccella fucoides|Rosa transmorrisonensis|Rubia yunnanensis|Rudbeckia mollis|Rutidosis murchisonii|Sabadilla officinalis|Sabal blackburniana|Sabal palmetto|Saccharomyces cerevisiae|Saccharomyces cerevisiae CLy12a-ATF1-ACS2-CAB2 [ATF1 ACS2 CAB2]|Saccharothrix mutabilis|Sagina japonica|Salacia chinensis|Salmea scandens|Salmonella enterica subsp. enterica serovar bovismorbificans|Salvia canariensis L.|Salvia coulteri|Salvia divaricata|Salvia fruticosa|Salvia hispanica|Salvia palaefolia|Salvia triloba|Sarcophyton latum|Satureja cuneifolia|Scaevola spinescens|Schistostephium crataegifolium|Schlumbergera truncata|Scleropyrum wallichianum|Scrophularia koelzii|Scutellaria discolor|Scytonema ocellatum|Senecio digitalifolius|Senecio flavus|Senecio othonnaeflorus|Senecio oxyriifolius|Senecio portalesianus|Senecio zoellneri|Senegalia mellifera|Sepia officinalis|Sida cordifolia|Sideritis argosphacelus|Sideritis canariensis|Sideritis candicans|Sideritis candicans var.eriocephala|Sideritis dendro-chahorra|Sideritis discolor|Sideritis lotsyi|Sideritis lotsyi var. mascaensis|Sideritis soluta|Sideritis syriaca|Sideritis taurica|Sipunculus nudus|Smallanthus uvedalia|Smooth-fronted caiman|Solanum andigena|Solanum aviculare|Solanum diflorum|Solanum sisymbriifolium|Solanum tripartitum|Solenopsis invicta|Solidago nemoralis|Sonneratia alba|Sophora viciifolia|Soroseris hookeriana|Sphacelaria arctica|Sphaeranthus bullatus|Sphaerechinus granularis|Spiracantha cornifolia|Spodoptera littoralis|Staehelina fruticosa|Stephanitis rhododendri|Sterculia setigera|Stevia achalensis|Stichopus horrens|Stilpnopappus glomeratus|Stomozoa murrayi|Streptomyces|Streptomyces atratus|Streptomyces bobili|Streptomyces caelestis|Streptomyces collinus|Streptomyces collinus Tü 365|Streptomyces fradiae|Streptomyces glaucescens|Streptomyces graminofaciens|Streptomyces jumonjinensis|Streptomyces luteosporeus|Streptomyces mobaraensis|Streptomyces parvulus|Streptomyces platensis|Streptomyces reveromyceticus SN-593|Streptomyces ribosidificus|Streptomyces rochei|Streptomyces rugosporus|Streptomyces sundarbansensis|Strombus gigas|Strychnos spinosa|Symphyotrichum undulatum|Syphonota geographica|Syzygium jambos|Tectona Grandis|Tectona grandis|Telitoxicum peruvianum|Tephroseris integrifolia|Terminalia catappa|Terminalia chebula|Terminalia glabrescens|Tessaria integrifolia|Tetradium glabrifolium|Tetragonotheca repanda|Tetrapanax papyrifer|Teucrium heterophyllum|Teucrium orientale|Thermopsis mollis|Thujopsis dolabrata|Thymbra spicata|Tilia vulgaris|Trachyrhamphus serratus|Trapa bicornis|Trichia floriformis|Trichilia claussenii|Trichoderma citrinum|Trichoderma viride|Tricholoma acerbum|Trifolium diffusum|Tripterygium wilfordii|Turnera diffusa|Turraeanthus mannii|Tylophora tanakae|Typha latifolia|Ulva prolifera|Umbilicaria cinereorufescens|Uncaria sterrophylla|Unknown sp.|Vachellia pennatula|Vallaris heynei|Vellozia streptophylla|Veltheimia viridifolia|Verbesina macrophylla|Veretillum cynomorium|Veronica chamaedrys|Veronica intercedens|Veronica stricta|Viburnum tinus|Vicia amoena|Viguiera pazensis|Vitex agnus-castus|Viviparus japonicus|Wedelia bishoplecta|Xanthium spinosum|Xenia viridis|Xylopia aethiopica|Xyris indica|Yarrowia lipolytica|Yarrowia lipolytica MTLY40-2P [POX2-5 POX2]|Yarrowia lipolytica ST6075 [crtW crtZ]|Youngia japonica|Zanthoxylum ailanthoides|Zanthoxylum ocumarense|Zanthoxylum zanthoxyloides|Zygosaccharomyces rouxii|garcinina multiflora|garlic|springbok

>  <collections>  (340) 
Australian natural products|CMAUP (cCollective molecular activities of useful plants)|ChEBI NPs|ChemSpider NPs|ConMedNP|DrugBankNP|EMNPD|ETM (Ethiopian Traditional Medicine) DB|KNApSaCK|Latin America dataset|Marine Natural Products|NAPRORE-CR|NPACT|NPASS|NPAtlas|NPEdia|NuBBEDB|Phyto4Health|SANCDB|StreptomeDB|Super Natural II|TCMDB-Taiwan (Traditional Chinese Medicine database)|TIPdb (database of Taiwan indigenous plants)|VietHerb|WikiData Natural Products

>  <dois>  (340) 
10.1002/(SICI)1099-1573(199611)10:7<600::AID-PTR918>3.0.CO;2-7|10.1002/(SICI)1099-1573(199906)13:4<329::AID-PTR458>3.0.CO;2-U|10.1002/CHIN.200402179|10.1002/CHIN.200407160|10.1002/CHIN.200436206|10.1002/CHIN.200539166|10.1002/EJOC.200300284|10.1002/EJOC.201100505|10.1002/JCCS.199300096|10.1002/JCCS.199500128|10.1002/JCCS.199800048|10.1002/JCCS.200000050|10.1002/JCCS.200000074|10.1002/JCCS.200000152|10.1002/JCCS.200200042|10.1002/JCCS.200300178|10.1002/JCCS.200700071|10.1002/JCCS.200700187|10.1002/JPS.2600570840|10.1002/MRC.1844|10.1002/RECL.19961150115|10.1002/bit.26211|10.1002/bit.26369|10.1002/bit.26473|10.1002/btpr.2185|10.1007/BF00568505|10.1007/BF00574376|10.1007/BF00574580|10.1007/BF00576208|10.1007/BF02024677|10.1007/BF02249626|10.1007/BF02645749|10.1007/S10295-015-1685-7|10.1007/S10600-005-0133-8|10.1007/S10600-007-0179-X|10.1007/S10600-010-9698-Y|10.1007/S10600-011-9788-5|10.1007/S10600-011-9966-5|10.1007/S11306-016-1051-4|10.1007/S11418-007-0218-8|10.1007/S11418-008-0253-0|10.1007/s00253-013-5295-x|10.1007/s00253-015-6718-7|10.1007/s10295-014-1561-x|10.1007/s10295-015-1685-7|10.1007/s10295-015-1692-8|10.1007/s10295-016-1885-9|10.1007/s10295-017-1900-9|10.1007/s10295-018-2103-8|10.1007/s10295-019-02142-0|10.1016/0031-9422(73)80048-2|10.1016/0031-9422(80)85024-2|10.1016/0031-9422(81)85163-1|10.1016/0031-9422(81)85166-7|10.1016/0031-9422(82)80032-0|10.1016/0031-9422(82)80035-6|10.1016/0031-9422(82)80161-1|10.1016/0031-9422(82)83143-9|10.1016/0031-9422(82)83188-9|10.1016/0031-9422(82)85251-5|10.1016/0031-9422(82)85252-7|10.1016/0031-9422(83)80100-9|10.1016/0031-9422(83)80102-2|10.1016/0031-9422(83)80212-X|10.1016/0031-9422(83)80224-6|10.1016/0031-9422(83)80242-8|10.1016/0031-9422(83)85053-5|10.1016/0031-9422(84)83084-8|10.1016/0031-9422(84)83107-6|10.1016/0031-9422(88)80117-1|10.1016/0031-9422(88)80441-2|10.1016/0031-9422(88)80463-1|10.1016/0031-9422(88)80683-6|10.1016/0031-9422(88)83027-9|10.1016/0031-9422(88)83159-5|10.1016/0031-9422(89)80149-9|10.1016/0031-9422(89)80289-4|10.1016/0031-9422(89)80352-8|10.1016/0031-9422(89)80383-8|10.1016/0031-9422(90)80156-B|10.1016/0031-9422(90)80181-F|10.1016/0031-9422(90)83041-X|10.1016/0031-9422(90)85280-S|10.1016/0031-9422(90)85369-Q|10.1016/0031-9422(90)85431-E|10.1016/0031-9422(90)85434-H|10.1016/0031-9422(91)83037-L|10.1016/0031-9422(91)83197-S|10.1016/0031-9422(91)83210-C|10.1016/0031-9422(91)83230-I|10.1016/0031-9422(91)84130-K|10.1016/0031-9422(91)84221-D|10.1016/0031-9422(91)85105-9|10.1016/0031-9422(91)85137-O|10.1016/0031-9422(92)80361-H|10.1016/0031-9422(92)80479-X|10.1016/0031-9422(92)83445-5|10.1016/0031-9422(92)83462-8|10.1016/0031-9422(93)85405-G|10.1016/0031-9422(94)00594-J|10.1016/0031-9422(94)00793-S|10.1016/0031-9422(95)00403-T|10.1016/0031-9422(95)00807-1|10.1016/0031-9422(95)00969-8|10.1016/0031-9422(96)00004-0|10.1016/0304-4165(88)90119-5|10.1016/0305-1978(87)90052-4|10.1016/0378-8741(82)90058-7|10.1016/J.BIOPHA.2018.10.171|10.1016/J.BMC.2005.07.050|10.1016/J.BMC.2008.09.021|10.1016/J.FITOTE.2003.12.006|10.1016/J.FOODCHEM.2010.08.043|10.1016/J.JEP.2008.06.025|10.1016/J.JFMA.2013.08.003|10.1016/J.PHYTOCHEM.2004.02.026|10.1016/J.PHYTOCHEM.2004.09.002|10.1016/J.PHYTOCHEM.2004.11.012|10.1016/J.PHYTOCHEM.2005.07.016|10.1016/J.PHYTOCHEM.2009.05.011|10.1016/J.PHYTOCHEM.2015.02.003|10.1016/J.PHYTOL.2011.04.014|10.1016/J.PROCBIO.2015.05.019|10.1016/J.SCIB.2021.03.002|10.1016/S0031-9422(00)00062-5|10.1016/S0031-9422(00)80481-1|10.1016/S0031-9422(00)80635-4|10.1016/S0031-9422(00)80755-4|10.1016/S0031-9422(00)80774-8|10.1016/S0031-9422(00)80783-9|10.1016/S0031-9422(00)81059-6|10.1016/S0031-9422(00)81111-5|10.1016/S0031-9422(00)81146-2|10.1016/S0031-9422(00)81166-8|10.1016/S0031-9422(00)81231-5|10.1016/S0031-9422(00)81431-4|10.1016/S0031-9422(00)81508-3|10.1016/S0031-9422(00)81569-1|10.1016/S0031-9422(00)81585-X|10.1016/S0031-9422(00)81746-X|10.1016/S0031-9422(00)81748-3|10.1016/S0031-9422(00)82284-0|10.1016/S0031-9422(00)82414-0|10.1016/S0031-9422(00)82422-X|10.1016/S0031-9422(00)82426-7|10.1016/S0031-9422(00)82445-0|10.1016/S0031-9422(00)82616-3|10.1016/S0031-9422(00)83499-8|10.1016/S0031-9422(00)83588-8|10.1016/S0031-9422(00)83763-2|10.1016/S0031-9422(00)83869-8|10.1016/S0031-9422(00)83939-4|10.1016/S0031-9422(00)84573-2|10.1016/S0031-9422(00)84733-0|10.1016/S0031-9422(00)84743-3|10.1016/S0031-9422(00)84784-6|10.1016/S0031-9422(00)84886-4|10.1016/S0031-9422(00)85700-3|10.1016/S0031-9422(00)88541-6|10.1016/S0031-9422(00)88691-4|10.1016/S0031-9422(00)89331-0|10.1016/S0031-9422(00)90593-4|10.1016/S0031-9422(00)90719-2|10.1016/S0031-9422(00)90761-1|10.1016/S0031-9422(00)91034-3|10.1016/S0031-9422(00)91056-2|10.1016/S0031-9422(00)91058-6|10.1016/S0031-9422(00)91071-9|10.1016/S0031-9422(00)91384-0|10.1016/S0031-9422(00)94841-6|10.1016/S0031-9422(00)97766-5|10.1016/S0031-9422(00)98546-7|10.1016/S0031-9422(02)00611-8|10.1016/S0031-9422(03)00158-4|10.1016/S0031-9422(82)85040-1|10.1016/S0031-9422(82)85041-3|10.1016/S0031-9422(82)85073-5|10.1016/S0031-9422(97)01126-6|10.1016/S0031-9422(98)00478-6|10.1016/S0040-4020(01)82348-6|10.1016/S0040-4020(01)96789-4|10.1016/S0040-4039(01)85855-X|10.1016/S0040-4039(97)01032-0|10.1016/S0305-1978(98)00054-4|10.1016/S0367-326X(01)00327-6|10.1016/S0367-326X(99)00057-X|10.1016/S0378-8741(02)00172-1|10.1016/j.bbalip.2005.11.004|10.1016/j.biortech.2017.06.105|10.1016/j.jbiosc.2014.07.013|10.1016/j.jbiotec.2018.07.001|10.1016/j.micres.2018.01.003|10.1016/j.procbio.2015.05.019|10.1016/j.scib.2021.03.002|10.1016/j.synbio.2017.10.002|10.1016/j.ymben.2021.05.007|10.1016/s0021-9150(99)00129-x|10.1021/ACSSYNBIO.7B00249|10.1021/JA00189A056|10.1021/JF010918P|10.1021/JF0203500|10.1021/JO015751D|10.1021/NP0301543|10.1021/NP0302394|10.1021/NP030477Z|10.1021/NP0497548|10.1021/NP0580210|10.1021/NP0600797|10.1021/NP060253R|10.1021/NP100014J|10.1021/NP2002918|10.1021/NP50006A011|10.1021/NP50032A024|10.1021/NP50035A008|10.1021/NP50046A035|10.1021/NP50057A010|10.1021/NP50066A019|10.1021/NP50074A036|10.1021/NP8006364|10.1021/NP800721F|10.1021/NP9606052|10.1021/NP980445P|10.1021/acs.jafc.9b05218|10.1021/acssynbio.0c00249|10.1021/acssynbio.1c00480|10.1021/acssynbio.7b00083|10.1021/acssynbio.7b00249|10.1021/acssynbio.8b00535|10.1021/np100014j|10.1021/np2002918|10.1021/np8006364|10.1021/np800721f|10.1038/NBT.2488|10.1038/SREP40851|10.1038/nbt.2488|10.1038/s41421-018-0075-5|10.1038/srep28629|10.1039/C8GC04066D|10.1042/BJ0220077|10.1055/S-0029-1234987|10.1055/S-0029-1234988|10.1055/S-2001-15823|10.1055/S-2003-41120|10.1055/S-2005-916253|10.1055/S-2006-957420|10.1055/S-2006-957961|10.1055/S-2007-967195|10.1055/S-2007-969197|10.1055/S-2007-969987|10.1071/CH08343|10.1080/00021369.1980.10864214|10.1080/10412905.2000.9699496|10.1080/14786410902951054|10.1089/ind.2013.0013|10.1111/J.1365-2621.1981.TB03018.X|10.1111/J.1432-1033.1985.TB08982.X|10.1111/J.1749-6632.1999.TB08735.X|10.1128/JB.135.2.717-720.1978|10.1186/1471-2229-11-45|10.1186/1472-6882-13-292|10.1186/1754-6834-6-60|10.1186/s12934-016-0623-3|10.1186/s12934-019-1127-8|10.1186/s13568-018-0557-8|10.1248/CPB.38.2130|10.1248/CPB.44.1540|10.1248/CPB.44.690|10.1248/CPB.44.695|10.1248/CPB.51.1051|10.1248/CPB.51.885|10.1248/CPB.53.1194|10.1248/CPB.56.97|10.1248/CPB.59.778|10.1271/BBB1961.47.483|10.1271/BBB1961.48.2523|10.1271/BBB1961.55.2643|10.1371/journal.pone.0023255|10.1515/ZNB-1989-1219|10.1590/S0100-40422008000600038|10.1590/S0103-50531999000600017|10.1590/S0103-50532003000300021|10.21608/ZJPS.1997.169710|10.3389/fbioe.2020.611701|10.3390/GENES9040219|10.3390/MOLECULES14125281|10.3390/foods9060770|10.3390/genes9040219|10.3390/ijms20030786|10.3390/microorganisms9071372|10.3390/molecules23123219|10.3390/molecules27020483|10.3724/SP.J.1145.2011.00350|10.3987/COM-02-9615|10.4014/jmb.2008.08005|10.4103/0974-8490.112421|10.4314/BCSE.V17I2.61669|10.5650/jos.ess19091|10.5650/jos.ess21076

>  <synonyms>  (340) 
|(6E,10E,14E,18E)-2,6,10,15,19,23-hexamethyltetracosa-2,6,10,14,18,22-hexaene|(All-E)-2,6,10,15,19,23-hexamethyl-2,6,10,14,18,22-tetracosahexaene|(E)-Squalene|(E,E,E,E)-Squalene|(E\/Z)-Squalene|11051-27-7|111-02-4|2,6,10,14,18,22-Tetracosahexaene, 2,6,10,15,19,23-hexamethyl-|2,6,10,14,18,22-Tetracosahexaene, 2,6,10,15,19,23-hexamethyl-, (2E,6E,10E,14E,18E)-|2,6,10,14,18,22-Tetracosahexaene, 2,6,10,15,19,23-hexamethyl-, (all-E)-|2,6,10,14,18,22-tetracosahexaene, 2,6,10,15,19,23-hexamethyl-, (6E,10E,14E,18E)-|2,6,10,14,18,22-tetracosahexaene, 2,6,10,15,19,23-hexamethyl-, (all E)-|2,6,10,15,19,23-Hexamethyl-2,6,10,14,18,22-tetracosahexaene|2,6,10,15,19,23-Hexamethyl-2,6,10,14,18,22-tetracosahexaene, (all-E)-|2,6,10,15,19,23-Hexamethyltetracosa-2,6,10,14,18,22-hexaene|203-826-1|3704365A-1DAB-4AAA-A0D0-CAE7A96723AC|7683-64-9|7QWM220FJH|AKOS015917344|AS-56045|All-trans-Squalene|BS-49251|C00751|C30H50|CAS-111-02-4|CCG-268779|CCRIS 711|CHEBI:15440|CHEMBL458402|CS-0016601|CS-0201515|DA-67738|DB11460|DTXCID406044|DTXCID8047921|DTXSID0026044|DTXSID4064767|E80634|EBC-457049|EBC-616575|EC 203-826-1|EINECS 203-826-1|Epitope ID:239223|FS05206|GTPL3054|H0097|HMS5083J16|HMS6018O16|HSDB 8242|HY-N1214|HY-N1214A|HY-N1214R|InChI=1\/C30H50\/c1-25(2)15-11-19-29(7)23-13-21-27(5)17-9-10-18-28(6)22-14-24-30(8)20-12-16-26(3)4\/h15-18,23-24H,9-14,19-22H2,1-8H3\/b27-17+,28-18+,29-23+,30-24|MF59|MF59 COMPONENT SQUALENE|MFCD00008912|MONTANIDE ISA 720 COMPONENT SQUALENE|MSK40141|NCGC00181163-01|NCGC00181323-01|NS00009386|NSC-93748|NSC93748|Nikko Squalane EX|Q407560|QSPL 049|RefChem:6257|SCHEMBL15403|SQUALENE [EP MONOGRAPH]|SQUALENE [GREEN BOOK]|SQUALENE [MI]|SQUALENE [WHO-DD]|SR-01000944749|SR-01000944749-1|SY010933|Spinacen|Spinacene|Squalen|Squalene (Standard)|Squalene 100 microg\/mL in Hexane|Squalene CRS|Squalene, Spinacene, Supraene|Squalene, all-trans-|Super Squalene|Super Squalene; trans-Squalene;AddaVax|Supraene|Tox21_112789|Tox21_113239|UNII-7QWM220FJH|s4862|squalene|starbld0009755|trans-Squalene

>  <cas>  (340) 
111-02-4|7683-64-9|11051-27-7|CAS-111-02-4

$$$$

     RDKit          2D

 38 42  0  0  0  0  0  0  0  0999 V2000
   -1.1475   -4.6581    0.0000 C   0  0  0  0  0  0  0  0  0  0  0  0
   -2.2136   -3.6030    0.0000 C   0  0  0  0  0  0  0  0  0  0  0  0
   -1.8329   -2.1521    0.0000 C   0  0  0  0  0  0  0  0  0  0  0  0
   -2.8991   -1.0969    0.0000 C   0  0  0  0  0  0  0  0  0  0  0  0
   -4.3459   -1.4927    0.0000 C   0  0  0  0  0  0  0  0  0  0  0  0
   -4.7266   -2.9436    0.0000 C   0  0  0  0  0  0  0  0  0  0  0  0
   -6.1735   -3.3393    0.0000 O   0  0  0  0  0  0  0  0  0  0  0  0
   -5.4121   -0.4375    0.0000 C   0  0  0  0  0  0  0  0  0  0  0  0
   -5.0314    1.0133    0.0000 O   0  0  0  0  0  0  0  0  0  0  0  0
   -6.8589   -0.8333    0.0000 O   0  0  0  0  0  0  0  0  0  0  0  0
   -7.9251    0.2219    0.0000 C   0  0  0  0  0  0  0  0  0  0  0  0
   -2.5184    0.3539    0.0000 C   0  0  0  0  0  0  0  0  0  0  0  0
   -1.0715    0.7497    0.0000 C   0  0  0  0  0  0  0  0  0  0  0  0
   -0.6908    2.2006    0.0000 C   0  0  0  0  0  0  0  0  0  0  0  0
    0.7561    2.5963    0.0000 C   0  0  0  0  0  0  0  0  0  0  0  0
    1.8222    1.5412    0.0000 C   0  0  0  0  0  0  0  0  0  0  0  0
    1.4415    0.0903    0.0000 C   0  0  0  0  0  0  0  0  0  0  0  0
   -0.0053   -0.3055    0.0000 N   0  0  0  0  0  0  0  0  0  0  0  0
   -0.3861   -1.7563    0.0000 C   0  0  0  0  0  0  0  0  0  0  0  0
    0.6801   -2.8115    0.0000 O   0  0  0  0  0  0  0  0  0  0  0  0
    2.1270   -2.4157    0.0000 C   0  0  0  0  0  0  0  0  0  0  0  0
    2.5077   -0.9649    0.0000 O   0  0  0  0  0  0  0  0  0  0  0  0
    3.9545   -0.5691    0.0000 C   0  0  0  0  0  0  0  0  0  0  0  0
    4.3352    0.8818    0.0000 C   0  0  0  0  0  0  0  0  0  0  0  0
    5.7821    1.2775    0.0000 O   0  0  0  0  0  0  0  0  0  0  0  0
    5.0207   -1.6243    0.0000 C   0  0  0  0  0  0  0  0  0  0  0  0
    6.4675   -1.2285    0.0000 O   0  0  0  0  0  0  0  0  0  0  0  0
    4.6400   -3.0751    0.0000 C   0  0  0  0  0  0  0  0  0  0  0  0
    5.7061   -4.1303    0.0000 O   0  0  0  0  0  0  0  0  0  0  0  0
    3.1931   -3.4709    0.0000 C   0  0  0  0  0  0  0  0  0  0  0  0
    2.8124   -4.9218    0.0000 O   0  0  0  0  0  0  0  0  0  0  0  0
    0.8268    4.0946    0.0000 C   0  0  0  0  0  0  0  0  0  0  0  0
    1.9876    5.0447    0.0000 C   0  0  0  0  0  0  0  0  0  0  0  0
    1.7453    6.5250    0.0000 C   0  0  0  0  0  0  0  0  0  0  0  0
    0.3421    7.0552    0.0000 C   0  0  0  0  0  0  0  0  0  0  0  0
   -0.8187    6.1052    0.0000 C   0  0  0  0  0  0  0  0  0  0  0  0
   -0.5763    4.6249    0.0000 C   0  0  0  0  0  0  0  0  0  0  0  0
   -1.5143    3.4543    0.0000 N   0  0  0  0  0  0  0  0  0  0  0  0
  1  2  2  0
  3  2  1  1
  3  4  1  0
  4  5  1  1
  5  6  2  0
  6  7  1  0
  5  8  1  0
  8  9  2  0
  8 10  1  0
 10 11  1  0
  4 12  1  0
 13 12  1  1
 13 14  1  0
 14 15  2  0
 15 16  1  0
 16 17  1  0
 17 18  1  0
 18 19  1  0
 19 20  1  1
 21 20  1  6
 21 22  1  0
 22 23  1  0
 23 24  1  6
 24 25  1  0
 23 26  1  0
 26 27  1  1
 26 28  1  0
 28 29  1  6
 28 30  1  0
 30 31  1  1
 15 32  1  0
 32 33  2  0
 33 34  1  0
 34 35  2  0
 35 36  1  0
 36 37  2  0
 37 38  1  0
 19  3  1  0
 30 21  1  0
 37 32  1  0
 18 13  1  0
 38 14  1  0
M  END
>  <identifier>  (341) 
CNP0210319.1

>  <canonical_smiles>  (341) 
C=C[C@H]1[C@@H](/C(=C/O)C(=O)OC)C[C@H]2C3=C(CCN2[C@H]1O[C@@H]1O[C@H](CO)[C@@H](O)[C@H](O)[C@H]1O)C1=CC=CC=C1N3

>  <standard_inchi>  (341) 
InChI=1S/C27H34N2O9/c1-3-13-16(17(11-30)26(35)36-2)10-19-21-15(14-6-4-5-7-18(14)28-21)8-9-29(19)25(13)38-27-24(34)23(33)22(32)20(12-31)37-27/h3-7,11,13,16,19-20,22-25,27-28,30-34H,1,8-10,12H2,2H3/b17-11-/t13-,16-,19-,20+,22+,23-,24+,25-,27-/m0/s1

>  <standard_inchi_key>  (341) 
XAYUCVICBPYPRE-RUPNCQHISA-N

>  <name>  (341) 
nan

>  <iupac_name>  (341) 
methyl (~{Z})-2-[(2~{S},3~{S},4~{S},12~{b}~{S})-4-[(2~{S},3~{R},4~{S},5~{S},6~{R})-3,4,5-trihydroxy-6-(hydroxymethyl)tetrahydropyran-2-yl]oxy-3-vinyl-1,2,3,4,6,7,12,12~{b}-octahydroindolo[2,3-a]quinolizin-2-yl]-3-hydroxy-prop-2-enoate

>  <annotation_level>  (341) 
5

>  <total_atom_count>  (341) 
72

>  <heavy_atom_count>  (341) 
38

>  <molecular_weight>  (341) 
530.57

>  <exact_molecular_weight>  (341) 
530.22643

>  <molecular_formula>  (341) 
C27H34N2O9

>  <alogp>  (341) 
0.65

>  <topological_polar_surface_area>  (341) 
164.94

>  <rotatable_bond_count>  (341) 
6

>  <hydrogen_bond_acceptors>  (341) 
10

>  <hydrogen_bond_donors>  (341) 
6

>  <hydrogen_bond_acceptors_lipinski>  (341) 
10

>  <hydrogen_bond_donors_lipinski>  (341) 
6

>  <lipinski_rule_of_five_violations>  (341) 
2

>  <aromatic_rings_count>  (341) 
2

>  <qed_drug_likeliness>  (341) 
0.14

>  <formal_charge>  (341) 
0

>  <fractioncsp3>  (341) 
0.52

>  <number_of_minimal_rings>  (341) 
5

>  <van_der_walls_volume>  (341) 
463.25

>  <contains_sugar>  (341) 
True

>  <contains_ring_sugars>  (341) 
True

>  <contains_linear_sugars>  (341) 
False

>  <murcko_framework>  (341) 
O1CCCCC1OC2N3CCc4c5ccccc5[nH]c4C3CCC2

>  <np_likeness>  (341) 
1.82

>  <chemical_class>  (341) 
Corynanthean-type alkaloids

>  <chemical_sub_class>  (341) 
Corynanthean-type alkaloids

>  <chemical_super_class>  (341) 
Alkaloids and derivatives

>  <direct_parent_classification>  (341) 
Corynanthean-type alkaloids

>  <np_classifier_pathway>  (341) 
Alkaloids

>  <np_classifier_superclass>  (341) 
Tryptophan alkaloids

>  <np_classifier_class>  (341) 
Corynanthe type

>  <np_classifier_is_glycoside>  (341) 
True

>  <organisms>  (341) 
Chimarrhis turbinata

>  <collections>  (341) 
ChemSpider NPs|Latin America dataset|NuBBEDB|WikiData Natural Products

>  <dois>  (341) 
10.1021/np020547m|10.1590/S0102-695X2008000100007

>  <synonyms>  (341) 
Turbinatine

>  <cas>  (341) 
nan

$$$$

     RDKit          2D

 30 32  0  0  0  0  0  0  0  0999 V2000
   -8.8477   -0.5877    0.0000 C   0  0  0  0  0  0  0  0  0  0  0  0
   -7.3621   -0.3803    0.0000 C   0  0  0  0  0  0  0  0  0  0  0  0
   -6.4397   -1.5632    0.0000 C   0  0  0  0  0  0  0  0  0  0  0  0
   -7.0028   -2.9534    0.0000 C   0  0  0  0  0  0  0  0  0  0  0  0
   -4.9541   -1.3557    0.0000 C   0  0  0  0  0  0  0  0  0  0  0  0
   -4.3909    0.0345    0.0000 C   0  0  0  0  0  0  0  0  0  0  0  0
   -2.9053    0.2420    0.0000 C   0  0  0  0  0  0  0  0  0  0  0  0
   -2.3422    1.6322    0.0000 C   0  0  0  0  0  0  0  0  0  0  0  0
   -0.8566    1.8397    0.0000 C   0  0  0  0  0  0  0  0  0  0  0  0
   -0.2934    3.2299    0.0000 C   0  0  0  0  0  0  0  0  0  0  0  0
   -1.2158    4.4128    0.0000 Cl  0  0  0  0  0  0  0  0  0  0  0  0
    1.1922    3.4374    0.0000 C   0  0  0  0  0  0  0  0  0  0  0  0
    1.7553    4.8276    0.0000 O   0  0  0  0  0  0  0  0  0  0  0  0
    2.1146    2.2545    0.0000 C   0  0  0  0  0  0  0  0  0  0  0  0
    2.8200    3.5783    0.0000 C   0  0  0  0  0  0  0  0  0  0  0  0
    3.6109    2.1485    0.0000 O   0  0  0  0  0  0  0  0  0  0  0  0
    3.9724    0.6928    0.0000 C   0  0  0  0  0  0  0  0  0  0  0  0
    5.3627    0.1296    0.0000 O   0  0  0  0  0  0  0  0  0  0  0  0
    2.6996   -0.1010    0.0000 C   0  0  0  0  0  0  0  0  0  0  0  0
    2.5937   -1.5972    0.0000 C   0  0  0  0  0  0  0  0  0  0  0  0
    1.2449   -2.2536    0.0000 O   0  0  0  0  0  0  0  0  0  0  0  0
    3.8365   -2.4371    0.0000 C   0  0  0  0  0  0  0  0  0  0  0  0
    5.1852   -1.7808    0.0000 C   0  0  0  0  0  0  0  0  0  0  0  0
    3.7305   -3.9334    0.0000 C   0  0  0  0  0  0  0  0  0  0  0  0
    2.3817   -4.5897    0.0000 C   0  0  0  0  0  0  0  0  0  0  0  0
    4.9733   -4.7733    0.0000 O   0  0  0  0  0  0  0  0  0  0  0  0
    1.5514    0.8642    0.0000 C   0  0  0  0  0  0  0  0  0  0  0  0
    0.0659    0.6568    0.0000 C   0  0  0  0  0  0  0  0  0  0  0  0
   -0.4973   -0.7335    0.0000 C   0  0  0  0  0  0  0  0  0  0  0  0
   -1.9829   -0.9409    0.0000 O   0  0  0  0  0  0  0  0  0  0  0  0
  1  2  1  0
  2  3  1  0
  3  4  1  1
  3  5  1  0
  5  6  2  0
  6  7  1  0
  7  8  2  0
  8  9  1  0
  9 10  2  0
 10 11  1  0
 10 12  1  0
 12 13  2  0
 12 14  1  0
 14 15  1  6
 14 16  1  0
 16 17  1  0
 17 18  2  0
 17 19  1  0
 19 20  1  0
 20 21  2  0
 20 22  1  0
 22 23  1  6
 22 24  1  0
 24 25  1  6
 24 26  1  0
 19 27  2  0
 27 28  1  0
 28 29  2  0
 29 30  1  0
 30  7  1  0
 28  9  1  0
 27 14  1  0
M  END
>  <identifier>  (342) 
CNP0208255.1

>  <canonical_smiles>  (342) 
CC[C@H](C)/C=C/C1=CC2=C(Cl)C(=O)[C@@]3(C)OC(=O)C(C(=O)[C@H](C)[C@@H](C)O)=C3C2=CO1

>  <standard_inchi>  (342) 
InChI=1S/C23H25ClO6/c1-6-11(2)7-8-14-9-15-16(10-29-14)18-17(20(26)12(3)13(4)25)22(28)30-23(18,5)21(27)19(15)24/h7-13,25H,6H2,1-5H3/b8-7+/t11-,12+,13+,23-/m0/s1

>  <standard_inchi_key>  (342) 
HWSQVPGTQUYLEQ-LYUOGRNPSA-N

>  <name>  (342) 
4'-Epichaetoviridin A

>  <iupac_name>  (342) 
(6~{a}~{S})-5-chloro-9-[(2~{R},3~{R})-3-hydroxy-2-methyl-butanoyl]-6~{a}-methyl-3-[(~{E},3~{S})-3-methylpent-1-enyl]furo[2,3-h]isochromene-6,8-dione

>  <annotation_level>  (342) 
5

>  <total_atom_count>  (342) 
55

>  <heavy_atom_count>  (342) 
30

>  <molecular_weight>  (342) 
432.9

>  <exact_molecular_weight>  (342) 
432.13397

>  <molecular_formula>  (342) 
C23H25ClO6

>  <alogp>  (342) 
3.66

>  <topological_polar_surface_area>  (342) 
89.90

>  <rotatable_bond_count>  (342) 
6

>  <hydrogen_bond_acceptors>  (342) 
6

>  <hydrogen_bond_donors>  (342) 
1

>  <hydrogen_bond_acceptors_lipinski>  (342) 
6

>  <hydrogen_bond_donors_lipinski>  (342) 
1

>  <lipinski_rule_of_five_violations>  (342) 
0

>  <aromatic_rings_count>  (342) 
0

>  <qed_drug_likeliness>  (342) 
0.51

>  <formal_charge>  (342) 
0

>  <fractioncsp3>  (342) 
0.44

>  <number_of_minimal_rings>  (342) 
3

>  <van_der_walls_volume>  (342) 
380.66

>  <contains_sugar>  (342) 
False

>  <contains_ring_sugars>  (342) 
False

>  <contains_linear_sugars>  (342) 
False

>  <murcko_framework>  (342) 
O1C=CC2=CCC3OCC=C3C2=C1

>  <np_likeness>  (342) 
2.77

>  <chemical_class>  (342) 
Organooxygen compounds

>  <chemical_sub_class>  (342) 
Carbonyl compounds

>  <chemical_super_class>  (342) 
Organic oxygen compounds

>  <direct_parent_classification>  (342) 
Cyclohexenones

>  <np_classifier_pathway>  (342) 
Polyketides

>  <np_classifier_superclass>  (342) 
Chromanes

>  <np_classifier_class>  (342) 
Azaphilones

>  <np_classifier_is_glycoside>  (342) 
False

>  <organisms>  (342) 
Chaetomium globosum

>  <collections>  (342) 
ChEBI NPs|NPASS|NuBBEDB|PubChem NPs|WikiData Natural Products|ZINC NP

>  <dois>  (342) 
10.1021/NP200110F|10.1021/np200110f

>  <synonyms>  (342) 
(6aS)-5-Chloro-9-[(2S,3R)-3-hydroxy-2-methyl-1-oxobutyl]-6aalpha-methyl-3-[(1E,3S)-3-methyl-1-pentenyl]-6H-furo[2,3-h]-2-benzopyran-6,8(6aH)-dione|(6aS)-5-chloranyl-6a-methyl-9-[(2R,3R)-2-methyl-3-oxidanyl-butanoyl]-3-[(E,3S)-3-methylpent-1-enyl]furo[2,3-h]isochromene-6,8-dione|(6aS)-5-chloro-9-[(2R,3R)-3-hydroxy-2-methyl-1-oxobutyl]-6a-methyl-3-[(E,3S)-3-methylpent-1-enyl]furo[2,3-h][2]benzopyran-6,8-dione|(6aS)-5-chloro-9-[(2R,3R)-3-hydroxy-2-methylbutanoyl]-6a-methyl-3-[(E,3S)-3-methylpent-1-enyl]furo[2,3-h]isochromene-6,8-dione|4'-epichaetoviridin A|BDBM59045|CHEBI:67616|CHEMBL1306556|Chaetoviridin A|HMS2271B03|MLS000563214|NCGC00247579-01|Q27136083|SMR000470868|cid_23641105

>  <cas>  (342) 
nan

$$$$

     RDKit          2D

 19 20  0  0  0  0  0  0  0  0999 V2000
   -1.1632   -2.5872    0.0000 O   0  0  0  0  0  0  0  0  0  0  0  0
   -1.0843   -1.0892    0.0000 C   0  0  0  0  0  0  0  0  0  0  0  0
    0.2523   -0.4086    0.0000 C   0  0  0  0  0  0  0  0  0  0  0  0
    1.5102   -1.2258    0.0000 C   0  0  0  0  0  0  0  0  0  0  0  0
    2.8468   -0.5452    0.0000 C   0  0  0  0  0  0  0  0  0  0  0  0
    4.1046   -1.3624    0.0000 C   0  0  0  0  0  0  0  0  0  0  0  0
    5.4413   -0.6818    0.0000 C   0  0  0  0  0  0  0  0  0  0  0  0
    5.5202    0.8162    0.0000 C   0  0  0  0  0  0  0  0  0  0  0  0
    6.8569    1.4968    0.0000 O   0  0  0  0  0  0  0  0  0  0  0  0
    4.2624    1.6334    0.0000 C   0  0  0  0  0  0  0  0  0  0  0  0
    2.9257    0.9528    0.0000 C   0  0  0  0  0  0  0  0  0  0  0  0
   -2.3421   -0.2720    0.0000 C   0  0  0  0  0  0  0  0  0  0  0  0
   -2.2633    1.2260    0.0000 C   0  0  0  0  0  0  0  0  0  0  0  0
   -3.5211    2.0432    0.0000 C   0  0  0  0  0  0  0  0  0  0  0  0
   -4.8577    1.3626    0.0000 C   0  0  0  0  0  0  0  0  0  0  0  0
   -6.1156    2.1798    0.0000 O   0  0  0  0  0  0  0  0  0  0  0  0
   -4.9366   -0.1354    0.0000 C   0  0  0  0  0  0  0  0  0  0  0  0
   -3.6788   -0.9526    0.0000 C   0  0  0  0  0  0  0  0  0  0  0  0
   -3.7577   -2.4506    0.0000 O   0  0  0  0  0  0  0  0  0  0  0  0
  1  2  2  0
  2  3  1  0
  3  4  2  0
  4  5  1  0
  5  6  2  0
  6  7  1  0
  7  8  2  0
  8  9  1  0
  8 10  1  0
 10 11  2  0
  2 12  1  0
 12 13  2  0
 13 14  1  0
 14 15  2  0
 15 16  1  0
 15 17  1  0
 17 18  2  0
 18 19  1  0
 11  5  1  0
 18 12  1  0
M  END
>  <identifier>  (343) 
CNP0213801.1

>  <canonical_smiles>  (343) 
O=C(/C=C/C1=CC=C(O)C=C1)C1=CC=C(O)C=C1O

>  <standard_inchi>  (343) 
InChI=1S/C15H12O4/c16-11-4-1-10(2-5-11)3-8-14(18)13-7-6-12(17)9-15(13)19/h1-9,16-17,19H/b8-3+

>  <standard_inchi_key>  (343) 
DXDRHHKMWQZJHT-FPYGCLRLSA-N

>  <name>  (343) 
nan

>  <iupac_name>  (343) 
nan

>  <annotation_level>  (343) 
0

>  <total_atom_count>  (343) 
31

>  <heavy_atom_count>  (343) 
19

>  <molecular_weight>  (343) 
256.26

>  <exact_molecular_weight>  (343) 
256.07356

>  <molecular_formula>  (343) 
C15H12O4

>  <alogp>  (343) 
2.70

>  <topological_polar_surface_area>  (343) 
77.76

>  <rotatable_bond_count>  (343) 
3

>  <hydrogen_bond_acceptors>  (343) 
4

>  <hydrogen_bond_donors>  (343) 
3

>  <hydrogen_bond_acceptors_lipinski>  (343) 
4

>  <hydrogen_bond_donors_lipinski>  (343) 
3

>  <lipinski_rule_of_five_violations>  (343) 
0

>  <aromatic_rings_count>  (343) 
2

>  <qed_drug_likeliness>  (343) 
0.58

>  <formal_charge>  (343) 
0

>  <fractioncsp3>  (343) 
0.00

>  <number_of_minimal_rings>  (343) 
2

>  <van_der_walls_volume>  (343) 
226.69

>  <contains_sugar>  (343) 
False

>  <contains_ring_sugars>  (343) 
False

>  <contains_linear_sugars>  (343) 
False

>  <murcko_framework>  (343) 
c1ccc(cc1)C=CCc2ccccc2

>  <np_likeness>  (343) 
0.70

>  <chemical_class>  (343) 
nan

>  <chemical_sub_class>  (343) 
nan

>  <chemical_super_class>  (343) 
nan

>  <direct_parent_classification>  (343) 
nan

>  <np_classifier_pathway>  (343) 
Shikimates and Phenylpropanoids

>  <np_classifier_superclass>  (343) 
Flavonoids

>  <np_classifier_class>  (343) 
Chalcones

>  <np_classifier_is_glycoside>  (343) 
False

>  <organisms>  (343) 
Aaptos ciliata|Abies excelsa|Abies pinsapo var. marocana|Acacia lanigera|Acacia rhodoxylon|Achlya heterosexualis|Agapanthus africanus|Albizia julibrissin|Allium Ascalonicum|Allium ascalonicum|Allium chinense|Alternaria macrospora|Amburana cearensis|Ampelocera edentula|Anemarrhena asphodeloides|Angelica acutiloba|Arabidopsis thaliana|Arnica mollis|Artemisia campestris|Artemisia ludoviciana|Artemisia palustris|Artocarpus altilis|Astragalus laxmannii|Astragalus membranaceus|Astragalus mongholicus|Ateleia herbert-smithii|Bahiopsis laciniata|Bahiopsis parishii|Bahiopsis triangularis|Bauhinia manca|Biancaea decapetala|Botrytis cinerea|Brassica carinata|Brazilian Red Propolis|Brosimum acutifolium|Broussonetia Papyrifera|Broussonetia papyrifera|Bryonia alba|Burkholderia cepacia|Butea monosperma|Caesalpinia decapetala|Calanticaria bicolor|Calanticaria brevifolia|Calanticaria greggii|Carpha glomerata|Cathormion altissimum|Centaurea solstitialis|Chara ceratophylla|Chrysosporum ovalisporum|Cicer arietinum|Cissus discolor|Cissus sicyoides|Clausena Excavata|Clausena excavata|Clematis hexapetala|Cosmos diversifolius|Crinum augustum|Crinum bulbispermum|Crinum bulbispermum Milne|Croton gratissimus|Cryptocarya oblata|Curcuma caesia|Cyanostegia angustifolia|Cyclolobium brasiliense|Cyclolobium clausseni|Cyclolobium claussenii|Dactylorhiza viridis|Dahlia tenuicaulis|Dahlia variabilis|Dalbergia ecastaphyllum|Dalbergia louveli|Dalbergia louvelii|Dalbergia odorifera|Dalbergia parviflora|Dalbergia retusa|Dalbergia sericea|Dalbergia sissoides|Dalbergia sissoo|Dalbergia stevensonii|Dendroviguiera splendens|Dermatophyllum gypsophilum|Diplopterygium glaucum|Dipteryx odorata|Dorstenia prorepens|Dorstenia zenkeri|Dracaena cambodiana|Dracaena draco|Erythrina fusca|Erythrina latissima|Erythrina pallida|Erythrophleum couminga|Eucalyptus australiana|Eucalyptus resinifera|Euphorbia helioscopia|Euphrasia genargentea|Eurycoma harmandiana|Flemingia Chappar|Flemingia chappar|Garcinia nervosa|Glycine Max|Glycine max|Glycyrrhiza|Glycyrrhiza Uralensis|Glycyrrhiza aspera|Glycyrrhiza echinata|Glycyrrhiza glabra|Glycyrrhiza glara|Glycyrrhiza inflata|Glycyrrhiza pallidiflora|Glycyrrhiza sp.|Glycyrrhiza uralensis|Glycyrrhiza yunnanensis|Halobacillus litoralis|Hedysarum polybotrys|Helianthus angustifolius|Helianthus carnosus|Helianthus floridanus|Helianthus heterophyllus|Helianthus longifolius|Helianthus radula|Helianthus simulans|Helianthus sp.|Hydnophytum formicarum|Inga velutina|Isatis tinctoria|Ixeris debilis|Lactuca serriola|Lagochilus leiacanthus|Leguminosae|Lentinus tigrinus|Lespedeza bicolor|Lespedeza cyrtobotrya|Lobophytum durum|Luxemburgia octandra|Lysimachia fordiana|Marasmiellus troyanus|Maytenus chuchuhuasha|Medicago sativa|Medicago spp.|Medicago truncatula|Millettia leucantha|Millettia usaramensis|Millettia usaramensis subsp. usaramensis|Millettia vatkei|Mimosa tenuiflora|Mitracarpus scaber|Morinda citrifolia|Morus cathayana|Morus mongolica|Muntingia Calabura|Muntingia calabura|Myroxylon sp.|Nepalese propolis|Ocimum pilosum|Onobrychis viciifolia|Onobrychis viciifolia Scop.|Onobrychis vicllfolia|Ormosia nobilis|Orthosiphon spicatus|Oxytropis falcata|Oxytropis pseudoglandulosa|Pancratium maritimum|Pancratium maritimum L.|Phelline lucida|Piptostigma fugax|Pisum sativum|Platymiscium floribundum|Platymiscium yucatanum|Polygonatum cyrtonema|Polygonatum falcatum|Polygonatum kingianum|Polygonatum sibiricum|Pongamia pinnata|Propolis|Psorothamnus arborescens|Pterocarpus indicus|Pterocarpus macrocarpus|Pterocarpus marsupium|Pterocarpus santalinus|Pterocarpus sp.|Pterolobium hexapetalum|Pueraria montana var. lobata|Ranunculus asiaticus|Remirea maritima|Rhododendron mucronatum|Rhododendron ungerni|Robinia paeudoacacia|Robinia pseudoacacia|Russula japonica|Saccharomonospora|Saccharomonospora sp. CNQ-490|Schizophyllum lobatum|Schnella guianensis|Senna lindheimeriana|Sinapis alba|Sinofranchetia chinensis|Solanum lanceolatum|Solenopsis punctaticeps|Sophora Tomentosa|Sophora chrysophylla|Sophora gypsophila|Sophora mollis|Sophora tomentosa|Spatholobus sinensis|Spatholobus suberectus|Streptomyces matensis|Streptomyces viridogenes|Strychnos tricalysioides|Tephrosia elata|Tephrosia sinapou|Tephrosia toxicaria|Teucrium betonicum|Tithonia  brachypappa|Toxicodendron vernicifluum|Trichodesma incanum|Trididemnum cyanophorum|Trifolium subterraneum|Turpinia arguta|Urochloa decumbens|Viburnum erubescens|Viguiera spp.|Wikstroemia viridiflora|Wisteriopsis reticulata|Xanthorhiza simplicissima|Xanthorrhoea glauca|Xanthorrhoea resinosa|Xenia florida|Xenia obscuronata|Zollernia paraensis|common sunflower|heamatoxylon campechianum|liquorice|soybean

>  <collections>  (343) 
ANPDB|AnalytiCon Discovery NPs|Australian natural products|CMAUP (cCollective molecular activities of useful plants)|ChEBI NPs|ChemSpider NPs|ConMedNP|DrugBankNP|FooDB|GNPS (Global Natural Products Social Molecular Networking)|HIT (Herbal Ingredients Targets)|InflamNat|KNApSaCK|Latin America dataset|NANPDB (Natural Products from Northern African Sources)|NPACT|NPASS|NPEdia|NuBBEDB|Phenol-explorer|Phyto4Health|PhytoLab phyproof® Reference Substances|PubChem NPs|Super Natural II|TCMDB-Taiwan (Traditional Chinese Medicine database)|TIPdb (database of Taiwan indigenous plants)|VietHerb|WikiData Natural Products|p-ANAPL

>  <dois>  (343) 
10.1002/CHIN.200407267|10.1002/J.1537-2197.1987.TB08600.X|10.1002/JLAC.19666920122|10.1002/PTR.2650070503|10.1002/PTR.2650070504|10.1002/RCM.1936|10.1007/BF00605215|10.1007/PL00000710|10.1007/S00011-008-8183-6|10.1007/S10600-009-9291-4|10.1007/S10600-010-9668-4|10.1007/S10600-011-0012-4|10.1007/S12272-011-0603-4|10.1007/s00011-008-8183-6|10.1016/0003-9861(88)90362-1|10.1016/0031-9422(75)80372-4|10.1016/0031-9422(75)85362-3|10.1016/0031-9422(81)80130-6|10.1016/0031-9422(83)80106-X|10.1016/0031-9422(88)80455-2|10.1016/0031-9422(92)80483-U|10.1016/0168-9452(96)04387-7|10.1016/0305-1978(83)90034-0|10.1016/0305-1978(88)90035-X|10.1016/0305-1978(88)90036-1|10.1016/0305-1978(89)90096-3|10.1016/0305-1978(93)90090-E|10.1016/J.BMC.2004.06.009|10.1016/J.BMC.2007.10.004|10.1016/J.BMC.2008.04.016|10.1016/J.BMC.2017.05.009|10.1016/J.BMCL.2009.07.054|10.1016/J.BMCL.2009.12.106|10.1016/J.BMCL.2010.07.110|10.1016/J.BMCL.2010.11.016|10.1016/J.BMCL.2013.04.032|10.1016/J.BMCL.2017.05.035|10.1016/J.BSE.2006.07.002|10.1016/J.BSE.2012.11.001|10.1016/J.FCT.2012.03.052|10.1016/J.FITOTE.2003.07.012|10.1016/J.FITOTE.2003.12.022|10.1016/J.FITOTE.2010.01.009|10.1016/J.FITOTE.2011.12.010|10.1016/J.FOODCHEM.2011.09.021|10.1016/J.PHYTOCHEM.2005.04.007|10.1016/J.PHYTOCHEM.2006.10.023|10.1016/S0021-9673(01)83627-X|10.1016/S0021-9673(01)89441-3|10.1016/S0021-9673(99)00945-0|10.1016/S0031-9422(00)00184-9|10.1016/S0031-9422(00)81448-X|10.1016/S0031-9422(00)83171-4|10.1016/S0031-9422(00)91322-0|10.1016/S0031-9422(01)00268-0|10.1016/S0031-9422(01)00483-6|10.1016/S0031-9422(03)00112-2|10.1016/S0031-9422(96)00532-8|10.1016/S0031-9422(97)00424-X|10.1016/S0031-9422(97)00802-9|10.1016/S0031-9422(98)00429-4|10.1016/S0031-9422(99)00220-4|10.1016/S0031-9422(99)00526-9|10.1016/S0031-9422(99)00608-1|10.1016/S0305-1978(97)00031-8|10.1016/S0891-5849(97)00089-0|10.1016/S0960-0760(01)00093-0|10.1016/j.bmc.2007.10.004|10.1016/j.bmc.2008.04.016|10.1016/j.bmc.2017.05.009|10.1016/j.bmcl.2010.11.016|10.1016/j.bmcl.2013.04.032|10.1016/j.bmcl.2017.05.035|10.1016/j.bse.2006.07.002|10.1016/j.phytochem.2018.02.005|10.1021/ACS.JNATPROD.6B00783|10.1021/JF00025A009|10.1021/JF00055A007|10.1021/JF903216R|10.1021/NP000085H|10.1021/NP020425U|10.1021/NP020517J|10.1021/NP020522N|10.1021/NP030008X|10.1021/NP0302100|10.1021/NP049854D|10.1021/NP0502600|10.1021/NP070478H|10.1021/NP070501Z|10.1021/NP50031A029|10.1021/NP50071A035|10.1021/NP50097A001|10.1021/NP900144C|10.1021/NP900397F|10.1021/NP900676Y|10.1021/acs.jafc.6b03883|10.1021/acs.jnatprod.5b00774|10.1021/acs.jnatprod.5b00877|10.1021/acs.jnatprod.6b00783|10.1021/acs.jnatprod.9b00262|10.1021/jm701501x|10.1021/np020522n|10.1021/np030008x|10.1021/np0302100|10.1021/np050009k|10.1021/np0502600|10.1021/np070501z|10.1021/np200174h|10.1021/np50031a029|10.1021/np50071a035|10.1021/np900144c|10.1021/np900397f|10.1021/np900676y|10.1055/S-2006-957394|10.1055/S-2006-960950|10.1055/S-2006-962604|10.1055/S-2007-969163|10.1055/s-2006-957394|10.1071/CH9640379|10.1071/ch9640379|10.1071/ch9721943c|10.1080/10286020.2015.1074573|10.1124/mol.106.023226|10.1128/AEM.58.5.1705-1710.1992|10.1128/aem.58.5.1705-1710.1992|10.1246/CL.1984.689|10.1246/NIKKASHI1948.87.11_1201|10.1248/BPB.23.660|10.1248/CPB.28.1172|10.1248/CPB.32.3267|10.1248/CPB.33.3811|10.1248/CPB.35.3568|10.1248/CPB.35.4846|10.1248/CPB.38.1712|10.1248/CPB.45.1485|10.1248/CPB.48.1286|10.1248/CPB.51.1095|10.1248/CPB.53.694|10.1248/CPB.54.1037|10.1248/CPB.54.1728|10.1248/CPB.57.1089|10.1248/CPB.57.428|10.1248/CPB.60.129|10.1248/YAKUSHI1947.107.7_506|10.1248/YAKUSHI1947.111.6_311|10.1248/YAKUSHI1947.118.11_519|10.1271/BBB.57.1353|10.1515/HFSG.1998.52.5.459|10.1515/ZNB-2007-0615|10.1515/ZNC-1978-1-227|10.1515/ZNC-1982-3-401|10.1515/ZNC-1987-11-1206|10.1590/S0103-50532004000100023|10.1590/S0103-50532011000200025|10.3109/13880209409082976|10.3184/030823402103171799|10.3390/MOLECULES13040904|10.3724/sp.j.1009.2008.00168|10.3987/COM-88-4771|10.3987/COM-89-5304|10.3987/COM-95-7310|10.3987/COM-98-8414|10.4268/CJCMM20130812|10.4268/CJCMM20140916

>  <synonyms>  (343) 
2',4,4'-Trihydroxychalcone

>  <cas>  (343) 
961-29-5

$$$$

     RDKit          2D

 37 39  0  0  0  0  0  0  0  0999 V2000
   -7.0348    1.8847    0.0000 C   0  0  0  0  0  0  0  0  0  0  0  0
   -6.4545    0.5015    0.0000 O   0  0  0  0  0  0  0  0  0  0  0  0
   -4.9664    0.3124    0.0000 C   0  0  0  0  0  0  0  0  0  0  0  0
   -4.0587    1.5066    0.0000 C   0  0  0  0  0  0  0  0  0  0  0  0
   -2.5707    1.3175    0.0000 C   0  0  0  0  0  0  0  0  0  0  0  0
   -1.6629    2.5117    0.0000 O   0  0  0  0  0  0  0  0  0  0  0  0
   -2.2432    3.8949    0.0000 C   0  0  0  0  0  0  0  0  0  0  0  0
   -1.3355    5.0891    0.0000 C   0  0  0  0  0  0  0  0  0  0  0  0
   -3.7313    4.0840    0.0000 O   0  0  0  0  0  0  0  0  0  0  0  0
   -1.9904   -0.0657    0.0000 C   0  0  0  0  0  0  0  0  0  0  0  0
   -0.5023   -0.2547    0.0000 C   0  0  0  0  0  0  0  0  0  0  0  0
    0.0780   -1.6379    0.0000 C   0  0  0  0  0  0  0  0  0  0  0  0
   -0.8298   -2.8321    0.0000 O   0  0  0  0  0  0  0  0  0  0  0  0
   -2.3178   -2.6430    0.0000 C   0  0  0  0  0  0  0  0  0  0  0  0
    1.5660   -1.8270    0.0000 C   0  0  0  0  0  0  0  0  0  0  0  0
    2.1463   -3.2102    0.0000 O   0  0  0  0  0  0  0  0  0  0  0  0
    2.4738   -0.6328    0.0000 C   0  0  0  0  0  0  0  0  0  0  0  0
    3.9618   -0.8218    0.0000 C   0  0  0  0  0  0  0  0  0  0  0  0
    4.5421   -2.2050    0.0000 O   0  0  0  0  0  0  0  0  0  0  0  0
    6.0301   -2.3941    0.0000 C   0  0  0  0  0  0  0  0  0  0  0  0
    6.6104   -3.7773    0.0000 C   0  0  0  0  0  0  0  0  0  0  0  0
    6.9379   -1.1999    0.0000 O   0  0  0  0  0  0  0  0  0  0  0  0
    4.8695    0.3723    0.0000 C   0  0  0  0  0  0  0  0  0  0  0  0
    6.3576    0.1833    0.0000 O   0  0  0  0  0  0  0  0  0  0  0  0
    7.2653    1.3774    0.0000 C   0  0  0  0  0  0  0  0  0  0  0  0
    4.2892    1.7555    0.0000 C   0  0  0  0  0  0  0  0  0  0  0  0
    5.1970    2.9497    0.0000 O   0  0  0  0  0  0  0  0  0  0  0  0
    6.6850    2.7606    0.0000 C   0  0  0  0  0  0  0  0  0  0  0  0
    2.8012    1.9446    0.0000 C   0  0  0  0  0  0  0  0  0  0  0  0
    1.8935    0.7504    0.0000 C   0  0  0  0  0  0  0  0  0  0  0  0
    0.4054    0.9395    0.0000 O   0  0  0  0  0  0  0  0  0  0  0  0
   -2.8981   -1.2598    0.0000 C   0  0  0  0  0  0  0  0  0  0  0  0
   -4.3861   -1.0708    0.0000 C   0  0  0  0  0  0  0  0  0  0  0  0
   -5.2939   -2.2649    0.0000 O   0  0  0  0  0  0  0  0  0  0  0  0
   -6.7819   -2.0759    0.0000 C   0  0  0  0  0  0  0  0  0  0  0  0
   -7.6897   -3.2700    0.0000 C   0  0  0  0  0  0  0  0  0  0  0  0
   -7.3622   -0.6927    0.0000 O   0  0  0  0  0  0  0  0  0  0  0  0
  1  2  1  0
  2  3  1  0
  3  4  2  0
  4  5  1  0
  5  6  1  0
  6  7  1  0
  7  8  1  0
  7  9  2  0
  5 10  2  0
 10 11  1  0
 11 12  2  0
 12 13  1  0
 13 14  1  0
 12 15  1  0
 15 16  2  0
 15 17  1  0
 17 18  2  0
 18 19  1  0
 19 20  1  0
 20 21  1  0
 20 22  2  0
 18 23  1  0
 23 24  1  0
 24 25  1  0
 23 26  2  0
 26 27  1  0
 27 28  1  0
 26 29  1  0
 29 30  2  0
 30 31  1  0
 10 32  1  0
 32 33  2  0
 33 34  1  0
 34 35  1  0
 35 36  1  0
 35 37  2  0
 33  3  1  0
 31 11  1  0
 30 17  1  0
M  END
>  <identifier>  (344) 
CNP0080406.0

>  <canonical_smiles>  (344) 
COC1=CC(OC(C)=O)=C(C2=C(OC)C(=O)C3=C(OC(C)=O)C(OC)=C(OC)C=C3O2)C=C1OC(C)=O

>  <standard_inchi>  (344) 
InChI=1S/C25H24O12/c1-11(26)34-15-9-16(30-4)17(35-12(2)27)8-14(15)22-25(33-7)21(29)20-18(37-22)10-19(31-5)23(32-6)24(20)36-13(3)28/h8-10H,1-7H3

>  <standard_inchi_key>  (344) 
NBLAUBWQTWCZNO-UHFFFAOYSA-N

>  <name>  (344) 
nan

>  <iupac_name>  (344) 
[4-acetoxy-5-(5-acetoxy-3,6,7-trimethoxy-4-oxo-chromen-2-yl)-2-methoxy-phenyl] acetate

>  <annotation_level>  (344) 
4

>  <total_atom_count>  (344) 
61

>  <heavy_atom_count>  (344) 
37

>  <molecular_weight>  (344) 
516.46

>  <exact_molecular_weight>  (344) 
516.12678

>  <molecular_formula>  (344) 
C25H24O12

>  <alogp>  (344) 
3.27

>  <topological_polar_surface_area>  (344) 
146.03

>  <rotatable_bond_count>  (344) 
8

>  <hydrogen_bond_acceptors>  (344) 
12

>  <hydrogen_bond_donors>  (344) 
0

>  <hydrogen_bond_acceptors_lipinski>  (344) 
12

>  <hydrogen_bond_donors_lipinski>  (344) 
0

>  <lipinski_rule_of_five_violations>  (344) 
2

>  <aromatic_rings_count>  (344) 
3

>  <qed_drug_likeliness>  (344) 
0.32

>  <formal_charge>  (344) 
0

>  <fractioncsp3>  (344) 
0.28

>  <number_of_minimal_rings>  (344) 
3

>  <van_der_walls_volume>  (344) 
nan

>  <contains_sugar>  (344) 
False

>  <contains_ring_sugars>  (344) 
False

>  <contains_linear_sugars>  (344) 
False

>  <murcko_framework>  (344) 
O1c2ccccc2CC=C1c3ccccc3

>  <np_likeness>  (344) 
0.91

>  <chemical_class>  (344) 
Flavonoids

>  <chemical_sub_class>  (344) 
O-methylated flavonoids

>  <chemical_super_class>  (344) 
Phenylpropanoids and polyketides

>  <direct_parent_classification>  (344) 
6-O-methylated flavonoids

>  <np_classifier_pathway>  (344) 
Shikimates and Phenylpropanoids

>  <np_classifier_superclass>  (344) 
Flavonoids

>  <np_classifier_class>  (344) 
Flavonols

>  <np_classifier_is_glycoside>  (344) 
False

>  <organisms>  (344) 
Apuleia leiocarpa

>  <collections>  (344) 
Latin America dataset|NuBBEDB|WikiData Natural Products|ZINC NP

>  <dois>  (344) 
10.1016/S0031-9422(00)89891-X

>  <synonyms>  (344) 
5-O-demethylapulein triacetate

>  <cas>  (344) 
nan

$$$$

     RDKit          2D

 27 30  0  0  0  0  0  0  0  0999 V2000
    6.6237    1.5996    0.0000 C   0  0  0  0  0  0  0  0  0  0  0  0
    6.2603    0.1443    0.0000 O   0  0  0  0  0  0  0  0  0  0  0  0
    4.8183   -0.2686    0.0000 C   0  0  0  0  0  0  0  0  0  0  0  0
    4.4549   -1.7239    0.0000 C   0  0  0  0  0  0  0  0  0  0  0  0
    5.5335   -2.7663    0.0000 O   0  0  0  0  0  0  0  0  0  0  0  0
    3.0128   -2.1368    0.0000 C   0  0  0  0  0  0  0  0  0  0  0  0
    1.9342   -1.0945    0.0000 C   0  0  0  0  0  0  0  0  0  0  0  0
    2.2976    0.3609    0.0000 C   0  0  0  0  0  0  0  0  0  0  0  0
    3.7397    0.7738    0.0000 C   0  0  0  0  0  0  0  0  0  0  0  0
    4.1031    2.2291    0.0000 O   0  0  0  0  0  0  0  0  0  0  0  0
    5.5451    2.6420    0.0000 C   0  0  0  0  0  0  0  0  0  0  0  0
    1.0258    1.1562    0.0000 O   0  0  0  0  0  0  0  0  0  0  0  0
   -0.1236    0.1924    0.0000 C   0  0  0  0  0  0  0  0  0  0  0  0
   -1.6089    0.4017    0.0000 C   0  0  0  0  0  0  0  0  0  0  0  0
   -2.1703    1.7927    0.0000 C   0  0  0  0  0  0  0  0  0  0  0  0
   -3.6556    2.0020    0.0000 C   0  0  0  0  0  0  0  0  0  0  0  0
   -4.2170    3.3930    0.0000 O   0  0  0  0  0  0  0  0  0  0  0  0
   -4.5796    0.8203    0.0000 C   0  0  0  0  0  0  0  0  0  0  0  0
   -6.0649    1.0296    0.0000 O   0  0  0  0  0  0  0  0  0  0  0  0
   -6.9888   -0.1520    0.0000 C   0  0  0  0  0  0  0  0  0  0  0  0
   -4.0182   -0.5706    0.0000 C   0  0  0  0  0  0  0  0  0  0  0  0
   -4.9421   -1.7523    0.0000 O   0  0  0  0  0  0  0  0  0  0  0  0
   -6.4274   -1.5430    0.0000 C   0  0  0  0  0  0  0  0  0  0  0  0
   -2.5328   -0.7799    0.0000 C   0  0  0  0  0  0  0  0  0  0  0  0
   -1.9714   -2.1709    0.0000 O   0  0  0  0  0  0  0  0  0  0  0  0
   -0.4861   -2.3802    0.0000 C   0  0  0  0  0  0  0  0  0  0  0  0
    0.4378   -1.1985    0.0000 C   0  0  0  0  0  0  0  0  0  0  0  0
  1  2  1  0
  2  3  1  0
  3  4  2  0
  4  5  1  0
  4  6  1  0
  6  7  2  0
  7  8  1  0
  8  9  2  0
  9 10  1  0
 10 11  1  0
  8 12  1  0
 13 12  1  6
 13 14  1  0
 14 15  2  0
 15 16  1  0
 16 17  1  0
 16 18  2  0
 18 19  1  0
 19 20  1  0
 18 21  1  0
 21 22  1  0
 22 23  1  0
 21 24  2  0
 24 25  1  0
 25 26  1  0
 27 26  1  6
  9  3  1  0
 27 13  1  0
 27  7  1  0
 24 14  1  0
M  END
>  <identifier>  (345) 
CNP0254282.2

>  <canonical_smiles>  (345) 
COC1=C(O)C=C2C(=C1OC)O[C@H]1C3=CC(O)=C(OC)C(OC)=C3OC[C@@H]21

>  <standard_inchi>  (345) 
InChI=1S/C19H20O8/c1-22-16-12(21)6-9-13-10(7-26-14(9)18(16)24-3)8-5-11(20)17(23-2)19(25-4)15(8)27-13/h5-6,10,13,20-21H,7H2,1-4H3/t10-,13-/m0/s1

>  <standard_inchi_key>  (345) 
OADZLSQNPZPBEF-GWCFXTLKSA-N

>  <name>  (345) 
nan

>  <iupac_name>  (345) 
(6~{a}~{R},11~{a}~{R})-3,4,9,10-tetramethoxy-6~{a},11~{a}-dihydro-6~{H}-benzofuro[3,2-c]chromene-2,8-diol

>  <annotation_level>  (345) 
4

>  <total_atom_count>  (345) 
47

>  <heavy_atom_count>  (345) 
27

>  <molecular_weight>  (345) 
376.36

>  <exact_molecular_weight>  (345) 
376.11582

>  <molecular_formula>  (345) 
C19H20O8

>  <alogp>  (345) 
2.74

>  <topological_polar_surface_area>  (345) 
95.84

>  <rotatable_bond_count>  (345) 
4

>  <hydrogen_bond_acceptors>  (345) 
8

>  <hydrogen_bond_donors>  (345) 
2

>  <hydrogen_bond_acceptors_lipinski>  (345) 
8

>  <hydrogen_bond_donors_lipinski>  (345) 
2

>  <lipinski_rule_of_five_violations>  (345) 
0

>  <aromatic_rings_count>  (345) 
2

>  <qed_drug_likeliness>  (345) 
0.84

>  <formal_charge>  (345) 
0

>  <fractioncsp3>  (345) 
0.37

>  <number_of_minimal_rings>  (345) 
4

>  <van_der_walls_volume>  (345) 
nan

>  <contains_sugar>  (345) 
False

>  <contains_ring_sugars>  (345) 
False

>  <contains_linear_sugars>  (345) 
False

>  <murcko_framework>  (345) 
O1c2ccccc2C3Oc4ccccc4C3C1

>  <np_likeness>  (345) 
1.85

>  <chemical_class>  (345) 
Isoflavonoids

>  <chemical_sub_class>  (345) 
Furanoisoflavonoids

>  <chemical_super_class>  (345) 
Phenylpropanoids and polyketides

>  <direct_parent_classification>  (345) 
Pterocarpans

>  <np_classifier_pathway>  (345) 
Shikimates and Phenylpropanoids

>  <np_classifier_superclass>  (345) 
Isoflavonoids

>  <np_classifier_class>  (345) 
Pterocarpan

>  <np_classifier_is_glycoside>  (345) 
False

>  <organisms>  (345) 
Swartzia laevicarpa

>  <collections>  (345) 
Latin America dataset|NuBBEDB|Super Natural II|WikiData Natural Products|ZINC NP

>  <dois>  (345) 
10.1016/0031-9422(80)83022-6

>  <synonyms>  (345) 
(6aR11aR)-28-Dihydroxy-34910-tetramehtoxypterocarpan

>  <cas>  (345) 
nan

$$$$

     RDKit          2D

 21 23  0  0  0  0  0  0  0  0999 V2000
    1.9071   -3.1913    0.0000 O   0  0  0  0  0  0  0  0  0  0  0  0
    1.4102   -1.7760    0.0000 C   0  0  0  0  0  0  0  0  0  0  0  0
   -0.0639   -1.4986    0.0000 C   0  0  0  0  0  0  0  0  0  0  0  0
   -0.5608   -0.0833    0.0000 C   0  0  0  0  0  0  0  0  0  0  0  0
   -2.0349    0.1940    0.0000 C   0  0  0  0  0  0  0  0  0  0  0  0
   -2.5318    1.6093    0.0000 C   0  0  0  0  0  0  0  0  0  0  0  0
   -4.0059    1.8867    0.0000 C   0  0  0  0  0  0  0  0  0  0  0  0
   -4.9832    0.7487    0.0000 C   0  0  0  0  0  0  0  0  0  0  0  0
   -6.4573    1.0261    0.0000 O   0  0  0  0  0  0  0  0  0  0  0  0
   -4.4863   -0.6666    0.0000 C   0  0  0  0  0  0  0  0  0  0  0  0
   -5.4636   -1.8045    0.0000 O   0  0  0  0  0  0  0  0  0  0  0  0
   -3.0122   -0.9439    0.0000 C   0  0  0  0  0  0  0  0  0  0  0  0
    0.4165    1.0546    0.0000 O   0  0  0  0  0  0  0  0  0  0  0  0
    1.8906    0.7773    0.0000 C   0  0  0  0  0  0  0  0  0  0  0  0
    2.8679    1.9152    0.0000 C   0  0  0  0  0  0  0  0  0  0  0  0
    4.3420    1.6379    0.0000 C   0  0  0  0  0  0  0  0  0  0  0  0
    5.3193    2.7759    0.0000 O   0  0  0  0  0  0  0  0  0  0  0  0
    4.8389    0.2226    0.0000 C   0  0  0  0  0  0  0  0  0  0  0  0
    3.8616   -0.9154    0.0000 C   0  0  0  0  0  0  0  0  0  0  0  0
    4.3585   -2.3307    0.0000 O   0  0  0  0  0  0  0  0  0  0  0  0
    2.3875   -0.6380    0.0000 C   0  0  0  0  0  0  0  0  0  0  0  0
  1  2  2  0
  2  3  1  0
  3  4  2  0
  4  5  1  0
  5  6  2  0
  6  7  1  0
  7  8  2  0
  8  9  1  0
  8 10  1  0
 10 11  1  0
 10 12  2  0
  4 13  1  0
 13 14  1  0
 14 15  2  0
 15 16  1  0
 16 17  1  0
 16 18  2  0
 18 19  1  0
 19 20  1  0
 19 21  2  0
 21  2  1  0
 12  5  1  0
 21 14  1  0
M  END
>  <identifier>  (346) 
CNP0279503.0

>  <canonical_smiles>  (346) 
O=C1C=C(C2=CC=C(O)C(O)=C2)OC2=CC(O)=CC(O)=C12

>  <standard_inchi>  (346) 
InChI=1S/C15H10O6/c16-8-4-11(19)15-12(20)6-13(21-14(15)5-8)7-1-2-9(17)10(18)3-7/h1-6,16-19H

>  <standard_inchi_key>  (346) 
IQPNAANSBPBGFQ-UHFFFAOYSA-N

>  <name>  (346) 
luteolin

>  <iupac_name>  (346) 
2-(3,4-dihydroxyphenyl)-5,7-dihydroxy-chromen-4-one

>  <annotation_level>  (346) 
5

>  <total_atom_count>  (346) 
31

>  <heavy_atom_count>  (346) 
21

>  <molecular_weight>  (346) 
286.24

>  <exact_molecular_weight>  (346) 
286.04774

>  <molecular_formula>  (346) 
C15H10O6

>  <alogp>  (346) 
2.28

>  <topological_polar_surface_area>  (346) 
111.13

>  <rotatable_bond_count>  (346) 
1

>  <hydrogen_bond_acceptors>  (346) 
6

>  <hydrogen_bond_donors>  (346) 
4

>  <hydrogen_bond_acceptors_lipinski>  (346) 
6

>  <hydrogen_bond_donors_lipinski>  (346) 
4

>  <lipinski_rule_of_five_violations>  (346) 
0

>  <aromatic_rings_count>  (346) 
3

>  <qed_drug_likeliness>  (346) 
0.51

>  <formal_charge>  (346) 
0

>  <fractioncsp3>  (346) 
0.00

>  <number_of_minimal_rings>  (346) 
3

>  <van_der_walls_volume>  (346) 
232.20

>  <contains_sugar>  (346) 
False

>  <contains_ring_sugars>  (346) 
False

>  <contains_linear_sugars>  (346) 
False

>  <murcko_framework>  (346) 
O1c2ccccc2CC=C1c3ccccc3

>  <np_likeness>  (346) 
1.50

>  <chemical_class>  (346) 
Flavonoids

>  <chemical_sub_class>  (346) 
Hydroxyflavonoids

>  <chemical_super_class>  (346) 
Phenylpropanoids and polyketides

>  <direct_parent_classification>  (346) 
5-hydroxyflavonoids

>  <np_classifier_pathway>  (346) 
Shikimates and Phenylpropanoids

>  <np_classifier_superclass>  (346) 
Flavonoids

>  <np_classifier_class>  (346) 
Flavones

>  <np_classifier_is_glycoside>  (346) 
False

>  <organisms>  (346) 
A new engineered strain of Saccharomyces cerevisiae AM109 [CYP712K1 CYP712K2 CYP712K3 UBC7]|Aaptos ciliata|Abelia chinensis|Abelmoschus esculentus|Abies amabilis|Abies excelsa|Abies nobilis|Abies pinsapo var. marocana|Abies veitchii|Abronia latifolia|Abrus Precatorius|Abrus precatorius|Abutilon pakistanicum|Acacia Leucophloea|Acacia aroma|Acacia aulacocarpa|Acacia caven|Acacia furcatispina|Acacia leucophloea|Acacia praecox|Acer carpinifolium|Acer triflorum|Achillea arabica|Achillea biebersteinii|Achillea cretica|Achillea grandifolia|Achillea holosericea|Achillea kotschyi|Achillea ligustica|Achillea millefolium|Achillea millefolium var. millefolium|Achillea nana|Achillea pannonica|Achillea pseudopectinata|Achillea santolina|Achillea sp.|Achillea tenuifolia|Achillea umbellata|Achlya heterosexualis|Achyrocline sp.|Achyrocline tomentosa|Aconitum kirinense|Aconitum leucostomum|Aconitum napellus|Acritopappus longifolius|Acrocomia sclerocarpa|Actinidia chinensis|Adenia globosa|Adenia volkensii|Adina sessilifolia|Adonis mongolica|African blue basil|Agarum cribrosum|Agastache rugosa|Agelas conifera|Ageratina altissima|Aglaia australiensis|Aglaia elaeagnoidea|Aglaia elliptica|Aglaia formosana|Aglaia grandis|Aglaia ignea|Agrimonia pilosa|Aguacate|Ainsliaea macrocephala|Aiphanes horrida|Ajuga decumbens|Ajuga lupulina|Albizia julibrissin|Albizia subdimidiata|Alkanna hirsutissima|Alkekengi officinarum var. franchetii|Allagopappus viscosissimus|Allium cepa|Allium myrianthum|Allium rotundum|Allium sativum|Allium schoenoprasum|Aloysia citrodora|Aloysia triphylla|Alternaria kikuchiana|Alternaria macrospora|Alternaria scirpicola|Alyssum lenense|Ambrosia bidentata|Ambrosia salsola|Ampelocera edentula|Amsinckia menziesii|Amsinckia tessellata|Amycolatopsis azurea|Amyris texana|Anabaena minutissima|Anagallis sp.|Ananas comosus|Anaphalis araneosa|Anaphalis lactea|Anarrhinum|Anarsia lineatella|Anastatica hierochuntica|Andrographis paniculata|Andropogon jwarancusa|Anemone flaccida|Anethum graveolens|Angelica acutiloba|Angelica keiskei|Angelica lucida|Angylocalyx braunii|Anisacanthus quadrifidus|Anisacanthus virgularis|Annona muricata|Anolis lineatopus|Antennaria dioica|Antennaria sp.|Anthelepis undulata|Anthemis auriculata|Anthemis pseudocotula|Antirrhinum majus|Aphis graminum|Aphis pini|Aphis sambuci|Apium Graveolens|Apium graveolens|Apium graveolens var. dulce|Apiumgraveolens|Aplidium orthium|Aplophyllum alberti-regelii|Aplysia vaccaria|Aplysina cauliformis|Apollonias barbujana|Apterostigma dentigerum|Aquilaria sinensis|Aquilegia ecalcarata|Aquilegia oxysepala|Arabidopsis thaliana|Arachis Hypogaea|Arachis hypogaea|Archidendron lucidum|Arctium lappa|Ardisia neriifolia|Argemone mexicana|Aria rostellata|Aristolochia elegans|Armillaria matsutake|Armoracia rusticana|Arnica amplexicaulis|Arnica chamissonis|Arnica longifolia|Arnica mollis|Arnica parryi|Artabotrys Uncinatus|Artabotrys hexapetalus|Artabotrys uncinatus|Artemisia Annua|Artemisia aethiopica|Artemisia alba|Artemisia alpina|Artemisia annua|Artemisia annua L.|Artemisia apiacea|Artemisia argyi|Artemisia assoana|Artemisia atrata|Artemisia austriaca|Artemisia biennis|Artemisia caucasica|Artemisia diffusa|Artemisia douglasiana|Artemisia dracunculus|Artemisia frigida|Artemisia giraldii|Artemisia gmelinii|Artemisia hanseniana|Artemisia herba-alba|Artemisia hispanica|Artemisia igniaria|Artemisia iwayomogi|Artemisia judaica|Artemisia klotzchiana|Artemisia kurramensis|Artemisia ludoviciana|Artemisia ludoviciana subsp. mexicana|Artemisia minor|Artemisia molinieri|Artemisia monosperma|Artemisia montana|Artemisia palustris|Artemisia princeps|Artemisia rehan|Artemisia rupestris|Artemisia santolina|Artemisia santolinifolia|Artemisia schmidtiana|Artemisia stechmanniana|Artemisia sylvatica|Artemisia tridentata|Artemisia vulgaris|Artemisia xerophytica|Arthraxon hispidus|Arum maculatum|Asimina parviflora|Aspalathus linearis|Aspergillus candidus|Aspergillus desertorum|Aspergillus fumisynnematus|Aspergillus mutabilis|Asphodelus fistulosus|Asphodelus ramosus|Asphodelus sp.|Aspidosperma subincanum|Aspilia paludosa|Asplenium normale|Aster himalaicus|Asteraceae|Astragalus bisulcatus|Astragalus coluteocarpus|Astragalus eremophilus|Astragalus gummifer|Astragalus kabadianus|Astragalus lagurus|Astragalus membranaceus|Astragalus mongholicus|Astragalus peregrinus|Astragalus pycnanthus|Astragalus quisqualis|Astragalus spinosus|Astragalus trimestris|Asyneuma argutum|Asyneuma campanuloides|Atractylodes lancea|Atractylodes macrocephala|Atraphaxis spinosa|Atuna racemosa|Aucuba chinensis|Aulosira fertilissima|Aurelia aurita|Avrainvillea longicaulis|Avrainvillea nigricans|Axinyssa variabilis|Baccharis angustifolia|Baccharis bigelovii|Baccharis gaudichaudiana|Baccharis microcephala|Baccharis neglecta|Baccharis nitida|Baccharis pteronioides|Baccharis trimera|Baccharoides anthelmintica|Baccharoides lasiopus|Bacopa crenata|Bacopa monniera|Bacopa monnieri|Bahiopsis deltoidea|Bahiopsis laciniata|Bahiopsis microphylla|Bahiopsis parishii|Bahiopsis reticulata|Bahiopsis tomentosa|Bahiopsis triangularis|Balbisia calycina|Ballota limbata|Ballota rupestris|Ballota undulata|Baptisia arachnifera|Baptisia australis|Baptisia bracteata|Baptisia calycosa|Baptisia cinerea|Baptisia lanceolata|Baptisia lecontei|Baptisia megacarpa|Baptisia nuttalliana|Baptisia perfoliata|Baptisia simplicifolia|Baptisia sp.|Baptisia sphaerocarpa|Baptisia tinctoria|Barringtonia racemosa|Bauhinia glauca|Beauveria felina|Begonia malabarica|Bellida graminea|Berberis floribunda|Berlinia tomentosa|Bertholletia excelsa|Beta vulgaris|Bhesa nitidissima|Biancaea decapetala|Bidens Tripartita|Bidens frondosa|Bidens parviflora|Bidens pilosa|Bidens tripartita|Biebersteinia multifida|Biebersteinia orphanidis|Bistorta manshuriensis|Bistorta officinalis|Bistorta vivipara|Bitis gabonica|Bitter bush|Blandfordia punicea|Blighia laurentii|Blumea Balsamifera|Blumea balsamifera|Blumea mollis|Boehmeria pannosa|Boenninghausenia albiflora|Bolboschoenus caldwellii|Bolboschoenus fluviatilis|Bonamia spectabilis|Bontia bontioides|Boronia ternata|Bothriocline ripensis|Bothrops jararaca|Botryosphaeria berengeriana|Botrytis cinerea|Brachychiton populneum|Brachyglottis bidwillii|Bracteantha viscosa|Brandisia hancei|Brassica carinata|Brassica napus|Brassica oleracea|Brassica oleracea var. botrytis|Brassica oleracea var. sabauda|Brassica oleracea var. viridis|Brassica rapa|Brassica rapa subsp. chinensis|Breea segeta|Brenneria rubrifaciens|Breynia rhamnoides|Brickellia vernicosa|Brosimum acutifolium|Broussonetia papyrifera|Brucea javanica|Bryonia alba|Bryum argenteum|Bryum pseudotriquetrum|Buddleja globosa|Buddleja officinalis|Buddleja variabilis|Bulbine capitata|Bulbocodium vernum|Bunias orientalis|Burchardia multiflora|Buxus hyrcana|Buxus microphylla|Cadia purpurea|Caesalpinia crista|Caesalpinia gilliesii|Caesalpinia tinctoria|Cajanus cajan|Calanticaria greggii|Calea lantanoides|Calea megacephala|Calibrachoa parviflora|Calliandra eriophylla|Callicarpa japonica|Callicarpa nudiflora|Calycanthus floridus|Calycotome villosa|Camchaya loloana|Camellia semiserrata|Camellia sinensis|Camonea bifida|Camonea pilosa|Camonea umbellata|Campanula armena|Campanula pendula|Campanula persicifolia|Campanula rapunculus|Canarium album|Canna x generalis|Capparis himalayensis|Capsicum|Capsicum annum L.|Capsicum annuum|Capsicum_baccatum|Caragana spinosa|Carallia brachiata|Cardiospermum halicacabum|Carduus acanthoides|Carduus nutans|Carex appressa|Carex folliculata|Carex fraseriana|Carica dodecaphylla|Carica papaya|Carolina Locust|Carpha alpina|Carpha glomerata|Carpha nivicola|Carpobrotus edulis|Carthamus lanatus|Carthamus tinctorius|Carya illinoinensis|Caryopteris tangutica|Casearia membranacea|Cashew|Castanea crenata|Castanea vesca|Catananche caerulea|Catunaregam tomentosa|Caustis blakei|Caustis dioica|Caustis flexuosa|Caustis recurvata|Ceanothus velutinus|Cedronella canariensis|Centaurea alexandrina|Centaurea bracteata|Centaurea bracteata Scop.|Centaurea collina|Centaurea cyanus|Centaurea deflexa|Centaurea huber-morathii|Centaurea maculosa|Centaurea nigrescens|Centaurea orphanidea|Centaurea pseudoscabiosa|Centaurea raphanina|Centaurea scoparia|Centaurea sphaerocephala|Centaurea urvillei|Centrolobium tomentosum|Centromadia fitchii|Cephalaria ambrosioides|Cephalaria gigantea|Cephalaria procera|Cephalonomia gallicola|Ceratophyllum submersum|Cereus pachanoi|Chaerophyllum sp.|Chamaecrista absus|Chamaecrista glandulosa var. glandulosa|Chamaecrista mimosoides|Chamaecrista nictitans|Chamaemelum nobile|Chamaemelum sp.|Chamomilla recutita|Chamomilla sp.|Chamomilla suaveolens|Chavica betle|Chelidonura fulvipunctata|Cheniella glauca|Chiliadenus candicans|Chlorociboria aeruginascens|Chlorophytum borivilianum|Chondrilla juncea|Chondrilla nucula|Chondrodendron tomentosum|Choriaster granulatus|Chorizandra cymbaria|Chorizandra sphaerocephala|Chromolaena odorata|Chroogomphus helveticus|Chrozophora brocchiana|Chrozophora obliqua|Chrozophora plicata|Chrozophora rottleri|Chrozophora tinctoria|Chrozophora verbascifolia|Chrysanthemum Indicum|Chrysanthemum Morifolium|Chrysanthemum boreale|Chrysanthemum cineraiaefolium|Chrysanthemum indicum|Chrysanthemum lavandulifolium|Chrysanthemum morifolium|Chrysanthemum sinense|Chrysanthemum uliginosum|Chrysanthemum x morifolium|Chrysitrix distigmatosa|Chrysocoma peduncularis|Chrysosporum ovalisporum|Chrysothamnus viscidiflorus|Chrysotila lamellosa|Cibotium barometz|Cicer flexuosum|Cicer mogoltavicum|Cicerbita plumieri|Cichorium intybus|Cimex lectularius|Cinnamomum kotoense|Cinnamomum philippinense|Cirsium carolinianum|Cirsium japonicum|Cirsium oleraceum|Cirsium rhinoceros|Cirsium setosum|Cirsium sp.|Cirsium wallichii|Cis punctifer|Cistus laurifolius|Citrullus lanatus|Citrullus lanatus subsp. vulgaris|Citrus grandis|Citrus limon|Citrus paradisi|Citrus reticulata|Citrus rugulosa|Citrus sinensis|Citrus tangerina|Citrus × deliciosa|Citrus × paradisi|Cladiella elongata|Cladiella krempfi|Cladrastis platycarpa|Clathrotropis brachypetala|Cleidion brevipetiolatum|Cleistopholis staudtii|Clematis hexapetala|Cleome droserifolia|Clerodendrum bungei|Clinopodium laxiflorum|Clinopodium umbrosum|Clione antarctica|Clostridium butyricum|Cocos nucifera|Codonopsis clematidea|Codonopsis lanceolata|Codonopsis ovata|Codonopsis tangshen OLIV.|Coffea|Colchicum bornmuelleri|Colchicum bulbocodium|Colchicum kotschyi|Colchicum kurdicum|Colchicum manissadjianii|Colchicum ritchii|Colchicum robustum|Colchicum soboliferum|Colchicum speciosum|Coleus parvifolius|Colletotrichum gloeosporioides|Collinsonia japonica|Colocasia esculenta|Comanthosphace stellipila|Commelina communis|Coniophora puteana|Conoclinium coelestinum|Conospermum teretifolium|Conus mus|Conyza bonariensis|Conyza canadensis|Conyza japonica|Coprinopsis atramentaria|Coprosma areolata|Corchorus depressus|Cordia leucocephala|Cordyline indivisa|Coreopsis fasciculata|Coreopsis grandiflora|Coriandrum sativum|Coronilla cretica|Coronophora gregaria|Cortinarius orellanus|Corydalis calliantha|Corydalis cornuta|Corydalis thalictrifolia|Corylus|Corynascus setosus|Cosmos sulphureus|Cotula cinerea|Cotula cinereum|Crataegus laevigata|Crataegus microphylla|Crataegus monogyna|Crataegus oxyacantha L. (1753)|Crataegus sp.|Crepidomanes minutum|Crepis divaricata|Crepis foetida|Crepis pygmaea|Crinum defixum|Crocus minimus|Crotalaria Pallida|Crotalaria pallida|Crotalus atrox|Croton gratissimus|Cryptocarya aschersoniana|Cryptocodon monocephalus|Cryptomeria japonica|Cucumis melo|Cucumis myriocarpus|Cucumis sativus|Cucurbita pepo|Cudrania tricuspidata|Cuminum cyminum|Cuminum sp.|Cunonia macrophylla|Cuphea carthagenensis|Cupressus torulosa|Curculigo pilosa|Cyanostegia angustifolia|Cyanthillium cinereum|Cyanthillium patulum|Cyathochaeta diandra|Cyclea barbata|Cyclopia intermedia|Cyclopia sessiliflora|Cyclopia subternata|Cydonia|Cylindrospermum muscicola|Cymbopogon citratus|Cymbopogon sp.|Cymodocea nodosa|Cynara cardunculus|Cynara cardunculus scolymus|Cynara cardunculus var. scolymus|Cynara cornigera|Cynara humilis|Cynara scolymus|Cynara sp.|Cynometra lujae|Cyperus alopecuroides|Cyperus congestus|Cyperus conglomeratus|Cyperus enervis|Cyperus gunnii|Cyperus iria|Cyperus leptocarpus|Cyperus longus|Cyperus microcephalus|Cyperus rotundus|Cyperus scariosus|Cyperus sphaeroideus|Cyphostemma digitatum|Cyrtocymura scorpioides|Cytisophyllum sessilifolium|Cytisus eriocarpus|Cytisus hirsutus|Cytisus proliferus|Cytisus ratisbonensis|Cytisus striatus|Dacrydium biforme|Dactylorhiza viridis|Dalbergia nigra|Dalbergia odorifera|Dalbergia paniculata|Dalbergia sericea|Dalbergia stipulacea|Dalea purpurea|Daphne aurantiaca|Daphne feddei|Daphne genkwa|Daphne gnidium|Daphne laureola|Daphne pedunculata|Daphne sp.|Daphniphyllum angustifolium|Daphniphyllum paxianum|Daucus carota|Deinandra arida|Deinandra corymbosa|Deinandra fasciculata|Deinandra greeneana|Deinandra halliana|Deinandra kelloggii|Deinandra lobbii|Deinandra minthornii|Deinandra pallida|Deinandra paniculata|Deinandra pentactis|Deinandra streetsii|Delphinium campylocentrum|Delphinus globiceps|Dendranthema morifolium|Dendranthema sp.|Dendrobates tinctorius|Dendrobium aurantiacum|Dendrobium candidum|Dendrobium chryseum|Dendroctonus frontalis|Dendronephthya griffini|Dendroviguiera adenophylla|Dendroviguiera eriophora|Dendroviguiera insignis|Dendroviguiera pringlei|Dendroviguiera puruana|Dendroviguiera quinqueradiata|Dendroviguiera sphaerocephala|Desmodium styracifolium|Desmos cochinchinensis|Dialium excelsum|Dianthus caryophyllus|Dianthus deltoides|Dicliptera roxburghiana|Dicoma anomala|Dicranoloma robustum|Didemnum inarmatum|Digitalis chalcantha|Digitalis ciliata|Digitalis ferruginea|Digitalis grandiflora|Digitalis lanata|Digitalis trojana|Dinophysis fortii|Dioscorea gracillima|Dioscorea tokoro|Dioscoreophyllum cumminsii|Diospyros assimilis|Diospyros virginiana|Dipentodon sinicus|Diplacus longiflorus|Diplodia natalensis|Diplophyllum taxifolium|Diplopterygium glaucum|Diplotaxis acris|Dipterocarpus dyeri|Dipteryx odorata|Disepalum plagioneurum|Dolabella californica|Dolichandra unguis-cati|Dolichandrone falcata|Dolichospermum viguieri|Doronicum grandiflorum|Dorstenia lindeniana|Dracocephalum kotschyi|Dracocephalum multicaule|Dracocephalum tanguticum|Drimia sanguinea|Drimys sp.|Drosera indica|Drummondita hassellii|Dryocosmus kuriphilus|Drypetes roxburghii|Dumortiera hirsuta|Dunalia solanacea|Dysidea tupha|Dysophylla stellata|Dysosma pleianthum|Dystaenia takesimana|Echinacea pallida|Echinochloa esculenta|Echinops ritro|Echium rubrum|Eclipta prostrata|Eclipta sp.|Ehretia ovalifolia|Eichhornia crassipes|Elaeodendron alluaudianum|Eleocharis brassii|Eleocharis dietrichiana|Eleocharis geniculata|Eleocharis minuta|Eleocharis pusilla|Eleocharis sphacelata|Elephantopus hirtiflorus|Elsholtzia Rugulosa|Elsholtzia bodinieri|Elsholtzia ciliata|Elsholtzia rugulosa|Elsholtzia rugulosa Hemsl.|Embelia parviflora|Embelia schimperi|Encelia asperifolia|Encelia californica|Encelia laciniata|Encelia stenophylla|Encelia ventorum|Enrichment culture|Entada africana|Entada phaseoloides|Entada polystachya|Entada rheedei|Enterococcus faecalis|Entomophthora virulenta|Ephedra distachya|Ephedra sinica|Epidendrum rigidum|Epilachna varivestis|Epilobium hirsutum|Epimedium acuminatum|Epimedium brevicornu|Epimedium brevicornum|Epimedium coactum|Epimedium davidii|Epimedium dolichostemen|Epimedium dolichostemon|Epimedium fargesii|Epimedium franchetii|Epimedium grandiflorum|Epimedium hunanense|Epimedium koreanum|Epimedium leishanense|Epimedium leptorrhizum|Epimedium membranaceum|Epimedium myrianthum|Epimedium pubescens|Epimedium sagittatum|Epimedium sempervirens|Epimedium truncatum|Epimedium wushanense|Epimedium zhenbaense|Epimedium zhushanense|Episcia cupreata|Equisetum arvense|Equisetum sp.|Eremanthus elaeagnus|Eremanthus seidelii|Eremochloa ophiuroides|Eremophila serrulata|Eria anomala|Ericameria laricifolia|Erigeron annuus|Erigeron bonariensis|Erigeron breviscapus|Erigeron canadensis|Erioderma tomentosum|Eriodictyon californicum|Eriodictyon sp.|Erycibe expansa|Erylus trisphaerus|Erymophyllum tenellum|Erysimum canescens|Erysimum cheiranthoides|Erysimum leptophyllum|Erysimum siliculosum|Erythranthe cardinalis|Erythrina melanacantha|Erythrophleum suaveolens|Esenbeckia leiocarpa|Eskemukerjea megacarpum|Espeletia lutescens|Ethulia vernonioides|Etlingera elatior|Eucalyptus maideni|Eucalyptus maidenii|Eucalyptus resinifera|Eupatorium album|Eupatorium altissimum|Eupatorium areolare|Eupatorium argentinum|Eupatorium hyssopifolium|Eupatorium lindleyanum|Eupatorium rotundifolium|Eupatorium sessilifolium|Euphorbia|Euphorbia amygdaloides|Euphorbia clarkeana|Euphorbia condylocarpa|Euphorbia decipiens|Euphorbia hirta|Euphorbia humifusa|Euphorbia lunulata|Euphorbia nematocypha|Euphorbia polycaulis|Euphorbia sapinii|Euphorbia segetalis|Euphorbia sieboldiana|Euphrasia genargentea|Euphrasia sp.|Euphrasia stricta|Euplotes vannus|Eurycoma harmandiana|Euryspongia rosea|Eutrema scapiflorum|Eutrochium fistulosum|Eutrochium maculatum var. maculatum|Evandra aristata|Evernia vulpina|Exostema mexicanum|Fagara chiloperone|Fagara naranjillo|Fagopyrum acutatum|Fagopyrum cymosum|Fagopyrum dibotrys|Faramea salicifolia|Farlowia mollis|Felimida luteorosea|Ferula assa-foetida|Ficus carica|Ficus cordata|Ficus glumosa|Ficus pumila|Filicium decipiens|Filipendula ulmaria|Fimbristylis bisumbellata|Fimbristylis dichotoma|Fimbristylis macrantha|Fimbristylis oxystachya|Fimbristylis pachyptera|Fimbristylis squarrulosa|Fimbristylis tetragona|Flindersia xanthoxyla|Foeniculum vulgare|Formica fusca|Fouquieria splendens|Fragaria|Fragaria vesca|Fragaria x ananassa|Fridericia chica|Fridericia platyphylla|Fritillaria cirrhosa|Fuligo candida|Fumaria indica|Fumaria micrantha|Fusarium roseum|Gahnia aspera|Gahnia deusta|Gahnia filifolia|Gahnia microstachya|Gahnia radula|Gahnia sieberiana|Gahnia subaequiglumis|Gaillardia megapotamica|Gaillardia tontalensis|Galega officinalis|Galeopsis bifida|Galeopsis tetrahit|Galium dasypodum|Galium mollugo|Galium sp.|Gambierdiscus toxicus|Gamochaeta malvinensis|Garcinia hombroniana|Garcinia scortechinii|Gardenia imperialis|Gardenia tubifera|Gastrophysa cyanea|Genista acanthoclada|Genista cadasonensis|Genista carpetana|Genista corsica|Genista depressa|Genista dracunculoides|Genista ferox|Genista januensis|Genista lydia|Genista morisii|Genista nissana|Genista obtusiramea|Genista pilosa|Genista sagittalis|Genista scorpius|Genista sessilifolia|Genista sp.|Genista spartioides|Genista stenopetala|Genista teretifolia|Genista tinctoria|Genista transcaucasica|Genista triacanthos|Genista versicolor|Gentiana arisanensis|Gentianopsis paludosa|Ginkgo biloba|Ginkgo sp.|Glebionis coronaria|Glebionis coronarium|Glechoma grandis|Glechoma hederacea|Glechoma longituba|Gleditsia australis|Gleditsia caspica|Gleditsia triacanthos|Globularia alypum|Globularia bisnagarica|Globularia davisiana|Globularia punctata|Glossocardia bidens|Glossogyne tenuifolia|Glycyrrhiza uralensis|Gmelina asiatica|Gnaphalium oxyphyllum|Gochnatia hypoleuca|Gomesa radicans|Gonocytisus angulatus|Gonzalezia hypargyrea|Gracilaria textorii|Grewia rothii|Grindelia nana|Grindelia scorzonerifolia|Guatteria boliviana|Gutierrezia sarothrae|Gymnanthemum amygdalinum|Gymnocalycium schickendantzii|Gymnocolea inflata|Gymnoschoenus anceps|Gymnoschoenus sphaerocephalus|Gymnosperma glutinosum|Gynandropsis gynandra|Hakea saligna|Halenia corniculata|Halenia elliptica|Haliclona cribricutis|Halobacillus litoralis|Halophila johnsonii|Halopitys incurvus|Halostachys belangeriana|Halostachys caspica|Haloxylon salicornicum|Hapalosiphon delicatulus|Haplopappus rengifoanus|Haplophyllum obtusifolium|Haplophyllum ramosissimum|Hazardia squarrosa|Hazunta membranacea|Hedeoma multiflora|Helianthopsis microphylla|Helichrysum ambiguum|Helichrysum arenarium|Helichrysum armenium|Helichrysum cephaloideum|Helichrysum coriaceum|Helichrysum forskahlii|Helichrysum lepidissimum|Helichrysum mixtum|Helichrysum stoechas|Helichrysum tenuifolium|Helleborus multifidus|Hemionitis japonica|Hendersonula toruloidea|Hesperis matronalis|Hesperolaburnum platycarpum|Heterochordaria abietina|Hieracium coloriscapum|Hieracium guentheri-beckii|Hieracium gymnocephalum|Hieracium naegelianum|Hieracium rotundatum|Holocalyx balansae|Hopea utilis|Humata pectinata|Humulus japonicus|Hydnocarpus pentandrus|Hydnocarpus setumpul|Hydnocarpus sp.|Hydrangea aspera|Hydrangea serrata|Hydrocotyle ranunculoides|Hymenaea oblongifolia var. palustris|Hymeneae palustris|Hymenoxys insignis|Hyoseris radiata|Hyparrhenia hirta|Hypericum adenotrichum|Hypericum balearicum|Hypericum brasiliense|Hypericum maculatum|Hypericum oblongifolium|Hypericum perforatum|Hypericum reflexum|Hypericum revolutum|Hypericum sampsonii|Hypericum scabrum|Hypericum sp.|Hypericum styphelioides|Hypsizygus ulmarius|Hyssopus officinalis|Iberis sempervirens|Ilex belizensis|Ilex leucoclada|Ilex sp.|Ilyonectria destructans|Impatiens edgeworthii|Indigofera spicata|Inocybe geophylla|Inula britannica|Inula japonica|Inula montana|Inula salsoloides|Inula sp.|Ipomoea aquatica|Ipomoea batatas|Ipomoea cairica|Iris pallasii|Isodon lophanthoides|Isodon oresbius|Isodon rubescens|Isolepis humillima|Isolepis producta|Isolepis sepulcralis|Isoplexis chalcantha|Itea parviflora|Ixeridium laevigatum|Ixeris debilis|Ixora coccinea|Iyengaria stellata|Jacaranda decurrens|Jackiella javanica|Jacmaia incana|Jamesoniella colorata|Jania rubens|Jasione montana|Jasminum grandiflorum|Jasonia candicans|Jatropha macrorhiza|Jatropha multifida|Jugo|Juncus Effusus|Juncus effusus|Juniperus brevifolia|Juniperus chinensis|Juniperus communis|Juniperus procera|Kaempferia rotunda|Kalanchoe ceratophylla|Kalanchoe laciniata|Kalanchoe pinnata|Kali turgidum|Kalmia latifolia|Kniphofia pumila|Koelpinia linearis|Koelreuteria henryi|Komagataeibacter hansenii|Kopsia grandifolia|Kopsia hainanensis|Kummerowia Striata|Kummerowia striata|Lactarius spinosulus|Lactuca acanthifolia|Lactuca aculeata|Lactuca altaica|Lactuca formosana|Lactuca indica|Lactuca perennis|Lactuca quercina|Lactuca saligna|Lactuca sativa|Lactuca serriola|Lactuca tatarica|Lactuca tenerrima|Lactuca triquetra|Lactuca viminea|Lactuca virosa|Laggera alata|Laggera pterodonta|Lagotis yunnanensis|Laguncularia racemosa|Lantana montevidensis|Lapsana communis|Lasianthus fordii|Lathyrus laxiflorus|Lathyrus pratensis|Lathyrus sativus|Latrunculia magnifica|Launaea arborescens|Launaea aspleniifolia|Lavandula dentata|Lavandula sp.|Lawsonia inermis|Leandra lacunosa|Lecanicillium muscarium|Lecanora lividocinerea|Ledebouria floribunda|Ledebouria socialis|Leiothrix curvifolia|Lemaireocereus longispinus|Lens culinaris|Leontodon autumnalis|Leontodon taraxacoides|Leonurus japonicus|Lepidium graminifolium|Lepidium sativum|Lepidosperma flexuosum|Lepidosperma forsythii|Lepidosperma pruinosum|Lepidosperma tenue|Lepidosperma ustulatum|Lepironia articulata|Lepisorus ussuriensis|Leptothorax acervorum|Lespedeza bicolor|Lespedeza virgata|Leucanthemum maximum|Leucanthemum sp.|Leucanthemum vulgare|Leucocyclus formosus|Leucosceptrum|Leuzea centauroides|Levisticum officinale|Ligularia cymbulifera|Ligustrum japonicum|Ligustrum lucidum|Ligustrum vulgare|Lilium umbellatum|Limonium axillare|Limonium sinense|Linaria macroura|Linum sp.|Lipocarpha microcephala|Lippia carviodora|Lippia graveolens|Lippia origanoides|Lippia sidoides|Lippia sp.|Liriodendron tulipifera|Litsea salicifolia|Livistona australis|Lobelia chinensis|Lobophytum durum|Lobophytum laevigatum|Lomatium nuttallii|Lomatogonium rotatum|Lomelosia olgae|Lonchocarpus atropurpureus|Lonicera Japonica|Lonicera confusa|Lonicera fulvotomentosa|Lonicera hypoglauca|Lonicera japonica|Lonicera macrantha|Lonicera macranthoides|Lonicera microphylla|Lophanthus chinensis|Lophira alata|Lorandersonia pulchella|Lotus pedunculatus|Lotus uliginosus|Luculia pinceana|Luetkea pectinata|Luffa aegyptiaca|Luma chequen|Lunularia cruciata|Lupinus arboreus|Lupinus luteus|Lupinus polyphyllus|Lupinus sericeus|Luzula multiflora|Lychnis flos-cuculi L.|Lychnophora ericoides|Lychnophora pohlii|Lycogala epidendrum|Lycopodium sp.|Lycopus asper|Lycopus europaeus|Lycopus lucidus|Lysiana subfalcata|Lysimachia christinae|Lysimachia fordiana|Lythrum salicaria|Macadamia|Macadamia ternifolia|Macaranga peltata|Macaranga vedeliana|Machilus philippinensis|Madia anomala|Madia citrigracilis|Madia gracilis|Madia sativa|Magnolia montana|Malagasy connaraceous|Mallotus discolor|Malus domestica|Malus pumila|Mangifera indica|Marasmiellus troyanus|Marchantia paleacea|Marchantia polymorpha|Marchantia sp.|Marine actinobacterium|Markhamia stipulata|Marrubium vulgare|Matricaria chamomilla|Matricaria discoidea|Matricaria matricarioides|Maytenus chuchuhuasha|Maytenus laevis|Meadow vetchling|Meconopsis quintuplinervia|Medicago Sativa|Medicago coronata|Medicago laciniata|Medicago littoralis|Medicago marina|Medicago minima|Medicago orbicularis|Medicago sativa|Medicago strasseri|Meehania urticifolia|Melaleuca cuticularis|Melaleuca uncinata|Melanargia galathea|Melanothamnus afaqhusainii|Melia azedarach|Melissa officinalis|Mentha longifolia|Mentha piperita|Mentha pulegiformis|Mentha pulegium|Mentha sp.|Mentha spicata|Mentha suaveolens|Merendera sobolifera|Merremia tridentata|Mesembryanthemum expansum|Mesomelaena stygia|Mesomelaena tetragona|Meum sp.|Miconia lacunosa|Micromeria cristata|Micromeria croatica|Micromeria graeca|Micromeria juliana|Micromeria parviflora|Micromeria pseudocroatica|Microtoena prainiana|Mikania hoehnei|Mikania periplocifolia|Mimosa diplotricha|Mimosa invisa|Mimulus cardinalis|Mimusops caffra|Mirabilis viscosa|Modiolus demissus|Mollugo spergula|Monascus pilosus|Monascus purpureus|Monomeria barbata|Monomorium pharaonis|Monsonia senegalensis|Morella rubra|Morinda morindoides|Morus alba|Morus bombycis|Mosla chinensis|Mosla dianthera|Mucuna membranacea|Muricea austera|Mus striatus|Musa|Mycena fagetorum|Myoporum bontioides|Myoporum tenuifolium|Myrica nana|Myrsine capitellata|Myrtopsis novae-caledoniae|Myxococcus stipitatus|Nanuza plicata|Narthecium asiaticum|Nasturtium officinale|Nelumbo nucifera|Nematolepis phebalioides|Neolamarckia cadamba|Neolentinus lepideus|Neophaeosphaeria quadriseptata|Nepeta cataria|Nepeta tenuifolia|Nepeta velutina|Nephroma australe|Nerine bowdenii|Newbouldia laevis|Nicotiana affinis|Nostoc spongiaeforme|Notholaena californica|Notobasis syriaca|Ocimum americanum|Ocimum americanum L.var.pilosum (Willd.) Paton|Ocimum basilicum L.|Ocimum gratissimum|Ocimum tenuiflorum|Ocimum x citriodorum Vis.|Odontocline hollickii|Oecophylla smaragdina|Olea europaea|Olea sp.|Onobrychis kachetica|Ononis angustissima|Ononis sp.|Ononis spinosa|Onopordum acanthium|Onopordum acaulon|Onopordum boissierianum|Onopordum corymbosum|Onopordum laconicum|Onopordum macrocanthum|Onopordum myriacanthum|Onosma heterophylla|Oophaga pumilio|Ophioglossum petiolatum|Ophiopogon planiscapus|Orbivestus cinerascens|Orbivestus leopoldii|Oreopteris quelpaertensis|Oricia gabonensis|Origanum majoricum|Origanum vulgare|Ornithogalum tenuifolium|Oroxylum indicum|Orthosiphon spicatus|Oryza sativa|Oscillatoria princeps|Osmanthus fragrans|Osmanthus heterophyllus|Osmanthus ilicifolius|Osmanthus × fortunei|Osmorhiza aristata|Osmundaria colensoi|Osteospermum fruticosum|Osteospermum muricatum|Othonna sedifolia|Oxytropis falcata|Ozoroa insignis|Pachyrhizus tuberosus|Paeonia lactiflora|Paeonia rockii|Pajanelia multijuga|Pallenis hierochuntica|Panax innovans|Pancratium sickenbergeri|Pangium edule|Panzeria canescens|Panzerina lanata|Papaver macrostomum|Papaver rhoeas|Papaver tatricum|Parablechnum minus|Parastrephia lepidophylla|Parkinsonia Aculeata|Parkinsonia aculeata|Parmelia metastrigosa|Parnassius phoebus|Paronychia kapela|Paspalum conjugatum|Passiflora edulis|Passiflora foetida|Passiflora incarnata|Passiflora palmeri|Passiflora sanguinolenta|Passiflora sexflora|Pastinaca sativa|Patrinia scabiosifolia|Patrinia villosa|Paulownia coreana|Paulownia tomentosa|Pauridiantha callicarpoides|Pecten islandicus|Pedalium murex|Pedicularis longiflora|Pedicularis rex|Pelargonium sidoides|Peltogyne pubescens|Penicillium cinerascens|Penicillium herquei|Penicillium meleagrinum|Penicillium puberulum|Penstemon gentianoides|Penstemon secundiflorus|Penstemon serrulatus|Pentemon gentianoides HBK|Peperomia vulcanica|Pericome caudata|Perilla|Perilla frutescens|Perilla frutescens var. crispa|Perilla frutescens var. frutescens|Perilla sp.|Peritassa compta|Perknaster fuscus|Persea indica|Persea mexicana|Persicaria orientalis|Persicaria sp.|Pestalotiopsis guepinii|Petroselinum crispum|Petrosimonia monandra|Phaeolus schweinitzii|Phaseolus vulgaris|Phebalium ambiens|Phebalium whitei|Phedimus kamtschaticus|Phegopteris bukoensis|Phellinus igniarius|Phillyrea latifolia|Phlogacanthus thyrsiflorus|Phlomis crinita|Phlomis herba-venti|Phlomis nissolii|Phlomoides rotata|Phlomoides tuberosa|Phoenix dactylifera|Phoma medicaginis|Phomopsis leptostromiformis|Phora velutina|Phormia regina|Phycopsis terpnis|Phyllanthus emblica|Phyllanthus meghalayensis|Phyllocladus aspleniifolius|Phyllocladus hypophyllus|Phyllocladus toatoa|Phyllocladus trichomanoides|Phyllocladus trichomanoides var. alpinus|Phyllospongia dendyi|Physalis alkekengi|Physalis alkekengi var. franchetii|Physalis edulis|Physalis lagascae|Physalis minima|Phytolacca acinosa|Phytolacca thyrsiflora|Picris cyanocarpa|Picris kamtschatica|Picris radicata|Pimpinella anisum|Pimpinella sp.|Pinguicula sp.|Pinus|Pinus brutia var. pityusa|Pinus flexilis|Pinus mugo|Pinus picea|Piper aequale|Piper arboreum|Piper lanceifolium|Piper regnellii|Pisaster giganteus|Pistacia vera|Pistia stratiotes|Pisum sativum|Pityrogramma ebenea|Planchonia grandis|Plantago Major|Plantago bellardi|Plantago lagopus|Plantago major|Plathymenia reticulata|Platycarya strobilacea|Platycladus orientalis|Platycodon grandiflorum|Platycodon grandiflorus|Platypodium elegans|Plectranthus forsteri|Plectranthus nummularius|Pleurotus japonicus|Plicanthus hirtellus|Pneumatospora obcoronata|Podocarpus fasciculus|Podocarpus macrophyllus|Podocarpus urbanii|Podocytisus caramanicus|Pogostemon cablin|Pogostemon stellatus|Polygonum aviculare|Polygonum sp.|Polylepis besseri|Polylepis incana|Polyphaga sinensis|Polyporus cinnabarinus|Polyzonium rosalbum|Pongamia pinnata|Porophyllum ruderale|Portulaca oleracea|Pouzolzia occidentalis|Premna resinosa|Premna schimperi|Premna serratifolia|Premna tomentosa|Primula hirsuta|Primula sinensis|Prosopis affinis|Prosopis alba|Prosopis argentina|Prosopis chilensis|Prosopis cineraria|Prosopis flexuosa|Prosopis glandulosa|Prosopis juliflora|Prosopis laevigata|Prosopis nigra|Prosopis reptans|Prosopis ruscifolia|Prosopis sericantha|Prosopis spicigera|Prosopis strombulifera|Prosopis velutina|Prosopis vinalillo|Prunella Vulgaris|Prunella vulgaris|Prunus armeniaca|Prunus avium|Prunus cerasoides|Prunus cerasus|Prunus domestica|Prunus dulcis|Prunus persica|Pseudocalymma elegans|Pseudoceratina arabica|Pseudodictamnus hirsutus|Pseudodistoma arborescens|Pseudognaphalium affine|Pseudomonas mendocina|Pseudostellaria heterophylla|Pseuduvaria indochinensis|Psiadia dentata|Psilostrophe cooperi|Psilotum nudum|Psychotria serpens|Pteridium esculentum|Pteris decurrens|Pteris multifida|Pteris setuloso-costulata|Pterocarpus officinalis|Pterocaulon polystachyum|Pterocaulon redolens|Pterodon emarginatus|Pterolobium hexapetalum|Pterospermum semisagittatum|Pueraria montana var. lobata|Pulsatilla campanella|Punica Granatum|Punica granatum|Punica granatum L.|Pycnandra acuminata|Pyrenophora lolii|Pyrethrum corymbosum|Pyrrhopappus carolinianus|Pyrus communis|Radianthus kuekenthali|Ranunculus asiaticus|Ranunculus peltatus|Ranunculus sieboldii|Ranzania japonica|Raoulia australis|Raoulia glabra|Raoulia hookeri|Raoulia monroi|Raoulia petriensis|Raoulia subsericea|Raoulia tenuicaulis|Raphanus sativus|Raphanus sativus subsp. niger|Raphanus sativus var. sativus|Raputia praetermissa|Rathayibacter rathayi|Reedia spathacea|Rehmannia sp.|Relhania corymbosa|Remirea maritima|Reseda luteola|Reseda muricata|Reseda muricata C.Presl.|Reseda sp.|Retama raetam|Rhabdonia verticillata|Rhagadiolus stellatus|Rhapis excelsa|Rhaponticum carthamoides|Rheedia acuminata|Rheum qinlingense|Rhinanthus glaber|Rhinella marina|Rhizobium leguminosarum|Rhizogonium distichum|Rhodiola rosea|Rhodiola sachalinensis|Rhodobacter sphaeroides|Rhodococcus erythropolis|Rhododendron dauricum|Rhododendron ferrugineum|Rhus vulgaris|Rhynchosia suaveolens|Rhynchospora brownii|Rhynchospora heterochaeta|Rhynchospora rubra|Ribes nigrum|Ribes rubrum|Ribes uva-crispa|Rodgersia podophylla|Roemeria carica|Rosa agrestis|Rosmarinus officinalis|Rosmarinus sp.|Rosulabryum capillare|Rothmaleria granatensis|Rothmannia wittii|Rubus|Rubus idaeus|Rumex acetosella|Rumex nepalensis|Rumex pictus|Rumex vesicarius|Ruta microcarpa|Sabadilla officinalis|Sagittaria sagittifolia|Salix acutifolia|Salix arbusculoides|Salix babylonica|Salix caprea|Salix denticulata|Salix gilgiana|Salix lindleyana|Salix purpurea|Salix sp.|Salpiglossis sinuata|Salvia aegyptiaca|Salvia albimaculata|Salvia ballotiflora|Salvia candelabrum|Salvia dorrii|Salvia fruticosa|Salvia horminum|Salvia hypoleuca|Salvia lavandulaefolia|Salvia lavandulifolia|Salvia limbata|Salvia miltiorrhiza|Salvia montbretii|Salvia nemorosa|Salvia nubicola|Salvia nutans|Salvia officinalis|Salvia palaestina|Salvia pedicellata|Salvia pinnata|Salvia plebeia|Salvia pratensis|Salvia sclarea|Salvia seravschanica|Salvia sp.|Salvia staminea|Salvia stenophylla|Salvia tomentosa|Salvia triloba|Salvia urolepis|Salvia yosgadensis|Salvia × sylvestris|Samadera indica|Samuela carnerosana|Sandersonia aurantiaca|Santolina pinnata|Sarcophyton elegans|Sargassum thunbergii|Satureja atropatana|Satureja cuneifolia|Saussurea amara|Saussurea involucrata|Saussurea medusa|Saussurea superba|Savoy cabbage|Scabiosa succisa|Scapania nemorea|Schizonepeta tenuifolia|Schizonepeta tenuisfolia|Schizophyllum lobatum|Schoenus apogon|Schoenus asperocarpus|Schoenus bifidus|Schoenus brevifolius|Schoenus calostachyus|Schoenus clandestinus|Schoenus curvifolius|Schoenus ericetorum|Schoenus falcatus|Schoenus fluitans|Schoenus hexandrus|Schoenus latitans|Schoenus paludosus|Schoenus scabripes|Schoenus sesquispicula|Schoenus sesquispiculus|Schoenus subaphyllus|Schoenus subflavus|Schumanniophyton magnificum|Scirpus polystachyus|Scleria novae-hollandiae|Scleria rugosa|Scleria tricuspidata|Scolymus hispanicus|Scolymus maculatus|Scoparia dulcis|Scorzonera austriaca|Scorzonera graminifolia|Scorzonera hirsuta|Scorzonera hispanica|Scorzonera humilis|Scorzonera laciniata|Scorzonera mollis|Scorzonera pseudolanata|Scorzonera pusilla|Scorzoneroides autumnalis|Scutellaria adsurgens|Scutellaria barbata|Scutellaria comosa|Scutellaria discolor|Scutellaria grossa|Scutellaria indica|Scutellaria iskanderi|Scutellaria oreophila|Scutellaria ovata|Sedum obtuso-lineare|Sedum sarmentosum|Sedum takesimense|Sedum takesimense Nakai|Selinum carvifolium|Senecio adenophyllus|Senecio deltoideus|Senecio sandersonii|Senecio scandens|Senecio speciosus|Senegalia mellifera|Senna alata|Senna didymobotrya|Senna petersiana|Senna siamea|Senna sophera|Sepia officinalis|Serratula cichoracea|Sesbania bispinosa|Shigella dysenteriae|Shigella flexneri|Sia ferox|Sidastrum acuminatum|Sideritis argosphacelus|Sideritis argosphacelus var. spicata|Sideritis euboea|Sideritis infernalis|Sideritis leucantha|Sideritis raeseri|Sideritis soluta|Sideritis syriaca|Sideritis tragoriganum|Sideritis trojana|Siegesbeckia pubescens|Sigesbeckia glabrescens|Silybum marianum|Simarouba glauca|Sinapis alba|Sinningia cardinalis|Sinocrassula indica|Siphonaria capensis|Siphonostegia chinensis|Sisyrinchium californicum|Smenospongia echina|Smilax Riparia|Smilax corbularia|Smilax riparia|Solanderia secunda|Solanum aculeatissimum|Solanum chenopodioides|Solanum jamaicense|Solanum lanceolatum|Solanum lycopersicum|Solanum melongena|Solanum nigrum|Solidago flexicaulis|Solidago serotina|Sonchus arvensis|Sonchus asper|Sonchus maritimus|Sonchus oleraceus|Sonchus pustulatus|Sonneratia Caseolaris|Sonneratia caseolaris|Sophora flavescens|Sophora lehmanni|Sophora lehmannii|Sophora microphylla|Sophora prostrata|Sorbaria sorbifolia|Sorbus tianschanica|Sordaria araneosa|Sorghum bicolor|Spartium junceum|Sphaeria maculans|Sphagneticola trilobata|Spinacia oleracea|Spiraea hypericifolia|Spirodela polyrhiza|Stachys aegyptiaca|Stachys ocymastrum|Stachyurus himalaicus|Stellaria media|Stentor coeruleus|Stephania elegans|Sterculia foetida|Stifftia chrysantha|Stipa vaseyi|Stiretrus anchorago|Stizolobium deeringianum|Streptomyces|Streptomyces garyphalus|Streptomyces griseochromogenes|Streptomyces lucensis|Streptomyces matensis|Streptomyces misawanensis|Streptomyces parvulus|Streptomyces sp. KCTC 0041BP|Streptomyces tsukubensis|Streptomyces vinaceusdrappus|Striga asiatica|Striga barthlottii|Striga gesnerioides|Striga lutea|Strophanthus kombe|Strychnos camptoneura|Strychnos ligustrina|Sugarcane|Swartzia langsdorffii|Swertia decussata|Swertia swertopsis|Symphyocladia latiuscula|Symphyopappus compressus|Symphyotrichum bracteolatum|Symphyotrichum eatonii|Syncolostemon parviflorus|Syringa afghanica|Syzygium jambos|Syzygium nervosum|Syzygium polycephaloides|Tabebuia aurea|Tagetes erecta|Tagetes patula|Tagetes rupestris|Talaromyces pinophilus|Tanacetum balsamita|Tanacetum parthenium|Tanacetum polycephalum|Tanacetum sp.|Tanacetum vulgare|Taraxacum borealisinense|Taraxacum coreanum|Taraxacum mongolicum|Taraxacum officinale|Taraxacum platycarpum|Taraxacum sinicum|Taraxacum udum|Tarchonanthus camphoratus|Tarenna ebracteata|Taxus brevifolia|Tecoma capensis|Tecoma sp.|Tephrosia elata|Tephrosia fulvinervis|Tephrosia linearis|Terminalia arjuna|Terminalia chebula|Tessaria dodoneifolia|Tetrapanax papyrifer|Tetraria octandra|Teucrium gnaphalodes|Teucrium hircanicum|Teucrium sp.|Theobroma Cacao|Theobroma cacao L.|Theonella conica|Thermopsis alterniflora|Thermopsis dolichocarpa|Thermopsis macrophylla|Thermopsis mollis|Thermopsis rhombifolia|Thermopsis villosa|Thiocystis gelatinosa|Thuja plicata|Thunbergia fragrans|Thunnus orientalis|Thymbra capitata|Thymbra spicata|Thymus|Thymus bashkiriensis|Thymus capitatus|Thymus guberlinensis|Thymus herba-barona|Thymus hirtus|Thymus longiflorus|Thymus moroderi|Thymus quinquecostatus|Thymus sp.|Thymus vulgaris|Thymus zheguliensis|Tiarella trifoliata|Tilia mandshurica|Tilia tomentosa|Tinospora crispa|Tinus mamillata|Tithonia diversifolia|Todaroa aurea|Tolypothrix tenuis|Trachelospermum jasminoides|Tragopogon crocifolius|Tragopogon hybridus|Tragopogon longirostris|Tragopogon porrifolius|Tragopogon pratensis|Trichoderma koningi|Trichoderma vinosum|Trichoderma viride|Tricholoma acerbum|Tricholoma columbetta|Trichophyton mentagrophytes|Trichosanthes kirilowii|Trichosanthes rosthornii|Trichostema lanatum|Trichosurus vulpecula|Tricostularia compressa|Tricostularia undulata|Trididemnum cyanophorum|Trifolium alexandrinum|Trifolium apertum|Trifolium canescens|Trifolium pannonicum|Trifolium sp.|Trifolium subterraneum|Trifolium trichocephalum|Triglochin maritima|Trigonella foenum-graecum|Trigonella sp.|Trikentrion flabelliforme|Tripterygium regelii|Tripterygium wilfordii|Triticum estivum|Trogoderma granarium|Trollius chinensis|Tsuga chinensis|Tsuga diversifolia|Typha latifolia|Umbilicaria esculenta|Uncaria hirsuta|Uncaria sterrophylla|Urospermum picroides|Urtica triangularis|Usnea undulata|Ustilago sphaerogena|Utricularia australis|Uvaria acuminata|Uvaria grandiflora|Uvaria scheffleri|Vaccinium vitis-idaea|Vachellia pennatula|Vachellia tortilis|Valeriana amurensis|Valeriana cardamines|Valeriana chionophila|Valeriana eriophylla|Valeriana fedtschenkoi|Valeriana ficariifolia|Valeriana rossica|Vallaris solanacea|Vellozia epidendroides|Vellozia glabra|Vellozia lilacina|Vellozia nanuzae|Vellozia nivea|Vellozia scoparia|Venus mercenaria|Verbascum fruticulosum|Verbascum lychnitis|Verbascum phlomoides|Verbascum sinaiticum|Verbascum songaricum|Verbascum sp.|Verbascum thapsus|Verbascum wiedemannianum|Verbena officinalis|Verbena × hybrida|Vernonanthura montevidensis|Vernonanthura pinguis|Vernonia anisochaetoides|Vernonia fagifolia|Vernonia lanuginosa|Vernonia pectoralis|Veronica arvensis|Veronica kellereri|Veronica officinalis|Veronica persica|Veronica sp.|Veronica spicata|Viburnum buddleifolium|Viburnum carlesii|Viburnum cinnamomifolium|Viburnum cotinifolium|Viburnum dentatum|Viburnum erubescens|Viburnum lantana|Viburnum lantana L.|Viburnum macrocephalum|Viburnum opulus L.|Viburnum plicatum|Viburnum plicatum Thunb.|Viburnum rafinesqueanum|Viburnum rhytidophyllum|Viburnum rhytidophyllum Hemsl.|Viburnum tinus L.|Viburnum x bodnantense Aberc.|Vicia acutifolia|Vicia americana|Vicia amoena|Vicia articulata|Vicia balansae|Vicia benghalensis|Vicia ciceroidea|Vicia cracca|Vicia dumetorum|Vicia epetiolaris|Vicia ervilia|Vicia floridana|Vicia glauca|Vicia hirsuta|Vicia michauxii|Vicia minutiflora|Vicia mollis|Vicia monantha|Vicia multijuga|Vicia ochroleuca|Vicia onobrychioides|Vicia pannonica|Vicia pinetorum|Vicia sicula|Vicia splendens|Vicia subvillosa|Vicia sylvatica|Vicia tenuifolia|Vigna mungo|Vigna trilobata|Vigna unguiculata|Viguiera linearis|Viguiera stenoloba|Vinca minor|Viola arvensis|Viola formosana|Viola reichenbachiana|Virgilia divaricata|Viscum coloratum|Vismia orientalis|Vitex agnus-castus|Vitex limonifolia|Vitex negundo|Vitex polygama|Vitex quinata|Vitex rotundifolia|Vitex trifolia|Vitis aestivalis|Vitis betulifolia|Vitis cinerea|Vitis vinifera|Volkameria inermis|Volutaria crupinoides|Waltheria americana|Wedelia scaberrima|Widely distributed in plant|Wikstroemia canescens|Wikstroemia viridiflora|Wilbrandia ebracteata|Wisteria sinensis|Wurmbea deserticola|Wurmbea dioica|Wurmbea inframediana|Wurmbea tenella|Xanthorhiza simplicissima|Xerochrysum bracteatum|Xylaria cubensis|Yponomeuta malinellus|Zaluzianskya capensis|Zanthoxylum ailanthoides|Zanthoxylum arborescens|Zanthoxylum monophyllum|Zanthoxylum myriacanthum|Zataria multiflora|Ziziphora clinopodioides|asparagus|basil|broad bean|broccoli|cacao|candyleaf|common dandelion|common sunflower|denseflower mullein|gai lan|garlic|kohlrabi|lettuce|marjoram|meadow clary|parsley|peanut|pomegranate|pomelo|potato|rooibos|tarragon|tomato

>  <collections>  (346) 
ANPDB|AfroCancer|AfroDB|AnalytiCon Discovery NPs|Australian natural products|BitterDB|CMAUP (cCollective molecular activities of useful plants)|ChEBI NPs|ChemSpider NPs|ConMedNP|EMNPD|ETM (Ethiopian Traditional Medicine) DB|FooDB|GNPS (Global Natural Products Social Molecular Networking)|HIM (Herbal Ingredients in-vivo Metabolism database)|HIT (Herbal Ingredients Targets)|InPACdb|InflamNat|KNApSaCK|Latin America dataset|Marine Natural Products|Mitishamba database|NANPDB (Natural Products from Northern African Sources)|NAPRORE-CR|NPACT|NPASS|NPCARE|NPEdia|NuBBEDB|PeruNPDB|Phenol-explorer|Phyto4Health|PhytoLab phyproof® Reference Substances|PubChem NPs|ReSpect|SANCDB|Specs Natural Products|StreptomeDB|Super Natural II|TCMDB-Taiwan (Traditional Chinese Medicine database)|TCMID (Traditional Chinese Medicine Integrated Database)|TIPdb (database of Taiwan indigenous plants)|TPPT (Toxic Plants–PhytoToxins)|TerPenoids database embedded with Content information (TPCN)|UNPD (Universal Natural Products Database)|VietHerb|Watermelon|WikiData Natural Products

>  <dois>  (346) 
10.1002/(SICI)1097-0010(200004)80:5<561::AID-JSFA574>3.0.CO;2-|10.1002/(SICI)1099-1565(199707)8:4<176::AID-PCA351>3.0.CO;2-K|10.1002/1521-4184(20008)333:8<275::AID-ARDP275>3.0.CO;2-4|10.1002/9780470744307.gat218|10.1002/BMC.4601|10.1002/CBDV.200900007|10.1002/CBDV.201000035|10.1002/CBDV.201100002|10.1002/CBDV.201100219|10.1002/CHIN.200315207|10.1002/CHIN.200322218|10.1002/CHIN.200342212|10.1002/CHIN.200511237|10.1002/EJLT.200500227|10.1002/ELAN.200403102|10.1002/ELPS.201300646|10.1002/HLCA.19710540417|10.1002/HLCA.200490016|10.1002/HLCA.201000195|10.1002/HLCA.201100165|10.1002/J.1537-2197.1987.TB08600.X|10.1002/J.1537-2197.1996.TB13914.X|10.1002/JCCS.199300014|10.1002/JCCS.199300046|10.1002/JCCS.199500018|10.1002/JCCS.199800035|10.1002/JCCS.200000028|10.1002/JCCS.200100158|10.1002/JCCS.200300153|10.1002/JCCS.200400094|10.1002/JMS.395|10.1002/JOBM.3620320406|10.1002/JSFA.1820|10.1002/JSFA.2384|10.1002/MCS.1047|10.1002/MRC.2546|10.1002/MRC.2795|10.1002/PCA.2521|10.1002/PTR.1111|10.1002/PTR.2327|10.1002/PTR.2650020307|10.1002/PTR.2650080503|10.1002/PTR.871|10.1002/food.19880321030|10.1007/978-3-540-71095-0_3952|10.1007/BF00381261|10.1007/BF00563331|10.1007/BF00563361|10.1007/BF00563466|10.1007/BF00564015|10.1007/BF00564319|10.1007/BF00564350|10.1007/BF00564354|10.1007/BF00564458|10.1007/BF00564462|10.1007/BF00564464|10.1007/BF00564825|10.1007/BF00564831|10.1007/BF00565263|10.1007/BF00565265|10.1007/BF00565809|10.1007/BF00566097|10.1007/BF00566186|10.1007/BF00566810|10.1007/BF00567715|10.1007/BF00567716|10.1007/BF00567819|10.1007/BF00567884|10.1007/BF00568241|10.1007/BF00568248|10.1007/BF00568427|10.1007/BF00568487|10.1007/BF00569015|10.1007/BF00569605|10.1007/BF00570687|10.1007/BF00570688|10.1007/BF00570866|10.1007/BF00570867|10.1007/BF00571237|10.1007/BF00574222|10.1007/BF00574346|10.1007/BF00574347|10.1007/BF00574351|10.1007/BF00574750|10.1007/BF00575193|10.1007/BF00576105|10.1007/BF00577211|10.1007/BF00579059|10.1007/BF00579084|10.1007/BF00579161|10.1007/BF00579496|10.1007/BF00579515|10.1007/BF00579786|10.1007/BF00579788|10.1007/BF00579802|10.1007/BF00579835|10.1007/BF00579979|10.1007/BF00579981|10.1007/BF00580041|10.1007/BF00580571|10.1007/BF00581612|10.1007/BF00596665|10.1007/BF00598180|10.1007/BF00598549|10.1007/BF00598596|10.1007/BF00598778|10.1007/BF00599012|10.1007/BF00600849|10.1007/BF00600854|10.1007/BF00605217|10.1007/BF00605218|10.1007/BF00607555|10.1007/BF00629776|10.1007/BF00629812|10.1007/BF00630019|10.1007/BF00630092|10.1007/BF00630203|10.1007/BF00630227|10.1007/BF00630331|10.1007/BF00630376|10.1007/BF00630447|10.1007/BF00633407|10.1007/BF00636588|10.1007/BF00713337|10.1007/BF00713338|10.1007/BF00713340|10.1007/BF00941703|10.1007/BF00985673|10.1007/BF01032046|10.1007/BF01032047|10.1007/BF01100682|10.1007/BF01165218|10.1007/BF01170225|10.1007/BF01374036|10.1007/BF01374037|10.1007/BF01923349|10.1007/BF02234938|10.1007/BF02234939|10.1007/BF02236306|10.1007/BF02249145|10.1007/BF02275920|10.1007/BF02282376|10.1007/BF02323285|10.1007/BF02637703|10.1007/BF02660723|10.1007/BF02857780|10.1007/BF02903720|10.1007/BF02908196|10.1007/BF02968244|10.1007/BF02975189|10.1007/BF02976632|10.1007/BF02976861|10.1007/BF02978247|10.1007/BF02979135|10.1007/BF02980123|10.1007/BF02980155|10.1007/BF03051309|10.1007/S00217-002-0603-1|10.1007/S00217-002-0604-0|10.1007/S00217-005-0160-5|10.1007/S00425-017-2718-4|10.1007/S10600-005-0087-X|10.1007/S10600-005-0118-7|10.1007/S10600-006-0250-Z|10.1007/S10600-006-0265-5|10.1007/S10600-007-0058-5|10.1007/S10600-007-0133-Y|10.1007/S10600-007-0186-Y|10.1007/S10600-007-0208-9|10.1007/S10600-007-0222-Y|10.1007/S10600-007-0236-5|10.1007/S10600-008-9024-0|10.1007/S10600-008-9025-Z|10.1007/S10600-008-9119-7|10.1007/S10600-009-9197-1|10.1007/S10600-009-9246-9|10.1007/S10600-009-9248-7|10.1007/S10600-009-9291-4|10.1007/S10600-009-9328-8|10.1007/S10600-009-9330-1|10.1007/S10600-009-9393-Z|10.1007/S10600-010-9480-1|10.1007/S10600-010-9543-3|10.1007/S10600-010-9596-3|10.1007/S10600-010-9645-Y|10.1007/S10600-010-9659-5|10.1007/S10600-010-9747-6|10.1007/S10600-011-0071-6|10.1007/S10600-011-9795-6|10.1007/S10600-011-9797-4|10.1007/S10600-011-9846-Z|10.1007/S10600-011-9849-9|10.1007/S10600-011-9908-2|10.1007/S10600-011-9920-6|10.1007/S10600-011-9935-Z|10.1007/S10600-011-9952-Y|10.1007/S10600-012-0124-5|10.1007/S10600-012-0125-4|10.1007/S10600-012-0349-3|10.1007/S10600-012-0377-Z|10.1007/S10600-013-0652-7|10.1007/S10600-015-1519-X|10.1007/S10637-005-5856-7|10.1007/S11094-005-0104-1|10.1007/S11130-015-0503-8|10.1007/S11418-006-0029-3|10.1007/S11418-006-0122-7|10.1007/S11418-007-0219-7|10.1007/S11418-010-0501-Y|10.1007/S11746-003-0652-X|10.1007/S12272-010-0610-X|10.1007/S12272-011-0501-9|10.1007/S13197-014-1289-7|10.1007/s00216-014-7982-6|10.1016/0021-9673(92)85026-P|10.1016/0021-9673(93)80317-2|10.1016/0021-9673(94)89051-X|10.1016/0027-5107(95)00116-6|10.1016/0031-9422(73)80477-7|10.1016/0031-9422(73)85152-0|10.1016/0031-9422(75)85315-5|10.1016/0031-9422(80)83038-X|10.1016/0031-9422(80)83112-8|10.1016/0031-9422(81)80046-5|10.1016/0031-9422(82)80045-9|10.1016/0031-9422(82)83074-4|10.1016/0031-9422(83)80058-2|10.1016/0031-9422(88)80018-9|10.1016/0031-9422(88)80436-9|10.1016/0031-9422(88)80608-3|10.1016/0031-9422(88)80626-5|10.1016/0031-9422(88)80674-5|10.1016/0031-9422(88)80706-4|10.1016/0031-9422(88)80811-2|10.1016/0031-9422(88)84093-7|10.1016/0031-9422(88)84107-4|10.1016/0031-9422(88)87036-5|10.1016/0031-9422(88)87045-6|10.1016/0031-9422(89)80045-7|10.1016/0031-9422(89)80048-2|10.1016/0031-9422(89)80307-3|10.1016/0031-9422(89)80310-3|10.1016/0031-9422(89)85049-6|10.1016/0031-9422(90)80037-H|10.1016/0031-9422(90)80125-Z|10.1016/0031-9422(90)80127-3|10.1016/0031-9422(90)80181-F|10.1016/0031-9422(90)83080-K|10.1016/0031-9422(90)85128-3|10.1016/0031-9422(90)85131-X|10.1016/0031-9422(90)85149-A|10.1016/0031-9422(90)85187-K|10.1016/0031-9422(90)85371-L|10.1016/0031-9422(90)87143-I|10.1016/0031-9422(91)83679-F|10.1016/0031-9422(91)85027-W|10.1016/0031-9422(92)80270-O|10.1016/0031-9422(92)83268-4|10.1016/0031-9422(92)83452-5|10.1016/0031-9422(92)83667-N|10.1016/0031-9422(92)83742-H|10.1016/0031-9422(92)90037-Q|10.1016/0031-9422(93)85092-6|10.1016/0031-9422(93)85192-T|10.1016/0031-9422(93)85293-Z|10.1016/0031-9422(93)85369-3|10.1016/0031-9422(93)85488-D|10.1016/0031-9422(94)00578-H|10.1016/0031-9422(94)00591-G|10.1016/0031-9422(94)00786-S|10.1016/0031-9422(94)00955-S|10.1016/0031-9422(94)85023-2|10.1016/0031-9422(95)00217-U|10.1016/0031-9422(95)00494-R|10.1016/0031-9422(95)00507-4|10.1016/0031-9422(95)00776-8|10.1016/0031-9422(95)00865-9|10.1016/0031-9422(96)00041-6|10.1016/0031-9422(96)00084-2|10.1016/0031-9422(96)00104-5|10.1016/0031-9422(96)00242-7|10.1016/0031-9422(96)00248-8|10.1016/0305-1978(75)90037-X|10.1016/0305-1978(78)90036-4|10.1016/0305-1978(82)90020-5|10.1016/0305-1978(82)90034-5|10.1016/0305-1978(82)90048-5|10.1016/0305-1978(83)90056-X|10.1016/0305-1978(86)90060-8|10.1016/0305-1978(87)90085-8|10.1016/0305-1978(87)90101-3|10.1016/0305-1978(88)90005-1|10.1016/0305-1978(88)90032-4|10.1016/0305-1978(88)90033-6|10.1016/0305-1978(88)90035-X|10.1016/0305-1978(88)90036-1|10.1016/0305-1978(88)90048-8|10.1016/0305-1978(88)90056-7|10.1016/0305-1978(88)90078-6|10.1016/0305-1978(88)90086-5|10.1016/0305-1978(89)90096-3|10.1016/0305-1978(90)90051-G|10.1016/0305-1978(90)90119-Z|10.1016/0305-1978(91)90084-D|10.1016/0305-1978(91)90088-H|10.1016/0305-1978(91)90115-G|10.1016/0305-1978(92)90072-L|10.1016/0305-1978(92)90106-N|10.1016/0305-1978(93)90049-W|10.1016/0305-1978(93)90060-5|10.1016/0305-1978(93)90061-U|10.1016/0305-1978(93)90062-V|10.1016/0305-1978(93)90077-5|10.1016/0305-1978(94)00083-S|10.1016/0305-1978(94)90034-5|10.1016/0305-1978(94)90058-2|10.1016/0305-1978(94)90062-0|10.1016/0305-1978(94)90119-8|10.1016/0305-1978(95)00017-O|10.1016/0305-1978(95)00044-U|10.1016/0305-1978(95)93663-N|10.1016/0305-1978(96)88877-6|10.1016/0378-8741(84)90075-8|10.1016/0378-8741(94)90098-1|10.1016/B978-0-12-818162-1.00043-2|10.1016/J.ARABJC.2010.02.003|10.1016/J.ARABJC.2013.12.011|10.1016/J.BIOMBIOE.2013.10.019|10.1016/J.BMC.2010.01.046|10.1016/J.BMC.2015.04.053|10.1016/J.BMCL.2006.09.051|10.1016/J.BMCL.2010.09.086|10.1016/J.BMCL.2010.10.058|10.1016/J.BMCL.2013.04.013|10.1016/J.BMCL.2014.08.004|10.1016/J.BMCL.2014.12.055|10.1016/J.BMCL.2015.04.052|10.1016/J.BMCL.2015.05.089|10.1016/J.BSE.2004.10.015|10.1016/J.BSE.2005.01.006|10.1016/J.BSE.2014.02.015|10.1016/J.BSE.2014.05.015|10.1016/J.CARRES.2009.10.019|10.1016/J.CARRES.2010.09.002|10.1016/J.CBI.2009.04.014|10.1016/J.EJMECH.2011.03.011|10.1016/J.EJPHAR.2004.12.032|10.1016/J.ENZMICTEC.2018.02.007|10.1016/J.FBIO.2018.07.004|10.1016/J.FITOTE.2004.09.019|10.1016/J.FITOTE.2004.10.013|10.1016/J.FITOTE.2005.06.007|10.1016/J.FITOTE.2008.04.002|10.1016/J.FITOTE.2009.06.006|10.1016/J.FITOTE.2009.07.004|10.1016/J.FITOTE.2009.12.004|10.1016/J.FITOTE.2010.04.012|10.1016/J.FITOTE.2010.12.003|10.1016/J.FITOTE.2014.01.007|10.1016/J.FOODCHEM.2005.01.013|10.1016/J.FOODCHEM.2005.11.053|10.1016/J.FOODCHEM.2006.08.014|10.1016/J.FOODCHEM.2007.06.037|10.1016/J.FOODCHEM.2009.03.042|10.1016/J.FOODCHEM.2020.128444|10.1016/J.FOODRES.2014.04.036|10.1016/J.HELIYON.2020.E04150|10.1016/J.JCHROMB.2011.03.058|10.1016/J.JEP.2004.09.057|10.1016/J.JEP.2006.02.010|10.1016/J.JEP.2006.09.006|10.1016/J.JEP.2008.07.026|10.1016/J.JFCA.2006.09.005|10.1016/J.JFF.2014.08.013|10.1016/J.JFF.2015.12.019|10.1016/J.JFOODENG.2005.05.061|10.1016/J.JHAZMAT.2018.11.065|10.1016/J.LFS.2004.08.017|10.1016/J.LWT.2018.02.024|10.1016/J.PHYMED.2006.11.021|10.1016/J.PHYTOCHEM.2004.08.014|10.1016/J.PHYTOCHEM.2005.10.002|10.1016/J.PHYTOCHEM.2005.10.019|10.1016/J.PHYTOCHEM.2006.01.016|10.1016/J.PHYTOCHEM.2006.05.016|10.1016/J.PHYTOCHEM.2007.02.015|10.1016/J.PHYTOCHEM.2007.03.001|10.1016/J.PHYTOCHEM.2007.03.035|10.1016/J.PHYTOCHEM.2007.05.016|10.1016/J.PHYTOCHEM.2007.05.031|10.1016/J.PHYTOCHEM.2007.05.035|10.1016/J.PHYTOCHEM.2008.06.006|10.1016/J.PHYTOCHEM.2008.07.002|10.1016/J.PHYTOCHEM.2008.07.007|10.1016/J.PHYTOCHEM.2009.04.008|10.1016/J.PHYTOCHEM.2009.11.008|10.1016/J.PHYTOCHEM.2010.06.007|10.1016/J.PHYTOCHEM.2010.08.007|10.1016/J.PHYTOCHEM.2010.12.018|10.1016/J.PHYTOCHEM.2013.07.003|10.1016/J.PHYTOCHEM.2014.09.004|10.1016/J.PHYTOL.2013.07.008|10.1016/J.PLAPHY.2015.04.008|10.1016/J.TETLET.2010.11.040|10.1016/S0003-2670(01)01241-7|10.1016/S0014-2999(99)00723-2|10.1016/S0021-9673(01)88918-4|10.1016/S0021-9673(01)92486-0|10.1016/S0021-9673(97)01061-3|10.1016/S0031-9422(00)00249-1|10.1016/S0031-9422(00)00355-1|10.1016/S0031-9422(00)00439-8|10.1016/S0031-9422(00)00479-9|10.1016/S0031-9422(00)00480-5|10.1016/S0031-9422(00)80406-9|10.1016/S0031-9422(00)80678-0|10.1016/S0031-9422(00)80758-X|10.1016/S0031-9422(00)81116-4|10.1016/S0031-9422(00)81506-X|10.1016/S0031-9422(00)82343-2|10.1016/S0031-9422(00)82535-2|10.1016/S0031-9422(00)83010-1|10.1016/S0031-9422(00)83207-0|10.1016/S0031-9422(00)83767-X|10.1016/S0031-9422(00)83891-1|10.1016/S0031-9422(00)84057-1|10.1016/S0031-9422(00)84593-8|10.1016/S0031-9422(00)84739-1|10.1016/S0031-9422(00)84834-7|10.1016/S0031-9422(00)84889-X|10.1016/S0031-9422(00)85533-8|10.1016/S0031-9422(00)85667-8|10.1016/S0031-9422(00)85740-4|10.1016/S0031-9422(00)86879-X|10.1016/S0031-9422(00)86894-6|10.1016/S0031-9422(00)88458-7|10.1016/S0031-9422(00)88583-0|10.1016/S0031-9422(00)89780-0|10.1016/S0031-9422(00)90041-4|10.1016/S0031-9422(00)90434-5|10.1016/S0031-9422(00)90474-6|10.1016/S0031-9422(00)90522-3|10.1016/S0031-9422(00)90542-9|10.1016/S0031-9422(00)90672-1|10.1016/S0031-9422(00)90741-6|10.1016/S0031-9422(00)90809-4|10.1016/S0031-9422(00)91491-2|10.1016/S0031-9422(00)94161-X|10.1016/S0031-9422(00)94253-5|10.1016/S0031-9422(00)95197-5|10.1016/S0031-9422(00)97086-9|10.1016/S0031-9422(00)97993-7|10.1016/S0031-9422(01)00066-8|10.1016/S0031-9422(01)00176-5|10.1016/S0031-9422(01)00273-4|10.1016/S0031-9422(02)00229-7|10.1016/S0031-9422(02)00355-2|10.1016/S0031-9422(03)00282-6|10.1016/S0031-9422(96)00479-7|10.1016/S0031-9422(96)00800-X|10.1016/S0031-9422(97)00127-1|10.1016/S0031-9422(97)00420-2|10.1016/S0031-9422(97)00963-1|10.1016/S0031-9422(97)01042-X|10.1016/S0031-9422(97)01053-4|10.1016/S0031-9422(97)80026-X|10.1016/S0031-9422(98)00048-X|10.1016/S0031-9422(98)00416-6|10.1016/S0031-9422(98)00536-6|10.1016/S0031-9422(99)00021-7|10.1016/S0031-9422(99)00110-7|10.1016/S0031-9422(99)00474-4|10.1016/S0176-1617(84)80075-9|10.1016/S0304-4238(97)00124-6|10.1016/S0305-1978(00)00062-4|10.1016/S0305-1978(01)00028-X|10.1016/S0305-1978(01)00116-8|10.1016/S0305-1978(02)00162-X|10.1016/S0305-1978(02)00168-0|10.1016/S0305-1978(02)00187-4|10.1016/S0305-1978(96)00081-6|10.1016/S0305-1978(96)00115-9|10.1016/S0305-1978(97)00054-9|10.1016/S0305-1978(98)00004-0|10.1016/S0305-1978(98)00032-5|10.1016/S0305-1978(98)00077-5|10.1016/S0305-1978(98)00128-8|10.1016/S0305-1978(99)00064-2|10.1016/S0308-8146(00)00091-1|10.1016/S0308-8146(01)00114-5|10.1016/S0367-326X(00)00155-6|10.1016/S0367-326X(00)00182-9|10.1016/S0367-326X(00)00279-3|10.1016/S0367-326X(01)00279-9|10.1016/S0367-326X(01)00299-4|10.1016/S0367-326X(01)00303-3|10.1016/S0367-326X(01)00327-6|10.1016/S0367-326X(03)00056-X|10.1016/S0367-326X(03)00061-3|10.1016/S0367-326X(99)00052-0|10.1016/S0367-326X(99)00108-2|10.1016/S0367-326X(99)00112-4|10.1016/S0378-8741(00)00265-8|10.1016/S0378-8741(00)00304-4|10.1016/S0378-8741(01)00297-5|10.1016/S0378-8741(01)00352-X|10.1016/S0378-8741(01)00372-5|10.1016/S0378-8741(03)00192-2|10.1016/S0378-8741(96)01421-3|10.1016/S0378-8741(98)00019-1|10.1016/S0378-8741(99)00169-5|10.1016/S0944-7113(11)80033-4|10.1016/S0944-7113(97)80049-9|10.1016/S0963-9969(01)00083-7|10.1016/S0968-0896(02)00470-4|10.1016/S1875-5364(12)60009-0|10.1016/S1875-5364(19)30114-1|10.1016/j.arabjc.2010.02.003|10.1016/j.bmc.2006.09.024|10.1016/j.bmcl.2010.10.058|10.1016/j.bmcl.2014.12.055|10.1016/j.bmcl.2015.05.089|10.1016/j.enzmictec.2018.02.007|10.1016/j.jep.2004.09.057|10.1016/j.jep.2006.09.006|10.1016/j.jep.2007.10.011|10.1017/CBO9781139095655.005|10.1017/S0007114511004272|10.1021/ACS.JAFC.6B04155|10.1021/ACS.JNATPROD.9B00697.S001|10.1021/CC100076K|10.1021/JA01244A050|10.1021/JA01259A066|10.1021/JF00024A011|10.1021/JF00025A015|10.1021/JF00032A015|10.1021/JF00047A015|10.1021/JF00050A029|10.1021/JF000661F|10.1021/JF00108A021|10.1021/JF010697N|10.1021/JF0115138|10.1021/JF0258858|10.1021/JF0347721|10.1021/JF035300P|10.1021/JF040083T|10.1021/JF040097Z|10.1021/JF050511A|10.1021/JF0602267|10.1021/JF061477I|10.1021/JF061478A|10.1021/JF0617925|10.1021/JF100332W|10.1021/JF901716J|10.1021/JF960339Y|10.1021/JF970520M|10.1021/JF9801264|10.1021/JF980258X|10.1021/JF980264T|10.1021/JF990444I|10.1021/JF990498S|10.1021/JF990916T|10.1021/NP000256I|10.1021/NP0005917|10.1021/NP010389J|10.1021/NP020231E|10.1021/NP020238W|10.1021/NP020241F|10.1021/NP0205349|10.1021/NP0205856|10.1021/NP030165W|10.1021/NP040024+|10.1021/NP0401819|10.1021/NP058084I|10.1021/NP070351S|10.1021/NP070489A|10.1021/NP200307R|10.1021/NP2003935|10.1021/NP50003A002|10.1021/NP500150F|10.1021/NP50015A010|10.1021/NP50018A003|10.1021/NP50019A012|10.1021/NP50020A005|10.1021/NP50021A025|10.1021/NP50024A029|10.1021/NP50028A036|10.1021/NP50030A007|10.1021/NP50030A026|10.1021/NP50032A028|10.1021/NP50036A047|10.1021/NP50037A042|10.1021/NP50038A029|10.1021/NP50039A027|10.1021/NP50041A040|10.1021/NP50045A034|10.1021/NP50045A043|10.1021/NP50048A050|10.1021/NP50051A037|10.1021/NP50058A010|10.1021/NP50065A009|10.1021/NP50077A010|10.1021/NP50096A023|10.1021/NP50103A006|10.1021/NP700713R|10.1021/NP800016E|10.1021/NP800643N|10.1021/NP900026Q|10.1021/NP900117V|10.1021/NP9003195|10.1021/NP900530N|10.1021/NP9601925|10.1021/NP970011E|10.1021/NP990271R|10.1021/NP990282K|10.1021/NP9904152|10.1021/OL015985J|10.1021/acs.jnatprod.9b00922|10.1021/cc100076k|10.1021/jf304986q|10.1021/np020289t|10.1021/np50096a027|10.1021/np800643n|10.1023/B:CONC.0000018105.23722.7D|10.1023/B:CONC.0000025456.09089.84|10.1023/B:CONC.0000033925.00693.7B|10.1023/B:CONC.0000033944.13290.EF|10.1023/B:CONC.0000033945.16862.19|10.1038/sj.onc.1208874|10.1039/CT8997500830|10.1042/BJ0080204|10.1042/BJ0170836|10.1046/J.1432-1033.2003.03729.X|10.1055/S-0028-1097910|10.1055/S-0028-1099407|10.1055/S-0029-1240814|10.1055/S-0035-1545201|10.1055/S-1999-13965|10.1055/S-2000-8547|10.1055/S-2000-8632|10.1055/S-2001-14319|10.1055/S-2002-34417|10.1055/S-2003-39705|10.1055/S-2003-43207|10.1055/S-2004-818956|10.1055/S-2005-873169|10.1055/S-2005-873181|10.1055/S-2006-957690|10.1055/S-2006-957738|10.1055/S-2006-957782|10.1055/S-2006-957876|10.1055/S-2006-958121|10.1055/S-2006-958150|10.1055/S-2006-959378|10.1055/S-2006-959387|10.1055/S-2006-959423|10.1055/S-2006-959756|10.1055/S-2006-960413|10.1055/S-2006-960835|10.1055/S-2006-960854|10.1055/S-2006-961918|10.1055/S-2006-962330|10.1055/S-2006-962463|10.1055/S-2006-962505|10.1055/S-2006-962543|10.1055/S-2006-962613|10.1055/S-2006-962793|10.1055/S-2007-969311|10.1055/S-2007-969312|10.1055/S-2007-969314|10.1055/S-2007-969379|10.1055/S-2007-969702|10.1055/S-2007-969705|10.1055/S-2007-969735|10.1055/S-2007-990248|10.1055/S-2008-1034316|10.1055/S-2008-1074547|10.1055/S-2008-1074558|10.1076/PHBI.35.4.274.13311|10.1076/PHBI.37.2.163.6079|10.1076/PHBI.40.2.96.5848|10.1078/0944-7113-00036|10.1080/00021369.1975.10861937|10.1080/00021369.1981.10864793|10.1080/10286020.2010.544254|10.1080/10286020.2011.644714|10.1080/10286020.2019.1642330|10.1080/10286020310001625085|10.1080/10286020701394480|10.1080/10286020903128470|10.1080/10575639308043848|10.1080/10575639508043197|10.1080/10575639708041195|10.1080/13880200701538948|10.1080/14786410310001620673|10.1080/14786410601130646|10.1080/14786410701782544|10.1080/14786410802447294|10.1080/14786410802522559|10.1080/14786410902800707|10.1080/14786419.2010.541879|10.1080/14786419.2011.587188|10.1080/14786419.2015.1110702|10.1080/14786419.2016.1226831|10.1081/JLC-100100511|10.1081/JLC-100101655|10.1081/JLC-100103396|10.1093/CHROMSCI/35.3.117|10.1093/CHROMSCI/BMY030|10.1093/pcp/pcn183|10.1094/PHYTO-77-1560|10.1104/PP.100.1.444|10.1104/PP.69.2.522|10.1104/PP.95.3.804|10.1111/J.1095-8339.1984.TB02563.X|10.1111/J.1365-2621.1995.TB09806.X|10.1111/J.1742-7843.2006.PTO_300.X|10.1111/J.1745-4557.2006.00096.X|10.1111/J.2042-7158.1998.TB02436.X|10.1111/JIPB.12204|10.1139/B97-921|10.1152/AJPGI.00248.2006|10.1186/s12934-020-1284-9|10.1211/146080899128735009|10.1211/JPP.59.9.0016|10.1246/BCSJ.45.528|10.1246/NIKKASHI.1992.423|10.1248/BPB.17.1029|10.1248/BPB.18.463|10.1248/BPB.25.1197|10.1248/BPB.26.560|10.1248/BPB.29.1271|10.1248/BPB.34.160|10.1248/CPB.17.124|10.1248/CPB.31.3984|10.1248/CPB.31.919|10.1248/CPB.34.4829|10.1248/CPB.35.675|10.1248/CPB.36.3654|10.1248/CPB.36.807|10.1248/CPB.37.2441|10.1248/CPB.37.794|10.1248/CPB.39.1051|10.1248/CPB.39.1466|10.1248/CPB.40.689|10.1248/CPB.47.1152|10.1248/CPB.47.340|10.1248/CPB.48.651|10.1248/CPB.50.972|10.1248/CPB.53.1416|10.1248/CPB.54.1451|10.1248/CPB.54.1530|10.1248/CPB.55.1240|10.1248/CPB.55.1308|10.1248/CPB.55.1505|10.1248/CPB.55.1532|10.1248/CPB.55.1597|10.1248/CPB.55.57|10.1248/CPB.55.757|10.1248/CPB.56.1047|10.1248/CPB.56.1546|10.1248/CPB.56.1628|10.1248/CPB.56.189|10.1248/CPB.56.585|10.1248/CPB.56.592|10.1248/CPB.56.612|10.1248/CPB.56.97|10.1248/CPB.57.134|10.1248/CPB.57.245|10.1248/CPB.57.620|10.1248/CPB.58.1379|10.1248/CPB.58.394|10.1248/CPB.58.859|10.1248/CPB.59.653|10.1248/CPB.60.121|10.1248/CPB.60.129|10.1248/CPB.60.397|10.1248/YAKUSHI1947.103.9_997|10.1248/YAKUSHI1947.104.5_535|10.1248/YAKUSHI1947.105.5_442|10.1248/YAKUSHI1947.105.6_542|10.1248/YAKUSHI1947.109.3_175|10.1248/YAKUSHI1947.69.6-10_320|10.1271/BBB.67.2091|10.1271/BBB.80162|10.1271/BBB1961.39.2237|10.1371/JOURNAL.PONE.0219973|10.14233/AJCHEM.2019.21530|10.1501/ECZFAK_0000000200|10.1515/ZNB-1982-0423|10.1515/ZNB-1992-0125|10.1515/ZNB-2000-0116|10.1515/ZNB-2007-0615|10.1515/ZNB-2007-1117|10.1515/ZNB-2011-0610|10.1515/ZNC-1980-5-605|10.1515/ZNC-1983-7-826|10.1515/ZNC-1984-11-1233|10.1515/ZNC-1984-3-418|10.1515/ZNC-1986-1-214|10.1515/ZNC-1987-1-212|10.1515/ZNC-1991-1-207|10.1515/ZNC-1992-1-204|10.1515/ZNC-1992-7-807|10.1515/ZNC-1992-9-1025|10.1515/ZNC-1993-5-603|10.1515/ZNC-1994-9-1022|10.1515/ZNC-1995-5-604|10.1515/ZNC-1995-7-819|10.1515/ZNC-1996-11-1219|10.1515/ZNC-1997-3-401|10.1515/ZNC-1997-7-803|10.1515/ZNC-1998-11-1202|10.1515/ZNC-1998-11-1224|10.1515/ZNC-1999-1-203|10.1515/ZNC-2000-1-203|10.1515/ZNC-2000-11-1203|10.1515/ZNC-2001-9-1012|10.1515/ZNC-2002-11-1203|10.1515/ZNC-2003-3-401|10.1515/ZNC-2003-7-826|10.1515/ZNC-2003-9-1019|10.15281/JPLANTRES1887.39.468_353|10.1533/9781845698188.5.242|10.1556/AALIM.29.2000.4.4|10.1556/AALIM.31.2002.1.7|10.1590/S0100-40421999000200006|10.1590/S0103-50532003000500006|10.1590/S0103-50532010001000005|10.1590/S0103-50532012000300015|10.21608/BFSA.1984.89566|10.21608/BFSA.1984.89868|10.21608/BFSA.1995.69671|10.21608/BFSA.1998.67958|10.21608/BFSA.1999.66114|10.21608/BFSA.2002.65503|10.21608/BFSA.2003.65472|10.21608/EJAPS.2011.186256|10.21608/ZJPS.1996.185015|10.2174/138955709787001712|10.2298/HEMIND0704272R|10.3109/13880208709055202|10.3109/13880208709060924|10.3109/13880208909053946|10.3109/13880209109082884|10.3109/13880209109082898|10.3109/13880209309082934|10.3109/13880209309082963|10.3109/13880209409083017|10.3184/030823402103170655|10.3184/030823402103171960|10.3390/IJMS19041049|10.3390/MOLECULES13081530|10.3390/MOLECULES13081931|10.3390/MOLECULES14104190|10.3390/MOLECULES15010385|10.3390/MOLECULES15117933|10.3390/MOLECULES15118241|10.3390/MOLECULES15118251|10.3390/MOLECULES16032084|10.3390/MOLECULES16054020|10.3390/MOLECULES16108305|10.3390/MOLECULES21111576|10.3390/NU11020402|10.3390/plants11030377|10.3724/SP.J.1009.2012.00084|10.3724/SP.J.1009.2013.00260|10.3746/JFN.2003.8.4.330|10.3746/JKFN.2006.35.6.713|10.38212/2224-6614.2810|10.3987/COM-02-9596|10.3987/COM-03-9804|10.3987/COM-03-S16|10.4162/nrp.2013.7.6.423|10.4268/CJCMM20121914|10.4268/CJCMM20141115|10.4268/CJCMM20141334|10.4268/CJCMM20142423|10.4268/CJCMM20160518|10.4268/CJCMM20162420|10.5586/AM.1968.006|10.5586/ASBP.1998.030|10.5935/0103-5053.19930007|10.5962/BHL.TITLE.156477

>  <synonyms>  (346) 
nan

>  <cas>  (346) 
491-70-3|1318-21-4

$$$$

     RDKit          2D

 40 44  0  0  0  0  0  0  0  0999 V2000
   -0.1855   -4.7473    0.0000 O   0  0  0  0  0  0  0  0  0  0  0  0
   -0.7990   -3.3786    0.0000 C   0  0  0  0  0  0  0  0  0  0  0  0
   -2.2911   -3.2255    0.0000 C   0  0  0  0  0  0  0  0  0  0  0  0
   -2.9047   -1.8567    0.0000 C   0  0  0  0  0  0  0  0  0  0  0  0
   -4.3968   -1.7036    0.0000 C   0  0  0  0  0  0  0  0  0  0  0  0
   -5.0103   -0.3348    0.0000 C   0  0  0  0  0  0  0  0  0  0  0  0
   -6.5025   -0.1817    0.0000 C   0  0  0  0  0  0  0  0  0  0  0  0
   -7.3812   -1.3974    0.0000 C   0  0  0  0  0  0  0  0  0  0  0  0
   -8.8733   -1.2443    0.0000 O   0  0  0  0  0  0  0  0  0  0  0  0
   -6.7676   -2.7662    0.0000 C   0  0  0  0  0  0  0  0  0  0  0  0
   -5.2755   -2.9193    0.0000 C   0  0  0  0  0  0  0  0  0  0  0  0
   -2.0260   -0.6410    0.0000 O   0  0  0  0  0  0  0  0  0  0  0  0
   -0.5338   -0.7940    0.0000 C   0  0  0  0  0  0  0  0  0  0  0  0
    0.3448    0.4217    0.0000 C   0  0  0  0  0  0  0  0  0  0  0  0
   -0.2687    1.7905    0.0000 C   0  0  0  0  0  0  0  0  0  0  0  0
    0.6100    3.0062    0.0000 O   0  0  0  0  0  0  0  0  0  0  0  0
   -0.0035    4.3750    0.0000 C   0  0  0  0  0  0  0  0  0  0  0  0
    0.8751    5.5907    0.0000 C   0  0  0  0  0  0  0  0  0  0  0  0
    2.3673    5.4376    0.0000 O   0  0  0  0  0  0  0  0  0  0  0  0
   -1.4957    4.5281    0.0000 C   0  0  0  0  0  0  0  0  0  0  0  0
   -2.1092    5.8969    0.0000 O   0  0  0  0  0  0  0  0  0  0  0  0
   -2.3744    3.3124    0.0000 C   0  0  0  0  0  0  0  0  0  0  0  0
   -3.8665    3.4654    0.0000 O   0  0  0  0  0  0  0  0  0  0  0  0
   -1.7608    1.9436    0.0000 C   0  0  0  0  0  0  0  0  0  0  0  0
   -2.6395    0.7278    0.0000 O   0  0  0  0  0  0  0  0  0  0  0  0
    1.8370    0.2686    0.0000 C   0  0  0  0  0  0  0  0  0  0  0  0
    2.7157    1.4843    0.0000 O   0  0  0  0  0  0  0  0  0  0  0  0
    2.4505   -1.1002    0.0000 C   0  0  0  0  0  0  0  0  0  0  0  0
    3.9427   -1.2533    0.0000 C   0  0  0  0  0  0  0  0  0  0  0  0
    4.5562   -2.6221    0.0000 O   0  0  0  0  0  0  0  0  0  0  0  0
    6.0484   -2.7752    0.0000 C   0  0  0  0  0  0  0  0  0  0  0  0
    6.9270   -1.5595    0.0000 C   0  0  0  0  0  0  0  0  0  0  0  0
    8.4192   -1.7125    0.0000 O   0  0  0  0  0  0  0  0  0  0  0  0
    6.3135   -0.1907    0.0000 C   0  0  0  0  0  0  0  0  0  0  0  0
    7.1922    1.0250    0.0000 O   0  0  0  0  0  0  0  0  0  0  0  0
    4.8213   -0.0376    0.0000 C   0  0  0  0  0  0  0  0  0  0  0  0
    4.2078    1.3312    0.0000 O   0  0  0  0  0  0  0  0  0  0  0  0
    1.5719   -2.3159    0.0000 C   0  0  0  0  0  0  0  0  0  0  0  0
    2.1854   -3.6847    0.0000 O   0  0  0  0  0  0  0  0  0  0  0  0
    0.0797   -2.1628    0.0000 C   0  0  0  0  0  0  0  0  0  0  0  0
  1  2  2  0
  2  3  1  0
  3  4  2  0
  4  5  1  0
  5  6  2  0
  6  7  1  0
  7  8  2  0
  8  9  1  0
  8 10  1  0
 10 11  2  0
  4 12  1  0
 12 13  1  0
 13 14  2  0
 15 14  1  1
 15 16  1  0
 16 17  1  0
 17 18  1  1
 18 19  1  0
 17 20  1  0
 20 21  1  6
 20 22  1  0
 22 23  1  1
 22 24  1  0
 24 25  1  6
 14 26  1  0
 26 27  1  0
 26 28  2  0
 29 28  1  1
 29 30  1  0
 30 31  1  0
 31 32  1  0
 32 33  1  1
 32 34  1  0
 34 35  1  1
 34 36  1  0
 36 37  1  6
 28 38  1  0
 38 39  1  0
 38 40  2  0
 40  2  1  0
 11  5  1  0
 40 13  1  0
 24 15  1  0
 36 29  1  0
M  END
>  <identifier>  (347) 
CNP0354243.1

>  <canonical_smiles>  (347) 
O=C1C=C(C2=CC=C(O)C=C2)OC2=C([C@@H]3O[C@H](CO)[C@@H](O)[C@H](O)[C@H]3O)C(O)=C([C@@H]3OC[C@H](O)[C@H](O)[C@H]3O)C(O)=C12

>  <standard_inchi>  (347) 
InChI=1S/C26H28O14/c27-6-13-18(32)21(35)23(37)26(40-13)16-20(34)15(25-22(36)17(31)11(30)7-38-25)19(33)14-10(29)5-12(39-24(14)16)8-1-3-9(28)4-2-8/h1-5,11,13,17-18,21-23,25-28,30-37H,6-7H2/t11-,13+,17-,18+,21-,22+,23+,25-,26-/m0/s1

>  <standard_inchi_key>  (347) 
OVMFOVNOXASTPA-VYUBKLCTSA-N

>  <name>  (347) 
Isoschaftoside

>  <iupac_name>  (347) 
5,7-dihydroxy-2-(4-hydroxyphenyl)-8-[(2~{S},3~{R},4~{R},5~{S},6~{R})-3,4,5-trihydroxy-6-(hydroxymethyl)tetrahydropyran-2-yl]-6-[(2~{S},3~{R},4~{S},5~{S})-3,4,5-trihydroxytetrahydropyran-2-yl]chromen-4-one

>  <annotation_level>  (347) 
5

>  <total_atom_count>  (347) 
68

>  <heavy_atom_count>  (347) 
40

>  <molecular_weight>  (347) 
564.5

>  <exact_molecular_weight>  (347) 
564.14791

>  <molecular_formula>  (347) 
C26H28O14

>  <alogp>  (347) 
-1.75

>  <topological_polar_surface_area>  (347) 
250.97

>  <rotatable_bond_count>  (347) 
4

>  <hydrogen_bond_acceptors>  (347) 
14

>  <hydrogen_bond_donors>  (347) 
10

>  <hydrogen_bond_acceptors_lipinski>  (347) 
14

>  <hydrogen_bond_donors_lipinski>  (347) 
10

>  <lipinski_rule_of_five_violations>  (347) 
3

>  <aromatic_rings_count>  (347) 
3

>  <qed_drug_likeliness>  (347) 
0.17

>  <formal_charge>  (347) 
0

>  <fractioncsp3>  (347) 
0.42

>  <number_of_minimal_rings>  (347) 
5

>  <van_der_walls_volume>  (347) 
456.01

>  <contains_sugar>  (347) 
True

>  <contains_ring_sugars>  (347) 
True

>  <contains_linear_sugars>  (347) 
False

>  <murcko_framework>  (347) 
O1C(=CCc2cc(cc(c12)C3OCCCC3)C4OCCCC4)c5ccccc5

>  <np_likeness>  (347) 
1.96

>  <chemical_class>  (347) 
Flavonoids

>  <chemical_sub_class>  (347) 
Flavonoid glycosides

>  <chemical_super_class>  (347) 
Phenylpropanoids and polyketides

>  <direct_parent_classification>  (347) 
Flavonoid 8-C-glycosides

>  <np_classifier_pathway>  (347) 
Shikimates and Phenylpropanoids

>  <np_classifier_superclass>  (347) 
Flavonoids

>  <np_classifier_class>  (347) 
Flavones

>  <np_classifier_is_glycoside>  (347) 
False

>  <organisms>  (347) 
Achillea collina|Achillea millefolium|Achillea nobilis|Achillea pseudopectinata|Achillea sp.|Acorus gramineus|Acorus tatarinowii|Actinobacillus pleuropneumoniae|Aglaia australiensis|Alchornea floribunda|Alchornea trewioides|Allagopappus viscosissimus|Amoora yunnanensis|Annona rensoniana|Arachniodes dimorphophylla|Arisaema amurense|Arisaema erubescens|Arisaema heterophyllum|Aristolochia maxima|Artemisia annua L.|Artemisia apiacea|Artemisia frigida|Artemisia herba-alba|Artemisia judaica|Artemisia vachanica|Astragalus pycnanthus|Astragalus spinosus|Atuna racemosa|Baccharis gaudichaudiana|Barbus labeo|Berberis floribunda|Bergenia purpurascens|Berlinia tomentosa|Betula mandshurica|Bischofia trifoliata|Bonamia spectabilis|Camellia Sinensis|Camellia sinensis|Caragana tibetica|Caulerpa sertularioides|Centaurea virgata|Ceratonia siliqua|Ceratonia sp.|Chrysolina fastuosa|Citrus rugulosa|Cotoneaster orbicularis|Cotula cinerea|Cotula cinereum|Crataegus sinaica|Crataegus sp.|Cymodocea nodosa|Dendrobium officinale|Desmodium sandwicense|Desmodium styracifolium|Desmodium uncinatum|Dinophysis fortii|Diplacus longiflorus|Discaria crenata|Dolichospermum affine|Dunalia solanacea|Ertela trifolia|Euphorbia ferganensis|Ficus carica|Ficus sp.|Fumaria micrantha|Galipea trifoliata|Ganoderma australe|Gardenia jasminoides|Glycine sp.|Glycyrrhiza Uralensis|Glycyrrhiza glabra|Glycyrrhiza inflata|Glycyrrhiza sp.|Glycyrrhiza uralensis|Gratiola officinalis|Grona styracifolia|Haplopappus scrobiculatus|Helichrysum infaustum|Hydrangea serrata|Iris domestica|Isodon rubescens|Iyengaria stellata|Jamesoniella colorata|Jasminum officinale|Julocroton camporum|Lasiocephalus ovatus|Laurencia implicata|Lepidosperma ustulatum|Lespedeza capitata|Lespedeza davurica|Ligularia platyglossa|Lissoclinum vareau|Lunularia cruciata|Lysimachia christinae|Macadamia ternifolia|Macrotyloma axillare|Malus asiatica|Marine isolate|Mikania obtusata|Mola mola|Montrouziera sphaeroidea|Nelumbo nucifera|Nephroma antarcticum|Notobasis syriaca|Oreosolen wattii|Papaver tatricum|Passiflora allantophylla|Passiflora ampullacea|Passiflora boenderi|Passiflora caerulea|Passiflora colinvauxii|Passiflora edulis|Passiflora foetida|Passiflora foetida var. hispida|Passiflora incarnata|Passiflora macrophylla|Passiflora misera|Passiflora pinnatistipula|Passiflora pittieri|Passiflora serratifolia|Passiflora sexflora|Passiflora sp.|Passiflora trisecta|Peltogyne pubescens|Pentagonia gigantifolia|Pentapora fascialis|Phalium undulatum|Phomopsis archeri|Phoradendron tomentosum|Phyllospongia madagascarensis|Pimpinella saxifraga|Pithecellobium clypearia|Pleurotus japonicus|Polygala myrtifolia|Polypodium virginianum|Polypodium vulgare|Portulaca oleracea|Pseudoceratina arabica|Pterodon emarginatus|Pterogorgia anceps|Pulsatilla campanella|Ranunculus peltatus|Rapanea myricoides|Rhodiola krylovii|Rosa davurica|Rosulabryum capillare|Ruscus aculeatus|Ruscus sp.|Salvia miltiorrhiza|Sarcomelicope argyrophylla|Sargassum spinuligerum|Scleropyrum pentandrum|Scorodocarpus borneensis|Scutellaria Baicalensis|Scutellaria baicalensis|Solanum bahamense|Sphaerostephanos polycarpus|Stichopus hermanni|Streptomyces griseochromogenes|Streptomyces purpeofuscus|Sugarcane|Swertia decussata|Syzygium nervosum|Tanacetum albipannosum|Tinospora smilacina|Tridacna gigas|Trigonostemon reidioides|Triticum aestivum|Trogoderma granarium|Tropaeolum speciosum|Tropiometra afra|Vatica diospyroides|Viola yedoensis|Vitex lucens|Vitex negundo|Vitex polygama|Wallago attu|Yeatesia viridiflora|liquorice|soybean

>  <collections>  (347) 
Australian natural products|CMAUP (cCollective molecular activities of useful plants)|ETM (Ethiopian Traditional Medicine) DB|Latin America dataset|NPASS|NuBBEDB|Phyto4Health|PhytoLab phyproof® Reference Substances|Super Natural II|VietHerb|WikiData Natural Products|ZINC NP

>  <dois>  (347) 
10.1002/(SICI)1099-1565(200003/04)11:2<90::AID-PCA497>3.0.CO;2-R|10.1002/CHIN.200332113|10.1002/PS.1278|10.1002/ps.1278|10.1007/BF02491247|10.1007/S10600-010-9746-7|10.1016/0021-9673(93)80317-2|10.1016/0031-9422(81)80046-5|10.1016/0031-9422(82)83197-X|10.1016/0031-9422(90)85461-N|10.1016/0031-9422(93)85120-G|10.1016/0305-1978(93)90060-5|10.1016/0305-1978(93)90081-2|10.1016/0378-4347(91)80597-6|10.1016/J.JEP.2007.09.020|10.1016/J.PHYTOCHEM.2010.02.015|10.1016/J.PHYTOCHEM.2011.11.001|10.1016/S0021-9673(97)00260-4|10.1016/S0031-9422(00)00337-X|10.1016/S0031-9422(00)80120-X|10.1016/S0031-9422(00)80845-6|10.1016/S0031-9422(00)82629-1|10.1016/S0031-9422(00)82692-8|10.1016/S0031-9422(00)84593-8|10.1016/S0031-9422(00)90745-3|10.1016/S0031-9422(00)90806-9|10.1016/S0031-9422(00)98486-3|10.1016/S0031-9422(97)00100-3|10.1021/NP50019A012|10.1021/NP50020A014|10.1021/NP50024A029|10.1021/NP50024A030|10.1021/NP50031A018|10.1021/NP50032A013|10.1021/NP50035A034|10.1021/NP50040A038|10.1021/NP50051A037|10.1021/np50019a012|10.1055/S-2003-39699|10.1055/S-2006-959763|10.1076/PHBI.40.2.81.5844|10.1080/00021369.1982.10865479|10.1080/10575639808044951|10.1155/2017/7436259|10.1248/CPB.51.1204|10.1248/CPB.55.293|10.1248/CPB.55.57|10.1271/BBB.64.2262|10.1271/BBB1961.46.2595|10.1515/ZNC-1985-1-204|10.1515/ZNC-2000-5-607|10.1515/ZNC-2003-1-202|10.21608/BFSA.1998.67958|10.3797/SCIPHARM.AUT-01-09

>  <synonyms>  (347) 
1ST158902|2-(4-HYDROXYPHENYL)-5,7-DIHYDROXY-6-(ALPHA-L-ARABINOPYRANOSYL)-8-(BETA-D-GLUCOPYRANOSYL)-4H-1-BENZOPYRAN-4-ONE|4H-1-Benzopyran-4-one, 6-alpha-L-arabinopyranosyl-8-beta-D-glucopyranosyl-5,7-dihydroxy-2-(4-hydroxyphenyl)-|5,7,4'-Trihydroxy-6-C-arabinoside-8-C-glucoside flavone|5,7-DIHYDROXY-2-(4-HYDROXYPHENYL)-8-((2S,3R,4R,5S,6R)-3,4,5-TRIHYDROXY-6-(HYDROXYMETHYL)TETRAHYDRO-2H-PYRAN-2-YL)-6-((2S,3R,4S,5S)-3,4,5-TRIHYDROXYTETRAHYDRO-2H-PYRAN-2-YL)-4H-CHROMEN-4-ONE|5,7-dihydroxy-2-(4-hydroxyphenyl)-8-[(2S,3R,4R,5S,6R)-3,4,5-trihydroxy-6-(hydroxymethyl)oxan-2-yl]-6-[(2S,3R,4S,5S)-3,4,5-trihydroxyoxan-2-yl]chromen-4-one|5,7-dihydroxy-2-(4-hydroxyphenyl)-8-[(2S,3R,4R,5S,6R)-3,4,5-trihydroxy-6-(hydroxymethyl)tetrahydro-2H-pyran-2-yl]-6-[(2S,3R,4S,5S)-3,4,5-trihydroxytetrahydro-2H-pyran-2-yl]-4H-chromen-4-one|52012-29-0|6-(.ALPHA.-L-ARABINOPYRANOSYL)-8-(.BETA.-D-GLUCOPYRANOSYL)-5,7-DIHYDROXY-2-(4-HYDROXYPHENYL)-4H-1-BENZOPYRAN-4-ONE|6-C-.ALPHA.-L-ARABINOSYL-8-C-.BETA.-D-GLUCOSYLAPIGENIN|6-C-alpha-L-arabinopyranosyl-8-C-beta-D-glucosylapigenin|AC-35000|AKOS030573652|APIGENIN 6-C-.ALPHA.-L-ARABINOPYRANOSIDE-8-C-.BETA.-D-GLUCOPYRANOSIDE|APIGENIN 6-C-.ALPHA.-L-ARABINOSIDE 8-C-.BETA.-D-GLUCOSIDE|APIGENIN-6-ARABINOSIDE-8-GLUCOSIDE|Apigenin 6-C-\u03b1-L-arabinoside 8-C-\u03b2-D-glucoside|CHEBI:75589|CHEMBL2437365|CS-0016904|DTXSID301317293|H27X8715V3|HY-N1458|Isoshaftoside|J376.232G|MFCD00210518|MS-30225|Q27145412|SCHEMBL5082977|UNII-H27X8715V3|apigenin 6-C-arabinoside 8-C-glucoside|isoschaftoside

>  <cas>  (347) 
52012-29-0

$$$$

     RDKit          2D

 16 17  0  0  0  0  0  0  0  0999 V2000
    2.7947   -2.6835    0.0000 C   0  0  0  0  0  0  0  0  0  0  0  0
    2.0088   -1.4059    0.0000 C   0  0  0  0  0  0  0  0  0  0  0  0
    0.5093   -1.4478    0.0000 C   0  0  0  0  0  0  0  0  0  0  0  0
   -0.2766   -0.1702    0.0000 C   0  0  0  0  0  0  0  0  0  0  0  0
    0.4369    1.1493    0.0000 C   0  0  0  0  0  0  0  0  0  0  0  0
    1.9363    1.1912    0.0000 C   0  0  0  0  0  0  0  0  0  0  0  0
    2.7222   -0.0865    0.0000 C   0  0  0  0  0  0  0  0  0  0  0  0
    4.2216   -0.0446    0.0000 O   0  0  0  0  0  0  0  0  0  0  0  0
   -0.3491    2.4269    0.0000 C   0  0  0  0  0  0  0  0  0  0  0  0
    0.3644    3.7464    0.0000 C   0  0  0  0  0  0  0  0  0  0  0  0
   -1.8485    2.3850    0.0000 C   0  0  0  0  0  0  0  0  0  0  0  0
   -2.5620    1.0656    0.0000 C   0  0  0  0  0  0  0  0  0  0  0  0
   -1.7760   -0.2120    0.0000 C   0  0  0  0  0  0  0  0  0  0  0  0
   -2.4895   -1.5315    0.0000 C   0  0  0  0  0  0  0  0  0  0  0  0
   -3.9889   -1.5733    0.0000 C   0  0  0  0  0  0  0  0  0  0  0  0
   -1.7035   -2.8091    0.0000 C   0  0  0  0  0  0  0  0  0  0  0  0
  1  2  1  0
  2  3  2  0
  3  4  1  0
  4  5  2  0
  5  6  1  0
  6  7  2  0
  7  8  1  0
  5  9  1  0
  9 10  1  1
  9 11  1  0
 11 12  1  0
 12 13  1  0
 13 14  1  6
 14 15  1  0
 14 16  1  0
  7  2  1  0
 13  4  1  0
M  END
>  <identifier>  (348) 
CNP0288301.2

>  <canonical_smiles>  (348) 
CC1=CC2=C(C=C1O)[C@H](C)CC[C@H]2C(C)C

>  <standard_inchi>  (348) 
InChI=1S/C15H22O/c1-9(2)12-6-5-10(3)13-8-15(16)11(4)7-14(12)13/h7-10,12,16H,5-6H2,1-4H3/t10-,12+/m1/s1

>  <standard_inchi_key>  (348) 
UTBFITAKBXMXCZ-PWSUYJOCSA-N

>  <name>  (348) 
nan

>  <iupac_name>  (348) 
(1~{S},4~{R})-1-isopropyl-4,7-dimethyl-tetralin-6-ol

>  <annotation_level>  (348) 
5

>  <total_atom_count>  (348) 
38

>  <heavy_atom_count>  (348) 
16

>  <molecular_weight>  (348) 
218.34

>  <exact_molecular_weight>  (348) 
218.16707

>  <molecular_formula>  (348) 
C15H22O

>  <alogp>  (348) 
4.34

>  <topological_polar_surface_area>  (348) 
20.23

>  <rotatable_bond_count>  (348) 
1

>  <hydrogen_bond_acceptors>  (348) 
1

>  <hydrogen_bond_donors>  (348) 
1

>  <hydrogen_bond_acceptors_lipinski>  (348) 
1

>  <hydrogen_bond_donors_lipinski>  (348) 
1

>  <lipinski_rule_of_five_violations>  (348) 
0

>  <aromatic_rings_count>  (348) 
1

>  <qed_drug_likeliness>  (348) 
0.74

>  <formal_charge>  (348) 
0

>  <fractioncsp3>  (348) 
0.60

>  <number_of_minimal_rings>  (348) 
2

>  <van_der_walls_volume>  (348) 
227.30

>  <contains_sugar>  (348) 
False

>  <contains_ring_sugars>  (348) 
False

>  <contains_linear_sugars>  (348) 
False

>  <murcko_framework>  (348) 
c1ccc2c(c1)CCCC2

>  <np_likeness>  (348) 
1.86

>  <chemical_class>  (348) 
Prenol lipids

>  <chemical_sub_class>  (348) 
Sesquiterpenoids

>  <chemical_super_class>  (348) 
Lipids and lipid-like molecules

>  <direct_parent_classification>  (348) 
Sesquiterpenoids

>  <np_classifier_pathway>  (348) 
Terpenoids

>  <np_classifier_superclass>  (348) 
Sesquiterpenoids

>  <np_classifier_class>  (348) 
Cadinane sesquiterpenoids

>  <np_classifier_is_glycoside>  (348) 
False

>  <organisms>  (348) 
Corydalis tenuis|Fordia cauliflora|Glaucium pulchrum|Iphiona fragrans|Magnolia compressa|Ocotea elegans|Packera tomentosa|Pityrogramma sulphurea|Platycarya strobilacea|Sagotia racemosa|Senecio doronicum

>  <collections>  (348) 
ChemSpider NPs|Latin America dataset|NPASS|NuBBEDB|Super Natural II|WikiData Natural Products|ZINC NP

>  <dois>  (348) 
10.1016/0031-9422(89)80199-2|10.1016/S0031-9422(97)00670-5|10.1590/S0100-40422010000200017

>  <synonyms>  (348) 
Rel-(1R4S)-7-hydroxycalamenene

>  <cas>  (348) 
nan

$$$$

     RDKit          2D

 25 27  0  0  0  0  0  0  0  0999 V2000
    0.5559    3.6304    0.0000 C   0  0  0  0  0  0  0  0  0  0  0  0
    1.8891    2.9429    0.0000 C   0  0  0  0  0  0  0  0  0  0  0  0
    1.9602    1.4446    0.0000 C   0  0  0  0  0  0  0  0  0  0  0  0
    0.6982    0.6338    0.0000 C   0  0  0  0  0  0  0  0  0  0  0  0
   -0.6350    1.3214    0.0000 O   0  0  0  0  0  0  0  0  0  0  0  0
   -1.8970    0.5106    0.0000 C   0  0  0  0  0  0  0  0  0  0  0  0
   -3.2301    1.1982    0.0000 O   0  0  0  0  0  0  0  0  0  0  0  0
   -4.4921    0.3874    0.0000 C   0  0  0  0  0  0  0  0  0  0  0  0
   -5.8253    1.0750    0.0000 C   0  0  0  0  0  0  0  0  0  0  0  0
   -5.8964    2.5733    0.0000 O   0  0  0  0  0  0  0  0  0  0  0  0
   -4.4210   -1.1109    0.0000 C   0  0  0  0  0  0  0  0  0  0  0  0
   -5.6830   -1.9217    0.0000 O   0  0  0  0  0  0  0  0  0  0  0  0
   -3.0878   -1.7985    0.0000 C   0  0  0  0  0  0  0  0  0  0  0  0
   -3.0167   -3.2968    0.0000 O   0  0  0  0  0  0  0  0  0  0  0  0
   -1.8258   -0.9877    0.0000 C   0  0  0  0  0  0  0  0  0  0  0  0
   -0.4927   -1.6752    0.0000 O   0  0  0  0  0  0  0  0  0  0  0  0
    0.7693   -0.8645    0.0000 O   0  0  0  0  0  0  0  0  0  0  0  0
    2.1025   -1.5520    0.0000 C   0  0  0  0  0  0  0  0  0  0  0  0
    3.3645   -0.7413    0.0000 C   0  0  0  0  0  0  0  0  0  0  0  0
    4.6976   -1.4288    0.0000 C   0  0  0  0  0  0  0  0  0  0  0  0
    4.7688   -2.9271    0.0000 O   0  0  0  0  0  0  0  0  0  0  0  0
    5.9596   -0.6181    0.0000 O   0  0  0  0  0  0  0  0  0  0  0  0
    5.8885    0.8802    0.0000 C   0  0  0  0  0  0  0  0  0  0  0  0
    4.5554    1.5678    0.0000 C   0  0  0  0  0  0  0  0  0  0  0  0
    3.2933    0.7570    0.0000 C   0  0  0  0  0  0  0  0  0  0  0  0
  1  2  2  0
  3  2  1  1
  3  4  1  0
  4  5  1  6
  6  5  1  1
  6  7  1  0
  7  8  1  0
  8  9  1  1
  9 10  1  0
  8 11  1  0
 11 12  1  6
 11 13  1  0
 13 14  1  1
 13 15  1  0
 15 16  1  6
  4 17  1  0
 17 18  1  0
 18 19  2  0
 19 20  1  0
 20 21  2  0
 20 22  1  0
 22 23  1  0
 23 24  1  0
 25 24  1  1
 25  3  1  0
 15  6  1  0
 25 19  1  0
M  END
>  <identifier>  (349) 
CNP0256103.2

>  <canonical_smiles>  (349) 
C=C[C@@H]1[C@@H](O[C@@H]2O[C@H](CO)[C@@H](O)[C@H](O)[C@H]2O)OC=C2C(=O)OCC[C@@H]21

>  <standard_inchi>  (349) 
InChI=1S/C16H22O9/c1-2-7-8-3-4-22-14(21)9(8)6-23-15(7)25-16-13(20)12(19)11(18)10(5-17)24-16/h2,6-8,10-13,15-20H,1,3-5H2/t7-,8+,10+,11+,12-,13+,15+,16-/m0/s1

>  <standard_inchi_key>  (349) 
VSJGJMKGNMDJCI-JCHAVLMJSA-N

>  <name>  (349) 
nan

>  <iupac_name>  (349) 
(3~{R},4~{S},4~{a}~{R})-3-[(2~{S},3~{R},4~{S},5~{S},6~{R})-3,4,5-trihydroxy-6-(hydroxymethyl)tetrahydropyran-2-yl]oxy-4-vinyl-4,4~{a},5,6-tetrahydro-3~{H}-pyrano[3,4-c]pyran-8-one

>  <annotation_level>  (349) 
5

>  <total_atom_count>  (349) 
47

>  <heavy_atom_count>  (349) 
25

>  <molecular_weight>  (349) 
358.34

>  <exact_molecular_weight>  (349) 
358.12638

>  <molecular_formula>  (349) 
C16H22O9

>  <alogp>  (349) 
-1.59

>  <topological_polar_surface_area>  (349) 
134.91

>  <rotatable_bond_count>  (349) 
4

>  <hydrogen_bond_acceptors>  (349) 
9

>  <hydrogen_bond_donors>  (349) 
4

>  <hydrogen_bond_acceptors_lipinski>  (349) 
9

>  <hydrogen_bond_donors_lipinski>  (349) 
4

>  <lipinski_rule_of_five_violations>  (349) 
0

>  <aromatic_rings_count>  (349) 
0

>  <qed_drug_likeliness>  (349) 
0.35

>  <formal_charge>  (349) 
0

>  <fractioncsp3>  (349) 
0.69

>  <number_of_minimal_rings>  (349) 
3

>  <van_der_walls_volume>  (349) 
305.34

>  <contains_sugar>  (349) 
True

>  <contains_ring_sugars>  (349) 
True

>  <contains_linear_sugars>  (349) 
False

>  <murcko_framework>  (349) 
O1CC2=COC(OC3OCCCC3)CC2CC1

>  <np_likeness>  (349) 
3.01

>  <chemical_class>  (349) 
Lactones

>  <chemical_sub_class>  (349) 
Delta valerolactones

>  <chemical_super_class>  (349) 
Organoheterocyclic compounds

>  <direct_parent_classification>  (349) 
Delta valerolactones

>  <np_classifier_pathway>  (349) 
Terpenoids

>  <np_classifier_superclass>  (349) 
Monoterpenoids

>  <np_classifier_class>  (349) 
Secoiridoid monoterpenoids

>  <np_classifier_is_glycoside>  (349) 
True

>  <organisms>  (349) 
Calycophyllum spruceanum|Catharanthus roseus|Cornus officinalis|Dipsacus asperoides|Gentiana crassicaulis|Gentiana dahurica|Gentiana lactea|Gentiana scabra|Hemerocallis fulva|Lonicera japonica|Ophiorrhiza liukiuensis|Sinoadina racemosa|Swertia angustifolia|Swertia calycina|Swertia chinensis|Swertia chirata|Swertia chirayita|Swertia cincta|Swertia erythrosticta|Swertia fasciculata|Swertia franchetiana|Swertia leducii|Swertia macrosperma|Swertia mileensis|Swertia nervosa|Swertia pseudochinensis|Swertia pubescens|Swertia punicea|Tripterospermum japonicum|Tripterospermum taiwanense

>  <collections>  (349) 
CMAUP (cCollective molecular activities of useful plants)|ChemSpider NPs|Latin America dataset|NPASS|NuBBEDB|Super Natural II|WikiData Natural Products|ZINC NP

>  <dois>  (349) 
10.1016/S0031-9422(03)00153-5

>  <synonyms>  (349) 
Sweroside

>  <cas>  (349) 
nan

$$$$

     RDKit          2D

 21 23  0  0  0  0  0  0  0  0999 V2000
   -6.1435   -1.9424    0.0000 C   0  0  0  0  0  0  0  0  0  0  0  0
   -4.6990   -2.3466    0.0000 O   0  0  0  0  0  0  0  0  0  0  0  0
   -3.6267   -1.2977    0.0000 C   0  0  0  0  0  0  0  0  0  0  0  0
   -3.9989    0.1554    0.0000 C   0  0  0  0  0  0  0  0  0  0  0  0
   -2.9266    1.2043    0.0000 C   0  0  0  0  0  0  0  0  0  0  0  0
   -3.2988    2.6574    0.0000 O   0  0  0  0  0  0  0  0  0  0  0  0
   -1.4821    0.8001    0.0000 C   0  0  0  0  0  0  0  0  0  0  0  0
   -0.4098    1.8490    0.0000 C   0  0  0  0  0  0  0  0  0  0  0  0
   -0.7820    3.3021    0.0000 O   0  0  0  0  0  0  0  0  0  0  0  0
    1.0347    1.4448    0.0000 C   0  0  0  0  0  0  0  0  0  0  0  0
    2.1070    2.4937    0.0000 O   0  0  0  0  0  0  0  0  0  0  0  0
    1.4070   -0.0083    0.0000 C   0  0  0  0  0  0  0  0  0  0  0  0
    2.8515   -0.4125    0.0000 C   0  0  0  0  0  0  0  0  0  0  0  0
    3.2237   -1.8655    0.0000 C   0  0  0  0  0  0  0  0  0  0  0  0
    4.6682   -2.2697    0.0000 C   0  0  0  0  0  0  0  0  0  0  0  0
    5.7405   -1.2208    0.0000 C   0  0  0  0  0  0  0  0  0  0  0  0
    5.3683    0.2322    0.0000 C   0  0  0  0  0  0  0  0  0  0  0  0
    3.9238    0.6364    0.0000 C   0  0  0  0  0  0  0  0  0  0  0  0
    0.3347   -1.0572    0.0000 O   0  0  0  0  0  0  0  0  0  0  0  0
   -1.1099   -0.6530    0.0000 C   0  0  0  0  0  0  0  0  0  0  0  0
   -2.1822   -1.7019    0.0000 C   0  0  0  0  0  0  0  0  0  0  0  0
  1  2  1  0
  2  3  1  0
  3  4  2  0
  4  5  1  0
  5  6  1  0
  5  7  2  0
  7  8  1  0
  8  9  2  0
  8 10  1  0
 10 11  1  0
 10 12  2  0
 12 13  1  0
 13 14  2  0
 14 15  1  0
 15 16  2  0
 16 17  1  0
 17 18  2  0
 12 19  1  0
 19 20  1  0
 20 21  2  0
 21  3  1  0
 20  7  1  0
 18 13  1  0
M  END
>  <identifier>  (350) 
CNP0116129.0

>  <canonical_smiles>  (350) 
COC1=CC(O)=C2C(=O)C(O)=C(C3=CC=CC=C3)OC2=C1

>  <standard_inchi>  (350) 
InChI=1S/C16H12O5/c1-20-10-7-11(17)13-12(8-10)21-16(15(19)14(13)18)9-5-3-2-4-6-9/h2-8,17,19H,1H3

>  <standard_inchi_key>  (350) 
PVJNLMXWZXXHSZ-UHFFFAOYSA-N

>  <name>  (350) 
Izalpinin

>  <iupac_name>  (350) 
3,5-dihydroxy-7-methoxy-2-phenyl-chromen-4-one

>  <annotation_level>  (350) 
5

>  <total_atom_count>  (350) 
33

>  <heavy_atom_count>  (350) 
21

>  <molecular_weight>  (350) 
284.27

>  <exact_molecular_weight>  (350) 
284.06847

>  <molecular_formula>  (350) 
C16H12O5

>  <alogp>  (350) 
2.88

>  <topological_polar_surface_area>  (350) 
79.90

>  <rotatable_bond_count>  (350) 
2

>  <hydrogen_bond_acceptors>  (350) 
5

>  <hydrogen_bond_donors>  (350) 
2

>  <hydrogen_bond_acceptors_lipinski>  (350) 
5

>  <hydrogen_bond_donors_lipinski>  (350) 
2

>  <lipinski_rule_of_five_violations>  (350) 
0

>  <aromatic_rings_count>  (350) 
3

>  <qed_drug_likeliness>  (350) 
0.76

>  <formal_charge>  (350) 
0

>  <fractioncsp3>  (350) 
0.06

>  <number_of_minimal_rings>  (350) 
3

>  <van_der_walls_volume>  (350) 
237.54

>  <contains_sugar>  (350) 
False

>  <contains_ring_sugars>  (350) 
False

>  <contains_linear_sugars>  (350) 
False

>  <murcko_framework>  (350) 
O1c2ccccc2CC=C1c3ccccc3

>  <np_likeness>  (350) 
1.16

>  <chemical_class>  (350) 
Flavonoids

>  <chemical_sub_class>  (350) 
Flavones

>  <chemical_super_class>  (350) 
Phenylpropanoids and polyketides

>  <direct_parent_classification>  (350) 
Flavonols

>  <np_classifier_pathway>  (350) 
Shikimates and Phenylpropanoids

>  <np_classifier_superclass>  (350) 
Flavonoids

>  <np_classifier_class>  (350) 
Flavonols

>  <np_classifier_is_glycoside>  (350) 
False

>  <organisms>  (350) 
Aconitum contortum|Acrocarpia paniculata|Agardhiella tenera|Ageratum mexicanum|Alnus sieboldiana|Alpinia Chinensis|Alpinia chinensis|Alpinia japonica|Alpinia oxyphylla|Alpinia zerumbet|Alstonia spectabilis|Aniba riparia|Anodendron affine|Apis mellifera|Apis mellifera ligustica|Arnica parryi|Baccharis viminea|Bacillus litoralis|Bombus terrestris|Buxus hildebrandtii|Callicarpa acuminata|Callistemon coccineus|Capparicordis tweediana|Capparis tweediana|Carassius auratus|Cedrela salvadorensis|Cichorium intybus|Clathria basilana|Comptonia peregrina|Cotinus coggygria|Croton geayi|Dalbergia nitidula|Drypetes tessmanniana|Echinacea simulata|Eremurus chinensis|Escontria chiotilla|Eucryphia cordifolia|Flourensia resinosa|Garcinia cambogia|Glycosmis parva|Gratiola officinalis|Grindelia discoidea|Helichrysum aureum|Heliotropium pycnophyllum|Hemiselmis virescens|Hertia cheirifolia|Holothuria atra|Hylotrupes bajulus|Hypericum reptans|Iris tenuifolia|Justicia betonica|Kalanchoe spathulata|Kniphofia foliosa|Laminaria cloustoni|Licaria chrysophylla|Macaranga kurzii|Methanosarcina barkeri|Mexican propolis|Muntingia calabura|Neolitsea villosa|Nonomuraea dietziae|Nothofagus antarctica|Nothofagus spp.|Odixia angusta|Olearia nummularifolia|Ophiocordyceps heteropoda|Ormosia hosiei|Ornithoglossum viride|Ozothamnus ledifolius|Pachygone dasycarpa|Pecten caurinus|Pertusaria truncata|Petasites laevigatus|Petunia nyctaginiflora|Pinus excelsa|Pinus morrisonicola|Platyzoma microphyllum|Pocillopora eydouxi|Polypodium decumanum|Populus alba|Populus balsamifera|Populus candicans|Populus laurifolia|Pterodon apparicioi|Pteryxia terebinthina|Rhizophora tagal|Rubia tetragona|Rubus laciniatus|Salvia lavandulifolia|Saussurea salicifolia|Schizanthus tricolor|Scutellaria schachristanica|Sphaeranthus confertifolius|Stenocarpella maydis|Streptomyces corchorusii|Streptomyces ramocissimus|Strychnos amazonica|Tetracera asiatica|Tsitsikamma favus|Uncaria africana|Uvaria lucida|Viguiera pinnatilobata|Vitex rotundifolia|Vladimiria muliensis|Zebrina pendula|Zuccagnia punctata|chinese propolis

>  <collections>  (350) 
Australian natural products|CMAUP (cCollective molecular activities of useful plants)|GNPS (Global Natural Products Social Molecular Networking)|KNApSaCK|Latin America dataset|NPASS|NPEdia|NuBBEDB|Phyto4Health|Super Natural II|TCMDB-Taiwan (Traditional Chinese Medicine database)|TCMID (Traditional Chinese Medicine Integrated Database)|TIPdb (database of Taiwan indigenous plants)|UNPD (Universal Natural Products Database)|VietHerb|WikiData Natural Products|ZINC NP

>  <dois>  (350) 
10.1007/BF00630627|10.1007/S10600-011-9955-8|10.1016/0031-9422(88)80201-2|10.1016/0305-1978(78)90024-8|10.1016/J.JPBA.2014.04.037|10.1016/J.PHYTOCHEM.2008.03.011|10.1016/S0031-9422(00)83877-7|10.1016/S0031-9422(02)00666-0|10.1016/S0031-9422(96)00745-5|10.1016/S0305-1978(97)00122-1|10.1021/JF035213X|10.1021/JF902991T|10.1021/NP020078O|10.1021/np010486c|10.1021/np300660y|10.1055/S-2005-871223|10.1080/10286020600782454|10.1246/BCSJ.44.2761|10.1248/YAKUSHI1881.54.1_47|10.1515/znc-1997-9-1003

>  <synonyms>  (350) 
3,5-Dihydroxy-7-methoxyflavone|3,5-dihydroxy-7-methoxy-2-phenylchromen-4-one|480-14-8|4H-1-Benzopyran-4-one, 3,5-dihydroxy-7-methoxy-2-phenyl-|7-O-Methylgalangin|7-O-methyl_ galangin|AKOS040761918|CCG-214615|CHEMBL464966|CS-0148968|DTXSID90197377|FS-7977|HY-N8718|Isalpinin|Izalpinin, 35-dihydroxy-7-methoxyflavone|Izalpinine|LMPK12111656|SCHEMBL7551775

>  <cas>  (350) 
480-14-8

$$$$

     RDKit          2D

 32 34  0  0  0  0  0  0  0  0999 V2000
   -5.2070   -3.2852    0.0000 C   0  0  0  0  0  0  0  0  0  0  0  0
   -3.7912   -2.7896    0.0000 O   0  0  0  0  0  0  0  0  0  0  0  0
   -3.5126   -1.3157    0.0000 C   0  0  0  0  0  0  0  0  0  0  0  0
   -4.6497   -0.3374    0.0000 C   0  0  0  0  0  0  0  0  0  0  0  0
   -6.0654   -0.8330    0.0000 C   0  0  0  0  0  0  0  0  0  0  0  0
   -4.3710    1.1365    0.0000 C   0  0  0  0  0  0  0  0  0  0  0  0
   -5.5081    2.1148    0.0000 O   0  0  0  0  0  0  0  0  0  0  0  0
   -5.2294    3.5886    0.0000 C   0  0  0  0  0  0  0  0  0  0  0  0
   -6.3665    4.5669    0.0000 C   0  0  0  0  0  0  0  0  0  0  0  0
   -3.8137    4.0843    0.0000 O   0  0  0  0  0  0  0  0  0  0  0  0
   -2.9552    1.6321    0.0000 C   0  0  0  0  0  0  0  0  0  0  0  0
   -1.8181    0.6538    0.0000 C   0  0  0  0  0  0  0  0  0  0  0  0
   -2.0968   -0.8201    0.0000 C   0  0  0  0  0  0  0  0  0  0  0  0
   -0.9597   -1.7983    0.0000 C   0  0  0  0  0  0  0  0  0  0  0  0
   -1.2384   -3.2722    0.0000 O   0  0  0  0  0  0  0  0  0  0  0  0
    0.4560   -1.3027    0.0000 C   0  0  0  0  0  0  0  0  0  0  0  0
    1.5931   -2.2810    0.0000 O   0  0  0  0  0  0  0  0  0  0  0  0
    1.3145   -3.7549    0.0000 C   0  0  0  0  0  0  0  0  0  0  0  0
    2.4516   -4.7331    0.0000 C   0  0  0  0  0  0  0  0  0  0  0  0
   -0.1013   -4.2505    0.0000 O   0  0  0  0  0  0  0  0  0  0  0  0
    0.7347    0.1712    0.0000 C   0  0  0  0  0  0  0  0  0  0  0  0
    2.1505    0.6668    0.0000 C   0  0  0  0  0  0  0  0  0  0  0  0
    3.2876   -0.3115    0.0000 C   0  0  0  0  0  0  0  0  0  0  0  0
    4.7033    0.1841    0.0000 C   0  0  0  0  0  0  0  0  0  0  0  0
    4.9820    1.6580    0.0000 C   0  0  0  0  0  0  0  0  0  0  0  0
    6.3977    2.1536    0.0000 O   0  0  0  0  0  0  0  0  0  0  0  0
    7.5348    1.1754    0.0000 C   0  0  0  0  0  0  0  0  0  0  0  0
    8.9506    1.6710    0.0000 C   0  0  0  0  0  0  0  0  0  0  0  0
    7.2562   -0.2985    0.0000 O   0  0  0  0  0  0  0  0  0  0  0  0
    3.8449    2.6363    0.0000 C   0  0  0  0  0  0  0  0  0  0  0  0
    2.4291    2.1407    0.0000 C   0  0  0  0  0  0  0  0  0  0  0  0
   -0.4024    1.1495    0.0000 O   0  0  0  0  0  0  0  0  0  0  0  0
  1  2  1  0
  2  3  1  0
  3  4  2  0
  4  5  1  0
  4  6  1  0
  6  7  1  0
  7  8  1  0
  8  9  1  0
  8 10  2  0
  6 11  2  0
 11 12  1  0
 12 13  2  0
 13 14  1  0
 14 15  2  0
 14 16  1  0
 16 17  1  6
 17 18  1  0
 18 19  1  0
 18 20  2  0
 16 21  1  0
 21 22  1  1
 22 23  2  0
 23 24  1  0
 24 25  2  0
 25 26  1  0
 26 27  1  0
 27 28  1  0
 27 29  2  0
 25 30  1  0
 30 31  2  0
 21 32  1  0
 13  3  1  0
 31 22  1  0
 32 12  1  0
M  END
>  <identifier>  (351) 
CNP0357445.1

>  <canonical_smiles>  (351) 
COC1=C(C)C(OC(C)=O)=CC2=C1C(=O)[C@@H](OC(C)=O)[C@H](C1=CC=C(OC(C)=O)C=C1)O2

>  <standard_inchi>  (351) 
InChI=1S/C23H22O9/c1-11-17(30-13(3)25)10-18-19(21(11)28-5)20(27)23(31-14(4)26)22(32-18)15-6-8-16(9-7-15)29-12(2)24/h6-10,22-23H,1-5H3/t22-,23+/m0/s1

>  <standard_inchi_key>  (351) 
ASHPMUOPXZTLQY-XZOQPEGZSA-N

>  <name>  (351) 
nan

>  <iupac_name>  (351) 
[4-[(2~{S},3~{S})-3,7-diacetoxy-5-methoxy-6-methyl-4-oxo-chroman-2-yl]phenyl] acetate

>  <annotation_level>  (351) 
4

>  <total_atom_count>  (351) 
54

>  <heavy_atom_count>  (351) 
32

>  <molecular_weight>  (351) 
442.42

>  <exact_molecular_weight>  (351) 
442.12638

>  <molecular_formula>  (351) 
C23H22O9

>  <alogp>  (351) 
3.10

>  <topological_polar_surface_area>  (351) 
114.43

>  <rotatable_bond_count>  (351) 
5

>  <hydrogen_bond_acceptors>  (351) 
9

>  <hydrogen_bond_donors>  (351) 
0

>  <hydrogen_bond_acceptors_lipinski>  (351) 
9

>  <hydrogen_bond_donors_lipinski>  (351) 
0

>  <lipinski_rule_of_five_violations>  (351) 
0

>  <aromatic_rings_count>  (351) 
2

>  <qed_drug_likeliness>  (351) 
0.51

>  <formal_charge>  (351) 
0

>  <fractioncsp3>  (351) 
0.30

>  <number_of_minimal_rings>  (351) 
3

>  <van_der_walls_volume>  (351) 
nan

>  <contains_sugar>  (351) 
False

>  <contains_ring_sugars>  (351) 
False

>  <contains_linear_sugars>  (351) 
False

>  <murcko_framework>  (351) 
O1c2ccccc2CCC1c3ccccc3

>  <np_likeness>  (351) 
1.46

>  <chemical_class>  (351) 
Flavonoids

>  <chemical_sub_class>  (351) 
O-methylated flavonoids

>  <chemical_super_class>  (351) 
Phenylpropanoids and polyketides

>  <direct_parent_classification>  (351) 
5-O-methylated flavonoids

>  <np_classifier_pathway>  (351) 
Shikimates and Phenylpropanoids

>  <np_classifier_superclass>  (351) 
Flavonoids

>  <np_classifier_class>  (351) 
Dihydroflavonols

>  <np_classifier_is_glycoside>  (351) 
False

>  <organisms>  (351) 
Qualea labouriauana

>  <collections>  (351) 
Latin America dataset|NuBBEDB|WikiData Natural Products|ZINC NP

>  <dois>  (351) 
10.1016/0031-9422(81)85112-6

>  <synonyms>  (351) 
(2S 3S)-374'-Triacetate-5-methoxy-6-methylflavanone

>  <cas>  (351) 
nan

$$$$

     RDKit          2D

 31 34  0  0  0  0  0  0  0  0999 V2000
    4.8296   -4.3430    0.0000 C   0  0  0  0  0  0  0  0  0  0  0  0
    4.6371   -2.8554    0.0000 C   0  0  0  0  0  0  0  0  0  0  0  0
    3.2526   -2.2783    0.0000 C   0  0  0  0  0  0  0  0  0  0  0  0
    3.0601   -0.7907    0.0000 C   0  0  0  0  0  0  0  0  0  0  0  0
    1.6755   -0.2136    0.0000 C   0  0  0  0  0  0  0  0  0  0  0  0
    0.4835   -1.1241    0.0000 C   0  0  0  0  0  0  0  0  0  0  0  0
   -0.9011   -0.5470    0.0000 C   0  0  0  0  0  0  0  0  0  0  0  0
   -1.0935    0.9406    0.0000 C   0  0  0  0  0  0  0  0  0  0  0  0
   -0.3901    1.6288    0.0000 O   0  0  0  0  0  0  0  0  0  0  0  0
   -2.4781    1.5177    0.0000 C   0  0  0  0  0  0  0  0  0  0  0  0
   -2.6706    3.0053    0.0000 C   0  0  0  0  0  0  0  0  0  0  0  0
   -3.6701    0.6072    0.0000 C   0  0  0  0  0  0  0  0  0  0  0  0
   -5.0547    1.1843    0.0000 C   0  0  0  0  0  0  0  0  0  0  0  0
   -6.2467    0.2738    0.0000 C   0  0  0  0  0  0  0  0  0  0  0  0
   -7.6313    0.8509    0.0000 C   0  0  0  0  0  0  0  0  0  0  0  0
   -6.0542   -1.2138    0.0000 O   0  0  0  0  0  0  0  0  0  0  0  0
   -4.6697   -1.7909    0.0000 C   0  0  0  0  0  0  0  0  0  0  0  0
   -4.4772   -3.2785    0.0000 O   0  0  0  0  0  0  0  0  0  0  0  0
   -3.4776   -0.8804    0.0000 C   0  0  0  0  0  0  0  0  0  0  0  0
   -2.0931   -1.4575    0.0000 C   0  0  0  0  0  0  0  0  0  0  0  0
   -1.9006   -2.9451    0.0000 O   0  0  0  0  0  0  0  0  0  0  0  0
    1.4830    1.2740    0.0000 C   0  0  0  0  0  0  0  0  0  0  0  0
    0.6276    1.7605    0.0000 O   0  0  0  0  0  0  0  0  0  0  0  0
    2.6751    2.1845    0.0000 C   0  0  0  0  0  0  0  0  0  0  0  0
    3.4838    3.4478    0.0000 C   0  0  0  0  0  0  0  0  0  0  0  0
    1.5714    3.2003    0.0000 O   0  0  0  0  0  0  0  0  0  0  0  0
    4.0596    1.6074    0.0000 C   0  0  0  0  0  0  0  0  0  0  0  0
    5.2517    2.5179    0.0000 O   0  0  0  0  0  0  0  0  0  0  0  0
    4.2521    0.1198    0.0000 C   0  0  0  0  0  0  0  0  0  0  0  0
    5.6367   -0.4573    0.0000 C   0  0  0  0  0  0  0  0  0  0  0  0
    5.8292   -1.9449    0.0000 O   0  0  0  0  0  0  0  0  0  0  0  0
  1  2  1  0
  2  3  2  0
  3  4  1  0
  4  5  2  0
  5  6  1  0
  6  7  1  0
  7  8  2  0
  8  9  1  0
  8 10  1  0
 10 11  1  0
 10 12  2  0
 12 13  1  0
 13 14  1  0
 14 15  1  0
 14 16  1  0
 16 17  1  0
 17 18  2  0
 17 19  1  0
 19 20  2  0
 20 21  1  0
  5 22  1  0
 22 23  2  0
 22 24  1  0
 24 25  1  1
 24 26  1  0
 24 27  1  0
 27 28  1  1
 27 29  1  0
 29 30  2  0
 30 31  1  0
 31  2  1  0
 29  4  1  0
 20  7  1  0
 19 12  1  0
M  END
>  <identifier>  (352) 
CNP0356349.1

>  <canonical_smiles>  (352) 
CC1=CC2=C(CC3=C(O)C(C)=C4CC(C)OC(=O)C4=C3O)C(=O)[C@](C)(O)[C@@H](O)C2=CO1

>  <standard_inchi>  (352) 
InChI=1S/C23H24O8/c1-9-5-13-14(20(26)23(4,29)21(27)16(13)8-30-9)7-15-18(24)11(3)12-6-10(2)31-22(28)17(12)19(15)25/h5,8,10,21,24-25,27,29H,6-7H2,1-4H3/t10?,21-,23-/m0/s1

>  <standard_inchi_key>  (352) 
UJXVDLGXWVPAKY-QMVKSQMMSA-N

>  <name>  (352) 
Mycoleptone B

>  <iupac_name>  (352) 
7-[[(7~{R},8~{S})-7,8-dihydroxy-3,7-dimethyl-6-oxo-8~{H}-isochromen-5-yl]methyl]-6,8-dihydroxy-3,5-dimethyl-isochroman-1-one

>  <annotation_level>  (352) 
5

>  <total_atom_count>  (352) 
55

>  <heavy_atom_count>  (352) 
31

>  <molecular_weight>  (352) 
428.44

>  <exact_molecular_weight>  (352) 
428.14712

>  <molecular_formula>  (352) 
C23H24O8

>  <alogp>  (352) 
1.86

>  <topological_polar_surface_area>  (352) 
133.52

>  <rotatable_bond_count>  (352) 
2

>  <hydrogen_bond_acceptors>  (352) 
8

>  <hydrogen_bond_donors>  (352) 
4

>  <hydrogen_bond_acceptors_lipinski>  (352) 
8

>  <hydrogen_bond_donors_lipinski>  (352) 
4

>  <lipinski_rule_of_five_violations>  (352) 
0

>  <aromatic_rings_count>  (352) 
1

>  <qed_drug_likeliness>  (352) 
0.52

>  <formal_charge>  (352) 
0

>  <fractioncsp3>  (352) 
0.39

>  <number_of_minimal_rings>  (352) 
4

>  <van_der_walls_volume>  (352) 
nan

>  <contains_sugar>  (352) 
False

>  <contains_ring_sugars>  (352) 
False

>  <contains_linear_sugars>  (352) 
False

>  <murcko_framework>  (352) 
O1C=CC=2C(=C1)CCCC2Cc3ccc4c(c3)COCC4

>  <np_likeness>  (352) 
2.65

>  <chemical_class>  (352) 
Azaphilones

>  <chemical_sub_class>  (352) 
Azaphilones

>  <chemical_super_class>  (352) 
Organoheterocyclic compounds

>  <direct_parent_classification>  (352) 
Azaphilones

>  <np_classifier_pathway>  (352) 
Polyketides

>  <np_classifier_superclass>  (352) 
Chromanes

>  <np_classifier_class>  (352) 
Azaphilones

>  <np_classifier_is_glycoside>  (352) 
False

>  <organisms>  (352) 
Muyocopron sahnii|Mycoleptodiscus indicus

>  <collections>  (352) 
Latin America dataset|NPAtlas|NuBBEDB|WikiData Natural Products

>  <dois>  (352) 
10.1021/NP4006822|10.1021/np4006822

>  <synonyms>  (352) 
7-[[(7R,8S)-7,8-dihydroxy-3,7-dimethyl-6-oxo-8H-isochromen-5-yl]methyl]-6,8-dihydroxy-3,5-dimethyl-3,4-dihydroisochromen-1-one|CHEBI:202711|CHEMBL3104956|Mycoleptone B

>  <cas>  (352) 
nan

$$$$

     RDKit          2D

 32 36  0  0  0  0  0  0  0  0999 V2000
   -5.4158   -2.7539    0.0000 C   0  0  0  0  0  0  0  0  0  0  0  0
   -5.5678   -1.2616    0.0000 C   0  0  0  0  0  0  0  0  0  0  0  0
   -7.0110   -1.6705    0.0000 C   0  0  0  0  0  0  0  0  0  0  0  0
   -6.2210    0.0886    0.0000 C   0  0  0  0  0  0  0  0  0  0  0  0
   -5.3783    1.3295    0.0000 C   0  0  0  0  0  0  0  0  0  0  0  0
   -3.8823    1.2201    0.0000 C   0  0  0  0  0  0  0  0  0  0  0  0
   -4.5355    2.5704    0.0000 C   0  0  0  0  0  0  0  0  0  0  0  0
   -3.0395    2.4610    0.0000 C   0  0  0  0  0  0  0  0  0  0  0  0
   -1.5435    2.3516    0.0000 C   0  0  0  0  0  0  0  0  0  0  0  0
   -0.8903    1.0013    0.0000 C   0  0  0  0  0  0  0  0  0  0  0  0
   -0.2370   -0.3490    0.0000 C   0  0  0  0  0  0  0  0  0  0  0  0
   -1.7330   -0.2396    0.0000 C   0  0  0  0  0  0  0  0  0  0  0  0
   -1.0798   -1.5899    0.0000 C   0  0  0  0  0  0  0  0  0  0  0  0
    0.4162   -1.6993    0.0000 C   0  0  0  0  0  0  0  0  0  0  0  0
    1.0695   -3.0496    0.0000 O   0  0  0  0  0  0  0  0  0  0  0  0
    1.2590   -0.4584    0.0000 C   0  0  0  0  0  0  0  0  0  0  0  0
    2.7550   -0.5678    0.0000 C   0  0  0  0  0  0  0  0  0  0  0  0
    1.9122   -1.8087    0.0000 C   0  0  0  0  0  0  0  0  0  0  0  0
    3.4082   -1.9181    0.0000 C   0  0  0  0  0  0  0  0  0  0  0  0
    4.9042   -2.0275    0.0000 C   0  0  0  0  0  0  0  0  0  0  0  0
    5.7470   -0.7866    0.0000 C   0  0  0  0  0  0  0  0  0  0  0  0
    7.2430   -0.8960    0.0000 O   0  0  0  0  0  0  0  0  0  0  0  0
    5.0937    0.5636    0.0000 C   0  0  0  0  0  0  0  0  0  0  0  0
    4.9417    2.0559    0.0000 C   0  0  0  0  0  0  0  0  0  0  0  0
    6.5369    0.9725    0.0000 C   0  0  0  0  0  0  0  0  0  0  0  0
    3.5977    0.6731    0.0000 C   0  0  0  0  0  0  0  0  0  0  0  0
    2.9445    2.0233    0.0000 C   0  0  0  0  0  0  0  0  0  0  0  0
    1.4485    2.1328    0.0000 C   0  0  0  0  0  0  0  0  0  0  0  0
    0.6057    0.8919    0.0000 C   0  0  0  0  0  0  0  0  0  0  0  0
   -0.0475    2.2422    0.0000 C   0  0  0  0  0  0  0  0  0  0  0  0
   -3.2290   -0.1302    0.0000 C   0  0  0  0  0  0  0  0  0  0  0  0
   -4.0718   -1.3710    0.0000 C   0  0  0  0  0  0  0  0  0  0  0  0
  1  2  1  0
  2  3  1  0
  2  4  1  0
  4  5  1  0
  5  6  1  0
  6  7  1  1
  6  8  1  0
  8  9  1  0
  9 10  1  0
 10 11  1  6
 10 12  1  0
 12 13  2  0
 13 14  1  0
 14 15  2  0
 14 16  1  0
 16 17  1  0
 17 18  1  1
 17 19  1  0
 19 20  1  0
 20 21  1  0
 21 22  1  1
 21 23  1  0
 23 24  1  0
 23 25  1  0
 23 26  1  0
 26 27  1  0
 27 28  1  0
 28 29  1  0
 29 30  1  1
 12 31  1  0
 31 32  1  0
 32  2  1  0
 31  6  1  0
 29 10  1  0
 29 16  1  0
 26 17  1  0
M  END
>  <identifier>  (353) 
CNP0290562.5

>  <canonical_smiles>  (353) 
CC1(C)CC[C@]2(C)CC[C@]3(C)C(=CC(=O)C4[C@@]5(C)CC[C@H](O)C(C)(C)C5CC[C@]43C)C2C1

>  <standard_inchi>  (353) 
InChI=1S/C30H48O2/c1-25(2)13-14-27(5)15-16-29(7)19(20(27)18-25)17-21(31)24-28(6)11-10-23(32)26(3,4)22(28)9-12-30(24,29)8/h17,20,22-24,32H,9-16,18H2,1-8H3/t20?,22?,23-,24?,27+,28-,29+,30+/m0/s1

>  <standard_inchi_key>  (353) 
UKAIYBGRLWQHDQ-VCUIEPQISA-N

>  <name>  (353) 
(4aR,6aS,6bR,10S,12aS)-10-hydroxy-2,2,4a,6a,6b,9,9,12a-octamethyl-1,2,3,4,4a,5,6,6a,6b,7,8,8a,9,10,11,12,12a,12b,13,14b-icosahydropicen-13-one

>  <iupac_name>  (353) 
(4~{a}~{R},6~{a}~{S},6~{b}~{R},10~{S},12~{a}~{S})-10-hydroxy-2,2,4~{a},6~{a},6~{b},9,9,12~{a}-octamethyl-3,4,5,6,6~{a},7,8,8~{a},10,11,12,14~{b}-dodecahydro-1~{H}-picen-13-one

>  <annotation_level>  (353) 
5

>  <total_atom_count>  (353) 
80

>  <heavy_atom_count>  (353) 
32

>  <molecular_weight>  (353) 
440.71

>  <exact_molecular_weight>  (353) 
440.36543

>  <molecular_formula>  (353) 
C30H48O2

>  <alogp>  (353) 
7.35

>  <topological_polar_surface_area>  (353) 
37.30

>  <rotatable_bond_count>  (353) 
0

>  <hydrogen_bond_acceptors>  (353) 
2

>  <hydrogen_bond_donors>  (353) 
1

>  <hydrogen_bond_acceptors_lipinski>  (353) 
2

>  <hydrogen_bond_donors_lipinski>  (353) 
1

>  <lipinski_rule_of_five_violations>  (353) 
1

>  <aromatic_rings_count>  (353) 
0

>  <qed_drug_likeliness>  (353) 
0.43

>  <formal_charge>  (353) 
0

>  <fractioncsp3>  (353) 
0.90

>  <number_of_minimal_rings>  (353) 
5

>  <van_der_walls_volume>  (353) 
nan

>  <contains_sugar>  (353) 
False

>  <contains_ring_sugars>  (353) 
False

>  <contains_linear_sugars>  (353) 
False

>  <murcko_framework>  (353) 
C1=C2C3CCCCC3CCC2C4CCC5CCCCC5C4C1

>  <np_likeness>  (353) 
3.24

>  <chemical_class>  (353) 
Prenol lipids

>  <chemical_sub_class>  (353) 
Triterpenoids

>  <chemical_super_class>  (353) 
Lipids and lipid-like molecules

>  <direct_parent_classification>  (353) 
Oleanane triterpenoids

>  <np_classifier_pathway>  (353) 
Terpenoids

>  <np_classifier_superclass>  (353) 
Triterpenoids

>  <np_classifier_class>  (353) 
Oleanane triterpenoids

>  <np_classifier_is_glycoside>  (353) 
False

>  <organisms>  (353) 
Esenbeckia grandiflora|Launaea arborescens

>  <collections>  (353) 
ANPDB|Latin America dataset|NANPDB (Natural Products from Northern African Sources)|NuBBEDB|WikiData Natural Products

>  <dois>  (353) 
10.1016/j.phytochem.2008.09.025|10.1590/S0100-40422009000800010

>  <synonyms>  (353) 
3-beta-hydroxy-11-oxo-olean-12-ene|SCHEMBL24626903|\u221a\u00e9\u00ac\u2264-amyrenonol

>  <cas>  (353) 
nan

$$$$

     RDKit          2D

 38 42  0  0  0  0  0  0  0  0999 V2000
   -2.8851    3.6956    0.0000 C   0  0  0  0  0  0  0  0  0  0  0  0
   -4.0235    2.7188    0.0000 O   0  0  0  0  0  0  0  0  0  0  0  0
   -3.7467    1.2445    0.0000 C   0  0  0  0  0  0  0  0  0  0  0  0
   -2.3316    0.7471    0.0000 C   0  0  0  0  0  0  0  0  0  0  0  0
   -2.0548   -0.7272    0.0000 C   0  0  0  0  0  0  0  0  0  0  0  0
   -0.6397   -1.2246    0.0000 C   0  0  0  0  0  0  0  0  0  0  0  0
   -0.3629   -2.6988    0.0000 C   0  0  0  0  0  0  0  0  0  0  0  0
    1.0522   -3.1962    0.0000 C   0  0  0  0  0  0  0  0  0  0  0  0
    1.3290   -4.6705    0.0000 O   0  0  0  0  0  0  0  0  0  0  0  0
    2.1906   -2.2194    0.0000 C   0  0  0  0  0  0  0  0  0  0  0  0
    3.6057   -2.7169    0.0000 C   0  0  0  0  0  0  0  0  0  0  0  0
    3.8825   -4.1911    0.0000 O   0  0  0  0  0  0  0  0  0  0  0  0
    4.7441   -1.7400    0.0000 C   0  0  0  0  0  0  0  0  0  0  0  0
    6.1592   -2.2375    0.0000 C   0  0  0  0  0  0  0  0  0  0  0  0
    4.4673   -0.2658    0.0000 C   0  0  0  0  0  0  0  0  0  0  0  0
    5.6056    0.7110    0.0000 O   0  0  0  0  0  0  0  0  0  0  0  0
    7.0207    0.2136    0.0000 C   0  0  0  0  0  0  0  0  0  0  0  0
    8.1591    1.1904    0.0000 C   0  0  0  0  0  0  0  0  0  0  0  0
    9.5742    0.6930    0.0000 C   0  0  0  0  0  0  0  0  0  0  0  0
   10.7125    1.6698    0.0000 C   0  0  0  0  0  0  0  0  0  0  0  0
   10.4358    3.1441    0.0000 C   0  0  0  0  0  0  0  0  0  0  0  0
    9.0206    3.6415    0.0000 C   0  0  0  0  0  0  0  0  0  0  0  0
    7.8823    2.6647    0.0000 C   0  0  0  0  0  0  0  0  0  0  0  0
    3.0522    0.2316    0.0000 C   0  0  0  0  0  0  0  0  0  0  0  0
    2.7754    1.7059    0.0000 C   0  0  0  0  0  0  0  0  0  0  0  0
    1.9138   -0.7452    0.0000 C   0  0  0  0  0  0  0  0  0  0  0  0
    0.4987   -0.2478    0.0000 O   0  0  0  0  0  0  0  0  0  0  0  0
   -3.1931   -1.7040    0.0000 C   0  0  0  0  0  0  0  0  0  0  0  0
   -4.6082   -1.2066    0.0000 C   0  0  0  0  0  0  0  0  0  0  0  0
   -4.8850    0.2677    0.0000 C   0  0  0  0  0  0  0  0  0  0  0  0
   -6.3001    0.7651    0.0000 O   0  0  0  0  0  0  0  0  0  0  0  0
   -7.4385   -0.2117    0.0000 C   0  0  0  0  0  0  0  0  0  0  0  0
   -8.8536    0.2857    0.0000 C   0  0  0  0  0  0  0  0  0  0  0  0
   -9.1304    1.7600    0.0000 C   0  0  0  0  0  0  0  0  0  0  0  0
  -10.5455    2.2574    0.0000 C   0  0  0  0  0  0  0  0  0  0  0  0
  -11.6838    1.2806    0.0000 C   0  0  0  0  0  0  0  0  0  0  0  0
  -11.4071   -0.1937    0.0000 C   0  0  0  0  0  0  0  0  0  0  0  0
   -9.9919   -0.6911    0.0000 C   0  0  0  0  0  0  0  0  0  0  0  0
  1  2  1  0
  2  3  1  0
  3  4  2  0
  4  5  1  0
  6  5  1  6
  6  7  1  0
  7  8  1  0
  8  9  2  0
  8 10  1  0
 10 11  2  0
 11 12  1  0
 11 13  1  0
 13 14  1  0
 13 15  2  0
 15 16  1  0
 16 17  1  0
 17 18  1  0
 18 19  2  0
 19 20  1  0
 20 21  2  0
 21 22  1  0
 22 23  2  0
 15 24  1  0
 24 25  1  0
 24 26  2  0
 26 27  1  0
  5 28  2  0
 28 29  1  0
 29 30  2  0
 30 31  1  0
 31 32  1  0
 32 33  1  0
 33 34  2  0
 34 35  1  0
 35 36  2  0
 36 37  1  0
 37 38  2  0
 30  3  1  0
 38 33  1  0
 27  6  1  0
 26 10  1  0
 23 18  1  0
M  END
>  <identifier>  (354) 
CNP0356687.1

>  <canonical_smiles>  (354) 
COC1=CC([C@H]2CC(=O)C3=C(O)C(C)=C(OCC4=CC=CC=C4)C(C)=C3O2)=CC=C1OCC1=CC=CC=C1

>  <standard_inchi>  (354) 
InChI=1S/C32H30O6/c1-20-30(34)29-25(33)17-27(38-32(29)21(2)31(20)37-19-23-12-8-5-9-13-23)24-14-15-26(28(16-24)35-3)36-18-22-10-6-4-7-11-22/h4-16,27,34H,17-19H2,1-3H3/t27-/m1/s1

>  <standard_inchi_key>  (354) 
OFYNYTIMZLCSLV-HHHXNRCGSA-N

>  <name>  (354) 
nan

>  <iupac_name>  (354) 
(2~{R})-7-benzyloxy-2-(4-benzyloxy-3-methoxy-phenyl)-5-hydroxy-6,8-dimethyl-chroman-4-one

>  <annotation_level>  (354) 
4

>  <total_atom_count>  (354) 
68

>  <heavy_atom_count>  (354) 
38

>  <molecular_weight>  (354) 
510.59

>  <exact_molecular_weight>  (354) 
510.20424

>  <molecular_formula>  (354) 
C32H30O6

>  <alogp>  (354) 
6.88

>  <topological_polar_surface_area>  (354) 
74.22

>  <rotatable_bond_count>  (354) 
8

>  <hydrogen_bond_acceptors>  (354) 
6

>  <hydrogen_bond_donors>  (354) 
1

>  <hydrogen_bond_acceptors_lipinski>  (354) 
6

>  <hydrogen_bond_donors_lipinski>  (354) 
1

>  <lipinski_rule_of_five_violations>  (354) 
2

>  <aromatic_rings_count>  (354) 
4

>  <qed_drug_likeliness>  (354) 
0.28

>  <formal_charge>  (354) 
0

>  <fractioncsp3>  (354) 
0.22

>  <number_of_minimal_rings>  (354) 
5

>  <van_der_walls_volume>  (354) 
nan

>  <contains_sugar>  (354) 
False

>  <contains_ring_sugars>  (354) 
False

>  <contains_linear_sugars>  (354) 
False

>  <murcko_framework>  (354) 
O(c1ccc(cc1)C2Oc3cc(OCc4ccccc4)ccc3CC2)Cc5ccccc5

>  <np_likeness>  (354) 
0.81

>  <chemical_class>  (354) 
Flavonoids

>  <chemical_sub_class>  (354) 
O-methylated flavonoids

>  <chemical_super_class>  (354) 
Phenylpropanoids and polyketides

>  <direct_parent_classification>  (354) 
3'-O-methylated flavonoids

>  <np_classifier_pathway>  (354) 
Shikimates and Phenylpropanoids

>  <np_classifier_superclass>  (354) 
Flavonoids

>  <np_classifier_class>  (354) 
Flavanones

>  <np_classifier_is_glycoside>  (354) 
False

>  <organisms>  (354) 
Qualea labouriauana

>  <collections>  (354) 
Latin America dataset|NuBBEDB|WikiData Natural Products|ZINC NP

>  <dois>  (354) 
10.1016/0031-9422(81)85112-6

>  <synonyms>  (354) 
(2R)-74'-Dibenzyl-5-hydroxy-3'-methoxy-68-dimethylflavanone

>  <cas>  (354) 
nan

$$$$

     RDKit          2D

 35 39  0  0  0  0  0  0  0  0999 V2000
   -5.4981    4.6697    0.0000 C   0  0  0  0  0  0  0  0  0  0  0  0
   -4.2378    3.8563    0.0000 O   0  0  0  0  0  0  0  0  0  0  0  0
   -4.3121    2.3581    0.0000 C   0  0  0  0  0  0  0  0  0  0  0  0
   -5.6467    1.6734    0.0000 O   0  0  0  0  0  0  0  0  0  0  0  0
   -3.0518    1.5447    0.0000 C   0  0  0  0  0  0  0  0  0  0  0  0
   -3.1261    0.0465    0.0000 C   0  0  0  0  0  0  0  0  0  0  0  0
   -4.4607   -0.6382    0.0000 C   0  0  0  0  0  0  0  0  0  0  0  0
   -4.9033    0.7950    0.0000 C   0  0  0  0  0  0  0  0  0  0  0  0
   -5.9490   -0.8252    0.0000 C   0  0  0  0  0  0  0  0  0  0  0  0
   -4.5350   -2.1363    0.0000 C   0  0  0  0  0  0  0  0  0  0  0  0
   -5.8696   -2.8211    0.0000 O   0  0  0  0  0  0  0  0  0  0  0  0
   -3.2747   -2.9498    0.0000 C   0  0  0  0  0  0  0  0  0  0  0  0
   -1.9401   -2.2650    0.0000 C   0  0  0  0  0  0  0  0  0  0  0  0
   -0.5383   -2.7986    0.0000 O   0  0  0  0  0  0  0  0  0  0  0  0
    0.4024   -1.6303    0.0000 C   0  0  0  0  0  0  0  0  0  0  0  0
    1.0872   -2.9649    0.0000 C   0  0  0  0  0  0  0  0  0  0  0  0
   -0.4180   -0.3746    0.0000 C   0  0  0  0  0  0  0  0  0  0  0  0
    0.2592    0.9638    0.0000 C   0  0  0  0  0  0  0  0  0  0  0  0
    1.7569    1.0466    0.0000 C   0  0  0  0  0  0  0  0  0  0  0  0
    2.4341    2.3850    0.0000 O   0  0  0  0  0  0  0  0  0  0  0  0
    2.5774   -0.2092    0.0000 C   0  0  0  0  0  0  0  0  0  0  0  0
    3.2546    1.1293    0.0000 C   0  0  0  0  0  0  0  0  0  0  0  0
    1.9002   -1.5476    0.0000 C   0  0  0  0  0  0  0  0  0  0  0  0
    2.7207   -2.8033    0.0000 C   0  0  0  0  0  0  0  0  0  0  0  0
    4.2184   -2.7206    0.0000 C   0  0  0  0  0  0  0  0  0  0  0  0
    5.0389   -3.9763    0.0000 O   0  0  0  0  0  0  0  0  0  0  0  0
    4.8956   -1.3821    0.0000 O   0  0  0  0  0  0  0  0  0  0  0  0
    4.0751   -0.1264    0.0000 C   0  0  0  0  0  0  0  0  0  0  0  0
    4.7523    1.2120    0.0000 C   0  0  0  0  0  0  0  0  0  0  0  0
    4.0676    2.5466    0.0000 C   0  0  0  0  0  0  0  0  0  0  0  0
    5.1253    3.6102    0.0000 O   0  0  0  0  0  0  0  0  0  0  0  0
    6.4637    2.9330    0.0000 C   0  0  0  0  0  0  0  0  0  0  0  0
    6.2332    1.4508    0.0000 C   0  0  0  0  0  0  0  0  0  0  0  0
   -1.8658   -0.7669    0.0000 C   0  0  0  0  0  0  0  0  0  0  0  0
   -1.6353    0.7153    0.0000 C   0  0  0  0  0  0  0  0  0  0  0  0
  1  2  1  0
  2  3  1  0
  3  4  2  0
  3  5  1  0
  6  5  1  6
  6  7  1  0
  7  8  1  0
  7  9  1  0
  7 10  1  0
 10 11  2  0
 10 12  1  0
 12 13  2  0
 13 14  1  0
 14 15  1  0
 15 16  1  6
 15 17  1  0
 17 18  2  0
 18 19  1  0
 19 20  1  6
 19 21  1  0
 21 22  1  6
 21 23  1  0
 23 24  2  0
 24 25  1  0
 25 26  2  0
 25 27  1  0
 27 28  1  0
 28 29  1  6
 29 30  2  0
 30 31  1  0
 31 32  1  0
 32 33  2  0
 17 34  1  0
 34 35  1  6
 34  6  1  0
 34 13  1  0
 23 15  1  0
 33 29  1  0
 28 21  1  0
M  END
>  <identifier>  (355) 
CNP0176202.1

>  <canonical_smiles>  (355) 
COC(=O)C[C@H]1C(C)(C)C(=O)C=C2O[C@@]3(C)C(=C[C@H](O)[C@]4(C)C3=CC(=O)O[C@H]4C3=COC=C3)[C@@]21C

>  <standard_inchi>  (355) 
InChI=1S/C27H30O8/c1-24(2)15(10-21(30)32-6)25(3)16-9-19(29)26(4)17(27(16,5)35-20(25)12-18(24)28)11-22(31)34-23(26)14-7-8-33-13-14/h7-9,11-13,15,19,23,29H,10H2,1-6H3/t15-,19-,23-,25-,26-,27-/m0/s1

>  <standard_inchi_key>  (355) 
SUYVEZSYECIOFJ-GWOMWLRTSA-N

>  <name>  (355) 
nan

>  <iupac_name>  (355) 
methyl 2-[(4~{S},4~{a}~{S},5~{S},6~{b}~{S},7~{R},11~{a}~{R})-4-(3-furyl)-5-hydroxy-4~{a},6~{b},8,8,11~{a}-pentamethyl-2,9-dioxo-5,7-dihydro-4~{H}-benzofuro[2,3-f]isochromen-7-yl]acetate

>  <annotation_level>  (355) 
4

>  <total_atom_count>  (355) 
65

>  <heavy_atom_count>  (355) 
35

>  <molecular_weight>  (355) 
482.53

>  <exact_molecular_weight>  (355) 
482.19407

>  <molecular_formula>  (355) 
C27H30O8

>  <alogp>  (355) 
3.58

>  <topological_polar_surface_area>  (355) 
112.27

>  <rotatable_bond_count>  (355) 
3

>  <hydrogen_bond_acceptors>  (355) 
8

>  <hydrogen_bond_donors>  (355) 
1

>  <hydrogen_bond_acceptors_lipinski>  (355) 
8

>  <hydrogen_bond_donors_lipinski>  (355) 
1

>  <lipinski_rule_of_five_violations>  (355) 
0

>  <aromatic_rings_count>  (355) 
1

>  <qed_drug_likeliness>  (355) 
0.51

>  <formal_charge>  (355) 
0

>  <fractioncsp3>  (355) 
0.52

>  <number_of_minimal_rings>  (355) 
5

>  <van_der_walls_volume>  (355) 
nan

>  <contains_sugar>  (355) 
False

>  <contains_ring_sugars>  (355) 
False

>  <contains_linear_sugars>  (355) 
False

>  <murcko_framework>  (355) 
o1ccc(c1)C2OCC=C3C4OC5=CCCCC5C4=CCC32

>  <np_likeness>  (355) 
2.26

>  <chemical_class>  (355) 
Pyrans

>  <chemical_sub_class>  (355) 
Pyranones and derivatives

>  <chemical_super_class>  (355) 
Organoheterocyclic compounds

>  <direct_parent_classification>  (355) 
Dihydropyranones

>  <np_classifier_pathway>  (355) 
Terpenoids

>  <np_classifier_superclass>  (355) 
Triterpenoids

>  <np_classifier_class>  (355) 
Limonoids

>  <np_classifier_is_glycoside>  (355) 
False

>  <organisms>  (355) 
Hortia oreadica

>  <collections>  (355) 
Latin America dataset|NuBBEDB|WikiData Natural Products

>  <dois>  (355) 
10.1016/J.PHYTOCHEM.2011.12.016|10.1016/j.phytochem.2011.12.016

>  <synonyms>  (355) 
911-dehydro- 2\u221a\u00e9\u00ac\u00b1-hydroxyhortiolide A

>  <cas>  (355) 
nan

$$$$

     RDKit          2D

 33 34  0  0  0  0  0  0  0  0999 V2000
   -7.2811    0.3799    0.0000 C   0  0  0  0  0  0  0  0  0  0  0  0
   -6.0301   -0.4477    0.0000 O   0  0  0  0  0  0  0  0  0  0  0  0
   -4.6879    0.2220    0.0000 C   0  0  0  0  0  0  0  0  0  0  0  0
   -4.7482    1.2043    0.0000 O   0  0  0  0  0  0  0  0  0  0  0  0
   -3.4368   -0.6056    0.0000 C   0  0  0  0  0  0  0  0  0  0  0  0
   -2.0946    0.0640    0.0000 C   0  0  0  0  0  0  0  0  0  0  0  0
   -2.0034    1.5613    0.0000 C   0  0  0  0  0  0  0  0  0  0  0  0
   -3.2544    2.3889    0.0000 C   0  0  0  0  0  0  0  0  0  0  0  0
   -4.1821    2.0601    0.0000 O   0  0  0  0  0  0  0  0  0  0  0  0
   -3.1633    3.8861    0.0000 O   0  0  0  0  0  0  0  0  0  0  0  0
   -4.4143    4.7137    0.0000 C   0  0  0  0  0  0  0  0  0  0  0  0
   -0.6612    2.2309    0.0000 C   0  0  0  0  0  0  0  0  0  0  0  0
    0.5899    1.4033    0.0000 O   0  0  0  0  0  0  0  0  0  0  0  0
    0.4987   -0.0939    0.0000 C   0  0  0  0  0  0  0  0  0  0  0  0
    1.7497   -0.9215    0.0000 O   0  0  0  0  0  0  0  0  0  0  0  0
    3.0920   -0.2518    0.0000 C   0  0  0  0  0  0  0  0  0  0  0  0
    4.3430   -1.0794    0.0000 O   0  0  0  0  0  0  0  0  0  0  0  0
    5.6852   -0.4098    0.0000 C   0  0  0  0  0  0  0  0  0  0  0  0
    6.9363   -1.2373    0.0000 C   0  0  0  0  0  0  0  0  0  0  0  0
    6.8451   -2.7346    0.0000 O   0  0  0  0  0  0  0  0  0  0  0  0
    5.7764    1.0875    0.0000 C   0  0  0  0  0  0  0  0  0  0  0  0
    7.1186    1.7571    0.0000 O   0  0  0  0  0  0  0  0  0  0  0  0
    4.5254    1.9150    0.0000 C   0  0  0  0  0  0  0  0  0  0  0  0
    4.6165    3.4123    0.0000 O   0  0  0  0  0  0  0  0  0  0  0  0
    3.1831    1.2454    0.0000 C   0  0  0  0  0  0  0  0  0  0  0  0
    1.9321    2.0730    0.0000 O   0  0  0  0  0  0  0  0  0  0  0  0
   -0.8435   -0.7635    0.0000 C   0  0  0  0  0  0  0  0  0  0  0  0
   -0.9347   -2.2608    0.0000 C   0  0  0  0  0  0  0  0  0  0  0  0
    0.3163   -3.0883    0.0000 C   0  0  0  0  0  0  0  0  0  0  0  0
   -2.2770   -2.9304    0.0000 O   0  0  0  0  0  0  0  0  0  0  0  0
   -2.3681   -4.4276    0.0000 C   0  0  0  0  0  0  0  0  0  0  0  0
   -3.7104   -5.0973    0.0000 C   0  0  0  0  0  0  0  0  0  0  0  0
   -1.1171   -5.2552    0.0000 O   0  0  0  0  0  0  0  0  0  0  0  0
  1  2  1  0
  2  3  1  0
  3  4  2  0
  3  5  1  0
  6  5  1  6
  6  7  1  0
  7  8  1  0
  8  9  2  0
  8 10  1  0
 10 11  1  0
  7 12  2  0
 12 13  1  0
 13 14  1  0
 14 15  1  1
 16 15  1  1
 16 17  1  0
 17 18  1  0
 18 19  1  1
 19 20  1  0
 18 21  1  0
 21 22  1  6
 21 23  1  0
 23 24  1  1
 23 25  1  0
 25 26  1  6
 14 27  1  0
 27 28  1  6
 28 29  1  6
 28 30  1  0
 30 31  1  0
 31 32  1  0
 31 33  2  0
 27  6  1  0
 25 16  1  0
M  END
>  <identifier>  (356) 
CNP0230572.1

>  <canonical_smiles>  (356) 
COC(=O)C[C@@H]1C(C(=O)OC)=CO[C@@H](O[C@@H]2O[C@H](CO)[C@@H](O)[C@H](O)[C@H]2O)[C@@H]1[C@H](C)OC(C)=O

>  <standard_inchi>  (356) 
InChI=1S/C20H30O13/c1-8(31-9(2)22)14-10(5-13(23)28-3)11(18(27)29-4)7-30-19(14)33-20-17(26)16(25)15(24)12(6-21)32-20/h7-8,10,12,14-17,19-21,24-26H,5-6H2,1-4H3/t8-,10+,12+,14+,15+,16-,17+,19-,20-/m0/s1

>  <standard_inchi_key>  (356) 
GHGFDNVEGGUXDM-XDZSTEIDSA-N

>  <name>  (356) 
nan

>  <iupac_name>  (356) 
methyl (2~{S},3~{S},4~{S})-3-[(1~{S})-1-acetoxyethyl]-4-(2-methoxy-2-oxo-ethyl)-2-[(2~{S},3~{R},4~{S},5~{S},6~{R})-3,4,5-trihydroxy-6-(hydroxymethyl)tetrahydropyran-2-yl]oxy-3,4-dihydro-2~{H}-pyran-5-carboxylate

>  <annotation_level>  (356) 
5

>  <total_atom_count>  (356) 
63

>  <heavy_atom_count>  (356) 
33

>  <molecular_weight>  (356) 
478.45

>  <exact_molecular_weight>  (356) 
478.16864

>  <molecular_formula>  (356) 
C20H30O13

>  <alogp>  (356) 
-2.04

>  <topological_polar_surface_area>  (356) 
187.51

>  <rotatable_bond_count>  (356) 
8

>  <hydrogen_bond_acceptors>  (356) 
13

>  <hydrogen_bond_donors>  (356) 
4

>  <hydrogen_bond_acceptors_lipinski>  (356) 
13

>  <hydrogen_bond_donors_lipinski>  (356) 
4

>  <lipinski_rule_of_five_violations>  (356) 
1

>  <aromatic_rings_count>  (356) 
0

>  <qed_drug_likeliness>  (356) 
0.22

>  <formal_charge>  (356) 
0

>  <fractioncsp3>  (356) 
0.75

>  <number_of_minimal_rings>  (356) 
2

>  <van_der_walls_volume>  (356) 
411.08

>  <contains_sugar>  (356) 
True

>  <contains_ring_sugars>  (356) 
True

>  <contains_linear_sugars>  (356) 
False

>  <murcko_framework>  (356) 
O1C=CCCC1OC2OCCCC2

>  <np_likeness>  (356) 
2.22

>  <chemical_class>  (356) 
Prenol lipids

>  <chemical_sub_class>  (356) 
Monoterpenoids

>  <chemical_super_class>  (356) 
Lipids and lipid-like molecules

>  <direct_parent_classification>  (356) 
Iridoids and derivatives

>  <np_classifier_pathway>  (356) 
Terpenoids

>  <np_classifier_superclass>  (356) 
Monoterpenoids

>  <np_classifier_class>  (356) 
Secoiridoid monoterpenoids

>  <np_classifier_is_glycoside>  (356) 
True

>  <organisms>  (356) 
Calycophyllum spruceanum

>  <collections>  (356) 
ChemSpider NPs|Latin America dataset|NuBBEDB|Super Natural II|WikiData Natural Products|ZINC NP

>  <dois>  (356) 
10.1002/CHIN.200402178|10.1016/S0031-9422(03)00153-5

>  <synonyms>  (356) 
7-Methoxydiderroside

>  <cas>  (356) 
nan

$$$$

     RDKit          2D

 38 38  0  0  0  0  0  0  0  0999 V2000
  -22.8990    0.5390    0.0000 C   0  0  0  0  0  0  0  0  0  0  0  0
  -21.6099   -0.2280    0.0000 C   0  0  0  0  0  0  0  0  0  0  0  0
  -20.3011    0.5048    0.0000 C   0  0  0  0  0  0  0  0  0  0  0  0
  -19.0121   -0.2623    0.0000 C   0  0  0  0  0  0  0  0  0  0  0  0
  -17.7033    0.4705    0.0000 C   0  0  0  0  0  0  0  0  0  0  0  0
  -16.4142   -0.2966    0.0000 C   0  0  0  0  0  0  0  0  0  0  0  0
  -15.1054    0.4362    0.0000 C   0  0  0  0  0  0  0  0  0  0  0  0
  -13.8164   -0.3309    0.0000 C   0  0  0  0  0  0  0  0  0  0  0  0
  -12.5076    0.4019    0.0000 C   0  0  0  0  0  0  0  0  0  0  0  0
  -11.2185   -0.3652    0.0000 C   0  0  0  0  0  0  0  0  0  0  0  0
   -9.9097    0.3676    0.0000 C   0  0  0  0  0  0  0  0  0  0  0  0
   -8.6207   -0.3994    0.0000 C   0  0  0  0  0  0  0  0  0  0  0  0
   -7.3119    0.3334    0.0000 C   0  0  0  0  0  0  0  0  0  0  0  0
   -6.0228   -0.4337    0.0000 C   0  0  0  0  0  0  0  0  0  0  0  0
   -4.7140    0.2991    0.0000 C   0  0  0  0  0  0  0  0  0  0  0  0
   -3.4250   -0.4680    0.0000 C   0  0  0  0  0  0  0  0  0  0  0  0
   -2.1162    0.2648    0.0000 C   0  0  0  0  0  0  0  0  0  0  0  0
   -0.8271   -0.5023    0.0000 C   0  0  0  0  0  0  0  0  0  0  0  0
    0.4817    0.2305    0.0000 C   0  0  0  0  0  0  0  0  0  0  0  0
    1.7707   -0.5366    0.0000 C   0  0  0  0  0  0  0  0  0  0  0  0
    3.0795    0.1962    0.0000 C   0  0  0  0  0  0  0  0  0  0  0  0
    4.3686   -0.5708    0.0000 C   0  0  0  0  0  0  0  0  0  0  0  0
    5.6774    0.1619    0.0000 C   0  0  0  0  0  0  0  0  0  0  0  0
    6.9664   -0.6051    0.0000 C   0  0  0  0  0  0  0  0  0  0  0  0
    8.2752    0.1277    0.0000 O   0  0  0  0  0  0  0  0  0  0  0  0
    9.5643   -0.6394    0.0000 C   0  0  0  0  0  0  0  0  0  0  0  0
    9.5445   -2.1393    0.0000 O   0  0  0  0  0  0  0  0  0  0  0  0
   10.8731    0.0934    0.0000 C   0  0  0  0  0  0  0  0  0  0  0  0
   12.1621   -0.6737    0.0000 C   0  0  0  0  0  0  0  0  0  0  0  0
   13.4709    0.0591    0.0000 C   0  0  0  0  0  0  0  0  0  0  0  0
   13.4907    1.5590    0.0000 C   0  0  0  0  0  0  0  0  0  0  0  0
   14.7995    2.2918    0.0000 C   0  0  0  0  0  0  0  0  0  0  0  0
   16.0886    1.5247    0.0000 C   0  0  0  0  0  0  0  0  0  0  0  0
   17.3974    2.2575    0.0000 O   0  0  0  0  0  0  0  0  0  0  0  0
   16.0688    0.0248    0.0000 C   0  0  0  0  0  0  0  0  0  0  0  0
   17.3578   -0.7423    0.0000 O   0  0  0  0  0  0  0  0  0  0  0  0
   17.3380   -2.2421    0.0000 C   0  0  0  0  0  0  0  0  0  0  0  0
   14.7600   -0.7080    0.0000 C   0  0  0  0  0  0  0  0  0  0  0  0
  1  2  1  0
  2  3  1  0
  3  4  1  0
  4  5  1  0
  5  6  1  0
  6  7  1  0
  7  8  1  0
  8  9  1  0
  9 10  1  0
 10 11  1  0
 11 12  1  0
 12 13  1  0
 13 14  1  0
 14 15  1  0
 15 16  1  0
 16 17  1  0
 17 18  1  0
 18 19  1  0
 19 20  1  0
 20 21  1  0
 21 22  1  0
 22 23  1  0
 23 24  1  0
 24 25  1  0
 25 26  1  0
 26 27  2  0
 26 28  1  0
 28 29  2  0
 29 30  1  0
 30 31  2  0
 31 32  1  0
 32 33  2  0
 33 34  1  0
 33 35  1  0
 35 36  1  0
 36 37  1  0
 35 38  2  0
 38 30  1  0
M  END
>  <identifier>  (357) 
CNP0139406.1

>  <canonical_smiles>  (357) 
CCCCCCCCCCCCCCCCCCCCCCCCOC(=O)/C=C/C1=CC=C(O)C(OC)=C1

>  <standard_inchi>  (357) 
InChI=1S/C34H58O4/c1-3-4-5-6-7-8-9-10-11-12-13-14-15-16-17-18-19-20-21-22-23-24-29-38-34(36)28-26-31-25-27-32(35)33(30-31)37-2/h25-28,30,35H,3-24,29H2,1-2H3/b28-26+

>  <standard_inchi_key>  (357) 
VUUWEVURXOCTGG-BYCLXTJYSA-N

>  <name>  (357) 
nan

>  <iupac_name>  (357) 
nan

>  <annotation_level>  (357) 
0

>  <total_atom_count>  (357) 
96

>  <heavy_atom_count>  (357) 
38

>  <molecular_weight>  (357) 
530.83

>  <exact_molecular_weight>  (357) 
530.43351

>  <molecular_formula>  (357) 
C34H58O4

>  <alogp>  (357) 
10.56

>  <topological_polar_surface_area>  (357) 
55.76

>  <rotatable_bond_count>  (357) 
26

>  <hydrogen_bond_acceptors>  (357) 
4

>  <hydrogen_bond_donors>  (357) 
1

>  <hydrogen_bond_acceptors_lipinski>  (357) 
4

>  <hydrogen_bond_donors_lipinski>  (357) 
1

>  <lipinski_rule_of_five_violations>  (357) 
2

>  <aromatic_rings_count>  (357) 
1

>  <qed_drug_likeliness>  (357) 
0.07

>  <formal_charge>  (357) 
0

>  <fractioncsp3>  (357) 
0.74

>  <number_of_minimal_rings>  (357) 
1

>  <van_der_walls_volume>  (357) 
572.58

>  <contains_sugar>  (357) 
False

>  <contains_ring_sugars>  (357) 
False

>  <contains_linear_sugars>  (357) 
False

>  <murcko_framework>  (357) 
c1ccccc1

>  <np_likeness>  (357) 
0.40

>  <chemical_class>  (357) 
nan

>  <chemical_sub_class>  (357) 
nan

>  <chemical_super_class>  (357) 
nan

>  <direct_parent_classification>  (357) 
nan

>  <np_classifier_pathway>  (357) 
nan

>  <np_classifier_superclass>  (357) 
nan

>  <np_classifier_class>  (357) 
nan

>  <np_classifier_is_glycoside>  (357) 
False

>  <organisms>  (357) 
Acacia dealbata|Ardisia virens|Arnebia euchroma|Callyspongia siphonella|Calyptranthes pallens|Calyptranthes williamsii|Croton megalocarpus|Dendrobium loddigesii|Engelhardia roxburghiana|Eucalyptus coccifera|Gmelina vitiensis|Hibiscus taiwanensis|Melicope semecarpifolia|Muntingia calabura|Myrcia neopallens|Ocotea|Ocotea sp|Pinus radiata|Piper sintenense|Pseudotsuga menziesii|Quercus alba|Reissantia buchananii|Rhizomnium magnifolium|Schnella guianensis|Zanthoxylum ailanthoides|Zanthoxylum dimorphophyllum|Zanthoxylum schinifolium|Zanthoxylum simulans

>  <collections>  (357) 
Australian natural products|CMAUP (cCollective molecular activities of useful plants)|KNApSaCK|Latin America dataset|NPASS|NuBBEDB|Super Natural II|TIPdb (database of Taiwan indigenous plants)|WikiData Natural Products|ZINC NP

>  <dois>  (357) 
10.1002/CHIN.200533256|10.1002/JCCS.200300178|10.1002/JCCS.200400099|10.1002/JCCS.200400100|10.1002/pca.964|10.1016/0031-9422(75)85390-8|10.1016/0031-9422(92)80362-I|10.1016/J.BMC.2005.07.050|10.1016/J.PHYTOCHEM.2007.01.018|10.1016/J.PHYTOCHEM.2009.09.006|10.1016/S0031-9422(00)85244-9|10.1016/S0031-9422(97)00280-X|10.1016/S0305-1978(97)00048-3|10.1021/JF00085A026|10.1021/NP010122K|10.1021/NP010599W|10.1021/NP030241V|10.1021/NP0496688|10.1021/NP50111A014|10.1055/S-2000-8648|10.1055/S-2002-35660|10.1248/CPB.53.56|10.1515/ZNC-1986-1-224|10.1515/hfsg.1977.31.1.20

>  <synonyms>  (357) 
nan

>  <cas>  (357) 
nan

$$$$

     RDKit          2D

 34 35  0  0  0  0  0  0  0  0999 V2000
   -9.8620   -3.6923    0.0000 C   0  0  0  0  0  0  0  0  0  0  0  0
   -8.7709   -2.6630    0.0000 C   0  0  0  0  0  0  0  0  0  0  0  0
   -9.1168   -1.2034    0.0000 O   0  0  0  0  0  0  0  0  0  0  0  0
   -7.3339   -3.0932    0.0000 O   0  0  0  0  0  0  0  0  0  0  0  0
   -6.2428   -2.0639    0.0000 C   0  0  0  0  0  0  0  0  0  0  0  0
   -4.8059   -2.4942    0.0000 C   0  0  0  0  0  0  0  0  0  0  0  0
   -3.7148   -1.4648    0.0000 C   0  0  0  0  0  0  0  0  0  0  0  0
   -2.2778   -1.8951    0.0000 C   0  0  0  0  0  0  0  0  0  0  0  0
   -4.0606   -0.0052    0.0000 C   0  0  0  0  0  0  0  0  0  0  0  0
   -2.9696    1.0241    0.0000 O   0  0  0  0  0  0  0  0  0  0  0  0
   -3.3154    2.4837    0.0000 C   0  0  0  0  0  0  0  0  0  0  0  0
   -3.1412    3.9735    0.0000 C   0  0  0  0  0  0  0  0  0  0  0  0
   -1.8180    2.5708    0.0000 C   0  0  0  0  0  0  0  0  0  0  0  0
   -0.9937    1.3176    0.0000 C   0  0  0  0  0  0  0  0  0  0  0  0
    0.5037    1.4047    0.0000 C   0  0  0  0  0  0  0  0  0  0  0  0
    1.1770    2.7452    0.0000 C   0  0  0  0  0  0  0  0  0  0  0  0
    0.3527    3.9984    0.0000 C   0  0  0  0  0  0  0  0  0  0  0  0
    2.6744    2.8323    0.0000 C   0  0  0  0  0  0  0  0  0  0  0  0
    3.4987    1.5791    0.0000 C   0  0  0  0  0  0  0  0  0  0  0  0
    4.9961    1.6662    0.0000 C   0  0  0  0  0  0  0  0  0  0  0  0
    5.8203    0.4130    0.0000 C   0  0  0  0  0  0  0  0  0  0  0  0
    7.3178    0.5001    0.0000 C   0  0  0  0  0  0  0  0  0  0  0  0
    8.1420   -0.7531    0.0000 C   0  0  0  0  0  0  0  0  0  0  0  0
    9.6395   -0.6660    0.0000 C   0  0  0  0  0  0  0  0  0  0  0  0
   10.4637   -1.9192    0.0000 C   0  0  0  0  0  0  0  0  0  0  0  0
   11.9612   -1.8320    0.0000 C   0  0  0  0  0  0  0  0  0  0  0  0
    9.7905   -3.2596    0.0000 C   0  0  0  0  0  0  0  0  0  0  0  0
    5.1471   -0.9275    0.0000 C   0  0  0  0  0  0  0  0  0  0  0  0
    3.6496   -1.0146    0.0000 O   0  0  0  0  0  0  0  0  0  0  0  0
    5.9713   -2.1807    0.0000 O   0  0  0  0  0  0  0  0  0  0  0  0
   -4.7524    2.9139    0.0000 C   0  0  0  0  0  0  0  0  0  0  0  0
   -5.8435    1.8846    0.0000 C   0  0  0  0  0  0  0  0  0  0  0  0
   -5.4976    0.4250    0.0000 C   0  0  0  0  0  0  0  0  0  0  0  0
   -6.5887   -0.6043    0.0000 C   0  0  0  0  0  0  0  0  0  0  0  0
  1  2  1  0
  2  3  2  0
  2  4  1  0
  4  5  1  0
  5  6  2  0
  6  7  1  0
  7  8  1  0
  7  9  2  0
  9 10  1  0
 10 11  1  0
 11 12  1  0
 11 13  1  0
 13 14  1  0
 14 15  1  0
 15 16  2  0
 16 17  1  0
 16 18  1  0
 18 19  1  0
 19 20  1  0
 20 21  2  0
 21 22  1  0
 22 23  1  0
 23 24  1  0
 24 25  2  0
 25 26  1  0
 25 27  1  0
 21 28  1  0
 28 29  2  0
 28 30  1  0
 11 31  1  0
 31 32  1  0
 32 33  1  0
 33 34  2  0
 34  5  1  0
 33  9  1  0
M  END
>  <identifier>  (358) 
CNP0080389.2

>  <canonical_smiles>  (358) 
CC(=O)OC1=CC(C)=C2OC(C)(CC/C=C(\C)CC/C=C(/CCC=C(C)C)C(=O)O)CCC2=C1

>  <standard_inchi>  (358) 
InChI=1S/C29H40O5/c1-20(2)10-7-13-24(28(31)32)14-8-11-21(3)12-9-16-29(6)17-15-25-19-26(33-23(5)30)18-22(4)27(25)34-29/h10,12,14,18-19H,7-9,11,13,15-17H2,1-6H3,(H,31,32)/b21-12+,24-14-

>  <standard_inchi_key>  (358) 
BOCBWXAVGJRZPL-ZCVJUDRVSA-N

>  <name>  (358) 
nan

>  <iupac_name>  (358) 
nan

>  <annotation_level>  (358) 
0

>  <total_atom_count>  (358) 
74

>  <heavy_atom_count>  (358) 
34

>  <molecular_weight>  (358) 
468.63

>  <exact_molecular_weight>  (358) 
468.28757

>  <molecular_formula>  (358) 
C29H40O5

>  <alogp>  (358) 
7.27

>  <topological_polar_surface_area>  (358) 
72.83

>  <rotatable_bond_count>  (358) 
11

>  <hydrogen_bond_acceptors>  (358) 
4

>  <hydrogen_bond_donors>  (358) 
1

>  <hydrogen_bond_acceptors_lipinski>  (358) 
4

>  <hydrogen_bond_donors_lipinski>  (358) 
1

>  <lipinski_rule_of_five_violations>  (358) 
1

>  <aromatic_rings_count>  (358) 
1

>  <qed_drug_likeliness>  (358) 
0.16

>  <formal_charge>  (358) 
0

>  <fractioncsp3>  (358) 
0.52

>  <number_of_minimal_rings>  (358) 
2

>  <van_der_walls_volume>  (358) 
468.18

>  <contains_sugar>  (358) 
False

>  <contains_ring_sugars>  (358) 
False

>  <contains_linear_sugars>  (358) 
False

>  <murcko_framework>  (358) 
O1c2ccccc2CCC1

>  <np_likeness>  (358) 
2.14

>  <chemical_class>  (358) 
nan

>  <chemical_sub_class>  (358) 
nan

>  <chemical_super_class>  (358) 
nan

>  <direct_parent_classification>  (358) 
nan

>  <np_classifier_pathway>  (358) 
Terpenoids

>  <np_classifier_superclass>  (358) 
Meroterpenoids

>  <np_classifier_class>  (358) 
Prenyl quinone meroterpenoids

>  <np_classifier_is_glycoside>  (358) 
False

>  <organisms>  (358) 
Iryanthera grandis

>  <collections>  (358) 
Latin America dataset|NuBBEDB|WikiData Natural Products

>  <dois>  (358) 
10.1016/S0031-9422(00)80162-4

>  <synonyms>  (358) 
nan

>  <cas>  (358) 
nan

$$$$

     RDKit          2D

 22 25  0  0  0  0  0  0  0  0999 V2000
   -7.4658   -0.1651    0.0000 C   0  0  0  0  0  0  0  0  0  0  0  0
   -6.3715   -1.1910    0.0000 O   0  0  0  0  0  0  0  0  0  0  0  0
   -4.9359   -0.7562    0.0000 C   0  0  0  0  0  0  0  0  0  0  0  0
   -4.5946    0.7045    0.0000 C   0  0  0  0  0  0  0  0  0  0  0  0
   -3.1590    1.1393    0.0000 C   0  0  0  0  0  0  0  0  0  0  0  0
   -2.0647    0.1134    0.0000 C   0  0  0  0  0  0  0  0  0  0  0  0
   -0.6291    0.5482    0.0000 C   0  0  0  0  0  0  0  0  0  0  0  0
   -0.2878    2.0088    0.0000 C   0  0  0  0  0  0  0  0  0  0  0  0
    1.1478    2.4436    0.0000 C   0  0  0  0  0  0  0  0  0  0  0  0
    1.4890    3.9043    0.0000 O   0  0  0  0  0  0  0  0  0  0  0  0
    2.2421    1.4178    0.0000 C   0  0  0  0  0  0  0  0  0  0  0  0
    3.6777    1.8525    0.0000 C   0  0  0  0  0  0  0  0  0  0  0  0
    4.7721    0.8267    0.0000 C   0  0  0  0  0  0  0  0  0  0  0  0
    4.4308   -0.6340    0.0000 C   0  0  0  0  0  0  0  0  0  0  0  0
    5.2879   -1.8650    0.0000 O   0  0  0  0  0  0  0  0  0  0  0  0
    4.3821   -3.0606    0.0000 C   0  0  0  0  0  0  0  0  0  0  0  0
    2.9651   -2.5685    0.0000 C   0  0  0  0  0  0  0  0  0  0  0  0
    2.9952   -1.0688    0.0000 C   0  0  0  0  0  0  0  0  0  0  0  0
    1.9009   -0.0429    0.0000 C   0  0  0  0  0  0  0  0  0  0  0  0
    0.4653   -0.4777    0.0000 O   0  0  0  0  0  0  0  0  0  0  0  0
   -2.4059   -1.3473    0.0000 C   0  0  0  0  0  0  0  0  0  0  0  0
   -3.8416   -1.7821    0.0000 C   0  0  0  0  0  0  0  0  0  0  0  0
  1  2  1  0
  2  3  1  0
  3  4  2  0
  4  5  1  0
  5  6  2  0
  6  7  1  0
  7  8  2  0
  8  9  1  0
  9 10  2  0
  9 11  1  0
 11 12  2  0
 12 13  1  0
 13 14  2  0
 14 15  1  0
 15 16  1  0
 16 17  2  0
 17 18  1  0
 18 19  2  0
 19 20  1  0
  6 21  1  0
 21 22  2  0
 22  3  1  0
 20  7  1  0
 19 11  1  0
 18 14  1  0
M  END
>  <identifier>  (359) 
CNP0216247.0

>  <canonical_smiles>  (359) 
COC1=CC=C(C2=CC(=O)C3=CC=C4OC=CC4=C3O2)C=C1

>  <standard_inchi>  (359) 
InChI=1S/C18H12O4/c1-20-12-4-2-11(3-5-12)17-10-15(19)13-6-7-16-14(8-9-21-16)18(13)22-17/h2-10H,1H3

>  <standard_inchi_key>  (359) 
TVQDAUGFXODUEY-UHFFFAOYSA-N

>  <name>  (359) 
2-(4-Methoxyphenyl)-4H-furo[2,3-h]-1-benzopyran-4-one

>  <iupac_name>  (359) 
2-(4-methoxyphenyl)furo[2,3-h]chromen-4-one

>  <annotation_level>  (359) 
5

>  <total_atom_count>  (359) 
34

>  <heavy_atom_count>  (359) 
22

>  <molecular_weight>  (359) 
292.29

>  <exact_molecular_weight>  (359) 
292.07356

>  <molecular_formula>  (359) 
C18H12O4

>  <alogp>  (359) 
4.21

>  <topological_polar_surface_area>  (359) 
52.58

>  <rotatable_bond_count>  (359) 
2

>  <hydrogen_bond_acceptors>  (359) 
4

>  <hydrogen_bond_donors>  (359) 
0

>  <hydrogen_bond_acceptors_lipinski>  (359) 
4

>  <hydrogen_bond_donors_lipinski>  (359) 
0

>  <lipinski_rule_of_five_violations>  (359) 
0

>  <aromatic_rings_count>  (359) 
4

>  <qed_drug_likeliness>  (359) 
0.55

>  <formal_charge>  (359) 
0

>  <fractioncsp3>  (359) 
0.06

>  <number_of_minimal_rings>  (359) 
4

>  <van_der_walls_volume>  (359) 
248.34

>  <contains_sugar>  (359) 
False

>  <contains_ring_sugars>  (359) 
False

>  <contains_linear_sugars>  (359) 
False

>  <murcko_framework>  (359) 
o1ccc2c1ccc3c2OC(=CC3)c4ccccc4

>  <np_likeness>  (359) 
0.69

>  <chemical_class>  (359) 
Flavonoids

>  <chemical_sub_class>  (359) 
Flavones

>  <chemical_super_class>  (359) 
Phenylpropanoids and polyketides

>  <direct_parent_classification>  (359) 
Furanoflavones

>  <np_classifier_pathway>  (359) 
Shikimates and Phenylpropanoids

>  <np_classifier_superclass>  (359) 
Flavonoids

>  <np_classifier_class>  (359) 
Flavones

>  <np_classifier_is_glycoside>  (359) 
False

>  <organisms>  (359) 
Derris mollis|Lonchocarpus montanus|Muellera montana

>  <collections>  (359) 
KNApSaCK|Latin America dataset|NPEdia|NuBBEDB|Super Natural II|UNPD (Universal Natural Products Database)|WikiData Natural Products|ZINC NP

>  <dois>  (359) 
10.1211/JPP.61.02.0017|10.1211/jpp/61.02.0017

>  <synonyms>  (359) 
2-(4-Methoxyphenyl)-4H-furo[2,3-h]-1-benzopyran-4-one|2-(4-methoxyphenyl)uro[2,3-h]chromen-4-one|4'-methoxylanceolatin|4H-Furo[2,3-h]-1-benzopyran-4-one, 2-(4-methoxyphenyl)-|70894-15-4|CHEBI:196227|CHEMBL224211|DTXSID10452298|LMPK12110028

>  <cas>  (359) 
nan

$$$$

     RDKit          2D

 20 20  0  0  0  0  0  0  0  0999 V2000
   -6.4966    1.9926    0.0000 C   0  0  0  0  0  0  0  0  0  0  0  0
   -5.0852    1.4847    0.0000 C   0  0  0  0  0  0  0  0  0  0  0  0
   -3.9396    2.4531    0.0000 C   0  0  0  0  0  0  0  0  0  0  0  0
   -4.8193    0.0084    0.0000 C   0  0  0  0  0  0  0  0  0  0  0  0
   -3.4079   -0.4994    0.0000 C   0  0  0  0  0  0  0  0  0  0  0  0
   -3.1420   -1.9757    0.0000 C   0  0  0  0  0  0  0  0  0  0  0  0
   -1.7306   -2.4836    0.0000 C   0  0  0  0  0  0  0  0  0  0  0  0
   -1.4647   -3.9598    0.0000 C   0  0  0  0  0  0  0  0  0  0  0  0
   -0.5851   -1.5152    0.0000 C   0  0  0  0  0  0  0  0  0  0  0  0
    0.8263   -2.0231    0.0000 C   0  0  0  0  0  0  0  0  0  0  0  0
    1.9719   -1.0547    0.0000 C   0  0  0  0  0  0  0  0  0  0  0  0
    1.7060    0.4216    0.0000 C   0  0  0  0  0  0  0  0  0  0  0  0
    2.8515    1.3899    0.0000 C   0  0  0  0  0  0  0  0  0  0  0  0
    2.5857    2.8662    0.0000 C   0  0  0  0  0  0  0  0  0  0  0  0
    1.1743    3.3741    0.0000 O   0  0  0  0  0  0  0  0  0  0  0  0
    3.7312    3.8346    0.0000 O   0  0  0  0  0  0  0  0  0  0  0  0
    4.2629    0.8821    0.0000 C   0  0  0  0  0  0  0  0  0  0  0  0
    4.5288   -0.5942    0.0000 C   0  0  0  0  0  0  0  0  0  0  0  0
    3.3833   -1.5626    0.0000 C   0  0  0  0  0  0  0  0  0  0  0  0
    3.6491   -3.0388    0.0000 O   0  0  0  0  0  0  0  0  0  0  0  0
  1  2  1  0
  2  3  1  0
  2  4  2  0
  4  5  1  0
  5  6  1  0
  6  7  1  0
  7  8  1  0
  7  9  2  0
  9 10  1  0
 10 11  1  0
 11 12  2  0
 12 13  1  0
 13 14  1  0
 14 15  2  0
 14 16  1  0
 13 17  2  0
 17 18  1  0
 18 19  2  0
 19 20  1  0
 19 11  1  0
M  END
>  <identifier>  (360) 
CNP0279687.1

>  <canonical_smiles>  (360) 
CC(C)=CCC/C(C)=C/CC1=CC(C(=O)O)=CC=C1O

>  <standard_inchi>  (360) 
InChI=1S/C17H22O3/c1-12(2)5-4-6-13(3)7-8-14-11-15(17(19)20)9-10-16(14)18/h5,7,9-11,18H,4,6,8H2,1-3H3,(H,19,20)/b13-7+

>  <standard_inchi_key>  (360) 
HKIMBCGCVPYUTJ-NTUHNPAUSA-N

>  <name>  (360) 
nan

>  <iupac_name>  (360) 
nan

>  <annotation_level>  (360) 
0

>  <total_atom_count>  (360) 
42

>  <heavy_atom_count>  (360) 
20

>  <molecular_weight>  (360) 
274.36

>  <exact_molecular_weight>  (360) 
274.15689

>  <molecular_formula>  (360) 
C17H22O3

>  <alogp>  (360) 
4.33

>  <topological_polar_surface_area>  (360) 
57.53

>  <rotatable_bond_count>  (360) 
6

>  <hydrogen_bond_acceptors>  (360) 
2

>  <hydrogen_bond_donors>  (360) 
2

>  <hydrogen_bond_acceptors_lipinski>  (360) 
2

>  <hydrogen_bond_donors_lipinski>  (360) 
2

>  <lipinski_rule_of_five_violations>  (360) 
0

>  <aromatic_rings_count>  (360) 
1

>  <qed_drug_likeliness>  (360) 
0.76

>  <formal_charge>  (360) 
0

>  <fractioncsp3>  (360) 
0.35

>  <number_of_minimal_rings>  (360) 
1

>  <van_der_walls_volume>  (360) 
273.70

>  <contains_sugar>  (360) 
False

>  <contains_ring_sugars>  (360) 
False

>  <contains_linear_sugars>  (360) 
False

>  <murcko_framework>  (360) 
c1ccccc1

>  <np_likeness>  (360) 
1.83

>  <chemical_class>  (360) 
nan

>  <chemical_sub_class>  (360) 
nan

>  <chemical_super_class>  (360) 
nan

>  <direct_parent_classification>  (360) 
nan

>  <np_classifier_pathway>  (360) 
Shikimates and Phenylpropanoids

>  <np_classifier_superclass>  (360) 
Phenolic acids (C6-C1)

>  <np_classifier_class>  (360) 
Shikimic acids and derivatives

>  <np_classifier_is_glycoside>  (360) 
False

>  <organisms>  (360) 
Lithospermum erythrorhizon|Peperomia macrostachya|Peperomia macrostachyos|Piper gaudichaudianum|Piper murrayanum|piper sp.

>  <collections>  (360) 
ChemSpider NPs|KNApSaCK|Latin America dataset|NPASS|NPEdia|NuBBEDB|Super Natural II|WikiData Natural Products|ZINC NP

>  <dois>  (360) 
10.1016/0014-5793(88)80192-3|10.1016/0031-9422(96)00295-6|10.1021/NP030530J|10.1021/np030530j|10.1248/CPB.34.2290|10.3136/FSTI9596T9798.3.285

>  <synonyms>  (360) 
nan

>  <cas>  (360) 
nan

$$$$

     RDKit          2D

 26 27  0  0  0  0  0  0  0  0999 V2000
   -8.2794   -1.5581    0.0000 C   0  0  0  0  0  0  0  0  0  0  0  0
   -7.2944   -0.4268    0.0000 O   0  0  0  0  0  0  0  0  0  0  0  0
   -5.8222   -0.7142    0.0000 C   0  0  0  0  0  0  0  0  0  0  0  0
   -5.3350   -2.1329    0.0000 O   0  0  0  0  0  0  0  0  0  0  0  0
   -4.8372    0.4171    0.0000 C   0  0  0  0  0  0  0  0  0  0  0  0
   -6.1224    1.1907    0.0000 O   0  0  0  0  0  0  0  0  0  0  0  0
   -4.2986    1.8170    0.0000 C   0  0  0  0  0  0  0  0  0  0  0  0
   -2.8169    2.0505    0.0000 C   0  0  0  0  0  0  0  0  0  0  0  0
   -2.2782    3.4505    0.0000 O   0  0  0  0  0  0  0  0  0  0  0  0
   -1.8738    0.8841    0.0000 C   0  0  0  0  0  0  0  0  0  0  0  0
   -0.3921    1.1175    0.0000 O   0  0  0  0  0  0  0  0  0  0  0  0
    0.5510   -0.0489    0.0000 C   0  0  0  0  0  0  0  0  0  0  0  0
    0.0123   -1.4489    0.0000 O   0  0  0  0  0  0  0  0  0  0  0  0
    2.0327    0.1846    0.0000 C   0  0  0  0  0  0  0  0  0  0  0  0
    2.9758   -0.9819    0.0000 C   0  0  0  0  0  0  0  0  0  0  0  0
    4.4575   -0.7484    0.0000 C   0  0  0  0  0  0  0  0  0  0  0  0
    5.4005   -1.9149    0.0000 C   0  0  0  0  0  0  0  0  0  0  0  0
    6.8823   -1.6814    0.0000 C   0  0  0  0  0  0  0  0  0  0  0  0
    7.4209   -0.2815    0.0000 C   0  0  0  0  0  0  0  0  0  0  0  0
    8.9026   -0.0480    0.0000 O   0  0  0  0  0  0  0  0  0  0  0  0
    6.4779    0.8850    0.0000 C   0  0  0  0  0  0  0  0  0  0  0  0
    7.0165    2.2850    0.0000 O   0  0  0  0  0  0  0  0  0  0  0  0
    4.9961    0.6515    0.0000 C   0  0  0  0  0  0  0  0  0  0  0  0
   -2.4124   -0.5159    0.0000 C   0  0  0  0  0  0  0  0  0  0  0  0
   -1.4694   -1.6824    0.0000 O   0  0  0  0  0  0  0  0  0  0  0  0
   -3.8942   -0.7494    0.0000 C   0  0  0  0  0  0  0  0  0  0  0  0
  1  2  1  0
  2  3  1  0
  3  4  2  0
  3  5  1  0
  5  6  1  1
  5  7  1  0
  7  8  1  0
  8  9  1  1
  8 10  1  0
 10 11  1  1
 11 12  1  0
 12 13  2  0
 12 14  1  0
 14 15  2  0
 15 16  1  0
 16 17  2  0
 17 18  1  0
 18 19  2  0
 19 20  1  0
 19 21  1  0
 21 22  1  0
 21 23  2  0
 10 24  1  0
 24 25  1  6
 24 26  1  0
 26  5  1  0
 23 16  1  0
M  END
>  <identifier>  (361) 
CNP0152351.1

>  <canonical_smiles>  (361) 
COC(=O)[C@]1(O)C[C@@H](O)[C@@H](OC(=O)/C=C/C2=CC=C(O)C(O)=C2)[C@H](O)C1

>  <standard_inchi>  (361) 
InChI=1S/C17H20O9/c1-25-16(23)17(24)7-12(20)15(13(21)8-17)26-14(22)5-3-9-2-4-10(18)11(19)6-9/h2-6,12-13,15,18-21,24H,7-8H2,1H3/b5-3+/t12-,13-,15-,17+/m1/s1

>  <standard_inchi_key>  (361) 
SMFKCIHIAHWGGL-AWOKGZDASA-N

>  <name>  (361) 
Methyl-4-O-caffeoylquinate

>  <iupac_name>  (361) 
methyl (3~{R},5~{R})-4-[(~{E})-3-(3,4-dihydroxyphenyl)prop-2-enoyl]oxy-1,3,5-trihydroxy-cyclohexanecarboxylate

>  <annotation_level>  (361) 
5

>  <total_atom_count>  (361) 
46

>  <heavy_atom_count>  (361) 
26

>  <molecular_weight>  (361) 
368.34

>  <exact_molecular_weight>  (361) 
368.11073

>  <molecular_formula>  (361) 
C17H20O9

>  <alogp>  (361) 
-0.56

>  <topological_polar_surface_area>  (361) 
153.75

>  <rotatable_bond_count>  (361) 
4

>  <hydrogen_bond_acceptors>  (361) 
9

>  <hydrogen_bond_donors>  (361) 
5

>  <hydrogen_bond_acceptors_lipinski>  (361) 
9

>  <hydrogen_bond_donors_lipinski>  (361) 
5

>  <lipinski_rule_of_five_violations>  (361) 
0

>  <aromatic_rings_count>  (361) 
1

>  <qed_drug_likeliness>  (361) 
0.27

>  <formal_charge>  (361) 
0

>  <fractioncsp3>  (361) 
0.41

>  <number_of_minimal_rings>  (361) 
2

>  <van_der_walls_volume>  (361) 
315.76

>  <contains_sugar>  (361) 
False

>  <contains_ring_sugars>  (361) 
False

>  <contains_linear_sugars>  (361) 
False

>  <murcko_framework>  (361) 
O(CC=Cc1ccccc1)C2CCCCC2

>  <np_likeness>  (361) 
1.88

>  <chemical_class>  (361) 
Organooxygen compounds

>  <chemical_sub_class>  (361) 
Alcohols and polyols

>  <chemical_super_class>  (361) 
Organic oxygen compounds

>  <direct_parent_classification>  (361) 
Quinic acids and derivatives

>  <np_classifier_pathway>  (361) 
Shikimates and Phenylpropanoids

>  <np_classifier_superclass>  (361) 
Phenylpropanoids (C6-C3)

>  <np_classifier_class>  (361) 
Cinnamic acids and derivatives

>  <np_classifier_is_glycoside>  (361) 
False

>  <organisms>  (361) 
Flacourtia inermis|Haplopteris anguste-elongata|Ocotea corymbosa|Prunus domestica|Saussurea medusa|Saussurea triangulata|Spuriopimpinella brachycarpa|Spuriopimpinella calycina|Viburnum dilatatum|Vittaria anguste-elongata|pimpinella brachycarpa

>  <collections>  (361) 
ChemSpider NPs|KNApSaCK|Latin America dataset|NPASS|NuBBEDB|Super Natural II|TCMDB-Taiwan (Traditional Chinese Medicine database)|TIPdb (database of Taiwan indigenous plants)|WikiData Natural Products|ZINC NP

>  <dois>  (361) 
10.1016/0031-9422(92)83751-J|10.1016/J.BMCL.2013.01.115|10.1021/NP050060O|10.1080/14786419.2011.586638|10.1248/CPB.53.1416|10.1271/BBB.68.942|10.1590/S0100-40422010000200017|10.3390/12102270

>  <synonyms>  (361) 
4-O-E-caffeoylquinic acid methyl ester|Methyl-4-O-caffeoylquinate

>  <cas>  (361) 
nan

$$$$

     RDKit          2D

 34 35  0  0  0  0  0  0  0  0999 V2000
  -16.1666    3.0317    0.0000 C   0  0  0  0  0  0  0  0  0  0  0  0
  -15.1618    1.9180    0.0000 C   0  0  0  0  0  0  0  0  0  0  0  0
  -15.6238    0.4910    0.0000 O   0  0  0  0  0  0  0  0  0  0  0  0
  -13.6949    2.2314    0.0000 C   0  0  0  0  0  0  0  0  0  0  0  0
  -12.6900    1.1177    0.0000 C   0  0  0  0  0  0  0  0  0  0  0  0
  -11.2231    1.4311    0.0000 C   0  0  0  0  0  0  0  0  0  0  0  0
  -10.2183    0.3174    0.0000 C   0  0  0  0  0  0  0  0  0  0  0  0
   -8.7514    0.6308    0.0000 C   0  0  0  0  0  0  0  0  0  0  0  0
   -7.7465   -0.4829    0.0000 C   0  0  0  0  0  0  0  0  0  0  0  0
   -6.2796   -0.1695    0.0000 C   0  0  0  0  0  0  0  0  0  0  0  0
   -5.2748   -1.2832    0.0000 C   0  0  0  0  0  0  0  0  0  0  0  0
   -3.8079   -0.9698    0.0000 C   0  0  0  0  0  0  0  0  0  0  0  0
   -2.8030   -2.0835    0.0000 C   0  0  0  0  0  0  0  0  0  0  0  0
   -1.3362   -1.7701    0.0000 C   0  0  0  0  0  0  0  0  0  0  0  0
   -0.3313   -2.8838    0.0000 C   0  0  0  0  0  0  0  0  0  0  0  0
    1.1356   -2.5704    0.0000 C   0  0  0  0  0  0  0  0  0  0  0  0
    1.5976   -1.1433    0.0000 C   0  0  0  0  0  0  0  0  0  0  0  0
    3.0645   -0.8299    0.0000 C   0  0  0  0  0  0  0  0  0  0  0  0
    4.0694   -1.9436    0.0000 C   0  0  0  0  0  0  0  0  0  0  0  0
    5.5363   -1.6302    0.0000 O   0  0  0  0  0  0  0  0  0  0  0  0
    5.9983   -0.2032    0.0000 C   0  0  0  0  0  0  0  0  0  0  0  0
    4.9935    0.9105    0.0000 O   0  0  0  0  0  0  0  0  0  0  0  0
    7.4652    0.1102    0.0000 C   0  0  0  0  0  0  0  0  0  0  0  0
    7.9273    1.5373    0.0000 C   0  0  0  0  0  0  0  0  0  0  0  0
    9.3942    1.8507    0.0000 C   0  0  0  0  0  0  0  0  0  0  0  0
   10.3990    0.7370    0.0000 C   0  0  0  0  0  0  0  0  0  0  0  0
   11.8659    1.0504    0.0000 C   0  0  0  0  0  0  0  0  0  0  0  0
   12.3280    2.4774    0.0000 C   0  0  0  0  0  0  0  0  0  0  0  0
   13.7949    2.7908    0.0000 O   0  0  0  0  0  0  0  0  0  0  0  0
   11.3231    3.5911    0.0000 C   0  0  0  0  0  0  0  0  0  0  0  0
    9.8562    3.2777    0.0000 C   0  0  0  0  0  0  0  0  0  0  0  0
    3.6073   -3.3707    0.0000 C   0  0  0  0  0  0  0  0  0  0  0  0
    4.6122   -4.4844    0.0000 C   0  0  0  0  0  0  0  0  0  0  0  0
    2.1404   -3.6841    0.0000 N   0  0  0  0  0  0  0  0  0  0  0  0
  1  2  1  0
  2  3  2  0
  2  4  1  0
  4  5  1  0
  5  6  1  0
  6  7  1  0
  7  8  1  0
  8  9  1  0
  9 10  1  0
 10 11  1  0
 11 12  1  0
 12 13  1  0
 13 14  1  0
 14 15  1  0
 15 16  1  0
 16 17  1  0
 17 18  1  0
 18 19  1  0
 19 20  1  0
 20 21  1  0
 21 22  2  0
 21 23  1  0
 23 24  2  0
 24 25  1  0
 25 26  2  0
 26 27  1  0
 27 28  2  0
 28 29  1  0
 28 30  1  0
 30 31  2  0
 19 32  1  0
 32 33  1  0
 32 34  1  0
 34 16  1  0
 31 25  1  0
M  END
>  <identifier>  (362) 
CNP0080345.3

>  <canonical_smiles>  (362) 
CC(=O)CCCCCCCCCCCCC1CCC(OC(=O)/C=C/C2=CC=C(O)C=C2)C(C)N1

>  <standard_inchi>  (362) 
InChI=1S/C29H45NO4/c1-23(31)13-11-9-7-5-3-4-6-8-10-12-14-26-18-21-28(24(2)30-26)34-29(33)22-17-25-15-19-27(32)20-16-25/h15-17,19-20,22,24,26,28,30,32H,3-14,18,21H2,1-2H3/b22-17+

>  <standard_inchi_key>  (362) 
JYWAIDLXXUTYAT-OQKWZONESA-N

>  <name>  (362) 
nan

>  <iupac_name>  (362) 
nan

>  <annotation_level>  (362) 
0

>  <total_atom_count>  (362) 
79

>  <heavy_atom_count>  (362) 
34

>  <molecular_weight>  (362) 
471.68

>  <exact_molecular_weight>  (362) 
471.33486

>  <molecular_formula>  (362) 
C29H45NO4

>  <alogp>  (362) 
6.73

>  <topological_polar_surface_area>  (362) 
75.63

>  <rotatable_bond_count>  (362) 
16

>  <hydrogen_bond_acceptors>  (362) 
5

>  <hydrogen_bond_donors>  (362) 
2

>  <hydrogen_bond_acceptors_lipinski>  (362) 
5

>  <hydrogen_bond_donors_lipinski>  (362) 
2

>  <lipinski_rule_of_five_violations>  (362) 
1

>  <aromatic_rings_count>  (362) 
1

>  <qed_drug_likeliness>  (362) 
0.16

>  <formal_charge>  (362) 
0

>  <fractioncsp3>  (362) 
0.66

>  <number_of_minimal_rings>  (362) 
2

>  <van_der_walls_volume>  (362) 
481.85

>  <contains_sugar>  (362) 
False

>  <contains_ring_sugars>  (362) 
False

>  <contains_linear_sugars>  (362) 
False

>  <murcko_framework>  (362) 
O(CC=Cc1ccccc1)C2CNCCC2

>  <np_likeness>  (362) 
1.53

>  <chemical_class>  (362) 
nan

>  <chemical_sub_class>  (362) 
nan

>  <chemical_super_class>  (362) 
nan

>  <direct_parent_classification>  (362) 
nan

>  <np_classifier_pathway>  (362) 
Alkaloids

>  <np_classifier_superclass>  (362) 
Lysine alkaloids

>  <np_classifier_class>  (362) 
Piperidine alkaloids

>  <np_classifier_is_glycoside>  (362) 
False

>  <organisms>  (362) 
Senna spectabilis

>  <collections>  (362) 
Latin America dataset|NuBBEDB|WikiData Natural Products

>  <dois>  (362) 
10.1590/S0103-50532005000800023

>  <synonyms>  (362) 
nan

>  <cas>  (362) 
nan

$$$$

     RDKit          2D

 43 47  0  0  0  0  0  0  0  0999 V2000
    8.4184    5.0748    0.0000 C   0  0  0  0  0  0  0  0  0  0  0  0
    8.1503    3.5989    0.0000 C   0  0  0  0  0  0  0  0  0  0  0  0
    6.7381    3.0932    0.0000 C   0  0  0  0  0  0  0  0  0  0  0  0
    5.5940    4.0633    0.0000 C   0  0  0  0  0  0  0  0  0  0  0  0
    6.4700    1.6174    0.0000 C   0  0  0  0  0  0  0  0  0  0  0  0
    7.6140    0.6472    0.0000 O   0  0  0  0  0  0  0  0  0  0  0  0
    5.0578    1.1116    0.0000 C   0  0  0  0  0  0  0  0  0  0  0  0
    4.7897   -0.3642    0.0000 O   0  0  0  0  0  0  0  0  0  0  0  0
    3.3775   -0.8699    0.0000 C   0  0  0  0  0  0  0  0  0  0  0  0
    2.2334    0.1002    0.0000 C   0  0  0  0  0  0  0  0  0  0  0  0
    1.0894    1.0703    0.0000 C   0  0  0  0  0  0  0  0  0  0  0  0
   -0.3228    0.5646    0.0000 C   0  0  0  0  0  0  0  0  0  0  0  0
   -1.4669    1.5347    0.0000 C   0  0  0  0  0  0  0  0  0  0  0  0
   -1.1988    3.0106    0.0000 C   0  0  0  0  0  0  0  0  0  0  0  0
   -2.3428    3.9807    0.0000 C   0  0  0  0  0  0  0  0  0  0  0  0
   -2.0747    5.4565    0.0000 O   0  0  0  0  0  0  0  0  0  0  0  0
   -3.7550    3.4749    0.0000 O   0  0  0  0  0  0  0  0  0  0  0  0
   -4.0231    1.9991    0.0000 C   0  0  0  0  0  0  0  0  0  0  0  0
   -5.4353    1.4934    0.0000 C   0  0  0  0  0  0  0  0  0  0  0  0
   -5.8562    0.0537    0.0000 C   0  0  0  0  0  0  0  0  0  0  0  0
   -7.3555    0.0091    0.0000 C   0  0  0  0  0  0  0  0  0  0  0  0
   -8.2008   -1.2301    0.0000 O   0  0  0  0  0  0  0  0  0  0  0  0
   -7.8613    1.4212    0.0000 O   0  0  0  0  0  0  0  0  0  0  0  0
   -6.6745    2.3386    0.0000 C   0  0  0  0  0  0  0  0  0  0  0  0
   -6.7191    3.8379    0.0000 O   0  0  0  0  0  0  0  0  0  0  0  0
   -2.8790    1.0290    0.0000 C   0  0  0  0  0  0  0  0  0  0  0  0
   -4.2912    0.5233    0.0000 C   0  0  0  0  0  0  0  0  0  0  0  0
   -3.1472   -0.4469    0.0000 C   0  0  0  0  0  0  0  0  0  0  0  0
   -2.0031   -1.4170    0.0000 C   0  0  0  0  0  0  0  0  0  0  0  0
   -0.5909   -0.9113    0.0000 C   0  0  0  0  0  0  0  0  0  0  0  0
    0.5531   -1.8814    0.0000 C   0  0  0  0  0  0  0  0  0  0  0  0
    0.2850   -3.3572    0.0000 C   0  0  0  0  0  0  0  0  0  0  0  0
    1.9653   -1.3756    0.0000 C   0  0  0  0  0  0  0  0  0  0  0  0
    2.6800   -1.7288    0.0000 O   0  0  0  0  0  0  0  0  0  0  0  0
    1.6972   -2.8515    0.0000 C   0  0  0  0  0  0  0  0  0  0  0  0
    1.4291   -4.3273    0.0000 C   0  0  0  0  0  0  0  0  0  0  0  0
    0.0169   -4.8331    0.0000 C   0  0  0  0  0  0  0  0  0  0  0  0
   -1.1272   -3.8629    0.0000 O   0  0  0  0  0  0  0  0  0  0  0  0
   -0.2512   -6.3089    0.0000 O   0  0  0  0  0  0  0  0  0  0  0  0
   -1.6634   -6.8146    0.0000 C   0  0  0  0  0  0  0  0  0  0  0  0
    3.1094   -2.3458    0.0000 C   0  0  0  0  0  0  0  0  0  0  0  0
    3.3622   -3.8243    0.0000 C   0  0  0  0  0  0  0  0  0  0  0  0
    4.6093   -2.3535    0.0000 C   0  0  0  0  0  0  0  0  0  0  0  0
  1  2  1  0
  2  3  2  0
  3  4  1  0
  3  5  1  0
  5  6  2  0
  5  7  1  0
  7  8  1  0
  9  8  1  1
  9 10  1  0
 10 11  1  0
 11 12  2  0
 12 13  1  0
 13 14  1  1
 14 15  1  0
 15 16  2  0
 15 17  1  0
 17 18  1  0
 18 19  1  6
 19 20  2  0
 20 21  1  0
 21 22  1  0
 21 23  1  0
 23 24  1  0
 24 25  2  0
 18 26  1  0
 26 27  1  6
 26 28  1  0
 28 29  1  0
 30 29  1  1
 30 31  1  0
 31 32  1  6
 31 33  1  0
 33 34  2  0
 31 35  1  0
 35 36  1  6
 36 37  1  0
 37 38  2  0
 37 39  1  0
 39 40  1  0
 35 41  1  0
 41 42  1  0
 41 43  1  0
 41  9  1  0
 33 10  1  0
 30 12  1  0
 26 13  1  0
 24 19  1  0
M  END
>  <identifier>  (363) 
CNP0176949.1

>  <canonical_smiles>  (363) 
C/C=C(\C)C(=O)CO[C@@H]1C2C=C3[C@@H]4CC(=O)O[C@@H](C5=CC(O)OC5=O)[C@]4(C)CC[C@@H]3[C@@](C)(C2=O)[C@@H](CC(=O)OC)C1(C)C

>  <standard_inchi>  (363) 
InChI=1S/C33H42O10/c1-8-16(2)22(34)15-41-28-18-11-17-20(33(6,27(18)38)23(31(28,3)4)14-24(35)40-7)9-10-32(5)21(17)13-26(37)42-29(32)19-12-25(36)43-30(19)39/h8,11-12,18,20-21,23,25,28-29,36H,9-10,13-15H2,1-7H3/b16-8+/t18?,20-,21-,23-,25?,28+,29-,32+,33+/m0/s1

>  <standard_inchi_key>  (363) 
SZZJZHWYBQXYQH-YODCAJJISA-N

>  <name>  (363) 
nan

>  <iupac_name>  (363) 
methyl 2-[(1~{R},2~{S},5~{R},6~{R},10~{S},14~{R},16~{S})-6-(2-hydroxy-5-oxo-2~{H}-furan-4-yl)-1,5,15,15-tetramethyl-14-[(~{E})-3-methyl-2-oxo-pent-3-enoxy]-8,17-dioxo-7-oxatetracyclo[11.3.1.0^{2,11}.0^{5,10}]heptadec-11-en-16-yl]acetate

>  <annotation_level>  (363) 
4

>  <total_atom_count>  (363) 
85

>  <heavy_atom_count>  (363) 
43

>  <molecular_weight>  (363) 
598.69

>  <exact_molecular_weight>  (363) 
598.2778

>  <molecular_formula>  (363) 
C33H42O10

>  <alogp>  (363) 
3.41

>  <topological_polar_surface_area>  (363) 
142.50

>  <rotatable_bond_count>  (363) 
7

>  <hydrogen_bond_acceptors>  (363) 
10

>  <hydrogen_bond_donors>  (363) 
1

>  <hydrogen_bond_acceptors_lipinski>  (363) 
10

>  <hydrogen_bond_donors_lipinski>  (363) 
1

>  <lipinski_rule_of_five_violations>  (363) 
1

>  <aromatic_rings_count>  (363) 
0

>  <qed_drug_likeliness>  (363) 
0.20

>  <formal_charge>  (363) 
0

>  <fractioncsp3>  (363) 
0.67

>  <number_of_minimal_rings>  (363) 
5

>  <van_der_walls_volume>  (363) 
nan

>  <contains_sugar>  (363) 
False

>  <contains_ring_sugars>  (363) 
False

>  <contains_linear_sugars>  (363) 
False

>  <murcko_framework>  (363) 
O1CC=C(C1)C2OCCC3C4=CC5CCCC(C5)C4CCC23

>  <np_likeness>  (363) 
2.64

>  <chemical_class>  (363) 
Naphthopyrans

>  <chemical_sub_class>  (363) 
Naphthopyrans

>  <chemical_super_class>  (363) 
Organoheterocyclic compounds

>  <direct_parent_classification>  (363) 
Naphthopyrans

>  <np_classifier_pathway>  (363) 
Terpenoids

>  <np_classifier_superclass>  (363) 
Triterpenoids

>  <np_classifier_class>  (363) 
Limonoids

>  <np_classifier_is_glycoside>  (363) 
True

>  <organisms>  (363) 
Cipadessa baccifera|Cipadessa fruticosa

>  <collections>  (363) 
Latin America dataset|NuBBEDB|WikiData Natural Products

>  <dois>  (363) 
10.1515/ZNC-2009-5-623|10.1515/znc-2009-5-623

>  <synonyms>  (363) 
febrifugin A

>  <cas>  (363) 
nan

$$$$

     RDKit          2D

 16 16  0  0  0  0  0  0  0  0999 V2000
    7.0863    0.0890    0.0000 C   0  0  0  0  0  0  0  0  0  0  0  0
    5.7464    0.7632    0.0000 C   0  0  0  0  0  0  0  0  0  0  0  0
    4.4926   -0.0601    0.0000 C   0  0  0  0  0  0  0  0  0  0  0  0
    3.1526    0.6141    0.0000 C   0  0  0  0  0  0  0  0  0  0  0  0
    1.8988   -0.2093    0.0000 O   0  0  0  0  0  0  0  0  0  0  0  0
    0.5588    0.4649    0.0000 C   0  0  0  0  0  0  0  0  0  0  0  0
   -0.6950   -0.3584    0.0000 C   0  0  0  0  0  0  0  0  0  0  0  0
    0.2549   -1.5193    0.0000 O   0  0  0  0  0  0  0  0  0  0  0  0
   -1.3828    0.9746    0.0000 O   0  0  0  0  0  0  0  0  0  0  0  0
   -2.8631    0.7324    0.0000 C   0  0  0  0  0  0  0  0  0  0  0  0
   -3.9292    1.7877    0.0000 C   0  0  0  0  0  0  0  0  0  0  0  0
   -3.5483    3.2385    0.0000 O   0  0  0  0  0  0  0  0  0  0  0  0
   -3.0902   -0.7503    0.0000 C   0  0  0  0  0  0  0  0  0  0  0  0
   -4.4233   -1.4380    0.0000 O   0  0  0  0  0  0  0  0  0  0  0  0
   -1.7503   -1.4244    0.0000 C   0  0  0  0  0  0  0  0  0  0  0  0
   -1.5081   -2.9048    0.0000 O   0  0  0  0  0  0  0  0  0  0  0  0
  1  2  1  0
  2  3  1  0
  3  4  1  0
  4  5  1  0
  5  6  1  0
  6  7  1  0
  7  8  1  6
  7  9  1  0
  9 10  1  0
 10 11  1  1
 11 12  1  0
 10 13  1  0
 13 14  1  6
 13 15  1  0
 15 16  1  1
 15  7  1  0
M  END
>  <identifier>  (364) 
CNP0080524.1

>  <canonical_smiles>  (364) 
CCCCOC[C@]1(O)O[C@H](CO)[C@@H](O)[C@@H]1O

>  <standard_inchi>  (364) 
InChI=1S/C10H20O6/c1-2-3-4-15-6-10(14)9(13)8(12)7(5-11)16-10/h7-9,11-14H,2-6H2,1H3/t7-,8-,9+,10+/m1/s1

>  <standard_inchi_key>  (364) 
TYPBFZLMLATYGX-IMSYWVGJSA-N

>  <name>  (364) 
(2S,3S,4S,5R)-2-(butoxymethyl)-5-(hydroxymethyl)oxolane-2,3,4-triol

>  <iupac_name>  (364) 
(2~{S},3~{S},4~{S},5~{R})-2-(butoxymethyl)-5-(hydroxymethyl)tetrahydrofuran-2,3,4-triol

>  <annotation_level>  (364) 
5

>  <total_atom_count>  (364) 
36

>  <heavy_atom_count>  (364) 
16

>  <molecular_weight>  (364) 
236.26

>  <exact_molecular_weight>  (364) 
236.12599

>  <molecular_formula>  (364) 
C10H20O6

>  <alogp>  (364) 
-1.40

>  <topological_polar_surface_area>  (364) 
99.38

>  <rotatable_bond_count>  (364) 
6

>  <hydrogen_bond_acceptors>  (364) 
6

>  <hydrogen_bond_donors>  (364) 
4

>  <hydrogen_bond_acceptors_lipinski>  (364) 
6

>  <hydrogen_bond_donors_lipinski>  (364) 
4

>  <lipinski_rule_of_five_violations>  (364) 
0

>  <aromatic_rings_count>  (364) 
0

>  <qed_drug_likeliness>  (364) 
0.42

>  <formal_charge>  (364) 
0

>  <fractioncsp3>  (364) 
1.00

>  <number_of_minimal_rings>  (364) 
1

>  <van_der_walls_volume>  (364) 
nan

>  <contains_sugar>  (364) 
True

>  <contains_ring_sugars>  (364) 
True

>  <contains_linear_sugars>  (364) 
False

>  <murcko_framework>  (364) 
O1CCCC1

>  <np_likeness>  (364) 
1.84

>  <chemical_class>  (364) 
Organooxygen compounds

>  <chemical_sub_class>  (364) 
Carbohydrates and carbohydrate conjugates

>  <chemical_super_class>  (364) 
Organic oxygen compounds

>  <direct_parent_classification>  (364) 
Monosaccharides

>  <np_classifier_pathway>  (364) 
Polyketides

>  <np_classifier_superclass>  (364) 
nan

>  <np_classifier_class>  (364) 
nan

>  <np_classifier_is_glycoside>  (364) 
True

>  <organisms>  (364) 
Vochysia thyrsoidea

>  <collections>  (364) 
Latin America dataset|NuBBEDB|WikiData Natural Products|ZINC NP

>  <dois>  (364) 
10.5935/0100-4042.20140049

>  <synonyms>  (364) 
2-butyl-D-fructofuranoside|SCHEMBL11033697

>  <cas>  (364) 
nan

$$$$

     RDKit          2D

 16 17  0  0  0  0  0  0  0  0999 V2000
   -4.9410    0.4251    0.0000 C   0  0  0  0  0  0  0  0  0  0  0  0
   -3.5425    0.9674    0.0000 O   0  0  0  0  0  0  0  0  0  0  0  0
   -2.3736    0.0274    0.0000 C   0  0  0  0  0  0  0  0  0  0  0  0
   -2.6032   -1.4549    0.0000 O   0  0  0  0  0  0  0  0  0  0  0  0
   -0.9750    0.5697    0.0000 C   0  0  0  0  0  0  0  0  0  0  0  0
   -0.7454    2.0520    0.0000 C   0  0  0  0  0  0  0  0  0  0  0  0
    0.6532    2.5943    0.0000 O   0  0  0  0  0  0  0  0  0  0  0  0
    1.8221    1.6542    0.0000 C   0  0  0  0  0  0  0  0  0  0  0  0
    3.2206    2.1965    0.0000 O   0  0  0  0  0  0  0  0  0  0  0  0
    1.5924    0.1719    0.0000 C   0  0  0  0  0  0  0  0  0  0  0  0
    0.1939   -0.3704    0.0000 C   0  0  0  0  0  0  0  0  0  0  0  0
    0.2775   -1.8681    0.0000 C   0  0  0  0  0  0  0  0  0  0  0  0
   -0.8851   -2.8160    0.0000 O   0  0  0  0  0  0  0  0  0  0  0  0
    1.7277   -2.2514    0.0000 C   0  0  0  0  0  0  0  0  0  0  0  0
    2.5404   -0.9906    0.0000 C   0  0  0  0  0  0  0  0  0  0  0  0
    4.0380   -0.9070    0.0000 C   0  0  0  0  0  0  0  0  0  0  0  0
  1  2  1  0
  2  3  1  0
  3  4  2  0
  3  5  1  0
  5  6  2  0
  6  7  1  0
  7  8  1  0
  8  9  1  1
 10  8  1  6
 10 11  1  0
 11 12  1  0
 12 13  1  1
 12 14  1  0
 14 15  1  0
 15 16  1  1
 11  5  1  6
 15 10  1  0
M  END
>  <identifier>  (365) 
CNP0111561.1

>  <canonical_smiles>  (365) 
COC(=O)C1=CO[C@@H](O)[C@H]2[C@@H]1[C@H](O)C[C@@H]2C

>  <standard_inchi>  (365) 
InChI=1S/C11H16O5/c1-5-3-7(12)9-6(10(13)15-2)4-16-11(14)8(5)9/h4-5,7-9,11-12,14H,3H2,1-2H3/t5-,7+,8+,9-,11+/m0/s1

>  <standard_inchi_key>  (365) 
GDUXCCYSAFZLAH-DYKMFKKKSA-N

>  <name>  (365) 
nan

>  <iupac_name>  (365) 
methyl (1~{R},4~{a}~{S},5~{R},7~{S},7~{a}~{R})-1,5-dihydroxy-7-methyl-1,4~{a},5,6,7,7~{a}-hexahydrocyclopenta[c]pyran-4-carboxylate

>  <annotation_level>  (365) 
5

>  <total_atom_count>  (365) 
32

>  <heavy_atom_count>  (365) 
16

>  <molecular_weight>  (365) 
228.24

>  <exact_molecular_weight>  (365) 
228.09977

>  <molecular_formula>  (365) 
C11H16O5

>  <alogp>  (365) 
0.02

>  <topological_polar_surface_area>  (365) 
75.99

>  <rotatable_bond_count>  (365) 
1

>  <hydrogen_bond_acceptors>  (365) 
5

>  <hydrogen_bond_donors>  (365) 
2

>  <hydrogen_bond_acceptors_lipinski>  (365) 
5

>  <hydrogen_bond_donors_lipinski>  (365) 
2

>  <lipinski_rule_of_five_violations>  (365) 
0

>  <aromatic_rings_count>  (365) 
0

>  <qed_drug_likeliness>  (365) 
0.62

>  <formal_charge>  (365) 
0

>  <fractioncsp3>  (365) 
0.73

>  <number_of_minimal_rings>  (365) 
2

>  <van_der_walls_volume>  (365) 
204.91

>  <contains_sugar>  (365) 
False

>  <contains_ring_sugars>  (365) 
False

>  <contains_linear_sugars>  (365) 
False

>  <murcko_framework>  (365) 
O1C=CC2CCCC2C1

>  <np_likeness>  (365) 
2.72

>  <chemical_class>  (365) 
Prenol lipids

>  <chemical_sub_class>  (365) 
Monoterpenoids

>  <chemical_super_class>  (365) 
Lipids and lipid-like molecules

>  <direct_parent_classification>  (365) 
Iridoids and derivatives

>  <np_classifier_pathway>  (365) 
Terpenoids

>  <np_classifier_superclass>  (365) 
Monoterpenoids

>  <np_classifier_class>  (365) 
Iridoids monoterpenoids

>  <np_classifier_is_glycoside>  (365) 
True

>  <organisms>  (365) 
Alibertia macrophylla|Cordiera macrophylla

>  <collections>  (365) 
ChemSpider NPs|Latin America dataset|NuBBEDB|Super Natural II|WikiData Natural Products|ZINC NP

>  <dois>  (365) 
10.1016/0031-9422(92)83701-Y

>  <synonyms>  (365) 
1\u221a\u00e9\u00ac\u2264-Hydroxy-dihydrocornin aglycone

>  <cas>  (365) 
nan

$$$$

     RDKit          2D

 42 47  0  0  0  0  0  0  0  0999 V2000
   -7.9456   -4.6153    0.0000 C   0  0  0  0  0  0  0  0  0  0  0  0
   -6.8636   -3.5765    0.0000 C   0  0  0  0  0  0  0  0  0  0  0  0
   -7.2222   -2.1200    0.0000 C   0  0  0  0  0  0  0  0  0  0  0  0
   -6.1402   -1.0811    0.0000 C   0  0  0  0  0  0  0  0  0  0  0  0
   -6.4988    0.3754    0.0000 C   0  0  0  0  0  0  0  0  0  0  0  0
   -7.9395    0.7930    0.0000 C   0  0  0  0  0  0  0  0  0  0  0  0
   -5.4168    1.4142    0.0000 C   0  0  0  0  0  0  0  0  0  0  0  0
   -5.6212    2.9002    0.0000 C   0  0  0  0  0  0  0  0  0  0  0  0
   -4.2711    3.5538    0.0000 C   0  0  0  0  0  0  0  0  0  0  0  0
   -3.2323    2.4718    0.0000 C   0  0  0  0  0  0  0  0  0  0  0  0
   -2.6663    3.8609    0.0000 C   0  0  0  0  0  0  0  0  0  0  0  0
   -1.7330    2.5198    0.0000 C   0  0  0  0  0  0  0  0  0  0  0  0
   -1.0250    3.8421    0.0000 C   0  0  0  0  0  0  0  0  0  0  0  0
    0.4743    3.8901    0.0000 C   0  0  0  0  0  0  0  0  0  0  0  0
    1.2654    2.6157    0.0000 C   0  0  0  0  0  0  0  0  0  0  0  0
    2.7647    2.6637    0.0000 C   0  0  0  0  0  0  0  0  0  0  0  0
    3.4727    3.9861    0.0000 C   0  0  0  0  0  0  0  0  0  0  0  0
    3.5558    1.3893    0.0000 C   0  0  0  0  0  0  0  0  0  0  0  0
    5.0551    1.4373    0.0000 O   0  0  0  0  0  0  0  0  0  0  0  0
    5.8462    0.1629    0.0000 C   0  0  0  0  0  0  0  0  0  0  0  0
    5.1382   -1.1595    0.0000 O   0  0  0  0  0  0  0  0  0  0  0  0
    5.9293   -2.4338    0.0000 C   0  0  0  0  0  0  0  0  0  0  0  0
    5.2213   -3.7562    0.0000 C   0  0  0  0  0  0  0  0  0  0  0  0
    3.7220   -3.8042    0.0000 O   0  0  0  0  0  0  0  0  0  0  0  0
    7.4286   -2.3859    0.0000 C   0  0  0  0  0  0  0  0  0  0  0  0
    8.2197   -3.6603    0.0000 O   0  0  0  0  0  0  0  0  0  0  0  0
    8.1366   -1.0635    0.0000 C   0  0  0  0  0  0  0  0  0  0  0  0
    9.6359   -1.0155    0.0000 O   0  0  0  0  0  0  0  0  0  0  0  0
    7.3455    0.2109    0.0000 C   0  0  0  0  0  0  0  0  0  0  0  0
    8.0535    1.5332    0.0000 O   0  0  0  0  0  0  0  0  0  0  0  0
    2.8478    0.0669    0.0000 C   0  0  0  0  0  0  0  0  0  0  0  0
    1.3485    0.0190    0.0000 C   0  0  0  0  0  0  0  0  0  0  0  0
    0.5574    1.2934    0.0000 C   0  0  0  0  0  0  0  0  0  0  0  0
   -0.1507   -0.0290    0.0000 C   0  0  0  0  0  0  0  0  0  0  0  0
   -0.9419    1.2454    0.0000 C   0  0  0  0  0  0  0  0  0  0  0  0
   -1.6499   -0.0770    0.0000 C   0  0  0  0  0  0  0  0  0  0  0  0
   -3.1492   -0.1250    0.0000 C   0  0  0  0  0  0  0  0  0  0  0  0
   -3.9403    1.1494    0.0000 C   0  0  0  0  0  0  0  0  0  0  0  0
   -4.7827   -0.0917    0.0000 C   0  0  0  0  0  0  0  0  0  0  0  0
   -5.4229   -3.9941    0.0000 C   0  0  0  0  0  0  0  0  0  0  0  0
   -5.0643   -5.4506    0.0000 C   0  0  0  0  0  0  0  0  0  0  0  0
   -4.3409   -2.9553    0.0000 C   0  0  0  0  0  0  0  0  0  0  0  0
  1  2  2  0
  2  3  1  0
  3  4  1  0
  4  5  1  0
  5  6  1  1
  5  7  1  0
  7  8  1  1
  8  9  1  0
  9 10  1  0
 10 11  1  6
 10 12  1  0
 12 13  1  6
 13 14  1  0
 15 14  1  1
 15 16  1  0
 16 17  1  6
 16 18  1  0
 18 19  1  1
 20 19  1  1
 20 21  1  0
 21 22  1  0
 22 23  1  1
 23 24  1  0
 22 25  1  0
 25 26  1  6
 25 27  1  0
 27 28  1  1
 27 29  1  0
 29 30  1  6
 18 31  1  0
 31 32  1  0
 33 32  1  6
 33 34  1  0
 35 34  1  1
 35 36  1  0
 36 37  1  0
 37 38  1  0
 38 39  1  1
  2 40  1  0
 40 41  1  0
 40 42  1  0
 38  7  1  0
 38 10  1  0
 35 12  1  0
 33 15  1  0
 29 20  1  0
 35 33  1  0
M  END
>  <identifier>  (366) 
CNP0295877.1

>  <canonical_smiles>  (366) 
C=C(CC[C@@H](C)[C@H]1CC[C@@]2(C)[C@@H]3CC[C@H]4[C@H](C)[C@@H](O[C@@H]5O[C@H](CO)[C@@H](O)[C@H](O)[C@H]5O)CC[C@@]45C[C@@]35CC[C@]12C)C(C)C

>  <standard_inchi>  (366) 
InChI=1S/C36H60O6/c1-20(2)21(3)8-9-22(4)24-12-14-34(7)28-11-10-25-23(5)26(41-32-31(40)30(39)29(38)27(18-37)42-32)13-15-35(25)19-36(28,35)17-16-33(24,34)6/h20,22-32,37-40H,3,8-19H2,1-2,4-7H3/t22-,23+,24-,25+,26+,27-,28+,29-,30+,31-,32-,33-,34+,35-,36+/m1/s1

>  <standard_inchi_key>  (366) 
QJIIOQSORMCNEC-YVPODWRASA-N

>  <name>  (366) 
nan

>  <iupac_name>  (366) 
(2~{R},3~{R},4~{S},5~{S},6~{R})-2-[[(1~{S},3~{R},6~{S},7~{S},8~{S},11~{S},12~{S},15~{R},16~{R})-15-[(1~{R})-1,5-dimethyl-4-methylene-hexyl]-7,12,16-trimethyl-6-pentacyclo[9.7.0.0^{1,3}.0^{3,8}.0^{12,16}]octadecanyl]oxy]-6-(hydroxymethyl)tetrahydropyran-3,4,5-triol

>  <annotation_level>  (366) 
4

>  <total_atom_count>  (366) 
102

>  <heavy_atom_count>  (366) 
42

>  <molecular_weight>  (366) 
588.87

>  <exact_molecular_weight>  (366) 
588.43899

>  <molecular_formula>  (366) 
C36H60O6

>  <alogp>  (366) 
5.85

>  <topological_polar_surface_area>  (366) 
99.38

>  <rotatable_bond_count>  (366) 
8

>  <hydrogen_bond_acceptors>  (366) 
6

>  <hydrogen_bond_donors>  (366) 
4

>  <hydrogen_bond_acceptors_lipinski>  (366) 
6

>  <hydrogen_bond_donors_lipinski>  (366) 
4

>  <lipinski_rule_of_five_violations>  (366) 
2

>  <aromatic_rings_count>  (366) 
0

>  <qed_drug_likeliness>  (366) 
0.21

>  <formal_charge>  (366) 
0

>  <fractioncsp3>  (366) 
0.94

>  <number_of_minimal_rings>  (366) 
6

>  <van_der_walls_volume>  (366) 
nan

>  <contains_sugar>  (366) 
True

>  <contains_ring_sugars>  (366) 
True

>  <contains_linear_sugars>  (366) 
False

>  <murcko_framework>  (366) 
O1CCCCC1OC2CCC34CC54CCC6CCCC6C5CCC3C2

>  <np_likeness>  (366) 
3.29

>  <chemical_class>  (366) 
Prenol lipids

>  <chemical_sub_class>  (366) 
Terpene glycosides

>  <chemical_super_class>  (366) 
Lipids and lipid-like molecules

>  <direct_parent_classification>  (366) 
Triterpene saponins

>  <np_classifier_pathway>  (366) 
Terpenoids

>  <np_classifier_superclass>  (366) 
Steroids

>  <np_classifier_class>  (366) 
Cycloartane triterpenoids

>  <np_classifier_is_glycoside>  (366) 
True

>  <organisms>  (366) 
Cedrela odorata

>  <collections>  (366) 
Latin America dataset|NuBBEDB|WikiData Natural Products

>  <dois>  (366) 
10.1016/S0031-9422(96)00747-9

>  <synonyms>  (366) 
3\u221a\u00e9\u00ac\u2264-O-\u221a\u00e9\u00ac\u2264-D-glucopyranosylcycloeucalenol

>  <cas>  (366) 
nan

$$$$

     RDKit          2D

 33 37  0  0  0  0  0  0  0  0999 V2000
   -2.9851   -3.1712    0.0000 C   0  0  0  0  0  0  0  0  0  0  0  0
   -3.7183   -1.8626    0.0000 C   0  0  0  0  0  0  0  0  0  0  0  0
   -5.2181   -1.8432    0.0000 C   0  0  0  0  0  0  0  0  0  0  0  0
   -5.9849   -3.1325    0.0000 C   0  0  0  0  0  0  0  0  0  0  0  0
   -5.9513   -0.5346    0.0000 C   0  0  0  0  0  0  0  0  0  0  0  0
   -5.1846    0.7546    0.0000 C   0  0  0  0  0  0  0  0  0  0  0  0
   -3.6847    0.7353    0.0000 C   0  0  0  0  0  0  0  0  0  0  0  0
   -4.4179    2.0439    0.0000 C   0  0  0  0  0  0  0  0  0  0  0  0
   -5.9178    2.0632    0.0000 O   0  0  0  0  0  0  0  0  0  0  0  0
   -3.6512    3.3331    0.0000 O   0  0  0  0  0  0  0  0  0  0  0  0
   -2.9180    2.0245    0.0000 C   0  0  0  0  0  0  0  0  0  0  0  0
   -1.4181    2.0051    0.0000 C   0  0  0  0  0  0  0  0  0  0  0  0
   -0.6850    0.6965    0.0000 C   0  0  0  0  0  0  0  0  0  0  0  0
    0.0482   -0.6121    0.0000 C   0  0  0  0  0  0  0  0  0  0  0  0
   -1.4517   -0.5927    0.0000 C   0  0  0  0  0  0  0  0  0  0  0  0
   -0.7185   -1.9013    0.0000 C   0  0  0  0  0  0  0  0  0  0  0  0
    0.7814   -1.9207    0.0000 C   0  0  0  0  0  0  0  0  0  0  0  0
    1.5481   -0.6315    0.0000 C   0  0  0  0  0  0  0  0  0  0  0  0
    3.0479   -0.6508    0.0000 C   0  0  0  0  0  0  0  0  0  0  0  0
    2.2812   -1.9401    0.0000 C   0  0  0  0  0  0  0  0  0  0  0  0
    3.7811   -1.9594    0.0000 C   0  0  0  0  0  0  0  0  0  0  0  0
    5.2810   -1.9788    0.0000 C   0  0  0  0  0  0  0  0  0  0  0  0
    6.0477   -0.6896    0.0000 C   0  0  0  0  0  0  0  0  0  0  0  0
    7.5476   -0.7089    0.0000 O   0  0  0  0  0  0  0  0  0  0  0  0
    5.3145    0.6191    0.0000 C   0  0  0  0  0  0  0  0  0  0  0  0
    5.0731    2.0995    0.0000 C   0  0  0  0  0  0  0  0  0  0  0  0
    6.7306    1.1138    0.0000 C   0  0  0  0  0  0  0  0  0  0  0  0
    3.8146    0.6384    0.0000 C   0  0  0  0  0  0  0  0  0  0  0  0
    3.0815    1.9470    0.0000 C   0  0  0  0  0  0  0  0  0  0  0  0
    1.5816    1.9664    0.0000 C   0  0  0  0  0  0  0  0  0  0  0  0
    0.8149    0.6772    0.0000 C   0  0  0  0  0  0  0  0  0  0  0  0
    0.0817    1.9858    0.0000 C   0  0  0  0  0  0  0  0  0  0  0  0
   -2.9516   -0.5734    0.0000 C   0  0  0  0  0  0  0  0  0  0  0  0
  2  1  1  1
  2  3  1  0
  3  4  1  6
  3  5  1  0
  5  6  1  0
  6  7  1  0
  7  8  1  1
  8  9  2  0
  8 10  1  0
  7 11  1  0
 11 12  1  0
 12 13  1  0
 13 14  1  6
 13 15  1  0
 15 16  2  0
 16 17  1  0
 18 17  1  1
 18 19  1  0
 19 20  1  1
 19 21  1  0
 21 22  1  0
 22 23  1  0
 23 24  1  0
 23 25  1  0
 25 26  1  0
 25 27  1  0
 25 28  1  0
 28 29  1  1
 29 30  1  0
 30 31  1  0
 31 32  1  1
 33 15  1  6
 33  2  1  0
 33  7  1  0
 31 13  1  0
 31 18  1  0
 28 19  1  0
M  END
>  <identifier>  (367) 
CNP0219063.18

>  <canonical_smiles>  (367) 
C[C@H]1[C@H](C)CC[C@]2(C(=O)O)CC[C@]3(C)C(=CC[C@@H]4[C@@]5(C)CCC(O)C(C)(C)[C@@H]5CC[C@]43C)[C@H]12

>  <standard_inchi>  (367) 
InChI=1S/C30H48O3/c1-18-10-15-30(25(32)33)17-16-28(6)20(24(30)19(18)2)8-9-22-27(5)13-12-23(31)26(3,4)21(27)11-14-29(22,28)7/h8,18-19,21-24,31H,9-17H2,1-7H3,(H,32,33)/t18-,19+,21+,22-,23?,24+,27+,28-,29-,30+/m1/s1

>  <standard_inchi_key>  (367) 
WCGUUGGRBIKTOS-INGCLTHDSA-N

>  <name>  (367) 
Ursolic acid, 6

>  <iupac_name>  (367) 
(1~{S},2~{R},4~{a}~{S},6~{a}~{R},6~{a}~{S},6~{b}~{R},8~{a}~{R},12~{a}~{R},14~{b}~{S})-10-hydroxy-1,2,6~{a},6~{b},9,9,12~{a}-heptamethyl-2,3,4,5,6,6~{a},7,8,8~{a},10,11,12,13,14~{b}-tetradecahydro-1~{H}-picene-4~{a}-carboxylic acid

>  <annotation_level>  (367) 
5

>  <total_atom_count>  (367) 
81

>  <heavy_atom_count>  (367) 
33

>  <molecular_weight>  (367) 
456.71

>  <exact_molecular_weight>  (367) 
456.36035

>  <molecular_formula>  (367) 
C30H48O3

>  <alogp>  (367) 
7.09

>  <topological_polar_surface_area>  (367) 
57.53

>  <rotatable_bond_count>  (367) 
1

>  <hydrogen_bond_acceptors>  (367) 
2

>  <hydrogen_bond_donors>  (367) 
2

>  <hydrogen_bond_acceptors_lipinski>  (367) 
2

>  <hydrogen_bond_donors_lipinski>  (367) 
2

>  <lipinski_rule_of_five_violations>  (367) 
1

>  <aromatic_rings_count>  (367) 
0

>  <qed_drug_likeliness>  (367) 
0.41

>  <formal_charge>  (367) 
0

>  <fractioncsp3>  (367) 
0.90

>  <number_of_minimal_rings>  (367) 
5

>  <van_der_walls_volume>  (367) 
nan

>  <contains_sugar>  (367) 
False

>  <contains_ring_sugars>  (367) 
False

>  <contains_linear_sugars>  (367) 
False

>  <murcko_framework>  (367) 
C1=C2C3CCCCC3CCC2C4CCC5CCCCC5C4C1

>  <np_likeness>  (367) 
3.19

>  <chemical_class>  (367) 
Prenol lipids

>  <chemical_sub_class>  (367) 
Triterpenoids

>  <chemical_super_class>  (367) 
Lipids and lipid-like molecules

>  <direct_parent_classification>  (367) 
Taraxastane, ursane, and bauerane triterpenoids

>  <np_classifier_pathway>  (367) 
Terpenoids

>  <np_classifier_superclass>  (367) 
Triterpenoids

>  <np_classifier_class>  (367) 
Ursane and Taraxastane triterpenoids

>  <np_classifier_is_glycoside>  (367) 
False

>  <organisms>  (367) 
Myrcia lingua

>  <collections>  (367) 
Latin America dataset|NuBBEDB

>  <dois>  (367) 
10.1002/cbdv.201400065

>  <synonyms>  (367) 
AKOS016038052|BCP28289|BDBM217382|SCHEMBL12181611|ursolic acid

>  <cas>  (367) 
nan

$$$$

     RDKit          2D

 23 25  0  0  0  0  0  0  0  0999 V2000
    6.6743   -2.6040    0.0000 C   0  0  0  0  0  0  0  0  0  0  0  0
    6.6067   -1.1055    0.0000 O   0  0  0  0  0  0  0  0  0  0  0  0
    5.2752   -0.4148    0.0000 C   0  0  0  0  0  0  0  0  0  0  0  0
    4.0113   -1.2226    0.0000 C   0  0  0  0  0  0  0  0  0  0  0  0
    2.6797   -0.5319    0.0000 C   0  0  0  0  0  0  0  0  0  0  0  0
    1.4158   -1.3397    0.0000 O   0  0  0  0  0  0  0  0  0  0  0  0
    2.6121    0.9665    0.0000 C   0  0  0  0  0  0  0  0  0  0  0  0
    1.2806    1.6572    0.0000 C   0  0  0  0  0  0  0  0  0  0  0  0
    0.0167    0.8494    0.0000 C   0  0  0  0  0  0  0  0  0  0  0  0
   -1.3148    1.5401    0.0000 C   0  0  0  0  0  0  0  0  0  0  0  0
   -2.5787    0.7323    0.0000 C   0  0  0  0  0  0  0  0  0  0  0  0
   -3.9103    1.4230    0.0000 C   0  0  0  0  0  0  0  0  0  0  0  0
   -5.1742    0.6152    0.0000 C   0  0  0  0  0  0  0  0  0  0  0  0
   -5.1066   -0.8832    0.0000 C   0  0  0  0  0  0  0  0  0  0  0  0
   -3.7750   -1.5739    0.0000 C   0  0  0  0  0  0  0  0  0  0  0  0
   -2.5111   -0.7661    0.0000 C   0  0  0  0  0  0  0  0  0  0  0  0
   -1.1796   -1.4568    0.0000 O   0  0  0  0  0  0  0  0  0  0  0  0
   -6.5108   -1.4106    0.0000 O   0  0  0  0  0  0  0  0  0  0  0  0
   -7.4463   -0.2380    0.0000 C   0  0  0  0  0  0  0  0  0  0  0  0
   -6.6202    1.0140    0.0000 O   0  0  0  0  0  0  0  0  0  0  0  0
    3.8761    1.7743    0.0000 C   0  0  0  0  0  0  0  0  0  0  0  0
    5.2076    1.0836    0.0000 C   0  0  0  0  0  0  0  0  0  0  0  0
    6.4715    1.8914    0.0000 C   0  0  0  0  0  0  0  0  0  0  0  0
  1  2  1  0
  2  3  1  0
  3  4  2  0
  4  5  1  0
  5  6  1  0
  5  7  2  0
  7  8  1  0
  8  9  1  0
  9 10  1  0
 10 11  1  0
 11 12  2  0
 12 13  1  0
 13 14  2  0
 14 15  1  0
 15 16  2  0
 16 17  1  0
 14 18  1  0
 18 19  1  0
 19 20  1  0
  7 21  1  0
 21 22  2  0
 22 23  1  0
 22  3  1  0
 16 11  1  0
 20 13  1  0
M  END
>  <identifier>  (368) 
CNP0404169.0

>  <canonical_smiles>  (368) 
COC1=CC(O)=C(CCCC2=CC3=C(C=C2O)OCO3)C=C1C

>  <standard_inchi>  (368) 
InChI=1S/C18H20O5/c1-11-6-12(14(19)8-16(11)21-2)4-3-5-13-7-17-18(9-15(13)20)23-10-22-17/h6-9,19-20H,3-5,10H2,1-2H3

>  <standard_inchi_key>  (368) 
FJKDKGIGQHDXSZ-UHFFFAOYSA-N

>  <name>  (368) 
nan

>  <iupac_name>  (368) 
6-[3-(2-hydroxy-4-methoxy-5-methyl-phenyl)propyl]-1,3-benzodioxol-5-ol

>  <annotation_level>  (368) 
4

>  <total_atom_count>  (368) 
43

>  <heavy_atom_count>  (368) 
23

>  <molecular_weight>  (368) 
316.35

>  <exact_molecular_weight>  (368) 
316.13107

>  <molecular_formula>  (368) 
C18H20O5

>  <alogp>  (368) 
3.32

>  <topological_polar_surface_area>  (368) 
68.15

>  <rotatable_bond_count>  (368) 
5

>  <hydrogen_bond_acceptors>  (368) 
5

>  <hydrogen_bond_donors>  (368) 
2

>  <hydrogen_bond_acceptors_lipinski>  (368) 
5

>  <hydrogen_bond_donors_lipinski>  (368) 
2

>  <lipinski_rule_of_five_violations>  (368) 
0

>  <aromatic_rings_count>  (368) 
2

>  <qed_drug_likeliness>  (368) 
0.89

>  <formal_charge>  (368) 
0

>  <fractioncsp3>  (368) 
0.33

>  <number_of_minimal_rings>  (368) 
3

>  <van_der_walls_volume>  (368) 
nan

>  <contains_sugar>  (368) 
False

>  <contains_ring_sugars>  (368) 
False

>  <contains_linear_sugars>  (368) 
False

>  <murcko_framework>  (368) 
O1c2ccc(cc2OC1)CCCc3ccccc3

>  <np_likeness>  (368) 
0.61

>  <chemical_class>  (368) 
Phenols

>  <chemical_sub_class>  (368) 
Methoxyphenols

>  <chemical_super_class>  (368) 
Benzenoids

>  <direct_parent_classification>  (368) 
Methoxyphenols

>  <np_classifier_pathway>  (368) 
Polyketides

>  <np_classifier_superclass>  (368) 
Aromatic polyketides

>  <np_classifier_class>  (368) 
Catechols with side chains

>  <np_classifier_is_glycoside>  (368) 
False

>  <organisms>  (368) 
Iryanthera laevis

>  <collections>  (368) 
Latin America dataset|NuBBEDB|WikiData Natural Products|ZINC NP

>  <dois>  (368) 
10.1016/0031-9422(80)83082-2

>  <synonyms>  (368) 
6-(3-(2-hydroxy-4-methoxy-5-methylphenyl)propyl)benzo[d][13]dioxol-5-ol

>  <cas>  (368) 
nan

$$$$

     RDKit          2D

 17 18  0  0  0  0  0  0  0  0999 V2000
    4.4181   -2.2281    0.0000 C   0  0  0  0  0  0  0  0  0  0  0  0
    2.9518   -1.9121    0.0000 C   0  0  0  0  0  0  0  0  0  0  0  0
    2.4923   -0.4842    0.0000 C   0  0  0  0  0  0  0  0  0  0  0  0
    3.3774    0.7268    0.0000 C   0  0  0  0  0  0  0  0  0  0  0  0
    4.8774    0.7226    0.0000 O   0  0  0  0  0  0  0  0  0  0  0  0
    2.4992    1.9429    0.0000 O   0  0  0  0  0  0  0  0  0  0  0  0
    1.0713    1.4834    0.0000 C   0  0  0  0  0  0  0  0  0  0  0  0
    1.0670   -0.0166    0.0000 C   0  0  0  0  0  0  0  0  0  0  0  0
   -0.1490   -0.8948    0.0000 C   0  0  0  0  0  0  0  0  0  0  0  0
   -1.5176   -0.2808    0.0000 C   0  0  0  0  0  0  0  0  0  0  0  0
   -1.8253    1.1873    0.0000 C   0  0  0  0  0  0  0  0  0  0  0  0
   -0.8184    2.2991    0.0000 O   0  0  0  0  0  0  0  0  0  0  0  0
   -3.3166    1.3483    0.0000 N   0  0  0  0  0  0  0  0  0  0  0  0
   -3.9306   -0.0203    0.0000 C   0  0  0  0  0  0  0  0  0  0  0  0
   -5.3987   -0.3279    0.0000 O   0  0  0  0  0  0  0  0  0  0  0  0
   -2.8187   -1.0271    0.0000 N   0  0  0  0  0  0  0  0  0  0  0  0
   -2.9798   -2.5185    0.0000 C   0  0  0  0  0  0  0  0  0  0  0  0
  1  2  1  0
  3  2  1  1
  3  4  1  0
  4  5  2  0
  4  6  1  0
  6  7  1  0
  7  8  1  0
  8  9  1  1
  9 10  2  0
 10 11  1  0
 11 12  2  0
 11 13  1  0
 13 14  1  0
 14 15  2  0
 14 16  1  0
 16 17  1  0
  8  3  1  0
 16 10  1  0
M  END
>  <identifier>  (369) 
CNP0205204.1

>  <canonical_smiles>  (369) 
CC[C@@H]1C(=O)OC[C@@H]1/C=C1\C(=O)NC(=O)N1C

>  <standard_inchi>  (369) 
InChI=1S/C11H14N2O4/c1-3-7-6(5-17-10(7)15)4-8-9(14)12-11(16)13(8)2/h4,6-7H,3,5H2,1-2H3,(H,12,14,16)/b8-4+/t6-,7-/m0/s1

>  <standard_inchi_key>  (369) 
MIIPHTPXCTWLLA-PMEPWMBOSA-N

>  <name>  (369) 
nan

>  <iupac_name>  (369) 
(5~{E})-5-[[(3~{R},4~{S})-4-ethyl-5-oxo-tetrahydrofuran-3-yl]methylene]-1-methyl-imidazolidine-2,4-dione

>  <annotation_level>  (369) 
4

>  <total_atom_count>  (369) 
31

>  <heavy_atom_count>  (369) 
17

>  <molecular_weight>  (369) 
238.24

>  <exact_molecular_weight>  (369) 
238.09536

>  <molecular_formula>  (369) 
C11H14N2O4

>  <alogp>  (369) 
0.25

>  <topological_polar_surface_area>  (369) 
75.71

>  <rotatable_bond_count>  (369) 
2

>  <hydrogen_bond_acceptors>  (369) 
4

>  <hydrogen_bond_donors>  (369) 
1

>  <hydrogen_bond_acceptors_lipinski>  (369) 
4

>  <hydrogen_bond_donors_lipinski>  (369) 
1

>  <lipinski_rule_of_five_violations>  (369) 
0

>  <aromatic_rings_count>  (369) 
0

>  <qed_drug_likeliness>  (369) 
0.42

>  <formal_charge>  (369) 
0

>  <fractioncsp3>  (369) 
0.55

>  <number_of_minimal_rings>  (369) 
2

>  <van_der_walls_volume>  (369) 
nan

>  <contains_sugar>  (369) 
False

>  <contains_ring_sugars>  (369) 
False

>  <contains_linear_sugars>  (369) 
False

>  <murcko_framework>  (369) 
O1CCC(C=C2NCNC2)C1

>  <np_likeness>  (369) 
0.80

>  <chemical_class>  (369) 
Azolidines

>  <chemical_sub_class>  (369) 
Imidazolidines

>  <chemical_super_class>  (369) 
Organoheterocyclic compounds

>  <direct_parent_classification>  (369) 
Hydantoins

>  <np_classifier_pathway>  (369) 
Alkaloids

>  <np_classifier_superclass>  (369) 
Histidine alkaloids

>  <np_classifier_class>  (369) 
Imidazole alkaloids

>  <np_classifier_is_glycoside>  (369) 
False

>  <organisms>  (369) 
Pilocarpus grandiflorus

>  <collections>  (369) 
Latin America dataset|NuBBEDB|Super Natural II|WikiData Natural Products|ZINC NP

>  <dois>  (369) 
10.1515/ZNB-2005-0715|10.1515/znb-2005-0715

>  <synonyms>  (369) 
46-Dehydro-1245-tetrahydro-25-dioxopilocarpin

>  <cas>  (369) 
nan

$$$$

     RDKit          2D

 23 26  0  0  0  0  0  0  0  0999 V2000
   -5.0699    2.0226    0.0000 C   0  0  0  0  0  0  0  0  0  0  0  0
   -4.5905    0.6013    0.0000 C   0  0  0  0  0  0  0  0  0  0  0  0
   -5.5816   -0.5245    0.0000 C   0  0  0  0  0  0  0  0  0  0  0  0
   -3.1198    0.3059    0.0000 C   0  0  0  0  0  0  0  0  0  0  0  0
   -2.1287    1.4317    0.0000 C   0  0  0  0  0  0  0  0  0  0  0  0
   -0.6581    1.1363    0.0000 C   0  0  0  0  0  0  0  0  0  0  0  0
   -0.1786   -0.2850    0.0000 C   0  0  0  0  0  0  0  0  0  0  0  0
   -1.1698   -1.4109    0.0000 C   0  0  0  0  0  0  0  0  0  0  0  0
   -0.6904   -2.8322    0.0000 O   0  0  0  0  0  0  0  0  0  0  0  0
   -2.6404   -1.1154    0.0000 C   0  0  0  0  0  0  0  0  0  0  0  0
   -3.6316   -2.2413    0.0000 O   0  0  0  0  0  0  0  0  0  0  0  0
    1.2920   -0.5805    0.0000 C   0  0  0  0  0  0  0  0  0  0  0  0
    1.7714   -2.0018    0.0000 C   0  0  0  0  0  0  0  0  0  0  0  0
    3.2420   -2.2973    0.0000 C   0  0  0  0  0  0  0  0  0  0  0  0
    4.2332   -1.1714    0.0000 C   0  0  0  0  0  0  0  0  0  0  0  0
    3.7538    0.2499    0.0000 C   0  0  0  0  0  0  0  0  0  0  0  0
    3.7894    1.7495    0.0000 C   0  0  0  0  0  0  0  0  0  0  0  0
    5.2368    0.4752    0.0000 C   0  0  0  0  0  0  0  0  0  0  0  0
    2.2832    0.5454    0.0000 C   0  0  0  0  0  0  0  0  0  0  0  0
    1.8037    1.9667    0.0000 C   0  0  0  0  0  0  0  0  0  0  0  0
    0.3331    2.2621    0.0000 C   0  0  0  0  0  0  0  0  0  0  0  0
    0.6436    1.4995    0.0000 O   0  0  0  0  0  0  0  0  0  0  0  0
    1.0771    0.2144    0.0000 C   0  0  0  0  0  0  0  0  0  0  0  0
  1  2  1  0
  2  3  1  0
  2  4  1  0
  4  5  2  0
  5  6  1  0
  6  7  2  0
  7  8  1  0
  8  9  1  0
  8 10  2  0
 10 11  1  0
  7 12  1  0
 12 13  1  1
 13 14  1  0
 14 15  1  0
 15 16  1  0
 16 17  1  0
 16 18  1  0
 16 19  1  0
 19 20  1  0
 21 20  1  6
 21 22  1  0
 22 23  1  0
 10  4  1  0
 19 12  1  0
 21  6  1  0
 23 12  1  0
M  END
>  <identifier>  (370) 
CNP0247351.2

>  <canonical_smiles>  (370) 
CC(C)C1=CC2=C(C(O)=C1O)[C@@]13CCCC(C)(C)C1C[C@@H]2OC3

>  <standard_inchi>  (370) 
InChI=1S/C20H28O3/c1-11(2)12-8-13-14-9-15-19(3,4)6-5-7-20(15,10-23-14)16(13)18(22)17(12)21/h8,11,14-15,21-22H,5-7,9-10H2,1-4H3/t14-,15?,20+/m0/s1

>  <standard_inchi_key>  (370) 
XCVWKCGUFCXDHN-UZMOSDRWSA-N

>  <name>  (370) 
nan

>  <iupac_name>  (370) 
(1~{R},8~{S})-5-isopropyl-11,11-dimethyl-16-oxatetracyclo[6.6.2.0^{1,10}.0^{2,7}]hexadeca-2(7),3,5-triene-3,4-diol

>  <annotation_level>  (370) 
4

>  <total_atom_count>  (370) 
51

>  <heavy_atom_count>  (370) 
23

>  <molecular_weight>  (370) 
316.44

>  <exact_molecular_weight>  (370) 
316.20384

>  <molecular_formula>  (370) 
C20H28O3

>  <alogp>  (370) 
4.76

>  <topological_polar_surface_area>  (370) 
49.69

>  <rotatable_bond_count>  (370) 
1

>  <hydrogen_bond_acceptors>  (370) 
3

>  <hydrogen_bond_donors>  (370) 
2

>  <hydrogen_bond_acceptors_lipinski>  (370) 
3

>  <hydrogen_bond_donors_lipinski>  (370) 
2

>  <lipinski_rule_of_five_violations>  (370) 
0

>  <aromatic_rings_count>  (370) 
1

>  <qed_drug_likeliness>  (370) 
0.73

>  <formal_charge>  (370) 
0

>  <fractioncsp3>  (370) 
0.70

>  <number_of_minimal_rings>  (370) 
5

>  <van_der_walls_volume>  (370) 
nan

>  <contains_sugar>  (370) 
False

>  <contains_ring_sugars>  (370) 
False

>  <contains_linear_sugars>  (370) 
False

>  <murcko_framework>  (370) 
O1CC23c4ccccc4C1CC3CCCC2

>  <np_likeness>  (370) 
2.41

>  <chemical_class>  (370) 
Prenol lipids

>  <chemical_sub_class>  (370) 
Diterpenoids

>  <chemical_super_class>  (370) 
Lipids and lipid-like molecules

>  <direct_parent_classification>  (370) 
Diterpenoids

>  <np_classifier_pathway>  (370) 
Terpenoids

>  <np_classifier_superclass>  (370) 
Diterpenoids

>  <np_classifier_class>  (370) 
Abietane diterpenoids

>  <np_classifier_is_glycoside>  (370) 
False

>  <organisms>  (370) 
Coleus barbatus

>  <collections>  (370) 
Latin America dataset|NuBBEDB

>  <dois>  (370) 
10.1016/S0031-9422(00)83467-6

>  <synonyms>  (370) 
20-deoxocarnosol

>  <cas>  (370) 
nan

$$$$

     RDKit          2D

 30 32  0  0  0  0  0  0  0  0999 V2000
    4.1741   -4.6292    0.0000 C   0  0  0  0  0  0  0  0  0  0  0  0
    4.0892   -3.1316    0.0000 C   0  0  0  0  0  0  0  0  0  0  0  0
    2.7499   -2.4563    0.0000 C   0  0  0  0  0  0  0  0  0  0  0  0
    2.6650   -0.9587    0.0000 C   0  0  0  0  0  0  0  0  0  0  0  0
    3.9196   -0.1364    0.0000 C   0  0  0  0  0  0  0  0  0  0  0  0
    3.8347    1.3612    0.0000 C   0  0  0  0  0  0  0  0  0  0  0  0
    5.0893    2.1834    0.0000 O   0  0  0  0  0  0  0  0  0  0  0  0
    6.4287    1.5081    0.0000 C   0  0  0  0  0  0  0  0  0  0  0  0
    2.4954    2.0365    0.0000 C   0  0  0  0  0  0  0  0  0  0  0  0
    2.4105    3.5341    0.0000 O   0  0  0  0  0  0  0  0  0  0  0  0
    1.2408    1.2142    0.0000 C   0  0  0  0  0  0  0  0  0  0  0  0
   -0.0986    1.8896    0.0000 O   0  0  0  0  0  0  0  0  0  0  0  0
   -0.1834    3.3872    0.0000 C   0  0  0  0  0  0  0  0  0  0  0  0
    1.3257   -0.2834    0.0000 C   0  0  0  0  0  0  0  0  0  0  0  0
    0.0711   -1.1056    0.0000 O   0  0  0  0  0  0  0  0  0  0  0  0
    0.3955   -0.0985    0.0000 C   0  0  0  0  0  0  0  0  0  0  0  0
   -1.1027   -0.0263    0.0000 C   0  0  0  0  0  0  0  0  0  0  0  0
   -1.7894    1.3073    0.0000 C   0  0  0  0  0  0  0  0  0  0  0  0
   -3.2876    1.3795    0.0000 C   0  0  0  0  0  0  0  0  0  0  0  0
   -3.9742    2.7131    0.0000 O   0  0  0  0  0  0  0  0  0  0  0  0
   -3.1626    3.9745    0.0000 C   0  0  0  0  0  0  0  0  0  0  0  0
   -4.0993    0.1180    0.0000 C   0  0  0  0  0  0  0  0  0  0  0  0
   -5.5975    0.1902    0.0000 O   0  0  0  0  0  0  0  0  0  0  0  0
   -6.4092   -1.0712    0.0000 C   0  0  0  0  0  0  0  0  0  0  0  0
   -3.4126   -1.2156    0.0000 C   0  0  0  0  0  0  0  0  0  0  0  0
   -4.2243   -2.4770    0.0000 O   0  0  0  0  0  0  0  0  0  0  0  0
   -3.5376   -3.8107    0.0000 C   0  0  0  0  0  0  0  0  0  0  0  0
   -1.9144   -1.2878    0.0000 C   0  0  0  0  0  0  0  0  0  0  0  0
    1.2178   -1.3530    0.0000 C   0  0  0  0  0  0  0  0  0  0  0  0
    0.6862   -2.7557    0.0000 C   0  0  0  0  0  0  0  0  0  0  0  0
  1  2  2  0
  2  3  1  0
  4  3  1  6
  4  5  1  0
  5  6  1  0
  6  7  1  6
  7  8  1  0
  6  9  1  0
  9 10  1  6
  9 11  1  0
 11 12  1  6
 12 13  1  0
 11 14  1  0
 14 15  2  0
 11 16  1  0
 16 17  1  6
 17 18  2  0
 18 19  1  0
 19 20  1  0
 20 21  1  0
 19 22  2  0
 22 23  1  0
 23 24  1  0
 22 25  1  0
 25 26  1  0
 26 27  1  0
 25 28  2  0
 16 29  1  0
 29 30  1  1
 14  4  1  0
 28 17  1  0
 29  4  1  0
M  END
>  <identifier>  (371) 
CNP0275320.1

>  <canonical_smiles>  (371) 
C=CC[C@@]12C[C@@H](OC)[C@@H](O)[C@@](OC)(C1=O)[C@@H](C1=CC(OC)=C(OC)C(OC)=C1)[C@@H]2C

>  <standard_inchi>  (371) 
InChI=1S/C23H32O7/c1-8-9-22-12-17(28-5)20(24)23(30-7,21(22)25)18(13(22)2)14-10-15(26-3)19(29-6)16(11-14)27-4/h8,10-11,13,17-18,20,24H,1,9,12H2,2-7H3/t13-,17+,18+,20+,22-,23+/m0/s1

>  <standard_inchi_key>  (371) 
OXGDSGZTOVAIER-KEBJHPCDSA-N

>  <name>  (371) 
nan

>  <iupac_name>  (371) 
(1~{R},2~{R},3~{R},5~{S},6~{S},7~{R})-5-allyl-2-hydroxy-1,3-dimethoxy-6-methyl-7-(3,4,5-trimethoxyphenyl)bicyclo[3.2.1]octan-8-one

>  <annotation_level>  (371) 
3

>  <total_atom_count>  (371) 
62

>  <heavy_atom_count>  (371) 
30

>  <molecular_weight>  (371) 
420.5

>  <exact_molecular_weight>  (371) 
420.2148

>  <molecular_formula>  (371) 
C23H32O7

>  <alogp>  (371) 
2.74

>  <topological_polar_surface_area>  (371) 
83.45

>  <rotatable_bond_count>  (371) 
8

>  <hydrogen_bond_acceptors>  (371) 
7

>  <hydrogen_bond_donors>  (371) 
1

>  <hydrogen_bond_acceptors_lipinski>  (371) 
7

>  <hydrogen_bond_donors_lipinski>  (371) 
1

>  <lipinski_rule_of_five_violations>  (371) 
0

>  <aromatic_rings_count>  (371) 
1

>  <qed_drug_likeliness>  (371) 
0.65

>  <formal_charge>  (371) 
0

>  <fractioncsp3>  (371) 
0.61

>  <number_of_minimal_rings>  (371) 
3

>  <van_der_walls_volume>  (371) 
nan

>  <contains_sugar>  (371) 
False

>  <contains_ring_sugars>  (371) 
False

>  <contains_linear_sugars>  (371) 
False

>  <murcko_framework>  (371) 
c1ccc(cc1)C2CC3CCCC2C3

>  <np_likeness>  (371) 
1.59

>  <chemical_class>  (371) 
Phenol ethers

>  <chemical_sub_class>  (371) 
Anisoles

>  <chemical_super_class>  (371) 
Benzenoids

>  <direct_parent_classification>  (371) 
Anisoles

>  <np_classifier_pathway>  (371) 
Shikimates and Phenylpropanoids

>  <np_classifier_superclass>  (371) 
Lignans

>  <np_classifier_class>  (371) 
Neolignans

>  <np_classifier_is_glycoside>  (371) 
False

>  <organisms>  (371) 
Aniba|Aniba sp.

>  <collections>  (371) 
Latin America dataset|NuBBEDB|WikiData Natural Products

>  <dois>  (371) 
10.1016/S0031-9422(82)85050-4

>  <synonyms>  (371) 
nan

>  <cas>  (371) 
nan

$$$$

     RDKit          2D

 30 33  0  0  0  0  0  0  0  0999 V2000
   -6.8967    2.0962    0.0000 C   0  0  0  0  0  0  0  0  0  0  0  0
   -5.4708    1.6307    0.0000 C   0  0  0  0  0  0  0  0  0  0  0  0
   -5.1610    0.1630    0.0000 C   0  0  0  0  0  0  0  0  0  0  0  0
   -3.7350   -0.3025    0.0000 C   0  0  0  0  0  0  0  0  0  0  0  0
   -3.4252   -1.7702    0.0000 C   0  0  0  0  0  0  0  0  0  0  0  0
   -4.5413   -2.7723    0.0000 C   0  0  0  0  0  0  0  0  0  0  0  0
   -1.9993   -2.2357    0.0000 C   0  0  0  0  0  0  0  0  0  0  0  0
   -1.5378   -3.6629    0.0000 C   0  0  0  0  0  0  0  0  0  0  0  0
   -0.0378   -3.6650    0.0000 C   0  0  0  0  0  0  0  0  0  0  0  0
    0.4278   -2.2391    0.0000 C   0  0  0  0  0  0  0  0  0  0  0  0
    1.7989   -1.6309    0.0000 C   0  0  0  0  0  0  0  0  0  0  0  0
    3.0112   -2.5142    0.0000 C   0  0  0  0  0  0  0  0  0  0  0  0
    4.3824   -1.9061    0.0000 C   0  0  0  0  0  0  0  0  0  0  0  0
    4.5413   -0.4145    0.0000 C   0  0  0  0  0  0  0  0  0  0  0  0
    5.9124    0.1937    0.0000 C   0  0  0  0  0  0  0  0  0  0  0  0
    6.0713    1.6853    0.0000 C   0  0  0  0  0  0  0  0  0  0  0  0
    7.4425    2.2934    0.0000 O   0  0  0  0  0  0  0  0  0  0  0  0
    4.8590    2.5686    0.0000 C   0  0  0  0  0  0  0  0  0  0  0  0
    3.4878    1.9604    0.0000 C   0  0  0  0  0  0  0  0  0  0  0  0
    3.3290    0.4689    0.0000 C   0  0  0  0  0  0  0  0  0  0  0  0
    2.1167    1.3522    0.0000 C   0  0  0  0  0  0  0  0  0  0  0  0
    1.9578   -0.1393    0.0000 C   0  0  0  0  0  0  0  0  0  0  0  0
    0.7455    0.7441    0.0000 C   0  0  0  0  0  0  0  0  0  0  0  0
   -0.6257    0.1359    0.0000 C   0  0  0  0  0  0  0  0  0  0  0  0
   -1.8380    1.0192    0.0000 O   0  0  0  0  0  0  0  0  0  0  0  0
   -0.7845   -1.3557    0.0000 C   0  0  0  0  0  0  0  0  0  0  0  0
   -2.0825   -0.6039    0.0000 C   0  0  0  0  0  0  0  0  0  0  0  0
   -4.3547    2.6328    0.0000 C   0  0  0  0  0  0  0  0  0  0  0  0
   -4.6645    4.1005    0.0000 C   0  0  0  0  0  0  0  0  0  0  0  0
   -2.9287    2.1673    0.0000 C   0  0  0  0  0  0  0  0  0  0  0  0
  1  2  2  0
  2  3  1  0
  3  4  1  0
  4  5  1  0
  5  6  1  1
  5  7  1  0
  7  8  1  1
  8  9  1  0
  9 10  1  0
 10 11  1  0
 11 12  1  0
 12 13  1  0
 13 14  2  0
 14 15  1  0
 15 16  1  0
 16 17  1  6
 16 18  1  0
 18 19  1  0
 19 20  1  0
 20 21  1  6
 20 22  1  0
 22 23  1  0
 23 24  1  0
 24 25  1  6
 24 26  1  0
 26 27  1  6
  2 28  1  0
 28 29  1  0
 28 30  1  0
 26  7  1  0
 26 10  1  0
 22 11  1  0
 20 14  1  0
M  END
>  <identifier>  (372) 
CNP0080527.1

>  <canonical_smiles>  (372) 
C=C(CC[C@H](C)[C@@H]1CCC2C3CC=C4C[C@@H](O)CC[C@]4(C)C3C[C@@H](O)[C@@]21C)C(C)C

>  <standard_inchi>  (372) 
InChI=1S/C28H46O2/c1-17(2)18(3)7-8-19(4)23-11-12-24-22-10-9-20-15-21(29)13-14-27(20,5)25(22)16-26(30)28(23,24)6/h9,17,19,21-26,29-30H,3,7-8,10-16H2,1-2,4-6H3/t19-,21-,22?,23-,24?,25?,26+,27-,28+/m0/s1

>  <standard_inchi_key>  (372) 
CRHZTCBCKPSKLB-ISHCFNTQSA-N

>  <name>  (372) 
nan

>  <iupac_name>  (372) 
(3~{S},10~{R},12~{R},13~{R},17~{S})-17-[(1~{S})-1,5-dimethyl-4-methylene-hexyl]-10,13-dimethyl-2,3,4,7,8,9,11,12,14,15,16,17-dodecahydro-1~{H}-cyclopenta[a]phenanthrene-3,12-diol

>  <annotation_level>  (372) 
4

>  <total_atom_count>  (372) 
76

>  <heavy_atom_count>  (372) 
30

>  <molecular_weight>  (372) 
414.67

>  <exact_molecular_weight>  (372) 
414.34978

>  <molecular_formula>  (372) 
C28H46O2

>  <alogp>  (372) 
6.53

>  <topological_polar_surface_area>  (372) 
40.46

>  <rotatable_bond_count>  (372) 
5

>  <hydrogen_bond_acceptors>  (372) 
2

>  <hydrogen_bond_donors>  (372) 
2

>  <hydrogen_bond_acceptors_lipinski>  (372) 
2

>  <hydrogen_bond_donors_lipinski>  (372) 
2

>  <lipinski_rule_of_five_violations>  (372) 
1

>  <aromatic_rings_count>  (372) 
0

>  <qed_drug_likeliness>  (372) 
0.50

>  <formal_charge>  (372) 
0

>  <fractioncsp3>  (372) 
0.86

>  <number_of_minimal_rings>  (372) 
4

>  <van_der_walls_volume>  (372) 
nan

>  <contains_sugar>  (372) 
False

>  <contains_ring_sugars>  (372) 
False

>  <contains_linear_sugars>  (372) 
False

>  <murcko_framework>  (372) 
C1=C2CCCCC2C3CCC4CCCC4C3C1

>  <np_likeness>  (372) 
3.12

>  <chemical_class>  (372) 
Steroids and steroid derivatives

>  <chemical_sub_class>  (372) 
Ergostane steroids

>  <chemical_super_class>  (372) 
Lipids and lipid-like molecules

>  <direct_parent_classification>  (372) 
Ergosterols and derivatives

>  <np_classifier_pathway>  (372) 
Terpenoids

>  <np_classifier_superclass>  (372) 
Steroids

>  <np_classifier_class>  (372) 
Cholestane steroids

>  <np_classifier_is_glycoside>  (372) 
False

>  <organisms>  (372) 
Trichilia lepidota

>  <collections>  (372) 
Latin America dataset|NuBBEDB

>  <dois>  (372) 
10.1590/S0103-50532002000300014

>  <synonyms>  (372) 
24-methylene-12\u221a\u00e9\u00ac\u2264-hydroxycholesterol

>  <cas>  (372) 
nan

$$$$

     RDKit          2D

 15 16  0  0  0  0  0  0  0  0999 V2000
   -4.0269   -1.2096    0.0000 C   0  0  0  0  0  0  0  0  0  0  0  0
   -3.1245   -0.0113    0.0000 C   0  0  0  0  0  0  0  0  0  0  0  0
   -4.4613    0.6692    0.0000 C   0  0  0  0  0  0  0  0  0  0  0  0
   -2.6864    1.4233    0.0000 C   0  0  0  0  0  0  0  0  0  0  0  0
   -1.2250    1.7612    0.0000 C   0  0  0  0  0  0  0  0  0  0  0  0
   -0.2017    0.6645    0.0000 C   0  0  0  0  0  0  0  0  0  0  0  0
    1.2598    1.0024    0.0000 C   0  0  0  0  0  0  0  0  0  0  0  0
    2.2831   -0.0943    0.0000 C   0  0  0  0  0  0  0  0  0  0  0  0
    3.7446    0.2436    0.0000 C   0  0  0  0  0  0  0  0  0  0  0  0
    4.1827    1.6782    0.0000 O   0  0  0  0  0  0  0  0  0  0  0  0
    4.7679   -0.8531    0.0000 O   0  0  0  0  0  0  0  0  0  0  0  0
    1.8450   -1.5289    0.0000 C   0  0  0  0  0  0  0  0  0  0  0  0
    0.3836   -1.8668    0.0000 C   0  0  0  0  0  0  0  0  0  0  0  0
   -0.6398   -0.7701    0.0000 C   0  0  0  0  0  0  0  0  0  0  0  0
   -2.1012   -1.1080    0.0000 O   0  0  0  0  0  0  0  0  0  0  0  0
  1  2  1  0
  2  3  1  0
  2  4  1  0
  4  5  2  0
  5  6  1  0
  6  7  2  0
  7  8  1  0
  8  9  1  0
  9 10  2  0
  9 11  1  0
  8 12  2  0
 12 13  1  0
 13 14  2  0
 14 15  1  0
 15  2  1  0
 14  6  1  0
M  END
>  <identifier>  (373) 
CNP0291328.0

>  <canonical_smiles>  (373) 
CC1(C)C=CC2=CC(C(=O)O)=CC=C2O1

>  <standard_inchi>  (373) 
InChI=1S/C12H12O3/c1-12(2)6-5-8-7-9(11(13)14)3-4-10(8)15-12/h3-7H,1-2H3,(H,13,14)

>  <standard_inchi_key>  (373) 
AXICIBPYBONRSP-UHFFFAOYSA-N

>  <name>  (373) 
2,2-Dimethyl-2H-chromene-6-carboxylic acid

>  <iupac_name>  (373) 
2,2-dimethylchromene-6-carboxylic acid

>  <annotation_level>  (373) 
5

>  <total_atom_count>  (373) 
27

>  <heavy_atom_count>  (373) 
15

>  <molecular_weight>  (373) 
204.22

>  <exact_molecular_weight>  (373) 
204.07864

>  <molecular_formula>  (373) 
C12H12O3

>  <alogp>  (373) 
2.57

>  <topological_polar_surface_area>  (373) 
46.53

>  <rotatable_bond_count>  (373) 
1

>  <hydrogen_bond_acceptors>  (373) 
2

>  <hydrogen_bond_donors>  (373) 
1

>  <hydrogen_bond_acceptors_lipinski>  (373) 
2

>  <hydrogen_bond_donors_lipinski>  (373) 
1

>  <lipinski_rule_of_five_violations>  (373) 
0

>  <aromatic_rings_count>  (373) 
1

>  <qed_drug_likeliness>  (373) 
0.76

>  <formal_charge>  (373) 
0

>  <fractioncsp3>  (373) 
0.25

>  <number_of_minimal_rings>  (373) 
2

>  <van_der_walls_volume>  (373) 
186.54

>  <contains_sugar>  (373) 
False

>  <contains_ring_sugars>  (373) 
False

>  <contains_linear_sugars>  (373) 
False

>  <murcko_framework>  (373) 
O1c2ccccc2C=CC1

>  <np_likeness>  (373) 
1.81

>  <chemical_class>  (373) 
Benzopyrans

>  <chemical_sub_class>  (373) 
1-benzopyrans

>  <chemical_super_class>  (373) 
Organoheterocyclic compounds

>  <direct_parent_classification>  (373) 
2,2-dimethyl-1-benzopyrans

>  <np_classifier_pathway>  (373) 
Terpenoids

>  <np_classifier_superclass>  (373) 
Meroterpenoids

>  <np_classifier_class>  (373) 
Merohemiterpenoids

>  <np_classifier_is_glycoside>  (373) 
False

>  <organisms>  (373) 
Anodendron affine|Aspergillus duricaulis|Bhesa paniculata|Curvularia fallax|Gentiana algida|Great yellow gentian|Lactarius deliciosus|Piper aduncum|Rhizophora apiculata|piper sp.

>  <collections>  (373) 
ChemSpider NPs|EMNPD|FooDB|KNApSaCK|Latin America dataset|NPASS|NPAtlas|NPEdia|NuBBEDB|Super Natural II|TCMDB-Taiwan (Traditional Chinese Medicine database)|TCMID (Traditional Chinese Medicine Integrated Database)|TIPdb (database of Taiwan indigenous plants)|UNPD (Universal Natural Products Database)|WikiData Natural Products

>  <dois>  (373) 
10.1007/S11418-007-0143-X|10.1016/0031-9422(90)85203-R|10.1016/0031-9422(94)00314-J|10.1016/0031-9422(95)00599-4|10.1016/S0031-9422(99)00132-6|10.1021/ACS.JNATPROD.5B00508|10.1021/NP030530J|10.1021/NP200885E|10.1021/NP50108A026|10.1021/acs.jnatprod.5b00508|10.1021/np030530j|10.1021/np50108a026|10.1080/14786410802243271|10.1248/BPB.31.538|10.1248/YAKUSHI1947.91.10_1124|10.1248/bpb.31.538

>  <synonyms>  (373) 
1-Hydroxy-3',3'-dimethylchromene|2,2-Dimethyl-2H-benzo[b]pyran-6-carboxylic Acid|2,2-Dimethyl-6-chromenecarboxylic acid|2,2-dimethylchromene-6-carboxylic acid|2H-1-Benzopyran-6-carboxylic acid, 2,2-dimethyl-|34818-56-9|6-Carboxy-2,2-dimethylchromen|AKOS016028545|AXICIBPYBONRSP-UHFFFAOYSA-N|Anofinic acid|BDBM50499720|CHEBI:172317|CHEMBL469159|CS-0358926|DTXSID10415747|MFCD06208181|SCHEMBL8066269|SS-3624

>  <cas>  (373) 
34818-56-9

$$$$

     RDKit          2D

 27 31  0  0  0  0  0  0  0  0999 V2000
   -6.5664    0.5985    0.0000 C   0  0  0  0  0  0  0  0  0  0  0  0
   -5.1704    1.1474    0.0000 C   0  0  0  0  0  0  0  0  0  0  0  0
   -3.9971    0.2128    0.0000 C   0  0  0  0  0  0  0  0  0  0  0  0
   -4.2198   -1.2706    0.0000 C   0  0  0  0  0  0  0  0  0  0  0  0
   -3.0465   -2.2051    0.0000 C   0  0  0  0  0  0  0  0  0  0  0  0
   -3.6642   -0.8382    0.0000 C   0  0  0  0  0  0  0  0  0  0  0  0
   -2.6020    2.2617    0.0000 N   0  0  0  0  0  0  0  0  0  0  0  0
   -1.4298    3.1976    0.0000 C   0  0  0  0  0  0  0  0  0  0  0  0
    0.0328    2.8647    0.0000 C   0  0  0  0  0  0  0  0  0  0  0  0
    0.6844    1.5136    0.0000 C   0  0  0  0  0  0  0  0  0  0  0  0
    0.0344    0.1618    0.0000 C   0  0  0  0  0  0  0  0  0  0  0  0
    1.1192   -0.8742    0.0000 N   0  0  0  0  0  0  0  0  0  0  0  0
    2.4397   -0.1626    0.0000 C   0  0  0  0  0  0  0  0  0  0  0  0
    3.8520   -0.6677    0.0000 C   0  0  0  0  0  0  0  0  0  0  0  0
    4.9957    0.3029    0.0000 C   0  0  0  0  0  0  0  0  0  0  0  0
    6.4081   -0.2023    0.0000 O   0  0  0  0  0  0  0  0  0  0  0  0
    6.6768   -1.6780    0.0000 C   0  0  0  0  0  0  0  0  0  0  0  0
    4.7270    1.7786    0.0000 C   0  0  0  0  0  0  0  0  0  0  0  0
    3.3146    2.2838    0.0000 C   0  0  0  0  0  0  0  0  0  0  0  0
    2.1710    1.3132    0.0000 C   0  0  0  0  0  0  0  0  0  0  0  0
   -1.4278   -0.1729    0.0000 C   0  0  0  0  0  0  0  0  0  0  0  0
   -0.3276   -1.1925    0.0000 C   0  0  0  0  0  0  0  0  0  0  0  0
    0.4683   -1.1483    0.0000 O   0  0  0  0  0  0  0  0  0  0  0  0
   -0.6605   -2.6551    0.0000 O   0  0  0  0  0  0  0  0  0  0  0  0
    0.4397   -3.6747    0.0000 C   0  0  0  0  0  0  0  0  0  0  0  0
   -1.6505   -1.6562    0.0000 C   0  0  0  0  0  0  0  0  0  0  0  0
   -2.6011    0.7617    0.0000 C   0  0  0  0  0  0  0  0  0  0  0  0
  1  2  1  0
  3  2  1  6
  3  4  1  0
  5  4  1  1
  5  6  1  0
  6  7  1  0
  7  8  1  0
  8  9  1  0
  9 10  1  0
 10 11  2  0
 11 12  1  0
 12 13  1  0
 13 14  2  0
 14 15  1  0
 15 16  1  0
 16 17  1  0
 15 18  2  0
 18 19  1  0
 19 20  2  0
 11 21  1  0
 21 22  1  1
 22 23  2  0
 22 24  1  0
 24 25  1  0
 21 26  1  0
 21 27  1  0
 27  3  1  0
 26  5  1  0
 27  7  1  6
 20 10  1  0
 20 13  1  0
M  END
>  <identifier>  (374) 
CNP0242886.2

>  <canonical_smiles>  (374) 
CC[C@H]1C[C@H]2CN3CCC4=C(NC5=CC(OC)=CC=C45)[C@](C(=O)OC)(C2)[C@H]13

>  <standard_inchi>  (374) 
InChI=1S/C22H28N2O3/c1-4-14-9-13-11-22(21(25)27-3)19-17(7-8-24(12-13)20(14)22)16-6-5-15(26-2)10-18(16)23-19/h5-6,10,13-14,20,23H,4,7-9,11-12H2,1-3H3/t13-,14+,20+,22-/m1/s1

>  <standard_inchi_key>  (374) 
FPUHKQMDWMVBRI-PHKAQXKASA-N

>  <name>  (374) 
596-54-3

>  <iupac_name>  (374) 
methyl (1~{S},15~{R},17~{S},18~{S})-17-ethyl-6-methoxy-3,13-diazapentacyclo[13.3.1.0^{2,10}.0^{4,9}.0^{13,18}]nonadeca-2(10),4,6,8-tetraene-1-carboxylate

>  <annotation_level>  (374) 
5

>  <total_atom_count>  (374) 
55

>  <heavy_atom_count>  (374) 
27

>  <molecular_weight>  (374) 
368.48

>  <exact_molecular_weight>  (374) 
368.20999

>  <molecular_formula>  (374) 
C22H28N2O3

>  <alogp>  (374) 
3.26

>  <topological_polar_surface_area>  (374) 
54.56

>  <rotatable_bond_count>  (374) 
3

>  <hydrogen_bond_acceptors>  (374) 
4

>  <hydrogen_bond_donors>  (374) 
1

>  <hydrogen_bond_acceptors_lipinski>  (374) 
4

>  <hydrogen_bond_donors_lipinski>  (374) 
1

>  <lipinski_rule_of_five_violations>  (374) 
0

>  <aromatic_rings_count>  (374) 
2

>  <qed_drug_likeliness>  (374) 
0.85

>  <formal_charge>  (374) 
0

>  <fractioncsp3>  (374) 
0.59

>  <number_of_minimal_rings>  (374) 
6

>  <van_der_walls_volume>  (374) 
340.56

>  <contains_sugar>  (374) 
False

>  <contains_ring_sugars>  (374) 
False

>  <contains_linear_sugars>  (374) 
False

>  <murcko_framework>  (374) 
c1ccc2c(c1)[nH]c3c2CCN4CC5CCC4C3C5

>  <np_likeness>  (374) 
1.46

>  <chemical_class>  (374) 
Ibogan-type alkaloids

>  <chemical_sub_class>  (374) 
Ibogan-type alkaloids

>  <chemical_super_class>  (374) 
Alkaloids and derivatives

>  <direct_parent_classification>  (374) 
Ibogan-type alkaloids

>  <np_classifier_pathway>  (374) 
Alkaloids

>  <np_classifier_superclass>  (374) 
Tryptophan alkaloids

>  <np_classifier_class>  (374) 
Iboga type

>  <np_classifier_is_glycoside>  (374) 
False

>  <organisms>  (374) 
Conopharyngia durissima|Montana elegans|Peschiera catharinensis|Tabernaemontana Divaricata|Tabernaemontana africana|Tabernaemontana amblyocarpa Urb.|Tabernaemontana apoda Wr.ex Sauv.|Tabernaemontana arborea Rose|Tabernaemontana attenuata (Miers) Urb.|Tabernaemontana calcarea|Tabernaemontana catharinensis|Tabernaemontana coffeoides Boj.|Tabernaemontana corymbosa|Tabernaemontana crassa|Tabernaemontana crassa Benth.|Tabernaemontana divaricata|Tabernaemontana divaricata (L.) R.Br.|Tabernaemontana eglandulosa Stapf|Tabernaemontana elegans|Tabernaemontana elegans Stapf.|Tabernaemontana grandiflora|Tabernaemontana johnstonii (Stapf) Pichon|Tabernaemontana orientalis R.Br.|Tabernaemontana pachysiphon|Tabernaemontana pachysiphon Stapf.|Tabernaemontana pandacaqui|Tabernaemontana pandacaqui Poir.|Tabernaemontana sessilifolia Bak.|Tabernaemontana siphilitica Leeuwenberg|Tabernaemontana solanifolia|Tabernaemontana stapfiana|Tabernaemontana wallichiana Steud.

>  <collections>  (374) 
KNApSaCK|Latin America dataset|NuBBEDB|TIPdb (database of Taiwan indigenous plants)|VietHerb|WikiData Natural Products

>  <dois>  (374) 
10.1002/JPS.2600670232|10.1016/0031-9422(86)80013-9|10.1016/0031-9422(88)80456-4|10.1016/0031-9422(91)84254-P|10.1016/S0021-9673(98)00084-3|10.1016/S0031-9422(00)80552-X|10.1016/S0031-9422(00)83488-3|10.1016/S0031-9422(00)83770-X|10.1021/JA01490A031|10.1021/NP0105432|10.1021/NP020548E|10.1021/NP058092Z|10.1021/NP50039A008|10.1055/S-2006-957393|10.1055/S-2007-969101|10.1248/CPB.42.280

>  <synonyms>  (374) 
(-)-Isovoacangine|DTXSID601316325|Ibogamine-18-carboxylic acid, 13-methoxy-, methyl ester|Isovoacangine|NSC 195198

>  <cas>  (374) 
nan

$$$$

     RDKit          2D

 16 15  0  0  0  0  0  0  0  0999 V2000
   -6.4026   -0.5322    0.0000 C   0  0  0  0  0  0  0  0  0  0  0  0
   -5.0720    0.1603    0.0000 C   0  0  0  0  0  0  0  0  0  0  0  0
   -3.8070   -0.6459    0.0000 C   0  0  0  0  0  0  0  0  0  0  0  0
   -4.6132   -1.9109    0.0000 C   0  0  0  0  0  0  0  0  0  0  0  0
   -2.5421   -1.4520    0.0000 O   0  0  0  0  0  0  0  0  0  0  0  0
   -3.0009    0.6191    0.0000 C   0  0  0  0  0  0  0  0  0  0  0  0
   -1.5023    0.5534    0.0000 C   0  0  0  0  0  0  0  0  0  0  0  0
   -0.6962    1.8184    0.0000 C   0  0  0  0  0  0  0  0  0  0  0  0
    0.8024    1.7527    0.0000 C   0  0  0  0  0  0  0  0  0  0  0  0
    1.6085    3.0177    0.0000 C   0  0  0  0  0  0  0  0  0  0  0  0
    1.4948    0.4221    0.0000 C   0  0  0  0  0  0  0  0  0  0  0  0
    2.9934    0.3565    0.0000 C   0  0  0  0  0  0  0  0  0  0  0  0
    3.6858   -0.9742    0.0000 C   0  0  0  0  0  0  0  0  0  0  0  0
    5.1843   -1.0398    0.0000 C   0  0  0  0  0  0  0  0  0  0  0  0
    5.8768   -2.3704    0.0000 C   0  0  0  0  0  0  0  0  0  0  0  0
    5.9905    0.2252    0.0000 C   0  0  0  0  0  0  0  0  0  0  0  0
  1  2  2  0
  2  3  1  0
  3  4  1  1
  3  5  1  0
  3  6  1  0
  6  7  1  0
  7  8  1  0
  8  9  2  3
  9 10  1  0
  9 11  1  0
 11 12  1  0
 12 13  1  0
 13 14  2  0
 14 15  1  0
 14 16  1  0
M  END
>  <identifier>  (375) 
CNP0241588.5

>  <canonical_smiles>  (375) 
C=C[C@@](C)(O)CCC=C(C)CCC=C(C)C

>  <standard_inchi>  (375) 
InChI=1S/C15H26O/c1-6-15(5,16)12-8-11-14(4)10-7-9-13(2)3/h6,9,11,16H,1,7-8,10,12H2,2-5H3/t15-/m1/s1

>  <standard_inchi_key>  (375) 
FQTLCLSUCSAZDY-OAHLLOKOSA-N

>  <name>  (375) 
(+)-Nerolidol

>  <iupac_name>  (375) 
(3~{S})-3,7,11-trimethyldodeca-1,6,10-trien-3-ol

>  <annotation_level>  (375) 
5

>  <total_atom_count>  (375) 
42

>  <heavy_atom_count>  (375) 
16

>  <molecular_weight>  (375) 
222.37

>  <exact_molecular_weight>  (375) 
222.19837

>  <molecular_formula>  (375) 
C15H26O

>  <alogp>  (375) 
4.40

>  <topological_polar_surface_area>  (375) 
20.23

>  <rotatable_bond_count>  (375) 
7

>  <hydrogen_bond_acceptors>  (375) 
1

>  <hydrogen_bond_donors>  (375) 
1

>  <hydrogen_bond_acceptors_lipinski>  (375) 
1

>  <hydrogen_bond_donors_lipinski>  (375) 
1

>  <lipinski_rule_of_five_violations>  (375) 
0

>  <aromatic_rings_count>  (375) 
0

>  <qed_drug_likeliness>  (375) 
0.63

>  <formal_charge>  (375) 
0

>  <fractioncsp3>  (375) 
0.60

>  <number_of_minimal_rings>  (375) 
0

>  <van_der_walls_volume>  (375) 
nan

>  <contains_sugar>  (375) 
False

>  <contains_ring_sugars>  (375) 
False

>  <contains_linear_sugars>  (375) 
False

>  <murcko_framework>  (375) 
nan

>  <np_likeness>  (375) 
2.92

>  <chemical_class>  (375) 
Prenol lipids

>  <chemical_sub_class>  (375) 
Sesquiterpenoids

>  <chemical_super_class>  (375) 
Lipids and lipid-like molecules

>  <direct_parent_classification>  (375) 
Sesquiterpenoids

>  <np_classifier_pathway>  (375) 
Terpenoids

>  <np_classifier_superclass>  (375) 
Sesquiterpenoids

>  <np_classifier_class>  (375) 
Acyclic monoterpenoids

>  <np_classifier_is_glycoside>  (375) 
False

>  <organisms>  (375) 
Aesculus glabra|Aframomum cereum|Aframomum sceptrum|Dalbergia decipularis|Salvia mexicana|Viburnum luzonicum

>  <collections>  (375) 
Latin America dataset|NPASS|NuBBEDB|WikiData Natural Products

>  <dois>  (375) 
10.1016/S0031-9422(00)90130-4|10.1055/S-2002-32888

>  <synonyms>  (375) 
(S)-(+)-Nerolidol|3,7,11-trimethyl-dodeca-1,6,10-trien-3-ol|DB-247035|Nerolidol

>  <cas>  (375) 
nan

$$$$

     RDKit          2D

 16 16  0  0  0  0  0  0  0  0999 V2000
   -6.1555    0.1495    0.0000 C   0  0  0  0  0  0  0  0  0  0  0  0
   -4.8096   -0.5127    0.0000 C   0  0  0  0  0  0  0  0  0  0  0  0
   -3.5632    0.3218    0.0000 C   0  0  0  0  0  0  0  0  0  0  0  0
   -2.2173   -0.3405    0.0000 C   0  0  0  0  0  0  0  0  0  0  0  0
   -0.9708    0.4940    0.0000 O   0  0  0  0  0  0  0  0  0  0  0  0
    0.3751   -0.1683    0.0000 C   0  0  0  0  0  0  0  0  0  0  0  0
   -0.4242   -1.4376    0.0000 C   0  0  0  0  0  0  0  0  0  0  0  0
   -1.9231   -1.3800    0.0000 O   0  0  0  0  0  0  0  0  0  0  0  0
    1.5539   -1.0959    0.0000 O   0  0  0  0  0  0  0  0  0  0  0  0
    2.8003   -0.2614    0.0000 C   0  0  0  0  0  0  0  0  0  0  0  0
    4.2081   -0.7794    0.0000 C   0  0  0  0  0  0  0  0  0  0  0  0
    4.4634   -2.2575    0.0000 O   0  0  0  0  0  0  0  0  0  0  0  0
    2.3919    1.1819    0.0000 C   0  0  0  0  0  0  0  0  0  0  0  0
    3.3195    2.3607    0.0000 O   0  0  0  0  0  0  0  0  0  0  0  0
    0.8930    1.2395    0.0000 C   0  0  0  0  0  0  0  0  0  0  0  0
    0.0586    2.4859    0.0000 O   0  0  0  0  0  0  0  0  0  0  0  0
  1  2  1  0
  2  3  1  0
  3  4  1  0
  4  5  1  0
  5  6  1  0
  6  7  1  1
  7  8  1  0
  6  9  1  0
  9 10  1  0
 10 11  1  1
 11 12  1  0
 10 13  1  0
 13 14  1  6
 13 15  1  0
 15 16  1  1
 15  6  1  0
M  END
>  <identifier>  (376) 
CNP0191854.2

>  <canonical_smiles>  (376) 
CCCCO[C@@]1(CO)O[C@H](CO)[C@@H](O)[C@@H]1O

>  <standard_inchi>  (376) 
InChI=1S/C10H20O6/c1-2-3-4-15-10(6-12)9(14)8(13)7(5-11)16-10/h7-9,11-14H,2-6H2,1H3/t7-,8-,9+,10+/m1/s1

>  <standard_inchi_key>  (376) 
XRGRZXPJJVQDJO-IMSYWVGJSA-N

>  <name>  (376) 
n-Butyl 

>  <iupac_name>  (376) 
(2~{S},3~{S},4~{S},5~{R})-2-butoxy-2,5-bis(hydroxymethyl)tetrahydrofuran-3,4-diol

>  <annotation_level>  (376) 
5

>  <total_atom_count>  (376) 
36

>  <heavy_atom_count>  (376) 
16

>  <molecular_weight>  (376) 
236.26

>  <exact_molecular_weight>  (376) 
236.12599

>  <molecular_formula>  (376) 
C10H20O6

>  <alogp>  (376) 
-1.40

>  <topological_polar_surface_area>  (376) 
99.38

>  <rotatable_bond_count>  (376) 
6

>  <hydrogen_bond_acceptors>  (376) 
6

>  <hydrogen_bond_donors>  (376) 
4

>  <hydrogen_bond_acceptors_lipinski>  (376) 
6

>  <hydrogen_bond_donors_lipinski>  (376) 
4

>  <lipinski_rule_of_five_violations>  (376) 
0

>  <aromatic_rings_count>  (376) 
0

>  <qed_drug_likeliness>  (376) 
0.42

>  <formal_charge>  (376) 
0

>  <fractioncsp3>  (376) 
1.00

>  <number_of_minimal_rings>  (376) 
1

>  <van_der_walls_volume>  (376) 
nan

>  <contains_sugar>  (376) 
True

>  <contains_ring_sugars>  (376) 
True

>  <contains_linear_sugars>  (376) 
False

>  <murcko_framework>  (376) 
O1CCCC1

>  <np_likeness>  (376) 
1.99

>  <chemical_class>  (376) 
Organooxygen compounds

>  <chemical_sub_class>  (376) 
Ethers

>  <chemical_super_class>  (376) 
Organic oxygen compounds

>  <direct_parent_classification>  (376) 
Ketals

>  <np_classifier_pathway>  (376) 
nan

>  <np_classifier_superclass>  (376) 
nan

>  <np_classifier_class>  (376) 
nan

>  <np_classifier_is_glycoside>  (376) 
True

>  <organisms>  (376) 
Bidens bipinnata|Breynia fruticosa|Glehnia littoralis|Ophiopogon japonicus|Sparganium eurycarpum|Sparganium stoloniferum|Vochysia thyrsoidea

>  <collections>  (376) 
Australian natural products|Latin America dataset|NuBBEDB|Super Natural II|WikiData Natural Products|ZINC NP

>  <dois>  (376) 
10.1007/S12272-010-0404-1|10.1016/J.CCLET.2008.09.041|10.1016/J.PHYTOCHEM.2009.10.002|10.1016/S0031-9422(00)83615-8|10.5935/0100-4042.20140049

>  <synonyms>  (376) 
(2S,3S,4S,5R)-2-Butoxy-2,5-bis(hydroxymethyl)tetrahydrofuran-3,4-diol|1-butyl-D-fructofuranoside|80971-59-1|A-D-fructofuranoside|CS-0898529|HY-N12344|SCHEMBL11033700|butyl alpha-d-fructofuranoside

>  <cas>  (376) 
80971-59-1

$$$$

     RDKit          2D

 27 30  0  0  0  0  0  0  0  0999 V2000
    8.0832   -1.5776    0.0000 C   0  0  0  0  0  0  0  0  0  0  0  0
    7.4796   -0.2044    0.0000 O   0  0  0  0  0  0  0  0  0  0  0  0
    5.9886   -0.0405    0.0000 C   0  0  0  0  0  0  0  0  0  0  0  0
    5.1012   -1.2498    0.0000 C   0  0  0  0  0  0  0  0  0  0  0  0
    3.6101   -1.0859    0.0000 C   0  0  0  0  0  0  0  0  0  0  0  0
    3.0066    0.2873    0.0000 C   0  0  0  0  0  0  0  0  0  0  0  0
    1.5156    0.4513    0.0000 C   0  0  0  0  0  0  0  0  0  0  0  0
    0.6281   -0.7580    0.0000 C   0  0  0  0  0  0  0  0  0  0  0  0
    1.0848   -2.1868    0.0000 C   0  0  0  0  0  0  0  0  0  0  0  0
   -0.1329   -3.0627    0.0000 O   0  0  0  0  0  0  0  0  0  0  0  0
   -1.3422   -2.1752    0.0000 C   0  0  0  0  0  0  0  0  0  0  0  0
   -2.7710   -2.6319    0.0000 O   0  0  0  0  0  0  0  0  0  0  0  0
   -0.8719   -0.7509    0.0000 C   0  0  0  0  0  0  0  0  0  0  0  0
   -1.7477    0.4669    0.0000 C   0  0  0  0  0  0  0  0  0  0  0  0
   -3.2403    0.3172    0.0000 C   0  0  0  0  0  0  0  0  0  0  0  0
   -3.8569   -1.0502    0.0000 C   0  0  0  0  0  0  0  0  0  0  0  0
   -5.3494   -1.1999    0.0000 C   0  0  0  0  0  0  0  0  0  0  0  0
   -6.2253    0.0179    0.0000 C   0  0  0  0  0  0  0  0  0  0  0  0
   -7.7163    0.1818    0.0000 O   0  0  0  0  0  0  0  0  0  0  0  0
   -8.0212    1.6505    0.0000 C   0  0  0  0  0  0  0  0  0  0  0  0
   -6.7186    2.3943    0.0000 O   0  0  0  0  0  0  0  0  0  0  0  0
   -5.6086    1.3852    0.0000 C   0  0  0  0  0  0  0  0  0  0  0  0
   -4.1161    1.5349    0.0000 C   0  0  0  0  0  0  0  0  0  0  0  0
    3.8941    1.4966    0.0000 C   0  0  0  0  0  0  0  0  0  0  0  0
    5.3851    1.3327    0.0000 C   0  0  0  0  0  0  0  0  0  0  0  0
    6.2725    2.5420    0.0000 O   0  0  0  0  0  0  0  0  0  0  0  0
    5.6690    3.9152    0.0000 C   0  0  0  0  0  0  0  0  0  0  0  0
  1  2  1  0
  2  3  1  0
  3  4  2  0
  4  5  1  0
  5  6  2  0
  6  7  1  0
  8  7  1  1
  8  9  1  0
  9 10  1  0
 10 11  1  0
 11 12  2  0
 11 13  1  0
 13 14  1  6
 14 15  1  0
 15 16  2  0
 16 17  1  0
 17 18  2  0
 18 19  1  0
 19 20  1  0
 20 21  1  0
 21 22  1  0
 22 23  2  0
  6 24  1  0
 24 25  2  0
 25 26  1  0
 26 27  1  0
 25  3  1  0
 13  8  1  0
 23 15  1  0
 22 18  1  0
M  END
>  <identifier>  (377) 
CNP0269916.1

>  <canonical_smiles>  (377) 
COC1=CC=C(C[C@H]2COC(=O)[C@@H]2CC2=CC=C3OCOC3=C2)C=C1OC

>  <standard_inchi>  (377) 
InChI=1S/C21H22O6/c1-23-17-5-3-13(9-19(17)24-2)7-15-11-25-21(22)16(15)8-14-4-6-18-20(10-14)27-12-26-18/h3-6,9-10,15-16H,7-8,11-12H2,1-2H3/t15-,16+/m0/s1

>  <standard_inchi_key>  (377) 
LEVKKQBBEVGIKN-JKSUJKDBSA-N

>  <name>  (377) 
Kusunokinin

>  <iupac_name>  (377) 
(3~{R},4~{R})-3-(1,3-benzodioxol-5-ylmethyl)-4-[(3,4-dimethoxyphenyl)methyl]tetrahydrofuran-2-one

>  <annotation_level>  (377) 
5

>  <total_atom_count>  (377) 
49

>  <heavy_atom_count>  (377) 
27

>  <molecular_weight>  (377) 
370.4

>  <exact_molecular_weight>  (377) 
370.14164

>  <molecular_formula>  (377) 
C21H22O6

>  <alogp>  (377) 
3.01

>  <topological_polar_surface_area>  (377) 
63.22

>  <rotatable_bond_count>  (377) 
6

>  <hydrogen_bond_acceptors>  (377) 
6

>  <hydrogen_bond_donors>  (377) 
0

>  <hydrogen_bond_acceptors_lipinski>  (377) 
6

>  <hydrogen_bond_donors_lipinski>  (377) 
0

>  <lipinski_rule_of_five_violations>  (377) 
0

>  <aromatic_rings_count>  (377) 
2

>  <qed_drug_likeliness>  (377) 
0.73

>  <formal_charge>  (377) 
0

>  <fractioncsp3>  (377) 
0.38

>  <number_of_minimal_rings>  (377) 
4

>  <van_der_walls_volume>  (377) 
330.15

>  <contains_sugar>  (377) 
False

>  <contains_ring_sugars>  (377) 
False

>  <contains_linear_sugars>  (377) 
False

>  <murcko_framework>  (377) 
O1c2ccc(cc2OC1)CC3COCC3Cc4ccccc4

>  <np_likeness>  (377) 
1.08

>  <chemical_class>  (377) 
Furanoid lignans

>  <chemical_sub_class>  (377) 
Tetrahydrofuran lignans

>  <chemical_super_class>  (377) 
Lignans, neolignans and related compounds

>  <direct_parent_classification>  (377) 
Dibenzylbutyrolactone lignans

>  <np_classifier_pathway>  (377) 
Shikimates and Phenylpropanoids

>  <np_classifier_superclass>  (377) 
Lignans

>  <np_classifier_class>  (377) 
Dibenzylbutyrolactone lignans

>  <np_classifier_is_glycoside>  (377) 
False

>  <organisms>  (377) 
Aristolochia pubescens|Aspergillus pseudodeflectus|Asplenium adiantum-nigrum|Cinnamomum Camphora|Cinnamomum camphora|Cinnamomum camphora Sieb.|Distemonanthus benthamianus|Haplophyllum acutifolium|Haplophyllum tuberculatum|Haplophyllum vulcanicum|Macrosiphum liriodendri|Piper philippinum|Podolepis canescens|Virola elongata|Virola michelii|Virola sebifera|Virola venosa

>  <collections>  (377) 
Australian natural products|CMAUP (cCollective molecular activities of useful plants)|KNApSaCK|Latin America dataset|NPASS|NuBBEDB|Super Natural II|VietHerb|WikiData Natural Products|ZINC NP

>  <dois>  (377) 
10.1016/0031-9422(89)80372-3|10.1016/0031-9422(90)85020-G|10.1016/0031-9422(91)83055-P|10.1016/0031-9422(95)00464-I|10.1016/J.PHYTOCHEM.2007.05.003|10.1016/S0031-9422(00)82500-5|10.1016/S0031-9422(00)84055-8|10.1016/S0031-9422(01)00188-1|10.1016/S0031-9422(03)00335-2|10.1016/S0040-4020(01)99319-6|10.1246/BCSJ.50.2821|10.21608/BFSA.1999.66115

>  <synonyms>  (377) 
(-)-KUSUNOKININ|(-)-Kusunokinin|(2R3R)-3-(34-dimethoxybenzyl)-2-(34-methylenedioxybenzyl)-butyrolactone|(3R,4R)-3-(1,3-benzodioxol-5-ylmethyl)-4-[(3,4-dimethoxyphenyl)methyl]oxolan-2-one|(3R,4R)-3-(Benzo[d][1,3]dioxol-5-ylmethyl)-4-(3,4-dimethoxybenzyl)dihydrofuran-2(3H)-one|2(3H)-Furanone, 3-(1,3-benzodioxol-5-ylmethyl)-4-[(3,4-dimethoxyphenyl)methyl]dihydro-, (3R,4R)-|58311-20-9|AKOS040734704|CHEMBL2228191|CS-0636350|FS-7617|HY-N10798|LEVKKQBBEVGIKN-JKSUJKDBSA-N|NSC675472

>  <cas>  (377) 
58311-20-9

$$$$

     RDKit          2D

 17 18  0  0  0  0  0  0  0  0999 V2000
    3.4031    2.3018    0.0000 C   0  0  0  0  0  0  0  0  0  0  0  0
    2.4952    1.1077    0.0000 C   0  0  0  0  0  0  0  0  0  0  0  0
    3.0753   -0.2755    0.0000 O   0  0  0  0  0  0  0  0  0  0  0  0
    1.0072    1.2970    0.0000 C   0  0  0  0  0  0  0  0  0  0  0  0
    0.2857    2.6121    0.0000 C   0  0  0  0  0  0  0  0  0  0  0  0
   -1.1880    2.3323    0.0000 C   0  0  0  0  0  0  0  0  0  0  0  0
   -1.3773    0.8443    0.0000 C   0  0  0  0  0  0  0  0  0  0  0  0
   -0.0206    0.2044    0.0000 C   0  0  0  0  0  0  0  0  0  0  0  0
    0.1037   -1.2904    0.0000 C   0  0  0  0  0  0  0  0  0  0  0  0
    1.4604   -1.9302    0.0000 C   0  0  0  0  0  0  0  0  0  0  0  0
    1.5846   -3.4251    0.0000 C   0  0  0  0  0  0  0  0  0  0  0  0
    2.6928   -1.0752    0.0000 C   0  0  0  0  0  0  0  0  0  0  0  0
   -1.1288   -2.1454    0.0000 C   0  0  0  0  0  0  0  0  0  0  0  0
   -2.4855   -1.5056    0.0000 C   0  0  0  0  0  0  0  0  0  0  0  0
   -2.6097   -0.0108    0.0000 C   0  0  0  0  0  0  0  0  0  0  0  0
   -3.2377    1.3514    0.0000 C   0  0  0  0  0  0  0  0  0  0  0  0
   -4.0603   -0.3927    0.0000 O   0  0  0  0  0  0  0  0  0  0  0  0
  1  2  1  0
  2  3  2  0
  4  2  1  6
  4  5  1  0
  5  6  1  0
  7  6  1  6
  7  8  1  0
  8  9  1  1
  9 10  1  6
 10 11  1  0
 10 12  1  0
  9 13  1  0
 13 14  1  0
 14 15  1  0
 15 16  1  6
 15 17  1  0
  8  4  1  0
 15  7  1  0
M  END
>  <identifier>  (378) 
CNP0243977.1

>  <canonical_smiles>  (378) 
CC(=O)[C@H]1CC[C@@H]2[C@@H]1[C@H](C(C)C)CC[C@@]2(C)O

>  <standard_inchi>  (378) 
InChI=1S/C15H26O2/c1-9(2)11-7-8-15(4,17)13-6-5-12(10(3)16)14(11)13/h9,11-14,17H,5-8H2,1-4H3/t11-,12+,13+,14+,15+/m0/s1

>  <standard_inchi_key>  (378) 
WLXJHVQYKOJBBN-NJVJYBDUSA-N

>  <name>  (378) 
Oplopanone

>  <iupac_name>  (378) 
1-[(1~{S},3~{a}~{R},4~{R},7~{S},7~{a}~{S})-4-hydroxy-7-isopropyl-4-methyl-1,2,3,3~{a},5,6,7,7~{a}-octahydroinden-1-yl]ethanone

>  <annotation_level>  (378) 
5

>  <total_atom_count>  (378) 
43

>  <heavy_atom_count>  (378) 
17

>  <molecular_weight>  (378) 
238.37

>  <exact_molecular_weight>  (378) 
238.19328

>  <molecular_formula>  (378) 
C15H26O2

>  <alogp>  (378) 
3.03

>  <topological_polar_surface_area>  (378) 
37.30

>  <rotatable_bond_count>  (378) 
2

>  <hydrogen_bond_acceptors>  (378) 
2

>  <hydrogen_bond_donors>  (378) 
1

>  <hydrogen_bond_acceptors_lipinski>  (378) 
2

>  <hydrogen_bond_donors_lipinski>  (378) 
1

>  <lipinski_rule_of_five_violations>  (378) 
0

>  <aromatic_rings_count>  (378) 
0

>  <qed_drug_likeliness>  (378) 
0.80

>  <formal_charge>  (378) 
0

>  <fractioncsp3>  (378) 
0.93

>  <number_of_minimal_rings>  (378) 
2

>  <van_der_walls_volume>  (378) 
247.79

>  <contains_sugar>  (378) 
False

>  <contains_ring_sugars>  (378) 
False

>  <contains_linear_sugars>  (378) 
False

>  <murcko_framework>  (378) 
C1CCC2CCCC2C1

>  <np_likeness>  (378) 
2.68

>  <chemical_class>  (378) 
Prenol lipids

>  <chemical_sub_class>  (378) 
Sesquiterpenoids

>  <chemical_super_class>  (378) 
Lipids and lipid-like molecules

>  <direct_parent_classification>  (378) 
Sesquiterpenoids

>  <np_classifier_pathway>  (378) 
Terpenoids

>  <np_classifier_superclass>  (378) 
Sesquiterpenoids

>  <np_classifier_class>  (378) 
Oplopane sesquiterpenoids

>  <np_classifier_is_glycoside>  (378) 
False

>  <organisms>  (378) 
Acorus calamus|Actinidia deliciosa|Agastache rugosa|Agathosma betulina|Aglaia lawii|Aldama tucumanensis|Aldama tukumanensis|Alpinia oxyphylla|Amaioua guianensis|Arnica sachalinensis|Artemisia campestris|Baccharis santelicis|Berchemia floribunda|Betula maximowicziana|Breonia chinensis|Bugula neritina|Burkholderia ambifaria|Calanthe arisanensis|Calendula officinalis|Campylotropis hirtella|Casearia sylvestris|Cassine transvaalensis|Cephalaria cilicica|Ceropegia dichotoma|Chamaecyparis formosensis|Chamaecyparis lawsoniana|Chamaecyparis pisifera|Channa argus|Cheilanthes farinosa|Choisya arizonica|Chrysanthemum indicum|Chrysosplenium oppositifolium|Clausena Lansium|Clausena lansium|Codonopsis lanceolata|Commiphora guidottii|Commiphora myrrha|Coreopsis lanceolata|Coronilla scorpioides|Coscinoderma matthewsi|Cotoneaster horizontalis|Crinum moorei|Crotalaria candicans|Cryptomeria japonica|Cyperus rotundus|Dalea tuberculata|Dendrobium loddigesii|Distephanus angulifolius|Disynaphia multicrenulata|Dryopteris oligophlebia|Elsinoe annonae|Epimedium sagittatum|Eria japonica|Eriogonum nudum|Erythrina sandwicensis|Eucalyptus apodophylla|Eucalyptus globulus subsp. bicostata|Eucalyptus rariflora|Eucalyptus umbra|Euphorbia balsamifera|Ficus indica|Glycosmis macrophylla|Gypsophila perfoliata|Hedychium gardnerianum|Hedychium yunnanense|Hepialus hecta|Homalomena aromatica|Hyacinthoides hispanica|Hygrophila polysperma|Hypericum polyanthemum|Incarvillea emodi|Isocoma coronopifolia|Jacobaea argunensis|Jacobaea erucifolia|Juniperus communis|Juniperus drupacea|Juniperus sabina|Juniperus thurifera|Larix kaempferi|Laurencia subopposita|Lepidium apetalum|Liatris microcephala|Loranthus spicatus|Magnolia|Magnolia biondii|Magnolia praecocissima|Manfreda virginica|Martensia denticulata|Mcneillia graminifolia|Mentha cardiaca|Mikania hirsutissima|Minasia alpestris|Momordica dioica|Mucuna sloanei|Mycale laxissima|Myelochroa rhytidodes|Nervilia fordii|Notholaena peninsularis|Ochrocarpos odoratus|Ocotea porosa|Oligonychus bessardi|Ononis spinosa|Pachycereus pecten-aboriginum|Pallenis spinosa|Pentaclethra macrophylla|Periploca sepium|Petasites tatewakianus|Phlomis fruticosa|Pinalia spicata|Pinus sitchensis|Pittosporum viridiflorum|Plectranthus myrianthus|Plexaurella grisea|Podocarpus urbani|Pseudobrickellia brasiliensis|Pseudocedrela kotschyi|Pseudotaxus chienii|Pterocaulon purpurascens|Pterocaulon virgatum|Ptilonia magellanica|Pulicaria paludosa|Punctelia microsticta|Raulinoa echinata|Renealmia cincinnata|Rhodiola semenovii|Roldana barba-johannis|Rothmannia urcelliformis|Salvia plebeia|Salvia rubescens|Salvia sessei|Santolina rosmarinifolia|Schefflera taiwaniana|Schisandra sphenanthera|Securidaca longepedunculata|Senecio adenophyllus|Senecio coahuilensis|Senecio microglossus|Senecio othonniformis|Serratula xeranthemoides|Sinacalia tangutica|Sinularia manaarensis|Sonneratia caseolaris|Sphaeria biglobosa|Sphaeria doliolum|Stephania zippeliana|Stereocaulon strictum|Stevia lucida|Swertia decora|Talaromyces variabilis|Teucrium leucocladum|Teucrium polium|Teucrium ramosissimum|Theonella cupola|Trisetum flavescens|Tristania conferta|Tritomaria quinquedentata|Venidium hirsutum|Veratrum eschscholtzii|Vernonia cistifolia|Veronica polita|Vicoa vestita

>  <collections>  (378) 
ANPDB|Australian natural products|CMAUP (cCollective molecular activities of useful plants)|CMNPD|Latin America dataset|NANPDB (Natural Products from Northern African Sources)|NPASS|NuBBEDB|Super Natural II|VietHerb|WikiData Natural Products

>  <dois>  (378) 
10.1002/HLCA.201000106|10.1002/JCCS.200200067|10.1002/JCCS.200500055|10.1007/BF02976201|10.1007/S10600-011-0082-3|10.1007/S12272-010-0904-Z|10.1016/0031-9422(83)80109-5|10.1016/0031-9422(83)80171-X|10.1016/0031-9422(88)80134-1|10.1016/0031-9422(88)80790-8|10.1016/0031-9422(91)83757-C|10.1016/0031-9422(92)83719-F|10.1016/0031-9422(95)00013-W|10.1016/0031-9422(95)00584-6|10.1016/0040-4020(77)88001-0|10.1016/J.BSE.2003.12.009|10.1016/J.FITOTE.2009.05.013|10.1016/J.PHYTOCHEM.2009.08.012|10.1016/J.PHYTOCHEM.2014.03.029|10.1016/S0031-9422(00)80113-2|10.1016/S0031-9422(00)83498-6|10.1016/S0031-9422(00)83763-2|10.1016/S0031-9422(00)84035-2|10.1016/S0031-9422(00)94800-3|10.1016/S0031-9422(00)95204-X|10.1016/S0031-9422(00)98074-9|10.1016/S0031-9422(97)00386-5|10.1016/S0031-9422(97)84396-8|10.1016/S0031-9422(99)00074-6|10.1016/S0031-9422(99)00344-1|10.1016/S0305-1978(00)00092-2|10.1016/j.jep.2015.05.040|10.1016/s0031-9422(97)00386-5|10.1021/JF051100X|10.1021/JO00441A005|10.1021/NP50121A011|10.1055/S-2006-957665|10.1055/S-2006-962683|10.1078/0944-7113-00016|10.1080/10412905.1991.9697898|10.1080/10412905.1992.9698139|10.1080/10575630290030711|10.1080/1478641031000118906|10.1248/CPB.47.340|10.1248/CPB.48.651|10.1248/CPB.50.541

>  <synonyms>  (378) 
(-)-Oplopanone|(-)-Oplopanone; 10-Hydroxyoplopan-4-one|1-((1S,3AR,4R,7S,7aS)-4-hydroxy-7-isopropyl-4-methyloctahydro-1H-inden-1-yl)ethan-1-one|1-[(1S,3AR,4R,7S,7AS)-4-HYDROXY-7-ISOPROPYL-4-METHYL-OCTAHYDROINDEN-1-YL]ETHANONE|1-[(1S,3aR,4R,7S,7aS)-4-hydroxy-4-methyl-7-propan-2-yl-1,2,3,3a,5,6,7,7a-octahydroinden-1-yl]ethanone|1-[[(1S,3AALPHA,7ABETA)-OCTAHYDRO-4BETA-HYDROXY-4-METHYL-7BETA-ISOPROPYL-1H-INDEN]-1-YL]ETHANONE|1911-78-0|AKOS040762149|CHEMBL4097977|CS-0023324|DTXSID80172633|FS-10529|HY-N3129|Oplopanon|SCHEMBL25463571|oplopanone

>  <cas>  (378) 
1911-78-0

$$$$

     RDKit          2D

 24 27  0  0  0  0  0  0  0  0999 V2000
    3.8387   -3.8562    0.0000 C   0  0  0  0  0  0  0  0  0  0  0  0
    3.7184   -2.3610    0.0000 C   0  0  0  0  0  0  0  0  0  0  0  0
    2.3634   -1.7176    0.0000 C   0  0  0  0  0  0  0  0  0  0  0  0
    2.2431   -0.2225    0.0000 C   0  0  0  0  0  0  0  0  0  0  0  0
    3.6580   -0.7207    0.0000 C   0  0  0  0  0  0  0  0  0  0  0  0
    4.7969    0.2554    0.0000 C   0  0  0  0  0  0  0  0  0  0  0  0
    4.5210    1.7298    0.0000 C   0  0  0  0  0  0  0  0  0  0  0  0
    3.1061    2.2281    0.0000 C   0  0  0  0  0  0  0  0  0  0  0  0
    2.8302    3.7025    0.0000 O   0  0  0  0  0  0  0  0  0  0  0  0
    1.9672    1.2519    0.0000 C   0  0  0  0  0  0  0  0  0  0  0  0
    1.5387    2.6894    0.0000 O   0  0  0  0  0  0  0  0  0  0  0  0
    0.4797    1.4452    0.0000 O   0  0  0  0  0  0  0  0  0  0  0  0
   -0.1637    0.0902    0.0000 C   0  0  0  0  0  0  0  0  0  0  0  0
   -1.6381   -0.1858    0.0000 C   0  0  0  0  0  0  0  0  0  0  0  0
   -2.1364   -1.6006    0.0000 C   0  0  0  0  0  0  0  0  0  0  0  0
   -3.6108   -1.8765    0.0000 C   0  0  0  0  0  0  0  0  0  0  0  0
   -4.5869   -0.7376    0.0000 C   0  0  0  0  0  0  0  0  0  0  0  0
   -6.0865   -0.7009    0.0000 O   0  0  0  0  0  0  0  0  0  0  0  0
   -6.5150    0.7366    0.0000 C   0  0  0  0  0  0  0  0  0  0  0  0
   -5.2803    1.5883    0.0000 O   0  0  0  0  0  0  0  0  0  0  0  0
   -4.0887    0.6772    0.0000 C   0  0  0  0  0  0  0  0  0  0  0  0
   -2.6143    0.9532    0.0000 C   0  0  0  0  0  0  0  0  0  0  0  0
    0.9262   -0.9405    0.0000 C   0  0  0  0  0  0  0  0  0  0  0  0
    0.7329   -2.4280    0.0000 C   0  0  0  0  0  0  0  0  0  0  0  0
  1  2  2  0
  2  3  1  0
  4  3  1  6
  4  5  1  0
  5  6  1  0
  6  7  1  0
  7  8  1  0
  8  9  2  0
  8 10  1  0
 10 11  1  1
 10 12  1  0
 12 13  1  0
 13 14  1  1
 14 15  2  0
 15 16  1  0
 16 17  2  0
 17 18  1  0
 18 19  1  0
 19 20  1  0
 20 21  1  0
 21 22  2  0
 13 23  1  0
 23 24  1  6
 10  4  1  0
 22 14  1  0
 23  4  1  0
 21 17  1  0
M  END
>  <identifier>  (379) 
CNP0080613.1

>  <canonical_smiles>  (379) 
C=CC[C@@]12CCCC(=O)[C@@]1(O)O[C@H](C1=CC=C3OCOC3=C1)[C@H]2C

>  <standard_inchi>  (379) 
InChI=1S/C19H22O5/c1-3-8-18-9-4-5-16(20)19(18,21)24-17(12(18)2)13-6-7-14-15(10-13)23-11-22-14/h3,6-7,10,12,17,21H,1,4-5,8-9,11H2,2H3/t12-,17+,18+,19-/m1/s1

>  <standard_inchi_key>  (379) 
GHWAOEFITBMWCE-NVAWSTJUSA-N

>  <name>  (379) 
nan

>  <iupac_name>  (379) 
(2~{S},3~{S},3~{a}~{R},7~{a}~{S})-3~{a}-allyl-2-(1,3-benzodioxol-5-yl)-7~{a}-hydroxy-3-methyl-3,4,5,6-tetrahydro-2~{H}-benzofuran-7-one

>  <annotation_level>  (379) 
3

>  <total_atom_count>  (379) 
46

>  <heavy_atom_count>  (379) 
24

>  <molecular_weight>  (379) 
330.38

>  <exact_molecular_weight>  (379) 
330.14672

>  <molecular_formula>  (379) 
C19H22O5

>  <alogp>  (379) 
3.13

>  <topological_polar_surface_area>  (379) 
64.99

>  <rotatable_bond_count>  (379) 
3

>  <hydrogen_bond_acceptors>  (379) 
5

>  <hydrogen_bond_donors>  (379) 
1

>  <hydrogen_bond_acceptors_lipinski>  (379) 
5

>  <hydrogen_bond_donors_lipinski>  (379) 
1

>  <lipinski_rule_of_five_violations>  (379) 
0

>  <aromatic_rings_count>  (379) 
1

>  <qed_drug_likeliness>  (379) 
0.86

>  <formal_charge>  (379) 
0

>  <fractioncsp3>  (379) 
0.53

>  <number_of_minimal_rings>  (379) 
4

>  <van_der_walls_volume>  (379) 
nan

>  <contains_sugar>  (379) 
False

>  <contains_ring_sugars>  (379) 
False

>  <contains_linear_sugars>  (379) 
False

>  <murcko_framework>  (379) 
O1c2ccc(cc2OC1)C3OC4CCCCC4C3

>  <np_likeness>  (379) 
1.73

>  <chemical_class>  (379) 
Benzodioxoles

>  <chemical_sub_class>  (379) 
Benzodioxoles

>  <chemical_super_class>  (379) 
Organoheterocyclic compounds

>  <direct_parent_classification>  (379) 
Benzodioxoles

>  <np_classifier_pathway>  (379) 
Shikimates and Phenylpropanoids

>  <np_classifier_superclass>  (379) 
Lignans

>  <np_classifier_class>  (379) 
Neolignans

>  <np_classifier_is_glycoside>  (379) 
True

>  <organisms>  (379) 
Ocotea aciphylla

>  <collections>  (379) 
Latin America dataset|NuBBEDB|WikiData Natural Products|ZINC NP

>  <dois>  (379) 
10.1016/S0031-9422(00)84995-X

>  <synonyms>  (379) 
nan

>  <cas>  (379) 
nan

$$$$

     RDKit          2D

 38 40  0  0  0  0  0  0  0  0999 V2000
   -6.6013    5.2728    0.0000 C   0  0  0  0  0  0  0  0  0  0  0  0
   -5.5086    4.2452    0.0000 C   0  0  0  0  0  0  0  0  0  0  0  0
   -4.0723    4.6778    0.0000 C   0  0  0  0  0  0  0  0  0  0  0  0
   -3.7287    6.1379    0.0000 C   0  0  0  0  0  0  0  0  0  0  0  0
   -2.9796    3.6502    0.0000 C   0  0  0  0  0  0  0  0  0  0  0  0
   -3.3231    2.1900    0.0000 C   0  0  0  0  0  0  0  0  0  0  0  0
   -2.2304    1.1624    0.0000 C   0  0  0  0  0  0  0  0  0  0  0  0
   -1.4082    2.4170    0.0000 C   0  0  0  0  0  0  0  0  0  0  0  0
   -3.4321    0.2648    0.0000 C   0  0  0  0  0  0  0  0  0  0  0  0
   -4.8104    0.8566    0.0000 C   0  0  0  0  0  0  0  0  0  0  0  0
   -3.2556   -1.2248    0.0000 C   0  0  0  0  0  0  0  0  0  0  0  0
   -1.8773   -1.8167    0.0000 C   0  0  0  0  0  0  0  0  0  0  0  0
   -2.0664   -3.3047    0.0000 O   0  0  0  0  0  0  0  0  0  0  0  0
   -0.6756   -0.9190    0.0000 C   0  0  0  0  0  0  0  0  0  0  0  0
    0.7027   -1.5109    0.0000 C   0  0  0  0  0  0  0  0  0  0  0  0
    1.9045   -0.6132    0.0000 C   0  0  0  0  0  0  0  0  0  0  0  0
    1.7279    0.8764    0.0000 C   0  0  0  0  0  0  0  0  0  0  0  0
    2.9296    1.7741    0.0000 O   0  0  0  0  0  0  0  0  0  0  0  0
    4.3079    1.1822    0.0000 C   0  0  0  0  0  0  0  0  0  0  0  0
    4.4845   -0.3074    0.0000 O   0  0  0  0  0  0  0  0  0  0  0  0
    5.5097    2.0799    0.0000 C   0  0  0  0  0  0  0  0  0  0  0  0
    6.8879    1.4880    0.0000 C   0  0  0  0  0  0  0  0  0  0  0  0
    8.0897    2.3857    0.0000 C   0  0  0  0  0  0  0  0  0  0  0  0
    9.4680    1.7938    0.0000 C   0  0  0  0  0  0  0  0  0  0  0  0
   10.6697    2.6915    0.0000 C   0  0  0  0  0  0  0  0  0  0  0  0
    0.3496    1.4683    0.0000 C   0  0  0  0  0  0  0  0  0  0  0  0
   -0.8521    0.5706    0.0000 C   0  0  0  0  0  0  0  0  0  0  0  0
    0.5186   -0.9894    0.0000 C   0  0  0  0  0  0  0  0  0  0  0  0
    1.6937   -3.9935    0.0000 O   0  0  0  0  0  0  0  0  0  0  0  0
    1.4013   -5.4647    0.0000 C   0  0  0  0  0  0  0  0  0  0  0  0
    2.5292   -6.4535    0.0000 C   0  0  0  0  0  0  0  0  0  0  0  0
   -0.0190   -5.9471    0.0000 O   0  0  0  0  0  0  0  0  0  0  0  0
   -0.0686   -1.4063    0.0000 O   0  0  0  0  0  0  0  0  0  0  0  0
   -0.1706   -0.6935    0.0000 C   0  0  0  0  0  0  0  0  0  0  0  0
   -3.1581   -1.9099    0.0000 O   0  0  0  0  0  0  0  0  0  0  0  0
   -4.0236   -3.1350    0.0000 C   0  0  0  0  0  0  0  0  0  0  0  0
   -5.5174   -2.9980    0.0000 C   0  0  0  0  0  0  0  0  0  0  0  0
   -3.3954   -4.4972    0.0000 O   0  0  0  0  0  0  0  0  0  0  0  0
  1  2  2  0
  2  3  1  0
  3  4  1  0
  3  5  2  0
  5  6  1  0
  6  7  1  0
  7  8  1  6
  7  9  1  0
  9 10  1  1
  9 11  1  0
 11 12  1  0
 12 13  1  1
 12 14  1  0
 14 15  1  6
 15 16  2  0
 16 17  1  0
 17 18  1  6
 18 19  1  0
 19 20  2  0
 19 21  1  0
 21 22  1  0
 22 23  1  0
 23 24  1  0
 24 25  1  0
 17 26  1  0
 27 26  1  6
 15 28  1  0
 28 29  1  6
 29 30  1  0
 30 31  1  0
 30 32  2  0
 28 33  1  0
 33 34  1  0
 34 35  1  6
 35 36  1  0
 36 37  1  0
 36 38  2  0
 27  7  1  0
 27 14  1  0
 34 14  1  0
M  END
>  <identifier>  (380) 
CNP0294997.1

>  <canonical_smiles>  (380) 
C=C/C(C)=C\C[C@]1(C)[C@H](C)C[C@H](O)[C@@]23C(=C[C@@H](OC(=O)CCCCC)C[C@@H]12)[C@@H](OC(C)=O)O[C@H]3OC(C)=O

>  <standard_inchi>  (380) 
InChI=1S/C30H44O8/c1-8-10-11-12-26(34)37-22-16-23-27(35-20(5)31)38-28(36-21(6)32)30(23)24(17-22)29(7,14-13-18(3)9-2)19(4)15-25(30)33/h9,13,16,19,22,24-25,27-28,33H,2,8,10-12,14-15,17H2,1,3-7H3/b18-13-/t19-,22-,24+,25+,27+,28-,29-,30-/m1/s1

>  <standard_inchi_key>  (380) 
OWZBTGIYKSYHIP-HMJXWJLHSA-N

>  <name>  (380) 
nan

>  <iupac_name>  (380) 
[(1~{S},3~{R},5~{S},6~{a}~{S},7~{R},8~{R},10~{S},10~{a}~{S})-1,3-diacetoxy-10-hydroxy-7,8-dimethyl-7-[(2~{Z})-3-methylpenta-2,4-dienyl]-1,3,5,6,6~{a},8,9,10-octahydrobenzo[d]isobenzofuran-5-yl] hexanoate

>  <annotation_level>  (380) 
5

>  <total_atom_count>  (380) 
82

>  <heavy_atom_count>  (380) 
38

>  <molecular_weight>  (380) 
532.67

>  <exact_molecular_weight>  (380) 
532.30362

>  <molecular_formula>  (380) 
C30H44O8

>  <alogp>  (380) 
5.15

>  <topological_polar_surface_area>  (380) 
108.36

>  <rotatable_bond_count>  (380) 
10

>  <hydrogen_bond_acceptors>  (380) 
8

>  <hydrogen_bond_donors>  (380) 
1

>  <hydrogen_bond_acceptors_lipinski>  (380) 
8

>  <hydrogen_bond_donors_lipinski>  (380) 
1

>  <lipinski_rule_of_five_violations>  (380) 
2

>  <aromatic_rings_count>  (380) 
0

>  <qed_drug_likeliness>  (380) 
0.14

>  <formal_charge>  (380) 
0

>  <fractioncsp3>  (380) 
0.70

>  <number_of_minimal_rings>  (380) 
3

>  <van_der_walls_volume>  (380) 
505.62

>  <contains_sugar>  (380) 
False

>  <contains_ring_sugars>  (380) 
False

>  <contains_linear_sugars>  (380) 
False

>  <murcko_framework>  (380) 
O1CC2=CCCC3CCCCC23C1

>  <np_likeness>  (380) 
3.32

>  <chemical_class>  (380) 
Prenol lipids

>  <chemical_sub_class>  (380) 
Diterpenoids

>  <chemical_super_class>  (380) 
Lipids and lipid-like molecules

>  <direct_parent_classification>  (380) 
Colensane and clerodane diterpenoids

>  <np_classifier_pathway>  (380) 
Terpenoids

>  <np_classifier_superclass>  (380) 
Diterpenoids

>  <np_classifier_class>  (380) 
Colensane and Clerodane diterpenoids

>  <np_classifier_is_glycoside>  (380) 
True

>  <organisms>  (380) 
Casearia sylvestris

>  <collections>  (380) 
ChemSpider NPs|Latin America dataset|NuBBEDB|WikiData Natural Products|ZINC NP

>  <dois>  (380) 
10.1002/PCA.902|10.1002/pca.902

>  <synonyms>  (380) 
Casearvestrin C

>  <cas>  (380) 
nan

$$$$

     RDKit          2D

 33 36  0  0  0  0  0  0  0  0999 V2000
   -0.5461   -2.9837    0.0000 O   0  0  0  0  0  0  0  0  0  0  0  0
   -1.2759   -1.6732    0.0000 C   0  0  0  0  0  0  0  0  0  0  0  0
   -0.5060   -0.3859    0.0000 O   0  0  0  0  0  0  0  0  0  0  0  0
    0.9938   -0.4090    0.0000 C   0  0  0  0  0  0  0  0  0  0  0  0
    1.7237   -1.7195    0.0000 C   0  0  0  0  0  0  0  0  0  0  0  0
    3.2235   -1.7426    0.0000 C   0  0  0  0  0  0  0  0  0  0  0  0
    3.9534   -3.0530    0.0000 C   0  0  0  0  0  0  0  0  0  0  0  0
    3.1835   -4.3403    0.0000 O   0  0  0  0  0  0  0  0  0  0  0  0
    5.4532   -3.0761    0.0000 C   0  0  0  0  0  0  0  0  0  0  0  0
    6.2232   -1.7888    0.0000 C   0  0  0  0  0  0  0  0  0  0  0  0
    7.7230   -1.8119    0.0000 O   0  0  0  0  0  0  0  0  0  0  0  0
    5.4933   -0.4784    0.0000 C   0  0  0  0  0  0  0  0  0  0  0  0
    3.9935   -0.4553    0.0000 C   0  0  0  0  0  0  0  0  0  0  0  0
    3.2636    0.8552    0.0000 O   0  0  0  0  0  0  0  0  0  0  0  0
    1.7637    0.8783    0.0000 C   0  0  0  0  0  0  0  0  0  0  0  0
    1.0339    2.1888    0.0000 C   0  0  0  0  0  0  0  0  0  0  0  0
    1.8038    3.4761    0.0000 C   0  0  0  0  0  0  0  0  0  0  0  0
    1.0739    4.7865    0.0000 C   0  0  0  0  0  0  0  0  0  0  0  0
    1.8438    6.0738    0.0000 O   0  0  0  0  0  0  0  0  0  0  0  0
   -0.4259    4.8096    0.0000 C   0  0  0  0  0  0  0  0  0  0  0  0
   -1.1558    6.1201    0.0000 O   0  0  0  0  0  0  0  0  0  0  0  0
   -1.1958    3.5223    0.0000 C   0  0  0  0  0  0  0  0  0  0  0  0
   -2.6957    3.5454    0.0000 O   0  0  0  0  0  0  0  0  0  0  0  0
   -0.4660    2.2119    0.0000 C   0  0  0  0  0  0  0  0  0  0  0  0
   -2.7758   -1.6501    0.0000 C   0  0  0  0  0  0  0  0  0  0  0  0
   -3.5457   -2.9374    0.0000 C   0  0  0  0  0  0  0  0  0  0  0  0
   -5.0455   -2.9143    0.0000 C   0  0  0  0  0  0  0  0  0  0  0  0
   -5.8155   -4.2016    0.0000 O   0  0  0  0  0  0  0  0  0  0  0  0
   -5.7754   -1.6039    0.0000 C   0  0  0  0  0  0  0  0  0  0  0  0
   -7.2752   -1.5807    0.0000 O   0  0  0  0  0  0  0  0  0  0  0  0
   -5.0055   -0.3165    0.0000 C   0  0  0  0  0  0  0  0  0  0  0  0
   -5.7354    0.9939    0.0000 O   0  0  0  0  0  0  0  0  0  0  0  0
   -3.5057   -0.3397    0.0000 C   0  0  0  0  0  0  0  0  0  0  0  0
  1  2  2  0
  2  3  1  0
  4  3  1  1
  4  5  1  0
  5  6  1  0
  6  7  2  0
  7  8  1  0
  7  9  1  0
  9 10  2  0
 10 11  1  0
 10 12  1  0
 12 13  2  0
 13 14  1  0
 14 15  1  0
 15 16  1  1
 16 17  2  0
 17 18  1  0
 18 19  1  0
 18 20  2  0
 20 21  1  0
 20 22  1  0
 22 23  1  0
 22 24  2  0
  2 25  1  0
 25 26  2  0
 26 27  1  0
 27 28  1  0
 27 29  2  0
 29 30  1  0
 29 31  1  0
 31 32  1  0
 31 33  2  0
 15  4  1  0
 24 16  1  0
 33 25  1  0
 13  6  1  0
M  END
>  <identifier>  (381) 
CNP0258703.1

>  <canonical_smiles>  (381) 
O=C(O[C@@H]1CC2=C(O)C=C(O)C=C2O[C@@H]1C1=CC(O)=C(O)C(O)=C1)C1=CC(O)=C(O)C(O)=C1

>  <standard_inchi>  (381) 
InChI=1S/C22H18O11/c23-10-5-12(24)11-7-18(33-22(31)9-3-15(27)20(30)16(28)4-9)21(32-17(11)6-10)8-1-13(25)19(29)14(26)2-8/h1-6,18,21,23-30H,7H2/t18-,21-/m1/s1

>  <standard_inchi_key>  (381) 
WMBWREPUVVBILR-WIYYLYMNSA-N

>  <name>  (381) 
(-)-Epigallocatechin gallate

>  <iupac_name>  (381) 
[(2~{R},3~{R})-5,7-dihydroxy-2-(3,4,5-trihydroxyphenyl)chroman-3-yl] 3,4,5-trihydroxybenzoate

>  <annotation_level>  (381) 
5

>  <total_atom_count>  (381) 
51

>  <heavy_atom_count>  (381) 
33

>  <molecular_weight>  (381) 
458.38

>  <exact_molecular_weight>  (381) 
458.08491

>  <molecular_formula>  (381) 
C22H18O11

>  <alogp>  (381) 
2.23

>  <topological_polar_surface_area>  (381) 
197.37

>  <rotatable_bond_count>  (381) 
3

>  <hydrogen_bond_acceptors>  (381) 
11

>  <hydrogen_bond_donors>  (381) 
8

>  <hydrogen_bond_acceptors_lipinski>  (381) 
11

>  <hydrogen_bond_donors_lipinski>  (381) 
8

>  <lipinski_rule_of_five_violations>  (381) 
2

>  <aromatic_rings_count>  (381) 
3

>  <qed_drug_likeliness>  (381) 
0.21

>  <formal_charge>  (381) 
0

>  <fractioncsp3>  (381) 
0.14

>  <number_of_minimal_rings>  (381) 
4

>  <van_der_walls_volume>  (381) 
371.06

>  <contains_sugar>  (381) 
False

>  <contains_ring_sugars>  (381) 
False

>  <contains_linear_sugars>  (381) 
False

>  <murcko_framework>  (381) 
O1c2ccccc2CC(OCc3ccccc3)C1c4ccccc4

>  <np_likeness>  (381) 
1.65

>  <chemical_class>  (381) 
Flavonoids

>  <chemical_sub_class>  (381) 
Flavans

>  <chemical_super_class>  (381) 
Phenylpropanoids and polyketides

>  <direct_parent_classification>  (381) 
Catechin gallates

>  <np_classifier_pathway>  (381) 
Shikimates and Phenylpropanoids

>  <np_classifier_superclass>  (381) 
Flavonoids

>  <np_classifier_class>  (381) 
Flavan-3-ols

>  <np_classifier_is_glycoside>  (381) 
False

>  <organisms>  (381) 
Acacia catechu|Acacia pycnantha|Acacia sp.|Acanthophyllum elatius|Aconitum heterophylloides|Acorus tatarinowii|Actinidia chinensis|Adina sessilifolia|Aframomum amaniense|Agrimonia sp.|Aguacate|Alectoria divergens|Alhagi sparsifolia|Alnus sieboldiana|Alyxia reinwardtii|Angelica lucida|Annona reticulata|Archidendron bubalinum|Archidendron jiringa|Aristolochia zollingeriana|Artemisia klotzchiana|Artemisia schimperi|Astraeus pteridis|Astragalus cibarius|Atylosia trinervia|Averrhoa Carambola|Averrhoa carambola L.|Bacillus subtilis|Balanophora involucrata|Bartramia pomiformis|Beilschmiedia anacardioides|Bertholletia excelsa|Bitis gabonica|Boronia coerulescens|Camellia Sinensis|Camellia crassicolumna|Camellia crassicolumna var. multiplex|Camellia irrawadiensis|Camellia sinensis|Camellia sp.|Camellia taliensis|Capsicum annuum|Carica pennata|Carya illinoinensis|Cashew|Castanea|Castanea vesca|Casuarina equisetifolia|Casuarina sp.|Cedrus libani|Celaenodendron mexicanum|Centaurea linifolia|Cephalaria grossheimii|Cereus candicans|Cerinthe minor|Chamomilla recutita|Chrysophyllum marginatum|Cicer arietinum|Cistus incanus|Cistus salviifolius|Cneoridium dumosum|Coccoloba mollis|Coccus ilicis|Coffea|Conoideocrella luteorostrata|Corylus|Cotula cinerea|Craspidospermum verticillatum|Cucurbita pepo|Cydonia|Daphniphyllum paxianum|Dasiphora fruticosa|Daucus Carota|Daucus carota|Davidsonia pruriens|Dendrodoris tuberculosa|Dermocybe canaria|Dermolepida albohirtum|Dictyopteris acrostichoides|Dioscorea japonica|Diospyros kaki|Ehretia dicksonii|Elephantopus tomentosus|Eschweilera coriacea|Eskemukerjea megacarpum HARA|Eugenia edulis|Eugenia myrcianthes|Eugenia selloi|Euonymus maackii|Euphorbia hirta|Euryops algoensis|Fagopyrum megacarpum|Ficus carica|Folium camelliae sinensis|Fragaria|Garcinia mangostana|Gardenia jasminoides|Ginkgo biloba|Gomortega keule|Hamamelis sp.|Hamamelis virginiana|Hemerocallis fulva|Hibiscus cannabinus|Hibiscus sabdariffa|Hippophae sp.|Honorius nutans|Hylotelephium telephium|Hymenoxys insignis|Hypericum ascyron|Ilex purpurea|Iris ensata|Iryanthera coriacea|Isaria felina|Ixeris stolonifera|Jugo|Justicia paniculata|Keiferia lycopersicella|Khaya ivorensis|Khaya senegalensis|Lamellodysidea cf. chlorea|Larix cajanderi|Lejeunea pallescens|Lens culinaris|Lepidium sativum|Lespedeza bicolor|Leucopaxillus gentianeus|Limoniastrum guyonianum|Limonium gmelini|Limonium gmelinii|Limonium sinense|Litsea pungens|Lotus corniculatus|Lotus japonicus|Lupinus verbasciformis|Macadamia|Machilus macrantha|Mallotus japonicus|Malus domestica|Malus pumila|Manilkara zapota|Marine actinobacterium|Matricaria chamomilla|Matricaria recutita|Melaleuca rhaphiophylla|Melochia tomentosa|Mentha piperita piperita|Mespilus germanica|Microtropis fokienensis|Mimusops caffra|Morella rubra|Morus alba|Musa|Myrica Esculenta|Myrica esculenta|Myrica rubra|Naja kaouthia|Nama hispidum|Nerine bowdenii|Nuphar lutea|Oophaga pumilio|Oryza aristata|Oryza sativa|Oscillochloris trichoides|Ovophis okinavensis|Panax japonicus|Parapiptadenia rigida|Parkia biglobosa|Penicillium herquei|Penicillium kapuscinskii|Penicillium paxilli|Perezia carpholepis|Persea americana|Petasites georgicus|Phaseolus vulgaris|Phoenix loureiroi|Phyfnnvik eyyfn|Phyllanthus Emblica|Phyllanthus emblica|Phyllanthus sp.|Picea mariana|Pieris napi|Pinus|Pistacia vera|Pisum sativum|Platycarya strobilacea|Plinia edulis|Potentilla erecta|Potentilla fruticosa|Potentilla tormentilla|Prunus armeniaca|Prunus avium|Prunus domestica|Prunus dulcis|Prunus persica|Prunus salicina|Pseudodistoma arborescens|Pteroxygonum giraldii|Pyrus communis|Quercus cerris L.|Quercus ilex L.|Quercus palustris Muencch.|Quercus petraea Liebl.|Quercus pubescens Willd.|Quercus robur|Quercus robur L.|Quercus rubra L.|Ramalina stenospora|Rhodiola crenulata|Rhodiola heterodonta|Rhodiola kirilowii|Rhodiola sacra|Rhodiola semenovii|Ribes rubrum|Rosa rugosa|Rubia oncotricha|Rubus|Salvia officinalis|Salvia parryi|Sclerocarya birrea|Scurrula atropurpurea|Sedum crassularia|Sedum sediforme|Sempervivum tectorum|Senecio renardii|Senegalia catechu|Senegalia chundra|Senegalia polyacantha|Senna siamea|Serratula inermis|Sesbania bispinosa|Sextonia rubra|Sideroxylon inerme|Sideroxylon inerme L.|Sinularia maxima|Solanum melongena|Solanum nigrum|Solidago serotina|Sorbaria sorbifolia|Streptomyces hachijoensis|Streptomyces paulus|Streptomyces xanthochromogenes|Strophanthus kombe|Stryphnodendron adstringens|Syzygium Samarangense|Syzygium aqueum|Syzygium samarangense|Tacca chantrieri|Terminalia catappa|Thalictrum longistylum|Thea sinensis|Theaceae|Thymus vulgaris|Triaenophora rupestris|Tridachia crispata|Triticum aestivum|Turpinia ternata|Uncaria guianensis|Uncaria tomentosa|Veratrum dahuricum|Vernonia menthaefolia|Veronica arvensis|Viburnum urceolatum|Viguiera oblongifolia|Virola multinervia|Vitellaria paradoxa|Vitis Vinifera|Vitis vinifera|Xylaria cubensis|Xyris pterygoblephara|Ziziphus jujuba|broad bean|cacao|common myrtle|lettuce|peanut|pomegranate|star fruit|tomato

>  <collections>  (381) 
ANPDB|AnalytiCon Discovery NPs|Australian natural products|BitterDB|CMAUP (cCollective molecular activities of useful plants)|ChEBI NPs|ChemSpider NPs|ConMedNP|DrugBankNP|FooDB|GNPS (Global Natural Products Social Molecular Networking)|InflamNat|KNApSaCK|Latin America dataset|NANPDB (Natural Products from Northern African Sources)|NAPRORE-CR|NPACT|NPASS|NPEdia|NuBBEDB|Phenol-explorer|Phyto4Health|PhytoLab phyproof® Reference Substances|SANCDB|Super Natural II|TCMDB-Taiwan (Traditional Chinese Medicine database)|TIPdb (database of Taiwan indigenous plants)|TPPT (Toxic Plants–PhytoToxins)|VietHerb|WikiData Natural Products

>  <dois>  (381) 
10.1002/(SICI)1097-0142(19960415)77:8+<1662::AID-CNCR12>3.0.CO;2-W|10.1002/(SICI)1097-0347(199809)20:6<528::AID-HED7>3.0.CO;2-3|10.1002/(SICI)1097-458X(199611)34:11<887::AID-OMR995>3.0.CO;2-U|10.1002/(SICI)1099-1573(199605)10:3<260::AID-PTR811>3.0.CO;2-B|10.1002/(SICI)1521-4168(19990401)22:4<225::AID-JHRC225>3.0.CO;2-V|10.1002/HLCA.201100267|10.1002/JCCS.199900085|10.1002/JSFA.2740600217|10.1002/MNFR.200400064|10.1002/PTR.2650010110|10.1002/PTR.2650050512|10.1002/food.19880321030|10.1007/978-3-540-69934-7_22|10.1007/BF00565058|10.1007/BF00574392|10.1007/BF00597729|10.1007/BF01201768|10.1007/BF02249631|10.1007/BF02291535|10.1007/BF02291536|10.1007/BF02467181|10.1007/S10529-015-1825-1|10.1007/S10600-005-0012-3|10.1007/S10600-006-0052-3|10.1007/S10600-011-0025-Z|10.1007/S11418-008-0239-Y|10.1007/s13197-017-3031-8|10.1016/0021-9673(96)00456-6|10.1016/0031-9422(77)83041-0|10.1016/0031-9422(92)80352-F|10.1016/0031-9422(92)80375-O|10.1016/0031-9422(93)85416-O|10.1016/0031-9422(95)00686-9|10.1016/0031-9422(96)00301-9|10.1016/0308-8146(93)90160-H|10.1016/0378-8741(86)90110-8|10.1016/J.BMCL.2010.08.061|10.1016/J.FOODCHEM.2014.08.101|10.1016/J.FOODCONT.2014.02.001|10.1016/J.FOODRES.2004.10.005|10.1016/J.INDCROP.2013.06.011|10.1016/J.JEP.2008.06.006|10.1016/J.JEP.2015.02.044|10.1016/J.LWT.2014.11.023|10.1016/J.PHYMED.2010.10.005|10.1016/J.PHYTOCHEM.2004.10.003|10.1016/J.PHYTOCHEM.2006.07.026|10.1016/S0014-5793(99)01498-2|10.1016/S0021-9673(97)00906-0|10.1016/S0021-9673(97)01069-8|10.1016/S0021-9673(98)00040-5|10.1016/S0031-9422(00)98001-4|10.1016/S0031-9422(03)00437-0|10.1016/S0165-1161(96)90262-9|10.1016/S0304-4165(99)00102-6|10.1016/S0308-8146(02)00112-7|10.1016/S0308-8146(02)00415-6|10.1016/S0308-8146(03)00066-9|10.1016/S0308-8146(99)00179-X|10.1016/S0367-326X(99)00137-9|10.1016/S0378-8741(98)00245-1|10.1016/S0731-7085(00)00264-8|10.1016/j.bmc.2012.02.002|10.1016/j.bmcl.2010.08.061|10.1016/j.bmcl.2017.01.083|10.1016/j.foodcont.2014.02.001|10.1016/j.indcrop.2013.06.011|10.1016/j.jep.2008.06.006|10.1016/j.jep.2016.07.056|10.1016/j.lwt.2014.11.023|10.1021/JF000026+|10.1021/JF0000833|10.1021/JF000316Q|10.1021/JF000549H|10.1021/JF010153L|10.1021/JF026188I|10.1021/JF030374M|10.1021/JF050382Y|10.1021/JF0531499|10.1021/JF061478A|10.1021/JF103918V|10.1021/JF204660C|10.1021/JF802974M|10.1021/JF950652K|10.1021/JF980223X|10.1021/JF980669D|10.1021/JF981114L|10.1021/NP000135I|10.1021/NP100523S|10.1021/NP200426K|10.1021/NP300212C|10.1021/NP980046U|10.1021/acs.jnatprod.0c00901|10.1021/acs.jnatprod.0c01168|10.1021/acs.jnatprod.6b00061|10.1021/acs.jnatprod.6b01103|10.1021/acs.jnatprod.7b00457|10.1021/acs.jnatprod.9b00701|10.1021/jf050382y|10.1021/jf0531499|10.1021/jf803911n|10.1021/np020576x|10.1021/np049743e|10.1021/np100523s|10.1021/np1007729|10.1021/np200426k|10.1021/np300212c|10.1023/B:CONC.0000025480.17399.66|10.1039/A909219F|10.1055/S-2000-8540|10.1055/S-2000-8547|10.1055/S-2004-835859|10.1055/S-2006-959826|10.1055/S-2006-960871|10.1078/0944-7113-00117|10.1080/01635589209514207|10.1080/1071576021000006707|10.1080/15216549900201883|10.1081/JLC-100101831|10.1081/JLC-100103434|10.1081/JLC-120003036|10.1093/CARCIN/10.6.1003|10.1093/CARCIN/18.10.1911|10.1093/JN/131.9.2248|10.1093/JN/132.7.1825|10.1093/MUTAGE/11.1.37|10.1097/00001813-199606000-00011|10.1111/J.1365-2621.2005.TB08304.X|10.1159/000261407|10.1248/BPB.18.683|10.1248/BPB.22.157|10.1248/BPB.25.1101|10.1248/BPB.26.271|10.1248/CPB.35.611|10.1248/CPB.36.227|10.1248/CPB.40.1383|10.1248/CPB.40.2671|10.1248/CPB.41.1708|10.1248/CPB.50.208|10.1248/CPB.50.841|10.1248/CPB.51.343|10.1248/CPB.54.136|10.1248/CPB.57.1284|10.1248/YAKUSHI1947.111.12_790|10.1248/cpb.40.2671|10.1271/BBB.56.896|10.1271/BBB.59.2134|10.1271/BBB.60.117|10.1271/BBB.60.2066|10.1271/BBB.61.1901|10.1271/BBB.62.532|10.1271/BBB.70645|10.1271/BBB.90697|10.1271/BBB1961.46.1079|10.1271/BBB1961.53.2307|10.1271/BBB1961.55.1425|10.1590/S0100-40422006000300016|10.2147/IJN.S176013|10.3390/MOLECULES16031917|10.3797/SCIPHARM.2007.75.29|10.5009/gnl.2012.6.2.188|10.7883/YOKEN1952.44.181

>  <synonyms>  (381) 
nan

>  <cas>  (381) 
989-51-5

$$$$

     RDKit          2D

 17 16  0  0  0  0  0  0  0  0999 V2000
  -10.3923   -0.3529    0.0000 C   0  0  0  0  0  0  0  0  0  0  0  0
   -9.0933    0.3971    0.0000 C   0  0  0  0  0  0  0  0  0  0  0  0
   -7.7942   -0.3529    0.0000 C   0  0  0  0  0  0  0  0  0  0  0  0
   -6.4952    0.3971    0.0000 C   0  0  0  0  0  0  0  0  0  0  0  0
   -5.1962   -0.3529    0.0000 C   0  0  0  0  0  0  0  0  0  0  0  0
   -3.8971    0.3971    0.0000 C   0  0  0  0  0  0  0  0  0  0  0  0
   -2.5981   -0.3529    0.0000 C   0  0  0  0  0  0  0  0  0  0  0  0
   -1.2990    0.3971    0.0000 C   0  0  0  0  0  0  0  0  0  0  0  0
    0.0000   -0.3529    0.0000 C   0  0  0  0  0  0  0  0  0  0  0  0
    1.2990    0.3971    0.0000 C   0  0  0  0  0  0  0  0  0  0  0  0
    2.5981   -0.3529    0.0000 C   0  0  0  0  0  0  0  0  0  0  0  0
    3.8971    0.3971    0.0000 C   0  0  0  0  0  0  0  0  0  0  0  0
    5.1962   -0.3529    0.0000 C   0  0  0  0  0  0  0  0  0  0  0  0
    6.4952    0.3971    0.0000 C   0  0  0  0  0  0  0  0  0  0  0  0
    7.7942   -0.3529    0.0000 C   0  0  0  0  0  0  0  0  0  0  0  0
    9.0933    0.3971    0.0000 C   0  0  0  0  0  0  0  0  0  0  0  0
   10.3923   -0.3529    0.0000 C   0  0  0  0  0  0  0  0  0  0  0  0
  1  2  1  0
  2  3  1  0
  3  4  1  0
  4  5  1  0
  5  6  1  0
  6  7  1  0
  7  8  1  0
  8  9  1  0
  9 10  1  0
 10 11  1  0
 11 12  1  0
 12 13  1  0
 13 14  1  0
 14 15  1  0
 15 16  1  0
 16 17  1  0
M  END
>  <identifier>  (382) 
CNP0342809.0

>  <canonical_smiles>  (382) 
CCCCCCCCCCCCCCCCC

>  <standard_inchi>  (382) 
InChI=1S/C17H36/c1-3-5-7-9-11-13-15-17-16-14-12-10-8-6-4-2/h3-17H2,1-2H3

>  <standard_inchi_key>  (382) 
NDJKXXJCMXVBJW-UHFFFAOYSA-N

>  <name>  (382) 
HEPTADECANE

>  <iupac_name>  (382) 
heptadecane

>  <annotation_level>  (382) 
5

>  <total_atom_count>  (382) 
53

>  <heavy_atom_count>  (382) 
17

>  <molecular_weight>  (382) 
240.47

>  <exact_molecular_weight>  (382) 
240.2817

>  <molecular_formula>  (382) 
C17H36

>  <alogp>  (382) 
6.88

>  <topological_polar_surface_area>  (382) 
0.00

>  <rotatable_bond_count>  (382) 
14

>  <hydrogen_bond_acceptors>  (382) 
0

>  <hydrogen_bond_donors>  (382) 
0

>  <hydrogen_bond_acceptors_lipinski>  (382) 
0

>  <hydrogen_bond_donors_lipinski>  (382) 
0

>  <lipinski_rule_of_five_violations>  (382) 
1

>  <aromatic_rings_count>  (382) 
0

>  <qed_drug_likeliness>  (382) 
0.29

>  <formal_charge>  (382) 
0

>  <fractioncsp3>  (382) 
1.00

>  <number_of_minimal_rings>  (382) 
0

>  <van_der_walls_volume>  (382) 
294.35

>  <contains_sugar>  (382) 
False

>  <contains_ring_sugars>  (382) 
False

>  <contains_linear_sugars>  (382) 
False

>  <murcko_framework>  (382) 
nan

>  <np_likeness>  (382) 
0.14

>  <chemical_class>  (382) 
Saturated hydrocarbons

>  <chemical_sub_class>  (382) 
Alkanes

>  <chemical_super_class>  (382) 
Hydrocarbons

>  <direct_parent_classification>  (382) 
Alkanes

>  <np_classifier_pathway>  (382) 
Fatty acids

>  <np_classifier_superclass>  (382) 
Fatty acyls

>  <np_classifier_class>  (382) 
Hydrocarbons

>  <np_classifier_is_glycoside>  (382) 
False

>  <organisms>  (382) 
Aiouea costaricensis|Albatrellus cristatus|Allium ampeloprasum|Aloe vera|Alpinia conchigera|Alstonia muelleriana|Amomum villosum|Annona squamosa|Aphanizomenon|Aristolochia debilis|Armoracia rusticana|Artemisia Annua|Artemisia annua|Artemisia annua L.cultivar Jwarharti|Artemisia cina|Aster scaber|Astilbe chinensis|Atractylodes lancea|Atractylodes macrocephala|Bistorta manshuriensis|Bistorta officinalis|Bulbus allii fistulosi|Callitropsis nootkatensis|Camellia sinensis|Camptotheca acuminata|Cannabis sativa|Capsicum annuum|Caryocar coriaceum|Ceratophyllum demersum|Chaenomeles sinensis|Chaenomeles speciosa|Cinnamomum zeylanicum|Cinnamon|Cirsium dipsacolepis|Cistanche deserticola|Cistus creticus|Cistus ladanifer|Cistus laurifolius|Cistus monspeliensis|Citrullus lanatus|Citrullus lanatus subsp. vulgaris|Citrus Reticulata|Citrus Sinensis|Citrus reticulata|Citrus sinensis|Citrus × deliciosa|Clematis chinensis|Cnidium monnieri|Codonopsis pilosula|Combretum indicum|Coreopsis nodosa|Croton draco|Croton grewioides|Croton zehntneri|Curcuma amada|Curcuma amanda Roxb|Cymbidium aloifolium|Cymbopogon citratus|Cynanchum stauntoni|Cynanchum stauntonii|Cynomorium songaricum|Dacrydium cupressinum|Delisea elegans|Delphinium dictyocarpum|Dendrobium chrysanthum|Dendrobium fimbriatum var. oculatum|Dendrobium hildebrandii|Dendrobium officinale|Digitalis purpurea|Eclipta prostrata|Eleutherococcus giraldii|Ephedra sinica|Eucalyptus leucoxylon|Eucalyptus melliodora|Eucheuma muricatum|Eucommia ulmoides|Fragaria|Fragaria x ananassa|Fructus amomi|Fructus galangae|Fructus hippophae|Fructus terminaliae|Fructus terminaliae preparata|Fructus xanthii|Fructus xanthii sibirici|Gardenia jasminoides|Geitlerinema splendidum|Gelidium corneum|Gelidium sesquipedale|Gelidium spinosum|Glycine tomentella|Gossypium herbaceum|Gymnodinium nagasakiense|Haematococcus lacustris|Hamamelis virginiana|Herba ecliptae prostratae|Hericium erinaceus|Homo sapiens|Hordeum vulgare|Houttuynia cordata|Hypoxylon rubiginosum|Jaaginema geminatum|Jerusalem artichoke|Juniperus serawschanica|Karenia mikimotoi|Ladeania juncea|Lantana camara|Laurencia dendroidea|Laurencia obtusa|Leonurus heterophyllus|Ligularia atroviolacea|Magnolia obovata|Magnolia officinalis|Mangifera indica|Manilkara bidentata|Mauremys reevesii|Meliosma simplicifolia|Melissa officinalis|Michelia alba|Microcoleus amoenus|Microcystis aeruginosa|Murraya paniculata|Nelumbo lutea|Nelumbo nucifera|Nicotiana undulata|Nidus vespae|Nothomyrmecia macrops|Oecophylla smaragdina|Ophrys sphegodes|Opuntia littoralis|Orthosiphon aristatus|Orthosiphon grandiflorus|Oryza sativa|Oscillatoria amoena|Oscillatoria geminata|Oscillatoria splendida|Paederia scandens|Panax ginseng|Panax notoginseng|Panax pseudo - ginseng var. notoginseng|Panax pseudo-ginseng var. notoginseng|Panax schinseng|Passiflora incarnata|Pelargonium endlicherianum|Perilla frutescens|Persicaria hydropiperoides|Persicaria minor|Peucedanum graveolens|Phallus impudicus|Piper nigrum|Pistacia vera|Pisum sativum|Plantago ovata|Platycladus orientalis|Plocamium cruciferum|Plumeria rubra|Polygonum Minus|Polygonum minus|Porphyra tenera|Prunus persica|Pseudogymnoascus pannorum|Pterocladiella tenuis|Pyrus pyrifolia|Quercus myrsinifolia|Radix codonopsis pilosulae|Radix smilacis|Rhaponticum uniflorum|Rhizoprionodon acutus|Rosa gallica|Rosa multiflora|Rosa × centifolia|Ruta graveolens|Saccharomyces pastori|Saposhnikovia divaricata|Sauromatum venosum|Saussurea involucrata|Scutellaria baicalensis|Scutellaria glabra|Senecio paludaffinis|Senna alexandrina|Solanum incisum|Solanum stuckertii|Sophora flavescens|Streptomyces flocculus|Syringa vulgaris|Tachigalia paniculata|Tanacetum cinerariifolium|Terminalia chebula|Tetrapanax papyrifer|Trametes lilacinogilva|Trichosanthes kirilowii|Trifolium pannonicum|Trigonella grandiflora|Tripetalum cymosum|Tripolium pannonicum|Typhonium flagelliforme|Uncaria macrophylla|Uvaria calamistrata|Vanilla madagascariensis|Vanilla planifolia|Vanilla tahitensis|Vincetoxicum glaucescens|Vincetoxicum stauntonii|Xanthocyparis nootkatensis|bellis perennis

>  <collections>  (382) 
Australian natural products|CMAUP (cCollective molecular activities of useful plants)|ChEBI NPs|EMNPD|FooDB|KNApSaCK|Latin America dataset|NAPRORE-CR|NPASS|NuBBEDB|Phyto4Health|ReSpect|Super Natural II|TCMDB-Taiwan (Traditional Chinese Medicine database)|TCMID (Traditional Chinese Medicine Integrated Database)|TIPdb (database of Taiwan indigenous plants)|UNPD (Universal Natural Products Database)|VietHerb|Watermelon|WikiData Natural Products|ZINC NP

>  <dois>  (382) 
10.1002/(SICI)1099-1026(199901/02)14:1<15::AID-FFJ777>3.0.CO;2-M|10.1002/FFJ.1588|10.1002/FFJ.1804|10.1002/FFJ.2730070108|10.1002/PTR.2137|10.1007/BF01959170|10.1007/S11418-007-0175-2|10.1007/s10886-010-9846-7|10.1016/0031-9422(90)83036-Z|10.1016/0031-9422(92)80160-G|10.1016/0031-9422(95)00183-8|10.1016/J.ACA.2004.09.082|10.1016/J.BSE.2016.02.030|10.1016/J.CHROMA.2014.10.058|10.1016/J.FOODCHEM.2012.09.111|10.1016/J.FOODCHEM.2016.04.071|10.1016/J.INDCROP.2014.04.048|10.1016/J.JPBA.2009.01.038|10.1016/J.PHYTOCHEM.2009.07.031|10.1016/J.RENENE.2017.12.012|10.1016/S0031-9422(00)81276-5|10.1016/S0031-9422(00)81427-2|10.1016/S0031-9422(00)85772-6|10.1016/S0031-9422(00)88097-8|10.1016/S0031-9422(00)90495-3|10.1016/S0031-9422(00)94756-3|10.1016/S0031-9422(82)85033-4|10.1016/S0031-9422(97)00943-6|10.1016/S0040-4020(01)85928-7|10.1016/S0378-8741(01)00274-4|10.1021/JF00034A033|10.1021/JF00087A036|10.1021/JF00120A031|10.1021/JF60217A066|10.1021/JF960625+|10.1021/JF960927B|10.1021/JF991395C|10.1021/NP000159P|10.1021/NP50008A001|10.1021/NP50064A026|10.1021/NP800631T|10.1021/NP970146K|10.1021/jf00120a031|10.1021/jf960625+|10.1039/JR9630000677|10.1055/S-0028-1099475|10.1055/S-2006-957420|10.1055/S-2006-960872|10.1055/S-2007-969136|10.1071/CH9792545|10.1071/bi9810115|10.1073/PNAS.81.21.6613|10.1080/00021369.1990.10870456|10.1080/03081080802049013|10.1080/10412905.1989.9697787|10.1080/10412905.1991.9697919|10.1080/10412905.1991.9697932|10.1080/10412905.1991.9697935|10.1080/10412905.1992.9698080|10.1080/10412905.1992.9698151|10.1080/10412905.1994.9698331|10.1080/10412905.1995.9698472|10.1080/10412905.1995.9698499|10.1080/10412905.1995.9698558|10.1080/10412905.1997.9700728|10.1080/10412905.2010.9700389|10.1080/14786419.2013.867345|10.1093/pcp/pcn183|10.1155/2017/7436259|10.1248/YAKUSHI1947.101.9_852|10.1271/BBB.57.1350|10.1271/BBB1961.51.1449|10.1271/BBB1961.54.3335|10.1515/ZNC-1984-7-802|10.1515/ZNC-1998-9-1006|10.1515/ZNC-2002-11-1206|10.1631/JZUS.B1200086|10.21608/ZJPS.1997.169710|10.3390/MOLECULES191119220|10.3724/SP.J.1238.2012.00106|10.4103/0973-1296.137364|10.7235/HORT.2013.12200

>  <synonyms>  (382) 
4-01-00-00548 (Beilstein Handbook Reference)|43B472DE-3A6B-4855-8457-9D679B0D1C87|629-78-7|AI3-36898|AKOS000487450|AS-56326|Analytical Reagent,95.0%|BRN 1738898|C01816|CAS-629-78-7|CH3-[CH2]15-CH3|CHEBI:16148|CHEMBL3185332|CS-0197341|D97702|DB-054356|DTXCID5027061|DTXSID7047061|EINECS 211-108-4|H0023|H7C0J39XUM|HSDB 8347|Heptadecane purum|Heptadecane, 99%|Heptadecane, analytical standard|Heptadecane, purum, >=98.0% (GC)|Heptadecane; NSC 172782; TS 7; n-Heptadecane|Heptadekan|Hexadecane, methyl-|InChI=1\/C17H36\/c1-3-5-7-9-11-13-15-17-16-14-12-10-8-6-4-2\/h3-17H2,1-2H|LMFA11000003|MFCD00009002|NCGC00256101-01|NS00012511|NSC-172782|Normal-heptadecane|PJ8|Q150888|STL355860|Samarium(III)ChlorideHexahydrate|Tox21_302278|UNII-H7C0J39XUM|heptadecane|n-Heptadecane|n-Heptadecane (d36)

>  <cas>  (382) 
629-78-7

$$$$

     RDKit          2D

 26 25  0  0  0  0  0  0  0  0999 V2000
    6.1854   -5.1282    0.0000 C   0  0  0  0  0  0  0  0  0  0  0  0
    6.5286   -3.6679    0.0000 C   0  0  0  0  0  0  0  0  0  0  0  0
    7.9648   -3.2350    0.0000 C   0  0  0  0  0  0  0  0  0  0  0  0
    5.4357   -2.6406    0.0000 C   0  0  0  0  0  0  0  0  0  0  0  0
    5.7788   -1.1804    0.0000 C   0  0  0  0  0  0  0  0  0  0  0  0
    4.6859   -0.1531    0.0000 C   0  0  0  0  0  0  0  0  0  0  0  0
    5.0291    1.3071    0.0000 C   0  0  0  0  0  0  0  0  0  0  0  0
    6.4652    1.7400    0.0000 C   0  0  0  0  0  0  0  0  0  0  0  0
    3.9361    2.3344    0.0000 C   0  0  0  0  0  0  0  0  0  0  0  0
    2.4999    1.9016    0.0000 C   0  0  0  0  0  0  0  0  0  0  0  0
    1.4069    2.9289    0.0000 N   0  0  0  0  0  0  0  0  0  0  0  0
    1.7501    4.3891    0.0000 C   0  0  0  0  0  0  0  0  0  0  0  0
   -0.0293    2.4960    0.0000 C   0  0  0  0  0  0  0  0  0  0  0  0
   -1.1222    3.5233    0.0000 N   0  0  0  0  0  0  0  0  0  0  0  0
   -0.3725    1.0358    0.0000 N   0  0  0  0  0  0  0  0  0  0  0  0
    0.7205    0.0084    0.0000 C   0  0  0  0  0  0  0  0  0  0  0  0
   -1.8086    0.6029    0.0000 C   0  0  0  0  0  0  0  0  0  0  0  0
   -2.9016    1.6302    0.0000 C   0  0  0  0  0  0  0  0  0  0  0  0
   -4.3378    1.1973    0.0000 C   0  0  0  0  0  0  0  0  0  0  0  0
   -5.4308    2.2246    0.0000 C   0  0  0  0  0  0  0  0  0  0  0  0
   -4.6810   -0.2629    0.0000 C   0  0  0  0  0  0  0  0  0  0  0  0
   -6.1172   -0.6958    0.0000 C   0  0  0  0  0  0  0  0  0  0  0  0
   -6.4604   -2.1560    0.0000 C   0  0  0  0  0  0  0  0  0  0  0  0
   -7.8965   -2.5889    0.0000 C   0  0  0  0  0  0  0  0  0  0  0  0
   -8.2397   -4.0491    0.0000 C   0  0  0  0  0  0  0  0  0  0  0  0
   -8.9895   -1.5616    0.0000 C   0  0  0  0  0  0  0  0  0  0  0  0
  1  2  1  0
  2  3  1  0
  2  4  2  0
  4  5  1  0
  5  6  1  0
  6  7  1  0
  7  8  1  0
  7  9  2  3
  9 10  1  0
 10 11  1  0
 11 12  1  0
 11 13  1  0
 13 14  2  0
 13 15  1  0
 15 16  1  0
 15 17  1  0
 17 18  1  0
 18 19  2  0
 19 20  1  0
 19 21  1  0
 21 22  1  0
 22 23  1  0
 23 24  2  0
 24 25  1  0
 24 26  1  0
M  END
>  <identifier>  (383) 
CNP0322656.2

>  <canonical_smiles>  (383) 
CC(C)=CCCC(C)=CCN(C)C(=N)N(C)C/C=C(/C)CCC=C(C)C

>  <standard_inchi>  (383) 
InChI=1S/C23H41N3/c1-19(2)11-9-13-21(5)15-17-25(7)23(24)26(8)18-16-22(6)14-10-12-20(3)4/h11-12,15-16,24H,9-10,13-14,17-18H2,1-8H3/b21-15-,22-16?,24-23?

>  <standard_inchi_key>  (383) 
NQJSPBXUQXWVRB-VCDCRRDOSA-N

>  <name>  (383) 
nan

>  <iupac_name>  (383) 
nan

>  <annotation_level>  (383) 
0

>  <total_atom_count>  (383) 
67

>  <heavy_atom_count>  (383) 
26

>  <molecular_weight>  (383) 
359.6

>  <exact_molecular_weight>  (383) 
359.33005

>  <molecular_formula>  (383) 
C23H41N3

>  <alogp>  (383) 
6.17

>  <topological_polar_surface_area>  (383) 
30.33

>  <rotatable_bond_count>  (383) 
10

>  <hydrogen_bond_acceptors>  (383) 
1

>  <hydrogen_bond_donors>  (383) 
1

>  <hydrogen_bond_acceptors_lipinski>  (383) 
1

>  <hydrogen_bond_donors_lipinski>  (383) 
1

>  <lipinski_rule_of_five_violations>  (383) 
1

>  <aromatic_rings_count>  (383) 
0

>  <qed_drug_likeliness>  (383) 
0.29

>  <formal_charge>  (383) 
0

>  <fractioncsp3>  (383) 
0.61

>  <number_of_minimal_rings>  (383) 
0

>  <van_der_walls_volume>  (383) 
403.05

>  <contains_sugar>  (383) 
False

>  <contains_ring_sugars>  (383) 
False

>  <contains_linear_sugars>  (383) 
False

>  <murcko_framework>  (383) 
nan

>  <np_likeness>  (383) 
1.10

>  <chemical_class>  (383) 
nan

>  <chemical_sub_class>  (383) 
nan

>  <chemical_super_class>  (383) 
nan

>  <direct_parent_classification>  (383) 
nan

>  <np_classifier_pathway>  (383) 
Terpenoids

>  <np_classifier_superclass>  (383) 
nan

>  <np_classifier_class>  (383) 
nan

>  <np_classifier_is_glycoside>  (383) 
False

>  <organisms>  (383) 
Pterogyne nitens

>  <collections>  (383) 
Latin America dataset|NuBBEDB

>  <dois>  (383) 
10.1590/S0102-695X2010005000017

>  <synonyms>  (383) 
nan

>  <cas>  (383) 
nan

$$$$

     RDKit          2D

 23 24  0  0  0  0  0  0  0  0999 V2000
   -7.4174   -2.6020    0.0000 O   0  0  0  0  0  0  0  0  0  0  0  0
   -7.1715   -1.1223    0.0000 C   0  0  0  0  0  0  0  0  0  0  0  0
   -8.3300   -0.1695    0.0000 C   0  0  0  0  0  0  0  0  0  0  0  0
   -8.0842    1.3102    0.0000 C   0  0  0  0  0  0  0  0  0  0  0  0
   -6.6798    1.8371    0.0000 C   0  0  0  0  0  0  0  0  0  0  0  0
   -5.5212    0.8844    0.0000 C   0  0  0  0  0  0  0  0  0  0  0  0
   -4.1168    1.4113    0.0000 C   0  0  0  0  0  0  0  0  0  0  0  0
   -2.9583    0.4585    0.0000 C   0  0  0  0  0  0  0  0  0  0  0  0
   -1.5539    0.9854    0.0000 C   0  0  0  0  0  0  0  0  0  0  0  0
   -0.3954    0.0326    0.0000 C   0  0  0  0  0  0  0  0  0  0  0  0
   -0.6412   -1.4471    0.0000 O   0  0  0  0  0  0  0  0  0  0  0  0
    1.0090    0.5596    0.0000 C   0  0  0  0  0  0  0  0  0  0  0  0
    2.1676   -0.3932    0.0000 C   0  0  0  0  0  0  0  0  0  0  0  0
    1.9217   -1.8729    0.0000 O   0  0  0  0  0  0  0  0  0  0  0  0
    3.5720    0.1337    0.0000 C   0  0  0  0  0  0  0  0  0  0  0  0
    4.7305   -0.8191    0.0000 C   0  0  0  0  0  0  0  0  0  0  0  0
    6.1349   -0.2922    0.0000 C   0  0  0  0  0  0  0  0  0  0  0  0
    7.2935   -1.2449    0.0000 C   0  0  0  0  0  0  0  0  0  0  0  0
    8.6979   -0.7180    0.0000 C   0  0  0  0  0  0  0  0  0  0  0  0
    8.9437    0.7617    0.0000 C   0  0  0  0  0  0  0  0  0  0  0  0
    7.7852    1.7145    0.0000 C   0  0  0  0  0  0  0  0  0  0  0  0
    6.3808    1.1875    0.0000 C   0  0  0  0  0  0  0  0  0  0  0  0
   -5.7671   -0.5953    0.0000 O   0  0  0  0  0  0  0  0  0  0  0  0
  1  2  2  0
  2  3  1  0
  3  4  2  0
  4  5  1  0
  5  6  1  0
  6  7  1  6
  7  8  2  0
  8  9  1  0
  9 10  1  0
 10 11  1  6
 10 12  1  0
 12 13  1  0
 13 14  1  6
 13 15  1  0
 15 16  2  0
 16 17  1  0
 17 18  2  0
 18 19  1  0
 19 20  2  0
 20 21  1  0
 21 22  2  0
  6 23  1  0
 23  2  1  0
 22 17  1  0
M  END
>  <identifier>  (384) 
CNP0276575.4

>  <canonical_smiles>  (384) 
O=C1C=CC[C@H](/C=C/C[C@@H](O)C[C@@H](O)/C=C/C2=CC=CC=C2)O1

>  <standard_inchi>  (384) 
InChI=1S/C19H22O4/c20-16(8-4-9-18-10-5-11-19(22)23-18)14-17(21)13-12-15-6-2-1-3-7-15/h1-7,9,11-13,16-18,20-21H,8,10,14H2/b9-4+,13-12+/t16-,17+,18+/m1/s1

>  <standard_inchi_key>  (384) 
JSKFCRSAYKODTM-DBQRARESSA-N

>  <name>  (384) 
nan

>  <iupac_name>  (384) 
(2~{R})-2-[(1~{E},4~{R},6~{R},7~{E})-4,6-dihydroxy-8-phenyl-octa-1,7-dienyl]-2,3-dihydropyran-6-one

>  <annotation_level>  (384) 
4

>  <total_atom_count>  (384) 
45

>  <heavy_atom_count>  (384) 
23

>  <molecular_weight>  (384) 
314.38

>  <exact_molecular_weight>  (384) 
314.15181

>  <molecular_formula>  (384) 
C19H22O4

>  <alogp>  (384) 
2.63

>  <topological_polar_surface_area>  (384) 
66.76

>  <rotatable_bond_count>  (384) 
7

>  <hydrogen_bond_acceptors>  (384) 
4

>  <hydrogen_bond_donors>  (384) 
2

>  <hydrogen_bond_acceptors_lipinski>  (384) 
4

>  <hydrogen_bond_donors_lipinski>  (384) 
2

>  <lipinski_rule_of_five_violations>  (384) 
0

>  <aromatic_rings_count>  (384) 
1

>  <qed_drug_likeliness>  (384) 
0.60

>  <formal_charge>  (384) 
0

>  <fractioncsp3>  (384) 
0.32

>  <number_of_minimal_rings>  (384) 
2

>  <van_der_walls_volume>  (384) 
nan

>  <contains_sugar>  (384) 
False

>  <contains_ring_sugars>  (384) 
False

>  <contains_linear_sugars>  (384) 
False

>  <murcko_framework>  (384) 
O1CC=CCC1C=CCCCCC=Cc2ccccc2

>  <np_likeness>  (384) 
2.55

>  <chemical_class>  (384) 
Cinnamyl alcohols

>  <chemical_sub_class>  (384) 
Cinnamyl alcohols

>  <chemical_super_class>  (384) 
Phenylpropanoids and polyketides

>  <direct_parent_classification>  (384) 
Cinnamyl alcohols

>  <np_classifier_pathway>  (384) 
Shikimates and Phenylpropanoids

>  <np_classifier_superclass>  (384) 
Styrylpyrones

>  <np_classifier_class>  (384) 
Kavalactones and derivatives

>  <np_classifier_is_glycoside>  (384) 
False

>  <organisms>  (384) 
Cryptocarya liebertiana|Cryptocarya moschata|Cryptocarya myrtifolia

>  <collections>  (384) 
Latin America dataset|NuBBEDB|Super Natural II|WikiData Natural Products|ZINC NP

>  <dois>  (384) 
10.1002/pca.818|10.1016/0031-9422(95)92696-6|10.1016/J.BSE.2008.05.001|10.1016/S0031-9422(96)00464-5|10.1016/S0031-9422(99)00532-4|10.1016/S0305-1978(01)00129-6|10.1365/S10337-009-1338-Y

>  <synonyms>  (384) 
Cryptofolione, (6R)-56-dihydro-6-[(2'R4'R5'E)-2'4'-dihydroxy-6'-phenyl-5'-hexenyl]-2-pyrone

>  <cas>  (384) 
nan

$$$$

     RDKit          2D

 32 37  0  0  0  0  0  0  0  0999 V2000
   -4.8206   -1.5114    0.0000 C   0  0  0  0  0  0  0  0  0  0  0  0
   -4.8094   -0.0114    0.0000 C   0  0  0  0  0  0  0  0  0  0  0  0
   -6.2885   -0.2608    0.0000 C   0  0  0  0  0  0  0  0  0  0  0  0
   -5.3118    1.4019    0.0000 C   0  0  0  0  0  0  0  0  0  0  0  0
   -6.7870    1.6735    0.0000 O   0  0  0  0  0  0  0  0  0  0  0  0
   -4.3391    2.5438    0.0000 C   0  0  0  0  0  0  0  0  0  0  0  0
   -2.8638    2.2722    0.0000 C   0  0  0  0  0  0  0  0  0  0  0  0
   -2.3614    0.8589    0.0000 C   0  0  0  0  0  0  0  0  0  0  0  0
   -1.3886    2.0007    0.0000 C   0  0  0  0  0  0  0  0  0  0  0  0
   -0.8862    0.5874    0.0000 C   0  0  0  0  0  0  0  0  0  0  0  0
    0.0866    1.7292    0.0000 C   0  0  0  0  0  0  0  0  0  0  0  0
    1.5618    1.4577    0.0000 C   0  0  0  0  0  0  0  0  0  0  0  0
    2.0643    0.0443    0.0000 C   0  0  0  0  0  0  0  0  0  0  0  0
    3.0370    1.1862    0.0000 C   0  0  0  0  0  0  0  0  0  0  0  0
    3.5395   -0.2272    0.0000 C   0  0  0  0  0  0  0  0  0  0  0  0
    4.5123    0.9146    0.0000 C   0  0  0  0  0  0  0  0  0  0  0  0
    4.1603    2.3728    0.0000 C   0  0  0  0  0  0  0  0  0  0  0  0
    5.4383    3.1581    0.0000 O   0  0  0  0  0  0  0  0  0  0  0  0
    6.5801    2.1853    0.0000 C   0  0  0  0  0  0  0  0  0  0  0  0
    6.0078    0.7988    0.0000 C   0  0  0  0  0  0  0  0  0  0  0  0
    4.0420   -1.6405    0.0000 O   0  0  0  0  0  0  0  0  0  0  0  0
    3.0692   -2.7823    0.0000 C   0  0  0  0  0  0  0  0  0  0  0  0
    3.5717   -4.1957    0.0000 O   0  0  0  0  0  0  0  0  0  0  0  0
    1.5940   -2.5108    0.0000 C   0  0  0  0  0  0  0  0  0  0  0  0
    0.1188   -2.2393    0.0000 O   0  0  0  0  0  0  0  0  0  0  0  0
    1.0915   -1.0975    0.0000 C   0  0  0  0  0  0  0  0  0  0  0  0
   -0.3837   -0.8260    0.0000 C   0  0  0  0  0  0  0  0  0  0  0  0
   -1.8589   -0.5544    0.0000 C   0  0  0  0  0  0  0  0  0  0  0  0
   -1.3564   -1.9678    0.0000 C   0  0  0  0  0  0  0  0  0  0  0  0
   -0.8540   -3.3811    0.0000 O   0  0  0  0  0  0  0  0  0  0  0  0
   -2.8317   -1.6963    0.0000 C   0  0  0  0  0  0  0  0  0  0  0  0
   -3.3341   -0.2829    0.0000 C   0  0  0  0  0  0  0  0  0  0  0  0
  1  2  1  0
  2  3  1  0
  2  4  1  0
  4  5  2  0
  4  6  1  0
  6  7  2  0
  7  8  1  0
  8  9  1  1
  8 10  1  0
 10 11  1  1
 11 12  1  0
 12 13  1  0
 13 14  1  6
 13 15  1  0
 15 16  1  6
 16 17  2  0
 17 18  1  0
 18 19  1  0
 19 20  2  0
 15 21  1  0
 21 22  1  0
 22 23  2  0
 22 24  1  0
 24 25  1  1
 26 25  1  1
 26 27  1  0
 27 28  1  1
 27 29  1  0
 29 30  2  0
 29 31  1  0
 32 31  1  1
 32  2  1  0
 32  8  1  0
 27 10  1  0
 26 13  1  0
 20 16  1  0
 26 24  1  0
M  END
>  <identifier>  (385) 
CNP0270955.1

>  <canonical_smiles>  (385) 
CC1(C)C(=O)C=C[C@]2(C)[C@H]3CC[C@@]4(C)[C@H](C5=COC=C5)OC(=O)[C@H]5O[C@]54[C@]3(C)C(=O)C[C@@H]12

>  <standard_inchi>  (385) 
InChI=1S/C26H30O6/c1-22(2)16-12-18(28)25(5)15(23(16,3)9-7-17(22)27)6-10-24(4)19(14-8-11-30-13-14)31-21(29)20-26(24,25)32-20/h7-9,11,13,15-16,19-20H,6,10,12H2,1-5H3/t15-,16+,19+,20-,23-,24+,25+,26-/m1/s1

>  <standard_inchi_key>  (385) 
PMISPNORJONCHB-OASIGRBWSA-N

>  <name>  (385) 
7-Oxogedunin

>  <iupac_name>  (385) 
(1~{R},2~{R},4~{S},7~{S},8~{S},11~{R},12~{S},17~{R})-7-(3-furyl)-1,8,12,16,16-pentamethyl-3,6-dioxapentacyclo[9.8.0.0^{2,4}.0^{2,8}.0^{12,17}]nonadec-13-ene-5,15,19-trione

>  <annotation_level>  (385) 
5

>  <total_atom_count>  (385) 
62

>  <heavy_atom_count>  (385) 
32

>  <molecular_weight>  (385) 
438.52

>  <exact_molecular_weight>  (385) 
438.20424

>  <molecular_formula>  (385) 
C26H30O6

>  <alogp>  (385) 
4.20

>  <topological_polar_surface_area>  (385) 
86.11

>  <rotatable_bond_count>  (385) 
1

>  <hydrogen_bond_acceptors>  (385) 
6

>  <hydrogen_bond_donors>  (385) 
0

>  <hydrogen_bond_acceptors_lipinski>  (385) 
6

>  <hydrogen_bond_donors_lipinski>  (385) 
0

>  <lipinski_rule_of_five_violations>  (385) 
0

>  <aromatic_rings_count>  (385) 
1

>  <qed_drug_likeliness>  (385) 
0.48

>  <formal_charge>  (385) 
0

>  <fractioncsp3>  (385) 
0.65

>  <number_of_minimal_rings>  (385) 
6

>  <van_der_walls_volume>  (385) 
390.86

>  <contains_sugar>  (385) 
False

>  <contains_ring_sugars>  (385) 
False

>  <contains_linear_sugars>  (385) 
False

>  <murcko_framework>  (385) 
o1ccc(c1)C2OCC3OC34C2CCC5C6C=CCCC6CCC54

>  <np_likeness>  (385) 
3.16

>  <chemical_class>  (385) 
Naphthopyrans

>  <chemical_sub_class>  (385) 
Naphthopyrans

>  <chemical_super_class>  (385) 
Organoheterocyclic compounds

>  <direct_parent_classification>  (385) 
Naphthopyrans

>  <np_classifier_pathway>  (385) 
Terpenoids

>  <np_classifier_superclass>  (385) 
Triterpenoids

>  <np_classifier_class>  (385) 
Limonoids

>  <np_classifier_is_glycoside>  (385) 
False

>  <organisms>  (385) 
Alaria nana|Artemisia arctica|Bergia capensis|Cabralea canjerana|Carapa guianensis|Carapa procera|Cedrela odorata|Cyperus compressus|Ekebergia capensis|Ferreirea spectabilis|Guarea guidonia|Meliaceae|Meliaceae spp.|Pieris melete|Pseudocedrela kotschyi|Streptomyces fungicidicus|Swietenia aubrevilleana|Swietenia macrophylla|Swietenia mahagoni|Xylocarpus granatum|Xylocarpus moluccensis

>  <collections>  (385) 
CMAUP (cCollective molecular activities of useful plants)|Latin America dataset|NPASS|NuBBEDB|Super Natural II|WikiData Natural Products

>  <dois>  (385) 
10.1016/0031-9422(75)85189-2|10.1016/0045-2068(73)90007-2|10.1016/J.BMCL.2011.06.010|10.1016/J.PHYTOCHEM.2005.11.020|10.1016/J.TET.2010.11.028|10.1016/S0031-9422(96)00747-9|10.1016/S0040-4039(01)94543-5|10.1016/j.bmcl.2011.06.010|10.1021/NP0680230|10.1021/NP0780093|10.1021/NP100395W|10.1021/NP50021A010|10.1021/NP9605394|10.1021/NP990199X|10.1021/np0680230|10.1021/np900522h|10.1021/np900640u|10.1021/np9605394|10.1248/CPB.38.1495|10.1515/ZNC-2011-5-607|10.2174/187152010794728620

>  <synonyms>  (385) 
(1S,3aS,4aR,4bR,6aR,10aS,10bR,12aS)-1-(Furan-3-yl)-4b,7,7,10a,12a-pentamethyl-6,6a,7,10a,10b,11,12,12a-octahydronaphtho[2,1-f]oxireno[2,3-d]isochromene-3,5,8(1H,3aH,4bH)-trione|1-(3-furyl)-4b,7,7,10a,12a-pentamethyl-1,6a,7,10a,10b,11,12,12a- octahydronaphtho[2,1-f]oxireno[2,3-d]isochromene-3,5,8(3aH,4bH,6H)-trione|7-Deacetoxy-7-Oxogedunin|7-Ketogedunin|7-oxo-Gedunin|CHEMBL452232

>  <cas>  (385) 
nan

$$$$

     RDKit          2D

 31 34  0  0  0  0  0  0  0  0999 V2000
   -7.5336    2.8357    0.0000 C   0  0  0  0  0  0  0  0  0  0  0  0
   -7.0792    1.4062    0.0000 C   0  0  0  0  0  0  0  0  0  0  0  0
   -5.6140    1.0850    0.0000 C   0  0  0  0  0  0  0  0  0  0  0  0
   -5.1596   -0.3445    0.0000 C   0  0  0  0  0  0  0  0  0  0  0  0
   -3.6944   -0.6658    0.0000 C   0  0  0  0  0  0  0  0  0  0  0  0
   -3.2400   -2.0953    0.0000 C   0  0  0  0  0  0  0  0  0  0  0  0
   -4.2508   -3.2036    0.0000 C   0  0  0  0  0  0  0  0  0  0  0  0
   -1.7748   -2.4165    0.0000 C   0  0  0  0  0  0  0  0  0  0  0  0
   -1.1735   -3.7907    0.0000 C   0  0  0  0  0  0  0  0  0  0  0  0
    0.3193   -3.6434    0.0000 C   0  0  0  0  0  0  0  0  0  0  0  0
    0.6405   -2.1782    0.0000 C   0  0  0  0  0  0  0  0  0  0  0  0
    1.9443   -1.4365    0.0000 C   0  0  0  0  0  0  0  0  0  0  0  0
    3.2385   -2.1948    0.0000 C   0  0  0  0  0  0  0  0  0  0  0  0
    4.5423   -1.4531    0.0000 C   0  0  0  0  0  0  0  0  0  0  0  0
    5.8366   -2.2114    0.0000 O   0  0  0  0  0  0  0  0  0  0  0  0
    4.5519    0.0469    0.0000 C   0  0  0  0  0  0  0  0  0  0  0  0
    5.8557    0.7885    0.0000 C   0  0  0  0  0  0  0  0  0  0  0  0
    5.8653    2.2885    0.0000 C   0  0  0  0  0  0  0  0  0  0  0  0
    7.1691    3.0302    0.0000 O   0  0  0  0  0  0  0  0  0  0  0  0
    4.5711    3.0468    0.0000 C   0  0  0  0  0  0  0  0  0  0  0  0
    3.2673    2.3051    0.0000 C   0  0  0  0  0  0  0  0  0  0  0  0
    3.2577    0.8051    0.0000 C   0  0  0  0  0  0  0  0  0  0  0  0
    1.9635    1.5634    0.0000 C   0  0  0  0  0  0  0  0  0  0  0  0
    1.9539    0.0634    0.0000 C   0  0  0  0  0  0  0  0  0  0  0  0
    0.6597    0.8217    0.0000 C   0  0  0  0  0  0  0  0  0  0  0  0
   -0.6441    0.0800    0.0000 C   0  0  0  0  0  0  0  0  0  0  0  0
   -0.6537   -1.4199    0.0000 C   0  0  0  0  0  0  0  0  0  0  0  0
   -2.0201   -0.8011    0.0000 C   0  0  0  0  0  0  0  0  0  0  0  0
   -4.6032    2.1933    0.0000 C   0  0  0  0  0  0  0  0  0  0  0  0
   -5.0576    3.6228    0.0000 C   0  0  0  0  0  0  0  0  0  0  0  0
   -3.1380    1.8720    0.0000 C   0  0  0  0  0  0  0  0  0  0  0  0
  1  2  1  0
  3  2  1  1
  3  4  1  0
  4  5  1  0
  5  6  1  0
  6  7  1  6
  6  8  1  0
  8  9  1  6
  9 10  1  0
 11 10  1  6
 11 12  1  0
 12 13  1  1
 13 14  1  0
 14 15  1  6
 14 16  1  0
 16 17  2  0
 17 18  1  0
 18 19  2  0
 18 20  1  0
 20 21  1  0
 21 22  1  0
 22 23  1  6
 22 24  1  0
 24 25  1  6
 25 26  1  0
 26 27  1  0
 27 28  1  6
  3 29  1  0
 29 30  1  0
 29 31  1  0
 27  8  1  0
 27 11  1  0
 24 12  1  0
 22 16  1  0
M  END
>  <identifier>  (386) 
CNP0369094.3

>  <canonical_smiles>  (386) 
CC[C@H](CC[C@@H](C)[C@H]1CC[C@H]2[C@@H]3C[C@@H](O)C4=CC(=O)CC[C@]4(C)[C@H]3CC[C@]12C)C(C)C

>  <standard_inchi>  (386) 
InChI=1S/C29H48O2/c1-7-20(18(2)3)9-8-19(4)23-10-11-24-22-17-27(31)26-16-21(30)12-14-29(26,6)25(22)13-15-28(23,24)5/h16,18-20,22-25,27,31H,7-15,17H2,1-6H3/t19-,20-,22+,23-,24+,25+,27-,28-,29-/m1/s1

>  <standard_inchi_key>  (386) 
IWNCBADONFSAAW-NFVQQQKOSA-N

>  <name>  (386) 
6beta-Hydroxystigmast-4-en-3-one

>  <iupac_name>  (386) 
(6~{R},8~{S},9~{S},10~{R},13~{R},14~{S},17~{R})-17-[(1~{R},4~{R})-4-ethyl-1,5-dimethyl-hexyl]-6-hydroxy-10,13-dimethyl-1,2,6,7,8,9,11,12,14,15,16,17-dodecahydrocyclopenta[a]phenanthren-3-one

>  <annotation_level>  (386) 
5

>  <total_atom_count>  (386) 
79

>  <heavy_atom_count>  (386) 
31

>  <molecular_weight>  (386) 
428.7

>  <exact_molecular_weight>  (386) 
428.36543

>  <molecular_formula>  (386) 
C29H48O2

>  <alogp>  (386) 
7.20

>  <topological_polar_surface_area>  (386) 
37.30

>  <rotatable_bond_count>  (386) 
6

>  <hydrogen_bond_acceptors>  (386) 
2

>  <hydrogen_bond_donors>  (386) 
1

>  <hydrogen_bond_acceptors_lipinski>  (386) 
2

>  <hydrogen_bond_donors_lipinski>  (386) 
1

>  <lipinski_rule_of_five_violations>  (386) 
1

>  <aromatic_rings_count>  (386) 
0

>  <qed_drug_likeliness>  (386) 
0.49

>  <formal_charge>  (386) 
0

>  <fractioncsp3>  (386) 
0.90

>  <number_of_minimal_rings>  (386) 
4

>  <van_der_walls_volume>  (386) 
448.50

>  <contains_sugar>  (386) 
False

>  <contains_ring_sugars>  (386) 
False

>  <contains_linear_sugars>  (386) 
False

>  <murcko_framework>  (386) 
C1=C2CCC3C(CCC4CCCC43)C2CCC1

>  <np_likeness>  (386) 
2.68

>  <chemical_class>  (386) 
Steroids and steroid derivatives

>  <chemical_sub_class>  (386) 
Stigmastanes and derivatives

>  <chemical_super_class>  (386) 
Lipids and lipid-like molecules

>  <direct_parent_classification>  (386) 
Stigmastanes and derivatives

>  <np_classifier_pathway>  (386) 
Terpenoids

>  <np_classifier_superclass>  (386) 
Steroids

>  <np_classifier_class>  (386) 
Stigmastane steroids

>  <np_classifier_is_glycoside>  (386) 
False

>  <organisms>  (386) 
Aaptos aaptos|Aconitum nevadense|Acorus calamus|Aeonium cuneatum|Aframomum cereum|Aframomum sceptrum|Ailanthus altissima|Albizia mollis|Alnus cordata|Aloe deltoideodonta|Alseodaphne corneri|Amomum sulcatum|Annona impressivenia|Antitrogus consanguineus|Arachniodes mutica|Aristolochia zollingeriana|Aspergillus duricaulis|Aspergillus unguis|Aulacocephalus temmincki|Austrobaileya scandens|Avena fatua|Azolla nilotica|Bacillus thuringiensis|Bactris plumeriana|Bauhinia purpurea|Beilschmiedia erythrophloia|Beilschmiedia tsangii|Berberis aquifolium|Bersama yangambiensis|Bistorta officinalis|Bosistoa floydii|Calodendrum capense|Cassia artemisioides|Castanopsis lamontii|Castanopsis sclerophylla|Centaurea dealbata|Centaurea napifolia|Chrysosporium queenslandicum|Conocephalum japonicum|Cordylanthus kingii|Cremanthodium discoideum|Crinipellis scabella|Crinum latifolium|Croton caudatus|Croton cumingii|Cymodocea nodosa|Cystophora scalaris|Diosma recurva|Diplopteraster multipes|Disynaphia halimifolia|Doodia picta|Dysosma pleiantha|Elaeocarpus fuscoides|Elmerrillia papuana|Eragrostis viscosa|Etlingera elatior|Eucalyptus hybr|Euglena longa|Eunicella cavolinii|Euphorbia jaxartica|Flavoparmelia caperata|Fleischmannia pratensis|Flueggea microcarpa|Forsteronia refracta|Fridericia chica|Garcinia linii|Gentiana lutea|Gentiana strictiflora|Glinus oppositifolius|Gmelina arborea|Goldfussia yunnanensis|Grewia mollis|Gymnocarpium robertianum|Haplopappus arbutoides|Hedysarum sachalinense|Helichrysum fulvum|Heliotropium floridum|Helminthosporium victoriae|Heterotheca grandiflora|Hornschuchia citriodora|Hovenia acerba|Hydnocarpus octandra|Hypericum prolificum|Illigera luzonensis|Inocybe aeruginascens|Isolona congolana|Isolona maitlandii|Ixora coccinea|Jacobaea adonidifolia|Jasione montana|Jatropha gossypiifolia|Juglans nigra|Jurinea maxima|Kaempferia marginata|Kaunia saltensis|Knema attenuata|Laurentia longiflora|Lechevalieria aerocolonigenes|Leitneria floridana|Lepraria citrina|Lepraria xanthina|Lithospermum canescens|Macaranga tanarius|Machilus odoratissima|Machilus zuihoensis|Magnolia compressa|Malva rotundifolia|Mangifera indica|Maytenus obtusifolia|Meconopsis horridula|Melia azedarach|Micromelum integerrimum|Muntingia calabura|Mycetia nutans|Naja naja|Narcissus concolor|Nauclea officinalis|Notholaena aschenborniana|Notonia grandiflora|Oncoba echinata|Ophiolepis superba|Ophiopholis aculeata|Osmanthus armatus|Oxera splendida|Papaver glaucum|Papilio phorcas|Parabenzoin trilobum|Patrinia rupestris|Penicillium crustaceum|Penstemon confertus|Pentaceraster regulus|Persicaria amphibia|Petrosia hebes|Phylica rogersii|Phyllanthus emblica|Pilocarpus grandiflorus|Piper sylvaticum|Plakortis lita|Polycephalomyces nipponicus|Pontederia africana|Pseudophryne coriacea|Psiadia anchusifolia|Purpura aperta|Quercus laurifolia|Rhinacanthus nasutus|Rhizopogon pumilionus|Rubrivivax gelatinosus|Ruta pinnata|Salvia divaricata|Salvia dorrii|Sarcophyton latum|Saussurea hieracioides|Saussurea superba|Schlumbergera truncata|Scolytus multistriatus|Semialarium mexicanum|Sideritis perfoliata|Sinomenium acutum|Sophora angustifolia|Sphacelaria arctica|Stevia polycephala|Stevia purpurea|Streptomyces globisporus|Streptomyces griseocarneus|Streptomyces kanamyceticus|Streptomyces parvisporogenes|Streptomyces sulfonofaciens|Streptomyces tateyamensis|Streptomyces xanthocidicus|Swartzia madagascariensis|Syphonota geographica|Takifugu rubripes|Tessaria dodoneaefolia|Teucrium depressum|Thermopsis mollis|Thymus piperella|Tornabea scutellifera|Trichilia connaroides|Trichilia rubescens|Veronica americana|Veronica anagallis|Veronica intercedens|Viscum multinerve|Vitex pinnata|Wolfiporia cocos|Xanthium sibiricum|Xanthium strumarium|Xylocarpus moluccensis|Zantedeschia aethiopica|Zanthoxylum chiloperone|Zingiber officinale|blue water-speedwell

>  <collections>  (386) 
ANPDB|Australian natural products|CMAUP (cCollective molecular activities of useful plants)|ChEBI NPs|Latin America dataset|NANPDB (Natural Products from Northern African Sources)|NPASS|NuBBEDB|Super Natural II|TIPdb (database of Taiwan indigenous plants)|WikiData Natural Products

>  <dois>  (386) 
10.1002/JCCS.199800016|10.1002/JCCS.200200042|10.1002/JCCS.200400035|10.1002/JCCS.200400100|10.1002/JCCS.200700064|10.1002/JCCS.200800190|10.1007/S10600-007-0091-4|10.1007/S10600-007-0193-Z|10.1007/S10600-010-9606-5|10.1007/S10600-010-9659-5|10.1016/0031-9422(73)80700-9|10.1016/0031-9422(75)83047-0|10.1016/0031-9422(76)85101-1|10.1016/0031-9422(95)00333-3|10.1016/0031-9422(95)00427-9|10.1016/J.BMCL.2010.10.058|10.1016/J.PHYTOCHEM.2004.03.007|10.1016/J.PHYTOCHEM.2010.12.015|10.1016/J.PHYTOL.2011.04.006|10.1016/J.STEROIDS.2005.09.004|10.1016/S0031-9422(97)01126-6|10.1016/S0031-9422(98)00092-2|10.1016/S0031-9422(98)00656-6|10.1016/j.fitote.2012.12.023|10.1016/s0031-9422(97)01126-6|10.1016/s0031-9422(98)00092-2|10.1021/NP040098L|10.1021/NP200279R|10.1021/NP800504W|10.1055/S-2000-8564|10.1055/S-2005-916220|10.1055/S-2005-916253|10.1071/C97195|10.1071/CH00100|10.1080/14786410802689713|10.1080/14786419.2010.539182|10.1515/ZNB-2005-0518|10.1515/ZNB-2005-0715|10.1515/znb-2005-0715

>  <synonyms>  (386) 
(1R,3aS,3bS,5R,9aR,9bS,11aR)-1-[(2R,5R)-5-ethyl-6-methylheptan-2-yl]-5-hydroxy-9a,11a-dimethyl-1H,2H,3H,3aH,3bH,4H,5H,8H,9H,9bH,10H,11H-cyclopenta[a]phenanthren-7-one|(24R)-6-Hydroxystigmast-4-en-3-one; 6-Hydroxy-4-stigmasten-3-one; 6-Hydroxysitostenone; 6-Hydroxystigmast-4-en-3-one|(24R)-6beta-hydroxy-24-ethyl-cholest-4-en-3-one|(6R,8S,9S,10R,13R,14S,17R)-17-[(1R,4R)-4-ethyl-1,5-dimethyl-hexyl]-6-hydroxy-10,13-dimethyl-1,2,6,7,8,9,11,12,14,15,16,17-dodecahydrocyclopenta[a]phenanthren-3-one|36450-02-9|6|6\u221a\u00e9\u00ac\u2264-hydroxy-stigmast-4-en-3-one|A-Hydroxystigmast-4-en-3-one|AKOS040761207|CHEBI:69321|DTXSID401307514|FS-9809|Q27137663|Stigmast-4-en-6-ol-3-one|Stigmast-4-ene-6.beta.-ol-3-one

>  <cas>  (386) 
36450-02-9

$$$$

     RDKit          2D

 25 28  0  0  0  0  0  0  0  0999 V2000
    3.7838   -3.1521    0.0000 C   0  0  0  0  0  0  0  0  0  0  0  0
    3.6262   -1.6604    0.0000 O   0  0  0  0  0  0  0  0  0  0  0  0
    2.2556   -1.0510    0.0000 C   0  0  0  0  0  0  0  0  0  0  0  0
    1.0426   -1.9334    0.0000 C   0  0  0  0  0  0  0  0  0  0  0  0
   -0.3281   -1.3240    0.0000 C   0  0  0  0  0  0  0  0  0  0  0  0
   -0.4857    0.1677    0.0000 C   0  0  0  0  0  0  0  0  0  0  0  0
    0.7274    1.0500    0.0000 C   0  0  0  0  0  0  0  0  0  0  0  0
    2.0980    0.4407    0.0000 C   0  0  0  0  0  0  0  0  0  0  0  0
    3.3111    1.3230    0.0000 O   0  0  0  0  0  0  0  0  0  0  0  0
    4.6817    0.7136    0.0000 C   0  0  0  0  0  0  0  0  0  0  0  0
   -1.8563    0.7771    0.0000 C   0  0  0  0  0  0  0  0  0  0  0  0
   -0.6056    1.1316    0.0000 C   0  0  0  0  0  0  0  0  0  0  0  0
   -0.0706    1.7264    0.0000 C   0  0  0  0  0  0  0  0  0  0  0  0
    2.0815    1.2702    0.0000 O   0  0  0  0  0  0  0  0  0  0  0  0
    3.0846    2.3854    0.0000 C   0  0  0  0  0  0  0  0  0  0  0  0
   -0.3182    2.4871    0.0000 C   0  0  0  0  0  0  0  0  0  0  0  0
   -1.1009    2.6530    0.0000 C   0  0  0  0  0  0  0  0  0  0  0  0
   -2.3206    2.2034    0.0000 C   0  0  0  0  0  0  0  0  0  0  0  0
   -3.8206    2.2026    0.0000 C   0  0  0  0  0  0  0  0  0  0  0  0
   -4.2834    0.7758    0.0000 C   0  0  0  0  0  0  0  0  0  0  0  0
   -3.0694   -0.1053    0.0000 N   0  0  0  0  0  0  0  0  0  0  0  0
   -2.9118   -1.5969    0.0000 C   0  0  0  0  0  0  0  0  0  0  0  0
   -1.5411   -2.2063    0.0000 C   0  0  0  0  0  0  0  0  0  0  0  0
   -1.3836   -3.6980    0.0000 O   0  0  0  0  0  0  0  0  0  0  0  0
   -2.5966   -4.5803    0.0000 C   0  0  0  0  0  0  0  0  0  0  0  0
  1  2  1  0
  2  3  1  0
  3  4  2  0
  4  5  1  0
  5  6  2  0
  6  7  1  0
  7  8  2  0
  8  9  1  0
  9 10  1  0
  6 11  1  0
 11 12  1  6
 12 13  1  0
 13 14  1  6
 14 15  1  0
 13 16  1  0
 16 17  2  0
 17 18  1  0
 18 19  2  0
 19 20  1  0
 20 21  1  0
 21 22  1  0
 22 23  1  0
 23 24  1  1
 24 25  1  0
  8  3  1  0
 18 11  1  0
 23  5  1  0
 21 11  1  0
M  END
>  <identifier>  (387) 
CNP0140945.1

>  <canonical_smiles>  (387) 
COC1=CC2=C(C=C1OC)[C@]13C[C@@H](OC)C=CC1=CCN3C[C@@H]2OC

>  <standard_inchi>  (387) 
InChI=1S/C20H25NO4/c1-22-14-6-5-13-7-8-21-12-19(25-4)15-9-17(23-2)18(24-3)10-16(15)20(13,21)11-14/h5-7,9-10,14,19H,8,11-12H2,1-4H3/t14-,19-,20-/m0/s1

>  <standard_inchi_key>  (387) 
IUMRZRWBQPPMSS-GKCIPKSASA-N

>  <name>  (387) 
Erythristemine

>  <iupac_name>  (387) 
(2~{R},9~{R},13~{b}~{S})-2,9,11,12-tetramethoxy-2,6,8,9-tetrahydro-1~{H}-indolo[7~{a},1-a]isoquinoline

>  <annotation_level>  (387) 
5

>  <total_atom_count>  (387) 
50

>  <heavy_atom_count>  (387) 
25

>  <molecular_weight>  (387) 
343.42

>  <exact_molecular_weight>  (387) 
343.17836

>  <molecular_formula>  (387) 
C20H25NO4

>  <alogp>  (387) 
2.82

>  <topological_polar_surface_area>  (387) 
40.16

>  <rotatable_bond_count>  (387) 
4

>  <hydrogen_bond_acceptors>  (387) 
5

>  <hydrogen_bond_donors>  (387) 
0

>  <hydrogen_bond_acceptors_lipinski>  (387) 
5

>  <hydrogen_bond_donors_lipinski>  (387) 
0

>  <lipinski_rule_of_five_violations>  (387) 
0

>  <aromatic_rings_count>  (387) 
1

>  <qed_drug_likeliness>  (387) 
0.84

>  <formal_charge>  (387) 
0

>  <fractioncsp3>  (387) 
0.50

>  <number_of_minimal_rings>  (387) 
4

>  <van_der_walls_volume>  (387) 
317.08

>  <contains_sugar>  (387) 
False

>  <contains_ring_sugars>  (387) 
False

>  <contains_linear_sugars>  (387) 
False

>  <murcko_framework>  (387) 
c1ccc2c(c1)CCN3CC=C4C=CCCC423

>  <np_likeness>  (387) 
2.48

>  <chemical_class>  (387) 
Erythrina alkaloids

>  <chemical_sub_class>  (387) 
Erythrinanes

>  <chemical_super_class>  (387) 
Alkaloids and derivatives

>  <direct_parent_classification>  (387) 
Erythrinanes

>  <np_classifier_pathway>  (387) 
Alkaloids

>  <np_classifier_superclass>  (387) 
Lysine alkaloids

>  <np_classifier_class>  (387) 
Indolizidine alkaloids

>  <np_classifier_is_glycoside>  (387) 
False

>  <organisms>  (387) 
Erythrina lysistemon|Erythrina mulungu

>  <collections>  (387) 
KNApSaCK|Latin America dataset|NuBBEDB|Super Natural II|WikiData Natural Products|ZINC NP

>  <dois>  (387) 
10.1016/J.PHYTOCHEM.2004.04.029|10.1021/NP50073A014|10.1139/V81-400|10.1139/v81-400

>  <synonyms>  (387) 
(2R,9R,13bS)-2,9,11,12-tetramethoxy-2,6,8,9-tetrahydro-1H-indolo[7a,1-a]isoquinoline|1H-Indolo[7a,1-a]isoquinoline, erythrinan deriv.; Erythristemin|28619-41-2|AKOS032962321|CS-0024348|Erythristemine|FS-9716|HY-N3858

>  <cas>  (387) 
28619-41-2

$$$$

     RDKit          2D

 16 17  0  0  0  0  0  0  0  0999 V2000
    5.9974    1.4219    0.0000 O   0  0  0  0  0  0  0  0  0  0  0  0
    5.7502   -0.0576    0.0000 C   0  0  0  0  0  0  0  0  0  0  0  0
    6.9079   -1.0113    0.0000 O   0  0  0  0  0  0  0  0  0  0  0  0
    4.3454   -0.5833    0.0000 C   0  0  0  0  0  0  0  0  0  0  0  0
    3.1877    0.3705    0.0000 C   0  0  0  0  0  0  0  0  0  0  0  0
    1.7828   -0.1552    0.0000 C   0  0  0  0  0  0  0  0  0  0  0  0
    0.6251    0.7985    0.0000 C   0  0  0  0  0  0  0  0  0  0  0  0
   -0.7798    0.2728    0.0000 C   0  0  0  0  0  0  0  0  0  0  0  0
   -1.0269   -1.2067    0.0000 C   0  0  0  0  0  0  0  0  0  0  0  0
   -2.4318   -1.7324    0.0000 C   0  0  0  0  0  0  0  0  0  0  0  0
   -3.5895   -0.7786    0.0000 C   0  0  0  0  0  0  0  0  0  0  0  0
   -5.0729   -1.0008    0.0000 O   0  0  0  0  0  0  0  0  0  0  0  0
   -5.7426    0.3414    0.0000 C   0  0  0  0  0  0  0  0  0  0  0  0
   -4.6731    1.3931    0.0000 O   0  0  0  0  0  0  0  0  0  0  0  0
   -3.3423    0.7009    0.0000 C   0  0  0  0  0  0  0  0  0  0  0  0
   -1.9375    1.2266    0.0000 C   0  0  0  0  0  0  0  0  0  0  0  0
  1  2  2  0
  2  3  1  0
  2  4  1  0
  4  5  2  0
  5  6  1  0
  6  7  2  0
  7  8  1  0
  8  9  2  0
  9 10  1  0
 10 11  2  0
 11 12  1  0
 12 13  1  0
 13 14  1  0
 14 15  1  0
 15 16  2  0
 16  8  1  0
 15 11  1  0
M  END
>  <identifier>  (388) 
CNP0229122.1

>  <canonical_smiles>  (388) 
O=C(O)/C=C/C=C/C1=CC=C2OCOC2=C1

>  <standard_inchi>  (388) 
InChI=1S/C12H10O4/c13-12(14)4-2-1-3-9-5-6-10-11(7-9)16-8-15-10/h1-7H,8H2,(H,13,14)/b3-1+,4-2+

>  <standard_inchi_key>  (388) 
RHBGITBPARBDPH-ZPUQHVIOSA-N

>  <name>  (388) 
nan

>  <iupac_name>  (388) 
nan

>  <annotation_level>  (388) 
0

>  <total_atom_count>  (388) 
26

>  <heavy_atom_count>  (388) 
16

>  <molecular_weight>  (388) 
218.21

>  <exact_molecular_weight>  (388) 
218.05791

>  <molecular_formula>  (388) 
C12H10O4

>  <alogp>  (388) 
2.07

>  <topological_polar_surface_area>  (388) 
55.76

>  <rotatable_bond_count>  (388) 
3

>  <hydrogen_bond_acceptors>  (388) 
3

>  <hydrogen_bond_donors>  (388) 
1

>  <hydrogen_bond_acceptors_lipinski>  (388) 
3

>  <hydrogen_bond_donors_lipinski>  (388) 
1

>  <lipinski_rule_of_five_violations>  (388) 
0

>  <aromatic_rings_count>  (388) 
1

>  <qed_drug_likeliness>  (388) 
0.62

>  <formal_charge>  (388) 
0

>  <fractioncsp3>  (388) 
0.08

>  <number_of_minimal_rings>  (388) 
2

>  <van_der_walls_volume>  (388) 
191.23

>  <contains_sugar>  (388) 
False

>  <contains_ring_sugars>  (388) 
False

>  <contains_linear_sugars>  (388) 
False

>  <murcko_framework>  (388) 
O1c2ccccc2OC1

>  <np_likeness>  (388) 
0.92

>  <chemical_class>  (388) 
nan

>  <chemical_sub_class>  (388) 
nan

>  <chemical_super_class>  (388) 
nan

>  <direct_parent_classification>  (388) 
nan

>  <np_classifier_pathway>  (388) 
Shikimates and Phenylpropanoids

>  <np_classifier_superclass>  (388) 
Phenylpropanoids (C6-C3)

>  <np_classifier_class>  (388) 
Cinnamic acids and derivatives

>  <np_classifier_is_glycoside>  (388) 
False

>  <organisms>  (388) 
Piper nigrum|Piper swartzianum|Piper tuberculatum

>  <collections>  (388) 
AnalytiCon Discovery NPs|ChemSpider NPs|HIM (Herbal Ingredients in-vivo Metabolism database)|Latin America dataset|NuBBEDB|Specs Natural Products|Super Natural II|WikiData Natural Products|ZINC NP

>  <dois>  (388) 
10.1007/S00044-008-9161-9|10.1007/s00044-008-9161-9|10.1021/JO040272A|10.1021/NP030475E

>  <synonyms>  (388) 
nan

>  <cas>  (388) 
136-72-1

$$$$

     RDKit          2D

 25 27  0  0  0  0  0  0  0  0999 V2000
   -4.1371    3.7923    0.0000 C   0  0  0  0  0  0  0  0  0  0  0  0
   -4.4212    2.3194    0.0000 O   0  0  0  0  0  0  0  0  0  0  0  0
   -3.2877    1.3369    0.0000 C   0  0  0  0  0  0  0  0  0  0  0  0
   -1.8701    1.8273    0.0000 C   0  0  0  0  0  0  0  0  0  0  0  0
   -0.7367    0.8448    0.0000 C   0  0  0  0  0  0  0  0  0  0  0  0
   -1.0208   -0.6280    0.0000 C   0  0  0  0  0  0  0  0  0  0  0  0
   -2.4384   -1.1184    0.0000 C   0  0  0  0  0  0  0  0  0  0  0  0
   -2.7225   -2.5912    0.0000 O   0  0  0  0  0  0  0  0  0  0  0  0
   -4.1401   -3.0816    0.0000 C   0  0  0  0  0  0  0  0  0  0  0  0
   -3.5718   -0.1359    0.0000 C   0  0  0  0  0  0  0  0  0  0  0  0
   -4.9894   -0.6263    0.0000 O   0  0  0  0  0  0  0  0  0  0  0  0
   -6.1229    0.3562    0.0000 C   0  0  0  0  0  0  0  0  0  0  0  0
    0.1127   -1.6105    0.0000 C   0  0  0  0  0  0  0  0  0  0  0  0
   -0.1714   -3.0833    0.0000 O   0  0  0  0  0  0  0  0  0  0  0  0
    1.5303   -1.1201    0.0000 C   0  0  0  0  0  0  0  0  0  0  0  0
    2.6637   -2.1026    0.0000 C   0  0  0  0  0  0  0  0  0  0  0  0
    4.0813   -1.6122    0.0000 C   0  0  0  0  0  0  0  0  0  0  0  0
    4.3654   -0.1394    0.0000 C   0  0  0  0  0  0  0  0  0  0  0  0
    5.7830    0.3510    0.0000 O   0  0  0  0  0  0  0  0  0  0  0  0
    6.9165   -0.6315    0.0000 C   0  0  0  0  0  0  0  0  0  0  0  0
    3.2320    0.8431    0.0000 C   0  0  0  0  0  0  0  0  0  0  0  0
    3.5161    2.3159    0.0000 O   0  0  0  0  0  0  0  0  0  0  0  0
    4.9337    2.8063    0.0000 C   0  0  0  0  0  0  0  0  0  0  0  0
    1.8144    0.3527    0.0000 C   0  0  0  0  0  0  0  0  0  0  0  0
    0.6809    1.3352    0.0000 N   0  0  0  0  0  0  0  0  0  0  0  0
  1  2  1  0
  2  3  1  0
  3  4  2  0
  4  5  1  0
  5  6  2  0
  6  7  1  0
  7  8  1  0
  8  9  1  0
  7 10  2  0
 10 11  1  0
 11 12  1  0
  6 13  1  0
 13 14  2  0
 13 15  1  0
 15 16  2  0
 16 17  1  0
 17 18  2  0
 18 19  1  0
 19 20  1  0
 18 21  1  0
 21 22  1  0
 22 23  1  0
 21 24  2  0
 24 25  1  0
 10  3  1  0
 24 15  1  0
 25  5  1  0
M  END
>  <identifier>  (389) 
CNP0080540.0

>  <canonical_smiles>  (389) 
COC1=CC2=C(C(OC)=C1OC)C(=O)C1=CC=C(OC)C(OC)=C1N2

>  <standard_inchi>  (389) 
InChI=1S/C18H19NO6/c1-21-11-7-6-9-14(16(11)23-3)19-10-8-12(22-2)17(24-4)18(25-5)13(10)15(9)20/h6-8H,1-5H3,(H,19,20)

>  <standard_inchi_key>  (389) 
CCYFNSHESGHUKB-UHFFFAOYSA-N

>  <name>  (389) 
Cusculine

>  <iupac_name>  (389) 
1,2,3,5,6-pentamethoxy-10~{H}-acridin-9-one

>  <annotation_level>  (389) 
5

>  <total_atom_count>  (389) 
44

>  <heavy_atom_count>  (389) 
25

>  <molecular_weight>  (389) 
345.35

>  <exact_molecular_weight>  (389) 
345.12124

>  <molecular_formula>  (389) 
C18H19NO6

>  <alogp>  (389) 
2.72

>  <topological_polar_surface_area>  (389) 
79.01

>  <rotatable_bond_count>  (389) 
5

>  <hydrogen_bond_acceptors>  (389) 
6

>  <hydrogen_bond_donors>  (389) 
1

>  <hydrogen_bond_acceptors_lipinski>  (389) 
6

>  <hydrogen_bond_donors_lipinski>  (389) 
1

>  <lipinski_rule_of_five_violations>  (389) 
0

>  <aromatic_rings_count>  (389) 
3

>  <qed_drug_likeliness>  (389) 
0.72

>  <formal_charge>  (389) 
0

>  <fractioncsp3>  (389) 
0.28

>  <number_of_minimal_rings>  (389) 
3

>  <van_der_walls_volume>  (389) 
nan

>  <contains_sugar>  (389) 
False

>  <contains_ring_sugars>  (389) 
False

>  <contains_linear_sugars>  (389) 
False

>  <murcko_framework>  (389) 
c1ccc2c(c1)Nc3ccccc3C2

>  <np_likeness>  (389) 
0.63

>  <chemical_class>  (389) 
Quinolines and derivatives

>  <chemical_sub_class>  (389) 
Benzoquinolines

>  <chemical_super_class>  (389) 
Organoheterocyclic compounds

>  <direct_parent_classification>  (389) 
Acridones

>  <np_classifier_pathway>  (389) 
Alkaloids

>  <np_classifier_superclass>  (389) 
Anthranilic acid alkaloids

>  <np_classifier_class>  (389) 
Acridone alkaloids

>  <np_classifier_is_glycoside>  (389) 
False

>  <organisms>  (389) 
Angostura paniculata|Conchocarpus paniculatus

>  <collections>  (389) 
Latin America dataset|NPASS|NuBBEDB|WikiData Natural Products

>  <dois>  (389) 
10.1021/NP50086A012|10.1021/np50086a012

>  <synonyms>  (389) 
CHEMBL516428|Cusculine, 12356-pentamethoxy-9-acridone

>  <cas>  (389) 
nan

$$$$

     RDKit          2D

 21 23  0  0  0  0  0  0  0  0999 V2000
    4.1491   -1.8991    0.0000 C   0  0  0  0  0  0  0  0  0  0  0  0
    4.4671   -0.4332    0.0000 C   0  0  0  0  0  0  0  0  0  0  0  0
    3.3566    0.5752    0.0000 C   0  0  0  0  0  0  0  0  0  0  0  0
    4.5424    1.4937    0.0000 C   0  0  0  0  0  0  0  0  0  0  0  0
    2.5564   -0.6936    0.0000 C   0  0  0  0  0  0  0  0  0  0  0  0
    1.0575   -0.6349    0.0000 C   0  0  0  0  0  0  0  0  0  0  0  0
    0.2574   -1.9037    0.0000 C   0  0  0  0  0  0  0  0  0  0  0  0
    0.9560   -3.2310    0.0000 O   0  0  0  0  0  0  0  0  0  0  0  0
   -1.2415   -1.8451    0.0000 C   0  0  0  0  0  0  0  0  0  0  0  0
   -1.9402   -0.5177    0.0000 C   0  0  0  0  0  0  0  0  0  0  0  0
   -3.4390   -0.4591    0.0000 C   0  0  0  0  0  0  0  0  0  0  0  0
   -4.8675   -0.9167    0.0000 C   0  0  0  0  0  0  0  0  0  0  0  0
   -3.2365   -1.9454    0.0000 C   0  0  0  0  0  0  0  0  0  0  0  0
   -4.1377    0.8682    0.0000 C   0  0  0  0  0  0  0  0  0  0  0  0
   -3.3375    2.1370    0.0000 C   0  0  0  0  0  0  0  0  0  0  0  0
   -1.8387    2.0784    0.0000 C   0  0  0  0  0  0  0  0  0  0  0  0
   -1.1400    0.7510    0.0000 C   0  0  0  0  0  0  0  0  0  0  0  0
   -0.3398    2.0198    0.0000 C   0  0  0  0  0  0  0  0  0  0  0  0
    0.3589    0.6924    0.0000 C   0  0  0  0  0  0  0  0  0  0  0  0
    1.1591    1.9611    0.0000 C   0  0  0  0  0  0  0  0  0  0  0  0
    2.6579    1.9025    0.0000 C   0  0  0  0  0  0  0  0  0  0  0  0
  1  2  2  0
  2  3  1  0
  3  4  1  1
  3  5  1  0
  5  6  2  0
  6  7  1  0
  7  8  2  0
  7  9  1  0
 10  9  1  1
 10 11  1  0
 11 12  1  0
 11 13  1  0
 11 14  1  0
 14 15  1  0
 15 16  1  0
 16 17  1  0
 17 18  1  1
 17 19  1  0
 19 20  1  0
 20 21  1  0
 21  3  1  0
 19  6  1  0
 17 10  1  0
M  END
>  <identifier>  (390) 
CNP0267486.2

>  <canonical_smiles>  (390) 
C=C[C@]1(C)C=C2C(=O)C[C@H]3C(C)(C)CCC[C@]3(C)C2CC1

>  <standard_inchi>  (390) 
InChI=1S/C20H30O/c1-6-19(4)11-8-15-14(13-19)16(21)12-17-18(2,3)9-7-10-20(15,17)5/h6,13,15,17H,1,7-12H2,2-5H3/t15?,17-,19-,20+/m0/s1

>  <standard_inchi_key>  (390) 
IOLISJPAURJPID-AMLMCXPASA-N

>  <name>  (390) 
nan

>  <iupac_name>  (390) 
(4~{a}~{S},7~{R},10~{a}~{S})-1,1,4~{a},7-tetramethyl-7-vinyl-2,3,4,4~{b},5,6,10,10~{a}-octahydrophenanthren-9-one

>  <annotation_level>  (390) 
3

>  <total_atom_count>  (390) 
51

>  <heavy_atom_count>  (390) 
21

>  <molecular_weight>  (390) 
286.46

>  <exact_molecular_weight>  (390) 
286.22967

>  <molecular_formula>  (390) 
C20H30O

>  <alogp>  (390) 
5.32

>  <topological_polar_surface_area>  (390) 
17.07

>  <rotatable_bond_count>  (390) 
1

>  <hydrogen_bond_acceptors>  (390) 
1

>  <hydrogen_bond_donors>  (390) 
0

>  <hydrogen_bond_acceptors_lipinski>  (390) 
1

>  <hydrogen_bond_donors_lipinski>  (390) 
0

>  <lipinski_rule_of_five_violations>  (390) 
1

>  <aromatic_rings_count>  (390) 
0

>  <qed_drug_likeliness>  (390) 
0.60

>  <formal_charge>  (390) 
0

>  <fractioncsp3>  (390) 
0.75

>  <number_of_minimal_rings>  (390) 
3

>  <van_der_walls_volume>  (390) 
nan

>  <contains_sugar>  (390) 
False

>  <contains_ring_sugars>  (390) 
False

>  <contains_linear_sugars>  (390) 
False

>  <murcko_framework>  (390) 
C1=C2CCC3CCCCC3C2CCC1

>  <np_likeness>  (390) 
3.28

>  <chemical_class>  (390) 
Prenol lipids

>  <chemical_sub_class>  (390) 
Diterpenoids

>  <chemical_super_class>  (390) 
Lipids and lipid-like molecules

>  <direct_parent_classification>  (390) 
Diterpenoids

>  <np_classifier_pathway>  (390) 
Terpenoids

>  <np_classifier_superclass>  (390) 
Diterpenoids

>  <np_classifier_class>  (390) 
Pimarane and Isopimarane diterpenoids

>  <np_classifier_is_glycoside>  (390) 
False

>  <organisms>  (390) 
Vellozia compacta

>  <collections>  (390) 
Latin America dataset|NuBBEDB|WikiData Natural Products

>  <dois>  (390) 
10.1016/S0031-9422(00)82735-1

>  <synonyms>  (390) 
nan

>  <cas>  (390) 
nan

$$$$

     RDKit          2D

 23 25  0  0  0  0  0  0  0  0999 V2000
   -1.6673   -2.4327    0.0000 C   0  0  0  0  0  0  0  0  0  0  0  0
   -0.3709   -1.6783    0.0000 C   0  0  0  0  0  0  0  0  0  0  0  0
    0.9307   -2.4238    0.0000 C   0  0  0  0  0  0  0  0  0  0  0  0
    2.2272   -1.6693    0.0000 C   0  0  0  0  0  0  0  0  0  0  0  0
    2.2220   -0.1693    0.0000 C   0  0  0  0  0  0  0  0  0  0  0  0
    3.5236   -0.9148    0.0000 C   0  0  0  0  0  0  0  0  0  0  0  0
    3.5184    0.5852    0.0000 C   0  0  0  0  0  0  0  0  0  0  0  0
    4.8201   -0.1603    0.0000 C   0  0  0  0  0  0  0  0  0  0  0  0
    4.8252   -1.6603    0.0000 O   0  0  0  0  0  0  0  0  0  0  0  0
    6.1165    0.5942    0.0000 O   0  0  0  0  0  0  0  0  0  0  0  0
    3.5133    2.0852    0.0000 C   0  0  0  0  0  0  0  0  0  0  0  0
    2.2116    2.8307    0.0000 C   0  0  0  0  0  0  0  0  0  0  0  0
    0.9152    2.0762    0.0000 C   0  0  0  0  0  0  0  0  0  0  0  0
    0.9204    0.5762    0.0000 C   0  0  0  0  0  0  0  0  0  0  0  0
   -0.3761   -0.1783    0.0000 C   0  0  0  0  0  0  0  0  0  0  0  0
   -0.8940    1.2295    0.0000 C   0  0  0  0  0  0  0  0  0  0  0  0
   -1.8524   -0.4438    0.0000 C   0  0  0  0  0  0  0  0  0  0  0  0
   -2.8205    0.7019    0.0000 C   0  0  0  0  0  0  0  0  0  0  0  0
   -4.2968    0.4363    0.0000 C   0  0  0  0  0  0  0  0  0  0  0  0
   -4.9497   -0.9141    0.0000 C   0  0  0  0  0  0  0  0  0  0  0  0
   -6.4358   -0.7105    0.0000 O   0  0  0  0  0  0  0  0  0  0  0  0
   -6.7014    0.7658    0.0000 C   0  0  0  0  0  0  0  0  0  0  0  0
   -5.3794    1.4746    0.0000 C   0  0  0  0  0  0  0  0  0  0  0  0
  2  1  1  6
  2  3  1  0
  3  4  1  0
  4  5  1  0
  5  6  1  6
  5  7  1  0
  7  8  1  0
  8  9  2  0
  8 10  1  0
  7 11  2  0
 11 12  1  0
 12 13  1  0
 14 13  1  6
 14 15  1  0
 15 16  1  6
 15 17  1  0
 17 18  1  0
 18 19  1  0
 19 20  2  0
 20 21  1  0
 21 22  1  0
 22 23  2  0
 15  2  1  0
 23 19  1  0
 14  5  1  0
M  END
>  <identifier>  (391) 
CNP0116350.2

>  <canonical_smiles>  (391) 
C[C@H]1CC[C@]2(C)C(C(=O)O)=CCC[C@H]2[C@]1(C)CCC1=COC=C1

>  <standard_inchi>  (391) 
InChI=1S/C20H28O3/c1-14-7-10-20(3)16(18(21)22)5-4-6-17(20)19(14,2)11-8-15-9-12-23-13-15/h5,9,12-14,17H,4,6-8,10-11H2,1-3H3,(H,21,22)/t14-,17-,19+,20+/m0/s1

>  <standard_inchi_key>  (391) 
HHWOKJDCJVESIF-GIPAHHNCSA-N

>  <name>  (391) 
Hardwickic acid

>  <iupac_name>  (391) 
(4~{a}~{S},5~{R},6~{S},8~{a}~{S})-5-[2-(3-furyl)ethyl]-5,6,8~{a}-trimethyl-3,4,4~{a},6,7,8-hexahydronaphthalene-1-carboxylic acid

>  <annotation_level>  (391) 
5

>  <total_atom_count>  (391) 
51

>  <heavy_atom_count>  (391) 
23

>  <molecular_weight>  (391) 
316.44

>  <exact_molecular_weight>  (391) 
316.20384

>  <molecular_formula>  (391) 
C20H28O3

>  <alogp>  (391) 
5.08

>  <topological_polar_surface_area>  (391) 
50.44

>  <rotatable_bond_count>  (391) 
4

>  <hydrogen_bond_acceptors>  (391) 
2

>  <hydrogen_bond_donors>  (391) 
1

>  <hydrogen_bond_acceptors_lipinski>  (391) 
2

>  <hydrogen_bond_donors_lipinski>  (391) 
1

>  <lipinski_rule_of_five_violations>  (391) 
1

>  <aromatic_rings_count>  (391) 
1

>  <qed_drug_likeliness>  (391) 
0.84

>  <formal_charge>  (391) 
0

>  <fractioncsp3>  (391) 
0.65

>  <number_of_minimal_rings>  (391) 
3

>  <van_der_walls_volume>  (391) 
309.72

>  <contains_sugar>  (391) 
False

>  <contains_ring_sugars>  (391) 
False

>  <contains_linear_sugars>  (391) 
False

>  <murcko_framework>  (391) 
o1ccc(c1)CCC2CCCC3C=CCCC32

>  <np_likeness>  (391) 
2.86

>  <chemical_class>  (391) 
Prenol lipids

>  <chemical_sub_class>  (391) 
Diterpenoids

>  <chemical_super_class>  (391) 
Lipids and lipid-like molecules

>  <direct_parent_classification>  (391) 
Colensane and clerodane diterpenoids

>  <np_classifier_pathway>  (391) 
Terpenoids

>  <np_classifier_superclass>  (391) 
Diterpenoids

>  <np_classifier_class>  (391) 
Colensane and Clerodane diterpenoids

>  <np_classifier_is_glycoside>  (391) 
False

>  <organisms>  (391) 
Casearia sylvestris|Centaurea rhaetica|Cervus nippon|Chrozophora oblongifolia|Copaifera officinalis|Croton oblongifolius|Croton sonderianus|Croton sylvaticus|Duranta Repens|Duranta erecta|Duranta repens|Eranthis hyemalis|Glycosmis mauritiana|Haemanthus kalbreyeri|Helianthus decapetalus|Jodina rhombifolia|Leucocoprinus birnbaumii|Pecten aurantiacus|Physeter catodon|Pseudogymnoascus pannorum|Sindora Siamensis|Sindora siamensis|Sindora sumatrana|Xanthium indicum

>  <collections>  (391) 
ANPDB|ChemSpider NPs|KNApSaCK|Latin America dataset|NANPDB (Natural Products from Northern African Sources)|NPASS|NuBBEDB|Super Natural II|TCMDB-Taiwan (Traditional Chinese Medicine database)|TIPdb (database of Taiwan indigenous plants)|VietHerb|WikiData Natural Products|ZINC NP

>  <dois>  (391) 
10.1016/0031-9422(89)80358-9|10.1016/J.CBI.2010.08.008|10.1016/J.PHYTOL.2011.02.004|10.1016/j.cbi.2010.08.008|10.1177/1934578X1501000403|10.1248/CPB.42.1202|10.1248/CPB.52.785

>  <synonyms>  (391) 
(+)-Hardwickiic acid|(4aS,5R,6S,8aS)-5-[2-(furan-3-yl)ethyl]-5,6,8a-trimethyl-3,4,4a,6,7,8-hexahydronaphthalene-1-carboxylic acid|1-Naphthalenecarboxylic acid, 5-(2-(3-furanyl)ethyl)-3,4,4a,5,6,7,8,8a-octahydro-5,6,8a-trimethyl-, (4aS-(4aalpha,5alpha,6beta,8abeta))-|24470-47-1|CHEMBL319344|Hardwickiic acid

>  <cas>  (391) 
24470-47-1

$$$$

     RDKit          2D

 26 29  0  0  0  0  0  0  0  0999 V2000
    3.6809   -4.0088    0.0000 C   0  0  0  0  0  0  0  0  0  0  0  0
    3.7333   -2.5097    0.0000 C   0  0  0  0  0  0  0  0  0  0  0  0
    2.4612   -1.7148    0.0000 C   0  0  0  0  0  0  0  0  0  0  0  0
    2.5135   -0.2158    0.0000 C   0  0  0  0  0  0  0  0  0  0  0  0
    3.8617   -0.8733    0.0000 C   0  0  0  0  0  0  0  0  0  0  0  0
    5.1053   -0.0345    0.0000 C   0  0  0  0  0  0  0  0  0  0  0  0
    5.0006    1.4618    0.0000 C   0  0  0  0  0  0  0  0  0  0  0  0
    3.6524    2.1194    0.0000 C   0  0  0  0  0  0  0  0  0  0  0  0
    3.5478    3.6157    0.0000 O   0  0  0  0  0  0  0  0  0  0  0  0
    2.4089    1.2806    0.0000 C   0  0  0  0  0  0  0  0  0  0  0  0
    2.1484    2.7578    0.0000 O   0  0  0  0  0  0  0  0  0  0  0  0
    0.9534    1.6435    0.0000 O   0  0  0  0  0  0  0  0  0  0  0  0
    0.1586    0.3714    0.0000 C   0  0  0  0  0  0  0  0  0  0  0  0
   -1.3378    0.2667    0.0000 C   0  0  0  0  0  0  0  0  0  0  0  0
   -1.9953   -1.0815    0.0000 C   0  0  0  0  0  0  0  0  0  0  0  0
   -3.4917   -1.1861    0.0000 C   0  0  0  0  0  0  0  0  0  0  0  0
   -4.1492   -2.5343    0.0000 O   0  0  0  0  0  0  0  0  0  0  0  0
   -3.3104   -3.7779    0.0000 C   0  0  0  0  0  0  0  0  0  0  0  0
   -4.3305    0.0574    0.0000 C   0  0  0  0  0  0  0  0  0  0  0  0
   -5.8159    0.2662    0.0000 O   0  0  0  0  0  0  0  0  0  0  0  0
   -6.0764    1.7434    0.0000 C   0  0  0  0  0  0  0  0  0  0  0  0
   -4.7519    2.4476    0.0000 O   0  0  0  0  0  0  0  0  0  0  0  0
   -3.6729    1.4056    0.0000 C   0  0  0  0  0  0  0  0  0  0  0  0
   -2.1766    1.5103    0.0000 C   0  0  0  0  0  0  0  0  0  0  0  0
    1.1228   -0.7777    0.0000 C   0  0  0  0  0  0  0  0  0  0  0  0
    0.7599   -2.2331    0.0000 C   0  0  0  0  0  0  0  0  0  0  0  0
  1  2  2  0
  2  3  1  0
  4  3  1  6
  4  5  1  0
  5  6  1  0
  6  7  2  0
  7  8  1  0
  8  9  2  0
  8 10  1  0
 10 11  1  1
 10 12  1  0
 12 13  1  0
 13 14  1  6
 14 15  2  0
 15 16  1  0
 16 17  1  0
 17 18  1  0
 16 19  2  0
 19 20  1  0
 20 21  1  0
 21 22  1  0
 22 23  1  0
 23 24  2  0
 13 25  1  0
 25 26  1  6
 10  4  1  0
 24 14  1  0
 25  4  1  0
 23 19  1  0
M  END
>  <identifier>  (392) 
CNP0175746.1

>  <canonical_smiles>  (392) 
C=CC[C@@]12CC=CC(=O)[C@@]1(O)O[C@@H](C1=CC(OC)=C3OCOC3=C1)[C@H]2C

>  <standard_inchi>  (392) 
InChI=1S/C20H22O6/c1-4-7-19-8-5-6-16(21)20(19,22)26-17(12(19)2)13-9-14(23-3)18-15(10-13)24-11-25-18/h4-6,9-10,12,17,22H,1,7-8,11H2,2-3H3/t12-,17-,19+,20-/m1/s1

>  <standard_inchi_key>  (392) 
HTUFIRVLLOKSRI-HINUTXJASA-N

>  <name>  (392) 
nan

>  <iupac_name>  (392) 
(2~{R},3~{S},3~{a}~{S},7~{a}~{S})-3~{a}-allyl-7~{a}-hydroxy-2-(7-methoxy-1,3-benzodioxol-5-yl)-3-methyl-3,4-dihydro-2~{H}-benzofuran-7-one

>  <annotation_level>  (392) 
4

>  <total_atom_count>  (392) 
48

>  <heavy_atom_count>  (392) 
26

>  <molecular_weight>  (392) 
358.39

>  <exact_molecular_weight>  (392) 
358.14164

>  <molecular_formula>  (392) 
C20H22O6

>  <alogp>  (392) 
2.91

>  <topological_polar_surface_area>  (392) 
74.22

>  <rotatable_bond_count>  (392) 
4

>  <hydrogen_bond_acceptors>  (392) 
6

>  <hydrogen_bond_donors>  (392) 
1

>  <hydrogen_bond_acceptors_lipinski>  (392) 
6

>  <hydrogen_bond_donors_lipinski>  (392) 
1

>  <lipinski_rule_of_five_violations>  (392) 
0

>  <aromatic_rings_count>  (392) 
1

>  <qed_drug_likeliness>  (392) 
0.83

>  <formal_charge>  (392) 
0

>  <fractioncsp3>  (392) 
0.45

>  <number_of_minimal_rings>  (392) 
4

>  <van_der_walls_volume>  (392) 
nan

>  <contains_sugar>  (392) 
False

>  <contains_ring_sugars>  (392) 
False

>  <contains_linear_sugars>  (392) 
False

>  <murcko_framework>  (392) 
O1c2ccc(cc2OC1)C3OC4CC=CCC4C3

>  <np_likeness>  (392) 
1.97

>  <chemical_class>  (392) 
Benzodioxoles

>  <chemical_sub_class>  (392) 
Benzodioxoles

>  <chemical_super_class>  (392) 
Organoheterocyclic compounds

>  <direct_parent_classification>  (392) 
Benzodioxoles

>  <np_classifier_pathway>  (392) 
Shikimates and Phenylpropanoids

>  <np_classifier_superclass>  (392) 
Lignans

>  <np_classifier_class>  (392) 
Neolignans

>  <np_classifier_is_glycoside>  (392) 
True

>  <organisms>  (392) 
Aniba ferrea

>  <collections>  (392) 
Latin America dataset|NuBBEDB|WikiData Natural Products

>  <dois>  (392) 
10.1016/0031-9422(80)83081-0

>  <synonyms>  (392) 
Ferrearin-A

>  <cas>  (392) 
nan

$$$$

     RDKit          2D

 33 37  0  0  0  0  0  0  0  0999 V2000
    8.0049    0.4896    0.0000 C   0  0  0  0  0  0  0  0  0  0  0  0
    7.0867   -0.6965    0.0000 C   0  0  0  0  0  0  0  0  0  0  0  0
    6.1684   -1.8826    0.0000 C   0  0  0  0  0  0  0  0  0  0  0  0
    8.2727   -1.6148    0.0000 O   0  0  0  0  0  0  0  0  0  0  0  0
    5.9006    0.2218    0.0000 C   0  0  0  0  0  0  0  0  0  0  0  0
    5.9463    1.7211    0.0000 C   0  0  0  0  0  0  0  0  0  0  0  0
    4.5345    2.2279    0.0000 C   0  0  0  0  0  0  0  0  0  0  0  0
    3.6163    1.0418    0.0000 C   0  0  0  0  0  0  0  0  0  0  0  0
    2.5327    2.0790    0.0000 C   0  0  0  0  0  0  0  0  0  0  0  0
    2.4715    0.0725    0.0000 C   0  0  0  0  0  0  0  0  0  0  0  0
    2.5827   -1.4233    0.0000 C   0  0  0  0  0  0  0  0  0  0  0  0
    1.1944   -1.9914    0.0000 C   0  0  0  0  0  0  0  0  0  0  0  0
    0.2252   -0.8466    0.0000 C   0  0  0  0  0  0  0  0  0  0  0  0
   -0.4264   -2.1977    0.0000 C   0  0  0  0  0  0  0  0  0  0  0  0
    1.0144    0.4290    0.0000 C   0  0  0  0  0  0  0  0  0  0  0  0
    0.3044    1.7503    0.0000 C   0  0  0  0  0  0  0  0  0  0  0  0
   -1.1949    1.7960    0.0000 C   0  0  0  0  0  0  0  0  0  0  0  0
   -1.9842    0.5204    0.0000 C   0  0  0  0  0  0  0  0  0  0  0  0
   -3.4835    0.5662    0.0000 C   0  0  0  0  0  0  0  0  0  0  0  0
   -2.6942    1.8417    0.0000 C   0  0  0  0  0  0  0  0  0  0  0  0
   -4.1935    1.8875    0.0000 C   0  0  0  0  0  0  0  0  0  0  0  0
   -5.6928    1.9332    0.0000 C   0  0  0  0  0  0  0  0  0  0  0  0
   -6.4821    0.6576    0.0000 C   0  0  0  0  0  0  0  0  0  0  0  0
   -7.9814    0.7034    0.0000 O   0  0  0  0  0  0  0  0  0  0  0  0
   -5.7720   -0.6637    0.0000 C   0  0  0  0  0  0  0  0  0  0  0  0
   -5.5567   -2.1481    0.0000 C   0  0  0  0  0  0  0  0  0  0  0  0
   -7.1966   -1.1335    0.0000 C   0  0  0  0  0  0  0  0  0  0  0  0
   -4.2727   -0.7094    0.0000 C   0  0  0  0  0  0  0  0  0  0  0  0
   -3.5627   -2.0307    0.0000 C   0  0  0  0  0  0  0  0  0  0  0  0
   -2.0634   -2.0764    0.0000 C   0  0  0  0  0  0  0  0  0  0  0  0
   -1.2741   -0.8009    0.0000 C   0  0  0  0  0  0  0  0  0  0  0  0
   -0.4849    0.4747    0.0000 C   0  0  0  0  0  0  0  0  0  0  0  0
    4.4605   -0.1981    0.0000 O   0  0  0  0  0  0  0  0  0  0  0  0
  1  2  1  0
  2  3  1  0
  2  4  1  0
  5  2  1  6
  5  6  1  0
  6  7  1  0
  7  8  1  0
  8  9  1  1
  8 10  1  0
 10 11  1  1
 11 12  1  0
 12 13  1  0
 13 14  1  6
 13 15  1  0
 15 16  1  6
 16 17  1  0
 18 17  1  1
 18 19  1  0
 19 20  1  1
 19 21  1  0
 21 22  1  0
 22 23  1  0
 23 24  2  0
 23 25  1  0
 25 26  1  0
 25 27  1  0
 25 28  1  0
 28 29  1  1
 29 30  1  0
 30 31  1  0
 31 32  1  1
  8 33  1  0
 33  5  1  0
 15 10  1  0
 31 18  1  0
 31 13  1  0
 28 19  1  0
M  END
>  <identifier>  (393) 
CNP0106049.3

>  <canonical_smiles>  (393) 
CC(C)(O)[C@H]1CC[C@@](C)([C@H]2CC[C@]3(C)[C@@H]2CC[C@@H]2[C@@]4(C)CCC(=O)C(C)(C)[C@@H]4CC[C@]23C)O1

>  <standard_inchi>  (393) 
InChI=1S/C30H50O3/c1-25(2)21-12-17-29(7)22(27(21,5)15-13-23(25)31)10-9-19-20(11-16-28(19,29)6)30(8)18-14-24(33-30)26(3,4)32/h19-22,24,32H,9-18H2,1-8H3/t19-,20+,21+,22-,24-,27+,28-,29-,30+/m1/s1

>  <standard_inchi_key>  (393) 
XSQYWMLMQVUWSF-KATWBKOUSA-N

>  <name>  (393) 
ocotillone

>  <iupac_name>  (393) 
(5~{R},8~{R},9~{R},10~{R},13~{R},14~{R},17~{S})-17-[(2~{S},5~{R})-5-(1-hydroxy-1-methyl-ethyl)-2-methyl-tetrahydrofuran-2-yl]-4,4,8,10,14-pentamethyl-1,2,5,6,7,9,11,12,13,15,16,17-dodecahydrocyclopenta[a]phenanthren-3-one

>  <annotation_level>  (393) 
5

>  <total_atom_count>  (393) 
83

>  <heavy_atom_count>  (393) 
33

>  <molecular_weight>  (393) 
458.73

>  <exact_molecular_weight>  (393) 
458.376

>  <molecular_formula>  (393) 
C30H50O3

>  <alogp>  (393) 
6.95

>  <topological_polar_surface_area>  (393) 
46.53

>  <rotatable_bond_count>  (393) 
2

>  <hydrogen_bond_acceptors>  (393) 
3

>  <hydrogen_bond_donors>  (393) 
1

>  <hydrogen_bond_acceptors_lipinski>  (393) 
3

>  <hydrogen_bond_donors_lipinski>  (393) 
1

>  <lipinski_rule_of_five_violations>  (393) 
1

>  <aromatic_rings_count>  (393) 
0

>  <qed_drug_likeliness>  (393) 
0.49

>  <formal_charge>  (393) 
0

>  <fractioncsp3>  (393) 
0.97

>  <number_of_minimal_rings>  (393) 
5

>  <van_der_walls_volume>  (393) 
464.34

>  <contains_sugar>  (393) 
False

>  <contains_ring_sugars>  (393) 
False

>  <contains_linear_sugars>  (393) 
False

>  <murcko_framework>  (393) 
O1CCCC1C2CCC3C2CCC4C5CCCCC5CCC43

>  <np_likeness>  (393) 
3.03

>  <chemical_class>  (393) 
Steroids and steroid derivatives

>  <chemical_sub_class>  (393) 
Oxosteroids

>  <chemical_super_class>  (393) 
Lipids and lipid-like molecules

>  <direct_parent_classification>  (393) 
Oxosteroids

>  <np_classifier_pathway>  (393) 
Terpenoids

>  <np_classifier_superclass>  (393) 
Triterpenoids

>  <np_classifier_class>  (393) 
Dammarane and Protostane triterpenoids

>  <np_classifier_is_glycoside>  (393) 
False

>  <organisms>  (393) 
Aglaia abbreviata|Aglaia elaeagnoidea|Aglaia foveolata|Aglaia leucophylla|Aglaia rubiginosa|Ailanthus altissima|Amoora rohituka|Amphipterygium adstringens|Baccharis minutiflora|Betula platyphylla|Betula platyphylla var. japonica|Cabralea canjerana|Dipterus hispidus|Dryanobulanops|Dryanobulanops spp.|Dryobalanops aromatica|Dysoxylum cauliflorum|Dysoxylum malabaricum|Forsythia suspensa|Forsythia suspense|Halimium halimifolium|Heliotropium olgae|Juliania adstringens|Sideritis flavovirens|Simarouba versicolor|Streptomyces halstedii|Tragopogon orientalis

>  <collections>  (393) 
Australian natural products|CMAUP (cCollective molecular activities of useful plants)|ChEBI NPs|Latin America dataset|NPASS|NuBBEDB|Super Natural II|TCMDB-Taiwan (Traditional Chinese Medicine database)|WikiData Natural Products

>  <dois>  (393) 
10.1002/CHIN.200438214|10.1016/J.PHYTOCHEM.2003.12.012|10.1016/S0031-9422(00)89542-4|10.1016/S0031-9422(00)89545-X|10.1016/S0040-4039(98)02657-4|10.1021/NP0304417|10.1021/NP0304417.S001|10.1021/NP060631S|10.1021/NP100599G|10.1021/np060631s|10.1021/np100599g|10.1080/10286029908039868|10.1515/ZNC-2011-5-607|10.1590/S0001-37652002000300004|10.2174/187152010794728620|10.5012/BKCS.2011.32.1.127

>  <synonyms>  (393) 
(24R)-20,24-Epoxy-25-hydroxy-5alpha-dammaran-3-one|(24R)-25-hydroxy-20,24-epoxydammaran-3-one|(5R,8R,9R,10R,13R,14R,17S)-17-[(2S,5R)-5-(2-hydroxypropan-2-yl)-2-methyloxolan-2-yl]-4,4,8,10,14-pentamethyl-1,2,5,6,7,9,11,12,13,15,16,17-dodecahydrocyclopenta[a]phenanthren-3-one|19865-86-2|22549-21-9|CHEBI:70271|CHEMBL224139|DTXSID701318405|FS-9615|Ocotillon-II|Ocotillone|Q27138611

>  <cas>  (393) 
19865-86-2|22549-21-9

$$$$

     RDKit          2D

 18 19  0  0  0  0  0  0  0  0999 V2000
   -5.1604   -2.4243    0.0000 O   0  0  0  0  0  0  0  0  0  0  0  0
   -4.7339   -0.9862    0.0000 C   0  0  0  0  0  0  0  0  0  0  0  0
   -5.7660    0.1022    0.0000 C   0  0  0  0  0  0  0  0  0  0  0  0
   -5.3394    1.5403    0.0000 C   0  0  0  0  0  0  0  0  0  0  0  0
   -3.8807    1.8899    0.0000 C   0  0  0  0  0  0  0  0  0  0  0  0
   -2.8486    0.8015    0.0000 C   0  0  0  0  0  0  0  0  0  0  0  0
   -1.3899    1.1511    0.0000 C   0  0  0  0  0  0  0  0  0  0  0  0
   -0.3578    0.0627    0.0000 C   0  0  0  0  0  0  0  0  0  0  0  0
   -0.7844   -1.3754    0.0000 O   0  0  0  0  0  0  0  0  0  0  0  0
    1.1009    0.4123    0.0000 C   0  0  0  0  0  0  0  0  0  0  0  0
    2.1330   -0.6762    0.0000 C   0  0  0  0  0  0  0  0  0  0  0  0
    3.5917   -0.3265    0.0000 C   0  0  0  0  0  0  0  0  0  0  0  0
    4.6238   -1.4150    0.0000 C   0  0  0  0  0  0  0  0  0  0  0  0
    6.0825   -1.0654    0.0000 C   0  0  0  0  0  0  0  0  0  0  0  0
    6.5091    0.3727    0.0000 C   0  0  0  0  0  0  0  0  0  0  0  0
    5.4769    1.4612    0.0000 C   0  0  0  0  0  0  0  0  0  0  0  0
    4.0183    1.1115    0.0000 C   0  0  0  0  0  0  0  0  0  0  0  0
   -3.2752   -0.6366    0.0000 O   0  0  0  0  0  0  0  0  0  0  0  0
  1  2  2  0
  2  3  1  0
  3  4  2  0
  4  5  1  0
  5  6  1  0
  6  7  1  6
  7  8  1  0
  8  9  1  1
  8 10  1  0
 10 11  2  0
 11 12  1  0
 12 13  2  0
 13 14  1  0
 14 15  2  0
 15 16  1  0
 16 17  2  0
  6 18  1  0
 18  2  1  0
 17 12  1  0
M  END
>  <identifier>  (394) 
CNP0182019.1

>  <canonical_smiles>  (394) 
O=C1C=CC[C@H](C[C@H](O)/C=C/C2=CC=CC=C2)O1

>  <standard_inchi>  (394) 
InChI=1S/C15H16O3/c16-13(10-9-12-5-2-1-3-6-12)11-14-7-4-8-15(17)18-14/h1-6,8-10,13-14,16H,7,11H2/b10-9+/t13-,14-/m1/s1

>  <standard_inchi_key>  (394) 
VKRJUPIDWSWXJZ-NPUYYSGSSA-N

>  <name>  (394) 
nan

>  <iupac_name>  (394) 
(2~{R})-2-[(~{E},2~{S})-2-hydroxy-4-phenyl-but-3-enyl]-2,3-dihydropyran-6-one

>  <annotation_level>  (394) 
5

>  <total_atom_count>  (394) 
34

>  <heavy_atom_count>  (394) 
18

>  <molecular_weight>  (394) 
244.29

>  <exact_molecular_weight>  (394) 
244.10994

>  <molecular_formula>  (394) 
C15H16O3

>  <alogp>  (394) 
2.32

>  <topological_polar_surface_area>  (394) 
46.53

>  <rotatable_bond_count>  (394) 
4

>  <hydrogen_bond_acceptors>  (394) 
3

>  <hydrogen_bond_donors>  (394) 
1

>  <hydrogen_bond_acceptors_lipinski>  (394) 
3

>  <hydrogen_bond_donors_lipinski>  (394) 
1

>  <lipinski_rule_of_five_violations>  (394) 
0

>  <aromatic_rings_count>  (394) 
1

>  <qed_drug_likeliness>  (394) 
0.83

>  <formal_charge>  (394) 
0

>  <fractioncsp3>  (394) 
0.27

>  <number_of_minimal_rings>  (394) 
2

>  <van_der_walls_volume>  (394) 
230.23

>  <contains_sugar>  (394) 
False

>  <contains_ring_sugars>  (394) 
False

>  <contains_linear_sugars>  (394) 
False

>  <murcko_framework>  (394) 
O1CC=CCC1CCC=Cc2ccccc2

>  <np_likeness>  (394) 
2.36

>  <chemical_class>  (394) 
Cinnamyl alcohols

>  <chemical_sub_class>  (394) 
Cinnamyl alcohols

>  <chemical_super_class>  (394) 
Phenylpropanoids and polyketides

>  <direct_parent_classification>  (394) 
Cinnamyl alcohols

>  <np_classifier_pathway>  (394) 
Shikimates and Phenylpropanoids

>  <np_classifier_superclass>  (394) 
Styrylpyrones

>  <np_classifier_class>  (394) 
Kavalactones and derivatives

>  <np_classifier_is_glycoside>  (394) 
False

>  <organisms>  (394) 
Cryptocarya mandioccana

>  <collections>  (394) 
ChemSpider NPs|Latin America dataset|NuBBEDB|Super Natural II|WikiData Natural Products|ZINC NP

>  <dois>  (394) 
10.1002/pca.818|10.1365/S10337-009-1338-Y

>  <synonyms>  (394) 
Deacetylcryptocaryalactone

>  <cas>  (394) 
nan

$$$$

     RDKit          2D

 15 15  0  0  0  0  0  0  0  0999 V2000
   -4.1199    0.6761    0.0000 C   0  0  0  0  0  0  0  0  0  0  0  0
   -3.0909   -0.4152    0.0000 C   0  0  0  0  0  0  0  0  0  0  0  0
   -3.5216   -1.8521    0.0000 C   0  0  0  0  0  0  0  0  0  0  0  0
   -1.6312   -0.0698    0.0000 C   0  0  0  0  0  0  0  0  0  0  0  0
   -1.5087    1.4252    0.0000 C   0  0  0  0  0  0  0  0  0  0  0  0
   -0.5309    2.5627    0.0000 C   0  0  0  0  0  0  0  0  0  0  0  0
    0.8531    1.9842    0.0000 C   0  0  0  0  0  0  0  0  0  0  0  0
    0.7306    0.4892    0.0000 C   0  0  0  0  0  0  0  0  0  0  0  0
    2.3128    2.3296    0.0000 C   0  0  0  0  0  0  0  0  0  0  0  0
    3.0924    1.0481    0.0000 C   0  0  0  0  0  0  0  0  0  0  0  0
    2.9699   -0.4468    0.0000 C   0  0  0  0  0  0  0  0  0  0  0  0
    1.9920   -1.5843    0.0000 C   0  0  0  0  0  0  0  0  0  0  0  0
    2.7716   -2.8658    0.0000 C   0  0  0  0  0  0  0  0  0  0  0  0
    0.5324   -1.9298    0.0000 C   0  0  0  0  0  0  0  0  0  0  0  0
   -0.8516   -1.3513    0.0000 C   0  0  0  0  0  0  0  0  0  0  0  0
  1  2  1  0
  2  3  1  0
  2  4  2  0
  4  5  1  0
  5  6  1  0
  6  7  2  0
  7  8  1  0
  7  9  1  0
  9 10  1  0
 10 11  1  0
 11 12  2  0
 12 13  1  0
 12 14  1  0
 14 15  1  0
 15  4  1  0
M  END
>  <identifier>  (395) 
CNP0176906.1

>  <canonical_smiles>  (395) 
CC(C)=C1C/C=C(\C)CC/C=C(/C)CC1

>  <standard_inchi>  (395) 
InChI=1S/C15H24/c1-12(2)15-10-8-13(3)6-5-7-14(4)9-11-15/h6,9H,5,7-8,10-11H2,1-4H3/b13-6-,14-9+

>  <standard_inchi_key>  (395) 
GXEGJTGWYVZSNR-LBJJKJHXSA-N

>  <name>  (395) 
(1Z,4E)-germacrene B

>  <iupac_name>  (395) 
(1Z,5E)-1,5-dimethyl-8-propan-2-ylidenecyclodeca-1,5-diene

>  <annotation_level>  (395) 
0

>  <total_atom_count>  (395) 
39

>  <heavy_atom_count>  (395) 
15

>  <molecular_weight>  (395) 
204.36

>  <exact_molecular_weight>  (395) 
204.1878

>  <molecular_formula>  (395) 
C15H24

>  <alogp>  (395) 
5.18

>  <topological_polar_surface_area>  (395) 
0.00

>  <rotatable_bond_count>  (395) 
0

>  <hydrogen_bond_acceptors>  (395) 
0

>  <hydrogen_bond_donors>  (395) 
0

>  <hydrogen_bond_acceptors_lipinski>  (395) 
0

>  <hydrogen_bond_donors_lipinski>  (395) 
0

>  <lipinski_rule_of_five_violations>  (395) 
1

>  <aromatic_rings_count>  (395) 
0

>  <qed_drug_likeliness>  (395) 
0.48

>  <formal_charge>  (395) 
0

>  <fractioncsp3>  (395) 
0.60

>  <number_of_minimal_rings>  (395) 
1

>  <van_der_walls_volume>  (395) 
229.12

>  <contains_sugar>  (395) 
False

>  <contains_ring_sugars>  (395) 
False

>  <contains_linear_sugars>  (395) 
False

>  <murcko_framework>  (395) 
C1=CCCCCC=CCC1

>  <np_likeness>  (395) 
2.37

>  <chemical_class>  (395) 
nan

>  <chemical_sub_class>  (395) 
nan

>  <chemical_super_class>  (395) 
nan

>  <direct_parent_classification>  (395) 
nan

>  <np_classifier_pathway>  (395) 
Terpenoids

>  <np_classifier_superclass>  (395) 
Sesquiterpenoids

>  <np_classifier_class>  (395) 
Germacrane sesquiterpenoids

>  <np_classifier_is_glycoside>  (395) 
False

>  <organisms>  (395) 
Acorus calamus|Actinomadura pelletieri|African blue basil|Agastache rugosa|Aguacate|Ajuga chamaepitys|Aniba puchury-minor|Apostichopus japonicus|Aristolochia elegans|Aristolochia littoralis|Artemisia annua L.|Artemisia apiacea|Artemisia capillaris|Arum maculatum|Asarum caulescens|Aspergillus candidus|Asterolasia squamuligera|Atalantia buxifolia|Atractylodes chinensis|Atractylodes lancea|Bactrocera kraussi|Beilschmiedia pendula|Bitter bush|Buellia canescens|Callicarpa japonica|Cassia renigera|Catharanthus roseus|Cedrela odorata|Chamaemelum nobile|Chamomilla recutita|Chrysanthemum zawadskii|Cinnamomum camphora|Cinnamomum tenuifolium|Cistus creticus|Citrus grandis|Citrus junos|Citrus maxima|Citrus reticulata|Citrus sunki|Citrus unshiu|Citrus × deliciosa|Clausena excavata|Cnidium officinale|Commiphora kataf|Commiphora myrrha|Commiphora sphaerocarpa|Conioselinum anthriscoides|Croton argyrophyllus|Croton conduplicatus|Croton essequiboensis|Croton grewioides|Croton jacobinensis|Croton jimenezii|Croton micans|Croton nepetifolius|Croton ovalifolius|Croton sonderianus|Croton tricolor|Croton zehntneri|Cunila fasciculata|Cunila microcephala|Curcuma Aeruginosa|Curcuma Aromatica|Curcuma aeruginosa|Curcuma aromatica|Curcuma kwangsiensis|Curcuma longa|Curcuma phaeocaulis|Curcuma wenyujin|Curcuma zedoaria|Cymbopogon martinii|Cyperus Rotundus|Cyperus rotundus|Cyperus rotundus L.|Dacryodes normandii|Daucus carota|Entandrophragma cylindricum|Eugenia uniflora|Euphausia pacifica|Glehnia littoralis|Guatteriopsis blepharophylla|Gynoxys buxifolia|Hedychium coronarium|Hedyosmum bonplandianum|Hedyosmum mexicanum|Heteroplexis microcephala|Humulus lupulus|Hyptis suaveolens|Jaspis stellifera|Juniperus communis|Kumquat|Lepidozia reptans|Lepidozia vitrea|Ligusticum chuanxiong|Ligusticum sinense|Ligusticum striatum|Lindera aggregata|Lindera strichnifolia|Lippia dulcis|Mallotus rhamnifolius|Mangifera indica|Marchantia quadrata|Matricaria chamomilla|Melissa officinalis|Mentha arvensis|Mentha canadensis|Mentha pulegium|Microsphaeropsis olivacea|Mikania banisteriae|Mikania congesta|Mikania cordifolia|Mikania parviflora|Monodora tenuifolia|Moringa oleifera|Mulguraea tridens|Murraya exotica|Murraya paniculata|Ocotea gomezii|Origanum vulgare|Panax ginseng|Pelargonium endlicherianum|Perilla frutescens|Persea tolimanensis|Petasites albus|Petasites hybridus|Petriella guttulata|Peucedanum zenkeri|Phyllobates aurotaenia|Piper fimbriulatum|Piper nigrum|Pluchea dioscoridis|Pogostemon cablin|Porophyllum angustissimum|Prangos heyniae|Prangos uechtritzii|Preissia quadrata|Protium heptaphyllum|Psidium guajava|Pyrola rotundifolia|Riccia fluitans|Salvia absconditiflora|Salvia atropatana|Salvia nemorosa|Salvia pomifera|Salvia syriaca|Salvia virgata|Salvia × sylvestris|Santolina chamaecyparissus|Scaligeria lazica|Sideritis tragoriganum|Siparuna thecaphora|Smallanthus maculatus|Solidago canadensis|Spiranthera odoratissima|Stevia achalensis|Stevia alpina|Stoeba extensa|Streptomyces violaceochromogenes|Strophanthus eminii|Syzygium aromaticum|Tagetes minuta|Teucrium bidentatum|Teucrium sandrasicum|Thymus longicaulis|Trifoliate orange|Valeriana officinalis|Vitex agnus-castus|Zanthoxylum bungeanum|Zanthoxylum piperitum|Zanthoxylum schinifolium|Zea mays|Zingiber officinale|Zinnia elegans|Zinnia violacea|bellis perennis|pomelo|potato

>  <collections>  (395) 
ANPDB|CMAUP (cCollective molecular activities of useful plants)|ChEBI NPs|FooDB|KNApSaCK|Latin America dataset|NANPDB (Natural Products from Northern African Sources)|NAPRORE-CR|NPASS|NPDBEjeCol|NPEdia|NuBBEDB|Super Natural II|TCMDB-Taiwan (Traditional Chinese Medicine database)|UEFS (Natural Products Databse of the UEFS)|VietHerb|WikiData Natural Products

>  <dois>  (395) 
10.1002/(SICI)1097-0231(199608)10:11<1345::AID-RCM631>3.0.CO;2-4|10.1002/(SICI)1099-1026(199901/02)14:1<45::AID-FFJ774>3.0.CO;2-S|10.1002/(SICI)1099-1026(199907/08)14:4<230::AID-FFJ816>3.0.CO;2-L|10.1002/(SICI)1099-1026(200001/02)15:1<47::AID-FFJ869>3.0.CO;2-9|10.1002/1099-1026(200005/06)15:3<144::AID-FFJ882>3.0.CO;2-C|10.1002/1099-1026(200005/06)15:3<201::AID-FFJ893>3.0.CO;2-I|10.1002/CBDV.201800531|10.1002/FFJ.2730030406|10.1002/FFJ.2730070608|10.1002/RCM.1290091307|10.1007/BF02269705|10.1007/S10068-015-0261-2|10.1007/S10886-013-0311-2|10.1016/0031-9422(83)85053-5|10.1016/0031-9422(95)00183-8|10.1016/0031-9422(95)00543-G|10.1016/0031-9422(96)00354-8|10.1016/0305-1978(95)00026-Q|10.1016/J.FOODCHEM.2008.09.107|10.1016/J.JPBA.2007.01.024|10.1016/J.PHYTOCHEM.2009.06.013|10.1016/J.PHYTOL.2014.03.007|10.1016/S0031-9422(00)80558-0|10.1016/S0031-9422(00)85970-1|10.1016/S0031-9422(01)00018-8|10.1016/S0031-9422(01)00322-3|10.1016/S0031-9422(02)00207-8|10.1016/S0031-9422(96)00482-7|10.1016/S0031-9422(96)00691-7|10.1016/S0031-9422(96)00726-1|10.1016/S0031-9422(97)00172-6|10.1016/S0031-9422(97)00400-7|10.1016/S0031-9422(97)00762-0|10.1016/S0045-6535(99)00015-6|10.1016/S0305-1978(03)00039-5|10.1016/S0308-8146(03)00014-1|10.1016/S0367-326X(01)00367-7|10.1021/JF00035A029|10.1021/JF00073A015|10.1021/JF00118A056|10.1021/JF0402633|10.1021/JO040272A|10.1021/NP030475E|10.1021/NP50017A019|10.1021/NP50048A037|10.1021/NP50121A011|10.1021/NP900213W|10.1055/S-0028-1097540|10.1055/S-2000-8627|10.1055/S-2000-9780|10.1055/S-2006-957640|10.1055/S-2006-957814|10.1055/S-2006-959673|10.1055/S-2006-959674|10.1055/S-2006-960128|10.1055/S-2006-960872|10.1080/0972060X.2013.813219|10.1080/10412905.1992.9698032|10.1080/10412905.1992.9698069|10.1080/10412905.1993.9698237|10.1080/10412905.1993.9698261|10.1080/10412905.1994.9698337|10.1080/10412905.1994.9698359|10.1080/10412905.1994.9698400|10.1080/10412905.1994.9699348|10.1080/10412905.1995.9698468|10.1080/10412905.1995.9698479|10.1080/10412905.1995.9698581|10.1080/10412905.1997.9700774|10.1080/10412905.1998.9700962|10.1080/10412905.1998.9700992|10.1080/10412905.1999.9701102|10.1080/10412905.1999.9701111|10.1080/10412905.1999.9712006|10.1080/10412905.2000.9699552|10.1080/10412905.2000.9712162|10.1080/10412905.2000.9712167|10.1080/10412905.2002.9699883|10.1080/10412905.2003.9698598|10.1080/10412905.2004.9698740|10.1080/10412905.2010.9700320|10.1080/10412905.2010.9700338|10.1080/10412905.2013.796498|10.1248/YAKUSHI1947.94.12_1574|10.1590/S0103-50532000000600012|10.1590/S0103-50532010000500012|10.1590/S0103-50532011000400018|10.17678/BEUSCITECH.348447|10.3390/MOLECULES14082909|10.3390/MOLECULES21060814|10.3390/MOLECULES24234244

>  <synonyms>  (395) 
|(1Z,4E)-germacra-1(10),4,7(11)-triene|(1Z,4E)-germacra-1(10),4,7(11)-triene (1Z,5E)-1,5-dimethyl-8-(propan-2-ylidene)cyclodeca-1,5-diene|(1Z,4E)-germacrene B|(1Z,5E)-1,5-dimethyl-8-(propan-2-ylidene)cyclodeca-1,5-diene|(1Z,5E)-1,5-dimethyl-8-propan-2-ylidenecyclodeca-1,5-diene|(1Z,5E)-8-isopropylidene-1,5-dimethylcyclodeca-1,5-diene|(E,E)-Germacra-1(10),4,7(11)-triene; (1E,5E)-1,5-Dimethyl-8-(1-methylethylidene)-1,5-cyclodecadiene; Germacra-1(10),4,7(11)-triene|CHEBI:49693|LMPR0103090012|Q27121631|RefChem:68467

>  <cas>  (395) 
nan

$$$$

     RDKit          2D

 18 18  0  0  0  0  0  0  0  0999 V2000
    3.8794   -3.4939    0.0000 C   0  0  0  0  0  0  0  0  0  0  0  0
    2.6981   -2.5695    0.0000 O   0  0  0  0  0  0  0  0  0  0  0  0
    2.9080   -1.0842    0.0000 C   0  0  0  0  0  0  0  0  0  0  0  0
    4.2992   -0.5234    0.0000 O   0  0  0  0  0  0  0  0  0  0  0  0
    1.7267   -0.1599    0.0000 C   0  0  0  0  0  0  0  0  0  0  0  0
    0.3355   -0.7207    0.0000 C   0  0  0  0  0  0  0  0  0  0  0  0
   -0.8458    0.2037    0.0000 C   0  0  0  0  0  0  0  0  0  0  0  0
   -2.2370   -0.3572    0.0000 C   0  0  0  0  0  0  0  0  0  0  0  0
   -2.4469   -1.8424    0.0000 O   0  0  0  0  0  0  0  0  0  0  0  0
   -3.4184    0.5672    0.0000 C   0  0  0  0  0  0  0  0  0  0  0  0
   -4.8096    0.0064    0.0000 C   0  0  0  0  0  0  0  0  0  0  0  0
   -5.9909    0.9308    0.0000 C   0  0  0  0  0  0  0  0  0  0  0  0
   -5.0195   -1.4788    0.0000 C   0  0  0  0  0  0  0  0  0  0  0  0
   -0.6360    1.6889    0.0000 C   0  0  0  0  0  0  0  0  0  0  0  0
    0.7553    2.2498    0.0000 C   0  0  0  0  0  0  0  0  0  0  0  0
    1.9366    1.3254    0.0000 C   0  0  0  0  0  0  0  0  0  0  0  0
    3.3278    1.8862    0.0000 O   0  0  0  0  0  0  0  0  0  0  0  0
    3.5377    3.3715    0.0000 C   0  0  0  0  0  0  0  0  0  0  0  0
  1  2  1  0
  2  3  1  0
  3  4  2  0
  3  5  1  0
  5  6  2  0
  6  7  1  0
  7  8  1  0
  8  9  2  0
  8 10  1  0
 10 11  2  0
 11 12  1  0
 11 13  1  0
  7 14  2  0
 14 15  1  0
 15 16  2  0
 16 17  1  0
 17 18  1  0
 16  5  1  0
M  END
>  <identifier>  (396) 
CNP0131475.0

>  <canonical_smiles>  (396) 
COC(=O)C1=CC(C(=O)C=C(C)C)=CC=C1OC

>  <standard_inchi>  (396) 
InChI=1S/C14H16O4/c1-9(2)7-12(15)10-5-6-13(17-3)11(8-10)14(16)18-4/h5-8H,1-4H3

>  <standard_inchi_key>  (396) 
PHPCTTJFNKISSP-UHFFFAOYSA-N

>  <name>  (396) 
aduncumene

>  <iupac_name>  (396) 
methyl 2-methoxy-5-(3-methylbut-2-enoyl)benzoate

>  <annotation_level>  (396) 
5

>  <total_atom_count>  (396) 
34

>  <heavy_atom_count>  (396) 
18

>  <molecular_weight>  (396) 
248.28

>  <exact_molecular_weight>  (396) 
248.10486

>  <molecular_formula>  (396) 
C14H16O4

>  <alogp>  (396) 
2.63

>  <topological_polar_surface_area>  (396) 
52.60

>  <rotatable_bond_count>  (396) 
4

>  <hydrogen_bond_acceptors>  (396) 
4

>  <hydrogen_bond_donors>  (396) 
0

>  <hydrogen_bond_acceptors_lipinski>  (396) 
4

>  <hydrogen_bond_donors_lipinski>  (396) 
0

>  <lipinski_rule_of_five_violations>  (396) 
0

>  <aromatic_rings_count>  (396) 
1

>  <qed_drug_likeliness>  (396) 
0.47

>  <formal_charge>  (396) 
0

>  <fractioncsp3>  (396) 
0.29

>  <number_of_minimal_rings>  (396) 
1

>  <van_der_walls_volume>  (396) 
233.11

>  <contains_sugar>  (396) 
False

>  <contains_ring_sugars>  (396) 
False

>  <contains_linear_sugars>  (396) 
False

>  <murcko_framework>  (396) 
c1ccccc1

>  <np_likeness>  (396) 
0.25

>  <chemical_class>  (396) 
Benzene and substituted derivatives

>  <chemical_sub_class>  (396) 
Benzoic acids and derivatives

>  <chemical_super_class>  (396) 
Benzenoids

>  <direct_parent_classification>  (396) 
O-methoxybenzoic acids and derivatives

>  <np_classifier_pathway>  (396) 
Shikimates and Phenylpropanoids

>  <np_classifier_superclass>  (396) 
Phenolic acids (C6-C1)

>  <np_classifier_class>  (396) 
nan

>  <np_classifier_is_glycoside>  (396) 
False

>  <organisms>  (396) 
Piper crassinervium|piper sp.

>  <collections>  (396) 
ChemSpider NPs|Latin America dataset|NPASS|NuBBEDB|Super Natural II|UNPD (Universal Natural Products Database)|WikiData Natural Products|ZINC NP

>  <dois>  (396) 
10.1021/NP030530J|10.1021/np030530j

>  <synonyms>  (396) 
Aduncumene, Methyl 2-methoxy-5-(3'-methyl-1'-oxo-2'-butenyl)benzoate|CHEMBL502404|Methyl 2-methoxy-5-(3-methylbut-2-enoyl)benzoate|SCHEMBL19212101

>  <cas>  (396) 
nan

$$$$

     RDKit          2D

 25 29  0  0  0  0  0  0  0  0999 V2000
    1.6317    2.8668    0.0000 C   0  0  0  0  0  0  0  0  0  0  0  0
    0.7500    1.6533    0.0000 C   0  0  0  0  0  0  0  0  0  0  0  0
   -0.7500    1.6533    0.0000 C   0  0  0  0  0  0  0  0  0  0  0  0
   -1.6317    2.8668    0.0000 C   0  0  0  0  0  0  0  0  0  0  0  0
   -1.2135    0.2267    0.0000 C   0  0  0  0  0  0  0  0  0  0  0  0
   -2.6401   -0.2368    0.0000 C   0  0  0  0  0  0  0  0  0  0  0  0
   -2.9520   -1.7040    0.0000 C   0  0  0  0  0  0  0  0  0  0  0  0
   -4.3786   -2.1675    0.0000 C   0  0  0  0  0  0  0  0  0  0  0  0
   -5.4933   -1.1638    0.0000 C   0  0  0  0  0  0  0  0  0  0  0  0
   -6.9851   -1.3206    0.0000 O   0  0  0  0  0  0  0  0  0  0  0  0
   -7.5952    0.0497    0.0000 C   0  0  0  0  0  0  0  0  0  0  0  0
   -6.4805    1.0534    0.0000 O   0  0  0  0  0  0  0  0  0  0  0  0
   -5.1814    0.3034    0.0000 C   0  0  0  0  0  0  0  0  0  0  0  0
   -3.7548    0.7669    0.0000 C   0  0  0  0  0  0  0  0  0  0  0  0
    0.0000   -0.6549    0.0000 O   0  0  0  0  0  0  0  0  0  0  0  0
    1.2135    0.2267    0.0000 C   0  0  0  0  0  0  0  0  0  0  0  0
    2.6401   -0.2368    0.0000 C   0  0  0  0  0  0  0  0  0  0  0  0
    2.9520   -1.7040    0.0000 C   0  0  0  0  0  0  0  0  0  0  0  0
    4.3786   -2.1675    0.0000 C   0  0  0  0  0  0  0  0  0  0  0  0
    5.4933   -1.1638    0.0000 C   0  0  0  0  0  0  0  0  0  0  0  0
    6.9851   -1.3206    0.0000 O   0  0  0  0  0  0  0  0  0  0  0  0
    7.5952    0.0497    0.0000 C   0  0  0  0  0  0  0  0  0  0  0  0
    6.4805    1.0534    0.0000 O   0  0  0  0  0  0  0  0  0  0  0  0
    5.1814    0.3034    0.0000 C   0  0  0  0  0  0  0  0  0  0  0  0
    3.7548    0.7669    0.0000 C   0  0  0  0  0  0  0  0  0  0  0  0
  2  1  1  6
  2  3  1  0
  3  4  1  1
  3  5  1  0
  5  6  1  6
  6  7  2  0
  7  8  1  0
  8  9  2  0
  9 10  1  0
 10 11  1  0
 11 12  1  0
 12 13  1  0
 13 14  2  0
  5 15  1  0
 15 16  1  0
 16 17  1  1
 17 18  2  0
 18 19  1  0
 19 20  2  0
 20 21  1  0
 21 22  1  0
 22 23  1  0
 23 24  1  0
 24 25  2  0
 16  2  1  0
 25 17  1  0
 14  6  1  0
 24 20  1  0
 13  9  1  0
M  END
>  <identifier>  (397) 
CNP0253717.3

>  <canonical_smiles>  (397) 
C[C@H]1[C@H](C)[C@@H](C2=CC=C3OCOC3=C2)O[C@@H]1C1=CC=C2OCOC2=C1

>  <standard_inchi>  (397) 
InChI=1S/C20H20O5/c1-11-12(2)20(14-4-6-16-18(8-14)24-10-22-16)25-19(11)13-3-5-15-17(7-13)23-9-21-15/h3-8,11-12,19-20H,9-10H2,1-2H3/t11-,12-,19-,20-/m0/s1

>  <standard_inchi_key>  (397) 
QFUXQRHAJWXPGP-HIGYNYDNSA-N

>  <name>  (397) 
(-)-Galbacin

>  <iupac_name>  (397) 
5-[(2~{S},3~{S},4~{S},5~{S})-5-(1,3-benzodioxol-5-yl)-3,4-dimethyl-tetrahydrofuran-2-yl]-1,3-benzodioxole

>  <annotation_level>  (397) 
5

>  <total_atom_count>  (397) 
45

>  <heavy_atom_count>  (397) 
25

>  <molecular_weight>  (397) 
340.38

>  <exact_molecular_weight>  (397) 
340.13107

>  <molecular_formula>  (397) 
C20H20O5

>  <alogp>  (397) 
4.23

>  <topological_polar_surface_area>  (397) 
46.15

>  <rotatable_bond_count>  (397) 
2

>  <hydrogen_bond_acceptors>  (397) 
5

>  <hydrogen_bond_donors>  (397) 
0

>  <hydrogen_bond_acceptors_lipinski>  (397) 
5

>  <hydrogen_bond_donors_lipinski>  (397) 
0

>  <lipinski_rule_of_five_violations>  (397) 
0

>  <aromatic_rings_count>  (397) 
2

>  <qed_drug_likeliness>  (397) 
0.82

>  <formal_charge>  (397) 
0

>  <fractioncsp3>  (397) 
0.40

>  <number_of_minimal_rings>  (397) 
5

>  <van_der_walls_volume>  (397) 
300.85

>  <contains_sugar>  (397) 
False

>  <contains_ring_sugars>  (397) 
False

>  <contains_linear_sugars>  (397) 
False

>  <murcko_framework>  (397) 
O1c2ccc(cc2OC1)C3OC(c4ccc5OCOc5c4)CC3

>  <np_likeness>  (397) 
0.78

>  <chemical_class>  (397) 
Furanoid lignans

>  <chemical_sub_class>  (397) 
Tetrahydrofuran lignans

>  <chemical_super_class>  (397) 
Lignans, neolignans and related compounds

>  <direct_parent_classification>  (397) 
7,7'-epoxylignans

>  <np_classifier_pathway>  (397) 
Shikimates and Phenylpropanoids

>  <np_classifier_superclass>  (397) 
Lignans

>  <np_classifier_class>  (397) 
Furanoid lignans

>  <np_classifier_is_glycoside>  (397) 
False

>  <organisms>  (397) 
Acorus gramineus|Acorus tatarinowii|Andinobates fulguritus|Anoplophora chinensis|Aristolochia arcuata|Aristolochia holostylis|Bicuiba oleifera|Castilleja sulphurea|Catalpa bignonioides|Cephalonoplos segetum|Comaster multifida|Dioscorea sativa|Esenbeckia nesiotica|Forsythia japonica|Galbulimima belgraveana|Gymnosporia trigyna|Helipterum tenellum|Himantandra belgraveana|Huperzia miyoshiana|Hyptis tomentosa|Ipomoea cristulata|Knema elegans|Lachnoanaerobaculum saburreum|Lens phaseoloides|Lindera aggregata|Lophozonia menziesii|Machilus Thunbergii|Machilus thunbergii|Magnolia denudata|Myristica fragrans|Pancratium trianthum|Piper kadsura|Piper pedicellosum|Pseudobrickellia brasiliensis|Rhododendron latoucheae|Rhodotypos scandens|Saururus Chinensis|Saururus chinensis|Streptomyces amakusaensis|Virola surinamensis|Xanthostemon oppositifolius

>  <collections>  (397) 
Australian natural products|CMAUP (cCollective molecular activities of useful plants)|Latin America dataset|NPASS|NuBBEDB|Super Natural II|TCMDB-Taiwan (Traditional Chinese Medicine database)|VietHerb|WikiData Natural Products|ZINC NP

>  <dois>  (397) 
10.1002/CHIN.200533260|10.1007/BF02975429|10.1016/0031-9422(93)85181-P|10.1016/0031-9422(95)00341-4|10.1016/J.BMCL.2010.05.067|10.1016/J.PHYTOCHEM.2004.01.004|10.1016/S0031-9422(00)94227-4|10.1016/S0031-9422(00)94227-5|10.1016/S0031-9422(96)00408-6|10.1021/NP50012A005|10.1021/NP990499E|10.1039/JR9580004471|10.1039/jr9580004471|10.1248/BPB.27.1147|10.1248/CPB.53.121

>  <synonyms>  (397) 
1,3-BENZODIOXOLE, 5,5'-(TETRAHYDRO-3,4-DIMETHYL-2,5-FURANDIYL)BIS-, (2S-(2.ALPHA.,3.BETA.,4.ALPHA.,5.BETA.))-|1,3-Benzodioxole, 5,5'-((2S,3S,4S,5S)-tetrahydro-3,4-dimethyl-2,5-furandiyl)bis-|1,3-Benzodioxole, 5,5'-(tetrahydro-3,4-dimethyl-2,5-furandiyl)bis-, (2S-(2alpha,3beta,4alpha,5beta))-|5-[(2S,3S,4S,5S)-5-(1,3-benzodioxol-5-yl)-3,4-dimethyloxolan-2-yl]-1,3-benzodioxole|51RT426L5S|528-64-3|Furan, tetrahydro-3,4-dimethyl-2,5-bis(3,4-(methylenedioxy)phenyl)-, (all-S)-|GALBACIN|Galbacin, (-)-|Q27260916|SCHEMBL4737162|UNII-51RT426L5S|galbacin

>  <cas>  (397) 
528-64-3

$$$$

     RDKit          2D

 24 28  0  0  0  0  0  0  0  0999 V2000
   -5.3465    0.7615    0.0000 C   0  0  0  0  0  0  0  0  0  0  0  0
   -4.2425   -0.2540    0.0000 C   0  0  0  0  0  0  0  0  0  0  0  0
   -2.8111    0.1943    0.0000 C   0  0  0  0  0  0  0  0  0  0  0  0
   -2.4837    1.6582    0.0000 C   0  0  0  0  0  0  0  0  0  0  0  0
   -3.6188    0.6776    0.0000 C   0  0  0  0  0  0  0  0  0  0  0  0
   -3.3371   -0.7957    0.0000 C   0  0  0  0  0  0  0  0  0  0  0  0
   -1.7230   -2.3211    0.0000 N   0  0  0  0  0  0  0  0  0  0  0  0
   -0.9482   -1.2781    0.0000 C   0  0  0  0  0  0  0  0  0  0  0  0
   -1.0505   -1.4158    0.0000 C   0  0  0  0  0  0  0  0  0  0  0  0
   -0.2757   -0.3728    0.0000 C   0  0  0  0  0  0  0  0  0  0  0  0
    1.0153   -1.1365    0.0000 C   0  0  0  0  0  0  0  0  0  0  0  0
    1.3116   -2.6070    0.0000 C   0  0  0  0  0  0  0  0  0  0  0  0
    2.7332   -3.0856    0.0000 C   0  0  0  0  0  0  0  0  0  0  0  0
    3.8585   -2.0938    0.0000 C   0  0  0  0  0  0  0  0  0  0  0  0
    3.5622   -0.6234    0.0000 C   0  0  0  0  0  0  0  0  0  0  0  0
    4.6875    0.3684    0.0000 O   0  0  0  0  0  0  0  0  0  0  0  0
    2.1407   -0.1447    0.0000 C   0  0  0  0  0  0  0  0  0  0  0  0
    1.5451    1.2320    0.0000 N   0  0  0  0  0  0  0  0  0  0  0  0
    2.3089    2.5230    0.0000 C   0  0  0  0  0  0  0  0  0  0  0  0
    1.5727    3.8299    0.0000 C   0  0  0  0  0  0  0  0  0  0  0  0
    3.8088    2.5071    0.0000 O   0  0  0  0  0  0  0  0  0  0  0  0
    0.0518    1.0910    0.0000 C   0  0  0  0  0  0  0  0  0  0  0  0
   -1.0522    2.1065    0.0000 C   0  0  0  0  0  0  0  0  0  0  0  0
   -1.7071   -0.8211    0.0000 C   0  0  0  0  0  0  0  0  0  0  0  0
  1  2  1  0
  2  3  2  0
  3  4  1  0
  4  5  1  0
  5  6  1  0
  6  7  1  0
  7  8  1  0
  8  9  1  0
  9 10  1  0
 10 11  1  0
 11 12  2  0
 12 13  1  0
 13 14  2  0
 14 15  1  0
 15 16  1  0
 15 17  2  0
 17 18  1  0
 18 19  1  0
 19 20  1  0
 19 21  2  0
 18 22  1  0
 22 23  1  0
 10 24  1  0
 24  3  1  0
 23  4  1  0
 24  7  1  0
 22 10  1  0
 17 11  1  0
M  END
>  <identifier>  (398) 
CNP0214543.3

>  <canonical_smiles>  (398) 
C/C=C1\C2CCN3CCC4(C5=CC=CC(O)=C5N(C(C)=O)C4C2)C13

>  <standard_inchi>  (398) 
InChI=1S/C20H24N2O2/c1-3-14-13-7-9-21-10-8-20(19(14)21)15-5-4-6-16(24)18(15)22(12(2)23)17(20)11-13/h3-6,13,17,19,24H,7-11H2,1-2H3/b14-3+

>  <standard_inchi_key>  (398) 
XWAUFUXMRPCVKI-LZWSPWQCSA-N

>  <name>  (398) 
nan

>  <iupac_name>  (398) 
nan

>  <annotation_level>  (398) 
0

>  <total_atom_count>  (398) 
48

>  <heavy_atom_count>  (398) 
24

>  <molecular_weight>  (398) 
324.42

>  <exact_molecular_weight>  (398) 
324.18378

>  <molecular_formula>  (398) 
C20H24N2O2

>  <alogp>  (398) 
2.81

>  <topological_polar_surface_area>  (398) 
43.78

>  <rotatable_bond_count>  (398) 
0

>  <hydrogen_bond_acceptors>  (398) 
3

>  <hydrogen_bond_donors>  (398) 
1

>  <hydrogen_bond_acceptors_lipinski>  (398) 
3

>  <hydrogen_bond_donors_lipinski>  (398) 
1

>  <lipinski_rule_of_five_violations>  (398) 
0

>  <aromatic_rings_count>  (398) 
1

>  <qed_drug_likeliness>  (398) 
0.75

>  <formal_charge>  (398) 
0

>  <fractioncsp3>  (398) 
0.55

>  <number_of_minimal_rings>  (398) 
5

>  <van_der_walls_volume>  (398) 
301.37

>  <contains_sugar>  (398) 
False

>  <contains_ring_sugars>  (398) 
False

>  <contains_linear_sugars>  (398) 
False

>  <murcko_framework>  (398) 
c1ccc2c(c1)NC3CC4CCN5CCC23C5C4

>  <np_likeness>  (398) 
1.98

>  <chemical_class>  (398) 
nan

>  <chemical_sub_class>  (398) 
nan

>  <chemical_super_class>  (398) 
nan

>  <direct_parent_classification>  (398) 
nan

>  <np_classifier_pathway>  (398) 
Alkaloids

>  <np_classifier_superclass>  (398) 
Tryptophan alkaloids

>  <np_classifier_class>  (398) 
Aspidosperma type

>  <np_classifier_is_glycoside>  (398) 
False

>  <organisms>  (398) 
Aspidosperma tomentosum

>  <collections>  (398) 
Latin America dataset|NuBBEDB|WikiData Natural Products

>  <dois>  (398) 
10.1016/S0031-9422(00)82898-8

>  <synonyms>  (398) 
nan

>  <cas>  (398) 
nan

$$$$

     RDKit          2D

 12 13  0  0  0  0  0  0  0  0999 V2000
   -3.8971   -1.2500    0.0000 O   0  0  0  0  0  0  0  0  0  0  0  0
   -2.5981   -0.5000    0.0000 C   0  0  0  0  0  0  0  0  0  0  0  0
   -2.5981    1.0000    0.0000 C   0  0  0  0  0  0  0  0  0  0  0  0
   -1.2990    1.7500    0.0000 C   0  0  0  0  0  0  0  0  0  0  0  0
   -0.0000    1.0000    0.0000 C   0  0  0  0  0  0  0  0  0  0  0  0
    1.2990    1.7500    0.0000 C   0  0  0  0  0  0  0  0  0  0  0  0
    2.5981    1.0000    0.0000 C   0  0  0  0  0  0  0  0  0  0  0  0
    2.5981   -0.5000    0.0000 C   0  0  0  0  0  0  0  0  0  0  0  0
    3.8971   -1.2500    0.0000 O   0  0  0  0  0  0  0  0  0  0  0  0
    1.2990   -1.2500    0.0000 C   0  0  0  0  0  0  0  0  0  0  0  0
   -0.0000   -0.5000    0.0000 C   0  0  0  0  0  0  0  0  0  0  0  0
   -1.2990   -1.2500    0.0000 O   0  0  0  0  0  0  0  0  0  0  0  0
  1  2  2  0
  2  3  1  0
  3  4  2  0
  4  5  1  0
  5  6  2  0
  6  7  1  0
  7  8  2  0
  8  9  1  0
  8 10  1  0
 10 11  2  0
 11 12  1  0
 12  2  1  0
 11  5  1  0
M  END
>  <identifier>  (399) 
CNP0291283.0

>  <canonical_smiles>  (399) 
O=C1C=CC2=CC=C(O)C=C2O1

>  <standard_inchi>  (399) 
InChI=1S/C9H6O3/c10-7-3-1-6-2-4-9(11)12-8(6)5-7/h1-5,10H

>  <standard_inchi_key>  (399) 
ORHBXUUXSCNDEV-UHFFFAOYSA-N

>  <name>  (399) 
Umbelliferone

>  <iupac_name>  (399) 
7-hydroxychromen-2-one

>  <annotation_level>  (399) 
5

>  <total_atom_count>  (399) 
18

>  <heavy_atom_count>  (399) 
12

>  <molecular_weight>  (399) 
162.14

>  <exact_molecular_weight>  (399) 
162.03169

>  <molecular_formula>  (399) 
C9H6O3

>  <alogp>  (399) 
1.50

>  <topological_polar_surface_area>  (399) 
50.44

>  <rotatable_bond_count>  (399) 
0

>  <hydrogen_bond_acceptors>  (399) 
3

>  <hydrogen_bond_donors>  (399) 
1

>  <hydrogen_bond_acceptors_lipinski>  (399) 
3

>  <hydrogen_bond_donors_lipinski>  (399) 
1

>  <lipinski_rule_of_five_violations>  (399) 
0

>  <aromatic_rings_count>  (399) 
2

>  <qed_drug_likeliness>  (399) 
0.60

>  <formal_charge>  (399) 
0

>  <fractioncsp3>  (399) 
0.00

>  <number_of_minimal_rings>  (399) 
2

>  <van_der_walls_volume>  (399) 
136.01

>  <contains_sugar>  (399) 
False

>  <contains_ring_sugars>  (399) 
False

>  <contains_linear_sugars>  (399) 
False

>  <murcko_framework>  (399) 
O1c2ccccc2C=CC1

>  <np_likeness>  (399) 
1.11

>  <chemical_class>  (399) 
Coumarins and derivatives

>  <chemical_sub_class>  (399) 
Hydroxycoumarins

>  <chemical_super_class>  (399) 
Phenylpropanoids and polyketides

>  <direct_parent_classification>  (399) 
7-hydroxycoumarins

>  <np_classifier_pathway>  (399) 
Shikimates and Phenylpropanoids

>  <np_classifier_superclass>  (399) 
Coumarins

>  <np_classifier_class>  (399) 
Simple coumarins

>  <np_classifier_is_glycoside>  (399) 
False

>  <organisms>  (399) 
Abelia chinensis|Abelmoschus esculentus|Abies nephrolepis|Acacia ehrenbergiana|Acer caudatifolium|Achillea arabica|Achillea biebersteinii|Aconitum heterophyllum|Actinomadura hibisca|Adina cordifolia|Adonis amurensis|Adonis mongolica|Adonis tianschanica|Adonis tienschanicus|Aegle Marmelos|Aegle marmelos|Aeonium cuneatum|Aesculus hippocastanum|Agathis macrophylla|Ageratina adenophora|Ageratina tomentella|Alchornea cordifolia|Alexandrium excavatum|Allium rotundum|Aloe arborescens|Althaea armeniaca|Althaea officinalis|Ammi majus|Amomum daniellii|Anastrepha suspensa|Anethum graveolens|Anethum sp.|Angelica Dahurica|Angelica Pubescens|Angelica acutiloba|Angelica anomala|Angelica archangelica|Angelica biserrata|Angelica dahurica|Angelica decursiva|Angelica furcijuga KITAGAWA|Angelica genuflexa|Angelica gigas|Angelica japonica|Angelica pachycarpa|Angelica pubescens|Angelica pubescens f.biserrata|Angelica sinensis|Angelica sp.|Angelica spp.|Aniba duckei|Anisopappus pinnatifidus|Apium graveolens|Apium spp.|Aplophyllum alberti-regelii|Arabidopsis thaliana|Aralia continentalis|Aralia fargesii|Armillaria tabescens|Arracacia tolucensis|Artemisia abrotanum|Artemisia absinthium|Artemisia alba|Artemisia anomala|Artemisia argyi|Artemisia assoana|Artemisia capillaris|Artemisia dracunculus|Artemisia gilvescens|Artemisia glauca|Artemisia jacutica|Artemisia laciniata|Artemisia lactiflora|Artemisia latifolia|Artemisia marschalliana|Artemisia minor|Artemisia mongolica|Artemisia montana|Artemisia nova|Artemisia ordosica|Artemisia palustris|Artemisia princeps|Artemisia santolinifolia|Artemisia scotina|Artemisia siversiana|Artemisia stechmanniana|Artemisia tridentata|Artemisia vestita|Artemisia vulgaris|Artemisia xanthochloa|Ashitaba|Asimina parviflora|Aspergillus caespitosus|Aspergillus phoenicis|Aspidixia articulata|Asterolasia phebalioides|Asterolasia trymalioides|Astilbe koreana|Astragalus brachycarpus|Astragalus onobrychis|Astragalus sinicus|Astragalus zahlbruckneri|Atalantia buxifolia|Atalantia racemosa|Atalantia wightii|Atractylodes lancea|Atractylodes macrocephala|Atraphaxis spinosa|Atropa belladonna|Auricularia auricula-judae|Axinella cannabina|Ayapana triplinervis|Baccharis alaternoides|Baccharis eggersii|Baccharis macraei|Baccharis neglecta|Balanophora japonica|Bidens sp.|Bidens tripartita|Biebersteinia heterostemon|Biebersteinia orphanidis|Blebersteinia heterostemon|Boenninghausenia albiflora|Boronia muelleri|Bothrops jararaca|Botryosphaeria berengeriana|Breonadia salicina|Brosimum gaudichaudii|Bryophyllum calycinum|Burkholderia cepacia|Butea monosperma|Cacalia hastata L. (1753)|Calcarisporium thermophilum|Calea villosa|Calendula officinalis|Calendula sp.|Callisia fragrans|Caltha palustris|Camellia sinensis|Candelaria vitellina|Caragana frutex|Caragana spinosa|Caralluma stalagmifera|Carthamus tinctorius|Cassia carnaval|Castanopsis eyrei|Castilleja integra|Centaurea cyanus|Centaurea maculosa|Centaurea pseudomaculosa|Centaurea scabiosa|Centaurea solstitialis|Ceratocystis fimbriata|Chamaecyparis formosensis|Chamaecyparis obtusa|Chamomilla recutita|Chamomilla sp.|Chamomilla suaveolens|Chaptalia integerrima|Cheilanthes chusana|Chondrodendron tomentosum|Chondrosia reniformis|Choriaster granulatus|Chromolaena subscandens|Chrysanthemum leptophyllum|Chrysanthemum sp.|Chuquiraga ulicina|Cicer arietinum|Cichorium sp.|Cicuta virosa|Citrullus lanatus|Citrus Grandis|Citrus Paradisi|Citrus Sinensis|Citrus aurantium|Citrus depressa|Citrus funadoko|Citrus grandis|Citrus hassaku|Citrus maxima|Citrus medica|Citrus natsudaidai|Citrus paradisi|Citrus reticulata|Citrus sinensis|Citrus sinensis cv.Valencia|Citrus sp.|Citrus sulcata|Citrus trifoliata|Citrus wilsonii|Citrus × deliciosa|Citrus × paradisi|Clausena Excavata|Clausena anisata|Clausena anisum-olens|Clausena excavata|Clausena lansium|Clerodendrum bungei|Cnidium dahuricum|Cocos nucifera|Colchicum macedonicum|Conocephalum supradecompositum|Conoideocrella tenuis|Conus mus|Conyza bonariensis|Copaifera langsdorffii|Copaifera sp.|Coprosma acerosa|Coptis deltoidea|Cordia leucocephala|Coriandrum sativum|Coronilla elegans|Coronilla glauca|Coronilla scorpioides|Coronilla vaginalis|Coronilla valentina|Coronilla varia|Coronilla viminalis|Corydalis persica|Corynanthe pachyceras|Cota tinctoria|Coussarea paniculata|Cranfillia vulcanica|Crataegus flava|Crepidotus fulvotomentosus|Crocodylus niloticus|Cruciata laevipes|Cruciata taurica|Cryptocarya infectoria|Cullen drupaceum|Cyanospira rippkae|Cymathere triplicata|Cynoglossum amabile|Cynoglossum formosanum|Cystoseira caespitosa|Daiswa dunniana|Dalbergia frutescens|Dalbergia sericea|Daphne acutiloba|Daphne bholua|Daphne feddei|Daphne genkwa|Daphne mezereum|Daphne mucronata|Daphne odora|Daphne odora Thunb.|Daphne oleoides|Daphne oleoides ssp. oleoides|Daphne pedunculata|Daphne sp.|Daphne tangutica|Datura sp.|Datura stramonium|Daucus Carota|Daucus carota|Dendronephthya griffini|Deutzia corymbosa|Deutzia hookeriana|Diaporthe amygdali|Dicliptera riparia|Dictamnus albus|Dictamnus angustifolius|Dictamnus gymnostylis|Dictamnus sp.|Dillenia papuana|Dioscorea gracillima|Diospyros assimilis|Diplostephium ericoides|Dipteryx odorata|Disynaphia multicrenulata|Dolabella californica|Dorstenia brasiliensis|Dorstenia convexa|Dorstenia excentrica|Dorstenia lindeniana|Dorstenia turbinata|Drymaria cordata|Durio oxleyanus|Dystaenia takesimana|Echium italicum|Echium rubrum|Edgeworthia chrysantha|Eichhornia crassipes|Eleutherococcus senticosus|Elsholtzia cristata|Embelia parviflora|Embelia schimperi|Entada africana|Entada polystachya|Ephedra sinica|Epilachna varivestis|Epilobium hirsutum|Eria anomala|Eriostemon crowei|Eriostemon tomentellus|Erwinia rhapontici|Eryngium campestre|Erysimum leptophyllum|Erythrina melanacantha|Erythroxylum passerinum|Esenbeckia leiocarpa|Eucalyptus decorticans|Eucalyptus viminalis|Eucommia ulmoides|Eugenia sandwicensis|Eunicea pinta|Eupatorium adenophorum|Euphorbia caducifolia|Euphorbia ebracteolata|Euphorbia fischeriana|Euphorbia hirta|Euphorbia humifusa|Euphorbia lathyris|Euphorbia maculata|Euphorbia nematocypha|Euphorbia sp.|Euryops rupestris|Euthamia graminifolia|Fagopyrum tataricum|Falcaria vulgaris|Faramea salicifolia|Fatoua pilosa|Fatoua villosa|Favolaschia tonkinensis|Ferula|Ferula assa-foetida|Ferula diversivittata|Ferula gigantea|Ferula gummosa|Ferula iliensis|Ferula kirialovii|Ferula kokanica|Ferula kopetdagensis|Ferula litwinowiana|Ferula marmarica|Ferula microloba|Ferula moschata|Ferula ovina|Ferula persica|Ferula sp.|Ferula spp.|Ferula szovitsiana|Ferula szowitziana|Ferula tadshikorum|Ferulago lutea|Ficus Carica|Ficus carica|Ficus cunninghamii|Ficus elastica|Ficus nervosa|Ficus septica|Ficus sp.|Flemingia rhodocarpa|Foeniculum Vulgare|Foeniculum sp.|Foeniculum vulgare|Fructus mori|Fuligo candida|Fumaria indica|Glebionis coronaria|Glebionis segetum|Glehnia littoralis|Globicephala melas|Glycosmis pseudoracemosa|Glycyrrhiza sp.|Gnidia sp.|Grateloupia livida|Gymnocalycium schickendantzii|Gypothamnium pinifolium|Haldina cordifolia|Hansenia forbesii|Hansenia weberbaueriana|Haplophyllum obtusifolium|Haplophyllum patavinum|Haplophyllum villosum|Haplophyllum vulcanicum|Harbouria trachypleura|Helianthopsis bishopii|Helichrysum arenarium|Helichrysum maracandicum|Helichrysum tenuifolium|Hendersonula toruloidea|Heracleum candicans|Heracleum candicans WALL.|Heracleum dissectum|Heracleum granatense|Heracleum grandiflorum|Heracleum lehmannianum|Heracleum sp.|Heracleum spp.|Heracleum yungningense|Herniaria|Heteroplexis microcephala|Hijmania turbinata|Holarrhena febrifuga|Homo sapiens|Hyalis argentea|Hydrangea chinensis|Hydrangea febrifuga|Hydrangea macrophylla|Hydrangea macrophylla Ser.var.thunbergii Makino.|Hydrangea paniculata|Hydrangea serrata|Hydrangea vestita|Hydrocotyle leucocephala|Hygrophorus eburneus|Hylotelephium ewersii|Hymenocallis speciosa|Hypericum carinatum|Hypericum papuanum|Hypericum styphelioides|Hyphear tanakae|Hypholoma capnoides|Hypoxylon carneum|Hypselodoris cantabrica|Iberis sempervirens|Ilex kaushue|Ilyonectria destructans|Impatiens siculifer|Inula Helenium|Inula grantioides|Inula helenium|Inula helenium L.|Inula thapsoides|Ipomoea cairica|Ipomoea digitata|Ipomoea nil|Ipomoea purpurea|Isodon gesneroides|Juniperus chinensis|Juniperus drupacea|Juniperus horizontalis|Juniperus sp.|Justicia pectoralis|Kalanchoe ceratophylla|Kalanchoe laciniata|Kaunia arbuscularis|Khaya ivorensis|Kitagawia praeruptora|Kloeckera brevis|Lactarius deliciosus var. deterrimus|Laetia corymbulosa|Lathyrus tingitanus|Latrunculia magnifica|Lavandula sp.|Ledum decumbens|Lemaireocereus longispinus|Leontopodium nanum|Lepia marginata|Leucocyclus formosus|Levisticum sp.|Ligularia pleurocaulis|Ligularia thyrsoidea|Ligusticum multivittatum|Limeum pterocarpum|Limnocitrus littoralis|Lindera glauca|Liparis condylobulbon|Lithospermum canescens|Litsea verticillata|Lomatia hirsuta|Lonchocarpus salvadorensis|Lupinus formosus|Lycogala epidendrum|Lythrum salicaria|Maclura tricuspidata|Macrocystidia cucumis|Mandragora autumnalis|Mandragora officinarum|Marsdenia sp.|Marshallia graminifolia|Marsypianthes chamaedrys|Matricaria chamomilla|Matricaria discoidea|Matricaria matricarioides|Melicope hayesii|Melicope semecarpifolia|Melilotus Suaveolens|Melilotus alba|Melilotus altus|Melilotus indicus|Melilotus messanensis|Melilotus officinalis|Melilotus siculus|Melilotus sp.|Melilotus suaveolens|Metrodorea nigra|Mikania goyazensis|Monodora brevipes|Monomeria barbata|Monsonia senegalensis|Morella rubra|Morinda citrifolia|Morus alba|Morus bombycis|Morus cathayana|Morus mongolica|Murraya exotica|Murraya koenigii|Murraya paniculata|Murraya siamensis|Myxococcus stipitatus|Nama johnstonii|Naringi crenulata|Nassauvia aculeata|Nematolepis ovatifolia|Nepeta cadmea|Nephthea erecta|Nerita albicilla|Nicotiana tabacum|Nierembergia hippomanica|Nigritella suaveolens|Nocardia brasiliensis|Oenanthe fistulosa|Onobrychis kemularia|Onobrychis kemulariae|Onopordum acanthium|Ophioglossum petiolatum|Ostericum grosseserratum|Oxandra xylopioides|Oxytropis ochrocephala|Oyedaea verbesinoides|Pajanelia multijuga|Palicourea alpina|Pancratium sickenbergeri|Parasenecio hastata|Parastrephia quadrangularis|Parmelia enteromorpha|Passiflora sp.|Pastinaca sativa|Pastinaca sp.|Peddiea fischeri|Persicaria thunbergii|Peucedanum|Peucedanum bourgaei Lange in Wilk.et Lange.|Peucedanum decumbens|Peucedanum oroselinum|Peucedanum praeruptorum|Peucedanum praeruptorum DUNN.|Peyrousea umbellata|Pharbitis nil|Phaseolus Vulgaris|Phaseolus vulgaris|Phebalium squamulosum|Phellodendron Amurense|Phellodendron amurense|Phellodendron amurense var. wilsonii|Phellodendron chinense var. glabriusculum|Phellodendron japonicum MAXIM|Philotheca apiculata|Philotheca fitzgeraldii|Phlojodicarpus sibiricus|Physochlaina physaloides|Picea neoveitchii|Picramnia P. Antidesma|Picramnia antidesma|Picramnia hirsuta|Picramnia latifolia|Picramnia teapensis|Picramnia teapensis Tul.|Picrasma quassioides|Picris evae|Picris spinifera|Pimpinella anisum|Pimpinella sp.|Pimpinella spp.|Pinus armandi|Piper regnellii|Pituranthos triradiatus|Planchonia grandis|Plathymenia reticulata|Platycarpha glomerata|Platytaenia dasycarpa|Plectosphaerella cucumerina|Plectranthus caninus|Plectranthus nummularius|Pleiospermium alatum|Poa huecu|Polygonatum orientale|Polygonum mite|Polygonum sp.|Polypodiodes formosana|Poncirus trifoliata|Portulaca oleracea|Posoqueria latifolia|Potentilla anserina|Potentilla argentea|Potentilla erecta|Potentilla sp.|Potentilla tormentilla|Prangos|Prangos ferulacea|Prangos latiloba|Prangos lophoptera|Prangos tschimganica|Prangos uloptera|Prosopis spicigera|Prunella vulgaris|Prunus mahaleb|Prunus persica|Prunus prostrata|Pseuduvaria indochinensis|Pteridium esculentum|Pteris setuloso-costulata|Pterocaulon|Pteryxia terebinthina|Purpureocillium lilacinum|Pyrola calliantha|Rabdosia loxothyrsa|Rauvolfia salicifolia|Rhadinothamnus anceps|Rhinacanthus nasutus|Rhinanthus glaber|Rhinella marina|Rhizoplaca baranowii|Rhodiola coccinea|Rhodiola heterodonta|Rhodiola quadrifida|Rhodiola sacra|Rhododendron dauricum|Rhododendron diversipilosum|Rhododendron groenlandicum|Rhododendron hypoleucum|Rhododendron lepidotum|Rhododendron mucronulatum|Rhododendron spinuliferum|Rhododendron tomentosum|Rhodomyrtus tomentosa|Rhodopila globiformis|Roemeria carica|Rosa transmorrisonensis|Rubus xanthocarpus|Rumex pulcher|Rumohra adiantiformis|Ruta Graveolens|Ruta chalepensis|Ruta graveolens|Ruta graveolens L.|Ruta montana|Salacia cordata|Salix sieboldiana|Salmonella enterica subsp. enterica serovar bovismorbificans|Salvia officinalis|Salvia oxyodon|Salvia xalapensis|Sambucus ebulus|Saussurea gossypiphora|Saussurea laniceps|Saussurea superba|Scapholeberis mucronata|Schumanniophyton magnificum|Scolytus multistriatus|Scrophularia smithii|Securigera elegans|Securigera securidaca|Sedum ewersii|Selaginella pulvinata|Selaginella tamariscina|Semenovia dasycarpa|Serratula strangulata|Serratula wolffii|Seseli foliosum|Seseli webbii Cosson.|Severinia buxifolia|Shigella dysenteriae|Simarouba glauca|Sinacalia tangutica|Siphonaria capensis|Skimmia japonica|Skimmia laureola|Skimmia reevesiana|Solanum aculeatissimum|Solanum aculeatum|Solanum berthaultii|Solanum dasyphyllum|Solanum sp.|Solanum torvum|Sophora davidii|Sophora flavescens|Sphoeroides vermicularis|Spongia lamellosa|Stellera chamaejasme|Stellera chamaejasme L.|Stellera sp.|Streptomyces avellaneus|Streptomyces cellulosae|Streptomyces cellulosae TES17|Streptomyces fulvoviridis|Streptomyces griseus|Streptomyces incarnatus|Streptomyces xanthocidicus|Strychnos spinosa|Syzygium polycephaloides|Tagetes lucida|Tanacetum cadmeum|Tanacetum santolinoides|Tetradium glabrifolium|Teucrium pernyi|Theonella conica|Thiocystis gelatinosa|Thuja sp.|Tium alpinum|Tordylium apulum|Tornabea scutellifera|Tortrix viridana|Trametes feei|Tricholoma columbetta|Trichomanes reniforme|Trifoliate orange|Trifolium alexandrium|Trifolium pratense|Triphasia trifolia|Triptilion spinosum|Tuber melanosporum|Tylophora flava|Typha domingensis|Uncaria hirsuta|Vahlia capensis|Vellozia nanuzae|Vernonia fagifolia|Vernonia megapotamica|Viburnum cylindricum|Viburnum dilatatum|Vicia sativa|Vigna Radiata|Vigna radiata|Virola sebifera|Vitex limonifolia|Vitis vinifera|White sapote|Wikstroemia canescens|Wikstroemia elliptica|Wikstroemia glabra|Wikstroemia hainanensis|Wikstroemia sikokiana|Wikstroemia sp.|Woodsia scopulina|Wunderlichia mirabilis|Xerula melanotricha|Yponomeuta mahalebella|Yponomeuta mahalebellus|Zanthoxylum ailanthoides|Zanthoxylum armatum|Zanthoxylum beecheyanum|Zanthoxylum rhoifolium|Zanthoxylum schinifolium|Zanthoxylum sp.|Zanthoxylum spinosum|Zanthoxylum wutaiense|Zanthoxylum zanthoxyloides|Zeora sordida|Zilla spinosa|adina cordifolia|parsley|pomelo|potato|pterocaulon sp.|tarragon

>  <collections>  (399) 
ANPDB|AfroCancer|AnalytiCon Discovery NPs|Australian natural products|BIOFACQUIM|BitterDB|CMAUP (cCollective molecular activities of useful plants)|ChEBI NPs|ChemSpider NPs|ConMedNP|EMNPD|ETM (Ethiopian Traditional Medicine) DB|FooDB|HIM (Herbal Ingredients in-vivo Metabolism database)|KNApSaCK|Latin America dataset|NANPDB (Natural Products from Northern African Sources)|NAPRORE-CR|NPASS|NPEdia|Nat-UV DB|NuBBEDB|Phenol-explorer|Phyto4Health|PhytoLab phyproof® Reference Substances|PubChem NPs|Specs Natural Products|StreptomeDB|Super Natural II|TCMDB-Taiwan (Traditional Chinese Medicine database)|TCMID (Traditional Chinese Medicine Integrated Database)|TIPdb (database of Taiwan indigenous plants)|TPPT (Toxic Plants–PhytoToxins)|UEFS (Natural Products Databse of the UEFS)|UNPD (Universal Natural Products Database)|VietHerb|Watermelon|WikiData Natural Products|p-ANAPL

>  <dois>  (399) 
10.1002/9780470744307.gat218|10.1002/BMS.1200150802|10.1002/CBDV.200900227|10.1002/CBDV.200900326|10.1002/CBDV.201000373|10.1002/CHIN.200047207|10.1002/CHIN.200322269|10.1002/CHIN.200502185|10.1002/CHIN.200731148|10.1002/HLCA.200690014|10.1002/HLCA.200800420|10.1002/HLCA.200890203|10.1002/HLCA.201000250|10.1002/JCCS.198400042|10.1002/JCCS.199400031|10.1002/JCCS.199400032|10.1002/JCCS.199500128|10.1002/JCCS.199900028|10.1002/JCCS.200100136|10.1002/JCCS.200200040|10.1002/JCCS.200300178|10.1002/JCCS.200400159|10.1002/JLAC.198619861208|10.1002/JPS.2600650628|10.1002/JSFA.2740151101|10.1002/JSSC.200500003|10.1002/JSSC.200900348|10.1002/MCS.1047|10.1002/PTR.3690|10.1002/biuz.19840140514|10.1002/food.19880321030|10.1007/978-3-642-71425-2_1|10.1007/978-94-007-1088-7|10.1007/BF00563357|10.1007/BF00563908|10.1007/BF00563961|10.1007/BF00563973|10.1007/BF00563983|10.1007/BF00564342|10.1007/BF00564344|10.1007/BF00564822|10.1007/BF00564830|10.1007/BF00564977|10.1007/BF00564986|10.1007/BF00565039|10.1007/BF00565258|10.1007/BF00565846|10.1007/BF00566073|10.1007/BF00566805|10.1007/BF00567323|10.1007/BF00567695|10.1007/BF00567817|10.1007/BF00568231|10.1007/BF00568233|10.1007/BF00570685|10.1007/BF00570862|10.1007/BF00571230|10.1007/BF00574388|10.1007/BF00574597|10.1007/BF00574598|10.1007/BF00574599|10.1007/BF00574600|10.1007/BF00575034|10.1007/BF00575163|10.1007/BF00575186|10.1007/BF00575191|10.1007/BF00575772|10.1007/BF00579069|10.1007/BF00579079|10.1007/BF00579084|10.1007/BF00579153|10.1007/BF00579439|10.1007/BF00579493|10.1007/BF00579494|10.1007/BF00579656|10.1007/BF00579781|10.1007/BF00579802|10.1007/BF00579835|10.1007/BF00580049|10.1007/BF00580572|10.1007/BF00580908|10.1007/BF00595084|10.1007/BF00597591|10.1007/BF00598091|10.1007/BF00598313|10.1007/BF00598365|10.1007/BF00598366|10.1007/BF00598601|10.1007/BF00598697|10.1007/BF00598775|10.1007/BF00598776|10.1007/BF00600846|10.1007/BF00601303|10.1007/BF00629773|10.1007/BF00629808|10.1007/BF00629809|10.1007/BF00629945|10.1007/BF00629946|10.1007/BF00630089|10.1007/BF00630133|10.1007/BF00630189|10.1007/BF00630191|10.1007/BF00630446|10.1007/BF00636001|10.1007/BF00713338|10.1007/BF00781092|10.1007/BF01041730|10.1007/BF01134634|10.1007/BF01926538|10.1007/BF02249699|10.1007/BF02319574|10.1007/BF02968244|10.1007/S10529-015-1825-1|10.1007/S10600-005-0219-3|10.1007/S10600-009-9174-8|10.1007/S10600-009-9230-4|10.1007/S10600-009-9246-9|10.1007/S10600-009-9330-1|10.1007/S10600-009-9388-9|10.1007/S10600-009-9405-Z|10.1007/S10600-009-9410-2|10.1007/S10600-010-9649-7|10.1007/S10600-010-9659-5|10.1007/S10600-011-0068-1|10.1007/S10600-011-9795-6|10.1007/S10600-012-0124-5|10.1007/S10600-015-1519-X|10.1007/S11306-016-1051-4|10.1007/S11418-008-0266-8|10.1007/S11418-009-0385-X|10.1007/SPRINGERREFERENCE_69384|10.1016/0021-9673(95)00248-L|10.1016/0031-9422(71)85045-8|10.1016/0031-9422(73)80593-X|10.1016/0031-9422(73)80702-2|10.1016/0031-9422(73)85135-0|10.1016/0031-9422(75)85267-8|10.1016/0031-9422(81)85288-0|10.1016/0031-9422(82)85265-5|10.1016/0031-9422(86)88036-0|10.1016/0031-9422(88)80039-6|10.1016/0031-9422(88)80695-2|10.1016/0031-9422(88)80782-9|10.1016/0031-9422(88)80815-X|10.1016/0031-9422(88)83146-7|10.1016/0031-9422(89)80402-9|10.1016/0031-9422(89)85042-3|10.1016/0031-9422(90)85290-V|10.1016/0031-9422(90)85307-2|10.1016/0031-9422(90)85357-L|10.1016/0031-9422(90)85418-F|10.1016/0031-9422(90)89054-D|10.1016/0031-9422(91)80014-R|10.1016/0031-9422(91)83038-M|10.1016/0031-9422(91)85044-Z|10.1016/0031-9422(91)85079-F|10.1016/0031-9422(91)85148-S|10.1016/0031-9422(91)85150-X|10.1016/0031-9422(91)85274-4|10.1016/0031-9422(92)83450-D|10.1016/0031-9422(92)83744-J|10.1016/0031-9422(92)83753-L|10.1016/0031-9422(94)00710-B|10.1016/0031-9422(95)00054-B|10.1016/0031-9422(95)00248-6|10.1016/0031-9422(95)00382-H|10.1016/0031-9422(95)00427-9|10.1016/0031-9422(95)00504-Z|10.1016/0031-9422(95)00783-0|10.1016/0031-9422(95)00790-3|10.1016/0031-9422(95)00930-2|10.1016/0031-9422(96)00062-3|10.1016/0031-9422(96)00160-4|10.1016/0305-1978(92)90072-L|10.1016/0305-1978(92)90104-L|10.1016/0305-1978(94)90036-1|10.1016/0305-1978(94)90077-9|10.1016/0378-8741(84)90048-5|10.1016/0378-8741(84)90088-6|10.1016/B978-1-4377-2333-5.00087-0|10.1016/J.BMC.2005.07.050|10.1016/J.BMCL.2013.04.081|10.1016/J.BMCL.2014.03.014|10.1016/J.CCLET.2009.11.015|10.1016/J.EJMECH.2008.06.003|10.1016/J.EJMECH.2012.09.007|10.1016/J.FITOTE.2009.07.002|10.1016/J.FITOTE.2014.08.010|10.1016/J.FOODRES.2017.06.052|10.1016/J.JEP.2007.05.015|10.1016/J.JEP.2008.06.025|10.1016/J.JPBA.2014.05.010|10.1016/J.LWT.2018.02.024|10.1016/J.PHYTOCHEM.2004.12.030|10.1016/J.PHYTOCHEM.2005.07.016|10.1016/J.PHYTOCHEM.2005.11.006|10.1016/J.PHYTOCHEM.2006.09.017|10.1016/J.PHYTOCHEM.2011.01.018|10.1016/J.PHYTOCHEM.2016.12.003|10.1016/J.PHYTOL.2011.08.013|10.1016/S0021-9258(18)74499-2|10.1016/S0021-9673(00)00321-6|10.1016/S0021-9673(01)84214-X|10.1016/S0021-9673(01)86861-8|10.1016/S0021-9673(01)97678-2|10.1016/S0031-9422(00)00323-X|10.1016/S0031-9422(00)00355-1|10.1016/S0031-9422(00)80481-1|10.1016/S0031-9422(00)80758-X|10.1016/S0031-9422(00)81695-7|10.1016/S0031-9422(00)81759-8|10.1016/S0031-9422(00)82233-5|10.1016/S0031-9422(00)82580-7|10.1016/S0031-9422(00)83142-8|10.1016/S0031-9422(00)83589-X|10.1016/S0031-9422(00)83758-9|10.1016/S0031-9422(00)83891-1|10.1016/S0031-9422(00)84814-1|10.1016/S0031-9422(00)88402-2|10.1016/S0031-9422(00)90376-5|10.1016/S0031-9422(00)95231-2|10.1016/S0031-9422(00)97039-0|10.1016/S0031-9422(01)00171-6|10.1016/S0031-9422(01)00246-1|10.1016/S0031-9422(02)00180-2|10.1016/S0031-9422(96)00451-7|10.1016/S0031-9422(96)00517-1|10.1016/S0031-9422(97)89023-1|10.1016/S0031-9422(98)00018-1|10.1016/S0031-9422(98)00181-2|10.1016/S0031-9422(98)00247-7|10.1016/S0031-9422(98)00354-9|10.1016/S0031-9422(98)00356-2|10.1016/S0031-9422(98)00383-5|10.1016/S0031-9422(98)00432-4|10.1016/S0031-9422(98)00519-6|10.1016/S0031-9422(98)00520-2|10.1016/S0031-9422(98)00588-3|10.1016/S0031-9422(98)00650-5|10.1016/S0031-9422(98)00671-2|10.1016/S0031-9422(98)00720-1|10.1016/S0031-9422(99)00023-0|10.1016/S0031-9422(99)00074-6|10.1016/S0031-9422(99)00305-2|10.1016/S0031-9422(99)00486-0|10.1016/S0040-4020(01)80874-7|10.1016/S0040-4039(01)01355-7|10.1016/S0168-9452(00)00381-2|10.1016/S0305-1978(00)00110-1|10.1016/S0367-326X(00)00165-9|10.1016/S0367-326X(01)00315-X|10.1016/S0367-326X(98)00043-4|10.1016/S0367-326X(99)00010-6|10.1016/S0378-8741(97)00048-2|10.1016/j.ejmech.2008.06.003|10.1016/j.ejmech.2012.09.007|10.1016/j.foodchem.2008.08.067|10.1016/j.jep.2007.05.015|10.1021/JF00089A050|10.1021/JF00111A051|10.1021/JF053071W|10.1021/NP000012Y|10.1021/NP000441W|10.1021/NP010091T|10.1021/NP010122K|10.1021/NP030034V|10.1021/NP030479J|10.1021/NP030479J.S001|10.1021/NP0600954.S001|10.1021/NP50001A008|10.1021/NP50021A026|10.1021/NP50026A020|10.1021/NP50037A033|10.1021/NP50046A031|10.1021/NP50046A035|10.1021/NP50065A009|10.1021/NP50087A013|10.1021/NP50093A015|10.1021/NP50094A023|10.1021/NP50102A017|10.1021/NP50113A012|10.1021/NP700719E|10.1021/NP800643N|10.1021/NP900158F|10.1021/NP900213W|10.1021/NP990619I|10.1021/ac900166a|10.1021/acs.jnatprod.0c00551|10.1021/jf0259361|10.1021/np100621c|10.1021/np50026a020|10.1021/np50046a031|10.1023/B:CONC.0000025456.09089.84|10.1023/B:JOCC.0000026275.39368.FC|10.1038/NBT.2488|10.1038/nbt.2488|10.1039/C6RA16251G|10.1039/JR9590001922|10.1039/P19900001593|10.1039/P19900002047|10.1055/S-0028-1097913|10.1055/S-0028-1099842|10.1055/S-0036-1596440|10.1055/S-1999-13965|10.1055/S-2000-8648|10.1055/S-2003-38876|10.1055/S-2005-871295|10.1055/S-2006-957398|10.1055/S-2006-957507|10.1055/S-2006-957946|10.1055/S-2006-957987|10.1055/S-2006-958106|10.1055/S-2006-959644|10.1055/S-2006-960014|10.1055/S-2006-961168|10.1055/S-2006-961611|10.1055/S-2006-962141|10.1055/S-2006-962355|10.1055/S-2007-969446|10.1055/s-2006-962158.pdf|10.1071/ch9640975|10.1076/PHBI.34.2.114.13188|10.1080/00021369.1977.10862469|10.1080/10286020.2011.586343|10.1080/10286020.2011.621892|10.1080/10286020108040373|10.1080/10286020290028992|10.1080/10286021003610144|10.1080/14786419.2010.551769|10.1104/PP.104.1.67|10.1128/AEM.46.2.468-474.1983|10.1128/aem.46.2.468-474.1983|10.1139/B89-194|10.1177/1934578X1501001222|10.1186/S12906-018-2154-4|10.1186/s12906-018-2154-4|10.1201/B10413-17|10.1248/CPB.16.1139|10.1248/CPB.22.957|10.1248/CPB.29.2565|10.1248/CPB.30.4518|10.1248/CPB.34.3249|10.1248/CPB.34.3631|10.1248/CPB.34.595|10.1248/CPB.35.4277|10.1248/CPB.39.2509|10.1248/CPB.40.3121|10.1248/CPB.42.2225|10.1248/CPB.47.1491|10.1248/CPB.49.151|10.1248/CPB.49.877|10.1248/CPB.50.137|10.1248/CPB.53.1118|10.1248/CPB.53.387|10.1248/CPB.53.701|10.1248/CPB.54.1308|10.1248/CPB.56.1349|10.1248/CPB.56.60|10.1248/CPB.56.827|10.1248/CPB.56.839|10.1248/CPB.59.1425|10.1248/CPB.60.554|10.1248/YAKUSHI1881.55.3_183|10.1248/YAKUSHI1947.103.3_279|10.1248/YAKUSHI1947.106.1_22|10.1248/YAKUSHI1947.107.7_525|10.1248/YAKUSHI1947.111.6_299|10.1248/YAKUSHI1947.87.9_1118|10.1271/BBB.100143|10.1271/BBB.56.1257|10.1271/BBB.68.1837|10.1271/BBB1961.41.205|10.1515/ZNC-1986-11-1215|10.15359/ru.37-1.17|10.1590/S0100-40422010001000024|10.1590/S0102-695X2008000100002|10.1590/S0103-50531997000300009|10.21608/BFSA.1995.69668|10.3109/13880209009082799|10.3390/MOLECULES16032268|10.3987/COM-02-9615|10.3987/COM-02-9696|10.3987/COM-11-12275|10.3987/COM-88-4771|10.3987/COM-90-5416|10.3987/COM-95-7310|10.3987/COM-99-8782|10.4067/S0366-16442000000100007|10.4268/CJCMM20102314|10.4268/CJCMM20141227|10.4268/CJCMM20141334|10.5012/BKCS.2004.25.7.1078|10.5012/JKCS.2010.54.6.701

>  <synonyms>  (399) 
nan

>  <cas>  (399) 
93-35-6|32922-68-2|142044-47-1

$$$$

     RDKit          2D

 19 21  0  0  0  0  0  0  0  0999 V2000
   -0.0410    2.7931    0.0000 C   0  0  0  0  0  0  0  0  0  0  0  0
   -0.2395    1.3063    0.0000 C   0  0  0  0  0  0  0  0  0  0  0  0
    0.9489    0.3910    0.0000 C   0  0  0  0  0  0  0  0  0  0  0  0
    0.7504   -1.0958    0.0000 C   0  0  0  0  0  0  0  0  0  0  0  0
   -0.6364   -1.6673    0.0000 C   0  0  0  0  0  0  0  0  0  0  0  0
   -1.8248   -0.7520    0.0000 C   0  0  0  0  0  0  0  0  0  0  0  0
   -1.6263    0.7348    0.0000 C   0  0  0  0  0  0  0  0  0  0  0  0
   -2.8147    1.6501    0.0000 C   0  0  0  0  0  0  0  0  0  0  0  0
   -4.2016    1.0786    0.0000 C   0  0  0  0  0  0  0  0  0  0  0  0
   -4.4000   -0.4082    0.0000 C   0  0  0  0  0  0  0  0  0  0  0  0
   -5.7869   -0.9797    0.0000 O   0  0  0  0  0  0  0  0  0  0  0  0
   -3.2117   -1.3235    0.0000 O   0  0  0  0  0  0  0  0  0  0  0  0
    1.9388   -2.0111    0.0000 C   0  0  0  0  0  0  0  0  0  0  0  0
    3.3257   -1.4396    0.0000 C   0  0  0  0  0  0  0  0  0  0  0  0
    4.7125   -0.8680    0.0000 C   0  0  0  0  0  0  0  0  0  0  0  0
    4.9110    0.6188    0.0000 C   0  0  0  0  0  0  0  0  0  0  0  0
    3.7226    1.5341    0.0000 C   0  0  0  0  0  0  0  0  0  0  0  0
    2.3358    0.9626    0.0000 C   0  0  0  0  0  0  0  0  0  0  0  0
    2.1373   -0.5243    0.0000 O   0  0  0  0  0  0  0  0  0  0  0  0
  1  2  1  0
  3  2  1  6
  3  4  1  0
  4  5  1  6
  6  5  1  6
  6  7  1  0
  7  8  1  0
  8  9  2  0
  9 10  1  0
 10 11  2  0
 10 12  1  0
  4 13  1  0
 14 13  1  6
 14 15  1  0
 15 16  1  0
 16 17  2  0
 18 17  1  6
 18 19  1  0
 18  3  1  0
 12  6  1  0
 19 14  1  0
M  END
>  <identifier>  (400) 
CNP0161644.1

>  <canonical_smiles>  (400) 
CC[C@H]1[C@@H](C[C@H]2CC=CC(=O)O2)C[C@H]2CC=C[C@@H]1O2

>  <standard_inchi>  (400) 
InChI=1S/C16H22O3/c1-2-14-11(9-12-5-3-7-15(14)18-12)10-13-6-4-8-16(17)19-13/h3-4,7-8,11-15H,2,5-6,9-10H2,1H3/t11-,12-,13-,14+,15+/m1/s1

>  <standard_inchi_key>  (400) 
QMTRJUQTPYAFTF-ZSAUSMIDSA-N

>  <name>  (400) 
nan

>  <iupac_name>  (400) 
(2~{R})-2-[[(1~{R},3~{R},4~{S},5~{S})-4-ethyl-9-oxabicyclo[3.3.1]non-6-en-3-yl]methyl]-2,3-dihydropyran-6-one

>  <annotation_level>  (400) 
5

>  <total_atom_count>  (400) 
41

>  <heavy_atom_count>  (400) 
19

>  <molecular_weight>  (400) 
262.35

>  <exact_molecular_weight>  (400) 
262.15689

>  <molecular_formula>  (400) 
C16H22O3

>  <alogp>  (400) 
3.01

>  <topological_polar_surface_area>  (400) 
35.53

>  <rotatable_bond_count>  (400) 
3

>  <hydrogen_bond_acceptors>  (400) 
3

>  <hydrogen_bond_donors>  (400) 
0

>  <hydrogen_bond_acceptors_lipinski>  (400) 
3

>  <hydrogen_bond_donors_lipinski>  (400) 
0

>  <lipinski_rule_of_five_violations>  (400) 
0

>  <aromatic_rings_count>  (400) 
0

>  <qed_drug_likeliness>  (400) 
0.58

>  <formal_charge>  (400) 
0

>  <fractioncsp3>  (400) 
0.69

>  <number_of_minimal_rings>  (400) 
3

>  <van_der_walls_volume>  (400) 
252.76

>  <contains_sugar>  (400) 
False

>  <contains_ring_sugars>  (400) 
False

>  <contains_linear_sugars>  (400) 
False

>  <murcko_framework>  (400) 
O1CC=CCC1CC2CC3OC(CC=C3)C2

>  <np_likeness>  (400) 
2.70

>  <chemical_class>  (400) 
Pyrans

>  <chemical_sub_class>  (400) 
Pyranones and derivatives

>  <chemical_super_class>  (400) 
Organoheterocyclic compounds

>  <direct_parent_classification>  (400) 
Dihydropyranones

>  <np_classifier_pathway>  (400) 
Polyketides

>  <np_classifier_superclass>  (400) 
Macrolides

>  <np_classifier_class>  (400) 
Macrolide lactones

>  <np_classifier_is_glycoside>  (400) 
False

>  <organisms>  (400) 
Cryptocarya aschersoniana

>  <collections>  (400) 
ChemSpider NPs|Latin America dataset|NuBBEDB|ZINC NP

>  <dois>  (400) 
nan

>  <synonyms>  (400) 
6-[(4'-ethyl-9'-oxabicyclo[3.3.1]non-6'-en-3'-yl)methyl]-56-dihydro-2Hpyran-2-one

>  <cas>  (400) 
nan

$$$$

     RDKit          2D

 20 23  0  0  0  0  0  0  0  0999 V2000
   -5.1060   -1.2276    0.0000 C   0  0  0  0  0  0  0  0  0  0  0  0
   -3.7116   -0.6747    0.0000 C   0  0  0  0  0  0  0  0  0  0  0  0
   -2.4447   -1.4778    0.0000 C   0  0  0  0  0  0  0  0  0  0  0  0
   -1.2895   -0.5210    0.0000 C   0  0  0  0  0  0  0  0  0  0  0  0
   -0.5938   -1.8499    0.0000 C   0  0  0  0  0  0  0  0  0  0  0  0
    0.9049   -1.9119    0.0000 C   0  0  0  0  0  0  0  0  0  0  0  0
    1.7080   -0.6450    0.0000 C   0  0  0  0  0  0  0  0  0  0  0  0
    3.2067   -0.7070    0.0000 C   0  0  0  0  0  0  0  0  0  0  0  0
    4.5938   -1.2779    0.0000 C   0  0  0  0  0  0  0  0  0  0  0  0
    2.8854   -2.1722    0.0000 C   0  0  0  0  0  0  0  0  0  0  0  0
    4.0097    0.5599    0.0000 C   0  0  0  0  0  0  0  0  0  0  0  0
    3.3141    1.8888    0.0000 C   0  0  0  0  0  0  0  0  0  0  0  0
    1.8154    1.9509    0.0000 C   0  0  0  0  0  0  0  0  0  0  0  0
    1.0123    0.6839    0.0000 C   0  0  0  0  0  0  0  0  0  0  0  0
    0.3166    2.0129    0.0000 C   0  0  0  0  0  0  0  0  0  0  0  0
   -0.4864    0.7459    0.0000 C   0  0  0  0  0  0  0  0  0  0  0  0
   -1.1821    2.0749    0.0000 C   0  0  0  0  0  0  0  0  0  0  0  0
   -2.6808    2.1369    0.0000 C   0  0  0  0  0  0  0  0  0  0  0  0
   -3.4838    0.8699    0.0000 C   0  0  0  0  0  0  0  0  0  0  0  0
   -2.7882   -0.4590    0.0000 C   0  0  0  0  0  0  0  0  0  0  0  0
  1  2  1  0
  2  3  2  0
  3  4  1  0
  4  5  1  1
  5  6  1  0
  7  6  1  6
  7  8  1  0
  8  9  1  0
  8 10  1  0
  8 11  1  0
 11 12  1  0
 12 13  1  0
 13 14  1  0
 14 15  1  6
 14 16  1  0
 16 17  1  0
 17 18  1  0
 19 18  1  6
 19 20  1  0
 19  2  1  0
 16  4  1  0
 20  4  1  0
 14  7  1  0
M  END
>  <identifier>  (401) 
CNP0229692.2

>  <canonical_smiles>  (401) 
CC1=C[C@@]23CC[C@H]4C(C)(C)CCC[C@]4(C)C2CC[C@@H]1C3

>  <standard_inchi>  (401) 
InChI=1S/C20H32/c1-14-12-20-11-8-16-18(2,3)9-5-10-19(16,4)17(20)7-6-15(14)13-20/h12,15-17H,5-11,13H2,1-4H3/t15-,16+,17?,19+,20-/m1/s1

>  <standard_inchi_key>  (401) 
DQUHDYWUEKWRLN-HVTKSUFJSA-N

>  <name>  (401) 
nan

>  <iupac_name>  (401) 
(1~{S},4~{S},9~{S},13~{R})-5,5,9,14-tetramethyltetracyclo[11.2.1.0^{1,10}.0^{4,9}]hexadec-14-ene

>  <annotation_level>  (401) 
4

>  <total_atom_count>  (401) 
52

>  <heavy_atom_count>  (401) 
20

>  <molecular_weight>  (401) 
272.48

>  <exact_molecular_weight>  (401) 
272.2504

>  <molecular_formula>  (401) 
C20H32

>  <alogp>  (401) 
5.98

>  <topological_polar_surface_area>  (401) 
0.00

>  <rotatable_bond_count>  (401) 
0

>  <hydrogen_bond_acceptors>  (401) 
0

>  <hydrogen_bond_donors>  (401) 
0

>  <hydrogen_bond_acceptors_lipinski>  (401) 
0

>  <hydrogen_bond_donors_lipinski>  (401) 
0

>  <lipinski_rule_of_five_violations>  (401) 
1

>  <aromatic_rings_count>  (401) 
0

>  <qed_drug_likeliness>  (401) 
0.48

>  <formal_charge>  (401) 
0

>  <fractioncsp3>  (401) 
0.90

>  <number_of_minimal_rings>  (401) 
4

>  <van_der_walls_volume>  (401) 
nan

>  <contains_sugar>  (401) 
False

>  <contains_ring_sugars>  (401) 
False

>  <contains_linear_sugars>  (401) 
False

>  <murcko_framework>  (401) 
C1=CC23CCC4CCCCC4C3CCC1C2

>  <np_likeness>  (401) 
2.92

>  <chemical_class>  (401) 
Prenol lipids

>  <chemical_sub_class>  (401) 
Diterpenoids

>  <chemical_super_class>  (401) 
Lipids and lipid-like molecules

>  <direct_parent_classification>  (401) 
Kaurane diterpenoids

>  <np_classifier_pathway>  (401) 
Terpenoids

>  <np_classifier_superclass>  (401) 
Diterpenoids

>  <np_classifier_class>  (401) 
Kaurane and Phyllocladane diterpenoids

>  <np_classifier_is_glycoside>  (401) 
False

>  <organisms>  (401) 
Podocarpus lambereis

>  <collections>  (401) 
Latin America dataset|NuBBEDB

>  <dois>  (401) 
10.1016/0031-9422(75)85047-3

>  <synonyms>  (401) 
Isophyllocladene

>  <cas>  (401) 
nan

$$$$

     RDKit          2D

 16 17  0  0  0  0  0  0  0  0999 V2000
   -5.1340   -0.5202    0.0000 C   0  0  0  0  0  0  0  0  0  0  0  0
   -3.8659    0.2810    0.0000 O   0  0  0  0  0  0  0  0  0  0  0  0
   -2.5380   -0.4166    0.0000 C   0  0  0  0  0  0  0  0  0  0  0  0
   -2.4782   -1.9154    0.0000 O   0  0  0  0  0  0  0  0  0  0  0  0
   -1.2699    0.3846    0.0000 C   0  0  0  0  0  0  0  0  0  0  0  0
   -1.3297    1.8835    0.0000 C   0  0  0  0  0  0  0  0  0  0  0  0
   -0.0616    2.6847    0.0000 O   0  0  0  0  0  0  0  0  0  0  0  0
    1.2663    1.9871    0.0000 C   0  0  0  0  0  0  0  0  0  0  0  0
    2.5344    2.7883    0.0000 O   0  0  0  0  0  0  0  0  0  0  0  0
    1.3261    0.4883    0.0000 C   0  0  0  0  0  0  0  0  0  0  0  0
    2.4799   -0.4702    0.0000 C   0  0  0  0  0  0  0  0  0  0  0  0
    3.9336   -0.1000    0.0000 C   0  0  0  0  0  0  0  0  0  0  0  0
    1.9250   -1.8637    0.0000 C   0  0  0  0  0  0  0  0  0  0  0  0
    2.7262   -3.1318    0.0000 O   0  0  0  0  0  0  0  0  0  0  0  0
    0.4281   -1.7666    0.0000 C   0  0  0  0  0  0  0  0  0  0  0  0
    0.0580   -0.3129    0.0000 C   0  0  0  0  0  0  0  0  0  0  0  0
  1  2  1  0
  2  3  1  0
  3  4  2  0
  3  5  1  0
  5  6  2  0
  6  7  1  0
  7  8  1  0
  8  9  1  6
 10  8  1  6
 10 11  1  0
 11 12  1  1
 11 13  1  0
 13 14  1  1
 13 15  1  0
 16 15  1  6
 16  5  1  0
 16 10  1  0
M  END
>  <identifier>  (402) 
CNP0117073.1

>  <canonical_smiles>  (402) 
COC(=O)C1=CO[C@H](O)[C@@H]2[C@@H](C)[C@@H](O)C[C@H]12

>  <standard_inchi>  (402) 
InChI=1S/C11H16O5/c1-5-8(12)3-6-7(10(13)15-2)4-16-11(14)9(5)6/h4-6,8-9,11-12,14H,3H2,1-2H3/t5-,6+,8-,9+,11-/m0/s1

>  <standard_inchi_key>  (402) 
XWOHZIIPBYAMJX-VXTVJQJOSA-N

>  <name>  (402) 
nan

>  <iupac_name>  (402) 
methyl (1~{S},4~{a}~{S},6~{S},7~{R},7~{a}~{S})-1,6-dihydroxy-7-methyl-1,4~{a},5,6,7,7~{a}-hexahydrocyclopenta[c]pyran-4-carboxylate

>  <annotation_level>  (402) 
5

>  <total_atom_count>  (402) 
32

>  <heavy_atom_count>  (402) 
16

>  <molecular_weight>  (402) 
228.24

>  <exact_molecular_weight>  (402) 
228.09977

>  <molecular_formula>  (402) 
C11H16O5

>  <alogp>  (402) 
0.02

>  <topological_polar_surface_area>  (402) 
75.99

>  <rotatable_bond_count>  (402) 
1

>  <hydrogen_bond_acceptors>  (402) 
5

>  <hydrogen_bond_donors>  (402) 
2

>  <hydrogen_bond_acceptors_lipinski>  (402) 
5

>  <hydrogen_bond_donors_lipinski>  (402) 
2

>  <lipinski_rule_of_five_violations>  (402) 
0

>  <aromatic_rings_count>  (402) 
0

>  <qed_drug_likeliness>  (402) 
0.62

>  <formal_charge>  (402) 
0

>  <fractioncsp3>  (402) 
0.73

>  <number_of_minimal_rings>  (402) 
2

>  <van_der_walls_volume>  (402) 
204.18

>  <contains_sugar>  (402) 
False

>  <contains_ring_sugars>  (402) 
False

>  <contains_linear_sugars>  (402) 
False

>  <murcko_framework>  (402) 
O1C=CC2CCCC2C1

>  <np_likeness>  (402) 
2.79

>  <chemical_class>  (402) 
Prenol lipids

>  <chemical_sub_class>  (402) 
Monoterpenoids

>  <chemical_super_class>  (402) 
Lipids and lipid-like molecules

>  <direct_parent_classification>  (402) 
Iridoids and derivatives

>  <np_classifier_pathway>  (402) 
Terpenoids

>  <np_classifier_superclass>  (402) 
Monoterpenoids

>  <np_classifier_class>  (402) 
Iridoids monoterpenoids

>  <np_classifier_is_glycoside>  (402) 
True

>  <organisms>  (402) 
Alibertia macrophylla|Cordiera macrophylla

>  <collections>  (402) 
ChemSpider NPs|Latin America dataset|NuBBEDB|Super Natural II|WikiData Natural Products|ZINC NP

>  <dois>  (402) 
10.1016/0031-9422(92)83701-Y

>  <synonyms>  (402) 
1-Epiloganetin

>  <cas>  (402) 
nan

$$$$

     RDKit          2D

 16 17  0  0  0  0  0  0  0  0999 V2000
   -3.6274   -1.8830    0.0000 C   0  0  0  0  0  0  0  0  0  0  0  0
   -3.3683   -0.4056    0.0000 C   0  0  0  0  0  0  0  0  0  0  0  0
   -4.5182    0.5576    0.0000 C   0  0  0  0  0  0  0  0  0  0  0  0
   -1.9592    0.1087    0.0000 C   0  0  0  0  0  0  0  0  0  0  0  0
   -1.7001    1.5862    0.0000 C   0  0  0  0  0  0  0  0  0  0  0  0
   -0.2910    2.1005    0.0000 C   0  0  0  0  0  0  0  0  0  0  0  0
    0.8589    1.1373    0.0000 C   0  0  0  0  0  0  0  0  0  0  0  0
    1.1181    2.6148    0.0000 C   0  0  0  0  0  0  0  0  0  0  0  0
    2.2680    1.6516    0.0000 C   0  0  0  0  0  0  0  0  0  0  0  0
    3.4179    0.6885    0.0000 C   0  0  0  0  0  0  0  0  0  0  0  0
    3.1588   -0.7889    0.0000 C   0  0  0  0  0  0  0  0  0  0  0  0
    1.7497   -1.3032    0.0000 C   0  0  0  0  0  0  0  0  0  0  0  0
    0.6015   -2.2685    0.0000 C   0  0  0  0  0  0  0  0  0  0  0  0
    2.5009   -2.6016    0.0000 O   0  0  0  0  0  0  0  0  0  0  0  0
    0.5998   -0.3401    0.0000 C   0  0  0  0  0  0  0  0  0  0  0  0
   -0.8093   -0.8544    0.0000 C   0  0  0  0  0  0  0  0  0  0  0  0
  1  2  2  0
  2  3  1  0
  4  2  1  6
  4  5  1  0
  5  6  1  0
  6  7  1  0
  7  8  1  6
  7  9  1  0
  9 10  1  0
 10 11  1  0
 11 12  1  0
 12 13  1  6
 12 14  1  0
 12 15  1  0
 15 16  1  6
 16  4  1  0
 15  7  1  0
M  END
>  <identifier>  (403) 
CNP0248491.2

>  <canonical_smiles>  (403) 
C=C(C)[C@@H]1CC[C@@]2(C)CCC[C@@](C)(O)[C@@H]2C1

>  <standard_inchi>  (403) 
InChI=1S/C15H26O/c1-11(2)12-6-9-14(3)7-5-8-15(4,16)13(14)10-12/h12-13,16H,1,5-10H2,2-4H3/t12-,13-,14-,15-/m1/s1

>  <standard_inchi_key>  (403) 
DPQYOKVMVCQHMY-KBUPBQIOSA-N

>  <name>  (403) 
(+/-)-11-Selinen-4alpha-ol

>  <iupac_name>  (403) 
(1~{R},4~{a}~{R},7~{R},8~{a}~{R})-7-isopropenyl-1,4~{a}-dimethyl-decalin-1-ol

>  <annotation_level>  (403) 
5

>  <total_atom_count>  (403) 
42

>  <heavy_atom_count>  (403) 
16

>  <molecular_weight>  (403) 
222.37

>  <exact_molecular_weight>  (403) 
222.19837

>  <molecular_formula>  (403) 
C15H26O

>  <alogp>  (403) 
3.92

>  <topological_polar_surface_area>  (403) 
20.23

>  <rotatable_bond_count>  (403) 
1

>  <hydrogen_bond_acceptors>  (403) 
1

>  <hydrogen_bond_donors>  (403) 
1

>  <hydrogen_bond_acceptors_lipinski>  (403) 
1

>  <hydrogen_bond_donors_lipinski>  (403) 
1

>  <lipinski_rule_of_five_violations>  (403) 
0

>  <aromatic_rings_count>  (403) 
0

>  <qed_drug_likeliness>  (403) 
0.67

>  <formal_charge>  (403) 
0

>  <fractioncsp3>  (403) 
0.87

>  <number_of_minimal_rings>  (403) 
2

>  <van_der_walls_volume>  (403) 
237.81

>  <contains_sugar>  (403) 
False

>  <contains_ring_sugars>  (403) 
False

>  <contains_linear_sugars>  (403) 
False

>  <murcko_framework>  (403) 
C1CCC2CCCCC2C1

>  <np_likeness>  (403) 
2.99

>  <chemical_class>  (403) 
Prenol lipids

>  <chemical_sub_class>  (403) 
Sesquiterpenoids

>  <chemical_super_class>  (403) 
Lipids and lipid-like molecules

>  <direct_parent_classification>  (403) 
Eudesmane, isoeudesmane or cycloeudesmane sesquiterpenoids

>  <np_classifier_pathway>  (403) 
Terpenoids

>  <np_classifier_superclass>  (403) 
Sesquiterpenoids

>  <np_classifier_class>  (403) 
Eudesmane sesquiterpenoids

>  <np_classifier_is_glycoside>  (403) 
False

>  <organisms>  (403) 
Acorus calamus|Acrantophis dumerili|Ajuga chia|Alpinia oxyoxyphylla|Alpinia oxyphylla|Anacyclus clavatus|Anthemis aciphylla|Anthemis aciphylla BOISS.var.discoidea BOISS|Artemisia Annua|Artemisia annua|Artemisia annua L.cultivar Jwarharti|Artemisia barrelieri|Attalea cohune|Bidens tripartita|Blattella germanica|Buchnerodendron speciosum|Cardamine impatiens|Cardamine komarovii|Cedrela odorata|Cistus creticus|Dysidea etheria|Erlangea fusca|Eucalyptus decaisneana|Halichondria cylindrata|Helichrysum nanum|Illicium floridanum|Justicia hyssopifolia|Ligusticum jeholense|Litophyton brassicum|Manekia naranjoana|Mangifera indica|Melaleuca acacioides|Melaleuca cajuputi|Montanoa frutescens|Murraya koenigii|Ocotea gomezii|Ocotea pulchella|Ocotea usambarensis|Panicum dichotomiflorum|Penicillium striatisporum|Peucedanum paniculatum|Peucedanum paniculatum L.|Piper nigrum|Podocarpus dacrydiodes|Podocarpus dacrydioides|Psidium guajava|Salvia carduacea|Schisandra henryi|Schkuhria pusilla|Scrophularia lepidota|Setosphaeria turcica|Valeriana officinalis L.|Valeriana prionophylla|Veratrum album subsp. lobelianum

>  <collections>  (403) 
Australian natural products|CMAUP (cCollective molecular activities of useful plants)|ChemSpider NPs|FooDB|KNApSaCK|Latin America dataset|NAPRORE-CR|NPASS|NPEdia|NuBBEDB|Phyto4Health|Super Natural II|TIPdb (database of Taiwan indigenous plants)|VietHerb|WikiData Natural Products

>  <dois>  (403) 
10.1007/S11418-007-0175-2|10.1016/0031-9422(91)80088-I|10.1016/J.PHYTOCHEM.2005.07.001|10.1016/J.PHYTOCHEM.2009.06.013|10.1016/S0031-9422(00)95115-X|10.1021/JF0402633|10.1021/JO040272A|10.1021/NP020078O|10.1021/NP030475E|10.1021/NP990212D|10.1021/np020078o|10.1055/S-2006-958052|10.1080/10412905.2000.9699486|10.1080/10412905.2009.9700137|10.1080/10412905.2010.9700304|10.1089/jmf.2010.0066|10.1177/1934578X1100600135|10.1248/CPB.54.222|10.1590/S0103-50532000000600012|10.1590/S0103-50532011000400018|10.3390/MOLECULES24234244

>  <synonyms>  (403) 
(-)-Selin-11-en-4-ol|(1R,4aR,7R,8aR)-1,4a-dimethyl-7-prop-1-en-2-yl-2,3,4,5,6,7,8,8a-octahydronaphthalen-1-ol|16641-47-7|CHEMBL505457|DPQYOKVMVCQHMY-KBUPBQIOSA-N|Kongol|Q63392694|SCHEMBL6513304|Selin-11-en-4 .alpha.-ol|cis-Selinen-4-ol|selin-11-en-4_-ol|selin-11-en-4alpha-ol

>  <cas>  (403) 
16641-47-7

$$$$

     RDKit          2D

 23 26  0  0  0  0  0  0  0  0999 V2000
    2.4320    2.5691    0.0000 C   0  0  0  0  0  0  0  0  0  0  0  0
    2.9020    1.1447    0.0000 C   0  0  0  0  0  0  0  0  0  0  0  0
    4.2232    1.8549    0.0000 C   0  0  0  0  0  0  0  0  0  0  0  0
    3.8309   -0.0331    0.0000 C   0  0  0  0  0  0  0  0  0  0  0  0
    5.3153    0.1824    0.0000 O   0  0  0  0  0  0  0  0  0  0  0  0
    3.2753   -1.4264    0.0000 C   0  0  0  0  0  0  0  0  0  0  0  0
    4.2041   -2.6042    0.0000 O   0  0  0  0  0  0  0  0  0  0  0  0
    1.7908   -1.6419    0.0000 C   0  0  0  0  0  0  0  0  0  0  0  0
    0.8620   -0.4641    0.0000 C   0  0  0  0  0  0  0  0  0  0  0  0
    0.3064   -1.8575    0.0000 C   0  0  0  0  0  0  0  0  0  0  0  0
    1.4176    0.9292    0.0000 C   0  0  0  0  0  0  0  0  0  0  0  0
    0.4887    2.1070    0.0000 C   0  0  0  0  0  0  0  0  0  0  0  0
   -0.9957    1.8915    0.0000 C   0  0  0  0  0  0  0  0  0  0  0  0
   -1.5513    0.4981    0.0000 C   0  0  0  0  0  0  0  0  0  0  0  0
   -3.0358    0.2826    0.0000 C   0  0  0  0  0  0  0  0  0  0  0  0
   -3.5913   -1.1107    0.0000 C   0  0  0  0  0  0  0  0  0  0  0  0
   -2.6625   -2.2885    0.0000 C   0  0  0  0  0  0  0  0  0  0  0  0
   -1.1780   -2.0730    0.0000 C   0  0  0  0  0  0  0  0  0  0  0  0
   -0.6225   -0.6797    0.0000 C   0  0  0  0  0  0  0  0  0  0  0  0
   -4.1108    0.2965    0.0000 C   0  0  0  0  0  0  0  0  0  0  0  0
   -5.4560   -0.3672    0.0000 C   0  0  0  0  0  0  0  0  0  0  0  0
   -4.9114    1.5649    0.0000 O   0  0  0  0  0  0  0  0  0  0  0  0
   -2.9330    1.2254    0.0000 C   0  0  0  0  0  0  0  0  0  0  0  0
  1  2  1  0
  2  3  1  0
  2  4  1  0
  4  5  1  6
  4  6  1  0
  6  7  1  1
  6  8  1  0
  8  9  1  0
  9 10  1  6
  9 11  1  0
 11 12  1  6
 12 13  1  0
 14 13  1  6
 14 15  1  0
 15 16  1  0
 16 17  1  1
 17 18  1  0
 19 18  1  6
 16 20  1  0
 20 21  1  1
 20 22  1  0
 20 23  1  0
 11  2  1  0
 19 14  1  0
 19  9  1  0
 23 14  1  0
M  END
>  <identifier>  (404) 
CNP0195876.1

>  <canonical_smiles>  (404) 
CC1(C)[C@H](O)[C@@H](O)C[C@]2(C)[C@@H]1CC[C@@]13C[C@@H](CC[C@H]12)[C@](C)(O)C3

>  <standard_inchi>  (404) 
InChI=1S/C20H34O3/c1-17(2)14-7-8-20-9-12(19(4,23)11-20)5-6-15(20)18(14,3)10-13(21)16(17)22/h12-16,21-23H,5-11H2,1-4H3/t12-,13+,14-,15+,16-,18-,19-,20+/m1/s1

>  <standard_inchi_key>  (404) 
GLYCFUXCSVKFRB-CSMKTOTHSA-N

>  <name>  (404) 
nan

>  <iupac_name>  (404) 
(1~{S},4~{S},6~{S},7~{S},9~{S},10~{R},13~{R},14~{R})-5,5,9,14-tetramethyltetracyclo[11.2.1.0^{1,10}.0^{4,9}]hexadecane-6,7,14-triol

>  <annotation_level>  (404) 
5

>  <total_atom_count>  (404) 
57

>  <heavy_atom_count>  (404) 
23

>  <molecular_weight>  (404) 
322.49

>  <exact_molecular_weight>  (404) 
322.25079

>  <molecular_formula>  (404) 
C20H34O3

>  <alogp>  (404) 
3.11

>  <topological_polar_surface_area>  (404) 
60.69

>  <rotatable_bond_count>  (404) 
0

>  <hydrogen_bond_acceptors>  (404) 
3

>  <hydrogen_bond_donors>  (404) 
3

>  <hydrogen_bond_acceptors_lipinski>  (404) 
3

>  <hydrogen_bond_donors_lipinski>  (404) 
3

>  <lipinski_rule_of_five_violations>  (404) 
0

>  <aromatic_rings_count>  (404) 
0

>  <qed_drug_likeliness>  (404) 
0.64

>  <formal_charge>  (404) 
0

>  <fractioncsp3>  (404) 
1.00

>  <number_of_minimal_rings>  (404) 
4

>  <van_der_walls_volume>  (404) 
318.18

>  <contains_sugar>  (404) 
False

>  <contains_ring_sugars>  (404) 
False

>  <contains_linear_sugars>  (404) 
False

>  <murcko_framework>  (404) 
C1CCC2C(C1)CCC34CCC(CCC23)C4

>  <np_likeness>  (404) 
3.43

>  <chemical_class>  (404) 
Prenol lipids

>  <chemical_sub_class>  (404) 
Diterpenoids

>  <chemical_super_class>  (404) 
Lipids and lipid-like molecules

>  <direct_parent_classification>  (404) 
Kaurane diterpenoids

>  <np_classifier_pathway>  (404) 
Terpenoids

>  <np_classifier_superclass>  (404) 
Diterpenoids

>  <np_classifier_class>  (404) 
Kaurane and Phyllocladane diterpenoids

>  <np_classifier_is_glycoside>  (404) 
False

>  <organisms>  (404) 
Alibertia macrophylla|Cordiera macrophylla

>  <collections>  (404) 
ChemSpider NPs|Latin America dataset|NuBBEDB|Super Natural II|WikiData Natural Products|ZINC NP

>  <dois>  (404) 
10.1002/HLCA.200790187|10.1002/hlca.200790187

>  <synonyms>  (404) 
Ent-kaurane-2\u221a\u00e9\u00ac\u22643\u221a\u00e9\u00ac\u00b116\u221a\u00e9\u00ac\u00b1-triol

>  <cas>  (404) 
nan

$$$$

     RDKit          2D

 21 23  0  0  0  0  0  0  0  0999 V2000
   -4.7369    1.9665    0.0000 C   0  0  0  0  0  0  0  0  0  0  0  0
   -4.6823    0.4675    0.0000 C   0  0  0  0  0  0  0  0  0  0  0  0
   -3.3568   -0.2347    0.0000 C   0  0  0  0  0  0  0  0  0  0  0  0
   -4.2785   -1.4181    0.0000 C   0  0  0  0  0  0  0  0  0  0  0  0
   -2.8955    1.1926    0.0000 C   0  0  0  0  0  0  0  0  0  0  0  0
   -1.4287    1.5067    0.0000 C   0  0  0  0  0  0  0  0  0  0  0  0
   -0.4233    0.3935    0.0000 C   0  0  0  0  0  0  0  0  0  0  0  0
   -0.8847   -1.0338    0.0000 C   0  0  0  0  0  0  0  0  0  0  0  0
   -2.3514   -1.3479    0.0000 C   0  0  0  0  0  0  0  0  0  0  0  0
    0.1207   -2.1470    0.0000 C   0  0  0  0  0  0  0  0  0  0  0  0
   -0.3406   -3.5743    0.0000 O   0  0  0  0  0  0  0  0  0  0  0  0
    1.5875   -1.8329    0.0000 C   0  0  0  0  0  0  0  0  0  0  0  0
    2.0488   -0.4056    0.0000 C   0  0  0  0  0  0  0  0  0  0  0  0
    3.5156   -0.0915    0.0000 C   0  0  0  0  0  0  0  0  0  0  0  0
    5.0013   -0.2980    0.0000 C   0  0  0  0  0  0  0  0  0  0  0  0
    3.5702   -1.5905    0.0000 C   0  0  0  0  0  0  0  0  0  0  0  0
    3.9769    1.3358    0.0000 C   0  0  0  0  0  0  0  0  0  0  0  0
    2.9715    2.4490    0.0000 C   0  0  0  0  0  0  0  0  0  0  0  0
    1.5048    2.1349    0.0000 C   0  0  0  0  0  0  0  0  0  0  0  0
    1.0434    0.7076    0.0000 C   0  0  0  0  0  0  0  0  0  0  0  0
    0.0380    1.8208    0.0000 C   0  0  0  0  0  0  0  0  0  0  0  0
  1  2  2  0
  2  3  1  0
  3  4  1  6
  3  5  1  0
  5  6  1  0
  6  7  1  0
  7  8  2  0
  8  9  1  0
  8 10  1  0
 10 11  2  0
 10 12  1  0
 13 12  1  6
 13 14  1  0
 14 15  1  0
 14 16  1  0
 14 17  1  0
 17 18  1  0
 18 19  1  0
 19 20  1  0
 20 21  1  6
  9  3  1  0
 20 13  1  0
 20  7  1  0
M  END
>  <identifier>  (405) 
CNP0113433.1

>  <canonical_smiles>  (405) 
C=C[C@@]1(C)CCC2=C(C1)C(=O)C[C@H]1C(C)(C)CCC[C@]21C

>  <standard_inchi>  (405) 
InChI=1S/C20H30O/c1-6-19(4)11-8-15-14(13-19)16(21)12-17-18(2,3)9-7-10-20(15,17)5/h6,17H,1,7-13H2,2-5H3/t17-,19-,20+/m0/s1

>  <standard_inchi_key>  (405) 
LXOJVQYILBGEEP-YSIASYRMSA-N

>  <name>  (405) 
nan

>  <iupac_name>  (405) 
(4~{a}~{S},7~{S},10~{a}~{S})-1,1,4~{a},7-tetramethyl-7-vinyl-2,3,4,5,6,8,10,10~{a}-octahydrophenanthren-9-one

>  <annotation_level>  (405) 
3

>  <total_atom_count>  (405) 
51

>  <heavy_atom_count>  (405) 
21

>  <molecular_weight>  (405) 
286.46

>  <exact_molecular_weight>  (405) 
286.22967

>  <molecular_formula>  (405) 
C20H30O

>  <alogp>  (405) 
5.46

>  <topological_polar_surface_area>  (405) 
17.07

>  <rotatable_bond_count>  (405) 
1

>  <hydrogen_bond_acceptors>  (405) 
1

>  <hydrogen_bond_donors>  (405) 
0

>  <hydrogen_bond_acceptors_lipinski>  (405) 
1

>  <hydrogen_bond_donors_lipinski>  (405) 
0

>  <lipinski_rule_of_five_violations>  (405) 
1

>  <aromatic_rings_count>  (405) 
0

>  <qed_drug_likeliness>  (405) 
0.58

>  <formal_charge>  (405) 
0

>  <fractioncsp3>  (405) 
0.75

>  <number_of_minimal_rings>  (405) 
3

>  <van_der_walls_volume>  (405) 
nan

>  <contains_sugar>  (405) 
False

>  <contains_ring_sugars>  (405) 
False

>  <contains_linear_sugars>  (405) 
False

>  <murcko_framework>  (405) 
C12=C(CCCC1)C3CCCCC3CC2

>  <np_likeness>  (405) 
3.42

>  <chemical_class>  (405) 
Prenol lipids

>  <chemical_sub_class>  (405) 
Diterpenoids

>  <chemical_super_class>  (405) 
Lipids and lipid-like molecules

>  <direct_parent_classification>  (405) 
Diterpenoids

>  <np_classifier_pathway>  (405) 
Terpenoids

>  <np_classifier_superclass>  (405) 
Diterpenoids

>  <np_classifier_class>  (405) 
Norpimarane and Norisopimarane diterpenoids

>  <np_classifier_is_glycoside>  (405) 
False

>  <organisms>  (405) 
Salvia parryi|Vellozia compacta

>  <collections>  (405) 
Latin America dataset|NuBBEDB|Super Natural II|WikiData Natural Products|ZINC NP

>  <dois>  (405) 
10.1016/S0031-9422(00)82735-1|10.1016/S0031-9422(96)00807-2

>  <synonyms>  (405) 
nan

>  <cas>  (405) 
nan

$$$$

     RDKit          2D

 34 38  0  0  0  0  0  0  0  0999 V2000
   -8.7116   -0.6105    0.0000 C   0  0  0  0  0  0  0  0  0  0  0  0
   -7.2592   -0.2356    0.0000 O   0  0  0  0  0  0  0  0  0  0  0  0
   -6.2083   -1.3059    0.0000 C   0  0  0  0  0  0  0  0  0  0  0  0
   -6.6098   -2.7512    0.0000 O   0  0  0  0  0  0  0  0  0  0  0  0
   -4.7559   -0.9309    0.0000 C   0  0  0  0  0  0  0  0  0  0  0  0
   -4.6389   -2.4264    0.0000 C   0  0  0  0  0  0  0  0  0  0  0  0
   -5.3774    0.4343    0.0000 C   0  0  0  0  0  0  0  0  0  0  0  0
   -4.5058    1.6551    0.0000 C   0  0  0  0  0  0  0  0  0  0  0  0
   -3.0128    1.5107    0.0000 C   0  0  0  0  0  0  0  0  0  0  0  0
   -3.6343    2.8759    0.0000 C   0  0  0  0  0  0  0  0  0  0  0  0
   -2.1412    2.7315    0.0000 C   0  0  0  0  0  0  0  0  0  0  0  0
   -0.6482    2.5871    0.0000 C   0  0  0  0  0  0  0  0  0  0  0  0
   -0.0267    1.2219    0.0000 C   0  0  0  0  0  0  0  0  0  0  0  0
    0.8448    2.4427    0.0000 C   0  0  0  0  0  0  0  0  0  0  0  0
    1.4663    1.0775    0.0000 C   0  0  0  0  0  0  0  0  0  0  0  0
    2.3379    2.2983    0.0000 C   0  0  0  0  0  0  0  0  0  0  0  0
    3.8309    2.1539    0.0000 C   0  0  0  0  0  0  0  0  0  0  0  0
    4.4524    0.7887    0.0000 C   0  0  0  0  0  0  0  0  0  0  0  0
    3.5808   -0.4321    0.0000 C   0  0  0  0  0  0  0  0  0  0  0  0
    4.2023   -1.7973    0.0000 C   0  0  0  0  0  0  0  0  0  0  0  0
    5.6953   -1.9417    0.0000 C   0  0  0  0  0  0  0  0  0  0  0  0
    6.3168   -3.3069    0.0000 O   0  0  0  0  0  0  0  0  0  0  0  0
    6.5669   -0.7209    0.0000 C   0  0  0  0  0  0  0  0  0  0  0  0
    8.0599   -0.8653    0.0000 O   0  0  0  0  0  0  0  0  0  0  0  0
    5.9454    0.6443    0.0000 C   0  0  0  0  0  0  0  0  0  0  0  0
    6.8170    1.8651    0.0000 C   0  0  0  0  0  0  0  0  0  0  0  0
    2.0878   -0.2877    0.0000 C   0  0  0  0  0  0  0  0  0  0  0  0
    2.7092   -1.6529    0.0000 C   0  0  0  0  0  0  0  0  0  0  0  0
    1.2162   -1.5085    0.0000 C   0  0  0  0  0  0  0  0  0  0  0  0
   -0.2768   -1.3641    0.0000 C   0  0  0  0  0  0  0  0  0  0  0  0
   -0.8983    0.0011    0.0000 C   0  0  0  0  0  0  0  0  0  0  0  0
   -1.7699   -1.2197    0.0000 C   0  0  0  0  0  0  0  0  0  0  0  0
   -2.3913    0.1455    0.0000 C   0  0  0  0  0  0  0  0  0  0  0  0
   -3.2629   -1.0753    0.0000 C   0  0  0  0  0  0  0  0  0  0  0  0
  1  2  1  0
  2  3  1  0
  3  4  2  0
  3  5  1  0
  5  6  1  1
  5  7  1  0
  7  8  1  0
  8  9  1  0
  9 10  1  1
  9 11  1  0
 11 12  1  0
 12 13  1  0
 13 14  1  1
 13 15  1  0
 15 16  2  0
 16 17  1  0
 17 18  2  0
 18 19  1  0
 19 20  2  0
 20 21  1  0
 21 22  2  0
 21 23  1  0
 23 24  1  0
 23 25  2  0
 25 26  1  0
 19 27  1  0
 27 28  1  1
 27 29  1  0
 29 30  1  0
 30 31  1  0
 31 32  1  6
 31 33  1  0
 33 34  1  6
 34  5  1  0
 33  9  1  0
 31 13  1  0
 27 15  1  0
 25 18  1  0
M  END
>  <identifier>  (406) 
CNP0370068.1

>  <canonical_smiles>  (406) 
COC(=O)[C@]1(C)CC[C@]2(C)CC[C@]3(C)C4=CC=C5C(=CC(=O)C(O)=C5C)[C@]4(C)CC[C@@]3(C)[C@@H]2C1

>  <standard_inchi>  (406) 
InChI=1S/C30H40O4/c1-18-19-8-9-22-28(4,20(19)16-21(31)24(18)32)13-15-30(6)23-17-27(3,25(33)34-7)11-10-26(23,2)12-14-29(22,30)5/h8-9,16,23,32H,10-15,17H2,1-7H3/t23-,26-,27-,28+,29-,30+/m1/s1

>  <standard_inchi_key>  (406) 
JFACETXYABVHFD-WXPPGMDDSA-N

>  <name>  (406) 
Pristimerin

>  <iupac_name>  (406) 
methyl (2~{R},4~{a}~{S},6~{a}~{R},6~{a}~{S},14~{a}~{S},14~{b}~{R})-10-hydroxy-2,4~{a},6~{a},6~{a},9,14~{a}-hexamethyl-11-oxo-1,3,4,5,6,13,14,14~{b}-octahydropicene-2-carboxylate

>  <annotation_level>  (406) 
5

>  <total_atom_count>  (406) 
74

>  <heavy_atom_count>  (406) 
34

>  <molecular_weight>  (406) 
464.65

>  <exact_molecular_weight>  (406) 
464.29266

>  <molecular_formula>  (406) 
C30H40O4

>  <alogp>  (406) 
6.79

>  <topological_polar_surface_area>  (406) 
63.60

>  <rotatable_bond_count>  (406) 
1

>  <hydrogen_bond_acceptors>  (406) 
4

>  <hydrogen_bond_donors>  (406) 
1

>  <hydrogen_bond_acceptors_lipinski>  (406) 
4

>  <hydrogen_bond_donors_lipinski>  (406) 
1

>  <lipinski_rule_of_five_violations>  (406) 
1

>  <aromatic_rings_count>  (406) 
0

>  <qed_drug_likeliness>  (406) 
0.43

>  <formal_charge>  (406) 
0

>  <fractioncsp3>  (406) 
0.67

>  <number_of_minimal_rings>  (406) 
5

>  <van_der_walls_volume>  (406) 
446.61

>  <contains_sugar>  (406) 
False

>  <contains_ring_sugars>  (406) 
False

>  <contains_linear_sugars>  (406) 
False

>  <murcko_framework>  (406) 
C=1C=C2C(C3=CCC=CC13)CCC4C2CCC5CCCCC54

>  <np_likeness>  (406) 
3.20

>  <chemical_class>  (406) 
Prenol lipids

>  <chemical_sub_class>  (406) 
Triterpenoids

>  <chemical_super_class>  (406) 
Lipids and lipid-like molecules

>  <direct_parent_classification>  (406) 
Triterpenoids

>  <np_classifier_pathway>  (406) 
Terpenoids

>  <np_classifier_superclass>  (406) 
Triterpenoids

>  <np_classifier_class>  (406) 
Friedelane triterpenoids

>  <np_classifier_is_glycoside>  (406) 
False

>  <organisms>  (406) 
Acacia pachyphloia|Acanthothamnus aphyllus|Achillea micrantha|Arcicella aquatica|Argemone munita|Ariocarpus retusus|Artemisia maritima|Arthrinium arundinis|Aspilia bishoplecta|Astragalus pamirensis|Bacillus subtilis|Beaumontia brevituba|Berberis lambertii|Bidens cernua|Bupleurum falcatum|Calyx podatypa|Catha edulis|Catha sp.|Celastraceae|Celastrus hypoleucus|Celastrus paniculatus|Celastrus sp.|Centaurea hololeuca|Centipeda cunninghami|Cheiloclinium cognatum|Cheiloclinium hippocrateoides|Cheilocostus speciosus|Chisocheton siamensis|Chrysanthemum x morifolium|Citrus hybr|Cladiella kashmani|Coleus coerulescens|Crossopetalum gaumeri|Crucianella maritima|Curcuma oligantha|Cyanostegia microphylla|Discodermia dissoluta|Doris montereyensis|Dorstenia drakena|Echinochloa crus-galli|Elaeodendron balae|Elymus repens|Euphorbia cheiradenia|Euphorbia leuconeura|Galium sinaicum|Glycyrrhiza macedonica|Graphis rikuzensis|Gymnosporia emarginata|Gymnosporia senegalensis|Hippocratea excelsa|Hippocratea sp.|Hippocratea volubilis|Hippocrateaceae|Iris pallida|Iryanthera juruensis|Isocoma pluriflora|Kadsura heteroclita|Kokoona reflexa|Kokoona zeylanica|Kothala himbutu|Lathyrus hirsutus|Lavandula dentata|Lecanora glaucoma|Lentinus degener|Lepechinia glomerata|Liatris punctata|Litsea gracilipes|Lobelia davidii|Lophopetalum wightianum|Lydenburgia cassinoides|Macrophomina phaseolina|Magnolia officinalis|Mandragora officinarum|Maytenus|Maytenus amazonica|Maytenus apurimacensis|Maytenus aquifolium|Maytenus bilocularis|Maytenus canariensis|Maytenus chubutensis|Maytenus chuchuhuasca|Maytenus cuzcoina|Maytenus ilicifolia|Maytenus illicifolia Mart ex Reiss.|Maytenus magellanica|Maytenus retusa|Maytenus scutioides|Maytenus senegalensis|Maytenus sp.|Maytenus spinosa|Maytenus spp.|Maytenus umbellata|Maytenus woodsonii|Monteverdia aquifolium|Monteverdia catingarum|Monteverdia ilioppjfeowneviufheiuwfew fgr|Monteverdia macrocarpa|Monteverdia retusa|Monteverdia spinosa|Monteverdia truncata|Montipora mollis|Orthosphenia mexicana|Ottonia ovata|Penstemon nitidus|Pentzia calva|Peperomia heyneana|Perenniporia ochroleuca|Peritassa campestris|Pholiota squarrosa|Phormidium sp|Plazia daphnoides|Pleurostylia opposita|Polycitorella mariae|Pristimera indica|Pulicaria angustifolia|Pyrus ussuriensis|Pyrus x bretschneideri|Ranunculus sceleratus|Reissantia buchananii|Reissantia indica|Reticulitermes flavipes|Rheum maximowiczii|Rohdea wattii|Sageretia thea|Salacia beddomei|Salacia campestris|Salacia kraussii|Salacia sp.|Schaefferia cuneifolia|Sclerotinia homoeocarpa|Senecio nebrodensis|Sinularia dura|Solidago chinensis|Sorocea muriculata|Stemona tuberosa|Streptomyces koyangensis|Streptomyces rutgersensis|Symphonia globulifera|Tenodera aridifolia|Tetracera asiatica|Thunbergia grandiflora|Tolypocladium ophioglossoides|Tricerma vitis-idaeum|Tripterygium regelii|Tripterygium sp.|Tripterygium wilfordii|Valeriana wolgensis|Zanthoxylum syncarpum

>  <collections>  (406) 
ANPDB|AfroMalariaDB|Australian natural products|CMAUP (cCollective molecular activities of useful plants)|ChEBI NPs|ChemSpider NPs|InflamNat|KNApSaCK|Latin America dataset|NANPDB (Natural Products from Northern African Sources)|NPACT|NPASS|NPEdia|NuBBEDB|PhytoLab phyproof® Reference Substances|Super Natural II|TCMDB-Taiwan (Traditional Chinese Medicine database)|UEFS (Natural Products Databse of the UEFS)|WikiData Natural Products|ZINC NP

>  <dois>  (406) 
10.1002/CBDV.201000356|10.1002/CHIN.199004272|10.1002/CHIN.200447157|10.1002/CHIN.200524163|10.1002/HLCA.200900426|10.1002/PCA.626|10.1002/PTR.2650030405|10.1007/BF03046638|10.1007/S12272-013-0054-1|10.1007/s12272-013-0054-1|10.1016/0031-9422(75)85188-0|10.1016/0031-9422(82)83043-4|10.1016/0031-9422(88)80030-X|10.1016/0031-9422(90)80182-G|10.1016/0031-9422(90)80182-g|10.1016/0031-9422(90)89066-I|10.1016/0031-9422(95)00424-6|10.1016/0031-9422(96)00205-1|10.1016/0031-9422(96)00886-2|10.1016/0040-4020(94)00999-B|10.1016/0040-4020(96)00497-8|10.1016/0305-1978(86)90005-0|10.1016/0968-0896(96)00078-8|10.1016/J.BMCL.2007.12.016|10.1016/J.BMCL.2010.01.152|10.1016/J.PHYTOCHEM.2004.03.039|10.1016/J.PHYTOCHEM.2010.06.023|10.1016/S0031-9422(00)00144-8|10.1016/S0031-9422(00)00285-5|10.1016/S0031-9422(00)83123-4|10.1016/S0031-9422(00)83591-8|10.1016/S0031-9422(00)88977-3|10.1016/S0031-9422(00)89810-6|10.1016/S0040-4020(01)89113-4|10.1016/S0040-4020(98)00835-7|10.1016/S0040-4039(00)81834-1|10.1016/S0040-4039(00)88027-2|10.1016/j.bmcl.2007.12.016|10.1016/j.phytochem.2018.01.009|10.1021/ACSCENTSCI.3C00800|10.1021/NP030241V|10.1021/NP060559Y|10.1021/NP100517U|10.1021/NP50020A006|10.1021/NP50066A028|10.1021/NP50114A009|10.1021/NP9704157|10.1021/NP980359P|10.1021/jf990008w|10.1021/np030241v|10.1021/np060559y|10.1021/np100517u|10.1021/np50114a009|10.1021/np9704157|10.1039/9781847555649-00238|10.1039/P19810002717|10.1039/P19810002724|10.1039/P19830002845|10.1039/P19870002849|10.1055/S-2006-960066|10.1080/10575639408043900|10.1080/10575639508043213|10.1246/CL.1995.101|10.1515/ZNC-1999-1-223|10.3390/MOLECULES15106956|10.3390/molecules15106956|10.3987/REV-92-SR(T)7|10.3998/ARK.5550190.0008.915|10.3998/ark.5550190.0008.915

>  <synonyms>  (406) 
nan

>  <cas>  (406) 
1258-84-0

$$$$

     RDKit          2D

 33 37  0  0  0  0  0  0  0  0999 V2000
   -4.9247   -3.3018    0.0000 C   0  0  0  0  0  0  0  0  0  0  0  0
   -5.1536   -1.8194    0.0000 C   0  0  0  0  0  0  0  0  0  0  0  0
   -6.5738   -2.3023    0.0000 C   0  0  0  0  0  0  0  0  0  0  0  0
   -5.8757   -0.5047    0.0000 C   0  0  0  0  0  0  0  0  0  0  0  0
   -5.0982    0.7781    0.0000 C   0  0  0  0  0  0  0  0  0  0  0  0
   -3.5985    0.7461    0.0000 C   0  0  0  0  0  0  0  0  0  0  0  0
   -4.3207    2.0608    0.0000 C   0  0  0  0  0  0  0  0  0  0  0  0
   -5.8203    2.0928    0.0000 O   0  0  0  0  0  0  0  0  0  0  0  0
   -3.5432    3.3436    0.0000 O   0  0  0  0  0  0  0  0  0  0  0  0
   -2.8210    2.0288    0.0000 C   0  0  0  0  0  0  0  0  0  0  0  0
   -1.3214    1.9969    0.0000 C   0  0  0  0  0  0  0  0  0  0  0  0
   -0.5992    0.6821    0.0000 C   0  0  0  0  0  0  0  0  0  0  0  0
    0.1229   -0.6326    0.0000 C   0  0  0  0  0  0  0  0  0  0  0  0
   -1.3768   -0.6006    0.0000 C   0  0  0  0  0  0  0  0  0  0  0  0
   -0.6546   -1.9154    0.0000 C   0  0  0  0  0  0  0  0  0  0  0  0
    0.8450   -1.9473    0.0000 C   0  0  0  0  0  0  0  0  0  0  0  0
    1.6226   -0.6646    0.0000 C   0  0  0  0  0  0  0  0  0  0  0  0
    3.1222   -0.6966    0.0000 C   0  0  0  0  0  0  0  0  0  0  0  0
    2.3447   -1.9793    0.0000 C   0  0  0  0  0  0  0  0  0  0  0  0
    3.8444   -2.0113    0.0000 C   0  0  0  0  0  0  0  0  0  0  0  0
    5.3440   -2.0433    0.0000 C   0  0  0  0  0  0  0  0  0  0  0  0
    6.1215   -0.7605    0.0000 C   0  0  0  0  0  0  0  0  0  0  0  0
    7.6212   -0.7925    0.0000 O   0  0  0  0  0  0  0  0  0  0  0  0
    5.3994    0.5542    0.0000 C   0  0  0  0  0  0  0  0  0  0  0  0
    5.1705    2.0366    0.0000 C   0  0  0  0  0  0  0  0  0  0  0  0
    6.8196    1.0371    0.0000 C   0  0  0  0  0  0  0  0  0  0  0  0
    3.8997    0.5862    0.0000 C   0  0  0  0  0  0  0  0  0  0  0  0
    3.1776    1.9009    0.0000 C   0  0  0  0  0  0  0  0  0  0  0  0
    1.6780    1.9329    0.0000 C   0  0  0  0  0  0  0  0  0  0  0  0
    0.9004    0.6502    0.0000 C   0  0  0  0  0  0  0  0  0  0  0  0
    0.1783    1.9649    0.0000 C   0  0  0  0  0  0  0  0  0  0  0  0
   -2.8764   -0.5686    0.0000 C   0  0  0  0  0  0  0  0  0  0  0  0
   -3.6539   -1.8514    0.0000 C   0  0  0  0  0  0  0  0  0  0  0  0
  1  2  1  0
  2  3  1  0
  2  4  1  0
  4  5  1  0
  5  6  1  0
  6  7  1  1
  7  8  2  0
  7  9  1  0
  6 10  1  0
 10 11  1  0
 11 12  1  0
 12 13  1  6
 12 14  1  0
 14 15  2  0
 15 16  1  0
 16 17  1  0
 17 18  1  0
 18 19  1  1
 18 20  1  0
 20 21  1  0
 21 22  1  0
 22 23  1  1
 22 24  1  0
 24 25  1  0
 24 26  1  0
 24 27  1  0
 27 28  1  0
 28 29  1  0
 29 30  1  0
 30 31  1  1
 14 32  1  0
 32 33  1  0
 33  2  1  0
 32  6  1  0
 30 12  1  0
 30 17  1  0
 27 18  1  0
M  END
>  <identifier>  (407) 
CNP0213216.4

>  <canonical_smiles>  (407) 
CC1(C)CC[C@]2(C(=O)O)CC[C@]3(C)C(=CCC4[C@@]5(C)CC[C@H](O)C(C)(C)C5CC[C@]43C)C2C1

>  <standard_inchi>  (407) 
InChI=1S/C30H48O3/c1-25(2)14-16-30(24(32)33)17-15-28(6)19(20(30)18-25)8-9-22-27(5)12-11-23(31)26(3,4)21(27)10-13-29(22,28)7/h8,20-23,31H,9-18H2,1-7H3,(H,32,33)/t20?,21?,22?,23-,27-,28+,29+,30-/m0/s1

>  <standard_inchi_key>  (407) 
MIJYXULNPSFWEK-FQRDBSNUSA-N

>  <name>  (407) 
(4aS,6aS,6bR,10S,12aR)-10-hydroxy-2,2,6a,6b,9,9,12a-heptamethyl-1,3,4,5,6,6a,7,8,8a,10,11,12,13,14b-tetradecahydropicene-4a-carboxylic acid

>  <iupac_name>  (407) 
(4~{a}~{S},6~{a}~{S},6~{b}~{R},10~{S},12~{a}~{R})-10-hydroxy-2,2,6~{a},6~{b},9,9,12~{a}-heptamethyl-1,3,4,5,6,6~{a},7,8,8~{a},10,11,12,13,14~{b}-tetradecahydropicene-4~{a}-carboxylic acid

>  <annotation_level>  (407) 
5

>  <total_atom_count>  (407) 
81

>  <heavy_atom_count>  (407) 
33

>  <molecular_weight>  (407) 
456.71

>  <exact_molecular_weight>  (407) 
456.36035

>  <molecular_formula>  (407) 
C30H48O3

>  <alogp>  (407) 
7.23

>  <topological_polar_surface_area>  (407) 
57.53

>  <rotatable_bond_count>  (407) 
1

>  <hydrogen_bond_acceptors>  (407) 
2

>  <hydrogen_bond_donors>  (407) 
2

>  <hydrogen_bond_acceptors_lipinski>  (407) 
2

>  <hydrogen_bond_donors_lipinski>  (407) 
2

>  <lipinski_rule_of_five_violations>  (407) 
1

>  <aromatic_rings_count>  (407) 
0

>  <qed_drug_likeliness>  (407) 
0.41

>  <formal_charge>  (407) 
0

>  <fractioncsp3>  (407) 
0.90

>  <number_of_minimal_rings>  (407) 
5

>  <van_der_walls_volume>  (407) 
456.21

>  <contains_sugar>  (407) 
False

>  <contains_ring_sugars>  (407) 
False

>  <contains_linear_sugars>  (407) 
False

>  <murcko_framework>  (407) 
C1=C2C3CCCCC3CCC2C4CCC5CCCCC5C4C1

>  <np_likeness>  (407) 
3.27

>  <chemical_class>  (407) 
Prenol lipids

>  <chemical_sub_class>  (407) 
Triterpenoids

>  <chemical_super_class>  (407) 
Lipids and lipid-like molecules

>  <direct_parent_classification>  (407) 
Oleanane triterpenoids

>  <np_classifier_pathway>  (407) 
Terpenoids

>  <np_classifier_superclass>  (407) 
Triterpenoids

>  <np_classifier_class>  (407) 
Oleanane triterpenoids

>  <np_classifier_is_glycoside>  (407) 
False

>  <organisms>  (407) 
Achyranthes bidentata|Achyranthes fauriei|Achyranthes japonica|Swertia leducii|Vitex polygama

>  <collections>  (407) 
AnalytiCon Discovery NPs|CMAUP (cCollective molecular activities of useful plants)|GNPS (Global Natural Products Social Molecular Networking)|Latin America dataset|NPASS|NuBBEDB

>  <dois>  (407) 
10.1515/znc-2008-5-611

>  <synonyms>  (407) 
(4aS,6aS,6bR,10S,12aR)-10-hydroxy-2,2,6a,6b,9,9,12a-heptamethyl-1,2,3,4,4a,5,6,6a,6b,7,8,8a,9,10,11,12,12a,12b,13,14b-icosahydropicene-4a-carboxylic acid|ACon1_000081|AKOS016355979|BDBM540811|CHEBI:181619|CHEMBL365375|EN300-19635029|HMS2203E04|MEGxp0_000902|MFCD00064914|MIJYXULNPSFWEK-FQRDBSNUSA-N|MLS000574839|NCGC00168812-01|NCGC00168812-02_C30H48O3_Olean-12-en-28-oic acid, 3-hydroxy-, (3beta,5xi,9xi,18xi)-|O0317|Olean-12-en-28-oic acid, 3-hydroxy-, (3b,5x,9x,18x)-|Oleanolic acid|SCHEMBL12313106|SMR000156251|SR-01000721517|US11266632, Compound 1|oleanoic acid

>  <cas>  (407) 
nan

$$$$

     RDKit          2D

 33 36  0  0  0  0  0  0  0  0999 V2000
    7.3655   -3.8347    0.0000 C   0  0  0  0  0  0  0  0  0  0  0  0
    7.0516   -2.3679    0.0000 C   0  0  0  0  0  0  0  0  0  0  0  0
    8.1650   -1.3626    0.0000 C   0  0  0  0  0  0  0  0  0  0  0  0
    5.6244   -1.9063    0.0000 C   0  0  0  0  0  0  0  0  0  0  0  0
    5.3105   -0.4395    0.0000 C   0  0  0  0  0  0  0  0  0  0  0  0
    6.4238    0.5657    0.0000 O   0  0  0  0  0  0  0  0  0  0  0  0
    3.8833    0.0220    0.0000 C   0  0  0  0  0  0  0  0  0  0  0  0
    2.7700   -0.9832    0.0000 O   0  0  0  0  0  0  0  0  0  0  0  0
    3.5694    1.4888    0.0000 C   0  0  0  0  0  0  0  0  0  0  0  0
    4.6827    2.4940    0.0000 C   0  0  0  0  0  0  0  0  0  0  0  0
    2.1422    1.9504    0.0000 C   0  0  0  0  0  0  0  0  0  0  0  0
    1.6767    3.3763    0.0000 C   0  0  0  0  0  0  0  0  0  0  0  0
    0.1767    3.3742    0.0000 C   0  0  0  0  0  0  0  0  0  0  0  0
   -0.2849    1.9470    0.0000 C   0  0  0  0  0  0  0  0  0  0  0  0
   -1.4010    2.9492    0.0000 C   0  0  0  0  0  0  0  0  0  0  0  0
   -1.6543    1.3350    0.0000 C   0  0  0  0  0  0  0  0  0  0  0  0
   -2.8691    2.2150    0.0000 C   0  0  0  0  0  0  0  0  0  0  0  0
   -4.2386    1.6030    0.0000 C   0  0  0  0  0  0  0  0  0  0  0  0
   -4.3933    0.1110    0.0000 C   0  0  0  0  0  0  0  0  0  0  0  0
   -5.7628   -0.5010    0.0000 C   0  0  0  0  0  0  0  0  0  0  0  0
   -7.2590   -0.6077    0.0000 C   0  0  0  0  0  0  0  0  0  0  0  0
   -6.1277    0.9540    0.0000 C   0  0  0  0  0  0  0  0  0  0  0  0
   -5.9175   -1.9930    0.0000 C   0  0  0  0  0  0  0  0  0  0  0  0
   -7.2870   -2.6050    0.0000 O   0  0  0  0  0  0  0  0  0  0  0  0
   -4.7028   -2.8730    0.0000 C   0  0  0  0  0  0  0  0  0  0  0  0
   -3.3333   -2.2610    0.0000 C   0  0  0  0  0  0  0  0  0  0  0  0
   -3.1786   -0.7690    0.0000 C   0  0  0  0  0  0  0  0  0  0  0  0
   -1.9638   -1.6490    0.0000 C   0  0  0  0  0  0  0  0  0  0  0  0
   -1.8091   -0.1570    0.0000 C   0  0  0  0  0  0  0  0  0  0  0  0
   -0.5943   -1.0370    0.0000 C   0  0  0  0  0  0  0  0  0  0  0  0
    0.7751   -0.4250    0.0000 C   0  0  0  0  0  0  0  0  0  0  0  0
    0.9299    1.0670    0.0000 C   0  0  0  0  0  0  0  0  0  0  0  0
    2.2299    0.3188    0.0000 C   0  0  0  0  0  0  0  0  0  0  0  0
  1  2  1  0
  2  3  1  0
  2  4  2  0
  4  5  1  0
  5  6  2  0
  5  7  1  0
  7  8  1  1
  7  9  1  0
  9 10  1  1
  9 11  1  0
 11 12  1  1
 12 13  1  0
 13 14  1  0
 14 15  1  6
 14 16  1  0
 16 17  2  0
 17 18  1  0
 19 18  1  6
 19 20  1  0
 20 21  1  0
 20 22  1  0
 20 23  1  0
 23 24  1  1
 23 25  1  0
 25 26  1  0
 26 27  1  0
 27 28  1  6
 27 29  1  0
 29 30  1  6
 30 31  1  0
 31 32  1  0
 32 33  1  1
 32 11  1  0
 32 14  1  0
 29 16  1  0
 27 19  1  0
M  END
>  <identifier>  (408) 
CNP0157272.2

>  <canonical_smiles>  (408) 
CC(C)=CC(=O)[C@@H](O)[C@H](C)[C@@H]1CC[C@]2(C)C3=CC[C@H]4C(C)(C)[C@H](O)CC[C@]4(C)[C@H]3CC[C@@]12C

>  <standard_inchi>  (408) 
InChI=1S/C30H48O3/c1-18(2)17-23(31)26(33)19(3)20-11-15-30(8)22-9-10-24-27(4,5)25(32)13-14-28(24,6)21(22)12-16-29(20,30)7/h9,17,19-21,24-26,32-33H,10-16H2,1-8H3/t19-,20+,21+,24+,25-,26+,28-,29+,30-/m1/s1

>  <standard_inchi_key>  (408) 
VLJVSIPTYGANIN-UPLLRQERSA-N

>  <name>  (408) 
nan

>  <iupac_name>  (408) 
(5~{S},6~{R})-5-hydroxy-6-[(3~{R},5~{R},9~{R},10~{R},13~{S},14~{S},17~{S})-3-hydroxy-4,4,10,13,14-pentamethyl-2,3,5,6,9,11,12,15,16,17-decahydro-1~{H}-cyclopenta[a]phenanthren-17-yl]-2-methyl-hept-2-en-4-one

>  <annotation_level>  (408) 
4

>  <total_atom_count>  (408) 
81

>  <heavy_atom_count>  (408) 
33

>  <molecular_weight>  (408) 
456.71

>  <exact_molecular_weight>  (408) 
456.36035

>  <molecular_formula>  (408) 
C30H48O3

>  <alogp>  (408) 
6.48

>  <topological_polar_surface_area>  (408) 
57.53

>  <rotatable_bond_count>  (408) 
4

>  <hydrogen_bond_acceptors>  (408) 
3

>  <hydrogen_bond_donors>  (408) 
2

>  <hydrogen_bond_acceptors_lipinski>  (408) 
3

>  <hydrogen_bond_donors_lipinski>  (408) 
2

>  <lipinski_rule_of_five_violations>  (408) 
1

>  <aromatic_rings_count>  (408) 
0

>  <qed_drug_likeliness>  (408) 
0.38

>  <formal_charge>  (408) 
0

>  <fractioncsp3>  (408) 
0.83

>  <number_of_minimal_rings>  (408) 
4

>  <van_der_walls_volume>  (408) 
nan

>  <contains_sugar>  (408) 
False

>  <contains_ring_sugars>  (408) 
False

>  <contains_linear_sugars>  (408) 
False

>  <murcko_framework>  (408) 
C1=C2C3CCCC3CCC2C4CCCCC4C1

>  <np_likeness>  (408) 
3.26

>  <chemical_class>  (408) 
Steroids and steroid derivatives

>  <chemical_sub_class>  (408) 
Bile acids, alcohols and derivatives

>  <chemical_super_class>  (408) 
Lipids and lipid-like molecules

>  <direct_parent_classification>  (408) 
Bile acids, alcohols and derivatives

>  <np_classifier_pathway>  (408) 
Terpenoids

>  <np_classifier_superclass>  (408) 
Triterpenoids

>  <np_classifier_class>  (408) 
Lanostane, Tirucallane and Euphane triterpenoids

>  <np_classifier_is_glycoside>  (408) 
False

>  <organisms>  (408) 
Cedrela odorata

>  <collections>  (408) 
Latin America dataset|NuBBEDB|WikiData Natural Products

>  <dois>  (408) 
10.2174/187152010794728620

>  <synonyms>  (408) 
Odoratol

>  <cas>  (408) 
nan

$$$$

     RDKit          2D

 27 30  0  0  0  0  0  0  0  0999 V2000
    4.9414   -4.5955    0.0000 C   0  0  0  0  0  0  0  0  0  0  0  0
    4.7845   -3.1037    0.0000 C   0  0  0  0  0  0  0  0  0  0  0  0
    3.4141   -2.4938    0.0000 C   0  0  0  0  0  0  0  0  0  0  0  0
    3.2572   -1.0020    0.0000 C   0  0  0  0  0  0  0  0  0  0  0  0
    4.4706   -0.1202    0.0000 C   0  0  0  0  0  0  0  0  0  0  0  0
    5.8410   -0.7302    0.0000 O   0  0  0  0  0  0  0  0  0  0  0  0
    4.3137    1.3716    0.0000 C   0  0  0  0  0  0  0  0  0  0  0  0
    5.5271    2.2533    0.0000 O   0  0  0  0  0  0  0  0  0  0  0  0
    5.3702    3.7451    0.0000 C   0  0  0  0  0  0  0  0  0  0  0  0
    2.9433    1.9815    0.0000 C   0  0  0  0  0  0  0  0  0  0  0  0
    1.7299    1.0998    0.0000 C   0  0  0  0  0  0  0  0  0  0  0  0
    1.8868   -0.3920    0.0000 C   0  0  0  0  0  0  0  0  0  0  0  0
    0.5165   -1.0022    0.0000 O   0  0  0  0  0  0  0  0  0  0  0  0
   -0.4873    0.1124    0.0000 C   0  0  0  0  0  0  0  0  0  0  0  0
   -1.9790   -0.0445    0.0000 C   0  0  0  0  0  0  0  0  0  0  0  0
   -2.8608    1.1689    0.0000 C   0  0  0  0  0  0  0  0  0  0  0  0
   -4.3526    1.0120    0.0000 C   0  0  0  0  0  0  0  0  0  0  0  0
   -5.2344    2.2254    0.0000 O   0  0  0  0  0  0  0  0  0  0  0  0
   -4.6244    3.5958    0.0000 C   0  0  0  0  0  0  0  0  0  0  0  0
   -4.9626   -0.3584    0.0000 C   0  0  0  0  0  0  0  0  0  0  0  0
   -6.3891   -0.8221    0.0000 O   0  0  0  0  0  0  0  0  0  0  0  0
   -6.3890   -2.3221    0.0000 C   0  0  0  0  0  0  0  0  0  0  0  0
   -4.9624   -2.7855    0.0000 O   0  0  0  0  0  0  0  0  0  0  0  0
   -4.0808   -1.5718    0.0000 C   0  0  0  0  0  0  0  0  0  0  0  0
   -2.5890   -1.4149    0.0000 C   0  0  0  0  0  0  0  0  0  0  0  0
    0.2626    1.4115    0.0000 C   0  0  0  0  0  0  0  0  0  0  0  0
   -0.3476    2.7817    0.0000 C   0  0  0  0  0  0  0  0  0  0  0  0
  1  2  2  0
  2  3  1  0
  3  4  1  0
  4  5  2  0
  5  6  1  0
  5  7  1  0
  7  8  1  0
  8  9  1  0
  7 10  2  0
 10 11  1  0
 11 12  2  0
 12 13  1  0
 13 14  1  0
 14 15  1  0
 15 16  2  0
 16 17  1  0
 17 18  1  0
 18 19  1  0
 17 20  2  0
 20 21  1  0
 21 22  1  0
 22 23  1  0
 23 24  1  0
 24 25  2  0
 14 26  2  0
 26 27  1  0
 12  4  1  0
 25 15  1  0
 26 11  1  0
 24 20  1  0
M  END
>  <identifier>  (409) 
CNP0263353.0

>  <canonical_smiles>  (409) 
C=CCC1=C(O)C(OC)=CC2=C1OC(C1=CC(OC)=C3OCOC3=C1)=C2C

>  <standard_inchi>  (409) 
InChI=1S/C21H20O6/c1-5-6-13-18(22)15(23-3)9-14-11(2)19(27-20(13)14)12-7-16(24-4)21-17(8-12)25-10-26-21/h5,7-9,22H,1,6,10H2,2-4H3

>  <standard_inchi_key>  (409) 
KNDPYWIHPXGMGY-UHFFFAOYSA-N

>  <name>  (409) 
nan

>  <iupac_name>  (409) 
7-allyl-5-methoxy-2-(7-methoxy-1,3-benzodioxol-5-yl)-3-methyl-benzofuran-6-ol

>  <annotation_level>  (409) 
4

>  <total_atom_count>  (409) 
47

>  <heavy_atom_count>  (409) 
27

>  <molecular_weight>  (409) 
368.39

>  <exact_molecular_weight>  (409) 
368.12599

>  <molecular_formula>  (409) 
C21H20O6

>  <alogp>  (409) 
4.59

>  <topological_polar_surface_area>  (409) 
70.29

>  <rotatable_bond_count>  (409) 
5

>  <hydrogen_bond_acceptors>  (409) 
6

>  <hydrogen_bond_donors>  (409) 
1

>  <hydrogen_bond_acceptors_lipinski>  (409) 
6

>  <hydrogen_bond_donors_lipinski>  (409) 
1

>  <lipinski_rule_of_five_violations>  (409) 
0

>  <aromatic_rings_count>  (409) 
3

>  <qed_drug_likeliness>  (409) 
0.66

>  <formal_charge>  (409) 
0

>  <fractioncsp3>  (409) 
0.24

>  <number_of_minimal_rings>  (409) 
4

>  <van_der_walls_volume>  (409) 
nan

>  <contains_sugar>  (409) 
False

>  <contains_ring_sugars>  (409) 
False

>  <contains_linear_sugars>  (409) 
False

>  <murcko_framework>  (409) 
o1c2ccccc2cc1-c3ccc4OCOc4c3

>  <np_likeness>  (409) 
1.16

>  <chemical_class>  (409) 
2-arylbenzofuran flavonoids

>  <chemical_sub_class>  (409) 
2-arylbenzofuran flavonoids

>  <chemical_super_class>  (409) 
Phenylpropanoids and polyketides

>  <direct_parent_classification>  (409) 
2-arylbenzofuran flavonoids

>  <np_classifier_pathway>  (409) 
Shikimates and Phenylpropanoids

>  <np_classifier_superclass>  (409) 
Lignans

>  <np_classifier_class>  (409) 
Minor lignans

>  <np_classifier_is_glycoside>  (409) 
False

>  <organisms>  (409) 
Aniba simulans|Aniba taubertiana

>  <collections>  (409) 
Latin America dataset|NuBBEDB|UNPD (Universal Natural Products Database)|WikiData Natural Products|ZINC NP

>  <dois>  (409) 
10.1016/S0031-9422(00)89244-4

>  <synonyms>  (409) 
7-Allyl-6-hydroxy-5-methoxy-2-(3-methoxy-45-methylenedioxyphenyl)-3-methylbenzofuran

>  <cas>  (409) 
nan

$$$$

     RDKit          2D

 16 17  0  0  0  0  0  0  0  0999 V2000
    5.2289    0.6823    0.0000 C   0  0  0  0  0  0  0  0  0  0  0  0
    3.8483    0.0957    0.0000 C   0  0  0  0  0  0  0  0  0  0  0  0
    3.6661   -1.3932    0.0000 C   0  0  0  0  0  0  0  0  0  0  0  0
    2.6500    0.9980    0.0000 C   0  0  0  0  0  0  0  0  0  0  0  0
    1.2695    0.4113    0.0000 C   0  0  0  0  0  0  0  0  0  0  0  0
    1.0873   -1.0776    0.0000 N   0  0  0  0  0  0  0  0  0  0  0  0
   -0.2933   -1.6642    0.0000 C   0  0  0  0  0  0  0  0  0  0  0  0
   -0.4755   -3.1531    0.0000 O   0  0  0  0  0  0  0  0  0  0  0  0
   -1.4916   -0.7619    0.0000 C   0  0  0  0  0  0  0  0  0  0  0  0
   -2.9639   -1.0487    0.0000 C   0  0  0  0  0  0  0  0  0  0  0  0
   -3.6916    0.2629    0.0000 C   0  0  0  0  0  0  0  0  0  0  0  0
   -5.1805    0.4452    0.0000 O   0  0  0  0  0  0  0  0  0  0  0  0
   -2.6690    1.3604    0.0000 C   0  0  0  0  0  0  0  0  0  0  0  0
   -1.3093    0.7269    0.0000 N   0  0  0  0  0  0  0  0  0  0  0  0
    0.0712    1.3136    0.0000 C   0  0  0  0  0  0  0  0  0  0  0  0
    0.2534    2.8025    0.0000 O   0  0  0  0  0  0  0  0  0  0  0  0
  1  2  1  0
  2  3  1  0
  2  4  1  0
  5  4  1  6
  5  6  1  0
  6  7  1  0
  7  8  2  0
  7  9  1  0
  9 10  1  6
 10 11  1  0
 11 12  1  1
 11 13  1  0
 13 14  1  0
 14 15  1  0
 15 16  2  0
 15  5  1  0
 14  9  1  0
M  END
>  <identifier>  (410) 
CNP0237425.1

>  <canonical_smiles>  (410) 
CC(C)C[C@@H]1NC(=O)[C@@H]2C[C@@H](O)CN2C1=O

>  <standard_inchi>  (410) 
InChI=1S/C11H18N2O3/c1-6(2)3-8-11(16)13-5-7(14)4-9(13)10(15)12-8/h6-9,14H,3-5H2,1-2H3,(H,12,15)/t7-,8+,9+/m1/s1

>  <standard_inchi_key>  (410) 
YEHIUWVXPQQDMC-VGMNWLOBSA-N

>  <name>  (410) 
Cyclo(L-Leu-trans-4-hydroxy-L-Pro)

>  <iupac_name>  (410) 
(3~{S},7~{R},8~{a}~{S})-7-hydroxy-3-isobutyl-2,3,6,7,8,8~{a}-hexahydropyrrolo[1,2-a]pyrazine-1,4-dione

>  <annotation_level>  (410) 
5

>  <total_atom_count>  (410) 
34

>  <heavy_atom_count>  (410) 
16

>  <molecular_weight>  (410) 
226.28

>  <exact_molecular_weight>  (410) 
226.13174

>  <molecular_formula>  (410) 
C11H18N2O3

>  <alogp>  (410) 
-0.51

>  <topological_polar_surface_area>  (410) 
69.64

>  <rotatable_bond_count>  (410) 
2

>  <hydrogen_bond_acceptors>  (410) 
3

>  <hydrogen_bond_donors>  (410) 
2

>  <hydrogen_bond_acceptors_lipinski>  (410) 
3

>  <hydrogen_bond_donors_lipinski>  (410) 
2

>  <lipinski_rule_of_five_violations>  (410) 
0

>  <aromatic_rings_count>  (410) 
0

>  <qed_drug_likeliness>  (410) 
0.67

>  <formal_charge>  (410) 
0

>  <fractioncsp3>  (410) 
0.82

>  <number_of_minimal_rings>  (410) 
2

>  <van_der_walls_volume>  (410) 
nan

>  <contains_sugar>  (410) 
False

>  <contains_ring_sugars>  (410) 
False

>  <contains_linear_sugars>  (410) 
False

>  <murcko_framework>  (410) 
N1CCN2CCCC2C1

>  <np_likeness>  (410) 
1.24

>  <chemical_class>  (410) 
Carboxylic acids and derivatives

>  <chemical_sub_class>  (410) 
Amino acids, peptides, and analogues

>  <chemical_super_class>  (410) 
Organic acids and derivatives

>  <direct_parent_classification>  (410) 
Alpha amino acids

>  <np_classifier_pathway>  (410) 
Amino acids and Peptides

>  <np_classifier_superclass>  (410) 
Small peptides

>  <np_classifier_class>  (410) 
Dipeptides

>  <np_classifier_is_glycoside>  (410) 
False

>  <organisms>  (410) 
Aspergillus fumigatus|Streptomyces asenjonii|Streptomyces asenjonii strain KNN 42.f|Streptomyces gougerotii GT|Streptomyces nigra 452T|Streptomyces pratensis NA-ZhouS1|Streptomyces sp. Q24

>  <collections>  (410) 
Latin America dataset|NuBBEDB|StreptomeDB|Super Natural II|WikiData Natural Products|ZINC NP

>  <dois>  (410) 
10.1038/S41429-017-0012-0|10.1038/s41429-017-0012-0|10.1055/s-0042-112998|10.1080/14786419.2016.1253079|10.1590/S0103-50532005000800026|10.3389/fmicb.2018.01587|10.3390/md16090331

>  <synonyms>  (410) 
(3S,7R,8AS)-7-hydroxy-3-isobutylhexahydropyrrolo[1,2-a]pyrazine-1,4-dione|(3S,7R,8aS)-7-hydroxy-3-(2-methylpropyl)-2,3,6,7,8,8a-hexahydropyrrolo[1,2-a]pyrazine-1,4-dione|115006-86-5|AKOS040763640|CHEMBL3740621|FS-8671|SCHEMBL13657921|cyclo (L)-4-OH-Pro-(L)-Leu|cyclo(L-Leu-Trans-4-Hydroxy-L-Pro)|cyclo-(L-Leucine-L-4-hydroxyproline)

>  <cas>  (410) 
115006-86-5

$$$$

     RDKit          2D

 28 29  0  0  0  0  0  0  0  0999 V2000
   14.1997    1.3999    0.0000 O   0  0  0  0  0  0  0  0  0  0  0  0
   14.1182   -0.0979    0.0000 C   0  0  0  0  0  0  0  0  0  0  0  0
   15.3745   -0.9174    0.0000 O   0  0  0  0  0  0  0  0  0  0  0  0
   12.7803   -0.7761    0.0000 C   0  0  0  0  0  0  0  0  0  0  0  0
   11.5239    0.0434    0.0000 C   0  0  0  0  0  0  0  0  0  0  0  0
   10.1860   -0.6349    0.0000 C   0  0  0  0  0  0  0  0  0  0  0  0
    8.9297    0.1846    0.0000 C   0  0  0  0  0  0  0  0  0  0  0  0
    7.5918   -0.4937    0.0000 C   0  0  0  0  0  0  0  0  0  0  0  0
    6.3354    0.3258    0.0000 C   0  0  0  0  0  0  0  0  0  0  0  0
    4.9976   -0.3525    0.0000 C   0  0  0  0  0  0  0  0  0  0  0  0
    3.7412    0.4670    0.0000 C   0  0  0  0  0  0  0  0  0  0  0  0
    2.4033   -0.2113    0.0000 C   0  0  0  0  0  0  0  0  0  0  0  0
    1.1470    0.6082    0.0000 C   0  0  0  0  0  0  0  0  0  0  0  0
   -0.1909   -0.0701    0.0000 C   0  0  0  0  0  0  0  0  0  0  0  0
   -1.4473    0.7494    0.0000 C   0  0  0  0  0  0  0  0  0  0  0  0
   -2.7851    0.0711    0.0000 C   0  0  0  0  0  0  0  0  0  0  0  0
   -4.0415    0.8906    0.0000 C   0  0  0  0  0  0  0  0  0  0  0  0
   -5.3794    0.2123    0.0000 C   0  0  0  0  0  0  0  0  0  0  0  0
   -6.6357    1.0318    0.0000 C   0  0  0  0  0  0  0  0  0  0  0  0
   -7.9736    0.3536    0.0000 C   0  0  0  0  0  0  0  0  0  0  0  0
   -8.0551   -1.1442    0.0000 C   0  0  0  0  0  0  0  0  0  0  0  0
   -9.3930   -1.8225    0.0000 C   0  0  0  0  0  0  0  0  0  0  0  0
  -10.6494   -1.0030    0.0000 C   0  0  0  0  0  0  0  0  0  0  0  0
  -12.0991   -1.3883    0.0000 O   0  0  0  0  0  0  0  0  0  0  0  0
  -12.9135   -0.1287    0.0000 C   0  0  0  0  0  0  0  0  0  0  0  0
  -11.9671    1.0351    0.0000 O   0  0  0  0  0  0  0  0  0  0  0  0
  -10.5679    0.4948    0.0000 C   0  0  0  0  0  0  0  0  0  0  0  0
   -9.2300    1.1731    0.0000 C   0  0  0  0  0  0  0  0  0  0  0  0
  1  2  2  0
  2  3  1  0
  2  4  1  0
  4  5  1  0
  5  6  1  0
  6  7  1  0
  7  8  1  0
  8  9  1  0
  9 10  1  0
 10 11  1  0
 11 12  1  0
 12 13  1  0
 13 14  1  0
 14 15  1  0
 15 16  1  0
 16 17  1  0
 17 18  1  0
 18 19  1  0
 19 20  1  0
 20 21  2  0
 21 22  1  0
 22 23  2  0
 23 24  1  0
 24 25  1  0
 25 26  1  0
 26 27  1  0
 27 28  2  0
 28 20  1  0
 27 23  1  0
M  END
>  <identifier>  (411) 
CNP0301956.0

>  <canonical_smiles>  (411) 
O=C(O)CCCCCCCCCCCCCCCCC1=CC=C2OCOC2=C1

>  <standard_inchi>  (411) 
InChI=1S/C24H38O4/c25-24(26)16-14-12-10-8-6-4-2-1-3-5-7-9-11-13-15-21-17-18-22-23(19-21)28-20-27-22/h17-19H,1-16,20H2,(H,25,26)

>  <standard_inchi_key>  (411) 
FHATWZWQYFABGM-UHFFFAOYSA-N

>  <name>  (411) 
nan

>  <iupac_name>  (411) 
17-(1,3-benzodioxol-5-yl)heptadecanoic acid

>  <annotation_level>  (411) 
5

>  <total_atom_count>  (411) 
66

>  <heavy_atom_count>  (411) 
28

>  <molecular_weight>  (411) 
390.56

>  <exact_molecular_weight>  (411) 
390.27701

>  <molecular_formula>  (411) 
C24H38O4

>  <alogp>  (411) 
6.89

>  <topological_polar_surface_area>  (411) 
55.76

>  <rotatable_bond_count>  (411) 
17

>  <hydrogen_bond_acceptors>  (411) 
3

>  <hydrogen_bond_donors>  (411) 
1

>  <hydrogen_bond_acceptors_lipinski>  (411) 
3

>  <hydrogen_bond_donors_lipinski>  (411) 
1

>  <lipinski_rule_of_five_violations>  (411) 
1

>  <aromatic_rings_count>  (411) 
1

>  <qed_drug_likeliness>  (411) 
0.29

>  <formal_charge>  (411) 
0

>  <fractioncsp3>  (411) 
0.71

>  <number_of_minimal_rings>  (411) 
2

>  <van_der_walls_volume>  (411) 
402.99

>  <contains_sugar>  (411) 
False

>  <contains_ring_sugars>  (411) 
False

>  <contains_linear_sugars>  (411) 
False

>  <murcko_framework>  (411) 
O1c2ccccc2OC1

>  <np_likeness>  (411) 
0.30

>  <chemical_class>  (411) 
Fatty Acyls

>  <chemical_sub_class>  (411) 
Fatty acids and conjugates

>  <chemical_super_class>  (411) 
Lipids and lipid-like molecules

>  <direct_parent_classification>  (411) 
Long-chain fatty acids

>  <np_classifier_pathway>  (411) 
Fatty acids

>  <np_classifier_superclass>  (411) 
Fatty Acids and Conjugates

>  <np_classifier_class>  (411) 
Carbocyclic fatty acids

>  <np_classifier_is_glycoside>  (411) 
False

>  <organisms>  (411) 
Iryanthera juruensis

>  <collections>  (411) 
ChemSpider NPs|Latin America dataset|NuBBEDB|Super Natural II|UNPD (Universal Natural Products Database)|WikiData Natural Products|ZINC NP

>  <dois>  (411) 
10.1016/S0031-9422(00)00477-5|10.1021/JF063451X

>  <synonyms>  (411) 
17-(34-Methylenedioxyphenyl)-heptadecanoic acid

>  <cas>  (411) 
nan

$$$$

     RDKit          2D

 15 17  0  0  0  0  0  0  0  0999 V2000
    3.0383   -2.8589    0.0000 C   0  0  0  0  0  0  0  0  0  0  0  0
    2.4266   -1.4893    0.0000 C   0  0  0  0  0  0  0  0  0  0  0  0
    3.1750   -0.1894    0.0000 C   0  0  0  0  0  0  0  0  0  0  0  0
    2.1700    0.9241    0.0000 C   0  0  0  0  0  0  0  0  0  0  0  0
    0.8004    0.3124    0.0000 C   0  0  0  0  0  0  0  0  0  0  0  0
   -0.4121   -0.5708    0.0000 C   0  0  0  0  0  0  0  0  0  0  0  0
    0.9590   -1.1792    0.0000 C   0  0  0  0  0  0  0  0  0  0  0  0
   -1.7831    0.0377    0.0000 C   0  0  0  0  0  0  0  0  0  0  0  0
   -2.9956   -0.8454    0.0000 C   0  0  0  0  0  0  0  0  0  0  0  0
   -4.3666   -0.2369    0.0000 C   0  0  0  0  0  0  0  0  0  0  0  0
   -2.8370   -2.3370    0.0000 C   0  0  0  0  0  0  0  0  0  0  0  0
   -1.9417    1.5293    0.0000 C   0  0  0  0  0  0  0  0  0  0  0  0
   -0.7292    2.4124    0.0000 C   0  0  0  0  0  0  0  0  0  0  0  0
    0.6418    1.8040    0.0000 C   0  0  0  0  0  0  0  0  0  0  0  0
    1.8543    2.6871    0.0000 C   0  0  0  0  0  0  0  0  0  0  0  0
  1  2  1  0
  2  3  2  0
  3  4  1  0
  5  4  1  6
  5  6  1  0
  6  7  1  0
  6  8  1  1
  8  9  1  6
  9 10  1  0
  9 11  1  0
  8 12  1  0
 12 13  1  0
 13 14  1  0
 14 15  1  1
  7  2  1  6
  7  5  1  0
 14  5  1  0
M  END
>  <identifier>  (412) 
CNP0191793.2

>  <canonical_smiles>  (412) 
CC1=CC[C@@]23[C@@H]([C@@H]12)[C@H](C(C)C)CC[C@H]3C

>  <standard_inchi>  (412) 
InChI=1S/C15H24/c1-9(2)12-6-5-11(4)15-8-7-10(3)13(15)14(12)15/h7,9,11-14H,5-6,8H2,1-4H3/t11-,12+,13-,14-,15+/m1/s1

>  <standard_inchi_key>  (412) 
XUEHVOLRMXNRKQ-KHMAMNHCSA-N

>  <name>  (412) 
alpha-Cubebene

>  <iupac_name>  (412) 
(1~{R},5~{S},6~{R},7~{S},10~{R})-7-isopropyl-4,10-dimethyl-tricyclo[4.4.0.0^{1,5}]dec-3-ene

>  <annotation_level>  (412) 
5

>  <total_atom_count>  (412) 
39

>  <heavy_atom_count>  (412) 
15

>  <molecular_weight>  (412) 
204.36

>  <exact_molecular_weight>  (412) 
204.1878

>  <molecular_formula>  (412) 
C15H24

>  <alogp>  (412) 
4.27

>  <topological_polar_surface_area>  (412) 
0.00

>  <rotatable_bond_count>  (412) 
1

>  <hydrogen_bond_acceptors>  (412) 
0

>  <hydrogen_bond_donors>  (412) 
0

>  <hydrogen_bond_acceptors_lipinski>  (412) 
0

>  <hydrogen_bond_donors_lipinski>  (412) 
0

>  <lipinski_rule_of_five_violations>  (412) 
0

>  <aromatic_rings_count>  (412) 
0

>  <qed_drug_likeliness>  (412) 
0.56

>  <formal_charge>  (412) 
0

>  <fractioncsp3>  (412) 
0.87

>  <number_of_minimal_rings>  (412) 
3

>  <van_der_walls_volume>  (412) 
224.73

>  <contains_sugar>  (412) 
False

>  <contains_ring_sugars>  (412) 
False

>  <contains_linear_sugars>  (412) 
False

>  <murcko_framework>  (412) 
C1=CC2C3CCCCC23C1

>  <np_likeness>  (412) 
3.13

>  <chemical_class>  (412) 
Prenol lipids

>  <chemical_sub_class>  (412) 
Sesquiterpenoids

>  <chemical_super_class>  (412) 
Lipids and lipid-like molecules

>  <direct_parent_classification>  (412) 
Sesquiterpenoids

>  <np_classifier_pathway>  (412) 
Terpenoids

>  <np_classifier_superclass>  (412) 
Sesquiterpenoids

>  <np_classifier_class>  (412) 
Cubebane sesquiterpenoids

>  <np_classifier_is_glycoside>  (412) 
False

>  <organisms>  (412) 
Abies pinsapo|Acca sellowiana|Achyrospermum africanum|Ageratum conyzoides|Aguacate|Aiouea costaricensis|Alpinia latilabris|Alpinia zerumbet|Anethum graveolens|Angelica archangelica|Aniba puchury-minor|Apium graveolens|Arctium lappa|Aristolochia birostris|Aristolochia cymbifera|Aristolochia debilis|Aristolochia didyma|Aristolochia gigantea|Aristolochia macroura|Aristolochia triangularis|Artabotrys lastoursvillensis|Artemisia annua|Asarum asperum|Asarum megacalyx|Atalantia buxifolia|Austrobaileya scandens|Austromyrtus dulcis|Austromyrtus tenuifolia|Azadirachta indica|Baccharis rufescens|Beilschmiedia pendula|Bidens bipinnata|Bouchardatia neurococca|Bupleurum gibraltaricum|Camellia sinensis|Canella winterana|Cannabis sativa|Carapichea ipecacuanha|Cardaria draba|Cedrela fissilis|Cedrela odorata|Cedrus libani|Centranthus longiflorus ssp. longiflorus|Chamaecyparis formosensis|Chamomilla recutita|Cinnamomum illicioides|Cinnamomum parthenoxylon|Cistus creticus|Cistus ladanifer|Cistus laurifolius|Cistus monspeliensis|Citrus Sinensis|Citrus sinensis L.|Cleistopholis patens|Cleome chrysantha|Clinopodium congestum|Conyza incana|Copaifera langsdorffii|Copaifera langsdorfii|Croton adenocalyx|Croton conduplicatus|Croton eluteria|Croton essequiboensis|Croton jimenezii|Croton nepetifolius|Cryptomeria japonica|Culcitium canescens|Cupressus sempervirens|Cyperus alopecuroides|Dacrydium nausoriense|Dacrydium nidulum|Daldinia eschscholtzii|Daniellia oliveri|Dictyopteris divaricata|Dumortiera hirsuta|Echinus auritus|Elsholtzia fruticosa|Eremanthus arboreus|Erigeron canadensis|Etlingera elatior|Eucalyptus angulosa|Eucalyptus behriana|Eucalyptus ceratocorys|Eucalyptus cloeziana|Eucalyptus cuprea|Eucalyptus dolichorhyncha|Eucalyptus fasciculosa|Eucalyptus forrestiana|Eucalyptus incrassata|Eucalyptus intertexta|Eucalyptus lansdowneana|Eucalyptus leucoxylon|Eucalyptus melanophloia|Eucalyptus ochrophloia|Eucalyptus odorata|Eucalyptus populnea|Eucalyptus porosa|Eucalyptus sparsa|Eucalyptus stoatei|Eucalyptus tetraptera|Eucalyptus viridis|Eupatorium cannabinum|Frullania|Grazielia serrata|Grindelia hirsutula|Guarea macrophylla ssp.tuberculata|Haplostichanthus johnsonii|Helichrysum bracteiferum|Helichrysum odoratissimum|Heterotropa|Homo sapiens|Humulus lupulus|Illicium difengpi|Juniperus communis|Juniperus excelsa|Juniperus oxycedrus|Juniperus scopulorum|Kuloa usambarensis|Kunzea salina|Lantana camara|Lavandula stoechas|Leonotis leonurus|Lepechinia chamaedryoides|Lepechinia chilensis|Leptospermum scoparium|Magnolia obovata|Mallotus rhamnifolius|Manekia naranjoana|Matricaria chamomilla|Melaleuca alternifolia|Melaleuca leucadendra|Melissa officinalis|Micromeria maderensis|Micromeria sinaica|Mikania banisteriae|Mikania congesta|Mikania cordifolia|Mikania parviflora|Monodora tenuifolia|Nectandra salicina|Ocotea austinii|Ocotea usambarensis|Origanum minutiflorum|Origanum sipyleum|Orthosiphon aristatus|Orthosiphon grandiflorus|Osbornia octodonta|Pelargonium ternifolium|Perilla frutescens|Perovskia|Persea tolimanensis|Persicaria hydropiperoides|Persicaria minor|Philadelphia fleabane|Pimenta racemosa|Pinus halepensis|Pinus heldreichii|Pinus pinaster|Piper Cubeba|Piper aduncum|Piper angustifolium|Piper arboreum|Piper augustum|Piper auritum|Piper cubeba|Piper fimbriulatum|Piper nigrum|Piper obliquum|Plectranthus fruticosus|Porcelia macrocarpa|Protium heptaphyllum|Prumnopitys ferruginoides|Psiadia altissima|Psidium friedrichsthalianum|Psidium guajava|Pterodon emarginatus|Rosmarinus officinalis|Salvia dorisiana|Salvia dorystaechas|Salvia pomifera|Santolina chamaecyparissus|Santolina corsica|Santolina insularis|Satureja cuneifolia|Satureja wiedemanniana|Scaligeria lazica|Schinus molle|Scutellaria baicalensis|Scutellaria lateriflora|Shorea robusta|Sideritis lyciae|Sideritis paulii|Solanum incisum|Solanum stuckertii|Solidago canadensis|Strychnos tomentosa|Syzygium aromaticum|Tagetes lucida|Taiwania cryptomerioides|Tambourissa leptophylla|Tasmannia lanceolata|Tessaria fastigiata|Teucrium asiaticum|Teucrium oxylepis|Teucrium pseudoscorodonia|Teucrium salviastrum|Teucrium scorodonia|Thulinella chrysantha|Thymus willkommii|Trichothecium sympodiale|Uvaria chamae|Uvaria narum|Verbesina diversifolia|Vitex negundo|Wedelia calycina|Wedelia scaberrima|West African Pepper|Xanthium orientale|Xanthium strumarium|Xylopia aethiopica|Xylopia aromatica|Xylopia sericea|Zanthoxylum gardneri|Zingiber officinale|basil|bellis perennis|candyleaf|clove|parsley|potato

>  <collections>  (412) 
Australian natural products|CMAUP (cCollective molecular activities of useful plants)|ChEBI NPs|FooDB|KNApSaCK|Latin America dataset|NAPRORE-CR|NPASS|NPEdia|NuBBEDB|Super Natural II|TCMDB-Taiwan (Traditional Chinese Medicine database)|VietHerb|WikiData Natural Products

>  <dois>  (412) 
10.1002/(SICI)1099-1026(199701)12:1<47::AID-FFJ610>3.0.CO;2-7|10.1002/(SICI)1099-1026(199901/02)14:1<15::AID-FFJ777>3.0.CO;2-M|10.1002/1099-1573(200006)14:4<284::AID-PTR599>3.0.CO;2-Y|10.1002/CBDV.201400340|10.1002/CBDV.201700436|10.1002/ECE3.5390|10.1002/FFJ.2730010103|10.1002/FFJ.2730030106|10.1002/FFJ.2730060307|10.1002/FFJ.2730070111|10.1002/FFJ.2730080504|10.1002/FFJ.2730090305|10.1002/FFJ.2730100203|10.1002/FFJ.2730100313|10.1002/FFJ.2730100605|10.1002/PCA.2800050503|10.1002/ffj.2730030109|10.1007/BF01177415|10.1007/S10086-018-1773-1|10.1007/S10886-013-0311-2|10.1016/0031-9422(82)83091-4|10.1016/0031-9422(83)85029-8|10.1016/0031-9422(88)80444-8|10.1016/0031-9422(90)85421-B|10.1016/0031-9422(91)83632-U|10.1016/0031-9422(91)84207-9|10.1016/0031-9422(95)00183-8|10.1016/0305-1978(89)90098-7|10.1016/0305-1978(96)00023-3|10.1016/J.FOODCHEM.2010.08.043|10.1016/J.FOODCHEM.2018.09.082|10.1016/J.FOODRES.2018.12.054|10.1016/J.INDCROP.2012.12.022|10.1016/J.PHYMED.2007.03.013|10.1016/J.PHYTOCHEM.2003.08.004|10.1016/J.PHYTOCHEM.2009.06.013|10.1016/S0031-9422(00)00374-5|10.1016/S0031-9422(00)80558-0|10.1016/S0031-9422(00)80682-2|10.1016/S0031-9422(00)90514-4|10.1016/S0031-9422(00)95102-1|10.1016/S0031-9422(00)95206-3|10.1016/S0031-9422(00)97558-7|10.1016/S0031-9422(96)00749-2|10.1016/S0031-9422(97)00172-6|10.1016/S0031-9422(97)00484-6|10.1016/S0031-9422(97)00762-0|10.1016/S0378-8741(97)01528-6|10.1021/JF00019A020|10.1021/JF00034A020|10.1021/JF00035A029|10.1021/JF00046A030|10.1021/JF00083A001|10.1021/JF00116A075|10.1021/JF00118A056|10.1021/JF040437G|10.1021/JF60199A051|10.1021/JF970808B|10.1021/JO040272A|10.1021/NP030475E|10.1021/NP50008A001|10.1021/NP50012A010|10.1021/NP50017A019|10.1021/NP50038A026|10.1021/NP50041A038|10.1021/NP50044A039|10.1021/NP50046A047|10.1021/NP50048A037|10.1021/NP50048A039|10.1021/NP50050A053|10.1021/NP50052A041|10.1021/NP960732Y|10.1021/acsomega.3c03865|10.1021/jf011456i|10.1055/S-2001-12001|10.1055/S-2001-18857|10.1055/S-2006-957378|10.1055/S-2006-957488|10.1055/S-2006-957911|10.1055/S-2006-959580|10.1055/S-2006-960032|10.1055/S-2006-960128|10.1055/S-2006-960930|10.1055/S-2006-961452|10.1055/S-2006-961490|10.1055/S-2006-962016|10.1055/S-2006-962450|10.1055/S-2007-969136|10.1055/S-2007-969261|10.1055/S-2007-969599|10.1080/0972060X.2014.895210|10.1080/0972060x.2014.974077|10.1080/10412905.1989.9697769|10.1080/10412905.1989.9697801|10.1080/10412905.1989.9699439|10.1080/10412905.1990.9697829|10.1080/10412905.1990.9697845|10.1080/10412905.1991.9697930|10.1080/10412905.1991.9697952|10.1080/10412905.1991.9697963|10.1080/10412905.1991.9697971|10.1080/10412905.1991.9697974|10.1080/10412905.1991.9697982|10.1080/10412905.1991.9697985|10.1080/10412905.1992.9698035|10.1080/10412905.1992.9698043|10.1080/10412905.1992.9698053|10.1080/10412905.1992.9698068|10.1080/10412905.1992.9698072|10.1080/10412905.1992.9698087|10.1080/10412905.1992.9698112|10.1080/10412905.1992.9698125|10.1080/10412905.1993.9698162|10.1080/10412905.1993.9698209|10.1080/10412905.1993.9698235|10.1080/10412905.1993.9698237|10.1080/10412905.1993.9698250|10.1080/10412905.1993.9698261|10.1080/10412905.1994.9698327|10.1080/10412905.1994.9698330|10.1080/10412905.1994.9698380|10.1080/10412905.1994.9698387|10.1080/10412905.1994.9698400|10.1080/10412905.1994.9698414|10.1080/10412905.1994.9698417|10.1080/10412905.1994.9698435|10.1080/10412905.1994.9698438|10.1080/10412905.1994.9698447|10.1080/10412905.1994.9699344|10.1080/10412905.1994.9699345|10.1080/10412905.1994.9699347|10.1080/10412905.1994.9699362|10.1080/10412905.1995.9698462|10.1080/10412905.1995.9698473|10.1080/10412905.1995.9698496|10.1080/10412905.1995.9698501|10.1080/10412905.1995.9698505|10.1080/10412905.1995.9698581|10.1080/10412905.1996.9700559|10.1080/10412905.1996.9701048|10.1080/10412905.1997.9700728|10.1080/10412905.1998.9700906|10.1080/10412905.1998.9700913|10.1080/10412905.2000.9699486|10.1080/10412905.2002.9699883|10.1080/10412905.2007.9699946|10.1080/10412905.2010.9700320|10.1080/10412905.2010.9700389|10.1080/10412905.2018.1431966|10.1088/1752-7155/8/1/014001|10.1177/1934578X1100600135|10.1186/1471-2180-11-219|10.1246/BCSJ.54.2366|10.1248/YAKUSHI1947.107.3_209|10.1271/BBB1961.45.507|10.1271/BBB1961.49.1583|10.1271/BBB1961.51.1449|10.1515/ZNC-1984-7-802|10.1515/ZNC-1984-7-803|10.1515/ZNC-1988-5-604|10.1590/S0100-40422009000200028|10.1590/S0103-50532000000600012|10.1590/S0103-50532003000100004|10.1631/JZUS.B1200086|10.1673/031.011.15201|10.17660/ACTAHORTIC.2005.677.9|10.17660/ACTAHORTIC.2005.679.1|10.3109/13880209109082876|10.3109/13880209109082877|10.3390/12030283|10.3390/MOLECULES15107006|10.3390/MOLECULES24112053|10.3390/MOLECULES24234244|10.5694/J.1326-5377.1998.TB126732.X

>  <synonyms>  (412) 
(-)-alpha-Cubebene|(1R,5S,6R,7S,10R)-4,10-dimethyl-7-propan-2-yltricyclo[4.4.0.01,5]dec-3-ene|(3aS,3bR,4S,7R,7aR)-3,7-dimethyl-4-(propan-2-yl)-3a,3b,4,5,6,7-hexahydro-1H-cyclopenta[1,3]cyclopropa[1,2]benzene|.ALPHA.-CUBEBENE, (-)-|17699-14-8|1H-CYCLOPENTA(1,3)CYCLOPROPA(1,2)BENZENE, 3A,3B,4,5,6,7-HEXAHYDRO-3,7-DIMETHYL-4-(1-METHYL-ETHYL)-, (3AS-(3A.ALPHA.,3B.BETA.,4.BETA.,7.ALPHA.,7AS*))-|1H-CYCLOPENTA(1,3)CYCLOPROPA(1,2)BENZENE, 3A.ALPHA.,3B.ALPHA.,4,5,6,7-HEXAHYDRO-4.ALPHA.-ISOPROPYL-3,7.BETA.-DIMETHYL-, (-)-|1H-Cyclopenta(1,3)cyclopropa(1,2)benzene, 3a,3b,4,5,6,7-hexahydro-3,7-dimethyl-4-(1-methyl-ethyl)-, (3aS-(3aalpha,3bbeta,4beta,7alpha,7aS*))-|1H-Cyclopenta(1,3)cyclopropa(1,2)benzene, 3a,3b,4,5,6,7-hexahydro-3,7-dimethyl-4-(1-methylethyl)-, (3aS,3bR,4S,7R,7aR)-|31141-66-9|438H9S5RG9|C09647|CHEBI:10224|Caswell No. 264AB|Cryptoxanthin-beta|DTXSID3058325|DTXSID901335859|EPA Pesticide Chemical Code 117901|NS00114127|Q27108605|UNII-438H9S5RG9|XUEHVOLRMXNRKQ-KHMAMNHCSA-N|\u03b1-cubenene|\u221a\u00e9\u00ac\u00b1-Cubebene|a-cubebene|alpha-Cubebene|alpha-Cubebene, (-)-|alpha-cubeben|alpha-cubenene

>  <cas>  (412) 
17699-14-8|31141-66-9

$$$$

     RDKit          2D

 28 31  0  0  0  0  0  0  0  0999 V2000
   -7.1175    3.8231    0.0000 C   0  0  0  0  0  0  0  0  0  0  0  0
   -6.8224    2.3524    0.0000 C   0  0  0  0  0  0  0  0  0  0  0  0
   -7.9484    1.3615    0.0000 C   0  0  0  0  0  0  0  0  0  0  0  0
   -5.4012    1.8727    0.0000 C   0  0  0  0  0  0  0  0  0  0  0  0
   -5.1060    0.4020    0.0000 C   0  0  0  0  0  0  0  0  0  0  0  0
   -3.6848   -0.0778    0.0000 C   0  0  0  0  0  0  0  0  0  0  0  0
   -3.3897   -1.5484    0.0000 C   0  0  0  0  0  0  0  0  0  0  0  0
   -4.5158   -2.5394    0.0000 C   0  0  0  0  0  0  0  0  0  0  0  0
   -1.9685   -2.0282    0.0000 C   0  0  0  0  0  0  0  0  0  0  0  0
   -1.5212   -3.4600    0.0000 C   0  0  0  0  0  0  0  0  0  0  0  0
   -0.0213   -3.4770    0.0000 C   0  0  0  0  0  0  0  0  0  0  0  0
    0.4584   -2.0558    0.0000 C   0  0  0  0  0  0  0  0  0  0  0  0
    1.8356   -1.4614    0.0000 C   0  0  0  0  0  0  0  0  0  0  0  0
    3.0390   -2.3568    0.0000 C   0  0  0  0  0  0  0  0  0  0  0  0
    4.4162   -1.7624    0.0000 C   0  0  0  0  0  0  0  0  0  0  0  0
    4.5900   -0.2725    0.0000 C   0  0  0  0  0  0  0  0  0  0  0  0
    5.9671    0.3220    0.0000 C   0  0  0  0  0  0  0  0  0  0  0  0
    6.1409    1.8119    0.0000 C   0  0  0  0  0  0  0  0  0  0  0  0
    7.5181    2.4063    0.0000 O   0  0  0  0  0  0  0  0  0  0  0  0
    4.9375    2.7073    0.0000 C   0  0  0  0  0  0  0  0  0  0  0  0
    3.5603    2.1129    0.0000 C   0  0  0  0  0  0  0  0  0  0  0  0
    3.3866    0.6230    0.0000 C   0  0  0  0  0  0  0  0  0  0  0  0
    2.1832    1.5184    0.0000 C   0  0  0  0  0  0  0  0  0  0  0  0
    2.0094    0.0285    0.0000 C   0  0  0  0  0  0  0  0  0  0  0  0
    0.8060    0.9240    0.0000 C   0  0  0  0  0  0  0  0  0  0  0  0
   -0.5712    0.3295    0.0000 C   0  0  0  0  0  0  0  0  0  0  0  0
   -0.7450   -1.1604    0.0000 C   0  0  0  0  0  0  0  0  0  0  0  0
   -2.0354   -0.3956    0.0000 C   0  0  0  0  0  0  0  0  0  0  0  0
  1  2  1  0
  2  3  1  0
  2  4  1  0
  4  5  1  0
  5  6  2  0
  6  7  1  0
  7  8  1  6
  7  9  1  0
  9 10  1  6
 10 11  1  0
 12 11  1  6
 12 13  1  0
 13 14  1  1
 14 15  1  0
 15 16  2  0
 16 17  1  0
 17 18  1  0
 18 19  1  6
 18 20  1  0
 20 21  1  0
 21 22  1  0
 22 23  1  6
 22 24  1  0
 24 25  1  6
 25 26  1  0
 26 27  1  0
 27 28  1  6
 27  9  1  0
 27 12  1  0
 24 13  1  0
 22 16  1  0
M  END
>  <identifier>  (413) 
CNP0242456.4

>  <canonical_smiles>  (413) 
CC(C)C/C=C/[C@@H](C)[C@H]1CC[C@H]2[C@@H]3CC=C4C[C@@H](O)CC[C@]4(C)[C@H]3CC[C@]12C

>  <standard_inchi>  (413) 
InChI=1S/C27H44O/c1-18(2)7-6-8-19(3)23-11-12-24-22-10-9-20-17-21(28)13-15-26(20,4)25(22)14-16-27(23,24)5/h6,8-9,18-19,21-25,28H,7,10-17H2,1-5H3/b8-6+/t19-,21+,22+,23-,24+,25+,26+,27-/m1/s1

>  <standard_inchi_key>  (413) 
UPGTYLFCVNHBTN-OFAYOZIESA-N

>  <name>  (413) 
22-Dehydrocholesterol

>  <iupac_name>  (413) 
(3~{S},8~{S},9~{S},10~{R},13~{R},14~{S},17~{R})-17-[(~{E},1~{R})-1,5-dimethylhex-2-enyl]-10,13-dimethyl-2,3,4,7,8,9,11,12,14,15,16,17-dodecahydro-1~{H}-cyclopenta[a]phenanthren-3-ol

>  <annotation_level>  (413) 
5

>  <total_atom_count>  (413) 
72

>  <heavy_atom_count>  (413) 
28

>  <molecular_weight>  (413) 
384.65

>  <exact_molecular_weight>  (413) 
384.33922

>  <molecular_formula>  (413) 
C27H44O

>  <alogp>  (413) 
7.16

>  <topological_polar_surface_area>  (413) 
20.23

>  <rotatable_bond_count>  (413) 
4

>  <hydrogen_bond_acceptors>  (413) 
1

>  <hydrogen_bond_donors>  (413) 
1

>  <hydrogen_bond_acceptors_lipinski>  (413) 
1

>  <hydrogen_bond_donors_lipinski>  (413) 
1

>  <lipinski_rule_of_five_violations>  (413) 
1

>  <aromatic_rings_count>  (413) 
0

>  <qed_drug_likeliness>  (413) 
0.51

>  <formal_charge>  (413) 
0

>  <fractioncsp3>  (413) 
0.85

>  <number_of_minimal_rings>  (413) 
4

>  <van_der_walls_volume>  (413) 
nan

>  <contains_sugar>  (413) 
False

>  <contains_ring_sugars>  (413) 
False

>  <contains_linear_sugars>  (413) 
False

>  <murcko_framework>  (413) 
C1=C2CCCCC2C3CCC4CCCC4C3C1

>  <np_likeness>  (413) 
3.01

>  <chemical_class>  (413) 
Steroids and steroid derivatives

>  <chemical_sub_class>  (413) 
Cholestane steroids

>  <chemical_super_class>  (413) 
Lipids and lipid-like molecules

>  <direct_parent_classification>  (413) 
Cholesterols and derivatives

>  <np_classifier_pathway>  (413) 
Terpenoids

>  <np_classifier_superclass>  (413) 
Steroids

>  <np_classifier_class>  (413) 
Cholestane steroids

>  <np_classifier_is_glycoside>  (413) 
False

>  <organisms>  (413) 
Acetabularia acetabulum|Amphilectus digitatus|Amphilectus fucorum|Anabaena viguieri|Arabis purpurea|Artemisia abyssinica|Asphodelus fistulosus|Axinella cannabina|Bugula neritina|Canistrocarpus cervicornis|Cichorium spinosum|Cliona celata|Crambe crambe|Cymodocea nodosa|Cystoseira elegans|Dictyopteris delicatula|Dictyopteris plagiogramma|Dictyota cervicornis|Dictyota dichotoma|Dictyota mertensii|Dolichospermum solitarium|Dragmacidon lunaecharta|Dysidea fragilis|Echinometra lucunter|Encope emarginata|Enteromorpha linza|Eunicea fusca|Eutreptia viridis|Gymnodinium lunula|Haliclona oculata|Hypnea japonica|Kalanchoe petitiana|Lunasia quercifolia|Macaranga sampsonii|Muricea californica|Neoesperiopsis digitata|Neofibularia nolitangere|Nodularia harveyana|Nostoc carneum|Nostoc commune|Obelia longissima|Padina gymnospora|Padina vickersiae|Palythoa caribaeorum|Petrosia ficiformis|Petrosia weinbergi|Phallusia nigra|Phyllidiella pustulosa|Posidonia oceanica|Prorocentrum balticum|Pyrocystis lunula|Salpa thompsoni|Sargassum filipendula|Sargassum furcatum|Sea peach|Senecio dianthus|Ulva linza|Water net

>  <collections>  (413) 
Latin America dataset|NPASS|NuBBEDB|Super Natural II|WikiData Natural Products

>  <dois>  (413) 
10.1007/BF00565153|10.1007/BF00575174|10.1007/S10600-010-9670-X|10.1016/0031-9422(88)80434-5|10.1016/0031-9422(91)80079-G|10.1016/0031-9422(91)83027-I|10.1016/0039-128X(80)90095-1|10.1016/0039-128X(81)90070-2|10.1016/0039-128X(82)90018-6|10.1016/0039-128X(82)90021-6|10.1016/0039-128X(82)90042-3|10.1016/0039-128X(83)90093-4|10.1016/0039-128X(95)00055-U|10.1016/0039-128X(95)00117-9|10.1016/0305-0491(82)90526-0|10.1016/0305-1978(84)90058-9|10.1016/0305-1978(96)00001-4|10.1016/S0031-9422(00)80787-6|10.1016/S0031-9422(00)83106-4|10.1016/S0031-9422(00)84109-6|10.1016/S0031-9422(00)85025-6|10.1016/S0031-9422(00)90430-8|10.1016/S0031-9422(99)00251-4|10.1016/S0039-128X(99)00068-9|10.1016/S0040-4020(01)85914-7|10.1016/S0040-4020(01)88936-5|10.1016/S0305-0491(99)00065-6|10.1021/JA01491A040|10.1021/NP9804740|10.1039/P19830000147|10.1139/V85-398|10.1248/CPB.31.1366|10.1248/CPB.34.4562

>  <synonyms>  (413) 
(3S,8S,9S,10R,13R,14S,17R)-10,13-dimethyl-17-[(E,2R)-6-methylhept-3-en-2-yl]-2,3,4,7,8,9,11,12,14,15,16,17-dodecahydro-1H-cyclopenta[a]phenanthren-3-ol|(3beta,22E)-Cholesta-5,22-dien-3-ol|24-cholesta-522(E)-dien-3\u221a\u00e9\u00ac\u2264-ol|26033-10-3|3.beta.-Cholesta-5,22-dien-3-ol|34347-28-9|5,22-Cholestadien-3beta-ol|CHEBI:156155|CHEMBL1836651|Cholesta-5,22-dien-3-ol, (3.beta.)-|Cholesta-5,22E-dien-3beta-ol|DTXSID40187920|LMST01010095|SCHEMBL13845882|UPGTYLFCVNHBTN-OFAYOZIESA-N|cholesta-5,22E-dien-3-ol

>  <cas>  (413) 
34347-28-9|26033-10-3

$$$$

     RDKit          2D

 26 28  0  0  0  0  0  0  0  0999 V2000
   -6.6783    2.8958    0.0000 C   0  0  0  0  0  0  0  0  0  0  0  0
   -6.3544    1.4311    0.0000 O   0  0  0  0  0  0  0  0  0  0  0  0
   -4.9241    0.9793    0.0000 C   0  0  0  0  0  0  0  0  0  0  0  0
   -3.8176    1.9920    0.0000 C   0  0  0  0  0  0  0  0  0  0  0  0
   -2.3873    1.5402    0.0000 C   0  0  0  0  0  0  0  0  0  0  0  0
   -2.0635    0.0755    0.0000 C   0  0  0  0  0  0  0  0  0  0  0  0
   -0.6332   -0.3763    0.0000 C   0  0  0  0  0  0  0  0  0  0  0  0
   -0.3093   -1.8410    0.0000 C   0  0  0  0  0  0  0  0  0  0  0  0
    1.1210   -2.2928    0.0000 C   0  0  0  0  0  0  0  0  0  0  0  0
    1.4448   -3.7575    0.0000 O   0  0  0  0  0  0  0  0  0  0  0  0
    2.2275   -1.2801    0.0000 C   0  0  0  0  0  0  0  0  0  0  0  0
    3.6578   -1.7319    0.0000 C   0  0  0  0  0  0  0  0  0  0  0  0
    3.9816   -3.1966    0.0000 O   0  0  0  0  0  0  0  0  0  0  0  0
    4.7643   -0.7192    0.0000 C   0  0  0  0  0  0  0  0  0  0  0  0
    4.4405    0.7454    0.0000 C   0  0  0  0  0  0  0  0  0  0  0  0
    5.5469    1.7582    0.0000 O   0  0  0  0  0  0  0  0  0  0  0  0
    6.9773    1.3063    0.0000 C   0  0  0  0  0  0  0  0  0  0  0  0
    3.0101    1.1973    0.0000 C   0  0  0  0  0  0  0  0  0  0  0  0
    2.6863    2.6619    0.0000 O   0  0  0  0  0  0  0  0  0  0  0  0
    3.7928    3.6747    0.0000 C   0  0  0  0  0  0  0  0  0  0  0  0
    1.9036    0.1846    0.0000 C   0  0  0  0  0  0  0  0  0  0  0  0
    0.4733    0.6364    0.0000 O   0  0  0  0  0  0  0  0  0  0  0  0
   -3.1700   -0.9372    0.0000 C   0  0  0  0  0  0  0  0  0  0  0  0
   -4.6003   -0.4854    0.0000 C   0  0  0  0  0  0  0  0  0  0  0  0
   -5.7068   -1.4981    0.0000 O   0  0  0  0  0  0  0  0  0  0  0  0
   -5.3830   -2.9628    0.0000 C   0  0  0  0  0  0  0  0  0  0  0  0
  1  2  1  0
  2  3  1  0
  3  4  2  0
  4  5  1  0
  5  6  2  0
  6  7  1  0
  7  8  2  0
  8  9  1  0
  9 10  2  0
  9 11  1  0
 11 12  2  0
 12 13  1  0
 12 14  1  0
 14 15  2  0
 15 16  1  0
 16 17  1  0
 15 18  1  0
 18 19  1  0
 19 20  1  0
 18 21  2  0
 21 22  1  0
  6 23  1  0
 23 24  2  0
 24 25  1  0
 25 26  1  0
 24  3  1  0
 22  7  1  0
 21 11  1  0
M  END
>  <identifier>  (414) 
CNP0194899.0

>  <canonical_smiles>  (414) 
COC1=CC=C(C2=CC(=O)C3=C(O)C=C(OC)C(OC)=C3O2)C=C1OC

>  <standard_inchi>  (414) 
InChI=1S/C19H18O7/c1-22-13-6-5-10(7-15(13)23-2)14-8-11(20)17-12(21)9-16(24-3)18(25-4)19(17)26-14/h5-9,21H,1-4H3

>  <standard_inchi_key>  (414) 
HIUKQMVQSJHRNC-UHFFFAOYSA-N

>  <name>  (414) 
5-Hydroxy-3',4',7,8-tetramethoxyflavone

>  <iupac_name>  (414) 
2-(3,4-dimethoxyphenyl)-5-hydroxy-7,8-dimethoxy-chromen-4-one

>  <annotation_level>  (414) 
5

>  <total_atom_count>  (414) 
44

>  <heavy_atom_count>  (414) 
26

>  <molecular_weight>  (414) 
358.35

>  <exact_molecular_weight>  (414) 
358.10525

>  <molecular_formula>  (414) 
C19H18O7

>  <alogp>  (414) 
3.20

>  <topological_polar_surface_area>  (414) 
87.36

>  <rotatable_bond_count>  (414) 
5

>  <hydrogen_bond_acceptors>  (414) 
7

>  <hydrogen_bond_donors>  (414) 
1

>  <hydrogen_bond_acceptors_lipinski>  (414) 
7

>  <hydrogen_bond_donors_lipinski>  (414) 
1

>  <lipinski_rule_of_five_violations>  (414) 
0

>  <aromatic_rings_count>  (414) 
3

>  <qed_drug_likeliness>  (414) 
0.75

>  <formal_charge>  (414) 
0

>  <fractioncsp3>  (414) 
0.21

>  <number_of_minimal_rings>  (414) 
3

>  <van_der_walls_volume>  (414) 
308.06

>  <contains_sugar>  (414) 
False

>  <contains_ring_sugars>  (414) 
False

>  <contains_linear_sugars>  (414) 
False

>  <murcko_framework>  (414) 
O1c2ccccc2CC=C1c3ccccc3

>  <np_likeness>  (414) 
1.04

>  <chemical_class>  (414) 
Flavonoids

>  <chemical_sub_class>  (414) 
O-methylated flavonoids

>  <chemical_super_class>  (414) 
Phenylpropanoids and polyketides

>  <direct_parent_classification>  (414) 
8-O-methylated flavonoids

>  <np_classifier_pathway>  (414) 
Shikimates and Phenylpropanoids

>  <np_classifier_superclass>  (414) 
Flavonoids

>  <np_classifier_class>  (414) 
Flavones

>  <np_classifier_is_glycoside>  (414) 
False

>  <organisms>  (414) 
Aegialitis annulata|Aloe speciosa|Andira araroba|Aniba riparia|Bonellia macrocarpa|Citrus bergamia|Citrus reticulata|Citrus sinensis|Citrus × deliciosa|Condalia buxifolia|Cowania mexicana var. Stansburiana|Daedaleopsis tricolor|Eugenia formosa|Garcinia gaudichaudii|Geigeria filifolia|Gentiana makinoi|Hypericum elodes|Kigelia pinnata|Lamprothamnus zanguebaricus|Letharia vulpina|Litsea monopetala|Lychnophora affinis|Metanarthecium luteoviride|Pandanus tectorius|Peperomia blanda|Peperomia dindygulensis|Peperomia dindygulensis Miq.|Peperomia humilis|Peperomia leptostachya|Sarcococca saligna|Silybum marianum|Stylotella aurantium|Tubularia larynx

>  <collections>  (414) 
CMAUP (cCollective molecular activities of useful plants)|FooDB|KNApSaCK|Latin America dataset|NPASS|NPEdia|NuBBEDB|Super Natural II|UNPD (Universal Natural Products Database)|WikiData Natural Products

>  <dois>  (414) 
10.1016/J.JPBA.2019.03.056|10.1016/J.PHYTOCHEM.2007.08.012|10.1021/NP050283E|10.1021/jf801103p|10.3390/MOLECULES22071114

>  <synonyms>  (414) 
13003-74-2|2-(3,4-Dimethoxyphenyl)-5-hydroxy-7,8-dimethoxy-4H-1-benzopyran-4-one|2-(3,4-dimethoxyphenyl)-5-hydroxy-7,8-dimethoxychromen-4-one|5-Hydroxy-3',4',7,8-tetramethoxyflavone|5-Hydroxy-7,8,3',4'-tetramethoxyflavone|7,8,3',4'-Tetramethoxy-5-hydroxyflavon|CHEBI:175598|DTXSID401157997|Hypolaetin 7,8,3',4'-tetramethyl ether|LMPK12111402|SCHEMBL4057928

>  <cas>  (414) 
13003-74-2

$$$$

     RDKit          2D

 18 20  0  0  0  0  0  0  0  0999 V2000
    3.0389    2.4762    0.0000 C   0  0  0  0  0  0  0  0  0  0  0  0
    1.8588    1.5502    0.0000 N   0  0  0  0  0  0  0  0  0  0  0  0
    0.4669    2.1093    0.0000 C   0  0  0  0  0  0  0  0  0  0  0  0
    0.2550    3.5942    0.0000 O   0  0  0  0  0  0  0  0  0  0  0  0
   -0.7132    1.1833    0.0000 C   0  0  0  0  0  0  0  0  0  0  0  0
   -0.5014   -0.3017    0.0000 C   0  0  0  0  0  0  0  0  0  0  0  0
   -1.6815   -1.2276    0.0000 O   0  0  0  0  0  0  0  0  0  0  0  0
   -3.0734   -0.6686    0.0000 C   0  0  0  0  0  0  0  0  0  0  0  0
   -4.5726   -0.6194    0.0000 C   0  0  0  0  0  0  0  0  0  0  0  0
   -3.3822   -2.1365    0.0000 C   0  0  0  0  0  0  0  0  0  0  0  0
   -3.2853    0.8163    0.0000 C   0  0  0  0  0  0  0  0  0  0  0  0
   -2.1052    1.7423    0.0000 C   0  0  0  0  0  0  0  0  0  0  0  0
    0.8906   -0.8607    0.0000 C   0  0  0  0  0  0  0  0  0  0  0  0
    1.1024   -2.3456    0.0000 C   0  0  0  0  0  0  0  0  0  0  0  0
    2.4944   -2.9046    0.0000 C   0  0  0  0  0  0  0  0  0  0  0  0
    3.6745   -1.9787    0.0000 C   0  0  0  0  0  0  0  0  0  0  0  0
    3.4626   -0.4937    0.0000 C   0  0  0  0  0  0  0  0  0  0  0  0
    2.0707    0.0653    0.0000 C   0  0  0  0  0  0  0  0  0  0  0  0
  1  2  1  0
  2  3  1  0
  3  4  2  0
  3  5  1  0
  5  6  2  0
  6  7  1  0
  7  8  1  0
  8  9  1  0
  8 10  1  0
  8 11  1  0
 11 12  2  0
  6 13  1  0
 13 14  2  0
 14 15  1  0
 15 16  2  0
 16 17  1  0
 17 18  2  0
 18  2  1  0
 12  5  1  0
 18 13  1  0
M  END
>  <identifier>  (415) 
CNP0232994.0

>  <canonical_smiles>  (415) 
CN1C(=O)C2=C(OC(C)(C)C=C2)C2=CC=CC=C21

>  <standard_inchi>  (415) 
InChI=1S/C15H15NO2/c1-15(2)9-8-11-13(18-15)10-6-4-5-7-12(10)16(3)14(11)17/h4-9H,1-3H3

>  <standard_inchi_key>  (415) 
RJZFGBNKPOVCHQ-UHFFFAOYSA-N

>  <name>  (415) 
N-Methylflindersine

>  <iupac_name>  (415) 
2,2,6-trimethylpyrano[3,2-c]quinolin-5-one

>  <annotation_level>  (415) 
5

>  <total_atom_count>  (415) 
33

>  <heavy_atom_count>  (415) 
18

>  <molecular_weight>  (415) 
241.29

>  <exact_molecular_weight>  (415) 
241.11028

>  <molecular_formula>  (415) 
C15H15NO2

>  <alogp>  (415) 
2.72

>  <topological_polar_surface_area>  (415) 
31.23

>  <rotatable_bond_count>  (415) 
0

>  <hydrogen_bond_acceptors>  (415) 
3

>  <hydrogen_bond_donors>  (415) 
0

>  <hydrogen_bond_acceptors_lipinski>  (415) 
3

>  <hydrogen_bond_donors_lipinski>  (415) 
0

>  <lipinski_rule_of_five_violations>  (415) 
0

>  <aromatic_rings_count>  (415) 
2

>  <qed_drug_likeliness>  (415) 
0.71

>  <formal_charge>  (415) 
0

>  <fractioncsp3>  (415) 
0.27

>  <number_of_minimal_rings>  (415) 
3

>  <van_der_walls_volume>  (415) 
220.87

>  <contains_sugar>  (415) 
False

>  <contains_ring_sugars>  (415) 
False

>  <contains_linear_sugars>  (415) 
False

>  <murcko_framework>  (415) 
O1C=2c3ccccc3NCC2C=CC1

>  <np_likeness>  (415) 
1.67

>  <chemical_class>  (415) 
Quinolines and derivatives

>  <chemical_sub_class>  (415) 
Quinolones and derivatives

>  <chemical_super_class>  (415) 
Organoheterocyclic compounds

>  <direct_parent_classification>  (415) 
Pyranoquinolines

>  <np_classifier_pathway>  (415) 
Alkaloids

>  <np_classifier_superclass>  (415) 
Tryptophan alkaloids

>  <np_classifier_class>  (415) 
Quinoline alkaloids

>  <np_classifier_is_glycoside>  (415) 
False

>  <organisms>  (415) 
Adiscanthus fusciflorus|Andreadoxa flava|Atalantia Roxburghiana|Atalantia roxburghiana|Conchocarpus guyanensis|Dictamnus albus|Dictamnus angustifolius|Dictamnus dasycarpus|Euxylophora paraensis|Fagara chalybea|Fagara chalybea and Fagara holtziana|Hortia superba|Lunasia amara|Melicope denhamii|Melicope ptelefolia|Melicope pteleifolia|Micromelum falcatum|Micromelum minutum|Myrtopsis novae-caledoniae|Orixa japonica|Phellodendron amurense|Phellodendron chinense|Phellodendron chinese|Ptelea trifolia|Ptelea trifoliata|Stephania tetrandra|Toddalia asiatica|Xylocarpus Granatum|Xylocarpus granatum|Zanthoxylum asiaticum|Zanthoxylum beecheyanum|Zanthoxylum chalybaeum|Zanthoxylum chalybeum|Zanthoxylum integrifoliolum|Zanthoxylum nitidum|Zanthoxylum schinifolium|Zanthoxylum simulans|Zanthoxylum wutaiense

>  <collections>  (415) 
ANPDB|Australian natural products|CMAUP (cCollective molecular activities of useful plants)|ChEBI NPs|ChemSpider NPs|ConMedNP|ETM (Ethiopian Traditional Medicine) DB|KNApSaCK|Latin America dataset|NANPDB (Natural Products from Northern African Sources)|NPASS|NPEdia|NuBBEDB|PubChem NPs|Super Natural II|TCMDB-Taiwan (Traditional Chinese Medicine database)|TCMID (Traditional Chinese Medicine Integrated Database)|TIPdb (database of Taiwan indigenous plants)|UNPD (Universal Natural Products Database)|VietHerb|WikiData Natural Products|ZINC NP

>  <dois>  (415) 
10.1002/JCCS.200400159|10.1002/JCCS.200700112|10.1002/JLAC.199319930160|10.1002/JSSC.201400012|10.1016/0031-9422(80)83207-9|10.1016/0031-9422(83)80059-4|10.1016/J.BSE.2003.09.006|10.1016/J.FOODCHEM.2010.09.069|10.1016/J.TET.2012.01.007|10.1016/S0031-9422(00)86717-5|10.1016/S0031-9422(00)97107-3|10.1016/S0031-9422(98)00500-7|10.1016/S0031-9422(98)00519-6|10.1016/j.phytol.2010.10.006|10.1021/NP0401462|10.1021/NP070186G|10.1021/NP50111A003|10.1021/NP700719E|10.1021/np070186g|10.1021/np50099a012|10.1055/S-2006-961713|10.1071/CH9811625|10.1071/CH9830759|10.1248/CPB.57.600|10.1248/YAKUSHI1947.111.7_365|10.1271/BBB1961.49.3051|10.3390/MOLECULES190812031

>  <synonyms>  (415) 
2,2,6-TRIMETHYL-2H,5H,6H-PYRANO[3,2-C]QUINOLIN-5-ONE|2,2,6-Trimethyl-2,6-dihydro-5H-pyrano[3,2-c]quinoline-5-one|2,2,6-Trimethyl-2H,5H-pyrano(3,2-c)quinolin-5-one|2,2,6-Trimethyl-2H-pyrano[3,2-c]quinolin-5(6H)-one|2,2,6-trimethylpyrano[3,2-c]quinolin-5-one|2,6-Dihydro-2,2,6-trimethyl-5H-pyrano(3,2-c)quinolin-5-one|50333-13-6|5H-Pyrano(3,2-c)quinolin-5-one, 2,6-dihydro-2,2,6-trimethyl-|AKOS028108463|BSN569UDJ0|CHEBI:7315|CHEMBL400130|DB-260222|DTXSID40198374|MLS003171057|MS-23418|N-Methylflindersine|NS00067914|NSC-347659|Q27107472|RJZFGBNKPOVCHQ-UHFFFAOYSA-N|SMR001874966|UNII-BSN569UDJ0

>  <cas>  (415) 
50333-13-6

$$$$

     RDKit          2D

 31 34  0  0  0  0  0  0  0  0999 V2000
   -1.8897    1.7296    0.0000 O   0  0  0  0  0  0  0  0  0  0  0  0
   -0.4069    1.5033    0.0000 C   0  0  0  0  0  0  0  0  0  0  0  0
    0.1385    0.1060    0.0000 C   0  0  0  0  0  0  0  0  0  0  0  0
   -0.7988   -1.0650    0.0000 O   0  0  0  0  0  0  0  0  0  0  0  0
   -2.2817   -0.8387    0.0000 C   0  0  0  0  0  0  0  0  0  0  0  0
   -2.8271    0.5586    0.0000 O   0  0  0  0  0  0  0  0  0  0  0  0
   -4.3100    0.7849    0.0000 C   0  0  0  0  0  0  0  0  0  0  0  0
   -5.2473   -0.3861    0.0000 C   0  0  0  0  0  0  0  0  0  0  0  0
   -6.7302   -0.1599    0.0000 O   0  0  0  0  0  0  0  0  0  0  0  0
   -4.7019   -1.7835    0.0000 C   0  0  0  0  0  0  0  0  0  0  0  0
   -5.6393   -2.9545    0.0000 O   0  0  0  0  0  0  0  0  0  0  0  0
   -3.2191   -2.0097    0.0000 C   0  0  0  0  0  0  0  0  0  0  0  0
   -2.6736   -3.4071    0.0000 O   0  0  0  0  0  0  0  0  0  0  0  0
    1.6214   -0.1203    0.0000 C   0  0  0  0  0  0  0  0  0  0  0  0
    2.1668   -1.5176    0.0000 C   0  0  0  0  0  0  0  0  0  0  0  0
    1.2294   -2.6886    0.0000 C   0  0  0  0  0  0  0  0  0  0  0  0
    1.7749   -4.0859    0.0000 C   0  0  0  0  0  0  0  0  0  0  0  0
    3.2577   -4.3122    0.0000 C   0  0  0  0  0  0  0  0  0  0  0  0
    3.8032   -5.7095    0.0000 O   0  0  0  0  0  0  0  0  0  0  0  0
    4.1951   -3.1412    0.0000 C   0  0  0  0  0  0  0  0  0  0  0  0
    5.6779   -3.3675    0.0000 O   0  0  0  0  0  0  0  0  0  0  0  0
    3.6497   -1.7439    0.0000 C   0  0  0  0  0  0  0  0  0  0  0  0
    2.5588    1.0508    0.0000 O   0  0  0  0  0  0  0  0  0  0  0  0
    2.0133    2.4481    0.0000 C   0  0  0  0  0  0  0  0  0  0  0  0
    2.9507    3.6191    0.0000 C   0  0  0  0  0  0  0  0  0  0  0  0
    2.4053    5.0164    0.0000 C   0  0  0  0  0  0  0  0  0  0  0  0
    3.3426    6.1875    0.0000 O   0  0  0  0  0  0  0  0  0  0  0  0
    0.9224    5.2427    0.0000 C   0  0  0  0  0  0  0  0  0  0  0  0
   -0.0150    4.0717    0.0000 C   0  0  0  0  0  0  0  0  0  0  0  0
   -1.4978    4.2980    0.0000 O   0  0  0  0  0  0  0  0  0  0  0  0
    0.5305    2.6744    0.0000 C   0  0  0  0  0  0  0  0  0  0  0  0
  1  2  2  0
  2  3  1  0
  3  4  1  0
  5  4  1  1
  5  6  1  0
  6  7  1  0
  7  8  1  0
  8  9  1  6
  8 10  1  0
 10 11  1  1
 10 12  1  0
 12 13  1  6
  3 14  2  0
 14 15  1  0
 15 16  2  0
 16 17  1  0
 17 18  2  0
 18 19  1  0
 18 20  1  0
 20 21  1  0
 20 22  2  0
 14 23  1  0
 23 24  1  0
 24 25  2  0
 25 26  1  0
 26 27  1  0
 26 28  2  0
 28 29  1  0
 29 30  1  0
 29 31  2  0
 31  2  1  0
 12  5  1  0
 22 15  1  0
 31 24  1  0
M  END
>  <identifier>  (416) 
CNP0388516.2

>  <canonical_smiles>  (416) 
O=C1C(O[C@@H]2OC[C@@H](O)[C@H](O)[C@H]2O)=C(C2=CC=C(O)C(O)=C2)OC2=CC(O)=CC(O)=C12

>  <standard_inchi>  (416) 
InChI=1S/C20H18O11/c21-8-4-11(24)14-13(5-8)30-18(7-1-2-9(22)10(23)3-7)19(16(14)27)31-20-17(28)15(26)12(25)6-29-20/h1-5,12,15,17,20-26,28H,6H2/t12-,15+,17-,20+/m1/s1

>  <standard_inchi_key>  (416) 
PZZRDJXEMZMZFD-BWYUNELBSA-N

>  <name>  (416) 
Reynoutrin

>  <iupac_name>  (416) 
2-(3,4-dihydroxyphenyl)-5,7-dihydroxy-3-[(2~{S},3~{R},4~{S},5~{R})-3,4,5-trihydroxytetrahydropyran-2-yl]oxy-chromen-4-one

>  <annotation_level>  (416) 
5

>  <total_atom_count>  (416) 
49

>  <heavy_atom_count>  (416) 
31

>  <molecular_weight>  (416) 
434.35

>  <exact_molecular_weight>  (416) 
434.08491

>  <molecular_formula>  (416) 
C20H18O11

>  <alogp>  (416) 
0.10

>  <topological_polar_surface_area>  (416) 
190.28

>  <rotatable_bond_count>  (416) 
3

>  <hydrogen_bond_acceptors>  (416) 
11

>  <hydrogen_bond_donors>  (416) 
7

>  <hydrogen_bond_acceptors_lipinski>  (416) 
11

>  <hydrogen_bond_donors_lipinski>  (416) 
7

>  <lipinski_rule_of_five_violations>  (416) 
2

>  <aromatic_rings_count>  (416) 
3

>  <qed_drug_likeliness>  (416) 
0.28

>  <formal_charge>  (416) 
0

>  <fractioncsp3>  (416) 
0.25

>  <number_of_minimal_rings>  (416) 
4

>  <van_der_walls_volume>  (416) 
345.38

>  <contains_sugar>  (416) 
True

>  <contains_ring_sugars>  (416) 
True

>  <contains_linear_sugars>  (416) 
False

>  <murcko_framework>  (416) 
O1c2ccccc2CC(OC3OCCCC3)=C1c4ccccc4

>  <np_likeness>  (416) 
2.04

>  <chemical_class>  (416) 
Flavonoids

>  <chemical_sub_class>  (416) 
Flavonoid glycosides

>  <chemical_super_class>  (416) 
Phenylpropanoids and polyketides

>  <direct_parent_classification>  (416) 
Flavonoid-3-O-glycosides

>  <np_classifier_pathway>  (416) 
Shikimates and Phenylpropanoids

>  <np_classifier_superclass>  (416) 
Flavonoids

>  <np_classifier_class>  (416) 
Flavonols

>  <np_classifier_is_glycoside>  (416) 
True

>  <organisms>  (416) 
Acanthopanax ricinifolius|Aconitum seravschanicum|Aconitum tasiromontanum|Adansonia grandidieri|Aegiceras corniculatum|Agastache rugosa|Agelas conifera|Alangium premnifolium|Albizia julibrissin|Anabaena minutissima|Anacardium occidentale|Anchusa officinalis|Angelica tarokoensis|Aphyllocladus denticulatus|Aspergillus giganteus|Aster sedifolius|Bassia muricata|Bergenia ligulata|Bergenia pacumbis|Bombax ceiba|Bragantia wallichii|Calocera viscosa|Caryopteris mongholica|Cassia fistula|Caulocystis cephalornithos|Centaurea corcubionensis|Cinnamomum philippinense|Coleogyne ramosissima|Colobocentrotus atratus|Cornus mas|Cryptocarya moschata|Cytophaga hutchinsoni|Dalbergia rubiginosa|Delphinium andersoni|Dendriopoterium menendezii|Dendrophthoe falcata|Dictyopteris australis|Diphasia angolensis|Dodonaea viscosa|Dorstenia barteri|Dysoxylum cumingianum|Enceliopsis argophylla|Entomophthora virulenta|Epichloe festucae var. lolii|Epimedium davidii|Eria mollis|Eriocheir sinensis|Erysimum canescens|Erysimum odoratum|Eucryphia glutinosa|Euphorbia hyssopifolia|Euphorbia kansui|Eupolyphaga sinensis|Eutypella scoparia|Flacourtia jangomas|Frullania tamarisci|Fusarium roseum|Gadus morhua callarias|Galenia africana|Geranium niveum|Globba malaccensis|Gnidia lamprantha|Hedeoma multiflora|Hemerocallis|Heterotheca inuloides|Hypsizygus ulmarius|Ilex amara|Illicium verum|Indigofera spicata|Isaria fumosorosea|Isodon japonicus|Justicia secunda|Knightia excelsa|Laurencia distichophylla|Lavandula vera|Leonurus glaucescens|Lepidium draba|Leucetta microrhaphis|Maba buxifolia|Malus domestica|Malus pumila|Mappia foetida|Mesembryanthemum tortuosum|Metapenaeus macleayi|Micromeria pineolens|Miliusa velutina|Mimosa diplotricha|Monomorium delagoense|Nemalion vermiculare|Neobalanocarpus heimii|Nidula candida|Nymphaea ampla|Onobrychis arenaria|Ophiocoma scolopendrina|Paenibacillus macerans|Penicillium citreonigrum|Pestalotiopsis guepinii|Phycopsis terpnis|Physalis alkekengi|Pilularia globulifera|Pilularia minuta|Pinus brutia var. pityusa|Plantago bellardi|Polygonum cuspidatum|Psidium cattleyanum|Psidium guajava|Psychotria stachyoides|Quercus sessiliflora|Ramalina terebrata|Rapistrum rugosum|Rattus rattus|Rivularia firma|Rodgersia podophylla|Salacia madagascariensis|Salvia cyanescens|Sargassum thunbergii|Satureja atropatana|Saussurea carthamoides|Securidaca diversifolia|Securidaca longepedunculata|Senecio subdentatus|Siphoneugena densiflora|Solanum acaule|Sphaerella laricina|Spodoptera eridania|Streptomyces griseovariabilis|Swertia delavayi|Teucrium yemense|Vaccinium vitis-idaea|Vallota purpurea|Vismia jefensis|Ximenia americana

>  <collections>  (416) 
AnalytiCon Discovery NPs|Australian natural products|CMAUP (cCollective molecular activities of useful plants)|ChEBI NPs|ChemSpider NPs|Latin America dataset|NPASS|NuBBEDB|Phyto4Health|Super Natural II|WikiData Natural Products|ZINC NP

>  <dois>  (416) 
10.1002/(SICI)1099-1573(199702)11:1<22::AID-PTR951>3.0.CO;2-3|10.1002/JCCS.201190020|10.1002/ps.1278|10.1007/S007060050321|10.1007/S11418-010-0400-2|10.1016/0031-9422(88)80645-9|10.1016/J.FOODCHEM.2009.07.063|10.1016/J.PHYTOCHEM.2005.02.027|10.1016/S0031-9422(00)00192-8|10.1016/S0031-9422(00)80695-0|10.1016/S0031-9422(00)95110-0|10.1016/S0308-8146(96)00287-7|10.1016/S0367-326X(00)00161-1|10.1016/j.jep.2011.12.031|10.1021/JF00076A022|10.1021/JF00081A007|10.1021/JF010914K|10.1021/JF0623687|10.1021/NP200307R|10.1021/NP980467B|10.1021/np200307r|10.1080/14786419.2011.585610|10.1080/14786419.2017.1402320|10.1248/CPB.54.234|10.1590/S0100-40422010000200017|10.1590/S0103-50532006000200010

>  <synonyms>  (416) 
2-(3,4-DIHYDROXYPHENYL)-5,7-DIHYDROXY-3-{[(2S,3R,4S,5R)-3,4,5-TRIHYDROXYOXAN-2-YL]OXY}CHROMEN-4-ONE|2-(3,4-Dihydroxyphenyl)-5,7-dihydroxy-3-(((2S,3R,4S,5R)-3,4,5-trihydroxytetrahydro-2H-pyran-2-yl)oxy)-4H-chromen-4-one|2-(3,4-dihydroxyphenyl)-5,7-dihydroxy-3-[(2S,3R,4S,5R)-3,4,5-trihydroxyoxan-2-yl]oxychromen-4-one|2-(3,4-dihydroxyphenyl)-5,7-dihydroxy-4-oxo-4H-chromen-3-yl beta-D-xylopyranoside|549-32-6|AKOS037515182|CHEBI:69456|CHEMBL488198|CS-0016762|GLXC-14516|HY-N1354|MS-27768|Q27137793|Quercetin 3-O-beta-D-xylopyranoside|Quercetin-3-O-\u221a\u00e9\u00ac\u2264-D-xylopyranoside, Reynoutrin|SCHEMBL6759025|quercetin-3-O-_-D-xylopyranoside|quercetin-3-o-beta-d-xylopyranoside|reynoutrin

>  <cas>  (416) 
549-32-6

$$$$

     RDKit          2D

 20 21  0  0  0  0  0  0  0  0999 V2000
    9.0024    0.1063    0.0000 C   0  0  0  0  0  0  0  0  0  0  0  0
    7.6449   -0.5318    0.0000 C   0  0  0  0  0  0  0  0  0  0  0  0
    7.5189   -2.0265    0.0000 C   0  0  0  0  0  0  0  0  0  0  0  0
    6.4135    0.3247    0.0000 C   0  0  0  0  0  0  0  0  0  0  0  0
    5.0561   -0.3135    0.0000 N   0  0  0  0  0  0  0  0  0  0  0  0
    3.8246    0.5430    0.0000 C   0  0  0  0  0  0  0  0  0  0  0  0
    3.9507    2.0377    0.0000 O   0  0  0  0  0  0  0  0  0  0  0  0
    2.4672   -0.0952    0.0000 C   0  0  0  0  0  0  0  0  0  0  0  0
    1.2358    0.7613    0.0000 C   0  0  0  0  0  0  0  0  0  0  0  0
   -0.1217    0.1232    0.0000 C   0  0  0  0  0  0  0  0  0  0  0  0
   -1.3531    0.9797    0.0000 C   0  0  0  0  0  0  0  0  0  0  0  0
   -2.7106    0.3415    0.0000 C   0  0  0  0  0  0  0  0  0  0  0  0
   -2.8367   -1.1532    0.0000 C   0  0  0  0  0  0  0  0  0  0  0  0
   -4.1941   -1.7914    0.0000 C   0  0  0  0  0  0  0  0  0  0  0  0
   -5.4255   -0.9349    0.0000 C   0  0  0  0  0  0  0  0  0  0  0  0
   -6.8860   -1.2769    0.0000 O   0  0  0  0  0  0  0  0  0  0  0  0
   -7.6626    0.0065    0.0000 C   0  0  0  0  0  0  0  0  0  0  0  0
   -6.6821    1.1416    0.0000 O   0  0  0  0  0  0  0  0  0  0  0  0
   -5.2995    0.5598    0.0000 C   0  0  0  0  0  0  0  0  0  0  0  0
   -3.9420    1.1980    0.0000 C   0  0  0  0  0  0  0  0  0  0  0  0
  1  2  1  0
  2  3  1  0
  2  4  1  0
  4  5  1  0
  5  6  1  0
  6  7  2  0
  6  8  1  0
  8  9  2  0
  9 10  1  0
 10 11  1  0
 11 12  1  0
 12 13  2  0
 13 14  1  0
 14 15  2  0
 15 16  1  0
 16 17  1  0
 17 18  1  0
 18 19  1  0
 19 20  2  0
 20 12  1  0
 19 15  1  0
M  END
>  <identifier>  (417) 
CNP0193578.1

>  <canonical_smiles>  (417) 
CC(C)CNC(=O)/C=C/CCC1=CC=C2OCOC2=C1

>  <standard_inchi>  (417) 
InChI=1S/C16H21NO3/c1-12(2)10-17-16(18)6-4-3-5-13-7-8-14-15(9-13)20-11-19-14/h4,6-9,12H,3,5,10-11H2,1-2H3,(H,17,18)/b6-4+

>  <standard_inchi_key>  (417) 
CSGDXLXTJVRNEA-GQCTYLIASA-N

>  <name>  (417) 
nan

>  <iupac_name>  (417) 
nan

>  <annotation_level>  (417) 
0

>  <total_atom_count>  (417) 
41

>  <heavy_atom_count>  (417) 
20

>  <molecular_weight>  (417) 
275.35

>  <exact_molecular_weight>  (417) 
275.15214

>  <molecular_formula>  (417) 
C16H21NO3

>  <alogp>  (417) 
2.68

>  <topological_polar_surface_area>  (417) 
47.56

>  <rotatable_bond_count>  (417) 
6

>  <hydrogen_bond_acceptors>  (417) 
3

>  <hydrogen_bond_donors>  (417) 
1

>  <hydrogen_bond_acceptors_lipinski>  (417) 
3

>  <hydrogen_bond_donors_lipinski>  (417) 
1

>  <lipinski_rule_of_five_violations>  (417) 
0

>  <aromatic_rings_count>  (417) 
1

>  <qed_drug_likeliness>  (417) 
0.81

>  <formal_charge>  (417) 
0

>  <fractioncsp3>  (417) 
0.44

>  <number_of_minimal_rings>  (417) 
2

>  <van_der_walls_volume>  (417) 
267.14

>  <contains_sugar>  (417) 
False

>  <contains_ring_sugars>  (417) 
False

>  <contains_linear_sugars>  (417) 
False

>  <murcko_framework>  (417) 
O1c2ccccc2OC1

>  <np_likeness>  (417) 
0.49

>  <chemical_class>  (417) 
nan

>  <chemical_sub_class>  (417) 
nan

>  <chemical_super_class>  (417) 
nan

>  <direct_parent_classification>  (417) 
nan

>  <np_classifier_pathway>  (417) 
Alkaloids

>  <np_classifier_superclass>  (417) 
nan

>  <np_classifier_class>  (417) 
nan

>  <np_classifier_is_glycoside>  (417) 
False

>  <organisms>  (417) 
Abies webbiana|Agaricus xanthodermus|Brickellia longifolia|Bupleurum rigidum|Carpesium longifolium|Cochlearia officinalis|Coelogyne nitida|Crocus corsicus|Dichotomanthes tristaniicarpa|Didymosphaeria enalia|Dracontium loretense|Euphorbia wangii|Frullania brasiliensis|Homalium laurifolium|Leifsonia aquatica|Macropiper|Matsumurella chinensis|Monascus rubropunctatus|Mycoplasma mycoides|Ottonia corcovadensis|Palisota barteri|Penicillium tardum|Photorhabdus luminescens|Piper arboreum|Piper chaba|Piper longum|Piper nigrum|Piper retrofractum|Piper swartzianum|Piper tuberculatum|Podocarpus minor|Pothomorphe peltata|Pseudomonas stutzeri|Schefflera venulosa|Silene banksia|Verbesina virginica|Zanthoxylum gilletii|Zanthoxylum schreberi

>  <collections>  (417) 
AnalytiCon Discovery NPs|CMAUP (cCollective molecular activities of useful plants)|ChemSpider NPs|FooDB|HIT (Herbal Ingredients Targets)|Latin America dataset|NPASS|NuBBEDB|Super Natural II|TCMDB-Taiwan (Traditional Chinese Medicine database)|WikiData Natural Products

>  <dois>  (417) 
10.1002/PS.1643|10.1007/BF01952540|10.1007/BF02033462|10.1016/0031-9422(81)80027-1|10.1016/J.BMC.2009.08.050|10.1016/J.BMCL.2008.01.101|10.1016/J.TET.2011.01.015|10.1016/S0031-9422(00)00226-0|10.1016/S0040-4020(01)82575-8|10.1021/JF00103A029|10.1039/C3AN00016H|10.1055/S-0035-1546106|10.1248/CPB.31.3562

>  <synonyms>  (417) 
nan

>  <cas>  (417) 
23512-53-0

$$$$

     RDKit          2D

 10  9  0  0  0  0  0  0  0  0999 V2000
    4.9295    0.2604    0.0000 C   0  0  0  0  0  0  0  0  0  0  0  0
    3.6718   -0.5571    0.0000 C   0  0  0  0  0  0  0  0  0  0  0  0
    2.3350    0.1233    0.0000 C   0  0  0  0  0  0  0  0  0  0  0  0
    1.0773   -0.6941    0.0000 C   0  0  0  0  0  0  0  0  0  0  0  0
   -0.2594   -0.0137    0.0000 C   0  0  0  0  0  0  0  0  0  0  0  0
   -0.3386    1.4842    0.0000 O   0  0  0  0  0  0  0  0  0  0  0  0
   -1.5171   -0.8312    0.0000 C   0  0  0  0  0  0  0  0  0  0  0  0
   -2.8539   -0.1507    0.0000 C   0  0  0  0  0  0  0  0  0  0  0  0
   -4.1116   -0.9682    0.0000 C   0  0  0  0  0  0  0  0  0  0  0  0
   -2.9330    1.3472    0.0000 C   0  0  0  0  0  0  0  0  0  0  0  0
  1  2  1  0
  2  3  1  0
  3  4  1  0
  4  5  1  0
  5  6  1  6
  5  7  1  0
  7  8  1  0
  8  9  1  0
  8 10  1  0
M  END
>  <identifier>  (418) 
CNP0080555.1

>  <canonical_smiles>  (418) 
CCCC[C@@H](O)CC(C)C

>  <standard_inchi>  (418) 
InChI=1S/C9H20O/c1-4-5-6-9(10)7-8(2)3/h8-10H,4-7H2,1-3H3/t9-/m1/s1

>  <standard_inchi_key>  (418) 
BIAVIOIDPRPYJK-SECBINFHSA-N

>  <name>  (418) 
2-Methyloctan-4R-ol

>  <iupac_name>  (418) 
(4~{R})-2-methyloctan-4-ol

>  <annotation_level>  (418) 
5

>  <total_atom_count>  (418) 
30

>  <heavy_atom_count>  (418) 
10

>  <molecular_weight>  (418) 
144.26

>  <exact_molecular_weight>  (418) 
144.15142

>  <molecular_formula>  (418) 
C9H20O

>  <alogp>  (418) 
2.58

>  <topological_polar_surface_area>  (418) 
20.23

>  <rotatable_bond_count>  (418) 
5

>  <hydrogen_bond_acceptors>  (418) 
1

>  <hydrogen_bond_donors>  (418) 
1

>  <hydrogen_bond_acceptors_lipinski>  (418) 
1

>  <hydrogen_bond_donors_lipinski>  (418) 
1

>  <lipinski_rule_of_five_violations>  (418) 
0

>  <aromatic_rings_count>  (418) 
0

>  <qed_drug_likeliness>  (418) 
0.63

>  <formal_charge>  (418) 
0

>  <fractioncsp3>  (418) 
1.00

>  <number_of_minimal_rings>  (418) 
0

>  <van_der_walls_volume>  (418) 
nan

>  <contains_sugar>  (418) 
False

>  <contains_ring_sugars>  (418) 
False

>  <contains_linear_sugars>  (418) 
False

>  <murcko_framework>  (418) 
nan

>  <np_likeness>  (418) 
1.26

>  <chemical_class>  (418) 
Organooxygen compounds

>  <chemical_sub_class>  (418) 
Alcohols and polyols

>  <chemical_super_class>  (418) 
Organic oxygen compounds

>  <direct_parent_classification>  (418) 
Secondary alcohols

>  <np_classifier_pathway>  (418) 
Fatty acids

>  <np_classifier_superclass>  (418) 
Fatty acyls

>  <np_classifier_class>  (418) 
Fatty alcohols

>  <np_classifier_is_glycoside>  (418) 
False

>  <organisms>  (418) 
Sphenophorus levis

>  <collections>  (418) 
Latin America dataset|NuBBEDB|ZINC NP

>  <dois>  (418) 
10.1023/A:1022634012212

>  <synonyms>  (418) 
(4R)-2-methyloctan-4-ol|(R)-2-Methyl-4-octanol|CHEBI:178394|LMFA05000489

>  <cas>  (418) 
nan

$$$$

     RDKit          2D

 41 45  0  0  0  0  0  0  0  0999 V2000
   -5.5524    2.6484    0.0000 C   0  0  0  0  0  0  0  0  0  0  0  0
   -5.9897    1.2136    0.0000 C   0  0  0  0  0  0  0  0  0  0  0  0
   -4.9657    0.1174    0.0000 O   0  0  0  0  0  0  0  0  0  0  0  0
   -5.4030   -1.3174    0.0000 C   0  0  0  0  0  0  0  0  0  0  0  0
   -4.3791   -2.4135    0.0000 O   0  0  0  0  0  0  0  0  0  0  0  0
   -2.9178   -2.0748    0.0000 C   0  0  0  0  0  0  0  0  0  0  0  0
   -1.8939   -3.1710    0.0000 C   0  0  0  0  0  0  0  0  0  0  0  0
   -0.4326   -2.8323    0.0000 C   0  0  0  0  0  0  0  0  0  0  0  0
    0.5913   -3.9284    0.0000 O   0  0  0  0  0  0  0  0  0  0  0  0
    0.0047   -1.3974    0.0000 C   0  0  0  0  0  0  0  0  0  0  0  0
    1.4659   -1.0587    0.0000 C   0  0  0  0  0  0  0  0  0  0  0  0
    2.4899   -2.1549    0.0000 O   0  0  0  0  0  0  0  0  0  0  0  0
    1.9033    0.3761    0.0000 C   0  0  0  0  0  0  0  0  0  0  0  0
    3.3645    0.7148    0.0000 O   0  0  0  0  0  0  0  0  0  0  0  0
    4.3885   -0.3813    0.0000 C   0  0  0  0  0  0  0  0  0  0  0  0
    3.9512   -1.8162    0.0000 O   0  0  0  0  0  0  0  0  0  0  0  0
    4.9751   -2.9123    0.0000 C   0  0  0  0  0  0  0  0  0  0  0  0
    4.5378   -4.3471    0.0000 C   0  0  0  0  0  0  0  0  0  0  0  0
    6.4364   -2.5736    0.0000 C   0  0  0  0  0  0  0  0  0  0  0  0
    7.4603   -3.6697    0.0000 O   0  0  0  0  0  0  0  0  0  0  0  0
    6.8737   -1.1388    0.0000 C   0  0  0  0  0  0  0  0  0  0  0  0
    8.3349   -0.8001    0.0000 O   0  0  0  0  0  0  0  0  0  0  0  0
    5.8497   -0.0426    0.0000 C   0  0  0  0  0  0  0  0  0  0  0  0
    6.2870    1.3922    0.0000 O   0  0  0  0  0  0  0  0  0  0  0  0
    0.8793    1.4722    0.0000 C   0  0  0  0  0  0  0  0  0  0  0  0
    1.3166    2.9071    0.0000 C   0  0  0  0  0  0  0  0  0  0  0  0
    2.7779    3.2458    0.0000 C   0  0  0  0  0  0  0  0  0  0  0  0
    3.2152    4.6806    0.0000 C   0  0  0  0  0  0  0  0  0  0  0  0
    2.1912    5.7768    0.0000 C   0  0  0  0  0  0  0  0  0  0  0  0
    2.6285    7.2116    0.0000 O   0  0  0  0  0  0  0  0  0  0  0  0
    0.7300    5.4381    0.0000 C   0  0  0  0  0  0  0  0  0  0  0  0
    0.2926    4.0032    0.0000 C   0  0  0  0  0  0  0  0  0  0  0  0
   -0.5820    1.1335    0.0000 O   0  0  0  0  0  0  0  0  0  0  0  0
   -1.0193   -0.3013    0.0000 C   0  0  0  0  0  0  0  0  0  0  0  0
   -2.4805   -0.6400    0.0000 C   0  0  0  0  0  0  0  0  0  0  0  0
   -6.8643   -1.6561    0.0000 C   0  0  0  0  0  0  0  0  0  0  0  0
   -7.3016   -3.0910    0.0000 O   0  0  0  0  0  0  0  0  0  0  0  0
   -7.8883   -0.5600    0.0000 C   0  0  0  0  0  0  0  0  0  0  0  0
   -9.3495   -0.8987    0.0000 O   0  0  0  0  0  0  0  0  0  0  0  0
   -7.4510    0.8749    0.0000 C   0  0  0  0  0  0  0  0  0  0  0  0
   -8.4749    1.9710    0.0000 O   0  0  0  0  0  0  0  0  0  0  0  0
  2  1  1  6
  2  3  1  0
  3  4  1  0
  4  5  1  1
  5  6  1  0
  6  7  2  0
  7  8  1  0
  8  9  1  0
  8 10  2  0
 10 11  1  0
 11 12  2  0
 11 13  1  0
 13 14  1  0
 15 14  1  1
 15 16  1  0
 16 17  1  0
 17 18  1  6
 17 19  1  0
 19 20  1  1
 19 21  1  0
 21 22  1  6
 21 23  1  0
 23 24  1  6
 13 25  2  0
 25 26  1  0
 26 27  2  0
 27 28  1  0
 28 29  2  0
 29 30  1  0
 29 31  1  0
 31 32  2  0
 25 33  1  0
 33 34  1  0
 34 35  2  0
  4 36  1  0
 36 37  1  6
 36 38  1  0
 38 39  1  6
 38 40  1  0
 40 41  1  1
 40  2  1  0
 35  6  1  0
 34 10  1  0
 23 15  1  0
 32 26  1  0
M  END
>  <identifier>  (419) 
CNP0219489.1

>  <canonical_smiles>  (419) 
C[C@@H]1O[C@@H](OC2=CC(O)=C3C(=O)C(O[C@@H]4O[C@@H](C)[C@H](O)[C@@H](O)[C@H]4O)=C(C4=CC=C(O)C=C4)OC3=C2)[C@H](O)[C@H](O)[C@H]1O

>  <standard_inchi>  (419) 
InChI=1S/C27H30O14/c1-9-17(30)20(33)22(35)26(37-9)39-13-7-14(29)16-15(8-13)40-24(11-3-5-12(28)6-4-11)25(19(16)32)41-27-23(36)21(34)18(31)10(2)38-27/h3-10,17-18,20-23,26-31,33-36H,1-2H3/t9-,10-,17-,18-,20+,21+,22+,23+,26-,27-/m0/s1

>  <standard_inchi_key>  (419) 
PUPKKEQDLNREIM-QNSQPKOQSA-N

>  <name>  (419) 
Kaempferitrin

>  <iupac_name>  (419) 
5-hydroxy-2-(4-hydroxyphenyl)-3,7-bis[[(2~{S},3~{R},4~{R},5~{R},6~{S})-3,4,5-trihydroxy-6-methyl-tetrahydropyran-2-yl]oxy]chromen-4-one

>  <annotation_level>  (419) 
5

>  <total_atom_count>  (419) 
71

>  <heavy_atom_count>  (419) 
41

>  <molecular_weight>  (419) 
578.52

>  <exact_molecular_weight>  (419) 
578.16356

>  <molecular_formula>  (419) 
C27H30O14

>  <alogp>  (419) 
-0.72

>  <topological_polar_surface_area>  (419) 
228.97

>  <rotatable_bond_count>  (419) 
5

>  <hydrogen_bond_acceptors>  (419) 
14

>  <hydrogen_bond_donors>  (419) 
8

>  <hydrogen_bond_acceptors_lipinski>  (419) 
14

>  <hydrogen_bond_donors_lipinski>  (419) 
8

>  <lipinski_rule_of_five_violations>  (419) 
3

>  <aromatic_rings_count>  (419) 
3

>  <qed_drug_likeliness>  (419) 
0.19

>  <formal_charge>  (419) 
0

>  <fractioncsp3>  (419) 
0.44

>  <number_of_minimal_rings>  (419) 
5

>  <van_der_walls_volume>  (419) 
476.04

>  <contains_sugar>  (419) 
True

>  <contains_ring_sugars>  (419) 
True

>  <contains_linear_sugars>  (419) 
False

>  <murcko_framework>  (419) 
O1c2cc(OC3OCCCC3)ccc2CC(OC4OCCCC4)=C1c5ccccc5

>  <np_likeness>  (419) 
1.59

>  <chemical_class>  (419) 
Flavonoids

>  <chemical_sub_class>  (419) 
Flavonoid glycosides

>  <chemical_super_class>  (419) 
Phenylpropanoids and polyketides

>  <direct_parent_classification>  (419) 
Flavonoid-3-O-glycosides

>  <np_classifier_pathway>  (419) 
Shikimates and Phenylpropanoids

>  <np_classifier_superclass>  (419) 
Flavonoids

>  <np_classifier_class>  (419) 
Flavonols

>  <np_classifier_is_glycoside>  (419) 
True

>  <organisms>  (419) 
Aconitum vulparia|Adesmia incana|Agrimonia pilosa|Ailanthus altissima|Alkanna cappadocica|Androsace umbellata|Annulohypoxylon bovei|Annulohypoxylon boveri|Arabidopsis thaliana|Ardisia Colorata|Arivela viscosa|Artemisia dentata|Asplenium sp.|Asplenium trichomanes-ramosum|Asplenium viride|Astrantia sp.|Atalantia racemosa|Bauhinia forficata|Berberis baluchistanica|Buddleja cordata|Buphane fischeri|Camellia sinensis|Cardamine leucantha|Casearia grayi|Cassia marginata|Celastrus orbiculatus|Chelidonium majus|Chengiopanax sciadophylloides|Chenopodium murale|Chromolaena subscandens|Cinnamomum burmanni|Cinnamomum osmophloeum|Cinnamomum sieboldii|Cinnamomum yabunikkei|Cissus discolor|Cissus sicyoides|Cissus verticillata|Cleome amblyocarpa|Cleome brachycarpa|Cleome chrysantha|Cleome droserifolia|Cleome viscosa|Corynandra viscosa|Crambe tatarica|Daphne oleoides|Diospyros eriantha|Dorycnium hirsutum|Dryopteris crassirhizoma|Eddoe|Epimedium acuminatum|Eryngium sp.|Farsetia aegyptia|Ficus septica|Forsythia suspensa|Forsythia viridissima|Fritillaria ningguoensis|Garcinia dulcis|Geranium Nepalense|Geranium thunbergii|Graphis pinicola|Grevillea banksii|Hedyotis verticillata|Hibiscus Cannabinus|Hibiscus cannabinus|Hoffmannia strigillosa|Houttuynia cordata|Humulus lupulus|Hylotelephium telephium|Ixora coccinea|Juniperus rigida var. conferta|Justicia spicigera|Lemaireocereus griseus|Lespedeza virgata|Ligustrum vulgare|Lotus edulis|Lotus herbaceus|Lotus hirsutus|Lotus sp.|Lotus tenuis|Lygodium japonicum|Macrothelypteris torresiana|Millettia erythrocalyx|Mycobacterium leprae|Negombata magnifica|Ononis vaginalis|Ostericum sieboldii|Panax trifolius|Pilularia globulifera|Pilularia minuta|Prorocentrum micans|Prunus spinosa|Pteris semipinnata|Pterogyne nitens|Rapanea lancifolia|Raphanus raphanistrum|Raphanus sativus|Salvia hispanica|Scleromitrion verticillatum|Scorzonera pseudodivaricata|Sedum dendroideum|Siraitia grosvenorii|Solanum anomalum|Sonchus arvensis|Stellaria media|Stylidocleome brachycarpa|Syncarpia hillii|Tagetes Erecta|Tagetes sp.|Taro|Tephrosia purpurea|Teucrium betonicum|Thulinella chrysantha|Tilia mandshurica|Tilia sp.|Tilia tomentosa|Tolypocladium inflatum|Trichosanthes cucumeroides|Trichosanthes ovigera|Trichosanthes sp.|Vancouveria hexandra|Vicia faba|Viola diamantiaca|Xenoacremonium recifei|broad bean

>  <collections>  (419) 
ANPDB|AnalytiCon Discovery NPs|Australian natural products|BIOFACQUIM|CMAUP (cCollective molecular activities of useful plants)|ChEBI NPs|ChemSpider NPs|GNPS (Global Natural Products Social Molecular Networking)|Latin America dataset|NANPDB (Natural Products from Northern African Sources)|NPASS|NPAtlas|NuBBEDB|Phyto4Health|PhytoLab phyproof® Reference Substances|Super Natural II|TCMDB-Taiwan (Traditional Chinese Medicine database)|VietHerb|WikiData Natural Products|ZINC NP

>  <dois>  (419) 
10.1002/%28SICI%291099-1573%28199712%2911:8%3C564::AID-PTR162%3E3.0.CO;2-L/epdf|10.1002/(SICI)1099-1573(199712)11:8<564::AID-PTR162>3.0.CO;2-L|10.1002/(sici)1099-1573(199712)11:8<564::aid-ptr162>3.0.co;2-l|10.1002/HLCA.200800415|10.1002/HLCA.200900269|10.1002/IUB.1270|10.1002/PTR.2650020403|10.1002/iub.1270|10.1007/BF00563640|10.1007/S00436-013-3600-3|10.1007/S10600-006-0099-1|10.1007/S10600-007-0056-7|10.1007/S10600-009-9402-2|10.1007/S10600-010-9537-1|10.1007/S10600-010-9699-X|10.1007/S10600-011-9990-5|10.1007/s00436-013-3600-3|10.1007/s10600-011-9990-5|10.1016/0031-9422(88)80645-9|10.1016/0031-9422(93)85287-2|10.1016/0031-9422(94)00554-7|10.1016/0305-1978(86)90090-6|10.1016/0305-1978(94)E0076-R|10.1016/0305-1978(96)00004-X|10.1016/J.BMC.2005.01.050|10.1016/J.BMCL.2007.09.003|10.1016/J.BMCL.2010.10.058|10.1016/J.JEP.2012.06.043|10.1016/J.PHYTOCHEM.2005.06.025|10.1016/J.PHYTOCHEM.2008.01.006|10.1016/J.PHYTOCHEM.2009.09.009|10.1016/J.PHYTOCHEM.2010.08.007|10.1016/J.PHYTOCHEM.2010.08.018|10.1016/S0031-9422(00)83876-5|10.1016/S0031-9422(00)97707-0|10.1016/S0031-9422(01)00311-9|10.1016/S0031-9422(01)00460-5|10.1016/S0031-9422(99)00038-2|10.1016/S0031-9422(99)00525-7|10.1016/S0305-1978(96)00099-3|10.1016/S0367-326X(03)00045-5|10.1016/S0968-0896(01)00321-2|10.1016/j.bmcl.2007.09.003|10.1016/j.bmcl.2010.10.058|10.1016/j.cbi.2004.07.001|10.1016/j.foodres.2018.12.046|10.1016/j.jep.2012.06.043|10.1016/j.jep.2012.11.016|10.1021/JF0346206|10.1021/JF100323Q|10.1021/JF9913256|10.1021/NP030513U|10.1021/NP200292U|10.1021/NP50020A020|10.1021/NP50082A008|10.1021/NP50083A019|10.1021/NP50094A023|10.1021/NP800016E|10.1021/acs.jafc.8b02066|10.1021/np030513u|10.1021/np200292u|10.1055/S-2005-871292|10.1055/S-2006-959513|10.1055/s-2006-959513|10.1080/14786419.2017.1283497|10.1104/pp.16.00421|10.11110/KJPT.1973.5.1.043|10.1177/1934578X0800300915|10.1177/1934578x0600100602|10.1177/1934578x0800300113|10.1246/NIKKASHI1948.70.149|10.1248/CPB.32.1866|10.1248/CPB.57.1089|10.1248/YAKUSHI1947.109.3_188|10.1271/BBB1961.46.1079|10.1515/ZNC-2000-5-627|10.3390/molecules16043338|10.3987/COM-02-9615|10.5897/JMPR10.094

>  <synonyms>  (419) 
nan

>  <cas>  (419) 
482-38-2

$$$$

     RDKit          2D

 33 36  0  0  0  0  0  0  0  0999 V2000
    8.5227   -0.2641    0.0000 C   0  0  0  0  0  0  0  0  0  0  0  0
    7.0747    0.1272    0.0000 C   0  0  0  0  0  0  0  0  0  0  0  0
    6.0118   -0.9312    0.0000 C   0  0  0  0  0  0  0  0  0  0  0  0
    4.5637   -0.5399    0.0000 C   0  0  0  0  0  0  0  0  0  0  0  0
    3.5008   -1.5984    0.0000 C   0  0  0  0  0  0  0  0  0  0  0  0
    2.4379   -2.6568    0.0000 C   0  0  0  0  0  0  0  0  0  0  0  0
    4.5592   -2.6613    0.0000 O   0  0  0  0  0  0  0  0  0  0  0  0
    2.4424   -0.5355    0.0000 C   0  0  0  0  0  0  0  0  0  0  0  0
    2.6802    0.9456    0.0000 C   0  0  0  0  0  0  0  0  0  0  0  0
    1.3451    1.6294    0.0000 C   0  0  0  0  0  0  0  0  0  0  0  0
    0.2822    0.5710    0.0000 C   0  0  0  0  0  0  0  0  0  0  0  0
   -0.2524    1.9725    0.0000 C   0  0  0  0  0  0  0  0  0  0  0  0
    0.9604   -0.7670    0.0000 C   0  0  0  0  0  0  0  0  0  0  0  0
    0.1407   -2.0233    0.0000 C   0  0  0  0  0  0  0  0  0  0  0  0
   -1.3570   -1.9416    0.0000 C   0  0  0  0  0  0  0  0  0  0  0  0
   -2.0352   -0.6036    0.0000 C   0  0  0  0  0  0  0  0  0  0  0  0
   -3.5330   -0.5220    0.0000 C   0  0  0  0  0  0  0  0  0  0  0  0
   -2.8548   -1.8599    0.0000 C   0  0  0  0  0  0  0  0  0  0  0  0
   -4.3526   -1.7782    0.0000 C   0  0  0  0  0  0  0  0  0  0  0  0
   -5.8504   -1.6966    0.0000 C   0  0  0  0  0  0  0  0  0  0  0  0
   -6.5285   -0.3586    0.0000 C   0  0  0  0  0  0  0  0  0  0  0  0
   -8.0263   -0.2770    0.0000 O   0  0  0  0  0  0  0  0  0  0  0  0
   -5.7089    0.8976    0.0000 C   0  0  0  0  0  0  0  0  0  0  0  0
   -5.3684    2.3585    0.0000 C   0  0  0  0  0  0  0  0  0  0  0  0
   -7.0884    1.4867    0.0000 C   0  0  0  0  0  0  0  0  0  0  0  0
   -4.2111    0.8160    0.0000 C   0  0  0  0  0  0  0  0  0  0  0  0
   -3.3915    2.0723    0.0000 C   0  0  0  0  0  0  0  0  0  0  0  0
   -1.8937    1.9906    0.0000 C   0  0  0  0  0  0  0  0  0  0  0  0
   -1.2156    0.6526    0.0000 C   0  0  0  0  0  0  0  0  0  0  0  0
   -0.5374   -0.6853    0.0000 C   0  0  0  0  0  0  0  0  0  0  0  0
    6.6895    1.5769    0.0000 C   0  0  0  0  0  0  0  0  0  0  0  0
    7.7524    2.6353    0.0000 C   0  0  0  0  0  0  0  0  0  0  0  0
    5.2414    1.9682    0.0000 C   0  0  0  0  0  0  0  0  0  0  0  0
  1  2  2  0
  2  3  1  0
  3  4  1  0
  4  5  1  0
  5  6  1  6
  5  7  1  0
  5  8  1  0
  8  9  1  6
  9 10  1  0
 10 11  1  0
 11 12  1  1
 11 13  1  0
 13 14  1  1
 14 15  1  0
 16 15  1  6
 16 17  1  0
 17 18  1  6
 17 19  1  0
 19 20  1  0
 20 21  1  0
 21 22  1  6
 21 23  1  0
 23 24  1  0
 23 25  1  0
 23 26  1  0
 26 27  1  6
 27 28  1  0
 28 29  1  0
 29 30  1  6
  2 31  1  0
 31 32  1  0
 31 33  1  0
 13  8  1  0
 29 16  1  0
 29 11  1  0
 26 17  1  0
M  END
>  <identifier>  (420) 
CNP0320810.2

>  <canonical_smiles>  (420) 
C=C(CC[C@@](C)(O)[C@H]1CC[C@]2(C)[C@@H]1CC[C@@H]1[C@@]3(C)CC[C@H](O)C(C)(C)[C@@H]3CC[C@]12C)C(C)C

>  <standard_inchi>  (420) 
InChI=1S/C31H54O2/c1-20(2)21(3)12-19-31(9,33)23-13-17-29(7)22(23)10-11-25-28(6)16-15-26(32)27(4,5)24(28)14-18-30(25,29)8/h20,22-26,32-33H,3,10-19H2,1-2,4-9H3/t22-,23+,24+,25-,26+,28+,29-,30-,31-/m1/s1

>  <standard_inchi_key>  (420) 
GHYYPJMOIDQJRP-PCNUDDSESA-N

>  <name>  (420) 
nan

>  <iupac_name>  (420) 
(3~{S},5~{R},8~{R},9~{R},10~{R},13~{R},14~{R},17~{S})-17-[(1~{R})-1-hydroxy-1,5-dimethyl-4-methylene-hexyl]-4,4,8,10,14-pentamethyl-2,3,5,6,7,9,11,12,13,15,16,17-dodecahydro-1~{H}-cyclopenta[a]phenanthren-3-ol

>  <annotation_level>  (420) 
4

>  <total_atom_count>  (420) 
87

>  <heavy_atom_count>  (420) 
33

>  <molecular_weight>  (420) 
458.77

>  <exact_molecular_weight>  (420) 
458.41238

>  <molecular_formula>  (420) 
C31H54O2

>  <alogp>  (420) 
7.78

>  <topological_polar_surface_area>  (420) 
40.46

>  <rotatable_bond_count>  (420) 
5

>  <hydrogen_bond_acceptors>  (420) 
2

>  <hydrogen_bond_donors>  (420) 
2

>  <hydrogen_bond_acceptors_lipinski>  (420) 
2

>  <hydrogen_bond_donors_lipinski>  (420) 
2

>  <lipinski_rule_of_five_violations>  (420) 
1

>  <aromatic_rings_count>  (420) 
0

>  <qed_drug_likeliness>  (420) 
0.41

>  <formal_charge>  (420) 
0

>  <fractioncsp3>  (420) 
0.94

>  <number_of_minimal_rings>  (420) 
4

>  <van_der_walls_volume>  (420) 
nan

>  <contains_sugar>  (420) 
False

>  <contains_ring_sugars>  (420) 
False

>  <contains_linear_sugars>  (420) 
False

>  <murcko_framework>  (420) 
C1CCC2C(C1)CCC3C4CCCC4CCC23

>  <np_likeness>  (420) 
2.96

>  <chemical_class>  (420) 
Steroids and steroid derivatives

>  <chemical_sub_class>  (420) 
Hydroxysteroids

>  <chemical_super_class>  (420) 
Lipids and lipid-like molecules

>  <direct_parent_classification>  (420) 
3-hydroxysteroids

>  <np_classifier_pathway>  (420) 
Terpenoids

>  <np_classifier_superclass>  (420) 
Triterpenoids

>  <np_classifier_class>  (420) 
Dammarane and Protostane triterpenoids

>  <np_classifier_is_glycoside>  (420) 
False

>  <organisms>  (420) 
Vellozia stipitata

>  <collections>  (420) 
Latin America dataset|NuBBEDB|WikiData Natural Products

>  <dois>  (420) 
10.1016/S0031-9422(00)91063-X

>  <synonyms>  (420) 
Vellozone derivative

>  <cas>  (420) 
nan

$$$$

     RDKit          2D

 21 24  0  0  0  0  0  0  0  0999 V2000
   -5.0708   -1.4483    0.0000 C   0  0  0  0  0  0  0  0  0  0  0  0
   -3.6832   -0.8785    0.0000 C   0  0  0  0  0  0  0  0  0  0  0  0
   -2.4067   -1.6661    0.0000 C   0  0  0  0  0  0  0  0  0  0  0  0
   -1.2631   -0.6955    0.0000 C   0  0  0  0  0  0  0  0  0  0  0  0
   -0.5514   -2.0159    0.0000 C   0  0  0  0  0  0  0  0  0  0  0  0
    0.9480   -2.0597    0.0000 C   0  0  0  0  0  0  0  0  0  0  0  0
    1.7356   -0.7832    0.0000 C   0  0  0  0  0  0  0  0  0  0  0  0
    3.2350   -0.8270    0.0000 C   0  0  0  0  0  0  0  0  0  0  0  0
    4.6289   -1.3811    0.0000 C   0  0  0  0  0  0  0  0  0  0  0  0
    2.9314   -2.2960    0.0000 C   0  0  0  0  0  0  0  0  0  0  0  0
    4.0226    0.4495    0.0000 C   0  0  0  0  0  0  0  0  0  0  0  0
    3.3110    1.7699    0.0000 C   0  0  0  0  0  0  0  0  0  0  0  0
    1.8116    1.8138    0.0000 C   0  0  0  0  0  0  0  0  0  0  0  0
    1.0239    0.5372    0.0000 C   0  0  0  0  0  0  0  0  0  0  0  0
    0.3122    1.8576    0.0000 C   0  0  0  0  0  0  0  0  0  0  0  0
   -0.4754    0.5811    0.0000 C   0  0  0  0  0  0  0  0  0  0  0  0
   -1.1871    1.9015    0.0000 C   0  0  0  0  0  0  0  0  0  0  0  0
   -0.3995    3.1781    0.0000 O   0  0  0  0  0  0  0  0  0  0  0  0
   -2.6865    1.9454    0.0000 C   0  0  0  0  0  0  0  0  0  0  0  0
   -3.4741    0.6688    0.0000 C   0  0  0  0  0  0  0  0  0  0  0  0
   -2.7624   -0.6516    0.0000 C   0  0  0  0  0  0  0  0  0  0  0  0
  1  2  2  0
  2  3  1  0
  4  3  1  6
  4  5  1  0
  5  6  1  0
  7  6  1  1
  7  8  1  0
  8  9  1  0
  8 10  1  0
  8 11  1  0
 11 12  1  0
 12 13  1  0
 13 14  1  0
 14 15  1  6
 14 16  1  0
 16 17  1  1
 17 18  1  1
 17 19  1  0
 20 19  1  6
 20 21  1  0
 20  2  1  0
 16  4  1  0
 21  4  1  0
 14  7  1  0
M  END
>  <identifier>  (421) 
CNP0403793.1

>  <canonical_smiles>  (421) 
C=C1C[C@@]23CC[C@@H]4C(C)(C)CCC[C@]4(C)[C@@H]2[C@H](O)C[C@@H]1C3

>  <standard_inchi>  (421) 
InChI=1S/C20H32O/c1-13-11-20-9-6-16-18(2,3)7-5-8-19(16,4)17(20)15(21)10-14(13)12-20/h14-17,21H,1,5-12H2,2-4H3/t14-,15-,16-,17+,19+,20-/m1/s1

>  <standard_inchi_key>  (421) 
QUOPGEPPAKIRQA-MJKUBCPDSA-N

>  <name>  (421) 
nan

>  <iupac_name>  (421) 
(1~{S},4~{R},9~{S},10~{R},11~{R},13~{S})-5,5,9-trimethyl-14-methylene-tetracyclo[11.2.1.0^{1,10}.0^{4,9}]hexadecan-11-ol

>  <annotation_level>  (421) 
4

>  <total_atom_count>  (421) 
53

>  <heavy_atom_count>  (421) 
21

>  <molecular_weight>  (421) 
288.48

>  <exact_molecular_weight>  (421) 
288.24532

>  <molecular_formula>  (421) 
C20H32O

>  <alogp>  (421) 
4.95

>  <topological_polar_surface_area>  (421) 
20.23

>  <rotatable_bond_count>  (421) 
0

>  <hydrogen_bond_acceptors>  (421) 
1

>  <hydrogen_bond_donors>  (421) 
1

>  <hydrogen_bond_acceptors_lipinski>  (421) 
1

>  <hydrogen_bond_donors_lipinski>  (421) 
1

>  <lipinski_rule_of_five_violations>  (421) 
0

>  <aromatic_rings_count>  (421) 
0

>  <qed_drug_likeliness>  (421) 
0.63

>  <formal_charge>  (421) 
0

>  <fractioncsp3>  (421) 
0.90

>  <number_of_minimal_rings>  (421) 
4

>  <van_der_walls_volume>  (421) 
nan

>  <contains_sugar>  (421) 
False

>  <contains_ring_sugars>  (421) 
False

>  <contains_linear_sugars>  (421) 
False

>  <murcko_framework>  (421) 
C1CCC2C(C1)CCC34CCC(CCC23)C4

>  <np_likeness>  (421) 
3.72

>  <chemical_class>  (421) 
Prenol lipids

>  <chemical_sub_class>  (421) 
Diterpenoids

>  <chemical_super_class>  (421) 
Lipids and lipid-like molecules

>  <direct_parent_classification>  (421) 
Kaurane diterpenoids

>  <np_classifier_pathway>  (421) 
Terpenoids

>  <np_classifier_superclass>  (421) 
Diterpenoids

>  <np_classifier_class>  (421) 
Kaurane and Phyllocladane diterpenoids

>  <np_classifier_is_glycoside>  (421) 
False

>  <organisms>  (421) 
Vellozia caput-ardeae

>  <collections>  (421) 
Latin America dataset|NuBBEDB|WikiData Natural Products

>  <dois>  (421) 
10.1016/0031-9422(83)80035-1

>  <synonyms>  (421) 
ent-11\u221a\u00e9\u00ac\u00b1-hydroxy kaur-16-ene

>  <cas>  (421) 
nan

$$$$

     RDKit          2D

 25 28  0  0  0  0  0  0  0  0999 V2000
    3.3759   -3.5405    0.0000 C   0  0  0  0  0  0  0  0  0  0  0  0
    3.2153   -2.0491    0.0000 C   0  0  0  0  0  0  0  0  0  0  0  0
    1.8434   -1.4425    0.0000 C   0  0  0  0  0  0  0  0  0  0  0  0
    1.6828    0.0488    0.0000 C   0  0  0  0  0  0  0  0  0  0  0  0
    3.1106   -0.4110    0.0000 C   0  0  0  0  0  0  0  0  0  0  0  0
    4.2227    0.5955    0.0000 C   0  0  0  0  0  0  0  0  0  0  0  0
    5.6505    0.1356    0.0000 O   0  0  0  0  0  0  0  0  0  0  0  0
    5.9661   -1.3308    0.0000 C   0  0  0  0  0  0  0  0  0  0  0  0
    3.9071    2.0619    0.0000 C   0  0  0  0  0  0  0  0  0  0  0  0
    5.0192    3.0685    0.0000 O   0  0  0  0  0  0  0  0  0  0  0  0
    2.4793    2.5218    0.0000 C   0  0  0  0  0  0  0  0  0  0  0  0
    1.3672    1.5153    0.0000 C   0  0  0  0  0  0  0  0  0  0  0  0
   -0.1250    1.6682    0.0000 O   0  0  0  0  0  0  0  0  0  0  0  0
   -0.7316    0.2964    0.0000 C   0  0  0  0  0  0  0  0  0  0  0  0
   -2.1980   -0.0193    0.0000 C   0  0  0  0  0  0  0  0  0  0  0  0
   -2.6579   -1.4470    0.0000 C   0  0  0  0  0  0  0  0  0  0  0  0
   -4.1243   -1.7627    0.0000 C   0  0  0  0  0  0  0  0  0  0  0  0
   -5.1308   -0.6505    0.0000 C   0  0  0  0  0  0  0  0  0  0  0  0
   -6.6308   -0.6544    0.0000 O   0  0  0  0  0  0  0  0  0  0  0  0
   -7.0980    0.7710    0.0000 C   0  0  0  0  0  0  0  0  0  0  0  0
   -5.8867    1.6558    0.0000 O   0  0  0  0  0  0  0  0  0  0  0  0
   -4.6710    0.7773    0.0000 C   0  0  0  0  0  0  0  0  0  0  0  0
   -3.2045    1.0929    0.0000 C   0  0  0  0  0  0  0  0  0  0  0  0
    0.3857   -0.7045    0.0000 C   0  0  0  0  0  0  0  0  0  0  0  0
    0.2327   -2.1967    0.0000 C   0  0  0  0  0  0  0  0  0  0  0  0
  1  2  2  0
  2  3  1  0
  4  3  1  1
  4  5  1  0
  5  6  1  0
  6  7  1  6
  7  8  1  0
  6  9  1  0
  9 10  2  0
  9 11  1  0
 11 12  2  0
 12 13  1  0
 13 14  1  0
 14 15  1  6
 15 16  2  0
 16 17  1  0
 17 18  2  0
 18 19  1  0
 19 20  1  0
 20 21  1  0
 21 22  1  0
 22 23  2  0
 14 24  1  0
 24 25  1  6
 12  4  1  0
 23 15  1  0
 24  4  1  0
 22 18  1  0
M  END
>  <identifier>  (422) 
CNP0418702.1

>  <canonical_smiles>  (422) 
C=CC[C@]12C[C@@H](OC)C(=O)C=C1O[C@@H](C1=CC=C3OCOC3=C1)[C@H]2C

>  <standard_inchi>  (422) 
InChI=1S/C20H22O5/c1-4-7-20-10-17(22-3)14(21)9-18(20)25-19(12(20)2)13-5-6-15-16(8-13)24-11-23-15/h4-6,8-9,12,17,19H,1,7,10-11H2,2-3H3/t12-,17-,19-,20-/m1/s1

>  <standard_inchi_key>  (422) 
KVPKFECEKYTIPA-URGABHJQSA-N

>  <name>  (422) 
nan

>  <iupac_name>  (422) 
(2~{R},3~{S},3~{a}~{R},5~{R})-3~{a}-allyl-2-(1,3-benzodioxol-5-yl)-5-methoxy-3-methyl-2,3,4,5-tetrahydrobenzofuran-6-one

>  <annotation_level>  (422) 
4

>  <total_atom_count>  (422) 
47

>  <heavy_atom_count>  (422) 
25

>  <molecular_weight>  (422) 
342.39

>  <exact_molecular_weight>  (422) 
342.14672

>  <molecular_formula>  (422) 
C20H22O5

>  <alogp>  (422) 
3.56

>  <topological_polar_surface_area>  (422) 
53.99

>  <rotatable_bond_count>  (422) 
4

>  <hydrogen_bond_acceptors>  (422) 
5

>  <hydrogen_bond_donors>  (422) 
0

>  <hydrogen_bond_acceptors_lipinski>  (422) 
5

>  <hydrogen_bond_donors_lipinski>  (422) 
0

>  <lipinski_rule_of_five_violations>  (422) 
0

>  <aromatic_rings_count>  (422) 
1

>  <qed_drug_likeliness>  (422) 
0.78

>  <formal_charge>  (422) 
0

>  <fractioncsp3>  (422) 
0.45

>  <number_of_minimal_rings>  (422) 
4

>  <van_der_walls_volume>  (422) 
nan

>  <contains_sugar>  (422) 
False

>  <contains_ring_sugars>  (422) 
False

>  <contains_linear_sugars>  (422) 
False

>  <murcko_framework>  (422) 
O1c2ccc(cc2OC1)C3OC4=CCCCC4C3

>  <np_likeness>  (422) 
2.35

>  <chemical_class>  (422) 
Benzodioxoles

>  <chemical_sub_class>  (422) 
Benzodioxoles

>  <chemical_super_class>  (422) 
Organoheterocyclic compounds

>  <direct_parent_classification>  (422) 
Benzodioxoles

>  <np_classifier_pathway>  (422) 
Shikimates and Phenylpropanoids

>  <np_classifier_superclass>  (422) 
Lignans

>  <np_classifier_class>  (422) 
Neolignans

>  <np_classifier_is_glycoside>  (422) 
False

>  <organisms>  (422) 
Licaria armeniaca|Ocotea porosa

>  <collections>  (422) 
Latin America dataset|NuBBEDB|Super Natural II|WikiData Natural Products|ZINC NP

>  <dois>  (422) 
10.1016/S0031-9422(00)88765-8|10.1016/S0031-9422(00)97102-4

>  <synonyms>  (422) 
(2R3S3aR5R)-3a-Allyl-5-methoxy-2-(3'4'-methylene-dioxyphenyl)-3-methyl-233a456-hexahydro-6-oxo-benzofuran

>  <cas>  (422) 
nan

$$$$

     RDKit          2D

 23 25  0  0  0  0  0  0  0  0999 V2000
    6.6579    1.0311    0.0000 C   0  0  0  0  0  0  0  0  0  0  0  0
    5.8669   -0.2434    0.0000 C   0  0  0  0  0  0  0  0  0  0  0  0
    4.3676   -0.1956    0.0000 C   0  0  0  0  0  0  0  0  0  0  0  0
    4.3199   -1.6949    0.0000 C   0  0  0  0  0  0  0  0  0  0  0  0
    4.4154    1.3036    0.0000 C   0  0  0  0  0  0  0  0  0  0  0  0
    2.8684   -0.1479    0.0000 C   0  0  0  0  0  0  0  0  0  0  0  0
    2.0774   -1.4224    0.0000 C   0  0  0  0  0  0  0  0  0  0  0  0
    0.5782   -1.3746    0.0000 C   0  0  0  0  0  0  0  0  0  0  0  0
   -0.2128   -2.6491    0.0000 C   0  0  0  0  0  0  0  0  0  0  0  0
   -1.7120   -2.6014    0.0000 C   0  0  0  0  0  0  0  0  0  0  0  0
   -2.4203   -1.2791    0.0000 C   0  0  0  0  0  0  0  0  0  0  0  0
   -3.9195   -1.2314    0.0000 O   0  0  0  0  0  0  0  0  0  0  0  0
   -4.6278    0.0909    0.0000 C   0  0  0  0  0  0  0  0  0  0  0  0
   -5.7456    1.0912    0.0000 C   0  0  0  0  0  0  0  0  0  0  0  0
   -5.8070   -0.8362    0.0000 C   0  0  0  0  0  0  0  0  0  0  0  0
   -3.8368    1.3654    0.0000 C   0  0  0  0  0  0  0  0  0  0  0  0
   -4.5451    2.6877    0.0000 O   0  0  0  0  0  0  0  0  0  0  0  0
   -2.3376    1.3176    0.0000 C   0  0  0  0  0  0  0  0  0  0  0  0
   -1.6293   -0.0046    0.0000 C   0  0  0  0  0  0  0  0  0  0  0  0
   -0.1301   -0.0524    0.0000 C   0  0  0  0  0  0  0  0  0  0  0  0
    0.6609    1.2221    0.0000 O   0  0  0  0  0  0  0  0  0  0  0  0
    2.1601    1.1744    0.0000 C   0  0  0  0  0  0  0  0  0  0  0  0
    2.9511    2.4489    0.0000 O   0  0  0  0  0  0  0  0  0  0  0  0
  1  2  2  0
  2  3  1  0
  3  4  1  0
  3  5  1  0
  3  6  1  0
  6  7  2  0
  7  8  1  0
  8  9  2  0
  9 10  1  0
 10 11  2  0
 11 12  1  0
 12 13  1  0
 13 14  1  0
 13 15  1  0
 13 16  1  0
 16 17  1  1
 16 18  1  0
 18 19  1  0
 19 20  2  0
 20 21  1  0
 21 22  1  0
 22 23  2  0
 22  6  1  0
 20  8  1  0
 19 11  1  0
M  END
>  <identifier>  (423) 
CNP0080637.1

>  <canonical_smiles>  (423) 
C=CC(C)(C)C1=CC2=CC=C3OC(C)(C)[C@@H](O)CC3=C2OC1=O

>  <standard_inchi>  (423) 
InChI=1S/C19H22O4/c1-6-18(2,3)13-9-11-7-8-14-12(16(11)22-17(13)21)10-15(20)19(4,5)23-14/h6-9,15,20H,1,10H2,2-5H3/t15-/m0/s1

>  <standard_inchi_key>  (423) 
ABWRGXBXUVXMCN-HNNXBMFYSA-N

>  <name>  (423) 
nan

>  <iupac_name>  (423) 
(9~{S})-3-(1,1-dimethylallyl)-9-hydroxy-8,8-dimethyl-9,10-dihydropyrano[2,3-f]chromen-2-one

>  <annotation_level>  (423) 
4

>  <total_atom_count>  (423) 
45

>  <heavy_atom_count>  (423) 
23

>  <molecular_weight>  (423) 
314.38

>  <exact_molecular_weight>  (423) 
314.15181

>  <molecular_formula>  (423) 
C19H22O4

>  <alogp>  (423) 
3.33

>  <topological_polar_surface_area>  (423) 
59.67

>  <rotatable_bond_count>  (423) 
2

>  <hydrogen_bond_acceptors>  (423) 
4

>  <hydrogen_bond_donors>  (423) 
1

>  <hydrogen_bond_acceptors_lipinski>  (423) 
4

>  <hydrogen_bond_donors_lipinski>  (423) 
1

>  <lipinski_rule_of_five_violations>  (423) 
0

>  <aromatic_rings_count>  (423) 
2

>  <qed_drug_likeliness>  (423) 
0.68

>  <formal_charge>  (423) 
0

>  <fractioncsp3>  (423) 
0.42

>  <number_of_minimal_rings>  (423) 
3

>  <van_der_walls_volume>  (423) 
nan

>  <contains_sugar>  (423) 
False

>  <contains_ring_sugars>  (423) 
False

>  <contains_linear_sugars>  (423) 
False

>  <murcko_framework>  (423) 
O1c2ccc3C=CCOc3c2CCC1

>  <np_likeness>  (423) 
2.35

>  <chemical_class>  (423) 
Coumarins and derivatives

>  <chemical_sub_class>  (423) 
Pyranocoumarins

>  <chemical_super_class>  (423) 
Phenylpropanoids and polyketides

>  <direct_parent_classification>  (423) 
Angular pyranocoumarins

>  <np_classifier_pathway>  (423) 
Shikimates and Phenylpropanoids

>  <np_classifier_superclass>  (423) 
Coumarins

>  <np_classifier_class>  (423) 
Pyranocoumarins

>  <np_classifier_is_glycoside>  (423) 
False

>  <organisms>  (423) 
Raulinoa echinata

>  <collections>  (423) 
Latin America dataset|NuBBEDB|ZINC NP

>  <dois>  (423) 
10.1078/0944-7113-00016.

>  <synonyms>  (423) 
3-(1-1-dimethylallyl)-lomatin

>  <cas>  (423) 
nan

$$$$

     RDKit          2D

 28 30  0  0  0  0  0  0  0  0999 V2000
   -5.5907   -4.1136    0.0000 C   0  0  0  0  0  0  0  0  0  0  0  0
   -4.2954   -3.3572    0.0000 O   0  0  0  0  0  0  0  0  0  0  0  0
   -4.3028   -1.8572    0.0000 C   0  0  0  0  0  0  0  0  0  0  0  0
   -5.6055   -1.1136    0.0000 O   0  0  0  0  0  0  0  0  0  0  0  0
   -3.0075   -1.1008    0.0000 C   0  0  0  0  0  0  0  0  0  0  0  0
   -1.7048   -1.8443    0.0000 C   0  0  0  0  0  0  0  0  0  0  0  0
   -0.4094   -1.0879    0.0000 O   0  0  0  0  0  0  0  0  0  0  0  0
   -0.4169    0.4121    0.0000 C   0  0  0  0  0  0  0  0  0  0  0  0
    0.8784    1.1685    0.0000 O   0  0  0  0  0  0  0  0  0  0  0  0
    2.1812    0.4250    0.0000 C   0  0  0  0  0  0  0  0  0  0  0  0
    2.1886   -1.0750    0.0000 O   0  0  0  0  0  0  0  0  0  0  0  0
    3.4913   -1.8186    0.0000 C   0  0  0  0  0  0  0  0  0  0  0  0
    3.4988   -3.3185    0.0000 C   0  0  0  0  0  0  0  0  0  0  0  0
    2.2035   -4.0750    0.0000 O   0  0  0  0  0  0  0  0  0  0  0  0
    4.7866   -1.0621    0.0000 C   0  0  0  0  0  0  0  0  0  0  0  0
    6.0894   -1.8057    0.0000 O   0  0  0  0  0  0  0  0  0  0  0  0
    4.7792    0.4379    0.0000 C   0  0  0  0  0  0  0  0  0  0  0  0
    6.0745    1.1943    0.0000 O   0  0  0  0  0  0  0  0  0  0  0  0
    3.4765    1.1814    0.0000 C   0  0  0  0  0  0  0  0  0  0  0  0
    3.4690    2.6814    0.0000 O   0  0  0  0  0  0  0  0  0  0  0  0
   -1.7196    1.1557    0.0000 C   0  0  0  0  0  0  0  0  0  0  0  0
   -3.0149    0.3992    0.0000 C   0  0  0  0  0  0  0  0  0  0  0  0
   -4.1346    1.3974    0.0000 C   0  0  0  0  0  0  0  0  0  0  0  0
   -3.5313    2.7707    0.0000 C   0  0  0  0  0  0  0  0  0  0  0  0
   -2.0388    2.6213    0.0000 C   0  0  0  0  0  0  0  0  0  0  0  0
   -0.5478    2.7855    0.0000 O   0  0  0  0  0  0  0  0  0  0  0  0
   -2.0462    4.1213    0.0000 C   0  0  0  0  0  0  0  0  0  0  0  0
   -0.7509    4.8777    0.0000 O   0  0  0  0  0  0  0  0  0  0  0  0
  1  2  1  0
  2  3  1  0
  3  4  2  0
  3  5  1  0
  5  6  2  0
  6  7  1  0
  7  8  1  0
  8  9  1  6
 10  9  1  1
 10 11  1  0
 11 12  1  0
 12 13  1  1
 13 14  1  0
 12 15  1  0
 15 16  1  6
 15 17  1  0
 17 18  1  1
 17 19  1  0
 19 20  1  6
 21  8  1  1
 21 22  1  0
 22 23  1  1
 23 24  2  0
 24 25  1  0
 25 26  1  6
 25 27  1  0
 27 28  1  0
 22  5  1  0
 19 10  1  0
 25 21  1  0
M  END
>  <identifier>  (424) 
CNP0237910.1

>  <canonical_smiles>  (424) 
COC(=O)C1=CO[C@@H](O[C@@H]2O[C@H](CO)[C@@H](O)[C@H](O)[C@H]2O)[C@H]2[C@@H]1C=C[C@@]2(O)CO

>  <standard_inchi>  (424) 
InChI=1S/C17H24O11/c1-25-14(23)8-5-26-15(10-7(8)2-3-17(10,24)6-19)28-16-13(22)12(21)11(20)9(4-18)27-16/h2-3,5,7,9-13,15-16,18-22,24H,4,6H2,1H3/t7-,9-,10-,11-,12+,13-,15+,16+,17-/m1/s1

>  <standard_inchi_key>  (424) 
XJMPAUZQVRGFRE-AYDWLWLASA-N

>  <name>  (424) 
Gardenoside

>  <iupac_name>  (424) 
methyl (1~{S},4~{a}~{S},7~{S},7~{a}~{S})-7-hydroxy-7-(hydroxymethyl)-1-[(2~{S},3~{R},4~{S},5~{S},6~{R})-3,4,5-trihydroxy-6-(hydroxymethyl)tetrahydropyran-2-yl]oxy-4~{a},7~{a}-dihydro-1~{H}-cyclopenta[c]pyran-4-carboxylate

>  <annotation_level>  (424) 
5

>  <total_atom_count>  (424) 
52

>  <heavy_atom_count>  (424) 
28

>  <molecular_weight>  (424) 
404.37

>  <exact_molecular_weight>  (424) 
404.13186

>  <molecular_formula>  (424) 
C17H24O11

>  <alogp>  (424) 
-3.26

>  <topological_polar_surface_area>  (424) 
175.37

>  <rotatable_bond_count>  (424) 
5

>  <hydrogen_bond_acceptors>  (424) 
11

>  <hydrogen_bond_donors>  (424) 
6

>  <hydrogen_bond_acceptors_lipinski>  (424) 
11

>  <hydrogen_bond_donors_lipinski>  (424) 
6

>  <lipinski_rule_of_five_violations>  (424) 
2

>  <aromatic_rings_count>  (424) 
0

>  <qed_drug_likeliness>  (424) 
0.20

>  <formal_charge>  (424) 
0

>  <fractioncsp3>  (424) 
0.71

>  <number_of_minimal_rings>  (424) 
3

>  <van_der_walls_volume>  (424) 
338.79

>  <contains_sugar>  (424) 
True

>  <contains_ring_sugars>  (424) 
True

>  <contains_linear_sugars>  (424) 
False

>  <murcko_framework>  (424) 
O1C=CC2C=CCC2C1OC3OCCCC3

>  <np_likeness>  (424) 
2.73

>  <chemical_class>  (424) 
Prenol lipids

>  <chemical_sub_class>  (424) 
Terpene glycosides

>  <chemical_super_class>  (424) 
Lipids and lipid-like molecules

>  <direct_parent_classification>  (424) 
Iridoid O-glycosides

>  <np_classifier_pathway>  (424) 
Terpenoids

>  <np_classifier_superclass>  (424) 
Monoterpenoids

>  <np_classifier_class>  (424) 
Iridoids monoterpenoids

>  <np_classifier_is_glycoside>  (424) 
True

>  <organisms>  (424) 
Alibertia macrophylla|Allamanda schottii|Catunaregam nilotica|Catunaregam obovata|Catunaregam spinosa|Cordiera macrophylla|Cordiera sessilis|Dioecrescis erythroclada|Gardenia|Gardenia jasminoides|Genipa americana|Haliclona vansoesti|Hypecoum imberbe|Lamium album|Oldenlandia herbacea var. herbacea|Ramonda myconi|Ridsdalea wittii|Rosenbergiodendron longiflorum|Rothmannia globosa|Sedum purpureum|Syringa reticulata subsp. amurensis|Tocoyena bullata

>  <collections>  (424) 
Australian natural products|CMAUP (cCollective molecular activities of useful plants)|ChemSpider NPs|Latin America dataset|NPASS|NuBBEDB|Super Natural II|WikiData Natural Products|ZINC NP

>  <dois>  (424) 
10.1002/CHIN.200305197|10.1002/CHIN.200313174|10.1002/HLCA.200790187|10.1002/HLCA.201000129|10.1002/RCM.4643|10.1002/hlca.200790187|10.1007/S00706-002-0500-0|10.1007/S11418-007-0172-5|10.1016/J.PHYTOCHEM.2009.03.008|10.1016/S0021-9673(01)82148-8|10.1016/S0031-9422(00)80266-6|10.1016/S0031-9422(00)81686-6|10.1016/S0031-9422(00)97791-4|10.1016/S0031-9422(03)00109-2|10.1016/S0305-1978(97)00127-0|10.1021/NP50078A032|10.1021/NP900549E|10.1021/np50078a032|10.1055/S-2006-962350|10.1080/10826079408013541|10.1248/BPB.19.160|10.1248/CPB.31.4185|10.1248/CPB.32.2947|10.1248/CPB.33.4228|10.1248/CPB.39.2057|10.1248/CPB.51.1417|10.1248/CPB.53.1342|10.1590/S0103-50531997000300013|10.2116/BUNSEKIKAGAKU.35.3_215|10.3987/COM-02-9622

>  <synonyms>  (424) 
24512-62-7|AKOS037514657|AS-78852|CHEMBL1079679|CS-0016987|CYCLOPENTA(C)PYRAN-4-CARBOXYLIC ACID, 1-(.BETA.-D-GLUCOPYRANOSYLOXY)-1,4A,7,7A-TETRAHYDRO-7-HYDROXY-7-(HYDROXYMETHYL)-, METHYL ESTER, (1S,4AS,7S,7AS)-|Cyclopenta(c)pyran-4-carboxylic acid, 1-(beta-D-glucopyranosyloxy)-1,4a,7,7a-tetrahydro-7-hydroxy-7-(hydroxymethyl)-, methyl ester, (1S-(1alpha,4aalpha,7alpha,7aalpha))-|Cyclopenta[c]pyran-4-carboxylic acid, 1-(beta-D-glucopyranosyloxy)-1,4a,7,7a-tetrahydro-7-hydroxy-7-(hydroxymethyl)-, methyl ester, (1S,4aS,7S,7aS)-|Gardenoside|HY-N1478|INE79XNR2C|Methyl (1S,4aS,7S,7aS)-7-hydroxy-7-(hydroxymethyl)-1-(((2S,3R,4S,5S,6R)-3,4,5-trihydroxy-6-(hydroxymethyl)tetrahydro-2H-pyran-2-yl)oxy)-1,4a,7,7a-tetrahydrocyclopenta[c]pyran-4-carboxylate|NSC-325664|SCHEMBL306407|UNII-INE79XNR2C|methyl (1S,4aS,7S,7aS)-7-hydroxy-7-(hydroxymethyl)-1-[(2S,3R,4S,5S,6R)-3,4,5-trihydroxy-6-(hydroxymethyl)oxan-2-yl]oxy-4a,7a-dihydro-1H-cyclopenta[c]pyran-4-carboxylate

>  <cas>  (424) 
24512-62-7

$$$$

     RDKit          2D

 21 24  0  0  0  0  0  0  0  0999 V2000
   -7.0384   -0.2375    0.0000 C   0  0  0  0  0  0  0  0  0  0  0  0
   -6.6996    1.2237    0.0000 C   0  0  0  0  0  0  0  0  0  0  0  0
   -5.2647    1.6608    0.0000 C   0  0  0  0  0  0  0  0  0  0  0  0
   -4.1687    0.6368    0.0000 C   0  0  0  0  0  0  0  0  0  0  0  0
   -2.7338    1.0739    0.0000 N   0  0  0  0  0  0  0  0  0  0  0  0
   -1.6378    0.0498    0.0000 C   0  0  0  0  0  0  0  0  0  0  0  0
   -0.2029    0.4870    0.0000 C   0  0  0  0  0  0  0  0  0  0  0  0
    0.8932   -0.5371    0.0000 C   0  0  0  0  0  0  0  0  0  0  0  0
    2.3280   -0.0999    0.0000 C   0  0  0  0  0  0  0  0  0  0  0  0
    2.6669    1.3613    0.0000 C   0  0  0  0  0  0  0  0  0  0  0  0
    4.1018    1.7984    0.0000 C   0  0  0  0  0  0  0  0  0  0  0  0
    5.1978    0.7744    0.0000 C   0  0  0  0  0  0  0  0  0  0  0  0
    6.6922    0.9036    0.0000 O   0  0  0  0  0  0  0  0  0  0  0  0
    7.2770   -0.4777    0.0000 C   0  0  0  0  0  0  0  0  0  0  0  0
    6.1440   -1.4607    0.0000 O   0  0  0  0  0  0  0  0  0  0  0  0
    4.8590   -0.6868    0.0000 C   0  0  0  0  0  0  0  0  0  0  0  0
    3.4241   -1.1240    0.0000 C   0  0  0  0  0  0  0  0  0  0  0  0
   -1.9766   -1.4114    0.0000 C   0  0  0  0  0  0  0  0  0  0  0  0
   -3.4115   -1.8485    0.0000 C   0  0  0  0  0  0  0  0  0  0  0  0
   -4.5075   -0.8245    0.0000 C   0  0  0  0  0  0  0  0  0  0  0  0
   -5.9424   -1.2616    0.0000 C   0  0  0  0  0  0  0  0  0  0  0  0
  1  2  2  0
  2  3  1  0
  3  4  2  0
  4  5  1  0
  5  6  2  0
  6  7  1  0
  7  8  1  0
  8  9  1  0
  9 10  2  0
 10 11  1  0
 11 12  2  0
 12 13  1  0
 13 14  1  0
 14 15  1  0
 15 16  1  0
 16 17  2  0
  6 18  1  0
 18 19  2  0
 19 20  1  0
 20 21  2  0
 21  1  1  0
 20  4  1  0
 17  9  1  0
 16 12  1  0
M  END
>  <identifier>  (425) 
CNP0164701.0

>  <canonical_smiles>  (425) 
C1=CC=C2N=C(CCC3=CC=C4OCOC4=C3)C=CC2=C1

>  <standard_inchi>  (425) 
InChI=1S/C18H15NO2/c1-2-4-16-14(3-1)7-9-15(19-16)8-5-13-6-10-17-18(11-13)21-12-20-17/h1-4,6-7,9-11H,5,8,12H2

>  <standard_inchi_key>  (425) 
ZDRLPWFUZOCXJT-UHFFFAOYSA-N

>  <name>  (425) 
124902-95-0

>  <iupac_name>  (425) 
2-[2-(1,3-benzodioxol-5-yl)ethyl]quinoline

>  <annotation_level>  (425) 
5

>  <total_atom_count>  (425) 
36

>  <heavy_atom_count>  (425) 
21

>  <molecular_weight>  (425) 
277.32

>  <exact_molecular_weight>  (425) 
277.11028

>  <molecular_formula>  (425) 
C18H15NO2

>  <alogp>  (425) 
3.75

>  <topological_polar_surface_area>  (425) 
31.35

>  <rotatable_bond_count>  (425) 
3

>  <hydrogen_bond_acceptors>  (425) 
3

>  <hydrogen_bond_donors>  (425) 
0

>  <hydrogen_bond_acceptors_lipinski>  (425) 
3

>  <hydrogen_bond_donors_lipinski>  (425) 
0

>  <lipinski_rule_of_five_violations>  (425) 
0

>  <aromatic_rings_count>  (425) 
3

>  <qed_drug_likeliness>  (425) 
0.73

>  <formal_charge>  (425) 
0

>  <fractioncsp3>  (425) 
0.17

>  <number_of_minimal_rings>  (425) 
4

>  <van_der_walls_volume>  (425) 
250.86

>  <contains_sugar>  (425) 
False

>  <contains_ring_sugars>  (425) 
False

>  <contains_linear_sugars>  (425) 
False

>  <murcko_framework>  (425) 
n1c2ccccc2ccc1CCc3ccc4OCOc4c3

>  <np_likeness>  (425) 
-0.22

>  <chemical_class>  (425) 
Quinolines and derivatives

>  <chemical_sub_class>  (425) 
Quinolines and derivatives

>  <chemical_super_class>  (425) 
Organoheterocyclic compounds

>  <direct_parent_classification>  (425) 
Quinolines and derivatives

>  <np_classifier_pathway>  (425) 
Alkaloids

>  <np_classifier_superclass>  (425) 
nan

>  <np_classifier_class>  (425) 
nan

>  <np_classifier_is_glycoside>  (425) 
False

>  <organisms>  (425) 
Angostura bracteata|Angostura longiflora|Angostura trifoliata|Astropecten indicus|Ateleia herbert-smithii|Cephalosporium gregatum|Eucryphia glutinosa|Galipea bracteata|Haminoea orteai|Iochroma coccineum|Nigrosabulum globosum|Peperomia pellucida|Pinus abies|Saccharina angustata|Tecoma peroba|Tylosema esculentum|Xanthoparmelia quintaria

>  <collections>  (425) 
CMAUP (cCollective molecular activities of useful plants)|Latin America dataset|NPASS|NuBBEDB|Super Natural II|UNPD (Universal Natural Products Database)|WikiData Natural Products|ZINC NP

>  <dois>  (425) 
10.1002/JLAC.18340120291|10.1016/0031-9422(90)80024-B|10.1055/S-2006-957578|10.1139/V89-329

>  <synonyms>  (425) 
2-(3,4-Methylenedioxyphenylethyl)Quinoleine|CHEMBL174146|DTXSID90435423|Quinoline, 2-[2-(1,3-benzodioxol-5-yl)ethyl]-|SCHEMBL951425|ZDRLPWFUZOCXJT-UHFFFAOYSA-N

>  <cas>  (425) 
nan

$$$$

     RDKit          2D

 16 17  0  0  0  0  0  0  0  0999 V2000
   -1.9036   -3.7450    0.0000 C   0  0  0  0  0  0  0  0  0  0  0  0
   -0.8993   -2.6308    0.0000 C   0  0  0  0  0  0  0  0  0  0  0  0
   -1.3620   -1.2040    0.0000 C   0  0  0  0  0  0  0  0  0  0  0  0
   -0.3577   -0.0898    0.0000 C   0  0  0  0  0  0  0  0  0  0  0  0
   -0.8205    1.3370    0.0000 C   0  0  0  0  0  0  0  0  0  0  0  0
   -2.2875    1.6497    0.0000 C   0  0  0  0  0  0  0  0  0  0  0  0
   -2.7502    3.0766    0.0000 C   0  0  0  0  0  0  0  0  0  0  0  0
   -3.2918    0.5356    0.0000 C   0  0  0  0  0  0  0  0  0  0  0  0
    0.1839    2.4512    0.0000 C   0  0  0  0  0  0  0  0  0  0  0  0
    1.6509    2.1385    0.0000 C   0  0  0  0  0  0  0  0  0  0  0  0
    2.1136    0.7117    0.0000 C   0  0  0  0  0  0  0  0  0  0  0  0
    3.0365   -0.4708    0.0000 C   0  0  0  0  0  0  0  0  0  0  0  0
    3.4385    1.4152    0.0000 O   0  0  0  0  0  0  0  0  0  0  0  0
    1.1093   -0.4025    0.0000 C   0  0  0  0  0  0  0  0  0  0  0  0
    1.5721   -1.8293    0.0000 C   0  0  0  0  0  0  0  0  0  0  0  0
    0.5678   -2.9435    0.0000 C   0  0  0  0  0  0  0  0  0  0  0  0
  1  2  1  0
  2  3  2  0
  4  3  1  1
  4  5  1  0
  5  6  1  1
  6  7  1  0
  6  8  1  0
  5  9  1  0
  9 10  1  0
 10 11  1  0
 11 12  1  6
 11 13  1  0
 11 14  1  0
 14 15  1  1
 15 16  1  0
 16  2  1  0
 14  4  1  0
M  END
>  <identifier>  (426) 
CNP0262195.4

>  <canonical_smiles>  (426) 
CC1=C[C@H]2[C@@H](C(C)C)CC[C@@](C)(O)[C@H]2CC1

>  <standard_inchi>  (426) 
InChI=1S/C15H26O/c1-10(2)12-7-8-15(4,16)14-6-5-11(3)9-13(12)14/h9-10,12-14,16H,5-8H2,1-4H3/t12-,13+,14+,15-/m1/s1

>  <standard_inchi_key>  (426) 
LHYHMMRYTDARSZ-CBBWQLFWSA-N

>  <name>  (426) 
.alpha.-Muurolol

>  <iupac_name>  (426) 
(1~{R},4~{R},4~{a}~{R},8~{a}~{S})-4-isopropyl-1,6-dimethyl-3,4,4~{a},7,8,8~{a}-hexahydro-2~{H}-naphthalen-1-ol

>  <annotation_level>  (426) 
5

>  <total_atom_count>  (426) 
42

>  <heavy_atom_count>  (426) 
16

>  <molecular_weight>  (426) 
222.37

>  <exact_molecular_weight>  (426) 
222.19837

>  <molecular_formula>  (426) 
C15H26O

>  <alogp>  (426) 
3.78

>  <topological_polar_surface_area>  (426) 
20.23

>  <rotatable_bond_count>  (426) 
1

>  <hydrogen_bond_acceptors>  (426) 
1

>  <hydrogen_bond_donors>  (426) 
1

>  <hydrogen_bond_acceptors_lipinski>  (426) 
1

>  <hydrogen_bond_donors_lipinski>  (426) 
1

>  <lipinski_rule_of_five_violations>  (426) 
0

>  <aromatic_rings_count>  (426) 
0

>  <qed_drug_likeliness>  (426) 
0.67

>  <formal_charge>  (426) 
0

>  <fractioncsp3>  (426) 
0.87

>  <number_of_minimal_rings>  (426) 
2

>  <van_der_walls_volume>  (426) 
237.70

>  <contains_sugar>  (426) 
False

>  <contains_ring_sugars>  (426) 
False

>  <contains_linear_sugars>  (426) 
False

>  <murcko_framework>  (426) 
C1=CC2CCCCC2CC1

>  <np_likeness>  (426) 
3.14

>  <chemical_class>  (426) 
Prenol lipids

>  <chemical_sub_class>  (426) 
Sesquiterpenoids

>  <chemical_super_class>  (426) 
Lipids and lipid-like molecules

>  <direct_parent_classification>  (426) 
Sesquiterpenoids

>  <np_classifier_pathway>  (426) 
Terpenoids

>  <np_classifier_superclass>  (426) 
Sesquiterpenoids

>  <np_classifier_class>  (426) 
Cadinane sesquiterpenoids

>  <np_classifier_is_glycoside>  (426) 
False

>  <organisms>  (426) 
Aglaia foveolata|Hypericum perforatum|Lindera aggregata|Lindera strichnifolia|Pinellia ternata|Piper augustum|Teucrium leucocladum|Toona ciliata

>  <collections>  (426) 
ANPDB|CMAUP (cCollective molecular activities of useful plants)|KNApSaCK|Latin America dataset|NANPDB (Natural Products from Northern African Sources)|NAPRORE-CR|NPASS|NuBBEDB|Super Natural II|TCMDB-Taiwan (Traditional Chinese Medicine database)|WikiData Natural Products|ZINC NP

>  <dois>  (426) 
10.1016/J.BSE.2003.12.009|10.1016/S0031-9422(98)00305-7|10.1016/j.bse.2003.12.009|10.1080/10412905.2018.1431966|10.1590/S0103-50532000000600012

>  <synonyms>  (426) 
(+)-T-cadinol|LHYHMMRYTDARSZ-CBBWQLFWSA-N|\u221a\u00e9\u00ac\u00b1-Muurolol|alpha-muurolol

>  <cas>  (426) 
nan

$$$$

     RDKit          2D

 30 33  0  0  0  0  0  0  0  0999 V2000
   -9.1743   -0.0782    0.0000 C   0  0  0  0  0  0  0  0  0  0  0  0
   -7.6752   -0.0278    0.0000 C   0  0  0  0  0  0  0  0  0  0  0  0
   -6.8820   -1.3010    0.0000 C   0  0  0  0  0  0  0  0  0  0  0  0
   -7.5880   -2.6245    0.0000 C   0  0  0  0  0  0  0  0  0  0  0  0
   -5.3829   -1.2506    0.0000 C   0  0  0  0  0  0  0  0  0  0  0  0
   -4.6769    0.0728    0.0000 C   0  0  0  0  0  0  0  0  0  0  0  0
   -3.1777    0.1232    0.0000 C   0  0  0  0  0  0  0  0  0  0  0  0
   -2.4717    1.4467    0.0000 C   0  0  0  0  0  0  0  0  0  0  0  0
   -0.9726    1.4970    0.0000 C   0  0  0  0  0  0  0  0  0  0  0  0
   -0.2666    2.8205    0.0000 C   0  0  0  0  0  0  0  0  0  0  0  0
   -1.0598    4.0936    0.0000 Cl  0  0  0  0  0  0  0  0  0  0  0  0
    1.2325    2.8708    0.0000 C   0  0  0  0  0  0  0  0  0  0  0  0
    1.9385    4.1943    0.0000 O   0  0  0  0  0  0  0  0  0  0  0  0
    2.0257    1.5977    0.0000 C   0  0  0  0  0  0  0  0  0  0  0  0
    2.8662    2.8401    0.0000 C   0  0  0  0  0  0  0  0  0  0  0  0
    3.5026    1.3352    0.0000 O   0  0  0  0  0  0  0  0  0  0  0  0
    3.7094   -0.1505    0.0000 C   0  0  0  0  0  0  0  0  0  0  0  0
    4.9825    0.6427    0.0000 O   0  0  0  0  0  0  0  0  0  0  0  0
    4.9518   -0.9909    0.0000 C   0  0  0  0  0  0  0  0  0  0  0  0
    6.3009   -0.3352    0.0000 C   0  0  0  0  0  0  0  0  0  0  0  0
    4.8451   -2.4871    0.0000 C   0  0  0  0  0  0  0  0  0  0  0  0
    6.0876   -3.3276    0.0000 C   0  0  0  0  0  0  0  0  0  0  0  0
    3.4961   -3.1429    0.0000 O   0  0  0  0  0  0  0  0  0  0  0  0
    2.2536   -2.3024    0.0000 C   0  0  0  0  0  0  0  0  0  0  0  0
    0.9046   -2.9582    0.0000 O   0  0  0  0  0  0  0  0  0  0  0  0
    2.3603   -0.8062    0.0000 C   0  0  0  0  0  0  0  0  0  0  0  0
    1.3197    0.2742    0.0000 C   0  0  0  0  0  0  0  0  0  0  0  0
   -0.1794    0.2239    0.0000 C   0  0  0  0  0  0  0  0  0  0  0  0
   -0.8854   -1.0996    0.0000 C   0  0  0  0  0  0  0  0  0  0  0  0
   -2.3845   -1.1500    0.0000 O   0  0  0  0  0  0  0  0  0  0  0  0
  1  2  1  0
  2  3  1  0
  3  4  1  1
  3  5  1  0
  5  6  2  0
  6  7  1  0
  7  8  2  0
  8  9  1  0
  9 10  2  0
 10 11  1  0
 10 12  1  0
 12 13  2  0
 12 14  1  0
 14 15  1  6
 14 16  1  0
 16 17  1  0
 17 18  1  1
 17 19  1  0
 19 20  1  6
 19 21  1  0
 21 22  1  1
 21 23  1  0
 23 24  1  0
 24 25  2  0
 26 24  1  6
 26 27  1  0
 27 28  1  1
 28 29  2  0
 29 30  1  0
 30  7  1  0
 28  9  1  0
 27 14  1  0
 26 17  1  0
M  END
>  <identifier>  (427) 
CNP0235526.1

>  <canonical_smiles>  (427) 
CC[C@H](C)/C=C/C1=CC2=C(Cl)C(=O)[C@@]3(C)O[C@]4(O)[C@H](C)[C@@H](C)OC(=O)[C@@H]4[C@H]3C2=CO1

>  <standard_inchi>  (427) 
InChI=1S/C23H27ClO6/c1-6-11(2)7-8-14-9-15-16(10-28-14)17-18-21(26)29-13(4)12(3)23(18,27)30-22(17,5)20(25)19(15)24/h7-13,17-18,27H,6H2,1-5H3/b8-7+/t11-,12+,13+,17+,18-,22-,23+/m0/s1

>  <standard_inchi_key>  (427) 
VFAOIGZBHFMFIU-XSKLMDGHSA-N

>  <name>  (427) 
chaetomugilin D

>  <iupac_name>  (427) 
(1~{S},10~{S},12~{R},13~{R},14~{R},17~{R})-8-chloro-12-hydroxy-10,13,14-trimethyl-5-[(~{E},3~{S})-3-methylpent-1-enyl]-4,11,15-trioxatetracyclo[8.7.0.0^{2,7}.0^{12,17}]heptadeca-2,5,7-triene-9,16-dione

>  <annotation_level>  (427) 
5

>  <total_atom_count>  (427) 
57

>  <heavy_atom_count>  (427) 
30

>  <molecular_weight>  (427) 
434.92

>  <exact_molecular_weight>  (427) 
434.14962

>  <molecular_formula>  (427) 
C23H27ClO6

>  <alogp>  (427) 
3.75

>  <topological_polar_surface_area>  (427) 
82.06

>  <rotatable_bond_count>  (427) 
3

>  <hydrogen_bond_acceptors>  (427) 
6

>  <hydrogen_bond_donors>  (427) 
1

>  <hydrogen_bond_acceptors_lipinski>  (427) 
6

>  <hydrogen_bond_donors_lipinski>  (427) 
1

>  <lipinski_rule_of_five_violations>  (427) 
0

>  <aromatic_rings_count>  (427) 
0

>  <qed_drug_likeliness>  (427) 
0.68

>  <formal_charge>  (427) 
0

>  <fractioncsp3>  (427) 
0.57

>  <number_of_minimal_rings>  (427) 
4

>  <van_der_walls_volume>  (427) 
380.74

>  <contains_sugar>  (427) 
False

>  <contains_ring_sugars>  (427) 
False

>  <contains_linear_sugars>  (427) 
False

>  <murcko_framework>  (427) 
O1C=CC2=CCC3OC4CCOCC4C3C2=C1

>  <np_likeness>  (427) 
2.74

>  <chemical_class>  (427) 
Lactones

>  <chemical_sub_class>  (427) 
Delta valerolactones

>  <chemical_super_class>  (427) 
Organoheterocyclic compounds

>  <direct_parent_classification>  (427) 
Delta valerolactones

>  <np_classifier_pathway>  (427) 
Polyketides

>  <np_classifier_superclass>  (427) 
Chromanes

>  <np_classifier_class>  (427) 
Azaphilones

>  <np_classifier_is_glycoside>  (427) 
True

>  <organisms>  (427) 
Chaetomium globosum|Chaetomium globosum OUPS-T106B-6|flathead mullet

>  <collections>  (427) 
CMNPD|ChEBI NPs|EMNPD|KNApSaCK|Latin America dataset|NPASS|NPAtlas|NuBBEDB|Super Natural II|WikiData Natural Products

>  <dois>  (427) 
10.1016/J.BMCL.2009.02.025|10.1016/J.BMCL.2015.08.063|10.1016/J.TET.2009.06.125|10.1016/j.bmcl.2009.02.025|10.1016/j.bmcl.2015.08.063|10.1021/NP200110F|10.1021/np200556p|10.1038/JA.2008.81|10.1038/ja.2008.81|10.1039/b906091j

>  <synonyms>  (427) 
(1S,10S,12R,13R,14R,17R)-8-chloro-12-hydroxy-10,13,14-trimethyl-5-[(E,3S)-3-methylpent-1-enyl]-4,11,15-trioxatetracyclo[8.7.0.02,7.012,17]heptadeca-2,5,7-triene-9,16-dione|(6aS,7aR,8R,9R,11aR,11bS)-5-Chloro-6a,7a,8,9,11a,11b-hexahydro-7a-hydroxy-6a,8,9-trimethyl-3-[(1E,3S)-3-methyl-1-penten-1-yl]-6H,11H-pyrano[3a(2),4a(2):4,5]furo[2,3-h]-2-benzopyran-6,11-dione|(6aS,7aR,8R,9R,11aR,11bS)-5-chloro-7a-hydroxy-6a,8,9-trimethyl-3-[(1E,3S)-3-methylpent-1-en-1-yl]-6a,7a,8,9,11a,11b-hexahydro-6H,11H-pyrano[3',4':4,5]furo[2,3-h]isochromene-6,11-dione|1098081-38-9|CHEBI:68730|CHEMBL494745|Chaetomugilin D|DTXSID201098682|Q27137149|chaetoviridin B

>  <cas>  (427) 
1098081-38-9

$$$$

     RDKit          2D

 31 32  0  0  0  0  0  0  0  0999 V2000
   14.2500    0.8578    0.0000 C   0  0  0  0  0  0  0  0  0  0  0  0
   12.9693    0.0769    0.0000 C   0  0  0  0  0  0  0  0  0  0  0  0
   13.0052   -1.4227    0.0000 C   0  0  0  0  0  0  0  0  0  0  0  0
   11.6527    0.7956    0.0000 C   0  0  0  0  0  0  0  0  0  0  0  0
   10.3720    0.0148    0.0000 C   0  0  0  0  0  0  0  0  0  0  0  0
    9.0554    0.7335    0.0000 C   0  0  0  0  0  0  0  0  0  0  0  0
    7.7746   -0.0474    0.0000 C   0  0  0  0  0  0  0  0  0  0  0  0
    7.8105   -1.5469    0.0000 C   0  0  0  0  0  0  0  0  0  0  0  0
    6.4580    0.6714    0.0000 C   0  0  0  0  0  0  0  0  0  0  0  0
    5.1773   -0.1095    0.0000 C   0  0  0  0  0  0  0  0  0  0  0  0
    3.8607    0.6092    0.0000 C   0  0  0  0  0  0  0  0  0  0  0  0
    2.5800   -0.1716    0.0000 C   0  0  0  0  0  0  0  0  0  0  0  0
    2.6158   -1.6712    0.0000 C   0  0  0  0  0  0  0  0  0  0  0  0
    1.2634    0.5471    0.0000 C   0  0  0  0  0  0  0  0  0  0  0  0
   -0.0174   -0.2338    0.0000 C   0  0  0  0  0  0  0  0  0  0  0  0
   -1.3340    0.4849    0.0000 C   0  0  0  0  0  0  0  0  0  0  0  0
   -2.6147   -0.2959    0.0000 C   0  0  0  0  0  0  0  0  0  0  0  0
   -2.5788   -1.7955    0.0000 C   0  0  0  0  0  0  0  0  0  0  0  0
   -3.9313    0.4228    0.0000 C   0  0  0  0  0  0  0  0  0  0  0  0
   -5.2120   -0.3580    0.0000 C   0  0  0  0  0  0  0  0  0  0  0  0
   -6.5286    0.3607    0.0000 C   0  0  0  0  0  0  0  0  0  0  0  0
   -6.5645    1.8602    0.0000 C   0  0  0  0  0  0  0  0  0  0  0  0
   -7.8811    2.5790    0.0000 C   0  0  0  0  0  0  0  0  0  0  0  0
   -7.9170    4.0785    0.0000 O   0  0  0  0  0  0  0  0  0  0  0  0
   -9.1618    1.7981    0.0000 C   0  0  0  0  0  0  0  0  0  0  0  0
   -9.1260    0.2985    0.0000 C   0  0  0  0  0  0  0  0  0  0  0  0
   -7.8094   -0.4202    0.0000 C   0  0  0  0  0  0  0  0  0  0  0  0
   -8.0860   -1.8944    0.0000 O   0  0  0  0  0  0  0  0  0  0  0  0
   -9.5737   -2.0869    0.0000 C   0  0  0  0  0  0  0  0  0  0  0  0
  -10.2924   -3.4035    0.0000 O   0  0  0  0  0  0  0  0  0  0  0  0
  -10.2164   -0.7315    0.0000 C   0  0  0  0  0  0  0  0  0  0  0  0
  1  2  1  0
  2  3  1  0
  2  4  2  0
  4  5  1  0
  5  6  1  0
  6  7  1  0
  7  8  1  0
  7  9  2  0
  9 10  1  0
 10 11  1  0
 11 12  1  0
 12 13  1  0
 12 14  2  0
 14 15  1  0
 15 16  1  0
 16 17  1  0
 17 18  1  0
 17 19  2  0
 19 20  1  0
 20 21  1  0
 21 22  2  0
 22 23  1  0
 23 24  1  0
 23 25  2  0
 25 26  1  0
 26 27  2  0
 27 28  1  0
 28 29  1  0
 29 30  2  0
 29 31  1  0
 27 21  1  0
 31 26  1  0
M  END
>  <identifier>  (428) 
CNP0130160.1

>  <canonical_smiles>  (428) 
CC(C)=CCC/C(C)=C/CC/C(C)=C/CC/C(C)=C/CC1=CC(O)=CC2=C1OC(=O)C2

>  <standard_inchi>  (428) 
InChI=1S/C28H38O3/c1-20(2)9-6-10-21(3)11-7-12-22(4)13-8-14-23(5)15-16-24-17-26(29)18-25-19-27(30)31-28(24)25/h9,11,13,15,17-18,29H,6-8,10,12,14,16,19H2,1-5H3/b21-11+,22-13+,23-15+

>  <standard_inchi_key>  (428) 
KNRFZVZIHDOQLP-FPFQZNTGSA-N

>  <name>  (428) 
nan

>  <iupac_name>  (428) 
nan

>  <annotation_level>  (428) 
0

>  <total_atom_count>  (428) 
69

>  <heavy_atom_count>  (428) 
31

>  <molecular_weight>  (428) 
422.61

>  <exact_molecular_weight>  (428) 
422.2821

>  <molecular_formula>  (428) 
C28H38O3

>  <alogp>  (428) 
7.54

>  <topological_polar_surface_area>  (428) 
46.53

>  <rotatable_bond_count>  (428) 
11

>  <hydrogen_bond_acceptors>  (428) 
3

>  <hydrogen_bond_donors>  (428) 
1

>  <hydrogen_bond_acceptors_lipinski>  (428) 
3

>  <hydrogen_bond_donors_lipinski>  (428) 
1

>  <lipinski_rule_of_five_violations>  (428) 
1

>  <aromatic_rings_count>  (428) 
1

>  <qed_drug_likeliness>  (428) 
0.23

>  <formal_charge>  (428) 
0

>  <fractioncsp3>  (428) 
0.46

>  <number_of_minimal_rings>  (428) 
2

>  <van_der_walls_volume>  (428) 
434.98

>  <contains_sugar>  (428) 
False

>  <contains_ring_sugars>  (428) 
False

>  <contains_linear_sugars>  (428) 
False

>  <murcko_framework>  (428) 
O1c2ccccc2CC1

>  <np_likeness>  (428) 
1.90

>  <chemical_class>  (428) 
nan

>  <chemical_sub_class>  (428) 
nan

>  <chemical_super_class>  (428) 
nan

>  <direct_parent_classification>  (428) 
nan

>  <np_classifier_pathway>  (428) 
Terpenoids

>  <np_classifier_superclass>  (428) 
Meroterpenoids

>  <np_classifier_class>  (428) 
Merosesquiterpenoids

>  <np_classifier_is_glycoside>  (428) 
False

>  <organisms>  (428) 
Amphimedon paraviridis|Chilo suppressalis|Coccinia grandis|Euonymus atropurpureus|Festuca versuta|Iryanthera grandis|Jasminum humile|Neolitsea zeylanica|Ostrea chilensis|Rhus chinensis

>  <collections>  (428) 
CMAUP (cCollective molecular activities of useful plants)|Latin America dataset|NPASS|NuBBEDB|WikiData Natural Products|ZINC NP

>  <dois>  (428) 
10.1016/S0031-9422(00)80162-4|10.1055/S-2007-967113

>  <synonyms>  (428) 
nan

>  <cas>  (428) 
nan

$$$$

     RDKit          2D

 17 18  0  0  0  0  0  0  0  0999 V2000
   -1.1567   -2.3530    0.0000 O   0  0  0  0  0  0  0  0  0  0  0  0
   -1.0543   -0.8565    0.0000 C   0  0  0  0  0  0  0  0  0  0  0  0
    0.2929   -0.1969    0.0000 O   0  0  0  0  0  0  0  0  0  0  0  0
    1.5377   -1.0338    0.0000 C   0  0  0  0  0  0  0  0  0  0  0  0
    2.8849   -0.3742    0.0000 C   0  0  0  0  0  0  0  0  0  0  0  0
    4.1297   -1.2112    0.0000 C   0  0  0  0  0  0  0  0  0  0  0  0
    5.4769   -0.5516    0.0000 C   0  0  0  0  0  0  0  0  0  0  0  0
    5.5793    0.9449    0.0000 C   0  0  0  0  0  0  0  0  0  0  0  0
    4.3345    1.7819    0.0000 C   0  0  0  0  0  0  0  0  0  0  0  0
    2.9873    1.1223    0.0000 C   0  0  0  0  0  0  0  0  0  0  0  0
   -2.2991   -0.0196    0.0000 C   0  0  0  0  0  0  0  0  0  0  0  0
   -2.1967    1.4769    0.0000 C   0  0  0  0  0  0  0  0  0  0  0  0
   -3.4416    2.3138    0.0000 C   0  0  0  0  0  0  0  0  0  0  0  0
   -4.7888    1.6542    0.0000 C   0  0  0  0  0  0  0  0  0  0  0  0
   -4.8911    0.1577    0.0000 C   0  0  0  0  0  0  0  0  0  0  0  0
   -3.6463   -0.6792    0.0000 C   0  0  0  0  0  0  0  0  0  0  0  0
   -3.7487   -2.1757    0.0000 O   0  0  0  0  0  0  0  0  0  0  0  0
  1  2  2  0
  2  3  1  0
  3  4  1  0
  4  5  1  0
  5  6  2  0
  6  7  1  0
  7  8  2  0
  8  9  1  0
  9 10  2  0
  2 11  1  0
 11 12  2  0
 12 13  1  0
 13 14  2  0
 14 15  1  0
 15 16  2  0
 16 17  1  0
 10  5  1  0
 16 11  1  0
M  END
>  <identifier>  (429) 
CNP0174634.0

>  <canonical_smiles>  (429) 
O=C(OCC1=CC=CC=C1)C1=CC=CC=C1O

>  <standard_inchi>  (429) 
InChI=1S/C14H12O3/c15-13-9-5-4-8-12(13)14(16)17-10-11-6-2-1-3-7-11/h1-9,15H,10H2

>  <standard_inchi_key>  (429) 
ZCTQGTTXIYCGGC-UHFFFAOYSA-N

>  <name>  (429) 
BENZYL SALICYLATE

>  <iupac_name>  (429) 
benzyl 2-hydroxybenzoate

>  <annotation_level>  (429) 
5

>  <total_atom_count>  (429) 
29

>  <heavy_atom_count>  (429) 
17

>  <molecular_weight>  (429) 
228.25

>  <exact_molecular_weight>  (429) 
228.07864

>  <molecular_formula>  (429) 
C14H12O3

>  <alogp>  (429) 
2.75

>  <topological_polar_surface_area>  (429) 
46.53

>  <rotatable_bond_count>  (429) 
3

>  <hydrogen_bond_acceptors>  (429) 
3

>  <hydrogen_bond_donors>  (429) 
1

>  <hydrogen_bond_acceptors_lipinski>  (429) 
3

>  <hydrogen_bond_donors_lipinski>  (429) 
1

>  <lipinski_rule_of_five_violations>  (429) 
0

>  <aromatic_rings_count>  (429) 
2

>  <qed_drug_likeliness>  (429) 
0.82

>  <formal_charge>  (429) 
0

>  <fractioncsp3>  (429) 
0.07

>  <number_of_minimal_rings>  (429) 
2

>  <van_der_walls_volume>  (429) 
206.69

>  <contains_sugar>  (429) 
False

>  <contains_ring_sugars>  (429) 
False

>  <contains_linear_sugars>  (429) 
False

>  <murcko_framework>  (429) 
O(Cc1ccccc1)Cc2ccccc2

>  <np_likeness>  (429) 
-0.18

>  <chemical_class>  (429) 
Benzene and substituted derivatives

>  <chemical_sub_class>  (429) 
Benzoic acids and derivatives

>  <chemical_super_class>  (429) 
Benzenoids

>  <direct_parent_classification>  (429) 
o-Hydroxybenzoic acid esters

>  <np_classifier_pathway>  (429) 
Shikimates and Phenylpropanoids

>  <np_classifier_superclass>  (429) 
Phenolic acids (C6-C1)

>  <np_classifier_class>  (429) 
Simple phenolic acids

>  <np_classifier_is_glycoside>  (429) 
False

>  <organisms>  (429) 
Acca sellowiana|Aniba|Aniba affinis|Aniba ferrea|Aniba riparia|Aniba sp.|Aniba terminalis|Anthocleista grandiflora|Antidesma laciniatum|Arctostaphylos uva-ursi|Cananga odorata|Cedronella canariensis|Chamaemelum nobile|Daedaleopsis confragosa|Daphne odora|Desmos chinensis|Dianthus caryophyllus|Dianthus chinensis|Dianthus superbus|Epicoccum nigrum|Erica manipuliflora|Friesodielsia enghiana|Geleznowia verrucosa|Helleborus caucasicus|Hypoestes serpens|Lespedeza homoloba|Lolium perenne|Lophomyrtus bullata|Mangifera indica|Nicotiana cavicola|Orgyia australis postica|Plumeria obtusa|Plumeria rubra|Plutella xylostella|Polygala senega|Populus|Primula farinosa|Primula spp.|Schkuhria multiflora|Streptomyces|Streptomyces sp. G278|Tilletia laevis|Uvaria grandiflora|clove

>  <collections>  (429) 
Australian natural products|CMAUP (cCollective molecular activities of useful plants)|FooDB|GNPS (Global Natural Products Social Molecular Networking)|KNApSaCK|Latin America dataset|NPASS|NuBBEDB|Phyto4Health|PubChem NPs|StreptomeDB|Super Natural II|TCMDB-Taiwan (Traditional Chinese Medicine database)|TCMID (Traditional Chinese Medicine Integrated Database)|UNPD (Universal Natural Products Database)|WikiData Natural Products

>  <dois>  (429) 
10.1002/(SICI)1099-1026(199907/08)14:4<237::AID-FFJ817>3.0.CO;2-Y|10.1002/FFJ.2730070108|10.1002/FFJ.2730100408|10.1016/0031-9422(75)85358-1|10.1016/0031-9422(80)83081-0|10.1016/0031-9422(84)83114-3|10.1016/0031-9422(91)83052-M|10.1016/0031-9422(95)00241-X|10.1016/J.PHYTOCHEM.2003.08.004|10.1016/J.PHYTOCHEM.2006.05.038|10.1016/J.TET.2011.05.070|10.1016/S0031-9422(00)83890-X|10.1016/S0031-9422(96)00527-4|10.1021/JF00069A028|10.1021/JF0402633|10.1039/B509076H|10.1080/10412905.1995.9700524|10.1080/10412905.2000.9712044|10.1080/14786419.2018.1468331|10.1271/BBB1961.47.483|10.1271/BBB1961.49.1583|10.1590/1809-43921977071041|10.1590/1809-43921982123668|10.3390/MOLECULES15096168|10.3390/MOLECULES24112053

>  <synonyms>  (429) 
118-58-1|2-Hydroxybenzoic Acid Benzyl Ester|2-Hydroxybenzoic acid phenylmethyl ester|4-10-00-00157 (Beilstein Handbook Reference)|A893092|AC-11580|AI3-00517|AKOS015915010|AS-12902|BENZYL SALICYLATE [FCC]|BENZYL SALICYLATE [MI]|BENZYL SALICYLATE [WHO-DD]|BIDD:ER0019|BRN 2115365|Benzoic acid, 2-hydroxy-, phenylmethyl ester|Benzyl 2-hydroxybenzoate|Benzyl salicylate, 98%|Benzyl salicylate, >=98%, FG|Benzyl salicylate, analytical standard|Benzyl salicylate, purum, >=99.0% (GC)|Benzyle salicylate|CAS-118-58-1|CCRIS 4749|CHEBI:165211|CHEMBL460124|CS-0013437|DB-052255|DTXCID304598|DTXSID1024598|EC 204-262-9|EINECS 204-262-9|FEMA 2151|FEMA No. 2151|G74505|HMS2268I12|HSDB 8387|HY-B1556|InChI=1\/C14H12O3\/c15-13-9-5-4-8-12(13)14(16)17-10-11-6-2-1-3-7-11\/h1-9,15H,10H|J-003850|MFCD00020034|MLS002415718|NCGC00091411-01|NCGC00256928-01|NCGC00259418-01|NS00005123|NSC 6647|NSC-6647|Phenylmethyl 2-hydroxybenzoate|Q416929|S0009|SCHEMBL15573|SMR000112465|Salicylic Acid Benzyl Ester|Salicylic acid, benzyl ester|Salicylsaeurebenzylester|Tox21_201869|Tox21_303046|UNII-WAO5MNK9TU|WAO5MNK9TU|WLN: QR BVO1R|Z19703595|benzylsalicylate

>  <cas>  (429) 
118-58-1

$$$$

     RDKit          2D

 31 33  0  0  0  0  0  0  0  0999 V2000
   -3.8659    4.0845    0.0000 C   0  0  0  0  0  0  0  0  0  0  0  0
   -4.7511    2.8736    0.0000 O   0  0  0  0  0  0  0  0  0  0  0  0
   -4.1450    1.5015    0.0000 C   0  0  0  0  0  0  0  0  0  0  0  0
   -2.6536    1.3404    0.0000 C   0  0  0  0  0  0  0  0  0  0  0  0
   -2.0475   -0.0317    0.0000 C   0  0  0  0  0  0  0  0  0  0  0  0
   -0.5562   -0.1928    0.0000 C   0  0  0  0  0  0  0  0  0  0  0  0
    0.0499   -1.5649    0.0000 C   0  0  0  0  0  0  0  0  0  0  0  0
   -0.8352   -2.7758    0.0000 O   0  0  0  0  0  0  0  0  0  0  0  0
   -2.3266   -2.6147    0.0000 C   0  0  0  0  0  0  0  0  0  0  0  0
    1.5413   -1.7260    0.0000 C   0  0  0  0  0  0  0  0  0  0  0  0
    2.1474   -3.0981    0.0000 O   0  0  0  0  0  0  0  0  0  0  0  0
    2.4265   -0.5150    0.0000 C   0  0  0  0  0  0  0  0  0  0  0  0
    3.9178   -0.6761    0.0000 C   0  0  0  0  0  0  0  0  0  0  0  0
    4.5239   -2.0482    0.0000 O   0  0  0  0  0  0  0  0  0  0  0  0
    6.0152   -2.2093    0.0000 C   0  0  0  0  0  0  0  0  0  0  0  0
    4.8030    0.5348    0.0000 C   0  0  0  0  0  0  0  0  0  0  0  0
    6.2943    0.3737    0.0000 O   0  0  0  0  0  0  0  0  0  0  0  0
    6.9004   -0.9984    0.0000 C   0  0  0  0  0  0  0  0  0  0  0  0
    4.1968    1.9069    0.0000 C   0  0  0  0  0  0  0  0  0  0  0  0
    5.0820    3.1179    0.0000 O   0  0  0  0  0  0  0  0  0  0  0  0
    6.5734    2.9568    0.0000 C   0  0  0  0  0  0  0  0  0  0  0  0
    2.7055    2.0680    0.0000 C   0  0  0  0  0  0  0  0  0  0  0  0
    1.8203    0.8571    0.0000 C   0  0  0  0  0  0  0  0  0  0  0  0
    0.3290    1.0182    0.0000 O   0  0  0  0  0  0  0  0  0  0  0  0
   -2.9327   -1.2427    0.0000 C   0  0  0  0  0  0  0  0  0  0  0  0
   -4.4240   -1.0815    0.0000 C   0  0  0  0  0  0  0  0  0  0  0  0
   -5.3092   -2.2925    0.0000 O   0  0  0  0  0  0  0  0  0  0  0  0
   -6.8005   -2.1314    0.0000 C   0  0  0  0  0  0  0  0  0  0  0  0
   -5.0302    0.2905    0.0000 C   0  0  0  0  0  0  0  0  0  0  0  0
   -6.5215    0.4516    0.0000 O   0  0  0  0  0  0  0  0  0  0  0  0
   -7.1276    1.8237    0.0000 C   0  0  0  0  0  0  0  0  0  0  0  0
  1  2  1  0
  2  3  1  0
  3  4  2  0
  4  5  1  0
  5  6  1  0
  6  7  2  0
  7  8  1  0
  8  9  1  0
  7 10  1  0
 10 11  2  0
 10 12  1  0
 12 13  2  0
 13 14  1  0
 14 15  1  0
 13 16  1  0
 16 17  1  0
 17 18  1  0
 16 19  2  0
 19 20  1  0
 20 21  1  0
 19 22  1  0
 22 23  2  0
 23 24  1  0
  5 25  2  0
 25 26  1  0
 26 27  1  0
 27 28  1  0
 26 29  2  0
 29 30  1  0
 30 31  1  0
 29  3  1  0
 24  6  1  0
 23 12  1  0
M  END
>  <identifier>  (430) 
CNP0278879.0

>  <canonical_smiles>  (430) 
COC1=CC(C2=C(OC)C(=O)C3=C(OC)C(OC)=C(OC)C=C3O2)=CC(OC)=C1OC

>  <standard_inchi>  (430) 
InChI=1S/C22H24O9/c1-24-13-8-11(9-14(25-2)19(13)27-4)18-22(30-7)17(23)16-12(31-18)10-15(26-3)20(28-5)21(16)29-6/h8-10H,1-7H3

>  <standard_inchi_key>  (430) 
SHRSLVWLFNSTLK-UHFFFAOYSA-N

>  <name>  (430) 
3',4',5',3,5,6,7-Heptamethoxyflavone

>  <iupac_name>  (430) 
3,5,6,7-tetramethoxy-2-(3,4,5-trimethoxyphenyl)chromen-4-one

>  <annotation_level>  (430) 
5

>  <total_atom_count>  (430) 
55

>  <heavy_atom_count>  (430) 
31

>  <molecular_weight>  (430) 
432.43

>  <exact_molecular_weight>  (430) 
432.14203

>  <molecular_formula>  (430) 
C22H24O9

>  <alogp>  (430) 
3.52

>  <topological_polar_surface_area>  (430) 
94.82

>  <rotatable_bond_count>  (430) 
8

>  <hydrogen_bond_acceptors>  (430) 
9

>  <hydrogen_bond_donors>  (430) 
0

>  <hydrogen_bond_acceptors_lipinski>  (430) 
9

>  <hydrogen_bond_donors_lipinski>  (430) 
0

>  <lipinski_rule_of_five_violations>  (430) 
0

>  <aromatic_rings_count>  (430) 
3

>  <qed_drug_likeliness>  (430) 
0.53

>  <formal_charge>  (430) 
0

>  <fractioncsp3>  (430) 
0.32

>  <number_of_minimal_rings>  (430) 
3

>  <van_der_walls_volume>  (430) 
377.05

>  <contains_sugar>  (430) 
False

>  <contains_ring_sugars>  (430) 
False

>  <contains_linear_sugars>  (430) 
False

>  <murcko_framework>  (430) 
O1c2ccccc2CC=C1c3ccccc3

>  <np_likeness>  (430) 
0.87

>  <chemical_class>  (430) 
Flavonoids

>  <chemical_sub_class>  (430) 
O-methylated flavonoids

>  <chemical_super_class>  (430) 
Phenylpropanoids and polyketides

>  <direct_parent_classification>  (430) 
6-O-methylated flavonoids

>  <np_classifier_pathway>  (430) 
Shikimates and Phenylpropanoids

>  <np_classifier_superclass>  (430) 
Flavonoids

>  <np_classifier_class>  (430) 
Flavonols

>  <np_classifier_is_glycoside>  (430) 
False

>  <organisms>  (430) 
Apuleia leiocarpa|Byrsonima coccolobifolia|Murraya Paniculata|Murraya exotica|Murraya omphalocarpa|Murraya paniculata|Murraya paniculata var. exotica|byrsonima coccolobifolia

>  <collections>  (430) 
Australian natural products|CMAUP (cCollective molecular activities of useful plants)|KNApSaCK|Latin America dataset|NPASS|NPEdia|NuBBEDB|Super Natural II|TCMDB-Taiwan (Traditional Chinese Medicine database)|TCMID (Traditional Chinese Medicine Integrated Database)|TIPdb (database of Taiwan indigenous plants)|UNPD (Universal Natural Products Database)|VietHerb|WikiData Natural Products|ZINC NP

>  <dois>  (430) 
10.1002/JCCS.199400032|10.1016/S0031-9422(00)86993-9|10.1016/S0031-9422(00)89891-X|10.1016/S0031-9422(97)00598-0|10.1016/s0031-9422(97)00598-0|10.1021/JO01273A048|10.1021/NP400717M|10.1021/np400717m|10.1211/JPP.61.02.0017

>  <synonyms>  (430) 
17245-30-6|3,5,6,7,3',4',5'-Heptamethoxyflavone|3,5,6,7-tetramethoxy-2-(3,4,5-trimethoxyphenyl)chromen-4-one|35673'4'5'-heptamethoxyflavonol|AKOS022184677|B0005-169866|BDBM50446573|CHEBI:196398|CHEMBL3109440|FS-10476|LMPK12110625|NSC684433|SCHEMBL16894654

>  <cas>  (430) 
17245-30-6

$$$$

     RDKit          2D

 15 15  0  0  0  0  0  0  0  0999 V2000
   -6.3563   -0.3579    0.0000 C   0  0  0  0  0  0  0  0  0  0  0  0
   -5.0133    0.3104    0.0000 C   0  0  0  0  0  0  0  0  0  0  0  0
   -3.7631   -0.5184    0.0000 C   0  0  0  0  0  0  0  0  0  0  0  0
   -2.4202    0.1499    0.0000 C   0  0  0  0  0  0  0  0  0  0  0  0
   -1.1700   -0.6790    0.0000 C   0  0  0  0  0  0  0  0  0  0  0  0
    0.1729   -0.0107    0.0000 C   0  0  0  0  0  0  0  0  0  0  0  0
    0.2656    1.4864    0.0000 C   0  0  0  0  0  0  0  0  0  0  0  0
    1.6085    2.1547    0.0000 C   0  0  0  0  0  0  0  0  0  0  0  0
    1.7012    3.6519    0.0000 O   0  0  0  0  0  0  0  0  0  0  0  0
    2.8587    1.3259    0.0000 C   0  0  0  0  0  0  0  0  0  0  0  0
    2.7660   -0.1713    0.0000 C   0  0  0  0  0  0  0  0  0  0  0  0
    4.0162   -1.0001    0.0000 O   0  0  0  0  0  0  0  0  0  0  0  0
    1.4231   -0.8395    0.0000 C   0  0  0  0  0  0  0  0  0  0  0  0
    1.3304   -2.3367    0.0000 C   0  0  0  0  0  0  0  0  0  0  0  0
    2.5806   -3.1655    0.0000 O   0  0  0  0  0  0  0  0  0  0  0  0
  1  2  1  0
  2  3  2  0
  3  4  1  0
  4  5  2  0
  5  6  1  0
  6  7  2  0
  7  8  1  0
  8  9  1  0
  8 10  2  0
 10 11  1  0
 11 12  1  0
 11 13  2  0
 13 14  1  0
 14 15  2  0
 13  6  1  0
M  END
>  <identifier>  (431) 
CNP0251480.1

>  <canonical_smiles>  (431) 
C/C=C/C=C/C1=CC(O)=CC(O)=C1C=O

>  <standard_inchi>  (431) 
InChI=1S/C12H12O3/c1-2-3-4-5-9-6-10(14)7-12(15)11(9)8-13/h2-8,14-15H,1H3/b3-2+,5-4+

>  <standard_inchi_key>  (431) 
OCJOUESZDWTZOX-MQQKCMAXSA-N

>  <name>  (431) 
nan

>  <iupac_name>  (431) 
nan

>  <annotation_level>  (431) 
0

>  <total_atom_count>  (431) 
27

>  <heavy_atom_count>  (431) 
15

>  <molecular_weight>  (431) 
204.22

>  <exact_molecular_weight>  (431) 
204.07864

>  <molecular_formula>  (431) 
C12H12O3

>  <alogp>  (431) 
2.50

>  <topological_polar_surface_area>  (431) 
57.53

>  <rotatable_bond_count>  (431) 
3

>  <hydrogen_bond_acceptors>  (431) 
3

>  <hydrogen_bond_donors>  (431) 
2

>  <hydrogen_bond_acceptors_lipinski>  (431) 
3

>  <hydrogen_bond_donors_lipinski>  (431) 
2

>  <lipinski_rule_of_five_violations>  (431) 
0

>  <aromatic_rings_count>  (431) 
1

>  <qed_drug_likeliness>  (431) 
0.59

>  <formal_charge>  (431) 
0

>  <fractioncsp3>  (431) 
0.08

>  <number_of_minimal_rings>  (431) 
1

>  <van_der_walls_volume>  (431) 
191.82

>  <contains_sugar>  (431) 
False

>  <contains_ring_sugars>  (431) 
False

>  <contains_linear_sugars>  (431) 
False

>  <murcko_framework>  (431) 
c1ccccc1

>  <np_likeness>  (431) 
1.73

>  <chemical_class>  (431) 
nan

>  <chemical_sub_class>  (431) 
nan

>  <chemical_super_class>  (431) 
nan

>  <direct_parent_classification>  (431) 
nan

>  <np_classifier_pathway>  (431) 
Polyketides

>  <np_classifier_superclass>  (431) 
nan

>  <np_classifier_class>  (431) 
nan

>  <np_classifier_is_glycoside>  (431) 
False

>  <organisms>  (431) 
Periconia atropurpurea

>  <collections>  (431) 
ChemSpider NPs|Latin America dataset|NPAtlas|NuBBEDB|Super Natural II|WikiData Natural Products|ZINC NP

>  <dois>  (431) 
10.1016/J.PHYTOCHEM.2006.09.005|10.1016/j.phytochem.2006.09.005

>  <synonyms>  (431) 
nan

>  <cas>  (431) 
nan

$$$$

     RDKit          2D

 31 35  0  0  0  0  0  0  0  0999 V2000
   -6.1212    1.5751    0.0000 C   0  0  0  0  0  0  0  0  0  0  0  0
   -5.2492    0.3547    0.0000 C   0  0  0  0  0  0  0  0  0  0  0  0
   -5.8701   -1.0108    0.0000 C   0  0  0  0  0  0  0  0  0  0  0  0
   -7.3631   -1.1558    0.0000 O   0  0  0  0  0  0  0  0  0  0  0  0
   -4.9980   -2.2312    0.0000 C   0  0  0  0  0  0  0  0  0  0  0  0
   -3.5051   -2.0863    0.0000 C   0  0  0  0  0  0  0  0  0  0  0  0
   -2.8841   -0.7208    0.0000 C   0  0  0  0  0  0  0  0  0  0  0  0
   -3.7562    0.4997    0.0000 C   0  0  0  0  0  0  0  0  0  0  0  0
   -4.6282    1.7201    0.0000 C   0  0  0  0  0  0  0  0  0  0  0  0
   -3.1353    1.8651    0.0000 C   0  0  0  0  0  0  0  0  0  0  0  0
   -1.6423    2.0101    0.0000 C   0  0  0  0  0  0  0  0  0  0  0  0
   -0.7702    0.7896    0.0000 C   0  0  0  0  0  0  0  0  0  0  0  0
   -1.3911   -0.5758    0.0000 C   0  0  0  0  0  0  0  0  0  0  0  0
   -2.0121   -1.9413    0.0000 C   0  0  0  0  0  0  0  0  0  0  0  0
   -0.5191   -1.7963    0.0000 C   0  0  0  0  0  0  0  0  0  0  0  0
    0.9739   -1.6513    0.0000 C   0  0  0  0  0  0  0  0  0  0  0  0
    1.5948   -0.2858    0.0000 C   0  0  0  0  0  0  0  0  0  0  0  0
    2.4669   -1.5063    0.0000 C   0  0  0  0  0  0  0  0  0  0  0  0
    3.0878   -0.1409    0.0000 C   0  0  0  0  0  0  0  0  0  0  0  0
    3.9598   -1.3613    0.0000 C   0  0  0  0  0  0  0  0  0  0  0  0
    5.4528   -1.2163    0.0000 C   0  0  0  0  0  0  0  0  0  0  0  0
    6.9053   -1.5907    0.0000 C   0  0  0  0  0  0  0  0  0  0  0  0
    5.3363   -2.7118    0.0000 C   0  0  0  0  0  0  0  0  0  0  0  0
    6.0737    0.1491    0.0000 C   0  0  0  0  0  0  0  0  0  0  0  0
    5.2017    1.3696    0.0000 C   0  0  0  0  0  0  0  0  0  0  0  0
    3.7087    1.2246    0.0000 C   0  0  0  0  0  0  0  0  0  0  0  0
    4.3296    2.5900    0.0000 C   0  0  0  0  0  0  0  0  0  0  0  0
    2.8367    2.4451    0.0000 C   0  0  0  0  0  0  0  0  0  0  0  0
    1.3437    2.3001    0.0000 C   0  0  0  0  0  0  0  0  0  0  0  0
    0.7228    0.9346    0.0000 C   0  0  0  0  0  0  0  0  0  0  0  0
   -0.1493    2.1551    0.0000 C   0  0  0  0  0  0  0  0  0  0  0  0
  2  1  1  6
  2  3  1  0
  3  4  2  0
  3  5  1  0
  5  6  1  0
  7  6  1  6
  7  8  1  0
  8  9  1  6
  8 10  1  0
 10 11  1  0
 12 11  1  6
 12 13  1  0
 13 14  1  6
 13 15  1  0
 15 16  1  0
 16 17  1  0
 17 18  1  1
 17 19  1  0
 19 20  1  1
 20 21  1  0
 21 22  1  0
 21 23  1  0
 21 24  1  0
 24 25  1  0
 25 26  1  0
 26 27  1  6
 26 28  1  0
 28 29  1  0
 29 30  1  0
 30 31  1  6
  8  2  1  0
 30 12  1  0
 13  7  1  0
 30 17  1  0
 26 19  1  0
M  END
>  <identifier>  (432) 
CNP0240312.1

>  <canonical_smiles>  (432) 
C[C@H]1C(=O)CC[C@@H]2[C@]1(C)CC[C@H]1[C@@]2(C)CC[C@@]2(C)[C@@H]3CC(C)(C)CC[C@]3(C)CC[C@]12C

>  <standard_inchi>  (432) 
InChI=1S/C30H50O/c1-20-21(31)9-10-22-27(20,5)12-11-23-28(22,6)16-18-30(8)24-19-25(2,3)13-14-26(24,4)15-17-29(23,30)7/h20,22-24H,9-19H2,1-8H3/t20-,22+,23-,24+,26+,27+,28-,29+,30-/m0/s1

>  <standard_inchi_key>  (432) 
OFMXGFHWLZPCFL-SVRPQWSVSA-N

>  <name>  (432) 
Friedelin

>  <iupac_name>  (432) 
(4~{R},4~{a}~{S},6~{a}~{S},6~{a}~{S},6~{b}~{R},8~{a}~{R},12~{a}~{R},14~{a}~{S},14~{b}~{S})-4,4~{a},6~{a},6~{b},8~{a},11,11,14~{a}-octamethyl-2,4,5,6,6~{a},7,8,9,10,12,12~{a},13,14,14~{b}-tetradecahydro-1~{H}-picen-3-one

>  <annotation_level>  (432) 
5

>  <total_atom_count>  (432) 
81

>  <heavy_atom_count>  (432) 
31

>  <molecular_weight>  (432) 
426.73

>  <exact_molecular_weight>  (432) 
426.38617

>  <molecular_formula>  (432) 
C30H50O

>  <alogp>  (432) 
8.46

>  <topological_polar_surface_area>  (432) 
17.07

>  <rotatable_bond_count>  (432) 
0

>  <hydrogen_bond_acceptors>  (432) 
1

>  <hydrogen_bond_donors>  (432) 
0

>  <hydrogen_bond_acceptors_lipinski>  (432) 
1

>  <hydrogen_bond_donors_lipinski>  (432) 
0

>  <lipinski_rule_of_five_violations>  (432) 
1

>  <aromatic_rings_count>  (432) 
0

>  <qed_drug_likeliness>  (432) 
0.38

>  <formal_charge>  (432) 
0

>  <fractioncsp3>  (432) 
0.97

>  <number_of_minimal_rings>  (432) 
5

>  <van_der_walls_volume>  (432) 
444.92

>  <contains_sugar>  (432) 
False

>  <contains_ring_sugars>  (432) 
False

>  <contains_linear_sugars>  (432) 
False

>  <murcko_framework>  (432) 
C1CCC2C(C1)CCC3C2CCC4C5CCCCC5CCC43

>  <np_likeness>  (432) 
2.64

>  <chemical_class>  (432) 
Prenol lipids

>  <chemical_sub_class>  (432) 
Triterpenoids

>  <chemical_super_class>  (432) 
Lipids and lipid-like molecules

>  <direct_parent_classification>  (432) 
Taraxerane, multiflorane, glutinane and friedelane triterpenoids

>  <np_classifier_pathway>  (432) 
Terpenoids

>  <np_classifier_superclass>  (432) 
Triterpenoids

>  <np_classifier_class>  (432) 
Friedelane triterpenoids

>  <np_classifier_is_glycoside>  (432) 
False

>  <organisms>  (432) 
Aaptos aaptos|Abies balsamea|Abies koreana|Abutilon grandiflorum|Acacia glaucescens|Acacia pachyphloia|Acacia sparsiflora|Acer mandshuricum|Achillea arabica|Achillea micrantha|Achillea santolina|Achlya bisexualis|Achyranthes bidentata|Aconitum fauriei|Aconitum nevadense|Adansonia digitata|Adenopeltis colliguaya|Adenophora wawreana|Adina rubescens|Agastache rugosa|Agathosma scaberula|Agave huachucensis|Agave shawii|Agave utahensis|Ageratina glechonophylla|Ageratum conyzoides|Aglaia elaeagnoidea|Aglaia forbesii|Ajuga pyramidalis|Alaria crispa|Alchornea latifolia|Alexandrian laurel|Allium neapolitanum|Alnus firma|Alnus rugosa|Aloe indica|Alpinia intermedia|Alseodaphne corneri|Amanoa oblongifolia|Ambrosia grayi|Anaptychia heterochroa|Anaptychia speciosa|Anatheca montagnei|Anchietea pyrifolia|Anchietea salutaris|Anemone clematis|Angiopteris caudatiformis|Ania latifolia|Aniba parviflora|Anisomeles indica|Annona cherimolia|Annona impressivenia|Anomospermum grandifolium|Anthemis plutonia|Anthopleura xanthogrammica|Aplidium orthium|Apterostigma dentigerum|Arabidopsis lyrata subsp. lyrata|Ardisia japonica|Arenaria juncea|Argyranthemum frutescens|Argyreia sp.|Argyrochosma fendleri|Argyrolobium megarrhizum|Aristolochia elegans|Armillaria mellea|Arnicratea grahamii|Artemisia annua|Artemisia annua L.|Artemisia arbuscula|Artemisia argyi|Artemisia bigelovii|Artemisia feddei|Artemisia lancea|Artemisia montana|Artemisia roxburghiana|Artemisia schimperi|Artemisia sieversiana|Artemisia vestita|Arthrinium arundinis|Arthrobacter viscosus|Aspergillus arenarius|Aspergillus candidus|Aspergillus flavipes|Aspergillus quadrilineatus|Aspergillus unguis|Aster altaicus|Aster himalaicus|Aster indicus|Aster koraiensis|Aster poliothamnus|Aster tataricus|Astragalus gummifer|Astragalus pamirensis|Astrantia major|Atalantia racemosa|Athrixia elata|Atylosia trinervia|Aucuba japonica|Aulacocephalus temmincki|Autonoe madeirensis|Axinella vaceleti|Azara microphylla|Baccharis bolivensis|Baccharis boliviensis|Baccharis patagonica|Baccharis thesioides|Baccharis tricuneata|Bacillus badius|Bacillus subtilis|Bacillus thuringiensis|Baeomyces roseus|Baileya multiradiata|Balanophora harlandii|Balanops australiana|Bambusa chungii|Baptisia lecontii|Barbados nut|Basanacantha spinosa|Bazzania japonica|Bazzania tridens|Beaumontia brevituba|Beauveria felina|Begonia malabarica|Berberis lambertii|Berberis stolonifera|Bersama yangambiensis|Betula davurica|Betula papyrifera|Bidens cernua|Bidens pilosa|Bipolaris sorokiniana|Bipolaris zeicola|Bischofia javanica|Bishofia javanica|Bitis arietans|Bituminaria bituminosa|Blainvillea rhomboidea|Bombus hortorum|Bonnetia dinizii|Brenneria rubrifaciens|Bridelia ferruginea|Bridelia ovata|Bridelia sp.|Bulbophyllum vaginatum|Bupleurum tenue|Burkholderia pyrrocinia|Byssothecium obiones|Cachrys trifida|Caesalpinia bonducella|Caesalpinia minax|Cajanus cajan|Callisthene major|Calodendrum capense|Calophyllum Inophyllum|Calophyllum apetalum|Calophyllum calaba|Calophyllum cordato-oblongum|Calophyllum gracilipes|Calophyllum inophyllum|Calophyllum moonii|Calophyllum pinetorum|Calophyllum soulattri|Calophyllum sp.|Calophyllum teysmannii|Calophyllum thwaitesii|Calophyllum tomentosum|Calophyllum verticillatum|Calophyllum walkeri|Caloplaca murorum|Calyx podatypa|Camellia sasanqua|Cannabis sativa|Caraipa densifolia|Cardiospermum halicacabum|Carpinus cordata|Casearia membranacea|Cassia Siamea|Cassia javanica subsp. nodosa|Cassia roxburghii|Cassia siamea Lamk.|Castanopsis eyrei|Castanopsis sclerophylla|Catha edulis|Catharsius molossus|Celastrus hindsii|Celastrus hypoleucus|Celastrus vulcanicola|Celastrus vulcanicolus|Celtis durandii|Centaurea aemulans|Centaurea cadmea|Centaurea hololeuca|Centaurea nigrescens|Centaurea phyllocephala|Centaurea seridis|Centipeda cunninghami|Ceratocystis clavigera|Ceratopetalum apetalum|Cereus weberi|Cervus elaphus|Cetraria collata|Chara corallina|Cheilanthes mysurensis|Cheiropleuria bicuspis|Chisocheton siamensis|Chlamydomonas reinhardtii|Chromodoris petechialis|Chrozophora obliqua|Chrysanthemum makinoi|Chrysanthemum x morifolium|Cichorium intybus|Cimicifuga sp.|Cirsium japonicum|Cissus quadrangularis|Citrus depressa|Citrus grandis|Citrus hybr|Citrus medica|Citrus reshni|Citrus reticulata|Citrus sp.|Citrus unshiu|Citrus × deliciosa|Citrus × paradisi|Cladiella krempfi|Cladonia cryptochlorophaea|Clarkia unguiculata|Clematis chinensis|Clematis hexapetala|Clematis manshurica|Clematis terniflora var. mandshurica|Clerodendrum bungei|Clerodendrum cyrtophyllum|Clerodendrum formicarum|Clerodendrum mandarinorum|Clerodendrum sp.|Clerodendrum splendens|Clinostemon mahuba|Clusia ellipticifolia|Clusia havetioides|Clusia multiflora|Clusia nemorosa|Clusia paralicola|Cneorum pulverulentum|Coccoloba excoriata|Codonopsis pilosula|Codonopsis pilosula nannf. var. modesta (nannf.) l.t. shen|Codonopsis subglobosa|Codonopsis tangshen OLIV.|Coleogyne ramosissima|Coleus coerulescens|Coleus garckeanus|Combretum imberbe|Comptonia peregrina|Conocephalum japonicum|Conoideocrella luteorostrata|Consolida ajacis|Convallaria keiskei|Conyza canadensis|Coprinellus heptemerus|Cordylanthus kingii|Coreopsis fasciculata|Cornus capitata|Cornus mas|Corydalis longipes|Corydalis paniculigera|Cotylelobium lanceolatum|Crambe crambe|Cratoxylum arborescens|Cratoxylum cochinchinense|Crepis foetida|Crinipellis scabella|Crinum defixum|Crossopetalum lobatum|Crossopetalum parviflorum|Croton caudatus|Croton cumingii|Croton hovarum|Croton insularis|Crucianella maritima|Cuphea carthagenensis|Curcuma kwangsiensis|Curio ficoides|Cyanostegia microphylla|Cyathea podophylla|Cyathocline purpurea|Cybister confusus|Cycas armstrongii|Cycas revoluta|Cylas formicarius|Cymbidium aloifolium|Cynoctonum wilfordii|Cyrtanthus falcatus|Cystophora scalaris|Dacrycarpus imbricatus|Dahlstedtia pinnata|Dalbergia monetaria|Dalbergia ovalis|Dalbergia stipulacea|Daldinia concentrica|Dalea tinctoria|Dalea tuberculata|Damnacanthus indicus|Daniellia ogea|Daphne papyracea|Dasystenella acanthina|Dendroaspis angusticeps|Dendrobium chrysotoxum|Dendrobium densiflorum|Dendrobium officinale|Dendrodoris tuberculosa|Dendropanax trifidus|Dermolepida albohirtum|Dialium excelsum|Dichomitus squalens|Dichrostachys cinerea|Dinemasporium strigosum|Dioscoreophyllum cumminsii|Diospyros Maritima|Diospyros buxifolia|Diospyros eriantha|Diospyros ferrea|Diospyros maritima|Diospyros maritima BLUME|Diospyros pegophila|Diospyros virginiana|Diploknema butyracea|Dirca occidentalis|Dischidia formosana|Discodermia dissoluta|Disynaphia halimifolia|Dittrichia viscosa|Dolichandrone crispa|Doodia picta|Doris atromarginata|Doris montereyensis|Dorstenia lindeniana|Dovyalis abyssinica|Drynaria quercifolia|Dryobalanops oblongifolia|Dryopteris crenata|Drypetes gossweileri|Drypetes inaequalis|Drypetes laciniata|Drypetes littoralis|Drypetes paxii|Drypetes tessmanniana|Duddingtonia flagrans|Duhaldea cappa|Durio zibethinus|Echinochloa crus-galli|Echinodontium tsugicola|Echinops grijsii|Ectatosoma tiaratum|Edgeworthia gardneri|Egregia menziesii|Elaeagnus commutata|Elaeocarpus chelonimorphus|Elaeocarpus fuscoides|Elaeodendron glaucum|Elephantopus tomentosus|Elliottia paniculata|Elymus repens|Encelia frutescens|Endodesmia calophylloides|Ephedra aphylla|Epipolasis kushimotoensis|Eragrostis viscosa|Eremanthus veadeiroensis|Eria tomentosa|Erica arborea|Erica arborea L.|Erigeron canadensis|Erigeron linifolius|Erinus alpinus|Erythrophleum fordii|Eschenbachia blinii|Esenbeckia nesiotica|Esenbeckia stephanii|Eskemukerjea megacarpum|Espeletia killipii|Eucalyptus cordata|Eucalyptus flocktoniae|Eucalyptus froggattii|Eucalyptus regnans|Eugenia uniflora|Eunicella cavolinii|Euonymus alatus|Euonymus japonicus|Euonymus lucidus|Euonymus revolutus|Eupatorium hyssopifolium|Euphorbia aellenii|Euphorbia biglandulosa|Euphorbia characias|Euphorbia cheiradenia|Euphorbia dendroides|Euphorbia drupifera|Euphorbia hirta|Euphorbia iberica|Euphorbia ingens|Euphorbia leuconeura|Euphorbia maculata|Euphorbia parviflora|Euphorbia polygonifolia|Euphorbia rothiana|Euphorbia sapinii|Euphorbia segetalis|Euphorbia sororia|Euphorbia tortilis|Euploca scabra|Eurybia divaricata|Euryops algoensis|Eusynstyela latericius|Eutreptia viridis|Evasterias troschelii|Evernia prunastri|Evodiopanax innovans|Excoecaria agallocha|Fagraea fragrans|Ferula jaeschkeana|Ficus benjamina|Ficus cordata|Flindersia brayleyana|Flueggea microcarpa|Forcipomyia marksae|Forsteronia refracta|Fraxinus americana|Fridericia chica|Fritillaria taipaiensis|Fritillaria ussuriensis|Fructus syzygii|Fulmarus glacialis|Fusarium equiseti|Ganoderma applanatum|Ganoderma cochlear|Garcinia acuminata|Garcinia brasiliensis|Garcinia buchneri|Garcinia celebica|Garcinia cymosa|Garcinia diospyrifolia|Garcinia dulcis|Garcinia edulis|Garcinia elliptica|Garcinia gardneriana|Garcinia hombroniana|Garcinia intermedia|Garcinia macrophylla|Garcinia mangostana|Garcinia myrtifolia|Garcinia nigrolineata|Garcinia opaca|Garcinia ovalifolia|Garcinia prainiana|Garcinia scortechinii|Garcinia smeathmanii|Garcinia smeathmannii|Garcinia speciosa|Garcinia spicata|Garcinia staudtii|Garcinia xanthochymus|Gardenia jasminoides|Genista corsica|Geranium macrorrhizum|Gerbera piloselloides|Globba racemosa|Glochidion puberum|Glochidion zeylanicum|Gloiopeltis furcata|Glycosmis ovoidea|Glycydendron amazonicum|Glycyrrhiza squamulosa|Gomortega keule|Gonepteryx rhamni|Goniothalamus thwaitesii|Gonzalezia decurrens|Graphis rikuzensis|Grewia mollis|Griffitharia lanata|Grindelia perennis|Guazuma ulmifolia|Guettarda eximia|Guilandina bonduc|Gymnadenia conopsea|Gymnaster koraiensis|Gymnocarpium robertianum|Gymnosporia diversifolia|Gynura japonica|Gypothamnium pinifolium|Gyrinops walla|Hakea amplexicaulis|Haploclathra leiantha|Haploclathra paniculata|Haplopappus foliosus|Haplopappus sonorensis|Haplopteris anguste-elongata|Harrisonia abyssinica|Harungana madagascariensis|Hedeoma pulegioides|Heliconius cydno|Heliotropium ellipticum|Heliotropium floridum|Heliotropium marifolium|Heracleum sphondylium|Heterocapsa triquetra|Heteroplexis microcephala|Heterotheca grandiflora|Hexabranchus sanguineus|Hibiscus furcatus|Hippocratea excelsa|Hippocratea volubilis|Hopea jucunda|Hovenia acerba|Hydnocarpus hainanensis|Hydrangea chinensis|Hypericum ascyron|Hypolaena fastigiata|Hyptis suaveolens|Ilex verticillata|Imperata cylindrica|Indigofera microcarpa|Inula Cappa|Inula cappa|Inula crithmoides|Inula multicaulis|Inula sp.|Ipomoea muelleri|Iris ensata|Iris pallida|Iryanthera juruensis|Isocoma coronopifolia|Isocoma pluriflora|Isocoma wrightii|Isolona campanulata|Ixora chinensis|Jaborosa caulescens|Jacobaea adonidifolia|Jacobaea minuta|Jasonia montana|Jatropha maheshwarii|Juglans nigra|Jungermannia obovata|Juniperus communis|Juniperus foetidissima|Juniperus horizontalis|Kadsura heteroclita|Kaempferia marginata|Kalanchoe Spathulata|Kalanchoe deficiens|Kalanchoe fedtschenkoi|Kalanchoe integra|Kalanchoe lanceolata|Kalanchoe marnieriana|Kalanchoe spathulata|Kaunia saltensis|Keiferia lycopersicella|Kelletia kelletii|Khaya grandifoliola|Kielmeyera elata|Kielmeyera lathrophyton|Kielmeyera pumila|Kleinia fulgens|Kleinia galpinii|Kleinia neriifolia|Kokoona zeylanica|Kokoona zeylanica Thwaites|Kummerowia striata|Lactarius pubescens|Lagerstroemia|Larix kaempferi|Larix kaempferi (Lamb.) Carr|Larix laricina|Laurencia gracilis|Lavandula dentata|Lecanora glaucoma|Lecanora sordida|Lechevalieria aerocolonigenes|Lecidea speirodes|Lendenfeldia frondosa|Lenzites sepiaria|Lepraria xanthina|Leptosyne bigelovii|Leucopaxillus gentianeus|Leucosyke quadrinervia|Liabum bourgeaui|Liatris punctata|Licaria armeniaca|Ligularia dolichobotrys|Ligularia przewalskii|Ligularia veitchiana|Linaria saxatilis|Liochlaena subulata|Liriodendron tulipifera|Liriope spicata|Litsea gracilipes|Litsea pungens|Lobophytum cristatum|Lolium cuneatum|Lonchocarpus urucu|Lophopetalum rigidum|Lumnitzera racemosa|Lupinus cosentinii|Luvunga sarmentosa|Luxemburgia nobilis|Lychnophora ericoides|Lychnophora rupestris|Lydenburgia cassinoides|Lyophyllum shimeji|Macaranga tanarius|Machilus zuihoensis|Maclura aurantiaca|Macrophomina phaseolina|Malacosoma americanum|Mallotus apelta|Mallotus macrostachyus|Mallotus pallidus|Mallotus philippensis|Mallotus philippinensis|Mallotus repandus|Mallotus sp.|Mammea africana|Mammea americana|Mammillaria magnimamma|Mandragora officinarum|Mangifera indica|Mangifera persiciformis|Mascarenhasia arborescens|Matricaria parthenium|Maytenus apurimacensis|Maytenus aquifolium|Maytenus canariensis|Maytenus cuzcoina|Maytenus horrida|Maytenus macrocarpa|Maytenus salicifolia|Meconopsis horridula|Meconopsis napaulensis|Meliosma lanceolata|Merremia umbellata|Meryta denhamii|Mesua beccariana|Mesua ferrea|Metarhizium indigoticum|Methylobacterium extorquens|Miconia myriantha|Micranthemum umbrosum|Micrococcus luteus|Microcystis viridis|Micromelum minutum|Micromonas pusilla|Microtropis triflora|Mikania glomerata|Mikania triangularis|Millettia conraui|Millettia pinnata|Mimosa invisa|Mimosa rubicaulis|Mitragyna hirsuta|Mnium hornum|Modiolus demissus|Monanchora pulchra|Monascus purpureus|Monilinia fructigena|Monosis parishii|Monteverdia aquifolium|Monteverdia horrida|Monteverdia ilioppjfeowneviufheiuwfew fgr|Monteverdia macrocarpa|Monteverdia rigida|Monteverdia robusta|Monteverdia truncata|Montipora mollis|Morella rubra|Morinda citrifolia|Mortonia diffusa|Morus alba|Mucuna membranacea|Munronia delavayi|Murraya euchrestifolia|Myrianthus serratus|Myrica cerifera|Myrica rubra|Myristica argentea|Myrtus tomentosa|Naja kaouthia|Narcissus concolor|Nauclea officinalis|Nauclea pilosa|Neatostema apulum|Neolitsea dealbata|Neonectria candida|Nepeta eriostachya|Nephelium mutabile|Nicotiana repanda|Nipaecoccus aurilanatus|Notholirion bulbuliferum|Nuphar lutea|Nyctanthes Arbor|Nyctanthes arbor-tristis|Nyctanthes arbor-tristis Linn.|Oenothera x erythrosepala|Olearia paniculata|Oncoba echinata|Onoseris lopezii|Ophiolepis superba|Ophiorrhiza japonica|Ophiorrhiza liukiuensis|Oreocnide frutescens|Oreoseris gossypina|Orixa japonica|Ormosia flava|Ormosia panamensis|Oscillatoria princeps|Osmerus mordax|Ouratea castaneifolia|Ouratea semiserrata|Oxera splendida|Ozoroa insignis|Pachybasium candidum|Pachysandra terminalis|Palafoxia rosea|Panax arboreus|Papaver macrostomum|Papilio phorcas|Parabenzoin trilobum|Parahancornia amara|Paramyrothecium roridum|Parasenecio pilgerianus|Parastrephia lepidophylla|Passalora fulva|Pedicularis condensata|Pedicularis densispica|Pedicularis pectinata|Peltophorum dubium|Penianthus zenkeri|Penicillium crustaceum|Penicillium kapuscinskii|Penicillium solitum|Penstemon richardsonii|Penstemon secundiflorus|Pentaceraster alveolatus|Pentaclethra eetveldeana|Pentaclethra macroloba|Pentzia calva|Peperomia heyneana|Perenniporia ochroleuca|Peritassa campestris|Peritassa compta|Peritassa laevigata|Perityle vaseyi|Perna viridis|Perymenium hintonii|Petasites georgicus|Peucedanum longifolium|Phaleria cumingii|Phedimus kamtschaticus|Phellinus tuberculosus|Phellodendron japonicum MAXIM|Phlegmariurus fordii|Phlogacanthus thyrsiflorus|Phoebe formosana|Phoenix loureiroi|Pholiota squarrosa|Phormia regina|Phormidium sp|Photinia lucida|Phyllanthus Reticulatus|Phyllanthus flexuosus|Phyllanthus puberus|Phyllanthus reticulatus|Phyllanthus sp.|Phyllanthus urinaria|Phyllanthus watsonii|Phyllostachys edulis|Phytolacca acinosa|Picea breweriana|Picea mariana|Picris hieracioides|Pimelobacter simplex|Pinna nobilis|Pinus longifolia|Pinus luchuensis|Piper arboreum|Piper nepalense|Piper schmidtii|Piper umbellatum|Piranhea mexicana|Pistacia mexicana|Pittocaulon velatum|Plantago alpina|Plazia daphnoides|Plectocephalus chilensis|Plectranthus ornatus|Plenckia populnea|Pleuranthodium racemigerum|Pleurostylia opposita|Plicanthus hirtellus|Pluchea sericea|Plumbago pulchella|Plumeria alba|Poa sphondylodes|Podostictina degelii|Pogostemon cablin|Polemonium caeruleum|Polycephalomyces nipponicus|Polygala ruwenzoriensis|Polygonum bistorta|Polypodium hastatum|Polyporus ciliatus|Polyporus umbellatus|Pongamia pinnata|Populus grandidentata|Porella swartziana|Porophyllum riedelii|Portulaca oleracea|Poterium sanguisorba|Pourouma guianensis|Pourthiaea arguta|Pouzolzia occidentalis|Primula integrifolia|Pristimera indica|Protium crenatum|Prunus africana|Prunus japonica|Prunus pensylvanica|Pseudomonas viridiflava|Pseudophryne coriacea|Psorospermum aurantiacum|Psorospermum glaberrimum|Psorospermum laurentii|Psorospermum tenuifolium|Pteleopsis hylodendron|Pterogorgia bipinnata|Pulicaria wightiana|Punica granatum|Putranjiva roxburghii|Putranjiva sp.|Pygeum topengii|Pyrrosia sheareri|Pyrus lanata|Pyrus pashia|Pyrus ussuriensis|Pyrus x bretschneideri|Quercus canariensis|Quercus glauca|Quercus glauca Thunb.|Quercus mongolica|Quercus myrsenaefolia|Quercus myrsinaefolia|Quercus robur|Quercus salicina|Quercus sp.|Quercus stenophylla Makino.|Quercus suber|Quercus variabilis|Radermachera xylocarpa|Ramariopsis helvola|Randia longispina|Ranunculus sceleratus|Raputia simulans|Raukaua simplex|Raulinoa echinata|Reniera cratera|Renilla muelleri|Reticulitermes flavipes|Rheum webbianum|Rhizobium etli|Rhizosolenia setigera|Rhodobryum roseum|Rhodococcus jostii|Rhododendron aureum|Rhododendron barbatum|Rhododendron caucasicum|Rhododendron decipiens|Rhododendron ferrugineum|Rhododendron formosanum|Rhododendron luteum|Rhododendron schlippenbachii|Rhodomyrtus tomentosa|Rhus typhina|Roccella fucoides|Rohdea wattii|Rosa hybrid cultivar|Rubrivivax gelatinosus|Rugosa rugosa|Rumex conglomeratus|Ruscus aculeatus|Ruta microcarpa|Ruta pinnata|Ryparosa acuminata|Sabal peregrina|Sageretia thea|Sageretia theezans|Salacia|Salacia beddomei|Salacia campestris|Salacia chinensis|Salacia petenensis|Salacia verrucosa|Salix purpurea|Salix sachalinensis|Salvia coulteri|Salvia dorrii|Salvia fruticosa|Salvia infuscata|Salvia miltiorrhiza|Salvia parryi|Salvia triloba|Santiria trimera|Sarcodictyon roseum|Sarcotragus spinosulus|Sarocladium zeae|Satureja cuneifolia|Schistostephium rotundifolium|Schizaphis graminum|Sciadotenia toxifera|Scilla madeirensis|Scolopia spinosa|Scoparia dulcis|Selinum carvi|Selinum carvifolium|Senecio chinensis|Senecio cuneatus|Senecio desfontainei|Senecio flavus|Senecio fulgens|Senecio macrophyllus|Senna obtusifolia|Senna siamea|Sida cordifolia|Sidastrum acuminatum|Sideritis caesarea|Sideritis romana|Silene fortunei|Silene inflata|Sinoadina racemosa|Sinocrassula indica|Sinularia dura|Sinularia hirta|Siphonaria funiculata|Siphonodon australis|Smilax myosotiflora|Solanum chacoense|Solanum curtipes|Solanum sisymbriifolium|Solenopsis invicta|Solidago chinensis|Sophora angustifolia|Sophora secundiflora|Sorbus americana|Sorbus lanata|Sorbus tianschanica|Soulamea pancheri|Sphagneticola trilobata|Spodoptera littoralis|Stachys recta|Stenostomum acutatum|Stevia origanoides|Stevia polycephala|Stevia porphyrea|Stevia purpurea|Steyermarkina dispalata|Sticta mougeotiana|Streptomyces collinus|Streptomyces fradiae|Streptomyces kanamyceticus|Streptomyces longissimus|Streptomyces mobaraensis|Streptomyces parvisporogenes|Streptomyces rubellomurinus|Streptomyces toyocaensis|Streptomyces xanthochromogenes|Strombus gigas|Strychnos ledermannii|Suillus bovinus|Suregada lanceolata|Swartzia madagascariensis|Swertia corymbosa|Symphonia globulifera|Symphytum asperum|Syncarpia laurifolia|Syncolostemon parviflorus|Syzygium Cumini|Syzygium cumini|Syzygium formosanum|Syzygium grande|Syzygium jambos|Talipariti tiliaceum|Tanacetum albipannosum|Tanaecium jaroba|Terminalia alata|Terminalia glabrescens|Terminalia hylodendron|Terminalia sp.|Tetracera asiatica|Teucrium depressum|Teucrium leucocladum|Thalictrum longistylum|Thalictrum strictum|Thapsia transtagana|Thermopsis lanceolata|Thesium humile|Thryptomene kochii|Thuja plicata|Thunbergia grandiflora|Thymbra spicata|Thymus piperella|Tilia vulgaris|Tillandsia usneoides|Tolypocladium ophioglossoides|Tolypothrix tjipanasensis|Tovomita brasiliensis|Tovomita fructipendula|Toxicopueraria peduncularis|Tradescantia pallida|Triadica sebifera|Trichia carnea|Trichia floriformis|Trichilia claussenii|Trichilia hirta|Trichilia rubescens|Trididemnum solidum|Triglochin maritima|Trigonia nivea var. fasciculata|Tripetaleia paniculata|Tripetalum cymosum|Triplaris cumingiana|Tripterygium hypoglaucum|Tripterygium wilfordii|Triumfetta rhomboidea|Tsuga canadensis|Tuber melanosporum|Tulipa silvestris|Turpinia ternata|Turraeanthus mannii|Typha domingensis|Ulmus campestris|Ulmus davidiana|Ulmus pumila|Ulmus pumila L.|Uncaria lancifolia|Undaria pinnatifida|Urtica triangularis|Ustilago maydis|Vaccinium bracteatum|Valeriana cardamines|Valeriana hardwickii|Valeriana microphylla|Valeriana wolgensis|Vangueria infausta subsp. infausta|Vanillosmopsis sp.|Vellozia compacta|Verbena triphylla|Vernonanthura discolor|Vernonia auriculifera|Vernonia nitidula|Veronica chamaedrys|Vibrio anguillarum|Viburnum davidii|Viburnum nudum var. cassinoides|Viburnum rhytidophyllum|Viburnum urceolatum|Vicoa indica|Viguiera decurrens|Viguiera oblongifolia|Vincetoxicum hirundinaria|Virola calophylla|Virola elongata|Vismia japurensis|Vismia laurentii|Vismia martiana|Vismia micrantha|Vismia parviflora|Vitex Trifolia|Vitex agnus-castus|Vitex peduncularis|Vitex pinnata|Vitex trifolia|Volkameria inermis|Wedelia triloba|Werneria decora|Wolfiporia cocos|Xanthoparmelia subincerta|Xerosicyos danguyi|Xiphophora gladiata|Xylaria telfairii|Xylosma longifolia|Xyris pterygoblephara|Yucca flexilis|Zanthoxylum ailanthoides|Zanthoxylum monophyllum|Zanthoxylum schinifolium|Zanthoxylum syncarpum|Zelkova serrata|pomelo

>  <collections>  (432) 
ANPDB|Australian natural products|BIOFACQUIM|CMAUP (cCollective molecular activities of useful plants)|ChEBI NPs|ChemSpider NPs|KNApSaCK|Latin America dataset|NANPDB (Natural Products from Northern African Sources)|NPASS|NPEdia|NuBBEDB|Phyto4Health|PhytoLab phyproof® Reference Substances|Super Natural II|TCMDB-Taiwan (Traditional Chinese Medicine database)|TIPdb (database of Taiwan indigenous plants)|UEFS (Natural Products Databse of the UEFS)|VietHerb|WikiData Natural Products|ZINC NP

>  <dois>  (432) 
10.1002/(SICI)1099-1565(199811/12)9:6<263::AID-PCA415>3.0.CO;2-N|10.1002/1097-458X(200012)38:12<1023::AID-MRC771>3.0.CO;2-X|10.1002/1099-1565(200007/08)11:4<243::AID-PCA520>3.0.CO;2-Q|10.1002/1099-1565(200007/08)11:4<247::AID-PCA527>3.0.CO;2-U|10.1002/CBDV.200900198|10.1002/CHIN.198932308|10.1002/CHIN.200511228|10.1002/HLCA.200690004|10.1002/HLCA.200790013|10.1002/HLCA.200790031|10.1002/HLCA.200800252|10.1002/HLCA.200890088|10.1002/HLCA.201000301|10.1002/HLCA.201000313|10.1002/HLCA.201100282|10.1002/JCCS.198400042|10.1002/JCCS.199400028|10.1002/JCCS.199500016|10.1002/JCCS.199800035|10.1002/JCCS.199900029|10.1002/JCCS.200200068|10.1002/JCCS.200300178|10.1002/JCCS.200400211|10.1002/JLAC.198919890158|10.1002/JPS.2600601232|10.1002/MRC.1009|10.1002/MRC.1476|10.1002/MRC.1734|10.1002/MRC.1844|10.1002/MRC.1954|10.1002/PCA.656|10.1002/PTR.2650080411|10.1002/PTR.759|10.1002/RECL.19470660309|10.1007/978-3-642-71425-2_1|10.1007/BF00564024|10.1007/BF00564187|10.1007/BF00569023|10.1007/BF00980060|10.1007/BF01032020|10.1007/BF02975113|10.1007/BF03045796|10.1007/S00044-004-0041-7|10.1007/S10600-009-9229-X|10.1007/S10600-010-9459-Y|10.1007/S10600-010-9595-4|10.1007/S10600-010-9716-0|10.1007/S10600-010-9722-2|10.1007/S10600-010-9753-8|10.1007/S10600-011-0024-0|10.1007/S10600-011-9809-4|10.1007/S10600-014-1113-7|10.1007/S10600-020-02963-X|10.1007/SPRINGERREFERENCE_68205|10.1016/0001-706X(91)90013-A|10.1016/0031-9422(73)80397-8|10.1016/0031-9422(74)85147-2|10.1016/0031-9422(75)83047-0|10.1016/0031-9422(75)83058-5|10.1016/0031-9422(77)83025-2|10.1016/0031-9422(80)83019-6|10.1016/0031-9422(80)83076-7|10.1016/0031-9422(81)84067-8|10.1016/0031-9422(81)85101-1|10.1016/0031-9422(81)85164-3|10.1016/0031-9422(81)85243-0|10.1016/0031-9422(82)83043-4|10.1016/0031-9422(82)83183-X|10.1016/0031-9422(82)85252-7|10.1016/0031-9422(83)80055-7|10.1016/0031-9422(83)80100-9|10.1016/0031-9422(83)80164-2|10.1016/0031-9422(83)83027-1|10.1016/0031-9422(88)80141-9|10.1016/0031-9422(88)80696-4|10.1016/0031-9422(88)80772-6|10.1016/0031-9422(88)80782-9|10.1016/0031-9422(88)83135-2|10.1016/0031-9422(88)83136-4|10.1016/0031-9422(89)80047-0|10.1016/0031-9422(89)85032-0|10.1016/0031-9422(90)80135-4|10.1016/0031-9422(90)80218-6|10.1016/0031-9422(90)85063-L|10.1016/0031-9422(90)85226-6|10.1016/0031-9422(90)85302-V|10.1016/0031-9422(90)87131-D|10.1016/0031-9422(90)87137-J|10.1016/0031-9422(90)87138-K|10.1016/0031-9422(91)83035-J|10.1016/0031-9422(91)84157-N|10.1016/0031-9422(91)85270-A|10.1016/0031-9422(92)80125-X|10.1016/0031-9422(92)80296-Q|10.1016/0031-9422(92)80365-L|10.1016/0031-9422(92)83460-G|10.1016/0031-9422(92)83630-H|10.1016/0031-9422(92)83713-9|10.1016/0031-9422(92)90070-7|10.1016/0031-9422(93)85257-R|10.1016/0031-9422(93)85359-Y|10.1016/0031-9422(93)85462-Z|10.1016/0031-9422(94)00589-L|10.1016/0031-9422(94)00642-7|10.1016/0031-9422(94)00945-P|10.1016/0031-9422(95)00054-B|10.1016/0031-9422(95)00362-B|10.1016/0031-9422(95)00424-6|10.1016/0031-9422(95)00624-9|10.1016/0031-9422(95)00794-6|10.1016/0031-9422(95)00841-1|10.1016/0031-9422(95)00944-2|10.1016/0031-9422(96)00318-4|10.1016/0031-9422(96)00361-5|10.1016/0040-4020(68)88069-X|10.1016/0305-1978(92)90029-D|10.1016/0305-1978(95)00010-R|10.1016/0378-8741(84)90002-3|10.1016/J.BMC.2005.07.050|10.1016/J.BMC.2008.09.021|10.1016/J.BMC.2009.06.009|10.1016/J.BMCL.2010.01.096|10.1016/J.BSE.2005.08.004|10.1016/J.CBI.2009.12.012|10.1016/J.CCLET.2010.02.022|10.1016/J.CCLET.2010.09.022|10.1016/J.FITOTE.2003.12.006|10.1016/J.FITOTE.2005.06.002|10.1016/J.FITOTE.2007.02.002|10.1016/J.FITOTE.2009.12.002|10.1016/J.FITOTE.2010.02.005|10.1016/J.FITOTE.2010.05.008|10.1016/J.FITOTE.2011.06.007|10.1016/J.FITOTE.2019.104190|10.1016/J.JEP.2005.01.029|10.1016/J.JEP.2018.07.022|10.1016/J.PHYTOCHEM.2003.10.024|10.1016/J.PHYTOCHEM.2004.03.010|10.1016/J.PHYTOCHEM.2004.08.024|10.1016/J.PHYTOCHEM.2005.03.020|10.1016/J.PHYTOCHEM.2005.03.022|10.1016/J.PHYTOCHEM.2005.06.016|10.1016/J.PHYTOCHEM.2006.03.018|10.1016/J.PHYTOCHEM.2007.05.027|10.1016/J.PHYTOCHEM.2008.02.018|10.1016/J.PHYTOCHEM.2008.05.006|10.1016/J.PHYTOCHEM.2008.12.008|10.1016/J.PHYTOCHEM.2008.12.017|10.1016/J.PHYTOCHEM.2009.04.024|10.1016/J.PHYTOL.2010.07.003|10.1016/J.PHYTOL.2011.04.001|10.1016/J.PHYTOL.2011.04.008|10.1016/J.PHYTOL.2011.07.007|10.1016/J.TET.2008.05.054|10.1016/J.TET.2008.05.125|10.1016/J.TET.2009.03.026|10.1016/S0031-9422(00)00283-1|10.1016/S0031-9422(00)00285-5|10.1016/S0031-9422(00)00296-X|10.1016/S0031-9422(00)00346-0|10.1016/S0031-9422(00)80326-X|10.1016/S0031-9422(00)81245-5|10.1016/S0031-9422(00)81593-9|10.1016/S0031-9422(00)82228-1|10.1016/S0031-9422(00)82558-3|10.1016/S0031-9422(00)82574-1|10.1016/S0031-9422(00)83042-3|10.1016/S0031-9422(00)83068-X|10.1016/S0031-9422(00)83591-8|10.1016/S0031-9422(00)83763-2|10.1016/S0031-9422(00)83889-3|10.1016/S0031-9422(00)84107-2|10.1016/S0031-9422(00)84356-3|10.1016/S0031-9422(00)84521-5|10.1016/S0031-9422(00)84543-4|10.1016/S0031-9422(00)84574-4|10.1016/S0031-9422(00)84947-X|10.1016/S0031-9422(00)85494-1|10.1016/S0031-9422(00)85505-3|10.1016/S0031-9422(00)85510-7|10.1016/S0031-9422(00)85714-3|10.1016/S0031-9422(00)85837-9|10.1016/S0031-9422(00)88239-4|10.1016/S0031-9422(00)88243-6|10.1016/S0031-9422(00)88695-1|10.1016/S0031-9422(00)88875-5|10.1016/S0031-9422(00)89705-8|10.1016/S0031-9422(00)89857-X|10.1016/S0031-9422(00)90468-0|10.1016/S0031-9422(00)90483-7|10.1016/S0031-9422(00)94448-0|10.1016/S0031-9422(00)94842-8|10.1016/S0031-9422(00)95004-0|10.1016/S0031-9422(00)95100-8|10.1016/S0031-9422(00)97171-1|10.1016/S0031-9422(00)97297-2|10.1016/S0031-9422(00)97308-4|10.1016/S0031-9422(00)97421-1|10.1016/S0031-9422(00)97767-7|10.1016/S0031-9422(00)97886-5|10.1016/S0031-9422(00)98247-5|10.1016/S0031-9422(02)00156-5|10.1016/S0031-9422(02)00630-1|10.1016/S0031-9422(03)00371-6|10.1016/S0031-9422(03)00422-9|10.1016/S0031-9422(82)85073-5|10.1016/S0031-9422(96)00387-1|10.1016/S0031-9422(96)00714-5|10.1016/S0031-9422(96)00719-4|10.1016/S0031-9422(97)00493-7|10.1016/S0031-9422(97)00746-2|10.1016/S0031-9422(97)01011-X|10.1016/S0031-9422(97)01073-X|10.1016/S0031-9422(97)80031-3|10.1016/S0031-9422(98)00292-1|10.1016/S0031-9422(98)00302-1|10.1016/S0031-9422(98)00480-4|10.1016/S0031-9422(98)00565-2|10.1016/S0031-9422(98)00656-6|10.1016/S0031-9422(99)00057-6|10.1016/S0031-9422(99)00217-4|10.1016/S0031-9422(99)00412-4|10.1016/S0040-4020(00)00778-X|10.1016/S0040-4020(01)82592-8|10.1016/S0040-4039(01)97003-0|10.1016/S0040-4039(97)01032-0|10.1016/S0305-1978(02)00027-3|10.1016/S0305-1978(02)00041-8|10.1016/S0305-1978(97)00135-X|10.1016/S0305-1978(98)00004-0|10.1016/S0305-1978(98)00055-6|10.1016/S0305-1978(98)00070-2|10.1016/S0367-326X(00)00275-6|10.1016/S0367-326X(01)00267-2|10.1016/S0367-326X(01)00289-1|10.1016/S0367-326X(01)00327-6|10.1016/S0367-326X(01)00342-2|10.1016/S0367-326X(02)00011-4|10.1016/S0367-326X(99)00060-X|10.1016/S0367-326X(99)00086-6|10.1016/S0367-326X(99)00119-7|10.1016/S0367-326X(99)00125-2|10.1016/S0367-326X(99)00133-1|10.1016/S0378-8741(00)00237-3|10.1016/S0378-8741(01)00352-X|10.1016/S0378-8741(01)00414-7|10.1016/S0926-6690(01)00091-7|10.1016/S0968-0896(02)00072-X|10.1016/j.fitote.2009.12.002|10.1016/j.phytochem.2004.08.024|10.1021/JF00039A021|10.1021/JF00077A037|10.1021/JF1022115|10.1021/JF801103P|10.1021/NP000155K|10.1021/NP000321O|10.1021/NP0302394|10.1021/NP0303254|10.1021/NP0303254.S001|10.1021/NP0500272|10.1021/NP060217S|10.1021/NP060359M|10.1021/NP0700927|10.1021/NP400323U|10.1021/NP50001A004|10.1021/NP50008A001|10.1021/NP50024A014|10.1021/NP50025A012|10.1021/NP50035A039|10.1021/NP50040A043|10.1021/NP50046A034|10.1021/NP50050A045|10.1021/NP50055A026|10.1021/NP50058A027|10.1021/NP50068A032|10.1021/NP50086A007|10.1021/NP50087A022|10.1021/NP50088A005|10.1021/NP50089A010|10.1021/NP50090A007|10.1021/NP50099A017|10.1021/NP50105A012|10.1021/NP50108A017|10.1021/NP50121A022|10.1021/NP800001V|10.1021/NP800079C|10.1021/NP900213W|10.1021/NP970232K|10.1021/NP980313W|10.1021/NP980345J|10.1021/NP990232F|10.1038/SCIENTIFICAMERICAN12171881-383|10.1039/9781847555649-00238|10.1039/J39670002545|10.1039/JR9620004034|10.1039/P19830002459|10.1039/P19860000551|10.1039/jr9560002115|10.1055/S-0028-1088324|10.1055/S-0028-1097297|10.1055/S-0028-1097438|10.1055/S-0028-1097540|10.1055/S-0028-1099825|10.1055/S-2000-8598|10.1055/S-2002-32553|10.1055/S-2003-41120|10.1055/S-2003-43204|10.1055/S-2004-835858|10.1055/S-2006-951725|10.1055/S-2006-957524|10.1055/S-2006-957858|10.1055/S-2006-957923|10.1055/S-2006-959408|10.1055/S-2006-960066|10.1055/S-2006-961488|10.1055/S-2006-961497|10.1055/S-2006-961513|10.1055/S-2007-969478|10.1055/S-2007-969511|10.1055/S-2007-969792|10.1055/S-2007-969813|10.1055/S-2007-981529|10.1055/S-2008-1034347|10.1055/S-2008-1075273|10.1071/CH00066|10.1071/CH9640712|10.1071/CH9682583|10.1071/CH9831067|10.1071/CH9930739|10.1074/JBC.M109.098871|10.1078/0944-7113-00016|10.1078/0944-7113-00381|10.1080/10286020.2011.600248|10.1080/10286020008041369|10.1080/10575630008043783|10.1080/10575639408044043|10.1080/13880200590928753|10.1080/14786410310001605841|10.1080/14786410802362204|10.1080/14786410903368290|10.1080/14786410903387688|10.1080/14786419.2010.516749|10.1093/ACPROF:OSO/9780199662685.003.0001|10.1107/S0108270190007454|10.1135/CCCC19802710|10.1139/V10-168|10.1155/2017/7436259|10.1177/1934578X1000501117|10.1177/1934578X1701200337|10.1246/BCSJ.39.2532|10.1248/BPB.17.665|10.1248/BPB.27.141|10.1248/CPB.36.5004|10.1248/CPB.38.2130|10.1248/CPB.39.1043|10.1248/CPB.40.789|10.1248/CPB.41.1415|10.1248/CPB.43.1634|10.1248/CPB.46.1189|10.1248/CPB.46.1824|10.1248/CPB.47.890|10.1248/CPB.49.151|10.1248/CPB.50.590|10.1248/CPB.53.1194|10.1248/CPB.54.775|10.1248/CPB.55.1258|10.1248/CPB.55.1640|10.1248/CPB.55.464|10.1248/CPB.56.1321|10.1248/CPB.56.222|10.1248/CPB.56.374|10.1248/CPB.57.1119|10.1248/YAKUSHI1947.79.7_980|10.1248/YAKUSHI1947.85.6_553|10.1248/YAKUSHI1947.87.9_1153|10.1248/YAKUSHI1947.94.12_1634|10.1248/YAKUSHI1947.96.10_1202|10.1300/J044V03N02_06|10.1515/ZNB-2008-1113|10.1515/ZNB-2010-0414|10.1515/ZNB-2011-0610|10.1515/ZNC-1992-7-805|10.1515/ZNC-1995-5-617|10.1515/ZNC-2001-1-224|10.15625/0866-708X/55/2/8608|10.1590/S0102-695X2009000300006|10.1590/S0102-695X2009000600004|10.1590/S0102-695X2012005000010|10.1590/S0103-50531997000500011|10.1590/S0103-50531999000600017|10.1590/S0103-50532001000100016|10.1590/S0103-50532002000100020|10.1590/S0103-50532003000300011|10.1590/S0103-50532003000300021|10.1663/0013-0001(2003)057[0054:NIFHEA]2.0.CO;2|10.2174/157017811796064430|10.3109/13880208409070669|10.3109/13880209009082791|10.3390/MOLECULES15106733|10.3390/MOLECULES16053999|10.3390/MOLECULES16097249|10.3724/SP.J.1009.2008.00116|10.3923/IJP.2008.227.229|10.3987/COM-01-S(K)67|10.3987/COM-04-10221|10.3987/COM-99-8782|10.3998/ARK.5550190.0004.304|10.4268/CJCMM20110919|10.4268/CJCMM20111611|10.4268/CJCMM20132321|10.4268/CJCMM20141019|10.4268/CJCMM20141334|10.4268/CJCMM20150818|10.5455/JICE.20160124113632|10.5935/0103-5053.19910004

>  <synonyms>  (432) 
(-)-Friedelin|(4R,4aS,6aS,6aS,6bR,8aR,12aR,14aS,14bS)-4,4a,6a,6b,8a,11,11,14a-octamethyl-2,4,5,6,6a,7,8,9,10,12,12a,13,14,14b-tetradecahydro-1H-picen-3-one|(4R,4aS,6aS,6bR,8aR,12aR,12bS,14aS,14bS)-4,4a,6b,8a,11,11,12b,14a-octamethylicosahydropicen-3(2H)-one|24,25,26-TRINOROLEANAN-3-ONE, 5,9,13-TRIMETHYL-, (4.BETA.,5.BETA.,8.ALPHA.,9.BETA.,10.ALPHA.,13.ALPHA.,14.BETA.)-|24,25,26-Trinoroleanan-3-one, 5,9,13-trimethyl-,(4b,5b,8a,9b,10a,13a,14b)-|3(2H)-PICENONE, EICOSAHYDRO-4,4A,6B,8A,11,11,12B,14A-OCTAMETHYL-, (4R-(4.ALPHA.,4A.ALPHA.,6A.BETA.,6B.ALPHA.,8A.ALPHA.,12A.ALPHA.,12B.BETA.,14A.ALPHA.,14B.BETA.))-|3(2H)-Picenone, eicosahydro-4,4a,6b,8a,11,11,12b,14a-octamethyl-, (4R,4aS,6aS,6bR,8aR,12aR,12bS,14aS,14bS)-|3-OXOFRIEDELANE|559-74-0|AK21264UAD|AKOS015897124|BDBM50241943|C08626|CCG-208470|CHEBI:5171|CHEMBL485998|CS-0032118|D:A-Friedooleanan-3-one|D:A-Friedooleanan-3-one (VAN)|DTXSID101015732|EINECS 209-205-1|FRIEDELIN [MI]|Fridelin|Friedelan-3-one|Friedelanone|Friedelin, analytical standard|Friedelin, technical grade|Friedeline|HY-N4110|MFCD00017296|MS-27536|NS00043099|NSC 55141|NSC-55141|OFMXGFHWLZPCFL-SVRPQWSVSA-N|Q15410972|SCHEMBL193053|SR-05000002227|UNII-AK21264UAD|friedelanone|friedelin

>  <cas>  (432) 
559-74-0

$$$$

     RDKit          2D

 36 40  0  0  0  0  0  0  0  0999 V2000
    5.7382   -4.6612    0.0000 C   0  0  0  0  0  0  0  0  0  0  0  0
    5.8412   -3.1647    0.0000 O   0  0  0  0  0  0  0  0  0  0  0  0
    4.5968   -2.3273    0.0000 C   0  0  0  0  0  0  0  0  0  0  0  0
    3.2493   -2.9863    0.0000 O   0  0  0  0  0  0  0  0  0  0  0  0
    4.6998   -0.8308    0.0000 C   0  0  0  0  0  0  0  0  0  0  0  0
    6.1556   -1.1921    0.0000 C   0  0  0  0  0  0  0  0  0  0  0  0
    3.2082   -0.9892    0.0000 C   0  0  0  0  0  0  0  0  0  0  0  0
    2.3252    0.2233    0.0000 C   0  0  0  0  0  0  0  0  0  0  0  0
    0.8336    0.0649    0.0000 C   0  0  0  0  0  0  0  0  0  0  0  0
    1.7166   -1.1477    0.0000 C   0  0  0  0  0  0  0  0  0  0  0  0
    0.2249   -1.3061    0.0000 C   0  0  0  0  0  0  0  0  0  0  0  0
   -1.2667   -1.4645    0.0000 C   0  0  0  0  0  0  0  0  0  0  0  0
   -2.1497   -0.2519    0.0000 C   0  0  0  0  0  0  0  0  0  0  0  0
   -2.7583   -1.6229    0.0000 C   0  0  0  0  0  0  0  0  0  0  0  0
   -3.6413   -0.4103    0.0000 C   0  0  0  0  0  0  0  0  0  0  0  0
   -4.2499   -1.7813    0.0000 C   0  0  0  0  0  0  0  0  0  0  0  0
   -5.7415   -1.9397    0.0000 C   0  0  0  0  0  0  0  0  0  0  0  0
   -6.3501   -3.3107    0.0000 O   0  0  0  0  0  0  0  0  0  0  0  0
   -6.6245   -0.7272    0.0000 C   0  0  0  0  0  0  0  0  0  0  0  0
   -8.1161   -0.8856    0.0000 O   0  0  0  0  0  0  0  0  0  0  0  0
   -6.0159    0.6438    0.0000 C   0  0  0  0  0  0  0  0  0  0  0  0
   -6.8989    1.8564    0.0000 C   0  0  0  0  0  0  0  0  0  0  0  0
   -4.5243    0.8022    0.0000 C   0  0  0  0  0  0  0  0  0  0  0  0
   -3.9157    2.1732    0.0000 C   0  0  0  0  0  0  0  0  0  0  0  0
   -2.4240    2.3316    0.0000 C   0  0  0  0  0  0  0  0  0  0  0  0
   -1.5410    1.1191    0.0000 C   0  0  0  0  0  0  0  0  0  0  0  0
   -0.0494    1.2775    0.0000 C   0  0  0  0  0  0  0  0  0  0  0  0
   -0.9324    2.4900    0.0000 C   0  0  0  0  0  0  0  0  0  0  0  0
    0.5592    2.6485    0.0000 C   0  0  0  0  0  0  0  0  0  0  0  0
    2.0508    2.8069    0.0000 C   0  0  0  0  0  0  0  0  0  0  0  0
    2.9338    1.5943    0.0000 C   0  0  0  0  0  0  0  0  0  0  0  0
    3.3707    3.0292    0.0000 C   0  0  0  0  0  0  0  0  0  0  0  0
    4.4254    1.7527    0.0000 C   0  0  0  0  0  0  0  0  0  0  0  0
    4.1892    3.2340    0.0000 C   0  0  0  0  0  0  0  0  0  0  0  0
    5.7729    2.4117    0.0000 O   0  0  0  0  0  0  0  0  0  0  0  0
    5.3084    0.5402    0.0000 C   0  0  0  0  0  0  0  0  0  0  0  0
  1  2  1  0
  2  3  1  0
  3  4  2  0
  3  5  1  0
  5  6  1  6
  5  7  1  0
  8  7  1  1
  8  9  1  0
  9 10  1  1
  9 11  1  0
 11 12  1  0
 12 13  1  0
 13 14  1  6
 13 15  1  0
 15 16  2  0
 16 17  1  0
 17 18  2  0
 17 19  1  0
 19 20  1  0
 19 21  2  0
 21 22  1  0
 21 23  1  0
 23 24  2  0
 24 25  1  0
 25 26  2  0
 26 27  1  0
 27 28  1  6
 27 29  1  0
 29 30  1  0
 30 31  1  0
 31 32  1  6
 31 33  1  0
 33 34  1  1
 33 35  1  0
 33 36  1  0
 36  5  1  0
 31  8  1  0
 27  9  1  0
 26 13  1  0
 23 15  1  0
M  END
>  <identifier>  (433) 
CNP0080627.1

>  <canonical_smiles>  (433) 
COC(=O)[C@@]1(C)C[C@H]2[C@]3(C)CC[C@@]4(C)C5=CC(=O)C(O)=C(C)C5=CC=C4[C@@]3(C)CC[C@@]2(C)[C@](C)(O)C1

>  <standard_inchi>  (433) 
InChI=1S/C31H42O5/c1-18-19-9-10-22-27(3,20(19)15-21(32)24(18)33)11-12-29(5)23-16-26(2,25(34)36-8)17-31(7,35)30(23,6)14-13-28(22,29)4/h9-10,15,23,33,35H,11-14,16-17H2,1-8H3/t23-,26-,27-,28+,29-,30+,31+/m0/s1

>  <standard_inchi_key>  (433) 
MHNISCKQPOFKLG-IFUWMICHSA-N

>  <name>  (433) 
nan

>  <iupac_name>  (433) 
methyl (2~{S},4~{R},4~{a}~{R},6~{a}~{R},6~{a}~{S},14~{a}~{S},14~{b}~{S})-4,10-dihydroxy-2,4,4~{a},6~{a},6~{a},9,14~{a}-heptamethyl-11-oxo-3,5,6,13,14,14~{b}-hexahydro-1~{H}-picene-2-carboxylate

>  <annotation_level>  (433) 
5

>  <total_atom_count>  (433) 
78

>  <heavy_atom_count>  (433) 
36

>  <molecular_weight>  (433) 
494.67

>  <exact_molecular_weight>  (433) 
494.30322

>  <molecular_formula>  (433) 
C31H42O5

>  <alogp>  (433) 
6.15

>  <topological_polar_surface_area>  (433) 
83.83

>  <rotatable_bond_count>  (433) 
1

>  <hydrogen_bond_acceptors>  (433) 
5

>  <hydrogen_bond_donors>  (433) 
2

>  <hydrogen_bond_acceptors_lipinski>  (433) 
5

>  <hydrogen_bond_donors_lipinski>  (433) 
2

>  <lipinski_rule_of_five_violations>  (433) 
1

>  <aromatic_rings_count>  (433) 
0

>  <qed_drug_likeliness>  (433) 
0.43

>  <formal_charge>  (433) 
0

>  <fractioncsp3>  (433) 
0.68

>  <number_of_minimal_rings>  (433) 
5

>  <van_der_walls_volume>  (433) 
466.66

>  <contains_sugar>  (433) 
False

>  <contains_ring_sugars>  (433) 
False

>  <contains_linear_sugars>  (433) 
False

>  <murcko_framework>  (433) 
C=1C=C2C(C3=CCC=CC13)CCC4C2CCC5CCCCC54

>  <np_likeness>  (433) 
2.91

>  <chemical_class>  (433) 
Prenol lipids

>  <chemical_sub_class>  (433) 
Triterpenoids

>  <chemical_super_class>  (433) 
Lipids and lipid-like molecules

>  <direct_parent_classification>  (433) 
Triterpenoids

>  <np_classifier_pathway>  (433) 
Terpenoids

>  <np_classifier_superclass>  (433) 
Triterpenoids

>  <np_classifier_class>  (433) 
nan

>  <np_classifier_is_glycoside>  (433) 
False

>  <organisms>  (433) 
Cheiloclinium cognatum

>  <collections>  (433) 
ChemSpider NPs|Latin America dataset|NuBBEDB|Super Natural II|WikiData Natural Products|ZINC NP

>  <dois>  (433) 
10.1016/J.PHYTOCHEM.2004.03.039|10.1016/j.phytochem.2004.03.039

>  <synonyms>  (433) 
22\u221a\u00e9\u00ac\u2264-hydroxypristimerin

>  <cas>  (433) 
nan

$$$$

     RDKit          2D

 19 21  0  0  0  0  0  0  0  0999 V2000
   -1.5309   -3.1485    0.0000 C   0  0  0  0  0  0  0  0  0  0  0  0
   -0.2182   -2.4227    0.0000 O   0  0  0  0  0  0  0  0  0  0  0  0
   -0.1903   -0.9230    0.0000 C   0  0  0  0  0  0  0  0  0  0  0  0
    1.1224   -0.1973    0.0000 C   0  0  0  0  0  0  0  0  0  0  0  0
    2.4073   -0.9713    0.0000 O   0  0  0  0  0  0  0  0  0  0  0  0
    3.7201   -0.2455    0.0000 C   0  0  0  0  0  0  0  0  0  0  0  0
    5.2019   -0.0125    0.0000 C   0  0  0  0  0  0  0  0  0  0  0  0
    4.2068   -1.6644    0.0000 C   0  0  0  0  0  0  0  0  0  0  0  0
    3.7479    1.2542    0.0000 C   0  0  0  0  0  0  0  0  0  0  0  0
    2.4631    2.0282    0.0000 C   0  0  0  0  0  0  0  0  0  0  0  0
    1.1503    1.3025    0.0000 C   0  0  0  0  0  0  0  0  0  0  0  0
   -0.1346    2.0765    0.0000 C   0  0  0  0  0  0  0  0  0  0  0  0
   -1.4473    1.3508    0.0000 C   0  0  0  0  0  0  0  0  0  0  0  0
   -1.4752   -0.1490    0.0000 C   0  0  0  0  0  0  0  0  0  0  0  0
   -2.7879   -0.8747    0.0000 O   0  0  0  0  0  0  0  0  0  0  0  0
   -4.0728   -0.1007    0.0000 C   0  0  0  0  0  0  0  0  0  0  0  0
   -5.3856   -0.8264    0.0000 O   0  0  0  0  0  0  0  0  0  0  0  0
   -4.0449    1.3990    0.0000 C   0  0  0  0  0  0  0  0  0  0  0  0
   -2.7322    2.1248    0.0000 C   0  0  0  0  0  0  0  0  0  0  0  0
  1  2  1  0
  2  3  1  0
  3  4  2  0
  4  5  1  0
  5  6  1  0
  6  7  1  0
  6  8  1  0
  6  9  1  0
  9 10  2  0
 10 11  1  0
 11 12  2  0
 12 13  1  0
 13 14  2  0
 14 15  1  0
 15 16  1  0
 16 17  2  0
 16 18  1  0
 18 19  2  0
 14  3  1  0
 11  4  1  0
 19 13  1  0
M  END
>  <identifier>  (434) 
CNP0107704.0

>  <canonical_smiles>  (434) 
COC1=C2OC(C)(C)C=CC2=CC2=C1OC(=O)C=C2

>  <standard_inchi>  (434) 
InChI=1S/C15H14O4/c1-15(2)7-6-10-8-9-4-5-11(16)18-12(9)14(17-3)13(10)19-15/h4-8H,1-3H3

>  <standard_inchi_key>  (434) 
XYPWCJWXFYYGPA-UHFFFAOYSA-N

>  <name>  (434) 
Luvangetin

>  <iupac_name>  (434) 
10-methoxy-2,2-dimethyl-pyrano[3,2-g]chromen-8-one

>  <annotation_level>  (434) 
5

>  <total_atom_count>  (434) 
33

>  <heavy_atom_count>  (434) 
19

>  <molecular_weight>  (434) 
258.27

>  <exact_molecular_weight>  (434) 
258.08921

>  <molecular_formula>  (434) 
C15H14O4

>  <alogp>  (434) 
2.99

>  <topological_polar_surface_area>  (434) 
48.67

>  <rotatable_bond_count>  (434) 
1

>  <hydrogen_bond_acceptors>  (434) 
4

>  <hydrogen_bond_donors>  (434) 
0

>  <hydrogen_bond_acceptors_lipinski>  (434) 
4

>  <hydrogen_bond_donors_lipinski>  (434) 
0

>  <lipinski_rule_of_five_violations>  (434) 
0

>  <aromatic_rings_count>  (434) 
2

>  <qed_drug_likeliness>  (434) 
0.74

>  <formal_charge>  (434) 
0

>  <fractioncsp3>  (434) 
0.27

>  <number_of_minimal_rings>  (434) 
3

>  <van_der_walls_volume>  (434) 
227.98

>  <contains_sugar>  (434) 
False

>  <contains_ring_sugars>  (434) 
False

>  <contains_linear_sugars>  (434) 
False

>  <murcko_framework>  (434) 
O1c2cc3OCC=Cc3cc2C=CC1

>  <np_likeness>  (434) 
2.28

>  <chemical_class>  (434) 
Coumarins and derivatives

>  <chemical_sub_class>  (434) 
Pyranocoumarins

>  <chemical_super_class>  (434) 
Phenylpropanoids and polyketides

>  <direct_parent_classification>  (434) 
Linear pyranocoumarins

>  <np_classifier_pathway>  (434) 
Shikimates and Phenylpropanoids

>  <np_classifier_superclass>  (434) 
Coumarins

>  <np_classifier_class>  (434) 
Pyranocoumarins

>  <np_classifier_is_glycoside>  (434) 
False

>  <organisms>  (434) 
Atalantia racemosa|Boenninghausenia Albiflora|Boenninghausenia albiflora|Brosimum gaudichaudii|Brosimum parinarioides|Brosimum rubescens|Brosimum utile|Chloroxylon swietenia|Citrus funadoko|Geijera balansae|Hesperethusa crenulata|Limonia acidissima|Luvunga Scandens|Luvunga scandens|Pamburus missionis|Phebalium clavatum|Phebalium filifolium|Phebalium tuberculosum|Pilocarpus goudotianus|Toddalia asiatica|Trifoliate orange|Zanthoxylum ailanthoides|Zanthoxylum asiaticum|Zanthoxylum avicennae

>  <collections>  (434) 
AnalytiCon Discovery NPs|Australian natural products|CMAUP (cCollective molecular activities of useful plants)|ChEBI NPs|GNPS (Global Natural Products Social Molecular Networking)|KNApSaCK|Latin America dataset|NPASS|NPEdia|NuBBEDB|Super Natural II|TCMDB-Taiwan (Traditional Chinese Medicine database)|TCMID (Traditional Chinese Medicine Integrated Database)|TIPdb (database of Taiwan indigenous plants)|UNPD (Universal Natural Products Database)|VietHerb|WikiData Natural Products|ZINC NP

>  <dois>  (434) 
10.1016/0031-9422(88)80782-9|10.1016/0031-9422(92)83450-D|10.1016/J.BMC.2005.07.050|10.1016/S0031-9422(00)82233-5|10.1016/S0031-9422(00)86395-5|10.1016/S0031-9422(00)89841-6|10.1016/S0031-9422(00)90455-2|10.1021/JF00089A050|10.1021/NP0104469|10.1021/NP070594K|10.1021/NP50041A009|10.1021/np070594k|10.1021/np50085a003|10.1039/P19900001593|10.1055/S-0028-1084416|10.1055/S-0034-1368568|10.1055/S-2006-960965|10.1080/10575639908048490|10.1248/CPB.38.1230|10.1248/YAKUSHI1947.103.3_279|10.1590/S0103-50532002000200023

>  <synonyms>  (434) 
10-METHOXY-8,8-DIMETHYL-2H,8H-PYRANO[3,2-G]CHROMEN-2-ONE|10-Methoxy-8,8-dimethyl-2H,8H-benzo[1,2-b|10-Methoxy-8,8-dimethyl-2H,8H-benzo[1,2-b:5,4-b']dipyran-2-one|10-methoxy-2,2-dimethylpyrano[3,2-g]chromen-8-one|2H,8H-Benzo(1,2-b:5,4-b')dipyran-2-one, 10-methoxy-8,8-dimethyl-|483-92-1|AC1L7YNQ|AKOS040762006|C09273|CHEBI:6586|CHEMBL254379|CS-0143314|DTXSID60197485|E88907|FS-6868|HY-N8340|Luvangetin|NS00097408|NSC383464|Q27107252|SCHEMBL14511557|starbld0003698

>  <cas>  (434) 
483-92-1

$$$$

     RDKit          2D

 37 41  0  0  0  0  0  0  0  0999 V2000
    5.4458   -3.8422    0.0000 C   0  0  0  0  0  0  0  0  0  0  0  0
    4.0922   -3.1958    0.0000 O   0  0  0  0  0  0  0  0  0  0  0  0
    3.9752   -1.7004    0.0000 C   0  0  0  0  0  0  0  0  0  0  0  0
    5.1163   -0.7268    0.0000 O   0  0  0  0  0  0  0  0  0  0  0  0
    4.5429    0.6593    0.0000 C   0  0  0  0  0  0  0  0  0  0  0  0
    5.3273    1.9379    0.0000 C   0  0  0  0  0  0  0  0  0  0  0  0
    4.6122    3.2565    0.0000 O   0  0  0  0  0  0  0  0  0  0  0  0
    6.8267    1.8980    0.0000 C   0  0  0  0  0  0  0  0  0  0  0  0
    6.7868    0.3985    0.0000 C   0  0  0  0  0  0  0  0  0  0  0  0
    6.8667    3.3974    0.0000 C   0  0  0  0  0  0  0  0  0  0  0  0
    8.3262    1.8580    0.0000 O   0  0  0  0  0  0  0  0  0  0  0  0
    9.0413    0.5394    0.0000 C   0  0  0  0  0  0  0  0  0  0  0  0
    3.0475    0.5424    0.0000 C   0  0  0  0  0  0  0  0  0  0  0  0
    2.6966   -0.9160    0.0000 C   0  0  0  0  0  0  0  0  0  0  0  0
    1.3105   -1.4894    0.0000 C   0  0  0  0  0  0  0  0  0  0  0  0
    0.9597   -2.9478    0.0000 C   0  0  0  0  0  0  0  0  0  0  0  0
   -0.5357   -3.0648    0.0000 C   0  0  0  0  0  0  0  0  0  0  0  0
   -1.1091   -1.6787    0.0000 C   0  0  0  0  0  0  0  0  0  0  0  0
   -2.1422   -2.7663    0.0000 C   0  0  0  0  0  0  0  0  0  0  0  0
   -2.5228   -1.1773    0.0000 C   0  0  0  0  0  0  0  0  0  0  0  0
   -3.6639   -2.1509    0.0000 C   0  0  0  0  0  0  0  0  0  0  0  0
   -5.0776   -1.6496    0.0000 C   0  0  0  0  0  0  0  0  0  0  0  0
   -5.3503   -0.1745    0.0000 C   0  0  0  0  0  0  0  0  0  0  0  0
   -6.7640    0.3268    0.0000 C   0  0  0  0  0  0  0  0  0  0  0  0
   -8.2640    0.3144    0.0000 C   0  0  0  0  0  0  0  0  0  0  0  0
   -7.0123   -1.1525    0.0000 C   0  0  0  0  0  0  0  0  0  0  0  0
   -7.0367    1.8018    0.0000 C   0  0  0  0  0  0  0  0  0  0  0  0
   -8.4504    2.3032    0.0000 O   0  0  0  0  0  0  0  0  0  0  0  0
   -5.8956    2.7755    0.0000 C   0  0  0  0  0  0  0  0  0  0  0  0
   -4.4819    2.2741    0.0000 C   0  0  0  0  0  0  0  0  0  0  0  0
   -4.2092    0.7991    0.0000 C   0  0  0  0  0  0  0  0  0  0  0  0
   -3.0682    1.7727    0.0000 C   0  0  0  0  0  0  0  0  0  0  0  0
   -2.7955    0.2977    0.0000 C   0  0  0  0  0  0  0  0  0  0  0  0
   -1.6544    1.2713    0.0000 C   0  0  0  0  0  0  0  0  0  0  0  0
   -0.2407    0.7700    0.0000 C   0  0  0  0  0  0  0  0  0  0  0  0
    0.0320   -0.7051    0.0000 C   0  0  0  0  0  0  0  0  0  0  0  0
    1.2685    0.1440    0.0000 C   0  0  0  0  0  0  0  0  0  0  0  0
  1  2  1  0
  3  2  1  6
  3  4  1  0
  4  5  1  0
  5  6  1  0
  6  7  1  6
  6  8  1  0
  8  9  1  0
  8 10  1  0
  8 11  1  0
 11 12  1  0
  5 13  1  6
 14 13  1  6
 14 15  1  0
 15 16  1  6
 16 17  1  0
 17 18  1  0
 18 19  1  1
 18 20  1  0
 20 21  2  0
 21 22  1  0
 23 22  1  1
 23 24  1  0
 24 25  1  0
 24 26  1  0
 24 27  1  0
 27 28  2  0
 27 29  1  0
 29 30  1  0
 30 31  1  0
 31 32  1  1
 31 33  1  0
 33 34  1  1
 34 35  1  0
 35 36  1  0
 36 37  1  6
 14  3  1  0
 36 15  1  0
 36 18  1  0
 33 20  1  0
 31 23  1  0
M  END
>  <identifier>  (435) 
CNP0196473.2

>  <canonical_smiles>  (435) 
CO[C@H]1O[C@@H]([C@H](O)C(C)(C)OC)C[C@H]1[C@@H]1CC[C@]2(C)C3=CC[C@H]4C(C)(C)C(=O)CC[C@]4(C)[C@H]3CC[C@@]12C

>  <standard_inchi>  (435) 
InChI=1S/C32H52O5/c1-28(2)24-11-10-22-21(30(24,5)15-14-25(28)33)13-17-31(6)20(12-16-32(22,31)7)19-18-23(37-27(19)35-8)26(34)29(3,4)36-9/h10,19-21,23-24,26-27,34H,11-18H2,1-9H3/t19-,20-,21-,23+,24-,26-,27-,30+,31-,32+/m0/s1

>  <standard_inchi_key>  (435) 
LEHCWPXGSDLCRO-GFYVDCOPSA-N

>  <name>  (435) 
21beta,25-Dimethylmelianodiol

>  <iupac_name>  (435) 
(5~{R},9~{R},10~{R},13~{S},14~{S},17~{S})-17-[(2~{S},3~{S},5~{R})-5-[(1~{S})-1-hydroxy-2-methoxy-2-methyl-propyl]-2-methoxy-tetrahydrofuran-3-yl]-4,4,10,13,14-pentamethyl-1,2,5,6,9,11,12,15,16,17-decahydrocyclopenta[a]phenanthren-3-one

>  <annotation_level>  (435) 
5

>  <total_atom_count>  (435) 
89

>  <heavy_atom_count>  (435) 
37

>  <molecular_weight>  (435) 
516.76

>  <exact_molecular_weight>  (435) 
516.38147

>  <molecular_formula>  (435) 
C32H52O5

>  <alogp>  (435) 
6.32

>  <topological_polar_surface_area>  (435) 
64.99

>  <rotatable_bond_count>  (435) 
5

>  <hydrogen_bond_acceptors>  (435) 
5

>  <hydrogen_bond_donors>  (435) 
1

>  <hydrogen_bond_acceptors_lipinski>  (435) 
5

>  <hydrogen_bond_donors_lipinski>  (435) 
1

>  <lipinski_rule_of_five_violations>  (435) 
2

>  <aromatic_rings_count>  (435) 
0

>  <qed_drug_likeliness>  (435) 
0.43

>  <formal_charge>  (435) 
0

>  <fractioncsp3>  (435) 
0.91

>  <number_of_minimal_rings>  (435) 
5

>  <van_der_walls_volume>  (435) 
nan

>  <contains_sugar>  (435) 
False

>  <contains_ring_sugars>  (435) 
False

>  <contains_linear_sugars>  (435) 
False

>  <murcko_framework>  (435) 
O1CCC(C1)C2CCC3C4=CCC5CCCCC5C4CCC32

>  <np_likeness>  (435) 
3.43

>  <chemical_class>  (435) 
Steroids and steroid derivatives

>  <chemical_sub_class>  (435) 
Bile acids, alcohols and derivatives

>  <chemical_super_class>  (435) 
Lipids and lipid-like molecules

>  <direct_parent_classification>  (435) 
Bile acids, alcohols and derivatives

>  <np_classifier_pathway>  (435) 
Terpenoids

>  <np_classifier_superclass>  (435) 
Triterpenoids

>  <np_classifier_class>  (435) 
Lanostane, Tirucallane and Euphane triterpenoids

>  <np_classifier_is_glycoside>  (435) 
True

>  <organisms>  (435) 
Raulinoa echinata

>  <collections>  (435) 
Latin America dataset|NPASS|NuBBEDB|WikiData Natural Products

>  <dois>  (435) 
10.1021/NP0103970|10.1021/np0103970

>  <synonyms>  (435) 
21\u221a\u00e9\u00ac\u226425-dimethylmelianodiol|CHEMBL452105

>  <cas>  (435) 
nan

$$$$

     RDKit          2D

 15 15  0  0  0  0  0  0  0  0999 V2000
   -4.4492   -0.4053    0.0000 C   0  0  0  0  0  0  0  0  0  0  0  0
   -3.2843   -1.3503    0.0000 O   0  0  0  0  0  0  0  0  0  0  0  0
   -1.8835   -0.8139    0.0000 C   0  0  0  0  0  0  0  0  0  0  0  0
   -1.6476    0.6674    0.0000 C   0  0  0  0  0  0  0  0  0  0  0  0
   -0.2468    1.2038    0.0000 C   0  0  0  0  0  0  0  0  0  0  0  0
   -0.0108    2.6851    0.0000 O   0  0  0  0  0  0  0  0  0  0  0  0
   -1.1758    3.6301    0.0000 C   0  0  0  0  0  0  0  0  0  0  0  0
    0.9182    0.2588    0.0000 C   0  0  0  0  0  0  0  0  0  0  0  0
    2.3190    0.7952    0.0000 C   0  0  0  0  0  0  0  0  0  0  0  0
    2.5549    2.2765    0.0000 O   0  0  0  0  0  0  0  0  0  0  0  0
    3.4839   -0.1498    0.0000 O   0  0  0  0  0  0  0  0  0  0  0  0
    0.6822   -1.2225    0.0000 C   0  0  0  0  0  0  0  0  0  0  0  0
    1.8472   -2.1675    0.0000 O   0  0  0  0  0  0  0  0  0  0  0  0
    1.6112   -3.6488    0.0000 C   0  0  0  0  0  0  0  0  0  0  0  0
   -0.7186   -1.7589    0.0000 C   0  0  0  0  0  0  0  0  0  0  0  0
  1  2  1  0
  2  3  1  0
  3  4  2  0
  4  5  1  0
  5  6  1  0
  6  7  1  0
  5  8  2  0
  8  9  1  0
  9 10  2  0
  9 11  1  0
  8 12  1  0
 12 13  1  0
 13 14  1  0
 12 15  2  0
 15  3  1  0
M  END
>  <identifier>  (436) 
CNP0288290.0

>  <canonical_smiles>  (436) 
COC1=CC(OC)=C(C(=O)O)C(OC)=C1

>  <standard_inchi>  (436) 
InChI=1S/C10H12O5/c1-13-6-4-7(14-2)9(10(11)12)8(5-6)15-3/h4-5H,1-3H3,(H,11,12)

>  <standard_inchi_key>  (436) 
JATAKEDDMQNPOQ-UHFFFAOYSA-N

>  <name>  (436) 
2,4,6-Trimethoxybenzoic acid

>  <iupac_name>  (436) 
2,4,6-trimethoxybenzoic acid

>  <annotation_level>  (436) 
5

>  <total_atom_count>  (436) 
27

>  <heavy_atom_count>  (436) 
15

>  <molecular_weight>  (436) 
212.2

>  <exact_molecular_weight>  (436) 
212.06847

>  <molecular_formula>  (436) 
C10H12O5

>  <alogp>  (436) 
1.41

>  <topological_polar_surface_area>  (436) 
64.99

>  <rotatable_bond_count>  (436) 
4

>  <hydrogen_bond_acceptors>  (436) 
4

>  <hydrogen_bond_donors>  (436) 
1

>  <hydrogen_bond_acceptors_lipinski>  (436) 
4

>  <hydrogen_bond_donors_lipinski>  (436) 
1

>  <lipinski_rule_of_five_violations>  (436) 
0

>  <aromatic_rings_count>  (436) 
1

>  <qed_drug_likeliness>  (436) 
0.82

>  <formal_charge>  (436) 
0

>  <fractioncsp3>  (436) 
0.30

>  <number_of_minimal_rings>  (436) 
1

>  <van_der_walls_volume>  (436) 
nan

>  <contains_sugar>  (436) 
False

>  <contains_ring_sugars>  (436) 
False

>  <contains_linear_sugars>  (436) 
False

>  <murcko_framework>  (436) 
c1ccccc1

>  <np_likeness>  (436) 
0.45

>  <chemical_class>  (436) 
Benzene and substituted derivatives

>  <chemical_sub_class>  (436) 
Benzoic acids and derivatives

>  <chemical_super_class>  (436) 
Benzenoids

>  <direct_parent_classification>  (436) 
P-methoxybenzoic acids and derivatives

>  <np_classifier_pathway>  (436) 
Shikimates and Phenylpropanoids

>  <np_classifier_superclass>  (436) 
Phenolic acids (C6-C1)

>  <np_classifier_class>  (436) 
Simple phenolic acids

>  <np_classifier_is_glycoside>  (436) 
False

>  <organisms>  (436) 
Siphoneugena densiflora|Vochysia thyrsoidea

>  <collections>  (436) 
Latin America dataset|NuBBEDB|Super Natural II|UNPD (Universal Natural Products Database)|WikiData Natural Products|ZINC NP

>  <dois>  (436) 
10.5935/0100-4042.20140049

>  <synonyms>  (436) 
246-trimethoxybenzoic acid|570-02-5|AKOS009148700|AS-32992|BLE7M46MUT|Benzoic acid, 2,4,6-trimethoxy-|CS-W021498|DB-019838|DTXSID1060348|EINECS 209-325-4|EN300-195697|MFCD00016497|NS00033628|SCHEMBL466144|SY017902|T2408|W-105493|phloroglucinol carboxylic acidrimethyl ether

>  <cas>  (436) 
570-02-5

$$$$

     RDKit          2D

 62 67  0  0  0  0  0  0  0  0999 V2000
   -3.5721    5.7461    0.0000 C   0  0  0  0  0  0  0  0  0  0  0  0
   -2.2987    4.9535    0.0000 C   0  0  0  0  0  0  0  0  0  0  0  0
   -1.0715    5.8160    0.0000 O   0  0  0  0  0  0  0  0  0  0  0  0
   -2.3484    3.4543    0.0000 O   0  0  0  0  0  0  0  0  0  0  0  0
   -1.0749    2.6617    0.0000 C   0  0  0  0  0  0  0  0  0  0  0  0
   -1.1246    1.1625    0.0000 C   0  0  0  0  0  0  0  0  0  0  0  0
   -2.4478    0.4560    0.0000 C   0  0  0  0  0  0  0  0  0  0  0  0
   -3.7213    1.2486    0.0000 O   0  0  0  0  0  0  0  0  0  0  0  0
   -5.0445    0.5421    0.0000 C   0  0  0  0  0  0  0  0  0  0  0  0
   -6.3179    1.3347    0.0000 C   0  0  0  0  0  0  0  0  0  0  0  0
   -5.0942   -0.9571    0.0000 O   0  0  0  0  0  0  0  0  0  0  0  0
   -2.4975   -1.0432    0.0000 C   0  0  0  0  0  0  0  0  0  0  0  0
   -3.8207   -1.7497    0.0000 O   0  0  0  0  0  0  0  0  0  0  0  0
   -3.8704   -3.2489    0.0000 C   0  0  0  0  0  0  0  0  0  0  0  0
   -2.5970   -4.0416    0.0000 O   0  0  0  0  0  0  0  0  0  0  0  0
   -5.1936   -3.9554    0.0000 C   0  0  0  0  0  0  0  0  0  0  0  0
   -5.2433   -5.4546    0.0000 C   0  0  0  0  0  0  0  0  0  0  0  0
   -6.5665   -6.1612    0.0000 C   0  0  0  0  0  0  0  0  0  0  0  0
   -7.8400   -5.3685    0.0000 C   0  0  0  0  0  0  0  0  0  0  0  0
   -7.7903   -3.8693    0.0000 N   0  0  0  0  0  0  0  0  0  0  0  0
   -6.4671   -3.1628    0.0000 C   0  0  0  0  0  0  0  0  0  0  0  0
   -1.2241   -1.8359    0.0000 C   0  0  0  0  0  0  0  0  0  0  0  0
   -1.1769   -0.3366    0.0000 C   0  0  0  0  0  0  0  0  0  0  0  0
   -2.3621    0.5828    0.0000 O   0  0  0  0  0  0  0  0  0  0  0  0
   -3.7509    0.0161    0.0000 C   0  0  0  0  0  0  0  0  0  0  0  0
   -5.1234    0.6214    0.0000 C   0  0  0  0  0  0  0  0  0  0  0  0
   -4.3081   -1.3766    0.0000 O   0  0  0  0  0  0  0  0  0  0  0  0
    0.2792    0.5793    0.0000 C   0  0  0  0  0  0  0  0  0  0  0  0
   -0.1004   -0.8718    0.0000 O   0  0  0  0  0  0  0  0  0  0  0  0
    0.1872   -2.3440    0.0000 C   0  0  0  0  0  0  0  0  0  0  0  0
   -1.1840   -2.9520    0.0000 C   0  0  0  0  0  0  0  0  0  0  0  0
    1.0851   -3.5456    0.0000 C   0  0  0  0  0  0  0  0  0  0  0  0
    2.4155   -4.2386    0.0000 O   0  0  0  0  0  0  0  0  0  0  0  0
    3.9147   -4.2858    0.0000 C   0  0  0  0  0  0  0  0  0  0  0  0
    4.2023   -5.7579    0.0000 O   0  0  0  0  0  0  0  0  0  0  0  0
    5.2860   -3.6778    0.0000 C   0  0  0  0  0  0  0  0  0  0  0  0
    5.7898   -5.0906    0.0000 C   0  0  0  0  0  0  0  0  0  0  0  0
    7.2653   -5.3607    0.0000 C   0  0  0  0  0  0  0  0  0  0  0  0
    8.2369   -4.2180    0.0000 C   0  0  0  0  0  0  0  0  0  0  0  0
    7.7331   -2.8051    0.0000 N   0  0  0  0  0  0  0  0  0  0  0  0
    6.2576   -2.5350    0.0000 C   0  0  0  0  0  0  0  0  0  0  0  0
    6.6372   -1.0838    0.0000 C   0  0  0  0  0  0  0  0  0  0  0  0
    8.1365   -1.1310    0.0000 C   0  0  0  0  0  0  0  0  0  0  0  0
    6.3496    0.3883    0.0000 C   0  0  0  0  0  0  0  0  0  0  0  0
    7.7208    0.9963    0.0000 C   0  0  0  0  0  0  0  0  0  0  0  0
    5.4517    1.5899    0.0000 C   0  0  0  0  0  0  0  0  0  0  0  0
    6.4234    2.7327    0.0000 O   0  0  0  0  0  0  0  0  0  0  0  0
    4.1214    2.2829    0.0000 O   0  0  0  0  0  0  0  0  0  0  0  0
    2.6221    2.3301    0.0000 C   0  0  0  0  0  0  0  0  0  0  0  0
    0.6370    3.0721    0.0000 C   0  0  0  0  0  0  0  0  0  0  0  0
    0.9666    4.5355    0.0000 O   0  0  0  0  0  0  0  0  0  0  0  0
    2.3986    4.9817    0.0000 C   0  0  0  0  0  0  0  0  0  0  0  0
    2.7282    6.4451    0.0000 C   0  0  0  0  0  0  0  0  0  0  0  0
    3.5012    3.9647    0.0000 O   0  0  0  0  0  0  0  0  0  0  0  0
   -0.7951    2.6258    0.0000 C   0  0  0  0  0  0  0  0  0  0  0  0
   -1.8976    3.6429    0.0000 O   0  0  0  0  0  0  0  0  0  0  0  0
   -1.5680    5.1063    0.0000 C   0  0  0  0  0  0  0  0  0  0  0  0
   -2.6706    6.1234    0.0000 C   0  0  0  0  0  0  0  0  0  0  0  0
   -0.0922    5.3747    0.0000 O   0  0  0  0  0  0  0  0  0  0  0  0
    1.2509    1.7221    0.0000 C   0  0  0  0  0  0  0  0  0  0  0  0
   -0.1679    2.2091    0.0000 C   0  0  0  0  0  0  0  0  0  0  0  0
    0.8252    3.1604    0.0000 O   0  0  0  0  0  0  0  0  0  0  0  0
  1  2  1  0
  2  3  2  0
  2  4  1  0
  4  5  1  0
  6  5  1  1
  6  7  1  0
  7  8  1  1
  8  9  1  0
  9 10  1  0
  9 11  2  0
  7 12  1  0
 12 13  1  6
 13 14  1  0
 14 15  2  0
 14 16  1  0
 16 17  2  0
 17 18  1  0
 18 19  2  0
 19 20  1  0
 20 21  2  0
 12 22  1  0
 22 23  1  0
 23 24  1  1
 24 25  1  0
 25 26  1  0
 25 27  2  0
 23 28  1  0
 28 29  1  6
 29 30  1  0
 30 31  1  6
 30 32  1  0
 32 33  1  0
 33 34  1  0
 34 35  2  0
 34 36  1  0
 36 37  2  0
 37 38  1  0
 38 39  2  0
 39 40  1  0
 40 41  2  0
 41 42  1  0
 42 43  1  0
 42 44  1  0
 44 45  1  0
 44 46  1  0
 46 47  2  0
 46 48  1  0
 49 48  1  6
 49 50  1  0
 50 51  1  1
 51 52  1  0
 52 53  1  0
 52 54  2  0
 50 55  1  0
 55 56  1  1
 56 57  1  0
 57 58  1  0
 57 59  2  0
 49 60  1  0
 60 61  1  6
 60 62  1  0
 28  6  1  0
 41 36  1  0
 55  6  1  0
 21 16  1  0
 22 30  1  6
 60 28  1  0
M  END
>  <identifier>  (437) 
CNP0343808.5

>  <canonical_smiles>  (437) 
CC(=O)OC[C@]12[C@H](OC(C)=O)[C@@H](OC(=O)C3=CC=CN=C3)[C@@H]3[C@@H](OC(C)=O)[C@@]14O[C@@]3(C)COC(=O)C1=CC=CN=C1C(C)C(C)C(=O)O[C@@H]([C@H](OC(C)=O)[C@@H]2OC(C)=O)[C@]4(C)O

>  <standard_inchi>  (437) 
InChI=1S/C42H48N2O18/c1-19-20(2)36(50)61-33-31(56-22(4)46)35(59-25(7)49)41(18-54-21(3)45)34(58-24(6)48)30(60-37(51)26-12-10-14-43-16-26)28-32(57-23(5)47)42(41,40(33,9)53)62-39(28,8)17-55-38(52)27-13-11-15-44-29(19)27/h10-16,19-20,28,30-35,53H,17-18H2,1-9H3/t19?,20?,28-,30+,31+,32-,33+,34-,35+,39+,40+,41-,42+/m1/s1

>  <standard_inchi_key>  (437) 
WYGMSWSZNDHDMQ-LXMBSEAXSA-N

>  <name>  (437) 
nan

>  <iupac_name>  (437) 
[(1~{S},3~{R},17~{S},18~{R},19~{R},20~{R},21~{S},22~{S},23~{R},24~{R},25~{S})-18,19,21,24-tetraacetoxy-20-(acetoxymethyl)-25-hydroxy-3,13,14,25-tetramethyl-6,15-dioxo-2,5,16-trioxa-11-azapentacyclo[15.7.1.0^{1,20}.0^{3,23}.0^{7,12}]pentacosa-7,9,11-trien-22-yl] pyridine-3-carboxylate

>  <annotation_level>  (437) 
4

>  <total_atom_count>  (437) 
110

>  <heavy_atom_count>  (437) 
62

>  <molecular_weight>  (437) 
868.84

>  <exact_molecular_weight>  (437) 
868.29021

>  <molecular_formula>  (437) 
C42H48N2O18

>  <alogp>  (437) 
1.72

>  <topological_polar_surface_area>  (437) 
265.64

>  <rotatable_bond_count>  (437) 
8

>  <hydrogen_bond_acceptors>  (437) 
20

>  <hydrogen_bond_donors>  (437) 
1

>  <hydrogen_bond_acceptors_lipinski>  (437) 
20

>  <hydrogen_bond_donors_lipinski>  (437) 
1

>  <lipinski_rule_of_five_violations>  (437) 
2

>  <aromatic_rings_count>  (437) 
2

>  <qed_drug_likeliness>  (437) 
0.29

>  <formal_charge>  (437) 
0

>  <fractioncsp3>  (437) 
0.57

>  <number_of_minimal_rings>  (437) 
6

>  <van_der_walls_volume>  (437) 
nan

>  <contains_sugar>  (437) 
False

>  <contains_ring_sugars>  (437) 
False

>  <contains_linear_sugars>  (437) 
False

>  <murcko_framework>  (437) 
n1cccc(c1)COC2CC3CCC4OCCCc5ncccc5COCC6OC3(C4)CC26

>  <np_likeness>  (437) 
1.65

>  <chemical_class>  (437) 
nan

>  <chemical_sub_class>  (437) 
Alkaloids and derivatives

>  <chemical_super_class>  (437) 
Alkaloids and derivatives

>  <direct_parent_classification>  (437) 
Alkaloids and derivatives

>  <np_classifier_pathway>  (437) 
Alkaloids

>  <np_classifier_superclass>  (437) 
Nicotinic acid alkaloids

>  <np_classifier_class>  (437) 
Agarofuran sesquiterpenoids

>  <np_classifier_is_glycoside>  (437) 
False

>  <organisms>  (437) 
Maytenus aquifolium|Monteverdia aquifolium

>  <collections>  (437) 
Latin America dataset|NuBBEDB|WikiData Natural Products

>  <dois>  (437) 
10.1016/S0031-9422(97)00824-8

>  <synonyms>  (437) 
Aquifoliunine E-IV

>  <cas>  (437) 
nan

$$$$

     RDKit          2D

 10 10  0  0  0  0  0  0  0  0999 V2000
   -0.6492   -2.4549    0.0000 C   0  0  0  0  0  0  0  0  0  0  0  0
    0.1568   -1.1898    0.0000 N   0  0  0  0  0  0  0  0  0  0  0  0
    1.6540   -1.0983    0.0000 C   0  0  0  0  0  0  0  0  0  0  0  0
    2.0296    0.3539    0.0000 C   0  0  0  0  0  0  0  0  0  0  0  0
    3.4252    0.9037    0.0000 O   0  0  0  0  0  0  0  0  0  0  0  0
    0.7645    1.1599    0.0000 C   0  0  0  0  0  0  0  0  0  0  0  0
   -0.3930    0.2058    0.0000 C   0  0  0  0  0  0  0  0  0  0  0  0
   -1.8452    0.5814    0.0000 C   0  0  0  0  0  0  0  0  0  0  0  0
   -2.8966   -0.4885    0.0000 O   0  0  0  0  0  0  0  0  0  0  0  0
   -2.2460    2.0268    0.0000 O   0  0  0  0  0  0  0  0  0  0  0  0
  1  2  1  0
  2  3  1  0
  3  4  1  0
  4  5  1  1
  4  6  1  0
  6  7  1  0
  7  8  1  6
  8  9  2  0
  8 10  1  0
  7  2  1  0
M  END
>  <identifier>  (438) 
CNP0410877.1

>  <canonical_smiles>  (438) 
CN1C[C@H](O)C[C@H]1C(=O)O

>  <standard_inchi>  (438) 
InChI=1S/C6H11NO3/c1-7-3-4(8)2-5(7)6(9)10/h4-5,8H,2-3H2,1H3,(H,9,10)/t4-,5+/m1/s1

>  <standard_inchi_key>  (438) 
FMIPNAUMSPFTHK-UHNVWZDZSA-N

>  <name>  (438) 
4252-82-8

>  <iupac_name>  (438) 
(2~{S},4~{R})-4-hydroxy-1-methyl-pyrrolidine-2-carboxylic acid

>  <annotation_level>  (438) 
5

>  <total_atom_count>  (438) 
21

>  <heavy_atom_count>  (438) 
10

>  <molecular_weight>  (438) 
145.16

>  <exact_molecular_weight>  (438) 
145.07389

>  <molecular_formula>  (438) 
C6H11NO3

>  <alogp>  (438) 
-0.86

>  <topological_polar_surface_area>  (438) 
60.77

>  <rotatable_bond_count>  (438) 
1

>  <hydrogen_bond_acceptors>  (438) 
3

>  <hydrogen_bond_donors>  (438) 
2

>  <hydrogen_bond_acceptors_lipinski>  (438) 
3

>  <hydrogen_bond_donors_lipinski>  (438) 
2

>  <lipinski_rule_of_five_violations>  (438) 
0

>  <aromatic_rings_count>  (438) 
0

>  <qed_drug_likeliness>  (438) 
0.50

>  <formal_charge>  (438) 
0

>  <fractioncsp3>  (438) 
0.83

>  <number_of_minimal_rings>  (438) 
1

>  <van_der_walls_volume>  (438) 
133.82

>  <contains_sugar>  (438) 
False

>  <contains_ring_sugars>  (438) 
False

>  <contains_linear_sugars>  (438) 
False

>  <murcko_framework>  (438) 
N1CCCC1

>  <np_likeness>  (438) 
0.55

>  <chemical_class>  (438) 
Carboxylic acids and derivatives

>  <chemical_sub_class>  (438) 
Amino acids, peptides, and analogues

>  <chemical_super_class>  (438) 
Organic acids and derivatives

>  <direct_parent_classification>  (438) 
Proline and derivatives

>  <np_classifier_pathway>  (438) 
Alkaloids

>  <np_classifier_superclass>  (438) 
Small peptides

>  <np_classifier_class>  (438) 
Aminoacids

>  <np_classifier_is_glycoside>  (438) 
False

>  <organisms>  (438) 
Acalypha spiciflora|Acer spicatum|Acritopappus longifolius|Aglaia andamanica|Capsicum annuum|Cephalaria procera|Chondria coerulescens|Cissampelos pareira|Citrus paradisi|Cleidion Spiciflorum|Cleidion spiciflorum (Burm. f.) Merr.|Copaifera langsdorffii|Copaifera langsdorfii|Copaifera multijuga|Copaifera officinalis|Copaifera pubiflora|Copaifera venezuelana|Croton megalobotrys|Cytisus ciliatus|Diospyros maritima|Domohinea perrieri|Dracaena mannii|Helipterum propinquum|Ipomoea carnea|Limnodynastes interioris|Lobophytum denticulatum|Mannia fragrans|Melaleuca lanceolata|Mesua beccariana|Millettia pinnata|Nephthea armata|Onopordum illyricum|Parthenium bipinnatifidum|Phytolacca tetramera hauman|Pittosporum undulatum|Stephanitis rhododendri|Streptomyces luteosporeus|Tamarix aphylla|Tamarix jordanis|Tamarix meyeri|Tamarix nilotica|Tamarix parviflora|Tamarix ramossisima|Trichilia claussenii|Trichilia lepidota

>  <collections>  (438) 
Australian natural products|CMAUP (cCollective molecular activities of useful plants)|ChEBI NPs|KNApSaCK|Latin America dataset|NPASS|NuBBEDB|TIPdb (database of Taiwan indigenous plants)|VietHerb|WikiData Natural Products|ZINC NP

>  <dois>  (438) 
10.1016/0031-9422(95)00969-8|10.1016/J.PHYTOCHEM.2006.03.024|10.1016/J.TETLET.2010.11.040|10.1016/S0031-9422(00)80168-5|10.1016/S0031-9422(00)82482-6|10.1016/S0031-9422(00)82501-7|10.1016/s0031-9422(00)82501-7|10.1021/JF0341722|10.1021/JF035003K|10.1021/jf0341722|10.1039/CT9191500923|10.1055/S-2000-9901|10.1271/BBB.60482|10.1590/S0103-50532002000300014|10.1590/s1516-93322004000200006

>  <synonyms>  (438) 
(2S, 4R)-1-methyl-4-hydroxy-2-pyrrolidinecarboxylic acid|(2S,4R)-4-hydroxy-1-methylpyrrolidine-2-carboxylic acid|(4R)-4-Hydroxy-1-methyl-L-proline|(R)-4-hydroxy-N-methylproline|4-Hydroxyhygric acid|AKOS006277616|CHEBI:134543|CS-0151198|D96820|DTXSID20472043|EN300-7002095|FMIPNAUMSPFTHK-UHNVWZDZSA-N|HY-W098556|L-Proline, 4-hydroxy-1-methyl-, trans-|MFCD01632078|N-Me-Hyp-OH|N-methyl-4-hydroxyproline|N-methyl-trans-4-hydroxy-L-proline|SCHEMBL589712|XH175859|trans-4-Hydroxy-N-methyl-L-proline|trans-N-Methyl-4-hydroxy-L-proline

>  <cas>  (438) 
4252-82-8

$$$$

     RDKit          2D

 23 25  0  0  0  0  0  0  0  0999 V2000
   -5.5354    2.0589    0.0000 C   0  0  0  0  0  0  0  0  0  0  0  0
   -5.0719    0.6324    0.0000 C   0  0  0  0  0  0  0  0  0  0  0  0
   -6.0755   -0.4824    0.0000 C   0  0  0  0  0  0  0  0  0  0  0  0
   -3.6046    0.3205    0.0000 C   0  0  0  0  0  0  0  0  0  0  0  0
   -2.6010    1.4353    0.0000 C   0  0  0  0  0  0  0  0  0  0  0  0
   -1.1337    1.1234    0.0000 C   0  0  0  0  0  0  0  0  0  0  0  0
   -0.6702   -0.3031    0.0000 C   0  0  0  0  0  0  0  0  0  0  0  0
   -1.6738   -1.4179    0.0000 C   0  0  0  0  0  0  0  0  0  0  0  0
   -3.1411   -1.1060    0.0000 C   0  0  0  0  0  0  0  0  0  0  0  0
   -4.1447   -2.2208    0.0000 O   0  0  0  0  0  0  0  0  0  0  0  0
    0.7971   -0.6150    0.0000 C   0  0  0  0  0  0  0  0  0  0  0  0
   -0.2066   -1.7297    0.0000 C   0  0  0  0  0  0  0  0  0  0  0  0
    1.2606   -2.0416    0.0000 C   0  0  0  0  0  0  0  0  0  0  0  0
    2.7278   -2.3534    0.0000 C   0  0  0  0  0  0  0  0  0  0  0  0
    3.7315   -1.2387    0.0000 C   0  0  0  0  0  0  0  0  0  0  0  0
    3.2680    0.1879    0.0000 C   0  0  0  0  0  0  0  0  0  0  0  0
    3.3203    1.6870    0.0000 C   0  0  0  0  0  0  0  0  0  0  0  0
    4.7534    0.3967    0.0000 C   0  0  0  0  0  0  0  0  0  0  0  0
    5.3152    1.7875    0.0000 O   0  0  0  0  0  0  0  0  0  0  0  0
    5.6769   -0.7853    0.0000 O   0  0  0  0  0  0  0  0  0  0  0  0
    1.8007    0.4998    0.0000 C   0  0  0  0  0  0  0  0  0  0  0  0
    1.3372    1.9263    0.0000 C   0  0  0  0  0  0  0  0  0  0  0  0
   -0.1301    2.2382    0.0000 C   0  0  0  0  0  0  0  0  0  0  0  0
  1  2  1  0
  2  3  1  0
  2  4  1  0
  4  5  2  0
  5  6  1  0
  6  7  2  0
  7  8  1  0
  8  9  2  0
  9 10  1  0
  7 11  1  0
 11 12  1  1
 11 13  1  0
 13 14  1  0
 14 15  1  0
 15 16  1  0
 16 17  1  1
 16 18  1  0
 18 19  2  0
 18 20  1  0
 16 21  1  0
 21 22  1  1
 22 23  1  0
  9  4  1  0
 21 11  1  0
 23  6  1  0
M  END
>  <identifier>  (439) 
CNP0116886.2

>  <canonical_smiles>  (439) 
CC(C)C1=CC2=C(C=C1O)[C@@]1(C)CCC[C@@](C)(C(=O)O)[C@@H]1CC2

>  <standard_inchi>  (439) 
InChI=1S/C20H28O3/c1-12(2)14-10-13-6-7-17-19(3,15(13)11-16(14)21)8-5-9-20(17,4)18(22)23/h10-12,17,21H,5-9H2,1-4H3,(H,22,23)/t17-,19-,20-/m1/s1

>  <standard_inchi_key>  (439) 
AYDJDNNMKHXZOQ-MISYRCLQSA-N

>  <name>  (439) 
12-Hydroxydehydroabietic Acid

>  <iupac_name>  (439) 
(1~{R},4~{a}~{S},10~{a}~{R})-6-hydroxy-7-isopropyl-1,4~{a}-dimethyl-2,3,4,9,10,10~{a}-hexahydrophenanthrene-1-carboxylic acid

>  <annotation_level>  (439) 
5

>  <total_atom_count>  (439) 
51

>  <heavy_atom_count>  (439) 
23

>  <molecular_weight>  (439) 
316.44

>  <exact_molecular_weight>  (439) 
316.20384

>  <molecular_formula>  (439) 
C20H28O3

>  <alogp>  (439) 
4.61

>  <topological_polar_surface_area>  (439) 
57.53

>  <rotatable_bond_count>  (439) 
2

>  <hydrogen_bond_acceptors>  (439) 
2

>  <hydrogen_bond_donors>  (439) 
2

>  <hydrogen_bond_acceptors_lipinski>  (439) 
2

>  <hydrogen_bond_donors_lipinski>  (439) 
2

>  <lipinski_rule_of_five_violations>  (439) 
0

>  <aromatic_rings_count>  (439) 
1

>  <qed_drug_likeliness>  (439) 
0.84

>  <formal_charge>  (439) 
0

>  <fractioncsp3>  (439) 
0.65

>  <number_of_minimal_rings>  (439) 
3

>  <van_der_walls_volume>  (439) 
308.86

>  <contains_sugar>  (439) 
False

>  <contains_ring_sugars>  (439) 
False

>  <contains_linear_sugars>  (439) 
False

>  <murcko_framework>  (439) 
c1ccc2c(c1)CCC3CCCCC23

>  <np_likeness>  (439) 
2.33

>  <chemical_class>  (439) 
Prenol lipids

>  <chemical_sub_class>  (439) 
Diterpenoids

>  <chemical_super_class>  (439) 
Lipids and lipid-like molecules

>  <direct_parent_classification>  (439) 
Diterpenoids

>  <np_classifier_pathway>  (439) 
Terpenoids

>  <np_classifier_superclass>  (439) 
Diterpenoids

>  <np_classifier_class>  (439) 
Podocarpane diterpenoids

>  <np_classifier_is_glycoside>  (439) 
False

>  <organisms>  (439) 
Abies georgei|Alcea rosea|Alcyonium utinomii|Aldisa sanguinea|Alpinia blepharocalyx|Anguilla japonica|Aonidiella aurantii|Aplysina archeri|Araiostegiella perdurans|Asparagus racemosus|Aspergillus carneus|Aspergillus striatus|Balanops australiana|Brucea antidysenterica|Cortinarius odoratus|Corynebacterium glutamicum|Eleutherobia albiflora|Eucalyptus jenseni|Euonymus tingens|Euphorbia cornigera|Gymnopus confluens|Hylocomium splendens|Kokoona reflexa|Macrolepiota neomastoidea|Maesa ramentacea|Melolontha melolontha|Millettia laurentii|Monodora tenuifolia|Nototodarus sloanii|Ocimum tenuiflorum|Ougeinia dalbergioides|Penicillium janczewskii|Phagnalon atlanticum|Picea glehni|Picea jezoensis var. jezoensis|Pinus strobus|Pinus sylvestris|Pinus yunnanensis|Pluchea odorata|Podocarpus lambereis|Pseudoplexaura flagellosa|Salacia lehmbachii|Salvia yosgadensis|Sideritis brevibracteata|Sideroxylon cubense|Squamopappus skutchii|Viguiera decurrens|picea glehni

>  <collections>  (439) 
CMAUP (cCollective molecular activities of useful plants)|KNApSaCK|Latin America dataset|NPASS|NuBBEDB|Phyto4Health|Super Natural II|WikiData Natural Products

>  <dois>  (439) 
10.1002/HLCA.200900238|10.1007/BF00574204|10.1016/0031-9422(75)85047-3|10.1016/j.bmc.2009.07.016|10.1016/j.bmc.2009.11.055|10.1021/np0000217

>  <synonyms>  (439) 
12-Hydroxydehydroabietic acid|CHEMBL523920|dihydroabietic acid

>  <cas>  (439) 
nan

$$$$

     RDKit          2D

 32 36  0  0  0  0  0  0  0  0999 V2000
   -8.2441   -0.6686    0.0000 C   0  0  0  0  0  0  0  0  0  0  0  0
   -7.2036   -1.7490    0.0000 C   0  0  0  0  0  0  0  0  0  0  0  0
   -7.6189   -3.1903    0.0000 C   0  0  0  0  0  0  0  0  0  0  0  0
   -9.0748   -3.5513    0.0000 O   0  0  0  0  0  0  0  0  0  0  0  0
   -5.7476   -1.3880    0.0000 C   0  0  0  0  0  0  0  0  0  0  0  0
   -5.3323    0.0534    0.0000 C   0  0  0  0  0  0  0  0  0  0  0  0
   -3.8764    0.4144    0.0000 C   0  0  0  0  0  0  0  0  0  0  0  0
   -3.4610    1.8557    0.0000 C   0  0  0  0  0  0  0  0  0  0  0  0
   -4.5016    2.9361    0.0000 C   0  0  0  0  0  0  0  0  0  0  0  0
   -2.0051    2.2167    0.0000 C   0  0  0  0  0  0  0  0  0  0  0  0
   -1.4414    3.6067    0.0000 C   0  0  0  0  0  0  0  0  0  0  0  0
    0.0548    3.5001    0.0000 C   0  0  0  0  0  0  0  0  0  0  0  0
    0.4158    2.0442    0.0000 C   0  0  0  0  0  0  0  0  0  0  0  0
    1.5990    2.9662    0.0000 C   0  0  0  0  0  0  0  0  0  0  0  0
    1.7393    1.3383    0.0000 C   0  0  0  0  0  0  0  0  0  0  0  0
    3.0124    2.1315    0.0000 C   0  0  0  0  0  0  0  0  0  0  0  0
    4.3359    1.4256    0.0000 C   0  0  0  0  0  0  0  0  0  0  0  0
    4.3863   -0.0736    0.0000 C   0  0  0  0  0  0  0  0  0  0  0  0
    5.7098   -0.7795    0.0000 C   0  0  0  0  0  0  0  0  0  0  0  0
    7.1949   -0.9902    0.0000 C   0  0  0  0  0  0  0  0  0  0  0  0
    6.1752    0.6464    0.0000 C   0  0  0  0  0  0  0  0  0  0  0  0
    5.7602   -2.2787    0.0000 C   0  0  0  0  0  0  0  0  0  0  0  0
    7.0837   -2.9846    0.0000 O   0  0  0  0  0  0  0  0  0  0  0  0
    4.4871   -3.0719    0.0000 C   0  0  0  0  0  0  0  0  0  0  0  0
    3.1636   -2.3660    0.0000 C   0  0  0  0  0  0  0  0  0  0  0  0
    3.1132   -0.8668    0.0000 C   0  0  0  0  0  0  0  0  0  0  0  0
    1.8401   -1.6600    0.0000 C   0  0  0  0  0  0  0  0  0  0  0  0
    1.7897   -0.1609    0.0000 C   0  0  0  0  0  0  0  0  0  0  0  0
    0.5166   -0.9541    0.0000 C   0  0  0  0  0  0  0  0  0  0  0  0
   -0.8069   -0.2481    0.0000 C   0  0  0  0  0  0  0  0  0  0  0  0
   -0.8573    1.2510    0.0000 C   0  0  0  0  0  0  0  0  0  0  0  0
   -2.2064    0.5952    0.0000 C   0  0  0  0  0  0  0  0  0  0  0  0
  1  2  1  0
  2  3  1  0
  3  4  2  0
  2  5  2  0
  5  6  1  0
  6  7  1  0
  7  8  1  0
  8  9  1  1
  8 10  1  0
 10 11  1  1
 11 12  1  0
 12 13  1  0
 13 14  1  6
 13 15  1  0
 15 16  1  6
 16 17  1  0
 18 17  1  1
 18 19  1  0
 19 20  1  0
 19 21  1  0
 19 22  1  0
 22 23  1  6
 22 24  1  0
 24 25  1  0
 26 25  1  6
 26 27  1  0
 28 27  1  1
 28 29  1  0
 29 30  1  0
 30 31  1  0
 31 32  1  1
 31 10  1  0
 31 13  1  0
 28 15  1  0
 26 18  1  0
 28 26  1  0
M  END
>  <identifier>  (440) 
CNP0232191.3

>  <canonical_smiles>  (440) 
C/C(C=O)=C\CC[C@@H](C)[C@H]1CC[C@@]2(C)[C@@H]3CC[C@H]4C(C)(C)[C@H](O)CC[C@@]45C[C@@]35CC[C@]12C

>  <standard_inchi>  (440) 
InChI=1S/C30H48O2/c1-20(18-31)8-7-9-21(2)22-12-14-28(6)24-11-10-23-26(3,4)25(32)13-15-29(23)19-30(24,29)17-16-27(22,28)5/h8,18,21-25,32H,7,9-17,19H2,1-6H3/b20-8+/t21-,22-,23+,24+,25-,27-,28+,29-,30+/m1/s1

>  <standard_inchi_key>  (440) 
WQGJXPXTLGQILL-XUTGVEKDSA-N

>  <name>  (440) 
nan

>  <iupac_name>  (440) 
(~{E},6~{R})-6-[(1~{S},3~{R},6~{R},8~{R},11~{S},12~{S},15~{R},16~{R})-6-hydroxy-7,7,12,16-tetramethyl-15-pentacyclo[9.7.0.0^{1,3}.0^{3,8}.0^{12,16}]octadecanyl]-2-methyl-hept-2-enal

>  <annotation_level>  (440) 
4

>  <total_atom_count>  (440) 
80

>  <heavy_atom_count>  (440) 
32

>  <molecular_weight>  (440) 
440.71

>  <exact_molecular_weight>  (440) 
440.36543

>  <molecular_formula>  (440) 
C30H48O2

>  <alogp>  (440) 
7.35

>  <topological_polar_surface_area>  (440) 
37.30

>  <rotatable_bond_count>  (440) 
5

>  <hydrogen_bond_acceptors>  (440) 
2

>  <hydrogen_bond_donors>  (440) 
1

>  <hydrogen_bond_acceptors_lipinski>  (440) 
2

>  <hydrogen_bond_donors_lipinski>  (440) 
1

>  <lipinski_rule_of_five_violations>  (440) 
1

>  <aromatic_rings_count>  (440) 
0

>  <qed_drug_likeliness>  (440) 
0.36

>  <formal_charge>  (440) 
0

>  <fractioncsp3>  (440) 
0.90

>  <number_of_minimal_rings>  (440) 
5

>  <van_der_walls_volume>  (440) 
nan

>  <contains_sugar>  (440) 
False

>  <contains_ring_sugars>  (440) 
False

>  <contains_linear_sugars>  (440) 
False

>  <murcko_framework>  (440) 
C1CCC23CC43CCC5CCCC5C4CCC2C1

>  <np_likeness>  (440) 
3.39

>  <chemical_class>  (440) 
Steroids and steroid derivatives

>  <chemical_sub_class>  (440) 
Cycloartanols and derivatives

>  <chemical_super_class>  (440) 
Lipids and lipid-like molecules

>  <direct_parent_classification>  (440) 
Cycloartanols and derivatives

>  <np_classifier_pathway>  (440) 
Terpenoids

>  <np_classifier_superclass>  (440) 
Triterpenoids

>  <np_classifier_class>  (440) 
Cycloartane triterpenoids

>  <np_classifier_is_glycoside>  (440) 
False

>  <organisms>  (440) 
Myrsinaceae|Rapanea guyanensis

>  <collections>  (440) 
Latin America dataset|NuBBEDB|Super Natural II|WikiData Natural Products

>  <dois>  (440) 
10.1016/0031-9422(92)80271-F

>  <synonyms>  (440) 
24(E)-3\u221a\u00e9\u00ac\u00b1-Hydroxycycloart-24-en-26-al

>  <cas>  (440) 
nan

$$$$

     RDKit          2D

 37 41  0  0  0  0  0  0  0  0999 V2000
    9.9821   -3.4314    0.0000 C   0  0  0  0  0  0  0  0  0  0  0  0
    8.4983   -3.2114    0.0000 C   0  0  0  0  0  0  0  0  0  0  0  0
    7.9469   -1.8165    0.0000 C   0  0  0  0  0  0  0  0  0  0  0  0
    8.8793   -0.6414    0.0000 C   0  0  0  0  0  0  0  0  0  0  0  0
    6.4631   -1.5965    0.0000 C   0  0  0  0  0  0  0  0  0  0  0  0
    5.5308   -2.7715    0.0000 O   0  0  0  0  0  0  0  0  0  0  0  0
    5.9117   -0.2015    0.0000 O   0  0  0  0  0  0  0  0  0  0  0  0
    4.4280    0.0184    0.0000 C   0  0  0  0  0  0  0  0  0  0  0  0
    3.4956   -1.1566    0.0000 C   0  0  0  0  0  0  0  0  0  0  0  0
    2.0118   -0.9366    0.0000 C   0  0  0  0  0  0  0  0  0  0  0  0
    1.4604    0.4583    0.0000 C   0  0  0  0  0  0  0  0  0  0  0  0
    0.5280   -0.7167    0.0000 C   0  0  0  0  0  0  0  0  0  0  0  0
   -0.0234    0.6783    0.0000 C   0  0  0  0  0  0  0  0  0  0  0  0
   -0.9558   -0.4967    0.0000 C   0  0  0  0  0  0  0  0  0  0  0  0
   -2.4396   -0.2768    0.0000 C   0  0  0  0  0  0  0  0  0  0  0  0
   -2.9910    1.1182    0.0000 C   0  0  0  0  0  0  0  0  0  0  0  0
   -4.0411    0.0471    0.0000 C   0  0  0  0  0  0  0  0  0  0  0  0
   -4.3966    1.6418    0.0000 C   0  0  0  0  0  0  0  0  0  0  0  0
   -5.6465    0.8124    0.0000 C   0  0  0  0  0  0  0  0  0  0  0  0
   -6.9896    1.4802    0.0000 C   0  0  0  0  0  0  0  0  0  0  0  0
   -5.5531   -0.6846    0.0000 C   0  0  0  0  0  0  0  0  0  0  0  0
   -6.8029   -1.5140    0.0000 C   0  0  0  0  0  0  0  0  0  0  0  0
   -6.7096   -3.0111    0.0000 C   0  0  0  0  0  0  0  0  0  0  0  0
   -7.9594   -3.8405    0.0000 C   0  0  0  0  0  0  0  0  0  0  0  0
   -7.8661   -5.3376    0.0000 C   0  0  0  0  0  0  0  0  0  0  0  0
   -9.3026   -3.1728    0.0000 C   0  0  0  0  0  0  0  0  0  0  0  0
   -4.3330    3.1405    0.0000 C   0  0  0  0  0  0  0  0  0  0  0  0
   -2.8880    3.5431    0.0000 C   0  0  0  0  0  0  0  0  0  0  0  0
   -2.0586    2.2932    0.0000 C   0  0  0  0  0  0  0  0  0  0  0  0
   -1.2542    3.5593    0.0000 C   0  0  0  0  0  0  0  0  0  0  0  0
   -0.5748    2.0733    0.0000 C   0  0  0  0  0  0  0  0  0  0  0  0
    0.3576    3.2483    0.0000 C   0  0  0  0  0  0  0  0  0  0  0  0
    1.8414    3.0283    0.0000 C   0  0  0  0  0  0  0  0  0  0  0  0
    2.3928    1.6334    0.0000 C   0  0  0  0  0  0  0  0  0  0  0  0
    3.8765    1.4134    0.0000 C   0  0  0  0  0  0  0  0  0  0  0  0
    3.8355    2.9128    0.0000 C   0  0  0  0  0  0  0  0  0  0  0  0
    5.3461    1.7142    0.0000 C   0  0  0  0  0  0  0  0  0  0  0  0
  1  2  1  0
  2  3  2  0
  3  4  1  0
  3  5  1  0
  5  6  2  0
  5  7  1  0
  8  7  1  1
  8  9  1  0
  9 10  1  0
 11 10  1  6
 11 12  1  0
 13 12  1  1
 13 14  1  0
 14 15  1  0
 15 16  1  0
 16 17  1  1
 16 18  1  0
 18 19  1  0
 19 20  1  1
 19 21  1  0
 21 22  1  0
 22 23  1  0
 23 24  1  0
 24 25  1  0
 24 26  1  0
 18 27  1  1
 27 28  1  0
 28 29  1  0
 29 30  1  6
 29 31  1  0
 31 32  1  6
 32 33  1  0
 34 33  1  1
 34 35  1  0
 35 36  1  0
 35 37  1  0
 35  8  1  0
 13 11  1  0
 29 16  1  0
 34 11  1  0
 31 13  1  0
M  END
>  <identifier>  (441) 
CNP0269723.1

>  <canonical_smiles>  (441) 
C/C=C(\C)C(=O)O[C@H]1CC[C@]23C[C@]24CC[C@]2(C)[C@@H]([C@H](C)CCCC(C)C)CC[C@@]2(C)[C@@H]4CC[C@H]3C1(C)C

>  <standard_inchi>  (441) 
InChI=1S/C35H58O2/c1-10-24(4)30(36)37-29-17-19-34-22-35(34)21-20-32(8)26(25(5)13-11-12-23(2)3)16-18-33(32,9)28(35)15-14-27(34)31(29,6)7/h10,23,25-29H,11-22H2,1-9H3/b24-10+/t25-,26-,27+,28+,29+,32-,33+,34-,35+/m1/s1

>  <standard_inchi_key>  (441) 
HURWGTYWVMTNMB-UDRFELKJSA-N

>  <name>  (441) 
nan

>  <iupac_name>  (441) 
[(1~{S},3~{R},6~{S},8~{R},11~{S},12~{S},15~{R},16~{R})-15-[(1~{R})-1,5-dimethylhexyl]-7,7,12,16-tetramethyl-6-pentacyclo[9.7.0.0^{1,3}.0^{3,8}.0^{12,16}]octadecanyl] (~{E})-2-methylbut-2-enoate

>  <annotation_level>  (441) 
4

>  <total_atom_count>  (441) 
95

>  <heavy_atom_count>  (441) 
37

>  <molecular_weight>  (441) 
510.85

>  <exact_molecular_weight>  (441) 
510.44368

>  <molecular_formula>  (441) 
C35H58O2

>  <alogp>  (441) 
9.77

>  <topological_polar_surface_area>  (441) 
26.30

>  <rotatable_bond_count>  (441) 
7

>  <hydrogen_bond_acceptors>  (441) 
2

>  <hydrogen_bond_donors>  (441) 
0

>  <hydrogen_bond_acceptors_lipinski>  (441) 
2

>  <hydrogen_bond_donors_lipinski>  (441) 
0

>  <lipinski_rule_of_five_violations>  (441) 
2

>  <aromatic_rings_count>  (441) 
0

>  <qed_drug_likeliness>  (441) 
0.25

>  <formal_charge>  (441) 
0

>  <fractioncsp3>  (441) 
0.91

>  <number_of_minimal_rings>  (441) 
5

>  <van_der_walls_volume>  (441) 
nan

>  <contains_sugar>  (441) 
False

>  <contains_ring_sugars>  (441) 
False

>  <contains_linear_sugars>  (441) 
False

>  <murcko_framework>  (441) 
C1CCC23CC43CCC5CCCC5C4CCC2C1

>  <np_likeness>  (441) 
2.94

>  <chemical_class>  (441) 
Steroids and steroid derivatives

>  <chemical_sub_class>  (441) 
Cycloartanols and derivatives

>  <chemical_super_class>  (441) 
Lipids and lipid-like molecules

>  <direct_parent_classification>  (441) 
Cycloartanols and derivatives

>  <np_classifier_pathway>  (441) 
Terpenoids

>  <np_classifier_superclass>  (441) 
Triterpenoids

>  <np_classifier_class>  (441) 
Cycloartane triterpenoids

>  <np_classifier_is_glycoside>  (441) 
False

>  <organisms>  (441) 
Almeidea coerulea|Conchocarpus coeruleus

>  <collections>  (441) 
Latin America dataset|NuBBEDB|WikiData Natural Products

>  <dois>  (441) 
10.1590/S0103-50531998000100007

>  <synonyms>  (441) 
3\u221a\u00e9\u00ac\u2264-tiglyl-24-methyl-cicloartenol

>  <cas>  (441) 
nan

$$$$

     RDKit          2D

 28 29  0  0  0  0  0  0  0  0999 V2000
   -8.7054    1.4824    0.0000 C   0  0  0  0  0  0  0  0  0  0  0  0
   -7.7803    0.3016    0.0000 O   0  0  0  0  0  0  0  0  0  0  0  0
   -6.2952    0.5124    0.0000 C   0  0  0  0  0  0  0  0  0  0  0  0
   -5.7351    1.9039    0.0000 C   0  0  0  0  0  0  0  0  0  0  0  0
   -4.2500    2.1147    0.0000 C   0  0  0  0  0  0  0  0  0  0  0  0
   -3.3249    0.9339    0.0000 C   0  0  0  0  0  0  0  0  0  0  0  0
   -1.8398    1.1447    0.0000 C   0  0  0  0  0  0  0  0  0  0  0  0
   -0.9147   -0.0361    0.0000 C   0  0  0  0  0  0  0  0  0  0  0  0
   -1.4747   -1.4276    0.0000 C   0  0  0  0  0  0  0  0  0  0  0  0
   -0.5497   -2.6084    0.0000 O   0  0  0  0  0  0  0  0  0  0  0  0
    0.5704    0.1747    0.0000 C   0  0  0  0  0  0  0  0  0  0  0  0
    1.1304    1.5662    0.0000 C   0  0  0  0  0  0  0  0  0  0  0  0
    2.6155    1.7770    0.0000 O   0  0  0  0  0  0  0  0  0  0  0  0
    1.4955   -1.0061    0.0000 C   0  0  0  0  0  0  0  0  0  0  0  0
    2.9806   -0.7953    0.0000 C   0  0  0  0  0  0  0  0  0  0  0  0
    3.9057   -1.9761    0.0000 C   0  0  0  0  0  0  0  0  0  0  0  0
    5.3908   -1.7653    0.0000 C   0  0  0  0  0  0  0  0  0  0  0  0
    5.9508   -0.3738    0.0000 C   0  0  0  0  0  0  0  0  0  0  0  0
    7.4360   -0.1630    0.0000 O   0  0  0  0  0  0  0  0  0  0  0  0
    8.3611   -1.3438    0.0000 C   0  0  0  0  0  0  0  0  0  0  0  0
    5.0258    0.8070    0.0000 C   0  0  0  0  0  0  0  0  0  0  0  0
    5.5858    2.1985    0.0000 O   0  0  0  0  0  0  0  0  0  0  0  0
    7.0709    2.4093    0.0000 C   0  0  0  0  0  0  0  0  0  0  0  0
    3.5406    0.5962    0.0000 C   0  0  0  0  0  0  0  0  0  0  0  0
   -3.8850   -0.4576    0.0000 C   0  0  0  0  0  0  0  0  0  0  0  0
   -5.3701   -0.6684    0.0000 C   0  0  0  0  0  0  0  0  0  0  0  0
   -5.9301   -2.0599    0.0000 O   0  0  0  0  0  0  0  0  0  0  0  0
   -5.0050   -3.2407    0.0000 C   0  0  0  0  0  0  0  0  0  0  0  0
  1  2  1  0
  2  3  1  0
  3  4  2  0
  4  5  1  0
  5  6  2  0
  6  7  1  0
  8  7  1  6
  8  9  1  0
  9 10  1  0
  8 11  1  0
 11 12  1  6
 12 13  1  0
 11 14  1  0
 14 15  1  0
 15 16  2  0
 16 17  1  0
 17 18  2  0
 18 19  1  0
 19 20  1  0
 18 21  1  0
 21 22  1  0
 22 23  1  0
 21 24  2  0
  6 25  1  0
 25 26  2  0
 26 27  1  0
 27 28  1  0
 26  3  1  0
 24 15  1  0
M  END
>  <identifier>  (442) 
CNP0180152.1

>  <canonical_smiles>  (442) 
COC1=CC=C(C[C@@H](CO)[C@H](CO)CC2=CC=C(OC)C(OC)=C2)C=C1OC

>  <standard_inchi>  (442) 
InChI=1S/C22H30O6/c1-25-19-7-5-15(11-21(19)27-3)9-17(13-23)18(14-24)10-16-6-8-20(26-2)22(12-16)28-4/h5-8,11-12,17-18,23-24H,9-10,13-14H2,1-4H3/t17-,18-/m0/s1

>  <standard_inchi_key>  (442) 
RCYOEYNMEUHMEP-ROUUACIJSA-N

>  <name>  (442) 
nan

>  <iupac_name>  (442) 
(2~{R},3~{R})-2,3-bis[(3,4-dimethoxyphenyl)methyl]butane-1,4-diol

>  <annotation_level>  (442) 
4

>  <total_atom_count>  (442) 
58

>  <heavy_atom_count>  (442) 
28

>  <molecular_weight>  (442) 
390.48

>  <exact_molecular_weight>  (442) 
390.20424

>  <molecular_formula>  (442) 
C22H30O6

>  <alogp>  (442) 
2.72

>  <topological_polar_surface_area>  (442) 
77.38

>  <rotatable_bond_count>  (442) 
11

>  <hydrogen_bond_acceptors>  (442) 
6

>  <hydrogen_bond_donors>  (442) 
2

>  <hydrogen_bond_acceptors_lipinski>  (442) 
6

>  <hydrogen_bond_donors_lipinski>  (442) 
2

>  <lipinski_rule_of_five_violations>  (442) 
0

>  <aromatic_rings_count>  (442) 
2

>  <qed_drug_likeliness>  (442) 
0.61

>  <formal_charge>  (442) 
0

>  <fractioncsp3>  (442) 
0.46

>  <number_of_minimal_rings>  (442) 
2

>  <van_der_walls_volume>  (442) 
nan

>  <contains_sugar>  (442) 
False

>  <contains_ring_sugars>  (442) 
False

>  <contains_linear_sugars>  (442) 
False

>  <murcko_framework>  (442) 
c1ccc(cc1)CCCCc2ccccc2

>  <np_likeness>  (442) 
0.47

>  <chemical_class>  (442) 
Dibenzylbutane lignans

>  <chemical_sub_class>  (442) 
Dibenzylbutane lignans

>  <chemical_super_class>  (442) 
Lignans, neolignans and related compounds

>  <direct_parent_classification>  (442) 
Dibenzylbutane lignans

>  <np_classifier_pathway>  (442) 
Shikimates and Phenylpropanoids

>  <np_classifier_superclass>  (442) 
Lignans

>  <np_classifier_class>  (442) 
Dibenzylbutane lignans

>  <np_classifier_is_glycoside>  (442) 
False

>  <organisms>  (442) 
Araucaria angustifolia|Justicia procumbens

>  <collections>  (442) 
Latin America dataset|NuBBEDB|Super Natural II|WikiData Natural Products|ZINC NP

>  <dois>  (442) 
10.1016/0031-9422(79)80188-0|10.1021/NP9703860

>  <synonyms>  (442) 
Secoisolariciresinol-44''-dimethyl ether

>  <cas>  (442) 
nan

$$$$

     RDKit          2D

 15 16  0  0  0  0  0  0  0  0999 V2000
   -4.2043   -1.4260    0.0000 C   0  0  0  0  0  0  0  0  0  0  0  0
   -2.7111   -1.5684    0.0000 O   0  0  0  0  0  0  0  0  0  0  0  0
   -1.8412   -0.3464    0.0000 C   0  0  0  0  0  0  0  0  0  0  0  0
   -2.4645    1.0179    0.0000 C   0  0  0  0  0  0  0  0  0  0  0  0
   -1.5946    2.2399    0.0000 C   0  0  0  0  0  0  0  0  0  0  0  0
   -0.1014    2.0976    0.0000 C   0  0  0  0  0  0  0  0  0  0  0  0
    0.7686    3.3195    0.0000 O   0  0  0  0  0  0  0  0  0  0  0  0
    0.5220    0.7332    0.0000 C   0  0  0  0  0  0  0  0  0  0  0  0
   -0.3480   -0.4888    0.0000 C   0  0  0  0  0  0  0  0  0  0  0  0
    0.2753   -1.8532    0.0000 C   0  0  0  0  0  0  0  0  0  0  0  0
    1.7686   -1.9955    0.0000 C   0  0  0  0  0  0  0  0  0  0  0  0
    2.3919   -3.3599    0.0000 C   0  0  0  0  0  0  0  0  0  0  0  0
    2.6385   -0.7736    0.0000 O   0  0  0  0  0  0  0  0  0  0  0  0
    2.0152    0.5908    0.0000 C   0  0  0  0  0  0  0  0  0  0  0  0
    2.8851    1.8128    0.0000 O   0  0  0  0  0  0  0  0  0  0  0  0
  1  2  1  0
  2  3  1  0
  3  4  2  0
  4  5  1  0
  5  6  2  0
  6  7  1  0
  6  8  1  0
  8  9  2  0
  9 10  1  0
 10 11  1  0
 11 12  1  6
 11 13  1  0
 13 14  1  0
 14 15  2  0
  9  3  1  0
 14  8  1  0
M  END
>  <identifier>  (443) 
CNP0250277.2

>  <canonical_smiles>  (443) 
COC1=CC=C(O)C2=C1C[C@@H](C)OC2=O

>  <standard_inchi>  (443) 
InChI=1S/C11H12O4/c1-6-5-7-9(14-2)4-3-8(12)10(7)11(13)15-6/h3-4,6,12H,5H2,1-2H3/t6-/m1/s1

>  <standard_inchi_key>  (443) 
SFTNFPOSIFBHRM-ZCFIWIBFSA-N

>  <name>  (443) 
nan

>  <iupac_name>  (443) 
(3~{R})-8-hydroxy-5-methoxy-3-methyl-isochroman-1-one

>  <annotation_level>  (443) 
4

>  <total_atom_count>  (443) 
27

>  <heavy_atom_count>  (443) 
15

>  <molecular_weight>  (443) 
208.21

>  <exact_molecular_weight>  (443) 
208.07356

>  <molecular_formula>  (443) 
C11H12O4

>  <alogp>  (443) 
1.50

>  <topological_polar_surface_area>  (443) 
55.76

>  <rotatable_bond_count>  (443) 
1

>  <hydrogen_bond_acceptors>  (443) 
4

>  <hydrogen_bond_donors>  (443) 
1

>  <hydrogen_bond_acceptors_lipinski>  (443) 
4

>  <hydrogen_bond_donors_lipinski>  (443) 
1

>  <lipinski_rule_of_five_violations>  (443) 
0

>  <aromatic_rings_count>  (443) 
1

>  <qed_drug_likeliness>  (443) 
0.71

>  <formal_charge>  (443) 
0

>  <fractioncsp3>  (443) 
0.36

>  <number_of_minimal_rings>  (443) 
2

>  <van_der_walls_volume>  (443) 
nan

>  <contains_sugar>  (443) 
False

>  <contains_ring_sugars>  (443) 
False

>  <contains_linear_sugars>  (443) 
False

>  <murcko_framework>  (443) 
O1Cc2ccccc2CC1

>  <np_likeness>  (443) 
1.60

>  <chemical_class>  (443) 
Benzopyrans

>  <chemical_sub_class>  (443) 
2-benzopyrans

>  <chemical_super_class>  (443) 
Organoheterocyclic compounds

>  <direct_parent_classification>  (443) 
2-benzopyrans

>  <np_classifier_pathway>  (443) 
Shikimates and Phenylpropanoids

>  <np_classifier_superclass>  (443) 
Coumarins

>  <np_classifier_class>  (443) 
Isocoumarins

>  <np_classifier_is_glycoside>  (443) 
False

>  <organisms>  (443) 
Endlicheria sericea|Euphorbia plumerioides|Virola venosa

>  <collections>  (443) 
Latin America dataset|NuBBEDB|Super Natural II|WikiData Natural Products|ZINC NP

>  <dois>  (443) 
10.1016/0031-9422(91)84139-J|10.1016/S0031-9422(00)89350-4|10.1590/1809-43921982124801

>  <synonyms>  (443) 
(3R)-8-Hydroxy-5-methoxy-3-methyl-34-dihydroisocoumarin

>  <cas>  (443) 
nan

$$$$

     RDKit          2D

 21 22  0  0  0  0  0  0  0  0999 V2000
    0.9917    4.7960    0.0000 C   0  0  0  0  0  0  0  0  0  0  0  0
    0.0699    3.6126    0.0000 O   0  0  0  0  0  0  0  0  0  0  0  0
    0.6337    2.2227    0.0000 C   0  0  0  0  0  0  0  0  0  0  0  0
    2.1194    2.0160    0.0000 C   0  0  0  0  0  0  0  0  0  0  0  0
    2.6833    0.6260    0.0000 C   0  0  0  0  0  0  0  0  0  0  0  0
    1.7614   -0.5573    0.0000 C   0  0  0  0  0  0  0  0  0  0  0  0
    2.3253   -1.9473    0.0000 O   0  0  0  0  0  0  0  0  0  0  0  0
    3.8110   -2.1540    0.0000 C   0  0  0  0  0  0  0  0  0  0  0  0
    4.3748   -3.5440    0.0000 O   0  0  0  0  0  0  0  0  0  0  0  0
    4.7328   -0.9707    0.0000 C   0  0  0  0  0  0  0  0  0  0  0  0
    4.1690    0.4193    0.0000 C   0  0  0  0  0  0  0  0  0  0  0  0
    0.2757   -0.3506    0.0000 C   0  0  0  0  0  0  0  0  0  0  0  0
   -0.6461   -1.5339    0.0000 O   0  0  0  0  0  0  0  0  0  0  0  0
   -2.1318   -1.3272    0.0000 C   0  0  0  0  0  0  0  0  0  0  0  0
   -0.2881    1.0394    0.0000 C   0  0  0  0  0  0  0  0  0  0  0  0
   -1.7738    1.2460    0.0000 O   0  0  0  0  0  0  0  0  0  0  0  0
   -2.6956    0.0627    0.0000 C   0  0  0  0  0  0  0  0  0  0  0  0
   -4.1813    0.2694    0.0000 C   0  0  0  0  0  0  0  0  0  0  0  0
   -5.1032   -0.9139    0.0000 C   0  0  0  0  0  0  0  0  0  0  0  0
   -6.5889   -0.7072    0.0000 C   0  0  0  0  0  0  0  0  0  0  0  0
   -4.5393   -2.3039    0.0000 C   0  0  0  0  0  0  0  0  0  0  0  0
  1  2  1  0
  2  3  1  0
  3  4  2  0
  4  5  1  0
  5  6  2  0
  6  7  1  0
  7  8  1  0
  8  9  2  0
  8 10  1  0
 10 11  2  0
  6 12  1  0
 12 13  1  0
 13 14  1  0
 12 15  2  0
 15 16  1  0
 16 17  1  0
 17 18  1  0
 18 19  2  0
 19 20  1  0
 19 21  1  0
 15  3  1  0
 11  5  1  0
M  END
>  <identifier>  (444) 
CNP0342004.0

>  <canonical_smiles>  (444) 
COC1=CC2=C(OC(=O)C=C2)C(OC)=C1OCC=C(C)C

>  <standard_inchi>  (444) 
InChI=1S/C16H18O5/c1-10(2)7-8-20-15-12(18-3)9-11-5-6-13(17)21-14(11)16(15)19-4/h5-7,9H,8H2,1-4H3

>  <standard_inchi_key>  (444) 
HYLMQFRADKVWGK-UHFFFAOYSA-N

>  <name>  (444) 
57419-60-0

>  <iupac_name>  (444) 
6,8-dimethoxy-7-(3-methylbut-2-enoxy)chromen-2-one

>  <annotation_level>  (444) 
5

>  <total_atom_count>  (444) 
39

>  <heavy_atom_count>  (444) 
21

>  <molecular_weight>  (444) 
290.32

>  <exact_molecular_weight>  (444) 
290.11542

>  <molecular_formula>  (444) 
C16H18O5

>  <alogp>  (444) 
3.16

>  <topological_polar_surface_area>  (444) 
57.90

>  <rotatable_bond_count>  (444) 
5

>  <hydrogen_bond_acceptors>  (444) 
5

>  <hydrogen_bond_donors>  (444) 
0

>  <hydrogen_bond_acceptors_lipinski>  (444) 
5

>  <hydrogen_bond_donors_lipinski>  (444) 
0

>  <lipinski_rule_of_five_violations>  (444) 
0

>  <aromatic_rings_count>  (444) 
2

>  <qed_drug_likeliness>  (444) 
0.63

>  <formal_charge>  (444) 
0

>  <fractioncsp3>  (444) 
0.31

>  <number_of_minimal_rings>  (444) 
2

>  <van_der_walls_volume>  (444) 
nan

>  <contains_sugar>  (444) 
False

>  <contains_ring_sugars>  (444) 
False

>  <contains_linear_sugars>  (444) 
False

>  <murcko_framework>  (444) 
O1c2ccccc2C=CC1

>  <np_likeness>  (444) 
1.37

>  <chemical_class>  (444) 
Coumarins and derivatives

>  <chemical_sub_class>  (444) 
Coumarins and derivatives

>  <chemical_super_class>  (444) 
Phenylpropanoids and polyketides

>  <direct_parent_classification>  (444) 
Coumarins and derivatives

>  <np_classifier_pathway>  (444) 
Shikimates and Phenylpropanoids

>  <np_classifier_superclass>  (444) 
Coumarins

>  <np_classifier_class>  (444) 
Simple coumarins

>  <np_classifier_is_glycoside>  (444) 
False

>  <organisms>  (444) 
Brickellia baccharidea|Buxus rugulosa|Cryptocarya obovata|Duguetia furfuracea|Nostoc commune var. flagelliforme|Pterocaulon lanatum|Pterocaulon redolens|Pteronia ciliata|Vismia baccifera

>  <collections>  (444) 
Australian natural products|Latin America dataset|NPASS|NuBBEDB|Super Natural II|UNPD (Universal Natural Products Database)|WikiData Natural Products|ZINC NP

>  <dois>  (444) 
10.1002/CBER.19751080916|10.1016/0031-9422(81)80042-8|10.3987/COM-03-S16|10.3987/com-03-s16

>  <synonyms>  (444) 
6,8-Dimethoxy-7-(3-methyl-2-butenyloxy)coumarin|DB-296417

>  <cas>  (444) 
nan

$$$$

     RDKit          2D

 37 42  0  0  0  0  0  0  0  0999 V2000
   -0.1114    5.1243    0.0000 C   0  0  0  0  0  0  0  0  0  0  0  0
    0.4350    3.7274    0.0000 C   0  0  0  0  0  0  0  0  0  0  0  0
    1.9180    3.5022    0.0000 O   0  0  0  0  0  0  0  0  0  0  0  0
   -0.5015    2.5557    0.0000 O   0  0  0  0  0  0  0  0  0  0  0  0
    0.0450    1.1588    0.0000 C   0  0  0  0  0  0  0  0  0  0  0  0
    1.5280    0.9336    0.0000 C   0  0  0  0  0  0  0  0  0  0  0  0
    2.0745   -0.4633    0.0000 C   0  0  0  0  0  0  0  0  0  0  0  0
    3.0110    0.7084    0.0000 C   0  0  0  0  0  0  0  0  0  0  0  0
    3.5575   -0.6885    0.0000 C   0  0  0  0  0  0  0  0  0  0  0  0
    4.4940    0.4832    0.0000 C   0  0  0  0  0  0  0  0  0  0  0  0
    4.0965    1.9296    0.0000 C   0  0  0  0  0  0  0  0  0  0  0  0
    5.3493    2.7546    0.0000 O   0  0  0  0  0  0  0  0  0  0  0  0
    6.5210    1.8180    0.0000 C   0  0  0  0  0  0  0  0  0  0  0  0
    5.9924    0.4143    0.0000 C   0  0  0  0  0  0  0  0  0  0  0  0
    4.1039   -2.0854    0.0000 O   0  0  0  0  0  0  0  0  0  0  0  0
    3.1674   -3.2571    0.0000 C   0  0  0  0  0  0  0  0  0  0  0  0
    3.7139   -4.6540    0.0000 O   0  0  0  0  0  0  0  0  0  0  0  0
    1.6844   -3.0319    0.0000 C   0  0  0  0  0  0  0  0  0  0  0  0
    0.2014   -2.8067    0.0000 O   0  0  0  0  0  0  0  0  0  0  0  0
    1.1379   -1.6350    0.0000 C   0  0  0  0  0  0  0  0  0  0  0  0
   -0.3451   -1.4098    0.0000 C   0  0  0  0  0  0  0  0  0  0  0  0
    0.5915   -0.2381    0.0000 C   0  0  0  0  0  0  0  0  0  0  0  0
   -1.2816   -2.5815    0.0000 C   0  0  0  0  0  0  0  0  0  0  0  0
   -0.7351   -3.9785    0.0000 O   0  0  0  0  0  0  0  0  0  0  0  0
   -2.7646   -2.3564    0.0000 C   0  0  0  0  0  0  0  0  0  0  0  0
   -3.3111   -0.9594    0.0000 C   0  0  0  0  0  0  0  0  0  0  0  0
   -4.8111   -0.9578    0.0000 C   0  0  0  0  0  0  0  0  0  0  0  0
   -4.4789   -2.4205    0.0000 C   0  0  0  0  0  0  0  0  0  0  0  0
   -6.1632   -1.6071    0.0000 C   0  0  0  0  0  0  0  0  0  0  0  0
   -5.7450    0.2160    0.0000 O   0  0  0  0  0  0  0  0  0  0  0  0
   -5.4096    1.6780    0.0000 C   0  0  0  0  0  0  0  0  0  0  0  0
   -6.5813    2.6145    0.0000 O   0  0  0  0  0  0  0  0  0  0  0  0
   -4.0574    2.3273    0.0000 C   0  0  0  0  0  0  0  0  0  0  0  0
   -2.7067    1.6750    0.0000 C   0  0  0  0  0  0  0  0  0  0  0  0
   -2.3745    0.2123    0.0000 C   0  0  0  0  0  0  0  0  0  0  0  0
   -1.3531    1.3107    0.0000 C   0  0  0  0  0  0  0  0  0  0  0  0
   -0.8915   -0.0129    0.0000 C   0  0  0  0  0  0  0  0  0  0  0  0
  1  2  1  0
  2  3  2  0
  2  4  1  0
  5  4  1  1
  5  6  1  0
  6  7  1  0
  7  8  1  6
  7  9  1  0
  9 10  1  6
 10 11  2  0
 11 12  1  0
 12 13  1  0
 13 14  2  0
  9 15  1  0
 15 16  1  0
 16 17  2  0
 16 18  1  0
 18 19  1  1
 20 19  1  1
 20 21  1  0
 21 22  1  1
 21 23  1  0
 23 24  2  0
 23 25  1  0
 25 26  1  0
 26 27  1  0
 27 28  1  0
 27 29  1  0
 27 30  1  0
 30 31  1  0
 31 32  2  0
 31 33  1  0
 33 34  2  0
 34 35  1  0
 35 36  1  1
 35 37  1  0
 37  5  1  0
 20  7  1  0
 37 21  1  0
 14 10  1  0
 20 18  1  0
 35 26  1  0
M  END
>  <identifier>  (445) 
CNP0307612.1

>  <canonical_smiles>  (445) 
CC(=O)O[C@H]1C[C@@]2(C)[C@H](C3=COC=C3)OC(=O)[C@H]3O[C@]32[C@]2(C)C(=O)CC3C(C)(C)OC(=O)C=C[C@]3(C)C12

>  <standard_inchi>  (445) 
InChI=1S/C28H32O9/c1-14(29)34-16-12-26(5)21(15-8-10-33-13-15)35-23(32)22-28(26,37-22)27(6)18(30)11-17-24(2,3)36-19(31)7-9-25(17,4)20(16)27/h7-10,13,16-17,20-22H,11-12H2,1-6H3/t16-,17?,20?,21-,22+,25-,26-,27+,28+/m0/s1

>  <standard_inchi_key>  (445) 
CYTZKEPGJPIHGB-DFDCBQTQSA-N

>  <name>  (445) 
nan

>  <iupac_name>  (445) 
[(1~{R},2~{R},4~{S},7~{S},8~{S},10~{S},12~{R})-7-(3-furyl)-1,8,12,17,17-pentamethyl-5,15,20-trioxo-3,6,16-trioxapentacyclo[9.9.0.0^{2,4}.0^{2,8}.0^{12,18}]icos-13-en-10-yl] acetate

>  <annotation_level>  (445) 
4

>  <total_atom_count>  (445) 
69

>  <heavy_atom_count>  (445) 
37

>  <molecular_weight>  (445) 
512.56

>  <exact_molecular_weight>  (445) 
512.20463

>  <molecular_formula>  (445) 
C28H32O9

>  <alogp>  (445) 
3.47

>  <topological_polar_surface_area>  (445) 
121.64

>  <rotatable_bond_count>  (445) 
2

>  <hydrogen_bond_acceptors>  (445) 
9

>  <hydrogen_bond_donors>  (445) 
0

>  <hydrogen_bond_acceptors_lipinski>  (445) 
9

>  <hydrogen_bond_donors_lipinski>  (445) 
0

>  <lipinski_rule_of_five_violations>  (445) 
1

>  <aromatic_rings_count>  (445) 
1

>  <qed_drug_likeliness>  (445) 
0.33

>  <formal_charge>  (445) 
0

>  <fractioncsp3>  (445) 
0.64

>  <number_of_minimal_rings>  (445) 
6

>  <van_der_walls_volume>  (445) 
nan

>  <contains_sugar>  (445) 
False

>  <contains_ring_sugars>  (445) 
False

>  <contains_linear_sugars>  (445) 
False

>  <murcko_framework>  (445) 
o1ccc(c1)C2OCC3OC34C2CCC5C6C=CCOCC6CCC54

>  <np_likeness>  (445) 
3.31

>  <chemical_class>  (445) 
Prenol lipids

>  <chemical_sub_class>  (445) 
Triterpenoids

>  <chemical_super_class>  (445) 
Lipids and lipid-like molecules

>  <direct_parent_classification>  (445) 
Limonoids

>  <np_classifier_pathway>  (445) 
Terpenoids

>  <np_classifier_superclass>  (445) 
Triterpenoids

>  <np_classifier_class>  (445) 
Limonoids

>  <np_classifier_is_glycoside>  (445) 
False

>  <organisms>  (445) 
Trichilia elegans

>  <collections>  (445) 
Latin America dataset|NuBBEDB|WikiData Natural Products

>  <dois>  (445) 
10.1590/S0100-40422009000600037

>  <synonyms>  (445) 
11\u221a\u00e9\u00ac\u2264-acetoxyobacunone

>  <cas>  (445) 
nan

$$$$

     RDKit          2D

 30 33  0  0  0  0  0  0  0  0999 V2000
    6.6305   -3.6002    0.0000 C   0  0  0  0  0  0  0  0  0  0  0  0
    6.1068   -2.1946    0.0000 C   0  0  0  0  0  0  0  0  0  0  0  0
    7.0624   -1.0383    0.0000 C   0  0  0  0  0  0  0  0  0  0  0  0
    4.6277   -1.9452    0.0000 C   0  0  0  0  0  0  0  0  0  0  0  0
    4.1041   -0.5396    0.0000 C   0  0  0  0  0  0  0  0  0  0  0  0
    2.6250   -0.2902    0.0000 C   0  0  0  0  0  0  0  0  0  0  0  0
    1.6695   -1.4465    0.0000 C   0  0  0  0  0  0  0  0  0  0  0  0
    2.1931   -2.8522    0.0000 O   0  0  0  0  0  0  0  0  0  0  0  0
    0.1903   -1.1972    0.0000 C   0  0  0  0  0  0  0  0  0  0  0  0
   -0.3333    0.2085    0.0000 C   0  0  0  0  0  0  0  0  0  0  0  0
   -1.8124    0.4578    0.0000 O   0  0  0  0  0  0  0  0  0  0  0  0
   -2.7679   -0.6985    0.0000 C   0  0  0  0  0  0  0  0  0  0  0  0
   -4.2471   -0.4491    0.0000 C   0  0  0  0  0  0  0  0  0  0  0  0
   -4.7707    0.9565    0.0000 C   0  0  0  0  0  0  0  0  0  0  0  0
   -6.2498    1.2059    0.0000 C   0  0  0  0  0  0  0  0  0  0  0  0
   -7.2053    0.0496    0.0000 C   0  0  0  0  0  0  0  0  0  0  0  0
   -8.6844    0.2990    0.0000 O   0  0  0  0  0  0  0  0  0  0  0  0
   -6.6817   -1.3560    0.0000 C   0  0  0  0  0  0  0  0  0  0  0  0
   -5.2026   -1.6054    0.0000 C   0  0  0  0  0  0  0  0  0  0  0  0
   -2.2443   -2.1041    0.0000 C   0  0  0  0  0  0  0  0  0  0  0  0
   -0.7652   -2.3535    0.0000 C   0  0  0  0  0  0  0  0  0  0  0  0
   -0.2416   -3.7591    0.0000 O   0  0  0  0  0  0  0  0  0  0  0  0
    0.6222    1.3648    0.0000 C   0  0  0  0  0  0  0  0  0  0  0  0
    2.1014    1.1154    0.0000 C   0  0  0  0  0  0  0  0  0  0  0  0
    3.0569    2.2717    0.0000 O   0  0  0  0  0  0  0  0  0  0  0  0
    2.5333    3.6773    0.0000 C   0  0  0  0  0  0  0  0  0  0  0  0
    2.5220    5.1773    0.0000 C   0  0  0  0  0  0  0  0  0  0  0  0
    4.0085    3.9489    0.0000 C   0  0  0  0  0  0  0  0  0  0  0  0
    1.0541    3.9267    0.0000 C   0  0  0  0  0  0  0  0  0  0  0  0
    0.0986    2.7704    0.0000 C   0  0  0  0  0  0  0  0  0  0  0  0
  1  2  1  0
  2  3  1  0
  2  4  2  0
  4  5  1  0
  5  6  1  0
  6  7  2  0
  7  8  1  0
  7  9  1  0
  9 10  2  0
 10 11  1  0
 11 12  1  0
 12 13  1  1
 13 14  2  0
 14 15  1  0
 15 16  2  0
 16 17  1  0
 16 18  1  0
 18 19  2  0
 12 20  1  0
 20 21  1  0
 21 22  2  0
 10 23  1  0
 23 24  2  0
 24 25  1  0
 25 26  1  0
 26 27  1  0
 26 28  1  0
 26 29  1  0
 29 30  2  0
 24  6  1  0
 21  9  1  0
 30 23  1  0
 19 13  1  0
M  END
>  <identifier>  (446) 
CNP0421993.1

>  <canonical_smiles>  (446) 
CC(C)=CCC1=C(O)C2=C(O[C@H](C3=CC=C(O)C=C3)CC2=O)C2=C1OC(C)(C)C=C2

>  <standard_inchi>  (446) 
InChI=1S/C25H26O5/c1-14(2)5-10-17-22(28)21-19(27)13-20(15-6-8-16(26)9-7-15)29-24(21)18-11-12-25(3,4)30-23(17)18/h5-9,11-12,20,26,28H,10,13H2,1-4H3/t20-/m0/s1

>  <standard_inchi_key>  (446) 
TXWYWZHIUMRYOS-FQEVSTJZSA-N

>  <name>  (446) 
Erythrisenegalone

>  <iupac_name>  (446) 
(2~{S})-5-hydroxy-2-(4-hydroxyphenyl)-8,8-dimethyl-6-(3-methylbut-2-enyl)-2,3-dihydropyrano[2,3-h]chromen-4-one

>  <annotation_level>  (446) 
5

>  <total_atom_count>  (446) 
56

>  <heavy_atom_count>  (446) 
30

>  <molecular_weight>  (446) 
406.48

>  <exact_molecular_weight>  (446) 
406.17802

>  <molecular_formula>  (446) 
C25H26O5

>  <alogp>  (446) 
5.50

>  <topological_polar_surface_area>  (446) 
75.99

>  <rotatable_bond_count>  (446) 
3

>  <hydrogen_bond_acceptors>  (446) 
5

>  <hydrogen_bond_donors>  (446) 
2

>  <hydrogen_bond_acceptors_lipinski>  (446) 
5

>  <hydrogen_bond_donors_lipinski>  (446) 
2

>  <lipinski_rule_of_five_violations>  (446) 
1

>  <aromatic_rings_count>  (446) 
2

>  <qed_drug_likeliness>  (446) 
0.66

>  <formal_charge>  (446) 
0

>  <fractioncsp3>  (446) 
0.32

>  <number_of_minimal_rings>  (446) 
4

>  <van_der_walls_volume>  (446) 
373.83

>  <contains_sugar>  (446) 
False

>  <contains_ring_sugars>  (446) 
False

>  <contains_linear_sugars>  (446) 
False

>  <murcko_framework>  (446) 
O1c2ccc3c(OC(c4ccccc4)CC3)c2C=CC1

>  <np_likeness>  (446) 
2.72

>  <chemical_class>  (446) 
Flavonoids

>  <chemical_sub_class>  (446) 
Pyranoflavonoids

>  <chemical_super_class>  (446) 
Phenylpropanoids and polyketides

>  <direct_parent_classification>  (446) 
Pyranoflavonoids

>  <np_classifier_pathway>  (446) 
Shikimates and Phenylpropanoids

>  <np_classifier_superclass>  (446) 
Flavonoids

>  <np_classifier_class>  (446) 
Flavanones

>  <np_classifier_is_glycoside>  (446) 
False

>  <organisms>  (446) 
Cajanus Cajan|Cajanus cajan|Citrus medica|Citrus medica var. sarcodactylis|Citrus sinensis|Erythrina Fusca|Erythrina fusca|Erythrina senegalensis|Lespedeza floribunda|Maclura pomifera

>  <collections>  (446) 
CMAUP (cCollective molecular activities of useful plants)|ConMedNP|KNApSaCK|Latin America dataset|NPASS|NuBBEDB|Super Natural II|TIPdb (database of Taiwan indigenous plants)|VietHerb|WikiData Natural Products

>  <dois>  (446) 
10.1016/0031-9422(85)80067-4|10.1016/0031-9422(94)00971-U|10.1016/S0031-9422(00)80645-7|10.1021/NP800395J|10.1021/jf801103p|10.1021/np800395j|10.1055/S-2006-959446|10.1248/CPB.58.61|10.3987/COM-03-9994|10.3987/COM-08-11630

>  <synonyms>  (446) 
(2S)-2,3-Dihydro-5-hydroxy-2-(4-hydroxyphenyl)-8,8-dimethyl-6-(3-methyl-2-butenyl)-4H,8H-benzo[1,2-b:3,4-ba(2)]dipyran-4-one|(2S)-5-hydroxy-2-(4-hydroxyphenyl)-8,8-dimethyl-6-(3-methylbut-2-enyl)-2,3-dihydropyrano[2,3-h]chromen-4-one|68236-12-4|CHEMBL557692|Cajaflavanone|DTXSID001104803|Erythrisenegalone|XE161741

>  <cas>  (446) 
68236-12-4

$$$$

     RDKit          2D

 25 29  0  0  0  0  0  0  0  0999 V2000
   -6.5057    1.2267    0.0000 C   0  0  0  0  0  0  0  0  0  0  0  0
   -5.0330    1.5114    0.0000 C   0  0  0  0  0  0  0  0  0  0  0  0
   -4.0500    0.3784    0.0000 C   0  0  0  0  0  0  0  0  0  0  0  0
   -4.3889   -1.0828    0.0000 C   0  0  0  0  0  0  0  0  0  0  0  0
   -5.7703   -1.6676    0.0000 O   0  0  0  0  0  0  0  0  0  0  0  0
   -3.1039   -1.8567    0.0000 C   0  0  0  0  0  0  0  0  0  0  0  0
   -1.9709   -0.8737    0.0000 C   0  0  0  0  0  0  0  0  0  0  0  0
   -0.4823   -1.0580    0.0000 C   0  0  0  0  0  0  0  0  0  0  0  0
    0.1025   -2.4393    0.0000 C   0  0  0  0  0  0  0  0  0  0  0  0
    1.5911   -2.6236    0.0000 C   0  0  0  0  0  0  0  0  0  0  0  0
    2.4950   -1.4265    0.0000 C   0  0  0  0  0  0  0  0  0  0  0  0
    3.9949   -1.4410    0.0000 C   0  0  0  0  0  0  0  0  0  0  0  0
    4.7574   -0.1492    0.0000 C   0  0  0  0  0  0  0  0  0  0  0  0
    6.2574   -0.1637    0.0000 O   0  0  0  0  0  0  0  0  0  0  0  0
    4.0200    1.1570    0.0000 C   0  0  0  0  0  0  0  0  0  0  0  0
    5.4901    1.4547    0.0000 O   0  0  0  0  0  0  0  0  0  0  0  0
    3.3967   -0.2074    0.0000 C   0  0  0  0  0  0  0  0  0  0  0  0
    1.9065   -0.0362    0.0000 C   0  0  0  0  0  0  0  0  0  0  0  0
    1.6088    1.4339    0.0000 C   0  0  0  0  0  0  0  0  0  0  0  0
    2.9150    2.1714    0.0000 O   0  0  0  0  0  0  0  0  0  0  0  0
    0.4216    0.1391    0.0000 C   0  0  0  0  0  0  0  0  0  0  0  0
   -0.1631    1.5204    0.0000 C   0  0  0  0  0  0  0  0  0  0  0  0
   -1.6517    1.7047    0.0000 C   0  0  0  0  0  0  0  0  0  0  0  0
   -2.5556    0.5076    0.0000 C   0  0  0  0  0  0  0  0  0  0  0  0
   -3.2815    1.8203    0.0000 C   0  0  0  0  0  0  0  0  0  0  0  0
  1  2  1  0
  3  2  1  6
  3  4  1  0
  4  5  2  0
  4  6  1  0
  6  7  1  0
  7  8  1  0
  8  9  1  0
  9 10  1  0
 10 11  1  0
 11 12  1  0
 12 13  1  0
 13 14  1  6
 13 15  1  0
 15 16  1  6
 15 17  1  0
 17 18  1  0
 18 19  1  6
 19 20  1  0
 18 21  1  0
 21 22  1  0
 22 23  1  0
 23 24  1  0
 24 25  1  6
 24  3  1  0
 24  7  1  0
 21  8  1  0
 18 11  1  0
 20 15  1  0
M  END
>  <identifier>  (447) 
CNP0135860.2

>  <canonical_smiles>  (447) 
CC[C@H]1C(=O)CC2C3CCC4C[C@@H](O)[C@@]5(O)C[C@]4(CO5)C3CC[C@@]21C

>  <standard_inchi>  (447) 
InChI=1S/C21H32O4/c1-3-14-17(22)9-16-13-5-4-12-8-18(23)21(24)10-20(12,11-25-21)15(13)6-7-19(14,16)2/h12-16,18,23-24H,3-11H2,1-2H3/t12?,13?,14-,15?,16?,18+,19+,20+,21+/m0/s1

>  <standard_inchi_key>  (447) 
YTQLYPLDMHKTML-MHYPEKJDSA-N

>  <name>  (447) 
nan

>  <iupac_name>  (447) 
(1~{R},5~{S},6~{R},15~{R},16~{R})-6-ethyl-15,16-dihydroxy-5-methyl-17-oxapentacyclo[14.2.1.0^{1,13}.0^{2,10}.0^{5,9}]nonadecan-7-one

>  <annotation_level>  (447) 
4

>  <total_atom_count>  (447) 
57

>  <heavy_atom_count>  (447) 
25

>  <molecular_weight>  (447) 
348.48

>  <exact_molecular_weight>  (447) 
348.23006

>  <molecular_formula>  (447) 
C21H32O4

>  <alogp>  (447) 
2.90

>  <topological_polar_surface_area>  (447) 
66.76

>  <rotatable_bond_count>  (447) 
1

>  <hydrogen_bond_acceptors>  (447) 
4

>  <hydrogen_bond_donors>  (447) 
2

>  <hydrogen_bond_acceptors_lipinski>  (447) 
4

>  <hydrogen_bond_donors_lipinski>  (447) 
2

>  <lipinski_rule_of_five_violations>  (447) 
0

>  <aromatic_rings_count>  (447) 
0

>  <qed_drug_likeliness>  (447) 
0.76

>  <formal_charge>  (447) 
0

>  <fractioncsp3>  (447) 
0.95

>  <number_of_minimal_rings>  (447) 
5

>  <van_der_walls_volume>  (447) 
nan

>  <contains_sugar>  (447) 
False

>  <contains_ring_sugars>  (447) 
False

>  <contains_linear_sugars>  (447) 
False

>  <murcko_framework>  (447) 
O1CC23CC1CCC3CCC4C5CCCC5CCC42

>  <np_likeness>  (447) 
2.95

>  <chemical_class>  (447) 
Steroids and steroid derivatives

>  <chemical_sub_class>  (447) 
Oxosteroids

>  <chemical_super_class>  (447) 
Lipids and lipid-like molecules

>  <direct_parent_classification>  (447) 
16-oxosteroids

>  <np_classifier_pathway>  (447) 
Terpenoids

>  <np_classifier_superclass>  (447) 
Steroids

>  <np_classifier_class>  (447) 
Pregnane steroids

>  <np_classifier_is_glycoside>  (447) 
True

>  <organisms>  (447) 
Trichilia claussenii

>  <collections>  (447) 
Latin America dataset|NuBBEDB

>  <dois>  (447) 
10.1016/S0031-9422(97)00167-2

>  <synonyms>  (447) 
2\u221a\u00e9\u00ac\u00b13\u221a\u00e9\u00ac\u2264-Dihydroxypregnan-16-one 2\u221a\u00e9\u00ac\u226419-hemiketal

>  <cas>  (447) 
nan

$$$$

     RDKit          2D

 15 17  0  0  0  0  0  0  0  0999 V2000
   -3.6494    0.0466    0.0000 C   0  0  0  0  0  0  0  0  0  0  0  0
   -2.2850    0.6699    0.0000 C   0  0  0  0  0  0  0  0  0  0  0  0
   -2.1426    2.1631    0.0000 C   0  0  0  0  0  0  0  0  0  0  0  0
   -0.7783    2.7865    0.0000 C   0  0  0  0  0  0  0  0  0  0  0  0
    0.4437    1.9165    0.0000 C   0  0  0  0  0  0  0  0  0  0  0  0
    0.3013    0.4233    0.0000 C   0  0  0  0  0  0  0  0  0  0  0  0
   -1.0630   -0.2000    0.0000 C   0  0  0  0  0  0  0  0  0  0  0  0
   -1.2054   -1.6932    0.0000 C   0  0  0  0  0  0  0  0  0  0  0  0
   -2.5698   -2.3165    0.0000 C   0  0  0  0  0  0  0  0  0  0  0  0
    0.0166   -2.5631    0.0000 C   0  0  0  0  0  0  0  0  0  0  0  0
    1.3810   -1.9398    0.0000 C   0  0  0  0  0  0  0  0  0  0  0  0
    1.5233   -0.4466    0.0000 C   0  0  0  0  0  0  0  0  0  0  0  0
    2.8877    0.1767    0.0000 C   0  0  0  0  0  0  0  0  0  0  0  0
    4.1097   -0.6932    0.0000 C   0  0  0  0  0  0  0  0  0  0  0  0
    3.0301    1.6699    0.0000 C   0  0  0  0  0  0  0  0  0  0  0  0
  1  2  1  0
  2  3  2  0
  3  4  1  0
  5  4  1  1
  5  6  1  0
  6  7  1  0
  7  8  1  0
  8  9  1  6
  8 10  1  0
 10 11  1  0
 11 12  1  0
 12 13  1  6
 13 14  1  0
 13 15  1  0
  7  2  1  0
  8  5  1  0
 12  6  1  0
M  END
>  <identifier>  (448) 
CNP0246337.17

>  <canonical_smiles>  (448) 
CC1=CC[C@H]2C3C1[C@]2(C)CC[C@H]3C(C)C

>  <standard_inchi>  (448) 
InChI=1S/C15H24/c1-9(2)11-7-8-15(4)12-6-5-10(3)14(15)13(11)12/h5,9,11-14H,6-8H2,1-4H3/t11-,12-,13?,14?,15+/m0/s1

>  <standard_inchi_key>  (448) 
VLXDPFLIRFYIME-APSKQVOWSA-N

>  <name>  (448) 
nan

>  <iupac_name>  (448) 
(1~{R},6~{S},8~{S})-8-isopropyl-1,3-dimethyl-tricyclo[4.4.0.0^{2,7}]dec-3-ene

>  <annotation_level>  (448) 
4

>  <total_atom_count>  (448) 
39

>  <heavy_atom_count>  (448) 
15

>  <molecular_weight>  (448) 
204.36

>  <exact_molecular_weight>  (448) 
204.1878

>  <molecular_formula>  (448) 
C15H24

>  <alogp>  (448) 
4.27

>  <topological_polar_surface_area>  (448) 
0.00

>  <rotatable_bond_count>  (448) 
1

>  <hydrogen_bond_acceptors>  (448) 
0

>  <hydrogen_bond_donors>  (448) 
0

>  <hydrogen_bond_acceptors_lipinski>  (448) 
0

>  <hydrogen_bond_donors_lipinski>  (448) 
0

>  <lipinski_rule_of_five_violations>  (448) 
0

>  <aromatic_rings_count>  (448) 
0

>  <qed_drug_likeliness>  (448) 
0.56

>  <formal_charge>  (448) 
0

>  <fractioncsp3>  (448) 
0.87

>  <number_of_minimal_rings>  (448) 
4

>  <van_der_walls_volume>  (448) 
nan

>  <contains_sugar>  (448) 
False

>  <contains_ring_sugars>  (448) 
False

>  <contains_linear_sugars>  (448) 
False

>  <murcko_framework>  (448) 
C1=CC2C3CCCC2C3C1

>  <np_likeness>  (448) 
3.17

>  <chemical_class>  (448) 
Prenol lipids

>  <chemical_sub_class>  (448) 
Sesquiterpenoids

>  <chemical_super_class>  (448) 
Lipids and lipid-like molecules

>  <direct_parent_classification>  (448) 
Sesquiterpenoids

>  <np_classifier_pathway>  (448) 
Terpenoids

>  <np_classifier_superclass>  (448) 
Sesquiterpenoids

>  <np_classifier_class>  (448) 
Copaane sesquiterpenoids

>  <np_classifier_is_glycoside>  (448) 
False

>  <organisms>  (448) 
Lippia grata

>  <collections>  (448) 
Latin America dataset|NuBBEDB

>  <dois>  (448) 
10.1021/np50017a018

>  <synonyms>  (448) 
\u221a\u00e9\u00ac\u00b1-Copaene

>  <cas>  (448) 
nan

$$$$

     RDKit          2D

 14 15  0  0  0  0  0  0  0  0999 V2000
    3.9365   -0.9286    0.0000 C   0  0  0  0  0  0  0  0  0  0  0  0
    2.5257   -0.4190    0.0000 C   0  0  0  0  0  0  0  0  0  0  0  0
    1.3790   -1.3860    0.0000 C   0  0  0  0  0  0  0  0  0  0  0  0
   -0.0318   -0.8764    0.0000 C   0  0  0  0  0  0  0  0  0  0  0  0
   -1.1785   -1.8434    0.0000 C   0  0  0  0  0  0  0  0  0  0  0  0
   -0.9144   -3.3200    0.0000 O   0  0  0  0  0  0  0  0  0  0  0  0
   -2.5893   -1.3338    0.0000 C   0  0  0  0  0  0  0  0  0  0  0  0
   -2.8534    0.1428    0.0000 C   0  0  0  0  0  0  0  0  0  0  0  0
   -1.7066    1.1097    0.0000 C   0  0  0  0  0  0  0  0  0  0  0  0
   -1.9707    2.5863    0.0000 O   0  0  0  0  0  0  0  0  0  0  0  0
   -0.2959    0.6001    0.0000 C   0  0  0  0  0  0  0  0  0  0  0  0
    0.8509    1.5671    0.0000 C   0  0  0  0  0  0  0  0  0  0  0  0
    0.5868    3.0437    0.0000 O   0  0  0  0  0  0  0  0  0  0  0  0
    2.2616    1.0575    0.0000 O   0  0  0  0  0  0  0  0  0  0  0  0
  2  1  1  6
  2  3  1  0
  3  4  1  0
  4  5  2  0
  5  6  1  0
  5  7  1  0
  7  8  2  0
  8  9  1  0
  9 10  1  0
  9 11  2  0
 11 12  1  0
 12 13  2  0
 12 14  1  0
 14  2  1  0
 11  4  1  0
M  END
>  <identifier>  (449) 
CNP0165793.2

>  <canonical_smiles>  (449) 
C[C@@H]1CC2=C(O)C=CC(O)=C2C(=O)O1

>  <standard_inchi>  (449) 
InChI=1S/C10H10O4/c1-5-4-6-7(11)2-3-8(12)9(6)10(13)14-5/h2-3,5,11-12H,4H2,1H3/t5-/m1/s1

>  <standard_inchi_key>  (449) 
OYNVCZYCJBELMQ-RXMQYKEDSA-N

>  <name>  (449) 
(3R)-5,8-dihydroxy-3-methyl-3,4-dihydroisochromen-1-one

>  <iupac_name>  (449) 
(3~{R})-5,8-dihydroxy-3-methyl-isochroman-1-one

>  <annotation_level>  (449) 
5

>  <total_atom_count>  (449) 
24

>  <heavy_atom_count>  (449) 
14

>  <molecular_weight>  (449) 
194.19

>  <exact_molecular_weight>  (449) 
194.05791

>  <molecular_formula>  (449) 
C10H10O4

>  <alogp>  (449) 
1.20

>  <topological_polar_surface_area>  (449) 
66.76

>  <rotatable_bond_count>  (449) 
0

>  <hydrogen_bond_acceptors>  (449) 
4

>  <hydrogen_bond_donors>  (449) 
2

>  <hydrogen_bond_acceptors_lipinski>  (449) 
4

>  <hydrogen_bond_donors_lipinski>  (449) 
2

>  <lipinski_rule_of_five_violations>  (449) 
0

>  <aromatic_rings_count>  (449) 
1

>  <qed_drug_likeliness>  (449) 
0.48

>  <formal_charge>  (449) 
0

>  <fractioncsp3>  (449) 
0.30

>  <number_of_minimal_rings>  (449) 
2

>  <van_der_walls_volume>  (449) 
167.59

>  <contains_sugar>  (449) 
False

>  <contains_ring_sugars>  (449) 
False

>  <contains_linear_sugars>  (449) 
False

>  <murcko_framework>  (449) 
O1Cc2ccccc2CC1

>  <np_likeness>  (449) 
1.78

>  <chemical_class>  (449) 
Benzopyrans

>  <chemical_sub_class>  (449) 
2-benzopyrans

>  <chemical_super_class>  (449) 
Organoheterocyclic compounds

>  <direct_parent_classification>  (449) 
2-benzopyrans

>  <np_classifier_pathway>  (449) 
Shikimates and Phenylpropanoids

>  <np_classifier_superclass>  (449) 
Coumarins

>  <np_classifier_class>  (449) 
Isocoumarins

>  <np_classifier_is_glycoside>  (449) 
False

>  <organisms>  (449) 
Actinopyga agassizi|Aplidium tabascum|Arcyria denudata|Aster bellidiastrum|Aster conspicuus|Azadirachta indica|Chromatium okenii|Clitocybula oculus|Crotalaria ferruginea|Dolomiaea souliei|Eucalyptus camaldulensis|Garcinia mangostana|Halimodendron halodendron|Kleinia tomentosa|Lasiodiplodia theobromae|Leptogorgia sarmentosa|Lonicera hypoleuca|Melanocarpus albomyces|Murrayella periclados|Myelochroa aurulenta|Nicotiana sylvestris|Papulaspora immersa|Parastagonospora nodorum|Poria selecta|Scleronephthya pallida|Senecio vellereus|Senna didymobotrya|Serpocaulon triseriale|Sorocea ilicifolia|Streptomyces alboniger|Streptomyces microflavus|Trametes cinnabarina|Virola venosa|Wibelia divaricata|Zanthoxylum parviflorum

>  <collections>  (449) 
CMAUP (cCollective molecular activities of useful plants)|EMNPD|NPASS|NuBBEDB|Super Natural II|TCMDB-Taiwan (Traditional Chinese Medicine database)|WikiData Natural Products|ZINC NP

>  <dois>  (449) 
10.1002/CBDV.201000011|10.1007/S10600-011-0086-Z|10.1016/J.PHYTOL.2012.11.007|10.1016/J.TET.2009.10.084|10.1016/S0031-9422(00)89350-4|10.1016/S0031-9422(00)90617-4

>  <synonyms>  (449) 
(-)-(3R)-5-hydroxymellein|AKOS040737089|BDBM50524026|CHEMBL4475937|Compound NP-024553

>  <cas>  (449) 
nan

$$$$

     RDKit          2D

 18 20  0  0  0  0  0  0  0  0999 V2000
   -2.9595    2.7205    0.0000 C   0  0  0  0  0  0  0  0  0  0  0  0
   -1.4725    2.5231    0.0000 O   0  0  0  0  0  0  0  0  0  0  0  0
   -0.8999    1.1367    0.0000 C   0  0  0  0  0  0  0  0  0  0  0  0
   -1.8143   -0.0524    0.0000 C   0  0  0  0  0  0  0  0  0  0  0  0
   -3.3013    0.1450    0.0000 O   0  0  0  0  0  0  0  0  0  0  0  0
   -3.8739    1.5314    0.0000 C   0  0  0  0  0  0  0  0  0  0  0  0
   -1.2418   -1.4388    0.0000 C   0  0  0  0  0  0  0  0  0  0  0  0
    0.2452   -1.6361    0.0000 C   0  0  0  0  0  0  0  0  0  0  0  0
    0.5170   -3.1113    0.0000 C   0  0  0  0  0  0  0  0  0  0  0  0
   -0.8020   -3.8256    0.0000 C   0  0  0  0  0  0  0  0  0  0  0  0
   -1.8889   -2.7920    0.0000 O   0  0  0  0  0  0  0  0  0  0  0  0
    1.1596   -0.4471    0.0000 C   0  0  0  0  0  0  0  0  0  0  0  0
    0.5870    0.9394    0.0000 C   0  0  0  0  0  0  0  0  0  0  0  0
    1.5014    2.1284    0.0000 C   0  0  0  0  0  0  0  0  0  0  0  0
    2.9884    1.9311    0.0000 C   0  0  0  0  0  0  0  0  0  0  0  0
    3.5609    0.5447    0.0000 C   0  0  0  0  0  0  0  0  0  0  0  0
    5.0479    0.3473    0.0000 O   0  0  0  0  0  0  0  0  0  0  0  0
    2.6466   -0.6444    0.0000 O   0  0  0  0  0  0  0  0  0  0  0  0
  1  2  1  0
  2  3  1  0
  3  4  2  0
  4  5  1  0
  5  6  1  0
  4  7  1  0
  7  8  2  0
  8  9  1  0
  9 10  2  0
 10 11  1  0
  8 12  1  0
 12 13  2  0
 13 14  1  0
 14 15  2  0
 15 16  1  0
 16 17  2  0
 16 18  1  0
 13  3  1  0
 11  7  1  0
 18 12  1  0
M  END
>  <identifier>  (450) 
CNP0179715.0

>  <canonical_smiles>  (450) 
COC1=C(OC)C2=C(C=CO2)C2=C1C=CC(=O)O2

>  <standard_inchi>  (450) 
InChI=1S/C13H10O5/c1-15-11-7-3-4-9(14)18-10(7)8-5-6-17-12(8)13(11)16-2/h3-6H,1-2H3

>  <standard_inchi_key>  (450) 
BQPRWZCEKZLBHL-UHFFFAOYSA-N

>  <name>  (450) 
pimpinellin

>  <iupac_name>  (450) 
5,6-dimethoxyfuro[2,3-h]chromen-2-one

>  <annotation_level>  (450) 
5

>  <total_atom_count>  (450) 
28

>  <heavy_atom_count>  (450) 
18

>  <molecular_weight>  (450) 
246.22

>  <exact_molecular_weight>  (450) 
246.05282

>  <molecular_formula>  (450) 
C13H10O5

>  <alogp>  (450) 
2.56

>  <topological_polar_surface_area>  (450) 
61.81

>  <rotatable_bond_count>  (450) 
2

>  <hydrogen_bond_acceptors>  (450) 
5

>  <hydrogen_bond_donors>  (450) 
0

>  <hydrogen_bond_acceptors_lipinski>  (450) 
5

>  <hydrogen_bond_donors_lipinski>  (450) 
0

>  <lipinski_rule_of_five_violations>  (450) 
0

>  <aromatic_rings_count>  (450) 
3

>  <qed_drug_likeliness>  (450) 
0.65

>  <formal_charge>  (450) 
0

>  <fractioncsp3>  (450) 
0.15

>  <number_of_minimal_rings>  (450) 
3

>  <van_der_walls_volume>  (450) 
204.02

>  <contains_sugar>  (450) 
False

>  <contains_ring_sugars>  (450) 
False

>  <contains_linear_sugars>  (450) 
False

>  <murcko_framework>  (450) 
o1ccc2c1ccc3C=CCOc32

>  <np_likeness>  (450) 
1.36

>  <chemical_class>  (450) 
Coumarins and derivatives

>  <chemical_sub_class>  (450) 
Furanocoumarins

>  <chemical_super_class>  (450) 
Phenylpropanoids and polyketides

>  <direct_parent_classification>  (450) 
Angular furanocoumarins

>  <np_classifier_pathway>  (450) 
Shikimates and Phenylpropanoids

>  <np_classifier_superclass>  (450) 
Coumarins

>  <np_classifier_class>  (450) 
Furocoumarins

>  <np_classifier_is_glycoside>  (450) 
False

>  <organisms>  (450) 
Acanthus montanus|Ajania fastigiata|Alstonia mairei|Alstonia moirei|Ambrosia arborescens|Angelica archangelica|Angelica brevicaulis|Angelica dahurica|Angelica dahurica var. formosana|Angelica genuflexa|Annona haematantha|Antidesma membranaceum|Archangelica brevicaulis|Artemisia canariensis|Axinella polycapella|Azotobacter chroococcum|Citrus reticulata|Clausena anisata|Cornicularia normoerica|Cullen drupaceum|Cyperus papyrus|Diplolaena mollis|Dorstenia Contrajerva|Dorstenia asaroides|Dorstenia bahiensis|Dorstenia barnimiana|Dorstenia brasiliensis|Dorstenia bryoniaefolia|Dorstenia bryonifolia|Dorstenia cayapiaa|Dorstenia contrajerva|Dorstenia drakena|Dorstenia excentria|Dorstenia heringeri|Dorstenia heringerii|Dorstenia lindeniana|Dorstenia psilurus|Eleutherococcus senticosus|Esenbeckia grandiflora|Esperiopsis edwardii|Garcinia parvifolia|Hansenia weberbaueriana|Heracleum asperum|Heracleum candicans|Heracleum candicans WALL.|Heracleum dissectum|Heracleum grandiflorum|Heracleum laciniatum|Heracleum lanatum|Heracleum lehmannianum|Heracleum mantegazzianum|Heracleum mantegazzianum Sommier & Levier|Heracleum maximum|Heracleum moellendoeffii|Heracleum moellendorffii|Heracleum moellendorffii Hance|Heracleum moellendorffii Hance var.paucivitatum|Heracleum moellendorffii var. paucivittatum|Heracleum persicum|Heracleum persicum (Fisch.) Desf.|Heracleum ponticum|Heracleum rapula|Heracleum scabridum|Heracleum sosnowskyi Manden.|Heracleum sphondylium|Heracleum sphondylium L. s.l. (H. sphondylium L. s.str., H. sphondylium subsp. alpinum (L.) Bonnier & Layens, H. sphondylium subsp. elegans (Crantz) Schuebl. & G. Martens and H. sphondylium  subsp. pyrenaicum (Lam.) Bonnier & Layens)|Heracleum spp.|Heracleum stevenii|Heracleum vicinum|Heracleum wolongense|Heracleum woroschiklowii|Heracleum yungningense|Hygrophila spinosa|Hypoxylon sclerophaeum|Kniphofia tuckii|Myelois cribrella|Patrinia villosa|Peucedanum govanianum var. bicolo|Peucedanum govanianum var.bicolo|Pilocarpus riedelianus|Pimpinella magna|Pimpinella major (L.) Huds.|Pimpinella nigra Mill.|Pimpinella peregrina L.|Pimpinella saxifraga|Pimpinella saxifraga L.|Pinus krempfii|Quercus sessilis|Schenkia spicata|Stellera chamaejasme|Toddalia Asiatica|Toddalia asiatica|Trixis inula|Ulosa spongia|Zanthoxylum asiaticum|Zanthoxylum echinocarpum

>  <collections>  (450) 
AnalytiCon Discovery NPs|Australian natural products|CMAUP (cCollective molecular activities of useful plants)|ChEBI NPs|FooDB|KNApSaCK|Latin America dataset|NPASS|NPEdia|NuBBEDB|Phyto4Health|Super Natural II|TCMDB-Taiwan (Traditional Chinese Medicine database)|TCMID (Traditional Chinese Medicine Integrated Database)|TPPT (Toxic Plants–PhytoToxins)|UNPD (Universal Natural Products Database)|VietHerb|WikiData Natural Products|ZINC NP

>  <dois>  (450) 
10.1002/9780470744307.gat218|10.1002/JHRC.1240080305|10.1002/PCA.1222|10.1002/PCA.2800040508|10.1002/biuz.19840140514|10.1002/food.19880321030|10.1007/BF00565845|10.1007/BF00566351|10.1007/BF00569817|10.1007/BF00570685|10.1007/BF00577207|10.1007/BF00580082|10.1007/BF00600845|10.1007/BF00630133|10.1007/BF00993733|10.1007/BF02249699|10.1007/S11418-008-0266-8|10.1016/0031-9422(75)85267-8|10.1016/0031-9422(81)85120-5|10.1016/0031-9422(81)85291-0|10.1016/0031-9422(93)80055-W|10.1016/0031-9422(95)00564-1|10.1016/J.FITOTE.2003.08.004|10.1016/S0021-9673(00)00321-6|10.1016/S0031-9422(00)00419-2|10.1016/S0031-9422(00)85242-5|10.1016/j.bse.2005.03.002|10.1021/NP50047A020|10.1055/S-0034-1368568|10.1076/1388-0209(200009)3841-AFT308|10.1080/10286020290019677|10.1107/S0108270104023777|10.1111/J.1600-0536.1983.TB04386.X|10.1248/CPB.53.701|10.1590/S0100-40422009000800010|10.1590/S0103-50531997000500016

>  <synonyms>  (450) 
131-12-4|2H-Furo(2,3-h)-1-benzopyran-2-one, 5,6-dimethoxy-|5,6-DIMETHOXY-2H-FURO(2,3-H)-1-BENZOPYRAN-2-ONE|5,6-Dimethoxy-2H-furo[2,3-H]chromen-2-one|5,6-dimethoxy-2h-furo[2,3-h]-1-benzopyran-2-one|5,6-dimethoxyfuro[2,3-h]chromen-2-one|6,7-Dimethoxyangelicin|AC-34304|AKOS000277261|BQPRWZCEKZLBHL-UHFFFAOYSA-N|BRD-K93197368-001-02-9|BSPBio_002708|C09285|CCG-40044|CCRIS 4344|CHEBI:8213|CHEMBL1491809|CS-0008956|D419UK1B4L|DTXSID20156831|DivK1c_001025|HMS1923E17|HMS3886B20|HMS503M11|HSDB 8481|HY-N0438|IDI1_001025|KBio1_001025|KBio2_000897|KBio2_003465|KBio2_006033|KBio3_002208|KBioGR_002397|KBioSS_000897|MEGxp0_001831|MS-23480|NCGC00095242-01|NINDS_001025|NS00094646|PIMPINELIN|PIMPINELLIN [MI]|Pimpinecilin|Pimpinelline|Q-100121|Q3905067|SCHEMBL2255899|SDCCGMLS-0066532.P001|SPBio_000939|SPECTRUM300013|SR-05000002492|Spectrum2_000720|Spectrum3_001234|Spectrum4_001957|Spectrum5_000769|Spectrum_000417|UNII-D419UK1B4L|pimpinellin|s9176

>  <cas>  (450) 
131-12-4

$$$$

     RDKit          2D

 32 34  0  0  0  0  0  0  0  0999 V2000
    0.8770   -3.4680    0.0000 C   0  0  0  0  0  0  0  0  0  0  0  0
    2.0916   -2.5878    0.0000 C   0  0  0  0  0  0  0  0  0  0  0  0
    3.5176   -3.0530    0.0000 C   0  0  0  0  0  0  0  0  0  0  0  0
    3.9794   -4.4802    0.0000 O   0  0  0  0  0  0  0  0  0  0  0  0
    4.4008   -1.8405    0.0000 O   0  0  0  0  0  0  0  0  0  0  0  0
    3.5205   -0.6260    0.0000 C   0  0  0  0  0  0  0  0  0  0  0  0
    4.4037    0.5865    0.0000 C   0  0  0  0  0  0  0  0  0  0  0  0
    4.4055    2.0865    0.0000 C   0  0  0  0  0  0  0  0  0  0  0  0
    5.8326    2.5483    0.0000 C   0  0  0  0  0  0  0  0  0  0  0  0
    3.5252    3.3011    0.0000 C   0  0  0  0  0  0  0  0  0  0  0  0
    2.0992    3.7663    0.0000 C   0  0  0  0  0  0  0  0  0  0  0  0
    0.6721    3.3045    0.0000 C   0  0  0  0  0  0  0  0  0  0  0  0
   -0.2111    2.0920    0.0000 C   0  0  0  0  0  0  0  0  0  0  0  0
   -1.6371    2.5573    0.0000 C   0  0  0  0  0  0  0  0  0  0  0  0
   -2.3414    2.1839    0.0000 O   0  0  0  0  0  0  0  0  0  0  0  0
   -1.9472    4.0249    0.0000 O   0  0  0  0  0  0  0  0  0  0  0  0
   -3.3732    4.4901    0.0000 C   0  0  0  0  0  0  0  0  0  0  0  0
   -0.2129    0.5920    0.0000 C   0  0  0  0  0  0  0  0  0  0  0  0
   -1.6400    0.1302    0.0000 O   0  0  0  0  0  0  0  0  0  0  0  0
   -2.7535    1.1352    0.0000 C   0  0  0  0  0  0  0  0  0  0  0  0
   -4.1807    0.6734    0.0000 C   0  0  0  0  0  0  0  0  0  0  0  0
   -2.5477    2.0976    0.0000 O   0  0  0  0  0  0  0  0  0  0  0  0
    0.6674   -0.6226    0.0000 C   0  0  0  0  0  0  0  0  0  0  0  0
   -0.2158   -1.8350    0.0000 O   0  0  0  0  0  0  0  0  0  0  0  0
   -1.7074   -1.6764    0.0000 C   0  0  0  0  0  0  0  0  0  0  0  0
   -2.6295   -0.4934    0.0000 O   0  0  0  0  0  0  0  0  0  0  0  0
   -2.5905   -2.8889    0.0000 C   0  0  0  0  0  0  0  0  0  0  0  0
   -1.5498   -3.9692    0.0000 C   0  0  0  0  0  0  0  0  0  0  0  0
   -3.8351   -3.7262    0.0000 O   0  0  0  0  0  0  0  0  0  0  0  0
   -3.9379   -2.2297    0.0000 C   0  0  0  0  0  0  0  0  0  0  0  0
   -4.7752   -0.9852    0.0000 C   0  0  0  0  0  0  0  0  0  0  0  0
    2.0934   -1.0878    0.0000 C   0  0  0  0  0  0  0  0  0  0  0  0
  1  2  2  0
  2  3  1  0
  3  4  2  0
  3  5  1  0
  6  5  1  1
  6  7  1  0
  7  8  2  0
  8  9  1  0
  8 10  1  0
 10 11  1  0
 11 12  1  0
 12 13  2  0
 13 14  1  0
 14 15  2  0
 14 16  1  0
 16 17  1  0
 13 18  1  0
 18 19  1  1
 19 20  1  0
 20 21  1  0
 20 22  2  0
 18 23  1  0
 23 24  1  6
 24 25  1  0
 25 26  2  0
 25 27  1  0
 27 28  1  6
 27 29  1  0
 29 30  1  0
 30 31  1  1
 23 32  1  0
 32  2  1  6
 32  6  1  0
 30 27  1  0
M  END
>  <identifier>  (451) 
CNP0331571.1

>  <canonical_smiles>  (451) 
C=C1C(=O)O[C@@H]2/C=C(/C)CC/C=C(/C(=O)OC)[C@H](OC(C)=O)[C@@H](OC(=O)[C@@]3(C)O[C@H]3C)[C@@H]12

>  <standard_inchi>  (451) 
InChI=1S/C23H28O9/c1-11-8-7-9-15(21(26)28-6)18(29-14(4)24)19(31-22(27)23(5)13(3)32-23)17-12(2)20(25)30-16(17)10-11/h9-10,13,16-19H,2,7-8H2,1,3-6H3/b11-10-,15-9+/t13-,16+,17-,18-,19-,23-/m0/s1

>  <standard_inchi_key>  (451) 
JIEVJXRUYDZFTD-FOVHWDCHSA-N

>  <name>  (451) 
UVEDALIN

>  <iupac_name>  (451) 
methyl (3~{a}~{S},4~{S},5~{S},6~{E},10~{Z},11~{a}~{R})-5-acetoxy-4-[(2~{S},3~{S})-2,3-dimethyloxirane-2-carbonyl]oxy-10-methyl-3-methylene-2-oxo-3~{a},4,5,8,9,11~{a}-hexahydrocyclodeca[b]furan-6-carboxylate

>  <annotation_level>  (451) 
5

>  <total_atom_count>  (451) 
60

>  <heavy_atom_count>  (451) 
32

>  <molecular_weight>  (451) 
448.47

>  <exact_molecular_weight>  (451) 
448.17333

>  <molecular_formula>  (451) 
C23H28O9

>  <alogp>  (451) 
1.94

>  <topological_polar_surface_area>  (451) 
117.73

>  <rotatable_bond_count>  (451) 
4

>  <hydrogen_bond_acceptors>  (451) 
9

>  <hydrogen_bond_donors>  (451) 
0

>  <hydrogen_bond_acceptors_lipinski>  (451) 
9

>  <hydrogen_bond_donors_lipinski>  (451) 
0

>  <lipinski_rule_of_five_violations>  (451) 
0

>  <aromatic_rings_count>  (451) 
0

>  <qed_drug_likeliness>  (451) 
0.21

>  <formal_charge>  (451) 
0

>  <fractioncsp3>  (451) 
0.57

>  <number_of_minimal_rings>  (451) 
3

>  <van_der_walls_volume>  (451) 
403.88

>  <contains_sugar>  (451) 
False

>  <contains_ring_sugars>  (451) 
False

>  <contains_linear_sugars>  (451) 
False

>  <murcko_framework>  (451) 
O1CCC2C1C=CCCC=CCC2OCC3OC3

>  <np_likeness>  (451) 
2.96

>  <chemical_class>  (451) 
Prenol lipids

>  <chemical_sub_class>  (451) 
Terpene lactones

>  <chemical_super_class>  (451) 
Lipids and lipid-like molecules

>  <direct_parent_classification>  (451) 
Germacranolides and derivatives

>  <np_classifier_pathway>  (451) 
Terpenoids

>  <np_classifier_superclass>  (451) 
Sesquiterpenoids

>  <np_classifier_class>  (451) 
Germacrane sesquiterpenoids

>  <np_classifier_is_glycoside>  (451) 
False

>  <organisms>  (451) 
Enydra fluctuans|Polymnia sonchifolia|Smallanthus sonchifolius

>  <collections>  (451) 
ChemSpider NPs|Latin America dataset|NuBBEDB|WikiData Natural Products|ZINC NP

>  <dois>  (451) 
10.1016/0031-9422(95)00023-Z|10.1016/S0031-9422(00)00500-8|10.1039/C3CC46213G|10.1271/BBB.67.2154|10.1590/S1517-83822006000200018

>  <synonyms>  (451) 
Uvedalin

>  <cas>  (451) 
nan

$$$$

     RDKit          2D

  6  5  0  0  0  0  0  0  0  0999 V2000
   -2.8748   -0.2197    0.0000 C   0  0  0  0  0  0  0  0  0  0  0  0
   -1.4825    0.3386    0.0000 C   0  0  0  0  0  0  0  0  0  0  0  0
   -0.3029   -0.5880    0.0000 O   0  0  0  0  0  0  0  0  0  0  0  0
    1.0893   -0.0297    0.0000 C   0  0  0  0  0  0  0  0  0  0  0  0
    2.2689   -0.9563    0.0000 C   0  0  0  0  0  0  0  0  0  0  0  0
    1.3020    1.4551    0.0000 O   0  0  0  0  0  0  0  0  0  0  0  0
  1  2  1  0
  2  3  1  0
  3  4  1  0
  4  5  1  0
  4  6  2  0
M  END
>  <identifier>  (452) 
CNP0322418.0

>  <canonical_smiles>  (452) 
CCOC(C)=O

>  <standard_inchi>  (452) 
InChI=1S/C4H8O2/c1-3-6-4(2)5/h3H2,1-2H3

>  <standard_inchi_key>  (452) 
XEKOWRVHYACXOJ-UHFFFAOYSA-N

>  <name>  (452) 
ETHYL ACETATE

>  <iupac_name>  (452) 
ethyl acetate

>  <annotation_level>  (452) 
5

>  <total_atom_count>  (452) 
14

>  <heavy_atom_count>  (452) 
6

>  <molecular_weight>  (452) 
88.11

>  <exact_molecular_weight>  (452) 
88.05243

>  <molecular_formula>  (452) 
C4H8O2

>  <alogp>  (452) 
0.57

>  <topological_polar_surface_area>  (452) 
26.30

>  <rotatable_bond_count>  (452) 
1

>  <hydrogen_bond_acceptors>  (452) 
2

>  <hydrogen_bond_donors>  (452) 
0

>  <hydrogen_bond_acceptors_lipinski>  (452) 
2

>  <hydrogen_bond_donors_lipinski>  (452) 
0

>  <lipinski_rule_of_five_violations>  (452) 
0

>  <aromatic_rings_count>  (452) 
0

>  <qed_drug_likeliness>  (452) 
0.44

>  <formal_charge>  (452) 
0

>  <fractioncsp3>  (452) 
0.75

>  <number_of_minimal_rings>  (452) 
0

>  <van_der_walls_volume>  (452) 
91.30

>  <contains_sugar>  (452) 
False

>  <contains_ring_sugars>  (452) 
False

>  <contains_linear_sugars>  (452) 
False

>  <murcko_framework>  (452) 
nan

>  <np_likeness>  (452) 
0.42

>  <chemical_class>  (452) 
Carboxylic acids and derivatives

>  <chemical_sub_class>  (452) 
Carboxylic acid derivatives

>  <chemical_super_class>  (452) 
Organic acids and derivatives

>  <direct_parent_classification>  (452) 
Carboxylic acid esters

>  <np_classifier_pathway>  (452) 
Fatty acids

>  <np_classifier_superclass>  (452) 
Fatty esters

>  <np_classifier_class>  (452) 
Wax monoesters

>  <np_classifier_is_glycoside>  (452) 
False

>  <organisms>  (452) 
Acca sellowiana|Actinidia chinensis|Agaricus bisporus|Akebia quinata|Akebia trifoliata|Alangium premnifolium|Aloe africana|Aloe ferox|Aloe spicata|Aloe vera|Amorphophallus annulifer|Amorphophallus haematospadix|Ananas comosus|Angelica acutiloba|Angelica gigas|Angelica sinensis|Angelica tarokoensis|Annona muricata|Anthemis nobilis|Aster scaber|Basella alba|Bombax ceiba|Bragantia wallichii|Capsicum annuum|Carica papaya|Carthamus tinctorius|Chamaecyparis formosensis|Cinnamomum sieboldii|Citrullus lanatus|Citrus Sinensis|Citrus limonia|Citrus sinensis|Citrus sinensis L.|Coffea arabica|Colobocentrotus atratus|Corynocarpus laevigatus|Croton lechleri Mull.Arg.|Cucumis melo|Delphinium andersoni|Dendrobium superbum|Diphasia angolensis|Durio zibethinus|Epimedium davidii|Equisetum arvense|Erysimum odoratum|Escherichia coli|Eupolyphaga sinensis|Eutypella scoparia|Exospermum stipitatum|FOOD SAKE|Feijoa sellowiana|Freesia hybrida|Frullania tamarisci|Fusarium poae|Galenia africana|Globba malaccensis|Gnidia lamprantha|Gossypium hirsutum|Hansenula anomala|Helicobacter pylori|Heterotheca inuloides|Homo sapiens|Humulus japonicus|Ilex amara|Isodon japonicus|Knightia excelsa|Laurencia distichophylla|Leonurus glaucescens|Lepidium draba|Lucensosergia lucens|Maba buxifolia|Magnolia obovata|Malus domestica|Malus pumila|Mangifera indica|Matsutake|Micromeria pineolens|Nemalion vermiculare|Nidula candida|Olea Europaea|Olea europaea|Ophiocoma scolopendrina|Opuntia ficus-indica|Osmanthus fragrans|Parkia speciosa|Passiflora edulis|Penicillium citreonigrum|Peristeria elata|Plectranthus glabratus|Plumeria rubra|Polygala senega|Psidium friedrichsthalianum|Psidium guajava|Quercus sessiliflora|Rhizophora mangle|Rubus spp.|Saccharomyces cerevisiae|Salacia madagascariensis|Salicornia depressa|Salicornia europaea|Salicornia maritima|Saussurea carthamoides|Saussurea lappa|Solanum acaule|Solanum betaceum|Spodoptera eridania|Spondias mombin|Streptomyces griseovariabilis|Swertia delavayi|Swertia japonica|Vaccinium angustifolium|Vaccinium ashei|Vaccinium corymbosum|Vaccinium macrocarpon|Vaccinium virgatum|Vaccinium vitis-idaea|Vallota purpurea|Vinegar|Vismia jefensis|Vitis rotundifolia|Vitis vinifera|Wickerhamomyces anomalus|Zingiber mioga|Zingiber officinale|Zygogynum spp.|cacao|common sunflower|maize|pomegranate|star fruit

>  <collections>  (452) 
Australian natural products|CMAUP (cCollective molecular activities of useful plants)|ChEBI NPs|EMNPD|ETM (Ethiopian Traditional Medicine) DB|FooDB|KNApSaCK|Latin America dataset|NAPRORE-CR|NPASS|NPDBEjeCol|NPEdia|NuBBEDB|PeruNPDB|Phyto4Health|Super Natural II|TCMDB-Taiwan (Traditional Chinese Medicine database)|TCMID (Traditional Chinese Medicine Integrated Database)|UNPD (Universal Natural Products Database)|VietHerb|Watermelon|WikiData Natural Products

>  <dois>  (452) 
10.1002/FFJ.1248|10.1002/FFJ.2730070108|10.1002/FFJ.2730100408|10.1002/FOOD.19810250610|10.1006/JFCA.1997.0535|10.1016/0031-9422(81)84057-5|10.1016/0031-9422(82)80138-6|10.1016/0031-9422(88)80124-9|10.1016/0889-1575(91)90017-Z|10.1016/J.FOODRES.2010.03.001|10.1016/J.FOODRES.2014.05.051|10.1016/S0031-9422(00)86412-2|10.1016/S0031-9422(00)97781-1|10.1016/S0031-9422(97)00221-5|10.1016/S0031-9422(97)00730-9|10.1016/j.cgh.2013.02.015|10.1016/j.lwt.2023.115213|10.1016/j.talanta.2011.12.041|10.1021/JF00034A033|10.1021/JF00062A009|10.1021/JF00069A050|10.1021/JF00085A053|10.1021/JF00094A032|10.1021/JF00112A014|10.1021/JF00123A021|10.1021/JF0402633|10.1021/JF60160A010|10.1021/JF60160A011|10.1021/JF60200A011|10.1021/JF60209A051|10.1021/JF60218A053|10.1021/JF60220A012|10.1021/JF960191I|10.1021/jf011456i|10.1042/BJ0490062|10.1071/CH9721921|10.1071/ch9721921|10.1080/00021369.1984.10866348|10.1080/0028825X.1984.10425264|10.1080/10412905.1989.9697802|10.1080/10412905.1992.9698106|10.1080/10412905.1992.9698127|10.1080/10412905.1993.9698226|10.1080/10412905.1994.9699345|10.1080/10412905.2001.9699622|10.1080/10575630108041277|10.1080/10942912.2016.1155057|10.1080/14620316.2003.11511610|10.1080/14786410601129598|10.1111/J.1365-2621.1983.TB14849.X|10.1111/J.1365-2621.1987.TB14284.X|10.1111/J.1365-2621.1997.TB03978.X|10.1135/CCCC19570139|10.1155/2019/6764756|10.1246/BCSJ.56.3477|10.1248/YAKUSHI1947.106.1_17|10.1271/BBB1961.45.373|10.1271/BBB1961.48.2843|10.1271/BBB1961.55.1655|10.1590/S0100-40422002000700009|10.3136/FSTR.7.200|10.3390/METABO4040932|10.3390/MOLECULES23030604|10.3891/ACTA.CHEM.SCAND.21-0945|10.3891/ACTA.CHEM.SCAND.21-2076|10.5530/phrev.2019.2.4

>  <synonyms>  (452) 
1-acetoxyethane|1-ethyl acetate|141-78-6|2~ethyl acetate|76845O8NMZ|A0030|A807811|ACETIC ACID,ETHYL ESTER|AI3-00404|AKOS000121947|AcOEt|Acetate d'ethyle|Acetate d'ethyle [French]|Acetato de etilo|Acetato de etilo [Spanish]|Acetic acid ethyl ester|Acetic ether|Acetidin|Acetoxyethane|Acetyl ester|Aethylacetat|Aethylacetat [German]|BDBM50128823|C00849|CAS-141-78-6|CCRIS 6036|CH3-CO-O-CH3|CH3CO2CH2CH3|CH3CO2Et|CH3COOC2H5|CHEBI:27750|CHEMBL14152|Caswell No. 429|D02319|DTXCID602001|DTXSID1022001|E1504|EC 205-500-4|EINECS 205-500-4|EN300-31487|EPA Pesticide Chemical Code 044003|ETHYL ACETATE (1-13C)|ETHYL ACETATE (EP MONOGRAPH)|ETHYL ACETATE (II)|ETHYL ACETATE (MART.)|ETHYL ACETATE [FCC]|ETHYL ACETATE [FHFI]|ETHYL ACETATE [HSDB]|ETHYL ACETATE [II]|ETHYL ACETATE [USP-RS]|ETHYL ACETATE [WHO-DD]|Epitope ID:116868|Essigester|Essigester [German]|Essigsaeureethylester|EtOAc|Ethyl Acetate, HPLC|Ethyl Acetate, Pharmaceutical Secondary Standard; Certified Reference Material|Ethyl acetate (NF)|Ethyl acetate (natural)|Ethyl acetate 100 microg\/mL in Acetonitrile|Ethyl acetate HPLC grade|Ethyl acetate [NF]|Ethyl acetate [UN1173]  [Flammable liquid]|Ethyl acetate, 99.9%|Ethyl acetate, 99.9% low benzene|Ethyl acetate, >=99%, FCC, FG|Ethyl acetate, ACS grade|Ethyl acetate, ACS reagent|Ethyl acetate, ACS reagent, >=99.5%|Ethyl acetate, AR, >=99%|Ethyl acetate, Environmental Grade|Ethyl acetate, HPLC grade, 99.8%|Ethyl acetate, JIS special grade, >=99.5%|Ethyl acetate, Laboratory Reagent, >=99.0% (GC)|Ethyl acetate, PRA grade, >=99.5%|Ethyl acetate, ReagentPlus(R), >=99.5%|Ethyl acetate, SAJ first grade, >=99.0%|Ethyl acetate, Spectrophotometric Grade|Ethyl acetate, UV-IR min. 99.8%, isocratic grade|Ethyl acetate, United States Pharmacopeia (USP) Reference Standard|Ethyl acetate, analytical standard|Ethyl acetate, anhydrous, 99.8%|Ethyl acetate, biotech. grade, >=99.8%|Ethyl acetate, capillary GC grade, >=99.5%|Ethyl acetate, for HPLC|Ethyl acetate, for HPLC, >=99.5%|Ethyl acetate, for HPLC, >=99.8% (GC)|Ethyl acetate, natural, >=99%, FCC, FG|Ethyl acetate, puriss. p.a., ACS reagent, >=99.5% (GC)|Ethyl acetate, puriss. p.a., ACS reagent, reag. ISO, reag. Ph. Eur., >=99.5% (GC)|Ethyl acetate, puriss. p.a., free of higher boiling impurities, >=99.9% (GC)|Ethyl acetate, puriss., meets analytical specification of Ph. Eur., BP, NF, >=99.5% (GC)|Ethyl acetate, tested according to Ph.Eur.|Ethyl acetate; Ethyl ethanoate|Ethyl acetic ester|Ethyl ester of acetic acid|Ethyl ethanoate|Ethylacetaat [Dutch]|Ethylacetate|Ethylacetate, pure, meets the analytical specifications of Ph. Eur.|Ethylazetat|Ethyle (acetate d')|Ethyle (acetate d') [French]|Ethylester kyseliny octove|Ethylester kyseliny octove [Czech]|Etile (acetato di)|Etile (acetato di) [Italian]|F0001-0489|FEMA No. 2414|HSDB 83|InChI=1\/C4H8O2\/c1-3-6-4(2)5\/h3H2,1-2H|J-007556|J-521240|MFCD00009171|NCGC00091766-01|NCGC00260061-01|NS00004207|NSC 70930|NSC-70930|Octan etylu|Octan etylu [Polish]|Q0040|Q407153|RCRA waste no. U112|RCRA waste number U112|STL282717|Tox21_111166|Tox21_202512|UN1173|UNII-76845O8NMZ|Vinegar naphtha|WLN: 2OV1|acet-eth-ester|acet-ethylester|acetic acid ethyl|acetic ethyl ester|acetic-acid-ethylester|c0036|ehtyl acetate|ethanol acetate|ethly acetate|ethyl-acetate|ethylacteate|for HPLC,99.9%

>  <cas>  (452) 
141-78-6

$$$$

     RDKit          2D

 11 12  0  0  0  0  0  0  0  0999 V2000
   -3.7110    0.7996    0.0000 O   0  0  0  0  0  0  0  0  0  0  0  0
   -2.3117    0.2594    0.0000 C   0  0  0  0  0  0  0  0  0  0  0  0
   -2.0798   -1.2225    0.0000 C   0  0  0  0  0  0  0  0  0  0  0  0
   -0.6805   -1.7627    0.0000 C   0  0  0  0  0  0  0  0  0  0  0  0
    0.4870   -0.8209    0.0000 C   0  0  0  0  0  0  0  0  0  0  0  0
    1.8864   -1.3611    0.0000 C   0  0  0  0  0  0  0  0  0  0  0  0
    3.0539   -0.4194    0.0000 C   0  0  0  0  0  0  0  0  0  0  0  0
    2.8220    1.0626    0.0000 C   0  0  0  0  0  0  0  0  0  0  0  0
    1.4227    1.6028    0.0000 C   0  0  0  0  0  0  0  0  0  0  0  0
    0.2552    0.6610    0.0000 C   0  0  0  0  0  0  0  0  0  0  0  0
   -1.1442    1.2012    0.0000 O   0  0  0  0  0  0  0  0  0  0  0  0
  1  2  2  0
  2  3  1  0
  3  4  2  0
  4  5  1  0
  5  6  2  0
  6  7  1  0
  7  8  2  0
  8  9  1  0
  9 10  2  0
 10 11  1  0
 11  2  1  0
 10  5  1  0
M  END
>  <identifier>  (453) 
CNP0225025.0

>  <canonical_smiles>  (453) 
O=C1C=CC2=CC=CC=C2O1

>  <standard_inchi>  (453) 
InChI=1S/C9H6O2/c10-9-6-5-7-3-1-2-4-8(7)11-9/h1-6H

>  <standard_inchi_key>  (453) 
ZYGHJZDHTFUPRJ-UHFFFAOYSA-N

>  <name>  (453) 
coumarin

>  <iupac_name>  (453) 
chromen-2-one

>  <annotation_level>  (453) 
5

>  <total_atom_count>  (453) 
17

>  <heavy_atom_count>  (453) 
11

>  <molecular_weight>  (453) 
146.14

>  <exact_molecular_weight>  (453) 
146.03678

>  <molecular_formula>  (453) 
C9H6O2

>  <alogp>  (453) 
1.79

>  <topological_polar_surface_area>  (453) 
30.21

>  <rotatable_bond_count>  (453) 
0

>  <hydrogen_bond_acceptors>  (453) 
2

>  <hydrogen_bond_donors>  (453) 
0

>  <hydrogen_bond_acceptors_lipinski>  (453) 
2

>  <hydrogen_bond_donors_lipinski>  (453) 
0

>  <lipinski_rule_of_five_violations>  (453) 
0

>  <aromatic_rings_count>  (453) 
2

>  <qed_drug_likeliness>  (453) 
0.53

>  <formal_charge>  (453) 
0

>  <fractioncsp3>  (453) 
0.00

>  <number_of_minimal_rings>  (453) 
2

>  <van_der_walls_volume>  (453) 
126.94

>  <contains_sugar>  (453) 
False

>  <contains_ring_sugars>  (453) 
False

>  <contains_linear_sugars>  (453) 
False

>  <murcko_framework>  (453) 
O1c2ccccc2C=CC1

>  <np_likeness>  (453) 
0.23

>  <chemical_class>  (453) 
Coumarins and derivatives

>  <chemical_sub_class>  (453) 
Coumarins and derivatives

>  <chemical_super_class>  (453) 
Phenylpropanoids and polyketides

>  <direct_parent_classification>  (453) 
Coumarins and derivatives

>  <np_classifier_pathway>  (453) 
Shikimates and Phenylpropanoids

>  <np_classifier_superclass>  (453) 
Coumarins

>  <np_classifier_class>  (453) 
Simple coumarins

>  <np_classifier_is_glycoside>  (453) 
False

>  <organisms>  (453) 
Abies sp.|Achlys triphylla|Acourtia cordata|Ageratum conyzoides|Ageratum corymbosum|Agrianthus pungens|Ajuga laxmannii|Alangium platanifolium|Alectoria japonica|Althaea armeniaca|Althaea officinalis|Alyxia lucida|Alyxia reinwardtii|Amburana cearensis|Amelanchier vulgaris|Angelica dahurica|Angelica decursiva|Angiopteris evecta|Aniba duckei|Anisodus tanguticus|Anthemis|Anthoxanthum odoratum L.|Aplysina laevis|Artemisia Annua|Artemisia annua|Artemisia annua L.|Artemisia anomala|Artemisia capillaris|Artemisia laciniata|Artemisia lehmanniana|Artemisia ludoviciana|Artemisia reptans|Artemisia rutifolia|Artemisia vulgaris|Asparagus Officinalis|Asparagus officinalis|Aspergillus phoenicis|Asperula odora|Aster ageratoides|Aster oharai|Astragalus zahlbruckneri|Avena fatua|Axinella cannabina|Balanus glandula|Bufotes viridis|Butea superba|Byrsonima microphylla|Caenorhabditis elegans|Calea pilosa|Callerya cinerea|Calophyllum brasiliense|Caragana frutex|Carlina acanthifolia|Cassipourea guianensis|Castanopsis eyrei|Centaurea besseriana|Chamomilla recutita|Chromolaena tunariensis|Cichorium intybus|Cinamomum cassia|Cineraria geifolia|Cinnamomum Cassia|Cinnamomum Loureirii|Cinnamomum aromaticum|Cinnamomum burmanni|Cinnamomum burmannii Nees ex BI|Cinnamomum cassia|Cinnamomum insulari-montanum|Cinnamomum loureirii|Cinnamomum macrostemon|Cinnamomum sieboldii|Cinnamomum sp.|Cinnamomum yabunikkei|Cinnamomum zeylanicum|Cinnamon|Citrullus lanatus|Citrus grandis|Citrus × paradisi|Clausena excavata|Cnidium monieri|Cnidium monnieri|Colchicum decaisnei|Conocybe siliginea|Conyza bonariensis|Coriandrum sativum|Corydalis ochotensis|Coussarea paniculata|Crocodylus niloticus|Crotalaria madurensis|Croton penduliflorus|Cryptocarya amygdalina|Cullen drupaceum|Curcuma longa|Cyperus rotundus|Dactylaria lutea|Dalea tuberculata|Daphne mucronata|Datura sp.|Daucus Carota|Daucus carota|Daucus carota subsp. sativus (Hoffm.) Schuebl. & G. Martens|Delphinium cashmerianum|Dendrilla membranosa|Dendrobium aurantiacum|Dendrobium chryseum|Dendrobium nobile|Dendroctonus ponderosae|Dendronephthya gigantea|Dianthus chinensis|Dianthus superbus|Diaporthe amygdali|Diaporthe helianthi|Dictamnus gymnostylis|Dipteryx odorata|Dipteryx punctata|Dipteryx sp.|Dolichandrone crispa|Elaeis guineensis|Ephydatia syriaca|Eremocarpus setiger|Eremostachys moluccelloides|Eucalyptus decorticans|Eucalyptus viminalis|Eunicea pinta|Eupatorium cannabinum|Eupatorium formosanum|Eupatorium fortunei|Eupatorium japonicum|Eupatorium odoratum|Euphorbia characias|Euphorbia lathyris|Euryops rupestris|Fagopyrum esculentum|Ficus simplicissima|Galium odoratum (L.) Scop.|Galium sp.|Gelatoporia subvermispora|Gliricidia Gliricidia sepium|Gliricidia sepium|Glycyrrhiza glabra|Glycyrrhiza inflata|Glycyrrhiza uralensis|Gremmeniella abietina|Guarea trichilioides|Haldina cordifolia|Halocarpus biformis|Halocnemum strobilaceum|Hansenia forbesii|Hansenia weberbaueriana|Haplophyllum buxbaumii|Helichrysum davenportii|Heliotropium amplexicaule|Heuchera cylindrica|Hevea brasiliensis|Hierochloe odorata (L.) P. Beauv.|Hierochloe sp.|Holarrhena febrifuga|Holboellia fargesi|Homo sapiens|Hydnellum suaveolens|Hydrocotyle Sibthorpioides|Hydrocotyle leucocephala|Hydrocotyle sibthorpioides|Hydrophyllum sp.|Hydrophyllum tenuipes|Hydrophyllum virginianum|Hymenocallis speciosa|Hypericum carinatum|Hypericum japonicum|Hypoxylon carneum|Iberis amara|Impatiens siculifer|Impatiens sicullfer|Iochroma australe|Iris|Isodon gesneroides|Ixora coccinea|Juniperus sp.|Justicia pectoralis|Kloeckera brevis|Laetia corymbulosa|Lastrea thelypteris|Laurencia snyderiae|Lavandula angustifolia|Lavandula latifolia|Lavandula sp.|Lecidella chodati|Liatris squarrosa|Ligularia pleurocaulis|Litsea konishii|Litsea verticillata|Lomatia silaifolia|Lonchocarpus salvadorensis|Lychnophora columnaris|Maianthemum bifolium (L.) F. W. Schmidt|Mantisalca salmantica|Matricaria chamomilla|Matsutake|Maytenus hookeri|Medicago sativa|Melanophryniscus moreirae|Melilotus albus Medik.|Melilotus altissimus Thuill.|Melilotus altus|Melilotus messanensis|Melilotus officinalis|Melilotus officinalis Lam.|Melilotus siculus|Melilotus sp.|Melittis melissophyllum L.|Menyanthes trifoliata L.|Mikania glomerata|Mikania micrantha|Morus alba|Mussaenda parviflora|Nama johnstonii|Nepeta multifida|Nidorella anomala|Nidorella hottentotica|Nierembergia hippomanica|Nigritella suaveolens|Nocardia brasiliensis|Ophelia bicornis|Ophioglossum petiolatum|Orchis militaris|Orchis sp.|Oryza sativa|Osmanthus heterophyllus|Ostericum grosseserratum|Oyedaea verbesinoides|Panax papyrifer|Penicillium olsonii|Perezia hebeclada|Periploca calophylla|Petchia erythrocarpa|Petrorhagia dubia|Peucedanum praeruptorum|Phaleria cumingii|Phaseolus vulgaris|Phebalium megaphyllum|Picea abies|Pilocarpus spicatus|Piper sanctum|Plectranthus purpuratus|Pluchea suaveolens|Polygala senega|Polygonum mite|Polygonum weyrichii|Populus tomentosa|Potentilla erecta|Potentilla sp.|Potentilla tormentilla|Prumnopitys ferruginoides|Prunus lusitanica|Prunus mahaleb|Prunus persica|Pseudaegle trifoliata|Pteridium aquilinum|Pterocarpus sp.|Pterocaulon|Pulveroboletus retipes|Pyrola calliantha|Rabdosia loxothyrsa|Ranunculus acris|Rhododendron formosanum|Rhodopila globiformis|Rosa sp.|Rudbeckia fulgida var. speciosa|Rudbeckia laciniata|Rudbeckia subtomentosa|Rudbeckia triloba|Rutaceae|Salvia officinalis|Sarcandra glabra|Scabiosa comosa|Scapholeberis mucronata|Sempervivum ruthenicum|Senecio gilliesianus|Senecio rupestris|Seseli peucedanoides|Simaba orinocensis|Skimmia laureola|Solanum aculeatum|Solanum berthaultii|Sophora davidii|Sophora tometosa|Sphoeroides vermicularis|Stereocaulon leprocauloides|Stevia connata|Stichopus chloronotus|Streptomyces|Streptomyces PM9|Streptomyces incarnatus|Streptomyces lomondensis|Streptomyces rugosporus|Sweet Woodruff|Tabernaemontana glandulosa|Tephrosia pumila|Tephrosia vogelii|Tetrapanax Papyriferus|Tetrapanax papyrifer|Tetrapanax papyriferus|Thaminophyllum multiflorum|Thapsia garganica|Thorecta marginalis|Thymus vulgaris|Torilis japonica|Torresea cearensis|Trichomanes reniforme|Ursinia abrotanifolia|Ursinia dentata|Ursinia trifida|Uvaria afzelii|Vanilla planifolia|Vepris louisii|Verbascum thapsus|Viburnum cylindricum|Vicia benghalensis|Virola sebifera|Vitis silvestris|Walsura tubulata|Xerula melanotricha|Yponomeuta mahalebella|Yponomeuta mahalebellus|Zosima korovinii|pomelo|pterocaulon sp.

>  <collections>  (453) 
ANPDB|Australian natural products|BitterDB|CMAUP (cCollective molecular activities of useful plants)|ChEBI NPs|ConMedNP|DrugBankNP|EMNPD|ETM (Ethiopian Traditional Medicine) DB|FooDB|HIT (Herbal Ingredients Targets)|InterBioScreen Ltd|KNApSaCK|Latin America dataset|NANPDB (Natural Products from Northern African Sources)|NPASS|NPCARE|NPEdia|Nat-UV DB|NuBBEDB|Phenol-explorer|Phyto4Health|PhytoLab phyproof® Reference Substances|PubChem NPs|Specs Natural Products|StreptomeDB|Super Natural II|TCMDB-Taiwan (Traditional Chinese Medicine database)|TCMID (Traditional Chinese Medicine Integrated Database)|TIPdb (database of Taiwan indigenous plants)|TPPT (Toxic Plants–PhytoToxins)|UNPD (Universal Natural Products Database)|VietHerb|Watermelon|WikiData Natural Products|ZINC NP

>  <dois>  (453) 
10.1002/9780470744307.gat218|10.1002/ARDP.19252631103|10.1002/BMS.1200150802|10.1002/CHIN.200401163|10.1002/FFJ.2730080504|10.1002/FFJ.2730100408|10.1002/HLCA.200800420|10.1002/J.1537-2197.1979.TB06321.X|10.1002/JCCS.200200041|10.1002/JLAC.18631260302|10.1002/MRC.1284|10.1002/MRC.1844|10.1002/PCA.2800040207|10.1002/PCA.2800050308|10.1002/PTR.875|10.1002/biuz.19840140514|10.1002/food.19880321030|10.1006/PMPP.1995.1053|10.1007/BF00564813|10.1007/BF00565316|10.1007/BF00574599|10.1007/BF00575186|10.1007/BF00579440|10.1007/BF00579495|10.1007/BF00579835|10.1007/BF00597592|10.1007/BF00598776|10.1007/BF00599015|10.1007/BF00629946|10.1007/BF00630089|10.1007/BF00630133|10.1007/BF00630189|10.1007/BF00982301|10.1007/BF01041730|10.1007/BF02238337|10.1007/BF02859345|10.1007/S00425-015-2460-8|10.1007/S10600-007-0234-7|10.1007/S10600-009-9329-7|10.1007/S10600-009-9388-9|10.1007/S10600-009-9393-Z|10.1007/S10600-010-9537-1|10.1007/S10600-012-0139-Y|10.1007/S11101-023-09858-Z|10.1007/S11306-016-1051-4|10.1007/S11947-012-0877-7|10.1007/SPRINGERREFERENCE_40729|10.1007/s00425-015-2460-8|10.1016/0006-291X(63)90203-1|10.1016/0021-9673(88)90035-0|10.1016/0021-9673(96)00103-3|10.1016/0031-9422(83)85052-3|10.1016/0031-9422(86)80021-8|10.1016/0031-9422(88)80815-X|10.1016/0031-9422(89)80072-X|10.1016/0031-9422(91)83614-Q|10.1016/0031-9422(92)80176-F|10.1016/0031-9422(92)83647-H|10.1016/0031-9422(96)00352-4|10.1016/0305-1978(95)00071-2|10.1016/0378-8741(84)90048-5|10.1016/0378-8741(84)90088-6|10.1016/J.ARABJC.2013.12.011|10.1016/J.BMCL.2010.10.058|10.1016/J.BSE.2018.07.007|10.1016/J.CANEP.2011.09.004|10.1016/J.EJMECH.2012.09.007|10.1016/J.FOODRES.2017.06.052|10.1016/J.JEP.2011.02.025|10.1016/J.PHYMED.2003.09.006|10.1016/J.TETLET.2010.10.102|10.1016/S0021-9673(00)90268-1|10.1016/S0021-9673(01)86814-X|10.1016/S0021-9673(01)91485-2|10.1016/S0031-9422(00)80692-5|10.1016/S0031-9422(00)81175-9|10.1016/S0031-9422(00)81759-8|10.1016/S0031-9422(00)82426-7|10.1016/S0031-9422(00)82448-6|10.1016/S0031-9422(00)83015-0|10.1016/S0031-9422(00)83841-8|10.1016/S0031-9422(00)88808-1|10.1016/S0031-9422(00)89536-9|10.1016/S0031-9422(00)89602-8|10.1016/S0031-9422(03)00294-2|10.1016/S0031-9422(98)00497-X|10.1016/S0367-326X(00)00301-4|10.1016/S0944-7113(97)80071-2|10.1016/j.arabjc.2013.12.011|10.1016/j.ejmech.2012.09.007|10.1016/j.exppara.2017.04.013|10.1016/j.foodchem.2007.12.068|10.1021/JA01958A026|10.1021/JF00069A019|10.1021/JF00111A051|10.1021/JF00112A034|10.1021/JF60218A031|10.1021/JF60231A019|10.1021/JO00328A017|10.1021/NP020563J|10.1021/NP050185T|10.1021/NP100923Z|10.1021/NP50046A040|10.1021/NP50046A043|10.1021/NP50052A032|10.1021/NP50085A003|10.1021/NP50090A006|10.1021/NP990522W|10.1021/np020563j|10.1021/np100923z|10.1038/NBT.2488|10.1038/nbt.2488|10.1046/J.1439-037X.2002.00574.X|10.1055/S-0028-1097913|10.1055/S-2006-959741|10.1055/S-2006-960081|10.1055/S-2006-960216|10.1055/S-2006-960962|10.1055/S-2006-962638|10.1055/S-2007-969512|10.1071/ch9640975|10.1080/00021369.1980.10864436|10.1080/01483918708077815|10.1080/01483919008049590|10.1080/10286021003610144|10.1080/10714839.1982.11723622|10.1081/DDC-100000134|10.1088/1752-7155/8/1/014001|10.1111/1750-3841.15164|10.1139/y60-016|10.1211/JPP.59.5.0013|10.1248/CPB.37.363|10.1248/CPB.38.2283|10.1248/YAKUSHI1947.106.1_17|10.1271/BBB1961.45.373|10.1300/J044V07N02_01|10.1351/PAC200173030617|10.1351/pac200173030617|10.1515/ZNB-2000-0116|10.1515/ZNC-2003-9-1014|10.1590/S0103-50532010000900022|10.2307/3807803|10.3389/FMOLB.2018.00096|10.3724/SP.J.1009.2010.00264|10.4268/CJCMM20141334|10.4268/CJCMM20151816

>  <synonyms>  (453) 
1,2-Benzopyrone|103802-83-1|2-Oxo-1,2-benzopyran|2-Propenoic acid, 3-(2-hydroxyphenyl)-, delta-lactone|2-oxo-2H-1-benzopyran|2H-1-Benzopyran, 2-oxo-|2H-1-Benzopyran-2-one|2H-Benzo(b)pyran-2-one|2H-Chromen-2-one|2H-chromen-2-one (ACD\/Name 4.0)|2h-1-benzopyran-2-one;coumarin;2h-chromen-2-one;coumarin   ;coumarin (2h-1-benzopyran-2-one) (chromen-2-one);2h-1-benzopyran-2-one coumarin 2h-chromen-2-one coumarin    coumarin (2h-1-benzopyran-2-one) (chromen-2-one)|2h-chromene-2-one|3-(2-Hydroxyphenyl)-2-propenoic delta-lactone|3-(2-hydroxyphenyl)-|5,6-Benzo-2-pyrone|5-17-10-00143 (Beilstein Handbook Reference)|91-64-5|A4VZ22K1WT|AB00375898_11|AI3-00753|AKOS000120175|AMY37188|BDBM12342|BIDD:ER0667|BIM-0061760.0001|BRD-K23913458-001-02-5|BRD-K23913458-001-13-2|BRN 0383644|BSPBio_003263|Benzo-a-pyrone|Benzo-alpha-pyrone|C05851|CAS-91-64-5|CCG-38580|CCRIS 181|CHEBI:28794|CHEMBL6466|COU|COUMARIN (CONSTITUENT OF CINNAMOMUM CASSIA BARK) [DSC]|COUMARIN (CONSTITUENT OF CINNAMOMUM VERUM BARK) [DSC]|COUMARIN (IARC)|COUMARIN (MART.)|COUMARIN (PROHIBITED) [FHFI]|COUMARIN [HSDB]|COUMARIN [IARC]|COUMARIN [INCI]|COUMARIN [MART.]|COUMARIN [MI]|COUMARIN [WHO-DD]|COUMARINUM [HPUS]|CR-0048|CS-8148|CU-01000013121-2|Caswell No. 259C|Cinnamic acid, .delta.-lactone|Cinnamic acid, o-hydroxy-, delta-lactone|Coumarin|Coumarin (DCF)|Coumarin (prohibited)|Coumarin 1000 microg\/mL in Acetonitrile|Coumarin Phenolic|Coumarin [NF]|Coumarin, >=98%|Coumarin, >=99% (HPLC)|Coumarin, European Pharmacopoeia (EP) Reference Standard|Coumarin, Vetec(TM) reagent grade, >=99%|Coumarin, certified reference material, TraceCERT(R)|Coumarin, primary pharmaceutical reference standard|Coumarin1513|Coumarine|Coumarinic anhydride|Coumarinic lactone|Coumarinum|D07751|D3E956C4-9541-4F57-9435-7D915C38E19E|D81844|DB-057267|DB-261057|DB04665|DTXCID50348|DTXSID7020348|EC 202-086-7|EINECS 202-086-7|EN300-18115|EPA Pesticide Chemical Code 127301|Epitope ID:114082|F3096-1712|GLXC-19130|HMS1923M11|HMS2091E19|HMS2232H18|HMS3369L08|HMS3652B05|HMS3885D09|HSDB 1623|HY-N0709|InChI=1\/C9H6O2\/c10-9-6-5-7-3-1-2-4-8(7)11-9\/h1-6|KBio2_001816|KBio2_004384|KBio2_006952|KBio3_002764|KBioGR_002460|KBioSS_001816|Kumarin|Kumarin [Czech]|MFCD00006850|MLS000028741|MLS001148422|MLS002454395|NCGC00091502-01|NCGC00254092-01|NCGC00259976-01|NCI C07103|NCI60_041938|NS00002381|NSC 8774|NSC-8774|NSC755852|Nci-c07103|Opera_ID_268|Pharmakon1600-01400208|Q-100890|Q111812|Rattex|Rattex Rodenticide|SBI-0061760.P002|SCHEMBL6252|SDCCGMLS-0066912.P001|SMR000059040|SPBio_000266|SPECTRUM1400208|SR-01000721887|ST023509|STK066167|SW220278-1|Spectrum2_000303|Spectrum3_001772|Spectrum4_001818|Spectrum5_000555|Spectrum_001336|Tonka bean camphor|Tox21_111141|Tox21_202427|Tox21_300057|UNII-A4VZ22K1WT|USEPA\/OPP Pesticide Code: 127301|Venalot mono|Venalot mono (TN)|WLN: T66 BOVJ|Z57169486|a 1,2-benzopyrone|a coumarin|alpha-benzopyrone|benzopyranone|benzopyrylium olate|bmse000077|chromen-2-one|chromenone|cis-o-Coumaric acid anhydride|cis-o-Coumarinic acid lactone|coumarin-|coumarinac lactone|cumarin|d-lactone|o-Coumaric acid lactone|o-Hydroxycinnamic acid lactone|o-Hydroxyzimtsaure-lacton|o-Hydroxyzimtsaure-lacton [German]|o-hydroxycinnamic acid delta-lactone|s4170|{2H-Benzo[b]pyran-2-one}

>  <cas>  (453) 
91-64-5|103802-83-1

$$$$

     RDKit          2D

  6  5  0  0  0  0  0  0  0  0999 V2000
   -3.2624   -0.2097    0.0000 C   0  0  0  0  0  0  0  0  0  0  0  0
   -1.9270    0.4734    0.0000 C   0  0  0  0  0  0  0  0  0  0  0  0
   -0.6677   -0.3416    0.0000 C   0  0  0  0  0  0  0  0  0  0  0  0
    0.6677    0.3416    0.0000 C   0  0  0  0  0  0  0  0  0  0  0  0
    1.9270   -0.4734    0.0000 C   0  0  0  0  0  0  0  0  0  0  0  0
    3.2624    0.2097    0.0000 C   0  0  0  0  0  0  0  0  0  0  0  0
  1  2  2  0
  2  3  1  0
  3  4  1  0
  4  5  1  0
  5  6  1  0
M  END
>  <identifier>  (454) 
CNP0264947.0

>  <canonical_smiles>  (454) 
C=CCCCC

>  <standard_inchi>  (454) 
InChI=1S/C6H12/c1-3-5-6-4-2/h3H,1,4-6H2,2H3

>  <standard_inchi_key>  (454) 
LIKMAJRDDDTEIG-UHFFFAOYSA-N

>  <name>  (454) 
1-HEXENE

>  <iupac_name>  (454) 
hex-1-ene

>  <annotation_level>  (454) 
5

>  <total_atom_count>  (454) 
18

>  <heavy_atom_count>  (454) 
6

>  <molecular_weight>  (454) 
84.16

>  <exact_molecular_weight>  (454) 
84.0939

>  <molecular_formula>  (454) 
C6H12

>  <alogp>  (454) 
2.36

>  <topological_polar_surface_area>  (454) 
0.00

>  <rotatable_bond_count>  (454) 
3

>  <hydrogen_bond_acceptors>  (454) 
0

>  <hydrogen_bond_donors>  (454) 
0

>  <hydrogen_bond_acceptors_lipinski>  (454) 
0

>  <hydrogen_bond_donors_lipinski>  (454) 
0

>  <lipinski_rule_of_five_violations>  (454) 
0

>  <aromatic_rings_count>  (454) 
0

>  <qed_drug_likeliness>  (454) 
0.36

>  <formal_charge>  (454) 
0

>  <fractioncsp3>  (454) 
0.67

>  <number_of_minimal_rings>  (454) 
0

>  <van_der_walls_volume>  (454) 
105.94

>  <contains_sugar>  (454) 
False

>  <contains_ring_sugars>  (454) 
False

>  <contains_linear_sugars>  (454) 
False

>  <murcko_framework>  (454) 
nan

>  <np_likeness>  (454) 
1.40

>  <chemical_class>  (454) 
Unsaturated hydrocarbons

>  <chemical_sub_class>  (454) 
Olefins

>  <chemical_super_class>  (454) 
Hydrocarbons

>  <direct_parent_classification>  (454) 
Alkenes

>  <np_classifier_pathway>  (454) 
Fatty acids

>  <np_classifier_superclass>  (454) 
Fatty acyls

>  <np_classifier_class>  (454) 
Hydrocarbons

>  <np_classifier_is_glycoside>  (454) 
False

>  <organisms>  (454) 
Acacia aulacocarpa|Anemone flaccida|Ardisia neriifolia|Aspidosperma subincanum|Caryocar coriaceum|Cryptocarya aschersoniana|Eupatorium argentinum|Fragaria|Fragaria x ananassa|Guatteria boliviana|Juniperus brevifolia|Lonicera japonica|Neolentinus lepideus|Oryza sativa|Peritassa compta|Prunus armeniaca var. ansu|Psiadia dentata|Rheedia acuminata|Symphyocladia latiuscula

>  <collections>  (454) 
CMAUP (cCollective molecular activities of useful plants)|Latin America dataset|NPASS|NuBBEDB|Super Natural II|TCMDB-Taiwan (Traditional Chinese Medicine database)|TCMID (Traditional Chinese Medicine Integrated Database)|UNPD (Universal Natural Products Database)|WikiData Natural Products|ZINC NP

>  <dois>  (454) 
10.1016/J.RENENE.2017.12.012|10.1021/JF00120A031|10.1021/JF950275B|10.1021/jf00120a031|10.7235/HORT.2013.12200

>  <synonyms>  (454) 
.ALPHA.-HEXENE|1(OR 2)-HEXENE|1-C6H12|1-HEXENE [HSDB]|1-Hexene [UN2370]  [Flammable liquid]|1-Hexene, 97%|1-Hexene, 98.5%|1-Hexene, >=99%|1-Hexene, analytical standard|1-Hexene, purum, >=96.0% (GC)|1-hexene|1-n-Hexene|16183-00-9|2(OR 3)-HEXENE|26746-82-7|5-hexene|5-hexenyl|542-41-6|592-41-6|68526-99-8|68783-15-3|A832221|AI3-28797|AKOS009031382|Alkenes, C6-7 alpha-|B38ZZ8C206|Butylethylene|C6|CAS-592-41-6|CHEBI:24579|CHEMBL1548726|DB-053346|DTXCID105402|DTXSID201318600|DTXSID4025402|Dialene 6|EC 209-753-1|EINECS 209-753-1|EINECS 271-244-5|EINECS 272-188-4|H0121|HEXENE [INCI]|HSDB 1079|Hex-1-ene|Hexene|Hexene, 1-|Hexene-1|Hexylene|InChI=1\/C6H12\/c1-3-5-6-4-2\/h3H,1,4-6H2,2H|Linealene 6|MFCD00009505|NCGC00091703-01|NCGC00258277-01|NS00006752|NSC 74121|NSC-74121|Neodene 6 XHP|Q161637|S0336|STL453688|Tox21_200723|UN2370|UNII-B38ZZ8C206|alpha-hexene|hexacarbene|n-Hexene

>  <cas>  (454) 
592-41-6|68783-15-3|68526-99-8|26746-82-7|16183-00-9|542-41-6

$$$$

     RDKit          2D

  7  6  0  0  0  0  0  0  0  0999 V2000
   -3.8971   -0.3214    0.0000 C   0  0  0  0  0  0  0  0  0  0  0  0
   -2.5981    0.4286    0.0000 C   0  0  0  0  0  0  0  0  0  0  0  0
   -1.2990   -0.3214    0.0000 C   0  0  0  0  0  0  0  0  0  0  0  0
    0.0000    0.4286    0.0000 C   0  0  0  0  0  0  0  0  0  0  0  0
    1.2990   -0.3214    0.0000 C   0  0  0  0  0  0  0  0  0  0  0  0
    2.5981    0.4286    0.0000 C   0  0  0  0  0  0  0  0  0  0  0  0
    3.8971   -0.3214    0.0000 C   0  0  0  0  0  0  0  0  0  0  0  0
  1  2  2  0
  2  3  1  0
  3  4  1  0
  4  5  1  0
  5  6  1  0
  6  7  1  0
M  END
>  <identifier>  (455) 
CNP0226691.0

>  <canonical_smiles>  (455) 
C=CCCCCC

>  <standard_inchi>  (455) 
InChI=1S/C7H14/c1-3-5-7-6-4-2/h3H,1,4-7H2,2H3

>  <standard_inchi_key>  (455) 
ZGEGCLOFRBLKSE-UHFFFAOYSA-N

>  <name>  (455) 
1-HEPTENE

>  <iupac_name>  (455) 
hept-1-ene

>  <annotation_level>  (455) 
5

>  <total_atom_count>  (455) 
21

>  <heavy_atom_count>  (455) 
7

>  <molecular_weight>  (455) 
98.19

>  <exact_molecular_weight>  (455) 
98.10955

>  <molecular_formula>  (455) 
C7H14

>  <alogp>  (455) 
2.75

>  <topological_polar_surface_area>  (455) 
0.00

>  <rotatable_bond_count>  (455) 
4

>  <hydrogen_bond_acceptors>  (455) 
0

>  <hydrogen_bond_donors>  (455) 
0

>  <hydrogen_bond_acceptors_lipinski>  (455) 
0

>  <hydrogen_bond_donors_lipinski>  (455) 
0

>  <lipinski_rule_of_five_violations>  (455) 
0

>  <aromatic_rings_count>  (455) 
0

>  <qed_drug_likeliness>  (455) 
0.37

>  <formal_charge>  (455) 
0

>  <fractioncsp3>  (455) 
0.71

>  <number_of_minimal_rings>  (455) 
0

>  <van_der_walls_volume>  (455) 
123.05

>  <contains_sugar>  (455) 
False

>  <contains_ring_sugars>  (455) 
False

>  <contains_linear_sugars>  (455) 
False

>  <murcko_framework>  (455) 
nan

>  <np_likeness>  (455) 
1.30

>  <chemical_class>  (455) 
Unsaturated hydrocarbons

>  <chemical_sub_class>  (455) 
Olefins

>  <chemical_super_class>  (455) 
Hydrocarbons

>  <direct_parent_classification>  (455) 
Alkenes

>  <np_classifier_pathway>  (455) 
Fatty acids

>  <np_classifier_superclass>  (455) 
Fatty acyls

>  <np_classifier_class>  (455) 
Hydrocarbons

>  <np_classifier_is_glycoside>  (455) 
False

>  <organisms>  (455) 
Attalea speciosa|Orbignya martiana|Oryza sativa

>  <collections>  (455) 
CMAUP (cCollective molecular activities of useful plants)|Latin America dataset|NuBBEDB|UNPD (Universal Natural Products Database)|WikiData Natural Products|ZINC NP

>  <dois>  (455) 
10.1016/J.RENENE.2017.12.012|10.1021/JF00120A031|10.1021/jf00120a031

>  <synonyms>  (455) 
.alpha.-Heptylene|1-C7H14|1-HEPTENE [HSDB]|1-Heptene, 97%|1-Heptene, >=99%|1-Heptene, analytical standard|1-heptene|1-n-Heptene|25339-56-4(n-Heptene)592-76-7(1-Heptene)|592-76-7|68526-53-4|?1-HEPTENE|AKOS009031489|CHEBI:186747|D90784|DB-053357|DB-220759|DTXSID2060466|EINECS 209-767-8|EINECS 246-871-2|EINECS 271-209-4|EN300-19737|H0042|HEPTENE|HSDB 1078|Hept-1-ene|Heptylene|LMFA11000319|MFCD00009531|NS00079956|NSC 74130|NSC-74130|O748KJ11V7|Q15687131|S0337|STR07011|UN2278|UNII-O748KJ11V7|n-Heptene [UN2278]  [Flammable liquid]

>  <cas>  (455) 
nan

$$$$

     RDKit          2D

 25 27  0  0  0  0  0  0  0  0999 V2000
   -7.0100   -2.3036    0.0000 C   0  0  0  0  0  0  0  0  0  0  0  0
   -5.5443   -2.6225    0.0000 O   0  0  0  0  0  0  0  0  0  0  0  0
   -4.5352   -1.5126    0.0000 C   0  0  0  0  0  0  0  0  0  0  0  0
   -4.9919   -0.0838    0.0000 C   0  0  0  0  0  0  0  0  0  0  0  0
   -3.9829    1.0261    0.0000 C   0  0  0  0  0  0  0  0  0  0  0  0
   -4.4396    2.4548    0.0000 O   0  0  0  0  0  0  0  0  0  0  0  0
   -2.5172    0.7072    0.0000 C   0  0  0  0  0  0  0  0  0  0  0  0
   -1.5082    1.8171    0.0000 C   0  0  0  0  0  0  0  0  0  0  0  0
   -1.9649    3.2459    0.0000 O   0  0  0  0  0  0  0  0  0  0  0  0
   -0.0425    1.4982    0.0000 C   0  0  0  0  0  0  0  0  0  0  0  0
    0.9665    2.6081    0.0000 O   0  0  0  0  0  0  0  0  0  0  0  0
    2.4323    2.2892    0.0000 C   0  0  0  0  0  0  0  0  0  0  0  0
    0.4142    0.0694    0.0000 C   0  0  0  0  0  0  0  0  0  0  0  0
    1.8799   -0.2495    0.0000 C   0  0  0  0  0  0  0  0  0  0  0  0
    2.3366   -1.6783    0.0000 C   0  0  0  0  0  0  0  0  0  0  0  0
    3.8023   -1.9971    0.0000 C   0  0  0  0  0  0  0  0  0  0  0  0
    4.8114   -0.8872    0.0000 C   0  0  0  0  0  0  0  0  0  0  0  0
    6.2771   -1.2061    0.0000 O   0  0  0  0  0  0  0  0  0  0  0  0
    6.7338   -2.6349    0.0000 C   0  0  0  0  0  0  0  0  0  0  0  0
    4.3547    0.5415    0.0000 C   0  0  0  0  0  0  0  0  0  0  0  0
    5.3637    1.6514    0.0000 O   0  0  0  0  0  0  0  0  0  0  0  0
    2.8890    0.8604    0.0000 C   0  0  0  0  0  0  0  0  0  0  0  0
   -0.5948   -1.0405    0.0000 O   0  0  0  0  0  0  0  0  0  0  0  0
   -2.0605   -0.7216    0.0000 C   0  0  0  0  0  0  0  0  0  0  0  0
   -3.0695   -1.8315    0.0000 C   0  0  0  0  0  0  0  0  0  0  0  0
  1  2  1  0
  2  3  1  0
  3  4  2  0
  4  5  1  0
  5  6  1  0
  5  7  2  0
  7  8  1  0
  8  9  2  0
  8 10  1  0
 10 11  1  0
 11 12  1  0
 10 13  2  0
 13 14  1  0
 14 15  2  0
 15 16  1  0
 16 17  2  0
 17 18  1  0
 18 19  1  0
 17 20  1  0
 20 21  1  0
 20 22  2  0
 13 23  1  0
 23 24  1  0
 24 25  2  0
 25  3  1  0
 24  7  1  0
 22 14  1  0
M  END
>  <identifier>  (456) 
CNP0197890.0

>  <canonical_smiles>  (456) 
COC1=CC(O)=C2C(=O)C(OC)=C(C3=CC=C(OC)C(O)=C3)OC2=C1

>  <standard_inchi>  (456) 
InChI=1S/C18H16O7/c1-22-10-7-12(20)15-14(8-10)25-17(18(24-3)16(15)21)9-4-5-13(23-2)11(19)6-9/h4-8,19-20H,1-3H3

>  <standard_inchi_key>  (456) 
KPCRYSMUMBNTCK-UHFFFAOYSA-N

>  <name>  (456) 
Ayanin

>  <iupac_name>  (456) 
5-hydroxy-2-(3-hydroxy-4-methoxy-phenyl)-3,7-dimethoxy-chromen-4-one

>  <annotation_level>  (456) 
5

>  <total_atom_count>  (456) 
41

>  <heavy_atom_count>  (456) 
25

>  <molecular_weight>  (456) 
344.32

>  <exact_molecular_weight>  (456) 
344.0896

>  <molecular_formula>  (456) 
C18H16O7

>  <alogp>  (456) 
2.90

>  <topological_polar_surface_area>  (456) 
98.36

>  <rotatable_bond_count>  (456) 
4

>  <hydrogen_bond_acceptors>  (456) 
7

>  <hydrogen_bond_donors>  (456) 
2

>  <hydrogen_bond_acceptors_lipinski>  (456) 
7

>  <hydrogen_bond_donors_lipinski>  (456) 
2

>  <lipinski_rule_of_five_violations>  (456) 
0

>  <aromatic_rings_count>  (456) 
3

>  <qed_drug_likeliness>  (456) 
0.75

>  <formal_charge>  (456) 
0

>  <fractioncsp3>  (456) 
0.17

>  <number_of_minimal_rings>  (456) 
3

>  <van_der_walls_volume>  (456) 
289.86

>  <contains_sugar>  (456) 
False

>  <contains_ring_sugars>  (456) 
False

>  <contains_linear_sugars>  (456) 
False

>  <murcko_framework>  (456) 
O1c2ccccc2CC=C1c3ccccc3

>  <np_likeness>  (456) 
1.19

>  <chemical_class>  (456) 
Flavonoids

>  <chemical_sub_class>  (456) 
O-methylated flavonoids

>  <chemical_super_class>  (456) 
Phenylpropanoids and polyketides

>  <direct_parent_classification>  (456) 
3-O-methylated flavonoids

>  <np_classifier_pathway>  (456) 
Shikimates and Phenylpropanoids

>  <np_classifier_superclass>  (456) 
Flavonoids

>  <np_classifier_class>  (456) 
Flavonols

>  <np_classifier_is_glycoside>  (456) 
False

>  <organisms>  (456) 
Acacia salicina|Acalypha australis|Acanthaster planci|Achillea wilhelmsii|Aconitum variegatum|Adiantum monochlamys|Aframomum giganteum|Aglaia formosana|Amomum koenigii|Andromeda polifolia|Aphis graminum|Aphis pini|Apuleia leiocarpa|Argyrochosma pilifera|Artemisia rehan|Artemisia vulgaris|Aspergillus desertorum|Aulosira fertilissima|Avrainvillea longicaulis|Backhousia angustifolia|Bahia glandulosa|Baileya pauciradiata|Becium grandiflorum|Betula oycoviensis|Blighia welwitschii|Blumea balsamifera|Bryum argenteum|Calamus strictus|Callicarpa japonica|Callicarpa nudiflora|Calvatia lilacina|Calycopteris floribunda|Centaurea webbiana|Cheilanthes fragrans|Citrullus lanatus|Cladrastis platycarpa|Clione antarctica|Combretum quadrangulare|Commiphora erythraea|Coprosma areolata|Cortinarius orellanus|Crataegus maximowiczii|Crinum yemense|Croton gratissimus|Croton schiedeanus|Cunninghamia lanceolata var. konishii|Cylindrospermum muscicola|Dendrobium densiflorum|Dendrobium densiflorum Lindl.ex.Wall.|Dioscorea villosa|Diplodia natalensis|Distemonanthus benthamianus|Dodonaea angustifolia|Elephantopus hirtiflorus|Encelia spp.|Entada phaseoloides|Eremanthus seidelii|Ericameria diffusa|Ericameria laricifolia|Eriodictyon trichocalyx|Escallonia spp.|Eucryphia|Eucryphia lucida|Eucryphia milliganii|Euodia elleryana|Eupatorium Triplinerve|Eupatorium triplinerve|Euphorbia amygdaloides|Fadogia agrestis|Gahnia sieberiana|Gahnia subaequiglumis|Gambierdiscus toxicus|Genista lydia|Gmelina asiatica|Grindelia squarrosa|Gutierrezia alamanii|Gymnopetalum integrifolium|Haliclona tubifera|Haplopappus chrysanthemifolius|Haplopappus hirtellus|Hedychium yunnanense|Helichrysum cephaloideum|Heliotropium chenopodiaceum|Heliotropium chenopodiaceum var. ericoideum|Heliotropium pycnophyllum|Hemionitis japonica|Hesperis matronalis|Heterotheca inuloides|Hymenothrix glandulopubescens|Hypericum balearicum|Hypolytrum nemorum|Hyptis Brevipes|Hyptis brevipes|Io fluvialis|Isocoma spp.|Jackiella javanica|Jatropha macrorhiza|Juniperus ashei|Kaempferia parviflora|Kalanchoe blossfeldiana|Lantana Camara|Lantana camara|Larrea tridentata|Ligularia cymbulifera|Lilium umbellatum|Lissoclinum bistratum|Lobophytum laevigatum|Magnolia montana|Meistera koenigii|Melicope semecarpifolia|Methanobrevibacter arboriphilus|Miliusa horsfieldii|Mimulus lewisii|Nematolepis phebalioides|Oreopteris quelpaertensis|Ostrya carpinifolia|Ozothamnus scutellifolius|Pachyphragma macrophyllum|Pangium edule|Petunia|Petunia surfinia|Phora velutina|Phyllanthus emblica|Plumeria rubra|Polyzonium rosalbum|Psiadia viscosa|Pteris bella|Pterocaulon virgatum|Pulicaria canariensis|Rhagoletis cerasi|Rhizobium leguminosarum|Rhododendron mucronatum|Rhus vulgaris|Russula vesca|Salvia glutinosa|Sarcophyton elegans|Sassafras officinalis|Scapania bolanderi|Sedum obtuso-lineare|Senecio adenophyllus|Setosphaeria turcica|Siegesbeckia jorullensis|Siegesbeckia orientalis|Solanum pubescens|Solidago flexicaulis|Spilanthes mauritiana|Stephania dielsiana|Sterculia foetida|Stevia subpubescens|Stizolobium deeringianum|Tanacetum nubigenum|Tessaria absinthioides|Trichilia heudelotii|Trichophyton mentagrophytes|Trollius chinensis|Umbilicaria esculenta|Vernonanthura chamaedrys|Vicia faba|Vigna mungo|Viguiera linearis|Vincetoxicum forrestii|Vitex rotundifolia|Vitex trifolia var. simplicifolia

>  <collections>  (456) 
ANPDB|Australian natural products|CMAUP (cCollective molecular activities of useful plants)|ChEBI NPs|ConMedNP|KNApSaCK|Latin America dataset|Mitishamba database|NANPDB (Natural Products from Northern African Sources)|NPASS|NPEdia|NuBBEDB|Phyto4Health|Super Natural II|TCMDB-Taiwan (Traditional Chinese Medicine database)|TCMID (Traditional Chinese Medicine Integrated Database)|TIPdb (database of Taiwan indigenous plants)|UNPD (Universal Natural Products Database)|VietHerb|Watermelon|WikiData Natural Products|ZINC NP

>  <dois>  (456) 
10.1002/CBDV.201000324|10.1002/CBDV.201100002|10.1002/CHIN.199611314|10.1002/MRC.2331|10.1007/S10600-011-9846-Z|10.1016/0031-9422(95)00457-I|10.1016/0305-1978(92)90015-6|10.1016/0305-1978(93)90082-3|10.1016/0305-1978(95)00017-O|10.1016/0305-1978(96)88878-8|10.1016/J.PHYTOCHEM.2008.09.001|10.1016/J.PHYTOL.2010.08.001|10.1016/S0031-9422(00)84889-X|10.1016/S0031-9422(00)86853-3|10.1016/S0031-9422(00)89891-X|10.1016/S0031-9422(00)97427-2|10.1016/S0031-9422(00)97976-7|10.1016/S0031-9422(01)00168-6|10.1016/S0031-9422(01)00415-0|10.1016/S0031-9422(97)00235-5|10.1016/S0031-9422(98)00020-X|10.1016/S0031-9422(98)00622-0|10.1016/S0031-9422(99)00395-7|10.1016/S0305-1978(96)00115-9|10.1016/S0305-1978(97)00096-3|10.1016/S0305-1978(99)00045-9|10.1016/j.phytol.2010.08.001|10.1016/s0031-9422(00)84889-x|10.1016/s0305-1978(99)00045-9|10.1021/NP010122K|10.1021/NP049622E|10.1021/NP50037A036|10.1021/NP50043A042|10.1021/NP9001724|10.1021/np010122k|10.1021/np100797y|10.1039/JR9520000092|10.1039/P19790002696|10.1055/S-2002-26755|10.1055/S-2002-33804|10.1055/S-2003-40637|10.1055/S-2005-871295|10.1071/CH9851177|10.1211/002235702760345455|10.1248/CPB.60.62|10.1515/ZNC-1984-11-1233|10.3389/FPHAR.2020.01246|10.5586/ASBP.1982.038

>  <synonyms>  (456) 
3',5-Dihydroxy-3,4',7-trimethoxyflavone|3,4',7-TRIMETHYLQUERCETIN|3,7,4'-Tri-O-methylquercetin|4H-1-BENZOPYRAN-4-ONE, 5-HYDROXY-2-(3-HYDROXY-4-METHOXYPHENYL)-3,7-DIMETHOXY-|4H-Benzopyran-4-one, 5-hydroxy-2-(3-hydroxy-4methoxyphenyl)-3,7-dimethoxy-|5,3'-Dihydroxy-3,7,4'-trimethoxyflavone|5-Hydroxy-2-(3-hydroxy-4-methoxyphenyl)-3,7-dimethoxy-4H-1-benzopyran-4-one|5-hydroxy-2-(3-hydroxy-4-methoxyphenyl)-3,7-dimethoxychromen-4-one|572-32-7|AKOS040760283|Ayanin|B0005-198940|BDBM50064888|C04444|CHEBI:27825|CHEMBL74898|CS-0023515|DTXSID20205833|F82127|HY-N2913|LMPK12112762|MS-25275|NCI60_032905|NSC-691652|Q3277926|QUERCETIN 3,7,4'-TRIMETHYL ETHER|SCHEMBL1252843|UNII-YA465UF3LK|YA465UF3LK|ayanin

>  <cas>  (456) 
572-32-7

$$$$

     RDKit          2D

 32 33  0  0  0  0  0  0  0  0999 V2000
   -6.3971    3.4031    0.0000 C   0  0  0  0  0  0  0  0  0  0  0  0
   -6.5685    1.9130    0.0000 O   0  0  0  0  0  0  0  0  0  0  0  0
   -5.3638    1.0194    0.0000 C   0  0  0  0  0  0  0  0  0  0  0  0
   -3.9875    1.6159    0.0000 O   0  0  0  0  0  0  0  0  0  0  0  0
   -5.5352   -0.4708    0.0000 C   0  0  0  0  0  0  0  0  0  0  0  0
   -4.3305   -1.3644    0.0000 C   0  0  0  0  0  0  0  0  0  0  0  0
   -2.9542   -0.7678    0.0000 C   0  0  0  0  0  0  0  0  0  0  0  0
   -1.7494   -1.6614    0.0000 C   0  0  0  0  0  0  0  0  0  0  0  0
   -0.3731   -1.0648    0.0000 C   0  0  0  0  0  0  0  0  0  0  0  0
   -0.2017    0.4253    0.0000 C   0  0  0  0  0  0  0  0  0  0  0  0
    0.8316   -1.9584    0.0000 C   0  0  0  0  0  0  0  0  0  0  0  0
    2.2079   -1.3618    0.0000 C   0  0  0  0  0  0  0  0  0  0  0  0
    3.4127   -2.2554    0.0000 C   0  0  0  0  0  0  0  0  0  0  0  0
    4.7889   -1.6588    0.0000 C   0  0  0  0  0  0  0  0  0  0  0  0
    5.1375   -3.1178    0.0000 C   0  0  0  0  0  0  0  0  0  0  0  0
    3.9624   -0.4071    0.0000 C   0  0  0  0  0  0  0  0  0  0  0  0
    4.6332    0.9346    0.0000 C   0  0  0  0  0  0  0  0  0  0  0  0
    6.1305    1.0245    0.0000 C   0  0  0  0  0  0  0  0  0  0  0  0
    6.8014    2.3661    0.0000 C   0  0  0  0  0  0  0  0  0  0  0  0
    8.2987    2.4560    0.0000 C   0  0  0  0  0  0  0  0  0  0  0  0
    8.9695    3.7976    0.0000 O   0  0  0  0  0  0  0  0  0  0  0  0
    9.1252    1.2042    0.0000 C   0  0  0  0  0  0  0  0  0  0  0  0
    8.4544   -0.1374    0.0000 C   0  0  0  0  0  0  0  0  0  0  0  0
    9.2809   -1.3892    0.0000 C   0  0  0  0  0  0  0  0  0  0  0  0
    6.9570   -0.2273    0.0000 C   0  0  0  0  0  0  0  0  0  0  0  0
    6.2862   -1.5690    0.0000 O   0  0  0  0  0  0  0  0  0  0  0  0
   -6.9115   -1.0674    0.0000 C   0  0  0  0  0  0  0  0  0  0  0  0
   -8.1163   -0.1738    0.0000 C   0  0  0  0  0  0  0  0  0  0  0  0
   -9.4925   -0.7704    0.0000 C   0  0  0  0  0  0  0  0  0  0  0  0
  -10.6973    0.1232    0.0000 C   0  0  0  0  0  0  0  0  0  0  0  0
  -12.0736   -0.4734    0.0000 C   0  0  0  0  0  0  0  0  0  0  0  0
  -10.5258    1.6134    0.0000 C   0  0  0  0  0  0  0  0  0  0  0  0
  1  2  1  0
  2  3  1  0
  3  4  2  0
  3  5  1  0
  5  6  2  0
  6  7  1  0
  7  8  1  0
  8  9  1  0
  9 10  1  0
  9 11  2  0
 11 12  1  0
 12 13  1  0
 13 14  1  0
 14 15  1  0
 14 16  1  0
 16 17  1  0
 17 18  1  0
 18 19  2  0
 19 20  1  0
 20 21  1  0
 20 22  2  0
 22 23  1  0
 23 24  1  0
 23 25  2  0
 25 26  1  0
  5 27  1  0
 27 28  1  0
 28 29  1  0
 29 30  2  0
 30 31  1  0
 30 32  1  0
 26 14  1  0
 25 18  1  0
M  END
>  <identifier>  (457) 
CNP0080409.2

>  <canonical_smiles>  (457) 
COC(=O)/C(=C\CC/C(C)=C/CCC1(C)CCC2=CC(O)=CC(C)=C2O1)CCC=C(C)C

>  <standard_inchi>  (457) 
InChI=1S/C28H40O4/c1-20(2)10-7-13-23(27(30)31-6)14-8-11-21(3)12-9-16-28(5)17-15-24-19-25(29)18-22(4)26(24)32-28/h10,12,14,18-19,29H,7-9,11,13,15-17H2,1-6H3/b21-12+,23-14-

>  <standard_inchi_key>  (457) 
XHUPKDYMQDSWPS-RBLNMFMASA-N

>  <name>  (457) 
nan

>  <iupac_name>  (457) 
nan

>  <annotation_level>  (457) 
0

>  <total_atom_count>  (457) 
72

>  <heavy_atom_count>  (457) 
32

>  <molecular_weight>  (457) 
440.62

>  <exact_molecular_weight>  (457) 
440.29266

>  <molecular_formula>  (457) 
C28H40O4

>  <alogp>  (457) 
7.14

>  <topological_polar_surface_area>  (457) 
55.76

>  <rotatable_bond_count>  (457) 
10

>  <hydrogen_bond_acceptors>  (457) 
4

>  <hydrogen_bond_donors>  (457) 
1

>  <hydrogen_bond_acceptors_lipinski>  (457) 
4

>  <hydrogen_bond_donors_lipinski>  (457) 
1

>  <lipinski_rule_of_five_violations>  (457) 
1

>  <aromatic_rings_count>  (457) 
1

>  <qed_drug_likeliness>  (457) 
0.24

>  <formal_charge>  (457) 
0

>  <fractioncsp3>  (457) 
0.54

>  <number_of_minimal_rings>  (457) 
2

>  <van_der_walls_volume>  (457) 
447.68

>  <contains_sugar>  (457) 
False

>  <contains_ring_sugars>  (457) 
False

>  <contains_linear_sugars>  (457) 
False

>  <murcko_framework>  (457) 
O1c2ccccc2CCC1

>  <np_likeness>  (457) 
2.43

>  <chemical_class>  (457) 
nan

>  <chemical_sub_class>  (457) 
nan

>  <chemical_super_class>  (457) 
nan

>  <direct_parent_classification>  (457) 
nan

>  <np_classifier_pathway>  (457) 
Terpenoids

>  <np_classifier_superclass>  (457) 
Meroterpenoids

>  <np_classifier_class>  (457) 
Prenyl quinone meroterpenoids

>  <np_classifier_is_glycoside>  (457) 
False

>  <organisms>  (457) 
Iryanthera grandis

>  <collections>  (457) 
Latin America dataset|NuBBEDB|WikiData Natural Products

>  <dois>  (457) 
10.1016/S0031-9422(00)80162-4

>  <synonyms>  (457) 
nan

>  <cas>  (457) 
nan

$$$$

     RDKit          2D

 36 40  0  0  0  0  0  0  0  0999 V2000
   -6.5141   -3.0780    0.0000 C   0  0  0  0  0  0  0  0  0  0  0  0
   -5.7226   -1.8037    0.0000 C   0  0  0  0  0  0  0  0  0  0  0  0
   -6.4305   -0.4812    0.0000 C   0  0  0  0  0  0  0  0  0  0  0  0
   -5.6390    0.7930    0.0000 C   0  0  0  0  0  0  0  0  0  0  0  0
   -4.1398    0.7447    0.0000 C   0  0  0  0  0  0  0  0  0  0  0  0
   -4.8476    2.0672    0.0000 C   0  0  0  0  0  0  0  0  0  0  0  0
   -6.3469    2.1155    0.0000 O   0  0  0  0  0  0  0  0  0  0  0  0
   -4.0562    3.3415    0.0000 O   0  0  0  0  0  0  0  0  0  0  0  0
   -3.3484    2.0190    0.0000 C   0  0  0  0  0  0  0  0  0  0  0  0
   -1.8492    1.9707    0.0000 C   0  0  0  0  0  0  0  0  0  0  0  0
   -1.1414    0.6482    0.0000 C   0  0  0  0  0  0  0  0  0  0  0  0
   -0.4336   -0.6743    0.0000 C   0  0  0  0  0  0  0  0  0  0  0  0
   -1.9328   -0.6260    0.0000 C   0  0  0  0  0  0  0  0  0  0  0  0
   -1.2250   -1.9485    0.0000 C   0  0  0  0  0  0  0  0  0  0  0  0
    0.2742   -1.9968    0.0000 C   0  0  0  0  0  0  0  0  0  0  0  0
    1.0657   -0.7226    0.0000 C   0  0  0  0  0  0  0  0  0  0  0  0
    2.5649   -0.7709    0.0000 C   0  0  0  0  0  0  0  0  0  0  0  0
    1.7735   -2.0451    0.0000 C   0  0  0  0  0  0  0  0  0  0  0  0
    3.2727   -2.0934    0.0000 C   0  0  0  0  0  0  0  0  0  0  0  0
    4.7719   -2.1416    0.0000 C   0  0  0  0  0  0  0  0  0  0  0  0
    5.4797   -3.4641    0.0000 O   0  0  0  0  0  0  0  0  0  0  0  0
    5.5633   -0.8674    0.0000 C   0  0  0  0  0  0  0  0  0  0  0  0
    7.0626   -0.9157    0.0000 O   0  0  0  0  0  0  0  0  0  0  0  0
    4.8555    0.4551    0.0000 C   0  0  0  0  0  0  0  0  0  0  0  0
    4.6427    1.9399    0.0000 C   0  0  0  0  0  0  0  0  0  0  0  0
    6.2808    0.9225    0.0000 C   0  0  0  0  0  0  0  0  0  0  0  0
    6.5887    2.3906    0.0000 O   0  0  0  0  0  0  0  0  0  0  0  0
    3.3563    0.5034    0.0000 C   0  0  0  0  0  0  0  0  0  0  0  0
    2.6485    1.8259    0.0000 C   0  0  0  0  0  0  0  0  0  0  0  0
    3.4399    3.1001    0.0000 O   0  0  0  0  0  0  0  0  0  0  0  0
    1.1493    1.8741    0.0000 C   0  0  0  0  0  0  0  0  0  0  0  0
    0.3578    0.5999    0.0000 C   0  0  0  0  0  0  0  0  0  0  0  0
   -0.3500    1.9224    0.0000 C   0  0  0  0  0  0  0  0  0  0  0  0
   -3.4320   -0.5778    0.0000 C   0  0  0  0  0  0  0  0  0  0  0  0
   -4.2234   -1.8520    0.0000 C   0  0  0  0  0  0  0  0  0  0  0  0
   -3.5156   -3.1745    0.0000 C   0  0  0  0  0  0  0  0  0  0  0  0
  2  1  1  6
  2  3  1  0
  3  4  1  0
  4  5  1  0
  5  6  1  1
  6  7  2  0
  6  8  1  0
  5  9  1  0
  9 10  1  0
 10 11  1  0
 11 12  1  6
 11 13  1  0
 13 14  2  0
 14 15  1  0
 15 16  1  0
 16 17  1  0
 17 18  1  1
 17 19  1  0
 19 20  1  0
 20 21  1  6
 20 22  1  0
 22 23  1  1
 22 24  1  0
 24 25  1  1
 24 26  1  0
 26 27  1  0
 24 28  1  0
 28 29  1  0
 29 30  1  1
 29 31  1  0
 31 32  1  0
 32 33  1  1
 13 34  1  0
 34 35  1  0
 35 36  1  1
 35  2  1  0
 34  5  1  0
 32 11  1  0
 32 16  1  0
 28 17  1  0
M  END
>  <identifier>  (458) 
CNP0299068.6

>  <canonical_smiles>  (458) 
C[C@@H]1CC[C@]2(C(=O)O)CC[C@]3(C)C(=CCC4[C@@]5(C)C[C@@H](O)[C@H](O)[C@@](C)(CO)C5[C@H](O)C[C@]43C)C2[C@H]1C

>  <standard_inchi>  (458) 
InChI=1S/C30H48O6/c1-16-9-10-30(25(35)36)12-11-28(5)18(22(30)17(16)2)7-8-21-26(3)13-20(33)24(34)27(4,15-31)23(26)19(32)14-29(21,28)6/h7,16-17,19-24,31-34H,8-15H2,1-6H3,(H,35,36)/t16-,17+,19-,20-,21?,22?,23?,24+,26-,27+,28-,29-,30+/m1/s1

>  <standard_inchi_key>  (458) 
PRAUVHZJPXOEIF-UQPQHHFRSA-N

>  <name>  (458) 
Madecassic acid

>  <iupac_name>  (458) 
(1~{S},2~{R},4~{a}~{S},6~{a}~{S},6~{b}~{R},8~{R},9~{R},10~{R},11~{R},12~{a}~{R})-8,10,11-trihydroxy-9-(hydroxymethyl)-1,2,6~{a},6~{b},9,12~{a}-hexamethyl-2,3,4,5,6,6~{a},7,8,8~{a},10,11,12,13,14~{b}-tetradecahydro-1~{H}-picene-4~{a}-carboxylic acid

>  <annotation_level>  (458) 
5

>  <total_atom_count>  (458) 
84

>  <heavy_atom_count>  (458) 
36

>  <molecular_weight>  (458) 
504.71

>  <exact_molecular_weight>  (458) 
504.34509

>  <molecular_formula>  (458) 
C30H48O6

>  <alogp>  (458) 
4.00

>  <topological_polar_surface_area>  (458) 
118.22

>  <rotatable_bond_count>  (458) 
2

>  <hydrogen_bond_acceptors>  (458) 
5

>  <hydrogen_bond_donors>  (458) 
5

>  <hydrogen_bond_acceptors_lipinski>  (458) 
5

>  <hydrogen_bond_donors_lipinski>  (458) 
5

>  <lipinski_rule_of_five_violations>  (458) 
1

>  <aromatic_rings_count>  (458) 
0

>  <qed_drug_likeliness>  (458) 
0.36

>  <formal_charge>  (458) 
0

>  <fractioncsp3>  (458) 
0.90

>  <number_of_minimal_rings>  (458) 
5

>  <van_der_walls_volume>  (458) 
481.78

>  <contains_sugar>  (458) 
False

>  <contains_ring_sugars>  (458) 
False

>  <contains_linear_sugars>  (458) 
False

>  <murcko_framework>  (458) 
C1=C2C3CCCCC3CCC2C4CCC5CCCCC5C4C1

>  <np_likeness>  (458) 
3.32

>  <chemical_class>  (458) 
Steroids and steroid derivatives

>  <chemical_sub_class>  (458) 
Hydroxysteroids

>  <chemical_super_class>  (458) 
Lipids and lipid-like molecules

>  <direct_parent_classification>  (458) 
Hydroxysteroids

>  <np_classifier_pathway>  (458) 
Terpenoids

>  <np_classifier_superclass>  (458) 
Triterpenoids

>  <np_classifier_class>  (458) 
Ursane and Taraxastane triterpenoids

>  <np_classifier_is_glycoside>  (458) 
False

>  <organisms>  (458) 
Centella asiatica|Siphoneugena densiflora

>  <collections>  (458) 
CMAUP (cCollective molecular activities of useful plants)|Latin America dataset|NPASS|NuBBEDB

>  <dois>  (458) 
10.1590/S0103-50532006000200010

>  <synonyms>  (458) 
(1S,2R,4aS,6aS,6bR,8R,9R,10R,11R,12aR)-8,10,11-|(1S,2R,4aS,6aS,6bR,8R,9R,10R,11R,12aR)-8,10,11-trihydroxy-9-(hydroxymethyl)-1,2,6a,6b,9,12a-hexamethyl-1,2,3,4,4a,5,6,6a,6b,7,8,8a,9,10,11,12,12a,12b,13,14b-icosahydropicene-4a-carboxylic acid|,7,8,8a,9,10,11,12,12a,12b,13,14b-|1,2,6a,6b,9,12a-hexamethyl-1,2,3,4,4a,5,6,6a,6b|18449-41-7|CHEMBL19097|MFCD29048539|Madecassic Acid|Madecassicside,(S)|NCGC00161617-01|Q-100219|SCHEMBL24756829|UPCMLD-DP049|UPCMLD-DP049:001|icosahydropicene-4a-carboxylic acid|trihydroxy-9-(hydroxymethyl)-

>  <cas>  (458) 
18449-41-7

$$$$

     RDKit          2D

 27 29  0  0  0  0  0  0  0  0999 V2000
    0.2115   -3.2613    0.0000 O   0  0  0  0  0  0  0  0  0  0  0  0
    1.7060   -3.3899    0.0000 C   0  0  0  0  0  0  0  0  0  0  0  0
    2.3418   -4.7485    0.0000 O   0  0  0  0  0  0  0  0  0  0  0  0
    2.5647   -2.1600    0.0000 C   0  0  0  0  0  0  0  0  0  0  0  0
    4.0644   -2.1317    0.0000 C   0  0  0  0  0  0  0  0  0  0  0  0
    4.5010   -0.6967    0.0000 C   0  0  0  0  0  0  0  0  0  0  0  0
    3.2710    0.1620    0.0000 C   0  0  0  0  0  0  0  0  0  0  0  0
    3.0862    1.6506    0.0000 C   0  0  0  0  0  0  0  0  0  0  0  0
    4.2829    2.5550    0.0000 C   0  0  0  0  0  0  0  0  0  0  0  0
    5.6644    1.9708    0.0000 O   0  0  0  0  0  0  0  0  0  0  0  0
    4.0980    4.0435    0.0000 O   0  0  0  0  0  0  0  0  0  0  0  0
    1.7046    2.2347    0.0000 C   0  0  0  0  0  0  0  0  0  0  0  0
    0.5079    1.3303    0.0000 O   0  0  0  0  0  0  0  0  0  0  0  0
    0.6928   -0.1582    0.0000 C   0  0  0  0  0  0  0  0  0  0  0  0
   -0.5039   -1.0626    0.0000 O   0  0  0  0  0  0  0  0  0  0  0  0
   -1.8855   -0.4784    0.0000 C   0  0  0  0  0  0  0  0  0  0  0  0
   -2.0704    1.0101    0.0000 O   0  0  0  0  0  0  0  0  0  0  0  0
   -3.4520    1.5943    0.0000 C   0  0  0  0  0  0  0  0  0  0  0  0
   -3.6368    3.0829    0.0000 C   0  0  0  0  0  0  0  0  0  0  0  0
   -2.4401    3.9873    0.0000 O   0  0  0  0  0  0  0  0  0  0  0  0
   -4.6486    0.6899    0.0000 C   0  0  0  0  0  0  0  0  0  0  0  0
   -6.0302    1.2741    0.0000 O   0  0  0  0  0  0  0  0  0  0  0  0
   -4.4638   -0.7986    0.0000 C   0  0  0  0  0  0  0  0  0  0  0  0
   -5.6605   -1.7030    0.0000 O   0  0  0  0  0  0  0  0  0  0  0  0
   -3.0822   -1.3828    0.0000 C   0  0  0  0  0  0  0  0  0  0  0  0
   -2.8973   -2.8714    0.0000 O   0  0  0  0  0  0  0  0  0  0  0  0
    2.0743   -0.7424    0.0000 C   0  0  0  0  0  0  0  0  0  0  0  0
  1  2  2  0
  2  3  1  0
  2  4  1  0
  4  5  2  0
  5  6  1  0
  7  6  1  1
  7  8  1  0
  8  9  1  0
  9 10  2  0
  9 11  1  0
  8 12  2  0
 12 13  1  0
 13 14  1  0
 14 15  1  6
 16 15  1  1
 16 17  1  0
 17 18  1  0
 18 19  1  1
 19 20  1  0
 18 21  1  0
 21 22  1  6
 21 23  1  0
 23 24  1  1
 23 25  1  0
 25 26  1  6
 14 27  1  0
 27  4  1  1
 27  7  1  0
 25 16  1  0
M  END
>  <identifier>  (459) 
CNP0313418.1

>  <canonical_smiles>  (459) 
O=C(O)C1=CC[C@@H]2C(C(=O)O)=CO[C@@H](O[C@@H]3O[C@H](CO)[C@@H](O)[C@H](O)[C@H]3O)[C@H]12

>  <standard_inchi>  (459) 
InChI=1S/C16H20O11/c17-3-8-10(18)11(19)12(20)16(26-8)27-15-9-5(1-2-6(9)13(21)22)7(4-25-15)14(23)24/h2,4-5,8-12,15-20H,1,3H2,(H,21,22)(H,23,24)/t5-,8-,9+,10-,11+,12-,15+,16+/m1/s1

>  <standard_inchi_key>  (459) 
AYRQUPRKTDTPEN-SQQPMCIGSA-N

>  <name>  (459) 
Ixoside

>  <iupac_name>  (459) 
(1~{S},4~{a}~{S},7~{a}~{S})-1-[(2~{S},3~{R},4~{S},5~{S},6~{R})-3,4,5-trihydroxy-6-(hydroxymethyl)tetrahydropyran-2-yl]oxy-1,4~{a},5,7~{a}-tetrahydrocyclopenta[c]pyran-4,7-dicarboxylic acid

>  <annotation_level>  (459) 
5

>  <total_atom_count>  (459) 
47

>  <heavy_atom_count>  (459) 
27

>  <molecular_weight>  (459) 
388.33

>  <exact_molecular_weight>  (459) 
388.10056

>  <molecular_formula>  (459) 
C16H20O11

>  <alogp>  (459) 
-2.23

>  <topological_polar_surface_area>  (459) 
183.21

>  <rotatable_bond_count>  (459) 
5

>  <hydrogen_bond_acceptors>  (459) 
9

>  <hydrogen_bond_donors>  (459) 
6

>  <hydrogen_bond_acceptors_lipinski>  (459) 
9

>  <hydrogen_bond_donors_lipinski>  (459) 
6

>  <lipinski_rule_of_five_violations>  (459) 
1

>  <aromatic_rings_count>  (459) 
0

>  <qed_drug_likeliness>  (459) 
0.30

>  <formal_charge>  (459) 
0

>  <fractioncsp3>  (459) 
0.63

>  <number_of_minimal_rings>  (459) 
3

>  <van_der_walls_volume>  (459) 
318.39

>  <contains_sugar>  (459) 
True

>  <contains_ring_sugars>  (459) 
True

>  <contains_linear_sugars>  (459) 
False

>  <murcko_framework>  (459) 
O1C=CC2CC=CC2C1OC3OCCCC3

>  <np_likeness>  (459) 
2.56

>  <chemical_class>  (459) 
Prenol lipids

>  <chemical_sub_class>  (459) 
Terpene glycosides

>  <chemical_super_class>  (459) 
Lipids and lipid-like molecules

>  <direct_parent_classification>  (459) 
Iridoid O-glycosides

>  <np_classifier_pathway>  (459) 
Terpenoids

>  <np_classifier_superclass>  (459) 
Monoterpenoids

>  <np_classifier_class>  (459) 
Iridoids monoterpenoids

>  <np_classifier_is_glycoside>  (459) 
True

>  <organisms>  (459) 
Adina trichotoma|Alibertia edulis|Antonia ovata|Dolichandrone serrulata|Ixora Chinensis|Leonotis nepetifolia|Tarenna attenuata|Tecoma mollis|Tecoma stans var. velutina

>  <collections>  (459) 
ANPDB|ChemSpider NPs|Latin America dataset|NANPDB (Natural Products from Northern African Sources)|NPASS|NuBBEDB|Super Natural II|VietHerb|WikiData Natural Products|ZINC NP

>  <dois>  (459) 
10.1002/HLCA.200890147|10.1002/hlca.200890147|10.1007/S11418-006-0043-5|10.1016/J.FITOTE.2011.12.025|10.1016/J.PHYTOCHEM.2009.11.007|10.1016/j.fitote.2011.12.025|10.1021/NP700758Q|10.1021/np0600301|10.1248/CPB.47.284

>  <synonyms>  (459) 
CHEMBL498244|Ixoside|ixoside

>  <cas>  (459) 
nan

$$$$

     RDKit          2D

 33 37  0  0  0  0  0  0  0  0999 V2000
   -7.4284   -1.9055    0.0000 C   0  0  0  0  0  0  0  0  0  0  0  0
   -5.9874   -1.4891    0.0000 C   0  0  0  0  0  0  0  0  0  0  0  0
   -5.6275   -0.0329    0.0000 C   0  0  0  0  0  0  0  0  0  0  0  0
   -4.1865    0.3836    0.0000 C   0  0  0  0  0  0  0  0  0  0  0  0
   -3.8266    1.8398    0.0000 C   0  0  0  0  0  0  0  0  0  0  0  0
   -4.9078    2.8795    0.0000 C   0  0  0  0  0  0  0  0  0  0  0  0
   -2.3856    2.2562    0.0000 C   0  0  0  0  0  0  0  0  0  0  0  0
   -1.8754    3.6668    0.0000 C   0  0  0  0  0  0  0  0  0  0  0  0
   -0.3763    3.6176    0.0000 C   0  0  0  0  0  0  0  0  0  0  0  0
    0.0402    2.1765    0.0000 C   0  0  0  0  0  0  0  0  0  0  0  0
    1.1873    3.1431    0.0000 C   0  0  0  0  0  0  0  0  0  0  0  0
    1.3897    1.5218    0.0000 C   0  0  0  0  0  0  0  0  0  0  0  0
    2.6316    2.3631    0.0000 C   0  0  0  0  0  0  0  0  0  0  0  0
    3.9811    1.7084    0.0000 C   0  0  0  0  0  0  0  0  0  0  0  0
    4.0888    0.2123    0.0000 C   0  0  0  0  0  0  0  0  0  0  0  0
    5.4384   -0.4425    0.0000 C   0  0  0  0  0  0  0  0  0  0  0  0
    6.9305   -0.5962    0.0000 C   0  0  0  0  0  0  0  0  0  0  0  0
    5.8489    1.0002    0.0000 C   0  0  0  0  0  0  0  0  0  0  0  0
    5.5461   -1.9386    0.0000 C   0  0  0  0  0  0  0  0  0  0  0  0
    6.8957   -2.5934    0.0000 O   0  0  0  0  0  0  0  0  0  0  0  0
    4.3043   -2.7800    0.0000 C   0  0  0  0  0  0  0  0  0  0  0  0
    2.9548   -2.1252    0.0000 C   0  0  0  0  0  0  0  0  0  0  0  0
    2.8470   -0.6291    0.0000 C   0  0  0  0  0  0  0  0  0  0  0  0
    1.6052   -1.4705    0.0000 C   0  0  0  0  0  0  0  0  0  0  0  0
    1.4975    0.0256    0.0000 C   0  0  0  0  0  0  0  0  0  0  0  0
    0.2557   -0.8157    0.0000 C   0  0  0  0  0  0  0  0  0  0  0  0
   -1.0939   -0.1610    0.0000 C   0  0  0  0  0  0  0  0  0  0  0  0
   -1.2016    1.3352    0.0000 C   0  0  0  0  0  0  0  0  0  0  0  0
   -2.5246    0.6282    0.0000 C   0  0  0  0  0  0  0  0  0  0  0  0
   -4.9062   -2.5288    0.0000 C   0  0  0  0  0  0  0  0  0  0  0  0
   -5.2661   -3.9850    0.0000 C   0  0  0  0  0  0  0  0  0  0  0  0
   -3.4652   -2.1124    0.0000 C   0  0  0  0  0  0  0  0  0  0  0  0
   -2.3840   -3.1521    0.0000 O   0  0  0  0  0  0  0  0  0  0  0  0
  1  2  2  0
  2  3  1  0
  3  4  1  0
  4  5  1  0
  5  6  1  1
  5  7  1  0
  7  8  1  1
  8  9  1  0
  9 10  1  0
 10 11  1  6
 10 12  1  0
 12 13  1  0
 13 14  1  0
 14 15  1  0
 15 16  1  0
 16 17  1  0
 16 18  1  0
 16 19  1  0
 19 20  2  0
 19 21  1  0
 21 22  1  0
 23 22  1  6
 23 24  1  0
 25 24  1  6
 25 26  1  0
 26 27  1  0
 27 28  1  0
 28 29  1  1
  2 30  1  0
 30 31  1  0
 30 32  1  0
 32 33  1  0
 28  7  1  0
 28 10  1  0
 25 12  1  0
 23 15  1  0
 25 23  1  0
M  END
>  <identifier>  (460) 
CNP0158827.5

>  <canonical_smiles>  (460) 
C=C(CC[C@@H](C)[C@H]1CC[C@@]2(C)C3CCC4C(C)(C)C(=O)CC[C@@]45C[C@]35CC[C@]12C)C(C)CO

>  <standard_inchi>  (460) 
InChI=1S/C31H50O2/c1-20(22(3)18-32)8-9-21(2)23-12-14-29(7)25-11-10-24-27(4,5)26(33)13-15-30(24)19-31(25,30)17-16-28(23,29)6/h21-25,32H,1,8-19H2,2-7H3/t21-,22?,23-,24?,25?,28-,29+,30-,31-/m1/s1

>  <standard_inchi_key>  (460) 
OKILVWSNJYSCMZ-OKISJRQVSA-N

>  <name>  (460) 
nan

>  <iupac_name>  (460) 
(1~{R},3~{R},12~{S},15~{R},16~{R})-15-[(1~{R})-6-hydroxy-1,5-dimethyl-4-methylene-hexyl]-7,7,12,16-tetramethyl-pentacyclo[9.7.0.0^{1,3}.0^{3,8}.0^{12,16}]octadecan-6-one

>  <annotation_level>  (460) 
4

>  <total_atom_count>  (460) 
83

>  <heavy_atom_count>  (460) 
33

>  <molecular_weight>  (460) 
454.74

>  <exact_molecular_weight>  (460) 
454.38108

>  <molecular_formula>  (460) 
C31H50O2

>  <alogp>  (460) 
7.60

>  <topological_polar_surface_area>  (460) 
37.30

>  <rotatable_bond_count>  (460) 
6

>  <hydrogen_bond_acceptors>  (460) 
2

>  <hydrogen_bond_donors>  (460) 
1

>  <hydrogen_bond_acceptors_lipinski>  (460) 
2

>  <hydrogen_bond_donors_lipinski>  (460) 
1

>  <lipinski_rule_of_five_violations>  (460) 
1

>  <aromatic_rings_count>  (460) 
0

>  <qed_drug_likeliness>  (460) 
0.42

>  <formal_charge>  (460) 
0

>  <fractioncsp3>  (460) 
0.90

>  <number_of_minimal_rings>  (460) 
5

>  <van_der_walls_volume>  (460) 
nan

>  <contains_sugar>  (460) 
False

>  <contains_ring_sugars>  (460) 
False

>  <contains_linear_sugars>  (460) 
False

>  <murcko_framework>  (460) 
C1CCC23CC43CCC5CCCC5C4CCC2C1

>  <np_likeness>  (460) 
3.26

>  <chemical_class>  (460) 
Steroids and steroid derivatives

>  <chemical_sub_class>  (460) 
Cycloartanols and derivatives

>  <chemical_super_class>  (460) 
Lipids and lipid-like molecules

>  <direct_parent_classification>  (460) 
Cycloartanols and derivatives

>  <np_classifier_pathway>  (460) 
Terpenoids

>  <np_classifier_superclass>  (460) 
Triterpenoids

>  <np_classifier_class>  (460) 
Cycloartane triterpenoids

>  <np_classifier_is_glycoside>  (460) 
False

>  <organisms>  (460) 
Cedrela fissilis|Trichilia claussenii

>  <collections>  (460) 
Latin America dataset|NuBBEDB|WikiData Natural Products

>  <dois>  (460) 
10.1055/S-0028-1088323

>  <synonyms>  (460) 
methylene-26-hydroxycycloartan-3-one

>  <cas>  (460) 
nan

$$$$

     RDKit          2D

 24 26  0  0  0  0  0  0  0  0999 V2000
   -5.7801    0.5442    0.0000 C   0  0  0  0  0  0  0  0  0  0  0  0
   -4.4104   -0.0673    0.0000 C   0  0  0  0  0  0  0  0  0  0  0  0
   -4.2551   -1.5592    0.0000 C   0  0  0  0  0  0  0  0  0  0  0  0
   -5.4695   -2.4397    0.0000 O   0  0  0  0  0  0  0  0  0  0  0  0
   -3.1960    0.8132    0.0000 C   0  0  0  0  0  0  0  0  0  0  0  0
   -1.7699    0.3483    0.0000 C   0  0  0  0  0  0  0  0  0  0  0  0
   -1.5367   -1.1334    0.0000 C   0  0  0  0  0  0  0  0  0  0  0  0
   -0.3240   -2.0163    0.0000 C   0  0  0  0  0  0  0  0  0  0  0  0
    1.1577   -1.7831    0.0000 C   0  0  0  0  0  0  0  0  0  0  0  0
    1.9402   -3.0628    0.0000 C   0  0  0  0  0  0  0  0  0  0  0  0
    1.2232   -4.3803    0.0000 O   0  0  0  0  0  0  0  0  0  0  0  0
    2.0406   -0.5704    0.0000 C   0  0  0  0  0  0  0  0  0  0  0  0
    3.5219   -0.8065    0.0000 C   0  0  0  0  0  0  0  0  0  0  0  0
    4.2016   -2.1436    0.0000 O   0  0  0  0  0  0  0  0  0  0  0  0
    4.2042    0.5294    0.0000 C   0  0  0  0  0  0  0  0  0  0  0  0
    5.6859    0.7626    0.0000 O   0  0  0  0  0  0  0  0  0  0  0  0
    3.1445    1.5911    0.0000 C   0  0  0  0  0  0  0  0  0  0  0  0
    3.3806    3.0724    0.0000 C   0  0  0  0  0  0  0  0  0  0  0  0
    1.8074    0.9114    0.0000 C   0  0  0  0  0  0  0  0  0  0  0  0
    0.5947    1.7942    0.0000 C   0  0  0  0  0  0  0  0  0  0  0  0
   -0.8871    1.5610    0.0000 C   0  0  0  0  0  0  0  0  0  0  0  0
   -0.3117    2.9463    0.0000 C   0  0  0  0  0  0  0  0  0  0  0  0
   -1.7676    2.7754    0.0000 C   0  0  0  0  0  0  0  0  0  0  0  0
   -3.1946    2.3132    0.0000 C   0  0  0  0  0  0  0  0  0  0  0  0
  1  2  1  0
  2  3  1  0
  3  4  1  0
  2  5  1  0
  5  6  2  0
  6  7  1  0
  7  8  1  0
  8  9  2  0
  9 10  1  0
 10 11  2  0
 12  9  1  1
 12 13  1  0
 13 14  2  0
 13 15  1  0
 15 16  1  6
 15 17  1  0
 17 18  1  6
 17 19  1  0
 19 20  1  6
 20 21  1  0
 21 22  1  6
 21 23  1  0
 23 24  1  0
 24  5  1  0
 21  6  1  0
 19 12  1  0
M  END
>  <identifier>  (461) 
CNP0108047.2

>  <canonical_smiles>  (461) 
CC(CO)C1=C2C/C=C(/C=O)[C@@H]3C(=O)[C@@H](O)[C@@H](C)[C@H]3C[C@]2(C)CC1

>  <standard_inchi>  (461) 
InChI=1S/C20H28O4/c1-11(9-21)14-6-7-20(3)8-15-12(2)18(23)19(24)17(15)13(10-22)4-5-16(14)20/h4,10-12,15,17-18,21,23H,5-9H2,1-3H3/b13-4-/t11?,12-,15+,17-,18-,20-/m0/s1

>  <standard_inchi_key>  (461) 
NDSSXIGJWWQDCU-MQXYCBHNSA-N

>  <name>  (461) 
periconicin B

>  <iupac_name>  (461) 
(1~{S},3~{R},4~{S},5~{S},7~{R},8~{E})-5-hydroxy-12-(2-hydroxy-1-methyl-ethyl)-1,4-dimethyl-6-oxo-tricyclo[9.3.0.0^{3,7}]tetradeca-8,11-diene-8-carbaldehyde

>  <annotation_level>  (461) 
5

>  <total_atom_count>  (461) 
52

>  <heavy_atom_count>  (461) 
24

>  <molecular_weight>  (461) 
332.44

>  <exact_molecular_weight>  (461) 
332.19876

>  <molecular_formula>  (461) 
C20H28O4

>  <alogp>  (461) 
2.44

>  <topological_polar_surface_area>  (461) 
74.60

>  <rotatable_bond_count>  (461) 
3

>  <hydrogen_bond_acceptors>  (461) 
4

>  <hydrogen_bond_donors>  (461) 
2

>  <hydrogen_bond_acceptors_lipinski>  (461) 
4

>  <hydrogen_bond_donors_lipinski>  (461) 
2

>  <lipinski_rule_of_five_violations>  (461) 
0

>  <aromatic_rings_count>  (461) 
0

>  <qed_drug_likeliness>  (461) 
0.61

>  <formal_charge>  (461) 
0

>  <fractioncsp3>  (461) 
0.70

>  <number_of_minimal_rings>  (461) 
3

>  <van_der_walls_volume>  (461) 
nan

>  <contains_sugar>  (461) 
False

>  <contains_ring_sugars>  (461) 
False

>  <contains_linear_sugars>  (461) 
False

>  <murcko_framework>  (461) 
C1=CC2CCCC2CC3C(=CCC3)C1

>  <np_likeness>  (461) 
3.14

>  <chemical_class>  (461) 
Organooxygen compounds

>  <chemical_sub_class>  (461) 
Alcohols and polyols

>  <chemical_super_class>  (461) 
Organic oxygen compounds

>  <direct_parent_classification>  (461) 
Cyclic alcohols and derivatives

>  <np_classifier_pathway>  (461) 
Terpenoids

>  <np_classifier_superclass>  (461) 
Diterpenoids

>  <np_classifier_class>  (461) 
Fusicoccane diterpenoids

>  <np_classifier_is_glycoside>  (461) 
False

>  <organisms>  (461) 
Periconia|Periconia atropurpurea|Periconia sp.

>  <collections>  (461) 
Latin America dataset|NPASS|NuBBEDB|WikiData Natural Products

>  <dois>  (461) 
10.1016/j.phytochem.2006.09.005|10.1021/NP030384H

>  <synonyms>  (461) 
(1S,3R,4S,5S,7R,8E)-5-hydroxy-12-(1-hydroxypropan-2-yl)-1,4-dimethyl-6-oxotricyclo[9.3.0.03,7]tetradeca-8,11-diene-8-carbaldehyde|666733-51-3|AKOS030213210|CHEMBL465545|Periconicin B

>  <cas>  (461) 
666733-51-3

$$$$

     RDKit          2D

 29 33  0  0  0  0  0  0  0  0999 V2000
    6.0939   -1.1590    0.0000 C   0  0  0  0  0  0  0  0  0  0  0  0
    4.5955   -1.0891    0.0000 O   0  0  0  0  0  0  0  0  0  0  0  0
    3.9068    0.2434    0.0000 C   0  0  0  0  0  0  0  0  0  0  0  0
    4.7164    1.5061    0.0000 C   0  0  0  0  0  0  0  0  0  0  0  0
    6.2148    1.4363    0.0000 O   0  0  0  0  0  0  0  0  0  0  0  0
    4.0277    2.8387    0.0000 C   0  0  0  0  0  0  0  0  0  0  0  0
    2.5293    2.9085    0.0000 C   0  0  0  0  0  0  0  0  0  0  0  0
    1.7197    1.6457    0.0000 C   0  0  0  0  0  0  0  0  0  0  0  0
    2.4084    0.3132    0.0000 C   0  0  0  0  0  0  0  0  0  0  0  0
    1.5987   -0.9495    0.0000 C   0  0  0  0  0  0  0  0  0  0  0  0
    2.2875   -2.2821    0.0000 C   0  0  0  0  0  0  0  0  0  0  0  0
    1.4778   -3.5448    0.0000 C   0  0  0  0  0  0  0  0  0  0  0  0
    2.1666   -4.8773    0.0000 C   0  0  0  0  0  0  0  0  0  0  0  0
   -0.0205   -3.4750    0.0000 O   0  0  0  0  0  0  0  0  0  0  0  0
    0.1004   -0.8797    0.0000 N   0  0  0  0  0  0  0  0  0  0  0  0
   -0.7093   -2.1424    0.0000 C   0  0  0  0  0  0  0  0  0  0  0  0
   -0.5884    0.4528    0.0000 C   0  0  0  0  0  0  0  0  0  0  0  0
    0.2213    1.7155    0.0000 C   0  0  0  0  0  0  0  0  0  0  0  0
   -0.4674    3.0481    0.0000 C   0  0  0  0  0  0  0  0  0  0  0  0
   -1.9658    3.1179    0.0000 C   0  0  0  0  0  0  0  0  0  0  0  0
   -2.7755    1.8552    0.0000 C   0  0  0  0  0  0  0  0  0  0  0  0
   -4.2738    1.9250    0.0000 C   0  0  0  0  0  0  0  0  0  0  0  0
   -5.0835    0.6623    0.0000 C   0  0  0  0  0  0  0  0  0  0  0  0
   -4.3948   -0.6703    0.0000 C   0  0  0  0  0  0  0  0  0  0  0  0
   -2.8964   -0.7401    0.0000 C   0  0  0  0  0  0  0  0  0  0  0  0
   -2.0867    0.5226    0.0000 C   0  0  0  0  0  0  0  0  0  0  0  0
   -5.4492   -1.7371    0.0000 O   0  0  0  0  0  0  0  0  0  0  0  0
   -6.7897   -1.0639    0.0000 C   0  0  0  0  0  0  0  0  0  0  0  0
   -6.5636    0.4190    0.0000 O   0  0  0  0  0  0  0  0  0  0  0  0
  1  2  1  0
  2  3  1  0
  3  4  2  0
  4  5  1  0
  4  6  1  0
  6  7  2  0
  7  8  1  0
  8  9  2  0
  9 10  1  0
 10 11  1  1
 11 12  1  0
 12 13  1  0
 12 14  2  0
 10 15  1  0
 15 16  1  0
 15 17  1  0
 17 18  2  0
 18 19  1  0
 19 20  2  0
 20 21  1  0
 21 22  2  0
 22 23  1  0
 23 24  2  0
 24 25  1  0
 25 26  2  0
 24 27  1  0
 27 28  1  0
 28 29  1  0
  9  3  1  0
 26 17  1  0
 18  8  1  0
 26 21  1  0
 29 23  1  0
M  END
>  <identifier>  (462) 
CNP0131465.1

>  <canonical_smiles>  (462) 
COC1=C(O)C=CC2=C1[C@@H](CC(C)=O)N(C)C1=C2C=CC2=CC3=C(C=C12)OCO3

>  <standard_inchi>  (462) 
InChI=1S/C23H21NO5/c1-12(25)8-17-21-14(6-7-18(26)23(21)27-3)15-5-4-13-9-19-20(29-11-28-19)10-16(13)22(15)24(17)2/h4-7,9-10,17,26H,8,11H2,1-3H3/t17-/m1/s1

>  <standard_inchi_key>  (462) 
UTNGZOZDCCIQFH-QGZVFWFLSA-N

>  <name>  (462) 
nan

>  <iupac_name>  (462) 
1-[(13~{R})-2-hydroxy-1-methoxy-12-methyl-13~{H}-[1,3]benzodioxolo[6,5-c]phenanthridin-13-yl]propan-2-one

>  <annotation_level>  (462) 
4

>  <total_atom_count>  (462) 
50

>  <heavy_atom_count>  (462) 
29

>  <molecular_weight>  (462) 
391.42

>  <exact_molecular_weight>  (462) 
391.14197

>  <molecular_formula>  (462) 
C23H21NO5

>  <alogp>  (462) 
4.42

>  <topological_polar_surface_area>  (462) 
68.23

>  <rotatable_bond_count>  (462) 
3

>  <hydrogen_bond_acceptors>  (462) 
6

>  <hydrogen_bond_donors>  (462) 
1

>  <hydrogen_bond_acceptors_lipinski>  (462) 
6

>  <hydrogen_bond_donors_lipinski>  (462) 
1

>  <lipinski_rule_of_five_violations>  (462) 
0

>  <aromatic_rings_count>  (462) 
3

>  <qed_drug_likeliness>  (462) 
0.71

>  <formal_charge>  (462) 
0

>  <fractioncsp3>  (462) 
0.26

>  <number_of_minimal_rings>  (462) 
5

>  <van_der_walls_volume>  (462) 
nan

>  <contains_sugar>  (462) 
False

>  <contains_ring_sugars>  (462) 
False

>  <contains_linear_sugars>  (462) 
False

>  <murcko_framework>  (462) 
O1c2cc3ccc4-c5ccccc5CNc4c3cc2OC1

>  <np_likeness>  (462) 
1.46

>  <chemical_class>  (462) 
Benzophenanthridine alkaloids

>  <chemical_sub_class>  (462) 
Dihydrobenzophenanthridine alkaloids

>  <chemical_super_class>  (462) 
Alkaloids and derivatives

>  <direct_parent_classification>  (462) 
Dihydrobenzophenanthridine alkaloids

>  <np_classifier_pathway>  (462) 
Alkaloids

>  <np_classifier_superclass>  (462) 
Tyrosine alkaloids

>  <np_classifier_class>  (462) 
Isoquinoline alkaloids

>  <np_classifier_is_glycoside>  (462) 
False

>  <organisms>  (462) 
Zanthoxylum riedelianum

>  <collections>  (462) 
Latin America dataset|NuBBEDB|WikiData Natural Products|ZINC NP

>  <dois>  (462) 
10.1590/S0103-50532009000200025

>  <synonyms>  (462) 
6-acetonyl-N-methyl-dihydrodecarine

>  <cas>  (462) 
nan

$$$$

     RDKit          2D

 36 38  0  0  0  0  0  0  0  0999 V2000
    2.2793   -6.5187    0.0000 C   0  0  0  0  0  0  0  0  0  0  0  0
    2.9776   -5.1912    0.0000 O   0  0  0  0  0  0  0  0  0  0  0  0
    2.1770   -3.9227    0.0000 C   0  0  0  0  0  0  0  0  0  0  0  0
    0.6782   -3.9818    0.0000 C   0  0  0  0  0  0  0  0  0  0  0  0
   -0.1224   -2.7133    0.0000 C   0  0  0  0  0  0  0  0  0  0  0  0
    0.5758   -1.3857    0.0000 C   0  0  0  0  0  0  0  0  0  0  0  0
   -0.2247   -0.1172    0.0000 C   0  0  0  0  0  0  0  0  0  0  0  0
    0.4735    1.2104    0.0000 C   0  0  0  0  0  0  0  0  0  0  0  0
    1.9724    1.2694    0.0000 C   0  0  0  0  0  0  0  0  0  0  0  0
    2.6706    2.5970    0.0000 C   0  0  0  0  0  0  0  0  0  0  0  0
    4.1695    2.6561    0.0000 O   0  0  0  0  0  0  0  0  0  0  0  0
    4.9700    1.3876    0.0000 C   0  0  0  0  0  0  0  0  0  0  0  0
    6.4689    1.4467    0.0000 C   0  0  0  0  0  0  0  0  0  0  0  0
    4.2718    0.0600    0.0000 O   0  0  0  0  0  0  0  0  0  0  0  0
    1.8701    3.8655    0.0000 C   0  0  0  0  0  0  0  0  0  0  0  0
    2.5683    5.1931    0.0000 O   0  0  0  0  0  0  0  0  0  0  0  0
    4.0672    5.2521    0.0000 C   0  0  0  0  0  0  0  0  0  0  0  0
    0.3712    3.8064    0.0000 C   0  0  0  0  0  0  0  0  0  0  0  0
   -0.3270    2.4789    0.0000 C   0  0  0  0  0  0  0  0  0  0  0  0
   -1.8259    2.4198    0.0000 C   0  0  0  0  0  0  0  0  0  0  0  0
   -2.5241    1.0922    0.0000 C   0  0  0  0  0  0  0  0  0  0  0  0
   -4.0230    1.0332    0.0000 C   0  0  0  0  0  0  0  0  0  0  0  0
   -4.8235    2.3017    0.0000 O   0  0  0  0  0  0  0  0  0  0  0  0
   -6.3224    2.2426    0.0000 C   0  0  0  0  0  0  0  0  0  0  0  0
   -7.1230    3.5111    0.0000 C   0  0  0  0  0  0  0  0  0  0  0  0
   -7.0206    0.9150    0.0000 O   0  0  0  0  0  0  0  0  0  0  0  0
   -1.7236   -0.1763    0.0000 C   0  0  0  0  0  0  0  0  0  0  0  0
   -2.4218   -1.5038    0.0000 C   0  0  0  0  0  0  0  0  0  0  0  0
   -3.9207   -1.5629    0.0000 O   0  0  0  0  0  0  0  0  0  0  0  0
   -4.6189   -2.8905    0.0000 C   0  0  0  0  0  0  0  0  0  0  0  0
   -6.1178   -2.9495    0.0000 C   0  0  0  0  0  0  0  0  0  0  0  0
   -3.8183   -4.1590    0.0000 O   0  0  0  0  0  0  0  0  0  0  0  0
    2.0747   -1.3266    0.0000 C   0  0  0  0  0  0  0  0  0  0  0  0
    2.8753   -2.5951    0.0000 C   0  0  0  0  0  0  0  0  0  0  0  0
    4.3741   -2.5360    0.0000 O   0  0  0  0  0  0  0  0  0  0  0  0
    5.0724   -1.2085    0.0000 C   0  0  0  0  0  0  0  0  0  0  0  0
  1  2  1  0
  2  3  1  0
  3  4  2  0
  4  5  1  0
  5  6  2  0
  7  6  1  6
  7  8  1  0
  8  9  2  0
  9 10  1  0
 10 11  1  0
 11 12  1  0
 12 13  1  0
 12 14  2  0
 10 15  2  0
 15 16  1  0
 16 17  1  0
 15 18  1  0
 18 19  2  0
 19 20  1  0
 20 21  1  0
 21 22  1  6
 22 23  1  0
 23 24  1  0
 24 25  1  0
 24 26  2  0
 21 27  1  0
 27 28  1  1
 28 29  1  0
 29 30  1  0
 30 31  1  0
 30 32  2  0
  6 33  1  0
 33 34  2  0
 34 35  1  0
 35 36  1  0
 34  3  1  0
 27  7  1  0
 19  8  1  0
M  END
>  <identifier>  (463) 
CNP0080386.1

>  <canonical_smiles>  (463) 
COC1=CC=C([C@H]2C3=CC(OC(C)=O)=C(OC)C=C3C[C@@H](COC(C)=O)[C@@H]2COC(C)=O)C=C1OC

>  <standard_inchi>  (463) 
InChI=1S/C27H32O9/c1-15(28)34-13-20-9-19-11-25(33-6)26(36-17(3)30)12-21(19)27(22(20)14-35-16(2)29)18-7-8-23(31-4)24(10-18)32-5/h7-8,10-12,20,22,27H,9,13-14H2,1-6H3/t20-,22-,27-/m0/s1

>  <standard_inchi_key>  (463) 
JSDLMEQXUSQVPE-CLHVYKLBSA-N

>  <name>  (463) 
nan

>  <iupac_name>  (463) 
[(2~{R},3~{R},4~{S})-6-acetoxy-3-(acetoxymethyl)-4-(3,4-dimethoxyphenyl)-7-methoxy-tetralin-2-yl]methyl acetate

>  <annotation_level>  (463) 
4

>  <total_atom_count>  (463) 
68

>  <heavy_atom_count>  (463) 
36

>  <molecular_weight>  (463) 
500.54

>  <exact_molecular_weight>  (463) 
500.20463

>  <molecular_formula>  (463) 
C27H32O9

>  <alogp>  (463) 
3.68

>  <topological_polar_surface_area>  (463) 
106.59

>  <rotatable_bond_count>  (463) 
9

>  <hydrogen_bond_acceptors>  (463) 
9

>  <hydrogen_bond_donors>  (463) 
0

>  <hydrogen_bond_acceptors_lipinski>  (463) 
9

>  <hydrogen_bond_donors_lipinski>  (463) 
0

>  <lipinski_rule_of_five_violations>  (463) 
1

>  <aromatic_rings_count>  (463) 
2

>  <qed_drug_likeliness>  (463) 
0.38

>  <formal_charge>  (463) 
0

>  <fractioncsp3>  (463) 
0.44

>  <number_of_minimal_rings>  (463) 
3

>  <van_der_walls_volume>  (463) 
nan

>  <contains_sugar>  (463) 
False

>  <contains_ring_sugars>  (463) 
False

>  <contains_linear_sugars>  (463) 
False

>  <murcko_framework>  (463) 
c1ccc(cc1)C2c3ccccc3CCC2

>  <np_likeness>  (463) 
1.13

>  <chemical_class>  (463) 
Aryltetralin lignans

>  <chemical_sub_class>  (463) 
Aryltetralin lignans

>  <chemical_super_class>  (463) 
Lignans, neolignans and related compounds

>  <direct_parent_classification>  (463) 
Aryltetralin lignans

>  <np_classifier_pathway>  (463) 
Shikimates and Phenylpropanoids

>  <np_classifier_superclass>  (463) 
Lignans

>  <np_classifier_class>  (463) 
Arylnaphthalene and aryltetralin lignans

>  <np_classifier_is_glycoside>  (463) 
False

>  <organisms>  (463) 
Araucaria angustifolia

>  <collections>  (463) 
Latin America dataset|NuBBEDB|WikiData Natural Products|ZINC NP

>  <dois>  (463) 
10.1016/S0031-9422(00)89347-4

>  <synonyms>  (463) 
isolariciresinol-4-methylether triacetate

>  <cas>  (463) 
nan

$$$$

     RDKit          2D

 28 32  0  0  0  0  0  0  0  0999 V2000
    3.3915   -4.7863    0.0000 C   0  0  0  0  0  0  0  0  0  0  0  0
    4.0065   -3.4182    0.0000 O   0  0  0  0  0  0  0  0  0  0  0  0
    3.1292   -2.2015    0.0000 C   0  0  0  0  0  0  0  0  0  0  0  0
    1.6368   -2.3529    0.0000 C   0  0  0  0  0  0  0  0  0  0  0  0
    0.7595   -1.1362    0.0000 C   0  0  0  0  0  0  0  0  0  0  0  0
    1.3745    0.2319    0.0000 C   0  0  0  0  0  0  0  0  0  0  0  0
    2.8669    0.3833    0.0000 C   0  0  0  0  0  0  0  0  0  0  0  0
    3.7442   -0.8334    0.0000 C   0  0  0  0  0  0  0  0  0  0  0  0
    5.2365   -0.6819    0.0000 C   0  0  0  0  0  0  0  0  0  0  0  0
    5.8515    0.6862    0.0000 C   0  0  0  0  0  0  0  0  0  0  0  0
    4.9742    1.9029    0.0000 C   0  0  0  0  0  0  0  0  0  0  0  0
    4.5660    3.3462    0.0000 C   0  0  0  0  0  0  0  0  0  0  0  0
    6.3248    2.5556    0.0000 C   0  0  0  0  0  0  0  0  0  0  0  0
    3.4819    1.7514    0.0000 O   0  0  0  0  0  0  0  0  0  0  0  0
    0.4972    1.4486    0.0000 C   0  0  0  0  0  0  0  0  0  0  0  0
    1.1122    2.8167    0.0000 O   0  0  0  0  0  0  0  0  0  0  0  0
   -0.9951    1.2971    0.0000 C   0  0  0  0  0  0  0  0  0  0  0  0
   -1.6101   -0.0710    0.0000 C   0  0  0  0  0  0  0  0  0  0  0  0
   -3.1025   -0.2224    0.0000 C   0  0  0  0  0  0  0  0  0  0  0  0
   -3.7175   -1.5906    0.0000 C   0  0  0  0  0  0  0  0  0  0  0  0
   -5.2098   -1.7420    0.0000 C   0  0  0  0  0  0  0  0  0  0  0  0
   -6.0871   -0.5253    0.0000 C   0  0  0  0  0  0  0  0  0  0  0  0
   -7.5784   -0.3632    0.0000 O   0  0  0  0  0  0  0  0  0  0  0  0
   -7.8850    1.1052    0.0000 C   0  0  0  0  0  0  0  0  0  0  0  0
   -6.5832    1.8505    0.0000 O   0  0  0  0  0  0  0  0  0  0  0  0
   -5.4721    0.8428    0.0000 C   0  0  0  0  0  0  0  0  0  0  0  0
   -3.9798    0.9942    0.0000 C   0  0  0  0  0  0  0  0  0  0  0  0
   -0.7328   -1.2877    0.0000 O   0  0  0  0  0  0  0  0  0  0  0  0
  1  2  1  0
  2  3  1  0
  3  4  2  0
  4  5  1  0
  5  6  2  0
  6  7  1  0
  7  8  2  0
  8  9  1  0
  9 10  2  0
 10 11  1  0
 11 12  1  0
 11 13  1  0
 11 14  1  0
  6 15  1  0
 15 16  2  0
 15 17  1  0
 17 18  2  0
 18 19  1  0
 19 20  2  0
 20 21  1  0
 21 22  2  0
 22 23  1  0
 23 24  1  0
 24 25  1  0
 25 26  1  0
 26 27  2  0
 18 28  1  0
  8  3  1  0
 27 19  1  0
 28  5  1  0
 14  7  1  0
 26 22  1  0
M  END
>  <identifier>  (464) 
CNP0082877.0

>  <canonical_smiles>  (464) 
COC1=CC2=C(C3=C1C=CC(C)(C)O3)C(=O)C=C(C1=CC=C3OCOC3=C1)O2

>  <standard_inchi>  (464) 
InChI=1S/C22H18O6/c1-22(2)7-6-13-17(24-3)10-19-20(21(13)28-22)14(23)9-16(27-19)12-4-5-15-18(8-12)26-11-25-15/h4-10H,11H2,1-3H3

>  <standard_inchi_key>  (464) 
NKHPGJPLHMMRIF-UHFFFAOYSA-N

>  <name>  (464) 
nan

>  <iupac_name>  (464) 
8-(1,3-benzodioxol-5-yl)-5-methoxy-2,2-dimethyl-pyrano[2,3-h]chromen-10-one

>  <annotation_level>  (464) 
4

>  <total_atom_count>  (464) 
46

>  <heavy_atom_count>  (464) 
28

>  <molecular_weight>  (464) 
378.38

>  <exact_molecular_weight>  (464) 
378.11034

>  <molecular_formula>  (464) 
C22H18O6

>  <alogp>  (464) 
4.38

>  <topological_polar_surface_area>  (464) 
67.13

>  <rotatable_bond_count>  (464) 
2

>  <hydrogen_bond_acceptors>  (464) 
6

>  <hydrogen_bond_donors>  (464) 
0

>  <hydrogen_bond_acceptors_lipinski>  (464) 
6

>  <hydrogen_bond_donors_lipinski>  (464) 
0

>  <lipinski_rule_of_five_violations>  (464) 
0

>  <aromatic_rings_count>  (464) 
3

>  <qed_drug_likeliness>  (464) 
0.66

>  <formal_charge>  (464) 
0

>  <fractioncsp3>  (464) 
0.23

>  <number_of_minimal_rings>  (464) 
5

>  <van_der_walls_volume>  (464) 
nan

>  <contains_sugar>  (464) 
False

>  <contains_ring_sugars>  (464) 
False

>  <contains_linear_sugars>  (464) 
False

>  <murcko_framework>  (464) 
O1c2ccc3C=CCOc3c2CC=C1c4ccc5OCOc5c4

>  <np_likeness>  (464) 
1.83

>  <chemical_class>  (464) 
Flavonoids

>  <chemical_sub_class>  (464) 
Pyranoflavonoids

>  <chemical_super_class>  (464) 
Phenylpropanoids and polyketides

>  <direct_parent_classification>  (464) 
Pyranoflavonoids

>  <np_classifier_pathway>  (464) 
Shikimates and Phenylpropanoids

>  <np_classifier_superclass>  (464) 
Flavonoids

>  <np_classifier_class>  (464) 
Flavones

>  <np_classifier_is_glycoside>  (464) 
False

>  <organisms>  (464) 
Neoraputia alba

>  <collections>  (464) 
Latin America dataset|NuBBEDB|WikiData Natural Products|ZINC NP

>  <dois>  (464) 
10.5935/0103-5053.19930018

>  <synonyms>  (464) 
3'4'-methylenedioxy-65-(2''2''-dimethylpyran)-7-methoxyflavone

>  <cas>  (464) 
nan

$$$$

     RDKit          2D

 17 19  0  0  0  0  0  0  0  0999 V2000
    5.0334   -0.6331    0.0000 C   0  0  0  0  0  0  0  0  0  0  0  0
    3.7334    0.1153    0.0000 O   0  0  0  0  0  0  0  0  0  0  0  0
    2.4353   -0.6364    0.0000 C   0  0  0  0  0  0  0  0  0  0  0  0
    2.4372   -2.1364    0.0000 O   0  0  0  0  0  0  0  0  0  0  0  0
    1.1353    0.1120    0.0000 C   0  0  0  0  0  0  0  0  0  0  0  0
   -0.1628   -0.6397    0.0000 C   0  0  0  0  0  0  0  0  0  0  0  0
   -0.4728   -2.1073    0.0000 C   0  0  0  0  0  0  0  0  0  0  0  0
   -1.9644   -2.2660    0.0000 C   0  0  0  0  0  0  0  0  0  0  0  0
   -2.5762   -0.8965    0.0000 C   0  0  0  0  0  0  0  0  0  0  0  0
   -3.2931   -0.5479    0.0000 O   0  0  0  0  0  0  0  0  0  0  0  0
   -3.6922    0.1058    0.0000 C   0  0  0  0  0  0  0  0  0  0  0  0
   -3.0838    1.4769    0.0000 O   0  0  0  0  0  0  0  0  0  0  0  0
   -1.4647    1.6087    0.0000 C   0  0  0  0  0  0  0  0  0  0  0  0
   -0.1666    2.3603    0.0000 O   0  0  0  0  0  0  0  0  0  0  0  0
    1.1334    1.6120    0.0000 C   0  0  0  0  0  0  0  0  0  0  0  0
    2.4315    2.3636    0.0000 O   0  0  0  0  0  0  0  0  0  0  0  0
   -1.4628    0.1087    0.0000 C   0  0  0  0  0  0  0  0  0  0  0  0
  1  2  1  0
  2  3  1  0
  3  4  2  0
  5  3  1  6
  5  6  1  0
  6  7  1  1
  7  8  2  0
  8  9  1  0
  9 10  1  1
  9 11  1  0
 11 12  1  0
 13 12  1  6
 13 14  1  0
 14 15  1  0
 15 16  1  6
 17 13  1  1
 15  5  1  0
 17  6  1  0
 17  9  1  0
M  END
>  <identifier>  (465) 
CNP0324400.1

>  <canonical_smiles>  (465) 
COC(=O)[C@@H]1[C@H]2C=C[C@]3(O)CO[C@H](O[C@@H]1O)[C@@H]23

>  <standard_inchi>  (465) 
InChI=1S/C11H14O6/c1-15-8(12)6-5-2-3-11(14)4-16-10(7(5)11)17-9(6)13/h2-3,5-7,9-10,13-14H,4H2,1H3/t5-,6+,7-,9+,10-,11+/m1/s1

>  <standard_inchi_key>  (465) 
QEGAWOPOQXLXMR-IDMOWQKHSA-N

>  <name>  (465) 
nan

>  <iupac_name>  (465) 
methyl (1~{R},4~{R},7~{S},8~{R},9~{S},11~{S})-4,9-dihydroxy-2,10-dioxatricyclo[5.3.1.0^{4,11}]undec-5-ene-8-carboxylate

>  <annotation_level>  (465) 
5

>  <total_atom_count>  (465) 
31

>  <heavy_atom_count>  (465) 
17

>  <molecular_weight>  (465) 
242.23

>  <exact_molecular_weight>  (465) 
242.07904

>  <molecular_formula>  (465) 
C11H14O6

>  <alogp>  (465) 
-0.99

>  <topological_polar_surface_area>  (465) 
85.22

>  <rotatable_bond_count>  (465) 
1

>  <hydrogen_bond_acceptors>  (465) 
6

>  <hydrogen_bond_donors>  (465) 
2

>  <hydrogen_bond_acceptors_lipinski>  (465) 
6

>  <hydrogen_bond_donors_lipinski>  (465) 
2

>  <lipinski_rule_of_five_violations>  (465) 
0

>  <aromatic_rings_count>  (465) 
0

>  <qed_drug_likeliness>  (465) 
0.45

>  <formal_charge>  (465) 
0

>  <fractioncsp3>  (465) 
0.73

>  <number_of_minimal_rings>  (465) 
3

>  <van_der_walls_volume>  (465) 
198.63

>  <contains_sugar>  (465) 
False

>  <contains_ring_sugars>  (465) 
False

>  <contains_linear_sugars>  (465) 
False

>  <murcko_framework>  (465) 
O1CCC2C=CC3COC1C32

>  <np_likeness>  (465) 
3.17

>  <chemical_class>  (465) 
Prenol lipids

>  <chemical_sub_class>  (465) 
Monoterpenoids

>  <chemical_super_class>  (465) 
Lipids and lipid-like molecules

>  <direct_parent_classification>  (465) 
Iridoids and derivatives

>  <np_classifier_pathway>  (465) 
Terpenoids

>  <np_classifier_superclass>  (465) 
Monoterpenoids

>  <np_classifier_class>  (465) 
Iridoids monoterpenoids

>  <np_classifier_is_glycoside>  (465) 
True

>  <organisms>  (465) 
Burchellia bubalina|Catunaregam nilotica|Cordiera sessilis|Rothmannia globosa|Tocoyena formosa

>  <collections>  (465) 
ChemSpider NPs|NuBBEDB|Super Natural II|WikiData Natural Products|ZINC NP

>  <dois>  (465) 
10.1002/CHIN.200305197|10.1007/S00706-002-0500-0|10.1016/S0031-9422(00)80266-6|10.1016/S0031-9422(97)00238-0|10.1016/S0031-9422(98)00508-1|10.1590/S0103-50531997000300013

>  <synonyms>  (465) 
\u221a\u00e9\u00ac\u2264-Gardiol

>  <cas>  (465) 
nan

$$$$

     RDKit          2D

 22 24  0  0  0  0  0  0  0  0999 V2000
   -4.9012    2.5538    0.0000 C   0  0  0  0  0  0  0  0  0  0  0  0
   -4.7164    1.0652    0.0000 C   0  0  0  0  0  0  0  0  0  0  0  0
   -5.9131    0.1608    0.0000 C   0  0  0  0  0  0  0  0  0  0  0  0
   -3.3348    0.4810    0.0000 C   0  0  0  0  0  0  0  0  0  0  0  0
   -2.1381    1.3853    0.0000 C   0  0  0  0  0  0  0  0  0  0  0  0
   -0.7566    0.8011    0.0000 C   0  0  0  0  0  0  0  0  0  0  0  0
   -0.5717   -0.6875    0.0000 C   0  0  0  0  0  0  0  0  0  0  0  0
    0.7073   -1.4711    0.0000 C   0  0  0  0  0  0  0  0  0  0  0  0
    2.1174   -0.9597    0.0000 C   0  0  0  0  0  0  0  0  0  0  0  0
    3.1087   -2.0855    0.0000 C   0  0  0  0  0  0  0  0  0  0  0  0
    4.5793   -1.7900    0.0000 C   0  0  0  0  0  0  0  0  0  0  0  0
    5.0586   -0.3686    0.0000 C   0  0  0  0  0  0  0  0  0  0  0  0
    4.0674    0.7572    0.0000 C   0  0  0  0  0  0  0  0  0  0  0  0
    3.5210    2.1541    0.0000 C   0  0  0  0  0  0  0  0  0  0  0  0
    5.3482    1.5379    0.0000 C   0  0  0  0  0  0  0  0  0  0  0  0
    2.5968    0.4616    0.0000 C   0  0  0  0  0  0  0  0  0  0  0  0
    1.7844    1.7226    0.0000 C   0  0  0  0  0  0  0  0  0  0  0  0
    0.2920    1.8737    0.0000 C   0  0  0  0  0  0  0  0  0  0  0  0
   -1.7685   -1.5918    0.0000 C   0  0  0  0  0  0  0  0  0  0  0  0
   -1.5837   -3.0804    0.0000 O   0  0  0  0  0  0  0  0  0  0  0  0
   -3.1500   -1.0076    0.0000 C   0  0  0  0  0  0  0  0  0  0  0  0
   -4.3468   -1.9120    0.0000 O   0  0  0  0  0  0  0  0  0  0  0  0
  1  2  1  0
  2  3  1  0
  2  4  1  0
  4  5  2  0
  5  6  1  0
  6  7  2  0
  7  8  1  0
  8  9  1  0
  9 10  2  0
 10 11  1  0
 11 12  1  0
 12 13  1  0
 13 14  1  0
 13 15  1  0
 13 16  1  0
 16 17  1  1
 17 18  1  0
  7 19  1  0
 19 20  2  0
 19 21  1  0
 21 22  2  0
 21  4  1  0
 18  6  1  0
 16  9  1  0
M  END
>  <identifier>  (466) 
CNP0368154.1

>  <canonical_smiles>  (466) 
CC(C)C1=CC2=C(CC3=CCCC(C)(C)[C@@H]3CC2)C(=O)C1=O

>  <standard_inchi>  (466) 
InChI=1S/C20H26O2/c1-12(2)15-10-13-7-8-17-14(6-5-9-20(17,3)4)11-16(13)19(22)18(15)21/h6,10,12,17H,5,7-9,11H2,1-4H3/t17-/m1/s1

>  <standard_inchi_key>  (466) 
FSRVLCXFRSBJGH-QGZVFWFLSA-N

>  <name>  (466) 
nan

>  <iupac_name>  (466) 
(11~{S})-6-isopropyl-12,12-dimethyl-tricyclo[9.4.0.0^{3,8}]pentadeca-1(15),3(8),6-triene-4,5-dione

>  <annotation_level>  (466) 
4

>  <total_atom_count>  (466) 
48

>  <heavy_atom_count>  (466) 
22

>  <molecular_weight>  (466) 
298.43

>  <exact_molecular_weight>  (466) 
298.19328

>  <molecular_formula>  (466) 
C20H26O2

>  <alogp>  (466) 
4.56

>  <topological_polar_surface_area>  (466) 
34.14

>  <rotatable_bond_count>  (466) 
1

>  <hydrogen_bond_acceptors>  (466) 
2

>  <hydrogen_bond_donors>  (466) 
0

>  <hydrogen_bond_acceptors_lipinski>  (466) 
2

>  <hydrogen_bond_donors_lipinski>  (466) 
0

>  <lipinski_rule_of_five_violations>  (466) 
0

>  <aromatic_rings_count>  (466) 
0

>  <qed_drug_likeliness>  (466) 
0.40

>  <formal_charge>  (466) 
0

>  <fractioncsp3>  (466) 
0.60

>  <number_of_minimal_rings>  (466) 
3

>  <van_der_walls_volume>  (466) 
nan

>  <contains_sugar>  (466) 
False

>  <contains_ring_sugars>  (466) 
False

>  <contains_linear_sugars>  (466) 
False

>  <murcko_framework>  (466) 
C1=CCCC2=C1CCC3C(=CCCC3)C2

>  <np_likeness>  (466) 
2.25

>  <chemical_class>  (466) 
Prenol lipids

>  <chemical_sub_class>  (466) 
Diterpenoids

>  <chemical_super_class>  (466) 
Lipids and lipid-like molecules

>  <direct_parent_classification>  (466) 
Diterpenoids

>  <np_classifier_pathway>  (466) 
Terpenoids

>  <np_classifier_superclass>  (466) 
Diterpenoids

>  <np_classifier_class>  (466) 
Abietane diterpenoids

>  <np_classifier_is_glycoside>  (466) 
False

>  <organisms>  (466) 
Coleus barbatus|Plectranthus barbatus

>  <collections>  (466) 
Latin America dataset|NuBBEDB|WikiData Natural Products|ZINC NP

>  <dois>  (466) 
10.1016/S0040-4020(01)88671-3

>  <synonyms>  (466) 
o-quinone (-)-Barbatusol derivative

>  <cas>  (466) 
nan

$$$$

     RDKit          2D

 22 26  0  0  0  0  0  0  0  0999 V2000
    7.2323   -0.8726    0.0000 C   0  0  0  0  0  0  0  0  0  0  0  0
    6.4957    0.4341    0.0000 O   0  0  0  0  0  0  0  0  0  0  0  0
    4.9958    0.4495    0.0000 C   0  0  0  0  0  0  0  0  0  0  0  0
    4.2592    1.7562    0.0000 C   0  0  0  0  0  0  0  0  0  0  0  0
    2.7593    1.7716    0.0000 C   0  0  0  0  0  0  0  0  0  0  0  0
    1.9960    0.4804    0.0000 C   0  0  0  0  0  0  0  0  0  0  0  0
    2.7326   -0.8263    0.0000 C   0  0  0  0  0  0  0  0  0  0  0  0
    4.2325   -0.8417    0.0000 C   0  0  0  0  0  0  0  0  0  0  0  0
    1.9692   -2.1176    0.0000 O   0  0  0  0  0  0  0  0  0  0  0  0
    0.4693   -2.1021    0.0000 C   0  0  0  0  0  0  0  0  0  0  0  0
   -0.2673   -0.7954    0.0000 C   0  0  0  0  0  0  0  0  0  0  0  0
    0.4961    0.4958    0.0000 C   0  0  0  0  0  0  0  0  0  0  0  0
   -0.4961    1.6208    0.0000 O   0  0  0  0  0  0  0  0  0  0  0  0
   -1.8726    1.0249    0.0000 C   0  0  0  0  0  0  0  0  0  0  0  0
   -3.2366    1.6490    0.0000 C   0  0  0  0  0  0  0  0  0  0  0  0
   -4.4591    0.7799    0.0000 C   0  0  0  0  0  0  0  0  0  0  0  0
   -4.3177   -0.7134    0.0000 C   0  0  0  0  0  0  0  0  0  0  0  0
   -2.9537   -1.3376    0.0000 C   0  0  0  0  0  0  0  0  0  0  0  0
   -1.7312   -0.4685    0.0000 C   0  0  0  0  0  0  0  0  0  0  0  0
   -5.6942   -1.3094    0.0000 O   0  0  0  0  0  0  0  0  0  0  0  0
   -6.6864   -0.1844    0.0000 C   0  0  0  0  0  0  0  0  0  0  0  0
   -5.9231    1.1068    0.0000 O   0  0  0  0  0  0  0  0  0  0  0  0
  1  2  1  0
  2  3  1  0
  3  4  2  0
  4  5  1  0
  5  6  2  0
  6  7  1  0
  7  8  2  0
  7  9  1  0
  9 10  1  0
 10 11  1  0
 11 12  2  0
 12 13  1  0
 13 14  1  0
 14 15  2  0
 15 16  1  0
 16 17  2  0
 17 18  1  0
 18 19  2  0
 17 20  1  0
 20 21  1  0
 21 22  1  0
  8  3  1  0
 19 11  1  0
 12  6  1  0
 19 14  1  0
 22 16  1  0
M  END
>  <identifier>  (467) 
CNP0124451.0

>  <canonical_smiles>  (467) 
COC1=CC=C2C(=C1)OCC1=C2OC2=CC3=C(C=C12)OCO3

>  <standard_inchi>  (467) 
InChI=1S/C17H12O5/c1-18-9-2-3-10-13(4-9)19-7-12-11-5-15-16(21-8-20-15)6-14(11)22-17(10)12/h2-6H,7-8H2,1H3

>  <standard_inchi_key>  (467) 
XWTCRKNSJARUIU-UHFFFAOYSA-N

>  <name>  (467) 
Anhydropisatin

>  <iupac_name>  (467) 
16-methoxy-5,7,11,19-tetraoxapentacyclo[10.8.0.0^{2,10}.0^{4,8}.0^{13,18}]icosa-1(12),2,4(8),9,13,15,17-heptaene

>  <annotation_level>  (467) 
5

>  <total_atom_count>  (467) 
34

>  <heavy_atom_count>  (467) 
22

>  <molecular_weight>  (467) 
296.28

>  <exact_molecular_weight>  (467) 
296.06847

>  <molecular_formula>  (467) 
C17H12O5

>  <alogp>  (467) 
3.73

>  <topological_polar_surface_area>  (467) 
50.06

>  <rotatable_bond_count>  (467) 
1

>  <hydrogen_bond_acceptors>  (467) 
5

>  <hydrogen_bond_donors>  (467) 
0

>  <hydrogen_bond_acceptors_lipinski>  (467) 
5

>  <hydrogen_bond_donors_lipinski>  (467) 
0

>  <lipinski_rule_of_five_violations>  (467) 
0

>  <aromatic_rings_count>  (467) 
3

>  <qed_drug_likeliness>  (467) 
0.68

>  <formal_charge>  (467) 
0

>  <fractioncsp3>  (467) 
0.18

>  <number_of_minimal_rings>  (467) 
5

>  <van_der_walls_volume>  (467) 
243.95

>  <contains_sugar>  (467) 
False

>  <contains_ring_sugars>  (467) 
False

>  <contains_linear_sugars>  (467) 
False

>  <murcko_framework>  (467) 
o1c2cc3OCOc3cc2c4c1-c5ccccc5OC4

>  <np_likeness>  (467) 
0.85

>  <chemical_class>  (467) 
Isoflavonoids

>  <chemical_sub_class>  (467) 
Furanoisoflavonoids

>  <chemical_super_class>  (467) 
Phenylpropanoids and polyketides

>  <direct_parent_classification>  (467) 
Pterocarpans

>  <np_classifier_pathway>  (467) 
Shikimates and Phenylpropanoids

>  <np_classifier_superclass>  (467) 
Isoflavonoids

>  <np_classifier_class>  (467) 
Pterocarpan

>  <np_classifier_is_glycoside>  (467) 
False

>  <organisms>  (467) 
Abrus pulchellus|Acacia sieberana|Achillea cretica|Artemisia dracunculoides|Aspergillus amstelodami|Astragalus orbiculatus|Bathymodiolus thermophilus|Cassinia longifolia|Centaurea arguta|Cordia americana|Deguelia scandens|Deguelia urucu|Derris Scandens|Derris laxiflora|Derris scandens|Derris urucu|Diphysa robinioides|Erioderma phaeorhizum|Eupatorium riparium|Flemingia Chappar|Flemingia chappar|Glycosmis montana|Millettia ferruginea|Pedicularis semitorta|Pisum Sativum|Pisum sativum|Prorhinotermes simplex|Schoenus nigricans|Scopolia japonica|Sophora Japonica|Sophora japonica|Stellaster equestris|Styphnolobium japonicum|Tephrosia candida|Tephrosia purpurea|Tephrosia tinctoria

>  <collections>  (467) 
Australian natural products|CMAUP (cCollective molecular activities of useful plants)|FooDB|KNApSaCK|Latin America dataset|NPASS|NPEdia|NuBBEDB|Super Natural II|TCMDB-Taiwan (Traditional Chinese Medicine database)|TCMID (Traditional Chinese Medicine Integrated Database)|UNPD (Universal Natural Products Database)|VietHerb|WikiData Natural Products|ZINC NP

>  <dois>  (467) 
10.1002/CHIN.200725200|10.1016/0031-9422(73)80033-0|10.1016/0031-9422(81)80130-6|10.1016/0031-9422(88)83168-6|10.1016/0031-9422(92)83754-M|10.1016/J.PHYTOCHEM.2004.03.006|10.1016/S0031-9422(00)84741-X|10.1016/S0031-9422(00)97882-8|10.1016/S0031-9422(00)98664-3|10.1016/s0031-9422(00)84741-x|10.1080/10286020802217630|10.1248/CPB.39.3132|10.1248/CPB.40.2295|10.1248/YAKUSHI1947.96.2_254

>  <synonyms>  (467) 
16-methoxy-5,7,11,19-tetraoxapentacyclo[10.8.0.02,10.04,8.013,18]icosa-1(12),2,4(8),9,13(18),14,16-heptaene|3-Methoxy-89-methylenedioxy-6a11a-dehydropterocarpin|3187-53-9|6a,11a-Dehydropterocarpin|Anhydropisatin|DTXSID201316573|Flemichapparin B|LMPK12070151|XA161654

>  <cas>  (467) 
3187-53-9

$$$$

     RDKit          2D

 23 24  0  0  0  0  0  0  0  0999 V2000
    4.7731   -3.3640    0.0000 C   0  0  0  0  0  0  0  0  0  0  0  0
    4.9517   -1.8747    0.0000 O   0  0  0  0  0  0  0  0  0  0  0  0
    3.7512   -0.9753    0.0000 C   0  0  0  0  0  0  0  0  0  0  0  0
    2.3721   -1.5653    0.0000 C   0  0  0  0  0  0  0  0  0  0  0  0
    1.1716   -0.6660    0.0000 C   0  0  0  0  0  0  0  0  0  0  0  0
   -0.2075   -1.2560    0.0000 C   0  0  0  0  0  0  0  0  0  0  0  0
   -1.4080   -0.3566    0.0000 C   0  0  0  0  0  0  0  0  0  0  0  0
   -2.7871   -0.9466    0.0000 C   0  0  0  0  0  0  0  0  0  0  0  0
   -2.9657   -2.4360    0.0000 O   0  0  0  0  0  0  0  0  0  0  0  0
   -3.9876   -0.0473    0.0000 N   0  0  0  0  0  0  0  0  0  0  0  0
   -3.8090    1.4420    0.0000 C   0  0  0  0  0  0  0  0  0  0  0  0
   -5.0095    2.3414    0.0000 C   0  0  0  0  0  0  0  0  0  0  0  0
   -6.3886    1.7514    0.0000 C   0  0  0  0  0  0  0  0  0  0  0  0
   -6.5672    0.2621    0.0000 C   0  0  0  0  0  0  0  0  0  0  0  0
   -5.3667   -0.6373    0.0000 C   0  0  0  0  0  0  0  0  0  0  0  0
   -5.5453   -2.1266    0.0000 O   0  0  0  0  0  0  0  0  0  0  0  0
    1.3502    0.8234    0.0000 C   0  0  0  0  0  0  0  0  0  0  0  0
    2.7293    1.4133    0.0000 C   0  0  0  0  0  0  0  0  0  0  0  0
    2.9079    2.9027    0.0000 O   0  0  0  0  0  0  0  0  0  0  0  0
    4.2870    3.4927    0.0000 C   0  0  0  0  0  0  0  0  0  0  0  0
    3.9298    0.5140    0.0000 C   0  0  0  0  0  0  0  0  0  0  0  0
    5.3089    1.1040    0.0000 O   0  0  0  0  0  0  0  0  0  0  0  0
    6.5094    0.2047    0.0000 C   0  0  0  0  0  0  0  0  0  0  0  0
  1  2  1  0
  2  3  1  0
  3  4  2  0
  4  5  1  0
  5  6  1  0
  6  7  2  0
  7  8  1  0
  8  9  2  0
  8 10  1  0
 10 11  1  0
 11 12  1  0
 12 13  1  0
 13 14  2  0
 14 15  1  0
 15 16  2  0
  5 17  2  0
 17 18  1  0
 18 19  1  0
 19 20  1  0
 18 21  2  0
 21 22  1  0
 22 23  1  0
 21  3  1  0
 15 10  1  0
M  END
>  <identifier>  (468) 
CNP0375642.1

>  <canonical_smiles>  (468) 
COC1=CC(/C=C/C(=O)N2CCC=CC2=O)=CC(OC)=C1OC

>  <standard_inchi>  (468) 
InChI=1S/C17H19NO5/c1-21-13-10-12(11-14(22-2)17(13)23-3)7-8-16(20)18-9-5-4-6-15(18)19/h4,6-8,10-11H,5,9H2,1-3H3/b8-7+

>  <standard_inchi_key>  (468) 
VABYUUZNAVQNPG-BQYQJAHWSA-N

>  <name>  (468) 
nan

>  <iupac_name>  (468) 
nan

>  <annotation_level>  (468) 
0

>  <total_atom_count>  (468) 
42

>  <heavy_atom_count>  (468) 
23

>  <molecular_weight>  (468) 
317.34

>  <exact_molecular_weight>  (468) 
317.12632

>  <molecular_formula>  (468) 
C17H19NO5

>  <alogp>  (468) 
2.04

>  <topological_polar_surface_area>  (468) 
65.07

>  <rotatable_bond_count>  (468) 
5

>  <hydrogen_bond_acceptors>  (468) 
5

>  <hydrogen_bond_donors>  (468) 
0

>  <hydrogen_bond_acceptors_lipinski>  (468) 
5

>  <hydrogen_bond_donors_lipinski>  (468) 
0

>  <lipinski_rule_of_five_violations>  (468) 
0

>  <aromatic_rings_count>  (468) 
1

>  <qed_drug_likeliness>  (468) 
0.78

>  <formal_charge>  (468) 
0

>  <fractioncsp3>  (468) 
0.29

>  <number_of_minimal_rings>  (468) 
2

>  <van_der_walls_volume>  (468) 
289.38

>  <contains_sugar>  (468) 
False

>  <contains_ring_sugars>  (468) 
False

>  <contains_linear_sugars>  (468) 
False

>  <murcko_framework>  (468) 
c1ccc(cc1)C=CCN2CC=CCC2

>  <np_likeness>  (468) 
0.80

>  <chemical_class>  (468) 
nan

>  <chemical_sub_class>  (468) 
nan

>  <chemical_super_class>  (468) 
nan

>  <direct_parent_classification>  (468) 
nan

>  <np_classifier_pathway>  (468) 
Alkaloids

>  <np_classifier_superclass>  (468) 
Lysine alkaloids

>  <np_classifier_class>  (468) 
nan

>  <np_classifier_is_glycoside>  (468) 
False

>  <organisms>  (468) 
Abies webbiana|Agaricus xanthodermus|Bellardia viscosa|Brickellia longifolia|Bupleurum rigidum|Carpesium longifolium|Cochlearia officinalis|Coelogyne nitida|Crocus corsicus|Dichotomanthes tristaniicarpa|Didymosphaeria enalia|Dracontium loretense|Dryopteris arguta|Euphorbia wangii|Frullania brasiliensis|Galium verum|Gyalolechia fulgida|Gymnadenia conopsea|Hippocrepis emerus|Homalium laurifolium|Kopsia lapidilecta|Leifsonia aquatica|Macropiper|Matsumurella chinensis|Monascus rubropunctatus|Mycoplasma mycoides|Palisota barteri|Penicillium tardum|Photorhabdus luminescens|Pinus aristata|Piper Longum|Piper Retrofractum|Piper arborescens|Piper bantamense|Piper cenocladum|Piper chaba|Piper hongkongense|Piper lanatum|Piper longum|Piper nigrum|Piper puberulum|Piper retrofractum|Piper retrofractum Vahl.|Piper sarmentosum|Piper sp.|Piper sulvaticum|Piper swartzianum|Piper sylvaticum|Piper tuberculatum|Piper tuberculatum Jacq.|Piperaceae|Plenckia populnea|Podocarpus minor|Pothomorphe peltata|Pseudomonas stutzeri|Robinia pseudoacacia|Schefflera venulosa|Silene banksia|Tephrosia semiglabra|Verbesina virginica|Zanthoxylum gilletii|piper aborescens

>  <collections>  (468) 
CMAUP (cCollective molecular activities of useful plants)|ChEBI NPs|ChemSpider NPs|EMNPD|GNPS (Global Natural Products Social Molecular Networking)|HIT (Herbal Ingredients Targets)|Indofine Chemical Company|InflamNat|KNApSaCK|Latin America dataset|NPASS|NPEdia|NuBBEDB|Phyto4Health|PhytoLab phyproof® Reference Substances|PubChem NPs|Specs Natural Products|Super Natural II|TCMDB-Taiwan (Traditional Chinese Medicine database)|TIPdb (database of Taiwan indigenous plants)|VietHerb|WikiData Natural Products

>  <dois>  (468) 
10.1002/JAT.1261|10.1002/PCA.716|10.1007/BF01952540|10.1007/S00044-008-9161-9|10.1007/S11418-007-0159-2|10.1016/0031-9422(81)85125-4|10.1016/J.BCP.2015.03.014|10.1016/J.MRGENTOX.2008.02.001|10.1016/J.PHYMED.2006.12.015|10.1016/J.PHYMED.2007.06.011|10.1016/J.TET.2011.01.015|10.1016/S0031-9422(00)00226-0|10.1016/S0031-9422(00)80674-3|10.1016/S0031-9422(01)00364-8|10.1016/S0031-9422(01)00431-9|10.1016/S0031-9422(96)00585-7|10.1016/S0031-9422(99)00446-X|10.1016/j.bcp.2015.03.014|10.1021/NP50072A030|10.1021/NP960379W|10.1021/np50072a030|10.1055/S-0035-1546106|10.1055/S-2005-864155|10.1248/CPB.59.1178

>  <synonyms>  (468) 
Piplartine

>  <cas>  (468) 
20069-09-4

$$$$

     RDKit          2D

 41 44  0  0  0  0  0  0  0  0999 V2000
   -8.4612   -6.3837    0.0000 C   0  0  0  0  0  0  0  0  0  0  0  0
   -7.5864   -5.1652    0.0000 C   0  0  0  0  0  0  0  0  0  0  0  0
   -6.0938   -5.3134    0.0000 C   0  0  0  0  0  0  0  0  0  0  0  0
   -5.4759   -6.6803    0.0000 C   0  0  0  0  0  0  0  0  0  0  0  0
   -5.2191   -4.0949    0.0000 C   0  0  0  0  0  0  0  0  0  0  0  0
   -5.8370   -2.7281    0.0000 C   0  0  0  0  0  0  0  0  0  0  0  0
   -4.9622   -1.5096    0.0000 C   0  0  0  0  0  0  0  0  0  0  0  0
   -5.5802   -0.1427    0.0000 C   0  0  0  0  0  0  0  0  0  0  0  0
   -4.7054    1.0758    0.0000 C   0  0  0  0  0  0  0  0  0  0  0  0
   -5.3233    2.4426    0.0000 C   0  0  0  0  0  0  0  0  0  0  0  0
   -6.8160    2.5909    0.0000 Cl  0  0  0  0  0  0  0  0  0  0  0  0
   -4.4486    3.6612    0.0000 C   0  0  0  0  0  0  0  0  0  0  0  0
   -5.0665    5.0280    0.0000 O   0  0  0  0  0  0  0  0  0  0  0  0
   -2.9560    3.5129    0.0000 C   0  0  0  0  0  0  0  0  0  0  0  0
   -3.4276    4.9368    0.0000 C   0  0  0  0  0  0  0  0  0  0  0  0
   -1.8470    4.5229    0.0000 O   0  0  0  0  0  0  0  0  0  0  0  0
   -0.5437    3.7803    0.0000 C   0  0  0  0  0  0  0  0  0  0  0  0
    0.8231    4.3983    0.0000 O   0  0  0  0  0  0  0  0  0  0  0  0
   -0.8472    2.3114    0.0000 C   0  0  0  0  0  0  0  0  0  0  0  0
    0.1629    1.2024    0.0000 C   0  0  0  0  0  0  0  0  0  0  0  0
   -0.2925   -0.2268    0.0000 O   0  0  0  0  0  0  0  0  0  0  0  0
    1.6283    1.5226    0.0000 C   0  0  0  0  0  0  0  0  0  0  0  0
    2.0837    2.9518    0.0000 C   0  0  0  0  0  0  0  0  0  0  0  0
    2.6383    0.4137    0.0000 C   0  0  0  0  0  0  0  0  0  0  0  0
    2.1830   -1.0155    0.0000 C   0  0  0  0  0  0  0  0  0  0  0  0
    4.1037    0.7339    0.0000 O   0  0  0  0  0  0  0  0  0  0  0  0
    5.1138   -0.3751    0.0000 C   0  0  0  0  0  0  0  0  0  0  0  0
    4.6584   -1.8043    0.0000 O   0  0  0  0  0  0  0  0  0  0  0  0
    6.5792   -0.0548    0.0000 C   0  0  0  0  0  0  0  0  0  0  0  0
    7.0346    1.3744    0.0000 O   0  0  0  0  0  0  0  0  0  0  0  0
    8.5000    1.6946    0.0000 C   0  0  0  0  0  0  0  0  0  0  0  0
    7.5893   -1.1638    0.0000 C   0  0  0  0  0  0  0  0  0  0  0  0
    7.1339   -2.5930    0.0000 C   0  0  0  0  0  0  0  0  0  0  0  0
    8.1439   -3.7020    0.0000 C   0  0  0  0  0  0  0  0  0  0  0  0
    9.6093   -3.3817    0.0000 C   0  0  0  0  0  0  0  0  0  0  0  0
   10.0647   -1.9525    0.0000 C   0  0  0  0  0  0  0  0  0  0  0  0
    9.0547   -0.8436    0.0000 C   0  0  0  0  0  0  0  0  0  0  0  0
   -2.3380    2.1461    0.0000 C   0  0  0  0  0  0  0  0  0  0  0  0
   -3.2128    0.9275    0.0000 C   0  0  0  0  0  0  0  0  0  0  0  0
   -2.5949   -0.4393    0.0000 C   0  0  0  0  0  0  0  0  0  0  0  0
   -3.4696   -1.6578    0.0000 O   0  0  0  0  0  0  0  0  0  0  0  0
  1  2  1  0
  2  3  1  0
  3  4  1  1
  3  5  1  0
  5  6  2  0
  6  7  1  0
  7  8  2  0
  8  9  1  0
  9 10  2  0
 10 11  1  0
 10 12  1  0
 12 13  2  0
 12 14  1  0
 14 15  1  6
 14 16  1  0
 16 17  1  0
 17 18  2  0
 17 19  1  0
 19 20  1  0
 20 21  2  0
 20 22  1  0
 22 23  1  1
 22 24  1  0
 24 25  1  1
 24 26  1  0
 26 27  1  0
 27 28  2  0
 27 29  1  0
 29 30  1  1
 30 31  1  0
 29 32  1  0
 32 33  2  0
 33 34  1  0
 34 35  2  0
 35 36  1  0
 36 37  2  0
 19 38  2  0
 38 39  1  0
 39 40  2  0
 40 41  1  0
 41  7  1  0
 39  9  1  0
 38 14  1  0
 37 32  1  0
M  END
>  <identifier>  (469) 
CNP0080401.2

>  <canonical_smiles>  (469) 
CC[C@H](C)/C=C/C1=CC2=C(Cl)C(=O)[C@@]3(C)OC(=O)C(C(=O)[C@@H](C)[C@H](C)OC(=O)[C@@H](OC)C4=CC=CC=C4)=C3C2=CO1

>  <standard_inchi>  (469) 
InChI=1S/C32H33ClO8/c1-7-17(2)13-14-21-15-22-23(16-39-21)25-24(30(36)41-32(25,5)29(35)26(22)33)27(34)18(3)19(4)40-31(37)28(38-6)20-11-9-8-10-12-20/h8-19,28H,7H2,1-6H3/b14-13+/t17-,18-,19-,28-,32-/m0/s1

>  <standard_inchi_key>  (469) 
JLOJAJHRUNYSHQ-CUBKVUMBSA-N

>  <name>  (469) 
nan

>  <iupac_name>  (469) 
[(1~{S},2~{S})-3-[(6~{a}~{S})-5-chloro-6~{a}-methyl-3-[(~{E},3~{S})-3-methylpent-1-enyl]-6,8-dioxo-furo[2,3-h]isochromen-9-yl]-1,2-dimethyl-3-oxo-propyl] (2~{S})-2-methoxy-2-phenyl-acetate

>  <annotation_level>  (469) 
4

>  <total_atom_count>  (469) 
74

>  <heavy_atom_count>  (469) 
41

>  <molecular_weight>  (469) 
581.06

>  <exact_molecular_weight>  (469) 
580.1864

>  <molecular_formula>  (469) 
C32H33ClO8

>  <alogp>  (469) 
5.60

>  <topological_polar_surface_area>  (469) 
105.20

>  <rotatable_bond_count>  (469) 
10

>  <hydrogen_bond_acceptors>  (469) 
8

>  <hydrogen_bond_donors>  (469) 
0

>  <hydrogen_bond_acceptors_lipinski>  (469) 
8

>  <hydrogen_bond_donors_lipinski>  (469) 
0

>  <lipinski_rule_of_five_violations>  (469) 
2

>  <aromatic_rings_count>  (469) 
1

>  <qed_drug_likeliness>  (469) 
0.26

>  <formal_charge>  (469) 
0

>  <fractioncsp3>  (469) 
0.38

>  <number_of_minimal_rings>  (469) 
4

>  <van_der_walls_volume>  (469) 
nan

>  <contains_sugar>  (469) 
False

>  <contains_ring_sugars>  (469) 
False

>  <contains_linear_sugars>  (469) 
False

>  <murcko_framework>  (469) 
O1C=CC2=CCC3OCC(=C3C2=C1)CCCOCCc4ccccc4

>  <np_likeness>  (469) 
1.89

>  <chemical_class>  (469) 
Benzene and substituted derivatives

>  <chemical_sub_class>  (469) 
Benzylethers

>  <chemical_super_class>  (469) 
Benzenoids

>  <direct_parent_classification>  (469) 
Benzylethers

>  <np_classifier_pathway>  (469) 
Polyketides

>  <np_classifier_superclass>  (469) 
Chromanes

>  <np_classifier_class>  (469) 
Azaphilones

>  <np_classifier_is_glycoside>  (469) 
False

>  <organisms>  (469) 
Chaetomium globosum

>  <collections>  (469) 
Latin America dataset|NuBBEDB|WikiData Natural Products

>  <dois>  (469) 
10.1021/NP200110F|10.1021/np200110f

>  <synonyms>  (469) 
(S)-MPA-5'-epichaetoviridin A

>  <cas>  (469) 
nan

$$$$

     RDKit          2D

 24 25  0  0  0  0  0  0  0  0999 V2000
   -1.4198    2.7580    0.0000 C   0  0  0  0  0  0  0  0  0  0  0  0
   -0.1166    2.0153    0.0000 C   0  0  0  0  0  0  0  0  0  0  0  0
    1.1782    2.7726    0.0000 C   0  0  0  0  0  0  0  0  0  0  0  0
    2.4815    2.0299    0.0000 C   0  0  0  0  0  0  0  0  0  0  0  0
    2.4899    0.5300    0.0000 C   0  0  0  0  0  0  0  0  0  0  0  0
    1.1951   -0.2273    0.0000 C   0  0  0  0  0  0  0  0  0  0  0  0
   -0.0997   -0.9846    0.0000 C   0  0  0  0  0  0  0  0  0  0  0  0
    1.2036   -1.7273    0.0000 C   0  0  0  0  0  0  0  0  0  0  0  0
    2.5068   -2.4700    0.0000 C   0  0  0  0  0  0  0  0  0  0  0  0
    3.8016   -1.7127    0.0000 C   0  0  0  0  0  0  0  0  0  0  0  0
    3.7932   -0.2127    0.0000 C   0  0  0  0  0  0  0  0  0  0  0  0
    4.2983    1.1997    0.0000 C   0  0  0  0  0  0  0  0  0  0  0  0
    5.2718   -0.4649    0.0000 C   0  0  0  0  0  0  0  0  0  0  0  0
    6.2295    0.6896    0.0000 O   0  0  0  0  0  0  0  0  0  0  0  0
    5.7928   -1.8715    0.0000 O   0  0  0  0  0  0  0  0  0  0  0  0
   -0.1081    0.5153    0.0000 C   0  0  0  0  0  0  0  0  0  0  0  0
   -1.4029   -0.2420    0.0000 C   0  0  0  0  0  0  0  0  0  0  0  0
   -2.7061    0.5007    0.0000 C   0  0  0  0  0  0  0  0  0  0  0  0
   -4.0009   -0.2566    0.0000 C   0  0  0  0  0  0  0  0  0  0  0  0
   -3.9925   -1.7566    0.0000 C   0  0  0  0  0  0  0  0  0  0  0  0
   -5.3042    0.4861    0.0000 C   0  0  0  0  0  0  0  0  0  0  0  0
   -6.5990   -0.2712    0.0000 C   0  0  0  0  0  0  0  0  0  0  0  0
   -6.5905   -1.7712    0.0000 O   0  0  0  0  0  0  0  0  0  0  0  0
   -7.9022    0.4714    0.0000 O   0  0  0  0  0  0  0  0  0  0  0  0
  1  2  2  0
  2  3  1  0
  3  4  1  0
  5  4  1  1
  5  6  1  0
  6  7  1  1
  6  8  1  0
  8  9  1  0
  9 10  1  0
 10 11  1  0
 11 12  1  6
 11 13  1  0
 13 14  2  0
 13 15  1  0
  6 16  1  0
 16 17  1  1
 17 18  1  0
 18 19  1  0
 19 20  1  0
 19 21  2  0
 21 22  1  0
 22 23  2  0
 22 24  1  0
 16  2  1  0
 11  5  1  0
M  END
>  <identifier>  (470) 
CNP0122177.5

>  <canonical_smiles>  (470) 
C=C1CC[C@@H]2[C@](C)(CCC[C@]2(C)C(=O)O)[C@H]1CC/C(C)=C/C(=O)O

>  <standard_inchi>  (470) 
InChI=1S/C20H30O4/c1-13(12-17(21)22)6-8-15-14(2)7-9-16-19(15,3)10-5-11-20(16,4)18(23)24/h12,15-16H,2,5-11H2,1,3-4H3,(H,21,22)(H,23,24)/b13-12+/t15-,16+,19+,20-/m0/s1

>  <standard_inchi_key>  (470) 
QYCOHMYDSOZCQD-GWEOMKHGSA-N

>  <name>  (470) 
Agathic acid

>  <iupac_name>  (470) 
(1~{S},4~{a}~{R},5~{S},8~{a}~{R})-5-[(~{E})-4-carboxy-3-methyl-but-3-enyl]-1,4~{a}-dimethyl-6-methylene-decalin-1-carboxylic acid

>  <annotation_level>  (470) 
5

>  <total_atom_count>  (470) 
54

>  <heavy_atom_count>  (470) 
24

>  <molecular_weight>  (470) 
334.46

>  <exact_molecular_weight>  (470) 
334.21441

>  <molecular_formula>  (470) 
C20H30O4

>  <alogp>  (470) 
4.66

>  <topological_polar_surface_area>  (470) 
74.60

>  <rotatable_bond_count>  (470) 
5

>  <hydrogen_bond_acceptors>  (470) 
2

>  <hydrogen_bond_donors>  (470) 
2

>  <hydrogen_bond_acceptors_lipinski>  (470) 
2

>  <hydrogen_bond_donors_lipinski>  (470) 
2

>  <lipinski_rule_of_five_violations>  (470) 
0

>  <aromatic_rings_count>  (470) 
0

>  <qed_drug_likeliness>  (470) 
0.57

>  <formal_charge>  (470) 
0

>  <fractioncsp3>  (470) 
0.70

>  <number_of_minimal_rings>  (470) 
2

>  <van_der_walls_volume>  (470) 
nan

>  <contains_sugar>  (470) 
False

>  <contains_ring_sugars>  (470) 
False

>  <contains_linear_sugars>  (470) 
False

>  <murcko_framework>  (470) 
C1CCC2CCCCC2C1

>  <np_likeness>  (470) 
2.86

>  <chemical_class>  (470) 
Prenol lipids

>  <chemical_sub_class>  (470) 
Diterpenoids

>  <chemical_super_class>  (470) 
Lipids and lipid-like molecules

>  <direct_parent_classification>  (470) 
Diterpenoids

>  <np_classifier_pathway>  (470) 
Terpenoids

>  <np_classifier_superclass>  (470) 
Diterpenoids

>  <np_classifier_class>  (470) 
Labdane diterpenoids

>  <np_classifier_is_glycoside>  (470) 
False

>  <organisms>  (470) 
Agathis macrophylla|Agathis microstachya|Agathis vitiensis|Araucaria angustifolia|Brazilian propolis|Chromocleista|Copaifera|Juniperus chinensis|Pinus pumila|Podocarpus imbricatus

>  <collections>  (470) 
Australian natural products|EMNPD|Latin America dataset|NPASS|NuBBEDB|Super Natural II|WikiData Natural Products|ZINC NP

>  <dois>  (470) 
10.1007/BF00580548|10.1016/0031-9422(95)00795-4|10.1016/S0031-9422(00)90849-5|10.1016/S0031-9422(00)91124-5|10.1016/S0031-9422(00)97823-3|10.1016/j.bmcl.2014.05.100|10.1021/JM201451H|10.1021/NP058113P|10.1021/jm201451h|10.1021/np980028c|10.1071/ch9640393

>  <synonyms>  (470) 
(1S,4aR,5S,8aR)-5-[(E)-4-carboxy-3-methylbut-3-enyl]-1,4a-dimethyl-6-methylidene-3,4,5,7,8,8a-hexahydro-2H-naphthalene-1-carboxylic acid|640-28-8|AKOS040750189|Agathic acid|CHEMBL457162|Labda-8(17),13-diene-15,19-dioic acid|agathicacid

>  <cas>  (470) 
640-28-8

$$$$

     RDKit          2D

 15 17  0  0  0  0  0  0  0  0999 V2000
   -4.0335   -0.6649    0.0000 C   0  0  0  0  0  0  0  0  0  0  0  0
   -2.6797   -0.0190    0.0000 C   0  0  0  0  0  0  0  0  0  0  0  0
   -1.3614   -0.7347    0.0000 C   0  0  0  0  0  0  0  0  0  0  0  0
   -0.7155   -2.0885    0.0000 C   0  0  0  0  0  0  0  0  0  0  0  0
    0.7716   -1.8926    0.0000 C   0  0  0  0  0  0  0  0  0  0  0  0
    2.1991   -1.4011    0.0000 C   0  0  0  0  0  0  0  0  0  0  0  0
    2.3167    0.0943    0.0000 C   0  0  0  0  0  0  0  0  0  0  0  0
    1.0804    0.9438    0.0000 C   0  0  0  0  0  0  0  0  0  0  0  0
    1.1980    2.4392    0.0000 C   0  0  0  0  0  0  0  0  0  0  0  0
   -0.2734    0.2979    0.0000 C   0  0  0  0  0  0  0  0  0  0  0  0
   -0.9193    1.6518    0.0000 C   0  0  0  0  0  0  0  0  0  0  0  0
   -2.4064    1.4559    0.0000 C   0  0  0  0  0  0  0  0  0  0  0  0
    1.0449   -0.4177    0.0000 C   0  0  0  0  0  0  0  0  0  0  0  0
    1.8413   -0.4524    0.0000 C   0  0  0  0  0  0  0  0  0  0  0  0
    1.9371    0.7881    0.0000 C   0  0  0  0  0  0  0  0  0  0  0  0
  1  2  1  0
  2  3  2  0
  3  4  1  0
  5  4  1  6
  5  6  1  0
  6  7  1  0
  7  8  1  0
  8  9  1  6
  8 10  1  0
 10 11  1  1
 11 12  1  0
 10 13  1  0
 13 14  1  0
 13 15  1  0
 12  2  1  0
 10  3  1  0
 13  5  1  0
M  END
>  <identifier>  (471) 
CNP0153849.4

>  <canonical_smiles>  (471) 
CC1=C2C[C@H]3CC[C@@H](C)[C@]2(CC1)C3(C)C

>  <standard_inchi>  (471) 
InChI=1S/C15H24/c1-10-7-8-15-11(2)5-6-12(9-13(10)15)14(15,3)4/h11-12H,5-9H2,1-4H3/t11-,12-,15+/m1/s1

>  <standard_inchi_key>  (471) 
RTBLDXVIGWSICW-JMSVASOKSA-N

>  <name>  (471) 
Cyperene

>  <iupac_name>  (471) 
(1~{R},7~{R},10~{R})-4,10,11,11-tetramethyltricyclo[5.3.1.0^{1,5}]undec-4-ene

>  <annotation_level>  (471) 
5

>  <total_atom_count>  (471) 
39

>  <heavy_atom_count>  (471) 
15

>  <molecular_weight>  (471) 
204.36

>  <exact_molecular_weight>  (471) 
204.1878

>  <molecular_formula>  (471) 
C15H24

>  <alogp>  (471) 
4.56

>  <topological_polar_surface_area>  (471) 
0.00

>  <rotatable_bond_count>  (471) 
0

>  <hydrogen_bond_acceptors>  (471) 
0

>  <hydrogen_bond_donors>  (471) 
0

>  <hydrogen_bond_acceptors_lipinski>  (471) 
0

>  <hydrogen_bond_donors_lipinski>  (471) 
0

>  <lipinski_rule_of_five_violations>  (471) 
0

>  <aromatic_rings_count>  (471) 
0

>  <qed_drug_likeliness>  (471) 
0.51

>  <formal_charge>  (471) 
0

>  <fractioncsp3>  (471) 
0.87

>  <number_of_minimal_rings>  (471) 
3

>  <van_der_walls_volume>  (471) 
219.65

>  <contains_sugar>  (471) 
False

>  <contains_ring_sugars>  (471) 
False

>  <contains_linear_sugars>  (471) 
False

>  <murcko_framework>  (471) 
C1=C2CC3CCCC2(CC1)C3

>  <np_likeness>  (471) 
3.40

>  <chemical_class>  (471) 
Prenol lipids

>  <chemical_sub_class>  (471) 
Sesquiterpenoids

>  <chemical_super_class>  (471) 
Lipids and lipid-like molecules

>  <direct_parent_classification>  (471) 
Sesquiterpenoids

>  <np_classifier_pathway>  (471) 
Terpenoids

>  <np_classifier_superclass>  (471) 
Sesquiterpenoids

>  <np_classifier_class>  (471) 
Patchoulane sesquiterpenoids

>  <np_classifier_is_glycoside>  (471) 
False

>  <organisms>  (471) 
Acourtia carpholepis|Acourtia longifolia|Adenocarpus foliolosus|Aframomum melegueta|Aniba puchury-minor|Anthoxanthum nitens|Antillogorgia elisabethae|Arctium lappa|Artabotrys lastoursvillensis|Athanasia linifolia|Atractylodes chinensis|Atractylodes lancea|Betula exilis|Centaurea oltensis|Centaurea sessilis|Cereus dumortieri|Chromolaena arnottiana|Cirsium dipsacolepis|Cleistopholis patens|Clethra macrophylla|Commiphora africana|Copaifera langsdorffii|Copaifera langsdorfii|Critonia hebebotrya|Croton dichogamus|Croton sonderianus|Cyperus Rotundus|Cyperus alopecuroides|Cyperus erectus|Cyperus haspan|Cyperus rotundus|Daniellia oliveri|Dimerostemma brasilianum|Duguetia confinis|Duguetia flagellaris|Gnidia subcordata|Gutierrezia gilliesii|Herba cirsii japonici|Herba seu radix cirsii japonici|Hexalobus crispiflorus|Ichthyothere terminalis|Illicium verum|Ipomoea reptans|Leibnitzia anandria|Ligularia|Locusta migratoria|Microglossa pyrrhopappa|Oreoherzogia fallax|Panax pseudo - ginseng var. notoginseng|Panax pseudo-ginseng var. notoginseng|Perezia carpholepis|Piper auritum|Piper fimbriulatum|Piper taboganum|Plenodomus tracheiphilus|Polygala reinii|Psiadia altissima|Radix cirsii japonici|Retama duriaei|Rhaponticum carthamoides|Rhizoma anemones raddeanae|Rhizoma cyperi preparata|Rolandra fruticosa|Rubia schumanniana|Sabal causiarum|Solidago leavenworthii|Tanacetum longifolium|Uvaria narum|Vernonia galamensis|Vidalia volubilis|Xylopia aethiopica|Xylopia sericea

>  <collections>  (471) 
ANPDB|Australian natural products|CMAUP (cCollective molecular activities of useful plants)|KNApSaCK|Latin America dataset|NANPDB (Natural Products from Northern African Sources)|NPASS|NuBBEDB|SANCDB|Super Natural II|TCMDB-Taiwan (Traditional Chinese Medicine database)|TIPdb (database of Taiwan indigenous plants)|VietHerb|WikiData Natural Products|ZINC NP

>  <dois>  (471) 
10.1016/0031-9422(82)80139-8|10.1016/0031-9422(82)83162-2|10.1016/0031-9422(82)85198-4|10.1016/0305-1978(89)90098-7|10.1016/J.PHYTOCHEM.2003.08.004|10.1016/J.PHYTOCHEM.2005.04.006|10.1016/J.PHYTOCHEM.2008.12.018|10.1016/J.PHYTOCHEM.2017.08.014|10.1016/S0031-9422(00)00374-5|10.1016/S0031-9422(00)81427-2|10.1016/S0031-9422(00)81431-4|10.1016/S0031-9422(00)90717-9|10.1016/S0031-9422(00)97879-8|10.1016/S0031-9422(00)97890-7|10.1016/S0031-9422(01)00301-6|10.1016/S0031-9422(02)00396-5|10.1016/S0031-9422(97)00154-4|10.1016/S0031-9422(97)00172-6|10.1016/S0031-9422(97)00762-0|10.1016/S0305-1978(01)00090-4|10.1016/j.phytochem.2017.08.014|10.1016/s0031-9422(00)97879-8|10.1021/JO00200A028|10.1021/NP50055A024|10.1021/jo00200a028|10.1055/S-2006-960985|10.1055/S-2006-962685|10.1055/s-2006-960985|10.1080/10412905.1992.9698068|10.1080/10412905.1992.9698112|10.1080/10412905.1993.9698174|10.1080/10412905.1994.9699347|10.1080/10412905.1994.9699362|10.1080/10412905.1996.9700559|10.1080/10412905.1998.9700852|10.1080/10412905.1998.9700913|10.1135/CCCC19641675|10.1246/BCSJ.53.785|10.1271/NOGEIKAGAKU1924.59.389|10.3719/WEED.22.14|10.4314/BCSE.V15I1.71732

>  <synonyms>  (471) 
(-)-cyperene|(1R,7R,10R)-4,10,11,11-tetramethyltricyclo[5.3.1.01,5]undec-4-ene|2387-78-2|3H-3a,7-Methanoazulene, 2,4,5,6,7,8-hexahydro-1,4,9,9-tetramethyl-, (3aR-(3aalpha,4beta,7alpha))-|Cyperene|DTXSID501037156|LMPR0103450002|NSC 241249|cyperene

>  <cas>  (471) 
2387-78-2

$$$$

     RDKit          2D

 25 27  0  0  0  0  0  0  0  0999 V2000
    3.5757   -3.8638    0.0000 C   0  0  0  0  0  0  0  0  0  0  0  0
    4.6904   -2.8601    0.0000 O   0  0  0  0  0  0  0  0  0  0  0  0
    4.3786   -1.3929    0.0000 C   0  0  0  0  0  0  0  0  0  0  0  0
    2.9520   -0.9294    0.0000 C   0  0  0  0  0  0  0  0  0  0  0  0
    2.6401    0.5379    0.0000 C   0  0  0  0  0  0  0  0  0  0  0  0
    1.2135    1.0014    0.0000 C   0  0  0  0  0  0  0  0  0  0  0  0
    0.0000    0.1197    0.0000 O   0  0  0  0  0  0  0  0  0  0  0  0
   -1.2135    1.0014    0.0000 C   0  0  0  0  0  0  0  0  0  0  0  0
   -2.6401    0.5379    0.0000 C   0  0  0  0  0  0  0  0  0  0  0  0
   -3.7548    1.5415    0.0000 C   0  0  0  0  0  0  0  0  0  0  0  0
   -5.1814    1.0780    0.0000 C   0  0  0  0  0  0  0  0  0  0  0  0
   -5.4933   -0.3892    0.0000 C   0  0  0  0  0  0  0  0  0  0  0  0
   -6.9199   -0.8527    0.0000 O   0  0  0  0  0  0  0  0  0  0  0  0
   -4.3786   -1.3929    0.0000 C   0  0  0  0  0  0  0  0  0  0  0  0
   -4.6904   -2.8601    0.0000 O   0  0  0  0  0  0  0  0  0  0  0  0
   -3.5757   -3.8638    0.0000 C   0  0  0  0  0  0  0  0  0  0  0  0
   -2.9520   -0.9294    0.0000 C   0  0  0  0  0  0  0  0  0  0  0  0
   -0.7500    2.4280    0.0000 C   0  0  0  0  0  0  0  0  0  0  0  0
   -1.6317    3.6415    0.0000 C   0  0  0  0  0  0  0  0  0  0  0  0
    0.7500    2.4280    0.0000 C   0  0  0  0  0  0  0  0  0  0  0  0
    1.6317    3.6415    0.0000 C   0  0  0  0  0  0  0  0  0  0  0  0
    3.7548    1.5415    0.0000 C   0  0  0  0  0  0  0  0  0  0  0  0
    5.1814    1.0780    0.0000 C   0  0  0  0  0  0  0  0  0  0  0  0
    5.4933   -0.3892    0.0000 C   0  0  0  0  0  0  0  0  0  0  0  0
    6.9199   -0.8527    0.0000 O   0  0  0  0  0  0  0  0  0  0  0  0
  1  2  1  0
  2  3  1  0
  3  4  2  0
  4  5  1  0
  6  5  1  1
  6  7  1  0
  7  8  1  0
  8  9  1  1
  9 10  2  0
 10 11  1  0
 11 12  2  0
 12 13  1  0
 12 14  1  0
 14 15  1  0
 15 16  1  0
 14 17  2  0
  8 18  1  0
 18 19  1  1
 18 20  1  0
 20 21  1  6
  5 22  2  0
 22 23  1  0
 23 24  2  0
 24 25  1  0
 24  3  1  0
 20  6  1  0
 17  9  1  0
M  END
>  <identifier>  (472) 
CNP0202297.2

>  <canonical_smiles>  (472) 
COC1=CC([C@H]2O[C@@H](C3=CC=C(O)C(OC)=C3)[C@@H](C)[C@@H]2C)=CC=C1O

>  <standard_inchi>  (472) 
InChI=1S/C20H24O5/c1-11-12(2)20(14-6-8-16(22)18(10-14)24-4)25-19(11)13-5-7-15(21)17(9-13)23-3/h5-12,19-22H,1-4H3/t11-,12-,19-,20+/m0/s1

>  <standard_inchi_key>  (472) 
GMXMKSFJQLFOSO-HKKFXGGESA-N

>  <name>  (472) 
Verrucosin

>  <iupac_name>  (472) 
4-[(2~{R},3~{S},4~{S},5~{S})-5-(4-hydroxy-3-methoxy-phenyl)-3,4-dimethyl-tetrahydrofuran-2-yl]-2-methoxy-phenol

>  <annotation_level>  (472) 
5

>  <total_atom_count>  (472) 
49

>  <heavy_atom_count>  (472) 
25

>  <molecular_weight>  (472) 
344.41

>  <exact_molecular_weight>  (472) 
344.16237

>  <molecular_formula>  (472) 
C20H24O5

>  <alogp>  (472) 
4.20

>  <topological_polar_surface_area>  (472) 
68.15

>  <rotatable_bond_count>  (472) 
4

>  <hydrogen_bond_acceptors>  (472) 
5

>  <hydrogen_bond_donors>  (472) 
2

>  <hydrogen_bond_acceptors_lipinski>  (472) 
5

>  <hydrogen_bond_donors_lipinski>  (472) 
2

>  <lipinski_rule_of_five_violations>  (472) 
0

>  <aromatic_rings_count>  (472) 
2

>  <qed_drug_likeliness>  (472) 
0.87

>  <formal_charge>  (472) 
0

>  <fractioncsp3>  (472) 
0.40

>  <number_of_minimal_rings>  (472) 
3

>  <van_der_walls_volume>  (472) 
319.42

>  <contains_sugar>  (472) 
False

>  <contains_ring_sugars>  (472) 
False

>  <contains_linear_sugars>  (472) 
False

>  <murcko_framework>  (472) 
O1C(c2ccccc2)CCC1c3ccccc3

>  <np_likeness>  (472) 
1.03

>  <chemical_class>  (472) 
Furanoid lignans

>  <chemical_sub_class>  (472) 
Tetrahydrofuran lignans

>  <chemical_super_class>  (472) 
Lignans, neolignans and related compounds

>  <direct_parent_classification>  (472) 
7,7'-epoxylignans

>  <np_classifier_pathway>  (472) 
Shikimates and Phenylpropanoids

>  <np_classifier_superclass>  (472) 
Lignans

>  <np_classifier_class>  (472) 
Furanoid lignans

>  <np_classifier_is_glycoside>  (472) 
False

>  <organisms>  (472) 
Andinobates fulguritus|Bicuiba oleifera|Catalpa bignonioides|Cephalonoplos segetum|Comaster multifida|Esenbeckia nesiotica|Helipterum tenellum|Hyptis tomentosa|Ipomoea cristulata|Iryanthera juruensis|Lachnoanaerobaculum saburreum|Lens phaseoloides|Lophozonia menziesii|Myristica fragrans|Pancratium trianthum|Piper pedicellosum|Rhodotypos scandens|Virola surinamensis|Xanthostemon oppositifolius|aristolochia fordiana

>  <collections>  (472) 
CMAUP (cCollective molecular activities of useful plants)|ChemSpider NPs|Latin America dataset|NPASS|NuBBEDB|Super Natural II|TCMDB-Taiwan (Traditional Chinese Medicine database)|WikiData Natural Products

>  <dois>  (472) 
10.1016/J.BMCL.2010.05.067|10.1016/S0031-9422(00)00477-5|10.1016/S0031-9422(96)00408-6|10.1016/S0031-9422(98)80061-7|10.1248/CPB.35.3315

>  <synonyms>  (472) 
83198-63-4|BDBM50242959|CHEMBL3601519|CS-0527353|E88918|HY-N10396|SCHEMBL893163|Verrucosin

>  <cas>  (472) 
83198-63-4

$$$$

     RDKit          2D

 12 12  0  0  0  0  0  0  0  0999 V2000
    3.2500    1.9486    0.0000 C   0  0  0  0  0  0  0  0  0  0  0  0
    2.5000    0.6495    0.0000 O   0  0  0  0  0  0  0  0  0  0  0  0
    1.0000    0.6495    0.0000 C   0  0  0  0  0  0  0  0  0  0  0  0
    0.2500   -0.6495    0.0000 C   0  0  0  0  0  0  0  0  0  0  0  0
    1.0000   -1.9486    0.0000 C   0  0  0  0  0  0  0  0  0  0  0  0
    1.7500   -3.2476    0.0000 N   0  0  0  0  0  0  0  0  0  0  0  0
   -1.2500   -0.6495    0.0000 C   0  0  0  0  0  0  0  0  0  0  0  0
   -2.0000   -1.9486    0.0000 O   0  0  0  0  0  0  0  0  0  0  0  0
   -2.0000    0.6495    0.0000 N   0  0  0  0  0  0  0  0  0  0  0  0
   -3.5000    0.6495    0.0000 C   0  0  0  0  0  0  0  0  0  0  0  0
   -1.2500    1.9486    0.0000 C   0  0  0  0  0  0  0  0  0  0  0  0
    0.2500    1.9486    0.0000 C   0  0  0  0  0  0  0  0  0  0  0  0
  1  2  1  0
  2  3  1  0
  3  4  2  0
  4  5  1  0
  5  6  3  0
  4  7  1  0
  7  8  2  0
  7  9  1  0
  9 10  1  0
  9 11  1  0
 11 12  2  0
 12  3  1  0
M  END
>  <identifier>  (473) 
CNP0318450.0

>  <canonical_smiles>  (473) 
COC1=C(C#N)C(=O)N(C)C=C1

>  <standard_inchi>  (473) 
InChI=1S/C8H8N2O2/c1-10-4-3-7(12-2)6(5-9)8(10)11/h3-4H,1-2H3

>  <standard_inchi_key>  (473) 
PETSAYFQSGAEQY-UHFFFAOYSA-N

>  <name>  (473) 
RICININE

>  <iupac_name>  (473) 
4-methoxy-1-methyl-2-oxo-pyridine-3-carbonitrile

>  <annotation_level>  (473) 
5

>  <total_atom_count>  (473) 
20

>  <heavy_atom_count>  (473) 
12

>  <molecular_weight>  (473) 
164.16

>  <exact_molecular_weight>  (473) 
164.05858

>  <molecular_formula>  (473) 
C8H8N2O2

>  <alogp>  (473) 
0.27

>  <topological_polar_surface_area>  (473) 
55.02

>  <rotatable_bond_count>  (473) 
1

>  <hydrogen_bond_acceptors>  (473) 
4

>  <hydrogen_bond_donors>  (473) 
0

>  <hydrogen_bond_acceptors_lipinski>  (473) 
4

>  <hydrogen_bond_donors_lipinski>  (473) 
0

>  <lipinski_rule_of_five_violations>  (473) 
0

>  <aromatic_rings_count>  (473) 
1

>  <qed_drug_likeliness>  (473) 
0.60

>  <formal_charge>  (473) 
0

>  <fractioncsp3>  (473) 
0.25

>  <number_of_minimal_rings>  (473) 
1

>  <van_der_walls_volume>  (473) 
147.98

>  <contains_sugar>  (473) 
False

>  <contains_ring_sugars>  (473) 
False

>  <contains_linear_sugars>  (473) 
False

>  <murcko_framework>  (473) 
C=1C=CCNC1

>  <np_likeness>  (473) 
-0.42

>  <chemical_class>  (473) 
Pyridines and derivatives

>  <chemical_sub_class>  (473) 
3-pyridinecarbonitriles

>  <chemical_super_class>  (473) 
Organoheterocyclic compounds

>  <direct_parent_classification>  (473) 
3-pyridinecarbonitriles

>  <np_classifier_pathway>  (473) 
Alkaloids

>  <np_classifier_superclass>  (473) 
Nicotinic acid alkaloids

>  <np_classifier_class>  (473) 
Pyridine alkaloids

>  <np_classifier_is_glycoside>  (473) 
False

>  <organisms>  (473) 
Bussea sakalava|Cheimonophyllum candidissimum|Coespeletia moritziana|Lamellodysidea chlorea|Lens culinaris|Lepisanthes tetraphylla|Ricinus Communis|Ricinus communis|Stomozoa murrayi|Tetragonotheca repanda|Xenia viridis

>  <collections>  (473) 
AnalytiCon Discovery NPs|CMAUP (cCollective molecular activities of useful plants)|ChEBI NPs|ETM (Ethiopian Traditional Medicine) DB|Latin America dataset|Mitishamba database|NPASS|NPEdia|NuBBEDB|PubChem NPs|Super Natural II|TCMDB-Taiwan (Traditional Chinese Medicine database)|TIPdb (database of Taiwan indigenous plants)|UNPD (Universal Natural Products Database)|VietHerb|WikiData Natural Products|p-ANAPL

>  <dois>  (473) 
10.1002/DDR.430260207|10.1007/BF00630015|10.1016/S0031-9422(97)00773-5|10.1016/S0091-3057(99)00007-6|10.1021/NP50037A041|10.1039/JS8641700195|10.1055/S-0028-1097329|10.1590/S0073-47212009000100009|10.4324/9780203361085_CHAPTER_3

>  <synonyms>  (473) 
1,2-Dihydro-1-methyl-4-methoxy-2-oxo-3-pyridine carbonitrile|1,2-Dihydro-4-methoxy-1-methyl-2-oxonicotinonitrile|1,2-dihydro-4-methoxy-1-methyl-2-oxo-3-pyridimecarbonitrile|130UFS7AE0|3-Pyridinecarbonitrile, 1,2-dihydro-4-methoxy-1-methyl-2-oxo-|4-methoxy-1-methyl-2-oxo-1,2-dihydropyridine-3-carbonitrile|4-methoxy-1-methyl-2-oxopyridine-3-carbonitrile|5-22-07-00318 (Beilstein Handbook Reference)|524-40-3|ACon1_001266|AKOS003673683|BPBio1_000853|BRD-K82561139-001-01-9|BRN 0139222|BSPBio_000775|C01526|CAS-524-40-3|CCG-36061|CHEBI:18043|CHEMBL1329957|CS-0083725|DB-052124|DTXSID50200412|E88580|EINECS 208-359-7|FS-7365|HMS1539K09|HMS1570G17|HMS2097G17|HMS2268G21|HY-121944|MEGxp0_000747|MFCD00171320|MLS001048969|NCGC00016487-01|NCGC00142397-01|NCGC00169517-01|NS00015447|NSC 409913|NSC 642604|Nicotinonitrile, 1,2-dihydro-4-methoxy-1-methyl-2-oxo-|Oprea1_847597|Prestwick0_000678|Prestwick_1041|Q907865|RICININE [MI]|Recinine|Ricidine|Ricinin|Ricinine, >=95% (LC\/MS-ELSD)|Ricinine-(methyl-d3)|Ritsinin|SCHEMBL257955|SMR000386989|SPBio_002696|STL564798|SY256804|TNP00192|TimTec1_001989|UNII-130UFS7AE0|WLN: T6NVJ A1 CCN DO1

>  <cas>  (473) 
524-40-3

$$$$

     RDKit          2D

 19 18  0  0  0  0  0  0  0  0999 V2000
   -7.3255    0.4409    0.0000 C   0  0  0  0  0  0  0  0  0  0  0  0
   -5.9082   -0.0504    0.0000 C   0  0  0  0  0  0  0  0  0  0  0  0
   -5.6250   -1.5234    0.0000 C   0  0  0  0  0  0  0  0  0  0  0  0
   -4.7741    0.9313    0.0000 C   0  0  0  0  0  0  0  0  0  0  0  0
   -3.3568    0.4400    0.0000 C   0  0  0  0  0  0  0  0  0  0  0  0
   -2.2227    1.4218    0.0000 N   0  0  0  0  0  0  0  0  0  0  0  0
   -0.8055    0.9305    0.0000 C   0  0  0  0  0  0  0  0  0  0  0  0
    0.3287    1.9122    0.0000 N   0  0  0  0  0  0  0  0  0  0  0  0
    1.7459    1.4209    0.0000 C   0  0  0  0  0  0  0  0  0  0  0  0
    2.8800    2.4026    0.0000 C   0  0  0  0  0  0  0  0  0  0  0  0
    4.2973    1.9113    0.0000 C   0  0  0  0  0  0  0  0  0  0  0  0
    5.4314    2.8931    0.0000 C   0  0  0  0  0  0  0  0  0  0  0  0
    4.5804    0.4383    0.0000 C   0  0  0  0  0  0  0  0  0  0  0  0
   -0.5223   -0.5426    0.0000 N   0  0  0  0  0  0  0  0  0  0  0  0
    0.8950   -1.0339    0.0000 C   0  0  0  0  0  0  0  0  0  0  0  0
    1.1781   -2.5069    0.0000 C   0  0  0  0  0  0  0  0  0  0  0  0
    2.5954   -2.9982    0.0000 C   0  0  0  0  0  0  0  0  0  0  0  0
    2.8785   -4.4712    0.0000 C   0  0  0  0  0  0  0  0  0  0  0  0
    3.7295   -2.0165    0.0000 C   0  0  0  0  0  0  0  0  0  0  0  0
  1  2  1  0
  2  3  1  0
  2  4  2  0
  4  5  1  0
  5  6  1  0
  6  7  2  0
  7  8  1  0
  8  9  1  0
  9 10  1  0
 10 11  2  0
 11 12  1  0
 11 13  1  0
  7 14  1  0
 14 15  1  0
 15 16  1  0
 16 17  2  0
 17 18  1  0
 17 19  1  0
M  END
>  <identifier>  (474) 
CNP0111421.0

>  <canonical_smiles>  (474) 
CC(C)=CCN=C(NCC=C(C)C)NCC=C(C)C

>  <standard_inchi>  (474) 
InChI=1S/C16H29N3/c1-13(2)7-10-17-16(18-11-8-14(3)4)19-12-9-15(5)6/h7-9H,10-12H2,1-6H3,(H2,17,18,19)

>  <standard_inchi_key>  (474) 
QNYKAPDLFBDEOG-UHFFFAOYSA-N

>  <name>  (474) 
1,2,3-tris(3-methylbut-2-enyl)guanidine

>  <iupac_name>  (474) 
1,2,3-tris(3-methylbut-2-enyl)guanidine

>  <annotation_level>  (474) 
5

>  <total_atom_count>  (474) 
48

>  <heavy_atom_count>  (474) 
19

>  <molecular_weight>  (474) 
263.43

>  <exact_molecular_weight>  (474) 
263.23615

>  <molecular_formula>  (474) 
C16H29N3

>  <alogp>  (474) 
3.42

>  <topological_polar_surface_area>  (474) 
36.42

>  <rotatable_bond_count>  (474) 
6

>  <hydrogen_bond_acceptors>  (474) 
1

>  <hydrogen_bond_donors>  (474) 
2

>  <hydrogen_bond_acceptors_lipinski>  (474) 
1

>  <hydrogen_bond_donors_lipinski>  (474) 
2

>  <lipinski_rule_of_five_violations>  (474) 
0

>  <aromatic_rings_count>  (474) 
0

>  <qed_drug_likeliness>  (474) 
0.44

>  <formal_charge>  (474) 
0

>  <fractioncsp3>  (474) 
0.56

>  <number_of_minimal_rings>  (474) 
0

>  <van_der_walls_volume>  (474) 
292.05

>  <contains_sugar>  (474) 
False

>  <contains_ring_sugars>  (474) 
False

>  <contains_linear_sugars>  (474) 
False

>  <murcko_framework>  (474) 
nan

>  <np_likeness>  (474) 
0.80

>  <chemical_class>  (474) 
Organonitrogen compounds

>  <chemical_sub_class>  (474) 
Guanidines

>  <chemical_super_class>  (474) 
Organic nitrogen compounds

>  <direct_parent_classification>  (474) 
Guanidines

>  <np_classifier_pathway>  (474) 
Terpenoids

>  <np_classifier_superclass>  (474) 
Monoterpenoids

>  <np_classifier_class>  (474) 
Acyclic monoterpenoids

>  <np_classifier_is_glycoside>  (474) 
False

>  <organisms>  (474) 
Alchornea|Alchornea rugosa|Pterogyne nitens

>  <collections>  (474) 
Australian natural products|ChemSpider NPs|Latin America dataset|NuBBEDB|Super Natural II|UNPD (Universal Natural Products Database)|WikiData Natural Products|ZINC NP

>  <dois>  (474) 
10.1039/c29690001484|10.1071/CH9701679|10.1590/S0102-695X2010005000017

>  <synonyms>  (474) 
1,2,3-tris(3-methylbut-2-enyl)guanidine|CHEMBL3325774|N-1,N-2,N-3-triisopentenylguanidine

>  <cas>  (474) 
nan

$$$$

     RDKit          2D

 28 30  0  0  0  0  0  0  0  0999 V2000
   -5.9937    3.7550    0.0000 C   0  0  0  0  0  0  0  0  0  0  0  0
   -4.6430    3.1026    0.0000 O   0  0  0  0  0  0  0  0  0  0  0  0
   -4.5326    1.6067    0.0000 C   0  0  0  0  0  0  0  0  0  0  0  0
   -5.7729    0.7631    0.0000 O   0  0  0  0  0  0  0  0  0  0  0  0
   -3.1819    0.9543    0.0000 C   0  0  0  0  0  0  0  0  0  0  0  0
   -1.9416    1.7979    0.0000 C   0  0  0  0  0  0  0  0  0  0  0  0
   -0.5909    1.1455    0.0000 O   0  0  0  0  0  0  0  0  0  0  0  0
   -0.4805   -0.3504    0.0000 C   0  0  0  0  0  0  0  0  0  0  0  0
    0.8703   -1.0028    0.0000 O   0  0  0  0  0  0  0  0  0  0  0  0
    2.1106   -0.1592    0.0000 C   0  0  0  0  0  0  0  0  0  0  0  0
    3.4613   -0.8116    0.0000 O   0  0  0  0  0  0  0  0  0  0  0  0
    4.7016    0.0320    0.0000 C   0  0  0  0  0  0  0  0  0  0  0  0
    6.0523   -0.6203    0.0000 C   0  0  0  0  0  0  0  0  0  0  0  0
    6.1627   -2.1163    0.0000 O   0  0  0  0  0  0  0  0  0  0  0  0
    4.5912    1.5280    0.0000 C   0  0  0  0  0  0  0  0  0  0  0  0
    5.8315    2.3715    0.0000 O   0  0  0  0  0  0  0  0  0  0  0  0
    3.2405    2.1803    0.0000 C   0  0  0  0  0  0  0  0  0  0  0  0
    3.1301    3.6762    0.0000 O   0  0  0  0  0  0  0  0  0  0  0  0
    2.0002    1.3367    0.0000 C   0  0  0  0  0  0  0  0  0  0  0  0
    0.6495    1.9891    0.0000 O   0  0  0  0  0  0  0  0  0  0  0  0
   -1.7208   -1.1940    0.0000 C   0  0  0  0  0  0  0  0  0  0  0  0
   -1.9238   -2.6802    0.0000 C   0  0  0  0  0  0  0  0  0  0  0  0
   -0.8408   -3.7180    0.0000 C   0  0  0  0  0  0  0  0  0  0  0  0
    0.5995   -3.2990    0.0000 O   0  0  0  0  0  0  0  0  0  0  0  0
   -1.1981   -5.1748    0.0000 O   0  0  0  0  0  0  0  0  0  0  0  0
   -3.4000   -2.9463    0.0000 C   0  0  0  0  0  0  0  0  0  0  0  0
   -4.1093   -1.6246    0.0000 C   0  0  0  0  0  0  0  0  0  0  0  0
   -3.0715   -0.5416    0.0000 C   0  0  0  0  0  0  0  0  0  0  0  0
  1  2  1  0
  2  3  1  0
  3  4  2  0
  3  5  1  0
  5  6  2  0
  6  7  1  0
  7  8  1  0
  8  9  1  1
 10  9  1  1
 10 11  1  0
 11 12  1  0
 12 13  1  1
 13 14  1  0
 12 15  1  0
 15 16  1  6
 15 17  1  0
 17 18  1  1
 17 19  1  0
 19 20  1  6
 21  8  1  6
 21 22  1  0
 22 23  1  1
 23 24  2  0
 23 25  1  0
 22 26  1  0
 26 27  2  0
 28 27  1  6
 28  5  1  0
 19 10  1  0
 28 21  1  0
M  END
>  <identifier>  (475) 
CNP0154396.1

>  <canonical_smiles>  (475) 
COC(=O)C1=CO[C@@H](O[C@@H]2O[C@H](CO)[C@@H](O)[C@H](O)[C@H]2O)[C@@H]2[C@@H](C(=O)O)C=C[C@H]12

>  <standard_inchi>  (475) 
InChI=1S/C17H22O11/c1-25-15(24)8-5-26-16(10-6(8)2-3-7(10)14(22)23)28-17-13(21)12(20)11(19)9(4-18)27-17/h2-3,5-7,9-13,16-21H,4H2,1H3,(H,22,23)/t6-,7+,9-,10+,11-,12+,13-,16+,17+/m1/s1

>  <standard_inchi_key>  (475) 
QXLZMFXGMGPPHW-JACXBSBZSA-N

>  <name>  (475) 
nan

>  <iupac_name>  (475) 
(1~{S},4~{a}~{S},7~{S},7~{a}~{S})-4-methoxycarbonyl-1-[(2~{S},3~{R},4~{S},5~{S},6~{R})-3,4,5-trihydroxy-6-(hydroxymethyl)tetrahydropyran-2-yl]oxy-1,4~{a},7,7~{a}-tetrahydrocyclopenta[c]pyran-7-carboxylic acid

>  <annotation_level>  (475) 
5

>  <total_atom_count>  (475) 
50

>  <heavy_atom_count>  (475) 
28

>  <molecular_weight>  (475) 
402.35

>  <exact_molecular_weight>  (475) 
402.11621

>  <molecular_formula>  (475) 
C17H22O11

>  <alogp>  (475) 
-2.28

>  <topological_polar_surface_area>  (475) 
172.21

>  <rotatable_bond_count>  (475) 
5

>  <hydrogen_bond_acceptors>  (475) 
10

>  <hydrogen_bond_donors>  (475) 
5

>  <hydrogen_bond_acceptors_lipinski>  (475) 
10

>  <hydrogen_bond_donors_lipinski>  (475) 
5

>  <lipinski_rule_of_five_violations>  (475) 
0

>  <aromatic_rings_count>  (475) 
0

>  <qed_drug_likeliness>  (475) 
0.25

>  <formal_charge>  (475) 
0

>  <fractioncsp3>  (475) 
0.65

>  <number_of_minimal_rings>  (475) 
3

>  <van_der_walls_volume>  (475) 
332.38

>  <contains_sugar>  (475) 
True

>  <contains_ring_sugars>  (475) 
True

>  <contains_linear_sugars>  (475) 
False

>  <murcko_framework>  (475) 
O1C=CC2C=CCC2C1OC3OCCCC3

>  <np_likeness>  (475) 
2.55

>  <chemical_class>  (475) 
Prenol lipids

>  <chemical_sub_class>  (475) 
Terpene glycosides

>  <chemical_super_class>  (475) 
Lipids and lipid-like molecules

>  <direct_parent_classification>  (475) 
Iridoid O-glycosides

>  <np_classifier_pathway>  (475) 
Terpenoids

>  <np_classifier_superclass>  (475) 
Monoterpenoids

>  <np_classifier_class>  (475) 
Iridoids monoterpenoids

>  <np_classifier_is_glycoside>  (475) 
True

>  <organisms>  (475) 
Tocoyena formosa

>  <collections>  (475) 
ChemSpider NPs|Latin America dataset|NuBBEDB|Super Natural II|WikiData Natural Products|ZINC NP

>  <dois>  (475) 
10.5935/0103-5053.19960024

>  <synonyms>  (475) 
Apodanthoside

>  <cas>  (475) 
nan

$$$$

     RDKit          2D

 13 13  0  0  0  0  0  0  0  0999 V2000
   -5.2901   -0.3059    0.0000 C   0  0  0  0  0  0  0  0  0  0  0  0
   -3.8994    0.2562    0.0000 C   0  0  0  0  0  0  0  0  0  0  0  0
   -2.7172   -0.6671    0.0000 C   0  0  0  0  0  0  0  0  0  0  0  0
   -1.3265   -0.1050    0.0000 C   0  0  0  0  0  0  0  0  0  0  0  0
   -1.1180    1.3804    0.0000 C   0  0  0  0  0  0  0  0  0  0  0  0
    0.2727    1.9425    0.0000 C   0  0  0  0  0  0  0  0  0  0  0  0
    1.4549    1.0191    0.0000 C   0  0  0  0  0  0  0  0  0  0  0  0
    2.8456    1.5812    0.0000 O   0  0  0  0  0  0  0  0  0  0  0  0
    4.0277    0.6579    0.0000 C   0  0  0  0  0  0  0  0  0  0  0  0
    1.2463   -0.4663    0.0000 C   0  0  0  0  0  0  0  0  0  0  0  0
    2.4284   -1.3896    0.0000 O   0  0  0  0  0  0  0  0  0  0  0  0
    2.2199   -2.8751    0.0000 C   0  0  0  0  0  0  0  0  0  0  0  0
   -0.1444   -1.0284    0.0000 C   0  0  0  0  0  0  0  0  0  0  0  0
  1  2  2  0
  2  3  1  0
  3  4  1  0
  4  5  2  0
  5  6  1  0
  6  7  2  0
  7  8  1  0
  8  9  1  0
  7 10  1  0
 10 11  1  0
 11 12  1  0
 10 13  2  0
 13  4  1  0
M  END
>  <identifier>  (476) 
CNP0137352.0

>  <canonical_smiles>  (476) 
C=CCC1=CC=C(OC)C(OC)=C1

>  <standard_inchi>  (476) 
InChI=1S/C11H14O2/c1-4-5-9-6-7-10(12-2)11(8-9)13-3/h4,6-8H,1,5H2,2-3H3

>  <standard_inchi_key>  (476) 
ZYEMGPIYFIJGTP-UHFFFAOYSA-N

>  <name>  (476) 
METHYLEUGENOL

>  <iupac_name>  (476) 
4-allyl-1,2-dimethoxy-benzene

>  <annotation_level>  (476) 
5

>  <total_atom_count>  (476) 
27

>  <heavy_atom_count>  (476) 
13

>  <molecular_weight>  (476) 
178.23

>  <exact_molecular_weight>  (476) 
178.09938

>  <molecular_formula>  (476) 
C11H14O2

>  <alogp>  (476) 
2.43

>  <topological_polar_surface_area>  (476) 
18.46

>  <rotatable_bond_count>  (476) 
4

>  <hydrogen_bond_acceptors>  (476) 
2

>  <hydrogen_bond_donors>  (476) 
0

>  <hydrogen_bond_acceptors_lipinski>  (476) 
2

>  <hydrogen_bond_donors_lipinski>  (476) 
0

>  <lipinski_rule_of_five_violations>  (476) 
0

>  <aromatic_rings_count>  (476) 
1

>  <qed_drug_likeliness>  (476) 
0.66

>  <formal_charge>  (476) 
0

>  <fractioncsp3>  (476) 
0.27

>  <number_of_minimal_rings>  (476) 
1

>  <van_der_walls_volume>  (476) 
178.61

>  <contains_sugar>  (476) 
False

>  <contains_ring_sugars>  (476) 
False

>  <contains_linear_sugars>  (476) 
False

>  <murcko_framework>  (476) 
c1ccccc1

>  <np_likeness>  (476) 
0.38

>  <chemical_class>  (476) 
Benzene and substituted derivatives

>  <chemical_sub_class>  (476) 
Methoxybenzenes

>  <chemical_super_class>  (476) 
Benzenoids

>  <direct_parent_classification>  (476) 
Dimethoxybenzenes

>  <np_classifier_pathway>  (476) 
Shikimates and Phenylpropanoids

>  <np_classifier_superclass>  (476) 
Phenylpropanoids (C6-C3)

>  <np_classifier_class>  (476) 
Cinnamic acids and derivatives

>  <np_classifier_is_glycoside>  (476) 
False

>  <organisms>  (476) 
Achillea abrotanoides|Achillea arabica|Achillea biebersteinii|Achillea crithmifolia|Aconitum episcopale|Aconitum fischeri|Aconitum macrorhynchum|Acorus calamus|Acorus gramineus|Acorus tatarinowii|Actaea dahurica|Actaea heracleifolia|Actaea simplex|Agastache foeniculum|Agastache rugosa|Agathosma capensis|Aguacate|Akebia quinata|Akebia trifoliata|Alpinia Galanga|Alpinia conchigera|Alpinia galanga|Amomyrtella guili|Anaxyrus americanus|Anemopsis californica|Angelica acutiloba|Angelica gigas|Angelica sinensis|Aniba canelilla|Aniba puchury-minor|Anisocycla jollyana|Apocynum androsaemifolium|Ardisia arborescens|Aristolochiaceae|Arnebia euchroma|Arnebia guttata|Aromia moschata|Artemisia arborescens|Artemisia argyi|Artemisia capillaries|Artemisia capillaris|Artemisia coerulescens|Artemisia dracunculus|Artemisia glauca|Artemisia scoparia|Asarum asperum|Asarum canadense|Asarum celsum|Asarum constrictum|Asarum costatum|Asarum crassum|Asarum dilatatum|Asarum europaeum|Asarum europaeum L.|Asarum fudsinoi|Asarum gusk|Asarum hatushimae|Asarum heterotropoides|Asarum heterotropoides f. schm. var. mandshuricum (maxim.) kitag.|Asarum heterotropoides var. mandshuricum|Asarum hexalobum|Asarum hypogynum|Asarum kumageanum|Asarum lutchuense|Asarum megacalyx|Asarum nipponicum|Asarum rigescens|Asarum sakawanum|Asarum sieboldii|Asarum simile|Asarum takaoi|Asarum yaeyamense|Asarum yakusimense|Asiasarum heterotropoides|Asiasarum sieboldii|Athamanta vayredana|Atherosperma moschatum|Aulacomnium palustre|Baccharis alaternoides|Baccharis dracunculifolia|Berberis heterobotrys|Boronia pinnata|Brassica hirta|Bruguiera gymnorhiza|Bulbophyllum cheiri|Cacia concinna|Caesalpinia bonducella|Callitris columellaris|Cananga odorata|Canella winterana|Cannabis sativa|Cantinoa mutabilis|Carduus getulus|Caulis perillae|Caulis perillae frutescentis|Chamaecrista duckeana|Cicer songoricum|Cimicifuga foetida|Cinamomum cassia|Cinnamomum aromaticum|Cinnamomum camphora|Cinnamomum oliveri|Cinnamomum parthenoxylon|Cinnamomum sieboldii|Cinnamomum tenuifolium|Cinnamomum zeylanicum|Cinnamon|Cistus creticus|Citrus limon|Cladonia floerkeana|Clematis chinensis|Cnidium officinale|Coleus amboinicus|Comus officinalis|Coptis omeiensis|Coreopsis fasciculata|Cornus officinalis|Croton argyrophyllus|Croton conduplicatus|Croton eluteria|Croton essequiboensis|Croton grewioides|Croton jacobinensis|Croton jimenezii|Croton lachnostachyus|Croton malambo|Croton micans|Croton nepetaefolius|Croton nepetifolius|Croton sarcopetalus|Croton sonderianus|Croton triangularis|Croton tricolor|Croton zehntneri|Cryptocarya agathophylla|Cymbopogon flexuosus|Dacrydium franklinii|Damburneya purpurea|Daphne genkwa|Daucus carota|Daucus carota subsp. sativus (Hoffm.) Schuebl. & G. Martens|Desmos chinensis|Diosma acmaephylla|Dysoxylum hainanense|Echinophora orientalis|Echinophora tenuifolia|Echinophora tournefortii|Ekebergia benguelensis|Elettaria cardamomum|Elsholtzia ciliata|Elsholtzia splendens|Eremanthus arboreus|Eremophila longifolia|Espeletia grandiflora|Etlingera cevuga|Etlingera pavieana|Eucalyptus hybrid|Foeniculum vulgare|Fructus amomi|Fructus amomi rotundus|Fructus galangae|Garcinia oligantha|Gentiana kurroo|Gerbera saxatilis|Glehnia littoralis|Glycyrrhiza foetida|Gundelia tournefortii|Hamamelis virginiana|Hedychium spicatum|Herba artemisiae scopariae|Hericium erinaceus|Heterotropa|Hexastylis arifolia|Homo sapiens|Hyacinthus orientalis|Hyptis mutabilis|Hyssopus officinalis|Hyssopus officinalis L.|Illicium difengpi|Illicium dunnianum|Illicium verum|Indigofera carlesii|Inula germanica|Iris spuria|Isatis tinctoria|Juniperus comitana|Juniperus durangensis|Juniperus gamboana|Juniperus jaliscana|Lagascea mollis|Lantana camara|Laurencia irieii|Laurus|Laurus nobilis|Laurus nobilis L.|Leptosyne stillmanii|Licaria puchuri-major|Licaria puchury-major|Ligusticum chuanxiong|Ligusticum sinense|Lithospermum erythrorhizon|Magnolia liliflora|Magnolia liliiflora|Magnolia officinalis|Magnolia salicifolia|Mallotus rhamnifolius|Mangifera indica|Manilkara zapota|Melaleuca alternifolia|Melaleuca bracteata|Melaleuca leucadendra|Melicertus plebejus|Michelia alba|Micromeria sinaica|Monopterix uaucu|Monopteryx uaucu|Morina persica|Mosla chinensis|Murraya paniculata|Myristica argentea|Myristica fragrans|Myrrhis odorata (L.) Scop.|Myrtus communis|Nectandra polita|Nierembergia aristata|Notylia fragrans|Ocimum basilicum|Ocimum basilicum L.|Ocimum gratissimum|Ocimum tenuiflorum|Ocotea pretiosa|Osmorhiza longistylis|Paeonia lactiflora|Pagrus major|Parmelia vittata|Pelargonium quercifolium|Pericarpium zanthoxyli|Perilla frutescens|Philotheca fitzgeraldii|Phlegmariurus yunnanensis|Phyllanthus emblica|Phyllospongia papyracea|Picea koraiensis|Pimenta dioica|Pimenta racemosa|Pimpinella puberula|Pinellia ternata|Pinus densiflora|Pinus nigra J. F. Arnold|Pinus sylvestris|Pinus sylvestris L.|Piper auritum|Piper betle|Piper marginatum|Piper nigrum|Piper sanctum|Piper sylvestre|Pisolithus arhizus|Pocillopora damicornis|Podocarpus ferruginea|Polygala sibirica|Polygala tenuifolia|Proiphys amboinensis|Protaetia cuprea|Prunus avium|Prunus dulcis|Psidium guajava|Pteronia camphorata|Pulicaria undulata|Pulmonaria mollis|Radix chuanxiong|Radix smilacis|Rhanterium epapposum|Rhizoma arisaema cum bile|Rhizoma chuanxiong|Rosa gallica|Rosa multiflora|Rosa rugosa|Rosa × damascena|Rosmarinus officinalis|Rubus trifidus|Salvia absconditiflora|Salvia sclarea|Sassafras albidum|Satureja montana|Satureja montana L.|Scutellaria barbata|Solidago odora|Sophora flavescens|Spathiphyllum cannifolium|Spondias mombin|Stockwellia|Stolonica socialis|Strobilanthes callosa|Strobilanthes zeylanica|Sus scrofa|Swertia japonica|Syzygium aromaticum|Tagetes filifolia|Talaromyces islandicus|Tanacetum parthenium|Tephrosia crassifolia|Tetracera alnifolia|Thapsia garganica|Thapsia maxima|Thapsia transtagana|Thapsia villosa|Thymus membranaceus|Todaroa aurea|Trachyspermum ammi|Umbellularia californica|Uvariopsis tripetala|Virola surinamensis|Vitis rotundifolia|West African Pepper|Zanthoxylum bungeanum|Zanthoxylum gilletii|Zieria arborescens|Zieria cytisoides|Zieria furfuracea|Zieria granulata|Zieria involucrata|Zieria laevigata|Zieria murphyi|Zieria obcordata|Zieria pilosa|Zieria robusta|Zieria smithii|Zingiber cassumunar|Zingiber cassumunar Roxb.|Zingiber montanum|Zingiber officinale|Zingiber purpureum|basil|candyleaf|cicely|clove|common myrtle|tarragon

>  <collections>  (476) 
ANPDB|Australian natural products|BitterDB|CMAUP (cCollective molecular activities of useful plants)|ChEBI NPs|ChemSpider NPs|FooDB|HIM (Herbal Ingredients in-vivo Metabolism database)|InterBioScreen Ltd|KNApSaCK|Latin America dataset|NANPDB (Natural Products from Northern African Sources)|NAPRORE-CR|NPASS|NPEdia|NuBBEDB|Phyto4Health|PubChem NPs|Super Natural II|TCMDB-Taiwan (Traditional Chinese Medicine database)|TCMID (Traditional Chinese Medicine Integrated Database)|TIPdb (database of Taiwan indigenous plants)|TPPT (Toxic Plants–PhytoToxins)|UNPD (Universal Natural Products Database)|VietHerb|WikiData Natural Products

>  <dois>  (476) 
10.1002/(SICI)1099-1026(199601)11:1<15::AID-FFJ541>3.0.CO;2-H|10.1002/(SICI)1099-1026(199901/02)14:1<15::AID-FFJ777>3.0.CO;2-M|10.1002/(SICI)1099-1573(199702)11:1<64::AID-PTR37>3.0.CO;2-Q|10.1002/(SICI)1099-1573(199805)12:3<172::AID-PTR212>3.0.CO;2-E|10.1002/CBER.188802101197|10.1002/FFJ.1547|10.1002/FFJ.2730010103|10.1002/FFJ.2730020106|10.1002/FFJ.2730030208|10.1002/FFJ.2730040206|10.1002/FFJ.2730060209|10.1002/FFJ.2730060307|10.1002/FFJ.2730070503|10.1002/FFJ.2730090107|10.1002/FFJ.2730100310|10.1002/FFJ.2730100506|10.1002/JCCS.198300010|10.1002/JPS.2600540529|10.1002/JPS.2600570622|10.1002/PTR.2650010304|10.1002/biuz.19840140514|10.1002/ffj.2730030109|10.1002/food.19880321030|10.1007/BF00574326|10.1007/BF00579987|10.1007/BF00629814|10.1007/BF01959201|10.1007/BF01961467|10.1007/BF02857217|10.1007/BF02860485|10.1007/BF02866639|10.1007/BF03045450|10.1007/S004030050433|10.1007/SPRINGERREFERENCE_69022|10.1007/s102650200007|10.1016/0031-6865(94)00054-Y|10.1016/0031-9422(74)85146-0|10.1016/0031-9422(81)85097-2|10.1016/0031-9422(83)83066-0|10.1016/0031-9422(90)85278-N|10.1016/0031-9422(90)85434-H|10.1016/0031-9422(91)83036-K|10.1016/0031-9422(91)83064-R|10.1016/0031-9422(95)00382-H|10.1016/0031-9422(96)00082-9|10.1016/0305-1978(88)90078-6|10.1016/0305-1978(92)90070-T|10.1016/0305-1978(95)00094-1|10.1016/0305-1978(96)00016-6|10.1016/0378-8741(83)90056-9|10.1016/0378-8741(89)90113-X|10.1016/J.BMCL.2012.01.136|10.1016/J.BSE.2010.01.009|10.1016/J.FCT.2008.07.017|10.1016/J.INDCROP.2014.04.048|10.1016/J.PHYTOCHEM.2006.04.025|10.1016/J.PHYTOCHEM.2007.11.006|10.1016/J.PHYTOCHEM.2009.06.013|10.1016/J.PHYTOCHEM.2018.12.020|10.1016/S0021-5198(19)34633-5|10.1016/S0021-9673(01)95036-8|10.1016/S0031-9422(00)80112-0|10.1016/S0031-9422(00)80814-6|10.1016/S0031-9422(00)82268-2|10.1016/S0031-9422(00)82788-0|10.1016/S0031-9422(00)83171-4|10.1016/S0031-9422(00)83939-4|10.1016/S0031-9422(00)94541-2|10.1016/S0031-9422(00)95275-0|10.1016/S0031-9422(00)97370-9|10.1016/S0031-9422(00)97716-1|10.1016/S0031-9422(96)00675-9|10.1016/S0031-9422(97)00075-7|10.1016/S0031-9422(97)00172-6|10.1016/S0031-9422(97)00324-5|10.1016/S0168-9452(00)00357-5|10.1016/S0304-3835(99)00147-0|10.1016/S0305-1978(03)00179-0|10.1016/S0305-1978(97)00097-5|10.1016/S0944-7113(11)80031-0|10.1016/S0960-894X(03)00710-8|10.1021/JA01566A066|10.1021/JF00008A025|10.1021/JF00011A020|10.1021/JF00019A020|10.1021/JF00034A020|10.1021/JF00039A035|10.1021/JF00065A004|10.1021/JF00069A028|10.1021/JF00078A009|10.1021/JF00083A001|10.1021/JF000865W|10.1021/JF00111A021|10.1021/JF00111A026|10.1021/JF020466W|10.1021/JF0208278|10.1021/JF0402633|10.1021/JF049033E|10.1021/JF60165A026|10.1021/JF60217A066|10.1021/JF60218A031|10.1021/JF60228A025|10.1021/NP0000318|10.1021/NP0401260|10.1021/NP50008A001|10.1021/NP50012A010|10.1021/NP50017A019|10.1021/NP50035A028|10.1021/NP50040A037|10.1021/NP50040A040|10.1021/NP50046A033|10.1021/NP50048A057|10.1021/NP50052A041|10.1021/NP50058A023|10.1021/NP50083A010|10.1021/NP50093A014|10.1021/NP900225P|10.1021/NP990292L|10.1021/jf049033e|10.1039/C39750000879|10.1039/CT9120101612|10.1039/CT9160900751|10.1055/S-0028-1097281|10.1055/S-1999-14025|10.1055/S-2004-827203|10.1055/S-2006-957420|10.1055/S-2006-959379|10.1055/S-2006-959432|10.1055/S-2006-959506|10.1055/S-2006-960081|10.1055/S-2006-960096|10.1055/S-2006-961434|10.1055/S-2006-961553|10.1055/S-2006-962742|10.1055/S-2007-969948|10.1071/ch9610663|10.1076/PHBI.35.2.84.13279|10.1080/00021369.1989.10869813|10.1080/10412905.1989.9697801|10.1080/10412905.1990.9697817|10.1080/10412905.1990.9697854|10.1080/10412905.1990.9697875|10.1080/10412905.1991.9697952|10.1080/10412905.1991.9697953|10.1080/10412905.1991.9700498|10.1080/10412905.1992.9698062|10.1080/10412905.1992.9698084|10.1080/10412905.1992.9698111|10.1080/10412905.1992.9698127|10.1080/10412905.1992.9698139|10.1080/10412905.1993.9698170|10.1080/10412905.1993.9698176|10.1080/10412905.1993.9698181|10.1080/10412905.1993.9698203|10.1080/10412905.1993.9698236|10.1080/10412905.1993.9698260|10.1080/10412905.1994.9698333|10.1080/10412905.1994.9698406|10.1080/10412905.1994.9698432|10.1080/10412905.1995.9698462|10.1080/10412905.1995.9698469|10.1080/10412905.1995.9698479|10.1080/10412905.1995.9698499|10.1080/10412905.1995.9698501|10.1080/10412905.1995.9698530|10.1080/10412905.1995.9698553|10.1080/10412905.1995.9700530|10.1080/10412905.1997.9699459|10.1080/10412905.1997.9700708|10.1080/10412905.1998.9700856|10.1080/10412905.1998.9700906|10.1080/10412905.1998.9700913|10.1080/10412905.1998.9700918|10.1080/10412905.1999.9701146|10.1080/10412905.1999.9701159|10.1080/10412905.2000.9699486|10.1080/10412905.2000.9699551|10.1080/10412905.2002.9699883|10.1080/10412905.2004.9698765|10.1080/1057563029001/4764|10.1080/13880200500220268|10.1080/14786419.2010.506181|10.1080/14786419.2024.2448851|10.1111/J.1365-2621.1984.TB13669.X|10.1111/J.1600-0536.1991.TB01726.X|10.1155/2020/8819311|10.1246/BCSJ.56.3477|10.1248/BPB.20.776|10.1248/CPB.20.2251|10.1248/CPB.34.3885|10.1248/CPB.53.625|10.1248/CPB1953.4.223|10.1248/YAKUSHI1881.51.1_8|10.1248/YAKUSHI1947.106.1_17|10.1248/YAKUSHI1947.107.3_209|10.1248/YAKUSHI1947.107.3_219|10.1248/YAKUSHI1947.107.3_227|10.1248/YAKUSHI1947.87.12_1535|10.1248/YAKUSHI1947.90.11_1367|10.1271/NOGEIKAGAKU1924.63.185|10.14233/AJCHEM.2013.14387A|10.1515/ZNC-1984-7-803|10.1515/ZNC-1988-5-604|10.2174/157340711798375822|10.23893/1307-2080.APS.05611|10.3109/13880208709088136|10.3109/13880209109082877|10.3329/BJP.V3I2.844|10.3329/BJP.V4I1.845|10.3390/MOLECULES21111576|10.3891/acta.chem.scand.21-2247|10.4314/NJNPM.V1I1.11800|10.5530/PJ.2016.3.3|10.5897/JMPR10.078|10.5897/JMPR12.157

>  <synonyms>  (476) 
1,2-Dimethoxy-4-(2-propenyl)benzene|1,2-Dimethoxy-4-allylbenzene|1,2-dimethoxy-4-prop-2-enylbenzene|1,3,4-Eugenol methyl ether|1-(3,4-Dimethoxyphenyl)-2-propene|1-Allyl-3,4-dimethoxybenzene|29T9VA6R7M|3,4-Dimethoxyallylbenzene|4-Allyl-1,2-dimethoxybenzene|4-Allylveratrole|93-15-2|AC-34351|AI3-21040|AKOS015838877|AS-14807|Allylveratrol|BBL027720|BDBM50379791|BRN 1910871|Benzene, 1,2-dimethoxy-4-(2-propenyl)-|Benzene, 4-(2-propenyl)-1,2-dimethoxy|Benzene, 4-allyl-1,2-dimethoxy-|CAS-93-15-2|CCRIS 746|CHAVIBETOL METHYL ETHER|CHEBI:4918|CHEMBL108861|CS-W017325|Caswell No. 579AB|D1360|DB-002806|DTXCID505607|DTXSID5025607|Dimethoxy-4-(prop-2-en-1-yl)benzene|E80630|EC 202-223-0|EINECS 202-223-0|EN300-698375|ENT 21040|ENT-21040|EPA Pesticide Chemical Code 203900|EUGENYL METHYL ETHER [FHFI]|Eugenol methyl|Eugenol methyl ether|FEMA 2475|FEMA No. 2475|FEMA Number 2475|HMS2269M09|HMS3886M22|HSDB 4504|HY-N6996|METHYL EUGENOL [FCC]|METHYL EUGENOL [INCI]|METHYLCHAVIBETOL|METHYLEUGENOL (CONSTITUENT OF HOLY BASIL LEAF) [DSC]|METHYLEUGENOL [HSDB]|METHYLEUGENOL [IARC]|METHYLEUGENOL [MI]|MFCD00008652|MLS001065600|MLS001333205|Methyl eugenol|Methyl eugenol ether|Methyl eugenol, >=98%, FCC|Methyl eugenol, analytical standard|Methyleugenol,(S)|NCGC00091474-01|NCGC00254085-01|NCGC00259896-01|NS00009255|NSC 209528|NSC-8900|O-Methyleugenol|Q419829|S5755|SCHEMBL10108224|SCHEMBL113794|SMR000112378|STK801819|TRIDEUTEROMETHYL EUGENOL|Tox21_202347|Tox21_300071|UNII-29T9VA6R7M|VERATROLE, 4-ALLYL-|Veratrole methyl ether|W-100251|WLN: 1U2R CO1 DO1|Z1255398904|methyl ester eugenol

>  <cas>  (476) 
93-15-2

$$$$

     RDKit          2D

 32 35  0  0  0  0  0  0  0  0999 V2000
   -1.4295    1.4164    0.0000 O   0  0  0  0  0  0  0  0  0  0  0  0
    0.0622    1.2589    0.0000 C   0  0  0  0  0  0  0  0  0  0  0  0
    0.6717   -0.1117    0.0000 C   0  0  0  0  0  0  0  0  0  0  0  0
   -0.2106   -1.3248    0.0000 O   0  0  0  0  0  0  0  0  0  0  0  0
   -1.7023   -1.1674    0.0000 C   0  0  0  0  0  0  0  0  0  0  0  0
   -2.3117    0.2033    0.0000 O   0  0  0  0  0  0  0  0  0  0  0  0
   -3.8035    0.3607    0.0000 C   0  0  0  0  0  0  0  0  0  0  0  0
   -4.4129    1.7314    0.0000 C   0  0  0  0  0  0  0  0  0  0  0  0
   -5.9046    1.8888    0.0000 O   0  0  0  0  0  0  0  0  0  0  0  0
   -4.6857   -0.8524    0.0000 C   0  0  0  0  0  0  0  0  0  0  0  0
   -6.1774   -0.6949    0.0000 O   0  0  0  0  0  0  0  0  0  0  0  0
   -4.0762   -2.2230    0.0000 C   0  0  0  0  0  0  0  0  0  0  0  0
   -4.9585   -3.4361    0.0000 O   0  0  0  0  0  0  0  0  0  0  0  0
   -2.5845   -2.3805    0.0000 C   0  0  0  0  0  0  0  0  0  0  0  0
   -1.9751   -3.7511    0.0000 O   0  0  0  0  0  0  0  0  0  0  0  0
    2.1634   -0.2692    0.0000 C   0  0  0  0  0  0  0  0  0  0  0  0
    2.7728   -1.6398    0.0000 C   0  0  0  0  0  0  0  0  0  0  0  0
    1.8906   -2.8529    0.0000 C   0  0  0  0  0  0  0  0  0  0  0  0
    2.5000   -4.2236    0.0000 C   0  0  0  0  0  0  0  0  0  0  0  0
    3.9918   -4.3810    0.0000 C   0  0  0  0  0  0  0  0  0  0  0  0
    4.6012   -5.7517    0.0000 O   0  0  0  0  0  0  0  0  0  0  0  0
    4.8740   -3.1679    0.0000 C   0  0  0  0  0  0  0  0  0  0  0  0
    4.2645   -1.7973    0.0000 C   0  0  0  0  0  0  0  0  0  0  0  0
    3.0456    0.9439    0.0000 O   0  0  0  0  0  0  0  0  0  0  0  0
    2.4362    2.3145    0.0000 C   0  0  0  0  0  0  0  0  0  0  0  0
    3.3184    3.5276    0.0000 C   0  0  0  0  0  0  0  0  0  0  0  0
    2.7090    4.8982    0.0000 C   0  0  0  0  0  0  0  0  0  0  0  0
    3.5912    6.1113    0.0000 O   0  0  0  0  0  0  0  0  0  0  0  0
    1.2172    5.0557    0.0000 C   0  0  0  0  0  0  0  0  0  0  0  0
    0.3350    3.8426    0.0000 C   0  0  0  0  0  0  0  0  0  0  0  0
   -1.1567    4.0001    0.0000 O   0  0  0  0  0  0  0  0  0  0  0  0
    0.9445    2.4720    0.0000 C   0  0  0  0  0  0  0  0  0  0  0  0
  1  2  2  0
  2  3  1  0
  3  4  1  0
  5  4  1  1
  5  6  1  0
  6  7  1  0
  7  8  1  1
  8  9  1  0
  7 10  1  0
 10 11  1  6
 10 12  1  0
 12 13  1  1
 12 14  1  0
 14 15  1  6
  3 16  2  0
 16 17  1  0
 17 18  2  0
 18 19  1  0
 19 20  2  0
 20 21  1  0
 20 22  1  0
 22 23  2  0
 16 24  1  0
 24 25  1  0
 25 26  2  0
 26 27  1  0
 27 28  1  0
 27 29  2  0
 29 30  1  0
 30 31  1  0
 30 32  2  0
 32  2  1  0
 14  5  1  0
 23 17  1  0
 32 25  1  0
M  END
>  <identifier>  (477) 
CNP0187953.2

>  <canonical_smiles>  (477) 
O=C1C(O[C@@H]2O[C@H](CO)[C@@H](O)[C@H](O)[C@H]2O)=C(C2=CC=C(O)C=C2)OC2=CC(O)=CC(O)=C12

>  <standard_inchi>  (477) 
InChI=1S/C21H20O11/c22-7-13-15(26)17(28)18(29)21(31-13)32-20-16(27)14-11(25)5-10(24)6-12(14)30-19(20)8-1-3-9(23)4-2-8/h1-6,13,15,17-18,21-26,28-29H,7H2/t13-,15-,17+,18-,21+/m1/s1

>  <standard_inchi_key>  (477) 
JPUKWEQWGBDDQB-QSOFNFLRSA-N

>  <name>  (477) 
Astragalin

>  <iupac_name>  (477) 
5,7-dihydroxy-2-(4-hydroxyphenyl)-3-[(2~{S},3~{R},4~{S},5~{S},6~{R})-3,4,5-trihydroxy-6-(hydroxymethyl)tetrahydropyran-2-yl]oxy-chromen-4-one

>  <annotation_level>  (477) 
5

>  <total_atom_count>  (477) 
52

>  <heavy_atom_count>  (477) 
32

>  <molecular_weight>  (477) 
448.38

>  <exact_molecular_weight>  (477) 
448.10056

>  <molecular_formula>  (477) 
C21H20O11

>  <alogp>  (477) 
-0.24

>  <topological_polar_surface_area>  (477) 
190.28

>  <rotatable_bond_count>  (477) 
4

>  <hydrogen_bond_acceptors>  (477) 
11

>  <hydrogen_bond_donors>  (477) 
7

>  <hydrogen_bond_acceptors_lipinski>  (477) 
11

>  <hydrogen_bond_donors_lipinski>  (477) 
7

>  <lipinski_rule_of_five_violations>  (477) 
2

>  <aromatic_rings_count>  (477) 
3

>  <qed_drug_likeliness>  (477) 
0.28

>  <formal_charge>  (477) 
0

>  <fractioncsp3>  (477) 
0.29

>  <number_of_minimal_rings>  (477) 
4

>  <van_der_walls_volume>  (477) 
362.75

>  <contains_sugar>  (477) 
True

>  <contains_ring_sugars>  (477) 
True

>  <contains_linear_sugars>  (477) 
False

>  <murcko_framework>  (477) 
O1c2ccccc2CC(OC3OCCCC3)=C1c4ccccc4

>  <np_likeness>  (477) 
2.07

>  <chemical_class>  (477) 
Flavonoids

>  <chemical_sub_class>  (477) 
Flavonoid glycosides

>  <chemical_super_class>  (477) 
Phenylpropanoids and polyketides

>  <direct_parent_classification>  (477) 
Flavonoid-3-O-glycosides

>  <np_classifier_pathway>  (477) 
Shikimates and Phenylpropanoids

>  <np_classifier_superclass>  (477) 
Flavonoids

>  <np_classifier_class>  (477) 
Flavonols

>  <np_classifier_is_glycoside>  (477) 
True

>  <organisms>  (477) 
Abacopteris penangiana|Abies amabilis|Acacia adunca|Acacia kempeana|Acacia pruinosa|Acanthias vulgaris|Acer glabrum|Acer mandshuricum|Acer negundo|Achillea clypeolata|Achillea pseudopectinata|Acicarpha tribuloides|Acnistus breviflorus|Aconitum violaceum|Actinobole uliginosum|Adenocaulon himalaicum|Adiantum lunulatum|Adiantum sp.|Aegilops geniculata|Aesculus chinensis|Aesculus sp.|Aframomum sulcatum|Agaricus hortensis|Agelas linnaei|Aglaia australiensis|Aglaia cucullata|Agrimonia eupatoria|Agrimonia pilosa|Agrostis epigeios|Ailanthus altissima|Alangium platanifolium|Albizia inundata|Alchemilla speciosa|Alectoria japonica|Alhagi persarum|Alkanna cappadocica|Alkanna orientalis|Alkanna sp.|Allagopappus viscosissimus|Allium Porrum|Allium ampeloprasum|Allium cepa|Allium hirtifolium|Allium myrianthum|Allium neapolitanum|Allium obliquum|Allium porrum|Allium porrum L.|Allium sp.|Allium stipitatum|Allium triquetrum|Allium ursinum|Allium victorialis|Alsophila spinulosa|Alstonia scholaris|Alstonia somersetensis|Alstonia spathulata|Alstonia undulifolia|Alstroemeria pulchra|Alternaria japonica|Althaea armeniaca|Althaea broussonetiifolia|Althaea cannabina|Althaea narbonensis|Althaea officinalis|Amaranthus hypochondriacus|Amathia pinnata|Amborella trichopoda|Amelanchier vulgaris|Ammi majus|Ammi majus L.|Amphilophis odorata|Anacystis montana|Anaphalis|Anaphalis contorta|Anaphalis lactea|Anaphalis margaritacea|Anaxagorea luzonensis|Anchusa azurea|Ancistrocladus abbreviatus|Angelica furcijuga KITAGAWA|Angelica pubescens|Angylocalyx braunii|Anisochilus harmandii|Anisodus luridus|Anisodus tanguticus|Annona cornifolia|Annona crassiflora|Annona dolabripetala|Annulohypoxylon truncatum|Anthelia juratzkana|Anthemis cairica|Anthemis cotula|Anthyllis onobrychoides|Aplysina laevis|Apocynum venetum|Arabidopsis thaliana|Archidendron lucidum|Arctium sp.|Aria edulis|Aristeguietia gayana|Aristolochia cucurbitifolia|Aristolochia heterophylla|Aristolochia kaempferi|Arnica acaulis|Arnica amplexicaulis|Arnica angustifolia|Arnica cernua|Arnica cordifolia|Arnica discoidea|Arnica frigida|Arnica fulgens|Arnica gracilis|Arnica latifolia|Arnica lonchophylla|Arnica longifolia|Arnica louiseana|Arnica mollis|Arnica montana|Arnica montana cv.ARBO|Arnica nevadensis|Arnica rydbergii|Arnica sororia|Arnica spathulata|Arnica venosa|Arnica viscosa|Artemisia alba|Artemisia annua|Artemisia apiacea|Artemisia armeniaca|Artemisia assoana|Artemisia dentata|Artemisia igniaria|Artemisia lactiflora|Artemisia vulgaris|Aruncus dioicus|Asanthus solidaginifolius|Asarum canadense|Ascarina lucida|Ascidia ahodori|Asparagus officinalis|Aspergillus albus|Aspergillus falconensis|Asplenium sp.|Asplenium trichomanes-ramosum|Asplenium viride|Aspropaxillus candidus|Aster ageratoides|Aster oharai|Asteriscus aquaticus|Asteriscus graveolens|Asterospicularia laurae|Astilbe biternata|Astilbe chinensis|Astilbe rubra|Astilbe thunbergii|Astragalus aegobromus|Astragalus angustifolius|Astragalus arguricus|Astragalus asper|Astragalus bornmuellerianus|Astragalus bungeanus|Astragalus captiosus|Astragalus cicer|Astragalus ciceroides|Astragalus circassicus|Astragalus coluteocarpus|Astragalus complanatus|Astragalus dipelta|Astragalus dissectus|Astragalus eupeplus|Astragalus eximius|Astragalus floccosifolius|Astragalus galegiformis|Astragalus goktschaicus|Astragalus lagopoides|Astragalus laguroides|Astragalus lagurus|Astragalus levieri|Astragalus membranaceus|Astragalus mongholicus|Astragalus onobrychis|Astragalus pycnanthus|Astragalus robustus|Astragalus saganlugensis|Astragalus sempervirens|Astragalus sevangensis|Astragalus sieberi|Astragalus sosnowskyi|Astragalus sp.|Astragalus spinosus|Astragalus spp.|Astragalus testiculatus|Astragalus varius|Astragalus wagneri|Atalantia racemosa|Athanasia crithmifolia|Atractylodes macrocephala|Atroxima liberica|Attalea excelsa|Atuna racemosa|Azadirachta indica|Baccharis angustifolia|Baccharis dracunculifolia|Badilloa salicina|Baillonella toxisperma|Balanus glandula|Bambara groundnut|Baphia bancoensis|Baptisia spp.|Barleria buxifolia|Bauhinia Variegata|Bauhinia variegata|Bauhinia variegata L.|Beaumontia grandiflora|Bebryce indica|Belamcanda Chinensis|Belamcanda chinensis|Benzoin praecox|Berberis floribunda|Berberis julianae|Berberis repens|Berberis valdiviana|Berchemia floribunda|Berchemia racemosa|Bergenia crassifolia|Berlandiera pumila|Berlinia tomentosa|Betula humilis|Betula oycoviensis|Betula pendula|Betula platyphylla|Betula pubescens|Biancaea decapetala|Bidens frondosa|Bidens pilosa|Bishovia boliviensis|Bitter bush|Blastochloris viridis|Bleekeria vitiensis|Blumea aromatica|Bocagea sp.nov.|Boehmeria holosericea|Boehmeria japonica tenera|Boehmeria tricuspis|Bonamia spectabilis|Boopis graminea|Botryosphaeria berengeriana|Brachychiton populneum|Brachyglottis cassinioides|Brassica oleracea|Brassica oleracea var. sabauda|Brassicaceae|Brickellia coulteri|Brickellia diffusa|Brickellia vernicosa|Bridelia ferruginea|Bryum pseudotriquetrum|Buddleja cordata|Bufotes viridis|Buphane fischeri|Buphthalmum salicifolium|Bursera graveolens|Bystropogon origanifolius|Caenorhabditis elegans|Caesalpinia crista|Calea pilosa|Calendula officinalis|Callerya cinerea|Calluna vulgaris|Calocedrus decurrens|Calocedrus formosana|Calophyllum sclerophyllum|Calostephane divaricata|Calycanthus chinensis|Calycera herbacea|Calycera leucanthema|Camellia Sinensis|Camellia crassicolumna|Camellia crassicolumna var. multiplex|Camellia reticulata|Camellia sinensis|Campanula barbata|Campanula hypopolia|Camptotheca acuminata|Capparis ovata|Capparis spinosa|Capsicum annuum|Caragana aurantiaca|Cardamine komarovii|Cardamine pinnata|Cardiopetalum calophyllum|Carlina acanthifolia|Carthamus Tinctorius|Carthamus glaucus|Carthamus gypsicola|Carthamus lanatus|Carthamus oxyacanthus|Carthamus tinctorius|Carum carvi|Casearia grayi|Casimiroa tetrameria|Cassine papillosa|Cassinia laevis|Castanea sativa|Castanea sp.|Castanopsis cuspidata|Catalpa ovata|Caulerpa serrulata|Centaurea bornmuelleri|Centaurea calcitrapa|Centaurea cana|Centaurea horrida|Centaurea inermis|Centaurea jacea|Centaurea sinaica|Centaurea virgata|Centella asiatica|Centella erecta|Ceramium rubrum|Ceratosoma brevicaudatum|Cerbera dilatata|Chaenomeles sinensis|Chaetomium cochliodes|Charpentiera obovata|Chavica betle|Cheiloclinium cognatum|Cheiropteris palmatopedata|Chelidonium majus|Chenopodium album|Chimarrhis turbinata|Chisocheton ceramicus|Christisonia bicolor|Chrozophora brocchiana|Chrozophora obliqua|Chrozophora plicata|Chrozophora rottleri|Chrozophora tinctoria|Chrozophora verbascifolia|Chrysanthemum coronarium|Chrysanthemum macrocarpum|Chrysanthemum morifolium|Chrysocoma peduncularis|Chrysosplenium tetrandrum|Chrysotila lamellosa|Chuquiraga atacamensis|Chuquiraga parviflora|Chuquiraga spinosa|Chuquiraga straminea|Cicer arietinum|Cicer flexuosum|Cicer kopetdaghense|Cicer songaricum|Cicer tragacanthoides|Cichorium endivia|Cichorium glandulosum|Cichorium intybus|Cichorium pumilum|Cichorium sp.|Cineraria geifolia|Cinnamomum philippinense|Cinnamomum subavenium|Circaea lutetiana|Cirsium arvense var. integrifolium|Cissus discolor|Cissus sicyoides|Cistus creticus|Cistus ladanifer|Cistus laurifolius|Citrus hassaku|Citrus rugulosa|Clathria prolifera|Clematis tangutica|Clematis terniflora|Cleome pungens|Clerodendron cyrtophyllum|Clibadium glabrescens|Clibadium laxum|Clibadium microcephalum|Clibadium pentaneuron|Clibadium sodiroi|Clibadium spp.|Clibadium sprucei|Clibadium surinamense|Clibadium terebinthinaceum|Clitoria Ternatea|Clitoria ternata|Clitoria ternatea|Clostridium butyricum|Cneorum pulverulentum|Cnidium officinale|Cocos nucifera|Codonocarpus australis|Codonopsis pilosula|Commiphora abyssinica|Conus parius|Conus pulicarius|Convallaria majalis|Conyza filaginoides|Corchorus olitorius|Cordyline neocaledonica|Coreopsis auriculata|Coreopsis basalis|Coreopsis grandiflora|Coreopsis intermedia|Coreopsis lanceolata|Coreopsis nuecensis|Coreopsis nuecensoides|Coreopsis pubescens|Coreopsis wrightii|Cornus kousa|Cornus sp.|Corticium caeruleum|Corticium simplex|Cortinarius claricolor|Corydalis ochotensis|Cotyledon secunda|Coutarea latifolia|Crambe tatarica|Crassocephalum crepidioides|Crateva nurvala|Crepidiastrum sonchifolium|Cressa cretica|Crocus antalyensis|Crocus sativus|Crotalaria goreensis|Crotalaria lachnophora|Crotalaria orixensis|Crotalaria retusa|Croton laccifer|Croton montevidensis|Cryptocarya lividula|Cryptomonas ovata|Cryptosporium pinicola|Cucumis myriocarpus|Cucurbita maxima|Cucurbita moschata|Cucurbita sp.|Cullen corylifolia|Cullen corylifolium|Cupressaceae|Curcuma mangga|Curio citriformis|Curio hallianus|Curio herreanus|Curio ovoideus|Curio radicans|Curio rowleyanus|Curio sulcicalyx|Curio talinoides var. mandraliscae|Cuscuta australis|Cuscuta campestris|Cuscuta chinensis|Cuscuta europea|Cuscuta gronovii|Cuscuta lupuliformis|Cuscuta micrantha|Cuscuta odorata|Cuscuta pedicellata|Cuscuta platyloba|Cuscuta reflexa|Cyamopsis sp.|Cyamopsis tetragonoloba|Cyberlindnera jadinii|Cycas beddomei|Cyclachaena xanthifolia|Cyclamen persicum|Cyclospermum leptophyllum|Cydonia|Cydonia oblonga|Cymbopogon citratus|Cymodocea nodosa|Cynanchum ascyrifolium|Cynoglossum gansuense|Cyperus scariosus|Cystoseira fimbriata|Daemonorops draco|Dalbergia sissoo|Daphniphyllum angustifolium|Datisca glomerata|Daucus carota|Davallia divaricata|Decaisnea fargesii|Delphinium cashmerianum|Delphinium shawurense|Delphinium staphisagria|Delphinium thamarae|Delphinus phocoena|Dendranthema morifolium|Dendrilla cavernosa|Dendrilla membranosa|Dendrobium crepidatum|Dendrobium thyrsiflorum|Dendroctonus ponderosae|Dendronephthya gigantea|Desmodium styracifolium|Detarium microcarpum|Diaporthe helianthi|Dichrocephala integrifolia|Dicranopteris linearis|Dinophysis fortii|Dionaea muscipula|Dionaea sp.|Dioscorea olfersiana|Diospyros Kaki|Diospyros buxifolia|Diospyros cathayensis|Diospyros eriantha|Diospyros kaki|Diospyros verrucosa|Diphasiastrum thyoides|Diplacus longiflorus|Diplazium nipponicum|Diplotaxis acris|Dipsacus asper|Diuranthera major|Doniophyton anomalum|Doronicum austriacum|Doronicum grandiflorum|Doronicum macrophyllum|Dracocephalum ruyschiana|Dracula cordobae|Drechslera avenae|Drosera rotundifolia|Duguetia bahiensis|Duguetia calycina|Duguetia chrysocarpa|Dumortiera hirsuta|Dunalia solanacea|Dysidea amblia|Ecballium elaterium|Echinus microtuberculatus|Echium pininana|Ekebergia capensis|Elaeagnus bockii|Elaeagnus lanceolata|Elaeodendron paniculatum|Ephydatia syriaca|Epirrhoe sperryi|Equisetum arvense|Equisetum bogotense|Equisetum fluviatile|Equisetum palustre|Equisetum pratense|Equisetum sp.|Equisetum sylvaticum|Eremocarpus setiger|Eremostachys moluccelloides|Ericaceae|Erigeron annuus|Erigeron breviscapus|Eriobotrya japonica|Eriocapitella tomentosa|Eriodictyon sp.|Eriostemon spicatus|Eryngium campestre|Eryngium sp.|Erythrina addisoniae|Erythrina senegalensis|Erythrina sigmoidea|Erythrospermum zeylanicum|Erythroxylum barbatum|Erythroxylum myrsinites|Erythroxylum pruinosum|Erythroxylum rufum|Erythroxylum squamatum|Erythroxylum suberosum|Erythroxylum subracemosum|Erythroxylum tenue|Erythroxylum ulei|Erythroxylum vacciniifolium|Espeletia lutescens|Eucalyptus camaldulensis|Eucalyptus melliodora|Eucalyptus occidentalis|Eucalyptus staigeriana|Eucommia ulmoides|Euonymus japonicus|Euonymus nanoides|Eupatorium cannabinum|Eupatorium lindleyanum|Eupatorium petiolare|Euphorbia altotibetica|Euphorbia chamaesyce|Euphorbia franchetii|Euphorbia heteradena|Euphorbia humifusa|Euphorbia hyssopifolia|Euphorbia larica|Euphorbia maculata|Euphorbia magalanta|Euphorbia myrsinites|Euphorbia pannonica|Euphorbia petiolata|Euphorbia prostrata|Euphorbia sieboldiana|Euphorbia sp.|Euphorbia virgata|Euphoria longan|Euplotes raikovi|Euscaphis japonica|Euterpe precatoria|Eutrema scapiflorum|Evolvulus Alsinoides|Evolvulus alsinoides|Excoecaria acerifolia|Excoecaria cochinchinensis|Exostema mexicanum|Fabiana densa|Fagara chiloperone|Fagonia indica|Fagonia paulayana|Fagonia schweinfurthii|Fagraea gracilipes|Fagus fusca|Fallopia cilinode|Fallopia convolvulus|Fallopia dumetorum|Fallopia scandens|Ficus alba|Ficus carica|Ficus pumila|Ficus vallis-choudae|Ficus virens|Filicium decipiens|Foeniculum vulgare|Fomes robiniae|Fragaria|Fragaria x ananassa|Fraxinus insularis|Fraxinus oxycarba|Fraxinus raibocarpa|Fritillaria ningguoensis|Fuchsia abrupta|Fuchsia ampliata|Fuchsia andrei|Fuchsia apetala|Fuchsia arborescens|Fuchsia austromontana|Fuchsia ayavacensis|Fuchsia boliviana|Fuchsia campos-portoi|Fuchsia cestroides|Fuchsia chloroloba|Fuchsia coccinea|Fuchsia colensoi|Fuchsia corollata|Fuchsia corymbiflora|Fuchsia cyrtandroides|Fuchsia decidua|Fuchsia decussata|Fuchsia denticulata|Fuchsia dependens|Fuchsia eucliandra|Fuchsia excorticata|Fuchsia ferreyrae|Fuchsia fontinalis|Fuchsia fulgens|Fuchsia furfuracea|Fuchsia garleppiana|Fuchsia gehrigeri|Fuchsia harlingii|Fuchsia hartwegii|Fuchsia hirtella|Fuchsia inflata|Fuchsia jimenezii|Fuchsia juntasensis|Fuchsia lehmannii|Fuchsia loxensis|Fuchsia lycioides|Fuchsia macrophylla|Fuchsia macrostigma|Fuchsia magellanica|Fuchsia mathewsii|Fuchsia membranacea|Fuchsia microphylla|Fuchsia nigricans|Fuchsia obconica|Fuchsia ovalis|Fuchsia pallescens|Fuchsia paniculata|Fuchsia parviflora|Fuchsia perscandens|Fuchsia petiolaris|Fuchsia pilaloensis|Fuchsia polyantha|Fuchsia pringsheimii|Fuchsia procumbens|Fuchsia putumayensis|Fuchsia regia|Fuchsia rivularis|Fuchsia sanctae-rosae|Fuchsia scabriuscula|Fuchsia sessilifolia|Fuchsia simplicicaulis|Fuchsia splendens|Fuchsia steyermarkii|Fuchsia sylvatica|Fuchsia thymifolia|Fuchsia tillettiana|Fuchsia tincta|Fuchsia triphylla|Fuchsia tunariensis|Fuchsia vargasiana|Fuchsia venusta|Fuchsia vulcanica|Fuchsia wurdackii|Fumaria micrantha|Fusarium avenaceum|Fusarium sacchari|Fusarium sambucinum|Galega officinalis|Galium sinaicum|Gamocarpha alpina|Garcinia linii|Garcinia pyrifera|Garcinia xipshuanbannaensis|Gardenia jasminoides|Gardenia sootepensis|Garrya elliptica|Garrya laurifolia|Geranium robertianum|Geranium sp.|Gerbera Jamesonii|Gerbera ambigua|Gerbera jamesonii|Geum japonicum|Geum macrophyllum|Ginkgo biloba|Ginkgo sp.|Gladiolus italicus|Glebionis coronaria|Glebionis coronarium|Glinus lotoides|Glycyrrhiza echinata|Glycyrrhiza glabra|Glycyrrhiza inflata|Glycyrrhiza macedonica|Glycyrrhiza pallidiflora|Glycyrrhiza sp.|Glycyrrhiza uralensis|Gnetum latifolium|Gnidia involucrata|Goniothalamus giganteus|Goniothalamus malayanus|Gossypium Barbadense|Gossypium barbadense|Gossypium hirsutum|Gossypium sp.|Gouania obtusifolia|Goupia glabra|Grass-of-Parnassus|Greenwayodendron oliveri|Gremmeniella abietina|Grona adscendens|Grona styracifolia|Guarea trichilioides|Guatteria rupestris|Guatteria villosissima|Gutierrezia lucida|Gutierrezia wrightii|Gymnocarpium dryopteris|Gymnocolea inflata|Gymnothorax javanicus|Gynura divaricata|Gynura procumbens|Habropetalum dawei|Haematomma porphyrium|Haliclona nigra|Halocarpus biformis|Halocharis hispida|Hamamelis sp.|Haplopappus foliosus|Haplophyllum glabrinum|Hebe parviflora|Hedera helix|Hedyosmum bonplandianum|Hedysarum connatum|Helenium hoopesii|Helenium tenuifolium|Helianthemum sessiliflorum|Helichrysum arenarium|Helichrysum armenium|Helichrysum auriceps|Helichrysum davenportii|Helichrysum graveolen|Helichrysum graveolens|Helichrysum italicum|Helichrysum stoechas|Helicteres Angustifolia|Helicteres angustifolia|Heliotropium amplexicaule|Helipterum gnaphaloides|Helipterum roseum|Hemerocallis|Herniaria mauritanica|Heterotheca|Heuchera cylindrica|Hibiscus cannabinus|Hippeastrum papilio|Hippocrepis emerus|Hirschfeldia incana|Hoffmannia strigillosa|Holboellia fargesi|Hubertia tomentosa|Humulus lupulus|Humulus sp.|Hunteria zeylanica|Hydnocarpus setumpul|Hydrangea serrata|Hygrophorus chrysodon|Hylocereus ocamponis|Hymenaea courbaril|Hymenothrix wislizenii|Hymenoxys hoopesii|Hypericum Sampsonii|Hypericum aucheri|Hypericum erectum|Hypericum erectum Thunb.|Hypericum laricifolium|Hypericum sampsonii|Hypericum sikokumontanum|Hypericum triquetrifolium|Hypotrachyna rachista|Hypoxis multiceps|Iberis amara|Ichnocarpus frutescens|Idea leuconoe|Illicium sp.|Impatiens balsamina|Inula britannica|Inula japonica|Iochroma australe|Iodes cirrhosa|Iotrochota purpurea|Ipomoea digitata|Ipomopsis polycladon|Ips confusus|Ips pini|Ircinia dendroides|Ircinia ramosa|Iris domestica|Iris florentina|Iris pseudopumila|Iryanthera paraensis|Isatis tinctoria|Isodon oresbius|Ixeris chinensis|Iyengaria stellata|Jacaranda chelonia|Jacobaea subalpina|Jamesoniella colorata|Jatropha variegata|Jeweled distaff thistle|Juniperus macropoda|Juniperus rigida var. conferta|Kalanchoe pinnata|Klebsiella pneumoniae|Knautia montana|Koanophyllon simillimum|Kopsia profunda|Kummerowia striata|Laburnum watereri|Laccaria vinaceoavellanea|Lactobacillus casei|Lactuca tatarica|Laennecia filaginoides|Lafoensia densiflora|Lafoensia glyptocarpa|Laggera alata|Lamium album|Lamium sp.|Larix decidua|Larix sibirica|Larix sp.|Laserpitium latifolium|Lasiosiphon kraussianus|Lastrea thelypteris|Lathyrus davidii|Lathyrus japonicus|Lathyrus nissolia|Laurencia spectabilis|Laurus sp.|Lawsonia inermis|Leathesia nana|Lecidella chodati|Lemaireocereus griseus|Lens culinaris|Lentinus tigrinus|Leonurus cardiaca|Leonurus persicus|Lepidium cartilagineum|Lepidium syvaschicum|Lepidosperma ustulatum|Lepisorus ussuriensis|Leptarrhena pyrolifolia|Lespedeza davidii|Lespedeza virgata|Leuconotis eugenifolius|Leucopaxillus tricolor|Libocedrus bidwillii|Libocedrus chevalieri|Libocedrus yateensis|Licaria brasiliensis|Ligusticum sinense|Ligustrum obtusifolium|Ligustrum vulgare|Limnocharis flava|Linum crispum|Liquidambar Formosana|Liquidambar formosana|Liquidambar sp.|Liriodendron chinense|Liriodendron sp.|Liriodendron tulipifera|Litchi chinensis|Lithothamnion corallioides|Litsea guatemalensis|Litsea zeylanica|Lonicera japonica|Lotus corniculatus|Lotus japonicus|Lotus tenuis|Lotus ucrainicus|Luetkea pectinata|Lunularia cruciata|Lupinus albus|Lupinus albus L.|Lycopodium flabelliforme|Lygodium flexuosum|Lygodium japonicum|Lysimachia barystachys|Lysimachia christinae|Lysimachia clethroides|Lysimachia mauritiana|Lysimachia vulgaris|Macadamia ternifolia|Magnolia salicifolia|Magnolia sieboldii|Mahonia simonsii|Malus sieversii|Mandevilla martiana|Mangifera indica|Manoao colensoi|Marah fabacea|Marah fabaceus|Marah oregana|Marah oreganus|Marcetella moquiniana|Marrubium anisodon|Marrubium cylleneum|Matteuccia struthiopteris|Matthiola bicornis|Mayaca fluviatilis|Maytenus hookeri|Meadow vetchling|Meconopsis quintuplinervia|Medicago strasseri|Medinilla magnifica|Meiogyne virgata|Melanophryniscus moreirae|Melia indica|Melianthus comosus|Melilotus sulcatus|Melochia corchorifolia|Menegazzia asahinae|Menyanthes sp.|Mesua ferrea|Metatrichia vesparium|Metridium senile|Microbispora rosea subsp. aerata|Mikania mendocina|Mikania parodii|Miliusa sinensis|Millettia erythrocalyx|Millettia ferruginea|Millettia sericea|Millettia zechiana|Mitracarpus scaber|Mitragyna speciosa|Mitrephora diversifolia|Monopteryx uaucu|Montanoa guatemalensis|Morinda morindoides|Moringa oleifera|Mortierella elongata|Morus Alba|Morus alba|Morus alba L.|Morus bombycis|Morus insignis|Mosla chinensis|Mukdenia rossii|Mussaenda parviflora|Mycobacterium leprae|Mycobacterium tuberculosis|Myelobia smerintha|Myristica cagayanensis|Myrothamnus flabellifolia|Myrothamnus flabellifolius|Myrsine africana|Myrsine seguinii|Nardostachys jatamansi|Narthecium asiaticum|Nassauvia cumingii|Nasturtium officinale|Nasutitermes ephratae|Naucleopsis ternstroemiiflora|Navanax inermis|Negombata magnifica|Nelumbo nucifera|Neoshirakia japonica|Nepeta citriodora|Nepeta multifida|Neurolaena oaxacana|Nidorella aegyptiaca|Nigella sativa|Nyctanthes Arbor|Nyctanthes arbor-tristis|Nyctanthes arbortristis|Nymphaea caerulea|Ochna beddomei|Ochna gamblei|Ochna obtusata|Ochradenus baccatus|Ocotea minarum|Ocotea velloziana|Octopus vulgaris|Oenothera biennis|Oenothera brachycarpa|Oenothera canescens|Oenothera deserticola|Oenothera dissecta|Oenothera fruticosa|Oenothera glazioviana|Oenothera havardii|Oenothera kunthiana|Oenothera perennis|Oenothera purpusii|Oenothera rosea|Oenothera sp.|Oenothera speciosa|Oenothera tetraptera|Oligomeris linifolia|Onobrychis amoena|Onobrychis bobrovi|Onobrychis bobrovii|Onobrychis chlorassanica|Onobrychis chorassanica|Onobrychis cornuta|Onobrychis cyri|Onobrychis echidna|Onobrychis ferganica|Onobrychis grandis|Onobrychis kachetica|Onobrychis michauxii|Onobrychis seravschanica|Ononis leiosperma|Ononis pubescens|Ononis vaginalis|Oophaga histrionica|Ophidiaster ophidianus|Ophryosporus floribundus|Ophrys scolopax|Opuntia ficus-indica|Orchis militaris|Orchis sp.|Oreocereus bruennowii|Ormosia balansae|Orostachys japonica|Oryza sativa|Osbeckia chinensis|Osmanthus heterophyllus|Ostericum citriodorum|Ostericum maximowiczii|Ostericum sieboldii|Ostryopsis davidiana|Osyris abyssinica|Oxalis purpurea|Oxytropis|Oxytropis myriophylla|Pachychalina alcaloidifera|Paeonia lactiflora|Paeonia rockii|Paeonia sp.|Palafoxia texana|Panax papyrifer|Panorpa japonica|Papaver persicum|Papaver rhoeas|Papaver tatricum|Papuacedrus papuana|Paralemnalia clavata|Parietaria officinalis|Parinari brasiliensis|Parinari capensis|Parinari cardiophylla|Parinari chocoensis|Parinari congensis|Parinari congolana|Parinari curatellifolia|Parinari excelsa|Parinari insularum|Parinari littoralis|Parinari maguirei|Parinari montana|Parinari nonda|Parinari oblongifolia|Parinari occidentalis|Parinari pachyphylla|Parinari parilis|Parinari parvifolia|Parinari sprucei|Parmelia subrudecta|Parnassia asarifolia|Parnassia caroliniana|Parnassia fimbriata|Parnassia glauca|Parnassia grandifolia|Parnassia kotzebuei|Passiflora edulis|Passiflora foetida|Pastinaca sativa|Patrinia scabiosifolia|Patrinia villosa|Payena lucida|Pelargonium reniforme|Peltogyne porphyrocardia|Peltogyne pubescens|Peltophorum dasyrhachis|Peltostigma guatemalense|Penicillium meleagrinum|Penicillium olsonii|Penstemon gentianoides|Peperomia proctorii|Perezia|Periploca calophylla|Perovskia abrotanoides|Persicaria amphibia|Persicaria decipiens|Persicaria glabra|Persicaria muricata|Persicaria pubescens|Persicaria senticosa|Persicaria tinctoria|Pestalotiopsis heterocornis|Petrorhagia dubia|Petroselinum crispum|Petteria ramentacea|Phalaenopsis schilleriana|Phalaris canariensis|Phaseolus vulgaris|Phebalium ambiens|Phebalium dentatum|Phegopteris connectilis|Phellodendron Amurense|Phellodendron amurense|Phellodendron amurense var. wilsonii|Phellodendron chinense var. glabriusculum|Philadelphus lewisii|Phlebodium decumanum|Phlebodium dictyocallis|Phlomis caucasica|Phlomis purpurea|Phlomis spectabilis|Phlomis spinidens|Phlomoides spectabilis|Phoebe pittieri|Phyfnnvik eyyfn|Phyllanthus emblica|Phyllanthus niruri|Phyllanthus oligospermus|Phyllanthus sp.|Phyllanthus tenellus|Phyllanthus virgatus|Physalis lagascae|Physalis minima|Phytolacca sp.|Picea abies|Picea obovata|Picris conyzoides|Picrorhiza kurrooa|Pieris brassicae|Pilocarpus spicatus|Pilularia globulifera|Pinus banksiana|Pinus brutia var. eldarica|Pinus contorta|Piper sanctum|Pistacia atlantica|Pistacia chinensis|Pistacia lentiscus|Plagiogyria matsumureana|Platanus sp.|Platytaenia lasiocarpa|Plectranthus purpuratus|Pleogyne cunninghami|Pleogyne cunninghamii|Pleurotus japonicus|Pluchea suaveolens|Plumbagella micrantha|Podocarpus fasciculus|Podocarpus nivalis|Podophyllum hexandrum|Podophyllum peltatum|Podospora curvicolla|Poiretia latifolia|Polygala amara|Polygonatum glaberrimum|Polygonatum orientale|Polygonatum stenophyllum|Polygonum aviculare|Polygonum cognatum|Polygonum flaccidum|Polygonum salicifolium|Polygonum senticosum|Polymnia uvedalia|Polypodium virginianum|Polypodium vulgare|Polyporus dryadeus|Popowia pisocarpa|Populus angustifolia|Populus ussuriensis|Potamilla occelata|Potentilla|Potentilla anserina|Potentilla tanacetifolia|Premna flavescens|Premna odorata|Premna tomentosa|Primula sp.|Prorocentrum micans|Prumnopitys ferruginoides|Prunella vulgaris|Prunus avium|Prunus dulcis|Prunus lusitanica|Prunus padus|Prunus persica|Prunus serrulata|Psephellus bornmuelleri|Psephellus schischkinii|Pseudaegle trifoliata|Pseudallescheria boydii|Pseudeurotium zonatum|Pseudoalteromonas luteoviolacea|Pseudoceratina arabica|Pseudocinchona pachyceras|Pseudocyclosorus esquirolii|Pseudofumaria lutea|Pseudowintera colorata|Ptarmica ptarmicifolia|Pteridium Aquilinum|Pteridium aquilinum|Pteridium esculentum|Pteridium revolutum|Pteris linearis|Pteris pacifica|Pteris semipinnata|Pterodon emarginatus|Pulsatilla campanella|Pulsatilla cernua|Pycnanthemum incanum|Pycnocycla tomentosa|Pyrola chlorantha|Pyrola decorata|Pyrola spp.|Pyrrosia lingua|Quercus dentata|Quercus imbricaria|Quercus laurifolia|Quercus pontica|Quercus serrata|Rabdosia angustifolia|Randonia africana|Ranunculus acris|Ranunculus peltatus|Raoulia australis|Raoulia glabra|Raoulia hookeri|Raoulia monroi|Raoulia petriensis|Raoulia subsericea|Raoulia tenuicaulis|Rapanea lancifolia|Ratibida mexicana|Rauvolfia vomitoria|Rhamnus sp.|Rhinella arenarum|Rhodiola rosea|Rhus lanceolata|Ribes nigrum|Ribes rubrum|Ribes sp.|Ribes viscosissimum|Ricinus communis|Rivina humilis|Roboastra tigris|Rollinia dolabripetala|Rorippa indica|Rosa|Rosa agrestis|Rosa chinensis|Rosa gallica|Rosa rugosa|Rosa sp.|Rosa × damascena|Rosaceae|Rosulabryum capillare|Rubus adenotrichos|Rubus adenotrichus|Rubus idaeus|Rubus rigidus|Rubus rosa|Rubus ulmifolius|Rudbeckia fulgida|Rumex bucephalophorus|Rumex maritimus|Rumex patientia|Sabina sargentii|Saccharopolyspora spinosa|Saintpaulia ionantha|Saintpaulia ionatha|Salix alba|Salix caprea|Salmonella enterica subsp. enterica serovar muenster|Salvadora persica|Salvia cavaleriei|Salvia hispanica|Salvia miltiorrhiza|Salvia syriaca|Samadera indica|Sambucus nigra|Sambucus sp.|Sanguisorba officinalis|Sanguisorba sp.|Sapium haematospermum|Sapium sebiferum|Sarcodes sanguinea|Sarracenia alata|Sarracenia flava|Sarracenia jonesii|Sarracenia leucophylla|Sarracenia minor|Sarracenia oreophila|Sarracenia psittacina|Sarracenia purpurea|Sarracenia rubra|Sasa paniculata|Saussurea mongolica|Saussurea nivea|Saxifraga cernua|Saxifraga tricuspidata|Scaphium affine|Schizonepeta multifida|Schouwia purpurea|Schouwia thebaica|Schouwia thebica|Scilla dracomontana|Scopolia lurida|Scorzonera pseudodivaricata|Scrophularia koelzii|Scutellaria amoena|Scutellaria sieberi|Sedum forsteri|Sedum litoreum|Sempervivum ruthenicum|Sempervivum tectorum|Senecio cathcartensis|Senecio herreianus|Senecio rupestris|Senecio sp.|Senecio variabilis|Senecio viravira|Senecio viscosus|Senna alexandrina|Septoria pistaciarum|Sequoia sempervirens|Serenoa repens|Serenoa sp.|Sigmatanthus trifoliatus|Silphium perfoliatum|Silphium perfoliatum L.|Sinapis arvensis|Sinocrassula indica|Sinopodophyllum hexandrum|Sinularia depressa|Smilax bracteata|Smilax glyciphylla|Smyrnium perfoliatum|Solanum andigena|Solanum crinitum|Solanum dulcamara|Solanum elaeagnifolium|Solanum incanum|Solanum laxum|Solanum pubescens|Solenostemma argel|Solenostemma oleifolium|Solidago altissima|Solidago sp.|Sophora Japonica|Sophora japonica|Sophora tometosa|Sorbus aria|Spermacoce laevis|Spermacoce laevis Roxb.|Sphagneticola calendulacea|Sphagnum fallax|Spinacia oleracea|Spiracantha cornifolia|Spiraea formosana|Stachys palustris|Stachyurus himalaicus|Staphisagria macrosperma|Staphylea japonica|Stenochlaena Palustris|Stenochlaena palustris|Stephania sutchuenensis|Stephanodoria tomentella|Sterculia platanifolia|Stereocaulon leprocauloides|Stevia connata|Stichopus chloronotus|Streptomyces avermectinius|Streptomyces fumanus|Streptomyces griseochromogenes|Streptomyces lavendofoliae|Streptomyces lomondensis|Streptomyces odorifer|Streptomyces platensis|Streptomyces resistomycificus|Streptomyces setonensis|Streptomyces yokosukanensis|Strychnos macrophylla|Strychnos spinosa|Strychnos vacacoua|Styphnolobium japonicum|Sutherlandia frutescens|Swertia decussata|Swertia franchetiana|Swertia japonica|Symphyotrichum bracteolatum|Symphyotrichum eatonii|Syncarpia hillii|Syringa vulgaris|Syzygium nervosum|Syzygium samarangense|Syzygium sp.|Tabebuia aurea|Tabebuia ochracea|Tacca plantaginea|Tadehagi triquetrum|Tagetes erecta|Tagetes rupestris|Tagetes tenuifolia|Tamarix aphylla|Tanacetum parthenifolium|Teclea nobilis|Tecoma grandiflora|Tenebrio obscurus|Tephrosia calophylla|Tephrosia fulvinervis|Tephrosia pumila|Tephrosia toxicaria|Tephrosia vogelii|Tetragonia tetragonioides|Tetraneuris acaulis|Tetrapanax Papyriferus|Tetrapanax papyrifer|Tetrapanax papyriferus|Teucrium asiaticum|Teucrium lanigerum|Thaminophyllum multiflorum|Thelypteris nipponica|Thelypteris palustris|Thermopsis dolichocarpa|Thorecta marginalis|Thunnus orientalis|Thymus quinquecostatus|Thymus vulgaris|Tilia cordata|Tilia mandshurica|Tilia miqueliana|Tilia sp.|Tilia tomentosa|Tipuana tipu|Toricellia angulata|Toxicodendron vernicifluum|Trachelospermum jasminoides|Triadica sebifera|Tribulus alatus Del.|Tribulus pentandrus|Trifolium ambiguum|Trifolium strepens|Trigonella foenum-graecum|Trigonella sp.|Trillium camschatcense|Trillium kamtschaticum|Tripolium pannonicum|Tripolium vulgare|Tripterygium regelii|Trogoderma granarium|Tropaeolum majus|Tsuga diversifolia|Tulipa gesneriana|Turbo argyrostoma|Tussilago farfara|Tylophora tanakae|Tylosema esculentum|Tynanthus panurensis|Ulmus pumila|Ulva conglobata|Umbellularia californica|Ungernia sewerzowi|Unonopsis glaucopetala|Urena lobata|Urtica dioica|Urtica sp.|Vaccinium corymbosum|Vaccinium macrocarpon|Vaccinium oxycoccos|Vaccinium vitis-idaea|Vahlia capensis|Venturia inaequalis|Vernonanthura pinguis|Vernonia arborea|Veronica persica|Veronica traversii|Viburnum sp.|Viburnum urceolatum|Vicia amurensis|Vicia benghalensis|Vicia faba|Vigna aconitifolia|Vigna angularis|Vigna mungo|Vigna radiata|Vigna trilobata|Vigna umbellata|Vigna unguiculata|Viguiera incana|Vismia orientalis|Vitex quinata|Vitis aestivalis|Vitis cinerea|Vitis riparia|Vitis silvestris|Vitis vinifera|Vitis vulpina|Viviparus japonicus|Walsura piscidia|Walsura tubulata|Warburgia ugandensis|Wedelia scaberrima|Wikstroemia canescens|Wikstroemia indica|Wikstroemia retusa|Wisteria floribunda|Wyethia mollis|Xanthosoma violaceum|Xenia blumi|Xenoacremonium recifei|Xylocarpus granatum|Xylopia aromatica|Zanthoxylum fraxineum|Zanthoxylum tetraspermum|Zieria smithii|Zinnia Elegans|Zinnia elegans|[enterobacter] aerogenes|bellis perennis|broad bean|broccoli|dracocephalum ruyschiana|liquorice|maize|moringa|parsley|pomegranate|potato|soybean|tomato|tripolium vulgare

>  <collections>  (477) 
ANPDB|AnalytiCon Discovery NPs|Australian natural products|CMAUP (cCollective molecular activities of useful plants)|ChEBI NPs|ChemSpider NPs|ConMedNP|ETM (Ethiopian Traditional Medicine) DB|Exposome-explorer|FooDB|GNPS (Global Natural Products Social Molecular Networking)|InflamNat|KNApSaCK|Latin America dataset|NANPDB (Natural Products from Northern African Sources)|NPACT|NPASS|NuBBEDB|Phenol-explorer|Phyto4Health|PhytoLab phyproof® Reference Substances|SANCDB|Super Natural II|TCMDB-Taiwan (Traditional Chinese Medicine database)|TIPdb (database of Taiwan indigenous plants)|VietHerb|WikiData Natural Products

>  <dois>  (477) 
10.1002/(SICI)1097-0010(199808)77:4<468::AID-JSFA66>3.0.CO;2-B|10.1002/(SICI)1099-1565(199601)7:1<42::AID-PCA282>3.0.CO;2-K|10.1002/(SICI)1099-1565(199805/06)9:3<145::AID-PCA393>3.0.CO;2-K|10.1002/(SICI)1099-1573(199605)10:3<202::AID-PTR805>3.0.CO;2-0|10.1002/(SICI)1099-1573(199702)11:1<22::AID-PTR951>3.0.CO;2-3|10.1002/(SICI)1099-1573(199909)13:6<521::AID-PTR535>3.0.CO;2-A|10.1002/ARDP.19893220211|10.1002/ARDP.19933260906|10.1002/CBDV.201000284|10.1002/CBDV.201100233|10.1002/CHIN.198837311|10.1002/CHIN.200332170|10.1002/CHIN.200338184|10.1002/CHIN.200345199|10.1002/CHIN.200410182|10.1002/CHIN.200451186|10.1002/CHIN.200505221|10.1002/CHIN.200539166|10.1002/CHIN.200948211|10.1002/ELPS.200500714|10.1002/HLCA.200790079|10.1002/HLCA.200890142|10.1002/HLCA.200900230|10.1002/J.1537-2197.1986.TB10902.X|10.1002/J.1537-2197.1987.TB12148.X|10.1002/J.1537-2197.1988.TB13465.X|10.1002/JCCS.199300015|10.1002/JCCS.199500136|10.1002/JCCS.200000029|10.1002/JCCS.201190020|10.1002/JMS.3423|10.1002/JOBM.3620320406|10.1002/JSFA.2740330512|10.1002/MNFR.200400064|10.1002/PCA.2800040607|10.1002/PCA.642|10.1002/PRAC.19953370109|10.1002/PTR.2650030108|10.1002/PTR.865|10.1002/RCM.3166|10.1006/BBRC.1996.1759|10.1007/0-387-28822-8_5|10.1007/978-1-4020-4585-1_2389|10.1007/BF00563465|10.1007/BF00563636|10.1007/BF00563637|10.1007/BF00564021|10.1007/BF00564318|10.1007/BF00564334|10.1007/BF00564466|10.1007/BF00565059|10.1007/BF00565315|10.1007/BF00565316|10.1007/BF00565728|10.1007/BF00567046|10.1007/BF00567881|10.1007/BF00567953|10.1007/BF00568699|10.1007/BF00568705|10.1007/BF00570204|10.1007/BF00570205|10.1007/BF00570868|10.1007/BF00574227|10.1007/BF00574348|10.1007/BF00574349|10.1007/BF00575035|10.1007/BF00575724|10.1007/BF00575775|10.1007/BF00577212|10.1007/BF00579083|10.1007/BF00579157|10.1007/BF00579442|10.1007/BF00579444|10.1007/BF00580089|10.1007/BF00580090|10.1007/BF00580091|10.1007/BF00596666|10.1007/BF00597667|10.1007/BF00597867|10.1007/BF00598279|10.1007/BF00598325|10.1007/BF00598370|10.1007/BF00598372|10.1007/BF00598599|10.1007/BF00600853|10.1007/BF00600854|10.1007/BF00600855|10.1007/BF00602480|10.1007/BF00629810|10.1007/BF00629811|10.1007/BF00629813|10.1007/BF00630375|10.1007/BF00630451|10.1007/BF00638772|10.1007/BF00713333|10.1007/BF00985673|10.1007/BF01959464|10.1007/BF02144742|10.1007/BF02234915|10.1007/BF02259383|10.1007/BF02291547|10.1007/BF02319718|10.1007/BF02329612|10.1007/BF02892023|10.1007/BF02974114|10.1007/BF02976442|10.1007/BF02976956|10.1007/BF02980079|10.1007/S00217-003-0845-6|10.1007/S00425-017-2718-4|10.1007/S10600-005-0117-8|10.1007/S10600-006-0051-4|10.1007/S10600-006-0251-Y|10.1007/S10600-006-0265-5|10.1007/S10600-006-0267-3|10.1007/S10600-007-0056-7|10.1007/S10600-007-0061-X|10.1007/S10600-007-0166-2|10.1007/S10600-007-0222-Y|10.1007/S10600-008-9067-2|10.1007/S10600-008-9112-1|10.1007/S10600-009-9362-6|10.1007/S10600-009-9411-1|10.1007/S10600-010-9479-7|10.1007/S10600-010-9597-2|10.1007/S10600-010-9645-Y|10.1007/S10600-010-9659-5|10.1007/S10600-010-9697-Z|10.1007/S10600-010-9746-7|10.1007/S10600-010-9747-6|10.1007/S10600-011-0072-5|10.1007/S10600-011-9800-0|10.1007/S10600-011-9847-Y|10.1007/S10600-011-9907-3|10.1007/S10600-014-0983-Z|10.1007/S11306-011-0335-Y|10.1007/S11418-006-0027-5|10.1007/S11418-007-0147-6|10.1007/S11418-007-0151-X|10.1007/S11418-008-0225-4|10.1007/S11418-008-0256-X|10.1007/S11418-009-0382-0|10.1007/S12272-011-0404-9|10.1007/S13369-010-0015-7|10.1007/s10600-007-0222-y|10.1007/s11130-012-0286-0|10.1016/0021-9673(92)80282-Y|10.1016/0021-9673(92)85026-P|10.1016/0021-9673(93)83449-3|10.1016/0021-9673(95)00755-5|10.1016/0021-9673(95)00765-2|10.1016/0031-9422(73)80417-0|10.1016/0031-9422(75)80399-2|10.1016/0031-9422(75)85190-9|10.1016/0031-9422(81)84073-3|10.1016/0031-9422(82)80150-7|10.1016/0031-9422(82)83030-6|10.1016/0031-9422(83)80021-1|10.1016/0031-9422(83)83074-X|10.1016/0031-9422(88)80645-9|10.1016/0031-9422(88)80719-2|10.1016/0031-9422(88)83027-9|10.1016/0031-9422(88)83050-4|10.1016/0031-9422(88)84102-5|10.1016/0031-9422(88)84132-3|10.1016/0031-9422(89)80306-1|10.1016/0031-9422(89)85049-6|10.1016/0031-9422(90)85069-R|10.1016/0031-9422(90)85105-O|10.1016/0031-9422(90)85309-4|10.1016/0031-9422(91)80109-E|10.1016/0031-9422(91)84233-I|10.1016/0031-9422(91)85310-V|10.1016/0031-9422(92)80128-2|10.1016/0031-9422(92)80355-I|10.1016/0031-9422(92)83452-5|10.1016/0031-9422(93)85251-L|10.1016/0031-9422(93)85251-l|10.1016/0031-9422(93)85262-P|10.1016/0031-9422(93)85414-M|10.1016/0031-9422(94)00591-G|10.1016/0031-9422(94)00658-G|10.1016/0031-9422(94)00727-B|10.1016/0031-9422(94)00961-R|10.1016/0031-9422(95)00153-X|10.1016/0031-9422(95)00383-I|10.1016/0031-9422(95)00574-9|10.1016/0031-9422(95)00593-V|10.1016/0031-9422(95)00878-0|10.1016/0040-4039(75)80027-X|10.1016/0305-1978(77)90039-4|10.1016/0305-1978(82)90046-1|10.1016/0305-1978(84)90032-2|10.1016/0305-1978(84)90068-1|10.1016/0305-1978(85)90003-1|10.1016/0305-1978(85)90068-7|10.1016/0305-1978(85)90089-4|10.1016/0305-1978(86)90025-6|10.1016/0305-1978(86)90060-8|10.1016/0305-1978(86)90088-8|10.1016/0305-1978(86)90089-X|10.1016/0305-1978(86)90090-6|10.1016/0305-1978(87)90085-8|10.1016/0305-1978(88)90012-9|10.1016/0305-1978(88)90048-8|10.1016/0305-1978(88)90085-3|10.1016/0305-1978(88)90086-5|10.1016/0305-1978(88)90094-4|10.1016/0305-1978(88)90110-X|10.1016/0305-1978(89)90056-2|10.1016/0305-1978(90)90051-G|10.1016/0305-1978(91)90007-M|10.1016/0305-1978(91)90116-H|10.1016/0305-1978(92)90025-9|10.1016/0305-1978(92)90028-C|10.1016/0305-1978(92)90087-T|10.1016/0305-1978(93)90077-5|10.1016/0305-1978(93)90083-4|10.1016/0305-1978(93)90084-5|10.1016/0305-1978(94)00083-S|10.1016/0305-1978(94)00092-U|10.1016/0305-1978(94)90012-4|10.1016/0305-1978(94)90034-5|10.1016/0305-1978(94)90061-2|10.1016/0305-1978(94)E0076-R|10.1016/0305-1978(95)00014-L|10.1016/0305-1978(95)00048-Y|10.1016/0305-1978(95)00057-7|10.1016/0305-1978(95)93846-U|10.1016/0305-1978(96)88877-6|10.1016/0308-8146(95)00068-2|10.1016/0734-9750(93)90042-L|10.1016/0960-894X(94)80015-4|10.1016/B978-0-12-397934-6.00012-7|10.1016/J.ACA.2012.02.051|10.1016/J.BMC.2007.01.035|10.1016/J.BMC.2009.08.036|10.1016/J.BMC.2011.03.055|10.1016/J.BMC.2011.07.006|10.1016/J.BMCL.2006.06.011|10.1016/J.BMCL.2007.09.003|10.1016/J.BMCL.2011.01.066|10.1016/J.BMCL.2011.04.043|10.1016/J.BMCL.2011.12.036|10.1016/J.BMCL.2012.10.043|10.1016/J.BMCL.2013.04.013|10.1016/J.BMCL.2015.04.045|10.1016/J.BMCL.2015.04.091|10.1016/J.BSE.2006.03.001|10.1016/J.BSE.2009.07.001|10.1016/J.BSE.2010.09.019|10.1016/J.BSE.2013.03.020|10.1016/J.BSE.2014.05.015|10.1016/J.CHROMA.2004.05.045|10.1016/J.CHROMA.2015.10.008|10.1016/J.FITOTE.2004.05.008|10.1016/J.FITOTE.2008.10.005|10.1016/J.FITOTE.2009.09.003|10.1016/J.FITOTE.2010.03.018|10.1016/J.FITOTE.2016.08.013|10.1016/J.FLORA.2007.09.009|10.1016/J.FOODCHEM.2005.02.007|10.1016/J.FOODCHEM.2005.07.028|10.1016/J.FOODCHEM.2007.08.038|10.1016/J.FOODCHEM.2008.01.071|10.1016/J.FOODCHEM.2011.09.063|10.1016/J.FOODCHEM.2012.02.124|10.1016/J.FOODCHEM.2014.10.145|10.1016/J.FOODCHEM.2019.125629|10.1016/J.FOODCHEM.2020.128444|10.1016/J.FOODRES.2014.04.036|10.1016/J.FOODRES.2017.01.014|10.1016/J.JEP.2004.03.047|10.1016/J.JFF.2014.08.013|10.1016/J.JPBA.2016.01.021|10.1016/J.JPBA.2017.04.043|10.1016/J.PHYMED.2006.09.006|10.1016/J.PHYTOCHEM.2004.12.005|10.1016/J.PHYTOCHEM.2005.11.018|10.1016/J.PHYTOCHEM.2005.12.002|10.1016/J.PHYTOCHEM.2006.03.005|10.1016/J.PHYTOCHEM.2006.04.009|10.1016/J.PHYTOCHEM.2006.06.030|10.1016/J.PHYTOCHEM.2006.10.020|10.1016/J.PHYTOCHEM.2007.06.017|10.1016/J.PHYTOCHEM.2008.11.006|10.1016/J.PHYTOCHEM.2010.08.007|10.1016/J.PHYTOCHEM.2011.02.021|10.1016/J.PHYTOL.2013.10.006|10.1016/J.TALANTA.2014.06.043|10.1016/J.TET.2005.07.047|10.1016/J.TET.2006.03.091|10.1016/J.TETLET.2010.10.102|10.1016/S0009-8981(01)00403-X|10.1016/S0009-8981(02)00298-X|10.1016/S0021-9673(01)82447-X|10.1016/S0021-9673(01)88492-2|10.1016/S0021-9673(01)88531-9|10.1016/S0021-9673(01)88917-2|10.1016/S0021-9673(97)00900-X|10.1016/S0031-9422(00)00046-7|10.1016/S0031-9422(00)00216-8|10.1016/S0031-9422(00)00227-2|10.1016/S0031-9422(00)00366-6|10.1016/S0031-9422(00)00397-6|10.1016/S0031-9422(00)00423-4|10.1016/S0031-9422(00)80080-1|10.1016/S0031-9422(00)80349-0|10.1016/S0031-9422(00)80646-9|10.1016/S0031-9422(00)80813-4|10.1016/S0031-9422(00)81195-4|10.1016/S0031-9422(00)81324-2|10.1016/S0031-9422(00)83015-0|10.1016/S0031-9422(00)83144-1|10.1016/S0031-9422(00)83208-2|10.1016/S0031-9422(00)83510-4|10.1016/S0031-9422(00)83550-5|10.1016/S0031-9422(00)83809-1|10.1016/S0031-9422(00)83933-3|10.1016/S0031-9422(00)84026-1|10.1016/S0031-9422(00)84090-X|10.1016/S0031-9422(00)84461-1|10.1016/S0031-9422(00)84968-7|10.1016/S0031-9422(00)85282-6|10.1016/S0031-9422(00)89581-3|10.1016/S0031-9422(00)89605-3|10.1016/S0031-9422(00)89642-9|10.1016/S0031-9422(00)89888-X|10.1016/S0031-9422(00)89909-4|10.1016/S0031-9422(00)90045-1|10.1016/S0031-9422(00)90527-2|10.1016/S0031-9422(00)97156-5|10.1016/S0031-9422(00)97305-9|10.1016/S0031-9422(00)97572-1|10.1016/S0031-9422(00)97746-X|10.1016/S0031-9422(00)97941-X|10.1016/S0031-9422(00)98486-3|10.1016/S0031-9422(01)00039-5|10.1016/S0031-9422(01)00320-X|10.1016/S0031-9422(01)00401-0|10.1016/S0031-9422(01)00403-4|10.1016/S0031-9422(01)00415-0|10.1016/S0031-9422(01)00441-1|10.1016/S0031-9422(02)00133-4|10.1016/S0031-9422(02)00486-7|10.1016/S0031-9422(03)00374-1|10.1016/S0031-9422(03)00416-3|10.1016/S0031-9422(03)00504-1|10.1016/S0031-9422(96)00518-3|10.1016/S0031-9422(96)00663-2|10.1016/S0031-9422(97)00296-3|10.1016/S0031-9422(97)00985-0|10.1016/S0031-9422(98)00417-8|10.1016/S0031-9422(98)00510-X|10.1016/S0031-9422(99)00082-5|10.1016/S0031-9422(99)00109-0|10.1016/S0031-9422(99)00297-6|10.1016/S0031-9422(99)00326-X|10.1016/S0031-9422(99)00447-1|10.1016/S0305-1978(00)00053-3|10.1016/S0305-1978(00)00072-7|10.1016/S0305-1978(00)00115-0|10.1016/S0305-1978(01)00098-9|10.1016/S0305-1978(02)00055-8|10.1016/S0305-1978(02)00072-8|10.1016/S0305-1978(96)00101-9|10.1016/S0305-1978(97)00015-X|10.1016/S0305-1978(97)00032-X|10.1016/S0305-1978(97)00034-3|10.1016/S0305-1978(99)00084-8|10.1016/S0305-1978(99)00087-3|10.1016/S0305-1978(99)00113-1|10.1016/S0308-8146(00)00134-5|10.1016/S0367-326X(00)00161-1|10.1016/S0367-326X(00)00229-X|10.1016/S0367-326X(01)00309-4|10.1016/S0367-326X(02)00162-4|10.1016/S0367-326X(98)00032-X|10.1016/S0378-8741(00)00304-4|10.1016/S0378-8741(01)00363-4|10.1016/S0731-7085(00)00431-3|10.1016/S0891-5849(02)00751-7|10.1016/S0968-0896(00)00102-4|10.1016/S0968-0896(01)00321-2|10.1016/S1043-6618(05)80097-0|10.1016/j.bmc.2007.01.035|10.1016/j.bmc.2009.08.036|10.1016/j.bmcl.2006.06.011|10.1016/j.bmcl.2007.09.003|10.1016/j.bmcl.2011.04.043|10.1016/j.bmcl.2011.12.036|10.1016/j.bmcl.2012.10.043|10.1016/j.bmcl.2013.04.013|10.1016/j.bmcl.2015.04.045|10.1016/j.bmcl.2015.04.091|10.1016/j.bse.2006.07.006|10.1016/j.bse.2010.09.019|10.1016/j.fitote.2016.08.013|10.1016/j.foodchem.2012.02.124|10.1016/j.foodchem.2020.128444|10.1016/j.intimp.2015.01.018|10.1016/j.phytol.2013.06.009|10.1016/s0031-9422(00)83933-3|10.1021/ACS.JNATPROD.6B00839|10.1021/JA01160A019|10.1021/JF00002A006|10.1021/JF00035A025|10.1021/JF010192X|10.1021/JF010914K|10.1021/JF011682S|10.1021/JF020614I|10.1021/JF020728U|10.1021/JF026029Z|10.1021/JF030218F|10.1021/JF030717G|10.1021/JF0307402|10.1021/JF030813H|10.1021/JF0347517|10.1021/JF0483117|10.1021/JF0484069|10.1021/JF050051L|10.1021/JF062997G|10.1021/JF071475D|10.1021/JF072657A|10.1021/JF072975+|10.1021/JF1049084|10.1021/JF304002H|10.1021/JF4057023|10.1021/JF501644T|10.1021/JF800421J|10.1021/JF802974M|10.1021/JF900695S|10.1021/JF900950Z|10.1021/JF903836K|10.1021/JF9601628|10.1021/JF9800211|10.1021/JF9801264|10.1021/JF9801522|10.1021/JF981266G|10.1021/JF990440D|10.1021/JF991171U|10.1021/JF9913256|10.1021/NP000442O|10.1021/NP010081S|10.1021/NP030034V|10.1021/NP030226Q|10.1021/NP0302854|10.1021/NP0303411|10.1021/NP030470H|10.1021/NP0500272|10.1021/NP050034Q|10.1021/NP050185T|10.1021/NP058062W|10.1021/NP070396T|10.1021/NP0780046|10.1021/NP1008043|10.1021/NP300609U|10.1021/NP50017A003|10.1021/NP50018A009|10.1021/NP50020A005|10.1021/NP50021A021|10.1021/NP50022A009|10.1021/NP50022A016|10.1021/NP50022A030|10.1021/NP50028A037|10.1021/NP50029A027|10.1021/NP50035A034|10.1021/NP50037A036|10.1021/NP50037A041|10.1021/NP50038A033|10.1021/NP50039A028|10.1021/NP50044A034|10.1021/NP50045A042|10.1021/NP50046A043|10.1021/NP50046A051|10.1021/NP50046A053|10.1021/NP50052A014|10.1021/NP50052A017|10.1021/NP50052A045|10.1021/NP50053A018|10.1021/NP50057A037|10.1021/NP50076A027|10.1021/NP500879T|10.1021/NP50107A003|10.1021/NP960164M|10.1021/NP9604590|10.1021/NP970336V|10.1021/NP970428K|10.1021/NP970449E|10.1021/NP980179F|10.1021/NP980376E|10.1021/NP9900674|10.1021/NP990271R|10.1021/NP9902993|10.1021/acs.jnatprod.6b00981|10.1021/acs.jnatprod.9b00674|10.1021/jf304002h|10.1021/np000442o|10.1021/np030034v|10.1021/np0303411|10.1021/np030470h|10.1021/np0703850|10.1021/np070489a|10.1021/np1008043|10.1021/np300609u|10.1021/np4005163|10.1021/np50017a003|10.1021/np50052a017|10.1021/np50057a037|10.1021/np500879t|10.1021/np990271r|10.1023/B:CONC.0000025457.80791.19|10.1023/B:CONC.0000033925.00693.7B|10.1038/018153A0|10.1038/192288B0|10.1039/P19750001370|10.1055/S-0028-1099718|10.1055/S-0032-1321052|10.1055/S-2000-8632|10.1055/S-2003-43207|10.1055/S-2004-818927|10.1055/S-2004-818956|10.1055/S-2004-835854|10.1055/S-2005-873134|10.1055/S-2006-957071|10.1055/S-2006-957627|10.1055/S-2006-957639|10.1055/S-2006-957671|10.1055/S-2006-957713|10.1055/S-2006-957824|10.1055/S-2006-958146|10.1055/S-2006-959503|10.1055/S-2006-959597|10.1055/S-2006-959763|10.1055/S-2006-959773|10.1055/S-2006-960451|10.1055/S-2006-960820|10.1055/S-2006-960845|10.1055/S-2007-969169|10.1055/S-2007-969233|10.1055/S-2007-969635|10.1055/S-2007-981551|10.1055/S-2007-990223|10.1055/S-2008-1074547|10.1067/MAI.2000.107194|10.1076/PHBI.37.5.366.6050|10.1076/PHBI.40.6.405.8440|10.1080/00021369.1987.10868448|10.1080/01483918808076772|10.1080/10286020.2011.603306|10.1080/1028602031000105867|10.1080/10575630108041250|10.1080/10575630108041283|10.1080/1071576021000006707|10.1080/10826079208016365|10.1080/14786410310001620538|10.1080/14786410902726183|10.1080/14786410902836677|10.1080/14786410903075507|10.1080/14786410903230359|10.1080/14786419.2010.537271|10.1080/14786419.2016.1226831|10.1080/14786419.2016.1226831?journalCode=gnpl20|10.1104/PP.106.078428|10.1104/PP.109.148031|10.1111/J.1095-8339.1984.TB02563.X|10.1111/J.1365-2621.1992.TB11286.X|10.1111/JIPB.12204|10.1111/PCE.12378|10.1139/B75-026|10.1139/B88-004|10.1139/B95-209|10.1177/1934578x0600100602|10.1246/NIKKASHI.1987.1853|10.1248/BPB.22.1319|10.1248/BPB.23.602|10.1248/BPB.28.19|10.1248/BPB.31.527|10.1248/CPB.14.877|10.1248/CPB.30.3219|10.1248/CPB.30.3640|10.1248/CPB.32.1815|10.1248/CPB.38.523|10.1248/CPB.39.3265|10.1248/CPB.39.881|10.1248/CPB.40.689|10.1248/CPB.41.1238|10.1248/CPB.43.1800|10.1248/CPB.43.641|10.1248/CPB.45.464|10.1248/CPB.46.1624|10.1248/CPB.46.1647|10.1248/CPB.47.1515|10.1248/CPB.47.571|10.1248/CPB.47.887|10.1248/CPB.48.1039|10.1248/CPB.48.1219|10.1248/CPB.49.1039|10.1248/CPB.49.1388|10.1248/CPB.49.1474|10.1248/CPB.49.151|10.1248/CPB.51.194|10.1248/CPB.52.866|10.1248/CPB.53.1600|10.1248/CPB.53.591|10.1248/CPB.54.1308|10.1248/CPB.55.1308|10.1248/CPB.55.551|10.1248/CPB.55.771|10.1248/CPB.55.815|10.1248/CPB.56.1297|10.1248/CPB.56.585|10.1248/CPB.57.1089|10.1248/CPB.57.361|10.1248/CPB.57.532|10.1248/CPB.57.853|10.1248/CPB.58.1116|10.1248/CPB.58.859|10.1248/CPB.59.1274|10.1248/CPB.59.129|10.1248/YAKUSHI1947.104.2_142|10.1248/YAKUSHI1947.105.7_649|10.1248/YAKUSHI1947.106.11_982|10.1248/YAKUSHI1947.106.11_989|10.1248/YAKUSHI1947.107.12_1001|10.1248/YAKUSHI1947.108.7_647|10.1248/YAKUSHI1947.110.5_315|10.1248/YAKUSHI1947.110.5_354|10.1271/BBB.61.177|10.1271/BBB.61.332|10.1271/BBB.64.1588|10.1271/BBB1961.46.1079|10.1271/BBB1961.51.2801|10.1371/JOURNAL.PONE.0108860|10.1515/ZNB-1964-0916|10.1515/ZNC-1985-1-204|10.1515/ZNC-1988-1-210|10.1515/ZNC-1990-1-206|10.1515/ZNC-1991-1-207|10.1515/ZNC-1998-11-1202|10.1515/ZNC-2003-9-1019|10.1515/ZNC-2009-7-808|10.15835/NBHA47311477|10.1590/S0103-50532005000800008|10.1590/S0103-50532010001200007|10.17660/ACTAHORTIC.1994.381.64|10.21608/BFSA.1997.68759|10.21608/BFSA.1999.66096|10.21608/BFSA.2000.66323|10.21608/BFSA.2000.66324|10.21608/BFSA.2001.65755|10.21608/BFSA.2002.65511|10.21608/BFSA.2003.65468|10.21608/BFSA.2003.65470|10.21608/ZJPS.1994.186618|10.2307/2806097|10.2307/3754908|10.3109/14756369409040777|10.3390/12020263|10.3390/MOLECULES22101606|10.3390/MOLECULES24020302|10.3390/molecules190914235|10.3390/molecules24162945|10.3390/molecules24183212|10.3724/SP.J.1009.2010.00257|10.3742/OPEM.2007.7.4.336|10.3923/JBS.2001.843.845|10.3987/COM-03-9822|10.3987/COM-03-9882|10.3987/COM-04-10150|10.3987/COM-08-11385|10.3987/COM-11-12330|10.3987/COM-92-6050|10.3987/COM-93-6550|10.3987/COM-97-7906|10.4236/FNS.2012.33050|10.4268/CJCMM20100813|10.4268/CJCMM20131021|10.4268/CJCMM20142423|10.5012/BKCS.2010.31.04.929|10.5012/BKCS.2011.32.6.2079|10.5586/ASBP.1982.038|10.5586/ASBP.1998.030

>  <synonyms>  (477) 
nan

>  <cas>  (477) 
480-10-4

$$$$

     RDKit          2D

 15 15  0  0  0  0  0  0  0  0999 V2000
   -4.8810    1.5316    0.0000 C   0  0  0  0  0  0  0  0  0  0  0  0
   -3.9213    0.3788    0.0000 C   0  0  0  0  0  0  0  0  0  0  0  0
   -4.4398   -1.0288    0.0000 C   0  0  0  0  0  0  0  0  0  0  0  0
   -2.4431    0.6335    0.0000 O   0  0  0  0  0  0  0  0  0  0  0  0
   -1.4834   -0.5193    0.0000 C   0  0  0  0  0  0  0  0  0  0  0  0
   -2.0018   -1.9268    0.0000 O   0  0  0  0  0  0  0  0  0  0  0  0
   -0.0051   -0.2645    0.0000 C   0  0  0  0  0  0  0  0  0  0  0  0
    0.5133    1.1430    0.0000 C   0  0  0  0  0  0  0  0  0  0  0  0
    1.9915    1.3978    0.0000 C   0  0  0  0  0  0  0  0  0  0  0  0
    2.5100    2.8053    0.0000 O   0  0  0  0  0  0  0  0  0  0  0  0
    2.9513    0.2450    0.0000 C   0  0  0  0  0  0  0  0  0  0  0  0
    4.4295    0.4997    0.0000 O   0  0  0  0  0  0  0  0  0  0  0  0
    2.4328   -1.1626    0.0000 C   0  0  0  0  0  0  0  0  0  0  0  0
    3.3925   -2.3154    0.0000 O   0  0  0  0  0  0  0  0  0  0  0  0
    0.9546   -1.4173    0.0000 C   0  0  0  0  0  0  0  0  0  0  0  0
  1  2  1  0
  2  3  1  0
  2  4  1  0
  4  5  1  0
  5  6  2  0
  5  7  1  0
  7  8  2  0
  8  9  1  0
  9 10  1  0
  9 11  2  0
 11 12  1  0
 11 13  1  0
 13 14  1  0
 13 15  2  0
 15  7  1  0
M  END
>  <identifier>  (478) 
CNP0092993.0

>  <canonical_smiles>  (478) 
CC(C)OC(=O)C1=CC(O)=C(O)C(O)=C1

>  <standard_inchi>  (478) 
InChI=1S/C10H12O5/c1-5(2)15-10(14)6-3-7(11)9(13)8(12)4-6/h3-5,11-13H,1-2H3

>  <standard_inchi_key>  (478) 
TXGSOSAONMOPDL-UHFFFAOYSA-N

>  <name>  (478) 
Isopropyl 3,4,5-trihydroxybenzoate

>  <iupac_name>  (478) 
isopropyl 3,4,5-trihydroxybenzoate

>  <annotation_level>  (478) 
5

>  <total_atom_count>  (478) 
27

>  <heavy_atom_count>  (478) 
15

>  <molecular_weight>  (478) 
212.2

>  <exact_molecular_weight>  (478) 
212.06847

>  <molecular_formula>  (478) 
C10H12O5

>  <alogp>  (478) 
1.37

>  <topological_polar_surface_area>  (478) 
86.99

>  <rotatable_bond_count>  (478) 
2

>  <hydrogen_bond_acceptors>  (478) 
5

>  <hydrogen_bond_donors>  (478) 
3

>  <hydrogen_bond_acceptors_lipinski>  (478) 
5

>  <hydrogen_bond_donors_lipinski>  (478) 
3

>  <lipinski_rule_of_five_violations>  (478) 
0

>  <aromatic_rings_count>  (478) 
1

>  <qed_drug_likeliness>  (478) 
0.51

>  <formal_charge>  (478) 
0

>  <fractioncsp3>  (478) 
0.30

>  <number_of_minimal_rings>  (478) 
1

>  <van_der_walls_volume>  (478) 
187.53

>  <contains_sugar>  (478) 
False

>  <contains_ring_sugars>  (478) 
False

>  <contains_linear_sugars>  (478) 
False

>  <murcko_framework>  (478) 
c1ccccc1

>  <np_likeness>  (478) 
0.42

>  <chemical_class>  (478) 
Benzene and substituted derivatives

>  <chemical_sub_class>  (478) 
Benzoic acids and derivatives

>  <chemical_super_class>  (478) 
Benzenoids

>  <direct_parent_classification>  (478) 
p-Hydroxybenzoic acid alkyl esters

>  <np_classifier_pathway>  (478) 
Shikimates and Phenylpropanoids

>  <np_classifier_superclass>  (478) 
Phenolic acids (C6-C1)

>  <np_classifier_class>  (478) 
Shikimic acids and derivatives

>  <np_classifier_is_glycoside>  (478) 
False

>  <organisms>  (478) 
Alchornea glandulosa

>  <collections>  (478) 
ChemSpider NPs|Latin America dataset|NuBBEDB|Super Natural II|WikiData Natural Products|ZINC NP

>  <dois>  (478) 
10.1080/14786410903335232

>  <synonyms>  (478) 
1138-60-9|5O3N4U82G7|AKOS005443078|BBL001134|BIM-0011224.P001|Benzoic acid, 3,4,5-trihydroxy-, 1-methylethyl ester|CB14346|CBMicro_011249|CS-0329560|DTXSID00150554|EINECS 214-515-5|GALLIC ACID, ISOPROPYL ESTER|Isopropylgallate|MFCD00016424|NS00023699|NSC-133457|NSC727430|Oprea1_182912|Q27262620|SCHEMBL276309|SMSF0004173|STK366528|TXGSOSAONMOPDL-UHFFFAOYSA-N|UNII-5O3N4U82G7|VS-00818|propan-2-yl 3,4,5-trihydroxybenzoate

>  <cas>  (478) 
1138-60-9

$$$$

     RDKit          2D

 27 29  0  0  0  0  0  0  0  0999 V2000
   -5.9395    3.6848    0.0000 C   0  0  0  0  0  0  0  0  0  0  0  0
   -4.5946    3.0207    0.0000 O   0  0  0  0  0  0  0  0  0  0  0  0
   -4.4973    1.5238    0.0000 C   0  0  0  0  0  0  0  0  0  0  0  0
   -5.7449    0.6911    0.0000 O   0  0  0  0  0  0  0  0  0  0  0  0
   -3.1523    0.8597    0.0000 C   0  0  0  0  0  0  0  0  0  0  0  0
   -1.9047    1.6924    0.0000 C   0  0  0  0  0  0  0  0  0  0  0  0
   -0.5597    1.0283    0.0000 O   0  0  0  0  0  0  0  0  0  0  0  0
   -0.4624   -0.4686    0.0000 C   0  0  0  0  0  0  0  0  0  0  0  0
    0.8826   -1.1327    0.0000 O   0  0  0  0  0  0  0  0  0  0  0  0
    2.1302   -0.3000    0.0000 C   0  0  0  0  0  0  0  0  0  0  0  0
    3.4752   -0.9641    0.0000 O   0  0  0  0  0  0  0  0  0  0  0  0
    4.7228   -0.1314    0.0000 C   0  0  0  0  0  0  0  0  0  0  0  0
    6.0678   -0.7956    0.0000 C   0  0  0  0  0  0  0  0  0  0  0  0
    6.1651   -2.2924    0.0000 O   0  0  0  0  0  0  0  0  0  0  0  0
    4.6255    1.3654    0.0000 C   0  0  0  0  0  0  0  0  0  0  0  0
    5.8732    2.1981    0.0000 O   0  0  0  0  0  0  0  0  0  0  0  0
    3.2806    2.0296    0.0000 C   0  0  0  0  0  0  0  0  0  0  0  0
    3.1832    3.5264    0.0000 O   0  0  0  0  0  0  0  0  0  0  0  0
    2.0329    1.1968    0.0000 C   0  0  0  0  0  0  0  0  0  0  0  0
    0.6879    1.8610    0.0000 O   0  0  0  0  0  0  0  0  0  0  0  0
   -1.7100   -1.3013    0.0000 C   0  0  0  0  0  0  0  0  0  0  0  0
   -1.9260   -2.7856    0.0000 C   0  0  0  0  0  0  0  0  0  0  0  0
   -0.8521   -3.8329    0.0000 C   0  0  0  0  0  0  0  0  0  0  0  0
   -1.2221   -5.2865    0.0000 O   0  0  0  0  0  0  0  0  0  0  0  0
   -3.4045   -3.0389    0.0000 C   0  0  0  0  0  0  0  0  0  0  0  0
   -4.1022   -1.7110    0.0000 C   0  0  0  0  0  0  0  0  0  0  0  0
   -3.0550   -0.6371    0.0000 C   0  0  0  0  0  0  0  0  0  0  0  0
  1  2  1  0
  2  3  1  0
  3  4  2  0
  3  5  1  0
  5  6  2  0
  6  7  1  0
  7  8  1  0
  8  9  1  1
 10  9  1  1
 10 11  1  0
 11 12  1  0
 12 13  1  1
 13 14  1  0
 12 15  1  0
 15 16  1  6
 15 17  1  0
 17 18  1  1
 17 19  1  0
 19 20  1  6
  8 21  1  0
 21 22  1  6
 22 23  1  0
 23 24  1  0
 22 25  2  0
 25 26  1  0
 27 26  1  6
 27  5  1  0
 19 10  1  0
 27 21  1  0
M  END
>  <identifier>  (479) 
CNP0295803.1

>  <canonical_smiles>  (479) 
COC(=O)C1=CO[C@@H](O[C@@H]2O[C@H](CO)[C@@H](O)[C@H](O)[C@H]2O)[C@@H]2C(CO)=CC[C@H]12

>  <standard_inchi>  (479) 
InChI=1S/C17H24O10/c1-24-15(23)9-6-25-16(11-7(4-18)2-3-8(9)11)27-17-14(22)13(21)12(20)10(5-19)26-17/h2,6,8,10-14,16-22H,3-5H2,1H3/t8-,10-,11-,12-,13+,14-,16+,17+/m1/s1

>  <standard_inchi_key>  (479) 
IBFYXTRXDNAPMM-BVTMAQQCSA-N

>  <name>  (479) 
Geniposide

>  <iupac_name>  (479) 
methyl (1~{S},4~{a}~{S},7~{a}~{S})-7-(hydroxymethyl)-1-[(2~{S},3~{R},4~{S},5~{S},6~{R})-3,4,5-trihydroxy-6-(hydroxymethyl)tetrahydropyran-2-yl]oxy-1,4~{a},5,7~{a}-tetrahydrocyclopenta[c]pyran-4-carboxylate

>  <annotation_level>  (479) 
5

>  <total_atom_count>  (479) 
51

>  <heavy_atom_count>  (479) 
27

>  <molecular_weight>  (479) 
388.37

>  <exact_molecular_weight>  (479) 
388.13695

>  <molecular_formula>  (479) 
C17H24O10

>  <alogp>  (479) 
-2.23

>  <topological_polar_surface_area>  (479) 
155.14

>  <rotatable_bond_count>  (479) 
5

>  <hydrogen_bond_acceptors>  (479) 
10

>  <hydrogen_bond_donors>  (479) 
5

>  <hydrogen_bond_acceptors_lipinski>  (479) 
10

>  <hydrogen_bond_donors_lipinski>  (479) 
5

>  <lipinski_rule_of_five_violations>  (479) 
0

>  <aromatic_rings_count>  (479) 
0

>  <qed_drug_likeliness>  (479) 
0.26

>  <formal_charge>  (479) 
0

>  <fractioncsp3>  (479) 
0.71

>  <number_of_minimal_rings>  (479) 
3

>  <van_der_walls_volume>  (479) 
332.02

>  <contains_sugar>  (479) 
True

>  <contains_ring_sugars>  (479) 
True

>  <contains_linear_sugars>  (479) 
False

>  <murcko_framework>  (479) 
O1C=CC2CC=CC2C1OC3OCCCC3

>  <np_likeness>  (479) 
2.76

>  <chemical_class>  (479) 
Prenol lipids

>  <chemical_sub_class>  (479) 
Terpene glycosides

>  <chemical_super_class>  (479) 
Lipids and lipid-like molecules

>  <direct_parent_classification>  (479) 
Iridoid O-glycosides

>  <np_classifier_pathway>  (479) 
Terpenoids

>  <np_classifier_superclass>  (479) 
Monoterpenoids

>  <np_classifier_class>  (479) 
Iridoids monoterpenoids

>  <np_classifier_is_glycoside>  (479) 
True

>  <organisms>  (479) 
Adina trichotoma|Alibertia sessilis|Aloysia citriodora|Aloysia citrodora|Aloysia triphylla|Arbutus sp.|Arbutus unedo|Avicennia marina|Biebersteinia heterostemon|Castilleja foliolosa|Catharanthus roseus|Catunaregam spinosa|Cordiera sessilis|Cordylanthus capitatus|Cordylanthus kingii|Cornus officinalis|Cornus sp.|Escallonia myrtoidea|Eucalyptus incrassata|Eucommia sp.|Eucommia ulmoides|Euphrasia sp.|Feretia apodanthera|Galeopsis bifida|Garcinia|Gardenia|Gardenia jasminoides|Gardenia sp.|Garrya elliptica|Genipa americana|Globularia davisiana|Globularia orientalis|Lamium album|Lantana camara|Lippia alba|Paederia foetida|Paederia scandens|Penstemon centranthifolius|Penstemon crandallii|Penstemon eximius|Petasites japonicus|Plantago asiatica|Plantago depressa|Plocama calabrica|Pterospermum heyneanum|Rehmannia glutinosa|Rehmannia sp.|Rothmannia globosa|Stigmaphyllon palmatum|Tinospora capillipes|Tinospora sagittata|Torilis scabra|obedient plant

>  <collections>  (479) 
AnalytiCon Discovery NPs|Australian natural products|CMAUP (cCollective molecular activities of useful plants)|ChEBI NPs|ChemSpider NPs|Latin America dataset|NPACT|NPASS|NuBBEDB|PhytoLab phyproof® Reference Substances|Super Natural II|TCMDB-Taiwan (Traditional Chinese Medicine database)|WikiData Natural Products|ZINC NP

>  <dois>  (479) 
10.1002/(SICI)1521-4168(19980901)21:9<523::AID-JHRC523>3.0.CO;2-B|10.1002/HLCA.200890068|10.1002/PTR.2992|10.1002/RCM.4643|10.1016/0031-9422(90)85110-2|10.1016/0031-9422(92)80354-H|10.1016/0031-9422(95)00172-4|10.1016/0031-9422(95)00477-7|10.1016/0305-1978(86)90106-7|10.1016/0305-1978(93)90063-W|10.1016/0378-4274(88)90144-0|10.1016/J.BMCL.2012.11.099|10.1016/J.CBI.2009.05.009|10.1016/J.JEP.2007.11.044|10.1016/J.PHYTOCHEM.2009.03.008|10.1016/S0021-9673(01)82148-8|10.1016/S0031-9422(00)80266-6|10.1016/S0031-9422(00)80374-X|10.1016/S0031-9422(00)81110-3|10.1016/S0031-9422(00)83963-1|10.1016/S0031-9422(00)97934-2|10.1016/S0031-9422(02)00096-1|10.1016/S0031-9422(03)00109-2|10.1016/S0305-1978(01)00135-1|10.1016/S0305-1978(02)00169-2|10.1016/S0367-326X(00)00202-1|10.1016/j.bmcl.2012.11.099|10.1021/JF00042A002|10.1021/JF000978F|10.1021/NP050447R|10.1021/NP0580816|10.1021/NP50074A050|10.1021/NP50078A032|10.1021/NP700758Q|10.1021/NP900176Q|10.1021/NP900549E|10.1021/np050447r|10.1021/np0580816|10.1021/np50078a032|10.1021/np900176q|10.1021/np900549e|10.1055/S-2004-818978|10.1055/S-2006-962681|10.1055/S-2007-969406|10.1080/00387019909350045|10.1080/10826079408013541|10.1080/14786419.2010.514268|10.1081/JLC-120027086|10.1248/BPB.19.160|10.1248/BPB.28.2106|10.1248/BPB.29.174|10.1248/CPB.21.2684|10.1248/CPB.34.1419|10.1248/CPB.34.523|10.1248/CPB.39.2057|10.1248/CPB.50.678|10.1248/CPB.51.1417|10.1248/CPB.53.1342|10.1248/YAKUSHI1947.105.10_996|10.1515/ZNC-2002-7-807|10.1590/S0103-50532007000700017|10.2116/BUNSEKIKAGAKU.35.3_215

>  <synonyms>  (479) 
(1S,4aS,7aS)-Methyl 7-(hydroxymethyl)-1-(((2S,3R,4S,5S,6R)-3,4,5-trihydroxy-6-(hydroxymethyl)tetrahydro-2H-pyran-2-yl)oxy)-1,4a,5,7a-tetrahydrocyclopenta[c]pyran-4-carboxylate|145295QLXY|169799-41-1|1ST40032|24512-63-8|AB01558902_03|AKOS025311228|BDBM50478840|BRD-K57275767-001-03-2|C09781|CCG-268498|CHEBI:5299|CHEMBL462894|CYCLOPENTA(C)PYRAN-4-CARBOXYLIC ACID, 1-(.BETA.-D-GLUCOPYRANOSYLOXY)- 1,4A,5,7A-TETRAHYDRO-7-(HYDROXYMETHYL)-, METHYL ESTER, (1S,4AS,7AS)-|Cyclopenta[c]pyran-4-carboxylic acid, 1-(beta-D-glucopyranosyloxy)-1,4a,5,7a-tetrahydro-7-(hydroxymethyl)-, methyl ester, (1S,4aS,7aS)-|DTXSID101318419|Genipin 1-glucoside|Geniposide|Geniposide, >=98% (HPLC)|HMS3884F17|Jasminoidin|MFCD16036219|Methyl (1S)-1alpha-(beta-D-Glucopyranosyloxy)-7-(hydroxymethyl)-1,4aalpha,5,7aalpha-tetrahydrocyclopenta[c]pyran-4-carboxylate|NCGC00346662-04|NS00097664|Q27106709|UNII-145295QLXY|methyl (1S,4aS,7aS)-7-(hydroxymethyl)-1-[(2S,3R,4S,5S,6R)-3,4,5-trihydroxy-6-(hydroxymethyl)oxan-2-yl]oxy-1,4a,5,7a-tetrahydrocyclopenta[c]pyran-4-carboxylate|s2411

>  <cas>  (479) 
24512-63-8|169799-41-1

$$$$

     RDKit          2D

 42 46  0  0  0  0  0  0  0  0999 V2000
   -5.5009   -4.4540    0.0000 O   0  0  0  0  0  0  0  0  0  0  0  0
   -4.8451   -3.1049    0.0000 C   0  0  0  0  0  0  0  0  0  0  0  0
   -5.6856   -1.8625    0.0000 C   0  0  0  0  0  0  0  0  0  0  0  0
   -5.0298   -0.5134    0.0000 C   0  0  0  0  0  0  0  0  0  0  0  0
   -5.8702    0.7290    0.0000 C   0  0  0  0  0  0  0  0  0  0  0  0
   -5.2145    2.0781    0.0000 C   0  0  0  0  0  0  0  0  0  0  0  0
   -6.0549    3.3205    0.0000 C   0  0  0  0  0  0  0  0  0  0  0  0
   -7.5511    3.2139    0.0000 C   0  0  0  0  0  0  0  0  0  0  0  0
   -8.3915    4.4564    0.0000 O   0  0  0  0  0  0  0  0  0  0  0  0
   -8.2069    1.8649    0.0000 C   0  0  0  0  0  0  0  0  0  0  0  0
   -7.3664    0.6224    0.0000 C   0  0  0  0  0  0  0  0  0  0  0  0
   -3.5336   -0.4068    0.0000 O   0  0  0  0  0  0  0  0  0  0  0  0
   -2.6932   -1.6493    0.0000 C   0  0  0  0  0  0  0  0  0  0  0  0
   -3.3489   -2.9983    0.0000 C   0  0  0  0  0  0  0  0  0  0  0  0
   -2.5085   -4.2408    0.0000 C   0  0  0  0  0  0  0  0  0  0  0  0
   -3.1643   -5.5898    0.0000 O   0  0  0  0  0  0  0  0  0  0  0  0
   -1.0123   -4.1342    0.0000 C   0  0  0  0  0  0  0  0  0  0  0  0
   -0.3565   -2.7851    0.0000 C   0  0  0  0  0  0  0  0  0  0  0  0
    1.1397   -2.6785    0.0000 O   0  0  0  0  0  0  0  0  0  0  0  0
   -1.1970   -1.5427    0.0000 C   0  0  0  0  0  0  0  0  0  0  0  0
   -0.5412   -0.1936    0.0000 C   0  0  0  0  0  0  0  0  0  0  0  0
    0.9550   -0.0870    0.0000 O   0  0  0  0  0  0  0  0  0  0  0  0
    1.6108    1.2621    0.0000 C   0  0  0  0  0  0  0  0  0  0  0  0
    3.1070    1.3687    0.0000 C   0  0  0  0  0  0  0  0  0  0  0  0
    3.9474    0.1262    0.0000 O   0  0  0  0  0  0  0  0  0  0  0  0
    5.4436    0.2328    0.0000 C   0  0  0  0  0  0  0  0  0  0  0  0
    6.2841   -1.0096    0.0000 O   0  0  0  0  0  0  0  0  0  0  0  0
    7.7803   -0.9030    0.0000 C   0  0  0  0  0  0  0  0  0  0  0  0
    8.6207   -2.1454    0.0000 C   0  0  0  0  0  0  0  0  0  0  0  0
    7.9649   -3.4945    0.0000 O   0  0  0  0  0  0  0  0  0  0  0  0
    8.4361    0.4461    0.0000 C   0  0  0  0  0  0  0  0  0  0  0  0
    9.9323    0.5527    0.0000 O   0  0  0  0  0  0  0  0  0  0  0  0
    7.5956    1.6885    0.0000 C   0  0  0  0  0  0  0  0  0  0  0  0
    8.2514    3.0376    0.0000 O   0  0  0  0  0  0  0  0  0  0  0  0
    6.0994    1.5819    0.0000 C   0  0  0  0  0  0  0  0  0  0  0  0
    5.2590    2.8243    0.0000 O   0  0  0  0  0  0  0  0  0  0  0  0
    0.7704    2.5045    0.0000 C   0  0  0  0  0  0  0  0  0  0  0  0
    1.4261    3.8536    0.0000 O   0  0  0  0  0  0  0  0  0  0  0  0
   -0.7258    2.3979    0.0000 C   0  0  0  0  0  0  0  0  0  0  0  0
   -1.5663    3.6404    0.0000 O   0  0  0  0  0  0  0  0  0  0  0  0
   -1.3816    1.0488    0.0000 C   0  0  0  0  0  0  0  0  0  0  0  0
   -2.8778    0.9422    0.0000 O   0  0  0  0  0  0  0  0  0  0  0  0
  1  2  2  0
  2  3  1  0
  3  4  1  0
  4  5  1  0
  5  6  2  0
  6  7  1  0
  7  8  2  0
  8  9  1  0
  8 10  1  0
 10 11  2  0
  4 12  1  0
 12 13  1  0
 13 14  2  0
 14 15  1  0
 15 16  1  0
 15 17  2  0
 17 18  1  0
 18 19  1  0
 18 20  2  0
 21 20  1  1
 21 22  1  0
 22 23  1  0
 23 24  1  1
 24 25  1  0
 26 25  1  1
 26 27  1  0
 27 28  1  0
 28 29  1  1
 29 30  1  0
 28 31  1  0
 31 32  1  6
 31 33  1  0
 33 34  1  1
 33 35  1  0
 35 36  1  6
 23 37  1  0
 37 38  1  6
 37 39  1  0
 39 40  1  1
 39 41  1  0
 41 42  1  6
 14  2  1  0
 41 21  1  0
 11  5  1  0
 20 13  1  0
 35 26  1  0
M  END
>  <identifier>  (480) 
CNP0376427.1

>  <canonical_smiles>  (480) 
O=C1CC(C2=CC=C(O)C=C2)OC2=C1C(O)=CC(O)=C2[C@@H]1O[C@H](CO[C@@H]2O[C@H](CO)[C@@H](O)[C@H](O)[C@H]2O)[C@@H](O)[C@H](O)[C@H]1O

>  <standard_inchi>  (480) 
InChI=1S/C27H32O15/c28-7-15-19(33)22(36)24(38)27(42-15)39-8-16-20(34)21(35)23(37)26(41-16)18-12(31)5-11(30)17-13(32)6-14(40-25(17)18)9-1-3-10(29)4-2-9/h1-5,14-16,19-24,26-31,33-38H,6-8H2/t14?,15-,16-,19-,20-,21+,22+,23-,24-,26+,27-/m1/s1

>  <standard_inchi_key>  (480) 
KGMWNTRZODYLCW-BJZLFXGNSA-N

>  <name>  (480) 
nan

>  <iupac_name>  (480) 
5,7-dihydroxy-2-(4-hydroxyphenyl)-8-[(2~{S},3~{R},4~{R},5~{S},6~{R})-3,4,5-trihydroxy-6-[[(2~{R},3~{R},4~{S},5~{S},6~{R})-3,4,5-trihydroxy-6-(hydroxymethyl)tetrahydropyran-2-yl]oxymethyl]tetrahydropyran-2-yl]chroman-4-one

>  <annotation_level>  (480) 
4

>  <total_atom_count>  (480) 
74

>  <heavy_atom_count>  (480) 
42

>  <molecular_weight>  (480) 
596.54

>  <exact_molecular_weight>  (480) 
596.17412

>  <molecular_formula>  (480) 
C27H32O15

>  <alogp>  (480) 
-2.15

>  <topological_polar_surface_area>  (480) 
256.29

>  <rotatable_bond_count>  (480) 
6

>  <hydrogen_bond_acceptors>  (480) 
15

>  <hydrogen_bond_donors>  (480) 
10

>  <hydrogen_bond_acceptors_lipinski>  (480) 
15

>  <hydrogen_bond_donors_lipinski>  (480) 
10

>  <lipinski_rule_of_five_violations>  (480) 
3

>  <aromatic_rings_count>  (480) 
2

>  <qed_drug_likeliness>  (480) 
0.17

>  <formal_charge>  (480) 
0

>  <fractioncsp3>  (480) 
0.52

>  <number_of_minimal_rings>  (480) 
5

>  <van_der_walls_volume>  (480) 
nan

>  <contains_sugar>  (480) 
True

>  <contains_ring_sugars>  (480) 
True

>  <contains_linear_sugars>  (480) 
False

>  <murcko_framework>  (480) 
O1c2c(cccc2C3OC(COC4OCCCC4)CCC3)CCC1c5ccccc5

>  <np_likeness>  (480) 
2.10

>  <chemical_class>  (480) 
Flavonoids

>  <chemical_sub_class>  (480) 
Flavonoid glycosides

>  <chemical_super_class>  (480) 
Phenylpropanoids and polyketides

>  <direct_parent_classification>  (480) 
Flavonoid 8-C-glycosides

>  <np_classifier_pathway>  (480) 
Shikimates and Phenylpropanoids

>  <np_classifier_superclass>  (480) 
Flavonoids

>  <np_classifier_class>  (480) 
Flavanones

>  <np_classifier_is_glycoside>  (480) 
True

>  <organisms>  (480) 
Piper umbellata|Piper umbellatum

>  <collections>  (480) 
Latin America dataset|NuBBEDB|WikiData Natural Products

>  <dois>  (480) 
10.1590/S0100-40422009000500005

>  <synonyms>  (480) 
Vitexin 2''-O-\u221a\u00e9\u00ac\u2264-glucopyranoside

>  <cas>  (480) 
nan

$$$$

     RDKit          2D

 38 42  0  0  0  0  0  0  0  0999 V2000
    3.0396   -1.9015    0.0000 C   0  0  0  0  0  0  0  0  0  0  0  0
    4.3662   -1.2015    0.0000 C   0  0  0  0  0  0  0  0  0  0  0  0
    5.6358   -2.0004    0.0000 C   0  0  0  0  0  0  0  0  0  0  0  0
    4.4233    0.2974    0.0000 C   0  0  0  0  0  0  0  0  0  0  0  0
    5.6695    1.1323    0.0000 C   0  0  0  0  0  0  0  0  0  0  0  0
    5.2605    2.5755    0.0000 C   0  0  0  0  0  0  0  0  0  0  0  0
    3.7616    2.6325    0.0000 C   0  0  0  0  0  0  0  0  0  0  0  0
    4.4234    3.9787    0.0000 C   0  0  0  0  0  0  0  0  0  0  0  0
    2.8011    3.7846    0.0000 C   0  0  0  0  0  0  0  0  0  0  0  0
    1.3230    3.5288    0.0000 C   0  0  0  0  0  0  0  0  0  0  0  0
    0.8056    2.1209    0.0000 C   0  0  0  0  0  0  0  0  0  0  0  0
   -0.1550    3.2730    0.0000 C   0  0  0  0  0  0  0  0  0  0  0  0
    1.7661    0.9688    0.0000 C   0  0  0  0  0  0  0  0  0  0  0  0
    1.2487   -0.4391    0.0000 C   0  0  0  0  0  0  0  0  0  0  0  0
    2.2093   -1.5912    0.0000 O   0  0  0  0  0  0  0  0  0  0  0  0
   -0.2293   -0.6950    0.0000 C   0  0  0  0  0  0  0  0  0  0  0  0
   -0.7468   -2.1029    0.0000 O   0  0  0  0  0  0  0  0  0  0  0  0
    0.2138   -3.2550    0.0000 C   0  0  0  0  0  0  0  0  0  0  0  0
   -0.3037   -4.6629    0.0000 C   0  0  0  0  0  0  0  0  0  0  0  0
    0.6569   -5.8150    0.0000 C   0  0  0  0  0  0  0  0  0  0  0  0
    0.1394   -7.2229    0.0000 C   0  0  0  0  0  0  0  0  0  0  0  0
    2.1349   -5.5592    0.0000 C   0  0  0  0  0  0  0  0  0  0  0  0
   -1.1899    0.4571    0.0000 C   0  0  0  0  0  0  0  0  0  0  0  0
   -2.6679    0.2013    0.0000 C   0  0  0  0  0  0  0  0  0  0  0  0
   -1.7074   -0.9508    0.0000 C   0  0  0  0  0  0  0  0  0  0  0  0
   -3.1854   -1.2066    0.0000 C   0  0  0  0  0  0  0  0  0  0  0  0
   -4.6634   -1.4625    0.0000 C   0  0  0  0  0  0  0  0  0  0  0  0
   -5.6240   -0.3104    0.0000 C   0  0  0  0  0  0  0  0  0  0  0  0
   -7.1020   -0.5662    0.0000 O   0  0  0  0  0  0  0  0  0  0  0  0
   -5.1065    1.0976    0.0000 C   0  0  0  0  0  0  0  0  0  0  0  0
   -5.1018    2.5975    0.0000 C   0  0  0  0  0  0  0  0  0  0  0  0
   -6.5829    1.3627    0.0000 C   0  0  0  0  0  0  0  0  0  0  0  0
   -3.6285    1.3534    0.0000 C   0  0  0  0  0  0  0  0  0  0  0  0
   -3.1110    2.7613    0.0000 C   0  0  0  0  0  0  0  0  0  0  0  0
   -1.6330    3.0171    0.0000 C   0  0  0  0  0  0  0  0  0  0  0  0
   -0.6724    1.8650    0.0000 C   0  0  0  0  0  0  0  0  0  0  0  0
    0.2881    0.7130    0.0000 C   0  0  0  0  0  0  0  0  0  0  0  0
    3.2442    1.2246    0.0000 C   0  0  0  0  0  0  0  0  0  0  0  0
  1  2  2  0
  2  3  1  0
  4  2  1  1
  4  5  1  0
  5  6  1  0
  6  7  1  0
  7  8  1  6
  7  9  1  0
  9 10  1  0
 10 11  1  0
 11 12  1  1
 11 13  1  0
 13 14  1  1
 14 15  1  0
 14 16  1  0
 16 17  1  0
 17 18  1  0
 18 19  1  0
 19 20  2  0
 20 21  1  0
 20 22  1  0
 23 16  1  6
 23 24  1  0
 24 25  1  6
 24 26  1  0
 26 27  1  0
 27 28  1  0
 28 29  1  6
 28 30  1  0
 30 31  1  0
 30 32  1  0
 30 33  1  0
 33 34  1  6
 34 35  1  0
 35 36  1  0
 36 37  1  6
 13 38  1  0
 38  4  1  6
 38  7  1  0
 36 11  1  0
 36 23  1  0
 33 24  1  0
M  END
>  <identifier>  (481) 
CNP0080560.1

>  <canonical_smiles>  (481) 
C=C(C)[C@@H]1CC[C@]2(C)CC[C@]3(C)[C@H](C(O)C(OCC=C(C)C)[C@@H]4[C@@]5(C)CC[C@H](O)C(C)(C)[C@@H]5CC[C@]43C)[C@@H]12

>  <standard_inchi>  (481) 
InChI=1S/C35H58O3/c1-21(2)14-20-38-29-28(37)27-26-23(22(3)4)11-15-32(26,7)18-19-34(27,9)35(10)17-12-24-31(5,6)25(36)13-16-33(24,8)30(29)35/h14,23-30,36-37H,3,11-13,15-20H2,1-2,4-10H3/t23-,24-,25-,26+,27-,28?,29?,30+,32+,33-,34+,35+/m0/s1

>  <standard_inchi_key>  (481) 
BOTQDELCOMXUBC-WZHGVYGPSA-N

>  <name>  (481) 
nan

>  <iupac_name>  (481) 
(1~{R},3~{a}~{R},5~{a}~{R},5~{b}~{R},7~{a}~{R},9~{S},11~{a}~{S},11~{b}~{R},13~{a}~{R},13~{b}~{R})-1-isopropenyl-3~{a},5~{a},5~{b},8,8,11~{a}-hexamethyl-12-(3-methylbut-2-enoxy)-1,2,3,4,5,6,7,7~{a},9,10,11,11~{b},12,13,13~{a},13~{b}-hexadecahydrocyclopenta[a]chrysene-9,13-diol

>  <annotation_level>  (481) 
4

>  <total_atom_count>  (481) 
96

>  <heavy_atom_count>  (481) 
38

>  <molecular_weight>  (481) 
526.85

>  <exact_molecular_weight>  (481) 
526.4386

>  <molecular_formula>  (481) 
C35H58O3

>  <alogp>  (481) 
7.96

>  <topological_polar_surface_area>  (481) 
49.69

>  <rotatable_bond_count>  (481) 
4

>  <hydrogen_bond_acceptors>  (481) 
3

>  <hydrogen_bond_donors>  (481) 
2

>  <hydrogen_bond_acceptors_lipinski>  (481) 
3

>  <hydrogen_bond_donors_lipinski>  (481) 
2

>  <lipinski_rule_of_five_violations>  (481) 
2

>  <aromatic_rings_count>  (481) 
0

>  <qed_drug_likeliness>  (481) 
0.37

>  <formal_charge>  (481) 
0

>  <fractioncsp3>  (481) 
0.89

>  <number_of_minimal_rings>  (481) 
5

>  <van_der_walls_volume>  (481) 
nan

>  <contains_sugar>  (481) 
False

>  <contains_ring_sugars>  (481) 
False

>  <contains_linear_sugars>  (481) 
False

>  <murcko_framework>  (481) 
C1CCC2C(C1)CCC3C2CCC4C5CCCC5CCC43

>  <np_likeness>  (481) 
2.80

>  <chemical_class>  (481) 
Steroids and steroid derivatives

>  <chemical_sub_class>  (481) 
Hydroxysteroids

>  <chemical_super_class>  (481) 
Lipids and lipid-like molecules

>  <direct_parent_classification>  (481) 
Hydroxysteroids

>  <np_classifier_pathway>  (481) 
Terpenoids

>  <np_classifier_superclass>  (481) 
Triterpenoids

>  <np_classifier_class>  (481) 
Lupane triterpenoids

>  <np_classifier_is_glycoside>  (481) 
False

>  <organisms>  (481) 
Mucor rouxii|Rhizopus arrhizus

>  <collections>  (481) 
Latin America dataset|NuBBEDB|WikiData Natural Products

>  <dois>  (481) 
10.3390/MOLECULES15096140|10.3390/molecules15096140

>  <synonyms>  (481) 
Lupeol derivative 5

>  <cas>  (481) 
nan

$$$$

     RDKit          2D

 21 23  0  0  0  0  0  0  0  0999 V2000
   -5.2398   -1.7258    0.0000 C   0  0  0  0  0  0  0  0  0  0  0  0
   -3.7412   -1.7894    0.0000 C   0  0  0  0  0  0  0  0  0  0  0  0
   -2.9367   -0.5234    0.0000 C   0  0  0  0  0  0  0  0  0  0  0  0
   -3.6309    0.8063    0.0000 C   0  0  0  0  0  0  0  0  0  0  0  0
   -5.1296    0.8700    0.0000 C   0  0  0  0  0  0  0  0  0  0  0  0
   -2.8265    2.0724    0.0000 C   0  0  0  0  0  0  0  0  0  0  0  0
   -1.3278    2.0087    0.0000 C   0  0  0  0  0  0  0  0  0  0  0  0
   -0.6336    0.6790    0.0000 C   0  0  0  0  0  0  0  0  0  0  0  0
   -1.4381   -0.5870    0.0000 C   0  0  0  0  0  0  0  0  0  0  0  0
   -0.7439   -1.9167    0.0000 C   0  0  0  0  0  0  0  0  0  0  0  0
    0.7548   -1.9804    0.0000 C   0  0  0  0  0  0  0  0  0  0  0  0
    1.5592   -0.7143    0.0000 C   0  0  0  0  0  0  0  0  0  0  0  0
    3.0579   -0.7780    0.0000 C   0  0  0  0  0  0  0  0  0  0  0  0
    4.4444   -1.3504    0.0000 C   0  0  0  0  0  0  0  0  0  0  0  0
    2.7349   -2.2428    0.0000 C   0  0  0  0  0  0  0  0  0  0  0  0
    3.8623    0.4880    0.0000 C   0  0  0  0  0  0  0  0  0  0  0  0
    5.3610    0.4244    0.0000 O   0  0  0  0  0  0  0  0  0  0  0  0
    3.1681    1.8177    0.0000 C   0  0  0  0  0  0  0  0  0  0  0  0
    1.6695    1.8814    0.0000 C   0  0  0  0  0  0  0  0  0  0  0  0
    0.8650    0.6153    0.0000 C   0  0  0  0  0  0  0  0  0  0  0  0
    0.1708    1.9450    0.0000 C   0  0  0  0  0  0  0  0  0  0  0  0
  1  2  1  0
  2  3  1  0
  3  4  2  0
  4  5  1  0
  4  6  1  0
  6  7  2  0
  7  8  1  0
  8  9  2  0
  9 10  1  0
 10 11  1  0
 12 11  1  6
 12 13  1  0
 13 14  1  0
 13 15  1  0
 13 16  1  0
 16 17  1  6
 16 18  1  0
 18 19  1  0
 19 20  1  0
 20 21  1  6
  9  3  1  0
 20 12  1  0
 20  8  1  0
M  END
>  <identifier>  (482) 
CNP0080659.1

>  <canonical_smiles>  (482) 
CCC1=C(C)C=CC2=C1CC[C@H]1C(C)(C)[C@@H](O)CC[C@]21C

>  <standard_inchi>  (482) 
InChI=1S/C20H30O/c1-6-14-13(2)7-9-16-15(14)8-10-17-19(3,4)18(21)11-12-20(16,17)5/h7,9,17-18,21H,6,8,10-12H2,1-5H3/t17-,18-,20+/m0/s1

>  <standard_inchi_key>  (482) 
NUHBHAAXQHHOMG-CMKODMSKSA-N

>  <name>  (482) 
nan

>  <iupac_name>  (482) 
(2~{S},4~{a}~{S},10~{a}~{R})-8-ethyl-1,1,4~{a},7-tetramethyl-2,3,4,9,10,10~{a}-hexahydrophenanthren-2-ol

>  <annotation_level>  (482) 
4

>  <total_atom_count>  (482) 
51

>  <heavy_atom_count>  (482) 
21

>  <molecular_weight>  (482) 
286.46

>  <exact_molecular_weight>  (482) 
286.22967

>  <molecular_formula>  (482) 
C20H30O

>  <alogp>  (482) 
4.56

>  <topological_polar_surface_area>  (482) 
20.23

>  <rotatable_bond_count>  (482) 
1

>  <hydrogen_bond_acceptors>  (482) 
1

>  <hydrogen_bond_donors>  (482) 
1

>  <hydrogen_bond_acceptors_lipinski>  (482) 
1

>  <hydrogen_bond_donors_lipinski>  (482) 
1

>  <lipinski_rule_of_five_violations>  (482) 
0

>  <aromatic_rings_count>  (482) 
1

>  <qed_drug_likeliness>  (482) 
0.80

>  <formal_charge>  (482) 
0

>  <fractioncsp3>  (482) 
0.70

>  <number_of_minimal_rings>  (482) 
3

>  <van_der_walls_volume>  (482) 
nan

>  <contains_sugar>  (482) 
False

>  <contains_ring_sugars>  (482) 
False

>  <contains_linear_sugars>  (482) 
False

>  <murcko_framework>  (482) 
c1ccc2c(c1)CCC3CCCCC23

>  <np_likeness>  (482) 
2.13

>  <chemical_class>  (482) 
Prenol lipids

>  <chemical_sub_class>  (482) 
Diterpenoids

>  <chemical_super_class>  (482) 
Lipids and lipid-like molecules

>  <direct_parent_classification>  (482) 
Diterpenoids

>  <np_classifier_pathway>  (482) 
Terpenoids

>  <np_classifier_superclass>  (482) 
Diterpenoids

>  <np_classifier_class>  (482) 
Cleistanthane diterpenoids

>  <np_classifier_is_glycoside>  (482) 
False

>  <organisms>  (482) 
Vellozia piresiana

>  <collections>  (482) 
Latin America dataset|NuBBEDB|WikiData Natural Products

>  <dois>  (482) 
10.1016/S0031-9422(00)80444-6

>  <synonyms>  (482) 
81113-cleistanthatrien-3\u221a\u00e9\u00ac\u2264-ol

>  <cas>  (482) 
nan

$$$$

     RDKit          2D

 24 26  0  0  0  0  0  0  0  0999 V2000
   -0.8263   -4.9800    0.0000 C   0  0  0  0  0  0  0  0  0  0  0  0
    0.2653   -3.9512    0.0000 C   0  0  0  0  0  0  0  0  0  0  0  0
   -0.0798   -2.4915    0.0000 C   0  0  0  0  0  0  0  0  0  0  0  0
    1.0118   -1.4627    0.0000 C   0  0  0  0  0  0  0  0  0  0  0  0
    0.6666   -0.0029    0.0000 C   0  0  0  0  0  0  0  0  0  0  0  0
    1.7582    1.0258    0.0000 C   0  0  0  0  0  0  0  0  0  0  0  0
    1.4131    2.4856    0.0000 C   0  0  0  0  0  0  0  0  0  0  0  0
    2.5047    3.5144    0.0000 C   0  0  0  0  0  0  0  0  0  0  0  0
   -0.0236    2.9166    0.0000 C   0  0  0  0  0  0  0  0  0  0  0  0
   -1.1153    1.8878    0.0000 C   0  0  0  0  0  0  0  0  0  0  0  0
   -0.7701    0.4280    0.0000 C   0  0  0  0  0  0  0  0  0  0  0  0
   -1.8617   -0.6007    0.0000 C   0  0  0  0  0  0  0  0  0  0  0  0
   -3.2985   -0.1698    0.0000 C   0  0  0  0  0  0  0  0  0  0  0  0
   -4.5801   -0.9491    0.0000 O   0  0  0  0  0  0  0  0  0  0  0  0
   -5.7174    0.0290    0.0000 C   0  0  0  0  0  0  0  0  0  0  0  0
   -5.1386    1.4128    0.0000 O   0  0  0  0  0  0  0  0  0  0  0  0
   -3.6436    1.2900    0.0000 C   0  0  0  0  0  0  0  0  0  0  0  0
   -2.5520    2.3188    0.0000 C   0  0  0  0  0  0  0  0  0  0  0  0
    3.1950    0.5949    0.0000 C   0  0  0  0  0  0  0  0  0  0  0  0
    4.2866    1.6236    0.0000 O   0  0  0  0  0  0  0  0  0  0  0  0
    5.7234    1.1927    0.0000 C   0  0  0  0  0  0  0  0  0  0  0  0
    3.5401   -0.8649    0.0000 C   0  0  0  0  0  0  0  0  0  0  0  0
    2.4485   -1.8937    0.0000 C   0  0  0  0  0  0  0  0  0  0  0  0
    2.7937   -3.3534    0.0000 O   0  0  0  0  0  0  0  0  0  0  0  0
  1  2  2  0
  2  3  1  0
  3  4  1  0
  4  5  2  0
  5  6  1  0
  6  7  1  0
  7  8  1  1
  7  9  1  0
  9 10  1  0
 10 11  2  0
 11 12  1  0
 12 13  2  0
 13 14  1  0
 14 15  1  0
 15 16  1  0
 16 17  1  0
 17 18  2  0
  6 19  2  0
 19 20  1  0
 20 21  1  0
 19 22  1  0
 22 23  2  0
 23 24  1  0
 23  4  1  0
 18 10  1  0
 17 13  1  0
M  END
>  <identifier>  (483) 
CNP0269552.1

>  <canonical_smiles>  (483) 
C=CCC1=CC([C@H](C)CC2=CC=C3OCOC3=C2)=C(OC)C=C1O

>  <standard_inchi>  (483) 
InChI=1S/C20H22O4/c1-4-5-15-10-16(19(22-3)11-17(15)21)13(2)8-14-6-7-18-20(9-14)24-12-23-18/h4,6-7,9-11,13,21H,1,5,8,12H2,2-3H3/t13-/m1/s1

>  <standard_inchi_key>  (483) 
XWOKJVMBGVZLKA-CYBMUJFWSA-N

>  <name>  (483) 
nan

>  <iupac_name>  (483) 
2-allyl-4-[(1~{R})-2-(1,3-benzodioxol-5-yl)-1-methyl-ethyl]-5-methoxy-phenol

>  <annotation_level>  (483) 
4

>  <total_atom_count>  (483) 
46

>  <heavy_atom_count>  (483) 
24

>  <molecular_weight>  (483) 
326.39

>  <exact_molecular_weight>  (483) 
326.15181

>  <molecular_formula>  (483) 
C20H22O4

>  <alogp>  (483) 
4.20

>  <topological_polar_surface_area>  (483) 
47.92

>  <rotatable_bond_count>  (483) 
6

>  <hydrogen_bond_acceptors>  (483) 
4

>  <hydrogen_bond_donors>  (483) 
1

>  <hydrogen_bond_acceptors_lipinski>  (483) 
4

>  <hydrogen_bond_donors_lipinski>  (483) 
1

>  <lipinski_rule_of_five_violations>  (483) 
0

>  <aromatic_rings_count>  (483) 
2

>  <qed_drug_likeliness>  (483) 
0.81

>  <formal_charge>  (483) 
0

>  <fractioncsp3>  (483) 
0.30

>  <number_of_minimal_rings>  (483) 
3

>  <van_der_walls_volume>  (483) 
nan

>  <contains_sugar>  (483) 
False

>  <contains_ring_sugars>  (483) 
False

>  <contains_linear_sugars>  (483) 
False

>  <murcko_framework>  (483) 
O1c2ccc(cc2OC1)CCc3ccccc3

>  <np_likeness>  (483) 
0.78

>  <chemical_class>  (483) 
Stilbenes

>  <chemical_sub_class>  (483) 
Stilbenes

>  <chemical_super_class>  (483) 
Phenylpropanoids and polyketides

>  <direct_parent_classification>  (483) 
Stilbenes

>  <np_classifier_pathway>  (483) 
Shikimates and Phenylpropanoids

>  <np_classifier_superclass>  (483) 
Lignans

>  <np_classifier_class>  (483) 
Neolignans

>  <np_classifier_is_glycoside>  (483) 
False

>  <organisms>  (483) 
Aniba lancifolia

>  <collections>  (483) 
Latin America dataset|NuBBEDB|WikiData Natural Products|ZINC NP

>  <dois>  (483) 
10.1016/S0031-9422(00)81975-5

>  <synonyms>  (483) 
(8R)-\u221a\u00e9\u201a\u00c4\u00f9(8')-6'-Hydroxy-4'-methoxy-34-methylenedioxy-8.3'-neolignan

>  <cas>  (483) 
nan

$$$$

     RDKit          2D

 35 38  0  0  0  0  0  0  0  0999 V2000
   -0.8005    5.6434    0.0000 C   0  0  0  0  0  0  0  0  0  0  0  0
   -0.5659    4.1619    0.0000 C   0  0  0  0  0  0  0  0  0  0  0  0
    0.8344    3.6243    0.0000 C   0  0  0  0  0  0  0  0  0  0  0  0
    2.0002    4.5682    0.0000 O   0  0  0  0  0  0  0  0  0  0  0  0
    1.0690    2.1427    0.0000 C   0  0  0  0  0  0  0  0  0  0  0  0
    2.5289    2.4874    0.0000 C   0  0  0  0  0  0  0  0  0  0  0  0
    3.9937    2.1645    0.0000 C   0  0  0  0  0  0  0  0  0  0  0  0
    5.1734    1.2380    0.0000 C   0  0  0  0  0  0  0  0  0  0  0  0
    5.8343   -0.1085    0.0000 C   0  0  0  0  0  0  0  0  0  0  0  0
    7.2941    0.2361    0.0000 C   0  0  0  0  0  0  0  0  0  0  0  0
    5.8454   -1.6085    0.0000 C   0  0  0  0  0  0  0  0  0  0  0  0
    5.2047   -2.9647    0.0000 C   0  0  0  0  0  0  0  0  0  0  0  0
    4.0389   -3.9087    0.0000 C   0  0  0  0  0  0  0  0  0  0  0  0
    2.5791   -4.2534    0.0000 C   0  0  0  0  0  0  0  0  0  0  0  0
    2.5902   -5.7533    0.0000 O   0  0  0  0  0  0  0  0  0  0  0  0
    1.1142   -3.9305    0.0000 C   0  0  0  0  0  0  0  0  0  0  0  0
   -0.0654   -3.0040    0.0000 C   0  0  0  0  0  0  0  0  0  0  0  0
   -0.7263   -1.6574    0.0000 C   0  0  0  0  0  0  0  0  0  0  0  0
   -2.1862   -2.0021    0.0000 O   0  0  0  0  0  0  0  0  0  0  0  0
   -0.7375   -0.1575    0.0000 O   0  0  0  0  0  0  0  0  0  0  0  0
   -0.0967    1.1988    0.0000 C   0  0  0  0  0  0  0  0  0  0  0  0
   -0.3011    1.7127    0.0000 C   0  0  0  0  0  0  0  0  0  0  0  0
    0.9904   -1.2432    0.0000 O   0  0  0  0  0  0  0  0  0  0  0  0
   -0.8716    1.2732    0.0000 N   0  0  0  0  0  0  0  0  0  0  0  0
   -1.0013    1.9815    0.0000 C   0  0  0  0  0  0  0  0  0  0  0  0
   -3.9391    0.6493    0.0000 C   0  0  0  0  0  0  0  0  0  0  0  0
   -4.7561   -0.6087    0.0000 C   0  0  0  0  0  0  0  0  0  0  0  0
   -6.2540   -0.5302    0.0000 C   0  0  0  0  0  0  0  0  0  0  0  0
   -7.0710   -1.7881    0.0000 C   0  0  0  0  0  0  0  0  0  0  0  0
   -6.3901   -3.1247    0.0000 C   0  0  0  0  0  0  0  0  0  0  0  0
   -4.8921   -3.2032    0.0000 C   0  0  0  0  0  0  0  0  0  0  0  0
   -4.0751   -1.9452    0.0000 C   0  0  0  0  0  0  0  0  0  0  0  0
   -1.4971    1.7364    0.0000 C   0  0  0  0  0  0  0  0  0  0  0  0
   -1.7317    3.2179    0.0000 C   0  0  0  0  0  0  0  0  0  0  0  0
   -3.1320    3.7555    0.0000 C   0  0  0  0  0  0  0  0  0  0  0  0
  1  2  2  0
  2  3  1  0
  3  4  1  1
  3  5  1  0
  5  6  1  0
  6  7  2  3
  7  8  1  0
  8  9  1  0
  9 10  1  1
  9 11  1  0
 11 12  1  0
 12 13  1  0
 13 14  1  0
 14 15  1  1
 14 16  1  0
 16 17  2  3
 17 18  1  0
 18 19  2  0
 18 20  1  0
 20 21  1  0
 21 22  1  0
 22 23  2  0
 22 24  1  0
 24 25  1  0
 25 26  1  6
 26 27  1  0
 27 28  2  0
 28 29  1  0
 29 30  2  0
 30 31  1  0
 31 32  2  0
 25 33  1  0
 33 34  1  0
 34 35  1  1
 34  2  1  0
 21  5  1  0
 32 27  1  0
 33 21  1  1
M  END
>  <identifier>  (484) 
CNP0203321.4

>  <canonical_smiles>  (484) 
C=C1[C@@H](O)C2C=CC[C@@H](C)CCC[C@@H](O)C=CC(=O)OC23C(=O)N[C@@H](CC2=CC=CC=C2)[C@@H]3[C@H]1C

>  <standard_inchi>  (484) 
InChI=1S/C29H37NO5/c1-18-9-7-13-22(31)15-16-25(32)35-29-23(14-8-10-18)27(33)20(3)19(2)26(29)24(30-28(29)34)17-21-11-5-4-6-12-21/h4-6,8,11-12,14-16,18-19,22-24,26-27,31,33H,3,7,9-10,13,17H2,1-2H3,(H,30,34)/t18-,19-,22+,23?,24-,26-,27+,29?/m0/s1

>  <standard_inchi_key>  (484) 
GBOGMAARMMDZGR-XVIHTYQUSA-N

>  <name>  (484) 
Cytochalasin B

>  <iupac_name>  (484) 
(6~{R},10~{S},15~{S},17~{R},18~{S},19~{S})-19-benzyl-6,15-dihydroxy-10,17-dimethyl-16-methylene-2-oxa-20-azatricyclo[12.7.0.0^{1,18}]henicosa-4,12-diene-3,21-dione

>  <annotation_level>  (484) 
5

>  <total_atom_count>  (484) 
72

>  <heavy_atom_count>  (484) 
35

>  <molecular_weight>  (484) 
479.62

>  <exact_molecular_weight>  (484) 
479.26717

>  <molecular_formula>  (484) 
C29H37NO5

>  <alogp>  (484) 
3.49

>  <topological_polar_surface_area>  (484) 
95.86

>  <rotatable_bond_count>  (484) 
2

>  <hydrogen_bond_acceptors>  (484) 
5

>  <hydrogen_bond_donors>  (484) 
3

>  <hydrogen_bond_acceptors_lipinski>  (484) 
5

>  <hydrogen_bond_donors_lipinski>  (484) 
3

>  <lipinski_rule_of_five_violations>  (484) 
0

>  <aromatic_rings_count>  (484) 
1

>  <qed_drug_likeliness>  (484) 
0.45

>  <formal_charge>  (484) 
0

>  <fractioncsp3>  (484) 
0.52

>  <number_of_minimal_rings>  (484) 
4

>  <van_der_walls_volume>  (484) 
nan

>  <contains_sugar>  (484) 
False

>  <contains_ring_sugars>  (484) 
False

>  <contains_linear_sugars>  (484) 
False

>  <murcko_framework>  (484) 
O1CC=CCCCCCCC=CC2CCCC3C(NCC123)Cc4ccccc4

>  <np_likeness>  (484) 
2.68

>  <chemical_class>  (484) 
Cytochalasans

>  <chemical_sub_class>  (484) 
Cytochalasins

>  <chemical_super_class>  (484) 
Alkaloids and derivatives

>  <direct_parent_classification>  (484) 
Cytochalasins

>  <np_classifier_pathway>  (484) 
Alkaloids

>  <np_classifier_superclass>  (484) 
Pseudoalkaloids

>  <np_classifier_class>  (484) 
Cytochalasan alkaloids

>  <np_classifier_is_glycoside>  (484) 
False

>  <organisms>  (484) 
Xylaria|Xylaria sp.

>  <collections>  (484) 
Latin America dataset|NuBBEDB|WikiData Natural Products

>  <dois>  (484) 
10.1590/S0100-40422005000600011

>  <synonyms>  (484) 
Cytochalasin B

>  <cas>  (484) 
nan

$$$$

     RDKit          2D

 17 18  0  0  0  0  0  0  0  0999 V2000
   -5.9354    0.3784    0.0000 C   0  0  0  0  0  0  0  0  0  0  0  0
   -4.4925    0.7885    0.0000 O   0  0  0  0  0  0  0  0  0  0  0  0
   -3.4159   -0.2560    0.0000 C   0  0  0  0  0  0  0  0  0  0  0  0
   -3.7822   -1.7106    0.0000 O   0  0  0  0  0  0  0  0  0  0  0  0
   -1.9731    0.1541    0.0000 C   0  0  0  0  0  0  0  0  0  0  0  0
   -1.6068    1.6087    0.0000 C   0  0  0  0  0  0  0  0  0  0  0  0
   -0.1640    2.0188    0.0000 C   0  0  0  0  0  0  0  0  0  0  0  0
    0.9126    0.9744    0.0000 C   0  0  0  0  0  0  0  0  0  0  0  0
    2.3554    1.3845    0.0000 O   0  0  0  0  0  0  0  0  0  0  0  0
    3.4320    0.3400    0.0000 C   0  0  0  0  0  0  0  0  0  0  0  0
    4.8009   -0.2733    0.0000 C   0  0  0  0  0  0  0  0  0  0  0  0
    4.2737    1.5816    0.0000 C   0  0  0  0  0  0  0  0  0  0  0  0
    3.0658   -1.1146    0.0000 C   0  0  0  0  0  0  0  0  0  0  0  0
    1.6229   -1.5247    0.0000 C   0  0  0  0  0  0  0  0  0  0  0  0
    1.2567   -2.9793    0.0000 O   0  0  0  0  0  0  0  0  0  0  0  0
    0.5463   -0.4802    0.0000 C   0  0  0  0  0  0  0  0  0  0  0  0
   -0.8965   -0.8903    0.0000 C   0  0  0  0  0  0  0  0  0  0  0  0
  1  2  1  0
  2  3  1  0
  3  4  2  0
  3  5  1  0
  5  6  2  0
  6  7  1  0
  7  8  2  0
  8  9  1  0
  9 10  1  0
 10 11  1  0
 10 12  1  0
 10 13  1  0
 13 14  1  0
 14 15  2  0
 14 16  1  0
 16 17  2  0
 17  5  1  0
 16  8  1  0
M  END
>  <identifier>  (485) 
CNP0341294.0

>  <canonical_smiles>  (485) 
COC(=O)C1=CC=C2OC(C)(C)CC(=O)C2=C1

>  <standard_inchi>  (485) 
InChI=1S/C13H14O4/c1-13(2)7-10(14)9-6-8(12(15)16-3)4-5-11(9)17-13/h4-6H,7H2,1-3H3

>  <standard_inchi_key>  (485) 
PWXLOONQXYGPGC-UHFFFAOYSA-N

>  <name>  (485) 
methyl 2,2-dimethyl-4-oxochroman-6-carboxylate

>  <iupac_name>  (485) 
methyl 2,2-dimethyl-4-oxo-chromane-6-carboxylate

>  <annotation_level>  (485) 
5

>  <total_atom_count>  (485) 
31

>  <heavy_atom_count>  (485) 
17

>  <molecular_weight>  (485) 
234.25

>  <exact_molecular_weight>  (485) 
234.08921

>  <molecular_formula>  (485) 
C13H14O4

>  <alogp>  (485) 
2.22

>  <topological_polar_surface_area>  (485) 
52.60

>  <rotatable_bond_count>  (485) 
1

>  <hydrogen_bond_acceptors>  (485) 
4

>  <hydrogen_bond_donors>  (485) 
0

>  <hydrogen_bond_acceptors_lipinski>  (485) 
4

>  <hydrogen_bond_donors_lipinski>  (485) 
0

>  <lipinski_rule_of_five_violations>  (485) 
0

>  <aromatic_rings_count>  (485) 
1

>  <qed_drug_likeliness>  (485) 
0.70

>  <formal_charge>  (485) 
0

>  <fractioncsp3>  (485) 
0.39

>  <number_of_minimal_rings>  (485) 
2

>  <van_der_walls_volume>  (485) 
212.35

>  <contains_sugar>  (485) 
False

>  <contains_ring_sugars>  (485) 
False

>  <contains_linear_sugars>  (485) 
False

>  <murcko_framework>  (485) 
O1c2ccccc2CCC1

>  <np_likeness>  (485) 
0.43

>  <chemical_class>  (485) 
Benzopyrans

>  <chemical_sub_class>  (485) 
1-benzopyrans

>  <chemical_super_class>  (485) 
Organoheterocyclic compounds

>  <direct_parent_classification>  (485) 
2,2-dimethyl-1-benzopyrans

>  <np_classifier_pathway>  (485) 
Terpenoids

>  <np_classifier_superclass>  (485) 
Meroterpenoids

>  <np_classifier_class>  (485) 
Merohemiterpenoids

>  <np_classifier_is_glycoside>  (485) 
False

>  <organisms>  (485) 
Piper dilatatum|Piper gaudichaudianum|Piper pseudofuligineum|Piper taboganum

>  <collections>  (485) 
ChemSpider NPs|Latin America dataset|NuBBEDB|Super Natural II|UNPD (Universal Natural Products Database)|WikiData Natural Products|ZINC NP

>  <dois>  (485) 
10.1016/0031-9422(90)85016-9|10.1016/S0031-9422(98)00197-6|10.1021/NP030530J|10.1021/np030530j

>  <synonyms>  (485) 
2,2-dimethyl-6-carbomethoxychroman-4-one|78507-90-1|A915092|AC6820|AKOS027421036|DB-343233|MFCD17215742|Methyl 22-dimethyl-1-oxo-2H-1-benzopyran-6-carboxylate|Methyl2,2-Dimethyl-4-oxochroman-6-carboxylate|PWXLOONQXYGPGC-UHFFFAOYSA-N|SCHEMBL670503|SY224728|methyl 2,2-dimethyl-4-oxo-3,4-dihydro-2H-chromene-6-carboxylate|methyl 2,2-dimethyl-4-oxo-3H-chromene-6-carboxylate

>  <cas>  (485) 
78507-90-1

$$$$

     RDKit          2D

 26 27  0  0  0  0  0  0  0  0999 V2000
   -6.6693    2.7352    0.0000 C   0  0  0  0  0  0  0  0  0  0  0  0
   -6.2476    1.2957    0.0000 C   0  0  0  0  0  0  0  0  0  0  0  0
   -7.2834    0.2107    0.0000 C   0  0  0  0  0  0  0  0  0  0  0  0
   -4.7901    0.9412    0.0000 C   0  0  0  0  0  0  0  0  0  0  0  0
   -4.3684   -0.4983    0.0000 C   0  0  0  0  0  0  0  0  0  0  0  0
   -2.9109   -0.8528    0.0000 C   0  0  0  0  0  0  0  0  0  0  0  0
   -2.4891   -2.2923    0.0000 C   0  0  0  0  0  0  0  0  0  0  0  0
   -2.0674   -3.7318    0.0000 C   0  0  0  0  0  0  0  0  0  0  0  0
   -3.9286   -2.7140    0.0000 O   0  0  0  0  0  0  0  0  0  0  0  0
   -1.0496   -1.8706    0.0000 C   0  0  0  0  0  0  0  0  0  0  0  0
    0.1377   -2.7873    0.0000 C   0  0  0  0  0  0  0  0  0  0  0  0
    1.3764   -1.9413    0.0000 C   0  0  0  0  0  0  0  0  0  0  0  0
    2.8339   -2.2958    0.0000 C   0  0  0  0  0  0  0  0  0  0  0  0
    3.8697   -1.2109    0.0000 C   0  0  0  0  0  0  0  0  0  0  0  0
    5.3272   -1.5654    0.0000 C   0  0  0  0  0  0  0  0  0  0  0  0
    6.3629   -0.4804    0.0000 O   0  0  0  0  0  0  0  0  0  0  0  0
    5.7489   -3.0049    0.0000 O   0  0  0  0  0  0  0  0  0  0  0  0
    3.4479    0.2286    0.0000 C   0  0  0  0  0  0  0  0  0  0  0  0
    1.9904    0.5831    0.0000 C   0  0  0  0  0  0  0  0  0  0  0  0
    1.5687    2.0226    0.0000 C   0  0  0  0  0  0  0  0  0  0  0  0
    2.6045    3.1076    0.0000 C   0  0  0  0  0  0  0  0  0  0  0  0
    2.1827    4.5471    0.0000 C   0  0  0  0  0  0  0  0  0  0  0  0
    3.2185    5.6321    0.0000 C   0  0  0  0  0  0  0  0  0  0  0  0
    0.7252    4.9016    0.0000 C   0  0  0  0  0  0  0  0  0  0  0  0
    0.9546   -0.5018    0.0000 C   0  0  0  0  0  0  0  0  0  0  0  0
   -0.5447   -0.4581    0.0000 O   0  0  0  0  0  0  0  0  0  0  0  0
  1  2  1  0
  2  3  1  0
  2  4  2  0
  4  5  1  0
  5  6  1  0
  6  7  1  0
  7  8  1  6
  7  9  1  0
  7 10  1  0
 10 11  1  1
 11 12  1  0
 12 13  2  0
 13 14  1  0
 14 15  1  0
 15 16  2  0
 15 17  1  0
 14 18  2  0
 18 19  1  0
 19 20  1  0
 20 21  1  0
 21 22  2  0
 22 23  1  0
 22 24  1  0
 19 25  2  0
 25 26  1  0
 26 10  1  0
 25 12  1  0
M  END
>  <identifier>  (486) 
CNP0169484.1

>  <canonical_smiles>  (486) 
CC(C)=CCC[C@](C)(O)[C@@H]1CC2=CC(C(=O)O)=CC(CC=C(C)C)=C2O1

>  <standard_inchi>  (486) 
InChI=1S/C22H30O4/c1-14(2)7-6-10-22(5,25)19-13-17-12-18(21(23)24)11-16(20(17)26-19)9-8-15(3)4/h7-8,11-12,19,25H,6,9-10,13H2,1-5H3,(H,23,24)/t19-,22-/m0/s1

>  <standard_inchi_key>  (486) 
GZLIPAFSJXROEC-UGKGYDQZSA-N

>  <name>  (486) 
nan

>  <iupac_name>  (486) 
(2~{S})-2-[(1~{S})-1-hydroxy-1,5-dimethyl-hex-4-enyl]-7-(3-methylbut-2-enyl)-2,3-dihydrobenzofuran-5-carboxylic acid

>  <annotation_level>  (486) 
4

>  <total_atom_count>  (486) 
56

>  <heavy_atom_count>  (486) 
26

>  <molecular_weight>  (486) 
358.48

>  <exact_molecular_weight>  (486) 
358.21441

>  <molecular_formula>  (486) 
C22H30O4

>  <alogp>  (486) 
4.69

>  <topological_polar_surface_area>  (486) 
66.76

>  <rotatable_bond_count>  (486) 
7

>  <hydrogen_bond_acceptors>  (486) 
3

>  <hydrogen_bond_donors>  (486) 
2

>  <hydrogen_bond_acceptors_lipinski>  (486) 
3

>  <hydrogen_bond_donors_lipinski>  (486) 
2

>  <lipinski_rule_of_five_violations>  (486) 
0

>  <aromatic_rings_count>  (486) 
1

>  <qed_drug_likeliness>  (486) 
0.69

>  <formal_charge>  (486) 
0

>  <fractioncsp3>  (486) 
0.50

>  <number_of_minimal_rings>  (486) 
2

>  <van_der_walls_volume>  (486) 
355.33

>  <contains_sugar>  (486) 
False

>  <contains_ring_sugars>  (486) 
False

>  <contains_linear_sugars>  (486) 
False

>  <murcko_framework>  (486) 
O1c2ccccc2CC1

>  <np_likeness>  (486) 
2.25

>  <chemical_class>  (486) 
Coumarans

>  <chemical_sub_class>  (486) 
Coumarans

>  <chemical_super_class>  (486) 
Organoheterocyclic compounds

>  <direct_parent_classification>  (486) 
Coumarans

>  <np_classifier_pathway>  (486) 
Terpenoids

>  <np_classifier_superclass>  (486) 
Diterpenoids

>  <np_classifier_class>  (486) 
nan

>  <np_classifier_is_glycoside>  (486) 
False

>  <organisms>  (486) 
Bidens tripartita|Dictyoloma vandellianum|Geranium pratense|Gymnosporia emarginata|Myrsine seguinii|Rapanea umbellata|Solanum lycopersicum

>  <collections>  (486) 
CMAUP (cCollective molecular activities of useful plants)|Latin America dataset|NPASS|NuBBEDB|Super Natural II|WikiData Natural Products|ZINC NP

>  <dois>  (486) 
10.1016/0031-9422(92)80271-F|10.1271/BBB.66.655

>  <synonyms>  (486) 
Myrsinoic acid B 5-carboxy-7-(33-dimethylallyl)-2-(l-hydroxy-15-dimethylhex-4-enyl)-23-dihydrobenzofuran

>  <cas>  (486) 
nan

$$$$

     RDKit          2D

 31 33  0  0  0  0  0  0  0  0999 V2000
   -3.7221   -4.3254    0.0000 C   0  0  0  0  0  0  0  0  0  0  0  0
   -2.3334   -3.7585    0.0000 O   0  0  0  0  0  0  0  0  0  0  0  0
   -2.1299   -2.2724    0.0000 C   0  0  0  0  0  0  0  0  0  0  0  0
   -3.3151   -1.3531    0.0000 C   0  0  0  0  0  0  0  0  0  0  0  0
   -4.7039   -1.9199    0.0000 O   0  0  0  0  0  0  0  0  0  0  0  0
   -3.1116    0.1330    0.0000 C   0  0  0  0  0  0  0  0  0  0  0  0
   -4.2969    1.0523    0.0000 C   0  0  0  0  0  0  0  0  0  0  0  0
   -4.0934    2.5385    0.0000 C   0  0  0  0  0  0  0  0  0  0  0  0
   -5.2787    3.4578    0.0000 C   0  0  0  0  0  0  0  0  0  0  0  0
   -5.0752    4.9439    0.0000 C   0  0  0  0  0  0  0  0  0  0  0  0
   -6.6675    2.8909    0.0000 C   0  0  0  0  0  0  0  0  0  0  0  0
   -1.7229    0.6999    0.0000 C   0  0  0  0  0  0  0  0  0  0  0  0
   -1.5194    2.1860    0.0000 O   0  0  0  0  0  0  0  0  0  0  0  0
   -0.5376   -0.2194    0.0000 C   0  0  0  0  0  0  0  0  0  0  0  0
   -0.7411   -1.7056    0.0000 C   0  0  0  0  0  0  0  0  0  0  0  0
    0.4442   -2.6248    0.0000 N   0  0  0  0  0  0  0  0  0  0  0  0
    0.2407   -4.1110    0.0000 C   0  0  0  0  0  0  0  0  0  0  0  0
    1.8330   -2.0580    0.0000 C   0  0  0  0  0  0  0  0  0  0  0  0
    3.0183   -2.9773    0.0000 C   0  0  0  0  0  0  0  0  0  0  0  0
    2.8148   -4.4634    0.0000 O   0  0  0  0  0  0  0  0  0  0  0  0
    4.4070   -2.4105    0.0000 C   0  0  0  0  0  0  0  0  0  0  0  0
    4.6105   -0.9243    0.0000 C   0  0  0  0  0  0  0  0  0  0  0  0
    3.4252   -0.0050    0.0000 C   0  0  0  0  0  0  0  0  0  0  0  0
    3.6287    1.4811    0.0000 C   0  0  0  0  0  0  0  0  0  0  0  0
    5.0175    2.0479    0.0000 C   0  0  0  0  0  0  0  0  0  0  0  0
    5.2210    3.5341    0.0000 C   0  0  0  0  0  0  0  0  0  0  0  0
    6.6098    4.1009    0.0000 C   0  0  0  0  0  0  0  0  0  0  0  0
    4.0357    4.4534    0.0000 C   0  0  0  0  0  0  0  0  0  0  0  0
    2.0365   -0.5719    0.0000 C   0  0  0  0  0  0  0  0  0  0  0  0
    0.8512    0.3474    0.0000 C   0  0  0  0  0  0  0  0  0  0  0  0
    1.0547    1.8335    0.0000 O   0  0  0  0  0  0  0  0  0  0  0  0
  1  2  1  0
  2  3  1  0
  3  4  2  0
  4  5  1  0
  4  6  1  0
  6  7  1  0
  7  8  1  0
  8  9  2  0
  9 10  1  0
  9 11  1  0
  6 12  2  0
 12 13  1  0
 12 14  1  0
 14 15  2  0
 15 16  1  0
 16 17  1  0
 16 18  1  0
 18 19  2  0
 19 20  1  0
 19 21  1  0
 21 22  2  0
 22 23  1  0
 23 24  1  0
 24 25  1  0
 25 26  2  0
 26 27  1  0
 26 28  1  0
 23 29  2  0
 29 30  1  0
 30 31  2  0
 15  3  1  0
 29 18  1  0
 30 14  1  0
M  END
>  <identifier>  (487) 
CNP0163359.0

>  <canonical_smiles>  (487) 
COC1=C(O)C(CC=C(C)C)=C(O)C2=C1N(C)C1=C(O)C=CC(CC=C(C)C)=C1C2=O

>  <standard_inchi>  (487) 
InChI=1S/C25H29NO5/c1-13(2)7-9-15-10-12-17(27)20-18(15)24(30)19-21(26(20)5)25(31-6)23(29)16(22(19)28)11-8-14(3)4/h7-8,10,12,27-29H,9,11H2,1-6H3

>  <standard_inchi_key>  (487) 
LICNIJQEAUQKSD-UHFFFAOYSA-N

>  <name>  (487) 
1,3,5-trihydroxy-4-methoxy-10-methyl-2,8-bis(3-methylbut-2-enyl)acridin-9-one

>  <iupac_name>  (487) 
1,3,5-trihydroxy-4-methoxy-10-methyl-2,8-bis(3-methylbut-2-enyl)acridin-9-one

>  <annotation_level>  (487) 
5

>  <total_atom_count>  (487) 
60

>  <heavy_atom_count>  (487) 
31

>  <molecular_weight>  (487) 
423.51

>  <exact_molecular_weight>  (487) 
423.20457

>  <molecular_formula>  (487) 
C25H29NO5

>  <alogp>  (487) 
4.83

>  <topological_polar_surface_area>  (487) 
91.92

>  <rotatable_bond_count>  (487) 
5

>  <hydrogen_bond_acceptors>  (487) 
6

>  <hydrogen_bond_donors>  (487) 
3

>  <hydrogen_bond_acceptors_lipinski>  (487) 
6

>  <hydrogen_bond_donors_lipinski>  (487) 
3

>  <lipinski_rule_of_five_violations>  (487) 
0

>  <aromatic_rings_count>  (487) 
3

>  <qed_drug_likeliness>  (487) 
0.40

>  <formal_charge>  (487) 
0

>  <fractioncsp3>  (487) 
0.32

>  <number_of_minimal_rings>  (487) 
3

>  <van_der_walls_volume>  (487) 
389.97

>  <contains_sugar>  (487) 
False

>  <contains_ring_sugars>  (487) 
False

>  <contains_linear_sugars>  (487) 
False

>  <murcko_framework>  (487) 
c1ccc2c(c1)Nc3ccccc3C2

>  <np_likeness>  (487) 
1.83

>  <chemical_class>  (487) 
Quinolines and derivatives

>  <chemical_sub_class>  (487) 
Benzoquinolines

>  <chemical_super_class>  (487) 
Organoheterocyclic compounds

>  <direct_parent_classification>  (487) 
Acridones

>  <np_classifier_pathway>  (487) 
Alkaloids

>  <np_classifier_superclass>  (487) 
Anthranilic acid alkaloids

>  <np_classifier_class>  (487) 
Acridone alkaloids

>  <np_classifier_is_glycoside>  (487) 
False

>  <organisms>  (487) 
Clematis flammula|Gentiana lactea|Hortia arborea|Korolkowia sewerzowi|Swinglea glutinosa

>  <collections>  (487) 
CMAUP (cCollective molecular activities of useful plants)|Latin America dataset|NPASS|NuBBEDB|Super Natural II|UNPD (Universal Natural Products Database)|WikiData Natural Products

>  <dois>  (487) 
10.1016/J.BMC.2010.12.056|10.1016/j.bmc.2010.12.056

>  <synonyms>  (487) 
1,3,5-Trihydroxy-4-methoxy-10-methyl-2,8-bis(3-methyl-2-buten-1-yl)-9(10H)-acridinone|1,3,5-trihydroxy-4-methoxy-10-methyl-2,8-bis(3-methylbut-2-enyl)acridin-9(10h)-one|935521-55-4|BDBM50336477|CHEMBL1668597|DTXSID601344358

>  <cas>  (487) 
935521-55-4

$$$$

     RDKit          2D

 25 28  0  0  0  0  0  0  0  0999 V2000
   -5.2391    2.1741    0.0000 C   0  0  0  0  0  0  0  0  0  0  0  0
   -4.8339    0.7298    0.0000 C   0  0  0  0  0  0  0  0  0  0  0  0
   -5.8820   -0.3432    0.0000 C   0  0  0  0  0  0  0  0  0  0  0  0
   -3.3806    0.3587    0.0000 C   0  0  0  0  0  0  0  0  0  0  0  0
   -2.3324    1.4317    0.0000 C   0  0  0  0  0  0  0  0  0  0  0  0
   -0.8791    1.0605    0.0000 C   0  0  0  0  0  0  0  0  0  0  0  0
   -0.4739   -0.3837    0.0000 C   0  0  0  0  0  0  0  0  0  0  0  0
   -1.5220   -1.4568    0.0000 C   0  0  0  0  0  0  0  0  0  0  0  0
   -1.1168   -2.9010    0.0000 O   0  0  0  0  0  0  0  0  0  0  0  0
   -2.9753   -1.0856    0.0000 C   0  0  0  0  0  0  0  0  0  0  0  0
   -4.0235   -2.1586    0.0000 O   0  0  0  0  0  0  0  0  0  0  0  0
    0.9795   -0.7549    0.0000 C   0  0  0  0  0  0  0  0  0  0  0  0
    1.3847   -2.1991    0.0000 C   0  0  0  0  0  0  0  0  0  0  0  0
    2.8381   -2.5703    0.0000 C   0  0  0  0  0  0  0  0  0  0  0  0
    3.8862   -1.4973    0.0000 C   0  0  0  0  0  0  0  0  0  0  0  0
    3.4810   -0.0530    0.0000 C   0  0  0  0  0  0  0  0  0  0  0  0
    3.5941    1.4427    0.0000 C   0  0  0  0  0  0  0  0  0  0  0  0
    4.9736    0.0952    0.0000 C   0  0  0  0  0  0  0  0  0  0  0  0
    2.0276    0.3182    0.0000 C   0  0  0  0  0  0  0  0  0  0  0  0
    0.6441    0.7609    0.0000 C   0  0  0  0  0  0  0  0  0  0  0  0
    2.6705    2.8354    0.0000 O   0  0  0  0  0  0  0  0  0  0  0  0
    0.1690    2.1336    0.0000 C   0  0  0  0  0  0  0  0  0  0  0  0
    1.1333    1.2616    0.0000 O   0  0  0  0  0  0  0  0  0  0  0  0
    1.3494    0.4914    0.0000 C   0  0  0  0  0  0  0  0  0  0  0  0
    3.5276    0.3097    0.0000 O   0  0  0  0  0  0  0  0  0  0  0  0
  1  2  1  0
  2  3  1  0
  2  4  1  0
  4  5  2  0
  5  6  1  0
  6  7  2  0
  7  8  1  0
  8  9  1  0
  8 10  2  0
 10 11  1  0
  7 12  1  0
 12 13  1  1
 13 14  1  0
 14 15  1  0
 15 16  1  0
 16 17  1  0
 16 18  1  0
 16 19  1  0
 19 20  1  0
 20 21  1  6
 20 22  1  0
 22 23  1  1
 23 24  1  0
 24 25  2  0
 10  4  1  0
 19 12  1  0
 22  6  1  0
 24 12  1  0
M  END
>  <identifier>  (488) 
CNP0164885.3

>  <canonical_smiles>  (488) 
CC(C)C1=CC2=C(C(O)=C1O)[C@@]13CCCC(C)(C)C1[C@H](O)[C@@H]2OC3=O

>  <standard_inchi>  (488) 
InChI=1S/C20H26O5/c1-9(2)10-8-11-12(14(22)13(10)21)20-7-5-6-19(3,4)17(20)15(23)16(11)25-18(20)24/h8-9,15-17,21-23H,5-7H2,1-4H3/t15-,16-,17?,20+/m1/s1

>  <standard_inchi_key>  (488) 
UXVPWKDITRJELA-CMDBWPPSSA-N

>  <name>  (488) 
93780-80-4

>  <iupac_name>  (488) 
(1~{R},8~{R},9~{S})-3,4,9-trihydroxy-5-isopropyl-11,11-dimethyl-16-oxatetracyclo[6.6.2.0^{1,10}.0^{2,7}]hexadeca-2(7),3,5-trien-15-one

>  <annotation_level>  (488) 
5

>  <total_atom_count>  (488) 
51

>  <heavy_atom_count>  (488) 
25

>  <molecular_weight>  (488) 
346.42

>  <exact_molecular_weight>  (488) 
346.17802

>  <molecular_formula>  (488) 
C20H26O5

>  <alogp>  (488) 
3.26

>  <topological_polar_surface_area>  (488) 
86.99

>  <rotatable_bond_count>  (488) 
1

>  <hydrogen_bond_acceptors>  (488) 
5

>  <hydrogen_bond_donors>  (488) 
3

>  <hydrogen_bond_acceptors_lipinski>  (488) 
5

>  <hydrogen_bond_donors_lipinski>  (488) 
3

>  <lipinski_rule_of_five_violations>  (488) 
0

>  <aromatic_rings_count>  (488) 
1

>  <qed_drug_likeliness>  (488) 
0.54

>  <formal_charge>  (488) 
0

>  <fractioncsp3>  (488) 
0.65

>  <number_of_minimal_rings>  (488) 
5

>  <van_der_walls_volume>  (488) 
315.31

>  <contains_sugar>  (488) 
False

>  <contains_ring_sugars>  (488) 
False

>  <contains_linear_sugars>  (488) 
False

>  <murcko_framework>  (488) 
O1CC23c4ccccc4C1CC3CCCC2

>  <np_likeness>  (488) 
2.71

>  <chemical_class>  (488) 
Prenol lipids

>  <chemical_sub_class>  (488) 
Terpene lactones

>  <chemical_super_class>  (488) 
Lipids and lipid-like molecules

>  <direct_parent_classification>  (488) 
Diterpene lactones

>  <np_classifier_pathway>  (488) 
Terpenoids

>  <np_classifier_superclass>  (488) 
Diterpenoids

>  <np_classifier_class>  (488) 
Abietane diterpenoids

>  <np_classifier_is_glycoside>  (488) 
False

>  <organisms>  (488) 
Coleus barbatus|Plectranthus barbatus|Salvia przewalskii

>  <collections>  (488) 
CMAUP (cCollective molecular activities of useful plants)|Latin America dataset|NPASS|NuBBEDB|WikiData Natural Products

>  <dois>  (488) 
10.1016/S0031-9422(00)83467-6

>  <synonyms>  (488) 
6\u221a\u00e9\u00ac\u2264-hydroxycarnosol|F82180

>  <cas>  (488) 
nan

$$$$

     RDKit          2D

 26 29  0  0  0  0  0  0  0  0999 V2000
    6.1260   -3.1966    0.0000 C   0  0  0  0  0  0  0  0  0  0  0  0
    6.5952   -1.7719    0.0000 O   0  0  0  0  0  0  0  0  0  0  0  0
    5.5959   -0.6532    0.0000 C   0  0  0  0  0  0  0  0  0  0  0  0
    4.1275   -0.9592    0.0000 C   0  0  0  0  0  0  0  0  0  0  0  0
    3.1282    0.1595    0.0000 C   0  0  0  0  0  0  0  0  0  0  0  0
    1.6598   -0.1466    0.0000 C   0  0  0  0  0  0  0  0  0  0  0  0
    1.0442   -1.5145    0.0000 O   0  0  0  0  0  0  0  0  0  0  0  0
   -0.4469   -1.3517    0.0000 C   0  0  0  0  0  0  0  0  0  0  0  0
   -0.7529    0.1167    0.0000 C   0  0  0  0  0  0  0  0  0  0  0  0
    0.5491    0.8615    0.0000 C   0  0  0  0  0  0  0  0  0  0  0  0
    0.2430    2.3300    0.0000 C   0  0  0  0  0  0  0  0  0  0  0  0
   -1.2481    2.4927    0.0000 O   0  0  0  0  0  0  0  0  0  0  0  0
   -1.8637    1.1248    0.0000 C   0  0  0  0  0  0  0  0  0  0  0  0
   -3.3321    0.8188    0.0000 C   0  0  0  0  0  0  0  0  0  0  0  0
   -4.3314    1.9375    0.0000 C   0  0  0  0  0  0  0  0  0  0  0  0
   -5.7998    1.6314    0.0000 C   0  0  0  0  0  0  0  0  0  0  0  0
   -6.2690    0.2067    0.0000 C   0  0  0  0  0  0  0  0  0  0  0  0
   -7.7375   -0.0994    0.0000 O   0  0  0  0  0  0  0  0  0  0  0  0
   -5.2697   -0.9120    0.0000 C   0  0  0  0  0  0  0  0  0  0  0  0
   -5.7389   -2.3367    0.0000 O   0  0  0  0  0  0  0  0  0  0  0  0
   -4.7397   -3.4554    0.0000 C   0  0  0  0  0  0  0  0  0  0  0  0
   -3.8013   -0.6060    0.0000 C   0  0  0  0  0  0  0  0  0  0  0  0
    3.5974    1.5842    0.0000 C   0  0  0  0  0  0  0  0  0  0  0  0
    5.0659    1.8902    0.0000 C   0  0  0  0  0  0  0  0  0  0  0  0
    6.0651    0.7715    0.0000 C   0  0  0  0  0  0  0  0  0  0  0  0
    7.5336    1.0776    0.0000 O   0  0  0  0  0  0  0  0  0  0  0  0
  1  2  1  0
  2  3  1  0
  3  4  2  0
  4  5  1  0
  6  5  1  1
  6  7  1  0
  7  8  1  0
  9  8  1  6
  9 10  1  0
 10 11  1  6
 11 12  1  0
 12 13  1  0
 13 14  1  1
 14 15  2  0
 15 16  1  0
 16 17  2  0
 17 18  1  0
 17 19  1  0
 19 20  1  0
 20 21  1  0
 19 22  2  0
  5 23  2  0
 23 24  1  0
 24 25  2  0
 25 26  1  0
 25  3  1  0
 10  6  1  0
 22 14  1  0
 13  9  1  0
M  END
>  <identifier>  (489) 
CNP0282729.1

>  <canonical_smiles>  (489) 
COC1=CC([C@H]2OC[C@H]3[C@@H]2CO[C@@H]3C2=CC=C(O)C(OC)=C2)=CC=C1O

>  <standard_inchi>  (489) 
InChI=1S/C20H22O6/c1-23-17-7-11(3-5-15(17)21)19-13-9-26-20(14(13)10-25-19)12-4-6-16(22)18(8-12)24-2/h3-8,13-14,19-22H,9-10H2,1-2H3/t13-,14-,19+,20+/m0/s1

>  <standard_inchi_key>  (489) 
HGXBRUKMWQGOIE-AFHBHXEDSA-N

>  <name>  (489) 
Pinoresinol

>  <iupac_name>  (489) 
4-[(3~{S},3~{a}~{R},6~{S},6~{a}~{R})-6-(4-hydroxy-3-methoxy-phenyl)-1,3,3~{a},4,6,6~{a}-hexahydrofuro[3,4-c]furan-3-yl]-2-methoxy-phenol

>  <annotation_level>  (489) 
5

>  <total_atom_count>  (489) 
48

>  <heavy_atom_count>  (489) 
26

>  <molecular_weight>  (489) 
358.39

>  <exact_molecular_weight>  (489) 
358.14164

>  <molecular_formula>  (489) 
C20H22O6

>  <alogp>  (489) 
3.19

>  <topological_polar_surface_area>  (489) 
77.38

>  <rotatable_bond_count>  (489) 
4

>  <hydrogen_bond_acceptors>  (489) 
6

>  <hydrogen_bond_donors>  (489) 
2

>  <hydrogen_bond_acceptors_lipinski>  (489) 
6

>  <hydrogen_bond_donors_lipinski>  (489) 
2

>  <lipinski_rule_of_five_violations>  (489) 
0

>  <aromatic_rings_count>  (489) 
2

>  <qed_drug_likeliness>  (489) 
0.87

>  <formal_charge>  (489) 
0

>  <fractioncsp3>  (489) 
0.40

>  <number_of_minimal_rings>  (489) 
4

>  <van_der_walls_volume>  (489) 
315.95

>  <contains_sugar>  (489) 
False

>  <contains_ring_sugars>  (489) 
False

>  <contains_linear_sugars>  (489) 
False

>  <murcko_framework>  (489) 
O1CC2C(OCC2C1c3ccccc3)c4ccccc4

>  <np_likeness>  (489) 
1.00

>  <chemical_class>  (489) 
Furanoid lignans

>  <chemical_sub_class>  (489) 
Furan lignans

>  <chemical_super_class>  (489) 
Lignans, neolignans and related compounds

>  <direct_parent_classification>  (489) 
Furan lignans

>  <np_classifier_pathway>  (489) 
Shikimates and Phenylpropanoids

>  <np_classifier_superclass>  (489) 
Lignans

>  <np_classifier_class>  (489) 
Furofuranoid lignans

>  <np_classifier_is_glycoside>  (489) 
False

>  <organisms>  (489) 
Abies koreana|Abies nephrolepis|Abies pinsapo subsp. marocana|Abies sachalinensis|Abies spectabilis|Achillea lingulata|Achlys triphylla|Achyrocline bogotensis|Aconitum campylorrhynchum|Aconitum carmichaelii|Aconitum japonicum|Acorus tatarinowii|Acronychia laurifolia|Actinidia arguta|Actinidia chinensis|Actinoplanes durhamensis|Adenia fruticosa|Aeromonas hydrophila|Agave deserti|Ageratina ligustrina|Ageratina lingustrina|Aglaia pyramidata|Albizia procera|Alcea rosea|Alcyonium utinomii|Aldisa sanguinea|Alectoria ochroleuca|Allamanda Neriifolia|Allamanda neriifolia|Allamanda schottii|Allium ampeloprasum|Allium sativum|Aloe saponaria|Alpinia blepharocalyx|Alyxia reinwardtii|Amycolatopsis azurea|Anagallis monelli|Ananas comosus|Anastatica hierochuntica|Androsace septentrionalis|Angelica furcijuga|Anguilla japonica|Anthyllis onobrychoides|Antitrogus consanguineus|Aonidiella aurantii|Apis mellifera ligustica|Aplysina archeri|Aplysina cauliformis|Aptosimum spinescens|Arachis hypogaea|Araiostegiella perdurans|Aralia bipinnata|Araucaria angustifolia|Arnica angustifolia|Arnica chamissonis|Arnica lonchophylla|Arnica mollis|Arnica montana|Artemisia arborescens|Artemisia caucasica|Artemisia giraldii|Artemisia porrecta|Arum italicum|Asarum sieboldii|Asclepias subulata|Asparagus officinalis|Aspergillus carneus|Aspergillus multicolor|Aspergillus striatus|Asplenium normale|Aster ptarmicoides|Asteracantha longifolia|Astragalus trojanus|Avena sativa|Balanophora Latisepala|Balanophora abbreviata|Balanophora abbreviata B1|Balanophora fungosa|Balanophora harlandii|Balanophora japonica|Balanophora latisepala|Balanophora papuana|Balanops australiana|Berberis aquifolium|Bhesa indica|Bhesa paniculata|Boltonia asteroides|Bombyx mori|Boschniakia rossica|Bracteantha acuminata|Brassica oleracea var. botrytis|Brassica oleracea var. capitata|Brassica oleracea var. sabauda|Brassica oleracea var. viridis|Breynia vitis-idaea|Brucea javanica|Brunfelsia hopeana|Bulbophyllum protractum|Bulbophyllum triste|Bupleurum salicifolium|Bursera tonkinensis|Calocephalus knappii|Calystegia pubescens|Camellia sinensis|Capsicum annuum|Carduus assoi|Carduus tenuiflorus|Carpesium cernuum|Carpobrotus edulis|Carya illinoinensis|Cashew|Cassinia subtropica|Castanea|Castanea crenata|Catunaregam spinosa|Celastrus monospermus|Centaurea calcitrapa|Centaurea montana|Centaurea napifolia|Centaurea orphanidea|Centaurea paui|Centrolobium tomentosum|Centrosema haitense|Cephalonomia gallicola|Ceratophyllum submersum|Chalina arbuscula|Cheirolophus intybaceus|Cheirolophus uliginosus|Chelidonura fulvipunctata|Chionanthus retusus|Chrysolaena verbascifolia|Cichorium endivia|Cichorium intybus|Cissus discolor|Cissus sicyoides|Cissus verticillata|Cistanche deserticola|Cistanche salsa|Cistanche tubulosa|Citrullus lanatus subsp. vulgaris|Citrus paradisi|Citrus reticulata|Citrus × deliciosa|Citrus × paradisi|Clematis armandii|Clematis montana|Clematis stans|Clematis terniflora var. mandshurica|Codonopsis pilosula|Codonopsis pilosula var. modesta|Coffea|Conium maculatum|Coptis chinensis|Coptis deltoidea|Coptis japonica|Coptis japonica var. dissecta|Coptis teeta|Corticium simplex|Cortinarius odoratus|Corydalis gigantea|Corylus|Crella incrustans|Cryptocarya lividula|Cucumis melo|Cucumis melo var. dudaim|Cucumis sativus|Cucurbita pepo|Cuscuta chinensis|Cuscuta hyalina|Cussonia racemosa|Cynanchum acidum|Cypripedium calceolus|Cytisus austriacus|Daemonorops draco|Daphne acutiloba|Daphne genkwa|Daphne mezereum|Daphne odora|Daphne oleoides spp.|Daphne pseudomezereum|Daphne sp.|Daphne tangutica|Daucus carota|Delphinium fangshanense|Dendrobium moniliforme|Dendrobium plicatile|Desmotrichum fimbriatum|Diospyros glaucifolia|Diplopteraster multipes|Diplospora dubia|Disynaphia multicrenulata|Doliocarpus dentatus|Dolomiaea souliei|Dracocephalum kotschyi|Dumoria heckelii|Dysidea villosa|Dysosma delavayi|Echinochloa esculenta|Echinopepon bigelovii|Eleutherobia albiflora|Eleutherococcus senticosus|Eliokarmos thyrsoides|Elymnias thryallis|Enterococcus faecalis|Ephemerantha fimbriata|Epimedium grandiflorum var. koreanum|Eremophila maculata|Eremophila maculata var. brevifolia|Eucalyptus Globulus|Eucalyptus globulus|Eucalyptus jenseni|Eucommia Ulmoides|Eucommia ulmoides|Euonymus tingens|Euphorbia cornigera|Euphorbia fortissima|Euphorbia pannonica|Euphorbia pekinensis|Euterpe oleracea|Eutrochium purpureum|Excoecaria acerifolia|Exobasidium vaccinii|Fagopyrum esculentum|Fagraea Racemosa|Fagraea blumei|Fagraea racemosa|Festuca argentina|Fibraurea recisa|Ficus benghalensis var. krishnae|Forsythia europaea|Forsythia giraldiana|Forsythia intermedia|Forsythia japonica|Forsythia koreana|Forsythia suspensa|Forsythia suspense|Forsythia viridissima|Fragaria|Fragaria x ananassa|Fraxinus japonica|Fraxinus longicuspis|Fraxinus mandschurica|Fraxinus mandshurica var. japonica|Fusarium avenaceum|Fusarium sacchari|Galium album|Galleria mellonella|Garrya laurifolia|Gliricidia sepium|Glycine|Glycine max|Gmelina arborea|Gnetum montanum|Gochnatia glutinosa|Gomphostemma crinitum|Goniothalamus amuyon|Goupia glabra|Gymnacranthera paniculata|Gymnopus confluens|Harungana madagascariensis|Hedyotis lawsoniae|Helicteres Angustifolia|Helicteres angustifolia|Heliotropium glutinosum|Helipterum gnaphaloides|Hemerocallis citrina|Hibiscus Cannabinus|Hibiscus cannabinus|Himatanthus fallax|Hopea brevipetiolaris|Hordeum vulgare|Hornschuchia citriodora|Hortonia floribunda|Hosta sieboldiana|Hugonia tomentosa|Humulus scandens|Hydnocarpus octandra|Hylocomium splendens|Inula salsoloides|Ipomoea cairica|Ipomoea purpurea|Isatis tinctoria|Ixeris chinensis|Jacobaea cannabifolia|Jasminum domatiigerum|Jasminum simplicifolium|Jugo|Jungia polita|Justicia diffusa|Justicia diffusa var. prostrata|Justicia glauca|Knautia montana|Knema attenuata|Kokoona reflexa|Kopsia albiflora|Lactarius subpiperatus|Lactarius vellereus|Lactuca laciniata|Laggera alata|Lampranthus sociorum|Larix dahurica|Larix decidua|Larix kaempferi|Larix leptolepis|Larix sibirica|Leitneria floridana|Leonurus sibiricus|Leptadenia arborea|Ligustrum obtusifolium|Ligustrum ovalifolium|Linum Usitatissimum|Linum album|Linum flavum|Linum usitatissimum|Lippia carviodora|Liriodendron sp.|Liriodendron tulipfera|Liriodendron tulipifera|Lithothamnion corallioides|Lophozia floerkei|Macaranga tanarius|Machilus robusta|Macrolepiota neomastoidea|Maesa ramentacea|Magnolia Coco|Magnolia biondii|Magnolia coco|Magnolia denudata|Magnolia fargesii|Magnolia kobus var. borealis|Magnolia salicifolia|Maharanga bicolor|Malus domestica|Malus pumila|Mantisalca salmantica|Medinilla magnifica|Melanargia galathea|Melia azedarach|Melilotus messanensis|Melilotus siculus|Melolontha melolontha|Mesua ferrea|Microglossa zeylanica|Mikania haenkeana|Mikania saltensis|Millettia laurentii|Millettia pinnata|Millettia rubiginosa|Mitragyna speciosa|Monodora tenuifolia|Monopteryx uaucu|Morina chinensis|Morinda coreia|Moringa oleifera|Mosla japonica|Musa|Myrica nana|Narcissus triandrus|Nardostachys jatamansi|Nauclea rhynchophylla|Nerine sarniensis|Neurospora terricola|Nocardia pseudobrasiliensis|Notechis scutatus|Nototodarus sloanii|Ocimum tenuiflorum|Oecophylla smaragdina|Oenanthe Javanica|Oenanthe javanica|Oenothera odorata|Olea europaea|Onobrychis bobrovii|Onopordum acanthium|Onopordum acaulon|Onopordum caricum|Onopordum laconicum|Onopordum macrocanthum|Osmanthus asiaticus|Osmitopsis osmitoides|Osteospermum hyoseroides|Pandanus Odoratissimus|Pandanus odoratissimus|Pandanus odorifer|Pandanus tectorius|Papaver|Papaver persicum|Paralemnalia clavata|Parmelia metastrigosa|Parmelia zollingeri|Passiflora morifolia|Pastinaca sativa|Penicillium cyclopium|Penicillium janczewskii|Penstemon gentianoides|Peperomia humilis|Peperomia leptostachya|Peperomia sui|Persicaria tinctoria|Pertusaria amara|Perymenium mendezii|Petteria ramentacea|Pharbitis nil|Phaseolus vulgaris|Phlomoides hamosa|Phoenix dactylifera|Phyllanthus oxyphyllus|Picea abies|Picea glauca|Picea glehnii|Picea jezoensis|Picea koraiensis|Picea obovata|Picea sp.|Picris conyzoides|Pinellia sp.|Pinus Massoniana|Pinus armandi|Pinus massoniana|Pinus sp|Pinus sp.|Pinus strobus|Pinus sylvestris|Pistacia vera|Plagiomnium undulatum|Plakortis simplex|Pluchea Indica|Pluchea indica|Pluchea odorata|Pluchea quitoc|Pluchea sagittalis|Pneumatospora obcoronata|Poacynum hendersonii|Podospora curvicolla|Polygonatum sibiricum|Polyporus anthracophilus|Poraqueiba paraensis|Porodaedalea pini|Prunus armeniaca|Prunus avium|Prunus domestica|Prunus dulcis|Prunus persica|Pseudoalteromonas rubra|Pseudoplexaura flagellosa|Pseudotsuga menziesii|Psilostrophe cooperi|Pulsatilla cernua|Pulsatilla chinensis|Punica granatum|Pyrus communis|Raphanus sativus var. sativus|Rhaphidophora Decursiva|Rhaphidophora decursiva|Rhizochalina incrustata|Rhizopogon pumilionus|Rhodanthe manglesii|Rhododendron przewalskii|Ribes nigrum|Ribes sanguineum|Rosa multiflora|Rubia yunnanensis|Rubus amabilis|Rubus chamaemorus|Rubus phoenicolasius|Salacia lehmbachii|Salvia yosgadensis|Sambucus adnata|Sambucus nigra|Sambucus williamsii|Sarcostemma acidum|Saussurea macrota|Saussurea medusa|Saussurea pulchella|Scenedesmus basiliensis|Schrebera swietenoides|Scorzonera hispanica|Scrippsiella trochoidea|Secale cereale|Sedum cepaea|Selaginella sinensis|Senecio cathcartensis|Senecio gilliesi|Sequoia sempervirens|Sesamoides canescens|Sesamum Indicum|Sesamum indicum|Sesamum orientale|Sideritis brevibracteata|Sideritis tragoriganum|Sideroxylon cubense|Simira eliezeriana|Solanum jamaicense|Solanum lycopersicum|Solanum melongena|Solanum nigrum|Solanum spirale|Sonchus macrocarpus|Sophora leachiana|Sphaerella asteroma|Spinacia oleracea|Stachys chinensis|Stellera chamaejasme|Stellera sp.|Stereospermum colais|Stereospermum tetragonum|Streptomyces|Streptomyces goshikiensis|Streptomyces olivaceus|Strophanthus Gratus|Strophanthus gratus|Strophanthus sarmentosus var. senegambiae|Stuckenia pectinata|Symbiodinium microadriaticum|Symplocos Lancifolia|Symplocos lancifolia|Symplocos lucida|Symplocos setchuensis|Symplocos theifolia|Syringa reticulata|Syringa vulgaris|Syzygium cumini|Taiwania cryptomerioides|Talaromyces avellaneus|Talipariti tiliaceum|Tanacetum praeteritum|Tarchonanthus camphoratus|Tarenna Attenuata|Tarenna attenuata|Taxus cuspidata|Taxus mairei|Tephrosia bidwilli|Tessaria integrifolia|Thea sasanqua|Theobroma speciosum|Thielavia terricola|Thonningia sanguinea|Thuja occidentalis|Torreya jackii|Torricellia tiliifolia|Tricalysia dubia|Trichosanthes kirilowii|Triclisia dictyophylla|Trifolium alexandrinum|Trifolium strepens|Triticum aestivum|Tsuga heterophylla|Uncaria tomentosa|Urbanodendron verrucosum|Urolepis hecatantha|Urtica dioica|Uruparia lanosa|Vaccinium myrtillus|Vaccinium vitis-idaea|Valeriana jatamansi|Valeriana microphylla|Valeriana officinalis|Vasconcellea cundinamarcensis|Vernonia lilacina|Viburnum foetidum|Viguiera decurrens|Vitex glabrata|Vitex negundo|Vitex peduncularis|Vitis vinifera|Wikstroemia canescens|Wikstroemia hainanensis|Wikstroemia sikokiana|Wikstroemia sp|Wikstroemia sp.|Wikstroemia viridiflora|Wisteria floribunda|Xanthoria parietina|Xerochrysum bracteatum|Xerochrysum subundulatum|Yponomeuta malinellus|Zantedeschia aethiopica|Zanthoxylum ailanthoides|Zanthoxylum beecheyanum|Zanthoxylum dinklagei|Zanthoxylum kellermanii|Zanthoxylum simulans|Zanthoxylum sp.|asparagus|broccoli|common sunflower|garlic|lettuce|maize|peanut|pomegranate|potato|sesame|tomato

>  <collections>  (489) 
ANPDB|AnalytiCon Discovery NPs|Australian natural products|CMAUP (cCollective molecular activities of useful plants)|ChEBI NPs|GNPS (Global Natural Products Social Molecular Networking)|KNApSaCK|Latin America dataset|NANPDB (Natural Products from Northern African Sources)|NAPRORE-CR|NPACT|NPASS|NuBBEDB|Phenol-explorer|Phyto4Health|PhytoLab phyproof® Reference Substances|Super Natural II|TCMDB-Taiwan (Traditional Chinese Medicine database)|TIPdb (database of Taiwan indigenous plants)|VietHerb|WikiData Natural Products|ZINC NP

>  <dois>  (489) 
10.1002/(SICI)1099-1573(199602)10:1<1::AID-PTR757>3.0.CO;2-A|10.1002/CBDV.201000373|10.1002/CHIN.200406148|10.1002/CHIN.200516160|10.1002/CHIN.200517210|10.1002/CHIN.200844208|10.1002/EJLT.200400942|10.1002/ELPS.200500202|10.1002/HLCA.200690014|10.1002/JCCS.199800116|10.1002/JCCS.200400159|10.1002/JLAC.199719970313|10.1007/BF00563355|10.1007/BF00563906|10.1007/BF00776644|10.1007/BF00777366|10.1007/BF02975503|10.1007/BF02980061|10.1007/BF03216746|10.1007/S00217-002-0604-0|10.1007/S00217-005-0160-5|10.1007/S10600-009-9325-Y|10.1007/S11418-008-0248-X|10.1007/S11746-000-0115-4|10.1016/0031-9422(79)80188-0|10.1016/0031-9422(83)80247-7|10.1016/0031-9422(84)83025-3|10.1016/0031-9422(88)80683-6|10.1016/0031-9422(88)83027-9|10.1016/0031-9422(88)83144-3|10.1016/0031-9422(89)80045-7|10.1016/0031-9422(90)85290-V|10.1016/0031-9422(90)87120-J|10.1016/0031-9422(91)80071-8|10.1016/0031-9422(91)85148-S|10.1016/0031-9422(92)83720-J|10.1016/0031-9422(92)83721-A|10.1016/0031-9422(92)83741-G|10.1016/0031-9422(92)83742-H|10.1016/0031-9422(92)83756-O|10.1016/0031-9422(93)85098-C|10.1016/0031-9422(93)85349-V|10.1016/0031-9422(94)00314-J|10.1016/0031-9422(94)00950-X|10.1016/0031-9422(94)85069-0|10.1016/0031-9422(95)00072-F|10.1016/0031-9422(95)00091-K|10.1016/0031-9422(95)00144-V|10.1016/0031-9422(95)00600-1|10.1016/0031-9422(96)00132-X|10.1016/0031-9422(96)00335-4|10.1016/J.BMCL.2011.10.043|10.1016/J.BMCL.2012.01.136|10.1016/J.BMCL.2013.12.006|10.1016/J.FOODCHEM.2012.03.133|10.1016/J.JFOODENG.2005.05.061|10.1016/J.JPBA.2006.09.033|10.1016/J.PHYTOCHEM.2003.08.014|10.1016/J.PHYTOCHEM.2005.12.021|10.1016/J.PHYTOCHEM.2006.03.005|10.1016/J.PHYTOCHEM.2009.04.019|10.1016/J.PHYTOCHEM.2009.07.020|10.1016/J.PHYTOL.2011.05.004|10.1016/J.TET.2003.08.029|10.1016/J.TET.2003.10.023|10.1016/J.TET.2006.09.020|10.1016/S0021-9673(99)00050-3|10.1016/S0031-9422(00)00108-4|10.1016/S0031-9422(00)00239-9|10.1016/S0031-9422(00)00473-8|10.1016/S0031-9422(00)83456-1|10.1016/S0031-9422(00)84791-3|10.1016/S0031-9422(00)86899-5|10.1016/S0031-9422(00)89537-0|10.1016/S0031-9422(00)89605-3|10.1016/S0031-9422(00)89801-5|10.1016/S0031-9422(00)90603-4|10.1016/S0031-9422(00)90814-8|10.1016/S0031-9422(00)95231-2|10.1016/S0031-9422(00)97525-3|10.1016/S0031-9422(00)97544-7|10.1016/S0031-9422(00)97569-1|10.1016/S0031-9422(01)00311-9|10.1016/S0031-9422(01)00401-0|10.1016/S0031-9422(01)00429-0|10.1016/S0031-9422(02)00268-6|10.1016/S0031-9422(03)00183-3|10.1016/S0031-9422(96)00388-3|10.1016/S0031-9422(96)00705-4|10.1016/S0031-9422(96)00720-0|10.1016/S0031-9422(97)00245-8|10.1016/S0031-9422(97)00587-6|10.1016/S0031-9422(97)00727-9|10.1016/S0031-9422(97)00957-6|10.1016/S0031-9422(97)00977-1|10.1016/S0031-9422(98)00092-2|10.1016/S0031-9422(98)00098-3|10.1016/S0031-9422(98)00181-2|10.1016/S0031-9422(98)00268-4|10.1016/S0031-9422(98)00390-2|10.1016/S0031-9422(98)00453-1|10.1016/S0031-9422(99)00004-7|10.1016/S0040-4020(01)90430-2|10.1016/S0040-4020(98)00464-5|10.1016/S0040-4020(99)00933-3|10.1016/S0040-4039(00)76953-X|10.1016/S0305-1978(00)00092-2|10.1016/S0305-1978(02)00162-X|10.1016/S0305-1978(96)00094-4|10.1016/S0367-326X(00)00240-9|10.1016/S0367-326X(02)00314-3|10.1016/S0960-894X(03)00088-X|10.1016/s0367-326x(02)00314-3|10.1021/JF0205211|10.1021/JF026083F|10.1021/JF0482461|10.1021/JF048945D|10.1021/JF051488W|10.1021/JF0602267|10.1021/JF061694J|10.1021/JF0617925|10.1021/JF801792N|10.1021/JF981359Y|10.1021/NP0101189|10.1021/NP020441R|10.1021/NP0301083|10.1021/NP0302596|10.1021/NP040187Y|10.1021/NP040219H|10.1021/NP049681S|10.1021/NP049681S.S001|10.1021/NP058036Y|10.1021/NP0603931|10.1021/NP2001896|10.1021/NP2002918|10.1021/NP400831P|10.1021/NP50056A018|10.1021/NP50065A037|10.1021/NP50076A047|10.1021/NP50078A023|10.1021/NP9006298|10.1021/NP970253E|10.1021/NP9702953|10.1021/NP9901837|10.1021/acs.jnatprod.6b01141|10.1021/acs.jnatprod.7b00457|10.1021/acs.jnatprod.8b00450|10.1021/np2002918|10.1039/C39900001405|10.1055/S-0028-1088338|10.1055/S-1999-14093|10.1055/S-2001-18849|10.1055/S-2003-818005|10.1055/S-2004-818939|10.1055/S-2006-959552|10.1055/S-2006-959740|10.1055/S-2006-961015|10.1055/S-2006-962793|10.1071/CH10421|10.1071/ch9691283|10.1076/PHBI.34.5.390.13252|10.1079/BJN20051371|10.1079/bjn20051371|10.1080/10286020108040371|10.1080/10286021003745452|10.1080/1057530290033123|10.1080/14786410500218591|10.1080/14786410802038697|10.1080/14786419.2011.560575|10.1093/CLINCHEM/46.7.976|10.1111/J.1745-4514.2007.00107.X|10.1207/S15327914NC5402_5|10.1248/CPB.30.1525|10.1248/CPB.31.2993|10.1248/CPB.32.1612|10.1248/CPB.32.3009|10.1248/CPB.32.4482|10.1248/CPB.33.1444|10.1248/CPB.35.1785|10.1248/CPB.36.3667|10.1248/CPB.36.4232|10.1248/CPB.41.1346|10.1248/CPB.43.2200|10.1248/CPB.43.578|10.1248/CPB.50.137|10.1248/CPB.51.508|10.1248/CPB.52.1265|10.1248/CPB.53.1416|10.1248/CPB.55.137|10.1248/CPB.57.1089|10.1248/CPB.57.1129|10.1248/CPB.57.1352|10.1248/CPB.57.397|10.1248/CPB.58.1646|10.1248/CPB.58.738|10.1248/CPB.59.1396|10.1248/CPB.60.554|10.1248/YAKUSHI1947.107.6_435|10.1248/YAKUSHI1947.116.12_911|10.1271/BBB.58.230|10.1515/HF-2018-0026|10.2298/JSC0305277T|10.3109/13880209509088142|10.3136/FSTR.6.106|10.3389/FPHAR.2020.01246|10.3390/MOLECULES15053507|10.3390/MOLECULES22101606|10.3891/ACTA.CHEM.SCAND.10-0445|10.5012/BKCS.2011.32.6.2079|10.7164/ANTIBIOTICS.47.487

>  <synonyms>  (489) 
nan

>  <cas>  (489) 
487-36-5

$$$$

     RDKit          2D

 21 21  0  0  0  0  0  0  0  0999 V2000
   -7.8721    2.5061    0.0000 C   0  0  0  0  0  0  0  0  0  0  0  0
   -6.4686    1.9768    0.0000 C   0  0  0  0  0  0  0  0  0  0  0  0
   -5.3084    2.9276    0.0000 C   0  0  0  0  0  0  0  0  0  0  0  0
   -6.2252    0.4966    0.0000 C   0  0  0  0  0  0  0  0  0  0  0  0
   -4.8217   -0.0327    0.0000 C   0  0  0  0  0  0  0  0  0  0  0  0
   -4.5784   -1.5128    0.0000 C   0  0  0  0  0  0  0  0  0  0  0  0
   -3.1749   -2.0421    0.0000 C   0  0  0  0  0  0  0  0  0  0  0  0
   -2.9315   -3.5223    0.0000 C   0  0  0  0  0  0  0  0  0  0  0  0
   -2.0147   -1.0913    0.0000 C   0  0  0  0  0  0  0  0  0  0  0  0
   -0.6112   -1.6206    0.0000 C   0  0  0  0  0  0  0  0  0  0  0  0
    0.5490   -0.6698    0.0000 O   0  0  0  0  0  0  0  0  0  0  0  0
    1.9525   -1.1991    0.0000 C   0  0  0  0  0  0  0  0  0  0  0  0
    2.1958   -2.6793    0.0000 O   0  0  0  0  0  0  0  0  0  0  0  0
    3.1126   -0.2483    0.0000 C   0  0  0  0  0  0  0  0  0  0  0  0
    2.8693    1.2318    0.0000 C   0  0  0  0  0  0  0  0  0  0  0  0
    4.0294    2.1826    0.0000 C   0  0  0  0  0  0  0  0  0  0  0  0
    5.4329    1.6533    0.0000 C   0  0  0  0  0  0  0  0  0  0  0  0
    6.5931    2.6041    0.0000 O   0  0  0  0  0  0  0  0  0  0  0  0
    5.6763    0.1732    0.0000 C   0  0  0  0  0  0  0  0  0  0  0  0
    7.0798   -0.3561    0.0000 O   0  0  0  0  0  0  0  0  0  0  0  0
    4.5161   -0.7776    0.0000 C   0  0  0  0  0  0  0  0  0  0  0  0
  1  2  1  0
  2  3  1  0
  2  4  2  0
  4  5  1  0
  5  6  1  0
  6  7  1  0
  7  8  1  0
  7  9  2  0
  9 10  1  0
 10 11  1  0
 11 12  1  0
 12 13  2  0
 12 14  1  0
 14 15  2  0
 15 16  1  0
 16 17  2  0
 17 18  1  0
 17 19  1  0
 19 20  1  0
 19 21  2  0
 21 14  1  0
M  END
>  <identifier>  (490) 
CNP0080490.1

>  <canonical_smiles>  (490) 
CC(C)=CCC/C(C)=C/COC(=O)C1=CC=C(O)C(O)=C1

>  <standard_inchi>  (490) 
InChI=1S/C17H22O4/c1-12(2)5-4-6-13(3)9-10-21-17(20)14-7-8-15(18)16(19)11-14/h5,7-9,11,18-19H,4,6,10H2,1-3H3/b13-9+

>  <standard_inchi_key>  (490) 
OVDDPLULMGGUFM-UKTHLTGXSA-N

>  <name>  (490) 
nan

>  <iupac_name>  (490) 
nan

>  <annotation_level>  (490) 
0

>  <total_atom_count>  (490) 
43

>  <heavy_atom_count>  (490) 
21

>  <molecular_weight>  (490) 
290.36

>  <exact_molecular_weight>  (490) 
290.15181

>  <molecular_formula>  (490) 
C17H22O4

>  <alogp>  (490) 
3.95

>  <topological_polar_surface_area>  (490) 
66.76

>  <rotatable_bond_count>  (490) 
6

>  <hydrogen_bond_acceptors>  (490) 
4

>  <hydrogen_bond_donors>  (490) 
2

>  <hydrogen_bond_acceptors_lipinski>  (490) 
4

>  <hydrogen_bond_donors_lipinski>  (490) 
2

>  <lipinski_rule_of_five_violations>  (490) 
0

>  <aromatic_rings_count>  (490) 
1

>  <qed_drug_likeliness>  (490) 
0.47

>  <formal_charge>  (490) 
0

>  <fractioncsp3>  (490) 
0.35

>  <number_of_minimal_rings>  (490) 
1

>  <van_der_walls_volume>  (490) 
283.81

>  <contains_sugar>  (490) 
False

>  <contains_ring_sugars>  (490) 
False

>  <contains_linear_sugars>  (490) 
False

>  <murcko_framework>  (490) 
c1ccccc1

>  <np_likeness>  (490) 
1.61

>  <chemical_class>  (490) 
nan

>  <chemical_sub_class>  (490) 
nan

>  <chemical_super_class>  (490) 
nan

>  <direct_parent_classification>  (490) 
nan

>  <np_classifier_pathway>  (490) 
Shikimates and Phenylpropanoids

>  <np_classifier_superclass>  (490) 
Phenolic acids (C6-C1)

>  <np_classifier_class>  (490) 
Shikimic acids and derivatives

>  <np_classifier_is_glycoside>  (490) 
False

>  <organisms>  (490) 
Piper crassinervium

>  <collections>  (490) 
ChemSpider NPs|Latin America dataset|NuBBEDB|Super Natural II|WikiData Natural Products|ZINC NP

>  <dois>  (490) 
10.1016/J.BIORTECH.2010.01.041|10.1016/j.biortech.2010.01.041

>  <synonyms>  (490) 
nan

>  <cas>  (490) 
nan

$$$$

     RDKit          2D

 23 24  0  0  0  0  0  0  0  0999 V2000
    0.6098   -5.1582    0.0000 C   0  0  0  0  0  0  0  0  0  0  0  0
   -0.1045   -3.8392    0.0000 C   0  0  0  0  0  0  0  0  0  0  0  0
   -1.6040   -3.7984    0.0000 O   0  0  0  0  0  0  0  0  0  0  0  0
    0.6805   -2.5611    0.0000 O   0  0  0  0  0  0  0  0  0  0  0  0
   -0.0338   -1.2421    0.0000 C   0  0  0  0  0  0  0  0  0  0  0  0
   -1.5333   -1.2013    0.0000 C   0  0  0  0  0  0  0  0  0  0  0  0
   -2.2476    0.1177    0.0000 C   0  0  0  0  0  0  0  0  0  0  0  0
   -3.7471    0.1585    0.0000 C   0  0  0  0  0  0  0  0  0  0  0  0
   -4.5322   -1.1196    0.0000 C   0  0  0  0  0  0  0  0  0  0  0  0
   -4.4614    1.4775    0.0000 C   0  0  0  0  0  0  0  0  0  0  0  0
   -3.6764    2.7556    0.0000 C   0  0  0  0  0  0  0  0  0  0  0  0
   -2.1769    2.7148    0.0000 C   0  0  0  0  0  0  0  0  0  0  0  0
   -1.3918    3.9930    0.0000 C   0  0  0  0  0  0  0  0  0  0  0  0
   -1.4625    1.3958    0.0000 C   0  0  0  0  0  0  0  0  0  0  0  0
    0.0369    1.3550    0.0000 C   0  0  0  0  0  0  0  0  0  0  0  0
    0.7513    0.0360    0.0000 C   0  0  0  0  0  0  0  0  0  0  0  0
    2.2507   -0.0048    0.0000 C   0  0  0  0  0  0  0  0  0  0  0  0
    2.2915    1.4947    0.0000 C   0  0  0  0  0  0  0  0  0  0  0  0
    2.2099   -1.5042    0.0000 C   0  0  0  0  0  0  0  0  0  0  0  0
    3.7501   -0.0456    0.0000 O   0  0  0  0  0  0  0  0  0  0  0  0
    4.5352    1.2325    0.0000 C   0  0  0  0  0  0  0  0  0  0  0  0
    6.0347    1.1917    0.0000 C   0  0  0  0  0  0  0  0  0  0  0  0
    3.8209    2.5515    0.0000 O   0  0  0  0  0  0  0  0  0  0  0  0
  1  2  1  0
  2  3  2  0
  2  4  1  0
  4  5  1  0
  5  6  2  0
  6  7  1  0
  7  8  2  0
  8  9  1  0
  8 10  1  0
 10 11  2  0
 11 12  1  0
 12 13  1  0
 12 14  2  0
 14 15  1  0
 15 16  2  0
 16 17  1  0
 17 18  1  0
 17 19  1  0
 17 20  1  0
 20 21  1  0
 21 22  1  0
 21 23  2  0
 16  5  1  0
 14  7  1  0
M  END
>  <identifier>  (491) 
CNP0080334.0

>  <canonical_smiles>  (491) 
CC(=O)OC1=CC2=C(C)C=CC(C)=C2C=C1C(C)(C)OC(C)=O

>  <standard_inchi>  (491) 
InChI=1S/C19H22O4/c1-11-7-8-12(2)16-10-18(22-13(3)20)17(9-15(11)16)19(5,6)23-14(4)21/h7-10H,1-6H3

>  <standard_inchi_key>  (491) 
KERQGMIJCAPSCY-UHFFFAOYSA-N

>  <name>  (491) 
nan

>  <iupac_name>  (491) 
[3-(1-acetoxy-1-methyl-ethyl)-5,8-dimethyl-2-naphthyl] acetate

>  <annotation_level>  (491) 
4

>  <total_atom_count>  (491) 
45

>  <heavy_atom_count>  (491) 
23

>  <molecular_weight>  (491) 
314.38

>  <exact_molecular_weight>  (491) 
314.15181

>  <molecular_formula>  (491) 
C19H22O4

>  <alogp>  (491) 
4.18

>  <topological_polar_surface_area>  (491) 
52.60

>  <rotatable_bond_count>  (491) 
3

>  <hydrogen_bond_acceptors>  (491) 
4

>  <hydrogen_bond_donors>  (491) 
0

>  <hydrogen_bond_acceptors_lipinski>  (491) 
4

>  <hydrogen_bond_donors_lipinski>  (491) 
0

>  <lipinski_rule_of_five_violations>  (491) 
0

>  <aromatic_rings_count>  (491) 
2

>  <qed_drug_likeliness>  (491) 
0.63

>  <formal_charge>  (491) 
0

>  <fractioncsp3>  (491) 
0.37

>  <number_of_minimal_rings>  (491) 
2

>  <van_der_walls_volume>  (491) 
nan

>  <contains_sugar>  (491) 
False

>  <contains_ring_sugars>  (491) 
False

>  <contains_linear_sugars>  (491) 
False

>  <murcko_framework>  (491) 
c1ccc2ccccc2c1

>  <np_likeness>  (491) 
0.58

>  <chemical_class>  (491) 
Naphthalenes

>  <chemical_sub_class>  (491) 
Naphthalenes

>  <chemical_super_class>  (491) 
Benzenoids

>  <direct_parent_classification>  (491) 
Naphthalenes

>  <np_classifier_pathway>  (491) 
Terpenoids

>  <np_classifier_superclass>  (491) 
Sesquiterpenoids

>  <np_classifier_class>  (491) 
Cadinane sesquiterpenoids

>  <np_classifier_is_glycoside>  (491) 
False

>  <organisms>  (491) 
Emmotum nitens

>  <collections>  (491) 
Latin America dataset|NuBBEDB|WikiData Natural Products|ZINC NP

>  <dois>  (491) 
10.1016/0031-9422(76)85091-1

>  <synonyms>  (491) 
Emmotin-G diacetate

>  <cas>  (491) 
nan

$$$$

     RDKit          2D

 22 24  0  0  0  0  0  0  0  0999 V2000
   -4.0698    3.3325    0.0000 C   0  0  0  0  0  0  0  0  0  0  0  0
   -4.8281    2.0383    0.0000 O   0  0  0  0  0  0  0  0  0  0  0  0
   -4.0863    0.7345    0.0000 C   0  0  0  0  0  0  0  0  0  0  0  0
   -2.5864    0.7250    0.0000 C   0  0  0  0  0  0  0  0  0  0  0  0
   -1.8446   -0.5788    0.0000 C   0  0  0  0  0  0  0  0  0  0  0  0
   -0.3446   -0.5883    0.0000 C   0  0  0  0  0  0  0  0  0  0  0  0
    0.3971   -1.8921    0.0000 C   0  0  0  0  0  0  0  0  0  0  0  0
    1.8971   -1.9016    0.0000 C   0  0  0  0  0  0  0  0  0  0  0  0
    2.6388   -3.2054    0.0000 O   0  0  0  0  0  0  0  0  0  0  0  0
    2.6553   -0.6073    0.0000 C   0  0  0  0  0  0  0  0  0  0  0  0
    4.1553   -0.6168    0.0000 C   0  0  0  0  0  0  0  0  0  0  0  0
    4.8970   -1.9206    0.0000 O   0  0  0  0  0  0  0  0  0  0  0  0
    4.9135    0.6774    0.0000 C   0  0  0  0  0  0  0  0  0  0  0  0
    4.1717    1.9812    0.0000 C   0  0  0  0  0  0  0  0  0  0  0  0
    4.9300    3.2754    0.0000 O   0  0  0  0  0  0  0  0  0  0  0  0
    2.6718    1.9907    0.0000 C   0  0  0  0  0  0  0  0  0  0  0  0
    1.9135    0.6964    0.0000 C   0  0  0  0  0  0  0  0  0  0  0  0
    0.4136    0.7060    0.0000 O   0  0  0  0  0  0  0  0  0  0  0  0
   -2.6028   -1.8730    0.0000 C   0  0  0  0  0  0  0  0  0  0  0  0
   -4.1028   -1.8635    0.0000 C   0  0  0  0  0  0  0  0  0  0  0  0
   -4.8446   -0.5597    0.0000 C   0  0  0  0  0  0  0  0  0  0  0  0
   -6.3445   -0.5502    0.0000 O   0  0  0  0  0  0  0  0  0  0  0  0
  1  2  1  0
  2  3  1  0
  3  4  2  0
  4  5  1  0
  5  6  1  0
  6  7  2  0
  7  8  1  0
  8  9  2  0
  8 10  1  0
 10 11  2  0
 11 12  1  0
 11 13  1  0
 13 14  2  0
 14 15  1  0
 14 16  1  0
 16 17  2  0
 17 18  1  0
  5 19  2  0
 19 20  1  0
 20 21  2  0
 21 22  1  0
 21  3  1  0
 18  6  1  0
 17 10  1  0
M  END
>  <identifier>  (492) 
CNP0223782.0

>  <canonical_smiles>  (492) 
COC1=CC(C2=CC(=O)C3=C(O)C=C(O)C=C3O2)=CC=C1O

>  <standard_inchi>  (492) 
InChI=1S/C16H12O6/c1-21-14-4-8(2-3-10(14)18)13-7-12(20)16-11(19)5-9(17)6-15(16)22-13/h2-7,17-19H,1H3

>  <standard_inchi_key>  (492) 
SCZVLDHREVKTSH-UHFFFAOYSA-N

>  <name>  (492) 
Chrysoeriol

>  <iupac_name>  (492) 
5,7-dihydroxy-2-(4-hydroxy-3-methoxy-phenyl)chromen-4-one

>  <annotation_level>  (492) 
5

>  <total_atom_count>  (492) 
34

>  <heavy_atom_count>  (492) 
22

>  <molecular_weight>  (492) 
300.27

>  <exact_molecular_weight>  (492) 
300.06339

>  <molecular_formula>  (492) 
C16H12O6

>  <alogp>  (492) 
2.59

>  <topological_polar_surface_area>  (492) 
100.13

>  <rotatable_bond_count>  (492) 
2

>  <hydrogen_bond_acceptors>  (492) 
6

>  <hydrogen_bond_donors>  (492) 
3

>  <hydrogen_bond_acceptors_lipinski>  (492) 
6

>  <hydrogen_bond_donors_lipinski>  (492) 
3

>  <lipinski_rule_of_five_violations>  (492) 
0

>  <aromatic_rings_count>  (492) 
3

>  <qed_drug_likeliness>  (492) 
0.67

>  <formal_charge>  (492) 
0

>  <fractioncsp3>  (492) 
0.06

>  <number_of_minimal_rings>  (492) 
3

>  <van_der_walls_volume>  (492) 
246.86

>  <contains_sugar>  (492) 
False

>  <contains_ring_sugars>  (492) 
False

>  <contains_linear_sugars>  (492) 
False

>  <murcko_framework>  (492) 
O1c2ccccc2CC=C1c3ccccc3

>  <np_likeness>  (492) 
1.37

>  <chemical_class>  (492) 
Flavonoids

>  <chemical_sub_class>  (492) 
O-methylated flavonoids

>  <chemical_super_class>  (492) 
Phenylpropanoids and polyketides

>  <direct_parent_classification>  (492) 
3'-O-methylated flavonoids

>  <np_classifier_pathway>  (492) 
Shikimates and Phenylpropanoids

>  <np_classifier_superclass>  (492) 
Flavonoids

>  <np_classifier_class>  (492) 
Flavones

>  <np_classifier_is_glycoside>  (492) 
False

>  <organisms>  (492) 
Acacia aulacocarpa|Acacia pulchella|Acer pycnanthum|Achillea chamaemelifolia|Achillea holosericea|Achillea pseudopectinata|Achyrocline flaccida|Aconitum leucostomum|Aframomum mala|Ageratina areolaris|Aglaia australiensis|Aglaia foveolata|Agnorhiza ovata|Albizia julibrissin|Alchemilla tianschanica|Allagopappus dichotomus|Allagopappus viscosissimus|Alnus maximowiczii|Aloysia citrodora|Amberboa ramosa|Ambrosia salsola|Amsinckia tessellata|Anarsia lineatella|Anemone flaccida|Anolis lineatopus|Apis mellifera|Apis mellifera ligustica|Apium Graveolens|Apium graveolens|Apollonias barbujana|Aquilegia ecalcarata|Arachis Hypogaea|Arachis hypogaea|Ardisia neriifolia|Arnica chamissonis|Arnica cordifolia|Arnica longifolia|Artemisia afra|Artemisia alba|Artemisia annua|Artemisia annua L.|Artemisia anomala|Artemisia apiacea|Artemisia arborescens|Artemisia argyi|Artemisia assoana|Artemisia austriaca|Artemisia capillaris|Artemisia copa|Artemisia diffusa|Artemisia gmelinii|Artemisia hanseniana|Artemisia iwayomogi|Artemisia judaica|Artemisia ludoviciana|Artemisia mesatlantica|Artemisia minor|Artemisia molinieri|Artemisia rupestris|Artemisia rutifolia|Artemisia santolina|Artemisia sp.|Artemisia szowitziana|Artemisia vulgaris|Arthrobotrys oligospora|Aspalathus linearis|Aspergillus mutabilis|Asphodeline damascena|Asphodeline globifera|Asphodelus fistulosus|Aspidosperma subincanum|Astragalus pycnanthus|Astragalus spinosus|Atuna racemosa|Aucuba chinensis|Aurelia aurita|Axinyssa variabilis|Baccharis bigelovii|Baccharis pteronioides|Baccharis salicifolia|Baccharis sp.|Baccharoides filigera|Bahiopsis laciniata|Balsamorhiza deltoidea|Bauhinia glauca|Bauhinia guianensis|Berberis floribunda|Berlinia tomentosa|Bischofia javanica|Bistorta vivipara|Blumea mollis|Bonamia spectabilis|Bontia bontioides|Botrydium granulatum|Brickellia vernicosa|Bridelia ferruginea|Brucea javanica|Brya ebenus|Bryum weigelii|Cadia purpurea|Calceolaria chelidonioides|Calceolaria mexicana|Calceolaria pavonii|Calceolaria scabiosifolia|Calceolaria tripartita|Campsis grandiflora|Cannabis Sativa|Cannabis sativa|Cannabis sativa L.|Caragana pygmaea|Carica dodecaphylla|Ceanothus velutinus|Cedronella canariensis|Centaurea africana|Centaurea alexandrina|Centaurea huber-morathii|Centaurea sphaerocephala|Cephalotaxus fortunei|Cheirolophus intybaceus|Cheniella glauca|Chenopodium botrys|Chlorociboria aeruginascens|Chlorophytum borivilianum|Choriaster granulatus|Chresta martii|Chrysanthemum morifolium|Chrysanthemum sp.|Chrysomela tremula|Cirsium oleraceum|Cistus laurifolius|Citrus rugulosa|Citrus tangerina|Cleome amblyocarpa|Clerodendrum mandarinorum|Coleus amboinicus|Collinsonia japonica|Comanthosphace stellipila|Combretum leprosum|Conocephalum conicum|Coronopus didymus|Corydalis taliensis|Cratoxylum formosum|Crocus minimus|Cryptocarya aschersoniana|Cryptolestes ferrugineus|Cunonia macrophylla|Curculigo pilosa|Cymodocea nodosa|Cynometra lujae|Cystoclonium purpureum|Daphne aurantiaca|Daphne feddei|Daucus carota|Deguelia scandens|Delphinium brownii|Derris scandens|Desmodium styracifolium|Dictamnus albus|Digitalis|Digitalis grandiflora|Digitalis lanata|Digitalis trojana|Dinophysis fortii|Dioscorea gracillima|Diplacus longiflorus|Dipterocarpus dyeri|Dipteryx odorata|Distephanus glutinosus|Dracocephalum moldavica|Dunalia solanacea|Dysphania botrys|Echinop ritro|Echinops ritro|Echium rubrum|Eichhornia crassipes|Elsholtzia ciliata|Elsholtzia splendens|Encelia asperifolia|Encelia californica|Encelia laciniata|Encelia stenophylla|Encelia ventorum|Entada africana|Entada polystachya|Entada rheedei|Epimedium sagittatum|Eremanthus elaeagnus|Eriocephalus scariosus|Eriodictyon californicum|Eriodictyon glutinosum|Eriodictyon sp.|Erylus trisphaerus|Erymophyllum tenellum|Eucalyptus andrewsi|Eucryphia|Eupatorium areolare|Eupatorium argentinum|Eupatorium mikanioides|Euphrasia sp.|Euria sp.|Euterpe oleracea|Felimida luteorosea|Fouquieria splendens|Fragaria vesca|Fritillaria thunbergii|Fuligo candida|Fumaria indica|Fumaria micrantha|Gahnia microstachya|Galeopsis bifida|Garcinia lateriflora|Garcinia scortechinii|Gardenia tubifera|Genista sessilifolia|Gleditsia caspica|Glycyrrhiza echinata|Glycyrrhiza glabra|Glycyrrhiza inflata|Glycyrrhiza uralensis|Gnetum montanum|Gracilaria textorii|Guatteria boliviana|Gutierrezia microcephala|Gutierrezia sarothrae|Gutierrezia wrightii|Gymnanthemum myrianthum|Haplopappus canescens|Haplophyllum ramosissimum|Helichrysum aureum|Helichrysum mixtum|Helichrysum odoratissimum|Helipterum charsleyae|Hendersonula toruloidea|Herba lagotidis|Herba meconpsis integrifoliae|Holocalyx balansae|Humata pectinata|Hydnocarpus pentandrus|Hydrangea serrata|Hymenaea oblongifolia var. palustris|Hymenaea palustris Ducke|Hymeneae palustris|Hypericum elodeoides|Hypericum reflexum|Iberis sempervirens|Iboza riparia|Ilyonectria destructans|Inula britannica|Ipomoea cairica|Isodon coetsa|Isodon lophanthoides|Isodon oresbius|Iyengaria stellata|Jamesoniella colorata|Juncus inflexus|Juniperus brevifolia|Kali turgidum|Kopsia grandifolia|Lactarius spinosulus|Lagotis brevituba|Lagotis yunnanensis|Lamium amplexicaule|Lasianthus fordii|Lavandula angustifolia|Ledebouria socialis|Lentinus tigrinus|Lepidium didymum|Lepidosperma ustulatum|Lepraria membranacea|Leucas Aspera|Leucas aspera|Leucosceptrum|Lobelia chinensis|Lonicera japonica|Lonicera sp.|Lotus maritimus|Lunularia cruciata|Lupinus luteus|Lycopodium contiguum|Lycopodium japonicum|Lycopodium sp.|Lycopus europaeus|Lycopus lucidus|Lysiana subfalcata|Macadamia ternifolia|Macaranga peltata|Macfadyena cynanchoides|Markhamia stipulata|Marrubium sp.|Marrubium velutinum|Marrubium vulgare|Meconopsis horridula|Medicago Sativa|Medicago intertexta|Medicago marina|Medicago sativa|Medicago sp.|Meehania urticifolia|Mentha pulegium|Mentha suaveolens|Meridiastra calcar|Microliabum candidum|Microliabum polymnioides|Micromeria cristata|Micromeria croatica|Micromeria graeca|Micromeria juliana|Micromeria parviflora|Micromeria pseudocroatica|Millettia zechiana|Mirabilis viscosa|Mitracarpus scaber|Mollugo spergula|Monomeria barbata|Morinda morindoides|Mosla chinensis|Mundulea striata|Myoporum bontioides|Myoporum tenuifolium|Myriapora truncata|Myrsine capitellata|Nectandra rubra|Neolentinus lepideus|Newbouldia laevis|Nicotiana affinis|Nostoc spongiaeforme|Notholaena californica|Notobasis syriaca|Ocimum tenuiflorum|Ocotea glaziovii|Oenothera odorata|Oligochaeta divaricata|Ononis angustissima|Onopordum acanthium|Onopordum acaulon|Onopordum boissierianum|Onopordum corymbosum|Onopordum laconicum|Onopordum macrocanthum|Onopordum myriacanthum|Onosma heterophylla|Origanum majoricum|Origanum vulgare|Oroxylum indicum|Osteospermum fruticosum|Osteospermum muricatum|Pajanelia multijuga|Pallenis hierochuntica|Panax innovans|Panda oleosa|Papaver tatricum|Parablechnum minus|Parkinsonia Aculeata|Parkinsonia aculeata|Passiflora foetida|Passiflora palmeri|Patersonia umbrosa|Pedicularis rex|Peltogyne pubescens|Penicillium cinerascens|Peperomia vulcanica|Perilla frutescens|Perilla frutescens var. frutescens|Peritassa compta|Persea mexicana|Phaeolus schweinitzii|Philotheca myoporoides|Phlomis purpurea|Phlomis samia|Phomopsis leptostromiformis|Phyllanthus virgatus|Physalis edulis|Picnomon acarna|Piliostigma malabaricum|Pinus aristata|Pinus excelsa|Pinus monticola|Pinus sylvestris|Piper cuneifolium|Plantago cornuti|Platycarya strobilacea|Plectranthus nummularius|Plectranthus sylvestris|Pleurotus japonicus|Plumbago zeylanica|Polygala arillata|Polygonatum odoratum|Premna tomentosa|Primula sinensis|Pseudoceratina arabica|Pseudodictamnus hirsutus|Pseudonocardia compacta|Pseuduvaria indochinensis|Psiadia dentata|Psiadia punctulata|Pteris setuloso-costulata|Pterodon emarginatus|Pulsatilla campanella|Rabdosia macrocalyx|Ranunculus peltatus|Raphanus sativus|Rhamnus nakaharae|Rhamnus prinoides|Rhamnus taquetii (H.Lév. & Vaniot) H.Lév.|Rhaponticoides africana|Rheedia acuminata|Rhizopus stolonifer|Rhodobacter sphaeroides|Riella affinis|Riella americana|Robinsonia gracilis|Roemeria carica|Roldana sessilifolia|Rorippa sylvestris|Rosulabryum capillare|Rubus phoenicolasius|Sagittaria sagittifolia|Salvia candidissima|Salvia dorrii|Salvia lavandulaefolia|Salvia miltiorrhiza|Salvia mirzayana|Salvia mirzayanii|Salvia palaestina|Satureja cuneifolia|Saussurea amara|Schnella guianensis|Schouwia purpurea|Schouwia thebaica|Schumanniophyton magnificum|Scutellaria amoena|Scutellaria baicalensis|Scutellaria discolor|Sedum lineare|Selaginella moellendorffii|Senecio kaempferi|Senecio sandersonii|Senna tora|Sia ferox|Sideritis euboea|Sideritis leucantha|Sideritis pumila|Sideritis soluta|Sideritis trojana|Silybum marianum|Sisyrinchium californicum|Solanum aculeatissimum|Sonchus arvensis|Sorbus tianschanica|Sordaria araneosa|Stachys aegyptiaca|Stachys candida|Stachys chrysantha|Stephania elegans|Stizolophus coronopifolius|Streptomyces|Streptomyces clavifer|Streptomyces griseochromogenes|Striga asiatica|Swertia decussata|Swertia swertopsis|Symphyocladia latiuscula|Syzygium nervosum|Tanacetum parthenium|Tanacetum parthenium (L.) Schulz Bip.|Tanacetum sinaicum|Tanacetum vulgare|Tanacetum vulgare L.|Taxus brevifolia|Tecoma stans|Tephrosia egregia|Tephrosia sinapou|Tephrosia toxicaria|Tessaria dodoneifolia|Thermopsis alterniflora|Thermopsis macrophylla|Thermopsis mollis|Thermopsis rhombifolia|Thermopsis villosa|Thiocystis gelatinosa|Tinospora crispa|Trichoderma koningi|Trichogonia grazielae|Trichophorum cespitosum|Trichosanthes bracteata|Trichosanthes kirilowii|Trichosanthes rosthornii|Trifolium pratense|Triopha carpenteri|Trogoderma granarium|Tsuga chinensis|Tulipa sylvestris|Usnea undulata|Utricularia australis|Uvaria cherrevensis|Varthemia iphionoides|Vatica cinerea|Vellozia glabra|Vellozia scoparia|Verbascum sinaiticum|Vernonanthura chamaedrys|Vernonanthura nudiflora|Viguiera stenoloba|Vinca minor|Viola mandshurica|Viola odorata|Viola philippica|Virgilia divaricata|Vitex limonifolia|Vitex polygama|Vouacapoua macropetala|Walsura chrysogyne|Xerochrysum bracteatum|Xylopia columbiana|Xyris itatiayensis|Zea Mays|Zea mays L.|Ziziphus jujuba|broad bean|common dandelion|dragon's teeth|maize|peanut|rooibos

>  <collections>  (492) 
ANPDB|Australian natural products|BIOFACQUIM|BitterDB|CMAUP (cCollective molecular activities of useful plants)|ChEBI NPs|ConMedNP|FooDB|GNPS (Global Natural Products Social Molecular Networking)|KNApSaCK|Latin America dataset|Marine Natural Products|NANPDB (Natural Products from Northern African Sources)|NPACT|NPASS|NPEdia|NuBBEDB|Phyto4Health|PhytoLab phyproof® Reference Substances|PubChem NPs|Super Natural II|TCMDB-Taiwan (Traditional Chinese Medicine database)|TCMID (Traditional Chinese Medicine Integrated Database)|TIPdb (database of Taiwan indigenous plants)|UNPD (Universal Natural Products Database)|VietHerb|WikiData Natural Products|p-ANAPL

>  <dois>  (492) 
10.1002/(SICI)1099-1565(199903/04)10:2<69::AID-PCA447>3.0.CO;2-4|10.1002/CHIN.200438214|10.1002/JCCS.200400094|10.1002/PCA.2521|10.1002/PTR.1066|10.1002/RECL.19000191104|10.1007/BF00563641|10.1007/BF00563832|10.1007/BF00563912|10.1007/BF00567716|10.1007/BF00569015|10.1007/BF00570657|10.1007/BF00570687|10.1007/BF00579497|10.1007/BF00629947|10.1007/BF00713335|10.1007/BF00713340|10.1007/BF00714926|10.1007/BF02977770|10.1007/S10600-008-9024-0|10.1007/S10600-008-9063-6|10.1007/S10600-008-9065-4|10.1007/S10600-009-9248-7|10.1007/S10600-011-0071-6|10.1007/S10600-015-1519-X|10.1007/S11418-010-0501-Y|10.1016/0031-9422(80)85088-6|10.1016/0031-9422(82)80045-9|10.1016/0031-9422(82)83200-7|10.1016/0031-9422(85)80028-5|10.1016/0031-9422(88)80455-2|10.1016/0031-9422(88)80613-7|10.1016/0031-9422(89)80045-7|10.1016/0031-9422(89)80307-3|10.1016/0031-9422(90)80037-H|10.1016/0031-9422(90)85131-X|10.1016/0031-9422(91)83679-F|10.1016/0031-9422(92)83452-5|10.1016/0031-9422(92)83742-H|10.1016/0031-9422(92)90045-R|10.1016/0031-9422(93)85369-3|10.1016/0031-9422(94)00848-N|10.1016/0031-9422(94)85023-2|10.1016/0031-9422(95)00245-3|10.1016/0031-9422(95)00494-R|10.1016/0031-9422(95)00776-8|10.1016/0031-9422(95)00865-9|10.1016/0031-9422(96)00084-2|10.1016/0305-1978(82)90048-5|10.1016/0305-1978(84)90032-2|10.1016/0305-1978(87)90102-5|10.1016/0305-1978(88)90032-4|10.1016/0305-1978(89)90096-3|10.1016/0305-1978(91)90088-H|10.1016/0305-1978(94)00093-V|10.1016/0305-1978(95)00044-U|10.1016/J.BMC.2007.01.035|10.1016/J.BMC.2015.04.053|10.1016/J.BMCL.2006.06.011|10.1016/J.BMCL.2014.08.004|10.1016/J.BMCL.2015.05.089|10.1016/J.BSE.2014.02.015|10.1016/J.FITOTE.2009.09.007|10.1016/J.FOODCHEM.2012.08.057|10.1016/J.FOODRES.2017.01.014|10.1016/J.JCHROMB.2013.06.002|10.1016/J.JEP.2016.03.014|10.1016/J.PHYTOCHEM.2004.03.006|10.1016/J.PHYTOCHEM.2005.12.019|10.1016/J.PHYTOCHEM.2007.02.015|10.1016/J.PHYTOCHEM.2008.07.002|10.1016/J.PHYTOCHEM.2008.07.010|10.1016/J.PHYTOL.2009.03.002|10.1016/S0021-9673(01)88918-4|10.1016/S0031-9422(00)80692-5|10.1016/S0031-9422(00)81116-4|10.1016/S0031-9422(00)81143-7|10.1016/S0031-9422(00)83563-3|10.1016/S0031-9422(00)83891-1|10.1016/S0031-9422(00)84139-4|10.1016/S0031-9422(00)84593-8|10.1016/S0031-9422(00)84740-8|10.1016/S0031-9422(00)84889-X|10.1016/S0031-9422(00)84904-3|10.1016/S0031-9422(00)86879-X|10.1016/S0031-9422(00)86894-6|10.1016/S0031-9422(00)88458-7|10.1016/S0031-9422(00)89072-X|10.1016/S0031-9422(00)89073-1|10.1016/S0031-9422(00)89537-0|10.1016/S0031-9422(00)89581-3|10.1016/S0031-9422(00)90809-4|10.1016/S0031-9422(00)94254-7|10.1016/S0031-9422(00)95005-2|10.1016/S0031-9422(00)95197-5|10.1016/S0031-9422(00)97776-8|10.1016/S0031-9422(01)00415-0|10.1016/S0031-9422(03)00242-5|10.1016/S0031-9422(97)01042-X|10.1016/S0031-9422(99)00021-7|10.1016/S0031-9422(99)00474-4|10.1016/S0305-1978(02)00035-2|10.1016/S0305-1978(96)00081-6|10.1016/S0305-1978(98)00077-5|10.1016/S0367-326X(01)00370-7|10.1016/S0367-326X(03)00056-X|10.1016/S0963-9969(01)00083-7|10.1016/S0968-0896(00)00225-X|10.1016/j.bmc.2007.01.035|10.1016/j.bmc.2015.04.053|10.1016/j.bmcl.2014.08.004|10.1016/j.bmcl.2015.05.089|10.1016/j.fitote.2018.05.016|10.1016/j.jep.2016.03.014|10.1016/j.jep.2016.10.074|10.1016/s0031-9422(00)97881-6|10.1016/s0305-1978(99)00045-9|10.1021/ACS.JNATPROD.6B00839|10.1021/JF0347721|10.1021/JF061477I|10.1021/JF801792N|10.1021/JF970520M|10.1021/JF9801264|10.1021/JF9906679|10.1021/JF991002+|10.1021/NP010128+|10.1021/NP020231E|10.1021/NP0302100|10.1021/NP50019A012|10.1021/NP50021A021|10.1021/NP50030A007|10.1021/NP50032A028|10.1021/NP50039A027|10.1021/NP50046A052|10.1021/NP50046A053|10.1021/NP50063A025|10.1021/NP50066A020|10.1021/NP50077A010|10.1021/NP50081A012|10.1021/NP50096A023|10.1021/NP50117A005|10.1021/NP50117A014|10.1021/NP50126A023|10.1021/NP800643N|10.1021/NP900117V|10.1021/NP9601925|10.1021/acs.jnatprod.6b00581|10.1021/acs.jnatprod.8b00161|10.1021/acs.jnatprod.8b00680|10.1021/np020231e|10.1021/np50081a012|10.1021/np50117a005|10.1021/np900117v|10.1039/CT9079100887|10.1039/CT9099500081|10.1055/S-0028-1084474|10.1055/S-2001-18339|10.1055/S-2003-38874|10.1055/S-2005-873177|10.1055/S-2005-873181|10.1055/S-2006-957782|10.1055/S-2006-957923|10.1055/S-2006-958064|10.1055/S-2006-958150|10.1055/S-2006-962332|10.1055/S-2006-962505|10.1055/S-2006-962543|10.1055/S-2006-962793|10.1055/S-2007-969314|10.1055/S-2007-969735|10.1055/S-2008-1074990|10.1071/CH10193|10.1076/PHBI.35.4.274.13311|10.1080/14786419.2012.688049|10.1081/JLC-100103396|10.1111/J.1438-8677.1994.TB00414.X|10.1111/J.2042-7158.1998.TB06924.X|10.1211/0022357011775893|10.1211/146080899128735009|10.1248/BPB.23.47|10.1248/CPB.42.2588|10.1248/CPB.51.595|10.1248/CPB.55.153|10.1248/CPB.57.245|10.1248/CPB.59.653|10.1248/CPB.60.121|10.1248/CPB.60.129|10.1248/YAKUSHI1947.103.9_994|10.1248/YAKUSHI1947.103.9_997|10.1248/YAKUSHI1947.109.3_175|10.1515/ZNB-2003-0713|10.1515/ZNB-2007-1117|10.1515/ZNC-1983-7-826|10.1515/ZNC-1986-1-214|10.1515/ZNC-1987-1-212|10.1515/ZNC-1991-1-207|10.1515/ZNC-1992-9-1025|10.1515/ZNC-1993-11-1221|10.1515/ZNC-1994-9-1022|10.1515/ZNC-1995-5-604|10.1515/ZNC-1997-3-401|10.1515/ZNC-2000-1-203|10.1515/ZNC-2008-5-611|10.1515/znc-2008-5-611|10.15228/2012.V02.I01.P04|10.15625/0866-708X/55/2/8608|10.21608/BFSA.1995.69671|10.21608/BFSA.1998.67958|10.21608/BFSA.2001.65917|10.2298/HEMIND0704272R|10.3109/13880208709055202|10.3390/NU11020402|10.3987/COM-04-10150|10.3987/COM-04-10314|10.4028/WWW.SCIENTIFIC.NET/AMR.554-556.1845|10.4268/CJCMM20112213|10.5935/0103-5053.19930007

>  <synonyms>  (492) 
nan

>  <cas>  (492) 
491-71-4

$$$$

     RDKit          2D

 27 31  0  0  0  0  0  0  0  0999 V2000
   -4.0112   -4.5399    0.0000 C   0  0  0  0  0  0  0  0  0  0  0  0
   -4.2244   -3.0551    0.0000 O   0  0  0  0  0  0  0  0  0  0  0  0
   -3.0451   -2.1281    0.0000 C   0  0  0  0  0  0  0  0  0  0  0  0
   -1.6527   -2.6859    0.0000 O   0  0  0  0  0  0  0  0  0  0  0  0
   -3.2582   -0.6433    0.0000 C   0  0  0  0  0  0  0  0  0  0  0  0
   -4.6507   -0.0855    0.0000 C   0  0  0  0  0  0  0  0  0  0  0  0
   -4.8638    1.3993    0.0000 O   0  0  0  0  0  0  0  0  0  0  0  0
   -3.6845    2.3262    0.0000 C   0  0  0  0  0  0  0  0  0  0  0  0
   -3.8977    3.8110    0.0000 C   0  0  0  0  0  0  0  0  0  0  0  0
   -2.2921    1.7684    0.0000 C   0  0  0  0  0  0  0  0  0  0  0  0
   -1.1128    2.6954    0.0000 C   0  0  0  0  0  0  0  0  0  0  0  0
    0.2796    2.1376    0.0000 N   0  0  0  0  0  0  0  0  0  0  0  0
    1.6259    2.7991    0.0000 C   0  0  0  0  0  0  0  0  0  0  0  0
    2.6710    1.7232    0.0000 C   0  0  0  0  0  0  0  0  0  0  0  0
    1.9707    0.3967    0.0000 C   0  0  0  0  0  0  0  0  0  0  0  0
    1.2704   -0.9298    0.0000 C   0  0  0  0  0  0  0  0  0  0  0  0
   -0.2143   -1.1429    0.0000 O   0  0  0  0  0  0  0  0  0  0  0  0
    2.3156   -2.0057    0.0000 N   0  0  0  0  0  0  0  0  0  0  0  0
    3.6619   -1.3442    0.0000 C   0  0  0  0  0  0  0  0  0  0  0  0
    5.0543   -1.9020    0.0000 C   0  0  0  0  0  0  0  0  0  0  0  0
    6.2336   -0.9750    0.0000 C   0  0  0  0  0  0  0  0  0  0  0  0
    6.0204    0.5098    0.0000 C   0  0  0  0  0  0  0  0  0  0  0  0
    4.6280    1.0676    0.0000 C   0  0  0  0  0  0  0  0  0  0  0  0
    3.4487    0.1406    0.0000 C   0  0  0  0  0  0  0  0  0  0  0  0
    0.4928    0.6528    0.0000 C   0  0  0  0  0  0  0  0  0  0  0  0
   -0.6865   -0.2741    0.0000 C   0  0  0  0  0  0  0  0  0  0  0  0
   -2.0789    0.2837    0.0000 C   0  0  0  0  0  0  0  0  0  0  0  0
  1  2  1  0
  2  3  1  0
  3  4  2  0
  3  5  1  0
  5  6  2  0
  6  7  1  0
  7  8  1  0
  8  9  1  1
  8 10  1  0
 10 11  1  1
 11 12  1  0
 12 13  1  0
 13 14  1  0
 15 14  1  1
 15 16  1  0
 16 17  2  0
 16 18  1  0
 18 19  1  0
 19 20  2  0
 20 21  1  0
 21 22  2  0
 22 23  1  0
 23 24  2  0
 15 25  1  0
 25 26  1  6
 27 26  1  6
 27  5  1  0
 27 10  1  0
 25 12  1  0
 24 15  1  0
 24 19  1  0
M  END
>  <identifier>  (493) 
CNP0159273.2

>  <canonical_smiles>  (493) 
COC(=O)C1=CO[C@@H](C)[C@H]2CN3CC[C@@]4(C(=O)NC5=CC=CC=C54)[C@@H]3C[C@H]12

>  <standard_inchi>  (493) 
InChI=1S/C21H24N2O4/c1-12-14-10-23-8-7-21(16-5-3-4-6-17(16)22-20(21)25)18(23)9-13(14)15(11-27-12)19(24)26-2/h3-6,11-14,18H,7-10H2,1-2H3,(H,22,25)/t12-,13-,14+,18-,21-/m0/s1

>  <standard_inchi_key>  (493) 
JMIAZDVHNCCPDM-NWQITLLVSA-N

>  <name>  (493) 
ISOMITRAPHYLLINE

>  <iupac_name>  (493) 
methyl (1~{S},4~{a}~{S},5~{a}~{S},6~{S},10~{a}~{R})-1-methyl-2'-oxo-spiro[1,4~{a},5,5~{a},7,8,10,10~{a}-octahydropyrano[3,4-f]indolizine-6,3'-indoline]-4-carboxylate

>  <annotation_level>  (493) 
5

>  <total_atom_count>  (493) 
51

>  <heavy_atom_count>  (493) 
27

>  <molecular_weight>  (493) 
368.43

>  <exact_molecular_weight>  (493) 
368.17361

>  <molecular_formula>  (493) 
C21H24N2O4

>  <alogp>  (493) 
2.06

>  <topological_polar_surface_area>  (493) 
67.87

>  <rotatable_bond_count>  (493) 
1

>  <hydrogen_bond_acceptors>  (493) 
5

>  <hydrogen_bond_donors>  (493) 
1

>  <hydrogen_bond_acceptors_lipinski>  (493) 
5

>  <hydrogen_bond_donors_lipinski>  (493) 
1

>  <lipinski_rule_of_five_violations>  (493) 
0

>  <aromatic_rings_count>  (493) 
1

>  <qed_drug_likeliness>  (493) 
0.77

>  <formal_charge>  (493) 
0

>  <fractioncsp3>  (493) 
0.52

>  <number_of_minimal_rings>  (493) 
5

>  <van_der_walls_volume>  (493) 
328.50

>  <contains_sugar>  (493) 
False

>  <contains_ring_sugars>  (493) 
False

>  <contains_linear_sugars>  (493) 
False

>  <murcko_framework>  (493) 
O1C=CC2CC3N(CCC43c5ccccc5NC4)CC2C1

>  <np_likeness>  (493) 
1.87

>  <chemical_class>  (493) 
Indoles and derivatives

>  <chemical_sub_class>  (493) 
Indoles

>  <chemical_super_class>  (493) 
Organoheterocyclic compounds

>  <direct_parent_classification>  (493) 
Indoles

>  <np_classifier_pathway>  (493) 
Alkaloids

>  <np_classifier_superclass>  (493) 
Tryptophan alkaloids

>  <np_classifier_class>  (493) 
Corynanthe type

>  <np_classifier_is_glycoside>  (493) 
False

>  <organisms>  (493) 
Cephalanthus glabratus|Cephalanthus tetrandra|Cephalanthus tetrandrus|Mitragyna Speciosa|Mitragyna diversifolia|Mitragyna hirsuta|Mitragyna hirsuta Havil|Mitragyna inermis|Mitragyna javanica Koord.et Val.var.microphylla Craib|Mitragyna parvifolia|Mitragyna speciosa|Mitragyna speciosa Korth.|Uncaria Homomalla|Uncaria Laevigata|Uncaria Lancifolia|Uncaria Scandens|Uncaria Sessilifructus|Uncaria africana|Uncaria callophylla|Uncaria elliptica|Uncaria elliptica R.Br.ex G.Don.|Uncaria guianensis|Uncaria hirsuta|Uncaria homomalla|Uncaria homomalla Miq.|Uncaria laevigata|Uncaria lancifolia|Uncaria lanosa|Uncaria longiflora|Uncaria orientalis|Uncaria perrottetii|Uncaria scandens|Uncaria sessilifructus|Uncaria sp.|Uncaria tomentosa|Uncaria veluntina

>  <collections>  (493) 
ChemSpider NPs|KNApSaCK|Latin America dataset|NuBBEDB|PhytoLab phyproof® Reference Substances|Super Natural II|TCMDB-Taiwan (Traditional Chinese Medicine database)|TIPdb (database of Taiwan indigenous plants)|VietHerb|WikiData Natural Products|ZINC NP

>  <dois>  (493) 
10.1002/PCA.740|10.1007/BF02269869|10.1007/S11418-006-0114-7|10.1016/0021-9673(92)80183-U|10.1016/0021-9673(94)80511-3|10.1016/0031-9422(73)80603-X|10.1016/0031-9422(73)85101-5|10.1016/J.JEP.2005.08.046|10.1016/J.PHYTOCHEM.2006.06.017|10.1016/S0031-9422(00)80276-9|10.1016/S0031-9422(01)00043-7|10.1016/S0031-9422(97)00061-7|10.1016/S0031-9422(97)00204-5|10.1016/S0378-8741(98)00113-5|10.1016/S0944-7113(00)80086-0|10.1016/S1876-0813(08)60219-5|10.1021/NP50020A008|10.1055/S-0028-1097190|10.1055/S-0028-1097410|10.1055/S-0028-1099979|10.1055/S-2001-15824|10.1055/S-2006-959780|10.1055/S-2006-961582|10.1071/CH9680491|10.1078/0944-7113-00117|10.1111/J.1365-2141.2005.05907.X|10.1590/S0100-40422004000600007|10.3390/MOLECULES200713422

>  <synonyms>  (493) 
nan

>  <cas>  (493) 
4963-01-3

$$$$

     RDKit          2D

 30 33  0  0  0  0  0  0  0  0999 V2000
   -7.2343    3.0259    0.0000 C   0  0  0  0  0  0  0  0  0  0  0  0
   -6.8319    1.5809    0.0000 C   0  0  0  0  0  0  0  0  0  0  0  0
   -5.3793    1.2068    0.0000 C   0  0  0  0  0  0  0  0  0  0  0  0
   -4.9769   -0.2382    0.0000 C   0  0  0  0  0  0  0  0  0  0  0  0
   -3.5243   -0.6123    0.0000 C   0  0  0  0  0  0  0  0  0  0  0  0
   -3.1220   -2.0573    0.0000 C   0  0  0  0  0  0  0  0  0  0  0  0
   -4.1722   -3.1283    0.0000 C   0  0  0  0  0  0  0  0  0  0  0  0
   -1.6694   -2.4314    0.0000 C   0  0  0  0  0  0  0  0  0  0  0  0
   -1.1182   -3.8264    0.0000 C   0  0  0  0  0  0  0  0  0  0  0  0
    0.3789   -3.7333    0.0000 C   0  0  0  0  0  0  0  0  0  0  0  0
    0.7530   -2.2807    0.0000 C   0  0  0  0  0  0  0  0  0  0  0  0
    2.0828   -1.5867    0.0000 C   0  0  0  0  0  0  0  0  0  0  0  0
    3.3487   -2.3913    0.0000 C   0  0  0  0  0  0  0  0  0  0  0  0
    4.6785   -1.6973    0.0000 C   0  0  0  0  0  0  0  0  0  0  0  0
    4.7424   -0.1987    0.0000 C   0  0  0  0  0  0  0  0  0  0  0  0
    6.0722    0.4953    0.0000 C   0  0  0  0  0  0  0  0  0  0  0  0
    6.1361    1.9940    0.0000 C   0  0  0  0  0  0  0  0  0  0  0  0
    7.4659    2.6880    0.0000 O   0  0  0  0  0  0  0  0  0  0  0  0
    4.8701    2.7986    0.0000 C   0  0  0  0  0  0  0  0  0  0  0  0
    3.5403    2.1046    0.0000 C   0  0  0  0  0  0  0  0  0  0  0  0
    3.4765    0.6060    0.0000 C   0  0  0  0  0  0  0  0  0  0  0  0
    2.2105    1.4106    0.0000 C   0  0  0  0  0  0  0  0  0  0  0  0
    2.1467   -0.0880    0.0000 C   0  0  0  0  0  0  0  0  0  0  0  0
    0.8807    0.7166    0.0000 C   0  0  0  0  0  0  0  0  0  0  0  0
   -0.4490    0.0226    0.0000 C   0  0  0  0  0  0  0  0  0  0  0  0
   -0.5129   -1.4761    0.0000 C   0  0  0  0  0  0  0  0  0  0  0  0
   -1.8560   -0.8081    0.0000 C   0  0  0  0  0  0  0  0  0  0  0  0
   -4.3291    2.2778    0.0000 C   0  0  0  0  0  0  0  0  0  0  0  0
   -4.7314    3.7228    0.0000 C   0  0  0  0  0  0  0  0  0  0  0  0
   -2.8764    1.9037    0.0000 C   0  0  0  0  0  0  0  0  0  0  0  0
  1  2  1  0
  3  2  1  1
  3  4  1  0
  4  5  1  0
  5  6  1  0
  6  7  1  6
  6  8  1  0
  8  9  1  6
  9 10  1  0
 11 10  1  6
 11 12  1  0
 12 13  1  1
 13 14  1  0
 14 15  1  0
 15 16  2  0
 16 17  1  0
 17 18  2  0
 17 19  1  0
 19 20  1  0
 20 21  1  0
 21 22  1  6
 21 23  1  0
 23 24  1  6
 24 25  1  0
 25 26  1  0
 26 27  1  6
  3 28  1  0
 28 29  1  0
 28 30  1  0
 26  8  1  0
 26 11  1  0
 23 12  1  0
 21 15  1  0
M  END
>  <identifier>  (494) 
CNP0192047.2

>  <canonical_smiles>  (494) 
CC[C@H](CC[C@@H](C)[C@H]1CC[C@H]2[C@@H]3CCC4=CC(=O)CC[C@]4(C)[C@H]3CC[C@]12C)C(C)C

>  <standard_inchi>  (494) 
InChI=1S/C29H48O/c1-7-21(19(2)3)9-8-20(4)25-12-13-26-24-11-10-22-18-23(30)14-16-28(22,5)27(24)15-17-29(25,26)6/h18-21,24-27H,7-17H2,1-6H3/t20-,21-,24+,25-,26+,27+,28+,29-/m1/s1

>  <standard_inchi_key>  (494) 
RUVUHIUYGJBLGI-XJZKHKOHSA-N

>  <name>  (494) 
Stigmast-4-en-3-one

>  <iupac_name>  (494) 
(8~{S},9~{S},10~{R},13~{R},14~{S},17~{R})-17-[(1~{R},4~{R})-4-ethyl-1,5-dimethyl-hexyl]-10,13-dimethyl-1,2,6,7,8,9,11,12,14,15,16,17-dodecahydrocyclopenta[a]phenanthren-3-one

>  <annotation_level>  (494) 
5

>  <total_atom_count>  (494) 
78

>  <heavy_atom_count>  (494) 
30

>  <molecular_weight>  (494) 
412.7

>  <exact_molecular_weight>  (494) 
412.37052

>  <molecular_formula>  (494) 
C29H48O

>  <alogp>  (494) 
8.23

>  <topological_polar_surface_area>  (494) 
17.07

>  <rotatable_bond_count>  (494) 
6

>  <hydrogen_bond_acceptors>  (494) 
1

>  <hydrogen_bond_donors>  (494) 
0

>  <hydrogen_bond_acceptors_lipinski>  (494) 
1

>  <hydrogen_bond_donors_lipinski>  (494) 
0

>  <lipinski_rule_of_five_violations>  (494) 
1

>  <aromatic_rings_count>  (494) 
0

>  <qed_drug_likeliness>  (494) 
0.43

>  <formal_charge>  (494) 
0

>  <fractioncsp3>  (494) 
0.90

>  <number_of_minimal_rings>  (494) 
4

>  <van_der_walls_volume>  (494) 
441.12

>  <contains_sugar>  (494) 
False

>  <contains_ring_sugars>  (494) 
False

>  <contains_linear_sugars>  (494) 
False

>  <murcko_framework>  (494) 
C1=C2CCC3C(CCC4CCCC43)C2CCC1

>  <np_likeness>  (494) 
2.40

>  <chemical_class>  (494) 
Steroids and steroid derivatives

>  <chemical_sub_class>  (494) 
Stigmastanes and derivatives

>  <chemical_super_class>  (494) 
Lipids and lipid-like molecules

>  <direct_parent_classification>  (494) 
Stigmastanes and derivatives

>  <np_classifier_pathway>  (494) 
Terpenoids

>  <np_classifier_superclass>  (494) 
Steroids

>  <np_classifier_class>  (494) 
Stigmastane steroids

>  <np_classifier_is_glycoside>  (494) 
False

>  <organisms>  (494) 
Acacia sparsiflora|Achyranthes bidentata|Acicarpha tribuloides|Aconitum fauriei|Aconitum palmatum|Aconitum subcuneatum|Aconitum tianschanicum|Acronychia haplophylla|Aeonium cuneatum|Aesculus hippocastanum|Agave shawii|Ailanthus altissima|Alaria crispa|Albatrellus caeruleoporus|Aleurites moluccanus|Alligator sinensis|Allium neapolitanum|Allophylus laevigatus|Alsophila gigantea|Amanita pseudoporphyria|Amauris niavius|Ambrosia grayi|Ammodendron karelinii|Amomum sulcatum|Anacyclus pyrethrum|Anatheca montagnei|Anemone coronaria|Ania latifolia|Aniba rosaeodora|Annona montana|Anthocleista djalonensis|Anthopleura xanthogrammica|Antidesma ghaesembilla|Antrodia camphorata|Aplysilla rosea|Aplysinella rhax|Arachniodes mutica|Aralia bipinnata|Aralia continentalis|Arbacia pustulosa|Arenaria juncea|Ariocarpus fissuratus|Aristolochia birostris|Aristolochia mollissima|Aristolochia triangularis|Aristolochia zollingeriana|Artemisia arbuscula|Artemisia gypsacea|Artemisia lactiflora|Arum italicum|Ascotricha chartarum|Aspergillus pseudodeflectus|Asplenium adiantum-nigrum|Asplenium ruprechtii|Aster conspicuus|Aster tataricus|Astrantia major|Astroloma humifusum|Attalea excelsa|Austrobaileya scandens|Austrocylindropuntia cylindrica|Baeomyces roseus|Bassia longifolia|Begonia nantoensis|Beilschmiedia|Beilschmiedia tsangii|Berberis fremontii|Betula platyphylla|Bidens tripartita|Bitis arietans|Blainvillea acmella|Boronella koniambiensis|Boronia koniambiensis|Bosistoa floydii|Brachylaena perrieri|Brucea javanica|Buglossoides arvensis|Burkholderia pyrrocinia|Byssothecium obiones|Cacalia robusta|Caiman crocodilus|Callicarpa pilosissima|Calotropis gigantea|Camellia sasanqua|Cannabis sativa|Capsella bursa-pastoris|Carpesium faberi|Carpinus cordata|Casearia membranacea|Cassia artemisioides|Cassia javanica subsp. nodosa|Castanea dentata|Catalpa ovata|Cecropia pachystachya|Centaurea arbutifolia|Centaurea dealbata|Centaurea musimomum|Cetraria komarovii|Chamaecyparis formosensis|Chamaecyparis obtusa|Chamaecyparis pisifera|Cheilanthes mysurensis|Chlamydomonas allensworthii|Chorisia insignis|Chorisia speciosa|Cinnamomum kotoense|Cinnamomum tenuifolium|Cipadessa boivinina|Citrus hassaku|Citrus reshni|Cladonia pityrea|Claviceps microcephala|Cleome africana|Cleome amblyocarpa|Clitocybula oculus|Cnidium monnieri|Codonopsis cordifolioidea|Conium maculatum|Convallaria keiskei|Coprosma australis|Corydalis sewerzowi|Corymbia citriodora|Coutarea latifolia|Crematogaster africana|Crepidiastrum sonchifolium|Crinum giganteum|Crotalaria ferruginea|Croton hieronymi|Croton lechleri|Croton lechleri Mull.Arg.|Crotone hieronymi|Cryptocarya idenburgensis|Cryptolestes pusillus|Ctenodiscus crispatus|Curcuma longa|Cuscuta australis|Cybister confusus|Cycas armstrongii|Cycas revoluta|Cylas formicarius|Cymodocea nodosa|Cynoctonum wilfordii|Cynoglossum gansuense|Cynomorium songaricum|Dacrycarpus imbricatus|Dahlstedtia pentaphylla|Dasystenella acanthina|Dendrobium loddigesii|Dendrodoris limbata|Dictamnus albus|Dictamnus angustifolius|Dictyota ciliolata|Didymochlaena truncatula|Diospyros eriantha|Diospyros maritima|Diospyros rhodocalyx|Diplotropis ferruginea|Dipsacus asper|Dirca occidentalis|Distemonanthus benthamianus|Doris montereyensis|Drypetes littoralis|Duddingtonia flagrans|Duguetia calycina|Duhaldea cappa|Echinops kebericho|Edgeworthia gardneri|Egregia menziesii|Elaphoglossum lindbergii|Elettaria cardamomum|Eleutherococcus senticosus|Elsholtzia ciliata|Engelhardia roxburghiana|Ephedra aphylla|Epirrhoe sperryi|Eriostemon spicatus|Erium villosum|Erylus nobilis|Etlingera elatior|Eucalyptus citriodora|Eucalyptus globulus|Eucalyptus regnans|Eucalyptus viminalis|Eugenia exsucca|Euonymus alatus|Euphausia superba|Euphorbia helioscopia|Euphorbia iberica|Euphorbia jaxartica|Euphorbia pedroi|Euphorbia portlandica|Euphrasia regelii|Eutreptia viridis|Evasterias troschelii|Evodiopanax innovans|Ferula ammoniacum|Flavoparmelia caperata|Flemingia philippinensis|Flueggea microcarpa|Friesodielsia velutina|Garberia heterophylla|Garcinia multiflora|Garcinia pyrifera|Gardenia gordoni|Genista sessilifolia|Gentiana strictiflora|Glinus oppositifolius|Gloiopeltis furcata|Glyptopetalum sclerocarpum|Gomphostemma parviflorum|Gossypium herbaceum|Greenwayodendron oliveri|Grindelia perennis|Harrisonia abyssinica|Hedysarum sachalinense|Helminthosporium victoriae|Heloderma suspectum|Herbertus aduncus|Hibiscus cannabinus|Hippobroma longiflora|Hippospongia gossypina|Homalolepis cuneata|Hopea jucunda|Hortonia angustifolia|Houttuynia cordata|Humicola grisea|Hymenothrix wislizenii|Hypericum japonicum|Hyrtios reticulatus|Ibacus peronii|Inocybe aeruginascens|Inula Cappa|Inula cappa|Jacaranda chelonia|Jasione montana|Jatropha gossypiifolia|Julbernardia globifera|Juniperus brevifolia|Juniperus formosana|Jurinea maxima|Khaya grandifoliola|Kleinia tomentosa|Laggera alata|Laggera pterodonta|Lambertella corni|Larix kaempferi|Larix kaempferi (Lamb.) Carr|Lecidea speirodes|Lepidorhinus squamosus|Lessertia frutescens|Leucocarpus perfoliatus|Licaria armeniaca|Ligularia dentata|Ligularia dentata Hara|Limonium wrightii|Lithospermum canescens|Lobophora variegata|Lonchocarpus urucu|Machaerium kuhlmannii|Machilus odoratissima|Machilus zuihoensis|Macrosiphum liriodendri|Magnolia biondii|Magnolia kachirachirai|Malayopython reticulatus|Malleastrum boivinianum|Mallotus repandus|Malva rotundifolia|Mammillaria magnimamma|Mandevilla martiana|Maytenus guianensis|Medicosma fareana|Meiogyne virgata|Melaleuca leucadendra|Melanocarpus albomyces|Melia azedarach|Melia azedarach var. toosendan|Mentha sylvestris|Micromelum integerrimum|Micromonas pusilla|Microtropis fokienensis|Microtropis japonica|Miliusa balansae|Mimusops laurifolia|Mimusops manilkara|Monanchora pulchra|Monteverdia guyanensis|Morinda citrifolia|Mosla chinensis|Munronia delavayi|Muntingia calabura|Murraya koenigii|Murrayella periclados|Mycetia nutans|Myriactis humilis|Myristica argentea|Myrrhis odorata|Myrtus tomentosa|Mytilus galloprovincialis|Naja naja|Nectandra puberula|Nectandra turbacensis|Nelumbo nucifera|Neolitsea aciculata|Neolitsea sericea|Neonectria candida|Nothapodytes nimmoniana|Notonia grandiflora|Onoseris alata|Ophiomastix mixta|Ophiopholis aculeata|Ophryosporus floribundus|Oreocnide frutescens|Oscillatoria raoi|Othonna macrophylla|Pachybasium candidum|Papaver glaucum|Patrinia scabiosifolia|Patrinia villosa|Payena lucida|Pellia epiphylla|Pellia neesiana|Penicillium abidjanum|Pentaceraster regulus|Pentachondra pumila|Periconia atropurpurea|Persicaria filiformis|Petrosia corticata|Phagnalon rupestre|Phalaris canariensis|Phallusia nigra|Phlomis ostrowskiana|Phlox decussata|Phoenix dactylifera|Phoma linga|Photinia lucida|Phyllanthus oxyphyllus|Picea obovata|Piliostigma thonningii|Pilocarpus grandiflorus|Pimpinella peregrina|Pinellia ternata|Pinna nobilis|Pinus monticola|Pinus radiata|Pinus sibirica|Piper acutifolium|Piper kwashoense|Piper philippinum|Piper sintenense|Pistacia atlantica|Plakortis lita|Platycladus orientalis|Plectocephalus chilensis|Plenckia populnea|Plumbagella micrantha|Plumbago pulchella|Plumeria alba|Podospora decipiens|Pogostemon cablin|Polygala ruwenzoriensis|Pontederia africana|Portulaca oleracea|Postia guttulata|Pourthiaea arguta|Prunus africana|Pseudotsuga sinensis var. sinensis|Pseudotsuga wilsoniana|Psiadia anchusifolia|Psilotum nudum|Pteridium aquilinum|Quassia Amara|Quassia amara|Quercus laurifolia|Quercus suber|Radermachera boniana|Radopholus similis|Rapanea neurophylla|Raputia simulans|Rhinacanthus nasutus|Rhizobium etli|Rhodomyrtus tomentosa|Rivina humilis|Robinsonia thurifera|Rogeria adenophylla|Rosa hybrid cultivar|Rumex conglomeratus|Salix petiolaris|Salvia amplexicaulis|Salvia amplexicaulis Lam.|Salvia divaricata|Salvia lanigera|Salvia multicaulis|Salvia nemorosa|Salvia pisidica|Salvia staminea|Salvia × sylvestris|Samadera indica|Sarcophyton latum|Sarcotragus spinosulus|Sargentodoxa cuneata|Saussurea hieracioides|Saussurea superba|Schizopelte californica|Schlumbergera truncata|Schnella guianensis|Scolytus multistriatus|Scrophularia buergeriana|Scutellaria baicalensis|Scymnorhinus lichia|Scytonema ocellatum|Senecio desfontainei|Senecio zoellneri|Senna didymobotrya|Senna multijuga|Sideritis perfoliata|Silene inflata|Sindora sumatrana|Solanum crinitum|Solanum diflorum|Sorocea ilicifolia|Sphacelaria arctica|Sphaerella rubella|Sphaerophysa salsula|Spilanthes acmella|Staehelina fruticosa|Stelletta clarella|Stemodia maritima|Streptomyces fradiae|Streptomyces globisporus|Streptomyces griseocarneus|Streptomyces microflavus|Streptomyces prasinopilosus|Streptomyces prunicolor|Streptomyces sulfonofaciens|Streptomyces tateyamensis|Streptomyces xanthocidicus|Streptomyces yokosukanensis|Stylotrichium rotundifolium|Suillus bovinus|Syzygium jambos|Tachardia acaciae|Taiwanofungus camphoratus|Takifugu rubripes|Tanacetum parthenifolium|Taxus mairei|Teucrium canadense|Thermothelomyces thermophila|Thesium humile|Thujopsis dolabrata|Tilia vulgaris|Tornabea scutellifera|Tovomita choisyana|Tovomita excelsa|Trapa bicornis|Trichilia|Trichilia estipulata|Trichilia hirta|Trifolium hybridum|Tubocapsicum anomalum|Typha domingensis|Typha latifolia|Uncaria longiflora|Uperoleia inundata|Ursinia speciosa|Urtica dioica|Vallaris heynei|Vellozia streptophylla|Veronica intercedens|Viscum coloratum|Werneria decora|Wikstroemia lanceolata|Xanthium sibiricum|Xanthium strumarium|Xylocarpus moluccensis|Xylopia vielana|Xyris indica|Zanthoxylum chiloperone|Zanthoxylum dimorphophyllum|Zanthoxylum parviflorum|Zanthoxylum simulans|Zanthoxylum wutaiense|Zea Mays|Zea mays L.|Zingiber zerumbet|Zygosaccharomyces rouxii|maize

>  <collections>  (494) 
ANPDB|Australian natural products|CMAUP (cCollective molecular activities of useful plants)|ChEBI NPs|ChemSpider NPs|EMNPD|KNApSaCK|Latin America dataset|NANPDB (Natural Products from Northern African Sources)|NPASS|NuBBEDB|SANCDB|Super Natural II|TCMDB-Taiwan (Traditional Chinese Medicine database)|TIPdb (database of Taiwan indigenous plants)|VietHerb|WikiData Natural Products

>  <dois>  (494) 
10.1002/1099-1565(200011/12)11:6<345::AID-PCA540>3.0.CO;2-T|10.1002/ARDP.19803130604|10.1002/CBDV.200900198|10.1002/CHIN.200434239|10.1002/HLCA.200790079|10.1002/HLCA.201000289|10.1002/JCCS.199300062|10.1002/JCCS.199400028|10.1002/JCCS.199800016|10.1002/JCCS.199800048|10.1002/JCCS.200000074|10.1002/JCCS.200400035|10.1002/JCCS.200400099|10.1002/JCCS.200400100|10.1002/JCCS.200500117|10.1002/JHRC.1240090210|10.1002/PTR.1003|10.1002/PTR.3346|10.1002/PTR.865|10.1002/hlca.200890229|10.1002/ptr.1003|10.1007/BF00568712|10.1007/BF00630021|10.1007/BF00630431|10.1007/BF02532172|10.1007/BF02977795|10.1007/S10600-010-9659-5|10.1007/S10600-011-9919-Z|10.1007/S11418-007-0156-5|10.1007/S12272-010-0904-Z|10.1016/0031-9422(83)80054-5|10.1016/0031-9422(88)80455-2|10.1016/0031-9422(88)83126-1|10.1016/0031-9422(90)80195-M|10.1016/0031-9422(92)80369-P|10.1016/0031-9422(92)80374-N|10.1016/0031-9422(92)90048-U|10.1016/0031-9422(93)85483-8|10.1016/0031-9422(93)85532-V|10.1016/0031-9422(94)00901-5|10.1016/0031-9422(94)00943-N|10.1016/0031-9422(95)00072-F|10.1016/0031-9422(95)00121-M|10.1016/0031-9422(95)00427-9|10.1016/0031-9422(95)00877-2|10.1016/0039-128X(82)90021-6|10.1016/J.FITOTE.2004.04.012|10.1016/J.FITOTE.2004.09.018|10.1016/J.FITOTE.2010.05.008|10.1016/J.PHYTOCHEM.2005.03.020|10.1016/J.PHYTOCHEM.2005.05.001|10.1016/J.PHYTOCHEM.2007.01.018|10.1016/J.PHYTOCHEM.2007.05.003|10.1016/J.PHYTOCHEM.2007.07.026|10.1016/J.PHYTOCHEM.2012.06.001|10.1016/J.STEROIDS.2005.09.004|10.1016/J.TET.2003.10.023|10.1016/S0031-9422(00)00344-7|10.1016/S0031-9422(00)80565-8|10.1016/S0031-9422(00)81263-7|10.1016/S0031-9422(00)81449-1|10.1016/S0031-9422(00)81525-3|10.1016/S0031-9422(00)81526-5|10.1016/S0031-9422(00)82257-8|10.1016/S0031-9422(00)84127-8|10.1016/S0031-9422(00)90672-1|10.1016/S0031-9422(00)95166-5|10.1016/S0031-9422(00)95214-2|10.1016/S0031-9422(03)00202-4|10.1016/S0031-9422(03)00225-5|10.1016/S0031-9422(96)00512-2|10.1016/S0031-9422(97)00280-X|10.1016/S0031-9422(97)00414-7|10.1016/S0031-9422(97)00540-2|10.1016/S0031-9422(97)00671-7|10.1016/S0031-9422(98)00234-9|10.1016/S0031-9422(98)00302-1|10.1016/S0031-9422(98)00519-6|10.1016/S0031-9422(99)00291-5|10.1016/S0040-4020(01)85914-7|10.1016/S0305-1978(03)00098-X|10.1016/S0367-326X(00)00155-6|10.1016/S0367-326X(00)00314-2|10.1016/S0378-8741(04)00117-5|10.1016/S0944-7113(99)80041-5|10.1016/j.phytochem.2012.06.001|10.1021/NP0002886|10.1021/NP0005560|10.1021/NP0205856|10.1021/NP040098L|10.1021/NP040098L.S001|10.1021/NP050013W|10.1021/NP050351X|10.1021/NP0580210|10.1021/NP060500R|10.1021/NP070045E|10.1021/NP200022B|10.1021/NP50008A001|10.1021/NP50035A039|10.1021/NP50072A005|10.1021/NP50111A014|10.1021/NP700719E|10.1021/NP800097T|10.1021/NP8006364|10.1021/NP800721F|10.1021/NP900225P|10.1021/acs.jnatprod.8b00326|10.1021/np200022b|10.1055/S-0028-1097188|10.1055/S-0029-1234987|10.1055/S-0029-1234988|10.1055/S-2000-11120|10.1055/S-2001-18359|10.1055/S-2002-35660|10.1055/S-2003-39705|10.1055/S-2003-41120|10.1055/S-2004-815540|10.1055/S-2005-864107|10.1055/S-2005-916220|10.1055/S-2006-957703|10.1055/S-2006-958085|10.1055/S-2006-959402|10.1055/S-2006-962709|10.1055/s-0028-1097188|10.1055/s-0043-110141|10.1071/C97195|10.1071/CH9732729|10.1080/10286020310001617192|10.1080/10575639408043928|10.1080/14786419.2010.539182|10.1177/1934578x1100600614|10.1248/CPB.42.138|10.1248/CPB.42.941|10.1248/CPB.44.1033|10.1248/CPB.48.1726|10.1248/CPB.52.345|10.1248/CPB.54.1063|10.1248/CPB.55.1258|10.1248/CPB.55.153|10.1271/BBB1961.48.2523|10.1515/ZNB-2005-0715|10.1515/hf.1999.079|10.1590/S0102-695X2011005000107|10.1590/S0103-50532004000500021|10.1590/S0103-50532011000700021|10.2298/JSC110206128R|10.3109/13880209009082805|10.3390/MOLECULES14020850|10.3390/MOLECULES23030604|10.3987/COM-03-9777|10.4268/CJCMM20120413|10.5012/BKCS.2011.32.1.127

>  <synonyms>  (494) 
(8S,9S,10R,13R,14S,17R)-17-[(2R,5R)-5-ethyl-6-methylheptan-2-yl]-10,13-dimethyl-1,2,6,7,8,9,11,12,14,15,16,17-dodecahydrocyclopenta[a]phenanthren-3-one|.DELTA.4-Sitosterol-3-one|1058-61-3|24(R)-Stigmast-7,22 (E)-dien-3a-ol|24-Eceo|24-Ethyl-4-cholesten-3-one|3-oxo-24-ethyl-cholest-4-ene|4-Sitosterol-3-one; -Rosasterol oxide; -Sitost-4-en-3-one; -Sitostenone|4-Stigmasten-3-one|4-stigmasta-ene-3-one|67392-96-5|CHEBI:68105|CHEMBL66926|CS-0016639|DTXSID50862519|FS-10107|HY-N1238|NSC 49082|Q27136596|SCHEMBL873360|Sitostenone|Sitostenone, Stigmast-4-en-3-one|Stigmast-4-en-3-one, (24xi)-|_-sitostenone|beta-sitostenone|stigmast-4-ene-3-one

>  <cas>  (494) 
1058-61-3|67392-96-5

$$$$

     RDKit          2D

 21 24  0  0  0  0  0  0  0  0999 V2000
   -7.0161    1.4081    0.0000 C   0  0  0  0  0  0  0  0  0  0  0  0
   -6.2376    0.1259    0.0000 O   0  0  0  0  0  0  0  0  0  0  0  0
   -4.7380    0.1591    0.0000 C   0  0  0  0  0  0  0  0  0  0  0  0
   -4.0168    1.4744    0.0000 C   0  0  0  0  0  0  0  0  0  0  0  0
   -2.5172    1.5075    0.0000 C   0  0  0  0  0  0  0  0  0  0  0  0
   -1.7387    0.2254    0.0000 C   0  0  0  0  0  0  0  0  0  0  0  0
   -2.4598   -1.0899    0.0000 C   0  0  0  0  0  0  0  0  0  0  0  0
   -3.9594   -1.1230    0.0000 C   0  0  0  0  0  0  0  0  0  0  0  0
   -1.6813   -2.3720    0.0000 O   0  0  0  0  0  0  0  0  0  0  0  0
   -0.1816   -2.3389    0.0000 C   0  0  0  0  0  0  0  0  0  0  0  0
    0.5395   -1.0236    0.0000 C   0  0  0  0  0  0  0  0  0  0  0  0
   -0.2390    0.2586    0.0000 C   0  0  0  0  0  0  0  0  0  0  0  0
    0.7398    1.3952    0.0000 O   0  0  0  0  0  0  0  0  0  0  0  0
    2.1232    0.8155    0.0000 C   0  0  0  0  0  0  0  0  0  0  0  0
    3.4797    1.4558    0.0000 C   0  0  0  0  0  0  0  0  0  0  0  0
    4.7124    0.6011    0.0000 C   0  0  0  0  0  0  0  0  0  0  0  0
    6.0689    1.2414    0.0000 O   0  0  0  0  0  0  0  0  0  0  0  0
    7.3017    0.3867    0.0000 C   0  0  0  0  0  0  0  0  0  0  0  0
    4.5887   -0.8938    0.0000 C   0  0  0  0  0  0  0  0  0  0  0  0
    3.2322   -1.5340    0.0000 C   0  0  0  0  0  0  0  0  0  0  0  0
    1.9994   -0.6794    0.0000 C   0  0  0  0  0  0  0  0  0  0  0  0
  1  2  1  0
  2  3  1  0
  3  4  2  0
  4  5  1  0
  5  6  2  0
  6  7  1  0
  7  8  2  0
  7  9  1  0
  9 10  1  0
 10 11  1  0
 11 12  2  0
 12 13  1  0
 13 14  1  0
 14 15  2  0
 15 16  1  0
 16 17  1  0
 17 18  1  0
 16 19  2  0
 19 20  1  0
 20 21  2  0
  8  3  1  0
 21 11  1  0
 12  6  1  0
 21 14  1  0
M  END
>  <identifier>  (495) 
CNP0157494.0

>  <canonical_smiles>  (495) 
COC1=CC=C2C(=C1)OCC1=C2OC2=CC(OC)=CC=C12

>  <standard_inchi>  (495) 
InChI=1S/C17H14O4/c1-18-10-4-6-13-15(7-10)20-9-14-12-5-3-11(19-2)8-16(12)21-17(13)14/h3-8H,9H2,1-2H3

>  <standard_inchi_key>  (495) 
FLEXCYTURSFUNC-UHFFFAOYSA-N

>  <name>  (495) 
Dehydrovariabilin

>  <iupac_name>  (495) 
3,9-dimethoxy-6~{H}-benzofuro[3,2-c]chromene

>  <annotation_level>  (495) 
5

>  <total_atom_count>  (495) 
35

>  <heavy_atom_count>  (495) 
21

>  <molecular_weight>  (495) 
282.29

>  <exact_molecular_weight>  (495) 
282.08921

>  <molecular_formula>  (495) 
C17H14O4

>  <alogp>  (495) 
4.01

>  <topological_polar_surface_area>  (495) 
40.83

>  <rotatable_bond_count>  (495) 
2

>  <hydrogen_bond_acceptors>  (495) 
4

>  <hydrogen_bond_donors>  (495) 
0

>  <hydrogen_bond_acceptors_lipinski>  (495) 
4

>  <hydrogen_bond_donors_lipinski>  (495) 
0

>  <lipinski_rule_of_five_violations>  (495) 
0

>  <aromatic_rings_count>  (495) 
3

>  <qed_drug_likeliness>  (495) 
0.71

>  <formal_charge>  (495) 
0

>  <fractioncsp3>  (495) 
0.18

>  <number_of_minimal_rings>  (495) 
4

>  <van_der_walls_volume>  (495) 
245.09

>  <contains_sugar>  (495) 
False

>  <contains_ring_sugars>  (495) 
False

>  <contains_linear_sugars>  (495) 
False

>  <murcko_framework>  (495) 
o1c2ccccc2c3c1-c4ccccc4OC3

>  <np_likeness>  (495) 
0.74

>  <chemical_class>  (495) 
Isoflavonoids

>  <chemical_sub_class>  (495) 
Furanoisoflavonoids

>  <chemical_super_class>  (495) 
Phenylpropanoids and polyketides

>  <direct_parent_classification>  (495) 
Pterocarpans

>  <np_classifier_pathway>  (495) 
Shikimates and Phenylpropanoids

>  <np_classifier_superclass>  (495) 
Isoflavonoids

>  <np_classifier_class>  (495) 
Pterocarpan

>  <np_classifier_is_glycoside>  (495) 
False

>  <organisms>  (495) 
Bobgunnia madagascariensis|Dalbergia decipularis|Ononis viscosa|Swartzia madagascariensis

>  <collections>  (495) 
GNPS (Global Natural Products Social Molecular Networking)|KNApSaCK|Latin America dataset|NPEdia|NuBBEDB|Super Natural II|UNPD (Universal Natural Products Database)|WikiData Natural Products|ZINC NP

>  <dois>  (495) 
10.1016/S0031-9422(00)90130-4|10.1016/S0031-9422(00)97037-7|10.1039/J39690001109

>  <synonyms>  (495) 
1433-08-5|3,9-Dimethoxy-6H-[1]benzofuro[3,2-c]chromene|3,9-Dimethoxy-6H-benzofuro[3,2-c][1]benzopyran|3,9-Dimethoxypterocarp-6a(11a)-en|3,9-Dimethoxypterocarpene|39-dimethoxy-pterocarpda-6a-en, Anhydrovariabilin|6H-Benzofuro[3,2-c][1]benzopyran, 3,9-dimethoxy-|AKOS000277249|Anhydrovariabilin|BSPBio_001678|CCG-38365|CHEBI:193182|CHEMBL1520512|DB-228486|DTXSID801347841|KBio2_000462|KBio2_003030|KBio2_005598|KBio3_001178|KBioGR_002031|KBioSS_000462|LMPK12070150|MFCD00600029|NCGC00095524-01|NCGC00179096-01|SCHEMBL13657398|SDCCGMLS-0066548.P001|SPBio_000215|SPECTRUM210658|SR-05000002528|SY353249|Spectrum2_000058|Spectrum3_000259|Spectrum4_001626|Spectrum5_000411|Spectrum_000062|dehydrovariabilin

>  <cas>  (495) 
1433-08-5

$$$$

     RDKit          2D

 35 39  0  0  0  0  0  0  0  0999 V2000
   -0.2295    4.7866    0.0000 C   0  0  0  0  0  0  0  0  0  0  0  0
   -1.0557    3.5347    0.0000 C   0  0  0  0  0  0  0  0  0  0  0  0
   -2.5542    3.4673    0.0000 O   0  0  0  0  0  0  0  0  0  0  0  0
   -2.9532    2.0213    0.0000 C   0  0  0  0  0  0  0  0  0  0  0  0
   -4.2947    1.3503    0.0000 C   0  0  0  0  0  0  0  0  0  0  0  0
   -4.3844   -0.1470    0.0000 C   0  0  0  0  0  0  0  0  0  0  0  0
   -5.7259   -0.8181    0.0000 O   0  0  0  0  0  0  0  0  0  0  0  0
   -3.1325   -0.9733    0.0000 C   0  0  0  0  0  0  0  0  0  0  0  0
   -2.2387   -2.1779    0.0000 C   0  0  0  0  0  0  0  0  0  0  0  0
   -4.1636   -2.0627    0.0000 C   0  0  0  0  0  0  0  0  0  0  0  0
   -1.7909   -0.3023    0.0000 C   0  0  0  0  0  0  0  0  0  0  0  0
   -0.5390   -1.1286    0.0000 C   0  0  0  0  0  0  0  0  0  0  0  0
   -0.6287   -2.6259    0.0000 C   0  0  0  0  0  0  0  0  0  0  0  0
   -1.9702   -3.2969    0.0000 O   0  0  0  0  0  0  0  0  0  0  0  0
    0.6232   -3.4522    0.0000 O   0  0  0  0  0  0  0  0  0  0  0  0
    0.5336   -4.9495    0.0000 C   0  0  0  0  0  0  0  0  0  0  0  0
   -1.7013    1.1950    0.0000 C   0  0  0  0  0  0  0  0  0  0  0  0
   -2.0788    2.6468    0.0000 C   0  0  0  0  0  0  0  0  0  0  0  0
   -0.5286    2.1303    0.0000 C   0  0  0  0  0  0  0  0  0  0  0  0
    0.6441    3.0656    0.0000 C   0  0  0  0  0  0  0  0  0  0  0  0
    1.8960    2.2393    0.0000 C   0  0  0  0  0  0  0  0  0  0  0  0
    3.3003    2.7665    0.0000 O   0  0  0  0  0  0  0  0  0  0  0  0
    1.4970    0.7934    0.0000 C   0  0  0  0  0  0  0  0  0  0  0  0
    2.9802    1.0170    0.0000 C   0  0  0  0  0  0  0  0  0  0  0  0
   -0.0015    0.7260    0.0000 C   0  0  0  0  0  0  0  0  0  0  0  0
   -0.6924   -0.6054    0.0000 C   0  0  0  0  0  0  0  0  0  0  0  0
    0.1152   -1.8694    0.0000 C   0  0  0  0  0  0  0  0  0  0  0  0
   -0.2330   -3.3285    0.0000 O   0  0  0  0  0  0  0  0  0  0  0  0
    1.6137   -1.8021    0.0000 O   0  0  0  0  0  0  0  0  0  0  0  0
    2.3046   -0.4707    0.0000 C   0  0  0  0  0  0  0  0  0  0  0  0
    3.8031   -0.4033    0.0000 C   0  0  0  0  0  0  0  0  0  0  0  0
    4.6294    0.8486    0.0000 C   0  0  0  0  0  0  0  0  0  0  0  0
    6.0753    0.4496    0.0000 O   0  0  0  0  0  0  0  0  0  0  0  0
    6.1427   -1.0489    0.0000 C   0  0  0  0  0  0  0  0  0  0  0  0
    4.7384   -1.5760    0.0000 C   0  0  0  0  0  0  0  0  0  0  0  0
  1  2  2  0
  2  3  1  0
  3  4  1  0
  4  5  2  0
  5  6  1  0
  6  7  2  0
  6  8  1  0
  8  9  1  0
  8 10  1  0
  8 11  1  0
 11 12  1  6
 12 13  1  0
 13 14  2  0
 13 15  1  0
 15 16  1  0
 11 17  1  0
 17 18  1  6
 17 19  1  0
 19 20  1  1
 20 21  1  0
 21 22  1  1
 21 23  1  0
 23 24  1  6
 23 25  1  0
 25 26  2  0
 26 27  1  0
 27 28  2  0
 27 29  1  0
 29 30  1  0
 30 31  1  6
 31 32  2  0
 32 33  1  0
 33 34  1  0
 34 35  2  0
 19  2  1  0
 30 23  1  0
 35 31  1  0
 17  4  1  0
 25 19  1  0
M  END
>  <identifier>  (496) 
CNP0406105.1

>  <canonical_smiles>  (496) 
C=C1OC2=CC(=O)C(C)(C)[C@@H](CC(=O)OC)[C@]2(C)[C@]12C[C@@H](O)[C@]1(C)C2=CC(=O)O[C@H]1C1=COC=C1

>  <standard_inchi>  (496) 
InChI=1S/C27H30O8/c1-14-27(26(5)16(9-21(30)32-6)24(2,3)18(28)11-20(26)34-14)12-19(29)25(4)17(27)10-22(31)35-23(25)15-7-8-33-13-15/h7-8,10-11,13,16,19,23,29H,1,9,12H2,2-6H3/t16-,19-,23+,25+,26+,27-/m1/s1

>  <standard_inchi_key>  (496) 
AODYSYKOHYKFBI-PWTSMHGCSA-N

>  <name>  (496) 
nan

>  <iupac_name>  (496) 
methyl 2-[(1'~{S},3~{R},3~{a}~{R},4~{S},7'~{R},7'~{a}~{S})-1'-(3-furyl)-7'-hydroxy-3~{a},5,5,7'~{a}-tetramethyl-2-methylene-3',6-dioxo-spiro[4~{H}-benzofuran-3,5'-6,7-dihydro-1~{H}-cyclopenta[c]pyran]-4-yl]acetate

>  <annotation_level>  (496) 
4

>  <total_atom_count>  (496) 
65

>  <heavy_atom_count>  (496) 
35

>  <molecular_weight>  (496) 
482.53

>  <exact_molecular_weight>  (496) 
482.19407

>  <molecular_formula>  (496) 
C27H30O8

>  <alogp>  (496) 
3.78

>  <topological_polar_surface_area>  (496) 
112.27

>  <rotatable_bond_count>  (496) 
3

>  <hydrogen_bond_acceptors>  (496) 
8

>  <hydrogen_bond_donors>  (496) 
1

>  <hydrogen_bond_acceptors_lipinski>  (496) 
8

>  <hydrogen_bond_donors_lipinski>  (496) 
1

>  <lipinski_rule_of_five_violations>  (496) 
0

>  <aromatic_rings_count>  (496) 
1

>  <qed_drug_likeliness>  (496) 
0.65

>  <formal_charge>  (496) 
0

>  <fractioncsp3>  (496) 
0.52

>  <number_of_minimal_rings>  (496) 
5

>  <van_der_walls_volume>  (496) 
nan

>  <contains_sugar>  (496) 
False

>  <contains_ring_sugars>  (496) 
False

>  <contains_linear_sugars>  (496) 
False

>  <murcko_framework>  (496) 
o1ccc(c1)C2OCC=C3C2CCC34COC5=CCCCC54

>  <np_likeness>  (496) 
2.41

>  <chemical_class>  (496) 
Pyrans

>  <chemical_sub_class>  (496) 
Pyranones and derivatives

>  <chemical_super_class>  (496) 
Organoheterocyclic compounds

>  <direct_parent_classification>  (496) 
Dihydropyranones

>  <np_classifier_pathway>  (496) 
Terpenoids

>  <np_classifier_superclass>  (496) 
Triterpenoids

>  <np_classifier_class>  (496) 
Limonoids

>  <np_classifier_is_glycoside>  (496) 
False

>  <organisms>  (496) 
Hortia oreadica

>  <collections>  (496) 
Latin America dataset|NuBBEDB|WikiData Natural Products

>  <dois>  (496) 
10.1016/J.PHYTOCHEM.2011.12.016|10.1016/j.phytochem.2011.12.016

>  <synonyms>  (496) 
12\u221a\u00e9\u00ac\u2264-hydroxyhortiolide E

>  <cas>  (496) 
nan

$$$$

     RDKit          2D

 32 36  0  0  0  0  0  0  0  0999 V2000
   -6.3309   -2.5218    0.0000 C   0  0  0  0  0  0  0  0  0  0  0  0
   -5.4783   -1.2877    0.0000 C   0  0  0  0  0  0  0  0  0  0  0  0
   -6.1208    0.0677    0.0000 C   0  0  0  0  0  0  0  0  0  0  0  0
   -5.2682    1.3019    0.0000 C   0  0  0  0  0  0  0  0  0  0  0  0
   -3.7731    1.1805    0.0000 C   0  0  0  0  0  0  0  0  0  0  0  0
   -4.4156    2.5360    0.0000 C   0  0  0  0  0  0  0  0  0  0  0  0
   -2.9205    2.4147    0.0000 C   0  0  0  0  0  0  0  0  0  0  0  0
   -1.4254    2.2933    0.0000 C   0  0  0  0  0  0  0  0  0  0  0  0
   -0.7829    0.9379    0.0000 C   0  0  0  0  0  0  0  0  0  0  0  0
    0.0697    2.1720    0.0000 C   0  0  0  0  0  0  0  0  0  0  0  0
    0.7122    0.8166    0.0000 C   0  0  0  0  0  0  0  0  0  0  0  0
    1.5648    2.0507    0.0000 C   0  0  0  0  0  0  0  0  0  0  0  0
    3.0599    1.9294    0.0000 C   0  0  0  0  0  0  0  0  0  0  0  0
    3.7023    0.5739    0.0000 C   0  0  0  0  0  0  0  0  0  0  0  0
    5.1974    0.4526    0.0000 C   0  0  0  0  0  0  0  0  0  0  0  0
    6.6438    0.8499    0.0000 C   0  0  0  0  0  0  0  0  0  0  0  0
    5.0573    1.9460    0.0000 C   0  0  0  0  0  0  0  0  0  0  0  0
    5.8399   -0.9028    0.0000 C   0  0  0  0  0  0  0  0  0  0  0  0
    7.3350   -1.0242    0.0000 O   0  0  0  0  0  0  0  0  0  0  0  0
    4.9873   -2.1370    0.0000 C   0  0  0  0  0  0  0  0  0  0  0  0
    3.4922   -2.0156    0.0000 C   0  0  0  0  0  0  0  0  0  0  0  0
    2.8497   -0.6602    0.0000 C   0  0  0  0  0  0  0  0  0  0  0  0
    1.9971   -1.8943    0.0000 C   0  0  0  0  0  0  0  0  0  0  0  0
    1.3546   -0.5389    0.0000 C   0  0  0  0  0  0  0  0  0  0  0  0
    0.5020   -1.7730    0.0000 C   0  0  0  0  0  0  0  0  0  0  0  0
   -0.9931   -1.6517    0.0000 C   0  0  0  0  0  0  0  0  0  0  0  0
   -1.6355   -0.2962    0.0000 C   0  0  0  0  0  0  0  0  0  0  0  0
   -2.4881   -1.5304    0.0000 C   0  0  0  0  0  0  0  0  0  0  0  0
   -3.1306   -0.1749    0.0000 C   0  0  0  0  0  0  0  0  0  0  0  0
   -2.2780    1.0592    0.0000 C   0  0  0  0  0  0  0  0  0  0  0  0
   -3.9832   -1.4090    0.0000 C   0  0  0  0  0  0  0  0  0  0  0  0
   -3.3408   -2.7645    0.0000 C   0  0  0  0  0  0  0  0  0  0  0  0
  2  1  1  6
  2  3  1  0
  3  4  1  0
  4  5  1  0
  5  6  1  1
  5  7  1  0
  7  8  1  0
  8  9  1  0
  9 10  1  1
  9 11  1  0
 11 12  2  0
 12 13  1  0
 14 13  1  1
 14 15  1  0
 15 16  1  0
 15 17  1  0
 15 18  1  0
 18 19  2  0
 18 20  1  0
 20 21  1  0
 21 22  1  0
 22 23  1  1
 22 24  1  0
 24 25  1  1
 25 26  1  0
 26 27  1  0
 27 28  1  6
 27 29  1  0
 29 30  1  1
 29 31  1  0
 31 32  1  1
 31  2  1  0
 29  5  1  0
 27  9  1  0
 24 11  1  0
 22 14  1  0
M  END
>  <identifier>  (497) 
CNP0293218.1

>  <canonical_smiles>  (497) 
C[C@@H]1CC[C@]2(C)CC[C@]3(C)C4=CC[C@H]5C(C)(C)C(=O)CC[C@]5(C)[C@H]4CC[C@@]3(C)[C@]2(C)[C@H]1C

>  <standard_inchi>  (497) 
InChI=1S/C31H50O/c1-20-12-15-27(5)18-19-29(7)23-10-11-24-26(3,4)25(32)14-16-28(24,6)22(23)13-17-30(29,8)31(27,9)21(20)2/h10,20-22,24H,11-19H2,1-9H3/t20-,21+,22+,24+,27-,28-,29-,30-,31-/m1/s1

>  <standard_inchi_key>  (497) 
YNMPWACPSOOOBC-AAJXVYPRSA-N

>  <name>  (497) 
nan

>  <iupac_name>  (497) 
(4~{a}~{R},6~{a}~{R},6~{b}~{R},8~{a}~{R},11~{R},12~{S},12~{a}~{R},14~{a}~{R},14~{b}~{R})-4,4,6~{a},6~{b},8~{a},11,12,12~{a},14~{b}-nonamethyl-2,4~{a},5,7,8,9,10,11,12,13,14,14~{a}-dodecahydro-1~{H}-picen-3-one

>  <annotation_level>  (497) 
4

>  <total_atom_count>  (497) 
82

>  <heavy_atom_count>  (497) 
32

>  <molecular_weight>  (497) 
438.74

>  <exact_molecular_weight>  (497) 
438.38617

>  <molecular_formula>  (497) 
C31H50O

>  <alogp>  (497) 
8.62

>  <topological_polar_surface_area>  (497) 
17.07

>  <rotatable_bond_count>  (497) 
0

>  <hydrogen_bond_acceptors>  (497) 
1

>  <hydrogen_bond_donors>  (497) 
0

>  <hydrogen_bond_acceptors_lipinski>  (497) 
1

>  <hydrogen_bond_donors_lipinski>  (497) 
0

>  <lipinski_rule_of_five_violations>  (497) 
1

>  <aromatic_rings_count>  (497) 
0

>  <qed_drug_likeliness>  (497) 
0.35

>  <formal_charge>  (497) 
0

>  <fractioncsp3>  (497) 
0.90

>  <number_of_minimal_rings>  (497) 
5

>  <van_der_walls_volume>  (497) 
nan

>  <contains_sugar>  (497) 
False

>  <contains_ring_sugars>  (497) 
False

>  <contains_linear_sugars>  (497) 
False

>  <murcko_framework>  (497) 
C1=C2C(CCC3C2CCC4CCCCC43)C5CCCCC5C1

>  <np_likeness>  (497) 
2.95

>  <chemical_class>  (497) 
Prenol lipids

>  <chemical_sub_class>  (497) 
Triterpenoids

>  <chemical_super_class>  (497) 
Lipids and lipid-like molecules

>  <direct_parent_classification>  (497) 
Taraxastane, ursane, and bauerane triterpenoids

>  <np_classifier_pathway>  (497) 
Terpenoids

>  <np_classifier_superclass>  (497) 
Triterpenoids

>  <np_classifier_class>  (497) 
Bauerane triterpenoids

>  <np_classifier_is_glycoside>  (497) 
False

>  <organisms>  (497) 
Schinus terebinthifolius

>  <collections>  (497) 
Latin America dataset|NuBBEDB|WikiData Natural Products

>  <dois>  (497) 
10.1016/S0031-9422(00)91125-7

>  <synonyms>  (497) 
Bauerenone

>  <cas>  (497) 
nan

$$$$

     RDKit          2D

 27 30  0  0  0  0  0  0  0  0999 V2000
    3.3236    5.0400    0.0000 C   0  0  0  0  0  0  0  0  0  0  0  0
    3.4045    3.5422    0.0000 C   0  0  0  0  0  0  0  0  0  0  0  0
    2.1478    2.7232    0.0000 C   0  0  0  0  0  0  0  0  0  0  0  0
    2.2287    1.2254    0.0000 C   0  0  0  0  0  0  0  0  0  0  0  0
    3.5662    0.5466    0.0000 C   0  0  0  0  0  0  0  0  0  0  0  0
    3.6471   -0.9513    0.0000 C   0  0  0  0  0  0  0  0  0  0  0  0
    4.9847   -1.6301    0.0000 O   0  0  0  0  0  0  0  0  0  0  0  0
    5.0656   -3.1279    0.0000 C   0  0  0  0  0  0  0  0  0  0  0  0
    2.3904   -1.7702    0.0000 C   0  0  0  0  0  0  0  0  0  0  0  0
    2.4713   -3.2680    0.0000 O   0  0  0  0  0  0  0  0  0  0  0  0
    1.0528   -1.0914    0.0000 C   0  0  0  0  0  0  0  0  0  0  0  0
   -0.2039   -1.9103    0.0000 O   0  0  0  0  0  0  0  0  0  0  0  0
   -0.1230   -3.4082    0.0000 C   0  0  0  0  0  0  0  0  0  0  0  0
   -0.0095   -0.0324    0.0000 C   0  0  0  0  0  0  0  0  0  0  0  0
   -1.4907   -0.2694    0.0000 C   0  0  0  0  0  0  0  0  0  0  0  0
   -2.0260   -1.6706    0.0000 C   0  0  0  0  0  0  0  0  0  0  0  0
   -3.5071   -1.9077    0.0000 C   0  0  0  0  0  0  0  0  0  0  0  0
   -4.4530   -0.7434    0.0000 C   0  0  0  0  0  0  0  0  0  0  0  0
   -5.9510   -0.6673    0.0000 O   0  0  0  0  0  0  0  0  0  0  0  0
   -6.3416    0.7809    0.0000 C   0  0  0  0  0  0  0  0  0  0  0  0
   -5.0849    1.5999    0.0000 O   0  0  0  0  0  0  0  0  0  0  0  0
   -3.9177    0.6578    0.0000 C   0  0  0  0  0  0  0  0  0  0  0  0
   -2.4365    0.8948    0.0000 C   0  0  0  0  0  0  0  0  0  0  0  0
    0.6694    1.3052    0.0000 C   0  0  0  0  0  0  0  0  0  0  0  0
   -0.0138    2.6406    0.0000 C   0  0  0  0  0  0  0  0  0  0  0  0
    0.9720    0.4064    0.0000 C   0  0  0  0  0  0  0  0  0  0  0  0
   -0.3656    1.0853    0.0000 O   0  0  0  0  0  0  0  0  0  0  0  0
  1  2  2  0
  2  3  1  0
  4  3  1  6
  4  5  1  0
  5  6  1  0
  6  7  1  6
  7  8  1  0
  6  9  1  0
  9 10  2  0
  9 11  1  0
 11 12  1  1
 12 13  1  0
 11 14  1  0
 14 15  1  6
 15 16  2  0
 16 17  1  0
 17 18  2  0
 18 19  1  0
 19 20  1  0
 20 21  1  0
 21 22  1  0
 22 23  2  0
 14 24  1  0
 24 25  1  1
 11 26  1  0
 26 27  1  6
 24  4  1  0
 26  4  1  0
 23 15  1  0
 22 18  1  0
M  END
>  <identifier>  (498) 
CNP0329801.1

>  <canonical_smiles>  (498) 
C=CC[C@@]12C[C@H](OC)C(=O)[C@](OC)([C@H](C3=CC=C4OCOC4=C3)[C@H]1C)[C@@H]2O

>  <standard_inchi>  (498) 
InChI=1S/C21H26O6/c1-5-8-20-10-16(24-3)18(22)21(25-4,19(20)23)17(12(20)2)13-6-7-14-15(9-13)27-11-26-14/h5-7,9,12,16-17,19,23H,1,8,10-11H2,2-4H3/t12-,16+,17+,19-,20-,21-/m1/s1

>  <standard_inchi_key>  (498) 
ZNGCYIWYDPGZIU-SDGGEMJWSA-N

>  <name>  (498) 
nan

>  <iupac_name>  (498) 
(1~{S},3~{S},5~{R},6~{R},7~{S},8~{R})-5-allyl-7-(1,3-benzodioxol-5-yl)-8-hydroxy-1,3-dimethoxy-6-methyl-bicyclo[3.2.1]octan-2-one

>  <annotation_level>  (498) 
3

>  <total_atom_count>  (498) 
53

>  <heavy_atom_count>  (498) 
27

>  <molecular_weight>  (498) 
374.43

>  <exact_molecular_weight>  (498) 
374.17294

>  <molecular_formula>  (498) 
C21H26O6

>  <alogp>  (498) 
2.45

>  <topological_polar_surface_area>  (498) 
74.22

>  <rotatable_bond_count>  (498) 
5

>  <hydrogen_bond_acceptors>  (498) 
6

>  <hydrogen_bond_donors>  (498) 
1

>  <hydrogen_bond_acceptors_lipinski>  (498) 
6

>  <hydrogen_bond_donors_lipinski>  (498) 
1

>  <lipinski_rule_of_five_violations>  (498) 
0

>  <aromatic_rings_count>  (498) 
1

>  <qed_drug_likeliness>  (498) 
0.80

>  <formal_charge>  (498) 
0

>  <fractioncsp3>  (498) 
0.57

>  <number_of_minimal_rings>  (498) 
4

>  <van_der_walls_volume>  (498) 
nan

>  <contains_sugar>  (498) 
False

>  <contains_ring_sugars>  (498) 
False

>  <contains_linear_sugars>  (498) 
False

>  <murcko_framework>  (498) 
O1c2ccc(cc2OC1)C3CC4CCCC3C4

>  <np_likeness>  (498) 
1.80

>  <chemical_class>  (498) 
Benzodioxoles

>  <chemical_sub_class>  (498) 
Benzodioxoles

>  <chemical_super_class>  (498) 
Organoheterocyclic compounds

>  <direct_parent_classification>  (498) 
Benzodioxoles

>  <np_classifier_pathway>  (498) 
Shikimates and Phenylpropanoids

>  <np_classifier_superclass>  (498) 
Lignans

>  <np_classifier_class>  (498) 
Neolignans

>  <np_classifier_is_glycoside>  (498) 
False

>  <organisms>  (498) 
Licaria armeniaca

>  <collections>  (498) 
Latin America dataset|NuBBEDB|WikiData Natural Products

>  <dois>  (498) 
10.1016/0031-9422(81)84045-9

>  <synonyms>  (498) 
nan

>  <cas>  (498) 
nan

$$$$

     RDKit          2D

 38 42  0  0  0  0  0  0  0  0999 V2000
   -8.9113    4.0823    0.0000 C   0  0  0  0  0  0  0  0  0  0  0  0
   -8.7696    2.5890    0.0000 C   0  0  0  0  0  0  0  0  0  0  0  0
   -7.4055    1.9651    0.0000 C   0  0  0  0  0  0  0  0  0  0  0  0
   -7.2639    0.4718    0.0000 C   0  0  0  0  0  0  0  0  0  0  0  0
   -5.8998   -0.1522    0.0000 C   0  0  0  0  0  0  0  0  0  0  0  0
   -5.7581   -1.6455    0.0000 C   0  0  0  0  0  0  0  0  0  0  0  0
   -6.9805   -2.5148    0.0000 C   0  0  0  0  0  0  0  0  0  0  0  0
   -4.3941   -2.2694    0.0000 C   0  0  0  0  0  0  0  0  0  0  0  0
   -4.0971   -3.7398    0.0000 C   0  0  0  0  0  0  0  0  0  0  0  0
   -2.6070   -3.9116    0.0000 C   0  0  0  0  0  0  0  0  0  0  0  0
   -1.9830   -2.5476    0.0000 C   0  0  0  0  0  0  0  0  0  0  0  0
   -0.5518   -2.0985    0.0000 C   0  0  0  0  0  0  0  0  0  0  0  0
    0.5527   -3.1135    0.0000 C   0  0  0  0  0  0  0  0  0  0  0  0
    1.9839   -2.6644    0.0000 C   0  0  0  0  0  0  0  0  0  0  0  0
    2.3106   -1.2004    0.0000 C   0  0  0  0  0  0  0  0  0  0  0  0
    3.7418   -0.7514    0.0000 C   0  0  0  0  0  0  0  0  0  0  0  0
    4.0685    0.7126    0.0000 C   0  0  0  0  0  0  0  0  0  0  0  0
    5.4997    1.1617    0.0000 O   0  0  0  0  0  0  0  0  0  0  0  0
    6.6042    0.1467    0.0000 C   0  0  0  0  0  0  0  0  0  0  0  0
    6.2775   -1.3173    0.0000 O   0  0  0  0  0  0  0  0  0  0  0  0
    8.0354    0.5958    0.0000 C   0  0  0  0  0  0  0  0  0  0  0  0
    9.1399   -0.4192    0.0000 C   0  0  0  0  0  0  0  0  0  0  0  0
   10.5711    0.0299    0.0000 C   0  0  0  0  0  0  0  0  0  0  0  0
   10.8979    1.4939    0.0000 C   0  0  0  0  0  0  0  0  0  0  0  0
    9.7934    2.5088    0.0000 C   0  0  0  0  0  0  0  0  0  0  0  0
    8.3622    2.0598    0.0000 C   0  0  0  0  0  0  0  0  0  0  0  0
    2.9640    1.7275    0.0000 C   0  0  0  0  0  0  0  0  0  0  0  0
    1.5328    1.2785    0.0000 C   0  0  0  0  0  0  0  0  0  0  0  0
    1.2061   -0.1855    0.0000 C   0  0  0  0  0  0  0  0  0  0  0  0
    0.1016    0.8294    0.0000 C   0  0  0  0  0  0  0  0  0  0  0  0
   -0.2251   -0.6345    0.0000 C   0  0  0  0  0  0  0  0  0  0  0  0
   -1.3296    0.3804    0.0000 C   0  0  0  0  0  0  0  0  0  0  0  0
   -2.7608   -0.0687    0.0000 C   0  0  0  0  0  0  0  0  0  0  0  0
   -3.0875   -1.5326    0.0000 C   0  0  0  0  0  0  0  0  0  0  0  0
   -4.2920   -0.6387    0.0000 C   0  0  0  0  0  0  0  0  0  0  0  0
   -6.1832    2.8344    0.0000 C   0  0  0  0  0  0  0  0  0  0  0  0
   -6.3248    4.3277    0.0000 C   0  0  0  0  0  0  0  0  0  0  0  0
   -4.8191    2.2104    0.0000 C   0  0  0  0  0  0  0  0  0  0  0  0
  1  2  1  0
  3  2  1  1
  3  4  1  0
  4  5  1  0
  5  6  1  0
  6  7  1  6
  6  8  1  0
  8  9  1  6
  9 10  1  0
 11 10  1  6
 11 12  1  0
 12 13  1  1
 13 14  1  0
 14 15  2  0
 15 16  1  0
 16 17  1  0
 17 18  1  6
 18 19  1  0
 19 20  2  0
 19 21  1  0
 21 22  2  0
 22 23  1  0
 23 24  2  0
 24 25  1  0
 25 26  2  0
 17 27  1  0
 27 28  1  0
 28 29  1  0
 29 30  1  6
 29 31  1  0
 31 32  1  6
 32 33  1  0
 33 34  1  0
 34 35  1  6
  3 36  1  0
 36 37  1  0
 36 38  1  0
 34  8  1  0
 34 11  1  0
 31 12  1  0
 29 15  1  0
 26 21  1  0
M  END
>  <identifier>  (499) 
CNP0363297.1

>  <canonical_smiles>  (499) 
CC[C@H](CC[C@@H](C)[C@H]1CC[C@H]2[C@@H]3CC=C4C[C@@H](OC(=O)C5=CC=CC=C5)CC[C@]4(C)[C@H]3CC[C@]12C)C(C)C

>  <standard_inchi>  (499) 
InChI=1S/C36H54O2/c1-7-26(24(2)3)14-13-25(4)31-17-18-32-30-16-15-28-23-29(38-34(37)27-11-9-8-10-12-27)19-21-35(28,5)33(30)20-22-36(31,32)6/h8-12,15,24-26,29-33H,7,13-14,16-23H2,1-6H3/t25-,26-,29+,30+,31-,32+,33+,35+,36-/m1/s1

>  <standard_inchi_key>  (499) 
WFQRUMHMFCGSRO-XKKOIZAZSA-N

>  <name>  (499) 
(3beta)-Stigmast-5-en-3-yl benzoate

>  <iupac_name>  (499) 
[(3~{S},8~{S},9~{S},10~{R},13~{R},14~{S},17~{R})-17-[(1~{R},4~{R})-4-ethyl-1,5-dimethyl-hexyl]-10,13-dimethyl-2,3,4,7,8,9,11,12,14,15,16,17-dodecahydro-1~{H}-cyclopenta[a]phenanthren-3-yl] benzoate

>  <annotation_level>  (499) 
5

>  <total_atom_count>  (499) 
92

>  <heavy_atom_count>  (499) 
38

>  <molecular_weight>  (499) 
518.83

>  <exact_molecular_weight>  (499) 
518.41238

>  <molecular_formula>  (499) 
C36H54O2

>  <alogp>  (499) 
9.89

>  <topological_polar_surface_area>  (499) 
26.30

>  <rotatable_bond_count>  (499) 
8

>  <hydrogen_bond_acceptors>  (499) 
2

>  <hydrogen_bond_donors>  (499) 
0

>  <hydrogen_bond_acceptors_lipinski>  (499) 
2

>  <hydrogen_bond_donors_lipinski>  (499) 
0

>  <lipinski_rule_of_five_violations>  (499) 
2

>  <aromatic_rings_count>  (499) 
1

>  <qed_drug_likeliness>  (499) 
0.25

>  <formal_charge>  (499) 
0

>  <fractioncsp3>  (499) 
0.75

>  <number_of_minimal_rings>  (499) 
5

>  <van_der_walls_volume>  (499) 
nan

>  <contains_sugar>  (499) 
False

>  <contains_ring_sugars>  (499) 
False

>  <contains_linear_sugars>  (499) 
False

>  <murcko_framework>  (499) 
O(Cc1ccccc1)C2CC3=CCC4C(CCC5CCCC54)C3CC2

>  <np_likeness>  (499) 
1.97

>  <chemical_class>  (499) 
Steroids and steroid derivatives

>  <chemical_sub_class>  (499) 
Stigmastanes and derivatives

>  <chemical_super_class>  (499) 
Lipids and lipid-like molecules

>  <direct_parent_classification>  (499) 
Stigmastanes and derivatives

>  <np_classifier_pathway>  (499) 
Terpenoids

>  <np_classifier_superclass>  (499) 
Steroids

>  <np_classifier_class>  (499) 
Stigmastane steroids

>  <np_classifier_is_glycoside>  (499) 
False

>  <organisms>  (499) 
Conchocarpus heterophyllus

>  <collections>  (499) 
Latin America dataset|NuBBEDB|WikiData Natural Products

>  <dois>  (499) 
10.1590/S0100-40422008000400005

>  <synonyms>  (499) 
1900-52-3|DTXSID40940537|EINECS 217-597-0|NS00046194|SCHEMBL24015450|[(3S,8S,9S,10R,13R,14S,17R)-17-[(2R,5R)-5-ethyl-6-methylheptan-2-yl]-10,13-dimethyl-2,3,4,7,8,9,11,12,14,15,16,17-dodecahydro-1H-cyclopenta[a]phenanthren-3-yl] benzoate|\u221a\u00e9\u00ac\u2264-Sitosterol benzoate|stigmast-5-en-3-yl benzoate

>  <cas>  (499) 
1900-52-3

$$$$

     RDKit          2D

 27 30  0  0  0  0  0  0  0  0999 V2000
   -6.5467    0.0293    0.0000 C   0  0  0  0  0  0  0  0  0  0  0  0
   -5.5205   -1.0647    0.0000 O   0  0  0  0  0  0  0  0  0  0  0  0
   -4.0600   -0.7231    0.0000 C   0  0  0  0  0  0  0  0  0  0  0  0
   -3.6256    0.7127    0.0000 C   0  0  0  0  0  0  0  0  0  0  0  0
   -2.1650    1.0543    0.0000 C   0  0  0  0  0  0  0  0  0  0  0  0
   -1.1388   -0.0397    0.0000 C   0  0  0  0  0  0  0  0  0  0  0  0
   -1.5732   -1.4754    0.0000 C   0  0  0  0  0  0  0  0  0  0  0  0
   -3.0338   -1.8171    0.0000 C   0  0  0  0  0  0  0  0  0  0  0  0
   -3.4682   -3.2528    0.0000 O   0  0  0  0  0  0  0  0  0  0  0  0
   -4.9287   -3.5945    0.0000 C   0  0  0  0  0  0  0  0  0  0  0  0
    0.3218    0.3020    0.0000 C   0  0  0  0  0  0  0  0  0  0  0  0
    0.4046   -1.1958    0.0000 O   0  0  0  0  0  0  0  0  0  0  0  0
    1.8111    0.1235    0.0000 C   0  0  0  0  0  0  0  0  0  0  0  0
    2.7103    1.3241    0.0000 C   0  0  0  0  0  0  0  0  0  0  0  0
    4.1997    1.1456    0.0000 C   0  0  0  0  0  0  0  0  0  0  0  0
    4.7898   -0.2335    0.0000 C   0  0  0  0  0  0  0  0  0  0  0  0
    6.2095   -0.7177    0.0000 O   0  0  0  0  0  0  0  0  0  0  0  0
    6.1877   -2.2175    0.0000 C   0  0  0  0  0  0  0  0  0  0  0  0
    4.7545   -2.6603    0.0000 O   0  0  0  0  0  0  0  0  0  0  0  0
    3.8905   -1.4340    0.0000 C   0  0  0  0  0  0  0  0  0  0  0  0
    2.4012   -1.2556    0.0000 C   0  0  0  0  0  0  0  0  0  0  0  0
    0.7561    1.7377    0.0000 C   0  0  0  0  0  0  0  0  0  0  0  0
    2.2167    2.0794    0.0000 C   0  0  0  0  0  0  0  0  0  0  0  0
   -0.2700    2.8317    0.0000 C   0  0  0  0  0  0  0  0  0  0  0  0
    0.1643    4.2675    0.0000 C   0  0  0  0  0  0  0  0  0  0  0  0
   -1.7306    2.4901    0.0000 C   0  0  0  0  0  0  0  0  0  0  0  0
   -2.7568    3.5841    0.0000 O   0  0  0  0  0  0  0  0  0  0  0  0
  1  2  1  0
  2  3  1  0
  3  4  2  0
  4  5  1  0
  5  6  2  0
  6  7  1  0
  7  8  2  0
  8  9  1  0
  9 10  1  0
  6 11  1  0
 11 12  1  1
 11 13  1  0
 13 14  2  0
 14 15  1  0
 15 16  2  0
 16 17  1  0
 17 18  1  0
 18 19  1  0
 19 20  1  0
 20 21  2  0
 11 22  1  0
 22 23  1  1
 22 24  1  0
 24 25  1  6
 24 26  1  0
 26 27  2  0
  8  3  1  0
 21 13  1  0
 26  5  1  0
 20 16  1  0
M  END
>  <identifier>  (500) 
CNP0315287.2

>  <canonical_smiles>  (500) 
COC1=CC2=C(C=C1OC)[C@@](O)(C1=CC=C3OCOC3=C1)[C@H](C)[C@@H](C)C2=O

>  <standard_inchi>  (500) 
InChI=1S/C21H22O6/c1-11-12(2)21(23,13-5-6-16-19(7-13)27-10-26-16)15-9-18(25-4)17(24-3)8-14(15)20(11)22/h5-9,11-12,23H,10H2,1-4H3/t11-,12-,21+/m1/s1

>  <standard_inchi_key>  (500) 
NDCKQHZMIZHJRH-ZSMADZGOSA-N

>  <name>  (500) 
nan

>  <iupac_name>  (500) 
(2~{R},3~{R},4~{S})-4-(1,3-benzodioxol-5-yl)-4-hydroxy-6,7-dimethoxy-2,3-dimethyl-tetralin-1-one

>  <annotation_level>  (500) 
4

>  <total_atom_count>  (500) 
49

>  <heavy_atom_count>  (500) 
27

>  <molecular_weight>  (500) 
370.4

>  <exact_molecular_weight>  (500) 
370.14164

>  <molecular_formula>  (500) 
C21H22O6

>  <alogp>  (500) 
3.14

>  <topological_polar_surface_area>  (500) 
74.22

>  <rotatable_bond_count>  (500) 
3

>  <hydrogen_bond_acceptors>  (500) 
6

>  <hydrogen_bond_donors>  (500) 
1

>  <hydrogen_bond_acceptors_lipinski>  (500) 
6

>  <hydrogen_bond_donors_lipinski>  (500) 
1

>  <lipinski_rule_of_five_violations>  (500) 
0

>  <aromatic_rings_count>  (500) 
2

>  <qed_drug_likeliness>  (500) 
0.89

>  <formal_charge>  (500) 
0

>  <fractioncsp3>  (500) 
0.38

>  <number_of_minimal_rings>  (500) 
4

>  <van_der_walls_volume>  (500) 
nan

>  <contains_sugar>  (500) 
False

>  <contains_ring_sugars>  (500) 
False

>  <contains_linear_sugars>  (500) 
False

>  <murcko_framework>  (500) 
O1c2ccc(cc2OC1)C3c4ccccc4CCC3

>  <np_likeness>  (500) 
1.24

>  <chemical_class>  (500) 
Aryltetralin lignans

>  <chemical_sub_class>  (500) 
Aryltetralin lignans

>  <chemical_super_class>  (500) 
Lignans, neolignans and related compounds

>  <direct_parent_classification>  (500) 
Aryltetralin lignans

>  <np_classifier_pathway>  (500) 
Shikimates and Phenylpropanoids

>  <np_classifier_superclass>  (500) 
Lignans

>  <np_classifier_class>  (500) 
Arylnaphthalene and aryltetralin lignans

>  <np_classifier_is_glycoside>  (500) 
False

>  <organisms>  (500) 
Virola elongata|Virola sebifera

>  <collections>  (500) 
Latin America dataset|NuBBEDB|Super Natural II|WikiData Natural Products|ZINC NP

>  <dois>  (500) 
10.1016/0031-9422(82)83181-6|10.1016/0031-9422(90)85020-G|10.1016/S0031-9422(00)81080-8

>  <synonyms>  (500) 
(2R3R4S)-4-Hydroxy-23-dimethyl-67-dimethoxy-4-piperonyl-1-tetralone

>  <cas>  (500) 
nan

$$$$

     RDKit          2D

 46 50  0  0  0  0  0  0  0  0999 V2000
    3.6496   -4.9571    0.0000 C   0  0  0  0  0  0  0  0  0  0  0  0
    4.7109   -3.8971    0.0000 O   0  0  0  0  0  0  0  0  0  0  0  0
    4.3236   -2.4480    0.0000 C   0  0  0  0  0  0  0  0  0  0  0  0
    2.8750   -2.0589    0.0000 C   0  0  0  0  0  0  0  0  0  0  0  0
    2.4876   -0.6097    0.0000 C   0  0  0  0  0  0  0  0  0  0  0  0
    1.0390   -0.2206    0.0000 C   0  0  0  0  0  0  0  0  0  0  0  0
   -0.2605   -0.9698    0.0000 C   0  0  0  0  0  0  0  0  0  0  0  0
   -0.6496   -2.4184    0.0000 C   0  0  0  0  0  0  0  0  0  0  0  0
    0.4104   -3.4798    0.0000 O   0  0  0  0  0  0  0  0  0  0  0  0
   -2.0988   -2.8058    0.0000 N   0  0  0  0  0  0  0  0  0  0  0  0
   -3.1588   -1.7444    0.0000 C   0  0  0  0  0  0  0  0  0  0  0  0
   -4.6079   -2.1318    0.0000 C   0  0  0  0  0  0  0  0  0  0  0  0
   -4.9970   -3.5804    0.0000 C   0  0  0  0  0  0  0  0  0  0  0  0
   -3.9370   -4.6417    0.0000 C   0  0  0  0  0  0  0  0  0  0  0  0
   -2.4879   -4.2544    0.0000 C   0  0  0  0  0  0  0  0  0  0  0  0
   -1.4279   -5.3157    0.0000 O   0  0  0  0  0  0  0  0  0  0  0  0
   -1.0097    0.3297    0.0000 C   0  0  0  0  0  0  0  0  0  0  0  0
   -2.4583    0.7188    0.0000 C   0  0  0  0  0  0  0  0  0  0  0  0
   -2.8457    2.1680    0.0000 C   0  0  0  0  0  0  0  0  0  0  0  0
   -4.2943    2.5571    0.0000 C   0  0  0  0  0  0  0  0  0  0  0  0
   -4.6816    4.0062    0.0000 O   0  0  0  0  0  0  0  0  0  0  0  0
   -3.6203    5.0662    0.0000 C   0  0  0  0  0  0  0  0  0  0  0  0
   -5.3556    1.4971    0.0000 C   0  0  0  0  0  0  0  0  0  0  0  0
   -6.8043    1.8862    0.0000 O   0  0  0  0  0  0  0  0  0  0  0  0
   -7.8656    0.8263    0.0000 C   0  0  0  0  0  0  0  0  0  0  0  0
   -4.9683    0.0480    0.0000 C   0  0  0  0  0  0  0  0  0  0  0  0
   -6.0296   -1.0120    0.0000 O   0  0  0  0  0  0  0  0  0  0  0  0
   -7.4783   -0.6229    0.0000 C   0  0  0  0  0  0  0  0  0  0  0  0
   -3.5197   -0.3412    0.0000 C   0  0  0  0  0  0  0  0  0  0  0  0
    0.2898    1.0789    0.0000 C   0  0  0  0  0  0  0  0  0  0  0  0
    0.6789    2.5275    0.0000 C   0  0  0  0  0  0  0  0  0  0  0  0
   -0.3810    3.5889    0.0000 O   0  0  0  0  0  0  0  0  0  0  0  0
    2.1281    2.9149    0.0000 N   0  0  0  0  0  0  0  0  0  0  0  0
    3.1881    1.8535    0.0000 C   0  0  0  0  0  0  0  0  0  0  0  0
    4.6372    2.2409    0.0000 C   0  0  0  0  0  0  0  0  0  0  0  0
    5.0263    3.6895    0.0000 C   0  0  0  0  0  0  0  0  0  0  0  0
    3.9663    4.7508    0.0000 C   0  0  0  0  0  0  0  0  0  0  0  0
    2.5172    4.3635    0.0000 C   0  0  0  0  0  0  0  0  0  0  0  0
    1.4572    5.4248    0.0000 O   0  0  0  0  0  0  0  0  0  0  0  0
    3.5490    0.4502    0.0000 C   0  0  0  0  0  0  0  0  0  0  0  0
    4.9976    0.0611    0.0000 C   0  0  0  0  0  0  0  0  0  0  0  0
    6.0589    1.1211    0.0000 O   0  0  0  0  0  0  0  0  0  0  0  0
    7.5076    0.7320    0.0000 C   0  0  0  0  0  0  0  0  0  0  0  0
    5.3849   -1.3880    0.0000 C   0  0  0  0  0  0  0  0  0  0  0  0
    6.8336   -1.7772    0.0000 O   0  0  0  0  0  0  0  0  0  0  0  0
    7.2209   -3.2263    0.0000 C   0  0  0  0  0  0  0  0  0  0  0  0
  1  2  1  0
  2  3  1  0
  3  4  2  0
  4  5  1  0
  6  5  1  1
  6  7  1  0
  7  8  1  6
  8  9  2  0
  8 10  1  0
 10 11  1  0
 11 12  1  0
 12 13  1  0
 13 14  2  0
 14 15  1  0
 15 16  2  0
  7 17  1  0
 17 18  1  6
 18 19  2  0
 19 20  1  0
 20 21  1  0
 21 22  1  0
 20 23  2  0
 23 24  1  0
 24 25  1  0
 23 26  1  0
 26 27  1  0
 27 28  1  0
 26 29  2  0
 17 30  1  0
 30 31  1  1
 31 32  2  0
 31 33  1  0
 33 34  1  0
 34 35  1  0
 35 36  1  0
 36 37  2  0
 37 38  1  0
 38 39  2  0
  5 40  2  0
 40 41  1  0
 41 42  1  0
 42 43  1  0
 41 44  2  0
 44 45  1  0
 45 46  1  0
 44  3  1  0
 30  6  1  0
 38 33  1  0
 15 10  1  0
 29 18  1  0
M  END
>  <identifier>  (501) 
CNP0189294.1

>  <canonical_smiles>  (501) 
COC1=CC([C@H]2[C@H](C(=O)N3CCC=CC3=O)[C@H](C3=CC(OC)=C(OC)C(OC)=C3)[C@H]2C(=O)N2CCC=CC2=O)=CC(OC)=C1OC

>  <standard_inchi>  (501) 
InChI=1S/C34H38N2O10/c1-41-21-15-19(16-22(42-2)31(21)45-5)27-29(33(39)35-13-9-7-11-25(35)37)28(30(27)34(40)36-14-10-8-12-26(36)38)20-17-23(43-3)32(46-6)24(18-20)44-4/h7-8,11-12,15-18,27-30H,9-10,13-14H2,1-6H3/t27-,28-,29-,30-

>  <standard_inchi_key>  (501) 
ACSFIAACPMCYMR-DANJKSSVSA-N

>  <name>  (501) 
Piplartine-dimer A

>  <iupac_name>  (501) 
1-[3-(6-oxo-2,3-dihydropyridine-1-carbonyl)-2,4-bis(3,4,5-trimethoxyphenyl)cyclobutanecarbonyl]-2,3-dihydropyridin-6-one

>  <annotation_level>  (501) 
5

>  <total_atom_count>  (501) 
84

>  <heavy_atom_count>  (501) 
46

>  <molecular_weight>  (501) 
634.68

>  <exact_molecular_weight>  (501) 
634.25265

>  <molecular_formula>  (501) 
C34H38N2O10

>  <alogp>  (501) 
3.48

>  <topological_polar_surface_area>  (501) 
130.14

>  <rotatable_bond_count>  (501) 
10

>  <hydrogen_bond_acceptors>  (501) 
10

>  <hydrogen_bond_donors>  (501) 
0

>  <hydrogen_bond_acceptors_lipinski>  (501) 
10

>  <hydrogen_bond_donors_lipinski>  (501) 
0

>  <lipinski_rule_of_five_violations>  (501) 
1

>  <aromatic_rings_count>  (501) 
2

>  <qed_drug_likeliness>  (501) 
0.36

>  <formal_charge>  (501) 
0

>  <fractioncsp3>  (501) 
0.41

>  <number_of_minimal_rings>  (501) 
5

>  <van_der_walls_volume>  (501) 
566.62

>  <contains_sugar>  (501) 
False

>  <contains_ring_sugars>  (501) 
False

>  <contains_linear_sugars>  (501) 
False

>  <murcko_framework>  (501) 
c1ccc(cc1)C2C(CN3CC=CCC3)C(c4ccccc4)C2CN5CC=CCC5

>  <np_likeness>  (501) 
0.50

>  <chemical_class>  (501) 
Phenol ethers

>  <chemical_sub_class>  (501) 
Anisoles

>  <chemical_super_class>  (501) 
Benzenoids

>  <direct_parent_classification>  (501) 
Anisoles

>  <np_classifier_pathway>  (501) 
Alkaloids

>  <np_classifier_superclass>  (501) 
nan

>  <np_classifier_class>  (501) 
nan

>  <np_classifier_is_glycoside>  (501) 
False

>  <organisms>  (501) 
Cephalaria gigantea|Couroupita guianensis|Curcuma zedoaria|Ganoderma capense|Goniodoma pseudogoniaulax|Melampyrum elatius|Oyedaea buphthalmoides|Piper arborescens|Piper bantamense|Piper caninum|Piper lanatum|Piper macropiper|Piper miniatum|Piper swartzianum|Piper tuberculatum|Polygonum aubertii|Streptomyces mediolani|Streptomyces nashvillensis

>  <collections>  (501) 
CMAUP (cCollective molecular activities of useful plants)|Latin America dataset|NPASS|NuBBEDB|WikiData Natural Products|ZINC NP

>  <dois>  (501) 
10.1002/HLCA.200490044|10.1016/0031-9422(81)85125-4

>  <synonyms>  (501) 
Piplartine-dimer A

>  <cas>  (501) 
nan

$$$$

     RDKit          2D

 14 16  0  0  0  0  0  0  0  0999 V2000
    0.0000   -3.0000    0.0000 O   0  0  0  0  0  0  0  0  0  0  0  0
    0.0000   -1.5000    0.0000 C   0  0  0  0  0  0  0  0  0  0  0  0
   -1.2990   -0.7500    0.0000 C   0  0  0  0  0  0  0  0  0  0  0  0
   -2.7256   -1.2135    0.0000 C   0  0  0  0  0  0  0  0  0  0  0  0
   -3.6073   -0.0000    0.0000 C   0  0  0  0  0  0  0  0  0  0  0  0
   -2.7256    1.2135    0.0000 C   0  0  0  0  0  0  0  0  0  0  0  0
   -1.2990    0.7500    0.0000 N   0  0  0  0  0  0  0  0  0  0  0  0
   -0.0000    1.5000    0.0000 C   0  0  0  0  0  0  0  0  0  0  0  0
   -0.0000    3.0000    0.0000 O   0  0  0  0  0  0  0  0  0  0  0  0
    1.2990    0.7500    0.0000 C   0  0  0  0  0  0  0  0  0  0  0  0
    2.7256    1.2135    0.0000 C   0  0  0  0  0  0  0  0  0  0  0  0
    3.6073    0.0000    0.0000 C   0  0  0  0  0  0  0  0  0  0  0  0
    2.7256   -1.2135    0.0000 C   0  0  0  0  0  0  0  0  0  0  0  0
    1.2990   -0.7500    0.0000 N   0  0  0  0  0  0  0  0  0  0  0  0
  1  2  2  0
  2  3  1  0
  3  4  1  6
  4  5  1  0
  5  6  1  0
  6  7  1  0
  7  8  1  0
  8  9  2  0
  8 10  1  0
 10 11  1  6
 11 12  1  0
 12 13  1  0
 13 14  1  0
 14  2  1  0
  7  3  1  0
 14 10  1  0
M  END
>  <identifier>  (502) 
CNP0244435.1

>  <canonical_smiles>  (502) 
O=C1[C@@H]2CCCN2C(=O)[C@@H]2CCCN12

>  <standard_inchi>  (502) 
InChI=1S/C10H14N2O2/c13-9-7-3-1-5-11(7)10(14)8-4-2-6-12(8)9/h7-8H,1-6H2/t7-,8-/m0/s1

>  <standard_inchi_key>  (502) 
BKASXWPLSXFART-YUMQZZPRSA-N

>  <name>  (502) 
19943-27-2

>  <iupac_name>  (502) 
(3~{S},9~{S})-1,7-diazatricyclo[7.3.0.0^{3,7}]dodecane-2,8-dione

>  <annotation_level>  (502) 
5

>  <total_atom_count>  (502) 
28

>  <heavy_atom_count>  (502) 
14

>  <molecular_weight>  (502) 
194.23

>  <exact_molecular_weight>  (502) 
194.10553

>  <molecular_formula>  (502) 
C10H14N2O2

>  <alogp>  (502) 
-0.02

>  <topological_polar_surface_area>  (502) 
40.62

>  <rotatable_bond_count>  (502) 
0

>  <hydrogen_bond_acceptors>  (502) 
2

>  <hydrogen_bond_donors>  (502) 
0

>  <hydrogen_bond_acceptors_lipinski>  (502) 
2

>  <hydrogen_bond_donors_lipinski>  (502) 
0

>  <lipinski_rule_of_five_violations>  (502) 
0

>  <aromatic_rings_count>  (502) 
0

>  <qed_drug_likeliness>  (502) 
0.54

>  <formal_charge>  (502) 
0

>  <fractioncsp3>  (502) 
0.80

>  <number_of_minimal_rings>  (502) 
3

>  <van_der_walls_volume>  (502) 
177.84

>  <contains_sugar>  (502) 
False

>  <contains_ring_sugars>  (502) 
False

>  <contains_linear_sugars>  (502) 
False

>  <murcko_framework>  (502) 
N12CCCC1CN3CCCC3C2

>  <np_likeness>  (502) 
0.25

>  <chemical_class>  (502) 
Carboxylic acids and derivatives

>  <chemical_sub_class>  (502) 
Amino acids, peptides, and analogues

>  <chemical_super_class>  (502) 
Organic acids and derivatives

>  <direct_parent_classification>  (502) 
Alpha amino acids

>  <np_classifier_pathway>  (502) 
Alkaloids

>  <np_classifier_superclass>  (502) 
Lysine alkaloids

>  <np_classifier_class>  (502) 
nan

>  <np_classifier_is_glycoside>  (502) 
False

>  <organisms>  (502) 
Aspergillus fumigatus|Psammosilene tunicoides|Streptomyces xiamenensis MCCC 1A01570

>  <collections>  (502) 
CMAUP (cCollective molecular activities of useful plants)|Latin America dataset|NPASS|NuBBEDB|StreptomeDB|Super Natural II|WikiData Natural Products|ZINC NP

>  <dois>  (502) 
10.1080/14786419.2018.1508148|10.1590/S0103-50532005000800026

>  <synonyms>  (502) 
(3S,9S)-1,7-Diazatricyclo[7.3.0.03,7]dodecane-2,8-dione|(5AS,10aS)-octahydro-5H,10H-dipyrrolo[1,2-a:1',2'-d]pyrazine-5,10-dione|36588-47-3|5H,10H-Dipyrrolo(1,2-a:1',2'-d)pyrazine-5,10-dione, octahydro-, (5aS,10aS)-|AKOS005064349|CHEMBL4473867|Cyclo(L-Pro-L-Pro)|Cyclo(L-prolyl-L-prolyl)|Cyclo(prolylproline)|Cyclo(prolylproline) [INCI]|Cyclo(prolylprolyl)|DTXSID201313224|L-Proline anhydride|SCHEMBL10283677|UNII-XGU973420W|XGU973420W|cis-cyclo(Pro-Pro)|cyclo (L)-Pro-(L)- Pro|cyclo(Pro,Pro)

>  <cas>  (502) 
36588-47-3

$$$$

     RDKit          2D

 26 29  0  0  0  0  0  0  0  0999 V2000
   -0.3131   -3.3897    0.0000 C   0  0  0  0  0  0  0  0  0  0  0  0
    0.9830   -2.6347    0.0000 O   0  0  0  0  0  0  0  0  0  0  0  0
    0.9771   -1.1347    0.0000 C   0  0  0  0  0  0  0  0  0  0  0  0
    2.2732   -0.3796    0.0000 C   0  0  0  0  0  0  0  0  0  0  0  0
    3.5752   -1.1246    0.0000 O   0  0  0  0  0  0  0  0  0  0  0  0
    4.8713   -0.3695    0.0000 C   0  0  0  0  0  0  0  0  0  0  0  0
    6.3475   -0.1033    0.0000 C   0  0  0  0  0  0  0  0  0  0  0  0
    5.3898   -1.7770    0.0000 C   0  0  0  0  0  0  0  0  0  0  0  0
    4.8654    1.1305    0.0000 C   0  0  0  0  0  0  0  0  0  0  0  0
    3.5635    1.8754    0.0000 C   0  0  0  0  0  0  0  0  0  0  0  0
    2.2674    1.1204    0.0000 C   0  0  0  0  0  0  0  0  0  0  0  0
    0.9654    1.8653    0.0000 C   0  0  0  0  0  0  0  0  0  0  0  0
    0.9596    3.3653    0.0000 O   0  0  0  0  0  0  0  0  0  0  0  0
   -0.3307    1.1102    0.0000 C   0  0  0  0  0  0  0  0  0  0  0  0
   -0.3248   -0.3898    0.0000 C   0  0  0  0  0  0  0  0  0  0  0  0
   -1.6209   -1.1448    0.0000 N   0  0  0  0  0  0  0  0  0  0  0  0
   -1.6151   -2.6448    0.0000 C   0  0  0  0  0  0  0  0  0  0  0  0
   -2.9229   -0.3999    0.0000 C   0  0  0  0  0  0  0  0  0  0  0  0
   -4.2190   -1.1550    0.0000 C   0  0  0  0  0  0  0  0  0  0  0  0
   -4.2132   -2.6550    0.0000 O   0  0  0  0  0  0  0  0  0  0  0  0
   -5.5210   -0.4100    0.0000 C   0  0  0  0  0  0  0  0  0  0  0  0
   -5.5268    1.0900    0.0000 C   0  0  0  0  0  0  0  0  0  0  0  0
   -4.2307    1.8450    0.0000 C   0  0  0  0  0  0  0  0  0  0  0  0
   -2.9288    1.1001    0.0000 C   0  0  0  0  0  0  0  0  0  0  0  0
   -1.6326    1.8551    0.0000 C   0  0  0  0  0  0  0  0  0  0  0  0
   -1.6385    3.3551    0.0000 O   0  0  0  0  0  0  0  0  0  0  0  0
  1  2  1  0
  2  3  1  0
  3  4  2  0
  4  5  1  0
  5  6  1  0
  6  7  1  0
  6  8  1  0
  6  9  1  0
  9 10  2  0
 10 11  1  0
 11 12  2  0
 12 13  1  0
 12 14  1  0
 14 15  2  0
 15 16  1  0
 16 17  1  0
 16 18  1  0
 18 19  2  0
 19 20  1  0
 19 21  1  0
 21 22  2  0
 22 23  1  0
 23 24  2  0
 24 25  1  0
 25 26  2  0
 15  3  1  0
 24 18  1  0
 11  4  1  0
 25 14  1  0
M  END
>  <identifier>  (503) 
CNP0170200.0

>  <canonical_smiles>  (503) 
COC1=C2OC(C)(C)C=CC2=C(O)C2=C1N(C)C1=C(O)C=CC=C1C2=O

>  <standard_inchi>  (503) 
InChI=1S/C20H19NO5/c1-20(2)9-8-11-17(24)13-15(19(25-4)18(11)26-20)21(3)14-10(16(13)23)6-5-7-12(14)22/h5-9,22,24H,1-4H3

>  <standard_inchi_key>  (503) 
CTPJHHASTKGQAW-UHFFFAOYSA-N

>  <name>  (503) 
Pyranofoline

>  <iupac_name>  (503) 
5,10-dihydroxy-12-methoxy-2,2,11-trimethyl-pyrano[3,2-b]acridin-6-one

>  <annotation_level>  (503) 
5

>  <total_atom_count>  (503) 
45

>  <heavy_atom_count>  (503) 
26

>  <molecular_weight>  (503) 
353.37

>  <exact_molecular_weight>  (503) 
353.12632

>  <molecular_formula>  (503) 
C20H19NO5

>  <alogp>  (503) 
3.30

>  <topological_polar_surface_area>  (503) 
80.92

>  <rotatable_bond_count>  (503) 
1

>  <hydrogen_bond_acceptors>  (503) 
6

>  <hydrogen_bond_donors>  (503) 
2

>  <hydrogen_bond_acceptors_lipinski>  (503) 
6

>  <hydrogen_bond_donors_lipinski>  (503) 
2

>  <lipinski_rule_of_five_violations>  (503) 
0

>  <aromatic_rings_count>  (503) 
3

>  <qed_drug_likeliness>  (503) 
0.66

>  <formal_charge>  (503) 
0

>  <fractioncsp3>  (503) 
0.25

>  <number_of_minimal_rings>  (503) 
4

>  <van_der_walls_volume>  (503) 
302.99

>  <contains_sugar>  (503) 
False

>  <contains_ring_sugars>  (503) 
False

>  <contains_linear_sugars>  (503) 
False

>  <murcko_framework>  (503) 
O1c2cc3Nc4ccccc4Cc3cc2C=CC1

>  <np_likeness>  (503) 
2.32

>  <chemical_class>  (503) 
Quinolines and derivatives

>  <chemical_sub_class>  (503) 
Benzoquinolines

>  <chemical_super_class>  (503) 
Organoheterocyclic compounds

>  <direct_parent_classification>  (503) 
Acridones

>  <np_classifier_pathway>  (503) 
Alkaloids

>  <np_classifier_superclass>  (503) 
Anthranilic acid alkaloids

>  <np_classifier_class>  (503) 
Acridone alkaloids

>  <np_classifier_is_glycoside>  (503) 
False

>  <organisms>  (503) 
Clematis flammula|Gentiana lactea|Glycosmis citrifolia|Glycosmis parviflora|Hortia arborea|Korolkowia sewerzowi|Swinglea glutinosa

>  <collections>  (503) 
CMAUP (cCollective molecular activities of useful plants)|Latin America dataset|NPASS|NuBBEDB|Super Natural II|UNPD (Universal Natural Products Database)|WikiData Natural Products

>  <dois>  (503) 
10.1002/(SICI)1099-1573(1998)12:1+<S77::AID-PTR256>3.0.CO;2-J|10.1016/J.BMC.2010.12.056|10.1021/JF902561C|10.1039/P19830001681|10.1080/14786410600907002

>  <synonyms>  (503) 
2,11-Dihydro-5,10-dihydroxy-12-methoxy-2,2,11-trimethyl-6H-pyrano[3,2-b]acridin-6-one|82644-79-9|BDBM50336484|CHEMBL1668600|DTXSID901344357|Pyranofoline

>  <cas>  (503) 
82644-79-9

$$$$

     RDKit          2D

 15 16  0  0  0  0  0  0  0  0999 V2000
    0.7500    3.7239    0.0000 C   0  0  0  0  0  0  0  0  0  0  0  0
   -0.0000    2.4249    0.0000 C   0  0  0  0  0  0  0  0  0  0  0  0
   -1.5000    2.4249    0.0000 C   0  0  0  0  0  0  0  0  0  0  0  0
   -2.2500    1.1258    0.0000 C   0  0  0  0  0  0  0  0  0  0  0  0
   -1.5000   -0.1732    0.0000 C   0  0  0  0  0  0  0  0  0  0  0  0
   -2.2500   -1.4722    0.0000 C   0  0  0  0  0  0  0  0  0  0  0  0
   -3.7500   -1.4722    0.0000 C   0  0  0  0  0  0  0  0  0  0  0  0
   -1.5000   -2.7713    0.0000 C   0  0  0  0  0  0  0  0  0  0  0  0
    0.0000   -0.1732    0.0000 C   0  0  0  0  0  0  0  0  0  0  0  0
    0.7500   -1.4722    0.0000 C   0  0  0  0  0  0  0  0  0  0  0  0
    2.2500   -1.4722    0.0000 C   0  0  0  0  0  0  0  0  0  0  0  0
    3.0000   -2.7713    0.0000 C   0  0  0  0  0  0  0  0  0  0  0  0
    3.0000   -0.1732    0.0000 C   0  0  0  0  0  0  0  0  0  0  0  0
    2.2500    1.1258    0.0000 C   0  0  0  0  0  0  0  0  0  0  0  0
    0.7500    1.1258    0.0000 C   0  0  0  0  0  0  0  0  0  0  0  0
  1  2  2  0
  2  3  1  0
  3  4  1  0
  4  5  1  0
  5  6  1  1
  6  7  1  0
  6  8  1  0
  5  9  1  0
  9 10  1  6
 10 11  2  0
 11 12  1  0
 11 13  1  0
 13 14  1  0
 15 14  1  1
 15  2  1  0
 15  9  1  0
M  END
>  <identifier>  (504) 
CNP0123983.6

>  <canonical_smiles>  (504) 
C=C1CC[C@H](C(C)C)[C@H]2C=C(C)CC[C@H]12

>  <standard_inchi>  (504) 
InChI=1S/C15H24/c1-10(2)13-8-6-12(4)14-7-5-11(3)9-15(13)14/h9-10,13-15H,4-8H2,1-3H3/t13-,14-,15-/m1/s1

>  <standard_inchi_key>  (504) 
WRHGORWNJGOVQY-RBSFLKMASA-N

>  <name>  (504) 
(-)-gamma-cadinene

>  <iupac_name>  (504) 
(1~{R},4~{a}~{S},8~{a}~{S})-1-isopropyl-7-methyl-4-methylene-2,3,4~{a},5,6,8~{a}-hexahydro-1~{H}-naphthalene

>  <annotation_level>  (504) 
5

>  <total_atom_count>  (504) 
39

>  <heavy_atom_count>  (504) 
15

>  <molecular_weight>  (504) 
204.36

>  <exact_molecular_weight>  (504) 
204.1878

>  <molecular_formula>  (504) 
C15H24

>  <alogp>  (504) 
4.58

>  <topological_polar_surface_area>  (504) 
0.00

>  <rotatable_bond_count>  (504) 
1

>  <hydrogen_bond_acceptors>  (504) 
0

>  <hydrogen_bond_donors>  (504) 
0

>  <hydrogen_bond_acceptors_lipinski>  (504) 
0

>  <hydrogen_bond_donors_lipinski>  (504) 
0

>  <lipinski_rule_of_five_violations>  (504) 
0

>  <aromatic_rings_count>  (504) 
0

>  <qed_drug_likeliness>  (504) 
0.55

>  <formal_charge>  (504) 
0

>  <fractioncsp3>  (504) 
0.73

>  <number_of_minimal_rings>  (504) 
2

>  <van_der_walls_volume>  (504) 
224.54

>  <contains_sugar>  (504) 
False

>  <contains_ring_sugars>  (504) 
False

>  <contains_linear_sugars>  (504) 
False

>  <murcko_framework>  (504) 
C1=CC2CCCCC2CC1

>  <np_likeness>  (504) 
3.09

>  <chemical_class>  (504) 
Prenol lipids

>  <chemical_sub_class>  (504) 
Sesquiterpenoids

>  <chemical_super_class>  (504) 
Lipids and lipid-like molecules

>  <direct_parent_classification>  (504) 
Sesquiterpenoids

>  <np_classifier_pathway>  (504) 
Terpenoids

>  <np_classifier_superclass>  (504) 
Sesquiterpenoids

>  <np_classifier_class>  (504) 
Cadinane sesquiterpenoids

>  <np_classifier_is_glycoside>  (504) 
False

>  <organisms>  (504) 
Abies pinsapo|Abies pinsapo subsp. marocana|Achillea aspleniifolia|Achillea millefolium|Achillea virescens|Ageratum conyzoides|Aguacate|Aiouea costaricensis|Albizia zygia|Allium turcomanicum|Aloysia citriodora|Aloysia citrodora|Aloysia triphylla|Alpinia breviligulata|Alpinia chinensis|Alpinia latilabris|Alpinia zerumbet|Angelica archangelica|Angelica pubescens|Angostura trifoliata|Annona cascarilloides|Aphanizomenon|Aphyllocladus denticulatus|Araucaria angustifolia|Aristolochia debilis|Aristolochia elegans|Aristolochia littoralis|Artemisia keiskeana|Artemisia salsoloides|Artemisia vulgaris|Artemisia xerophytica|Asarum gusk|Asarum lutchuense|Aspergillus terreus|Aster scaber|Asteriscus sericeus|Atropa belladonna|Baccharis darwinii|Baccharis dracunculifolia|Baccharis grandicapitulata|Baccharis hutchisonii|Bazzania tridens|Bidens bipinnata|Bitter bush|Brassica rapa subsp. pekinensis|Bupleurum acutifolium|Bupleurum gibraltaricum|Calycolpus warszewiczianus|Calypogeia muelleriana|Cananga odorata|Cannabis sativa|Cantinoa americana|Cardiagyris scabra|Cassinia laevis|Cassinia longifolia|Cassinia uncata|Cedrela odorata|Centratherum punctatum|Cephalaria transsylvanica|Chamaecyparis pisifera|Chamomilla recutita|Chrysanthemum indicum|Chrysopogon zizanioides|Cinnamomum sieboldii|Cinnamomum zeylanicum|Cinnamon|Cistus creticus|Cistus ladanifer|Cistus laurifolius|Cistus monspeliensis|Citrus reticulata|Citrus unshiu|Citrus × deliciosa|Cleistopholis patens|Clinopodium brownei|Commiphora myrrha|Commiphora sphaerocarpa|Condea emoryi|Conyza bonariensis|Conyza incana|Copaifera langsdorffii|Copaifera langsdorfii|Cordia curassavica|Cotinus coggygria|Croton adenocalyx|Croton conduplicatus|Croton eluteria|Croton nitens|Croton sonderianus|Cryptomeria japonica|Cryptoporus volvatus|Culcitium canescens|Cupressus dupreziana|Cupressus sempervirens|Curio corymbifer|Cussonia bancoensis|Cyanthillium cinereum|Cymbopogon flexuosus|Cymbopogon martinii|Cynoglossum creticum|Daniellia oliveri|Dendranthema indicum|Dendropanax trifidus|Dracocephalum multicaule|Duguetia confinis|Dumortiera hirsuta|Ekimia bornmuelleri|Elsholtzia fruticosa|Elsholtzia pilosa|Entandrophragma cylindricum|Eremanthus arboreus|Eremanthus crotonoides|Erigeron bonariensis|Erylus lendenfeldi|Etlingera elatior|Etlingera pavieana|Eucalyptus globulus|Eucalyptus maidenii|Eucalyptus tessellaris|Garcinia mangostana|Geitlerinema splendidum|Hebeclinium macrophyllum|Hedychium spicatum|Helichrysum amorginum|Helichrysum bracteiferum|Helichrysum italicum|Helichrysum odoratissimum|Heracleum dissectum|Hexalobus crispiflorus|Homalomena occulta|Humulus lupulus|Hypoestes phyllostachya|Hyptis emoryi|Hyptis spicigera|Iris tectorum|Jaaginema geminatum|Jugo|Juniperus comitana|Juniperus communis|Juniperus drupacea|Juniperus durangensis|Juniperus gamboana|Juniperus jaliscana|Juniperus monticola|Juniperus standleyi|Kuloa usambarensis|Lantana camara|Lantana strigocamara|Lantana xenica|Larix gmelinii|Larix gmelinii var. gmelinii|Larix gmelinii var. olgensis|Larix sibirica|Launaea|Launea|Laurencia dendroidea|Laurencia microcladia|Lavandula angustifolia|Lavandula latifolia|Lavandula stoechas|Lepechinia chamaedryoides|Lepechinia chilensis|Lepechinia floribunda|Lepechinia urbani|Lepechinia urbanii|Lippia Aff. aristata|Lippia alba|Lippia dulcis|Liquidambar styraciflua|Lysimachia heterogenea|Mallotus rhamnifolius|Marsypianthes glomerata|Matricaria chamomilla|Melaleuca Leucadendra|Melaleuca quinquenervia|Microcoleus amoenus|Microglossa pyrifolia|Micromeria croatica|Micromeria maderensis|Murraya gleniei|Nepeta trachonitica|Nicotiana rustica|Nicotiana tabacum|Ocimum gratissimum|Ocimum kenyense|Ocotea usambarensis|Olea paniculata|Oocephalus oppositiflorus|Origanum acutidens|Origanum cordifolium|Origanum dictamnus|Origanum dubium|Origanum vulgare|Oscillatoria amoena|Oscillatoria geminata|Oscillatoria splendida|Pelargonium endlicherianum|Pelargonium quercifolium|Pelargonium vitifolium|Peniophora filamentosa|Persea tolimanensis|Phellopterus littoralis|Philadelphia fleabane|Phyla dulcis|Picea glehnii|Picea koraiensis|Pilocarpus jaborandi|Pilocarpus pauciflorus|Pimenta racemosa|Pinus pumila|Pinus sylvestris|Piper aduncum|Piper fimbriulatum|Piper gaudichaudianum|Piper obliquum|Platostoma africanum|Polygala senega|Porcelia macrocarpa|Porodaedalea pini|Prumnopitys ferruginoides|Pseudobrickellia brasiliensis|Pseudotsuga menziesii|Psiadia altissima|Psidium friedrichsthalianum|Psidium salutare|Pulvinula constellatio|Pycnanthemum floridanum|Rosmarinus Officinalis|Rosmarinus officinalis|Salvia caespitosa|Salvia columbariae|Salvia dorisiana|Salvia fruticosa|Salvia mellifera|Salvia munzii|Santolina chamaecyparissus|Sassafras albidum|Scapania undulata|Schistochila aligera|Scytosiphon lomentaria|Senecio adenophyllus|Senecio alcicornis|Senecio chrysanthemoides|Senecio nutans|Sequoiadendron giganteum|Shorea robusta|Smilax glaucochina|Solidago canadensis|Sundacarpus amarus|Symphyotrichum undulatum|Syzygium aromaticum|Syzygium cumini|Syzygium nervosum|Tagetes lucida|Tamarindus indica|Tanacetum millefolium|Telanthophora grandifolia|Teucrium asiaticum|Teucrium cyprium|Teucrium kotschyanum|Teucrium micropodioides|Teucrium oxylepis|Teucrium polium|Teucrium pseudoscorodonia|Teucrium salviastrum|Teucrium scorodonia|Teucrium spinosum|Thapsia villosa|Thymus camphoratus|Thymus funkii|Thymus longiflorus|Thymus riatarum|Tithonia diversifolia|Trigonella foenum-graecum|Triptilion benaventei|Vachellia farnesiana|Varronia curassavica|Venegasia carpesioides|Verbesina persicifolia|Vitex agnus-castus|Vitex negundo|Xylopia phloiodora|Xylopia sericea|Zanthoxylum bungeanum|Zanthoxylum zanthoxyloides|Zingiber Officinale|Zingiber officinale|basil|bellis perennis|candyleaf|clove|marjoram|parsley|potato

>  <collections>  (504) 
ANPDB|Australian natural products|CMAUP (cCollective molecular activities of useful plants)|EMNPD|Latin America dataset|NANPDB (Natural Products from Northern African Sources)|NAPRORE-CR|NPASS|NuBBEDB|Super Natural II|TCMDB-Taiwan (Traditional Chinese Medicine database)|VietHerb|WikiData Natural Products

>  <dois>  (504) 
10.1002/(SICI)1097-0231(199608)10:11<1345::AID-RCM631>3.0.CO;2-4|10.1002/(SICI)1099-1026(199601)11:1<15::AID-FFJ541>3.0.CO;2-H|10.1002/(SICI)1099-1026(199701)12:1<47::AID-FFJ610>3.0.CO;2-7|10.1002/(sici)1099-1026(199707)12:4<277::aid-ffj642>3.0.co;2-b|10.1002/CHEM.200305023|10.1002/FFJ.2730010103|10.1002/FFJ.2730030204|10.1002/FFJ.2730030208|10.1002/FFJ.2730060110|10.1002/FFJ.2730060307|10.1002/FFJ.2730070109|10.1002/FFJ.2730070603|10.1002/FFJ.2730080504|10.1002/FFJ.2730090107|10.1002/FFJ.2730100310|10.1002/FFJ.2730100313|10.1002/FFJ.2730100408|10.1002/FFJ.2730100609|10.1002/HLCA.201200359|10.1002/JCCS.199900029|10.1002/MRC.1260240321|10.1002/PCA.2800050503|10.1002/PCA.594|10.1002/RCM.1290091307|10.1007/BF00567053|10.1007/BF00567284|10.1007/BF00567793|10.1007/BF00568367|10.1007/BF00570218|10.1007/BF00576212|10.1007/BF00579167|10.1007/BF00579988|10.1007/BF00713346|10.1007/BF01959201|10.1007/BF01970171|10.1007/BF02282508|10.1016/0031-9422(82)80025-3|10.1016/0031-9422(82)80055-1|10.1016/0031-9422(83)85029-8|10.1016/0031-9422(83)85052-3|10.1016/0031-9422(88)80452-7|10.1016/0031-9422(88)83027-9|10.1016/0031-9422(90)85421-B|10.1016/0031-9422(91)83456-U|10.1016/0031-9422(91)85017-T|10.1016/0031-9422(92)90042-O|10.1016/0031-9422(92)90046-S|10.1016/0031-9422(95)00183-8|10.1016/0305-1978(89)90098-7|10.1016/0305-1978(95)00033-Q|10.1016/0305-1978(96)00023-3|10.1016/0378-8741(91)90062-I|10.1016/0378-8741(91)90063-J|10.1016/J.PHYTOCHEM.2003.08.004|10.1016/J.PHYTOCHEM.2009.03.012|10.1016/J.PHYTOCHEM.2011.09.002|10.1016/S0021-9673(01)90672-7|10.1016/S0031-9422(00)00131-X|10.1016/S0031-9422(00)80279-4|10.1016/S0031-9422(00)80682-2|10.1016/S0031-9422(00)80758-X|10.1016/S0031-9422(00)81063-8|10.1016/S0031-9422(00)81445-4|10.1016/S0031-9422(00)81508-3|10.1016/S0031-9422(00)81571-X|10.1016/S0031-9422(00)81573-3|10.1016/S0031-9422(00)83062-9|10.1016/S0031-9422(00)83498-6|10.1016/S0031-9422(00)83606-7|10.1016/S0031-9422(00)84713-5|10.1016/S0031-9422(00)86705-9|10.1016/S0031-9422(00)91034-3|10.1016/S0031-9422(00)95102-1|10.1016/S0031-9422(00)95204-X|10.1016/S0031-9422(00)97558-7|10.1016/S0031-9422(01)00067-X|10.1016/S0031-9422(96)00479-7|10.1016/S0031-9422(96)00691-7|10.1016/S0031-9422(97)00117-9|10.1016/S0031-9422(97)00400-7|10.1016/S0031-9422(97)00762-0|10.1016/S0031-9422(98)00283-0|10.1016/S0367-326X(01)00367-7|10.1021/JF00034A033|10.1021/JF00035A029|10.1021/JF00046A030|10.1021/JF00069A028|10.1021/JF00073A015|10.1021/JF00118A056|10.1021/JF0116303|10.1021/JF60199A051|10.1021/JF60218A031|10.1021/JF60222A026|10.1021/JF970031M|10.1021/JF9911850|10.1021/JO00200A028|10.1021/NP50006A014|10.1021/NP50008A001|10.1021/NP50009A015|10.1021/NP50017A019|10.1021/NP50028A031|10.1021/NP50034A039|10.1021/NP50034A042|10.1021/NP50039A032|10.1021/NP50040A037|10.1021/NP50040A040|10.1021/NP50041A034|10.1021/NP50044A039|10.1021/NP50046A035|10.1021/NP50047A038|10.1021/NP50048A039|10.1021/NP50051A035|10.1021/NP50052A041|10.1021/NP50121A011|10.1021/NP960732Y|10.1021/NP980445P|10.1021/jf011456i|10.1021/np50017a018|10.1055/S-2001-18857|10.1055/S-2002-33803|10.1055/S-2006-957914|10.1055/S-2006-959379|10.1055/S-2006-959482|10.1055/S-2006-959580|10.1055/S-2006-959673|10.1055/S-2006-959674|10.1055/S-2006-960024|10.1055/S-2006-960033|10.1055/S-2006-960034|10.1055/S-2006-960126|10.1055/S-2006-960872|10.1055/S-2006-960939|10.1055/S-2006-961452|10.1055/S-2006-961490|10.1055/S-2006-962093|10.1055/S-2006-962640|10.1055/S-2006-962685|10.1055/S-2007-969171|10.1055/S-2007-969858|10.1080/10412905.1989.9697801|10.1080/10412905.1990.9697831|10.1080/10412905.1990.9697840|10.1080/10412905.1990.9697845|10.1080/10412905.1990.9697864|10.1080/10412905.1991.9697905|10.1080/10412905.1991.9697930|10.1080/10412905.1991.9697952|10.1080/10412905.1991.9697953|10.1080/10412905.1991.9697971|10.1080/10412905.1991.9697973|10.1080/10412905.1992.9698083|10.1080/10412905.1992.9698109|10.1080/10412905.1992.9698125|10.1080/10412905.1992.9698155|10.1080/10412905.1993.9698177|10.1080/10412905.1993.9698202|10.1080/10412905.1993.9698206|10.1080/10412905.1993.9698234|10.1080/10412905.1993.9698235|10.1080/10412905.1993.9698253|10.1080/10412905.1993.9698279|10.1080/10412905.1993.9698282|10.1080/10412905.1994.9698330|10.1080/10412905.1994.9698332|10.1080/10412905.1994.9698350|10.1080/10412905.1994.9698395|10.1080/10412905.1994.9698417|10.1080/10412905.1994.9698428|10.1080/10412905.1994.9698433|10.1080/10412905.1994.9698440|10.1080/10412905.1994.9698442|10.1080/10412905.1994.9698446|10.1080/10412905.1994.9698447|10.1080/10412905.1994.9698449|10.1080/10412905.1994.9699344|10.1080/10412905.1994.9699347|10.1080/10412905.1994.9699357|10.1080/10412905.1994.9699362|10.1080/10412905.1994.9699366|10.1080/10412905.1995.9698508|10.1080/10412905.1995.9698575|10.1080/10412905.1997.9700721|10.1080/10412905.1997.9700727|10.1080/10412905.1997.9700773|10.1080/10412905.1997.9700785|10.1080/10412905.1998.9700992|10.1080/10412905.1998.9701015|10.1080/10412905.1999.9701056|10.1080/10412905.1999.9701059|10.1080/10412905.1999.9701096|10.1080/10412905.1999.9701102|10.1080/10412905.2000.9699554|10.1080/10412905.2000.9712159|10.1080/10412905.2000.9712201|10.1080/10412905.2008.9699963|10.1080/10412905.2010.9700389|10.1080/14786419.2010.513685|10.1094/ASBCJ-60-0204|10.1111/J.1365-2621.1985.TB10476.X|10.1246/BCSJ.51.3395|10.1248/YAKUSHI1947.101.9_852|10.1248/YAKUSHI1947.106.1_17|10.1271/BBB1961.45.1493|10.1271/BBB1961.45.507|10.1271/BBB1961.49.1583|10.1515/ZNB-1992-0324|10.1515/ZNC-1984-7-802|10.1515/ZNC-1984-7-803|10.1515/ZNC-1988-5-608|10.1590/S0103-50532000000600012|10.1590/S0103-50532003000100004|10.2307/2423424|10.3109/13880209109082876|10.3166/SDA.22.249-264|10.3390/12030389|10.5650/JOS1956.35.176|10.7164/ANTIBIOTICS.40.1331

>  <synonyms>  (504) 
(+)-g-Cadinene|(1R,4aS,8aS)-7-methyl-4-methylidene-1-propan-2-yl-2,3,4a,5,6,8a-hexahydro-1H-naphthalene|.GAMMA.-CADINENE, (-)-|1,2,3,4,4a,5,6,8a-Octahydro-7-methyl-4-methylene-1-(1-methylethyl)-(1S,4aR,8aR)-Naphthalene|1460-97-5|1BETA,6ALPHA,7BETAH-CADINA-4,10(15)-DIENE|2GHT32E0JU|39029-41-9|C19738|CADINENE, .GAMMA.-, (-)-|CHEBI:63203|CS-0167725|DTXSID301017689|GAMMA-CADINENE|HY-N9432|NS00126425|Naphthalene, 1,2,3,4,4a,5,6,8a-octahydro-7-methyl-4-methylene-1-(1-methylethyl)-, (1alpha,4abeta,8aalpha)-|Q27132466|Racemic gamma Cadinene|UNII-2GHT32E0JU|WRHGORWNJGOVQY-RBSFLKMASA-N|[1R,(-)]-1,2,3,4,4aalpha,5,6,8abeta-Octahydro-7-methyl-4-methylene-1-isopropylnaphthalene|\u03b4-cadinene|\u221a\u00e9\u00ac\u2265-Cadinene|g-Cadinene|gama-cardinene|gamma-Cadinene, (-)-|trans- .gamma.-Cadinene

>  <cas>  (504) 
1460-97-5|39029-41-9

$$$$

     RDKit          2D

  9  8  0  0  0  0  0  0  0  0999 V2000
   -5.1962   -0.3333    0.0000 C   0  0  0  0  0  0  0  0  0  0  0  0
   -3.8971    0.4167    0.0000 C   0  0  0  0  0  0  0  0  0  0  0  0
   -2.5981   -0.3333    0.0000 C   0  0  0  0  0  0  0  0  0  0  0  0
   -1.2990    0.4167    0.0000 C   0  0  0  0  0  0  0  0  0  0  0  0
    0.0000   -0.3333    0.0000 C   0  0  0  0  0  0  0  0  0  0  0  0
    1.2990    0.4167    0.0000 C   0  0  0  0  0  0  0  0  0  0  0  0
    2.5981   -0.3333    0.0000 C   0  0  0  0  0  0  0  0  0  0  0  0
    3.8971    0.4167    0.0000 C   0  0  0  0  0  0  0  0  0  0  0  0
    5.1962   -0.3333    0.0000 O   0  0  0  0  0  0  0  0  0  0  0  0
  1  2  1  0
  2  3  1  0
  3  4  1  0
  4  5  1  0
  5  6  1  0
  6  7  1  0
  7  8  1  0
  8  9  2  0
M  END
>  <identifier>  (505) 
CNP0146292.0

>  <canonical_smiles>  (505) 
CCCCCCCC=O

>  <standard_inchi>  (505) 
InChI=1S/C8H16O/c1-2-3-4-5-6-7-8-9/h8H,2-7H2,1H3

>  <standard_inchi_key>  (505) 
NUJGJRNETVAIRJ-UHFFFAOYSA-N

>  <name>  (505) 
Octanal

>  <iupac_name>  (505) 
octanal

>  <annotation_level>  (505) 
5

>  <total_atom_count>  (505) 
25

>  <heavy_atom_count>  (505) 
9

>  <molecular_weight>  (505) 
128.22

>  <exact_molecular_weight>  (505) 
128.12012

>  <molecular_formula>  (505) 
C8H16O

>  <alogp>  (505) 
2.55

>  <topological_polar_surface_area>  (505) 
17.07

>  <rotatable_bond_count>  (505) 
6

>  <hydrogen_bond_acceptors>  (505) 
1

>  <hydrogen_bond_donors>  (505) 
0

>  <hydrogen_bond_acceptors_lipinski>  (505) 
1

>  <hydrogen_bond_donors_lipinski>  (505) 
0

>  <lipinski_rule_of_five_violations>  (505) 
0

>  <aromatic_rings_count>  (505) 
0

>  <qed_drug_likeliness>  (505) 
0.40

>  <formal_charge>  (505) 
0

>  <fractioncsp3>  (505) 
0.88

>  <number_of_minimal_rings>  (505) 
0

>  <van_der_walls_volume>  (505) 
147.94

>  <contains_sugar>  (505) 
False

>  <contains_ring_sugars>  (505) 
False

>  <contains_linear_sugars>  (505) 
False

>  <murcko_framework>  (505) 
nan

>  <np_likeness>  (505) 
1.54

>  <chemical_class>  (505) 
Organooxygen compounds

>  <chemical_sub_class>  (505) 
Carbonyl compounds

>  <chemical_super_class>  (505) 
Organic oxygen compounds

>  <direct_parent_classification>  (505) 
Medium-chain aldehydes

>  <np_classifier_pathway>  (505) 
Fatty acids

>  <np_classifier_superclass>  (505) 
Fatty acyls

>  <np_classifier_class>  (505) 
Fatty aldehydes

>  <np_classifier_is_glycoside>  (505) 
False

>  <organisms>  (505) 
Aceriphyllum rossii|Acmella ciliata|Agnorhiza bolanderi|Akebia quinata|Akebia trifoliata|Alangium premnifolium|Alligator mississippiensis|Aloe africana|Aloe ferox|Aloe spicata|Aloe vera|Alpinia zerumbet|Alstonia muelleriana|Anaxagorea clavata|Angelica acutiloba|Angelica gigas|Angelica sinensis|Angelica tarokoensis|Anthemis aciphylla|Anthemis aciphylla BOISS.var.discoidea BOISS|Apium graveolens|Araujia sericifera|Aria pallescens|Arnica nevadensis|Artemisia Annua|Artemisia annua|Artemisia argyi|Artemisia cina|Artemisia monogyna|Artemisia montana|Artemisia princeps|Avena sativa|Bassia butyracea|Beyeria brevifolia|Bistorta manshuriensis|Bistorta officinalis|Bombax ceiba|Bragantia wallichii|Bupleurum chinense|Bupleurum falcatum|Bupleurum scorzonerifolium|Bursaria spinosa|Camellia sinensis|Cannabis sativa|Capsella bursa-pastoris|Capsicum annuum|Carum carvi|Castanopsis cuspidata|Catha edulis|Centaurea oltensis|Centaurea sessilis|Ceraeochrysa smithi|Ceratophyllum demersum|Chamomilla recutita|Chloranthus tianmushanensis|Chresta sphaerocephala|Chromolaena odorata|Chromolaena pulchella|Chrysocephalum ambiguum|Citrullus lanatus|Citrus Reticulata|Citrus aurantiifolia|Citrus aurantium|Citrus grandis|Citrus hystrix|Citrus limonia|Citrus maxima|Citrus medica|Citrus natsudaidai|Citrus reticulata|Citrus reticulate|Citrus sinensis|Citrus spp|Citrus spp.|Citrus trifoliata|Citrus unshiu|Citrus wilsonii|Citrus × deliciosa|Citrus × paradisi|Citrus ×iyo|Cladonia evansii|Clonostachys rosea|Coccus fagi|Colobocentrotus atratus|Coreopsis nodosa|Coriandrum sativum|Cornulaca monacantha|Crocus sativus|Dacrydium cupressinum|Daphne odora|Daucus carota|Delphinium andersoni|Dendrosenecio kilimanjari|Diphasia angolensis|Dipterocarpus alatus|Drosera peltata|Echinops amplexicaulis|Eleutherococcus giraldii|Elsholtzia ciliata|Epaltes gariepina|Epimedium davidii|Eryngium expansum|Eryngium foetidum|Eryngium pandanifolium|Eryngium rostratum|Eryngium vesiculosum|Erysimum odoratum|Etlingera elatior|Eupatorium cannabinum|Eupolyphaga sinensis|Eutypella scoparia|Evernia prunastri|Ficus formosana|Flacourtia inermis|Fragaria|Fragaria x ananassa|Fructus hippophae|Frullania tamarisci|Fusarium gibbosum|Galenia africana|Gardenia fosbergii|Glehnia littoralis|Globba malaccensis|Glycine tomentella|Gnidia lamprantha|Gymnodinium nagasakiense|Gyromitra esculenta|Haematococcus lacustris|Hamamelis virginiana|Hansenia forbesii|Hansenia weberbaueriana|Helichrysum ambiguum|Heracleum stevenii|Heterotheca inuloides|Hippophae rhamnoides|Homo sapiens|Homo sapiens (Skin)|Houttuynia cordata|Humulus lupulus|Hypoxylon rubiginosum|Ilex affinis|Ilex amara|Isodon japonicus|Isodon kameba|Kaempferia pulchra|Karenia mikimotoi|Knightia excelsa|Lactarius scrobiculatus|Laurencia distichophylla|Leonurus glaucescens|Lepidium draba|Ligusticum chuanxiong|Lycium barbarum|Lycium chinense|Lycopersicon Esculentum|Lycopersicon esculentum Mill.|Maba buxifolia|Mangifera indica|Matricaria chamomilla|Mentha arvensis|Mentha canadensis|Microcitrus|Micromeria biflora|Micromeria pineolens|Mosla chinensis|Nemalion vermiculare|Nicotiana undulata|Nidula candida|Notopterygium forbesii|Odixia angusta|Oenanthe aquatica|Oldenlandia diffusa|Olea Europaea|Olea europaea|Ophiocoma scolopendrina|Ostericum grosseserratum|Panax ginseng|Panax notoginseng|Panax quinquefolius|Panax schinseng|Passiflora incarnata|Patrinia scabiosifolia|Patrinia villosa|Penicillium citreonigrum|Pheidole pallidula|Pimenta racemosa|Pimpinella anisum|Pinus sabiniana|Pittosporum tobira|Platynereis dumerilii|Polygala senega|Prosopis glandulosa|Prunus avium|Prunus dulcis|Prunus laurocerasus|Pseudopterogorgia kallos|Psidium friedrichsthalianum|Pteris prolifera|Pterocarpus grandiflorus|Pterocladiella tenuis|Pyrosoma giganteum|Quercus aegilops|Quercus sessiliflora|Rhizobium phaseoli|Rhodiola rosea|Saccharomyces pastori|Salacia madagascariensis|Salvia officinalis|Saposhnikovia divaricata|Saussurea carthamoides|Scaligeria lazica|Securidaca inappendiculata|Senecio paludaffinis|Senecio squalidus|Senna alexandrina|Seriphidium cinum|Sesbania punicea|Sideritis dichotoma|Simira eliezeriana|Siparuna thecaphora|Solanum acaule|Spodoptera eridania|Stenostomum lucidum|Streptomyces althioticus|Streptomyces flocculus|Streptomyces griseovariabilis|Swertia delavayi|Syncerus caffer|Tachigalia paniculata|Tagetes minuta|Tanacetum annuum|Taxodium mucronatum|Thymus longicaulis|Thymus zygioides|Trigonella grandiflora|Tripolium pannonicum|Uvaria calamistrata|Vaccinium macrocarpon|Vaccinium vitis-idaea|Vallota purpurea|Vismia jefensis|Vitex madiensis|Vitis vinifera|Vogtia annua|Zanthoxylum bungeanum|Zanthoxylum piperitum|Zanthoxylum schinifolium|Zingiber Officinale|Zingiber officinale|basil|giraffe|maize|pomelo|watermelon

>  <collections>  (505) 
ANPDB|Australian natural products|CMAUP (cCollective molecular activities of useful plants)|ChEBI NPs|EMNPD|FooDB|KNApSaCK|Latin America dataset|NANPDB (Natural Products from Northern African Sources)|NAPRORE-CR|NPASS|NuBBEDB|Phyto4Health|Super Natural II|TCMDB-Taiwan (Traditional Chinese Medicine database)|TCMID (Traditional Chinese Medicine Integrated Database)|TIPdb (database of Taiwan indigenous plants)|UNPD (Universal Natural Products Database)|VietHerb|Watermelon|WikiData Natural Products

>  <dois>  (505) 
10.1002/CBDV.201300390|10.1002/FFJ.1588|10.1002/FFJ.2730100408|10.1002/JEZ.1402460308|10.1002/JPS.3080240509|10.1007/BF00579447|10.1007/BF00987858|10.1007/S11418-007-0175-2|10.1016/0031-9422(89)80285-7|10.1016/0031-9422(92)80160-G|10.1016/0031-9422(92)83136-M|10.1016/J.CHROMA.2014.10.058|10.1016/J.FOODCHEM.2013.10.090|10.1016/J.FOODRES.2012.03.015|10.1016/J.JPBA.2008.08.004|10.1016/J.PHYTOCHEM.2005.04.006|10.1016/S0031-9422(00)84581-1|10.1016/S0031-9422(02)00004-3|10.1016/S0031-9422(97)00730-9|10.1016/S0031-9422(98)00022-3|10.1016/S0305-1978(02)00037-6|10.1021/JF00029A021|10.1021/JF00112A045|10.1021/JF030212Q|10.1021/JF0402633|10.1021/JF60160A012|10.1021/JF60201A022|10.1021/JF60211A006|10.1021/JF60218A022|10.1021/JF60224A025|10.1021/JF60228A025|10.1021/JF60230A020|10.1021/JF990514L|10.1021/NP50008A001|10.1021/jf011456i|10.1023/A:1015205716921|10.1055/S-0028-1097637|10.1055/S-2006-957420|10.1055/S-2006-957552|10.1055/S-2006-958063|10.1055/S-2007-969599|10.1073/PNAS.93.8.3280|10.1080/0972060X.2014.895210|10.1080/10412905.1990.9697857|10.1080/10412905.1991.9697952|10.1080/10412905.1992.9698061|10.1080/10412905.1992.9698070|10.1080/10412905.1992.9698123|10.1080/10412905.1992.9698149|10.1080/10412905.1993.9698179|10.1080/10412905.1993.9698261|10.1080/10412905.1994.9698401|10.1080/10412905.1994.9698417|10.1080/10412905.1994.9698444|10.1080/10412905.1996.9701028|10.1080/10412905.1997.9700709|10.1080/10412905.2003.9698619|10.1080/10412905.2010.9700338|10.1080/14620316.2003.11511610|10.1088/1752-7155/8/1/014001|10.1186/1471-2180-11-219|10.1248/CPB.54.222|10.1271/BBB1961.47.1841|10.1271/BBB1961.47.483|10.1271/BBB1961.49.3145|10.1271/BBB1961.55.2571|10.1590/S0100-40422002000700009|10.17660/ACTAHORTIC.2005.677.9|10.3891/ACTA.CHEM.SCAND.21-0945|10.3891/ACTA.CHEM.SCAND.21-2076|10.7235/HORT.2013.12200

>  <synonyms>  (505) 
1-octanal|124-13-0|27457-18-7|4-01-00-03337 (Beilstein Handbook Reference)|AI3-03961|AKOS009031567|ALDEHIDO C-8|Albumin tannate|Aldehyde C-8|Antifoam-LF|BDBM50028817|BRN 1744086|C-8 aldehyde|C01545|CAPRYLIC ALDEHYDE [MI]|CAS-124-13-0|CHEBI:17935|CHEMBL18407|CS-0138976|Caprylaldehyde|DTXCID701643|DTXSID3021643|EC 204-683-8|EINECS 204-683-8|EN300-19768|FEMA No. 2797|G73533|HSDB 5147|HY-N8015|InChI=1\/C8H16O\/c1-2-3-4-5-6-7-8-9\/h8H,2-7H2,1H|J-660019|Kaprylaldehyd|LMFA06000028|MFCD00007029|N-OCTANAL [FHFI]|NCGC00247997-01|NCGC00254427-01|NCGC00258966-01|NS00009660|NSC 1508|NSC-1508|NSC-8969|O0044|OCTANAL (ALDEHYDE C-8)|OCTANAL [FCC]|OCTYLALDEHYDE|OCTYLALDEHYDE [HSDB]|OYA|Octanal|Octanal (natural)|Octanal, 99%|Octanal, >=95%, FCC, FG|Octanal, analytical standard|Octanal, natural, >=95%, FCC, FG|Octanal, tech.|Octanaldehyde|Octanoic aldehyde|Oktanal|Oktylaldehyd|Q-200605|Q416673|QSPL 183|SCHEMBL28601|STR04459|Tox21_201415|Tox21_300337|UNII-XGE9999H19|WLN: VH7|XGE9999H19|bmse000851|n -octanal|n-Octaldehyde|n-Octanal|n-Octyl aldehyde|n-Octylal|octan-1-one|octanal

>  <cas>  (505) 
124-13-0|27457-18-7

$$$$

     RDKit          2D

  9  8  0  0  0  0  0  0  0  0999 V2000
   -5.1962   -0.3333    0.0000 C   0  0  0  0  0  0  0  0  0  0  0  0
   -3.8971    0.4167    0.0000 C   0  0  0  0  0  0  0  0  0  0  0  0
   -2.5981   -0.3333    0.0000 C   0  0  0  0  0  0  0  0  0  0  0  0
   -1.2990    0.4167    0.0000 S   0  0  0  0  0  0  0  0  0  0  0  0
    0.0000   -0.3333    0.0000 S   0  0  0  0  0  0  0  0  0  0  0  0
    1.2990    0.4167    0.0000 S   0  0  0  0  0  0  0  0  0  0  0  0
    2.5981   -0.3333    0.0000 C   0  0  0  0  0  0  0  0  0  0  0  0
    3.8971    0.4167    0.0000 C   0  0  0  0  0  0  0  0  0  0  0  0
    5.1962   -0.3333    0.0000 C   0  0  0  0  0  0  0  0  0  0  0  0
  1  2  2  0
  2  3  1  0
  3  4  1  0
  4  5  1  0
  5  6  1  0
  6  7  1  0
  7  8  1  0
  8  9  1  0
M  END
>  <identifier>  (506) 
CNP0080526.0

>  <canonical_smiles>  (506) 
C=CCSSSCCC

>  <standard_inchi>  (506) 
InChI=1S/C6H12S3/c1-3-5-7-9-8-6-4-2/h3H,1,4-6H2,2H3

>  <standard_inchi_key>  (506) 
IXJMGVJLUBBAQW-UHFFFAOYSA-N

>  <name>  (506) 
allyl propyl trisulfide

>  <iupac_name>  (506) 
1-(allyltrisulfanyl)propane

>  <annotation_level>  (506) 
5

>  <total_atom_count>  (506) 
21

>  <heavy_atom_count>  (506) 
9

>  <molecular_weight>  (506) 
180.36

>  <exact_molecular_weight>  (506) 
180.01011

>  <molecular_formula>  (506) 
C6H12S3

>  <alogp>  (506) 
3.61

>  <topological_polar_surface_area>  (506) 
0.00

>  <rotatable_bond_count>  (506) 
6

>  <hydrogen_bond_acceptors>  (506) 
3

>  <hydrogen_bond_donors>  (506) 
0

>  <hydrogen_bond_acceptors_lipinski>  (506) 
3

>  <hydrogen_bond_donors_lipinski>  (506) 
0

>  <lipinski_rule_of_five_violations>  (506) 
0

>  <aromatic_rings_count>  (506) 
0

>  <qed_drug_likeliness>  (506) 
0.35

>  <formal_charge>  (506) 
0

>  <fractioncsp3>  (506) 
0.67

>  <number_of_minimal_rings>  (506) 
0

>  <van_der_walls_volume>  (506) 
162.77

>  <contains_sugar>  (506) 
False

>  <contains_ring_sugars>  (506) 
False

>  <contains_linear_sugars>  (506) 
False

>  <murcko_framework>  (506) 
nan

>  <np_likeness>  (506) 
1.51

>  <chemical_class>  (506) 
Organic trisulfides

>  <chemical_sub_class>  (506) 
Organic trisulfides

>  <chemical_super_class>  (506) 
Organosulfur compounds

>  <direct_parent_classification>  (506) 
Organic trisulfides

>  <np_classifier_pathway>  (506) 
Fatty acids

>  <np_classifier_superclass>  (506) 
Fatty acyls

>  <np_classifier_class>  (506) 
Fatty alcohols

>  <np_classifier_is_glycoside>  (506) 
False

>  <organisms>  (506) 
Adenocalymma alliaceum|Allium ampeloprasum|Allium cepa|Azadirachta indica|Mansoa alliacea

>  <collections>  (506) 
CMAUP (cCollective molecular activities of useful plants)|FooDB|Latin America dataset|NuBBEDB|WikiData Natural Products

>  <dois>  (506) 
10.1021/JF00083A035|10.1021/JF00125A014|10.1021/jf00125a014|10.1080/10412905.1991.9697935|10.1271/BBB.56.1865

>  <synonyms>  (506) 
1-(prop-2-en-1-yl)-3-propyltrisulfane|1-(prop-2-enyltrisulfanyl)propane|1-Allyl-3-propyltrisulfane|2-propenyl propyl trisulfide|3-Propylsulfanyldisulfanylprop-1-ene|33922-73-5|AKOS006282486|Allyl propyltrisulfide|DTXSID70335472|JB8R8DYZ2D|NS00122406|Propyl 2-propenyl trisulfide|SCHEMBL2929093|Trisulfide, 2-propenyl propyl|Trisulfide, allyl propyl|UNII-JB8R8DYZ2D|propyl allyl trisulfide

>  <cas>  (506) 
33922-73-5

$$$$

     RDKit          2D

 29 31  0  0  0  0  0  0  0  0999 V2000
   -6.9923   -2.5297    0.0000 C   0  0  0  0  0  0  0  0  0  0  0  0
   -5.5156   -2.7930    0.0000 O   0  0  0  0  0  0  0  0  0  0  0  0
   -4.5492   -1.6458    0.0000 C   0  0  0  0  0  0  0  0  0  0  0  0
   -5.0595   -0.2353    0.0000 C   0  0  0  0  0  0  0  0  0  0  0  0
   -4.0931    0.9119    0.0000 C   0  0  0  0  0  0  0  0  0  0  0  0
   -4.6034    2.3224    0.0000 O   0  0  0  0  0  0  0  0  0  0  0  0
   -6.0801    2.5858    0.0000 C   0  0  0  0  0  0  0  0  0  0  0  0
   -2.6164    0.6486    0.0000 C   0  0  0  0  0  0  0  0  0  0  0  0
   -1.6500    1.7958    0.0000 C   0  0  0  0  0  0  0  0  0  0  0  0
   -2.1603    3.2063    0.0000 O   0  0  0  0  0  0  0  0  0  0  0  0
   -0.1733    1.5324    0.0000 C   0  0  0  0  0  0  0  0  0  0  0  0
    0.7931    2.6796    0.0000 O   0  0  0  0  0  0  0  0  0  0  0  0
    2.2698    2.4163    0.0000 C   0  0  0  0  0  0  0  0  0  0  0  0
    0.3370    0.1219    0.0000 C   0  0  0  0  0  0  0  0  0  0  0  0
    1.8137   -0.1414    0.0000 C   0  0  0  0  0  0  0  0  0  0  0  0
    2.7801    1.0058    0.0000 C   0  0  0  0  0  0  0  0  0  0  0  0
    4.2568    0.7425    0.0000 C   0  0  0  0  0  0  0  0  0  0  0  0
    5.2232    1.8897    0.0000 O   0  0  0  0  0  0  0  0  0  0  0  0
    4.7129    3.3002    0.0000 C   0  0  0  0  0  0  0  0  0  0  0  0
    4.7671   -0.6681    0.0000 C   0  0  0  0  0  0  0  0  0  0  0  0
    6.2438   -0.9314    0.0000 O   0  0  0  0  0  0  0  0  0  0  0  0
    6.7541   -2.3419    0.0000 C   0  0  0  0  0  0  0  0  0  0  0  0
    3.8007   -1.8153    0.0000 C   0  0  0  0  0  0  0  0  0  0  0  0
    2.3240   -1.5519    0.0000 C   0  0  0  0  0  0  0  0  0  0  0  0
    1.3576   -2.6991    0.0000 O   0  0  0  0  0  0  0  0  0  0  0  0
    1.8679   -4.1097    0.0000 C   0  0  0  0  0  0  0  0  0  0  0  0
   -0.6294   -1.0253    0.0000 O   0  0  0  0  0  0  0  0  0  0  0  0
   -2.1061   -0.7620    0.0000 C   0  0  0  0  0  0  0  0  0  0  0  0
   -3.0725   -1.9092    0.0000 C   0  0  0  0  0  0  0  0  0  0  0  0
  1  2  1  0
  2  3  1  0
  3  4  2  0
  4  5  1  0
  5  6  1  0
  6  7  1  0
  5  8  2  0
  8  9  1  0
  9 10  2  0
  9 11  1  0
 11 12  1  0
 12 13  1  0
 11 14  2  0
 14 15  1  0
 15 16  2  0
 16 17  1  0
 17 18  1  0
 18 19  1  0
 17 20  2  0
 20 21  1  0
 21 22  1  0
 20 23  1  0
 23 24  2  0
 24 25  1  0
 25 26  1  0
 14 27  1  0
 27 28  1  0
 28 29  2  0
 29  3  1  0
 28  8  1  0
 24 15  1  0
M  END
>  <identifier>  (507) 
CNP0324873.0

>  <canonical_smiles>  (507) 
COC1=CC(OC)=C2C(=O)C(OC)=C(C3=CC(OC)=C(OC)C=C3OC)OC2=C1

>  <standard_inchi>  (507) 
InChI=1S/C21H22O8/c1-23-11-7-16(27-5)18-17(8-11)29-20(21(28-6)19(18)22)12-9-14(25-3)15(26-4)10-13(12)24-2/h7-10H,1-6H3

>  <standard_inchi_key>  (507) 
HWMGTYHXLRBKSP-UHFFFAOYSA-N

>  <name>  (507) 
3,5,7,2',4',5'-Hexamethoxyflavone

>  <iupac_name>  (507) 
3,5,7-trimethoxy-2-(2,4,5-trimethoxyphenyl)chromen-4-one

>  <annotation_level>  (507) 
5

>  <total_atom_count>  (507) 
51

>  <heavy_atom_count>  (507) 
29

>  <molecular_weight>  (507) 
402.4

>  <exact_molecular_weight>  (507) 
402.13147

>  <molecular_formula>  (507) 
C21H22O8

>  <alogp>  (507) 
3.51

>  <topological_polar_surface_area>  (507) 
85.59

>  <rotatable_bond_count>  (507) 
7

>  <hydrogen_bond_acceptors>  (507) 
8

>  <hydrogen_bond_donors>  (507) 
0

>  <hydrogen_bond_acceptors_lipinski>  (507) 
8

>  <hydrogen_bond_donors_lipinski>  (507) 
0

>  <lipinski_rule_of_five_violations>  (507) 
0

>  <aromatic_rings_count>  (507) 
3

>  <qed_drug_likeliness>  (507) 
0.59

>  <formal_charge>  (507) 
0

>  <fractioncsp3>  (507) 
0.29

>  <number_of_minimal_rings>  (507) 
3

>  <van_der_walls_volume>  (507) 
350.78

>  <contains_sugar>  (507) 
False

>  <contains_ring_sugars>  (507) 
False

>  <contains_linear_sugars>  (507) 
False

>  <murcko_framework>  (507) 
O1c2ccccc2CC=C1c3ccccc3

>  <np_likeness>  (507) 
0.83

>  <chemical_class>  (507) 
Flavonoids

>  <chemical_sub_class>  (507) 
O-methylated flavonoids

>  <chemical_super_class>  (507) 
Phenylpropanoids and polyketides

>  <direct_parent_classification>  (507) 
3-O-methylated flavonoids

>  <np_classifier_pathway>  (507) 
Shikimates and Phenylpropanoids

>  <np_classifier_superclass>  (507) 
Flavonoids

>  <np_classifier_class>  (507) 
Flavonols

>  <np_classifier_is_glycoside>  (507) 
False

>  <organisms>  (507) 
Apuleia leiocarpa|Distemonanthus benthamianus

>  <collections>  (507) 
KNApSaCK|Latin America dataset|NPEdia|NuBBEDB|WikiData Natural Products|ZINC NP

>  <dois>  (507) 
10.1016/S0031-9422(00)89891-X|10.1039/P19790002696

>  <synonyms>  (507) 
3,5,7,2',4',5'-Hexamethoxyflavone|LMPK12112532|Oxyayanin-A trimethyl ether

>  <cas>  (507) 
nan

$$$$

     RDKit          2D

 23 23  0  0  0  0  0  0  0  0999 V2000
  -12.1620    0.9598    0.0000 C   0  0  0  0  0  0  0  0  0  0  0  0
  -10.9215    0.1165    0.0000 C   0  0  0  0  0  0  0  0  0  0  0  0
  -11.0315   -1.3794    0.0000 O   0  0  0  0  0  0  0  0  0  0  0  0
   -9.5709    0.7692    0.0000 C   0  0  0  0  0  0  0  0  0  0  0  0
   -8.3304   -0.0740    0.0000 C   0  0  0  0  0  0  0  0  0  0  0  0
   -6.9799    0.5787    0.0000 C   0  0  0  0  0  0  0  0  0  0  0  0
   -5.7393   -0.2646    0.0000 C   0  0  0  0  0  0  0  0  0  0  0  0
   -4.3888    0.3881    0.0000 C   0  0  0  0  0  0  0  0  0  0  0  0
   -3.1483   -0.4551    0.0000 C   0  0  0  0  0  0  0  0  0  0  0  0
   -1.7977    0.1976    0.0000 C   0  0  0  0  0  0  0  0  0  0  0  0
   -0.5572   -0.6457    0.0000 C   0  0  0  0  0  0  0  0  0  0  0  0
    0.7934    0.0070    0.0000 C   0  0  0  0  0  0  0  0  0  0  0  0
    2.0339   -0.8362    0.0000 C   0  0  0  0  0  0  0  0  0  0  0  0
    3.3845   -0.1835    0.0000 C   0  0  0  0  0  0  0  0  0  0  0  0
    4.6250   -1.0268    0.0000 C   0  0  0  0  0  0  0  0  0  0  0  0
    5.9755   -0.3740    0.0000 C   0  0  0  0  0  0  0  0  0  0  0  0
    6.0855    1.1219    0.0000 C   0  0  0  0  0  0  0  0  0  0  0  0
    7.4361    1.7746    0.0000 C   0  0  0  0  0  0  0  0  0  0  0  0
    8.6766    0.9314    0.0000 C   0  0  0  0  0  0  0  0  0  0  0  0
   10.0272    1.5841    0.0000 O   0  0  0  0  0  0  0  0  0  0  0  0
    8.5666   -0.5646    0.0000 C   0  0  0  0  0  0  0  0  0  0  0  0
    9.8071   -1.4078    0.0000 C   0  0  0  0  0  0  0  0  0  0  0  0
    7.2161   -1.2173    0.0000 N   0  0  0  0  0  0  0  0  0  0  0  0
  1  2  1  0
  2  3  1  0
  2  4  1  0
  4  5  1  0
  5  6  1  0
  6  7  1  0
  7  8  1  0
  8  9  1  0
  9 10  1  0
 10 11  1  0
 11 12  1  0
 12 13  1  0
 13 14  1  0
 14 15  1  0
 16 15  1  1
 16 17  1  0
 17 18  1  0
 18 19  1  0
 19 20  1  1
 19 21  1  0
 21 22  1  1
 21 23  1  0
 23 16  1  0
M  END
>  <identifier>  (508) 
CNP0192758.1

>  <canonical_smiles>  (508) 
CC(O)CCCCCCCCCCCC[C@H]1CC[C@@H](O)[C@@H](C)N1

>  <standard_inchi>  (508) 
InChI=1S/C20H41NO2/c1-17(22)13-11-9-7-5-3-4-6-8-10-12-14-19-15-16-20(23)18(2)21-19/h17-23H,3-16H2,1-2H3/t17?,18-,19+,20-/m1/s1

>  <standard_inchi_key>  (508) 
POUWXWGBWYDTMW-RAFMOHDBSA-N

>  <name>  (508) 
nan

>  <iupac_name>  (508) 
(2~{R},3~{R},6~{S})-6-(13-hydroxytetradecyl)-2-methyl-piperidin-3-ol

>  <annotation_level>  (508) 
4

>  <total_atom_count>  (508) 
64

>  <heavy_atom_count>  (508) 
23

>  <molecular_weight>  (508) 
327.55

>  <exact_molecular_weight>  (508) 
327.31373

>  <molecular_formula>  (508) 
C20H41NO2

>  <alogp>  (508) 
4.55

>  <topological_polar_surface_area>  (508) 
52.49

>  <rotatable_bond_count>  (508) 
13

>  <hydrogen_bond_acceptors>  (508) 
3

>  <hydrogen_bond_donors>  (508) 
3

>  <hydrogen_bond_acceptors_lipinski>  (508) 
3

>  <hydrogen_bond_donors_lipinski>  (508) 
3

>  <lipinski_rule_of_five_violations>  (508) 
0

>  <aromatic_rings_count>  (508) 
0

>  <qed_drug_likeliness>  (508) 
0.43

>  <formal_charge>  (508) 
0

>  <fractioncsp3>  (508) 
1.00

>  <number_of_minimal_rings>  (508) 
1

>  <van_der_walls_volume>  (508) 
nan

>  <contains_sugar>  (508) 
False

>  <contains_ring_sugars>  (508) 
False

>  <contains_linear_sugars>  (508) 
False

>  <murcko_framework>  (508) 
N1CCCCC1

>  <np_likeness>  (508) 
1.98

>  <chemical_class>  (508) 
nan

>  <chemical_sub_class>  (508) 
Alkaloids and derivatives

>  <chemical_super_class>  (508) 
Alkaloids and derivatives

>  <direct_parent_classification>  (508) 
Alkaloids and derivatives

>  <np_classifier_pathway>  (508) 
Alkaloids

>  <np_classifier_superclass>  (508) 
Lysine alkaloids

>  <np_classifier_class>  (508) 
Piperidine alkaloids

>  <np_classifier_is_glycoside>  (508) 
False

>  <organisms>  (508) 
Cassia leptophylla|Senna spectabilis

>  <collections>  (508) 
Latin America dataset|NuBBEDB|WikiData Natural Products

>  <dois>  (508) 
10.1016/0040-4020(95)00254-6|10.1248/CPB.56.407

>  <synonyms>  (508) 
(-)-Spectalinine, 2-(R)-Methyl-6-(S )-(tetradecyl-13'-hydroxy)-piperidin-3-(R)-ol, 13'-Hydroxyspectaline

>  <cas>  (508) 
nan

$$$$

     RDKit          2D

 47 50  0  0  0  0  0  0  0  0999 V2000
  -13.2965    2.1045    0.0000 C   0  0  0  0  0  0  0  0  0  0  0  0
  -11.8800    1.6110    0.0000 C   0  0  0  0  0  0  0  0  0  0  0  0
  -11.5992    0.1375    0.0000 C   0  0  0  0  0  0  0  0  0  0  0  0
  -10.1827   -0.3560    0.0000 C   0  0  0  0  0  0  0  0  0  0  0  0
   -9.9018   -1.8295    0.0000 C   0  0  0  0  0  0  0  0  0  0  0  0
  -11.0374   -2.8094    0.0000 C   0  0  0  0  0  0  0  0  0  0  0  0
   -8.4853   -2.3230    0.0000 C   0  0  0  0  0  0  0  0  0  0  0  0
   -8.0520   -3.7590    0.0000 C   0  0  0  0  0  0  0  0  0  0  0  0
   -6.5523   -3.7906    0.0000 C   0  0  0  0  0  0  0  0  0  0  0  0
   -6.0588   -2.3742    0.0000 C   0  0  0  0  0  0  0  0  0  0  0  0
   -4.6759   -1.7931    0.0000 C   0  0  0  0  0  0  0  0  0  0  0  0
   -3.4813   -2.7002    0.0000 C   0  0  0  0  0  0  0  0  0  0  0  0
   -2.0984   -2.1191    0.0000 C   0  0  0  0  0  0  0  0  0  0  0  0
   -1.9102   -0.6309    0.0000 C   0  0  0  0  0  0  0  0  0  0  0  0
   -0.5273   -0.0499    0.0000 C   0  0  0  0  0  0  0  0  0  0  0  0
   -0.3391    1.4383    0.0000 C   0  0  0  0  0  0  0  0  0  0  0  0
    1.0438    2.0193    0.0000 O   0  0  0  0  0  0  0  0  0  0  0  0
    2.2385    1.1123    0.0000 C   0  0  0  0  0  0  0  0  0  0  0  0
    2.0503   -0.3759    0.0000 O   0  0  0  0  0  0  0  0  0  0  0  0
    3.6214    1.6933    0.0000 C   0  0  0  0  0  0  0  0  0  0  0  0
    4.8160    0.7863    0.0000 C   0  0  0  0  0  0  0  0  0  0  0  0
    6.1989    1.3673    0.0000 C   0  0  0  0  0  0  0  0  0  0  0  0
    7.3936    0.4603    0.0000 C   0  0  0  0  0  0  0  0  0  0  0  0
    8.7764    1.0413    0.0000 C   0  0  0  0  0  0  0  0  0  0  0  0
    9.9711    0.1343    0.0000 C   0  0  0  0  0  0  0  0  0  0  0  0
   11.3540    0.7153    0.0000 C   0  0  0  0  0  0  0  0  0  0  0  0
   12.5486   -0.1917    0.0000 C   0  0  0  0  0  0  0  0  0  0  0  0
   13.9315    0.3893    0.0000 C   0  0  0  0  0  0  0  0  0  0  0  0
   15.1262   -0.5177    0.0000 C   0  0  0  0  0  0  0  0  0  0  0  0
   16.5091    0.0633    0.0000 C   0  0  0  0  0  0  0  0  0  0  0  0
   17.7037   -0.8437    0.0000 C   0  0  0  0  0  0  0  0  0  0  0  0
   19.0866   -0.2627    0.0000 C   0  0  0  0  0  0  0  0  0  0  0  0
   20.2813   -1.1697    0.0000 C   0  0  0  0  0  0  0  0  0  0  0  0
   21.6642   -0.5887    0.0000 C   0  0  0  0  0  0  0  0  0  0  0  0
   -1.5337    2.3453    0.0000 C   0  0  0  0  0  0  0  0  0  0  0  0
   -2.9166    1.7643    0.0000 C   0  0  0  0  0  0  0  0  0  0  0  0
   -3.1048    0.2761    0.0000 C   0  0  0  0  0  0  0  0  0  0  0  0
   -4.2995    1.1832    0.0000 C   0  0  0  0  0  0  0  0  0  0  0  0
   -4.4877   -0.3049    0.0000 C   0  0  0  0  0  0  0  0  0  0  0  0
   -5.6824    0.6021    0.0000 C   0  0  0  0  0  0  0  0  0  0  0  0
   -7.0652    0.0211    0.0000 C   0  0  0  0  0  0  0  0  0  0  0  0
   -8.2599    0.9281    0.0000 O   0  0  0  0  0  0  0  0  0  0  0  0
   -7.2535   -1.4671    0.0000 C   0  0  0  0  0  0  0  0  0  0  0  0
   -8.5364   -0.6899    0.0000 C   0  0  0  0  0  0  0  0  0  0  0  0
  -10.7444    2.5909    0.0000 C   0  0  0  0  0  0  0  0  0  0  0  0
  -11.0252    4.0644    0.0000 C   0  0  0  0  0  0  0  0  0  0  0  0
   -9.3279    2.0974    0.0000 C   0  0  0  0  0  0  0  0  0  0  0  0
  1  2  2  0
  2  3  1  0
  3  4  1  0
  4  5  1  0
  5  6  1  6
  5  7  1  0
  7  8  1  6
  8  9  1  0
  9 10  1  0
 10 11  1  0
 11 12  1  0
 12 13  1  0
 13 14  2  0
 14 15  1  0
 15 16  1  0
 16 17  1  6
 17 18  1  0
 18 19  2  0
 18 20  1  0
 20 21  1  0
 21 22  1  0
 22 23  1  0
 23 24  1  0
 24 25  1  0
 25 26  1  0
 26 27  1  0
 27 28  1  0
 28 29  1  0
 29 30  1  0
 30 31  1  0
 31 32  1  0
 32 33  1  0
 33 34  1  0
 16 35  1  0
 35 36  1  0
 36 37  1  0
 37 38  1  6
 37 39  1  0
 39 40  1  0
 40 41  1  0
 41 42  1  6
 41 43  1  0
 43 44  1  6
  2 45  1  0
 45 46  1  0
 45 47  1  0
 43  7  1  0
 43 10  1  0
 39 11  1  0
 37 14  1  0
M  END
>  <identifier>  (509) 
CNP0409729.1

>  <canonical_smiles>  (509) 
C=C(CC[C@@H](C)[C@H]1CCC2C3CC=C4C[C@@H](OC(=O)CCCCCCCCCCCCCCC)CC[C@]4(C)C3C[C@@H](O)[C@@]21C)C(C)C

>  <standard_inchi>  (509) 
InChI=1S/C44H76O3/c1-8-9-10-11-12-13-14-15-16-17-18-19-20-21-42(46)47-36-28-29-43(6)35(30-36)24-25-37-39-27-26-38(34(5)23-22-33(4)32(2)3)44(39,7)41(45)31-40(37)43/h24,32,34,36-41,45H,4,8-23,25-31H2,1-3,5-7H3/t34-,36+,37?,38-,39?,40?,41-,43+,44-/m1/s1

>  <standard_inchi_key>  (509) 
UMOBIWXCYMHMHS-VMGRFWFUSA-N

>  <name>  (509) 
nan

>  <iupac_name>  (509) 
[(3~{S},10~{R},12~{R},13~{R},17~{R})-17-[(1~{R})-1,5-dimethyl-4-methylene-hexyl]-12-hydroxy-10,13-dimethyl-2,3,4,7,8,9,11,12,14,15,16,17-dodecahydro-1~{H}-cyclopenta[a]phenanthren-3-yl] hexadecanoate

>  <annotation_level>  (509) 
4

>  <total_atom_count>  (509) 
123

>  <heavy_atom_count>  (509) 
47

>  <molecular_weight>  (509) 
653.09

>  <exact_molecular_weight>  (509) 
652.57945

>  <molecular_formula>  (509) 
C44H76O3

>  <alogp>  (509) 
12.56

>  <topological_polar_surface_area>  (509) 
46.53

>  <rotatable_bond_count>  (509) 
20

>  <hydrogen_bond_acceptors>  (509) 
3

>  <hydrogen_bond_donors>  (509) 
1

>  <hydrogen_bond_acceptors_lipinski>  (509) 
3

>  <hydrogen_bond_donors_lipinski>  (509) 
1

>  <lipinski_rule_of_five_violations>  (509) 
2

>  <aromatic_rings_count>  (509) 
0

>  <qed_drug_likeliness>  (509) 
0.08

>  <formal_charge>  (509) 
0

>  <fractioncsp3>  (509) 
0.89

>  <number_of_minimal_rings>  (509) 
4

>  <van_der_walls_volume>  (509) 
nan

>  <contains_sugar>  (509) 
False

>  <contains_ring_sugars>  (509) 
False

>  <contains_linear_sugars>  (509) 
False

>  <murcko_framework>  (509) 
C1=C2CCCCC2C3CCC4CCCC4C3C1

>  <np_likeness>  (509) 
2.08

>  <chemical_class>  (509) 
Steroids and steroid derivatives

>  <chemical_sub_class>  (509) 
Steroid esters

>  <chemical_super_class>  (509) 
Lipids and lipid-like molecules

>  <direct_parent_classification>  (509) 
Steroid esters

>  <np_classifier_pathway>  (509) 
Terpenoids

>  <np_classifier_superclass>  (509) 
Steroids

>  <np_classifier_class>  (509) 
Cholestane steroids

>  <np_classifier_is_glycoside>  (509) 
False

>  <organisms>  (509) 
Trichilia lepidota

>  <collections>  (509) 
Latin America dataset|NuBBEDB|WikiData Natural Products

>  <dois>  (509) 
10.1590/S0103-50532002000300014

>  <synonyms>  (509) 
24-methylene-12\u221a\u00e9\u00ac\u2264-hydroxycholest-4-en-3-palmitate

>  <cas>  (509) 
nan

$$$$

     RDKit          2D

 41 46  0  0  0  0  0  0  0  0999 V2000
   -3.9607   -6.1572    0.0000 C   0  0  0  0  0  0  0  0  0  0  0  0
   -2.8754   -5.1218    0.0000 O   0  0  0  0  0  0  0  0  0  0  0  0
   -3.2295   -3.6642    0.0000 C   0  0  0  0  0  0  0  0  0  0  0  0
   -4.6688   -3.2420    0.0000 O   0  0  0  0  0  0  0  0  0  0  0  0
   -2.1442   -2.6287    0.0000 C   0  0  0  0  0  0  0  0  0  0  0  0
   -0.7048   -3.0509    0.0000 O   0  0  0  0  0  0  0  0  0  0  0  0
   -2.4983   -1.1711    0.0000 C   0  0  0  0  0  0  0  0  0  0  0  0
   -3.8856   -0.6008    0.0000 C   0  0  0  0  0  0  0  0  0  0  0  0
   -5.1625   -1.3880    0.0000 C   0  0  0  0  0  0  0  0  0  0  0  0
   -3.7720    0.8949    0.0000 C   0  0  0  0  0  0  0  0  0  0  0  0
   -2.3143    1.2490    0.0000 C   0  0  0  0  0  0  0  0  0  0  0  0
   -3.2307    2.4365    0.0000 O   0  0  0  0  0  0  0  0  0  0  0  0
   -4.7173    2.2368    0.0000 C   0  0  0  0  0  0  0  0  0  0  0  0
   -5.6337    3.4243    0.0000 C   0  0  0  0  0  0  0  0  0  0  0  0
   -5.2876    0.8494    0.0000 O   0  0  0  0  0  0  0  0  0  0  0  0
   -1.6022    2.5691    0.0000 C   0  0  0  0  0  0  0  0  0  0  0  0
   -3.0268    2.0998    0.0000 C   0  0  0  0  0  0  0  0  0  0  0  0
   -4.2439    2.9765    0.0000 O   0  0  0  0  0  0  0  0  0  0  0  0
   -0.1028    2.6124    0.0000 C   0  0  0  0  0  0  0  0  0  0  0  0
    0.6094    3.9326    0.0000 O   0  0  0  0  0  0  0  0  0  0  0  0
    0.6844    1.3356    0.0000 C   0  0  0  0  0  0  0  0  0  0  0  0
   -0.8150    1.2923    0.0000 O   0  0  0  0  0  0  0  0  0  0  0  0
   -0.0278    0.0154    0.0000 C   0  0  0  0  0  0  0  0  0  0  0  0
    0.7594   -1.2614    0.0000 C   0  0  0  0  0  0  0  0  0  0  0  0
    2.2588   -1.2181    0.0000 C   0  0  0  0  0  0  0  0  0  0  0  0
    2.9710    0.1020    0.0000 C   0  0  0  0  0  0  0  0  0  0  0  0
    3.7581   -1.1749    0.0000 C   0  0  0  0  0  0  0  0  0  0  0  0
    4.4703    0.1453    0.0000 C   0  0  0  0  0  0  0  0  0  0  0  0
    5.2575   -1.1316    0.0000 C   0  0  0  0  0  0  0  0  0  0  0  0
    6.7532   -1.2452    0.0000 C   0  0  0  0  0  0  0  0  0  0  0  0
    7.1073   -2.7028    0.0000 O   0  0  0  0  0  0  0  0  0  0  0  0
    5.8304   -3.4900    0.0000 C   0  0  0  0  0  0  0  0  0  0  0  0
    4.6872   -2.5189    0.0000 C   0  0  0  0  0  0  0  0  0  0  0  0
    5.1825    1.4654    0.0000 O   0  0  0  0  0  0  0  0  0  0  0  0
    4.3953    2.7423    0.0000 C   0  0  0  0  0  0  0  0  0  0  0  0
    5.1075    4.0624    0.0000 O   0  0  0  0  0  0  0  0  0  0  0  0
    2.8960    2.6990    0.0000 C   0  0  0  0  0  0  0  0  0  0  0  0
    2.1838    1.3788    0.0000 C   0  0  0  0  0  0  0  0  0  0  0  0
    1.3966    2.6557    0.0000 O   0  0  0  0  0  0  0  0  0  0  0  0
   -1.5272   -0.0279    0.0000 C   0  0  0  0  0  0  0  0  0  0  0  0
   -0.8778   -1.3800    0.0000 C   0  0  0  0  0  0  0  0  0  0  0  0
  1  2  1  0
  2  3  1  0
  3  4  2  0
  3  5  1  0
  5  6  1  1
  7  5  1  1
  7  8  1  0
  8  9  1  6
  8 10  1  0
 10 11  1  0
 11 12  1  1
 12 13  1  0
 13 14  1  0
 13 15  2  0
 11 16  1  0
 16 17  1  0
 17 18  2  0
 16 19  1  0
 19 20  1  6
 19 21  1  0
 21 22  1  1
 21 23  1  0
 23 24  1  0
 24 25  1  0
 25 26  1  0
 26 27  1  1
 26 28  1  0
 28 29  1  1
 29 30  2  0
 30 31  1  0
 31 32  1  0
 32 33  2  0
 28 34  1  0
 34 35  1  0
 35 36  2  0
 35 37  1  0
 37 38  1  0
 38 39  1  6
 23 40  1  0
 40 41  1  1
 40  7  1  0
 17  8  1  0
 38 21  1  0
 40 11  1  0
 38 26  1  0
 33 29  1  0
M  END
>  <identifier>  (510) 
CNP0323539.1

>  <canonical_smiles>  (510) 
COC(=O)[C@H](O)[C@H]1[C@@]2(C)C[C@]3(OC(C)=O)C(C2=O)[C@H](O)[C@@]2(O)C(CC[C@@]4(C)[C@H](C5=COC=C5)OC(=O)C[C@@]42O)[C@]13C

>  <standard_inchi>  (510) 
InChI=1S/C29H36O12/c1-13(30)41-27-12-24(2)19(18(32)23(35)38-5)26(27,4)15-6-8-25(3)22(14-7-9-39-11-14)40-16(31)10-28(25,36)29(15,37)21(34)17(27)20(24)33/h7,9,11,15,17-19,21-22,32,34,36-37H,6,8,10,12H2,1-5H3/t15?,17?,18-,19+,21+,22+,24-,25+,26-,27+,28-,29+/m1/s1

>  <standard_inchi_key>  (510) 
BEEHSERCPMYOCS-JELRFZHOSA-N

>  <name>  (510) 
nan

>  <iupac_name>  (510) 
methyl (2~{R})-2-[(1~{S},5~{S},6~{S},10~{R},11~{S},12~{S},15~{R},17~{S},18~{R})-17-acetoxy-6-(3-furyl)-10,11,12-trihydroxy-1,5,15-trimethyl-8,14-dioxo-7-oxapentacyclo[13.2.1.0^{2,11}.0^{5,10}.0^{13,17}]octadecan-18-yl]-2-hydroxy-acetate

>  <annotation_level>  (510) 
4

>  <total_atom_count>  (510) 
77

>  <heavy_atom_count>  (510) 
41

>  <molecular_weight>  (510) 
576.6

>  <exact_molecular_weight>  (510) 
576.22068

>  <molecular_formula>  (510) 
C29H36O12

>  <alogp>  (510) 
0.59

>  <topological_polar_surface_area>  (510) 
190.03

>  <rotatable_bond_count>  (510) 
4

>  <hydrogen_bond_acceptors>  (510) 
12

>  <hydrogen_bond_donors>  (510) 
4

>  <hydrogen_bond_acceptors_lipinski>  (510) 
12

>  <hydrogen_bond_donors_lipinski>  (510) 
4

>  <lipinski_rule_of_five_violations>  (510) 
2

>  <aromatic_rings_count>  (510) 
1

>  <qed_drug_likeliness>  (510) 
0.29

>  <formal_charge>  (510) 
0

>  <fractioncsp3>  (510) 
0.72

>  <number_of_minimal_rings>  (510) 
6

>  <van_der_walls_volume>  (510) 
nan

>  <contains_sugar>  (510) 
False

>  <contains_ring_sugars>  (510) 
False

>  <contains_linear_sugars>  (510) 
False

>  <murcko_framework>  (510) 
o1ccc(c1)C2OCCC3C2CCC4C5CC6CC(CC34)C5C6

>  <np_likeness>  (510) 
2.73

>  <chemical_class>  (510) 
Steroids and steroid derivatives

>  <chemical_sub_class>  (510) 
Oxosteroids

>  <chemical_super_class>  (510) 
Lipids and lipid-like molecules

>  <direct_parent_classification>  (510) 
Oxosteroids

>  <np_classifier_pathway>  (510) 
Terpenoids

>  <np_classifier_superclass>  (510) 
Triterpenoids

>  <np_classifier_class>  (510) 
Limonoids

>  <np_classifier_is_glycoside>  (510) 
False

>  <organisms>  (510) 
Khaya senegalensis

>  <collections>  (510) 
Latin America dataset|NuBBEDB

>  <dois>  (510) 
10.1016/S0031-9422(96)00571-7

>  <synonyms>  (510) 
Methyl 1\u221a\u00e9\u00ac\u00b1 -acetoxy-68\u221a\u00e9\u00ac\u00b114\u221a\u00e9\u00ac\u226430\u221a\u00e9\u00ac\u2264-tetrahydroxy-3-oxo [3.3.1 102.114]. tricyclomeliac-7-oate.

>  <cas>  (510) 
nan

$$$$

     RDKit          2D

 24 25  0  0  0  0  0  0  0  0999 V2000
   -1.1198    2.9922    0.0000 C   0  0  0  0  0  0  0  0  0  0  0  0
   -1.9929    1.7724    0.0000 O   0  0  0  0  0  0  0  0  0  0  0  0
   -1.3732    0.4065    0.0000 C   0  0  0  0  0  0  0  0  0  0  0  0
   -2.2463   -0.8133    0.0000 C   0  0  0  0  0  0  0  0  0  0  0  0
   -3.7391   -0.6670    0.0000 C   0  0  0  0  0  0  0  0  0  0  0  0
   -4.3589    0.6990    0.0000 C   0  0  0  0  0  0  0  0  0  0  0  0
   -5.8517    0.8452    0.0000 C   0  0  0  0  0  0  0  0  0  0  0  0
   -6.4715    2.2112    0.0000 C   0  0  0  0  0  0  0  0  0  0  0  0
   -6.7248   -0.3745    0.0000 C   0  0  0  0  0  0  0  0  0  0  0  0
   -1.6265   -2.1792    0.0000 C   0  0  0  0  0  0  0  0  0  0  0  0
   -0.1336   -2.3255    0.0000 C   0  0  0  0  0  0  0  0  0  0  0  0
    0.4861   -3.6915    0.0000 C   0  0  0  0  0  0  0  0  0  0  0  0
    1.9790   -3.8377    0.0000 C   0  0  0  0  0  0  0  0  0  0  0  0
    2.8521   -2.6180    0.0000 C   0  0  0  0  0  0  0  0  0  0  0  0
    4.3449   -2.7643    0.0000 O   0  0  0  0  0  0  0  0  0  0  0  0
    2.2323   -1.2520    0.0000 O   0  0  0  0  0  0  0  0  0  0  0  0
    0.7395   -1.1058    0.0000 C   0  0  0  0  0  0  0  0  0  0  0  0
    0.1197    0.2602    0.0000 C   0  0  0  0  0  0  0  0  0  0  0  0
    0.9928    1.4799    0.0000 O   0  0  0  0  0  0  0  0  0  0  0  0
    2.4856    1.3337    0.0000 C   0  0  0  0  0  0  0  0  0  0  0  0
    3.3587    2.5534    0.0000 C   0  0  0  0  0  0  0  0  0  0  0  0
    4.8516    2.4071    0.0000 C   0  0  0  0  0  0  0  0  0  0  0  0
    5.7247    3.6268    0.0000 C   0  0  0  0  0  0  0  0  0  0  0  0
    5.4713    1.0411    0.0000 C   0  0  0  0  0  0  0  0  0  0  0  0
  1  2  1  0
  2  3  1  0
  3  4  2  0
  4  5  1  0
  5  6  1  0
  6  7  2  0
  7  8  1  0
  7  9  1  0
  4 10  1  0
 10 11  2  0
 11 12  1  0
 12 13  2  0
 13 14  1  0
 14 15  2  0
 14 16  1  0
 16 17  1  0
 17 18  2  0
 18 19  1  0
 19 20  1  0
 20 21  1  0
 21 22  2  0
 22 23  1  0
 22 24  1  0
 18  3  1  0
 17 11  1  0
M  END
>  <identifier>  (511) 
CNP0080522.0

>  <canonical_smiles>  (511) 
COC1=C(CC=C(C)C)C=C2C=CC(=O)OC2=C1OCC=C(C)C

>  <standard_inchi>  (511) 
InChI=1S/C20H24O4/c1-13(2)6-7-15-12-16-8-9-17(21)24-19(16)20(18(15)22-5)23-11-10-14(3)4/h6,8-10,12H,7,11H2,1-5H3

>  <standard_inchi_key>  (511) 
KQVXNVAPNVELEE-UHFFFAOYSA-N

>  <name>  (511) 
nan

>  <iupac_name>  (511) 
7-methoxy-8-(3-methylbut-2-enoxy)-6-(3-methylbut-2-enyl)chromen-2-one

>  <annotation_level>  (511) 
4

>  <total_atom_count>  (511) 
48

>  <heavy_atom_count>  (511) 
24

>  <molecular_weight>  (511) 
328.41

>  <exact_molecular_weight>  (511) 
328.16746

>  <molecular_formula>  (511) 
C20H24O4

>  <alogp>  (511) 
4.66

>  <topological_polar_surface_area>  (511) 
48.67

>  <rotatable_bond_count>  (511) 
6

>  <hydrogen_bond_acceptors>  (511) 
4

>  <hydrogen_bond_donors>  (511) 
0

>  <hydrogen_bond_acceptors_lipinski>  (511) 
4

>  <hydrogen_bond_donors_lipinski>  (511) 
0

>  <lipinski_rule_of_five_violations>  (511) 
0

>  <aromatic_rings_count>  (511) 
2

>  <qed_drug_likeliness>  (511) 
0.57

>  <formal_charge>  (511) 
0

>  <fractioncsp3>  (511) 
0.35

>  <number_of_minimal_rings>  (511) 
2

>  <van_der_walls_volume>  (511) 
nan

>  <contains_sugar>  (511) 
False

>  <contains_ring_sugars>  (511) 
False

>  <contains_linear_sugars>  (511) 
False

>  <murcko_framework>  (511) 
O1c2ccccc2C=CC1

>  <np_likeness>  (511) 
1.40

>  <chemical_class>  (511) 
Coumarins and derivatives

>  <chemical_sub_class>  (511) 
Coumarins and derivatives

>  <chemical_super_class>  (511) 
Phenylpropanoids and polyketides

>  <direct_parent_classification>  (511) 
Coumarins and derivatives

>  <np_classifier_pathway>  (511) 
Shikimates and Phenylpropanoids

>  <np_classifier_superclass>  (511) 
Coumarins

>  <np_classifier_class>  (511) 
Simple coumarins

>  <np_classifier_is_glycoside>  (511) 
False

>  <organisms>  (511) 
Brosimum parinarioides

>  <collections>  (511) 
Latin America dataset|NuBBEDB|WikiData Natural Products|ZINC NP

>  <dois>  (511) 
10.1016/S0031-9422(00)89841-6

>  <synonyms>  (511) 
O-Prenylbrosiparin

>  <cas>  (511) 
nan

$$$$

     RDKit          2D

 24 25  0  0  0  0  0  0  0  0999 V2000
   -2.5719   -3.9069    0.0000 C   0  0  0  0  0  0  0  0  0  0  0  0
   -1.3745   -3.0035    0.0000 C   0  0  0  0  0  0  0  0  0  0  0  0
    0.0066   -3.5887    0.0000 O   0  0  0  0  0  0  0  0  0  0  0  0
   -1.5583   -1.5148    0.0000 O   0  0  0  0  0  0  0  0  0  0  0  0
   -0.3609   -0.6113    0.0000 C   0  0  0  0  0  0  0  0  0  0  0  0
    1.0203   -1.1965    0.0000 C   0  0  0  0  0  0  0  0  0  0  0  0
    1.2040   -2.6853    0.0000 O   0  0  0  0  0  0  0  0  0  0  0  0
    2.2177   -0.2931    0.0000 C   0  0  0  0  0  0  0  0  0  0  0  0
    3.5988   -0.8783    0.0000 C   0  0  0  0  0  0  0  0  0  0  0  0
    3.7825   -2.3670    0.0000 C   0  0  0  0  0  0  0  0  0  0  0  0
    4.7962    0.0251    0.0000 C   0  0  0  0  0  0  0  0  0  0  0  0
    4.6125    1.5138    0.0000 C   0  0  0  0  0  0  0  0  0  0  0  0
    3.2313    2.0991    0.0000 C   0  0  0  0  0  0  0  0  0  0  0  0
    3.0476    3.5878    0.0000 C   0  0  0  0  0  0  0  0  0  0  0  0
    2.0339    1.1956    0.0000 C   0  0  0  0  0  0  0  0  0  0  0  0
    0.6528    1.7809    0.0000 C   0  0  0  0  0  0  0  0  0  0  0  0
   -0.5446    0.8774    0.0000 C   0  0  0  0  0  0  0  0  0  0  0  0
   -1.9257    1.4627    0.0000 C   0  0  0  0  0  0  0  0  0  0  0  0
   -2.5109    0.0815    0.0000 C   0  0  0  0  0  0  0  0  0  0  0  0
   -1.3404    2.8438    0.0000 C   0  0  0  0  0  0  0  0  0  0  0  0
   -3.3068    2.0479    0.0000 O   0  0  0  0  0  0  0  0  0  0  0  0
   -4.5042    1.1444    0.0000 C   0  0  0  0  0  0  0  0  0  0  0  0
   -5.8853    1.7297    0.0000 C   0  0  0  0  0  0  0  0  0  0  0  0
   -4.3205   -0.3443    0.0000 O   0  0  0  0  0  0  0  0  0  0  0  0
  1  2  1  0
  2  3  2  0
  2  4  1  0
  5  4  1  6
  5  6  1  0
  6  7  2  0
  6  8  1  0
  8  9  2  0
  9 10  1  0
  9 11  1  0
 11 12  2  0
 12 13  1  0
 13 14  1  0
 13 15  2  0
 15 16  1  0
 16 17  1  0
 17 18  1  1
 18 19  1  0
 18 20  1  0
 18 21  1  0
 21 22  1  0
 22 23  1  0
 22 24  2  0
 17  5  1  0
 15  8  1  0
M  END
>  <identifier>  (512) 
CNP0080597.1

>  <canonical_smiles>  (512) 
CC(=O)O[C@H]1C(=O)C2=C(C)C=CC(C)=C2C[C@@H]1C(C)(C)OC(C)=O

>  <standard_inchi>  (512) 
InChI=1S/C19H24O5/c1-10-7-8-11(2)16-14(10)9-15(19(5,6)24-13(4)21)18(17(16)22)23-12(3)20/h7-8,15,18H,9H2,1-6H3/t15-,18+/m0/s1

>  <standard_inchi_key>  (512) 
QPOJFDQWIYAUAI-MAUKXSAKSA-N

>  <name>  (512) 
nan

>  <iupac_name>  (512) 
[(2~{R},3~{S})-3-(1-acetoxy-1-methyl-ethyl)-5,8-dimethyl-1-oxo-tetralin-2-yl] acetate

>  <annotation_level>  (512) 
4

>  <total_atom_count>  (512) 
48

>  <heavy_atom_count>  (512) 
24

>  <molecular_weight>  (512) 
332.4

>  <exact_molecular_weight>  (512) 
332.16237

>  <molecular_formula>  (512) 
C19H24O5

>  <alogp>  (512) 
2.93

>  <topological_polar_surface_area>  (512) 
69.67

>  <rotatable_bond_count>  (512) 
3

>  <hydrogen_bond_acceptors>  (512) 
5

>  <hydrogen_bond_donors>  (512) 
0

>  <hydrogen_bond_acceptors_lipinski>  (512) 
5

>  <hydrogen_bond_donors_lipinski>  (512) 
0

>  <lipinski_rule_of_five_violations>  (512) 
0

>  <aromatic_rings_count>  (512) 
1

>  <qed_drug_likeliness>  (512) 
0.80

>  <formal_charge>  (512) 
0

>  <fractioncsp3>  (512) 
0.53

>  <number_of_minimal_rings>  (512) 
2

>  <van_der_walls_volume>  (512) 
nan

>  <contains_sugar>  (512) 
False

>  <contains_ring_sugars>  (512) 
False

>  <contains_linear_sugars>  (512) 
False

>  <murcko_framework>  (512) 
c1ccc2c(c1)CCCC2

>  <np_likeness>  (512) 
1.36

>  <chemical_class>  (512) 
Tetralins

>  <chemical_sub_class>  (512) 
Tetralins

>  <chemical_super_class>  (512) 
Benzenoids

>  <direct_parent_classification>  (512) 
Tetralins

>  <np_classifier_pathway>  (512) 
Terpenoids

>  <np_classifier_superclass>  (512) 
nan

>  <np_classifier_class>  (512) 
nan

>  <np_classifier_is_glycoside>  (512) 
False

>  <organisms>  (512) 
Emmotum nitens

>  <collections>  (512) 
Latin America dataset|NuBBEDB|WikiData Natural Products

>  <dois>  (512) 
10.1016/0031-9422(76)85091-1

>  <synonyms>  (512) 
Emmotin-F diacetate

>  <cas>  (512) 
nan

$$$$

     RDKit          2D

 33 36  0  0  0  0  0  0  0  0999 V2000
    7.0769   -3.3498    0.0000 C   0  0  0  0  0  0  0  0  0  0  0  0
    6.5168   -1.9583    0.0000 O   0  0  0  0  0  0  0  0  0  0  0  0
    5.0317   -1.7476    0.0000 C   0  0  0  0  0  0  0  0  0  0  0  0
    4.1066   -2.9284    0.0000 C   0  0  0  0  0  0  0  0  0  0  0  0
    2.6215   -2.7177    0.0000 C   0  0  0  0  0  0  0  0  0  0  0  0
    1.6965   -3.8985    0.0000 O   0  0  0  0  0  0  0  0  0  0  0  0
    2.0614   -1.3262    0.0000 C   0  0  0  0  0  0  0  0  0  0  0  0
    0.5763   -1.1155    0.0000 C   0  0  0  0  0  0  0  0  0  0  0  0
   -0.3488   -2.2963    0.0000 O   0  0  0  0  0  0  0  0  0  0  0  0
    0.0162    0.2760    0.0000 C   0  0  0  0  0  0  0  0  0  0  0  0
   -1.4689    0.4867    0.0000 O   0  0  0  0  0  0  0  0  0  0  0  0
   -2.3940   -0.6941    0.0000 C   0  0  0  0  0  0  0  0  0  0  0  0
   -1.8339   -2.0856    0.0000 O   0  0  0  0  0  0  0  0  0  0  0  0
   -2.7589   -3.2664    0.0000 C   0  0  0  0  0  0  0  0  0  0  0  0
   -2.1988   -4.6579    0.0000 C   0  0  0  0  0  0  0  0  0  0  0  0
   -4.2440   -3.0557    0.0000 C   0  0  0  0  0  0  0  0  0  0  0  0
   -5.1691   -4.2365    0.0000 O   0  0  0  0  0  0  0  0  0  0  0  0
   -4.8041   -1.6642    0.0000 C   0  0  0  0  0  0  0  0  0  0  0  0
   -6.2893   -1.4535    0.0000 O   0  0  0  0  0  0  0  0  0  0  0  0
   -3.8791   -0.4834    0.0000 C   0  0  0  0  0  0  0  0  0  0  0  0
   -4.4392    0.9081    0.0000 O   0  0  0  0  0  0  0  0  0  0  0  0
    0.9412    1.4568    0.0000 C   0  0  0  0  0  0  0  0  0  0  0  0
    0.3812    2.8483    0.0000 C   0  0  0  0  0  0  0  0  0  0  0  0
   -1.1040    3.0590    0.0000 C   0  0  0  0  0  0  0  0  0  0  0  0
   -1.6641    4.4505    0.0000 C   0  0  0  0  0  0  0  0  0  0  0  0
   -0.7390    5.6314    0.0000 C   0  0  0  0  0  0  0  0  0  0  0  0
   -1.2991    7.0229    0.0000 O   0  0  0  0  0  0  0  0  0  0  0  0
    0.7461    5.4206    0.0000 C   0  0  0  0  0  0  0  0  0  0  0  0
    1.6712    6.6014    0.0000 O   0  0  0  0  0  0  0  0  0  0  0  0
    1.3062    4.0291    0.0000 C   0  0  0  0  0  0  0  0  0  0  0  0
    2.4264    1.2461    0.0000 O   0  0  0  0  0  0  0  0  0  0  0  0
    2.9865   -0.1454    0.0000 C   0  0  0  0  0  0  0  0  0  0  0  0
    4.4716   -0.3561    0.0000 C   0  0  0  0  0  0  0  0  0  0  0  0
  1  2  1  0
  2  3  1  0
  3  4  2  0
  4  5  1  0
  5  6  1  0
  5  7  2  0
  7  8  1  0
  8  9  2  0
  8 10  1  0
 10 11  1  0
 12 11  1  6
 12 13  1  0
 13 14  1  0
 14 15  1  1
 14 16  1  0
 16 17  1  6
 16 18  1  0
 18 19  1  1
 18 20  1  0
 20 21  1  1
 10 22  2  0
 22 23  1  0
 23 24  2  0
 24 25  1  0
 25 26  2  0
 26 27  1  0
 26 28  1  0
 28 29  1  0
 28 30  2  0
 22 31  1  0
 31 32  1  0
 32 33  2  0
 33  3  1  0
 32  7  1  0
 20 12  1  0
 30 23  1  0
M  END
>  <identifier>  (513) 
CNP0245956.2

>  <canonical_smiles>  (513) 
COC1=CC(O)=C2C(=O)C(O[C@@H]3O[C@@H](C)[C@H](O)[C@@H](O)[C@H]3O)=C(C3=CC=C(O)C(O)=C3)OC2=C1

>  <standard_inchi>  (513) 
InChI=1S/C22H22O11/c1-8-16(26)18(28)19(29)22(31-8)33-21-17(27)15-13(25)6-10(30-2)7-14(15)32-20(21)9-3-4-11(23)12(24)5-9/h3-8,16,18-19,22-26,28-29H,1-2H3/t8-,16-,18+,19+,22-/m0/s1

>  <standard_inchi_key>  (513) 
LOMXQCXSNSCLNP-UFGFRKJLSA-N

>  <name>  (513) 
Rhamnetin 3-rhamnoside

>  <iupac_name>  (513) 
2-(3,4-dihydroxyphenyl)-5-hydroxy-7-methoxy-3-[(2~{S},3~{R},4~{R},5~{R},6~{S})-3,4,5-trihydroxy-6-methyl-tetrahydropyran-2-yl]oxy-chromen-4-one

>  <annotation_level>  (513) 
5

>  <total_atom_count>  (513) 
55

>  <heavy_atom_count>  (513) 
33

>  <molecular_weight>  (513) 
462.41

>  <exact_molecular_weight>  (513) 
462.11621

>  <molecular_formula>  (513) 
C22H22O11

>  <alogp>  (513) 
0.79

>  <topological_polar_surface_area>  (513) 
179.28

>  <rotatable_bond_count>  (513) 
4

>  <hydrogen_bond_acceptors>  (513) 
11

>  <hydrogen_bond_donors>  (513) 
6

>  <hydrogen_bond_acceptors_lipinski>  (513) 
11

>  <hydrogen_bond_donors_lipinski>  (513) 
6

>  <lipinski_rule_of_five_violations>  (513) 
2

>  <aromatic_rings_count>  (513) 
3

>  <qed_drug_likeliness>  (513) 
0.30

>  <formal_charge>  (513) 
0

>  <fractioncsp3>  (513) 
0.32

>  <number_of_minimal_rings>  (513) 
4

>  <van_der_walls_volume>  (513) 
378.67

>  <contains_sugar>  (513) 
True

>  <contains_ring_sugars>  (513) 
True

>  <contains_linear_sugars>  (513) 
False

>  <murcko_framework>  (513) 
O1c2ccccc2CC(OC3OCCCC3)=C1c4ccccc4

>  <np_likeness>  (513) 
1.97

>  <chemical_class>  (513) 
Flavonoids

>  <chemical_sub_class>  (513) 
Flavonoid glycosides

>  <chemical_super_class>  (513) 
Phenylpropanoids and polyketides

>  <direct_parent_classification>  (513) 
Flavonoid-3-O-glycosides

>  <np_classifier_pathway>  (513) 
Shikimates and Phenylpropanoids

>  <np_classifier_superclass>  (513) 
Flavonoids

>  <np_classifier_class>  (513) 
Flavonols

>  <np_classifier_is_glycoside>  (513) 
True

>  <organisms>  (513) 
Acacia ixiophylla|Chiococca alba|Chiococca brachiata|Hyphear tanakae|Loranthus europaeus|Loranthus tanakae|Sageretia thea|Woodfordia uniflora

>  <collections>  (513) 
Australian natural products|ChemSpider NPs|Latin America dataset|NPASS|NuBBEDB|Super Natural II|WikiData Natural Products|ZINC NP

>  <dois>  (513) 
10.1002/JCCS.200900146|10.1021/NP50036A034|10.1021/acs.jnatprod.0c00395|10.1071/ch9680425|10.1248/CPB.36.1180|10.1590/S0103-50532004000400004

>  <synonyms>  (513) 
2-(3,4-dihydroxyphenyl)-5-hydroxy-7-methoxy-3-[(2S,3R,4R,5R,6S)-3,4,5-trihydroxy-6-methyloxan-2-yl]oxychromen-4-one|20188-83-4|7-O-Methoxyquercitrin|CHEMBL4751426|DTXSID70174020|Rhamnetin-3-rhamnoside|SCHEMBL26113311|XR161587

>  <cas>  (513) 
20188-83-4

$$$$

     RDKit          2D

 25 28  0  0  0  0  0  0  0  0999 V2000
   -0.2263   -3.2589    0.0000 C   0  0  0  0  0  0  0  0  0  0  0  0
    1.0585   -2.4846    0.0000 O   0  0  0  0  0  0  0  0  0  0  0  0
    1.0303   -0.9848    0.0000 C   0  0  0  0  0  0  0  0  0  0  0  0
    2.3150   -0.2106    0.0000 C   0  0  0  0  0  0  0  0  0  0  0  0
    3.6279   -0.9360    0.0000 O   0  0  0  0  0  0  0  0  0  0  0  0
    4.9126   -0.1617    0.0000 C   0  0  0  0  0  0  0  0  0  0  0  0
    6.3847    0.1264    0.0000 C   0  0  0  0  0  0  0  0  0  0  0  0
    5.4520   -1.5614    0.0000 C   0  0  0  0  0  0  0  0  0  0  0  0
    4.8844    1.3380    0.0000 C   0  0  0  0  0  0  0  0  0  0  0  0
    3.5715    2.0634    0.0000 C   0  0  0  0  0  0  0  0  0  0  0  0
    2.2868    1.2892    0.0000 C   0  0  0  0  0  0  0  0  0  0  0  0
    0.9739    2.0146    0.0000 C   0  0  0  0  0  0  0  0  0  0  0  0
   -0.3108    1.2403    0.0000 C   0  0  0  0  0  0  0  0  0  0  0  0
   -0.2826   -0.2594    0.0000 C   0  0  0  0  0  0  0  0  0  0  0  0
   -1.5673   -1.0337    0.0000 N   0  0  0  0  0  0  0  0  0  0  0  0
   -1.5392   -2.5334    0.0000 C   0  0  0  0  0  0  0  0  0  0  0  0
   -2.8802   -0.3082    0.0000 C   0  0  0  0  0  0  0  0  0  0  0  0
   -4.1650   -1.0825    0.0000 C   0  0  0  0  0  0  0  0  0  0  0  0
   -4.1368   -2.5822    0.0000 O   0  0  0  0  0  0  0  0  0  0  0  0
   -5.4779   -0.3570    0.0000 C   0  0  0  0  0  0  0  0  0  0  0  0
   -5.5061    1.1427    0.0000 C   0  0  0  0  0  0  0  0  0  0  0  0
   -4.2213    1.9170    0.0000 C   0  0  0  0  0  0  0  0  0  0  0  0
   -2.9084    1.1915    0.0000 C   0  0  0  0  0  0  0  0  0  0  0  0
   -1.6237    1.9658    0.0000 C   0  0  0  0  0  0  0  0  0  0  0  0
   -1.6519    3.4655    0.0000 O   0  0  0  0  0  0  0  0  0  0  0  0
  1  2  1  0
  2  3  1  0
  3  4  2  0
  4  5  1  0
  5  6  1  0
  6  7  1  0
  6  8  1  0
  6  9  1  0
  9 10  2  0
 10 11  1  0
 11 12  2  0
 12 13  1  0
 13 14  2  0
 14 15  1  0
 15 16  1  0
 15 17  1  0
 17 18  2  0
 18 19  1  0
 18 20  1  0
 20 21  2  0
 21 22  1  0
 22 23  2  0
 23 24  1  0
 24 25  2  0
 14  3  1  0
 23 17  1  0
 11  4  1  0
 24 13  1  0
M  END
>  <identifier>  (514) 
CNP0080651.0

>  <canonical_smiles>  (514) 
COC1=C2OC(C)(C)C=CC2=CC2=C1N(C)C1=C(O)C=CC=C1C2=O

>  <standard_inchi>  (514) 
InChI=1S/C20H19NO4/c1-20(2)9-8-11-10-13-16(19(24-4)18(11)25-20)21(3)15-12(17(13)23)6-5-7-14(15)22/h5-10,22H,1-4H3

>  <standard_inchi_key>  (514) 
OVVOORPIIJOMON-UHFFFAOYSA-N

>  <name>  (514) 
nan

>  <iupac_name>  (514) 
10-hydroxy-12-methoxy-2,2,11-trimethyl-pyrano[3,2-b]acridin-6-one

>  <annotation_level>  (514) 
4

>  <total_atom_count>  (514) 
44

>  <heavy_atom_count>  (514) 
25

>  <molecular_weight>  (514) 
337.38

>  <exact_molecular_weight>  (514) 
337.13141

>  <molecular_formula>  (514) 
C20H19NO4

>  <alogp>  (514) 
3.59

>  <topological_polar_surface_area>  (514) 
60.69

>  <rotatable_bond_count>  (514) 
1

>  <hydrogen_bond_acceptors>  (514) 
5

>  <hydrogen_bond_donors>  (514) 
1

>  <hydrogen_bond_acceptors_lipinski>  (514) 
5

>  <hydrogen_bond_donors_lipinski>  (514) 
1

>  <lipinski_rule_of_five_violations>  (514) 
0

>  <aromatic_rings_count>  (514) 
3

>  <qed_drug_likeliness>  (514) 
0.69

>  <formal_charge>  (514) 
0

>  <fractioncsp3>  (514) 
0.25

>  <number_of_minimal_rings>  (514) 
4

>  <van_der_walls_volume>  (514) 
nan

>  <contains_sugar>  (514) 
False

>  <contains_ring_sugars>  (514) 
False

>  <contains_linear_sugars>  (514) 
False

>  <murcko_framework>  (514) 
O1c2cc3Nc4ccccc4Cc3cc2C=CC1

>  <np_likeness>  (514) 
1.94

>  <chemical_class>  (514) 
Quinolines and derivatives

>  <chemical_sub_class>  (514) 
Benzoquinolines

>  <chemical_super_class>  (514) 
Organoheterocyclic compounds

>  <direct_parent_classification>  (514) 
Acridones

>  <np_classifier_pathway>  (514) 
Alkaloids

>  <np_classifier_superclass>  (514) 
Anthranilic acid alkaloids

>  <np_classifier_class>  (514) 
Acridone alkaloids

>  <np_classifier_is_glycoside>  (514) 
False

>  <organisms>  (514) 
Swinglea glutinosa

>  <collections>  (514) 
Latin America dataset|NuBBEDB|WikiData Natural Products

>  <dois>  (514) 
10.1080/14786410600907002

>  <synonyms>  (514) 
5 dihydroxyacronycine

>  <cas>  (514) 
nan

$$$$

     RDKit          2D

 26 27  0  0  0  0  0  0  0  0999 V2000
   -5.6851   -2.2392    0.0000 O   0  0  0  0  0  0  0  0  0  0  0  0
   -5.6594   -0.7394    0.0000 C   0  0  0  0  0  0  0  0  0  0  0  0
   -4.3476   -0.0118    0.0000 C   0  0  0  0  0  0  0  0  0  0  0  0
   -3.0617   -0.7840    0.0000 C   0  0  0  0  0  0  0  0  0  0  0  0
   -1.7499   -0.0565    0.0000 C   0  0  0  0  0  0  0  0  0  0  0  0
   -0.4640   -0.8287    0.0000 C   0  0  0  0  0  0  0  0  0  0  0  0
    0.8478   -0.1011    0.0000 C   0  0  0  0  0  0  0  0  0  0  0  0
    2.1337   -0.8733    0.0000 C   0  0  0  0  0  0  0  0  0  0  0  0
    3.4455   -0.1458    0.0000 C   0  0  0  0  0  0  0  0  0  0  0  0
    4.7314   -0.9180    0.0000 C   0  0  0  0  0  0  0  0  0  0  0  0
    6.0431   -0.1904    0.0000 C   0  0  0  0  0  0  0  0  0  0  0  0
    7.3291   -0.9626    0.0000 C   0  0  0  0  0  0  0  0  0  0  0  0
    8.6408   -0.2351    0.0000 C   0  0  0  0  0  0  0  0  0  0  0  0
    9.9268   -1.0073    0.0000 C   0  0  0  0  0  0  0  0  0  0  0  0
   11.2385   -0.2797    0.0000 C   0  0  0  0  0  0  0  0  0  0  0  0
   11.2643    1.2200    0.0000 C   0  0  0  0  0  0  0  0  0  0  0  0
    9.9784    1.9923    0.0000 C   0  0  0  0  0  0  0  0  0  0  0  0
    8.6666    1.2647    0.0000 C   0  0  0  0  0  0  0  0  0  0  0  0
   -6.9453    0.0328    0.0000 C   0  0  0  0  0  0  0  0  0  0  0  0
   -6.9195    1.5326    0.0000 C   0  0  0  0  0  0  0  0  0  0  0  0
   -5.6078    2.2602    0.0000 O   0  0  0  0  0  0  0  0  0  0  0  0
   -8.2055    2.3048    0.0000 C   0  0  0  0  0  0  0  0  0  0  0  0
   -9.5172    1.5773    0.0000 C   0  0  0  0  0  0  0  0  0  0  0  0
   -9.5430    0.0775    0.0000 C   0  0  0  0  0  0  0  0  0  0  0  0
   -8.2571   -0.6947    0.0000 C   0  0  0  0  0  0  0  0  0  0  0  0
   -8.2828   -2.1945    0.0000 O   0  0  0  0  0  0  0  0  0  0  0  0
  1  2  2  0
  2  3  1  0
  3  4  1  0
  4  5  1  0
  5  6  1  0
  6  7  1  0
  7  8  1  0
  8  9  1  0
  9 10  1  0
 10 11  1  0
 11 12  1  0
 12 13  1  0
 13 14  2  0
 14 15  1  0
 15 16  2  0
 16 17  1  0
 17 18  2  0
  2 19  1  0
 19 20  2  0
 20 21  1  0
 20 22  1  0
 22 23  2  0
 23 24  1  0
 24 25  2  0
 25 26  1  0
 18 13  1  0
 25 19  1  0
M  END
>  <identifier>  (515) 
CNP0192387.0

>  <canonical_smiles>  (515) 
O=C(CCCCCCCCCCC1=CC=CC=C1)C1=C(O)C=CC=C1O

>  <standard_inchi>  (515) 
InChI=1S/C23H30O3/c24-20(23-21(25)17-12-18-22(23)26)16-11-6-4-2-1-3-5-8-13-19-14-9-7-10-15-19/h7,9-10,12,14-15,17-18,25-26H,1-6,8,11,13,16H2

>  <standard_inchi_key>  (515) 
JEUSOLAWSNFKCL-UHFFFAOYSA-N

>  <name>  (515) 
NSC631952

>  <iupac_name>  (515) 
1-(2,6-dihydroxyphenyl)-11-phenyl-undecan-1-one

>  <annotation_level>  (515) 
5

>  <total_atom_count>  (515) 
56

>  <heavy_atom_count>  (515) 
26

>  <molecular_weight>  (515) 
354.49

>  <exact_molecular_weight>  (515) 
354.21949

>  <molecular_formula>  (515) 
C23H30O3

>  <alogp>  (515) 
6.03

>  <topological_polar_surface_area>  (515) 
57.53

>  <rotatable_bond_count>  (515) 
12

>  <hydrogen_bond_acceptors>  (515) 
3

>  <hydrogen_bond_donors>  (515) 
2

>  <hydrogen_bond_acceptors_lipinski>  (515) 
3

>  <hydrogen_bond_donors_lipinski>  (515) 
2

>  <lipinski_rule_of_five_violations>  (515) 
1

>  <aromatic_rings_count>  (515) 
2

>  <qed_drug_likeliness>  (515) 
0.36

>  <formal_charge>  (515) 
0

>  <fractioncsp3>  (515) 
0.44

>  <number_of_minimal_rings>  (515) 
2

>  <van_der_walls_volume>  (515) 
nan

>  <contains_sugar>  (515) 
False

>  <contains_ring_sugars>  (515) 
False

>  <contains_linear_sugars>  (515) 
False

>  <murcko_framework>  (515) 
c1ccc(cc1)CCCCCCCCCCCc2ccccc2

>  <np_likeness>  (515) 
0.35

>  <chemical_class>  (515) 
Organooxygen compounds

>  <chemical_sub_class>  (515) 
Carbonyl compounds

>  <chemical_super_class>  (515) 
Organic oxygen compounds

>  <direct_parent_classification>  (515) 
Alkyl-phenylketones

>  <np_classifier_pathway>  (515) 
Polyketides

>  <np_classifier_superclass>  (515) 
Aromatic polyketides

>  <np_classifier_class>  (515) 
Catechols with side chains

>  <np_classifier_is_glycoside>  (515) 
False

>  <organisms>  (515) 
Horsfieldia glabra|Virola peruviana|Virola sebifera

>  <collections>  (515) 
Latin America dataset|NuBBEDB|Super Natural II|UNPD (Universal Natural Products Database)|WikiData Natural Products|ZINC NP

>  <dois>  (515) 
10.1016/0031-9422(82)83181-6|10.1016/0031-9422(88)83067-X|10.1016/S0031-9422(00)82577-7

>  <synonyms>  (515) 
1-(2,6-Dihydroxyphenyl)-11-phenyl-1-undecanone|CHEMBL2007584|JEUSOLAWSNFKCL-UHFFFAOYSA-N|NCI60_010527|NSC-631952|Phen-1,3-diol, 2-[11-phenundecanoyl]-

>  <cas>  (515) 
nan

$$$$

     RDKit          2D

 15 15  0  0  0  0  0  0  0  0999 V2000
    5.3263    1.0298    0.0000 C   0  0  0  0  0  0  0  0  0  0  0  0
    3.8331    0.8875    0.0000 C   0  0  0  0  0  0  0  0  0  0  0  0
    2.9632    2.1094    0.0000 C   0  0  0  0  0  0  0  0  0  0  0  0
    3.2098   -0.4769    0.0000 C   0  0  0  0  0  0  0  0  0  0  0  0
    1.7165   -0.6193    0.0000 C   0  0  0  0  0  0  0  0  0  0  0  0
    1.0932   -1.9836    0.0000 C   0  0  0  0  0  0  0  0  0  0  0  0
   -0.4000   -2.1260    0.0000 C   0  0  0  0  0  0  0  0  0  0  0  0
   -1.0233   -3.4904    0.0000 C   0  0  0  0  0  0  0  0  0  0  0  0
   -1.2699   -0.9040    0.0000 C   0  0  0  0  0  0  0  0  0  0  0  0
   -2.7631   -1.0464    0.0000 C   0  0  0  0  0  0  0  0  0  0  0  0
   -3.6331    0.1756    0.0000 C   0  0  0  0  0  0  0  0  0  0  0  0
   -3.0098    1.5399    0.0000 C   0  0  0  0  0  0  0  0  0  0  0  0
   -3.8797    2.7619    0.0000 C   0  0  0  0  0  0  0  0  0  0  0  0
   -1.5165    1.6823    0.0000 C   0  0  0  0  0  0  0  0  0  0  0  0
   -0.6466    0.4603    0.0000 C   0  0  0  0  0  0  0  0  0  0  0  0
  1  2  1  0
  2  3  1  0
  2  4  2  0
  4  5  1  0
  5  6  1  0
  6  7  2  0
  7  8  1  0
  7  9  1  0
  9 10  1  0
 10 11  1  0
 11 12  2  0
 12 13  1  0
 12 14  1  0
 14 15  1  0
 15  9  1  0
M  END
>  <identifier>  (516) 
CNP0266750.6

>  <canonical_smiles>  (516) 
CC(C)=CC/C=C(/C)C1CC=C(C)CC1

>  <standard_inchi>  (516) 
InChI=1S/C15H24/c1-12(2)6-5-7-14(4)15-10-8-13(3)9-11-15/h6-8,15H,5,9-11H2,1-4H3/b14-7-

>  <standard_inchi_key>  (516) 
YHBUQBJHSRGZNF-AUWJEWJLSA-N

>  <name>  (516) 
nan

>  <iupac_name>  (516) 
nan

>  <annotation_level>  (516) 
0

>  <total_atom_count>  (516) 
39

>  <heavy_atom_count>  (516) 
15

>  <molecular_weight>  (516) 
204.36

>  <exact_molecular_weight>  (516) 
204.1878

>  <molecular_formula>  (516) 
C15H24

>  <alogp>  (516) 
5.04

>  <topological_polar_surface_area>  (516) 
0.00

>  <rotatable_bond_count>  (516) 
3

>  <hydrogen_bond_acceptors>  (516) 
0

>  <hydrogen_bond_donors>  (516) 
0

>  <hydrogen_bond_acceptors_lipinski>  (516) 
0

>  <hydrogen_bond_donors_lipinski>  (516) 
0

>  <lipinski_rule_of_five_violations>  (516) 
1

>  <aromatic_rings_count>  (516) 
0

>  <qed_drug_likeliness>  (516) 
0.57

>  <formal_charge>  (516) 
0

>  <fractioncsp3>  (516) 
0.60

>  <number_of_minimal_rings>  (516) 
1

>  <van_der_walls_volume>  (516) 
232.72

>  <contains_sugar>  (516) 
False

>  <contains_ring_sugars>  (516) 
False

>  <contains_linear_sugars>  (516) 
False

>  <murcko_framework>  (516) 
C1=CCCCC1

>  <np_likeness>  (516) 
2.65

>  <chemical_class>  (516) 
nan

>  <chemical_sub_class>  (516) 
nan

>  <chemical_super_class>  (516) 
nan

>  <direct_parent_classification>  (516) 
nan

>  <np_classifier_pathway>  (516) 
Terpenoids

>  <np_classifier_superclass>  (516) 
Sesquiterpenoids

>  <np_classifier_class>  (516) 
Bisabolane sesquiterpenoids

>  <np_classifier_is_glycoside>  (516) 
False

>  <organisms>  (516) 
Aloysia citriodora|Aloysia citrodora|Aloysia triphylla|Alpinia chinensis|Angelica pubescens|Chrysanthemum indicum|Chrysanthemum x morifolium|Citrus medica|Commiphora guidottii|Curcuma longa|Daucus carota|Dendranthema indicum|Eremanthus arboreus|Eucalyptus calycogona|Euphorbia wallichii|Garcinia mangostana|Gossypium hirsutum|Grindelia hirsutula|Hedyosmum bonplandianum|Jamesoniella autumnalis|Melissa officinalis|Origanum vulgare|Panax ginseng|Pectis elongata var. floribunda|Picea schrenkiana|Plicanthus hirtellus|Pseudotsuga menziesii|Salvia dorisiana|Saussurea lappa|Scapania crassiretis|Scapania nemorea|Schisandra chinensis|Swietenia macrophylla|Syzygiella autumnalis|Syzygium aromaticum|Teucrium polium|Thymus maroccanus|Valeriana officinalis|Zingiber officinale|Ziziphus jujuba

>  <collections>  (516) 
ANPDB|Australian natural products|CMAUP (cCollective molecular activities of useful plants)|EMNPD|FooDB|Latin America dataset|NANPDB (Natural Products from Northern African Sources)|NPASS|NuBBEDB|WikiData Natural Products

>  <dois>  (516) 
10.1002/1099-1026(200005/06)15:3<201::AID-FFJ893>3.0.CO;2-I|10.1002/CBDV.201300390|10.1002/FFJ.2730100311|10.1002/ffj.2730060405|10.1007/BF00597721|10.1007/BF00600859|10.1016/0031-9422(82)80025-3|10.1016/0031-9422(91)80026-W|10.1016/0031-9422(91)83456-U|10.1016/0305-1978(84)90011-5|10.1016/0305-1978(95)00033-Q|10.1021/JF60200A011|10.1021/JF980108M|10.1021/NP50039A032|10.1023/A:1025694720727|10.1055/S-2006-957488|10.1055/S-2006-960032|10.1055/S-2007-969858|10.1055/S-2007-969896|10.1080/10412905.1989.9697801|10.1080/10412905.1993.9698253|10.1080/10412905.1994.9698330|10.1080/10412905.1994.9698409|10.1080/10412905.1994.9699357|10.1080/10412905.1999.9701062

>  <synonyms>  (516) 
nan

>  <cas>  (516) 
nan

$$$$

     RDKit          2D

 39 43  0  0  0  0  0  0  0  0999 V2000
    0.2516    5.7935    0.0000 C   0  0  0  0  0  0  0  0  0  0  0  0
   -0.0350    4.3212    0.0000 C   0  0  0  0  0  0  0  0  0  0  0  0
    1.0968    3.3368    0.0000 C   0  0  0  0  0  0  0  0  0  0  0  0
    2.5152    3.8247    0.0000 C   0  0  0  0  0  0  0  0  0  0  0  0
    0.8101    1.8644    0.0000 C   0  0  0  0  0  0  0  0  0  0  0  0
    1.7125    0.6662    0.0000 C   0  0  0  0  0  0  0  0  0  0  0  0
    3.2123    0.6920    0.0000 C   0  0  0  0  0  0  0  0  0  0  0  0
    3.9845   -0.5940    0.0000 C   0  0  0  0  0  0  0  0  0  0  0  0
    3.3980   -1.9746    0.0000 C   0  0  0  0  0  0  0  0  0  0  0  0
    4.5298   -2.9590    0.0000 N   0  0  0  0  0  0  0  0  0  0  0  0
    5.8158   -2.1868    0.0000 C   0  0  0  0  0  0  0  0  0  0  0  0
    7.2501   -2.6258    0.0000 C   0  0  0  0  0  0  0  0  0  0  0  0
    8.3474   -1.6031    0.0000 C   0  0  0  0  0  0  0  0  0  0  0  0
    8.0104   -0.1414    0.0000 C   0  0  0  0  0  0  0  0  0  0  0  0
    6.5761    0.2975    0.0000 C   0  0  0  0  0  0  0  0  0  0  0  0
    5.4787   -0.7252    0.0000 C   0  0  0  0  0  0  0  0  0  0  0  0
    0.8518   -0.5623    0.0000 N   0  0  0  0  0  0  0  0  0  0  0  0
   -0.5825   -0.1233    0.0000 C   0  0  0  0  0  0  0  0  0  0  0  0
   -1.2193   -0.6029    0.0000 O   0  0  0  0  0  0  0  0  0  0  0  0
   -0.6083    1.3765    0.0000 C   0  0  0  0  0  0  0  0  0  0  0  0
   -0.7164    0.5869    0.0000 C   0  0  0  0  0  0  0  0  0  0  0  0
    0.3086    0.2141    0.0000 O   0  0  0  0  0  0  0  0  0  0  0  0
   -1.5443   -1.0273    0.0000 C   0  0  0  0  0  0  0  0  0  0  0  0
   -2.0095   -1.7146    0.0000 C   0  0  0  0  0  0  0  0  0  0  0  0
   -2.7408   -2.1070    0.0000 C   0  0  0  0  0  0  0  0  0  0  0  0
   -2.0212   -4.9162    0.0000 O   0  0  0  0  0  0  0  0  0  0  0  0
   -3.5707   -2.1145    0.0000 C   0  0  0  0  0  0  0  0  0  0  0  0
   -4.2390   -4.9365    0.0000 O   0  0  0  0  0  0  0  0  0  0  0  0
   -4.3091   -1.7356    0.0000 C   0  0  0  0  0  0  0  0  0  0  0  0
   -6.2123   -3.9237    0.0000 C   0  0  0  0  0  0  0  0  0  0  0  0
   -4.7867   -1.0569    0.0000 C   0  0  0  0  0  0  0  0  0  0  0  0
   -4.8943   -0.2340    0.0000 C   0  0  0  0  0  0  0  0  0  0  0  0
   -7.7762    0.0893    0.0000 C   0  0  0  0  0  0  0  0  0  0  0  0
   -4.6071    0.5447    0.0000 C   0  0  0  0  0  0  0  0  0  0  0  0
   -3.9909    1.1007    0.0000 C   0  0  0  0  0  0  0  0  0  0  0  0
   -2.5070    2.1444    0.0000 C   0  0  0  0  0  0  0  0  0  0  0  0
   -1.7401    2.3609    0.0000 C   0  0  0  0  0  0  0  0  0  0  0  0
   -1.4534    3.8332    0.0000 C   0  0  0  0  0  0  0  0  0  0  0  0
   -2.5852    4.8176    0.0000 O   0  0  0  0  0  0  0  0  0  0  0  0
  1  2  1  0
  2  3  2  0
  3  4  1  0
  3  5  1  0
  5  6  1  1
  6  7  1  0
  7  8  1  0
  8  9  2  0
  9 10  1  0
 10 11  1  0
 11 12  2  0
 12 13  1  0
 13 14  2  0
 14 15  1  0
 15 16  2  0
  6 17  1  0
 17 18  1  0
 18 19  2  0
 20 18  1  1
 20 21  1  0
 21 22  2  0
 21 23  1  0
 23 24  1  0
 24 25  1  0
 25 26  1  0
 25 27  1  0
 27 28  2  0
 27 29  1  0
 29 30  1  0
 29 31  2  0
 31 32  1  0
 32 33  1  6
 32 34  1  0
 34 35  1  0
 35 36  2  3
 37 36  1  1
 37 38  1  0
 38 39  1  6
 38  2  1  0
 20  5  1  0
 16  8  1  0
 37 20  1  0
 16 11  1  0
M  END
>  <identifier>  (517) 
CNP0150339.3

>  <canonical_smiles>  (517) 
CC1=C(C)[C@H]2C(CC3=CNC4=CC=CC=C34)NC(=O)[C@]23C(=O)CCC(O)C(=O)/C(C)=C\[C@H](C)CC=C[C@H]3[C@@H]1O

>  <standard_inchi>  (517) 
InChI=1S/C32H38N2O5/c1-17-8-7-10-23-30(38)20(4)19(3)28-25(15-21-16-33-24-11-6-5-9-22(21)24)34-31(39)32(23,28)27(36)13-12-26(35)29(37)18(2)14-17/h5-7,9-11,14,16-17,23,25-26,28,30,33,35,38H,8,12-13,15H2,1-4H3,(H,34,39)/b10-7?,18-14-/t17-,23+,25?,26?,28+,30-,32-/m1/s1

>  <standard_inchi_key>  (517) 
FPNAKNFLJIQADW-TZBUCOGDSA-N

>  <name>  (517) 
Chaetoglobosin E

>  <iupac_name>  (517) 
(1~{R},7~{Z},9~{R},13~{R},14~{S},17~{R})-5,14-dihydroxy-18-(1~{H}-indol-3-ylmethyl)-7,9,15,16-tetramethyl-19-azatricyclo[11.7.0.0^{1,17}]icosa-7,11,15-triene-2,6,20-trione

>  <annotation_level>  (517) 
5

>  <total_atom_count>  (517) 
77

>  <heavy_atom_count>  (517) 
39

>  <molecular_weight>  (517) 
530.67

>  <exact_molecular_weight>  (517) 
530.27807

>  <molecular_formula>  (517) 
C32H38N2O5

>  <alogp>  (517) 
3.96

>  <topological_polar_surface_area>  (517) 
119.49

>  <rotatable_bond_count>  (517) 
2

>  <hydrogen_bond_acceptors>  (517) 
5

>  <hydrogen_bond_donors>  (517) 
4

>  <hydrogen_bond_acceptors_lipinski>  (517) 
5

>  <hydrogen_bond_donors_lipinski>  (517) 
4

>  <lipinski_rule_of_five_violations>  (517) 
1

>  <aromatic_rings_count>  (517) 
2

>  <qed_drug_likeliness>  (517) 
0.35

>  <formal_charge>  (517) 
0

>  <fractioncsp3>  (517) 
0.47

>  <number_of_minimal_rings>  (517) 
5

>  <van_der_walls_volume>  (517) 
nan

>  <contains_sugar>  (517) 
False

>  <contains_ring_sugars>  (517) 
False

>  <contains_linear_sugars>  (517) 
False

>  <murcko_framework>  (517) 
c1ccc2c(c1)[nH]cc2CC3NCC45CCCCCC=CCCC=CC5CC=CC34

>  <np_likeness>  (517) 
2.25

>  <chemical_class>  (517) 
Isoindoles and derivatives

>  <chemical_sub_class>  (517) 
Isoindolines

>  <chemical_super_class>  (517) 
Organoheterocyclic compounds

>  <direct_parent_classification>  (517) 
Isoindolones

>  <np_classifier_pathway>  (517) 
Alkaloids

>  <np_classifier_superclass>  (517) 
Pseudoalkaloids

>  <np_classifier_class>  (517) 
Cytochalasan alkaloids

>  <np_classifier_is_glycoside>  (517) 
False

>  <organisms>  (517) 
Chaetomium globosum

>  <collections>  (517) 
Latin America dataset|NuBBEDB|WikiData Natural Products

>  <dois>  (517) 
10.1590/S0100-40422008000700015|10.1590/s0100-40422008000700015

>  <synonyms>  (517) 
Chaetoglobosin E

>  <cas>  (517) 
nan

$$$$

     RDKit          2D

 30 33  0  0  0  0  0  0  0  0999 V2000
   -7.2343    3.0259    0.0000 C   0  0  0  0  0  0  0  0  0  0  0  0
   -6.8319    1.5809    0.0000 C   0  0  0  0  0  0  0  0  0  0  0  0
   -5.3793    1.2068    0.0000 C   0  0  0  0  0  0  0  0  0  0  0  0
   -4.9769   -0.2382    0.0000 C   0  0  0  0  0  0  0  0  0  0  0  0
   -3.5243   -0.6123    0.0000 C   0  0  0  0  0  0  0  0  0  0  0  0
   -3.1220   -2.0573    0.0000 C   0  0  0  0  0  0  0  0  0  0  0  0
   -4.1722   -3.1283    0.0000 C   0  0  0  0  0  0  0  0  0  0  0  0
   -1.6694   -2.4314    0.0000 C   0  0  0  0  0  0  0  0  0  0  0  0
   -1.1182   -3.8264    0.0000 C   0  0  0  0  0  0  0  0  0  0  0  0
    0.3789   -3.7333    0.0000 C   0  0  0  0  0  0  0  0  0  0  0  0
    0.7530   -2.2807    0.0000 C   0  0  0  0  0  0  0  0  0  0  0  0
    2.0828   -1.5867    0.0000 C   0  0  0  0  0  0  0  0  0  0  0  0
    3.3487   -2.3913    0.0000 C   0  0  0  0  0  0  0  0  0  0  0  0
    4.6785   -1.6973    0.0000 C   0  0  0  0  0  0  0  0  0  0  0  0
    4.7424   -0.1987    0.0000 C   0  0  0  0  0  0  0  0  0  0  0  0
    6.0722    0.4953    0.0000 C   0  0  0  0  0  0  0  0  0  0  0  0
    6.1361    1.9940    0.0000 C   0  0  0  0  0  0  0  0  0  0  0  0
    7.4659    2.6880    0.0000 O   0  0  0  0  0  0  0  0  0  0  0  0
    4.8701    2.7986    0.0000 C   0  0  0  0  0  0  0  0  0  0  0  0
    3.5403    2.1046    0.0000 C   0  0  0  0  0  0  0  0  0  0  0  0
    3.4765    0.6060    0.0000 C   0  0  0  0  0  0  0  0  0  0  0  0
    2.2105    1.4106    0.0000 C   0  0  0  0  0  0  0  0  0  0  0  0
    2.1467   -0.0880    0.0000 C   0  0  0  0  0  0  0  0  0  0  0  0
    0.8807    0.7166    0.0000 C   0  0  0  0  0  0  0  0  0  0  0  0
   -0.4490    0.0226    0.0000 C   0  0  0  0  0  0  0  0  0  0  0  0
   -0.5129   -1.4761    0.0000 C   0  0  0  0  0  0  0  0  0  0  0  0
   -1.8560   -0.8081    0.0000 C   0  0  0  0  0  0  0  0  0  0  0  0
   -4.3291    2.2778    0.0000 C   0  0  0  0  0  0  0  0  0  0  0  0
   -4.7314    3.7228    0.0000 C   0  0  0  0  0  0  0  0  0  0  0  0
   -2.8764    1.9037    0.0000 C   0  0  0  0  0  0  0  0  0  0  0  0
  1  2  1  0
  3  2  1  1
  3  4  1  0
  4  5  2  0
  5  6  1  0
  6  7  1  6
  6  8  1  0
  8  9  1  6
  9 10  1  0
 11 10  1  6
 11 12  1  0
 12 13  1  1
 13 14  1  0
 15 14  1  1
 15 16  1  0
 16 17  1  0
 17 18  2  0
 17 19  1  0
 19 20  1  0
 20 21  1  0
 21 22  1  6
 21 23  1  0
 23 24  1  6
 24 25  1  0
 25 26  1  0
 26 27  1  6
  3 28  1  0
 28 29  1  0
 28 30  1  0
 26  8  1  0
 26 11  1  0
 23 12  1  0
 21 15  1  0
M  END
>  <identifier>  (518) 
CNP0178483.1

>  <canonical_smiles>  (518) 
CC[C@H](/C=C/[C@@H](C)[C@H]1CC[C@H]2[C@@H]3CC[C@@H]4CC(=O)CC[C@]4(C)[C@H]3CC[C@]12C)C(C)C

>  <standard_inchi>  (518) 
InChI=1S/C29H48O/c1-7-21(19(2)3)9-8-20(4)25-12-13-26-24-11-10-22-18-23(30)14-16-28(22,5)27(24)15-17-29(25,26)6/h8-9,19-22,24-27H,7,10-18H2,1-6H3/b9-8+/t20-,21-,22-,24+,25-,26+,27+,28+,29-/m1/s1

>  <standard_inchi_key>  (518) 
RTLUSWHIKFIQFU-DALQDKCESA-N

>  <name>  (518) 
Stigmastenone

>  <iupac_name>  (518) 
(5~{R},8~{R},9~{S},10~{S},13~{R},14~{S},17~{R})-17-[(~{E},1~{R},4~{S})-4-ethyl-1,5-dimethyl-hex-2-enyl]-10,13-dimethyl-1,2,4,5,6,7,8,9,11,12,14,15,16,17-tetradecahydrocyclopenta[a]phenanthren-3-one

>  <annotation_level>  (518) 
5

>  <total_atom_count>  (518) 
78

>  <heavy_atom_count>  (518) 
30

>  <molecular_weight>  (518) 
412.7

>  <exact_molecular_weight>  (518) 
412.37052

>  <molecular_formula>  (518) 
C29H48O

>  <alogp>  (518) 
8.09

>  <topological_polar_surface_area>  (518) 
17.07

>  <rotatable_bond_count>  (518) 
5

>  <hydrogen_bond_acceptors>  (518) 
1

>  <hydrogen_bond_donors>  (518) 
0

>  <hydrogen_bond_acceptors_lipinski>  (518) 
1

>  <hydrogen_bond_donors_lipinski>  (518) 
0

>  <lipinski_rule_of_five_violations>  (518) 
1

>  <aromatic_rings_count>  (518) 
0

>  <qed_drug_likeliness>  (518) 
0.42

>  <formal_charge>  (518) 
0

>  <fractioncsp3>  (518) 
0.90

>  <number_of_minimal_rings>  (518) 
4

>  <van_der_walls_volume>  (518) 
439.52

>  <contains_sugar>  (518) 
False

>  <contains_ring_sugars>  (518) 
False

>  <contains_linear_sugars>  (518) 
False

>  <murcko_framework>  (518) 
C1CCC2C(C1)CCC3C4CCCC4CCC23

>  <np_likeness>  (518) 
2.44

>  <chemical_class>  (518) 
Steroids and steroid derivatives

>  <chemical_sub_class>  (518) 
Stigmastanes and derivatives

>  <chemical_super_class>  (518) 
Lipids and lipid-like molecules

>  <direct_parent_classification>  (518) 
Stigmastanes and derivatives

>  <np_classifier_pathway>  (518) 
Terpenoids

>  <np_classifier_superclass>  (518) 
Steroids

>  <np_classifier_class>  (518) 
Cholestane steroids

>  <np_classifier_is_glycoside>  (518) 
False

>  <organisms>  (518) 
Astragalus complanatus|Atractylodes lancea|Cicer arietinum|Dianella ensifolia|Eclipta prostrata|Gleditsia sinensis|Harrisonia abyssinica|Homalolepis cuneata|Lathyrus sativus|Lens culinaris|Morinda officinalis|Oryza sativa|Phragmites communis|Piper kadsura|Pisum sativum|Salvia miltiorrhiza|Simaba cuneata|Taraxacum mongolicum|Vigna cylindrica|Vigna mungo|Zea mays|soybean

>  <collections>  (518) 
Australian natural products|CMAUP (cCollective molecular activities of useful plants)|Latin America dataset|NPASS|NuBBEDB|Super Natural II|TCMDB-Taiwan (Traditional Chinese Medicine database)|WikiData Natural Products

>  <dois>  (518) 
10.1016/0031-9422(92)80374-N|10.1016/S0031-9422(00)94844-1|10.1055/S-2000-11120|10.1080/14786419.2019.1689499

>  <synonyms>  (518) 
(5R,8R,9S,10S,13R,14S,17R)-17-((2R,5S,E)-5-Ethyl-6-methylhept-3-en-2-yl)-10,13-dimethylhexadecahydro-3H-cyclopenta(a)phenanthren-3-one|(5R,8R,9S,10S,13R,14S,17R)-17-((E,2R,5S)-5-Ethyl-6-methyl-hept-3-en-2-yl)-10,13-dimethyl-1,2,4,5,6,7,8,9,11,12,14,15,16,17-tetradecahydrocyclopenta(a)phenanthren-3-one|(5beta,22E)-Stigmast-22-en-3-one|24.BETA.-ETHYL-5.BETA.-CHOLEST-22-EN-3-ONE|24beta-Ethyl-5beta-cholest-22-en-3-one|4736-55-4|5.BETA.-STIGMAST-22-EN-3-ONE|5_-Stigmast-22-en-3-one|5beta-Stigmast-22-en-3-one|85907B49EV|A840582|NSC-63551|Q27269623|STIGMAST-22-EN-3-ONE, (5.BETA.,22E)-|Stigmast-22-en-3-one, (5beta,22E)-|Stigmastenone|UNII-85907B49EV

>  <cas>  (518) 
4736-55-4

$$$$

     RDKit          2D

 36 41  0  0  0  0  0  0  0  0999 V2000
    3.8237   -5.1233    0.0000 C   0  0  0  0  0  0  0  0  0  0  0  0
    2.7917   -4.0347    0.0000 O   0  0  0  0  0  0  0  0  0  0  0  0
    3.2185   -2.5967    0.0000 C   0  0  0  0  0  0  0  0  0  0  0  0
    4.6772   -2.2473    0.0000 O   0  0  0  0  0  0  0  0  0  0  0  0
    2.1865   -1.5081    0.0000 C   0  0  0  0  0  0  0  0  0  0  0  0
    0.7277   -1.8575    0.0000 O   0  0  0  0  0  0  0  0  0  0  0  0
    2.6132   -0.0701    0.0000 C   0  0  0  0  0  0  0  0  0  0  0  0
    4.0720    0.2793    0.0000 C   0  0  0  0  0  0  0  0  0  0  0  0
    4.1628   -1.2179    0.0000 C   0  0  0  0  0  0  0  0  0  0  0  0
    5.5622    0.1088    0.0000 C   0  0  0  0  0  0  0  0  0  0  0  0
    4.4987    1.7173    0.0000 C   0  0  0  0  0  0  0  0  0  0  0  0
    5.9575    2.0668    0.0000 O   0  0  0  0  0  0  0  0  0  0  0  0
    3.4668    2.8059    0.0000 C   0  0  0  0  0  0  0  0  0  0  0  0
    2.0080    2.4565    0.0000 C   0  0  0  0  0  0  0  0  0  0  0  0
    0.7723    3.3068    0.0000 O   0  0  0  0  0  0  0  0  0  0  0  0
   -0.4182    2.3942    0.0000 C   0  0  0  0  0  0  0  0  0  0  0  0
   -1.0032    3.1857    0.0000 C   0  0  0  0  0  0  0  0  0  0  0  0
    0.0818    0.9800    0.0000 C   0  0  0  0  0  0  0  0  0  0  0  0
    0.2768   -0.5073    0.0000 C   0  0  0  0  0  0  0  0  0  0  0  0
   -1.0774   -1.1523    0.0000 C   0  0  0  0  0  0  0  0  0  0  0  0
   -2.1094   -0.0637    0.0000 C   0  0  0  0  0  0  0  0  0  0  0  0
   -2.6841   -1.4493    0.0000 C   0  0  0  0  0  0  0  0  0  0  0  0
   -3.6089   -0.1022    0.0000 C   0  0  0  0  0  0  0  0  0  0  0  0
   -4.3253   -1.4201    0.0000 C   0  0  0  0  0  0  0  0  0  0  0  0
   -3.6802   -2.7743    0.0000 C   0  0  0  0  0  0  0  0  0  0  0  0
   -4.7688   -3.8063    0.0000 O   0  0  0  0  0  0  0  0  0  0  0  0
   -6.0867   -3.0899    0.0000 C   0  0  0  0  0  0  0  0  0  0  0  0
   -5.8126   -1.6151    0.0000 C   0  0  0  0  0  0  0  0  0  0  0  0
   -4.3920    1.1771    0.0000 O   0  0  0  0  0  0  0  0  0  0  0  0
   -3.6756    2.4950    0.0000 C   0  0  0  0  0  0  0  0  0  0  0  0
   -4.4587    3.7744    0.0000 O   0  0  0  0  0  0  0  0  0  0  0  0
   -2.1761    2.5335    0.0000 C   0  0  0  0  0  0  0  0  0  0  0  0
   -1.8149    3.4490    0.0000 O   0  0  0  0  0  0  0  0  0  0  0  0
   -1.3930    1.2541    0.0000 C   0  0  0  0  0  0  0  0  0  0  0  0
    1.5813    1.0185    0.0000 C   0  0  0  0  0  0  0  0  0  0  0  0
    1.0065   -0.3670    0.0000 C   0  0  0  0  0  0  0  0  0  0  0  0
  1  2  1  0
  2  3  1  0
  3  4  2  0
  3  5  1  0
  5  6  1  6
  5  7  1  0
  7  8  1  6
  8  9  1  0
  8 10  1  0
  8 11  1  0
 11 12  2  0
 11 13  1  0
 13 14  2  0
 14 15  1  0
 15 16  1  0
 16 17  1  6
 16 18  1  0
 18 19  1  6
 19 20  1  0
 20 21  1  0
 21 22  1  6
 21 23  1  0
 23 24  1  6
 24 25  2  0
 25 26  1  0
 26 27  1  0
 27 28  2  0
 23 29  1  0
 29 30  1  0
 30 31  2  0
 30 32  1  0
 32 33  1  6
 34 32  1  1
 18 35  1  0
 35 36  1  6
 35  7  1  0
 35 14  1  0
 34 16  1  0
 34 18  1  0
 34 21  1  0
 28 24  1  0
M  END
>  <identifier>  (519) 
CNP0102375.1

>  <canonical_smiles>  (519) 
COC(=O)[C@H](O)[C@H]1C(C)(C)C(=O)C=C2O[C@@]3(C)[C@@]4(CC[C@@]5(C)[C@H](C6=COC=C6)OC(=O)[C@H](O)[C@@]345)[C@@]21C

>  <standard_inchi>  (519) 
InChI=1S/C27H32O9/c1-22(2)14(28)11-15-24(4,17(22)16(29)20(31)33-6)26-9-8-23(3)19(13-7-10-34-12-13)35-21(32)18(30)27(23,26)25(26,5)36-15/h7,10-12,16-19,29-30H,8-9H2,1-6H3/t16-,17+,18+,19+,23+,24+,25+,26-,27-/m1/s1

>  <standard_inchi_key>  (519) 
UOCZFFUCZSEQRL-WOBBLAGFSA-N

>  <name>  (519) 
nan

>  <iupac_name>  (519) 
methyl (2~{R})-2-[(1~{S},2~{S},8~{R},9~{S},10~{S},13~{R},14~{R},17~{R})-14-(3-furyl)-17-hydroxy-2,7,7,9,13-pentamethyl-6,16-dioxo-3,15-dioxapentacyclo[8.7.0.0^{1,13}.0^{2,10}.0^{4,9}]heptadec-4-en-8-yl]-2-hydroxy-acetate

>  <annotation_level>  (519) 
4

>  <total_atom_count>  (519) 
68

>  <heavy_atom_count>  (519) 
36

>  <molecular_weight>  (519) 
500.54

>  <exact_molecular_weight>  (519) 
500.20463

>  <molecular_formula>  (519) 
C27H32O9

>  <alogp>  (519) 
2.46

>  <topological_polar_surface_area>  (519) 
132.50

>  <rotatable_bond_count>  (519) 
3

>  <hydrogen_bond_acceptors>  (519) 
9

>  <hydrogen_bond_donors>  (519) 
2

>  <hydrogen_bond_acceptors_lipinski>  (519) 
9

>  <hydrogen_bond_donors_lipinski>  (519) 
2

>  <lipinski_rule_of_five_violations>  (519) 
1

>  <aromatic_rings_count>  (519) 
1

>  <qed_drug_likeliness>  (519) 
0.60

>  <formal_charge>  (519) 
0

>  <fractioncsp3>  (519) 
0.67

>  <number_of_minimal_rings>  (519) 
6

>  <van_der_walls_volume>  (519) 
nan

>  <contains_sugar>  (519) 
False

>  <contains_ring_sugars>  (519) 
False

>  <contains_linear_sugars>  (519) 
False

>  <murcko_framework>  (519) 
o1ccc(c1)C2OCCC34C5OC6=CCCCC6C54CCC23

>  <np_likeness>  (519) 
2.19

>  <chemical_class>  (519) 
Oxocins

>  <chemical_sub_class>  (519) 
Oxocins

>  <chemical_super_class>  (519) 
Organoheterocyclic compounds

>  <direct_parent_classification>  (519) 
Oxocins

>  <np_classifier_pathway>  (519) 
Terpenoids

>  <np_classifier_superclass>  (519) 
Triterpenoids

>  <np_classifier_class>  (519) 
Limonoids

>  <np_classifier_is_glycoside>  (519) 
False

>  <organisms>  (519) 
Hortia oreadica

>  <collections>  (519) 
Latin America dataset|NuBBEDB|WikiData Natural Products

>  <dois>  (519) 
10.1016/j.phytochem.2011.12.016|10.3390/MOLECULES190812031

>  <synonyms>  (519) 
6-hydroxyhortiolide C

>  <cas>  (519) 
nan

$$$$

     RDKit          2D

 15 16  0  0  0  0  0  0  0  0999 V2000
    2.1951    3.6485    0.0000 C   0  0  0  0  0  0  0  0  0  0  0  0
    2.2914    2.1516    0.0000 O   0  0  0  0  0  0  0  0  0  0  0  0
    1.0432    1.3197    0.0000 C   0  0  0  0  0  0  0  0  0  0  0  0
   -0.3013    1.9847    0.0000 C   0  0  0  0  0  0  0  0  0  0  0  0
   -1.5495    1.1529    0.0000 C   0  0  0  0  0  0  0  0  0  0  0  0
   -2.8940    1.8179    0.0000 O   0  0  0  0  0  0  0  0  0  0  0  0
   -1.4531   -0.3440    0.0000 N   0  0  0  0  0  0  0  0  0  0  0  0
   -2.7013   -1.1759    0.0000 O   0  0  0  0  0  0  0  0  0  0  0  0
   -4.0459   -0.5109    0.0000 C   0  0  0  0  0  0  0  0  0  0  0  0
   -0.1086   -1.0091    0.0000 C   0  0  0  0  0  0  0  0  0  0  0  0
   -0.0123   -2.5060    0.0000 C   0  0  0  0  0  0  0  0  0  0  0  0
    1.3322   -3.1710    0.0000 C   0  0  0  0  0  0  0  0  0  0  0  0
    2.5804   -2.3391    0.0000 C   0  0  0  0  0  0  0  0  0  0  0  0
    2.4841   -0.8422    0.0000 C   0  0  0  0  0  0  0  0  0  0  0  0
    1.1396   -0.1772    0.0000 C   0  0  0  0  0  0  0  0  0  0  0  0
  1  2  1  0
  2  3  1  0
  3  4  2  0
  4  5  1  0
  5  6  2  0
  5  7  1  0
  7  8  1  0
  8  9  1  0
  7 10  1  0
 10 11  2  0
 11 12  1  0
 12 13  2  0
 13 14  1  0
 14 15  2  0
 15  3  1  0
 15 10  1  0
M  END
>  <identifier>  (520) 
CNP0151137.0

>  <canonical_smiles>  (520) 
COC1=CC(=O)N(OC)C2=CC=CC=C12

>  <standard_inchi>  (520) 
InChI=1S/C11H11NO3/c1-14-10-7-11(13)12(15-2)9-6-4-3-5-8(9)10/h3-7H,1-2H3

>  <standard_inchi_key>  (520) 
FVVMQXAIHDUZMW-UHFFFAOYSA-N

>  <name>  (520) 
1,4-dimethoxy-2-quinolone

>  <iupac_name>  (520) 
1,4-dimethoxyquinolin-2-one

>  <annotation_level>  (520) 
5

>  <total_atom_count>  (520) 
26

>  <heavy_atom_count>  (520) 
15

>  <molecular_weight>  (520) 
205.21

>  <exact_molecular_weight>  (520) 
205.07389

>  <molecular_formula>  (520) 
C11H11NO3

>  <alogp>  (520) 
1.07

>  <topological_polar_surface_area>  (520) 
40.46

>  <rotatable_bond_count>  (520) 
2

>  <hydrogen_bond_acceptors>  (520) 
4

>  <hydrogen_bond_donors>  (520) 
0

>  <hydrogen_bond_acceptors_lipinski>  (520) 
4

>  <hydrogen_bond_donors_lipinski>  (520) 
0

>  <lipinski_rule_of_five_violations>  (520) 
0

>  <aromatic_rings_count>  (520) 
2

>  <qed_drug_likeliness>  (520) 
0.74

>  <formal_charge>  (520) 
0

>  <fractioncsp3>  (520) 
0.18

>  <number_of_minimal_rings>  (520) 
2

>  <van_der_walls_volume>  (520) 
nan

>  <contains_sugar>  (520) 
False

>  <contains_ring_sugars>  (520) 
False

>  <contains_linear_sugars>  (520) 
False

>  <murcko_framework>  (520) 
c1ccc2NCC=Cc2c1

>  <np_likeness>  (520) 
0.22

>  <chemical_class>  (520) 
Quinolines and derivatives

>  <chemical_sub_class>  (520) 
Quinolones and derivatives

>  <chemical_super_class>  (520) 
Organoheterocyclic compounds

>  <direct_parent_classification>  (520) 
Hydroquinolones

>  <np_classifier_pathway>  (520) 
Alkaloids

>  <np_classifier_superclass>  (520) 
Tryptophan alkaloids

>  <np_classifier_class>  (520) 
Quinoline alkaloids

>  <np_classifier_is_glycoside>  (520) 
False

>  <organisms>  (520) 
Conchocarpus heterophyllus|Haplophyllum obtusifolium

>  <collections>  (520) 
Latin America dataset|NuBBEDB|Super Natural II|UNPD (Universal Natural Products Database)|WikiData Natural Products|ZINC NP

>  <dois>  (520) 
10.1007/BF00568641|10.1007/BF00580074|10.1590/S0100-40422008000400005

>  <synonyms>  (520) 
Haplotusine

>  <cas>  (520) 
nan

$$$$

     RDKit          2D

 22 24  0  0  0  0  0  0  0  0999 V2000
   -1.4939   -2.6860    0.0000 O   0  0  0  0  0  0  0  0  0  0  0  0
   -1.4514   -1.1866    0.0000 C   0  0  0  0  0  0  0  0  0  0  0  0
   -0.1316   -0.4737    0.0000 C   0  0  0  0  0  0  0  0  0  0  0  0
    1.1457   -1.2603    0.0000 C   0  0  0  0  0  0  0  0  0  0  0  0
    2.4654   -0.5474    0.0000 C   0  0  0  0  0  0  0  0  0  0  0  0
    3.7427   -1.3340    0.0000 C   0  0  0  0  0  0  0  0  0  0  0  0
    5.0625   -0.6211    0.0000 C   0  0  0  0  0  0  0  0  0  0  0  0
    6.3397   -1.4076    0.0000 O   0  0  0  0  0  0  0  0  0  0  0  0
    5.1050    0.8783    0.0000 C   0  0  0  0  0  0  0  0  0  0  0  0
    6.4248    1.5912    0.0000 O   0  0  0  0  0  0  0  0  0  0  0  0
    3.8278    1.6648    0.0000 C   0  0  0  0  0  0  0  0  0  0  0  0
    2.5080    0.9520    0.0000 C   0  0  0  0  0  0  0  0  0  0  0  0
    1.2307    1.7385    0.0000 C   0  0  0  0  0  0  0  0  0  0  0  0
   -0.0890    1.0257    0.0000 O   0  0  0  0  0  0  0  0  0  0  0  0
   -2.7286   -0.4001    0.0000 C   0  0  0  0  0  0  0  0  0  0  0  0
   -2.6861    1.0993    0.0000 C   0  0  0  0  0  0  0  0  0  0  0  0
   -3.9633    1.8859    0.0000 C   0  0  0  0  0  0  0  0  0  0  0  0
   -5.2831    1.1730    0.0000 C   0  0  0  0  0  0  0  0  0  0  0  0
   -6.5604    1.9596    0.0000 O   0  0  0  0  0  0  0  0  0  0  0  0
   -5.3256   -0.3264    0.0000 C   0  0  0  0  0  0  0  0  0  0  0  0
   -4.0484   -1.1129    0.0000 C   0  0  0  0  0  0  0  0  0  0  0  0
   -4.0909   -2.6123    0.0000 O   0  0  0  0  0  0  0  0  0  0  0  0
  1  2  2  0
  2  3  1  0
  3  4  2  0
  4  5  1  0
  5  6  2  0
  6  7  1  0
  7  8  1  0
  7  9  2  0
  9 10  1  0
  9 11  1  0
 11 12  2  0
 12 13  1  0
 13 14  1  0
  2 15  1  0
 15 16  2  0
 16 17  1  0
 17 18  2  0
 18 19  1  0
 18 20  1  0
 20 21  2  0
 21 22  1  0
 14  3  1  0
 21 15  1  0
 12  5  1  0
M  END
>  <identifier>  (521) 
CNP0362918.0

>  <canonical_smiles>  (521) 
O=C(C1=CC2=CC(O)=C(O)C=C2CO1)C1=CC=C(O)C=C1O

>  <standard_inchi>  (521) 
InChI=1S/C16H12O6/c17-10-1-2-11(12(18)6-10)16(21)15-5-8-3-13(19)14(20)4-9(8)7-22-15/h1-6,17-20H,7H2

>  <standard_inchi_key>  (521) 
JVHQCSIULHYFLP-UHFFFAOYSA-N

>  <name>  (521) 
Peltochalcone

>  <iupac_name>  (521) 
(6,7-dihydroxy-1~{H}-isochromen-3-yl)-(2,4-dihydroxyphenyl)methanone

>  <annotation_level>  (521) 
5

>  <total_atom_count>  (521) 
34

>  <heavy_atom_count>  (521) 
22

>  <molecular_weight>  (521) 
300.27

>  <exact_molecular_weight>  (521) 
300.06339

>  <molecular_formula>  (521) 
C16H12O6

>  <alogp>  (521) 
2.26

>  <topological_polar_surface_area>  (521) 
107.22

>  <rotatable_bond_count>  (521) 
2

>  <hydrogen_bond_acceptors>  (521) 
6

>  <hydrogen_bond_donors>  (521) 
4

>  <hydrogen_bond_acceptors_lipinski>  (521) 
6

>  <hydrogen_bond_donors_lipinski>  (521) 
4

>  <lipinski_rule_of_five_violations>  (521) 
0

>  <aromatic_rings_count>  (521) 
2

>  <qed_drug_likeliness>  (521) 
0.50

>  <formal_charge>  (521) 
0

>  <fractioncsp3>  (521) 
0.06

>  <number_of_minimal_rings>  (521) 
3

>  <van_der_walls_volume>  (521) 
248.47

>  <contains_sugar>  (521) 
False

>  <contains_ring_sugars>  (521) 
False

>  <contains_linear_sugars>  (521) 
False

>  <murcko_framework>  (521) 
O1C(=Cc2ccccc2C1)Cc3ccccc3

>  <np_likeness>  (521) 
0.96

>  <chemical_class>  (521) 
Benzopyrans

>  <chemical_sub_class>  (521) 
2-benzopyrans

>  <chemical_super_class>  (521) 
Organoheterocyclic compounds

>  <direct_parent_classification>  (521) 
2-benzopyrans

>  <np_classifier_pathway>  (521) 
Shikimates and Phenylpropanoids

>  <np_classifier_superclass>  (521) 
nan

>  <np_classifier_class>  (521) 
nan

>  <np_classifier_is_glycoside>  (521) 
False

>  <organisms>  (521) 
Acacia carnei|Acacia carneorum|Goniorrhachis marginata

>  <collections>  (521) 
KNApSaCK|Latin America dataset|NPEdia|NuBBEDB|Super Natural II|UNPD (Universal Natural Products Database)|WikiData Natural Products|ZINC NP

>  <dois>  (521) 
10.1016/0031-9422(74)80106-8|10.1039/P19810000514

>  <synonyms>  (521) 
(6,7-Dihydroxy-1h-2-benzopyran-3-yl)(2,4-dihydroxyphenyl) ketone|53766-30-6|DB-290040|LMPK12120405|Peltochalcone

>  <cas>  (521) 
53766-30-6

$$$$

     RDKit          2D

 22 24  0  0  0  0  0  0  0  0999 V2000
   -6.3729   -2.1771    0.0000 C   0  0  0  0  0  0  0  0  0  0  0  0
   -4.9106   -2.5114    0.0000 O   0  0  0  0  0  0  0  0  0  0  0  0
   -3.8899   -1.4123    0.0000 C   0  0  0  0  0  0  0  0  0  0  0  0
   -4.3315    0.0213    0.0000 C   0  0  0  0  0  0  0  0  0  0  0  0
   -3.3108    1.1205    0.0000 C   0  0  0  0  0  0  0  0  0  0  0  0
   -3.7524    2.5540    0.0000 O   0  0  0  0  0  0  0  0  0  0  0  0
   -1.8486    0.7861    0.0000 C   0  0  0  0  0  0  0  0  0  0  0  0
   -0.8279    1.8853    0.0000 C   0  0  0  0  0  0  0  0  0  0  0  0
   -1.2694    3.3188    0.0000 O   0  0  0  0  0  0  0  0  0  0  0  0
    0.6344    1.5509    0.0000 C   0  0  0  0  0  0  0  0  0  0  0  0
    1.6551    2.6501    0.0000 O   0  0  0  0  0  0  0  0  0  0  0  0
    1.0760    0.1174    0.0000 C   0  0  0  0  0  0  0  0  0  0  0  0
    2.5382   -0.2169    0.0000 C   0  0  0  0  0  0  0  0  0  0  0  0
    2.9798   -1.6505    0.0000 C   0  0  0  0  0  0  0  0  0  0  0  0
    4.4421   -1.9848    0.0000 C   0  0  0  0  0  0  0  0  0  0  0  0
    5.4628   -0.8857    0.0000 C   0  0  0  0  0  0  0  0  0  0  0  0
    6.9250   -1.2200    0.0000 O   0  0  0  0  0  0  0  0  0  0  0  0
    5.0212    0.5479    0.0000 C   0  0  0  0  0  0  0  0  0  0  0  0
    3.5589    0.8822    0.0000 C   0  0  0  0  0  0  0  0  0  0  0  0
    0.0553   -0.9818    0.0000 O   0  0  0  0  0  0  0  0  0  0  0  0
   -1.4070   -0.6474    0.0000 C   0  0  0  0  0  0  0  0  0  0  0  0
   -2.4277   -1.7466    0.0000 C   0  0  0  0  0  0  0  0  0  0  0  0
  1  2  1  0
  2  3  1  0
  3  4  2  0
  4  5  1  0
  5  6  1  0
  5  7  2  0
  7  8  1  0
  8  9  2  0
  8 10  1  0
 10 11  1  0
 10 12  2  0
 12 13  1  0
 13 14  2  0
 14 15  1  0
 15 16  2  0
 16 17  1  0
 16 18  1  0
 18 19  2  0
 12 20  1  0
 20 21  1  0
 21 22  2  0
 22  3  1  0
 21  7  1  0
 19 13  1  0
M  END
>  <identifier>  (522) 
CNP0338598.0

>  <canonical_smiles>  (522) 
COC1=CC(O)=C2C(=O)C(O)=C(C3=CC=C(O)C=C3)OC2=C1

>  <standard_inchi>  (522) 
InChI=1S/C16H12O6/c1-21-10-6-11(18)13-12(7-10)22-16(15(20)14(13)19)8-2-4-9(17)5-3-8/h2-7,17-18,20H,1H3

>  <standard_inchi_key>  (522) 
MQSZRBPYXNEFHF-UHFFFAOYSA-N

>  <name>  (522) 
Rhamnocitrin

>  <iupac_name>  (522) 
3,5-dihydroxy-2-(4-hydroxyphenyl)-7-methoxy-chromen-4-one

>  <annotation_level>  (522) 
5

>  <total_atom_count>  (522) 
34

>  <heavy_atom_count>  (522) 
22

>  <molecular_weight>  (522) 
300.27

>  <exact_molecular_weight>  (522) 
300.06339

>  <molecular_formula>  (522) 
C16H12O6

>  <alogp>  (522) 
2.59

>  <topological_polar_surface_area>  (522) 
100.13

>  <rotatable_bond_count>  (522) 
2

>  <hydrogen_bond_acceptors>  (522) 
6

>  <hydrogen_bond_donors>  (522) 
3

>  <hydrogen_bond_acceptors_lipinski>  (522) 
6

>  <hydrogen_bond_donors_lipinski>  (522) 
3

>  <lipinski_rule_of_five_violations>  (522) 
0

>  <aromatic_rings_count>  (522) 
3

>  <qed_drug_likeliness>  (522) 
0.67

>  <formal_charge>  (522) 
0

>  <fractioncsp3>  (522) 
0.06

>  <number_of_minimal_rings>  (522) 
3

>  <van_der_walls_volume>  (522) 
247.42

>  <contains_sugar>  (522) 
False

>  <contains_ring_sugars>  (522) 
False

>  <contains_linear_sugars>  (522) 
False

>  <murcko_framework>  (522) 
O1c2ccccc2CC=C1c3ccccc3

>  <np_likeness>  (522) 
1.33

>  <chemical_class>  (522) 
Flavonoids

>  <chemical_sub_class>  (522) 
Flavones

>  <chemical_super_class>  (522) 
Phenylpropanoids and polyketides

>  <direct_parent_classification>  (522) 
Flavonols

>  <np_classifier_pathway>  (522) 
Shikimates and Phenylpropanoids

>  <np_classifier_superclass>  (522) 
Flavonoids

>  <np_classifier_class>  (522) 
Flavonols

>  <np_classifier_is_glycoside>  (522) 
False

>  <organisms>  (522) 
Acicarpha tribuloides|Aconitum palmatum|Aconitum tianschanicum|Aeonium leucoblepharum|Aeonium nobile|Aesculus sp.|Ageratina altissima|Ageratina havanensis|Ageratina ligustrina|Ageratum myriadenium|Aglaia formosana|Albatrellus caeruleoporus|Alomia myriadenia|Alpinia japonica|Alpinia oxyphylla|Alpinia tonkinensis|Amanita pseudoporphyria|Ambrosia trifida|Aniba kappleri|Aniba rosaeodora|Aniba sp.|Anthyllis onobrychioides|Aphis graminum|Aphis pini|Apis mellifera|Apis mellifera ligustica|Aplysilla rosea|Aplysinella rhax|Aquilaria sinensis|Arbacia pustulosa|Argyrochosma nivea|Ariocarpus fissuratus|Artemisia Annua|Artemisia Capillaris|Artemisia annua|Artemisia annua L.|Artemisia apiacea|Artemisia campestris|Artemisia capillaries|Artemisia capillaris|Artemisia rehan|Artemisia scoparia|Artemisia sp.|Aspergillus desertorum|Astragalus complanatus|Astragalus membranaceus|Astragalus mongholicus|Astragalus mongolicus|Astragalus sp.|Aulosira fertilissima|Avrainvillea longicaulis|Baccharis dracunculifolia|Baccharis obtusifolia|Baccharis pilularis|Baccharis vaccinioides|Belamcanda Chinensis|Belamcanda chinensis|Berteroa incana|Betula nigra|Bidens tripartita|Bitter bush|Bryum argenteum|Cacalia robusta|Calceolaria|Calceolaria arachnoidea|Calceolaria irazeunsis|Calceolaria irazuensis|Callicarpa japonica|Campsis grandiflora|Capparicordis tweediana|Carpesium faberi|Cassia didymobotrya|Centaurea arbutifolia|Centaurea musimomum|Cheilanthes albomarginata|Cheilanthes rufa|Chlamydomonas allensworthii|Chrysobalanus icaco|Cirsium oligophyllum|Cistus albidus|Cistus laurifolius|Cistus monspeliensis|Cistus parviflorus|Cladonia pityrea|Cladrastis platycarpa|Claviceps microcephala|Clione antarctica|Codonopsis cordifolioidea|Coprosma areolata|Cortinarius orellanus|Corydalis sewerzowi|Crematogaster africana|Cryptolestes pusillus|Cylindrospermum muscicola|Dahlstedtia pentaphylla|Dalbergia hupeana|Daphne genkwa|Diplodia natalensis|Dodonaea angustifolia|Echinops echinatus|Echinops sp.|Elephantopus hirtiflorus|Empetrum nigrum|Entada phaseoloides|Eremanthus seidelii|Ericameria laricifolia|Erium villosum|Erylus nobilis|Erysimum carniolicum|Erythranthe cardinalis|Eucalyptus citriodora|Eupatorium micranthum|Euphausia superba|Euphorbia amygdaloides|Flemingia philippinensis|Gambierdiscus toxicus|Gelsemium elegans|Genista sessilifolia|Gmelina asiatica|Gomphostemma parviflorum|Haplopappus schumannii|Helichrysum cephaloideum|Heliotropium chenopodiaceum|Heliotropium chenopodiaceum var. ericoideum|Heliotropium stenophyllum|Hemionitis japonica|Herba artemisiae scopariae|Hesperis matronalis|Hippobroma longiflora|Hypericum balearicum|Hypericum japonicum|Inula viscosa|Iris domestica|Iris sp.|Iris tectorum|Jackiella javanica|Jatropha macrorhiza|Lambertella corni|Lepidorhinus squamosus|Ligularia cymbulifera|Lilium umbellatum|Lobophytum laevigatum|Machaerium kuhlmannii|Madia elegans|Madia sativa|Magnolia montana|Meehania urticifolia|Melissa sp.|Mimulus cardinalis|Mirabilis viscosa|Morus sp.|Mytilus galloprovincialis|Nematolepis phebalioides|Neobellieria bullata|Nervilia fordii|Nervilia sp.|Nothofagus cunninghamii|Notholaena neglecta|Notholaena nivea|Notholaena sulphurea|Onoseris alata|Oreopteris quelpaertensis|Osyris alba|Oxytropis ochrocephala|Oxytropis sp.|Ozothamnus expansifolius|Ozothamnus scutellifolius|Pangium edule|Persicaria stagnina|Petrosia corticata|Phora velutina|Phyllanthus emblica|Phyllanthus sp.|Piper acutifolium|Pityrogramma ebenea|Pityrogramma tartarea|Pogostemon cablin|Polyzonium rosalbum|Populus cathayana|Populus koreana|Populus maximowiczii|Populus nigra|Populus sp.|Populus suaveolens|Populus szechuanica|Populus tomentosa|Populus tremula|Populus tremuloides|Psilotum nudum|Rhamnus cathartica|Rhamnus disperma|Rhamnus lycioides|Rhamnus nakaharae|Rhamnus pallasii|Rhamnus prinoides|Rhamnus thymifolia|Rhamnus thymifolius|Rhizobium leguminosarum|Rhus vulgaris|Sarcophyton elegans|Scytonema ocellatum|Sedum obtuso-lineare|Semen astragali complanati|Senecio adenophyllus|Senecio roseiflorus|Senecio zoellneri|Solanum diflorum|Solanum paludosum|Solanum sp.|Solidago flexicaulis|Staehelina fruticosa|Sterculia foetida|Stevia subpubescens|Stizolobium deeringianum|Streptomyces fradiae|Syzygium aromaticum|Tamarix aphylla|Tamarix hispida|Tamarix sp.|Tetracera Asiatica|Tetracera asiatica|Trapa bicornis|Trichophyton mentagrophytes|Trollius chinensis|Tupistra chinensis BAKER|Umbilicaria esculenta|Vallaris heynei|Vellozia streptophylla|Vigna mungo|Viguiera linearis|Viscum cruciatum|Vitex quinata|Xyris indica|Zuccagnia punctata|Zygosaccharomyces rouxii|clove|inula viscosa

>  <collections>  (522) 
ANPDB|Australian natural products|CMAUP (cCollective molecular activities of useful plants)|ChEBI NPs|ConMedNP|ETM (Ethiopian Traditional Medicine) DB|FooDB|KNApSaCK|Latin America dataset|Mitishamba database|NANPDB (Natural Products from Northern African Sources)|NPASS|NPEdia|NuBBEDB|Phyto4Health|PhytoLab phyproof® Reference Substances|Super Natural II|TCMDB-Taiwan (Traditional Chinese Medicine database)|TCMID (Traditional Chinese Medicine Integrated Database)|TIPdb (database of Taiwan indigenous plants)|UNPD (Universal Natural Products Database)|VietHerb|WikiData Natural Products|ZINC NP|p-ANAPL

>  <dois>  (522) 
10.1002/(SICI)1099-1565(199903/04)10:2<69::AID-PCA447>3.0.CO;2-4|10.1002/ARDP.19002380606|10.1002/CBDV.201100002|10.1007/BF00563635|10.1007/BF00565806|10.1007/BF00574350|10.1007/BF00579081|10.1007/BF00595086|10.1007/BF02326742|10.1007/S10600-011-9953-X|10.1016/0031-9422(89)80047-0|10.1016/0031-9422(92)80273-H|10.1016/0031-9422(93)00074-P|10.1016/0031-9422(93)85311-E|10.1016/0031-9422(93)85457-3|10.1016/0305-1978(93)90082-3|10.1016/0305-1978(95)00017-O|10.1016/0305-1978(95)00080-1|10.1016/J.PHYTOL.2011.03.007|10.1016/S0021-9673(01)88918-4|10.1016/S0031-9422(00)80549-X|10.1016/S0031-9422(00)81696-9|10.1016/S0031-9422(00)86815-6|10.1016/S0031-9422(00)86851-X|10.1016/S0031-9422(00)94801-5|10.1016/S0031-9422(00)97288-1|10.1016/S0031-9422(00)97776-8|10.1016/S0031-9422(00)97950-0|10.1016/S0031-9422(02)00666-0|10.1016/S0031-9422(03)00529-6|10.1016/S0031-9422(96)00745-5|10.1016/S0031-9422(97)00075-7|10.1016/S0031-9422(99)00262-9|10.1016/S0305-1978(01)00105-3|10.1016/S0305-1978(01)00136-3|10.1016/S0305-1978(02)00178-3|10.1016/S0305-1978(96)00081-6|10.1016/S0305-1978(97)00096-3|10.1016/S0305-1978(97)00122-1|10.1016/j.phytol.2010.08.001|10.1021/JF035213X|10.1021/JF902991T|10.1021/NP50020A014|10.1021/NP50020A019|10.1021/NP50048A063|10.1021/NP50085A021|10.1021/NP50104A016|10.1021/NP800691K|10.1021/NP800760P|10.1021/NP960451Q|10.1021/np50027a025|10.1021/np800760p|10.1021/np960451q|10.1021/np980132u|10.1055/S-2007-969315|10.1080/10286020.2010.502892|10.1080/10286020310001653291|10.1080/1028602042000324826|10.1080/10575639508043197|10.1080/14786419.2012.678350|10.1111/J.1438-8677.1992.TB00302.X|10.1139/V09-151|10.1248/CPB.41.1743|10.1248/CPB.43.1260|10.1248/CPB.43.1385|10.1248/CPB.49.1229|10.1515/ZNC-1984-11-1233|10.1515/ZNC-1984-3-418|10.1515/ZNC-1986-1-214|10.1515/ZNC-1986-11-1204|10.1515/ZNC-1987-9-1004|10.1515/ZNC-1987-9-1010|10.1515/ZNC-1991-1-207|10.1515/ZNC-1992-3-423|10.1515/ZNC-1992-3-424|10.1515/ZNC-2000-1-203|10.1515/ZNC-2000-5-602|10.1515/ZNC-2003-3-401|10.1590/1809-43921982123668|10.3987/COM-08-S(F)79

>  <synonyms>  (522) 
nan

>  <cas>  (522) 
569-92-6

$$$$

     RDKit          2D

 32 36  0  0  0  0  0  0  0  0999 V2000
   -5.1984   -3.0868    0.0000 C   0  0  0  0  0  0  0  0  0  0  0  0
   -5.3842   -1.5983    0.0000 C   0  0  0  0  0  0  0  0  0  0  0  0
   -6.8178   -2.0397    0.0000 C   0  0  0  0  0  0  0  0  0  0  0  0
   -6.0678   -0.2632    0.0000 C   0  0  0  0  0  0  0  0  0  0  0  0
   -5.2534    0.9965    0.0000 C   0  0  0  0  0  0  0  0  0  0  0  0
   -3.7553    0.9209    0.0000 C   0  0  0  0  0  0  0  0  0  0  0  0
   -4.4389    2.2561    0.0000 C   0  0  0  0  0  0  0  0  0  0  0  0
   -2.9408    2.1806    0.0000 C   0  0  0  0  0  0  0  0  0  0  0  0
   -3.6245    3.5157    0.0000 O   0  0  0  0  0  0  0  0  0  0  0  0
   -1.4427    2.1051    0.0000 C   0  0  0  0  0  0  0  0  0  0  0  0
   -0.7591    0.7699    0.0000 C   0  0  0  0  0  0  0  0  0  0  0  0
   -0.0754   -0.5652    0.0000 C   0  0  0  0  0  0  0  0  0  0  0  0
   -1.5735   -0.4897    0.0000 C   0  0  0  0  0  0  0  0  0  0  0  0
   -0.8899   -1.8249    0.0000 C   0  0  0  0  0  0  0  0  0  0  0  0
    0.6082   -1.9004    0.0000 C   0  0  0  0  0  0  0  0  0  0  0  0
    1.4227   -0.6408    0.0000 C   0  0  0  0  0  0  0  0  0  0  0  0
    2.9208   -0.7163    0.0000 C   0  0  0  0  0  0  0  0  0  0  0  0
    2.1063   -1.9759    0.0000 C   0  0  0  0  0  0  0  0  0  0  0  0
    3.6044   -2.0514    0.0000 C   0  0  0  0  0  0  0  0  0  0  0  0
    5.1025   -2.1270    0.0000 C   0  0  0  0  0  0  0  0  0  0  0  0
    5.9170   -0.8673    0.0000 C   0  0  0  0  0  0  0  0  0  0  0  0
    7.4151   -0.9429    0.0000 O   0  0  0  0  0  0  0  0  0  0  0  0
    5.2333    0.4678    0.0000 C   0  0  0  0  0  0  0  0  0  0  0  0
    5.0475    1.9563    0.0000 C   0  0  0  0  0  0  0  0  0  0  0  0
    6.6669    0.9092    0.0000 C   0  0  0  0  0  0  0  0  0  0  0  0
    3.7352    0.5433    0.0000 C   0  0  0  0  0  0  0  0  0  0  0  0
    3.0516    1.8785    0.0000 C   0  0  0  0  0  0  0  0  0  0  0  0
    1.5535    1.9540    0.0000 C   0  0  0  0  0  0  0  0  0  0  0  0
    0.7390    0.6944    0.0000 C   0  0  0  0  0  0  0  0  0  0  0  0
    0.0554    2.0295    0.0000 C   0  0  0  0  0  0  0  0  0  0  0  0
   -3.0716   -0.4142    0.0000 C   0  0  0  0  0  0  0  0  0  0  0  0
   -3.8861   -1.6738    0.0000 C   0  0  0  0  0  0  0  0  0  0  0  0
  1  2  1  0
  2  3  1  0
  2  4  1  0
  4  5  1  0
  5  6  1  0
  6  7  1  1
  6  8  1  0
  8  9  1  6
  8 10  1  0
 10 11  1  0
 11 12  1  6
 11 13  1  0
 13 14  2  0
 14 15  1  0
 16 15  1  1
 16 17  1  0
 17 18  1  1
 17 19  1  0
 19 20  1  0
 20 21  1  0
 21 22  1  1
 21 23  1  0
 23 24  1  0
 23 25  1  0
 23 26  1  0
 26 27  1  1
 27 28  1  0
 28 29  1  0
 29 30  1  1
 13 31  1  0
 31 32  1  6
 32  2  1  0
 31  6  1  0
 29 11  1  0
 29 16  1  0
 26 17  1  0
M  END
>  <identifier>  (523) 
CNP0198004.1

>  <canonical_smiles>  (523) 
CC1(C)CC[C@]2(C)[C@H](O)C[C@]3(C)C(=CC[C@@H]4[C@@]5(C)CC[C@H](O)C(C)(C)[C@@H]5CC[C@]43C)[C@@H]2C1

>  <standard_inchi>  (523) 
InChI=1S/C30H50O2/c1-25(2)15-16-27(5)20(17-25)19-9-10-22-28(6)13-12-23(31)26(3,4)21(28)11-14-29(22,7)30(19,8)18-24(27)32/h9,20-24,31-32H,10-18H2,1-8H3/t20-,21-,22+,23-,24+,27-,28-,29+,30+/m0/s1

>  <standard_inchi_key>  (523) 
VLRYIIPJIVGFIV-PXCMFJNASA-N

>  <name>  (523) 
16alpha-hydroxy-beta-amyrin

>  <iupac_name>  (523) 
(3~{S},4~{a}~{R},6~{a}~{R},6~{b}~{S},8~{R},8~{a}~{S},12~{a}~{S},14~{a}~{R},14~{b}~{R})-4,4,6~{a},6~{b},8~{a},11,11,14~{b}-octamethyl-1,2,3,4~{a},5,6,7,8,9,10,12,12~{a},14,14~{a}-tetradecahydropicene-3,8-diol

>  <annotation_level>  (523) 
5

>  <total_atom_count>  (523) 
82

>  <heavy_atom_count>  (523) 
32

>  <molecular_weight>  (523) 
442.73

>  <exact_molecular_weight>  (523) 
442.38108

>  <molecular_formula>  (523) 
C30H50O2

>  <alogp>  (523) 
7.14

>  <topological_polar_surface_area>  (523) 
40.46

>  <rotatable_bond_count>  (523) 
0

>  <hydrogen_bond_acceptors>  (523) 
2

>  <hydrogen_bond_donors>  (523) 
2

>  <hydrogen_bond_acceptors_lipinski>  (523) 
2

>  <hydrogen_bond_donors_lipinski>  (523) 
2

>  <lipinski_rule_of_five_violations>  (523) 
1

>  <aromatic_rings_count>  (523) 
0

>  <qed_drug_likeliness>  (523) 
0.39

>  <formal_charge>  (523) 
0

>  <fractioncsp3>  (523) 
0.93

>  <number_of_minimal_rings>  (523) 
5

>  <van_der_walls_volume>  (523) 
454.75

>  <contains_sugar>  (523) 
False

>  <contains_ring_sugars>  (523) 
False

>  <contains_linear_sugars>  (523) 
False

>  <murcko_framework>  (523) 
C1=C2C3CCCCC3CCC2C4CCC5CCCCC5C4C1

>  <np_likeness>  (523) 
3.19

>  <chemical_class>  (523) 
Prenol lipids

>  <chemical_sub_class>  (523) 
Triterpenoids

>  <chemical_super_class>  (523) 
Lipids and lipid-like molecules

>  <direct_parent_classification>  (523) 
Oleanane triterpenoids

>  <np_classifier_pathway>  (523) 
Terpenoids

>  <np_classifier_superclass>  (523) 
Triterpenoids

>  <np_classifier_class>  (523) 
Oleanane triterpenoids

>  <np_classifier_is_glycoside>  (523) 
False

>  <organisms>  (523) 
Arrabidaea samydoides|Fridericia samydoides

>  <collections>  (523) 
ChemSpider NPs|Latin America dataset|NuBBEDB|Super Natural II|TCMDB-Taiwan (Traditional Chinese Medicine database)|WikiData Natural Products|ZINC NP

>  <dois>  (523) 
10.1590/S0100-40422003000500003

>  <synonyms>  (523) 
3\u221a\u00e9\u00ac\u226416\u221a\u00e9\u00ac\u00b1-Dihydroxy-olean-12-ene|C22113|CHEBI:140655|olean-12-ene-3beta,16alpha-diol

>  <cas>  (523) 
nan

$$$$

     RDKit          2D

 35 39  0  0  0  0  0  0  0  0999 V2000
   -5.9973   -3.0933    0.0000 C   0  0  0  0  0  0  0  0  0  0  0  0
   -5.2581   -1.7881    0.0000 C   0  0  0  0  0  0  0  0  0  0  0  0
   -6.0189   -0.4953    0.0000 C   0  0  0  0  0  0  0  0  0  0  0  0
   -5.2797    0.8099    0.0000 C   0  0  0  0  0  0  0  0  0  0  0  0
   -3.7798    0.8223    0.0000 C   0  0  0  0  0  0  0  0  0  0  0  0
   -4.5405    2.1151    0.0000 C   0  0  0  0  0  0  0  0  0  0  0  0
   -6.0405    2.1026    0.0000 O   0  0  0  0  0  0  0  0  0  0  0  0
   -3.8013    3.4203    0.0000 O   0  0  0  0  0  0  0  0  0  0  0  0
   -3.0406    2.1275    0.0000 C   0  0  0  0  0  0  0  0  0  0  0  0
   -1.5406    2.1400    0.0000 C   0  0  0  0  0  0  0  0  0  0  0  0
   -0.7799    0.8472    0.0000 C   0  0  0  0  0  0  0  0  0  0  0  0
   -0.0191   -0.4456    0.0000 C   0  0  0  0  0  0  0  0  0  0  0  0
   -1.5191   -0.4580    0.0000 C   0  0  0  0  0  0  0  0  0  0  0  0
   -0.7583   -1.7508    0.0000 C   0  0  0  0  0  0  0  0  0  0  0  0
    0.7416   -1.7383    0.0000 C   0  0  0  0  0  0  0  0  0  0  0  0
    1.4808   -0.4331    0.0000 C   0  0  0  0  0  0  0  0  0  0  0  0
    2.9808   -0.4207    0.0000 C   0  0  0  0  0  0  0  0  0  0  0  0
    2.2416   -1.7259    0.0000 C   0  0  0  0  0  0  0  0  0  0  0  0
    3.7415   -1.7134    0.0000 C   0  0  0  0  0  0  0  0  0  0  0  0
    5.2415   -1.7010    0.0000 C   0  0  0  0  0  0  0  0  0  0  0  0
    6.0022   -2.9938    0.0000 O   0  0  0  0  0  0  0  0  0  0  0  0
    5.9807   -0.3958    0.0000 C   0  0  0  0  0  0  0  0  0  0  0  0
    7.4806   -0.3833    0.0000 O   0  0  0  0  0  0  0  0  0  0  0  0
    5.2199    0.8970    0.0000 C   0  0  0  0  0  0  0  0  0  0  0  0
    4.9472    2.3720    0.0000 C   0  0  0  0  0  0  0  0  0  0  0  0
    6.6252    1.4217    0.0000 C   0  0  0  0  0  0  0  0  0  0  0  0
    3.7200    0.8846    0.0000 C   0  0  0  0  0  0  0  0  0  0  0  0
    2.9592    2.1773    0.0000 C   0  0  0  0  0  0  0  0  0  0  0  0
    1.4593    2.1649    0.0000 C   0  0  0  0  0  0  0  0  0  0  0  0
    0.7201    0.8597    0.0000 C   0  0  0  0  0  0  0  0  0  0  0  0
   -0.0407    2.1524    0.0000 C   0  0  0  0  0  0  0  0  0  0  0  0
   -3.0190   -0.4705    0.0000 C   0  0  0  0  0  0  0  0  0  0  0  0
   -3.7582   -1.7757    0.0000 C   0  0  0  0  0  0  0  0  0  0  0  0
   -2.3445   -2.2770    0.0000 C   0  0  0  0  0  0  0  0  0  0  0  0
   -4.0064   -3.2550    0.0000 O   0  0  0  0  0  0  0  0  0  0  0  0
  2  1  1  6
  2  3  1  0
  3  4  1  0
  4  5  1  0
  5  6  1  1
  6  7  2  0
  6  8  1  0
  5  9  1  0
  9 10  1  0
 10 11  1  0
 11 12  1  6
 11 13  1  0
 13 14  2  0
 14 15  1  0
 15 16  1  0
 16 17  1  0
 17 18  1  1
 17 19  1  0
 19 20  1  0
 20 21  1  6
 20 22  1  0
 22 23  1  6
 22 24  1  0
 24 25  1  0
 24 26  1  0
 24 27  1  0
 27 28  1  0
 28 29  1  0
 29 30  1  0
 30 31  1  1
 13 32  1  0
 32 33  1  0
 33 34  1  1
 33 35  1  0
 33  2  1  0
 32  5  1  0
 30 11  1  0
 30 16  1  0
 27 17  1  0
M  END
>  <identifier>  (524) 
CNP0186530.4

>  <canonical_smiles>  (524) 
C[C@@H]1CC[C@]2(C(=O)O)CC[C@]3(C)C(=CCC4[C@@]5(C)C[C@@H](O)[C@@H](O)C(C)(C)C5CC[C@]43C)C2[C@]1(C)O

>  <standard_inchi>  (524) 
InChI=1S/C30H48O5/c1-17-10-13-30(24(33)34)15-14-27(5)18(22(30)29(17,7)35)8-9-21-26(4)16-19(31)23(32)25(2,3)20(26)11-12-28(21,27)6/h8,17,19-23,31-32,35H,9-16H2,1-7H3,(H,33,34)/t17-,19-,20?,21?,22?,23-,26+,27-,28-,29-,30+/m1/s1

>  <standard_inchi_key>  (524) 
OXVUXGFZHDKYLS-YFIQRXMRSA-N

>  <name>  (524) 
MEGxp0_000407

>  <iupac_name>  (524) 
(1~{R},2~{R},4~{a}~{S},6~{a}~{S},6~{b}~{R},10~{S},11~{R},12~{a}~{R})-1,10,11-trihydroxy-1,2,6~{a},6~{b},9,9,12~{a}-heptamethyl-2,3,4,5,6,6~{a},7,8,8~{a},10,11,12,13,14~{b}-tetradecahydropicene-4~{a}-carboxylic acid

>  <annotation_level>  (524) 
5

>  <total_atom_count>  (524) 
83

>  <heavy_atom_count>  (524) 
35

>  <molecular_weight>  (524) 
488.71

>  <exact_molecular_weight>  (524) 
488.35017

>  <molecular_formula>  (524) 
C30H48O5

>  <alogp>  (524) 
5.18

>  <topological_polar_surface_area>  (524) 
97.99

>  <rotatable_bond_count>  (524) 
1

>  <hydrogen_bond_acceptors>  (524) 
4

>  <hydrogen_bond_donors>  (524) 
4

>  <hydrogen_bond_acceptors_lipinski>  (524) 
4

>  <hydrogen_bond_donors_lipinski>  (524) 
4

>  <lipinski_rule_of_five_violations>  (524) 
1

>  <aromatic_rings_count>  (524) 
0

>  <qed_drug_likeliness>  (524) 
0.38

>  <formal_charge>  (524) 
0

>  <fractioncsp3>  (524) 
0.90

>  <number_of_minimal_rings>  (524) 
5

>  <van_der_walls_volume>  (524) 
472.67

>  <contains_sugar>  (524) 
False

>  <contains_ring_sugars>  (524) 
False

>  <contains_linear_sugars>  (524) 
False

>  <murcko_framework>  (524) 
C1=C2C3CCCCC3CCC2C4CCC5CCCCC5C4C1

>  <np_likeness>  (524) 
3.33

>  <chemical_class>  (524) 
Prenol lipids

>  <chemical_sub_class>  (524) 
Triterpenoids

>  <chemical_super_class>  (524) 
Lipids and lipid-like molecules

>  <direct_parent_classification>  (524) 
Taraxastane, ursane, and bauerane triterpenoids

>  <np_classifier_pathway>  (524) 
Terpenoids

>  <np_classifier_superclass>  (524) 
Triterpenoids

>  <np_classifier_class>  (524) 
Ursane and Taraxastane triterpenoids

>  <np_classifier_is_glycoside>  (524) 
False

>  <organisms>  (524) 
Vitex polygama

>  <collections>  (524) 
AnalytiCon Discovery NPs|GNPS (Global Natural Products Social Molecular Networking)|Latin America dataset|NuBBEDB

>  <dois>  (524) 
10.1515/znc-2008-5-611

>  <synonyms>  (524) 
(1R,2R,4AS,6AS,6BR,10S,11R,12AR)-1,10,11-TRIHYDROXY-1,2,6A,6B,9,9,12A-HEPTAMETHYL-2,3,4,5,6,7,8,8A,10,11,12,12B,13,14B-TETRADECAHYDROPICENE-4A-CARBOXYLIC ACID|(1R,2R,4aS,6aS,6bR,10S,11R,12aR)-1,10,11-trihydroxy-1,2,6a,6b,9,9,12a-heptamethyl-2,3,4,5,6,6a,7,8,8a,10,11,12,13,14b-tetradecahydropicene-4a-carboxylic acid|2\u221a\u00e9\u00ac\u00b13\u221a\u00e9\u00ac\u00b119\u221a\u00e9\u00ac\u00b1- trihydroxyurs-12-en-28-oic acid|ACon0_000195|ACon1_001062|BRD-A01175592-001-01-8|CHEBI:181044|NCGC00169714-01|NCGC00169714-02_C30H48O5_(2alpha,3alpha,5xi,9xi,18xi)-2,3,19-Trihydroxyurs-12-en-28-oic acid|SCHEMBL17584886

>  <cas>  (524) 
nan

$$$$

     RDKit          2D

 29 33  0  0  0  0  0  0  0  0999 V2000
    6.4371   -1.3822    0.0000 C   0  0  0  0  0  0  0  0  0  0  0  0
    4.9804   -1.0244    0.0000 C   0  0  0  0  0  0  0  0  0  0  0  0
    3.9421   -2.1070    0.0000 O   0  0  0  0  0  0  0  0  0  0  0  0
    4.5619    0.4161    0.0000 O   0  0  0  0  0  0  0  0  0  0  0  0
    3.1052    0.7739    0.0000 C   0  0  0  0  0  0  0  0  0  0  0  0
    2.0670   -0.3087    0.0000 C   0  0  0  0  0  0  0  0  0  0  0  0
    2.4855   -1.7492    0.0000 C   0  0  0  0  0  0  0  0  0  0  0  0
    1.4472   -2.8318    0.0000 C   0  0  0  0  0  0  0  0  0  0  0  0
   -0.0095   -2.4739    0.0000 C   0  0  0  0  0  0  0  0  0  0  0  0
   -1.2501   -3.3170    0.0000 O   0  0  0  0  0  0  0  0  0  0  0  0
   -2.4353   -2.3976    0.0000 C   0  0  0  0  0  0  0  0  0  0  0  0
   -1.9272   -0.9863    0.0000 O   0  0  0  0  0  0  0  0  0  0  0  0
   -0.4279   -1.0335    0.0000 C   0  0  0  0  0  0  0  0  0  0  0  0
    0.6103    0.0491    0.0000 C   0  0  0  0  0  0  0  0  0  0  0  0
    0.1919    1.4896    0.0000 C   0  0  0  0  0  0  0  0  0  0  0  0
   -0.6940    2.7000    0.0000 O   0  0  0  0  0  0  0  0  0  0  0  0
   -1.1540    0.8274    0.0000 C   0  0  0  0  0  0  0  0  0  0  0  0
   -1.2535   -0.6693    0.0000 C   0  0  0  0  0  0  0  0  0  0  0  0
   -2.5994   -1.3316    0.0000 C   0  0  0  0  0  0  0  0  0  0  0  0
   -3.8459   -0.4971    0.0000 C   0  0  0  0  0  0  0  0  0  0  0  0
   -5.3000   -0.8650    0.0000 O   0  0  0  0  0  0  0  0  0  0  0  0
   -6.0993    0.4043    0.0000 C   0  0  0  0  0  0  0  0  0  0  0  0
   -5.1391    1.5567    0.0000 O   0  0  0  0  0  0  0  0  0  0  0  0
   -3.7464    0.9996    0.0000 C   0  0  0  0  0  0  0  0  0  0  0  0
   -2.4005    1.6618    0.0000 C   0  0  0  0  0  0  0  0  0  0  0  0
    1.2301    2.5722    0.0000 C   0  0  0  0  0  0  0  0  0  0  0  0
    0.8117    4.0126    0.0000 C   0  0  0  0  0  0  0  0  0  0  0  0
    2.6868    2.2144    0.0000 C   0  0  0  0  0  0  0  0  0  0  0  0
    3.7250    3.2970    0.0000 C   0  0  0  0  0  0  0  0  0  0  0  0
  1  2  1  0
  2  3  2  0
  2  4  1  0
  4  5  1  0
  5  6  1  0
  6  7  2  0
  7  8  1  0
  8  9  2  0
  9 10  1  0
 10 11  1  0
 11 12  1  0
 12 13  1  0
 13 14  2  0
 14 15  1  0
 15 16  1  1
 15 17  1  0
 17 18  2  0
 18 19  1  0
 19 20  2  0
 20 21  1  0
 21 22  1  0
 22 23  1  0
 23 24  1  0
 24 25  2  0
 15 26  1  0
 26 27  1  1
 26 28  1  0
 28 29  1  6
 28  5  1  0
 14  6  1  0
 25 17  1  0
 13  9  1  0
 24 20  1  0
M  END
>  <identifier>  (525) 
CNP0080600.1

>  <canonical_smiles>  (525) 
CC(=O)OC1C2=CC=C3OCOC3=C2[C@](O)(C2=CC=C3OCOC3=C2)[C@@H](C)[C@@H]1C

>  <standard_inchi>  (525) 
InChI=1S/C22H22O7/c1-11-12(2)22(24,14-4-6-16-18(8-14)27-9-25-16)19-15(20(11)29-13(3)23)5-7-17-21(19)28-10-26-17/h4-8,11-12,20,24H,9-10H2,1-3H3/t11-,12-,20?,22+/m0/s1

>  <standard_inchi_key>  (525) 
LWGQAENPDGXGNI-ZBWQCWSKSA-N

>  <name>  (525) 
nan

>  <iupac_name>  (525) 
[(7~{S},8~{S},9~{R})-9-(1,3-benzodioxol-5-yl)-9-hydroxy-7,8-dimethyl-7,8-dihydro-6~{H}-benzo[e][1,3]benzodioxol-6-yl] acetate

>  <annotation_level>  (525) 
3

>  <total_atom_count>  (525) 
51

>  <heavy_atom_count>  (525) 
29

>  <molecular_weight>  (525) 
398.41

>  <exact_molecular_weight>  (525) 
398.13655

>  <molecular_formula>  (525) 
C22H22O7

>  <alogp>  (525) 
3.27

>  <topological_polar_surface_area>  (525) 
83.45

>  <rotatable_bond_count>  (525) 
2

>  <hydrogen_bond_acceptors>  (525) 
7

>  <hydrogen_bond_donors>  (525) 
1

>  <hydrogen_bond_acceptors_lipinski>  (525) 
7

>  <hydrogen_bond_donors_lipinski>  (525) 
1

>  <lipinski_rule_of_five_violations>  (525) 
0

>  <aromatic_rings_count>  (525) 
2

>  <qed_drug_likeliness>  (525) 
0.78

>  <formal_charge>  (525) 
0

>  <fractioncsp3>  (525) 
0.41

>  <number_of_minimal_rings>  (525) 
5

>  <van_der_walls_volume>  (525) 
nan

>  <contains_sugar>  (525) 
False

>  <contains_ring_sugars>  (525) 
False

>  <contains_linear_sugars>  (525) 
False

>  <murcko_framework>  (525) 
O1c2ccc(cc2OC1)C3c4c5OCOc5ccc4CCC3

>  <np_likeness>  (525) 
1.35

>  <chemical_class>  (525) 
Aryltetralin lignans

>  <chemical_sub_class>  (525) 
Aryltetralin lignans

>  <chemical_super_class>  (525) 
Lignans, neolignans and related compounds

>  <direct_parent_classification>  (525) 
Aryltetralin lignans

>  <np_classifier_pathway>  (525) 
Shikimates and Phenylpropanoids

>  <np_classifier_superclass>  (525) 
Lignans

>  <np_classifier_class>  (525) 
Arylnaphthalene and aryltetralin lignans

>  <np_classifier_is_glycoside>  (525) 
False

>  <organisms>  (525) 
Virola sebifera

>  <collections>  (525) 
Latin America dataset|NuBBEDB|WikiData Natural Products

>  <dois>  (525) 
10.1016/0031-9422(82)83181-6

>  <synonyms>  (525) 
nan

>  <cas>  (525) 
nan

$$$$

     RDKit          2D

 29 33  0  0  0  0  0  0  0  0999 V2000
   -6.5459    2.1527    0.0000 C   0  0  0  0  0  0  0  0  0  0  0  0
   -5.0536    2.0008    0.0000 C   0  0  0  0  0  0  0  0  0  0  0  0
   -4.1759    3.2172    0.0000 O   0  0  0  0  0  0  0  0  0  0  0  0
   -4.4391    0.6325    0.0000 O   0  0  0  0  0  0  0  0  0  0  0  0
   -2.9468    0.4806    0.0000 C   0  0  0  0  0  0  0  0  0  0  0  0
   -2.0691    1.6970    0.0000 C   0  0  0  0  0  0  0  0  0  0  0  0
   -0.5768    1.5450    0.0000 C   0  0  0  0  0  0  0  0  0  0  0  0
    0.4360    2.6449    0.0000 C   0  0  0  0  0  0  0  0  0  0  0  0
    1.9015    2.3249    0.0000 C   0  0  0  0  0  0  0  0  0  0  0  0
    2.3571    0.8958    0.0000 C   0  0  0  0  0  0  0  0  0  0  0  0
    3.8226    0.5758    0.0000 C   0  0  0  0  0  0  0  0  0  0  0  0
    5.0410    1.4507    0.0000 C   0  0  0  0  0  0  0  0  0  0  0  0
    6.2496    0.5624    0.0000 C   0  0  0  0  0  0  0  0  0  0  0  0
    7.6787    1.0180    0.0000 O   0  0  0  0  0  0  0  0  0  0  0  0
    5.7782   -0.8616    0.0000 C   0  0  0  0  0  0  0  0  0  0  0  0
    4.2782   -0.8533    0.0000 C   0  0  0  0  0  0  0  0  0  0  0  0
    4.8807   -2.2270    0.0000 C   0  0  0  0  0  0  0  0  0  0  0  0
    3.2683   -1.9625    0.0000 C   0  0  0  0  0  0  0  0  0  0  0  0
    1.8029   -1.6425    0.0000 C   0  0  0  0  0  0  0  0  0  0  0  0
    1.3472   -0.2133    0.0000 C   0  0  0  0  0  0  0  0  0  0  0  0
   -0.1182    0.1067    0.0000 C   0  0  0  0  0  0  0  0  0  0  0  0
    0.0434   -1.3846    0.0000 C   0  0  0  0  0  0  0  0  0  0  0  0
   -1.3249   -1.9992    0.0000 O   0  0  0  0  0  0  0  0  0  0  0  0
   -2.3322   -0.8878    0.0000 C   0  0  0  0  0  0  0  0  0  0  0  0
   -3.8235   -1.0494    0.0000 O   0  0  0  0  0  0  0  0  0  0  0  0
   -4.4291   -2.4217    0.0000 C   0  0  0  0  0  0  0  0  0  0  0  0
   -5.9204   -2.5834    0.0000 C   0  0  0  0  0  0  0  0  0  0  0  0
   -3.5435   -3.6324    0.0000 O   0  0  0  0  0  0  0  0  0  0  0  0
   -1.5865    0.4137    0.0000 C   0  0  0  0  0  0  0  0  0  0  0  0
  1  2  1  0
  2  3  2  0
  2  4  1  0
  5  4  1  1
  5  6  1  0
  6  7  1  0
  7  8  1  0
  8  9  1  0
  9 10  1  0
 10 11  1  0
 11 12  1  0
 12 13  1  0
 13 14  2  0
 13 15  1  0
 15 16  1  0
 16 17  1  6
 16 18  1  0
 18 19  1  0
 19 20  1  0
 20 21  1  0
 21 22  1  6
 22 23  1  0
 23 24  1  0
 24 25  1  6
 25 26  1  0
 26 27  1  0
 26 28  2  0
 24 29  1  0
 24  5  1  0
 21  7  1  0
 20 10  1  0
 29 21  1  0
 16 11  1  0
M  END
>  <identifier>  (526) 
CNP0092008.2

>  <canonical_smiles>  (526) 
CC(=O)O[C@H]1CC2CCC3C4CC(=O)C[C@@]4(C)CCC3[C@]23CO[C@]1(OC(C)=O)C3

>  <standard_inchi>  (526) 
InChI=1S/C23H32O6/c1-13(24)28-20-8-15-4-5-17-18(6-7-21(3)10-16(26)9-19(17)21)22(15)11-23(20,27-12-22)29-14(2)25/h15,17-20H,4-12H2,1-3H3/t15?,17?,18?,19?,20-,21+,22+,23-/m0/s1

>  <standard_inchi_key>  (526) 
AXUYMNBYBROCLN-OSCBAXDHSA-N

>  <name>  (526) 
nan

>  <iupac_name>  (526) 
[(1~{R},5~{R},15~{S},16~{S})-16-acetoxy-5-methyl-7-oxo-17-oxapentacyclo[14.2.1.0^{1,13}.0^{2,10}.0^{5,9}]nonadecan-15-yl] acetate

>  <annotation_level>  (526) 
4

>  <total_atom_count>  (526) 
61

>  <heavy_atom_count>  (526) 
29

>  <molecular_weight>  (526) 
404.5

>  <exact_molecular_weight>  (526) 
404.21989

>  <molecular_formula>  (526) 
C23H32O6

>  <alogp>  (526) 
3.41

>  <topological_polar_surface_area>  (526) 
78.90

>  <rotatable_bond_count>  (526) 
2

>  <hydrogen_bond_acceptors>  (526) 
6

>  <hydrogen_bond_donors>  (526) 
0

>  <hydrogen_bond_acceptors_lipinski>  (526) 
6

>  <hydrogen_bond_donors_lipinski>  (526) 
0

>  <lipinski_rule_of_five_violations>  (526) 
0

>  <aromatic_rings_count>  (526) 
0

>  <qed_drug_likeliness>  (526) 
0.66

>  <formal_charge>  (526) 
0

>  <fractioncsp3>  (526) 
0.87

>  <number_of_minimal_rings>  (526) 
5

>  <van_der_walls_volume>  (526) 
nan

>  <contains_sugar>  (526) 
False

>  <contains_ring_sugars>  (526) 
False

>  <contains_linear_sugars>  (526) 
False

>  <murcko_framework>  (526) 
O1CC23CC1CCC3CCC4C5CCCC5CCC42

>  <np_likeness>  (526) 
2.66

>  <chemical_class>  (526) 
Steroids and steroid derivatives

>  <chemical_sub_class>  (526) 
Steroid esters

>  <chemical_super_class>  (526) 
Lipids and lipid-like molecules

>  <direct_parent_classification>  (526) 
Steroid esters

>  <np_classifier_pathway>  (526) 
Terpenoids

>  <np_classifier_superclass>  (526) 
Steroids

>  <np_classifier_class>  (526) 
Androstane steroids

>  <np_classifier_is_glycoside>  (526) 
True

>  <organisms>  (526) 
Trichilia claussenii

>  <collections>  (526) 
Latin America dataset|NuBBEDB

>  <dois>  (526) 
10.1016/S0031-9422(97)00167-2

>  <synonyms>  (526) 
2\u221a\u00e9\u00ac\u00b13\u221a\u00e9\u00ac\u00b1-Diacetoxyandrostan-16-one 2\u221a\u00e9\u00ac\u226419-hemiketal

>  <cas>  (526) 
nan

$$$$

     RDKit          2D

 25 26  0  0  0  0  0  0  0  0999 V2000
    4.6780   -2.9081    0.0000 C   0  0  0  0  0  0  0  0  0  0  0  0
    3.3106   -2.2914    0.0000 N   0  0  0  0  0  0  0  0  0  0  0  0
    3.1611   -0.7988    0.0000 C   0  0  0  0  0  0  0  0  0  0  0  0
    1.7938   -0.1821    0.0000 C   0  0  0  0  0  0  0  0  0  0  0  0
    0.5760   -1.0579    0.0000 C   0  0  0  0  0  0  0  0  0  0  0  0
    0.7255   -2.5504    0.0000 O   0  0  0  0  0  0  0  0  0  0  0  0
   -0.7914   -0.4411    0.0000 C   0  0  0  0  0  0  0  0  0  0  0  0
   -0.9409    1.0514    0.0000 C   0  0  0  0  0  0  0  0  0  0  0  0
   -2.3082    1.6682    0.0000 C   0  0  0  0  0  0  0  0  0  0  0  0
   -2.4578    3.1607    0.0000 O   0  0  0  0  0  0  0  0  0  0  0  0
   -1.2400    4.0365    0.0000 C   0  0  0  0  0  0  0  0  0  0  0  0
   -3.5260    0.7924    0.0000 C   0  0  0  0  0  0  0  0  0  0  0  0
   -4.8934    1.4092    0.0000 O   0  0  0  0  0  0  0  0  0  0  0  0
   -6.1112    0.5334    0.0000 C   0  0  0  0  0  0  0  0  0  0  0  0
   -3.3765   -0.7001    0.0000 C   0  0  0  0  0  0  0  0  0  0  0  0
   -4.5943   -1.5759    0.0000 O   0  0  0  0  0  0  0  0  0  0  0  0
   -4.4448   -3.0684    0.0000 C   0  0  0  0  0  0  0  0  0  0  0  0
   -2.0092   -1.3169    0.0000 C   0  0  0  0  0  0  0  0  0  0  0  0
   -1.8596   -2.8094    0.0000 O   0  0  0  0  0  0  0  0  0  0  0  0
    1.6442    1.3104    0.0000 C   0  0  0  0  0  0  0  0  0  0  0  0
    2.8620    2.1862    0.0000 C   0  0  0  0  0  0  0  0  0  0  0  0
    4.2294    1.5694    0.0000 C   0  0  0  0  0  0  0  0  0  0  0  0
    5.4472    2.4452    0.0000 O   0  0  0  0  0  0  0  0  0  0  0  0
    4.3789    0.0769    0.0000 C   0  0  0  0  0  0  0  0  0  0  0  0
    5.7462   -0.5398    0.0000 O   0  0  0  0  0  0  0  0  0  0  0  0
  1  2  1  0
  2  3  1  0
  3  4  2  0
  4  5  1  0
  5  6  2  0
  5  7  1  0
  7  8  2  0
  8  9  1  0
  9 10  1  0
 10 11  1  0
  9 12  2  0
 12 13  1  0
 13 14  1  0
 12 15  1  0
 15 16  1  0
 16 17  1  0
 15 18  2  0
 18 19  1  0
  4 20  1  0
 20 21  2  0
 21 22  1  0
 22 23  1  0
 22 24  2  0
 24 25  1  0
 24  3  1  0
 18  7  1  0
M  END
>  <identifier>  (527) 
CNP0080521.0

>  <canonical_smiles>  (527) 
CNC1=C(C(=O)C2=CC(OC)=C(OC)C(OC)=C2O)C=CC(O)=C1O

>  <standard_inchi>  (527) 
InChI=1S/C17H19NO7/c1-18-12-8(5-6-10(19)15(12)22)13(20)9-7-11(23-2)16(24-3)17(25-4)14(9)21/h5-7,18-19,21-22H,1-4H3

>  <standard_inchi_key>  (527) 
IBPJLAPGAPPOJA-UHFFFAOYSA-N

>  <name>  (527) 
nan

>  <iupac_name>  (527) 
[3,4-dihydroxy-2-(methylamino)phenyl]-(2-hydroxy-3,4,5-trimethoxy-phenyl)methanone

>  <annotation_level>  (527) 
4

>  <total_atom_count>  (527) 
44

>  <heavy_atom_count>  (527) 
25

>  <molecular_weight>  (527) 
349.34

>  <exact_molecular_weight>  (527) 
349.11615

>  <molecular_formula>  (527) 
C17H19NO7

>  <alogp>  (527) 
2.10

>  <topological_polar_surface_area>  (527) 
117.48

>  <rotatable_bond_count>  (527) 
6

>  <hydrogen_bond_acceptors>  (527) 
8

>  <hydrogen_bond_donors>  (527) 
4

>  <hydrogen_bond_acceptors_lipinski>  (527) 
8

>  <hydrogen_bond_donors_lipinski>  (527) 
4

>  <lipinski_rule_of_five_violations>  (527) 
0

>  <aromatic_rings_count>  (527) 
2

>  <qed_drug_likeliness>  (527) 
0.46

>  <formal_charge>  (527) 
0

>  <fractioncsp3>  (527) 
0.24

>  <number_of_minimal_rings>  (527) 
2

>  <van_der_walls_volume>  (527) 
nan

>  <contains_sugar>  (527) 
False

>  <contains_ring_sugars>  (527) 
False

>  <contains_linear_sugars>  (527) 
False

>  <murcko_framework>  (527) 
c1ccc(cc1)Cc2ccccc2

>  <np_likeness>  (527) 
0.49

>  <chemical_class>  (527) 
Benzene and substituted derivatives

>  <chemical_sub_class>  (527) 
Benzophenones

>  <chemical_super_class>  (527) 
Benzenoids

>  <direct_parent_classification>  (527) 
Benzophenones

>  <np_classifier_pathway>  (527) 
Polyketides

>  <np_classifier_superclass>  (527) 
nan

>  <np_classifier_class>  (527) 
nan

>  <np_classifier_is_glycoside>  (527) 
False

>  <organisms>  (527) 
Swinglea glutinosa

>  <collections>  (527) 
Latin America dataset|NuBBEDB|WikiData Natural Products|ZINC NP

>  <dois>  (527) 
10.1080/14786410600907002

>  <synonyms>  (527) 
glyfoline

>  <cas>  (527) 
nan

$$$$

     RDKit          2D

 32 36  0  0  0  0  0  0  0  0999 V2000
   -0.9341   -1.0348    0.0000 C   0  0  0  0  0  0  0  0  0  0  0  0
   -0.2676   -0.5976    0.0000 C   0  0  0  0  0  0  0  0  0  0  0  0
   -0.7128    0.8348    0.0000 C   0  0  0  0  0  0  0  0  0  0  0  0
    0.3052    1.9366    0.0000 C   0  0  0  0  0  0  0  0  0  0  0  0
    1.7683    1.6059    0.0000 C   0  0  0  0  0  0  0  0  0  0  0  0
    2.2134    0.1735    0.0000 C   0  0  0  0  0  0  0  0  0  0  0  0
    3.2314    1.2752    0.0000 C   0  0  0  0  0  0  0  0  0  0  0  0
    3.6765   -0.1572    0.0000 C   0  0  0  0  0  0  0  0  0  0  0  0
    4.6945    0.9446    0.0000 C   0  0  0  0  0  0  0  0  0  0  0  0
    4.4014    2.4157    0.0000 C   0  0  0  0  0  0  0  0  0  0  0  0
    5.7100    3.1489    0.0000 O   0  0  0  0  0  0  0  0  0  0  0  0
    6.8117    2.1310    0.0000 C   0  0  0  0  0  0  0  0  0  0  0  0
    6.1841    0.7687    0.0000 C   0  0  0  0  0  0  0  0  0  0  0  0
    4.1217   -1.5896    0.0000 O   0  0  0  0  0  0  0  0  0  0  0  0
    3.1038   -2.6913    0.0000 C   0  0  0  0  0  0  0  0  0  0  0  0
    3.5490   -4.1238    0.0000 O   0  0  0  0  0  0  0  0  0  0  0  0
    1.6407   -2.3607    0.0000 C   0  0  0  0  0  0  0  0  0  0  0  0
    1.1955   -0.9283    0.0000 C   0  0  0  0  0  0  0  0  0  0  0  0
    0.1776   -2.0300    0.0000 O   0  0  0  0  0  0  0  0  0  0  0  0
   -1.2855   -1.6993    0.0000 C   0  0  0  0  0  0  0  0  0  0  0  0
   -2.3034   -2.8011    0.0000 C   0  0  0  0  0  0  0  0  0  0  0  0
   -3.7665   -2.4704    0.0000 C   0  0  0  0  0  0  0  0  0  0  0  0
   -4.7844   -3.5722    0.0000 O   0  0  0  0  0  0  0  0  0  0  0  0
   -4.2117   -1.0380    0.0000 C   0  0  0  0  0  0  0  0  0  0  0  0
   -3.1938    0.0637    0.0000 C   0  0  0  0  0  0  0  0  0  0  0  0
   -3.6390    1.4961    0.0000 C   0  0  0  0  0  0  0  0  0  0  0  0
   -5.1021    1.8268    0.0000 C   0  0  0  0  0  0  0  0  0  0  0  0
   -6.1200    0.7251    0.0000 O   0  0  0  0  0  0  0  0  0  0  0  0
   -5.5472    3.2592    0.0000 O   0  0  0  0  0  0  0  0  0  0  0  0
   -7.0103    3.5899    0.0000 C   0  0  0  0  0  0  0  0  0  0  0  0
   -1.7307   -0.2669    0.0000 C   0  0  0  0  0  0  0  0  0  0  0  0
   -2.1759    1.1655    0.0000 C   0  0  0  0  0  0  0  0  0  0  0  0
  1  2  2  0
  2  3  1  0
  3  4  1  0
  4  5  1  0
  5  6  1  0
  6  7  1  6
  6  8  1  0
  8  9  1  6
  9 10  2  0
 10 11  1  0
 11 12  1  0
 12 13  2  0
  8 14  1  0
 14 15  1  0
 15 16  2  0
 15 17  1  0
 17 18  1  0
 18 19  1  0
 19 20  1  0
 20 21  1  0
 21 22  1  0
 22 23  2  0
 22 24  1  0
 24 25  1  0
 25 26  1  0
 26 27  1  0
 27 28  2  0
 27 29  1  0
 29 30  1  0
 25 31  1  0
 31 32  1  6
 18  2  1  0
 31 20  1  0
 31  3  1  0
 18  6  1  0
 13  9  1  0
M  END
>  <identifier>  (528) 
CNP0080572.1

>  <canonical_smiles>  (528) 
C=C1C2CC[C@@]3(C)[C@H](C4=COC=C4)OC(=O)CC13OC1CC(=O)CC(CC(=O)OC)[C@]12C

>  <standard_inchi>  (528) 
InChI=1S/C25H30O7/c1-14-18-5-7-23(2)22(15-6-8-30-13-15)31-21(28)12-25(14,23)32-19-11-17(26)9-16(24(18,19)3)10-20(27)29-4/h6,8,13,16,18-19,22H,1,5,7,9-12H2,2-4H3/t16?,18?,19?,22-,23-,24-,25?/m0/s1

>  <standard_inchi_key>  (528) 
VWYZCCYUYNSMPW-XZGGYUOOSA-N

>  <name>  (528) 
nan

>  <iupac_name>  (528) 
methyl 2-[(8~{S},12~{S},13~{S})-13-(3-furyl)-8,12-dimethyl-17-methylene-5,15-dioxo-2,14-dioxatetracyclo[7.7.1.0^{1,12}.0^{3,8}]heptadecan-7-yl]acetate

>  <annotation_level>  (528) 
4

>  <total_atom_count>  (528) 
62

>  <heavy_atom_count>  (528) 
32

>  <molecular_weight>  (528) 
442.51

>  <exact_molecular_weight>  (528) 
442.19915

>  <molecular_formula>  (528) 
C25H30O7

>  <alogp>  (528) 
3.93

>  <topological_polar_surface_area>  (528) 
92.04

>  <rotatable_bond_count>  (528) 
3

>  <hydrogen_bond_acceptors>  (528) 
7

>  <hydrogen_bond_donors>  (528) 
0

>  <hydrogen_bond_acceptors_lipinski>  (528) 
7

>  <hydrogen_bond_donors_lipinski>  (528) 
0

>  <lipinski_rule_of_five_violations>  (528) 
0

>  <aromatic_rings_count>  (528) 
1

>  <qed_drug_likeliness>  (528) 
0.52

>  <formal_charge>  (528) 
0

>  <fractioncsp3>  (528) 
0.64

>  <number_of_minimal_rings>  (528) 
5

>  <van_der_walls_volume>  (528) 
nan

>  <contains_sugar>  (528) 
False

>  <contains_ring_sugars>  (528) 
False

>  <contains_linear_sugars>  (528) 
False

>  <murcko_framework>  (528) 
o1ccc(c1)C2OCCC34OC5CCCCC5C(CCC23)C4

>  <np_likeness>  (528) 
2.70

>  <chemical_class>  (528) 
Lactones

>  <chemical_sub_class>  (528) 
Delta valerolactones

>  <chemical_super_class>  (528) 
Organoheterocyclic compounds

>  <direct_parent_classification>  (528) 
Delta valerolactones

>  <np_classifier_pathway>  (528) 
Terpenoids

>  <np_classifier_superclass>  (528) 
Triterpenoids

>  <np_classifier_class>  (528) 
Limonoids

>  <np_classifier_is_glycoside>  (528) 
False

>  <organisms>  (528) 
Khaya ivorensis

>  <collections>  (528) 
Latin America dataset|NuBBEDB|WikiData Natural Products

>  <dois>  (528) 
10.1016/j.phytochem.2009.08.013|10.1515/ZNC-2011-5-607

>  <synonyms>  (528) 
Methyl angolensate

>  <cas>  (528) 
nan

$$$$

     RDKit          2D

  8  8  0  0  0  0  0  0  0  0999 V2000
   -3.0851    0.4695    0.0000 C   0  0  0  0  0  0  0  0  0  0  0  0
   -2.0677   -0.6327    0.0000 C   0  0  0  0  0  0  0  0  0  0  0  0
   -0.6045   -0.3028    0.0000 C   0  0  0  0  0  0  0  0  0  0  0  0
   -0.1586    1.1294    0.0000 C   0  0  0  0  0  0  0  0  0  0  0  0
    1.3047    1.4594    0.0000 C   0  0  0  0  0  0  0  0  0  0  0  0
    2.3221    0.3572    0.0000 C   0  0  0  0  0  0  0  0  0  0  0  0
    1.8762   -1.0750    0.0000 C   0  0  0  0  0  0  0  0  0  0  0  0
    0.4129   -1.4050    0.0000 C   0  0  0  0  0  0  0  0  0  0  0  0
  1  2  1  0
  2  3  1  0
  3  4  2  0
  4  5  1  0
  5  6  1  0
  6  7  1  0
  7  8  1  0
  8  3  1  0
M  END
>  <identifier>  (529) 
CNP0080676.0

>  <canonical_smiles>  (529) 
CCC1=CCCCC1

>  <standard_inchi>  (529) 
InChI=1S/C8H14/c1-2-8-6-4-3-5-7-8/h6H,2-5,7H2,1H3

>  <standard_inchi_key>  (529) 
IFVMAGPISVKRAR-UHFFFAOYSA-N

>  <name>  (529) 
1-Ethylcyclohexene

>  <iupac_name>  (529) 
1-ethylcyclohexene

>  <annotation_level>  (529) 
5

>  <total_atom_count>  (529) 
22

>  <heavy_atom_count>  (529) 
8

>  <molecular_weight>  (529) 
110.2

>  <exact_molecular_weight>  (529) 
110.10955

>  <molecular_formula>  (529) 
C8H14

>  <alogp>  (529) 
2.90

>  <topological_polar_surface_area>  (529) 
0.00

>  <rotatable_bond_count>  (529) 
1

>  <hydrogen_bond_acceptors>  (529) 
0

>  <hydrogen_bond_donors>  (529) 
0

>  <hydrogen_bond_acceptors_lipinski>  (529) 
0

>  <hydrogen_bond_donors_lipinski>  (529) 
0

>  <lipinski_rule_of_five_violations>  (529) 
0

>  <aromatic_rings_count>  (529) 
0

>  <qed_drug_likeliness>  (529) 
0.46

>  <formal_charge>  (529) 
0

>  <fractioncsp3>  (529) 
0.75

>  <number_of_minimal_rings>  (529) 
1

>  <van_der_walls_volume>  (529) 
nan

>  <contains_sugar>  (529) 
False

>  <contains_ring_sugars>  (529) 
False

>  <contains_linear_sugars>  (529) 
False

>  <murcko_framework>  (529) 
C1=CCCCC1

>  <np_likeness>  (529) 
0.14

>  <chemical_class>  (529) 
Unsaturated hydrocarbons

>  <chemical_sub_class>  (529) 
Branched unsaturated hydrocarbons

>  <chemical_super_class>  (529) 
Hydrocarbons

>  <direct_parent_classification>  (529) 
Branched unsaturated hydrocarbons

>  <np_classifier_pathway>  (529) 
nan

>  <np_classifier_superclass>  (529) 
nan

>  <np_classifier_class>  (529) 
nan

>  <np_classifier_is_glycoside>  (529) 
False

>  <organisms>  (529) 
Caryocar coriaceum

>  <collections>  (529) 
Latin America dataset|NuBBEDB|WikiData Natural Products|ZINC NP

>  <dois>  (529) 
10.1021/JF00120A031|10.1021/jf00120a031

>  <synonyms>  (529) 
1-ETHYL CYCLOHEXENE|1-Ethyl-1-cyclohexene #|1-Ethylcyclohexene-1|1-ethylcyclohex-1-ene|1453-24-3|2-(1-cyclohexen-1-yl)ethyl|98775-15-6|AKOS006273820|Cyclohexene, 1-ethyl-|DB-391015|DTXSID301311471|DTXSID60162971|EINECS 215-922-0|NS00024729|NSC 74155|NSC-74155|W4UE8E2TSH|ethylcyclohexene

>  <cas>  (529) 
1453-24-3|98775-15-6

$$$$

     RDKit          2D

 19 20  0  0  0  0  0  0  0  0999 V2000
   -1.9900   -2.7079    0.0000 C   0  0  0  0  0  0  0  0  0  0  0  0
   -0.5384   -2.3301    0.0000 O   0  0  0  0  0  0  0  0  0  0  0  0
   -0.1397   -0.8841    0.0000 C   0  0  0  0  0  0  0  0  0  0  0  0
   -1.1926    0.1842    0.0000 C   0  0  0  0  0  0  0  0  0  0  0  0
   -2.6443   -0.1935    0.0000 C   0  0  0  0  0  0  0  0  0  0  0  0
   -3.6972    0.8748    0.0000 C   0  0  0  0  0  0  0  0  0  0  0  0
   -5.1489    0.4970    0.0000 C   0  0  0  0  0  0  0  0  0  0  0  0
   -5.5476   -0.9490    0.0000 O   0  0  0  0  0  0  0  0  0  0  0  0
   -6.2019    1.5653    0.0000 O   0  0  0  0  0  0  0  0  0  0  0  0
   -0.7939    1.6302    0.0000 C   0  0  0  0  0  0  0  0  0  0  0  0
    0.6577    2.0080    0.0000 C   0  0  0  0  0  0  0  0  0  0  0  0
    1.7107    0.9397    0.0000 C   0  0  0  0  0  0  0  0  0  0  0  0
    1.3120   -0.5064    0.0000 C   0  0  0  0  0  0  0  0  0  0  0  0
    2.3650   -1.5747    0.0000 C   0  0  0  0  0  0  0  0  0  0  0  0
    3.8166   -1.1969    0.0000 C   0  0  0  0  0  0  0  0  0  0  0  0
    4.2153    0.2491    0.0000 C   0  0  0  0  0  0  0  0  0  0  0  0
    5.0845    1.4716    0.0000 C   0  0  0  0  0  0  0  0  0  0  0  0
    5.5702   -0.3946    0.0000 C   0  0  0  0  0  0  0  0  0  0  0  0
    3.1624    1.3174    0.0000 O   0  0  0  0  0  0  0  0  0  0  0  0
  1  2  1  0
  2  3  1  0
  3  4  2  0
  4  5  1  0
  5  6  1  0
  6  7  1  0
  7  8  2  0
  7  9  1  0
  4 10  1  0
 10 11  2  0
 11 12  1  0
 12 13  2  0
 13 14  1  0
 14 15  2  0
 15 16  1  0
 16 17  1  0
 16 18  1  0
 16 19  1  0
 13  3  1  0
 19 12  1  0
M  END
>  <identifier>  (530) 
CNP0224654.0

>  <canonical_smiles>  (530) 
COC1=C(CCC(=O)O)C=CC2=C1C=CC(C)(C)O2

>  <standard_inchi>  (530) 
InChI=1S/C15H18O4/c1-15(2)9-8-11-12(19-15)6-4-10(14(11)18-3)5-7-13(16)17/h4,6,8-9H,5,7H2,1-3H3,(H,16,17)

>  <standard_inchi_key>  (530) 
SIJDUTBXZTVJLZ-UHFFFAOYSA-N

>  <name>  (530) 
nan

>  <iupac_name>  (530) 
3-(5-methoxy-2,2-dimethyl-chromen-6-yl)propanoic acid

>  <annotation_level>  (530) 
4

>  <total_atom_count>  (530) 
37

>  <heavy_atom_count>  (530) 
19

>  <molecular_weight>  (530) 
262.31

>  <exact_molecular_weight>  (530) 
262.12051

>  <molecular_formula>  (530) 
C15H18O4

>  <alogp>  (530) 
2.90

>  <topological_polar_surface_area>  (530) 
55.76

>  <rotatable_bond_count>  (530) 
4

>  <hydrogen_bond_acceptors>  (530) 
3

>  <hydrogen_bond_donors>  (530) 
1

>  <hydrogen_bond_acceptors_lipinski>  (530) 
3

>  <hydrogen_bond_donors_lipinski>  (530) 
1

>  <lipinski_rule_of_five_violations>  (530) 
0

>  <aromatic_rings_count>  (530) 
1

>  <qed_drug_likeliness>  (530) 
0.91

>  <formal_charge>  (530) 
0

>  <fractioncsp3>  (530) 
0.40

>  <number_of_minimal_rings>  (530) 
2

>  <van_der_walls_volume>  (530) 
nan

>  <contains_sugar>  (530) 
False

>  <contains_ring_sugars>  (530) 
False

>  <contains_linear_sugars>  (530) 
False

>  <murcko_framework>  (530) 
O1c2ccccc2C=CC1

>  <np_likeness>  (530) 
1.81

>  <chemical_class>  (530) 
Benzopyrans

>  <chemical_sub_class>  (530) 
1-benzopyrans

>  <chemical_super_class>  (530) 
Organoheterocyclic compounds

>  <direct_parent_classification>  (530) 
2,2-dimethyl-1-benzopyrans

>  <np_classifier_pathway>  (530) 
Terpenoids

>  <np_classifier_superclass>  (530) 
Meroterpenoids

>  <np_classifier_class>  (530) 
Merohemiterpenoids

>  <np_classifier_is_glycoside>  (530) 
False

>  <organisms>  (530) 
Hortia oreadica

>  <collections>  (530) 
Latin America dataset|NuBBEDB|WikiData Natural Products|ZINC NP

>  <dois>  (530) 
10.1016/J.BSE.2012.03.005|10.1016/j.bse.2012.03.005

>  <synonyms>  (530) 
5-methoxy-22-dimethyl-2H-1-benzopyran-6-propanoic acid

>  <cas>  (530) 
nan

$$$$

     RDKit          2D

 18 19  0  0  0  0  0  0  0  0999 V2000
   -3.8072   -0.8169    0.0000 C   0  0  0  0  0  0  0  0  0  0  0  0
   -2.3266   -1.0571    0.0000 N   0  0  0  0  0  0  0  0  0  0  0  0
   -0.8459   -1.2972    0.0000 C   0  0  0  0  0  0  0  0  0  0  0  0
   -2.5667   -2.5377    0.0000 C   0  0  0  0  0  0  0  0  0  0  0  0
   -2.0864    0.4236    0.0000 C   0  0  0  0  0  0  0  0  0  0  0  0
   -0.6840    0.9559    0.0000 C   0  0  0  0  0  0  0  0  0  0  0  0
    0.4782    0.0076    0.0000 C   0  0  0  0  0  0  0  0  0  0  0  0
    0.3941   -1.4900    0.0000 C   0  0  0  0  0  0  0  0  0  0  0  0
    1.7924   -2.0328    0.0000 N   0  0  0  0  0  0  0  0  0  0  0  0
    2.7408   -0.8706    0.0000 C   0  0  0  0  0  0  0  0  0  0  0  0
    4.2390   -0.7976    0.0000 C   0  0  0  0  0  0  0  0  0  0  0  0
    4.9249    0.5363    0.0000 C   0  0  0  0  0  0  0  0  0  0  0  0
    4.1126    1.7974    0.0000 C   0  0  0  0  0  0  0  0  0  0  0  0
    2.6144    1.7244    0.0000 C   0  0  0  0  0  0  0  0  0  0  0  0
    1.9285    0.3905    0.0000 C   0  0  0  0  0  0  0  0  0  0  0  0
   -3.2486    1.3719    0.0000 C   0  0  0  0  0  0  0  0  0  0  0  0
   -3.0085    2.8526    0.0000 O   0  0  0  0  0  0  0  0  0  0  0  0
   -4.6510    0.8396    0.0000 O   0  0  0  0  0  0  0  0  0  0  0  0
  1  2  1  0
  2  3  1  0
  2  4  1  0
  2  5  1  0
  5  6  1  6
  6  7  1  0
  7  8  2  0
  8  9  1  0
  9 10  1  0
 10 11  2  0
 11 12  1  0
 12 13  2  0
 13 14  1  0
 14 15  2  0
  5 16  1  0
 16 17  2  0
 16 18  1  0
 15  7  1  0
 15 10  1  0
M  CHG  2   2   1  18  -1
M  END
>  <identifier>  (531) 
CNP0503354.1

>  <canonical_smiles>  (531) 
C[N+](C)(C)[C@@H](CC1=CNC2=CC=CC=C12)C(=O)[O-]

>  <standard_inchi>  (531) 
InChI=1S/C14H18N2O2/c1-16(2,3)13(14(17)18)8-10-9-15-12-7-5-4-6-11(10)12/h4-7,9,13,15H,8H2,1-3H3/t13-/m0/s1

>  <standard_inchi_key>  (531) 
AOHCBEAZXHZMOR-ZDUSSCGKSA-N

>  <name>  (531) 
Hypaphorine

>  <iupac_name>  (531) 
(2~{S})-3-(1~{H}-indol-3-yl)-2-(trimethylammonio)propanoate

>  <annotation_level>  (531) 
5

>  <total_atom_count>  (531) 
36

>  <heavy_atom_count>  (531) 
18

>  <molecular_weight>  (531) 
246.31

>  <exact_molecular_weight>  (531) 
246.13683

>  <molecular_formula>  (531) 
C14H18N2O2

>  <alogp>  (531) 
0.54

>  <topological_polar_surface_area>  (531) 
55.92

>  <rotatable_bond_count>  (531) 
4

>  <hydrogen_bond_acceptors>  (531) 
2

>  <hydrogen_bond_donors>  (531) 
1

>  <hydrogen_bond_acceptors_lipinski>  (531) 
2

>  <hydrogen_bond_donors_lipinski>  (531) 
1

>  <lipinski_rule_of_five_violations>  (531) 
0

>  <aromatic_rings_count>  (531) 
2

>  <qed_drug_likeliness>  (531) 
0.80

>  <formal_charge>  (531) 
0

>  <fractioncsp3>  (531) 
0.36

>  <number_of_minimal_rings>  (531) 
2

>  <van_der_walls_volume>  (531) 
231.64

>  <contains_sugar>  (531) 
False

>  <contains_ring_sugars>  (531) 
False

>  <contains_linear_sugars>  (531) 
False

>  <murcko_framework>  (531) 
c1ccc2[nH]ccc2c1

>  <np_likeness>  (531) 
0.31

>  <chemical_class>  (531) 
Carboxylic acids and derivatives

>  <chemical_sub_class>  (531) 
Amino acids, peptides, and analogues

>  <chemical_super_class>  (531) 
Organic acids and derivatives

>  <direct_parent_classification>  (531) 
Alpha amino acids

>  <np_classifier_pathway>  (531) 
Alkaloids

>  <np_classifier_superclass>  (531) 
Tryptophan alkaloids

>  <np_classifier_class>  (531) 
Simple indole alkaloids

>  <np_classifier_is_glycoside>  (531) 
False

>  <organisms>  (531) 
Abrus Precatorius|Abrus precatorius|Aloe peglerae|Botrylloides tyreum|Callicarpa furfuracea|Caragana brevifolia|Caragana korshinskii|Caragana leucophloea|Caragana rosea|Caragana sinica|Caragana stenophylla|Desmodium Gangeticum|Desmodium gangeticum|Erythrina hypaphorus|Erythrina mulungu|Erythrina senegalensis|Erythrina stricta|Erythrina suberosa|Erythrina subumbrans|Erythrina sudumbrans|Fallopia multiflora|Glycyrrhiza yunnanensis|Hedysarum polybotrys|Human immunodeficiency|Maquira coriacea|Naucleopsis caloneura|Naucleopsis macrophylla|Naucleopsis stipularis|Naucleopsis ternstroemiiflora|Osmundaria fimbriata|Pisolithus arhizus|Pisolithus microcarpus|Pisolithus tinctorius|Pterocarpus officinalis|Rissoella verruculosa|Sarcocapnos baetica|Senegalia senegal|Sida cordifolia|Smallanthus fruticosus

>  <collections>  (531) 
Australian natural products|CMAUP (cCollective molecular activities of useful plants)|ChEBI NPs|KNApSaCK|Latin America dataset|NPASS|NPEdia|NuBBEDB|Supernatural3|TIPdb (database of Taiwan indigenous plants)|VietHerb|WikiData Natural Products

>  <dois>  (531) 
10.1007/BF01897872|10.1007/S004250050486|10.1007/s004250050486|10.1007/s00709-006-0240-9|10.1016/0031-9422(75)83057-3|10.1016/0031-9422(91)83194-P|10.1016/0031-9422(92)83140-T|10.1016/0031-9422(94)00779-S|10.1016/S0039-9140(01)00375-7|10.1021/JA01874A065|10.1021/NP50017A002|10.1055/S-2001-17367|10.1139/V81-400|10.1139/v81-400|10.1248/cpb.46.982|10.2307/4117899

>  <synonyms>  (531) 
(+)-Hypaphorine|(.ALPHA.S)-.ALPHA.-CARBOXY-N,N,N-TRIMETHYL-1H-INDOLE-3-ETHANAMINIUM INNER SALT|(2S)-3-(1H-indol-3-yl)-2-(trimethylazaniumyl)propanoate|(S)-3-(1H-Indol-3-yl)-2-(trimethylammonio)propanoate|1H-INDOLE-3-ETHANAMINIUM, .ALPHA.-CARBOXY-N,N,N-TRIMETHYL-, INNER SALT, (.ALPHA.S)-|1H-Indole-3-ethanaminium, alpha-carboxy-N,N,N-trimethyl-, inner salt, (S)-|1ST156701|487-58-1|AKOS030531239|C09213|CHEBI:5832|CHEMBL2235164|DTXSID70964100|GJ3358U63L|Glyyunnanenine|HYPAPHORINE [MI]|HYPAPHORINE, (+)-|Hypaforin|Hypaphorine487-58-1; Glyyunnanenine; Tryptophan betaine|L-Hypaphorine|L-tryptophan betaine|Lenticin|N,N,N-trimethyltryptophan betaine|Q27106905|SCHEMBL1460893|TRYPTOPHAN, TRIMETHYLBETAINE|Tryptophan betaine|UNII-GJ3358U63L|hypaphorine

>  <cas>  (531) 
487-58-1

$$$$

     RDKit          2D

 22 25  0  0  0  0  0  0  0  0999 V2000
   -5.9042   -2.4051    0.0000 O   0  0  0  0  0  0  0  0  0  0  0  0
   -4.8340   -1.3541    0.0000 C   0  0  0  0  0  0  0  0  0  0  0  0
   -5.2091    0.0983    0.0000 C   0  0  0  0  0  0  0  0  0  0  0  0
   -4.1388    1.1493    0.0000 C   0  0  0  0  0  0  0  0  0  0  0  0
   -2.6935    0.7480    0.0000 C   0  0  0  0  0  0  0  0  0  0  0  0
   -2.3185   -0.7044    0.0000 C   0  0  0  0  0  0  0  0  0  0  0  0
   -3.3887   -1.7554    0.0000 C   0  0  0  0  0  0  0  0  0  0  0  0
   -0.8731   -1.1057    0.0000 O   0  0  0  0  0  0  0  0  0  0  0  0
    0.1971   -0.0547    0.0000 C   0  0  0  0  0  0  0  0  0  0  0  0
    1.6424   -0.4561    0.0000 C   0  0  0  0  0  0  0  0  0  0  0  0
    2.0175   -1.9084    0.0000 C   0  0  0  0  0  0  0  0  0  0  0  0
    3.4628   -2.3098    0.0000 C   0  0  0  0  0  0  0  0  0  0  0  0
    4.5330   -1.2588    0.0000 C   0  0  0  0  0  0  0  0  0  0  0  0
    5.9783   -1.6601    0.0000 O   0  0  0  0  0  0  0  0  0  0  0  0
    4.1579    0.1936    0.0000 C   0  0  0  0  0  0  0  0  0  0  0  0
    5.2282    1.2446    0.0000 O   0  0  0  0  0  0  0  0  0  0  0  0
    2.7126    0.5949    0.0000 C   0  0  0  0  0  0  0  0  0  0  0  0
    2.3375    2.0473    0.0000 C   0  0  0  0  0  0  0  0  0  0  0  0
    0.8922    2.4486    0.0000 O   0  0  0  0  0  0  0  0  0  0  0  0
   -0.1780    1.3976    0.0000 C   0  0  0  0  0  0  0  0  0  0  0  0
   -1.6233    1.7990    0.0000 C   0  0  0  0  0  0  0  0  0  0  0  0
   -1.9984    3.2513    0.0000 O   0  0  0  0  0  0  0  0  0  0  0  0
  1  2  1  0
  2  3  2  0
  3  4  1  0
  4  5  2  0
  5  6  1  0
  6  7  2  0
  6  8  1  0
  9  8  1  1
  9 10  1  0
 10 11  2  0
 11 12  1  0
 12 13  2  0
 13 14  1  0
 13 15  1  0
 15 16  1  0
 15 17  2  0
 17 18  1  0
 18 19  1  0
 20 19  1  6
 20 21  1  0
 21 22  1  1
  7  2  1  0
 20  9  1  0
 21  5  1  0
 17 10  1  0
M  END
>  <identifier>  (532) 
CNP0145993.1

>  <canonical_smiles>  (532) 
OC1=CC=C2C(=C1)O[C@@H]1C3=CC=C(O)C(O)=C3CO[C@H]1[C@@H]2O

>  <standard_inchi>  (532) 
InChI=1S/C16H14O6/c17-7-1-2-9-12(5-7)22-15-8-3-4-11(18)13(19)10(8)6-21-16(15)14(9)20/h1-5,14-20H,6H2/t14-,15-,16+/m1/s1

>  <standard_inchi_key>  (532) 
AQPFFYOIRKEBDI-OAGGEKHMSA-N

>  <name>  (532) 
Mopanan-4alpha-ol

>  <iupac_name>  (532) 
(6~{a}~{S},7~{R},12~{a}~{R})-5,6~{a},7,12~{a}-tetrahydroisochromeno[4,3-b]chromene-3,4,7,10-tetrol

>  <annotation_level>  (532) 
5

>  <total_atom_count>  (532) 
36

>  <heavy_atom_count>  (532) 
22

>  <molecular_weight>  (532) 
302.28

>  <exact_molecular_weight>  (532) 
302.07904

>  <molecular_formula>  (532) 
C16H14O6

>  <alogp>  (532) 
1.87

>  <topological_polar_surface_area>  (532) 
99.38

>  <rotatable_bond_count>  (532) 
0

>  <hydrogen_bond_acceptors>  (532) 
6

>  <hydrogen_bond_donors>  (532) 
4

>  <hydrogen_bond_acceptors_lipinski>  (532) 
6

>  <hydrogen_bond_donors_lipinski>  (532) 
4

>  <lipinski_rule_of_five_violations>  (532) 
0

>  <aromatic_rings_count>  (532) 
2

>  <qed_drug_likeliness>  (532) 
0.55

>  <formal_charge>  (532) 
0

>  <fractioncsp3>  (532) 
0.25

>  <number_of_minimal_rings>  (532) 
4

>  <van_der_walls_volume>  (532) 
249.73

>  <contains_sugar>  (532) 
False

>  <contains_ring_sugars>  (532) 
False

>  <contains_linear_sugars>  (532) 
False

>  <murcko_framework>  (532) 
O1c2ccccc2CC3OCc4ccccc4C13

>  <np_likeness>  (532) 
2.28

>  <chemical_class>  (532) 
Flavonoids

>  <chemical_sub_class>  (532) 
Pyranoflavonoids

>  <chemical_super_class>  (532) 
Phenylpropanoids and polyketides

>  <direct_parent_classification>  (532) 
Pyranoflavonoids

>  <np_classifier_pathway>  (532) 
Shikimates and Phenylpropanoids

>  <np_classifier_superclass>  (532) 
Flavonoids

>  <np_classifier_class>  (532) 
Flavandiols (Leucoanthocyanidins)

>  <np_classifier_is_glycoside>  (532) 
False

>  <organisms>  (532) 
Calliandra confusa|Cremastosperma microcarpum|Euphorbia peplus|Fleroya rubrostipulata|Lysidice Rhodostegia|Peltogyne catingae|Peltogyne confertiflora|Peltogyne venosa|Peltophorum adnatum|Phacelocarpus labillardieri|Reticulitermes virginicus|Swertia leduci

>  <collections>  (532) 
CMAUP (cCollective molecular activities of useful plants)|Latin America dataset|NPASS|NPEdia|NuBBEDB|TCMDB-Taiwan (Traditional Chinese Medicine database)|VietHerb|WikiData Natural Products|ZINC NP

>  <dois>  (532) 
10.1016/0031-9422(74)80105-6

>  <synonyms>  (532) 
(6aS,7R,12aR)-5,6a,7,12a-tetrahydroisochromeno[4,3-b]chromene-3,4,7,10-tetrol|17093-54-8|LMPK12020224|Mopanan-4alpha-ol|mopanol

>  <cas>  (532) 
17093-54-8

$$$$

     RDKit          2D

 29 31  0  0  0  0  0  0  0  0999 V2000
   -4.8633   -5.1212    0.0000 C   0  0  0  0  0  0  0  0  0  0  0  0
   -3.6535   -4.2344    0.0000 C   0  0  0  0  0  0  0  0  0  0  0  0
   -3.8165   -2.7433    0.0000 C   0  0  0  0  0  0  0  0  0  0  0  0
   -5.1894   -2.1389    0.0000 C   0  0  0  0  0  0  0  0  0  0  0  0
   -2.6067   -1.8565    0.0000 C   0  0  0  0  0  0  0  0  0  0  0  0
   -1.2339   -2.4608    0.0000 O   0  0  0  0  0  0  0  0  0  0  0  0
   -2.7698   -0.3654    0.0000 C   0  0  0  0  0  0  0  0  0  0  0  0
   -1.6594    0.6430    0.0000 C   0  0  0  0  0  0  0  0  0  0  0  0
   -0.1669    0.4925    0.0000 C   0  0  0  0  0  0  0  0  0  0  0  0
    0.4490   -0.8752    0.0000 C   0  0  0  0  0  0  0  0  0  0  0  0
    1.9414   -1.0257    0.0000 O   0  0  0  0  0  0  0  0  0  0  0  0
    2.8179    0.1915    0.0000 C   0  0  0  0  0  0  0  0  0  0  0  0
    4.3104    0.0410    0.0000 C   0  0  0  0  0  0  0  0  0  0  0  0
    4.9262   -1.3267    0.0000 C   0  0  0  0  0  0  0  0  0  0  0  0
    6.4187   -1.4772    0.0000 C   0  0  0  0  0  0  0  0  0  0  0  0
    7.0346   -2.8449    0.0000 C   0  0  0  0  0  0  0  0  0  0  0  0
    7.2952   -0.2600    0.0000 C   0  0  0  0  0  0  0  0  0  0  0  0
    8.7877   -0.4105    0.0000 C   0  0  0  0  0  0  0  0  0  0  0  0
    2.2021    1.5593    0.0000 C   0  0  0  0  0  0  0  0  0  0  0  0
    0.7096    1.7098    0.0000 C   0  0  0  0  0  0  0  0  0  0  0  0
    0.0937    3.0775    0.0000 C   0  0  0  0  0  0  0  0  0  0  0  0
    0.9703    4.2947    0.0000 Cl  0  0  0  0  0  0  0  0  0  0  0  0
   -1.3987    3.2280    0.0000 C   0  0  0  0  0  0  0  0  0  0  0  0
   -2.0146    4.5957    0.0000 O   0  0  0  0  0  0  0  0  0  0  0  0
   -2.2752    2.0108    0.0000 C   0  0  0  0  0  0  0  0  0  0  0  0
   -3.0307    3.3066    0.0000 C   0  0  0  0  0  0  0  0  0  0  0  0
   -3.7663    1.8477    0.0000 O   0  0  0  0  0  0  0  0  0  0  0  0
   -4.0720    0.3791    0.0000 C   0  0  0  0  0  0  0  0  0  0  0  0
   -5.4398   -0.2367    0.0000 O   0  0  0  0  0  0  0  0  0  0  0  0
  1  2  1  0
  2  3  2  0
  3  4  1  0
  3  5  1  0
  5  6  2  0
  5  7  1  0
  7  8  2  0
  8  9  1  0
  9 10  2  0
 10 11  1  0
 11 12  1  0
 12 13  1  0
 13 14  2  0
 14 15  1  0
 15 16  1  6
 15 17  1  0
 17 18  1  0
 12 19  2  0
 19 20  1  0
 20 21  2  0
 21 22  1  0
 21 23  1  0
 23 24  2  0
 23 25  1  0
 25 26  1  1
 25 27  1  0
 27 28  1  0
 28 29  2  0
 28  7  1  0
 25  8  1  0
 20  9  1  0
M  END
>  <identifier>  (533) 
CNP0143480.1

>  <canonical_smiles>  (533) 
C/C=C(\C)C(=O)C1=C2C3=COC(/C=C/[C@@H](C)CC)=CC3=C(Cl)C(=O)[C@@]2(C)OC1=O

>  <standard_inchi>  (533) 
InChI=1S/C23H23ClO5/c1-6-12(3)8-9-14-10-15-16(11-28-14)18-17(20(25)13(4)7-2)22(27)29-23(18,5)21(26)19(15)24/h7-12H,6H2,1-5H3/b9-8+,13-7+/t12-,23-/m0/s1

>  <standard_inchi_key>  (533) 
XEBNYZYYHZZSJR-IIWQDEIUSA-N

>  <name>  (533) 
Chaetoviridin E

>  <iupac_name>  (533) 
(6~{a}~{S})-5-chloro-6~{a}-methyl-9-[(~{E})-2-methylbut-2-enoyl]-3-[(~{E},3~{S})-3-methylpent-1-enyl]furo[2,3-h]isochromene-6,8-dione

>  <annotation_level>  (533) 
5

>  <total_atom_count>  (533) 
52

>  <heavy_atom_count>  (533) 
29

>  <molecular_weight>  (533) 
414.89

>  <exact_molecular_weight>  (533) 
414.1234

>  <molecular_formula>  (533) 
C23H23ClO5

>  <alogp>  (533) 
4.61

>  <topological_polar_surface_area>  (533) 
69.67

>  <rotatable_bond_count>  (533) 
5

>  <hydrogen_bond_acceptors>  (533) 
5

>  <hydrogen_bond_donors>  (533) 
0

>  <hydrogen_bond_acceptors_lipinski>  (533) 
5

>  <hydrogen_bond_donors_lipinski>  (533) 
0

>  <lipinski_rule_of_five_violations>  (533) 
0

>  <aromatic_rings_count>  (533) 
0

>  <qed_drug_likeliness>  (533) 
0.37

>  <formal_charge>  (533) 
0

>  <fractioncsp3>  (533) 
0.35

>  <number_of_minimal_rings>  (533) 
3

>  <van_der_walls_volume>  (533) 
366.85

>  <contains_sugar>  (533) 
False

>  <contains_ring_sugars>  (533) 
False

>  <contains_linear_sugars>  (533) 
False

>  <murcko_framework>  (533) 
O1C=CC2=CCC3OCC=C3C2=C1

>  <np_likeness>  (533) 
2.83

>  <chemical_class>  (533) 
Organooxygen compounds

>  <chemical_sub_class>  (533) 
Carbonyl compounds

>  <chemical_super_class>  (533) 
Organic oxygen compounds

>  <direct_parent_classification>  (533) 
Cyclohexenones

>  <np_classifier_pathway>  (533) 
Polyketides

>  <np_classifier_superclass>  (533) 
Chromanes

>  <np_classifier_class>  (533) 
Azaphilones

>  <np_classifier_is_glycoside>  (533) 
False

>  <organisms>  (533) 
Chaetomium cochliodes|Chaetomium globosum|Chaetomium globosum MP4-S01-7

>  <collections>  (533) 
ChEBI NPs|EMNPD|Latin America dataset|NPASS|NuBBEDB|Super Natural II|WikiData Natural Products|ZINC NP

>  <dois>  (533) 
10.1016/J.TET.2008.07.040|10.1021/ACS.JNATPROD.9B01165|10.1021/NP200110F|10.1021/acs.jnatprod.9b01165|10.1021/np200110f

>  <synonyms>  (533) 
(6aS)-5-chloro-6a-methyl-9-[(2E)-2-methylbut-2-enoyl]-3-[(1E,3S)-3-methylpent-1-en-1-yl]-6H-furo[2,3-h]isochromene-6,8(6aH)-dione|CHEBI:67614|CHEMBL1802154|Chaetoviridine E|Q27136081

>  <cas>  (533) 
nan

$$$$

     RDKit          2D

 20 21  0  0  0  0  0  0  0  0999 V2000
   -1.3814   -1.9822    0.0000 O   0  0  0  0  0  0  0  0  0  0  0  0
   -1.0279   -0.5245    0.0000 C   0  0  0  0  0  0  0  0  0  0  0  0
    0.4113   -0.1018    0.0000 C   0  0  0  0  0  0  0  0  0  0  0  0
    1.4970   -1.1369    0.0000 C   0  0  0  0  0  0  0  0  0  0  0  0
    2.9362   -0.7142    0.0000 C   0  0  0  0  0  0  0  0  0  0  0  0
    4.0219   -1.7492    0.0000 C   0  0  0  0  0  0  0  0  0  0  0  0
    5.4611   -1.3265    0.0000 C   0  0  0  0  0  0  0  0  0  0  0  0
    5.8147    0.1312    0.0000 C   0  0  0  0  0  0  0  0  0  0  0  0
    7.2539    0.5539    0.0000 O   0  0  0  0  0  0  0  0  0  0  0  0
    4.7290    1.1663    0.0000 C   0  0  0  0  0  0  0  0  0  0  0  0
    5.0825    2.6240    0.0000 O   0  0  0  0  0  0  0  0  0  0  0  0
    3.2898    0.7436    0.0000 C   0  0  0  0  0  0  0  0  0  0  0  0
   -2.1135    0.5106    0.0000 O   0  0  0  0  0  0  0  0  0  0  0  0
   -3.5527    0.0879    0.0000 C   0  0  0  0  0  0  0  0  0  0  0  0
   -4.0567   -1.3249    0.0000 C   0  0  0  0  0  0  0  0  0  0  0  0
   -5.5561   -1.2822    0.0000 C   0  0  0  0  0  0  0  0  0  0  0  0
   -5.9788    0.1570    0.0000 C   0  0  0  0  0  0  0  0  0  0  0  0
   -7.3916    0.6610    0.0000 O   0  0  0  0  0  0  0  0  0  0  0  0
   -4.7407    1.0038    0.0000 C   0  0  0  0  0  0  0  0  0  0  0  0
   -4.6979    2.5032    0.0000 O   0  0  0  0  0  0  0  0  0  0  0  0
  1  2  2  0
  2  3  1  0
  3  4  2  0
  4  5  1  0
  5  6  2  0
  6  7  1  0
  7  8  2  0
  8  9  1  0
  8 10  1  0
 10 11  1  0
 10 12  2  0
  2 13  1  0
 14 13  1  1
 14 15  1  0
 15 16  1  0
 16 17  1  0
 17 18  1  1
 17 19  1  0
 19 20  1  1
 12  5  1  0
 19 14  1  0
M  END
>  <identifier>  (534) 
CNP0198385.1

>  <canonical_smiles>  (534) 
O=C(/C=C/C1=CC=C(O)C(O)=C1)O[C@H]1CC[C@@H](O)[C@H]1O

>  <standard_inchi>  (534) 
InChI=1S/C14H16O6/c15-9-3-1-8(7-11(9)17)2-6-13(18)20-12-5-4-10(16)14(12)19/h1-3,6-7,10,12,14-17,19H,4-5H2/b6-2+/t10-,12+,14-/m1/s1

>  <standard_inchi_key>  (534) 
RXKJUJBLHWQKCA-FXLMWSCQSA-N

>  <name>  (534) 
[(1S,2R,3R)-2,3-dihydroxycyclopentyl] (E)-3-(3,4-dihydroxyphenyl)prop-2-enoate

>  <iupac_name>  (534) 
[(1~{S},2~{R},3~{R})-2,3-dihydroxycyclopentyl] (~{E})-3-(3,4-dihydroxyphenyl)prop-2-enoate

>  <annotation_level>  (534) 
5

>  <total_atom_count>  (534) 
36

>  <heavy_atom_count>  (534) 
20

>  <molecular_weight>  (534) 
280.28

>  <exact_molecular_weight>  (534) 
280.09469

>  <molecular_formula>  (534) 
C14H16O6

>  <alogp>  (534) 
0.54

>  <topological_polar_surface_area>  (534) 
107.22

>  <rotatable_bond_count>  (534) 
3

>  <hydrogen_bond_acceptors>  (534) 
6

>  <hydrogen_bond_donors>  (534) 
4

>  <hydrogen_bond_acceptors_lipinski>  (534) 
6

>  <hydrogen_bond_donors_lipinski>  (534) 
4

>  <lipinski_rule_of_five_violations>  (534) 
0

>  <aromatic_rings_count>  (534) 
1

>  <qed_drug_likeliness>  (534) 
0.37

>  <formal_charge>  (534) 
0

>  <fractioncsp3>  (534) 
0.36

>  <number_of_minimal_rings>  (534) 
2

>  <van_der_walls_volume>  (534) 
245.84

>  <contains_sugar>  (534) 
False

>  <contains_ring_sugars>  (534) 
False

>  <contains_linear_sugars>  (534) 
False

>  <murcko_framework>  (534) 
O(CC=Cc1ccccc1)C2CCCC2

>  <np_likeness>  (534) 
2.09

>  <chemical_class>  (534) 
Cinnamic acids and derivatives

>  <chemical_sub_class>  (534) 
Hydroxycinnamic acids and derivatives

>  <chemical_super_class>  (534) 
Phenylpropanoids and polyketides

>  <direct_parent_classification>  (534) 
Hydroxycinnamic acids

>  <np_classifier_pathway>  (534) 
Shikimates and Phenylpropanoids

>  <np_classifier_superclass>  (534) 
Phenylpropanoids (C6-C3)

>  <np_classifier_class>  (534) 
Cinnamic acids and derivatives

>  <np_classifier_is_glycoside>  (534) 
False

>  <organisms>  (534) 
Chimarrhis turbinata|Elsholtzia ciliata

>  <collections>  (534) 
ChemSpider NPs|Latin America dataset|NPASS|NuBBEDB|Super Natural II|WikiData Natural Products|ZINC NP

>  <dois>  (534) 
10.1021/NP050522Y|10.1021/acs.jnatprod.0c00756|10.1021/np050522y

>  <synonyms>  (534) 
1-(3'4'-Dihydroxycinnamoyl)cyclopentane-23-diol|CHEMBL4755918|InChI=1\/C14H16O6\/c15-9-3-1-8(7-11(9)17)2-6-13(18)20-12-5-4-10(16)14(12)19\/h1-3,6-7,10,12,14-17,19H,4-5H2\/b6-2+\/t10-,12+,14-\/m1\/s1|RXKJUJBLHWQKCA-FXLMWSCQSA-

>  <cas>  (534) 
nan

$$$$

     RDKit          2D

  7  6  0  0  0  0  0  0  0  0999 V2000
   -3.8971   -0.3214    0.0000 C   0  0  0  0  0  0  0  0  0  0  0  0
   -2.5981    0.4286    0.0000 C   0  0  0  0  0  0  0  0  0  0  0  0
   -1.2990   -0.3214    0.0000 C   0  0  0  0  0  0  0  0  0  0  0  0
    0.0000    0.4286    0.0000 C   0  0  0  0  0  0  0  0  0  0  0  0
    1.2990   -0.3214    0.0000 C   0  0  0  0  0  0  0  0  0  0  0  0
    2.5981    0.4286    0.0000 C   0  0  0  0  0  0  0  0  0  0  0  0
    3.8971   -0.3214    0.0000 O   0  0  0  0  0  0  0  0  0  0  0  0
  1  2  1  0
  2  3  1  0
  3  4  1  0
  4  5  2  0
  5  6  1  0
  6  7  2  0
M  END
>  <identifier>  (535) 
CNP0263913.1

>  <canonical_smiles>  (535) 
CCC/C=C/C=O

>  <standard_inchi>  (535) 
InChI=1S/C6H10O/c1-2-3-4-5-6-7/h4-6H,2-3H2,1H3/b5-4+

>  <standard_inchi_key>  (535) 
MBDOYVRWFFCFHM-SNAWJCMRSA-N

>  <name>  (535) 
nan

>  <iupac_name>  (535) 
nan

>  <annotation_level>  (535) 
0

>  <total_atom_count>  (535) 
17

>  <heavy_atom_count>  (535) 
7

>  <molecular_weight>  (535) 
98.14

>  <exact_molecular_weight>  (535) 
98.07316

>  <molecular_formula>  (535) 
C6H10O

>  <alogp>  (535) 
1.54

>  <topological_polar_surface_area>  (535) 
17.07

>  <rotatable_bond_count>  (535) 
3

>  <hydrogen_bond_acceptors>  (535) 
1

>  <hydrogen_bond_donors>  (535) 
0

>  <hydrogen_bond_acceptors_lipinski>  (535) 
1

>  <hydrogen_bond_donors_lipinski>  (535) 
0

>  <lipinski_rule_of_five_violations>  (535) 
0

>  <aromatic_rings_count>  (535) 
0

>  <qed_drug_likeliness>  (535) 
0.39

>  <formal_charge>  (535) 
0

>  <fractioncsp3>  (535) 
0.50

>  <number_of_minimal_rings>  (535) 
0

>  <van_der_walls_volume>  (535) 
109.50

>  <contains_sugar>  (535) 
False

>  <contains_ring_sugars>  (535) 
False

>  <contains_linear_sugars>  (535) 
False

>  <murcko_framework>  (535) 
nan

>  <np_likeness>  (535) 
2.46

>  <chemical_class>  (535) 
nan

>  <chemical_sub_class>  (535) 
nan

>  <chemical_super_class>  (535) 
nan

>  <direct_parent_classification>  (535) 
nan

>  <np_classifier_pathway>  (535) 
Fatty acids

>  <np_classifier_superclass>  (535) 
Fatty acyls

>  <np_classifier_class>  (535) 
Fatty aldehydes

>  <np_classifier_is_glycoside>  (535) 
False

>  <organisms>  (535) 
Aca sellowiana|Acacia mearnsii|Aconitum kamtschaticum|Aconitum vilmorinianum|Actinidia kolomikta|Aethus indicus|Ageratum conyzoides|Aiouea costaricensis|Aloe africana|Aloe arborescens var. natalensis|Aloe ferox|Aloe spicata|Aloe vera|Amaranthus retroflexus|Amyris marshii|Angelica acutiloba|Angelica gigas|Angelica sinensis|Annona muricata|Arabidopsis thaliana|Arachis hypogaea|Arctium lappa|Aristolochia debilis|Artemisia annua|Artemisia annua L.|Artemisia apiacea|Artemisia argyi|Artemisia capillaris|Artemisia montana|Artemisia princeps|Atractylodes lancea|Atractylodes macrocephala|Basella alba|Beilschmiedia pendula|Boronella koniambiensis|Brachyspira hyodysenteriae|Brassica hirta|Brevibacillus laterosporus|Camellia sinensis|Canarium strictum|Capillipedium parviflorum|Capparis spinosa|Capsicum annuum|Carica papaya|Cedrus deodara|Ceratophyllum demersum|Chaenomeles sinensis|Citrus Sinensis|Citrus limonia|Citrus sinensis L.|Clinopodium congestum|Coelogorgia palmosa|Coreopsis grandiflora|Crateva religiosa|Crocus sativus|Dendrobium fimbriatum var. oculatum|Dianthus caryophyllus L.|Dipteronia dyeriana|Dodonaea polyandra|Echinophora tenuifolia|Ectropis bicolor|Elsholtzia ciliata|Erinaceus europaeus|Esox saurus|Eucalyptus anceps|Eucheuma muricatum|Euploea sylvester|Farfugium japonicum|Ficus carica|Flos mume|Foeniculum vulgare|Fragaria|Fragaria x ananassa|Garcinia macrophylla|Gonioctena viminalis|Gouania microcarpa|Gymnanthemum amygdalinum|Homo sapiens|Houttuynia cordata|Humulus lupulus|Hypericum perforatum|Juniperus communis|Leucopaxillus giganteus|Lippia Myriocephala|Lobelia chinensis|Lonicera japonica|Lycopersicon Esculentum|Lycopersicon esculentum Mill.|Maytenus loeseneri|Maytenus serrata|Medicago sativa|Mentha arvensis|Mentha canadensis|Micromeria maderensis|Monomorium floricola|Mosla chinensis|Murraya kwangsiensis|Murraya paniculata|Nectandra salicina|Nelumbo nucifera|Nepeta racemosa|Nicotiana tabacum|Ocotea austinii|Ocotea sinuata|Odontites rubra|Olea Europaea|Olea europaea|Ongokea klaineana|Ophioparma ventosa|Ophiorrhiza blumeana|Origanum sipyleum|Origanum vulgare|Orthosiphon aristatus|Orthosiphon grandiflorus|Perilla frutescens|Peristeria elata|Peucedanum palustre|Phalaenopsis aphrodite|Physalis solanaceus|Pimenta racemosa|Piper augustum|Plectranthus mollis|Podachaenium eminens|Podocarpus salignus|Prosopis ruscifolia|Prunus armeniaca|Prunus armeniaca l. var. ansu maxim.|Prunus armeniaca var. ansu|Prunus avium|Prunus mandshurica|Prunus sibirica|Psidium friedrichsthalianum|Psidium guajava|Psychotria bahiensis|Punica granatum|Quercus agrifolia|Rhodomicrobium vannielii|Riptortus pedestris|Robinia pseudoacacia|Ruellia tuberosa|Rusavskia elegans|Salvia sclarea|Saposhnikovia divaricata|Satureja wiedemanniana|Schistostephium rotundifolium|Scutellaria barbata|Sideritis dichotoma|Sideritis syriaca|Siphocampylus verticillatus|Smallanthus maculatus|Sraitia grosvenorii|Streptomyces fervens|Streptomyces lavendulae|Talaromyces coalescens|Teucrium polium subsp. polium|Teucrium pseudoscorodonia|Teucrium scorodonia L. subsp. baeticum|Thea sinensis|Thymus longicaulis|Trifolium subterraneum|Usnea florida|Vaccinium myrtillus|Vepris pilosa|Veratrum stenophyllum|Viburnum chingii|Zanthoxylum chiriquinum|Zea mays|basil|pomegranate|potato|solanum betaceum|soybean|tomato

>  <collections>  (535) 
ANPDB|Australian natural products|CMAUP (cCollective molecular activities of useful plants)|FooDB|KNApSaCK|Latin America dataset|NANPDB (Natural Products from Northern African Sources)|NAPRORE-CR|NPASS|NPDBEjeCol|NPEdia|NuBBEDB|Phyto4Health|Super Natural II|TCMDB-Taiwan (Traditional Chinese Medicine database)|TIPdb (database of Taiwan indigenous plants)|VietHerb|WikiData Natural Products

>  <dois>  (535) 
10.1002/(sici)1099-1026(199711/12)12:6<433::aid-ffj668>3.0.co;2-r|10.1002/CBDV.201400340|10.1002/FFJ.1248|10.1002/FFJ.1588|10.1002/FFJ.1804|10.1002/FFJ.2730040206|10.1002/FFJ.2730100313|10.1002/JSFA.8889|10.1002/JSFA.9972|10.1002/PCA.2778|10.1007/BF01940454|10.1007/S10886-013-0311-2|10.1016/0889-1575(91)90017-Z|10.1016/J.APJTM.2017.07.004|10.1016/J.CHROMA.2004.03.057|10.1016/J.CHROMA.2006.08.080|10.1016/J.CHROMA.2014.10.058|10.1016/J.FOODCHEM.2007.07.062|10.1016/J.FOODCHEM.2010.08.043|10.1016/J.FOODCHEM.2013.11.092|10.1016/J.FOODRES.2010.03.001|10.1016/J.IJFOODMICRO.2008.10.017|10.1016/J.INDCROP.2011.07.024|10.1016/J.INDCROP.2012.02.029|10.1016/J.INDCROP.2014.04.048|10.1016/J.JFCA.2018.09.004|10.1016/J.JMB.2009.07.023|10.1016/J.PHYTOCHEM.2004.04.003|10.1016/J.PHYTOCHEM.2011.09.002|10.1016/S0031-6865(97)00023-X|10.1016/S0031-9422(00)84047-9|10.1016/S0031-9422(97)00119-2|10.1016/S0031-9422(97)00730-9|10.1016/j.foodchem.2020.127109|10.1016/j.lwt.2023.115213|10.1016/s0031-9422(99)00254-x|10.1021/JF00086A050|10.1021/JF902669D|10.1021/NP50052A041|10.1021/jf00121a024|10.1021/jf011456i|10.1055/S-2007-969136|10.1076/PHBI.35.3.218.13295|10.1080/10412905.1991.9697952|10.1080/10412905.1991.9697971|10.1080/10412905.1992.9698035|10.1080/10412905.1992.9698106|10.1080/10412905.1992.9698149|10.1080/10412905.1993.9698184|10.1080/10412905.1993.9698205|10.1080/10412905.1993.9698222|10.1080/10412905.1993.9698253|10.1080/10412905.1995.9698473|10.1080/10412905.2000.9699486|10.1080/10412905.2004.9698688|10.1080/10412905.2004.9698740|10.1080/10412905.2004.9698744|10.1080/10412905.2007.9699946|10.1080/10412905.2010.9700320|10.1080/10412905.2010.9700389|10.1080/10412905.2018.1431966|10.1080/10942912.2016.1155057|10.1080/14786419.2014.983504|10.1088/1752-7155/8/1/014001|10.1248/YAKUSHI1947.83.4_422|10.1271/BBB.56.1004|10.1271/NOGEIKAGAKU1924.59.389|10.1515/ZNB-1961-0704|10.1515/ZNC-1984-3-422|10.1515/ZNC-1988-1-219|10.1590/S0100-40422002000700009|10.1590/S0100-40422009000200028|10.3390/MOLECULES18021368|10.3390/MOLECULES200610298|10.3390/MOLECULES23102677|10.5897/jmpr2015.5951|10.7235/HORT.2013.12200

>  <synonyms>  (535) 
(2E)-hexenol|(E)-2-hexenal

>  <cas>  (535) 
nan

$$$$

     RDKit          2D

 27 31  0  0  0  0  0  0  0  0999 V2000
    8.4844   -0.9638    0.0000 C   0  0  0  0  0  0  0  0  0  0  0  0
    7.4948    0.1635    0.0000 O   0  0  0  0  0  0  0  0  0  0  0  0
    6.0238   -0.1299    0.0000 C   0  0  0  0  0  0  0  0  0  0  0  0
    5.5423   -1.5506    0.0000 C   0  0  0  0  0  0  0  0  0  0  0  0
    4.0713   -1.8439    0.0000 C   0  0  0  0  0  0  0  0  0  0  0  0
    3.0817   -0.7167    0.0000 C   0  0  0  0  0  0  0  0  0  0  0  0
    1.6107   -1.0101    0.0000 C   0  0  0  0  0  0  0  0  0  0  0  0
    0.9834   -2.3726    0.0000 O   0  0  0  0  0  0  0  0  0  0  0  0
   -0.5063   -2.1971    0.0000 C   0  0  0  0  0  0  0  0  0  0  0  0
   -0.7997   -0.7260    0.0000 C   0  0  0  0  0  0  0  0  0  0  0  0
    0.5087    0.0076    0.0000 C   0  0  0  0  0  0  0  0  0  0  0  0
    0.2153    1.4786    0.0000 C   0  0  0  0  0  0  0  0  0  0  0  0
   -1.2744    1.6541    0.0000 O   0  0  0  0  0  0  0  0  0  0  0  0
   -1.9017    0.2916    0.0000 C   0  0  0  0  0  0  0  0  0  0  0  0
   -3.3727   -0.0018    0.0000 C   0  0  0  0  0  0  0  0  0  0  0  0
   -3.8542   -1.4224    0.0000 C   0  0  0  0  0  0  0  0  0  0  0  0
   -5.3252   -1.7158    0.0000 C   0  0  0  0  0  0  0  0  0  0  0  0
   -6.3148   -0.5886    0.0000 C   0  0  0  0  0  0  0  0  0  0  0  0
   -7.8147   -0.5697    0.0000 O   0  0  0  0  0  0  0  0  0  0  0  0
   -8.2602    0.8626    0.0000 C   0  0  0  0  0  0  0  0  0  0  0  0
   -7.0357    1.7290    0.0000 O   0  0  0  0  0  0  0  0  0  0  0  0
   -5.8333    0.8321    0.0000 C   0  0  0  0  0  0  0  0  0  0  0  0
   -4.3623    1.1255    0.0000 C   0  0  0  0  0  0  0  0  0  0  0  0
    3.5631    0.7039    0.0000 C   0  0  0  0  0  0  0  0  0  0  0  0
    5.0342    0.9973    0.0000 C   0  0  0  0  0  0  0  0  0  0  0  0
    5.5156    2.4180    0.0000 O   0  0  0  0  0  0  0  0  0  0  0  0
    4.5260    3.5452    0.0000 C   0  0  0  0  0  0  0  0  0  0  0  0
  1  2  1  0
  2  3  1  0
  3  4  2  0
  4  5  1  0
  5  6  2  0
  7  6  1  1
  7  8  1  0
  8  9  1  0
 10  9  1  6
 10 11  1  0
 11 12  1  6
 12 13  1  0
 13 14  1  0
 14 15  1  1
 15 16  2  0
 16 17  1  0
 17 18  2  0
 18 19  1  0
 19 20  1  0
 20 21  1  0
 21 22  1  0
 22 23  2  0
  6 24  1  0
 24 25  2  0
 25 26  1  0
 26 27  1  0
 25  3  1  0
 11  7  1  0
 23 15  1  0
 14 10  1  0
 22 18  1  0
M  END
>  <identifier>  (536) 
CNP0140264.1

>  <canonical_smiles>  (536) 
COC1=CC=C([C@H]2OC[C@H]3[C@@H]2CO[C@@H]3C2=CC=C3OCOC3=C2)C=C1OC

>  <standard_inchi>  (536) 
InChI=1S/C21H22O6/c1-22-16-5-3-12(7-18(16)23-2)20-14-9-25-21(15(14)10-24-20)13-4-6-17-19(8-13)27-11-26-17/h3-8,14-15,20-21H,9-11H2,1-2H3/t14-,15-,20+,21+/m0/s1

>  <standard_inchi_key>  (536) 
AWOGQCSIVCQXBT-VUEDXXQZSA-N

>  <name>  (536) 
kobusin

>  <iupac_name>  (536) 
5-[(3~{S},3~{a}~{R},6~{S},6~{a}~{R})-6-(3,4-dimethoxyphenyl)-1,3,3~{a},4,6,6~{a}-hexahydrofuro[3,4-c]furan-3-yl]-1,3-benzodioxole

>  <annotation_level>  (536) 
5

>  <total_atom_count>  (536) 
49

>  <heavy_atom_count>  (536) 
27

>  <molecular_weight>  (536) 
370.4

>  <exact_molecular_weight>  (536) 
370.14164

>  <molecular_formula>  (536) 
C21H22O6

>  <alogp>  (536) 
3.51

>  <topological_polar_surface_area>  (536) 
55.38

>  <rotatable_bond_count>  (536) 
4

>  <hydrogen_bond_acceptors>  (536) 
6

>  <hydrogen_bond_donors>  (536) 
0

>  <hydrogen_bond_acceptors_lipinski>  (536) 
6

>  <hydrogen_bond_donors_lipinski>  (536) 
0

>  <lipinski_rule_of_five_violations>  (536) 
0

>  <aromatic_rings_count>  (536) 
2

>  <qed_drug_likeliness>  (536) 
0.82

>  <formal_charge>  (536) 
0

>  <fractioncsp3>  (536) 
0.43

>  <number_of_minimal_rings>  (536) 
5

>  <van_der_walls_volume>  (536) 
321.76

>  <contains_sugar>  (536) 
False

>  <contains_ring_sugars>  (536) 
False

>  <contains_linear_sugars>  (536) 
False

>  <murcko_framework>  (536) 
O1c2ccc(cc2OC1)C3OCC4C(OCC34)c5ccccc5

>  <np_likeness>  (536) 
0.75

>  <chemical_class>  (536) 
Furanoid lignans

>  <chemical_sub_class>  (536) 
Furan lignans

>  <chemical_super_class>  (536) 
Lignans, neolignans and related compounds

>  <direct_parent_classification>  (536) 
Furan lignans

>  <np_classifier_pathway>  (536) 
Shikimates and Phenylpropanoids

>  <np_classifier_superclass>  (536) 
Lignans

>  <np_classifier_class>  (536) 
Furofuranoid lignans

>  <np_classifier_is_glycoside>  (536) 
False

>  <organisms>  (536) 
Achillea holosericea|Achillea lingulata|Aiouea trinervis|Apis cerana|Aptosimum spinescens|Aristolochia elegans|Aristolochia gehrtii|Aristolochia gigantea|Aristolochia littoralis|Artemisia absinthium|Artemisia arborescens|Artemisia argentea|Artemisia gorgonum|Cleome gynandra|Dittrichia viscosa|Eperua bijuga|Esenbeckia leiocarpa|Eurhynchium striatum|Fleischmannia multinervis|Geranium lambertii|Geranium platyanthum|Geranium thunbergii|Gynura japonica|Hyphaene thebaica|Leucophyllum ambiguum|Machilus wangchiana|Magnolia biondii|Magnolia denudata|Magnolia fargesii CHENG|Magnolia kobus|Magnolia kobus var. borealis|Magnolia praecocissima|Magnolia salicifolia|Magnolia sprengeri|Magnolia stellata|Melicope hayesii|Microcos paniculata|Palythoa variabilis|Pandanus Odoratissimus|Pandanus boninensis|Pandanus odoratissimus|Pandanus odorifer|Pandanus tectorius|Penaeus bennettae|Pestalotiopsis adusta|Phelline brachyphylla|Phyllodium pulchellum|Pithomyces graminicola|Podocarpus brevifolius|Polygala gazensis|Quassia amara|Raulinoa echinata|Samadera bidwillii|Sassafras albidum|Schoenocaulon officinale|Scomber japonicus|Sticta coronata|Strychnos psilosperma|Teucrium viscidum|Usnea dasopoga|Virola flexuosa|Virola sebifera|Virola venosa|Zanthoxylum acuminatum|Zanthoxylum armatum|Zanthoxylum culantrillo|Zanthoxylum rhetsa|Zanthoxylum simulans|Zanthoxylum valens|sesame

>  <collections>  (536) 
AnalytiCon Discovery NPs|Australian natural products|BIOFACQUIM|CMAUP (cCollective molecular activities of useful plants)|ChEBI NPs|ChemSpider NPs|KNApSaCK|Latin America dataset|NAPRORE-CR|NPASS|NPEdia|NuBBEDB|Super Natural II|TCMDB-Taiwan (Traditional Chinese Medicine database)|TIPdb (database of Taiwan indigenous plants)|VietHerb|WikiData Natural Products

>  <dois>  (536) 
10.1002/1099-1565(200101/02)12:1<64::AID-PCA562>3.0.CO,2-3|10.1002/1099-1565(200101/02)12:1<64::AID-PCA562>3.0.CO;2-3|10.1002/CHIN.199005299|10.1002/CHIN.200533260|10.1002/JSSC.200700098|10.1002/jssc.200700098|10.1007/BF02969300|10.1016/0031-9422(81)80056-8|10.1016/0031-9422(91)83055-P|10.1016/0040-4020(80)88051-3|10.1016/J.BMC.2003.10.031|10.1016/J.JEP.2011.09.039|10.1016/J.JEP.2013.12.039|10.1016/J.PHYTOCHEM.2005.08.019|10.1016/S0031-9422(00)80091-6|10.1016/S0031-9422(00)81816-6|10.1016/S0031-9422(00)82577-7|10.1016/S0031-9422(01)00442-3|10.1016/S0031-9422(96)00708-X|10.1016/S0031-9422(96)00720-0|10.1016/S0031-9422(97)00747-4|10.1016/S0031-9422(98)00390-2|10.1016/S0031-9422(98)00720-1|10.1016/j.jep.2011.09.039|10.1016/j.jep.2013.12.039|10.1016/s0031-9422(96)00720-0|10.1016/s0031-9422(98)00720-1|10.1021/ACS.JNATPROD.9B00759|10.1021/NP020346I|10.1021/NP049599X|10.1021/NP900504A|10.1021/NP9702953|10.1021/np020346i|10.1055/S-2005-871251|10.1248/CPB.50.541|10.1248/CPB.53.235|10.1248/CPB.55.137|10.1590/S0103-50532001000400004|10.2298/JSC0305277T|10.3109/13880209509088142|10.32861/JBR.66.57.61|10.3390/MOLECULES15129462|10.3390/MOLECULES18011262|10.3390/MOLECULES21060652|10.3390/molecules15129462|10.3390/molecules18011262|10.3390/molecules21060652|10.4238/2014.FEBRUARY.19.8|10.4238/2014.February.19.8

>  <synonyms>  (536) 
(+)-Demethoxyaschantin|(+)-Kobusin|(+)-METHYLPIPERITOL|(+)-Spinescin|(3abeta,6abeta)-1beta-(3,4-Dimethoxyphenyl)-4beta-(1,3-benzodioxole-5-yl)tetrahydro-1H,3H-furo[3,4-c]furan|1,3-BENZODIOXOLE, 5-((1S,3AR,4S,6AR)-4-(3,4-DIMETHOXYPHENYL)TETRAHYDRO-1H,3H-FURO(3,4-C)FURAN-1-YL)-|2'-methoxy4''-hydroxydemethoxykobusin|36150-23-9|5-((1S,3AR,4S,6AR)-4-(3,4-DIMETHOXYPHENYL)TETRAHYDRO-1H,3H-FURO(3,4-C)FURAN-1-YL)-1,3-BENZODIOXOLE|5-((1S,3aR,4S,6aR)-4-(3,4-Dimethoxyphenyl)tetrahydro-1H,3H-furo[3,4-c]furan-1-yl)benzo[d][1,3]dioxole|5-[(1S,3aR,4S,6aR)-4-(3,4-dimethoxyphenyl)-hexahydrofuro[3,4-c]furan-1-yl]-2H-1,3-benzodioxole|5-[(3S,3aR,6S,6aR)-6-(3,4-dimethoxyphenyl)-1,3,3a,4,6,6a-hexahydrofuro[3,4-c]furan-3-yl]-1,3-benzodioxole|ACon1_001273|AKOS040760503|C17844|CHEBI:133905|CHEMBL462822|CS-0032366|CUR4HUP6JQ|DTXSID00189723|FS-6874|HY-N5101|Kobusin|MEGxp0_001295|Methylpiperitol|NCGC00169511-01|Rel-(7S7S8R8R)-methylpiperitol, (+)-kubosin|SCHEMBL17999860|UNII-CUR4HUP6JQ|spinescin

>  <cas>  (536) 
36150-23-9

$$$$

     RDKit          2D

 22 23  0  0  0  0  0  0  0  0999 V2000
   -7.4109    0.2625    0.0000 C   0  0  0  0  0  0  0  0  0  0  0  0
   -6.2220   -0.6521    0.0000 O   0  0  0  0  0  0  0  0  0  0  0  0
   -4.8354   -0.0797    0.0000 C   0  0  0  0  0  0  0  0  0  0  0  0
   -4.6379    1.4072    0.0000 C   0  0  0  0  0  0  0  0  0  0  0  0
   -3.2514    1.9796    0.0000 C   0  0  0  0  0  0  0  0  0  0  0  0
   -2.0624    1.0650    0.0000 C   0  0  0  0  0  0  0  0  0  0  0  0
   -0.6759    1.6374    0.0000 C   0  0  0  0  0  0  0  0  0  0  0  0
    0.5130    0.7228    0.0000 C   0  0  0  0  0  0  0  0  0  0  0  0
    1.8995    1.2952    0.0000 C   0  0  0  0  0  0  0  0  0  0  0  0
    2.0971    2.7821    0.0000 O   0  0  0  0  0  0  0  0  0  0  0  0
    3.0884    0.3806    0.0000 C   0  0  0  0  0  0  0  0  0  0  0  0
    2.8909   -1.1063    0.0000 C   0  0  0  0  0  0  0  0  0  0  0  0
    4.0798   -2.0209    0.0000 C   0  0  0  0  0  0  0  0  0  0  0  0
    5.4663   -1.4485    0.0000 C   0  0  0  0  0  0  0  0  0  0  0  0
    6.6553   -2.3631    0.0000 O   0  0  0  0  0  0  0  0  0  0  0  0
    5.6639    0.0384    0.0000 C   0  0  0  0  0  0  0  0  0  0  0  0
    4.4750    0.9530    0.0000 C   0  0  0  0  0  0  0  0  0  0  0  0
    4.6725    2.4399    0.0000 O   0  0  0  0  0  0  0  0  0  0  0  0
   -2.2600   -0.4219    0.0000 C   0  0  0  0  0  0  0  0  0  0  0  0
   -3.6465   -0.9943    0.0000 C   0  0  0  0  0  0  0  0  0  0  0  0
   -3.8441   -2.4812    0.0000 O   0  0  0  0  0  0  0  0  0  0  0  0
   -2.6551   -3.3958    0.0000 C   0  0  0  0  0  0  0  0  0  0  0  0
  1  2  1  0
  2  3  1  0
  3  4  2  0
  4  5  1  0
  5  6  2  0
  6  7  1  0
  7  8  2  0
  8  9  1  0
  9 10  2  0
  9 11  1  0
 11 12  2  0
 12 13  1  0
 13 14  2  0
 14 15  1  0
 14 16  1  0
 16 17  2  0
 17 18  1  0
  6 19  1  0
 19 20  2  0
 20 21  1  0
 21 22  1  0
 20  3  1  0
 17 11  1  0
M  END
>  <identifier>  (537) 
CNP0282736.1

>  <canonical_smiles>  (537) 
COC1=CC=C(/C=C/C(=O)C2=CC=C(O)C=C2O)C=C1OC

>  <standard_inchi>  (537) 
InChI=1S/C17H16O5/c1-21-16-8-4-11(9-17(16)22-2)3-7-14(19)13-6-5-12(18)10-15(13)20/h3-10,18,20H,1-2H3/b7-3+

>  <standard_inchi_key>  (537) 
ZMMIEHPFMMRMMN-XVNBXDOJSA-N

>  <name>  (537) 
nan

>  <iupac_name>  (537) 
nan

>  <annotation_level>  (537) 
0

>  <total_atom_count>  (537) 
38

>  <heavy_atom_count>  (537) 
22

>  <molecular_weight>  (537) 
300.31

>  <exact_molecular_weight>  (537) 
300.09977

>  <molecular_formula>  (537) 
C17H16O5

>  <alogp>  (537) 
3.01

>  <topological_polar_surface_area>  (537) 
75.99

>  <rotatable_bond_count>  (537) 
5

>  <hydrogen_bond_acceptors>  (537) 
5

>  <hydrogen_bond_donors>  (537) 
2

>  <hydrogen_bond_acceptors_lipinski>  (537) 
5

>  <hydrogen_bond_donors_lipinski>  (537) 
2

>  <lipinski_rule_of_five_violations>  (537) 
0

>  <aromatic_rings_count>  (537) 
2

>  <qed_drug_likeliness>  (537) 
0.66

>  <formal_charge>  (537) 
0

>  <fractioncsp3>  (537) 
0.12

>  <number_of_minimal_rings>  (537) 
2

>  <van_der_walls_volume>  (537) 
267.96

>  <contains_sugar>  (537) 
False

>  <contains_ring_sugars>  (537) 
False

>  <contains_linear_sugars>  (537) 
False

>  <murcko_framework>  (537) 
c1ccc(cc1)C=CCc2ccccc2

>  <np_likeness>  (537) 
0.58

>  <chemical_class>  (537) 
nan

>  <chemical_sub_class>  (537) 
nan

>  <chemical_super_class>  (537) 
nan

>  <direct_parent_classification>  (537) 
nan

>  <np_classifier_pathway>  (537) 
Shikimates and Phenylpropanoids

>  <np_classifier_superclass>  (537) 
Flavonoids

>  <np_classifier_class>  (537) 
Chalcones

>  <np_classifier_is_glycoside>  (537) 
False

>  <organisms>  (537) 
Astragalus laxmannii|Iryanthera polyneura|Leguminosae|Pongamia pinnata

>  <collections>  (537) 
InflamNat|KNApSaCK|Latin America dataset|NPEdia|NuBBEDB|Super Natural II|WikiData Natural Products|ZINC NP

>  <dois>  (537) 
10.1016/J.FOODCHEM.2011.09.021|10.1016/J.PHYTOCHEM.2018.02.005|10.1016/S0031-9422(00)91467-5|10.1016/j.phytochem.2018.02.005

>  <synonyms>  (537) 
nan

>  <cas>  (537) 
nan

$$$$

     RDKit          2D

 23 26  0  0  0  0  0  0  0  0999 V2000
   -1.3670    2.6831    0.0000 C   0  0  0  0  0  0  0  0  0  0  0  0
   -0.1335    1.8296    0.0000 C   0  0  0  0  0  0  0  0  0  0  0  0
   -0.2559    0.3346    0.0000 C   0  0  0  0  0  0  0  0  0  0  0  0
    1.6406   -0.2945    0.0000 C   0  0  0  0  0  0  0  0  0  0  0  0
    3.4820    1.7824    0.0000 C   0  0  0  0  0  0  0  0  0  0  0  0
    3.9783    0.3669    0.0000 C   0  0  0  0  0  0  0  0  0  0  0  0
    2.7854   -0.5425    0.0000 N   0  0  0  0  0  0  0  0  0  0  0  0
    2.3548   -1.9794    0.0000 C   0  0  0  0  0  0  0  0  0  0  0  0
    1.6419   -3.3102    0.0000 C   0  0  0  0  0  0  0  0  0  0  0  0
    0.1469   -3.1878    0.0000 C   0  0  0  0  0  0  0  0  0  0  0  0
   -0.4946   -1.8319    0.0000 C   0  0  0  0  0  0  0  0  0  0  0  0
   -1.9896   -1.7095    0.0000 C   0  0  0  0  0  0  0  0  0  0  0  0
   -2.6310   -0.3535    0.0000 N   0  0  0  0  0  0  0  0  0  0  0  0
   -4.1260   -0.2311    0.0000 C   0  0  0  0  0  0  0  0  0  0  0  0
   -4.7675    1.1248    0.0000 C   0  0  0  0  0  0  0  0  0  0  0  0
   -4.9796   -1.4646    0.0000 O   0  0  0  0  0  0  0  0  0  0  0  0
    0.3589   -0.5984    0.0000 C   0  0  0  0  0  0  0  0  0  0  0  0
    0.8552   -2.0139    0.0000 N   0  0  0  0  0  0  0  0  0  0  0  0
    1.5519    0.3110    0.0000 C   0  0  0  0  0  0  0  0  0  0  0  0
    0.3184    1.1645    0.0000 C   0  0  0  0  0  0  0  0  0  0  0  0
    0.4408    2.6595    0.0000 C   0  0  0  0  0  0  0  0  0  0  0  0
   -0.7927    3.5130    0.0000 C   0  0  0  0  0  0  0  0  0  0  0  0
    1.9824    1.7479    0.0000 C   0  0  0  0  0  0  0  0  0  0  0  0
  1  2  2  0
  2  3  1  0
  3  4  1  0
  4  5  1  0
  5  6  1  0
  6  7  1  0
  7  8  1  0
  8  9  1  0
  9 10  1  0
 10 11  1  0
 11 12  2  0
 12 13  1  0
 13 14  1  0
 14 15  1  0
 14 16  2  0
 11 17  1  0
 17 18  1  0
 17 19  1  0
 19 20  1  0
 20 21  1  0
 21 22  2  0
 19 23  1  0
 18  4  1  0
 23  5  1  0
 19  7  1  0
 18  8  1  0
M  END
>  <identifier>  (538) 
CNP0080544.2

>  <canonical_smiles>  (538) 
C=CCC1C2CN3C4CC/C(=C/NC(C)=O)C(N14)C3(CC=C)C2

>  <standard_inchi>  (538) 
InChI=1S/C19H27N3O/c1-4-6-16-15-10-19(9-5-2)18-14(11-20-13(3)23)7-8-17(22(16)18)21(19)12-15/h4-5,11,15-18H,1-2,6-10,12H2,3H3,(H,20,23)/b14-11-

>  <standard_inchi_key>  (538) 
DHXWKUGKNLHLGA-KAMYIIQDSA-N

>  <name>  (538) 
nan

>  <iupac_name>  (538) 
nan

>  <annotation_level>  (538) 
0

>  <total_atom_count>  (538) 
50

>  <heavy_atom_count>  (538) 
23

>  <molecular_weight>  (538) 
313.45

>  <exact_molecular_weight>  (538) 
313.21541

>  <molecular_formula>  (538) 
C19H27N3O

>  <alogp>  (538) 
2.41

>  <topological_polar_surface_area>  (538) 
35.58

>  <rotatable_bond_count>  (538) 
5

>  <hydrogen_bond_acceptors>  (538) 
3

>  <hydrogen_bond_donors>  (538) 
1

>  <hydrogen_bond_acceptors_lipinski>  (538) 
3

>  <hydrogen_bond_donors_lipinski>  (538) 
1

>  <lipinski_rule_of_five_violations>  (538) 
0

>  <aromatic_rings_count>  (538) 
0

>  <qed_drug_likeliness>  (538) 
0.79

>  <formal_charge>  (538) 
0

>  <fractioncsp3>  (538) 
0.63

>  <number_of_minimal_rings>  (538) 
5

>  <van_der_walls_volume>  (538) 
306.19

>  <contains_sugar>  (538) 
False

>  <contains_ring_sugars>  (538) 
False

>  <contains_linear_sugars>  (538) 
False

>  <murcko_framework>  (538) 
N12CC3CN4C1CCCC2C4C3

>  <np_likeness>  (538) 
1.06

>  <chemical_class>  (538) 
nan

>  <chemical_sub_class>  (538) 
nan

>  <chemical_super_class>  (538) 
nan

>  <direct_parent_classification>  (538) 
nan

>  <np_classifier_pathway>  (538) 
Alkaloids

>  <np_classifier_superclass>  (538) 
Lysine alkaloids

>  <np_classifier_class>  (538) 
Quinolizidine alkaloids

>  <np_classifier_is_glycoside>  (538) 
False

>  <organisms>  (538) 
Acosmium dasycarpum|Leptolobium dasycarpum

>  <collections>  (538) 
Latin America dataset|NuBBEDB|WikiData Natural Products

>  <dois>  (538) 
10.1016/J.TETLET.2008.06.124|10.1016/j.tetlet.2008.06.124

>  <synonyms>  (538) 
nan

>  <cas>  (538) 
nan

$$$$

     RDKit          2D

 15 16  0  0  0  0  0  0  0  0999 V2000
   -3.9518    2.1962    0.0000 C   0  0  0  0  0  0  0  0  0  0  0  0
   -3.5832    0.7422    0.0000 O   0  0  0  0  0  0  0  0  0  0  0  0
   -2.1397    0.3344    0.0000 C   0  0  0  0  0  0  0  0  0  0  0  0
   -1.0648    1.3807    0.0000 C   0  0  0  0  0  0  0  0  0  0  0  0
    0.3787    0.9729    0.0000 C   0  0  0  0  0  0  0  0  0  0  0  0
    0.7474   -0.4811    0.0000 C   0  0  0  0  0  0  0  0  0  0  0  0
    2.1909   -0.8889    0.0000 O   0  0  0  0  0  0  0  0  0  0  0  0
    3.2658    0.1574    0.0000 C   0  0  0  0  0  0  0  0  0  0  0  0
    4.7093   -0.2504    0.0000 O   0  0  0  0  0  0  0  0  0  0  0  0
    2.8971    1.6114    0.0000 C   0  0  0  0  0  0  0  0  0  0  0  0
    1.4536    2.0191    0.0000 C   0  0  0  0  0  0  0  0  0  0  0  0
   -0.3275   -1.5273    0.0000 C   0  0  0  0  0  0  0  0  0  0  0  0
    0.0411   -2.9813    0.0000 O   0  0  0  0  0  0  0  0  0  0  0  0
   -1.7710   -1.1196    0.0000 C   0  0  0  0  0  0  0  0  0  0  0  0
   -2.8459   -2.1658    0.0000 O   0  0  0  0  0  0  0  0  0  0  0  0
  1  2  1  0
  2  3  1  0
  3  4  2  0
  4  5  1  0
  5  6  2  0
  6  7  1  0
  7  8  1  0
  8  9  2  0
  8 10  1  0
 10 11  2  0
  6 12  1  0
 12 13  1  0
 12 14  2  0
 14 15  1  0
 14  3  1  0
 11  5  1  0
M  END
>  <identifier>  (539) 
CNP0295922.0

>  <canonical_smiles>  (539) 
COC1=CC2=C(OC(=O)C=C2)C(O)=C1O

>  <standard_inchi>  (539) 
InChI=1S/C10H8O5/c1-14-6-4-5-2-3-7(11)15-10(5)9(13)8(6)12/h2-4,12-13H,1H3

>  <standard_inchi_key>  (539) 
HAVWRBANWNTOJX-UHFFFAOYSA-N

>  <name>  (539) 
Fraxetin

>  <iupac_name>  (539) 
7,8-dihydroxy-6-methoxy-chromen-2-one

>  <annotation_level>  (539) 
5

>  <total_atom_count>  (539) 
23

>  <heavy_atom_count>  (539) 
15

>  <molecular_weight>  (539) 
208.17

>  <exact_molecular_weight>  (539) 
208.03717

>  <molecular_formula>  (539) 
C10H8O5

>  <alogp>  (539) 
1.21

>  <topological_polar_surface_area>  (539) 
79.90

>  <rotatable_bond_count>  (539) 
1

>  <hydrogen_bond_acceptors>  (539) 
5

>  <hydrogen_bond_donors>  (539) 
2

>  <hydrogen_bond_acceptors_lipinski>  (539) 
5

>  <hydrogen_bond_donors_lipinski>  (539) 
2

>  <lipinski_rule_of_five_violations>  (539) 
0

>  <aromatic_rings_count>  (539) 
2

>  <qed_drug_likeliness>  (539) 
0.54

>  <formal_charge>  (539) 
0

>  <fractioncsp3>  (539) 
0.10

>  <number_of_minimal_rings>  (539) 
2

>  <van_der_walls_volume>  (539) 
169.41

>  <contains_sugar>  (539) 
False

>  <contains_ring_sugars>  (539) 
False

>  <contains_linear_sugars>  (539) 
False

>  <murcko_framework>  (539) 
O1c2ccccc2C=CC1

>  <np_likeness>  (539) 
1.30

>  <chemical_class>  (539) 
Coumarins and derivatives

>  <chemical_sub_class>  (539) 
Hydroxycoumarins

>  <chemical_super_class>  (539) 
Phenylpropanoids and polyketides

>  <direct_parent_classification>  (539) 
7,8-dihydroxycoumarins

>  <np_classifier_pathway>  (539) 
Shikimates and Phenylpropanoids

>  <np_classifier_superclass>  (539) 
Coumarins

>  <np_classifier_class>  (539) 
Simple coumarins

>  <np_classifier_is_glycoside>  (539) 
False

>  <organisms>  (539) 
Acer maximowiczianum|Acer nikoense|Aesculus hippocastanum|Aesculus turbinata|Allium victorialis|Arcytophyllum thymifolium|Arivela viscosa|Arthrophytum leptocladum|Blepharis sindica|Bupleurum fruticosum|Campanula dolomitica|Campanula ochroleuca|Carpesium cernuum|Cellulomonas biazotea|Cladosporium tenuissimum|Corbicula fluminea|Cortex fraxini|Desmotrichum fimbriatum|Dumoria heckelii|Echites hirsuta|Euonymus phellomanus|Ficus benghalensis var. krishnae|Fragaria indica|Frangula alnus|Fraxinus Chinensis|Fraxinus Floribunda|Fraxinus bungeana|Fraxinus chinensis|Fraxinus chinensis subsp. rhynchophylla|Fraxinus excelsior|Fraxinus excelsior L.|Fraxinus floribunda|Fraxinus japonica|Fraxinus japonica Seringe Blume|Fraxinus longicuspis|Fraxinus mandschurica|Fraxinus ornus|Fraxinus pallisiae|Fraxinus sp.|Fraxinus spp.|Fraxinus stylosa|Fraxinus szaboana|Frullania brittoniae|Galleria mellonella|Gentianella nitida|Geranium sanguineum|Gochnatia argentina|Gutierrezia sphaerocephala|Haplophyllum obtusifolium|Hemerocallis citrina|Hydrangea vestita|Jatropha ciliata|Jatropha glandulifera|Lamellodysidea herbacea|Latua pubiflora|Licaria aurea|Lobelia st|Lupinus angustifolius|Mondia whitei|Nepeta leucophylla|Nephila clavata|Nerine sarniensis|Neurospora terricola|Ocotea odorifera|Ormosia excelsa|Parthenocissus tricuspidata|Pelargonium sidoides|Peltogyne confertiflora|Peltogyne venosa|Phebalium gracile|Pinus densiflora var. densiflora|Pogonopus speciosus|Polysiphonia fastigiata|Protium heptaphyllum|Pterocaulon purpurascens|Pulicaria wightiana|Remijia pedunculata|Rhamnus cathartica|Rhamnus frangula|Rhododendron groenlandicum|Rhododendron tomentosum|Rudbeckia hirta|Salsola laricifolia|Santolina pinnata|Saracha viscosa|Sarcandra glabra|Sarcodon aspratus|Sinopodophyllum emodi|Solanum toxicarum|Spongia australis|Stelletta inconspicua|Symbiodinium microadriaticum|Talaromyces convolutus|Tephrosia barbigera|Tilia sp.|Toona febrifuga|Trichia favoginea|Triclisia dictyophylla|Vestia lycioides|Zanthoxylum dinklagei

>  <collections>  (539) 
AnalytiCon Discovery NPs|CMAUP (cCollective molecular activities of useful plants)|ChEBI NPs|EMNPD|GNPS (Global Natural Products Social Molecular Networking)|HIT (Herbal Ingredients Targets)|InterBioScreen Ltd|KNApSaCK|Latin America dataset|NPASS|NPEdia|NuBBEDB|Phyto4Health|PhytoLab phyproof® Reference Substances|PubChem NPs|Super Natural II|TCMDB-Taiwan (Traditional Chinese Medicine database)|TCMID (Traditional Chinese Medicine Integrated Database)|TPPT (Toxic Plants–PhytoToxins)|UEFS (Natural Products Databse of the UEFS)|UNPD (Universal Natural Products Database)|VietHerb|WikiData Natural Products|ZINC NP|p-ANAPL

>  <dois>  (539) 
10.1002/9780470744307.gat218|10.1002/HLCA.200890222|10.1002/PCA.2800040207|10.1007/BF00563361|10.1007/BF00564857|10.1007/BF00565890|10.1007/BF00570201|10.1007/BF00574752|10.1007/BF00577182|10.1007/BF00579441|10.1007/BF00598293|10.1007/BF00629881|10.1007/BF00638770|10.1016/0031-9422(74)80105-6|10.1016/0031-9422(88)80244-9|10.1016/0031-9422(88)83163-7|10.1016/0031-9422(95)00749-0|10.1016/0031-9422(95)00974-4|10.1016/0305-1978(93)90033-N|10.1016/0378-8741(93)90037-6|10.1016/0378-8741(95)01233-4|10.1016/J.PHYMED.2006.11.021|10.1016/J.PHYTOCHEM.2004.11.012|10.1016/J.STR.2020.07.007|10.1016/S0031-9422(00)85045-1|10.1016/S0031-9422(00)91068-9|10.1016/S0031-9422(00)97948-2|10.1016/S0031-9422(98)00097-1|10.1016/S0305-1978(01)00130-2|10.1016/S0305-1978(97)00006-9|10.1021/NP020351M|10.1021/NP50044A042|10.1021/acs.jnatprod.6b00484|10.1055/S-2006-959423|10.1055/S-2006-961529|10.1201/B10413-17|10.1248/BPB.32.1527|10.1248/CPB.33.4069|10.1248/CPB.44.333|10.1248/YAKUSHI1947.107.6_435|10.1524/9783486856187.35

>  <synonyms>  (539) 
nan

>  <cas>  (539) 
574-84-5

$$$$

     RDKit          2D

 22 25  0  0  0  0  0  0  0  0999 V2000
   -4.9638   -1.5335    0.0000 C   0  0  0  0  0  0  0  0  0  0  0  0
   -3.5829   -0.9479    0.0000 C   0  0  0  0  0  0  0  0  0  0  0  0
   -2.2974   -1.7209    0.0000 C   0  0  0  0  0  0  0  0  0  0  0  0
   -1.1650   -0.7372    0.0000 C   0  0  0  0  0  0  0  0  0  0  0  0
   -0.4382   -2.0494    0.0000 C   0  0  0  0  0  0  0  0  0  0  0  0
    1.0615   -2.0761    0.0000 C   0  0  0  0  0  0  0  0  0  0  0  0
    1.8345   -0.7907    0.0000 C   0  0  0  0  0  0  0  0  0  0  0  0
    3.3343   -0.8174    0.0000 C   0  0  0  0  0  0  0  0  0  0  0  0
    4.7345   -1.3554    0.0000 C   0  0  0  0  0  0  0  0  0  0  0  0
    3.0476   -2.2897    0.0000 C   0  0  0  0  0  0  0  0  0  0  0  0
    4.1073    0.4681    0.0000 C   0  0  0  0  0  0  0  0  0  0  0  0
    3.3806    1.7803    0.0000 C   0  0  0  0  0  0  0  0  0  0  0  0
    1.8808    1.8070    0.0000 C   0  0  0  0  0  0  0  0  0  0  0  0
    1.1078    0.5215    0.0000 C   0  0  0  0  0  0  0  0  0  0  0  0
    0.3811    1.8337    0.0000 C   0  0  0  0  0  0  0  0  0  0  0  0
   -0.3920    0.5482    0.0000 C   0  0  0  0  0  0  0  0  0  0  0  0
   -1.8917    0.5749    0.0000 O   0  0  0  0  0  0  0  0  0  0  0  0
   -1.1187    1.8604    0.0000 C   0  0  0  0  0  0  0  0  0  0  0  0
   -0.3457    3.1459    0.0000 O   0  0  0  0  0  0  0  0  0  0  0  0
   -2.6185    1.8871    0.0000 C   0  0  0  0  0  0  0  0  0  0  0  0
   -3.3915    0.6017    0.0000 C   0  0  0  0  0  0  0  0  0  0  0  0
   -2.6647   -0.7105    0.0000 C   0  0  0  0  0  0  0  0  0  0  0  0
  1  2  2  0
  2  3  1  0
  4  3  1  6
  4  5  1  0
  5  6  1  0
  7  6  1  1
  7  8  1  0
  8  9  1  0
  8 10  1  0
  8 11  1  0
 11 12  1  0
 12 13  1  0
 13 14  1  0
 14 15  1  1
 14 16  1  0
 16 17  1  6
 16 18  1  0
 18 19  1  1
 18 20  1  0
 21 20  1  6
 21 22  1  0
 21  2  1  0
 16  4  1  0
 22  4  1  0
 14  7  1  0
M  END
>  <identifier>  (540) 
CNP0325758.1

>  <canonical_smiles>  (540) 
C=C1C[C@@]23CC[C@@H]4C(C)(C)CCC[C@@]4(C)[C@]2(O)[C@H](O)C[C@@H]1C3

>  <standard_inchi>  (540) 
InChI=1S/C20H32O2/c1-13-11-19-9-6-15-17(2,3)7-5-8-18(15,4)20(19,22)16(21)10-14(13)12-19/h14-16,21-22H,1,5-12H2,2-4H3/t14-,15-,16-,18-,19-,20-/m1/s1

>  <standard_inchi_key>  (540) 
YPRNWLKNXXWTQI-DHLLDYARSA-N

>  <name>  (540) 
nan

>  <iupac_name>  (540) 
(1~{S},4~{R},9~{R},10~{S},11~{R},13~{S})-5,5,9-trimethyl-14-methylene-tetracyclo[11.2.1.0^{1,10}.0^{4,9}]hexadecane-10,11-diol

>  <annotation_level>  (540) 
4

>  <total_atom_count>  (540) 
54

>  <heavy_atom_count>  (540) 
22

>  <molecular_weight>  (540) 
304.47

>  <exact_molecular_weight>  (540) 
304.24023

>  <molecular_formula>  (540) 
C20H32O2

>  <alogp>  (540) 
4.06

>  <topological_polar_surface_area>  (540) 
40.46

>  <rotatable_bond_count>  (540) 
0

>  <hydrogen_bond_acceptors>  (540) 
2

>  <hydrogen_bond_donors>  (540) 
2

>  <hydrogen_bond_acceptors_lipinski>  (540) 
2

>  <hydrogen_bond_donors_lipinski>  (540) 
2

>  <lipinski_rule_of_five_violations>  (540) 
0

>  <aromatic_rings_count>  (540) 
0

>  <qed_drug_likeliness>  (540) 
0.66

>  <formal_charge>  (540) 
0

>  <fractioncsp3>  (540) 
0.90

>  <number_of_minimal_rings>  (540) 
4

>  <van_der_walls_volume>  (540) 
nan

>  <contains_sugar>  (540) 
False

>  <contains_ring_sugars>  (540) 
False

>  <contains_linear_sugars>  (540) 
False

>  <murcko_framework>  (540) 
C1CCC2C(C1)CCC34CCC(CCC23)C4

>  <np_likeness>  (540) 
3.25

>  <chemical_class>  (540) 
Prenol lipids

>  <chemical_sub_class>  (540) 
Diterpenoids

>  <chemical_super_class>  (540) 
Lipids and lipid-like molecules

>  <direct_parent_classification>  (540) 
Kaurane diterpenoids

>  <np_classifier_pathway>  (540) 
Terpenoids

>  <np_classifier_superclass>  (540) 
Diterpenoids

>  <np_classifier_class>  (540) 
Kaurane and Phyllocladane diterpenoids

>  <np_classifier_is_glycoside>  (540) 
False

>  <organisms>  (540) 
Vellozia caput-ardeae

>  <collections>  (540) 
Latin America dataset|NuBBEDB|Super Natural II|WikiData Natural Products

>  <dois>  (540) 
10.1016/0031-9422(83)80035-1

>  <synonyms>  (540) 
ent-9\u221a\u00e9\u00ac\u226411\u221a\u00e9\u00ac\u00b1-dihydroxy kaur-16-ene

>  <cas>  (540) 
nan

$$$$

     RDKit          2D

 42 46  0  0  0  0  0  0  0  0999 V2000
   -3.8646   -2.6555    0.0000 C   0  0  0  0  0  0  0  0  0  0  0  0
   -4.0391   -1.1657    0.0000 O   0  0  0  0  0  0  0  0  0  0  0  0
   -5.4166   -0.5719    0.0000 C   0  0  0  0  0  0  0  0  0  0  0  0
   -5.5911    0.9179    0.0000 C   0  0  0  0  0  0  0  0  0  0  0  0
   -6.9685    1.5117    0.0000 O   0  0  0  0  0  0  0  0  0  0  0  0
   -4.3881    1.8139    0.0000 O   0  0  0  0  0  0  0  0  0  0  0  0
   -4.5626    3.3038    0.0000 C   0  0  0  0  0  0  0  0  0  0  0  0
   -5.9401    3.8975    0.0000 C   0  0  0  0  0  0  0  0  0  0  0  0
   -3.3596    4.1998    0.0000 C   0  0  0  0  0  0  0  0  0  0  0  0
   -3.5341    5.6896    0.0000 C   0  0  0  0  0  0  0  0  0  0  0  0
   -1.9822    3.6060    0.0000 C   0  0  0  0  0  0  0  0  0  0  0  0
   -1.8077    2.1162    0.0000 C   0  0  0  0  0  0  0  0  0  0  0  0
   -0.4302    1.5224    0.0000 C   0  0  0  0  0  0  0  0  0  0  0  0
   -0.2557    0.0326    0.0000 C   0  0  0  0  0  0  0  0  0  0  0  0
    1.1218   -0.5612    0.0000 C   0  0  0  0  0  0  0  0  0  0  0  0
    1.2962   -2.0510    0.0000 C   0  0  0  0  0  0  0  0  0  0  0  0
    0.0933   -2.9471    0.0000 Cl  0  0  0  0  0  0  0  0  0  0  0  0
    2.6737   -2.6448    0.0000 C   0  0  0  0  0  0  0  0  0  0  0  0
    2.8482   -4.1346    0.0000 O   0  0  0  0  0  0  0  0  0  0  0  0
    3.8767   -1.7488    0.0000 C   0  0  0  0  0  0  0  0  0  0  0  0
    4.2060   -3.2122    0.0000 C   0  0  0  0  0  0  0  0  0  0  0  0
    5.3475   -2.0432    0.0000 O   0  0  0  0  0  0  0  0  0  0  0  0
    6.0820   -0.7354    0.0000 C   0  0  0  0  0  0  0  0  0  0  0  0
    6.9781   -1.9383    0.0000 O   0  0  0  0  0  0  0  0  0  0  0  0
    7.5454   -0.4061    0.0000 C   0  0  0  0  0  0  0  0  0  0  0  0
    8.5623   -1.5088    0.0000 C   0  0  0  0  0  0  0  0  0  0  0  0
    7.9920    1.0259    0.0000 C   0  0  0  0  0  0  0  0  0  0  0  0
    9.4554    1.3551    0.0000 C   0  0  0  0  0  0  0  0  0  0  0  0
    6.9751    2.1286    0.0000 O   0  0  0  0  0  0  0  0  0  0  0  0
    5.5117    1.7993    0.0000 C   0  0  0  0  0  0  0  0  0  0  0  0
    4.4949    2.9021    0.0000 O   0  0  0  0  0  0  0  0  0  0  0  0
    5.0652    0.3673    0.0000 C   0  0  0  0  0  0  0  0  0  0  0  0
    3.7022   -0.2590    0.0000 C   0  0  0  0  0  0  0  0  0  0  0  0
    2.3247    0.3348    0.0000 C   0  0  0  0  0  0  0  0  0  0  0  0
    2.1502    1.8246    0.0000 C   0  0  0  0  0  0  0  0  0  0  0  0
    0.7728    2.4184    0.0000 O   0  0  0  0  0  0  0  0  0  0  0  0
   -6.6196   -1.4679    0.0000 C   0  0  0  0  0  0  0  0  0  0  0  0
   -7.9970   -0.8741    0.0000 C   0  0  0  0  0  0  0  0  0  0  0  0
   -9.2000   -1.7702    0.0000 C   0  0  0  0  0  0  0  0  0  0  0  0
   -9.0255   -3.2600    0.0000 C   0  0  0  0  0  0  0  0  0  0  0  0
   -7.6480   -3.8538    0.0000 C   0  0  0  0  0  0  0  0  0  0  0  0
   -6.4451   -2.9577    0.0000 C   0  0  0  0  0  0  0  0  0  0  0  0
  1  2  1  0
  3  2  1  6
  3  4  1  0
  4  5  2  0
  4  6  1  0
  6  7  1  0
  7  8  1  6
  7  9  1  0
  9 10  1  6
  9 11  1  0
 11 12  2  0
 12 13  1  0
 13 14  2  0
 14 15  1  0
 15 16  2  0
 16 17  1  0
 16 18  1  0
 18 19  2  0
 18 20  1  0
 20 21  1  1
 20 22  1  0
 22 23  1  0
 23 24  1  6
 23 25  1  0
 25 26  1  1
 25 27  1  0
 27 28  1  6
 27 29  1  0
 29 30  1  0
 30 31  2  0
 32 30  1  1
 32 33  1  0
 33 34  1  6
 34 35  2  0
 35 36  1  0
  3 37  1  0
 37 38  2  0
 38 39  1  0
 39 40  2  0
 40 41  1  0
 41 42  2  0
 36 13  1  0
 42 37  1  0
 34 15  1  0
 33 20  1  0
 32 23  1  0
M  END
>  <identifier>  (541) 
CNP0182987.1

>  <canonical_smiles>  (541) 
CO[C@@H](C(=O)O[C@H](C)[C@H](C)/C=C/C1=CC2=C(Cl)C(=O)[C@@]3(C)O[C@]4(O)[C@H](C)[C@@H](C)OC(=O)[C@@H]4[C@H]3C2=CO1)C1=CC=CC=C1

>  <standard_inchi>  (541) 
InChI=1S/C32H35ClO9/c1-16(18(3)40-30(36)27(38-6)20-10-8-7-9-11-20)12-13-21-14-22-23(15-39-21)24-25-29(35)41-19(4)17(2)32(25,37)42-31(24,5)28(34)26(22)33/h7-19,24-25,27,37H,1-6H3/b13-12+/t16-,17-,18-,19-,24-,25+,27-,31+,32-/m1/s1

>  <standard_inchi_key>  (541) 
YGYZBXBBPDYHSJ-KFOJJOCHSA-N

>  <name>  (541) 
nan

>  <iupac_name>  (541) 
[(~{E},1~{R},2~{R})-4-[(1~{S},10~{S},12~{R},13~{R},14~{R},17~{R})-8-chloro-12-hydroxy-10,13,14-trimethyl-9,16-dioxo-4,11,15-trioxatetracyclo[8.7.0.0^{2,7}.0^{12,17}]heptadeca-2,5,7-trien-5-yl]-1,2-dimethyl-but-3-enyl] (2~{R})-2-methoxy-2-phenyl-acetate

>  <annotation_level>  (541) 
4

>  <total_atom_count>  (541) 
77

>  <heavy_atom_count>  (541) 
42

>  <molecular_weight>  (541) 
599.08

>  <exact_molecular_weight>  (541) 
598.19696

>  <molecular_formula>  (541) 
C32H35ClO9

>  <alogp>  (541) 
4.66

>  <topological_polar_surface_area>  (541) 
117.59

>  <rotatable_bond_count>  (541) 
7

>  <hydrogen_bond_acceptors>  (541) 
9

>  <hydrogen_bond_donors>  (541) 
1

>  <hydrogen_bond_acceptors_lipinski>  (541) 
9

>  <hydrogen_bond_donors_lipinski>  (541) 
1

>  <lipinski_rule_of_five_violations>  (541) 
1

>  <aromatic_rings_count>  (541) 
1

>  <qed_drug_likeliness>  (541) 
0.45

>  <formal_charge>  (541) 
0

>  <fractioncsp3>  (541) 
0.47

>  <number_of_minimal_rings>  (541) 
5

>  <van_der_walls_volume>  (541) 
nan

>  <contains_sugar>  (541) 
False

>  <contains_ring_sugars>  (541) 
False

>  <contains_linear_sugars>  (541) 
False

>  <murcko_framework>  (541) 
O1C=C2C(C=C1C=CCCOCCc3ccccc3)=CCC4OC5CCOCC5C24

>  <np_likeness>  (541) 
1.84

>  <chemical_class>  (541) 
Benzene and substituted derivatives

>  <chemical_sub_class>  (541) 
Benzylethers

>  <chemical_super_class>  (541) 
Benzenoids

>  <direct_parent_classification>  (541) 
Benzylethers

>  <np_classifier_pathway>  (541) 
Polyketides

>  <np_classifier_superclass>  (541) 
Chromanes

>  <np_classifier_class>  (541) 
Azaphilones

>  <np_classifier_is_glycoside>  (541) 
True

>  <organisms>  (541) 
Chaetomium globosum

>  <collections>  (541) 
Latin America dataset|NuBBEDB|WikiData Natural Products

>  <dois>  (541) 
10.1021/NP200556P|10.1021/np200556p

>  <synonyms>  (541) 
(R)-MPA-chaetoviridin D

>  <cas>  (541) 
nan

$$$$

     RDKit          2D

 31 35  0  0  0  0  0  0  0  0999 V2000
   -6.4195   -2.4485    0.0000 C   0  0  0  0  0  0  0  0  0  0  0  0
   -5.5594   -1.2196    0.0000 C   0  0  0  0  0  0  0  0  0  0  0  0
   -6.1935    0.1397    0.0000 C   0  0  0  0  0  0  0  0  0  0  0  0
   -5.3334    1.3686    0.0000 C   0  0  0  0  0  0  0  0  0  0  0  0
   -3.8391    1.2382    0.0000 C   0  0  0  0  0  0  0  0  0  0  0  0
   -4.4733    2.5975    0.0000 C   0  0  0  0  0  0  0  0  0  0  0  0
   -2.9790    2.4670    0.0000 C   0  0  0  0  0  0  0  0  0  0  0  0
   -1.4847    2.3366    0.0000 C   0  0  0  0  0  0  0  0  0  0  0  0
   -0.8505    0.9773    0.0000 C   0  0  0  0  0  0  0  0  0  0  0  0
    0.0097    2.2062    0.0000 C   0  0  0  0  0  0  0  0  0  0  0  0
    0.6439    0.8468    0.0000 C   0  0  0  0  0  0  0  0  0  0  0  0
    1.2780   -0.5125    0.0000 C   0  0  0  0  0  0  0  0  0  0  0  0
    0.4179   -1.7414    0.0000 C   0  0  0  0  0  0  0  0  0  0  0  0
   -1.0764   -1.6110    0.0000 C   0  0  0  0  0  0  0  0  0  0  0  0
   -1.7106   -0.2516    0.0000 C   0  0  0  0  0  0  0  0  0  0  0  0
   -2.5707   -1.4805    0.0000 C   0  0  0  0  0  0  0  0  0  0  0  0
   -3.2049   -0.1212    0.0000 C   0  0  0  0  0  0  0  0  0  0  0  0
   -4.0650   -1.3501    0.0000 C   0  0  0  0  0  0  0  0  0  0  0  0
   -3.4308   -2.7094    0.0000 C   0  0  0  0  0  0  0  0  0  0  0  0
    2.7724   -0.6430    0.0000 C   0  0  0  0  0  0  0  0  0  0  0  0
    1.9122   -1.8719    0.0000 C   0  0  0  0  0  0  0  0  0  0  0  0
    3.4066   -2.0023    0.0000 C   0  0  0  0  0  0  0  0  0  0  0  0
    4.9009   -2.1328    0.0000 C   0  0  0  0  0  0  0  0  0  0  0  0
    5.7610   -0.9039    0.0000 C   0  0  0  0  0  0  0  0  0  0  0  0
    7.2553   -1.0343    0.0000 O   0  0  0  0  0  0  0  0  0  0  0  0
    5.1268    0.4555    0.0000 C   0  0  0  0  0  0  0  0  0  0  0  0
    4.9958    1.9498    0.0000 C   0  0  0  0  0  0  0  0  0  0  0  0
    6.5756    0.8440    0.0000 C   0  0  0  0  0  0  0  0  0  0  0  0
    3.6325    0.5859    0.0000 C   0  0  0  0  0  0  0  0  0  0  0  0
    2.9983    1.9453    0.0000 C   0  0  0  0  0  0  0  0  0  0  0  0
    1.5040    2.0757    0.0000 C   0  0  0  0  0  0  0  0  0  0  0  0
  2  1  1  1
  2  3  1  0
  3  4  1  0
  4  5  1  0
  5  6  1  1
  5  7  1  0
  7  8  1  0
  8  9  1  0
  9 10  1  1
  9 11  1  0
 11 12  2  0
 12 13  1  0
 13 14  1  0
 14 15  1  0
 15 16  1  6
 15 17  1  0
 17 18  1  0
 18 19  1  6
 12 20  1  0
 20 21  1  1
 20 22  1  0
 22 23  1  0
 23 24  1  0
 24 25  1  1
 24 26  1  0
 26 27  1  0
 26 28  1  0
 26 29  1  0
 29 30  1  0
 30 31  1  0
 18  2  1  0
 29 20  1  0
 17  5  1  0
 15  9  1  0
 31 11  1  0
M  END
>  <identifier>  (542) 
CNP0364384.2

>  <canonical_smiles>  (542) 
C[C@H]1CC[C@]2(C)CC[C@]3(C)C4=C(CC[C@@]3(C)C2[C@@H]1C)[C@@]1(C)CC[C@H](O)C(C)(C)C1CC4

>  <standard_inchi>  (542) 
InChI=1S/C30H50O/c1-19-11-14-27(5)17-18-29(7)22-9-10-23-26(3,4)24(31)13-15-28(23,6)21(22)12-16-30(29,8)25(27)20(19)2/h19-20,23-25,31H,9-18H2,1-8H3/t19-,20+,23?,24-,25?,27+,28+,29+,30-/m0/s1

>  <standard_inchi_key>  (542) 
FOAKGLWNANRWRP-JZDKVJSXSA-N

>  <name>  (542) 
nan

>  <iupac_name>  (542) 
(3~{S},6~{a}~{S},6~{b}~{S},8~{a}~{R},11~{S},12~{R},14~{b}~{S})-4,4,6~{a},6~{b},8~{a},11,12,14~{b}-octamethyl-2,3,4~{a},5,6,7,8,9,10,11,12,12~{a},13,14-tetradecahydro-1~{H}-picen-3-ol

>  <annotation_level>  (542) 
4

>  <total_atom_count>  (542) 
81

>  <heavy_atom_count>  (542) 
31

>  <molecular_weight>  (542) 
426.73

>  <exact_molecular_weight>  (542) 
426.38617

>  <molecular_formula>  (542) 
C30H50O

>  <alogp>  (542) 
8.17

>  <topological_polar_surface_area>  (542) 
20.23

>  <rotatable_bond_count>  (542) 
0

>  <hydrogen_bond_acceptors>  (542) 
1

>  <hydrogen_bond_donors>  (542) 
1

>  <hydrogen_bond_acceptors_lipinski>  (542) 
1

>  <hydrogen_bond_donors_lipinski>  (542) 
1

>  <lipinski_rule_of_five_violations>  (542) 
1

>  <aromatic_rings_count>  (542) 
0

>  <qed_drug_likeliness>  (542) 
0.39

>  <formal_charge>  (542) 
0

>  <fractioncsp3>  (542) 
0.93

>  <number_of_minimal_rings>  (542) 
5

>  <van_der_walls_volume>  (542) 
nan

>  <contains_sugar>  (542) 
False

>  <contains_ring_sugars>  (542) 
False

>  <contains_linear_sugars>  (542) 
False

>  <murcko_framework>  (542) 
C12=C(CCC3CCCCC13)C4CCC5CCCCC5C4CC2

>  <np_likeness>  (542) 
3.25

>  <chemical_class>  (542) 
Organooxygen compounds

>  <chemical_sub_class>  (542) 
Alcohols and polyols

>  <chemical_super_class>  (542) 
Organic oxygen compounds

>  <direct_parent_classification>  (542) 
Cyclic alcohols and derivatives

>  <np_classifier_pathway>  (542) 
Terpenoids

>  <np_classifier_superclass>  (542) 
Triterpenoids

>  <np_classifier_class>  (542) 
Bauerane triterpenoids

>  <np_classifier_is_glycoside>  (542) 
False

>  <organisms>  (542) 
Raulinoa echinata

>  <collections>  (542) 
Latin America dataset|NuBBEDB|WikiData Natural Products

>  <dois>  (542) 
10.1078/0944-7113-00016

>  <synonyms>  (542) 
Isobauerenol

>  <cas>  (542) 
nan

$$$$

     RDKit          2D

 27 29  0  0  0  0  0  0  0  0999 V2000
   -7.5140    2.3857    0.0000 C   0  0  0  0  0  0  0  0  0  0  0  0
   -6.9898    0.9803    0.0000 O   0  0  0  0  0  0  0  0  0  0  0  0
   -5.5105    0.7315    0.0000 C   0  0  0  0  0  0  0  0  0  0  0  0
   -4.5555    1.8882    0.0000 C   0  0  0  0  0  0  0  0  0  0  0  0
   -3.0763    1.6395    0.0000 C   0  0  0  0  0  0  0  0  0  0  0  0
   -2.5521    0.2340    0.0000 C   0  0  0  0  0  0  0  0  0  0  0  0
   -1.0729   -0.0147    0.0000 C   0  0  0  0  0  0  0  0  0  0  0  0
   -0.5487   -1.4202    0.0000 C   0  0  0  0  0  0  0  0  0  0  0  0
    0.9306   -1.6689    0.0000 C   0  0  0  0  0  0  0  0  0  0  0  0
    1.4547   -3.0744    0.0000 O   0  0  0  0  0  0  0  0  0  0  0  0
    1.8856   -0.5123    0.0000 C   0  0  0  0  0  0  0  0  0  0  0  0
    3.3648   -0.7610    0.0000 C   0  0  0  0  0  0  0  0  0  0  0  0
    3.8890   -2.1664    0.0000 O   0  0  0  0  0  0  0  0  0  0  0  0
    5.3682   -2.4152    0.0000 C   0  0  0  0  0  0  0  0  0  0  0  0
    4.3199    0.3957    0.0000 C   0  0  0  0  0  0  0  0  0  0  0  0
    5.7991    0.1469    0.0000 O   0  0  0  0  0  0  0  0  0  0  0  0
    6.3233   -1.2585    0.0000 C   0  0  0  0  0  0  0  0  0  0  0  0
    3.7957    1.8011    0.0000 C   0  0  0  0  0  0  0  0  0  0  0  0
    4.7507    2.9578    0.0000 O   0  0  0  0  0  0  0  0  0  0  0  0
    6.2300    2.7090    0.0000 C   0  0  0  0  0  0  0  0  0  0  0  0
    2.3165    2.0498    0.0000 C   0  0  0  0  0  0  0  0  0  0  0  0
    1.3614    0.8932    0.0000 C   0  0  0  0  0  0  0  0  0  0  0  0
   -0.1178    1.1419    0.0000 O   0  0  0  0  0  0  0  0  0  0  0  0
   -3.5071   -0.9226    0.0000 C   0  0  0  0  0  0  0  0  0  0  0  0
   -4.9864   -0.6739    0.0000 C   0  0  0  0  0  0  0  0  0  0  0  0
   -5.9414   -1.8305    0.0000 O   0  0  0  0  0  0  0  0  0  0  0  0
   -5.4172   -3.2360    0.0000 C   0  0  0  0  0  0  0  0  0  0  0  0
  1  2  1  0
  2  3  1  0
  3  4  2  0
  4  5  1  0
  5  6  2  0
  6  7  1  0
  7  8  2  0
  8  9  1  0
  9 10  2  0
  9 11  1  0
 11 12  2  0
 12 13  1  0
 13 14  1  0
 12 15  1  0
 15 16  1  0
 16 17  1  0
 15 18  2  0
 18 19  1  0
 19 20  1  0
 18 21  1  0
 21 22  2  0
 22 23  1  0
  6 24  1  0
 24 25  2  0
 25 26  1  0
 26 27  1  0
 25  3  1  0
 23  7  1  0
 22 11  1  0
M  END
>  <identifier>  (543) 
CNP0172176.0

>  <canonical_smiles>  (543) 
COC1=CC=C(C2=CC(=O)C3=C(OC)C(OC)=C(OC)C=C3O2)C=C1OC

>  <standard_inchi>  (543) 
InChI=1S/C20H20O7/c1-22-13-7-6-11(8-15(13)23-2)14-9-12(21)18-16(27-14)10-17(24-3)19(25-4)20(18)26-5/h6-10H,1-5H3

>  <standard_inchi_key>  (543) 
LKMNXYDUQXAUCZ-UHFFFAOYSA-N

>  <name>  (543) 
Sinensetin

>  <iupac_name>  (543) 
2-(3,4-dimethoxyphenyl)-5,6,7-trimethoxy-chromen-4-one

>  <annotation_level>  (543) 
5

>  <total_atom_count>  (543) 
47

>  <heavy_atom_count>  (543) 
27

>  <molecular_weight>  (543) 
372.37

>  <exact_molecular_weight>  (543) 
372.1209

>  <molecular_formula>  (543) 
C20H20O7

>  <alogp>  (543) 
3.50

>  <topological_polar_surface_area>  (543) 
76.36

>  <rotatable_bond_count>  (543) 
6

>  <hydrogen_bond_acceptors>  (543) 
7

>  <hydrogen_bond_donors>  (543) 
0

>  <hydrogen_bond_acceptors_lipinski>  (543) 
7

>  <hydrogen_bond_donors_lipinski>  (543) 
0

>  <lipinski_rule_of_five_violations>  (543) 
0

>  <aromatic_rings_count>  (543) 
3

>  <qed_drug_likeliness>  (543) 
0.66

>  <formal_charge>  (543) 
0

>  <fractioncsp3>  (543) 
0.25

>  <number_of_minimal_rings>  (543) 
3

>  <van_der_walls_volume>  (543) 
324.37

>  <contains_sugar>  (543) 
False

>  <contains_ring_sugars>  (543) 
False

>  <contains_linear_sugars>  (543) 
False

>  <murcko_framework>  (543) 
O1c2ccccc2CC=C1c3ccccc3

>  <np_likeness>  (543) 
0.78

>  <chemical_class>  (543) 
Flavonoids

>  <chemical_sub_class>  (543) 
O-methylated flavonoids

>  <chemical_super_class>  (543) 
Phenylpropanoids and polyketides

>  <direct_parent_classification>  (543) 
6-O-methylated flavonoids

>  <np_classifier_pathway>  (543) 
Shikimates and Phenylpropanoids

>  <np_classifier_superclass>  (543) 
Flavonoids

>  <np_classifier_class>  (543) 
Flavones

>  <np_classifier_is_glycoside>  (543) 
False

>  <organisms>  (543) 
Aceriphyllum rossii|Ageratum Conyzoides|Ageratum conyzoides|Agnorhiza bolanderi|Alligator mississippiensis|Anaxagorea clavata|Angelica ursina|Araujia sericifera|Ardisia macrocarpa|Aria pallescens|Arnica nevadensis|Artemisia monogyna|Asterias rubens|Bassia butyracea|Bauhinia Championii|Bauhinia championii|Bauhinia championll|Beyeria brevifolia|Bitter bush|Bursaria spinosa|Chenopodium botrys|Chenopodium championii|Chenopodium championll|Chenopodium sp.|Cherry Orange|Chloranthus tianmushanensis|Chlorophytum malayense|Chromolaena Odorata|Chromolaena odorata|Chromolaena pulchella|Citrus Aurantium|Citrus Grandis|Citrus Reticulata|Citrus Sinensis|Citrus auranthium|Citrus aurantium|Citrus aurea|Citrus depressa|Citrus erythrosa|Citrus flavicarpa|Citrus grandis|Citrus grandis var. tomentosa|Citrus grandis var.tomentosa|Citrus hanaju|Citrus hassaku|Citrus intermedia|Citrus japonica|Citrus keraji|Citrus leiocarpa|Citrus madurensis|Citrus medica|Citrus myrtifolia|Citrus natsudaidai|Citrus nippokoreana|Citrus obovoidea|Citrus otachibana|Citrus oto|Citrus pseudoparadisi|Citrus reticulata|Citrus reticulate|Citrus shunkokan|Citrus sinensis|Citrus sp.|Citrus sulcata|Citrus tachibana|Citrus tangerina|Citrus tankan|Citrus trifoliata|Citrus ujukitsu|Citrus unshiu|Citrus × deliciosa|Citrus × paradisi|Citrus ×iyo|Cladonia evansii|Clausena indica|Clerodendranthus spicatus|Clonostachys rosea|Coccus fagi|Conoclinium coelestinum|Croton caudatus|Dendrosenecio kilimanjari|Dipterocarpus alatus|Drosera peltata|Echinops amplexicaulis|Empetrum nigrum|Enterococcus faecalis|Epaltes gariepina|Ephedra lomatolepis|Eriogaster lanestris|Erythrina schliebenii|Euonymus maackii|Eupatorium coelestinum|Ficus formosana|Fusarium gibbosum|Gardenia fosbergii|Gentiana olivieri|Gnetum cleistostachyum|Igernella notabilis|Ilex affinis|Ircinia aruensis|Isodon kameba|Jateorhiza palmata|Kaempferia pulchra|Kickxia spuria|Kumquat|Lactarius scrobiculatus|Laurencia mariannensis|Lindera umbellata|Maytenus guianensis|Melibe leonina|Morus yunnanensis|Murraya Paniculata|Murraya paniculata|Nicotiana gossei|Odixia angusta|Ophioplocus japonicus|Orthosiphon aristatus|Orthosiphon grandiflorus|Orthosiphon sp.|Orthosiphon spicatus|Orthosiphon stamineus|Phanera championii|Pheidole pallidula|Phleum africanum|Picradeniopsis oppositifolia|Pinus halepensis|Pinus thunbergii|Prosopis glandulosa|Prunus laurocerasus|Pseudopterogorgia kallos|Pteris prolifera|Pterocarpus grandiflorus|Pterocaulon rugosum|Pulicaria sicula|Pyrosoma giganteum|Quercus aegilops|Rauvolfia tetraphylla|Rhizobium phaseoli|Salvia officinalis|Salvia prionitis|Salvia tingitana|Satureja montana|Saussurea triangulata|Securidaca inappendiculata|Senecio grandiflorus|Senecio squalidus|Seriphidium cinum|Sesbania punicea|Simira eliezeriana|Stenostomum lucidum|Stephania succifera|Stevia salicifolia|Streptomyces althioticus|Taxodium mucronatum|Tetraria capillaris|Teucrium alyssifolium|Vernonia serratuloides|Vitex madiensis|Zephyranthes carinata|pomelo

>  <collections>  (543) 
ANPDB|Australian natural products|BitterDB|CMAUP (cCollective molecular activities of useful plants)|ChEBI NPs|ETM (Ethiopian Traditional Medicine) DB|FooDB|GNPS (Global Natural Products Social Molecular Networking)|KNApSaCK|Latin America dataset|NANPDB (Natural Products from Northern African Sources)|NPACT|NPASS|NPEdia|NuBBEDB|Phenol-explorer|Phyto4Health|PhytoLab phyproof® Reference Substances|Super Natural II|TCMDB-Taiwan (Traditional Chinese Medicine database)|TCMID (Traditional Chinese Medicine Integrated Database)|TIPdb (database of Taiwan indigenous plants)|UNPD (Universal Natural Products Database)|VietHerb|WikiData Natural Products

>  <dois>  (543) 
10.1002/JCCS.198500015|10.1007/BF00599010|10.1016/0021-9673(94)89051-X|10.1016/0031-9422(79)83070-8|10.1016/0031-9422(93)85530-5|10.1016/0305-1978(95)00080-1|10.1016/J.BMC.2008.11.039|10.1016/J.CHROMA.2017.12.022|10.1016/J.FOODCHEM.2009.06.059|10.1016/S0021-9673(97)01131-X|10.1016/S0031-9422(00)84500-8|10.1016/S0031-9422(00)84523-9|10.1016/S0031-9422(00)95215-4|10.1016/S0031-9422(03)00207-3|10.1016/s0031-9422(00)95215-4|10.1021/JF102730B|10.1021/JF960110I|10.1021/JF970606F|10.1021/JF980229M|10.1021/acs.jnatprod.6b00839|10.1021/acs.jnatprod.9b01024|10.1021/jf801103p|10.1055/S-2006-962099|10.1248/BPB.24.1373|10.1248/CPB.28.717|10.1248/CPB.32.166|10.1248/CPB.35.3025|10.1248/CPB.37.1092|10.1248/CPB.39.945|10.1248/CPB.41.714|10.1248/CPB.48.1711|10.1248/CPB.48.433|10.1248/CPB.49.1356|10.21608/BFSA.1987.74396|10.3390/MOLECULES15031097

>  <synonyms>  (543) 
nan

>  <cas>  (543) 
2306-27-6

$$$$

     RDKit          2D

 19 20  0  0  0  0  0  0  0  0999 V2000
   -1.1439    3.4386    0.0000 C   0  0  0  0  0  0  0  0  0  0  0  0
   -1.4295    1.9660    0.0000 O   0  0  0  0  0  0  0  0  0  0  0  0
   -0.2970    0.9824    0.0000 C   0  0  0  0  0  0  0  0  0  0  0  0
    1.1211    1.4714    0.0000 C   0  0  0  0  0  0  0  0  0  0  0  0
    2.2536    0.4878    0.0000 C   0  0  0  0  0  0  0  0  0  0  0  0
    1.9680   -0.9848    0.0000 C   0  0  0  0  0  0  0  0  0  0  0  0
    3.1005   -1.9684    0.0000 C   0  0  0  0  0  0  0  0  0  0  0  0
    4.5186   -1.4794    0.0000 C   0  0  0  0  0  0  0  0  0  0  0  0
    4.8041   -0.0068    0.0000 C   0  0  0  0  0  0  0  0  0  0  0  0
    6.2222    0.4821    0.0000 O   0  0  0  0  0  0  0  0  0  0  0  0
    3.6716    0.9767    0.0000 O   0  0  0  0  0  0  0  0  0  0  0  0
    0.5499   -1.4738    0.0000 C   0  0  0  0  0  0  0  0  0  0  0  0
   -0.5826   -0.4902    0.0000 C   0  0  0  0  0  0  0  0  0  0  0  0
   -2.0006   -0.9791    0.0000 C   0  0  0  0  0  0  0  0  0  0  0  0
   -3.1331    0.0045    0.0000 C   0  0  0  0  0  0  0  0  0  0  0  0
   -4.5512   -0.4845    0.0000 C   0  0  0  0  0  0  0  0  0  0  0  0
   -4.0622   -1.9026    0.0000 C   0  0  0  0  0  0  0  0  0  0  0  0
   -5.0402    0.9336    0.0000 C   0  0  0  0  0  0  0  0  0  0  0  0
   -5.9693   -0.9735    0.0000 O   0  0  0  0  0  0  0  0  0  0  0  0
  1  2  1  0
  2  3  1  0
  3  4  2  0
  4  5  1  0
  5  6  2  0
  6  7  1  0
  7  8  2  0
  8  9  1  0
  9 10  2  0
  9 11  1  0
  6 12  1  0
 12 13  2  0
 13 14  1  0
 14 15  2  0
 15 16  1  0
 16 17  1  0
 16 18  1  0
 16 19  1  0
 13  3  1  0
 11  5  1  0
M  END
>  <identifier>  (544) 
CNP0233219.1

>  <canonical_smiles>  (544) 
COC1=CC2=C(C=CC(=O)O2)C=C1/C=C/C(C)(C)O

>  <standard_inchi>  (544) 
InChI=1S/C15H16O4/c1-15(2,17)7-6-11-8-10-4-5-14(16)19-13(10)9-12(11)18-3/h4-9,17H,1-3H3/b7-6+

>  <standard_inchi_key>  (544) 
LNFVZUMSDAIQDQ-VOTSOKGWSA-N

>  <name>  (544) 
nan

>  <iupac_name>  (544) 
nan

>  <annotation_level>  (544) 
0

>  <total_atom_count>  (544) 
35

>  <heavy_atom_count>  (544) 
19

>  <molecular_weight>  (544) 
260.29

>  <exact_molecular_weight>  (544) 
260.10486

>  <molecular_formula>  (544) 
C15H16O4

>  <alogp>  (544) 
2.59

>  <topological_polar_surface_area>  (544) 
59.67

>  <rotatable_bond_count>  (544) 
3

>  <hydrogen_bond_acceptors>  (544) 
4

>  <hydrogen_bond_donors>  (544) 
1

>  <hydrogen_bond_acceptors_lipinski>  (544) 
4

>  <hydrogen_bond_donors_lipinski>  (544) 
1

>  <lipinski_rule_of_five_violations>  (544) 
0

>  <aromatic_rings_count>  (544) 
2

>  <qed_drug_likeliness>  (544) 
0.86

>  <formal_charge>  (544) 
0

>  <fractioncsp3>  (544) 
0.27

>  <number_of_minimal_rings>  (544) 
2

>  <van_der_walls_volume>  (544) 
236.21

>  <contains_sugar>  (544) 
False

>  <contains_ring_sugars>  (544) 
False

>  <contains_linear_sugars>  (544) 
False

>  <murcko_framework>  (544) 
O1c2ccccc2C=CC1

>  <np_likeness>  (544) 
1.28

>  <chemical_class>  (544) 
nan

>  <chemical_sub_class>  (544) 
nan

>  <chemical_super_class>  (544) 
nan

>  <direct_parent_classification>  (544) 
nan

>  <np_classifier_pathway>  (544) 
Shikimates and Phenylpropanoids

>  <np_classifier_superclass>  (544) 
Coumarins

>  <np_classifier_class>  (544) 
Simple coumarins

>  <np_classifier_is_glycoside>  (544) 
False

>  <organisms>  (544) 
Amyris diatrypa|Amyris elemifera|Amyris lineata|Ardisia floribunda|Artemisia gmelini|Campanula patula|Caragana conferta|Citrus canariculata|Citrus funadoko|Citrus nobilis|Citrus reticulata|Citrus sinensis|Citrus × deliciosa|Citrus × paradisi|Juniperus cedrus|Naringi crenulata|Pleiospermium alatum|Prangos lophoptera|Tellina nitida|Thladiantha dubia|Zanthoxylum ovalifolium|Zanthoxylum suberosum

>  <collections>  (544) 
Australian natural products|FooDB|Latin America dataset|NPASS|NuBBEDB|Super Natural II|WikiData Natural Products

>  <dois>  (544) 
10.1007/BF00563983|10.1016/0031-9422(90)89054-D|10.1016/S0031-9422(00)84608-7|10.1016/S0031-9422(00)86402-X|10.1021/NP50087A013|10.1021/jf801103p|10.1039/P19900001593|10.1055/S-2006-962355|10.1055/S-2006-962751|10.1055/S-2007-969641|10.1071/CH9672429|10.1071/ch9672429|10.1248/CPB.38.1230|10.1248/CPB.41.1657|10.3987/R-1981-06-0897

>  <synonyms>  (544) 
nan

>  <cas>  (544) 
18529-47-0

$$$$

     RDKit          2D

 44 48  0  0  0  0  0  0  0  0999 V2000
   -1.2181    0.5306    0.0000 C   0  0  0  0  0  0  0  0  0  0  0  0
   -0.8195   -0.9155    0.0000 O   0  0  0  0  0  0  0  0  0  0  0  0
    0.6321   -1.2933    0.0000 C   0  0  0  0  0  0  0  0  0  0  0  0
    1.6851   -0.2250    0.0000 C   0  0  0  0  0  0  0  0  0  0  0  0
    3.1368   -0.6029    0.0000 C   0  0  0  0  0  0  0  0  0  0  0  0
    3.5354   -2.0489    0.0000 C   0  0  0  0  0  0  0  0  0  0  0  0
    2.4824   -3.1172    0.0000 C   0  0  0  0  0  0  0  0  0  0  0  0
    2.8810   -4.5632    0.0000 O   0  0  0  0  0  0  0  0  0  0  0  0
    1.0307   -2.7394    0.0000 C   0  0  0  0  0  0  0  0  0  0  0  0
   -0.0223   -3.8076    0.0000 O   0  0  0  0  0  0  0  0  0  0  0  0
   -1.4739   -3.4298    0.0000 C   0  0  0  0  0  0  0  0  0  0  0  0
   -1.8725   -1.9837    0.0000 O   0  0  0  0  0  0  0  0  0  0  0  0
   -3.3242   -1.6059    0.0000 C   0  0  0  0  0  0  0  0  0  0  0  0
   -3.7228   -0.1598    0.0000 C   0  0  0  0  0  0  0  0  0  0  0  0
   -5.1744    0.2180    0.0000 O   0  0  0  0  0  0  0  0  0  0  0  0
   -5.5730    1.6641    0.0000 C   0  0  0  0  0  0  0  0  0  0  0  0
   -4.5200    2.7323    0.0000 O   0  0  0  0  0  0  0  0  0  0  0  0
   -4.9186    4.1784    0.0000 C   0  0  0  0  0  0  0  0  0  0  0  0
   -3.8656    5.2466    0.0000 C   0  0  0  0  0  0  0  0  0  0  0  0
   -6.3703    4.5562    0.0000 C   0  0  0  0  0  0  0  0  0  0  0  0
   -6.7689    6.0022    0.0000 O   0  0  0  0  0  0  0  0  0  0  0  0
   -7.4233    3.4879    0.0000 C   0  0  0  0  0  0  0  0  0  0  0  0
   -8.8749    3.8658    0.0000 O   0  0  0  0  0  0  0  0  0  0  0  0
   -7.0247    2.0419    0.0000 C   0  0  0  0  0  0  0  0  0  0  0  0
   -8.0777    0.9736    0.0000 O   0  0  0  0  0  0  0  0  0  0  0  0
   -4.3772   -2.6741    0.0000 C   0  0  0  0  0  0  0  0  0  0  0  0
   -5.8288   -2.2963    0.0000 O   0  0  0  0  0  0  0  0  0  0  0  0
   -3.9786   -4.1202    0.0000 C   0  0  0  0  0  0  0  0  0  0  0  0
   -5.0316   -5.1885    0.0000 O   0  0  0  0  0  0  0  0  0  0  0  0
   -2.5269   -4.4980    0.0000 C   0  0  0  0  0  0  0  0  0  0  0  0
   -2.1283   -5.9441    0.0000 O   0  0  0  0  0  0  0  0  0  0  0  0
    4.9870   -2.4268    0.0000 C   0  0  0  0  0  0  0  0  0  0  0  0
    5.3857   -3.8728    0.0000 O   0  0  0  0  0  0  0  0  0  0  0  0
    6.0401   -1.3585    0.0000 C   0  0  0  0  0  0  0  0  0  0  0  0
    5.6414    0.0876    0.0000 C   0  0  0  0  0  0  0  0  0  0  0  0
    6.6945    1.1558    0.0000 C   0  0  0  0  0  0  0  0  0  0  0  0
    8.1461    0.7780    0.0000 C   0  0  0  0  0  0  0  0  0  0  0  0
    9.1991    1.8462    0.0000 C   0  0  0  0  0  0  0  0  0  0  0  0
    8.8005    3.2923    0.0000 C   0  0  0  0  0  0  0  0  0  0  0  0
    9.8535    4.3605    0.0000 O   0  0  0  0  0  0  0  0  0  0  0  0
    7.3489    3.6701    0.0000 C   0  0  0  0  0  0  0  0  0  0  0  0
    6.9502    5.1162    0.0000 O   0  0  0  0  0  0  0  0  0  0  0  0
    6.2958    2.6019    0.0000 C   0  0  0  0  0  0  0  0  0  0  0  0
    4.1898    0.4654    0.0000 O   0  0  0  0  0  0  0  0  0  0  0  0
  1  2  1  0
  2  3  1  0
  3  4  2  0
  4  5  1  0
  5  6  2  0
  6  7  1  0
  7  8  1  0
  7  9  2  0
  9 10  1  0
 11 10  1  1
 11 12  1  0
 12 13  1  0
 13 14  1  1
 14 15  1  0
 16 15  1  1
 16 17  1  0
 17 18  1  0
 18 19  1  6
 18 20  1  0
 20 21  1  1
 20 22  1  0
 22 23  1  6
 22 24  1  0
 24 25  1  6
 13 26  1  0
 26 27  1  6
 26 28  1  0
 28 29  1  1
 28 30  1  0
 30 31  1  6
  6 32  1  0
 32 33  2  0
 32 34  1  0
 34 35  2  0
 35 36  1  0
 36 37  2  0
 37 38  1  0
 38 39  2  0
 39 40  1  0
 39 41  1  0
 41 42  1  0
 41 43  2  0
 35 44  1  0
  9  3  1  0
 30 11  1  0
 43 36  1  0
 44  5  1  0
 24 16  1  0
M  END
>  <identifier>  (545) 
CNP0318061.1

>  <canonical_smiles>  (545) 
COC1=CC2=C(C(O)=C1O[C@@H]1O[C@H](CO[C@@H]3O[C@@H](C)[C@H](O)[C@@H](O)[C@H]3O)[C@@H](O)[C@H](O)[C@H]1O)C(=O)C=C(C1=CC=C(O)C(O)=C1)O2

>  <standard_inchi>  (545) 
InChI=1S/C28H32O16/c1-9-19(32)22(35)24(37)27(41-9)40-8-17-20(33)23(36)25(38)28(43-17)44-26-16(39-2)7-15-18(21(26)34)13(31)6-14(42-15)10-3-4-11(29)12(30)5-10/h3-7,9,17,19-20,22-25,27-30,32-38H,8H2,1-2H3/t9-,17+,19-,20+,22+,23-,24+,25+,27+,28-/m0/s1

>  <standard_inchi_key>  (545) 
MTUPEWBIUKFRBD-PCIFUKDKSA-N

>  <name>  (545) 
Nitensoside B

>  <iupac_name>  (545) 
2-(3,4-dihydroxyphenyl)-5-hydroxy-7-methoxy-6-[(2~{S},3~{R},4~{S},5~{S},6~{R})-3,4,5-trihydroxy-6-[[(2~{R},3~{R},4~{R},5~{R},6~{S})-3,4,5-trihydroxy-6-methyl-tetrahydropyran-2-yl]oxymethyl]tetrahydropyran-2-yl]oxy-chromen-4-one

>  <annotation_level>  (545) 
5

>  <total_atom_count>  (545) 
76

>  <heavy_atom_count>  (545) 
44

>  <molecular_weight>  (545) 
624.55

>  <exact_molecular_weight>  (545) 
624.16903

>  <molecular_formula>  (545) 
C28H32O16

>  <alogp>  (545) 
-1.38

>  <topological_polar_surface_area>  (545) 
258.43

>  <rotatable_bond_count>  (545) 
7

>  <hydrogen_bond_acceptors>  (545) 
16

>  <hydrogen_bond_donors>  (545) 
9

>  <hydrogen_bond_acceptors_lipinski>  (545) 
16

>  <hydrogen_bond_donors_lipinski>  (545) 
9

>  <lipinski_rule_of_five_violations>  (545) 
3

>  <aromatic_rings_count>  (545) 
3

>  <qed_drug_likeliness>  (545) 
0.14

>  <formal_charge>  (545) 
0

>  <fractioncsp3>  (545) 
0.46

>  <number_of_minimal_rings>  (545) 
5

>  <van_der_walls_volume>  (545) 
510.27

>  <contains_sugar>  (545) 
True

>  <contains_ring_sugars>  (545) 
True

>  <contains_linear_sugars>  (545) 
False

>  <murcko_framework>  (545) 
O1c2ccc(OC3OC(COC4OCCCC4)CCC3)cc2CC=C1c5ccccc5

>  <np_likeness>  (545) 
1.82

>  <chemical_class>  (545) 
Flavonoids

>  <chemical_sub_class>  (545) 
Flavonoid glycosides

>  <chemical_super_class>  (545) 
Phenylpropanoids and polyketides

>  <direct_parent_classification>  (545) 
Flavonoid O-glycosides

>  <np_classifier_pathway>  (545) 
Shikimates and Phenylpropanoids

>  <np_classifier_superclass>  (545) 
Flavonoids

>  <np_classifier_class>  (545) 
Flavones

>  <np_classifier_is_glycoside>  (545) 
True

>  <organisms>  (545) 
Pterogyne nitens

>  <collections>  (545) 
ChemSpider NPs|KNApSaCK|Latin America dataset|NuBBEDB|Super Natural II|WikiData Natural Products

>  <dois>  (545) 
10.1021/NP800612X|10.1248/CPB.56.723|10.1248/cpb.56.723

>  <synonyms>  (545) 
2-(3,4-dihydroxyphenyl)-5-hydroxy-7-methoxy-6-[(2S,3R,4S,5S,6R)-3,4,5-trihydroxy-6-[[(2R,3R,4R,5R,6S)-3,4,5-trihydroxy-6-methyloxan-2-yl]oxymethyl]oxan-2-yl]oxychromen-4-one|Nitensoside B|Nitensoside B, Pedalitin 6-O-\u221a\u00e9\u00ac\u00b1-rhamnopyranosyl(1'''\u221a\u00a2\u201a\u00c4\u2020\u201a\u00c4\u00f46'')-\u221a\u00e9\u00ac\u2264-glucopyranoside

>  <cas>  (545) 
nan

$$$$

     RDKit          2D

 48 53  0  0  0  0  0  0  0  0999 V2000
   -2.5147   -6.3538    0.0000 C   0  0  0  0  0  0  0  0  0  0  0  0
   -2.3957   -4.8585    0.0000 C   0  0  0  0  0  0  0  0  0  0  0  0
   -3.6312   -4.0078    0.0000 C   0  0  0  0  0  0  0  0  0  0  0  0
   -3.5121   -2.5125    0.0000 C   0  0  0  0  0  0  0  0  0  0  0  0
   -2.1577   -1.8679    0.0000 C   0  0  0  0  0  0  0  0  0  0  0  0
   -3.3931   -1.0172    0.0000 C   0  0  0  0  0  0  0  0  0  0  0  0
   -4.7476   -1.6618    0.0000 O   0  0  0  0  0  0  0  0  0  0  0  0
   -3.2741    0.4780    0.0000 O   0  0  0  0  0  0  0  0  0  0  0  0
   -4.5095    1.3287    0.0000 C   0  0  0  0  0  0  0  0  0  0  0  0
   -4.3905    2.8240    0.0000 O   0  0  0  0  0  0  0  0  0  0  0  0
   -5.6260    3.6747    0.0000 C   0  0  0  0  0  0  0  0  0  0  0  0
   -5.5069    5.1700    0.0000 C   0  0  0  0  0  0  0  0  0  0  0  0
   -4.1525    5.8146    0.0000 O   0  0  0  0  0  0  0  0  0  0  0  0
   -6.9804    3.0302    0.0000 C   0  0  0  0  0  0  0  0  0  0  0  0
   -8.2159    3.8809    0.0000 O   0  0  0  0  0  0  0  0  0  0  0  0
   -7.0994    1.5349    0.0000 C   0  0  0  0  0  0  0  0  0  0  0  0
   -8.4539    0.8903    0.0000 O   0  0  0  0  0  0  0  0  0  0  0  0
   -5.8640    0.6842    0.0000 C   0  0  0  0  0  0  0  0  0  0  0  0
   -5.9830   -0.8111    0.0000 O   0  0  0  0  0  0  0  0  0  0  0  0
   -2.0387   -0.3727    0.0000 C   0  0  0  0  0  0  0  0  0  0  0  0
   -0.6842    0.2719    0.0000 C   0  0  0  0  0  0  0  0  0  0  0  0
    0.5512   -0.5788    0.0000 C   0  0  0  0  0  0  0  0  0  0  0  0
    1.7866   -1.4295    0.0000 C   0  0  0  0  0  0  0  0  0  0  0  0
    0.4322   -2.0741    0.0000 C   0  0  0  0  0  0  0  0  0  0  0  0
    1.6676   -2.9248    0.0000 C   0  0  0  0  0  0  0  0  0  0  0  0
    3.0221   -2.2802    0.0000 C   0  0  0  0  0  0  0  0  0  0  0  0
    3.1411   -0.7850    0.0000 C   0  0  0  0  0  0  0  0  0  0  0  0
    4.4955   -0.1404    0.0000 C   0  0  0  0  0  0  0  0  0  0  0  0
    4.3765   -1.6357    0.0000 C   0  0  0  0  0  0  0  0  0  0  0  0
    5.7310   -0.9911    0.0000 C   0  0  0  0  0  0  0  0  0  0  0  0
    7.0854   -0.3465    0.0000 C   0  0  0  0  0  0  0  0  0  0  0  0
    8.3209   -1.1972    0.0000 O   0  0  0  0  0  0  0  0  0  0  0  0
    7.2044    1.1487    0.0000 C   0  0  0  0  0  0  0  0  0  0  0  0
    8.5589    1.7933    0.0000 O   0  0  0  0  0  0  0  0  0  0  0  0
    5.9690    1.9994    0.0000 C   0  0  0  0  0  0  0  0  0  0  0  0
    5.0990    3.2214    0.0000 C   0  0  0  0  0  0  0  0  0  0  0  0
    3.6058    3.0789    0.0000 O   0  0  0  0  0  0  0  0  0  0  0  0
    7.0213    3.0684    0.0000 C   0  0  0  0  0  0  0  0  0  0  0  0
    6.6217    4.5142    0.0000 O   0  0  0  0  0  0  0  0  0  0  0  0
    4.6146    1.3549    0.0000 C   0  0  0  0  0  0  0  0  0  0  0  0
    3.3791    2.2056    0.0000 C   0  0  0  0  0  0  0  0  0  0  0  0
    2.0247    1.5610    0.0000 C   0  0  0  0  0  0  0  0  0  0  0  0
    1.9057    0.0657    0.0000 C   0  0  0  0  0  0  0  0  0  0  0  0
    0.6702    0.9165    0.0000 C   0  0  0  0  0  0  0  0  0  0  0  0
   -0.9223   -2.7187    0.0000 C   0  0  0  0  0  0  0  0  0  0  0  0
   -1.0413   -4.2139    0.0000 C   0  0  0  0  0  0  0  0  0  0  0  0
    0.4519   -4.0715    0.0000 C   0  0  0  0  0  0  0  0  0  0  0  0
   -0.6417   -5.6597    0.0000 O   0  0  0  0  0  0  0  0  0  0  0  0
  2  1  1  6
  2  3  1  0
  3  4  1  0
  4  5  1  0
  5  6  1  1
  6  7  2  0
  6  8  1  0
  9  8  1  1
  9 10  1  0
 10 11  1  0
 11 12  1  1
 12 13  1  0
 11 14  1  0
 14 15  1  6
 14 16  1  0
 16 17  1  1
 16 18  1  0
 18 19  1  6
  5 20  1  0
 20 21  1  0
 21 22  1  0
 22 23  1  6
 22 24  1  0
 24 25  2  0
 25 26  1  0
 27 26  1  1
 27 28  1  0
 28 29  1  1
 28 30  1  0
 30 31  1  0
 31 32  1  6
 31 33  1  0
 33 34  1  1
 33 35  1  0
 35 36  1  0
 36 37  1  0
 35 38  1  0
 38 39  1  0
 35 40  1  0
 40 41  1  1
 41 42  1  0
 42 43  1  0
 43 44  1  1
 45 24  1  6
 45 46  1  0
 46 47  1  1
 46 48  1  0
 46  2  1  0
 45  5  1  0
 18  9  1  0
 43 22  1  0
 43 27  1  0
 40 28  1  0
M  END
>  <identifier>  (546) 
CNP0195477.2

>  <canonical_smiles>  (546) 
C[C@@H]1CC[C@]2(C(=O)O[C@@H]3O[C@H](CO)[C@@H](O)[C@H](O)[C@H]3O)CC[C@]3(C)C(=CC[C@@H]4[C@@]5(C)C[C@@H](O)[C@H](O)C(CO)(CO)[C@@H]5CC[C@]43C)[C@@H]2[C@]1(C)O

>  <standard_inchi>  (546) 
InChI=1S/C36H58O12/c1-18-8-11-35(30(45)48-29-26(43)25(42)24(41)21(15-37)47-29)13-12-32(3)19(27(35)34(18,5)46)6-7-22-31(2)14-20(40)28(44)36(16-38,17-39)23(31)9-10-33(22,32)4/h6,18,20-29,37-44,46H,7-17H2,1-5H3/t18-,20-,21-,22-,23-,24-,25+,26-,27-,28+,29+,31-,32-,33-,34-,35+/m1/s1

>  <standard_inchi_key>  (546) 
PYVIEWYHDWMVSX-HACJWKKISA-N

>  <name>  (546) 
InChI=1/C36H58O12/c1-18-8-11-35(30(45)48-29-26(43)25(42)24(41)21(15-37)47-29)13-12-32(3)19(27(35)34(18,5)46)6-7-22-31(2)14-20(40)28(44)36(16-38,17-39)23(31)9-10-33(22,32)4/h6,18,20-29,37-44,46H,7-17H2,1-5H3/t18-,20-,21-,22-,23-,24-,25+,26-,27-,28+,29+,31-

>  <iupac_name>  (546) 
[(2~{S},3~{R},4~{S},5~{S},6~{R})-3,4,5-trihydroxy-6-(hydroxymethyl)tetrahydropyran-2-yl] (1~{R},2~{R},4~{a}~{S},6~{a}~{R},6~{a}~{S},6~{b}~{R},8~{a}~{R},10~{R},11~{R},12~{a}~{R},14~{b}~{S})-1,10,11-trihydroxy-9,9-bis(hydroxymethyl)-1,2,6~{a},6~{b},12~{a}-pentamethyl-2,3,4,5,6,6~{a},7,8,8~{a},10,11,12,13,14~{b}-tetradecahydropicene-4~{a}-carboxylate

>  <annotation_level>  (546) 
5

>  <total_atom_count>  (546) 
106

>  <heavy_atom_count>  (546) 
48

>  <molecular_weight>  (546) 
682.85

>  <exact_molecular_weight>  (546) 
682.39283

>  <molecular_formula>  (546) 
C36H58O12

>  <alogp>  (546) 
0.38

>  <topological_polar_surface_area>  (546) 
217.60

>  <rotatable_bond_count>  (546) 
5

>  <hydrogen_bond_acceptors>  (546) 
12

>  <hydrogen_bond_donors>  (546) 
9

>  <hydrogen_bond_acceptors_lipinski>  (546) 
12

>  <hydrogen_bond_donors_lipinski>  (546) 
9

>  <lipinski_rule_of_five_violations>  (546) 
3

>  <aromatic_rings_count>  (546) 
0

>  <qed_drug_likeliness>  (546) 
0.14

>  <formal_charge>  (546) 
0

>  <fractioncsp3>  (546) 
0.92

>  <number_of_minimal_rings>  (546) 
6

>  <van_der_walls_volume>  (546) 
621.23

>  <contains_sugar>  (546) 
True

>  <contains_ring_sugars>  (546) 
True

>  <contains_linear_sugars>  (546) 
False

>  <murcko_framework>  (546) 
O1CCCCC1OCC23CCCCC3C4=CCC5C(CCC6CCCCC65)C4CC2

>  <np_likeness>  (546) 
3.05

>  <chemical_class>  (546) 
Steroids and steroid derivatives

>  <chemical_sub_class>  (546) 
Hydroxysteroids

>  <chemical_super_class>  (546) 
Lipids and lipid-like molecules

>  <direct_parent_classification>  (546) 
Hydroxysteroids

>  <np_classifier_pathway>  (546) 
Terpenoids

>  <np_classifier_superclass>  (546) 
Triterpenoids

>  <np_classifier_class>  (546) 
Ursane and Taraxastane triterpenoids

>  <np_classifier_is_glycoside>  (546) 
True

>  <organisms>  (546) 
Rudgea viburnioides|Rudgea viburnoides|Trachelospermum asiaticum

>  <collections>  (546) 
ChemSpider NPs|Latin America dataset|NuBBEDB|Super Natural II|WikiData Natural Products

>  <dois>  (546) 
10.1021/NP9704617|10.1021/np9704617|10.1248/CPB.35.1748

>  <synonyms>  (546) 
Trachelosperosides B-1

>  <cas>  (546) 
nan

$$$$

     RDKit          2D

 30 33  0  0  0  0  0  0  0  0999 V2000
    3.4332   -3.9278    0.0000 C   0  0  0  0  0  0  0  0  0  0  0  0
    4.5237   -2.8979    0.0000 O   0  0  0  0  0  0  0  0  0  0  0  0
    4.1770   -1.4385    0.0000 C   0  0  0  0  0  0  0  0  0  0  0  0
    2.7398   -1.0091    0.0000 C   0  0  0  0  0  0  0  0  0  0  0  0
    2.3931    0.4503    0.0000 C   0  0  0  0  0  0  0  0  0  0  0  0
    0.9559    0.8797    0.0000 C   0  0  0  0  0  0  0  0  0  0  0  0
   -0.2363   -0.0306    0.0000 O   0  0  0  0  0  0  0  0  0  0  0  0
   -1.4705    0.8220    0.0000 C   0  0  0  0  0  0  0  0  0  0  0  0
   -2.8856    0.3246    0.0000 C   0  0  0  0  0  0  0  0  0  0  0  0
   -3.1625   -1.1496    0.0000 C   0  0  0  0  0  0  0  0  0  0  0  0
   -4.5776   -1.6470    0.0000 C   0  0  0  0  0  0  0  0  0  0  0  0
   -4.8545   -3.1212    0.0000 O   0  0  0  0  0  0  0  0  0  0  0  0
   -3.7162   -4.0981    0.0000 C   0  0  0  0  0  0  0  0  0  0  0  0
   -5.7159   -0.6701    0.0000 C   0  0  0  0  0  0  0  0  0  0  0  0
   -7.2036   -0.8623    0.0000 O   0  0  0  0  0  0  0  0  0  0  0  0
   -7.8461    0.4931    0.0000 C   0  0  0  0  0  0  0  0  0  0  0  0
   -6.7556    1.5230    0.0000 O   0  0  0  0  0  0  0  0  0  0  0  0
   -5.4391    0.8041    0.0000 C   0  0  0  0  0  0  0  0  0  0  0  0
   -4.0239    1.3015    0.0000 C   0  0  0  0  0  0  0  0  0  0  0  0
   -1.0411    2.2592    0.0000 C   0  0  0  0  0  0  0  0  0  0  0  0
   -1.9514    3.4514    0.0000 C   0  0  0  0  0  0  0  0  0  0  0  0
    0.4585    2.2949    0.0000 C   0  0  0  0  0  0  0  0  0  0  0  0
    1.3110    3.5291    0.0000 C   0  0  0  0  0  0  0  0  0  0  0  0
    3.4836    1.4803    0.0000 C   0  0  0  0  0  0  0  0  0  0  0  0
    4.9208    1.0508    0.0000 C   0  0  0  0  0  0  0  0  0  0  0  0
    6.0113    2.0808    0.0000 O   0  0  0  0  0  0  0  0  0  0  0  0
    7.4485    1.6513    0.0000 C   0  0  0  0  0  0  0  0  0  0  0  0
    5.2675   -0.4086    0.0000 C   0  0  0  0  0  0  0  0  0  0  0  0
    6.7047   -0.8380    0.0000 O   0  0  0  0  0  0  0  0  0  0  0  0
    7.0514   -2.2974    0.0000 C   0  0  0  0  0  0  0  0  0  0  0  0
  1  2  1  0
  2  3  1  0
  3  4  2  0
  4  5  1  0
  6  5  1  6
  6  7  1  0
  7  8  1  0
  8  9  1  6
  9 10  2  0
 10 11  1  0
 11 12  1  0
 12 13  1  0
 11 14  2  0
 14 15  1  0
 15 16  1  0
 16 17  1  0
 17 18  1  0
 18 19  2  0
  8 20  1  0
 20 21  1  1
 20 22  1  0
 22 23  1  6
  5 24  2  0
 24 25  1  0
 25 26  1  0
 26 27  1  0
 25 28  2  0
 28 29  1  0
 29 30  1  0
 28  3  1  0
 22  6  1  0
 19  9  1  0
 18 14  1  0
M  END
>  <identifier>  (547) 
CNP0207638.1

>  <canonical_smiles>  (547) 
COC1=CC([C@@H]2O[C@H](C3=CC(OC)=C4OCOC4=C3)[C@@H](C)[C@@H]2C)=CC(OC)=C1OC

>  <standard_inchi>  (547) 
InChI=1S/C23H28O7/c1-12-13(2)21(15-9-18(26-5)23-19(10-15)28-11-29-23)30-20(12)14-7-16(24-3)22(27-6)17(8-14)25-4/h7-10,12-13,20-21H,11H2,1-6H3/t12-,13-,20+,21-/m0/s1

>  <standard_inchi_key>  (547) 
RKSBJQZDPAGEQW-IRTBSJMASA-N

>  <name>  (547) 
rel-Methylenedioxy-tetramethoxy-epoxylignan

>  <iupac_name>  (547) 
6-[(2~{S},3~{S},4~{S},5~{R})-3,4-dimethyl-5-(3,4,5-trimethoxyphenyl)tetrahydrofuran-2-yl]-4-methoxy-1,3-benzodioxole

>  <annotation_level>  (547) 
5

>  <total_atom_count>  (547) 
58

>  <heavy_atom_count>  (547) 
30

>  <molecular_weight>  (547) 
416.47

>  <exact_molecular_weight>  (547) 
416.1835

>  <molecular_formula>  (547) 
C23H28O7

>  <alogp>  (547) 
4.53

>  <topological_polar_surface_area>  (547) 
64.61

>  <rotatable_bond_count>  (547) 
6

>  <hydrogen_bond_acceptors>  (547) 
7

>  <hydrogen_bond_donors>  (547) 
0

>  <hydrogen_bond_acceptors_lipinski>  (547) 
7

>  <hydrogen_bond_donors_lipinski>  (547) 
0

>  <lipinski_rule_of_five_violations>  (547) 
0

>  <aromatic_rings_count>  (547) 
2

>  <qed_drug_likeliness>  (547) 
0.69

>  <formal_charge>  (547) 
0

>  <fractioncsp3>  (547) 
0.48

>  <number_of_minimal_rings>  (547) 
4

>  <van_der_walls_volume>  (547) 
378.19

>  <contains_sugar>  (547) 
False

>  <contains_ring_sugars>  (547) 
False

>  <contains_linear_sugars>  (547) 
False

>  <murcko_framework>  (547) 
O1c2ccc(cc2OC1)C3OC(c4ccccc4)CC3

>  <np_likeness>  (547) 
0.96

>  <chemical_class>  (547) 
Furanoid lignans

>  <chemical_sub_class>  (547) 
Tetrahydrofuran lignans

>  <chemical_super_class>  (547) 
Lignans, neolignans and related compounds

>  <direct_parent_classification>  (547) 
7,7'-epoxylignans

>  <np_classifier_pathway>  (547) 
Shikimates and Phenylpropanoids

>  <np_classifier_superclass>  (547) 
Lignans

>  <np_classifier_class>  (547) 
Furanoid lignans

>  <np_classifier_is_glycoside>  (547) 
False

>  <organisms>  (547) 
Peperomia blanda

>  <collections>  (547) 
ChemSpider NPs|Latin America dataset|NuBBEDB|Super Natural II|WikiData Natural Products|ZINC NP

>  <dois>  (547) 
10.1016/J.PHYTOCHEM.2007.08.012|10.1016/j.phytochem.2007.08.012

>  <synonyms>  (547) 
6-[(2S,3S,4S,5R)-3,4-dimethyl-5-(3,4,5-trimethoxyphenyl)tetrahydrofuran-2-yl]-4-methoxy-1,3-benzodioxole|Rel-(7R8S7'S8'S)-4'5'-methylenedioxy-3453'-tetramethoxy-77'-epoxylignan

>  <cas>  (547) 
nan

$$$$

     RDKit          2D

 25 26  0  0  0  0  0  0  0  0999 V2000
   -4.7054   -3.8971    0.0000 C   0  0  0  0  0  0  0  0  0  0  0  0
   -5.2651   -2.5054    0.0000 S   0  0  0  0  0  0  0  0  0  0  0  0
   -4.3397   -1.3249    0.0000 C   0  0  0  0  0  0  0  0  0  0  0  0
   -4.8994    0.0668    0.0000 C   0  0  0  0  0  0  0  0  0  0  0  0
   -6.3844    0.2779    0.0000 O   0  0  0  0  0  0  0  0  0  0  0  0
   -3.9740    1.2473    0.0000 N   0  0  0  0  0  0  0  0  0  0  0  0
   -4.5337    2.6390    0.0000 C   0  0  0  0  0  0  0  0  0  0  0  0
   -2.4889    1.0362    0.0000 C   0  0  0  0  0  0  0  0  0  0  0  0
   -1.5635    2.2167    0.0000 C   0  0  0  0  0  0  0  0  0  0  0  0
   -0.0785    2.0056    0.0000 C   0  0  0  0  0  0  0  0  0  0  0  0
    0.4812    0.6139    0.0000 C   0  0  0  0  0  0  0  0  0  0  0  0
    1.9663    0.4027    0.0000 C   0  0  0  0  0  0  0  0  0  0  0  0
    2.8917    1.5833    0.0000 C   0  0  0  0  0  0  0  0  0  0  0  0
    4.3767    1.3721    0.0000 O   0  0  0  0  0  0  0  0  0  0  0  0
    4.9364   -0.0196    0.0000 C   0  0  0  0  0  0  0  0  0  0  0  0
    6.4215   -0.2307    0.0000 C   0  0  0  0  0  0  0  0  0  0  0  0
    6.9811   -1.6224    0.0000 C   0  0  0  0  0  0  0  0  0  0  0  0
    8.4662   -1.8335    0.0000 C   0  0  0  0  0  0  0  0  0  0  0  0
    6.0557   -2.8029    0.0000 C   0  0  0  0  0  0  0  0  0  0  0  0
    2.3320    2.9749    0.0000 C   0  0  0  0  0  0  0  0  0  0  0  0
    0.8469    3.1861    0.0000 C   0  0  0  0  0  0  0  0  0  0  0  0
   -1.9293   -0.3555    0.0000 C   0  0  0  0  0  0  0  0  0  0  0  0
   -0.4442   -0.5667    0.0000 O   0  0  0  0  0  0  0  0  0  0  0  0
   -2.8546   -1.5360    0.0000 N   0  0  0  0  0  0  0  0  0  0  0  0
   -2.2950   -2.9277    0.0000 C   0  0  0  0  0  0  0  0  0  0  0  0
  1  2  1  0
  3  2  1  6
  3  4  1  0
  4  5  2  0
  4  6  1  0
  6  7  1  0
  6  8  1  0
  8  9  2  3
  9 10  1  0
 10 11  2  0
 11 12  1  0
 12 13  2  0
 13 14  1  0
 14 15  1  0
 15 16  1  0
 16 17  2  0
 17 18  1  0
 17 19  1  0
 13 20  1  0
 20 21  2  0
  8 22  1  0
 22 23  2  0
 22 24  1  0
 24 25  1  0
 24  3  1  0
 21 10  1  0
M  END
>  <identifier>  (548) 
CNP0155609.1

>  <canonical_smiles>  (548) 
CS[C@@H]1C(=O)N(C)C(=CC2=CC=C(OCC=C(C)C)C=C2)C(=O)N1C

>  <standard_inchi>  (548) 
InChI=1S/C19H24N2O3S/c1-13(2)10-11-24-15-8-6-14(7-9-15)12-16-17(22)21(4)19(25-5)18(23)20(16)3/h6-10,12,19H,11H2,1-5H3/t19-/m1/s1

>  <standard_inchi_key>  (548) 
QXYMNBLAEDQYLV-LJQANCHMSA-N

>  <name>  (548) 
nan

>  <iupac_name>  (548) 
(6~{R})-1,4-dimethyl-3-[[4-(3-methylbut-2-enoxy)phenyl]methylene]-6-methylsulfanyl-piperazine-2,5-dione

>  <annotation_level>  (548) 
4

>  <total_atom_count>  (548) 
49

>  <heavy_atom_count>  (548) 
25

>  <molecular_weight>  (548) 
360.48

>  <exact_molecular_weight>  (548) 
360.15076

>  <molecular_formula>  (548) 
C19H24N2O3S

>  <alogp>  (548) 
2.99

>  <topological_polar_surface_area>  (548) 
49.85

>  <rotatable_bond_count>  (548) 
5

>  <hydrogen_bond_acceptors>  (548) 
4

>  <hydrogen_bond_donors>  (548) 
0

>  <hydrogen_bond_acceptors_lipinski>  (548) 
4

>  <hydrogen_bond_donors_lipinski>  (548) 
0

>  <lipinski_rule_of_five_violations>  (548) 
0

>  <aromatic_rings_count>  (548) 
1

>  <qed_drug_likeliness>  (548) 
0.60

>  <formal_charge>  (548) 
0

>  <fractioncsp3>  (548) 
0.37

>  <number_of_minimal_rings>  (548) 
2

>  <van_der_walls_volume>  (548) 
nan

>  <contains_sugar>  (548) 
False

>  <contains_ring_sugars>  (548) 
False

>  <contains_linear_sugars>  (548) 
False

>  <murcko_framework>  (548) 
c1ccc(cc1)C=C2NCCNC2

>  <np_likeness>  (548) 
0.58

>  <chemical_class>  (548) 
Carboxylic acids and derivatives

>  <chemical_sub_class>  (548) 
Amino acids, peptides, and analogues

>  <chemical_super_class>  (548) 
Organic acids and derivatives

>  <direct_parent_classification>  (548) 
Alpha amino acids

>  <np_classifier_pathway>  (548) 
Alkaloids

>  <np_classifier_superclass>  (548) 
Peptide alkaloids

>  <np_classifier_class>  (548) 
Thiodiketopiperazine alkaloids

>  <np_classifier_is_glycoside>  (548) 
False

>  <organisms>  (548) 
Penicillium crustosum

>  <collections>  (548) 
Latin America dataset|NuBBEDB

>  <dois>  (548) 
10.1016/j.phytochem.2010.05.012

>  <synonyms>  (548) 
Fusaperazine E

>  <cas>  (548) 
nan

$$$$

     RDKit          2D

 30 32  0  0  0  0  0  0  0  0999 V2000
   -6.5554   -3.8599    0.0000 C   0  0  0  0  0  0  0  0  0  0  0  0
   -5.5661   -2.7324    0.0000 C   0  0  0  0  0  0  0  0  0  0  0  0
   -6.0478   -1.3119    0.0000 O   0  0  0  0  0  0  0  0  0  0  0  0
   -4.0950   -3.0255    0.0000 O   0  0  0  0  0  0  0  0  0  0  0  0
   -3.1057   -1.8980    0.0000 C   0  0  0  0  0  0  0  0  0  0  0  0
   -3.5874   -0.4775    0.0000 C   0  0  0  0  0  0  0  0  0  0  0  0
   -2.5981    0.6500    0.0000 C   0  0  0  0  0  0  0  0  0  0  0  0
   -3.0798    2.0705    0.0000 O   0  0  0  0  0  0  0  0  0  0  0  0
   -4.5509    2.3636    0.0000 C   0  0  0  0  0  0  0  0  0  0  0  0
   -5.0327    3.7841    0.0000 C   0  0  0  0  0  0  0  0  0  0  0  0
   -5.5403    1.2361    0.0000 O   0  0  0  0  0  0  0  0  0  0  0  0
   -1.1270    0.3570    0.0000 C   0  0  0  0  0  0  0  0  0  0  0  0
   -0.1376    1.4844    0.0000 C   0  0  0  0  0  0  0  0  0  0  0  0
    1.3335    1.1914    0.0000 C   0  0  0  0  0  0  0  0  0  0  0  0
    2.3228    2.3189    0.0000 O   0  0  0  0  0  0  0  0  0  0  0  0
    1.8410    3.7394    0.0000 C   0  0  0  0  0  0  0  0  0  0  0  0
    2.8304    4.8669    0.0000 C   0  0  0  0  0  0  0  0  0  0  0  0
    0.3700    4.0324    0.0000 O   0  0  0  0  0  0  0  0  0  0  0  0
    1.8152   -0.2292    0.0000 C   0  0  0  0  0  0  0  0  0  0  0  0
    3.2863   -0.5222    0.0000 C   0  0  0  0  0  0  0  0  0  0  0  0
    4.2756    0.6053    0.0000 C   0  0  0  0  0  0  0  0  0  0  0  0
    5.7467    0.3122    0.0000 C   0  0  0  0  0  0  0  0  0  0  0  0
    6.2285   -1.1083    0.0000 C   0  0  0  0  0  0  0  0  0  0  0  0
    7.6996   -1.4014    0.0000 O   0  0  0  0  0  0  0  0  0  0  0  0
    5.2392   -2.2358    0.0000 C   0  0  0  0  0  0  0  0  0  0  0  0
    5.7209   -3.6563    0.0000 O   0  0  0  0  0  0  0  0  0  0  0  0
    3.7681   -1.9427    0.0000 C   0  0  0  0  0  0  0  0  0  0  0  0
    0.8259   -1.3566    0.0000 O   0  0  0  0  0  0  0  0  0  0  0  0
   -0.6452   -1.0636    0.0000 C   0  0  0  0  0  0  0  0  0  0  0  0
   -1.6346   -2.1910    0.0000 C   0  0  0  0  0  0  0  0  0  0  0  0
  1  2  1  0
  2  3  2  0
  2  4  1  0
  4  5  1  0
  5  6  2  0
  6  7  1  0
  7  8  1  0
  8  9  1  0
  9 10  1  0
  9 11  2  0
  7 12  2  0
 12 13  1  0
 13 14  1  0
 14 15  1  1
 15 16  1  0
 16 17  1  0
 16 18  2  0
 14 19  1  0
 19 20  1  0
 20 21  2  0
 21 22  1  0
 22 23  2  0
 23 24  1  0
 23 25  1  0
 25 26  1  0
 25 27  2  0
 19 28  1  0
 28 29  1  0
 29 30  2  0
 30  5  1  0
 29 12  1  0
 27 20  1  0
M  END
>  <identifier>  (549) 
CNP0080473.1

>  <canonical_smiles>  (549) 
CC(=O)OC1=CC(OC(C)=O)=C2C[C@@H](OC(C)=O)C(C3=CC=C(O)C(O)=C3)OC2=C1

>  <standard_inchi>  (549) 
InChI=1S/C21H20O9/c1-10(22)27-14-7-18(28-11(2)23)15-9-20(29-12(3)24)21(30-19(15)8-14)13-4-5-16(25)17(26)6-13/h4-8,20-21,25-26H,9H2,1-3H3/t20-,21?/m1/s1

>  <standard_inchi_key>  (549) 
OHIKEQXDMBTKFE-VQCQRNETSA-N

>  <name>  (549) 
nan

>  <iupac_name>  (549) 
[(3~{R})-3,5-diacetoxy-2-(3,4-dihydroxyphenyl)chroman-7-yl] acetate

>  <annotation_level>  (549) 
4

>  <total_atom_count>  (549) 
50

>  <heavy_atom_count>  (549) 
30

>  <molecular_weight>  (549) 
416.38

>  <exact_molecular_weight>  (549) 
416.11073

>  <molecular_formula>  (549) 
C21H20O9

>  <alogp>  (549) 
2.56

>  <topological_polar_surface_area>  (549) 
128.59

>  <rotatable_bond_count>  (549) 
4

>  <hydrogen_bond_acceptors>  (549) 
9

>  <hydrogen_bond_donors>  (549) 
2

>  <hydrogen_bond_acceptors_lipinski>  (549) 
9

>  <hydrogen_bond_donors_lipinski>  (549) 
2

>  <lipinski_rule_of_five_violations>  (549) 
0

>  <aromatic_rings_count>  (549) 
2

>  <qed_drug_likeliness>  (549) 
0.44

>  <formal_charge>  (549) 
0

>  <fractioncsp3>  (549) 
0.29

>  <number_of_minimal_rings>  (549) 
3

>  <van_der_walls_volume>  (549) 
nan

>  <contains_sugar>  (549) 
False

>  <contains_ring_sugars>  (549) 
False

>  <contains_linear_sugars>  (549) 
False

>  <murcko_framework>  (549) 
O1c2ccccc2CCC1c3ccccc3

>  <np_likeness>  (549) 
1.73

>  <chemical_class>  (549) 
Flavonoids

>  <chemical_sub_class>  (549) 
Flavans

>  <chemical_super_class>  (549) 
Phenylpropanoids and polyketides

>  <direct_parent_classification>  (549) 
Catechins

>  <np_classifier_pathway>  (549) 
Shikimates and Phenylpropanoids

>  <np_classifier_superclass>  (549) 
Flavonoids

>  <np_classifier_class>  (549) 
Flavan-3-ols

>  <np_classifier_is_glycoside>  (549) 
False

>  <organisms>  (549) 
Byrsonima coccolobifolia

>  <collections>  (549) 
Latin America dataset|NuBBEDB|WikiData Natural Products

>  <dois>  (549) 
10.1021/NP400717M|10.1021/np400717m

>  <synonyms>  (549) 
357-triacetylcatechin

>  <cas>  (549) 
nan

$$$$

     RDKit          2D

 17 19  0  0  0  0  0  0  0  0999 V2000
    3.7388   -1.8318    0.0000 C   0  0  0  0  0  0  0  0  0  0  0  0
    2.6986   -0.7510    0.0000 C   0  0  0  0  0  0  0  0  0  0  0  0
    2.9616    0.7257    0.0000 C   0  0  0  0  0  0  0  0  0  0  0  0
    4.3109    1.3810    0.0000 O   0  0  0  0  0  0  0  0  0  0  0  0
    1.6384    1.4322    0.0000 O   0  0  0  0  0  0  0  0  0  0  0  0
    0.5576    0.3921    0.0000 C   0  0  0  0  0  0  0  0  0  0  0  0
    1.2129   -0.9572    0.0000 C   0  0  0  0  0  0  0  0  0  0  0  0
    0.5665   -2.3108    0.0000 C   0  0  0  0  0  0  0  0  0  0  0  0
   -0.8948   -2.6494    0.0000 C   0  0  0  0  0  0  0  0  0  0  0  0
   -2.0706   -1.7180    0.0000 C   0  0  0  0  0  0  0  0  0  0  0  0
   -3.4199   -2.3733    0.0000 C   0  0  0  0  0  0  0  0  0  0  0  0
   -2.0755   -0.2180    0.0000 C   0  0  0  0  0  0  0  0  0  0  0  0
   -3.3301    0.6042    0.0000 C   0  0  0  0  0  0  0  0  0  0  0  0
   -2.9358    2.0515    0.0000 C   0  0  0  0  0  0  0  0  0  0  0  0
   -1.4375    2.1237    0.0000 C   0  0  0  0  0  0  0  0  0  0  0  0
   -0.6153    3.3782    0.0000 C   0  0  0  0  0  0  0  0  0  0  0  0
   -0.9059    0.7211    0.0000 C   0  0  0  0  0  0  0  0  0  0  0  0
  1  2  2  0
  2  3  1  0
  3  4  2  0
  3  5  1  0
  6  5  1  1
  6  7  1  0
  7  8  1  0
  8  9  1  0
  9 10  1  0
 10 11  2  0
 10 12  1  0
 12 13  1  6
 13 14  1  0
 14 15  1  0
 15 16  2  0
 17 15  1  6
  7  2  1  0
 17 12  1  0
 17  6  1  0
M  END
>  <identifier>  (550) 
CNP0138595.1

>  <canonical_smiles>  (550) 
C=C1C(=O)O[C@H]2C1CCC(=C)[C@@H]1CCC(=C)[C@@H]12

>  <standard_inchi>  (550) 
InChI=1S/C15H18O2/c1-8-4-7-12-10(3)15(16)17-14(12)13-9(2)5-6-11(8)13/h11-14H,1-7H2/t11-,12?,13-,14-/m0/s1

>  <standard_inchi_key>  (550) 
NETSQGRTUNRXEO-FTKZKSHWSA-N

>  <name>  (550) 
nan

>  <iupac_name>  (550) 
(6~{a}~{R},9~{a}~{R},9~{b}~{S})-3,6,9-trimethylene-3~{a},4,5,6~{a},7,8,9~{a},9~{b}-octahydroazuleno[4,5-b]furan-2-one

>  <annotation_level>  (550) 
5

>  <total_atom_count>  (550) 
35

>  <heavy_atom_count>  (550) 
17

>  <molecular_weight>  (550) 
230.31

>  <exact_molecular_weight>  (550) 
230.13068

>  <molecular_formula>  (550) 
C15H18O2

>  <alogp>  (550) 
3.02

>  <topological_polar_surface_area>  (550) 
26.30

>  <rotatable_bond_count>  (550) 
0

>  <hydrogen_bond_acceptors>  (550) 
2

>  <hydrogen_bond_donors>  (550) 
0

>  <hydrogen_bond_acceptors_lipinski>  (550) 
2

>  <hydrogen_bond_donors_lipinski>  (550) 
0

>  <lipinski_rule_of_five_violations>  (550) 
0

>  <aromatic_rings_count>  (550) 
0

>  <qed_drug_likeliness>  (550) 
0.36

>  <formal_charge>  (550) 
0

>  <fractioncsp3>  (550) 
0.53

>  <number_of_minimal_rings>  (550) 
3

>  <van_der_walls_volume>  (550) 
220.93

>  <contains_sugar>  (550) 
False

>  <contains_ring_sugars>  (550) 
False

>  <contains_linear_sugars>  (550) 
False

>  <murcko_framework>  (550) 
O1CCC2CCCC3CCCC3C12

>  <np_likeness>  (550) 
3.00

>  <chemical_class>  (550) 
Prenol lipids

>  <chemical_sub_class>  (550) 
Terpene lactones

>  <chemical_super_class>  (550) 
Lipids and lipid-like molecules

>  <direct_parent_classification>  (550) 
Guaianolides and derivatives

>  <np_classifier_pathway>  (550) 
Terpenoids

>  <np_classifier_superclass>  (550) 
Sesquiterpenoids

>  <np_classifier_class>  (550) 
Guaiane sesquiterpenoids

>  <np_classifier_is_glycoside>  (550) 
False

>  <organisms>  (550) 
Asteraceae|Cosmos pringlei|Mochinea polymorpha

>  <collections>  (550) 
BIOFACQUIM|Latin America dataset|NuBBEDB|WikiData Natural Products

>  <dois>  (550) 
10.1021/NP50032A021|10.1021/np010615p|10.1021/np50032a021

>  <synonyms>  (550) 
Dehydrocostus lactone

>  <cas>  (550) 
nan

$$$$

     RDKit          2D

 31 35  0  0  0  0  0  0  0  0999 V2000
    2.9926   -3.0689    0.0000 C   0  0  0  0  0  0  0  0  0  0  0  0
    4.3603   -2.4531    0.0000 C   0  0  0  0  0  0  0  0  0  0  0  0
    5.5775   -3.3297    0.0000 C   0  0  0  0  0  0  0  0  0  0  0  0
    4.5109   -0.9607    0.0000 C   0  0  0  0  0  0  0  0  0  0  0  0
    5.8068   -0.2053    0.0000 C   0  0  0  0  0  0  0  0  0  0  0  0
    5.4888    1.2606    0.0000 C   0  0  0  0  0  0  0  0  0  0  0  0
    3.9964    1.4112    0.0000 C   0  0  0  0  0  0  0  0  0  0  0  0
    4.7410    2.7133    0.0000 C   0  0  0  0  0  0  0  0  0  0  0  0
    3.1097    2.6210    0.0000 C   0  0  0  0  0  0  0  0  0  0  0  0
    1.6185    2.4580    0.0000 C   0  0  0  0  0  0  0  0  0  0  0  0
    1.0142    1.0852    0.0000 C   0  0  0  0  0  0  0  0  0  0  0  0
    0.1274    2.2950    0.0000 C   0  0  0  0  0  0  0  0  0  0  0  0
    1.9009   -0.1247    0.0000 C   0  0  0  0  0  0  0  0  0  0  0  0
    1.2965   -1.4975    0.0000 C   0  0  0  0  0  0  0  0  0  0  0  0
   -0.1946   -1.6605    0.0000 C   0  0  0  0  0  0  0  0  0  0  0  0
   -1.0813   -0.4507    0.0000 C   0  0  0  0  0  0  0  0  0  0  0  0
   -2.5724   -0.6137    0.0000 C   0  0  0  0  0  0  0  0  0  0  0  0
   -1.6857   -1.8236    0.0000 C   0  0  0  0  0  0  0  0  0  0  0  0
   -3.1768   -1.9866    0.0000 C   0  0  0  0  0  0  0  0  0  0  0  0
   -4.6679   -2.1496    0.0000 C   0  0  0  0  0  0  0  0  0  0  0  0
   -5.5547   -0.9397    0.0000 C   0  0  0  0  0  0  0  0  0  0  0  0
   -7.0458   -1.1028    0.0000 O   0  0  0  0  0  0  0  0  0  0  0  0
   -4.9503    0.4331    0.0000 C   0  0  0  0  0  0  0  0  0  0  0  0
   -4.8519    1.9299    0.0000 C   0  0  0  0  0  0  0  0  0  0  0  0
   -6.4072    0.7899    0.0000 C   0  0  0  0  0  0  0  0  0  0  0  0
   -3.4592    0.5961    0.0000 C   0  0  0  0  0  0  0  0  0  0  0  0
   -2.8548    1.9690    0.0000 C   0  0  0  0  0  0  0  0  0  0  0  0
   -1.3637    2.1320    0.0000 C   0  0  0  0  0  0  0  0  0  0  0  0
   -0.4769    0.9221    0.0000 C   0  0  0  0  0  0  0  0  0  0  0  0
    0.4098   -0.2877    0.0000 C   0  0  0  0  0  0  0  0  0  0  0  0
    3.3920    0.0383    0.0000 C   0  0  0  0  0  0  0  0  0  0  0  0
  1  2  2  0
  2  3  1  0
  4  2  1  1
  4  5  1  0
  5  6  1  0
  6  7  1  0
  7  8  1  6
  7  9  1  0
  9 10  1  0
 10 11  1  0
 11 12  1  1
 11 13  1  0
 13 14  1  1
 14 15  2  0
 16 15  1  6
 16 17  1  0
 17 18  1  6
 17 19  1  0
 19 20  1  0
 20 21  1  0
 21 22  1  6
 21 23  1  0
 23 24  1  0
 23 25  1  0
 23 26  1  0
 26 27  1  6
 27 28  1  0
 28 29  1  0
 29 30  1  6
 13 31  1  0
 31  4  1  6
 31  7  1  0
 29 11  1  0
 29 16  1  0
 26 17  1  0
M  END
>  <identifier>  (551) 
CNP0107026.1

>  <canonical_smiles>  (551) 
C=C(C)[C@@H]1CC[C@]2(C)CC[C@]3(C)[C@H](C=C[C@@H]4[C@@]5(C)CC[C@H](O)C(C)(C)[C@@H]5CC[C@]43C)[C@@H]12

>  <standard_inchi>  (551) 
InChI=1S/C30H48O/c1-19(2)20-11-14-27(5)17-18-29(7)21(25(20)27)9-10-23-28(6)15-13-24(31)26(3,4)22(28)12-16-30(23,29)8/h9-10,20-25,31H,1,11-18H2,2-8H3/t20-,21+,22-,23+,24-,25+,27+,28-,29+,30+/m0/s1

>  <standard_inchi_key>  (551) 
BNJAEYBJKIOONR-QGTGJCAVSA-N

>  <name>  (551) 
nan

>  <iupac_name>  (551) 
(1~{R},3~{a}~{R},5~{a}~{R},5~{b}~{R},7~{a}~{R},9~{S},11~{a}~{S},11~{b}~{R},13~{a}~{R},13~{b}~{R})-1-isopropenyl-3~{a},5~{a},5~{b},8,8,11~{a}-hexamethyl-1,2,3,4,5,6,7,7~{a},9,10,11,11~{b},13~{a},13~{b}-tetradecahydrocyclopenta[a]chrysen-9-ol

>  <annotation_level>  (551) 
4

>  <total_atom_count>  (551) 
79

>  <heavy_atom_count>  (551) 
31

>  <molecular_weight>  (551) 
424.71

>  <exact_molecular_weight>  (551) 
424.37052

>  <molecular_formula>  (551) 
C30H48O

>  <alogp>  (551) 
7.80

>  <topological_polar_surface_area>  (551) 
20.23

>  <rotatable_bond_count>  (551) 
1

>  <hydrogen_bond_acceptors>  (551) 
1

>  <hydrogen_bond_donors>  (551) 
1

>  <hydrogen_bond_acceptors_lipinski>  (551) 
1

>  <hydrogen_bond_donors_lipinski>  (551) 
1

>  <lipinski_rule_of_five_violations>  (551) 
1

>  <aromatic_rings_count>  (551) 
0

>  <qed_drug_likeliness>  (551) 
0.43

>  <formal_charge>  (551) 
0

>  <fractioncsp3>  (551) 
0.87

>  <number_of_minimal_rings>  (551) 
5

>  <van_der_walls_volume>  (551) 
nan

>  <contains_sugar>  (551) 
False

>  <contains_ring_sugars>  (551) 
False

>  <contains_linear_sugars>  (551) 
False

>  <murcko_framework>  (551) 
C1=CC2C3CCCC3CCC2C4CCC5CCCCC5C14

>  <np_likeness>  (551) 
3.07

>  <chemical_class>  (551) 
Prenol lipids

>  <chemical_sub_class>  (551) 
Triterpenoids

>  <chemical_super_class>  (551) 
Lipids and lipid-like molecules

>  <direct_parent_classification>  (551) 
Lupane triterpenoids

>  <np_classifier_pathway>  (551) 
Terpenoids

>  <np_classifier_superclass>  (551) 
Triterpenoids

>  <np_classifier_class>  (551) 
Lupane triterpenoids

>  <np_classifier_is_glycoside>  (551) 
False

>  <organisms>  (551) 
Aspergillus ochraceus

>  <collections>  (551) 
Latin America dataset|NuBBEDB|WikiData Natural Products

>  <dois>  (551) 
10.3390/MOLECULES15096140|10.3390/molecules15096140

>  <synonyms>  (551) 
Lupeol derivative 3

>  <cas>  (551) 
nan

$$$$

     RDKit          2D

 19 21  0  0  0  0  0  0  0  0999 V2000
   -4.6766    0.8309    0.0000 C   0  0  0  0  0  0  0  0  0  0  0  0
   -3.1850    0.9894    0.0000 C   0  0  0  0  0  0  0  0  0  0  0  0
   -3.6001    2.4308    0.0000 C   0  0  0  0  0  0  0  0  0  0  0  0
   -1.8375    1.6485    0.0000 O   0  0  0  0  0  0  0  0  0  0  0  0
   -0.5931    0.8111    0.0000 C   0  0  0  0  0  0  0  0  0  0  0  0
    0.7544    1.4702    0.0000 C   0  0  0  0  0  0  0  0  0  0  0  0
    1.9989    0.6328    0.0000 C   0  0  0  0  0  0  0  0  0  0  0  0
    1.8959   -0.8637    0.0000 C   0  0  0  0  0  0  0  0  0  0  0  0
    3.1404   -1.7011    0.0000 C   0  0  0  0  0  0  0  0  0  0  0  0
    4.4879   -1.0420    0.0000 C   0  0  0  0  0  0  0  0  0  0  0  0
    4.5908    0.4544    0.0000 C   0  0  0  0  0  0  0  0  0  0  0  0
    5.9383    1.1135    0.0000 O   0  0  0  0  0  0  0  0  0  0  0  0
    3.3463    1.2918    0.0000 O   0  0  0  0  0  0  0  0  0  0  0  0
    0.5485   -1.5228    0.0000 C   0  0  0  0  0  0  0  0  0  0  0  0
   -0.6960   -0.6854    0.0000 C   0  0  0  0  0  0  0  0  0  0  0  0
   -2.0435   -1.3444    0.0000 C   0  0  0  0  0  0  0  0  0  0  0  0
   -2.1464   -2.8409    0.0000 O   0  0  0  0  0  0  0  0  0  0  0  0
   -3.2880   -0.5070    0.0000 C   0  0  0  0  0  0  0  0  0  0  0  0
   -4.6354   -1.1661    0.0000 O   0  0  0  0  0  0  0  0  0  0  0  0
  1  2  1  0
  2  3  1  0
  2  4  1  0
  4  5  1  0
  5  6  2  0
  6  7  1  0
  7  8  2  0
  8  9  1  0
  9 10  2  0
 10 11  1  0
 11 12  2  0
 11 13  1  0
  8 14  1  0
 14 15  2  0
 15 16  1  0
 16 17  1  1
 16 18  1  0
 18 19  1  6
 18  2  1  0
 15  5  1  0
 13  7  1  0
M  END
>  <identifier>  (552) 
CNP0351671.1

>  <canonical_smiles>  (552) 
CC1(C)OC2=CC3=C(C=CC(=O)O3)C=C2[C@@H](O)[C@@H]1O

>  <standard_inchi>  (552) 
InChI=1S/C14H14O5/c1-14(2)13(17)12(16)8-5-7-3-4-11(15)18-9(7)6-10(8)19-14/h3-6,12-13,16-17H,1-2H3/t12-,13+/m1/s1

>  <standard_inchi_key>  (552) 
SLXYBYCLCBXBFK-OLZOCXBDSA-N

>  <name>  (552) 
(3S,4R)-3,4-dihydroxy-2,2-dimethyl-3,4-dihydropyrano[3,2-g]chromen-8-one

>  <iupac_name>  (552) 
(3~{S},4~{R})-3,4-dihydroxy-2,2-dimethyl-3,4-dihydropyrano[3,2-g]chromen-8-one

>  <annotation_level>  (552) 
5

>  <total_atom_count>  (552) 
33

>  <heavy_atom_count>  (552) 
19

>  <molecular_weight>  (552) 
262.26

>  <exact_molecular_weight>  (552) 
262.08412

>  <molecular_formula>  (552) 
C14H14O5

>  <alogp>  (552) 
1.36

>  <topological_polar_surface_area>  (552) 
79.90

>  <rotatable_bond_count>  (552) 
0

>  <hydrogen_bond_acceptors>  (552) 
5

>  <hydrogen_bond_donors>  (552) 
2

>  <hydrogen_bond_acceptors_lipinski>  (552) 
5

>  <hydrogen_bond_donors_lipinski>  (552) 
2

>  <lipinski_rule_of_five_violations>  (552) 
0

>  <aromatic_rings_count>  (552) 
2

>  <qed_drug_likeliness>  (552) 
0.70

>  <formal_charge>  (552) 
0

>  <fractioncsp3>  (552) 
0.36

>  <number_of_minimal_rings>  (552) 
3

>  <van_der_walls_volume>  (552) 
224.40

>  <contains_sugar>  (552) 
False

>  <contains_ring_sugars>  (552) 
False

>  <contains_linear_sugars>  (552) 
False

>  <murcko_framework>  (552) 
O1c2cc3OCCCc3cc2C=CC1

>  <np_likeness>  (552) 
2.10

>  <chemical_class>  (552) 
Coumarins and derivatives

>  <chemical_sub_class>  (552) 
Pyranocoumarins

>  <chemical_super_class>  (552) 
Phenylpropanoids and polyketides

>  <direct_parent_classification>  (552) 
Linear pyranocoumarins

>  <np_classifier_pathway>  (552) 
Shikimates and Phenylpropanoids

>  <np_classifier_superclass>  (552) 
Coumarins

>  <np_classifier_class>  (552) 
Pyranocoumarins

>  <np_classifier_is_glycoside>  (552) 
False

>  <organisms>  (552) 
Angelica decursiva|Citrus sinensis|Citrus sulcata|Halosciastrum melanotilingia

>  <collections>  (552) 
CMAUP (cCollective molecular activities of useful plants)|Latin America dataset|NPASS|NuBBEDB|Super Natural II|WikiData Natural Products|ZINC NP

>  <dois>  (552) 
10.1021/jf801103p|10.1055/S-0036-1596440|10.1248/CPB.39.2509

>  <synonyms>  (552) 
(3S,4R)-3,4-dihydroxy-2,2-dimethyl-3,4-dihydropyrano[3,2-g]chromen-8-one|BDBM50591779|CHEMBL5191516|Trans-decursidinol

>  <cas>  (552) 
nan

$$$$

     RDKit          2D

 28 31  0  0  0  0  0  0  0  0999 V2000
   -4.2321    3.9232    0.0000 C   0  0  0  0  0  0  0  0  0  0  0  0
   -5.1147    2.7103    0.0000 O   0  0  0  0  0  0  0  0  0  0  0  0
   -4.5056    1.3395    0.0000 C   0  0  0  0  0  0  0  0  0  0  0  0
   -3.0140    1.1816    0.0000 C   0  0  0  0  0  0  0  0  0  0  0  0
   -2.4049   -0.1892    0.0000 C   0  0  0  0  0  0  0  0  0  0  0  0
   -0.9132   -0.3471    0.0000 C   0  0  0  0  0  0  0  0  0  0  0  0
   -0.3042   -1.7179    0.0000 C   0  0  0  0  0  0  0  0  0  0  0  0
    1.1875   -1.8759    0.0000 C   0  0  0  0  0  0  0  0  0  0  0  0
    1.7965   -3.2467    0.0000 O   0  0  0  0  0  0  0  0  0  0  0  0
    2.0701   -0.6630    0.0000 C   0  0  0  0  0  0  0  0  0  0  0  0
    3.5617   -0.8210    0.0000 C   0  0  0  0  0  0  0  0  0  0  0  0
    4.1708   -2.1917    0.0000 O   0  0  0  0  0  0  0  0  0  0  0  0
    5.6625   -2.3497    0.0000 C   0  0  0  0  0  0  0  0  0  0  0  0
    4.4444    0.3919    0.0000 C   0  0  0  0  0  0  0  0  0  0  0  0
    5.9360    0.2340    0.0000 O   0  0  0  0  0  0  0  0  0  0  0  0
    6.5451   -1.1368    0.0000 C   0  0  0  0  0  0  0  0  0  0  0  0
    3.8353    1.7627    0.0000 C   0  0  0  0  0  0  0  0  0  0  0  0
    4.7179    2.9755    0.0000 O   0  0  0  0  0  0  0  0  0  0  0  0
    6.2096    2.8176    0.0000 C   0  0  0  0  0  0  0  0  0  0  0  0
    2.3436    1.9206    0.0000 C   0  0  0  0  0  0  0  0  0  0  0  0
    1.4610    0.7078    0.0000 C   0  0  0  0  0  0  0  0  0  0  0  0
   -0.0306    0.8657    0.0000 O   0  0  0  0  0  0  0  0  0  0  0  0
   -3.2875   -1.4020    0.0000 C   0  0  0  0  0  0  0  0  0  0  0  0
   -4.7792   -1.2441    0.0000 C   0  0  0  0  0  0  0  0  0  0  0  0
   -5.3882    0.1267    0.0000 C   0  0  0  0  0  0  0  0  0  0  0  0
   -6.8801   -0.0290    0.0000 O   0  0  0  0  0  0  0  0  0  0  0  0
   -7.1931   -1.4959    0.0000 C   0  0  0  0  0  0  0  0  0  0  0  0
   -5.8947   -2.2469    0.0000 O   0  0  0  0  0  0  0  0  0  0  0  0
  1  2  1  0
  2  3  1  0
  3  4  2  0
  4  5  1  0
  5  6  1  0
  6  7  2  0
  7  8  1  0
  8  9  2  0
  8 10  1  0
 10 11  2  0
 11 12  1  0
 12 13  1  0
 11 14  1  0
 14 15  1  0
 15 16  1  0
 14 17  2  0
 17 18  1  0
 18 19  1  0
 17 20  1  0
 20 21  2  0
 21 22  1  0
  5 23  2  0
 23 24  1  0
 24 25  2  0
 25 26  1  0
 26 27  1  0
 27 28  1  0
 25  3  1  0
 22  6  1  0
 28 24  1  0
 21 10  1  0
M  END
>  <identifier>  (553) 
CNP0188513.0

>  <canonical_smiles>  (553) 
COC1=CC(C2=CC(=O)C3=C(OC)C(OC)=C(OC)C=C3O2)=CC2=C1OCO2

>  <standard_inchi>  (553) 
InChI=1S/C20H18O8/c1-22-14-5-10(6-16-18(14)27-9-26-16)12-7-11(21)17-13(28-12)8-15(23-2)19(24-3)20(17)25-4/h5-8H,9H2,1-4H3

>  <standard_inchi_key>  (553) 
VHHQKEHGTLSRCV-UHFFFAOYSA-N

>  <name>  (553) 
89029-10-7

>  <iupac_name>  (553) 
5,6,7-trimethoxy-2-(7-methoxy-1,3-benzodioxol-5-yl)chromen-4-one

>  <annotation_level>  (553) 
5

>  <total_atom_count>  (553) 
46

>  <heavy_atom_count>  (553) 
28

>  <molecular_weight>  (553) 
386.36

>  <exact_molecular_weight>  (553) 
386.10017

>  <molecular_formula>  (553) 
C20H18O8

>  <alogp>  (553) 
3.22

>  <topological_polar_surface_area>  (553) 
85.59

>  <rotatable_bond_count>  (553) 
5

>  <hydrogen_bond_acceptors>  (553) 
8

>  <hydrogen_bond_donors>  (553) 
0

>  <hydrogen_bond_acceptors_lipinski>  (553) 
8

>  <hydrogen_bond_donors_lipinski>  (553) 
0

>  <lipinski_rule_of_five_violations>  (553) 
0

>  <aromatic_rings_count>  (553) 
3

>  <qed_drug_likeliness>  (553) 
0.66

>  <formal_charge>  (553) 
0

>  <fractioncsp3>  (553) 
0.25

>  <number_of_minimal_rings>  (553) 
4

>  <van_der_walls_volume>  (553) 
323.46

>  <contains_sugar>  (553) 
False

>  <contains_ring_sugars>  (553) 
False

>  <contains_linear_sugars>  (553) 
False

>  <murcko_framework>  (553) 
O1c2ccccc2CC=C1c3ccc4OCOc4c3

>  <np_likeness>  (553) 
1.08

>  <chemical_class>  (553) 
Flavonoids

>  <chemical_sub_class>  (553) 
O-methylated flavonoids

>  <chemical_super_class>  (553) 
Phenylpropanoids and polyketides

>  <direct_parent_classification>  (553) 
6-O-methylated flavonoids

>  <np_classifier_pathway>  (553) 
Shikimates and Phenylpropanoids

>  <np_classifier_superclass>  (553) 
Flavonoids

>  <np_classifier_class>  (553) 
Flavones

>  <np_classifier_is_glycoside>  (553) 
False

>  <organisms>  (553) 
Ageratum Conyzoides|Ageratum conyzoides|Bauhinia Championii|Bauhinia championii|Ficus maxima|Neoraputia magnifica|Neoraputia paraensis|Phanera championii

>  <collections>  (553) 
Australian natural products|KNApSaCK|Latin America dataset|NPEdia|NuBBEDB|Super Natural II|TCMDB-Taiwan (Traditional Chinese Medicine database)|TIPdb (database of Taiwan indigenous plants)|UNPD (Universal Natural Products Database)|VietHerb|WikiData Natural Products|ZINC NP

>  <dois>  (553) 
10.1016/S0031-9422(00)00248-X|10.1016/S0031-9422(00)84523-9|10.1016/S0031-9422(00)95215-4|10.1016/S0031-9422(96)00729-7|10.1016/s0031-9422(00)95215-4|10.1248/CPB.32.166

>  <synonyms>  (553) 
3'4'-methylenedioxy-55'67-tetramethoxyflavone|5,6,7,3'-Tetramethoxy-4',5'-methylenedioxyflavone|5,6,7-Trimethoxy-2-(7-methoxy-1,3-benzodioxol-5-yl)chromen-4-one|5,6,7-Trimethoxy-2-(7-methoxybenzo[d][1,3]dioxol-5-yl)-4H-chromen-4-one|DTXSID60237491|LMPK12111276

>  <cas>  (553) 
nan

$$$$

     RDKit          2D

 20 20  0  0  0  0  0  0  0  0999 V2000
   -8.9920   -0.2208    0.0000 C   0  0  0  0  0  0  0  0  0  0  0  0
   -7.7938   -1.1232    0.0000 O   0  0  0  0  0  0  0  0  0  0  0  0
   -6.4132   -0.5367    0.0000 C   0  0  0  0  0  0  0  0  0  0  0  0
   -6.2308    0.9521    0.0000 C   0  0  0  0  0  0  0  0  0  0  0  0
   -4.8502    1.5386    0.0000 C   0  0  0  0  0  0  0  0  0  0  0  0
   -3.6520    0.6363    0.0000 C   0  0  0  0  0  0  0  0  0  0  0  0
   -2.2714    1.2227    0.0000 C   0  0  0  0  0  0  0  0  0  0  0  0
   -1.0732    0.3204    0.0000 C   0  0  0  0  0  0  0  0  0  0  0  0
    0.3074    0.9069    0.0000 C   0  0  0  0  0  0  0  0  0  0  0  0
    1.5056    0.0045    0.0000 C   0  0  0  0  0  0  0  0  0  0  0  0
    2.8862    0.5910    0.0000 C   0  0  0  0  0  0  0  0  0  0  0  0
    4.0844   -0.3114    0.0000 C   0  0  0  0  0  0  0  0  0  0  0  0
    3.9020   -1.8003    0.0000 O   0  0  0  0  0  0  0  0  0  0  0  0
    5.4650    0.2751    0.0000 N   0  0  0  0  0  0  0  0  0  0  0  0
    6.6632   -0.6273    0.0000 C   0  0  0  0  0  0  0  0  0  0  0  0
    8.0438   -0.0408    0.0000 C   0  0  0  0  0  0  0  0  0  0  0  0
    9.2420   -0.9432    0.0000 C   0  0  0  0  0  0  0  0  0  0  0  0
    8.2262    1.4480    0.0000 C   0  0  0  0  0  0  0  0  0  0  0  0
   -3.8344   -0.8526    0.0000 C   0  0  0  0  0  0  0  0  0  0  0  0
   -5.2150   -1.4391    0.0000 C   0  0  0  0  0  0  0  0  0  0  0  0
  1  2  1  0
  2  3  1  0
  3  4  2  0
  4  5  1  0
  5  6  2  0
  6  7  1  0
  7  8  1  0
  8  9  2  0
  9 10  1  0
 10 11  2  0
 11 12  1  0
 12 13  2  0
 12 14  1  0
 14 15  1  0
 15 16  1  0
 16 17  1  0
 16 18  1  0
  6 19  1  0
 19 20  2  0
 20  3  1  0
M  END
>  <identifier>  (554) 
CNP0163456.1

>  <canonical_smiles>  (554) 
COC1=CC=C(C/C=C/C=C/C(=O)NCC(C)C)C=C1

>  <standard_inchi>  (554) 
InChI=1S/C17H23NO2/c1-14(2)13-18-17(19)8-6-4-5-7-15-9-11-16(20-3)12-10-15/h4-6,8-12,14H,7,13H2,1-3H3,(H,18,19)/b5-4+,8-6+

>  <standard_inchi_key>  (554) 
IHRWUVSXOBLEJV-DVBIZMGNSA-N

>  <name>  (554) 
nan

>  <iupac_name>  (554) 
nan

>  <annotation_level>  (554) 
0

>  <total_atom_count>  (554) 
43

>  <heavy_atom_count>  (554) 
20

>  <molecular_weight>  (554) 
273.38

>  <exact_molecular_weight>  (554) 
273.17288

>  <molecular_formula>  (554) 
C17H23NO2

>  <alogp>  (554) 
3.12

>  <topological_polar_surface_area>  (554) 
38.33

>  <rotatable_bond_count>  (554) 
7

>  <hydrogen_bond_acceptors>  (554) 
2

>  <hydrogen_bond_donors>  (554) 
1

>  <hydrogen_bond_acceptors_lipinski>  (554) 
2

>  <hydrogen_bond_donors_lipinski>  (554) 
1

>  <lipinski_rule_of_five_violations>  (554) 
0

>  <aromatic_rings_count>  (554) 
1

>  <qed_drug_likeliness>  (554) 
0.61

>  <formal_charge>  (554) 
0

>  <fractioncsp3>  (554) 
0.35

>  <number_of_minimal_rings>  (554) 
1

>  <van_der_walls_volume>  (554) 
278.98

>  <contains_sugar>  (554) 
False

>  <contains_ring_sugars>  (554) 
False

>  <contains_linear_sugars>  (554) 
False

>  <murcko_framework>  (554) 
c1ccccc1

>  <np_likeness>  (554) 
0.57

>  <chemical_class>  (554) 
nan

>  <chemical_sub_class>  (554) 
nan

>  <chemical_super_class>  (554) 
nan

>  <direct_parent_classification>  (554) 
nan

>  <np_classifier_pathway>  (554) 
Fatty acids

>  <np_classifier_superclass>  (554) 
Fatty amides

>  <np_classifier_class>  (554) 
N-acyl amines

>  <np_classifier_is_glycoside>  (554) 
False

>  <organisms>  (554) 
Ottonia corcovadensis|Piper boucheanum|Piper callosum|Piper corcovadense|Piper frutescens|Piper ovatum|Piper piscatorum|Piper scutifolium|piper hoffmanseggianum

>  <collections>  (554) 
Latin America dataset|NPASS|NuBBEDB|Super Natural II|WikiData Natural Products|ZINC NP

>  <dois>  (554) 
10.1016/0031-9422(81)80027-1|10.1016/0378-8741(83)90022-3|10.1016/S0378-8741(97)00154-2|10.1021/JO00833A022|10.1021/NP070347G|10.1039/CT8956700094|10.1039/P19820001493

>  <synonyms>  (554) 
nan

>  <cas>  (554) 
nan

$$$$

     RDKit          2D

 22 24  0  0  0  0  0  0  0  0999 V2000
   -4.7345    1.7230    0.0000 C   0  0  0  0  0  0  0  0  0  0  0  0
   -4.6449    0.2257    0.0000 C   0  0  0  0  0  0  0  0  0  0  0  0
   -3.3033   -0.4454    0.0000 C   0  0  0  0  0  0  0  0  0  0  0  0
   -4.1971   -1.6500    0.0000 C   0  0  0  0  0  0  0  0  0  0  0  0
   -2.8754    0.9923    0.0000 C   0  0  0  0  0  0  0  0  0  0  0  0
   -1.4164    1.3406    0.0000 C   0  0  0  0  0  0  0  0  0  0  0  0
   -0.9885    2.7783    0.0000 O   0  0  0  0  0  0  0  0  0  0  0  0
   -0.3853    0.2512    0.0000 C   0  0  0  0  0  0  0  0  0  0  0  0
   -0.8132   -1.1865    0.0000 C   0  0  0  0  0  0  0  0  0  0  0  0
   -2.2722   -1.5348    0.0000 C   0  0  0  0  0  0  0  0  0  0  0  0
    0.2179   -2.2759    0.0000 C   0  0  0  0  0  0  0  0  0  0  0  0
   -0.2100   -3.7136    0.0000 O   0  0  0  0  0  0  0  0  0  0  0  0
    1.6769   -1.9276    0.0000 C   0  0  0  0  0  0  0  0  0  0  0  0
    2.1048   -0.4900    0.0000 C   0  0  0  0  0  0  0  0  0  0  0  0
    3.5638   -0.1417    0.0000 C   0  0  0  0  0  0  0  0  0  0  0  0
    5.0540   -0.3134    0.0000 C   0  0  0  0  0  0  0  0  0  0  0  0
    3.6534   -1.6390    0.0000 C   0  0  0  0  0  0  0  0  0  0  0  0
    3.9917    1.2960    0.0000 C   0  0  0  0  0  0  0  0  0  0  0  0
    2.9606    2.3854    0.0000 C   0  0  0  0  0  0  0  0  0  0  0  0
    1.5016    2.0371    0.0000 C   0  0  0  0  0  0  0  0  0  0  0  0
    1.0737    0.5994    0.0000 C   0  0  0  0  0  0  0  0  0  0  0  0
    0.0426    1.6889    0.0000 C   0  0  0  0  0  0  0  0  0  0  0  0
  1  2  2  0
  2  3  1  0
  3  4  1  6
  3  5  1  0
  5  6  1  0
  6  7  2  0
  6  8  1  0
  8  9  2  0
  9 10  1  0
  9 11  1  0
 11 12  1  6
 11 13  1  0
 14 13  1  6
 14 15  1  0
 15 16  1  0
 15 17  1  0
 15 18  1  0
 18 19  1  0
 19 20  1  0
 20 21  1  0
 21 22  1  6
 10  3  1  0
 21 14  1  0
 21  8  1  0
M  END
>  <identifier>  (555) 
CNP0343214.1

>  <canonical_smiles>  (555) 
C=C[C@@]1(C)CC(=O)C2=C(C1)[C@@H](O)C[C@H]1C(C)(C)CCC[C@]21C

>  <standard_inchi>  (555) 
InChI=1S/C20H30O2/c1-6-19(4)11-13-14(21)10-16-18(2,3)8-7-9-20(16,5)17(13)15(22)12-19/h6,14,16,21H,1,7-12H2,2-5H3/t14-,16-,19+,20-/m0/s1

>  <standard_inchi_key>  (555) 
GYBICMQBRGXSFO-UQOODKLHSA-N

>  <name>  (555) 
nan

>  <iupac_name>  (555) 
(2~{R},4~{b}~{S},8~{a}~{S},10~{S})-10-hydroxy-2,4~{b},8,8-tetramethyl-2-vinyl-1,3,5,6,7,8~{a},9,10-octahydrophenanthren-4-one

>  <annotation_level>  (555) 
3

>  <total_atom_count>  (555) 
52

>  <heavy_atom_count>  (555) 
22

>  <molecular_weight>  (555) 
302.46

>  <exact_molecular_weight>  (555) 
302.22458

>  <molecular_formula>  (555) 
C20H30O2

>  <alogp>  (555) 
4.44

>  <topological_polar_surface_area>  (555) 
37.30

>  <rotatable_bond_count>  (555) 
1

>  <hydrogen_bond_acceptors>  (555) 
2

>  <hydrogen_bond_donors>  (555) 
1

>  <hydrogen_bond_acceptors_lipinski>  (555) 
2

>  <hydrogen_bond_donors_lipinski>  (555) 
1

>  <lipinski_rule_of_five_violations>  (555) 
0

>  <aromatic_rings_count>  (555) 
0

>  <qed_drug_likeliness>  (555) 
0.73

>  <formal_charge>  (555) 
0

>  <fractioncsp3>  (555) 
0.75

>  <number_of_minimal_rings>  (555) 
3

>  <van_der_walls_volume>  (555) 
nan

>  <contains_sugar>  (555) 
False

>  <contains_ring_sugars>  (555) 
False

>  <contains_linear_sugars>  (555) 
False

>  <murcko_framework>  (555) 
C12=C(CCCC1)C3CCCCC3CC2

>  <np_likeness>  (555) 
2.95

>  <chemical_class>  (555) 
Prenol lipids

>  <chemical_sub_class>  (555) 
Diterpenoids

>  <chemical_super_class>  (555) 
Lipids and lipid-like molecules

>  <direct_parent_classification>  (555) 
Diterpenoids

>  <np_classifier_pathway>  (555) 
Terpenoids

>  <np_classifier_superclass>  (555) 
Diterpenoids

>  <np_classifier_class>  (555) 
Norpimarane and Norisopimarane diterpenoids

>  <np_classifier_is_glycoside>  (555) 
False

>  <organisms>  (555) 
Vellozia compacta

>  <collections>  (555) 
NuBBEDB|WikiData Natural Products|ZINC NP

>  <dois>  (555) 
10.1016/0031-9422(83)80034-X

>  <synonyms>  (555) 
nan

>  <cas>  (555) 
nan

$$$$

     RDKit          2D

 16 17  0  0  0  0  0  0  0  0999 V2000
   -5.8490    0.3579    0.0000 C   0  0  0  0  0  0  0  0  0  0  0  0
   -4.3952    0.7270    0.0000 O   0  0  0  0  0  0  0  0  0  0  0  0
   -3.3486   -0.3475    0.0000 C   0  0  0  0  0  0  0  0  0  0  0  0
   -3.7559   -1.7912    0.0000 O   0  0  0  0  0  0  0  0  0  0  0  0
   -1.8947    0.0216    0.0000 C   0  0  0  0  0  0  0  0  0  0  0  0
   -1.4874    1.4652    0.0000 C   0  0  0  0  0  0  0  0  0  0  0  0
   -0.0335    1.8343    0.0000 C   0  0  0  0  0  0  0  0  0  0  0  0
    1.0131    0.7598    0.0000 C   0  0  0  0  0  0  0  0  0  0  0  0
    2.4669    1.1289    0.0000 O   0  0  0  0  0  0  0  0  0  0  0  0
    3.5135    0.0543    0.0000 C   0  0  0  0  0  0  0  0  0  0  0  0
    4.8645   -0.5974    0.0000 C   0  0  0  0  0  0  0  0  0  0  0  0
    4.3900    1.2716    0.0000 C   0  0  0  0  0  0  0  0  0  0  0  0
    3.1062   -1.3893    0.0000 C   0  0  0  0  0  0  0  0  0  0  0  0
    1.6524   -1.7584    0.0000 C   0  0  0  0  0  0  0  0  0  0  0  0
    0.6058   -0.6839    0.0000 C   0  0  0  0  0  0  0  0  0  0  0  0
   -0.8481   -1.0530    0.0000 C   0  0  0  0  0  0  0  0  0  0  0  0
  1  2  1  0
  2  3  1  0
  3  4  2  0
  3  5  1  0
  5  6  2  0
  6  7  1  0
  7  8  2  0
  8  9  1  0
  9 10  1  0
 10 11  1  0
 10 12  1  0
 10 13  1  0
 13 14  2  0
 14 15  1  0
 15 16  2  0
 16  5  1  0
 15  8  1  0
M  END
>  <identifier>  (556) 
CNP0360917.0

>  <canonical_smiles>  (556) 
COC(=O)C1=CC=C2OC(C)(C)C=CC2=C1

>  <standard_inchi>  (556) 
InChI=1S/C13H14O3/c1-13(2)7-6-9-8-10(12(14)15-3)4-5-11(9)16-13/h4-8H,1-3H3

>  <standard_inchi_key>  (556) 
BVQOOKUOYKXECX-UHFFFAOYSA-N

>  <name>  (556) 
methyl 2,2-dimethylchromene-6-carboxylate

>  <iupac_name>  (556) 
methyl 2,2-dimethylchromene-6-carboxylate

>  <annotation_level>  (556) 
5

>  <total_atom_count>  (556) 
30

>  <heavy_atom_count>  (556) 
16

>  <molecular_weight>  (556) 
218.25

>  <exact_molecular_weight>  (556) 
218.09429

>  <molecular_formula>  (556) 
C13H14O3

>  <alogp>  (556) 
2.66

>  <topological_polar_surface_area>  (556) 
35.53

>  <rotatable_bond_count>  (556) 
1

>  <hydrogen_bond_acceptors>  (556) 
3

>  <hydrogen_bond_donors>  (556) 
0

>  <hydrogen_bond_acceptors_lipinski>  (556) 
3

>  <hydrogen_bond_donors_lipinski>  (556) 
0

>  <lipinski_rule_of_five_violations>  (556) 
0

>  <aromatic_rings_count>  (556) 
1

>  <qed_drug_likeliness>  (556) 
0.68

>  <formal_charge>  (556) 
0

>  <fractioncsp3>  (556) 
0.31

>  <number_of_minimal_rings>  (556) 
2

>  <van_der_walls_volume>  (556) 
203.16

>  <contains_sugar>  (556) 
False

>  <contains_ring_sugars>  (556) 
False

>  <contains_linear_sugars>  (556) 
False

>  <murcko_framework>  (556) 
O1c2ccccc2C=CC1

>  <np_likeness>  (556) 
1.50

>  <chemical_class>  (556) 
Benzopyrans

>  <chemical_sub_class>  (556) 
1-benzopyrans

>  <chemical_super_class>  (556) 
Organoheterocyclic compounds

>  <direct_parent_classification>  (556) 
2,2-dimethyl-1-benzopyrans

>  <np_classifier_pathway>  (556) 
Terpenoids

>  <np_classifier_superclass>  (556) 
Meroterpenoids

>  <np_classifier_class>  (556) 
Merohemiterpenoids

>  <np_classifier_is_glycoside>  (556) 
False

>  <organisms>  (556) 
Actinidia polygama|Gentiana algida|Piper aduncum|Piper dilatatum|Piper hostmannianum|Piper pseudofuligineum|Piper taboganum|piper sp.

>  <collections>  (556) 
CMAUP (cCollective molecular activities of useful plants)|ChemSpider NPs|KNApSaCK|Latin America dataset|NPASS|NuBBEDB|Super Natural II|TCMDB-Taiwan (Traditional Chinese Medicine database)|TCMID (Traditional Chinese Medicine Integrated Database)|UNPD (Universal Natural Products Database)|WikiData Natural Products|ZINC NP

>  <dois>  (556) 
10.1016/0031-9422(90)85016-9|10.1016/0031-9422(93)85364-W|10.1016/0031-9422(95)00599-4|10.1016/S0031-9422(98)00197-6|10.1016/S0031-9422(99)00132-6|10.1021/NP030530J|10.1021/np030530j|10.1248/BPB.31.538|10.1248/bpb.31.538

>  <synonyms>  (556) 
2,2-dimethyl-6-methoxycarbonyl-2h-benzopyran|2H-1-Benzopyran-6-carboxylic acid, 2,2-dimethyl-, methyl ester|34818-57-0|CHEMBL489132|DTXSID60415712|Methyl 2,2-dimethyl-2H-1-chromene-6-carboxylate|SCHEMBL11398330

>  <cas>  (556) 
34818-57-0

$$$$

     RDKit          2D

 13 14  0  0  0  0  0  0  0  0999 V2000
   -5.1341    0.9802    0.0000 C   0  0  0  0  0  0  0  0  0  0  0  0
   -3.6381    0.8698    0.0000 C   0  0  0  0  0  0  0  0  0  0  0  0
   -2.9858   -0.4810    0.0000 C   0  0  0  0  0  0  0  0  0  0  0  0
   -1.4899   -0.5914    0.0000 C   0  0  0  0  0  0  0  0  0  0  0  0
   -0.8376   -1.9421    0.0000 C   0  0  0  0  0  0  0  0  0  0  0  0
    0.6584   -2.0526    0.0000 C   0  0  0  0  0  0  0  0  0  0  0  0
    1.5020   -0.8123    0.0000 C   0  0  0  0  0  0  0  0  0  0  0  0
    2.9979   -0.9227    0.0000 C   0  0  0  0  0  0  0  0  0  0  0  0
    3.8415    0.3176    0.0000 C   0  0  0  0  0  0  0  0  0  0  0  0
    3.1892    1.6683    0.0000 C   0  0  0  0  0  0  0  0  0  0  0  0
    1.6933    1.7788    0.0000 C   0  0  0  0  0  0  0  0  0  0  0  0
    0.8496    0.5385    0.0000 C   0  0  0  0  0  0  0  0  0  0  0  0
   -0.6463    0.6489    0.0000 N   0  0  0  0  0  0  0  0  0  0  0  0
  1  2  1  0
  2  3  1  0
  3  4  1  0
  4  5  2  0
  5  6  1  0
  6  7  2  0
  7  8  1  0
  8  9  2  0
  9 10  1  0
 10 11  2  0
 11 12  1  0
 12 13  2  0
 13  4  1  0
 12  7  1  0
M  END
>  <identifier>  (557) 
CNP0276038.0

>  <canonical_smiles>  (557) 
CCCC1=CC=C2C=CC=CC2=N1

>  <standard_inchi>  (557) 
InChI=1S/C12H13N/c1-2-5-11-9-8-10-6-3-4-7-12(10)13-11/h3-4,6-9H,2,5H2,1H3

>  <standard_inchi_key>  (557) 
IZXJPGLOYYDHRM-UHFFFAOYSA-N

>  <name>  (557) 
2-Propylquinoline

>  <iupac_name>  (557) 
2-propylquinoline

>  <annotation_level>  (557) 
5

>  <total_atom_count>  (557) 
26

>  <heavy_atom_count>  (557) 
13

>  <molecular_weight>  (557) 
171.24

>  <exact_molecular_weight>  (557) 
171.1048

>  <molecular_formula>  (557) 
C12H13N

>  <alogp>  (557) 
3.19

>  <topological_polar_surface_area>  (557) 
12.89

>  <rotatable_bond_count>  (557) 
2

>  <hydrogen_bond_acceptors>  (557) 
1

>  <hydrogen_bond_donors>  (557) 
0

>  <hydrogen_bond_acceptors_lipinski>  (557) 
1

>  <hydrogen_bond_donors_lipinski>  (557) 
0

>  <lipinski_rule_of_five_violations>  (557) 
0

>  <aromatic_rings_count>  (557) 
2

>  <qed_drug_likeliness>  (557) 
0.68

>  <formal_charge>  (557) 
0

>  <fractioncsp3>  (557) 
0.25

>  <number_of_minimal_rings>  (557) 
2

>  <van_der_walls_volume>  (557) 
171.14

>  <contains_sugar>  (557) 
False

>  <contains_ring_sugars>  (557) 
False

>  <contains_linear_sugars>  (557) 
False

>  <murcko_framework>  (557) 
n1cccc2ccccc12

>  <np_likeness>  (557) 
-0.68

>  <chemical_class>  (557) 
Quinolines and derivatives

>  <chemical_sub_class>  (557) 
Quinolines and derivatives

>  <chemical_super_class>  (557) 
Organoheterocyclic compounds

>  <direct_parent_classification>  (557) 
Quinolines and derivatives

>  <np_classifier_pathway>  (557) 
Alkaloids

>  <np_classifier_superclass>  (557) 
Anthranilic acid alkaloids

>  <np_classifier_class>  (557) 
Quinazoline alkaloids

>  <np_classifier_is_glycoside>  (557) 
False

>  <organisms>  (557) 
Angostura bracteata|Angostura longiflora|Astropecten indicus|Ateleia herbert-smithii|Cephalosporium gregatum|Eucryphia glutinosa|Galipea bracteata|Galipea longiflora|Haminoea orteai|Iochroma coccineum|Nigrosabulum globosum|Peperomia pellucida|Pinus abies|Saccharina angustata|Tecoma peroba|Tylosema esculentum|Xanthoparmelia quintaria

>  <collections>  (557) 
AfroDB|CMAUP (cCollective molecular activities of useful plants)|Latin America dataset|NPASS|NuBBEDB|Super Natural II|TCMDB-Taiwan (Traditional Chinese Medicine database)|TCMID (Traditional Chinese Medicine Integrated Database)|UNPD (Universal Natural Products Database)|WikiData Natural Products|ZINC NP

>  <dois>  (557) 
10.1016/0031-9422(90)80024-B

>  <synonyms>  (557) 
1613-32-7|2-N-Propylquinoleine|2-Propyl-quinoline|2-n-propylquinoline|AKOS006370675|CHEMBL354607|DTXSID80167105|NS00115967|QUINOLINE, 2-PROPYL-|SCHEMBL725176

>  <cas>  (557) 
1613-32-7

$$$$

     RDKit          2D

 25 27  0  0  0  0  0  0  0  0999 V2000
   -6.7676    2.0617    0.0000 C   0  0  0  0  0  0  0  0  0  0  0  0
   -6.2074    0.6702    0.0000 O   0  0  0  0  0  0  0  0  0  0  0  0
   -4.7222    0.4596    0.0000 C   0  0  0  0  0  0  0  0  0  0  0  0
   -3.7973    1.6405    0.0000 C   0  0  0  0  0  0  0  0  0  0  0  0
   -2.3122    1.4299    0.0000 C   0  0  0  0  0  0  0  0  0  0  0  0
   -1.7519    0.0385    0.0000 C   0  0  0  0  0  0  0  0  0  0  0  0
   -0.2668   -0.1721    0.0000 C   0  0  0  0  0  0  0  0  0  0  0  0
    0.2934   -1.5636    0.0000 C   0  0  0  0  0  0  0  0  0  0  0  0
    1.7785   -1.7741    0.0000 O   0  0  0  0  0  0  0  0  0  0  0  0
    2.7035   -0.5933    0.0000 C   0  0  0  0  0  0  0  0  0  0  0  0
    4.1886   -0.8038    0.0000 C   0  0  0  0  0  0  0  0  0  0  0  0
    4.7488   -2.1953    0.0000 O   0  0  0  0  0  0  0  0  0  0  0  0
    3.8239   -3.3762    0.0000 C   0  0  0  0  0  0  0  0  0  0  0  0
    5.1136    0.3771    0.0000 C   0  0  0  0  0  0  0  0  0  0  0  0
    6.5987    0.1665    0.0000 O   0  0  0  0  0  0  0  0  0  0  0  0
    4.5534    1.7685    0.0000 C   0  0  0  0  0  0  0  0  0  0  0  0
    3.0682    1.9791    0.0000 C   0  0  0  0  0  0  0  0  0  0  0  0
    2.5080    3.3706    0.0000 O   0  0  0  0  0  0  0  0  0  0  0  0
    2.1433    0.7982    0.0000 C   0  0  0  0  0  0  0  0  0  0  0  0
    0.6581    1.0088    0.0000 C   0  0  0  0  0  0  0  0  0  0  0  0
    0.0979    2.4003    0.0000 O   0  0  0  0  0  0  0  0  0  0  0  0
   -2.6769   -1.1424    0.0000 C   0  0  0  0  0  0  0  0  0  0  0  0
   -4.1620   -0.9318    0.0000 C   0  0  0  0  0  0  0  0  0  0  0  0
   -5.0870   -2.1127    0.0000 O   0  0  0  0  0  0  0  0  0  0  0  0
   -4.5268   -3.5042    0.0000 C   0  0  0  0  0  0  0  0  0  0  0  0
  1  2  1  0
  2  3  1  0
  3  4  2  0
  4  5  1  0
  5  6  2  0
  6  7  1  0
  7  8  2  0
  8  9  1  0
  9 10  1  0
 10 11  2  0
 11 12  1  0
 12 13  1  0
 11 14  1  0
 14 15  1  0
 14 16  2  0
 16 17  1  0
 17 18  1  0
 17 19  2  0
 19 20  1  0
 20 21  2  0
  6 22  1  0
 22 23  2  0
 23 24  1  0
 24 25  1  0
 23  3  1  0
 20  7  1  0
 19 10  1  0
M  END
>  <identifier>  (558) 
CNP0248058.0

>  <canonical_smiles>  (558) 
COC1=CC=C(C2=COC3=C(OC)C(O)=CC(O)=C3C2=O)C=C1OC

>  <standard_inchi>  (558) 
InChI=1S/C18H16O7/c1-22-13-5-4-9(6-14(13)23-2)10-8-25-18-15(16(10)21)11(19)7-12(20)17(18)24-3/h4-8,19-20H,1-3H3

>  <standard_inchi_key>  (558) 
ZSTDUKYETPSCHO-UHFFFAOYSA-N

>  <name>  (558) 
5,7-Dihydroxy-8,3',4'-trimethoxyisoflavone

>  <iupac_name>  (558) 
3-(3,4-dimethoxyphenyl)-5,7-dihydroxy-8-methoxy-chromen-4-one

>  <annotation_level>  (558) 
5

>  <total_atom_count>  (558) 
41

>  <heavy_atom_count>  (558) 
25

>  <molecular_weight>  (558) 
344.32

>  <exact_molecular_weight>  (558) 
344.0896

>  <molecular_formula>  (558) 
C18H16O7

>  <alogp>  (558) 
2.90

>  <topological_polar_surface_area>  (558) 
98.36

>  <rotatable_bond_count>  (558) 
4

>  <hydrogen_bond_acceptors>  (558) 
7

>  <hydrogen_bond_donors>  (558) 
2

>  <hydrogen_bond_acceptors_lipinski>  (558) 
7

>  <hydrogen_bond_donors_lipinski>  (558) 
2

>  <lipinski_rule_of_five_violations>  (558) 
0

>  <aromatic_rings_count>  (558) 
3

>  <qed_drug_likeliness>  (558) 
0.75

>  <formal_charge>  (558) 
0

>  <fractioncsp3>  (558) 
0.17

>  <number_of_minimal_rings>  (558) 
3

>  <van_der_walls_volume>  (558) 
nan

>  <contains_sugar>  (558) 
False

>  <contains_ring_sugars>  (558) 
False

>  <contains_linear_sugars>  (558) 
False

>  <murcko_framework>  (558) 
O1C=C(c2ccccc2)Cc3ccccc13

>  <np_likeness>  (558) 
1.26

>  <chemical_class>  (558) 
Isoflavonoids

>  <chemical_sub_class>  (558) 
Isoflav-2-enes

>  <chemical_super_class>  (558) 
Phenylpropanoids and polyketides

>  <direct_parent_classification>  (558) 
Isoflavones

>  <np_classifier_pathway>  (558) 
Shikimates and Phenylpropanoids

>  <np_classifier_superclass>  (558) 
Isoflavonoids

>  <np_classifier_class>  (558) 
Isoflavones

>  <np_classifier_is_glycoside>  (558) 
False

>  <organisms>  (558) 
Monopterix inpae|Monopteryx inpae

>  <collections>  (558) 
Latin America dataset|NPEdia|NuBBEDB|Super Natural II|UNPD (Universal Natural Products Database)|WikiData Natural Products|ZINC NP

>  <dois>  (558) 
10.1016/0031-9422(81)85097-2

>  <synonyms>  (558) 
57-dihydroxy-83'-4'-trimethoxyisoflavone|LMPK12050436

>  <cas>  (558) 
nan

$$$$

     RDKit          2D

 21 21  0  0  0  0  0  0  0  0999 V2000
   -6.6067    1.9743    0.0000 C   0  0  0  0  0  0  0  0  0  0  0  0
   -5.1815    1.5063    0.0000 C   0  0  0  0  0  0  0  0  0  0  0  0
   -4.0637    2.5065    0.0000 C   0  0  0  0  0  0  0  0  0  0  0  0
   -4.8743    0.0381    0.0000 C   0  0  0  0  0  0  0  0  0  0  0  0
   -3.4492   -0.4299    0.0000 C   0  0  0  0  0  0  0  0  0  0  0  0
   -3.1419   -1.8981    0.0000 C   0  0  0  0  0  0  0  0  0  0  0  0
   -1.7168   -2.3661    0.0000 C   0  0  0  0  0  0  0  0  0  0  0  0
   -1.4096   -3.8343    0.0000 C   0  0  0  0  0  0  0  0  0  0  0  0
   -0.5989   -1.3659    0.0000 C   0  0  0  0  0  0  0  0  0  0  0  0
    0.8262   -1.8339    0.0000 C   0  0  0  0  0  0  0  0  0  0  0  0
    1.1334   -3.3021    0.0000 O   0  0  0  0  0  0  0  0  0  0  0  0
    1.9440   -0.8338    0.0000 C   0  0  0  0  0  0  0  0  0  0  0  0
    1.6368    0.6344    0.0000 C   0  0  0  0  0  0  0  0  0  0  0  0
    2.7547    1.6346    0.0000 C   0  0  0  0  0  0  0  0  0  0  0  0
    2.4474    3.1028    0.0000 C   0  0  0  0  0  0  0  0  0  0  0  0
    1.0223    3.5708    0.0000 O   0  0  0  0  0  0  0  0  0  0  0  0
    3.5653    4.1030    0.0000 O   0  0  0  0  0  0  0  0  0  0  0  0
    4.1798    1.1666    0.0000 C   0  0  0  0  0  0  0  0  0  0  0  0
    4.4870   -0.3016    0.0000 C   0  0  0  0  0  0  0  0  0  0  0  0
    3.3692   -1.3018    0.0000 C   0  0  0  0  0  0  0  0  0  0  0  0
    3.6764   -2.7700    0.0000 O   0  0  0  0  0  0  0  0  0  0  0  0
  1  2  1  0
  2  3  1  0
  2  4  2  0
  4  5  1  0
  5  6  1  0
  6  7  1  0
  7  8  1  0
  7  9  2  0
  9 10  1  0
 10 11  2  0
 10 12  1  0
 12 13  2  0
 13 14  1  0
 14 15  1  0
 15 16  2  0
 15 17  1  0
 14 18  2  0
 18 19  1  0
 19 20  2  0
 20 21  1  0
 20 12  1  0
M  END
>  <identifier>  (559) 
CNP0301412.2

>  <canonical_smiles>  (559) 
CC(C)=CCC/C(C)=C/C(=O)C1=CC(C(=O)O)=CC=C1O

>  <standard_inchi>  (559) 
InChI=1S/C17H20O4/c1-11(2)5-4-6-12(3)9-16(19)14-10-13(17(20)21)7-8-15(14)18/h5,7-10,18H,4,6H2,1-3H3,(H,20,21)/b12-9+

>  <standard_inchi_key>  (559) 
MPPGIWBJWPIEDY-FMIVXFBMSA-N

>  <name>  (559) 
nan

>  <iupac_name>  (559) 
nan

>  <annotation_level>  (559) 
0

>  <total_atom_count>  (559) 
41

>  <heavy_atom_count>  (559) 
21

>  <molecular_weight>  (559) 
288.34

>  <exact_molecular_weight>  (559) 
288.13616

>  <molecular_formula>  (559) 
C17H20O4

>  <alogp>  (559) 
3.97

>  <topological_polar_surface_area>  (559) 
74.60

>  <rotatable_bond_count>  (559) 
6

>  <hydrogen_bond_acceptors>  (559) 
3

>  <hydrogen_bond_donors>  (559) 
2

>  <hydrogen_bond_acceptors_lipinski>  (559) 
3

>  <hydrogen_bond_donors_lipinski>  (559) 
2

>  <lipinski_rule_of_five_violations>  (559) 
0

>  <aromatic_rings_count>  (559) 
1

>  <qed_drug_likeliness>  (559) 
0.47

>  <formal_charge>  (559) 
0

>  <fractioncsp3>  (559) 
0.29

>  <number_of_minimal_rings>  (559) 
1

>  <van_der_walls_volume>  (559) 
275.27

>  <contains_sugar>  (559) 
False

>  <contains_ring_sugars>  (559) 
False

>  <contains_linear_sugars>  (559) 
False

>  <murcko_framework>  (559) 
c1ccccc1

>  <np_likeness>  (559) 
1.45

>  <chemical_class>  (559) 
nan

>  <chemical_sub_class>  (559) 
nan

>  <chemical_super_class>  (559) 
nan

>  <direct_parent_classification>  (559) 
nan

>  <np_classifier_pathway>  (559) 
Shikimates and Phenylpropanoids

>  <np_classifier_superclass>  (559) 
Phenolic acids (C6-C1)

>  <np_classifier_class>  (559) 
Simple phenolic acids

>  <np_classifier_is_glycoside>  (559) 
False

>  <organisms>  (559) 
Piper crassinervium|Piper lhotzkyanum|Piper murrayanum

>  <collections>  (559) 
ChemSpider NPs|KNApSaCK|Latin America dataset|NuBBEDB|Super Natural II|WikiData Natural Products|ZINC NP

>  <dois>  (559) 
10.1016/0031-9422(96)00295-6|10.1016/J.PHYTOCHEM.2006.03.001|10.1016/S0031-9422(98)00067-3|10.1021/NP030530J|10.1080/14786410802243271

>  <synonyms>  (559) 
nan

>  <cas>  (559) 
nan

$$$$

     RDKit          2D

 28 30  0  0  0  0  0  0  0  0999 V2000
    3.5088   -3.6319    0.0000 C   0  0  0  0  0  0  0  0  0  0  0  0
    3.4932   -2.1320    0.0000 C   0  0  0  0  0  0  0  0  0  0  0  0
    2.1864   -1.3956    0.0000 C   0  0  0  0  0  0  0  0  0  0  0  0
    2.1708    0.1044    0.0000 C   0  0  0  0  0  0  0  0  0  0  0  0
    3.5474   -0.4914    0.0000 C   0  0  0  0  0  0  0  0  0  0  0  0
    4.7517    0.4028    0.0000 C   0  0  0  0  0  0  0  0  0  0  0  0
    6.1283   -0.1930    0.0000 O   0  0  0  0  0  0  0  0  0  0  0  0
    6.3006   -1.6830    0.0000 C   0  0  0  0  0  0  0  0  0  0  0  0
    4.5793    1.8929    0.0000 C   0  0  0  0  0  0  0  0  0  0  0  0
    5.7836    2.7872    0.0000 O   0  0  0  0  0  0  0  0  0  0  0  0
    3.2027    2.4887    0.0000 C   0  0  0  0  0  0  0  0  0  0  0  0
    1.9985    1.5944    0.0000 C   0  0  0  0  0  0  0  0  0  0  0  0
    0.5281    1.8910    0.0000 O   0  0  0  0  0  0  0  0  0  0  0  0
   -0.2084    0.5842    0.0000 C   0  0  0  0  0  0  0  0  0  0  0  0
   -1.6984    0.4119    0.0000 C   0  0  0  0  0  0  0  0  0  0  0  0
   -2.5927    1.6162    0.0000 C   0  0  0  0  0  0  0  0  0  0  0  0
   -4.0828    1.4438    0.0000 C   0  0  0  0  0  0  0  0  0  0  0  0
   -4.9770    2.6481    0.0000 O   0  0  0  0  0  0  0  0  0  0  0  0
   -4.3812    4.0247    0.0000 C   0  0  0  0  0  0  0  0  0  0  0  0
   -4.6786    0.0672    0.0000 C   0  0  0  0  0  0  0  0  0  0  0  0
   -6.1686   -0.1051    0.0000 O   0  0  0  0  0  0  0  0  0  0  0  0
   -6.7644   -1.4817    0.0000 C   0  0  0  0  0  0  0  0  0  0  0  0
   -3.7843   -1.1370    0.0000 C   0  0  0  0  0  0  0  0  0  0  0  0
   -4.3801   -2.5136    0.0000 O   0  0  0  0  0  0  0  0  0  0  0  0
   -3.4858   -3.7179    0.0000 C   0  0  0  0  0  0  0  0  0  0  0  0
   -2.2942   -0.9647    0.0000 C   0  0  0  0  0  0  0  0  0  0  0  0
    0.8069   -0.5200    0.0000 C   0  0  0  0  0  0  0  0  0  0  0  0
    0.5103   -1.9904    0.0000 C   0  0  0  0  0  0  0  0  0  0  0  0
  1  2  2  0
  2  3  1  0
  4  3  1  6
  4  5  1  0
  5  6  2  0
  6  7  1  0
  7  8  1  0
  6  9  1  0
  9 10  2  0
  9 11  1  0
 11 12  2  0
 12 13  1  0
 13 14  1  0
 14 15  1  1
 15 16  2  0
 16 17  1  0
 17 18  1  0
 18 19  1  0
 17 20  2  0
 20 21  1  0
 21 22  1  0
 20 23  1  0
 23 24  1  0
 24 25  1  0
 23 26  2  0
 14 27  1  0
 27 28  1  6
 12  4  1  0
 26 15  1  0
 27  4  1  0
M  END
>  <identifier>  (560) 
CNP0197140.2

>  <canonical_smiles>  (560) 
C=CC[C@@]12C=C(OC)C(=O)C=C1O[C@H](C1=CC(OC)=C(OC)C(OC)=C1)[C@H]2C

>  <standard_inchi>  (560) 
InChI=1S/C22H26O6/c1-7-8-22-12-18(26-5)15(23)11-19(22)28-20(13(22)2)14-9-16(24-3)21(27-6)17(10-14)25-4/h7,9-13,20H,1,8H2,2-6H3/t13-,20+,22+/m1/s1

>  <standard_inchi_key>  (560) 
OKICALHDZHJOLZ-XOJPMGEXSA-N

>  <name>  (560) 
nan

>  <iupac_name>  (560) 
(2~{S},3~{S},3~{a}~{R})-3~{a}-allyl-5-methoxy-3-methyl-2-(3,4,5-trimethoxyphenyl)-2,3-dihydrobenzofuran-6-one

>  <annotation_level>  (560) 
3

>  <total_atom_count>  (560) 
54

>  <heavy_atom_count>  (560) 
28

>  <molecular_weight>  (560) 
386.44

>  <exact_molecular_weight>  (560) 
386.17294

>  <molecular_formula>  (560) 
C22H26O6

>  <alogp>  (560) 
3.98

>  <topological_polar_surface_area>  (560) 
63.22

>  <rotatable_bond_count>  (560) 
7

>  <hydrogen_bond_acceptors>  (560) 
6

>  <hydrogen_bond_donors>  (560) 
0

>  <hydrogen_bond_acceptors_lipinski>  (560) 
6

>  <hydrogen_bond_donors_lipinski>  (560) 
0

>  <lipinski_rule_of_five_violations>  (560) 
0

>  <aromatic_rings_count>  (560) 
1

>  <qed_drug_likeliness>  (560) 
0.66

>  <formal_charge>  (560) 
0

>  <fractioncsp3>  (560) 
0.41

>  <number_of_minimal_rings>  (560) 
3

>  <van_der_walls_volume>  (560) 
nan

>  <contains_sugar>  (560) 
False

>  <contains_ring_sugars>  (560) 
False

>  <contains_linear_sugars>  (560) 
False

>  <murcko_framework>  (560) 
O1C2=CCC=CC2CC1c3ccccc3

>  <np_likeness>  (560) 
2.09

>  <chemical_class>  (560) 
2-arylbenzofuran flavonoids

>  <chemical_sub_class>  (560) 
2-arylbenzofuran flavonoids

>  <chemical_super_class>  (560) 
Phenylpropanoids and polyketides

>  <direct_parent_classification>  (560) 
2-arylbenzofuran flavonoids

>  <np_classifier_pathway>  (560) 
Shikimates and Phenylpropanoids

>  <np_classifier_superclass>  (560) 
Lignans

>  <np_classifier_class>  (560) 
Neolignans

>  <np_classifier_is_glycoside>  (560) 
False

>  <organisms>  (560) 
Nectandra|Nectandra sp.

>  <collections>  (560) 
Latin America dataset|NuBBEDB|Super Natural II|WikiData Natural Products|ZINC NP

>  <dois>  (560) 
10.1016/0031-9422(80)87033-6

>  <synonyms>  (560) 
nan

>  <cas>  (560) 
nan

$$$$

     RDKit          2D

 33 35  0  0  0  0  0  0  0  0999 V2000
   -4.4179    3.9344    0.0000 C   0  0  0  0  0  0  0  0  0  0  0  0
   -5.3448    2.7551    0.0000 O   0  0  0  0  0  0  0  0  0  0  0  0
   -4.7868    1.3627    0.0000 C   0  0  0  0  0  0  0  0  0  0  0  0
   -3.3020    1.1497    0.0000 C   0  0  0  0  0  0  0  0  0  0  0  0
   -2.7441   -0.2427    0.0000 C   0  0  0  0  0  0  0  0  0  0  0  0
   -1.2593   -0.4556    0.0000 C   0  0  0  0  0  0  0  0  0  0  0  0
   -0.7013   -1.8480    0.0000 C   0  0  0  0  0  0  0  0  0  0  0  0
    0.7835   -2.0610    0.0000 C   0  0  0  0  0  0  0  0  0  0  0  0
    1.3414   -3.4534    0.0000 O   0  0  0  0  0  0  0  0  0  0  0  0
    1.7103   -0.8816    0.0000 C   0  0  0  0  0  0  0  0  0  0  0  0
    3.1951   -1.0946    0.0000 C   0  0  0  0  0  0  0  0  0  0  0  0
    3.7531   -2.4870    0.0000 O   0  0  0  0  0  0  0  0  0  0  0  0
    5.2379   -2.7000    0.0000 C   0  0  0  0  0  0  0  0  0  0  0  0
    5.7958   -4.0923    0.0000 C   0  0  0  0  0  0  0  0  0  0  0  0
    6.1647   -1.5206    0.0000 O   0  0  0  0  0  0  0  0  0  0  0  0
    4.1220    0.0848    0.0000 C   0  0  0  0  0  0  0  0  0  0  0  0
    5.6068   -0.1282    0.0000 C   0  0  0  0  0  0  0  0  0  0  0  0
    3.5640    1.4771    0.0000 C   0  0  0  0  0  0  0  0  0  0  0  0
    4.4909    2.6565    0.0000 O   0  0  0  0  0  0  0  0  0  0  0  0
    5.9757    2.4435    0.0000 C   0  0  0  0  0  0  0  0  0  0  0  0
    6.9025    3.6229    0.0000 C   0  0  0  0  0  0  0  0  0  0  0  0
    6.5336    1.0512    0.0000 O   0  0  0  0  0  0  0  0  0  0  0  0
    2.0792    1.6901    0.0000 C   0  0  0  0  0  0  0  0  0  0  0  0
    1.5213    3.0825    0.0000 C   0  0  0  0  0  0  0  0  0  0  0  0
    1.1524    0.5107    0.0000 C   0  0  0  0  0  0  0  0  0  0  0  0
   -0.3324    0.7237    0.0000 O   0  0  0  0  0  0  0  0  0  0  0  0
   -3.6709   -1.4220    0.0000 C   0  0  0  0  0  0  0  0  0  0  0  0
   -5.1557   -1.2091    0.0000 C   0  0  0  0  0  0  0  0  0  0  0  0
   -5.7137    0.1833    0.0000 C   0  0  0  0  0  0  0  0  0  0  0  0
   -7.1985    0.3963    0.0000 O   0  0  0  0  0  0  0  0  0  0  0  0
   -8.1253   -0.7831    0.0000 C   0  0  0  0  0  0  0  0  0  0  0  0
   -9.6101   -0.5701    0.0000 C   0  0  0  0  0  0  0  0  0  0  0  0
   -7.5674   -2.1755    0.0000 O   0  0  0  0  0  0  0  0  0  0  0  0
  1  2  1  0
  2  3  1  0
  3  4  2  0
  4  5  1  0
  6  5  1  6
  6  7  1  0
  7  8  1  0
  8  9  2  0
  8 10  1  0
 10 11  2  0
 11 12  1  0
 12 13  1  0
 13 14  1  0
 13 15  2  0
 11 16  1  0
 16 17  1  0
 16 18  2  0
 18 19  1  0
 19 20  1  0
 20 21  1  0
 20 22  2  0
 18 23  1  0
 23 24  1  0
 23 25  2  0
 25 26  1  0
  5 27  2  0
 27 28  1  0
 28 29  2  0
 29 30  1  0
 30 31  1  0
 31 32  1  0
 31 33  2  0
 29  3  1  0
 26  6  1  0
 25 10  1  0
M  END
>  <identifier>  (561) 
CNP0080453.1

>  <canonical_smiles>  (561) 
COC1=CC([C@H]2CC(=O)C3=C(OC(C)=O)C(C)=C(OC(C)=O)C(C)=C3O2)=CC=C1OC(C)=O

>  <standard_inchi>  (561) 
InChI=1S/C24H24O9/c1-11-22(31-14(4)26)12(2)24-21(23(11)32-15(5)27)17(28)10-19(33-24)16-7-8-18(30-13(3)25)20(9-16)29-6/h7-9,19H,10H2,1-6H3/t19-/m1/s1

>  <standard_inchi_key>  (561) 
WMKMGWHZUIENJJ-LJQANCHMSA-N

>  <name>  (561) 
nan

>  <iupac_name>  (561) 
[4-[(2~{R})-5,7-diacetoxy-6,8-dimethyl-4-oxo-chroman-2-yl]-2-methoxy-phenyl] acetate

>  <annotation_level>  (561) 
4

>  <total_atom_count>  (561) 
57

>  <heavy_atom_count>  (561) 
33

>  <molecular_weight>  (561) 
456.45

>  <exact_molecular_weight>  (561) 
456.14203

>  <molecular_formula>  (561) 
C24H24O9

>  <alogp>  (561) 
3.79

>  <topological_polar_surface_area>  (561) 
114.43

>  <rotatable_bond_count>  (561) 
5

>  <hydrogen_bond_acceptors>  (561) 
9

>  <hydrogen_bond_donors>  (561) 
0

>  <hydrogen_bond_acceptors_lipinski>  (561) 
9

>  <hydrogen_bond_donors_lipinski>  (561) 
0

>  <lipinski_rule_of_five_violations>  (561) 
0

>  <aromatic_rings_count>  (561) 
2

>  <qed_drug_likeliness>  (561) 
0.49

>  <formal_charge>  (561) 
0

>  <fractioncsp3>  (561) 
0.33

>  <number_of_minimal_rings>  (561) 
3

>  <van_der_walls_volume>  (561) 
nan

>  <contains_sugar>  (561) 
False

>  <contains_ring_sugars>  (561) 
False

>  <contains_linear_sugars>  (561) 
False

>  <murcko_framework>  (561) 
O1c2ccccc2CCC1c3ccccc3

>  <np_likeness>  (561) 
1.08

>  <chemical_class>  (561) 
Flavonoids

>  <chemical_sub_class>  (561) 
O-methylated flavonoids

>  <chemical_super_class>  (561) 
Phenylpropanoids and polyketides

>  <direct_parent_classification>  (561) 
3'-O-methylated flavonoids

>  <np_classifier_pathway>  (561) 
Shikimates and Phenylpropanoids

>  <np_classifier_superclass>  (561) 
Flavonoids

>  <np_classifier_class>  (561) 
Flavanones

>  <np_classifier_is_glycoside>  (561) 
False

>  <organisms>  (561) 
Qualea labouriauana

>  <collections>  (561) 
Latin America dataset|NuBBEDB|WikiData Natural Products|ZINC NP

>  <dois>  (561) 
10.1016/0031-9422(81)85112-6

>  <synonyms>  (561) 
(2R)-574'-Triacetate-3'-methoxy-68-dimethylflavanone

>  <cas>  (561) 
nan

$$$$

     RDKit          2D

 24 27  0  0  0  0  0  0  0  0999 V2000
   -5.7886   -2.1595    0.0000 C   0  0  0  0  0  0  0  0  0  0  0  0
   -4.3086   -1.9159    0.0000 O   0  0  0  0  0  0  0  0  0  0  0  0
   -3.7795   -0.5123    0.0000 C   0  0  0  0  0  0  0  0  0  0  0  0
   -4.7305    0.6477    0.0000 C   0  0  0  0  0  0  0  0  0  0  0  0
   -4.2014    2.0513    0.0000 C   0  0  0  0  0  0  0  0  0  0  0  0
   -5.1524    3.2113    0.0000 O   0  0  0  0  0  0  0  0  0  0  0  0
   -2.7213    2.2949    0.0000 C   0  0  0  0  0  0  0  0  0  0  0  0
   -1.7703    1.1349    0.0000 C   0  0  0  0  0  0  0  0  0  0  0  0
   -2.2994   -0.2687    0.0000 C   0  0  0  0  0  0  0  0  0  0  0  0
   -1.3484   -1.4287    0.0000 C   0  0  0  0  0  0  0  0  0  0  0  0
   -1.8775   -2.8323    0.0000 O   0  0  0  0  0  0  0  0  0  0  0  0
    0.1317   -1.1851    0.0000 C   0  0  0  0  0  0  0  0  0  0  0  0
    1.0827   -2.3451    0.0000 O   0  0  0  0  0  0  0  0  0  0  0  0
    2.5628   -2.1015    0.0000 C   0  0  0  0  0  0  0  0  0  0  0  0
    3.0919   -0.6979    0.0000 C   0  0  0  0  0  0  0  0  0  0  0  0
    2.1409    0.4621    0.0000 C   0  0  0  0  0  0  0  0  0  0  0  0
    2.6700    1.8656    0.0000 C   0  0  0  0  0  0  0  0  0  0  0  0
    4.1501    2.1092    0.0000 C   0  0  0  0  0  0  0  0  0  0  0  0
    5.1011    0.9492    0.0000 C   0  0  0  0  0  0  0  0  0  0  0  0
    6.5811    1.1928    0.0000 O   0  0  0  0  0  0  0  0  0  0  0  0
    4.5720   -0.4544    0.0000 C   0  0  0  0  0  0  0  0  0  0  0  0
    5.5230   -1.6143    0.0000 O   0  0  0  0  0  0  0  0  0  0  0  0
    0.6608    0.2185    0.0000 C   0  0  0  0  0  0  0  0  0  0  0  0
   -0.2902    1.3785    0.0000 O   0  0  0  0  0  0  0  0  0  0  0  0
  1  2  1  0
  2  3  1  0
  3  4  2  0
  4  5  1  0
  5  6  1  0
  5  7  2  0
  7  8  1  0
  8  9  2  0
  9 10  1  0
 10 11  2  0
 10 12  1  0
 12 13  1  1
 13 14  1  0
 14 15  1  0
 15 16  2  0
 16 17  1  0
 17 18  2  0
 18 19  1  0
 19 20  1  0
 19 21  2  0
 21 22  1  0
 16 23  1  0
 23 24  1  6
  9  3  1  0
 23 12  1  0
 24  8  1  0
 21 15  1  0
M  END
>  <identifier>  (562) 
CNP0171855.2

>  <canonical_smiles>  (562) 
COC1=CC(O)=CC2=C1C(=O)[C@@H]1OCC3=C(C=CC(O)=C3O)[C@H]1O2

>  <standard_inchi>  (562) 
InChI=1S/C17H14O7/c1-22-11-4-7(18)5-12-13(11)15(21)17-16(24-12)8-2-3-10(19)14(20)9(8)6-23-17/h2-5,16-20H,6H2,1H3/t16-,17+/m1/s1

>  <standard_inchi_key>  (562) 
XILDQPIWFUPOAO-SJORKVTESA-N

>  <name>  (562) 
nan

>  <iupac_name>  (562) 
(6~{a}~{R},12~{a}~{R})-3,4,10-trihydroxy-8-methoxy-6~{a},12~{a}-dihydro-5~{H}-isochromeno[4,3-b]chromen-7-one

>  <annotation_level>  (562) 
4

>  <total_atom_count>  (562) 
38

>  <heavy_atom_count>  (562) 
24

>  <molecular_weight>  (562) 
330.29

>  <exact_molecular_weight>  (562) 
330.07395

>  <molecular_formula>  (562) 
C17H14O7

>  <alogp>  (562) 
2.03

>  <topological_polar_surface_area>  (562) 
105.45

>  <rotatable_bond_count>  (562) 
1

>  <hydrogen_bond_acceptors>  (562) 
7

>  <hydrogen_bond_donors>  (562) 
3

>  <hydrogen_bond_acceptors_lipinski>  (562) 
7

>  <hydrogen_bond_donors_lipinski>  (562) 
3

>  <lipinski_rule_of_five_violations>  (562) 
0

>  <aromatic_rings_count>  (562) 
2

>  <qed_drug_likeliness>  (562) 
0.69

>  <formal_charge>  (562) 
0

>  <fractioncsp3>  (562) 
0.24

>  <number_of_minimal_rings>  (562) 
4

>  <van_der_walls_volume>  (562) 
nan

>  <contains_sugar>  (562) 
False

>  <contains_ring_sugars>  (562) 
False

>  <contains_linear_sugars>  (562) 
False

>  <murcko_framework>  (562) 
O1c2ccccc2CC3OCc4ccccc4C13

>  <np_likeness>  (562) 
2.26

>  <chemical_class>  (562) 
Flavonoids

>  <chemical_sub_class>  (562) 
Pyranoflavonoids

>  <chemical_super_class>  (562) 
Phenylpropanoids and polyketides

>  <direct_parent_classification>  (562) 
Pyranoflavonoids

>  <np_classifier_pathway>  (562) 
Shikimates and Phenylpropanoids

>  <np_classifier_superclass>  (562) 
Isoflavonoids

>  <np_classifier_class>  (562) 
nan

>  <np_classifier_is_glycoside>  (562) 
False

>  <organisms>  (562) 
Goniorrhachis marginata

>  <collections>  (562) 
Latin America dataset|NPEdia|NuBBEDB|Super Natural II|WikiData Natural Products

>  <dois>  (562) 
10.1016/S0031-9422(00)86522-X

>  <synonyms>  (562) 
(6aR12aR)-3410-Trihydroxy-8-methoxy-612-dioxabenz(a)anthracen-7(5H6aH12aH)-one|5-Methoxymopanone

>  <cas>  (562) 
nan

$$$$

     RDKit          2D

 28 30  0  0  0  0  0  0  0  0999 V2000
   -8.3835    2.8037    0.0000 C   0  0  0  0  0  0  0  0  0  0  0  0
   -6.9279    2.4414    0.0000 C   0  0  0  0  0  0  0  0  0  0  0  0
   -6.5139    0.9997    0.0000 O   0  0  0  0  0  0  0  0  0  0  0  0
   -5.0583    0.6374    0.0000 C   0  0  0  0  0  0  0  0  0  0  0  0
   -4.0168    1.7169    0.0000 C   0  0  0  0  0  0  0  0  0  0  0  0
   -2.5612    1.3546    0.0000 C   0  0  0  0  0  0  0  0  0  0  0  0
   -2.1471   -0.0871    0.0000 C   0  0  0  0  0  0  0  0  0  0  0  0
   -0.6915   -0.4494    0.0000 C   0  0  0  0  0  0  0  0  0  0  0  0
   -0.2775   -1.8911    0.0000 C   0  0  0  0  0  0  0  0  0  0  0  0
    1.1781   -2.2534    0.0000 C   0  0  0  0  0  0  0  0  0  0  0  0
    1.5922   -3.6951    0.0000 O   0  0  0  0  0  0  0  0  0  0  0  0
    2.2197   -1.1740    0.0000 C   0  0  0  0  0  0  0  0  0  0  0  0
    3.6753   -1.5363    0.0000 C   0  0  0  0  0  0  0  0  0  0  0  0
    4.0893   -2.9780    0.0000 O   0  0  0  0  0  0  0  0  0  0  0  0
    4.7168   -0.4568    0.0000 C   0  0  0  0  0  0  0  0  0  0  0  0
    6.1724   -0.8191    0.0000 C   0  0  0  0  0  0  0  0  0  0  0  0
    4.3028    0.9849    0.0000 C   0  0  0  0  0  0  0  0  0  0  0  0
    5.3443    2.0643    0.0000 O   0  0  0  0  0  0  0  0  0  0  0  0
    6.7999    1.7021    0.0000 C   0  0  0  0  0  0  0  0  0  0  0  0
    7.8414    2.7815    0.0000 C   0  0  0  0  0  0  0  0  0  0  0  0
    2.8472    1.3472    0.0000 C   0  0  0  0  0  0  0  0  0  0  0  0
    2.4331    2.7889    0.0000 C   0  0  0  0  0  0  0  0  0  0  0  0
    1.8056    0.2677    0.0000 C   0  0  0  0  0  0  0  0  0  0  0  0
    0.3500    0.6300    0.0000 O   0  0  0  0  0  0  0  0  0  0  0  0
   -3.1886   -1.1666    0.0000 C   0  0  0  0  0  0  0  0  0  0  0  0
   -4.6442   -0.8043    0.0000 C   0  0  0  0  0  0  0  0  0  0  0  0
   -5.6858   -1.8837    0.0000 O   0  0  0  0  0  0  0  0  0  0  0  0
   -5.2717   -3.3255    0.0000 C   0  0  0  0  0  0  0  0  0  0  0  0
  1  2  1  0
  2  3  1  0
  3  4  1  0
  4  5  2  0
  5  6  1  0
  6  7  2  0
  8  7  1  6
  8  9  1  0
  9 10  1  0
 10 11  2  0
 10 12  1  0
 12 13  2  0
 13 14  1  0
 13 15  1  0
 15 16  1  0
 15 17  2  0
 17 18  1  0
 18 19  1  0
 19 20  1  0
 17 21  1  0
 21 22  1  0
 21 23  2  0
 23 24  1  0
  7 25  1  0
 25 26  2  0
 26 27  1  0
 27 28  1  0
 26  4  1  0
 24  8  1  0
 23 12  1  0
M  END
>  <identifier>  (563) 
CNP0080517.1

>  <canonical_smiles>  (563) 
CCOC1=CC=C([C@H]2CC(=O)C3=C(O)C(C)=C(OCC)C(C)=C3O2)C=C1OC

>  <standard_inchi>  (563) 
InChI=1S/C22H26O6/c1-6-26-16-9-8-14(10-18(16)25-5)17-11-15(23)19-20(24)12(3)21(27-7-2)13(4)22(19)28-17/h8-10,17,24H,6-7,11H2,1-5H3/t17-/m1/s1

>  <standard_inchi_key>  (563) 
CXDQQUQJAFUERW-QGZVFWFLSA-N

>  <name>  (563) 
(2r)-5-hydroxy-7,4'-diethoxy-3'-methoxy-6,8-dimethylflavanone

>  <iupac_name>  (563) 
(2~{R})-7-ethoxy-2-(4-ethoxy-3-methoxy-phenyl)-5-hydroxy-6,8-dimethyl-chroman-4-one

>  <annotation_level>  (563) 
5

>  <total_atom_count>  (563) 
54

>  <heavy_atom_count>  (563) 
28

>  <molecular_weight>  (563) 
386.44

>  <exact_molecular_weight>  (563) 
386.17294

>  <molecular_formula>  (563) 
C22H26O6

>  <alogp>  (563) 
4.52

>  <topological_polar_surface_area>  (563) 
74.22

>  <rotatable_bond_count>  (563) 
6

>  <hydrogen_bond_acceptors>  (563) 
6

>  <hydrogen_bond_donors>  (563) 
1

>  <hydrogen_bond_acceptors_lipinski>  (563) 
6

>  <hydrogen_bond_donors_lipinski>  (563) 
1

>  <lipinski_rule_of_five_violations>  (563) 
0

>  <aromatic_rings_count>  (563) 
2

>  <qed_drug_likeliness>  (563) 
0.79

>  <formal_charge>  (563) 
0

>  <fractioncsp3>  (563) 
0.41

>  <number_of_minimal_rings>  (563) 
3

>  <van_der_walls_volume>  (563) 
nan

>  <contains_sugar>  (563) 
False

>  <contains_ring_sugars>  (563) 
False

>  <contains_linear_sugars>  (563) 
False

>  <murcko_framework>  (563) 
O1c2ccccc2CCC1c3ccccc3

>  <np_likeness>  (563) 
1.12

>  <chemical_class>  (563) 
Flavonoids

>  <chemical_sub_class>  (563) 
O-methylated flavonoids

>  <chemical_super_class>  (563) 
Phenylpropanoids and polyketides

>  <direct_parent_classification>  (563) 
3'-O-methylated flavonoids

>  <np_classifier_pathway>  (563) 
Shikimates and Phenylpropanoids

>  <np_classifier_superclass>  (563) 
Flavonoids

>  <np_classifier_class>  (563) 
Flavanones

>  <np_classifier_is_glycoside>  (563) 
False

>  <organisms>  (563) 
Qualea labouriauana

>  <collections>  (563) 
Latin America dataset|NuBBEDB|WikiData Natural Products|ZINC NP

>  <dois>  (563) 
10.1016/0031-9422(81)85112-6

>  <synonyms>  (563) 
(2R)-74'-Diethoxy-5-hydroxy-3'-methoxy-68-dimethylflavanone

>  <cas>  (563) 
nan

$$$$

     RDKit          2D

 17 17  0  0  0  0  0  0  0  0999 V2000
   -7.9279    0.3529    0.0000 C   0  0  0  0  0  0  0  0  0  0  0  0
   -6.5193    0.8685    0.0000 C   0  0  0  0  0  0  0  0  0  0  0  0
   -5.3685   -0.0936    0.0000 C   0  0  0  0  0  0  0  0  0  0  0  0
   -3.9599    0.4221    0.0000 C   0  0  0  0  0  0  0  0  0  0  0  0
   -2.8091   -0.5400    0.0000 C   0  0  0  0  0  0  0  0  0  0  0  0
   -1.4005   -0.0244    0.0000 O   0  0  0  0  0  0  0  0  0  0  0  0
   -0.2496   -0.9865    0.0000 C   0  0  0  0  0  0  0  0  0  0  0  0
   -0.5074   -2.4642    0.0000 O   0  0  0  0  0  0  0  0  0  0  0  0
    1.1589   -0.4709    0.0000 C   0  0  0  0  0  0  0  0  0  0  0  0
    1.4167    1.0068    0.0000 C   0  0  0  0  0  0  0  0  0  0  0  0
    2.8253    1.5224    0.0000 C   0  0  0  0  0  0  0  0  0  0  0  0
    3.0831    3.0001    0.0000 O   0  0  0  0  0  0  0  0  0  0  0  0
    3.9761    0.5604    0.0000 C   0  0  0  0  0  0  0  0  0  0  0  0
    5.3847    1.0760    0.0000 O   0  0  0  0  0  0  0  0  0  0  0  0
    3.7184   -0.9173    0.0000 C   0  0  0  0  0  0  0  0  0  0  0  0
    4.8692   -1.8794    0.0000 O   0  0  0  0  0  0  0  0  0  0  0  0
    2.3098   -1.4329    0.0000 C   0  0  0  0  0  0  0  0  0  0  0  0
  1  2  1  0
  2  3  1  0
  3  4  1  0
  4  5  1  0
  5  6  1  0
  6  7  1  0
  7  8  2  0
  7  9  1  0
  9 10  2  0
 10 11  1  0
 11 12  1  0
 11 13  2  0
 13 14  1  0
 13 15  1  0
 15 16  1  0
 15 17  2  0
 17  9  1  0
M  END
>  <identifier>  (564) 
CNP0092512.0

>  <canonical_smiles>  (564) 
CCCCCOC(=O)C1=CC(O)=C(O)C(O)=C1

>  <standard_inchi>  (564) 
InChI=1S/C12H16O5/c1-2-3-4-5-17-12(16)8-6-9(13)11(15)10(14)7-8/h6-7,13-15H,2-5H2,1H3

>  <standard_inchi_key>  (564) 
IIOADSXXVWNOSC-UHFFFAOYSA-N

>  <name>  (564) 
pentyl 3,4,5-trihydroxybenzoate

>  <iupac_name>  (564) 
pentyl 3,4,5-trihydroxybenzoate

>  <annotation_level>  (564) 
5

>  <total_atom_count>  (564) 
33

>  <heavy_atom_count>  (564) 
17

>  <molecular_weight>  (564) 
240.25

>  <exact_molecular_weight>  (564) 
240.09977

>  <molecular_formula>  (564) 
C12H16O5

>  <alogp>  (564) 
2.15

>  <topological_polar_surface_area>  (564) 
86.99

>  <rotatable_bond_count>  (564) 
5

>  <hydrogen_bond_acceptors>  (564) 
5

>  <hydrogen_bond_donors>  (564) 
3

>  <hydrogen_bond_acceptors_lipinski>  (564) 
5

>  <hydrogen_bond_donors_lipinski>  (564) 
3

>  <lipinski_rule_of_five_violations>  (564) 
0

>  <aromatic_rings_count>  (564) 
1

>  <qed_drug_likeliness>  (564) 
0.42

>  <formal_charge>  (564) 
0

>  <fractioncsp3>  (564) 
0.42

>  <number_of_minimal_rings>  (564) 
1

>  <van_der_walls_volume>  (564) 
220.70

>  <contains_sugar>  (564) 
False

>  <contains_ring_sugars>  (564) 
False

>  <contains_linear_sugars>  (564) 
False

>  <murcko_framework>  (564) 
c1ccccc1

>  <np_likeness>  (564) 
0.59

>  <chemical_class>  (564) 
Benzene and substituted derivatives

>  <chemical_sub_class>  (564) 
Benzoic acids and derivatives

>  <chemical_super_class>  (564) 
Benzenoids

>  <direct_parent_classification>  (564) 
p-Hydroxybenzoic acid alkyl esters

>  <np_classifier_pathway>  (564) 
Shikimates and Phenylpropanoids

>  <np_classifier_superclass>  (564) 
Phenolic acids (C6-C1)

>  <np_classifier_class>  (564) 
Shikimic acids and derivatives

>  <np_classifier_is_glycoside>  (564) 
False

>  <organisms>  (564) 
Alchornea glandulosa

>  <collections>  (564) 
ChemSpider NPs|Latin America dataset|NuBBEDB|Super Natural II|WikiData Natural Products|ZINC NP

>  <dois>  (564) 
10.1080/14786410903335232

>  <synonyms>  (564) 
4568-93-8|Amyl gallate|Benzoic acid, 3,4,5-trihydroxy-, pentyl ester|CHEMBL494006|DTXSID10333159|IIOADSXXVWNOSC-UHFFFAOYSA-N|NK2CY4C8KR|SCHEMBL505480|n-Pentyl gallate|pentyl gallate

>  <cas>  (564) 
4568-93-8

$$$$

     RDKit          2D

 24 27  0  0  0  0  0  0  0  0999 V2000
   -5.5376    0.7897    0.0000 C   0  0  0  0  0  0  0  0  0  0  0  0
   -4.0579    0.5442    0.0000 C   0  0  0  0  0  0  0  0  0  0  0  0
   -2.9894    1.5971    0.0000 C   0  0  0  0  0  0  0  0  0  0  0  0
   -1.6580    0.9063    0.0000 C   0  0  0  0  0  0  0  0  0  0  0  0
   -1.9240    2.3825    0.0000 O   0  0  0  0  0  0  0  0  0  0  0  0
   -0.6514    2.0184    0.0000 C   0  0  0  0  0  0  0  0  0  0  0  0
   -1.4349    3.2975    0.0000 O   0  0  0  0  0  0  0  0  0  0  0  0
    0.7966    2.4098    0.0000 C   0  0  0  0  0  0  0  0  0  0  0  0
    0.8291    3.9095    0.0000 C   0  0  0  0  0  0  0  0  0  0  0  0
    2.2264    1.9562    0.0000 C   0  0  0  0  0  0  0  0  0  0  0  0
    3.1840    0.8016    0.0000 C   0  0  0  0  0  0  0  0  0  0  0  0
    3.3653   -0.6874    0.0000 C   0  0  0  0  0  0  0  0  0  0  0  0
    2.7128   -2.0381    0.0000 C   0  0  0  0  0  0  0  0  0  0  0  0
    1.4337   -2.8216    0.0000 C   0  0  0  0  0  0  0  0  0  0  0  0
   -0.0659   -2.7891    0.0000 C   0  0  0  0  0  0  0  0  0  0  0  0
    0.2561   -4.2541    0.0000 C   0  0  0  0  0  0  0  0  0  0  0  0
   -1.4137   -3.4475    0.0000 O   0  0  0  0  0  0  0  0  0  0  0  0
   -1.3100   -1.9511    0.0000 C   0  0  0  0  0  0  0  0  0  0  0  0
   -1.9035   -0.5735    0.0000 C   0  0  0  0  0  0  0  0  0  0  0  0
   -3.3867   -0.7973    0.0000 C   0  0  0  0  0  0  0  0  0  0  0  0
   -4.0775   -2.1287    0.0000 O   0  0  0  0  0  0  0  0  0  0  0  0
    4.5641    0.2141    0.0000 C   0  0  0  0  0  0  0  0  0  0  0  0
    5.6602   -0.8099    0.0000 C   0  0  0  0  0  0  0  0  0  0  0  0
    5.3823    1.4713    0.0000 C   0  0  0  0  0  0  0  0  0  0  0  0
  1  2  1  0
  2  3  2  0
  3  4  1  0
  4  5  1  1
  4  6  1  0
  6  7  2  0
  6  8  1  0
  8  9  1  6
  8 10  1  0
 11 10  1  1
 11 12  1  0
 12 13  1  1
 13 14  1  0
 14 15  1  0
 15 16  1  1
 15 17  1  0
 18 17  1  1
 18 19  1  0
 19 20  1  6
 20 21  2  0
 12 22  1  0
 22 23  1  0
 22 24  1  0
 20  2  1  0
 19  4  1  0
 22 11  1  0
 18 15  1  0
M  END
>  <identifier>  (565) 
CNP0145867.1

>  <canonical_smiles>  (565) 
CC1=C[C@]2(O)C(=O)[C@H](C)C[C@@H]3[C@H](CC[C@]4(C)O[C@H]4[C@@H]2C1=O)C3(C)C

>  <standard_inchi>  (565) 
InChI=1S/C20H28O4/c1-10-8-13-12(18(13,3)4)6-7-19(5)17(24-19)14-15(21)11(2)9-20(14,23)16(10)22/h9-10,12-14,17,23H,6-8H2,1-5H3/t10-,12+,13-,14+,17+,19+,20-/m1/s1

>  <standard_inchi_key>  (565) 
XZYCFPQDVLVQIF-XNSVGLNPSA-N

>  <name>  (565) 
nan

>  <iupac_name>  (565) 
(1~{S},2~{S},4~{S},7~{S},9~{R},11~{R},13~{R})-13-hydroxy-4,8,8,11,15-pentamethyl-3-oxatetracyclo[11.3.0.0^{2,4}.0^{7,9}]hexadec-14-ene-12,16-dione

>  <annotation_level>  (565) 
5

>  <total_atom_count>  (565) 
52

>  <heavy_atom_count>  (565) 
24

>  <molecular_weight>  (565) 
332.44

>  <exact_molecular_weight>  (565) 
332.19876

>  <molecular_formula>  (565) 
C20H28O4

>  <alogp>  (565) 
2.68

>  <topological_polar_surface_area>  (565) 
66.90

>  <rotatable_bond_count>  (565) 
0

>  <hydrogen_bond_acceptors>  (565) 
4

>  <hydrogen_bond_donors>  (565) 
1

>  <hydrogen_bond_acceptors_lipinski>  (565) 
4

>  <hydrogen_bond_donors_lipinski>  (565) 
1

>  <lipinski_rule_of_five_violations>  (565) 
0

>  <aromatic_rings_count>  (565) 
0

>  <qed_drug_likeliness>  (565) 
0.69

>  <formal_charge>  (565) 
0

>  <fractioncsp3>  (565) 
0.80

>  <number_of_minimal_rings>  (565) 
4

>  <van_der_walls_volume>  (565) 
319.60

>  <contains_sugar>  (565) 
False

>  <contains_ring_sugars>  (565) 
False

>  <contains_linear_sugars>  (565) 
False

>  <murcko_framework>  (565) 
O1C2CCC3CC3CCCC4C=CCC4C12

>  <np_likeness>  (565) 
2.95

>  <chemical_class>  (565) 
Prenol lipids

>  <chemical_sub_class>  (565) 
Diterpenoids

>  <chemical_super_class>  (565) 
Lipids and lipid-like molecules

>  <direct_parent_classification>  (565) 
Diterpenoids

>  <np_classifier_pathway>  (565) 
Terpenoids

>  <np_classifier_superclass>  (565) 
Diterpenoids

>  <np_classifier_class>  (565) 
Lathyrane diterpenoids

>  <np_classifier_is_glycoside>  (565) 
False

>  <organisms>  (565) 
Jatropha grossidentata|Jatropha weddelliana|Phellodendron chinense

>  <collections>  (565) 
CMAUP (cCollective molecular activities of useful plants)|ChemSpider NPs|Latin America dataset|NPASS|NuBBEDB|Super Natural II|WikiData Natural Products|ZINC NP

>  <dois>  (565) 
10.1016/0031-9422(92)83137-N|10.1590/S0103-50532001000200022

>  <synonyms>  (565) 
Jatrogrossidion

>  <cas>  (565) 
nan

$$$$

     RDKit          2D

 30 34  0  0  0  0  0  0  0  0999 V2000
   -7.8096   -1.6512    0.0000 C   0  0  0  0  0  0  0  0  0  0  0  0
   -7.0534   -0.3558    0.0000 O   0  0  0  0  0  0  0  0  0  0  0  0
   -5.5534   -0.3630    0.0000 C   0  0  0  0  0  0  0  0  0  0  0  0
   -4.8097   -1.6656    0.0000 C   0  0  0  0  0  0  0  0  0  0  0  0
   -3.3097   -1.6729    0.0000 C   0  0  0  0  0  0  0  0  0  0  0  0
   -2.5534   -0.3774    0.0000 C   0  0  0  0  0  0  0  0  0  0  0  0
   -3.2972    0.9252    0.0000 C   0  0  0  0  0  0  0  0  0  0  0  0
   -4.7972    0.9324    0.0000 C   0  0  0  0  0  0  0  0  0  0  0  0
   -5.5409    2.2350    0.0000 O   0  0  0  0  0  0  0  0  0  0  0  0
   -4.7847    3.5304    0.0000 C   0  0  0  0  0  0  0  0  0  0  0  0
   -1.0535   -0.3847    0.0000 C   0  0  0  0  0  0  0  0  0  0  0  0
   -0.3097   -1.6873    0.0000 C   0  0  0  0  0  0  0  0  0  0  0  0
   -1.0660   -2.9827    0.0000 C   0  0  0  0  0  0  0  0  0  0  0  0
   -2.5659   -2.9755    0.0000 O   0  0  0  0  0  0  0  0  0  0  0  0
    1.1903   -1.6945    0.0000 O   0  0  0  0  0  0  0  0  0  0  0  0
    1.9465   -0.3991    0.0000 C   0  0  0  0  0  0  0  0  0  0  0  0
    3.4465   -0.4063    0.0000 C   0  0  0  0  0  0  0  0  0  0  0  0
    4.1902   -1.7089    0.0000 C   0  0  0  0  0  0  0  0  0  0  0  0
    5.6902   -1.7161    0.0000 C   0  0  0  0  0  0  0  0  0  0  0  0
    6.4464   -0.4207    0.0000 C   0  0  0  0  0  0  0  0  0  0  0  0
    7.6001    0.5379    0.0000 C   0  0  0  0  0  0  0  0  0  0  0  0
    7.5909   -1.3904    0.0000 C   0  0  0  0  0  0  0  0  0  0  0  0
    5.7027    0.8819    0.0000 O   0  0  0  0  0  0  0  0  0  0  0  0
    4.2027    0.8891    0.0000 C   0  0  0  0  0  0  0  0  0  0  0  0
    3.4590    2.1918    0.0000 C   0  0  0  0  0  0  0  0  0  0  0  0
    1.9590    2.1990    0.0000 C   0  0  0  0  0  0  0  0  0  0  0  0
    1.2152    3.5016    0.0000 O   0  0  0  0  0  0  0  0  0  0  0  0
    1.2028    0.9036    0.0000 C   0  0  0  0  0  0  0  0  0  0  0  0
   -0.2972    0.9108    0.0000 C   0  0  0  0  0  0  0  0  0  0  0  0
   -1.0410    2.2134    0.0000 O   0  0  0  0  0  0  0  0  0  0  0  0
  1  2  1  0
  2  3  1  0
  3  4  2  0
  4  5  1  0
  5  6  2  0
  6  7  1  0
  7  8  2  0
  8  9  1  0
  9 10  1  0
  6 11  1  0
 11 12  2  0
 12 13  1  0
 13 14  1  0
 12 15  1  0
 15 16  1  0
 16 17  2  0
 17 18  1  0
 18 19  2  0
 19 20  1  0
 20 21  1  0
 20 22  1  0
 20 23  1  0
 23 24  1  0
 24 25  2  0
 25 26  1  0
 26 27  1  0
 26 28  2  0
 28 29  1  0
 29 30  2  0
  8  3  1  0
 29 11  1  0
 14  5  1  0
 28 16  1  0
 24 17  1  0
M  END
>  <identifier>  (566) 
CNP0207891.0

>  <canonical_smiles>  (566) 
COC1=CC2=C(C=C1OC)C1=C(CO2)OC2=C3C=CC(C)(C)OC3=CC(O)=C2C1=O

>  <standard_inchi>  (566) 
InChI=1S/C23H20O7/c1-23(2)6-5-11-15(30-23)8-13(24)20-21(25)19-12-7-16(26-3)17(27-4)9-14(12)28-10-18(19)29-22(11)20/h5-9,24H,10H2,1-4H3

>  <standard_inchi_key>  (566) 
HDDUSYQWBVKRGV-UHFFFAOYSA-N

>  <name>  (566) 
Dehydrotoxicarol

>  <iupac_name>  (566) 
11-hydroxy-17,18-dimethoxy-7,7-dimethyl-2,8,21-trioxapentacyclo[12.8.0.0^{3,12}.0^{4,9}.0^{15,20}]docosa-1(14),3,5,9,11,15(20),16,18-octaen-13-one

>  <annotation_level>  (566) 
5

>  <total_atom_count>  (566) 
50

>  <heavy_atom_count>  (566) 
30

>  <molecular_weight>  (566) 
408.41

>  <exact_molecular_weight>  (566) 
408.1209

>  <molecular_formula>  (566) 
C23H20O7

>  <alogp>  (566) 
4.26

>  <topological_polar_surface_area>  (566) 
87.36

>  <rotatable_bond_count>  (566) 
2

>  <hydrogen_bond_acceptors>  (566) 
7

>  <hydrogen_bond_donors>  (566) 
1

>  <hydrogen_bond_acceptors_lipinski>  (566) 
7

>  <hydrogen_bond_donors_lipinski>  (566) 
1

>  <lipinski_rule_of_five_violations>  (566) 
0

>  <aromatic_rings_count>  (566) 
3

>  <qed_drug_likeliness>  (566) 
0.68

>  <formal_charge>  (566) 
0

>  <fractioncsp3>  (566) 
0.26

>  <number_of_minimal_rings>  (566) 
5

>  <van_der_walls_volume>  (566) 
343.83

>  <contains_sugar>  (566) 
False

>  <contains_ring_sugars>  (566) 
False

>  <contains_linear_sugars>  (566) 
False

>  <murcko_framework>  (566) 
O1c2c3C=CCOc3ccc2CC4=C1COc5ccccc54

>  <np_likeness>  (566) 
2.30

>  <chemical_class>  (566) 
Isoflavonoids

>  <chemical_sub_class>  (566) 
Rotenoids

>  <chemical_super_class>  (566) 
Phenylpropanoids and polyketides

>  <direct_parent_classification>  (566) 
Rotenones

>  <np_classifier_pathway>  (566) 
Shikimates and Phenylpropanoids

>  <np_classifier_superclass>  (566) 
Isoflavonoids

>  <np_classifier_class>  (566) 
Rotenoids

>  <np_classifier_is_glycoside>  (566) 
False

>  <organisms>  (566) 
Achillea cretica|Amorpha fruticosa|Cordia americana|Derris Elliptica|Derris canarensis|Derris cuneifolia|Derris elliptica|Derris oblonga|Derris ovalifolia|Derris trifoliata|Eupatorium riparium|Glycosmis montana|Millettia brandisiana|Pedicularis semitorta|Scopolia japonica|Tephrosia candida|Tephrosia sinapou|Tephrosia toxicaria

>  <collections>  (566) 
Australian natural products|CMAUP (cCollective molecular activities of useful plants)|KNApSaCK|Latin America dataset|NPASS|NPEdia|NuBBEDB|Super Natural II|TIPdb (database of Taiwan indigenous plants)|UNPD (Universal Natural Products Database)|VietHerb|WikiData Natural Products|ZINC NP

>  <dois>  (566) 
10.1002/(SICI)1521-4168(19980901)21:9<513::AID-JHRC513>3.0.CO,2-F|10.1016/S0031-9422(00)89102-5|10.1016/S0031-9422(97)00405-6|10.1016/s0031-9422(97)00405-6|10.1021/JA01328A504|10.1021/NP0302100|10.1080/14786410903306126|10.1139/V07-120|10.1248/CPB.41.1456|10.1248/CPB.56.835|10.3987/COM-92-6288|10.3987/COM-95-7069

>  <synonyms>  (566) 
11-hydroxy-17,18-dimethoxy-7,7-dimethyl-2,8,21-trioxapentacyclo[12.8.0.03,12.04,9.015,20]docosa-1(14),3(12),4(9),5,10,15,17,19-octaen-13-one|3,3-Dimethyl-6-hydroxy-9,10-dimethoxy-3H-bis[1]benzopyrano[3,4-b:6',5'-e]pyran-7(13H)-one|59086-93-0|6-Hydroxy-9,10-dimethoxy-3,3-dimethyl-3H-[1]benzopyrano[4',3':5,6]pyrano[2,3-f][1]benzopyran-7(13H)-one|6a,12a-Dehydro-|6a,12a-Dehydro-alpha-toxcarol|6a,12a-Dehydrotoxicarol|6a,12a-dehydro-_-toxicarol|6a12a-dehydro-\u221a\u00e9\u00ac\u00b1-toxicarol|7a,13a-Didehydrotoxicarol|A-toxicarol|AKOS032948257|BDBM50473404|CHEMBL122787|CS-0024111|DTXSID70974542|Dehydrotoxicarol|FS-8668|HY-N3718|LMPK12060069

>  <cas>  (566) 
59086-93-0

$$$$

     RDKit          2D

  9  9  0  0  0  0  0  0  0  0999 V2000
    0.5115   -2.3139    0.0000 C   0  0  0  0  0  0  0  0  0  0  0  0
    0.8624   -0.8555    0.0000 N   0  0  0  0  0  0  0  0  0  0  0  0
    2.2485   -0.2821    0.0000 C   0  0  0  0  0  0  0  0  0  0  0  0
    2.1314    1.2133    0.0000 C   0  0  0  0  0  0  0  0  0  0  0  0
    0.6730    1.5641    0.0000 C   0  0  0  0  0  0  0  0  0  0  0  0
   -0.1113    0.2855    0.0000 C   0  0  0  0  0  0  0  0  0  0  0  0
   -1.6067    0.1685    0.0000 C   0  0  0  0  0  0  0  0  0  0  0  0
   -2.2531   -1.1851    0.0000 O   0  0  0  0  0  0  0  0  0  0  0  0
   -2.4558    1.4051    0.0000 O   0  0  0  0  0  0  0  0  0  0  0  0
  1  2  1  0
  2  3  1  0
  3  4  1  0
  4  5  1  0
  5  6  1  0
  6  7  1  6
  7  8  2  0
  7  9  1  0
  6  2  1  0
M  END
>  <identifier>  (567) 
CNP0209638.2

>  <canonical_smiles>  (567) 
CN1CCC[C@H]1C(=O)O

>  <standard_inchi>  (567) 
InChI=1S/C6H11NO2/c1-7-4-2-3-5(7)6(8)9/h5H,2-4H2,1H3,(H,8,9)/t5-/m0/s1

>  <standard_inchi_key>  (567) 
CWLQUGTUXBXTLF-YFKPBYRVSA-N

>  <name>  (567) 
N-Methyl-L-proline

>  <iupac_name>  (567) 
(2~{S})-1-methylpyrrolidine-2-carboxylic acid

>  <annotation_level>  (567) 
5

>  <total_atom_count>  (567) 
20

>  <heavy_atom_count>  (567) 
9

>  <molecular_weight>  (567) 
129.16

>  <exact_molecular_weight>  (567) 
129.07898

>  <molecular_formula>  (567) 
C6H11NO2

>  <alogp>  (567) 
0.17

>  <topological_polar_surface_area>  (567) 
40.54

>  <rotatable_bond_count>  (567) 
1

>  <hydrogen_bond_acceptors>  (567) 
2

>  <hydrogen_bond_donors>  (567) 
1

>  <hydrogen_bond_acceptors_lipinski>  (567) 
2

>  <hydrogen_bond_donors_lipinski>  (567) 
1

>  <lipinski_rule_of_five_violations>  (567) 
0

>  <aromatic_rings_count>  (567) 
0

>  <qed_drug_likeliness>  (567) 
0.55

>  <formal_charge>  (567) 
0

>  <fractioncsp3>  (567) 
0.83

>  <number_of_minimal_rings>  (567) 
1

>  <van_der_walls_volume>  (567) 
125.57

>  <contains_sugar>  (567) 
False

>  <contains_ring_sugars>  (567) 
False

>  <contains_linear_sugars>  (567) 
False

>  <murcko_framework>  (567) 
N1CCCC1

>  <np_likeness>  (567) 
0.14

>  <chemical_class>  (567) 
Carboxylic acids and derivatives

>  <chemical_sub_class>  (567) 
Amino acids, peptides, and analogues

>  <chemical_super_class>  (567) 
Organic acids and derivatives

>  <direct_parent_classification>  (567) 
Proline and derivatives

>  <np_classifier_pathway>  (567) 
Alkaloids

>  <np_classifier_superclass>  (567) 
Ornithine alkaloids

>  <np_classifier_class>  (567) 
Pyrrolidine alkaloids

>  <np_classifier_is_glycoside>  (567) 
False

>  <organisms>  (567) 
Alpinia officinarum|Amomum reticulatum|Ascodesmis sphaerospora|Caralluma russeliana|Casimiroa edulis|Castanea sativa|Citrus bergamia|Dalbergia monetaria|Espeletiopsis purpurascens|Grosvenoria rimbachii|Helianthus californicus|Homo sapiens|Imperata cylindrica|Lactarius fuliginosus|Murraya paniculata|Plectranthus hereroensis|Polypodium aureum|Spiraea prunifolia|Tamarix aphylla|Tamarix jordanis|Tamarix meyeri|Tamarix nilotica|Tamarix parviflora|Tamarix ramossisima|Tamarix senegalensis|Trichilia claussenii|Ursinia anthemoides|White sapote

>  <collections>  (567) 
CMAUP (cCollective molecular activities of useful plants)|ChEBI NPs|Exposome-explorer|KNApSaCK|NPASS|NuBBEDB|Super Natural II|TIPdb (database of Taiwan indigenous plants)|WikiData Natural Products|ZINC NP

>  <dois>  (567) 
10.1016/0031-9422(95)00969-8|10.1016/J.FOODCHEM.2015.10.070|10.1016/J.PHYTOCHEM.2005.10.027|10.1016/S0378-8741(98)00101-9|10.1016/j.foodchem.2015.10.070|10.1016/j.phytochem.2005.10.027|10.1016/s0378-8741(98)00101-9|10.1021/jf102833v|10.1080/15592324.2016.1249080|10.1111/acel.12251

>  <synonyms>  (567) 
(-)-N-Methyl-L-proline|(2S)-1-methylpyrrolidin-1-ium-2-carboxylate|(2S)-1-methylpyrrolidine-2-carboxylic acid|(S)-methylproline|1-Methylproline|1-methyl-L-proline|3BY|475-11-6|AKOS006280505|AKOS015851033|AM100855|C22223|CHEBI:90344|CS-B1517|CWLQUGTUXBXTLF-YFKPBYRVSA-N|DS-15479|DTXSID30349191|EN300-311806|HY-21754|HYGRIC ACID|L-Proline, 1-methyl-|MFCD00011565|MePro-OH.nH2O|N-methyl (L)-proline|N-methyl proline|Q27162479|SCHEMBL77336|h-n-me-pro-oh|methyl-l-proline|methylproline|n-alpha-methyl-l-proline

>  <cas>  (567) 
475-11-6

$$$$

     RDKit          2D

 13 13  0  0  0  0  0  0  0  0999 V2000
   -5.2901   -0.3059    0.0000 C   0  0  0  0  0  0  0  0  0  0  0  0
   -3.8994    0.2562    0.0000 C   0  0  0  0  0  0  0  0  0  0  0  0
   -2.7172   -0.6671    0.0000 C   0  0  0  0  0  0  0  0  0  0  0  0
   -1.3265   -0.1050    0.0000 C   0  0  0  0  0  0  0  0  0  0  0  0
   -1.1180    1.3804    0.0000 C   0  0  0  0  0  0  0  0  0  0  0  0
    0.2727    1.9425    0.0000 C   0  0  0  0  0  0  0  0  0  0  0  0
    1.4549    1.0191    0.0000 C   0  0  0  0  0  0  0  0  0  0  0  0
    2.8456    1.5812    0.0000 O   0  0  0  0  0  0  0  0  0  0  0  0
    4.0277    0.6579    0.0000 C   0  0  0  0  0  0  0  0  0  0  0  0
    1.2463   -0.4663    0.0000 C   0  0  0  0  0  0  0  0  0  0  0  0
    2.4284   -1.3896    0.0000 O   0  0  0  0  0  0  0  0  0  0  0  0
    2.2199   -2.8751    0.0000 C   0  0  0  0  0  0  0  0  0  0  0  0
   -0.1444   -1.0284    0.0000 C   0  0  0  0  0  0  0  0  0  0  0  0
  1  2  1  0
  2  3  2  0
  3  4  1  0
  4  5  2  0
  5  6  1  0
  6  7  2  0
  7  8  1  0
  8  9  1  0
  7 10  1  0
 10 11  1  0
 11 12  1  0
 10 13  2  0
 13  4  1  0
M  END
>  <identifier>  (568) 
CNP0286991.1

>  <canonical_smiles>  (568) 
C/C=C/C1=CC=C(OC)C(OC)=C1

>  <standard_inchi>  (568) 
InChI=1S/C11H14O2/c1-4-5-9-6-7-10(12-2)11(8-9)13-3/h4-8H,1-3H3/b5-4+

>  <standard_inchi_key>  (568) 
NNWHUJCUHAELCL-SNAWJCMRSA-N

>  <name>  (568) 
Methylisoeugenol

>  <iupac_name>  (568) 
1,2-dimethoxy-4-[(E)-prop-1-enyl]benzene

>  <annotation_level>  (568) 
0

>  <total_atom_count>  (568) 
27

>  <heavy_atom_count>  (568) 
13

>  <molecular_weight>  (568) 
178.23

>  <exact_molecular_weight>  (568) 
178.09938

>  <molecular_formula>  (568) 
C11H14O2

>  <alogp>  (568) 
2.74

>  <topological_polar_surface_area>  (568) 
18.46

>  <rotatable_bond_count>  (568) 
3

>  <hydrogen_bond_acceptors>  (568) 
2

>  <hydrogen_bond_donors>  (568) 
0

>  <hydrogen_bond_acceptors_lipinski>  (568) 
2

>  <hydrogen_bond_donors_lipinski>  (568) 
0

>  <lipinski_rule_of_five_violations>  (568) 
0

>  <aromatic_rings_count>  (568) 
1

>  <qed_drug_likeliness>  (568) 
0.71

>  <formal_charge>  (568) 
0

>  <fractioncsp3>  (568) 
0.27

>  <number_of_minimal_rings>  (568) 
1

>  <van_der_walls_volume>  (568) 
178.04

>  <contains_sugar>  (568) 
False

>  <contains_ring_sugars>  (568) 
False

>  <contains_linear_sugars>  (568) 
False

>  <murcko_framework>  (568) 
c1ccccc1

>  <np_likeness>  (568) 
0.44

>  <chemical_class>  (568) 
nan

>  <chemical_sub_class>  (568) 
nan

>  <chemical_super_class>  (568) 
nan

>  <direct_parent_classification>  (568) 
nan

>  <np_classifier_pathway>  (568) 
Shikimates and Phenylpropanoids

>  <np_classifier_superclass>  (568) 
Phenylpropanoids (C6-C3)

>  <np_classifier_class>  (568) 
Cinnamic acids and derivatives

>  <np_classifier_is_glycoside>  (568) 
False

>  <organisms>  (568) 
Acarus calamus|Acorus Calamus|Acorus Gramineus|Acorus calamus|Acorus calamus L.|Acorus gramineus|Acorus tatarinowii|Andinobates fulguritus|Aniba puchury-minor|Artemisia abrotanum L.|Asarum europaeum|Asarum europaeum L.|Backhousia angustifolia|Bulbophyllum cheiri|Catalpa bignonioides|Cephalonoplos segetum|Chelonanthus albus|Comaster multifida|Croton grewioides|Croton jimenezii|Croton zehntneri|Cymbopogon Goeringii|Cymbopogon goeringii|Daucus Carota|Daucus carota|Daucus carota subsp. sativus (Hoffm.) Schuebl. & G. Martens|Esenbeckia nesiotica|Foeniculum vulgare|Helipterum tenellum|Hexastylis arifolia var. arifolia|Hyptis tomentosa|Illicium difengpi|Illicium verum|Ipomoea cristulata|Lachnoanaerobaculum saburreum|Lens phaseoloides|Lophozonia menziesii|Mangifera indica|Melaleuca acacioides|Melaleuca leucadendra|Myristica Fragrans|Myristica fragrans|Nicotiana alata|Nicotiana bonariensis|Nicotiana ingulba|Pancratium trianthum|Perilla frutescens|Piper pedicellosum|Rhodotypos scandens|Scrophularia buergeriana|Scrophularia ningpoensis|Solidago odora|Tagetes filifolia|Xanthostemon oppositifolius|common myrtle|pomegranate

>  <collections>  (568) 
Australian natural products|CMAUP (cCollective molecular activities of useful plants)|ChEBI NPs|ETM (Ethiopian Traditional Medicine) DB|InterBioScreen Ltd|KNApSaCK|Latin America dataset|NAPRORE-CR|NPASS|NPEdia|NuBBEDB|Phyto4Health|Super Natural II|TCMDB-Taiwan (Traditional Chinese Medicine database)|TIPdb (database of Taiwan indigenous plants)|TPPT (Toxic Plants–PhytoToxins)|VietHerb|WikiData Natural Products|ZINC NP

>  <dois>  (568) 
10.1002/ARDP.19022400507|10.1002/JSFA.6397|10.1002/biuz.19840140514|10.1002/ffj.2730030109|10.1002/food.19880321030|10.1007/S10600-010-9708-0|10.1016/J.FITOTE.2018.08.006|10.1016/J.INDCROP.2014.04.048|10.1016/J.JPBA.2006.01.024|10.1016/J.PHYTOCHEM.2006.05.038|10.1016/J.PHYTOCHEM.2018.12.020|10.1016/S0031-9422(00)83939-4|10.1016/S0031-9422(00)97975-5|10.1016/S0031-9422(97)00075-7|10.1016/S0305-1978(03)00179-0|10.1021/JF0402633|10.1021/JF60217A066|10.1021/jf60217a066|10.1055/S-0028-1097281|10.1055/S-0028-1099525|10.1080/10412905.1994.9699353|10.1080/10412905.1995.9698514|10.1080/10412905.2002.9699883|10.1080/10942912.2016.1155057|10.1248/YAKUSHI1947.90.11_1367|10.7897/2230-8407.04320

>  <synonyms>  (568) 
|(E)-1,2-DIMETHOXY-4-(1-PROPENYL)BENZENE|(E)-1,2-Dimethoxy-4-(prop-1-en-1-yl)benzene|(E)-1-(3,4-DIMETHOXYPHENYL)PROPENE|(E)-ISOEUGENOL METHYL ETHER|(E)-Methyl isoeugenol|(E)-O-METHYLISOEUGENOL|(E\/Z)-Methylisoeugenol|(E\/Z)-Methylisoeugenol Solution in Acetonitrile, 1000ug\/mL|(E\/Z)-Methylisoeugenol Solution in Acetonitrile, 100ug\/mL|(e)-methylisoeugenol|1,2-Dimethoxy-4-(1-propenyl)-benzene|1,2-Dimethoxy-4-[1-propenyl]benzene #|1,2-Dimethoxy-4-propenylbenzene|1,2-Dimethoxy-4-propenylbenzene, 99%|1,2-dimethoxy-4-(prop-1-en-1-yl)benzene|1,2-dimethoxy-4-[(1E)-prop-1-en-1-yl]benzene|1,2-dimethoxy-4-[(E)-prop-1-enyl]benzene|1,2-dimethoxy-4-prop-1-en-1-ylbenzene|1,3,4-Isoeugenol methyl ether|1,4-Isoeugenol methyl ether|1-(3,4-Dimethoxyphenyl)-1-propene|1-Propene, 1-(3,4-dimethoxyphenyl)-|1-Propene,4-dimethoxyphenyl)-|1-Veratryl-1-propene|3,4-Dimethoxypropenylbenzene|4-(1-Propenyl)-1,2-dimethoxybenzene|4-(1-Propenyl)pyrocatechol Dimethyl Ether|4-Propenyl-1,2-dimethoxybenzene|4-Propenylveratrole|4-Propenylveratrole; NSC 46111; 1,2-Dimethoxy-4-(1-propen-1-yl)benzene; 1-Veratryl-1-propene; 3,4-Dimethoxy-beta-methylstyrene; 4-Propenyl-1,2-dimethoxybenzene|4-cis-Propenylveratrole; cis-Isoeugenol methyl ether;cis-Methylisoeugenol|4-trans-Propenylveratrole|54349-79-0|6379-72-2|93-16-3|AKOS005608367|AS-56928|BBL009809|BENZENE,1,2-DIMETHOXY,4-PROPENYL   ISOEUGENOL,METHYL ETHER|BRN 1911285|Benzene, 1,2-dimethoxy-4-(1-propenyl)-|Benzene, 1,2-dimethoxy-4-(1E)-1-propenyl-|Benzene, 1,2-dimethoxy-4-propenyl|Benzene, 1,2-dimethoxy-4-propenyl-|Benzene, 1,2-dimethoxy-4-propenyl-, (E)-|Benzene, 4-(1-propenyl)-1,2-dimethoxy|Benzene,2-dimethoxy-4-(1-propenyl)-|Benzene,2-dimethoxy-4-propenyl-|CAS-93-16-3|CHEBI:14469|CHEBI:6877|CHEMBL465829|CS-0022657|DTXSID501020311|E)-1,2-Dimethoxy-4-(1-propenyl)benzene|EBC-616616|EINECS 228-958-7|EN300-21037355|EN300-2559873|F339984|FEMA NO. 2476, E-|FI40138|GAA37972|HY-N2439|ISOEUGENYL METHYL ETHER, TRANS-|ISOHOMOEUGENOL|Isoeugenol methyl ether|Isohomogenol|Isomethyleugenol|J6M6C71VVR|MFCD00009282|MIe|MSK014256|MSK014256-1000A|MSK014256-100A|Methyl isoeugenol, >=98%, FG|Methylisoeugenol|Methylisoeugenol, (E)-|NCGC00357104-01|NSC 46111|NSC46111|O-Methyl Isoeugenol|O-Methylisoeugenol|P1103|Q10858039|Q27108981|SCHEMBL1532669|SCHEMBL27675725|SCHEMBL29518298|SCHEMBL909843|STK801268|Tox21_303830|UNII-J6M6C71VVR|VERATROLE, 4-PROPENYL-, TRANS-|VS-02193|Veratrole, 4-propenyl-|WLN: 2U1R CO1 DO1|cis-O-Methylisoeugenol|ghl.PD_Mitscher_leg0.366|iso eugenol methyl ether|methylation|methylisoeugenol, trans-|orb1301608|orb1681548|s3006|trans-4-Propenylveratrole|trans-Methylisoeugenol|trans-isomethyleugenol

>  <cas>  (568) 
93-16-3|6379-72-2|54349-79-0|CAS-93-16-3

$$$$

     RDKit          2D

 24 25  0  0  0  0  0  0  0  0999 V2000
    8.8657   -2.4039    0.0000 C   0  0  0  0  0  0  0  0  0  0  0  0
    7.5534   -1.6773    0.0000 C   0  0  0  0  0  0  0  0  0  0  0  0
    6.2681   -2.4505    0.0000 O   0  0  0  0  0  0  0  0  0  0  0  0
    7.5265   -0.1776    0.0000 O   0  0  0  0  0  0  0  0  0  0  0  0
    6.2143    0.5490    0.0000 C   0  0  0  0  0  0  0  0  0  0  0  0
    5.4877   -0.7633    0.0000 C   0  0  0  0  0  0  0  0  0  0  0  0
    6.9408    1.8613    0.0000 C   0  0  0  0  0  0  0  0  0  0  0  0
    4.9020    1.2756    0.0000 C   0  0  0  0  0  0  0  0  0  0  0  0
    3.6166    0.5024    0.0000 N   0  0  0  0  0  0  0  0  0  0  0  0
    2.3043    1.2290    0.0000 C   0  0  0  0  0  0  0  0  0  0  0  0
    2.2774    2.7288    0.0000 O   0  0  0  0  0  0  0  0  0  0  0  0
    1.0189    0.4558    0.0000 C   0  0  0  0  0  0  0  0  0  0  0  0
   -0.2933    1.1824    0.0000 C   0  0  0  0  0  0  0  0  0  0  0  0
   -1.5787    0.4093    0.0000 C   0  0  0  0  0  0  0  0  0  0  0  0
   -2.8910    1.1358    0.0000 C   0  0  0  0  0  0  0  0  0  0  0  0
   -4.1764    0.3627    0.0000 C   0  0  0  0  0  0  0  0  0  0  0  0
   -4.1495   -1.1371    0.0000 C   0  0  0  0  0  0  0  0  0  0  0  0
   -5.4348   -1.9103    0.0000 C   0  0  0  0  0  0  0  0  0  0  0  0
   -6.7471   -1.1837    0.0000 C   0  0  0  0  0  0  0  0  0  0  0  0
   -8.1652   -1.6727    0.0000 O   0  0  0  0  0  0  0  0  0  0  0  0
   -9.0685   -0.4752    0.0000 C   0  0  0  0  0  0  0  0  0  0  0  0
   -8.2087    0.7539    0.0000 O   0  0  0  0  0  0  0  0  0  0  0  0
   -6.7740    0.3161    0.0000 C   0  0  0  0  0  0  0  0  0  0  0  0
   -5.4886    1.0892    0.0000 C   0  0  0  0  0  0  0  0  0  0  0  0
  1  2  1  0
  2  3  2  0
  2  4  1  0
  4  5  1  0
  5  6  1  0
  5  7  1  0
  5  8  1  0
  8  9  1  0
  9 10  1  0
 10 11  2  0
 10 12  1  0
 12 13  2  0
 13 14  1  0
 14 15  2  0
 15 16  1  0
 16 17  2  0
 17 18  1  0
 18 19  2  0
 19 20  1  0
 20 21  1  0
 21 22  1  0
 22 23  1  0
 23 24  2  0
 24 16  1  0
 23 19  1  0
M  END
>  <identifier>  (569) 
CNP0316954.1

>  <canonical_smiles>  (569) 
CC(=O)OC(C)(C)CNC(=O)/C=C/C=C/C1=CC=C2OCOC2=C1

>  <standard_inchi>  (569) 
InChI=1S/C18H21NO5/c1-13(20)24-18(2,3)11-19-17(21)7-5-4-6-14-8-9-15-16(10-14)23-12-22-15/h4-10H,11-12H2,1-3H3,(H,19,21)/b6-4+,7-5+

>  <standard_inchi_key>  (569) 
QGDBWUXDIODTEX-YDFGWWAZSA-N

>  <name>  (569) 
nan

>  <iupac_name>  (569) 
nan

>  <annotation_level>  (569) 
0

>  <total_atom_count>  (569) 
45

>  <heavy_atom_count>  (569) 
24

>  <molecular_weight>  (569) 
331.37

>  <exact_molecular_weight>  (569) 
331.14197

>  <molecular_formula>  (569) 
C18H21NO5

>  <alogp>  (569) 
2.44

>  <topological_polar_surface_area>  (569) 
73.86

>  <rotatable_bond_count>  (569) 
6

>  <hydrogen_bond_acceptors>  (569) 
5

>  <hydrogen_bond_donors>  (569) 
1

>  <hydrogen_bond_acceptors_lipinski>  (569) 
5

>  <hydrogen_bond_donors_lipinski>  (569) 
1

>  <lipinski_rule_of_five_violations>  (569) 
0

>  <aromatic_rings_count>  (569) 
1

>  <qed_drug_likeliness>  (569) 
0.49

>  <formal_charge>  (569) 
0

>  <fractioncsp3>  (569) 
0.33

>  <number_of_minimal_rings>  (569) 
2

>  <van_der_walls_volume>  (569) 
306.27

>  <contains_sugar>  (569) 
False

>  <contains_ring_sugars>  (569) 
False

>  <contains_linear_sugars>  (569) 
False

>  <murcko_framework>  (569) 
O1c2ccccc2OC1

>  <np_likeness>  (569) 
0.79

>  <chemical_class>  (569) 
nan

>  <chemical_sub_class>  (569) 
nan

>  <chemical_super_class>  (569) 
nan

>  <direct_parent_classification>  (569) 
nan

>  <np_classifier_pathway>  (569) 
Shikimates and Phenylpropanoids

>  <np_classifier_superclass>  (569) 
nan

>  <np_classifier_class>  (569) 
nan

>  <np_classifier_is_glycoside>  (569) 
False

>  <organisms>  (569) 
Ottonia corcovadensis|Piper corcovadense|Piper scutifolium|piper hoffmanseggianum

>  <collections>  (569) 
Latin America dataset|NPASS|NuBBEDB|Super Natural II|WikiData Natural Products|ZINC NP

>  <dois>  (569) 
10.1016/0031-9422(81)80027-1|10.1021/NP070347G|10.1021/np070347g

>  <synonyms>  (569) 
nan

>  <cas>  (569) 
nan

$$$$

     RDKit          2D

 29 32  0  0  0  0  0  0  0  0999 V2000
   -6.9474    2.1725    0.0000 C   0  0  0  0  0  0  0  0  0  0  0  0
   -5.5242    1.6986    0.0000 C   0  0  0  0  0  0  0  0  0  0  0  0
   -5.2231    0.2291    0.0000 C   0  0  0  0  0  0  0  0  0  0  0  0
   -3.7999   -0.2448    0.0000 C   0  0  0  0  0  0  0  0  0  0  0  0
   -3.4988   -1.7143    0.0000 C   0  0  0  0  0  0  0  0  0  0  0  0
   -4.6209   -2.7098    0.0000 C   0  0  0  0  0  0  0  0  0  0  0  0
   -2.0757   -2.1883    0.0000 C   0  0  0  0  0  0  0  0  0  0  0  0
   -1.6226   -3.6182    0.0000 C   0  0  0  0  0  0  0  0  0  0  0  0
   -0.1226   -3.6292    0.0000 C   0  0  0  0  0  0  0  0  0  0  0  0
    0.3513   -2.2060    0.0000 C   0  0  0  0  0  0  0  0  0  0  0  0
    1.7261   -1.6060    0.0000 C   0  0  0  0  0  0  0  0  0  0  0  0
    2.9331   -2.4965    0.0000 C   0  0  0  0  0  0  0  0  0  0  0  0
    4.3078   -1.8965    0.0000 C   0  0  0  0  0  0  0  0  0  0  0  0
    4.4756   -0.4059    0.0000 C   0  0  0  0  0  0  0  0  0  0  0  0
    5.8503    0.1942    0.0000 C   0  0  0  0  0  0  0  0  0  0  0  0
    6.0180    1.6848    0.0000 C   0  0  0  0  0  0  0  0  0  0  0  0
    7.3928    2.2848    0.0000 O   0  0  0  0  0  0  0  0  0  0  0  0
    4.8110    2.5753    0.0000 C   0  0  0  0  0  0  0  0  0  0  0  0
    3.4362    1.9753    0.0000 C   0  0  0  0  0  0  0  0  0  0  0  0
    3.2685    0.4847    0.0000 C   0  0  0  0  0  0  0  0  0  0  0  0
    2.0615    1.3752    0.0000 C   0  0  0  0  0  0  0  0  0  0  0  0
    1.8938   -0.1154    0.0000 C   0  0  0  0  0  0  0  0  0  0  0  0
    0.6867    0.7751    0.0000 C   0  0  0  0  0  0  0  0  0  0  0  0
   -0.6880    0.1751    0.0000 C   0  0  0  0  0  0  0  0  0  0  0  0
   -0.8557   -1.3155    0.0000 C   0  0  0  0  0  0  0  0  0  0  0  0
   -2.1492   -0.5560    0.0000 C   0  0  0  0  0  0  0  0  0  0  0  0
   -4.4022    2.6941    0.0000 C   0  0  0  0  0  0  0  0  0  0  0  0
   -4.7033    4.1635    0.0000 C   0  0  0  0  0  0  0  0  0  0  0  0
   -2.9790    2.2201    0.0000 C   0  0  0  0  0  0  0  0  0  0  0  0
  1  2  2  0
  2  3  1  0
  3  4  1  0
  4  5  1  0
  5  6  1  6
  5  7  1  0
  7  8  1  6
  8  9  1  0
 10  9  1  6
 10 11  1  0
 11 12  1  1
 12 13  1  0
 13 14  2  0
 14 15  1  0
 15 16  1  0
 16 17  1  6
 16 18  1  0
 18 19  1  0
 19 20  1  0
 20 21  1  6
 20 22  1  0
 22 23  1  6
 23 24  1  0
 24 25  1  0
 25 26  1  6
  2 27  1  0
 27 28  1  0
 27 29  1  0
 25  7  1  0
 25 10  1  0
 22 11  1  0
 20 14  1  0
M  END
>  <identifier>  (570) 
CNP0211064.3

>  <canonical_smiles>  (570) 
C=C(CC[C@@H](C)[C@H]1CC[C@H]2[C@@H]3CC=C4C[C@@H](O)CC[C@]4(C)[C@H]3CC[C@]12C)C(C)C

>  <standard_inchi>  (570) 
InChI=1S/C28H46O/c1-18(2)19(3)7-8-20(4)24-11-12-25-23-10-9-21-17-22(29)13-15-27(21,5)26(23)14-16-28(24,25)6/h9,18,20,22-26,29H,3,7-8,10-17H2,1-2,4-6H3/t20-,22+,23+,24-,25+,26+,27+,28-/m1/s1

>  <standard_inchi_key>  (570) 
INDVLXYUCBVVKW-PXBBAZSNSA-N

>  <name>  (570) 
24-Methylenecholesterol

>  <iupac_name>  (570) 
(3~{S},8~{S},9~{S},10~{R},13~{R},14~{S},17~{R})-17-[(1~{R})-1,5-dimethyl-4-methylene-hexyl]-10,13-dimethyl-2,3,4,7,8,9,11,12,14,15,16,17-dodecahydro-1~{H}-cyclopenta[a]phenanthren-3-ol

>  <annotation_level>  (570) 
5

>  <total_atom_count>  (570) 
75

>  <heavy_atom_count>  (570) 
29

>  <molecular_weight>  (570) 
398.68

>  <exact_molecular_weight>  (570) 
398.35487

>  <molecular_formula>  (570) 
C28H46O

>  <alogp>  (570) 
7.55

>  <topological_polar_surface_area>  (570) 
20.23

>  <rotatable_bond_count>  (570) 
5

>  <hydrogen_bond_acceptors>  (570) 
1

>  <hydrogen_bond_donors>  (570) 
1

>  <hydrogen_bond_acceptors_lipinski>  (570) 
1

>  <hydrogen_bond_donors_lipinski>  (570) 
1

>  <lipinski_rule_of_five_violations>  (570) 
1

>  <aromatic_rings_count>  (570) 
0

>  <qed_drug_likeliness>  (570) 
0.47

>  <formal_charge>  (570) 
0

>  <fractioncsp3>  (570) 
0.86

>  <number_of_minimal_rings>  (570) 
4

>  <van_der_walls_volume>  (570) 
423.55

>  <contains_sugar>  (570) 
False

>  <contains_ring_sugars>  (570) 
False

>  <contains_linear_sugars>  (570) 
False

>  <murcko_framework>  (570) 
C1=C2CCCCC2C3CCC4CCCC4C3C1

>  <np_likeness>  (570) 
2.97

>  <chemical_class>  (570) 
Steroids and steroid derivatives

>  <chemical_sub_class>  (570) 
Ergostane steroids

>  <chemical_super_class>  (570) 
Lipids and lipid-like molecules

>  <direct_parent_classification>  (570) 
Ergosterols and derivatives

>  <np_classifier_pathway>  (570) 
Terpenoids

>  <np_classifier_superclass>  (570) 
Steroids

>  <np_classifier_class>  (570) 
Ergostane steroids

>  <np_classifier_is_glycoside>  (570) 
False

>  <organisms>  (570) 
Acacia leptostachya|Acarnus erithacus|Acetabularia acetabulum|Acrocarpia paniculata|Adiantum caudatum|Albatrellus confluens|Alpinia formosana|Alstroemeria aurantiaca|Alstroemeria aurea|Ambrosia trifida|Amphilectus digitatus|Amphilectus fucorum|Angelica atropurpurea|Anisocycla grandidieri|Annona coriacea|Anodendron affine|Anthocleista vogelii|Aphanoascus fulvescens|Apis dorsata|Apis mellifera|Aplysia depilans|Aplysina fistularis|Arabis purpurea|Artemisia abyssinica|Asparagus setaceus|Aspergillus japonicus|Asphodelus fistulosus|Astragalus sevangensis|Aureococcus anophagefferens|Aureoumbra lagunensis|Axinella aruensis|Axinella cannabina|Baccharoides anthelmintica|Bambusa tulda|Beta vulgaris|Bidens parviflora|Boodleopsis pusilla|Brassica nigra|Brassica rapa|Brassica rapa subsp. chinensis|Bryopsis plumosa|Bryum rutilans|Calendula officinalis|Caloncoba glauca|Canistrocarpus cervicornis|Carnegiea gigantea|Catharanthus roseus|Caulerpa prolifera|Caulerpa racemosa|Caulerpa taxifolia|Cedrela salvadorensis|Celastrus pringlei|Ceratodictyon spongiosum|Chara australis|Chara buckellii|Chlorosplenium aeruginosum|Chrysoderma mucosum|Cichorium spinosum|Citrus natsudaidai|Cladophora rupestris|Cladophora vagabunda|Clathria basilana|Cliona celata|Codium decorticatum|Codium dichotomum|Crassostrea gigas|Crassostrea virginica|Cribricellina cribraria|Cribrochalina vasculum|Crotalaria podocarpa|Crotalaria trichotoma|Croton balsamifer|Cucumis melo|Cucumis sativus|Cucurbita pepo|Cyclotella cryptica|Cymodocea nodosa|Cystoseira barbata|Cystoseira elegans|Cyttaria johowii|Delphinium densiflorum|Dendrolimus spectabilis|Dermonema abbottiae|Detonula confervacea|Dictyopteris delicatula|Dictyopteris plagiogramma|Dictyota cervicornis|Dictyota dichotoma|Dictyota mertensii|Dictyuchus monosporus|Dimelaena thysanota|Dimorphotheca ecklonis|Dioscorea polystachya|Diplopterygium glaucum|Diploschistes cretaceus|Dragmacidon lunaecharta|Echinometra lucunter|Ehretia laevis|Ellisella paraplexauroides|Elsholtzia blanda|Elsholtzia stauntonii|Eminium spiculatum|Endarachne binghamiae|Enteromorpha clathrata|Enteromorpha linza|Equisetum arvense|Eucalyptus bakeri|Eunicella labiata|Eupatorium sternbergianum|Euphorbia grandicornis|Flindersia australis|Fraxinus chinensis subsp. rhynchophylla|Fritillaria pallidiflora|Garcinia cambogia|Gelidium filicinum|Geodia japonica|Gleichenia japonica|Gmelina leichhardtii|Gossypium sturtianum|Haemanthus tigrinus|Haliclona oculata|Hedera canariensis|Hedysarum multijugum|Heliotropium Indicum|Heliotropium angiospermum|Heliotropium indicum|Hertia cheirifolia|Hijikia fusiforme|Holarrhena pubescens|Hydnocarpus anthelminthicus|Hymedesmia australis|Juglans regia|Kalanchoe daigremontiana|Kalanchoe marmorata|Kalanchoe petitiana|Koelreuteria paniculata|Lagenaria siceraria|Leptogorgia piccola|Leptogorgia ruberrima|Leptogorgia rubroflavescens|Leptogorgia viminalis|Leptogorgia violetta|Lessonia|Licaria chrysophylla|Litophyton arboreum|Litophyton viridis|Lobophytum crassum|Luffa aegyptiaca|Lunasia quercifolia|Macaranga sampsonii|Maytenus salicifolia|Melanothamnus somalensis|Melilotus indicus|Mentha suaveolens|Mentzelia incisa|Mentzelia lindleyi|Micromonospora coerulea|Molopospermum peloponnesiacum|Mortierella alpina|Muricea californica|Mus musculus|Mycale mytilorum|Myrmicaria opaciventris|Mytilus edulis|Nematochrysopsis marina|Neoesperiopsis digitata|Nicotiana tabacum|Nitzschia brevirostris|Olea europaea|Onopordum acanthium|Ormosia discolor|Ormosia hosiei|Ornithoglossum viride|Oryza sativa|Osmia laevigata|Pachycereus tehuantepecanus|Padina gymnospora|Padina vickersiae|Papaver hybrid|Paracribricellina cribraria|Pertusaria truncata|Petasites laevigatus|Petrosia ficiformis|Peucedanum alsaticum|Phallusia nigra|Phascolosoma vulgare|Phlomis regelii|Phyllidiella pustulosa|Phyllotopsis nidulans|Physalis peruviana|Picconia excelsa|Pinus bungeana|Piper gibbilimbum|Piper hostmannianum|Pittosporum tobira|Plagiochila acanthophylla|Pleroma menoui|Pocillopora eydouxi|Polanisia dodecandra|Polymastia pachymastia|Polypodium decumanum|Posidonia oceanica|Protea compacta|Protohermes grandis|Prunus tomentosa|Psacalium paucicapitatum|Psilotum nudum|Quercus cerris|Reniera sarai|Rheum hotaoense|Rhizoma dryopteris crassirhizomae|Rhododendron makinoi|Rollinia laurifolia|Rothmannia macrophylla|Rubia tetragona|Rubus cochinchinensis|Rubus moluccanus|Rubus plicatus|Salpa thompsoni|Sargassum filipendula|Sargassum furcatum|Sargassum fusiforme|Sargassum pallidum|Schizanthus tricolor|Schottera nicaeensis|Sea lettuce|Sea peach|Secale cereale|Senecio dianthus|Senna multiglandulosa|Serratula tinctoria|Setaria italica|Sinapis alba|Sinularia|Sinularia brassica|Sinularia flexibilis|Sinularia gibberosa|Sinularia maxima|Sinularia numerosa|Sinularia polydactyla|Sisymbrium irio|Smilax glabra|Solanum arundo|Solanum melongena|Spatoglossum macrodontum|Sphaeranthus confertifolius|Stelodoryx chlorophylla|Streptomyces sclerotialus|Svenzea zeai|Symphoricarpos albus|Synedra acus|Tethya aurantia|Tethya aurantium|Tethya deformis|Tetilla|Tetilla japonica|Teucrium pilosum|Thalassiosira eccentrica|Thalassiosira oceanica|Thalassiosira pseudonana|Timothy-grass|Topsentia genitrix|Topsentia roquensis|Trichilia lepidota|Trichilia pallida|Tricholoma muscarium|Trifolium pratense|Trigonella balansae|Trigonella caerulea|Trigonella calliceras|Trigonella corniculata|Trigonella cretica|Trigonella foenum-graecum|Tylopilus neofelleus|Typha latifolia|Typhonium flagelliforme|Ulnaria acus|Ulva fasciata|Ulva linza|Ulva popenguinensis|Ulva rigida|Vanilla planifolia|Vanilla tahitensis|Water net|Westiellopsis prolifica|Wrightia tinctoria|Zoanthus sociatus|common sunflower|hijiki|maize|tomato|watermelon

>  <collections>  (570) 
Australian natural products|CMAUP (cCollective molecular activities of useful plants)|ChEBI NPs|Latin America dataset|NPASS|NuBBEDB|Phyto4Health|Super Natural II|VietHerb|WikiData Natural Products

>  <dois>  (570) 
10.1002/BSCB.19810900913|10.1002/CHIN.199643209|10.1002/CHIN.199806223|10.1002/JCCS.199900040|10.1002/JCCS.200100118|10.1002/bscb.19810900913|10.1007/BF00565153|10.1007/BF00575174|10.1007/BF01946725|10.1007/BF01952468|10.1007/BF02534547|10.1007/BF02534722|10.1007/BF02537347|10.1007/BF02541591|10.1007/BF02637687|10.1007/BF02660305|10.1007/S10600-010-9670-X|10.1007/S11172-010-0068-5|10.1007/S11746-998-0009-8|10.1016/0031-9422(75)85354-4|10.1016/0031-9422(82)83189-0|10.1016/0031-9422(83)83040-4|10.1016/0031-9422(84)83024-1|10.1016/0031-9422(84)83081-2|10.1016/0031-9422(88)80032-3|10.1016/0031-9422(88)80200-0|10.1016/0031-9422(88)80428-X|10.1016/0031-9422(90)85251-A|10.1016/0031-9422(91)80079-G|10.1016/0031-9422(91)83027-I|10.1016/0031-9422(91)83634-W|10.1016/0031-9422(91)83651-Z|10.1016/0031-9422(92)80435-H|10.1016/0031-9422(92)83142-L|10.1016/0031-9422(92)83440-A|10.1016/0031-9422(93)80053-U|10.1016/0031-9422(96)00027-1|10.1016/0039-128X(80)90095-1|10.1016/0039-128X(81)90070-2|10.1016/0039-128X(82)90021-6|10.1016/0039-128X(83)90093-4|10.1016/0039-128X(89)90015-9|10.1016/0305-0491(92)90235-J|10.1016/0305-1978(84)90026-7|10.1016/0305-1978(95)00105-0|10.1016/0965-1748(93)90098-D|10.1016/C2016-0-02191-5|10.1016/J.PHYTOCHEM.2006.02.023|10.1016/J.STEROIDS.2006.07.002|10.1016/J.TETLET.2007.10.070|10.1016/S0031-9422(00)80074-6|10.1016/S0031-9422(00)80786-4|10.1016/S0031-9422(00)80787-6|10.1016/S0031-9422(00)81419-3|10.1016/S0031-9422(00)83106-4|10.1016/S0031-9422(00)84080-7|10.1016/S0031-9422(00)84109-6|10.1016/S0031-9422(00)84516-1|10.1016/S0031-9422(00)85025-6|10.1016/S0031-9422(00)85638-1|10.1016/S0031-9422(00)90430-8|10.1016/S0031-9422(00)97034-1|10.1016/S0031-9422(00)97095-X|10.1016/S0031-9422(01)00135-2|10.1016/S0031-9422(96)00588-2|10.1016/S0031-9422(97)00860-1|10.1016/S0039-128X(03)00036-9|10.1016/S0040-4020(01)85914-7|10.1016/S0040-4020(01)88936-5|10.1016/S0040-4020(01)90520-4|10.1016/S0040-4039(00)97862-6|10.1016/S0040-4039(00)97863-8|10.1016/S0305-0491(97)00269-1|10.1021/JA00004A047|10.1021/JA00526A083|10.1021/JF000135O|10.1021/JF500083R|10.1021/JO01182A015|10.1021/NP0100690|10.1021/NP0100789|10.1021/NP0600494|10.1021/NP0601509|10.1021/NP50063A023|10.1021/NP50063A034|10.1021/NP50065A004|10.1021/NP50076A023|10.1021/NP50076A041|10.1021/NP50092A016|10.1021/NP800208K|10.1021/NP9804076|10.1039/C39840001176|10.1039/P19830000147|10.1055/s-0035-1546242|10.1071/CH9890757|10.1080/00021369.1989.10869818|10.1139/V85-398|10.1177/1934578x1400900313|10.1248/CPB.31.1366|10.1248/CPB.34.4562|10.1248/CPB.37.2553|10.1248/CPB.41.624|10.1248/CPB.45.224|10.1248/CPB.55.1528|10.1248/CPB.57.401|10.1248/cpb.57.401|10.1271/BBB.56.834|10.1271/BBB.63.1800|10.1271/BBB1961.53.3363|10.1515/9783112328101-024|10.1515/BOTM.1987.30.5.371|10.1515/BOTM.1991.34.3.215|10.1590/S0103-50532002000300014|10.1590/S1519-566X2008000600013|10.2331/SUISAN.51.1305|10.5012/BKCS.2013.34.1.249|10.5650/JOS.50.259|10.5650/JOS1996.46.687|10.5650/JOS1996.49.719

>  <synonyms>  (570) 
(3S,8S,9S,10R,13R,14S,17R)-10,13-dimethyl-17-[(2R)-6-methyl-5-methylideneheptan-2-yl]-2,3,4,7,8,9,11,12,14,15,16,17-dodecahydro-1H-cyclopenta[a]phenanthren-3-ol|(3b)-Ergosta-5,24(28)-dien-3-ol|(3beta,14beta,17alpha)-ergosta-5,24(28)-dien-3-ol|24-methylencholesterol|24-methylene-cholest-5-en-3beta-ol|474-63-5|5,24(28)-Cholestadien-24-methylen-3beta-ol|94R|AKOS027326503|CHEBI:19812|CHEMBL477971|CS-0136115|Chalinasterol|Cholesterol, 24-methylene-|DTXSID80963826|Ergosta-5,24(28)-dien-3-ol #|Ergosta-5,24(28)-dien-3-ol, (3beta)-|Ergosta-5,24(28)-dien-3beta-ol|HY-133968|INDVLXYUCBVVKW-PXBBAZSNSA-N|LMST01030099|NSC-232664|Ostreasterol|Q27109256|SCHEMBL42185|SJ0718OYKX|UNII-SJ0718OYKX

>  <cas>  (570) 
474-63-5

$$$$

     RDKit          2D

 32 35  0  0  0  0  0  0  0  0999 V2000
   -0.9943   -4.9455    0.0000 C   0  0  0  0  0  0  0  0  0  0  0  0
   -1.7846   -3.6705    0.0000 C   0  0  0  0  0  0  0  0  0  0  0  0
   -1.0756   -2.3487    0.0000 O   0  0  0  0  0  0  0  0  0  0  0  0
   -1.8658   -1.0737    0.0000 C   0  0  0  0  0  0  0  0  0  0  0  0
   -1.1568    0.2481    0.0000 O   0  0  0  0  0  0  0  0  0  0  0  0
    0.3425    0.2950    0.0000 C   0  0  0  0  0  0  0  0  0  0  0  0
    1.1327   -0.9799    0.0000 C   0  0  0  0  0  0  0  0  0  0  0  0
    0.4237   -2.3018    0.0000 O   0  0  0  0  0  0  0  0  0  0  0  0
    2.6320   -0.9331    0.0000 C   0  0  0  0  0  0  0  0  0  0  0  0
    3.4222   -2.2080    0.0000 C   0  0  0  0  0  0  0  0  0  0  0  0
    2.7132   -3.5299    0.0000 O   0  0  0  0  0  0  0  0  0  0  0  0
    4.9215   -2.1611    0.0000 C   0  0  0  0  0  0  0  0  0  0  0  0
    5.6305   -0.8393    0.0000 C   0  0  0  0  0  0  0  0  0  0  0  0
    7.1298   -0.7924    0.0000 O   0  0  0  0  0  0  0  0  0  0  0  0
    4.8403    0.4357    0.0000 C   0  0  0  0  0  0  0  0  0  0  0  0
    3.3410    0.3888    0.0000 C   0  0  0  0  0  0  0  0  0  0  0  0
    2.5508    1.6637    0.0000 O   0  0  0  0  0  0  0  0  0  0  0  0
    1.0515    1.6169    0.0000 C   0  0  0  0  0  0  0  0  0  0  0  0
    0.2613    2.8918    0.0000 C   0  0  0  0  0  0  0  0  0  0  0  0
    0.9703    4.2137    0.0000 C   0  0  0  0  0  0  0  0  0  0  0  0
    0.1801    5.4886    0.0000 C   0  0  0  0  0  0  0  0  0  0  0  0
   -1.3192    5.4417    0.0000 C   0  0  0  0  0  0  0  0  0  0  0  0
   -2.1094    6.7167    0.0000 O   0  0  0  0  0  0  0  0  0  0  0  0
   -2.0282    4.1199    0.0000 C   0  0  0  0  0  0  0  0  0  0  0  0
   -3.5275    4.0730    0.0000 O   0  0  0  0  0  0  0  0  0  0  0  0
   -1.2380    2.8449    0.0000 C   0  0  0  0  0  0  0  0  0  0  0  0
   -3.3651   -1.1206    0.0000 C   0  0  0  0  0  0  0  0  0  0  0  0
   -4.1553    0.1544    0.0000 O   0  0  0  0  0  0  0  0  0  0  0  0
   -4.0741   -2.4424    0.0000 C   0  0  0  0  0  0  0  0  0  0  0  0
   -5.5734   -2.4893    0.0000 O   0  0  0  0  0  0  0  0  0  0  0  0
   -3.2838   -3.7174    0.0000 C   0  0  0  0  0  0  0  0  0  0  0  0
   -3.9929   -5.0393    0.0000 O   0  0  0  0  0  0  0  0  0  0  0  0
  2  1  1  1
  2  3  1  0
  3  4  1  0
  4  5  1  6
  6  5  1  6
  6  7  1  0
  7  8  2  0
  7  9  1  0
  9 10  2  0
 10 11  1  0
 10 12  1  0
 12 13  2  0
 13 14  1  0
 13 15  1  0
 15 16  2  0
 16 17  1  0
 17 18  1  0
 18 19  1  1
 19 20  2  0
 20 21  1  0
 21 22  2  0
 22 23  1  0
 22 24  1  0
 24 25  1  0
 24 26  2  0
  4 27  1  0
 27 28  1  1
 27 29  1  0
 29 30  1  1
 29 31  1  0
 31 32  1  6
 31  2  1  0
 18  6  1  0
 26 19  1  0
 16  9  1  0
M  END
>  <identifier>  (571) 
CNP0162136.1

>  <canonical_smiles>  (571) 
C[C@@H]1O[C@@H](O[C@H]2C(=O)C3=C(O)C=C(O)C=C3O[C@@H]2C2=CC=C(O)C(O)=C2)[C@H](O)[C@H](O)[C@H]1O

>  <standard_inchi>  (571) 
InChI=1S/C21H22O11/c1-7-15(26)17(28)18(29)21(30-7)32-20-16(27)14-12(25)5-9(22)6-13(14)31-19(20)8-2-3-10(23)11(24)4-8/h2-7,15,17-26,28-29H,1H3/t7-,15-,17+,18+,19+,20-,21-/m0/s1

>  <standard_inchi_key>  (571) 
ZROGCCBNZBKLEL-MPRHSVQHSA-N

>  <name>  (571) 
Astilbin

>  <iupac_name>  (571) 
(2~{R},3~{R})-2-(3,4-dihydroxyphenyl)-5,7-dihydroxy-3-[(2~{S},3~{R},4~{R},5~{R},6~{S})-3,4,5-trihydroxy-6-methyl-tetrahydropyran-2-yl]oxy-chroman-4-one

>  <annotation_level>  (571) 
5

>  <total_atom_count>  (571) 
54

>  <heavy_atom_count>  (571) 
32

>  <molecular_weight>  (571) 
450.4

>  <exact_molecular_weight>  (571) 
450.11621

>  <molecular_formula>  (571) 
C21H22O11

>  <alogp>  (571) 
0.04

>  <topological_polar_surface_area>  (571) 
186.37

>  <rotatable_bond_count>  (571) 
3

>  <hydrogen_bond_acceptors>  (571) 
11

>  <hydrogen_bond_donors>  (571) 
7

>  <hydrogen_bond_acceptors_lipinski>  (571) 
11

>  <hydrogen_bond_donors_lipinski>  (571) 
7

>  <lipinski_rule_of_five_violations>  (571) 
2

>  <aromatic_rings_count>  (571) 
2

>  <qed_drug_likeliness>  (571) 
0.31

>  <formal_charge>  (571) 
0

>  <fractioncsp3>  (571) 
0.38

>  <number_of_minimal_rings>  (571) 
4

>  <van_der_walls_volume>  (571) 
369.68

>  <contains_sugar>  (571) 
True

>  <contains_ring_sugars>  (571) 
True

>  <contains_linear_sugars>  (571) 
False

>  <murcko_framework>  (571) 
O1c2ccccc2CC(OC3OCCCC3)C1c4ccccc4

>  <np_likeness>  (571) 
2.51

>  <chemical_class>  (571) 
Flavonoids

>  <chemical_sub_class>  (571) 
Flavonoid glycosides

>  <chemical_super_class>  (571) 
Phenylpropanoids and polyketides

>  <direct_parent_classification>  (571) 
Flavonoid-3-O-glycosides

>  <np_classifier_pathway>  (571) 
Shikimates and Phenylpropanoids

>  <np_classifier_superclass>  (571) 
Flavonoids

>  <np_classifier_class>  (571) 
Dihydroflavonols

>  <np_classifier_is_glycoside>  (571) 
True

>  <organisms>  (571) 
Acacia adunca|Actinopyga agassizi|Adiantum lunulatum|Alstonia spathulata|Amathia pinnata|Anacystis montana|Andira inermis|Annona cornifolia|Aplidium tabascum|Arctium lappa|Arcyria denudata|Artemisia assoana|Aster bellidiastrum|Asterospicularia laurae|Astilbe thunbergii|Astragalus sempervirens|Bicuiba oleifera|Bishovia boliviensis|Blastochloris viridis|Calliandra haematocephala|Calostephane divaricata|Calycanthus praecox|Capparis decidua|Caragana aurantiaca|Chaenomeles sinensis|Chromatium okenii|Corynocarpus laevigatus|Cotyledon secunda|Cratoxylum arborescens|Cratoxylum formosum|Cyclea racemosa|Desmos cochinchinensis|Dimorphandra mollis|Dolomiaea souliei|Drechslera avenae|Drimys granadensis|Drimys winteri|Dumortiera hirsuta|Engelhardia roxburghiana|Erythrina folkersii|Erythroxylum gonoclados|Erythroxylum gonocladum|Eucalyptus camaldulensis|Eucalyptus globulus|Eucalyptus maidenii|Eucalyptus melliodora|Eucommia ulmoides|Garcinia Mangostana|Garcinia mangostana|Gnetum latifolium|Goniothalamus malayanus|Halimodendron halodendron|Harungana madagascariensis|Harungana sp.|Hedysarum connatum|Helenium arizonicum|Helipterum roseum|Hymenaea martiana|Hymenaea parvifolia|Hypericum laricifolium|Hypericum patulum|Hypericum perforatum|Ipomoea digitata|Iryanthera sagotiana|Laurencia spectabilis|Leathesia nana|Lepisorus ussuriensis|Leptogorgia sarmentosa|Litsea sericea|Lonicera hypoleuca|Lyonia Ovalifolia|Lyonia ovalifolia|Lysimachia mauritiana|Mallotus metcalfianus|Malpighia emarginata|Marrubium anisodon|Myelochroa aurulenta|Nasutitermes ephratae|Naucleopsis ternstroemiiflora|Neolitsea aurata|Neolitsea sericea|Neoscopelus microchir|Neurada procumbens|Nicotiana sylvestris|Ochna gamblei|Pastinaca sativa|Peltostigma guatemalense|Petiveria alliacea|Phoebe pittieri|Piper guayranum|Pittosporum phillyraeoides|Placida dendritica|Plantago asiatica|Plantago depressa|Poria selecta|Premna odorata|Pseudoalteromonas luteoviolacea|Psychotria klugii|Rauvolfia vomitoria|Rhododendron simsii|Rumex maritimus|Sabina sargentii|Salvia syriaca|Sarcandra glabra|Scleronephthya pallida|Scutellaria amoena|Senecio vellereus|Serpocaulon triseriale|Sinularia depressa|Smilax Glabra|Smilax bockii|Smilax china|Smilax corbularia|Smilax glabra|Smilax sp.|Solanum laxum|Stelechocarpus cauliflorus|Streptomyces alboniger|Streptomyces avermectinius|Swertia franchetiana|Trametes cinnabarina|Triticum aestivum|Vaccinium oxycoccos|Viguiera incana|Vismia micrantha|Vitis Vinifera|Vitis vinifera|Wibelia divaricata|Wikstroemia retusa|Zalerion maritima|Zanthoxylum tetraspermum

>  <collections>  (571) 
ANPDB|AnalytiCon Discovery NPs|Australian natural products|CMAUP (cCollective molecular activities of useful plants)|ChemSpider NPs|FooDB|GNPS (Global Natural Products Social Molecular Networking)|Latin America dataset|NANPDB (Natural Products from Northern African Sources)|NPASS|NuBBEDB|Phenol-explorer|Phyto4Health|PhytoLab phyproof® Reference Substances|Super Natural II|TCMDB-Taiwan (Traditional Chinese Medicine database)|VietHerb|WikiData Natural Products

>  <dois>  (571) 
10.1002/CBDV.201100021|10.1002/JCCS.200800067|10.1002/cbdv.201100021|10.1007/BF02977900|10.1016/0031-9422(86)80078-4|10.1016/0031-9422(91)85140-U|10.1016/0031-9422(92)83304-H|10.1016/0031-9422(93)85102-W|10.1016/0031-9422(95)00202-I|10.1016/0031-9422(96)00111-2|10.1016/J.FOODCHEM.2012.12.027|10.1016/J.PHYMED.2006.09.001|10.1016/J.PHYMED.2009.09.008|10.1016/J.PHYTOCHEM.2003.10.020|10.1016/J.PHYTOCHEM.2008.10.008|10.1016/J.PHYTOCHEM.2010.12.018|10.1016/S0003-2670(01)01498-2|10.1016/S0014-2999(99)00401-X|10.1016/S0031-9422(00)88243-6|10.1016/S0031-9422(01)00295-3|10.1016/S0031-9422(97)00306-3|10.1016/S0378-8741(98)00069-5|10.1016/S0960-894X(99)00351-0|10.1016/j.bse.2014.07.001|10.1016/j.jep.2006.01.008|10.1021/JF991171U|10.1021/NP000583Q|10.1021/NP980107O|10.1021/NP9902993|10.1021/np980107o|10.1055/S-1999-13963|10.1055/S-2000-11119|10.1055/S-2002-20053|10.1055/S-2006-951725|10.1055/s-0033-1352136|10.1248/BPB.21.517|10.1248/CPB.36.4167|10.1248/YAKUSHI1947.79.3_403|10.1248/YAKUSHI1947.94.10_1349|10.1271/BBB.60.513|10.1271/BBB.80421|10.1515/ZNC-2001-9-1006|10.1590/S0100-40422010000200017|10.1590/S0103-50532002000100019|10.3109/13880209109082884|10.3109/13880209309082916|10.3987/COM-03-9775|10.4314/NJNPM.V3I1.11761

>  <synonyms>  (571) 
(2R,3R)-2-(3,4-dihydroxyphenyl)-5,7-dihydroxy-3-(((2S,3R,4R,5R,6S)-3,4,5-trihydroxy-6-methyltetrahydro-2H-pyran-2-yl)oxy)chroman-4-one|(2R,3R)-2-(3,4-dihydroxyphenyl)-5,7-dihydroxy-3-{[(2S,3R,4R,5R,6S)-3,4,5-trihydroxy-6-methyloxan-2-yl]oxy}-3,4-dihydro-2H-1-benzopyran-4-one|(2R,3R)-2-(3,4-dihydroxyphenyl)-5,7-dihydroxy-4-oxo-3,4-dihydro-2H-chromen-3-yl 6-deoxy-alpha-L-mannopyranoside|(2R,3R)-3-[(6-deoxy-alpha-L-mannopyranosyl)oxy]-2-(3,4-dihydroxyphenyl)-2,3-dihydro-5,7-dihydroxy-4H-1-benzopyran-4-one|(2R,3S)-3-[(6-Deoxy--L-mannopyranosyl)oxy]-2-(3,4-dihydroxyphenyl)-2,3-dihydro-5,7-dihydroxy-4H-1-benzopyran-4-one; (2R,3S)-Astilbin|1ST40007|29838-67-3|4H-1-Benzopyran-4-one,3-[(6-deoxy-a-L-mannopyranosyl)oxy]-2-(3,4-dihydroxyphenyl)-2,3-dihydro-5,7-dihydroxy-, (2R,3R)-|54081-48-0|AC-8008|ACon1_000616|AKOS025402308|AMY22307|Astilbin from Engelhardtia roxburghiana, >=98%|BS-16813|C17449|CCG-269236|CHEBI:38200|CHEMBL486017|CS-0009049|DTXSID501019948|Dihydroquercetin 3-O-.alpha.-L-rhamnopyranoside|Dihydroquercetin 3-O-rhamnoside|Dihydroquercitrin|HY-N0509|Isoastilbin|MEGxp0_000363|NCGC00168909-01|NS00099513|Q-100379|Q4810880|SCHEMBL26090080|Taxifolin 3-O-rhamnoside|Taxifolin 3-rhamnoside|ZROGCCBNZBKLEL-MPRHSVQHSA-N|astilbin|astilbin, Rel-(2R 3R)-dihydroquercetin-3-O-\u221a\u00c7\u00ac\u00b1-L-rhamnoside|dihydroquercetin-3-O-alpha-LRhap|s3932|taxifolin 3-O-alpha-rhamnopyranoside

>  <cas>  (571) 
29838-67-3|54081-48-0

$$$$

     RDKit          2D

 20 23  0  0  0  0  0  0  0  0999 V2000
   -3.4495   -2.9855    0.0000 C   0  0  0  0  0  0  0  0  0  0  0  0
   -2.0047   -2.5824    0.0000 O   0  0  0  0  0  0  0  0  0  0  0  0
   -1.6314   -1.1296    0.0000 C   0  0  0  0  0  0  0  0  0  0  0  0
   -2.7030   -0.0799    0.0000 C   0  0  0  0  0  0  0  0  0  0  0  0
   -4.2000   -0.1739    0.0000 C   0  0  0  0  0  0  0  0  0  0  0  0
   -4.7520    1.2209    0.0000 C   0  0  0  0  0  0  0  0  0  0  0  0
   -3.5961    2.1769    0.0000 O   0  0  0  0  0  0  0  0  0  0  0  0
   -2.3297    1.3729    0.0000 C   0  0  0  0  0  0  0  0  0  0  0  0
   -0.8849    1.7761    0.0000 N   0  0  0  0  0  0  0  0  0  0  0  0
    0.1866    0.7264    0.0000 C   0  0  0  0  0  0  0  0  0  0  0  0
    1.6314    1.1296    0.0000 C   0  0  0  0  0  0  0  0  0  0  0  0
    2.0047    2.5824    0.0000 O   0  0  0  0  0  0  0  0  0  0  0  0
    3.4495    2.9855    0.0000 C   0  0  0  0  0  0  0  0  0  0  0  0
    2.7030    0.0799    0.0000 C   0  0  0  0  0  0  0  0  0  0  0  0
    2.3297   -1.3729    0.0000 C   0  0  0  0  0  0  0  0  0  0  0  0
    0.8849   -1.7761    0.0000 C   0  0  0  0  0  0  0  0  0  0  0  0
   -0.1866   -0.7264    0.0000 C   0  0  0  0  0  0  0  0  0  0  0  0
    3.5961   -2.1769    0.0000 O   0  0  0  0  0  0  0  0  0  0  0  0
    4.7520   -1.2209    0.0000 C   0  0  0  0  0  0  0  0  0  0  0  0
    4.2000    0.1739    0.0000 O   0  0  0  0  0  0  0  0  0  0  0  0
  1  2  1  0
  2  3  1  0
  3  4  2  0
  4  5  1  0
  5  6  2  0
  6  7  1  0
  7  8  1  0
  8  9  2  0
  9 10  1  0
 10 11  2  0
 11 12  1  0
 12 13  1  0
 11 14  1  0
 14 15  2  0
 15 16  1  0
 16 17  2  0
 15 18  1  0
 18 19  1  0
 19 20  1  0
 17  3  1  0
  8  4  1  0
 17 10  1  0
 20 14  1  0
M  END
>  <identifier>  (572) 
CNP0290567.0

>  <canonical_smiles>  (572) 
COC1=C2C=COC2=NC2=C(OC)C3=C(C=C12)OCO3

>  <standard_inchi>  (572) 
InChI=1S/C14H11NO5/c1-16-11-7-3-4-18-14(7)15-10-8(11)5-9-12(13(10)17-2)20-6-19-9/h3-5H,6H2,1-2H3

>  <standard_inchi_key>  (572) 
IMJCEVWDXKCHOI-UHFFFAOYSA-N

>  <name>  (572) 
Flindersiamine

>  <iupac_name>  (572) 
8,16-dimethoxy-4,12,14-trioxa-2-azatetracyclo[7.7.0.0^{3,7}.0^{11,15}]hexadeca-1(16),2,5,7,9,11(15)-hexaene

>  <annotation_level>  (572) 
5

>  <total_atom_count>  (572) 
31

>  <heavy_atom_count>  (572) 
20

>  <molecular_weight>  (572) 
273.24

>  <exact_molecular_weight>  (572) 
273.06372

>  <molecular_formula>  (572) 
C14H11NO5

>  <alogp>  (572) 
2.73

>  <topological_polar_surface_area>  (572) 
62.95

>  <rotatable_bond_count>  (572) 
2

>  <hydrogen_bond_acceptors>  (572) 
6

>  <hydrogen_bond_donors>  (572) 
0

>  <hydrogen_bond_acceptors_lipinski>  (572) 
6

>  <hydrogen_bond_donors_lipinski>  (572) 
0

>  <lipinski_rule_of_five_violations>  (572) 
0

>  <aromatic_rings_count>  (572) 
3

>  <qed_drug_likeliness>  (572) 
0.72

>  <formal_charge>  (572) 
0

>  <fractioncsp3>  (572) 
0.21

>  <number_of_minimal_rings>  (572) 
4

>  <van_der_walls_volume>  (572) 
223.91

>  <contains_sugar>  (572) 
False

>  <contains_ring_sugars>  (572) 
False

>  <contains_linear_sugars>  (572) 
False

>  <murcko_framework>  (572) 
n1c2occc2cc3cc4OCOc4cc13

>  <np_likeness>  (572) 
1.25

>  <chemical_class>  (572) 
Quinolines and derivatives

>  <chemical_sub_class>  (572) 
Furanoquinolines

>  <chemical_super_class>  (572) 
Organoheterocyclic compounds

>  <direct_parent_classification>  (572) 
Furanoquinolines

>  <np_classifier_pathway>  (572) 
Alkaloids

>  <np_classifier_superclass>  (572) 
Tryptophan alkaloids

>  <np_classifier_class>  (572) 
Quinoline alkaloids

>  <np_classifier_is_glycoside>  (572) 
False

>  <organisms>  (572) 
Aconitum volubile|Araliopsis soyauxii|Balfourodendron redelsamia|Balfourodendron riedelianum|Derris malaccensis|Esenbeckia alata|Esenbeckia almawillia|Esenbeckia conspecta|Esenbeckia febrifuga|Esenbeckia flava|Esenbeckia grandiflora|Esenbeckia grandiflora ssp.brevipetiolata|Esenbeckia hieronymi|Esenbeckia leiocarpa|Esenbeckia litoralis|Esenbeckia pentaphylla|Esenbeckia pilocarpoides|Esenbeckia yaaxhokob|Esenbeckia yaxhokob|Flindersia bennettiana|Flindersia bennettii|Flindersia collina|Flindersia dissosperma|Flindersia maculosa|Flindersia xanthoxyla|Melicope erromangensis|Metrodorea flavida|Nematolepis phebalioides|Neoraputia paraensis|Oricia suaveolens|Oriciopsis glaberrima|Raputiarana heptaphylla|Raulinoa echinata|Teclea natalensis|Teclea ouabanguiensis|Teclea simplicifolia|Teclea sudanica|Teclea verdoorniana|Vepris glaberrima|Vepris natalensis|Vepris nobilis|Vepris oubanguensis|Vepris punctata|Vepris suaveolens|Vepris uguenensis|Vepris unifoliolata|Vepris verdoorniana

>  <collections>  (572) 
ANPDB|AfroCancer|AfroDB|Australian natural products|CMAUP (cCollective molecular activities of useful plants)|ChEBI NPs|ChemSpider NPs|ConMedNP|KNApSaCK|Latin America dataset|Mitishamba database|NANPDB (Natural Products from Northern African Sources)|NPASS|NPCARE|NPEdia|NuBBEDB|SANCDB|Specs Natural Products|Super Natural II|TCMID (Traditional Chinese Medicine Integrated Database)|UNPD (Universal Natural Products Database)|WikiData Natural Products|ZINC NP

>  <dois>  (572) 
10.1002/CHIN.199005299|10.1002/CHIN.200413167|10.1016/0031-9422(80)85142-9|10.1016/0031-9422(82)83109-9|10.1016/0031-9422(82)85270-9|10.1016/0031-9422(88)83170-4|10.1016/0031-9422(95)00564-1|10.1016/0031-9422(96)00077-5|10.1016/J.FITOTE.2003.08.004|10.1016/J.PHYMED.2008.02.001|10.1016/J.PHYTOCHEM.2004.12.023|10.1016/J.PHYTOCHEM.2007.12.013|10.1016/S0305-1978(01)00096-5|10.1016/S0305-1978(02)00042-X|10.1016/S0305-1978(98)00107-0|10.1016/j.phytochem.2004.12.023|10.1016/j.phytochem.2007.12.013|10.1021/JA01501A068|10.1021/NP020578H|10.1021/NP0303512|10.1021/NP0303512.S001|10.1021/NP50024A012|10.1021/NP50100A030|10.1021/NP800276F|10.1021/np020578h|10.1021/np800276f|10.1039/C39770000652|10.1039/P19820000909|10.1055/S-2007-969789|10.1071/CH9520412|10.1071/CH9540181|10.1071/CH9570480|10.1071/CH9600426|10.1071/CH9600427|10.1071/ch9520412|10.1248/CPB.59.855|10.1590/S0103-50532002000100010|10.3390/MOLECULES15129205|10.3390/molecules15129205

>  <synonyms>  (572) 
1,3-Dioxolo(4,5-g)furo(2,3-b)quinoline, 4,9-dimethoxy-|1,5-g]furo[2,3-b]quinoline, 4,9-dimethoxy-|12,13-dimethoxy-16,17,18-trioxa-15-azatetracyclohexade|4,9-Dimethoxy-1,3-dioxolo(4,5-g)furo(2,3-b)quinoline|4,9-Dimethoxy[1,3]dioxolo[4,5-g]furo[2,3-b]quinoline #|4-27-00-06802 (Beilstein Handbook Reference)|522-06-5|6Q8RKP2039|8,16-dimethoxy-4,12,14-trioxa-2-azatetracyclo[7.7.0.03,7.011,15]hexadeca-1(16),2,5,7,9,11(15)-hexaene|BRN 0289158|CCRIS 3581|CHEBI:5093|CHEMBL503519|DTXSID40200229|Flindersiamin|IMJCEVWDXKCHOI-UHFFFAOYSA-N|NSC 284684|Q27106652|SCHEMBL7913645|UNII-6Q8RKP2039|flindersiamine

>  <cas>  (572) 
522-06-5

$$$$

     RDKit          2D

 30 30  0  0  0  0  0  0  0  0999 V2000
  -13.7509    0.5289    0.0000 C   0  0  0  0  0  0  0  0  0  0  0  0
  -12.4282   -0.1786    0.0000 C   0  0  0  0  0  0  0  0  0  0  0  0
  -12.3795   -1.6778    0.0000 O   0  0  0  0  0  0  0  0  0  0  0  0
  -11.1542    0.6132    0.0000 C   0  0  0  0  0  0  0  0  0  0  0  0
   -9.8315   -0.0942    0.0000 C   0  0  0  0  0  0  0  0  0  0  0  0
   -8.5575    0.6976    0.0000 C   0  0  0  0  0  0  0  0  0  0  0  0
   -7.2348   -0.0099    0.0000 C   0  0  0  0  0  0  0  0  0  0  0  0
   -5.9608    0.7819    0.0000 C   0  0  0  0  0  0  0  0  0  0  0  0
   -4.6381    0.0745    0.0000 C   0  0  0  0  0  0  0  0  0  0  0  0
   -3.3641    0.8662    0.0000 C   0  0  0  0  0  0  0  0  0  0  0  0
   -2.0414    0.1588    0.0000 C   0  0  0  0  0  0  0  0  0  0  0  0
   -0.7674    0.9506    0.0000 C   0  0  0  0  0  0  0  0  0  0  0  0
    0.5553    0.2432    0.0000 C   0  0  0  0  0  0  0  0  0  0  0  0
    1.8293    1.0349    0.0000 C   0  0  0  0  0  0  0  0  0  0  0  0
    3.1520    0.3275    0.0000 C   0  0  0  0  0  0  0  0  0  0  0  0
    4.4260    1.1193    0.0000 C   0  0  0  0  0  0  0  0  0  0  0  0
    4.3773    2.6185    0.0000 C   0  0  0  0  0  0  0  0  0  0  0  0
    5.6513    3.4103    0.0000 C   0  0  0  0  0  0  0  0  0  0  0  0
    6.9740    2.7028    0.0000 C   0  0  0  0  0  0  0  0  0  0  0  0
    8.2480    3.4946    0.0000 O   0  0  0  0  0  0  0  0  0  0  0  0
    7.0227    1.2036    0.0000 C   0  0  0  0  0  0  0  0  0  0  0  0
    8.3454    0.4962    0.0000 C   0  0  0  0  0  0  0  0  0  0  0  0
    5.7487    0.4118    0.0000 N   0  0  0  0  0  0  0  0  0  0  0  0
    5.7974   -1.0874    0.0000 C   0  0  0  0  0  0  0  0  0  0  0  0
    7.1201   -1.7948    0.0000 O   0  0  0  0  0  0  0  0  0  0  0  0
    4.5234   -1.8791    0.0000 O   0  0  0  0  0  0  0  0  0  0  0  0
    4.5721   -3.3784    0.0000 C   0  0  0  0  0  0  0  0  0  0  0  0
    3.0729   -3.4270    0.0000 C   0  0  0  0  0  0  0  0  0  0  0  0
    6.0713   -3.3297    0.0000 C   0  0  0  0  0  0  0  0  0  0  0  0
    4.6208   -4.8776    0.0000 C   0  0  0  0  0  0  0  0  0  0  0  0
  1  2  1  0
  2  3  2  0
  2  4  1  0
  4  5  1  0
  5  6  1  0
  6  7  1  0
  7  8  1  0
  8  9  1  0
  9 10  1  0
 10 11  1  0
 11 12  1  0
 12 13  1  0
 13 14  1  0
 14 15  1  0
 16 15  1  1
 16 17  1  0
 17 18  1  0
 18 19  1  0
 19 20  1  1
 19 21  1  0
 21 22  1  1
 21 23  1  0
 23 24  1  0
 24 25  2  0
 24 26  1  0
 26 27  1  0
 27 28  1  0
 27 29  1  0
 27 30  1  0
 23 16  1  0
M  END
>  <identifier>  (573) 
CNP0080360.1

>  <canonical_smiles>  (573) 
CC(=O)CCCCCCCCCCCC[C@H]1CC[C@@H](O)[C@@H](C)N1C(=O)OC(C)(C)C

>  <standard_inchi>  (573) 
InChI=1S/C25H47NO4/c1-20(27)16-14-12-10-8-6-7-9-11-13-15-17-22-18-19-23(28)21(2)26(22)24(29)30-25(3,4)5/h21-23,28H,6-19H2,1-5H3/t21-,22+,23-/m1/s1

>  <standard_inchi_key>  (573) 
PPMSVIPEMZHYRS-XPWALMASSA-N

>  <name>  (573) 
nan

>  <iupac_name>  (573) 
~{tert}-butyl (2~{R},3~{R},6~{S})-3-hydroxy-2-methyl-6-(13-oxotetradecyl)piperidine-1-carboxylate

>  <annotation_level>  (573) 
5

>  <total_atom_count>  (573) 
77

>  <heavy_atom_count>  (573) 
30

>  <molecular_weight>  (573) 
425.65

>  <exact_molecular_weight>  (573) 
425.35051

>  <molecular_formula>  (573) 
C25H47NO4

>  <alogp>  (573) 
6.41

>  <topological_polar_surface_area>  (573) 
66.84

>  <rotatable_bond_count>  (573) 
13

>  <hydrogen_bond_acceptors>  (573) 
4

>  <hydrogen_bond_donors>  (573) 
1

>  <hydrogen_bond_acceptors_lipinski>  (573) 
4

>  <hydrogen_bond_donors_lipinski>  (573) 
1

>  <lipinski_rule_of_five_violations>  (573) 
1

>  <aromatic_rings_count>  (573) 
0

>  <qed_drug_likeliness>  (573) 
0.35

>  <formal_charge>  (573) 
0

>  <fractioncsp3>  (573) 
0.92

>  <number_of_minimal_rings>  (573) 
1

>  <van_der_walls_volume>  (573) 
450.99

>  <contains_sugar>  (573) 
False

>  <contains_ring_sugars>  (573) 
False

>  <contains_linear_sugars>  (573) 
False

>  <murcko_framework>  (573) 
N1CCCCC1

>  <np_likeness>  (573) 
0.84

>  <chemical_class>  (573) 
nan

>  <chemical_sub_class>  (573) 
Alkaloids and derivatives

>  <chemical_super_class>  (573) 
Alkaloids and derivatives

>  <direct_parent_classification>  (573) 
Alkaloids and derivatives

>  <np_classifier_pathway>  (573) 
nan

>  <np_classifier_superclass>  (573) 
nan

>  <np_classifier_class>  (573) 
nan

>  <np_classifier_is_glycoside>  (573) 
False

>  <organisms>  (573) 
Cassia spectabilis|Senna spectabilis

>  <collections>  (573) 
ChemSpider NPs|Latin America dataset|NuBBEDB|Super Natural II|WikiData Natural Products|ZINC NP

>  <dois>  (573) 
10.1248/CPB.56.407|10.1248/cpb.56.407

>  <synonyms>  (573) 
N-tert-Butoxycarbonyl-2-(R)-methyl-6-(S )-(tetradecyl-13'-one)-piperidin-3-(R)-ol

>  <cas>  (573) 
nan

$$$$

     RDKit          2D

 36 38  0  0  0  0  0  0  0  0999 V2000
   -7.5381    2.9689    0.0000 C   0  0  0  0  0  0  0  0  0  0  0  0
   -6.1569    2.3837    0.0000 C   0  0  0  0  0  0  0  0  0  0  0  0
   -4.9596    3.2872    0.0000 C   0  0  0  0  0  0  0  0  0  0  0  0
   -5.1433    4.7759    0.0000 C   0  0  0  0  0  0  0  0  0  0  0  0
   -3.5784    2.7020    0.0000 C   0  0  0  0  0  0  0  0  0  0  0  0
   -3.3946    1.2133    0.0000 C   0  0  0  0  0  0  0  0  0  0  0  0
   -2.0135    0.6281    0.0000 C   0  0  0  0  0  0  0  0  0  0  0  0
   -1.6770    2.0899    0.0000 C   0  0  0  0  0  0  0  0  0  0  0  0
   -2.8296   -0.6304    0.0000 C   0  0  0  0  0  0  0  0  0  0  0  0
   -4.3276   -0.5529    0.0000 C   0  0  0  0  0  0  0  0  0  0  0  0
   -2.1478   -1.9665    0.0000 C   0  0  0  0  0  0  0  0  0  0  0  0
   -0.6498   -2.0440    0.0000 C   0  0  0  0  0  0  0  0  0  0  0  0
   -0.3115   -3.5053    0.0000 O   0  0  0  0  0  0  0  0  0  0  0  0
    0.1664   -0.7854    0.0000 C   0  0  0  0  0  0  0  0  0  0  0  0
    1.6643   -0.8630    0.0000 C   0  0  0  0  0  0  0  0  0  0  0  0
    2.4805    0.3956    0.0000 C   0  0  0  0  0  0  0  0  0  0  0  0
    1.7986    1.7316    0.0000 C   0  0  0  0  0  0  0  0  0  0  0  0
    2.6148    2.9902    0.0000 O   0  0  0  0  0  0  0  0  0  0  0  0
    4.1128    2.9126    0.0000 C   0  0  0  0  0  0  0  0  0  0  0  0
    4.7946    1.5766    0.0000 O   0  0  0  0  0  0  0  0  0  0  0  0
    4.9289    4.1712    0.0000 C   0  0  0  0  0  0  0  0  0  0  0  0
    6.4269    4.0937    0.0000 C   0  0  0  0  0  0  0  0  0  0  0  0
    7.2430    5.3522    0.0000 C   0  0  0  0  0  0  0  0  0  0  0  0
    0.3006    1.8092    0.0000 C   0  0  0  0  0  0  0  0  0  0  0  0
   -0.5155    0.5506    0.0000 C   0  0  0  0  0  0  0  0  0  0  0  0
    1.3109   -0.4376    0.0000 C   0  0  0  0  0  0  0  0  0  0  0  0
    3.4542   -2.8482    0.0000 O   0  0  0  0  0  0  0  0  0  0  0  0
    3.6899   -4.3296    0.0000 C   0  0  0  0  0  0  0  0  0  0  0  0
    5.0906   -4.8663    0.0000 C   0  0  0  0  0  0  0  0  0  0  0  0
    2.5248   -5.2744    0.0000 O   0  0  0  0  0  0  0  0  0  0  0  0
    0.9046   -1.0322    0.0000 O   0  0  0  0  0  0  0  0  0  0  0  0
    0.5619   -0.3989    0.0000 C   0  0  0  0  0  0  0  0  0  0  0  0
   -1.8189   -2.5753    0.0000 O   0  0  0  0  0  0  0  0  0  0  0  0
   -2.2062   -4.0245    0.0000 C   0  0  0  0  0  0  0  0  0  0  0  0
   -3.6548   -4.4137    0.0000 C   0  0  0  0  0  0  0  0  0  0  0  0
   -1.1449   -5.0845    0.0000 O   0  0  0  0  0  0  0  0  0  0  0  0
  1  2  2  0
  2  3  1  0
  3  4  1  0
  3  5  2  3
  5  6  1  0
  6  7  1  0
  7  8  1  6
  7  9  1  0
  9 10  1  1
  9 11  1  0
 11 12  1  0
 12 13  1  1
 12 14  1  0
 14 15  1  6
 15 16  2  0
 16 17  1  0
 17 18  1  1
 18 19  1  0
 19 20  2  0
 19 21  1  0
 21 22  1  0
 22 23  1  0
 17 24  1  0
 25 24  1  6
 15 26  1  0
 26 27  1  6
 27 28  1  0
 28 29  1  0
 28 30  2  0
 26 31  1  0
 31 32  1  0
 32 33  1  6
 33 34  1  0
 34 35  1  0
 34 36  2  0
 25  7  1  0
 25 14  1  0
 32 14  1  0
M  END
>  <identifier>  (574) 
CNP0250012.2

>  <canonical_smiles>  (574) 
C=CC(C)=CC[C@]1(C)[C@H](C)C[C@H](O)[C@@]23C(=C[C@H](OC(=O)CCC)C[C@@H]12)[C@@H](OC(C)=O)O[C@H]3OC(C)=O

>  <standard_inchi>  (574) 
InChI=1S/C28H40O8/c1-8-10-24(32)35-20-14-21-25(33-18(5)29)36-26(34-19(6)30)28(21)22(15-20)27(7,12-11-16(3)9-2)17(4)13-23(28)31/h9,11,14,17,20,22-23,25-26,31H,2,8,10,12-13,15H2,1,3-7H3/t17-,20+,22+,23+,25+,26-,27-,28-/m1/s1

>  <standard_inchi_key>  (574) 
KXTKGXJAUXXXBP-MGZSJDQHSA-N

>  <name>  (574) 
nan

>  <iupac_name>  (574) 
[(1~{S},3~{R},5~{R},6~{a}~{S},7~{R},8~{R},10~{S},10~{a}~{S})-1,3-diacetoxy-10-hydroxy-7,8-dimethyl-7-(3-methylpenta-2,4-dienyl)-1,3,5,6,6~{a},8,9,10-octahydrobenzo[d]isobenzofuran-5-yl] butanoate

>  <annotation_level>  (574) 
4

>  <total_atom_count>  (574) 
76

>  <heavy_atom_count>  (574) 
36

>  <molecular_weight>  (574) 
504.62

>  <exact_molecular_weight>  (574) 
504.27232

>  <molecular_formula>  (574) 
C28H40O8

>  <alogp>  (574) 
4.37

>  <topological_polar_surface_area>  (574) 
108.36

>  <rotatable_bond_count>  (574) 
8

>  <hydrogen_bond_acceptors>  (574) 
8

>  <hydrogen_bond_donors>  (574) 
1

>  <hydrogen_bond_acceptors_lipinski>  (574) 
8

>  <hydrogen_bond_donors_lipinski>  (574) 
1

>  <lipinski_rule_of_five_violations>  (574) 
1

>  <aromatic_rings_count>  (574) 
0

>  <qed_drug_likeliness>  (574) 
0.22

>  <formal_charge>  (574) 
0

>  <fractioncsp3>  (574) 
0.68

>  <number_of_minimal_rings>  (574) 
3

>  <van_der_walls_volume>  (574) 
nan

>  <contains_sugar>  (574) 
False

>  <contains_ring_sugars>  (574) 
False

>  <contains_linear_sugars>  (574) 
False

>  <murcko_framework>  (574) 
O1CC2=CCCC3CCCCC23C1

>  <np_likeness>  (574) 
3.47

>  <chemical_class>  (574) 
Prenol lipids

>  <chemical_sub_class>  (574) 
Diterpenoids

>  <chemical_super_class>  (574) 
Lipids and lipid-like molecules

>  <direct_parent_classification>  (574) 
Colensane and clerodane diterpenoids

>  <np_classifier_pathway>  (574) 
Terpenoids

>  <np_classifier_superclass>  (574) 
Diterpenoids

>  <np_classifier_class>  (574) 
Colensane and Clerodane diterpenoids

>  <np_classifier_is_glycoside>  (574) 
True

>  <organisms>  (574) 
Casearia sylvestris

>  <collections>  (574) 
Latin America dataset|NuBBEDB

>  <dois>  (574) 
10.1002/cbdv.200800342

>  <synonyms>  (574) 
Caseargrewiin F, (1R*3S*5S*6aR*7S*8R*10R*10aR*)-13-Bis(acetyloxy)-3566a78910-octahydro-10-hydroxy-78-dimethyl-7-[(2Z)-3-methylpenta-24-dien-1-yl]naphtho[18a-c]furan-5-yl Butanoate

>  <cas>  (574) 
nan

$$$$

     RDKit          2D

 27 29  0  0  0  0  0  0  0  0999 V2000
   -0.2838   -3.4952    0.0000 C   0  0  0  0  0  0  0  0  0  0  0  0
    0.8006   -2.4588    0.0000 O   0  0  0  0  0  0  0  0  0  0  0  0
    0.4452   -1.0015    0.0000 C   0  0  0  0  0  0  0  0  0  0  0  0
   -0.3513   -0.9696    0.0000 O   0  0  0  0  0  0  0  0  0  0  0  0
    1.5295    0.0349    0.0000 C   0  0  0  0  0  0  0  0  0  0  0  0
    1.8849   -1.4224    0.0000 C   0  0  0  0  0  0  0  0  0  0  0  0
    3.3247   -1.8433    0.0000 C   0  0  0  0  0  0  0  0  0  0  0  0
    4.4090   -0.8069    0.0000 C   0  0  0  0  0  0  0  0  0  0  0  0
    4.0537    0.6504    0.0000 C   0  0  0  0  0  0  0  0  0  0  0  0
    4.2181    2.1414    0.0000 C   0  0  0  0  0  0  0  0  0  0  0  0
    5.5505    0.7474    0.0000 C   0  0  0  0  0  0  0  0  0  0  0  0
    2.6139    1.0713    0.0000 C   0  0  0  0  0  0  0  0  0  0  0  0
    2.2585    2.5286    0.0000 C   0  0  0  0  0  0  0  0  0  0  0  0
    0.8188    2.9495    0.0000 C   0  0  0  0  0  0  0  0  0  0  0  0
   -0.2656    1.9131    0.0000 C   0  0  0  0  0  0  0  0  0  0  0  0
   -1.7053    2.3340    0.0000 C   0  0  0  0  0  0  0  0  0  0  0  0
   -2.7897    1.2975    0.0000 C   0  0  0  0  0  0  0  0  0  0  0  0
   -4.2294    1.7184    0.0000 C   0  0  0  0  0  0  0  0  0  0  0  0
   -4.5848    3.1757    0.0000 C   0  0  0  0  0  0  0  0  0  0  0  0
   -5.3138    0.6820    0.0000 C   0  0  0  0  0  0  0  0  0  0  0  0
   -2.4343   -0.1598    0.0000 C   0  0  0  0  0  0  0  0  0  0  0  0
   -3.5187   -1.1962    0.0000 O   0  0  0  0  0  0  0  0  0  0  0  0
   -3.1633   -2.6535    0.0000 C   0  0  0  0  0  0  0  0  0  0  0  0
   -0.9946   -0.5806    0.0000 C   0  0  0  0  0  0  0  0  0  0  0  0
   -0.6392   -2.0379    0.0000 O   0  0  0  0  0  0  0  0  0  0  0  0
   -1.7235   -3.0743    0.0000 C   0  0  0  0  0  0  0  0  0  0  0  0
    0.0898    0.4558    0.0000 C   0  0  0  0  0  0  0  0  0  0  0  0
  1  2  1  0
  2  3  1  0
  3  4  2  0
  5  3  1  1
  5  6  1  0
  6  7  1  0
  7  8  1  0
  8  9  1  0
  9 10  1  0
  9 11  1  0
  9 12  1  0
 12 13  1  0
 13 14  1  0
 14 15  1  0
 15 16  2  0
 16 17  1  0
 17 18  1  0
 18 19  1  0
 18 20  1  0
 17 21  2  0
 21 22  1  0
 22 23  1  0
 21 24  1  0
 24 25  1  0
 25 26  1  0
 24 27  2  0
 12  5  1  0
 27 15  1  0
 27  5  1  0
M  END
>  <identifier>  (575) 
CNP0238255.1

>  <canonical_smiles>  (575) 
COC(=O)[C@]12CCCC(C)(C)C1CCC1=CC(C(C)C)=C(OC)C(OC)=C12

>  <standard_inchi>  (575) 
InChI=1S/C23H34O4/c1-14(2)16-13-15-9-10-17-22(3,4)11-8-12-23(17,21(24)27-7)18(15)20(26-6)19(16)25-5/h13-14,17H,8-12H2,1-7H3/t17?,23-/m1/s1

>  <standard_inchi_key>  (575) 
WPHRDKKVZLUHBK-IRCUZVAFSA-N

>  <name>  (575) 
nan

>  <iupac_name>  (575) 
methyl (4~{a}~{R})-7-isopropyl-5,6-dimethoxy-1,1-dimethyl-2,3,4,9,10,10~{a}-hexahydrophenanthrene-4~{a}-carboxylate

>  <annotation_level>  (575) 
4

>  <total_atom_count>  (575) 
61

>  <heavy_atom_count>  (575) 
27

>  <molecular_weight>  (575) 
374.52

>  <exact_molecular_weight>  (575) 
374.24571

>  <molecular_formula>  (575) 
C23H34O4

>  <alogp>  (575) 
5.01

>  <topological_polar_surface_area>  (575) 
44.76

>  <rotatable_bond_count>  (575) 
4

>  <hydrogen_bond_acceptors>  (575) 
4

>  <hydrogen_bond_donors>  (575) 
0

>  <hydrogen_bond_acceptors_lipinski>  (575) 
4

>  <hydrogen_bond_donors_lipinski>  (575) 
0

>  <lipinski_rule_of_five_violations>  (575) 
1

>  <aromatic_rings_count>  (575) 
1

>  <qed_drug_likeliness>  (575) 
0.70

>  <formal_charge>  (575) 
0

>  <fractioncsp3>  (575) 
0.70

>  <number_of_minimal_rings>  (575) 
3

>  <van_der_walls_volume>  (575) 
nan

>  <contains_sugar>  (575) 
False

>  <contains_ring_sugars>  (575) 
False

>  <contains_linear_sugars>  (575) 
False

>  <murcko_framework>  (575) 
c1ccc2c(c1)CCC3CCCCC23

>  <np_likeness>  (575) 
1.84

>  <chemical_class>  (575) 
Prenol lipids

>  <chemical_sub_class>  (575) 
Diterpenoids

>  <chemical_super_class>  (575) 
Lipids and lipid-like molecules

>  <direct_parent_classification>  (575) 
Diterpenoids

>  <np_classifier_pathway>  (575) 
Terpenoids

>  <np_classifier_superclass>  (575) 
Diterpenoids

>  <np_classifier_class>  (575) 
Abietane diterpenoids

>  <np_classifier_is_glycoside>  (575) 
False

>  <organisms>  (575) 
Rosmarinus officinalis

>  <collections>  (575) 
Latin America dataset|NuBBEDB|WikiData Natural Products

>  <dois>  (575) 
10.1016/S0040-4020(01)88671-3

>  <synonyms>  (575) 
dihydro Methyl 1112-di-O-methyl-67-didehydrocarnosate

>  <cas>  (575) 
nan

$$$$

     RDKit          2D

 20 22  0  0  0  0  0  0  0  0999 V2000
   -4.9384   -1.7990    0.0000 C   0  0  0  0  0  0  0  0  0  0  0  0
   -3.4388   -1.8341    0.0000 C   0  0  0  0  0  0  0  0  0  0  0  0
   -2.6586   -0.5529    0.0000 C   0  0  0  0  0  0  0  0  0  0  0  0
   -3.3780    0.7633    0.0000 C   0  0  0  0  0  0  0  0  0  0  0  0
   -4.8776    0.7983    0.0000 C   0  0  0  0  0  0  0  0  0  0  0  0
   -2.5979    2.0444    0.0000 C   0  0  0  0  0  0  0  0  0  0  0  0
   -1.0983    2.0093    0.0000 C   0  0  0  0  0  0  0  0  0  0  0  0
   -0.3789    0.6931    0.0000 C   0  0  0  0  0  0  0  0  0  0  0  0
   -1.1590   -0.5880    0.0000 C   0  0  0  0  0  0  0  0  0  0  0  0
   -0.4396   -1.9042    0.0000 C   0  0  0  0  0  0  0  0  0  0  0  0
    1.0600   -1.9393    0.0000 C   0  0  0  0  0  0  0  0  0  0  0  0
    1.8402   -0.6582    0.0000 C   0  0  0  0  0  0  0  0  0  0  0  0
    3.3398   -0.6932    0.0000 C   0  0  0  0  0  0  0  0  0  0  0  0
    4.7369   -1.2391    0.0000 C   0  0  0  0  0  0  0  0  0  0  0  0
    3.0448   -2.1640    0.0000 C   0  0  0  0  0  0  0  0  0  0  0  0
    4.1199    0.5879    0.0000 C   0  0  0  0  0  0  0  0  0  0  0  0
    3.4005    1.9041    0.0000 C   0  0  0  0  0  0  0  0  0  0  0  0
    1.9009    1.9392    0.0000 C   0  0  0  0  0  0  0  0  0  0  0  0
    1.1207    0.6581    0.0000 C   0  0  0  0  0  0  0  0  0  0  0  0
    0.4013    1.9743    0.0000 C   0  0  0  0  0  0  0  0  0  0  0  0
  1  2  1  0
  2  3  1  0
  3  4  2  0
  4  5  1  0
  4  6  1  0
  6  7  2  0
  7  8  1  0
  8  9  2  0
  9 10  1  0
 10 11  1  0
 12 11  1  6
 12 13  1  0
 13 14  1  0
 13 15  1  0
 13 16  1  0
 16 17  2  0
 17 18  1  0
 18 19  1  0
 19 20  1  6
  9  3  1  0
 19 12  1  0
 19  8  1  0
M  END
>  <identifier>  (576) 
CNP0080665.1

>  <canonical_smiles>  (576) 
CCC1=C(C)C=CC2=C1CC[C@H]1C(C)(C)C=CC[C@]21C

>  <standard_inchi>  (576) 
InChI=1S/C20H28/c1-6-15-14(2)8-10-17-16(15)9-11-18-19(3,4)12-7-13-20(17,18)5/h7-8,10,12,18H,6,9,11,13H2,1-5H3/t18-,20+/m0/s1

>  <standard_inchi_key>  (576) 
ZXQNKMAHWBGRNM-AZUAARDMSA-N

>  <name>  (576) 
nan

>  <iupac_name>  (576) 
(4~{a}~{S},10~{a}~{S})-8-ethyl-1,1,4~{a},7-tetramethyl-4,9,10,10~{a}-tetrahydrophenanthrene

>  <annotation_level>  (576) 
4

>  <total_atom_count>  (576) 
48

>  <heavy_atom_count>  (576) 
20

>  <molecular_weight>  (576) 
268.44

>  <exact_molecular_weight>  (576) 
268.2191

>  <molecular_formula>  (576) 
C20H28

>  <alogp>  (576) 
5.36

>  <topological_polar_surface_area>  (576) 
0.00

>  <rotatable_bond_count>  (576) 
1

>  <hydrogen_bond_acceptors>  (576) 
0

>  <hydrogen_bond_donors>  (576) 
0

>  <hydrogen_bond_acceptors_lipinski>  (576) 
0

>  <hydrogen_bond_donors_lipinski>  (576) 
0

>  <lipinski_rule_of_five_violations>  (576) 
1

>  <aromatic_rings_count>  (576) 
1

>  <qed_drug_likeliness>  (576) 
0.60

>  <formal_charge>  (576) 
0

>  <fractioncsp3>  (576) 
0.60

>  <number_of_minimal_rings>  (576) 
3

>  <van_der_walls_volume>  (576) 
nan

>  <contains_sugar>  (576) 
False

>  <contains_ring_sugars>  (576) 
False

>  <contains_linear_sugars>  (576) 
False

>  <murcko_framework>  (576) 
c1ccc2c(c1)CCC3CC=CCC23

>  <np_likeness>  (576) 
1.89

>  <chemical_class>  (576) 
Prenol lipids

>  <chemical_sub_class>  (576) 
Diterpenoids

>  <chemical_super_class>  (576) 
Lipids and lipid-like molecules

>  <direct_parent_classification>  (576) 
Diterpenoids

>  <np_classifier_pathway>  (576) 
Terpenoids

>  <np_classifier_superclass>  (576) 
Diterpenoids

>  <np_classifier_class>  (576) 
Cleistanthane diterpenoids

>  <np_classifier_is_glycoside>  (576) 
False

>  <organisms>  (576) 
Vellozia piresiana

>  <collections>  (576) 
Latin America dataset|NuBBEDB|WikiData Natural Products|ZINC NP

>  <dois>  (576) 
10.1016/S0031-9422(00)80444-6

>  <synonyms>  (576) 
281113-cleistanthatetraene

>  <cas>  (576) 
nan

$$$$

     RDKit          2D

 27 29  0  0  0  0  0  0  0  0999 V2000
   -6.7413   -1.2666    0.0000 C   0  0  0  0  0  0  0  0  0  0  0  0
   -5.4963   -2.1032    0.0000 O   0  0  0  0  0  0  0  0  0  0  0  0
   -4.1492   -1.4433    0.0000 C   0  0  0  0  0  0  0  0  0  0  0  0
   -4.0472    0.0532    0.0000 C   0  0  0  0  0  0  0  0  0  0  0  0
   -2.7002    0.7131    0.0000 C   0  0  0  0  0  0  0  0  0  0  0  0
   -1.4551   -0.1235    0.0000 C   0  0  0  0  0  0  0  0  0  0  0  0
   -1.5572   -1.6200    0.0000 C   0  0  0  0  0  0  0  0  0  0  0  0
   -2.9042   -2.2799    0.0000 C   0  0  0  0  0  0  0  0  0  0  0  0
   -3.0063   -3.7765    0.0000 O   0  0  0  0  0  0  0  0  0  0  0  0
   -0.1081    0.5364    0.0000 C   0  0  0  0  0  0  0  0  0  0  0  0
    1.1369   -0.3003    0.0000 C   0  0  0  0  0  0  0  0  0  0  0  0
    1.0349   -1.7968    0.0000 C   0  0  0  0  0  0  0  0  0  0  0  0
    2.2799   -2.6334    0.0000 C   0  0  0  0  0  0  0  0  0  0  0  0
    3.6269   -1.9735    0.0000 C   0  0  0  0  0  0  0  0  0  0  0  0
    4.8719   -2.8101    0.0000 O   0  0  0  0  0  0  0  0  0  0  0  0
    4.7699   -4.3067    0.0000 C   0  0  0  0  0  0  0  0  0  0  0  0
    3.7290   -0.4770    0.0000 C   0  0  0  0  0  0  0  0  0  0  0  0
    5.0760    0.1829    0.0000 O   0  0  0  0  0  0  0  0  0  0  0  0
    5.1781    1.6794    0.0000 C   0  0  0  0  0  0  0  0  0  0  0  0
    2.4840    0.3596    0.0000 C   0  0  0  0  0  0  0  0  0  0  0  0
   -0.0061    2.0329    0.0000 C   0  0  0  0  0  0  0  0  0  0  0  0
    1.3410    2.6928    0.0000 C   0  0  0  0  0  0  0  0  0  0  0  0
    1.4430    4.1893    0.0000 O   0  0  0  0  0  0  0  0  0  0  0  0
   -1.2511    2.8695    0.0000 C   0  0  0  0  0  0  0  0  0  0  0  0
   -1.1490    4.3661    0.0000 C   0  0  0  0  0  0  0  0  0  0  0  0
    0.1980    5.0259    0.0000 O   0  0  0  0  0  0  0  0  0  0  0  0
   -2.5981    2.2096    0.0000 C   0  0  0  0  0  0  0  0  0  0  0  0
  1  2  1  0
  2  3  1  0
  3  4  2  0
  4  5  1  0
  5  6  2  0
  6  7  1  0
  7  8  2  0
  8  9  1  0
  6 10  1  0
 10 11  1  1
 11 12  2  0
 12 13  1  0
 13 14  2  0
 14 15  1  0
 15 16  1  0
 14 17  1  0
 17 18  1  0
 18 19  1  0
 17 20  2  0
 10 21  1  0
 21 22  1  6
 22 23  1  0
 21 24  1  0
 24 25  1  1
 25 26  1  0
 24 27  1  0
  8  3  1  0
 20 11  1  0
 27  5  1  0
M  END
>  <identifier>  (577) 
CNP0080518.1

>  <canonical_smiles>  (577) 
COC1=CC2=C(C=C1O)[C@H](C1=CC=C(OC)C(OC)=C1)[C@@H](CO)[C@H](CO)C2

>  <standard_inchi>  (577) 
InChI=1S/C21H26O6/c1-25-18-5-4-12(7-20(18)27-3)21-15-9-17(24)19(26-2)8-13(15)6-14(10-22)16(21)11-23/h4-5,7-9,14,16,21-24H,6,10-11H2,1-3H3/t14-,16-,21-/m0/s1

>  <standard_inchi_key>  (577) 
KWAWYJQFQMCYSM-HTZUNMPGSA-N

>  <name>  (577) 
nan

>  <iupac_name>  (577) 
(2~{R},3~{R},4~{S})-4-(3,4-dimethoxyphenyl)-2,3-bis(hydroxymethyl)-7-methoxy-tetralin-6-ol

>  <annotation_level>  (577) 
4

>  <total_atom_count>  (577) 
53

>  <heavy_atom_count>  (577) 
27

>  <molecular_weight>  (577) 
374.43

>  <exact_molecular_weight>  (577) 
374.17294

>  <molecular_formula>  (577) 
C21H26O6

>  <alogp>  (577) 
2.32

>  <topological_polar_surface_area>  (577) 
88.38

>  <rotatable_bond_count>  (577) 
6

>  <hydrogen_bond_acceptors>  (577) 
6

>  <hydrogen_bond_donors>  (577) 
3

>  <hydrogen_bond_acceptors_lipinski>  (577) 
6

>  <hydrogen_bond_donors_lipinski>  (577) 
3

>  <lipinski_rule_of_five_violations>  (577) 
0

>  <aromatic_rings_count>  (577) 
2

>  <qed_drug_likeliness>  (577) 
0.72

>  <formal_charge>  (577) 
0

>  <fractioncsp3>  (577) 
0.43

>  <number_of_minimal_rings>  (577) 
3

>  <van_der_walls_volume>  (577) 
nan

>  <contains_sugar>  (577) 
False

>  <contains_ring_sugars>  (577) 
False

>  <contains_linear_sugars>  (577) 
False

>  <murcko_framework>  (577) 
c1ccc(cc1)C2c3ccccc3CCC2

>  <np_likeness>  (577) 
1.59

>  <chemical_class>  (577) 
Aryltetralin lignans

>  <chemical_sub_class>  (577) 
9,9p-dihydroxyaryltetralin lignans

>  <chemical_super_class>  (577) 
Lignans, neolignans and related compounds

>  <direct_parent_classification>  (577) 
9,9p-dihydroxyaryltetralin lignans

>  <np_classifier_pathway>  (577) 
Shikimates and Phenylpropanoids

>  <np_classifier_superclass>  (577) 
Lignans

>  <np_classifier_class>  (577) 
Arylnaphthalene and aryltetralin lignans

>  <np_classifier_is_glycoside>  (577) 
False

>  <organisms>  (577) 
Araucaria angustifolia

>  <collections>  (577) 
Latin America dataset|NuBBEDB|WikiData Natural Products|ZINC NP

>  <dois>  (577) 
10.1016/S0031-9422(00)89347-4

>  <synonyms>  (577) 
isolariciresinol-4-methylether

>  <cas>  (577) 
nan

$$$$

     RDKit          2D

 31 33  0  0  0  0  0  0  0  0999 V2000
   -3.3064    4.0650    0.0000 C   0  0  0  0  0  0  0  0  0  0  0  0
   -4.2806    2.9244    0.0000 O   0  0  0  0  0  0  0  0  0  0  0  0
   -3.7800    1.5104    0.0000 C   0  0  0  0  0  0  0  0  0  0  0  0
   -2.3051    1.2370    0.0000 C   0  0  0  0  0  0  0  0  0  0  0  0
   -1.8044   -0.1769    0.0000 C   0  0  0  0  0  0  0  0  0  0  0  0
   -0.3295   -0.4503    0.0000 C   0  0  0  0  0  0  0  0  0  0  0  0
    0.1711   -1.8643    0.0000 C   0  0  0  0  0  0  0  0  0  0  0  0
   -0.8031   -3.0049    0.0000 O   0  0  0  0  0  0  0  0  0  0  0  0
   -2.2779   -2.7315    0.0000 C   0  0  0  0  0  0  0  0  0  0  0  0
    1.6460   -2.1377    0.0000 C   0  0  0  0  0  0  0  0  0  0  0  0
    2.1467   -3.5517    0.0000 O   0  0  0  0  0  0  0  0  0  0  0  0
    2.6202   -0.9971    0.0000 C   0  0  0  0  0  0  0  0  0  0  0  0
    4.0951   -1.2705    0.0000 C   0  0  0  0  0  0  0  0  0  0  0  0
    4.5958   -2.6845    0.0000 O   0  0  0  0  0  0  0  0  0  0  0  0
    6.0706   -2.9579    0.0000 C   0  0  0  0  0  0  0  0  0  0  0  0
    5.0693   -0.1299    0.0000 C   0  0  0  0  0  0  0  0  0  0  0  0
    4.5686    1.2840    0.0000 C   0  0  0  0  0  0  0  0  0  0  0  0
    5.5428    2.4246    0.0000 O   0  0  0  0  0  0  0  0  0  0  0  0
    7.0177    2.1512    0.0000 C   0  0  0  0  0  0  0  0  0  0  0  0
    3.0937    1.5574    0.0000 C   0  0  0  0  0  0  0  0  0  0  0  0
    2.5931    2.9714    0.0000 O   0  0  0  0  0  0  0  0  0  0  0  0
    3.5673    4.1120    0.0000 C   0  0  0  0  0  0  0  0  0  0  0  0
    2.1195    0.4169    0.0000 C   0  0  0  0  0  0  0  0  0  0  0  0
    0.6447    0.6902    0.0000 O   0  0  0  0  0  0  0  0  0  0  0  0
   -2.7786   -1.3175    0.0000 C   0  0  0  0  0  0  0  0  0  0  0  0
   -4.2535   -1.0441    0.0000 C   0  0  0  0  0  0  0  0  0  0  0  0
   -5.2277   -2.1847    0.0000 O   0  0  0  0  0  0  0  0  0  0  0  0
   -6.7026   -1.9113    0.0000 C   0  0  0  0  0  0  0  0  0  0  0  0
   -4.7542    0.3699    0.0000 C   0  0  0  0  0  0  0  0  0  0  0  0
   -6.2290    0.6433    0.0000 O   0  0  0  0  0  0  0  0  0  0  0  0
   -6.7297    2.0572    0.0000 C   0  0  0  0  0  0  0  0  0  0  0  0
  1  2  1  0
  2  3  1  0
  3  4  2  0
  4  5  1  0
  5  6  1  0
  6  7  2  0
  7  8  1  0
  8  9  1  0
  7 10  1  0
 10 11  2  0
 10 12  1  0
 12 13  2  0
 13 14  1  0
 14 15  1  0
 13 16  1  0
 16 17  2  0
 17 18  1  0
 18 19  1  0
 17 20  1  0
 20 21  1  0
 21 22  1  0
 20 23  2  0
 23 24  1  0
  5 25  2  0
 25 26  1  0
 26 27  1  0
 27 28  1  0
 26 29  2  0
 29 30  1  0
 30 31  1  0
 29  3  1  0
 24  6  1  0
 23 12  1  0
M  END
>  <identifier>  (578) 
CNP0160598.0

>  <canonical_smiles>  (578) 
COC1=CC(C2=C(OC)C(=O)C3=C(OC)C=C(OC)C(OC)=C3O2)=CC(OC)=C1OC

>  <standard_inchi>  (578) 
InChI=1S/C22H24O9/c1-24-12-10-15(27-4)20(29-6)21-16(12)17(23)22(30-7)18(31-21)11-8-13(25-2)19(28-5)14(9-11)26-3/h8-10H,1-7H3

>  <standard_inchi_key>  (578) 
AFQWYRUBZJYCIF-UHFFFAOYSA-N

>  <name>  (578) 
21634-52-6

>  <iupac_name>  (578) 
3,5,7,8-tetramethoxy-2-(3,4,5-trimethoxyphenyl)chromen-4-one

>  <annotation_level>  (578) 
5

>  <total_atom_count>  (578) 
55

>  <heavy_atom_count>  (578) 
31

>  <molecular_weight>  (578) 
432.43

>  <exact_molecular_weight>  (578) 
432.14203

>  <molecular_formula>  (578) 
C22H24O9

>  <alogp>  (578) 
3.52

>  <topological_polar_surface_area>  (578) 
94.82

>  <rotatable_bond_count>  (578) 
8

>  <hydrogen_bond_acceptors>  (578) 
9

>  <hydrogen_bond_donors>  (578) 
0

>  <hydrogen_bond_acceptors_lipinski>  (578) 
9

>  <hydrogen_bond_donors_lipinski>  (578) 
0

>  <lipinski_rule_of_five_violations>  (578) 
0

>  <aromatic_rings_count>  (578) 
3

>  <qed_drug_likeliness>  (578) 
0.53

>  <formal_charge>  (578) 
0

>  <fractioncsp3>  (578) 
0.32

>  <number_of_minimal_rings>  (578) 
3

>  <van_der_walls_volume>  (578) 
375.85

>  <contains_sugar>  (578) 
False

>  <contains_ring_sugars>  (578) 
False

>  <contains_linear_sugars>  (578) 
False

>  <murcko_framework>  (578) 
O1c2ccccc2CC=C1c3ccccc3

>  <np_likeness>  (578) 
0.91

>  <chemical_class>  (578) 
Flavonoids

>  <chemical_sub_class>  (578) 
O-methylated flavonoids

>  <chemical_super_class>  (578) 
Phenylpropanoids and polyketides

>  <direct_parent_classification>  (578) 
3-O-methylated flavonoids

>  <np_classifier_pathway>  (578) 
Shikimates and Phenylpropanoids

>  <np_classifier_superclass>  (578) 
Flavonoids

>  <np_classifier_class>  (578) 
Flavonols

>  <np_classifier_is_glycoside>  (578) 
False

>  <organisms>  (578) 
Codonopsis pilosula subsp. tangshen|Murraya Paniculata|Murraya exotica|Murraya paniculata|Murraya paniculata var. exotica

>  <collections>  (578) 
Australian natural products|GNPS (Global Natural Products Social Molecular Networking)|KNApSaCK|Latin America dataset|NPASS|NPEdia|NuBBEDB|Specs Natural Products|Super Natural II|TCMDB-Taiwan (Traditional Chinese Medicine database)|TCMID (Traditional Chinese Medicine Integrated Database)|TIPdb (database of Taiwan indigenous plants)|UNPD (Universal Natural Products Database)|VietHerb|WikiData Natural Products|ZINC NP

>  <dois>  (578) 
10.1016/S0031-9422(00)85198-5|10.1016/S0031-9422(00)86993-9|10.1016/S0031-9422(96)00853-9|10.1016/S0031-9422(97)00598-0|10.1016/s0031-9422(00)85198-5|10.1016/s0031-9422(96)00853-9|10.1016/s0031-9422(97)00598-0|10.1211/JPP.61.02.0017

>  <synonyms>  (578) 
3',4',5',3,5,7,8-Heptamethoxyflavone|3',4',5',3,5,7,8-Heptamethoxyflavone; Hibiscetin heptamethyl ether|3'4'5'3578-heptamethoxyflavone|3,5,7,8,3',4',5'-Heptamethoxyflavone|3,5,7,8-tetramethoxy-2-(3,4,5-trimethoxyphenyl)chromen-4-one|A878984|AKOS022184787|B0005-174594|CHEBI:182687|CS-0017638|Conyzatin dimethyl ether|FS-9569|HY-N1785|Hibiscetin heptamethyl ether|LMPK12113278|NCGC00385661-01!3,5,7,8-tetramethoxy-2-(3,4,5-trimethoxyphenyl)chromen-4-one|NS00134227|SCHEMBL16894627

>  <cas>  (578) 
nan

$$$$

     RDKit          2D

 30 32  0  0  0  0  0  0  0  0999 V2000
    3.6388   -4.3183    0.0000 C   0  0  0  0  0  0  0  0  0  0  0  0
    4.7946   -3.3623    0.0000 O   0  0  0  0  0  0  0  0  0  0  0  0
    4.5446   -1.8833    0.0000 C   0  0  0  0  0  0  0  0  0  0  0  0
    3.1387   -1.3603    0.0000 C   0  0  0  0  0  0  0  0  0  0  0  0
    2.8887    0.1187    0.0000 C   0  0  0  0  0  0  0  0  0  0  0  0
    1.4828    0.6417    0.0000 C   0  0  0  0  0  0  0  0  0  0  0  0
    0.2334   -0.1883    0.0000 O   0  0  0  0  0  0  0  0  0  0  0  0
   -0.9421    0.7435    0.0000 C   0  0  0  0  0  0  0  0  0  0  0  0
   -2.3869    0.3403    0.0000 C   0  0  0  0  0  0  0  0  0  0  0  0
   -3.4585    1.3898    0.0000 C   0  0  0  0  0  0  0  0  0  0  0  0
   -4.9033    0.9866    0.0000 C   0  0  0  0  0  0  0  0  0  0  0  0
   -5.9749    2.0362    0.0000 O   0  0  0  0  0  0  0  0  0  0  0  0
   -5.6017    3.4890    0.0000 C   0  0  0  0  0  0  0  0  0  0  0  0
   -5.2764   -0.4663    0.0000 C   0  0  0  0  0  0  0  0  0  0  0  0
   -6.7212   -0.8695    0.0000 O   0  0  0  0  0  0  0  0  0  0  0  0
   -7.0944   -2.3224    0.0000 C   0  0  0  0  0  0  0  0  0  0  0  0
   -4.2048   -1.5158    0.0000 C   0  0  0  0  0  0  0  0  0  0  0  0
   -4.5780   -2.9687    0.0000 O   0  0  0  0  0  0  0  0  0  0  0  0
   -3.5064   -4.0183    0.0000 C   0  0  0  0  0  0  0  0  0  0  0  0
   -2.7600   -1.1126    0.0000 C   0  0  0  0  0  0  0  0  0  0  0  0
   -0.4191    2.1494    0.0000 C   0  0  0  0  0  0  0  0  0  0  0  0
   -1.2491    3.3988    0.0000 C   0  0  0  0  0  0  0  0  0  0  0  0
    1.0796    2.0865    0.0000 C   0  0  0  0  0  0  0  0  0  0  0  0
    2.0114    3.2619    0.0000 C   0  0  0  0  0  0  0  0  0  0  0  0
    4.0445    1.0747    0.0000 C   0  0  0  0  0  0  0  0  0  0  0  0
    5.4504    0.5518    0.0000 C   0  0  0  0  0  0  0  0  0  0  0  0
    6.6063    1.5078    0.0000 O   0  0  0  0  0  0  0  0  0  0  0  0
    6.3562    2.9868    0.0000 C   0  0  0  0  0  0  0  0  0  0  0  0
    5.7005   -0.9273    0.0000 C   0  0  0  0  0  0  0  0  0  0  0  0
    7.1063   -1.4502    0.0000 O   0  0  0  0  0  0  0  0  0  0  0  0
  1  2  1  0
  2  3  1  0
  3  4  2  0
  4  5  1  0
  6  5  1  1
  6  7  1  0
  7  8  1  0
  8  9  1  1
  9 10  2  0
 10 11  1  0
 11 12  1  0
 12 13  1  0
 11 14  2  0
 14 15  1  0
 15 16  1  0
 14 17  1  0
 17 18  1  0
 18 19  1  0
 17 20  2  0
  8 21  1  0
 21 22  1  1
 21 23  1  0
 23 24  1  6
  5 25  2  0
 25 26  1  0
 26 27  1  0
 27 28  1  0
 26 29  2  0
 29 30  1  0
 29  3  1  0
 23  6  1  0
 20  9  1  0
M  END
>  <identifier>  (579) 
CNP0206961.1

>  <canonical_smiles>  (579) 
COC1=CC([C@H]2O[C@@H](C3=CC(OC)=C(OC)C(OC)=C3)[C@@H](C)[C@@H]2C)=CC(OC)=C1O

>  <standard_inchi>  (579) 
InChI=1S/C23H30O7/c1-12-13(2)22(15-10-18(27-5)23(29-7)19(11-15)28-6)30-21(12)14-8-16(25-3)20(24)17(9-14)26-4/h8-13,21-22,24H,1-7H3/t12-,13-,21-,22+/m0/s1

>  <standard_inchi_key>  (579) 
BJMZZPKIBSAQBA-TXMYPURDSA-N

>  <name>  (579) 
nan

>  <iupac_name>  (579) 
4-[(2~{S},3~{S},4~{S},5~{R})-3,4-dimethyl-5-(3,4,5-trimethoxyphenyl)tetrahydrofuran-2-yl]-2,6-dimethoxy-phenol

>  <annotation_level>  (579) 
5

>  <total_atom_count>  (579) 
60

>  <heavy_atom_count>  (579) 
30

>  <molecular_weight>  (579) 
418.49

>  <exact_molecular_weight>  (579) 
418.19915

>  <molecular_formula>  (579) 
C23H30O7

>  <alogp>  (579) 
4.52

>  <topological_polar_surface_area>  (579) 
75.61

>  <rotatable_bond_count>  (579) 
7

>  <hydrogen_bond_acceptors>  (579) 
7

>  <hydrogen_bond_donors>  (579) 
1

>  <hydrogen_bond_acceptors_lipinski>  (579) 
7

>  <hydrogen_bond_donors_lipinski>  (579) 
1

>  <lipinski_rule_of_five_violations>  (579) 
0

>  <aromatic_rings_count>  (579) 
2

>  <qed_drug_likeliness>  (579) 
0.71

>  <formal_charge>  (579) 
0

>  <fractioncsp3>  (579) 
0.48

>  <number_of_minimal_rings>  (579) 
3

>  <van_der_walls_volume>  (579) 
387.23

>  <contains_sugar>  (579) 
False

>  <contains_ring_sugars>  (579) 
False

>  <contains_linear_sugars>  (579) 
False

>  <murcko_framework>  (579) 
O1C(c2ccccc2)CCC1c3ccccc3

>  <np_likeness>  (579) 
0.91

>  <chemical_class>  (579) 
Furanoid lignans

>  <chemical_sub_class>  (579) 
Tetrahydrofuran lignans

>  <chemical_super_class>  (579) 
Lignans, neolignans and related compounds

>  <direct_parent_classification>  (579) 
7,7'-epoxylignans

>  <np_classifier_pathway>  (579) 
Shikimates and Phenylpropanoids

>  <np_classifier_superclass>  (579) 
Lignans

>  <np_classifier_class>  (579) 
Furanoid lignans

>  <np_classifier_is_glycoside>  (579) 
False

>  <organisms>  (579) 
Andira araroba|Condalia buxifolia|Kigelia pinnata|Lamprothamnus zanguebaricus|Peperomia blanda|Silybum marianum|Stylotella aurantium

>  <collections>  (579) 
CMAUP (cCollective molecular activities of useful plants)|ChemSpider NPs|Latin America dataset|NPASS|NuBBEDB|Super Natural II|WikiData Natural Products|ZINC NP

>  <dois>  (579) 
10.1016/J.PHYTOCHEM.2007.08.012|10.1016/j.phytochem.2007.08.012

>  <synonyms>  (579) 
Rel-(7R8S7'S8'S)-4'-hydroxy-3453'5'-pentamethoxy-77'-epoxylignan

>  <cas>  (579) 
nan

$$$$

     RDKit          2D

 43 49  0  0  0  0  0  0  0  0999 V2000
   -1.0422   -5.6155    0.0000 C   0  0  0  0  0  0  0  0  0  0  0  0
   -1.9202   -4.3993    0.0000 C   0  0  0  0  0  0  0  0  0  0  0  0
   -3.4124   -4.5516    0.0000 O   0  0  0  0  0  0  0  0  0  0  0  0
   -1.3059   -3.0309    0.0000 O   0  0  0  0  0  0  0  0  0  0  0  0
   -2.1839   -1.8147    0.0000 O   0  0  0  0  0  0  0  0  0  0  0  0
   -1.5696   -0.4462    0.0000 C   0  0  0  0  0  0  0  0  0  0  0  0
   -0.5693   -1.5640    0.0000 C   0  0  0  0  0  0  0  0  0  0  0  0
    0.8028   -0.9580    0.0000 C   0  0  0  0  0  0  0  0  0  0  0  0
    0.6506    0.5342    0.0000 O   0  0  0  0  0  0  0  0  0  0  0  0
   -0.8157    0.8505    0.0000 C   0  0  0  0  0  0  0  0  0  0  0  0
   -2.3079    0.6983    0.0000 O   0  0  0  0  0  0  0  0  0  0  0  0
   -1.5617    2.1518    0.0000 C   0  0  0  0  0  0  0  0  0  0  0  0
   -0.8078    3.4486    0.0000 C   0  0  0  0  0  0  0  0  0  0  0  0
   -1.5538    4.7499    0.0000 O   0  0  0  0  0  0  0  0  0  0  0  0
   -3.0538    4.7545    0.0000 C   0  0  0  0  0  0  0  0  0  0  0  0
   -3.7999    6.0558    0.0000 O   0  0  0  0  0  0  0  0  0  0  0  0
   -3.8078    3.4577    0.0000 C   0  0  0  0  0  0  0  0  0  0  0  0
   -3.0617    2.1564    0.0000 C   0  0  0  0  0  0  0  0  0  0  0  0
   -3.8157    0.8596    0.0000 C   0  0  0  0  0  0  0  0  0  0  0  0
   -4.9677   -0.1010    0.0000 C   0  0  0  0  0  0  0  0  0  0  0  0
   -4.9618    1.8273    0.0000 C   0  0  0  0  0  0  0  0  0  0  0  0
   -3.0696   -0.4417    0.0000 C   0  0  0  0  0  0  0  0  0  0  0  0
   -3.8236   -1.7384    0.0000 O   0  0  0  0  0  0  0  0  0  0  0  0
   -5.3236   -1.7339    0.0000 C   0  0  0  0  0  0  0  0  0  0  0  0
   -6.0775   -3.0306    0.0000 C   0  0  0  0  0  0  0  0  0  0  0  0
   -6.0696   -0.4325    0.0000 O   0  0  0  0  0  0  0  0  0  0  0  0
   -0.1254    1.7195    0.0000 C   0  0  0  0  0  0  0  0  0  0  0  0
    1.2932    1.5933    0.0000 C   0  0  0  0  0  0  0  0  0  0  0  0
    2.7662    1.3102    0.0000 C   0  0  0  0  0  0  0  0  0  0  0  0
    3.2576   -0.1070    0.0000 C   0  0  0  0  0  0  0  0  0  0  0  0
    4.2393    1.0271    0.0000 C   0  0  0  0  0  0  0  0  0  0  0  0
    4.7306   -0.3902    0.0000 C   0  0  0  0  0  0  0  0  0  0  0  0
    5.7123    0.7440    0.0000 C   0  0  0  0  0  0  0  0  0  0  0  0
    5.3718    2.2048    0.0000 C   0  0  0  0  0  0  0  0  0  0  0  0
    6.6560    2.9801    0.0000 O   0  0  0  0  0  0  0  0  0  0  0  0
    7.7901    1.9983    0.0000 C   0  0  0  0  0  0  0  0  0  0  0  0
    7.2069    0.6164    0.0000 C   0  0  0  0  0  0  0  0  0  0  0  0
    5.2219   -1.8074    0.0000 O   0  0  0  0  0  0  0  0  0  0  0  0
    4.2402   -2.9415    0.0000 C   0  0  0  0  0  0  0  0  0  0  0  0
    4.7316   -4.3588    0.0000 O   0  0  0  0  0  0  0  0  0  0  0  0
    2.7672   -2.6584    0.0000 C   0  0  0  0  0  0  0  0  0  0  0  0
    2.2759   -1.2412    0.0000 C   0  0  0  0  0  0  0  0  0  0  0  0
    1.2942   -2.3753    0.0000 O   0  0  0  0  0  0  0  0  0  0  0  0
  1  2  1  0
  2  3  2  0
  2  4  1  0
  4  5  1  0
  6  5  1  6
  6  7  1  0
  8  7  1  6
  8  9  1  0
  9 10  1  0
 10 11  1  0
 10 12  1  0
 12 13  1  6
 13 14  1  0
 14 15  1  0
 15 16  2  0
 15 17  1  0
 18 17  1  6
 18 19  1  0
 19 20  1  0
 19 21  1  0
 19 22  1  0
 22 23  1  1
 23 24  1  0
 24 25  1  0
 24 26  2  0
 12 27  1  0
 27 28  1  1
 28 29  1  0
 29 30  1  0
 30 31  1  6
 30 32  1  0
 32 33  1  6
 33 34  2  0
 34 35  1  0
 35 36  1  0
 36 37  2  0
 32 38  1  0
 38 39  1  0
 39 40  2  0
 39 41  1  0
 41 42  1  0
 42 43  1  6
 10  6  1  0
 18 12  1  0
 42 30  1  0
 22  6  1  0
 37 33  1  0
 27  8  1  0
 42  8  1  0
M  END
>  <identifier>  (580) 
CNP0324199.1

>  <canonical_smiles>  (580) 
CC(=O)OO[C@@]12C[C@@]34OC1(O)[C@]1(COC(=O)C[C@H]1C(C)(C)[C@@H]2OC(C)=O)[C@H]3CC[C@@]1(C)[C@H](C2=COC=C2)OC(=O)C[C@]14O

>  <standard_inchi>  (580) 
InChI=1S/C30H36O13/c1-15(31)39-23-24(3,4)19-10-20(33)38-14-26(19)18-6-8-25(5)22(17-7-9-37-12-17)40-21(34)11-29(25,35)27(18)13-28(23,30(26,36)42-27)43-41-16(2)32/h7,9,12,18-19,22-23,35-36H,6,8,10-11,13-14H2,1-5H3/t18-,19+,22+,23+,25+,26-,27-,28-,29+,30?/m1/s1

>  <standard_inchi_key>  (580) 
RDTHSEPEAGEPPU-AVIREYSZSA-N

>  <name>  (580) 
nan

>  <iupac_name>  (580) 
[(1~{R},2~{S},6~{S},7~{S},10~{R},11~{S},16~{S},18~{S},19~{R})-19-acetylperoxy-6-(3-furyl)-2,20-dihydroxy-7,17,17-trimethyl-4,14-dioxo-5,13,21-trioxahexacyclo[17.2.1.0^{1,10}.0^{2,7}.0^{11,16}.0^{11,20}]docosan-18-yl] acetate

>  <annotation_level>  (580) 
4

>  <total_atom_count>  (580) 
79

>  <heavy_atom_count>  (580) 
43

>  <molecular_weight>  (580) 
604.61

>  <exact_molecular_weight>  (580) 
604.21559

>  <molecular_formula>  (580) 
C30H36O13

>  <alogp>  (580) 
2.03

>  <topological_polar_surface_area>  (580) 
177.26

>  <rotatable_bond_count>  (580) 
4

>  <hydrogen_bond_acceptors>  (580) 
13

>  <hydrogen_bond_donors>  (580) 
2

>  <hydrogen_bond_acceptors_lipinski>  (580) 
13

>  <hydrogen_bond_donors_lipinski>  (580) 
2

>  <lipinski_rule_of_five_violations>  (580) 
2

>  <aromatic_rings_count>  (580) 
1

>  <qed_drug_likeliness>  (580) 
0.22

>  <formal_charge>  (580) 
0

>  <fractioncsp3>  (580) 
0.73

>  <number_of_minimal_rings>  (580) 
7

>  <van_der_walls_volume>  (580) 
nan

>  <contains_sugar>  (580) 
False

>  <contains_ring_sugars>  (580) 
False

>  <contains_linear_sugars>  (580) 
False

>  <murcko_framework>  (580) 
o1ccc(c1)C2OCCC3C2CCC4C53OC6C(CCC7CCOCC674)C5

>  <np_likeness>  (580) 
2.46

>  <chemical_class>  (580) 
Prenol lipids

>  <chemical_sub_class>  (580) 
Triterpenoids

>  <chemical_super_class>  (580) 
Lipids and lipid-like molecules

>  <direct_parent_classification>  (580) 
Limonoids

>  <np_classifier_pathway>  (580) 
Terpenoids

>  <np_classifier_superclass>  (580) 
Triterpenoids

>  <np_classifier_class>  (580) 
Limonoids

>  <np_classifier_is_glycoside>  (580) 
True

>  <organisms>  (580) 
Khaya anthotheca

>  <collections>  (580) 
Latin America dataset|NuBBEDB

>  <dois>  (580) 
10.1021/np0496845

>  <synonyms>  (580) 
1\u221a\u00e9\u00ac\u00b18\u221a\u00e9\u00ac\u00b1-oxido-3\u221a\u00e9\u00ac\u2264-acetoxy-2\u221a\u00e9\u00ac\u00b1-acylperoxy-1\u221a\u00e9\u00ac\u00b114\u221a\u00e9\u00ac\u00b1-dihydroxy-[3.3.1102]-bicyclomeliac-719-olide

>  <cas>  (580) 
nan

$$$$

     RDKit          2D

 19 21  0  0  0  0  0  0  0  0999 V2000
    5.1777    1.1343    0.0000 C   0  0  0  0  0  0  0  0  0  0  0  0
    3.8126    1.7560    0.0000 O   0  0  0  0  0  0  0  0  0  0  0  0
    2.5916    0.8847    0.0000 C   0  0  0  0  0  0  0  0  0  0  0  0
    2.7357   -0.6084    0.0000 C   0  0  0  0  0  0  0  0  0  0  0  0
    1.5148   -1.4797    0.0000 C   0  0  0  0  0  0  0  0  0  0  0  0
    1.6589   -2.9728    0.0000 O   0  0  0  0  0  0  0  0  0  0  0  0
    3.0240   -3.5945    0.0000 C   0  0  0  0  0  0  0  0  0  0  0  0
    0.1497   -0.8580    0.0000 C   0  0  0  0  0  0  0  0  0  0  0  0
   -1.0713   -1.7294    0.0000 N   0  0  0  0  0  0  0  0  0  0  0  0
   -2.4364   -1.1076    0.0000 C   0  0  0  0  0  0  0  0  0  0  0  0
   -3.8118   -1.7061    0.0000 O   0  0  0  0  0  0  0  0  0  0  0  0
   -4.8060   -0.5829    0.0000 C   0  0  0  0  0  0  0  0  0  0  0  0
   -4.0450    0.7097    0.0000 C   0  0  0  0  0  0  0  0  0  0  0  0
   -2.5805    0.3854    0.0000 C   0  0  0  0  0  0  0  0  0  0  0  0
   -1.3595    1.2568    0.0000 C   0  0  0  0  0  0  0  0  0  0  0  0
   -1.5037    2.7498    0.0000 O   0  0  0  0  0  0  0  0  0  0  0  0
   -0.2827    3.6212    0.0000 C   0  0  0  0  0  0  0  0  0  0  0  0
    0.0056    0.6351    0.0000 C   0  0  0  0  0  0  0  0  0  0  0  0
    1.2265    1.5064    0.0000 C   0  0  0  0  0  0  0  0  0  0  0  0
  1  2  1  0
  2  3  1  0
  3  4  2  0
  4  5  1  0
  5  6  1  0
  6  7  1  0
  5  8  2  0
  8  9  1  0
  9 10  2  0
 10 11  1  0
 11 12  1  0
 12 13  2  0
 13 14  1  0
 14 15  2  0
 15 16  1  0
 16 17  1  0
 15 18  1  0
 18 19  2  0
 19  3  1  0
 18  8  1  0
 14 10  1  0
M  END
>  <identifier>  (581) 
CNP0266880.0

>  <canonical_smiles>  (581) 
COC1=CC(OC)=C2N=C3OC=CC3=C(OC)C2=C1

>  <standard_inchi>  (581) 
InChI=1S/C14H13NO4/c1-16-8-6-10-12(11(7-8)17-2)15-14-9(4-5-19-14)13(10)18-3/h4-7H,1-3H3

>  <standard_inchi_key>  (581) 
SHAVHFJCSQWTFF-UHFFFAOYSA-N

>  <name>  (581) 
Maculosidine

>  <iupac_name>  (581) 
4,6,8-trimethoxyfuro[2,3-b]quinoline

>  <annotation_level>  (581) 
5

>  <total_atom_count>  (581) 
32

>  <heavy_atom_count>  (581) 
19

>  <molecular_weight>  (581) 
259.26

>  <exact_molecular_weight>  (581) 
259.08446

>  <molecular_formula>  (581) 
C14H13NO4

>  <alogp>  (581) 
3.01

>  <topological_polar_surface_area>  (581) 
53.72

>  <rotatable_bond_count>  (581) 
3

>  <hydrogen_bond_acceptors>  (581) 
5

>  <hydrogen_bond_donors>  (581) 
0

>  <hydrogen_bond_acceptors_lipinski>  (581) 
5

>  <hydrogen_bond_donors_lipinski>  (581) 
0

>  <lipinski_rule_of_five_violations>  (581) 
0

>  <aromatic_rings_count>  (581) 
3

>  <qed_drug_likeliness>  (581) 
0.72

>  <formal_charge>  (581) 
0

>  <fractioncsp3>  (581) 
0.21

>  <number_of_minimal_rings>  (581) 
3

>  <van_der_walls_volume>  (581) 
224.62

>  <contains_sugar>  (581) 
False

>  <contains_ring_sugars>  (581) 
False

>  <contains_linear_sugars>  (581) 
False

>  <murcko_framework>  (581) 
n1c2occc2cc3ccccc13

>  <np_likeness>  (581) 
0.81

>  <chemical_class>  (581) 
Quinolines and derivatives

>  <chemical_sub_class>  (581) 
Furanoquinolines

>  <chemical_super_class>  (581) 
Organoheterocyclic compounds

>  <direct_parent_classification>  (581) 
Furanoquinolines

>  <np_classifier_pathway>  (581) 
Alkaloids

>  <np_classifier_superclass>  (581) 
Tryptophan alkaloids

>  <np_classifier_class>  (581) 
Quinoline alkaloids

>  <np_classifier_is_glycoside>  (581) 
False

>  <organisms>  (581) 
Aconitum volubile|Acronychia laurifolia|Acronychia pedunculata|Aeollanthus buchnerianus|Angostura trifoliata|Asterolasia drummondii|Balfourodendron riedelianum|Cetorhinus maximus|Cynoglossum viridiflorum|Derris malaccensis|Drummondita calida|Drummondita hassellii|Echium plantagineum|Eriostemon spp.|Esenbeckia almawillia|Esenbeckia conspecta|Esenbeckia flava|Flindersia maculosa|Flindersia schottiana|Helianthus niveus|Helietta apiculata|Hernandia sonora|Leptospermum recurvum|Maclurodendron oligophlebium|Parmelia damaziana|Philotheca coccinea|Philotheca tomentella|Ptelea trifolia|Ptelea trifoliata|Raputia praetermissa|Ruta chalepensis|Teclea simplicifolia|Vepris renieri|Vepris uguenensis

>  <collections>  (581) 
ANPDB|Australian natural products|CMAUP (cCollective molecular activities of useful plants)|ChEBI NPs|KNApSaCK|Latin America dataset|NANPDB (Natural Products from Northern African Sources)|NPASS|NPEdia|NuBBEDB|Super Natural II|UNPD (Universal Natural Products Database)|WikiData Natural Products|ZINC NP

>  <dois>  (581) 
10.1002/PCA.594|10.1016/0031-9422(80)85142-9|10.1016/0031-9422(81)85282-X|10.1016/0031-9422(91)83459-X|10.1016/0031-9422(92)80274-I|10.1016/0031-9422(95)00564-1|10.1016/J.JPHOTOBIOL.2013.01.006|10.1016/J.PHYTOCHEM.2007.12.013|10.1016/S0031-9422(99)00039-4|10.1016/S0305-1978(01)00096-5|10.1016/j.jphotobiol.2013.01.006|10.1016/j.phytochem.2007.12.013|10.1021/JA01501A068|10.1021/NP000012Y|10.1021/NP50104A024|10.1039/P19910002261|10.1055/S-0030-1270963|10.1055/S-2002-32898|10.1071/CH9540181|10.1071/CH9610100|10.1071/ch9540181|10.1515/ZNB-1992-0221|10.1590/S0103-50532011000700021

>  <synonyms>  (581) 
4,6,8-TRIMETHOXYFURO(2,3-B)QUINOLINE|4,6,8-Trimethoxyfuro[2,3-b]quinoline|522-19-0|6,8-Dimethoxydictamnine|AKOS030601133|BRN 0257496|CCRIS 3578|CHEBI:6630|CHEMBL1966898|CS-0255550|DTXSID70200232|FS-8239|Furo(2,3-b)quinoline, 4,6,8-trimethoxy-|Furo[2, 4,6,8-trimethoxy-|HY-N10094|Maculosidin|Makulozidin|NCI60_041837|NSC83431|Q27107283|SHAVHFJCSQWTFF-UHFFFAOYSA-N|TNH45PI9WI|UNII-TNH45PI9WI|maculosidine

>  <cas>  (581) 
522-19-0

$$$$

     RDKit          2D

 21 22  0  0  0  0  0  0  0  0999 V2000
   -6.7705   -0.6489    0.0000 C   0  0  0  0  0  0  0  0  0  0  0  0
   -5.4993   -1.4453    0.0000 O   0  0  0  0  0  0  0  0  0  0  0  0
   -4.1741   -0.7427    0.0000 C   0  0  0  0  0  0  0  0  0  0  0  0
   -4.1199    0.7563    0.0000 C   0  0  0  0  0  0  0  0  0  0  0  0
   -2.7947    1.4590    0.0000 C   0  0  0  0  0  0  0  0  0  0  0  0
   -2.7405    2.9580    0.0000 O   0  0  0  0  0  0  0  0  0  0  0  0
   -1.5236    0.6626    0.0000 C   0  0  0  0  0  0  0  0  0  0  0  0
   -0.1983    1.3652    0.0000 C   0  0  0  0  0  0  0  0  0  0  0  0
   -0.1442    2.8642    0.0000 O   0  0  0  0  0  0  0  0  0  0  0  0
    1.0728    0.5688    0.0000 C   0  0  0  0  0  0  0  0  0  0  0  0
    2.3981    1.2714    0.0000 C   0  0  0  0  0  0  0  0  0  0  0  0
    3.6692    0.4750    0.0000 C   0  0  0  0  0  0  0  0  0  0  0  0
    3.6151   -1.0240    0.0000 C   0  0  0  0  0  0  0  0  0  0  0  0
    4.8862   -1.8204    0.0000 C   0  0  0  0  0  0  0  0  0  0  0  0
    6.2115   -1.1178    0.0000 C   0  0  0  0  0  0  0  0  0  0  0  0
    6.2656    0.3813    0.0000 C   0  0  0  0  0  0  0  0  0  0  0  0
    4.9945    1.1777    0.0000 C   0  0  0  0  0  0  0  0  0  0  0  0
   -1.5777   -0.8365    0.0000 C   0  0  0  0  0  0  0  0  0  0  0  0
   -0.3066   -1.6329    0.0000 O   0  0  0  0  0  0  0  0  0  0  0  0
   -0.3607   -3.1319    0.0000 C   0  0  0  0  0  0  0  0  0  0  0  0
   -2.9030   -1.5391    0.0000 C   0  0  0  0  0  0  0  0  0  0  0  0
  1  2  1  0
  2  3  1  0
  3  4  2  0
  4  5  1  0
  5  6  1  0
  5  7  2  0
  7  8  1  0
  8  9  2  0
  8 10  1  0
 10 11  2  0
 11 12  1  0
 12 13  2  0
 13 14  1  0
 14 15  2  0
 15 16  1  0
 16 17  2  0
  7 18  1  0
 18 19  1  0
 19 20  1  0
 18 21  2  0
 21  3  1  0
 17 12  1  0
M  END
>  <identifier>  (582) 
CNP0131968.1

>  <canonical_smiles>  (582) 
COC1=CC(O)=C(C(=O)/C=C/C2=CC=CC=C2)C(OC)=C1

>  <standard_inchi>  (582) 
InChI=1S/C17H16O4/c1-20-13-10-15(19)17(16(11-13)21-2)14(18)9-8-12-6-4-3-5-7-12/h3-11,19H,1-2H3/b9-8+

>  <standard_inchi_key>  (582) 
QKQLSQLKXBHUSO-CMDGGOBGSA-N

>  <name>  (582) 
nan

>  <iupac_name>  (582) 
nan

>  <annotation_level>  (582) 
0

>  <total_atom_count>  (582) 
37

>  <heavy_atom_count>  (582) 
21

>  <molecular_weight>  (582) 
284.31

>  <exact_molecular_weight>  (582) 
284.10486

>  <molecular_formula>  (582) 
C17H16O4

>  <alogp>  (582) 
3.31

>  <topological_polar_surface_area>  (582) 
55.76

>  <rotatable_bond_count>  (582) 
5

>  <hydrogen_bond_acceptors>  (582) 
4

>  <hydrogen_bond_donors>  (582) 
1

>  <hydrogen_bond_acceptors_lipinski>  (582) 
4

>  <hydrogen_bond_donors_lipinski>  (582) 
1

>  <lipinski_rule_of_five_violations>  (582) 
0

>  <aromatic_rings_count>  (582) 
2

>  <qed_drug_likeliness>  (582) 
0.68

>  <formal_charge>  (582) 
0

>  <fractioncsp3>  (582) 
0.12

>  <number_of_minimal_rings>  (582) 
2

>  <van_der_walls_volume>  (582) 
260.51

>  <contains_sugar>  (582) 
False

>  <contains_ring_sugars>  (582) 
False

>  <contains_linear_sugars>  (582) 
False

>  <murcko_framework>  (582) 
c1ccc(cc1)C=CCc2ccccc2

>  <np_likeness>  (582) 
0.60

>  <chemical_class>  (582) 
nan

>  <chemical_sub_class>  (582) 
nan

>  <chemical_super_class>  (582) 
nan

>  <direct_parent_classification>  (582) 
nan

>  <np_classifier_pathway>  (582) 
Shikimates and Phenylpropanoids

>  <np_classifier_superclass>  (582) 
Flavonoids

>  <np_classifier_class>  (582) 
Chalcones

>  <np_classifier_is_glycoside>  (582) 
False

>  <organisms>  (582) 
Acantholimon glumaceum|Aconitum variegatum|Alpinia mutica|Alpinia nutans|Alpinia pricei|Alpinia rafflesiana|Alpinia sp.|Alpinia speciosa|Alpinia zerumbet|Alternaria porri|Aniba riparia|Annulohypoxylon multiforme|Artocarpus altilis|Bistorta elliptica|Bistorta officinalis|Boesenbergia pandurata|Cedrelopsis grevei|Cephalotaxus fortunei|Chaetanthera chilensis|Cheilanthes fragrans|Clematis delavayi|Creolophus cirrhatus|Cupania latifolia|Didymocarpus corchorifolia|Echinocereus merkeri|Fadogia agrestis|Helichrysum oxyphyllum|Helleborus purpurascens|Ilex microdonta|Impatiens roylei|Juniperus californica|Kaempferia parviflora|Kunzea ambigua|Lespedeza capitata|Litsea pedunculata|Manilkara bidentata|Medicago sativa|Melia dubia|Mentha cablin|Myrica pensylvanica|Nidorella resedifolia|Ostrya carpinifolia|Panax vietnamensis|Persicaria amphibia|Persicaria ferruginea|Persicaria senegalensis|Persicaria spectabilis|Petromyzon marinus|Phonus arborescens|Pinus excelsa|Pinus wallichiana|Piper cubeba|Piper dilatatum|Piper majusculum|Piper methysticum|Piper rusbyi|Piper sp.|Pityrogramma triangularis|Polygonum Lapathifolium|Polygonum ferrugineum|Polygonum lapathifolium|Pteris cretica var. nervosa|Renealmia nicolaioides|Salvia broussoneti|Scutellaria cordifrons|Smilax aspera|Stachys anisochila|Stephania dielsiana|Tabernaemontana amygdalifolia|Trichosanthes dioica|Uvaria angolensis|Uvaria mocali|Uvaria mocoli|Xanthorrhoea australis|Xanthorrhoea preissii|Xanthorrhoea resinosa

>  <collections>  (582) 
AfroMalariaDB|Australian natural products|CMAUP (cCollective molecular activities of useful plants)|ChEBI NPs|FooDB|KNApSaCK|Latin America dataset|Mitishamba database|NCI DTP data|NPASS|NPEdia|NuBBEDB|PhytoLab phyproof® Reference Substances|PubChem NPs|Super Natural II|TIPdb (database of Taiwan indigenous plants)|VietHerb|WikiData Natural Products

>  <dois>  (582) 
10.1002/BIO.1209|10.1002/IJC.25210|10.1016/0031-9422(81)83082-8|10.1016/0305-1978(78)90024-8|10.1016/J.BMCL.2011.10.003|10.1016/J.JEP.2011.09.038|10.1016/J.PHYMED.2010.03.004|10.1016/J.PHYTOCHEM.2006.06.018|10.1016/J.PHYTOCHEM.2008.09.001|10.1016/S0031-9422(01)00443-5|10.1016/S0031-9422(02)00675-1|10.1016/S0031-9422(98)00197-6|10.1016/S0031-9422(98)80009-5|10.1021/JF010963X|10.1021/JF900517D|10.1021/NP020249P|10.1021/NP50021A016|10.1021/acs.jafc.6b03883|10.1055/S-2006-957608|10.1055/S-2006-957857|10.1055/S-2007-967123|10.1071/CH9740331|10.1071/ch9740331|10.1076/PHBI.41.1.7.14703|10.1158/0008-5472.CAN-04-3803|10.3390/MOLECULES16010583|10.3998/ARK.5550190.0008.904

>  <synonyms>  (582) 
2'-Hydroxy 4',6'-dimethoxychalcone|Flavokavain B|Flavokavin B|Persicochalcone

>  <cas>  (582) 
1775-97-9

$$$$

     RDKit          2D

 31 35  0  0  0  0  0  0  0  0999 V2000
   -4.9653    4.1509    0.0000 C   0  0  0  0  0  0  0  0  0  0  0  0
   -4.6420    2.6862    0.0000 C   0  0  0  0  0  0  0  0  0  0  0  0
   -3.2119    2.2338    0.0000 C   0  0  0  0  0  0  0  0  0  0  0  0
   -5.7489    1.6739    0.0000 C   0  0  0  0  0  0  0  0  0  0  0  0
   -7.1790    2.1263    0.0000 C   0  0  0  0  0  0  0  0  0  0  0  0
   -5.4256    0.2091    0.0000 C   0  0  0  0  0  0  0  0  0  0  0  0
   -3.9955   -0.2433    0.0000 C   0  0  0  0  0  0  0  0  0  0  0  0
   -3.6722   -1.7081    0.0000 C   0  0  0  0  0  0  0  0  0  0  0  0
   -4.7791   -2.7204    0.0000 C   0  0  0  0  0  0  0  0  0  0  0  0
   -2.2420   -2.1605    0.0000 C   0  0  0  0  0  0  0  0  0  0  0  0
   -1.7674   -3.5834    0.0000 C   0  0  0  0  0  0  0  0  0  0  0  0
   -0.2675   -3.5717    0.0000 C   0  0  0  0  0  0  0  0  0  0  0  0
    0.1849   -2.1416    0.0000 C   0  0  0  0  0  0  0  0  0  0  0  0
    1.5505   -1.5208    0.0000 C   0  0  0  0  0  0  0  0  0  0  0  0
    2.7708   -2.3930    0.0000 C   0  0  0  0  0  0  0  0  0  0  0  0
    4.1363   -1.7723    0.0000 C   0  0  0  0  0  0  0  0  0  0  0  0
    4.2815   -0.2793    0.0000 C   0  0  0  0  0  0  0  0  0  0  0  0
    5.6470    0.3414    0.0000 C   0  0  0  0  0  0  0  0  0  0  0  0
    5.7922    1.8344    0.0000 C   0  0  0  0  0  0  0  0  0  0  0  0
    7.1578    2.4551    0.0000 O   0  0  0  0  0  0  0  0  0  0  0  0
    4.5719    2.7066    0.0000 C   0  0  0  0  0  0  0  0  0  0  0  0
    3.2063    2.0858    0.0000 C   0  0  0  0  0  0  0  0  0  0  0  0
    3.0612    0.5929    0.0000 C   0  0  0  0  0  0  0  0  0  0  0  0
    1.8408    1.4651    0.0000 C   0  0  0  0  0  0  0  0  0  0  0  0
    1.6956   -0.0279    0.0000 C   0  0  0  0  0  0  0  0  0  0  0  0
    0.4753    0.8443    0.0000 C   0  0  0  0  0  0  0  0  0  0  0  0
   -0.8902    0.2236    0.0000 C   0  0  0  0  0  0  0  0  0  0  0  0
   -1.0354   -1.2694    0.0000 C   0  0  0  0  0  0  0  0  0  0  0  0
   -2.3403   -0.5295    0.0000 C   0  0  0  0  0  0  0  0  0  0  0  0
    3.5125   -0.5735    0.0000 O   0  0  0  0  0  0  0  0  0  0  0  0
    2.2777   -1.1348    0.0000 O   0  0  0  0  0  0  0  0  0  0  0  0
  1  2  1  0
  2  3  1  0
  2  4  1  0
  4  5  1  6
  4  6  1  0
  6  7  2  0
  7  8  1  0
  8  9  1  6
  8 10  1  0
 10 11  1  6
 11 12  1  0
 12 13  1  0
 13 14  1  0
 14 15  1  0
 15 16  2  0
 16 17  1  0
 17 18  1  0
 18 19  1  0
 19 20  1  6
 19 21  1  0
 21 22  1  0
 22 23  1  0
 23 24  1  6
 23 25  1  0
 25 26  1  0
 26 27  1  0
 27 28  1  0
 28 29  1  6
 17 30  1  0
 30 31  1  0
 28 10  1  0
 28 13  1  0
 25 14  1  0
 31 14  1  0
 23 17  1  0
M  END
>  <identifier>  (583) 
CNP0249383.8

>  <canonical_smiles>  (583) 
CC(C)[C@@H](C)/C=C/[C@@H](C)[C@H]1CCC2C34C=CC5(C[C@@H](O)CC[C@]5(C)C3CC[C@@]21C)OO4

>  <standard_inchi>  (583) 
InChI=1S/C28H44O3/c1-18(2)19(3)7-8-20(4)22-9-10-23-25(22,5)13-12-24-26(6)14-11-21(29)17-27(26)15-16-28(23,24)31-30-27/h7-8,15-16,18-24,29H,9-14,17H2,1-6H3/b8-7+/t19-,20+,21-,22+,23?,24?,25+,26+,27?,28?/m0/s1

>  <standard_inchi_key>  (583) 
VXOZCESVZIRHCJ-ZFNUKUENSA-N

>  <name>  (583) 
nan

>  <iupac_name>  (583) 
(5~{R},6~{R},10~{R},13~{S})-6,10-dimethyl-5-[(~{E},1~{R},4~{R})-1,4,5-trimethylhex-2-enyl]-16,17-dioxapentacyclo[13.2.2.0^{1,9}.0^{2,6}.0^{10,15}]nonadec-18-en-13-ol

>  <annotation_level>  (583) 
4

>  <total_atom_count>  (583) 
75

>  <heavy_atom_count>  (583) 
31

>  <molecular_weight>  (583) 
428.66

>  <exact_molecular_weight>  (583) 
428.32905

>  <molecular_formula>  (583) 
C28H44O3

>  <alogp>  (583) 
6.47

>  <topological_polar_surface_area>  (583) 
38.69

>  <rotatable_bond_count>  (583) 
4

>  <hydrogen_bond_acceptors>  (583) 
3

>  <hydrogen_bond_donors>  (583) 
1

>  <hydrogen_bond_acceptors_lipinski>  (583) 
3

>  <hydrogen_bond_donors_lipinski>  (583) 
1

>  <lipinski_rule_of_five_violations>  (583) 
1

>  <aromatic_rings_count>  (583) 
0

>  <qed_drug_likeliness>  (583) 
0.41

>  <formal_charge>  (583) 
0

>  <fractioncsp3>  (583) 
0.86

>  <number_of_minimal_rings>  (583) 
6

>  <van_der_walls_volume>  (583) 
nan

>  <contains_sugar>  (583) 
False

>  <contains_ring_sugars>  (583) 
False

>  <contains_linear_sugars>  (583) 
False

>  <murcko_framework>  (583) 
O1OC23C=CC14CCCCC4C3CCC5CCCC52

>  <np_likeness>  (583) 
3.36

>  <chemical_class>  (583) 
Steroids and steroid derivatives

>  <chemical_sub_class>  (583) 
Ergostane steroids

>  <chemical_super_class>  (583) 
Lipids and lipid-like molecules

>  <direct_parent_classification>  (583) 
Ergostane steroids

>  <np_classifier_pathway>  (583) 
Terpenoids

>  <np_classifier_superclass>  (583) 
Steroids

>  <np_classifier_class>  (583) 
Cholestane steroids

>  <np_classifier_is_glycoside>  (583) 
False

>  <organisms>  (583) 
Nigrospora sphaerica

>  <collections>  (583) 
EMNPD|Latin America dataset|NuBBEDB

>  <dois>  (583) 
10.1002/jobm.200800093

>  <synonyms>  (583) 
Ergosterol peroxide

>  <cas>  (583) 
nan

$$$$

     RDKit          2D

 19 21  0  0  0  0  0  0  0  0999 V2000
   -2.8558    2.3819    0.0000 C   0  0  0  0  0  0  0  0  0  0  0  0
   -1.6526    1.4861    0.0000 N   0  0  0  0  0  0  0  0  0  0  0  0
   -0.2753    2.0802    0.0000 C   0  0  0  0  0  0  0  0  0  0  0  0
   -0.1011    3.5701    0.0000 O   0  0  0  0  0  0  0  0  0  0  0  0
    0.9279    1.1844    0.0000 C   0  0  0  0  0  0  0  0  0  0  0  0
    0.7537   -0.3054    0.0000 C   0  0  0  0  0  0  0  0  0  0  0  0
    1.9569   -1.2012    0.0000 O   0  0  0  0  0  0  0  0  0  0  0  0
    3.3342   -0.6071    0.0000 C   0  0  0  0  0  0  0  0  0  0  0  0
    4.8317   -0.5199    0.0000 C   0  0  0  0  0  0  0  0  0  0  0  0
    3.6801   -2.0667    0.0000 C   0  0  0  0  0  0  0  0  0  0  0  0
    3.5084    0.8827    0.0000 C   0  0  0  0  0  0  0  0  0  0  0  0
    2.3052    1.7785    0.0000 C   0  0  0  0  0  0  0  0  0  0  0  0
   -0.6236   -0.8995    0.0000 C   0  0  0  0  0  0  0  0  0  0  0  0
   -0.7978   -2.3894    0.0000 C   0  0  0  0  0  0  0  0  0  0  0  0
   -2.1752   -2.9834    0.0000 C   0  0  0  0  0  0  0  0  0  0  0  0
   -3.3783   -2.0877    0.0000 C   0  0  0  0  0  0  0  0  0  0  0  0
   -3.2041   -0.5978    0.0000 C   0  0  0  0  0  0  0  0  0  0  0  0
   -4.4073    0.2980    0.0000 O   0  0  0  0  0  0  0  0  0  0  0  0
   -1.8268   -0.0037    0.0000 C   0  0  0  0  0  0  0  0  0  0  0  0
  1  2  1  0
  2  3  1  0
  3  4  2  0
  3  5  1  0
  5  6  2  0
  6  7  1  0
  7  8  1  0
  8  9  1  0
  8 10  1  0
  8 11  1  0
 11 12  2  0
  6 13  1  0
 13 14  2  0
 14 15  1  0
 15 16  2  0
 16 17  1  0
 17 18  1  0
 17 19  2  0
 19  2  1  0
 12  5  1  0
 19 13  1  0
M  END
>  <identifier>  (584) 
CNP0127957.0

>  <canonical_smiles>  (584) 
CN1C(=O)C2=C(OC(C)(C)C=C2)C2=CC=CC(O)=C21

>  <standard_inchi>  (584) 
InChI=1S/C15H15NO3/c1-15(2)8-7-10-13(19-15)9-5-4-6-11(17)12(9)16(3)14(10)18/h4-8,17H,1-3H3

>  <standard_inchi_key>  (584) 
YYBMBBAPYWDAJX-UHFFFAOYSA-N

>  <name>  (584) 
nan

>  <iupac_name>  (584) 
7-hydroxy-2,2,6-trimethyl-pyrano[3,2-c]quinolin-5-one

>  <annotation_level>  (584) 
4

>  <total_atom_count>  (584) 
34

>  <heavy_atom_count>  (584) 
19

>  <molecular_weight>  (584) 
257.29

>  <exact_molecular_weight>  (584) 
257.10519

>  <molecular_formula>  (584) 
C15H15NO3

>  <alogp>  (584) 
2.43

>  <topological_polar_surface_area>  (584) 
51.46

>  <rotatable_bond_count>  (584) 
0

>  <hydrogen_bond_acceptors>  (584) 
4

>  <hydrogen_bond_donors>  (584) 
1

>  <hydrogen_bond_acceptors_lipinski>  (584) 
4

>  <hydrogen_bond_donors_lipinski>  (584) 
1

>  <lipinski_rule_of_five_violations>  (584) 
0

>  <aromatic_rings_count>  (584) 
2

>  <qed_drug_likeliness>  (584) 
0.79

>  <formal_charge>  (584) 
0

>  <fractioncsp3>  (584) 
0.27

>  <number_of_minimal_rings>  (584) 
3

>  <van_der_walls_volume>  (584) 
nan

>  <contains_sugar>  (584) 
False

>  <contains_ring_sugars>  (584) 
False

>  <contains_linear_sugars>  (584) 
False

>  <murcko_framework>  (584) 
O1C=2c3ccccc3NCC2C=CC1

>  <np_likeness>  (584) 
2.30

>  <chemical_class>  (584) 
Quinolines and derivatives

>  <chemical_sub_class>  (584) 
Quinolones and derivatives

>  <chemical_super_class>  (584) 
Organoheterocyclic compounds

>  <direct_parent_classification>  (584) 
Pyranoquinolines

>  <np_classifier_pathway>  (584) 
Alkaloids

>  <np_classifier_superclass>  (584) 
Tryptophan alkaloids

>  <np_classifier_class>  (584) 
Quinoline alkaloids

>  <np_classifier_is_glycoside>  (584) 
False

>  <organisms>  (584) 
Rauia resinosa

>  <collections>  (584) 
Latin America dataset|NuBBEDB|WikiData Natural Products|ZINC NP

>  <dois>  (584) 
10.1590/S0100-40422010001000024

>  <synonyms>  (584) 
8-hydroxy-N-methylflindersine

>  <cas>  (584) 
nan

$$$$

     RDKit          2D

 26 28  0  0  0  0  0  0  0  0999 V2000
    3.0013   -3.6128    0.0000 C   0  0  0  0  0  0  0  0  0  0  0  0
    3.0530   -2.1137    0.0000 C   0  0  0  0  0  0  0  0  0  0  0  0
    1.7806   -1.3194    0.0000 C   0  0  0  0  0  0  0  0  0  0  0  0
    1.8322    0.1797    0.0000 C   0  0  0  0  0  0  0  0  0  0  0  0
    3.1807   -0.4772    0.0000 C   0  0  0  0  0  0  0  0  0  0  0  0
    4.4239    0.3621    0.0000 C   0  0  0  0  0  0  0  0  0  0  0  0
    5.7724   -0.2948    0.0000 O   0  0  0  0  0  0  0  0  0  0  0  0
    5.8777   -1.7911    0.0000 C   0  0  0  0  0  0  0  0  0  0  0  0
    4.3186    1.8584    0.0000 C   0  0  0  0  0  0  0  0  0  0  0  0
    5.5618    2.6977    0.0000 O   0  0  0  0  0  0  0  0  0  0  0  0
    2.9701    2.5154    0.0000 C   0  0  0  0  0  0  0  0  0  0  0  0
    1.7269    1.6760    0.0000 C   0  0  0  0  0  0  0  0  0  0  0  0
    0.2713    2.0382    0.0000 O   0  0  0  0  0  0  0  0  0  0  0  0
   -0.5230    0.7658    0.0000 C   0  0  0  0  0  0  0  0  0  0  0  0
   -2.0193    0.6605    0.0000 C   0  0  0  0  0  0  0  0  0  0  0  0
   -2.8586    1.9037    0.0000 C   0  0  0  0  0  0  0  0  0  0  0  0
   -4.3549    1.7984    0.0000 C   0  0  0  0  0  0  0  0  0  0  0  0
   -5.0119    0.4499    0.0000 C   0  0  0  0  0  0  0  0  0  0  0  0
   -6.5082    0.3446    0.0000 O   0  0  0  0  0  0  0  0  0  0  0  0
   -7.3475    1.5878    0.0000 C   0  0  0  0  0  0  0  0  0  0  0  0
   -4.1725   -0.7933    0.0000 C   0  0  0  0  0  0  0  0  0  0  0  0
   -4.8295   -2.1418    0.0000 O   0  0  0  0  0  0  0  0  0  0  0  0
   -3.9901   -3.3849    0.0000 C   0  0  0  0  0  0  0  0  0  0  0  0
   -2.6762   -0.6880    0.0000 C   0  0  0  0  0  0  0  0  0  0  0  0
    0.4417   -0.3828    0.0000 C   0  0  0  0  0  0  0  0  0  0  0  0
    0.0795   -1.8384    0.0000 C   0  0  0  0  0  0  0  0  0  0  0  0
  1  2  2  0
  2  3  1  0
  4  3  1  6
  4  5  1  0
  5  6  2  0
  6  7  1  0
  7  8  1  0
  6  9  1  0
  9 10  2  0
  9 11  1  0
 11 12  2  0
 12 13  1  0
 13 14  1  0
 14 15  1  1
 15 16  2  0
 16 17  1  0
 17 18  2  0
 18 19  1  0
 19 20  1  0
 18 21  1  0
 21 22  1  0
 22 23  1  0
 21 24  2  0
 14 25  1  0
 25 26  1  6
 12  4  1  0
 24 15  1  0
 25  4  1  0
M  END
>  <identifier>  (585) 
CNP0162645.1

>  <canonical_smiles>  (585) 
C=CC[C@@]12C=C(OC)C(=O)C=C1O[C@H](C1=CC=C(OC)C(OC)=C1)[C@H]2C

>  <standard_inchi>  (585) 
InChI=1S/C21H24O5/c1-6-9-21-12-18(25-5)15(22)11-19(21)26-20(13(21)2)14-7-8-16(23-3)17(10-14)24-4/h6-8,10-13,20H,1,9H2,2-5H3/t13-,20+,21+/m1/s1

>  <standard_inchi_key>  (585) 
CMTIOXAVRNUFAG-UBWHGVKJSA-N

>  <name>  (585) 
nan

>  <iupac_name>  (585) 
(2~{S},3~{S},3~{a}~{R})-3~{a}-allyl-2-(3,4-dimethoxyphenyl)-5-methoxy-3-methyl-2,3-dihydrobenzofuran-6-one

>  <annotation_level>  (585) 
3

>  <total_atom_count>  (585) 
50

>  <heavy_atom_count>  (585) 
26

>  <molecular_weight>  (585) 
356.42

>  <exact_molecular_weight>  (585) 
356.16237

>  <molecular_formula>  (585) 
C21H24O5

>  <alogp>  (585) 
3.97

>  <topological_polar_surface_area>  (585) 
53.99

>  <rotatable_bond_count>  (585) 
6

>  <hydrogen_bond_acceptors>  (585) 
5

>  <hydrogen_bond_donors>  (585) 
0

>  <hydrogen_bond_acceptors_lipinski>  (585) 
5

>  <hydrogen_bond_donors_lipinski>  (585) 
0

>  <lipinski_rule_of_five_violations>  (585) 
0

>  <aromatic_rings_count>  (585) 
1

>  <qed_drug_likeliness>  (585) 
0.72

>  <formal_charge>  (585) 
0

>  <fractioncsp3>  (585) 
0.38

>  <number_of_minimal_rings>  (585) 
3

>  <van_der_walls_volume>  (585) 
nan

>  <contains_sugar>  (585) 
False

>  <contains_ring_sugars>  (585) 
False

>  <contains_linear_sugars>  (585) 
False

>  <murcko_framework>  (585) 
O1C2=CCC=CC2CC1c3ccccc3

>  <np_likeness>  (585) 
2.13

>  <chemical_class>  (585) 
2-arylbenzofuran flavonoids

>  <chemical_sub_class>  (585) 
2-arylbenzofuran flavonoids

>  <chemical_super_class>  (585) 
Phenylpropanoids and polyketides

>  <direct_parent_classification>  (585) 
2-arylbenzofuran flavonoids

>  <np_classifier_pathway>  (585) 
Shikimates and Phenylpropanoids

>  <np_classifier_superclass>  (585) 
Lignans

>  <np_classifier_class>  (585) 
Neolignans

>  <np_classifier_is_glycoside>  (585) 
False

>  <organisms>  (585) 
Nectandra|Nectandra sp.

>  <collections>  (585) 
Latin America dataset|NuBBEDB|Super Natural II|WikiData Natural Products

>  <dois>  (585) 
10.1016/0031-9422(80)87033-6

>  <synonyms>  (585) 
nan

>  <cas>  (585) 
nan

$$$$

     RDKit          2D

 31 34  0  0  0  0  0  0  0  0999 V2000
   -8.9794   -2.6009    0.0000 C   0  0  0  0  0  0  0  0  0  0  0  0
   -7.9099   -1.5491    0.0000 C   0  0  0  0  0  0  0  0  0  0  0  0
   -8.2861   -0.0971    0.0000 O   0  0  0  0  0  0  0  0  0  0  0  0
   -6.4643   -1.9494    0.0000 O   0  0  0  0  0  0  0  0  0  0  0  0
   -5.3949   -0.8976    0.0000 C   0  0  0  0  0  0  0  0  0  0  0  0
   -5.7710    0.5544    0.0000 C   0  0  0  0  0  0  0  0  0  0  0  0
   -4.7015    1.6062    0.0000 C   0  0  0  0  0  0  0  0  0  0  0  0
   -3.2559    1.2059    0.0000 C   0  0  0  0  0  0  0  0  0  0  0  0
   -2.1865    2.2577    0.0000 C   0  0  0  0  0  0  0  0  0  0  0  0
   -2.5626    3.7098    0.0000 O   0  0  0  0  0  0  0  0  0  0  0  0
   -0.7409    1.8574    0.0000 C   0  0  0  0  0  0  0  0  0  0  0  0
    0.3286    2.9092    0.0000 O   0  0  0  0  0  0  0  0  0  0  0  0
    1.7742    2.5089    0.0000 C   0  0  0  0  0  0  0  0  0  0  0  0
    2.1503    1.0569    0.0000 C   0  0  0  0  0  0  0  0  0  0  0  0
    3.5959    0.6566    0.0000 C   0  0  0  0  0  0  0  0  0  0  0  0
    4.6654    1.7084    0.0000 O   0  0  0  0  0  0  0  0  0  0  0  0
    6.1110    1.3081    0.0000 C   0  0  0  0  0  0  0  0  0  0  0  0
    7.1805    2.3599    0.0000 C   0  0  0  0  0  0  0  0  0  0  0  0
    6.4871   -0.1440    0.0000 O   0  0  0  0  0  0  0  0  0  0  0  0
    3.9721   -0.7955    0.0000 C   0  0  0  0  0  0  0  0  0  0  0  0
    5.4177   -1.1958    0.0000 O   0  0  0  0  0  0  0  0  0  0  0  0
    5.7938   -2.6479    0.0000 C   0  0  0  0  0  0  0  0  0  0  0  0
    7.2394   -3.0481    0.0000 C   0  0  0  0  0  0  0  0  0  0  0  0
    4.7244   -3.6996    0.0000 O   0  0  0  0  0  0  0  0  0  0  0  0
    2.9026   -1.8473    0.0000 C   0  0  0  0  0  0  0  0  0  0  0  0
    1.4570   -1.4470    0.0000 C   0  0  0  0  0  0  0  0  0  0  0  0
    1.0809    0.0051    0.0000 C   0  0  0  0  0  0  0  0  0  0  0  0
   -0.3647    0.4054    0.0000 C   0  0  0  0  0  0  0  0  0  0  0  0
   -1.4342   -0.6464    0.0000 O   0  0  0  0  0  0  0  0  0  0  0  0
   -2.8798   -0.2461    0.0000 C   0  0  0  0  0  0  0  0  0  0  0  0
   -3.9493   -1.2979    0.0000 C   0  0  0  0  0  0  0  0  0  0  0  0
  1  2  1  0
  2  3  2  0
  2  4  1  0
  4  5  1  0
  5  6  2  0
  6  7  1  0
  7  8  2  0
  8  9  1  0
  9 10  2  0
  9 11  1  0
 11 12  1  6
 12 13  1  0
 13 14  1  0
 14 15  2  0
 15 16  1  0
 16 17  1  0
 17 18  1  0
 17 19  2  0
 15 20  1  0
 20 21  1  0
 21 22  1  0
 22 23  1  0
 22 24  2  0
 20 25  2  0
 25 26  1  0
 26 27  2  0
 27 28  1  0
 28 29  1  1
 29 30  1  0
 30 31  2  0
 31  5  1  0
 30  8  1  0
 28 11  1  0
 27 14  1  0
M  END
>  <identifier>  (586) 
CNP0080514.1

>  <canonical_smiles>  (586) 
CC(=O)OC1=CC=C2C(=O)[C@@H]3OCC4=C(OC(C)=O)C(OC(C)=O)=CC=C4[C@H]3OC2=C1

>  <standard_inchi>  (586) 
InChI=1S/C22H18O9/c1-10(23)28-13-4-5-15-18(8-13)31-21-14-6-7-17(29-11(2)24)20(30-12(3)25)16(14)9-27-22(21)19(15)26/h4-8,21-22H,9H2,1-3H3/t21-,22+/m1/s1

>  <standard_inchi_key>  (586) 
KEBCRIMCWHJEPU-YADHBBJMSA-N

>  <name>  (586) 
nan

>  <iupac_name>  (586) 
[(6~{a}~{R},12~{a}~{R})-3,4-diacetoxy-7-oxo-6~{a},12~{a}-dihydro-5~{H}-isochromeno[4,3-b]chromen-10-yl] acetate

>  <annotation_level>  (586) 
3

>  <total_atom_count>  (586) 
49

>  <heavy_atom_count>  (586) 
31

>  <molecular_weight>  (586) 
426.38

>  <exact_molecular_weight>  (586) 
426.09508

>  <molecular_formula>  (586) 
C22H18O9

>  <alogp>  (586) 
2.68

>  <topological_polar_surface_area>  (586) 
114.43

>  <rotatable_bond_count>  (586) 
3

>  <hydrogen_bond_acceptors>  (586) 
9

>  <hydrogen_bond_donors>  (586) 
0

>  <hydrogen_bond_acceptors_lipinski>  (586) 
9

>  <hydrogen_bond_donors_lipinski>  (586) 
0

>  <lipinski_rule_of_five_violations>  (586) 
0

>  <aromatic_rings_count>  (586) 
2

>  <qed_drug_likeliness>  (586) 
0.54

>  <formal_charge>  (586) 
0

>  <fractioncsp3>  (586) 
0.27

>  <number_of_minimal_rings>  (586) 
4

>  <van_der_walls_volume>  (586) 
nan

>  <contains_sugar>  (586) 
False

>  <contains_ring_sugars>  (586) 
False

>  <contains_linear_sugars>  (586) 
False

>  <murcko_framework>  (586) 
O1c2ccccc2CC3OCc4ccccc4C13

>  <np_likeness>  (586) 
1.23

>  <chemical_class>  (586) 
Flavonoids

>  <chemical_sub_class>  (586) 
Pyranoflavonoids

>  <chemical_super_class>  (586) 
Phenylpropanoids and polyketides

>  <direct_parent_classification>  (586) 
Pyranoflavonoids

>  <np_classifier_pathway>  (586) 
Shikimates and Phenylpropanoids

>  <np_classifier_superclass>  (586) 
Flavonoids

>  <np_classifier_class>  (586) 
Flavanones

>  <np_classifier_is_glycoside>  (586) 
False

>  <organisms>  (586) 
Goniorrhachis marginata

>  <collections>  (586) 
Latin America dataset|NuBBEDB|WikiData Natural Products

>  <dois>  (586) 
10.1016/0031-9422(74)80106-8

>  <synonyms>  (586) 
nan

>  <cas>  (586) 
nan

$$$$

     RDKit          2D

 22 24  0  0  0  0  0  0  0  0999 V2000
    3.7356   -3.3524    0.0000 C   0  0  0  0  0  0  0  0  0  0  0  0
    3.2311   -1.9398    0.0000 O   0  0  0  0  0  0  0  0  0  0  0  0
    1.7555   -1.6703    0.0000 C   0  0  0  0  0  0  0  0  0  0  0  0
    0.7844   -2.8135    0.0000 C   0  0  0  0  0  0  0  0  0  0  0  0
   -0.6912   -2.5440    0.0000 C   0  0  0  0  0  0  0  0  0  0  0  0
   -1.1957   -1.1314    0.0000 C   0  0  0  0  0  0  0  0  0  0  0  0
   -2.6713   -0.8619    0.0000 C   0  0  0  0  0  0  0  0  0  0  0  0
   -3.6424   -2.0051    0.0000 O   0  0  0  0  0  0  0  0  0  0  0  0
   -5.1180   -1.7356    0.0000 C   0  0  0  0  0  0  0  0  0  0  0  0
   -3.1757    0.5507    0.0000 C   0  0  0  0  0  0  0  0  0  0  0  0
   -4.5630    1.1211    0.0000 C   0  0  0  0  0  0  0  0  0  0  0  0
   -4.4493    2.6168    0.0000 C   0  0  0  0  0  0  0  0  0  0  0  0
   -2.9916    2.9708    0.0000 O   0  0  0  0  0  0  0  0  0  0  0  0
   -2.2045    1.6939    0.0000 C   0  0  0  0  0  0  0  0  0  0  0  0
   -0.7289    1.4244    0.0000 N   0  0  0  0  0  0  0  0  0  0  0  0
   -0.2245    0.0118    0.0000 C   0  0  0  0  0  0  0  0  0  0  0  0
    1.2511   -0.2577    0.0000 C   0  0  0  0  0  0  0  0  0  0  0  0
    2.2223    0.8855    0.0000 C   0  0  0  0  0  0  0  0  0  0  0  0
    3.6979    0.6160    0.0000 C   0  0  0  0  0  0  0  0  0  0  0  0
    4.6690    1.7592    0.0000 C   0  0  0  0  0  0  0  0  0  0  0  0
    6.1446    1.4897    0.0000 C   0  0  0  0  0  0  0  0  0  0  0  0
    4.1646    3.1718    0.0000 C   0  0  0  0  0  0  0  0  0  0  0  0
  1  2  1  0
  2  3  1  0
  3  4  2  0
  4  5  1  0
  5  6  2  0
  6  7  1  0
  7  8  1  0
  8  9  1  0
  7 10  2  0
 10 11  1  0
 11 12  2  0
 12 13  1  0
 13 14  1  0
 14 15  2  0
 15 16  1  0
 16 17  2  0
 17 18  1  0
 18 19  1  0
 19 20  2  0
 20 21  1  0
 20 22  1  0
 17  3  1  0
 16  6  1  0
 14 10  1  0
M  END
>  <identifier>  (587) 
CNP0080591.0

>  <canonical_smiles>  (587) 
COC1=CC=C2C(OC)=C3C=COC3=NC2=C1CC=C(C)C

>  <standard_inchi>  (587) 
InChI=1S/C18H19NO3/c1-11(2)5-6-12-15(20-3)8-7-13-16(12)19-18-14(9-10-22-18)17(13)21-4/h5,7-10H,6H2,1-4H3

>  <standard_inchi_key>  (587) 
AKRYHRBWHIDIRA-UHFFFAOYSA-N

>  <name>  (587) 
nan

>  <iupac_name>  (587) 
4,7-dimethoxy-8-(3-methylbut-2-enyl)furo[2,3-b]quinoline

>  <annotation_level>  (587) 
4

>  <total_atom_count>  (587) 
41

>  <heavy_atom_count>  (587) 
22

>  <molecular_weight>  (587) 
297.35

>  <exact_molecular_weight>  (587) 
297.13649

>  <molecular_formula>  (587) 
C18H19NO3

>  <alogp>  (587) 
4.51

>  <topological_polar_surface_area>  (587) 
44.49

>  <rotatable_bond_count>  (587) 
4

>  <hydrogen_bond_acceptors>  (587) 
4

>  <hydrogen_bond_donors>  (587) 
0

>  <hydrogen_bond_acceptors_lipinski>  (587) 
4

>  <hydrogen_bond_donors_lipinski>  (587) 
0

>  <lipinski_rule_of_five_violations>  (587) 
0

>  <aromatic_rings_count>  (587) 
3

>  <qed_drug_likeliness>  (587) 
0.66

>  <formal_charge>  (587) 
0

>  <fractioncsp3>  (587) 
0.28

>  <number_of_minimal_rings>  (587) 
3

>  <van_der_walls_volume>  (587) 
nan

>  <contains_sugar>  (587) 
False

>  <contains_ring_sugars>  (587) 
False

>  <contains_linear_sugars>  (587) 
False

>  <murcko_framework>  (587) 
n1c2occc2cc3ccccc13

>  <np_likeness>  (587) 
1.54

>  <chemical_class>  (587) 
Quinolines and derivatives

>  <chemical_sub_class>  (587) 
Furanoquinolines

>  <chemical_super_class>  (587) 
Organoheterocyclic compounds

>  <direct_parent_classification>  (587) 
Furanoquinolines

>  <np_classifier_pathway>  (587) 
Alkaloids

>  <np_classifier_superclass>  (587) 
Tryptophan alkaloids

>  <np_classifier_class>  (587) 
Quinoline alkaloids

>  <np_classifier_is_glycoside>  (587) 
False

>  <organisms>  (587) 
Almeidea coerulea|Conchocarpus coeruleus

>  <collections>  (587) 
Latin America dataset|NuBBEDB|WikiData Natural Products|ZINC NP

>  <dois>  (587) 
10.1590/S0103-50531998000100007

>  <synonyms>  (587) 
7-methoxy-8-(33-dimethylallyl)-dictamine

>  <cas>  (587) 
nan

$$$$

     RDKit          2D

 35 39  0  0  0  0  0  0  0  0999 V2000
   -6.3484   -3.1300    0.0000 C   0  0  0  0  0  0  0  0  0  0  0  0
   -5.5852   -1.8386    0.0000 C   0  0  0  0  0  0  0  0  0  0  0  0
   -6.3220   -0.5320    0.0000 C   0  0  0  0  0  0  0  0  0  0  0  0
   -5.5588    0.7593    0.0000 C   0  0  0  0  0  0  0  0  0  0  0  0
   -4.0589    0.7441    0.0000 C   0  0  0  0  0  0  0  0  0  0  0  0
   -4.7957    2.0507    0.0000 C   0  0  0  0  0  0  0  0  0  0  0  0
   -6.2956    2.0659    0.0000 O   0  0  0  0  0  0  0  0  0  0  0  0
   -4.0325    3.3420    0.0000 O   0  0  0  0  0  0  0  0  0  0  0  0
   -3.2958    2.0354    0.0000 C   0  0  0  0  0  0  0  0  0  0  0  0
   -1.7958    2.0202    0.0000 C   0  0  0  0  0  0  0  0  0  0  0  0
   -1.0591    0.7136    0.0000 C   0  0  0  0  0  0  0  0  0  0  0  0
   -0.3223   -0.5930    0.0000 C   0  0  0  0  0  0  0  0  0  0  0  0
   -1.8222   -0.5777    0.0000 C   0  0  0  0  0  0  0  0  0  0  0  0
   -1.0855   -1.8843    0.0000 C   0  0  0  0  0  0  0  0  0  0  0  0
    0.4145   -1.8996    0.0000 C   0  0  0  0  0  0  0  0  0  0  0  0
    1.1776   -0.6082    0.0000 C   0  0  0  0  0  0  0  0  0  0  0  0
    2.6775   -0.6235    0.0000 C   0  0  0  0  0  0  0  0  0  0  0  0
    1.9144   -1.9148    0.0000 C   0  0  0  0  0  0  0  0  0  0  0  0
    3.4143   -1.9300    0.0000 C   0  0  0  0  0  0  0  0  0  0  0  0
    4.9142   -1.9453    0.0000 C   0  0  0  0  0  0  0  0  0  0  0  0
    5.6510   -3.2519    0.0000 O   0  0  0  0  0  0  0  0  0  0  0  0
    5.6774   -0.6539    0.0000 C   0  0  0  0  0  0  0  0  0  0  0  0
    7.1773   -0.6692    0.0000 O   0  0  0  0  0  0  0  0  0  0  0  0
    4.9406    0.6527    0.0000 C   0  0  0  0  0  0  0  0  0  0  0  0
    4.6952    2.1324    0.0000 C   0  0  0  0  0  0  0  0  0  0  0  0
    6.3553    1.1513    0.0000 C   0  0  0  0  0  0  0  0  0  0  0  0
    6.6308    2.6258    0.0000 O   0  0  0  0  0  0  0  0  0  0  0  0
    3.4407    0.6679    0.0000 C   0  0  0  0  0  0  0  0  0  0  0  0
    2.7039    1.9745    0.0000 C   0  0  0  0  0  0  0  0  0  0  0  0
    1.2040    1.9897    0.0000 C   0  0  0  0  0  0  0  0  0  0  0  0
    0.4409    0.6984    0.0000 C   0  0  0  0  0  0  0  0  0  0  0  0
   -0.2959    2.0050    0.0000 C   0  0  0  0  0  0  0  0  0  0  0  0
   -3.3221   -0.5625    0.0000 C   0  0  0  0  0  0  0  0  0  0  0  0
   -4.0853   -1.8539    0.0000 C   0  0  0  0  0  0  0  0  0  0  0  0
   -3.3485   -3.1605    0.0000 C   0  0  0  0  0  0  0  0  0  0  0  0
  2  1  1  6
  2  3  1  0
  3  4  1  0
  4  5  1  0
  5  6  1  1
  6  7  2  0
  6  8  1  0
  5  9  1  0
  9 10  1  0
 10 11  1  0
 11 12  1  6
 11 13  1  0
 13 14  2  0
 14 15  1  0
 15 16  1  0
 16 17  1  0
 17 18  1  1
 17 19  1  0
 19 20  1  0
 20 21  1  6
 20 22  1  0
 22 23  1  1
 22 24  1  0
 24 25  1  1
 24 26  1  0
 26 27  1  0
 24 28  1  0
 28 29  1  0
 29 30  1  0
 30 31  1  0
 31 32  1  1
 13 33  1  0
 33 34  1  0
 34 35  1  1
 34  2  1  0
 33  5  1  0
 31 11  1  0
 31 16  1  0
 28 17  1  0
M  END
>  <identifier>  (588) 
CNP0380608.1

>  <canonical_smiles>  (588) 
C[C@@H]1CC[C@]2(C(=O)O)CC[C@]3(C)C(=CCC4[C@@]5(C)C[C@@H](O)[C@H](O)[C@@](C)(CO)C5CC[C@]43C)C2[C@H]1C

>  <standard_inchi>  (588) 
InChI=1S/C30H48O5/c1-17-9-12-30(25(34)35)14-13-28(5)19(23(30)18(17)2)7-8-22-26(3)15-20(32)24(33)27(4,16-31)21(26)10-11-29(22,28)6/h7,17-18,20-24,31-33H,8-16H2,1-6H3,(H,34,35)/t17-,18+,20-,21?,22?,23?,24+,26+,27+,28-,29-,30+/m1/s1

>  <standard_inchi_key>  (588) 
JXSVIVRDWWRQRT-BEELBYNOSA-N

>  <name>  (588) 
(1S,2R,4aS,6aS,6bR,9R,10R,11R,12aR)-10,11-dihydroxy-9-(hydroxymethyl)-1,2,6a,6b,9,12a-hexamethyl-2,3,4,5,6,6a,7,8,8a,10,11,12,13,14b-tetradecahydro-1H-picene-4a-carboxylic acid

>  <iupac_name>  (588) 
(1~{S},2~{R},4~{a}~{S},6~{a}~{S},6~{b}~{R},9~{R},10~{R},11~{R},12~{a}~{R})-10,11-dihydroxy-9-(hydroxymethyl)-1,2,6~{a},6~{b},9,12~{a}-hexamethyl-2,3,4,5,6,6~{a},7,8,8~{a},10,11,12,13,14~{b}-tetradecahydro-1~{H}-picene-4~{a}-carboxylic acid

>  <annotation_level>  (588) 
5

>  <total_atom_count>  (588) 
83

>  <heavy_atom_count>  (588) 
35

>  <molecular_weight>  (588) 
488.71

>  <exact_molecular_weight>  (588) 
488.35017

>  <molecular_formula>  (588) 
C30H48O5

>  <alogp>  (588) 
5.03

>  <topological_polar_surface_area>  (588) 
97.99

>  <rotatable_bond_count>  (588) 
2

>  <hydrogen_bond_acceptors>  (588) 
4

>  <hydrogen_bond_donors>  (588) 
4

>  <hydrogen_bond_acceptors_lipinski>  (588) 
4

>  <hydrogen_bond_donors_lipinski>  (588) 
4

>  <lipinski_rule_of_five_violations>  (588) 
1

>  <aromatic_rings_count>  (588) 
0

>  <qed_drug_likeliness>  (588) 
0.41

>  <formal_charge>  (588) 
0

>  <fractioncsp3>  (588) 
0.90

>  <number_of_minimal_rings>  (588) 
5

>  <van_der_walls_volume>  (588) 
474.73

>  <contains_sugar>  (588) 
False

>  <contains_ring_sugars>  (588) 
False

>  <contains_linear_sugars>  (588) 
False

>  <murcko_framework>  (588) 
C1=C2C3CCCCC3CCC2C4CCC5CCCCC5C4C1

>  <np_likeness>  (588) 
3.28

>  <chemical_class>  (588) 
Steroids and steroid derivatives

>  <chemical_sub_class>  (588) 
Hydroxysteroids

>  <chemical_super_class>  (588) 
Lipids and lipid-like molecules

>  <direct_parent_classification>  (588) 
Hydroxysteroids

>  <np_classifier_pathway>  (588) 
Terpenoids

>  <np_classifier_superclass>  (588) 
Triterpenoids

>  <np_classifier_class>  (588) 
Ursane and Taraxastane triterpenoids

>  <np_classifier_is_glycoside>  (588) 
False

>  <organisms>  (588) 
Quercus serrata|Siphoneugena densiflora

>  <collections>  (588) 
AnalytiCon Discovery NPs|GNPS (Global Natural Products Social Molecular Networking)|Latin America dataset|NuBBEDB|WikiData Natural Products

>  <dois>  (588) 
10.1016/J.JFF.2018.09.022|10.1590/S0103-50532006000200010

>  <synonyms>  (588) 
ACon1_001033|Asiatic acid|BRD-A75707173-001-01-6|CHEMBL278622|MEGxp0_001201|NCGC00161642-01|NCGC00161642-03_C30H48O5_Urs-12-en-28-oic acid, 2,3,23-trihydroxy-, (2alpha,3beta,5xi,9xi,18xi)-|SCHEMBL12181437|UPCMLD-DP086|UPCMLD-DP086:001

>  <cas>  (588) 
nan

$$$$

     RDKit          2D

 29 32  0  0  0  0  0  0  0  0999 V2000
   -1.6651    4.4774    0.0000 C   0  0  0  0  0  0  0  0  0  0  0  0
   -1.3669    3.0073    0.0000 O   0  0  0  0  0  0  0  0  0  0  0  0
   -2.4909    2.0140    0.0000 C   0  0  0  0  0  0  0  0  0  0  0  0
   -3.9131    2.4908    0.0000 O   0  0  0  0  0  0  0  0  0  0  0  0
   -2.1927    0.5440    0.0000 C   0  0  0  0  0  0  0  0  0  0  0  0
   -3.3167   -0.4493    0.0000 C   0  0  0  0  0  0  0  0  0  0  0  0
   -3.0185   -1.9194    0.0000 C   0  0  0  0  0  0  0  0  0  0  0  0
   -1.5963   -2.3962    0.0000 C   0  0  0  0  0  0  0  0  0  0  0  0
   -0.4723   -1.4029    0.0000 C   0  0  0  0  0  0  0  0  0  0  0  0
   -0.7705    0.0672    0.0000 C   0  0  0  0  0  0  0  0  0  0  0  0
    0.3535    1.0604    0.0000 C   0  0  0  0  0  0  0  0  0  0  0  0
    0.0553    2.5305    0.0000 O   0  0  0  0  0  0  0  0  0  0  0  0
    1.7757    0.5837    0.0000 C   0  0  0  0  0  0  0  0  0  0  0  0
    2.8998    1.5769    0.0000 O   0  0  0  0  0  0  0  0  0  0  0  0
    2.6016    3.0470    0.0000 C   0  0  0  0  0  0  0  0  0  0  0  0
    3.7256    4.0403    0.0000 C   0  0  0  0  0  0  0  0  0  0  0  0
    1.1794    3.5238    0.0000 O   0  0  0  0  0  0  0  0  0  0  0  0
    2.0739   -0.8864    0.0000 C   0  0  0  0  0  0  0  0  0  0  0  0
    3.4962   -1.3632    0.0000 C   0  0  0  0  0  0  0  0  0  0  0  0
    4.9957   -1.3248    0.0000 C   0  0  0  0  0  0  0  0  0  0  0  0
    3.7187    0.1202    0.0000 C   0  0  0  0  0  0  0  0  0  0  0  0
    3.7943   -2.8332    0.0000 C   0  0  0  0  0  0  0  0  0  0  0  0
    2.6703   -3.8265    0.0000 C   0  0  0  0  0  0  0  0  0  0  0  0
    1.2481   -3.3497    0.0000 C   0  0  0  0  0  0  0  0  0  0  0  0
    0.9499   -1.8797    0.0000 C   0  0  0  0  0  0  0  0  0  0  0  0
   -0.1741   -2.8730    0.0000 C   0  0  0  0  0  0  0  0  0  0  0  0
   -4.3245   -2.6573    0.0000 O   0  0  0  0  0  0  0  0  0  0  0  0
   -5.4298   -1.6432    0.0000 C   0  0  0  0  0  0  0  0  0  0  0  0
   -4.8070   -0.2786    0.0000 C   0  0  0  0  0  0  0  0  0  0  0  0
  1  2  1  0
  2  3  1  0
  3  4  2  0
  5  3  1  1
  5  6  1  0
  6  7  2  0
  7  8  1  0
  9  8  1  1
  9 10  1  0
 10 11  1  0
 11 12  1  1
 11 13  1  0
 13 14  1  6
 14 15  1  0
 15 16  1  0
 15 17  2  0
 13 18  1  0
 18 19  1  1
 19 20  1  0
 19 21  1  0
 19 22  1  0
 22 23  1  0
 23 24  1  0
 24 25  1  0
 25 26  1  1
  7 27  1  0
 27 28  1  0
 28 29  2  0
 10  5  1  6
 25 18  1  0
 29  6  1  0
 25  9  1  0
M  END
>  <identifier>  (589) 
CNP0233014.1

>  <canonical_smiles>  (589) 
COC(=O)[C@@H]1C2=C(C[C@H]3[C@H]1[C@@H](O)[C@H](OC(C)=O)[C@H]1C(C)(C)CCC[C@]31C)OC=C2

>  <standard_inchi>  (589) 
InChI=1S/C23H32O6/c1-12(24)29-19-18(25)17-14(23(4)9-6-8-22(2,3)20(19)23)11-15-13(7-10-28-15)16(17)21(26)27-5/h7,10,14,16-20,25H,6,8-9,11H2,1-5H3/t14-,16+,17+,18+,19-,20-,23+/m0/s1

>  <standard_inchi_key>  (589) 
AEDZUFBWBWIGNN-SECPUZEFSA-N

>  <name>  (589) 
methyl (4aS,5R,6R,6aR,7S,11aS,11bR)-5-acetyloxy-6-hydroxy-4,4,11b-trimethyl-1,2,3,4a,5,6,6a,7,11,11a-decahydronaphtho[2,1-f][1]benzofuran-7-carboxylate

>  <iupac_name>  (589) 
methyl (4~{a}~{S},5~{R},6~{R},6~{a}~{R},7~{S},11~{a}~{S},11~{b}~{R})-5-acetoxy-6-hydroxy-4,4,11~{b}-trimethyl-1,2,3,4~{a},5,6,6~{a},7,11,11~{a}-decahydronaphtho[2,1-f]benzofuran-7-carboxylate

>  <annotation_level>  (589) 
5

>  <total_atom_count>  (589) 
61

>  <heavy_atom_count>  (589) 
29

>  <molecular_weight>  (589) 
404.5

>  <exact_molecular_weight>  (589) 
404.21989

>  <molecular_formula>  (589) 
C23H32O6

>  <alogp>  (589) 
3.46

>  <topological_polar_surface_area>  (589) 
85.97

>  <rotatable_bond_count>  (589) 
2

>  <hydrogen_bond_acceptors>  (589) 
6

>  <hydrogen_bond_donors>  (589) 
1

>  <hydrogen_bond_acceptors_lipinski>  (589) 
6

>  <hydrogen_bond_donors_lipinski>  (589) 
1

>  <lipinski_rule_of_five_violations>  (589) 
0

>  <aromatic_rings_count>  (589) 
1

>  <qed_drug_likeliness>  (589) 
0.76

>  <formal_charge>  (589) 
0

>  <fractioncsp3>  (589) 
0.74

>  <number_of_minimal_rings>  (589) 
4

>  <van_der_walls_volume>  (589) 
nan

>  <contains_sugar>  (589) 
False

>  <contains_ring_sugars>  (589) 
False

>  <contains_linear_sugars>  (589) 
False

>  <murcko_framework>  (589) 
o1ccc2c1CC3C(C2)CCC4CCCCC43

>  <np_likeness>  (589) 
2.63

>  <chemical_class>  (589) 
Prenol lipids

>  <chemical_sub_class>  (589) 
Diterpenoids

>  <chemical_super_class>  (589) 
Lipids and lipid-like molecules

>  <direct_parent_classification>  (589) 
Diterpenoids

>  <np_classifier_pathway>  (589) 
Terpenoids

>  <np_classifier_superclass>  (589) 
Diterpenoids

>  <np_classifier_class>  (589) 
Cassane diterpenoids

>  <np_classifier_is_glycoside>  (589) 
False

>  <organisms>  (589) 
Bowdichia virgilioides|Pterodon apparicioi|Pterodon polygalaeflorus

>  <collections>  (589) 
Latin America dataset|NPASS|NuBBEDB|Super Natural II|WikiData Natural Products

>  <dois>  (589) 
10.1016/S0031-9422(00)89084-6|10.1021/acs.jnatprod.7b00249

>  <synonyms>  (589) 
CHEMBL4177079|Methyl 6\u221a\u00e9\u00ac\u00b1-acetoxy-7\u221a\u00e9\u00ac\u2264-hydroxyvouacapan-17\u221a\u00e9\u00ac\u2264-oate

>  <cas>  (589) 
nan

$$$$

     RDKit          2D

 36 37  0  0  0  0  0  0  0  0999 V2000
   -9.3070    1.9715    0.0000 C   0  0  0  0  0  0  0  0  0  0  0  0
   -8.4219    0.7605    0.0000 O   0  0  0  0  0  0  0  0  0  0  0  0
   -6.9306    0.9214    0.0000 C   0  0  0  0  0  0  0  0  0  0  0  0
   -6.3243    2.2935    0.0000 C   0  0  0  0  0  0  0  0  0  0  0  0
   -4.8330    2.4544    0.0000 C   0  0  0  0  0  0  0  0  0  0  0  0
   -3.9479    1.2434    0.0000 C   0  0  0  0  0  0  0  0  0  0  0  0
   -2.4566    1.4044    0.0000 C   0  0  0  0  0  0  0  0  0  0  0  0
   -1.5715    0.1933    0.0000 C   0  0  0  0  0  0  0  0  0  0  0  0
   -2.1777   -1.1787    0.0000 C   0  0  0  0  0  0  0  0  0  0  0  0
   -1.2927   -2.3898    0.0000 O   0  0  0  0  0  0  0  0  0  0  0  0
   -1.8989   -3.7618    0.0000 C   0  0  0  0  0  0  0  0  0  0  0  0
   -1.0139   -4.9728    0.0000 C   0  0  0  0  0  0  0  0  0  0  0  0
   -3.3903   -3.9228    0.0000 O   0  0  0  0  0  0  0  0  0  0  0  0
   -0.0802    0.3543    0.0000 C   0  0  0  0  0  0  0  0  0  0  0  0
    0.5261    1.7263    0.0000 C   0  0  0  0  0  0  0  0  0  0  0  0
    2.0174    1.8873    0.0000 O   0  0  0  0  0  0  0  0  0  0  0  0
    2.6237    3.2593    0.0000 C   0  0  0  0  0  0  0  0  0  0  0  0
    4.1150    3.4203    0.0000 C   0  0  0  0  0  0  0  0  0  0  0  0
    1.7386    4.4704    0.0000 O   0  0  0  0  0  0  0  0  0  0  0  0
    0.8049   -0.8568    0.0000 C   0  0  0  0  0  0  0  0  0  0  0  0
    2.2963   -0.6958    0.0000 C   0  0  0  0  0  0  0  0  0  0  0  0
    3.1813   -1.9068    0.0000 C   0  0  0  0  0  0  0  0  0  0  0  0
    4.6727   -1.7459    0.0000 C   0  0  0  0  0  0  0  0  0  0  0  0
    5.2789   -0.3738    0.0000 C   0  0  0  0  0  0  0  0  0  0  0  0
    6.7703   -0.2129    0.0000 O   0  0  0  0  0  0  0  0  0  0  0  0
    7.6554   -1.4239    0.0000 C   0  0  0  0  0  0  0  0  0  0  0  0
    9.1467   -1.2629    0.0000 C   0  0  0  0  0  0  0  0  0  0  0  0
    7.0491   -2.7959    0.0000 O   0  0  0  0  0  0  0  0  0  0  0  0
    4.3939    0.8372    0.0000 C   0  0  0  0  0  0  0  0  0  0  0  0
    5.0001    2.2092    0.0000 O   0  0  0  0  0  0  0  0  0  0  0  0
    6.4915    2.3702    0.0000 C   0  0  0  0  0  0  0  0  0  0  0  0
    2.9025    0.6762    0.0000 C   0  0  0  0  0  0  0  0  0  0  0  0
   -4.5542   -0.1286    0.0000 C   0  0  0  0  0  0  0  0  0  0  0  0
   -6.0455   -0.2896    0.0000 C   0  0  0  0  0  0  0  0  0  0  0  0
   -6.6518   -1.6616    0.0000 O   0  0  0  0  0  0  0  0  0  0  0  0
   -5.7667   -2.8727    0.0000 C   0  0  0  0  0  0  0  0  0  0  0  0
  1  2  1  0
  2  3  1  0
  3  4  2  0
  4  5  1  0
  5  6  2  0
  6  7  1  0
  8  7  1  6
  8  9  1  0
  9 10  1  0
 10 11  1  0
 11 12  1  0
 11 13  2  0
  8 14  1  0
 14 15  1  6
 15 16  1  0
 16 17  1  0
 17 18  1  0
 17 19  2  0
 14 20  1  0
 20 21  1  0
 21 22  2  0
 22 23  1  0
 23 24  2  0
 24 25  1  0
 25 26  1  0
 26 27  1  0
 26 28  2  0
 24 29  1  0
 29 30  1  0
 30 31  1  0
 29 32  2  0
  6 33  1  0
 33 34  2  0
 34 35  1  0
 35 36  1  0
 34  3  1  0
 32 21  1  0
M  END
>  <identifier>  (590) 
CNP0080347.1

>  <canonical_smiles>  (590) 
COC1=CC=C(C[C@@H](COC(C)=O)[C@H](COC(C)=O)CC2=CC=C(OC(C)=O)C(OC)=C2)C=C1OC

>  <standard_inchi>  (590) 
InChI=1S/C27H34O9/c1-17(28)34-15-22(11-20-7-9-24(31-4)26(13-20)32-5)23(16-35-18(2)29)12-21-8-10-25(36-19(3)30)27(14-21)33-6/h7-10,13-14,22-23H,11-12,15-16H2,1-6H3/t22-,23-/m0/s1

>  <standard_inchi_key>  (590) 
BLNCFADYDWRVJH-GOTSBHOMSA-N

>  <name>  (590) 
nan

>  <iupac_name>  (590) 
[(2~{R},3~{R})-4-acetoxy-3-[(4-acetoxy-3-methoxy-phenyl)methyl]-2-[(3,4-dimethoxyphenyl)methyl]butyl] acetate

>  <annotation_level>  (590) 
4

>  <total_atom_count>  (590) 
70

>  <heavy_atom_count>  (590) 
36

>  <molecular_weight>  (590) 
502.56

>  <exact_molecular_weight>  (590) 
502.22028

>  <molecular_formula>  (590) 
C27H34O9

>  <alogp>  (590) 
3.78

>  <topological_polar_surface_area>  (590) 
106.59

>  <rotatable_bond_count>  (590) 
13

>  <hydrogen_bond_acceptors>  (590) 
9

>  <hydrogen_bond_donors>  (590) 
0

>  <hydrogen_bond_acceptors_lipinski>  (590) 
9

>  <hydrogen_bond_donors_lipinski>  (590) 
0

>  <lipinski_rule_of_five_violations>  (590) 
1

>  <aromatic_rings_count>  (590) 
2

>  <qed_drug_likeliness>  (590) 
0.30

>  <formal_charge>  (590) 
0

>  <fractioncsp3>  (590) 
0.44

>  <number_of_minimal_rings>  (590) 
2

>  <van_der_walls_volume>  (590) 
nan

>  <contains_sugar>  (590) 
False

>  <contains_ring_sugars>  (590) 
False

>  <contains_linear_sugars>  (590) 
False

>  <murcko_framework>  (590) 
c1ccc(cc1)CCCCc2ccccc2

>  <np_likeness>  (590) 
0.50

>  <chemical_class>  (590) 
Dibenzylbutane lignans

>  <chemical_sub_class>  (590) 
Dibenzylbutane lignans

>  <chemical_super_class>  (590) 
Lignans, neolignans and related compounds

>  <direct_parent_classification>  (590) 
Dibenzylbutane lignans

>  <np_classifier_pathway>  (590) 
Shikimates and Phenylpropanoids

>  <np_classifier_superclass>  (590) 
Lignans

>  <np_classifier_class>  (590) 
Dibenzylbutane lignans

>  <np_classifier_is_glycoside>  (590) 
False

>  <organisms>  (590) 
Araucaria angustifolia

>  <collections>  (590) 
Latin America dataset|NuBBEDB|WikiData Natural Products|ZINC NP

>  <dois>  (590) 
10.1016/0031-9422(79)80188-0

>  <synonyms>  (590) 
Secoisolariciresinol-4-methyl ether triacetate

>  <cas>  (590) 
nan

$$$$

     RDKit          2D

 26 30  0  0  0  0  0  0  0  0999 V2000
    6.6668   -2.8758    0.0000 C   0  0  0  0  0  0  0  0  0  0  0  0
    6.9765   -1.4081    0.0000 O   0  0  0  0  0  0  0  0  0  0  0  0
    5.8603   -0.4061    0.0000 C   0  0  0  0  0  0  0  0  0  0  0  0
    4.4344   -0.8717    0.0000 C   0  0  0  0  0  0  0  0  0  0  0  0
    3.3182    0.1303    0.0000 C   0  0  0  0  0  0  0  0  0  0  0  0
    1.8923   -0.3353    0.0000 C   0  0  0  0  0  0  0  0  0  0  0  0
    1.4309   -1.7626    0.0000 O   0  0  0  0  0  0  0  0  0  0  0  0
   -0.0691   -1.7648    0.0000 C   0  0  0  0  0  0  0  0  0  0  0  0
   -0.5347   -0.3389    0.0000 C   0  0  0  0  0  0  0  0  0  0  0  0
    0.6775    0.5446    0.0000 C   0  0  0  0  0  0  0  0  0  0  0  0
    0.2119    1.9705    0.0000 C   0  0  0  0  0  0  0  0  0  0  0  0
   -1.2881    1.9683    0.0000 O   0  0  0  0  0  0  0  0  0  0  0  0
   -1.7495    0.5410    0.0000 C   0  0  0  0  0  0  0  0  0  0  0  0
   -3.1754    0.0754    0.0000 C   0  0  0  0  0  0  0  0  0  0  0  0
   -3.4851   -1.3923    0.0000 C   0  0  0  0  0  0  0  0  0  0  0  0
   -4.9110   -1.8579    0.0000 C   0  0  0  0  0  0  0  0  0  0  0  0
   -6.0272   -0.8559    0.0000 C   0  0  0  0  0  0  0  0  0  0  0  0
   -7.5188   -1.0149    0.0000 O   0  0  0  0  0  0  0  0  0  0  0  0
   -8.1309    0.3545    0.0000 C   0  0  0  0  0  0  0  0  0  0  0  0
   -7.0177    1.3599    0.0000 O   0  0  0  0  0  0  0  0  0  0  0  0
   -5.7175    0.6118    0.0000 C   0  0  0  0  0  0  0  0  0  0  0  0
   -4.2916    1.0774    0.0000 C   0  0  0  0  0  0  0  0  0  0  0  0
    3.6279    1.5980    0.0000 C   0  0  0  0  0  0  0  0  0  0  0  0
    5.0538    2.0637    0.0000 C   0  0  0  0  0  0  0  0  0  0  0  0
    6.1700    1.0616    0.0000 C   0  0  0  0  0  0  0  0  0  0  0  0
    7.5959    1.5273    0.0000 O   0  0  0  0  0  0  0  0  0  0  0  0
  1  2  1  0
  2  3  1  0
  3  4  2  0
  4  5  1  0
  6  5  1  1
  6  7  1  0
  7  8  1  0
  9  8  1  6
  9 10  1  0
 10 11  1  6
 11 12  1  0
 12 13  1  0
 13 14  1  1
 14 15  2  0
 15 16  1  0
 16 17  2  0
 17 18  1  0
 18 19  1  0
 19 20  1  0
 20 21  1  0
 21 22  2  0
  5 23  2  0
 23 24  1  0
 24 25  2  0
 25 26  1  0
 25  3  1  0
 10  6  1  0
 22 14  1  0
 13  9  1  0
 21 17  1  0
M  END
>  <identifier>  (591) 
CNP0248930.1

>  <canonical_smiles>  (591) 
COC1=CC([C@H]2OC[C@H]3[C@@H]2CO[C@@H]3C2=CC=C3OCOC3=C2)=CC=C1O

>  <standard_inchi>  (591) 
InChI=1S/C20H20O6/c1-22-17-6-11(2-4-15(17)21)19-13-8-24-20(14(13)9-23-19)12-3-5-16-18(7-12)26-10-25-16/h2-7,13-14,19-21H,8-10H2,1H3/t13-,14-,19+,20+/m0/s1

>  <standard_inchi_key>  (591) 
VBIRCRCPHNUJAS-AFHBHXEDSA-N

>  <name>  (591) 
Piperitol

>  <iupac_name>  (591) 
4-[(3~{S},3~{a}~{R},6~{S},6~{a}~{R})-3-(1,3-benzodioxol-5-yl)-1,3,3~{a},4,6,6~{a}-hexahydrofuro[3,4-c]furan-6-yl]-2-methoxy-phenol

>  <annotation_level>  (591) 
5

>  <total_atom_count>  (591) 
46

>  <heavy_atom_count>  (591) 
26

>  <molecular_weight>  (591) 
356.37

>  <exact_molecular_weight>  (591) 
356.12599

>  <molecular_formula>  (591) 
C20H20O6

>  <alogp>  (591) 
3.20

>  <topological_polar_surface_area>  (591) 
66.38

>  <rotatable_bond_count>  (591) 
3

>  <hydrogen_bond_acceptors>  (591) 
6

>  <hydrogen_bond_donors>  (591) 
1

>  <hydrogen_bond_acceptors_lipinski>  (591) 
6

>  <hydrogen_bond_donors_lipinski>  (591) 
1

>  <lipinski_rule_of_five_violations>  (591) 
0

>  <aromatic_rings_count>  (591) 
2

>  <qed_drug_likeliness>  (591) 
0.91

>  <formal_charge>  (591) 
0

>  <fractioncsp3>  (591) 
0.40

>  <number_of_minimal_rings>  (591) 
5

>  <van_der_walls_volume>  (591) 
307.27

>  <contains_sugar>  (591) 
False

>  <contains_ring_sugars>  (591) 
False

>  <contains_linear_sugars>  (591) 
False

>  <murcko_framework>  (591) 
O1c2ccc(cc2OC1)C3OCC4C(OCC34)c5ccccc5

>  <np_likeness>  (591) 
1.07

>  <chemical_class>  (591) 
Furanoid lignans

>  <chemical_sub_class>  (591) 
Furan lignans

>  <chemical_super_class>  (591) 
Lignans, neolignans and related compounds

>  <direct_parent_classification>  (591) 
Furan lignans

>  <np_classifier_pathway>  (591) 
Shikimates and Phenylpropanoids

>  <np_classifier_superclass>  (591) 
Lignans

>  <np_classifier_class>  (591) 
Furofuranoid lignans

>  <np_classifier_is_glycoside>  (591) 
False

>  <organisms>  (591) 
Actinodaphne acuminata|Actinodaphne longifolia|Anethum graveolens|Angelica acutiloba|Angelica gigas|Angelica sinensis|Anthotroche blackii|Aplophyllum villosum|Archaster typicus|Aristolochia gehrtii|Artemisia argyi|Artemisia montana|Artemisia princeps|Asarum heterotropoides|Asarum sieboldii|Asiasarum heterotropoides|Asiasarum sieboldii|Beaucarnea recurvata|Bracteantha acuminata|Bracteantha subundulata|Centaurea arenaria|Chamaecyparis obtusa|Cinnamomum camphora|Citrus maxima|Clitocybe subilludens|Cota saguramica|Cotylelobium scabriusculum|Cratystylis conocephala|Cryptocarya angulata|Daphne composita|Dioscorea spongiosa|Diospyros abyssinica|Diospyros elliptifolia|Diospyros peregrina|Eremophila macdonnellii|Eriosolena composita|Eucalyptus perriniana|Gutenbergia cordifolia|Helichrysum bracteatum|Kuloa usambarensis|Magnolia stellata|Marsilea quadrifolia|Mastophora hutchinsoni|Mikania scandens|Myristica fragrans|Nectandra turbacensis|Ocotea usambarensis|Papilio xuthus|Paulownia tomentosa|Petrosia volcano|Phaeotremella fagi|Phoma herbarum|Phyllodium pulchellum|Pinus parviflora|Plantago hookeriana|Scorzonera hispanica|Sesamum Indicum|Sesamum indicum|Sesamum orientale|Solenostoma triste|Streptomyces|Streptomyces sp. IT-44|Tolypothrix nodosa|Trapa japonica|Tunica prolifera|Xerochrysum subundulatum|Zanthoxylum bungeanum|Zanthoxylum petiolare|Zanthoxylum piperitum|Zanthoxylum schinifolium|sesame

>  <collections>  (591) 
Australian natural products|CMAUP (cCollective molecular activities of useful plants)|ChEBI NPs|KNApSaCK|Latin America dataset|NPASS|NPAtlas|NPEdia|NuBBEDB|Super Natural II|TCMDB-Taiwan (Traditional Chinese Medicine database)|VietHerb|WikiData Natural Products

>  <dois>  (591) 
10.1002/PCA.2800050503|10.1016/0031-9422(89)80155-4|10.1016/J.BMCL.2012.01.136|10.1016/J.CHROMA.2011.05.047|10.1016/S0031-9422(00)80091-6|10.1016/S0031-9422(00)81525-3|10.1016/S0031-9422(00)84791-3|10.1016/S0031-9422(00)89656-9|10.1016/S0031-9422(97)00727-9|10.1016/S0031-9422(98)00268-4|10.1016/j.fitote.2017.06.004|10.1016/j.jep.2018.04.017|10.1021/NP9702953|10.1055/S-2006-962791|10.1055/S-2008-1081340|10.1055/s-2008-1074882|10.1080/10412905.1991.9697936|10.1248/BPB.27.583|10.1248/CPB.56.60|10.1590/S0103-50532001000400004|10.7164/ANTIBIOTICS.47.487|10.7164/antibiotics.47.487

>  <synonyms>  (591) 
(+)-Regiomontanin|(+)-piperitol|4-((1S,3aR,4S,6aR)-4-(1,3-Benzodioxol-5-yl)tetrahydro-1H,3H-furo(3,4-C)furan-1-yl)-2-methoxyphenol|4-[(1S,3aR,4S,6aR)-4-(1,3-benzodioxol-5-yl)tetrahydrofuro[3,4-c]furan-1-yl]-2-methoxyphenol|4-[(3S,3aR,6S,6aR)-3-(1,3-benzodioxol-5-yl)-1,3,3a,4,6,6a-hexahydrofuro[3,4-c]furan-6-yl]-2-methoxyphenol|52151-92-5|AKOS040760638|C21954|CHEBI:141003|CHEMBL1688935|CLA6B4LBF3|FS-8647|PHENOL, 4-(4-(1,3-BENZODIOXOL-5-YL)TETRAHYDRO-1H,3H-FURO(3,4-C)FURAN-1-YL)-2-METHOXY-, (1S-(1.ALPHA.,3A.ALPHA.,4.ALPHA.,6A.ALPHA.))-|Phenol, 4-(4-(1,3-benzodioxol-5-yl)tetrahydro-1H,3H-furo(3,4-C)furan-1-yl)-2-methoxy-, (1S-(1alpha,3aalpha,4alpha,6aalpha))-|Piperitol|Regiomontanin|SCHEMBL12600768|Sesamin monocatechol 3-methylate|UNII-CLA6B4LBF3

>  <cas>  (591) 
52151-92-5

$$$$

     RDKit          2D

 20 21  0  0  0  0  0  0  0  0999 V2000
   -7.8565    0.5283    0.0000 C   0  0  0  0  0  0  0  0  0  0  0  0
   -6.5614   -0.2284    0.0000 C   0  0  0  0  0  0  0  0  0  0  0  0
   -6.5692   -1.7284    0.0000 C   0  0  0  0  0  0  0  0  0  0  0  0
   -5.2585    0.5148    0.0000 N   0  0  0  0  0  0  0  0  0  0  0  0
   -3.9634   -0.2419    0.0000 C   0  0  0  0  0  0  0  0  0  0  0  0
   -2.6605    0.5013    0.0000 C   0  0  0  0  0  0  0  0  0  0  0  0
   -2.6527    2.0013    0.0000 O   0  0  0  0  0  0  0  0  0  0  0  0
   -1.3653   -0.2554    0.0000 C   0  0  0  0  0  0  0  0  0  0  0  0
   -0.0624    0.4878    0.0000 O   0  0  0  0  0  0  0  0  0  0  0  0
    1.2327   -0.2689    0.0000 C   0  0  0  0  0  0  0  0  0  0  0  0
    1.2249   -1.7689    0.0000 C   0  0  0  0  0  0  0  0  0  0  0  0
    2.5200   -2.5256    0.0000 C   0  0  0  0  0  0  0  0  0  0  0  0
    3.8230   -1.7824    0.0000 C   0  0  0  0  0  0  0  0  0  0  0  0
    5.1181   -2.5391    0.0000 O   0  0  0  0  0  0  0  0  0  0  0  0
    3.8307   -0.2824    0.0000 C   0  0  0  0  0  0  0  0  0  0  0  0
    5.1337    0.4608    0.0000 C   0  0  0  0  0  0  0  0  0  0  0  0
    5.1415    1.9608    0.0000 C   0  0  0  0  0  0  0  0  0  0  0  0
    3.8463    2.7176    0.0000 C   0  0  0  0  0  0  0  0  0  0  0  0
    2.5434    1.9743    0.0000 C   0  0  0  0  0  0  0  0  0  0  0  0
    2.5356    0.4743    0.0000 C   0  0  0  0  0  0  0  0  0  0  0  0
  1  2  1  0
  2  3  1  0
  2  4  1  0
  4  5  1  0
  5  6  1  0
  6  7  1  6
  6  8  1  0
  8  9  1  0
  9 10  1  0
 10 11  2  0
 11 12  1  0
 12 13  2  0
 13 14  1  0
 13 15  1  0
 15 16  2  0
 16 17  1  0
 17 18  2  0
 18 19  1  0
 19 20  2  0
 20 10  1  0
 20 15  1  0
M  END
>  <identifier>  (592) 
CNP0285218.2

>  <canonical_smiles>  (592) 
CC(C)NC[C@H](O)COC1=CC=C(O)C2=CC=CC=C12

>  <standard_inchi>  (592) 
InChI=1S/C16H21NO3/c1-11(2)17-9-12(18)10-20-16-8-7-15(19)13-5-3-4-6-14(13)16/h3-8,11-12,17-19H,9-10H2,1-2H3/t12-/m0/s1

>  <standard_inchi_key>  (592) 
CWEPACWBWIOYID-LBPRGKRZSA-N

>  <name>  (592) 
(-)-4-Hydroxypropranolol

>  <iupac_name>  (592) 
4-[(2~{S})-2-hydroxy-3-(isopropylamino)propoxy]naphthalen-1-ol

>  <annotation_level>  (592) 
5

>  <total_atom_count>  (592) 
41

>  <heavy_atom_count>  (592) 
20

>  <molecular_weight>  (592) 
275.35

>  <exact_molecular_weight>  (592) 
275.15214

>  <molecular_formula>  (592) 
C16H21NO3

>  <alogp>  (592) 
2.28

>  <topological_polar_surface_area>  (592) 
61.72

>  <rotatable_bond_count>  (592) 
6

>  <hydrogen_bond_acceptors>  (592) 
4

>  <hydrogen_bond_donors>  (592) 
3

>  <hydrogen_bond_acceptors_lipinski>  (592) 
4

>  <hydrogen_bond_donors_lipinski>  (592) 
3

>  <lipinski_rule_of_five_violations>  (592) 
0

>  <aromatic_rings_count>  (592) 
2

>  <qed_drug_likeliness>  (592) 
0.76

>  <formal_charge>  (592) 
0

>  <fractioncsp3>  (592) 
0.38

>  <number_of_minimal_rings>  (592) 
2

>  <van_der_walls_volume>  (592) 
nan

>  <contains_sugar>  (592) 
False

>  <contains_ring_sugars>  (592) 
False

>  <contains_linear_sugars>  (592) 
False

>  <murcko_framework>  (592) 
c1ccc2ccccc2c1

>  <np_likeness>  (592) 
-0.07

>  <chemical_class>  (592) 
Naphthalenes

>  <chemical_sub_class>  (592) 
Naphthols and derivatives

>  <chemical_super_class>  (592) 
Benzenoids

>  <direct_parent_classification>  (592) 
Naphthols and derivatives

>  <np_classifier_pathway>  (592) 
Alkaloids

>  <np_classifier_superclass>  (592) 
nan

>  <np_classifier_class>  (592) 
nan

>  <np_classifier_is_glycoside>  (592) 
False

>  <organisms>  (592) 
Penicillium crustosum|Penicillium solitum

>  <collections>  (592) 
Latin America dataset|NuBBEDB|WikiData Natural Products|ZINC NP

>  <dois>  (592) 
10.1002/ELPS.200900216|10.1002/elps.200900216

>  <synonyms>  (592) 
(-)-(S)-4-hydroxypropranolol|(S)-4-Hydroxy propranolol|1-Naphthalenol, 4-((2S)-2-hydroxy-3-((1-methylethyl)amino)propoxy)-|4-Hydroxypropranolol, (-)-|4-[(2S)-2-hydroxy-3-(propan-2-ylamino)propoxy]naphthalen-1-ol|76792-96-6|DTXSID701312988|E5AR0D881E|Q27276889|UNII-E5AR0D881E

>  <cas>  (592) 
76792-96-6

$$$$

     RDKit          2D

 25 27  0  0  0  0  0  0  0  0999 V2000
   -3.0152    3.9002    0.0000 C   0  0  0  0  0  0  0  0  0  0  0  0
   -3.6709    2.5511    0.0000 O   0  0  0  0  0  0  0  0  0  0  0  0
   -2.8303    1.3088    0.0000 C   0  0  0  0  0  0  0  0  0  0  0  0
   -1.3341    1.4155    0.0000 C   0  0  0  0  0  0  0  0  0  0  0  0
   -0.4936    0.1732    0.0000 C   0  0  0  0  0  0  0  0  0  0  0  0
   -1.1492   -1.1760    0.0000 C   0  0  0  0  0  0  0  0  0  0  0  0
   -2.6454   -1.2827    0.0000 C   0  0  0  0  0  0  0  0  0  0  0  0
   -3.3011   -2.6318    0.0000 O   0  0  0  0  0  0  0  0  0  0  0  0
   -3.4860   -0.0404    0.0000 C   0  0  0  0  0  0  0  0  0  0  0  0
   -4.9822   -0.1471    0.0000 O   0  0  0  0  0  0  0  0  0  0  0  0
   -5.8227    1.0952    0.0000 C   0  0  0  0  0  0  0  0  0  0  0  0
   -0.3087   -2.4183    0.0000 C   0  0  0  0  0  0  0  0  0  0  0  0
   -0.9643   -3.7675    0.0000 O   0  0  0  0  0  0  0  0  0  0  0  0
    1.1875   -2.3116    0.0000 C   0  0  0  0  0  0  0  0  0  0  0  0
    2.0281   -3.5539    0.0000 C   0  0  0  0  0  0  0  0  0  0  0  0
    3.5243   -3.4472    0.0000 C   0  0  0  0  0  0  0  0  0  0  0  0
    4.1799   -2.0981    0.0000 C   0  0  0  0  0  0  0  0  0  0  0  0
    3.3394   -0.8557    0.0000 C   0  0  0  0  0  0  0  0  0  0  0  0
    1.8432   -0.9624    0.0000 C   0  0  0  0  0  0  0  0  0  0  0  0
    1.0026    0.2799    0.0000 N   0  0  0  0  0  0  0  0  0  0  0  0
    1.6583    1.6290    0.0000 C   0  0  0  0  0  0  0  0  0  0  0  0
    3.1545    1.7358    0.0000 O   0  0  0  0  0  0  0  0  0  0  0  0
    3.8101    3.0849    0.0000 C   0  0  0  0  0  0  0  0  0  0  0  0
    5.3063    3.1917    0.0000 C   0  0  0  0  0  0  0  0  0  0  0  0
    2.9695    4.3273    0.0000 O   0  0  0  0  0  0  0  0  0  0  0  0
  1  2  1  0
  2  3  1  0
  3  4  2  0
  4  5  1  0
  5  6  2  0
  6  7  1  0
  7  8  1  0
  7  9  2  0
  9 10  1  0
 10 11  1  0
  6 12  1  0
 12 13  2  0
 12 14  1  0
 14 15  2  0
 15 16  1  0
 16 17  2  0
 17 18  1  0
 18 19  2  0
 19 20  1  0
 20 21  1  0
 21 22  1  0
 22 23  1  0
 23 24  1  0
 23 25  2  0
  9  3  1  0
 19 14  1  0
 20  5  1  0
M  END
>  <identifier>  (593) 
CNP0225836.0

>  <canonical_smiles>  (593) 
COC1=CC2=C(C(O)=C1OC)C(=O)C1=CC=CC=C1N2COC(C)=O

>  <standard_inchi>  (593) 
InChI=1S/C18H17NO6/c1-10(20)25-9-19-12-7-5-4-6-11(12)16(21)15-13(19)8-14(23-2)18(24-3)17(15)22/h4-8,22H,9H2,1-3H3

>  <standard_inchi_key>  (593) 
MXIJLTRSYDOKCJ-UHFFFAOYSA-N

>  <name>  (593) 
nan

>  <iupac_name>  (593) 
(1-hydroxy-2,3-dimethoxy-9-oxo-acridin-10-yl)methyl acetate

>  <annotation_level>  (593) 
4

>  <total_atom_count>  (593) 
42

>  <heavy_atom_count>  (593) 
25

>  <molecular_weight>  (593) 
343.34

>  <exact_molecular_weight>  (593) 
343.10559

>  <molecular_formula>  (593) 
C18H17NO6

>  <alogp>  (593) 
2.40

>  <topological_polar_surface_area>  (593) 
86.99

>  <rotatable_bond_count>  (593) 
4

>  <hydrogen_bond_acceptors>  (593) 
7

>  <hydrogen_bond_donors>  (593) 
1

>  <hydrogen_bond_acceptors_lipinski>  (593) 
7

>  <hydrogen_bond_donors_lipinski>  (593) 
1

>  <lipinski_rule_of_five_violations>  (593) 
0

>  <aromatic_rings_count>  (593) 
3

>  <qed_drug_likeliness>  (593) 
0.58

>  <formal_charge>  (593) 
0

>  <fractioncsp3>  (593) 
0.22

>  <number_of_minimal_rings>  (593) 
3

>  <van_der_walls_volume>  (593) 
292.72

>  <contains_sugar>  (593) 
False

>  <contains_ring_sugars>  (593) 
False

>  <contains_linear_sugars>  (593) 
False

>  <murcko_framework>  (593) 
c1ccc2c(c1)Nc3ccccc3C2

>  <np_likeness>  (593) 
0.84

>  <chemical_class>  (593) 
Quinolines and derivatives

>  <chemical_sub_class>  (593) 
Benzoquinolines

>  <chemical_super_class>  (593) 
Organoheterocyclic compounds

>  <direct_parent_classification>  (593) 
Acridones

>  <np_classifier_pathway>  (593) 
Alkaloids

>  <np_classifier_superclass>  (593) 
Anthranilic acid alkaloids

>  <np_classifier_class>  (593) 
Acridone alkaloids

>  <np_classifier_is_glycoside>  (593) 
False

>  <organisms>  (593) 
Conchocarpus inopinatus|Toddaliopsis bremekampii|Vepris bremekampii

>  <collections>  (593) 
KNApSaCK|Latin America dataset|NPASS|NuBBEDB|SANCDB|Super Natural II|TCMDB-Taiwan (Traditional Chinese Medicine database)|TCMID (Traditional Chinese Medicine Integrated Database)|UNPD (Universal Natural Products Database)|WikiData Natural Products|ZINC NP

>  <dois>  (593) 
10.1016/J.PHYTOCHEM.2005.04.036|10.1016/j.phytochem.2005.04.036|10.1590/S0100-40422012001100006

>  <synonyms>  (593) 
Toddaliopsin C

>  <cas>  (593) 
nan

$$$$

     RDKit          2D

 34 35  0  0  0  0  0  0  0  0999 V2000
   11.9995   -2.4889    0.0000 C   0  0  0  0  0  0  0  0  0  0  0  0
   12.2030   -1.0027    0.0000 O   0  0  0  0  0  0  0  0  0  0  0  0
   11.0177   -0.0835    0.0000 C   0  0  0  0  0  0  0  0  0  0  0  0
    9.6289   -0.6503    0.0000 C   0  0  0  0  0  0  0  0  0  0  0  0
    8.4436    0.2689    0.0000 C   0  0  0  0  0  0  0  0  0  0  0  0
    7.0549   -0.2979    0.0000 C   0  0  0  0  0  0  0  0  0  0  0  0
    5.8696    0.6213    0.0000 C   0  0  0  0  0  0  0  0  0  0  0  0
    4.4808    0.0545    0.0000 C   0  0  0  0  0  0  0  0  0  0  0  0
    4.2774   -1.4317    0.0000 O   0  0  0  0  0  0  0  0  0  0  0  0
    3.2955    0.9738    0.0000 O   0  0  0  0  0  0  0  0  0  0  0  0
    1.9068    0.4069    0.0000 C   0  0  0  0  0  0  0  0  0  0  0  0
    0.7214    1.3262    0.0000 C   0  0  0  0  0  0  0  0  0  0  0  0
   -0.6673    0.7593    0.0000 C   0  0  0  0  0  0  0  0  0  0  0  0
   -0.8708   -0.7268    0.0000 C   0  0  0  0  0  0  0  0  0  0  0  0
   -2.2595   -1.2937    0.0000 C   0  0  0  0  0  0  0  0  0  0  0  0
   -3.4448   -0.3744    0.0000 C   0  0  0  0  0  0  0  0  0  0  0  0
   -4.8336   -0.9413    0.0000 C   0  0  0  0  0  0  0  0  0  0  0  0
   -6.0189   -0.0220    0.0000 C   0  0  0  0  0  0  0  0  0  0  0  0
   -7.4077   -0.5889    0.0000 C   0  0  0  0  0  0  0  0  0  0  0  0
   -8.5930    0.3304    0.0000 C   0  0  0  0  0  0  0  0  0  0  0  0
   -9.9817   -0.2365    0.0000 C   0  0  0  0  0  0  0  0  0  0  0  0
  -11.1670    0.6828    0.0000 C   0  0  0  0  0  0  0  0  0  0  0  0
  -12.5558    0.1159    0.0000 C   0  0  0  0  0  0  0  0  0  0  0  0
  -13.7411    1.0352    0.0000 C   0  0  0  0  0  0  0  0  0  0  0  0
  -15.1299    0.4683    0.0000 C   0  0  0  0  0  0  0  0  0  0  0  0
  -16.3152    1.3876    0.0000 C   0  0  0  0  0  0  0  0  0  0  0  0
  -15.3333   -1.0178    0.0000 O   0  0  0  0  0  0  0  0  0  0  0  0
    0.3145   -1.6461    0.0000 N   0  0  0  0  0  0  0  0  0  0  0  0
    1.7033   -1.0792    0.0000 C   0  0  0  0  0  0  0  0  0  0  0  0
    2.8886   -1.9985    0.0000 C   0  0  0  0  0  0  0  0  0  0  0  0
    8.6471    1.7551    0.0000 C   0  0  0  0  0  0  0  0  0  0  0  0
   10.0359    2.3219    0.0000 C   0  0  0  0  0  0  0  0  0  0  0  0
   11.2212    1.4027    0.0000 C   0  0  0  0  0  0  0  0  0  0  0  0
   12.6099    1.9695    0.0000 O   0  0  0  0  0  0  0  0  0  0  0  0
  1  2  1  0
  2  3  1  0
  3  4  2  0
  4  5  1  0
  5  6  1  0
  6  7  2  0
  7  8  1  0
  8  9  2  0
  8 10  1  0
 10 11  1  0
 11 12  1  0
 12 13  1  0
 13 14  1  0
 14 15  1  0
 15 16  1  0
 16 17  1  0
 17 18  1  0
 18 19  1  0
 19 20  1  0
 20 21  1  0
 21 22  1  0
 22 23  1  0
 23 24  1  0
 24 25  1  0
 25 26  1  0
 25 27  2  0
 14 28  1  0
 28 29  1  0
 29 30  1  0
  5 31  2  0
 31 32  1  0
 32 33  2  0
 33 34  1  0
 33  3  1  0
 29 11  1  0
M  END
>  <identifier>  (594) 
CNP0114953.3

>  <canonical_smiles>  (594) 
COC1=CC(/C=C/C(=O)OC2CCC(CCCCCCCCCCC(C)=O)NC2C)=CC=C1O

>  <standard_inchi>  (594) 
InChI=1S/C28H43NO5/c1-21(30)12-10-8-6-4-5-7-9-11-13-24-16-18-26(22(2)29-24)34-28(32)19-15-23-14-17-25(31)27(20-23)33-3/h14-15,17,19-20,22,24,26,29,31H,4-13,16,18H2,1-3H3/b19-15+

>  <standard_inchi_key>  (594) 
STSLNURRVKPSHZ-XDJHFCHBSA-N

>  <name>  (594) 
nan

>  <iupac_name>  (594) 
nan

>  <annotation_level>  (594) 
0

>  <total_atom_count>  (594) 
77

>  <heavy_atom_count>  (594) 
34

>  <molecular_weight>  (594) 
473.65

>  <exact_molecular_weight>  (594) 
473.31412

>  <molecular_formula>  (594) 
C28H43NO5

>  <alogp>  (594) 
5.96

>  <topological_polar_surface_area>  (594) 
84.86

>  <rotatable_bond_count>  (594) 
15

>  <hydrogen_bond_acceptors>  (594) 
6

>  <hydrogen_bond_donors>  (594) 
2

>  <hydrogen_bond_acceptors_lipinski>  (594) 
6

>  <hydrogen_bond_donors_lipinski>  (594) 
2

>  <lipinski_rule_of_five_violations>  (594) 
1

>  <aromatic_rings_count>  (594) 
1

>  <qed_drug_likeliness>  (594) 
0.19

>  <formal_charge>  (594) 
0

>  <fractioncsp3>  (594) 
0.64

>  <number_of_minimal_rings>  (594) 
2

>  <van_der_walls_volume>  (594) 
477.34

>  <contains_sugar>  (594) 
False

>  <contains_ring_sugars>  (594) 
False

>  <contains_linear_sugars>  (594) 
False

>  <murcko_framework>  (594) 
O(CC=Cc1ccccc1)C2CNCCC2

>  <np_likeness>  (594) 
1.61

>  <chemical_class>  (594) 
nan

>  <chemical_sub_class>  (594) 
nan

>  <chemical_super_class>  (594) 
nan

>  <direct_parent_classification>  (594) 
nan

>  <np_classifier_pathway>  (594) 
Alkaloids

>  <np_classifier_superclass>  (594) 
Lysine alkaloids

>  <np_classifier_class>  (594) 
Piperidine alkaloids

>  <np_classifier_is_glycoside>  (594) 
False

>  <organisms>  (594) 
Senna spectabilis

>  <collections>  (594) 
Latin America dataset|NuBBEDB|WikiData Natural Products

>  <dois>  (594) 
10.1590/S0103-50532005000800023

>  <synonyms>  (594) 
nan

>  <cas>  (594) 
nan

$$$$

     RDKit          2D

 25 26  0  0  0  0  0  0  0  0999 V2000
   -9.0626    1.1367    0.0000 C   0  0  0  0  0  0  0  0  0  0  0  0
   -8.2093   -0.0970    0.0000 O   0  0  0  0  0  0  0  0  0  0  0  0
   -6.7143    0.0251    0.0000 C   0  0  0  0  0  0  0  0  0  0  0  0
   -6.0726    1.3809    0.0000 C   0  0  0  0  0  0  0  0  0  0  0  0
   -4.5775    1.5030    0.0000 C   0  0  0  0  0  0  0  0  0  0  0  0
   -3.7243    0.2693    0.0000 C   0  0  0  0  0  0  0  0  0  0  0  0
   -2.2293    0.3914    0.0000 C   0  0  0  0  0  0  0  0  0  0  0  0
   -1.3760   -0.8423    0.0000 C   0  0  0  0  0  0  0  0  0  0  0  0
    0.1190   -0.7202    0.0000 C   0  0  0  0  0  0  0  0  0  0  0  0
    0.9723   -1.9538    0.0000 C   0  0  0  0  0  0  0  0  0  0  0  0
    2.4673   -1.8317    0.0000 C   0  0  0  0  0  0  0  0  0  0  0  0
    3.3205   -3.0654    0.0000 O   0  0  0  0  0  0  0  0  0  0  0  0
    2.6788   -4.4212    0.0000 C   0  0  0  0  0  0  0  0  0  0  0  0
    3.1091   -0.4760    0.0000 C   0  0  0  0  0  0  0  0  0  0  0  0
    4.6041   -0.3539    0.0000 C   0  0  0  0  0  0  0  0  0  0  0  0
    5.2459    1.0019    0.0000 C   0  0  0  0  0  0  0  0  0  0  0  0
    6.7409    1.1240    0.0000 C   0  0  0  0  0  0  0  0  0  0  0  0
    7.3827    2.4798    0.0000 C   0  0  0  0  0  0  0  0  0  0  0  0
    7.5941   -0.1097    0.0000 C   0  0  0  0  0  0  0  0  0  0  0  0
    2.2558    0.7577    0.0000 C   0  0  0  0  0  0  0  0  0  0  0  0
    2.8976    2.1135    0.0000 O   0  0  0  0  0  0  0  0  0  0  0  0
    2.0443    3.3472    0.0000 C   0  0  0  0  0  0  0  0  0  0  0  0
    0.7608    0.6356    0.0000 C   0  0  0  0  0  0  0  0  0  0  0  0
   -4.3661   -1.0864    0.0000 C   0  0  0  0  0  0  0  0  0  0  0  0
   -5.8611   -1.2085    0.0000 C   0  0  0  0  0  0  0  0  0  0  0  0
  1  2  1  0
  2  3  1  0
  3  4  2  0
  4  5  1  0
  5  6  2  0
  6  7  1  0
  7  8  2  0
  8  9  1  0
  9 10  2  0
 10 11  1  0
 11 12  1  0
 12 13  1  0
 11 14  2  0
 14 15  1  0
 15 16  1  0
 16 17  2  0
 17 18  1  0
 17 19  1  0
 14 20  1  0
 20 21  1  0
 21 22  1  0
 20 23  2  0
  6 24  1  0
 24 25  2  0
 25  3  1  0
 23  9  1  0
M  END
>  <identifier>  (595) 
CNP0117275.1

>  <canonical_smiles>  (595) 
COC1=CC=C(/C=C/C2=CC(OC)=C(CC=C(C)C)C(OC)=C2)C=C1

>  <standard_inchi>  (595) 
InChI=1S/C22H26O3/c1-16(2)6-13-20-21(24-4)14-18(15-22(20)25-5)8-7-17-9-11-19(23-3)12-10-17/h6-12,14-15H,13H2,1-5H3/b8-7+

>  <standard_inchi_key>  (595) 
FDLKGACURJDMFZ-BQYQJAHWSA-N

>  <name>  (595) 
nan

>  <iupac_name>  (595) 
nan

>  <annotation_level>  (595) 
0

>  <total_atom_count>  (595) 
51

>  <heavy_atom_count>  (595) 
25

>  <molecular_weight>  (595) 
338.45

>  <exact_molecular_weight>  (595) 
338.18819

>  <molecular_formula>  (595) 
C22H26O3

>  <alogp>  (595) 
5.39

>  <topological_polar_surface_area>  (595) 
27.69

>  <rotatable_bond_count>  (595) 
7

>  <hydrogen_bond_acceptors>  (595) 
3

>  <hydrogen_bond_donors>  (595) 
0

>  <hydrogen_bond_acceptors_lipinski>  (595) 
3

>  <hydrogen_bond_donors_lipinski>  (595) 
0

>  <lipinski_rule_of_five_violations>  (595) 
1

>  <aromatic_rings_count>  (595) 
2

>  <qed_drug_likeliness>  (595) 
0.50

>  <formal_charge>  (595) 
0

>  <fractioncsp3>  (595) 
0.27

>  <number_of_minimal_rings>  (595) 
2

>  <van_der_walls_volume>  (595) 
334.43

>  <contains_sugar>  (595) 
False

>  <contains_ring_sugars>  (595) 
False

>  <contains_linear_sugars>  (595) 
False

>  <murcko_framework>  (595) 
c1ccc(cc1)C=Cc2ccccc2

>  <np_likeness>  (595) 
0.83

>  <chemical_class>  (595) 
nan

>  <chemical_sub_class>  (595) 
nan

>  <chemical_super_class>  (595) 
nan

>  <direct_parent_classification>  (595) 
nan

>  <np_classifier_pathway>  (595) 
Shikimates and Phenylpropanoids

>  <np_classifier_superclass>  (595) 
Stilbenoids

>  <np_classifier_class>  (595) 
Monomeric stilbenes

>  <np_classifier_is_glycoside>  (595) 
False

>  <organisms>  (595) 
Derris floribunda|Derris trifoliata

>  <collections>  (595) 
KNApSaCK|Latin America dataset|NPEdia|NuBBEDB|Super Natural II|WikiData Natural Products|ZINC NP

>  <dois>  (595) 
10.1016/S0031-9422(00)98664-3

>  <synonyms>  (595) 
nan

>  <cas>  (595) 
nan

$$$$

     RDKit          2D

 21 24  0  0  0  0  0  0  0  0999 V2000
    3.0062   -2.7657    0.0000 C   0  0  0  0  0  0  0  0  0  0  0  0
    3.8166   -1.5034    0.0000 C   0  0  0  0  0  0  0  0  0  0  0  0
    5.3149   -1.5740    0.0000 C   0  0  0  0  0  0  0  0  0  0  0  0
    3.1285   -0.1705    0.0000 C   0  0  0  0  0  0  0  0  0  0  0  0
    3.8025    1.1696    0.0000 C   0  0  0  0  0  0  0  0  0  0  0  0
    2.7362    2.2247    0.0000 C   0  0  0  0  0  0  0  0  0  0  0  0
    1.4033    1.5367    0.0000 C   0  0  0  0  0  0  0  0  0  0  0  0
    1.3170    3.0342    0.0000 C   0  0  0  0  0  0  0  0  0  0  0  0
    0.0002    2.0668    0.0000 O   0  0  0  0  0  0  0  0  0  0  0  0
   -1.1606    1.1167    0.0000 C   0  0  0  0  0  0  0  0  0  0  0  0
   -0.9181   -0.3636    0.0000 C   0  0  0  0  0  0  0  0  0  0  0  0
    0.4851   -0.8937    0.0000 C   0  0  0  0  0  0  0  0  0  0  0  0
    1.6458    0.0564    0.0000 C   0  0  0  0  0  0  0  0  0  0  0  0
   -2.0788   -1.3137    0.0000 C   0  0  0  0  0  0  0  0  0  0  0  0
   -1.8364   -2.7940    0.0000 O   0  0  0  0  0  0  0  0  0  0  0  0
   -3.4820   -0.7835    0.0000 C   0  0  0  0  0  0  0  0  0  0  0  0
   -3.5526   -2.2818    0.0000 O   0  0  0  0  0  0  0  0  0  0  0  0
   -4.6527    0.1543    0.0000 C   0  0  0  0  0  0  0  0  0  0  0  0
   -4.1225    1.5575    0.0000 O   0  0  0  0  0  0  0  0  0  0  0  0
   -2.6242    1.4869    0.0000 C   0  0  0  0  0  0  0  0  0  0  0  0
   -2.2283    0.0401    0.0000 C   0  0  0  0  0  0  0  0  0  0  0  0
  1  2  2  0
  2  3  1  0
  4  2  1  1
  4  5  1  0
  5  6  1  0
  6  7  1  0
  7  8  1  1
  7  9  1  0
  9 10  1  0
 10 11  2  0
 11 12  1  0
 13 12  1  6
 11 14  1  0
 14 15  2  0
 14 16  1  0
 16 17  1  1
 16 18  1  0
 18 19  1  0
 20 19  1  6
 20 21  1  0
 13  4  1  0
 21 16  1  0
 13  7  1  0
 20 10  1  0
M  END
>  <identifier>  (596) 
CNP0157075.1

>  <canonical_smiles>  (596) 
C=C(C)[C@@H]1CC[C@@]2(C)OC3=C(C[C@@H]12)C(=O)[C@]1(O)CO[C@H]3C1

>  <standard_inchi>  (596) 
InChI=1S/C17H22O4/c1-9(2)10-4-5-16(3)12(10)6-11-14(21-16)13-7-17(19,8-20-13)15(11)18/h10,12-13,19H,1,4-8H2,2-3H3/t10-,12-,13-,16+,17+/m0/s1

>  <standard_inchi_key>  (596) 
PDDUOBCTLLRRFF-AWKHGQQRSA-N

>  <name>  (596) 
Guignardone A

>  <iupac_name>  (596) 
(1~{S},4~{R},7~{R},8~{S},12~{R})-12-hydroxy-7-isopropenyl-4-methyl-3,14-dioxatetracyclo[10.2.1.0^{2,10}.0^{4,8}]pentadec-2(10)-en-11-one

>  <annotation_level>  (596) 
5

>  <total_atom_count>  (596) 
43

>  <heavy_atom_count>  (596) 
21

>  <molecular_weight>  (596) 
290.36

>  <exact_molecular_weight>  (596) 
290.15181

>  <molecular_formula>  (596) 
C17H22O4

>  <alogp>  (596) 
2.12

>  <topological_polar_surface_area>  (596) 
55.76

>  <rotatable_bond_count>  (596) 
1

>  <hydrogen_bond_acceptors>  (596) 
4

>  <hydrogen_bond_donors>  (596) 
1

>  <hydrogen_bond_acceptors_lipinski>  (596) 
4

>  <hydrogen_bond_donors_lipinski>  (596) 
1

>  <lipinski_rule_of_five_violations>  (596) 
0

>  <aromatic_rings_count>  (596) 
0

>  <qed_drug_likeliness>  (596) 
0.75

>  <formal_charge>  (596) 
0

>  <fractioncsp3>  (596) 
0.71

>  <number_of_minimal_rings>  (596) 
4

>  <van_der_walls_volume>  (596) 
267.81

>  <contains_sugar>  (596) 
False

>  <contains_ring_sugars>  (596) 
False

>  <contains_linear_sugars>  (596) 
False

>  <murcko_framework>  (596) 
O1C2=C(CC3COC2C3)CC4CCCC14

>  <np_likeness>  (596) 
2.61

>  <chemical_class>  (596) 
Organooxygen compounds

>  <chemical_sub_class>  (596) 
Carbonyl compounds

>  <chemical_super_class>  (596) 
Organic oxygen compounds

>  <direct_parent_classification>  (596) 
Cyclohexenones

>  <np_classifier_pathway>  (596) 
Terpenoids

>  <np_classifier_superclass>  (596) 
Meroterpenoids

>  <np_classifier_class>  (596) 
Miscellaneous meroterpenoids

>  <np_classifier_is_glycoside>  (596) 
False

>  <organisms>  (596) 
Adenaria floribunda|Arctanthemum arcticum|Astraeus hygrometricus|Caragana sinica|Centaurea thessala|Diplopappus fruticosus|Genista tinctoria|Guignardia|Guignardia mangiferae|Guignardia sp.|Marsupella emarginata|Mimosa hostilis|Nardosmia laevigata|Phyllosticta capitalensis|Plagiochila yokogurensis|Saprosma scortechinii|Scyphiphora hydrophyllacea|Stemonoporus affinis|Tanacetum cinerariifolium|Tetragonia tetragonioides

>  <collections>  (596) 
CMAUP (cCollective molecular activities of useful plants)|EMNPD|Latin America dataset|NPASS|NPAtlas|NuBBEDB|Super Natural II|WikiData Natural Products

>  <dois>  (596) 
10.1016/J.PHYTOL.2012.05.004|10.1016/j.phytol.2012.05.004|10.1021/ACS.JNATPROD.5B00008|10.1021/acs.jnatprod.5b00008|10.1055/S-0034-1383392|10.1055/s-0034-1383392

>  <synonyms>  (596) 
(1S,4R,7R,8S,12R)-12-hydroxy-4-methyl-7-prop-1-en-2-yl-3,14-dioxatetracyclo[10.2.1.02,10.04,8]pentadec-2(10)-en-11-one|CHEBI:199752|CHEMBL3752158|Guignardone A

>  <cas>  (596) 
nan

$$$$

     RDKit          2D

 24 26  0  0  0  0  0  0  0  0999 V2000
   -6.4509   -1.3746    0.0000 O   0  0  0  0  0  0  0  0  0  0  0  0
   -5.7936   -0.0263    0.0000 C   0  0  0  0  0  0  0  0  0  0  0  0
   -6.6326    1.2171    0.0000 C   0  0  0  0  0  0  0  0  0  0  0  0
   -5.9753    2.5654    0.0000 C   0  0  0  0  0  0  0  0  0  0  0  0
   -4.4789    2.6703    0.0000 C   0  0  0  0  0  0  0  0  0  0  0  0
   -3.6399    1.4269    0.0000 C   0  0  0  0  0  0  0  0  0  0  0  0
   -2.1436    1.5318    0.0000 C   0  0  0  0  0  0  0  0  0  0  0  0
   -1.3046    0.2884    0.0000 C   0  0  0  0  0  0  0  0  0  0  0  0
   -1.9619   -1.0599    0.0000 C   0  0  0  0  0  0  0  0  0  0  0  0
   -1.1229   -2.3033    0.0000 C   0  0  0  0  0  0  0  0  0  0  0  0
   -1.7803   -3.6517    0.0000 O   0  0  0  0  0  0  0  0  0  0  0  0
    0.3734   -2.1985    0.0000 C   0  0  0  0  0  0  0  0  0  0  0  0
    1.2124   -3.4419    0.0000 O   0  0  0  0  0  0  0  0  0  0  0  0
    1.0307   -0.8502    0.0000 C   0  0  0  0  0  0  0  0  0  0  0  0
    2.5270   -0.7453    0.0000 C   0  0  0  0  0  0  0  0  0  0  0  0
    3.1844    0.6030    0.0000 C   0  0  0  0  0  0  0  0  0  0  0  0
    4.6807    0.7079    0.0000 C   0  0  0  0  0  0  0  0  0  0  0  0
    5.5197   -0.5355    0.0000 C   0  0  0  0  0  0  0  0  0  0  0  0
    7.0160   -0.4306    0.0000 C   0  0  0  0  0  0  0  0  0  0  0  0
    7.6734    0.9177    0.0000 C   0  0  0  0  0  0  0  0  0  0  0  0
    6.8344    2.1611    0.0000 C   0  0  0  0  0  0  0  0  0  0  0  0
    5.3380    2.0562    0.0000 C   0  0  0  0  0  0  0  0  0  0  0  0
    0.1917    0.3933    0.0000 O   0  0  0  0  0  0  0  0  0  0  0  0
   -4.2973    0.0786    0.0000 O   0  0  0  0  0  0  0  0  0  0  0  0
  1  2  2  0
  2  3  1  0
  3  4  2  0
  4  5  1  0
  5  6  1  0
  6  7  1  6
  8  7  1  1
  8  9  1  0
  9 10  1  0
 10 11  1  6
 10 12  1  0
 12 13  1  6
 12 14  1  0
 14 15  1  6
 15 16  2  0
 16 17  1  0
 17 18  2  0
 18 19  1  0
 19 20  2  0
 20 21  1  0
 21 22  2  0
 14 23  1  0
  6 24  1  0
 24  2  1  0
 23  8  1  0
 22 17  1  0
M  END
>  <identifier>  (597) 
CNP0210429.2

>  <canonical_smiles>  (597) 
O=C1C=CC[C@H](C[C@@H]2C[C@@H](O)[C@@H](O)[C@@H](/C=C/C3=CC=CC=C3)O2)O1

>  <standard_inchi>  (597) 
InChI=1S/C19H22O5/c20-16-12-15(11-14-7-4-8-18(21)24-14)23-17(19(16)22)10-9-13-5-2-1-3-6-13/h1-6,8-10,14-17,19-20,22H,7,11-12H2/b10-9+/t14-,15-,16-,17-,19-/m1/s1

>  <standard_inchi_key>  (597) 
JKIRIPQYXPLBKK-HYGWSYKWSA-N

>  <name>  (597) 
nan

>  <iupac_name>  (597) 
(2~{R})-2-[[(2~{S},4~{R},5~{R},6~{R})-4,5-dihydroxy-6-[(~{E})-styryl]tetrahydropyran-2-yl]methyl]-2,3-dihydropyran-6-one

>  <annotation_level>  (597) 
5

>  <total_atom_count>  (597) 
46

>  <heavy_atom_count>  (597) 
24

>  <molecular_weight>  (597) 
330.38

>  <exact_molecular_weight>  (597) 
330.14672

>  <molecular_formula>  (597) 
C19H22O5

>  <alogp>  (597) 
1.84

>  <topological_polar_surface_area>  (597) 
75.99

>  <rotatable_bond_count>  (597) 
4

>  <hydrogen_bond_acceptors>  (597) 
5

>  <hydrogen_bond_donors>  (597) 
2

>  <hydrogen_bond_acceptors_lipinski>  (597) 
5

>  <hydrogen_bond_donors_lipinski>  (597) 
2

>  <lipinski_rule_of_five_violations>  (597) 
0

>  <aromatic_rings_count>  (597) 
1

>  <qed_drug_likeliness>  (597) 
0.82

>  <formal_charge>  (597) 
0

>  <fractioncsp3>  (597) 
0.42

>  <number_of_minimal_rings>  (597) 
3

>  <van_der_walls_volume>  (597) 
302.14

>  <contains_sugar>  (597) 
False

>  <contains_ring_sugars>  (597) 
False

>  <contains_linear_sugars>  (597) 
False

>  <murcko_framework>  (597) 
O1CC=CCC1CC2OC(C=Cc3ccccc3)CCC2

>  <np_likeness>  (597) 
2.55

>  <chemical_class>  (597) 
Pyrans

>  <chemical_sub_class>  (597) 
Pyranones and derivatives

>  <chemical_super_class>  (597) 
Organoheterocyclic compounds

>  <direct_parent_classification>  (597) 
Dihydropyranones

>  <np_classifier_pathway>  (597) 
Shikimates and Phenylpropanoids

>  <np_classifier_superclass>  (597) 
Styrylpyrones

>  <np_classifier_class>  (597) 
Kavalactones and derivatives

>  <np_classifier_is_glycoside>  (597) 
False

>  <organisms>  (597) 
Cryptocarya moschata

>  <collections>  (597) 
ChemSpider NPs|Latin America dataset|NuBBEDB|Super Natural II|WikiData Natural Products|ZINC NP

>  <dois>  (597) 
10.1016/S0031-9422(99)00532-4

>  <synonyms>  (597) 
Cryptopyranmoscatone A3, (6R)-56-dihydro-6-[(2'S4'R5'R6'R7'E)-2'6'-epoxy-4'5'-dihydroxy-8'-phenyl-7'-octenyl]-2-pyrone

>  <cas>  (597) 
nan

$$$$

     RDKit          2D

 15 17  0  0  0  0  0  0  0  0999 V2000
    0.3266   -3.3149    0.0000 C   0  0  0  0  0  0  0  0  0  0  0  0
   -0.6556   -2.1812    0.0000 C   0  0  0  0  0  0  0  0  0  0  0  0
   -0.3158   -0.7202    0.0000 C   0  0  0  0  0  0  0  0  0  0  0  0
   -1.6003    0.0545    0.0000 C   0  0  0  0  0  0  0  0  0  0  0  0
   -2.7340   -0.9277    0.0000 C   0  0  0  0  0  0  0  0  0  0  0  0
   -2.1502   -2.3095    0.0000 C   0  0  0  0  0  0  0  0  0  0  0  0
   -1.7954    1.5417    0.0000 C   0  0  0  0  0  0  0  0  0  0  0  0
   -3.2201    2.0112    0.0000 C   0  0  0  0  0  0  0  0  0  0  0  0
   -0.7544    2.6216    0.0000 C   0  0  0  0  0  0  0  0  0  0  0  0
    0.7390    2.4809    0.0000 C   0  0  0  0  0  0  0  0  0  0  0  0
    1.5602    1.2257    0.0000 C   0  0  0  0  0  0  0  0  0  0  0  0
    1.0907   -0.1990    0.0000 C   0  0  0  0  0  0  0  0  0  0  0  0
    2.5592    0.1068    0.0000 C   0  0  0  0  0  0  0  0  0  0  0  0
    3.1154   -1.2863    0.0000 C   0  0  0  0  0  0  0  0  0  0  0  0
    3.8346    0.8964    0.0000 C   0  0  0  0  0  0  0  0  0  0  0  0
  1  2  1  0
  2  3  2  0
  3  4  1  0
  4  5  1  6
  5  6  1  0
  4  7  1  0
  7  8  1  6
  7  9  1  0
  9 10  1  0
 11 10  1  1
 11 12  1  0
 12 13  1  1
 13 14  1  0
 13 15  1  0
  6  2  1  0
 13 11  1  0
 12  3  1  0
M  END
>  <identifier>  (598) 
CNP0128955.1

>  <canonical_smiles>  (598) 
CC1=C2[C@H](CC1)[C@H](C)CC[C@@H]1[C@H]2C1(C)C

>  <standard_inchi>  (598) 
InChI=1S/C15H24/c1-9-6-8-12-14(15(12,3)4)13-10(2)5-7-11(9)13/h9,11-12,14H,5-8H2,1-4H3/t9-,11-,12-,14-/m1/s1

>  <standard_inchi_key>  (598) 
SPCXZDDGSGTVAW-XIDUGBJDSA-N

>  <name>  (598) 
alpha-Gurjunene

>  <iupac_name>  (598) 
(1~{a}~{R},4~{R},4~{a}~{R},7~{b}~{S})-1,1,4,7-tetramethyl-1~{a},2,3,4,4~{a},5,6,7~{b}-octahydrocyclopropa[e]azulene

>  <annotation_level>  (598) 
5

>  <total_atom_count>  (598) 
39

>  <heavy_atom_count>  (598) 
15

>  <molecular_weight>  (598) 
204.36

>  <exact_molecular_weight>  (598) 
204.1878

>  <molecular_formula>  (598) 
C15H24

>  <alogp>  (598) 
4.42

>  <topological_polar_surface_area>  (598) 
0.00

>  <rotatable_bond_count>  (598) 
0

>  <hydrogen_bond_acceptors>  (598) 
0

>  <hydrogen_bond_donors>  (598) 
0

>  <hydrogen_bond_acceptors_lipinski>  (598) 
0

>  <hydrogen_bond_donors_lipinski>  (598) 
0

>  <lipinski_rule_of_five_violations>  (598) 
0

>  <aromatic_rings_count>  (598) 
0

>  <qed_drug_likeliness>  (598) 
0.51

>  <formal_charge>  (598) 
0

>  <fractioncsp3>  (598) 
0.87

>  <number_of_minimal_rings>  (598) 
3

>  <van_der_walls_volume>  (598) 
223.29

>  <contains_sugar>  (598) 
False

>  <contains_ring_sugars>  (598) 
False

>  <contains_linear_sugars>  (598) 
False

>  <murcko_framework>  (598) 
C1=C2C(CC1)CCCC3CC23

>  <np_likeness>  (598) 
2.69

>  <chemical_class>  (598) 
Polycyclic hydrocarbons

>  <chemical_sub_class>  (598) 
Polycyclic hydrocarbons

>  <chemical_super_class>  (598) 
Hydrocarbons

>  <direct_parent_classification>  (598) 
Polycyclic hydrocarbons

>  <np_classifier_pathway>  (598) 
Terpenoids

>  <np_classifier_superclass>  (598) 
Sesquiterpenoids

>  <np_classifier_class>  (598) 
Aromadendrane sesquiterpenoids

>  <np_classifier_is_glycoside>  (598) 
False

>  <organisms>  (598) 
Acorus calamus|Aloysia citriodora|Aloysia citrodora|Aloysia triphylla|Alstonia muelleriana|Amphimedon terpenensis|Angelica dahurica|Annona reticulata|Anthyllis hermanniae|Apium graveolens|Aristolochia elegans|Aristolochia littoralis|Artemisia|Artemisia cina|Artemisia vulgaris|Arum maculatum|Ascocoryne sarcoides|Astilbe odontophylla|Austromyrtus dulcis|Azadirachta indica|Baccharis articulata|Baccharis rufescens|Balsamum tolutanum|Barbarea vulgaris subsp. arcuata|Beilschmiedia pendula|Cannabis sativa|Cinnamomum parthenoxylon|Cistus creticus|Cistus ladanifer|Cistus laurifolius|Cistus monspeliensis|Clerodendrum brachyanthum|Commiphora sphaerocarpa|Coreopsis nodosa|Croton adenocalyx|Croton sonderianus|Cryptocarya triplinervis|Culcitium canescens|Cynanchum sibiricum|Cyperus rotundus|Cyperus rotundus L.|Dacrydium cupressinum|Daucus carota|Diospyros heterotricha|Dipterocarpus dyeri|Dipterocarpus kerrii|Duguetia confinis|Elaeocarpus dolichostylus|Elsholtzia fruticosa|Eucalyptus angulosa|Eucalyptus behriana|Eucalyptus ceratocorys|Eucalyptus cloeziana|Eucalyptus cuprea|Eucalyptus dolichorhyncha|Eucalyptus fasciculosa|Eucalyptus forrestiana|Eucalyptus globulus|Eucalyptus incrassata|Eucalyptus intertexta|Eucalyptus lansdowneana|Eucalyptus leucoxylon|Eucalyptus maidenii|Eucalyptus melanophloia|Eucalyptus nova-anglica|Eucalyptus ochrophloia|Eucalyptus odorata|Eucalyptus populnea|Eucalyptus porosa|Eucalyptus sparsa|Eucalyptus stoatei|Eucalyptus tetraptera|Eucalyptus viridis|Euphorbia officinarum subsp. echinus|Glehnia littoralis|Glycine tomentella|Grindelia hirsutula|Guarea macrophylla ssp.tuberculata|Haematococcus lacustris|Hedyosmum costaricense|Helichrysum bracteiferum|Helichrysum nudifolium|Helichrysum odoratissimum|Helichrysum stoechas|Humulus lupulus|Hydnocarpus venenata|Hypericum hircinum|Hypoestes phyllostachya|Hypoxylon rubiginosum|Hyssopus officinalis|Kaempferia galanga|Lamna ditropis|Lavandula latifolia|Lecanora rupicola|Lepechinia chamaedryoides|Lepechinia chilensis|Lepechinia floribunda|Leptospermum scoparium|Lilium medeoloides|Limonia crenulata|Lycopodium casuarinoides|Macleaya cordata|Manekia naranjoana|Mangifera indica|Melaleuca alternifolia|Melaleuca leucadendra|Melaleuca quinquenervia|Menyanthes trifoliata|Micromeria sinaica|Murraya gleniei|Murraya paniculata|Mycale cecilia|Myrcia tricona|Nepeta viscida|Nicotiana undulata|Ocotea austinii|Ocotea gomezii|Osbornia octodonta|Ozothamnus adnatus|Ozothamnus bilobus|Panax ginseng|Panax notoginseng|Panax schinseng|Parmelia barbata|Passiflora incarnata|Pelargonium quercifolium|Pimenta racemosa|Piper arboreum|Piper augustum|Piper fimbriulatum|Piper gaudichaudianum|Piper nigrum|Piper obliquum|Piptocarpha chontalensis|Plagiochila rutilans var. moritziana|Podachaenium eminens|Pogostemon cablin|Porella canariensis|Pseudowintera colorata|Psidium guajava|Pterocladiella tenuis|Reinwardtiodendron anamalaiense|Rhaponticum carthamoides|Roccella tinctoria|Saccharomyces pastori|Salvia dorisiana|Salvia officinalis|Salvia reuteriana|Sambucus nigra|Santolina chamaecyparissus|Schinus molle|Senecio linearifolius|Senecio paludaffinis|Senegalia tenuifolia|Sideritis lyciae|Solanum lycopersicum|Solidago gigantea|Stockwellia|Streptomyces|Streptomyces flocculus|Streptomyces sp. strain GWS-BW-H5|Syzygium nervosum|Tachigalia paniculata|Tersonia brevipes|Teucrium pestalozzae|Thermotoga maritima|Thymus kosteletzkyanus|Thymus marschallianus|Thymus pannonicus|Thymus pulegioides|Toona ciliata|Trigonella grandiflora|Tripolium pannonicum|Usnea magellanica|Uvaria calamistrata|Uvaria chamae|Uvaria narum|Valeriana officinalis|Vitex agnus-castus|Vitex negundo|West African Pepper|Xylopia sericea|Zingiber officinale|common myrtle|potato|water mint

>  <collections>  (598) 
Australian natural products|CMAUP (cCollective molecular activities of useful plants)|ChEBI NPs|EMNPD|ETM (Ethiopian Traditional Medicine) DB|FooDB|KNApSaCK|Latin America dataset|NAPRORE-CR|NPASS|NPAtlas|NuBBEDB|Super Natural II|TCMDB-Taiwan (Traditional Chinese Medicine database)|WikiData Natural Products

>  <dois>  (598) 
10.1002/(SICI)1097-0231(199608)10:11<1345::AID-RCM631>3.0.CO;2-4|10.1002/(SICI)1099-1026(199907/08)14:4<230::AID-FFJ816>3.0.CO;2-L|10.1002/1099-1026(200005/06)15:3<201::AID-FFJ893>3.0.CO;2-I|10.1002/1099-1026(200101/02)16:1<19::AID-FFJ940>3.0.CO;2-U|10.1002/CBDV.200590062|10.1002/FFJ.1547|10.1002/FFJ.2730090305|10.1002/FFJ.2730100203|10.1002/FFJ.2730100605|10.1002/JSFA.2740130304|10.1002/JSSC.200800253|10.1002/RCM.1290091307|10.1002/cbdv.200590062|10.1002/ffj.2730030109|10.1006/JFCA.1999.0841|10.1007/BF00568367|10.1007/BF00579141|10.1007/BF01014715|10.1016/0031-9422(73)80686-7|10.1016/0031-9422(83)85052-3|10.1016/0031-9422(89)80048-2|10.1016/0031-9422(90)85106-P|10.1016/0031-9422(91)83064-R|10.1016/0031-9422(95)00492-P|10.1016/0305-1978(95)00026-Q|10.1016/J.CHROMA.2007.12.011|10.1016/J.FOODCHEM.2008.09.107|10.1016/J.FOODCHEM.2012.09.111|10.1016/J.FOODCHEM.2015.11.033|10.1016/J.FOODCHEM.2018.09.082|10.1016/J.FOODRES.2018.12.054|10.1016/J.PHYTOCHEM.2003.08.004|10.1016/J.PHYTOCHEM.2004.03.019|10.1016/J.PHYTOCHEM.2006.04.025|10.1016/J.PHYTOCHEM.2008.12.018|10.1016/J.PHYTOCHEM.2009.06.013|10.1016/S0021-9673(01)90672-7|10.1016/S0031-9422(00)81445-4|10.1016/S0031-9422(00)83061-7|10.1016/S0031-9422(00)88733-6|10.1016/S0031-9422(00)97558-7|10.1016/S0031-9422(00)98249-9|10.1016/S0031-9422(96)00749-2|10.1016/S0031-9422(97)00400-7|10.1016/S0031-9422(97)00762-0|10.1016/S0031-9422(99)00601-9|10.1016/S0367-326X(01)00367-7|10.1021/JF00034A020|10.1021/JF00039A035|10.1021/JF00083A001|10.1021/JF00116A075|10.1021/JF00118A056|10.1021/JF010219C|10.1021/JF0402633|10.1021/JF040437G|10.1021/JF60222A026|10.1021/JF981170M|10.1021/JO00200A028|10.1021/JO040272A|10.1021/NP030475E|10.1021/NP50008A001|10.1021/NP50048A037|10.1055/S-2003-39704|10.1055/S-2006-957433|10.1055/S-2006-957488|10.1055/S-2006-957641|10.1055/S-2006-957814|10.1055/S-2006-959580|10.1055/S-2006-961452|10.1055/S-2006-961490|10.1080/10412905.1990.9697829|10.1080/10412905.1990.9697840|10.1080/10412905.1990.9697845|10.1080/10412905.1991.9697952|10.1080/10412905.1991.9697953|10.1080/10412905.1992.9698006|10.1080/10412905.1992.9698101|10.1080/10412905.1992.9698112|10.1080/10412905.1992.9698125|10.1080/10412905.1992.9698155|10.1080/10412905.1993.9698162|10.1080/10412905.1993.9698235|10.1080/10412905.1994.9698330|10.1080/10412905.1994.9698395|10.1080/10412905.1994.9698428|10.1080/10412905.1994.9698440|10.1080/10412905.1994.9698446|10.1080/10412905.1994.9699366|10.1080/10412905.1995.9698462|10.1080/10412905.1995.9698496|10.1080/10412905.1995.9700529|10.1080/10412905.1996.9700559|10.1080/10412905.1997.9700774|10.1080/10412905.2000.9699486|10.1080/10412905.2000.9712171|10.1080/10412905.2003.9698598|10.1080/10412905.2004.9698744|10.1080/10412905.2007.9699946|10.1080/10412905.2010.9700320|10.1080/10412905.2013.796498|10.1080/10412905.2018.1431966|10.1080/14620316.2003.11511610|10.1080/14786410701848154|10.1177/1934578X1100600135|10.1271/NOGEIKAGAKU1924.67.1417|10.1365/S10337-008-0921-Y|10.1515/ZNC-1984-7-802|10.1515/ZNC-1999-3-402|10.1590/S0103-50532000000600012|10.1590/S0103-50532011000400018|10.17660/ACTAHORTIC.2005.679.1|10.3109/13880209109082877|10.3390/MOLECULES14082909|10.3390/MOLECULES24234244

>  <synonyms>  (598) 
(-)-alpha-Gurjunene|(1aR,4R,4aR,7bS)-1,1,4,7-tetramethyl-1a,2,3,4,4a,5,6,7b-octahydro-1H-cyclopropa[e]azulene|489-40-7|C19734|CHEBI:61699|DTXSID0052126|Gurjunene-alpha|Q27131296|SPCXZDDGSGTVAW-XIDUGBJDSA-N|\u221a\u00e9\u00ac\u00b1-Gurjunene|_-gurjunene|alpha-Gurjunene

>  <cas>  (598) 
489-40-7

$$$$

     RDKit          2D

 38 42  0  0  0  0  0  0  0  0999 V2000
    9.9732   -3.1811    0.0000 C   0  0  0  0  0  0  0  0  0  0  0  0
    8.4859   -2.9860    0.0000 C   0  0  0  0  0  0  0  0  0  0  0  0
    7.9113   -1.6004    0.0000 C   0  0  0  0  0  0  0  0  0  0  0  0
    8.8239   -0.4100    0.0000 C   0  0  0  0  0  0  0  0  0  0  0  0
    6.4240   -1.4053    0.0000 C   0  0  0  0  0  0  0  0  0  0  0  0
    5.5114   -2.5957    0.0000 O   0  0  0  0  0  0  0  0  0  0  0  0
    5.8494   -0.0197    0.0000 O   0  0  0  0  0  0  0  0  0  0  0  0
    4.3621    0.1754    0.0000 C   0  0  0  0  0  0  0  0  0  0  0  0
    3.4495   -1.0150    0.0000 C   0  0  0  0  0  0  0  0  0  0  0  0
    1.9623   -0.8199    0.0000 C   0  0  0  0  0  0  0  0  0  0  0  0
    1.3876    0.5657    0.0000 C   0  0  0  0  0  0  0  0  0  0  0  0
    0.4750   -0.6248    0.0000 C   0  0  0  0  0  0  0  0  0  0  0  0
   -0.0996    0.7608    0.0000 C   0  0  0  0  0  0  0  0  0  0  0  0
   -1.0122   -0.4297    0.0000 C   0  0  0  0  0  0  0  0  0  0  0  0
   -2.4995   -0.2345    0.0000 C   0  0  0  0  0  0  0  0  0  0  0  0
   -3.0741    1.1510    0.0000 C   0  0  0  0  0  0  0  0  0  0  0  0
   -4.1062    0.0625    0.0000 C   0  0  0  0  0  0  0  0  0  0  0  0
   -4.4883    1.6511    0.0000 C   0  0  0  0  0  0  0  0  0  0  0  0
   -5.7241    0.8009    0.0000 C   0  0  0  0  0  0  0  0  0  0  0  0
   -7.0783    1.4461    0.0000 C   0  0  0  0  0  0  0  0  0  0  0  0
   -5.6058   -0.6944    0.0000 C   0  0  0  0  0  0  0  0  0  0  0  0
   -6.8416   -1.5446    0.0000 C   0  0  0  0  0  0  0  0  0  0  0  0
   -6.7232   -3.0399    0.0000 C   0  0  0  0  0  0  0  0  0  0  0  0
   -7.9590   -3.8900    0.0000 C   0  0  0  0  0  0  0  0  0  0  0  0
   -5.3691   -3.6850    0.0000 C   0  0  0  0  0  0  0  0  0  0  0  0
   -5.2507   -5.1804    0.0000 C   0  0  0  0  0  0  0  0  0  0  0  0
   -4.1332   -2.8349    0.0000 C   0  0  0  0  0  0  0  0  0  0  0  0
   -4.4497    3.1506    0.0000 C   0  0  0  0  0  0  0  0  0  0  0  0
   -3.0117    3.5773    0.0000 C   0  0  0  0  0  0  0  0  0  0  0  0
   -2.1615    2.3415    0.0000 C   0  0  0  0  0  0  0  0  0  0  0  0
   -1.3784    3.6208    0.0000 C   0  0  0  0  0  0  0  0  0  0  0  0
   -0.6743    2.1463    0.0000 C   0  0  0  0  0  0  0  0  0  0  0  0
    0.2383    3.3368    0.0000 C   0  0  0  0  0  0  0  0  0  0  0  0
    1.7256    3.1417    0.0000 C   0  0  0  0  0  0  0  0  0  0  0  0
    2.3002    1.7561    0.0000 C   0  0  0  0  0  0  0  0  0  0  0  0
    3.7875    1.5610    0.0000 C   0  0  0  0  0  0  0  0  0  0  0  0
    3.7214    3.0595    0.0000 C   0  0  0  0  0  0  0  0  0  0  0  0
    5.2518    1.8863    0.0000 C   0  0  0  0  0  0  0  0  0  0  0  0
  1  2  1  0
  2  3  2  0
  3  4  1  0
  3  5  1  0
  5  6  2  0
  5  7  1  0
  8  7  1  1
  8  9  1  0
  9 10  1  0
 11 10  1  6
 11 12  1  0
 13 12  1  1
 13 14  1  0
 14 15  1  0
 15 16  1  0
 16 17  1  1
 16 18  1  0
 18 19  1  0
 19 20  1  0
 19 21  1  0
 21 22  1  0
 22 23  1  0
 23 24  1  0
 23 25  1  0
 25 26  1  0
 25 27  1  0
 18 28  1  0
 28 29  1  0
 29 30  1  0
 30 31  1  6
 30 32  1  0
 32 33  1  0
 33 34  1  0
 34 35  1  0
 35 36  1  0
 36 37  1  0
 36 38  1  0
 36  8  1  0
 13 11  1  0
 30 16  1  0
 35 11  1  0
 32 13  1  0
M  END
>  <identifier>  (599) 
CNP0080451.1

>  <canonical_smiles>  (599) 
C/C=C(\C)C(=O)O[C@H]1CC[C@]23C[C@]24CC[C@]2(C)C(C(C)CCC(C)C(C)C)CC[C@@]2(C)C4CCC3C1(C)C

>  <standard_inchi>  (599) 
InChI=1S/C36H60O2/c1-11-24(4)31(37)38-30-17-19-35-22-36(35)21-20-33(9)27(26(6)13-12-25(5)23(2)3)16-18-34(33,10)29(36)15-14-28(35)32(30,7)8/h11,23,25-30H,12-22H2,1-10H3/b24-11+/t25?,26?,27?,28?,29?,30-,33+,34-,35+,36-/m0/s1

>  <standard_inchi_key>  (599) 
BEXLAOPOGKVRPK-RPZSTHFOSA-N

>  <name>  (599) 
nan

>  <iupac_name>  (599) 
[(1~{S},3~{R},6~{S},12~{S},16~{R})-7,7,12,16-tetramethyl-15-(1,4,5-trimethylhexyl)-6-pentacyclo[9.7.0.0^{1,3}.0^{3,8}.0^{12,16}]octadecanyl] (~{E})-2-methylbut-2-enoate

>  <annotation_level>  (599) 
4

>  <total_atom_count>  (599) 
98

>  <heavy_atom_count>  (599) 
38

>  <molecular_weight>  (599) 
524.87

>  <exact_molecular_weight>  (599) 
524.45933

>  <molecular_formula>  (599) 
C36H60O2

>  <alogp>  (599) 
10.01

>  <topological_polar_surface_area>  (599) 
26.30

>  <rotatable_bond_count>  (599) 
7

>  <hydrogen_bond_acceptors>  (599) 
2

>  <hydrogen_bond_donors>  (599) 
0

>  <hydrogen_bond_acceptors_lipinski>  (599) 
2

>  <hydrogen_bond_donors_lipinski>  (599) 
0

>  <lipinski_rule_of_five_violations>  (599) 
2

>  <aromatic_rings_count>  (599) 
0

>  <qed_drug_likeliness>  (599) 
0.24

>  <formal_charge>  (599) 
0

>  <fractioncsp3>  (599) 
0.92

>  <number_of_minimal_rings>  (599) 
5

>  <van_der_walls_volume>  (599) 
nan

>  <contains_sugar>  (599) 
False

>  <contains_ring_sugars>  (599) 
False

>  <contains_linear_sugars>  (599) 
False

>  <murcko_framework>  (599) 
C1CCC23CC43CCC5CCCC5C4CCC2C1

>  <np_likeness>  (599) 
3.04

>  <chemical_class>  (599) 
Steroids and steroid derivatives

>  <chemical_sub_class>  (599) 
Cycloartanols and derivatives

>  <chemical_super_class>  (599) 
Lipids and lipid-like molecules

>  <direct_parent_classification>  (599) 
Cycloartanols and derivatives

>  <np_classifier_pathway>  (599) 
Terpenoids

>  <np_classifier_superclass>  (599) 
Triterpenoids

>  <np_classifier_class>  (599) 
Cycloartane triterpenoids

>  <np_classifier_is_glycoside>  (599) 
False

>  <organisms>  (599) 
Almeidea coerulea|Conchocarpus coeruleus

>  <collections>  (599) 
Latin America dataset|NuBBEDB|WikiData Natural Products

>  <dois>  (599) 
10.1590/S0103-50531998000100007

>  <synonyms>  (599) 
3b-O-tiglyl-24-metilcicloartanol

>  <cas>  (599) 
nan

$$$$

     RDKit          2D

 46 48  0  0  0  0  0  0  0  0999 V2000
   -2.0313    6.7126    0.0000 C   0  0  0  0  0  0  0  0  0  0  0  0
   -1.0158    5.6086    0.0000 C   0  0  0  0  0  0  0  0  0  0  0  0
    0.4480    5.9361    0.0000 C   0  0  0  0  0  0  0  0  0  0  0  0
    0.8963    7.3676    0.0000 C   0  0  0  0  0  0  0  0  0  0  0  0
    1.4635    4.8321    0.0000 C   0  0  0  0  0  0  0  0  0  0  0  0
    1.0152    3.4007    0.0000 C   0  0  0  0  0  0  0  0  0  0  0  0
    2.0307    2.2967    0.0000 C   0  0  0  0  0  0  0  0  0  0  0  0
    2.9416    3.4885    0.0000 C   0  0  0  0  0  0  0  0  0  0  0  0
    0.7672    1.4884    0.0000 C   0  0  0  0  0  0  0  0  0  0  0  0
   -0.5647    2.1784    0.0000 C   0  0  0  0  0  0  0  0  0  0  0  0
    0.8355   -0.0101    0.0000 C   0  0  0  0  0  0  0  0  0  0  0  0
   -0.4281   -0.8185    0.0000 O   0  0  0  0  0  0  0  0  0  0  0  0
   -1.7599   -0.1284    0.0000 C   0  0  0  0  0  0  0  0  0  0  0  0
   -1.8282    1.3700    0.0000 O   0  0  0  0  0  0  0  0  0  0  0  0
   -3.0234   -0.9368    0.0000 C   0  0  0  0  0  0  0  0  0  0  0  0
   -4.3553   -0.2467    0.0000 C   0  0  0  0  0  0  0  0  0  0  0  0
   -5.6188   -1.0551    0.0000 C   0  0  0  0  0  0  0  0  0  0  0  0
   -6.9507   -0.3650    0.0000 C   0  0  0  0  0  0  0  0  0  0  0  0
   -8.2142   -1.1734    0.0000 C   0  0  0  0  0  0  0  0  0  0  0  0
   -9.5461   -0.4833    0.0000 C   0  0  0  0  0  0  0  0  0  0  0  0
  -10.8096   -1.2917    0.0000 C   0  0  0  0  0  0  0  0  0  0  0  0
  -12.1414   -0.6016    0.0000 C   0  0  0  0  0  0  0  0  0  0  0  0
  -13.4050   -1.4100    0.0000 C   0  0  0  0  0  0  0  0  0  0  0  0
    2.1673   -0.7002    0.0000 C   0  0  0  0  0  0  0  0  0  0  0  0
    2.2356   -2.1986    0.0000 O   0  0  0  0  0  0  0  0  0  0  0  0
    0.9721   -3.0070    0.0000 C   0  0  0  0  0  0  0  0  0  0  0  0
    1.0404   -4.5054    0.0000 C   0  0  0  0  0  0  0  0  0  0  0  0
   -0.4872   -2.6597    0.0000 O   0  0  0  0  0  0  0  0  0  0  0  0
    3.4309    0.1082    0.0000 C   0  0  0  0  0  0  0  0  0  0  0  0
    4.7627   -0.5818    0.0000 C   0  0  0  0  0  0  0  0  0  0  0  0
    6.0262    0.2265    0.0000 C   0  0  0  0  0  0  0  0  0  0  0  0
    5.9579    1.7250    0.0000 C   0  0  0  0  0  0  0  0  0  0  0  0
    7.2215    2.5334    0.0000 O   0  0  0  0  0  0  0  0  0  0  0  0
    4.6261    2.4150    0.0000 C   0  0  0  0  0  0  0  0  0  0  0  0
    3.3625    1.6067    0.0000 C   0  0  0  0  0  0  0  0  0  0  0  0
    4.5180   -2.0617    0.0000 C   0  0  0  0  0  0  0  0  0  0  0  0
    5.5714   -3.1296    0.0000 O   0  0  0  0  0  0  0  0  0  0  0  0
    5.1733   -4.5758    0.0000 C   0  0  0  0  0  0  0  0  0  0  0  0
    6.2267   -5.6437    0.0000 C   0  0  0  0  0  0  0  0  0  0  0  0
    3.7218   -4.9542    0.0000 O   0  0  0  0  0  0  0  0  0  0  0  0
    3.0349   -2.2863    0.0000 O   0  0  0  0  0  0  0  0  0  0  0  0
    2.3630   -0.9452    0.0000 C   0  0  0  0  0  0  0  0  0  0  0  0
    0.8831   -0.7005    0.0000 O   0  0  0  0  0  0  0  0  0  0  0  0
   -0.0688   -1.8597    0.0000 C   0  0  0  0  0  0  0  0  0  0  0  0
   -1.5487   -1.6150    0.0000 C   0  0  0  0  0  0  0  0  0  0  0  0
    0.1038   -3.3498    0.0000 O   0  0  0  0  0  0  0  0  0  0  0  0
  1  2  2  0
  2  3  1  0
  3  4  1  0
  3  5  2  0
  5  6  1  0
  6  7  1  0
  7  8  1  6
  7  9  1  0
  9 10  1  1
  9 11  1  0
 11 12  1  6
 12 13  1  0
 13 14  2  0
 13 15  1  0
 15 16  1  0
 16 17  1  0
 17 18  1  0
 18 19  1  0
 19 20  1  0
 20 21  1  0
 21 22  1  0
 22 23  1  0
 11 24  1  0
 24 25  1  1
 25 26  1  0
 26 27  1  0
 26 28  2  0
 24 29  1  0
 29 30  1  6
 30 31  2  0
 31 32  1  0
 32 33  1  1
 32 34  1  0
 35 34  1  6
 30 36  1  0
 36 37  1  1
 37 38  1  0
 38 39  1  0
 38 40  2  0
 36 41  1  0
 41 42  1  0
 42 43  1  1
 43 44  1  0
 44 45  1  0
 44 46  2  0
 35  7  1  0
 35 29  1  0
 42 29  1  0
M  END
>  <identifier>  (600) 
CNP0308172.1

>  <canonical_smiles>  (600) 
C=C/C(C)=C\C[C@]1(C)[C@H](C)[C@@H](OC(=O)CCCCCCCCC)[C@H](OC(C)=O)[C@@]23C(=C[C@H](O)C[C@@H]12)[C@@H](OC(C)=O)O[C@H]3OC(C)=O

>  <standard_inchi>  (600) 
InChI=1S/C36H54O10/c1-9-11-12-13-14-15-16-17-30(41)45-31-23(4)35(8,19-18-22(3)10-2)29-21-27(40)20-28-33(43-25(6)38)46-34(44-26(7)39)36(28,29)32(31)42-24(5)37/h10,18,20,23,27,29,31-34,40H,2,9,11-17,19,21H2,1,3-8H3/b22-18-/t23-,27+,29+,31-,32+,33+,34-,35-,36-/m1/s1

>  <standard_inchi_key>  (600) 
CNNXOEYBWDNYRL-NPEXCWITSA-N

>  <name>  (600) 
nan

>  <iupac_name>  (600) 
[(1~{S},3~{R},5~{R},6~{a}~{S},7~{S},8~{S},9~{R},10~{R},10~{a}~{S})-1,3,10-triacetoxy-5-hydroxy-7,8-dimethyl-7-[(2~{Z})-3-methylpenta-2,4-dienyl]-1,3,5,6,6~{a},8,9,10-octahydrobenzo[d]isobenzofuran-9-yl] decanoate

>  <annotation_level>  (600) 
5

>  <total_atom_count>  (600) 
100

>  <heavy_atom_count>  (600) 
46

>  <molecular_weight>  (600) 
646.82

>  <exact_molecular_weight>  (600) 
646.3717

>  <molecular_formula>  (600) 
C36H54O10

>  <alogp>  (600) 
6.25

>  <topological_polar_surface_area>  (600) 
134.66

>  <rotatable_bond_count>  (600) 
15

>  <hydrogen_bond_acceptors>  (600) 
10

>  <hydrogen_bond_donors>  (600) 
1

>  <hydrogen_bond_acceptors_lipinski>  (600) 
10

>  <hydrogen_bond_donors_lipinski>  (600) 
1

>  <lipinski_rule_of_five_violations>  (600) 
2

>  <aromatic_rings_count>  (600) 
0

>  <qed_drug_likeliness>  (600) 
0.07

>  <formal_charge>  (600) 
0

>  <fractioncsp3>  (600) 
0.72

>  <number_of_minimal_rings>  (600) 
3

>  <van_der_walls_volume>  (600) 
620.38

>  <contains_sugar>  (600) 
False

>  <contains_ring_sugars>  (600) 
False

>  <contains_linear_sugars>  (600) 
False

>  <murcko_framework>  (600) 
O1CC2=CCCC3CCCCC23C1

>  <np_likeness>  (600) 
2.82

>  <chemical_class>  (600) 
Prenol lipids

>  <chemical_sub_class>  (600) 
Diterpenoids

>  <chemical_super_class>  (600) 
Lipids and lipid-like molecules

>  <direct_parent_classification>  (600) 
Colensane and clerodane diterpenoids

>  <np_classifier_pathway>  (600) 
Terpenoids

>  <np_classifier_superclass>  (600) 
Diterpenoids

>  <np_classifier_class>  (600) 
Colensane and Clerodane diterpenoids

>  <np_classifier_is_glycoside>  (600) 
True

>  <organisms>  (600) 
Casearia sylvestris

>  <collections>  (600) 
ChemSpider NPs|Latin America dataset|NuBBEDB|Super Natural II|WikiData Natural Products|ZINC NP

>  <dois>  (600) 
10.1002/PCA.902|10.1002/pca.902|10.1248/CPB.38.3384

>  <synonyms>  (600) 
Casearin C

>  <cas>  (600) 
nan

$$$$

     RDKit          2D

 21 22  0  0  0  0  0  0  0  0999 V2000
   -5.4094   -3.4932    0.0000 C   0  0  0  0  0  0  0  0  0  0  0  0
   -4.1045   -2.7534    0.0000 O   0  0  0  0  0  0  0  0  0  0  0  0
   -4.0927   -1.2535    0.0000 C   0  0  0  0  0  0  0  0  0  0  0  0
   -5.3858   -0.4933    0.0000 C   0  0  0  0  0  0  0  0  0  0  0  0
   -5.3740    1.0067    0.0000 C   0  0  0  0  0  0  0  0  0  0  0  0
   -6.6670    1.7669    0.0000 O   0  0  0  0  0  0  0  0  0  0  0  0
   -4.0690    1.7464    0.0000 C   0  0  0  0  0  0  0  0  0  0  0  0
   -2.7760    0.9862    0.0000 C   0  0  0  0  0  0  0  0  0  0  0  0
   -1.4710    1.7259    0.0000 C   0  0  0  0  0  0  0  0  0  0  0  0
   -0.1780    0.9657    0.0000 C   0  0  0  0  0  0  0  0  0  0  0  0
    1.1269    1.7055    0.0000 C   0  0  0  0  0  0  0  0  0  0  0  0
    2.4200    0.9452    0.0000 C   0  0  0  0  0  0  0  0  0  0  0  0
    2.4082   -0.5547    0.0000 C   0  0  0  0  0  0  0  0  0  0  0  0
    3.7013   -1.3149    0.0000 C   0  0  0  0  0  0  0  0  0  0  0  0
    5.0062   -0.5752    0.0000 C   0  0  0  0  0  0  0  0  0  0  0  0
    6.2993   -1.3354    0.0000 O   0  0  0  0  0  0  0  0  0  0  0  0
    6.2874   -2.8354    0.0000 C   0  0  0  0  0  0  0  0  0  0  0  0
    5.0180    0.9247    0.0000 C   0  0  0  0  0  0  0  0  0  0  0  0
    6.3229    1.6645    0.0000 O   0  0  0  0  0  0  0  0  0  0  0  0
    3.7249    1.6850    0.0000 C   0  0  0  0  0  0  0  0  0  0  0  0
   -2.7878   -0.5137    0.0000 C   0  0  0  0  0  0  0  0  0  0  0  0
  1  2  1  0
  2  3  1  0
  3  4  2  0
  4  5  1  0
  5  6  1  0
  5  7  2  0
  7  8  1  0
  8  9  1  0
  9 10  1  0
 10 11  1  0
 11 12  1  0
 12 13  2  0
 13 14  1  0
 14 15  2  0
 15 16  1  0
 16 17  1  0
 15 18  1  0
 18 19  1  0
 18 20  2  0
  8 21  2  0
 21  3  1  0
 20 12  1  0
M  END
>  <identifier>  (601) 
CNP0093914.0

>  <canonical_smiles>  (601) 
COC1=CC(O)=CC(CCCC2=CC=C(OC)C(O)=C2)=C1

>  <standard_inchi>  (601) 
InChI=1S/C17H20O4/c1-20-15-9-13(8-14(18)11-15)5-3-4-12-6-7-17(21-2)16(19)10-12/h6-11,18-19H,3-5H2,1-2H3

>  <standard_inchi_key>  (601) 
DYLPKNAVLXTQMH-UHFFFAOYSA-N

>  <name>  (601) 
nan

>  <iupac_name>  (601) 
5-[3-(3-hydroxy-5-methoxy-phenyl)propyl]-2-methoxy-phenol

>  <annotation_level>  (601) 
4

>  <total_atom_count>  (601) 
41

>  <heavy_atom_count>  (601) 
21

>  <molecular_weight>  (601) 
288.34

>  <exact_molecular_weight>  (601) 
288.13616

>  <molecular_formula>  (601) 
C17H20O4

>  <alogp>  (601) 
3.29

>  <topological_polar_surface_area>  (601) 
58.92

>  <rotatable_bond_count>  (601) 
6

>  <hydrogen_bond_acceptors>  (601) 
4

>  <hydrogen_bond_donors>  (601) 
2

>  <hydrogen_bond_acceptors_lipinski>  (601) 
4

>  <hydrogen_bond_donors_lipinski>  (601) 
2

>  <lipinski_rule_of_five_violations>  (601) 
0

>  <aromatic_rings_count>  (601) 
2

>  <qed_drug_likeliness>  (601) 
0.86

>  <formal_charge>  (601) 
0

>  <fractioncsp3>  (601) 
0.29

>  <number_of_minimal_rings>  (601) 
2

>  <van_der_walls_volume>  (601) 
nan

>  <contains_sugar>  (601) 
False

>  <contains_ring_sugars>  (601) 
False

>  <contains_linear_sugars>  (601) 
False

>  <murcko_framework>  (601) 
c1ccc(cc1)CCCc2ccccc2

>  <np_likeness>  (601) 
0.76

>  <chemical_class>  (601) 
Linear 1,3-diarylpropanoids

>  <chemical_sub_class>  (601) 
Cinnamylphenols

>  <chemical_super_class>  (601) 
Phenylpropanoids and polyketides

>  <direct_parent_classification>  (601) 
Cinnamylphenols

>  <np_classifier_pathway>  (601) 
nan

>  <np_classifier_superclass>  (601) 
nan

>  <np_classifier_class>  (601) 
nan

>  <np_classifier_is_glycoside>  (601) 
False

>  <organisms>  (601) 
Virola multinervia

>  <collections>  (601) 
Latin America dataset|NuBBEDB|WikiData Natural Products|ZINC NP

>  <dois>  (601) 
10.1016/S0031-9422(00)88981-5

>  <synonyms>  (601) 
1-(4'-Hydroxy-2'-methoxyphenyl)-3-(3'-hydroxy-4-methoxyphenyl)-propane

>  <cas>  (601) 
nan

$$$$

     RDKit          2D

 20 22  0  0  0  0  0  0  0  0999 V2000
    6.0607    2.7620    0.0000 C   0  0  0  0  0  0  0  0  0  0  0  0
    4.5866    2.4843    0.0000 O   0  0  0  0  0  0  0  0  0  0  0  0
    4.0901    1.0688    0.0000 C   0  0  0  0  0  0  0  0  0  0  0  0
    5.0676   -0.0689    0.0000 C   0  0  0  0  0  0  0  0  0  0  0  0
    4.5711   -1.4843    0.0000 C   0  0  0  0  0  0  0  0  0  0  0  0
    5.5486   -2.6220    0.0000 O   0  0  0  0  0  0  0  0  0  0  0  0
    3.0970   -1.7620    0.0000 O   0  0  0  0  0  0  0  0  0  0  0  0
    2.1195   -0.6243    0.0000 C   0  0  0  0  0  0  0  0  0  0  0  0
    0.6454   -0.9020    0.0000 C   0  0  0  0  0  0  0  0  0  0  0  0
   -0.3321    0.2357    0.0000 C   0  0  0  0  0  0  0  0  0  0  0  0
   -1.8062   -0.0420    0.0000 C   0  0  0  0  0  0  0  0  0  0  0  0
   -2.3027   -1.4574    0.0000 C   0  0  0  0  0  0  0  0  0  0  0  0
   -3.7768   -1.7351    0.0000 C   0  0  0  0  0  0  0  0  0  0  0  0
   -4.7543   -0.5974    0.0000 C   0  0  0  0  0  0  0  0  0  0  0  0
   -6.2539   -0.5625    0.0000 O   0  0  0  0  0  0  0  0  0  0  0  0
   -6.6842    0.8744    0.0000 C   0  0  0  0  0  0  0  0  0  0  0  0
   -5.4505    1.7277    0.0000 O   0  0  0  0  0  0  0  0  0  0  0  0
   -4.2578    0.8181    0.0000 C   0  0  0  0  0  0  0  0  0  0  0  0
   -2.7837    1.0958    0.0000 C   0  0  0  0  0  0  0  0  0  0  0  0
    2.6160    0.7911    0.0000 C   0  0  0  0  0  0  0  0  0  0  0  0
  1  2  1  0
  2  3  1  0
  3  4  2  0
  4  5  1  0
  5  6  2  0
  5  7  1  0
  7  8  1  0
  8  9  1  1
  9 10  1  0
 10 11  1  0
 11 12  2  0
 12 13  1  0
 13 14  2  0
 14 15  1  0
 15 16  1  0
 16 17  1  0
 17 18  1  0
 18 19  2  0
  8 20  1  0
 20  3  1  0
 19 11  1  0
 18 14  1  0
M  END
>  <identifier>  (602) 
CNP0211210.1

>  <canonical_smiles>  (602) 
COC1=CC(=O)O[C@@H](CCC2=CC=C3OCOC3=C2)C1

>  <standard_inchi>  (602) 
InChI=1S/C15H16O5/c1-17-12-7-11(20-15(16)8-12)4-2-10-3-5-13-14(6-10)19-9-18-13/h3,5-6,8,11H,2,4,7,9H2,1H3/t11-/m0/s1

>  <standard_inchi_key>  (602) 
RSIWXFIBHXYNFM-NSHDSACASA-N

>  <name>  (602) 
Dihydromethysticin

>  <iupac_name>  (602) 
(2~{S})-2-[2-(1,3-benzodioxol-5-yl)ethyl]-4-methoxy-2,3-dihydropyran-6-one

>  <annotation_level>  (602) 
5

>  <total_atom_count>  (602) 
36

>  <heavy_atom_count>  (602) 
20

>  <molecular_weight>  (602) 
276.29

>  <exact_molecular_weight>  (602) 
276.09977

>  <molecular_formula>  (602) 
C15H16O5

>  <alogp>  (602) 
2.19

>  <topological_polar_surface_area>  (602) 
53.99

>  <rotatable_bond_count>  (602) 
4

>  <hydrogen_bond_acceptors>  (602) 
5

>  <hydrogen_bond_donors>  (602) 
0

>  <hydrogen_bond_acceptors_lipinski>  (602) 
5

>  <hydrogen_bond_donors_lipinski>  (602) 
0

>  <lipinski_rule_of_five_violations>  (602) 
0

>  <aromatic_rings_count>  (602) 
1

>  <qed_drug_likeliness>  (602) 
0.79

>  <formal_charge>  (602) 
0

>  <fractioncsp3>  (602) 
0.40

>  <number_of_minimal_rings>  (602) 
3

>  <van_der_walls_volume>  (602) 
245.21

>  <contains_sugar>  (602) 
False

>  <contains_ring_sugars>  (602) 
False

>  <contains_linear_sugars>  (602) 
False

>  <murcko_framework>  (602) 
O1c2ccc(cc2OC1)CCC3OCC=CC3

>  <np_likeness>  (602) 
1.53

>  <chemical_class>  (602) 
Kavalactones

>  <chemical_sub_class>  (602) 
Kavalactones

>  <chemical_super_class>  (602) 
Phenylpropanoids and polyketides

>  <direct_parent_classification>  (602) 
Kavalactones

>  <np_classifier_pathway>  (602) 
Shikimates and Phenylpropanoids

>  <np_classifier_superclass>  (602) 
Styrylpyrones

>  <np_classifier_class>  (602) 
Kavalactones and derivatives

>  <np_classifier_is_glycoside>  (602) 
False

>  <organisms>  (602) 
Aniba gigantifolia|Aniba hostmanniana|Piper majusculum|Piper methysticum|Piper sp.

>  <collections>  (602) 
AnalytiCon Discovery NPs|CMAUP (cCollective molecular activities of useful plants)|ChEBI NPs|GNPS (Global Natural Products Social Molecular Networking)|KNApSaCK|Latin America dataset|NPASS|NPEdia|NuBBEDB|PhytoLab phyproof® Reference Substances|Super Natural II|TCMDB-Taiwan (Traditional Chinese Medicine database)|WikiData Natural Products

>  <dois>  (602) 
10.1002/1615-9314(20010101)24:1<35::AID-JSSC35>3.0.CO;2-Q|10.1002/JHRC.1240201007|10.1002/PTR.1107|10.1007/BF02866720|10.1016/0031-9422(73)85045-9|10.1016/0031-9422(83)85065-1|10.1016/0031-9422(96)00209-9|10.1016/J.CLPT.2005.01.009|10.1016/S0003-2670(96)00424-2|10.1016/S0021-9673(00)96265-4|10.1016/S0021-9673(01)00979-7|10.1016/S0021-9673(98)00699-2|10.1016/S0021-9673(99)00425-2|10.1016/S0031-9422(01)00443-5|10.1016/S0378-4347(97)00389-7|10.1016/S0896-8446(01)00110-3|10.1021/JF020049J|10.1021/JM50002A007|10.1055/S-2006-957606|10.1055/S-2006-957608|10.1078/0944-7113-00068|10.1078/0944711041495263|10.1081/JLC-120025423|10.1111/J.1440-1681.1990.TB01349.X

>  <synonyms>  (602) 
|(+)-Dihydromethysticin|(+)-Dihydromethysticin, analytical standard|(2S)-2-(2-(1,3-BENZODIOXOL-5-YL)ETHYL)-4-METHOXY-2,3-DIHYDROPYRAN-6-ONE|(2S)-2-[2-(1,3-benzodioxol-5-yl)ethyl]-4-methoxy-2,3-dihydropyran-6-one|(6S)-6-[2-(1,3-benzodioxol-5-yl)ethyl]-5,6-dihydro-4-methoxy-2H-pyran-2-one|(S)-6-(2-(benzo[d][1,3]dioxol-5-yl)ethyl)-4-methoxy-5,6-dihydro-2H-pyran-2-one|19902-91-1|2H-Pyran-2-one, 5,6-dihydro-4-methoxy-6-(3,4-(methylenedioxy)phenethyl)-, (S)-|2H-Pyran-2-one, 6-[2-(1,3-benzodioxol-5-yl)ethyl]-5,6-dihydro-4-methoxy-, (6S)-|7,8-Dihydromethysticin|AC-34189|ACon0_000957|ACon1_001371|AS-79324|BRD-K87171303-001-01-2|C09926|CCG-208398|CCRIS 9368|CHEBI:4573|CHEMBL576066|CS-4245|DTXSID601314143|Dihydromethysticin|Dihydromethysticin (VAN)|FZ66MQ73GS|HY-N0921|J-018462|MEGxp0_001718|MFCD00221731|Methysticin, 7,8-dihydro-|NCGC00180578-01|NPL90551-01|NS00097366|NSC 112159|Pseudomethysticin|Q-100244|Q5276438|SCHEMBL14524443|SR-05000002272|UNII-FZ66MQ73GS|dihydromethysticin|x-Methysticin

>  <cas>  (602) 
19902-91-1

$$$$

     RDKit          2D

 28 29  0  0  0  0  0  0  0  0999 V2000
    0.4480   -3.4582    0.0000 C   0  0  0  0  0  0  0  0  0  0  0  0
    1.6867   -2.6122    0.0000 C   0  0  0  0  0  0  0  0  0  0  0  0
    1.5734   -1.1165    0.0000 C   0  0  0  0  0  0  0  0  0  0  0  0
    0.2215   -0.4668    0.0000 C   0  0  0  0  0  0  0  0  0  0  0  0
   -1.0172   -1.3127    0.0000 O   0  0  0  0  0  0  0  0  0  0  0  0
   -2.3692   -0.6629    0.0000 C   0  0  0  0  0  0  0  0  0  0  0  0
   -2.4825    0.8328    0.0000 O   0  0  0  0  0  0  0  0  0  0  0  0
   -3.8344    1.4826    0.0000 C   0  0  0  0  0  0  0  0  0  0  0  0
   -3.9477    2.9783    0.0000 C   0  0  0  0  0  0  0  0  0  0  0  0
   -2.7090    3.8242    0.0000 O   0  0  0  0  0  0  0  0  0  0  0  0
   -5.0731    0.6366    0.0000 C   0  0  0  0  0  0  0  0  0  0  0  0
   -6.4251    1.2864    0.0000 O   0  0  0  0  0  0  0  0  0  0  0  0
   -4.9599   -0.8591    0.0000 C   0  0  0  0  0  0  0  0  0  0  0  0
   -6.1986   -1.7050    0.0000 O   0  0  0  0  0  0  0  0  0  0  0  0
   -3.6079   -1.5089    0.0000 C   0  0  0  0  0  0  0  0  0  0  0  0
   -3.4946   -3.0046    0.0000 O   0  0  0  0  0  0  0  0  0  0  0  0
    0.1082    1.0290    0.0000 O   0  0  0  0  0  0  0  0  0  0  0  0
    1.3469    1.8749    0.0000 C   0  0  0  0  0  0  0  0  0  0  0  0
    2.6989    1.2251    0.0000 C   0  0  0  0  0  0  0  0  0  0  0  0
    3.9376    2.0711    0.0000 C   0  0  0  0  0  0  0  0  0  0  0  0
    5.2895    1.4213    0.0000 O   0  0  0  0  0  0  0  0  0  0  0  0
    3.8243    3.5668    0.0000 O   0  0  0  0  0  0  0  0  0  0  0  0
    5.0630    4.4127    0.0000 C   0  0  0  0  0  0  0  0  0  0  0  0
    2.8121   -0.2706    0.0000 C   0  0  0  0  0  0  0  0  0  0  0  0
    4.1641   -0.9204    0.0000 C   0  0  0  0  0  0  0  0  0  0  0  0
    4.2773   -2.4161    0.0000 C   0  0  0  0  0  0  0  0  0  0  0  0
    3.0386   -3.2620    0.0000 O   0  0  0  0  0  0  0  0  0  0  0  0
    5.6293   -3.0659    0.0000 O   0  0  0  0  0  0  0  0  0  0  0  0
  1  2  2  0
  3  2  1  1
  3  4  1  0
  4  5  1  6
  6  5  1  1
  6  7  1  0
  7  8  1  0
  8  9  1  1
  9 10  1  0
  8 11  1  0
 11 12  1  6
 11 13  1  0
 13 14  1  1
 13 15  1  0
 15 16  1  6
  4 17  1  0
 17 18  1  0
 18 19  2  0
 19 20  1  0
 20 21  2  0
 20 22  1  0
 22 23  1  0
 19 24  1  0
 24 25  1  1
 25 26  1  0
 26 27  2  0
 26 28  1  0
 24  3  1  0
 15  6  1  0
M  END
>  <identifier>  (603) 
CNP0121282.1

>  <canonical_smiles>  (603) 
C=C[C@H]1[C@H](O[C@@H]2O[C@H](CO)[C@@H](O)[C@H](O)[C@H]2O)OC=C(C(=O)OC)[C@H]1CC(=O)O

>  <standard_inchi>  (603) 
InChI=1S/C17H24O11/c1-3-7-8(4-11(19)20)9(15(24)25-2)6-26-16(7)28-17-14(23)13(22)12(21)10(5-18)27-17/h3,6-8,10,12-14,16-18,21-23H,1,4-5H2,2H3,(H,19,20)/t7-,8+,10-,12-,13+,14-,16+,17+/m1/s1

>  <standard_inchi_key>  (603) 
MQLSOVRLZHTATK-PEYNGXJCSA-N

>  <name>  (603) 
Secoxyloganin

>  <iupac_name>  (603) 
2-[(2~{S},3~{R},4~{S})-5-methoxycarbonyl-2-[(2~{S},3~{R},4~{S},5~{S},6~{R})-3,4,5-trihydroxy-6-(hydroxymethyl)tetrahydropyran-2-yl]oxy-3-vinyl-3,4-dihydro-2~{H}-pyran-4-yl]acetic acid

>  <annotation_level>  (603) 
5

>  <total_atom_count>  (603) 
52

>  <heavy_atom_count>  (603) 
28

>  <molecular_weight>  (603) 
404.37

>  <exact_molecular_weight>  (603) 
404.13186

>  <molecular_formula>  (603) 
C17H24O11

>  <alogp>  (603) 
-1.89

>  <topological_polar_surface_area>  (603) 
172.21

>  <rotatable_bond_count>  (603) 
7

>  <hydrogen_bond_acceptors>  (603) 
10

>  <hydrogen_bond_donors>  (603) 
5

>  <hydrogen_bond_acceptors_lipinski>  (603) 
10

>  <hydrogen_bond_donors_lipinski>  (603) 
5

>  <lipinski_rule_of_five_violations>  (603) 
0

>  <aromatic_rings_count>  (603) 
0

>  <qed_drug_likeliness>  (603) 
0.24

>  <formal_charge>  (603) 
0

>  <fractioncsp3>  (603) 
0.65

>  <number_of_minimal_rings>  (603) 
2

>  <van_der_walls_volume>  (603) 
343.38

>  <contains_sugar>  (603) 
True

>  <contains_ring_sugars>  (603) 
True

>  <contains_linear_sugars>  (603) 
False

>  <murcko_framework>  (603) 
O1C=CCCC1OC2OCCCC2

>  <np_likeness>  (603) 
2.57

>  <chemical_class>  (603) 
Prenol lipids

>  <chemical_sub_class>  (603) 
Monoterpenoids

>  <chemical_super_class>  (603) 
Lipids and lipid-like molecules

>  <direct_parent_classification>  (603) 
Iridoids and derivatives

>  <np_classifier_pathway>  (603) 
Terpenoids

>  <np_classifier_superclass>  (603) 
Monoterpenoids

>  <np_classifier_class>  (603) 
Secoiridoid monoterpenoids

>  <np_classifier_is_glycoside>  (603) 
True

>  <organisms>  (603) 
Acacia aulacocarpa|Acicarpha tribuloides|Adina racemosa|Anemone flaccida|Ardisia neriifolia|Aspidosperma subincanum|Blumenbachia hieronymi|Caiophora chuquitensis|Caiophora coronata|Calycophyllum spruceanum|Catharanthus roseus|Citronella gongonha|Cornus officinalis|Cryptocarya aschersoniana|Dimocarpus fumatus|Eupatorium argentinum|Fagara ailanthoides|Fallopia multiflora|Guatteria boliviana|Guettarda platypoda|Guettarda pohliana|Hydrangea macrophylla|Juniperus brevifolia|Klaprothia mentzelioides|Lippia graveolens|Lippia origanoides|Loasa acanthifolia|Loasa acerifolia|Loasa heterophylla|Loasa illapelina|Loasa insons|Loasa nitida|Loasa pallida|Loasa tricolor|Loasa triloba|Lonicera Japonica|Lonicera caerulea|Lonicera confusa|Lonicera fulvotomentosa|Lonicera hypoglauca|Lonicera japonica|Lonicera macranthoides|Lonicera morrowii|Lonicera periclymenum|Lonicera sp.|Maesopsis eminii|Manulea altissima|Mentzelia sp.|Morinda coreia|Nasa chenopodiifolia|Nasa triphylla|Nasa urens|Nasa weberbaueri|Neolentinus lepideus|Olea europaea|Palicourea rigida|Peritassa compta|Phillyrea latifolia|Picconia excelsa|Plakothira parviflora|Portulaca okinawensis|Presliophytum arequipense|Presliophytum arequipensis|Presliophytum heucherifolia|Psiadia dentata|Rauwolfia serpentina|Rheedia acuminata|Scutellaria lateriflora|Scyphanthus elegans|Simira williamsii|Sinoadina racemosa|Strychnos lucida|Strychnos spinosa|Symphyocladia latiuscula|Torulopsis magnoliae|Trypetheliopsis boninensis|Xenia puertogalerae

>  <collections>  (603) 
AnalytiCon Discovery NPs|Australian natural products|CMAUP (cCollective molecular activities of useful plants)|ChEBI NPs|ChemSpider NPs|GNPS (Global Natural Products Social Molecular Networking)|KNApSaCK|Latin America dataset|NPASS|NuBBEDB|PhytoLab phyproof® Reference Substances|Super Natural II|TIPdb (database of Taiwan indigenous plants)|VietHerb|WikiData Natural Products|ZINC NP

>  <dois>  (603) 
10.1002/(SICI)1099-1573(199603)10:2<161::AID-PTR803>3.0.CO;2-B|10.1002/CHIN.200402178|10.1002/JSSC.201701516|10.1007/S11418-005-0021-3|10.1016/0031-9422(91)80018-V|10.1016/0031-9422(93)85259-T|10.1016/0305-1978(91)90041-W|10.1016/J.FOODCHEM.2012.10.127|10.1016/J.PHYTOCHEM.2014.10.004|10.1016/S0031-6989(88)80852-X|10.1016/S0031-9422(00)84094-7|10.1016/S0031-9422(01)00426-5|10.1016/S0031-9422(03)00153-5|10.1016/S0031-9422(97)00023-X|10.1016/S0031-9422(98)00194-0|10.1016/S0031-9422(98)00196-4|10.1016/S0031-9422(98)00744-4|10.1016/j.foodchem.2012.10.127|10.1016/j.phytochem.2013.09.021|10.1016/j.phytochem.2014.10.004|10.1021/NP030217H|10.1021/NP058062W|10.1021/NP50056A022|10.1021/NP800040K|10.1055/S-2006-961403|10.1076/PHBI.34.4.255.13230|10.1080/14786419.2012.761616|10.1186/S12864-015-1678-Y|10.1186/s12864-015-1678-y|10.1248/BPB.34.1330|10.1248/bpb.34.1330|10.1371/JOURNAL.PONE.0096214|10.1515/ZNC-2015-0036|10.1515/znc-2015-0036|10.2174/1871520614666140804153936|10.3390/MOLECULES21091157|10.3390/molecules21091157|10.3987/COM-09-11886

>  <synonyms>  (603) 
(2S,3R,4S)-3-ETHENYL-2-(.BETA.-D-GLUCOPYRANOSYLOXY)-3,4-DIHYDRO-5-(METHOXYCARBONYL)-2H-PYRAN-4-ACETIC ACID|(2S,3R,4S)-3-ethenyl-2-(beta-D-glucopyranosyloxy)-3,4-dihydro-5-(methoxycarbonyl)-2H-pyran-4-acetic acid|2-((2S,3R,4S)-5-(Methoxycarbonyl)-2-(((2S,3R,4S,5S,6R)-3,4,5-trihydroxy-6-(hydroxymethyl)tetrahydro-2H-pyran-2-yl)oxy)-3-vinyl-3,4-dihydro-2H-pyran-4-yl)acetic acid|2-[(2S,3R,4S)-3-ethenyl-5-methoxycarbonyl-2-[(2S,3R,4S,5S,6R)-3,4,5-trihydroxy-6-(hydroxymethyl)oxan-2-yl]oxy-3,4-dihydro-2H-pyran-4-yl]acetic acid|2H-PYRAN-4-ACETIC ACID, 3-ETHENYL-2-(.BETA.-D-GLUCOPYRANOSYLOXY)-3,4-DIHYDRO-5-(METHOXYCARBONYL)-, (2S,3R,4S)-|2H-Pyran-4-acetic acid, 3-ethenyl-2-(beta-D-glucopyranosyloxy)-3,4-dihydro-5-(methoxycarbonyl)-, (2S-(2alpha,3beta,4beta))-|58822-47-2|65J8K23L9L|AC-34945|AKOS032948707|AS-78339|CCG-268689|CHEBI:132712|CS-0022922|DTXSID90974342|HY-N3009|MEGxp0_000724|NCGC00380454-01|NCGC00380454-01_C17H24O11_2H-Pyran-4-acetic acid, 3-ethenyl-2-(beta-D-glucopyranosyloxy)-3,4-dihydro-5-(methoxycarbonyl)-, (2S,3R,4S)-|SECOLOGANOSIDE 11-METHYL ESTER|Secologanoside 11-methyl ester|Secoxy-loganin|UNII-65J8K23L9L|[(2S,3R,4S)-3-ETHENYL-5-(METHOXYCARBONYL)-2-{[(2S,3R,4S,5S,6R)-3,4,5-TRIHYDROXY-6-(HYDROXYMETHYL)OXAN-2-YL]OXY}-3,4-DIHYDRO-2H-PYRAN-4-YL]ACETIC ACID|[(2S,3R,4S)-3-ethenyl-2-(beta-D-glucopyranosyloxy)-5-(methoxycarbonyl)-3,4-dihydro-2H-pyran-4-yl]acetic acid|[3-Ethenyl-2-(hexopyranosyloxy)-5-(methoxycarbonyl)-3,4-dihydro-2H-pyran-4-yl]acetic acid|s9435|secoxyloganin

>  <cas>  (603) 
58822-47-2

$$$$

     RDKit          2D

 21 23  0  0  0  0  0  0  0  0999 V2000
   -4.8893    1.8120    0.0000 C   0  0  0  0  0  0  0  0  0  0  0  0
   -4.6375    0.3333    0.0000 O   0  0  0  0  0  0  0  0  0  0  0  0
   -3.2310   -0.1880    0.0000 C   0  0  0  0  0  0  0  0  0  0  0  0
   -2.9791   -1.6667    0.0000 C   0  0  0  0  0  0  0  0  0  0  0  0
   -1.5726   -2.1879    0.0000 C   0  0  0  0  0  0  0  0  0  0  0  0
   -1.3208   -3.6667    0.0000 O   0  0  0  0  0  0  0  0  0  0  0  0
   -0.4179   -1.2305    0.0000 C   0  0  0  0  0  0  0  0  0  0  0  0
    0.9886   -1.7517    0.0000 C   0  0  0  0  0  0  0  0  0  0  0  0
    1.2404   -3.2305    0.0000 O   0  0  0  0  0  0  0  0  0  0  0  0
    2.1433   -0.7943    0.0000 C   0  0  0  0  0  0  0  0  0  0  0  0
    3.5498   -1.3155    0.0000 C   0  0  0  0  0  0  0  0  0  0  0  0
    4.7045   -0.3581    0.0000 C   0  0  0  0  0  0  0  0  0  0  0  0
    4.4526    1.1206    0.0000 C   0  0  0  0  0  0  0  0  0  0  0  0
    3.0461    1.6419    0.0000 C   0  0  0  0  0  0  0  0  0  0  0  0
    2.7943    3.1206    0.0000 O   0  0  0  0  0  0  0  0  0  0  0  0
    1.8914    0.6844    0.0000 C   0  0  0  0  0  0  0  0  0  0  0  0
    0.4849    1.2057    0.0000 N   0  0  0  0  0  0  0  0  0  0  0  0
   -0.6698    0.2482    0.0000 C   0  0  0  0  0  0  0  0  0  0  0  0
   -2.0763    0.7695    0.0000 C   0  0  0  0  0  0  0  0  0  0  0  0
   -2.3281    2.2482    0.0000 O   0  0  0  0  0  0  0  0  0  0  0  0
   -1.1734    3.2056    0.0000 C   0  0  0  0  0  0  0  0  0  0  0  0
  1  2  1  0
  2  3  1  0
  3  4  2  0
  4  5  1  0
  5  6  1  0
  5  7  2  0
  7  8  1  0
  8  9  2  0
  8 10  1  0
 10 11  2  0
 11 12  1  0
 12 13  2  0
 13 14  1  0
 14 15  1  0
 14 16  2  0
 16 17  1  0
 17 18  1  0
 18 19  2  0
 19 20  1  0
 20 21  1  0
 19  3  1  0
 18  7  1  0
 16 10  1  0
M  END
>  <identifier>  (604) 
CNP0080639.0

>  <canonical_smiles>  (604) 
COC1=CC(O)=C2C(=O)C3=CC=CC(O)=C3NC2=C1OC

>  <standard_inchi>  (604) 
InChI=1S/C15H13NO5/c1-20-10-6-9(18)11-13(15(10)21-2)16-12-7(14(11)19)4-3-5-8(12)17/h3-6,17-18H,1-2H3,(H,16,19)

>  <standard_inchi_key>  (604) 
QHAXRSXAAITKSO-UHFFFAOYSA-N

>  <name>  (604) 
nan

>  <iupac_name>  (604) 
1,5-dihydroxy-3,4-dimethoxy-10~{H}-acridin-9-one

>  <annotation_level>  (604) 
4

>  <total_atom_count>  (604) 
34

>  <heavy_atom_count>  (604) 
21

>  <molecular_weight>  (604) 
287.27

>  <exact_molecular_weight>  (604) 
287.07937

>  <molecular_formula>  (604) 
C15H13NO5

>  <alogp>  (604) 
2.11

>  <topological_polar_surface_area>  (604) 
91.78

>  <rotatable_bond_count>  (604) 
2

>  <hydrogen_bond_acceptors>  (604) 
5

>  <hydrogen_bond_donors>  (604) 
3

>  <hydrogen_bond_acceptors_lipinski>  (604) 
5

>  <hydrogen_bond_donors_lipinski>  (604) 
3

>  <lipinski_rule_of_five_violations>  (604) 
0

>  <aromatic_rings_count>  (604) 
3

>  <qed_drug_likeliness>  (604) 
0.63

>  <formal_charge>  (604) 
0

>  <fractioncsp3>  (604) 
0.13

>  <number_of_minimal_rings>  (604) 
3

>  <van_der_walls_volume>  (604) 
nan

>  <contains_sugar>  (604) 
False

>  <contains_ring_sugars>  (604) 
False

>  <contains_linear_sugars>  (604) 
False

>  <murcko_framework>  (604) 
c1ccc2c(c1)Nc3ccccc3C2

>  <np_likeness>  (604) 
1.22

>  <chemical_class>  (604) 
Quinolines and derivatives

>  <chemical_sub_class>  (604) 
Benzoquinolines

>  <chemical_super_class>  (604) 
Organoheterocyclic compounds

>  <direct_parent_classification>  (604) 
Acridones

>  <np_classifier_pathway>  (604) 
Alkaloids

>  <np_classifier_superclass>  (604) 
Anthranilic acid alkaloids

>  <np_classifier_class>  (604) 
Acridone alkaloids

>  <np_classifier_is_glycoside>  (604) 
False

>  <organisms>  (604) 
Swinglea glutinosa

>  <collections>  (604) 
Latin America dataset|NuBBEDB|WikiData Natural Products

>  <dois>  (604) 
10.1080/14786410600907002

>  <synonyms>  (604) 
citrusinine-I

>  <cas>  (604) 
nan

$$$$

     RDKit          2D

 28 30  0  0  0  0  0  0  0  0999 V2000
    3.5088   -3.6319    0.0000 C   0  0  0  0  0  0  0  0  0  0  0  0
    3.4932   -2.1320    0.0000 C   0  0  0  0  0  0  0  0  0  0  0  0
    2.1864   -1.3956    0.0000 C   0  0  0  0  0  0  0  0  0  0  0  0
    2.1708    0.1044    0.0000 C   0  0  0  0  0  0  0  0  0  0  0  0
    3.5474   -0.4914    0.0000 C   0  0  0  0  0  0  0  0  0  0  0  0
    4.7517    0.4028    0.0000 C   0  0  0  0  0  0  0  0  0  0  0  0
    6.1283   -0.1930    0.0000 O   0  0  0  0  0  0  0  0  0  0  0  0
    6.3006   -1.6830    0.0000 C   0  0  0  0  0  0  0  0  0  0  0  0
    4.5793    1.8929    0.0000 C   0  0  0  0  0  0  0  0  0  0  0  0
    5.7836    2.7872    0.0000 O   0  0  0  0  0  0  0  0  0  0  0  0
    3.2027    2.4887    0.0000 C   0  0  0  0  0  0  0  0  0  0  0  0
    1.9985    1.5944    0.0000 C   0  0  0  0  0  0  0  0  0  0  0  0
    0.5281    1.8910    0.0000 O   0  0  0  0  0  0  0  0  0  0  0  0
   -0.2084    0.5842    0.0000 C   0  0  0  0  0  0  0  0  0  0  0  0
   -1.6984    0.4119    0.0000 C   0  0  0  0  0  0  0  0  0  0  0  0
   -2.5927    1.6162    0.0000 C   0  0  0  0  0  0  0  0  0  0  0  0
   -4.0828    1.4438    0.0000 C   0  0  0  0  0  0  0  0  0  0  0  0
   -4.9770    2.6481    0.0000 O   0  0  0  0  0  0  0  0  0  0  0  0
   -4.3812    4.0247    0.0000 C   0  0  0  0  0  0  0  0  0  0  0  0
   -4.6786    0.0672    0.0000 C   0  0  0  0  0  0  0  0  0  0  0  0
   -6.1686   -0.1051    0.0000 O   0  0  0  0  0  0  0  0  0  0  0  0
   -6.7644   -1.4817    0.0000 C   0  0  0  0  0  0  0  0  0  0  0  0
   -3.7843   -1.1370    0.0000 C   0  0  0  0  0  0  0  0  0  0  0  0
   -4.3801   -2.5136    0.0000 O   0  0  0  0  0  0  0  0  0  0  0  0
   -3.4858   -3.7179    0.0000 C   0  0  0  0  0  0  0  0  0  0  0  0
   -2.2942   -0.9647    0.0000 C   0  0  0  0  0  0  0  0  0  0  0  0
    0.8069   -0.5200    0.0000 C   0  0  0  0  0  0  0  0  0  0  0  0
    0.5103   -1.9904    0.0000 C   0  0  0  0  0  0  0  0  0  0  0  0
  1  2  2  0
  2  3  1  0
  4  3  1  1
  4  5  1  0
  5  6  2  0
  6  7  1  0
  7  8  1  0
  6  9  1  0
  9 10  2  0
  9 11  1  0
 11 12  2  0
 12 13  1  0
 13 14  1  0
 14 15  1  6
 15 16  2  0
 16 17  1  0
 17 18  1  0
 18 19  1  0
 17 20  2  0
 20 21  1  0
 21 22  1  0
 20 23  1  0
 23 24  1  0
 24 25  1  0
 23 26  2  0
 14 27  1  0
 27 28  1  6
 12  4  1  0
 26 15  1  0
 27  4  1  0
M  END
>  <identifier>  (605) 
CNP0197140.1

>  <canonical_smiles>  (605) 
C=CC[C@]12C=C(OC)C(=O)C=C1O[C@@H](C1=CC(OC)=C(OC)C(OC)=C1)[C@H]2C

>  <standard_inchi>  (605) 
InChI=1S/C22H26O6/c1-7-8-22-12-18(26-5)15(23)11-19(22)28-20(13(22)2)14-9-16(24-3)21(27-6)17(10-14)25-4/h7,9-13,20H,1,8H2,2-6H3/t13-,20-,22-/m1/s1

>  <standard_inchi_key>  (605) 
OKICALHDZHJOLZ-IIYZAJTGSA-N

>  <name>  (605) 
nan

>  <iupac_name>  (605) 
(2~{R},3~{S},3~{a}~{S})-3~{a}-allyl-5-methoxy-3-methyl-2-(3,4,5-trimethoxyphenyl)-2,3-dihydrobenzofuran-6-one

>  <annotation_level>  (605) 
4

>  <total_atom_count>  (605) 
54

>  <heavy_atom_count>  (605) 
28

>  <molecular_weight>  (605) 
386.44

>  <exact_molecular_weight>  (605) 
386.17294

>  <molecular_formula>  (605) 
C22H26O6

>  <alogp>  (605) 
3.98

>  <topological_polar_surface_area>  (605) 
63.22

>  <rotatable_bond_count>  (605) 
7

>  <hydrogen_bond_acceptors>  (605) 
6

>  <hydrogen_bond_donors>  (605) 
0

>  <hydrogen_bond_acceptors_lipinski>  (605) 
6

>  <hydrogen_bond_donors_lipinski>  (605) 
0

>  <lipinski_rule_of_five_violations>  (605) 
0

>  <aromatic_rings_count>  (605) 
1

>  <qed_drug_likeliness>  (605) 
0.66

>  <formal_charge>  (605) 
0

>  <fractioncsp3>  (605) 
0.41

>  <number_of_minimal_rings>  (605) 
3

>  <van_der_walls_volume>  (605) 
nan

>  <contains_sugar>  (605) 
False

>  <contains_ring_sugars>  (605) 
False

>  <contains_linear_sugars>  (605) 
False

>  <murcko_framework>  (605) 
O1C2=CCC=CC2CC1c3ccccc3

>  <np_likeness>  (605) 
2.09

>  <chemical_class>  (605) 
2-arylbenzofuran flavonoids

>  <chemical_sub_class>  (605) 
2-arylbenzofuran flavonoids

>  <chemical_super_class>  (605) 
Phenylpropanoids and polyketides

>  <direct_parent_classification>  (605) 
2-arylbenzofuran flavonoids

>  <np_classifier_pathway>  (605) 
Shikimates and Phenylpropanoids

>  <np_classifier_superclass>  (605) 
Lignans

>  <np_classifier_class>  (605) 
Neolignans

>  <np_classifier_is_glycoside>  (605) 
False

>  <organisms>  (605) 
Aniba simulans|Aniba taubertiana

>  <collections>  (605) 
Latin America dataset|NuBBEDB|Super Natural II|WikiData Natural Products|ZINC NP

>  <dois>  (605) 
10.1016/S0031-9422(00)89244-4

>  <synonyms>  (605) 
(2R3S3aS)-3a-allyl-5-methoxy-2-(3'4'5'-trimethoxy-phenyl)-3-methyl-233a6-tetrahydro-6-oxobenzofuran

>  <cas>  (605) 
nan

$$$$

     RDKit          2D

 32 35  0  0  0  0  0  0  0  0999 V2000
   -1.4295    1.4164    0.0000 O   0  0  0  0  0  0  0  0  0  0  0  0
    0.0622    1.2589    0.0000 C   0  0  0  0  0  0  0  0  0  0  0  0
    0.6717   -0.1117    0.0000 C   0  0  0  0  0  0  0  0  0  0  0  0
   -0.2106   -1.3248    0.0000 O   0  0  0  0  0  0  0  0  0  0  0  0
   -1.7023   -1.1674    0.0000 C   0  0  0  0  0  0  0  0  0  0  0  0
   -2.3117    0.2033    0.0000 O   0  0  0  0  0  0  0  0  0  0  0  0
   -3.8035    0.3607    0.0000 C   0  0  0  0  0  0  0  0  0  0  0  0
   -4.4129    1.7314    0.0000 C   0  0  0  0  0  0  0  0  0  0  0  0
   -5.9046    1.8888    0.0000 O   0  0  0  0  0  0  0  0  0  0  0  0
   -4.6857   -0.8524    0.0000 C   0  0  0  0  0  0  0  0  0  0  0  0
   -6.1774   -0.6949    0.0000 O   0  0  0  0  0  0  0  0  0  0  0  0
   -4.0762   -2.2230    0.0000 C   0  0  0  0  0  0  0  0  0  0  0  0
   -4.9585   -3.4361    0.0000 O   0  0  0  0  0  0  0  0  0  0  0  0
   -2.5845   -2.3805    0.0000 C   0  0  0  0  0  0  0  0  0  0  0  0
   -1.9751   -3.7511    0.0000 O   0  0  0  0  0  0  0  0  0  0  0  0
    2.1634   -0.2692    0.0000 C   0  0  0  0  0  0  0  0  0  0  0  0
    2.7728   -1.6398    0.0000 C   0  0  0  0  0  0  0  0  0  0  0  0
    1.8906   -2.8529    0.0000 C   0  0  0  0  0  0  0  0  0  0  0  0
    2.5000   -4.2236    0.0000 C   0  0  0  0  0  0  0  0  0  0  0  0
    3.9918   -4.3810    0.0000 C   0  0  0  0  0  0  0  0  0  0  0  0
    4.6012   -5.7517    0.0000 O   0  0  0  0  0  0  0  0  0  0  0  0
    4.8740   -3.1679    0.0000 C   0  0  0  0  0  0  0  0  0  0  0  0
    4.2645   -1.7973    0.0000 C   0  0  0  0  0  0  0  0  0  0  0  0
    3.0456    0.9439    0.0000 O   0  0  0  0  0  0  0  0  0  0  0  0
    2.4362    2.3145    0.0000 C   0  0  0  0  0  0  0  0  0  0  0  0
    3.3184    3.5276    0.0000 C   0  0  0  0  0  0  0  0  0  0  0  0
    2.7090    4.8982    0.0000 C   0  0  0  0  0  0  0  0  0  0  0  0
    3.5912    6.1113    0.0000 O   0  0  0  0  0  0  0  0  0  0  0  0
    1.2172    5.0557    0.0000 C   0  0  0  0  0  0  0  0  0  0  0  0
    0.3350    3.8426    0.0000 C   0  0  0  0  0  0  0  0  0  0  0  0
   -1.1567    4.0001    0.0000 O   0  0  0  0  0  0  0  0  0  0  0  0
    0.9445    2.4720    0.0000 C   0  0  0  0  0  0  0  0  0  0  0  0
  1  2  2  0
  2  3  1  0
  3  4  1  0
  5  4  1  1
  5  6  1  0
  6  7  1  0
  7  8  1  1
  8  9  1  0
  7 10  1  0
 10 11  1  1
 10 12  1  0
 12 13  1  1
 12 14  1  0
 14 15  1  6
  3 16  2  0
 16 17  1  0
 17 18  2  0
 18 19  1  0
 19 20  2  0
 20 21  1  0
 20 22  1  0
 22 23  2  0
 16 24  1  0
 24 25  1  0
 25 26  2  0
 26 27  1  0
 27 28  1  0
 27 29  2  0
 29 30  1  0
 30 31  1  0
 30 32  2  0
 32  2  1  0
 14  5  1  0
 23 17  1  0
 32 25  1  0
M  END
>  <identifier>  (606) 
CNP0187953.1

>  <canonical_smiles>  (606) 
O=C1C(O[C@@H]2O[C@H](CO)[C@H](O)[C@H](O)[C@H]2O)=C(C2=CC=C(O)C=C2)OC2=CC(O)=CC(O)=C12

>  <standard_inchi>  (606) 
InChI=1S/C21H20O11/c22-7-13-15(26)17(28)18(29)21(31-13)32-20-16(27)14-11(25)5-10(24)6-12(14)30-19(20)8-1-3-9(23)4-2-8/h1-6,13,15,17-18,21-26,28-29H,7H2/t13-,15+,17+,18-,21+/m1/s1

>  <standard_inchi_key>  (606) 
JPUKWEQWGBDDQB-DTGCRPNFSA-N

>  <name>  (606) 
Trifolin

>  <iupac_name>  (606) 
5,7-dihydroxy-2-(4-hydroxyphenyl)-3-[(2~{S},3~{R},4~{S},5~{R},6~{R})-3,4,5-trihydroxy-6-(hydroxymethyl)tetrahydropyran-2-yl]oxy-chromen-4-one

>  <annotation_level>  (606) 
5

>  <total_atom_count>  (606) 
52

>  <heavy_atom_count>  (606) 
32

>  <molecular_weight>  (606) 
448.38

>  <exact_molecular_weight>  (606) 
448.10056

>  <molecular_formula>  (606) 
C21H20O11

>  <alogp>  (606) 
-0.24

>  <topological_polar_surface_area>  (606) 
190.28

>  <rotatable_bond_count>  (606) 
4

>  <hydrogen_bond_acceptors>  (606) 
11

>  <hydrogen_bond_donors>  (606) 
7

>  <hydrogen_bond_acceptors_lipinski>  (606) 
11

>  <hydrogen_bond_donors_lipinski>  (606) 
7

>  <lipinski_rule_of_five_violations>  (606) 
2

>  <aromatic_rings_count>  (606) 
3

>  <qed_drug_likeliness>  (606) 
0.28

>  <formal_charge>  (606) 
0

>  <fractioncsp3>  (606) 
0.29

>  <number_of_minimal_rings>  (606) 
4

>  <van_der_walls_volume>  (606) 
361.88

>  <contains_sugar>  (606) 
True

>  <contains_ring_sugars>  (606) 
True

>  <contains_linear_sugars>  (606) 
False

>  <murcko_framework>  (606) 
O1c2ccccc2CC(OC3OCCCC3)=C1c4ccccc4

>  <np_likeness>  (606) 
2.07

>  <chemical_class>  (606) 
Flavonoids

>  <chemical_sub_class>  (606) 
Flavonoid glycosides

>  <chemical_super_class>  (606) 
Phenylpropanoids and polyketides

>  <direct_parent_classification>  (606) 
Flavonoid-3-O-glycosides

>  <np_classifier_pathway>  (606) 
Shikimates and Phenylpropanoids

>  <np_classifier_superclass>  (606) 
Flavonoids

>  <np_classifier_class>  (606) 
Flavonols

>  <np_classifier_is_glycoside>  (606) 
True

>  <organisms>  (606) 
Acanthospermum australe|Acer carpinifolium|Acer glabrum|Achillea pannonica|Acnistus breviflorus|Aconitum heterophylloides|Actinidia kolomikta|Actinidia valvata|Aerva javanica|Aesculus chinensis|Agaricus pantherinus|Albizia inundata|Alhagi graecorum|Alnus japonica|Alstonia muelleriana|Alternaria kikuchiana|Annona crassiflora|Anthyllis henoniana|Anthyllis lagascana|Anthyllis onobrychioides|Anthyllis subsimplex|Apocynum venetum|Argemone ochroleuca|Arnica angustifolia|Arnica frigida|Arnica gracilis|Arnica latifolia|Arnica lonchophylla|Arnica louiseana|Artemisia cina|Artemisia igniaria|Artemisia lactiflora|Artemisia ludoviciana subsp. mexicana|Aruncus dioicus|Asarum canadense|Ascarina lucida|Aspergillus giganteus|Aspicilia caesiocinerea|Aspilia parvifolia|Aster oharai|Asteriscus graveolens|Astilbe biternata|Astilbe chinensis|Astilbe rubra|Astilbe thunbergii|Astragalus adsurgens|Astragalus aegobromus|Astragalus arguricus|Astragalus brachycarpus|Astragalus bungeanus|Astragalus captiosus|Astragalus cibarius|Astragalus circassicus|Astragalus dipelta|Astragalus goktschaicus|Astragalus lagopoides|Astragalus laguroides|Astragalus lagurus|Astragalus monspessulanus|Astragalus onobrychis|Astragalus robustus|Astragalus sevangensis|Atropanthe sinensis|Attalea excelsa|Barringtonia acutangula|Berberis nummularia|Berlandiera texana|Borago officinalis|Brickellia diffusa|Bryum pseudotriquetrum|Bugula dentata|Caenorhabditis elegans|Calluna vulgaris|Camellia Sinensis|Camellia sinensis|Campanula hypopolia|Camptotheca acuminata|Careya australis|Carica pennata|Casuarina Equisetifolia|Casuarina equisetifolia|Catalpa ovata|Celaenodendron mexicanum|Centaurea corcubionensis|Ceratosoma brevicaudatum|Chaetomium cochliodes|Chimarrhis turbinata|Chrozophora gracilis|Chrozophora sabulosa|Cinnamomum philippinense|Cirsium arvense|Citrus hassaku|Cleistopholis staudtii|Clibadium glabrescens|Clibadium laxum|Clibadium microcephalum|Clibadium pentaneuron|Clibadium sodiroi|Clibadium sprucei|Clibadium surinamense|Clibadium terebinthinaceum|Commiphora abyssinica|Consolida oliveriana|Corchorus olitorius|Coreopsis nodosa|Cornus florida|Cornus mas|Corydalis densiflora|Corydalis ochotensis|Coutarea latifolia|Craibiodendron henryi|Craibiodendron yunnanense|Crassocephalum crepidioides|Crataegus tanacetifolia|Crepidiastrum sonchifolium|Croton cascarilloides|Cryptocarya alba|Cuscuta australis|Cuscuta campestris|Cuscuta chinensis|Cuscuta europea|Cuscuta gronovii|Cuscuta lupuliformis|Cuscuta odorata|Cuscuta pedicellata|Cuscuta platyloba|Cuscuta reflexa|Cystoseira mediterranea|Dacrydium cupressinum|Dalbergia congestiflora|Delphinium oliverianum|Dendroctonus ponderosae|Dendrophthoe falcata|Dermocybe canaria|Derris floribunda|Desmodium canadense|Dicranopteris linearis|Didemnum solidum|Dionaea muscipula|Dipsacus asper|Dipteryx odorata|Dorstenia barteri|Drosera adelae|Duguetia calycina|Dysidea tupha|Ebenus sibthorpii|Echinacea pallida|Embelia ribes|Ephydatia syriaca|Epimedium sagittatum|Epirrhoe sperryi|Eriobotrya japonica|Eriostemon spicatus|Erythroxylum rufum|Erythroxylum ulei|Erythroxylum vacciniifolium|Eucalyptus staigeriana|Eupatorium lindleyanum|Euphorbia condylocarpa|Evernia vulpina|Excoecaria cochinchinensis|Fagopyrum megacarpum|Fallopia convolvulus|Fallopia scandens|Fragaria x ananassa|Fuchsia ampliata|Fuchsia apetala|Fuchsia arborescens|Fuchsia austromontana|Fuchsia boliviana|Fuchsia chloroloba|Fuchsia colensoi|Fuchsia corymbiflora|Fuchsia cyrtandroides|Fuchsia decidua|Fuchsia denticulata|Fuchsia eucliandra|Fuchsia excorticata|Fuchsia ferreyrae|Fuchsia fontinalis|Fuchsia furfuracea|Fuchsia harlingii|Fuchsia hartwegii|Fuchsia hirtella|Fuchsia inflata|Fuchsia loxensis|Fuchsia macrophylla|Fuchsia magellanica|Fuchsia mathewsii|Fuchsia membranacea|Fuchsia ovalis|Fuchsia pallescens|Fuchsia paniculata|Fuchsia perscandens|Fuchsia petiolaris|Fuchsia pilaloensis|Fuchsia polyantha|Fuchsia pringsheimii|Fuchsia procumbens|Fuchsia regia|Fuchsia rivularis|Fuchsia sessilifolia|Fuchsia splendens|Fuchsia steyermarkii|Fuchsia sylvatica|Fuchsia tillettiana|Fuchsia tincta|Fuchsia triphylla|Fuchsia vargasiana|Fuchsia venusta|Fuchsia vulcanica|Fusarium heterosporum|Galium dasypodum|Garcinia pyrifera|Garrya elliptica|Geranium pusillum|Glinus lotoides|Glinus oppositifolius|Glutamicibacter nicotianae|Glycine tomentella|Gnidia involucrata|Gordonia dassanayakei|Greenwayodendron oliveri|Habropetalum dawei|Haematococcus lacustris|Haematoxylum campechianum|Haliclona nigra|Hamamelis virginiana|Helichrysum lepidissimum|Helicteres isora|Heliotropium amplexicaule|Helleborus multifidus|Holboellia fargesi|Hopea utilis|Hovenia trichocarpa|Hydrocotyle leucocephala|Hylocereus ocamponis|Hylotelephium telephium|Hymenothrix wislizenii|Hypericum maculatum|Hypericum revolutum|Hypoxylon rubiginosum|Iberis amara|Ichnocarpus frutescens|Inocybe geophylla|Ipomopsis polycladon|Ircinia dendroides|Iris florentina|Jacaranda chelonia|Jatropha variegata|Justicia ciliata|Kadsura hainanensis|Khaya grandifoliola|Koenigia alpina|Laccaria vinaceoavellanea|Lafoensia glyptocarpa|Larix americana|Lespedeza bicolor|Leuzea centauroides|Litsea glutinosa|Litsea salicifolia|Lobophytum cristagalli|Lotus corniculatus|Lotus ucrainicus|Lysimachia fortunei|Lysimachia nummularia|Mabea fistulifera|Mammillaria donatii|Manoao colensoi|Matthiola bicornis|Melochia Corchorifolia|Melochia umbellata|Menegazzia asahinae|Menyanthes trifoliata|Mesembryanthemum expansum|Mitrephora diversifolia|Monascus pilosus|Monochaetum multiflorum|Monteverdia ilioppjfeowneviufheiuwfew fgr|Mycobacterium avium subsp. paratuberculosis|Myrothamnus flabellifolia|Myrothamnus flabellifolius|Myrtillocactus eichlamii|Napoleonaea vogelii|Nassauvia cumingii|Nelumbo nucifera|Nicotiana undulata|Norantea guianensis|Oenothera pilosella|Oenothera spachiana|Olearia paniculata|Oncoba glauca|Onobrychis cyri|Onobrychis grandis|Ononis arvensis|Ophryosporus floribundus|Opuntia chlorotica|Opuntia littoralis|Opuntia phaeacantha|Osmorhiza aristata|Oxalis purpurea|Pachyphragma macrophyllum|Paenibacillus macerans|Panax ginseng|Panax schinseng|Paraburkholderia caryophylli|Parmelia subrudecta|Passiflora incarnata|Payena lucida|Pelargonium reniforme|Peperomia proctorii|Periploca calophylla|Persicaria alpina|Persicaria amphibia|Persicaria decipiens|Persicaria mitis|Phalaris canariensis|Phellodendron Amurense|Phellodendron amurense|Phellodendron amurense var. wilsonii|Phellodendron chinense var. glabriusculum|Picrorhiza kurrooa|Pinus banksiana|Planchonella obovata|Plantago atrata|Plumbagella micrantha|Polygonum salicifolium|Populus ussuriensis|Prumnopitys ferruginoides|Prunus Persica|Prunus dulcis|Prunus persica|Pseudaegle trifoliata|Psychotria serpens|Pteridium aquilinum|Pterocladiella tenuis|Pulicaria incisa|Pycnandra acuminata|Pyrola nephrophylla|Pyrrosia Lingua|Pyrrosia lingua|Rhus lanceolata|Rivina humilis|Rosa gallica|Rosa × damascena|Rubus saxatilis|Rubus ulmifolius|Saccharomyces pastori|Salacia elliptica|Salvia cyanescens|Samadera indica|Saxifraga tricuspidata|Scabiosa succisa|Scapania crassiretis|Schleichera trijuga|Schultesia guianensis|Scilla dracomontana|Selaginella moellendorfii|Senecio paludaffinis|Senecio umbellatus|Silphium perfoliatum|Sinoadina racemosa|Smyrnium rotundifolium|Solanum incanum|Sophora tometosa|Stanleya pinnata|Stephanodoria tomentella|Stipa vaseyi|Streptomyces cinnamonensis|Streptomyces flocculus|Streptomyces yokosukanensis|Strychnos spinosa|Symphyotrichum bracteolatum|Symphyotrichum eatonii|Tabebuia ochracea|Tachigalia paniculata|Tamarix aphylla|Tanacetum parthenifolium|Tessaria integrifolia|Tetragonotheca helianthoides|Thorecta marginalis|Tipuana tipu|Tricholoma saponaceum|Triclisia subcordata|Trifolium Repens|Trifolium polyphyllum|Trigonella grandiflora|Tripolium pannonicum|Uncaria Rhynchophylla|Uncaria rhynchophylla|Urospermum picroides|Ustilago zeae|Uvaria calamistrata|Veratrum dahuricum|Vernonia anisochaetoides|Vernonia menthaefolia|Xanthosoma violaceum

>  <collections>  (606) 
AnalytiCon Discovery NPs|Australian natural products|CMAUP (cCollective molecular activities of useful plants)|ChEBI NPs|ChemSpider NPs|ETM (Ethiopian Traditional Medicine) DB|FooDB|GNPS (Global Natural Products Social Molecular Networking)|Latin America dataset|NPASS|NuBBEDB|Phyto4Health|SANCDB|Super Natural II|TCMDB-Taiwan (Traditional Chinese Medicine database)|VietHerb|WikiData Natural Products|ZINC NP

>  <dois>  (606) 
10.1002/CBDV.200800153|10.1002/HLCA.200900264|10.1002/J.1537-2197.1986.TB10902.X|10.1002/J.1537-2197.1987.TB12148.X|10.1002/J.1537-2197.1988.TB13465.X|10.1002/JCCS.201190020|10.1002/PRAC.19953370109|10.1002/hlca.200900264|10.1007/BF00563465|10.1007/BF00563637|10.1007/BF00564826|10.1007/BF00564977|10.1007/BF00565849|10.1007/BF00567885|10.1007/BF00571238|10.1007/BF00574227|10.1007/BF00574348|10.1007/BF00577206|10.1007/BF00579444|10.1007/BF00579981|10.1007/BF00580090|10.1007/BF00600853|10.1007/BF00600855|10.1007/BF00623883|10.1007/BF00985673|10.1007/BF02323304|10.1007/BF02976956|10.1007/S10600-005-0148-1|10.1007/S10600-009-9362-6|10.1007/S10600-010-9569-6|10.1007/S10600-019-02792-7|10.1016/0031-9422(74)85051-X|10.1016/0031-9422(74)85149-6|10.1016/0031-9422(82)80150-7|10.1016/0031-9422(83)80021-1|10.1016/0031-9422(88)80698-8|10.1016/0031-9422(88)84102-5|10.1016/0031-9422(90)80155-A|10.1016/0031-9422(90)85464-Q|10.1016/0031-9422(95)00593-V|10.1016/0305-1978(84)90032-2|10.1016/0305-1978(84)90068-1|10.1016/0305-1978(85)90089-4|10.1016/0305-1978(88)90085-3|10.1016/0305-1978(88)90086-5|10.1016/0305-1978(88)90110-X|10.1016/0305-1978(90)90051-G|10.1016/0305-1978(91)90007-M|10.1016/0305-1978(92)90028-C|10.1016/0305-1978(93)90061-U|10.1016/0305-1978(94)90063-9|10.1016/0305-1978(95)00014-L|10.1016/0305-1978(95)93846-U|10.1016/J.BMC.2012.02.002|10.1016/J.FITOTE.2016.08.013|10.1016/J.FOODCHEM.2009.07.063|10.1016/J.PHYTOCHEM.2006.03.004|10.1016/J.PHYTOCHEM.2007.05.035|10.1016/S0031-9422(00)00216-8|10.1016/S0031-9422(00)00227-2|10.1016/S0031-9422(00)83076-9|10.1016/S0031-9422(00)83144-1|10.1016/S0031-9422(00)83832-7|10.1016/S0031-9422(00)90131-6|10.1016/S0031-9422(00)97951-2|10.1016/S0031-9422(01)00247-3|10.1016/S0031-9422(01)00403-4|10.1016/S0031-9422(02)00133-4|10.1016/S0305-1978(00)00053-3|10.1016/S0305-1978(02)00072-8|10.1016/S0305-1978(97)00015-X|10.1016/S0305-1978(97)00034-3|10.1016/S0305-1978(99)00084-8|10.1016/S0305-1978(99)00087-3|10.1016/S0378-8741(01)00363-4|10.1016/j.bmc.2012.02.002|10.1016/j.fitote.2016.08.013|10.1016/j.phytochem.2015.08.017|10.1021/JF9800211|10.1021/NP030034V|10.1021/NP030217H|10.1021/NP030470H|10.1021/NP0580614|10.1021/NP058062W|10.1021/NP50018A009|10.1021/NP50022A009|10.1021/NP50022A030|10.1021/NP50040A031|10.1021/NP50046A051|10.1021/NP50052A014|10.1021/NP50076A027|10.1021/NP50122A013|10.1021/NP8008122|10.1021/NP9900674|10.1021/acs.jnatprod.5b00502|10.1021/np030034v|10.1021/np030470h|10.1021/np8008122|10.1023/B:CONC.0000025477.18086.8B|10.1038/192288B0|10.1055/S-0030-1250113|10.1055/S-2000-8632|10.1055/S-2004-835854|10.1055/S-2006-957824|10.1055/S-2008-1034278|10.1080/13880200600798544|10.1080/14786419.2015.1088540|10.1139/B88-004|10.1177/1934578X0800300227|10.1177/1934578X1501000714|10.1248/BPB.28.19|10.1248/CPB.30.4046|10.1248/CPB.35.1234|10.1248/CPB.45.367|10.1248/CPB.47.1510|10.1248/CPB.47.1515|10.1248/CPB.53.1519|10.1248/CPB.53.1600|10.1248/CPB.54.1308|10.1248/CPB.54.136|10.1248/CPB.55.57|10.1248/CPB.55.598|10.1248/CPB.56.1297|10.1515/ZNC-1990-1-206|10.1515/ZNC-1992-7-807|10.1515/ZNC-1995-11-1223|10.1590/S0103-50532005000800008|10.1590/S0103-50532010000200009|10.21608/BFSA.2003.65468|10.2307/2996347|10.3136/FSTR.6.106|10.3390/MOLECULES15096186|10.5142/JGR.2012.36.1.1

>  <synonyms>  (606) 
1ST158858|23627-87-4|3-(.BETA.-D-GALACTOPYRANOSYLOXY)-5,7-DIHYDROXY-2-(4-HYDROXYPHENYL)-4H-1-BENZOPYRAN-4-ONE|3-O-b-D-Galactopyranosyloxy-4',5,7-trihydroxyflavone|4H-1-BENZOPYRAN-4-ONE, 3-(.BETA.-D-GALACTOPYRANOSYLOXY)-5,7-DIHYDROXY-2-(4-HYDROXYPHENYL)-|4H-1-Benzopyran-4-one, 3-(beta-D-galactopyranosyloxy)-5,7-dihydroxy-2-(4-hydroxyphenyl)-|5,7-DIHYDROXY-2-(4-HYDROXYPHENYL)-3-((2S,3R,4S,5R,6R)-3,4,5-TRIHYDROXY-6-(HYDROXYMETHYL)OXAN-2-YL)OXYCHROMEN-4-ONE|5,7-dihydroxy-2-(4-hydroxyphenyl)-3-((2S,3R,4S,5R,6R)-3,4,5-trihydroxy-6-(hydroxymethyl)tetrahydro-2H-pyran-2-yloxy)-4H-chromen-4-one|5,7-dihydroxy-2-(4-hydroxyphenyl)-3-[(2S,3R,4S,5R,6R)-3,4,5-trihydroxy-6-(hydroxymethyl)oxan-2-yl]oxychromen-4-one|5,7-dihydroxy-2-(4-hydroxyphenyl)-4-oxo-4H-chromen-3-yl beta-D-galactopyranoside|7CKD5ET5SP|A-D-galactopyranoside|ACon1_000322|AKOS032962714|BDBM50313764|BRD-K09085848-001-01-1|CHEBI:31742|CHEMBL453290|CS-0034340|DTXSID30946447|GLXC-14095|HY-N6605|KAEMPFEROL 3-.BETA.-D-GALACTOSIDE|KAEMPFEROL 3-O-.BETA.-D-GALACTOPYRANOSIDE|KAEMPFEROL 3-O-GALACTOPYRANOSIDE|KAEMPFEROL 3-O-GALACTOSIDE|Kaempferol 3-O-|Kaempferol 3-O-beta-D-galactoside|Kaempferol-3-O-D-galactopyranoside|Kaempferol-3-O-galactoside|Kaempferol-3-O-galactosideTrifolioside; Kaempferol 3-galactoside; Kaempferol 3-O-beta-D-galactoside|MEGxp0_000499|MS-28113|Q7841515|SCHEMBL572365|Trifolin|Trifolioside|kaempferol-3-O-_-D-galactoside|kaempferol-3-o-beta-galactopyranoside|trifoliin

>  <cas>  (606) 
23627-87-4

$$$$

     RDKit          2D

 14 14  0  0  0  0  0  0  0  0999 V2000
   -3.9382   -1.6596    0.0000 C   0  0  0  0  0  0  0  0  0  0  0  0
   -2.5239   -2.1592    0.0000 O   0  0  0  0  0  0  0  0  0  0  0  0
   -1.3841   -1.1841    0.0000 C   0  0  0  0  0  0  0  0  0  0  0  0
   -1.6586    0.2906    0.0000 C   0  0  0  0  0  0  0  0  0  0  0  0
   -0.5188    1.2657    0.0000 C   0  0  0  0  0  0  0  0  0  0  0  0
   -0.7934    2.7404    0.0000 O   0  0  0  0  0  0  0  0  0  0  0  0
   -2.2077    3.2399    0.0000 C   0  0  0  0  0  0  0  0  0  0  0  0
    0.8956    0.7662    0.0000 C   0  0  0  0  0  0  0  0  0  0  0  0
    2.0354    1.7413    0.0000 C   0  0  0  0  0  0  0  0  0  0  0  0
    3.4498    1.2417    0.0000 O   0  0  0  0  0  0  0  0  0  0  0  0
    1.1701   -0.7085    0.0000 C   0  0  0  0  0  0  0  0  0  0  0  0
    2.5845   -1.2081    0.0000 O   0  0  0  0  0  0  0  0  0  0  0  0
    2.8591   -2.6827    0.0000 C   0  0  0  0  0  0  0  0  0  0  0  0
    0.0303   -1.6836    0.0000 C   0  0  0  0  0  0  0  0  0  0  0  0
  1  2  1  0
  2  3  1  0
  3  4  2  0
  4  5  1  0
  5  6  1  0
  6  7  1  0
  5  8  2  0
  8  9  1  0
  9 10  2  0
  8 11  1  0
 11 12  1  0
 12 13  1  0
 11 14  2  0
 14  3  1  0
M  END
>  <identifier>  (607) 
CNP0252720.0

>  <canonical_smiles>  (607) 
COC1=CC(OC)=C(C=O)C(OC)=C1

>  <standard_inchi>  (607) 
InChI=1S/C10H12O4/c1-12-7-4-9(13-2)8(6-11)10(5-7)14-3/h4-6H,1-3H3

>  <standard_inchi_key>  (607) 
CRBZVDLXAIFERF-UHFFFAOYSA-N

>  <name>  (607) 
2,4,6-Trimethoxybenzaldehyde

>  <iupac_name>  (607) 
2,4,6-trimethoxybenzaldehyde

>  <annotation_level>  (607) 
5

>  <total_atom_count>  (607) 
26

>  <heavy_atom_count>  (607) 
14

>  <molecular_weight>  (607) 
196.2

>  <exact_molecular_weight>  (607) 
196.07356

>  <molecular_formula>  (607) 
C10H12O4

>  <alogp>  (607) 
1.52

>  <topological_polar_surface_area>  (607) 
44.76

>  <rotatable_bond_count>  (607) 
4

>  <hydrogen_bond_acceptors>  (607) 
4

>  <hydrogen_bond_donors>  (607) 
0

>  <hydrogen_bond_acceptors_lipinski>  (607) 
4

>  <hydrogen_bond_donors_lipinski>  (607) 
0

>  <lipinski_rule_of_five_violations>  (607) 
0

>  <aromatic_rings_count>  (607) 
1

>  <qed_drug_likeliness>  (607) 
0.68

>  <formal_charge>  (607) 
0

>  <fractioncsp3>  (607) 
0.30

>  <number_of_minimal_rings>  (607) 
1

>  <van_der_walls_volume>  (607) 
nan

>  <contains_sugar>  (607) 
False

>  <contains_ring_sugars>  (607) 
False

>  <contains_linear_sugars>  (607) 
False

>  <murcko_framework>  (607) 
c1ccccc1

>  <np_likeness>  (607) 
0.45

>  <chemical_class>  (607) 
Phenol ethers

>  <chemical_sub_class>  (607) 
Anisoles

>  <chemical_super_class>  (607) 
Benzenoids

>  <direct_parent_classification>  (607) 
Anisoles

>  <np_classifier_pathway>  (607) 
Polyketides

>  <np_classifier_superclass>  (607) 
Phloroglucinols

>  <np_classifier_class>  (607) 
Acyl phloroglucinols

>  <np_classifier_is_glycoside>  (607) 
False

>  <organisms>  (607) 
Cassia grandis|Siphoneugena densiflora

>  <collections>  (607) 
Latin America dataset|NuBBEDB|UNPD (Universal Natural Products Database)|WikiData Natural Products|ZINC NP

>  <dois>  (607) 
10.1002/PS.1278|10.1002/ps.1278|10.1055/S-2006-957847

>  <synonyms>  (607) 
2,4,6-Trimethoxy-benzaldehyde|830-79-5|A840488|A840500|A842494|AB-131\/40897219|AC-12837|AI3-36672|AKOS000120758|AM20050246|AS-14420|BBL027431|BCP33590|BRN 1956051|Benzaldehyde, 2,4,6-trimethoxy-|CHEMBL2234486|CK2089|CRBZVDLXAIFERF-UHFFFAOYSA-|CS-W009225|DB-019837|DTXSID70232119|EINECS 212-598-2|EN300-17219|F0001-2130|InChI=1\/C10H12O4\/c1-12-7-4-9(13-2)8(6-11)10(5-7)14-3\/h4-6H,1-3H3|JD365X6J84|MFCD00003313|NS00038236|SCHEMBL34873|STL373484|SY015346|T2651|UNII-JD365X6J84|W-104152|Z56899127|ZB1376

>  <cas>  (607) 
830-79-5

$$$$

     RDKit          2D

 29 32  0  0  0  0  0  0  0  0999 V2000
    4.3092    4.7278    0.0000 C   0  0  0  0  0  0  0  0  0  0  0  0
    4.1697    3.2343    0.0000 C   0  0  0  0  0  0  0  0  0  0  0  0
    2.8065    2.6084    0.0000 C   0  0  0  0  0  0  0  0  0  0  0  0
    2.6670    1.1149    0.0000 C   0  0  0  0  0  0  0  0  0  0  0  0
    3.8907    0.2473    0.0000 C   0  0  0  0  0  0  0  0  0  0  0  0
    3.7512   -1.2462    0.0000 C   0  0  0  0  0  0  0  0  0  0  0  0
    4.9748   -2.1137    0.0000 O   0  0  0  0  0  0  0  0  0  0  0  0
    4.8353   -3.6072    0.0000 C   0  0  0  0  0  0  0  0  0  0  0  0
    2.3880   -1.8721    0.0000 C   0  0  0  0  0  0  0  0  0  0  0  0
    2.2485   -3.3656    0.0000 O   0  0  0  0  0  0  0  0  0  0  0  0
    1.1644   -1.0045    0.0000 C   0  0  0  0  0  0  0  0  0  0  0  0
   -0.1988   -1.6305    0.0000 O   0  0  0  0  0  0  0  0  0  0  0  0
   -0.3383   -3.1240    0.0000 C   0  0  0  0  0  0  0  0  0  0  0  0
    0.2687    0.1987    0.0000 C   0  0  0  0  0  0  0  0  0  0  0  0
   -1.2312    0.1813    0.0000 C   0  0  0  0  0  0  0  0  0  0  0  0
   -1.9661   -1.1263    0.0000 C   0  0  0  0  0  0  0  0  0  0  0  0
   -3.4660   -1.1437    0.0000 C   0  0  0  0  0  0  0  0  0  0  0  0
   -4.2009   -2.4513    0.0000 O   0  0  0  0  0  0  0  0  0  0  0  0
   -3.4359   -3.7416    0.0000 C   0  0  0  0  0  0  0  0  0  0  0  0
   -4.2310    0.1466    0.0000 C   0  0  0  0  0  0  0  0  0  0  0  0
   -5.7017    0.4415    0.0000 O   0  0  0  0  0  0  0  0  0  0  0  0
   -5.8758    1.9313    0.0000 C   0  0  0  0  0  0  0  0  0  0  0  0
   -4.5126    2.5573    0.0000 O   0  0  0  0  0  0  0  0  0  0  0  0
   -3.4961    1.4542    0.0000 C   0  0  0  0  0  0  0  0  0  0  0  0
   -1.9962    1.4716    0.0000 C   0  0  0  0  0  0  0  0  0  0  0  0
    1.1363    1.4224    0.0000 C   0  0  0  0  0  0  0  0  0  0  0  0
    0.6563    2.8435    0.0000 C   0  0  0  0  0  0  0  0  0  0  0  0
    1.3039    0.4890    0.0000 C   0  0  0  0  0  0  0  0  0  0  0  0
    0.0802    1.3565    0.0000 O   0  0  0  0  0  0  0  0  0  0  0  0
  1  2  2  0
  2  3  1  0
  4  3  1  1
  4  5  1  0
  5  6  1  0
  6  7  1  1
  7  8  1  0
  6  9  1  0
  9 10  1  6
  9 11  1  0
 11 12  1  1
 12 13  1  0
 11 14  1  0
 14 15  1  1
 15 16  2  0
 16 17  1  0
 17 18  1  0
 18 19  1  0
 17 20  2  0
 20 21  1  0
 21 22  1  0
 22 23  1  0
 23 24  1  0
 24 25  2  0
 14 26  1  0
 26 27  1  6
 11 28  1  0
 28 29  1  1
 26  4  1  0
 28  4  1  0
 25 15  1  0
 24 20  1  0
M  END
>  <identifier>  (608) 
CNP0199892.1

>  <canonical_smiles>  (608) 
C=CC[C@]12C[C@@H](OC)[C@H](O)[C@](OC)([C@@H](C3=CC(OC)=C4OCOC4=C3)[C@@H]1C)[C@H]2O

>  <standard_inchi>  (608) 
InChI=1S/C22H30O7/c1-6-7-21-10-16(26-4)19(23)22(27-5,20(21)24)17(12(21)2)13-8-14(25-3)18-15(9-13)28-11-29-18/h6,8-9,12,16-17,19-20,23-24H,1,7,10-11H2,2-5H3/t12-,16+,17+,19-,20-,21-,22+/m0/s1

>  <standard_inchi_key>  (608) 
DQCOGNYHJVFTPU-WFFICVLJSA-N

>  <name>  (608) 
nan

>  <iupac_name>  (608) 
(1~{S},2~{S},3~{R},5~{S},6~{S},7~{R},8~{S})-5-allyl-1,3-dimethoxy-7-(7-methoxy-1,3-benzodioxol-5-yl)-6-methyl-bicyclo[3.2.1]octane-2,8-diol

>  <annotation_level>  (608) 
4

>  <total_atom_count>  (608) 
59

>  <heavy_atom_count>  (608) 
29

>  <molecular_weight>  (608) 
406.48

>  <exact_molecular_weight>  (608) 
406.19915

>  <molecular_formula>  (608) 
C22H30O7

>  <alogp>  (608) 
2.25

>  <topological_polar_surface_area>  (608) 
86.61

>  <rotatable_bond_count>  (608) 
6

>  <hydrogen_bond_acceptors>  (608) 
7

>  <hydrogen_bond_donors>  (608) 
2

>  <hydrogen_bond_acceptors_lipinski>  (608) 
7

>  <hydrogen_bond_donors_lipinski>  (608) 
2

>  <lipinski_rule_of_five_violations>  (608) 
0

>  <aromatic_rings_count>  (608) 
1

>  <qed_drug_likeliness>  (608) 
0.70

>  <formal_charge>  (608) 
0

>  <fractioncsp3>  (608) 
0.64

>  <number_of_minimal_rings>  (608) 
4

>  <van_der_walls_volume>  (608) 
nan

>  <contains_sugar>  (608) 
False

>  <contains_ring_sugars>  (608) 
False

>  <contains_linear_sugars>  (608) 
False

>  <murcko_framework>  (608) 
O1c2ccc(cc2OC1)C3CC4CCCC3C4

>  <np_likeness>  (608) 
2.26

>  <chemical_class>  (608) 
Benzodioxoles

>  <chemical_sub_class>  (608) 
Benzodioxoles

>  <chemical_super_class>  (608) 
Organoheterocyclic compounds

>  <direct_parent_classification>  (608) 
Benzodioxoles

>  <np_classifier_pathway>  (608) 
Shikimates and Phenylpropanoids

>  <np_classifier_superclass>  (608) 
Lignans

>  <np_classifier_class>  (608) 
Neolignans

>  <np_classifier_is_glycoside>  (608) 
False

>  <organisms>  (608) 
Aniba|Aniba sp.

>  <collections>  (608) 
Latin America dataset|NuBBEDB|WikiData Natural Products|ZINC NP

>  <dois>  (608) 
10.1016/S0031-9422(82)85050-4

>  <synonyms>  (608) 
methoxycanellin-A

>  <cas>  (608) 
nan

$$$$

     RDKit          2D

 32 35  0  0  0  0  0  0  0  0999 V2000
    6.0591   -3.8567    0.0000 C   0  0  0  0  0  0  0  0  0  0  0  0
    6.5860   -2.4523    0.0000 O   0  0  0  0  0  0  0  0  0  0  0  0
    5.6332   -1.2938    0.0000 C   0  0  0  0  0  0  0  0  0  0  0  0
    4.1535   -1.5396    0.0000 C   0  0  0  0  0  0  0  0  0  0  0  0
    3.2007   -0.3811    0.0000 C   0  0  0  0  0  0  0  0  0  0  0  0
    1.7210   -0.6270    0.0000 C   0  0  0  0  0  0  0  0  0  0  0  0
    1.0502   -1.9686    0.0000 O   0  0  0  0  0  0  0  0  0  0  0  0
   -0.4331   -1.7452    0.0000 C   0  0  0  0  0  0  0  0  0  0  0  0
   -0.6790   -0.2655    0.0000 C   0  0  0  0  0  0  0  0  0  0  0  0
    0.6523    0.4256    0.0000 C   0  0  0  0  0  0  0  0  0  0  0  0
    0.4065    1.9053    0.0000 C   0  0  0  0  0  0  0  0  0  0  0  0
   -1.0768    2.1288    0.0000 O   0  0  0  0  0  0  0  0  0  0  0  0
   -1.7476    0.7871    0.0000 C   0  0  0  0  0  0  0  0  0  0  0  0
   -3.2273    0.5413    0.0000 C   0  0  0  0  0  0  0  0  0  0  0  0
   -4.1801    1.6998    0.0000 C   0  0  0  0  0  0  0  0  0  0  0  0
   -5.6598    1.4539    0.0000 C   0  0  0  0  0  0  0  0  0  0  0  0
   -6.1868    0.0495    0.0000 C   0  0  0  0  0  0  0  0  0  0  0  0
   -7.6665   -0.1963    0.0000 O   0  0  0  0  0  0  0  0  0  0  0  0
   -8.6193    0.9622    0.0000 C   0  0  0  0  0  0  0  0  0  0  0  0
  -10.0990    0.7163    0.0000 C   0  0  0  0  0  0  0  0  0  0  0  0
   -8.0923    2.3666    0.0000 O   0  0  0  0  0  0  0  0  0  0  0  0
   -5.2340   -1.1090    0.0000 C   0  0  0  0  0  0  0  0  0  0  0  0
   -5.7609   -2.5134    0.0000 O   0  0  0  0  0  0  0  0  0  0  0  0
   -4.8081   -3.6719    0.0000 C   0  0  0  0  0  0  0  0  0  0  0  0
   -3.7543   -0.8631    0.0000 C   0  0  0  0  0  0  0  0  0  0  0  0
    3.7277    1.0233    0.0000 C   0  0  0  0  0  0  0  0  0  0  0  0
    5.2074    1.2692    0.0000 C   0  0  0  0  0  0  0  0  0  0  0  0
    6.1602    0.1106    0.0000 C   0  0  0  0  0  0  0  0  0  0  0  0
    7.6399    0.3565    0.0000 O   0  0  0  0  0  0  0  0  0  0  0  0
    8.1668    1.7609    0.0000 C   0  0  0  0  0  0  0  0  0  0  0  0
    9.6465    2.0068    0.0000 C   0  0  0  0  0  0  0  0  0  0  0  0
    7.2140    2.9195    0.0000 O   0  0  0  0  0  0  0  0  0  0  0  0
  1  2  1  0
  2  3  1  0
  3  4  2  0
  4  5  1  0
  6  5  1  1
  6  7  1  0
  7  8  1  0
  9  8  1  6
  9 10  1  0
 10 11  1  6
 11 12  1  0
 12 13  1  0
 13 14  1  1
 14 15  2  0
 15 16  1  0
 16 17  2  0
 17 18  1  0
 18 19  1  0
 19 20  1  0
 19 21  2  0
 17 22  1  0
 22 23  1  0
 23 24  1  0
 22 25  2  0
  5 26  2  0
 26 27  1  0
 27 28  2  0
 28 29  1  0
 29 30  1  0
 30 31  1  0
 30 32  2  0
 28  3  1  0
 10  6  1  0
 25 14  1  0
 13  9  1  0
M  END
>  <identifier>  (609) 
CNP0236542.1

>  <canonical_smiles>  (609) 
COC1=CC([C@H]2OC[C@H]3[C@@H]2CO[C@@H]3C2=CC=C(OC(C)=O)C(OC)=C2)=CC=C1OC(C)=O

>  <standard_inchi>  (609) 
InChI=1S/C24H26O8/c1-13(25)31-19-7-5-15(9-21(19)27-3)23-17-11-30-24(18(17)12-29-23)16-6-8-20(32-14(2)26)22(10-16)28-4/h5-10,17-18,23-24H,11-12H2,1-4H3/t17-,18-,23+,24+/m0/s1

>  <standard_inchi_key>  (609) 
KABPASQHFAUTDF-XZUXRINTSA-N

>  <name>  (609) 
(+)-Pinoresinol diacetate

>  <iupac_name>  (609) 
[4-[(3~{S},3~{a}~{R},6~{S},6~{a}~{R})-6-(4-acetoxy-3-methoxy-phenyl)-1,3,3~{a},4,6,6~{a}-hexahydrofuro[3,4-c]furan-3-yl]-2-methoxy-phenyl] acetate

>  <annotation_level>  (609) 
5

>  <total_atom_count>  (609) 
58

>  <heavy_atom_count>  (609) 
32

>  <molecular_weight>  (609) 
442.46

>  <exact_molecular_weight>  (609) 
442.16277

>  <molecular_formula>  (609) 
C24H26O8

>  <alogp>  (609) 
3.63

>  <topological_polar_surface_area>  (609) 
89.52

>  <rotatable_bond_count>  (609) 
6

>  <hydrogen_bond_acceptors>  (609) 
8

>  <hydrogen_bond_donors>  (609) 
0

>  <hydrogen_bond_acceptors_lipinski>  (609) 
8

>  <hydrogen_bond_donors_lipinski>  (609) 
0

>  <lipinski_rule_of_five_violations>  (609) 
0

>  <aromatic_rings_count>  (609) 
2

>  <qed_drug_likeliness>  (609) 
0.49

>  <formal_charge>  (609) 
0

>  <fractioncsp3>  (609) 
0.42

>  <number_of_minimal_rings>  (609) 
4

>  <van_der_walls_volume>  (609) 
nan

>  <contains_sugar>  (609) 
False

>  <contains_ring_sugars>  (609) 
False

>  <contains_linear_sugars>  (609) 
False

>  <murcko_framework>  (609) 
O1CC2C(OCC2C1c3ccccc3)c4ccccc4

>  <np_likeness>  (609) 
0.71

>  <chemical_class>  (609) 
Furanoid lignans

>  <chemical_sub_class>  (609) 
Furan lignans

>  <chemical_super_class>  (609) 
Lignans, neolignans and related compounds

>  <direct_parent_classification>  (609) 
Furan lignans

>  <np_classifier_pathway>  (609) 
Shikimates and Phenylpropanoids

>  <np_classifier_superclass>  (609) 
Lignans

>  <np_classifier_class>  (609) 
Furofuranoid lignans

>  <np_classifier_is_glycoside>  (609) 
False

>  <organisms>  (609) 
Araucaria angustifolia

>  <collections>  (609) 
Latin America dataset|NuBBEDB|Specs Natural Products|Super Natural II|WikiData Natural Products|ZINC NP

>  <dois>  (609) 
10.1016/0031-9422(79)80188-0

>  <synonyms>  (609) 
((1S,3AR,4S,6aR)-tetrahydro-1H,3H-furo[3,4-c]furan-1,4-diyl)bis(2-methoxy-4,1-phenylene) diacetate|2,2'-dimethoxy-4,4'-(tetrahydro-1H,3H-furo[3,4-c]furan-1,4-diyl)diphenyl 1,1'-diacetate|32971-25-8|83114-70-9|AKOS032962141|CHEMBL4850577|CS-0016088|FS-9759|HY-N0954|J-500063|NSC35485|Pinoresinol diacetate|[4-[(3S,3aR,6S,6aR)-6-(4-acetyloxy-3-methoxyphenyl)-1,3,3a,4,6,6a-hexahydrofuro[3,4-c]furan-3-yl]-2-methoxyphenyl] acetate

>  <cas>  (609) 
32971-25-8|83114-70-9

$$$$

     RDKit          2D

 30 34  0  0  0  0  0  0  0  0999 V2000
    6.9331   -2.2017    0.0000 C   0  0  0  0  0  0  0  0  0  0  0  0
    6.0500   -0.9892    0.0000 O   0  0  0  0  0  0  0  0  0  0  0  0
    4.5584   -1.1478    0.0000 C   0  0  0  0  0  0  0  0  0  0  0  0
    3.9499   -2.5188    0.0000 C   0  0  0  0  0  0  0  0  0  0  0  0
    2.4583   -2.6774    0.0000 C   0  0  0  0  0  0  0  0  0  0  0  0
    1.5752   -1.4649    0.0000 C   0  0  0  0  0  0  0  0  0  0  0  0
    0.0836   -1.6235    0.0000 C   0  0  0  0  0  0  0  0  0  0  0  0
   -0.7995   -0.4110    0.0000 C   0  0  0  0  0  0  0  0  0  0  0  0
   -2.2911   -0.5696    0.0000 C   0  0  0  0  0  0  0  0  0  0  0  0
   -3.1743    0.6429    0.0000 C   0  0  0  0  0  0  0  0  0  0  0  0
   -4.6658    0.4843    0.0000 C   0  0  0  0  0  0  0  0  0  0  0  0
   -5.2743   -0.8867    0.0000 C   0  0  0  0  0  0  0  0  0  0  0  0
   -4.3912   -2.0992    0.0000 C   0  0  0  0  0  0  0  0  0  0  0  0
   -2.8996   -1.9406    0.0000 C   0  0  0  0  0  0  0  0  0  0  0  0
   -2.0165   -3.1531    0.0000 C   0  0  0  0  0  0  0  0  0  0  0  0
   -0.5249   -2.9945    0.0000 C   0  0  0  0  0  0  0  0  0  0  0  0
   -6.7663   -0.7317    0.0000 O   0  0  0  0  0  0  0  0  0  0  0  0
   -7.0799    0.7352    0.0000 C   0  0  0  0  0  0  0  0  0  0  0  0
   -5.7818    1.4867    0.0000 O   0  0  0  0  0  0  0  0  0  0  0  0
   -0.1911    0.9600    0.0000 N   0  0  0  0  0  0  0  0  0  0  0  0
   -1.0742    2.1725    0.0000 C   0  0  0  0  0  0  0  0  0  0  0  0
    1.3005    1.1186    0.0000 C   0  0  0  0  0  0  0  0  0  0  0  0
    1.9090    2.4897    0.0000 C   0  0  0  0  0  0  0  0  0  0  0  0
    1.0259    3.7021    0.0000 C   0  0  0  0  0  0  0  0  0  0  0  0
    1.6344    5.0732    0.0000 C   0  0  0  0  0  0  0  0  0  0  0  0
   -0.4657    3.5436    0.0000 O   0  0  0  0  0  0  0  0  0  0  0  0
    2.1837   -0.0939    0.0000 C   0  0  0  0  0  0  0  0  0  0  0  0
    3.6753    0.0647    0.0000 C   0  0  0  0  0  0  0  0  0  0  0  0
    4.2837    1.4357    0.0000 O   0  0  0  0  0  0  0  0  0  0  0  0
    5.7753    1.5943    0.0000 C   0  0  0  0  0  0  0  0  0  0  0  0
  1  2  1  0
  2  3  1  0
  3  4  2  0
  4  5  1  0
  5  6  2  0
  6  7  1  0
  7  8  2  0
  8  9  1  0
  9 10  2  0
 10 11  1  0
 11 12  2  0
 12 13  1  0
 13 14  2  0
 14 15  1  0
 15 16  2  0
 12 17  1  0
 17 18  1  0
 18 19  1  0
  8 20  1  0
 20 21  1  0
 20 22  1  0
 22 23  1  6
 23 24  1  0
 24 25  1  0
 24 26  2  0
 22 27  1  0
 27 28  2  0
 28 29  1  0
 29 30  1  0
 28  3  1  0
 27  6  1  0
 16  7  1  0
 14  9  1  0
 19 11  1  0
M  END
>  <identifier>  (610) 
CNP0111000.2

>  <canonical_smiles>  (610) 
COC1=CC=C2C3=C(C4=CC5=C(C=C4C=C3)OCO5)N(C)[C@H](CC(C)=O)C2=C1OC

>  <standard_inchi>  (610) 
InChI=1S/C24H23NO5/c1-13(26)9-18-22-15(7-8-19(27-3)24(22)28-4)16-6-5-14-10-20-21(30-12-29-20)11-17(14)23(16)25(18)2/h5-8,10-11,18H,9,12H2,1-4H3/t18-/m1/s1

>  <standard_inchi_key>  (610) 
VGTQLFWIJIABSU-GOSISDBHSA-N

>  <name>  (610) 
nan

>  <iupac_name>  (610) 
1-[(13~{R})-1,2-dimethoxy-12-methyl-13~{H}-[1,3]benzodioxolo[5,6-c]phenanthridin-13-yl]propan-2-one

>  <annotation_level>  (610) 
4

>  <total_atom_count>  (610) 
53

>  <heavy_atom_count>  (610) 
30

>  <molecular_weight>  (610) 
405.45

>  <exact_molecular_weight>  (610) 
405.15762

>  <molecular_formula>  (610) 
C24H23NO5

>  <alogp>  (610) 
4.72

>  <topological_polar_surface_area>  (610) 
57.23

>  <rotatable_bond_count>  (610) 
4

>  <hydrogen_bond_acceptors>  (610) 
6

>  <hydrogen_bond_donors>  (610) 
0

>  <hydrogen_bond_acceptors_lipinski>  (610) 
6

>  <hydrogen_bond_donors_lipinski>  (610) 
0

>  <lipinski_rule_of_five_violations>  (610) 
0

>  <aromatic_rings_count>  (610) 
3

>  <qed_drug_likeliness>  (610) 
0.63

>  <formal_charge>  (610) 
0

>  <fractioncsp3>  (610) 
0.29

>  <number_of_minimal_rings>  (610) 
5

>  <van_der_walls_volume>  (610) 
nan

>  <contains_sugar>  (610) 
False

>  <contains_ring_sugars>  (610) 
False

>  <contains_linear_sugars>  (610) 
False

>  <murcko_framework>  (610) 
O1c2cc3ccc4-c5ccccc5CNc4c3cc2OC1

>  <np_likeness>  (610) 
1.21

>  <chemical_class>  (610) 
Benzophenanthridine alkaloids

>  <chemical_sub_class>  (610) 
Dihydrobenzophenanthridine alkaloids

>  <chemical_super_class>  (610) 
Alkaloids and derivatives

>  <direct_parent_classification>  (610) 
Dihydrobenzophenanthridine alkaloids

>  <np_classifier_pathway>  (610) 
Alkaloids

>  <np_classifier_superclass>  (610) 
Tyrosine alkaloids

>  <np_classifier_class>  (610) 
Isoquinoline alkaloids

>  <np_classifier_is_glycoside>  (610) 
False

>  <organisms>  (610) 
Zanthoxylum riedelianum|Zanthoxylum rigidum

>  <collections>  (610) 
AfroDB|Australian natural products|Latin America dataset|NuBBEDB|WikiData Natural Products|ZINC NP

>  <dois>  (610) 
10.1080/14786419.2014.1002090|10.1590/S0100-40422009000100025|10.1590/S0103-50532009000200025

>  <synonyms>  (610) 
6-acetonyldihydrochelerythrine

>  <cas>  (610) 
nan

$$$$

     RDKit          2D

 31 34  0  0  0  0  0  0  0  0999 V2000
   -2.0801   -4.7883    0.0000 O   0  0  0  0  0  0  0  0  0  0  0  0
   -1.6641   -3.3472    0.0000 C   0  0  0  0  0  0  0  0  0  0  0  0
   -2.7042   -2.2663    0.0000 C   0  0  0  0  0  0  0  0  0  0  0  0
   -2.2881   -0.8252    0.0000 C   0  0  0  0  0  0  0  0  0  0  0  0
   -3.3282    0.2557    0.0000 C   0  0  0  0  0  0  0  0  0  0  0  0
   -2.9122    1.6968    0.0000 C   0  0  0  0  0  0  0  0  0  0  0  0
   -3.9522    2.7777    0.0000 C   0  0  0  0  0  0  0  0  0  0  0  0
   -5.4083    2.4174    0.0000 C   0  0  0  0  0  0  0  0  0  0  0  0
   -6.4484    3.4983    0.0000 O   0  0  0  0  0  0  0  0  0  0  0  0
   -5.8244    0.9763    0.0000 C   0  0  0  0  0  0  0  0  0  0  0  0
   -4.7843   -0.1046    0.0000 C   0  0  0  0  0  0  0  0  0  0  0  0
   -0.8321   -0.4649    0.0000 O   0  0  0  0  0  0  0  0  0  0  0  0
    0.2080   -1.5458    0.0000 C   0  0  0  0  0  0  0  0  0  0  0  0
   -0.2080   -2.9869    0.0000 C   0  0  0  0  0  0  0  0  0  0  0  0
    0.8321   -4.0678    0.0000 C   0  0  0  0  0  0  0  0  0  0  0  0
    0.4160   -5.5089    0.0000 O   0  0  0  0  0  0  0  0  0  0  0  0
    2.2881   -3.7075    0.0000 C   0  0  0  0  0  0  0  0  0  0  0  0
    2.7042   -2.2663    0.0000 C   0  0  0  0  0  0  0  0  0  0  0  0
    4.1603   -1.9060    0.0000 O   0  0  0  0  0  0  0  0  0  0  0  0
    1.6641   -1.1855    0.0000 C   0  0  0  0  0  0  0  0  0  0  0  0
    2.0801    0.2557    0.0000 C   0  0  0  0  0  0  0  0  0  0  0  0
    3.5362    0.6160    0.0000 O   0  0  0  0  0  0  0  0  0  0  0  0
    3.9522    2.0571    0.0000 C   0  0  0  0  0  0  0  0  0  0  0  0
    5.4083    2.4174    0.0000 C   0  0  0  0  0  0  0  0  0  0  0  0
    6.4484    1.3366    0.0000 O   0  0  0  0  0  0  0  0  0  0  0  0
    2.9122    3.1380    0.0000 C   0  0  0  0  0  0  0  0  0  0  0  0
    3.3282    4.5791    0.0000 O   0  0  0  0  0  0  0  0  0  0  0  0
    1.4561    2.7777    0.0000 C   0  0  0  0  0  0  0  0  0  0  0  0
    0.4160    3.8586    0.0000 O   0  0  0  0  0  0  0  0  0  0  0  0
    1.0401    1.3366    0.0000 C   0  0  0  0  0  0  0  0  0  0  0  0
   -0.4160    0.9763    0.0000 O   0  0  0  0  0  0  0  0  0  0  0  0
  1  2  2  0
  2  3  1  0
  3  4  1  0
  4  5  1  0
  5  6  2  0
  6  7  1  0
  7  8  2  0
  8  9  1  0
  8 10  1  0
 10 11  2  0
  4 12  1  0
 12 13  1  0
 13 14  2  0
 14 15  1  0
 15 16  1  0
 15 17  2  0
 17 18  1  0
 18 19  1  0
 18 20  2  0
 21 20  1  1
 21 22  1  0
 22 23  1  0
 23 24  1  1
 24 25  1  0
 23 26  1  0
 26 27  1  6
 26 28  1  0
 28 29  1  1
 28 30  1  0
 30 31  1  6
 14  2  1  0
 30 21  1  0
 11  5  1  0
 20 13  1  0
M  END
>  <identifier>  (611) 
CNP0250418.6

>  <canonical_smiles>  (611) 
O=C1CC(C2=CC=C(O)C=C2)OC2=C1C(O)=CC(O)=C2[C@@H]1O[C@H](CO)[C@@H](O)[C@H](O)[C@H]1O

>  <standard_inchi>  (611) 
InChI=1S/C21H22O10/c22-7-14-17(27)18(28)19(29)21(31-14)16-11(25)5-10(24)15-12(26)6-13(30-20(15)16)8-1-3-9(23)4-2-8/h1-5,13-14,17-19,21-25,27-29H,6-7H2/t13?,14-,17-,18+,19-,21+/m1/s1

>  <standard_inchi_key>  (611) 
VPQWOQSQAVBHEV-GJNDOSSTSA-N

>  <name>  (611) 
8-C-Glucosylnaringenin

>  <iupac_name>  (611) 
5,7-dihydroxy-2-(4-hydroxyphenyl)-8-[(2~{S},3~{R},4~{R},5~{S},6~{R})-3,4,5-trihydroxy-6-(hydroxymethyl)tetrahydropyran-2-yl]chroman-4-one

>  <annotation_level>  (611) 
5

>  <total_atom_count>  (611) 
53

>  <heavy_atom_count>  (611) 
31

>  <molecular_weight>  (611) 
434.4

>  <exact_molecular_weight>  (611) 
434.1213

>  <molecular_formula>  (611) 
C21H22O10

>  <alogp>  (611) 
0.02

>  <topological_polar_surface_area>  (611) 
177.14

>  <rotatable_bond_count>  (611) 
3

>  <hydrogen_bond_acceptors>  (611) 
10

>  <hydrogen_bond_donors>  (611) 
7

>  <hydrogen_bond_acceptors_lipinski>  (611) 
10

>  <hydrogen_bond_donors_lipinski>  (611) 
7

>  <lipinski_rule_of_five_violations>  (611) 
1

>  <aromatic_rings_count>  (611) 
2

>  <qed_drug_likeliness>  (611) 
0.35

>  <formal_charge>  (611) 
0

>  <fractioncsp3>  (611) 
0.38

>  <number_of_minimal_rings>  (611) 
4

>  <van_der_walls_volume>  (611) 
nan

>  <contains_sugar>  (611) 
True

>  <contains_ring_sugars>  (611) 
True

>  <contains_linear_sugars>  (611) 
False

>  <murcko_framework>  (611) 
O1c2c(cccc2C3OCCCC3)CCC1c4ccccc4

>  <np_likeness>  (611) 
2.23

>  <chemical_class>  (611) 
Flavonoids

>  <chemical_sub_class>  (611) 
Flavonoid glycosides

>  <chemical_super_class>  (611) 
Phenylpropanoids and polyketides

>  <direct_parent_classification>  (611) 
Flavonoid 8-C-glycosides

>  <np_classifier_pathway>  (611) 
Shikimates and Phenylpropanoids

>  <np_classifier_superclass>  (611) 
Flavonoids

>  <np_classifier_class>  (611) 
Flavanones

>  <np_classifier_is_glycoside>  (611) 
False

>  <organisms>  (611) 
Piper umbellata|Piper umbellatum

>  <collections>  (611) 
Latin America dataset|NuBBEDB|WikiData Natural Products

>  <dois>  (611) 
10.1590/S0100-40422009000500005

>  <synonyms>  (611) 
Apigenin 8-C-\u221a\u00e9\u00ac\u2264-D-glucopyranoside|SCHEMBL26565187

>  <cas>  (611) 
nan

$$$$

     RDKit          2D

 58 61  0  0  0  0  0  0  0  0999 V2000
  -18.3796    8.4295    0.0000 C   0  0  0  0  0  0  0  0  0  0  0  0
  -16.9608    7.9427    0.0000 C   0  0  0  0  0  0  0  0  0  0  0  0
  -15.8298    8.9281    0.0000 C   0  0  0  0  0  0  0  0  0  0  0  0
  -16.6729    6.4706    0.0000 C   0  0  0  0  0  0  0  0  0  0  0  0
  -15.2541    5.9839    0.0000 C   0  0  0  0  0  0  0  0  0  0  0  0
  -14.9663    4.5117    0.0000 C   0  0  0  0  0  0  0  0  0  0  0  0
  -13.5474    4.0250    0.0000 C   0  0  0  0  0  0  0  0  0  0  0  0
  -12.4165    5.0103    0.0000 C   0  0  0  0  0  0  0  0  0  0  0  0
  -13.2596    2.5528    0.0000 C   0  0  0  0  0  0  0  0  0  0  0  0
  -11.8408    2.0661    0.0000 C   0  0  0  0  0  0  0  0  0  0  0  0
  -11.5529    0.5939    0.0000 C   0  0  0  0  0  0  0  0  0  0  0  0
  -10.1341    0.1072    0.0000 C   0  0  0  0  0  0  0  0  0  0  0  0
   -9.0031    1.0925    0.0000 C   0  0  0  0  0  0  0  0  0  0  0  0
   -9.8462   -1.3649    0.0000 C   0  0  0  0  0  0  0  0  0  0  0  0
   -8.4274   -1.8517    0.0000 C   0  0  0  0  0  0  0  0  0  0  0  0
   -8.1396   -3.3238    0.0000 C   0  0  0  0  0  0  0  0  0  0  0  0
   -6.7207   -3.8106    0.0000 C   0  0  0  0  0  0  0  0  0  0  0  0
   -7.4465   -5.1233    0.0000 C   0  0  0  0  0  0  0  0  0  0  0  0
   -6.4877   -2.3288    0.0000 C   0  0  0  0  0  0  0  0  0  0  0  0
   -5.0880   -1.7897    0.0000 C   0  0  0  0  0  0  0  0  0  0  0  0
   -3.9212   -2.7324    0.0000 C   0  0  0  0  0  0  0  0  0  0  0  0
   -2.5214   -2.1933    0.0000 C   0  0  0  0  0  0  0  0  0  0  0  0
   -1.3547   -3.1359    0.0000 C   0  0  0  0  0  0  0  0  0  0  0  0
    0.0451   -2.5968    0.0000 O   0  0  0  0  0  0  0  0  0  0  0  0
    1.2119   -3.5395    0.0000 C   0  0  0  0  0  0  0  0  0  0  0  0
    0.9789   -5.0213    0.0000 C   0  0  0  0  0  0  0  0  0  0  0  0
   -0.4209   -5.5604    0.0000 O   0  0  0  0  0  0  0  0  0  0  0  0
    2.1457   -5.9640    0.0000 C   0  0  0  0  0  0  0  0  0  0  0  0
    3.5454   -5.4249    0.0000 C   0  0  0  0  0  0  0  0  0  0  0  0
    4.7122   -6.3675    0.0000 C   0  0  0  0  0  0  0  0  0  0  0  0
    3.7784   -3.9431    0.0000 C   0  0  0  0  0  0  0  0  0  0  0  0
    2.6117   -3.0004    0.0000 C   0  0  0  0  0  0  0  0  0  0  0  0
    2.8447   -1.5186    0.0000 C   0  0  0  0  0  0  0  0  0  0  0  0
    4.2444   -0.9795    0.0000 C   0  0  0  0  0  0  0  0  0  0  0  0
    5.4112   -1.9222    0.0000 C   0  0  0  0  0  0  0  0  0  0  0  0
    6.8300   -2.4089    0.0000 C   0  0  0  0  0  0  0  0  0  0  0  0
    6.1370   -0.6094    0.0000 C   0  0  0  0  0  0  0  0  0  0  0  0
    7.6367   -0.5816    0.0000 C   0  0  0  0  0  0  0  0  0  0  0  0
    8.3624    0.7312    0.0000 C   0  0  0  0  0  0  0  0  0  0  0  0
    9.8622    0.7590    0.0000 C   0  0  0  0  0  0  0  0  0  0  0  0
   10.6362   -0.5259    0.0000 C   0  0  0  0  0  0  0  0  0  0  0  0
   10.5879    2.0718    0.0000 C   0  0  0  0  0  0  0  0  0  0  0  0
   12.0877    2.0996    0.0000 C   0  0  0  0  0  0  0  0  0  0  0  0
   12.8134    3.4123    0.0000 C   0  0  0  0  0  0  0  0  0  0  0  0
   14.3132    3.4402    0.0000 C   0  0  0  0  0  0  0  0  0  0  0  0
   15.0872    2.1553    0.0000 C   0  0  0  0  0  0  0  0  0  0  0  0
   15.0389    4.7529    0.0000 C   0  0  0  0  0  0  0  0  0  0  0  0
   16.5387    4.7808    0.0000 C   0  0  0  0  0  0  0  0  0  0  0  0
   17.2644    6.0935    0.0000 C   0  0  0  0  0  0  0  0  0  0  0  0
   18.7642    6.1214    0.0000 C   0  0  0  0  0  0  0  0  0  0  0  0
   19.4899    7.4341    0.0000 C   0  0  0  0  0  0  0  0  0  0  0  0
   19.5381    4.8365    0.0000 C   0  0  0  0  0  0  0  0  0  0  0  0
    5.1782   -3.4040    0.0000 O   0  0  0  0  0  0  0  0  0  0  0  0
   -1.5876   -4.6177    0.0000 C   0  0  0  0  0  0  0  0  0  0  0  0
   -2.9874   -5.1568    0.0000 C   0  0  0  0  0  0  0  0  0  0  0  0
   -3.2204   -6.6386    0.0000 C   0  0  0  0  0  0  0  0  0  0  0  0
   -4.1542   -4.2142    0.0000 C   0  0  0  0  0  0  0  0  0  0  0  0
   -5.5540   -4.7533    0.0000 O   0  0  0  0  0  0  0  0  0  0  0  0
  1  2  1  0
  2  3  1  0
  2  4  2  0
  4  5  1  0
  5  6  1  0
  6  7  1  0
  7  8  1  0
  7  9  2  0
  9 10  1  0
 10 11  1  0
 11 12  1  0
 12 13  1  0
 12 14  2  0
 14 15  1  0
 15 16  1  0
 16 17  1  0
 17 18  1  0
 17 19  1  0
 19 20  1  0
 20 21  1  0
 21 22  2  0
 22 23  1  0
 23 24  1  0
 24 25  1  0
 25 26  2  0
 26 27  1  0
 26 28  1  0
 28 29  2  0
 29 30  1  0
 29 31  1  0
 31 32  2  0
 32 33  1  0
 33 34  1  0
 34 35  1  0
 35 36  1  0
 35 37  1  0
 37 38  1  0
 38 39  1  0
 39 40  2  0
 40 41  1  0
 40 42  1  0
 42 43  1  0
 43 44  1  0
 44 45  2  0
 45 46  1  0
 45 47  1  0
 47 48  1  0
 48 49  1  0
 49 50  2  0
 50 51  1  0
 50 52  1  0
 35 53  1  0
 23 54  2  0
 54 55  1  0
 55 56  1  0
 55 57  2  0
 57 58  1  0
 58 17  1  0
 57 21  1  0
 32 25  1  0
 53 31  1  0
M  END
>  <identifier>  (612) 
CNP0138925.2

>  <canonical_smiles>  (612) 
CC(C)=CCC/C(C)=C/CC/C(C)=C/CCC1(C)CCC2=CC(OC3=C(O)C=C(C)C4=C3CCC(C)(CC/C=C(\C)CC/C=C(\C)CCC=C(C)C)O4)=CC(C)=C2O1

>  <standard_inchi>  (612) 
InChI=1S/C54H78O4/c1-38(2)19-13-21-40(5)23-15-25-42(7)27-17-31-53(11)33-29-46-37-47(35-44(9)50(46)57-53)56-52-48-30-34-54(12,58-51(48)45(10)36-49(52)55)32-18-28-43(8)26-16-24-41(6)22-14-20-39(3)4/h19-20,23-24,27-28,35-37,55H,13-18,21-22,25-26,29-34H2,1-12H3/b40-23+,41-24+,42-27+,43-28+

>  <standard_inchi_key>  (612) 
XOPGGNWDSFHYPK-MQFJXWNCSA-N

>  <name>  (612) 
nan

>  <iupac_name>  (612) 
nan

>  <annotation_level>  (612) 
0

>  <total_atom_count>  (612) 
136

>  <heavy_atom_count>  (612) 
58

>  <molecular_weight>  (612) 
791.21

>  <exact_molecular_weight>  (612) 
790.59001

>  <molecular_formula>  (612) 
C54H78O4

>  <alogp>  (612) 
16.37

>  <topological_polar_surface_area>  (612) 
47.92

>  <rotatable_bond_count>  (612) 
20

>  <hydrogen_bond_acceptors>  (612) 
4

>  <hydrogen_bond_donors>  (612) 
1

>  <hydrogen_bond_acceptors_lipinski>  (612) 
4

>  <hydrogen_bond_donors_lipinski>  (612) 
1

>  <lipinski_rule_of_five_violations>  (612) 
2

>  <aromatic_rings_count>  (612) 
2

>  <qed_drug_likeliness>  (612) 
0.14

>  <formal_charge>  (612) 
0

>  <fractioncsp3>  (612) 
0.56

>  <number_of_minimal_rings>  (612) 
4

>  <van_der_walls_volume>  (612) 
827.96

>  <contains_sugar>  (612) 
False

>  <contains_ring_sugars>  (612) 
False

>  <contains_linear_sugars>  (612) 
False

>  <murcko_framework>  (612) 
O(c1ccc2OCCCc2c1)c3cccc4OCCCc34

>  <np_likeness>  (612) 
1.23

>  <chemical_class>  (612) 
nan

>  <chemical_sub_class>  (612) 
nan

>  <chemical_super_class>  (612) 
nan

>  <direct_parent_classification>  (612) 
nan

>  <np_classifier_pathway>  (612) 
Terpenoids

>  <np_classifier_superclass>  (612) 
Meroterpenoids

>  <np_classifier_class>  (612) 
Prenyl quinone meroterpenoids

>  <np_classifier_is_glycoside>  (612) 
False

>  <organisms>  (612) 
Iryanthera grandis

>  <collections>  (612) 
Latin America dataset|NuBBEDB

>  <dois>  (612) 
10.1016/S0031-9422(00)80162-4

>  <synonyms>  (612) 
nan

>  <cas>  (612) 
nan

$$$$

     RDKit          2D

 29 33  0  0  0  0  0  0  0  0999 V2000
    6.7244    3.2259    0.0000 C   0  0  0  0  0  0  0  0  0  0  0  0
    5.2865    2.7986    0.0000 C   0  0  0  0  0  0  0  0  0  0  0  0
    4.1976    3.8301    0.0000 C   0  0  0  0  0  0  0  0  0  0  0  0
    4.9377    1.3397    0.0000 C   0  0  0  0  0  0  0  0  0  0  0  0
    3.4998    0.9124    0.0000 C   0  0  0  0  0  0  0  0  0  0  0  0
    2.3090    1.8245    0.0000 C   0  0  0  0  0  0  0  0  0  0  0  0
    1.0736    0.9737    0.0000 C   0  0  0  0  0  0  0  0  0  0  0  0
   -0.3118    0.3985    0.0000 C   0  0  0  0  0  0  0  0  0  0  0  0
   -1.5026    1.3106    0.0000 C   0  0  0  0  0  0  0  0  0  0  0  0
   -2.8879    0.7353    0.0000 C   0  0  0  0  0  0  0  0  0  0  0  0
   -3.0824   -0.7520    0.0000 C   0  0  0  0  0  0  0  0  0  0  0  0
   -4.4677   -1.3273    0.0000 C   0  0  0  0  0  0  0  0  0  0  0  0
   -5.6585   -0.4152    0.0000 C   0  0  0  0  0  0  0  0  0  0  0  0
   -7.1332   -0.6899    0.0000 N   0  0  0  0  0  0  0  0  0  0  0  0
   -7.8501    0.6277    0.0000 C   0  0  0  0  0  0  0  0  0  0  0  0
   -6.8185    1.7167    0.0000 C   0  0  0  0  0  0  0  0  0  0  0  0
   -5.4641    1.0721    0.0000 C   0  0  0  0  0  0  0  0  0  0  0  0
   -4.0788    1.6474    0.0000 C   0  0  0  0  0  0  0  0  0  0  0  0
    0.3566    2.2913    0.0000 C   0  0  0  0  0  0  0  0  0  0  0  0
    1.1392    3.5710    0.0000 O   0  0  0  0  0  0  0  0  0  0  0  0
    1.5009   -0.4641    0.0000 C   0  0  0  0  0  0  0  0  0  0  0  0
    0.7183   -1.7438    0.0000 C   0  0  0  0  0  0  0  0  0  0  0  0
    1.4352   -3.0613    0.0000 C   0  0  0  0  0  0  0  0  0  0  0  0
    2.9347   -3.0993    0.0000 C   0  0  0  0  0  0  0  0  0  0  0  0
    3.3620   -4.5371    0.0000 C   0  0  0  0  0  0  0  0  0  0  0  0
    2.1266   -5.3878    0.0000 C   0  0  0  0  0  0  0  0  0  0  0  0
    0.9357   -4.4758    0.0000 N   0  0  0  0  0  0  0  0  0  0  0  0
    3.7173   -1.8196    0.0000 C   0  0  0  0  0  0  0  0  0  0  0  0
    3.0004   -0.5020    0.0000 C   0  0  0  0  0  0  0  0  0  0  0  0
  1  2  1  0
  2  3  1  0
  2  4  2  0
  5  4  1  6
  5  6  1  0
  6  7  1  0
  7  8  1  0
  8  9  2  0
  9 10  1  0
 10 11  2  0
 11 12  1  0
 12 13  2  0
 13 14  1  0
 14 15  1  0
 15 16  2  0
 16 17  1  0
 17 18  2  0
  7 19  1  6
 19 20  1  0
  7 21  1  0
 21 22  2  0
 22 23  1  0
 23 24  2  0
 24 25  1  0
 25 26  2  0
 26 27  1  0
 24 28  1  0
 28 29  2  0
 29  5  1  0
 18 10  1  0
 29 21  1  0
 17 13  1  0
 27 23  1  0
M  END
>  <identifier>  (613) 
CNP0237300.1

>  <canonical_smiles>  (613) 
CC(C)=C[C@H]1C[C@@](/C=C/C2=CC=C3NC=CC3=C2)(CO)C2=CC3=C(C=CN3)C=C21

>  <standard_inchi>  (613) 
InChI=1S/C26H26N2O/c1-17(2)11-21-15-26(16-29,23-14-25-20(7-10-28-25)13-22(21)23)8-5-18-3-4-24-19(12-18)6-9-27-24/h3-14,21,27-29H,15-16H2,1-2H3/b8-5+/t21-,26-/m0/s1

>  <standard_inchi_key>  (613) 
WWXGZAUMVCMJGR-QWUJSWHYSA-N

>  <name>  (613) 
nan

>  <iupac_name>  (613) 
[(5~{R},7~{S})-7-[(~{E})-2-(1~{H}-indol-5-yl)vinyl]-5-(2-methylprop-1-enyl)-5,6-dihydro-1~{H}-cyclopenta[f]indol-7-yl]methanol

>  <annotation_level>  (613) 
4

>  <total_atom_count>  (613) 
55

>  <heavy_atom_count>  (613) 
29

>  <molecular_weight>  (613) 
382.51

>  <exact_molecular_weight>  (613) 
382.20451

>  <molecular_formula>  (613) 
C26H26N2O

>  <alogp>  (613) 
6.05

>  <topological_polar_surface_area>  (613) 
51.81

>  <rotatable_bond_count>  (613) 
4

>  <hydrogen_bond_acceptors>  (613) 
1

>  <hydrogen_bond_donors>  (613) 
3

>  <hydrogen_bond_acceptors_lipinski>  (613) 
1

>  <hydrogen_bond_donors_lipinski>  (613) 
3

>  <lipinski_rule_of_five_violations>  (613) 
1

>  <aromatic_rings_count>  (613) 
4

>  <qed_drug_likeliness>  (613) 
0.37

>  <formal_charge>  (613) 
0

>  <fractioncsp3>  (613) 
0.23

>  <number_of_minimal_rings>  (613) 
5

>  <van_der_walls_volume>  (613) 
nan

>  <contains_sugar>  (613) 
False

>  <contains_ring_sugars>  (613) 
False

>  <contains_linear_sugars>  (613) 
False

>  <murcko_framework>  (613) 
c1cc2cc(ccc2[nH]1)C=CC3c4cc5[nH]ccc5cc4CC3

>  <np_likeness>  (613) 
0.89

>  <chemical_class>  (613) 
Indoles and derivatives

>  <chemical_sub_class>  (613) 
Indoles

>  <chemical_super_class>  (613) 
Organoheterocyclic compounds

>  <direct_parent_classification>  (613) 
Indoles

>  <np_classifier_pathway>  (613) 
Alkaloids

>  <np_classifier_superclass>  (613) 
Tryptophan alkaloids

>  <np_classifier_class>  (613) 
Simple indole alkaloids

>  <np_classifier_is_glycoside>  (613) 
False

>  <organisms>  (613) 
Raputia megalantha|Raputia simulans

>  <collections>  (613) 
Latin America dataset|NuBBEDB|WikiData Natural Products

>  <dois>  (613) 
10.1590/S0103-50532011000700021

>  <synonyms>  (613) 
Raputindole C

>  <cas>  (613) 
nan

$$$$

     RDKit          2D

 41 45  0  0  0  0  0  0  0  0999 V2000
   -9.8348    3.3838    0.0000 C   0  0  0  0  0  0  0  0  0  0  0  0
   -9.5134    1.9187    0.0000 C   0  0  0  0  0  0  0  0  0  0  0  0
   -8.0838    1.4644    0.0000 C   0  0  0  0  0  0  0  0  0  0  0  0
   -7.7624   -0.0007    0.0000 C   0  0  0  0  0  0  0  0  0  0  0  0
   -6.3328   -0.4549    0.0000 C   0  0  0  0  0  0  0  0  0  0  0  0
   -6.0114   -1.9201    0.0000 C   0  0  0  0  0  0  0  0  0  0  0  0
   -7.1195   -2.9310    0.0000 C   0  0  0  0  0  0  0  0  0  0  0  0
   -4.5818   -2.3743    0.0000 C   0  0  0  0  0  0  0  0  0  0  0  0
   -4.1090   -3.7979    0.0000 C   0  0  0  0  0  0  0  0  0  0  0  0
   -2.6090   -3.7881    0.0000 C   0  0  0  0  0  0  0  0  0  0  0  0
   -2.1548   -2.3585    0.0000 C   0  0  0  0  0  0  0  0  0  0  0  0
   -0.7885   -1.7395    0.0000 C   0  0  0  0  0  0  0  0  0  0  0  0
    0.4307   -2.6133    0.0000 C   0  0  0  0  0  0  0  0  0  0  0  0
    1.7971   -1.9943    0.0000 C   0  0  0  0  0  0  0  0  0  0  0  0
    1.9441   -0.5015    0.0000 C   0  0  0  0  0  0  0  0  0  0  0  0
    3.3105    0.1175    0.0000 C   0  0  0  0  0  0  0  0  0  0  0  0
    3.4575    1.6103    0.0000 C   0  0  0  0  0  0  0  0  0  0  0  0
    4.8239    2.2293    0.0000 O   0  0  0  0  0  0  0  0  0  0  0  0
    6.0431    1.3555    0.0000 C   0  0  0  0  0  0  0  0  0  0  0  0
    5.8960   -0.1372    0.0000 O   0  0  0  0  0  0  0  0  0  0  0  0
    7.1153   -1.0110    0.0000 C   0  0  0  0  0  0  0  0  0  0  0  0
    6.9682   -2.5038    0.0000 C   0  0  0  0  0  0  0  0  0  0  0  0
    5.6019   -3.1228    0.0000 O   0  0  0  0  0  0  0  0  0  0  0  0
    8.4816   -0.3920    0.0000 C   0  0  0  0  0  0  0  0  0  0  0  0
    9.7008   -1.2657    0.0000 O   0  0  0  0  0  0  0  0  0  0  0  0
    8.6286    1.1008    0.0000 C   0  0  0  0  0  0  0  0  0  0  0  0
    9.9950    1.7198    0.0000 O   0  0  0  0  0  0  0  0  0  0  0  0
    7.4094    1.9746    0.0000 C   0  0  0  0  0  0  0  0  0  0  0  0
    7.5565    3.4673    0.0000 O   0  0  0  0  0  0  0  0  0  0  0  0
    2.2383    2.4840    0.0000 C   0  0  0  0  0  0  0  0  0  0  0  0
    0.8720    1.8650    0.0000 C   0  0  0  0  0  0  0  0  0  0  0  0
    0.7249    0.3723    0.0000 C   0  0  0  0  0  0  0  0  0  0  0  0
   -0.4943    1.2460    0.0000 C   0  0  0  0  0  0  0  0  0  0  0  0
   -0.6414   -0.2468    0.0000 C   0  0  0  0  0  0  0  0  0  0  0  0
   -1.8607    0.6270    0.0000 C   0  0  0  0  0  0  0  0  0  0  0  0
   -3.2270    0.0080    0.0000 C   0  0  0  0  0  0  0  0  0  0  0  0
   -3.3741   -1.4848    0.0000 C   0  0  0  0  0  0  0  0  0  0  0  0
   -4.6779   -0.7432    0.0000 C   0  0  0  0  0  0  0  0  0  0  0  0
   -6.9756    2.4754    0.0000 C   0  0  0  0  0  0  0  0  0  0  0  0
   -7.2970    3.9405    0.0000 C   0  0  0  0  0  0  0  0  0  0  0  0
   -5.5460    2.0211    0.0000 C   0  0  0  0  0  0  0  0  0  0  0  0
  1  2  1  0
  3  2  1  1
  3  4  1  0
  4  5  2  0
  5  6  1  0
  6  7  1  6
  6  8  1  0
  8  9  1  6
  9 10  1  0
 11 10  1  6
 11 12  1  0
 12 13  1  1
 13 14  1  0
 14 15  2  0
 15 16  1  0
 16 17  1  0
 17 18  1  6
 19 18  1  1
 19 20  1  0
 20 21  1  0
 21 22  1  1
 22 23  1  0
 21 24  1  0
 24 25  1  6
 24 26  1  0
 26 27  1  1
 26 28  1  0
 28 29  1  6
 17 30  1  0
 30 31  1  0
 31 32  1  0
 32 33  1  6
 32 34  1  0
 34 35  1  6
 35 36  1  0
 36 37  1  0
 37 38  1  6
  3 39  1  0
 39 40  1  0
 39 41  1  0
 37  8  1  0
 37 11  1  0
 34 12  1  0
 32 15  1  0
 28 19  1  0
M  END
>  <identifier>  (614) 
CNP0198481.3

>  <canonical_smiles>  (614) 
CC[C@H](/C=C/[C@@H](C)[C@H]1CC[C@H]2[C@@H]3CC=C4C[C@@H](O[C@@H]5O[C@H](CO)[C@@H](O)[C@H](O)[C@H]5O)CC[C@]4(C)[C@H]3CC[C@]12C)C(C)C

>  <standard_inchi>  (614) 
InChI=1S/C35H58O6/c1-7-22(20(2)3)9-8-21(4)26-12-13-27-25-11-10-23-18-24(14-16-34(23,5)28(25)15-17-35(26,27)6)40-33-32(39)31(38)30(37)29(19-36)41-33/h8-10,20-22,24-33,36-39H,7,11-19H2,1-6H3/b9-8+/t21-,22-,24+,25+,26-,27+,28+,29-,30-,31+,32-,33-,34+,35-/m1/s1

>  <standard_inchi_key>  (614) 
VWDLOXMZIGUBKM-AUGXRQBFSA-N

>  <name>  (614) 
Stigmasterol glucoside

>  <iupac_name>  (614) 
(2~{R},3~{R},4~{S},5~{S},6~{R})-2-[[(3~{S},8~{S},9~{S},10~{R},13~{R},14~{S},17~{R})-17-[(~{E},1~{R},4~{S})-4-ethyl-1,5-dimethyl-hex-2-enyl]-10,13-dimethyl-2,3,4,7,8,9,11,12,14,15,16,17-dodecahydro-1~{H}-cyclopenta[a]phenanthren-3-yl]oxy]-6-(hydroxymethyl)tetrahydropyran-3,4,5-triol

>  <annotation_level>  (614) 
5

>  <total_atom_count>  (614) 
99

>  <heavy_atom_count>  (614) 
41

>  <molecular_weight>  (614) 
574.84

>  <exact_molecular_weight>  (614) 
574.42334

>  <molecular_formula>  (614) 
C35H58O6

>  <alogp>  (614) 
5.63

>  <topological_polar_surface_area>  (614) 
99.38

>  <rotatable_bond_count>  (614) 
8

>  <hydrogen_bond_acceptors>  (614) 
6

>  <hydrogen_bond_donors>  (614) 
4

>  <hydrogen_bond_acceptors_lipinski>  (614) 
6

>  <hydrogen_bond_donors_lipinski>  (614) 
4

>  <lipinski_rule_of_five_violations>  (614) 
2

>  <aromatic_rings_count>  (614) 
0

>  <qed_drug_likeliness>  (614) 
0.28

>  <formal_charge>  (614) 
0

>  <fractioncsp3>  (614) 
0.89

>  <number_of_minimal_rings>  (614) 
5

>  <van_der_walls_volume>  (614) 
571.31

>  <contains_sugar>  (614) 
True

>  <contains_ring_sugars>  (614) 
True

>  <contains_linear_sugars>  (614) 
False

>  <murcko_framework>  (614) 
O1CCCCC1OC2CC3=CCC4C(CCC5CCCC54)C3CC2

>  <np_likeness>  (614) 
2.78

>  <chemical_class>  (614) 
Steroids and steroid derivatives

>  <chemical_sub_class>  (614) 
Stigmastanes and derivatives

>  <chemical_super_class>  (614) 
Lipids and lipid-like molecules

>  <direct_parent_classification>  (614) 
Stigmastanes and derivatives

>  <np_classifier_pathway>  (614) 
Terpenoids

>  <np_classifier_superclass>  (614) 
Steroids

>  <np_classifier_class>  (614) 
Stigmastane steroids

>  <np_classifier_is_glycoside>  (614) 
True

>  <organisms>  (614) 
Abroma augusta|Abroma augustum|Acacia dealbata|Acacia longifolia|Acacia melanoxylon|Acacia retinodes|Acanthochlamys bracteata|Acer spicatum|Actaea dahurica|Adenanthera pavonina|Adenaria floribunda|Agarum cribrosum|Aglaia elliptica|Aglaia odorata|Albizia gummifera|Allanblackia floribunda|Allanblackia gabonensis|Allanblackia monticola|Allanblackia monticola STANER L.C.|Alstonia angustiloba|Alstonia undulifolia|Amaranthus spinosus|Ampelopsis japonica|Annona cherimola|Annona glabra|Annona purpurea|Anthemis|Arctanthemum arcticum|Arctium lappa|Artemisia alba|Artemisia austriaca|Artemisia pectinata|Asparagus curillus|Aspergillus microcysticus|Aspilia paludosa|Aster|Aster altaicus|Asteriscus aquaticus|Asteriscus sericeus|Astraeus hygrometricus|Baccharis grandicapitulata|Bacillus subtilis|Bacopa monnieri|Beesia calthifolia|Begonia heracleifolia|Berberis vulgaris|Betula platyphylla|Bidens bipinnata|Bidens subalternans|Blainvillea acmella|Boschniakia rossica|Botrychium ternatum|Brucea javanica|Bursera kerberi|Butea monosperma|Calea mediterranea|Calea platylepis|Camellia japonica|Campylospermum sulcatum|Capparis ovata|Caragana sinica|Carthamus mareoticus|Cassia roxburghii|Cassine papillosa|Catananche caerulea|Celosia argentea|Centaurea aspera|Centaurea sulphurea|Centaurea thessala|Cephalaria procera|Charpentiera obovata|Chlorophytum arundinaceum|Chrysolaena propinqua|Cinnamomum Subavenium|Cinnamomum kotoense|Cinnamomum subavenium|Cinnamomum subavenium MIQ.|Cirsium wallichii|Citropsis articulata|Citrus paradisi|Clathria prolifera|Clausena dunniana|Clausena excavata|Cleome droserifolia|Clerodendrum inerme|Clerodendrum trichotomum|Clinacanthus nutans|Coffea liberica var. dewevrei|Conus pulicarius|Corchorus aestuans|Coriaria napalensis|Corydalis calliantha|Corynascus setosus|Costasiella ocellifera|Coussarea brevicaulis|Creosphaeria sassafras|Crotalaria stolzii|Croton montevidensis|Cucumis sativus|Cupania vernalis|Curcuma aeruginosa|Cyanthillium cinereum|Cytisus ciliatus|Daphne blagayana|Daphne oleoides|Datisca glomerata|Delisea elegans|Delphinium giraldii|Deverra tortuosa|Dicliptera japonica|Digitalis obscura|Dioscorea olfersiana|Diospyros crassiflora|Diospyros maritima|Diospyros mcphersonii|Diplopappus fruticosus|Domohinea perrieri|Dorema kopetdaghense|Dracaena cochinchinensis|Dracaena mannii|Dryocosmus kuriphilus|Drypetes inaequalis|Ecballium elaterium|Echinus microtuberculatus|Eclipta alba|Eclipta prostrata|Elephantopus scaber|Emericellopsis minima|Eriocapitella tomentosa|Erythrina indica|Erythrina orientalis|Erythrina variegata|Eucalyptus albens|Euonymus fortunei|Eupatorium macrocephalum Lee.|Euploca racemosa|Fagara heitzii|Fagus fusca|Ferula persica|Ficus virens|Foeniculum vulgare|Fritillaria cirrhosa|Galega officinalis|Garcinia griffithii|Genista tinctoria|Glaucium flavum|Gliricidia sepium|Gonocaryum calleryanum|Gutierrezia dracunculoides|Gynura japonica|Haloxylon salicornicum|Hebanthe erianthos|Hedera nepalensis|Hedera rhombea|Hedera taurica|Hedysarum gmelini|Helenium integrifolium|Helianthus radula|Helichrysum arenarium|Helichrysum auriceps|Helipterum propinquum|Heptapleurum bodinieri|Hubertia tomentosa|Icacina oliviformis|Icacina senegalensis|Inula anatolica|Inula britannica|Inula japonica|Inula thapsoides|Iotrochota purpurea|Isotachis japonica|Jungermannia infusca|Juniperus scopulorum|Labisia pumila|Lasianthaea podocephala|Lasianthus gardneri|Lepisanthes Rubiginosa|Lepisanthes rubiginosa|Lessingia glandulifera|Leucas inflata|Liatris aspera|Licaria triandra|Ligustrum obtusifolium|Limnodynastes interioris|Lithodora fruticosa|Lobophytum denticulatum|Lotus ucrainicus|Lotus villosus|Lupinus cosentinii|Mannia fragrans|Marsupella emarginata|Melampodium leucanthum|Mesua beccariana|Mesua elegans|Metridium senile|Michelia rajaniana|Micromonospora echinospora|Mikania hoehnei|Mikania stipulacea|Millettia pinnata|Mimosa hostilis|Mimosa tenuiflora|Montanoa tomentosa|Morella pensylvanica|Myelobia smerintha|Myristica cagayanensis|Nardosmia laevigata|Neolitsea acuminatissima|Nephthea armata|Nigella sativa|Onopordum macrocanthum|Onychopetalum amazonicum|Operculina turpethum|Ophidiaster ophidianus|Oriciopsis glaberrima|Oriciopsis glaberrima ENGL.|Ormosia dasycarpa|Ouratea castaneifolia|Ouratea sulcata|Oxylobus arbutifolius|Paliurus hemsleyanus|Panax pseudoginseng|Papaver pseudocanescens|Paris polyphylla var. chinensis|Parthenium bipinnatifidum|Passiflora alata|Pellacalyx axillaris|Pentanema britannicum|Peperomia blanda|Peperomia humilis|Peperomia leptostachya|Pestalotiopsis oenotherae|Phebalium dentatum|Phebalium whitei|Phlomis crinita|Phora atra|Phyllanthus oligospermus|Pinus montezumae|Piper brachystachyum|Piper lolot|Piper nigrum|Piper pedicellatum|Piper sarmentosum|Piptocarpha opaca|Piptostigma fugax|Pittosporum undulatum|Plagiochila yokogurensis|Platycladus orientalis|Pluchea indica|Pogostemon parviflorus|Polyalthia longifolia|Polygala caudata|Polygonum flaccidum|Polyscias fulva|Pongamia Pinnata|Pongamia pinnata|Pontederia africana|Pourouma guianensis|Prunella vulgaris|Prunus zippeliana|Psacalium megaphyllum|Pseudocyphellaria australiensis|Pseudowintera colorata|Psidium acutangulum|Psychotria correae|Quercus imbricaria|Rauvolfia vomitoria|Renealmia alpinia|Rhamnus formosana|Rhinacanthus nasutus|Rhododendron latoucheae|Rhododendron mucronulatum|Rosa agrestis|Rumex nepalensis|Russula subnigricans|Salvia bucharica|Salvia urolepis|Samadera indica|Saprosma scortechinii|Sarcomyxa serotina|Sarcophyton flexuosum|Schefflera bodinieri|Scorzonera tomentosa|Scrophularia koelzii|Scyphiphora hydrophylacea|Scyphiphora hydrophyllacea|Sechium edule|Selinum libanotis|Senecio bonariensis|Senecio congestus|Senna spectabilis|Sesbania bispinosa|Sideritis dasygnaphala|Smallanthus maculatus|Smooth hawksbeard|Solanderia secunda|Solanum aethiopicum|Solanum andigena|Solanum chrysotrichum|Solanum incanum|Solanum melongena|Solanum virginianum|Sphaeranthus indicus|Sphagneticola trilobata|Spilanthes acmella|Spiracantha cornifolia|Stellaria media|Stemonoporus affinis|Stephanitis rhododendri|Stevia serrata|Stiretrus anchorago|Streptomyces luteosporeus|Streptomyces melanogenes|Streptomyces parvisporogenes|Streptomyces platensis|Strobilomyces floccopus|Strychnos ligustrina|Symplocos lancifolia|Syzygium aromaticum|Tadehagi triquetrum|Tanacetum cinerariifolium|Tanacetum sinaicum|Taraxacum formosanum|Taraxacum mongolicum|Tephroseris kirilowii|Tetragonia tetragonioides|Thalictrum simplex|Tichocarpus crinitus|Tithonia longiradiata|Torenia anagallis|Trianthema portulacastrum|Trichilia claussenii|Trichosurus vulpecula|Trifolium resupinatum|Tylophora tanakae|Umbelopsis vinacea|Vachellia pennatula|Vepris glaberrima|Vernonia tufnellae|Veronica kellereri|Viscum coloratum|Vitex negundo|Vitis betulifolia|Viviparus japonicus|Withania somnifera|Xanthium strumarium|Zanthoxylum heitzii|Zephyranthes flava|Ziziphus jujuba|clove

>  <collections>  (614) 
ANPDB|Australian natural products|CMAUP (cCollective molecular activities of useful plants)|ChEBI NPs|ChemSpider NPs|EMNPD|KNApSaCK|Latin America dataset|NANPDB (Natural Products from Northern African Sources)|NPASS|NuBBEDB|Phyto4Health|Super Natural II|TIPdb (database of Taiwan indigenous plants)|VietHerb|WikiData Natural Products|ZINC NP

>  <dois>  (614) 
10.1002/CHIN.200342212|10.1002/CHIN.200352219|10.1002/CHIN.200447158|10.1002/CHIN.200549164|10.1002/CHIN.201034210|10.1002/HLCA.200790179|10.1002/JCCS.198200006|10.1002/JCCS.199200061|10.1002/JCCS.199900010|10.1002/JCCS.199900110|10.1002/JCCS.200000124|10.1002/JCCS.200100177|10.1002/JCCS.200300156|10.1002/JCCS.200400131|10.1002/JPS.2600770620|10.1007/BF00630363|10.1007/BF00630450|10.1007/S10600-005-0133-8|10.1007/S10600-006-0193-4|10.1007/S10600-007-0133-Y|10.1007/S10600-011-9772-0|10.1007/S10600-011-9914-4|10.1007/S10600-011-9944-Y|10.1007/S10600-017-2003-6|10.1007/S10600-017-2124-Y|10.1007/S11745-005-1388-Y|10.1007/s11745-005-1388-y|10.1016/0031-9422(73)80027-5|10.1016/0031-9422(74)85034-X|10.1016/0031-9422(83)80160-5|10.1016/0031-9422(83)80245-3|10.1016/0031-9422(83)83036-2|10.1016/0031-9422(84)83094-0|10.1016/0031-9422(88)80126-2|10.1016/0031-9422(89)80227-4|10.1016/0031-9422(89)80349-8|10.1016/0031-9422(90)80133-2|10.1016/0031-9422(90)83073-A|10.1016/0031-9422(90)85299-U|10.1016/0031-9422(90)85356-K|10.1016/0031-9422(90)89069-L|10.1016/0031-9422(91)83648-5|10.1016/0031-9422(92)80448-N|10.1016/0031-9422(92)83315-P|10.1016/0031-9422(94)00675-J|10.1016/0031-9422(94)00737-E|10.1016/0031-9422(94)00823-C|10.1016/0031-9422(95)00427-9|10.1016/0031-9422(95)00774-1|10.1016/0378-8741(93)90010-3|10.1016/J.BMCL.2010.05.061|10.1016/J.BSE.2003.10.008|10.1016/J.FITOTE.2010.05.011|10.1016/J.PHYTOCHEM.2005.06.017|10.1016/J.PHYTOCHEM.2007.08.001|10.1016/J.PHYTOCHEM.2007.10.024|10.1016/J.PHYTOCHEM.2008.12.017|10.1016/J.PHYTOCHEM.2009.04.024|10.1016/J.PHYTOCHEM.2009.08.007|10.1016/J.PHYTOCHEM.2009.12.016|10.1016/J.PHYTOCHEM.2011.06.014|10.1016/J.PHYTOL.2014.02.011|10.1016/J.STEROIDS.2005.09.007|10.1016/S0031-9422(00)00136-9|10.1016/S0031-9422(00)00486-6|10.1016/S0031-9422(00)81055-9|10.1016/S0031-9422(00)83606-7|10.1016/S0031-9422(00)84956-0|10.1016/S0031-9422(00)90128-6|10.1016/S0031-9422(00)91131-2|10.1016/S0031-9422(00)95013-1|10.1016/S0031-9422(01)00368-5|10.1016/S0031-9422(02)00036-5|10.1016/S0031-9422(03)00183-3|10.1016/S0031-9422(03)00268-1|10.1016/S0031-9422(82)85045-0|10.1016/S0031-9422(96)00459-1|10.1016/S0031-9422(96)00460-8|10.1016/S0031-9422(96)00560-2|10.1016/S0031-9422(97)00313-0|10.1016/S0031-9422(97)00399-3|10.1016/S0031-9422(97)00690-0|10.1016/S0031-9422(97)80032-5|10.1016/S0031-9422(98)00600-1|10.1016/S0031-9422(98)00701-8|10.1016/S0031-9422(98)00731-6|10.1016/S0031-9422(99)00059-X|10.1016/S0031-9422(99)00192-2|10.1016/S0031-9422(99)00464-1|10.1016/S0305-1978(02)00038-8|10.1016/S0367-326X(00)00219-7|10.1016/S0367-326X(00)00316-6|10.1016/S0928-3420(99)80012-3|10.1016/S1875-5364(19)30114-1|10.1016/j.bmcl.2010.05.061|10.1021/JF0483117|10.1021/JF071963L|10.1021/NP010236W|10.1021/NP020261H|10.1021/NP030015L|10.1021/NP030207G|10.1021/NP030374G|10.1021/NP0580210|10.1021/NP060107L|10.1021/NP060425K|10.1021/NP070043U|10.1021/NP100487J|10.1021/NP100502Y|10.1021/NP50034A043|10.1021/NP50050A048|10.1021/NP50068A041|10.1021/NP990548N|10.1021/np030207g|10.1021/np100502y|10.1023/B:CONC.0000033929.60336.BB|10.1039/C39940000773|10.1039/P19870000629|10.1055/S-1999-13967|10.1055/S-2003-38883|10.1055/S-2003-42796|10.1055/S-2006-957460|10.1055/S-2006-957586|10.1055/S-2006-960030|10.1055/S-2006-961521|10.1055/S-2006-962793|10.1078/0944-7113-00381|10.1080/10286020.2010.503652|10.1080/10575639208048902|10.1080/14786410801892078|10.1111/J.1744-7909.2005.00060.X|10.1135/CCCC19842661|10.1248/CPB.33.3324|10.1248/CPB.33.3473|10.1248/CPB.35.1610|10.1248/CPB.41.2007|10.1248/CPB.47.1448|10.1248/CPB.51.599|10.1248/CPB.54.1063|10.1248/CPB.54.111|10.1248/CPB.54.292|10.1248/CPB.56.97|10.1248/YAKUSHI.121.497|10.1248/YAKUSHI1947.104.2_157|10.1262/JRD.49.175|10.1515/ZNB-2005-0212|10.1515/ZNB-2006-0914|10.1515/ZNC-2003-9-1014|10.1590/S0100-40422001000100006|10.1590/S0102-695X2009000600004|10.1590/S0103-50532001000100003|10.1590/S0103-50532001000300014|10.1590/S0103-50532001000400019|10.1590/S0103-50532003000100008|10.1590/S0103-50532003000500006|10.21608/BFSA.1989.72063|10.21608/BFSA.2001.65693|10.21608/BFSA.2001.65755|10.21608/BFSA.2001.65917|10.26459/JNS.V116I2.3763|10.3109/14756369309040765|10.3390/10080971|10.3390/MOLECULES14020850|10.3797/SCIPHARM.AUT-00-39|10.4268/CJCMM20141017

>  <synonyms>  (614) 
(2R,3R,4S,5S,6R)-2-[[(3S,8S,9S,10R,13R,14S,17R)-17-[(E,2R,5S)-5-ethyl-6-methylhept-3-en-2-yl]-10,13-dimethyl-2,3,4,7,8,9,11,12,14,15,16,17-dodecahydro-1H-cyclopenta[a]phenanthren-3-yl]oxy]-6-(hydroxymethyl)oxane-3,4,5-triol|(3beta,22E)-stigmasta-5,22-dien-3-yl beta-D-glucopyranoside|19716-26-8|3-O-beta-D-glucopyranosylstigmasterol|3-\u221a\u00e9\u00ac\u2264-D-glucosylstigmasterol|AKOS037515192|BDBM50357395|CHEBI:68383|CHEMBL447335|CS-0016492|DTXSID601289039|HY-N1200|MS-30354|Poriferasterol monoglucoside|Q27136880|Stigmasta-5,22-dien-3-O-.beta.-D-glucopyranoside|Stigmasterol 3-O-I(2)-D-glucopyranoside|Stigmasteryl-3-O-beta-D-glucopyranoside|beta-sitosterol-beta-D-glycoside|stigma-5,22-dien-3-beta-D-glucopyranoside|stigmasterol 3-O-beta-D-glucoside|stigmasterol glucoside

>  <cas>  (614) 
19716-26-8

$$$$

     RDKit          2D

 21 23  0  0  0  0  0  0  0  0999 V2000
   -5.5618   -2.5364    0.0000 O   0  0  0  0  0  0  0  0  0  0  0  0
   -4.5413   -1.4371    0.0000 C   0  0  0  0  0  0  0  0  0  0  0  0
   -4.9831   -0.0036    0.0000 C   0  0  0  0  0  0  0  0  0  0  0  0
   -3.9626    1.0957    0.0000 C   0  0  0  0  0  0  0  0  0  0  0  0
   -4.4044    2.5292    0.0000 O   0  0  0  0  0  0  0  0  0  0  0  0
   -2.5003    0.7616    0.0000 C   0  0  0  0  0  0  0  0  0  0  0  0
   -1.4798    1.8610    0.0000 C   0  0  0  0  0  0  0  0  0  0  0  0
   -0.0175    1.5269    0.0000 C   0  0  0  0  0  0  0  0  0  0  0  0
    1.0030    2.6262    0.0000 O   0  0  0  0  0  0  0  0  0  0  0  0
    0.4243    0.0934    0.0000 C   0  0  0  0  0  0  0  0  0  0  0  0
    1.8866   -0.2407    0.0000 C   0  0  0  0  0  0  0  0  0  0  0  0
    2.3285   -1.6741    0.0000 C   0  0  0  0  0  0  0  0  0  0  0  0
    3.7908   -2.0083    0.0000 C   0  0  0  0  0  0  0  0  0  0  0  0
    4.8113   -0.9089    0.0000 C   0  0  0  0  0  0  0  0  0  0  0  0
    6.2736   -1.2430    0.0000 O   0  0  0  0  0  0  0  0  0  0  0  0
    4.3695    0.5246    0.0000 C   0  0  0  0  0  0  0  0  0  0  0  0
    5.3900    1.6239    0.0000 O   0  0  0  0  0  0  0  0  0  0  0  0
    2.9071    0.8587    0.0000 C   0  0  0  0  0  0  0  0  0  0  0  0
   -0.5962   -1.0059    0.0000 O   0  0  0  0  0  0  0  0  0  0  0  0
   -2.0585   -0.6718    0.0000 C   0  0  0  0  0  0  0  0  0  0  0  0
   -3.0790   -1.7712    0.0000 C   0  0  0  0  0  0  0  0  0  0  0  0
  1  2  1  0
  2  3  2  0
  3  4  1  0
  4  5  1  0
  4  6  2  0
  6  7  1  0
  7  8  1  0
  8  9  1  1
  8 10  1  0
 10 11  1  1
 11 12  2  0
 12 13  1  0
 13 14  2  0
 14 15  1  0
 14 16  1  0
 16 17  1  0
 16 18  2  0
 10 19  1  0
 19 20  1  0
 20 21  2  0
 21  2  1  0
 20  6  1  0
 18 11  1  0
M  END
>  <identifier>  (615) 
CNP0293352.2

>  <canonical_smiles>  (615) 
OC1=CC(O)=C2C[C@@H](O)[C@@H](C3=CC=C(O)C(O)=C3)OC2=C1

>  <standard_inchi>  (615) 
InChI=1S/C15H14O6/c16-8-4-11(18)9-6-13(20)15(21-14(9)5-8)7-1-2-10(17)12(19)3-7/h1-5,13,15-20H,6H2/t13-,15-/m1/s1

>  <standard_inchi_key>  (615) 
PFTAWBLQPZVEMU-UKRRQHHQSA-N

>  <name>  (615) 
(-)-Epicatechin

>  <iupac_name>  (615) 
(2~{R},3~{R})-2-(3,4-dihydroxyphenyl)chromane-3,5,7-triol

>  <annotation_level>  (615) 
5

>  <total_atom_count>  (615) 
35

>  <heavy_atom_count>  (615) 
21

>  <molecular_weight>  (615) 
290.27

>  <exact_molecular_weight>  (615) 
290.07904

>  <molecular_formula>  (615) 
C15H14O6

>  <alogp>  (615) 
1.55

>  <topological_polar_surface_area>  (615) 
110.38

>  <rotatable_bond_count>  (615) 
1

>  <hydrogen_bond_acceptors>  (615) 
6

>  <hydrogen_bond_donors>  (615) 
5

>  <hydrogen_bond_acceptors_lipinski>  (615) 
6

>  <hydrogen_bond_donors_lipinski>  (615) 
5

>  <lipinski_rule_of_five_violations>  (615) 
0

>  <aromatic_rings_count>  (615) 
2

>  <qed_drug_likeliness>  (615) 
0.51

>  <formal_charge>  (615) 
0

>  <fractioncsp3>  (615) 
0.20

>  <number_of_minimal_rings>  (615) 
3

>  <van_der_walls_volume>  (615) 
244.61

>  <contains_sugar>  (615) 
False

>  <contains_ring_sugars>  (615) 
False

>  <contains_linear_sugars>  (615) 
False

>  <murcko_framework>  (615) 
O1c2ccccc2CCC1c3ccccc3

>  <np_likeness>  (615) 
2.30

>  <chemical_class>  (615) 
Flavonoids

>  <chemical_sub_class>  (615) 
Flavans

>  <chemical_super_class>  (615) 
Phenylpropanoids and polyketides

>  <direct_parent_classification>  (615) 
Catechins

>  <np_classifier_pathway>  (615) 
Shikimates and Phenylpropanoids

>  <np_classifier_superclass>  (615) 
Flavonoids

>  <np_classifier_class>  (615) 
Flavan-3-ols

>  <np_classifier_is_glycoside>  (615) 
False

>  <organisms>  (615) 
Aaptos aaptos|Abedus herberti|Abies bifolia|Abutilon theophrasti|Acacia Catechu|Acacia Nilotica|Acacia adunca|Acacia aneura|Acacia arabica|Acacia aulacocarpa|Acacia baileyana|Acacia binervia|Acacia burrowii|Acacia calamifolia|Acacia catechu|Acacia cheelii|Acacia clunies-rossiae|Acacia concurrens|Acacia confusa|Acacia dealbata|Acacia deanei|Acacia doratoxylon|Acacia falciformis|Acacia fimbriata|Acacia floribunda|Acacia homalophylla|Acacia implexa|Acacia ixiophylla|Acacia lanigera|Acacia mabellae|Acacia mearnsii|Acacia melanoxylon|Acacia mollifolia|Acacia nilotica|Acacia obtusifolia|Acacia omalophylla|Acacia oswaldii|Acacia pendula|Acacia pubifolia|Acacia pycnantha|Acacia pycnostachya|Acacia retinodes|Acacia rigens|Acacia sp.|Acacia trineura|Acacia verniciflua|Acanthella acuta|Acanthophyllum elatius|Acanthospermum glabratum|Acer barbinerve|Acer nikoense|Aconitum nevadense|Aconitum pseudohuiliense|Aconitum sachalinense|Acrotrema uniflorum|Actinidia arguta|Actinidia chinensis|Actinidia chinensis var. deliciosa|Actinidia chinensis var. hispida|Actinidia deliciosa|Actinopyga agassizi|Adenopeltis colliguaya|Adiantum lunulatum|Aesculus californica|Aesculus carnea|Aesculus hippocastanum|Aesculus sp.|Agasthiyamalaia pauciflora|Aglaia formosana|Aglaia laxiflora|Agrimonia sp.|Agrobacterium tumefaciens|Agrotis fucosa|Aguacate|Aiouea montana|Alangium grisolleoides|Alangium premnifolium|Albizia lebbeck|Alcyonium molle|Alexandrian laurel|Alexandrium hiranoi|Alhagi sparsifolia|Alkanna cappadocica|Allanblackia gabonensis|Allanblackia monticola|Allium rosenorum|Alnus hirsuta|Aloe africana|Aloe ferox|Aloe spicata|Aloe vera|Alpinia zerumbet|Alseodaphne corneri|Alstonia deplanchei|Alstonia spathulata|Alstonia undulifolia|Amanita cokeri|Amaranthus hypochondriacus|Amathia pinnata|Ampelopsis Japonica|Ampelopsis japonica|Anacardium occidentale|Anacystis montana|Anchomanes difformis|Ancistrocladus korupensis|Angelica pubescens|Angelica taiwaniana|Angelica tarokoensis|Aniba riparia|Annella reticulata|Annona cornifolia|Annona impressivenia|Annona muricata|Annona reticulata|Anthelia juratzkana|Aphis graminum|Aphis pini|Apium graveolens|Aplidium tabascum|Aplophyllum popovii|Aplysia parvula|Aplysia punctata|Apocynum cannabinum|Apocynum venetum|Arabidopsis thaliana|Arbutus andrachne|Arbutus unedo|Arca noae|Arcyria denudata|Areca catechu|Artemisia assoana|Artemisia carvifolia|Artemisia dentata|Artemisia incanescens|Artemisia rehan|Artemisia schimperi|Arum alpinum|Aspergillus arenarius|Aspergillus desertorum|Aspergillus fischeri|Aspergillus quadrilineatus|Aspergillus unguis|Aster bellidiastrum|Asteracantha longifolia|Asteriscus aquaticus|Asteriscus graveolens|Asterospicularia laurae|Astragalus sempervirens|Atalantia racemosa|Atractylodes macrocephala|Atraphaxis frutescens|Atylosia trinervia|Aulacocephalus temmincki|Aulosira fertilissima|Avena sativa|Averrhoa Carambola|Averrhoa carambola L.|Avrainvillea longicaulis|Azadirachta Azadirachta indica|Azadirachta indica|Baccharis megapotamica|Bacillus subtilis|Banisteriopsis caapi|Barbarea verna|Bauhinia racemosa|Begonia fagifolia|Begonia sp.|Bellium bellidioides|Berchemia floribunda|Berchemia racemosa|Bergia capensis|Berneuxia thibetica|Bersama yangambiensis|Bertholletia excelsa|Beta vulgaris|Betula|Betula platyphylla|Betula pubescens|Bidens sulphureus|Bishovia boliviensis|Bituminaria bituminosa|Blastochloris viridis|Blitum virgatum|Boehmeria nivea|Boletus pini|Bombax ceiba|Bombus hortorum|Bombus muscorum|Boronia coerulescens|Bragantia wallichii|Brevibacterium linens|Brosimopsis acutifolium|Brosimum acutifolium|Bryum argenteum|Buddleja cordata|Buphane fischeri|Burkea africana|Byrsonima crassifolia|Cacalia bicolor|Callicarpa japonica|Callicarpa maingayi|Calliphora vicina|Calluna sp.|Calluna vulgaris|Caloboletus calopus|Caloncoba glauca|Calophyllum apetalum|Calophyllum enervosum|Calostephane divaricata|Calycolpus warszewiczianus|Camellia Japonica|Camellia Sinensis|Camellia crassicolumna|Camellia crassicolumna var. multiplex|Camellia irrawadiensis|Camellia japonica|Camellia sinensis|Camellia sinensis (L.) O.KUNTZE|Camellia sp.|Camellia taliensis|Campylospermum flavum|Campylotropis hirtella|Capnoides sempervirens|Capparis ovata|Capsicum annuum|Caragana aurantiaca|Carya illinoinensis|Casearia clarkei|Cashew|Cassia Javanica|Cassia fistula|Cassia javanica|Cassine papillosa|Castanopsis hystrix|Castanopsis sclerophylla|Casuarina sp.|Cecropia glaziovii|Cecropia hololeuca|Cecropia pachystachya|Celastrus Orbiculatus|Celastrus angulatus|Celastrus flagellaris|Celastrus orbiculatus|Celastrus paniculatus|Centaurea calcitrapa|Centaurea seridis|Centella asiatica|Centrosema pascuorum|Cephalaria uralensis|Cephalotaxus harringtonii var. harringtonii|Ceratiola ericoides|Ceratocystis clavigera|Ceratonia sp.|Ceratozamia fuscoviridis|Cereus candicans|Cereus weberi|Chaenomeles japonica|Chaenomeles sinensis|Chaenomeles speciosa|Chamaecyparis formosensis|Chamomilla recutita|Charpentiera obovata|Cheiropteris palmatopedata|Chelonia japonica|Chimarrhis turbinata|Chromatium okenii|Chromodoris lochi|Chrozophora obliqua|Chrysophyllum cainito|Chrysothamnus parryi|Cicer arietinum|Cinamomum cassia|Cinchona succirubra|Cinnamomum Cassia|Cinnamomum Subavenium|Cinnamomum aromaticum|Cinnamomum bejolghota|Cinnamomum burmanni|Cinnamomum cassia|Cinnamomum cassia Blume.|Cinnamomum kotoense|Cinnamomum obtusifolium Nees.|Cinnamomum philippinense|Cinnamomum sieboldii|Cinnamomum sp.|Cinnamomum subavenium|Cinnamomum tenuifolium|Cinnamomum triplinerve|Cinnamomum zeylanicum|Cinnamon|Cistus salviifolius|Citrus glauca|Cladonia fallax|Cladrastis platycarpa|Clathria prolifera|Cleome chrysantha|Clione antarctica|Clusia sandiensis|Cneorum pulverulentum|Cocos nucifera|Codium decorticatum|Coffea|Cola acuminata|Cola nitida|Cola sp.|Coleogyne ramosissima|Coleogyne ramosissima Torr.|Coleus esquirolii|Coleus garckeanus|Colobocentrotus atratus|Colophospermum mopane|Combretum quadrangulare|Conocephalum japonicum|Conoideocrella luteorostrata|Consolida ajacis|Consolida hohenackeri|Conus pulicarius|Conus tribblei|Convallaria keiskei|Coprinellus flocculosus|Coprosma areolata|Cordylanthus kingii|Cortinarius orellanus|Corylus|Cotoneaster orbicularis|Cotyledon secunda|Cowania mexicana|Crambe tatarica|Crataegus|Crataegus laevigata|Crataegus monogyna|Crataegus oxyacantha L. (1753)|Crataegus pinnatifida|Crataegus sp.|Cratoxylum formosum|Crinipellis scabella|Critonia quadrangularis|Crotalaria aegyptiaca|Croton cumingii|Croton insularis|Croton lechleri|Croton lechleri Mull.Arg.|Croton montevidensis|Cryptocarya alba|Cryptocarya obovata|Cryptomeria japonica|Cryptotermes cynocephalus|Cucumis melo|Cucurbita pepo|Cupania latifolia|Curarea candicans|Cycas circinalis|Cydonia|Cydonia oblonga|Cylindrospermopsis raciborskii|Cylindrospermum muscicola|Cynara humilis|Cynomorium songaricum|Cyperus longus|Cyperus papyrus|Cystophora scalaris|Dacrydium fonki|Dalbergia assamica|Dalbergia frutescens|Dalbergia stipulacea|Dasiphora fruticosa|Dasycladus vermicularis|Datisca glomerata|Daucus Carota|Daucus carota|Davallia bullata|Davallia divaricata|Davallia mariesii|Davallia trichomanoides|Delavaya toxocarpa|Delphinium andersoni|Delphinium fangshanense|Dendrodoris tuberculosa|Dermolepida albohirtum|Detarium microcarpum|Dicoma capensis|Dicranopteris pedata|Didemnum chartaceum|Didymium bahiense|Digitalis isabelliana|Dimocarpus longan|Dimorphotheca aurantiaca|Dinemasporium strigosum|Dioscorea bulbifera|Dioscorea cirrhosa|Dioscorea olfersiana|Diospyros eriantha|Diospyros kaki|Diphasia angolensis|Diplodia natalensis|Disynaphia halimifolia|Dolomiaea souliei|Doodia picta|Dorstenia contrajerva|Drechslera avenae|Drynaria Fortunei|Drynaria fortunei|Drynaria fortunei Kunze J.SM.|Drynaria roosii|Dumortiera hirsuta|Ecballium elaterium|Ecdysanthera utilis|Echinochloa crus-galli|Echinops transiliensis|Echinosophora koreensis|Echinus microtuberculatus|Echium pininana|Ekebergia capensis|Elaeagnus angustifolia|Elaeagnus commutata|Elaeagnus glabra|Elatophilus hebraicus|Elegia deusta|Elephantopus hirtiflorus|Elephantopus tomentosus|Encyothalia cliftonii|Entada phaseoloides|Ephedra sinica|Ephedra sp.|Epimedium davidii|Eragrostis viscosa|Eremanthus seidelii|Erica arborea|Erica glauca|Erigeron crispus|Eriobotrya Japonica|Eriobotrya japonica|Eriophyllum confertiflorum|Eriosema chinense|Erysimum odoratum|Erythroxylum cambodianum|Erythroxylum leal-costae|Erythroxylum passerinum|Etlingera elatior|Eucalyptus camaldulensis|Eucalyptus flocktoniae|Eucalyptus melliodora|Euclea crispa|Eucommia ulmoides|Eudistoma bituminis|Eunicea mammosa|Eunicella cavolinii|Eupatorium gracile|Euphorbia amygdaloides|Euphorbia hirta|Euphorbia turczaninowii|Eupolyphaga sinensis|Euryops algoensis|Eutypella scoparia|Eysenhardtia subcoriacea|Eysenhardtia subcoriacea Pennell|Fagopyrum Esculentum|Fagopyrum acutatum|Fagopyrum cymosum|Fagopyrum dibotrys|Fagopyrum esculentum|Fagopyrum homotropicum|Fagus fusca|Fagus grandifolia|Fallopia multiflora|Ficus carica|Ficus microcarpa|Ficus simplicissima|Flemingia congesta|Flindersia brayleyana|Fomes cajanderi|Forsteronia refracta|Fragaria|Fragaria vesca|Fragaria x ananassa|Fraxinus angustifolia subsp. oxycarpa|Fridericia chica|Fritillaria ningguoensis|Frullania tamarisci|Fugopyrum esculentum calli|Galenia africana|Gambierdiscus toxicus|Garcinia Mangostana|Garcinia celebica|Garcinia cornea|Garcinia dulcis|Garcinia intermedia|Garcinia mangostana|Garcinia morella|Garcinia speciosa|Gardenia jasminoides|Gardenia turgida|Gentiana germanica|Geranium pratense|Geranium sp.|Geranium sylvaticum|Geranium thunbergii|Gerbera piloselloides|Ginkgo biloba|Ginkgo sp.|Gleditsia japonica|Gleditsia sinensis|Globba malaccensis|Glycyrrhiza uralensis|Gmelina asiatica|Gnetum latifolium|Gnidia lamprantha|Gomortega keule|Goniothalamus amuyon|Goniothalamus malayanus|Gossypium hirsutum|Grewia mollis|Griselinia littoralis|Guazuma ulmifolia|Gymnocarpium robertianum|Gymnosporia heterophylla|Gymnosporia pyria|Haemanthus amarylloides|Haliclona mucosa|Halimodendron halodendron|Haloxylon persicum|Haplophyllum dauricum|Haplophyllum ferganicum|Harungana madagascariensis|Harungana sp.|Hedysarum connatum|Hedysarum theinum|Heisteria nitida|Helianthemum sessiliflorum|Helichrysum auriceps|Helichrysum cephaloideum|Helietta longifoliata|Heliotropium floridum|Helipterum roseum|Hemerocallis fulva|Hemionitis japonica|Heracleum sphondylium|Hesperis matronalis|Heterotheca grandiflora|Heterotheca inuloides|Hibiscus cannabinus|Hippocratea excelsa|Hippocratea volubilis|Hippophae rhamnoides|Hippophae sp.|Hoffmannia strigillosa|Holomelina lamae|Homo sapiens|Honorius nutans|Hovenia acerba|Hubertia tomentosa|Humulus lupulus|Humulus sp.|Hypericum balearicum|Hypericum erectum|Hypericum hirsutum|Hypericum humifusum|Hypericum laricifolium|Hypericum maculatum|Hypericum monogynum|Hypericum patulum|Hypericum perforatum|Hypericum triquetrifolium|Hypoxylon tinctor|Ichthyothere latifolia|Ilex amara|Ilex purpurea|Illicium sp.|Iotrochota purpurea|Ipomoea digitata|Ircinia spinosula|Iris ensata|Iryanthera coriacea|Isodon japonicus|Isodon lihsienensis|Ixora coccinea|Jackiella javanica|Jacobaea vulgaris|Jatropha macrorhiza|Juglans nigra|Jugo|Jungermannia obovata|Juniperus excelsa|Juniperus rigida var. conferta|Juniperus scopulorum|Juniperus sp.|Kadsura Heteroclita|Kadsura heteroclita|Kaempferia marginata|Kandelia candel|Kaunia saltensis|Keiferia lycopersicella|Kielmeyera coriacea|Knightia excelsa|Koenigia coriaria|Kothala himbutu|Kummerowia stipulacea|Kummerowia striata|Kydia glabrescens|Lachnophyllum gossypinum|Lactobacillus delbrueckii subsp. bulgaricus|Lantana montevidensis|Larix decidua Miller.|Larix gmelinii|Larix sibirica|Larix sp.|Laurencia distichophylla|Laurencia spectabilis|Laurus Nobilis|Laurus nobilis|Leathesia nana|Lecanora planaica|Leishmania major|Lemaireocereus griseus|Lens culinaris|Lentinus tigrinus|Leonurus glaucescens|Lepidium draba|Lepisorus ussuriensis|Leptarrhena pyrolifolia|Leptogorgia sarmentosa|Lespedeza bicolor|Leucas neufliseana|Leucopaxillus gentianeus|Licania pittieri|Ligaria cuneifolia|Ligularia cymbulifera|Ligustrum obtusifolium|Lilium brownii|Lilium lancifolium|Lilium pumilum|Lilium umbellatum|Lindera aggregata|Lindera umbellata|Litchi chinensis|Lithospermum officinale|Litsea glutinosa|Litsea pungens|Litsea rotundifolia|Litsea szemaois|Lobophytum laevigatum|Lonchocarpus costaricensis|Lonicera hypoleuca|Lophira lanceolata|Lotus corniculatus|Lotus pedunculatus|Lotus ucrainicus|Lotus uliginosus|Luehea candicans|Lupinus angustifolius|Luxemburgia nobilis|Lyonia ovalifolia|Lyophyllum shimeji|Lysimachia mauritiana|Maba buxifolia|Macadamia|Machilus thunbergii|Macrothele gigas|Magnolia montana|Malus|Malus domestica|Malus pumila|Malus sp.|Mammea acuminata|Mammea americana|Mandevilla martiana|Mangifera indica|Manilkara Zapota|Manilkara zapota|Manilkara zapota cv.Tikal|Margyricarpus pinnatus|Margyricarpus setosus|Marrubium anisodon|Marrubium supinum|Mascarenhasia arborescens|Matricaria chamomilla|Matricaria recutita|Matricaria suffruticosa|Maytenus boaria|Maytenus disticha|Maytenus heterophylla|Maytenus putterlickoides|Meconopsis napaulensis|Medicago sativa|Melanelixia fuliginosa subsp. glabratula|Melilotus tauricus|Melochia chamaedrys|Melochia tomentosa|Mentha piperita piperita|Merremia umbellata|Mespilus germanica|Mesua ferrea|Metalasia bolusii|Metapenaeus bennettae|Metasequoia glyptostroboides|Metridium senile|Mezoneuron benthamianum|Micarea austroternaria|Micromeria pineolens|Microtropis fokienensis|Miliusa balansae|Miliusa sinensis|Millettia brandisiana|Millettia conraui|Millettia erythrocalyx|Mitracarpus scaber|Mitragyna inermis|Mitragyna speciosa|Momordica charantia|Monteverdia ilioppjfeowneviufheiuwfew fgr|Morus alba|Morus bombycis|Muehlenbeckia hastulata|Murraya exotica|Murraya paniculata|Musa|Musanga cecropioides|Muscari botryoides|Mycena sanguinolenta|Mycobacterium leprae|Myelobia smerintha|Myelochroa aurulenta|Myrica nagi|Myristica cagayanensis|Myrtopsis sellingii|Nageia nagi|Naja kaouthia|Narcissus concolor|Nasutitermes ephratae|Nauclea officinalis|Naucleopsis ternstroemiiflora|Negombata magnifica|Nelia pillansii|Nemalion vermiculare|Nematolepis phebalioides|Neorautanenia ficifolia|Nicotiana sylvestris|Nidula candida|Nuphar lutea|Ochna afzelii|Ochna beddomei|Ochna gamblei|Ocotea porosa|Oenothera biennis|Olearia pimeleoides|Oleum rhododendri daurici|Oncoba echinata|Onobrychis cyri|Onobrychis viciifolia|Ononis vaginalis|Ophidiaster ophidianus|Ophiocoma scolopendrina|Ophiolepis superba|Ophiopogon chekiangensis|Oreopteris quelpaertensis|Ormosia panamensis|Ornithorhynchus anatinus|Orostachys fimbriata|Orostachys japonicus|Orthocaulis attenuatus|Orthosphenia mexicana|Osmerus mordax|Osteospermum rigidum|Othonna dentata|Oxyanthus speciosus|Palafoxia rosea|Panax japonicus|Pangium edule|Panopsis rubescens|Papaver hybridum|Papilio phorcas|Parabenzoin trilobum|Paramecium tetraurelia|Parthenocissus tricuspidata|Pastinaca sativa|Paullinia sp.|Pavetta owariensis|Pedicularis condensata|Peltostigma guatemalense|Penicillium alutaceum|Penicillium citreonigrum|Penicillium kapuscinskii|Pentadesma butyracea|Perezia carpholepis|Perityle vaseyi|Perriera orientalis|Persea americana|Persicaria hydropiper|Persicaria salicifolia|Persicaria sp.|Petasites georgicus|Peucedanum praeruptorum|Phanera vahlii|Phaseolus vulgaris|Phebalium dentatum|Philotheca rhomboidea|Phoebe clemensii|Phoebe formosana|Phoebe pittieri|Phoenix dactylifera|Phoenix hanceana var. formosana|Phoenix loureiroi|Phoenix loureiroi var. loureiroi|Pholidota articulata|Phora velutina|Phyfnnvik eyyfn|Phyllanthus Emblica|Phyllanthus emblica|Phyllanthus klotzschianus|Phyllanthus oligospermus|Phyllanthus sp.|Phyllocladus trichomanoides|Phyllocladus trichomanoides var. alpinus|Phyllogeiton zeyheri|Picea abies|Picea mariana|Pinus|Pinus sibirica L.|Pinus sylvestris L.|Piptocarpha oblonga|Pistacia vera|Pisum sativum|Plantanus orientalis|Platonia insignis|Podocarpus Nagi|Podocarpus nagi|Polycephalomyces nipponicus|Polygonum Hydropiper|Polygonum bistorta|Polygonum cuspidatum|Polygonum flaccidum|Polygonum hydropiper|Polygonum sp.|Polygonum weyrichii|Polyporus anthracophilus|Polyporus pini|Polysiphonia elongata|Polyzonium rosalbum|Porella swartziana|Poria selecta|Potamilla occelata|Potentilla anserina|Potentilla erecta|Potentilla fruticosa|Potentilla tormentilla|Premna odorata|Primula sp.|Prinsepia utilis|Prorocentrum micans|Prosopis juliflora|Prunus armeniaca|Prunus avium|Prunus domestica|Prunus dulcis|Prunus laurocerasus|Prunus maximowiczii|Prunus mume|Prunus padus|Prunus persica|Prunus salicina|Prunus spinosa|Prunus ssiori|Pseudoalteromonas luteoviolacea|Pseudoalteromonas rubra|Pseudocyphellaria impressa|Pseudofumaria lutea|Pseudoparmelia sphaerospora|Pseudotsuga menziesii|Pseudowintera colorata|Psidium friedrichsthalianum|Psidium guajava|Psora corallina|Psoroma crassum|Psoroma pallidum|Psorospermum febrifugum|Pteris cretica var. nervosa|Pteris radiata|Pteris semipinnata|Pterocarpus marsupium|Pterocarpus sp.|Punica granatum|Purshia mexicana|Pyrus communis|Quercus cerris L.|Quercus dentata|Quercus glauca|Quercus ilex L.|Quercus imbricaria|Quercus marilandica|Quercus miyagii|Quercus mongolica|Quercus palustris Muencch.|Quercus petraea Liebl.|Quercus pubescens Willd.|Quercus robur|Quercus robur L.|Quercus rubra L.|Quercus sessiliflora|Quercus sp.|Rapanea lancifolia|Raphanus sativus|Rauvolfia vomitoria|Reaumuria hirtella|Relhania pumila|Rhamnus lotus|Rhamnus lycioides|Rheum|Rheum australe|Rheum coreanum|Rheum emodi|Rheum maximowiczii|Rheum officinale|Rheum palmatum|Rheum rhabarbarum|Rheum sp.|Rheum tanguticum|Rheum webbianum|Rhinoceros sondaicus|Rhizobium leguminosarum|Rhizochalina incrustata|Rhizoma fagopyri cymosi|Rhizophora stylosa|Rhodiola semenovii|Rhodococcus fascians|Rhododendron dauricum|Rhododendron decorum|Rhododendron micranthum|Rhododendron mucronatum|Rhododendron spinuliferum|Rhus glabra|Rhus typhina|Rhus vulgaris|Rhytidoponera metallica|Ribes nigrum|Ribes rubrum|Rosa henryi|Rosa laevigata|Rosa rugosa|Rubia oncotricha|Rubritalea squalenifaciens|Rubrivivax gelatinosus|Rubus|Rubus adenotrichos|Rubus adenotrichus|Rubus arcticus|Rubus chamaemorus|Rubus glaucus|Rubus idaeus|Rumex acetosa|Rumex japonicus|Rumex maritimus|Ruta pinnata|Sabal blackburniana|Sabina sargentii|Salacia chinensis|Salacia madagascariensis|Salacia prinoides|Salix|Salix sieboldiana|Salix sp.|Salmonella enterica subsp. enterica serovar typhimurium|Salvia castanea|Salvia coulteri|Salvia dorrii|Salvia hispanica|Salvia munzii|Salvia officinalis|Salvia parryi|Salvia syriaca|Saraca asoca|Sarcococca vagans|Sarcophyton elegans|Sargassum hemiphyllum|Sargentodoxa cuneata|Satureja cuneifolia|Saussurea carthamoides|Scabiosa pyrenaica|Scarlet firethorn|Schisandra lancifolia|Schotia brachypetala|Schotia latifolia|Sciadopitys verticillata|Scleronephthya pallida|Scopolia hladnikiana|Scorzonera pseudodivaricata|Scrophularia koelzii|Scrophularia umbrosa|Scurrula atropurpurea|Scurrura atropurpurea|Scutellaria amoena|Sedum obtuso-lineare|Senecio adenophyllus|Senecio callosus|Senecio densiflorus|Senecio flavus|Senecio latifolius|Senecio rivularis|Senecio suaveolens|Senecio vellereus|Senegalia catechu|Sequoia sempervirens|Sequoiadendron giganteum|Serpocaulon triseriale|Sesamoides canescens|Sesuvium portulacastrum|Sida cordifolia|Sida veronicaefolia|Sinularia depressa|Sinularia facile|Sinularia maxima|Siphula decumbens|Smilax china|Smilax corbularia|Smilax glabra|Sohnreyia excelsa|Solanum acaule|Solanum andigena|Solanum elaeagnifolium|Solanum laxum|Solanum melongena|Solanum nigrum|Solanum sisymbriifolium|Solanum sublobatum|Solanum transcaucasicum|Solenopsis invicta|Solidago flexicaulis|Sonchus ortunoi|Sophora angustifolia|Sorbus decora|Sorghum bicolor|Spathelia excelsa|Spatholobus suberectus|Spiracantha cornifolia|Spiraea hypericifolia|Spirotropis longifolia|Spodoptera eridania|Spodoptera littoralis|Spongia bilamellata|Stachyurus himalaicus|Stellaria holostea|Sterculia foetida|Stereospermum cylindricum|Stevia aristata|Stevia mercedensis|Stevia polycephala|Stizolobium deeringianum|Stocksia brahuica|Streptomyces alboniger|Streptomyces avermectinius|Streptomyces cellulosae|Streptomyces cellulosae TES17|Streptomyces fradiae|Streptomyces goshikiensis|Streptomyces griseovariabilis|Streptomyces hachijoensis|Streptomyces lydicus|Streptomyces mobaraensis|Streptomyces nobilis|Streptomyces parvisporogenes|Streptomyces platensis|Streptomyces thermoviolaceus|Streptomyces xanthochromogenes|Streptomyces xantholiticus|Strongylocentrotus droebachiensis|Strychnos cathayensis|Strychnos erichsonii|Strychnos tabascana|Styrax ferrugineus|Styrax perkinsiae|Swertia delavayi|Swertia franchetiana|Swertia pseudochinensis|Swinglea glutinosa|Symploca hydnoides|Syncarpia hillii|Tamarindus Indica|Tamarindus indica|Tanacetum argenteum|Taraxacum hallaisanense|Taxodium distichum|Taxus cuspidata|Taxus wallichiana|Teclea gerrardii|Tecoma pentaphylla|Tectaria subtriphylla|Terminalia glabrescens|Teucrium depressum|Thalictrum flavum|Thalictrum longistylum|Thamnosma rhodesica|Theobroma Cacao|Theobroma cacao|Theobroma grandiflorum|Theobroma sp.|Thuja standishii|Thujopsis dolabrata|Thymbra spicata|Thymus piperella|Thymus quinquecostatus|Thymus vulgaris|Toona sinensis|Trachelospermum lucidum|Trametes cinnabarina|Trema orientale|Trichia floriformis|Trichilia catigua|Trichilia rubescens|Trichocolea tomentella|Trichophyton mentagrophytes|Tripterospermum chinense|Triticum aestivum|Trollius chinensis|Tropaeolum majus|Tropicoporus linteus|Tsuga chinensis|Turpinia ternata|Turraeanthus mannii|Tylophora tanakae|Typha capensis|Typha capensis (Rohrb.) N. E. Br|Typha latifolia|Udotea petiolata|Ulmus americana|Umbilicaria esculenta|Uncaria Rhynchophylla|Uncaria elliptica|Uncaria gambir|Uncaria guianensis|Uncaria macrophylla|Uncaria rhynchophylla|Uncaria sinensis|Uncaria sp.|Uncaria tomentosa|Urceola laevigata|Urceola micrantha|Uvaria griffithii|Vaccinium angustifolium|Vaccinium corymbosum|Vaccinium macrocarpon|Vaccinium oxycoccos|Vaccinium pahalae|Vaccinium sp.|Vaccinium vitis-idaea|Vachellia karroo|Vachellia nilotica|Vallota purpurea|Vasconcellea cundinamarcensis|Vauquelinia corymbosa|Verbesina rupestris|Vernonia steetziana|Viburnum opulus|Viburnum urceolatum|Vicia Faba|Vicia faba|Vigna angularis|Vigna mungo|Vigna umbellata|Vigna umbeuata|Viguiera incana|Viguiera linearis|Viguiera oblongifolia|Vincetoxicum hirundinaria|Vismia jefensis|Visnea mocanera|Vitex negundo|Vitis Vinifera|Vitis labrusca|Vitis rotundifolia|Vitis sp.|Vitis vinifera|Viviparus japonicus|Walsura pinnata|Walsura yunnanensis|Waltheria indica|Wedelia prostrata|Wibelia divaricata|Wikstroemia chamaedaphne|Wikstroemia retusa|Wilcoxia viperina|Wisteria floribunda|Wisteria sinensis|Wisteriopsis reticulata|Woodwardia orientalis|Xanthoceras sorbifolia|Xanthoceras sorbifolia Bunge|Xanthoceras sorbifolium|Xanthoria aureola|Xenoacremonium recifei|Xylopia Vielana|Xylopia vielana|Xyris pterygoblephara|Zanthoxylum bungeanum|Zanthoxylum piperitum|Zanthoxylum schinifolium|Zanthoxylum tetraspermum|Zephyranthes sulphurea|Zingiber officinale|Ziziphus jujuba|Ziziphus mauritiana|broad bean|byrsonima coccolobifolia|cacao|ecdysanthera utilis|garlic|guarana|lettuce|machilus philippinensis|peanut|pomegranate|soybean|star fruit|tomato

>  <collections>  (615) 
ANPDB|AfroCancer|AfroDB|AnalytiCon Discovery NPs|Australian natural products|BIOFACQUIM|BitterDB|CMAUP (cCollective molecular activities of useful plants)|ChEBI NPs|ChemSpider NPs|ConMedNP|DrugBankNP|EMNPD|ETM (Ethiopian Traditional Medicine) DB|Exposome-explorer|FooDB|GNPS (Global Natural Products Social Molecular Networking)|KNApSaCK|Latin America dataset|NANPDB (Natural Products from Northern African Sources)|NAPRORE-CR|NPACT|NPASS|NPEdia|Nat-UV DB|NuBBEDB|Phenol-explorer|Phyto4Health|PhytoLab phyproof® Reference Substances|SANCDB|StreptomeDB|Super Natural II|TCMDB-Taiwan (Traditional Chinese Medicine database)|TIPdb (database of Taiwan indigenous plants)|TPPT (Toxic Plants–PhytoToxins)|VietHerb|WikiData Natural Products

>  <dois>  (615) 
10.1002/(SICI)1097-0142(19960415)77:8+<1662::AID-CNCR12>3.0.CO;2-W|10.1002/(SICI)1097-458X(199611)34:11<887::AID-OMR995>3.0.CO;2-U|10.1002/(SICI)1099-1565(200003/04)11:2<106::AID-PCA496>3.0.CO;2-O|10.1002/(SICI)1099-1573(199809)12:6<442::AID-PTR320>3.0.CO;2-Y|10.1002/(SICI)1521-4168(19990401)22:4<225::AID-JHRC225>3.0.CO;2-V|10.1002/1099-1573(200011)14:7<501::AID-PTR655>3.0.CO;2-B|10.1002/9780470744307.gat218|10.1002/ARDP.19843170808|10.1002/ARDP.19913240207|10.1002/CBDV.201000279|10.1002/CBDV.201100002|10.1002/CHIN.199410238|10.1002/CHIN.200543206|10.1002/ELPS.201300646|10.1002/HLCA.19930760712|10.1002/HLCA.200790184|10.1002/J.1537-2197.1986.TB10906.X|10.1002/JCCS.198500075|10.1002/JCCS.199600013|10.1002/JCCS.200000178|10.1002/JMS.3818|10.1002/JSFA.2740600217|10.1002/JSFA.7075|10.1002/JSSC.200500003|10.1002/MNFR.200400064|10.1002/MNFR.200500064|10.1002/PCA.583|10.1002/PTR.1513|10.1002/PTR.2650030406|10.1002/PTR.2650050512|10.1002/PTR.865|10.1002/PTR.936|10.1002/food.19880321030|10.1002/ptr.1513/|10.1006/FSTL.2001.0843|10.1006/PMPP.1996.0015|10.1007/978-1-4899-1783-6_3|10.1007/BF00381261|10.1007/BF00487242|10.1007/BF00563836|10.1007/BF00564020|10.1007/BF00564830|10.1007/BF00565058|10.1007/BF00565756|10.1007/BF00574392|10.1007/BF00597820|10.1007/BF00599015|10.1007/BF00633406|10.1007/BF00638416|10.1007/BF01012523|10.1007/BF01119590|10.1007/BF01134639|10.1007/BF01201768|10.1007/BF01202512|10.1007/BF02249631|10.1007/BF02262390|10.1007/BF02291535|10.1007/BF02291536|10.1007/BF02291539|10.1007/BF02490693|10.1007/BF02490789|10.1007/BF02896679|10.1007/BF02977002|10.1007/BF02986020|10.1007/S00217-002-0603-1|10.1007/S002170000265|10.1007/S002170100354|10.1007/S00394-008-0761-4|10.1007/S10529-015-1825-1|10.1007/S10600-008-0009-9|10.1007/S10600-008-9113-0|10.1007/S10600-008-9141-9|10.1007/S10600-009-9245-X|10.1007/S10600-009-9289-Y|10.1007/S10600-009-9410-2|10.1007/S10600-010-9599-0|10.1007/S10600-010-9649-7|10.1007/S10600-011-0016-0|10.1007/S10600-011-9847-Y|10.1007/S10600-011-9852-1|10.1007/S11094-007-0019-0|10.1007/S11130-010-0156-6|10.1007/S11418-006-0119-2|10.1007/S11418-007-0182-3|10.1007/S11418-008-0239-Y|10.1007/S11627-000-0088-1|10.1007/s11130-012-0286-0|10.1016/0021-9673(95)00755-5|10.1016/0021-9673(96)00456-6|10.1016/0024-3205(81)90660-3|10.1016/0031-6865(95)00027-7|10.1016/0031-9422(73)85143-X|10.1016/0031-9422(77)80016-2|10.1016/0031-9422(82)80150-7|10.1016/0031-9422(82)83196-8|10.1016/0031-9422(89)80138-4|10.1016/0031-9422(89)80191-8|10.1016/0031-9422(89)80217-1|10.1016/0031-9422(89)80370-X|10.1016/0031-9422(90)80054-K|10.1016/0031-9422(90)80121-V|10.1016/0031-9422(90)89050-J|10.1016/0031-9422(91)80011-O|10.1016/0031-9422(91)83469-2|10.1016/0031-9422(91)84145-I|10.1016/0031-9422(91)84150-Q|10.1016/0031-9422(91)84190-4|10.1016/0031-9422(91)84228-K|10.1016/0031-9422(91)85063-6|10.1016/0031-9422(91)85140-U|10.1016/0031-9422(92)80196-L|10.1016/0031-9422(92)80267-I|10.1016/0031-9422(92)80317-8|10.1016/0031-9422(92)80352-F|10.1016/0031-9422(92)83158-U|10.1016/0031-9422(92)83300-N|10.1016/0031-9422(92)83631-8|10.1016/0031-9422(93)85108-4|10.1016/0031-9422(93)85116-9|10.1016/0031-9422(93)85231-F|10.1016/0031-9422(93)85419-R|10.1016/0031-9422(93)85433-R|10.1016/0031-9422(94)00934-L|10.1016/0031-9422(95)00602-8|10.1016/0031-9422(95)00681-8|10.1016/0031-9422(95)00855-1|10.1016/0031-9422(95)00884-5|10.1016/0031-9422(96)00004-0|10.1016/0031-9422(96)00111-2|10.1016/0031-9422(96)00203-8|10.1016/0031-9422(96)00301-9|10.1016/0166-3542(93)90095-Z|10.1016/0304-3835(93)90031-4|10.1016/0305-1978(94)00092-U|10.1016/0308-8146(93)90160-H|10.1016/0378-8741(86)90110-8|10.1016/0378-8741(90)90009-I|10.1016/0731-7085(91)80128-V|10.1016/0952-3278(94)90141-4|10.1016/0963-9969(94)00046-B|10.1016/J.BMCL.2010.10.058|10.1016/J.BMCL.2010.12.025|10.1016/J.BMCL.2013.12.098|10.1016/J.BMCL.2014.01.028|10.1016/J.BMCL.2015.02.048|10.1016/J.BMCL.2015.07.056|10.1016/J.BSE.2013.04.001|10.1016/J.EJMECH.2012.01.057|10.1016/J.FCT.2004.01.008|10.1016/J.FITOTE.2007.03.024|10.1016/J.FITOTE.2009.08.015|10.1016/J.FOODCHEM.2005.02.007|10.1016/J.FOODCHEM.2005.11.053|10.1016/J.FOODCHEM.2008.11.094|10.1016/J.FOODCHEM.2010.11.034|10.1016/J.FOODCONT.2014.02.001|10.1016/J.FOODRES.2004.10.005|10.1016/J.FOODRES.2017.03.019|10.1016/J.IFSET.2018.01.008|10.1016/J.INTIMP.2006.09.003|10.1016/J.JEP.2005.02.029|10.1016/J.JEP.2005.03.017|10.1016/J.JEP.2009.10.011|10.1016/J.JEP.2009.10.030|10.1016/J.JFF.2015.04.049|10.1016/J.JFF.2015.12.019|10.1016/J.LWT.2014.11.023|10.1016/J.LWT.2018.02.024|10.1016/J.LWT.2019.108673|10.1016/J.PHYMED.2006.08.005|10.1016/J.PHYMED.2008.02.006|10.1016/J.PHYMED.2008.08.006|10.1016/J.PHYTOCHEM.2005.02.013|10.1016/J.PHYTOCHEM.2005.06.025|10.1016/J.PHYTOCHEM.2006.11.004|10.1016/J.PHYTOCHEM.2007.05.007|10.1016/J.PHYTOCHEM.2007.05.032|10.1016/J.PHYTOCHEM.2007.07.019|10.1016/J.PHYTOCHEM.2007.11.019|10.1016/J.PHYTOCHEM.2009.04.024|10.1016/J.PHYTOCHEM.2009.06.006|10.1016/J.PHYTOCHEM.2010.08.006|10.1016/J.PHYTOCHEM.2010.08.018|10.1016/J.PHYTOCHEM.2010.12.018|10.1016/J.PLAPHY.2015.04.008|10.1016/J.SAJB.2011.09.001|10.1016/S0003-2670(01)01498-2|10.1016/S0003-2670(97)00668-5|10.1016/S0014-5793(99)01498-2|10.1016/S0021-9673(00)01030-X|10.1016/S0021-9673(01)00598-2|10.1016/S0021-9673(01)87172-7|10.1016/S0021-9673(01)87655-X|10.1016/S0021-9673(97)00906-0|10.1016/S0021-9673(97)01069-8|10.1016/S0021-9673(98)00040-5|10.1016/S0021-9673(98)00294-5|10.1016/S0021-9673(99)00043-6|10.1016/S0021-9673(99)00281-2|10.1016/S0021-9673(99)00569-5|10.1016/S0021-9673(99)00684-6|10.1016/S0024-3205(97)00883-7|10.1016/S0031-9422(00)00192-8|10.1016/S0031-9422(00)00344-7|10.1016/S0031-9422(00)80522-1|10.1016/S0031-9422(00)81052-3|10.1016/S0031-9422(00)81304-7|10.1016/S0031-9422(00)81505-8|10.1016/S0031-9422(00)81524-1|10.1016/S0031-9422(00)82371-7|10.1016/S0031-9422(00)83018-6|10.1016/S0031-9422(00)83128-3|10.1016/S0031-9422(00)83483-4|10.1016/S0031-9422(00)83598-0|10.1016/S0031-9422(00)83771-1|10.1016/S0031-9422(00)83890-X|10.1016/S0031-9422(00)84524-0|10.1016/S0031-9422(00)84902-X|10.1016/S0031-9422(00)85959-2|10.1016/S0031-9422(00)89597-7|10.1016/S0031-9422(00)89817-9|10.1016/S0031-9422(00)90397-2|10.1016/S0031-9422(00)90858-6|10.1016/S0031-9422(00)94508-4|10.1016/S0031-9422(00)94532-1|10.1016/S0031-9422(00)94785-X|10.1016/S0031-9422(00)94795-2|10.1016/S0031-9422(00)94800-3|10.1016/S0031-9422(00)95117-3|10.1016/S0031-9422(00)95213-0|10.1016/S0031-9422(00)97529-0|10.1016/S0031-9422(00)98009-9|10.1016/S0031-9422(01)00277-1|10.1016/S0031-9422(02)00051-1|10.1016/S0031-9422(02)00172-3|10.1016/S0031-9422(02)00439-9|10.1016/S0031-9422(96)00410-4|10.1016/S0031-9422(96)00651-6|10.1016/S0031-9422(96)00842-4|10.1016/S0031-9422(96)00856-4|10.1016/S0031-9422(97)00198-2|10.1016/S0031-9422(97)00489-5|10.1016/S0031-9422(97)00507-4|10.1016/S0031-9422(97)00525-6|10.1016/S0031-9422(98)00107-1|10.1016/S0031-9422(98)00426-9|10.1016/S0031-9422(98)80094-0|10.1016/S0031-9422(99)00183-1|10.1016/S0031-9422(99)00338-6|10.1016/S0031-9422(99)00598-1|10.1016/S0165-1161(96)90262-9|10.1016/S0254-6299(15)30298-2|10.1016/S0278-6915(01)00076-X|10.1016/S0304-3835(99)00160-3|10.1016/S0304-4165(99)00102-6|10.1016/S0304-4238(02)00127-9|10.1016/S0305-1978(97)00061-6|10.1016/S0308-8146(02)00112-7|10.1016/S0308-8146(02)00415-6|10.1016/S0308-8146(02)00590-3|10.1016/S0308-8146(03)00066-9|10.1016/S0308-8146(96)00287-7|10.1016/S0308-8146(99)00179-X|10.1016/S0367-326X(00)00328-2|10.1016/S0367-326X(02)00162-4|10.1016/S0367-326X(99)00161-6|10.1016/S0378-8741(00)00196-3|10.1016/S0378-8741(01)00414-7|10.1016/S0928-3420(99)80023-8|10.1016/S0944-7113(97)80079-7|10.1016/S0963-9969(00)00070-3|10.1016/j.bmcl.2010.10.058|10.1016/j.bmcl.2010.12.025|10.1016/j.bmcl.2013.09.071|10.1016/j.bmcl.2013.12.098|10.1016/j.bmcl.2014.01.028|10.1016/j.bmcl.2015.02.048|10.1016/j.bmcl.2015.07.056|10.1016/j.bmcl.2016.08.094|10.1016/j.bmcl.2017.01.083|10.1016/j.ejmech.2012.01.057|10.1016/j.foodcont.2014.02.001|10.1016/j.foodres.2019.108899|10.1016/j.jfca.2018.09.012|10.1016/j.lwt.2014.11.023|10.1016/j.phytochem.2005.05.019|10.1016/j.sajb.2011.09.001|10.1017/CBO9781107252806.053|10.1021/ACS.JNATPROD.5B01035|10.1021/JF000026+|10.1021/JF000050N|10.1021/JF00017A016|10.1021/JF00022A013|10.1021/JF00028A012|10.1021/JF000316Q|10.1021/JF00031A010|10.1021/JF00042A002|10.1021/JF00048A004|10.1021/JF00048A016|10.1021/JF00052A008|10.1021/JF000549H|10.1021/JF000670O|10.1021/JF00074A022|10.1021/JF000815R|10.1021/JF0009347|10.1021/JF0009753|10.1021/JF00097A031|10.1021/JF010153L|10.1021/JF0104681|10.1021/JF010526I|10.1021/JF011064B|10.1021/JF011178N|10.1021/JF0116202|10.1021/JF025993U|10.1021/JF030096R|10.1021/JF0301798|10.1021/JF030595S|10.1021/JF034475W|10.1021/JF0346298|10.1021/JF035416L|10.1021/JF049317Z|10.1021/JF049450R|10.1021/JF0531499|10.1021/JF060395R|10.1021/JF061478A|10.1021/JF071475D|10.1021/JF0721038|10.1021/JF403644R|10.1021/JF801155J|10.1021/JF802974M|10.1021/JF900695S|10.1021/JF900963P|10.1021/JF903216R|10.1021/JF9505335|10.1021/JF950611O|10.1021/JF950652K|10.1021/JF9601628|10.1021/JF970468U|10.1021/JF970753D|10.1021/JF9707546|10.1021/JF970831X|10.1021/JF970889B|10.1021/JF980223X|10.1021/JF980760H|10.1021/JF981114L|10.1021/JF990019P|10.1021/JF990563Y|10.1021/JF990665O|10.1021/JF9909757|10.1021/JF991171U|10.1021/JF9912506|10.1021/JF991294E|10.1021/NP000010D|10.1021/NP000061A|10.1021/NP000084P|10.1021/NP000128U|10.1021/NP000135I|10.1021/NP000251L|10.1021/NP000486X|10.1021/NP010035S|10.1021/NP010370G|10.1021/NP010414L|10.1021/NP0105578|10.1021/NP010566G|10.1021/NP020003K|10.1021/NP020351M|10.1021/NP020576X|10.1021/NP0301442|10.1021/NP0301543|10.1021/NP030423P|10.1021/NP030510H|10.1021/NP034002J|10.1021/NP050169W|10.1021/NP050484I|10.1021/NP060107L|10.1021/NP060369N|10.1021/NP060425K|10.1021/NP070327E|10.1021/NP0703904|10.1021/NP1002274|10.1021/NP1003005|10.1021/NP400717M|10.1021/NP50040A021|10.1021/NP50067A016|10.1021/NP50082A008|10.1021/NP50108A006|10.1021/NP900225P|10.1021/NP960037Q|10.1021/NP9902441|10.1021/NP9902993|10.1021/NP990581+|10.1021/acs.jnatprod.6b00720|10.1021/jf000026+|10.1021/jf050377u|10.1021/jf1017143|10.1021/jf9810261|10.1021/np000010d|10.1021/np000128u|10.1021/np000251l|10.1021/np010414l|10.1021/np0301442|10.1021/np0301543|10.1021/np040057p|10.1021/np049743e|10.1021/np060369n|10.1021/np0703904|10.1021/np1002274|10.1021/np400134z|10.1021/np400717m|10.1021/np990581+|10.1023/B:CONC.0000018119.19021.18|10.1023/B:CONC.0000025479.07578.5D|10.1023/B:CONC.0000025480.17399.66|10.1039/A909219F|10.1039/C39810000781|10.1039/J39660001644|10.1039/P19740000961|10.1039/P19830002139|10.1039/P19930002467|10.1039/jr9570003586|10.1055/S-0029-1240743|10.1055/S-0030-1250384|10.1055/S-0031-1299862|10.1055/S-0033-1352106|10.1055/S-0042-102660|10.1055/S-2000-11135|10.1055/S-2003-38886|10.1055/S-2003-43208|10.1055/S-2005-871225|10.1055/S-2005-871257|10.1055/S-2006-959567|10.1055/S-2006-960021|10.1055/S-2006-960453|10.1055/S-2006-961020|10.1055/S-2007-969386|10.1055/S-2007-969393|10.1055/S-2007-969797|10.1055/S-2007-979339|10.1055/S-2007-979340|10.1071/CH9680425|10.1071/ch9640428|10.1076/1388-0209(200009)3841-AFT284|10.1076/PHBI.36.1.29.4626|10.1076/PHBI.36.2.131.4604|10.1076/PHBI.39.3.202.5930|10.1076/PHBI.41.2.92.14245|10.1078/0944-7113-00003|10.1078/0944-7113-00117|10.1079/bjn20051522|10.1080/01483918808076763|10.1080/01635589209514207|10.1080/09637486.2017.1418845|10.1080/10286020.2011.603306|10.1080/10286020.2011.641535|10.1080/1028602031000111969|10.1080/10575639308043837|10.1080/1071576021000006707|10.1080/10826079208018822|10.1080/13880200490510856|10.1080/14786410512331330549|10.1080/14786410701192637|10.1080/14786410801940968|10.1080/14786411003752102|10.1080/14786419.2010.488628|10.1080/14786419.2019.1579808|10.1080/15216549900201883|10.1081/JLC-100101831|10.1081/JLC-100103434|10.1081/JLC-120003036|10.1081/JLC-120008754|10.1093/AJCN/68.6.1480S|10.1093/CARCIN/10.6.1003|10.1093/CARCIN/18.10.1911|10.1093/JAOAC/81.4.691|10.1093/JN/131.9.2248|10.1093/JN/132.7.1819|10.1093/JN/132.7.1825|10.1093/MUTAGE/11.1.37|10.1097/00001813-199606000-00011|10.1104/PP.109.148031|10.1104/PP.69.2.522|10.1111/J.1365-2621.1983.TB10787.X|10.1111/J.1365-2621.1984.TB10400.X|10.1111/J.1365-2621.2005.TB08304.X|10.1111/J.1745-4557.2003.TB00243.X|10.1111/J.1755-0238.2000.TB00185.X|10.1142/S0192415X01000198|10.1159/000261407|10.1177/1934578X0800300227|10.1177/1934578X1000500721|10.1177/1934578X1501001229|10.1186/S12870-018-1412-4|10.1186/S12906-018-2154-4|10.1186/s12906-018-2154-4|10.1201/9781420023305-8|10.1207/S15327914NC402_14|10.1248/BPB.17.1613|10.1248/BPB.18.683|10.1248/BPB.23.1328|10.1248/BPB.25.72|10.1248/BPB.28.912|10.1248/CPB.30.4046|10.1248/CPB.31.3906|10.1248/CPB.32.2011|10.1248/CPB.33.2281|10.1248/CPB.33.3142|10.1248/CPB.33.3293|10.1248/CPB.33.3826|10.1248/CPB.33.4338|10.1248/CPB.34.4083|10.1248/CPB.34.633|10.1248/CPB.34.941|10.1248/CPB.35.1105|10.1248/CPB.35.4717|10.1248/CPB.35.611|10.1248/CPB.36.33|10.1248/CPB.36.39|10.1248/CPB.36.828|10.1248/CPB.37.3301|10.1248/CPB.37.77|10.1248/CPB.38.2620|10.1248/CPB.38.856|10.1248/CPB.38.888|10.1248/CPB.40.1383|10.1248/CPB.40.1997|10.1248/CPB.40.851|10.1248/CPB.41.1612|10.1248/CPB.41.1803|10.1248/CPB.42.1399|10.1248/CPB.47.1049|10.1248/CPB.48.1114|10.1248/CPB.48.687|10.1248/CPB.50.1124|10.1248/CPB.51.1051|10.1248/CPB.51.1318|10.1248/CPB.51.343|10.1248/CPB.51.62|10.1248/CPB.53.1037|10.1248/CPB.55.293|10.1248/CPB.55.492|10.1248/CPB.55.606|10.1248/CPB.56.1297|10.1248/CPB.56.46|10.1248/CPB.56.97|10.1248/CPB.57.1284|10.1248/CPB.57.397|10.1248/CPB.58.1379|10.1248/CPB.58.852|10.1248/YAKUSHI.121.371|10.1248/YAKUSHI1947.111.12_790|10.1248/YAKUSHI1947.114.2_129|10.1271/BBB.50669|10.1271/BBB.56.1302|10.1271/BBB.57.2122|10.1271/BBB.59.2134|10.1271/BBB.61.1099|10.1271/BBB.61.1901|10.1271/BBB.61.332|10.1271/BBB.62.1535|10.1271/BBB.80065|10.1271/BBB.90701|10.1271/BBB1961.46.1079|10.1271/BBB1961.47.421|10.1271/BBB1961.51.139|10.1271/BBB1961.52.595|10.1271/BBB1961.53.2307|10.1271/BBB1961.55.1425|10.1271/NOGEIKAGAKU1924.58.1131|10.1371/JOURNAL.PONE.0142777|10.1371/JOURNAL.PONE.0214193|10.1515/PJFNS-2017-0005|10.1515/ZNB-1985-0630|10.1515/ZNC-1985-7-812|10.1515/ZNC-1994-9-1013|10.1515/ZNC-1999-1-223|10.1515/ZNC-1999-1114|10.1515/ZNC-2002-9-1008|10.1590/S0103-50532002000100020|10.1590/S0103-50532003000300021|10.1590/S0103-50532005000800008|10.1590/S0103-50532010000200009|10.1590/S0103-50532011001100010|10.17660/ACTAHORTIC.1980.96.44|10.18203/2319-2003.IJBCP20184607|10.21548/25-2-2143|10.2298/JSC100406027K|10.3109/13880209509088143|10.3136/NSKKK1962.38.1098|10.3177/JNSV.46.199|10.3390/12051163|10.3390/12081950|10.3390/IJMS160715625|10.3390/MOLECULES13061219|10.3390/MOLECULES15074599|10.3390/MOLECULES200815330|10.3390/MOLECULES22101606|10.3390/MOLECULES23020469|10.3390/MOLECULES23030604|10.3390/NU11061377|10.3724/SP.J.1009.2012.00084|10.3987/COM-01-9284|10.3987/COM-02-9596|10.3987/COM-03-9793|10.3987/COM-96-7557|10.4028/WWW.SCIENTIFIC.NET/AMR.554-556.1845|10.4103/0974-8490.102269|10.4268/CJCMM20140519|10.5012/BKCS.2011.32.6.2079|10.5344/AJEV.1987.38.4.277|10.5344/AJEV.1998.49.1.23

>  <synonyms>  (615) 
nan

>  <cas>  (615) 
490-46-0|154-23-4|7295-85-4

$$$$

     RDKit          2D

 27 29  0  0  0  0  0  0  0  0999 V2000
   -6.6871   -2.7162    0.0000 C   0  0  0  0  0  0  0  0  0  0  0  0
   -5.2047   -2.9451    0.0000 O   0  0  0  0  0  0  0  0  0  0  0  0
   -4.2653   -1.7757    0.0000 C   0  0  0  0  0  0  0  0  0  0  0  0
   -4.8083   -0.3774    0.0000 C   0  0  0  0  0  0  0  0  0  0  0  0
   -3.8689    0.7920    0.0000 C   0  0  0  0  0  0  0  0  0  0  0  0
   -4.4119    2.1903    0.0000 O   0  0  0  0  0  0  0  0  0  0  0  0
   -5.8944    2.4191    0.0000 C   0  0  0  0  0  0  0  0  0  0  0  0
   -2.3865    0.5631    0.0000 C   0  0  0  0  0  0  0  0  0  0  0  0
   -1.4470    1.7326    0.0000 C   0  0  0  0  0  0  0  0  0  0  0  0
   -1.9901    3.1308    0.0000 O   0  0  0  0  0  0  0  0  0  0  0  0
    0.0354    1.5037    0.0000 C   0  0  0  0  0  0  0  0  0  0  0  0
    0.9748    2.6731    0.0000 O   0  0  0  0  0  0  0  0  0  0  0  0
    2.4572    2.4442    0.0000 C   0  0  0  0  0  0  0  0  0  0  0  0
    0.5784    0.1054    0.0000 C   0  0  0  0  0  0  0  0  0  0  0  0
    2.0609   -0.1234    0.0000 C   0  0  0  0  0  0  0  0  0  0  0  0
    3.0003    1.0460    0.0000 C   0  0  0  0  0  0  0  0  0  0  0  0
    4.4827    0.8171    0.0000 C   0  0  0  0  0  0  0  0  0  0  0  0
    5.4221    1.9865    0.0000 O   0  0  0  0  0  0  0  0  0  0  0  0
    5.0257   -0.5811    0.0000 C   0  0  0  0  0  0  0  0  0  0  0  0
    6.5082   -0.8100    0.0000 O   0  0  0  0  0  0  0  0  0  0  0  0
    7.0512   -2.2083    0.0000 C   0  0  0  0  0  0  0  0  0  0  0  0
    4.0863   -1.7505    0.0000 C   0  0  0  0  0  0  0  0  0  0  0  0
    2.6039   -1.5217    0.0000 C   0  0  0  0  0  0  0  0  0  0  0  0
    1.6645   -2.6911    0.0000 O   0  0  0  0  0  0  0  0  0  0  0  0
   -0.3610   -1.0640    0.0000 O   0  0  0  0  0  0  0  0  0  0  0  0
   -1.8434   -0.8351    0.0000 C   0  0  0  0  0  0  0  0  0  0  0  0
   -2.7829   -2.0045    0.0000 C   0  0  0  0  0  0  0  0  0  0  0  0
  1  2  1  0
  2  3  1  0
  3  4  2  0
  4  5  1  0
  5  6  1  0
  6  7  1  0
  5  8  2  0
  8  9  1  0
  9 10  2  0
  9 11  1  0
 11 12  1  0
 12 13  1  0
 11 14  2  0
 14 15  1  0
 15 16  2  0
 16 17  1  0
 17 18  1  0
 17 19  2  0
 19 20  1  0
 20 21  1  0
 19 22  1  0
 22 23  2  0
 23 24  1  0
 14 25  1  0
 25 26  1  0
 26 27  2  0
 27  3  1  0
 26  8  1  0
 23 15  1  0
M  END
>  <identifier>  (616) 
CNP0201089.0

>  <canonical_smiles>  (616) 
COC1=CC(OC)=C2C(=O)C(OC)=C(C3=CC(O)=C(OC)C=C3O)OC2=C1

>  <standard_inchi>  (616) 
InChI=1S/C19H18O8/c1-23-9-5-14(25-3)16-15(6-9)27-18(19(26-4)17(16)22)10-7-12(21)13(24-2)8-11(10)20/h5-8,20-21H,1-4H3

>  <standard_inchi_key>  (616) 
YXRNTXFGNDFPHS-UHFFFAOYSA-N

>  <name>  (616) 
5-O-Methyloxyayanin-A

>  <iupac_name>  (616) 
2-(2,5-dihydroxy-4-methoxy-phenyl)-3,5,7-trimethoxy-chromen-4-one

>  <annotation_level>  (616) 
5

>  <total_atom_count>  (616) 
45

>  <heavy_atom_count>  (616) 
27

>  <molecular_weight>  (616) 
374.35

>  <exact_molecular_weight>  (616) 
374.10017

>  <molecular_formula>  (616) 
C19H18O8

>  <alogp>  (616) 
2.91

>  <topological_polar_surface_area>  (616) 
107.59

>  <rotatable_bond_count>  (616) 
5

>  <hydrogen_bond_acceptors>  (616) 
8

>  <hydrogen_bond_donors>  (616) 
2

>  <hydrogen_bond_acceptors_lipinski>  (616) 
8

>  <hydrogen_bond_donors_lipinski>  (616) 
2

>  <lipinski_rule_of_five_violations>  (616) 
0

>  <aromatic_rings_count>  (616) 
3

>  <qed_drug_likeliness>  (616) 
0.66

>  <formal_charge>  (616) 
0

>  <fractioncsp3>  (616) 
0.21

>  <number_of_minimal_rings>  (616) 
3

>  <van_der_walls_volume>  (616) 
314.42

>  <contains_sugar>  (616) 
False

>  <contains_ring_sugars>  (616) 
False

>  <contains_linear_sugars>  (616) 
False

>  <murcko_framework>  (616) 
O1c2ccccc2CC=C1c3ccccc3

>  <np_likeness>  (616) 
1.29

>  <chemical_class>  (616) 
Flavonoids

>  <chemical_sub_class>  (616) 
O-methylated flavonoids

>  <chemical_super_class>  (616) 
Phenylpropanoids and polyketides

>  <direct_parent_classification>  (616) 
3-O-methylated flavonoids

>  <np_classifier_pathway>  (616) 
Shikimates and Phenylpropanoids

>  <np_classifier_superclass>  (616) 
Flavonoids

>  <np_classifier_class>  (616) 
Flavonols

>  <np_classifier_is_glycoside>  (616) 
False

>  <organisms>  (616) 
Adiantum monochlamys|Apuleia leiocarpa|Baileya pauciradiata|Becium grandiflorum|Centaurea webbiana|Commiphora erythraea|Crinum yemense|Lissoclinum bistratum|Pachyphragma macrophyllum|Spilanthes mauritiana|Vernonanthura chamaedrys|Vicia faba

>  <collections>  (616) 
CMAUP (cCollective molecular activities of useful plants)|KNApSaCK|Latin America dataset|NPASS|NPEdia|NuBBEDB|Super Natural II|UNPD (Universal Natural Products Database)|WikiData Natural Products|ZINC NP

>  <dois>  (616) 
10.1016/S0031-9422(00)89891-X

>  <synonyms>  (616) 
5-O-Methyloxyayanin-A|LMPK12112527

>  <cas>  (616) 
nan

$$$$

     RDKit          2D

 30 34  0  0  0  0  0  0  0  0999 V2000
   -7.6178    1.6011    0.0000 C   0  0  0  0  0  0  0  0  0  0  0  0
   -6.8751    0.2979    0.0000 O   0  0  0  0  0  0  0  0  0  0  0  0
   -5.3751    0.2896    0.0000 C   0  0  0  0  0  0  0  0  0  0  0  0
   -4.6179    1.5845    0.0000 C   0  0  0  0  0  0  0  0  0  0  0  0
   -3.1179    1.5762    0.0000 C   0  0  0  0  0  0  0  0  0  0  0  0
   -2.3751    0.2730    0.0000 C   0  0  0  0  0  0  0  0  0  0  0  0
   -3.1323   -1.0219    0.0000 C   0  0  0  0  0  0  0  0  0  0  0  0
   -4.6323   -1.0136    0.0000 C   0  0  0  0  0  0  0  0  0  0  0  0
   -5.3895   -2.3084    0.0000 O   0  0  0  0  0  0  0  0  0  0  0  0
   -6.8895   -2.3001    0.0000 C   0  0  0  0  0  0  0  0  0  0  0  0
   -0.8752    0.2647    0.0000 C   0  0  0  0  0  0  0  0  0  0  0  0
   -1.6323   -1.0302    0.0000 O   0  0  0  0  0  0  0  0  0  0  0  0
   -0.1324   -1.0385    0.0000 C   0  0  0  0  0  0  0  0  0  0  0  0
   -0.8896   -2.3334    0.0000 O   0  0  0  0  0  0  0  0  0  0  0  0
    1.3676   -1.0468    0.0000 C   0  0  0  0  0  0  0  0  0  0  0  0
    2.1104   -2.3500    0.0000 C   0  0  0  0  0  0  0  0  0  0  0  0
    3.6104   -2.3583    0.0000 C   0  0  0  0  0  0  0  0  0  0  0  0
    4.3676   -1.0635    0.0000 C   0  0  0  0  0  0  0  0  0  0  0  0
    5.8675   -1.0718    0.0000 O   0  0  0  0  0  0  0  0  0  0  0  0
    6.6247    0.2231    0.0000 C   0  0  0  0  0  0  0  0  0  0  0  0
    7.7791    1.1809    0.0000 C   0  0  0  0  0  0  0  0  0  0  0  0
    7.7684   -0.7475    0.0000 C   0  0  0  0  0  0  0  0  0  0  0  0
    5.8819    1.5263    0.0000 C   0  0  0  0  0  0  0  0  0  0  0  0
    4.3820    1.5346    0.0000 C   0  0  0  0  0  0  0  0  0  0  0  0
    3.6248    0.2397    0.0000 C   0  0  0  0  0  0  0  0  0  0  0  0
    2.1248    0.2480    0.0000 C   0  0  0  0  0  0  0  0  0  0  0  0
    1.3820    1.5512    0.0000 O   0  0  0  0  0  0  0  0  0  0  0  0
   -0.1180    1.5595    0.0000 C   0  0  0  0  0  0  0  0  0  0  0  0
   -0.8607    2.8627    0.0000 C   0  0  0  0  0  0  0  0  0  0  0  0
   -2.3607    2.8710    0.0000 O   0  0  0  0  0  0  0  0  0  0  0  0
  1  2  1  0
  2  3  1  0
  3  4  2  0
  4  5  1  0
  5  6  2  0
  6  7  1  0
  7  8  2  0
  8  9  1  0
  9 10  1  0
  6 11  1  0
 11 12  1  6
 11 13  1  0
 13 14  2  0
 13 15  1  0
 15 16  2  0
 16 17  1  0
 17 18  2  0
 18 19  1  0
 19 20  1  0
 20 21  1  0
 20 22  1  0
 20 23  1  0
 23 24  2  0
 24 25  1  0
 25 26  2  0
 26 27  1  0
 27 28  1  0
 28 29  1  1
 29 30  1  0
  8  3  1  0
 28 11  1  0
 30  5  1  0
 26 15  1  0
 25 18  1  0
M  END
>  <identifier>  (617) 
CNP0283094.1

>  <canonical_smiles>  (617) 
COC1=CC2=C(C=C1OC)[C@]1(O)C(=O)C3=CC=C4OC(C)(C)C=CC4=C3O[C@@H]1CO2

>  <standard_inchi>  (617) 
InChI=1S/C23H22O7/c1-22(2)8-7-12-15(30-22)6-5-13-20(12)29-19-11-28-16-10-18(27-4)17(26-3)9-14(16)23(19,25)21(13)24/h5-10,19,25H,11H2,1-4H3/t19-,23-/m1/s1

>  <standard_inchi_key>  (617) 
AQBZCCQCDWNNJQ-AUSIDOKSSA-N

>  <name>  (617) 
Tephrosin

>  <iupac_name>  (617) 
(1~{R},14~{R})-14-hydroxy-17,18-dimethoxy-7,7-dimethyl-2,8,21-trioxapentacyclo[12.8.0.0^{3,12}.0^{4,9}.0^{15,20}]docosa-3,5,9,11,15(20),16,18-heptaen-13-one

>  <annotation_level>  (617) 
5

>  <total_atom_count>  (617) 
52

>  <heavy_atom_count>  (617) 
30

>  <molecular_weight>  (617) 
410.42

>  <exact_molecular_weight>  (617) 
410.13655

>  <molecular_formula>  (617) 
C23H22O7

>  <alogp>  (617) 
3.11

>  <topological_polar_surface_area>  (617) 
83.45

>  <rotatable_bond_count>  (617) 
2

>  <hydrogen_bond_acceptors>  (617) 
7

>  <hydrogen_bond_donors>  (617) 
1

>  <hydrogen_bond_acceptors_lipinski>  (617) 
7

>  <hydrogen_bond_donors_lipinski>  (617) 
1

>  <lipinski_rule_of_five_violations>  (617) 
0

>  <aromatic_rings_count>  (617) 
2

>  <qed_drug_likeliness>  (617) 
0.81

>  <formal_charge>  (617) 
0

>  <fractioncsp3>  (617) 
0.35

>  <number_of_minimal_rings>  (617) 
5

>  <van_der_walls_volume>  (617) 
353.35

>  <contains_sugar>  (617) 
False

>  <contains_ring_sugars>  (617) 
False

>  <contains_linear_sugars>  (617) 
False

>  <murcko_framework>  (617) 
O1c2ccc3c(OC4COc5ccccc5C4C3)c2C=CC1

>  <np_likeness>  (617) 
2.55

>  <chemical_class>  (617) 
Isoflavonoids

>  <chemical_sub_class>  (617) 
Rotenoids

>  <chemical_super_class>  (617) 
Phenylpropanoids and polyketides

>  <direct_parent_classification>  (617) 
Rotenones

>  <np_classifier_pathway>  (617) 
Shikimates and Phenylpropanoids

>  <np_classifier_superclass>  (617) 
Isoflavonoids

>  <np_classifier_class>  (617) 
Rotenoids

>  <np_classifier_is_glycoside>  (617) 
False

>  <organisms>  (617) 
Achillea cretica|Aflatunia ulmifolia|Amorpha fruticosa|Antheroporum pierrei|Artemisia igniaria|Cordia americana|Crotalaria spp.|Deguelia urucu|Derris|Derris Trifoliata|Derris canarensis|Derris cuneifolia|Derris elliptica|Derris malaccensis|Derris montana|Derris oblonga|Derris trifoliata|Derris urucu|Dysoxylum spectabile|Erycibe expansa|Eupatorium riparium|Glycosmis montana|Indigofera spicata|Lonchocarpus heptaphyllus|Lonchocarpus longifolius|Lonchocarpus nicou|Lonchocarpus spp.|Lonchocarpus spruceanus|Lonchocarpus utilis|Milletia dura|Millettia dura|Millettia ferruginea|Millettia griffoniana|Millettia pachycarpa|Millettia taiwaniana|Millettia usaramensis|Mundulea chapelieri|Mundulea sericea|Patrinia scabra|Pedicularis semitorta|Piscidia mollois|Pogonolepis muelleriana|Sarcolobus globosus|Scopolia japonica|Tephrosia candida|Tephrosia elata|Tephrosia leiocarpa|Tephrosia purpurea|Tephrosia spp.|Tephrosia vogelii|Trachelanthus hissaricus|derris malaccensis plain

>  <collections>  (617) 
ANPDB|AfroDB|AnalytiCon Discovery NPs|Australian natural products|CMAUP (cCollective molecular activities of useful plants)|ChEBI NPs|ConMedNP|GNPS (Global Natural Products Social Molecular Networking)|KNApSaCK|Latin America dataset|Mitishamba database|NANPDB (Natural Products from Northern African Sources)|NPACT|NPASS|NPEdia|NuBBEDB|Super Natural II|TCMDB-Taiwan (Traditional Chinese Medicine database)|VietHerb|WikiData Natural Products|ZINC NP

>  <dois>  (617) 
10.1016/0031-9422(90)85212-X|10.1016/0031-9422(91)80129-O|10.1016/0031-9422(92)83754-M|10.1016/J.PHYTOCHEM.2006.01.002|10.1016/S0031-9422(00)80349-0|10.1016/S0031-9422(00)83511-6|10.1016/S0031-9422(00)89755-1|10.1016/S0031-9422(00)90838-0|10.1016/S0031-9422(00)98664-3|10.1016/S0031-9422(97)00405-6|10.1016/S0367-326X(99)00046-5|10.1016/j.bmc.2006.09.024|10.1016/j.phytochem.2006.01.002|10.1016/j.phytochem.2012.02.025|10.1021/JF3032217|10.1021/JF981188X|10.1021/NP010126P|10.1021/NP0303815|10.1021/NP0303815.S001|10.1021/NP030554Q|10.1021/NP100763P|10.1021/NP50042A032|10.1021/NP50044A013|10.1021/NP50055A035|10.1021/NP50095A005|10.1021/NP50096A006|10.1021/NP800383Q|10.1021/NP9605955|10.1021/acs.jnatprod.5b00581|10.1021/np010126p|10.1021/np0303815|10.1021/np400567c|10.1021/np50095a005|10.1021/np50096a006|10.1021/np800383q|10.1038/NM0395-260|10.1055/S-2004-815447|10.1055/S-2005-864182|10.1055/S-2006-961936|10.1055/S-2006-962679|10.1055/S-2007-969462|10.1073/PNAS.95.7.3380|10.1093/CHROMSCI/38.4.174|10.1139/V07-120|10.1248/CPB.41.187|10.1248/CPB.54.1530|10.1515/ZNB-2005-0911|10.3390/MOLECULES17010657|10.3987/COM-07-11214|10.3987/COM-92-6288|10.3987/COM-95-7069

>  <synonyms>  (617) 
(-)-TEPHROSIN|(1R,14R)-14-hydroxy-17,18-dimethoxy-7,7-dimethyl-2,8,21-trioxapentacyclo[12.8.0.03,12.04,9.015,20]docosa-3(12),4(9),5,10,15,17,19-heptaen-13-one|(20R,23R)-23-hydroxy-16,17-dimethoxy-22,22-dimethyl-26,27,28-trioxapentacyclo[BL|(7aR,13aR)-13,13a-dihydro-7a-hydroxy-9,10-dimethoxy-3,3-dimethyl-3H-bis(1)benzopyrano(3,4-b:6',5'-e)pyran-7(7aH)-one|(7aR,13aR)-7a-Hydroxy-9,10-dimethoxy-3,3-dimethyl-13,13a-dihydro-3H-pyrano[2,3-c:6,5-f']dichromen-7(7aH)-one|(7aR,13aR)-7a-hydroxy-9,10-dimethoxy-3,3-dimethyl-13,13a-dihydro-3H-chromeno[3,4-b]pyrano[2,3-h]chromen-7(7aH)-one|3H-Bis(1)benzopyrano(3,4-b:6',5'-e)pyran-7(7aH)-one, 13,13a-dihydro-7a-hydroxy-9,10-dimethoxy-3,3-dimethyl-, (7aR,13aR)-|76-80-2|9C081V83CC|AKOS040740204|BDBM50505206|CCRIS 7115|CHEBI:9442|CHEMBL241806|CS-0016457|DTXSID20878627|Deguelinol I;Hydroxydeguelin|G12541|HY-N1166|LMPK12060047|MEGxp0_001258|MS-27072|Q7701343|SCHEMBL766277|TEPHROSIN [MI]|Tephrosin|Tephrosin, >=95% (LC\/MS-ELSD)|Tephrosin, Tephorosin|UNII-9C081V83CC|deguelinol I|hydroxydeguelin|tephrosin

>  <cas>  (617) 
76-80-2

$$$$

     RDKit          2D

 18 19  0  0  0  0  0  0  0  0999 V2000
   -0.5416   -3.7172    0.0000 C   0  0  0  0  0  0  0  0  0  0  0  0
   -1.1578   -2.3496    0.0000 C   0  0  0  0  0  0  0  0  0  0  0  0
   -2.6502   -2.1994    0.0000 C   0  0  0  0  0  0  0  0  0  0  0  0
   -3.2664   -0.8318    0.0000 C   0  0  0  0  0  0  0  0  0  0  0  0
   -2.3901    0.3856    0.0000 C   0  0  0  0  0  0  0  0  0  0  0  0
   -3.0062    1.7532    0.0000 C   0  0  0  0  0  0  0  0  0  0  0  0
   -4.4987    1.9035    0.0000 O   0  0  0  0  0  0  0  0  0  0  0  0
   -0.8976    0.2354    0.0000 C   0  0  0  0  0  0  0  0  0  0  0  0
   -0.0213    1.4528    0.0000 C   0  0  0  0  0  0  0  0  0  0  0  0
   -0.6374    2.8204    0.0000 O   0  0  0  0  0  0  0  0  0  0  0  0
    1.4712    1.3026    0.0000 C   0  0  0  0  0  0  0  0  0  0  0  0
    2.3475    2.5200    0.0000 O   0  0  0  0  0  0  0  0  0  0  0  0
    2.0873   -0.0650    0.0000 C   0  0  0  0  0  0  0  0  0  0  0  0
    3.5798   -0.2152    0.0000 C   0  0  0  0  0  0  0  0  0  0  0  0
    4.1959   -1.5828    0.0000 C   0  0  0  0  0  0  0  0  0  0  0  0
    4.4561    1.0022    0.0000 C   0  0  0  0  0  0  0  0  0  0  0  0
    1.2110   -1.2824    0.0000 C   0  0  0  0  0  0  0  0  0  0  0  0
   -0.2815   -1.1322    0.0000 C   0  0  0  0  0  0  0  0  0  0  0  0
  1  2  1  0
  2  3  2  0
  3  4  1  0
  4  5  2  0
  5  6  1  0
  6  7  2  0
  5  8  1  0
  8  9  2  0
  9 10  1  0
  9 11  1  0
 11 12  1  0
 11 13  2  0
 13 14  1  0
 14 15  1  0
 14 16  1  0
 13 17  1  0
 17 18  2  0
 18  2  1  0
 18  8  1  0
M  END
>  <identifier>  (618) 
CNP0138341.0

>  <canonical_smiles>  (618) 
CC1=CC=C(C=O)C2=C(O)C(O)=C(C(C)C)C=C12

>  <standard_inchi>  (618) 
InChI=1S/C15H16O3/c1-8(2)11-6-12-9(3)4-5-10(7-16)13(12)15(18)14(11)17/h4-8,17-18H,1-3H3

>  <standard_inchi_key>  (618) 
UBISCFIISWFGTJ-UHFFFAOYSA-N

>  <name>  (618) 
53915-46-1

>  <iupac_name>  (618) 
7,8-dihydroxy-6-isopropyl-4-methyl-naphthalene-1-carbaldehyde

>  <annotation_level>  (618) 
5

>  <total_atom_count>  (618) 
34

>  <heavy_atom_count>  (618) 
18

>  <molecular_weight>  (618) 
244.29

>  <exact_molecular_weight>  (618) 
244.10994

>  <molecular_formula>  (618) 
C15H16O3

>  <alogp>  (618) 
3.50

>  <topological_polar_surface_area>  (618) 
57.53

>  <rotatable_bond_count>  (618) 
2

>  <hydrogen_bond_acceptors>  (618) 
3

>  <hydrogen_bond_donors>  (618) 
2

>  <hydrogen_bond_acceptors_lipinski>  (618) 
3

>  <hydrogen_bond_donors_lipinski>  (618) 
2

>  <lipinski_rule_of_five_violations>  (618) 
0

>  <aromatic_rings_count>  (618) 
2

>  <qed_drug_likeliness>  (618) 
0.63

>  <formal_charge>  (618) 
0

>  <fractioncsp3>  (618) 
0.27

>  <number_of_minimal_rings>  (618) 
2

>  <van_der_walls_volume>  (618) 
225.93

>  <contains_sugar>  (618) 
False

>  <contains_ring_sugars>  (618) 
False

>  <contains_linear_sugars>  (618) 
False

>  <murcko_framework>  (618) 
c1ccc2ccccc2c1

>  <np_likeness>  (618) 
0.63

>  <chemical_class>  (618) 
Naphthalenes

>  <chemical_sub_class>  (618) 
Naphthalenecarboxylic acids and derivatives

>  <chemical_super_class>  (618) 
Benzenoids

>  <direct_parent_classification>  (618) 
Naphthalenecarboxylic acids

>  <np_classifier_pathway>  (618) 
Terpenoids

>  <np_classifier_superclass>  (618) 
Sesquiterpenoids

>  <np_classifier_class>  (618) 
Cadinane sesquiterpenoids

>  <np_classifier_is_glycoside>  (618) 
False

>  <organisms>  (618) 
Emmotum nitens

>  <collections>  (618) 
KNApSaCK|Latin America dataset|NPEdia|NuBBEDB|Super Natural II|UNPD (Universal Natural Products Database)|WikiData Natural Products|ZINC NP

>  <dois>  (618) 
10.1016/0031-9422(74)80100-7

>  <synonyms>  (618) 
7,8-Dihydroxy-4-methyl-6-(propan-2-yl)naphthalene-1-carbaldehyde|7,8-Dihydroxy-6-isopropyl-4-methyl-1-naphthalenecarbaldehyde|DB-296695|DTXSID10701435|Emmotin C

>  <cas>  (618) 
nan

$$$$

     RDKit          2D

 10  9  0  0  0  0  0  0  0  0999 V2000
   -5.8514   -0.2717    0.0000 C   0  0  0  0  0  0  0  0  0  0  0  0
   -4.5393    0.4553    0.0000 C   0  0  0  0  0  0  0  0  0  0  0  0
   -3.2537   -0.3176    0.0000 C   0  0  0  0  0  0  0  0  0  0  0  0
   -1.9416    0.4094    0.0000 C   0  0  0  0  0  0  0  0  0  0  0  0
   -0.6560   -0.3635    0.0000 C   0  0  0  0  0  0  0  0  0  0  0  0
    0.6560    0.3635    0.0000 C   0  0  0  0  0  0  0  0  0  0  0  0
    1.9416   -0.4094    0.0000 C   0  0  0  0  0  0  0  0  0  0  0  0
    3.2537    0.3176    0.0000 C   0  0  0  0  0  0  0  0  0  0  0  0
    4.5393   -0.4553    0.0000 C   0  0  0  0  0  0  0  0  0  0  0  0
    5.8514    0.2717    0.0000 C   0  0  0  0  0  0  0  0  0  0  0  0
  1  2  1  0
  2  3  1  0
  3  4  1  0
  4  5  1  0
  5  6  1  0
  6  7  1  0
  7  8  1  0
  8  9  1  0
  9 10  1  0
M  END
>  <identifier>  (619) 
CNP0279708.0

>  <canonical_smiles>  (619) 
CCCCCCCCCC

>  <standard_inchi>  (619) 
InChI=1S/C10H22/c1-3-5-7-9-10-8-6-4-2/h3-10H2,1-2H3

>  <standard_inchi_key>  (619) 
DIOQZVSQGTUSAI-UHFFFAOYSA-N

>  <name>  (619) 
DECANE

>  <iupac_name>  (619) 
decane

>  <annotation_level>  (619) 
5

>  <total_atom_count>  (619) 
32

>  <heavy_atom_count>  (619) 
10

>  <molecular_weight>  (619) 
142.29

>  <exact_molecular_weight>  (619) 
142.17215

>  <molecular_formula>  (619) 
C10H22

>  <alogp>  (619) 
4.15

>  <topological_polar_surface_area>  (619) 
0.00

>  <rotatable_bond_count>  (619) 
7

>  <hydrogen_bond_acceptors>  (619) 
0

>  <hydrogen_bond_donors>  (619) 
0

>  <hydrogen_bond_acceptors_lipinski>  (619) 
0

>  <hydrogen_bond_donors_lipinski>  (619) 
0

>  <lipinski_rule_of_five_violations>  (619) 
0

>  <aromatic_rings_count>  (619) 
0

>  <qed_drug_likeliness>  (619) 
0.47

>  <formal_charge>  (619) 
0

>  <fractioncsp3>  (619) 
1.00

>  <number_of_minimal_rings>  (619) 
0

>  <van_der_walls_volume>  (619) 
177.82

>  <contains_sugar>  (619) 
False

>  <contains_ring_sugars>  (619) 
False

>  <contains_linear_sugars>  (619) 
False

>  <murcko_framework>  (619) 
nan

>  <np_likeness>  (619) 
0.24

>  <chemical_class>  (619) 
Saturated hydrocarbons

>  <chemical_sub_class>  (619) 
Alkanes

>  <chemical_super_class>  (619) 
Hydrocarbons

>  <direct_parent_classification>  (619) 
Alkanes

>  <np_classifier_pathway>  (619) 
Fatty acids

>  <np_classifier_superclass>  (619) 
Fatty acyls

>  <np_classifier_class>  (619) 
Hydrocarbons

>  <np_classifier_is_glycoside>  (619) 
False

>  <organisms>  (619) 
Allium ampeloprasum|Amomum villosum|Angelica acutiloba|Angelica gigas|Angelica sinensis|Aristolochia birostris|Aristolochia cymbifera|Aristolochia didyma|Aristolochia gigantea|Aristolochia macroura|Aristolochia triangularis|Aster scaber|Astilbe chinensis|Bistorta manshuriensis|Bistorta officinalis|Brassica napus|Cannabis sativa|Carica papaya|Carthamus tinctorius|Caryocar coriaceum|Centaurea benedicta|Cistanche deserticola|Cistus creticus|Citrus medica|Clematis chinensis|Cnicus benedictus|Cnidium monnieri|Codonopsis pilosula|Cordyceps sinensis|Elaeis guineensis|Eucalyptus camaldulensis|Eucalyptus globulus|Festuca arundinacea|Festuca rubra|Flos mume|Fructus amomi|Fructus terminaliae|Fructus terminaliae preparata|Fructus xanthii|Fructus xanthii sibirici|Gomphrena globosa|Gossypium hirsutum|Gymnodinium nagasakiense|Hamamelis virginiana|Homo sapiens|Homo sapiens (Exhaled breath)|Hypericum heterophyllum|Hypericum hyssopifolium|Karenia mikimotoi|Lantana camara|Lycium barbarum|Lycium chinense|Malus domestica|Malus pumila|Michelia alba|Micromeria myrtifolia|Nepeta racemosa|Oecophylla smaragdina|Oenanthe javanica|Ophiocordyceps sinensis|Origanum vulgare|Oryza sativa|Osmanthus fragrans|Paeonia lactiflora|Panax ginseng|Panax pseudo - ginseng var. notoginseng|Panax pseudo-ginseng var. notoginseng|Perilla frutescens|Phallus impudicus|Pimpinella anisum|Plakortis angulospiculatus|Plakortis lita|Radix codonopsis pilosulae|Radix smilacis|Sauromatum venosum|Senecio isatideus|Senna alexandrina|Sideritis hispida|Simicratea welwitschii|Solanum incisum|Solanum lycopersicum|Solanum stuckertii|Sophora flavescens|Tanacetum cinerariifolium|Terminalia chebula|Thalictrum ichangense|Vanilla tahitensis|Zanthoxylum bungeanum|Zanthoxylum piperitum|Zanthoxylum schinifolium

>  <collections>  (619) 
Australian natural products|CMAUP (cCollective molecular activities of useful plants)|EMNPD|FooDB|KNApSaCK|Latin America dataset|NPASS|NuBBEDB|Phyto4Health|Super Natural II|TCMDB-Taiwan (Traditional Chinese Medicine database)|TCMID (Traditional Chinese Medicine Integrated Database)|UNPD (Universal Natural Products Database)|WikiData Natural Products

>  <dois>  (619) 
10.1002/(SICI)1099-1026(199901/02)14:1<15::AID-FFJ777>3.0.CO;2-M|10.1002/FFJ.1279|10.1016/0031-9422(91)84185-U|10.1016/0031-9422(92)80160-G|10.1016/J.FOODCHEM.2004.05.018|10.1016/J.INDCROP.2014.04.048|10.1016/J.PHYTOCHEM.2009.06.013|10.1016/J.RENENE.2017.12.012|10.1016/S0031-9422(00)90341-8|10.1016/S0031-9422(00)94541-2|10.1016/S0031-9422(00)94756-3|10.1016/S0031-9422(98)00022-3|10.1016/j.foodchem.2004.05.018|10.1021/JF00025A025|10.1021/JF00034A033|10.1021/JF00120A031|10.1021/JF0728101|10.1021/JF60200A011|10.1021/JF60209A051|10.1021/JF960927B|10.1021/NP50008A001|10.1021/jf00120a031|10.1055/S-0028-1099484|10.1055/S-2006-957420|10.1080/00021369.1990.10870456|10.1080/10412905.1989.9697802|10.1080/10412905.1991.9697935|10.1080/10412905.1991.9697974|10.1080/10412905.1992.9698015|10.1080/10412905.1993.9698205|10.1080/10412905.1993.9698253|10.1080/10412905.1994.9698418|10.1080/10412905.1995.9698546|10.1080/10412905.1997.9700728|10.1088/1752-7155/2/3/037023|10.1088/1752-7155/8/1/014001|10.1271/BBB1961.54.3335|10.1515/ZNC-1982-1-202|10.17660/ACTAHORTIC.1999.500.11|10.3109/13880209109082869|10.4314/BCSE.V11I1.21012

>  <synonyms>  (619) 
116372-01-1|124-18-5|4-01-00-00464 (Beilstein Handbook Reference)|63335-87-5|73138-29-1|AI3-24107|AKOS005145676|BRN 1696981|CACTUS NORMAL PARAFFIN N 10|CAS-124-18-5|CCRIS 653|CHEBI:41808|CHEMBL134537|D0011|D10|DB-089700|DB-307803|DBF497D1-4529-4457-841E-9D33CDF22B1C|DECANE [HSDB]|DECANE [INCI]|DTXCID704913|DTXSID6024913|Decane|Decane, 99%|Decane, >=95%|Decane, ReagentPlus(R), >=99%|Decane, SAJ special grade, >=99.0%|Decane, analytical standard|Decane, anhydrous, >=99%|Decane, n-|Decane, purum, >=95.0% (GC)|Decane; Cactus Normal Paraffin N 10; NSC 8781; n-Decane|Decyl hydride|EC 204-686-4|EINECS 204-686-4|EN300-19466|F1908-0171|HSDB 63|InChI=1\/C10H22\/c1-3-5-7-9-10-8-6-4-2\/h3-10H2,1-2H|J-005051|J-520211|LMFA11000568|LS-13903|MFCD00008954|N-Decane|NCGC00247996-01|NCGC00254283-01|NCGC00259430-01|NK85062OIY|NS00010712|NSC 8781|NSC-8781|Nonane, methyl-|Q150717|QSPL 111|S0282|S0554|STL280316|SYNTSOL LP 10|Tox21_201881|Tox21_300336|UN2247|UNII-NK85062OIY|WLN: 10H|decan|n-C10H22|n-Decane|n-Decane 1000 microg\/mL in Methanol|n-Decane [UN2247]  [Flammable liquid]|n-decane|normal-decane|s11595

>  <cas>  (619) 
124-18-5|73138-29-1|63335-87-5|116372-01-1

$$$$

     RDKit          2D

 26 29  0  0  0  0  0  0  0  0999 V2000
    4.0120    4.5262    0.0000 C   0  0  0  0  0  0  0  0  0  0  0  0
    3.9363    3.0281    0.0000 C   0  0  0  0  0  0  0  0  0  0  0  0
    2.6011    2.3446    0.0000 C   0  0  0  0  0  0  0  0  0  0  0  0
    2.5255    0.8465    0.0000 C   0  0  0  0  0  0  0  0  0  0  0  0
    3.7850    0.0319    0.0000 C   0  0  0  0  0  0  0  0  0  0  0  0
    3.7094   -1.4662    0.0000 C   0  0  0  0  0  0  0  0  0  0  0  0
    4.9689   -2.2807    0.0000 O   0  0  0  0  0  0  0  0  0  0  0  0
    2.3742   -2.1497    0.0000 C   0  0  0  0  0  0  0  0  0  0  0  0
    2.2985   -3.6478    0.0000 O   0  0  0  0  0  0  0  0  0  0  0  0
    1.1146   -1.3351    0.0000 C   0  0  0  0  0  0  0  0  0  0  0  0
   -0.2206   -2.0186    0.0000 O   0  0  0  0  0  0  0  0  0  0  0  0
   -0.2963   -3.5167    0.0000 C   0  0  0  0  0  0  0  0  0  0  0  0
    0.1684   -0.1712    0.0000 C   0  0  0  0  0  0  0  0  0  0  0  0
   -1.3294   -0.2525    0.0000 C   0  0  0  0  0  0  0  0  0  0  0  0
   -2.0078   -1.5903    0.0000 C   0  0  0  0  0  0  0  0  0  0  0  0
   -3.5056   -1.6717    0.0000 C   0  0  0  0  0  0  0  0  0  0  0  0
   -4.3250   -0.4152    0.0000 C   0  0  0  0  0  0  0  0  0  0  0  0
   -5.8070   -0.1834    0.0000 O   0  0  0  0  0  0  0  0  0  0  0  0
   -6.0444    1.2977    0.0000 C   0  0  0  0  0  0  0  0  0  0  0  0
   -4.7092    1.9812    0.0000 O   0  0  0  0  0  0  0  0  0  0  0  0
   -3.6465    0.9226    0.0000 C   0  0  0  0  0  0  0  0  0  0  0  0
   -2.1487    1.0039    0.0000 C   0  0  0  0  0  0  0  0  0  0  0  0
    0.9830    1.0884    0.0000 C   0  0  0  0  0  0  0  0  0  0  0  0
    0.4428    2.4877    0.0000 C   0  0  0  0  0  0  0  0  0  0  0  0
    1.1903    0.1630    0.0000 C   0  0  0  0  0  0  0  0  0  0  0  0
   -0.0693    0.9775    0.0000 O   0  0  0  0  0  0  0  0  0  0  0  0
  1  2  2  0
  2  3  1  0
  4  3  1  1
  4  5  1  0
  5  6  1  0
  6  7  2  0
  6  8  1  0
  8  9  1  6
  8 10  1  0
 10 11  1  1
 11 12  1  0
 10 13  1  0
 13 14  1  1
 14 15  2  0
 15 16  1  0
 16 17  2  0
 17 18  1  0
 18 19  1  0
 19 20  1  0
 20 21  1  0
 21 22  2  0
 13 23  1  0
 23 24  1  6
 10 25  1  0
 25 26  1  1
 23  4  1  0
 25  4  1  0
 22 14  1  0
 21 17  1  0
M  END
>  <identifier>  (620) 
CNP0159017.2

>  <canonical_smiles>  (620) 
C=CC[C@]12CC(=O)[C@H](O)[C@](OC)([C@@H](C3=CC=C4OCOC4=C3)[C@@H]1C)[C@H]2O

>  <standard_inchi>  (620) 
InChI=1S/C20H24O6/c1-4-7-19-9-13(21)17(22)20(24-3,18(19)23)16(11(19)2)12-5-6-14-15(8-12)26-10-25-14/h4-6,8,11,16-18,22-23H,1,7,9-10H2,2-3H3/t11-,16+,17-,18-,19-,20+/m0/s1

>  <standard_inchi_key>  (620) 
HFRUTFXBVKAWAM-KPPZTHMTSA-N

>  <name>  (620) 
nan

>  <iupac_name>  (620) 
(1~{S},2~{R},5~{S},6~{S},7~{R},8~{S})-5-allyl-7-(1,3-benzodioxol-5-yl)-2,8-dihydroxy-1-methoxy-6-methyl-bicyclo[3.2.1]octan-3-one

>  <annotation_level>  (620) 
4

>  <total_atom_count>  (620) 
50

>  <heavy_atom_count>  (620) 
26

>  <molecular_weight>  (620) 
360.41

>  <exact_molecular_weight>  (620) 
360.15729

>  <molecular_formula>  (620) 
C20H24O6

>  <alogp>  (620) 
1.79

>  <topological_polar_surface_area>  (620) 
85.22

>  <rotatable_bond_count>  (620) 
4

>  <hydrogen_bond_acceptors>  (620) 
6

>  <hydrogen_bond_donors>  (620) 
2

>  <hydrogen_bond_acceptors_lipinski>  (620) 
6

>  <hydrogen_bond_donors_lipinski>  (620) 
2

>  <lipinski_rule_of_five_violations>  (620) 
0

>  <aromatic_rings_count>  (620) 
1

>  <qed_drug_likeliness>  (620) 
0.80

>  <formal_charge>  (620) 
0

>  <fractioncsp3>  (620) 
0.55

>  <number_of_minimal_rings>  (620) 
4

>  <van_der_walls_volume>  (620) 
nan

>  <contains_sugar>  (620) 
False

>  <contains_ring_sugars>  (620) 
False

>  <contains_linear_sugars>  (620) 
False

>  <murcko_framework>  (620) 
O1c2ccc(cc2OC1)C3CC4CCCC3C4

>  <np_likeness>  (620) 
2.09

>  <chemical_class>  (620) 
Benzodioxoles

>  <chemical_sub_class>  (620) 
Benzodioxoles

>  <chemical_super_class>  (620) 
Organoheterocyclic compounds

>  <direct_parent_classification>  (620) 
Benzodioxoles

>  <np_classifier_pathway>  (620) 
Shikimates and Phenylpropanoids

>  <np_classifier_superclass>  (620) 
Lignans

>  <np_classifier_class>  (620) 
Neolignans

>  <np_classifier_is_glycoside>  (620) 
False

>  <organisms>  (620) 
Licaria canella|Licaria rigida

>  <collections>  (620) 
Latin America dataset|NuBBEDB|Super Natural II|WikiData Natural Products

>  <dois>  (620) 
10.1016/0031-9422(81)84071-X|10.1016/0031-9422(83)83046-5|10.1016/0031-9422(91)83479-5

>  <synonyms>  (620) 
canellin C

>  <cas>  (620) 
nan

$$$$

     RDKit          2D

 26 29  0  0  0  0  0  0  0  0999 V2000
   -6.2137   -0.9492    0.0000 C   0  0  0  0  0  0  0  0  0  0  0  0
   -4.9629   -1.7772    0.0000 O   0  0  0  0  0  0  0  0  0  0  0  0
   -3.6205   -1.1079    0.0000 C   0  0  0  0  0  0  0  0  0  0  0  0
   -3.5289    0.3893    0.0000 C   0  0  0  0  0  0  0  0  0  0  0  0
   -2.1864    1.0586    0.0000 C   0  0  0  0  0  0  0  0  0  0  0  0
   -0.9356    0.2306    0.0000 C   0  0  0  0  0  0  0  0  0  0  0  0
   -1.0272   -1.2666    0.0000 C   0  0  0  0  0  0  0  0  0  0  0  0
   -2.3696   -1.9358    0.0000 C   0  0  0  0  0  0  0  0  0  0  0  0
   -2.4612   -3.4330    0.0000 O   0  0  0  0  0  0  0  0  0  0  0  0
   -3.8036   -4.1023    0.0000 C   0  0  0  0  0  0  0  0  0  0  0  0
    0.4068    0.8999    0.0000 C   0  0  0  0  0  0  0  0  0  0  0  0
    1.6576    0.0720    0.0000 C   0  0  0  0  0  0  0  0  0  0  0  0
    1.5660   -1.4252    0.0000 C   0  0  0  0  0  0  0  0  0  0  0  0
    2.8168   -2.2531    0.0000 C   0  0  0  0  0  0  0  0  0  0  0  0
    4.1592   -1.5839    0.0000 C   0  0  0  0  0  0  0  0  0  0  0  0
    5.5548   -2.1336    0.0000 O   0  0  0  0  0  0  0  0  0  0  0  0
    6.5090   -0.9762    0.0000 C   0  0  0  0  0  0  0  0  0  0  0  0
    5.7031    0.2889    0.0000 O   0  0  0  0  0  0  0  0  0  0  0  0
    4.2508   -0.0867    0.0000 C   0  0  0  0  0  0  0  0  0  0  0  0
    3.0000    0.7413    0.0000 C   0  0  0  0  0  0  0  0  0  0  0  0
    0.4984    2.3971    0.0000 C   0  0  0  0  0  0  0  0  0  0  0  0
    1.8408    3.0664    0.0000 C   0  0  0  0  0  0  0  0  0  0  0  0
   -0.7524    3.2250    0.0000 C   0  0  0  0  0  0  0  0  0  0  0  0
   -0.6608    4.7222    0.0000 C   0  0  0  0  0  0  0  0  0  0  0  0
   -2.0948    2.5558    0.0000 C   0  0  0  0  0  0  0  0  0  0  0  0
   -3.3457    3.3837    0.0000 O   0  0  0  0  0  0  0  0  0  0  0  0
  1  2  1  0
  2  3  1  0
  3  4  2  0
  4  5  1  0
  5  6  2  0
  6  7  1  0
  7  8  2  0
  8  9  1  0
  9 10  1  0
  6 11  1  0
 11 12  1  6
 12 13  2  0
 13 14  1  0
 14 15  2  0
 15 16  1  0
 16 17  1  0
 17 18  1  0
 18 19  1  0
 19 20  2  0
 11 21  1  0
 21 22  1  1
 21 23  1  0
 23 24  1  6
 23 25  1  0
 25 26  2  0
  8  3  1  0
 20 12  1  0
 25  5  1  0
 19 15  1  0
M  END
>  <identifier>  (621) 
CNP0195972.3

>  <canonical_smiles>  (621) 
COC1=CC2=C(C=C1OC)[C@@H](C1=CC=C3OCOC3=C1)[C@H](C)[C@@H](C)C2=O

>  <standard_inchi>  (621) 
InChI=1S/C21H22O5/c1-11-12(2)21(22)15-9-18(24-4)17(23-3)8-14(15)20(11)13-5-6-16-19(7-13)26-10-25-16/h5-9,11-12,20H,10H2,1-4H3/t11-,12-,20-/m1/s1

>  <standard_inchi_key>  (621) 
AQILVQJBVWGDOL-FKANQGBASA-N

>  <name>  (621) 
nan

>  <iupac_name>  (621) 
(2~{R},3~{S},4~{R})-4-(1,3-benzodioxol-5-yl)-6,7-dimethoxy-2,3-dimethyl-tetralin-1-one

>  <annotation_level>  (621) 
4

>  <total_atom_count>  (621) 
48

>  <heavy_atom_count>  (621) 
26

>  <molecular_weight>  (621) 
354.4

>  <exact_molecular_weight>  (621) 
354.14672

>  <molecular_formula>  (621) 
C21H22O5

>  <alogp>  (621) 
4.03

>  <topological_polar_surface_area>  (621) 
53.99

>  <rotatable_bond_count>  (621) 
3

>  <hydrogen_bond_acceptors>  (621) 
5

>  <hydrogen_bond_donors>  (621) 
0

>  <hydrogen_bond_acceptors_lipinski>  (621) 
5

>  <hydrogen_bond_donors_lipinski>  (621) 
0

>  <lipinski_rule_of_five_violations>  (621) 
0

>  <aromatic_rings_count>  (621) 
2

>  <qed_drug_likeliness>  (621) 
0.83

>  <formal_charge>  (621) 
0

>  <fractioncsp3>  (621) 
0.38

>  <number_of_minimal_rings>  (621) 
4

>  <van_der_walls_volume>  (621) 
nan

>  <contains_sugar>  (621) 
False

>  <contains_ring_sugars>  (621) 
False

>  <contains_linear_sugars>  (621) 
False

>  <murcko_framework>  (621) 
O1c2ccc(cc2OC1)C3c4ccccc4CCC3

>  <np_likeness>  (621) 
1.06

>  <chemical_class>  (621) 
Aryltetralin lignans

>  <chemical_sub_class>  (621) 
Aryltetralin lignans

>  <chemical_super_class>  (621) 
Lignans, neolignans and related compounds

>  <direct_parent_classification>  (621) 
Aryltetralin lignans

>  <np_classifier_pathway>  (621) 
Shikimates and Phenylpropanoids

>  <np_classifier_superclass>  (621) 
Lignans

>  <np_classifier_class>  (621) 
Arylnaphthalene and aryltetralin lignans

>  <np_classifier_is_glycoside>  (621) 
False

>  <organisms>  (621) 
Virola sebifera

>  <collections>  (621) 
Latin America dataset|NuBBEDB|Super Natural II|WikiData Natural Products|ZINC NP

>  <dois>  (621) 
10.1016/0031-9422(82)83181-6

>  <synonyms>  (621) 
(2R3S4R)-67-Dimethoxy-23-dimethyl-4-piperonyl-1-tetralone

>  <cas>  (621) 
nan

$$$$

     RDKit          2D

 26 28  0  0  0  0  0  0  0  0999 V2000
   -5.8788    3.2036    0.0000 C   0  0  0  0  0  0  0  0  0  0  0  0
   -4.3793    3.2405    0.0000 C   0  0  0  0  0  0  0  0  0  0  0  0
   -3.5975    1.9604    0.0000 C   0  0  0  0  0  0  0  0  0  0  0  0
   -2.3173    2.7422    0.0000 C   0  0  0  0  0  0  0  0  0  0  0  0
   -4.8777    1.1786    0.0000 C   0  0  0  0  0  0  0  0  0  0  0  0
   -2.8157    0.6802    0.0000 C   0  0  0  0  0  0  0  0  0  0  0  0
   -1.3162    0.7172    0.0000 C   0  0  0  0  0  0  0  0  0  0  0  0
   -0.5344   -0.5629    0.0000 C   0  0  0  0  0  0  0  0  0  0  0  0
    0.9652   -0.5260    0.0000 C   0  0  0  0  0  0  0  0  0  0  0  0
    1.7470   -1.8061    0.0000 C   0  0  0  0  0  0  0  0  0  0  0  0
    3.2465   -1.7691    0.0000 O   0  0  0  0  0  0  0  0  0  0  0  0
    3.9643   -0.4520    0.0000 C   0  0  0  0  0  0  0  0  0  0  0  0
    5.4638   -0.4150    0.0000 C   0  0  0  0  0  0  0  0  0  0  0  0
    6.1816    0.9021    0.0000 C   0  0  0  0  0  0  0  0  0  0  0  0
    7.6811    0.9391    0.0000 O   0  0  0  0  0  0  0  0  0  0  0  0
    5.3998    2.1823    0.0000 C   0  0  0  0  0  0  0  0  0  0  0  0
    3.9002    2.1453    0.0000 C   0  0  0  0  0  0  0  0  0  0  0  0
    3.1825    0.8282    0.0000 C   0  0  0  0  0  0  0  0  0  0  0  0
    1.6829    0.7912    0.0000 C   0  0  0  0  0  0  0  0  0  0  0  0
   -1.2521   -1.8801    0.0000 C   0  0  0  0  0  0  0  0  0  0  0  0
   -0.4703   -3.1602    0.0000 O   0  0  0  0  0  0  0  0  0  0  0  0
   -1.1881   -4.4774    0.0000 C   0  0  0  0  0  0  0  0  0  0  0  0
   -2.7517   -1.9170    0.0000 C   0  0  0  0  0  0  0  0  0  0  0  0
   -3.4694   -3.2342    0.0000 O   0  0  0  0  0  0  0  0  0  0  0  0
   -3.5335   -0.6369    0.0000 C   0  0  0  0  0  0  0  0  0  0  0  0
   -5.0330   -0.6739    0.0000 O   0  0  0  0  0  0  0  0  0  0  0  0
  1  2  2  0
  2  3  1  0
  3  4  1  0
  3  5  1  0
  3  6  1  0
  6  7  2  0
  7  8  1  0
  9  8  1  1
  9 10  1  0
 10 11  1  0
 11 12  1  0
 12 13  2  0
 13 14  1  0
 14 15  1  0
 14 16  2  0
 16 17  1  0
 17 18  2  0
 18 19  1  0
  8 20  2  0
 20 21  1  0
 21 22  1  0
 20 23  1  0
 23 24  1  0
 23 25  2  0
 25 26  1  0
 25  6  1  0
 19  9  1  0
 18 12  1  0
M  END
>  <identifier>  (622) 
CNP0167796.1

>  <canonical_smiles>  (622) 
C=CC(C)(C)C1=CC([C@@H]2COC3=CC(O)=CC=C3C2)=C(OC)C(O)=C1O

>  <standard_inchi>  (622) 
InChI=1S/C21H24O5/c1-5-21(2,3)16-10-15(20(25-4)19(24)18(16)23)13-8-12-6-7-14(22)9-17(12)26-11-13/h5-7,9-10,13,22-24H,1,8,11H2,2-4H3/t13-/m0/s1

>  <standard_inchi_key>  (622) 
MJNMCRGAYOIQTB-ZDUSSCGKSA-N

>  <name>  (622) 
nan

>  <iupac_name>  (622) 
6-(1,1-dimethylallyl)-4-[(3~{R})-7-hydroxychroman-3-yl]-3-methoxy-benzene-1,2-diol

>  <annotation_level>  (622) 
5

>  <total_atom_count>  (622) 
50

>  <heavy_atom_count>  (622) 
26

>  <molecular_weight>  (622) 
356.42

>  <exact_molecular_weight>  (622) 
356.16237

>  <molecular_formula>  (622) 
C21H24O5

>  <alogp>  (622) 
3.99

>  <topological_polar_surface_area>  (622) 
79.15

>  <rotatable_bond_count>  (622) 
4

>  <hydrogen_bond_acceptors>  (622) 
5

>  <hydrogen_bond_donors>  (622) 
3

>  <hydrogen_bond_acceptors_lipinski>  (622) 
5

>  <hydrogen_bond_donors_lipinski>  (622) 
3

>  <lipinski_rule_of_five_violations>  (622) 
0

>  <aromatic_rings_count>  (622) 
2

>  <qed_drug_likeliness>  (622) 
0.57

>  <formal_charge>  (622) 
0

>  <fractioncsp3>  (622) 
0.33

>  <number_of_minimal_rings>  (622) 
3

>  <van_der_walls_volume>  (622) 
328.23

>  <contains_sugar>  (622) 
False

>  <contains_ring_sugars>  (622) 
False

>  <contains_linear_sugars>  (622) 
False

>  <murcko_framework>  (622) 
O1c2ccccc2CC(c3ccccc3)C1

>  <np_likeness>  (622) 
1.93

>  <chemical_class>  (622) 
Isoflavonoids

>  <chemical_sub_class>  (622) 
O-methylated isoflavonoids

>  <chemical_super_class>  (622) 
Phenylpropanoids and polyketides

>  <direct_parent_classification>  (622) 
2'-O-methylated isoflavonoids

>  <np_classifier_pathway>  (622) 
Shikimates and Phenylpropanoids

>  <np_classifier_superclass>  (622) 
Isoflavonoids

>  <np_classifier_class>  (622) 
Pterocarpan

>  <np_classifier_is_glycoside>  (622) 
False

>  <organisms>  (622) 
Cyclolobium brasiliense|Cyclolobium clausseni|Cyclolobium claussenii

>  <collections>  (622) 
KNApSaCK|Latin America dataset|NuBBEDB|WikiData Natural Products|ZINC NP

>  <dois>  (622) 
10.1016/0031-9422(75)80372-4

>  <synonyms>  (622) 
(3R)-\u221a\u00e9\u00ac\u00b1\u221a\u00e9\u00ac\u00b1-Dimethylallylcyclolobin|alpha,alpha-dimethylallylcyclolobin

>  <cas>  (622) 
nan

$$$$

     RDKit          2D

 18 20  0  0  0  0  0  0  0  0999 V2000
   -0.3573    2.2953    0.0000 C   0  0  0  0  0  0  0  0  0  0  0  0
    0.2346    0.9170    0.0000 N   0  0  0  0  0  0  0  0  0  0  0  0
   -0.6631   -0.2848    0.0000 C   0  0  0  0  0  0  0  0  0  0  0  0
   -2.1527   -0.1082    0.0000 C   0  0  0  0  0  0  0  0  0  0  0  0
   -2.7446    1.2701    0.0000 C   0  0  0  0  0  0  0  0  0  0  0  0
   -4.2341    1.4467    0.0000 C   0  0  0  0  0  0  0  0  0  0  0  0
   -5.1318    0.2450    0.0000 C   0  0  0  0  0  0  0  0  0  0  0  0
   -4.5400   -1.1333    0.0000 C   0  0  0  0  0  0  0  0  0  0  0  0
   -3.0504   -1.3099    0.0000 C   0  0  0  0  0  0  0  0  0  0  0  0
   -0.0713   -1.6631    0.0000 C   0  0  0  0  0  0  0  0  0  0  0  0
    1.4183   -1.8396    0.0000 C   0  0  0  0  0  0  0  0  0  0  0  0
    2.0101   -3.2180    0.0000 O   0  0  0  0  0  0  0  0  0  0  0  0
    2.3160   -0.6379    0.0000 C   0  0  0  0  0  0  0  0  0  0  0  0
    3.8056   -0.8145    0.0000 C   0  0  0  0  0  0  0  0  0  0  0  0
    4.7033    0.3872    0.0000 C   0  0  0  0  0  0  0  0  0  0  0  0
    4.1114    1.7655    0.0000 C   0  0  0  0  0  0  0  0  0  0  0  0
    2.6219    1.9421    0.0000 C   0  0  0  0  0  0  0  0  0  0  0  0
    1.7242    0.7404    0.0000 C   0  0  0  0  0  0  0  0  0  0  0  0
  1  2  1  0
  2  3  1  0
  3  4  1  0
  4  5  2  0
  5  6  1  0
  6  7  2  0
  7  8  1  0
  8  9  2  0
  3 10  2  0
 10 11  1  0
 11 12  2  0
 11 13  1  0
 13 14  2  0
 14 15  1  0
 15 16  2  0
 16 17  1  0
 17 18  2  0
 18  2  1  0
  9  4  1  0
 18 13  1  0
M  END
>  <identifier>  (623) 
CNP0115094.0

>  <canonical_smiles>  (623) 
CN1C(C2=CC=CC=C2)=CC(=O)C2=CC=CC=C21

>  <standard_inchi>  (623) 
InChI=1S/C16H13NO/c1-17-14-10-6-5-9-13(14)16(18)11-15(17)12-7-3-2-4-8-12/h2-11H,1H3

>  <standard_inchi_key>  (623) 
AFKNCQDBTBDPOQ-UHFFFAOYSA-N

>  <name>  (623) 
1-Methyl-2-phenyl-4(1H)-quinolinone

>  <iupac_name>  (623) 
1-methyl-2-phenyl-quinolin-4-one

>  <annotation_level>  (623) 
5

>  <total_atom_count>  (623) 
31

>  <heavy_atom_count>  (623) 
18

>  <molecular_weight>  (623) 
235.29

>  <exact_molecular_weight>  (623) 
235.09971

>  <molecular_formula>  (623) 
C16H13NO

>  <alogp>  (623) 
3.21

>  <topological_polar_surface_area>  (623) 
22.00

>  <rotatable_bond_count>  (623) 
1

>  <hydrogen_bond_acceptors>  (623) 
2

>  <hydrogen_bond_donors>  (623) 
0

>  <hydrogen_bond_acceptors_lipinski>  (623) 
2

>  <hydrogen_bond_donors_lipinski>  (623) 
0

>  <lipinski_rule_of_five_violations>  (623) 
0

>  <aromatic_rings_count>  (623) 
3

>  <qed_drug_likeliness>  (623) 
0.63

>  <formal_charge>  (623) 
0

>  <fractioncsp3>  (623) 
0.06

>  <number_of_minimal_rings>  (623) 
3

>  <van_der_walls_volume>  (623) 
216.15

>  <contains_sugar>  (623) 
False

>  <contains_ring_sugars>  (623) 
False

>  <contains_linear_sugars>  (623) 
False

>  <murcko_framework>  (623) 
c1ccc(cc1)C2=CCc3ccccc3N2

>  <np_likeness>  (623) 
-0.14

>  <chemical_class>  (623) 
Quinolines and derivatives

>  <chemical_sub_class>  (623) 
Phenylquinolines

>  <chemical_super_class>  (623) 
Organoheterocyclic compounds

>  <direct_parent_classification>  (623) 
Phenylquinolines

>  <np_classifier_pathway>  (623) 
Alkaloids

>  <np_classifier_superclass>  (623) 
Tryptophan alkaloids

>  <np_classifier_class>  (623) 
Quinoline alkaloids

>  <np_classifier_is_glycoside>  (623) 
False

>  <organisms>  (623) 
Alpinia officinarum|Amomum reticulatum|Ascodesmis sphaerospora|Balfourodendron riedelianum|Caralluma russeliana|Casimiroa edulis|Conchocarpus inopinatus|Dalbergia monetaria|Espeletiopsis purpurascens|Evea brasiliensis|Gracilaria eucheumoides|Grosvenoria rimbachii|Haplophyllum griffithianum|Helianthus californicus|Imperata cylindrica|Lactarius fuliginosus|Melipotis perpendicularis|Persicaria tinctoria|Plectranthus hereroensis|Polypodium aureum|Pycnarrhena australiana|Sickingia rubra|Spatoglossum pacificum|Spiraea prunifolia|Spiranthera odoratissima|Spiranthera odoratissima St. odoratissima|Uresiphita reversalis|Ursinia anthemoides|Vernonia chloropappa|White sapote

>  <collections>  (623) 
CMAUP (cCollective molecular activities of useful plants)|InterBioScreen Ltd|Latin America dataset|NPASS|NuBBEDB|PubChem NPs|Super Natural II|UNPD (Universal Natural Products Database)|WikiData Natural Products|ZINC NP

>  <dois>  (623) 
10.1007/BF00567776|10.1007/BF00574586|10.1007/S10600-010-9661-Y|10.1021/JA01501A068|10.1021/JO01273A049|10.1021/NP50037A032|10.1590/S0100-40422012001100006|10.1590/S0103-50532010000500016

>  <synonyms>  (623) 
1-methyl-2-phenylquinolin-4-one|17182-60-4|4(1H)-Quinolinone, 1-methyl-2-phenyl-|AB00086152-01|AFKNCQDBTBDPOQ-UHFFFAOYSA-|AG-690\/36831010|AKOS021643824|BDBM50044965|CCG-202819|CHEMBL277048|Cambridge id 5471783|DTXSID50169171|HMS2503K09|InChI=1\/C16H13NO\/c1-17-14-10-6-5-9-13(14)16(18)11-15(17)12-7-3-2-4-8-12\/h2-11H,1H3|MLS000106879|Oprea1_072190|Oprea1_817692|SCHEMBL9386193|SMR000111255|STL443728

>  <cas>  (623) 
17182-60-4

$$$$

     RDKit          2D

 18 20  0  0  0  0  0  0  0  0999 V2000
   -3.5493   -2.5466    0.0000 C   0  0  0  0  0  0  0  0  0  0  0  0
   -2.0535   -2.4338    0.0000 O   0  0  0  0  0  0  0  0  0  0  0  0
   -1.4034   -1.0820    0.0000 C   0  0  0  0  0  0  0  0  0  0  0  0
   -2.2490    0.1569    0.0000 C   0  0  0  0  0  0  0  0  0  0  0  0
   -3.7355    0.3575    0.0000 C   0  0  0  0  0  0  0  0  0  0  0  0
   -4.0041    1.8333    0.0000 C   0  0  0  0  0  0  0  0  0  0  0  0
   -2.6836    2.5448    0.0000 O   0  0  0  0  0  0  0  0  0  0  0  0
   -1.5989    1.5087    0.0000 C   0  0  0  0  0  0  0  0  0  0  0  0
   -0.1031    1.6216    0.0000 N   0  0  0  0  0  0  0  0  0  0  0  0
    0.7425    0.3827    0.0000 C   0  0  0  0  0  0  0  0  0  0  0  0
    2.2382    0.4955    0.0000 C   0  0  0  0  0  0  0  0  0  0  0  0
    2.8884    1.8473    0.0000 O   0  0  0  0  0  0  0  0  0  0  0  0
    4.3841    1.9602    0.0000 C   0  0  0  0  0  0  0  0  0  0  0  0
    3.0838   -0.7434    0.0000 C   0  0  0  0  0  0  0  0  0  0  0  0
    4.5796   -0.6305    0.0000 O   0  0  0  0  0  0  0  0  0  0  0  0
    2.4337   -2.0952    0.0000 C   0  0  0  0  0  0  0  0  0  0  0  0
    0.9380   -2.2080    0.0000 C   0  0  0  0  0  0  0  0  0  0  0  0
    0.0923   -0.9691    0.0000 C   0  0  0  0  0  0  0  0  0  0  0  0
  1  2  1  0
  2  3  1  0
  3  4  2  0
  4  5  1  0
  5  6  2  0
  6  7  1  0
  7  8  1  0
  8  9  2  0
  9 10  1  0
 10 11  2  0
 11 12  1  0
 12 13  1  0
 11 14  1  0
 14 15  1  0
 14 16  2  0
 16 17  1  0
 17 18  2  0
 18  3  1  0
  8  4  1  0
 18 10  1  0
M  END
>  <identifier>  (624) 
CNP0289815.0

>  <canonical_smiles>  (624) 
COC1=C2C=COC2=NC2=C(OC)C(O)=CC=C12

>  <standard_inchi>  (624) 
InChI=1S/C13H11NO4/c1-16-11-7-3-4-9(15)12(17-2)10(7)14-13-8(11)5-6-18-13/h3-6,15H,1-2H3

>  <standard_inchi_key>  (624) 
LJKPBWHZRNQEMO-UHFFFAOYSA-N

>  <name>  (624) 
Haplopine

>  <iupac_name>  (624) 
4,8-dimethoxyfuro[2,3-b]quinolin-7-ol

>  <annotation_level>  (624) 
5

>  <total_atom_count>  (624) 
29

>  <heavy_atom_count>  (624) 
18

>  <molecular_weight>  (624) 
245.23

>  <exact_molecular_weight>  (624) 
245.06881

>  <molecular_formula>  (624) 
C13H11NO4

>  <alogp>  (624) 
2.70

>  <topological_polar_surface_area>  (624) 
64.72

>  <rotatable_bond_count>  (624) 
2

>  <hydrogen_bond_acceptors>  (624) 
5

>  <hydrogen_bond_donors>  (624) 
1

>  <hydrogen_bond_acceptors_lipinski>  (624) 
5

>  <hydrogen_bond_donors_lipinski>  (624) 
1

>  <lipinski_rule_of_five_violations>  (624) 
0

>  <aromatic_rings_count>  (624) 
3

>  <qed_drug_likeliness>  (624) 
0.75

>  <formal_charge>  (624) 
0

>  <fractioncsp3>  (624) 
0.15

>  <number_of_minimal_rings>  (624) 
3

>  <van_der_walls_volume>  (624) 
207.66

>  <contains_sugar>  (624) 
False

>  <contains_ring_sugars>  (624) 
False

>  <contains_linear_sugars>  (624) 
False

>  <murcko_framework>  (624) 
n1c2occc2cc3ccccc13

>  <np_likeness>  (624) 
1.33

>  <chemical_class>  (624) 
Quinolines and derivatives

>  <chemical_sub_class>  (624) 
Furanoquinolines

>  <chemical_super_class>  (624) 
Organoheterocyclic compounds

>  <direct_parent_classification>  (624) 
Furanoquinolines

>  <np_classifier_pathway>  (624) 
Alkaloids

>  <np_classifier_superclass>  (624) 
Tryptophan alkaloids

>  <np_classifier_class>  (624) 
Quinoline alkaloids

>  <np_classifier_is_glycoside>  (624) 
False

>  <organisms>  (624) 
Acronychia laurifolia|Agave deserti|Ageratina saltillensis|Aglaia pyramidata|Asclepias subulata|Celastrus monospermus|Conium maculatum|Dictamnus dasycarpus|Dutaillyea|Dysidea villosa|Esenbeckia hartmanii|Eutrochium purpureum|Geijera balansae|Glycosmis pentaphylla|Grewia villosa|Haplophyllum|Haplophyllum acutifolium|Haplophyllum bucharicum|Haplophyllum bucharicum Litv.|Haplophyllum cappadocicum|Haplophyllum dauricum|Haplophyllum ferganicum|Haplophyllum latifolium|Haplophyllum obtusifolium|Haplophyllum patavinum|Haplophyllum pedicellatum|Haplophyllum ramosissimum|Haplophyllum robustum|Haplophyllum thesioides|Haplophyllum vulcanicum|Helietta|Hortonia floribunda|Hosta sieboldiana|Inula salsoloides|Jacobaea cannabifolia|Lactarius subpiperatus|Melicope confusa|Melicope lasioneura|Melicope semecarpifolia|Monnieria trifolia|Morinda coreia|Notechis scutatus|Oricia suaveolens|Parmelia zollingeri|Passiflora morifolia|Plakortis simplex|Salta triflora|Salvia polystachya|Schrebera swietenoides|Senecio gilliesi|Skimmia reevesiana|Solanum spirale|Sophora leachiana|Streptomyces chryseus|Talipariti tiliaceum|Tephrosia bidwilli|Thielavia terricola|Toddalia asiatica|Trifolium montanum|Vepris suaveolens|Vernonia lilacina|Xanthoria parietina|Zanthoxylum ailanthoides|Zanthoxylum asiaticum|Zanthoxylum beecheyanum|Zanthoxylum cuspidatum|Zanthoxylum integrifoliolum|Zanthoxylum nitidum|Zanthoxylum rhoifolium|Zanthoxylum simulans

>  <collections>  (624) 
AfroCancer|Australian natural products|CMAUP (cCollective molecular activities of useful plants)|ChEBI NPs|ConMedNP|GNPS (Global Natural Products Social Molecular Networking)|KNApSaCK|Latin America dataset|NPASS|NPEdia|NuBBEDB|Phyto4Health|PubChem NPs|Super Natural II|TCMDB-Taiwan (Traditional Chinese Medicine database)|TIPdb (database of Taiwan indigenous plants)|UNPD (Universal Natural Products Database)|WikiData Natural Products|ZINC NP

>  <dois>  (624) 
10.1002/JCCS.200400159|10.1002/JPS.2600650420|10.1002/RCM.3045|10.1007/BF00563974|10.1007/BF00566989|10.1007/BF00567161|10.1007/BF00574794|10.1007/BF00574827|10.1007/BF00576100|10.1007/BF00579669|10.1007/BF00596693|10.1007/BF00630180|10.1007/BF00937619|10.1007/BF02238348|10.1007/BF02323307|10.1007/BF02857699|10.1016/0031-9422(92)80236-8|10.1016/0031-9422(92)83302-F|10.1016/0031-9422(95)00457-I|10.1016/0031-9422(96)00062-3|10.1016/0305-1978(92)90104-L|10.1016/J.BMC.2005.07.050|10.1016/J.JEP.2005.11.001|10.1016/S0031-9422(00)84814-1|10.1016/S0031-9422(00)97045-6|10.1016/S0031-9422(02)00268-6|10.1016/S0031-9422(97)00541-4|10.1016/S0031-9422(97)00542-6|10.1016/S0031-9422(97)00678-X|10.1016/j.phytol.2016.08.015|10.1021/NP010122K|10.1021/NP070186G|10.1021/NP50041A009|10.1021/NP800276F|10.1021/np070186g|10.1021/np800276f|10.1055/S-2002-34412|10.1055/S-2003-40637|10.1080/10575630290019985|10.1080/10575639308050059

>  <synonyms>  (624) 
4,8-Dimethoxyfuro[2,3-b]quinolin-7-ol; 7-Hydroxy-8-methoxydictamnine|4,8-dimethoxy-furo[2,3-b]quinolin-7-ol, AldrichCPR|4,8-dimethoxyfuro[2,3-b]quinolin-7-ol|5876-17-5|AC1L4WKL|AKOS000635187|AKOS032948939|BDBM50480294|BDBM50486609|CHEBI:5620|CHEMBL400257|CHEMBL455007|CS-0024574|DTXSID30974280|E88897|EVOXINE_met025|FS-8605|Furo(2,3-b)quinolin-7-ol, 4,8-dimethoxy-|Furo[2,3-b]quinoline, 4,8-dimethoxy-7-hydroxy-|HMS1550C21|HMS2270N15|HMS3561H11|HY-N3989|Haplopine|Heliparvifoline|MLS001049015|NS00094215|Oprea1_182538|Oprea1_418227|Q27106828|SCHEMBL15263337|SCHEMBL23494234|SMR000387023|STK762192|TimTec1_005697|haplopine

>  <cas>  (624) 
5876-17-5

$$$$

     RDKit          2D

 22 24  0  0  0  0  0  0  0  0999 V2000
   -4.9872    2.7908    0.0000 C   0  0  0  0  0  0  0  0  0  0  0  0
   -4.4806    1.3790    0.0000 O   0  0  0  0  0  0  0  0  0  0  0  0
   -3.0045    1.1119    0.0000 C   0  0  0  0  0  0  0  0  0  0  0  0
   -2.0352    2.2566    0.0000 C   0  0  0  0  0  0  0  0  0  0  0  0
   -0.5592    1.9895    0.0000 C   0  0  0  0  0  0  0  0  0  0  0  0
   -0.0525    0.5776    0.0000 C   0  0  0  0  0  0  0  0  0  0  0  0
    1.4235    0.3105    0.0000 C   0  0  0  0  0  0  0  0  0  0  0  0
    1.9302   -1.1013    0.0000 C   0  0  0  0  0  0  0  0  0  0  0  0
    3.4063   -1.3684    0.0000 C   0  0  0  0  0  0  0  0  0  0  0  0
    4.3756   -0.2237    0.0000 C   0  0  0  0  0  0  0  0  0  0  0  0
    3.8689    1.1881    0.0000 C   0  0  0  0  0  0  0  0  0  0  0  0
    3.8757    2.6881    0.0000 C   0  0  0  0  0  0  0  0  0  0  0  0
    5.3473    1.4420    0.0000 C   0  0  0  0  0  0  0  0  0  0  0  0
    2.3929    1.4552    0.0000 O   0  0  0  0  0  0  0  0  0  0  0  0
    0.9609   -2.2460    0.0000 C   0  0  0  0  0  0  0  0  0  0  0  0
    1.4676   -3.6579    0.0000 O   0  0  0  0  0  0  0  0  0  0  0  0
   -0.5151   -1.9789    0.0000 N   0  0  0  0  0  0  0  0  0  0  0  0
   -1.4845   -3.1236    0.0000 C   0  0  0  0  0  0  0  0  0  0  0  0
   -1.0218   -0.5671    0.0000 C   0  0  0  0  0  0  0  0  0  0  0  0
   -2.4978   -0.3000    0.0000 C   0  0  0  0  0  0  0  0  0  0  0  0
   -3.4672   -1.4447    0.0000 O   0  0  0  0  0  0  0  0  0  0  0  0
   -4.9432   -1.1776    0.0000 C   0  0  0  0  0  0  0  0  0  0  0  0
  1  2  1  0
  2  3  1  0
  3  4  2  0
  4  5  1  0
  5  6  2  0
  6  7  1  0
  7  8  2  0
  8  9  1  0
  9 10  2  0
 10 11  1  0
 11 12  1  0
 11 13  1  0
 11 14  1  0
  8 15  1  0
 15 16  2  0
 15 17  1  0
 17 18  1  0
 17 19  1  0
 19 20  2  0
 20 21  1  0
 21 22  1  0
 20  3  1  0
 19  6  1  0
 14  7  1  0
M  END
>  <identifier>  (625) 
CNP0162973.0

>  <canonical_smiles>  (625) 
COC1=CC=C2C3=C(C=CC(C)(C)O3)C(=O)N(C)C2=C1OC

>  <standard_inchi>  (625) 
InChI=1S/C17H19NO4/c1-17(2)9-8-11-14(22-17)10-6-7-12(20-4)15(21-5)13(10)18(3)16(11)19/h6-9H,1-5H3

>  <standard_inchi_key>  (625) 
DWZSQRJGZJNUEK-UHFFFAOYSA-N

>  <name>  (625) 
VEPRISINE

>  <iupac_name>  (625) 
7,8-dimethoxy-2,2,6-trimethyl-pyrano[3,2-c]quinolin-5-one

>  <annotation_level>  (625) 
5

>  <total_atom_count>  (625) 
41

>  <heavy_atom_count>  (625) 
22

>  <molecular_weight>  (625) 
301.34

>  <exact_molecular_weight>  (625) 
301.13141

>  <molecular_formula>  (625) 
C17H19NO4

>  <alogp>  (625) 
2.74

>  <topological_polar_surface_area>  (625) 
49.69

>  <rotatable_bond_count>  (625) 
2

>  <hydrogen_bond_acceptors>  (625) 
5

>  <hydrogen_bond_donors>  (625) 
0

>  <hydrogen_bond_acceptors_lipinski>  (625) 
5

>  <hydrogen_bond_donors_lipinski>  (625) 
0

>  <lipinski_rule_of_five_violations>  (625) 
0

>  <aromatic_rings_count>  (625) 
2

>  <qed_drug_likeliness>  (625) 
0.86

>  <formal_charge>  (625) 
0

>  <fractioncsp3>  (625) 
0.35

>  <number_of_minimal_rings>  (625) 
3

>  <van_der_walls_volume>  (625) 
271.42

>  <contains_sugar>  (625) 
False

>  <contains_ring_sugars>  (625) 
False

>  <contains_linear_sugars>  (625) 
False

>  <murcko_framework>  (625) 
O1C=2c3ccccc3NCC2C=CC1

>  <np_likeness>  (625) 
1.99

>  <chemical_class>  (625) 
Quinolines and derivatives

>  <chemical_sub_class>  (625) 
Quinolones and derivatives

>  <chemical_super_class>  (625) 
Organoheterocyclic compounds

>  <direct_parent_classification>  (625) 
Pyranoquinolines

>  <np_classifier_pathway>  (625) 
Alkaloids

>  <np_classifier_superclass>  (625) 
Tryptophan alkaloids

>  <np_classifier_class>  (625) 
Quinoline alkaloids

>  <np_classifier_is_glycoside>  (625) 
False

>  <organisms>  (625) 
Euxylophora paraensis|Geijera balansae|Oricia renieri|Rauia resinosa|Stauranthus perforatus|Vepris glomerata|Vepris louisii|Vepris renieri|Vepris soyauxii|Vepris stolzii|Zanthoxylum simulans

>  <collections>  (625) 
ANPDB|ConMedNP|KNApSaCK|Latin America dataset|NANPDB (Natural Products from Northern African Sources)|NuBBEDB|Super Natural II|TIPdb (database of Taiwan indigenous plants)|UNPD (Universal Natural Products Database)|WikiData Natural Products|ZINC NP

>  <dois>  (625) 
10.1002/CHIN.200352211|10.1002/PCA.687|10.1016/0031-9422(81)85282-X|10.1016/0031-9422(82)83109-9|10.1016/S0040-4039(00)78670-9|10.1021/NP50021A017|10.1021/NP50041A009|10.1055/S-2000-8595|10.1071/CH9811625|10.1590/S0100-40422010001000024

>  <synonyms>  (625) 
4H-1-benzopyran-4-one, 2, 3-dihydro-5- hydroxy-2-(4'-methoxy-3'-hydroxybenzyl)-7-O-(2-methyl butanol) ether|76525-26-3|CHEMBL21801|DTXSID00320710|NCI60_003332|NSC363785|Veprisine|veprisine|veprisinol

>  <cas>  (625) 
76525-26-3

$$$$

     RDKit          2D

 14 15  0  0  0  0  0  0  0  0999 V2000
   -3.9387   -1.3104    0.0000 C   0  0  0  0  0  0  0  0  0  0  0  0
   -2.4391   -1.3415    0.0000 O   0  0  0  0  0  0  0  0  0  0  0  0
   -1.6623   -0.0583    0.0000 C   0  0  0  0  0  0  0  0  0  0  0  0
   -2.3852    1.2560    0.0000 C   0  0  0  0  0  0  0  0  0  0  0  0
   -1.6084    2.5392    0.0000 C   0  0  0  0  0  0  0  0  0  0  0  0
   -0.1087    2.5081    0.0000 C   0  0  0  0  0  0  0  0  0  0  0  0
    0.6142    1.1938    0.0000 C   0  0  0  0  0  0  0  0  0  0  0  0
   -0.1626   -0.0894    0.0000 C   0  0  0  0  0  0  0  0  0  0  0  0
    0.5603   -1.4037    0.0000 C   0  0  0  0  0  0  0  0  0  0  0  0
   -0.2165   -2.6870    0.0000 O   0  0  0  0  0  0  0  0  0  0  0  0
    2.0600   -1.4349    0.0000 C   0  0  0  0  0  0  0  0  0  0  0  0
    2.8368   -0.1517    0.0000 C   0  0  0  0  0  0  0  0  0  0  0  0
    4.3364   -0.1828    0.0000 C   0  0  0  0  0  0  0  0  0  0  0  0
    2.1139    1.1627    0.0000 O   0  0  0  0  0  0  0  0  0  0  0  0
  1  2  1  0
  2  3  1  0
  3  4  2  0
  4  5  1  0
  5  6  2  0
  6  7  1  0
  7  8  2  0
  8  9  1  0
  9 10  2  0
  9 11  1  0
 11 12  2  0
 12 13  1  0
 12 14  1  0
  8  3  1  0
 14  7  1  0
M  END
>  <identifier>  (626) 
CNP0110447.0

>  <canonical_smiles>  (626) 
COC1=CC=CC2=C1C(=O)C=C(C)O2

>  <standard_inchi>  (626) 
InChI=1S/C11H10O3/c1-7-6-8(12)11-9(13-2)4-3-5-10(11)14-7/h3-6H,1-2H3

>  <standard_inchi_key>  (626) 
VMYWMHRGHYPDRO-UHFFFAOYSA-N

>  <name>  (626) 
5-Methoxy-2-methyl-4H-chromen-4-one

>  <iupac_name>  (626) 
5-methoxy-2-methyl-chromen-4-one

>  <annotation_level>  (626) 
5

>  <total_atom_count>  (626) 
24

>  <heavy_atom_count>  (626) 
14

>  <molecular_weight>  (626) 
190.2

>  <exact_molecular_weight>  (626) 
190.06299

>  <molecular_formula>  (626) 
C11H10O3

>  <alogp>  (626) 
2.11

>  <topological_polar_surface_area>  (626) 
39.44

>  <rotatable_bond_count>  (626) 
1

>  <hydrogen_bond_acceptors>  (626) 
3

>  <hydrogen_bond_donors>  (626) 
0

>  <hydrogen_bond_acceptors_lipinski>  (626) 
3

>  <hydrogen_bond_donors_lipinski>  (626) 
0

>  <lipinski_rule_of_five_violations>  (626) 
0

>  <aromatic_rings_count>  (626) 
2

>  <qed_drug_likeliness>  (626) 
0.69

>  <formal_charge>  (626) 
0

>  <fractioncsp3>  (626) 
0.18

>  <number_of_minimal_rings>  (626) 
2

>  <van_der_walls_volume>  (626) 
168.44

>  <contains_sugar>  (626) 
False

>  <contains_ring_sugars>  (626) 
False

>  <contains_linear_sugars>  (626) 
False

>  <murcko_framework>  (626) 
O1C=CCc2ccccc12

>  <np_likeness>  (626) 
0.81

>  <chemical_class>  (626) 
Benzopyrans

>  <chemical_sub_class>  (626) 
1-benzopyrans

>  <chemical_super_class>  (626) 
Organoheterocyclic compounds

>  <direct_parent_classification>  (626) 
Chromones

>  <np_classifier_pathway>  (626) 
Polyketides

>  <np_classifier_superclass>  (626) 
Chromanes

>  <np_classifier_class>  (626) 
Chromones

>  <np_classifier_is_glycoside>  (626) 
False

>  <organisms>  (626) 
Curvularia|Curvularia sp.|Ocotea corymbosa

>  <collections>  (626) 
ChemSpider NPs|Latin America dataset|Marine Natural Products|NPAtlas|NuBBEDB|Super Natural II|UNPD (Universal Natural Products Database)|WikiData Natural Products|ZINC NP

>  <dois>  (626) 
10.1016/J.PHYTOCHEM.2005.04.043|10.1016/j.phytochem.2005.04.043

>  <synonyms>  (626) 
2-methyl-5-methoxy-benzopyran-4-one|22105-23-3|5-METHOXY-2-METHYLCHROMEN-4-ONE|5-methoxy-2-methylchromone|CHEBI:208262|CHEMBL177850|DB-124018|DTXSID50470597|SCHEMBL9976085

>  <cas>  (626) 
22105-23-3

$$$$

     RDKit          2D

 26 28  0  0  0  0  0  0  0  0999 V2000
   -6.5739    3.4009    0.0000 C   0  0  0  0  0  0  0  0  0  0  0  0
   -6.6060    1.9012    0.0000 O   0  0  0  0  0  0  0  0  0  0  0  0
   -5.3232    1.1236    0.0000 C   0  0  0  0  0  0  0  0  0  0  0  0
   -4.0085    1.8457    0.0000 C   0  0  0  0  0  0  0  0  0  0  0  0
   -2.7258    1.0681    0.0000 C   0  0  0  0  0  0  0  0  0  0  0  0
   -2.7578   -0.4315    0.0000 C   0  0  0  0  0  0  0  0  0  0  0  0
   -1.4751   -1.2091    0.0000 C   0  0  0  0  0  0  0  0  0  0  0  0
   -1.5072   -2.7088    0.0000 O   0  0  0  0  0  0  0  0  0  0  0  0
   -0.1603   -0.4871    0.0000 C   0  0  0  0  0  0  0  0  0  0  0  0
    1.1224   -1.2647    0.0000 C   0  0  0  0  0  0  0  0  0  0  0  0
    2.4371   -0.5426    0.0000 C   0  0  0  0  0  0  0  0  0  0  0  0
    3.7199   -1.3202    0.0000 C   0  0  0  0  0  0  0  0  0  0  0  0
    5.0346   -0.5981    0.0000 C   0  0  0  0  0  0  0  0  0  0  0  0
    6.3173   -1.3757    0.0000 O   0  0  0  0  0  0  0  0  0  0  0  0
    6.2853   -2.8754    0.0000 C   0  0  0  0  0  0  0  0  0  0  0  0
    5.0667    0.9015    0.0000 C   0  0  0  0  0  0  0  0  0  0  0  0
    6.3815    1.6236    0.0000 O   0  0  0  0  0  0  0  0  0  0  0  0
    6.4135    3.1233    0.0000 C   0  0  0  0  0  0  0  0  0  0  0  0
    3.7840    1.6791    0.0000 C   0  0  0  0  0  0  0  0  0  0  0  0
    2.4692    0.9571    0.0000 C   0  0  0  0  0  0  0  0  0  0  0  0
    1.1865    1.7347    0.0000 C   0  0  0  0  0  0  0  0  0  0  0  0
   -0.1283    1.0126    0.0000 O   0  0  0  0  0  0  0  0  0  0  0  0
   -4.0726   -1.1536    0.0000 C   0  0  0  0  0  0  0  0  0  0  0  0
   -4.1046   -2.6533    0.0000 O   0  0  0  0  0  0  0  0  0  0  0  0
   -5.4194   -3.3753    0.0000 C   0  0  0  0  0  0  0  0  0  0  0  0
   -5.3553   -0.3760    0.0000 C   0  0  0  0  0  0  0  0  0  0  0  0
  1  2  1  0
  2  3  1  0
  3  4  2  0
  4  5  1  0
  5  6  2  0
  6  7  1  0
  7  8  2  0
  7  9  1  0
  9 10  2  0
 10 11  1  0
 11 12  2  0
 12 13  1  0
 13 14  1  0
 14 15  1  0
 13 16  2  0
 16 17  1  0
 17 18  1  0
 16 19  1  0
 19 20  2  0
 20 21  1  0
 21 22  1  0
  6 23  1  0
 23 24  1  0
 24 25  1  0
 23 26  2  0
 26  3  1  0
 22  9  1  0
 20 11  1  0
M  END
>  <identifier>  (627) 
CNP0233831.0

>  <canonical_smiles>  (627) 
COC1=CC=C(C(=O)C2=CC3=CC(OC)=C(OC)C=C3CO2)C(OC)=C1

>  <standard_inchi>  (627) 
InChI=1S/C20H20O6/c1-22-14-5-6-15(16(10-14)23-2)20(21)19-8-12-7-17(24-3)18(25-4)9-13(12)11-26-19/h5-10H,11H2,1-4H3

>  <standard_inchi_key>  (627) 
QILGYKLDMADCHK-UHFFFAOYSA-N

>  <name>  (627) 
nan

>  <iupac_name>  (627) 
(6,7-dimethoxy-1~{H}-isochromen-3-yl)-(2,4-dimethoxyphenyl)methanone

>  <annotation_level>  (627) 
3

>  <total_atom_count>  (627) 
46

>  <heavy_atom_count>  (627) 
26

>  <molecular_weight>  (627) 
356.37

>  <exact_molecular_weight>  (627) 
356.12599

>  <molecular_formula>  (627) 
C20H20O6

>  <alogp>  (627) 
3.48

>  <topological_polar_surface_area>  (627) 
63.22

>  <rotatable_bond_count>  (627) 
6

>  <hydrogen_bond_acceptors>  (627) 
6

>  <hydrogen_bond_donors>  (627) 
0

>  <hydrogen_bond_acceptors_lipinski>  (627) 
6

>  <hydrogen_bond_donors_lipinski>  (627) 
0

>  <lipinski_rule_of_five_violations>  (627) 
0

>  <aromatic_rings_count>  (627) 
2

>  <qed_drug_likeliness>  (627) 
0.74

>  <formal_charge>  (627) 
0

>  <fractioncsp3>  (627) 
0.25

>  <number_of_minimal_rings>  (627) 
3

>  <van_der_walls_volume>  (627) 
nan

>  <contains_sugar>  (627) 
False

>  <contains_ring_sugars>  (627) 
False

>  <contains_linear_sugars>  (627) 
False

>  <murcko_framework>  (627) 
O1C(=Cc2ccccc2C1)Cc3ccccc3

>  <np_likeness>  (627) 
0.25

>  <chemical_class>  (627) 
Benzopyrans

>  <chemical_sub_class>  (627) 
2-benzopyrans

>  <chemical_super_class>  (627) 
Organoheterocyclic compounds

>  <direct_parent_classification>  (627) 
2-benzopyrans

>  <np_classifier_pathway>  (627) 
Polyketides

>  <np_classifier_superclass>  (627) 
nan

>  <np_classifier_class>  (627) 
nan

>  <np_classifier_is_glycoside>  (627) 
False

>  <organisms>  (627) 
Acacia carneorum|Goniorrhachis marginata

>  <collections>  (627) 
Latin America dataset|NuBBEDB|UNPD (Universal Natural Products Database)|WikiData Natural Products|ZINC NP

>  <dois>  (627) 
10.1016/0031-9422(74)80106-8|10.1039/P19810000514

>  <synonyms>  (627) 
nan

>  <cas>  (627) 
nan

$$$$

     RDKit          2D

 33 35  0  0  0  0  0  0  0  0999 V2000
   -6.0029   -4.2752    0.0000 C   0  0  0  0  0  0  0  0  0  0  0  0
   -5.0074   -3.1531    0.0000 C   0  0  0  0  0  0  0  0  0  0  0  0
   -5.4815   -1.7300    0.0000 O   0  0  0  0  0  0  0  0  0  0  0  0
   -4.4860   -0.6079    0.0000 C   0  0  0  0  0  0  0  0  0  0  0  0
   -3.0165   -0.9089    0.0000 C   0  0  0  0  0  0  0  0  0  0  0  0
   -2.0211    0.2131    0.0000 C   0  0  0  0  0  0  0  0  0  0  0  0
   -0.5516   -0.0879    0.0000 C   0  0  0  0  0  0  0  0  0  0  0  0
   -0.0776   -1.5110    0.0000 C   0  0  0  0  0  0  0  0  0  0  0  0
   -1.0730   -2.6331    0.0000 O   0  0  0  0  0  0  0  0  0  0  0  0
   -2.5425   -2.3321    0.0000 C   0  0  0  0  0  0  0  0  0  0  0  0
    1.3919   -1.8121    0.0000 C   0  0  0  0  0  0  0  0  0  0  0  0
    1.8659   -3.2352    0.0000 O   0  0  0  0  0  0  0  0  0  0  0  0
    2.3874   -0.6900    0.0000 C   0  0  0  0  0  0  0  0  0  0  0  0
    3.8568   -0.9911    0.0000 C   0  0  0  0  0  0  0  0  0  0  0  0
    4.3309   -2.4142    0.0000 O   0  0  0  0  0  0  0  0  0  0  0  0
    5.8003   -2.7152    0.0000 C   0  0  0  0  0  0  0  0  0  0  0  0
    4.8523    0.1310    0.0000 C   0  0  0  0  0  0  0  0  0  0  0  0
    6.3218   -0.1700    0.0000 O   0  0  0  0  0  0  0  0  0  0  0  0
    6.7958   -1.5932    0.0000 C   0  0  0  0  0  0  0  0  0  0  0  0
    4.3783    1.5542    0.0000 C   0  0  0  0  0  0  0  0  0  0  0  0
    5.3737    2.6762    0.0000 O   0  0  0  0  0  0  0  0  0  0  0  0
    6.8432    2.3752    0.0000 C   0  0  0  0  0  0  0  0  0  0  0  0
    2.9088    1.8552    0.0000 C   0  0  0  0  0  0  0  0  0  0  0  0
    1.9133    0.7331    0.0000 C   0  0  0  0  0  0  0  0  0  0  0  0
    0.4439    1.0342    0.0000 O   0  0  0  0  0  0  0  0  0  0  0  0
   -2.4951    1.6363    0.0000 C   0  0  0  0  0  0  0  0  0  0  0  0
   -1.4996    2.7584    0.0000 O   0  0  0  0  0  0  0  0  0  0  0  0
   -1.9737    4.1815    0.0000 C   0  0  0  0  0  0  0  0  0  0  0  0
   -0.9782    5.3036    0.0000 C   0  0  0  0  0  0  0  0  0  0  0  0
   -3.9646    1.9373    0.0000 C   0  0  0  0  0  0  0  0  0  0  0  0
   -4.9600    0.8152    0.0000 C   0  0  0  0  0  0  0  0  0  0  0  0
   -6.4295    1.1163    0.0000 O   0  0  0  0  0  0  0  0  0  0  0  0
   -6.9035    2.5394    0.0000 C   0  0  0  0  0  0  0  0  0  0  0  0
  1  2  1  0
  2  3  1  0
  3  4  1  0
  4  5  2  0
  5  6  1  0
  6  7  1  0
  7  8  2  0
  8  9  1  0
  9 10  1  0
  8 11  1  0
 11 12  2  0
 11 13  1  0
 13 14  2  0
 14 15  1  0
 15 16  1  0
 14 17  1  0
 17 18  1  0
 18 19  1  0
 17 20  2  0
 20 21  1  0
 21 22  1  0
 20 23  1  0
 23 24  2  0
 24 25  1  0
  6 26  2  0
 26 27  1  0
 27 28  1  0
 28 29  1  0
 26 30  1  0
 30 31  2  0
 31 32  1  0
 32 33  1  0
 31  4  1  0
 25  7  1  0
 24 13  1  0
M  END
>  <identifier>  (628) 
CNP0103741.0

>  <canonical_smiles>  (628) 
CCOC1=CC(C2=C(OC)C(=O)C3=C(OC)C(OC)=C(OC)C=C3O2)=C(OCC)C=C1OC

>  <standard_inchi>  (628) 
InChI=1S/C24H28O9/c1-8-31-14-11-15(26-3)16(32-9-2)10-13(14)21-24(30-7)20(25)19-17(33-21)12-18(27-4)22(28-5)23(19)29-6/h10-12H,8-9H2,1-7H3

>  <standard_inchi_key>  (628) 
DWJHDJUITMDDQG-UHFFFAOYSA-N

>  <name>  (628) 
2',5'-diethoxy-3,5,6,7,4'-pentamethoxyflavone

>  <iupac_name>  (628) 
2-(2,5-diethoxy-4-methoxy-phenyl)-3,5,6,7-tetramethoxy-chromen-4-one

>  <annotation_level>  (628) 
5

>  <total_atom_count>  (628) 
61

>  <heavy_atom_count>  (628) 
33

>  <molecular_weight>  (628) 
460.48

>  <exact_molecular_weight>  (628) 
460.17333

>  <molecular_formula>  (628) 
C24H28O9

>  <alogp>  (628) 
4.30

>  <topological_polar_surface_area>  (628) 
94.82

>  <rotatable_bond_count>  (628) 
10

>  <hydrogen_bond_acceptors>  (628) 
9

>  <hydrogen_bond_donors>  (628) 
0

>  <hydrogen_bond_acceptors_lipinski>  (628) 
9

>  <hydrogen_bond_donors_lipinski>  (628) 
0

>  <lipinski_rule_of_five_violations>  (628) 
0

>  <aromatic_rings_count>  (628) 
3

>  <qed_drug_likeliness>  (628) 
0.44

>  <formal_charge>  (628) 
0

>  <fractioncsp3>  (628) 
0.38

>  <number_of_minimal_rings>  (628) 
3

>  <van_der_walls_volume>  (628) 
nan

>  <contains_sugar>  (628) 
False

>  <contains_ring_sugars>  (628) 
False

>  <contains_linear_sugars>  (628) 
False

>  <murcko_framework>  (628) 
O1c2ccccc2CC=C1c3ccccc3

>  <np_likeness>  (628) 
0.68

>  <chemical_class>  (628) 
Flavonoids

>  <chemical_sub_class>  (628) 
O-methylated flavonoids

>  <chemical_super_class>  (628) 
Phenylpropanoids and polyketides

>  <direct_parent_classification>  (628) 
6-O-methylated flavonoids

>  <np_classifier_pathway>  (628) 
Shikimates and Phenylpropanoids

>  <np_classifier_superclass>  (628) 
Flavonoids

>  <np_classifier_class>  (628) 
Flavonols

>  <np_classifier_is_glycoside>  (628) 
False

>  <organisms>  (628) 
Apuleia leiocarpa

>  <collections>  (628) 
Latin America dataset|NuBBEDB|WikiData Natural Products|ZINC NP

>  <dois>  (628) 
10.1016/S0031-9422(00)89891-X

>  <synonyms>  (628) 
Apulein diethyl ether

>  <cas>  (628) 
nan

$$$$

     RDKit          2D

 15 17  0  0  0  0  0  0  0  0999 V2000
   -4.7785   -0.0795    0.0000 C   0  0  0  0  0  0  0  0  0  0  0  0
   -3.3080    0.2168    0.0000 C   0  0  0  0  0  0  0  0  0  0  0  0
   -2.8294    1.6384    0.0000 C   0  0  0  0  0  0  0  0  0  0  0  0
   -1.3590    1.9347    0.0000 C   0  0  0  0  0  0  0  0  0  0  0  0
   -0.3671    0.8095    0.0000 C   0  0  0  0  0  0  0  0  0  0  0  0
    1.1033    1.1058    0.0000 C   0  0  0  0  0  0  0  0  0  0  0  0
    2.0951   -0.0195    0.0000 C   0  0  0  0  0  0  0  0  0  0  0  0
    3.5656    0.2768    0.0000 C   0  0  0  0  0  0  0  0  0  0  0  0
    4.5574   -0.8485    0.0000 C   0  0  0  0  0  0  0  0  0  0  0  0
    4.0442    1.6984    0.0000 C   0  0  0  0  0  0  0  0  0  0  0  0
    1.6165   -1.4411    0.0000 C   0  0  0  0  0  0  0  0  0  0  0  0
    0.1461   -1.7374    0.0000 C   0  0  0  0  0  0  0  0  0  0  0  0
   -0.8457   -0.6121    0.0000 C   0  0  0  0  0  0  0  0  0  0  0  0
   -1.3243   -2.0337    0.0000 C   0  0  0  0  0  0  0  0  0  0  0  0
   -2.3162   -0.9085    0.0000 C   0  0  0  0  0  0  0  0  0  0  0  0
  1  2  1  0
  2  3  2  0
  3  4  1  0
  5  4  1  6
  5  6  1  0
  6  7  1  0
  7  8  1  1
  8  9  1  0
  8 10  1  0
  7 11  1  0
 11 12  1  0
 12 13  1  0
 13 14  1  1
 13 15  1  0
 15  2  1  0
 13  5  1  0
 15  6  1  6
M  END
>  <identifier>  (629) 
CNP0246337.16

>  <canonical_smiles>  (629) 
CC1=CC[C@@H]2C3[C@@H](C(C)C)CC[C@]2(C)[C@@H]13

>  <standard_inchi>  (629) 
InChI=1S/C15H24/c1-9(2)11-7-8-15(4)12-6-5-10(3)14(15)13(11)12/h5,9,11-14H,6-8H2,1-4H3/t11-,12-,13?,14+,15+/m1/s1

>  <standard_inchi_key>  (629) 
VLXDPFLIRFYIME-XQYPFIQKSA-N

>  <name>  (629) 
nan

>  <iupac_name>  (629) 
(1~{S},2~{R},6~{R},8~{R})-8-isopropyl-1,3-dimethyl-tricyclo[4.4.0.0^{2,7}]dec-3-ene

>  <annotation_level>  (629) 
4

>  <total_atom_count>  (629) 
39

>  <heavy_atom_count>  (629) 
15

>  <molecular_weight>  (629) 
204.36

>  <exact_molecular_weight>  (629) 
204.1878

>  <molecular_formula>  (629) 
C15H24

>  <alogp>  (629) 
4.27

>  <topological_polar_surface_area>  (629) 
0.00

>  <rotatable_bond_count>  (629) 
1

>  <hydrogen_bond_acceptors>  (629) 
0

>  <hydrogen_bond_donors>  (629) 
0

>  <hydrogen_bond_acceptors_lipinski>  (629) 
0

>  <hydrogen_bond_donors_lipinski>  (629) 
0

>  <lipinski_rule_of_five_violations>  (629) 
0

>  <aromatic_rings_count>  (629) 
0

>  <qed_drug_likeliness>  (629) 
0.56

>  <formal_charge>  (629) 
0

>  <fractioncsp3>  (629) 
0.87

>  <number_of_minimal_rings>  (629) 
4

>  <van_der_walls_volume>  (629) 
nan

>  <contains_sugar>  (629) 
False

>  <contains_ring_sugars>  (629) 
False

>  <contains_linear_sugars>  (629) 
False

>  <murcko_framework>  (629) 
C1=CC2C3CCCC2C3C1

>  <np_likeness>  (629) 
3.17

>  <chemical_class>  (629) 
Prenol lipids

>  <chemical_sub_class>  (629) 
Sesquiterpenoids

>  <chemical_super_class>  (629) 
Lipids and lipid-like molecules

>  <direct_parent_classification>  (629) 
Sesquiterpenoids

>  <np_classifier_pathway>  (629) 
Terpenoids

>  <np_classifier_superclass>  (629) 
Sesquiterpenoids

>  <np_classifier_class>  (629) 
Copaane sesquiterpenoids

>  <np_classifier_is_glycoside>  (629) 
False

>  <organisms>  (629) 
Cedrela fissilis

>  <collections>  (629) 
Latin America dataset|NuBBEDB|WikiData Natural Products

>  <dois>  (629) 
10.1590/S0103-50532000000600012

>  <synonyms>  (629) 
\u221a\u00e9\u00ac\u00b1-Ylangene

>  <cas>  (629) 
nan

$$$$

     RDKit          2D

 25 28  0  0  0  0  0  0  0  0999 V2000
   -1.0450    4.6334    0.0000 C   0  0  0  0  0  0  0  0  0  0  0  0
   -1.0851    3.1339    0.0000 C   0  0  0  0  0  0  0  0  0  0  0  0
   -2.4037    2.4189    0.0000 C   0  0  0  0  0  0  0  0  0  0  0  0
   -3.6822    3.2034    0.0000 O   0  0  0  0  0  0  0  0  0  0  0  0
   -2.4438    0.9194    0.0000 C   0  0  0  0  0  0  0  0  0  0  0  0
   -1.1652    0.1350    0.0000 C   0  0  0  0  0  0  0  0  0  0  0  0
   -1.2053   -1.3645    0.0000 C   0  0  0  0  0  0  0  0  0  0  0  0
   -2.5240   -2.0795    0.0000 C   0  0  0  0  0  0  0  0  0  0  0  0
   -2.8749   -3.5378    0.0000 O   0  0  0  0  0  0  0  0  0  0  0  0
   -4.3704   -3.6547    0.0000 C   0  0  0  0  0  0  0  0  0  0  0  0
   -4.9436   -2.2686    0.0000 O   0  0  0  0  0  0  0  0  0  0  0  0
   -3.8025   -1.2950    0.0000 C   0  0  0  0  0  0  0  0  0  0  0  0
   -3.7624    0.2044    0.0000 C   0  0  0  0  0  0  0  0  0  0  0  0
    0.1935    2.3495    0.0000 C   0  0  0  0  0  0  0  0  0  0  0  0
    1.5121    3.0645    0.0000 C   0  0  0  0  0  0  0  0  0  0  0  0
    0.1534    0.8500    0.0000 C   0  0  0  0  0  0  0  0  0  0  0  0
    1.4319    0.0655    0.0000 C   0  0  0  0  0  0  0  0  0  0  0  0
    1.3918   -1.4339    0.0000 C   0  0  0  0  0  0  0  0  0  0  0  0
    2.6703   -2.2184    0.0000 C   0  0  0  0  0  0  0  0  0  0  0  0
    3.9890   -1.5034    0.0000 C   0  0  0  0  0  0  0  0  0  0  0  0
    5.4026   -2.0049    0.0000 O   0  0  0  0  0  0  0  0  0  0  0  0
    6.3164   -0.8153    0.0000 C   0  0  0  0  0  0  0  0  0  0  0  0
    5.4675    0.4213    0.0000 O   0  0  0  0  0  0  0  0  0  0  0  0
    4.0290   -0.0039    0.0000 C   0  0  0  0  0  0  0  0  0  0  0  0
    2.7505    0.7806    0.0000 C   0  0  0  0  0  0  0  0  0  0  0  0
  2  1  1  1
  2  3  1  0
  3  4  2  0
  3  5  1  0
  5  6  2  0
  6  7  1  0
  7  8  2  0
  8  9  1  0
  9 10  1  0
 10 11  1  0
 11 12  1  0
 12 13  2  0
  2 14  1  0
 14 15  1  1
 14 16  1  0
 16 17  1  0
 17 18  2  0
 18 19  1  0
 19 20  2  0
 20 21  1  0
 21 22  1  0
 22 23  1  0
 23 24  1  0
 24 25  2  0
 13  5  1  0
 25 17  1  0
 12  8  1  0
 24 20  1  0
M  END
>  <identifier>  (630) 
CNP0308713.1

>  <canonical_smiles>  (630) 
C[C@H](C(=O)C1=CC=C2OCOC2=C1)[C@@H](C)CC1=CC=C2OCOC2=C1

>  <standard_inchi>  (630) 
InChI=1S/C20H20O5/c1-12(7-14-3-5-16-18(8-14)24-10-22-16)13(2)20(21)15-4-6-17-19(9-15)25-11-23-17/h3-6,8-9,12-13H,7,10-11H2,1-2H3/t12-,13-/m0/s1

>  <standard_inchi_key>  (630) 
CQXBMXDDWLNDQB-STQMWFEESA-N

>  <name>  (630) 
nan

>  <iupac_name>  (630) 
(2~{S},3~{S})-1,4-bis(1,3-benzodioxol-5-yl)-2,3-dimethyl-butan-1-one

>  <annotation_level>  (630) 
4

>  <total_atom_count>  (630) 
45

>  <heavy_atom_count>  (630) 
25

>  <molecular_weight>  (630) 
340.38

>  <exact_molecular_weight>  (630) 
340.13107

>  <molecular_formula>  (630) 
C20H20O5

>  <alogp>  (630) 
3.84

>  <topological_polar_surface_area>  (630) 
53.99

>  <rotatable_bond_count>  (630) 
5

>  <hydrogen_bond_acceptors>  (630) 
5

>  <hydrogen_bond_donors>  (630) 
0

>  <hydrogen_bond_acceptors_lipinski>  (630) 
5

>  <hydrogen_bond_donors_lipinski>  (630) 
0

>  <lipinski_rule_of_five_violations>  (630) 
0

>  <aromatic_rings_count>  (630) 
2

>  <qed_drug_likeliness>  (630) 
0.77

>  <formal_charge>  (630) 
0

>  <fractioncsp3>  (630) 
0.35

>  <number_of_minimal_rings>  (630) 
4

>  <van_der_walls_volume>  (630) 
nan

>  <contains_sugar>  (630) 
False

>  <contains_ring_sugars>  (630) 
False

>  <contains_linear_sugars>  (630) 
False

>  <murcko_framework>  (630) 
O1c2ccc(cc2OC1)CCCCc3ccc4OCOc4c3

>  <np_likeness>  (630) 
0.37

>  <chemical_class>  (630) 
Dibenzylbutane lignans

>  <chemical_sub_class>  (630) 
Dibenzylbutane lignans

>  <chemical_super_class>  (630) 
Lignans, neolignans and related compounds

>  <direct_parent_classification>  (630) 
Dibenzylbutane lignans

>  <np_classifier_pathway>  (630) 
Shikimates and Phenylpropanoids

>  <np_classifier_superclass>  (630) 
Lignans

>  <np_classifier_class>  (630) 
Dibenzylbutane lignans

>  <np_classifier_is_glycoside>  (630) 
False

>  <organisms>  (630) 
Nectandra puberula

>  <collections>  (630) 
Latin America dataset|NuBBEDB|WikiData Natural Products|ZINC NP

>  <dois>  (630) 
10.1016/S0031-9422(00)81526-5

>  <synonyms>  (630) 
(8S8'R)-343'4'-Dimethylenedioxy-7-oxo-88'-neolignan

>  <cas>  (630) 
nan

$$$$

     RDKit          2D

 54 58  0  0  0  0  0  0  0  0999 V2000
   -6.0061    3.3850    0.0000 C   0  0  0  0  0  0  0  0  0  0  0  0
   -4.5179    3.1975    0.0000 C   0  0  0  0  0  0  0  0  0  0  0  0
   -3.7638    4.4942    0.0000 O   0  0  0  0  0  0  0  0  0  0  0  0
   -3.9361    1.8149    0.0000 O   0  0  0  0  0  0  0  0  0  0  0  0
   -2.4479    1.6274    0.0000 C   0  0  0  0  0  0  0  0  0  0  0  0
   -1.8661    0.2449    0.0000 C   0  0  0  0  0  0  0  0  0  0  0  0
   -2.7726   -0.9503    0.0000 C   0  0  0  0  0  0  0  0  0  0  0  0
   -4.2609   -0.7628    0.0000 O   0  0  0  0  0  0  0  0  0  0  0  0
   -5.1674   -1.9579    0.0000 C   0  0  0  0  0  0  0  0  0  0  0  0
   -6.6556   -1.7704    0.0000 C   0  0  0  0  0  0  0  0  0  0  0  0
   -4.5856   -3.3405    0.0000 O   0  0  0  0  0  0  0  0  0  0  0  0
   -2.1909   -2.3328    0.0000 C   0  0  0  0  0  0  0  0  0  0  0  0
   -3.0974   -3.5280    0.0000 O   0  0  0  0  0  0  0  0  0  0  0  0
   -2.5156   -4.9106    0.0000 C   0  0  0  0  0  0  0  0  0  0  0  0
   -3.4221   -6.1057    0.0000 C   0  0  0  0  0  0  0  0  0  0  0  0
   -1.0274   -5.0980    0.0000 O   0  0  0  0  0  0  0  0  0  0  0  0
   -0.7026   -2.5203    0.0000 C   0  0  0  0  0  0  0  0  0  0  0  0
   -1.2867   -1.1387    0.0000 C   0  0  0  0  0  0  0  0  0  0  0  0
   -2.7478   -0.7992    0.0000 O   0  0  0  0  0  0  0  0  0  0  0  0
   -3.7724   -1.8947    0.0000 C   0  0  0  0  0  0  0  0  0  0  0  0
   -5.2722   -1.9188    0.0000 C   0  0  0  0  0  0  0  0  0  0  0  0
   -3.6961   -3.3928    0.0000 O   0  0  0  0  0  0  0  0  0  0  0  0
   -0.3471    0.3022    0.0000 C   0  0  0  0  0  0  0  0  0  0  0  0
   -0.0850   -1.1748    0.0000 O   0  0  0  0  0  0  0  0  0  0  0  0
    0.7918   -2.3918    0.0000 C   0  0  0  0  0  0  0  0  0  0  0  0
   -0.1995   -3.5175    0.0000 C   0  0  0  0  0  0  0  0  0  0  0  0
    2.1099   -3.1078    0.0000 C   0  0  0  0  0  0  0  0  0  0  0  0
    3.6081   -3.1810    0.0000 O   0  0  0  0  0  0  0  0  0  0  0  0
    4.9897   -2.5969    0.0000 C   0  0  0  0  0  0  0  0  0  0  0  0
    5.8666   -3.8139    0.0000 O   0  0  0  0  0  0  0  0  0  0  0  0
    5.9811   -1.4712    0.0000 C   0  0  0  0  0  0  0  0  0  0  0  0
    7.0296   -2.5439    0.0000 C   0  0  0  0  0  0  0  0  0  0  0  0
    8.4828   -2.1722    0.0000 C   0  0  0  0  0  0  0  0  0  0  0  0
    8.8875   -0.7279    0.0000 C   0  0  0  0  0  0  0  0  0  0  0  0
    7.8391    0.3448    0.0000 N   0  0  0  0  0  0  0  0  0  0  0  0
    6.3858   -0.0268    0.0000 C   0  0  0  0  0  0  0  0  0  0  0  0
    6.1238    1.4501    0.0000 C   0  0  0  0  0  0  0  0  0  0  0  0
    7.5054    2.0342    0.0000 C   0  0  0  0  0  0  0  0  0  0  0  0
    5.2469    2.6671    0.0000 C   0  0  0  0  0  0  0  0  0  0  0  0
    6.2383    3.7928    0.0000 C   0  0  0  0  0  0  0  0  0  0  0  0
    3.9289    3.3831    0.0000 C   0  0  0  0  0  0  0  0  0  0  0  0
    4.3336    4.8275    0.0000 O   0  0  0  0  0  0  0  0  0  0  0  0
    2.4306    3.4563    0.0000 O   0  0  0  0  0  0  0  0  0  0  0  0
    1.0490    2.8722    0.0000 C   0  0  0  0  0  0  0  0  0  0  0  0
   -1.0645    2.7162    0.0000 C   0  0  0  0  0  0  0  0  0  0  0  0
   -1.3770    4.1832    0.0000 O   0  0  0  0  0  0  0  0  0  0  0  0
   -2.1787    1.7119    0.0000 C   0  0  0  0  0  0  0  0  0  0  0  0
   -3.6055    2.1748    0.0000 O   0  0  0  0  0  0  0  0  0  0  0  0
   -3.9181    3.6418    0.0000 C   0  0  0  0  0  0  0  0  0  0  0  0
   -5.3449    4.1047    0.0000 C   0  0  0  0  0  0  0  0  0  0  0  0
   -2.6898    4.5028    0.0000 O   0  0  0  0  0  0  0  0  0  0  0  0
    0.0577    1.7465    0.0000 C   0  0  0  0  0  0  0  0  0  0  0  0
   -1.4347    1.5956    0.0000 C   0  0  0  0  0  0  0  0  0  0  0  0
   -0.9305    2.8750    0.0000 O   0  0  0  0  0  0  0  0  0  0  0  0
  1  2  1  0
  2  3  2  0
  2  4  1  0
  4  5  1  0
  6  5  1  1
  6  7  1  0
  7  8  1  1
  8  9  1  0
  9 10  1  0
  9 11  2  0
  7 12  1  0
 12 13  1  1
 13 14  1  0
 14 15  1  0
 14 16  2  0
 12 17  1  0
 17 18  1  1
 18 19  1  0
 19 20  1  0
 20 21  1  0
 20 22  2  0
 18 23  1  0
 23 24  1  6
 24 25  1  0
 25 26  1  6
 25 27  1  0
 27 28  1  0
 28 29  1  0
 29 30  2  0
 29 31  1  0
 31 32  2  0
 32 33  1  0
 33 34  2  0
 34 35  1  0
 35 36  2  0
 36 37  1  0
 37 38  1  0
 37 39  1  0
 39 40  1  0
 39 41  1  0
 41 42  2  0
 41 43  1  0
 44 43  1  6
 44 45  1  0
 45 46  1  1
 45 47  1  0
 47 48  1  1
 48 49  1  0
 49 50  1  0
 49 51  2  0
 44 52  1  0
 52 53  1  6
 52 54  1  0
 23  6  1  0
 36 31  1  0
 47  6  1  0
 25 17  1  0
 52 23  1  0
M  END
>  <identifier>  (631) 
CNP0188823.3

>  <canonical_smiles>  (631) 
CC(=O)OC[C@]12[C@H](OC(C)=O)[C@H](OC(C)=O)[C@@H]3C(OC(C)=O)[C@@]14O[C@@]3(C)COC(=O)C1=CC=CN=C1C(C)C(C)C(=O)O[C@@H]([C@H](O)[C@@H]2OC(C)=O)[C@]4(C)O

>  <standard_inchi>  (631) 
InChI=1S/C36H45NO17/c1-15-16(2)31(44)53-28-25(43)29(51-20(6)41)35(14-47-17(3)38)30(52-21(7)42)26(49-18(4)39)23-27(50-19(5)40)36(35,34(28,9)46)54-33(23,8)13-48-32(45)22-11-10-12-37-24(15)22/h10-12,15-16,23,25-30,43,46H,13-14H2,1-9H3/t15?,16?,23-,25+,26-,27?,28+,29+,30-,33+,34+,35+,36+/m1/s1

>  <standard_inchi_key>  (631) 
VWRGSMDCPWKKRO-PZRNIPAKSA-N

>  <name>  (631) 
nan

>  <iupac_name>  (631) 
[(1~{S},3~{R},17~{S},18~{R},19~{R},20~{S},21~{S},22~{R},23~{R},25~{S})-19,21,22,24-tetraacetoxy-18,25-dihydroxy-3,13,14,25-tetramethyl-6,15-dioxo-2,5,16-trioxa-11-azapentacyclo[15.7.1.0^{1,20}.0^{3,23}.0^{7,12}]pentacosa-7,9,11-trien-20-yl]methyl acetate

>  <annotation_level>  (631) 
4

>  <total_atom_count>  (631) 
99

>  <heavy_atom_count>  (631) 
54

>  <molecular_weight>  (631) 
763.75

>  <exact_molecular_weight>  (631) 
763.26875

>  <molecular_formula>  (631) 
C36H45NO17

>  <alogp>  (631) 
0.46

>  <topological_polar_surface_area>  (631) 
246.68

>  <rotatable_bond_count>  (631) 
6

>  <hydrogen_bond_acceptors>  (631) 
18

>  <hydrogen_bond_donors>  (631) 
2

>  <hydrogen_bond_acceptors_lipinski>  (631) 
18

>  <hydrogen_bond_donors_lipinski>  (631) 
2

>  <lipinski_rule_of_five_violations>  (631) 
2

>  <aromatic_rings_count>  (631) 
1

>  <qed_drug_likeliness>  (631) 
0.30

>  <formal_charge>  (631) 
0

>  <fractioncsp3>  (631) 
0.67

>  <number_of_minimal_rings>  (631) 
5

>  <van_der_walls_volume>  (631) 
nan

>  <contains_sugar>  (631) 
False

>  <contains_ring_sugars>  (631) 
False

>  <contains_linear_sugars>  (631) 
False

>  <murcko_framework>  (631) 
n1cccc2c1CCCOC3CCC4CCC5CC4(OC5COC2)C3

>  <np_likeness>  (631) 
1.98

>  <chemical_class>  (631) 
nan

>  <chemical_sub_class>  (631) 
Alkaloids and derivatives

>  <chemical_super_class>  (631) 
Alkaloids and derivatives

>  <direct_parent_classification>  (631) 
Alkaloids and derivatives

>  <np_classifier_pathway>  (631) 
Alkaloids

>  <np_classifier_superclass>  (631) 
Nicotinic acid alkaloids

>  <np_classifier_class>  (631) 
Agarofuran sesquiterpenoids

>  <np_classifier_is_glycoside>  (631) 
False

>  <organisms>  (631) 
Peritassa campestris

>  <collections>  (631) 
Latin America dataset|NuBBEDB

>  <dois>  (631) 
10.1016/S0031-9422(01)00315-6

>  <synonyms>  (631) 
4-hydroxy-7-epi-chuchuhuanine E-V

>  <cas>  (631) 
nan

$$$$

     RDKit          2D

 34 38  0  0  0  0  0  0  0  0999 V2000
  -10.9398    0.8195    0.0000 O   0  0  0  0  0  0  0  0  0  0  0  0
   -9.4683    0.5288    0.0000 C   0  0  0  0  0  0  0  0  0  0  0  0
   -8.4807    1.6578    0.0000 C   0  0  0  0  0  0  0  0  0  0  0  0
   -7.0091    1.3671    0.0000 C   0  0  0  0  0  0  0  0  0  0  0  0
   -6.5252   -0.0527    0.0000 C   0  0  0  0  0  0  0  0  0  0  0  0
   -5.0536   -0.3434    0.0000 C   0  0  0  0  0  0  0  0  0  0  0  0
   -4.0660    0.7856    0.0000 C   0  0  0  0  0  0  0  0  0  0  0  0
   -2.5945    0.4948    0.0000 C   0  0  0  0  0  0  0  0  0  0  0  0
   -2.1105   -0.9249    0.0000 C   0  0  0  0  0  0  0  0  0  0  0  0
   -0.6389   -1.2157    0.0000 C   0  0  0  0  0  0  0  0  0  0  0  0
   -0.1550   -2.6355    0.0000 O   0  0  0  0  0  0  0  0  0  0  0  0
    0.3486   -0.0867    0.0000 C   0  0  0  0  0  0  0  0  0  0  0  0
   -0.1354    1.3331    0.0000 C   0  0  0  0  0  0  0  0  0  0  0  0
   -1.6069    1.6239    0.0000 C   0  0  0  0  0  0  0  0  0  0  0  0
    1.0654    2.2321    0.0000 O   0  0  0  0  0  0  0  0  0  0  0  0
    2.2914    1.3680    0.0000 C   0  0  0  0  0  0  0  0  0  0  0  0
    3.7112    1.8520    0.0000 C   0  0  0  0  0  0  0  0  0  0  0  0
    4.8403    0.8644    0.0000 C   0  0  0  0  0  0  0  0  0  0  0  0
    6.2600    1.3484    0.0000 C   0  0  0  0  0  0  0  0  0  0  0  0
    6.5508    2.8199    0.0000 C   0  0  0  0  0  0  0  0  0  0  0  0
    7.9705    3.3039    0.0000 O   0  0  0  0  0  0  0  0  0  0  0  0
    5.4217    3.8075    0.0000 C   0  0  0  0  0  0  0  0  0  0  0  0
    4.0020    3.3235    0.0000 C   0  0  0  0  0  0  0  0  0  0  0  0
    1.8485   -0.0651    0.0000 C   0  0  0  0  0  0  0  0  0  0  0  0
    2.7475   -1.2658    0.0000 C   0  0  0  0  0  0  0  0  0  0  0  0
    2.1572   -2.6448    0.0000 C   0  0  0  0  0  0  0  0  0  0  0  0
    3.0562   -3.8455    0.0000 C   0  0  0  0  0  0  0  0  0  0  0  0
    2.4658   -5.2244    0.0000 O   0  0  0  0  0  0  0  0  0  0  0  0
    4.5456   -3.6673    0.0000 C   0  0  0  0  0  0  0  0  0  0  0  0
    5.1359   -2.2883    0.0000 C   0  0  0  0  0  0  0  0  0  0  0  0
    6.6253   -2.1101    0.0000 O   0  0  0  0  0  0  0  0  0  0  0  0
    4.2369   -1.0876    0.0000 C   0  0  0  0  0  0  0  0  0  0  0  0
   -7.5127   -1.1817    0.0000 C   0  0  0  0  0  0  0  0  0  0  0  0
   -8.9843   -0.8910    0.0000 C   0  0  0  0  0  0  0  0  0  0  0  0
  1  2  1  0
  2  3  2  0
  3  4  1  0
  4  5  2  0
  5  6  1  0
  6  7  2  0
  7  8  1  0
  8  9  2  0
  9 10  1  0
 10 11  1  0
 10 12  2  0
 12 13  1  0
 13 14  2  0
 13 15  1  0
 15 16  1  0
 16 17  1  1
 17 18  2  0
 18 19  1  0
 19 20  2  0
 20 21  1  0
 20 22  1  0
 22 23  2  0
 16 24  1  0
 24 25  1  6
 25 26  2  0
 26 27  1  0
 27 28  1  0
 27 29  2  0
 29 30  1  0
 30 31  1  0
 30 32  2  0
  5 33  1  0
 33 34  2  0
 34  2  1  0
 14  8  1  0
 23 17  1  0
 32 25  1  0
 24 12  1  0
M  END
>  <identifier>  (632) 
CNP0214126.2

>  <canonical_smiles>  (632) 
OC1=CC=C(/C=C/C2=CC(O)=C3C(=C2)O[C@@H](C2=CC=C(O)C=C2)[C@@H]3C2=CC(O)=CC(O)=C2)C=C1

>  <standard_inchi>  (632) 
InChI=1S/C28H22O6/c29-20-7-3-16(4-8-20)1-2-17-11-24(33)27-25(12-17)34-28(18-5-9-21(30)10-6-18)26(27)19-13-22(31)15-23(32)14-19/h1-15,26,28-33H/b2-1+/t26-,28+/m1/s1

>  <standard_inchi_key>  (632) 
KVGHRSAHESCTFR-PXXWLXOCSA-N

>  <name>  (632) 
84870-54-2

>  <iupac_name>  (632) 
5-[(2~{R},3~{R})-4-hydroxy-2-(4-hydroxyphenyl)-6-[(~{E})-2-(4-hydroxyphenyl)vinyl]-2,3-dihydrobenzofuran-3-yl]benzene-1,3-diol

>  <annotation_level>  (632) 
5

>  <total_atom_count>  (632) 
56

>  <heavy_atom_count>  (632) 
34

>  <molecular_weight>  (632) 
454.48

>  <exact_molecular_weight>  (632) 
454.14164

>  <molecular_formula>  (632) 
C28H22O6

>  <alogp>  (632) 
5.65

>  <topological_polar_surface_area>  (632) 
110.38

>  <rotatable_bond_count>  (632) 
4

>  <hydrogen_bond_acceptors>  (632) 
6

>  <hydrogen_bond_donors>  (632) 
5

>  <hydrogen_bond_acceptors_lipinski>  (632) 
6

>  <hydrogen_bond_donors_lipinski>  (632) 
5

>  <lipinski_rule_of_five_violations>  (632) 
1

>  <aromatic_rings_count>  (632) 
4

>  <qed_drug_likeliness>  (632) 
0.25

>  <formal_charge>  (632) 
0

>  <fractioncsp3>  (632) 
0.07

>  <number_of_minimal_rings>  (632) 
5

>  <van_der_walls_volume>  (632) 
nan

>  <contains_sugar>  (632) 
False

>  <contains_ring_sugars>  (632) 
False

>  <contains_linear_sugars>  (632) 
False

>  <murcko_framework>  (632) 
O1c2cc(C=Cc3ccccc3)ccc2C(c4ccccc4)C1c5ccccc5

>  <np_likeness>  (632) 
1.29

>  <chemical_class>  (632) 
2-arylbenzofuran flavonoids

>  <chemical_sub_class>  (632) 
2-arylbenzofuran flavonoids

>  <chemical_super_class>  (632) 
Phenylpropanoids and polyketides

>  <direct_parent_classification>  (632) 
2-arylbenzofuran flavonoids

>  <np_classifier_pathway>  (632) 
Shikimates and Phenylpropanoids

>  <np_classifier_superclass>  (632) 
Stilbenoids

>  <np_classifier_class>  (632) 
Oligomeric stibenes

>  <np_classifier_is_glycoside>  (632) 
False

>  <organisms>  (632) 
Cyphostemma crotalarioides|Gnetum Latifolium|Gnetum africanum|Gnetum gnemon|Gnetum gnemonoides|Gnetum klossii|Gnetum latifolium|Gnetum leybodii|Gnetum schwackeanum|Gnetum venosum|Rheum nanum|Rheum palmatum|Rheum racemiferum

>  <collections>  (632) 
Latin America dataset|NPEdia|NuBBEDB|VietHerb|WikiData Natural Products|ZINC NP

>  <dois>  (632) 
10.1002/(SICI)1096-9063(199902)55:2<206::AID-PS871>3.0.CO;2-Z|10.1002/1522-2675(200208)85:8<2394::AID-HLCA2394>3.0.CO;2-6|10.1002/1522-2675(200208)85:8<2538::AID-HLCA2538>3.0.CO;2-J|10.1016/0031-9422(73)85143-X|10.1016/0031-9422(91)80038-3|10.1016/S0031-9422(02)00289-3|10.1016/S0040-4039(98)02207-2|10.1021/NP50024A022|10.1021/np50024a022|10.1055/S-2008-1074562|10.1111/J.1439-0434.2000.TB04620.X|10.3987/COM-01-9317|10.3987/COM-02-9471

>  <synonyms>  (632) 
GNETINC|Gnetin C|Gnetin-C|SCHEMBL22895127

>  <cas>  (632) 
nan

$$$$

     RDKit          2D

 36 42  0  0  0  0  0  0  0  0999 V2000
   -6.7152    0.5803    0.0000 C   0  0  0  0  0  0  0  0  0  0  0  0
   -5.2591    0.2202    0.0000 C   0  0  0  0  0  0  0  0  0  0  0  0
   -5.7694   -1.1903    0.0000 C   0  0  0  0  0  0  0  0  0  0  0  0
   -5.0531    1.7060    0.0000 O   0  0  0  0  0  0  0  0  0  0  0  0
   -3.5764    1.9692    0.0000 C   0  0  0  0  0  0  0  0  0  0  0  0
   -2.4541    2.6253    0.0000 C   0  0  0  0  0  0  0  0  0  0  0  0
   -1.6546    2.5989    0.0000 C   0  0  0  0  0  0  0  0  0  0  0  0
   -0.4923    4.4668    0.0000 O   0  0  0  0  0  0  0  0  0  0  0  0
   -1.2776    1.8933    0.0000 O   0  0  0  0  0  0  0  0  0  0  0  0
   -1.7003    1.2141    0.0000 C   0  0  0  0  0  0  0  0  0  0  0  0
   -2.8697    0.6461    0.0000 C   0  0  0  0  0  0  0  0  0  0  0  0
   -1.4136    0.2860    0.0000 C   0  0  0  0  0  0  0  0  0  0  0  0
   -0.3736    1.3670    0.0000 C   0  0  0  0  0  0  0  0  0  0  0  0
    1.0825    1.0068    0.0000 C   0  0  0  0  0  0  0  0  0  0  0  0
    1.4987   -0.4343    0.0000 C   0  0  0  0  0  0  0  0  0  0  0  0
    2.5386    0.6467    0.0000 C   0  0  0  0  0  0  0  0  0  0  0  0
    2.9548   -0.7944    0.0000 C   0  0  0  0  0  0  0  0  0  0  0  0
    3.9948    0.2866    0.0000 C   0  0  0  0  0  0  0  0  0  0  0  0
    3.7315    1.7633    0.0000 C   0  0  0  0  0  0  0  0  0  0  0  0
    5.0546    2.4700    0.0000 C   0  0  0  0  0  0  0  0  0  0  0  0
    5.2606    3.9558    0.0000 O   0  0  0  0  0  0  0  0  0  0  0  0
    6.1356    1.4301    0.0000 O   0  0  0  0  0  0  0  0  0  0  0  0
    5.4806    0.0806    0.0000 C   0  0  0  0  0  0  0  0  0  0  0  0
    6.1873   -1.2425    0.0000 O   0  0  0  0  0  0  0  0  0  0  0  0
    3.3710   -2.2355    0.0000 O   0  0  0  0  0  0  0  0  0  0  0  0
    2.3311   -3.3165    0.0000 C   0  0  0  0  0  0  0  0  0  0  0  0
    2.7472   -4.7576    0.0000 O   0  0  0  0  0  0  0  0  0  0  0  0
    0.8749   -2.9564    0.0000 C   0  0  0  0  0  0  0  0  0  0  0  0
   -0.5812   -2.5962    0.0000 O   0  0  0  0  0  0  0  0  0  0  0  0
    0.4588   -1.5152    0.0000 C   0  0  0  0  0  0  0  0  0  0  0  0
   -0.9974   -1.1551    0.0000 C   0  0  0  0  0  0  0  0  0  0  0  0
   -2.4535   -0.7950    0.0000 C   0  0  0  0  0  0  0  0  0  0  0  0
   -2.0373   -2.2361    0.0000 C   0  0  0  0  0  0  0  0  0  0  0  0
   -1.6211   -3.6772    0.0000 O   0  0  0  0  0  0  0  0  0  0  0  0
   -3.4935   -1.8760    0.0000 C   0  0  0  0  0  0  0  0  0  0  0  0
   -3.9096   -0.4348    0.0000 C   0  0  0  0  0  0  0  0  0  0  0  0
  1  2  1  0
  2  3  1  0
  2  4  1  0
  4  5  1  0
  5  6  1  1
  6  7  1  0
  7  8  2  0
  7  9  1  0
  9 10  1  0
 11 10  1  1
 11 12  1  0
 12 13  1  1
 13 14  1  0
 14 15  1  0
 15 16  1  6
 15 17  1  0
 17 18  1  6
 18 19  2  0
 19 20  1  0
 20 21  1  0
 20 22  1  0
 22 23  1  0
 23 24  2  0
 17 25  1  0
 25 26  1  0
 26 27  2  0
 26 28  1  0
 28 29  1  1
 30 29  1  1
 30 31  1  0
 31 32  1  1
 31 33  1  0
 33 34  2  0
 33 35  1  0
 36 35  1  1
 36  2  1  0
 11  5  1  0
 31 12  1  0
 36 11  1  0
 30 15  1  0
 23 18  1  0
 30 28  1  0
M  END
>  <identifier>  (633) 
CNP0395888.2

>  <canonical_smiles>  (633) 
CC1(C)O[C@H]2CC(=O)OC[C@]23[C@H]2CC[C@@]4(C)[C@H](C5=CC(O)OC5=O)OC(=O)[C@H]5O[C@]54[C@]2(C)C(=O)C[C@@H]13

>  <standard_inchi>  (633) 
InChI=1S/C26H30O10/c1-22(2)13-8-14(27)24(4)12(25(13)10-32-16(28)9-15(25)35-22)5-6-23(3)18(11-7-17(29)33-20(11)30)34-21(31)19-26(23,24)36-19/h7,12-13,15,17-19,29H,5-6,8-10H2,1-4H3/t12-,13-,15-,17?,18-,19+,23-,24-,25+,26+/m0/s1

>  <standard_inchi_key>  (633) 
DNNFETMOXYZICP-OKRPZFHJSA-N

>  <name>  (633) 
Isolimonexic acid

>  <iupac_name>  (633) 
(1~{R},2~{R},7~{S},10~{R},13~{R},14~{R},16~{S},19~{R},20~{S})-19-(2-hydroxy-5-oxo-2~{H}-furan-4-yl)-9,9,13,20-tetramethyl-4,8,15,18-tetraoxahexacyclo[11.9.0.0^{2,7}.0^{2,10}.0^{14,16}.0^{14,20}]docosane-5,12,17-trione

>  <annotation_level>  (633) 
5

>  <total_atom_count>  (633) 
66

>  <heavy_atom_count>  (633) 
36

>  <molecular_weight>  (633) 
502.52

>  <exact_molecular_weight>  (633) 
502.1839

>  <molecular_formula>  (633) 
C26H30O10

>  <alogp>  (633) 
0.97

>  <topological_polar_surface_area>  (633) 
137.96

>  <rotatable_bond_count>  (633) 
1

>  <hydrogen_bond_acceptors>  (633) 
10

>  <hydrogen_bond_donors>  (633) 
1

>  <hydrogen_bond_acceptors_lipinski>  (633) 
10

>  <hydrogen_bond_donors_lipinski>  (633) 
1

>  <lipinski_rule_of_five_violations>  (633) 
1

>  <aromatic_rings_count>  (633) 
0

>  <qed_drug_likeliness>  (633) 
0.31

>  <formal_charge>  (633) 
0

>  <fractioncsp3>  (633) 
0.77

>  <number_of_minimal_rings>  (633) 
7

>  <van_der_walls_volume>  (633) 
nan

>  <contains_sugar>  (633) 
False

>  <contains_ring_sugars>  (633) 
False

>  <contains_linear_sugars>  (633) 
False

>  <murcko_framework>  (633) 
O1CC=C(C1)C2OCC3OC34C2CCC5C4CCC6COC7CCOCC765

>  <np_likeness>  (633) 
3.63

>  <chemical_class>  (633) 
Steroids and steroid derivatives

>  <chemical_sub_class>  (633) 
Steroid lactones

>  <chemical_super_class>  (633) 
Lipids and lipid-like molecules

>  <direct_parent_classification>  (633) 
Steroid lactones

>  <np_classifier_pathway>  (633) 
Terpenoids

>  <np_classifier_superclass>  (633) 
Triterpenoids

>  <np_classifier_class>  (633) 
Cycloartane triterpenoids

>  <np_classifier_is_glycoside>  (633) 
True

>  <organisms>  (633) 
Citrus nippokoreana|Citrus reticulata|Citrus × deliciosa|Glycosmis parva|Spiranthera odoratissima|Spiranthera odoratissima St. odoratissima|Tetradium daniellii|Tetradium glabrifolium

>  <collections>  (633) 
Latin America dataset|NuBBEDB|WikiData Natural Products

>  <dois>  (633) 
10.1007/BF02976999|10.1021/NP50054A029|10.1248/CPB.57.1246|10.1515/ZNC-2003-3-403|10.1590/S0103-50532010000500016

>  <synonyms>  (633) 
(1R,2R,7S,10R,13R,14R,16S,19R,20S)-19-(2-hydroxy-5-oxo-2H-furan-4-yl)-9,9,13,20-tetramethyl-4,8,15,18-tetraoxahexacyclo[11.9.0.02,7.02,10.014,16.014,20]docosane-5,12,17-trione|73904-93-5|AKOS040761898|CHEMBL4787375|CS-0144092|HY-N8405|Isolimonexin|limonexic acid

>  <cas>  (633) 
73904-93-5

$$$$

     RDKit          2D

 22 26  0  0  0  0  0  0  0  0999 V2000
    3.0421   -2.8759    0.0000 O   0  0  0  0  0  0  0  0  0  0  0  0
    2.4788   -1.4857    0.0000 C   0  0  0  0  0  0  0  0  0  0  0  0
    3.4012   -0.3028    0.0000 C   0  0  0  0  0  0  0  0  0  0  0  0
    4.8868   -0.5102    0.0000 C   0  0  0  0  0  0  0  0  0  0  0  0
    5.8092    0.6727    0.0000 C   0  0  0  0  0  0  0  0  0  0  0  0
    5.2459    2.0630    0.0000 C   0  0  0  0  0  0  0  0  0  0  0  0
    3.7603    2.2703    0.0000 C   0  0  0  0  0  0  0  0  0  0  0  0
    2.8380    1.0874    0.0000 C   0  0  0  0  0  0  0  0  0  0  0  0
    1.3524    1.2948    0.0000 N   0  0  0  0  0  0  0  0  0  0  0  0
    0.4300    0.1119    0.0000 C   0  0  0  0  0  0  0  0  0  0  0  0
   -1.0556    0.3192    0.0000 C   0  0  0  0  0  0  0  0  0  0  0  0
   -1.9780   -0.8636    0.0000 C   0  0  0  0  0  0  0  0  0  0  0  0
   -1.4147   -2.2539    0.0000 C   0  0  0  0  0  0  0  0  0  0  0  0
    0.0709   -2.4612    0.0000 C   0  0  0  0  0  0  0  0  0  0  0  0
    0.9932   -1.2783    0.0000 N   0  0  0  0  0  0  0  0  0  0  0  0
   -3.3880   -0.3519    0.0000 C   0  0  0  0  0  0  0  0  0  0  0  0
   -4.7117   -1.0574    0.0000 C   0  0  0  0  0  0  0  0  0  0  0  0
   -5.9846   -0.2637    0.0000 C   0  0  0  0  0  0  0  0  0  0  0  0
   -5.9336    1.2354    0.0000 C   0  0  0  0  0  0  0  0  0  0  0  0
   -4.6099    1.9409    0.0000 C   0  0  0  0  0  0  0  0  0  0  0  0
   -3.3371    1.1472    0.0000 C   0  0  0  0  0  0  0  0  0  0  0  0
   -1.8956    1.5620    0.0000 N   0  0  0  0  0  0  0  0  0  0  0  0
  1  2  2  0
  2  3  1  0
  3  4  2  0
  4  5  1  0
  5  6  2  0
  6  7  1  0
  7  8  2  0
  8  9  1  0
  9 10  2  0
 10 11  1  0
 11 12  2  0
 12 13  1  0
 13 14  1  0
 14 15  1  0
 12 16  1  0
 16 17  2  0
 17 18  1  0
 18 19  2  0
 19 20  1  0
 20 21  2  0
 21 22  1  0
 15  2  1  0
 21 16  1  0
  8  3  1  0
 15 10  1  0
 22 11  1  0
M  END
>  <identifier>  (634) 
CNP0352050.0

>  <canonical_smiles>  (634) 
O=C1C2=CC=CC=C2N=C2C3=C(CCN21)C1=CC=CC=C1N3

>  <standard_inchi>  (634) 
InChI=1S/C18H13N3O/c22-18-13-6-2-4-8-15(13)20-17-16-12(9-10-21(17)18)11-5-1-3-7-14(11)19-16/h1-8,19H,9-10H2

>  <standard_inchi_key>  (634) 
ACVGWSKVRYFWRP-UHFFFAOYSA-N

>  <name>  (634) 
Rutaecarpine

>  <iupac_name>  (634) 
3,13,21-triazapentacyclo[11.8.0.0^{2,10}.0^{4,9}.0^{15,20}]henicosa-1(21),2(10),4,6,8,15,17,19-octaen-14-one

>  <annotation_level>  (634) 
5

>  <total_atom_count>  (634) 
35

>  <heavy_atom_count>  (634) 
22

>  <molecular_weight>  (634) 
287.32

>  <exact_molecular_weight>  (634) 
287.10586

>  <molecular_formula>  (634) 
C18H13N3O

>  <alogp>  (634) 
3.10

>  <topological_polar_surface_area>  (634) 
50.68

>  <rotatable_bond_count>  (634) 
0

>  <hydrogen_bond_acceptors>  (634) 
3

>  <hydrogen_bond_donors>  (634) 
1

>  <hydrogen_bond_acceptors_lipinski>  (634) 
3

>  <hydrogen_bond_donors_lipinski>  (634) 
1

>  <lipinski_rule_of_five_violations>  (634) 
0

>  <aromatic_rings_count>  (634) 
4

>  <qed_drug_likeliness>  (634) 
0.54

>  <formal_charge>  (634) 
0

>  <fractioncsp3>  (634) 
0.11

>  <number_of_minimal_rings>  (634) 
5

>  <van_der_walls_volume>  (634) 
247.47

>  <contains_sugar>  (634) 
False

>  <contains_ring_sugars>  (634) 
False

>  <contains_linear_sugars>  (634) 
False

>  <murcko_framework>  (634) 
N=1c2ccccc2CN3C1c4[nH]c5ccccc5c4CC3

>  <np_likeness>  (634) 
-0.06

>  <chemical_class>  (634) 
Diazanaphthalenes

>  <chemical_sub_class>  (634) 
Benzodiazines

>  <chemical_super_class>  (634) 
Organoheterocyclic compounds

>  <direct_parent_classification>  (634) 
Indoloquinazolines

>  <np_classifier_pathway>  (634) 
Alkaloids

>  <np_classifier_superclass>  (634) 
Tryptophan alkaloids

>  <np_classifier_class>  (634) 
Carboline alkaloids

>  <np_classifier_is_glycoside>  (634) 
False

>  <organisms>  (634) 
Alchornea cordifolia|Alexandrium excavatum|Amomum daniellii|Atalantia wightii|Balanophora japonica|Bouchardatia neurococca|Calcarisporium thermophilum|Corydalis persica|Corynanthe pachyceras|Cota tinctoria|Cousinia pterocaulos|Coussarea hydrangeifolia|Cynoglossum amabile|Dendrobates abditus|Eleutherococcus divaricatus|Euodia bodinieri|Euodia officinalis|Euodia rutaecarpa|Euodia ruticarpa|Evodia baberi|Evodia rutaecarpa|Evodia sp.|Fagara rhetza (Roxb.) DC|Glycosmis pseudoracemosa|Hesperocyparis goveniana var. abramsiana|Hortia arborea|Hortia badinii|Hortia brasiliana|Hortia oreadica|Hortia regia|Hygrophorus eburneus|Inula grantioides|Juniperus horizontalis|Lagochilus hirsutissimus|Lathyrus tingitanus|Leucas lanata|Millettia pachycarpa|Persea americana|Peucedanum oroselinum|Phellodendron Amurense|Phellodendron amurense|Phellodendron chinense|Phellodendron chinese|Phellodendron japonicum MAXIM|Plectosphaerella cucumerina|Plectranthus caninus|Pteridium aquilinum subsp. latiusculum|Rauvolfia salicifolia|Rhizoplaca baranowii|Salmonella enterica subsp. enterica serovar bovismorbificans|Sphagnum magellanicum|Spiranthera odoratissima|Spondias dulcis|Streptomyces levoris|Strychnos spinosa|Tetradium glabrifolium|Tetradium ruticarpum|Tylophora asthmatica|Tylostylis discolor|Udotea flabellum|Warburgia salutaris|Zanthoxylum budrunga|Zanthoxylum dimorphophyllum|Zanthoxylum integrifoliolum|Zanthoxylum integrifolium|Zanthoxylum rhetsa|Zanthoxylum sp.|Zanthoxylum wutaiense

>  <collections>  (634) 
AfroCancer|Australian natural products|CMAUP (cCollective molecular activities of useful plants)|ChEBI NPs|ConMedNP|GNPS (Global Natural Products Social Molecular Networking)|HIM (Herbal Ingredients in-vivo Metabolism database)|HIT (Herbal Ingredients Targets)|KNApSaCK|Latin America dataset|NPASS|NPEdia|NuBBEDB|PhytoLab phyproof® Reference Substances|PubChem NPs|TCMDB-Taiwan (Traditional Chinese Medicine database)|TCMID (Traditional Chinese Medicine Integrated Database)|TIPdb (database of Taiwan indigenous plants)|UNPD (Universal Natural Products Database)|VietHerb|WikiData Natural Products|ZINC NP

>  <dois>  (634) 
10.1002/CBDV.200900289|10.1002/CHIN.200402199|10.1002/JCCS.199500128|10.1002/JCCS.200400099|10.1002/JCCS.200700112|10.1002/JSSC.201400012|10.1002/RCM.2705|10.1016/0021-9673(95)01220-6|10.1016/0031-9422(95)00248-6|10.1016/J.CHROMA.2009.02.009|10.1016/S0014-2999(96)00789-3|10.1016/S0021-9673(96)00588-2|10.1016/S0031-9422(03)00205-X|10.1016/S0031-9422(97)01130-8|10.1016/j.chroma.2009.02.009|10.1021/JA01504A040|10.1021/NP50011A008|10.1021/NP50051A030|10.1021/NP700719E|10.1021/NP960678L|10.1021/NP970406Y|10.1021/NP980471N|10.1021/np960161+|10.1055/S-2005-864144|10.1055/S-2006-957579|10.1055/S-2006-957846|10.1055/S-2006-962049|10.1055/S-2008-1081329|10.1071/ch9700133|10.1080/10286020.2011.602015|10.1248/BPB.20.243|10.1248/CPB.37.1820|10.1248/CPB.40.2325|10.1248/CPB.40.2639|10.1248/CPB.53.1118|10.1248/YAKUSHI1947.111.1_32|10.1248/YAKUSHI1947.116.12_911|10.1248/YAKUSHI1947.116.1_59|10.2307/4117899|10.3390/MOLECULES190812031|10.3987/COM-06-10772|10.3987/COM-95-7050

>  <synonyms>  (634) 
nan

>  <cas>  (634) 
84-26-4

$$$$

     RDKit          2D

 30 33  0  0  0  0  0  0  0  0999 V2000
   -0.4924    4.5518    0.0000 C   0  0  0  0  0  0  0  0  0  0  0  0
   -1.9109    4.0641    0.0000 C   0  0  0  0  0  0  0  0  0  0  0  0
   -2.1979    2.5918    0.0000 C   0  0  0  0  0  0  0  0  0  0  0  0
   -3.5980    3.1300    0.0000 C   0  0  0  0  0  0  0  0  0  0  0  0
   -0.6981    2.5649    0.0000 C   0  0  0  0  0  0  0  0  0  0  0  0
    0.0285    1.2526    0.0000 C   0  0  0  0  0  0  0  0  0  0  0  0
    1.5283    1.2258    0.0000 C   0  0  0  0  0  0  0  0  0  0  0  0
    2.3014    2.5111    0.0000 O   0  0  0  0  0  0  0  0  0  0  0  0
    3.8012    2.4842    0.0000 C   0  0  0  0  0  0  0  0  0  0  0  0
    4.5744    3.7696    0.0000 C   0  0  0  0  0  0  0  0  0  0  0  0
    4.5278    1.1720    0.0000 O   0  0  0  0  0  0  0  0  0  0  0  0
    2.2548   -0.0865    0.0000 C   0  0  0  0  0  0  0  0  0  0  0  0
    3.7546   -0.1134    0.0000 C   0  0  0  0  0  0  0  0  0  0  0  0
    1.4817   -1.3719    0.0000 C   0  0  0  0  0  0  0  0  0  0  0  0
    0.7085   -2.6573    0.0000 O   0  0  0  0  0  0  0  0  0  0  0  0
   -0.0181   -1.3450    0.0000 C   0  0  0  0  0  0  0  0  0  0  0  0
   -0.7913   -2.6304    0.0000 C   0  0  0  0  0  0  0  0  0  0  0  0
   -0.0647   -3.9427    0.0000 C   0  0  0  0  0  0  0  0  0  0  0  0
    1.4351   -3.9696    0.0000 C   0  0  0  0  0  0  0  0  0  0  0  0
    2.2083   -2.6842    0.0000 C   0  0  0  0  0  0  0  0  0  0  0  0
    3.3744   -1.7408    0.0000 C   0  0  0  0  0  0  0  0  0  0  0  0
    3.3399   -3.6688    0.0000 C   0  0  0  0  0  0  0  0  0  0  0  0
   -0.7447   -0.0327    0.0000 C   0  0  0  0  0  0  0  0  0  0  0  0
   -1.5178   -1.3181    0.0000 C   0  0  0  0  0  0  0  0  0  0  0  0
   -2.2444   -0.0058    0.0000 C   0  0  0  0  0  0  0  0  0  0  0  0
   -3.0176   -1.2912    0.0000 O   0  0  0  0  0  0  0  0  0  0  0  0
   -4.5174   -1.2643    0.0000 C   0  0  0  0  0  0  0  0  0  0  0  0
   -5.2905   -2.5497    0.0000 C   0  0  0  0  0  0  0  0  0  0  0  0
   -5.2440    0.0480    0.0000 O   0  0  0  0  0  0  0  0  0  0  0  0
   -2.9710    1.3064    0.0000 C   0  0  0  0  0  0  0  0  0  0  0  0
  1  2  2  0
  2  3  1  0
  3  4  1  1
  3  5  1  0
  5  6  1  0
  6  7  2  0
  7  8  1  0
  8  9  1  0
  9 10  1  0
  9 11  2  0
  7 12  1  0
 12 13  2  0
 12 14  1  0
 14 15  1  1
 15 16  1  0
 16 17  1  1
 17 18  1  0
 18 19  1  0
 19 20  1  0
 20 21  1  0
 20 22  1  0
 16 23  1  0
 23 24  1  1
 23 25  1  0
 25 26  1  1
 26 27  1  0
 27 28  1  0
 27 29  2  0
 25 30  1  0
 30  3  1  0
 23  6  1  0
 16 14  1  0
 20 14  1  0
M  END
>  <identifier>  (635) 
CNP0080535.1

>  <canonical_smiles>  (635) 
C=C[C@]1(C)CC2=C(OC(C)=O)C(=C)[C@@]34O[C@]3(CCCC4(C)C)[C@]2(C)[C@@H](OC(C)=O)C1

>  <standard_inchi>  (635) 
InChI=1S/C25H34O5/c1-9-22(7)13-18-20(29-17(4)27)15(2)25-21(5,6)11-10-12-24(25,30-25)23(18,8)19(14-22)28-16(3)26/h9,19H,1-2,10-14H2,3-8H3/t19-,22+,23-,24+,25-/m0/s1

>  <standard_inchi_key>  (635) 
CXMZKQKACNYSNC-QHXYIEHISA-N

>  <name>  (635) 
[(1~{R},2~{S},3~{S},5~{R},10~{R})-8-acetoxy-2,5,11,11-tetramethyl-9-methylene-5-vinyl-15-oxatetracyclo[8.4.1.0^{1,10}.0^{2,7}]pentadec-7-en-3-yl] acetate

>  <iupac_name>  (635) 
[(1~{R},2~{S},3~{S},5~{R},10~{R})-8-acetoxy-2,5,11,11-tetramethyl-9-methylene-5-vinyl-15-oxatetracyclo[8.4.1.0^{1,10}.0^{2,7}]pentadec-7-en-3-yl] acetate

>  <annotation_level>  (635) 
3

>  <total_atom_count>  (635) 
64

>  <heavy_atom_count>  (635) 
30

>  <molecular_weight>  (635) 
414.54

>  <exact_molecular_weight>  (635) 
414.24062

>  <molecular_formula>  (635) 
C25H34O5

>  <alogp>  (635) 
5.02

>  <topological_polar_surface_area>  (635) 
65.13

>  <rotatable_bond_count>  (635) 
3

>  <hydrogen_bond_acceptors>  (635) 
5

>  <hydrogen_bond_donors>  (635) 
0

>  <hydrogen_bond_acceptors_lipinski>  (635) 
5

>  <hydrogen_bond_donors_lipinski>  (635) 
0

>  <lipinski_rule_of_five_violations>  (635) 
1

>  <aromatic_rings_count>  (635) 
0

>  <qed_drug_likeliness>  (635) 
0.37

>  <formal_charge>  (635) 
0

>  <fractioncsp3>  (635) 
0.68

>  <number_of_minimal_rings>  (635) 
4

>  <van_der_walls_volume>  (635) 
nan

>  <contains_sugar>  (635) 
False

>  <contains_ring_sugars>  (635) 
False

>  <contains_linear_sugars>  (635) 
False

>  <murcko_framework>  (635) 
O1C23CC=C4CCCCC4C13CCCC2

>  <np_likeness>  (635) 
2.18

>  <chemical_class>  (635) 
Oxepanes

>  <chemical_sub_class>  (635) 
Oxepanes

>  <chemical_super_class>  (635) 
Organoheterocyclic compounds

>  <direct_parent_classification>  (635) 
Oxepanes

>  <np_classifier_pathway>  (635) 
Terpenoids

>  <np_classifier_superclass>  (635) 
Diterpenoids

>  <np_classifier_class>  (635) 
Pimarane and Isopimarane diterpenoids

>  <np_classifier_is_glycoside>  (635) 
False

>  <organisms>  (635) 
Vellozia candida

>  <collections>  (635) 
Latin America dataset|NuBBEDB|WikiData Natural Products

>  <dois>  (635) 
10.1016/S0040-4039(00)94036-X

>  <synonyms>  (635) 
nan

>  <cas>  (635) 
nan

$$$$

     RDKit          2D

 37 39  0  0  0  0  0  0  0  0999 V2000
   -3.8871    4.3749    0.0000 C   0  0  0  0  0  0  0  0  0  0  0  0
   -4.8556    3.2295    0.0000 O   0  0  0  0  0  0  0  0  0  0  0  0
   -4.3479    1.8180    0.0000 C   0  0  0  0  0  0  0  0  0  0  0  0
   -2.8716    1.5520    0.0000 C   0  0  0  0  0  0  0  0  0  0  0  0
   -2.3639    0.1406    0.0000 C   0  0  0  0  0  0  0  0  0  0  0  0
   -0.8877   -0.1254    0.0000 C   0  0  0  0  0  0  0  0  0  0  0  0
   -0.3799   -1.5369    0.0000 C   0  0  0  0  0  0  0  0  0  0  0  0
   -1.3484   -2.6823    0.0000 O   0  0  0  0  0  0  0  0  0  0  0  0
   -2.8246   -2.4163    0.0000 C   0  0  0  0  0  0  0  0  0  0  0  0
    1.0963   -1.8029    0.0000 C   0  0  0  0  0  0  0  0  0  0  0  0
    1.6040   -3.2144    0.0000 O   0  0  0  0  0  0  0  0  0  0  0  0
    2.0648   -0.6575    0.0000 C   0  0  0  0  0  0  0  0  0  0  0  0
    3.5410   -0.9235    0.0000 C   0  0  0  0  0  0  0  0  0  0  0  0
    4.0487   -2.3349    0.0000 O   0  0  0  0  0  0  0  0  0  0  0  0
    5.5250   -2.6010    0.0000 C   0  0  0  0  0  0  0  0  0  0  0  0
    6.0327   -4.0124    0.0000 C   0  0  0  0  0  0  0  0  0  0  0  0
    6.4935   -1.4555    0.0000 O   0  0  0  0  0  0  0  0  0  0  0  0
    4.5095    0.2220    0.0000 C   0  0  0  0  0  0  0  0  0  0  0  0
    5.9857   -0.0441    0.0000 O   0  0  0  0  0  0  0  0  0  0  0  0
    6.9542    1.1014    0.0000 C   0  0  0  0  0  0  0  0  0  0  0  0
    8.4304    0.8354    0.0000 C   0  0  0  0  0  0  0  0  0  0  0  0
    6.4465    2.5128    0.0000 O   0  0  0  0  0  0  0  0  0  0  0  0
    4.0018    1.6334    0.0000 C   0  0  0  0  0  0  0  0  0  0  0  0
    4.9702    2.7789    0.0000 O   0  0  0  0  0  0  0  0  0  0  0  0
    4.4625    4.1903    0.0000 C   0  0  0  0  0  0  0  0  0  0  0  0
    2.5255    1.8994    0.0000 C   0  0  0  0  0  0  0  0  0  0  0  0
    1.5570    0.7540    0.0000 C   0  0  0  0  0  0  0  0  0  0  0  0
    0.0808    1.0200    0.0000 O   0  0  0  0  0  0  0  0  0  0  0  0
   -3.3324   -1.0049    0.0000 C   0  0  0  0  0  0  0  0  0  0  0  0
   -4.8086   -0.7389    0.0000 C   0  0  0  0  0  0  0  0  0  0  0  0
   -5.7771   -1.8843    0.0000 O   0  0  0  0  0  0  0  0  0  0  0  0
   -7.2533   -1.6183    0.0000 C   0  0  0  0  0  0  0  0  0  0  0  0
   -8.2218   -2.7637    0.0000 C   0  0  0  0  0  0  0  0  0  0  0  0
   -7.7610   -0.2068    0.0000 O   0  0  0  0  0  0  0  0  0  0  0  0
   -5.3163    0.6726    0.0000 C   0  0  0  0  0  0  0  0  0  0  0  0
   -6.7926    0.9386    0.0000 O   0  0  0  0  0  0  0  0  0  0  0  0
   -7.3003    2.3501    0.0000 C   0  0  0  0  0  0  0  0  0  0  0  0
  1  2  1  0
  2  3  1  0
  3  4  2  0
  4  5  1  0
  5  6  1  0
  6  7  2  0
  7  8  1  0
  8  9  1  0
  7 10  1  0
 10 11  2  0
 10 12  1  0
 12 13  2  0
 13 14  1  0
 14 15  1  0
 15 16  1  0
 15 17  2  0
 13 18  1  0
 18 19  1  0
 19 20  1  0
 20 21  1  0
 20 22  2  0
 18 23  2  0
 23 24  1  0
 24 25  1  0
 23 26  1  0
 26 27  2  0
 27 28  1  0
  5 29  2  0
 29 30  1  0
 30 31  1  0
 31 32  1  0
 32 33  1  0
 32 34  2  0
 30 35  2  0
 35 36  1  0
 36 37  1  0
 35  3  1  0
 28  6  1  0
 27 12  1  0
M  END
>  <identifier>  (636) 
CNP0080405.0

>  <canonical_smiles>  (636) 
COC1=CC(C2=C(OC)C(=O)C3=C(OC(C)=O)C(OC(C)=O)=C(OC)C=C3O2)=CC(OC(C)=O)=C1OC

>  <standard_inchi>  (636) 
InChI=1S/C25H24O12/c1-11(26)34-18-9-14(8-16(30-4)22(18)32-6)21-25(33-7)20(29)19-15(37-21)10-17(31-5)23(35-12(2)27)24(19)36-13(3)28/h8-10H,1-7H3

>  <standard_inchi_key>  (636) 
CCJWTJMKRMHOHK-UHFFFAOYSA-N

>  <name>  (636) 
nan

>  <iupac_name>  (636) 
[5-(5,6-diacetoxy-3,7-dimethoxy-4-oxo-chromen-2-yl)-2,3-dimethoxy-phenyl] acetate

>  <annotation_level>  (636) 
4

>  <total_atom_count>  (636) 
61

>  <heavy_atom_count>  (636) 
37

>  <molecular_weight>  (636) 
516.46

>  <exact_molecular_weight>  (636) 
516.12678

>  <molecular_formula>  (636) 
C25H24O12

>  <alogp>  (636) 
3.27

>  <topological_polar_surface_area>  (636) 
146.03

>  <rotatable_bond_count>  (636) 
8

>  <hydrogen_bond_acceptors>  (636) 
12

>  <hydrogen_bond_donors>  (636) 
0

>  <hydrogen_bond_acceptors_lipinski>  (636) 
12

>  <hydrogen_bond_donors_lipinski>  (636) 
0

>  <lipinski_rule_of_five_violations>  (636) 
2

>  <aromatic_rings_count>  (636) 
3

>  <qed_drug_likeliness>  (636) 
0.32

>  <formal_charge>  (636) 
0

>  <fractioncsp3>  (636) 
0.28

>  <number_of_minimal_rings>  (636) 
3

>  <van_der_walls_volume>  (636) 
nan

>  <contains_sugar>  (636) 
False

>  <contains_ring_sugars>  (636) 
False

>  <contains_linear_sugars>  (636) 
False

>  <murcko_framework>  (636) 
O1c2ccccc2CC=C1c3ccccc3

>  <np_likeness>  (636) 
0.93

>  <chemical_class>  (636) 
Flavonoids

>  <chemical_sub_class>  (636) 
O-methylated flavonoids

>  <chemical_super_class>  (636) 
Phenylpropanoids and polyketides

>  <direct_parent_classification>  (636) 
3-O-methylated flavonoids

>  <np_classifier_pathway>  (636) 
Shikimates and Phenylpropanoids

>  <np_classifier_superclass>  (636) 
Flavonoids

>  <np_classifier_class>  (636) 
Flavonols

>  <np_classifier_is_glycoside>  (636) 
False

>  <organisms>  (636) 
Apuleia leiocarpa

>  <collections>  (636) 
Latin America dataset|NuBBEDB|WikiData Natural Products|ZINC NP

>  <dois>  (636) 
10.1016/S0031-9422(00)89891-X

>  <synonyms>  (636) 
Apuleitrin triacetate

>  <cas>  (636) 
nan

$$$$

     RDKit          2D

 24 25  0  0  0  0  0  0  0  0999 V2000
   -7.2945   -2.5289    0.0000 O   0  0  0  0  0  0  0  0  0  0  0  0
   -7.0425   -1.0502    0.0000 C   0  0  0  0  0  0  0  0  0  0  0  0
   -8.1970   -0.0926    0.0000 C   0  0  0  0  0  0  0  0  0  0  0  0
   -7.9449    1.3861    0.0000 C   0  0  0  0  0  0  0  0  0  0  0  0
   -6.5383    1.9071    0.0000 C   0  0  0  0  0  0  0  0  0  0  0  0
   -5.3838    0.9495    0.0000 C   0  0  0  0  0  0  0  0  0  0  0  0
   -3.9772    1.4705    0.0000 C   0  0  0  0  0  0  0  0  0  0  0  0
   -2.8227    0.5129    0.0000 C   0  0  0  0  0  0  0  0  0  0  0  0
   -3.0747   -0.9658    0.0000 O   0  0  0  0  0  0  0  0  0  0  0  0
   -1.4161    1.0339    0.0000 C   0  0  0  0  0  0  0  0  0  0  0  0
   -0.2615    0.0763    0.0000 C   0  0  0  0  0  0  0  0  0  0  0  0
   -0.5136   -1.4024    0.0000 O   0  0  0  0  0  0  0  0  0  0  0  0
    1.1451    0.5973    0.0000 C   0  0  0  0  0  0  0  0  0  0  0  0
    2.2996   -0.3603    0.0000 C   0  0  0  0  0  0  0  0  0  0  0  0
    2.0475   -1.8390    0.0000 O   0  0  0  0  0  0  0  0  0  0  0  0
    3.7062    0.1607    0.0000 C   0  0  0  0  0  0  0  0  0  0  0  0
    4.8607   -0.7969    0.0000 C   0  0  0  0  0  0  0  0  0  0  0  0
    6.2673   -0.2759    0.0000 C   0  0  0  0  0  0  0  0  0  0  0  0
    7.4219   -1.2335    0.0000 C   0  0  0  0  0  0  0  0  0  0  0  0
    8.8285   -0.7125    0.0000 C   0  0  0  0  0  0  0  0  0  0  0  0
    9.0805    0.7662    0.0000 C   0  0  0  0  0  0  0  0  0  0  0  0
    7.9260    1.7238    0.0000 C   0  0  0  0  0  0  0  0  0  0  0  0
    6.5194    1.2028    0.0000 C   0  0  0  0  0  0  0  0  0  0  0  0
   -5.6359   -0.5292    0.0000 O   0  0  0  0  0  0  0  0  0  0  0  0
  1  2  2  0
  2  3  1  0
  3  4  2  0
  4  5  1  0
  5  6  1  0
  6  7  1  6
  7  8  1  0
  8  9  1  6
  8 10  1  0
 10 11  1  0
 11 12  1  6
 11 13  1  0
 13 14  1  0
 14 15  1  6
 14 16  1  0
 16 17  2  0
 17 18  1  0
 18 19  2  0
 19 20  1  0
 20 21  2  0
 21 22  1  0
 22 23  2  0
  6 24  1  0
 24  2  1  0
 23 18  1  0
M  END
>  <identifier>  (637) 
CNP0356874.1

>  <canonical_smiles>  (637) 
O=C1C=CC[C@H](C[C@@H](O)C[C@@H](O)C[C@@H](O)/C=C/C2=CC=CC=C2)O1

>  <standard_inchi>  (637) 
InChI=1S/C19H24O5/c20-15(10-9-14-5-2-1-3-6-14)11-16(21)12-17(22)13-18-7-4-8-19(23)24-18/h1-6,8-10,15-18,20-22H,7,11-13H2/b10-9+/t15-,16-,17-,18+/m0/s1

>  <standard_inchi_key>  (637) 
QJVWVKROYUAXBN-FQGMDPGOSA-N

>  <name>  (637) 
Cryptomoscatone E3

>  <iupac_name>  (637) 
(2~{R})-2-[(~{E},2~{S},4~{R},6~{R})-2,4,6-trihydroxy-8-phenyl-oct-7-enyl]-2,3-dihydropyran-6-one

>  <annotation_level>  (637) 
5

>  <total_atom_count>  (637) 
48

>  <heavy_atom_count>  (637) 
24

>  <molecular_weight>  (637) 
332.4

>  <exact_molecular_weight>  (637) 
332.16237

>  <molecular_formula>  (637) 
C19H24O5

>  <alogp>  (637) 
1.82

>  <topological_polar_surface_area>  (637) 
86.99

>  <rotatable_bond_count>  (637) 
8

>  <hydrogen_bond_acceptors>  (637) 
5

>  <hydrogen_bond_donors>  (637) 
3

>  <hydrogen_bond_acceptors_lipinski>  (637) 
5

>  <hydrogen_bond_donors_lipinski>  (637) 
3

>  <lipinski_rule_of_five_violations>  (637) 
0

>  <aromatic_rings_count>  (637) 
1

>  <qed_drug_likeliness>  (637) 
0.63

>  <formal_charge>  (637) 
0

>  <fractioncsp3>  (637) 
0.42

>  <number_of_minimal_rings>  (637) 
2

>  <van_der_walls_volume>  (637) 
311.86

>  <contains_sugar>  (637) 
False

>  <contains_ring_sugars>  (637) 
False

>  <contains_linear_sugars>  (637) 
False

>  <murcko_framework>  (637) 
O1CC=CCC1CCCCCCC=Cc2ccccc2

>  <np_likeness>  (637) 
2.21

>  <chemical_class>  (637) 
Cinnamyl alcohols

>  <chemical_sub_class>  (637) 
Cinnamyl alcohols

>  <chemical_super_class>  (637) 
Phenylpropanoids and polyketides

>  <direct_parent_classification>  (637) 
Cinnamyl alcohols

>  <np_classifier_pathway>  (637) 
Polyketides

>  <np_classifier_superclass>  (637) 
Cyclic polyketides

>  <np_classifier_class>  (637) 
2-pyrone derivatives

>  <np_classifier_is_glycoside>  (637) 
False

>  <organisms>  (637) 
Cryptocarya mandioccana|Cryptocarya moschata

>  <collections>  (637) 
ChemSpider NPs|Latin America dataset|NuBBEDB|Super Natural II|WikiData Natural Products

>  <dois>  (637) 
10.1002/pca.818|10.1016/S0031-9422(99)00532-4|10.1365/S10337-009-1338-Y

>  <synonyms>  (637) 
276863-11-7|Cryptomoscatone E3, 56-dihydro-6-[(2'S4'R6'R7'E)-2'4'6'-trihydroxy-8'-phenyl-7'-octenyl]-2-pyrone|DTXSID501043674

>  <cas>  (637) 
276863-11-7

$$$$

     RDKit          2D

 28 30  0  0  0  0  0  0  0  0999 V2000
    7.5570   -2.2322    0.0000 C   0  0  0  0  0  0  0  0  0  0  0  0
    6.1730   -1.6538    0.0000 C   0  0  0  0  0  0  0  0  0  0  0  0
    5.9820   -0.1660    0.0000 C   0  0  0  0  0  0  0  0  0  0  0  0
    4.5980    0.4124    0.0000 C   0  0  0  0  0  0  0  0  0  0  0  0
    3.4050   -0.4970    0.0000 C   0  0  0  0  0  0  0  0  0  0  0  0
    2.0211    0.0815    0.0000 C   0  0  0  0  0  0  0  0  0  0  0  0
    2.0556   -1.4181    0.0000 O   0  0  0  0  0  0  0  0  0  0  0  0
    3.3715   -2.1381    0.0000 C   0  0  0  0  0  0  0  0  0  0  0  0
    1.8300    1.5693    0.0000 C   0  0  0  0  0  0  0  0  0  0  0  0
    3.0229    2.4786    0.0000 C   0  0  0  0  0  0  0  0  0  0  0  0
    4.4069    1.9002    0.0000 C   0  0  0  0  0  0  0  0  0  0  0  0
    5.5998    2.8095    0.0000 O   0  0  0  0  0  0  0  0  0  0  0  0
    0.3560    1.8473    0.0000 O   0  0  0  0  0  0  0  0  0  0  0  0
   -0.3639    0.5313    0.0000 C   0  0  0  0  0  0  0  0  0  0  0  0
   -1.8517    0.3403    0.0000 C   0  0  0  0  0  0  0  0  0  0  0  0
   -2.7611    1.5332    0.0000 C   0  0  0  0  0  0  0  0  0  0  0  0
   -4.2489    1.3421    0.0000 C   0  0  0  0  0  0  0  0  0  0  0  0
   -5.1582    2.5351    0.0000 O   0  0  0  0  0  0  0  0  0  0  0  0
   -4.5798    3.9190    0.0000 C   0  0  0  0  0  0  0  0  0  0  0  0
   -4.8273   -0.0419    0.0000 C   0  0  0  0  0  0  0  0  0  0  0  0
   -6.3151   -0.2329    0.0000 O   0  0  0  0  0  0  0  0  0  0  0  0
   -6.8935   -1.6169    0.0000 C   0  0  0  0  0  0  0  0  0  0  0  0
   -3.9179   -1.2348    0.0000 C   0  0  0  0  0  0  0  0  0  0  0  0
   -4.4964   -2.6188    0.0000 O   0  0  0  0  0  0  0  0  0  0  0  0
   -3.5870   -3.8117    0.0000 C   0  0  0  0  0  0  0  0  0  0  0  0
   -2.4301   -1.0437    0.0000 C   0  0  0  0  0  0  0  0  0  0  0  0
    0.6651   -0.5600    0.0000 C   0  0  0  0  0  0  0  0  0  0  0  0
    0.3871   -2.0340    0.0000 C   0  0  0  0  0  0  0  0  0  0  0  0
  1  2  2  0
  2  3  1  0
  3  4  1  0
  4  5  2  0
  5  6  1  0
  6  7  1  1
  7  8  1  0
  6  9  1  0
  9 10  2  0
 10 11  1  0
 11 12  2  0
  9 13  1  0
 13 14  1  0
 14 15  1  6
 15 16  2  0
 16 17  1  0
 17 18  1  0
 18 19  1  0
 17 20  2  0
 20 21  1  0
 21 22  1  0
 20 23  1  0
 23 24  1  0
 24 25  1  0
 23 26  2  0
 14 27  1  0
 27 28  1  6
 11  4  1  0
 26 15  1  0
 27  6  1  0
M  END
>  <identifier>  (638) 
CNP0200881.2

>  <canonical_smiles>  (638) 
C=CCC1=C[C@@]2(OC)C(=CC1=O)O[C@@H](C1=CC(OC)=C(OC)C(OC)=C1)[C@H]2C

>  <standard_inchi>  (638) 
InChI=1S/C22H26O6/c1-7-8-14-12-22(27-6)13(2)20(28-19(22)11-16(14)23)15-9-17(24-3)21(26-5)18(10-15)25-4/h7,9-13,20H,1,8H2,2-6H3/t13-,20-,22+/m1/s1

>  <standard_inchi_key>  (638) 
MRRHZTMSIVTFSK-YIKPVDIZSA-N

>  <name>  (638) 
nan

>  <iupac_name>  (638) 
(2~{R},3~{R},3~{a}~{S})-5-allyl-3~{a}-methoxy-3-methyl-2-(3,4,5-trimethoxyphenyl)-2,3-dihydrobenzofuran-6-one

>  <annotation_level>  (638) 
4

>  <total_atom_count>  (638) 
54

>  <heavy_atom_count>  (638) 
28

>  <molecular_weight>  (638) 
386.44

>  <exact_molecular_weight>  (638) 
386.17294

>  <molecular_formula>  (638) 
C22H26O6

>  <alogp>  (638) 
3.77

>  <topological_polar_surface_area>  (638) 
63.22

>  <rotatable_bond_count>  (638) 
7

>  <hydrogen_bond_acceptors>  (638) 
6

>  <hydrogen_bond_donors>  (638) 
0

>  <hydrogen_bond_acceptors_lipinski>  (638) 
6

>  <hydrogen_bond_donors_lipinski>  (638) 
0

>  <lipinski_rule_of_five_violations>  (638) 
0

>  <aromatic_rings_count>  (638) 
1

>  <qed_drug_likeliness>  (638) 
0.66

>  <formal_charge>  (638) 
0

>  <fractioncsp3>  (638) 
0.41

>  <number_of_minimal_rings>  (638) 
3

>  <van_der_walls_volume>  (638) 
nan

>  <contains_sugar>  (638) 
False

>  <contains_ring_sugars>  (638) 
False

>  <contains_linear_sugars>  (638) 
False

>  <murcko_framework>  (638) 
O1C2=CCC=CC2CC1c3ccccc3

>  <np_likeness>  (638) 
2.18

>  <chemical_class>  (638) 
2-arylbenzofuran flavonoids

>  <chemical_sub_class>  (638) 
2-arylbenzofuran flavonoids

>  <chemical_super_class>  (638) 
Phenylpropanoids and polyketides

>  <direct_parent_classification>  (638) 
2-arylbenzofuran flavonoids

>  <np_classifier_pathway>  (638) 
Shikimates and Phenylpropanoids

>  <np_classifier_superclass>  (638) 
Lignans

>  <np_classifier_class>  (638) 
Neolignans

>  <np_classifier_is_glycoside>  (638) 
False

>  <organisms>  (638) 
Nectandra sp.|Rhodostemonodaphne miranda

>  <collections>  (638) 
Latin America dataset|NuBBEDB|WikiData Natural Products|ZINC NP

>  <dois>  (638) 
10.1016/0031-9422(80)87033-6

>  <synonyms>  (638) 
2-epi-mirandin-A

>  <cas>  (638) 
nan

$$$$

     RDKit          2D

 20 21  0  0  0  0  0  0  0  0999 V2000
   -2.9530   -3.1021    0.0000 C   0  0  0  0  0  0  0  0  0  0  0  0
   -3.4633   -1.6916    0.0000 C   0  0  0  0  0  0  0  0  0  0  0  0
   -4.9400   -1.4282    0.0000 C   0  0  0  0  0  0  0  0  0  0  0  0
   -2.4969   -0.5444    0.0000 C   0  0  0  0  0  0  0  0  0  0  0  0
   -3.0071    0.8662    0.0000 O   0  0  0  0  0  0  0  0  0  0  0  0
   -1.0202   -0.8077    0.0000 C   0  0  0  0  0  0  0  0  0  0  0  0
   -0.5099   -2.2183    0.0000 O   0  0  0  0  0  0  0  0  0  0  0  0
   -0.0537    0.3395    0.0000 C   0  0  0  0  0  0  0  0  0  0  0  0
   -0.5640    1.7500    0.0000 C   0  0  0  0  0  0  0  0  0  0  0  0
   -2.0407    2.0133    0.0000 O   0  0  0  0  0  0  0  0  0  0  0  0
   -2.5510    3.4239    0.0000 C   0  0  0  0  0  0  0  0  0  0  0  0
    0.4024    2.8972    0.0000 C   0  0  0  0  0  0  0  0  0  0  0  0
    1.8791    2.6338    0.0000 C   0  0  0  0  0  0  0  0  0  0  0  0
    2.3894    1.2233    0.0000 C   0  0  0  0  0  0  0  0  0  0  0  0
    1.4230    0.0761    0.0000 C   0  0  0  0  0  0  0  0  0  0  0  0
    1.9333   -1.3344    0.0000 O   0  0  0  0  0  0  0  0  0  0  0  0
    3.4100   -1.5978    0.0000 C   0  0  0  0  0  0  0  0  0  0  0  0
    3.9202   -3.0083    0.0000 O   0  0  0  0  0  0  0  0  0  0  0  0
    4.3764   -0.4506    0.0000 C   0  0  0  0  0  0  0  0  0  0  0  0
    3.8661    0.9600    0.0000 C   0  0  0  0  0  0  0  0  0  0  0  0
  1  2  2  0
  2  3  1  0
  2  4  1  0
  4  5  1  1
  4  6  1  0
  6  7  1  6
  6  8  1  0
  8  9  2  0
  9 10  1  0
 10 11  1  0
  9 12  1  0
 12 13  2  0
 13 14  1  0
 14 15  2  0
 15 16  1  0
 16 17  1  0
 17 18  2  0
 17 19  1  0
 19 20  2  0
 15  8  1  0
 20 14  1  0
M  END
>  <identifier>  (639) 
CNP0190444.2

>  <canonical_smiles>  (639) 
C=C(C)[C@@H](O)[C@@H](O)C1=C(OC)C=CC2=C1OC(=O)C=C2

>  <standard_inchi>  (639) 
InChI=1S/C15H16O5/c1-8(2)13(17)14(18)12-10(19-3)6-4-9-5-7-11(16)20-15(9)12/h4-7,13-14,17-18H,1H2,2-3H3/t13-,14+/m1/s1

>  <standard_inchi_key>  (639) 
DKEANOQWICTXTP-KGLIPLIRSA-N

>  <name>  (639) 
Murrangatin

>  <iupac_name>  (639) 
8-[(1~{S},2~{R})-1,2-dihydroxy-3-methyl-but-3-enyl]-7-methoxy-chromen-2-one

>  <annotation_level>  (639) 
5

>  <total_atom_count>  (639) 
36

>  <heavy_atom_count>  (639) 
20

>  <molecular_weight>  (639) 
276.29

>  <exact_molecular_weight>  (639) 
276.09977

>  <molecular_formula>  (639) 
C15H16O5

>  <alogp>  (639) 
1.77

>  <topological_polar_surface_area>  (639) 
79.90

>  <rotatable_bond_count>  (639) 
4

>  <hydrogen_bond_acceptors>  (639) 
5

>  <hydrogen_bond_donors>  (639) 
2

>  <hydrogen_bond_acceptors_lipinski>  (639) 
5

>  <hydrogen_bond_donors_lipinski>  (639) 
2

>  <lipinski_rule_of_five_violations>  (639) 
0

>  <aromatic_rings_count>  (639) 
2

>  <qed_drug_likeliness>  (639) 
0.66

>  <formal_charge>  (639) 
0

>  <fractioncsp3>  (639) 
0.27

>  <number_of_minimal_rings>  (639) 
2

>  <van_der_walls_volume>  (639) 
245.19

>  <contains_sugar>  (639) 
False

>  <contains_ring_sugars>  (639) 
False

>  <contains_linear_sugars>  (639) 
False

>  <murcko_framework>  (639) 
O1c2ccccc2C=CC1

>  <np_likeness>  (639) 
1.66

>  <chemical_class>  (639) 
Coumarins and derivatives

>  <chemical_sub_class>  (639) 
Coumarins and derivatives

>  <chemical_super_class>  (639) 
Phenylpropanoids and polyketides

>  <direct_parent_classification>  (639) 
Coumarins and derivatives

>  <np_classifier_pathway>  (639) 
Shikimates and Phenylpropanoids

>  <np_classifier_superclass>  (639) 
Coumarins

>  <np_classifier_class>  (639) 
Simple coumarins

>  <np_classifier_is_glycoside>  (639) 
False

>  <organisms>  (639) 
Leionema coxii|Leionema ralstonii|Merrillia caloxylon|Micromelum falcatum|Micromelum minutum|Murraya exotica|Murraya gleniei|Murraya omphalocarpa|Murraya paniculata|Phebalium tuberculosum|Polygala paniculata|Rauia resinosa|Triphasia trifolia

>  <collections>  (639) 
KNApSaCK|Latin America dataset|NuBBEDB|Super Natural II|TCMDB-Taiwan (Traditional Chinese Medicine database)|WikiData Natural Products|ZINC NP

>  <dois>  (639) 
10.1016/0031-9422(88)80163-8|10.1016/0031-9422(89)80080-9|10.1016/0031-9422(92)83450-D|10.1016/0031-9422(96)00255-5|10.1016/0305-1978(86)90008-6|10.1016/0305-1978(88)90049-X|10.1016/0305-1978(88)90076-2|10.1016/S0031-9422(00)80160-0|10.1016/S0031-9422(00)80543-9|10.1016/S0031-9422(00)81445-4|10.1016/S0031-9422(00)97490-9|10.1016/S0031-9422(00)98115-9|10.1039/P19900002047|10.1055/S-2003-41112|10.1055/S-2007-969460|10.1248/CPB.35.4277|10.1248/CPB.37.119|10.1248/CPB.37.358|10.1248/CPB.48.334|10.1271/BBB.64.420|10.1515/ZNC-2003-7-808|10.1590/S0100-40422010001000024

>  <synonyms>  (639) 
(7-METHOXY-8-(1,2-DIHYDROXY-3-METHYL-3-BUTENYL))COUMARIN|2H-1-BENZOPYRAN-2-ONE, 8-((1R,2S)-1,2-DIHYDROXY-3-METHYL-3-BUTENYL)-7-METHOXY-, REL-(-)-|37126-91-3|3SF8Z2MIQD|8-[(1S,2R)-1,2-dihydroxy-3-methylbut-3-enyl]-7-methoxychromen-2-one|88546-96-7|Minumicrolin|Murrangatin|REL-(-)-8-((1R,2S)-1,2-DIHYDROXY-3-METHYL-3-BUTEN-1-YL)-7-METHOXY-2H-1-BENZOPYRAN-2-ONE|UNII-3SF8Z2MIQD

>  <cas>  (639) 
37126-91-3|88546-96-7

$$$$

     RDKit          2D

 40 44  0  0  0  0  0  0  0  0999 V2000
    0.1755   -4.2508    0.0000 O   0  0  0  0  0  0  0  0  0  0  0  0
   -0.6218   -2.9803    0.0000 C   0  0  0  0  0  0  0  0  0  0  0  0
   -2.1208   -3.0355    0.0000 C   0  0  0  0  0  0  0  0  0  0  0  0
   -2.9182   -1.7650    0.0000 C   0  0  0  0  0  0  0  0  0  0  0  0
   -4.4172   -1.8203    0.0000 C   0  0  0  0  0  0  0  0  0  0  0  0
   -5.2145   -0.5498    0.0000 C   0  0  0  0  0  0  0  0  0  0  0  0
   -6.7135   -0.6051    0.0000 C   0  0  0  0  0  0  0  0  0  0  0  0
   -7.4151   -1.9309    0.0000 C   0  0  0  0  0  0  0  0  0  0  0  0
   -8.9141   -1.9862    0.0000 O   0  0  0  0  0  0  0  0  0  0  0  0
   -6.6178   -3.2014    0.0000 C   0  0  0  0  0  0  0  0  0  0  0  0
   -5.1188   -3.1461    0.0000 C   0  0  0  0  0  0  0  0  0  0  0  0
   -2.2166   -0.4392    0.0000 O   0  0  0  0  0  0  0  0  0  0  0  0
   -0.7176   -0.3839    0.0000 C   0  0  0  0  0  0  0  0  0  0  0  0
   -0.0160    0.9419    0.0000 C   0  0  0  0  0  0  0  0  0  0  0  0
   -0.8133    2.2124    0.0000 C   0  0  0  0  0  0  0  0  0  0  0  0
   -0.1117    3.5382    0.0000 O   0  0  0  0  0  0  0  0  0  0  0  0
   -0.9091    4.8087    0.0000 C   0  0  0  0  0  0  0  0  0  0  0  0
   -2.4081    4.7534    0.0000 C   0  0  0  0  0  0  0  0  0  0  0  0
   -3.2055    6.0239    0.0000 O   0  0  0  0  0  0  0  0  0  0  0  0
   -3.1097    3.4276    0.0000 C   0  0  0  0  0  0  0  0  0  0  0  0
   -4.6087    3.3723    0.0000 O   0  0  0  0  0  0  0  0  0  0  0  0
   -2.3123    2.1571    0.0000 C   0  0  0  0  0  0  0  0  0  0  0  0
   -3.0139    0.8313    0.0000 O   0  0  0  0  0  0  0  0  0  0  0  0
    1.4830    0.9971    0.0000 C   0  0  0  0  0  0  0  0  0  0  0  0
    2.1846    2.3229    0.0000 O   0  0  0  0  0  0  0  0  0  0  0  0
    2.2804   -0.2734    0.0000 C   0  0  0  0  0  0  0  0  0  0  0  0
    3.7794   -0.2181    0.0000 C   0  0  0  0  0  0  0  0  0  0  0  0
    4.5767   -1.4886    0.0000 O   0  0  0  0  0  0  0  0  0  0  0  0
    6.0757   -1.4333    0.0000 C   0  0  0  0  0  0  0  0  0  0  0  0
    6.8731   -2.7038    0.0000 C   0  0  0  0  0  0  0  0  0  0  0  0
    6.1715   -4.0296    0.0000 O   0  0  0  0  0  0  0  0  0  0  0  0
    6.7773   -0.1075    0.0000 C   0  0  0  0  0  0  0  0  0  0  0  0
    8.2763   -0.0522    0.0000 O   0  0  0  0  0  0  0  0  0  0  0  0
    5.9799    1.1630    0.0000 C   0  0  0  0  0  0  0  0  0  0  0  0
    6.6816    2.4888    0.0000 O   0  0  0  0  0  0  0  0  0  0  0  0
    4.4810    1.1077    0.0000 C   0  0  0  0  0  0  0  0  0  0  0  0
    3.6836    2.3782    0.0000 O   0  0  0  0  0  0  0  0  0  0  0  0
    1.5788   -1.5992    0.0000 C   0  0  0  0  0  0  0  0  0  0  0  0
    2.3761   -2.8697    0.0000 O   0  0  0  0  0  0  0  0  0  0  0  0
    0.0798   -1.6545    0.0000 C   0  0  0  0  0  0  0  0  0  0  0  0
  1  2  2  0
  2  3  1  0
  3  4  2  0
  4  5  1  0
  5  6  2  0
  6  7  1  0
  7  8  2  0
  8  9  1  0
  8 10  1  0
 10 11  2  0
  4 12  1  0
 12 13  1  0
 13 14  2  0
 15 14  1  1
 15 16  1  0
 16 17  1  0
 17 18  1  0
 18 19  1  1
 18 20  1  0
 20 21  1  1
 20 22  1  0
 22 23  1  6
 14 24  1  0
 24 25  1  0
 24 26  2  0
 27 26  1  1
 27 28  1  0
 28 29  1  0
 29 30  1  1
 30 31  1  0
 29 32  1  0
 32 33  1  6
 32 34  1  0
 34 35  1  1
 34 36  1  0
 36 37  1  6
 26 38  1  0
 38 39  1  0
 38 40  2  0
 40  2  1  0
 11  5  1  0
 40 13  1  0
 22 15  1  0
 36 27  1  0
M  END
>  <identifier>  (640) 
CNP0217099.1

>  <canonical_smiles>  (640) 
O=C1C=C(C2=CC=C(O)C=C2)OC2=C([C@@H]3OC[C@H](O)[C@H](O)[C@H]3O)C(O)=C([C@@H]3O[C@H](CO)[C@@H](O)[C@H](O)[C@H]3O)C(O)=C12

>  <standard_inchi>  (640) 
InChI=1S/C26H28O14/c27-6-13-18(32)21(35)23(37)26(40-13)15-19(33)14-10(29)5-12(8-1-3-9(28)4-2-8)39-24(14)16(20(15)34)25-22(36)17(31)11(30)7-38-25/h1-5,11,13,17-18,21-23,25-28,30-37H,6-7H2/t11-,13+,17-,18+,21-,22+,23+,25-,26-/m0/s1

>  <standard_inchi_key>  (640) 
MMDUKUSNQNWVET-VYUBKLCTSA-N

>  <name>  (640) 
Schaftoside

>  <iupac_name>  (640) 
5,7-dihydroxy-2-(4-hydroxyphenyl)-6-[(2~{S},3~{R},4~{R},5~{S},6~{R})-3,4,5-trihydroxy-6-(hydroxymethyl)tetrahydropyran-2-yl]-8-[(2~{S},3~{R},4~{S},5~{S})-3,4,5-trihydroxytetrahydropyran-2-yl]chromen-4-one

>  <annotation_level>  (640) 
5

>  <total_atom_count>  (640) 
68

>  <heavy_atom_count>  (640) 
40

>  <molecular_weight>  (640) 
564.5

>  <exact_molecular_weight>  (640) 
564.14791

>  <molecular_formula>  (640) 
C26H28O14

>  <alogp>  (640) 
-1.75

>  <topological_polar_surface_area>  (640) 
250.97

>  <rotatable_bond_count>  (640) 
4

>  <hydrogen_bond_acceptors>  (640) 
14

>  <hydrogen_bond_donors>  (640) 
10

>  <hydrogen_bond_acceptors_lipinski>  (640) 
14

>  <hydrogen_bond_donors_lipinski>  (640) 
10

>  <lipinski_rule_of_five_violations>  (640) 
3

>  <aromatic_rings_count>  (640) 
3

>  <qed_drug_likeliness>  (640) 
0.17

>  <formal_charge>  (640) 
0

>  <fractioncsp3>  (640) 
0.42

>  <number_of_minimal_rings>  (640) 
5

>  <van_der_walls_volume>  (640) 
457.54

>  <contains_sugar>  (640) 
True

>  <contains_ring_sugars>  (640) 
True

>  <contains_linear_sugars>  (640) 
False

>  <murcko_framework>  (640) 
O1C(=CCc2cc(cc(c12)C3OCCCC3)C4OCCCC4)c5ccccc5

>  <np_likeness>  (640) 
1.96

>  <chemical_class>  (640) 
Flavonoids

>  <chemical_sub_class>  (640) 
Flavonoid glycosides

>  <chemical_super_class>  (640) 
Phenylpropanoids and polyketides

>  <direct_parent_classification>  (640) 
Flavonoid 8-C-glycosides

>  <np_classifier_pathway>  (640) 
Shikimates and Phenylpropanoids

>  <np_classifier_superclass>  (640) 
Flavonoids

>  <np_classifier_class>  (640) 
Flavones

>  <np_classifier_is_glycoside>  (640) 
False

>  <organisms>  (640) 
Acanthus Ebracteatus|Acanthus ebracteatus|Achillea collina|Achillea millefolium|Achillea roseo-alba|Achillea sp.|Adenia mannii|Angiopteris latipinna|Arisaema sp.|Artemisia herba-alba|Artemisia judaica|Atractylis carduus|Capsicum annuum|Centaurea hierapolitana|Centaurea horrida|Centaurea melitensis|Centaurea solstitialis|Cerastium arvense|Ceratonia siliqua|Clinacanthus Nutans|Cydonia oblonga|Cydonia sp.|Dactylis glomerata|Dendrobium officinale|Desmodium styracifolium|Eleusine indica|Eriobotrya japonica|Ertela trifolia|Ficus carica|Galipea trifoliata|Glycyrrhiza Uralensis|Glycyrrhiza aspera|Glycyrrhiza echinata|Glycyrrhiza inflata|Glycyrrhiza macedonica|Glycyrrhiza pallidiflora|Glycyrrhiza sp.|Glycyrrhiza uralensis|Gratiola officinalis|Grona styracifolia|Hordeum vulgare|Hyparrhenia hirta|Iris domestica|Liparis condylobulbon|Neoraputia paraensis|Nervilia fordii|Oryza Sativa|Oryza sativa|Passiflora allantophylla|Passiflora ampullacea|Passiflora boenderi|Passiflora caerulea|Passiflora colinvauxii|Passiflora edulis|Passiflora foetida|Passiflora foetida var. hispida|Passiflora incarnata|Passiflora macrophylla|Passiflora misera|Passiflora pinnatistipula|Passiflora pittieri|Passiflora serratifolia|Passiflora sexflora|Passiflora sp.|Passiflora trisecta|Phoradendron tomentosum|Radula complanata|Rhynchosia minima|Salvia blepharophylla|Satureja kitaibelii|Silene firma|Sphaerostephanos polycarpus|Sugarcane|Triticum aestivum|Viola yedoensis|Vitex lucens|Vitex polygama|Yeatesia viridiflora|liquorice

>  <collections>  (640) 
ANPDB|Australian natural products|CMAUP (cCollective molecular activities of useful plants)|ChEBI NPs|ETM (Ethiopian Traditional Medicine) DB|Latin America dataset|NANPDB (Natural Products from Northern African Sources)|NuBBEDB|PhytoLab phyproof® Reference Substances|Super Natural II|VietHerb|WikiData Natural Products|ZINC NP

>  <dois>  (640) 
10.1002/(SICI)1099-1565(200003/04)11:2<90::AID-PCA497>3.0.CO;2-R|10.1002/CHIN.200412218|10.1002/PCA.727|10.1002/PS.1278|10.1002/ps.1278|10.1007/BF00989555|10.1007/BF02002621|10.1007/BF02855559|10.1007/S10600-010-9746-7|10.1016/0021-9673(93)80317-2|10.1016/0027-5107(92)90201-C|10.1016/0031-9422(84)83098-8|10.1016/0031-9422(90)85461-N|10.1016/0031-9422(91)80133-L|10.1016/0305-1978(84)90034-6|10.1016/0305-1978(87)90099-8|10.1016/0305-1978(93)90060-5|10.1016/0305-1978(93)90081-2|10.1016/0378-4347(91)80597-6|10.1016/J.CARRES.2009.06.012|10.1016/J.JEP.2007.09.020|10.1016/J.PHYTOL.2012.10.004|10.1016/S0021-9673(97)00260-4|10.1016/S0031-9422(00)80120-X|10.1016/S0031-9422(00)80845-6|10.1016/S0031-9422(00)83186-6|10.1016/S0031-9422(00)84593-8|10.1016/S0031-9422(00)90745-3|10.1016/S0031-9422(00)90806-9|10.1016/S0031-9422(01)00306-5|10.1016/S0031-9422(03)00282-6|10.1016/S0031-9422(97)00100-3|10.1016/S0031-9422(99)00324-6|10.1016/S0305-1978(01)00028-X|10.1016/S0305-1978(02)00055-8|10.1016/S0305-1978(02)00072-8|10.1021/JF9910640|10.1021/NP50019A012|10.1021/NP50024A029|10.1021/NP50024A030|10.1021/NP50031A018|10.1021/NP50032A013|10.1021/NP50040A038|10.1021/NP800760P|10.1021/np50019a012|10.1055/S-2005-864104|10.1076/PHBI.34.1.76.13182|10.1076/PHBI.40.2.81.5844|10.1080/00021369.1982.10865479|10.1080/10575639808044951|10.1155/2017/7436259|10.1248/BPB.23.602|10.1248/CPB.46.1511|10.1271/BBB1961.46.2595|10.1515/ZNC-1985-1-204|10.1515/ZNC-2000-5-607|10.3109/13880209.2010.551538|10.3797/SCIPHARM.AUT-01-09|10.3797/SCIPHARM.AUT-01-22

>  <synonyms>  (640) 
1ST158039|5,7-dihydroxy-2-(4-hydroxyphenyl)-6-[(2S,3R,4R,5S,6R)-3,4,5-trihydroxy-6-(hydroxymethyl)oxan-2-yl]-8-[(2S,3R,4S,5S)-3,4,5-trihydroxyoxan-2-yl]chromen-4-one|51938-32-0|6-C-beta-glucopyranosyl-8-C-alpha-arabinopyranosylapigenin|8alpha-L-arabinopyranosyl-6beta-D-glucopyranosyl-5,7-dihydroxy-2-(4-hydroxyphenyl)-4H-1-Benzopyran-4-one|AC-34871|AKOS030573646|AS-82969|Apigenin 8-C-\u03b1-L-arabinoside 6-C-\u03b2-D-glucoside|Apigenin-6-glucoside-8-arabinoside|CHEBI:9047|CS-0009719|DTXSID201318298|HY-N0703|Q27108250|SCHEMBL1425661|Schaftoside6-C-beta-glucopyranosyl-8-C-alpha-arabinopyranosylapigenin; Shaftoside; apigenin 6-C-beta-D-glucopyranosyl-8-C-alpha-L-arabinopyranoside|Shaftoside|apigenin 6-C-beta-D-glucopyranosyl-8-C-alpha-L-arabinopyranoside|schaftoside

>  <cas>  (640) 
51938-32-0

$$$$

     RDKit          2D

 46 51  0  0  0  0  0  0  0  0999 V2000
    0.8125   -4.9104    0.0000 C   0  0  0  0  0  0  0  0  0  0  0  0
   -0.4780   -4.1457    0.0000 C   0  0  0  0  0  0  0  0  0  0  0  0
   -1.7854   -4.8809    0.0000 C   0  0  0  0  0  0  0  0  0  0  0  0
   -1.8024   -6.3808    0.0000 C   0  0  0  0  0  0  0  0  0  0  0  0
   -3.0759   -4.1162    0.0000 C   0  0  0  0  0  0  0  0  0  0  0  0
   -3.0589   -2.6163    0.0000 C   0  0  0  0  0  0  0  0  0  0  0  0
   -1.7514   -1.8811    0.0000 C   0  0  0  0  0  0  0  0  0  0  0  0
   -3.0418   -1.1164    0.0000 C   0  0  0  0  0  0  0  0  0  0  0  0
   -4.3493   -1.8516    0.0000 O   0  0  0  0  0  0  0  0  0  0  0  0
   -3.0248    0.3835    0.0000 O   0  0  0  0  0  0  0  0  0  0  0  0
   -4.3153    1.1482    0.0000 C   0  0  0  0  0  0  0  0  0  0  0  0
   -4.2982    2.6481    0.0000 O   0  0  0  0  0  0  0  0  0  0  0  0
   -5.5887    3.4128    0.0000 C   0  0  0  0  0  0  0  0  0  0  0  0
   -5.5717    4.9127    0.0000 C   0  0  0  0  0  0  0  0  0  0  0  0
   -4.2642    5.6479    0.0000 O   0  0  0  0  0  0  0  0  0  0  0  0
   -6.8962    2.6776    0.0000 C   0  0  0  0  0  0  0  0  0  0  0  0
   -8.1866    3.4423    0.0000 O   0  0  0  0  0  0  0  0  0  0  0  0
   -6.9132    1.1777    0.0000 C   0  0  0  0  0  0  0  0  0  0  0  0
   -8.2206    0.4425    0.0000 O   0  0  0  0  0  0  0  0  0  0  0  0
   -5.6227    0.4130    0.0000 C   0  0  0  0  0  0  0  0  0  0  0  0
   -5.6397   -1.0869    0.0000 O   0  0  0  0  0  0  0  0  0  0  0  0
   -1.7344   -0.3812    0.0000 C   0  0  0  0  0  0  0  0  0  0  0  0
   -0.4269    0.3540    0.0000 C   0  0  0  0  0  0  0  0  0  0  0  0
    0.8635   -0.4106    0.0000 C   0  0  0  0  0  0  0  0  0  0  0  0
    2.1540   -1.1753    0.0000 C   0  0  0  0  0  0  0  0  0  0  0  0
    2.3381   -1.9509    0.0000 O   0  0  0  0  0  0  0  0  0  0  0  0
    3.6005   -0.7783    0.0000 O   0  0  0  0  0  0  0  0  0  0  0  0
    0.8465   -1.9106    0.0000 C   0  0  0  0  0  0  0  0  0  0  0  0
    2.1370   -2.6752    0.0000 C   0  0  0  0  0  0  0  0  0  0  0  0
    3.4444   -1.9400    0.0000 C   0  0  0  0  0  0  0  0  0  0  0  0
    3.4614   -0.4401    0.0000 C   0  0  0  0  0  0  0  0  0  0  0  0
    4.7689    0.2951    0.0000 C   0  0  0  0  0  0  0  0  0  0  0  0
    4.7519   -1.2048    0.0000 C   0  0  0  0  0  0  0  0  0  0  0  0
    6.0594   -0.4696    0.0000 C   0  0  0  0  0  0  0  0  0  0  0  0
    7.3668    0.2656    0.0000 C   0  0  0  0  0  0  0  0  0  0  0  0
    7.3838    1.7655    0.0000 C   0  0  0  0  0  0  0  0  0  0  0  0
    8.6913    2.5007    0.0000 O   0  0  0  0  0  0  0  0  0  0  0  0
    6.0934    2.5302    0.0000 C   0  0  0  0  0  0  0  0  0  0  0  0
    5.1423    3.6901    0.0000 C   0  0  0  0  0  0  0  0  0  0  0  0
    7.0705    3.6683    0.0000 C   0  0  0  0  0  0  0  0  0  0  0  0
    4.7859    1.7950    0.0000 C   0  0  0  0  0  0  0  0  0  0  0  0
    3.4955    2.5597    0.0000 C   0  0  0  0  0  0  0  0  0  0  0  0
    2.1880    1.8245    0.0000 C   0  0  0  0  0  0  0  0  0  0  0  0
    2.1710    0.3246    0.0000 C   0  0  0  0  0  0  0  0  0  0  0  0
    0.8806    1.0893    0.0000 C   0  0  0  0  0  0  0  0  0  0  0  0
   -0.4609   -2.6458    0.0000 C   0  0  0  0  0  0  0  0  0  0  0  0
  2  1  1  1
  2  3  1  0
  3  4  1  6
  3  5  1  0
  5  6  1  0
  6  7  1  0
  7  8  1  1
  8  9  2  0
  8 10  1  0
 11 10  1  1
 11 12  1  0
 12 13  1  0
 13 14  1  1
 14 15  1  0
 13 16  1  0
 16 17  1  6
 16 18  1  0
 18 19  1  1
 18 20  1  0
 20 21  1  6
  7 22  1  0
 22 23  1  0
 23 24  1  0
 24 25  1  6
 25 26  2  0
 25 27  1  0
 24 28  1  0
 28 29  2  0
 29 30  1  0
 31 30  1  1
 31 32  1  0
 32 33  1  1
 32 34  1  0
 34 35  1  0
 35 36  1  0
 36 37  1  1
 36 38  1  0
 38 39  1  0
 38 40  1  0
 38 41  1  0
 41 42  1  1
 42 43  1  0
 43 44  1  0
 44 45  1  1
 46 28  1  6
 46  2  1  0
 46  7  1  0
 20 11  1  0
 44 24  1  0
 44 31  1  0
 41 32  1  0
M  END
>  <identifier>  (641) 
CNP0139840.1

>  <canonical_smiles>  (641) 
C[C@H]1[C@H](C)CC[C@]2(C(=O)O[C@@H]3O[C@H](CO)[C@@H](O)[C@H](O)[C@H]3O)CC[C@]3(C(=O)O)C(=CC[C@@H]4[C@@]5(C)CC[C@H](O)C(C)(C)[C@@H]5CC[C@]43C)[C@H]12

>  <standard_inchi>  (641) 
InChI=1S/C36H56O10/c1-18-9-14-35(31(44)46-29-28(41)27(40)26(39)21(17-37)45-29)15-16-36(30(42)43)20(25(35)19(18)2)7-8-23-33(5)12-11-24(38)32(3,4)22(33)10-13-34(23,36)6/h7,18-19,21-29,37-41H,8-17H2,1-6H3,(H,42,43)/t18-,19+,21-,22+,23-,24+,25+,26-,27+,28-,29+,33+,34-,35+,36-/m1/s1

>  <standard_inchi_key>  (641) 
CLZXUPFAWZANJB-ZZZTYRQWSA-N

>  <name>  (641) 
(1S,2R,4aS,6aR,6aR,6bR,8aR,10S,12aR,14bS)-10-hydroxy-1,2,6b,9,9,12a-hexamethyl-4a-[(2S,3R,4S,5S,6R)-3,4,5-trihydroxy-6-(hydroxymethyl)oxan-2-yl]oxycarbonyl-2,3,4,5,6,6a,7,8,8a,10,11,12,13,14b-tetradecahydro-1H-picene-6a-carboxylic acid

>  <iupac_name>  (641) 
(1~{S},2~{R},4~{a}~{S},6~{a}~{R},6~{a}~{R},6~{b}~{R},8~{a}~{R},10~{S},12~{a}~{R},14~{b}~{S})-10-hydroxy-1,2,6~{b},9,9,12~{a}-hexamethyl-4~{a}-[(2~{S},3~{R},4~{S},5~{S},6~{R})-3,4,5-trihydroxy-6-(hydroxymethyl)tetrahydropyran-2-yl]oxycarbonyl-2,3,4,5,6,6~{a},7,8,8~{a},10,11,12,13,14~{b}-tetradecahydro-1~{H}-picene-6~{a}-carboxylic acid

>  <annotation_level>  (641) 
5

>  <total_atom_count>  (641) 
102

>  <heavy_atom_count>  (641) 
46

>  <molecular_weight>  (641) 
648.83

>  <exact_molecular_weight>  (641) 
648.38735

>  <molecular_formula>  (641) 
C36H56O10

>  <alogp>  (641) 
3.41

>  <topological_polar_surface_area>  (641) 
173.98

>  <rotatable_bond_count>  (641) 
4

>  <hydrogen_bond_acceptors>  (641) 
9

>  <hydrogen_bond_donors>  (641) 
6

>  <hydrogen_bond_acceptors_lipinski>  (641) 
9

>  <hydrogen_bond_donors_lipinski>  (641) 
6

>  <lipinski_rule_of_five_violations>  (641) 
2

>  <aromatic_rings_count>  (641) 
0

>  <qed_drug_likeliness>  (641) 
0.20

>  <formal_charge>  (641) 
0

>  <fractioncsp3>  (641) 
0.89

>  <number_of_minimal_rings>  (641) 
6

>  <van_der_walls_volume>  (641) 
598.96

>  <contains_sugar>  (641) 
True

>  <contains_ring_sugars>  (641) 
True

>  <contains_linear_sugars>  (641) 
False

>  <murcko_framework>  (641) 
O1CCCCC1OCC23CCCCC3C4=CCC5C(CCC6CCCCC65)C4CC2

>  <np_likeness>  (641) 
2.85

>  <chemical_class>  (641) 
Steroids and steroid derivatives

>  <chemical_sub_class>  (641) 
Oxosteroids

>  <chemical_super_class>  (641) 
Lipids and lipid-like molecules

>  <direct_parent_classification>  (641) 
Oxosteroids

>  <np_classifier_pathway>  (641) 
Terpenoids

>  <np_classifier_superclass>  (641) 
Triterpenoids

>  <np_classifier_class>  (641) 
Ursane and Taraxastane triterpenoids

>  <np_classifier_is_glycoside>  (641) 
True

>  <organisms>  (641) 
Cephalanthus occidentalis|Tocoyena brasiliensis

>  <collections>  (641) 
ChemSpider NPs|Latin America dataset|NuBBEDB|WikiData Natural Products

>  <dois>  (641) 
10.1055/S-2005-864103|10.1590/S0100-40422005000400009

>  <synonyms>  (641) 
28-O-\u221a\u00e9\u00ac\u2264-D-glucopyranosyl quinovic acid|BDBM50317556|CHEMBL1095349|Quinovic acid 28-O-beta-D-glucopyranosyl ester

>  <cas>  (641) 
nan

$$$$

     RDKit          2D

 38 42  0  0  0  0  0  0  0  0999 V2000
   -3.6530    3.0289    0.0000 O   0  0  0  0  0  0  0  0  0  0  0  0
   -2.2102    2.6187    0.0000 C   0  0  0  0  0  0  0  0  0  0  0  0
   -1.8440    1.1641    0.0000 O   0  0  0  0  0  0  0  0  0  0  0  0
   -2.9207    0.1197    0.0000 C   0  0  0  0  0  0  0  0  0  0  0  0
   -4.3635    0.5299    0.0000 C   0  0  0  0  0  0  0  0  0  0  0  0
   -4.7297    1.9845    0.0000 O   0  0  0  0  0  0  0  0  0  0  0  0
   -5.4402   -0.5145    0.0000 C   0  0  0  0  0  0  0  0  0  0  0  0
   -6.8830   -0.1042    0.0000 O   0  0  0  0  0  0  0  0  0  0  0  0
   -5.0741   -1.9691    0.0000 C   0  0  0  0  0  0  0  0  0  0  0  0
   -6.1508   -3.0135    0.0000 C   0  0  0  0  0  0  0  0  0  0  0  0
   -5.7847   -4.4681    0.0000 O   0  0  0  0  0  0  0  0  0  0  0  0
   -3.6313   -2.3794    0.0000 O   0  0  0  0  0  0  0  0  0  0  0  0
   -2.5546   -1.3350    0.0000 C   0  0  0  0  0  0  0  0  0  0  0  0
   -1.1118   -1.7452    0.0000 C   0  0  0  0  0  0  0  0  0  0  0  0
   -0.7457   -3.1998    0.0000 C   0  0  0  0  0  0  0  0  0  0  0  0
   -1.8224   -4.2442    0.0000 O   0  0  0  0  0  0  0  0  0  0  0  0
    0.6971   -3.6101    0.0000 C   0  0  0  0  0  0  0  0  0  0  0  0
    1.7738   -2.5657    0.0000 C   0  0  0  0  0  0  0  0  0  0  0  0
    3.2166   -2.9759    0.0000 O   0  0  0  0  0  0  0  0  0  0  0  0
    4.2933   -1.9316    0.0000 C   0  0  0  0  0  0  0  0  0  0  0  0
    5.7361   -2.3418    0.0000 C   0  0  0  0  0  0  0  0  0  0  0  0
    6.8128   -1.2974    0.0000 C   0  0  0  0  0  0  0  0  0  0  0  0
    8.2556   -1.7077    0.0000 O   0  0  0  0  0  0  0  0  0  0  0  0
    6.4467    0.1572    0.0000 C   0  0  0  0  0  0  0  0  0  0  0  0
    7.5234    1.2016    0.0000 O   0  0  0  0  0  0  0  0  0  0  0  0
    5.0039    0.5675    0.0000 C   0  0  0  0  0  0  0  0  0  0  0  0
    3.9272   -0.4769    0.0000 C   0  0  0  0  0  0  0  0  0  0  0  0
    2.4844   -0.0667    0.0000 C   0  0  0  0  0  0  0  0  0  0  0  0
    2.1183    1.3880    0.0000 O   0  0  0  0  0  0  0  0  0  0  0  0
    1.4077   -1.1111    0.0000 C   0  0  0  0  0  0  0  0  0  0  0  0
   -0.0351   -0.7008    0.0000 C   0  0  0  0  0  0  0  0  0  0  0  0
   -0.4012    0.7538    0.0000 O   0  0  0  0  0  0  0  0  0  0  0  0
   -1.1335    3.6631    0.0000 C   0  0  0  0  0  0  0  0  0  0  0  0
    0.3093    3.2528    0.0000 C   0  0  0  0  0  0  0  0  0  0  0  0
    1.3860    4.2972    0.0000 C   0  0  0  0  0  0  0  0  0  0  0  0
    1.0199    5.7519    0.0000 C   0  0  0  0  0  0  0  0  0  0  0  0
   -0.4229    6.1621    0.0000 C   0  0  0  0  0  0  0  0  0  0  0  0
   -1.4996    5.1177    0.0000 C   0  0  0  0  0  0  0  0  0  0  0  0
  1  2  2  0
  2  3  1  0
  4  3  1  1
  4  5  1  0
  5  6  1  6
  5  7  1  0
  7  8  1  1
  7  9  1  0
  9 10  1  6
 10 11  1  0
  9 12  1  0
 12 13  1  0
 13 14  1  6
 14 15  2  0
 15 16  1  0
 15 17  1  0
 17 18  2  0
 18 19  1  0
 19 20  1  0
 20 21  2  0
 21 22  1  0
 22 23  1  0
 22 24  2  0
 24 25  1  0
 24 26  1  0
 26 27  2  0
 27 28  1  0
 28 29  2  0
 28 30  1  0
 30 31  2  0
 31 32  1  0
  2 33  1  0
 33 34  2  0
 34 35  1  0
 35 36  2  0
 36 37  1  0
 37 38  2  0
 13  4  1  0
 31 14  1  0
 38 33  1  0
 30 18  1  0
 27 20  1  0
M  END
>  <identifier>  (642) 
CNP0323710.1

>  <canonical_smiles>  (642) 
O=C(O[C@@H]1[C@@H](O)[C@H](O)[C@@H](CO)O[C@H]1C1=C(O)C=C2OC3=CC(O)=C(O)C=C3C(=O)C2=C1O)C1=CC=CC=C1

>  <standard_inchi>  (642) 
InChI=1S/C26H22O12/c27-9-17-21(32)23(34)25(38-26(35)10-4-2-1-3-5-10)24(37-17)18-14(30)8-16-19(22(18)33)20(31)11-6-12(28)13(29)7-15(11)36-16/h1-8,17,21,23-25,27-30,32-34H,9H2/t17-,21-,23+,24+,25-/m1/s1

>  <standard_inchi_key>  (642) 
AVPLATUJXHPZBU-FUFTYFEXSA-N

>  <name>  (642) 
[(2S,3R,4S,5S,6R)-4,5-dihydroxy-6-(hydroxymethyl)-2-(1,3,6,7-tetrahydroxy-9-oxoxanthen-2-yl)oxan-3-yl] benzoate

>  <iupac_name>  (642) 
[(2~{S},3~{R},4~{S},5~{S},6~{R})-4,5-dihydroxy-6-(hydroxymethyl)-2-(1,3,6,7-tetrahydroxy-9-oxo-xanthen-2-yl)tetrahydropyran-3-yl] benzoate

>  <annotation_level>  (642) 
5

>  <total_atom_count>  (642) 
60

>  <heavy_atom_count>  (642) 
38

>  <molecular_weight>  (642) 
526.45

>  <exact_molecular_weight>  (642) 
526.11113

>  <molecular_formula>  (642) 
C26H22O12

>  <alogp>  (642) 
1.15

>  <topological_polar_surface_area>  (642) 
207.35

>  <rotatable_bond_count>  (642) 
4

>  <hydrogen_bond_acceptors>  (642) 
12

>  <hydrogen_bond_donors>  (642) 
7

>  <hydrogen_bond_acceptors_lipinski>  (642) 
12

>  <hydrogen_bond_donors_lipinski>  (642) 
7

>  <lipinski_rule_of_five_violations>  (642) 
3

>  <aromatic_rings_count>  (642) 
4

>  <qed_drug_likeliness>  (642) 
0.11

>  <formal_charge>  (642) 
0

>  <fractioncsp3>  (642) 
0.23

>  <number_of_minimal_rings>  (642) 
5

>  <van_der_walls_volume>  (642) 
422.86

>  <contains_sugar>  (642) 
True

>  <contains_ring_sugars>  (642) 
True

>  <contains_linear_sugars>  (642) 
False

>  <murcko_framework>  (642) 
O1c2ccccc2Cc3cc(ccc13)C4OCCCC4OCc5ccccc5

>  <np_likeness>  (642) 
1.77

>  <chemical_class>  (642) 
Benzopyrans

>  <chemical_sub_class>  (642) 
1-benzopyrans

>  <chemical_super_class>  (642) 
Organoheterocyclic compounds

>  <direct_parent_classification>  (642) 
Xanthones

>  <np_classifier_pathway>  (642) 
Shikimates and Phenylpropanoids

>  <np_classifier_superclass>  (642) 
Xanthones

>  <np_classifier_class>  (642) 
Plant xanthones

>  <np_classifier_is_glycoside>  (642) 
False

>  <organisms>  (642) 
Arrabidaea samydoides|Fridericia samydoides|Polygala caudata

>  <collections>  (642) 
ChemSpider NPs|KNApSaCK|Latin America dataset|NPASS|NuBBEDB|Super Natural II|WikiData Natural Products|ZINC NP

>  <dois>  (642) 
10.1016/S0031-9422(99)00059-X|10.1021/NP030100T|10.1021/np030100t

>  <synonyms>  (642) 
2'-Benzoylmangiferin|2-(2'-O-benzoyl)-C-\u221a\u00e9\u00ac\u2264-D-glucopyranosyl-1367-tetrahydroxyxanthone|CHEMBL466996

>  <cas>  (642) 
nan

$$$$

     RDKit          2D

 31 32  0  0  0  0  0  0  0  0999 V2000
  -13.1711    2.9297    0.0000 C   0  0  0  0  0  0  0  0  0  0  0  0
  -12.5508    1.5640    0.0000 C   0  0  0  0  0  0  0  0  0  0  0  0
  -13.2911    0.2594    0.0000 O   0  0  0  0  0  0  0  0  0  0  0  0
  -12.2792   -0.8478    0.0000 C   0  0  0  0  0  0  0  0  0  0  0  0
  -12.5801   -2.3173    0.0000 O   0  0  0  0  0  0  0  0  0  0  0  0
  -10.9134   -0.2275    0.0000 C   0  0  0  0  0  0  0  0  0  0  0  0
   -9.6088   -0.9678    0.0000 C   0  0  0  0  0  0  0  0  0  0  0  0
   -8.3154   -0.2082    0.0000 C   0  0  0  0  0  0  0  0  0  0  0  0
   -7.0108   -0.9485    0.0000 C   0  0  0  0  0  0  0  0  0  0  0  0
   -5.7174   -0.1888    0.0000 C   0  0  0  0  0  0  0  0  0  0  0  0
   -4.4128   -0.9291    0.0000 C   0  0  0  0  0  0  0  0  0  0  0  0
   -3.1194   -0.1694    0.0000 C   0  0  0  0  0  0  0  0  0  0  0  0
   -1.8148   -0.9097    0.0000 C   0  0  0  0  0  0  0  0  0  0  0  0
   -0.5214   -0.1501    0.0000 C   0  0  0  0  0  0  0  0  0  0  0  0
    0.7832   -0.8904    0.0000 C   0  0  0  0  0  0  0  0  0  0  0  0
    2.0766   -0.1307    0.0000 C   0  0  0  0  0  0  0  0  0  0  0  0
    3.3812   -0.8710    0.0000 C   0  0  0  0  0  0  0  0  0  0  0  0
    4.6746   -0.1114    0.0000 C   0  0  0  0  0  0  0  0  0  0  0  0
    5.9792   -0.8517    0.0000 C   0  0  0  0  0  0  0  0  0  0  0  0
    7.2726   -0.0920    0.0000 C   0  0  0  0  0  0  0  0  0  0  0  0
    8.5772   -0.8323    0.0000 C   0  0  0  0  0  0  0  0  0  0  0  0
    9.8706   -0.0727    0.0000 C   0  0  0  0  0  0  0  0  0  0  0  0
   11.1752   -0.8130    0.0000 C   0  0  0  0  0  0  0  0  0  0  0  0
   12.4686   -0.0533    0.0000 C   0  0  0  0  0  0  0  0  0  0  0  0
   13.7732   -0.7936    0.0000 C   0  0  0  0  0  0  0  0  0  0  0  0
   15.0666   -0.0339    0.0000 C   0  0  0  0  0  0  0  0  0  0  0  0
   15.0554    1.4660    0.0000 C   0  0  0  0  0  0  0  0  0  0  0  0
   13.7508    2.2063    0.0000 C   0  0  0  0  0  0  0  0  0  0  0  0
   12.4574    1.4467    0.0000 C   0  0  0  0  0  0  0  0  0  0  0  0
  -11.0813    1.2631    0.0000 C   0  0  0  0  0  0  0  0  0  0  0  0
   -9.9741    2.2750    0.0000 O   0  0  0  0  0  0  0  0  0  0  0  0
  2  1  1  6
  2  3  1  0
  3  4  1  0
  4  5  2  0
  4  6  1  0
  6  7  1  1
  7  8  1  0
  8  9  1  0
  9 10  1  0
 10 11  1  0
 11 12  1  0
 12 13  1  0
 13 14  1  0
 14 15  1  0
 15 16  1  0
 16 17  1  0
 17 18  1  0
 18 19  1  0
 19 20  1  0
 20 21  1  0
 21 22  1  0
 22 23  1  0
 23 24  1  0
 24 25  2  0
 25 26  1  0
 26 27  2  0
 27 28  1  0
 28 29  2  0
  6 30  1  0
 30 31  1  6
 30  2  1  0
 29 24  1  0
M  END
>  <identifier>  (643) 
CNP0226857.1

>  <canonical_smiles>  (643) 
C[C@H]1OC(=O)[C@H](CCCCCCCCCCCCCCCCCC2=CC=CC=C2)[C@H]1O

>  <standard_inchi>  (643) 
InChI=1S/C28H46O3/c1-24-27(29)26(28(30)31-24)23-19-14-12-10-8-6-4-2-3-5-7-9-11-13-16-20-25-21-17-15-18-22-25/h15,17-18,21-22,24,26-27,29H,2-14,16,19-20,23H2,1H3/t24-,26-,27+/m1/s1

>  <standard_inchi_key>  (643) 
HAUKPNFAKZOCFZ-IEUSDUHPSA-N

>  <name>  (643) 
nan

>  <iupac_name>  (643) 
(3~{R},4~{R},5~{R})-4-hydroxy-5-methyl-3-(17-phenylheptadecyl)tetrahydrofuran-2-one

>  <annotation_level>  (643) 
4

>  <total_atom_count>  (643) 
77

>  <heavy_atom_count>  (643) 
31

>  <molecular_weight>  (643) 
430.67

>  <exact_molecular_weight>  (643) 
430.3447

>  <molecular_formula>  (643) 
C28H46O3

>  <alogp>  (643) 
7.39

>  <topological_polar_surface_area>  (643) 
46.53

>  <rotatable_bond_count>  (643) 
18

>  <hydrogen_bond_acceptors>  (643) 
3

>  <hydrogen_bond_donors>  (643) 
1

>  <hydrogen_bond_acceptors_lipinski>  (643) 
3

>  <hydrogen_bond_donors_lipinski>  (643) 
1

>  <lipinski_rule_of_five_violations>  (643) 
1

>  <aromatic_rings_count>  (643) 
1

>  <qed_drug_likeliness>  (643) 
0.19

>  <formal_charge>  (643) 
0

>  <fractioncsp3>  (643) 
0.75

>  <number_of_minimal_rings>  (643) 
2

>  <van_der_walls_volume>  (643) 
nan

>  <contains_sugar>  (643) 
False

>  <contains_ring_sugars>  (643) 
False

>  <contains_linear_sugars>  (643) 
False

>  <murcko_framework>  (643) 
O1CCC(C1)CCCCCCCCCCCCCCCCCc2ccccc2

>  <np_likeness>  (643) 
0.89

>  <chemical_class>  (643) 
Lactones

>  <chemical_sub_class>  (643) 
Gamma butyrolactones

>  <chemical_super_class>  (643) 
Organoheterocyclic compounds

>  <direct_parent_classification>  (643) 
Gamma butyrolactones

>  <np_classifier_pathway>  (643) 
Polyketides

>  <np_classifier_superclass>  (643) 
Linear polyketides

>  <np_classifier_class>  (643) 
Acetogenins

>  <np_classifier_is_glycoside>  (643) 
False

>  <organisms>  (643) 
Iryanthera grandis|Trichilia claussenii

>  <collections>  (643) 
Latin America dataset|NuBBEDB|WikiData Natural Products|ZINC NP

>  <dois>  (643) 
10.1016/0031-9422(95)00969-8

>  <synonyms>  (643) 
grandinolide

>  <cas>  (643) 
nan

$$$$

     RDKit          2D

 19 21  0  0  0  0  0  0  0  0999 V2000
   -4.2867    2.5450    0.0000 C   0  0  0  0  0  0  0  0  0  0  0  0
   -2.8144    2.2579    0.0000 O   0  0  0  0  0  0  0  0  0  0  0  0
   -2.3269    0.8393    0.0000 C   0  0  0  0  0  0  0  0  0  0  0  0
   -3.3117   -0.2921    0.0000 C   0  0  0  0  0  0  0  0  0  0  0  0
   -2.8241   -1.7107    0.0000 C   0  0  0  0  0  0  0  0  0  0  0  0
   -1.3519   -1.9978    0.0000 C   0  0  0  0  0  0  0  0  0  0  0  0
   -0.8644   -3.4163    0.0000 C   0  0  0  0  0  0  0  0  0  0  0  0
    0.6079   -3.7034    0.0000 C   0  0  0  0  0  0  0  0  0  0  0  0
    1.5927   -2.5719    0.0000 C   0  0  0  0  0  0  0  0  0  0  0  0
    3.0649   -2.8590    0.0000 O   0  0  0  0  0  0  0  0  0  0  0  0
    1.1052   -1.1534    0.0000 O   0  0  0  0  0  0  0  0  0  0  0  0
   -0.3671   -0.8663    0.0000 C   0  0  0  0  0  0  0  0  0  0  0  0
   -0.8546    0.5523    0.0000 C   0  0  0  0  0  0  0  0  0  0  0  0
    0.1301    1.6838    0.0000 C   0  0  0  0  0  0  0  0  0  0  0  0
    0.4172    3.1560    0.0000 O   0  0  0  0  0  0  0  0  0  0  0  0
    1.5487    2.1713    0.0000 C   0  0  0  0  0  0  0  0  0  0  0  0
    3.0210    1.8842    0.0000 C   0  0  0  0  0  0  0  0  0  0  0  0
    4.0057    3.0157    0.0000 C   0  0  0  0  0  0  0  0  0  0  0  0
    3.5085    0.4656    0.0000 C   0  0  0  0  0  0  0  0  0  0  0  0
  1  2  1  0
  2  3  1  0
  3  4  2  0
  4  5  1  0
  5  6  2  0
  6  7  1  0
  7  8  2  0
  8  9  1  0
  9 10  2  0
  9 11  1  0
 11 12  1  0
 12 13  2  0
 14 13  1  6
 14 15  1  0
 15 16  1  0
 16 17  1  1
 17 18  1  0
 17 19  1  0
 13  3  1  0
 16 14  1  0
 12  6  1  0
M  END
>  <identifier>  (644) 
CNP0080620.1

>  <canonical_smiles>  (644) 
COC1=CC=C2C=CC(=O)OC2=C1[C@@H]1O[C@H]1C(C)C

>  <standard_inchi>  (644) 
InChI=1S/C15H16O4/c1-8(2)13-15(19-13)12-10(17-3)6-4-9-5-7-11(16)18-14(9)12/h4-8,13,15H,1-3H3/t13-,15-/m0/s1

>  <standard_inchi_key>  (644) 
GEMXZNKAAIEKGG-ZFWWWQNUSA-N

>  <name>  (644) 
nan

>  <iupac_name>  (644) 
8-[(2~{S},3~{S})-3-isopropyloxiran-2-yl]-7-methoxy-chromen-2-one

>  <annotation_level>  (644) 
3

>  <total_atom_count>  (644) 
35

>  <heavy_atom_count>  (644) 
19

>  <molecular_weight>  (644) 
260.29

>  <exact_molecular_weight>  (644) 
260.10486

>  <molecular_formula>  (644) 
C15H16O4

>  <alogp>  (644) 
2.90

>  <topological_polar_surface_area>  (644) 
51.97

>  <rotatable_bond_count>  (644) 
3

>  <hydrogen_bond_acceptors>  (644) 
4

>  <hydrogen_bond_donors>  (644) 
0

>  <hydrogen_bond_acceptors_lipinski>  (644) 
4

>  <hydrogen_bond_donors_lipinski>  (644) 
0

>  <lipinski_rule_of_five_violations>  (644) 
0

>  <aromatic_rings_count>  (644) 
2

>  <qed_drug_likeliness>  (644) 
0.63

>  <formal_charge>  (644) 
0

>  <fractioncsp3>  (644) 
0.40

>  <number_of_minimal_rings>  (644) 
3

>  <van_der_walls_volume>  (644) 
nan

>  <contains_sugar>  (644) 
False

>  <contains_ring_sugars>  (644) 
False

>  <contains_linear_sugars>  (644) 
False

>  <murcko_framework>  (644) 
O1c2c(cccc2C3OC3)C=CC1

>  <np_likeness>  (644) 
1.60

>  <chemical_class>  (644) 
Coumarins and derivatives

>  <chemical_sub_class>  (644) 
Coumarins and derivatives

>  <chemical_super_class>  (644) 
Phenylpropanoids and polyketides

>  <direct_parent_classification>  (644) 
Coumarins and derivatives

>  <np_classifier_pathway>  (644) 
Shikimates and Phenylpropanoids

>  <np_classifier_superclass>  (644) 
Coumarins

>  <np_classifier_class>  (644) 
Simple coumarins

>  <np_classifier_is_glycoside>  (644) 
False

>  <organisms>  (644) 
Rutaceae

>  <collections>  (644) 
Latin America dataset|NuBBEDB|WikiData Natural Products|ZINC NP

>  <dois>  (644) 
10.1351/PAC200173030617|10.1351/pac200173030617

>  <synonyms>  (644) 
phebalosin

>  <cas>  (644) 
nan

$$$$

     RDKit          2D

 28 32  0  0  0  0  0  0  0  0999 V2000
    4.1432    2.1705    0.0000 C   0  0  0  0  0  0  0  0  0  0  0  0
    4.4352    0.6992    0.0000 C   0  0  0  0  0  0  0  0  0  0  0  0
    5.8335    1.2423    0.0000 C   0  0  0  0  0  0  0  0  0  0  0  0
    5.2129   -0.5834    0.0000 C   0  0  0  0  0  0  0  0  0  0  0  0
    6.7125   -0.5513    0.0000 O   0  0  0  0  0  0  0  0  0  0  0  0
    4.4909   -1.8983    0.0000 C   0  0  0  0  0  0  0  0  0  0  0  0
    2.9912   -1.9304    0.0000 C   0  0  0  0  0  0  0  0  0  0  0  0
    2.2136   -0.6477    0.0000 C   0  0  0  0  0  0  0  0  0  0  0  0
    1.4916   -1.9625    0.0000 C   0  0  0  0  0  0  0  0  0  0  0  0
    0.7139   -0.6798    0.0000 C   0  0  0  0  0  0  0  0  0  0  0  0
   -0.0081   -1.9946    0.0000 C   0  0  0  0  0  0  0  0  0  0  0  0
   -1.5077   -2.0268    0.0000 C   0  0  0  0  0  0  0  0  0  0  0  0
   -2.2854   -0.7441    0.0000 C   0  0  0  0  0  0  0  0  0  0  0  0
   -3.7850   -0.7762    0.0000 C   0  0  0  0  0  0  0  0  0  0  0  0
   -4.7646   -1.9122    0.0000 C   0  0  0  0  0  0  0  0  0  0  0  0
   -6.1477   -1.3316    0.0000 C   0  0  0  0  0  0  0  0  0  0  0  0
   -6.0229    0.1632    0.0000 C   0  0  0  0  0  0  0  0  0  0  0  0
   -4.5627    0.5065    0.0000 C   0  0  0  0  0  0  0  0  0  0  0  0
   -5.4702    1.7008    0.0000 C   0  0  0  0  0  0  0  0  0  0  0  0
   -3.8407    1.8213    0.0000 C   0  0  0  0  0  0  0  0  0  0  0  0
   -2.3410    1.8534    0.0000 C   0  0  0  0  0  0  0  0  0  0  0  0
   -1.5634    0.5707    0.0000 C   0  0  0  0  0  0  0  0  0  0  0  0
   -0.7857   -0.7120    0.0000 C   0  0  0  0  0  0  0  0  0  0  0  0
   -0.0637    0.6028    0.0000 C   0  0  0  0  0  0  0  0  0  0  0  0
   -0.8414    1.8855    0.0000 C   0  0  0  0  0  0  0  0  0  0  0  0
    0.6583    1.9176    0.0000 C   0  0  0  0  0  0  0  0  0  0  0  0
    2.1579    1.9498    0.0000 C   0  0  0  0  0  0  0  0  0  0  0  0
    2.9356    0.6671    0.0000 C   0  0  0  0  0  0  0  0  0  0  0  0
  1  2  1  0
  2  3  1  0
  2  4  1  0
  4  5  1  1
  4  6  1  0
  6  7  1  0
  7  8  1  0
  8  9  1  1
  8 10  1  0
 10 11  1  1
 11 12  1  0
 13 12  1  6
 13 14  1  0
 14 15  2  0
 15 16  1  0
 16 17  1  0
 17 18  1  0
 18 19  1  1
 18 20  1  0
 20 21  1  0
 21 22  1  0
 22 23  1  6
 22 24  1  0
 24 25  1  1
 24 26  1  0
 26 27  1  0
 28 27  1  1
 28  2  1  0
 28  8  1  0
 24 10  1  0
 22 13  1  0
 18 14  1  0
M  END
>  <identifier>  (645) 
CNP0383044.1

>  <canonical_smiles>  (645) 
CC1(C)[C@@H](O)CC[C@]2(C)[C@H]3CC[C@@H]4C5=CCC[C@]5(C)CC[C@@]4(C)[C@]3(C)CC[C@@H]12

>  <standard_inchi>  (645) 
InChI=1S/C27H44O/c1-23(2)20-11-15-27(6)21(25(20,4)14-12-22(23)28)10-9-19-18-8-7-13-24(18,3)16-17-26(19,27)5/h8,19-22,28H,7,9-17H2,1-6H3/t19-,20+,21-,22+,24-,25+,26-,27-/m1/s1

>  <standard_inchi_key>  (645) 
HKKMGGKMNHKQMC-PMEZWALUSA-N

>  <name>  (645) 
nan

>  <iupac_name>  (645) 
(3~{a}~{R},5~{a}~{R},5~{b}~{R},7~{a}~{R},9~{S},11~{a}~{R},11~{b}~{R},13~{a}~{S})-3~{a},5~{a},5~{b},8,8,11~{a}-hexamethyl-2,3,4,5,6,7,7~{a},9,10,11,11~{b},12,13,13~{a}-tetradecahydrocyclopenta[a]chrysen-9-ol

>  <annotation_level>  (645) 
4

>  <total_atom_count>  (645) 
72

>  <heavy_atom_count>  (645) 
28

>  <molecular_weight>  (645) 
384.65

>  <exact_molecular_weight>  (645) 
384.33922

>  <molecular_formula>  (645) 
C27H44O

>  <alogp>  (645) 
7.14

>  <topological_polar_surface_area>  (645) 
20.23

>  <rotatable_bond_count>  (645) 
0

>  <hydrogen_bond_acceptors>  (645) 
1

>  <hydrogen_bond_donors>  (645) 
1

>  <hydrogen_bond_acceptors_lipinski>  (645) 
1

>  <hydrogen_bond_donors_lipinski>  (645) 
1

>  <lipinski_rule_of_five_violations>  (645) 
1

>  <aromatic_rings_count>  (645) 
0

>  <qed_drug_likeliness>  (645) 
0.44

>  <formal_charge>  (645) 
0

>  <fractioncsp3>  (645) 
0.93

>  <number_of_minimal_rings>  (645) 
5

>  <van_der_walls_volume>  (645) 
397.65

>  <contains_sugar>  (645) 
False

>  <contains_ring_sugars>  (645) 
False

>  <contains_linear_sugars>  (645) 
False

>  <murcko_framework>  (645) 
C1=C2C(CC1)CCC3C2CCC4C5CCCCC5CCC34

>  <np_likeness>  (645) 
3.09

>  <chemical_class>  (645) 
Steroids and steroid derivatives

>  <chemical_sub_class>  (645) 
Steroids and steroid derivatives

>  <chemical_super_class>  (645) 
Lipids and lipid-like molecules

>  <direct_parent_classification>  (645) 
Steroids and steroid derivatives

>  <np_classifier_pathway>  (645) 
Terpenoids

>  <np_classifier_superclass>  (645) 
Triterpenoids

>  <np_classifier_class>  (645) 
Oleanane triterpenoids

>  <np_classifier_is_glycoside>  (645) 
False

>  <organisms>  (645) 
Angelica saxatilis|Arabidopsis thaliana|Aspergillus ochraceus|Euphorbia latazi|Streblognathus aethiopicus

>  <collections>  (645) 
CMAUP (cCollective molecular activities of useful plants)|Latin America dataset|NPASS|NuBBEDB|Super Natural II|WikiData Natural Products

>  <dois>  (645) 
10.1021/OL800389Q|10.3390/MOLECULES15096140|10.3390/molecules15096140

>  <synonyms>  (645) 
Lupeol derivative 2

>  <cas>  (645) 
nan

$$$$

     RDKit          2D

 35 40  0  0  0  0  0  0  0  0999 V2000
    3.8135   -5.1992    0.0000 C   0  0  0  0  0  0  0  0  0  0  0  0
    2.7880   -4.1045    0.0000 O   0  0  0  0  0  0  0  0  0  0  0  0
    3.2234   -2.6691    0.0000 C   0  0  0  0  0  0  0  0  0  0  0  0
    4.6841   -2.3284    0.0000 O   0  0  0  0  0  0  0  0  0  0  0  0
    2.1979   -1.5743    0.0000 C   0  0  0  0  0  0  0  0  0  0  0  0
    2.6333   -0.1389    0.0000 C   0  0  0  0  0  0  0  0  0  0  0  0
    4.0940    0.2018    0.0000 C   0  0  0  0  0  0  0  0  0  0  0  0
    4.1759   -1.2960    0.0000 C   0  0  0  0  0  0  0  0  0  0  0  0
    5.5833    0.0223    0.0000 C   0  0  0  0  0  0  0  0  0  0  0  0
    4.5294    1.6372    0.0000 C   0  0  0  0  0  0  0  0  0  0  0  0
    5.9902    1.9779    0.0000 O   0  0  0  0  0  0  0  0  0  0  0  0
    3.5040    2.7320    0.0000 C   0  0  0  0  0  0  0  0  0  0  0  0
    2.0432    2.3913    0.0000 C   0  0  0  0  0  0  0  0  0  0  0  0
    0.8125    3.2489    0.0000 O   0  0  0  0  0  0  0  0  0  0  0  0
   -0.3834    2.3435    0.0000 C   0  0  0  0  0  0  0  0  0  0  0  0
   -0.9637    3.1384    0.0000 C   0  0  0  0  0  0  0  0  0  0  0  0
    0.1081    0.9263    0.0000 C   0  0  0  0  0  0  0  0  0  0  0  0
    0.2942   -0.5621    0.0000 C   0  0  0  0  0  0  0  0  0  0  0  0
   -1.0638   -1.1991    0.0000 C   0  0  0  0  0  0  0  0  0  0  0  0
   -2.0893   -0.1043    0.0000 C   0  0  0  0  0  0  0  0  0  0  0  0
   -2.6723   -1.4864    0.0000 C   0  0  0  0  0  0  0  0  0  0  0  0
   -3.5890   -0.1339    0.0000 C   0  0  0  0  0  0  0  0  0  0  0  0
   -4.3132   -1.4474    0.0000 C   0  0  0  0  0  0  0  0  0  0  0  0
   -3.6763   -2.8054    0.0000 C   0  0  0  0  0  0  0  0  0  0  0  0
   -4.7710   -3.8309    0.0000 O   0  0  0  0  0  0  0  0  0  0  0  0
   -6.0846   -3.1066    0.0000 C   0  0  0  0  0  0  0  0  0  0  0  0
   -5.8017   -1.6335    0.0000 C   0  0  0  0  0  0  0  0  0  0  0  0
   -4.3644    1.1502    0.0000 O   0  0  0  0  0  0  0  0  0  0  0  0
   -3.6401    2.4637    0.0000 C   0  0  0  0  0  0  0  0  0  0  0  0
   -4.4156    3.7477    0.0000 O   0  0  0  0  0  0  0  0  0  0  0  0
   -2.1404    2.4933    0.0000 C   0  0  0  0  0  0  0  0  0  0  0  0
   -1.7738    3.4066    0.0000 O   0  0  0  0  0  0  0  0  0  0  0  0
   -1.3650    1.2092    0.0000 C   0  0  0  0  0  0  0  0  0  0  0  0
    1.6078    0.9558    0.0000 C   0  0  0  0  0  0  0  0  0  0  0  0
    1.0248   -0.4262    0.0000 C   0  0  0  0  0  0  0  0  0  0  0  0
  1  2  1  0
  2  3  1  0
  3  4  2  0
  3  5  1  0
  6  5  1  6
  6  7  1  0
  7  8  1  0
  7  9  1  0
  7 10  1  0
 10 11  2  0
 10 12  1  0
 12 13  2  0
 13 14  1  0
 14 15  1  0
 15 16  1  6
 15 17  1  0
 17 18  1  6
 18 19  1  0
 19 20  1  0
 20 21  1  6
 20 22  1  0
 22 23  1  6
 23 24  2  0
 24 25  1  0
 25 26  1  0
 26 27  2  0
 22 28  1  0
 28 29  1  0
 29 30  2  0
 29 31  1  0
 31 32  1  6
 33 31  1  1
 17 34  1  0
 34 35  1  6
 34  6  1  0
 34 13  1  0
 33 15  1  0
 33 17  1  0
 33 20  1  0
 27 23  1  0
M  END
>  <identifier>  (646) 
CNP0198345.1

>  <canonical_smiles>  (646) 
COC(=O)C[C@H]1C(C)(C)C(=O)C=C2O[C@@]3(C)[C@@]4(CC[C@@]5(C)[C@H](C6=COC=C6)OC(=O)[C@H](O)[C@@]345)[C@@]21C

>  <standard_inchi>  (646) 
InChI=1S/C27H32O8/c1-22(2)15(11-18(29)32-6)24(4)17(12-16(22)28)35-25(5)26(24)9-8-23(3)20(14-7-10-33-13-14)34-21(31)19(30)27(23,25)26/h7,10,12-13,15,19-20,30H,8-9,11H2,1-6H3/t15-,19-,20-,23-,24+,25-,26+,27+/m0/s1

>  <standard_inchi_key>  (646) 
FZEJJRARYOTNNM-UYNFRDAYSA-N

>  <name>  (646) 
nan

>  <iupac_name>  (646) 
methyl 2-[(1~{S},2~{S},8~{R},9~{S},10~{S},13~{R},14~{R},17~{R})-14-(3-furyl)-17-hydroxy-2,7,7,9,13-pentamethyl-6,16-dioxo-3,15-dioxapentacyclo[8.7.0.0^{1,13}.0^{2,10}.0^{4,9}]heptadec-4-en-8-yl]acetate

>  <annotation_level>  (646) 
4

>  <total_atom_count>  (646) 
67

>  <heavy_atom_count>  (646) 
35

>  <molecular_weight>  (646) 
484.55

>  <exact_molecular_weight>  (646) 
484.20972

>  <molecular_formula>  (646) 
C27H32O8

>  <alogp>  (646) 
3.49

>  <topological_polar_surface_area>  (646) 
112.27

>  <rotatable_bond_count>  (646) 
3

>  <hydrogen_bond_acceptors>  (646) 
8

>  <hydrogen_bond_donors>  (646) 
1

>  <hydrogen_bond_acceptors_lipinski>  (646) 
8

>  <hydrogen_bond_donors_lipinski>  (646) 
1

>  <lipinski_rule_of_five_violations>  (646) 
0

>  <aromatic_rings_count>  (646) 
1

>  <qed_drug_likeliness>  (646) 
0.65

>  <formal_charge>  (646) 
0

>  <fractioncsp3>  (646) 
0.67

>  <number_of_minimal_rings>  (646) 
6

>  <van_der_walls_volume>  (646) 
nan

>  <contains_sugar>  (646) 
False

>  <contains_ring_sugars>  (646) 
False

>  <contains_linear_sugars>  (646) 
False

>  <murcko_framework>  (646) 
o1ccc(c1)C2OCCC34C5OC6=CCCCC6C54CCC23

>  <np_likeness>  (646) 
2.20

>  <chemical_class>  (646) 
Oxocins

>  <chemical_sub_class>  (646) 
Oxocins

>  <chemical_super_class>  (646) 
Organoheterocyclic compounds

>  <direct_parent_classification>  (646) 
Oxocins

>  <np_classifier_pathway>  (646) 
Terpenoids

>  <np_classifier_superclass>  (646) 
Triterpenoids

>  <np_classifier_class>  (646) 
Limonoids

>  <np_classifier_is_glycoside>  (646) 
False

>  <organisms>  (646) 
Hortia oreadica

>  <collections>  (646) 
Latin America dataset|NuBBEDB|WikiData Natural Products|ZINC NP

>  <dois>  (646) 
10.1016/j.phytochem.2011.12.016|10.3390/MOLECULES190812031

>  <synonyms>  (646) 
hortiolide C

>  <cas>  (646) 
nan

$$$$

     RDKit          2D

 14 16  0  0  0  0  0  0  0  0999 V2000
    2.4662   -2.1136    0.0000 O   0  0  0  0  0  0  0  0  0  0  0  0
    1.9913   -0.6908    0.0000 C   0  0  0  0  0  0  0  0  0  0  0  0
    2.9861    0.4319    0.0000 C   0  0  0  0  0  0  0  0  0  0  0  0
    2.5112    1.8548    0.0000 C   0  0  0  0  0  0  0  0  0  0  0  0
    1.0415    2.1549    0.0000 C   0  0  0  0  0  0  0  0  0  0  0  0
    0.0468    1.0322    0.0000 C   0  0  0  0  0  0  0  0  0  0  0  0
    0.5217   -0.3906    0.0000 C   0  0  0  0  0  0  0  0  0  0  0  0
   -0.4731   -1.5133    0.0000 C   0  0  0  0  0  0  0  0  0  0  0  0
    0.0018   -2.9362    0.0000 O   0  0  0  0  0  0  0  0  0  0  0  0
   -1.9428   -1.2132    0.0000 C   0  0  0  0  0  0  0  0  0  0  0  0
   -3.4124   -0.9131    0.0000 O   0  0  0  0  0  0  0  0  0  0  0  0
   -2.4177    0.2096    0.0000 C   0  0  0  0  0  0  0  0  0  0  0  0
   -1.4229    1.3323    0.0000 C   0  0  0  0  0  0  0  0  0  0  0  0
   -1.8978    2.7552    0.0000 O   0  0  0  0  0  0  0  0  0  0  0  0
  1  2  1  0
  2  3  2  0
  3  4  1  0
  4  5  2  0
  5  6  1  0
  6  7  2  0
  7  8  1  0
  8  9  1  1
  8 10  1  0
 10 11  1  1
 12 11  1  1
 12 13  1  0
 13 14  1  1
  7  2  1  0
 12 10  1  0
 13  6  1  0
M  END
>  <identifier>  (647) 
CNP0323668.2

>  <canonical_smiles>  (647) 
OC1=CC=CC2=C1[C@@H](O)[C@H]1O[C@H]1[C@H]2O

>  <standard_inchi>  (647) 
InChI=1S/C10H10O4/c11-5-3-1-2-4-6(5)8(13)10-9(14-10)7(4)12/h1-3,7-13H/t7-,8+,9-,10+/m0/s1

>  <standard_inchi_key>  (647) 
GUCDQYRLEPKXBP-QCLAVDOMSA-N

>  <name>  (647) 
nan

>  <iupac_name>  (647) 
(1~{a}~{R},2~{R},7~{S},7~{a}~{S})-1~{a},2,7,7~{a}-tetrahydronaphtho[2,3-b]oxirene-2,3,7-triol

>  <annotation_level>  (647) 
4

>  <total_atom_count>  (647) 
24

>  <heavy_atom_count>  (647) 
14

>  <molecular_weight>  (647) 
194.19

>  <exact_molecular_weight>  (647) 
194.05791

>  <molecular_formula>  (647) 
C10H10O4

>  <alogp>  (647) 
0.24

>  <topological_polar_surface_area>  (647) 
73.22

>  <rotatable_bond_count>  (647) 
0

>  <hydrogen_bond_acceptors>  (647) 
4

>  <hydrogen_bond_donors>  (647) 
3

>  <hydrogen_bond_acceptors_lipinski>  (647) 
4

>  <hydrogen_bond_donors_lipinski>  (647) 
3

>  <lipinski_rule_of_five_violations>  (647) 
0

>  <aromatic_rings_count>  (647) 
1

>  <qed_drug_likeliness>  (647) 
0.52

>  <formal_charge>  (647) 
0

>  <fractioncsp3>  (647) 
0.40

>  <number_of_minimal_rings>  (647) 
3

>  <van_der_walls_volume>  (647) 
nan

>  <contains_sugar>  (647) 
False

>  <contains_ring_sugars>  (647) 
False

>  <contains_linear_sugars>  (647) 
False

>  <murcko_framework>  (647) 
O1C2Cc3ccccc3CC12

>  <np_likeness>  (647) 
1.85

>  <chemical_class>  (647) 
Tetralins

>  <chemical_sub_class>  (647) 
Tetralins

>  <chemical_super_class>  (647) 
Benzenoids

>  <direct_parent_classification>  (647) 
Tetralins

>  <np_classifier_pathway>  (647) 
Polyketides

>  <np_classifier_superclass>  (647) 
Naphthalenes

>  <np_classifier_class>  (647) 
Naphthalenes and derivatives

>  <np_classifier_is_glycoside>  (647) 
False

>  <organisms>  (647) 
Papulaspora immersa

>  <collections>  (647) 
Latin America dataset|NuBBEDB|WikiData Natural Products|ZINC NP

>  <dois>  (647) 
10.1002/CBDV.201000011|10.1002/cbdv.201000011

>  <synonyms>  (647) 
rel-(1aS2S7R7aR)-1a277a-Tetrahydronaphtho[23-b]oxirene-237-triol

>  <cas>  (647) 
nan

$$$$

     RDKit          2D

 14 13  0  0  0  0  0  0  0  0999 V2000
   -8.4468   -0.2996    0.0000 C   0  0  0  0  0  0  0  0  0  0  0  0
   -7.1411    0.4388    0.0000 C   0  0  0  0  0  0  0  0  0  0  0  0
   -5.8488   -0.3228    0.0000 C   0  0  0  0  0  0  0  0  0  0  0  0
   -4.5431    0.4156    0.0000 C   0  0  0  0  0  0  0  0  0  0  0  0
   -3.2508   -0.3460    0.0000 C   0  0  0  0  0  0  0  0  0  0  0  0
   -1.9451    0.3924    0.0000 C   0  0  0  0  0  0  0  0  0  0  0  0
   -0.6528   -0.3692    0.0000 C   0  0  0  0  0  0  0  0  0  0  0  0
    0.6528    0.3692    0.0000 C   0  0  0  0  0  0  0  0  0  0  0  0
    1.9451   -0.3924    0.0000 C   0  0  0  0  0  0  0  0  0  0  0  0
    3.2508    0.3460    0.0000 C   0  0  0  0  0  0  0  0  0  0  0  0
    4.5431   -0.4156    0.0000 C   0  0  0  0  0  0  0  0  0  0  0  0
    5.8488    0.3228    0.0000 C   0  0  0  0  0  0  0  0  0  0  0  0
    7.1411   -0.4388    0.0000 C   0  0  0  0  0  0  0  0  0  0  0  0
    8.4468    0.2996    0.0000 C   0  0  0  0  0  0  0  0  0  0  0  0
  1  2  1  0
  2  3  1  0
  3  4  1  0
  4  5  1  0
  5  6  1  0
  6  7  1  0
  7  8  1  0
  8  9  1  0
  9 10  1  0
 10 11  1  0
 11 12  1  0
 12 13  1  0
 13 14  1  0
M  END
>  <identifier>  (648) 
CNP0293304.0

>  <canonical_smiles>  (648) 
CCCCCCCCCCCCCC

>  <standard_inchi>  (648) 
InChI=1S/C14H30/c1-3-5-7-9-11-13-14-12-10-8-6-4-2/h3-14H2,1-2H3

>  <standard_inchi_key>  (648) 
BGHCVCJVXZWKCC-UHFFFAOYSA-N

>  <name>  (648) 
Tetradecane

>  <iupac_name>  (648) 
tetradecane

>  <annotation_level>  (648) 
5

>  <total_atom_count>  (648) 
44

>  <heavy_atom_count>  (648) 
14

>  <molecular_weight>  (648) 
198.39

>  <exact_molecular_weight>  (648) 
198.23475

>  <molecular_formula>  (648) 
C14H30

>  <alogp>  (648) 
5.71

>  <topological_polar_surface_area>  (648) 
0.00

>  <rotatable_bond_count>  (648) 
11

>  <hydrogen_bond_acceptors>  (648) 
0

>  <hydrogen_bond_donors>  (648) 
0

>  <hydrogen_bond_acceptors_lipinski>  (648) 
0

>  <hydrogen_bond_donors_lipinski>  (648) 
0

>  <lipinski_rule_of_five_violations>  (648) 
1

>  <aromatic_rings_count>  (648) 
0

>  <qed_drug_likeliness>  (648) 
0.37

>  <formal_charge>  (648) 
0

>  <fractioncsp3>  (648) 
1.00

>  <number_of_minimal_rings>  (648) 
0

>  <van_der_walls_volume>  (648) 
243.58

>  <contains_sugar>  (648) 
False

>  <contains_ring_sugars>  (648) 
False

>  <contains_linear_sugars>  (648) 
False

>  <murcko_framework>  (648) 
nan

>  <np_likeness>  (648) 
0.17

>  <chemical_class>  (648) 
Saturated hydrocarbons

>  <chemical_sub_class>  (648) 
Alkanes

>  <chemical_super_class>  (648) 
Hydrocarbons

>  <direct_parent_classification>  (648) 
Alkanes

>  <np_classifier_pathway>  (648) 
Fatty acids

>  <np_classifier_superclass>  (648) 
Fatty acyls

>  <np_classifier_class>  (648) 
Hydrocarbons

>  <np_classifier_is_glycoside>  (648) 
False

>  <organisms>  (648) 
Agave decipiens|Albatrellus cristatus|Allium ampeloprasum|Alphinia galanga|Alpinia galanga|Alstonia muelleriana|Angelica acutiloba|Angelica gigas|Angelica sinensis|Annona squamosa|Armoracia rusticana|Artemisia cina|Asarum heterotropoides|Asarum sieboldii|Asiasarum heterotropoides|Asiasarum sieboldii|Aster scaber|Atalantia buxifolia|Bistorta manshuriensis|Bistorta officinalis|Brassica napus|Camellia sinensis|Camptotheca acuminata|Cannabis sativa|Capsicum annuum|Caryocar coriaceum|Ceratophyllum demersum|Chrysanthemum macrocarpum|Cirsium dipsacolepis|Cistus creticus|Cistus ladanifer|Cistus laurifolius|Cistus monspeliensis|Citrullus lanatus subsp. vulgaris|Cnidium officinale|Conioselinum anthriscoides|Coreopsis nodosa|Coriandrum sativum|Cynanchum stauntoni|Cynanchum stauntonii|Dacrydium cupressinum|Daphne odora|Dendrobium officinale|Digitalis purpurea|Diplotaxis harra|Dryopteris assimilis|Dryopteris carthusiana|Dryopteris expansa|Dryopteris filix-mas|Dryopteris spinulosa|Erucaria microcarpa|Etlingera elatior|Festuca arundinacea|Festuca rubra|Fragaria|Fragaria x ananassa|Glycine tomentella|Gymnodinium nagasakiense|Haematococcus lacustris|Hamamelis virginiana|Herba meconpsis integrifoliae|Homo sapiens|Humulus lupulus|Hypoxylon rubiginosum|Hyssopus officinalis|Juglans nigra|Karenia mikimotoi|Lantana camara|Lavandula angustifolia|Leonurus heterophyllus|Leonurus japonicus|Ligusticum chuanxiong|Ligusticum sinense|Ligusticum striatum|Lycium barbarum|Lycium chinense|Lycopersicon Esculentum|Lycopersicon esculentum Mill.|Magnolia obovata|Magnolia officinalis|Mangifera indica|Manilkara bidentata|Melaleuca quinquenervia|Melia azedarach|Melia azedarach var. toosendan|Meliosma simplicifolia|Melissa officinalis|Mimusops elengi|Mosla chinensis|Nelumbo lutea|Nelumbo nucifera|Nepeta nuda|Nicotiana tabacum|Nicotiana undulata|Oecophylla smaragdina|Orbignya martiana|Orthosiphon aristatus|Orthosiphon grandiflorus|Oryza sativa|Panax ginseng|Panax notoginseng|Panax pseudo-ginseng var.notoginseng|Panax schinseng|Passiflora incarnata|Piper nigrum|Pistacia vera|Plectranthus glabratus|Porphyra tenera|Pterocladiella tenuis|Quercus myrsinifolia|Rhaponticum uniflorum|Rhizoprionodon acutus|Rhododendron dauricum|Saccharomyces pastori|Sauromatum venosum|Scleromitrion diffusum|Scutellaria baicalensis|Senecio cerberoanus|Senecio paludaffinis|Sideritis hispida|Sideritis syriaca|Sideritis taurica|Streptomyces flocculus|Streptomyces sp. WD5 (MK491056)|Tachigalia paniculata|Terminalia chebula|Trametes lilacinogilva|Trigonella foenum-graecum|Trigonella grandiflora|Tripolium pannonicum|Typhonium flagelliforme|Uvaria calamistrata|Vanilla madagascariensis|Vanilla planifolia|Vanilla tahitensis|Vincetoxicum glaucescens|Vincetoxicum stauntonii|Vitis vinifera|Zanthoxylum bungeanum|Zanthoxylum piperitum|Zanthoxylum schinifolium|bellis perennis|liquorice|potato

>  <collections>  (648) 
ANPDB|Australian natural products|CMAUP (cCollective molecular activities of useful plants)|ChEBI NPs|EMNPD|FooDB|HIT (Herbal Ingredients Targets)|KNApSaCK|Latin America dataset|NANPDB (Natural Products from Northern African Sources)|NPASS|NuBBEDB|Phyto4Health|StreptomeDB|Super Natural II|TCMDB-Taiwan (Traditional Chinese Medicine database)|TCMID (Traditional Chinese Medicine Integrated Database)|TIPdb (database of Taiwan indigenous plants)|UNPD (Universal Natural Products Database)|VietHerb|WikiData Natural Products|ZINC NP

>  <dois>  (648) 
10.1002/(SICI)1099-1026(199901/02)14:1<15::AID-FFJ777>3.0.CO;2-M|10.1002/(SICI)1099-1573(199906)13:4<329::AID-PTR458>3.0.CO;2-U|10.1002/CJOC.201180379|10.1002/FFJ.1105|10.1002/FFJ.1588|10.1002/JSFA.8889|10.1002/JSSC.200900378|10.1007/S10886-013-0311-2|10.1007/s10600-009-9209-1|10.1016/0031-9422(90)83036-Z|10.1016/0031-9422(91)84185-U|10.1016/0031-9422(92)80160-G|10.1016/0031-9422(95)00183-8|10.1016/J.CHROMA.2014.10.058|10.1016/J.FOODCHEM.2008.09.107|10.1016/J.FOODCHEM.2012.09.111|10.1016/J.INDCROP.2012.02.029|10.1016/J.JPBA.2007.01.024|10.1016/J.PHYTOCHEM.2009.06.013|10.1016/J.RENENE.2017.12.012|10.1016/S0031-9422(00)81427-2|10.1016/S0031-9422(00)84709-3|10.1016/S0031-9422(00)90341-8|10.1016/S0031-9422(00)94756-3|10.1016/S0305-1978(99)00075-7|10.1016/S0367-326X(99)00057-X|10.1016/S0378-8741(01)00274-4|10.1016/S0378-8741(02)00172-1|10.1016/j.phytochem.2009.06.013|10.1021/JF00029A021|10.1021/JF00034A033|10.1021/JF00039A035|10.1021/JF00120A031|10.1021/JF60214A042|10.1021/JF960927B|10.1021/NP50008A001|10.1021/jf00120a031|10.1039/JR9630000677|10.1055/S-0028-1099475|10.1055/S-2006-957420|10.1055/S-2007-969136|10.1055/S-2007-969591|10.1055/S-2007-969987|10.1071/bi9810115|10.1080/00021369.1990.10870456|10.1080/03081080802049013|10.1080/10412905.1991.9697919|10.1080/10412905.1991.9697932|10.1080/10412905.1991.9697935|10.1080/10412905.1992.9698128|10.1080/10412905.1993.9698191|10.1080/10412905.1993.9698226|10.1080/10412905.1994.9698400|10.1080/10412905.1994.9698418|10.1080/10412905.1994.9698425|10.1080/10412905.1994.9699345|10.1080/10412905.1995.9698558|10.1080/10412905.1995.9698580|10.1080/10412905.1997.9700727|10.1080/14620316.2003.11511610|10.1088/1752-7155/8/1/014001|10.1155/2017/7436259|10.1186/1471-2180-11-219|10.1271/BBB1961.47.483|10.1271/BBB1961.51.1449|10.1271/BBB1961.54.3335|10.1300/J044V05N02_05|10.1515/ZNC-1984-7-802|10.1631/JZUS.B1200086|10.2166/wst.2019.231|10.3390/MOLECULES18010963|10.3724/SP.J.1238.2012.00106|10.7235/HORT.2013.12200

>  <synonyms>  (648) 
03LY784Y58|4-01-00-00520 (Beilstein Handbook Reference)|629-59-4|74664-93-0|90622-46-1|AI3-04240|AKOS004910010|AS-56340|BRN 1733859|C72FCDE9-545A-4C7D-9907-1DFACCF43A82|CAS-629-59-4|CCRIS 715|CH3-(CH2)12-CH3|CH3-[CH2]12-CH3|CHEBI:41253|CHEMBL135488|CS-0146758|DB-054348|DTXCID707267|DTXSID101022622|DTXSID1027267|EC 211-096-0|EINECS 211-096-0|EINECS 292-448-0|G68413|HSDB 5728|HY-W094846|LMFA11000586|MFCD00008986|N-TETRADECANE|N-TETRADECANE [HSDB]|N-Tetradecane|NCGC00257151-01|NS00010784|NSC 72440|NSC-72440|Q150808|STL280540|SY010359|T0079|TETRADECANE [INCI]|Tetradecane olefine|Tetradecane, 99%|Tetradecane, N-|Tetradecane, analytical standard|Tetradecane, certified reference material, TraceCERT(R)|Tetradecane, olefine free, >=99.0% (GC)|Tetradecane_GurudeebanSatyavani|Tetradekan|Tox21_303277|Tridecane, methyl-|UNII-03LY784Y58|n-Tetradecane 10 microg\/mL in Hexane|n-tetradecane

>  <cas>  (648) 
629-59-4|90622-46-1|74664-93-0

$$$$

     RDKit          2D

 21 22  0  0  0  0  0  0  0  0999 V2000
   -6.1824   -2.4799    0.0000 O   0  0  0  0  0  0  0  0  0  0  0  0
   -5.8602   -1.0149    0.0000 C   0  0  0  0  0  0  0  0  0  0  0  0
   -6.9679   -0.0034    0.0000 C   0  0  0  0  0  0  0  0  0  0  0  0
   -6.6457    1.4616    0.0000 C   0  0  0  0  0  0  0  0  0  0  0  0
   -5.2158    1.9150    0.0000 C   0  0  0  0  0  0  0  0  0  0  0  0
   -4.1082    0.9035    0.0000 C   0  0  0  0  0  0  0  0  0  0  0  0
   -2.6784    1.3570    0.0000 C   0  0  0  0  0  0  0  0  0  0  0  0
   -1.5708    0.3455    0.0000 C   0  0  0  0  0  0  0  0  0  0  0  0
   -1.8930   -1.1195    0.0000 O   0  0  0  0  0  0  0  0  0  0  0  0
   -0.1410    0.7989    0.0000 C   0  0  0  0  0  0  0  0  0  0  0  0
    0.9666   -0.2126    0.0000 C   0  0  0  0  0  0  0  0  0  0  0  0
    0.6444   -1.6776    0.0000 O   0  0  0  0  0  0  0  0  0  0  0  0
    2.3965    0.2409    0.0000 C   0  0  0  0  0  0  0  0  0  0  0  0
    3.5041   -0.7707    0.0000 C   0  0  0  0  0  0  0  0  0  0  0  0
    4.9339   -0.3172    0.0000 C   0  0  0  0  0  0  0  0  0  0  0  0
    6.0415   -1.3287    0.0000 C   0  0  0  0  0  0  0  0  0  0  0  0
    7.4713   -0.8752    0.0000 C   0  0  0  0  0  0  0  0  0  0  0  0
    7.7935    0.5897    0.0000 C   0  0  0  0  0  0  0  0  0  0  0  0
    6.6859    1.6013    0.0000 C   0  0  0  0  0  0  0  0  0  0  0  0
    5.2561    1.1478    0.0000 C   0  0  0  0  0  0  0  0  0  0  0  0
   -4.4304   -0.5615    0.0000 O   0  0  0  0  0  0  0  0  0  0  0  0
  1  2  2  0
  2  3  1  0
  3  4  2  0
  4  5  1  0
  5  6  1  0
  6  7  1  6
  7  8  1  0
  8  9  1  6
  8 10  1  0
 10 11  1  0
 11 12  1  6
 11 13  1  0
 13 14  2  0
 14 15  1  0
 15 16  2  0
 16 17  1  0
 17 18  2  0
 18 19  1  0
 19 20  2  0
  6 21  1  0
 21  2  1  0
 20 15  1  0
M  END
>  <identifier>  (649) 
CNP0273296.2

>  <canonical_smiles>  (649) 
O=C1C=CC[C@H](C[C@@H](O)C[C@@H](O)/C=C/C2=CC=CC=C2)O1

>  <standard_inchi>  (649) 
InChI=1S/C17H20O4/c18-14(10-9-13-5-2-1-3-6-13)11-15(19)12-16-7-4-8-17(20)21-16/h1-6,8-10,14-16,18-19H,7,11-12H2/b10-9+/t14-,15-,16+/m0/s1

>  <standard_inchi_key>  (649) 
GOQOIZFMLWZVMB-KYCPFSKISA-N

>  <name>  (649) 
nan

>  <iupac_name>  (649) 
(2~{R})-2-[(~{E},2~{S},4~{R})-2,4-dihydroxy-6-phenyl-hex-5-enyl]-2,3-dihydropyran-6-one

>  <annotation_level>  (649) 
4

>  <total_atom_count>  (649) 
41

>  <heavy_atom_count>  (649) 
21

>  <molecular_weight>  (649) 
288.34

>  <exact_molecular_weight>  (649) 
288.13616

>  <molecular_formula>  (649) 
C17H20O4

>  <alogp>  (649) 
2.07

>  <topological_polar_surface_area>  (649) 
66.76

>  <rotatable_bond_count>  (649) 
6

>  <hydrogen_bond_acceptors>  (649) 
4

>  <hydrogen_bond_donors>  (649) 
2

>  <hydrogen_bond_acceptors_lipinski>  (649) 
4

>  <hydrogen_bond_donors_lipinski>  (649) 
2

>  <lipinski_rule_of_five_violations>  (649) 
0

>  <aromatic_rings_count>  (649) 
1

>  <qed_drug_likeliness>  (649) 
0.79

>  <formal_charge>  (649) 
0

>  <fractioncsp3>  (649) 
0.35

>  <number_of_minimal_rings>  (649) 
2

>  <van_der_walls_volume>  (649) 
271.66

>  <contains_sugar>  (649) 
False

>  <contains_ring_sugars>  (649) 
False

>  <contains_linear_sugars>  (649) 
False

>  <murcko_framework>  (649) 
O1CC=CCC1CCCCC=Cc2ccccc2

>  <np_likeness>  (649) 
2.27

>  <chemical_class>  (649) 
Cinnamyl alcohols

>  <chemical_sub_class>  (649) 
Cinnamyl alcohols

>  <chemical_super_class>  (649) 
Phenylpropanoids and polyketides

>  <direct_parent_classification>  (649) 
Cinnamyl alcohols

>  <np_classifier_pathway>  (649) 
Shikimates and Phenylpropanoids

>  <np_classifier_superclass>  (649) 
Styrylpyrones

>  <np_classifier_class>  (649) 
Kavalactones and derivatives

>  <np_classifier_is_glycoside>  (649) 
False

>  <organisms>  (649) 
Cryptocarya mandioccana|Cryptocarya moschata

>  <collections>  (649) 
KNApSaCK|Latin America dataset|NuBBEDB|Super Natural II|WikiData Natural Products|ZINC NP

>  <dois>  (649) 
10.1002/pca.818|10.1016/S0031-9422(99)00532-4|10.1016/j.bse.2006.10.013|10.1016/j.bse.2008.05.001|10.1365/S10337-009-1338-Y|10.1365/s10337-009-1338-y

>  <synonyms>  (649) 
Cryptomoscatone D2

>  <cas>  (649) 
nan

$$$$

     RDKit          2D

 31 34  0  0  0  0  0  0  0  0999 V2000
    7.6683   -3.8358    0.0000 C   0  0  0  0  0  0  0  0  0  0  0  0
    7.3520   -2.3695    0.0000 C   0  0  0  0  0  0  0  0  0  0  0  0
    8.4637   -1.3625    0.0000 C   0  0  0  0  0  0  0  0  0  0  0  0
    5.9241   -1.9103    0.0000 C   0  0  0  0  0  0  0  0  0  0  0  0
    5.6078   -0.4440    0.0000 C   0  0  0  0  0  0  0  0  0  0  0  0
    4.1799    0.0153    0.0000 C   0  0  0  0  0  0  0  0  0  0  0  0
    3.8636    1.4816    0.0000 C   0  0  0  0  0  0  0  0  0  0  0  0
    4.9753    2.4886    0.0000 C   0  0  0  0  0  0  0  0  0  0  0  0
    2.4356    1.9408    0.0000 C   0  0  0  0  0  0  0  0  0  0  0  0
    1.9679    3.3660    0.0000 C   0  0  0  0  0  0  0  0  0  0  0  0
    0.4679    3.3615    0.0000 C   0  0  0  0  0  0  0  0  0  0  0  0
    0.0086    1.9336    0.0000 C   0  0  0  0  0  0  0  0  0  0  0  0
   -1.1091    2.9339    0.0000 C   0  0  0  0  0  0  0  0  0  0  0  0
   -1.3599    1.3194    0.0000 C   0  0  0  0  0  0  0  0  0  0  0  0
   -2.5760    2.1974    0.0000 C   0  0  0  0  0  0  0  0  0  0  0  0
   -3.9445    1.5832    0.0000 C   0  0  0  0  0  0  0  0  0  0  0  0
   -4.0969    0.0910    0.0000 C   0  0  0  0  0  0  0  0  0  0  0  0
   -5.4654   -0.5232    0.0000 C   0  0  0  0  0  0  0  0  0  0  0  0
   -6.9614   -0.6323    0.0000 C   0  0  0  0  0  0  0  0  0  0  0  0
   -5.8326    0.9311    0.0000 C   0  0  0  0  0  0  0  0  0  0  0  0
   -5.6177   -2.0155    0.0000 C   0  0  0  0  0  0  0  0  0  0  0  0
   -6.9862   -2.6297    0.0000 O   0  0  0  0  0  0  0  0  0  0  0  0
   -4.4015   -2.8935    0.0000 C   0  0  0  0  0  0  0  0  0  0  0  0
   -3.0331   -2.2793    0.0000 C   0  0  0  0  0  0  0  0  0  0  0  0
   -2.8807   -0.7871    0.0000 C   0  0  0  0  0  0  0  0  0  0  0  0
   -1.6646   -1.6651    0.0000 C   0  0  0  0  0  0  0  0  0  0  0  0
   -1.5122   -0.1729    0.0000 C   0  0  0  0  0  0  0  0  0  0  0  0
   -0.2961   -1.0509    0.0000 C   0  0  0  0  0  0  0  0  0  0  0  0
    1.0724   -0.4367    0.0000 C   0  0  0  0  0  0  0  0  0  0  0  0
    1.2248    1.0555    0.0000 C   0  0  0  0  0  0  0  0  0  0  0  0
    2.5260    0.3094    0.0000 C   0  0  0  0  0  0  0  0  0  0  0  0
  1  2  1  0
  2  3  1  0
  2  4  2  0
  4  5  1  0
  5  6  1  0
  6  7  1  0
  7  8  1  1
  7  9  1  0
  9 10  1  1
 10 11  1  0
 11 12  1  0
 12 13  1  6
 12 14  1  0
 14 15  2  0
 15 16  1  0
 17 16  1  6
 17 18  1  0
 18 19  1  0
 18 20  1  0
 18 21  1  0
 21 22  2  0
 21 23  1  0
 23 24  1  0
 24 25  1  0
 25 26  1  6
 25 27  1  0
 27 28  1  6
 28 29  1  0
 29 30  1  0
 30 31  1  1
 30  9  1  0
 30 12  1  0
 27 14  1  0
 25 17  1  0
M  END
>  <identifier>  (650) 
CNP0288260.2

>  <canonical_smiles>  (650) 
CC(C)=CCC[C@H](C)[C@@H]1CC[C@]2(C)C3=CC[C@H]4C(C)(C)C(=O)CC[C@]4(C)[C@H]3CC[C@@]12C

>  <standard_inchi>  (650) 
InChI=1S/C30H48O/c1-20(2)10-9-11-21(3)22-14-18-30(8)24-12-13-25-27(4,5)26(31)16-17-28(25,6)23(24)15-19-29(22,30)7/h10,12,21-23,25H,9,11,13-19H2,1-8H3/t21-,22-,23-,25-,28+,29-,30+/m0/s1

>  <standard_inchi_key>  (650) 
QQWIMVRGPKFDGM-BWMIPAFUSA-N

>  <name>  (650) 
Tirucalla-7,24-dien-3-one

>  <iupac_name>  (650) 
(5~{R},9~{R},10~{R},13~{S},14~{S},17~{S})-17-[(1~{S})-1,5-dimethylhex-4-enyl]-4,4,10,13,14-pentamethyl-1,2,5,6,9,11,12,15,16,17-decahydrocyclopenta[a]phenanthren-3-one

>  <annotation_level>  (650) 
5

>  <total_atom_count>  (650) 
79

>  <heavy_atom_count>  (650) 
31

>  <molecular_weight>  (650) 
424.71

>  <exact_molecular_weight>  (650) 
424.37052

>  <molecular_formula>  (650) 
C30H48O

>  <alogp>  (650) 
8.54

>  <topological_polar_surface_area>  (650) 
17.07

>  <rotatable_bond_count>  (650) 
4

>  <hydrogen_bond_acceptors>  (650) 
1

>  <hydrogen_bond_donors>  (650) 
0

>  <hydrogen_bond_acceptors_lipinski>  (650) 
1

>  <hydrogen_bond_donors_lipinski>  (650) 
0

>  <lipinski_rule_of_five_violations>  (650) 
1

>  <aromatic_rings_count>  (650) 
0

>  <qed_drug_likeliness>  (650) 
0.41

>  <formal_charge>  (650) 
0

>  <fractioncsp3>  (650) 
0.83

>  <number_of_minimal_rings>  (650) 
4

>  <van_der_walls_volume>  (650) 
nan

>  <contains_sugar>  (650) 
False

>  <contains_ring_sugars>  (650) 
False

>  <contains_linear_sugars>  (650) 
False

>  <murcko_framework>  (650) 
C1=C2C3CCCC3CCC2C4CCCCC4C1

>  <np_likeness>  (650) 
3.57

>  <chemical_class>  (650) 
Steroids and steroid derivatives

>  <chemical_sub_class>  (650) 
Oxosteroids

>  <chemical_super_class>  (650) 
Lipids and lipid-like molecules

>  <direct_parent_classification>  (650) 
Oxosteroids

>  <np_classifier_pathway>  (650) 
Terpenoids

>  <np_classifier_superclass>  (650) 
Triterpenoids

>  <np_classifier_class>  (650) 
Lanostane, Tirucallane and Euphane triterpenoids

>  <np_classifier_is_glycoside>  (650) 
False

>  <organisms>  (650) 
Homalolepis cuneata|Simaba cuneata

>  <collections>  (650) 
Latin America dataset|NuBBEDB|WikiData Natural Products|ZINC NP

>  <dois>  (650) 
10.1016/0031-9422(92)80374-N

>  <synonyms>  (650) 
3-oxo-tirucalla-724-diene

>  <cas>  (650) 
nan

$$$$

     RDKit          2D

 32 35  0  0  0  0  0  0  0  0999 V2000
    5.0334   -1.1218    0.0000 C   0  0  0  0  0  0  0  0  0  0  0  0
    4.2173    0.1368    0.0000 C   0  0  0  0  0  0  0  0  0  0  0  0
    2.7193    0.0593    0.0000 O   0  0  0  0  0  0  0  0  0  0  0  0
    1.9032    1.3179    0.0000 C   0  0  0  0  0  0  0  0  0  0  0  0
    0.4052    1.2404    0.0000 O   0  0  0  0  0  0  0  0  0  0  0  0
   -0.2767   -0.0956    0.0000 C   0  0  0  0  0  0  0  0  0  0  0  0
   -1.7747   -0.1731    0.0000 C   0  0  0  0  0  0  0  0  0  0  0  0
   -2.5908    1.0855    0.0000 C   0  0  0  0  0  0  0  0  0  0  0  0
   -1.9088    2.4216    0.0000 C   0  0  0  0  0  0  0  0  0  0  0  0
   -2.7249    3.6801    0.0000 C   0  0  0  0  0  0  0  0  0  0  0  0
   -4.2229    3.6027    0.0000 C   0  0  0  0  0  0  0  0  0  0  0  0
   -5.0390    4.8613    0.0000 O   0  0  0  0  0  0  0  0  0  0  0  0
   -4.9048    2.2666    0.0000 C   0  0  0  0  0  0  0  0  0  0  0  0
   -6.4028    2.1892    0.0000 O   0  0  0  0  0  0  0  0  0  0  0  0
   -4.0888    1.0081    0.0000 C   0  0  0  0  0  0  0  0  0  0  0  0
   -2.4566   -1.5091    0.0000 O   0  0  0  0  0  0  0  0  0  0  0  0
   -1.6405   -2.7677    0.0000 C   0  0  0  0  0  0  0  0  0  0  0  0
   -2.3224   -4.1037    0.0000 C   0  0  0  0  0  0  0  0  0  0  0  0
   -1.5064   -5.3623    0.0000 C   0  0  0  0  0  0  0  0  0  0  0  0
   -2.1883   -6.6983    0.0000 O   0  0  0  0  0  0  0  0  0  0  0  0
   -0.0084   -5.2848    0.0000 C   0  0  0  0  0  0  0  0  0  0  0  0
    0.6735   -3.9488    0.0000 C   0  0  0  0  0  0  0  0  0  0  0  0
    2.1715   -3.8713    0.0000 O   0  0  0  0  0  0  0  0  0  0  0  0
   -0.1425   -2.6902    0.0000 C   0  0  0  0  0  0  0  0  0  0  0  0
    0.5394   -1.3542    0.0000 C   0  0  0  0  0  0  0  0  0  0  0  0
    2.0374   -1.2767    0.0000 O   0  0  0  0  0  0  0  0  0  0  0  0
    2.5852    2.6539    0.0000 C   0  0  0  0  0  0  0  0  0  0  0  0
    1.7691    3.9125    0.0000 O   0  0  0  0  0  0  0  0  0  0  0  0
    4.0832    2.7314    0.0000 C   0  0  0  0  0  0  0  0  0  0  0  0
    4.7651    4.0674    0.0000 O   0  0  0  0  0  0  0  0  0  0  0  0
    4.8992    1.4728    0.0000 C   0  0  0  0  0  0  0  0  0  0  0  0
    6.3972    1.5502    0.0000 O   0  0  0  0  0  0  0  0  0  0  0  0
  2  1  1  6
  2  3  1  0
  3  4  1  0
  4  5  1  1
  5  6  1  0
  6  7  2  0
  7  8  1  0
  8  9  2  0
  9 10  1  0
 10 11  2  0
 11 12  1  0
 11 13  1  0
 13 14  1  0
 13 15  2  0
  7 16  1  0
 16 17  1  0
 17 18  2  0
 18 19  1  0
 19 20  1  0
 19 21  2  0
 21 22  1  0
 22 23  1  0
 22 24  2  0
 24 25  1  0
 25 26  2  0
  4 27  1  0
 27 28  1  6
 27 29  1  0
 29 30  1  6
 29 31  1  0
 31 32  1  1
 31  2  1  0
 25  6  1  0
 15  8  1  0
 24 17  1  0
M  END
>  <identifier>  (651) 
CNP0171505.1

>  <canonical_smiles>  (651) 
C[C@@H]1O[C@@H](OC2=C(C3=CC=C(O)C(O)=C3)OC3=CC(O)=CC(O)=C3C2=O)[C@H](O)[C@H](O)[C@H]1O

>  <standard_inchi>  (651) 
InChI=1S/C21H20O11/c1-7-15(26)17(28)18(29)21(30-7)32-20-16(27)14-12(25)5-9(22)6-13(14)31-19(20)8-2-3-10(23)11(24)4-8/h2-7,15,17-18,21-26,28-29H,1H3/t7-,15-,17+,18+,21-/m0/s1

>  <standard_inchi_key>  (651) 
OXGUCUVFOIWWQJ-HQBVPOQASA-N

>  <name>  (651) 
quercitrin

>  <iupac_name>  (651) 
2-(3,4-dihydroxyphenyl)-5,7-dihydroxy-3-[(2~{S},3~{R},4~{R},5~{R},6~{S})-3,4,5-trihydroxy-6-methyl-tetrahydropyran-2-yl]oxy-chromen-4-one

>  <annotation_level>  (651) 
5

>  <total_atom_count>  (651) 
52

>  <heavy_atom_count>  (651) 
32

>  <molecular_weight>  (651) 
448.38

>  <exact_molecular_weight>  (651) 
448.10056

>  <molecular_formula>  (651) 
C21H20O11

>  <alogp>  (651) 
0.49

>  <topological_polar_surface_area>  (651) 
190.28

>  <rotatable_bond_count>  (651) 
3

>  <hydrogen_bond_acceptors>  (651) 
11

>  <hydrogen_bond_donors>  (651) 
7

>  <hydrogen_bond_acceptors_lipinski>  (651) 
11

>  <hydrogen_bond_donors_lipinski>  (651) 
7

>  <lipinski_rule_of_five_violations>  (651) 
2

>  <aromatic_rings_count>  (651) 
3

>  <qed_drug_likeliness>  (651) 
0.28

>  <formal_charge>  (651) 
0

>  <fractioncsp3>  (651) 
0.29

>  <number_of_minimal_rings>  (651) 
4

>  <van_der_walls_volume>  (651) 
362.47

>  <contains_sugar>  (651) 
True

>  <contains_ring_sugars>  (651) 
True

>  <contains_linear_sugars>  (651) 
False

>  <murcko_framework>  (651) 
O1c2ccccc2CC(OC3OCCCC3)=C1c4ccccc4

>  <np_likeness>  (651) 
2.17

>  <chemical_class>  (651) 
Flavonoids

>  <chemical_sub_class>  (651) 
Flavonoid glycosides

>  <chemical_super_class>  (651) 
Phenylpropanoids and polyketides

>  <direct_parent_classification>  (651) 
Flavonoid-3-O-glycosides

>  <np_classifier_pathway>  (651) 
Shikimates and Phenylpropanoids

>  <np_classifier_superclass>  (651) 
Flavonoids

>  <np_classifier_class>  (651) 
Flavonols

>  <np_classifier_is_glycoside>  (651) 
True

>  <organisms>  (651) 
Aaptos aaptos|Abies nephrolepis|Abies pindrow|Acacia Nilotica|Acacia confusa|Acacia ixiophylla|Acacia sp.|Acaciella glauca|Acanthella acuta|Acanthopanax Senticosus|Acanthopanax senticosus|Acanthophyllum elatius|Acanthospermum glabratum|Acanthus Ilicifolius|Acer barbinerve|Acer carpinifolium|Acer glabrum|Acer pictum|Acer pictum subsp. okamotoanum|Acer sp.|Aceratium megalospermum|Aconitum gigas|Aconitum nevadense|Aconitum seravschanicum|Aconitum tasiromontanum|Acremonium luzulae|Actinidia chinensis|Actinidia chinensis var. deliciosa|Actinidia chinensis var. hispida|Actinidia deliciosa|Actinoplanes friuliensis|Adansonia grandidieri|Adina sessilifolia|Aesculus hippocastanum|Aesculus sp.|Agastache rugosa|Agelas conifera|Ageratina dendroides|Agrimonia Pilosa|Agrimonia eupatoria|Agrimonia pilosa|Aguacate|Ajuga genevensis|Akebia sp.|Alangium grisolleoides|Alangium premnifolium|Alaria esculenta|Albizia julibrissin|Alchemilla speciosa|Alchemilla tianschanica|Alchornea glandulosa|Alexandrian laurel|Alexandrium hiranoi|Alhagi maurorum|Alhagi persarum|Allium Cepa|Allium fistulosum|Alnus japonica|Aloe africana|Aloe ferox|Aloe spicata|Aloe vera|Alpinia Officinarum|Alseodaphne corneri|Alstroemeria pulchra|Alternaria kikuchiana|Amaranthus cruentus|Amomum longiligulare|Amomum micranthum|Amomum villosum|Amomum xanthioides|Amyris texana|Anabaena minutissima|Anacyclus tomentosus|Angelica keiskei|Angelica lucida|Angelica taiwaniana|Angelica tarokoensis|Annella reticulata|Annona ambotay|Annona impressivenia|Anthoxanthum odoratum|Anthyllis onobrychoides|Aphyllocladus denticulatus|Apium Graveolens|Aplysia parvula|Aplysia punctata|Arabidopsis thaliana|Aralia elata|Aralia leschenaultii|Araliopsis soyauxii|Arbutus sp.|Arctium lappa|Arctostaphylos sp.|Arctostaphylos uva-ursi|Ardisia Colorata|Ardisia japonica|Argania spinosa|Argemone mexicana|Arnica acaulis|Aronia arbutifolia|Artemisia Annua|Artemisia Capillaris|Artemisia igniaria|Artemisia klotzchiana|Artemisia ludoviciana subsp. mexicana|Artemisia mesatlantica|Arum alpinum|Arum maculatum|Arum sp.|Ascarina lucida|Aspalathus sp.|Asparagus officinalis|Aspergillus fischeri|Aspergillus panamensis|Aspergillus unguis|Aspergillus wentii|Asphodelus albus|Aster oharai|Aster sedifolius|Astilbe chinensis|Astilbe rubra|Astilbe thunbergii|Astragalus Membranaceus|Astragalus arguricus|Astragalus babatagi|Astragalus bornmuellerianus|Astragalus bungeanus|Astragalus captiosus|Astragalus circassicus|Astragalus dissectus|Astragalus floccosifolius|Astragalus goktschaicus|Astragalus interpositus|Astragalus membranaceus|Astragalus mongholicus|Astragalus onobrychis|Astragalus sevangensis|Astragalus trimestris|Aulacocephalus temmincki|Aureolaria virginica|Austrocedrus chilensis|Azadirachta indica|Baccharis gaudichaudiana|Baeckea frutescens|Bassia muricata|Bauhinia glauca|Bauhinia multinervia|Begonia sp.|Bellium bellidioides|Berberis vulgaris|Berchemia floribunda|Berchemia racemosa|Bergenia crassifolia|Bersama yangambiensis|Betula obscura|Betula oycoviensis|Betula pendula|Betula pubescens|Betula sp.|Bicuiba oleifera|Bidens Tripartita|Bidens bipinnata|Bischofia javanica|Bitis gabonica|Bombax ceiba|Boronia coerulescens|Boronia pinnata|Botryotrichum piluliferum|Bragantia wallichii|Brassica napus|Brevibacterium linens|Briareum violacea|Brickellia glutinosa|Brickelliastrum fendleri|Bridelia ferruginea|Bromelia plumieri|Bunias orientalis|Burkholderia gladioli|Caesalpinia Decapetala|Caesalpinia Pulcherrima|Caesalpinia pulcherrima|Callistemon speciosus|Callistemon viminalis|Callitris columellaris|Callitris sp.|Calophyllum inophyllum|Calycopteris Floribunda|Camellia crassicolumna|Camellia crassicolumna var. multiplex|Camellia oleifera|Camellia reticulata|Camellia sinensis|Capnoides sempervirens|Capsicum annuum|Capsicum annuum var. annuum|Caragana alaica|Caragana spinosa|Carpinus orientalis|Carthamus lanatus|Cassia kleinii|Cassia nodosa|Castanea sp.|Castanea vesca|Castanopsis sclerophylla|Casuarina Equisetifolia|Caulocystis cephalornithos|Ceanothus sanguineus|Ceanothus sp.|Centaurea calcitrapa|Centaurea horrida|Centella asiatica|Cephalotaxus harringtonia|Cephalotaxus harringtonii|Cephalotaxus harringtonii var. harringtonii|Cephalotaxus koreana|Cephalotus follicularis|Cercis chinensis|Cereus candicans|Chaenomeles sinensis|Chaetomium cochliodes|Chamaebatia foliolosa|Chamaecyparis formosensis|Chamerion angustifolium|Chamerion dodonaei|Chelidonium majus|Chelonanthus alatus|Chelonia japonica|Cheniella glauca|Choerospondias axillaris|Chromodoris inornata|Chromodoris lochi|Chrysanthemum indicum|Chrysanthemum morifolium|Chrysanthemum x morifolium|Chrysocoma tenuifolia|Chrysophyllum cainito|Cichorium intybus|Cichorium sp.|Cinamomum cassia|Cinnamomum aromaticum|Cinnamomum philippinense|Cinnamomum tamala|Cinnamomum zeylanicum|Cinnamon|Cissus discolor|Cissus sicyoides|Cistus laurifolius|Cladosiphon decipiens|Cleistanthus indochinensis|Cleistopholis staudtii|Clibadium mexiae|Coleus esquirolii|Colobocentrotus atratus|Colochirus violaceus|Combretum|Combretum leprosum|Complex-toothed flying squirrel|Conocephalum japonicum|Consolida hohenackeri|Conus marmoreus|Conyza bonariensis|Conyza canadensis|Coprinellus flocculosus|Coprinopsis cinerea|Coptis japonica|Cordylanthus kingii|Coriandrum sativum|Coriaria ruscifolia|Cornus controversa|Cornus kousa|Cornus mas|Cornus sp.|Corticium simplex|Corydalis ochotensis|Corylus avellana|Cotoneaster acutifolius|Cotoneaster divaricatus|Cotoneaster franchetii|Cotoneaster multiflorus|Cotoneaster obscurus|Cotoneaster soongoricus|Cotoneaster zabelii|Cotula cinerea|Craspedia pleiocephala|Crataegus sanguinea|Cratena peregrina|Crinipellis scabella|Croton cumingii|Cryptocarya alba|Cryptocarya lividula|Cryptocarya moschata|Cryptomeria japonica|Cryptotaenia japonica|Cupaniopsis macropetala|Cupressus sempervirens|Curio ficoides|Curvularia coicis|Cuscuta Australis|Cuscuta Japonica|Cynara humilis|Cynoglossum germanicum|Cyrtomium falcatum|Cystophora scalaris|Cytophaga hutchinsoni|Dacrycarpus dacrydioides|Daniellia oliveri|Daphniphyllum paxianum|Dasiphora fruticosa|Davallia mariesii|Dehaasia longipedicellata|Delphinium andersoni|Dendranthema morifolium|Dendriopoterium menendezii|Dendroctonus ponderosae|Dendrophthoe falcata|Dendrophthoe longiflora|Desmanthus illinoensis|Desmodium molliculum|Desmos cochinchinensis|Dichotomophthora lutea|Dicranopteris dichotoma|Dicranopteris pedata|Dictyopteris australis|Didymium bahiense|Dimocarpus longan|Diospyros kaki|Diphasia angolensis|Diploknema butyracea|Diplusodon astictus|Diplusodon rotundifolius|Diplusodon speciosus|Dipteryx odorata|Discaria serratifolia|Disynaphia halimifolia|Dodonaea viscosa|Dolichandra unguis-cati|Dolichothele uberiformis|Doodia picta|Dorycnium hirsutum|Doryopteris decipiens|Drimys granadensis|Drosera adelae|Dryopteris sacrosancta|Dysidea tupha|Dysoxylum cumingianum|Echinacea pallida|Echinosophora koreensis|Echium sericeum|Ectyoplasia ferox|Ekebergia senegalensis|Elegia deusta|Eleusine indica|Eleutherococcus brachypus|Eleutherococcus divaricatus|Eleutherococcus senticosus|Eleutherococcus trifoliatus|Elsholtzia cristata|Elymus repens|Embelia keniensis|Embelia schimperi|Enceliopsis argophylla|Engelhardia roxburghiana|Entomophthora virulenta|Ephedra alata|Ephedra equisetina|Ephydatia syriaca|Epichloe festucae var. lolii|Epilobium alpinum|Epilobium dodonaei|Epilobium hirsutum|Epilobium hybridum|Epilobium montanum|Epilobium parviflorum|Epilobium roseum|Epilobium sp.|Epilobium tetragonum|Epimedium brevicornu|Epimedium coactum|Epimedium davidii|Epimedium hunanense|Epimedium pubescens|Epimedium sagittatum|Epimedium truncatum|Epimedium wushanense|Equisetum arvense|Eragrostis viscosa|Eria mollis|Eria pubescens|Erica arborea|Erica glauca|Erigeron annuus|Erigeron bonariensis|Erigeron canadensis|Eriobotrya japonica|Eriocheir sinensis|Eriostemon tomentellus|Erodium stephanianum|Eryngium campestre|Erysimum canescens|Erysimum odoratum|Erythrospermum monticolum|Erythroxylum argentinum|Erythroxylum daphnites|Erythroxylum laurifolium|Erythroxylum leal-costae|Erythroxylum myrsinites|Erythroxylum passerinum|Erythroxylum pruinosum|Erythroxylum rufum|Erythroxylum sp.|Erythroxylum suberosum|Erythroxylum ulei|Erythroxylum vacciniifolium|Escherichia coli|Eschscholzia californica|Esenbeckia grandiflora|Eucalyptus Globulus|Eucalyptus camaldulensis|Eucalyptus cypellocarpa|Eucalyptus dalrympleana|Eucalyptus globulous maidenii|Eucalyptus globulus|Eucalyptus maideni|Eucalyptus ovata|Eucalyptus populnea|Eucalyptus rudis|Eucalyptus sideroxylon|Eucalyptus sp.|Euclea crispa|Eucommia Ulmoides|Eugenia hyemalis|Eugenia sp.|Eugenia uniflora|Eunicella cavolinii|Euphorbia|Euphorbia ferganensis|Euphorbia helioscopia|Euphorbia hirta|Euphorbia lunulata|Euphorbia maculata|Euphorbia pannonica|Euphorbia parviflora|Euphorbia pilulifera|Euphorbia prostrata|Euphorbia retusa|Euphorbia soongarica|Euphorbia sp.|Euphorbia species|Euphorbia sulcata|Euphorbia tirucalli|Euphorbia watanabei|Euphorbiaceae|Euphoria longan|Eupolyphaga sinensis|Eurya tigang|Eutypella scoparia|Euxylophora paraensis|Evernia vulpina|Excoecaria agallocha|Fagopyrum cymosum|Fagopyrum sp.|Fagopyrum tataricum|Fagus sp.|Fallopia multiflora|Fallopia sp.|Firmiana simplex|Flacourtia jangomas|Flemingia Stricta|Flemingia faginea|Flemingia stricta|Flindersia pimenteliana|Foeniculum vulgare|Forsteronia refracta|Forsythia europaea|Fragaria sp.|Fragaria x ananassa|Fraxinus insularis|Fridericia chica|Frullania tamarisci|Fuchsia apetala|Fuchsia boliviana|Fuchsia campos-portoi|Fuchsia coccinea|Fuchsia corymbiflora|Fuchsia eucliandra|Fuchsia excorticata|Fuchsia fulgens|Fuchsia hartwegii|Fuchsia hirtella|Fuchsia magellanica|Fuchsia membranacea|Fuchsia paniculata|Fuchsia pilaloensis|Fuchsia regia|Fuchsia rivularis|Fuchsia tillettiana|Fuchsia triphylla|Fuchsia venusta|Fusarium roseum|Gadus morhua callarias|Galenia africana|Galium dasypodum|Garcinia bancana|Garcinia intermedia|Gardenia turgida|Geranium carolinianum|Geranium robertianum|Geranium thunbergii|Geranium wilfordii|Ginkgo biloba|Ginkgo sp.|Glehnia Littoralis|Globba malaccensis|Globularia davisiana|Glochidion sphaerogynum|Gnaphalium Affine|Gnidia lamprantha|Goniothalamus amuyon|Gossypium hirsutum|Gossypium sp.|Grass-of-Parnassus|Grewia mollis|Guiera senegalensis|Gutierrezia alamanii|Gymnocarpium robertianum|Habropetalum dawei|Haematoxylum campechianum|Haliclona nigra|Haloxylon recurvum|Hamamelis sp.|Harrisonia abyssinica|Harungana sp.|Havardia albicans|Hedeoma multiflora|Hedysarum alpinum|Hedysarum inundatum|Hedysarum setigerum|Heimia salicifolia|Helenium arizonicum|Helianthemum sessiliflorum|Helianthus maximiliani|Helichrysum lepidissimum|Heliotropium amplexicaule|Heliotropium floridum|Heliotropium ternatum|Helleborus multifidus|Hemerocallis fulva|Herba ecliptae prostratae|Heterotheca grandiflora|Heterotheca inuloides|Hibiscus Rosa|Hibiscus sabdariffa|Hintonia latiflora|Hippocratea excelsa|Hippospongia communis|Holboellia fargesi|Holomelina lamae|Honorius nutans|Hopea utilis|Houttuynia Cordata|Houttuynia cordata|Hovenia acerba|Humulus lupulus|Hydrophyllum sp.|Hydrophyllum tenuipes|Hydrophyllum virginianum|Hymenoxys insignis|Hypericum Ascyron|Hypericum Sampsonii|Hypericum androsaemum|Hypericum attenuatum|Hypericum balearicum|Hypericum beanii|Hypericum bithynicum|Hypericum brasiliense|Hypericum caprifolium|Hypericum carinatum|Hypericum chinense|Hypericum connatum|Hypericum elegans|Hypericum erectum|Hypericum glandulosum|Hypericum graveolens|Hypericum henryi|Hypericum hirsutum|Hypericum humifusum|Hypericum japonicum|Hypericum kamtschaticum|Hypericum laricifolium|Hypericum maculatum|Hypericum monogynum|Hypericum montanum|Hypericum montbretii|Hypericum myrianthum|Hypericum mysorense|Hypericum patulum|Hypericum perforatum|Hypericum polyanthemum|Hypericum punctatum|Hypericum revolutum|Hypericum richeri|Hypericum scabrum|Hypericum sikokumontanum|Hypericum sp.|Hypericum ternum|Hypericum tetrapterum|Hypericum thasium|Hypericum tomentosum|Hypericum triquetrifolium|Hypericum undulatum|Hypericum venustum|Hyphear tanakae|Hypsizygus ulmarius|Iberis amara|Ideopsis similis|Ilex amara|Ilex lepta|Ilex purpurea|Illicium sp.|Incarvillea delavayi|Indigofera spicata|Inella verrucosa|Inocybe geophylla|Inula salicifolia|Ircinia ramosa|Iris florentina|Iryanthera coriacea|Iryanthera sagotiana|Isaria fumosorosea|Isodon japonicus|Isodon lihsienensis|Ixeris chinensis|Ixora coccinea|Jacobaea vulgaris|Jasminum azoricum|Jasminum fluminense|Jasminum sambac|Jatropha multifida|Juglans mandshurica|Juglans nigra|Juglans regia|Juglans sp.|Juniperus communis|Juniperus drupacea|Juniperus phoenicea|Justicia hayatai|Justicia secunda|Kaempferia marginata|Kalanchoe ceratophylla|Kalanchoe laciniata|Kalanchoe pinnata|Kalopanax septemlobus|Kaunia saltensis|Kielmeyera coriacea|Knautia montana|Knightia excelsa|Koelreuteria paniculata|Koenigia coriaria|Koenigia polystachya|Krascheninnikovia ceratoides|Kunzea ambigua|Lactobacillus delbrueckii subsp. bulgaricus|Lactuca sativa|Larix decidua|Laserpitium latifolium|Laurencia distichophylla|Laurus Nobilis|Lavandula vera|Leandra subseriata|Leishmania major|Lemna trisulca|Leontopodium nanum|Leonurus cardiaca|Leonurus glaucescens|Leonurus sp.|Lepidium draba|Leptobalanus apetalus|Lepuropetalon spathulatum|Lespedeza bicolor|Lespedeza virgata|Leucaena leucocephala|Leucas neufliseana|Leuzea centauroides|Libocedrus plumosa|Licania apetala|Licania pittieri|Ligustrum lucidum|Limonium aureum|Limonium sinense|Lindera glauca|Liquidambar sp.|Lithospermum officinale|Litsea glutinosa|Litsea salicifolia|Litsea sericea|Litsea triflora|Lonicera japonica|Loranthus kaoi|Loranthus parasiticus|Loranthus tanakae|Lotus corniculatus|Lotus hirsutus|Lotus tenuis|Lotus ucrainicus|Lycopersicon Esculentum|Lycopus europaeus|Lycopus sp.|Lysimachia thyrsiflora|Maba buxifolia|Macrothele gigas|Maesa lanceolata|Maieta guianensis|Mallotus metcalfianus|Malpighia emarginata|Malus domestica|Malus pumila|Malus sp.|Mangifera indica|Manilkara Zapota|Manilkara zapota|Manoao colensoi|Marine actinobacterium|Marsdenia sp.|Matricaria suffruticosa|Meadow vetchling|Melaleuca quinquenervia|Melanelixia fuliginosa subsp. glabratula|Melastoma candidum|Melastoma malabathricum|Melastoma septemnervium|Melia indica|Melochia tomentosa|Mentha sp.|Mesembryanthemum expansum|Mespilus germanica|Metapenaeus bennettae|Metasequoia glyptostroboides|Micarea austroternaria|Miconia cabucu|Microlepia speluncae|Micromeria pineolens|Microtea debilis|Miliusa velutina|Millettia zechiana|Mimosa pudica|Mimusops caffra|Mitragyna speciosa|Monascus pilosus|Monodora brevipes|Moquilea pyrifolia|Morella rubra|Morinda Citrifolia|Morinda morindoides|Morus Alba|Morus Australis|Morus alba|Murraya exotica|Murraya paniculata|Mycobacterium avium subsp. paratuberculosis|Myrcia multiflora|Myrcia neoglabra|Myrica rubra|Myriophyllum aquaticum|Myrocarpus frondosus|Myrsine africana|Myrsine seguinii|Narcissus asturiensis|Narcissus concolor|Nauclea officinalis|Navanax inermis|Nectandra gardneri|Nelumbo nucifera|Nemalion vermiculare|Neobalanocarpus heimii|Neolitsea aurata|Neolitsea sericea|Neoscopelus microchir|Nerine bowdenii|Nidula candida|Norantea guianensis|Nymphaea ampla|Nymphaea caerulea|Nymphaea elegans|Nymphaea nouchali var. caerulea|Nymphaea odorata|Ochna calodendron|Ochradenus baccatus|Ocotea minarum|Ocotea velloziana|Oenothera affinis|Oenothera deserticola|Oenothera glaucifolia|Oenothera glazioviana|Oenothera havardii|Oenothera howardii|Oenothera macrocarpa|Oenothera multicaulis|Oenothera odorata|Oenothera rosea|Oenothera speciosa|Oenothera tetraptera|Oenothera texensis|Olea europaea|Olea sp.|Oncoba echinata|Onobrychis arenaria|Onobrychis cornuta|Onobrychis ferganica|Onobrychis grandis|Ononis sp.|Oophaga pumilio|Ophiocoma scolopendrina|Ophioglossum Petiolatum|Ophiolepis superba|Orostachys japonica|Osmorhiza aristata|Ostryopsis davidiana|Osyris abyssinica|Paeonia Suffruticosa|Panorpa japonica|Panzerina lanata|Papilio phorcas|Parabenzoin trilobum|Paralemnalia clavata|Parinari anamensis|Parinari brasiliensis|Parinari campestris|Parinari canarioides|Parinari cardiophylla|Parinari chocoensis|Parinari congensis|Parinari congolana|Parinari costata|Parinari curatellifolia|Parinari excelsa|Parinari hypochrysea|Parinari insularum|Parinari klugii|Parinari littoralis|Parinari maguirei|Parinari montana|Parinari nonda|Parinari obtusifolia|Parinari pachyphylla|Parinari sprucei|Parinari sumatrana|Parnassia asarifolia|Parnassia caroliniana|Parnassia fimbriata|Parnassia glauca|Parnassia grandifolia|Parnassia kotzebuei|Pedilanthus Tithymaloides|Penicillium citreonigrum|Penicillium herquei|Penstemon gentianoides|Perezia carpholepis|Periploca calophylla|Peripterygia marginata|Persicaria capitata|Persicaria hastatosagittata|Persicaria hydropiper|Persicaria muricata|Persicaria nepalensis|Persicaria orientalis|Persicaria pubescens|Persicaria salicifolia|Persicaria senticosa|Persicaria sp.|Persicaria thunbergii|Pestalotiopsis guepinii|Peucedanum praeruptorum|Phaseolus vulgaris|Phedimus aizoon|Phellodendron Amurense|Phenax angustifolius|Phoebe clemensii|Phycopsis terpnis|Phyllanthus Emblica|Phyllanthus emblica|Phyllanthus sp.|Phyllanthus tenellus|Phyllanthus virgatus|Physalis alkekengi|Picris conyzoides|Piliostigma thonningii|Pilularia globulifera|Pinguicula vulgaris|Pinus brutia var. pityusa|Piptocarpha oblonga|Pistacia lentiscus|Pistacia weinmannifolia|Pittosporum phillyraeoides|Pityrodia jamesii|Placida dendritica|Plantago bellardi|Platonia insignis|Platycarya strobilacea|Platycladus orientalis|Plinia cauliflora|Plumbago Zeylanica|Polycephalomyces nipponicus|Polygonum Aviculare|Polygonum Cuspidatum|Polygonum aviculare|Polygonum cuspidatum|Polygonum equisetiforme|Polygonum glaucum|Polygonum hydropiper|Polygonum maritimum|Polygonum polystachyum|Polygonum senticosum|Polygonum sp.|Polygonum thunbergii|Polygonum weyrichii|Polymnia uvedalia|Pongamiopsis pervilleana|Populus ussuriensis|Potentilla anserina|Potentilla discolor|Potentilla fruticosa|Potentilla sp.|Potentilla tanacetifolia|Premna flavescens|Premna odorata|Premna tomentosa|Prumnopitys ferruginoides|Prunus cerasus|Prunus salicina|Prunus tomentosa|Pseudaegle trifoliata|Pseudodistoma arborescens|Psidium cattleyanum|Psoroma pallidum|Psychotria serpens|Psychotria stachyoides|Pteris dactylina|Pterogyne nitens|Pterospermum lanceaefolium|Pterospermum lanceifolium|Pycnandra acuminata|Pyrola japonica|Pyrostegia venusta|Pyrrosia Lingua|Quercus robur|Quercus sessiliflora|Quercus sp.|Quercus suber|Ramulus euonymi|Rana amurensis|Ranunculus fluitans|Rattus rattus|Reaumuria hirtella|Reseda luteola|Rhamnus cathartica|Rhamnus disperma|Rhamnus petiolaris|Rheum sp.|Rhizoma fagopyri cymosi|Rhododendron brachycarpum|Rhododendron dauricum|Rhododendron ellipticum|Rhododendron farrerae|Rhododendron latoucheae|Rhododendron mucronatum|Rhododendron simsii|Rhododendron yedoense poukhanense|Rhododendron yedoense var. poukhanense|Rhus chinensis|Rhus sp.|Rhytidoponera metallica|Ribes alpinum|Ribes sp.|Ricinus sp.|Rivularia firma|Rodgersia pinnata|Rodgersia podophylla|Rorippa indica|Rosa agrestis|Rosa canina|Rosa chinensis|Rosa gallica|Rosa multiflora|Rosa rugosa|Rosa sp.|Rosa × damascena|Rubia oncotricha|Rubrivivax gelatinosus|Rubus idaeus|Rubus koehneanus|Rubus ulmifolius|Rudbeckia fulgida|Ruditapes philippinarum|Rumex chalepensis|Ruta pinnata|Saccharopolyspora spinosa|Salacia madagascariensis|Salix chaenomeloides|Salix sp.|Salvia breviflora|Salvia dorrii|Salvia munzii|Salvia pubescens|Salvia tonalensis|Sanicula graveolens|Sarcococca vagans|Sargassum muticum|Sargassum thunbergii|Saururus chinensis|Saussurea carthamoides|Saussurea mongolica|Saxifraga cernua|Saxifraga stolonifera|Scabiosa succisa|Schisandra plena|Schnella microstachya|Sclerocarya birrea|Sclerotinia fructicola|Scurrula atropurpurea|Scurrula ferruginea|Scurrura atropurpurea|Scutellaria barbata|Scutellaria orientalis|Securidaca diversifolia|Sedum Sarmentosum|Sedum album|Sedum crassularia|Sedum sediforme|Senecio Nemorensis|Senecio carthamoides|Senecio densiflorus|Senecio dolichodoryius|Senecio scandens|Senecio sp.|Senecio subdentatus|Senegalia catechu|Serratula wolffii|Sesbania bispinosa|Sida veronicaefolia|Sidastrum paniculatum|Sideritis javalambrensis|Sindora Siamensis|Sinularia maxima|Siphoneugena densiflora|Siphula decumbens|Smilax china|Smilax corbularia|Smilax glabra|Solanum acaule|Solanum cernuum|Solanum dulcamara|Solanum transcaucasicum|Solidago decurrens|Solidago serotina|Solidago sp.|Solidago virgaurea|Solidago virgaurea var. leiocarpa|Sophora Japonica|Sophora angustifolia|Sophora japonica|Sophora tometosa|Sorbaria sorbifolia|Sorbus tianschanica|Sphaerella laricina|Spinulum annotinum|Spodoptera eridania|Spongia bilamellata|Stachys tomentosa|Stemphylium radicinum|Sterculia foetida|Stereospermum cylindricum|Stevia polycephala|Stevia serrata|Stevia sp.|Stipa vaseyi|Streptomyces aurantiogriseus|Streptomyces griseovariabilis|Streptomyces hachijoensis|Streptomyces parvisporogenes|Streptomyces setonensis|Streptomyces sparsogenes|Streptomyces thermoviolaceus|Strophanthus kombe|Strophanthus preussii|Suillus tridentinus|Swertia delavayi|Symphoricarpos rivularis|Syneilesis aconitifolia|Syzygium Samarangense|Syzygium corynocarpum|Syzygium cumini|Syzygium levinei|Syzygium malaccense|Tachigali paniculata|Tachigalia paniculata|Tagetes elliptica|Tagetes erecta|Tagetes mandonii|Tagetes rupestris|Tagetes tenuifolia|Tamarix Chinensis|Tanacetum vulgare|Tarenaya spinosa|Taxillus kaempferi|Tecoma pentaphylla|Teucrium depressum|Teucrium yemense|Thespesia Populnea|Thevetia Peruviana|Thorecta marginalis|Thuja orientalis|Thuja plicata|Thuja sp.|Thymus piperella|Tilia cordata|Tilia mandshurica|Tilia sp.|Tilia tomentosa|Toona sinensis|Toxicodendron succedaneum|Trachelospermum lucidum|Trichilia rubescens|Trichosanthes rosthornii|Trididemnum cyclops|Trimenia moorei|Tripteris vaillantii|Triticum aestivum|Typha Angustata|Typha Angustifolia|Udotea petiolata|Ulmus americana|Ulva conglobata|Uncaria elliptica|Uncaria hirsuta|Ungnadia speciosa|Uvaria griffithii|Vaccinium corymbosum|Vaccinium macrocarpon|Vaccinium myrtillus|Vaccinium sp.|Vaccinium vitis-idaea|Vahlia capensis|Vallota purpurea|Vateria indica|Vauquelinia corymbosa|Vernonia anisochaetoides|Veronica arvensis|Viburnum lantanoides|Viburnum tinus|Vincetoxicum sp.|Viscaria viscosa|Vismia jefensis|Visnea mocanera|Vitis riparia|Vitis vinifera|Vitis vulpina|Warburgia stuhlmannii|Warburgia ugandensis|Wedelia prostrata|Widely distributed in plant|Wikstroemia chamaedaphne|Wilcoxia viperina|Xanthoceras sorbifolia Bunge|Xanthoria aureola|Xylaria cubensis|Xylonagra arborea|Xylopia emarginata|Xylopia vielana|Zanthoxylum bungeanum|Zanthoxylum culantrillo|Zanthoxylum fagara|Zanthoxylum piperitum|Zanthoxylum sp.|Zephyranthes sulphurea|Ziziphus spina-christi|borage|byrsonima coccolobifolia|cacao|candyleaf|common myrtle|hydrangeae dulcis folium|liquorice|microtea debilis|soybean|tomato

>  <collections>  (651) 
ANPDB|AnalytiCon Discovery NPs|Australian natural products|BIOFACQUIM|CMAUP (cCollective molecular activities of useful plants)|ChEBI NPs|ChemSpider NPs|FooDB|GNPS (Global Natural Products Social Molecular Networking)|HIT (Herbal Ingredients Targets)|InflamNat|Latin America dataset|NANPDB (Natural Products from Northern African Sources)|NPASS|NPDBEjeCol|NuBBEDB|Phyto4Health|PhytoLab phyproof® Reference Substances|Super Natural II|TCMDB-Taiwan (Traditional Chinese Medicine database)|VietHerb|WikiData Natural Products

>  <dois>  (651) 
10.1002/(SICI)1097-0231(20000130)14:2<95::AID-RCM843>3.0.CO;2-6|10.1002/(SICI)1099-1565(199707)8:4<186::AID-PCA355>3.0.CO;2-7|10.1002/(SICI)1099-1565(199805/06)9:3<145::AID-PCA393>3.0.CO;2-K|10.1002/(SICI)1099-1573(199812)12:8<562::AID-PTR356>3.0.CO;2-6|10.1002/(SICI)1099-1573(199908/09)13:5<422::AID-PTR462>3.0.CO;2-M|10.1002/(sici)1099-1565(199707)8:4<186::aid-pca355>3.0.co;2-7|10.1002/1099-1573(200011)14:7<510::AID-PTR646>3.0.CO;2-B|10.1002/CBDV.200900009|10.1002/CBDV.201000373|10.1002/CHIN.200117207|10.1002/CHIN.200332113|10.1002/CHIN.200537209|10.1002/HLCA.200890142|10.1002/J.1537-2197.1979.TB06321.X|10.1002/J.1537-2197.1986.TB10902.X|10.1002/J.1537-2197.1988.TB13465.X|10.1002/JCCS.199300062|10.1002/JCCS.199400031|10.1002/JCCS.199500136|10.1002/JCCS.200000050|10.1002/JCCS.200800067|10.1002/JCCS.201190020|10.1002/JMS.395|10.1002/JPS.10057|10.1002/JPS.3030400120|10.1002/PCA.627|10.1002/PCA.638|10.1002/PTR.2650030108|10.1002/PTR.2650060509|10.1002/PTR.2650070111|10.1002/RCM.574|10.1002/rcm.574|10.1007/0-387-28822-8_8|10.1007/BF00564820|10.1007/BF00565058|10.1007/BF00565059|10.1007/BF00568545|10.1007/BF00568705|10.1007/BF00571238|10.1007/BF00574227|10.1007/BF00574349|10.1007/BF00579157|10.1007/BF00579837|10.1007/BF00580914|10.1007/BF00580916|10.1007/BF00598319|10.1007/BF00598321|10.1007/BF00598370|10.1007/BF00599015|10.1007/BF00605216|10.1007/BF00607555|10.1007/BF00629947|10.1007/BF00630415|10.1007/BF00630451|10.1007/BF01386200|10.1007/BF02234915|10.1007/BF02236288|10.1007/BF02275745|10.1007/BF02275920|10.1007/BF02282375|10.1007/BF02323285|10.1007/BF02323302|10.1007/BF02467181|10.1007/BF02759632|10.1007/BF02759633|10.1007/BF02856638|10.1007/BF02892023|10.1007/BF02975132|10.1007/BF02976549|10.1007/BF02976598|10.1007/BF02977002|10.1007/BF02977686|10.1007/BF02977900|10.1007/BF02994751|10.1007/S10600-005-0148-1|10.1007/S10600-006-0089-3|10.1007/S10600-006-0099-1|10.1007/S10600-009-9247-8|10.1007/S10600-009-9362-6|10.1007/S10600-010-9598-1|10.1007/S10600-011-0016-0|10.1007/S10600-011-0065-4|10.1007/S10600-012-0124-5|10.1007/S10600-012-0377-Z|10.1007/S10600-013-0618-9|10.1007/S11418-010-0431-8|10.1007/SPRINGERREFERENCE_68290|10.1016/0003-9861(58)90205-4|10.1016/0021-9673(92)85026-P|10.1016/0021-9673(93)83449-3|10.1016/0031-6865(95)00027-7|10.1016/0031-6865(96)00009-X|10.1016/0031-9422(73)80048-2|10.1016/0031-9422(73)80593-X|10.1016/0031-9422(73)85143-X|10.1016/0031-9422(74)85149-6|10.1016/0031-9422(75)85315-5|10.1016/0031-9422(83)80021-1|10.1016/0031-9422(83)80111-3|10.1016/0031-9422(83)80112-5|10.1016/0031-9422(83)83043-X|10.1016/0031-9422(83)83073-8|10.1016/0031-9422(84)83045-9|10.1016/0031-9422(88)80645-9|10.1016/0031-9422(88)83050-4|10.1016/0031-9422(88)84102-5|10.1016/0031-9422(90)80206-V|10.1016/0031-9422(90)85069-R|10.1016/0031-9422(90)85105-O|10.1016/0031-9422(90)85187-K|10.1016/0031-9422(91)80109-E|10.1016/0031-9422(91)85140-U|10.1016/0031-9422(92)80400-9|10.1016/0031-9422(92)80489-2|10.1016/0031-9422(92)83667-N|10.1016/0031-9422(93)85102-W|10.1016/0031-9422(93)85416-O|10.1016/0031-9422(94)00784-Q|10.1016/0031-9422(94)00905-9|10.1016/0031-9422(94)00961-R|10.1016/0031-9422(94)00965-V|10.1016/0031-9422(94)85035-6|10.1016/0031-9422(95)00071-E|10.1016/0031-9422(95)00507-4|10.1016/0031-9422(95)00561-7|10.1016/0031-9422(95)00681-8|10.1016/0031-9422(95)00924-8|10.1016/0031-9422(96)00367-6|10.1016/0305-1978(84)90068-1|10.1016/0305-1978(85)90036-5|10.1016/0305-1978(85)90089-4|10.1016/0305-1978(86)90088-8|10.1016/0305-1978(87)90085-8|10.1016/0305-1978(90)90119-Z|10.1016/0305-1978(91)90116-H|10.1016/0305-1978(94)90034-5|10.1016/0305-1978(94)90120-1|10.1016/0305-1978(95)00014-L|10.1016/0308-8146(95)00068-2|10.1016/0378-4347(95)00265-9|10.1016/0378-8741(87)90128-0|10.1016/J.ARABJC.2013.12.011|10.1016/J.ARABJC.2014.11.059|10.1016/J.BBAGEN.2016.03.031|10.1016/J.BMC.2007.10.072|10.1016/J.BMCL.2007.09.003|10.1016/J.BMCL.2010.11.126|10.1016/J.BMCL.2015.05.089|10.1016/J.CCLET.2010.02.022|10.1016/J.FCT.2004.01.008|10.1016/J.FITOTE.2003.08.004|10.1016/J.FITOTE.2004.01.011|10.1016/J.FITOTE.2004.01.019|10.1016/J.FITOTE.2004.10.011|10.1016/J.FITOTE.2007.02.008|10.1016/J.FITOTE.2007.03.024|10.1016/J.FITOTE.2007.05.003|10.1016/J.FITOTE.2007.11.012|10.1016/J.FITOTE.2008.03.005|10.1016/J.FITOTE.2009.09.013|10.1016/J.FITOTE.2010.08.007|10.1016/J.FOODCHEM.2008.11.094|10.1016/J.FOODCHEM.2009.07.063|10.1016/J.FOODCONT.2014.02.001|10.1016/J.JEP.2004.03.042|10.1016/J.JEP.2006.02.010|10.1016/J.LWT.2014.11.023|10.1016/J.PHYTOCHEM.2003.08.003|10.1016/J.PHYTOCHEM.2003.10.025|10.1016/J.PHYTOCHEM.2005.02.027|10.1016/J.PHYTOCHEM.2005.07.019|10.1016/J.PHYTOCHEM.2006.05.043|10.1016/J.PHYTOCHEM.2007.04.020|10.1016/J.PHYTOCHEM.2007.05.035|10.1016/J.PHYTOCHEM.2008.04.009|10.1016/J.PHYTOCHEM.2008.10.006|10.1016/J.PHYTOCHEM.2008.10.008|10.1016/J.PHYTOCHEM.2008.11.006|10.1016/J.PHYTOCHEM.2009.03.021|10.1016/J.PHYTOCHEM.2010.08.007|10.1016/J.PHYTOCHEM.2010.08.018|10.1016/J.PHYTOCHEM.2010.12.018|10.1016/J.PHYTOCHEM.2011.02.020|10.1016/J.PHYTOCHEM.2015.01.002|10.1016/J.PLANTSCI.2004.06.001|10.1016/J.TETLET.2011.09.060|10.1016/S0014-827X(01)01068-0|10.1016/S0021-9673(00)00555-0|10.1016/S0021-9673(01)87147-8|10.1016/S0021-9673(01)87655-X|10.1016/S0021-9673(01)88492-2|10.1016/S0021-9673(97)00900-X|10.1016/S0021-9673(98)00697-9|10.1016/S0021-9673(99)01225-X|10.1016/S0031-9422(00)00344-7|10.1016/S0031-9422(00)80349-0|10.1016/S0031-9422(00)80695-0|10.1016/S0031-9422(00)80813-4|10.1016/S0031-9422(00)81860-9|10.1016/S0031-9422(00)82391-2|10.1016/S0031-9422(00)83456-1|10.1016/S0031-9422(00)83550-5|10.1016/S0031-9422(00)83562-1|10.1016/S0031-9422(00)84944-4|10.1016/S0031-9422(00)84999-7|10.1016/S0031-9422(00)85693-9|10.1016/S0031-9422(00)86728-X|10.1016/S0031-9422(00)95005-2|10.1016/S0031-9422(00)97941-X|10.1016/S0031-9422(00)98261-X|10.1016/S0031-9422(00)98277-3|10.1016/S0031-9422(01)00365-X|10.1016/S0031-9422(03)00105-5|10.1016/S0031-9422(03)00282-6|10.1016/S0031-9422(03)00374-1|10.1016/S0031-9422(96)00706-6|10.1016/S0031-9422(96)00727-3|10.1016/S0031-9422(97)00017-4|10.1016/S0031-9422(97)00306-3|10.1016/S0031-9422(97)00366-X|10.1016/S0031-9422(97)00370-1|10.1016/S0031-9422(97)00697-3|10.1016/S0031-9422(97)00747-4|10.1016/S0031-9422(99)00049-7|10.1016/S0031-9422(99)00074-6|10.1016/S0031-9422(99)00262-9|10.1016/S0031-9422(99)00502-6|10.1016/S0176-1617(11)80953-3|10.1016/S0254-6299(15)30298-2|10.1016/S0305-1978(00)00089-2|10.1016/S0305-1978(00)00094-6|10.1016/S0305-1978(00)00115-0|10.1016/S0305-1978(01)00086-2|10.1016/S0305-1978(01)00089-8|10.1016/S0305-1978(01)00129-6|10.1016/S0305-1978(02)00055-8|10.1016/S0305-1978(02)00064-9|10.1016/S0305-1978(02)00170-9|10.1016/S0305-1978(02)00180-1|10.1016/S0305-1978(96)00086-5|10.1016/S0308-8146(96)00287-7|10.1016/S0367-326X(00)00298-7|10.1016/S0367-326X(01)00286-6|10.1016/S0367-326X(99)00125-2|10.1016/S0378-4347(01)00404-2|10.1016/S0378-5173(00)00660-8|10.1016/S0378-8741(01)00363-4|10.1016/S0378-8741(99)00202-0|10.1016/S0944-7113(96)80075-4|10.1016/S0944-7113(97)80045-1|10.1016/S0968-0896(01)00321-2|10.1016/S0968-0896(02)00314-0|10.1016/j.arabjc.2013.12.011|10.1016/j.bmc.2007.10.072|10.1016/j.bmcl.2007.09.003|10.1016/j.bmcl.2010.11.126|10.1016/j.bmcl.2015.04.003|10.1016/j.bmcl.2015.05.089|10.1016/j.bmcl.2016.08.094|10.1016/j.foodcont.2014.02.001|10.1016/j.jep.2011.12.005|10.1016/j.lwt.2014.11.023|10.1016/j.phytochem.2007.03.010|10.1016/j.phytochem.2015.08.017|10.1016/s0031-9422(00)86214-7|10.1016/s0031-9422(99)00049-7|10.1016/s0367-326x(00)00298-7|10.1016/s0960-894x(01)00467-x|10.1021/AC990598X|10.1021/JA01097A013|10.1021/JA01113A529|10.1021/JF00035A032|10.1021/JF00048A016|10.1021/JF00076A022|10.1021/JF00081A007|10.1021/JF010622J|10.1021/JF011178N|10.1021/JF0202234|10.1021/JF020674O|10.1021/JF020728U|10.1021/JF030218F|10.1021/JF030374M|10.1021/JF034543E|10.1021/JF035331K|10.1021/JF0497915|10.1021/JF052736R|10.1021/JF0623687|10.1021/JF802974M|10.1021/JF9505335|10.1021/JF960168X|10.1021/JF9800211|10.1021/JF980936F|10.1021/JF991086M|10.1021/NP010465I|10.1021/NP0200764|10.1021/NP020442J|10.1021/NP020576X|10.1021/NP030367S|10.1021/NP040024+|10.1021/NP0500272|10.1021/NP0501031|10.1021/NP0600999|10.1021/NP060359M|10.1021/NP070327E|10.1021/NP070431W|10.1021/NP078007I|10.1021/NP400717M|10.1021/NP400772H|10.1021/NP50010A017|10.1021/NP50018A009|10.1021/NP50022A009|10.1021/NP50025A011|10.1021/NP50026A010|10.1021/NP50034A026|10.1021/NP50037A030|10.1021/NP50039A028|10.1021/NP50041A039|10.1021/NP50043A029|10.1021/NP50043A042|10.1021/NP50048A045|10.1021/NP50051A032|10.1021/NP50052A014|10.1021/NP50065A009|10.1021/NP50066A004|10.1021/NP50077A042|10.1021/NP50087A014|10.1021/NP50117A005|10.1021/NP8002518|10.1021/NP800762X|10.1021/NP970025K|10.1021/NP970336V|10.1021/NP970428K|10.1021/acs.jnatprod.7b00564|10.1021/acs.jnatprod.7b00587|10.1021/jf010622j|10.1021/jf9810261|10.1021/np0200764|10.1021/np020442j|10.1021/np040024+|10.1021/np070327e|10.1021/np070431w|10.1021/np070489a|10.1021/np400717m|10.1021/np400772h|10.1021/np50034a026|10.1021/np50117a005|10.1021/np900290s|10.1021/np970025k|10.1021/np970171q|10.1023/B:CONC.0000003425.70068.85|10.1023/B:CONC.0000018119.19021.18|10.1023/B:CONC.0000025478.84294.5B|10.1039/B100437I|10.1039/CT9109700001|10.1055/S-0031-1300225|10.1055/S-0032-1321052|10.1055/S-0033-1350808|10.1055/S-0034-1383145|10.1055/S-0036-1596439|10.1055/S-2000-11119|10.1055/S-2000-8540|10.1055/S-2000-8547|10.1055/S-2000-8632|10.1055/S-2000-8633|10.1055/S-2000-9779|10.1055/S-2002-20053|10.1055/S-2003-43207|10.1055/S-2003-45114|10.1055/S-2003-45150|10.1055/S-2004-818927|10.1055/S-2004-827163|10.1055/S-2004-832617|10.1055/S-2006-931559|10.1055/S-2006-957506|10.1055/S-2006-957671|10.1055/S-2006-957690|10.1055/S-2006-957796|10.1055/S-2006-957919|10.1055/S-2006-958146|10.1055/S-2006-958151|10.1055/S-2006-959357|10.1055/S-2006-959694|10.1055/S-2006-959763|10.1055/S-2006-959913|10.1055/S-2006-960798|10.1055/S-2006-960845|10.1055/S-2006-960867|10.1055/S-2006-960996|10.1055/S-2006-961020|10.1055/S-2006-962418|10.1055/S-2006-962517|10.1055/S-2007-979339|10.1055/S-2007-979340|10.1055/s-2007-987114|10.1071/CH9620305|10.1071/ch9680425|10.1074/JBC.273.35.22260|10.1076/PHBI.40.2.103.5841|10.1078/094471103322331476|10.1080/10.575630290015736|10.1080/1028602021000049087|10.1080/1028602042000204045|10.1080/10408398.2015.1078276|10.1080/1057563021000060149|10.1080/10575639508043206|10.1080/10575639608044935|10.1080/10575639708043720|10.1080/12538078.2000.10515843|10.1080/13880200490505663|10.1080/14786410802214009|10.1080/14786410802278327|10.1080/14786410802401390|10.1080/14786410802447294|10.1080/14786410903075507|10.1080/14786410903339044|10.1080/14786419.2010.482057|10.1080/14786419.2010.529809|10.1080/14786419.2011.585610|10.1081/JLC-100101645|10.1081/JLC-100101655|10.1093/CHROMSCI/35.3.117|10.1104/PP.108.117754|10.1104/PP.109.148031|10.1111/J.1365-2621.1967.TB00824.X|10.1111/J.1365-2621.1987.TB14056.X|10.1111/J.1438-8677.1994.TB00414.X|10.1139/V88-007|10.1155/2007/45673|10.1177/089198879400700118|10.1177/089198879400701S18|10.1177/1934578X0800300227|10.1177/1934578X1501000817|10.1186/1752-153X-5-34|10.1201/9781420023305-8|10.1211/0022357001773904|10.1211/0022357011775893|10.1211/146080899128735009|10.1246/NIKKASHI.1987.1853|10.1248/BPB.26.1031|10.1248/BPB.26.1042|10.1248/BPB.31.743|10.1248/CPB.14.877|10.1248/CPB.31.919|10.1248/CPB.33.206|10.1248/CPB.36.1180|10.1248/CPB.36.2940|10.1248/CPB.36.4167|10.1248/CPB.38.411|10.1248/CPB.39.1137|10.1248/CPB.39.881|10.1248/CPB.40.2080|10.1248/CPB.42.2005|10.1248/CPB.43.1385|10.1248/CPB.43.1800|10.1248/CPB.44.1293|10.1248/CPB.46.113|10.1248/CPB.48.194|10.1248/CPB.48.687|10.1248/CPB.49.151|10.1248/CPB.49.768|10.1248/CPB.50.208|10.1248/CPB.50.841|10.1248/CPB.51.1439|10.1248/CPB.51.197|10.1248/CPB.51.343|10.1248/CPB.53.1345|10.1248/CPB.53.1519|10.1248/CPB.53.342|10.1248/CPB.54.740|10.1248/CPB.57.1089|10.1248/CPB.57.1227|10.1248/CPB.57.269|10.1248/CPB.58.1369|10.1248/CPB.59.1250|10.1248/CPB.59.1274|10.1248/CPB.59.135|10.1248/CPB.60.129|10.1248/YAKUSHI1947.103.6_679|10.1248/YAKUSHI1947.107.12_1001|10.1248/YAKUSHI1947.110.5_354|10.1248/YAKUSHI1947.116.2_148|10.1248/YAKUSHI1947.69.1_41|10.1248/YAKUSHI1947.74.1_109|10.1271/BBB.100200|10.1271/BBB.50669|10.1271/BBB.57.2122|10.1271/BBB.68.1984|10.1271/BBB.69.280|10.1271/BBB.80421|10.1271/bbb.68.1984|10.1271/bbb.69.280|10.1300/J044V05N02_05|10.1300/J044V09N02_12|10.1300/J044V09N04_12|10.1515/ZNC-1991-1-207|10.1515/ZNC-1995-11-1223|10.1515/ZNC-2001-11-1204|10.1515/ZNC-2001-9-1006|10.1515/ZNC-2002-11-1224|10.1515/ZNC-2003-7-826|10.1515/ZNC-2003-9-1019|10.15625/0866-708X/55/2/8608|10.1590/S0100-40422012001100004|10.1590/S0103-50532006000200010|10.20959/WJPR20177-8876|10.21608/BFSA.1984.89861|10.2307/2806097|10.2307/3754908|10.2978/JSAS.8.51|10.3109/13880209109082884|10.3390/70200245|10.3390/MOLECULES13112796|10.3390/MOLECULES14041456|10.3390/MOLECULES200815330|10.3390/MOLECULES23030580|10.3390/molecules200815330|10.3797/SCIPHARM.1410-10|10.38212/2224-6614.2870|10.3987/COM-03-S31|10.3987/COM-10-12082|10.3987/COM-96-7497|10.4268/CJCMM20101114|10.4268/CJCMM20150818|10.5344/AJEV.1996.47.2.186|10.5586/ASBP.1980.025|10.5586/ASBP.1982.038|10.5586/ASBP.1991.010|10.5897/AJB08.883|10.5897/AJB2010.000-3252|10.5897/JMPR.9000078

>  <synonyms>  (651) 
nan

>  <cas>  (651) 
522-12-3

$$$$

     RDKit          2D

 15 14  0  0  0  0  0  0  0  0999 V2000
   -6.4343    1.6156    0.0000 C   0  0  0  0  0  0  0  0  0  0  0  0
   -5.5919    0.3744    0.0000 C   0  0  0  0  0  0  0  0  0  0  0  0
   -4.0959    0.4833    0.0000 C   0  0  0  0  0  0  0  0  0  0  0  0
   -3.4422    1.8334    0.0000 C   0  0  0  0  0  0  0  0  0  0  0  0
   -3.2536   -0.7578    0.0000 C   0  0  0  0  0  0  0  0  0  0  0  0
   -1.7575   -0.6489    0.0000 C   0  0  0  0  0  0  0  0  0  0  0  0
   -0.9152   -1.8901    0.0000 C   0  0  0  0  0  0  0  0  0  0  0  0
    0.5809   -1.7812    0.0000 C   0  0  0  0  0  0  0  0  0  0  0  0
    1.4232   -3.0223    0.0000 C   0  0  0  0  0  0  0  0  0  0  0  0
    1.2346   -0.4311    0.0000 C   0  0  0  0  0  0  0  0  0  0  0  0
    2.7306   -0.3222    0.0000 C   0  0  0  0  0  0  0  0  0  0  0  0
    3.3843    1.0279    0.0000 C   0  0  0  0  0  0  0  0  0  0  0  0
    4.8803    1.1368    0.0000 C   0  0  0  0  0  0  0  0  0  0  0  0
    5.5340    2.4868    0.0000 C   0  0  0  0  0  0  0  0  0  0  0  0
    5.7227   -0.1044    0.0000 C   0  0  0  0  0  0  0  0  0  0  0  0
  1  2  2  0
  2  3  1  0
  3  4  1  0
  3  5  2  0
  5  6  1  0
  6  7  1  0
  7  8  2  3
  8  9  1  0
  8 10  1  0
 10 11  1  0
 11 12  1  0
 12 13  2  0
 13 14  1  0
 13 15  1  0
M  END
>  <identifier>  (652) 
CNP0220187.6

>  <canonical_smiles>  (652) 
C=C/C(C)=C/CC=C(C)CCC=C(C)C

>  <standard_inchi>  (652) 
InChI=1S/C15H24/c1-6-14(4)10-8-12-15(5)11-7-9-13(2)3/h6,9-10,12H,1,7-8,11H2,2-5H3/b14-10+,15-12?

>  <standard_inchi_key>  (652) 
CXENHBSYCFFKJS-GZCJILEISA-N

>  <name>  (652) 
nan

>  <iupac_name>  (652) 
nan

>  <annotation_level>  (652) 
0

>  <total_atom_count>  (652) 
39

>  <heavy_atom_count>  (652) 
15

>  <molecular_weight>  (652) 
204.36

>  <exact_molecular_weight>  (652) 
204.1878

>  <molecular_formula>  (652) 
C15H24

>  <alogp>  (652) 
5.20

>  <topological_polar_surface_area>  (652) 
0.00

>  <rotatable_bond_count>  (652) 
6

>  <hydrogen_bond_acceptors>  (652) 
0

>  <hydrogen_bond_donors>  (652) 
0

>  <hydrogen_bond_acceptors_lipinski>  (652) 
0

>  <hydrogen_bond_donors_lipinski>  (652) 
0

>  <lipinski_rule_of_five_violations>  (652) 
1

>  <aromatic_rings_count>  (652) 
0

>  <qed_drug_likeliness>  (652) 
0.41

>  <formal_charge>  (652) 
0

>  <fractioncsp3>  (652) 
0.47

>  <number_of_minimal_rings>  (652) 
0

>  <van_der_walls_volume>  (652) 
236.14

>  <contains_sugar>  (652) 
False

>  <contains_ring_sugars>  (652) 
False

>  <contains_linear_sugars>  (652) 
False

>  <murcko_framework>  (652) 
nan

>  <np_likeness>  (652) 
2.77

>  <chemical_class>  (652) 
nan

>  <chemical_sub_class>  (652) 
nan

>  <chemical_super_class>  (652) 
nan

>  <direct_parent_classification>  (652) 
nan

>  <np_classifier_pathway>  (652) 
Terpenoids

>  <np_classifier_superclass>  (652) 
Sesquiterpenoids

>  <np_classifier_class>  (652) 
Farnesane sesquiterpenoids

>  <np_classifier_is_glycoside>  (652) 
False

>  <organisms>  (652) 
Croton jacobinensis

>  <collections>  (652) 
Latin America dataset|NuBBEDB

>  <dois>  (652) 
10.1021/np50017a019

>  <synonyms>  (652) 
nan

>  <cas>  (652) 
nan

$$$$

     RDKit          2D

 26 28  0  0  0  0  0  0  0  0999 V2000
   -5.5468    1.1525    0.0000 C   0  0  0  0  0  0  0  0  0  0  0  0
   -5.3487   -0.3343    0.0000 O   0  0  0  0  0  0  0  0  0  0  0  0
   -3.9620   -0.9062    0.0000 C   0  0  0  0  0  0  0  0  0  0  0  0
   -2.7734    0.0088    0.0000 C   0  0  0  0  0  0  0  0  0  0  0  0
   -1.3867   -0.5631    0.0000 C   0  0  0  0  0  0  0  0  0  0  0  0
   -0.1981    0.3519    0.0000 C   0  0  0  0  0  0  0  0  0  0  0  0
    1.1886   -0.2199    0.0000 C   0  0  0  0  0  0  0  0  0  0  0  0
    1.3867   -1.7068    0.0000 C   0  0  0  0  0  0  0  0  0  0  0  0
    2.7734   -2.2787    0.0000 C   0  0  0  0  0  0  0  0  0  0  0  0
    2.9715   -3.7655    0.0000 O   0  0  0  0  0  0  0  0  0  0  0  0
    3.9620   -1.3637    0.0000 C   0  0  0  0  0  0  0  0  0  0  0  0
    5.3487   -1.9356    0.0000 O   0  0  0  0  0  0  0  0  0  0  0  0
    6.5373   -1.0206    0.0000 C   0  0  0  0  0  0  0  0  0  0  0  0
    3.7639    0.1232    0.0000 C   0  0  0  0  0  0  0  0  0  0  0  0
    2.3772    0.6950    0.0000 C   0  0  0  0  0  0  0  0  0  0  0  0
    2.1791    2.1819    0.0000 C   0  0  0  0  0  0  0  0  0  0  0  0
    0.7924    2.7538    0.0000 C   0  0  0  0  0  0  0  0  0  0  0  0
    0.5943    4.2406    0.0000 C   0  0  0  0  0  0  0  0  0  0  0  0
    1.7829    5.1556    0.0000 O   0  0  0  0  0  0  0  0  0  0  0  0
   -0.3962    1.8388    0.0000 C   0  0  0  0  0  0  0  0  0  0  0  0
   -1.7829    2.4107    0.0000 C   0  0  0  0  0  0  0  0  0  0  0  0
   -1.9810    3.8975    0.0000 O   0  0  0  0  0  0  0  0  0  0  0  0
   -1.1886   -2.0499    0.0000 C   0  0  0  0  0  0  0  0  0  0  0  0
   -2.3772   -2.9649    0.0000 C   0  0  0  0  0  0  0  0  0  0  0  0
   -3.7639   -2.3931    0.0000 C   0  0  0  0  0  0  0  0  0  0  0  0
   -4.9525   -3.3080    0.0000 O   0  0  0  0  0  0  0  0  0  0  0  0
  1  2  1  0
  2  3  1  0
  3  4  2  0
  4  5  1  0
  6  5  1  6
  6  7  1  0
  7  8  2  0
  8  9  1  0
  9 10  1  0
  9 11  2  0
 11 12  1  0
 12 13  1  0
 11 14  1  0
 14 15  2  0
 15 16  1  0
 16 17  1  0
 17 18  1  6
 18 19  1  0
 17 20  1  0
 20 21  1  1
 21 22  1  0
  5 23  2  0
 23 24  1  0
 24 25  2  0
 25 26  1  0
 25  3  1  0
 20  6  1  0
 15  7  1  0
M  END
>  <identifier>  (653) 
CNP0179824.1

>  <canonical_smiles>  (653) 
COC1=CC([C@H]2C3=CC(O)=C(OC)C=C3C[C@@H](CO)[C@@H]2CO)=CC=C1O

>  <standard_inchi>  (653) 
InChI=1S/C20H24O6/c1-25-18-6-11(3-4-16(18)23)20-14-8-17(24)19(26-2)7-12(14)5-13(9-21)15(20)10-22/h3-4,6-8,13,15,20-24H,5,9-10H2,1-2H3/t13-,15-,20-/m0/s1

>  <standard_inchi_key>  (653) 
OGFXBIXJCWAUCH-KPHUOKFYSA-N

>  <name>  (653) 
Isolariciresinol

>  <iupac_name>  (653) 
(2~{R},3~{R},4~{S})-4-(4-hydroxy-3-methoxy-phenyl)-2,3-bis(hydroxymethyl)-7-methoxy-tetralin-6-ol

>  <annotation_level>  (653) 
5

>  <total_atom_count>  (653) 
50

>  <heavy_atom_count>  (653) 
26

>  <molecular_weight>  (653) 
360.41

>  <exact_molecular_weight>  (653) 
360.15729

>  <molecular_formula>  (653) 
C20H24O6

>  <alogp>  (653) 
2.02

>  <topological_polar_surface_area>  (653) 
99.38

>  <rotatable_bond_count>  (653) 
5

>  <hydrogen_bond_acceptors>  (653) 
6

>  <hydrogen_bond_donors>  (653) 
4

>  <hydrogen_bond_acceptors_lipinski>  (653) 
6

>  <hydrogen_bond_donors_lipinski>  (653) 
4

>  <lipinski_rule_of_five_violations>  (653) 
0

>  <aromatic_rings_count>  (653) 
2

>  <qed_drug_likeliness>  (653) 
0.65

>  <formal_charge>  (653) 
0

>  <fractioncsp3>  (653) 
0.40

>  <number_of_minimal_rings>  (653) 
3

>  <van_der_walls_volume>  (653) 
325.04

>  <contains_sugar>  (653) 
False

>  <contains_ring_sugars>  (653) 
False

>  <contains_linear_sugars>  (653) 
False

>  <murcko_framework>  (653) 
c1ccc(cc1)C2c3ccccc3CCC2

>  <np_likeness>  (653) 
1.77

>  <chemical_class>  (653) 
Aryltetralin lignans

>  <chemical_sub_class>  (653) 
9,9p-dihydroxyaryltetralin lignans

>  <chemical_super_class>  (653) 
Lignans, neolignans and related compounds

>  <direct_parent_classification>  (653) 
9,9p-dihydroxyaryltetralin lignans

>  <np_classifier_pathway>  (653) 
Shikimates and Phenylpropanoids

>  <np_classifier_superclass>  (653) 
Lignans

>  <np_classifier_class>  (653) 
Arylnaphthalene and aryltetralin lignans

>  <np_classifier_is_glycoside>  (653) 
False

>  <organisms>  (653) 
Abies chensiensis|Abies nephrolepis|Abies pinsapo|Abies pinsapo subsp. marocana|Actinoplanes durhamensis|Adenopeltis colliguaya|Alcea rosea|Alcyonium utinomii|Aldisa sanguinea|Alpinia blepharocalyx|Amycolatopsis azurea|Anastatica hierochuntica|Anguilla japonica|Annona squamosa|Aonidiella aurantii|Aplysina archeri|Aplysina cauliformis|Araiostegiella perdurans|Araucaria angustifolia|Aspergillus arenarius|Aspergillus carneus|Aspergillus citricus|Aspergillus quadrilineatus|Aspergillus striatus|Asplenium normale|Balanophora laxiflora|Balanops australiana|Bituminaria bituminosa|Bombus hortorum|Brucea javanica|Canarium album|Canarium tonkinense|Carpobrotus edulis|Castanea crenata|Centaurea seridis|Centrolobium tomentosum|Cephalonomia gallicola|Ceratocystis clavigera|Ceratophyllum submersum|Cereus weberi|Chelidonura fulvipunctata|Chrozophora obliqua|Clematis chinensis|Clematis hexapetala|Clematis manshurica|Clematis terniflora var. mandshurica|Cneorum pulverulentum|Coleus garckeanus|Combretum quadrangulare|Consolida ajacis|Coptis chinensis|Coptis deltoidea|Coptis japonica|Coptis teeta|Cortinarius odoratus|Cycas revoluta|Dalbergia stipulacea|Daphne feddei|Dinemasporium strigosum|Dracocephalum kotschyi|Elaeagnus commutata|Eleutherobia albiflora|Ephedra viridis|Eucalyptus flocktoniae|Eucalyptus jenseni|Euonymus tingens|Eupatorium buniifolium|Euphorbia cornigera|Euterpe oleracea|Fagraea Racemosa|Fagraea racemosa|Fitzroya cupressoides|Flindersia brayleyana|Forsythia suspensa|Forsythia suspense|Forsythia viridissima|Fragaria|Gerbera piloselloides|Gnetum montanum|Gymnopus confluens|Heracleum sphondylium|Heritiera Littoralis|Hylocomium splendens|Ilyonectria destructans|Isatis tinctoria|Jungermannia obovata|Justicia diffusa|Justicia flava|Justicia glauca|Justicia tranquebariensis|Kokoona reflexa|Kummerowia striata|Lecanora stenotropa|Linum usitatissimum|Lippia carviodora|Lippia origanoides|Lippia sidoides|Lyophyllum shimeji|Macrolepiota neomastoidea|Maesa ramentacea|Mascarenhasia arborescens|Meconopsis napaulensis|Melolontha melolontha|Merremia umbellata|Millettia conraui|Millettia laurentii|Mitragyna inermis|Monodora tenuifolia|Myrica nana|Nototodarus sloanii|Nummularia discreta|Ocimum tenuiflorum|Oecophylla smaragdina|Oenothera odorata|Ormosia panamensis|Osmerus mordax|Paeonia lactiflora|Pajanelia multijuga|Palafoxia rosea|Parmelia metastrigosa|Pedicularis condensata|Penicillium janczewskii|Perityle vaseyi|Persicaria tinctoria|Phoebe formosana|Picea jezoensis var. jezoensis|Picea koraiensis|Picea obovata|Pinellia ternata|Pinus Massoniana|Pinus strobus|Pinus sylvestris|Pluchea odorata|Pneumatospora obcoronata|Porella swartziana|Protium tonkinense|Pseudoplexaura flagellosa|Psilostrophe cooperi|Punica granatum|Quercus mongolica|Rheum webbianum|Ribes nigrum|Rubia akane|Rubia argyi|Rubia yunnanensis|Rubus chamaemorus|Salacia chinensis|Salacia lehmbachii|Salvia coulteri|Salvia yosgadensis|Sambucus williamsii|Satureja cuneifolia|Scenedesmus basiliensis|Sedum Sarmentosum|Sedum sarmentosum|Senecio flavus|Sesamum orientale|Siberian larch|Sida cordifolia|Sideritis brevibracteata|Sideritis tragoriganum|Sideroxylon cubense|Solanum aculeatissimum|Solanum jamaicense|Solanum sisymbriifolium|Solenopsis invicta|Spodoptera littoralis|Spongia communis|Streblus asper|Streptomyces fradiae|Streptomyces mobaraensis|Symplocos Lancifolia|Symplocos setchuensis|Symplocos theifolia|Taxus baccata|Taxus wallichiana|Taxus yunnanensis|Thymbra spicata|Tinospora smilacina|Trichia floriformis|Trifolium alexandrinum|Tsuga chinensis|Turraeanthus mannii|Urtica dioica|Vaccinium myrtillus|Vaccinium vitis-idaea|Verbascum salviifolium|Viguiera decurrens|Vitex peduncularis|Vitis vinifera|Yponomeuta malinellus

>  <collections>  (653) 
Australian natural products|CMAUP (cCollective molecular activities of useful plants)|ChEBI NPs|ChemSpider NPs|FooDB|Latin America dataset|NPASS|NPEdia|NuBBEDB|Phenol-explorer|Phyto4Health|Super Natural II|TCMDB-Taiwan (Traditional Chinese Medicine database)|VietHerb|WikiData Natural Products|ZINC NP

>  <dois>  (653) 
10.1002/CBDV.200800139|10.1002/CBDV.201000373|10.1002/CHIN.200434217|10.1002/HLCA.200590212|10.1002/JCCS.198500013|10.1007/BF00563355|10.1007/BF00563906|10.1007/BF02856539|10.1007/BF03216746|10.1007/S10600-009-9325-Y|10.1007/SPRINGERREFERENCE_68783|10.1016/0031-9422(90)80140-C|10.1016/0031-9422(90)87120-J|10.1016/0031-9422(92)80293-N|10.1016/0031-9422(93)85117-A|10.1016/0031-9422(95)00600-1|10.1016/J.BMCL.2013.01.046|10.1016/J.FOODCHEM.2012.03.133|10.1016/J.PHYTOCHEM.2004.10.022|10.1016/J.PHYTOCHEM.2005.09.025|10.1016/J.PHYTOCHEM.2012.08.018|10.1016/S0031-9422(00)89347-4|10.1016/S0031-9422(00)90485-0|10.1016/S0308-8146(03)00222-X|10.1016/S0960-894X(03)00088-X|10.1016/j.bmc.2009.07.016|10.1016/j.bmcl.2013.01.046|10.1016/j.phytochem.2012.08.018|10.1021/JF801792N|10.1021/JF981359Y|10.1021/NP0005917|10.1021/NP0101189|10.1021/NP0205710|10.1021/NP0301543|10.1021/NP100665J|10.1021/NP2002918|10.1021/NP50010A008|10.1021/NP50078A023|10.1021/NP50108A005|10.1021/NP8004166|10.1021/np0005917|10.1021/np0101189|10.1021/np0301543|10.1021/np070104o|10.1021/np100665j|10.1021/np2002918|10.1021/np4009738|10.1021/np8004166|10.1055/S-0029-1240743|10.1055/S-2005-871254|10.1071/C98034|10.1071/c98034|10.1248/BPB.23.1328|10.1248/CPB.43.2200|10.1248/CPB.43.578|10.1248/CPB.51.1051|10.1248/CPB.51.654|10.1248/CPB.55.435|10.1248/CPB.55.804|10.3891/ACTA.CHEM.SCAND.23-2021|10.3891/ACTA.CHEM.SCAND.31B-0329|10.3987/COM-07-11050|10.4268/CJCMM20162420

>  <synonyms>  (653) 
((1S,2R,3R)-7-Hydroxy-1-(4-hydroxy-3-methoxyphenyl)-6-methoxy-1,2,3,4-tetrahydronaphthalene-2,3-diyl)dimethanol|(+)-(6R,7S,8S)-ISOLARICIRESINOL|(+)-CYCLOLARICIRESINOL|(+)-Isolariciresinol|(+)-Isolariciresinol, >=95.0% (HPLC)|(2R,3R,4S)-4-(4-hydroxy-3-methoxy-phenyl)-2,3-bis(hydroxymethyl)-7-methoxy-tetralin-6-ol|(6R,7R,8S)-8-(4-hydroxy-3-methoxyphenyl)-6,7-bis(hydroxymethyl)-3-methoxy-5,6,7,8-tetrahydronaphthalen-2-ol|.ALPHA.-CONIDENDRYL ALCOHOL|1,2,3,4-Tetrahydro-7-hydroxy-1-(4-hydroxy-3-methoxyphenyl)-6-methoxy-2,3-naphthalenedimethanol|2,3-NAPHTHALENEDIMETHANOL, 1,2,3,4-TETRAHYDRO-7-HYDROXY-1-(4-HYDROXY-3-METHOXYPHENYL)-6-METHOXY-, (1S,2R,3R)-|2,3-Naphthalenedimethanol, 1,2,3,4-tetrahydro-7-hydroxy-1-(4-hydroxy-3-methoxyphenyl)-6-methoxy-, (1S-(1alpha,2beta,3alpha))-|548-29-8|AKOS032948463|BDBM50223783|CHEBI:69542|CHEMBL399512|CS-0003457|Cyclolariciresinol|DTXCID20125764|DTXSID20203273|FRJ46XRJ28|G13419|HY-14579|ISOLARICIRESINOL, (+)-|Isolariciresinol (6CI); (+)-Cyclolariciresinol; (+)-Isolariciresinol; Isolariciresinol, (+)-; -Conidendryl alcohol|MS-25697|Q27137882|SCHEMBL12427087|UNII-FRJ46XRJ28|alpha-CONIDENDRYL ALCOHOL|isolariciresinol

>  <cas>  (653) 
548-29-8

$$$$

     RDKit          2D

 41 45  0  0  0  0  0  0  0  0999 V2000
   -0.6405    2.2122    0.0000 C   0  0  0  0  0  0  0  0  0  0  0  0
    0.2029    0.9717    0.0000 C   0  0  0  0  0  0  0  0  0  0  0  0
   -0.4497   -0.3789    0.0000 C   0  0  0  0  0  0  0  0  0  0  0  0
    0.3936   -1.6193    0.0000 C   0  0  0  0  0  0  0  0  0  0  0  0
    1.8896   -1.5092    0.0000 C   0  0  0  0  0  0  0  0  0  0  0  0
    2.5422   -0.1586    0.0000 C   0  0  0  0  0  0  0  0  0  0  0  0
    1.6988    1.0819    0.0000 N   0  0  0  0  0  0  0  0  0  0  0  0
    2.3514    2.4325    0.0000 C   0  0  0  0  0  0  0  0  0  0  0  0
    1.5081    3.6729    0.0000 C   0  0  0  0  0  0  0  0  0  0  0  0
    0.0121    3.5628    0.0000 O   0  0  0  0  0  0  0  0  0  0  0  0
    2.1607    5.0235    0.0000 O   0  0  0  0  0  0  0  0  0  0  0  0
    3.8474    2.5426    0.0000 C   0  0  0  0  0  0  0  0  0  0  0  0
    4.6907    1.3021    0.0000 C   0  0  0  0  0  0  0  0  0  0  0  0
    4.0381   -0.0485    0.0000 C   0  0  0  0  0  0  0  0  0  0  0  0
    5.1210   -1.0865    0.0000 N   0  0  0  0  0  0  0  0  0  0  0  0
    6.4428   -0.3774    0.0000 C   0  0  0  0  0  0  0  0  0  0  0  0
    7.8542   -0.8852    0.0000 C   0  0  0  0  0  0  0  0  0  0  0  0
    8.9997    0.0832    0.0000 C   0  0  0  0  0  0  0  0  0  0  0  0
    8.7338    1.5594    0.0000 C   0  0  0  0  0  0  0  0  0  0  0  0
    7.3224    2.0672    0.0000 C   0  0  0  0  0  0  0  0  0  0  0  0
    6.1769    1.0988    0.0000 C   0  0  0  0  0  0  0  0  0  0  0  0
   -0.2589   -2.9699    0.0000 C   0  0  0  0  0  0  0  0  0  0  0  0
    0.5844   -4.2104    0.0000 C   0  0  0  0  0  0  0  0  0  0  0  0
    2.0804   -4.1003    0.0000 O   0  0  0  0  0  0  0  0  0  0  0  0
   -0.0682   -5.5610    0.0000 O   0  0  0  0  0  0  0  0  0  0  0  0
    0.7752   -6.8015    0.0000 C   0  0  0  0  0  0  0  0  0  0  0  0
   -1.7549   -3.0801    0.0000 C   0  0  0  0  0  0  0  0  0  0  0  0
   -2.5983   -1.8396    0.0000 O   0  0  0  0  0  0  0  0  0  0  0  0
   -1.9457   -0.4890    0.0000 C   0  0  0  0  0  0  0  0  0  0  0  0
   -2.7890    0.7515    0.0000 O   0  0  0  0  0  0  0  0  0  0  0  0
   -4.2850    0.6413    0.0000 C   0  0  0  0  0  0  0  0  0  0  0  0
   -5.1283    1.8818    0.0000 O   0  0  0  0  0  0  0  0  0  0  0  0
   -6.6243    1.7716    0.0000 C   0  0  0  0  0  0  0  0  0  0  0  0
   -7.4676    3.0121    0.0000 C   0  0  0  0  0  0  0  0  0  0  0  0
   -6.8150    4.3627    0.0000 O   0  0  0  0  0  0  0  0  0  0  0  0
   -7.2769    0.4210    0.0000 C   0  0  0  0  0  0  0  0  0  0  0  0
   -8.7728    0.3109    0.0000 O   0  0  0  0  0  0  0  0  0  0  0  0
   -6.4335   -0.8194    0.0000 C   0  0  0  0  0  0  0  0  0  0  0  0
   -7.0861   -2.1700    0.0000 O   0  0  0  0  0  0  0  0  0  0  0  0
   -4.9376   -0.7093    0.0000 C   0  0  0  0  0  0  0  0  0  0  0  0
   -4.0942   -1.9497    0.0000 O   0  0  0  0  0  0  0  0  0  0  0  0
  1  2  2  0
  2  3  1  0
  3  4  1  0
  4  5  1  0
  5  6  1  0
  6  7  2  0
  7  8  1  0
  8  9  1  0
  9 10  2  0
  9 11  1  0
  8 12  2  0
 12 13  1  0
 13 14  2  0
 14 15  1  0
 15 16  1  0
 16 17  2  0
 17 18  1  0
 18 19  2  0
 19 20  1  0
 20 21  2  0
  4 22  1  0
 22 23  1  0
 23 24  2  0
 23 25  1  0
 25 26  1  0
 22 27  2  0
 27 28  1  0
 28 29  1  0
 29 30  1  1
 31 30  1  1
 31 32  1  0
 32 33  1  0
 33 34  1  1
 34 35  1  0
 33 36  1  0
 36 37  1  6
 36 38  1  0
 38 39  1  1
 38 40  1  0
 40 41  1  6
 29  3  1  0
 40 31  1  0
 14  6  1  0
 21 16  1  0
 21 13  1  0
M  END
>  <identifier>  (654) 
CNP0272441.3

>  <canonical_smiles>  (654) 
C=CC1C(CC2=NC(C(=O)O)=CC3=C2NC2=CC=CC=C23)C(C(=O)OC)=CO[C@H]1O[C@@H]1O[C@H](CO)[C@@H](O)[C@H](O)[C@H]1O

>  <standard_inchi>  (654) 
InChI=1S/C28H30N2O11/c1-3-12-14(8-18-21-15(9-19(29-18)25(35)36)13-6-4-5-7-17(13)30-21)16(26(37)38-2)11-39-27(12)41-28-24(34)23(33)22(32)20(10-31)40-28/h3-7,9,11-12,14,20,22-24,27-28,30-34H,1,8,10H2,2H3,(H,35,36)/t12?,14?,20-,22-,23+,24-,27+,28+/m1/s1

>  <standard_inchi_key>  (654) 
APMZCJQXEGDAIT-STAZHCHLSA-N

>  <name>  (654) 
nan

>  <iupac_name>  (654) 
1-[[(2~{S})-5-methoxycarbonyl-2-[(2~{S},3~{R},4~{S},5~{S},6~{R})-3,4,5-trihydroxy-6-(hydroxymethyl)tetrahydropyran-2-yl]oxy-3-vinyl-3,4-dihydro-2~{H}-pyran-4-yl]methyl]-9~{H}-pyrido[3,4-b]indole-3-carboxylic acid

>  <annotation_level>  (654) 
4

>  <total_atom_count>  (654) 
71

>  <heavy_atom_count>  (654) 
41

>  <molecular_weight>  (654) 
570.55

>  <exact_molecular_weight>  (654) 
570.18496

>  <molecular_formula>  (654) 
C28H30N2O11

>  <alogp>  (654) 
0.60

>  <topological_polar_surface_area>  (654) 
200.89

>  <rotatable_bond_count>  (654) 
8

>  <hydrogen_bond_acceptors>  (654) 
11

>  <hydrogen_bond_donors>  (654) 
6

>  <hydrogen_bond_acceptors_lipinski>  (654) 
11

>  <hydrogen_bond_donors_lipinski>  (654) 
6

>  <lipinski_rule_of_five_violations>  (654) 
3

>  <aromatic_rings_count>  (654) 
3

>  <qed_drug_likeliness>  (654) 
0.16

>  <formal_charge>  (654) 
0

>  <fractioncsp3>  (654) 
0.39

>  <number_of_minimal_rings>  (654) 
5

>  <van_der_walls_volume>  (654) 
nan

>  <contains_sugar>  (654) 
True

>  <contains_ring_sugars>  (654) 
True

>  <contains_linear_sugars>  (654) 
False

>  <murcko_framework>  (654) 
n1ccc2c3ccccc3[nH]c2c1CC4C=COC(OC5OCCCC5)C4

>  <np_likeness>  (654) 
1.88

>  <chemical_class>  (654) 
Harmala alkaloids

>  <chemical_sub_class>  (654) 
Harmala alkaloids

>  <chemical_super_class>  (654) 
Alkaloids and derivatives

>  <direct_parent_classification>  (654) 
Harmala alkaloids

>  <np_classifier_pathway>  (654) 
Alkaloids

>  <np_classifier_superclass>  (654) 
Tryptophan alkaloids

>  <np_classifier_class>  (654) 
Carboline alkaloids

>  <np_classifier_is_glycoside>  (654) 
True

>  <organisms>  (654) 
Chimarrhis turbinata

>  <collections>  (654) 
Latin America dataset|NuBBEDB|WikiData Natural Products

>  <dois>  (654) 
10.1590/S0102-695X2008000100007

>  <synonyms>  (654) 
Deoxycordifoline

>  <cas>  (654) 
nan

$$$$

     RDKit          2D

 51 55  0  0  0  0  0  0  0  0999 V2000
   -6.3406    2.6530    0.0000 C   0  0  0  0  0  0  0  0  0  0  0  0
   -4.8432    2.5654    0.0000 C   0  0  0  0  0  0  0  0  0  0  0  0
   -4.1774    3.9095    0.0000 O   0  0  0  0  0  0  0  0  0  0  0  0
   -4.1704    1.2247    0.0000 O   0  0  0  0  0  0  0  0  0  0  0  0
   -2.6729    1.1371    0.0000 C   0  0  0  0  0  0  0  0  0  0  0  0
   -2.0001   -0.2036    0.0000 C   0  0  0  0  0  0  0  0  0  0  0  0
   -2.8248   -1.4566    0.0000 C   0  0  0  0  0  0  0  0  0  0  0  0
   -4.3222   -1.3689    0.0000 O   0  0  0  0  0  0  0  0  0  0  0  0
   -5.1468   -2.6219    0.0000 C   0  0  0  0  0  0  0  0  0  0  0  0
   -6.6443   -2.5343    0.0000 C   0  0  0  0  0  0  0  0  0  0  0  0
   -4.4740   -3.9626    0.0000 O   0  0  0  0  0  0  0  0  0  0  0  0
   -2.1520   -2.7972    0.0000 C   0  0  0  0  0  0  0  0  0  0  0  0
   -2.8177   -4.1414    0.0000 O   0  0  0  0  0  0  0  0  0  0  0  0
   -0.6545   -2.8849    0.0000 C   0  0  0  0  0  0  0  0  0  0  0  0
   -1.3296   -1.5454    0.0000 C   0  0  0  0  0  0  0  0  0  0  0  0
   -2.8101   -1.3042    0.0000 O   0  0  0  0  0  0  0  0  0  0  0  0
   -3.7592   -2.4657    0.0000 C   0  0  0  0  0  0  0  0  0  0  0  0
   -5.2541   -2.5899    0.0000 C   0  0  0  0  0  0  0  0  0  0  0  0
   -3.4028   -3.9228    0.0000 O   0  0  0  0  0  0  0  0  0  0  0  0
   -0.4883   -0.0449    0.0000 C   0  0  0  0  0  0  0  0  0  0  0  0
   -0.1282   -1.5011    0.0000 O   0  0  0  0  0  0  0  0  0  0  0  0
    0.8280   -2.6568    0.0000 C   0  0  0  0  0  0  0  0  0  0  0  0
   -0.0859   -3.8462    0.0000 C   0  0  0  0  0  0  0  0  0  0  0  0
    2.1910   -3.2831    0.0000 C   0  0  0  0  0  0  0  0  0  0  0  0
    3.6907   -3.2561    0.0000 O   0  0  0  0  0  0  0  0  0  0  0  0
    5.0303   -2.5810    0.0000 C   0  0  0  0  0  0  0  0  0  0  0  0
    5.9865   -3.7367    0.0000 O   0  0  0  0  0  0  0  0  0  0  0  0
    5.9442   -1.3916    0.0000 C   0  0  0  0  0  0  0  0  0  0  0  0
    7.0620   -2.3919    0.0000 C   0  0  0  0  0  0  0  0  0  0  0  0
    8.4871   -1.9240    0.0000 C   0  0  0  0  0  0  0  0  0  0  0  0
    8.7945   -0.4558    0.0000 C   0  0  0  0  0  0  0  0  0  0  0  0
    7.6767    0.5445    0.0000 N   0  0  0  0  0  0  0  0  0  0  0  0
    6.2516    0.0766    0.0000 C   0  0  0  0  0  0  0  0  0  0  0  0
    5.8915    1.5327    0.0000 C   0  0  0  0  0  0  0  0  0  0  0  0
    7.2310    2.2078    0.0000 C   0  0  0  0  0  0  0  0  0  0  0  0
    4.9353    2.6884    0.0000 C   0  0  0  0  0  0  0  0  0  0  0  0
    5.8492    3.8778    0.0000 C   0  0  0  0  0  0  0  0  0  0  0  0
    3.5723    3.3148    0.0000 C   0  0  0  0  0  0  0  0  0  0  0  0
    3.8797    4.7829    0.0000 O   0  0  0  0  0  0  0  0  0  0  0  0
    2.0725    3.2877    0.0000 O   0  0  0  0  0  0  0  0  0  0  0  0
    0.7330    2.6127    0.0000 C   0  0  0  0  0  0  0  0  0  0  0  0
   -1.3653    2.3157    0.0000 C   0  0  0  0  0  0  0  0  0  0  0  0
   -1.7752    3.7587    0.0000 O   0  0  0  0  0  0  0  0  0  0  0  0
   -2.4100    1.2393    0.0000 C   0  0  0  0  0  0  0  0  0  0  0  0
   -3.8645    1.6058    0.0000 O   0  0  0  0  0  0  0  0  0  0  0  0
   -4.2744    3.0487    0.0000 C   0  0  0  0  0  0  0  0  0  0  0  0
   -5.7290    3.4152    0.0000 C   0  0  0  0  0  0  0  0  0  0  0  0
   -3.1063    3.9898    0.0000 O   0  0  0  0  0  0  0  0  0  0  0  0
   -0.1809    1.4232    0.0000 C   0  0  0  0  0  0  0  0  0  0  0  0
   -1.6599    1.1730    0.0000 C   0  0  0  0  0  0  0  0  0  0  0  0
   -1.2422    2.4832    0.0000 O   0  0  0  0  0  0  0  0  0  0  0  0
  1  2  1  0
  2  3  2  0
  2  4  1  0
  4  5  1  0
  6  5  1  1
  6  7  1  0
  7  8  1  1
  8  9  1  0
  9 10  1  0
  9 11  2  0
  7 12  1  0
 12 13  1  6
 12 14  1  0
 14 15  1  0
 15 16  1  1
 16 17  1  0
 17 18  1  0
 17 19  2  0
 15 20  1  0
 20 21  1  6
 21 22  1  0
 22 23  1  6
 22 24  1  0
 24 25  1  0
 25 26  1  0
 26 27  2  0
 26 28  1  0
 28 29  2  0
 29 30  1  0
 30 31  2  0
 31 32  1  0
 32 33  2  0
 33 34  1  0
 34 35  1  0
 34 36  1  0
 36 37  1  0
 36 38  1  0
 38 39  2  0
 38 40  1  0
 41 40  1  6
 41 42  1  0
 42 43  1  1
 42 44  1  0
 44 45  1  1
 45 46  1  0
 46 47  1  0
 46 48  2  0
 41 49  1  0
 49 50  1  6
 49 51  1  0
 20  6  1  0
 33 28  1  0
 44  6  1  0
 14 22  1  6
 49 20  1  0
M  END
>  <identifier>  (655) 
CNP0307653.3

>  <canonical_smiles>  (655) 
CC(=O)OC[C@]12[C@H](OC(C)=O)[C@@H](O)[C@@H]3[C@@H](OC(C)=O)[C@@]14O[C@@]3(C)COC(=O)C1=CC=CN=C1C(C)C(C)C(=O)O[C@@H]([C@H](O)[C@@H]2OC(C)=O)[C@]4(C)O

>  <standard_inchi>  (655) 
InChI=1S/C34H43NO16/c1-14-15(2)29(42)50-26-24(41)28(49-19(6)39)33(13-45-16(3)36)27(48-18(5)38)23(40)21-25(47-17(4)37)34(33,32(26,8)44)51-31(21,7)12-46-30(43)20-10-9-11-35-22(14)20/h9-11,14-15,21,23-28,40-41,44H,12-13H2,1-8H3/t14?,15?,21-,23+,24+,25-,26+,27-,28+,31+,32+,33-,34+/m1/s1

>  <standard_inchi_key>  (655) 
SHDBRMQJPSDFRT-ZYKMTNKGSA-N

>  <name>  (655) 
nan

>  <iupac_name>  (655) 
[(1~{S},3~{R},17~{S},18~{R},19~{R},20~{R},21~{S},22~{S},23~{R},24~{R},25~{S})-19,21,24-triacetoxy-18,22,25-trihydroxy-3,13,14,25-tetramethyl-6,15-dioxo-2,5,16-trioxa-11-azapentacyclo[15.7.1.0^{1,20}.0^{3,23}.0^{7,12}]pentacosa-7,9,11-trien-20-yl]methyl acetate

>  <annotation_level>  (655) 
4

>  <total_atom_count>  (655) 
94

>  <heavy_atom_count>  (655) 
51

>  <molecular_weight>  (655) 
721.71

>  <exact_molecular_weight>  (655) 
721.25818

>  <molecular_formula>  (655) 
C34H43NO16

>  <alogp>  (655) 
-0.11

>  <topological_polar_surface_area>  (655) 
240.61

>  <rotatable_bond_count>  (655) 
5

>  <hydrogen_bond_acceptors>  (655) 
17

>  <hydrogen_bond_donors>  (655) 
3

>  <hydrogen_bond_acceptors_lipinski>  (655) 
17

>  <hydrogen_bond_donors_lipinski>  (655) 
3

>  <lipinski_rule_of_five_violations>  (655) 
2

>  <aromatic_rings_count>  (655) 
1

>  <qed_drug_likeliness>  (655) 
0.27

>  <formal_charge>  (655) 
0

>  <fractioncsp3>  (655) 
0.68

>  <number_of_minimal_rings>  (655) 
5

>  <van_der_walls_volume>  (655) 
nan

>  <contains_sugar>  (655) 
False

>  <contains_ring_sugars>  (655) 
False

>  <contains_linear_sugars>  (655) 
False

>  <murcko_framework>  (655) 
n1cccc2c1CCCOC3CCC4CCC5CC4(OC5COC2)C3

>  <np_likeness>  (655) 
1.92

>  <chemical_class>  (655) 
nan

>  <chemical_sub_class>  (655) 
Alkaloids and derivatives

>  <chemical_super_class>  (655) 
Alkaloids and derivatives

>  <direct_parent_classification>  (655) 
Alkaloids and derivatives

>  <np_classifier_pathway>  (655) 
Alkaloids

>  <np_classifier_superclass>  (655) 
Nicotinic acid alkaloids

>  <np_classifier_class>  (655) 
Agarofuran sesquiterpenoids

>  <np_classifier_is_glycoside>  (655) 
False

>  <organisms>  (655) 
Maytenus aquifolium|Monteverdia aquifolium

>  <collections>  (655) 
Latin America dataset|NuBBEDB|WikiData Natural Products

>  <dois>  (655) 
10.1016/S0031-9422(97)00824-8

>  <synonyms>  (655) 
Aquifoliunine E-II

>  <cas>  (655) 
nan

$$$$

     RDKit          2D

 25 28  0  0  0  0  0  0  0  0999 V2000
   -7.5850   -1.7978    0.0000 C   0  0  0  0  0  0  0  0  0  0  0  0
   -6.1416   -2.2058    0.0000 O   0  0  0  0  0  0  0  0  0  0  0  0
   -5.0665   -1.1598    0.0000 C   0  0  0  0  0  0  0  0  0  0  0  0
   -5.4349    0.2943    0.0000 C   0  0  0  0  0  0  0  0  0  0  0  0
   -4.3598    1.3404    0.0000 C   0  0  0  0  0  0  0  0  0  0  0  0
   -2.9164    0.9323    0.0000 C   0  0  0  0  0  0  0  0  0  0  0  0
   -1.8413    1.9784    0.0000 C   0  0  0  0  0  0  0  0  0  0  0  0
   -2.2097    3.4325    0.0000 O   0  0  0  0  0  0  0  0  0  0  0  0
   -0.3978    1.5704    0.0000 C   0  0  0  0  0  0  0  0  0  0  0  0
    0.6772    2.6164    0.0000 O   0  0  0  0  0  0  0  0  0  0  0  0
    2.1207    2.2084    0.0000 C   0  0  0  0  0  0  0  0  0  0  0  0
    2.4890    0.7544    0.0000 C   0  0  0  0  0  0  0  0  0  0  0  0
    3.9325    0.3464    0.0000 C   0  0  0  0  0  0  0  0  0  0  0  0
    5.0076    1.3924    0.0000 O   0  0  0  0  0  0  0  0  0  0  0  0
    6.4510    0.9844    0.0000 C   0  0  0  0  0  0  0  0  0  0  0  0
    4.3009   -1.1077    0.0000 C   0  0  0  0  0  0  0  0  0  0  0  0
    5.7443   -1.5157    0.0000 O   0  0  0  0  0  0  0  0  0  0  0  0
    6.1127   -2.9698    0.0000 C   0  0  0  0  0  0  0  0  0  0  0  0
    3.2258   -2.1538    0.0000 C   0  0  0  0  0  0  0  0  0  0  0  0
    1.7823   -1.7457    0.0000 C   0  0  0  0  0  0  0  0  0  0  0  0
    1.4140   -0.2917    0.0000 C   0  0  0  0  0  0  0  0  0  0  0  0
   -0.0295    0.1163    0.0000 C   0  0  0  0  0  0  0  0  0  0  0  0
   -1.1045   -0.9297    0.0000 O   0  0  0  0  0  0  0  0  0  0  0  0
   -2.5480   -0.5217    0.0000 C   0  0  0  0  0  0  0  0  0  0  0  0
   -3.6231   -1.5678    0.0000 C   0  0  0  0  0  0  0  0  0  0  0  0
  1  2  1  0
  2  3  1  0
  3  4  2  0
  4  5  1  0
  5  6  2  0
  6  7  1  0
  7  8  2  0
  7  9  1  0
  9 10  1  6
 10 11  1  0
 11 12  1  0
 12 13  2  0
 13 14  1  0
 14 15  1  0
 13 16  1  0
 16 17  1  0
 17 18  1  0
 16 19  2  0
 19 20  1  0
 20 21  2  0
 21 22  1  0
 22 23  1  1
 23 24  1  0
 24 25  2  0
 25  3  1  0
 24  6  1  0
 22  9  1  0
 21 12  1  0
M  END
>  <identifier>  (656) 
CNP0080610.1

>  <canonical_smiles>  (656) 
COC1=CC=C2C(=O)[C@@H]3OCC4=C(OC)C(OC)=CC=C4[C@H]3OC2=C1

>  <standard_inchi>  (656) 
InChI=1S/C19H18O6/c1-21-10-4-5-12-15(8-10)25-18-11-6-7-14(22-2)17(23-3)13(11)9-24-19(18)16(12)20/h4-8,18-19H,9H2,1-3H3/t18-,19+/m1/s1

>  <standard_inchi_key>  (656) 
VNEMVXZGMYWDLA-MOPGFXCFSA-N

>  <name>  (656) 
nan

>  <iupac_name>  (656) 
(6~{a}~{R},12~{a}~{R})-3,4,10-trimethoxy-6~{a},12~{a}-dihydro-5~{H}-isochromeno[4,3-b]chromen-7-one

>  <annotation_level>  (656) 
3

>  <total_atom_count>  (656) 
43

>  <heavy_atom_count>  (656) 
25

>  <molecular_weight>  (656) 
342.35

>  <exact_molecular_weight>  (656) 
342.11034

>  <molecular_formula>  (656) 
C19H18O6

>  <alogp>  (656) 
2.93

>  <topological_polar_surface_area>  (656) 
63.22

>  <rotatable_bond_count>  (656) 
3

>  <hydrogen_bond_acceptors>  (656) 
6

>  <hydrogen_bond_donors>  (656) 
0

>  <hydrogen_bond_acceptors_lipinski>  (656) 
6

>  <hydrogen_bond_donors_lipinski>  (656) 
0

>  <lipinski_rule_of_five_violations>  (656) 
0

>  <aromatic_rings_count>  (656) 
2

>  <qed_drug_likeliness>  (656) 
0.85

>  <formal_charge>  (656) 
0

>  <fractioncsp3>  (656) 
0.32

>  <number_of_minimal_rings>  (656) 
4

>  <van_der_walls_volume>  (656) 
nan

>  <contains_sugar>  (656) 
False

>  <contains_ring_sugars>  (656) 
False

>  <contains_linear_sugars>  (656) 
False

>  <murcko_framework>  (656) 
O1c2ccccc2CC3OCc4ccccc4C13

>  <np_likeness>  (656) 
1.29

>  <chemical_class>  (656) 
Flavonoids

>  <chemical_sub_class>  (656) 
Pyranoflavonoids

>  <chemical_super_class>  (656) 
Phenylpropanoids and polyketides

>  <direct_parent_classification>  (656) 
Pyranoflavonoids

>  <np_classifier_pathway>  (656) 
Shikimates and Phenylpropanoids

>  <np_classifier_superclass>  (656) 
nan

>  <np_classifier_class>  (656) 
nan

>  <np_classifier_is_glycoside>  (656) 
False

>  <organisms>  (656) 
Goniorrhachis marginata

>  <collections>  (656) 
Latin America dataset|NuBBEDB|WikiData Natural Products

>  <dois>  (656) 
10.1016/0031-9422(74)80106-8

>  <synonyms>  (656) 
nan

>  <cas>  (656) 
nan

$$$$

     RDKit          2D

 33 38  0  0  0  0  0  0  0  0999 V2000
   -2.0053    5.5161    0.0000 C   0  0  0  0  0  0  0  0  0  0  0  0
   -1.0006    4.4023    0.0000 O   0  0  0  0  0  0  0  0  0  0  0  0
   -1.4628    2.9753    0.0000 C   0  0  0  0  0  0  0  0  0  0  0  0
   -2.5521    2.8790    0.0000 O   0  0  0  0  0  0  0  0  0  0  0  0
   -0.4581    1.8615    0.0000 C   0  0  0  0  0  0  0  0  0  0  0  0
   -0.9203    0.4345    0.0000 C   0  0  0  0  0  0  0  0  0  0  0  0
    0.0844   -0.6793    0.0000 C   0  0  0  0  0  0  0  0  0  0  0  0
    0.6932    0.6915    0.0000 C   0  0  0  0  0  0  0  0  0  0  0  0
    1.5844   -0.6780    0.0000 C   0  0  0  0  0  0  0  0  0  0  0  0
    2.7971    0.2048    0.0000 C   0  0  0  0  0  0  0  0  0  0  0  0
    2.7957    1.7048    0.0000 C   0  0  0  0  0  0  0  0  0  0  0  0
    4.0114   -0.6758    0.0000 C   0  0  0  0  0  0  0  0  0  0  0  0
    5.4376   -0.2110    0.0000 C   0  0  0  0  0  0  0  0  0  0  0  0
    5.8998    1.2160    0.0000 C   0  0  0  0  0  0  0  0  0  0  0  0
    7.3998    1.2174    0.0000 O   0  0  0  0  0  0  0  0  0  0  0  0
    7.8646   -0.2088    0.0000 C   0  0  0  0  0  0  0  0  0  0  0  0
    6.6519   -1.0916    0.0000 C   0  0  0  0  0  0  0  0  0  0  0  0
    3.5492   -2.1028    0.0000 C   0  0  0  0  0  0  0  0  0  0  0  0
    2.0492   -2.1042    0.0000 C   0  0  0  0  0  0  0  0  0  0  0  0
    0.8364   -2.9869    0.0000 O   0  0  0  0  0  0  0  0  0  0  0  0
   -0.3779   -2.1063    0.0000 C   0  0  0  0  0  0  0  0  0  0  0  0
   -1.8448   -2.4195    0.0000 C   0  0  0  0  0  0  0  0  0  0  0  0
   -2.5936   -3.7193    0.0000 O   0  0  0  0  0  0  0  0  0  0  0  0
   -4.0612   -3.4087    0.0000 C   0  0  0  0  0  0  0  0  0  0  0  0
   -4.2193   -1.9171    0.0000 C   0  0  0  0  0  0  0  0  0  0  0  0
   -4.7932   -1.3638    0.0000 C   0  0  0  0  0  0  0  0  0  0  0  0
   -5.2396   -0.8083    0.0000 C   0  0  0  0  0  0  0  0  0  0  0  0
   -4.9291    0.6592    0.0000 C   0  0  0  0  0  0  0  0  0  0  0  0
   -3.5029    1.1240    0.0000 C   0  0  0  0  0  0  0  0  0  0  0  0
   -3.4086    2.2134    0.0000 O   0  0  0  0  0  0  0  0  0  0  0  0
   -2.3873    0.1213    0.0000 C   0  0  0  0  0  0  0  0  0  0  0  0
   -3.0486    0.5664    0.0000 C   0  0  0  0  0  0  0  0  0  0  0  0
   -2.8495   -1.3057    0.0000 C   0  0  0  0  0  0  0  0  0  0  0  0
  1  2  1  0
  2  3  1  0
  3  4  2  0
  3  5  1  0
  6  5  1  1
  6  7  1  0
  7  8  1  1
  7  9  1  0
  9 10  2  0
 10 11  1  0
 10 12  1  0
 12 13  1  6
 13 14  2  0
 14 15  1  0
 15 16  1  0
 16 17  2  0
 12 18  1  0
 19 18  1  1
 19 20  1  0
 21 20  1  6
 21 22  1  0
 22 23  1  6
 23 24  1  0
 24 25  1  0
 25 26  1  1
 25 27  1  0
 27 28  2  0
 28 29  1  0
 29 30  2  0
 29 31  1  0
 31 32  1  1
 31 33  1  0
 31  6  1  0
 21  7  1  0
 33 22  1  0
 19  9  1  0
 33 25  1  1
 17 13  1  0
M  END
>  <identifier>  (657) 
CNP0247727.1

>  <canonical_smiles>  (657) 
COC(=O)C[C@H]1[C@]2(C)C3=C(C)[C@H](C4=COC=C4)C[C@H]3O[C@@H]2[C@@H]2OC[C@]3(C)C=CC(=O)[C@@]1(C)[C@@H]23

>  <standard_inchi>  (657) 
InChI=1S/C27H32O6/c1-14-16(15-7-9-31-12-15)10-17-21(14)27(4)18(11-20(29)30-5)26(3)19(28)6-8-25(2)13-32-22(23(25)26)24(27)33-17/h6-9,12,16-18,22-24H,10-11,13H2,1-5H3/t16-,17-,18-,22-,23+,24-,25+,26+,27-/m1/s1

>  <standard_inchi_key>  (657) 
CWGBIWRWBCYASK-LMHNVORZSA-N

>  <name>  (657) 
28-Deoxonimbolide

>  <iupac_name>  (657) 
methyl 2-[(1~{R},2~{S},4~{R},6~{R},9~{R},10~{S},11~{R},15~{R},18~{S})-6-(3-furyl)-7,9,11,15-tetramethyl-12-oxo-3,17-dioxapentacyclo[9.6.1.0^{2,9}.0^{4,8}.0^{15,18}]octadeca-7,13-dien-10-yl]acetate

>  <annotation_level>  (657) 
5

>  <total_atom_count>  (657) 
65

>  <heavy_atom_count>  (657) 
33

>  <molecular_weight>  (657) 
452.55

>  <exact_molecular_weight>  (657) 
452.21989

>  <molecular_formula>  (657) 
C27H32O6

>  <alogp>  (657) 
4.22

>  <topological_polar_surface_area>  (657) 
74.97

>  <rotatable_bond_count>  (657) 
3

>  <hydrogen_bond_acceptors>  (657) 
6

>  <hydrogen_bond_donors>  (657) 
0

>  <hydrogen_bond_acceptors_lipinski>  (657) 
6

>  <hydrogen_bond_donors_lipinski>  (657) 
0

>  <lipinski_rule_of_five_violations>  (657) 
0

>  <aromatic_rings_count>  (657) 
1

>  <qed_drug_likeliness>  (657) 
0.51

>  <formal_charge>  (657) 
0

>  <fractioncsp3>  (657) 
0.63

>  <number_of_minimal_rings>  (657) 
6

>  <van_der_walls_volume>  (657) 
409.78

>  <contains_sugar>  (657) 
False

>  <contains_ring_sugars>  (657) 
False

>  <contains_linear_sugars>  (657) 
False

>  <murcko_framework>  (657) 
o1ccc(c1)C2C=C3C(OC4C5OCC6C=CCC(CC34)C56)C2

>  <np_likeness>  (657) 
3.23

>  <chemical_class>  (657) 
Prenol lipids

>  <chemical_sub_class>  (657) 
Triterpenoids

>  <chemical_super_class>  (657) 
Lipids and lipid-like molecules

>  <direct_parent_classification>  (657) 
Limonoids

>  <np_classifier_pathway>  (657) 
Terpenoids

>  <np_classifier_superclass>  (657) 
Triterpenoids

>  <np_classifier_class>  (657) 
Limonoids

>  <np_classifier_is_glycoside>  (657) 
False

>  <organisms>  (657) 
Azadirachta indica

>  <collections>  (657) 
CMAUP (cCollective molecular activities of useful plants)|ChEBI NPs|Latin America dataset|NPASS|NuBBEDB|WikiData Natural Products

>  <dois>  (657) 
10.1002/PCA.1208|10.1002/pca.1208|10.1016/S0040-4020(01)81360-0|10.1021/NP100783K|10.1021/np100783k|10.1021/np50066a008

>  <synonyms>  (657) 
126005-94-5|28-deoxonimbolide|2H,5H-Cyclopenta[b]furo[2',3',4':4,5]naphtho[2,3-d]furan-6-acetic acid, 8-(3-furanyl)-2a,5a,6,6a,8,9,9a,10a,10b,10c-decahydro-2a,5a,6a,7-tetramethyl-5-oxo-, methyl ester, (2aR,5aR,6S,6aR,8R,9aR,10aS,10bR,10cS)-|AKOS040761042|CHEBI:67307|CHEMBL485455|CS-0017372|FS-9378|HY-N1710|Q27135764|methyl 2-[(1R,2S,4R,6R,9R,10S,11R,15R,18S)-6-(furan-3-yl)-7,9,11,15-tetramethyl-12-oxo-3,17-dioxapentacyclo[9.6.1.02,9.04,8.015,18]octadeca-7,13-dien-10-yl]acetate|methyl [(2aR,5aR,6S,6aR,8R,9aR,10aS,10bR,10cS)-8-(furan-3-yl)-2a,5a,6a,7-tetramethyl-5-oxo-2a,5a,6,6a,8,9,9a,10a,10b,10c-decahydro-2H,5H-cyclopenta[d]naphtho[2,3-b:1,8-b'c']difuran-6-yl]acetate

>  <cas>  (657) 
126005-94-5

$$$$

     RDKit          2D

 26 30  0  0  0  0  0  0  0  0999 V2000
    1.1928   -3.9007    0.0000 C   0  0  0  0  0  0  0  0  0  0  0  0
    0.0754   -2.9001    0.0000 O   0  0  0  0  0  0  0  0  0  0  0  0
    0.3833   -1.4320    0.0000 C   0  0  0  0  0  0  0  0  0  0  0  0
    1.1783   -1.3743    0.0000 O   0  0  0  0  0  0  0  0  0  0  0  0
   -0.7342   -0.4313    0.0000 C   0  0  0  0  0  0  0  0  0  0  0  0
   -0.9315   -1.9183    0.0000 C   0  0  0  0  0  0  0  0  0  0  0  0
   -2.3179   -2.4909    0.0000 C   0  0  0  0  0  0  0  0  0  0  0  0
   -3.5070   -1.5765    0.0000 C   0  0  0  0  0  0  0  0  0  0  0  0
   -3.3097   -0.0896    0.0000 C   0  0  0  0  0  0  0  0  0  0  0  0
   -4.4988    0.8248    0.0000 C   0  0  0  0  0  0  0  0  0  0  0  0
   -5.8852    0.2522    0.0000 C   0  0  0  0  0  0  0  0  0  0  0  0
   -4.3015    2.3118    0.0000 O   0  0  0  0  0  0  0  0  0  0  0  0
   -1.9233    0.4830    0.0000 C   0  0  0  0  0  0  0  0  0  0  0  0
   -1.9498    1.9828    0.0000 N   0  0  0  0  0  0  0  0  0  0  0  0
   -0.7938    2.9386    0.0000 C   0  0  0  0  0  0  0  0  0  0  0  0
    0.6743    2.6307    0.0000 C   0  0  0  0  0  0  0  0  0  0  0  0
    1.3489    1.2910    0.0000 C   0  0  0  0  0  0  0  0  0  0  0  0
    0.7221   -0.0718    0.0000 C   0  0  0  0  0  0  0  0  0  0  0  0
    1.8244   -1.0890    0.0000 N   0  0  0  0  0  0  0  0  0  0  0  0
    3.1325   -0.3550    0.0000 C   0  0  0  0  0  0  0  0  0  0  0  0
    4.5534   -0.8359    0.0000 C   0  0  0  0  0  0  0  0  0  0  0  0
    5.6803    0.1540    0.0000 C   0  0  0  0  0  0  0  0  0  0  0  0
    5.3864    1.6250    0.0000 C   0  0  0  0  0  0  0  0  0  0  0  0
    3.9656    2.1059    0.0000 C   0  0  0  0  0  0  0  0  0  0  0  0
    2.8387    1.1159    0.0000 C   0  0  0  0  0  0  0  0  0  0  0  0
   -2.8038    0.7496    0.0000 C   0  0  0  0  0  0  0  0  0  0  0  0
  1  2  1  0
  2  3  1  0
  3  4  2  0
  5  3  1  1
  5  6  1  0
  7  6  1  1
  7  8  1  0
  9  8  1  1
  9 10  1  0
 10 11  1  1
 10 12  1  0
  9 13  1  0
 13 14  1  6
 14 15  1  0
 15 16  1  0
 16 17  1  0
 17 18  2  0
 18 19  1  0
 19 20  1  0
 20 21  2  0
 21 22  1  0
 22 23  2  0
 23 24  1  0
 24 25  2  0
 14 26  1  0
 13  5  1  0
 25 17  1  0
 18  5  1  0
 25 20  1  0
 26  7  1  0
M  END
>  <identifier>  (658) 
CNP0260951.2

>  <canonical_smiles>  (658) 
COC(=O)[C@@]12C[C@H]3C[C@@H]([C@@H](C)O)[C@@H]1N(CCC1=C2NC2=CC=CC=C12)C3

>  <standard_inchi>  (658) 
InChI=1S/C21H26N2O3/c1-12(24)16-9-13-10-21(20(25)26-2)18-15(7-8-23(11-13)19(16)21)14-5-3-4-6-17(14)22-18/h3-6,12-13,16,19,22,24H,7-11H2,1-2H3/t12-,13-,16+,19+,21-/m1/s1

>  <standard_inchi_key>  (658) 
VGDQBNXQAOYMPS-FZXGXICSSA-N

>  <name>  (658) 
nan

>  <iupac_name>  (658) 
methyl (1~{S},15~{R},17~{R},18~{S})-17-[(1~{R})-1-hydroxyethyl]-3,13-diazapentacyclo[13.3.1.0^{2,10}.0^{4,9}.0^{13,18}]nonadeca-2(10),4,6,8-tetraene-1-carboxylate

>  <annotation_level>  (658) 
4

>  <total_atom_count>  (658) 
52

>  <heavy_atom_count>  (658) 
26

>  <molecular_weight>  (658) 
354.45

>  <exact_molecular_weight>  (658) 
354.19434

>  <molecular_formula>  (658) 
C21H26N2O3

>  <alogp>  (658) 
2.23

>  <topological_polar_surface_area>  (658) 
65.56

>  <rotatable_bond_count>  (658) 
2

>  <hydrogen_bond_acceptors>  (658) 
4

>  <hydrogen_bond_donors>  (658) 
2

>  <hydrogen_bond_acceptors_lipinski>  (658) 
4

>  <hydrogen_bond_donors_lipinski>  (658) 
2

>  <lipinski_rule_of_five_violations>  (658) 
0

>  <aromatic_rings_count>  (658) 
2

>  <qed_drug_likeliness>  (658) 
0.81

>  <formal_charge>  (658) 
0

>  <fractioncsp3>  (658) 
0.57

>  <number_of_minimal_rings>  (658) 
6

>  <van_der_walls_volume>  (658) 
323.70

>  <contains_sugar>  (658) 
False

>  <contains_ring_sugars>  (658) 
False

>  <contains_linear_sugars>  (658) 
False

>  <murcko_framework>  (658) 
c1ccc2c(c1)[nH]c3c2CCN4CC5CCC4C3C5

>  <np_likeness>  (658) 
1.68

>  <chemical_class>  (658) 
Ibogan-type alkaloids

>  <chemical_sub_class>  (658) 
Ibogan-type alkaloids

>  <chemical_super_class>  (658) 
Alkaloids and derivatives

>  <direct_parent_classification>  (658) 
Ibogan-type alkaloids

>  <np_classifier_pathway>  (658) 
Alkaloids

>  <np_classifier_superclass>  (658) 
Tryptophan alkaloids

>  <np_classifier_class>  (658) 
Iboga type

>  <np_classifier_is_glycoside>  (658) 
False

>  <organisms>  (658) 
Tabernaemontana affinis Mull.Arg.|Tabernaemontana attenuata (Miers) Urb.|Tabernaemontana catharinensis|Tabernaemontana coffeoides Boj.|Tabernaemontana dichotoma|Tabernaemontana dichotoma Roxb.ex Wall|Tabernaemontana heterophylla|Tabernaemontana mocquerysii Aug.DC.|Tabernaemontana quadrangularis|Tabernaemontana undulata Vahl

>  <collections>  (658) 
KNApSaCK|Latin America dataset|NuBBEDB|WikiData Natural Products

>  <dois>  (658) 
10.1055/S-2007-969691|10.1590/1809-43921983132409

>  <synonyms>  (658) 
19-Epiheyneanine|20-Epiheyneanine

>  <cas>  (658) 
nan

$$$$

     RDKit          2D

 14 15  0  0  0  0  0  0  0  0999 V2000
   -3.8971   -1.7143    0.0000 C   0  0  0  0  0  0  0  0  0  0  0  0
   -2.5981   -0.9643    0.0000 C   0  0  0  0  0  0  0  0  0  0  0  0
   -2.5981    0.5357    0.0000 C   0  0  0  0  0  0  0  0  0  0  0  0
   -1.2990    1.2857    0.0000 C   0  0  0  0  0  0  0  0  0  0  0  0
   -1.2990    2.7857    0.0000 O   0  0  0  0  0  0  0  0  0  0  0  0
   -0.0000    0.5357    0.0000 C   0  0  0  0  0  0  0  0  0  0  0  0
    1.2990    1.2857    0.0000 C   0  0  0  0  0  0  0  0  0  0  0  0
    1.2990    2.7857    0.0000 C   0  0  0  0  0  0  0  0  0  0  0  0
    2.5981    0.5357    0.0000 C   0  0  0  0  0  0  0  0  0  0  0  0
    2.5981   -0.9643    0.0000 C   0  0  0  0  0  0  0  0  0  0  0  0
    3.8971   -1.7143    0.0000 O   0  0  0  0  0  0  0  0  0  0  0  0
    1.2990   -1.7143    0.0000 C   0  0  0  0  0  0  0  0  0  0  0  0
    0.0000   -0.9643    0.0000 C   0  0  0  0  0  0  0  0  0  0  0  0
   -1.2990   -1.7143    0.0000 O   0  0  0  0  0  0  0  0  0  0  0  0
  1  2  1  0
  2  3  2  0
  3  4  1  0
  4  5  2  0
  4  6  1  0
  6  7  2  0
  7  8  1  0
  7  9  1  0
  9 10  2  0
 10 11  1  0
 10 12  1  0
 12 13  2  0
 13 14  1  0
 14  2  1  0
 13  6  1  0
M  END
>  <identifier>  (659) 
CNP0190075.0

>  <canonical_smiles>  (659) 
CC1=CC(=O)C2=C(C)C=C(O)C=C2O1

>  <standard_inchi>  (659) 
InChI=1S/C11H10O3/c1-6-3-8(12)5-10-11(6)9(13)4-7(2)14-10/h3-5,12H,1-2H3

>  <standard_inchi_key>  (659) 
CRNGFKXWIYTEPH-UHFFFAOYSA-N

>  <name>  (659) 
Altechromone A

>  <iupac_name>  (659) 
7-hydroxy-2,5-dimethyl-chromen-4-one

>  <annotation_level>  (659) 
5

>  <total_atom_count>  (659) 
24

>  <heavy_atom_count>  (659) 
14

>  <molecular_weight>  (659) 
190.2

>  <exact_molecular_weight>  (659) 
190.06299

>  <molecular_formula>  (659) 
C11H10O3

>  <alogp>  (659) 
2.12

>  <topological_polar_surface_area>  (659) 
50.44

>  <rotatable_bond_count>  (659) 
0

>  <hydrogen_bond_acceptors>  (659) 
3

>  <hydrogen_bond_donors>  (659) 
1

>  <hydrogen_bond_acceptors_lipinski>  (659) 
3

>  <hydrogen_bond_donors_lipinski>  (659) 
1

>  <lipinski_rule_of_five_violations>  (659) 
0

>  <aromatic_rings_count>  (659) 
2

>  <qed_drug_likeliness>  (659) 
0.69

>  <formal_charge>  (659) 
0

>  <fractioncsp3>  (659) 
0.18

>  <number_of_minimal_rings>  (659) 
2

>  <van_der_walls_volume>  (659) 
167.70

>  <contains_sugar>  (659) 
False

>  <contains_ring_sugars>  (659) 
False

>  <contains_linear_sugars>  (659) 
False

>  <murcko_framework>  (659) 
O1C=CCc2ccccc12

>  <np_likeness>  (659) 
1.38

>  <chemical_class>  (659) 
Benzopyrans

>  <chemical_sub_class>  (659) 
1-benzopyrans

>  <chemical_super_class>  (659) 
Organoheterocyclic compounds

>  <direct_parent_classification>  (659) 
Chromones

>  <np_classifier_pathway>  (659) 
Polyketides

>  <np_classifier_superclass>  (659) 
Chromanes

>  <np_classifier_class>  (659) 
Chromones

>  <np_classifier_is_glycoside>  (659) 
False

>  <organisms>  (659) 
Aconitum seravschanicum|Aconitum tasiromontanum|Adansonia grandidieri|Aloe arborescens|Aloe ferox|Alstonia muelleriana|Alternaria|Alternaria sp.|Alternaria species|Annulohypoxylon truncatum|Aphyllocladus denticulatus|Artemisia cina|Aster conspicuus|Aster sedifolius|Bassia muricata|Cape aloe|Cassia fistula|Caulocystis cephalornithos|Clitocybula oculus|Cochliobolus lunatus SCSIO41401|Coreopsis nodosa|Crotalaria ferruginea|Curvularia lunata|Cytophaga hutchinsoni|Dacrydium cupressinum|Dendriopoterium menendezii|Dictyopteris australis|Dodonaea viscosa|Dysoxylum cumingianum|Enceliopsis argophylla|Epichloe festucae var. lolii|Eria mollis|Eriocheir sinensis|Fallopia multiflora|Flacourtia jangomas|Gadus morhua callarias|Glycine tomentella|Haematococcus lacustris|Hypoxylon rubiginosum|Isaria fumosorosea|Justicia secunda|Kleinia tomentosa|Lavandula vera|Melanocarpus albomyces|Miliusa velutina|Murrayella periclados|Neobalanocarpus heimii|Nicotiana undulata|Onobrychis arenaria|Panax ginseng|Panax schinseng|Papulaspora immersa|Passiflora incarnata|Penicillium|Penicillium sp.|Physalis alkekengi|Plumbago zeylanica|Polygonum cuspidatum|Psychotria stachyoides|Pterocladiella tenuis|Rattus rattus|Rheum sp.|Rheum wittrocki|Rivularia firma|Saccharomyces pastori|Senecio paludaffinis|Senecio subdentatus|Senna didymobotrya|Sonneratia alba|Sorocea ilicifolia|Sphaerella laricina|Streptomyces flocculus|Streptomyces microflavus|Tachigalia paniculata|Talaromyces flavus|Teucrium yemense|Trigonella grandiflora|Tripolium pannonicum|Uvaria calamistrata|Zanthoxylum parviflorum|Zingiber officinale

>  <collections>  (659) 
ANPDB|CMAUP (cCollective molecular activities of useful plants)|EMNPD|FooDB|KNApSaCK|Latin America dataset|NANPDB (Natural Products from Northern African Sources)|NPASS|NPEdia|NuBBEDB|Phyto4Health|Super Natural II|TCMDB-Taiwan (Traditional Chinese Medicine database)|TCMID (Traditional Chinese Medicine Integrated Database)|UNPD (Universal Natural Products Database)|WikiData Natural Products

>  <dois>  (659) 
10.1002/CBDV.201000011|10.1002/JCCS.200100154|10.1002/cbdv.201000011|10.1007/S10600-009-9405-Z|10.1016/J.BMC.2010.11.012|10.1016/j.bmc.2010.11.012|10.1021/ACS.JNATPROD.8B00015|10.1021/NP0604127.S001|10.1021/NP070447M|10.1021/NP900417G|10.1021/acs.jnatprod.8b00015|10.1021/np070447m|10.1055/S-0029-1234616|10.1139/V90-318|10.1271/BBB.56.1664|10.1271/BBB.60659

>  <synonyms>  (659) 
2,5-Dimethyl-7-oxidanyl-chromen-4-one|2,5-dimethyl-7-hydroxychromone|2,5Dimethyl7hydroxy chromone|38412-47-4|4H-1-Benzopyran-4-one, 7-hydroxy-2,5-dimethyl-|68L85KAC8Q|7-Hydroxy-2,5-dimethyl-4H-1-benzopyran-4-one|7-Hydroxy-2,5-dimethyl-4H-chromone|7-hydroxy-2,5-dimethylchromen-4-one|AKOS022643238|CHEBI:173911|CHEMBL509319|CRNGFKXWIYTEPH-UHFFFAOYSA-N|CS-0140509|DTXSID20415713|HY-134241|Q4736228|SCHEMBL18096537

>  <cas>  (659) 
38412-47-4

$$$$

     RDKit          2D

  7  6  0  0  0  0  0  0  0  0999 V2000
   -3.8971   -0.3214    0.0000 C   0  0  0  0  0  0  0  0  0  0  0  0
   -2.5981    0.4286    0.0000 C   0  0  0  0  0  0  0  0  0  0  0  0
   -1.2990   -0.3214    0.0000 C   0  0  0  0  0  0  0  0  0  0  0  0
    0.0000    0.4286    0.0000 C   0  0  0  0  0  0  0  0  0  0  0  0
    1.2990   -0.3214    0.0000 C   0  0  0  0  0  0  0  0  0  0  0  0
    2.5981    0.4286    0.0000 C   0  0  0  0  0  0  0  0  0  0  0  0
    3.8971   -0.3214    0.0000 C   0  0  0  0  0  0  0  0  0  0  0  0
  1  2  1  0
  2  3  1  0
  3  4  1  0
  4  5  1  0
  5  6  1  0
  6  7  1  0
M  END
>  <identifier>  (660) 
CNP0290800.0

>  <canonical_smiles>  (660) 
CCCCCCC

>  <standard_inchi>  (660) 
InChI=1S/C7H16/c1-3-5-7-6-4-2/h3-7H2,1-2H3

>  <standard_inchi_key>  (660) 
IMNFDUFMRHMDMM-UHFFFAOYSA-N

>  <name>  (660) 
HEPTANE

>  <iupac_name>  (660) 
heptane

>  <annotation_level>  (660) 
5

>  <total_atom_count>  (660) 
23

>  <heavy_atom_count>  (660) 
7

>  <molecular_weight>  (660) 
100.2

>  <exact_molecular_weight>  (660) 
100.1252

>  <molecular_formula>  (660) 
C7H16

>  <alogp>  (660) 
2.98

>  <topological_polar_surface_area>  (660) 
0.00

>  <rotatable_bond_count>  (660) 
4

>  <hydrogen_bond_acceptors>  (660) 
0

>  <hydrogen_bond_donors>  (660) 
0

>  <hydrogen_bond_acceptors_lipinski>  (660) 
0

>  <hydrogen_bond_donors_lipinski>  (660) 
0

>  <lipinski_rule_of_five_violations>  (660) 
0

>  <aromatic_rings_count>  (660) 
0

>  <qed_drug_likeliness>  (660) 
0.48

>  <formal_charge>  (660) 
0

>  <fractioncsp3>  (660) 
1.00

>  <number_of_minimal_rings>  (660) 
0

>  <van_der_walls_volume>  (660) 
127.45

>  <contains_sugar>  (660) 
False

>  <contains_ring_sugars>  (660) 
False

>  <contains_linear_sugars>  (660) 
False

>  <murcko_framework>  (660) 
nan

>  <np_likeness>  (660) 
0.35

>  <chemical_class>  (660) 
Saturated hydrocarbons

>  <chemical_sub_class>  (660) 
Alkanes

>  <chemical_super_class>  (660) 
Hydrocarbons

>  <direct_parent_classification>  (660) 
Alkanes

>  <np_classifier_pathway>  (660) 
Fatty acids

>  <np_classifier_superclass>  (660) 
Fatty acyls

>  <np_classifier_class>  (660) 
Hydrocarbons

>  <np_classifier_is_glycoside>  (660) 
False

>  <organisms>  (660) 
Abies|Angelica acutiloba|Angelica gigas|Angelica sinensis|Carica papaya|Elaeis guineensis|Garcinia mangostana|Hansenia forbesii|Hansenia weberbaueriana|Homo sapiens|Larix|Oryza sativa|Ostericum grosseserratum|Passiflora edulis|Patrinia scabiosifolia|Patrinia villosa|Phyllanthus emblica|Picea|Pinus|Pinus ayacahuite|Pinus contorta|Pinus jeffreyi|Pinus sabiniana|Pinus strobiformis|Pseudotsuga|Vitis rotundifolia|Zingiber officinale

>  <collections>  (660) 
Australian natural products|CMAUP (cCollective molecular activities of useful plants)|FooDB|Latin America dataset|NPASS|NuBBEDB|Super Natural II|TCMDB-Taiwan (Traditional Chinese Medicine database)|TCMID (Traditional Chinese Medicine Integrated Database)|UNPD (Universal Natural Products Database)|WikiData Natural Products

>  <dois>  (660) 
10.1002/JLAC.18791980306|10.1002/JPS.3030411219|10.1002/JPS.3030411220|10.1007/BF00564832|10.1016/0031-9422(82)80025-3|10.1016/J.JPBA.2008.08.004|10.1016/J.RENENE.2017.12.012|10.1016/S0031-9422(00)85875-6|10.1016/S0031-9422(00)86412-2|10.1016/S0031-9422(00)88048-6|10.1021/JF00120A031|10.1021/JF60209A051|10.1021/jf00120a031|10.1071/CH9721921|10.1071/ch9721921|10.1088/1752-7155/8/1/014001|10.1111/J.1365-2621.1984.TB13669.X

>  <synonyms>  (660) 
142-82-5|2ygu|456148SDMJ|A807968|AI3-28784|AKOS009158011|AMY22304|B7F4D751-FB0E-4F48-9829-D952CEC36530|CAS-142-82-5|CH3-(CH2)5-CH3|CHEBI:43098|CHEMBL134658|DTXCID004127|DTXSID60187245|DTXSID6024127|DTXSID80188294|Dipropyl methane|EC 205-563-8|EINECS 205-563-8|Eptani|Eptani [Italian]|Exxsol heptane (Salt\/Mix)|F1908-0180|Gettysolve-C|H0027|H0088|H0491|HEPTANE (II)|HEPTANE (N)|HEPTANE [HSDB]|HEPTANE [II]|HEPTANE [USP-RS]|HP6|HPLC Grade n-Heptane|HSDB 90|Heptan|Heptan [Polish]|Heptane (GC grade)|Heptane, 99.5%|Heptane, >=99% (capillary GC)|Heptane, AR, >=99%|Heptane, ASTM, 99.8%|Heptane, HPLC grade, >=99%|Heptane, Laboratory Reagent|Heptane, PRA grade, 96% n-isomer basis, >=99.9% C7 isomers basis|Heptane, Pharmaceutical Secondary Standard; Certified Reference Material|Heptane, ReagentPlus(R), 99%|Heptane, SAJ first grade, >=98.0%|Heptane, SAJ special grade, >=99.0%|Heptane, UV HPLC spectroscopic, 95%|Heptane, United States Pharmacopeia (USP) Reference Standard|Heptane, analytical standard|Heptane, anhydrous, 99%|Heptane, biotech. grade, >=99%|Heptane, for HPLC|Heptane, for HPLC, >=96%|Heptane, for preparative HPLC, >=99.7% (GC)|Heptane, p.a., 88.0-92.0%|Heptane, p.a., 95%|Heptane, purification grade, 99%|Heptane, puriss. p.a., >=99.5% (GC)|Heptane, puriss. p.a., Reag. Ph. Eur., >=99% n-heptane basis (GC)|Heptane, puriss., >=99% (GC)|Heptane, puriss., absolute, over molecular sieve (H2O <=0.005%), >=99.5% (GC)|Heptane, spectrophotometric grade, 99%|Heptane, technical grade|Heptane; Dipropylmethane; Heptyl hydride; NSC 62784; Skellysolve C; n-Heptane|Heptanen|Heptanen [Dutch]|Heptanes|Heptanes (30-40 % n-heptane)|Heptanes [UN1206]  [Flammable liquid]|Heptyl hydride|InChI=1\/C7H16\/c1-3-5-7-6-4-2\/h3-7H2,1-2H|J-007700|LMFA11000575|LS-13366|MFCD00009544|N-HEPTANE [MI]|N-Heptane|NCGC00248959-01|NCGC00258765-01|NS00004625|NSC 62784|NSC-62784|Pentane, ethyl-|Q0037|Q310957|Skellysolve C|Tox21_201213|UN1206|UNII-456148SDMJ|WLN: 7H|heptan-e|high purity heptane|industry grade heptane|n-C7H16|n-Heptane|n-Heptane 100 microg\/mL in Acetonitrile|n-Heptane HPLC grade|n-Heptane HPLC, UV-IR min. 99%, isocratic grade|n-Heptane, 99%|n-Heptane, Environmental Grade|n-Heptane, Spectrophotometric Grade, 99% n-Heptan|n-Heptane, anhydrous|n-heptane|normal heptane|normal-Heptane|pharma grade heptane|pharmaceutical grade heptane

>  <cas>  (660) 
142-82-5

$$$$

     RDKit          2D

 32 32  0  0  0  0  0  0  0  0999 V2000
  -11.9685    3.0248    0.0000 C   0  0  0  0  0  0  0  0  0  0  0  0
  -11.0527    1.8369    0.0000 C   0  0  0  0  0  0  0  0  0  0  0  0
  -11.6236    0.4498    0.0000 C   0  0  0  0  0  0  0  0  0  0  0  0
   -9.5660    2.0361    0.0000 C   0  0  0  0  0  0  0  0  0  0  0  0
   -8.6501    0.8481    0.0000 C   0  0  0  0  0  0  0  0  0  0  0  0
   -7.1634    1.0473    0.0000 C   0  0  0  0  0  0  0  0  0  0  0  0
   -6.2476   -0.1407    0.0000 C   0  0  0  0  0  0  0  0  0  0  0  0
   -4.7609    0.0585    0.0000 C   0  0  0  0  0  0  0  0  0  0  0  0
   -3.8450   -1.1295    0.0000 C   0  0  0  0  0  0  0  0  0  0  0  0
   -2.3583   -0.9303    0.0000 C   0  0  0  0  0  0  0  0  0  0  0  0
   -1.4425   -2.1182    0.0000 C   0  0  0  0  0  0  0  0  0  0  0  0
   -2.0133   -3.5054    0.0000 C   0  0  0  0  0  0  0  0  0  0  0  0
    0.0443   -1.9191    0.0000 C   0  0  0  0  0  0  0  0  0  0  0  0
    0.6151   -0.5320    0.0000 C   0  0  0  0  0  0  0  0  0  0  0  0
    2.1019   -0.3328    0.0000 C   0  0  0  0  0  0  0  0  0  0  0  0
    2.6727    1.0543    0.0000 C   0  0  0  0  0  0  0  0  0  0  0  0
    1.7569    2.2423    0.0000 C   0  0  0  0  0  0  0  0  0  0  0  0
    4.1595    1.2535    0.0000 C   0  0  0  0  0  0  0  0  0  0  0  0
    5.0753    0.0655    0.0000 C   0  0  0  0  0  0  0  0  0  0  0  0
    6.5620    0.2647    0.0000 C   0  0  0  0  0  0  0  0  0  0  0  0
    7.1329    1.6518    0.0000 C   0  0  0  0  0  0  0  0  0  0  0  0
    8.6196    1.8510    0.0000 C   0  0  0  0  0  0  0  0  0  0  0  0
    9.1905    3.2381    0.0000 O   0  0  0  0  0  0  0  0  0  0  0  0
    9.5355    0.6631    0.0000 C   0  0  0  0  0  0  0  0  0  0  0  0
   11.0222    0.8622    0.0000 C   0  0  0  0  0  0  0  0  0  0  0  0
    8.9646   -0.7241    0.0000 C   0  0  0  0  0  0  0  0  0  0  0  0
    9.8804   -1.9120    0.0000 C   0  0  0  0  0  0  0  0  0  0  0  0
    7.4779   -0.9232    0.0000 C   0  0  0  0  0  0  0  0  0  0  0  0
    6.9070   -2.3104    0.0000 O   0  0  0  0  0  0  0  0  0  0  0  0
   -6.8185   -1.5278    0.0000 C   0  0  0  0  0  0  0  0  0  0  0  0
   -5.9026   -2.7157    0.0000 O   0  0  0  0  0  0  0  0  0  0  0  0
   -8.3052   -1.7270    0.0000 O   0  0  0  0  0  0  0  0  0  0  0  0
  1  2  1  0
  2  3  1  0
  2  4  2  0
  4  5  1  0
  5  6  1  0
  6  7  1  0
  7  8  2  0
  8  9  1  0
  9 10  1  0
 10 11  1  0
 11 12  1  0
 11 13  2  3
 13 14  1  0
 14 15  1  0
 15 16  1  0
 16 17  1  0
 16 18  2  3
 18 19  1  0
 19 20  1  0
 20 21  2  0
 21 22  1  0
 22 23  2  0
 22 24  1  0
 24 25  1  0
 24 26  2  0
 26 27  1  0
 26 28  1  0
 28 29  2  0
  7 30  1  0
 30 31  2  0
 30 32  1  0
 28 20  1  0
M  END
>  <identifier>  (661) 
CNP0165459.3

>  <canonical_smiles>  (661) 
CC(C)=CCC/C(=C/CCC(C)=CCCC(C)=CCC1=CC(=O)C(C)=C(C)C1=O)C(=O)O

>  <standard_inchi>  (661) 
InChI=1S/C28H38O4/c1-19(2)10-7-14-24(28(31)32)15-9-13-20(3)11-8-12-21(4)16-17-25-18-26(29)22(5)23(6)27(25)30/h10-11,15-16,18H,7-9,12-14,17H2,1-6H3,(H,31,32)/b20-11?,21-16?,24-15-

>  <standard_inchi_key>  (661) 
LFQUGWZUSHDCOE-FURUTPCXSA-N

>  <name>  (661) 
nan

>  <iupac_name>  (661) 
nan

>  <annotation_level>  (661) 
0

>  <total_atom_count>  (661) 
70

>  <heavy_atom_count>  (661) 
32

>  <molecular_weight>  (661) 
438.61

>  <exact_molecular_weight>  (661) 
438.27701

>  <molecular_formula>  (661) 
C28H38O4

>  <alogp>  (661) 
7.00

>  <topological_polar_surface_area>  (661) 
71.44

>  <rotatable_bond_count>  (661) 
12

>  <hydrogen_bond_acceptors>  (661) 
3

>  <hydrogen_bond_donors>  (661) 
1

>  <hydrogen_bond_acceptors_lipinski>  (661) 
3

>  <hydrogen_bond_donors_lipinski>  (661) 
1

>  <lipinski_rule_of_five_violations>  (661) 
1

>  <aromatic_rings_count>  (661) 
0

>  <qed_drug_likeliness>  (661) 
0.20

>  <formal_charge>  (661) 
0

>  <fractioncsp3>  (661) 
0.46

>  <number_of_minimal_rings>  (661) 
1

>  <van_der_walls_volume>  (661) 
447.45

>  <contains_sugar>  (661) 
False

>  <contains_ring_sugars>  (661) 
False

>  <contains_linear_sugars>  (661) 
False

>  <murcko_framework>  (661) 
C1=CCC=CC1

>  <np_likeness>  (661) 
2.08

>  <chemical_class>  (661) 
nan

>  <chemical_sub_class>  (661) 
nan

>  <chemical_super_class>  (661) 
nan

>  <direct_parent_classification>  (661) 
nan

>  <np_classifier_pathway>  (661) 
Terpenoids

>  <np_classifier_superclass>  (661) 
Meroterpenoids

>  <np_classifier_class>  (661) 
Prenyl quinone meroterpenoids

>  <np_classifier_is_glycoside>  (661) 
False

>  <organisms>  (661) 
Iryanthera juruensis

>  <collections>  (661) 
Latin America dataset|NuBBEDB

>  <dois>  (661) 
10.1016/S0031-9422(00)00477-5

>  <synonyms>  (661) 
nan

>  <cas>  (661) 
nan

$$$$

     RDKit          2D

 35 40  0  0  0  0  0  0  0  0999 V2000
   -1.6801   -5.3761    0.0000 C   0  0  0  0  0  0  0  0  0  0  0  0
   -2.0403   -3.9200    0.0000 C   0  0  0  0  0  0  0  0  0  0  0  0
   -3.4814   -3.5038    0.0000 O   0  0  0  0  0  0  0  0  0  0  0  0
   -0.9593   -2.8800    0.0000 O   0  0  0  0  0  0  0  0  0  0  0  0
   -1.3194   -1.4239    0.0000 C   0  0  0  0  0  0  0  0  0  0  0  0
   -2.7606   -1.0077    0.0000 C   0  0  0  0  0  0  0  0  0  0  0  0
   -3.1207    0.4484    0.0000 C   0  0  0  0  0  0  0  0  0  0  0  0
   -4.5618    0.8645    0.0000 C   0  0  0  0  0  0  0  0  0  0  0  0
   -6.0584    0.7627    0.0000 C   0  0  0  0  0  0  0  0  0  0  0  0
   -4.7214   -0.6269    0.0000 C   0  0  0  0  0  0  0  0  0  0  0  0
   -4.9220    2.3207    0.0000 C   0  0  0  0  0  0  0  0  0  0  0  0
   -6.3631    2.7368    0.0000 O   0  0  0  0  0  0  0  0  0  0  0  0
   -3.8410    3.3606    0.0000 C   0  0  0  0  0  0  0  0  0  0  0  0
   -2.3999    2.9445    0.0000 C   0  0  0  0  0  0  0  0  0  0  0  0
   -2.0397    1.4883    0.0000 C   0  0  0  0  0  0  0  0  0  0  0  0
   -0.9588    2.5283    0.0000 C   0  0  0  0  0  0  0  0  0  0  0  0
   -0.5986    1.0722    0.0000 C   0  0  0  0  0  0  0  0  0  0  0  0
    0.4823    2.1121    0.0000 C   0  0  0  0  0  0  0  0  0  0  0  0
    1.9234    1.6960    0.0000 C   0  0  0  0  0  0  0  0  0  0  0  0
    2.2836    0.2399    0.0000 C   0  0  0  0  0  0  0  0  0  0  0  0
    3.3646    1.2798    0.0000 C   0  0  0  0  0  0  0  0  0  0  0  0
    3.7247   -0.1763    0.0000 C   0  0  0  0  0  0  0  0  0  0  0  0
    4.8057    0.8636    0.0000 C   0  0  0  0  0  0  0  0  0  0  0  0
    4.5997    2.3494    0.0000 C   0  0  0  0  0  0  0  0  0  0  0  0
    5.9491    3.0045    0.0000 O   0  0  0  0  0  0  0  0  0  0  0  0
    6.9891    1.9235    0.0000 C   0  0  0  0  0  0  0  0  0  0  0  0
    6.2824    0.6004    0.0000 C   0  0  0  0  0  0  0  0  0  0  0  0
    4.0849   -1.6324    0.0000 O   0  0  0  0  0  0  0  0  0  0  0  0
    3.0039   -2.6724    0.0000 C   0  0  0  0  0  0  0  0  0  0  0  0
    3.3640   -4.1285    0.0000 O   0  0  0  0  0  0  0  0  0  0  0  0
    1.5628   -2.2562    0.0000 C   0  0  0  0  0  0  0  0  0  0  0  0
    0.1217   -1.8401    0.0000 O   0  0  0  0  0  0  0  0  0  0  0  0
    1.2026   -0.8001    0.0000 C   0  0  0  0  0  0  0  0  0  0  0  0
   -0.2385   -0.3839    0.0000 C   0  0  0  0  0  0  0  0  0  0  0  0
   -1.6796    0.0322    0.0000 C   0  0  0  0  0  0  0  0  0  0  0  0
  1  2  1  0
  2  3  2  0
  2  4  1  0
  5  4  1  6
  5  6  1  0
  7  6  1  1
  7  8  1  0
  8  9  1  0
  8 10  1  0
  8 11  1  0
 11 12  2  0
 11 13  1  0
 13 14  2  0
 14 15  1  0
 15 16  1  1
 15 17  1  0
 17 18  1  1
 18 19  1  0
 19 20  1  0
 20 21  1  6
 20 22  1  0
 22 23  1  6
 23 24  2  0
 24 25  1  0
 25 26  1  0
 26 27  2  0
 22 28  1  0
 28 29  1  0
 29 30  2  0
 29 31  1  0
 31 32  1  1
 33 32  1  1
 33 34  1  0
 34 35  1  1
 34  5  1  0
 15  7  1  0
 34 17  1  0
 33 20  1  0
 27 23  1  0
 33 31  1  0
M  END
>  <identifier>  (662) 
CNP0145998.1

>  <canonical_smiles>  (662) 
CC(=O)O[C@@H]1C[C@H]2C(C)(C)C(=O)C=C[C@]2(C)[C@H]2CC[C@@]3(C)[C@H](C4=COC=C4)OC(=O)[C@H]4O[C@]43[C@@]21C

>  <standard_inchi>  (662) 
InChI=1S/C28H34O7/c1-15(29)33-20-13-18-24(2,3)19(30)8-10-25(18,4)17-7-11-26(5)21(16-9-12-32-14-16)34-23(31)22-28(26,35-22)27(17,20)6/h8-10,12,14,17-18,20-22H,7,11,13H2,1-6H3/t17-,18+,20-,21+,22-,25-,26+,27+,28-/m1/s1

>  <standard_inchi_key>  (662) 
YJXDGWUNRYLINJ-BHAPSIHVSA-N

>  <name>  (662) 
gedunin

>  <iupac_name>  (662) 
[(1~{S},2~{R},4~{S},7~{S},8~{S},11~{R},12~{R},17~{R},19~{R})-7-(3-furyl)-1,8,12,16,16-pentamethyl-5,15-dioxo-3,6-dioxapentacyclo[9.8.0.0^{2,4}.0^{2,8}.0^{12,17}]nonadec-13-en-19-yl] acetate

>  <annotation_level>  (662) 
5

>  <total_atom_count>  (662) 
69

>  <heavy_atom_count>  (662) 
35

>  <molecular_weight>  (662) 
482.57

>  <exact_molecular_weight>  (662) 
482.23045

>  <molecular_formula>  (662) 
C28H34O7

>  <alogp>  (662) 
4.56

>  <topological_polar_surface_area>  (662) 
95.34

>  <rotatable_bond_count>  (662) 
2

>  <hydrogen_bond_acceptors>  (662) 
7

>  <hydrogen_bond_donors>  (662) 
0

>  <hydrogen_bond_acceptors_lipinski>  (662) 
7

>  <hydrogen_bond_donors_lipinski>  (662) 
0

>  <lipinski_rule_of_five_violations>  (662) 
0

>  <aromatic_rings_count>  (662) 
1

>  <qed_drug_likeliness>  (662) 
0.45

>  <formal_charge>  (662) 
0

>  <fractioncsp3>  (662) 
0.68

>  <number_of_minimal_rings>  (662) 
6

>  <van_der_walls_volume>  (662) 
433.40

>  <contains_sugar>  (662) 
False

>  <contains_ring_sugars>  (662) 
False

>  <contains_linear_sugars>  (662) 
False

>  <murcko_framework>  (662) 
o1ccc(c1)C2OCC3OC34C2CCC5C6C=CCCC6CCC54

>  <np_likeness>  (662) 
3.34

>  <chemical_class>  (662) 
Prenol lipids

>  <chemical_sub_class>  (662) 
Triterpenoids

>  <chemical_super_class>  (662) 
Lipids and lipid-like molecules

>  <direct_parent_classification>  (662) 
Limonoids

>  <np_classifier_pathway>  (662) 
Terpenoids

>  <np_classifier_superclass>  (662) 
Triterpenoids

>  <np_classifier_class>  (662) 
Limonoids

>  <np_classifier_is_glycoside>  (662) 
False

>  <organisms>  (662) 
Alaria nana|Artemisia arctica|Azadirachta indica|Azadirachta sp.|Carapa sp.|Cedrela|Cedrela fissilis|Cedrela odorata|Cedrela salvadorensis|Cedrela sinensis|Cedrela sp.|Cyperus compressus|Entandrophragma angolense|Entandrophragma delevoyi|Ferreirea spectabilis|Garcinia multiflora|Guarea G. grandiflora|Khaya grandifoliola|Khaya sp.|Melia azedarach|Melia sp.|Meliaceae|Meliaceae spp.|Pieris melete|Streptomyces fungicidicus|Toona sinensis|Trichilia pallida|Xylocarpus Granatum|Xylocarpus granatum|Xylocarpus sp.|cedrela spp.

>  <collections>  (662) 
BIOFACQUIM|CMAUP (cCollective molecular activities of useful plants)|ChEBI NPs|KNApSaCK|Latin America dataset|NPASS|Nat-UV DB|NuBBEDB|PhytoLab phyproof® Reference Substances|Super Natural II|TCMDB-Taiwan (Traditional Chinese Medicine database)|VietHerb|WikiData Natural Products|ZINC NP

>  <dois>  (662) 
10.1002/PTR.2159|10.1002/ptr.2159|10.1016/0031-9422(77)80123-4|10.1016/0378-8741(86)90156-X|10.1016/J.MOLSTRUC.2011.11.028|10.1016/S0031-9422(00)95206-3|10.1016/S0031-9422(96)00747-9|10.1016/S0031-9422(98)00364-1|10.1016/S0031-9422(99)00546-4|10.1016/S0378-8741(99)00117-8|10.1016/j.molstruc.2011.11.028|10.1016/s0378-8741(99)00117-8|10.1021/JF021049M|10.1021/JF990443Q|10.1021/NP0105174|10.1021/NP068021F|10.1021/NP100325Q|10.1021/NP100783K|10.1021/NP50065A002|10.1021/NP50081A005|10.1021/NP900625W|10.1021/NP9605394|10.1021/jf990443q|10.1021/jm8007486|10.1021/np068021f|10.1021/np100325q|10.1021/np100783k|10.1021/np50065a002|10.1021/np9605394|10.1055/S-0028-1088323|10.1248/CPB.55.1442|10.1271/BBB.56.1835|10.1515/ZNB-1986-0720

>  <synonyms>  (662) 
(-)-gedunin|(1S,3aS,4aR,4bS,5R,6aR,10aR,10bR,12aS)-1-(Furan-3-yl)-4b,7,7,10a,12a-pentamethyl-3,8-dioxo-1,3,3a,4b,5,6,6a,7,8,10a,10b,11,12,12a-tetradecahydronaphtho[2,1-f]oxireno[2,3-d]isochromen-5-yl acetate|(4aR,6R,6aS,6bR,7aS,10R,10aS,12aR,12bR)-10-(3-furyl)-4,4,6a,10a,12b-pentamethyl-3,8-dioxo-3,4,4a,5,6,6a,7a,8,10,10a,11,12,12a,12b-tetradecahydrooxireno[c]phenanthro[1,2-d]pyran-6-yl acetate|(4aR,6R,6aS,6bR,7aS,10S,10aS,12aR,12bR)-10-(furan-3-yl)-4,4,6a,10a,12b-pentamethyl-3,8-dioxo-3,4,4a,5,6,6a,7a,8,10,10a,11,12,12a,12b-tetradecahydronaphtho[2,1-f]oxireno[d]isochromen-6-yl acetate|2753-30-2|A1-06837|AKOS024457597|CHEBI:65954|CHEMBL465226|CS-0028900|D-Homo-24-nor-17-oxachola-1,20,22-triene-3,16-dione, 7-(acetyloxy)-14,15:21,23-diepoxy-4,4,8-trimethyl-, (5alpha,7alpha,13alpha,14beta,15beta,17aalpha)-|G13062|Gedunin|Gedunine|HMS2218K19|HMS3413L14|HMS3677L14|HY-107577|MLS000563507|MS-28975|NSC 113497|Oxireno(c)phenanthro(1,2-d)pyran-3,8(3aH,4bH)-dione, 5-(acetyloxy)-1-(3-furanyl)-1,5,6,6a,7,10a,10b,11,12,12a-decahydro-4b,7,7,10a,12a-pentamethyl-,(1S,3aS,4aR,4bS,5R,6aR,10aR,10bR,12aS)-|Q15917840|SCHEMBL598969|SMR000232316|SR-01000721401|VH4BN8F5Z5|XG161760

>  <cas>  (662) 
2753-30-2

$$$$

     RDKit          2D

 21 23  0  0  0  0  0  0  0  0999 V2000
   -4.7369    1.9665    0.0000 C   0  0  0  0  0  0  0  0  0  0  0  0
   -4.6823    0.4675    0.0000 C   0  0  0  0  0  0  0  0  0  0  0  0
   -3.3568   -0.2347    0.0000 C   0  0  0  0  0  0  0  0  0  0  0  0
   -4.2785   -1.4181    0.0000 C   0  0  0  0  0  0  0  0  0  0  0  0
   -2.8955    1.1926    0.0000 C   0  0  0  0  0  0  0  0  0  0  0  0
   -1.4287    1.5067    0.0000 C   0  0  0  0  0  0  0  0  0  0  0  0
   -0.4233    0.3935    0.0000 C   0  0  0  0  0  0  0  0  0  0  0  0
   -0.8847   -1.0338    0.0000 C   0  0  0  0  0  0  0  0  0  0  0  0
   -2.3514   -1.3479    0.0000 C   0  0  0  0  0  0  0  0  0  0  0  0
    0.1207   -2.1470    0.0000 C   0  0  0  0  0  0  0  0  0  0  0  0
   -0.3406   -3.5743    0.0000 O   0  0  0  0  0  0  0  0  0  0  0  0
    1.5875   -1.8329    0.0000 C   0  0  0  0  0  0  0  0  0  0  0  0
    2.0488   -0.4056    0.0000 C   0  0  0  0  0  0  0  0  0  0  0  0
    3.5156   -0.0915    0.0000 C   0  0  0  0  0  0  0  0  0  0  0  0
    5.0013   -0.2980    0.0000 C   0  0  0  0  0  0  0  0  0  0  0  0
    3.5702   -1.5905    0.0000 C   0  0  0  0  0  0  0  0  0  0  0  0
    3.9769    1.3358    0.0000 C   0  0  0  0  0  0  0  0  0  0  0  0
    2.9715    2.4490    0.0000 C   0  0  0  0  0  0  0  0  0  0  0  0
    1.5048    2.1349    0.0000 C   0  0  0  0  0  0  0  0  0  0  0  0
    1.0434    0.7076    0.0000 C   0  0  0  0  0  0  0  0  0  0  0  0
    0.0380    1.8208    0.0000 C   0  0  0  0  0  0  0  0  0  0  0  0
  1  2  2  0
  2  3  1  0
  3  4  1  6
  3  5  1  0
  5  6  2  0
  6  7  1  0
  7  8  2  0
  8  9  1  0
  8 10  1  0
 10 11  2  0
 10 12  1  0
 13 12  1  6
 13 14  1  0
 14 15  1  0
 14 16  1  0
 14 17  1  0
 17 18  1  0
 18 19  1  0
 19 20  1  0
 20 21  1  6
  9  3  1  0
 20 13  1  0
 20  7  1  0
M  END
>  <identifier>  (663) 
CNP0080660.1

>  <canonical_smiles>  (663) 
C=C[C@@]1(C)C=CC2=C(C1)C(=O)C[C@H]1C(C)(C)CCC[C@]21C

>  <standard_inchi>  (663) 
InChI=1S/C20H28O/c1-6-19(4)11-8-15-14(13-19)16(21)12-17-18(2,3)9-7-10-20(15,17)5/h6,8,11,17H,1,7,9-10,12-13H2,2-5H3/t17-,19-,20+/m0/s1

>  <standard_inchi_key>  (663) 
AGQRSFTXLNSAFT-YSIASYRMSA-N

>  <name>  (663) 
nan

>  <iupac_name>  (663) 
(4~{a}~{S},7~{S},10~{a}~{S})-1,1,4~{a},7-tetramethyl-7-vinyl-2,3,4,8,10,10~{a}-hexahydrophenanthren-9-one

>  <annotation_level>  (663) 
3

>  <total_atom_count>  (663) 
49

>  <heavy_atom_count>  (663) 
21

>  <molecular_weight>  (663) 
284.44

>  <exact_molecular_weight>  (663) 
284.21402

>  <molecular_formula>  (663) 
C20H28O

>  <alogp>  (663) 
5.24

>  <topological_polar_surface_area>  (663) 
17.07

>  <rotatable_bond_count>  (663) 
1

>  <hydrogen_bond_acceptors>  (663) 
1

>  <hydrogen_bond_donors>  (663) 
0

>  <hydrogen_bond_acceptors_lipinski>  (663) 
1

>  <hydrogen_bond_donors_lipinski>  (663) 
0

>  <lipinski_rule_of_five_violations>  (663) 
1

>  <aromatic_rings_count>  (663) 
0

>  <qed_drug_likeliness>  (663) 
0.60

>  <formal_charge>  (663) 
0

>  <fractioncsp3>  (663) 
0.65

>  <number_of_minimal_rings>  (663) 
3

>  <van_der_walls_volume>  (663) 
nan

>  <contains_sugar>  (663) 
False

>  <contains_ring_sugars>  (663) 
False

>  <contains_linear_sugars>  (663) 
False

>  <murcko_framework>  (663) 
C1=CCCC2=C1C3CCCCC3CC2

>  <np_likeness>  (663) 
2.81

>  <chemical_class>  (663) 
Prenol lipids

>  <chemical_sub_class>  (663) 
Diterpenoids

>  <chemical_super_class>  (663) 
Lipids and lipid-like molecules

>  <direct_parent_classification>  (663) 
Diterpenoids

>  <np_classifier_pathway>  (663) 
Terpenoids

>  <np_classifier_superclass>  (663) 
Diterpenoids

>  <np_classifier_class>  (663) 
Pimarane and Isopimarane diterpenoids

>  <np_classifier_is_glycoside>  (663) 
False

>  <organisms>  (663) 
Vellozia compacta

>  <collections>  (663) 
Latin America dataset|NuBBEDB|WikiData Natural Products|ZINC NP

>  <dois>  (663) 
10.1016/0031-9422(83)80034-X

>  <synonyms>  (663) 
nan

>  <cas>  (663) 
nan

$$$$

     RDKit          2D

 32 37  0  0  0  0  0  0  0  0999 V2000
   -5.1031   -1.3079    0.0000 C   0  0  0  0  0  0  0  0  0  0  0  0
   -5.0245    0.1900    0.0000 C   0  0  0  0  0  0  0  0  0  0  0  0
   -6.5134    0.0073    0.0000 C   0  0  0  0  0  0  0  0  0  0  0  0
   -5.4631    1.6245    0.0000 C   0  0  0  0  0  0  0  0  0  0  0  0
   -6.9246    1.9620    0.0000 O   0  0  0  0  0  0  0  0  0  0  0  0
   -4.4400    2.7215    0.0000 C   0  0  0  0  0  0  0  0  0  0  0  0
   -2.9785    2.3841    0.0000 C   0  0  0  0  0  0  0  0  0  0  0  0
   -2.5400    0.9496    0.0000 C   0  0  0  0  0  0  0  0  0  0  0  0
   -1.5169    2.0466    0.0000 C   0  0  0  0  0  0  0  0  0  0  0  0
   -3.5630   -0.1474    0.0000 C   0  0  0  0  0  0  0  0  0  0  0  0
   -3.1245   -1.5819    0.0000 C   0  0  0  0  0  0  0  0  0  0  0  0
   -4.1475   -2.6789    0.0000 O   0  0  0  0  0  0  0  0  0  0  0  0
   -1.6629   -1.9193    0.0000 C   0  0  0  0  0  0  0  0  0  0  0  0
   -1.2244   -3.3538    0.0000 O   0  0  0  0  0  0  0  0  0  0  0  0
   -0.6399   -0.8223    0.0000 C   0  0  0  0  0  0  0  0  0  0  0  0
   -1.0784    0.6121    0.0000 C   0  0  0  0  0  0  0  0  0  0  0  0
   -0.0554    1.7091    0.0000 C   0  0  0  0  0  0  0  0  0  0  0  0
    1.4062    1.3717    0.0000 C   0  0  0  0  0  0  0  0  0  0  0  0
    1.8447   -0.0628    0.0000 C   0  0  0  0  0  0  0  0  0  0  0  0
    2.9768    0.9213    0.0000 C   0  0  0  0  0  0  0  0  0  0  0  0
    3.2041   -0.6967    0.0000 C   0  0  0  0  0  0  0  0  0  0  0  0
    4.5161    0.0304    0.0000 C   0  0  0  0  0  0  0  0  0  0  0  0
    4.6989    1.5193    0.0000 C   0  0  0  0  0  0  0  0  0  0  0  0
    6.1714    1.8054    0.0000 C   0  0  0  0  0  0  0  0  0  0  0  0
    6.8053    3.1649    0.0000 O   0  0  0  0  0  0  0  0  0  0  0  0
    6.8985    0.4935    0.0000 O   0  0  0  0  0  0  0  0  0  0  0  0
    5.8755   -0.6035    0.0000 C   0  0  0  0  0  0  0  0  0  0  0  0
    6.1617   -2.0760    0.0000 O   0  0  0  0  0  0  0  0  0  0  0  0
    3.0213   -2.1856    0.0000 C   0  0  0  0  0  0  0  0  0  0  0  0
    1.5488   -2.4717    0.0000 C   0  0  0  0  0  0  0  0  0  0  0  0
    0.0491   -2.4455    0.0000 O   0  0  0  0  0  0  0  0  0  0  0  0
    0.8217   -1.1598    0.0000 C   0  0  0  0  0  0  0  0  0  0  0  0
  1  2  1  0
  2  3  1  0
  2  4  1  0
  4  5  2  0
  4  6  1  0
  6  7  2  0
  7  8  1  0
  8  9  1  1
  8 10  1  0
 10 11  2  0
 11 12  1  0
 11 13  1  0
 13 14  2  0
 15 13  1  6
 15 16  1  0
 16 17  1  1
 17 18  1  0
 18 19  1  0
 19 20  1  6
 19 21  1  0
 21 22  1  6
 22 23  2  0
 23 24  1  0
 24 25  2  0
 24 26  1  0
 26 27  1  0
 27 28  1  0
 21 29  1  0
 30 29  1  1
 30 31  1  0
 32 31  1  1
 10  2  1  0
 32 15  1  0
 16  8  1  0
 32 19  1  0
 27 22  1  0
 32 30  1  0
M  END
>  <identifier>  (664) 
CNP0346456.1

>  <canonical_smiles>  (664) 
CC1(C)C(=O)C=C[C@@]2(C)C1=C(O)C(=O)[C@@H]1[C@@H]2CC[C@@]2(C)[C@H](C3=CC(=O)OC3O)C[C@H]3O[C@]132

>  <standard_inchi>  (664) 
InChI=1S/C25H28O7/c1-22(2)14(26)6-7-23(3)12-5-8-24(4)13(11-9-16(27)31-21(11)30)10-15-25(24,32-15)17(12)18(28)19(29)20(22)23/h6-7,9,12-13,15,17,21,29-30H,5,8,10H2,1-4H3/t12-,13-,15+,17-,21?,23+,24-,25-/m0/s1

>  <standard_inchi_key>  (664) 
PTNACZVTCIXURY-GCYGENKGSA-N

>  <name>  (664) 
nan

>  <iupac_name>  (664) 
(1~{R},2~{S},4~{R},6~{R},7~{S},10~{S},11~{R})-17-hydroxy-6-(2-hydroxy-5-oxo-2~{H}-furan-3-yl)-7,11,15,15-tetramethyl-3-oxapentacyclo[8.8.0.0^{2,4}.0^{2,7}.0^{11,16}]octadeca-12,16-diene-14,18-dione

>  <annotation_level>  (664) 
4

>  <total_atom_count>  (664) 
60

>  <heavy_atom_count>  (664) 
32

>  <molecular_weight>  (664) 
440.49

>  <exact_molecular_weight>  (664) 
440.1835

>  <molecular_formula>  (664) 
C25H28O7

>  <alogp>  (664) 
2.54

>  <topological_polar_surface_area>  (664) 
113.43

>  <rotatable_bond_count>  (664) 
1

>  <hydrogen_bond_acceptors>  (664) 
7

>  <hydrogen_bond_donors>  (664) 
2

>  <hydrogen_bond_acceptors_lipinski>  (664) 
7

>  <hydrogen_bond_donors_lipinski>  (664) 
2

>  <lipinski_rule_of_five_violations>  (664) 
0

>  <aromatic_rings_count>  (664) 
0

>  <qed_drug_likeliness>  (664) 
0.48

>  <formal_charge>  (664) 
0

>  <fractioncsp3>  (664) 
0.64

>  <number_of_minimal_rings>  (664) 
6

>  <van_der_walls_volume>  (664) 
nan

>  <contains_sugar>  (664) 
False

>  <contains_ring_sugars>  (664) 
False

>  <contains_linear_sugars>  (664) 
False

>  <murcko_framework>  (664) 
O1CC=C(C1)C2CC3OC34C5CC=C6CCC=CC6C5CCC24

>  <np_likeness>  (664) 
3.20

>  <chemical_class>  (664) 
Steroids and steroid derivatives

>  <chemical_sub_class>  (664) 
Steroid lactones

>  <chemical_super_class>  (664) 
Lipids and lipid-like molecules

>  <direct_parent_classification>  (664) 
Steroid lactones

>  <np_classifier_pathway>  (664) 
Terpenoids

>  <np_classifier_superclass>  (664) 
Triterpenoids

>  <np_classifier_class>  (664) 
Limonoids

>  <np_classifier_is_glycoside>  (664) 
True

>  <organisms>  (664) 
Toona ciliata

>  <collections>  (664) 
Latin America dataset|NuBBEDB|WikiData Natural Products

>  <dois>  (664) 
10.1016/0305-1978(94)90107-4

>  <synonyms>  (664) 
21-hydroxycedrelonelide

>  <cas>  (664) 
nan

$$$$

     RDKit          2D

 34 37  0  0  0  0  0  0  0  0999 V2000
    4.3042    2.8130    0.0000 C   0  0  0  0  0  0  0  0  0  0  0  0
    3.2363    1.7596    0.0000 C   0  0  0  0  0  0  0  0  0  0  0  0
    3.6146    0.3081    0.0000 C   0  0  0  0  0  0  0  0  0  0  0  0
    5.0608   -0.0900    0.0000 C   0  0  0  0  0  0  0  0  0  0  0  0
    6.1287    0.9633    0.0000 O   0  0  0  0  0  0  0  0  0  0  0  0
    5.4391   -1.5416    0.0000 C   0  0  0  0  0  0  0  0  0  0  0  0
    4.3712   -2.5949    0.0000 O   0  0  0  0  0  0  0  0  0  0  0  0
    6.8853   -1.9397    0.0000 C   0  0  0  0  0  0  0  0  0  0  0  0
    7.2834   -0.4935    0.0000 C   0  0  0  0  0  0  0  0  0  0  0  0
    6.4871   -3.3859    0.0000 C   0  0  0  0  0  0  0  0  0  0  0  0
    8.3315   -2.3379    0.0000 O   0  0  0  0  0  0  0  0  0  0  0  0
    1.7901    2.1578    0.0000 C   0  0  0  0  0  0  0  0  0  0  0  0
    1.2622    3.5618    0.0000 C   0  0  0  0  0  0  0  0  0  0  0  0
   -0.2362    3.4936    0.0000 C   0  0  0  0  0  0  0  0  0  0  0  0
   -0.6344    2.0474    0.0000 C   0  0  0  0  0  0  0  0  0  0  0  0
   -1.7936    2.9993    0.0000 C   0  0  0  0  0  0  0  0  0  0  0  0
   -1.9755    1.3756    0.0000 C   0  0  0  0  0  0  0  0  0  0  0  0
   -3.2279    2.2012    0.0000 C   0  0  0  0  0  0  0  0  0  0  0  0
   -4.5691    1.5294    0.0000 C   0  0  0  0  0  0  0  0  0  0  0  0
   -4.6578    0.0320    0.0000 C   0  0  0  0  0  0  0  0  0  0  0  0
   -5.9990   -0.6398    0.0000 C   0  0  0  0  0  0  0  0  0  0  0  0
   -7.4890   -0.8124    0.0000 C   0  0  0  0  0  0  0  0  0  0  0  0
   -6.4277    0.7976    0.0000 C   0  0  0  0  0  0  0  0  0  0  0  0
   -6.0878   -2.1372    0.0000 C   0  0  0  0  0  0  0  0  0  0  0  0
   -7.4289   -2.8090    0.0000 O   0  0  0  0  0  0  0  0  0  0  0  0
   -4.8354   -2.9628    0.0000 C   0  0  0  0  0  0  0  0  0  0  0  0
   -3.4942   -2.2910    0.0000 C   0  0  0  0  0  0  0  0  0  0  0  0
   -3.4055   -0.7936    0.0000 C   0  0  0  0  0  0  0  0  0  0  0  0
   -2.1531   -1.6192    0.0000 C   0  0  0  0  0  0  0  0  0  0  0  0
   -2.0643   -0.1218    0.0000 C   0  0  0  0  0  0  0  0  0  0  0  0
   -0.8120   -0.9474    0.0000 C   0  0  0  0  0  0  0  0  0  0  0  0
    0.5292   -0.2755    0.0000 C   0  0  0  0  0  0  0  0  0  0  0  0
    0.6180    1.2218    0.0000 C   0  0  0  0  0  0  0  0  0  0  0  0
    1.9498    0.5317    0.0000 C   0  0  0  0  0  0  0  0  0  0  0  0
  2  1  1  1
  2  3  1  0
  3  4  1  0
  4  5  1  1
  4  6  1  0
  6  7  1  1
  6  8  1  0
  8  9  1  0
  8 10  1  0
  8 11  1  0
  2 12  1  0
 12 13  1  1
 13 14  1  0
 14 15  1  0
 15 16  1  6
 15 17  1  0
 17 18  2  0
 18 19  1  0
 20 19  1  6
 20 21  1  0
 21 22  1  0
 21 23  1  0
 21 24  1  0
 24 25  1  1
 24 26  1  0
 26 27  1  0
 27 28  1  0
 28 29  1  6
 28 30  1  0
 30 31  1  6
 31 32  1  0
 32 33  1  0
 33 34  1  1
 33 12  1  0
 33 15  1  0
 30 17  1  0
 28 20  1  0
M  END
>  <identifier>  (665) 
CNP0178837.2

>  <canonical_smiles>  (665) 
C[C@@H](C[C@@H](O)[C@H](O)C(C)(C)O)[C@@H]1CC[C@]2(C)C3=CC[C@H]4C(C)(C)[C@H](O)CC[C@]4(C)[C@H]3CC[C@@]12C

>  <standard_inchi>  (665) 
InChI=1S/C30H52O4/c1-18(17-22(31)25(33)27(4,5)34)19-11-15-30(8)21-9-10-23-26(2,3)24(32)13-14-28(23,6)20(21)12-16-29(19,30)7/h9,18-20,22-25,31-34H,10-17H2,1-8H3/t18-,19-,20-,22+,23-,24+,25-,28+,29-,30+/m0/s1

>  <standard_inchi_key>  (665) 
MVWLZBQPRMCRKT-MIMKIQIFSA-N

>  <name>  (665) 
nan

>  <iupac_name>  (665) 
(3~{S},4~{R},6~{S})-6-[(3~{R},5~{R},9~{R},10~{R},13~{S},14~{S},17~{S})-3-hydroxy-4,4,10,13,14-pentamethyl-2,3,5,6,9,11,12,15,16,17-decahydro-1~{H}-cyclopenta[a]phenanthren-17-yl]-2-methyl-heptane-2,3,4-triol

>  <annotation_level>  (665) 
4

>  <total_atom_count>  (665) 
86

>  <heavy_atom_count>  (665) 
34

>  <molecular_weight>  (665) 
476.74

>  <exact_molecular_weight>  (665) 
476.38656

>  <molecular_formula>  (665) 
C30H52O4

>  <alogp>  (665) 
5.47

>  <topological_polar_surface_area>  (665) 
80.92

>  <rotatable_bond_count>  (665) 
5

>  <hydrogen_bond_acceptors>  (665) 
4

>  <hydrogen_bond_donors>  (665) 
4

>  <hydrogen_bond_acceptors_lipinski>  (665) 
4

>  <hydrogen_bond_donors_lipinski>  (665) 
4

>  <lipinski_rule_of_five_violations>  (665) 
1

>  <aromatic_rings_count>  (665) 
0

>  <qed_drug_likeliness>  (665) 
0.40

>  <formal_charge>  (665) 
0

>  <fractioncsp3>  (665) 
0.93

>  <number_of_minimal_rings>  (665) 
4

>  <van_der_walls_volume>  (665) 
nan

>  <contains_sugar>  (665) 
False

>  <contains_ring_sugars>  (665) 
False

>  <contains_linear_sugars>  (665) 
False

>  <murcko_framework>  (665) 
C1=C2C3CCCC3CCC2C4CCCCC4C1

>  <np_likeness>  (665) 
3.39

>  <chemical_class>  (665) 
Steroids and steroid derivatives

>  <chemical_sub_class>  (665) 
Hydroxysteroids

>  <chemical_super_class>  (665) 
Lipids and lipid-like molecules

>  <direct_parent_classification>  (665) 
3-hydroxysteroids

>  <np_classifier_pathway>  (665) 
Shikimates and Phenylpropanoids

>  <np_classifier_superclass>  (665) 
Flavonoids

>  <np_classifier_class>  (665) 
Aurones

>  <np_classifier_is_glycoside>  (665) 
False

>  <organisms>  (665) 
Aphanamixis grandifolia|Aphanamixis polystachya|Cedrela fissilis|Chisocheton cumingianus|Picrasma javanica

>  <collections>  (665) 
Latin America dataset|NuBBEDB|Super Natural II|WikiData Natural Products

>  <dois>  (665) 
10.1002/MRC.2768|10.1016/0031-9422(91)83475-Z|10.1021/NP900485T|10.1055/S-0028-1088323|10.1055/s-0028-1088323

>  <synonyms>  (665) 
Hispidol A

>  <cas>  (665) 
nan

$$$$

     RDKit          2D

 22 24  0  0  0  0  0  0  0  0999 V2000
   -3.8014    2.3789    0.0000 C   0  0  0  0  0  0  0  0  0  0  0  0
   -4.2443    0.9458    0.0000 C   0  0  0  0  0  0  0  0  0  0  0  0
   -3.2246   -0.1543    0.0000 C   0  0  0  0  0  0  0  0  0  0  0  0
   -4.4851   -0.9675    0.0000 C   0  0  0  0  0  0  0  0  0  0  0  0
   -2.3183    1.0409    0.0000 C   0  0  0  0  0  0  0  0  0  0  0  0
   -0.8300    0.8536    0.0000 C   0  0  0  0  0  0  0  0  0  0  0  0
   -0.2481   -0.5289    0.0000 C   0  0  0  0  0  0  0  0  0  0  0  0
   -1.1544   -1.7241    0.0000 C   0  0  0  0  0  0  0  0  0  0  0  0
   -2.6427   -1.5368    0.0000 C   0  0  0  0  0  0  0  0  0  0  0  0
   -3.5490   -2.7320    0.0000 O   0  0  0  0  0  0  0  0  0  0  0  0
    1.2402   -0.7162    0.0000 C   0  0  0  0  0  0  0  0  0  0  0  0
    0.3338   -1.9114    0.0000 C   0  0  0  0  0  0  0  0  0  0  0  0
    1.8221   -2.0987    0.0000 C   0  0  0  0  0  0  0  0  0  0  0  0
    3.3104   -2.2860    0.0000 C   0  0  0  0  0  0  0  0  0  0  0  0
    4.2167   -1.0908    0.0000 C   0  0  0  0  0  0  0  0  0  0  0  0
    3.6348    0.2918    0.0000 C   0  0  0  0  0  0  0  0  0  0  0  0
    3.5608    1.7899    0.0000 C   0  0  0  0  0  0  0  0  0  0  0  0
    5.0973    0.6248    0.0000 C   0  0  0  0  0  0  0  0  0  0  0  0
    2.1465    0.4790    0.0000 C   0  0  0  0  0  0  0  0  0  0  0  0
    1.5646    1.8616    0.0000 C   0  0  0  0  0  0  0  0  0  0  0  0
    0.0763    2.0489    0.0000 C   0  0  0  0  0  0  0  0  0  0  0  0
   -0.5056    3.4314    0.0000 O   0  0  0  0  0  0  0  0  0  0  0  0
  1  2  2  0
  2  3  1  0
  3  4  1  1
  3  5  1  0
  5  6  1  0
  6  7  2  0
  7  8  1  0
  8  9  1  0
  9 10  1  1
  7 11  1  0
 11 12  1  1
 11 13  1  0
 13 14  1  0
 14 15  1  0
 15 16  1  0
 16 17  1  0
 16 18  1  0
 16 19  1  0
 19 20  1  1
 20 21  1  0
 21 22  2  0
  9  3  1  0
 19 11  1  0
 21  6  1  0
M  END
>  <identifier>  (666) 
CNP0155642.1

>  <canonical_smiles>  (666) 
C=C[C@]1(C)CC2=C(C[C@H]1O)[C@@]1(C)CCCC(C)(C)[C@@H]1CC2=O

>  <standard_inchi>  (666) 
InChI=1S/C20H30O2/c1-6-19(4)12-13-14(10-17(19)22)20(5)9-7-8-18(2,3)16(20)11-15(13)21/h6,16-17,22H,1,7-12H2,2-5H3/t16-,17+,19+,20+/m0/s1

>  <standard_inchi_key>  (666) 
GGPQVYIBFAAXCB-ONCXSQPRSA-N

>  <name>  (666) 
nan

>  <iupac_name>  (666) 
(4~{a}~{S},6~{R},7~{S},10~{a}~{S})-6-hydroxy-1,1,4~{a},7-tetramethyl-7-vinyl-2,3,4,5,6,8,10,10~{a}-octahydrophenanthren-9-one

>  <annotation_level>  (666) 
4

>  <total_atom_count>  (666) 
52

>  <heavy_atom_count>  (666) 
22

>  <molecular_weight>  (666) 
302.46

>  <exact_molecular_weight>  (666) 
302.22458

>  <molecular_formula>  (666) 
C20H30O2

>  <alogp>  (666) 
4.44

>  <topological_polar_surface_area>  (666) 
37.30

>  <rotatable_bond_count>  (666) 
1

>  <hydrogen_bond_acceptors>  (666) 
2

>  <hydrogen_bond_donors>  (666) 
1

>  <hydrogen_bond_acceptors_lipinski>  (666) 
2

>  <hydrogen_bond_donors_lipinski>  (666) 
1

>  <lipinski_rule_of_five_violations>  (666) 
0

>  <aromatic_rings_count>  (666) 
0

>  <qed_drug_likeliness>  (666) 
0.73

>  <formal_charge>  (666) 
0

>  <fractioncsp3>  (666) 
0.75

>  <number_of_minimal_rings>  (666) 
3

>  <van_der_walls_volume>  (666) 
nan

>  <contains_sugar>  (666) 
False

>  <contains_ring_sugars>  (666) 
False

>  <contains_linear_sugars>  (666) 
False

>  <murcko_framework>  (666) 
C12=C(CCCC1)C3CCCCC3CC2

>  <np_likeness>  (666) 
3.25

>  <chemical_class>  (666) 
Prenol lipids

>  <chemical_sub_class>  (666) 
Diterpenoids

>  <chemical_super_class>  (666) 
Lipids and lipid-like molecules

>  <direct_parent_classification>  (666) 
Diterpenoids

>  <np_classifier_pathway>  (666) 
Terpenoids

>  <np_classifier_superclass>  (666) 
Diterpenoids

>  <np_classifier_class>  (666) 
Pimarane and Isopimarane diterpenoids

>  <np_classifier_is_glycoside>  (666) 
False

>  <organisms>  (666) 
Vellozia compacta

>  <collections>  (666) 
Latin America dataset|NuBBEDB|Super Natural II|WikiData Natural Products|ZINC NP

>  <dois>  (666) 
10.1016/0031-9422(83)80034-X

>  <synonyms>  (666) 
12\u221a\u00e9\u00ac\u2264-hydroxy-7-oxopimar-8(9)15-diene

>  <cas>  (666) 
nan

$$$$

     RDKit          2D

 26 29  0  0  0  0  0  0  0  0999 V2000
    3.8476    4.5652    0.0000 C   0  0  0  0  0  0  0  0  0  0  0  0
    3.8123    3.0656    0.0000 C   0  0  0  0  0  0  0  0  0  0  0  0
    2.4960    2.3464    0.0000 C   0  0  0  0  0  0  0  0  0  0  0  0
    2.4607    0.8468    0.0000 C   0  0  0  0  0  0  0  0  0  0  0  0
    3.7417    0.0664    0.0000 C   0  0  0  0  0  0  0  0  0  0  0  0
    3.7064   -1.4332    0.0000 C   0  0  0  0  0  0  0  0  0  0  0  0
    4.9875   -2.2135    0.0000 O   0  0  0  0  0  0  0  0  0  0  0  0
    2.3901   -2.1524    0.0000 C   0  0  0  0  0  0  0  0  0  0  0  0
    2.3548   -3.6520    0.0000 O   0  0  0  0  0  0  0  0  0  0  0  0
    1.1091   -1.3720    0.0000 C   0  0  0  0  0  0  0  0  0  0  0  0
   -0.2073   -2.0913    0.0000 O   0  0  0  0  0  0  0  0  0  0  0  0
   -0.2426   -3.5908    0.0000 C   0  0  0  0  0  0  0  0  0  0  0  0
    1.1444    0.1275    0.0000 C   0  0  0  0  0  0  0  0  0  0  0  0
   -0.1367    0.9079    0.0000 O   0  0  0  0  0  0  0  0  0  0  0  0
    0.2209   -0.0880    0.0000 C   0  0  0  0  0  0  0  0  0  0  0  0
   -1.2742   -0.2096    0.0000 C   0  0  0  0  0  0  0  0  0  0  0  0
   -1.9164   -1.5652    0.0000 C   0  0  0  0  0  0  0  0  0  0  0  0
   -3.4114   -1.6868    0.0000 C   0  0  0  0  0  0  0  0  0  0  0  0
   -4.2643   -0.4529    0.0000 C   0  0  0  0  0  0  0  0  0  0  0  0
   -5.7520   -0.2610    0.0000 O   0  0  0  0  0  0  0  0  0  0  0  0
   -6.0293    1.2131    0.0000 C   0  0  0  0  0  0  0  0  0  0  0  0
   -4.7129    1.9323    0.0000 O   0  0  0  0  0  0  0  0  0  0  0  0
   -3.6221    0.9027    0.0000 C   0  0  0  0  0  0  0  0  0  0  0  0
   -2.1271    1.0243    0.0000 C   0  0  0  0  0  0  0  0  0  0  0  0
    1.0012    1.1931    0.0000 C   0  0  0  0  0  0  0  0  0  0  0  0
    0.4235    2.5774    0.0000 C   0  0  0  0  0  0  0  0  0  0  0  0
  1  2  2  0
  2  3  1  0
  4  3  1  6
  4  5  1  0
  5  6  1  0
  6  7  2  0
  6  8  1  0
  8  9  1  1
  8 10  1  0
 10 11  1  6
 11 12  1  0
 10 13  1  0
 13 14  1  0
 10 15  1  0
 15 16  1  6
 16 17  2  0
 17 18  1  0
 18 19  2  0
 19 20  1  0
 20 21  1  0
 21 22  1  0
 22 23  1  0
 23 24  2  0
 15 25  1  0
 25 26  1  1
 13  4  1  0
 24 16  1  0
 25  4  1  0
 23 19  1  0
M  END
>  <identifier>  (667) 
CNP0159017.3

>  <canonical_smiles>  (667) 
C=CC[C@]12CC(=O)[C@@H](O)[C@](OC)(C1O)[C@H](C1=CC=C3OCOC3=C1)[C@H]2C

>  <standard_inchi>  (667) 
InChI=1S/C20H24O6/c1-4-7-19-9-13(21)17(22)20(24-3,18(19)23)16(11(19)2)12-5-6-14-15(8-12)26-10-25-14/h4-6,8,11,16-18,22-23H,1,7,9-10H2,2-3H3/t11-,16+,17-,18?,19-,20+/m1/s1

>  <standard_inchi_key>  (667) 
HFRUTFXBVKAWAM-QCGOZZPKSA-N

>  <name>  (667) 
nan

>  <iupac_name>  (667) 
(1~{R},2~{S},5~{R},6~{R},7~{S})-5-allyl-7-(1,3-benzodioxol-5-yl)-2,8-dihydroxy-1-methoxy-6-methyl-bicyclo[3.2.1]octan-3-one

>  <annotation_level>  (667) 
4

>  <total_atom_count>  (667) 
50

>  <heavy_atom_count>  (667) 
26

>  <molecular_weight>  (667) 
360.41

>  <exact_molecular_weight>  (667) 
360.15729

>  <molecular_formula>  (667) 
C20H24O6

>  <alogp>  (667) 
1.79

>  <topological_polar_surface_area>  (667) 
85.22

>  <rotatable_bond_count>  (667) 
4

>  <hydrogen_bond_acceptors>  (667) 
6

>  <hydrogen_bond_donors>  (667) 
2

>  <hydrogen_bond_acceptors_lipinski>  (667) 
6

>  <hydrogen_bond_donors_lipinski>  (667) 
2

>  <lipinski_rule_of_five_violations>  (667) 
0

>  <aromatic_rings_count>  (667) 
1

>  <qed_drug_likeliness>  (667) 
0.80

>  <formal_charge>  (667) 
0

>  <fractioncsp3>  (667) 
0.55

>  <number_of_minimal_rings>  (667) 
4

>  <van_der_walls_volume>  (667) 
nan

>  <contains_sugar>  (667) 
False

>  <contains_ring_sugars>  (667) 
False

>  <contains_linear_sugars>  (667) 
False

>  <murcko_framework>  (667) 
O1c2ccc(cc2OC1)C3CC4CCCC3C4

>  <np_likeness>  (667) 
2.09

>  <chemical_class>  (667) 
Benzodioxoles

>  <chemical_sub_class>  (667) 
Benzodioxoles

>  <chemical_super_class>  (667) 
Organoheterocyclic compounds

>  <direct_parent_classification>  (667) 
Benzodioxoles

>  <np_classifier_pathway>  (667) 
Shikimates and Phenylpropanoids

>  <np_classifier_superclass>  (667) 
Lignans

>  <np_classifier_class>  (667) 
Neolignans

>  <np_classifier_is_glycoside>  (667) 
False

>  <organisms>  (667) 
Ocotea catharinensis

>  <collections>  (667) 
Latin America dataset|NuBBEDB

>  <dois>  (667) 
10.1016/0031-9422(91)83479-5

>  <synonyms>  (667) 
rel-(7S8R1'R4'S5'R6'R)-D-4'6'-Dihydroxy-5'-methoxy-34-methylenedioxy-3'-oxo-8.1'7'5'-neolignan

>  <cas>  (667) 
nan

$$$$

     RDKit          2D

 33 35  0  0  0  0  0  0  0  0999 V2000
   -8.0397   -0.9595    0.0000 C   0  0  0  0  0  0  0  0  0  0  0  0
   -6.6390   -1.4960    0.0000 O   0  0  0  0  0  0  0  0  0  0  0  0
   -5.4739   -0.5512    0.0000 C   0  0  0  0  0  0  0  0  0  0  0  0
   -5.7097    0.9302    0.0000 C   0  0  0  0  0  0  0  0  0  0  0  0
   -4.5446    1.8750    0.0000 C   0  0  0  0  0  0  0  0  0  0  0  0
   -3.1439    1.3385    0.0000 C   0  0  0  0  0  0  0  0  0  0  0  0
   -1.9788    2.2833    0.0000 C   0  0  0  0  0  0  0  0  0  0  0  0
   -2.0584    3.7812    0.0000 O   0  0  0  0  0  0  0  0  0  0  0  0
   -0.6585    4.3198    0.0000 C   0  0  0  0  0  0  0  0  0  0  0  0
    0.2864    3.1548    0.0000 C   0  0  0  0  0  0  0  0  0  0  0  0
    1.7843    3.2344    0.0000 C   0  0  0  0  0  0  0  0  0  0  0  0
    2.6021    1.9770    0.0000 C   0  0  0  0  0  0  0  0  0  0  0  0
    1.9221    0.6400    0.0000 C   0  0  0  0  0  0  0  0  0  0  0  0
    2.7400   -0.6174    0.0000 C   0  0  0  0  0  0  0  0  0  0  0  0
    4.2379   -0.5378    0.0000 C   0  0  0  0  0  0  0  0  0  0  0  0
    5.0558   -1.7953    0.0000 O   0  0  0  0  0  0  0  0  0  0  0  0
    4.3758   -3.1323    0.0000 C   0  0  0  0  0  0  0  0  0  0  0  0
    5.1936   -4.3897    0.0000 C   0  0  0  0  0  0  0  0  0  0  0  0
    2.8779   -3.2119    0.0000 O   0  0  0  0  0  0  0  0  0  0  0  0
    4.9179    0.7992    0.0000 C   0  0  0  0  0  0  0  0  0  0  0  0
    6.4158    0.8788    0.0000 O   0  0  0  0  0  0  0  0  0  0  0  0
    7.0958    2.2158    0.0000 C   0  0  0  0  0  0  0  0  0  0  0  0
    4.1000    2.0566    0.0000 C   0  0  0  0  0  0  0  0  0  0  0  0
   -0.5297    1.8962    0.0000 C   0  0  0  0  0  0  0  0  0  0  0  0
    0.0089    0.4962    0.0000 C   0  0  0  0  0  0  0  0  0  0  0  0
   -0.9342   -0.6702    0.0000 O   0  0  0  0  0  0  0  0  0  0  0  0
   -0.3956   -2.0702    0.0000 C   0  0  0  0  0  0  0  0  0  0  0  0
   -1.3388   -3.2366    0.0000 C   0  0  0  0  0  0  0  0  0  0  0  0
    1.0861   -2.3038    0.0000 O   0  0  0  0  0  0  0  0  0  0  0  0
   -2.9081   -0.1429    0.0000 C   0  0  0  0  0  0  0  0  0  0  0  0
   -4.0732   -1.0877    0.0000 C   0  0  0  0  0  0  0  0  0  0  0  0
   -3.8374   -2.5690    0.0000 O   0  0  0  0  0  0  0  0  0  0  0  0
   -2.4367   -3.1056    0.0000 C   0  0  0  0  0  0  0  0  0  0  0  0
  1  2  1  0
  2  3  1  0
  3  4  2  0
  4  5  1  0
  5  6  2  0
  7  6  1  1
  7  8  1  0
  8  9  1  0
  9 10  1  0
 10 11  1  6
 11 12  1  0
 12 13  2  0
 13 14  1  0
 14 15  2  0
 15 16  1  0
 16 17  1  0
 17 18  1  0
 17 19  2  0
 15 20  1  0
 20 21  1  0
 21 22  1  0
 20 23  2  0
 10 24  1  0
 24 25  1  6
 25 26  1  0
 26 27  1  0
 27 28  1  0
 27 29  2  0
  6 30  1  0
 30 31  2  0
 31 32  1  0
 32 33  1  0
 31  3  1  0
 24  7  1  0
 23 12  1  0
M  END
>  <identifier>  (668) 
CNP0322176.1

>  <canonical_smiles>  (668) 
COC1=CC=C([C@H]2OC[C@H](CC3=CC=C(OC(C)=O)C(OC)=C3)[C@@H]2COC(C)=O)C=C1OC

>  <standard_inchi>  (668) 
InChI=1S/C25H30O8/c1-15(26)31-14-20-19(10-17-6-8-22(33-16(2)27)23(11-17)29-4)13-32-25(20)18-7-9-21(28-3)24(12-18)30-5/h6-9,11-12,19-20,25H,10,13-14H2,1-5H3/t19-,20-,25+/m0/s1

>  <standard_inchi_key>  (668) 
STHQLLZVDDDCQI-ZYLNGJIFSA-N

>  <name>  (668) 
nan

>  <iupac_name>  (668) 
[(2~{S},3~{R},4~{R})-4-[(4-acetoxy-3-methoxy-phenyl)methyl]-2-(3,4-dimethoxyphenyl)tetrahydrofuran-3-yl]methyl acetate

>  <annotation_level>  (668) 
4

>  <total_atom_count>  (668) 
63

>  <heavy_atom_count>  (668) 
33

>  <molecular_weight>  (668) 
458.51

>  <exact_molecular_weight>  (668) 
458.19407

>  <molecular_formula>  (668) 
C25H30O8

>  <alogp>  (668) 
3.75

>  <topological_polar_surface_area>  (668) 
89.52

>  <rotatable_bond_count>  (668) 
9

>  <hydrogen_bond_acceptors>  (668) 
8

>  <hydrogen_bond_donors>  (668) 
0

>  <hydrogen_bond_acceptors_lipinski>  (668) 
8

>  <hydrogen_bond_donors_lipinski>  (668) 
0

>  <lipinski_rule_of_five_violations>  (668) 
0

>  <aromatic_rings_count>  (668) 
2

>  <qed_drug_likeliness>  (668) 
0.41

>  <formal_charge>  (668) 
0

>  <fractioncsp3>  (668) 
0.44

>  <number_of_minimal_rings>  (668) 
3

>  <van_der_walls_volume>  (668) 
nan

>  <contains_sugar>  (668) 
False

>  <contains_ring_sugars>  (668) 
False

>  <contains_linear_sugars>  (668) 
False

>  <murcko_framework>  (668) 
O1CC(Cc2ccccc2)CC1c3ccccc3

>  <np_likeness>  (668) 
1.12

>  <chemical_class>  (668) 
Furanoid lignans

>  <chemical_sub_class>  (668) 
Tetrahydrofuran lignans

>  <chemical_super_class>  (668) 
Lignans, neolignans and related compounds

>  <direct_parent_classification>  (668) 
7,9'-epoxylignans

>  <np_classifier_pathway>  (668) 
Shikimates and Phenylpropanoids

>  <np_classifier_superclass>  (668) 
Lignans

>  <np_classifier_class>  (668) 
Furanoid lignans

>  <np_classifier_is_glycoside>  (668) 
False

>  <organisms>  (668) 
Araucaria angustifolia

>  <collections>  (668) 
Latin America dataset|NuBBEDB|WikiData Natural Products|ZINC NP

>  <dois>  (668) 
10.1016/0031-9422(79)80188-0

>  <synonyms>  (668) 
lariciresinol-4'-methyl ether diacetate

>  <cas>  (668) 
nan

$$$$

     RDKit          2D

 14 13  0  0  0  0  0  0  0  0999 V2000
   -5.1962    0.1071    0.0000 C   0  0  0  0  0  0  0  0  0  0  0  0
   -3.8971   -0.6429    0.0000 C   0  0  0  0  0  0  0  0  0  0  0  0
   -3.8971   -2.1429    0.0000 C   0  0  0  0  0  0  0  0  0  0  0  0
   -2.5981    0.1071    0.0000 C   0  0  0  0  0  0  0  0  0  0  0  0
   -1.2990   -0.6429    0.0000 C   0  0  0  0  0  0  0  0  0  0  0  0
    0.0000    0.1071    0.0000 N   0  0  0  0  0  0  0  0  0  0  0  0
    1.2990   -0.6429    0.0000 C   0  0  0  0  0  0  0  0  0  0  0  0
    2.5981    0.1071    0.0000 C   0  0  0  0  0  0  0  0  0  0  0  0
    3.8971   -0.6429    0.0000 C   0  0  0  0  0  0  0  0  0  0  0  0
    5.1962    0.1071    0.0000 C   0  0  0  0  0  0  0  0  0  0  0  0
    3.8971   -2.1429    0.0000 C   0  0  0  0  0  0  0  0  0  0  0  0
    0.0000    1.6071    0.0000 C   0  0  0  0  0  0  0  0  0  0  0  0
   -1.2990    2.3571    0.0000 N   0  0  0  0  0  0  0  0  0  0  0  0
    1.2990    2.3571    0.0000 N   0  0  0  0  0  0  0  0  0  0  0  0
  1  2  1  0
  2  3  1  0
  2  4  2  0
  4  5  1  0
  5  6  1  0
  6  7  1  0
  7  8  1  0
  8  9  2  0
  9 10  1  0
  9 11  1  0
  6 12  1  0
 12 13  2  0
 12 14  1  0
M  END
>  <identifier>  (669) 
CNP0167980.0

>  <canonical_smiles>  (669) 
CC(C)=CCN(CC=C(C)C)C(=N)N

>  <standard_inchi>  (669) 
InChI=1S/C11H21N3/c1-9(2)5-7-14(11(12)13)8-6-10(3)4/h5-6H,7-8H2,1-4H3,(H3,12,13)

>  <standard_inchi_key>  (669) 
LNZWTNFGEROXJJ-UHFFFAOYSA-N

>  <name>  (669) 
pterogynine

>  <iupac_name>  (669) 
1,1-bis(3-methylbut-2-enyl)guanidine

>  <annotation_level>  (669) 
5

>  <total_atom_count>  (669) 
35

>  <heavy_atom_count>  (669) 
14

>  <molecular_weight>  (669) 
195.31

>  <exact_molecular_weight>  (669) 
195.17355

>  <molecular_formula>  (669) 
C11H21N3

>  <alogp>  (669) 
2.11

>  <topological_polar_surface_area>  (669) 
53.11

>  <rotatable_bond_count>  (669) 
4

>  <hydrogen_bond_acceptors>  (669) 
1

>  <hydrogen_bond_donors>  (669) 
2

>  <hydrogen_bond_acceptors_lipinski>  (669) 
1

>  <hydrogen_bond_donors_lipinski>  (669) 
2

>  <lipinski_rule_of_five_violations>  (669) 
0

>  <aromatic_rings_count>  (669) 
0

>  <qed_drug_likeliness>  (669) 
0.41

>  <formal_charge>  (669) 
0

>  <fractioncsp3>  (669) 
0.55

>  <number_of_minimal_rings>  (669) 
0

>  <van_der_walls_volume>  (669) 
213.95

>  <contains_sugar>  (669) 
False

>  <contains_ring_sugars>  (669) 
False

>  <contains_linear_sugars>  (669) 
False

>  <murcko_framework>  (669) 
nan

>  <np_likeness>  (669) 
0.97

>  <chemical_class>  (669) 
Organonitrogen compounds

>  <chemical_sub_class>  (669) 
Guanidines

>  <chemical_super_class>  (669) 
Organic nitrogen compounds

>  <direct_parent_classification>  (669) 
Guanidines

>  <np_classifier_pathway>  (669) 
Terpenoids

>  <np_classifier_superclass>  (669) 
Sesquiterpenoids

>  <np_classifier_class>  (669) 
Cyclofarnesane sesquiterpenoids

>  <np_classifier_is_glycoside>  (669) 
False

>  <organisms>  (669) 
Alchornea rugosa|Pterogyne nitens

>  <collections>  (669) 
ChemSpider NPs|KNApSaCK|Latin America dataset|NPASS|NuBBEDB|Super Natural II|UNPD (Universal Natural Products Database)|WikiData Natural Products|ZINC NP

>  <dois>  (669) 
10.1007/S13277-010-0064-2|10.1021/NP800612X|10.1021/np800612x|10.1071/CH9701679|10.1590/S0102-695X2009000100014

>  <synonyms>  (669) 
CHEMBL555502|Pterogynine

>  <cas>  (669) 
nan

$$$$

     RDKit          2D

 22 22  0  0  0  0  0  0  0  0999 V2000
    8.8949   -1.3784    0.0000 C   0  0  0  0  0  0  0  0  0  0  0  0
    7.6582   -0.5295    0.0000 C   0  0  0  0  0  0  0  0  0  0  0  0
    6.3047   -1.1761    0.0000 N   0  0  0  0  0  0  0  0  0  0  0  0
    5.0680   -0.3273    0.0000 C   0  0  0  0  0  0  0  0  0  0  0  0
    3.7145   -0.9739    0.0000 C   0  0  0  0  0  0  0  0  0  0  0  0
    2.4778   -0.1251    0.0000 C   0  0  0  0  0  0  0  0  0  0  0  0
    1.1243   -0.7717    0.0000 C   0  0  0  0  0  0  0  0  0  0  0  0
   -0.1124    0.0772    0.0000 C   0  0  0  0  0  0  0  0  0  0  0  0
   -1.4659   -0.5694    0.0000 C   0  0  0  0  0  0  0  0  0  0  0  0
   -2.7026    0.2794    0.0000 C   0  0  0  0  0  0  0  0  0  0  0  0
   -4.0561   -0.3672    0.0000 C   0  0  0  0  0  0  0  0  0  0  0  0
   -4.1729   -1.8627    0.0000 O   0  0  0  0  0  0  0  0  0  0  0  0
   -5.2928    0.4816    0.0000 C   0  0  0  0  0  0  0  0  0  0  0  0
   -6.6463   -0.1650    0.0000 C   0  0  0  0  0  0  0  0  0  0  0  0
   -7.8830    0.6839    0.0000 C   0  0  0  0  0  0  0  0  0  0  0  0
   -9.2365    0.0373    0.0000 C   0  0  0  0  0  0  0  0  0  0  0  0
  -10.4732    0.8861    0.0000 C   0  0  0  0  0  0  0  0  0  0  0  0
  -11.8267    0.2395    0.0000 O   0  0  0  0  0  0  0  0  0  0  0  0
    5.1847    1.1682    0.0000 C   0  0  0  0  0  0  0  0  0  0  0  0
    6.5382    1.8148    0.0000 C   0  0  0  0  0  0  0  0  0  0  0  0
    7.7749    0.9659    0.0000 C   0  0  0  0  0  0  0  0  0  0  0  0
    9.1284    1.6125    0.0000 O   0  0  0  0  0  0  0  0  0  0  0  0
  1  2  1  0
  2  3  2  0
  3  4  1  0
  4  5  1  0
  5  6  1  0
  6  7  1  0
  7  8  1  0
  8  9  1  0
  9 10  1  0
 10 11  1  0
 11 12  2  0
 11 13  1  0
 13 14  1  0
 14 15  1  0
 15 16  1  0
 16 17  1  0
 17 18  1  0
  4 19  2  0
 19 20  1  0
 20 21  2  0
 21 22  1  0
 21  2  1  0
M  END
>  <identifier>  (670) 
CNP0118365.0

>  <canonical_smiles>  (670) 
CC1=NC(CCCCCCC(=O)CCCCCO)=CC=C1O

>  <standard_inchi>  (670) 
InChI=1S/C18H29NO3/c1-15-18(22)13-12-16(19-15)9-5-2-3-6-10-17(21)11-7-4-8-14-20/h12-13,20,22H,2-11,14H2,1H3

>  <standard_inchi_key>  (670) 
YRVGMUCBUGPWMR-UHFFFAOYSA-N

>  <name>  (670) 
1-hydroxy-12-(5-hydroxy-6-methylpyridin-2-yl)dodecan-6-one

>  <iupac_name>  (670) 
1-hydroxy-12-(5-hydroxy-6-methyl-2-pyridyl)dodecan-6-one

>  <annotation_level>  (670) 
5

>  <total_atom_count>  (670) 
51

>  <heavy_atom_count>  (670) 
22

>  <molecular_weight>  (670) 
307.43

>  <exact_molecular_weight>  (670) 
307.21474

>  <molecular_formula>  (670) 
C18H29NO3

>  <alogp>  (670) 
3.71

>  <topological_polar_surface_area>  (670) 
70.42

>  <rotatable_bond_count>  (670) 
12

>  <hydrogen_bond_acceptors>  (670) 
4

>  <hydrogen_bond_donors>  (670) 
2

>  <hydrogen_bond_acceptors_lipinski>  (670) 
4

>  <hydrogen_bond_donors_lipinski>  (670) 
2

>  <lipinski_rule_of_five_violations>  (670) 
0

>  <aromatic_rings_count>  (670) 
1

>  <qed_drug_likeliness>  (670) 
0.58

>  <formal_charge>  (670) 
0

>  <fractioncsp3>  (670) 
0.67

>  <number_of_minimal_rings>  (670) 
1

>  <van_der_walls_volume>  (670) 
314.94

>  <contains_sugar>  (670) 
False

>  <contains_ring_sugars>  (670) 
False

>  <contains_linear_sugars>  (670) 
False

>  <murcko_framework>  (670) 
n1ccccc1

>  <np_likeness>  (670) 
0.84

>  <chemical_class>  (670) 
Pyridines and derivatives

>  <chemical_sub_class>  (670) 
Halopyridines

>  <chemical_super_class>  (670) 
Organoheterocyclic compounds

>  <direct_parent_classification>  (670) 
Polyhalopyridines

>  <np_classifier_pathway>  (670) 
Alkaloids

>  <np_classifier_superclass>  (670) 
Nicotinic acid alkaloids

>  <np_classifier_class>  (670) 
Pyridine alkaloids

>  <np_classifier_is_glycoside>  (670) 
False

>  <organisms>  (670) 
Senna multijuga

>  <collections>  (670) 
ChemSpider NPs|Latin America dataset|NPASS|NuBBEDB|Super Natural II|UNPD (Universal Natural Products Database)|WikiData Natural Products|ZINC NP

>  <dois>  (670) 
10.1021/NP900644X|10.1021/np900644x

>  <synonyms>  (670) 
12'-hydroxy-7'-multijuguinone|CHEMBL1087643

>  <cas>  (670) 
nan

$$$$

     RDKit          2D

 28 30  0  0  0  0  0  0  0  0999 V2000
   -5.5907   -4.1136    0.0000 C   0  0  0  0  0  0  0  0  0  0  0  0
   -4.2954   -3.3572    0.0000 O   0  0  0  0  0  0  0  0  0  0  0  0
   -4.3028   -1.8572    0.0000 C   0  0  0  0  0  0  0  0  0  0  0  0
   -5.6055   -1.1136    0.0000 O   0  0  0  0  0  0  0  0  0  0  0  0
   -3.0075   -1.1008    0.0000 C   0  0  0  0  0  0  0  0  0  0  0  0
   -1.7048   -1.8443    0.0000 C   0  0  0  0  0  0  0  0  0  0  0  0
   -0.4094   -1.0879    0.0000 O   0  0  0  0  0  0  0  0  0  0  0  0
   -0.4169    0.4121    0.0000 C   0  0  0  0  0  0  0  0  0  0  0  0
    0.8784    1.1685    0.0000 O   0  0  0  0  0  0  0  0  0  0  0  0
    2.1812    0.4250    0.0000 C   0  0  0  0  0  0  0  0  0  0  0  0
    2.1886   -1.0750    0.0000 O   0  0  0  0  0  0  0  0  0  0  0  0
    3.4913   -1.8186    0.0000 C   0  0  0  0  0  0  0  0  0  0  0  0
    3.4988   -3.3185    0.0000 C   0  0  0  0  0  0  0  0  0  0  0  0
    2.2035   -4.0750    0.0000 O   0  0  0  0  0  0  0  0  0  0  0  0
    4.7866   -1.0621    0.0000 C   0  0  0  0  0  0  0  0  0  0  0  0
    6.0894   -1.8057    0.0000 O   0  0  0  0  0  0  0  0  0  0  0  0
    4.7792    0.4379    0.0000 C   0  0  0  0  0  0  0  0  0  0  0  0
    6.0745    1.1943    0.0000 O   0  0  0  0  0  0  0  0  0  0  0  0
    3.4765    1.1814    0.0000 C   0  0  0  0  0  0  0  0  0  0  0  0
    3.4690    2.6814    0.0000 O   0  0  0  0  0  0  0  0  0  0  0  0
   -1.7196    1.1557    0.0000 C   0  0  0  0  0  0  0  0  0  0  0  0
   -3.0149    0.3992    0.0000 C   0  0  0  0  0  0  0  0  0  0  0  0
   -4.1346    1.3974    0.0000 C   0  0  0  0  0  0  0  0  0  0  0  0
   -3.5313    2.7707    0.0000 C   0  0  0  0  0  0  0  0  0  0  0  0
   -2.0388    2.6213    0.0000 C   0  0  0  0  0  0  0  0  0  0  0  0
   -0.5478    2.7855    0.0000 O   0  0  0  0  0  0  0  0  0  0  0  0
   -2.0462    4.1213    0.0000 C   0  0  0  0  0  0  0  0  0  0  0  0
   -0.7509    4.8777    0.0000 O   0  0  0  0  0  0  0  0  0  0  0  0
  1  2  1  0
  2  3  1  0
  3  4  2  0
  3  5  1  0
  5  6  2  0
  6  7  1  0
  7  8  1  0
  8  9  1  6
 10  9  1  1
 10 11  1  0
 11 12  1  0
 12 13  1  1
 13 14  1  0
 12 15  1  0
 15 16  1  6
 15 17  1  0
 17 18  1  1
 17 19  1  0
 19 20  1  6
 21  8  1  1
 21 22  1  0
 22 23  1  1
 23 24  2  0
 24 25  1  0
 25 26  1  1
 25 27  1  0
 27 28  1  0
 22  5  1  0
 19 10  1  0
 25 21  1  0
M  END
>  <identifier>  (671) 
CNP0237910.2

>  <canonical_smiles>  (671) 
COC(=O)C1=CO[C@@H](O[C@@H]2O[C@H](CO)[C@@H](O)[C@H](O)[C@H]2O)[C@H]2[C@@H]1C=C[C@]2(O)CO

>  <standard_inchi>  (671) 
InChI=1S/C17H24O11/c1-25-14(23)8-5-26-15(10-7(8)2-3-17(10,24)6-19)28-16-13(22)12(21)11(20)9(4-18)27-16/h2-3,5,7,9-13,15-16,18-22,24H,4,6H2,1H3/t7-,9-,10-,11-,12+,13-,15+,16+,17+/m1/s1

>  <standard_inchi_key>  (671) 
XJMPAUZQVRGFRE-DUMNYRKASA-N

>  <name>  (671) 
galioside

>  <iupac_name>  (671) 
methyl (1~{S},4~{a}~{S},7~{R},7~{a}~{S})-7-hydroxy-7-(hydroxymethyl)-1-[(2~{S},3~{R},4~{S},5~{S},6~{R})-3,4,5-trihydroxy-6-(hydroxymethyl)tetrahydropyran-2-yl]oxy-4~{a},7~{a}-dihydro-1~{H}-cyclopenta[c]pyran-4-carboxylate

>  <annotation_level>  (671) 
5

>  <total_atom_count>  (671) 
52

>  <heavy_atom_count>  (671) 
28

>  <molecular_weight>  (671) 
404.37

>  <exact_molecular_weight>  (671) 
404.13186

>  <molecular_formula>  (671) 
C17H24O11

>  <alogp>  (671) 
-3.26

>  <topological_polar_surface_area>  (671) 
175.37

>  <rotatable_bond_count>  (671) 
5

>  <hydrogen_bond_acceptors>  (671) 
11

>  <hydrogen_bond_donors>  (671) 
6

>  <hydrogen_bond_acceptors_lipinski>  (671) 
11

>  <hydrogen_bond_donors_lipinski>  (671) 
6

>  <lipinski_rule_of_five_violations>  (671) 
2

>  <aromatic_rings_count>  (671) 
0

>  <qed_drug_likeliness>  (671) 
0.20

>  <formal_charge>  (671) 
0

>  <fractioncsp3>  (671) 
0.71

>  <number_of_minimal_rings>  (671) 
3

>  <van_der_walls_volume>  (671) 
336.56

>  <contains_sugar>  (671) 
True

>  <contains_ring_sugars>  (671) 
True

>  <contains_linear_sugars>  (671) 
False

>  <murcko_framework>  (671) 
O1C=CC2C=CCC2C1OC3OCCCC3

>  <np_likeness>  (671) 
2.73

>  <chemical_class>  (671) 
Prenol lipids

>  <chemical_sub_class>  (671) 
Terpene glycosides

>  <chemical_super_class>  (671) 
Lipids and lipid-like molecules

>  <direct_parent_classification>  (671) 
Iridoid O-glycosides

>  <np_classifier_pathway>  (671) 
Terpenoids

>  <np_classifier_superclass>  (671) 
Monoterpenoids

>  <np_classifier_class>  (671) 
Iridoids monoterpenoids

>  <np_classifier_is_glycoside>  (671) 
True

>  <organisms>  (671) 
Anthocercis frondosa|Arbutus unedo|Astroloma humifusum|Catunaregam spinosa|Elliottia paniculata|Epacris impressa|Fouquieria diguetii|Fouquieria splendens|Galium mollugo|Gardenia jasminoides|Leucopogon virgatus|Oldenlandia herbacea var. herbacea|Phlomoides tuberosa|Randia spinosa|Rhododendron latoucheae|Stigmaphyllon convolvulifolium|Stigmaphyllon palmatum|Tocoyena formosa|Tripetaleia paniculata|Triphyophyllum peltatum

>  <collections>  (671) 
Australian natural products|CMAUP (cCollective molecular activities of useful plants)|ChemSpider NPs|Latin America dataset|NPASS|NuBBEDB|Super Natural II|WikiData Natural Products|ZINC NP

>  <dois>  (671) 
10.1002/BMC.3223|10.1002/HLCA.201000129|10.1002/JLAC.197619760716|10.1016/0031-9422(93)85522-S|10.1016/0031-9422(93)85522-s|10.1016/S0031-9422(00)80082-5|10.1016/S0031-9422(03)00109-2|10.1016/S0031-9422(82)85028-0|10.1016/S0367-326X(00)00316-6|10.1021/NP0580816|10.1055/S-2006-962681|10.1055/S-2007-969406|10.1248/CPB.51.1417|10.1248/YAKUSHI1947.94.12_1634

>  <synonyms>  (671) 
54712-59-3|CHEMBL485798|Galioside|Monotropein methyl ester|galioside

>  <cas>  (671) 
54712-59-3

$$$$

     RDKit          2D

 38 42  0  0  0  0  0  0  0  0999 V2000
   -5.3818    4.6213    0.0000 C   0  0  0  0  0  0  0  0  0  0  0  0
   -4.1633    3.7465    0.0000 O   0  0  0  0  0  0  0  0  0  0  0  0
   -4.3116    2.2539    0.0000 C   0  0  0  0  0  0  0  0  0  0  0  0
   -5.6785    1.6360    0.0000 O   0  0  0  0  0  0  0  0  0  0  0  0
   -3.0932    1.3791    0.0000 C   0  0  0  0  0  0  0  0  0  0  0  0
   -3.2415   -0.1136    0.0000 C   0  0  0  0  0  0  0  0  0  0  0  0
   -4.6084   -0.7314    0.0000 C   0  0  0  0  0  0  0  0  0  0  0  0
   -4.9795    0.7220    0.0000 C   0  0  0  0  0  0  0  0  0  0  0  0
   -6.1041   -0.8445    0.0000 C   0  0  0  0  0  0  0  0  0  0  0  0
   -4.7568   -2.2241    0.0000 C   0  0  0  0  0  0  0  0  0  0  0  0
   -6.1236   -2.8419    0.0000 O   0  0  0  0  0  0  0  0  0  0  0  0
   -3.5383   -3.0989    0.0000 C   0  0  0  0  0  0  0  0  0  0  0  0
   -2.1714   -2.4810    0.0000 C   0  0  0  0  0  0  0  0  0  0  0  0
   -0.7977   -3.0834    0.0000 O   0  0  0  0  0  0  0  0  0  0  0  0
    0.1997   -1.9630    0.0000 C   0  0  0  0  0  0  0  0  0  0  0  0
    0.8175   -3.3299    0.0000 C   0  0  0  0  0  0  0  0  0  0  0  0
   -0.5576   -0.6683    0.0000 C   0  0  0  0  0  0  0  0  0  0  0  0
    0.1850    0.6350    0.0000 C   0  0  0  0  0  0  0  0  0  0  0  0
    1.6850    0.6435    0.0000 C   0  0  0  0  0  0  0  0  0  0  0  0
    2.4277    1.9467    0.0000 O   0  0  0  0  0  0  0  0  0  0  0  0
    1.6704    3.2415    0.0000 C   0  0  0  0  0  0  0  0  0  0  0  0
    2.4130    4.5447    0.0000 C   0  0  0  0  0  0  0  0  0  0  0  0
    0.1704    3.2330    0.0000 O   0  0  0  0  0  0  0  0  0  0  0  0
    2.4423   -0.6513    0.0000 C   0  0  0  0  0  0  0  0  0  0  0  0
    3.1850    0.6519    0.0000 C   0  0  0  0  0  0  0  0  0  0  0  0
    1.6997   -1.9546    0.0000 C   0  0  0  0  0  0  0  0  0  0  0  0
    2.4570   -3.2494    0.0000 C   0  0  0  0  0  0  0  0  0  0  0  0
    3.9570   -3.2409    0.0000 C   0  0  0  0  0  0  0  0  0  0  0  0
    4.7143   -4.5357    0.0000 O   0  0  0  0  0  0  0  0  0  0  0  0
    4.6996   -1.9376    0.0000 O   0  0  0  0  0  0  0  0  0  0  0  0
    3.9423   -0.6429    0.0000 C   0  0  0  0  0  0  0  0  0  0  0  0
    4.6850    0.6604    0.0000 C   0  0  0  0  0  0  0  0  0  0  0  0
    4.0671    2.0272    0.0000 C   0  0  0  0  0  0  0  0  0  0  0  0
    5.1762    3.0372    0.0000 O   0  0  0  0  0  0  0  0  0  0  0  0
    6.4794    2.2946    0.0000 C   0  0  0  0  0  0  0  0  0  0  0  0
    6.1759    0.8256    0.0000 C   0  0  0  0  0  0  0  0  0  0  0  0
   -2.0230   -0.9884    0.0000 C   0  0  0  0  0  0  0  0  0  0  0  0
   -1.7195    0.4806    0.0000 C   0  0  0  0  0  0  0  0  0  0  0  0
  1  2  1  0
  2  3  1  0
  3  4  2  0
  3  5  1  0
  6  5  1  6
  6  7  1  0
  7  8  1  0
  7  9  1  0
  7 10  1  0
 10 11  2  0
 10 12  1  0
 12 13  2  0
 13 14  1  0
 14 15  1  0
 15 16  1  6
 15 17  1  0
 17 18  2  0
 18 19  1  0
 19 20  1  6
 20 21  1  0
 21 22  1  0
 21 23  2  0
 19 24  1  0
 24 25  1  6
 24 26  1  0
 26 27  2  0
 27 28  1  0
 28 29  2  0
 28 30  1  0
 30 31  1  0
 31 32  1  6
 32 33  2  0
 33 34  1  0
 34 35  1  0
 35 36  2  0
 17 37  1  0
 37 38  1  6
 37  6  1  0
 37 13  1  0
 26 15  1  0
 36 32  1  0
 31 24  1  0
M  END
>  <identifier>  (672) 
CNP0080499.1

>  <canonical_smiles>  (672) 
COC(=O)C[C@H]1C(C)(C)C(=O)C=C2O[C@@]3(C)C(=C[C@H](OC(C)=O)[C@]4(C)C3=CC(=O)O[C@H]4C3=COC=C3)[C@@]21C

>  <standard_inchi>  (672) 
InChI=1S/C29H32O9/c1-15(30)36-21-10-18-27(4)17(11-23(32)34-7)26(2,3)20(31)13-22(27)38-29(18,6)19-12-24(33)37-25(28(19,21)5)16-8-9-35-14-16/h8-10,12-14,17,21,25H,11H2,1-7H3/t17-,21-,25-,27-,28-,29-/m0/s1

>  <standard_inchi_key>  (672) 
QYTJSRHOAZFDIM-FVIWNBATSA-N

>  <name>  (672) 
nan

>  <iupac_name>  (672) 
methyl 2-[(4~{S},4~{a}~{S},5~{S},6~{b}~{S},7~{R},11~{a}~{R})-5-acetoxy-4-(3-furyl)-4~{a},6~{b},8,8,11~{a}-pentamethyl-2,9-dioxo-5,7-dihydro-4~{H}-benzofuro[2,3-f]isochromen-7-yl]acetate

>  <annotation_level>  (672) 
4

>  <total_atom_count>  (672) 
70

>  <heavy_atom_count>  (672) 
38

>  <molecular_weight>  (672) 
524.57

>  <exact_molecular_weight>  (672) 
524.20463

>  <molecular_formula>  (672) 
C29H32O9

>  <alogp>  (672) 
4.15

>  <topological_polar_surface_area>  (672) 
118.34

>  <rotatable_bond_count>  (672) 
4

>  <hydrogen_bond_acceptors>  (672) 
9

>  <hydrogen_bond_donors>  (672) 
0

>  <hydrogen_bond_acceptors_lipinski>  (672) 
9

>  <hydrogen_bond_donors_lipinski>  (672) 
0

>  <lipinski_rule_of_five_violations>  (672) 
1

>  <aromatic_rings_count>  (672) 
1

>  <qed_drug_likeliness>  (672) 
0.33

>  <formal_charge>  (672) 
0

>  <fractioncsp3>  (672) 
0.52

>  <number_of_minimal_rings>  (672) 
5

>  <van_der_walls_volume>  (672) 
nan

>  <contains_sugar>  (672) 
False

>  <contains_ring_sugars>  (672) 
False

>  <contains_linear_sugars>  (672) 
False

>  <murcko_framework>  (672) 
o1ccc(c1)C2OCC=C3C4OC5=CCCCC5C4=CCC32

>  <np_likeness>  (672) 
2.23

>  <chemical_class>  (672) 
Carboxylic acids and derivatives

>  <chemical_sub_class>  (672) 
Tricarboxylic acids and derivatives

>  <chemical_super_class>  (672) 
Organic acids and derivatives

>  <direct_parent_classification>  (672) 
Tricarboxylic acids and derivatives

>  <np_classifier_pathway>  (672) 
Terpenoids

>  <np_classifier_superclass>  (672) 
Triterpenoids

>  <np_classifier_class>  (672) 
Limonoids

>  <np_classifier_is_glycoside>  (672) 
False

>  <organisms>  (672) 
Hortia oreadica

>  <collections>  (672) 
Latin America dataset|NuBBEDB|WikiData Natural Products

>  <dois>  (672) 
10.1016/J.PHYTOCHEM.2011.12.016|10.1016/j.phytochem.2011.12.016

>  <synonyms>  (672) 
911-dehydro-12\u221a\u00e9\u00ac\u00b1-acetoxyhortiolide A

>  <cas>  (672) 
nan

$$$$

     RDKit          2D

 38 42  0  0  0  0  0  0  0  0999 V2000
    4.9432    5.0274    0.0000 C   0  0  0  0  0  0  0  0  0  0  0  0
    4.0174    3.8473    0.0000 C   0  0  0  0  0  0  0  0  0  0  0  0
    2.5324    4.0589    0.0000 O   0  0  0  0  0  0  0  0  0  0  0  0
    4.5765    2.4554    0.0000 O   0  0  0  0  0  0  0  0  0  0  0  0
    3.6507    1.2752    0.0000 C   0  0  0  0  0  0  0  0  0  0  0  0
    2.1657    1.4869    0.0000 C   0  0  0  0  0  0  0  0  0  0  0  0
    1.2399    0.3067    0.0000 C   0  0  0  0  0  0  0  0  0  0  0  0
    2.7249    0.0950    0.0000 C   0  0  0  0  0  0  0  0  0  0  0  0
    1.7991   -1.0852    0.0000 C   0  0  0  0  0  0  0  0  0  0  0  0
    0.8732   -2.2654    0.0000 C   0  0  0  0  0  0  0  0  0  0  0  0
   -0.6117   -2.0537    0.0000 C   0  0  0  0  0  0  0  0  0  0  0  0
   -1.1709   -0.6618    0.0000 C   0  0  0  0  0  0  0  0  0  0  0  0
   -2.6559   -0.4501    0.0000 C   0  0  0  0  0  0  0  0  0  0  0  0
   -2.0967   -1.8420    0.0000 C   0  0  0  0  0  0  0  0  0  0  0  0
   -3.5817   -1.6303    0.0000 C   0  0  0  0  0  0  0  0  0  0  0  0
   -5.0667   -1.4186    0.0000 C   0  0  0  0  0  0  0  0  0  0  0  0
   -5.6259   -0.0268    0.0000 C   0  0  0  0  0  0  0  0  0  0  0  0
   -7.1109    0.1849    0.0000 O   0  0  0  0  0  0  0  0  0  0  0  0
   -8.0367   -0.9953    0.0000 C   0  0  0  0  0  0  0  0  0  0  0  0
   -9.5217   -0.7836    0.0000 C   0  0  0  0  0  0  0  0  0  0  0  0
   -7.4775   -2.3871    0.0000 O   0  0  0  0  0  0  0  0  0  0  0  0
   -4.7000    1.1534    0.0000 C   0  0  0  0  0  0  0  0  0  0  0  0
   -4.2337    2.5791    0.0000 C   0  0  0  0  0  0  0  0  0  0  0  0
   -6.0231    1.8603    0.0000 C   0  0  0  0  0  0  0  0  0  0  0  0
   -3.2151    0.9417    0.0000 C   0  0  0  0  0  0  0  0  0  0  0  0
   -2.2892    2.1219    0.0000 C   0  0  0  0  0  0  0  0  0  0  0  0
   -0.8043    1.9103    0.0000 C   0  0  0  0  0  0  0  0  0  0  0  0
   -0.2451    0.5184    0.0000 C   0  0  0  0  0  0  0  0  0  0  0  0
    0.6807    1.6986    0.0000 C   0  0  0  0  0  0  0  0  0  0  0  0
    3.2841   -1.2969    0.0000 C   0  0  0  0  0  0  0  0  0  0  0  0
    3.8432   -2.6888    0.0000 C   0  0  0  0  0  0  0  0  0  0  0  0
    5.3282   -2.9005    0.0000 C   0  0  0  0  0  0  0  0  0  0  0  0
    6.6512   -3.6073    0.0000 C   0  0  0  0  0  0  0  0  0  0  0  0
    4.8619   -4.3261    0.0000 C   0  0  0  0  0  0  0  0  0  0  0  0
    6.2540   -1.7203    0.0000 C   0  0  0  0  0  0  0  0  0  0  0  0
    5.6949   -0.3284    0.0000 C   0  0  0  0  0  0  0  0  0  0  0  0
    4.2099   -0.1167    0.0000 C   0  0  0  0  0  0  0  0  0  0  0  0
    5.1357    1.0635    0.0000 C   0  0  0  0  0  0  0  0  0  0  0  0
  1  2  1  0
  2  3  2  0
  2  4  1  0
  5  4  1  6
  5  6  1  0
  6  7  1  0
  7  8  1  1
  7  9  1  0
  9 10  2  0
 10 11  1  0
 11 12  1  0
 12 13  1  0
 13 14  1  6
 13 15  1  0
 15 16  1  0
 16 17  1  0
 17 18  1  1
 18 19  1  0
 19 20  1  0
 19 21  2  0
 17 22  1  0
 22 23  1  0
 22 24  1  0
 22 25  1  0
 25 26  1  0
 26 27  1  0
 27 28  1  0
 28 29  1  6
  9 30  1  0
 30 31  1  0
 31 32  1  0
 32 33  1  0
 32 34  1  0
 32 35  1  0
 35 36  1  0
 36 37  1  0
 37 38  1  6
 37  5  1  0
 28  7  1  0
 37 30  1  0
 28 12  1  0
 25 13  1  0
M  END
>  <identifier>  (673) 
CNP0080562.1

>  <canonical_smiles>  (673) 
CC(=O)O[C@H]1C[C@]2(C)C(=CCC3[C@@]4(C)CC[C@@H](OC(C)=O)C(C)(C)C4CC[C@]32C)C2CC(C)(C)CC[C@@]21C

>  <standard_inchi>  (673) 
InChI=1S/C34H54O4/c1-21(35)37-27-14-15-32(8)25(30(27,5)6)13-16-33(9)26(32)12-11-23-24-19-29(3,4)17-18-31(24,7)28(38-22(2)36)20-34(23,33)10/h11,24-28H,12-20H2,1-10H3/t24?,25?,26?,27-,28+,31+,32+,33-,34-/m1/s1

>  <standard_inchi_key>  (673) 
XYMUPRFFHNVZAF-VILPKJOISA-N

>  <name>  (673) 
nan

>  <iupac_name>  (673) 
[(3~{R},6~{a}~{R},6~{b}~{S},8~{S},8~{a}~{S},14~{b}~{R})-8-acetoxy-4,4,6~{a},6~{b},8~{a},11,11,14~{b}-octamethyl-1,2,3,4~{a},5,6,7,8,9,10,12,12~{a},14,14~{a}-tetradecahydropicen-3-yl] acetate

>  <annotation_level>  (673) 
4

>  <total_atom_count>  (673) 
92

>  <heavy_atom_count>  (673) 
38

>  <molecular_weight>  (673) 
526.8

>  <exact_molecular_weight>  (673) 
526.40221

>  <molecular_formula>  (673) 
C34H54O4

>  <alogp>  (673) 
8.28

>  <topological_polar_surface_area>  (673) 
52.60

>  <rotatable_bond_count>  (673) 
2

>  <hydrogen_bond_acceptors>  (673) 
4

>  <hydrogen_bond_donors>  (673) 
0

>  <hydrogen_bond_acceptors_lipinski>  (673) 
4

>  <hydrogen_bond_donors_lipinski>  (673) 
0

>  <lipinski_rule_of_five_violations>  (673) 
2

>  <aromatic_rings_count>  (673) 
0

>  <qed_drug_likeliness>  (673) 
0.27

>  <formal_charge>  (673) 
0

>  <fractioncsp3>  (673) 
0.88

>  <number_of_minimal_rings>  (673) 
5

>  <van_der_walls_volume>  (673) 
nan

>  <contains_sugar>  (673) 
False

>  <contains_ring_sugars>  (673) 
False

>  <contains_linear_sugars>  (673) 
False

>  <murcko_framework>  (673) 
C1=C2C3CCCCC3CCC2C4CCC5CCCCC5C4C1

>  <np_likeness>  (673) 
2.81

>  <chemical_class>  (673) 
Prenol lipids

>  <chemical_sub_class>  (673) 
Triterpenoids

>  <chemical_super_class>  (673) 
Lipids and lipid-like molecules

>  <direct_parent_classification>  (673) 
Oleanane triterpenoids

>  <np_classifier_pathway>  (673) 
Terpenoids

>  <np_classifier_superclass>  (673) 
Triterpenoids

>  <np_classifier_class>  (673) 
Oleanane triterpenoids

>  <np_classifier_is_glycoside>  (673) 
False

>  <organisms>  (673) 
Trattinnickia burserifolia

>  <collections>  (673) 
Latin America dataset|NuBBEDB|WikiData Natural Products

>  <dois>  (673) 
10.1590/S0103-50532004000300008

>  <synonyms>  (673) 
3\u221a\u00e9\u00ac\u00b116\u221a\u00e9\u00ac\u2264-diacetoxyolean-12-ene

>  <cas>  (673) 
nan

$$$$

     RDKit          2D

 33 36  0  0  0  0  0  0  0  0999 V2000
    7.3655   -3.8347    0.0000 C   0  0  0  0  0  0  0  0  0  0  0  0
    7.0516   -2.3679    0.0000 C   0  0  0  0  0  0  0  0  0  0  0  0
    8.1650   -1.3626    0.0000 C   0  0  0  0  0  0  0  0  0  0  0  0
    5.6244   -1.9063    0.0000 C   0  0  0  0  0  0  0  0  0  0  0  0
    5.3105   -0.4395    0.0000 C   0  0  0  0  0  0  0  0  0  0  0  0
    6.4238    0.5657    0.0000 O   0  0  0  0  0  0  0  0  0  0  0  0
    3.8833    0.0220    0.0000 C   0  0  0  0  0  0  0  0  0  0  0  0
    2.7700   -0.9832    0.0000 O   0  0  0  0  0  0  0  0  0  0  0  0
    3.5694    1.4888    0.0000 C   0  0  0  0  0  0  0  0  0  0  0  0
    4.6827    2.4940    0.0000 C   0  0  0  0  0  0  0  0  0  0  0  0
    2.1422    1.9504    0.0000 C   0  0  0  0  0  0  0  0  0  0  0  0
    1.6767    3.3763    0.0000 C   0  0  0  0  0  0  0  0  0  0  0  0
    0.1767    3.3742    0.0000 C   0  0  0  0  0  0  0  0  0  0  0  0
   -0.2849    1.9470    0.0000 C   0  0  0  0  0  0  0  0  0  0  0  0
   -1.4010    2.9492    0.0000 C   0  0  0  0  0  0  0  0  0  0  0  0
   -1.6543    1.3350    0.0000 C   0  0  0  0  0  0  0  0  0  0  0  0
   -2.8691    2.2150    0.0000 C   0  0  0  0  0  0  0  0  0  0  0  0
   -4.2386    1.6030    0.0000 C   0  0  0  0  0  0  0  0  0  0  0  0
   -4.3933    0.1110    0.0000 C   0  0  0  0  0  0  0  0  0  0  0  0
   -5.7628   -0.5010    0.0000 C   0  0  0  0  0  0  0  0  0  0  0  0
   -7.2590   -0.6077    0.0000 C   0  0  0  0  0  0  0  0  0  0  0  0
   -6.1277    0.9540    0.0000 C   0  0  0  0  0  0  0  0  0  0  0  0
   -5.9175   -1.9930    0.0000 C   0  0  0  0  0  0  0  0  0  0  0  0
   -7.2870   -2.6050    0.0000 O   0  0  0  0  0  0  0  0  0  0  0  0
   -4.7028   -2.8730    0.0000 C   0  0  0  0  0  0  0  0  0  0  0  0
   -3.3333   -2.2610    0.0000 C   0  0  0  0  0  0  0  0  0  0  0  0
   -3.1786   -0.7690    0.0000 C   0  0  0  0  0  0  0  0  0  0  0  0
   -1.9638   -1.6490    0.0000 C   0  0  0  0  0  0  0  0  0  0  0  0
   -1.8091   -0.1570    0.0000 C   0  0  0  0  0  0  0  0  0  0  0  0
   -0.5943   -1.0370    0.0000 C   0  0  0  0  0  0  0  0  0  0  0  0
    0.7751   -0.4250    0.0000 C   0  0  0  0  0  0  0  0  0  0  0  0
    0.9299    1.0670    0.0000 C   0  0  0  0  0  0  0  0  0  0  0  0
    2.2299    0.3188    0.0000 C   0  0  0  0  0  0  0  0  0  0  0  0
  1  2  1  0
  2  3  1  0
  2  4  2  0
  4  5  1  0
  5  6  2  0
  5  7  1  0
  7  8  1  0
  7  9  1  0
  9 10  1  6
  9 11  1  0
 11 12  1  1
 12 13  1  0
 13 14  1  0
 14 15  1  6
 14 16  1  0
 16 17  2  0
 17 18  1  0
 19 18  1  6
 19 20  1  0
 20 21  1  0
 20 22  1  0
 20 23  1  0
 23 24  2  0
 23 25  1  0
 25 26  1  0
 26 27  1  0
 27 28  1  6
 27 29  1  0
 29 30  1  6
 30 31  1  0
 31 32  1  0
 32 33  1  1
 32 11  1  0
 32 14  1  0
 29 16  1  0
 27 19  1  0
M  END
>  <identifier>  (674) 
CNP0198952.1

>  <canonical_smiles>  (674) 
CC(C)=CC(=O)C(O)[C@@H](C)[C@@H]1CC[C@]2(C)C3=CC[C@H]4C(C)(C)C(=O)CC[C@]4(C)[C@H]3CC[C@@]12C

>  <standard_inchi>  (674) 
InChI=1S/C30H46O3/c1-18(2)17-23(31)26(33)19(3)20-11-15-30(8)22-9-10-24-27(4,5)25(32)13-14-28(24,6)21(22)12-16-29(20,30)7/h9,17,19-21,24,26,33H,10-16H2,1-8H3/t19-,20-,21-,24-,26?,28+,29-,30+/m0/s1

>  <standard_inchi_key>  (674) 
MCDMXWYRSDKLQF-CQGADXMRSA-N

>  <name>  (674) 
nan

>  <iupac_name>  (674) 
(5~{R},9~{R},10~{R},13~{S},14~{S},17~{S})-17-[(1~{S})-2-hydroxy-1,5-dimethyl-3-oxo-hex-4-enyl]-4,4,10,13,14-pentamethyl-1,2,5,6,9,11,12,15,16,17-decahydrocyclopenta[a]phenanthren-3-one

>  <annotation_level>  (674) 
4

>  <total_atom_count>  (674) 
79

>  <heavy_atom_count>  (674) 
33

>  <molecular_weight>  (674) 
454.7

>  <exact_molecular_weight>  (674) 
454.3447

>  <molecular_formula>  (674) 
C30H46O3

>  <alogp>  (674) 
6.69

>  <topological_polar_surface_area>  (674) 
54.37

>  <rotatable_bond_count>  (674) 
4

>  <hydrogen_bond_acceptors>  (674) 
3

>  <hydrogen_bond_donors>  (674) 
1

>  <hydrogen_bond_acceptors_lipinski>  (674) 
3

>  <hydrogen_bond_donors_lipinski>  (674) 
1

>  <lipinski_rule_of_five_violations>  (674) 
1

>  <aromatic_rings_count>  (674) 
0

>  <qed_drug_likeliness>  (674) 
0.38

>  <formal_charge>  (674) 
0

>  <fractioncsp3>  (674) 
0.80

>  <number_of_minimal_rings>  (674) 
4

>  <van_der_walls_volume>  (674) 
nan

>  <contains_sugar>  (674) 
False

>  <contains_ring_sugars>  (674) 
False

>  <contains_linear_sugars>  (674) 
False

>  <murcko_framework>  (674) 
C1=C2C3CCCC3CCC2C4CCCCC4C1

>  <np_likeness>  (674) 
3.29

>  <chemical_class>  (674) 
Steroids and steroid derivatives

>  <chemical_sub_class>  (674) 
Bile acids, alcohols and derivatives

>  <chemical_super_class>  (674) 
Lipids and lipid-like molecules

>  <direct_parent_classification>  (674) 
Bile acids, alcohols and derivatives

>  <np_classifier_pathway>  (674) 
Terpenoids

>  <np_classifier_superclass>  (674) 
Triterpenoids

>  <np_classifier_class>  (674) 
Lanostane, Tirucallane and Euphane triterpenoids

>  <np_classifier_is_glycoside>  (674) 
False

>  <organisms>  (674) 
Cedrela odorata

>  <collections>  (674) 
Latin America dataset|NuBBEDB|WikiData Natural Products

>  <dois>  (674) 
10.2174/187152010794728620

>  <synonyms>  (674) 
22-hydroxytirucalla-724-diene-23-dione

>  <cas>  (674) 
nan

$$$$

     RDKit          2D

 15 16  0  0  0  0  0  0  0  0999 V2000
   -4.6776   -1.8330    0.0000 C   0  0  0  0  0  0  0  0  0  0  0  0
   -3.1903   -2.0278    0.0000 O   0  0  0  0  0  0  0  0  0  0  0  0
   -2.2780   -0.8371    0.0000 C   0  0  0  0  0  0  0  0  0  0  0  0
   -2.8530    0.5483    0.0000 C   0  0  0  0  0  0  0  0  0  0  0  0
   -1.9406    1.7389    0.0000 C   0  0  0  0  0  0  0  0  0  0  0  0
   -2.5156    3.1244    0.0000 O   0  0  0  0  0  0  0  0  0  0  0  0
   -0.4533    1.5442    0.0000 O   0  0  0  0  0  0  0  0  0  0  0  0
    0.1216    0.1588    0.0000 C   0  0  0  0  0  0  0  0  0  0  0  0
    1.6089   -0.0360    0.0000 N   0  0  0  0  0  0  0  0  0  0  0  0
    2.1839   -1.4214    0.0000 C   0  0  0  0  0  0  0  0  0  0  0  0
    3.6712   -1.6162    0.0000 C   0  0  0  0  0  0  0  0  0  0  0  0
    4.5835   -0.4255    0.0000 C   0  0  0  0  0  0  0  0  0  0  0  0
    4.0086    0.9599    0.0000 C   0  0  0  0  0  0  0  0  0  0  0  0
    2.5213    1.1547    0.0000 C   0  0  0  0  0  0  0  0  0  0  0  0
   -0.7907   -1.0319    0.0000 C   0  0  0  0  0  0  0  0  0  0  0  0
  1  2  1  0
  2  3  1  0
  3  4  2  0
  4  5  1  0
  5  6  2  0
  5  7  1  0
  7  8  1  0
  8  9  1  0
  9 10  1  0
 10 11  1  0
 11 12  1  0
 12 13  1  0
 13 14  1  0
  8 15  2  0
 15  3  1  0
 14  9  1  0
M  END
>  <identifier>  (675) 
CNP0080647.0

>  <canonical_smiles>  (675) 
COC1=CC(=O)OC(N2CCCCC2)=C1

>  <standard_inchi>  (675) 
InChI=1S/C11H15NO3/c1-14-9-7-10(15-11(13)8-9)12-5-3-2-4-6-12/h7-8H,2-6H2,1H3

>  <standard_inchi_key>  (675) 
FBNGPXXWIZPFHE-UHFFFAOYSA-N

>  <name>  (675) 
nan

>  <iupac_name>  (675) 
4-methoxy-6-(1-piperidyl)pyran-2-one

>  <annotation_level>  (675) 
3

>  <total_atom_count>  (675) 
30

>  <heavy_atom_count>  (675) 
15

>  <molecular_weight>  (675) 
209.24

>  <exact_molecular_weight>  (675) 
209.10519

>  <molecular_formula>  (675) 
C11H15NO3

>  <alogp>  (675) 
1.64

>  <topological_polar_surface_area>  (675) 
42.68

>  <rotatable_bond_count>  (675) 
2

>  <hydrogen_bond_acceptors>  (675) 
4

>  <hydrogen_bond_donors>  (675) 
0

>  <hydrogen_bond_acceptors_lipinski>  (675) 
4

>  <hydrogen_bond_donors_lipinski>  (675) 
0

>  <lipinski_rule_of_five_violations>  (675) 
0

>  <aromatic_rings_count>  (675) 
1

>  <qed_drug_likeliness>  (675) 
0.74

>  <formal_charge>  (675) 
0

>  <fractioncsp3>  (675) 
0.55

>  <number_of_minimal_rings>  (675) 
2

>  <van_der_walls_volume>  (675) 
nan

>  <contains_sugar>  (675) 
False

>  <contains_ring_sugars>  (675) 
False

>  <contains_linear_sugars>  (675) 
False

>  <murcko_framework>  (675) 
O1C(=CC=CC1)N2CCCCC2

>  <np_likeness>  (675) 
-0.16

>  <chemical_class>  (675) 
Organonitrogen compounds

>  <chemical_sub_class>  (675) 
Amines

>  <chemical_super_class>  (675) 
Organic nitrogen compounds

>  <direct_parent_classification>  (675) 
Dialkylarylamines

>  <np_classifier_pathway>  (675) 
nan

>  <np_classifier_superclass>  (675) 
nan

>  <np_classifier_class>  (675) 
nan

>  <np_classifier_is_glycoside>  (675) 
False

>  <organisms>  (675) 
Aniba rosaeodora

>  <collections>  (675) 
Latin America dataset|NuBBEDB|WikiData Natural Products|ZINC NP

>  <dois>  (675) 
10.1016/S0031-9422(00)89351-6

>  <synonyms>  (675) 
nan

>  <cas>  (675) 
nan

$$$$

     RDKit          2D

 31 34  0  0  0  0  0  0  0  0999 V2000
    7.1268   -2.0420    0.0000 C   0  0  0  0  0  0  0  0  0  0  0  0
    5.6953   -1.5939    0.0000 C   0  0  0  0  0  0  0  0  0  0  0  0
    5.3676   -0.1301    0.0000 C   0  0  0  0  0  0  0  0  0  0  0  0
    3.9361    0.3180    0.0000 C   0  0  0  0  0  0  0  0  0  0  0  0
    2.8323   -0.6977    0.0000 O   0  0  0  0  0  0  0  0  0  0  0  0
    3.6084    1.7817    0.0000 C   0  0  0  0  0  0  0  0  0  0  0  0
    4.7122    2.7974    0.0000 C   0  0  0  0  0  0  0  0  0  0  0  0
    2.1769    2.2298    0.0000 C   0  0  0  0  0  0  0  0  0  0  0  0
    1.6980    3.6513    0.0000 C   0  0  0  0  0  0  0  0  0  0  0  0
    0.1981    3.6351    0.0000 C   0  0  0  0  0  0  0  0  0  0  0  0
   -0.2500    2.2036    0.0000 C   0  0  0  0  0  0  0  0  0  0  0  0
   -1.6137    1.5788    0.0000 C   0  0  0  0  0  0  0  0  0  0  0  0
   -2.8366    2.4473    0.0000 C   0  0  0  0  0  0  0  0  0  0  0  0
   -4.2003    1.8224    0.0000 C   0  0  0  0  0  0  0  0  0  0  0  0
   -4.3410    0.3290    0.0000 C   0  0  0  0  0  0  0  0  0  0  0  0
   -5.7046   -0.2958    0.0000 C   0  0  0  0  0  0  0  0  0  0  0  0
   -6.9276    0.5727    0.0000 O   0  0  0  0  0  0  0  0  0  0  0  0
   -5.8453   -1.7892    0.0000 C   0  0  0  0  0  0  0  0  0  0  0  0
   -7.2089   -2.4141    0.0000 O   0  0  0  0  0  0  0  0  0  0  0  0
   -4.6223   -2.6577    0.0000 C   0  0  0  0  0  0  0  0  0  0  0  0
   -3.2587   -2.0329    0.0000 C   0  0  0  0  0  0  0  0  0  0  0  0
   -3.1180   -0.5395    0.0000 C   0  0  0  0  0  0  0  0  0  0  0  0
   -1.8950   -1.4080    0.0000 C   0  0  0  0  0  0  0  0  0  0  0  0
   -1.7543    0.0854    0.0000 C   0  0  0  0  0  0  0  0  0  0  0  0
   -0.5314   -0.7832    0.0000 C   0  0  0  0  0  0  0  0  0  0  0  0
    0.8323   -0.1583    0.0000 C   0  0  0  0  0  0  0  0  0  0  0  0
    0.9730    1.3351    0.0000 C   0  0  0  0  0  0  0  0  0  0  0  0
    2.2800    0.5992    0.0000 C   0  0  0  0  0  0  0  0  0  0  0  0
    4.5915   -2.6096    0.0000 C   0  0  0  0  0  0  0  0  0  0  0  0
    4.9192   -4.0733    0.0000 C   0  0  0  0  0  0  0  0  0  0  0  0
    3.1600   -2.1615    0.0000 C   0  0  0  0  0  0  0  0  0  0  0  0
  1  2  2  0
  2  3  1  0
  3  4  1  0
  4  5  1  0
  4  6  1  0
  6  7  1  0
  6  8  1  0
  8  9  1  0
  9 10  1  0
 10 11  1  0
 11 12  1  0
 12 13  1  0
 13 14  1  0
 14 15  2  0
 15 16  1  0
 16 17  1  6
 16 18  1  0
 18 19  1  6
 18 20  1  0
 20 21  1  0
 21 22  1  0
 22 23  1  6
 22 24  1  0
 24 25  1  0
 25 26  1  0
 26 27  1  0
 27 28  1  6
  2 29  1  0
 29 30  1  0
 29 31  1  0
 27  8  1  0
 27 11  1  0
 24 12  1  0
 22 15  1  0
M  END
>  <identifier>  (676) 
CNP0236328.1

>  <canonical_smiles>  (676) 
C=C(CC(O)C(C)C1CCC2C3CC=C4[C@@H](O)[C@@H](O)CC[C@]4(C)C3CC[C@]12C)C(C)C

>  <standard_inchi>  (676) 
InChI=1S/C28H46O3/c1-16(2)17(3)15-25(30)18(4)20-9-10-21-19-7-8-23-26(31)24(29)12-14-28(23,6)22(19)11-13-27(20,21)5/h8,16,18-22,24-26,29-31H,3,7,9-15H2,1-2,4-6H3/t18?,19?,20?,21?,22?,24-,25?,26+,27+,28+/m0/s1

>  <standard_inchi_key>  (676) 
NJBMGUDGYKNMIJ-ACRWALKSSA-N

>  <name>  (676) 
nan

>  <iupac_name>  (676) 
(3~{S},4~{R},10~{R},13~{S})-17-(2-hydroxy-1,5-dimethyl-4-methylene-hexyl)-10,13-dimethyl-2,3,4,7,8,9,11,12,14,15,16,17-dodecahydro-1~{H}-cyclopenta[a]phenanthrene-3,4-diol

>  <annotation_level>  (676) 
4

>  <total_atom_count>  (676) 
77

>  <heavy_atom_count>  (676) 
31

>  <molecular_weight>  (676) 
430.67

>  <exact_molecular_weight>  (676) 
430.3447

>  <molecular_formula>  (676) 
C28H46O3

>  <alogp>  (676) 
5.50

>  <topological_polar_surface_area>  (676) 
60.69

>  <rotatable_bond_count>  (676) 
5

>  <hydrogen_bond_acceptors>  (676) 
3

>  <hydrogen_bond_donors>  (676) 
3

>  <hydrogen_bond_acceptors_lipinski>  (676) 
3

>  <hydrogen_bond_donors_lipinski>  (676) 
3

>  <lipinski_rule_of_five_violations>  (676) 
1

>  <aromatic_rings_count>  (676) 
0

>  <qed_drug_likeliness>  (676) 
0.51

>  <formal_charge>  (676) 
0

>  <fractioncsp3>  (676) 
0.86

>  <number_of_minimal_rings>  (676) 
4

>  <van_der_walls_volume>  (676) 
nan

>  <contains_sugar>  (676) 
False

>  <contains_ring_sugars>  (676) 
False

>  <contains_linear_sugars>  (676) 
False

>  <murcko_framework>  (676) 
C1=C2CCCCC2C3CCC4CCCC4C3C1

>  <np_likeness>  (676) 
3.15

>  <chemical_class>  (676) 
Steroids and steroid derivatives

>  <chemical_sub_class>  (676) 
Bile acids, alcohols and derivatives

>  <chemical_super_class>  (676) 
Lipids and lipid-like molecules

>  <direct_parent_classification>  (676) 
Bile acids, alcohols and derivatives

>  <np_classifier_pathway>  (676) 
Terpenoids

>  <np_classifier_superclass>  (676) 
Steroids

>  <np_classifier_class>  (676) 
Ergostane steroids

>  <np_classifier_is_glycoside>  (676) 
False

>  <organisms>  (676) 
Trichilia pallida

>  <collections>  (676) 
Latin America dataset|NuBBEDB|WikiData Natural Products

>  <dois>  (676) 
10.1590/S1519-566X2008000600013

>  <synonyms>  (676) 
24-methylene-3\u221a\u00e9\u00ac\u22644\u221a\u00e9\u00ac\u226422-trihydroxycholesterol

>  <cas>  (676) 
nan

$$$$

     RDKit          2D

 23 26  0  0  0  0  0  0  0  0999 V2000
    5.9348   -1.1092    0.0000 C   0  0  0  0  0  0  0  0  0  0  0  0
    4.4771   -1.4628    0.0000 C   0  0  0  0  0  0  0  0  0  0  0  0
    5.0784   -2.8370    0.0000 C   0  0  0  0  0  0  0  0  0  0  0  0
    3.2282   -2.2936    0.0000 C   0  0  0  0  0  0  0  0  0  0  0  0
    1.8842   -1.6274    0.0000 C   0  0  0  0  0  0  0  0  0  0  0  0
    1.7892   -0.1304    0.0000 C   0  0  0  0  0  0  0  0  0  0  0  0
    3.0381    0.7004    0.0000 C   0  0  0  0  0  0  0  0  0  0  0  0
    2.9430    2.1974    0.0000 C   0  0  0  0  0  0  0  0  0  0  0  0
    1.5991    2.8636    0.0000 C   0  0  0  0  0  0  0  0  0  0  0  0
    0.3502    2.0328    0.0000 C   0  0  0  0  0  0  0  0  0  0  0  0
    0.4452    0.5358    0.0000 C   0  0  0  0  0  0  0  0  0  0  0  0
   -0.8037   -0.2950    0.0000 O   0  0  0  0  0  0  0  0  0  0  0  0
   -2.1476    0.3711    0.0000 C   0  0  0  0  0  0  0  0  0  0  0  0
   -3.3965   -0.4597    0.0000 C   0  0  0  0  0  0  0  0  0  0  0  0
   -4.7405    0.2065    0.0000 C   0  0  0  0  0  0  0  0  0  0  0  0
   -5.9894   -0.6243    0.0000 C   0  0  0  0  0  0  0  0  0  0  0  0
   -5.8944   -2.1213    0.0000 C   0  0  0  0  0  0  0  0  0  0  0  0
   -4.5504   -2.7875    0.0000 C   0  0  0  0  0  0  0  0  0  0  0  0
   -3.3015   -1.9567    0.0000 C   0  0  0  0  0  0  0  0  0  0  0  0
   -2.2427    1.8681    0.0000 C   0  0  0  0  0  0  0  0  0  0  0  0
   -0.9938    2.6989    0.0000 C   0  0  0  0  0  0  0  0  0  0  0  0
   -1.0888    4.1959    0.0000 O   0  0  0  0  0  0  0  0  0  0  0  0
    4.3820    0.0342    0.0000 O   0  0  0  0  0  0  0  0  0  0  0  0
  1  2  1  0
  2  3  1  0
  2  4  1  0
  4  5  2  0
  5  6  1  0
  6  7  2  0
  7  8  1  0
  8  9  2  0
  9 10  1  0
 10 11  2  0
 11 12  1  0
 12 13  1  0
 13 14  1  0
 14 15  2  0
 15 16  1  0
 16 17  2  0
 17 18  1  0
 18 19  2  0
 13 20  2  0
 20 21  1  0
 21 22  2  0
  7 23  1  0
 23  2  1  0
 11  6  1  0
 19 14  1  0
 21 10  1  0
M  END
>  <identifier>  (677) 
CNP0139870.0

>  <canonical_smiles>  (677) 
CC1(C)C=CC2=C(C=CC3=C2OC(C2=CC=CC=C2)=CC3=O)O1

>  <standard_inchi>  (677) 
InChI=1S/C20H16O3/c1-20(2)11-10-15-17(23-20)9-8-14-16(21)12-18(22-19(14)15)13-6-4-3-5-7-13/h3-12H,1-2H3

>  <standard_inchi_key>  (677) 
RBKWJAHRWPDNPM-UHFFFAOYSA-N

>  <name>  (677) 
64125-32-2

>  <iupac_name>  (677) 
8,8-dimethyl-2-phenyl-pyrano[2,3-f]chromen-4-one

>  <annotation_level>  (677) 
5

>  <total_atom_count>  (677) 
39

>  <heavy_atom_count>  (677) 
23

>  <molecular_weight>  (677) 
304.35

>  <exact_molecular_weight>  (677) 
304.10994

>  <molecular_formula>  (677) 
C20H16O3

>  <alogp>  (677) 
4.64

>  <topological_polar_surface_area>  (677) 
39.44

>  <rotatable_bond_count>  (677) 
1

>  <hydrogen_bond_acceptors>  (677) 
3

>  <hydrogen_bond_donors>  (677) 
0

>  <hydrogen_bond_acceptors_lipinski>  (677) 
3

>  <hydrogen_bond_donors_lipinski>  (677) 
0

>  <lipinski_rule_of_five_violations>  (677) 
0

>  <aromatic_rings_count>  (677) 
3

>  <qed_drug_likeliness>  (677) 
0.66

>  <formal_charge>  (677) 
0

>  <fractioncsp3>  (677) 
0.15

>  <number_of_minimal_rings>  (677) 
4

>  <van_der_walls_volume>  (677) 
271.36

>  <contains_sugar>  (677) 
False

>  <contains_ring_sugars>  (677) 
False

>  <contains_linear_sugars>  (677) 
False

>  <murcko_framework>  (677) 
O1C(=CCc2ccc3OCC=Cc3c12)c4ccccc4

>  <np_likeness>  (677) 
1.73

>  <chemical_class>  (677) 
Flavonoids

>  <chemical_sub_class>  (677) 
Pyranoflavonoids

>  <chemical_super_class>  (677) 
Phenylpropanoids and polyketides

>  <direct_parent_classification>  (677) 
Pyranoflavonoids

>  <np_classifier_pathway>  (677) 
Shikimates and Phenylpropanoids

>  <np_classifier_superclass>  (677) 
Flavonoids

>  <np_classifier_class>  (677) 
Flavones

>  <np_classifier_is_glycoside>  (677) 
False

>  <organisms>  (677) 
Bursera leptophloeos|Dahlstedtia pentaphylla|Lepista nuda|Lonchocarpus subglaucescens|Millettia pulchra|Ursinia eckloniana|Vespa crabro

>  <collections>  (677) 
AnalytiCon Discovery NPs|GNPS (Global Natural Products Social Molecular Networking)|KNApSaCK|Latin America dataset|NPASS|NPEdia|NuBBEDB|Super Natural II|UNPD (Universal Natural Products Database)|WikiData Natural Products|ZINC NP

>  <dois>  (677) 
10.1016/0031-9422(88)80277-2|10.1016/0031-9422(96)00134-3|10.1016/J.BMCL.2015.01.009|10.1016/j.bmcl.2015.01.009|10.1211/JPP.61.02.0017|10.1211/jpp/61.02.0017

>  <synonyms>  (677) 
6'',6''-Dimethylpyrano[2'',3'':7,8]flavone|6'',6''-Dimethylpyrano[2'',3'':7,8]flavone, >=95% (LC\/MS-UV)|78-(2''2''-dimethylpyrano)-flavone|8,8-DIMETHYL-2-PHENYLPYRANO[2,3-F]CHROMEN-4-ONE|8,8-Dimethyl-2-phenyl-4H,8H-benzo[1,2-b:3,4-b']dipyran-4-one|8,8-dimethyl-2-phenylpyrano[2,3-]chromen-4-one|AKOS040734604|CHEBI:183747|CHEMBL3401058|DTXSID601346930|LMPK12110020|SCHEMBL15944379

>  <cas>  (677) 
nan

$$$$

     RDKit          2D

 24 26  0  0  0  0  0  0  0  0999 V2000
   -5.5553   -0.7572    0.0000 C   0  0  0  0  0  0  0  0  0  0  0  0
   -4.0738   -0.5227    0.0000 C   0  0  0  0  0  0  0  0  0  0  0  0
   -3.0132   -1.5834    0.0000 C   0  0  0  0  0  0  0  0  0  0  0  0
   -1.6766   -0.9025    0.0000 C   0  0  0  0  0  0  0  0  0  0  0  0
   -1.9536   -2.3767    0.0000 O   0  0  0  0  0  0  0  0  0  0  0  0
   -0.6783   -2.0220    0.0000 C   0  0  0  0  0  0  0  0  0  0  0  0
   -1.4713   -3.2953    0.0000 O   0  0  0  0  0  0  0  0  0  0  0  0
    0.7668   -2.4241    0.0000 C   0  0  0  0  0  0  0  0  0  0  0  0
    0.7881   -3.9240    0.0000 C   0  0  0  0  0  0  0  0  0  0  0  0
    2.1999   -1.9811    0.0000 C   0  0  0  0  0  0  0  0  0  0  0  0
    3.1659   -0.8336    0.0000 C   0  0  0  0  0  0  0  0  0  0  0  0
    3.3583    0.6540    0.0000 C   0  0  0  0  0  0  0  0  0  0  0  0
    2.7158    2.0094    0.0000 C   0  0  0  0  0  0  0  0  0  0  0  0
    1.4425    2.8024    0.0000 C   0  0  0  0  0  0  0  0  0  0  0  0
   -0.0573    2.7810    0.0000 C   0  0  0  0  0  0  0  0  0  0  0  0
    0.4131    4.2054    0.0000 C   0  0  0  0  0  0  0  0  0  0  0  0
   -1.2495    3.6914    0.0000 O   0  0  0  0  0  0  0  0  0  0  0  0
   -1.3075    1.9522    0.0000 C   0  0  0  0  0  0  0  0  0  0  0  0
   -1.9112    0.5791    0.0000 C   0  0  0  0  0  0  0  0  0  0  0  0
   -3.3927    0.8138    0.0000 C   0  0  0  0  0  0  0  0  0  0  0  0
   -4.0736    2.1503    0.0000 O   0  0  0  0  0  0  0  0  0  0  0  0
    4.5504   -0.2564    0.0000 C   0  0  0  0  0  0  0  0  0  0  0  0
    5.6540    0.7596    0.0000 C   0  0  0  0  0  0  0  0  0  0  0  0
    5.3593   -1.5196    0.0000 C   0  0  0  0  0  0  0  0  0  0  0  0
  1  2  1  0
  2  3  2  0
  3  4  1  0
  4  5  1  6
  4  6  1  0
  6  7  2  0
  6  8  1  0
  8  9  1  1
  8 10  1  0
 11 10  1  6
 11 12  1  0
 12 13  1  6
 13 14  1  0
 14 15  1  0
 15 16  1  6
 15 17  1  0
 15 18  1  0
 19 18  1  6
 19 20  1  0
 20 21  2  0
 12 22  1  0
 22 23  1  0
 22 24  1  0
 20  2  1  0
 19  4  1  0
 22 11  1  0
M  END
>  <identifier>  (678) 
CNP0115349.1

>  <canonical_smiles>  (678) 
CC1=C[C@]2(O)C(=O)[C@H](C)C[C@@H]3[C@H](CC[C@](C)(O)C[C@H]2C1=O)C3(C)C

>  <standard_inchi>  (678) 
InChI=1S/C20H30O4/c1-11-8-14-13(18(14,3)4)6-7-19(5,23)10-15-16(21)12(2)9-20(15,24)17(11)22/h9,11,13-15,23-24H,6-8,10H2,1-5H3/t11-,13+,14-,15+,19+,20-/m1/s1

>  <standard_inchi_key>  (678) 
SYTUAXJMSBBHKV-KVWVDNQSSA-N

>  <name>  (678) 
nan

>  <iupac_name>  (678) 
(1~{R},3~{R},5~{R},7~{S},10~{S},12~{R})-1,10-dihydroxy-3,6,6,10,14-pentamethyl-tricyclo[10.3.0.0^{5,7}]pentadec-14-ene-2,13-dione

>  <annotation_level>  (678) 
5

>  <total_atom_count>  (678) 
54

>  <heavy_atom_count>  (678) 
24

>  <molecular_weight>  (678) 
334.46

>  <exact_molecular_weight>  (678) 
334.21441

>  <molecular_formula>  (678) 
C20H30O4

>  <alogp>  (678) 
2.67

>  <topological_polar_surface_area>  (678) 
74.60

>  <rotatable_bond_count>  (678) 
0

>  <hydrogen_bond_acceptors>  (678) 
4

>  <hydrogen_bond_donors>  (678) 
2

>  <hydrogen_bond_acceptors_lipinski>  (678) 
4

>  <hydrogen_bond_donors_lipinski>  (678) 
2

>  <lipinski_rule_of_five_violations>  (678) 
0

>  <aromatic_rings_count>  (678) 
0

>  <qed_drug_likeliness>  (678) 
0.71

>  <formal_charge>  (678) 
0

>  <fractioncsp3>  (678) 
0.80

>  <number_of_minimal_rings>  (678) 
3

>  <van_der_walls_volume>  (678) 
327.92

>  <contains_sugar>  (678) 
False

>  <contains_ring_sugars>  (678) 
False

>  <contains_linear_sugars>  (678) 
False

>  <murcko_framework>  (678) 
C1=CC2CCCC3CC3CCCCC2C1

>  <np_likeness>  (678) 
2.58

>  <chemical_class>  (678) 
Prenol lipids

>  <chemical_sub_class>  (678) 
Diterpenoids

>  <chemical_super_class>  (678) 
Lipids and lipid-like molecules

>  <direct_parent_classification>  (678) 
Diterpenoids

>  <np_classifier_pathway>  (678) 
Terpenoids

>  <np_classifier_superclass>  (678) 
Diterpenoids

>  <np_classifier_class>  (678) 
Lathyrane diterpenoids

>  <np_classifier_is_glycoside>  (678) 
False

>  <organisms>  (678) 
Jatropha weddelliana

>  <collections>  (678) 
ChemSpider NPs|Latin America dataset|NuBBEDB|Super Natural II|ZINC NP

>  <dois>  (678) 
10.1590/S0103-50532001000200022

>  <synonyms>  (678) 
Jatrowediol

>  <cas>  (678) 
nan

$$$$

     RDKit          2D

 34 35  0  0  0  0  0  0  0  0999 V2000
   -8.7099    2.3555    0.0000 C   0  0  0  0  0  0  0  0  0  0  0  0
   -7.8957    1.0957    0.0000 O   0  0  0  0  0  0  0  0  0  0  0  0
   -6.3976    1.1708    0.0000 C   0  0  0  0  0  0  0  0  0  0  0  0
   -5.7137    2.5058    0.0000 C   0  0  0  0  0  0  0  0  0  0  0  0
   -4.2156    2.5810    0.0000 C   0  0  0  0  0  0  0  0  0  0  0  0
   -3.4014    1.3212    0.0000 C   0  0  0  0  0  0  0  0  0  0  0  0
   -1.9033    1.3964    0.0000 C   0  0  0  0  0  0  0  0  0  0  0  0
   -1.0891    0.1366    0.0000 C   0  0  0  0  0  0  0  0  0  0  0  0
   -1.7730   -1.1984    0.0000 C   0  0  0  0  0  0  0  0  0  0  0  0
   -0.9589   -2.4582    0.0000 O   0  0  0  0  0  0  0  0  0  0  0  0
   -1.6428   -3.7932    0.0000 C   0  0  0  0  0  0  0  0  0  0  0  0
   -0.8286   -5.0530    0.0000 C   0  0  0  0  0  0  0  0  0  0  0  0
   -3.1409   -3.8684    0.0000 O   0  0  0  0  0  0  0  0  0  0  0  0
    0.4090    0.2118    0.0000 C   0  0  0  0  0  0  0  0  0  0  0  0
    1.0930    1.5468    0.0000 C   0  0  0  0  0  0  0  0  0  0  0  0
    2.5911    1.6220    0.0000 O   0  0  0  0  0  0  0  0  0  0  0  0
    3.2750    2.9570    0.0000 C   0  0  0  0  0  0  0  0  0  0  0  0
    4.7731    3.0322    0.0000 C   0  0  0  0  0  0  0  0  0  0  0  0
    2.4608    4.2168    0.0000 O   0  0  0  0  0  0  0  0  0  0  0  0
    1.2232   -1.0480    0.0000 C   0  0  0  0  0  0  0  0  0  0  0  0
    2.7213   -0.9728    0.0000 C   0  0  0  0  0  0  0  0  0  0  0  0
    3.5355   -2.2326    0.0000 C   0  0  0  0  0  0  0  0  0  0  0  0
    5.0336   -2.1574    0.0000 C   0  0  0  0  0  0  0  0  0  0  0  0
    5.7175   -0.8224    0.0000 C   0  0  0  0  0  0  0  0  0  0  0  0
    7.2156   -0.7472    0.0000 O   0  0  0  0  0  0  0  0  0  0  0  0
    8.0298   -2.0070    0.0000 C   0  0  0  0  0  0  0  0  0  0  0  0
    4.9034    0.4374    0.0000 C   0  0  0  0  0  0  0  0  0  0  0  0
    5.5873    1.7724    0.0000 O   0  0  0  0  0  0  0  0  0  0  0  0
    7.0854    1.8476    0.0000 C   0  0  0  0  0  0  0  0  0  0  0  0
    3.4052    0.3622    0.0000 C   0  0  0  0  0  0  0  0  0  0  0  0
   -4.0853   -0.0138    0.0000 C   0  0  0  0  0  0  0  0  0  0  0  0
   -5.5834   -0.0890    0.0000 C   0  0  0  0  0  0  0  0  0  0  0  0
   -6.2674   -1.4240    0.0000 O   0  0  0  0  0  0  0  0  0  0  0  0
   -5.4532   -2.6838    0.0000 C   0  0  0  0  0  0  0  0  0  0  0  0
  1  2  1  0
  2  3  1  0
  3  4  2  0
  4  5  1  0
  5  6  2  0
  6  7  1  0
  8  7  1  6
  8  9  1  0
  9 10  1  0
 10 11  1  0
 11 12  1  0
 11 13  2  0
  8 14  1  0
 14 15  1  6
 15 16  1  0
 16 17  1  0
 17 18  1  0
 17 19  2  0
 14 20  1  0
 20 21  1  0
 21 22  2  0
 22 23  1  0
 23 24  2  0
 24 25  1  0
 25 26  1  0
 24 27  1  0
 27 28  1  0
 28 29  1  0
 27 30  2  0
  6 31  1  0
 31 32  2  0
 32 33  1  0
 33 34  1  0
 32  3  1  0
 30 21  1  0
M  END
>  <identifier>  (679) 
CNP0240055.1

>  <canonical_smiles>  (679) 
COC1=CC=C(C[C@@H](COC(C)=O)[C@H](COC(C)=O)CC2=CC=C(OC)C(OC)=C2)C=C1OC

>  <standard_inchi>  (679) 
InChI=1S/C26H34O8/c1-17(27)33-15-21(11-19-7-9-23(29-3)25(13-19)31-5)22(16-34-18(2)28)12-20-8-10-24(30-4)26(14-20)32-6/h7-10,13-14,21-22H,11-12,15-16H2,1-6H3/t21-,22-/m0/s1

>  <standard_inchi_key>  (679) 
NHXZFSUHPPWVEE-VXKWHMMOSA-N

>  <name>  (679) 
nan

>  <iupac_name>  (679) 
[(2~{R},3~{R})-3-(acetoxymethyl)-4-(3,4-dimethoxyphenyl)-2-[(3,4-dimethoxyphenyl)methyl]butyl] acetate

>  <annotation_level>  (679) 
4

>  <total_atom_count>  (679) 
68

>  <heavy_atom_count>  (679) 
34

>  <molecular_weight>  (679) 
474.55

>  <exact_molecular_weight>  (679) 
474.22537

>  <molecular_formula>  (679) 
C26H34O8

>  <alogp>  (679) 
3.86

>  <topological_polar_surface_area>  (679) 
89.52

>  <rotatable_bond_count>  (679) 
13

>  <hydrogen_bond_acceptors>  (679) 
8

>  <hydrogen_bond_donors>  (679) 
0

>  <hydrogen_bond_acceptors_lipinski>  (679) 
8

>  <hydrogen_bond_donors_lipinski>  (679) 
0

>  <lipinski_rule_of_five_violations>  (679) 
0

>  <aromatic_rings_count>  (679) 
2

>  <qed_drug_likeliness>  (679) 
0.40

>  <formal_charge>  (679) 
0

>  <fractioncsp3>  (679) 
0.46

>  <number_of_minimal_rings>  (679) 
2

>  <van_der_walls_volume>  (679) 
nan

>  <contains_sugar>  (679) 
False

>  <contains_ring_sugars>  (679) 
False

>  <contains_linear_sugars>  (679) 
False

>  <murcko_framework>  (679) 
c1ccc(cc1)CCCCc2ccccc2

>  <np_likeness>  (679) 
0.47

>  <chemical_class>  (679) 
Dibenzylbutane lignans

>  <chemical_sub_class>  (679) 
Dibenzylbutane lignans

>  <chemical_super_class>  (679) 
Lignans, neolignans and related compounds

>  <direct_parent_classification>  (679) 
Dibenzylbutane lignans

>  <np_classifier_pathway>  (679) 
Shikimates and Phenylpropanoids

>  <np_classifier_superclass>  (679) 
Lignans

>  <np_classifier_class>  (679) 
Dibenzylbutane lignans

>  <np_classifier_is_glycoside>  (679) 
False

>  <organisms>  (679) 
Araucaria angustifolia|Justicia procumbens

>  <collections>  (679) 
Latin America dataset|NuBBEDB|Super Natural II|WikiData Natural Products|ZINC NP

>  <dois>  (679) 
10.1016/0031-9422(79)80188-0|10.1021/NP9703860

>  <synonyms>  (679) 
Secoisolariciresinol-44''-dimethyl ether diacetate

>  <cas>  (679) 
nan

$$$$

     RDKit          2D

 25 28  0  0  0  0  0  0  0  0999 V2000
    6.6235   -0.9706    0.0000 C   0  0  0  0  0  0  0  0  0  0  0  0
    5.1723   -1.3500    0.0000 C   0  0  0  0  0  0  0  0  0  0  0  0
    4.1181   -0.2830    0.0000 C   0  0  0  0  0  0  0  0  0  0  0  0
    4.3618    1.1971    0.0000 C   0  0  0  0  0  0  0  0  0  0  0  0
    5.7024    1.8700    0.0000 O   0  0  0  0  0  0  0  0  0  0  0  0
    3.0294    1.8862    0.0000 C   0  0  0  0  0  0  0  0  0  0  0  0
    1.9623    0.8320    0.0000 C   0  0  0  0  0  0  0  0  0  0  0  0
    0.4649    0.9196    0.0000 C   0  0  0  0  0  0  0  0  0  0  0  0
   -0.2080    2.2602    0.0000 C   0  0  0  0  0  0  0  0  0  0  0  0
   -1.7054    2.3478    0.0000 C   0  0  0  0  0  0  0  0  0  0  0  0
   -2.5300    1.0948    0.0000 C   0  0  0  0  0  0  0  0  0  0  0  0
   -4.0274    1.1824    0.0000 C   0  0  0  0  0  0  0  0  0  0  0  0
   -4.7003    2.5230    0.0000 O   0  0  0  0  0  0  0  0  0  0  0  0
   -4.8520   -0.0706    0.0000 C   0  0  0  0  0  0  0  0  0  0  0  0
   -6.3495    0.0170    0.0000 O   0  0  0  0  0  0  0  0  0  0  0  0
   -4.1792   -1.4113    0.0000 C   0  0  0  0  0  0  0  0  0  0  0  0
   -5.0037   -2.6643    0.0000 O   0  0  0  0  0  0  0  0  0  0  0  0
   -2.6817   -1.4988    0.0000 C   0  0  0  0  0  0  0  0  0  0  0  0
   -1.8571   -0.2458    0.0000 C   0  0  0  0  0  0  0  0  0  0  0  0
   -1.1843   -1.5864    0.0000 C   0  0  0  0  0  0  0  0  0  0  0  0
   -0.3597   -0.3334    0.0000 C   0  0  0  0  0  0  0  0  0  0  0  0
    0.3132   -1.6740    0.0000 C   0  0  0  0  0  0  0  0  0  0  0  0
    1.8106   -1.7616    0.0000 C   0  0  0  0  0  0  0  0  0  0  0  0
    2.6352   -0.5086    0.0000 C   0  0  0  0  0  0  0  0  0  0  0  0
    3.4445   -1.7716    0.0000 C   0  0  0  0  0  0  0  0  0  0  0  0
  1  2  1  0
  3  2  1  6
  3  4  1  0
  4  5  2  0
  4  6  1  0
  6  7  1  0
  7  8  1  0
  8  9  1  0
  9 10  1  0
 10 11  1  0
 11 12  1  0
 12 13  1  6
 12 14  1  0
 14 15  1  6
 14 16  1  0
 16 17  1  6
 16 18  1  0
 18 19  1  0
 19 20  1  6
 19 21  1  0
 21 22  1  0
 22 23  1  0
 23 24  1  0
 24 25  1  6
 24  3  1  0
 24  7  1  0
 21  8  1  0
 19 11  1  0
M  END
>  <identifier>  (680) 
CNP0421515.4

>  <canonical_smiles>  (680) 
CC[C@H]1C(=O)CC2C3CCC4[C@@H](O)[C@@H](O)[C@@H](O)C[C@]4(C)C3CC[C@@]21C

>  <standard_inchi>  (680) 
InChI=1S/C21H34O4/c1-4-12-16(22)9-15-11-5-6-14-18(24)19(25)17(23)10-21(14,3)13(11)7-8-20(12,15)2/h11-15,17-19,23-25H,4-10H2,1-3H3/t11?,12-,13?,14?,15?,17-,18+,19-,20+,21+/m0/s1

>  <standard_inchi_key>  (680) 
JHBBZIAPXDEPET-QIMJNSTOSA-N

>  <name>  (680) 
nan

>  <iupac_name>  (680) 
(2~{S},3~{S},4~{R},10~{R},13~{S},17~{R})-17-ethyl-2,3,4-trihydroxy-10,13-dimethyl-1,2,3,4,5,6,7,8,9,11,12,14,15,17-tetradecahydrocyclopenta[a]phenanthren-16-one

>  <annotation_level>  (680) 
4

>  <total_atom_count>  (680) 
59

>  <heavy_atom_count>  (680) 
25

>  <molecular_weight>  (680) 
350.5

>  <exact_molecular_weight>  (680) 
350.24571

>  <molecular_formula>  (680) 
C21H34O4

>  <alogp>  (680) 
2.54

>  <topological_polar_surface_area>  (680) 
77.76

>  <rotatable_bond_count>  (680) 
1

>  <hydrogen_bond_acceptors>  (680) 
4

>  <hydrogen_bond_donors>  (680) 
3

>  <hydrogen_bond_acceptors_lipinski>  (680) 
4

>  <hydrogen_bond_donors_lipinski>  (680) 
3

>  <lipinski_rule_of_five_violations>  (680) 
0

>  <aromatic_rings_count>  (680) 
0

>  <qed_drug_likeliness>  (680) 
0.68

>  <formal_charge>  (680) 
0

>  <fractioncsp3>  (680) 
0.95

>  <number_of_minimal_rings>  (680) 
4

>  <van_der_walls_volume>  (680) 
nan

>  <contains_sugar>  (680) 
False

>  <contains_ring_sugars>  (680) 
False

>  <contains_linear_sugars>  (680) 
False

>  <murcko_framework>  (680) 
C1CCC2C(C1)CCC3C4CCCC4CCC23

>  <np_likeness>  (680) 
2.65

>  <chemical_class>  (680) 
Steroids and steroid derivatives

>  <chemical_sub_class>  (680) 
Pregnane steroids

>  <chemical_super_class>  (680) 
Lipids and lipid-like molecules

>  <direct_parent_classification>  (680) 
Gluco\/mineralocorticoids, progestogins and derivatives

>  <np_classifier_pathway>  (680) 
Terpenoids

>  <np_classifier_superclass>  (680) 
Steroids

>  <np_classifier_class>  (680) 
Pregnane steroids

>  <np_classifier_is_glycoside>  (680) 
False

>  <organisms>  (680) 
Trichilia claussenii

>  <collections>  (680) 
Latin America dataset|NuBBEDB

>  <dois>  (680) 
10.1016/S0031-9422(97)00167-2

>  <synonyms>  (680) 
2\u221a\u00e9\u00ac\u22643\u221a\u00e9\u00ac\u22644\u221a\u00e9\u00ac\u2264-Trihydroxypregnan-16-one

>  <cas>  (680) 
nan

$$$$

     RDKit          2D

 12 11  0  0  0  0  0  0  0  0999 V2000
   -7.1488   -0.2878    0.0000 C   0  0  0  0  0  0  0  0  0  0  0  0
   -5.8407    0.4463    0.0000 C   0  0  0  0  0  0  0  0  0  0  0  0
   -4.5509   -0.3195    0.0000 C   0  0  0  0  0  0  0  0  0  0  0  0
   -3.2428    0.4146    0.0000 C   0  0  0  0  0  0  0  0  0  0  0  0
   -1.9530   -0.3512    0.0000 C   0  0  0  0  0  0  0  0  0  0  0  0
   -0.6449    0.3829    0.0000 C   0  0  0  0  0  0  0  0  0  0  0  0
    0.6449   -0.3829    0.0000 C   0  0  0  0  0  0  0  0  0  0  0  0
    1.9530    0.3512    0.0000 C   0  0  0  0  0  0  0  0  0  0  0  0
    3.2428   -0.4146    0.0000 C   0  0  0  0  0  0  0  0  0  0  0  0
    4.5509    0.3195    0.0000 C   0  0  0  0  0  0  0  0  0  0  0  0
    5.8407   -0.4463    0.0000 C   0  0  0  0  0  0  0  0  0  0  0  0
    7.1488    0.2878    0.0000 C   0  0  0  0  0  0  0  0  0  0  0  0
  1  2  2  0
  2  3  1  0
  3  4  1  0
  4  5  1  0
  5  6  1  0
  6  7  1  0
  7  8  1  0
  8  9  1  0
  9 10  1  0
 10 11  1  0
 11 12  1  0
M  END
>  <identifier>  (681) 
CNP0173522.0

>  <canonical_smiles>  (681) 
C=CCCCCCCCCCC

>  <standard_inchi>  (681) 
InChI=1S/C12H24/c1-3-5-7-9-11-12-10-8-6-4-2/h3H,1,4-12H2,2H3

>  <standard_inchi_key>  (681) 
CRSBERNSMYQZNG-UHFFFAOYSA-N

>  <name>  (681) 
1-DODECENE

>  <iupac_name>  (681) 
dodec-1-ene

>  <annotation_level>  (681) 
5

>  <total_atom_count>  (681) 
36

>  <heavy_atom_count>  (681) 
12

>  <molecular_weight>  (681) 
168.32

>  <exact_molecular_weight>  (681) 
168.1878

>  <molecular_formula>  (681) 
C12H24

>  <alogp>  (681) 
4.70

>  <topological_polar_surface_area>  (681) 
0.00

>  <rotatable_bond_count>  (681) 
9

>  <hydrogen_bond_acceptors>  (681) 
0

>  <hydrogen_bond_donors>  (681) 
0

>  <hydrogen_bond_acceptors_lipinski>  (681) 
0

>  <hydrogen_bond_donors_lipinski>  (681) 
0

>  <lipinski_rule_of_five_violations>  (681) 
0

>  <aromatic_rings_count>  (681) 
0

>  <qed_drug_likeliness>  (681) 
0.35

>  <formal_charge>  (681) 
0

>  <fractioncsp3>  (681) 
0.83

>  <number_of_minimal_rings>  (681) 
0

>  <van_der_walls_volume>  (681) 
205.58

>  <contains_sugar>  (681) 
False

>  <contains_ring_sugars>  (681) 
False

>  <contains_linear_sugars>  (681) 
False

>  <murcko_framework>  (681) 
nan

>  <np_likeness>  (681) 
0.85

>  <chemical_class>  (681) 
Unsaturated hydrocarbons

>  <chemical_sub_class>  (681) 
Olefins

>  <chemical_super_class>  (681) 
Hydrocarbons

>  <direct_parent_classification>  (681) 
Alkenes

>  <np_classifier_pathway>  (681) 
Fatty acids

>  <np_classifier_superclass>  (681) 
Fatty acyls

>  <np_classifier_class>  (681) 
Hydrocarbons

>  <np_classifier_is_glycoside>  (681) 
False

>  <organisms>  (681) 
Acacia dealbata|Angelica sinensis|Camellia saluenensis|Caryocar coriaceum|Cirsium dipsacolepis|Fructus hippophae|Hoehnephytum imbricatum|Homo sapiens|Houttuynia Cordata|Houttuynia cordata|Leonurus heterophyllus|Lycium barbarum|Lycium chinense|Orbignya martiana|Oryza sativa|Rhaponticum uniflorum|Saussurea involucrata|Tussilago farfara|soybean

>  <collections>  (681) 
Australian natural products|CMAUP (cCollective molecular activities of useful plants)|ChEBI NPs|EMNPD|FooDB|Latin America dataset|NPASS|NuBBEDB|Super Natural II|TCMDB-Taiwan (Traditional Chinese Medicine database)|TCMID (Traditional Chinese Medicine Integrated Database)|UNPD (Universal Natural Products Database)|VietHerb|WikiData Natural Products|ZINC NP

>  <dois>  (681) 
10.1016/0031-9422(81)83055-5|10.1016/J.RENENE.2017.12.012|10.1016/S0031-9422(00)81427-2|10.1021/JF00086A050|10.1021/JF00120A031|10.1021/jf00120a031|10.1080/02757540.2015.1050004|10.1080/10412905.1992.9698080|10.1088/1752-7155/8/1/014001|10.1248/CPB.54.936|10.1248/YAKUSHI1947.112.8_571|10.3390/MOLECULES16010373

>  <synonyms>  (681) 
.alpha.-Dodecylene|1-DODECENE [HSDB]|1-Dodecene|1-Dodecene (standard material)|1-Dodecene, 95%|1-Dodecene, >=99.0% (GC)|1-Dodecene, analytical standard|1-Dodecene, technical, >=90% (GC)|112-41-4|25378-22-7|68526-58-9|A802575|ADACENE-12|AKOS015904161|Adacene 12|BS-14425|CAS-112-41-4|CHEBI:89713|CHEMBL1872885|CS-W017788|D0974|D70997|DB-041090|DODECENE|DODECENE [INCI]|DODECENE, 1-|DTXCID306914|DTXSID5026914|Dodec-1-ene|Dodecene-1|Dodecylene|Dodecylene .alpha.-|EC 203-968-4|EC 246-922-9|EINECS 203-968-4|EINECS 246-922-9|EINECS 271-215-7|EN300-99514|HSDB 1076|HSDB 2793|J-002769|LMFA11000313|MFCD00008961|NCGC00164290-01|NCGC00257096-01|NCGC00258933-01|NS00007351|NSC 12016|NSC-12016|Neodene 12|Q161620|S0342|Tox21_201382|Tox21_303303|UNII-WYE669F3GR|WYE669F3GR|alpha-Dodecene|dodec-11-ene|n-dodecene

>  <cas>  (681) 
112-41-4|25378-22-7|68526-58-9

$$$$

     RDKit          2D

  7  6  0  0  0  0  0  0  0  0999 V2000
   -3.8971   -0.3214    0.0000 C   0  0  0  0  0  0  0  0  0  0  0  0
   -2.5981    0.4286    0.0000 C   0  0  0  0  0  0  0  0  0  0  0  0
   -1.2990   -0.3214    0.0000 C   0  0  0  0  0  0  0  0  0  0  0  0
    0.0000    0.4286    0.0000 C   0  0  0  0  0  0  0  0  0  0  0  0
    1.2990   -0.3214    0.0000 C   0  0  0  0  0  0  0  0  0  0  0  0
    2.5981    0.4286    0.0000 C   0  0  0  0  0  0  0  0  0  0  0  0
    3.8971   -0.3214    0.0000 O   0  0  0  0  0  0  0  0  0  0  0  0
  1  2  1  0
  2  3  1  0
  3  4  1  0
  4  5  1  0
  5  6  1  0
  6  7  2  0
M  END
>  <identifier>  (682) 
CNP0304790.0

>  <canonical_smiles>  (682) 
CCCCCC=O

>  <standard_inchi>  (682) 
InChI=1S/C6H12O/c1-2-3-4-5-6-7/h6H,2-5H2,1H3

>  <standard_inchi_key>  (682) 
JARKCYVAAOWBJS-UHFFFAOYSA-N

>  <name>  (682) 
HEXANAL

>  <iupac_name>  (682) 
hexanal

>  <annotation_level>  (682) 
5

>  <total_atom_count>  (682) 
19

>  <heavy_atom_count>  (682) 
7

>  <molecular_weight>  (682) 
100.16

>  <exact_molecular_weight>  (682) 
100.08882

>  <molecular_formula>  (682) 
C6H12O

>  <alogp>  (682) 
1.77

>  <topological_polar_surface_area>  (682) 
17.07

>  <rotatable_bond_count>  (682) 
4

>  <hydrogen_bond_acceptors>  (682) 
1

>  <hydrogen_bond_donors>  (682) 
0

>  <hydrogen_bond_acceptors_lipinski>  (682) 
1

>  <hydrogen_bond_donors_lipinski>  (682) 
0

>  <lipinski_rule_of_five_violations>  (682) 
0

>  <aromatic_rings_count>  (682) 
0

>  <qed_drug_likeliness>  (682) 
0.39

>  <formal_charge>  (682) 
0

>  <fractioncsp3>  (682) 
0.83

>  <number_of_minimal_rings>  (682) 
0

>  <van_der_walls_volume>  (682) 
115.28

>  <contains_sugar>  (682) 
False

>  <contains_ring_sugars>  (682) 
False

>  <contains_linear_sugars>  (682) 
False

>  <murcko_framework>  (682) 
nan

>  <np_likeness>  (682) 
1.83

>  <chemical_class>  (682) 
Organooxygen compounds

>  <chemical_sub_class>  (682) 
Carbonyl compounds

>  <chemical_super_class>  (682) 
Organic oxygen compounds

>  <direct_parent_classification>  (682) 
Medium-chain aldehydes

>  <np_classifier_pathway>  (682) 
Fatty acids

>  <np_classifier_superclass>  (682) 
Fatty acyls

>  <np_classifier_class>  (682) 
Fatty aldehydes

>  <np_classifier_is_glycoside>  (682) 
False

>  <organisms>  (682) 
Achillea arabica|Achillea biebersteinii|Aconitum kamtschaticum|Aconitum vilmorinianum|Actaea dahurica|Actaea heracleifolia|Actaea simplex|Actinidia chinensis|Actinidia kolomikta|Agaricus bisporus|Aguacate|Aiouea costaricensis|Akebia quinata|Akebia trifoliata|Alangium premnifolium|Allium ampeloprasum|Allium cepa|Aloe africana|Aloe ferox|Aloe spicata|Aloe vera|Amaranthus retroflexus|Amyris marshii|Angelica acutiloba|Angelica gigas|Angelica sinensis|Angelica tarokoensis|Anthemis aciphylla|Anthemis aciphylla BOISS.var.discoidea BOISS|Apium graveolens|Arnebia euchroma|Arnebia guttata|Artemisia argyi|Artemisia capillaries|Artemisia douglasiana|Artemisia montana|Artemisia princeps|Asarum canadense|Aster scaber|Astragalus membranaceus|Astragalus mongholicus|Astragalus trimestris|Atractylodes lancea|Atractylodes macrocephala|Avena sativa|Beilschmiedia pendula|Bistorta manshuriensis|Bistorta officinalis|Bombax ceiba|Boronella koniambiensis|Brachyspira hyodysenteriae|Bragantia wallichii|Brassica campestris|Brassica carinata|Brassica hirta|Brassica juncea|Brassica oleracea|Brassica rapa|Brevibacillus laterosporus|Bulbophyllum ipanemense|Bupleurum chinense|Bupleurum falcatum|Bupleurum scorzonerifolium|Calypogeia integristipula|Camellia sinensis|Canarium strictum|Cannabis sativa|Capillipedium parviflorum|Capsicum annuum|Carthamus tinctorius|Castanopsis cuspidata|Centella asiatica|Ceraeochrysa smithi|Ceratophyllum demersum|Cetraria islandica|Chaenomeles speciosa|Cichorium endivia|Cimicifuga foetida|Cinamomum cassia|Cinnamomum aromaticum|Cirsium brevistylum|Cistus creticus|Citrullus lanatus|Citrus Aurantifolia|Citrus Aurantium|Citrus Grandis|Citrus Hystrix|Citrus Paradisi|Citrus Sinensis|Citrus aurantifolia|Citrus aurantium|Citrus grandis|Citrus hystrix|Citrus limon|Citrus limonia|Citrus paradisi|Citrus sinensis|Citrus × paradisi|Cleistopholis patens|Cnidium officinale|Coelogorgia palmosa|Colobocentrotus atratus|Coreopsis grandiflora|Couroupita guianensis|Crocus sativus|Cucurbita maxima|Cyclotrichium niveum|Cynara cardunculus|Cynara scolymus|Cynomorium songaricum|Daphne odora|Daucus carota|Delphinium andersoni|Dendrobium officinale|Desmodium oxyphyllum|Dianthus caryophyllus L.|Diphasia angolensis|Dipteronia dyeriana|Dodonaea polyandra|Echinophora tenuifolia|Ectropis bicolor|Elsholtzia ciliata|Epimedium davidii|Erinaceus europaeus|Eruca sativa|Eryngium foetidum|Erysimum odoratum|Esox saurus|Eucalyptus globulus|Eupolyphaga sinensis|Eutypella scoparia|FOOD SAKE|Festuca arundinacea|Festuca rubra|Foeniculum vulgare|Fragaria|Fragaria x ananassa|Frullania tamarisci|Galenia africana|Garcinia macrophylla|Gentiana dahurica|Geum heterocarpum|Glehnia littoralis|Globba malaccensis|Gnidia lamprantha|Gossypium hirsutum|Gouania microcarpa|Gymnanthemum amygdalinum|Gyromitra esculenta|Heterotheca inuloides|Homo sapiens|Homo sapiens (Blood)|Homo sapiens (Exhaled breath)|Houttuynia cordata|Humulus lupulus|Hypericum perforatum|Hyptis suaveolens|Ilex amara|Inula helenium|Isodon japonicus|Jerusalem artichoke|Juglans nigra|Knightia excelsa|Kobus ellipsiprymnus|Laminaria japonica|Laurencia distichophylla|Leonurus glaucescens|Lepidium draba|Leucopaxillus giganteus|Ligusticum chuanxiong|Ligusticum sinense|Lippia Myriocephala|Lithospermum erythrorhizon|Lobelia chinensis|Lonicera japonica|Lycium barbarum|Lycium chinense|Lycopersicon Esculentum|Lycopersicon esculentum Mill.|Maba buxifolia|Magnolia obovata|Magnolia officinalis|Malus domestica|Malus pumila|Mangifera indica|Matsutake|Maytenus loeseneri|Maytenus serrata|Medicago sativa|Mentha aquatica|Mentha arvensis|Mentha canadensis|Micromeria pineolens|Mimusops elengi|Monomorium floricola|Mosla chinensis|Murraya kwangsiensis|Nectandra salicina|Nemalion vermiculare|Nepeta caesarea|Nepeta racemosa|Nidula candida|Notopterygium forbesii|Ocotea austinii|Ocotea gomezii|Odontites rubra|Oldenlandia diffusa|Olea Europaea|Olea europaea|Ongokea klaineana|Ophiocoma scolopendrina|Ophioparma ventosa|Ophiorrhiza blumeana|Origanum vulgare|Paeonia lactiflora|Panax ginseng|Panax notoginseng|Panax quinquefolius|Parkia speciosa|Passiflora incarnata|Penicillium citreonigrum|Perilla frutescens|Petroselinum crispum|Peucedanum palustre|Phalaenopsis aphrodite|Physalis solanaceus|Picea abies|Pinellia ternata|Platycladus orientalis|Plectranthus mollis|Plumeria rubra|Podocarpus salignus|Polygala senega|Prosopis ruscifolia|Prunus Armeniaca|Prunus armeniaca|Prunus armeniaca L. (K604-19,K113-40,K33-81)|Prunus armeniaca l. var. ansu maxim.|Prunus avium|Prunus dulcis|Prunus persica|Prunus salcina Lindl. (Blackamber,Friar)|Psidium friedrichsthalianum|Psidium guajava|Psychotria bahiensis|Pternistria bispina|Punica granatum|Putterlickia verrucosa|Pyrus pyrifolia|Quercus sessiliflora|Radix chuanxiong|Rhizoma chuanxiong|Rhodiola rosea|Rhodiola rosea L.|Rhodomicrobium vannielii|Rhus coriaria|Rosmarinus officinalis|Rusavskia elegans|Salacia madagascariensis|Saussurea carthamoides|Saussurea lappa|Scaligeria lazica|Schisandra chinensis|Schistostephium rotundifolium|Scleromitrion diffusum|Scutellaria barbata|Scytosiphon lomentaria|Senecio scandens|Senna alexandrina|Sideritis syriaca|Sinapis alba|Siphocampylus verticillatus|Solanum acaule|Solanum betaceum|Sorghum bicolor|Spodoptera eridania|Sraitia grosvenorii|Streptomyces albidoflavus DST71|Streptomyces fervens|Streptomyces griseovariabilis|Streptomyces lavendulae|Swertia delavayi|Swertia japonica|Tagetes minuta|Talaromyces coalescens|Taxus canadensis|Thea sinensis|Thymbra spicata|Thymus|Thymus longicaulis|Thymus sibthorpii|Trifolium subterraneum|Trigonella foenum-graecum|Triticum aestivum|Usnea florida|Vaccinium ashei|Vaccinium corymbosum|Vaccinium macrocarpon|Vaccinium virgatum|Vaccinium vitis-idaea|Valeriana officinalis|Vallota purpurea|Vepris pilosa|Veratrum stenophyllum|Vernonia condensata|Viburnum chingii|Vismia jefensis|Vitis rotundifolia|Vitis vinifera|Zanthoxylum bungeanum|Zanthoxylum chiriquinum|Zanthoxylum piperitum|Zanthoxylum schinifolium|Zea mays|Zingiber mioga|Zingiber officinale|basil|bellis perennis|clove|common sunflower|maize|parsley|pomegranate|pomelo|potato|star fruit|water mint|watermelon

>  <collections>  (682) 
ANPDB|Australian natural products|CMAUP (cCollective molecular activities of useful plants)|ChEBI NPs|FooDB|HIT (Herbal Ingredients Targets)|KNApSaCK|Latin America dataset|NANPDB (Natural Products from Northern African Sources)|NAPRORE-CR|NPASS|NPDBEjeCol|NPEdia|NuBBEDB|Phyto4Health|StreptomeDB|Super Natural II|Supernatural3|TCMDB-Taiwan (Traditional Chinese Medicine database)|TCMID (Traditional Chinese Medicine Integrated Database)|TIPdb (database of Taiwan indigenous plants)|UNPD (Universal Natural Products Database)|VietHerb|Watermelon|WikiData Natural Products

>  <dois>  (682) 
10.1002/FFJ.1588|10.1002/FFJ.2730070108|10.1002/FFJ.2730100408|10.1002/FOOD.19810250610|10.1002/JSFA.2740340112|10.1002/JSFA.8889|10.1007/BF00987858|10.1007/S10886-013-0311-2|10.1016/0031-9422(81)84057-5|10.1016/0031-9422(82)80138-6|10.1016/0031-9422(88)80099-2|10.1016/0031-9422(88)80124-9|10.1016/0031-9422(88)83085-1|10.1016/0031-9422(91)84185-U|10.1016/0031-9422(91)85017-T|10.1016/0031-9422(95)00183-8|10.1016/0031-9422(95)00492-P|10.1016/J.CHROMA.2008.12.095|10.1016/J.CHROMA.2014.10.058|10.1016/J.FITOTE.2003.12.019|10.1016/J.FOODCHEM.2019.125649|10.1016/J.JFCA.2018.09.004|10.1016/J.PHYTOCHEM.2004.04.003|10.1016/J.PHYTOCHEM.2009.06.013|10.1016/J.PHYTOCHEM.2009.07.031|10.1016/J.TALANTA.2011.12.041|10.1016/S0031-9422(00)80682-2|10.1016/S0031-9422(00)82634-5|10.1016/S0031-9422(00)84581-1|10.1016/S0031-9422(00)94541-2|10.1016/S0031-9422(02)00004-3|10.1016/S0031-9422(82)85033-4|10.1016/S0031-9422(97)00119-2|10.1016/S0031-9422(97)00730-9|10.1016/S0031-9422(98)00459-2|10.1016/j.chroma.2008.12.095|10.1016/j.lwt.2023.115213|10.1016/j.talanta.2011.12.041|10.1016/s0031-9422(99)00254-x|10.1016/s0378-4347(00)86063-6|10.1021/IE50075A009|10.1021/JF00019A020|10.1021/JF00034A033|10.1021/JF00055A023|10.1021/JF00062A009|10.1021/JF00063A015|10.1021/JF00064A054|10.1021/JF00065A004|10.1021/JF00068A014|10.1021/JF00069A050|10.1021/JF00073A014|10.1021/JF00121A024|10.1021/JF00123A021|10.1021/JF00125A044|10.1021/JF60200A011|10.1021/JF60211A006|10.1021/JF60218A022|10.1021/JF60224A025|10.1021/JF60228A025|10.1021/JF60230A020|10.1021/JF801220B|10.1021/JF902669D|10.1021/JF990514L|10.1021/NP50008A001|10.1021/NP50053A034|10.1021/jf00055a023|10.1021/jf011456i|10.1023/A:1015205716921|10.1055/S-2006-962450|10.1071/CH9670395|10.1073/PNAS.93.8.3280|10.1080/00021369.1987.10868496|10.1080/10412905.1991.9697935|10.1080/10412905.1992.9698067|10.1080/10412905.1992.9698070|10.1080/10412905.1992.9698081|10.1080/10412905.1992.9698128|10.1080/10412905.1992.9698151|10.1080/10412905.1993.9698163|10.1080/10412905.1993.9698205|10.1080/10412905.1993.9698222|10.1080/10412905.1993.9698253|10.1080/10412905.1993.9698261|10.1080/10412905.1993.9698267|10.1080/10412905.1993.9698309|10.1080/10412905.1994.9698316|10.1080/10412905.1994.9698331|10.1080/10412905.1994.9698382|10.1080/10412905.1994.9698398|10.1080/10412905.1994.9698401|10.1080/10412905.1994.9698406|10.1080/10412905.1994.9698425|10.1080/10412905.1994.9698427|10.1080/10412905.1994.9699345|10.1080/10412905.1994.9699348|10.1080/10412905.1994.9699353|10.1080/10412905.1994.9699361|10.1080/10412905.1995.9698501|10.1080/10412905.1995.9698507|10.1080/10412905.1995.9698577|10.1080/10412905.1995.9698580|10.1080/10412905.2004.9698688|10.1080/10412905.2007.9699946|10.1080/10412905.2010.9700320|10.1080/10412905.2010.9700389|10.1080/10575630108041277|10.1080/10942912.2016.1155057|10.1088/1752-7155/8/1/014001|10.1111/J.1365-2621.1983.TB14849.X|10.1111/J.1365-2621.1984.TB13669.X|10.1111/J.1365-2621.1985.TB10476.X|10.1111/J.1365-2621.1985.TB13419.X|10.1111/J.1365-2621.1997.TB03978.X|10.1111/J.1399-3054.2007.00881.X|10.1155/2017/7436259|10.1186/s12934-018-0912-0|10.1246/BCSJ.56.3477|10.1248/CPB.54.222|10.1255/EJMS.1142|10.1271/BBB1961.45.373|10.1271/BBB1961.47.483|10.1271/BBB1961.49.1583|10.1271/BBB1961.49.3145|10.1271/BBB1961.50.1039|10.1271/BBB1961.55.1655|10.1271/NOGEIKAGAKU1924.67.1417|10.1365/S10337-008-0921-Y|10.1590/S0100-40422002000700009|10.1590/S0100-40422009000200028|10.1590/S0103-50532011000400018|10.1681/ASN.2011121175|10.21273/HORTSCI.25.5.556|10.3109/13880209209053976|10.3166/SDA.22.249-264|10.3390/MOLECULES200610298|10.3390/MOLECULES200712093|10.3390/MOLECULES21111576|10.3724/SP.J.1238.2012.00106|10.3891/ACTA.CHEM.SCAND.21-0945|10.3891/ACTA.CHEM.SCAND.21-2076|10.7235/HORT.2013.12200

>  <synonyms>  (682) 
(3Z)-hexenol|1-Hexanal|1-hexanone|4-01-00-03296 (Beilstein Handbook Reference)|5,6-Dideuteriohexanal|66-25-1|861259-78-1|9DC2K31JJQ|A835388|AI3-15364|AKOS009156478|Aldehyde C-6|Aldehydes, C6|BDBM50028824|BP-31180|BRN 0506198|C6 aldehyde|CAPROIC ALDEHYDE [MI]|CAPRONIC ALDEHYDE|CAS-66-25-1|CCRIS 3219|CHEBI:88528|CHEMBL280331|Caproaldehyde|Caproaldehyde; Hexaldehyde|Caproic aldehyde|DB-054893|DTXCID901604|DTXSID2021604|EC 200-624-5|EINECS 200-624-5|EN300-33498|FEMA No. 2557|FEMA Number 2557|FS-3948|H0133|HEXALDEHYDE [HSDB]|HEXANAL [FCC]|HEXANAL [FHFI]|HEXANAL [INCI]|HSDB 560|Hexaldehyde|Hexaldehyde [UN1207]  [Flammable liquid]|Hexanal|Hexanal (natural)|Hexanal 100 microg\/mL in Acetonitrile|Hexanal, 98%|Hexanal, >=97%, FCC, FG|Hexanal, analytical standard|Hexanal, natural, >=90%, FG|Hexoic aldehyde|Hexyl aldehyde|J-660017|Kapronaldehyd|Kapronaldehyd [Czech]|LMFA06000109|MFCD00007027|NCGC00249137-01|NCGC00257270-01|NCGC00259482-01|NS00009211|NSC 2596|NSC-2596|O8Y|Q420698|SCHEMBL22263|STL280331|Tox21_201933|Tox21_303342|UN1207|UNII-9DC2K31JJQ|WLN: VH5|Z234894453|capronaidehyde|hexan-1-al|hexanal|n-C5H11CHO|n-Capronaldehyde|n-Hexanal|n-Hexylaldehyde

>  <cas>  (682) 
66-25-1|861259-78-1

$$$$

     RDKit          2D

 16 15  0  0  0  0  0  0  0  0999 V2000
   -9.5895   -0.2150    0.0000 C   0  0  0  0  0  0  0  0  0  0  0  0
   -8.2710    0.5004    0.0000 C   0  0  0  0  0  0  0  0  0  0  0  0
   -6.9923   -0.2838    0.0000 C   0  0  0  0  0  0  0  0  0  0  0  0
   -5.6739    0.4316    0.0000 C   0  0  0  0  0  0  0  0  0  0  0  0
   -4.3951   -0.3525    0.0000 C   0  0  0  0  0  0  0  0  0  0  0  0
   -3.0767    0.3628    0.0000 C   0  0  0  0  0  0  0  0  0  0  0  0
   -1.7980   -0.4213    0.0000 C   0  0  0  0  0  0  0  0  0  0  0  0
   -0.4795    0.2940    0.0000 C   0  0  0  0  0  0  0  0  0  0  0  0
    0.7992   -0.4901    0.0000 C   0  0  0  0  0  0  0  0  0  0  0  0
    2.1176    0.2253    0.0000 C   0  0  0  0  0  0  0  0  0  0  0  0
    3.3964   -0.5588    0.0000 C   0  0  0  0  0  0  0  0  0  0  0  0
    4.7148    0.1565    0.0000 C   0  0  0  0  0  0  0  0  0  0  0  0
    5.9935   -0.6276    0.0000 C   0  0  0  0  0  0  0  0  0  0  0  0
    7.3120    0.0877    0.0000 C   0  0  0  0  0  0  0  0  0  0  0  0
    7.3517    1.5872    0.0000 O   0  0  0  0  0  0  0  0  0  0  0  0
    8.5907   -0.6964    0.0000 O   0  0  0  0  0  0  0  0  0  0  0  0
  1  2  1  0
  2  3  1  0
  3  4  1  0
  4  5  1  0
  5  6  1  0
  6  7  1  0
  7  8  1  0
  8  9  1  0
  9 10  1  0
 10 11  1  0
 11 12  1  0
 12 13  1  0
 13 14  1  0
 14 15  2  0
 14 16  1  0
M  END
>  <identifier>  (683) 
CNP0262703.0

>  <canonical_smiles>  (683) 
CCCCCCCCCCCCCC(=O)O

>  <standard_inchi>  (683) 
InChI=1S/C14H28O2/c1-2-3-4-5-6-7-8-9-10-11-12-13-14(15)16/h2-13H2,1H3,(H,15,16)

>  <standard_inchi_key>  (683) 
TUNFSRHWOTWDNC-UHFFFAOYSA-N

>  <name>  (683) 
Tetradecanoic acid

>  <iupac_name>  (683) 
tetradecanoic acid

>  <annotation_level>  (683) 
5

>  <total_atom_count>  (683) 
44

>  <heavy_atom_count>  (683) 
16

>  <molecular_weight>  (683) 
228.38

>  <exact_molecular_weight>  (683) 
228.20893

>  <molecular_formula>  (683) 
C14H28O2

>  <alogp>  (683) 
4.77

>  <topological_polar_surface_area>  (683) 
37.30

>  <rotatable_bond_count>  (683) 
12

>  <hydrogen_bond_acceptors>  (683) 
1

>  <hydrogen_bond_donors>  (683) 
1

>  <hydrogen_bond_acceptors_lipinski>  (683) 
1

>  <hydrogen_bond_donors_lipinski>  (683) 
1

>  <lipinski_rule_of_five_violations>  (683) 
0

>  <aromatic_rings_count>  (683) 
0

>  <qed_drug_likeliness>  (683) 
0.49

>  <formal_charge>  (683) 
0

>  <fractioncsp3>  (683) 
0.93

>  <number_of_minimal_rings>  (683) 
0

>  <van_der_walls_volume>  (683) 
256.30

>  <contains_sugar>  (683) 
False

>  <contains_ring_sugars>  (683) 
False

>  <contains_linear_sugars>  (683) 
False

>  <murcko_framework>  (683) 
nan

>  <np_likeness>  (683) 
0.43

>  <chemical_class>  (683) 
Fatty Acyls

>  <chemical_sub_class>  (683) 
Fatty acids and conjugates

>  <chemical_super_class>  (683) 
Lipids and lipid-like molecules

>  <direct_parent_classification>  (683) 
Long-chain fatty acids

>  <np_classifier_pathway>  (683) 
Fatty acids

>  <np_classifier_superclass>  (683) 
Fatty Acids and Conjugates

>  <np_classifier_class>  (683) 
Branched fatty acids

>  <np_classifier_is_glycoside>  (683) 
False

>  <organisms>  (683) 
Aaptos aaptos|Abies nobilis|Abies pinsapo subsp. marocana|Abrus precatorius|Abutilon ramosum|Acacia auriculiformis|Acacia pulchella|Achillea fragrantissima|Achyranthes aspera|Aconitum japonicum|Aconitum kamtschaticum|Aconitum nevadense|Aconitum vilmorinianum|Acorus calamus|Acorus tatarinowii|Acrocomia sclerocarpa|Actaea dahurica|Actaea heracleifolia|Actaea simplex|Actinidia kolomikta|Aegiceras corniculatum|Aesculus hippocastanum|Agaricus integer|Agaricus silvaticus|Agave decipiens|Agelas|Agelas conifera|Agrimonia pilosa|Ajuga bracteosa|Aleuroglyphus ovatus|Alexandrian laurel|Alkanna hirsutissima|Allamanda cathartica|Alliaria petiolata|Allium ampeloprasum|Allium cepa|Allium monspessulanum|Allophylus laevigatus|Aloe africana|Aloe ferox|Aloe spicata|Aloe vera|Alseodaphne corneri|Althaea officinalis|Amaranthus caudatus|Amaranthus cruentus|Amaranthus dubius|Amaranthus hybridus|Amaranthus retroflexus|Amaranthus tricolor|Amphimedon complanata|Amphimedon compressa|Amsinckia menziesii|Amyris marshii|Andinobates fulguritus|Angelica Sinensis|Angelica sinensis|Anisophyllea laurina|Annona impressivenia|Annona squamosa|Antarctic krill|Anthemis aciphylla|Anthemis aciphylla BOISS.var.discoidea BOISS|Antirrhinum majus|Apis cerana|Apium graveolens|Aplysina archeri|Aplysina fistularis|Aplysina lacunosa|Aquilaria agallochum|Aquilaria sinensis|Arabidopsis thaliana|Arachis hypogaea|Arbacia punctulata|Arbutus menziesii|Areca Catechu|Areca catechu|Argania spinosa|Argyreia cuneata|Arisaema tortuosum|Arnica montana|Artemisia Capillaris|Artemisia argyi|Artemisia capillaris|Artemisia monosperma|Artemisia taurica|Aspergillus unguis|Astragalus complanatus|Astragalus hamosus|Attalea colenda|Attalea speciosa|Aulacocephalus temmincki|Avrainvillea nigricans|Azima tetracantha|Basella alba|Benincasa hispida|Berberis sieboldii|Bersama yangambiensis|Bistorta manshuriensis|Bistorta officinalis|Boa constrictor|Bombax ceiba|Bombax malabaricum|Boronella koniambiensis|Brachyspira hyodysenteriae|Brachystegia nigerica|Brassica hirta|Brassica oleracea var. sabauda|Brevibacillus laterosporus|Bruguiera gymnorhiza|Brunfelsia americana|Buchenavia tetraphylla|Buddleja variabilis|Bunodactis xanthogrammica|Cachrys sicula|Caenorhabditis elegans|Calea megacephala|Callyspongia fallax|Calodendrum capense|Calophyllum Inophyllum|Calophyllum calaba|Calophyllum inophyllum|Camellia sinensis|Camptotheca acuminata|Canarium album|Canarium strictum|Canavalia ensiformis|Cannabis sativa|Capparis spinosa var. ovata|Capsella bursa-pastoris|Capsicum annuum|Carapax trionycis|Carica papaya|Carthamus Tinctorius|Carthamus lanatus|Carthamus tinctorius|Cassia fistula|Cassia javanica|Castanopsis sclerophylla|Catalpa bignonioides|Catharanthus roseus|Caulis perillae frutescentis|Celosia cristada|Celtis australis|Cephalonoplos segetum|Ceramium botryocarpum|Cereus chrysacanthus|Cervicornia cuspidifera|Chamerion dodonaei|Chamomilla recutita|Chlamydomonas reinhardtii|Chondrosia reniformis|Chromodoris obsoleta|Chrozophora obliqua|Chrozophora plicata|Chrozophora tinctoria|Chrozophora verbascifolia|Chrysanthemum indicum|Chrysanthemum x morifolium|Cimicifuga foetida|Cinnamomum parthenoxylon|Cinnamosma madagascariensis|Cistus creticus|Citrullus colocynthis|Citrullus lanatus|Citrullus lanatus subsp. vulgaris|Citrus reticulata|Citrus unshiu|Citrus × deliciosa|Clematis chinensis|Cleome amblyocarpa|Cnidium monnieri|Cnidoscolus texanus|Cocos nucifera|Codonopsis pilosula|Coelogorgia palmosa|Coeloseira pacifica|Coix lacryma- jobi var. ma - yuen|Comaster multifida|Combretum indicum|Conioselinum vaginatum|Conocephalum japonicum|Cordia sinensis|Cordylanthus kingii|Cordyline indivisa|Coreopsis grandiflora|Coriandrum sativum|Coronophora gregaria|Corydalis cornuta|Crinipellis scabella|Crocus sativus|Croton Tiglium|Croton cumingii|Croton jimenezii|Croton tiglium|Cryptomeria japonica|Cryptostegia grandiflora|Cucumis callosus|Cucumis melo|Cucumis sativus|Cucurbita foetidissima|Cucurbita maxima|Cuphea carthagenensis|Curcuma amada|Curcuma amanda Roxb|Curcuma aromatica|Curcuma kwangsiensis|Curcuma longa|Curcuma phaeocaulis|Curcuma wenyujin|Cyamopsis tetragonoloba|Cynomorium songaricum|Cyperus erectus|Cystoclonium purpureum|Cystophora scalaris|Dacrydium biforme|Daldinia concentrica|Daphne odora|Daphnia magna|Delonix regia|Delphinium campylocentrum|Delphinium staphisagria|Diascia cordata|Diascia integerrima|Diascia megathura|Diascia purpurea|Diascia vigilis|Dichotomopilus funicola|Dictamnus albus|Didemnum inarmatum|Dioscorea|Diospyros kaki|Diospyros montana|Diplospora dubia|Dipteronia dyeriana|Disepalum plagioneurum|Disynaphia halimifolia|Dodonaea polyandra|Doodia picta|Dovyalis afra|Drymaria cordata|Dryopteris assimilis|Dryopteris carthusiana|Dryopteris expansa|Dryopteris filix-mas|Dryopteris spinulosa|Drypetes roxburghii|Duhaldea cappa|Echiochilon pauciflorum|Ectropis bicolor|Elaeagnus angustifolia|Elaeis guineensis|Elettaria cardamomum|Embelia schimperi|Ephedra sinica|Epilobium dodonaei|Eragrostis viscosa|Eremophila serrulata|Eria tomentosa|Erigeron alpinus|Erinaceus europaeus|Erucaria microcarpa|Erylus formosus|Erythrina suberosa|Erythroxylum monogynum|Escherichia coli|Esenbeckia nesiotica|Esox saurus|Etlingera elatior|Eucalyptus froggattii|Eucalyptus globulus|Eucalyptus risdoni|Eucalyptus risdonii|Eunicella cavolinii|Euphorbia helioscopia|Euphorbia hirta|FOOD SAKE|Fagopyrum esculentum|Fagopyrum tataricum|Fernandoa adenophylla|Festuca arundinacea|Festuca rubra|Ficus carica|Firmiana pallens|Flaveria bidentis|Flos mume|Formica fusca|Forsteronia refracta|Fridericia chica|Fructus amomi|Fructus amomi rotundus|Fructus choerospondiatis|Fructus syzygii|Fructus terminaliae|Fructus terminaliae billericae|Fructus terminaliae preparata|Frullania anomala|Frullania incumbens|Frullania lobulata|Frullania probosciphora|Frullania scandens|Frullania spinifera|Fumaria kraliki|Fumaria vaillantii|Funtumia elastica|Fusarium fujikuroi|Ganoderma applanatum|Ganoderma australe|Ganoderma lucidum|Garcinia dulcis|Garcinia lateriflora|Garcinia macrophylla|Garcinia xanthochymus|Gardenia jasminoides|Gibberella fujikuroi|Ginkgo biloba|Gladiolus italicus|Glechoma grandis|Glechoma longituba|Gleditsia triacanthos|Glehnia littoralis|Glycine max|Gmelina arborea|Gnetum edule|Gnetum parvifolium|Gossypium barbadense|Gossypium hirsutum|Gouania microcarpa|Grewia mollis|Grindelia nana|Gryllotalpa orientalis|Gymnanthemum amygdalinum|Gymnocarpium robertianum|Gymnodinium nagasakiense|Hakea saligna|Halichondriidae|Haliclona compressa|Halopitys incurvus|Haloxylon salicornicum|Haminoea templadoi|Hansenia forbesii|Hansenia weberbaueriana|Helianthus annuus|Helichrysum nudifolium|Heliotropium floridum|Helipterum tenellum|Heterotheca grandiflora|Hibiscus|Hibiscus cannabinus|Hibiscus sabdariffa|Hibiscus syriacus|Hippophae rhamnoides|Hipppophae rhamnoides|Hirschfeldia incana|Homo sapiens|Horsfieldia irya|Houttuynia Cordata|Houttuynia cordata|Houttuynia emeiensis|Hovenia acerba|Hoya australis|Hoya bandaensis|Hoya bella|Hoya cinnamomifolia|Hoya coronaria|Hoya crassipes|Hoya diversifolia|Hoya fraterna|Hoya imperialis|Hoya lacunosa|Hoya latifolia|Hoya longifolia|Hoya macrophylla|Hoya multiflora|Hoya obovata|Hoya ovalifolia|Hoya pseudolanceolata|Hoya shepherdii|Hoya tsangii|Hydnora abyssinica|Hydnora johannis|Hyella caespitosa|Hymenaea oblongifolia|Hyoscyamus niger|Hypericum ericoides|Hypericum maculatum|Hypericum olympicum|Hypericum perfoliatum|Hypericum perforatum|Hypericum tomentosum|Hypoxis nyasica|Hyptis tomentosa|Imperata cylindrica|Inula britannica var.chinensis|Inula grandis|Inula helenium|Ipomoea cristulata|Iris|Iris flomentina|Iris florentina|Iris tectorum|Irvingia gabonensis|Isatis tinctoria|Isoberlinia angolensis|Isodon japonica var. glaucocalyx|Ixora coccinea|Jasminum azoricum|Jasminum fluminense|Jasminum grandiflorum|Jaspis stellifera|Jatropha curcas|Jatropha gossypiifolia|Juglans nigra|Juglans regia|Juniperus phoenicea|Justicia trinervia|Kaempferia marginata|Karenia mikimotoi|Kaunia saltensis|Kryptoperidinium foliaceum|Lachnoanaerobaculum saburreum|Lactuca serriola|Laminaria japonica|Lantana camara|Lathraea squamaria|Lecanora lividocinerea|Leea guineense|Leea guineensis|Lens phaseoloides|Lepidium bonariense|Lepidium meyenii|Lepidonia jonesii|Lepista irina|Leptolyngbya tenuis|Leptothorax acervorum|Lespedeza cyrtobotrya|Leucanthemum maximum|Leucas volkensii|Leucopaxillus giganteus|Lindera neesiana|Linum usitatissimum|Lobelia chinensis|Lonicera japonica|Lophozonia menziesii|Lumbricus terrestris|Lycium barbarum|Lycium chinense|Lygodium japonicum|Macadamia integrifolia|Macaranga sinensis|Magnolia liliiflora|Magnolia obovata|Malva pucheina|Malvaviscus arboreus|Mandragora autumnalis|Mandragora officinarum|Mangifera indica|Matricaria chamomilla|Maytenus loeseneri|Maytenus serrata|Melaleuca quinquenervia|Melaleuca uncinata|Melandrium firmum|Melia azedarach var. toosendan|Melia indica|Melia toosendan|Mentha pulegiformis|Mentha spicata|Mikania banisteriae|Mikania congesta|Mikania cordifolia|Mikania parviflora|Mirabilis jalapa|Mitracarpus hirtus|Momordica charantia|Monascus purpureus|Monodora angolensis|Monomorium floricola|Mortierella alpina|Morus alba var. atropurpurea|Morus alba var. multicaulis|Morus cathayana|Murraya kwangsiensis|Murraya paniculata|Myristica Fragrans|Myristica fragrans|Myristica moschata|Myrmekioderma rea|Nannochloropsis|Nanodea muscosa|Narcissus concolor|Narthecium ossifragum|Nauclea officinalis|Nelumbo lutea|Nelumbo nucifera|Nepeta cataria|Nepeta trachonitica|Nephroma australe|Nicotiana tabacum|Nierembergia aristata|Nigella sativa|Nigrospora oryzae|Nigrospora sphaerica|Notopterygium incisum|Odontites rubra|Oecophylla smaragdina|Oldenlandia diffusa|Oncoba echinata|Ongokea klaineana|Ononis natrix|Ophiocordyceps sinensis|Ophiolepis superba|Ophioparma ventosa|Ophiorrhiza blumeana|Orbignya martiana|Oryza sativa|Osmundaria colensoi|Ostericum grosseserratum|Otoba novogranatensis|Otostegia fruticosa|Paederia scandens|Panax ginseng|Panax notoginseng|Panax quinquefolius|Pancratium trianthum|Pandanus conoideus Lam|Papilio phorcas|Parabenzoin trilobum|Paranephelius uniflorus|Pardachirus pavoninus|Patrinia scabiosifolia|Patrinia villosa|Pelargonium endlicherianum|Penicillium urticae|Pentaclethra macrophylla|Pericarpium arecae|Perilla frutescens var. hirtella|Periploca forrestii|Persea indica|Persicaria hydropiperoides|Persicaria minor|Petalostemon purpureum|Petrosia pellasarca|Peucedanum palustre|Phalaenopsis aphrodite|Phaseolus lunatus|Phegopteris bukoensis|Philadelphia fleabane|Phycomyces blakesleeanus|Physalis solanaceus|Phytolacca acinosa|Picris radicata|Pinus picea|Pinus pumila|Pinus radiata|Piper aequale|Piper pedicellosum|Pipestela terpenensis|Piptostigma fugax|Pistacia mexicana|Plakinastrella clathrata|Plantago Major|Plantago major|Plantago ovata|Plastrum testudinis|Plectranthus mollis|Plumeria rubra|Podadenia thwaitesii|Podocarpus amarus|Podocarpus salignus|Polycephalomyces nipponicus|Polygala senega|Polygonatum odoratum|Polygonum Minus|Polygonum minus|Polyphaga sinensis|Pongamia pinnata|Porphyra tenera|Portulaca oleracea|Potebniamyces gallicola|Primula hirsuta|Proiphys amboinensis|Prosopis ruscifolia|Prostanthera prunelloides|Prunus Armeniaca|Prunus africana|Prunus armeniaca|Prunus avium|Prunus dulcis|Prunus persica|Pseudomonas chlororaphis|Pseudosuberites|Psidium friedrichsthalianum|Psidium guajava|Psoralea Corylifolia|Psoralea corylifolia|Psychotria bahiensis|Ptelea crenulata|Ptilota pectinata|Punica granatum|Pyrola japonica|Radix euphorbiae pekinensis|Radix smilacis|Ranunculus ternatus|Raphanus sativus|Rehmannia Glutinosa|Rehmannia glutinosa|Rhabdophis tigrinus|Rhodiola rosea|Rhodiola rosea L.|Rhododendron aureum|Rhododendron ferrugineum|Rhodomicrobium vannielii|Rhodotypos scandens|Rodgersia podophylla|Rosa platyacantha|Rubrivivax gelatinosus|Rubus alceifolius|Ruellia tuberosa|Rusavskia elegans|Ruta pinnata|Sabal minor|Saccharomyces cerevisiae|Saccharothrix mutabilis|Salpa thompsoni|Salvadora oleoides|Salvadora persica|Salvia dorrii|Salvia fruticosa|Salvia hispanica|Salvia nubicola|Salvia officinalis|Salvia triloba|Sansevieria ehrenbergii|Saussurea involucrata|Saxifraga Stolonifera|Saxifraga stolonifera|Saxifraga stolonifera Meerb.|Scapania nemorea|Schistostephium rotundifolium|Scutellaria baicalensis|Scutellaria barbata|Scytosiphon lomentaria|Semen astragali complanati|Senecio scandens|Senegalia catechu|Senna alexandrina|Senna didymobotrya|Senna siamea|Serenoa repens|Shigella flexneri|Sideritis curvidens|Sideritis montana|Sideritis syriaca|Sideritis taurica|Silybum marianum|Siphocampylus verticillatus|Sipunculus nudus|Smenospongia aurea|Smenospongia echina|Solanum chacoense|Sonneratia alba|Sophora angustifolia|Sophora viciifolia|Spongiporus leucomallellus (Murril)|Sraitia grosvenorii|Staphisagria macrosperma|Sterculia setigera|Sterculia tomentosa|Sterculia tragacantha|Stevia polycephala|Stichopus horrens|Streptomyces atratus|Streptomyces caelestis|Streptomyces fervens|Streptomyces lavendulae|Streptomyces misawanensis|Streptomyces parvisporogenes|Streptomyces rochei|Streptomyces sp. NP10|Streptomyces sp. SCA3-4|Streptomyces sp. mNP10|Streptomyces sp. mNP10_C12-2|Streptomyces sundarbansensis|Stuckenia pectinata|Suaeda aegyptiaca|Suberites massa|Syagrus romanzoffiana|Syzygium cumini|Talaromyces coalescens|Talaromyces flavus|Talaromyces vermiculatus|Taonia atomaria|Taraxacum mongolicum|Tectitethya crypta|Tephroseris integrifolia|Terminalia chebula|Terminalia pallida|Tetrapanax papyrifer|Teucrium depressum|Teucrium fragile|Teucrium orientale|Thalictrum revolutum|Thymbra capitata|Thymus capitatus|Thymus piperella|Tilia cordata Mill.|Tilia mandshurica|Tilia platyphyllos|Tilia rubra|Tilia tomentosa|Tordylium apulum|Trachycarpus fortunei|Treculia africana|Trichilia dregeana|Trichilia rubescens|Trichoderma citrinum|Trichodesma zeylanicum|Trichosanthes Kirilowi|Trichosanthes kirilowii|Trichosanthes rosthornii|Trifolium pratense|Tripneustes esculentus|Triticum durum|Turnera ulmifolia|Ulva prolifera|Ulva rigid|Umbilicaria cinereorufescens|Usnea florida|Uvaria ferruginea|Vallaris solanacea|Veltheimia viridifolia|Vepris pilosa|Veratrum stenophyllum|Vernonanthura chamaedrys|Veronica anagallis-aquatica|Viburnum chingii|Viburnum opulus|Vincetoxicum pycnostelma|Vincetoxicum stauntonii|Virola bicuhyba|Virola surinamensis|Viscum coloratum|Vitex Trifolia|Vitex negundo|Vitex trifolia|Vitis vinifera|Vouacapoua macropetala|Xanthostemon oppositifolius|Xestospongia muta|Xylopia aethiopica|Zanthoxylum chiriquinum|Zingiber officinale|Ziziphora pedicellata|Ziziphus jujuba|Ziziphus jujuba var. spinosa|Ziziphus spina-christi|Zygosaccharomyces rouxii|bellis perennis|chia|common dandelion|common sunflower|garlic|giraffe|liquorice|peanut|pomegranate|sesame|snap bean

>  <collections>  (683) 
ANPDB|Australian natural products|CMAUP (cCollective molecular activities of useful plants)|ChEBI NPs|DrugBankNP|EMNPD|ETM (Ethiopian Traditional Medicine) DB|Exposome-explorer|FooDB|HIT (Herbal Ingredients Targets)|KNApSaCK|Latin America dataset|Marine Natural Products|NANPDB (Natural Products from Northern African Sources)|NAPRORE-CR|NPASS|NPDBEjeCol|NPEdia|NuBBEDB|PeruNPDB|Phyto4Health|PubChem NPs|SANCDB|StreptomeDB|Super Natural II|TCMDB-Taiwan (Traditional Chinese Medicine database)|TCMID (Traditional Chinese Medicine Integrated Database)|TIPdb (database of Taiwan indigenous plants)|UEFS (Natural Products Databse of the UEFS)|UNPD (Universal Natural Products Database)|VietHerb|Watermelon|WikiData Natural Products

>  <dois>  (683) 
10.1002/(SICI)1097-0045(199605)28:5<300::AID-PROS5>3.0.CO;2-F|10.1002/(SICI)1097-0231(20000415)14:7<608::AID-RCM918>3.0.CO;2-4|10.1002/(SICI)1099-1573(199906)13:4<329::AID-PTR458>3.0.CO;2-U|10.1002/1099-1026(200005/06)15:3<182::AID-FFJ888>3.0.CO;2-X|10.1002/1099-1565(200011/12)11:6<345::AID-PCA540>3.0.CO;2-T|10.1002/CBER.188501802166|10.1002/CBER.18850180241|10.1002/CHIN.197139400|10.1002/EJLT.200900231|10.1002/EJLT.201000080|10.1002/EJLT.201000369|10.1002/EJLT.201100207|10.1002/FFJ.1187|10.1002/FFJ.2730060314|10.1002/FFJ.2730070108|10.1002/FFJ.2730080506|10.1002/FFJ.2730100408|10.1002/FFJ.958|10.1002/JHRC.1240090210|10.1002/JLAC.18540910312|10.1002/JPS.2600570840|10.1002/JSFA.2731|10.1002/JSFA.2740430111|10.1002/JSFA.2740580219|10.1002/JSFA.2740600217|10.1002/LIPI.19780800603|10.1002/LIPI.19800820608|10.1002/LIPI.19820841009|10.1002/LIPI.19840860106|10.1002/LIPI.19850870507|10.1002/LIPI.19850870809|10.1002/LIPI.19860880305|10.1002/LIPI.19860880806|10.1002/LIPI.2700971106|10.1002/PTR.2137|10.1002/PTR.2650030406|10.1002/ejlt.201000080|10.1002/ejlt.201000369|10.1002/ejlt.201100207|10.1002/jsfa.2731|10.1006/JFCA.2000.0968|10.1007/978-0-85729-323-7_1884|10.1007/978-3-540-71095-0_6175|10.1007/978-3-540-71095-0_9380|10.1007/BF00249109|10.1007/BF00563626|10.1007/BF00563628|10.1007/BF00564338|10.1007/BF00564453|10.1007/BF00565786|10.1007/BF00566112|10.1007/BF00568713|10.1007/BF00573559|10.1007/BF00579976|10.1007/BF00580077|10.1007/BF00629959|10.1007/BF00630128|10.1007/BF00711898|10.1007/BF00713311|10.1007/BF00714911|10.1007/BF01165189|10.1007/BF02065988|10.1007/BF02249626|10.1007/BF02249627|10.1007/BF02249628|10.1007/BF02249629|10.1007/BF02249647|10.1007/BF02531935|10.1007/BF02533484|10.1007/BF02535240|10.1007/BF02535668|10.1007/BF02536001|10.1007/BF02536002|10.1007/BF02536024|10.1007/BF02537064|10.1007/BF02540958|10.1007/BF02541498|10.1007/BF02541638|10.1007/BF02542627|10.1007/BF02578249|10.1007/BF02636360|10.1007/BF02653292|10.1007/BF02657547|10.1007/BF02660163|10.1007/BF02662286|10.1007/BF02662425|10.1007/BF02663950|10.1007/BF02666050|10.1007/BF03048845|10.1007/BF03183920|10.1007/S10600-006-0002-0|10.1007/S10600-006-0004-Y|10.1007/S10600-010-9595-4|10.1007/S10600-010-9690-6|10.1007/S11306-016-1051-4|10.1007/S11746-009-1435-Y|10.1007/s11746-009-1435-y|10.1016/0021-9673(95)00734-2|10.1016/0031-9422(71)85055-0|10.1016/0031-9422(82)83099-9|10.1016/0031-9422(82)83106-3|10.1016/0031-9422(83)85064-X|10.1016/0031-9422(86)88045-1|10.1016/0031-9422(86)88046-3|10.1016/0031-9422(88)80613-7|10.1016/0031-9422(89)80381-4|10.1016/0031-9422(90)83036-Z|10.1016/0031-9422(90)85049-L|10.1016/0031-9422(91)80030-5|10.1016/0031-9422(91)83625-U|10.1016/0031-9422(91)84185-U|10.1016/0031-9422(91)85017-T|10.1016/0031-9422(92)80160-G|10.1016/0031-9422(93)85164-M|10.1016/0031-9422(94)00675-J|10.1016/0031-9422(94)00848-N|10.1016/0031-9422(95)00183-8|10.1016/0031-9422(95)00357-D|10.1016/0031-9422(95)00494-R|10.1016/0031-9422(96)00146-X|10.1016/0031-9422(96)00236-1|10.1016/0889-1575(91)90017-Z|10.1016/B978-0-9830791-2-5.50018-9|10.1016/J.ARABJC.2013.10.019|10.1016/J.CHROMA.2004.03.057|10.1016/J.ENVINT.2009.12.006|10.1016/J.FCT.2008.07.017|10.1016/J.FITOTE.2004.09.018|10.1016/J.FOODCHEM.2004.05.018|10.1016/J.FOODCHEM.2006.01.003|10.1016/J.FOODCHEM.2014.10.145|10.1016/J.FOODCHEM.2019.125649|10.1016/J.PHYMED.2007.03.018|10.1016/J.PHYTOCHEM.2003.08.014|10.1016/J.PHYTOCHEM.2005.06.009|10.1016/J.PHYTOCHEM.2005.07.016|10.1016/J.PHYTOCHEM.2005.10.025|10.1016/J.PHYTOCHEM.2007.12.012|10.1016/J.PHYTOCHEM.2009.06.013|10.1016/J.PHYTOL.2013.09.001|10.1016/J.SAJB.2011.09.010|10.1016/J.SCIENTA.2010.10.027|10.1016/S0021-9673(96)00802-3|10.1016/S0031-9422(00)80558-0|10.1016/S0031-9422(00)82606-0|10.1016/S0031-9422(00)83494-9|10.1016/S0031-9422(00)84973-0|10.1016/S0031-9422(00)85174-2|10.1016/S0031-9422(00)85489-8|10.1016/S0031-9422(00)85511-9|10.1016/S0031-9422(00)85526-0|10.1016/S0031-9422(00)88097-8|10.1016/S0031-9422(00)88402-2|10.1016/S0031-9422(00)88480-0|10.1016/S0031-9422(00)89578-3|10.1016/S0031-9422(00)94835-0|10.1016/S0031-9422(02)00004-3|10.1016/S0031-9422(02)00542-3|10.1016/S0031-9422(03)00466-7|10.1016/S0031-9422(97)00265-3|10.1016/S0031-9422(98)00111-3|10.1016/S0090-4295(99)00549-X|10.1016/S0271-5317(05)80784-5|10.1016/S0305-1978(02)00037-6|10.1016/S0305-1978(02)00076-5|10.1016/S0305-1978(97)00097-5|10.1016/S0367-326X(01)00327-6|10.1016/S0367-326X(99)00057-X|10.1016/S0378-8741(02)00172-1|10.1016/S0896-8446(01)00110-3|10.1016/S0926-6690(99)00036-9|10.1016/S0944-7113(11)80030-9|10.1016/S0944-7113(99)80063-4|10.1016/S0953-7562(09)80038-5|10.1016/S0960-8524(98)00190-4|10.1016/j.chroma.2010.10.052|10.1016/j.foodchem.2004.05.018|10.1016/j.foodres.2018.04.064|10.1016/j.jep.2014.08.010|10.1016/j.micres.2018.01.003|10.1016/j.phytol.2016.03.003|10.1016/j.renene.2010.10.009|10.1016/j.scienta.2010.10.027|10.1021/BK-2002-0803.CH009|10.1021/JF00010A013|10.1021/JF00026A027|10.1021/JF00069A012|10.1021/JF00071A034|10.1021/JF00107A004|10.1021/JF00111A021|10.1021/JF00120A031|10.1021/JF00123A022|10.1021/JF00125A035|10.1021/JF60216A022|10.1021/JF60231A019|10.1021/JO00275A032|10.1021/JO00364A024|10.1021/NP000537Q|10.1021/NP010073B|10.1021/NP020513E|10.1021/NP50008A001|10.1021/NP50009A007|10.1021/NP50029A027|10.1021/NP50034A036|10.1021/NP50070A010|10.1021/NP50073A041|10.1021/NP50073A043|10.1021/NP50075A009|10.1021/NP50081A009|10.1021/NP50090A013|10.1021/NP50100A032|10.1021/NP50102A012|10.1021/NP50107A008|10.1021/NP50120A005|10.1021/acsfoodscitech.1c00262|10.1021/jf00120a031|10.1021/jf011456i|10.1021/jf0706979|10.1021/jf101029a|10.1021/jf803627t|10.1021/np000620d|10.1023/B:CONC.0000018118.52743.A8|10.1038/NBT.2488|10.1038/S41598-019-56580-Y|10.1039/JR9390001015|10.1051/CTV/20163101031|10.1055/S-0028-1097591|10.1055/S-0028-1097643|10.1055/S-0028-1097819|10.1055/S-0028-1099423|10.1055/S-0028-1099467|10.1055/S-0028-1099537|10.1055/S-0028-1099547|10.1055/S-0028-1099554|10.1055/S-0028-1100226|10.1055/S-2006-957965|10.1055/S-2006-958019|10.1055/S-2006-959585|10.1055/S-2006-960872|10.1055/S-2007-969987|10.1071/CH9640464|10.1076/1388-0209(200004)3821-1FT106|10.1080/00021369.1988.10868804|10.1080/00021369.1990.10870456|10.1080/09637480410001725175|10.1080/0972060X.2014.895210|10.1080/10412905.1991.9697932|10.1080/10412905.1991.9697935|10.1080/10412905.1992.9698080|10.1080/10412905.1993.9698167|10.1080/10412905.1993.9698191|10.1080/10412905.1993.9698251|10.1080/10412905.1994.9699345|10.1080/10412905.1995.9698462|10.1080/10412905.1996.9700565|10.1080/10412905.1999.9701059|10.1080/10412905.1999.9701158|10.1080/10412905.2002.9699883|10.1080/13880209.2016.1184691|10.1080/14786419.2010.523827|10.1080/14786419.2014.883396|10.1080/15592324.2016.1249080|10.1088/1752-7155/8/1/014001|10.1104/PP.84.3.643|10.1111/J.1365-2621.1985.TB13019.X|10.1111/TPJ.12747|10.1111/j.1753-4887.2012.00478.x|10.1111/tpj.12747|10.1135/CCCC19920408|10.1142/S0192415X87000151|10.1155/2017/2840718|10.1201/B14669-29|10.1248/BPB.21.657|10.1248/BPB.23.359|10.1248/CPB.34.4562|10.1248/CPB.35.2880|10.1248/CPB.38.812|10.1248/CPB.41.1863|10.1248/CPB.54.222|10.1248/CPB.54.725|10.1248/YAKUSHI1947.103.9_997|10.1248/YAKUSHI1947.85.5_469|10.1248/YAKUSHI1947.97.12_1372|10.1271/BBB.57.1350|10.1271/BBB.61.51|10.1271/BBB1961.45.507|10.1271/BBB1961.47.483|10.1271/BBB1961.51.1449|10.1271/BBB1961.52.1299|10.1271/BBB1961.52.2379|10.1271/BBB1961.54.3335|10.1271/NOGEIKAGAKU1924.61.1119|10.1300/J044V05N02_05|10.1371/journal.pone.0070803|10.1515/BCHM2.1965.341.1.192|10.15517/am.v31i1.37574|10.1590/S0102-695X2011005000107|10.19026/AJFST.11.2408|10.21608/BFSA.1985.75704|10.21608/BFSA.1985.75705|10.21608/BFSA.1985.75707|10.21608/BFSA.1985.75886|10.21608/ZJPS.1994.186612|10.21608/ZJPS.1997.169710|10.2307/30047228|10.31003/USPNF_M20430_03_01|10.3109/08958378.2013.878005|10.3109/10915819309140647|10.3109/13880208309070615|10.3109/13880208409070644|10.3109/13880208509070678|10.32388/D0O6OH|10.3389/FMICB.2018.01302|10.3389/FMICB.2019.01390|10.3389/FMOLB.2018.00096|10.3389/fmicb.2018.01302|10.3389/fmicb.2019.01390|10.3390/MOLECULES191119220|10.3390/MOLECULES22101606|10.3390/molecules27020483|10.3945/AJCN.111.020107|10.4038/JNSFSR.V10I2.8431|10.4038/JNSFSR.V22I3.8132|10.4103/0973-1296.99287|10.4197/SCI.16-1.4|10.4314/BCSE.V15I1.71732|10.5219/332|10.5650/JOS1956.25.561|10.5650/jos.ess20128|10.5962/BHL.TITLE.108605

>  <synonyms>  (683) 
0I3V7S25AW|1-Tridecanecarboxylate|1-Tridecanecarboxylic acid|1-tetradecanecarboxylic acid|32112-52-0|3usx|3v2n|3w9k|4-02-00-01126 (Beilstein Handbook Reference)|544-63-8|62217-70-3|AC-34674|ACIDO MYNISTICO|AI3-15381|AKOS009156714|Acid, Myristic|Acid, Tetradecanoic|BDBM50147581|BP-27915|BRN 0508624|C06424|C14:0|CAS-544-63-8|CCG-266785|CCRIS 4724|CH3-(CH2)12-COOH|CH3-[CH2]12-COOH|CHEBI:28875|CHEMBL111077|CS-0018531|Crodacid|DB08231|DS-3833|DTXCID501666|DTXSID6021666|EDAE4876-C383-4AD4-A419-10C0550931DB|EINECS 208-875-2|EINECS 250-924-5|EN300-78099|Edenor C 14|Emery 655|Epitope ID:176772|F8889-5016|FA 14:0|FEMA No. 2764|G74510|GTPL2806|HMS3039E15|HMS3648O20|HSDB 5686|HY-N2041|Hydrofol acid 1495|Hystrene 9014|IS_D27-TETRADECANOIC ACID|LMFA01010014|M0476|MAGNESIUMARSENATE|MFCD00002744|MLS002152942|MYRISTIC ACID|MYRISTIC ACID (CONSTITUENT OF SAW PALMETTO)|MYRISTIC ACID (II)|MYRISTIC ACID (MART.)|MYRISTIC ACID (USP-RS)|MYRISTIC ACID [FCC]|MYRISTIC ACID [FHFI]|MYRISTIC ACID [HSDB]|MYRISTIC ACID [II]|MYRISTIC-14-13C ACID|Myristate|Myristic Acid, Reagent|Myristic acid|Myristic acid (14:0)|Myristic acid (8CI)|Myristic acid (natural)|Myristic acid [NF]|Myristic acid, 95%|Myristic acid, >=95%, FCC, FG|Myristic acid, >=98.0% (GC)|Myristic acid, Pharmaceutical Secondary Standard; Certified Reference Material|Myristic acid, Sigma Grade, >=99%|Myristic acid, United States Pharmacopeia (USP) Reference Standard|Myristic acid, Vetec(TM) reagent grade, 98%|Myristic acid, analytical standard|Myristic acid, pure|Myristic acid, puriss.|MyristicAcid-13C14|Myristinsaeure|NAA 104|NAA 142|NCGC00091068-01|NCGC00256547-01|NCGC00259401-01|NS00010444|NSC 122834|NSC 5028|NSC-5028|PHILACID-1400|PRIFRAC-2942|Philacid 1400|Prifac 2942|Q422658|SCHEMBL6374|SMR001224536|SR-01000854525|STL185697|TETRADECANSAEURE|Tetradecanoic (Myristic) acid|Tetradecanoic acid (9CI)|Tetradecanoic acid; 1-Tridecanecarboxylic acid; n-Tetradecanoic acid|Tox21_201852|Tox21_302781|UNII-0I3V7S25AW|Univol U 316S|W-109088|WLN: QV13|Z1954802504|acide tetradecanoique|bmse000737|fatty acid 14:0|myristoate|myristoic acid|n-Myristic acid|n-Tetradecanoate|n-Tetradecanoic acid|n-tetradecan-1-oate|s5617|tetradecoic acid

>  <cas>  (683) 
544-63-8|32112-52-0|62217-70-3

$$$$

     RDKit          2D

 21 22  0  0  0  0  0  0  0  0999 V2000
   -1.4969    3.7429    0.0000 C   0  0  0  0  0  0  0  0  0  0  0  0
   -1.8164    2.2773    0.0000 O   0  0  0  0  0  0  0  0  0  0  0  0
   -0.7070    1.2678    0.0000 C   0  0  0  0  0  0  0  0  0  0  0  0
    0.7220    1.7239    0.0000 C   0  0  0  0  0  0  0  0  0  0  0  0
    1.8315    0.7144    0.0000 C   0  0  0  0  0  0  0  0  0  0  0  0
    1.5120   -0.7512    0.0000 C   0  0  0  0  0  0  0  0  0  0  0  0
    2.6215   -1.7606    0.0000 C   0  0  0  0  0  0  0  0  0  0  0  0
    4.0504   -1.3046    0.0000 C   0  0  0  0  0  0  0  0  0  0  0  0
    4.3699    0.1610    0.0000 C   0  0  0  0  0  0  0  0  0  0  0  0
    5.1714    1.4289    0.0000 C   0  0  0  0  0  0  0  0  0  0  0  0
    5.7578   -0.4081    0.0000 C   0  0  0  0  0  0  0  0  0  0  0  0
    3.2605    1.1705    0.0000 O   0  0  0  0  0  0  0  0  0  0  0  0
    0.0830   -1.2072    0.0000 C   0  0  0  0  0  0  0  0  0  0  0  0
   -0.2365   -2.6728    0.0000 O   0  0  0  0  0  0  0  0  0  0  0  0
   -1.6655   -3.1289    0.0000 C   0  0  0  0  0  0  0  0  0  0  0  0
   -1.0265   -0.1978    0.0000 C   0  0  0  0  0  0  0  0  0  0  0  0
   -2.4555   -0.6538    0.0000 C   0  0  0  0  0  0  0  0  0  0  0  0
   -3.5649    0.3556    0.0000 C   0  0  0  0  0  0  0  0  0  0  0  0
   -4.9939   -0.1004    0.0000 C   0  0  0  0  0  0  0  0  0  0  0  0
   -5.3134   -1.5660    0.0000 O   0  0  0  0  0  0  0  0  0  0  0  0
   -6.1034    0.9090    0.0000 O   0  0  0  0  0  0  0  0  0  0  0  0
  1  2  1  0
  2  3  1  0
  3  4  2  0
  4  5  1  0
  5  6  2  0
  6  7  1  0
  7  8  2  0
  8  9  1  0
  9 10  1  0
  9 11  1  0
  9 12  1  0
  6 13  1  0
 13 14  1  0
 14 15  1  0
 13 16  2  0
 16 17  1  0
 17 18  1  0
 18 19  1  0
 19 20  2  0
 19 21  1  0
 16  3  1  0
 12  5  1  0
M  END
>  <identifier>  (684) 
CNP0309253.0

>  <canonical_smiles>  (684) 
COC1=CC2=C(C=CC(C)(C)O2)C(OC)=C1CCC(=O)O

>  <standard_inchi>  (684) 
InChI=1S/C16H20O5/c1-16(2)8-7-11-13(21-16)9-12(19-3)10(15(11)20-4)5-6-14(17)18/h7-9H,5-6H2,1-4H3,(H,17,18)

>  <standard_inchi_key>  (684) 
HRPQBIHMKOZZMR-UHFFFAOYSA-N

>  <name>  (684) 
3-(5,7-dimethoxy-2,2-dimethyl-chromen-6-yl)propanoic acid

>  <iupac_name>  (684) 
3-(5,7-dimethoxy-2,2-dimethyl-chromen-6-yl)propanoic acid

>  <annotation_level>  (684) 
5

>  <total_atom_count>  (684) 
41

>  <heavy_atom_count>  (684) 
21

>  <molecular_weight>  (684) 
292.33

>  <exact_molecular_weight>  (684) 
292.13107

>  <molecular_formula>  (684) 
C16H20O5

>  <alogp>  (684) 
2.91

>  <topological_polar_surface_area>  (684) 
64.99

>  <rotatable_bond_count>  (684) 
5

>  <hydrogen_bond_acceptors>  (684) 
4

>  <hydrogen_bond_donors>  (684) 
1

>  <hydrogen_bond_acceptors_lipinski>  (684) 
4

>  <hydrogen_bond_donors_lipinski>  (684) 
1

>  <lipinski_rule_of_five_violations>  (684) 
0

>  <aromatic_rings_count>  (684) 
1

>  <qed_drug_likeliness>  (684) 
0.90

>  <formal_charge>  (684) 
0

>  <fractioncsp3>  (684) 
0.44

>  <number_of_minimal_rings>  (684) 
2

>  <van_der_walls_volume>  (684) 
nan

>  <contains_sugar>  (684) 
False

>  <contains_ring_sugars>  (684) 
False

>  <contains_linear_sugars>  (684) 
False

>  <murcko_framework>  (684) 
O1c2ccccc2C=CC1

>  <np_likeness>  (684) 
2.09

>  <chemical_class>  (684) 
Benzopyrans

>  <chemical_sub_class>  (684) 
1-benzopyrans

>  <chemical_super_class>  (684) 
Organoheterocyclic compounds

>  <direct_parent_classification>  (684) 
2,2-dimethyl-1-benzopyrans

>  <np_classifier_pathway>  (684) 
Terpenoids

>  <np_classifier_superclass>  (684) 
Meroterpenoids

>  <np_classifier_class>  (684) 
Merohemiterpenoids

>  <np_classifier_is_glycoside>  (684) 
False

>  <organisms>  (684) 
Adiscanthus fusciflorus|Dendrobates abditus|Hortia brasiliana

>  <collections>  (684) 
Latin America dataset|NPASS|NuBBEDB|Super Natural II|UNPD (Universal Natural Products Database)|WikiData Natural Products|ZINC NP

>  <dois>  (684) 
10.1016/0031-9422(80)83207-9|10.1016/J.BSE.2012.03.005|10.1016/j.bse.2012.03.005

>  <synonyms>  (684) 
57-dimethoxy-22-dimethyl-2H-1-benzopyran-6-propanoic acid

>  <cas>  (684) 
nan

$$$$

     RDKit          2D

 32 36  0  0  0  0  0  0  0  0999 V2000
    7.0624   -1.7130    0.0000 C   0  0  0  0  0  0  0  0  0  0  0  0
    5.6148   -1.3200    0.0000 C   0  0  0  0  0  0  0  0  0  0  0  0
    5.4792   -2.8138    0.0000 C   0  0  0  0  0  0  0  0  0  0  0  0
    4.1201   -1.4458    0.0000 C   0  0  0  0  0  0  0  0  0  0  0  0
    3.2638   -0.2142    0.0000 C   0  0  0  0  0  0  0  0  0  0  0  0
    1.7691   -0.3400    0.0000 C   0  0  0  0  0  0  0  0  0  0  0  0
    1.1307   -1.6973    0.0000 C   0  0  0  0  0  0  0  0  0  0  0  0
   -0.3640   -1.8231    0.0000 C   0  0  0  0  0  0  0  0  0  0  0  0
   -1.2203   -0.5916    0.0000 C   0  0  0  0  0  0  0  0  0  0  0  0
   -2.0766    0.6400    0.0000 C   0  0  0  0  0  0  0  0  0  0  0  0
   -0.5819    0.7658    0.0000 C   0  0  0  0  0  0  0  0  0  0  0  0
    0.2744   -0.4658    0.0000 C   0  0  0  0  0  0  0  0  0  0  0  0
   -1.4382    1.9974    0.0000 C   0  0  0  0  0  0  0  0  0  0  0  0
   -2.9329    1.8716    0.0000 C   0  0  0  0  0  0  0  0  0  0  0  0
   -3.5713    0.5142    0.0000 C   0  0  0  0  0  0  0  0  0  0  0  0
   -5.0660    0.3884    0.0000 C   0  0  0  0  0  0  0  0  0  0  0  0
   -6.5136    0.7815    0.0000 C   0  0  0  0  0  0  0  0  0  0  0  0
   -4.9304    1.8823    0.0000 C   0  0  0  0  0  0  0  0  0  0  0  0
   -5.7045   -0.9689    0.0000 C   0  0  0  0  0  0  0  0  0  0  0  0
   -7.1992   -1.0947    0.0000 O   0  0  0  0  0  0  0  0  0  0  0  0
   -4.8482   -2.2005    0.0000 C   0  0  0  0  0  0  0  0  0  0  0  0
   -3.3535   -2.0747    0.0000 C   0  0  0  0  0  0  0  0  0  0  0  0
   -2.7150   -0.7173    0.0000 C   0  0  0  0  0  0  0  0  0  0  0  0
   -1.8587   -1.9489    0.0000 C   0  0  0  0  0  0  0  0  0  0  0  0
    0.9128    0.8916    0.0000 C   0  0  0  0  0  0  0  0  0  0  0  0
    0.0565    2.1232    0.0000 C   0  0  0  0  0  0  0  0  0  0  0  0
    1.5512    2.2489    0.0000 C   0  0  0  0  0  0  0  0  0  0  0  0
    3.0460    2.3747    0.0000 C   0  0  0  0  0  0  0  0  0  0  0  0
    3.9023    1.1432    0.0000 C   0  0  0  0  0  0  0  0  0  0  0  0
    4.5407    2.5005    0.0000 C   0  0  0  0  0  0  0  0  0  0  0  0
    5.3970    1.2689    0.0000 C   0  0  0  0  0  0  0  0  0  0  0  0
    6.2533    0.0374    0.0000 C   0  0  0  0  0  0  0  0  0  0  0  0
  1  2  1  0
  2  3  1  0
  2  4  1  0
  4  5  2  0
  5  6  1  0
  6  7  1  0
  7  8  1  0
  8  9  1  0
  9 10  1  1
  9 11  1  0
 11 12  1  6
 11 13  1  0
 13 14  1  0
 14 15  1  0
 15 16  1  0
 16 17  1  0
 16 18  1  0
 16 19  1  0
 19 20  1  6
 19 21  1  0
 21 22  1  0
 22 23  1  0
 23 24  1  6
 11 25  1  0
 25 26  1  1
 25 27  1  0
 27 28  1  0
 28 29  1  0
 29 30  1  6
 29 31  1  0
 31 32  1  0
 32  2  1  0
 29  5  1  0
 25  6  1  0
 23  9  1  0
 23 15  1  0
M  END
>  <identifier>  (685) 
CNP0259920.2

>  <canonical_smiles>  (685) 
CC1(C)C=C2C3CC[C@@]4(C)[C@@](C)(CCC5C(C)(C)[C@@H](O)CC[C@@]54C)[C@]3(C)CC[C@@]2(C)CC1

>  <standard_inchi>  (685) 
InChI=1S/C31H52O/c1-25(2)16-17-27(5)18-19-28(6)21(22(27)20-25)10-14-31(9)29(7)13-12-24(32)26(3,4)23(29)11-15-30(28,31)8/h20-21,23-24,32H,10-19H2,1-9H3/t21?,23?,24-,27+,28+,29-,30-,31+/m0/s1

>  <standard_inchi_key>  (685) 
XTLWNMXYCHABQH-ACMXENKJSA-N

>  <name>  (685) 
nan

>  <iupac_name>  (685) 
(3~{S},6~{a}~{S},6~{b}~{R},8~{a}~{R},14~{a}~{R},14~{b}~{S})-4,4,6~{a},6~{b},8~{a},11,11,14~{a},14~{b}-nonamethyl-2,3,4~{a},5,6,6~{a},7,8,9,10,13,14-dodecahydro-1~{H}-picen-3-ol

>  <annotation_level>  (685) 
4

>  <total_atom_count>  (685) 
84

>  <heavy_atom_count>  (685) 
32

>  <molecular_weight>  (685) 
440.76

>  <exact_molecular_weight>  (685) 
440.40182

>  <molecular_formula>  (685) 
C31H52O

>  <alogp>  (685) 
8.56

>  <topological_polar_surface_area>  (685) 
20.23

>  <rotatable_bond_count>  (685) 
0

>  <hydrogen_bond_acceptors>  (685) 
1

>  <hydrogen_bond_donors>  (685) 
1

>  <hydrogen_bond_acceptors_lipinski>  (685) 
1

>  <hydrogen_bond_donors_lipinski>  (685) 
1

>  <lipinski_rule_of_five_violations>  (685) 
1

>  <aromatic_rings_count>  (685) 
0

>  <qed_drug_likeliness>  (685) 
0.37

>  <formal_charge>  (685) 
0

>  <fractioncsp3>  (685) 
0.94

>  <number_of_minimal_rings>  (685) 
5

>  <van_der_walls_volume>  (685) 
nan

>  <contains_sugar>  (685) 
False

>  <contains_ring_sugars>  (685) 
False

>  <contains_linear_sugars>  (685) 
False

>  <murcko_framework>  (685) 
C1=C2C(CCC1)CCC3C2CCC4C5CCCCC5CCC34

>  <np_likeness>  (685) 
2.61

>  <chemical_class>  (685) 
Prenol lipids

>  <chemical_sub_class>  (685) 
Triterpenoids

>  <chemical_super_class>  (685) 
Lipids and lipid-like molecules

>  <direct_parent_classification>  (685) 
Oleanane triterpenoids

>  <np_classifier_pathway>  (685) 
Terpenoids

>  <np_classifier_superclass>  (685) 
Triterpenoids

>  <np_classifier_class>  (685) 
Oleanane triterpenoids

>  <np_classifier_is_glycoside>  (685) 
False

>  <organisms>  (685) 
Pilocarpus grandiflorus

>  <collections>  (685) 
Latin America dataset|NuBBEDB

>  <dois>  (685) 
10.1515/znb-2005-0715

>  <synonyms>  (685) 
Germanicol

>  <cas>  (685) 
nan

$$$$

     RDKit          2D

 26 29  0  0  0  0  0  0  0  0999 V2000
   -3.4079   -3.0081    0.0000 C   0  0  0  0  0  0  0  0  0  0  0  0
   -3.7197   -1.5408    0.0000 O   0  0  0  0  0  0  0  0  0  0  0  0
   -2.6049   -0.5372    0.0000 C   0  0  0  0  0  0  0  0  0  0  0  0
   -2.9167    0.9300    0.0000 C   0  0  0  0  0  0  0  0  0  0  0  0
   -4.3433    1.3936    0.0000 C   0  0  0  0  0  0  0  0  0  0  0  0
   -4.6551    2.8609    0.0000 C   0  0  0  0  0  0  0  0  0  0  0  0
   -5.4581    0.3900    0.0000 C   0  0  0  0  0  0  0  0  0  0  0  0
   -1.8020    1.9337    0.0000 C   0  0  0  0  0  0  0  0  0  0  0  0
   -0.3754    1.4701    0.0000 C   0  0  0  0  0  0  0  0  0  0  0  0
   -0.0636    0.0028    0.0000 C   0  0  0  0  0  0  0  0  0  0  0  0
   -1.1784   -1.0008    0.0000 C   0  0  0  0  0  0  0  0  0  0  0  0
   -0.8666   -2.4680    0.0000 O   0  0  0  0  0  0  0  0  0  0  0  0
   -1.9814   -3.4717    0.0000 C   0  0  0  0  0  0  0  0  0  0  0  0
    1.3629   -0.4608    0.0000 C   0  0  0  0  0  0  0  0  0  0  0  0
    1.6747   -1.9280    0.0000 C   0  0  0  0  0  0  0  0  0  0  0  0
    3.1013   -2.3916    0.0000 C   0  0  0  0  0  0  0  0  0  0  0  0
    4.2161   -1.3880    0.0000 C   0  0  0  0  0  0  0  0  0  0  0  0
    3.9043    0.0793    0.0000 C   0  0  0  0  0  0  0  0  0  0  0  0
    4.1131    1.5647    0.0000 C   0  0  0  0  0  0  0  0  0  0  0  0
    5.4034    0.1316    0.0000 C   0  0  0  0  0  0  0  0  0  0  0  0
    2.4777    0.5429    0.0000 C   0  0  0  0  0  0  0  0  0  0  0  0
    2.1659    2.0101    0.0000 C   0  0  0  0  0  0  0  0  0  0  0  0
    0.7394    2.4737    0.0000 C   0  0  0  0  0  0  0  0  0  0  0  0
    0.9595    1.6803    0.0000 O   0  0  0  0  0  0  0  0  0  0  0  0
    1.2415    0.3536    0.0000 C   0  0  0  0  0  0  0  0  0  0  0  0
    2.0132    0.3775    0.0000 O   0  0  0  0  0  0  0  0  0  0  0  0
  1  2  1  0
  2  3  1  0
  3  4  2  0
  4  5  1  0
  5  6  1  0
  5  7  1  0
  4  8  1  0
  8  9  2  0
  9 10  1  0
 10 11  2  0
 11 12  1  0
 12 13  1  0
 10 14  1  0
 14 15  1  1
 15 16  1  0
 16 17  1  0
 17 18  1  0
 18 19  1  0
 18 20  1  0
 18 21  1  0
 21 22  1  0
 23 22  1  6
 23 24  1  0
 24 25  1  0
 25 26  2  0
 11  3  1  0
 21 14  1  0
 23  9  1  0
 25 14  1  0
M  END
>  <identifier>  (686) 
CNP0308791.2

>  <canonical_smiles>  (686) 
COC1=C(C(C)C)C=C2C(=C1OC)[C@@]13CCCC(C)(C)C1C[C@@H]2OC3=O

>  <standard_inchi>  (686) 
InChI=1S/C22H30O4/c1-12(2)13-10-14-15-11-16-21(3,4)8-7-9-22(16,20(23)26-15)17(14)19(25-6)18(13)24-5/h10,12,15-16H,7-9,11H2,1-6H3/t15-,16?,22+/m0/s1

>  <standard_inchi_key>  (686) 
BMUVJFGCCPHXOJ-RYVCVBLFSA-N

>  <name>  (686) 
nan

>  <iupac_name>  (686) 
(1~{R},8~{S})-5-isopropyl-3,4-dimethoxy-11,11-dimethyl-16-oxatetracyclo[6.6.2.0^{1,10}.0^{2,7}]hexadeca-2,4,6-trien-15-one

>  <annotation_level>  (686) 
4

>  <total_atom_count>  (686) 
56

>  <heavy_atom_count>  (686) 
26

>  <molecular_weight>  (686) 
358.48

>  <exact_molecular_weight>  (686) 
358.21441

>  <molecular_formula>  (686) 
C22H30O4

>  <alogp>  (686) 
4.89

>  <topological_polar_surface_area>  (686) 
44.76

>  <rotatable_bond_count>  (686) 
3

>  <hydrogen_bond_acceptors>  (686) 
4

>  <hydrogen_bond_donors>  (686) 
0

>  <hydrogen_bond_acceptors_lipinski>  (686) 
4

>  <hydrogen_bond_donors_lipinski>  (686) 
0

>  <lipinski_rule_of_five_violations>  (686) 
0

>  <aromatic_rings_count>  (686) 
1

>  <qed_drug_likeliness>  (686) 
0.72

>  <formal_charge>  (686) 
0

>  <fractioncsp3>  (686) 
0.68

>  <number_of_minimal_rings>  (686) 
5

>  <van_der_walls_volume>  (686) 
nan

>  <contains_sugar>  (686) 
False

>  <contains_ring_sugars>  (686) 
False

>  <contains_linear_sugars>  (686) 
False

>  <murcko_framework>  (686) 
O1CC23c4ccccc4C1CC3CCCC2

>  <np_likeness>  (686) 
2.39

>  <chemical_class>  (686) 
Prenol lipids

>  <chemical_sub_class>  (686) 
Terpene lactones

>  <chemical_super_class>  (686) 
Lipids and lipid-like molecules

>  <direct_parent_classification>  (686) 
Diterpene lactones

>  <np_classifier_pathway>  (686) 
Terpenoids

>  <np_classifier_superclass>  (686) 
Diterpenoids

>  <np_classifier_class>  (686) 
Abietane diterpenoids

>  <np_classifier_is_glycoside>  (686) 
False

>  <organisms>  (686) 
Rosmarinus officinalis

>  <collections>  (686) 
Latin America dataset|NuBBEDB|WikiData Natural Products

>  <dois>  (686) 
10.1016/S0040-4020(01)88671-3

>  <synonyms>  (686) 
1112-Di-O-methylcarnosol

>  <cas>  (686) 
nan

$$$$

     RDKit          2D

 12 13  0  0  0  0  0  0  0  0999 V2000
    3.2487    0.0745    0.0000 C   0  0  0  0  0  0  0  0  0  0  0  0
    1.8633    0.6497    0.0000 C   0  0  0  0  0  0  0  0  0  0  0  0
    1.5144    2.1085    0.0000 C   0  0  0  0  0  0  0  0  0  0  0  0
    0.0191    2.2275    0.0000 C   0  0  0  0  0  0  0  0  0  0  0  0
   -0.5561    0.8421    0.0000 N   0  0  0  0  0  0  0  0  0  0  0  0
   -1.9705    0.3426    0.0000 C   0  0  0  0  0  0  0  0  0  0  0  0
   -3.1103    1.3177    0.0000 O   0  0  0  0  0  0  0  0  0  0  0  0
   -2.2451   -1.1320    0.0000 C   0  0  0  0  0  0  0  0  0  0  0  0
   -1.1053   -2.1072    0.0000 N   0  0  0  0  0  0  0  0  0  0  0  0
    0.3091   -1.6076    0.0000 C   0  0  0  0  0  0  0  0  0  0  0  0
    1.4489   -2.5828    0.0000 O   0  0  0  0  0  0  0  0  0  0  0  0
    0.5837   -0.1330    0.0000 C   0  0  0  0  0  0  0  0  0  0  0  0
  1  2  1  0
  2  3  1  0
  3  4  1  0
  4  5  1  0
  5  6  1  0
  6  7  2  0
  6  8  1  0
  8  9  1  0
  9 10  1  0
 10 11  2  0
 10 12  1  0
 12  2  1  1
 12  5  1  0
M  END
>  <identifier>  (687) 
CNP0080683.1

>  <canonical_smiles>  (687) 
CC1CCN2C(=O)CNC(=O)[C@H]12

>  <standard_inchi>  (687) 
InChI=1S/C8H12N2O2/c1-5-2-3-10-6(11)4-9-8(12)7(5)10/h5,7H,2-4H2,1H3,(H,9,12)/t5?,7-/m0/s1

>  <standard_inchi_key>  (687) 
PMGPVTQHMNDJMP-MSZQBOFLSA-N

>  <name>  (687) 
nan

>  <iupac_name>  (687) 
(8~{a}~{S})-8-methyl-2,3,6,7,8,8~{a}-hexahydropyrrolo[1,2-a]pyrazine-1,4-dione

>  <annotation_level>  (687) 
4

>  <total_atom_count>  (687) 
24

>  <heavy_atom_count>  (687) 
12

>  <molecular_weight>  (687) 
168.2

>  <exact_molecular_weight>  (687) 
168.08988

>  <molecular_formula>  (687) 
C8H12N2O2

>  <alogp>  (687) 
-0.65

>  <topological_polar_surface_area>  (687) 
49.41

>  <rotatable_bond_count>  (687) 
0

>  <hydrogen_bond_acceptors>  (687) 
2

>  <hydrogen_bond_donors>  (687) 
1

>  <hydrogen_bond_acceptors_lipinski>  (687) 
2

>  <hydrogen_bond_donors_lipinski>  (687) 
1

>  <lipinski_rule_of_five_violations>  (687) 
0

>  <aromatic_rings_count>  (687) 
0

>  <qed_drug_likeliness>  (687) 
0.52

>  <formal_charge>  (687) 
0

>  <fractioncsp3>  (687) 
0.75

>  <number_of_minimal_rings>  (687) 
2

>  <van_der_walls_volume>  (687) 
nan

>  <contains_sugar>  (687) 
False

>  <contains_ring_sugars>  (687) 
False

>  <contains_linear_sugars>  (687) 
False

>  <murcko_framework>  (687) 
N1CCN2CCCC2C1

>  <np_likeness>  (687) 
0.79

>  <chemical_class>  (687) 
Carboxylic acids and derivatives

>  <chemical_sub_class>  (687) 
Amino acids, peptides, and analogues

>  <chemical_super_class>  (687) 
Organic acids and derivatives

>  <direct_parent_classification>  (687) 
Alpha amino acids

>  <np_classifier_pathway>  (687) 
Alkaloids

>  <np_classifier_superclass>  (687) 
Ornithine alkaloids

>  <np_classifier_class>  (687) 
Pyrrolidine alkaloids

>  <np_classifier_is_glycoside>  (687) 
False

>  <organisms>  (687) 
Aspergillus fumigatus

>  <collections>  (687) 
Latin America dataset|NuBBEDB|WikiData Natural Products

>  <dois>  (687) 
10.1590/S0103-50532005000800026

>  <synonyms>  (687) 
cyclo (L)-Pro-Gly

>  <cas>  (687) 
nan

$$$$

     RDKit          2D

 25 26  0  0  0  0  0  0  0  0999 V2000
   -8.1827   -0.4269    0.0000 C   0  0  0  0  0  0  0  0  0  0  0  0
   -6.7437   -0.0035    0.0000 C   0  0  0  0  0  0  0  0  0  0  0  0
   -6.3909    1.4544    0.0000 C   0  0  0  0  0  0  0  0  0  0  0  0
   -5.6576   -1.0381    0.0000 C   0  0  0  0  0  0  0  0  0  0  0  0
   -4.2185   -0.6147    0.0000 C   0  0  0  0  0  0  0  0  0  0  0  0
   -3.1324   -1.6492    0.0000 C   0  0  0  0  0  0  0  0  0  0  0  0
   -1.6934   -1.2258    0.0000 C   0  0  0  0  0  0  0  0  0  0  0  0
   -1.5263   -2.7165    0.0000 C   0  0  0  0  0  0  0  0  0  0  0  0
   -2.3602    0.1178    0.0000 C   0  0  0  0  0  0  0  0  0  0  0  0
   -1.5300    1.3671    0.0000 C   0  0  0  0  0  0  0  0  0  0  0  0
   -0.0330    1.2728    0.0000 C   0  0  0  0  0  0  0  0  0  0  0  0
    0.7972    2.5221    0.0000 C   0  0  0  0  0  0  0  0  0  0  0  0
    2.2943    2.4278    0.0000 C   0  0  0  0  0  0  0  0  0  0  0  0
    3.1245    3.6771    0.0000 C   0  0  0  0  0  0  0  0  0  0  0  0
    2.4576    5.0207    0.0000 O   0  0  0  0  0  0  0  0  0  0  0  0
    4.6215    3.5828    0.0000 O   0  0  0  0  0  0  0  0  0  0  0  0
    2.9611    1.0841    0.0000 C   0  0  0  0  0  0  0  0  0  0  0  0
    2.1309   -0.1652    0.0000 C   0  0  0  0  0  0  0  0  0  0  0  0
    2.7977   -1.5088    0.0000 C   0  0  0  0  0  0  0  0  0  0  0  0
    4.2948   -1.6031    0.0000 C   0  0  0  0  0  0  0  0  0  0  0  0
    4.9616   -2.9467    0.0000 C   0  0  0  0  0  0  0  0  0  0  0  0
    6.4586   -3.0411    0.0000 C   0  0  0  0  0  0  0  0  0  0  0  0
    4.1314   -4.1961    0.0000 C   0  0  0  0  0  0  0  0  0  0  0  0
    0.6339   -0.0708    0.0000 C   0  0  0  0  0  0  0  0  0  0  0  0
   -0.1963   -1.3201    0.0000 O   0  0  0  0  0  0  0  0  0  0  0  0
  1  2  1  0
  2  3  1  0
  2  4  1  0
  4  5  1  0
  5  6  1  0
  6  7  1  0
  7  8  1  6
  7  9  1  0
  9 10  1  0
 10 11  1  0
 11 12  2  0
 12 13  1  0
 13 14  1  0
 14 15  2  0
 14 16  1  0
 13 17  2  0
 17 18  1  0
 18 19  1  0
 19 20  1  0
 20 21  1  0
 21 22  1  0
 21 23  1  0
 18 24  2  0
 24 25  1  0
 25  7  1  0
 24 11  1  0
M  END
>  <identifier>  (688) 
CNP0354702.1

>  <canonical_smiles>  (688) 
CC(C)CCC[C@@]1(C)CCC2=CC(C(=O)O)=CC(CCC(C)C)=C2O1

>  <standard_inchi>  (688) 
InChI=1S/C22H34O3/c1-15(2)7-6-11-22(5)12-10-18-14-19(21(23)24)13-17(20(18)25-22)9-8-16(3)4/h13-16H,6-12H2,1-5H3,(H,23,24)/t22-/m0/s1

>  <standard_inchi_key>  (688) 
YAMHFDZGNSYRIT-QFIPXVFZSA-N

>  <name>  (688) 
nan

>  <iupac_name>  (688) 
(2~{S})-2-isohexyl-8-isopentyl-2-methyl-chromane-6-carboxylic acid

>  <annotation_level>  (688) 
5

>  <total_atom_count>  (688) 
59

>  <heavy_atom_count>  (688) 
25

>  <molecular_weight>  (688) 
346.51

>  <exact_molecular_weight>  (688) 
346.25079

>  <molecular_formula>  (688) 
C22H34O3

>  <alogp>  (688) 
5.88

>  <topological_polar_surface_area>  (688) 
46.53

>  <rotatable_bond_count>  (688) 
8

>  <hydrogen_bond_acceptors>  (688) 
2

>  <hydrogen_bond_donors>  (688) 
1

>  <hydrogen_bond_acceptors_lipinski>  (688) 
2

>  <hydrogen_bond_donors_lipinski>  (688) 
1

>  <lipinski_rule_of_five_violations>  (688) 
1

>  <aromatic_rings_count>  (688) 
1

>  <qed_drug_likeliness>  (688) 
0.64

>  <formal_charge>  (688) 
0

>  <fractioncsp3>  (688) 
0.68

>  <number_of_minimal_rings>  (688) 
2

>  <van_der_walls_volume>  (688) 
358.82

>  <contains_sugar>  (688) 
False

>  <contains_ring_sugars>  (688) 
False

>  <contains_linear_sugars>  (688) 
False

>  <murcko_framework>  (688) 
O1c2ccccc2CCC1

>  <np_likeness>  (688) 
1.48

>  <chemical_class>  (688) 
Benzopyrans

>  <chemical_sub_class>  (688) 
1-benzopyrans

>  <chemical_super_class>  (688) 
Organoheterocyclic compounds

>  <direct_parent_classification>  (688) 
1-benzopyrans

>  <np_classifier_pathway>  (688) 
Terpenoids

>  <np_classifier_superclass>  (688) 
Meroterpenoids

>  <np_classifier_class>  (688) 
Prenyl quinone meroterpenoids

>  <np_classifier_is_glycoside>  (688) 
False

>  <organisms>  (688) 
Piper aduncum

>  <collections>  (688) 
ChemSpider NPs|Latin America dataset|NuBBEDB|Super Natural II|WikiData Natural Products|ZINC NP

>  <dois>  (688) 
10.1248/BPB.31.538|10.1248/bpb.31.538

>  <synonyms>  (688) 
(2S)-8-Isopentyl-2-methyl-2-(4'-methylpentyl)chroman-6-carboxylic acid

>  <cas>  (688) 
nan

$$$$

     RDKit          2D

 24 24  0  0  0  0  0  0  0  0999 V2000
  -12.5859    0.8181    0.0000 C   0  0  0  0  0  0  0  0  0  0  0  0
  -11.3280    0.0009    0.0000 C   0  0  0  0  0  0  0  0  0  0  0  0
  -11.4068   -1.4970    0.0000 O   0  0  0  0  0  0  0  0  0  0  0  0
   -9.9914    0.6817    0.0000 C   0  0  0  0  0  0  0  0  0  0  0  0
   -8.7335   -0.1355    0.0000 C   0  0  0  0  0  0  0  0  0  0  0  0
   -7.3969    0.5453    0.0000 C   0  0  0  0  0  0  0  0  0  0  0  0
   -6.1390   -0.2718    0.0000 C   0  0  0  0  0  0  0  0  0  0  0  0
   -4.8024    0.4089    0.0000 C   0  0  0  0  0  0  0  0  0  0  0  0
   -3.5445   -0.4082    0.0000 C   0  0  0  0  0  0  0  0  0  0  0  0
   -2.2079    0.2725    0.0000 C   0  0  0  0  0  0  0  0  0  0  0  0
   -0.9501   -0.5446    0.0000 C   0  0  0  0  0  0  0  0  0  0  0  0
    0.3866    0.1361    0.0000 C   0  0  0  0  0  0  0  0  0  0  0  0
    1.6444   -0.6810    0.0000 C   0  0  0  0  0  0  0  0  0  0  0  0
    2.9811   -0.0002    0.0000 C   0  0  0  0  0  0  0  0  0  0  0  0
    4.2389   -0.8174    0.0000 C   0  0  0  0  0  0  0  0  0  0  0  0
    5.5756   -0.1366    0.0000 C   0  0  0  0  0  0  0  0  0  0  0  0
    5.6543    1.3613    0.0000 C   0  0  0  0  0  0  0  0  0  0  0  0
    6.9909    2.0421    0.0000 C   0  0  0  0  0  0  0  0  0  0  0  0
    8.2488    1.2249    0.0000 C   0  0  0  0  0  0  0  0  0  0  0  0
    9.5854    1.9057    0.0000 O   0  0  0  0  0  0  0  0  0  0  0  0
    8.1700   -0.2730    0.0000 C   0  0  0  0  0  0  0  0  0  0  0  0
    9.4279   -1.0902    0.0000 C   0  0  0  0  0  0  0  0  0  0  0  0
    9.3492   -2.5881    0.0000 O   0  0  0  0  0  0  0  0  0  0  0  0
    6.8334   -0.9538    0.0000 N   0  0  0  0  0  0  0  0  0  0  0  0
  1  2  1  0
  2  3  2  0
  2  4  1  0
  4  5  1  0
  5  6  1  0
  6  7  1  0
  7  8  1  0
  8  9  1  0
  9 10  1  0
 10 11  1  0
 11 12  1  0
 12 13  1  0
 13 14  1  0
 14 15  1  0
 16 15  1  1
 16 17  1  0
 17 18  1  0
 18 19  1  0
 19 20  1  1
 19 21  1  0
 21 22  1  1
 22 23  1  0
 21 24  1  0
 24 16  1  0
M  END
>  <identifier>  (689) 
CNP0174010.1

>  <canonical_smiles>  (689) 
CC(=O)CCCCCCCCCCCC[C@H]1CC[C@@H](O)[C@@H](CO)N1

>  <standard_inchi>  (689) 
InChI=1S/C20H39NO3/c1-17(23)12-10-8-6-4-2-3-5-7-9-11-13-18-14-15-20(24)19(16-22)21-18/h18-22,24H,2-16H2,1H3/t18-,19+,20+/m0/s1

>  <standard_inchi_key>  (689) 
DIMNETMAIUHJFR-XUVXKRRUSA-N

>  <name>  (689) 
14-[(2S,5R,6R)-5-hydroxy-6-(hydroxymethyl)piperidin-2-yl]tetradecan-2-one

>  <iupac_name>  (689) 
14-[(2~{S},5~{R},6~{R})-5-hydroxy-6-(hydroxymethyl)-2-piperidyl]tetradecan-2-one

>  <annotation_level>  (689) 
5

>  <total_atom_count>  (689) 
63

>  <heavy_atom_count>  (689) 
24

>  <molecular_weight>  (689) 
341.54

>  <exact_molecular_weight>  (689) 
341.29299

>  <molecular_formula>  (689) 
C20H39NO3

>  <alogp>  (689) 
3.73

>  <topological_polar_surface_area>  (689) 
69.56

>  <rotatable_bond_count>  (689) 
14

>  <hydrogen_bond_acceptors>  (689) 
4

>  <hydrogen_bond_donors>  (689) 
3

>  <hydrogen_bond_acceptors_lipinski>  (689) 
4

>  <hydrogen_bond_donors_lipinski>  (689) 
3

>  <lipinski_rule_of_five_violations>  (689) 
0

>  <aromatic_rings_count>  (689) 
0

>  <qed_drug_likeliness>  (689) 
0.42

>  <formal_charge>  (689) 
0

>  <fractioncsp3>  (689) 
0.95

>  <number_of_minimal_rings>  (689) 
1

>  <van_der_walls_volume>  (689) 
365.39

>  <contains_sugar>  (689) 
False

>  <contains_ring_sugars>  (689) 
False

>  <contains_linear_sugars>  (689) 
False

>  <murcko_framework>  (689) 
N1CCCCC1

>  <np_likeness>  (689) 
1.63

>  <chemical_class>  (689) 
nan

>  <chemical_sub_class>  (689) 
Alkaloids and derivatives

>  <chemical_super_class>  (689) 
Alkaloids and derivatives

>  <direct_parent_classification>  (689) 
Alkaloids and derivatives

>  <np_classifier_pathway>  (689) 
Alkaloids

>  <np_classifier_superclass>  (689) 
Lysine alkaloids

>  <np_classifier_class>  (689) 
Piperidine alkaloids

>  <np_classifier_is_glycoside>  (689) 
False

>  <organisms>  (689) 
Cassia spectabilis|Senna spectabilis|cassia spectabilis

>  <collections>  (689) 
ChemSpider NPs|KNApSaCK|Latin America dataset|NPASS|NuBBEDB|Super Natural II|WikiData Natural Products|ZINC NP

>  <dois>  (689) 
10.1021/NP0303963|10.1021/np0303963|10.1590/S0103-50532005000800023

>  <synonyms>  (689) 
(-)-7-Hydroxyspectaline|CHEMBL487399

>  <cas>  (689) 
nan

$$$$

     RDKit          2D

  6  5  0  0  0  0  0  0  0  0999 V2000
   -3.2624   -0.2097    0.0000 C   0  0  0  0  0  0  0  0  0  0  0  0
   -1.9270    0.4734    0.0000 C   0  0  0  0  0  0  0  0  0  0  0  0
   -0.6677   -0.3416    0.0000 C   0  0  0  0  0  0  0  0  0  0  0  0
    0.6677    0.3416    0.0000 C   0  0  0  0  0  0  0  0  0  0  0  0
    1.9270   -0.4734    0.0000 C   0  0  0  0  0  0  0  0  0  0  0  0
    3.2624    0.2097    0.0000 C   0  0  0  0  0  0  0  0  0  0  0  0
  1  2  1  0
  2  3  1  0
  3  4  1  0
  4  5  1  0
  5  6  1  0
M  END
>  <identifier>  (690) 
CNP0269021.0

>  <canonical_smiles>  (690) 
CCCCCC

>  <standard_inchi>  (690) 
InChI=1S/C6H14/c1-3-5-6-4-2/h3-6H2,1-2H3

>  <standard_inchi_key>  (690) 
VLKZOEOYAKHREP-UHFFFAOYSA-N

>  <name>  (690) 
HEXANE

>  <iupac_name>  (690) 
hexane

>  <annotation_level>  (690) 
5

>  <total_atom_count>  (690) 
20

>  <heavy_atom_count>  (690) 
6

>  <molecular_weight>  (690) 
86.18

>  <exact_molecular_weight>  (690) 
86.10955

>  <molecular_formula>  (690) 
C6H14

>  <alogp>  (690) 
2.59

>  <topological_polar_surface_area>  (690) 
0.00

>  <rotatable_bond_count>  (690) 
3

>  <hydrogen_bond_acceptors>  (690) 
0

>  <hydrogen_bond_donors>  (690) 
0

>  <hydrogen_bond_acceptors_lipinski>  (690) 
0

>  <hydrogen_bond_donors_lipinski>  (690) 
0

>  <lipinski_rule_of_five_violations>  (690) 
0

>  <aromatic_rings_count>  (690) 
0

>  <qed_drug_likeliness>  (690) 
0.46

>  <formal_charge>  (690) 
0

>  <fractioncsp3>  (690) 
1.00

>  <number_of_minimal_rings>  (690) 
0

>  <van_der_walls_volume>  (690) 
111.70

>  <contains_sugar>  (690) 
False

>  <contains_ring_sugars>  (690) 
False

>  <contains_linear_sugars>  (690) 
False

>  <murcko_framework>  (690) 
nan

>  <np_likeness>  (690) 
0.23

>  <chemical_class>  (690) 
Saturated hydrocarbons

>  <chemical_sub_class>  (690) 
Alkanes

>  <chemical_super_class>  (690) 
Hydrocarbons

>  <direct_parent_classification>  (690) 
Alkanes

>  <np_classifier_pathway>  (690) 
Fatty acids

>  <np_classifier_superclass>  (690) 
Fatty acyls

>  <np_classifier_class>  (690) 
Hydrocarbons

>  <np_classifier_is_glycoside>  (690) 
False

>  <organisms>  (690) 
Aglaia odoratissima|Boletus edulis|Brassica oleracea|Carica papaya|Ceratonia siliqua|Elaeis guineensis|Homo sapiens|Laetiporus sulphureus var. miniatus|Laetiporus sulphureus var.miniatus|Lentinus edodes|Olea Europaea|Olea europaea|Paeonia lactiflora|Perilla frutescens|Perilla frutescens var. frutescens

>  <collections>  (690) 
Australian natural products|CMAUP (cCollective molecular activities of useful plants)|ETM (Ethiopian Traditional Medicine) DB|FooDB|KNApSaCK|Latin America dataset|Marine Natural Products|NPASS|NuBBEDB|Super Natural II|UNPD (Universal Natural Products Database)|VietHerb|WikiData Natural Products

>  <dois>  (690) 
10.1016/0031-9422(92)83456-9|10.1016/0378-8741(88)90088-8|10.1016/S0031-9422(00)94541-2|10.1016/S0031-9422(97)00730-9|10.1016/j.chroma.2008.12.095|10.1021/JF00120A031|10.1021/JF60209A051|10.1021/jf00120a031|10.1088/1752-7155/8/1/014001|10.1111/J.1750-3841.2011.02214.X|10.1248/CPB.49.327|10.1248/CPB.49.863

>  <synonyms>  (690) 
1-hexane|110-54-3|2CE3AJR3M4|2DDG612ED8|478799-92-7|50981-41-4|680AF2EE-A7B6-479B-BFB3-0F5354069F72|68476-44-8|92112-69-1|A802211|AI3-24253|AKOS000269046|AMY22305|Butane, ethyl-|CAS-110-54-3|CCRIS 6247|CH3-(CH2)4-CH3|CH3-[CH2]4-CH3|CHEBI:29021|CHEMBL15939|DTXCID001917|DTXSID0021917|DTXSID70181299|DTXSID80179642|Dipropyl|EC 203-777-6|EINECS 203-777-6|Epitope ID:116866|Esani|Esani [Italian]|Exxsol Hexane (Salt\/Mix)|Gettysolve-B|H0394|H0405|H0490|H1197|HEXANE (II)|HEXANE (N)|HEXANE [II]|HEXANE [USP-RS]|HEXANE, COMMERCIAL GRADE (52% n-HEXANE, 16% 3-METHYLCYCLOPENTANE, 16% METHYLCYCLOPENTANE)|HEXANES, MIXTURE OF ISOMERS, FOR SPECTROSCOPY|HSDB 91|Heksan|Heksan [Polish]|HexH|Hexane (DOT)|Hexane Fraction, purum|Hexane, >=96.0%, suitable for residual phthalate analysis|Hexane, ACS reagent, 99%|Hexane, AR, >=99%|Hexane, JIS special grade, >=96.0%|Hexane, Laboratory Reagent, >=95%|Hexane, Pharmaceutical Secondary Standard; Certified Reference Material|Hexane, ReagentPlus(R), >=99%|Hexane, SAJ first grade, >=95.0%|Hexane, UV HPLC spectroscopic, 97%|Hexane, Vetec(TM) reagent grade, anhydrous, >=95%|Hexane, analytical standard|Hexane, anhydrous, 95%|Hexane, commercial grade (52% n-hexane, 16% 3-methylpentane, 16% methylcyclopentane)|Hexane, for HPLC|Hexane, for HPLC, >=95%|Hexane, for HPLC, >=97.0% (GC)|Hexane, p.a.|Hexane, p.a., 95%|Hexane, purification grade, 95%|Hexane, puriss. p.a., ACS reagent, >=99.0% (GC)|Hexane, puriss. p.a., ACS reagent, reag. Ph. Eur., >=99% (GC)|Hexane, puriss., >=95% (GC)|Hexane, puriss., absolute, over molecular sieve (H2O <=0.01%), >=99.0% (GC)|Hexane, purum, >=98.0% (GC)|Hexane, spectrophotometric grade, >=95%|Hexane, suitable for determination of dioxins|Hexane, technical grade|Hexane; NSC 68472; Skellysolve B; n-Hexane|Hexanen|Hexanen [Dutch]|Hexanes [UN1208]  [Flammable liquid]|Hexyl hydride|InChI=1\/C6H14\/c1-3-5-6-4-2\/h3-6H2,1-2H|J-002443|LMFA11000007|MFCD00009520|Masutakic acid A|N-HEXANE (MART.)|N-HEXANE [HSDB]|N-HEXANE [MART.]|N-HEXANE [MI]|NCGC00248828-01|NCGC00258331-01|NCI-C60571|NS00003550|NSC 68472|NSC-68472|Normal hexane|Q150440|SENOFILCON C [USAN]|STL445663|Senofilcon C|Skellysolve B|Tox21_200777|UN1208|UNII-2DDG612ED8|WLN: 6H|hexan|n-C6H14|n-Hexane|n-Hexane 100 microg\/mL in Methanol|n-Hexane HPLC grade|n-Hexane, 95% min. glass distilled HRGC\/HPLC trace grade|n-Hexane, ACS grade|n-Hexane, Environmental grade|n-Hexane, Spectrophotometric Grade|n-Hexane, anhydrous|n-hexane|normal-hexane

>  <cas>  (690) 
110-54-3|92112-69-1|68476-44-8|478799-92-7|50981-41-4

$$$$

     RDKit          2D

 21 22  0  0  0  0  0  0  0  0999 V2000
    6.2809   -2.5018    0.0000 C   0  0  0  0  0  0  0  0  0  0  0  0
    6.2984   -1.0019    0.0000 O   0  0  0  0  0  0  0  0  0  0  0  0
    5.0082   -0.2369    0.0000 C   0  0  0  0  0  0  0  0  0  0  0  0
    3.7005   -0.9717    0.0000 C   0  0  0  0  0  0  0  0  0  0  0  0
    2.4103   -0.2066    0.0000 C   0  0  0  0  0  0  0  0  0  0  0  0
    1.1026   -0.9415    0.0000 C   0  0  0  0  0  0  0  0  0  0  0  0
   -0.1876   -0.1764    0.0000 C   0  0  0  0  0  0  0  0  0  0  0  0
   -1.4953   -0.9112    0.0000 C   0  0  0  0  0  0  0  0  0  0  0  0
   -2.7855   -0.1462    0.0000 C   0  0  0  0  0  0  0  0  0  0  0  0
   -2.7681    1.3537    0.0000 C   0  0  0  0  0  0  0  0  0  0  0  0
   -4.0583    2.1188    0.0000 C   0  0  0  0  0  0  0  0  0  0  0  0
   -5.3660    1.3840    0.0000 C   0  0  0  0  0  0  0  0  0  0  0  0
   -6.6562    2.1490    0.0000 O   0  0  0  0  0  0  0  0  0  0  0  0
   -5.3834   -0.1159    0.0000 C   0  0  0  0  0  0  0  0  0  0  0  0
   -4.0932   -0.8810    0.0000 C   0  0  0  0  0  0  0  0  0  0  0  0
   -4.1107   -2.3809    0.0000 O   0  0  0  0  0  0  0  0  0  0  0  0
   -5.4183   -3.1157    0.0000 C   0  0  0  0  0  0  0  0  0  0  0  0
    2.4277    1.2933    0.0000 C   0  0  0  0  0  0  0  0  0  0  0  0
    3.7354    2.0281    0.0000 C   0  0  0  0  0  0  0  0  0  0  0  0
    5.0256    1.2630    0.0000 C   0  0  0  0  0  0  0  0  0  0  0  0
    6.3333    1.9979    0.0000 O   0  0  0  0  0  0  0  0  0  0  0  0
  1  2  1  0
  2  3  1  0
  3  4  2  0
  4  5  1  0
  5  6  1  0
  6  7  1  0
  7  8  1  0
  8  9  1  0
  9 10  2  0
 10 11  1  0
 11 12  2  0
 12 13  1  0
 12 14  1  0
 14 15  2  0
 15 16  1  0
 16 17  1  0
  5 18  2  0
 18 19  1  0
 19 20  2  0
 20 21  1  0
 20  3  1  0
 15  9  1  0
M  END
>  <identifier>  (691) 
CNP0141215.0

>  <canonical_smiles>  (691) 
COC1=CC(CCCC2=CC=C(O)C=C2OC)=CC=C1O

>  <standard_inchi>  (691) 
InChI=1S/C17H20O4/c1-20-16-11-14(18)8-7-13(16)5-3-4-12-6-9-15(19)17(10-12)21-2/h6-11,18-19H,3-5H2,1-2H3

>  <standard_inchi_key>  (691) 
DWDSYTBAOIEKLG-UHFFFAOYSA-N

>  <name>  (691) 
Griffithane B (10)

>  <iupac_name>  (691) 
4-[3-(4-hydroxy-2-methoxy-phenyl)propyl]-2-methoxy-phenol

>  <annotation_level>  (691) 
5

>  <total_atom_count>  (691) 
41

>  <heavy_atom_count>  (691) 
21

>  <molecular_weight>  (691) 
288.34

>  <exact_molecular_weight>  (691) 
288.13616

>  <molecular_formula>  (691) 
C17H20O4

>  <alogp>  (691) 
3.29

>  <topological_polar_surface_area>  (691) 
58.92

>  <rotatable_bond_count>  (691) 
6

>  <hydrogen_bond_acceptors>  (691) 
4

>  <hydrogen_bond_donors>  (691) 
2

>  <hydrogen_bond_acceptors_lipinski>  (691) 
4

>  <hydrogen_bond_donors_lipinski>  (691) 
2

>  <lipinski_rule_of_five_violations>  (691) 
0

>  <aromatic_rings_count>  (691) 
2

>  <qed_drug_likeliness>  (691) 
0.86

>  <formal_charge>  (691) 
0

>  <fractioncsp3>  (691) 
0.29

>  <number_of_minimal_rings>  (691) 
2

>  <van_der_walls_volume>  (691) 
272.49

>  <contains_sugar>  (691) 
False

>  <contains_ring_sugars>  (691) 
False

>  <contains_linear_sugars>  (691) 
False

>  <murcko_framework>  (691) 
c1ccc(cc1)CCCc2ccccc2

>  <np_likeness>  (691) 
0.77

>  <chemical_class>  (691) 
Linear 1,3-diarylpropanoids

>  <chemical_sub_class>  (691) 
Cinnamylphenols

>  <chemical_super_class>  (691) 
Phenylpropanoids and polyketides

>  <direct_parent_classification>  (691) 
Cinnamylphenols

>  <np_classifier_pathway>  (691) 
nan

>  <np_classifier_superclass>  (691) 
nan

>  <np_classifier_class>  (691) 
nan

>  <np_classifier_is_glycoside>  (691) 
False

>  <organisms>  (691) 
Broussonetia papyrifera|Iryanthera coriacea|Iryanthera elliptica|Virola surinamensis

>  <collections>  (691) 
KNApSaCK|Latin America dataset|NuBBEDB|Super Natural II|TIPdb (database of Taiwan indigenous plants)|UNPD (Universal Natural Products Database)|WikiData Natural Products|ZINC NP

>  <dois>  (691) 
10.1016/0031-9422(75)85305-2|10.1016/0031-9422(80)83200-6|10.1016/S0031-9422(00)94227-4|10.1016/S0031-9422(96)00408-6|10.1016/S0031-9422(97)01092-3|10.1016/S0031-9422(98)00709-2|10.1021/NP010288L

>  <synonyms>  (691) 
1-(4'-hydroxy-2'-methoxyphenyl)-3-(4-hydroxy-3\"-methoxyphenyl)-propan|BDBM112637|Broussonin F|SCHEMBL6824591

>  <cas>  (691) 
nan

$$$$

     RDKit          2D

 31 33  0  0  0  0  0  0  0  0999 V2000
   -7.6406   -1.5968    0.0000 C   0  0  0  0  0  0  0  0  0  0  0  0
   -6.2064   -2.0360    0.0000 O   0  0  0  0  0  0  0  0  0  0  0  0
   -5.1089   -1.0135    0.0000 C   0  0  0  0  0  0  0  0  0  0  0  0
   -5.4456    0.4482    0.0000 C   0  0  0  0  0  0  0  0  0  0  0  0
   -6.8798    0.8874    0.0000 O   0  0  0  0  0  0  0  0  0  0  0  0
   -7.2166    2.3491    0.0000 C   0  0  0  0  0  0  0  0  0  0  0  0
   -4.3481    1.4706    0.0000 C   0  0  0  0  0  0  0  0  0  0  0  0
   -4.6848    2.9324    0.0000 O   0  0  0  0  0  0  0  0  0  0  0  0
   -3.5873    3.9548    0.0000 C   0  0  0  0  0  0  0  0  0  0  0  0
   -2.9138    1.0314    0.0000 C   0  0  0  0  0  0  0  0  0  0  0  0
   -2.5771   -0.4303    0.0000 C   0  0  0  0  0  0  0  0  0  0  0  0
   -1.1429   -0.8696    0.0000 C   0  0  0  0  0  0  0  0  0  0  0  0
    0.0555    0.0326    0.0000 O   0  0  0  0  0  0  0  0  0  0  0  0
    1.2838   -0.8284    0.0000 C   0  0  0  0  0  0  0  0  0  0  0  0
    2.7024   -0.3407    0.0000 C   0  0  0  0  0  0  0  0  0  0  0  0
    3.8339   -1.3254    0.0000 C   0  0  0  0  0  0  0  0  0  0  0  0
    5.2525   -0.8377    0.0000 C   0  0  0  0  0  0  0  0  0  0  0  0
    6.3840   -1.8223    0.0000 O   0  0  0  0  0  0  0  0  0  0  0  0
    6.0971   -3.2946    0.0000 C   0  0  0  0  0  0  0  0  0  0  0  0
    5.5394    0.6346    0.0000 C   0  0  0  0  0  0  0  0  0  0  0  0
    6.9579    1.1223    0.0000 O   0  0  0  0  0  0  0  0  0  0  0  0
    7.2448    2.5946    0.0000 C   0  0  0  0  0  0  0  0  0  0  0  0
    4.4078    1.6192    0.0000 C   0  0  0  0  0  0  0  0  0  0  0  0
    4.6947    3.0915    0.0000 O   0  0  0  0  0  0  0  0  0  0  0  0
    3.5631    4.0762    0.0000 C   0  0  0  0  0  0  0  0  0  0  0  0
    2.9893    1.1316    0.0000 C   0  0  0  0  0  0  0  0  0  0  0  0
    0.8446   -2.2626    0.0000 C   0  0  0  0  0  0  0  0  0  0  0  0
    1.7467   -3.4610    0.0000 C   0  0  0  0  0  0  0  0  0  0  0  0
   -0.6552   -2.2881    0.0000 C   0  0  0  0  0  0  0  0  0  0  0  0
   -1.5162   -3.5164    0.0000 C   0  0  0  0  0  0  0  0  0  0  0  0
   -3.6746   -1.4528    0.0000 C   0  0  0  0  0  0  0  0  0  0  0  0
  1  2  1  0
  2  3  1  0
  3  4  2  0
  4  5  1  0
  5  6  1  0
  4  7  1  0
  7  8  1  0
  8  9  1  0
  7 10  2  0
 10 11  1  0
 12 11  1  6
 12 13  1  0
 13 14  1  0
 14 15  1  1
 15 16  2  0
 16 17  1  0
 17 18  1  0
 18 19  1  0
 17 20  2  0
 20 21  1  0
 21 22  1  0
 20 23  1  0
 23 24  1  0
 24 25  1  0
 23 26  2  0
 14 27  1  0
 27 28  1  6
 27 29  1  0
 29 30  1  1
 11 31  2  0
 31  3  1  0
 29 12  1  0
 26 15  1  0
M  END
>  <identifier>  (692) 
CNP0293646.2

>  <canonical_smiles>  (692) 
COC1=C(OC)C(OC)=CC([C@@H]2O[C@@H](C3=CC(OC)=C(OC)C(OC)=C3)[C@H](C)[C@H]2C)=C1

>  <standard_inchi>  (692) 
InChI=1S/C24H32O7/c1-13-14(2)22(16-11-19(27-5)24(30-8)20(12-16)28-6)31-21(13)15-9-17(25-3)23(29-7)18(10-15)26-4/h9-14,21-22H,1-8H3/t13-,14-,21-,22-/m1/s1

>  <standard_inchi_key>  (692) 
ZPINJJOPURFFNV-LPINMEDASA-N

>  <name>  (692) 
(2R,3R,4R,5R)-3,4-dimethyl-2,5-bis(3,4,5-trimethoxyphenyl)oxolane

>  <iupac_name>  (692) 
(2~{R},3~{R},4~{R},5~{R})-3,4-dimethyl-2,5-bis(3,4,5-trimethoxyphenyl)tetrahydrofuran

>  <annotation_level>  (692) 
5

>  <total_atom_count>  (692) 
63

>  <heavy_atom_count>  (692) 
31

>  <molecular_weight>  (692) 
432.51

>  <exact_molecular_weight>  (692) 
432.2148

>  <molecular_formula>  (692) 
C24H32O7

>  <alogp>  (692) 
4.82

>  <topological_polar_surface_area>  (692) 
64.61

>  <rotatable_bond_count>  (692) 
8

>  <hydrogen_bond_acceptors>  (692) 
7

>  <hydrogen_bond_donors>  (692) 
0

>  <hydrogen_bond_acceptors_lipinski>  (692) 
7

>  <hydrogen_bond_donors_lipinski>  (692) 
0

>  <lipinski_rule_of_five_violations>  (692) 
0

>  <aromatic_rings_count>  (692) 
2

>  <qed_drug_likeliness>  (692) 
0.59

>  <formal_charge>  (692) 
0

>  <fractioncsp3>  (692) 
0.50

>  <number_of_minimal_rings>  (692) 
3

>  <van_der_walls_volume>  (692) 
405.41

>  <contains_sugar>  (692) 
False

>  <contains_ring_sugars>  (692) 
False

>  <contains_linear_sugars>  (692) 
False

>  <murcko_framework>  (692) 
O1C(c2ccccc2)CCC1c3ccccc3

>  <np_likeness>  (692) 
0.69

>  <chemical_class>  (692) 
Furanoid lignans

>  <chemical_sub_class>  (692) 
Tetrahydrofuran lignans

>  <chemical_super_class>  (692) 
Lignans, neolignans and related compounds

>  <direct_parent_classification>  (692) 
7,7'-epoxylignans

>  <np_classifier_pathway>  (692) 
Shikimates and Phenylpropanoids

>  <np_classifier_superclass>  (692) 
Lignans

>  <np_classifier_class>  (692) 
Furanoid lignans

>  <np_classifier_is_glycoside>  (692) 
False

>  <organisms>  (692) 
Aglaia leptantha|Arundo donax|Cryptocarya crassinervia|Cryptocarya griffithiana var. crassinervia|Licaria aurea|Litsea grandis|Magnolia denudata|Piper solmsianum|Rhaphidophora decursiva|Viguiera microphylla|Virola surinamensis

>  <collections>  (692) 
CMAUP (cCollective molecular activities of useful plants)|Latin America dataset|NPASS|NuBBEDB|WikiData Natural Products|ZINC NP

>  <dois>  (692) 
10.1016/J.JPBA.2012.08.028|10.1016/S0031-9422(00)00295-8|10.1016/S0031-9422(00)97948-2|10.1016/S0031-9422(03)00356-X|10.1016/S0031-9422(96)00408-6|10.1016/S0031-9422(98)00709-2|10.1016/j.jpba.2012.08.028|10.1021/NP010037C|10.1021/NP50078A033|10.1021/NP990542Y|10.1248/CPB.48.832

>  <synonyms>  (692) 
(-)-Grandisin|(2R,3R,4R,5R)-3,4-Dimethyl-2,5-bis(3,4,5-trimethoxyphenyl)tetrahydrofuran|53250-50-3|CHEMBL459404|Furan, tetrahydro-3,4-dimethyl-2,5-bis(3,4,5-trimethoxyphenyl)-, (2.alpha.,3.beta.,4.alpha.,5.beta.)-|ZPINJJOPURFFNV-LPINMEDASA-N

>  <cas>  (692) 
53250-50-3

$$$$

     RDKit          2D

 27 29  0  0  0  0  0  0  0  0999 V2000
   -6.5349    2.3072    0.0000 C   0  0  0  0  0  0  0  0  0  0  0  0
   -6.1685    0.8526    0.0000 O   0  0  0  0  0  0  0  0  0  0  0  0
   -4.7257    0.4426    0.0000 C   0  0  0  0  0  0  0  0  0  0  0  0
   -3.6491    1.4871    0.0000 C   0  0  0  0  0  0  0  0  0  0  0  0
   -2.2063    1.0771    0.0000 C   0  0  0  0  0  0  0  0  0  0  0  0
   -1.1297    2.1217    0.0000 O   0  0  0  0  0  0  0  0  0  0  0  0
   -1.4961    3.5762    0.0000 C   0  0  0  0  0  0  0  0  0  0  0  0
   -1.8399   -0.3775    0.0000 C   0  0  0  0  0  0  0  0  0  0  0  0
   -0.3970   -0.7875    0.0000 C   0  0  0  0  0  0  0  0  0  0  0  0
   -0.0307   -2.2421    0.0000 C   0  0  0  0  0  0  0  0  0  0  0  0
    1.4122   -2.6521    0.0000 O   0  0  0  0  0  0  0  0  0  0  0  0
    2.4887   -1.6075    0.0000 C   0  0  0  0  0  0  0  0  0  0  0  0
    3.9316   -2.0176    0.0000 C   0  0  0  0  0  0  0  0  0  0  0  0
    5.0081   -0.9730    0.0000 C   0  0  0  0  0  0  0  0  0  0  0  0
    6.4510   -1.3830    0.0000 O   0  0  0  0  0  0  0  0  0  0  0  0
    4.6418    0.4816    0.0000 C   0  0  0  0  0  0  0  0  0  0  0  0
    5.7183    1.5261    0.0000 O   0  0  0  0  0  0  0  0  0  0  0  0
    7.1612    1.1161    0.0000 C   0  0  0  0  0  0  0  0  0  0  0  0
    3.1989    0.8916    0.0000 C   0  0  0  0  0  0  0  0  0  0  0  0
    2.8325    2.3462    0.0000 O   0  0  0  0  0  0  0  0  0  0  0  0
    2.1224   -0.1530    0.0000 C   0  0  0  0  0  0  0  0  0  0  0  0
    0.6795    0.2571    0.0000 C   0  0  0  0  0  0  0  0  0  0  0  0
    0.3131    1.7116    0.0000 O   0  0  0  0  0  0  0  0  0  0  0  0
   -2.9164   -1.4220    0.0000 C   0  0  0  0  0  0  0  0  0  0  0  0
   -4.3593   -1.0120    0.0000 C   0  0  0  0  0  0  0  0  0  0  0  0
   -5.4358   -2.0565    0.0000 O   0  0  0  0  0  0  0  0  0  0  0  0
   -5.0695   -3.5111    0.0000 C   0  0  0  0  0  0  0  0  0  0  0  0
  1  2  1  0
  2  3  1  0
  3  4  2  0
  4  5  1  0
  5  6  1  0
  6  7  1  0
  5  8  2  0
  8  9  1  0
  9 10  2  0
 10 11  1  0
 11 12  1  0
 12 13  2  0
 13 14  1  0
 14 15  1  0
 14 16  2  0
 16 17  1  0
 17 18  1  0
 16 19  1  0
 19 20  1  0
 19 21  2  0
 21 22  1  0
 22 23  2  0
  8 24  1  0
 24 25  2  0
 25 26  1  0
 26 27  1  0
 25  3  1  0
 22  9  1  0
 21 12  1  0
M  END
>  <identifier>  (693) 
CNP0255453.0

>  <canonical_smiles>  (693) 
COC1=CC(OC)=C(C2=COC3=CC(O)=C(OC)C(O)=C3C2=O)C=C1OC

>  <standard_inchi>  (693) 
InChI=1S/C19H18O8/c1-23-12-7-14(25-3)13(24-2)5-9(12)10-8-27-15-6-11(20)19(26-4)18(22)16(15)17(10)21/h5-8,20,22H,1-4H3

>  <standard_inchi_key>  (693) 
SHONUJDWRZAHCQ-UHFFFAOYSA-N

>  <name>  (693) 
Caviunin

>  <iupac_name>  (693) 
5,7-dihydroxy-6-methoxy-3-(2,4,5-trimethoxyphenyl)chromen-4-one

>  <annotation_level>  (693) 
5

>  <total_atom_count>  (693) 
45

>  <heavy_atom_count>  (693) 
27

>  <molecular_weight>  (693) 
374.35

>  <exact_molecular_weight>  (693) 
374.10017

>  <molecular_formula>  (693) 
C19H18O8

>  <alogp>  (693) 
2.91

>  <topological_polar_surface_area>  (693) 
107.59

>  <rotatable_bond_count>  (693) 
5

>  <hydrogen_bond_acceptors>  (693) 
8

>  <hydrogen_bond_donors>  (693) 
2

>  <hydrogen_bond_acceptors_lipinski>  (693) 
8

>  <hydrogen_bond_donors_lipinski>  (693) 
2

>  <lipinski_rule_of_five_violations>  (693) 
0

>  <aromatic_rings_count>  (693) 
3

>  <qed_drug_likeliness>  (693) 
0.70

>  <formal_charge>  (693) 
0

>  <fractioncsp3>  (693) 
0.21

>  <number_of_minimal_rings>  (693) 
3

>  <van_der_walls_volume>  (693) 
316.95

>  <contains_sugar>  (693) 
False

>  <contains_ring_sugars>  (693) 
False

>  <contains_linear_sugars>  (693) 
False

>  <murcko_framework>  (693) 
O1C=C(c2ccccc2)Cc3ccccc13

>  <np_likeness>  (693) 
1.27

>  <chemical_class>  (693) 
Isoflavonoids

>  <chemical_sub_class>  (693) 
Isoflav-2-enes

>  <chemical_super_class>  (693) 
Phenylpropanoids and polyketides

>  <direct_parent_classification>  (693) 
Isoflavones

>  <np_classifier_pathway>  (693) 
Shikimates and Phenylpropanoids

>  <np_classifier_superclass>  (693) 
Isoflavonoids

>  <np_classifier_class>  (693) 
Isoflavones

>  <np_classifier_is_glycoside>  (693) 
False

>  <organisms>  (693) 
Arnica longifolia|Clerodendrum indicum|Dalbergia nigra|Dalbergia paniculata|Dalbergia riparia|Dalbergia sissoo|Kaempferia galanga|Paraderris canarensis|Plumbago auriculata|Rubus rigidus|Senegalia caesia|Spodoptera exigua

>  <collections>  (693) 
CMAUP (cCollective molecular activities of useful plants)|Latin America dataset|NPASS|NPEdia|NuBBEDB|Super Natural II|TCMID (Traditional Chinese Medicine Integrated Database)|UNPD (Universal Natural Products Database)|WikiData Natural Products|ZINC NP

>  <dois>  (693) 
10.1007/BF03051131|10.1016/0031-9422(73)80530-8|10.1016/0031-9422(73)85048-4|10.1016/0031-9422(91)83765-D|10.1016/J.BMCL.2011.12.036|10.1016/J.PHYTOCHEM.2010.04.011

>  <synonyms>  (693) 
5,7-Dihydroxy-6,2',4',5'-tetramethoxyisoflavone|5,7-dihydroxy-6-methoxy-3-(2,4,5-trimethoxyphenyl)chromen-4-one|7-O-(5-O-trans-p-coumaroyl)-beta-D-apiofuranosyl-(1-6)-beta-D-glucopyranoside|CHEMBL1945735|Caviunin|DivK1c_006380|KBio1_001324|LMPK12050423|SCHEMBL13730355|SpecPlus_000284

>  <cas>  (693) 
nan

$$$$

     RDKit          2D

 27 31  0  0  0  0  0  0  0  0999 V2000
   -6.3992    1.5231    0.0000 C   0  0  0  0  0  0  0  0  0  0  0  0
   -4.9271    1.8111    0.0000 C   0  0  0  0  0  0  0  0  0  0  0  0
   -3.9416    0.6803    0.0000 C   0  0  0  0  0  0  0  0  0  0  0  0
   -4.4281   -0.7386    0.0000 C   0  0  0  0  0  0  0  0  0  0  0  0
   -3.4426   -1.8694    0.0000 C   0  0  0  0  0  0  0  0  0  0  0  0
   -3.8037   -0.4135    0.0000 C   0  0  0  0  0  0  0  0  0  0  0  0
   -2.1998    2.4439    0.0000 N   0  0  0  0  0  0  0  0  0  0  0  0
   -0.8781    3.1531    0.0000 C   0  0  0  0  0  0  0  0  0  0  0  0
    0.5005    2.5619    0.0000 C   0  0  0  0  0  0  0  0  0  0  0  0
    0.8978    1.1154    0.0000 C   0  0  0  0  0  0  0  0  0  0  0  0
    0.0146   -0.0970    0.0000 C   0  0  0  0  0  0  0  0  0  0  0  0
    0.8948   -1.3116    0.0000 N   0  0  0  0  0  0  0  0  0  0  0  0
    2.3219   -0.8499    0.0000 C   0  0  0  0  0  0  0  0  0  0  0  0
    3.6200   -1.6015    0.0000 C   0  0  0  0  0  0  0  0  0  0  0  0
    4.9200   -0.8531    0.0000 C   0  0  0  0  0  0  0  0  0  0  0  0
    4.9218    0.6469    0.0000 C   0  0  0  0  0  0  0  0  0  0  0  0
    6.2218    1.3953    0.0000 O   0  0  0  0  0  0  0  0  0  0  0  0
    7.5199    0.6437    0.0000 C   0  0  0  0  0  0  0  0  0  0  0  0
    3.6237    1.3985    0.0000 C   0  0  0  0  0  0  0  0  0  0  0  0
    2.3238    0.6501    0.0000 C   0  0  0  0  0  0  0  0  0  0  0  0
   -1.4840   -0.1625    0.0000 C   0  0  0  0  0  0  0  0  0  0  0  0
   -0.5857   -1.3638    0.0000 C   0  0  0  0  0  0  0  0  0  0  0  0
    0.2051   -1.4639    0.0000 O   0  0  0  0  0  0  0  0  0  0  0  0
   -1.1770   -2.7423    0.0000 O   0  0  0  0  0  0  0  0  0  0  0  0
   -0.2787   -3.9436    0.0000 C   0  0  0  0  0  0  0  0  0  0  0  0
   -1.9706   -1.5813    0.0000 C   0  0  0  0  0  0  0  0  0  0  0  0
   -2.4695    0.9684    0.0000 C   0  0  0  0  0  0  0  0  0  0  0  0
  1  2  1  0
  3  2  1  6
  3  4  1  0
  5  4  1  1
  5  6  1  0
  6  7  1  0
  7  8  1  0
  8  9  1  0
  9 10  1  0
 10 11  2  0
 11 12  1  0
 12 13  1  0
 13 14  2  0
 14 15  1  0
 15 16  2  0
 16 17  1  0
 17 18  1  0
 16 19  1  0
 19 20  2  0
 11 21  1  0
 21 22  1  1
 22 23  2  0
 22 24  1  0
 24 25  1  0
 21 26  1  0
 21 27  1  0
 27  3  1  0
 26  5  1  0
 27  7  1  6
 20 10  1  0
 20 13  1  0
M  END
>  <identifier>  (694) 
CNP0137384.3

>  <canonical_smiles>  (694) 
CC[C@H]1C[C@H]2CN3CCC4=C(NC5=CC=C(OC)C=C45)[C@](C(=O)OC)(C2)[C@H]13

>  <standard_inchi>  (694) 
InChI=1S/C22H28N2O3/c1-4-14-9-13-11-22(21(25)27-3)19-16(7-8-24(12-13)20(14)22)17-10-15(26-2)5-6-18(17)23-19/h5-6,10,13-14,20,23H,4,7-9,11-12H2,1-3H3/t13-,14+,20+,22-/m1/s1

>  <standard_inchi_key>  (694) 
MMAYTCMMKJYIAM-PHKAQXKASA-N

>  <name>  (694) 
Voacangine

>  <iupac_name>  (694) 
methyl (1~{S},15~{R},17~{S},18~{S})-17-ethyl-7-methoxy-3,13-diazapentacyclo[13.3.1.0^{2,10}.0^{4,9}.0^{13,18}]nonadeca-2(10),4,6,8-tetraene-1-carboxylate

>  <annotation_level>  (694) 
5

>  <total_atom_count>  (694) 
55

>  <heavy_atom_count>  (694) 
27

>  <molecular_weight>  (694) 
368.48

>  <exact_molecular_weight>  (694) 
368.20999

>  <molecular_formula>  (694) 
C22H28N2O3

>  <alogp>  (694) 
3.26

>  <topological_polar_surface_area>  (694) 
54.56

>  <rotatable_bond_count>  (694) 
3

>  <hydrogen_bond_acceptors>  (694) 
4

>  <hydrogen_bond_donors>  (694) 
1

>  <hydrogen_bond_acceptors_lipinski>  (694) 
4

>  <hydrogen_bond_donors_lipinski>  (694) 
1

>  <lipinski_rule_of_five_violations>  (694) 
0

>  <aromatic_rings_count>  (694) 
2

>  <qed_drug_likeliness>  (694) 
0.85

>  <formal_charge>  (694) 
0

>  <fractioncsp3>  (694) 
0.59

>  <number_of_minimal_rings>  (694) 
6

>  <van_der_walls_volume>  (694) 
340.53

>  <contains_sugar>  (694) 
False

>  <contains_ring_sugars>  (694) 
False

>  <contains_linear_sugars>  (694) 
False

>  <murcko_framework>  (694) 
c1ccc2c(c1)[nH]c3c2CCN4CC5CCC4C3C5

>  <np_likeness>  (694) 
1.42

>  <chemical_class>  (694) 
Ibogan-type alkaloids

>  <chemical_sub_class>  (694) 
Ibogan-type alkaloids

>  <chemical_super_class>  (694) 
Alkaloids and derivatives

>  <direct_parent_classification>  (694) 
Ibogan-type alkaloids

>  <np_classifier_pathway>  (694) 
Alkaloids

>  <np_classifier_superclass>  (694) 
Tryptophan alkaloids

>  <np_classifier_class>  (694) 
Iboga type

>  <np_classifier_is_glycoside>  (694) 
False

>  <organisms>  (694) 
Callichilia barteri|Dorstenia zenkeri|Ervatamia coronaria (Jacq.)|Ervatamia divaricata|Ervatamia divaricata Gouyahua|Ervatamia officinalis|Holacantha emoryi|Pagiantha cerifera|Peschiera affinis|Stemmadenia obovata Benth|Tabernaemontana alternifolia|Tabernaemontana amblyocarpa Urb.|Tabernaemontana apoda Wr.ex Sauv.|Tabernaemontana arborea|Tabernaemontana arborea Rose|Tabernaemontana attenuata|Tabernaemontana attenuata (Miers)Urb.|Tabernaemontana aurantiaca Gaud.|Tabernaemontana australis Mull.Arg.|Tabernaemontana bovina|Tabernaemontana brachyantha|Tabernaemontana calcarea|Tabernaemontana catharinensis|Tabernaemontana cerifera|Tabernaemontana cerifera Panch.et Seb.|Tabernaemontana citrifolia|Tabernaemontana citrifolia L.|Tabernaemontana coffeoides Boj.|Tabernaemontana contorta Stapf.|Tabernaemontana corymbosa|Tabernaemontana cymosa|Tabernaemontana dichotoma|Tabernaemontana dichotoma Roxb.ex Wall|Tabernaemontana divaricata|Tabernaemontana divaricata (L.) R.Br.|Tabernaemontana echinata Vell.|Tabernaemontana flavicans|Tabernaemontana heterophylla|Tabernaemontana humblotii|Tabernaemontana humblotii (Baill.) Pichon|Tabernaemontana inconspicua|Tabernaemontana longiflora Benth.|Tabernaemontana longipes Donn.Sm.|Tabernaemontana lundii A.DC.|Tabernaemontana macrocalyx|Tabernaemontana macrocarpa|Tabernaemontana macrocarpa Jack|Tabernaemontana markgrafiana|Tabernaemontana mocquerysii|Tabernaemontana mocquerysii Aug.DC.|Tabernaemontana olivacea Mull.Arg.|Tabernaemontana orientalis R.Br.|Tabernaemontana pachysiphon|Tabernaemontana pachysiphon Stapf.|Tabernaemontana penduliflora K.Schum.|Tabernaemontana polyneura|Tabernaemontana psorocarpa|Tabernaemontana psorocarpa (Pierre ex Stapf) Pichon|Tabernaemontana psychotriifolia|Tabernaemontana psychotriifolia H.B.K.|Tabernaemontana quadrangularis|Tabernaemontana retusa|Tabernaemontana retusa (Lam.) Pichon|Tabernaemontana sananho Ruiz et Pav.|Tabernaemontana siphilitica|Tabernaemontana siphilitica Leeuwenberg|Tabernaemontana undulata|Tabernaemontana undulata Vahl|Tabernaemontana wallichiana Steud.|Trachelospermum jasminoides|Voacanga africana|Voacanga africana Stapf.|Voacanga dregei|Voacanga schweinfurthii|Voacanga thouarsii

>  <collections>  (694) 
ChEBI NPs|KNApSaCK|Latin America dataset|NPASS|NuBBEDB|WikiData Natural Products|ZINC NP

>  <dois>  (694) 
10.1002/(SICI)1099-1565(199903/04)10:2<60::AID-PCA446>3.0.CO;2-Y|10.1002/HLCA.19720550602|10.1002/HLCA.19820650729|10.1002/JPS.2600670242|10.1007/BF00937795|10.1016/0031-9422(74)80344-4|10.1016/0031-9422(75)85375-1|10.1016/0031-9422(90)87124-D|10.1016/S0031-9422(00)85321-2|10.1016/S0031-9422(00)89601-6|10.1021/JA01490A031|10.1021/NP020548E|10.1021/NP060344O|10.1021/NP50057A012|10.1021/acs.jnatprod.9b00856|10.1039/B301167D|10.1055/S-2007-969957|10.1111/J.2042-7158.1964.TB07419.X|10.1590/1809-43921983132409|10.3987/R-1985-10-2505|10.5935/0103-5053.19960018

>  <synonyms>  (694) 
(-)-Voacangine|10-METHOXYCORONARIDINE|510-22-5|9SY76D3YUK|BDBM50587312|CHEMBL4575134|Ibogamine-18-carboxylic acid, 12-methoxy-, methyl ester|METHYL (1S,15R,17S,18S)-17-ETHYL-7-METHOXY-3,13-DIAZAPENTACYCLO(13.3.1.02,10.04,9.013,18)NONADECA-2(10),4(9),5,7-TETRAENE-1-CARBOXYLATE|Methyl (1S,15R,17S,18S)-17-ethyl-7-methoxy-3,13-diazapentacyclo[13.3.1.02,10.04,9.013,18]nonadeca-2(10),4(9),5,7-tetraene-1-carboxylate|SCHEMBL1119055|Voacangine

>  <cas>  (694) 
510-22-5

$$$$

     RDKit          2D

 29 34  0  0  0  0  0  0  0  0999 V2000
   -1.0507    5.5348    0.0000 C   0  0  0  0  0  0  0  0  0  0  0  0
   -0.6431    4.0912    0.0000 C   0  0  0  0  0  0  0  0  0  0  0  0
    0.8108    3.7224    0.0000 O   0  0  0  0  0  0  0  0  0  0  0  0
   -1.6895    3.0165    0.0000 C   0  0  0  0  0  0  0  0  0  0  0  0
   -1.2819    1.5729    0.0000 C   0  0  0  0  0  0  0  0  0  0  0  0
   -2.3283    0.4982    0.0000 C   0  0  0  0  0  0  0  0  0  0  0  0
   -3.7823    0.8670    0.0000 C   0  0  0  0  0  0  0  0  0  0  0  0
   -4.8286   -0.2078    0.0000 C   0  0  0  0  0  0  0  0  0  0  0  0
   -4.4210   -1.6514    0.0000 C   0  0  0  0  0  0  0  0  0  0  0  0
   -2.9671   -2.0202    0.0000 C   0  0  0  0  0  0  0  0  0  0  0  0
   -1.9207   -0.9454    0.0000 C   0  0  0  0  0  0  0  0  0  0  0  0
   -0.4668   -1.3142    0.0000 C   0  0  0  0  0  0  0  0  0  0  0  0
   -0.0592   -2.7578    0.0000 C   0  0  0  0  0  0  0  0  0  0  0  0
    1.3948   -3.1266    0.0000 C   0  0  0  0  0  0  0  0  0  0  0  0
    2.4411   -2.0518    0.0000 C   0  0  0  0  0  0  0  0  0  0  0  0
    3.8951   -2.4206    0.0000 C   0  0  0  0  0  0  0  0  0  0  0  0
    4.9415   -1.3459    0.0000 C   0  0  0  0  0  0  0  0  0  0  0  0
    6.4403   -1.4043    0.0000 O   0  0  0  0  0  0  0  0  0  0  0  0
    6.9591    0.0031    0.0000 C   0  0  0  0  0  0  0  0  0  0  0  0
    5.7808    0.9314    0.0000 O   0  0  0  0  0  0  0  0  0  0  0  0
    4.5339    0.0977    0.0000 C   0  0  0  0  0  0  0  0  0  0  0  0
    3.0799    0.4665    0.0000 C   0  0  0  0  0  0  0  0  0  0  0  0
    2.0336   -0.6082    0.0000 C   0  0  0  0  0  0  0  0  0  0  0  0
    0.5796   -0.2394    0.0000 C   0  0  0  0  0  0  0  0  0  0  0  0
    0.1720    1.2041    0.0000 N   0  0  0  0  0  0  0  0  0  0  0  0
    1.2184    2.2789    0.0000 C   0  0  0  0  0  0  0  0  0  0  0  0
   -5.6680   -2.4851    0.0000 O   0  0  0  0  0  0  0  0  0  0  0  0
   -6.8462   -1.5568    0.0000 C   0  0  0  0  0  0  0  0  0  0  0  0
   -6.3275   -0.1493    0.0000 O   0  0  0  0  0  0  0  0  0  0  0  0
  1  2  1  0
  2  3  2  0
  2  4  1  0
  5  4  1  1
  5  6  1  0
  6  7  2  0
  7  8  1  0
  8  9  2  0
  9 10  1  0
 10 11  2  0
 11 12  1  0
 12 13  2  0
 13 14  1  0
 14 15  2  0
 15 16  1  0
 16 17  2  0
 17 18  1  0
 18 19  1  0
 19 20  1  0
 20 21  1  0
 21 22  2  0
 22 23  1  0
 23 24  2  0
 24 25  1  0
 25 26  1  0
  9 27  1  0
 27 28  1  0
 28 29  1  0
 25  5  1  0
 11  6  1  0
 24 12  1  0
 29  8  1  0
 23 15  1  0
 21 17  1  0
M  END
>  <identifier>  (695) 
CNP0192669.1

>  <canonical_smiles>  (695) 
CC(=O)C[C@@H]1C2=CC3=C(C=C2C2=CC=C4C=C5OCOC5=CC4=C2N1C)OCO3

>  <standard_inchi>  (695) 
InChI=1S/C23H19NO5/c1-12(25)5-18-17-9-22-21(28-11-29-22)8-16(17)14-4-3-13-6-19-20(27-10-26-19)7-15(13)23(14)24(18)2/h3-4,6-9,18H,5,10-11H2,1-2H3/t18-/m1/s1

>  <standard_inchi_key>  (695) 
GJBHZMIAIYWRBK-GOSISDBHSA-N

>  <name>  (695) 
nan

>  <iupac_name>  (695) 
1-[(11~{R})-12-methyl-5,7,17,19-tetraoxa-12-azahexacyclo[11.11.0.0^{2,10}.0^{4,8}.0^{14,22}.0^{16,20}]tetracosa-1(24),2,4(8),9,13,15,20,22-octaen-11-yl]propan-2-one

>  <annotation_level>  (695) 
5

>  <total_atom_count>  (695) 
48

>  <heavy_atom_count>  (695) 
29

>  <molecular_weight>  (695) 
389.41

>  <exact_molecular_weight>  (695) 
389.12632

>  <molecular_formula>  (695) 
C23H19NO5

>  <alogp>  (695) 
4.43

>  <topological_polar_surface_area>  (695) 
57.23

>  <rotatable_bond_count>  (695) 
2

>  <hydrogen_bond_acceptors>  (695) 
6

>  <hydrogen_bond_donors>  (695) 
0

>  <hydrogen_bond_acceptors_lipinski>  (695) 
6

>  <hydrogen_bond_donors_lipinski>  (695) 
0

>  <lipinski_rule_of_five_violations>  (695) 
0

>  <aromatic_rings_count>  (695) 
3

>  <qed_drug_likeliness>  (695) 
0.65

>  <formal_charge>  (695) 
0

>  <fractioncsp3>  (695) 
0.26

>  <number_of_minimal_rings>  (695) 
6

>  <van_der_walls_volume>  (695) 
330.66

>  <contains_sugar>  (695) 
False

>  <contains_ring_sugars>  (695) 
False

>  <contains_linear_sugars>  (695) 
False

>  <murcko_framework>  (695) 
O1c2cc3ccc4-c5cc6OCOc6cc5CNc4c3cc2OC1

>  <np_likeness>  (695) 
1.01

>  <chemical_class>  (695) 
Quinolines and derivatives

>  <chemical_sub_class>  (695) 
Benzoquinolines

>  <chemical_super_class>  (695) 
Organoheterocyclic compounds

>  <direct_parent_classification>  (695) 
Phenanthridines and derivatives

>  <np_classifier_pathway>  (695) 
Alkaloids

>  <np_classifier_superclass>  (695) 
Tyrosine alkaloids

>  <np_classifier_class>  (695) 
Isoquinoline alkaloids

>  <np_classifier_is_glycoside>  (695) 
False

>  <organisms>  (695) 
Zanthoxylum caudatum|Zanthoxylum rhoifolium|Zanthoxylum riedelianum|Zanthoxylum tetraspermum

>  <collections>  (695) 
KNApSaCK|Latin America dataset|NuBBEDB|Super Natural II|WikiData Natural Products|ZINC NP

>  <dois>  (695) 
10.1016/S0031-9422(00)00402-7|10.1590/S0103-50532009000200025

>  <synonyms>  (695) 
6-Acetonyldihydroavicine

>  <cas>  (695) 
nan

$$$$

     RDKit          2D

 23 25  0  0  0  0  0  0  0  0999 V2000
   -7.3836   -1.6735    0.0000 C   0  0  0  0  0  0  0  0  0  0  0  0
   -5.9399   -2.0807    0.0000 O   0  0  0  0  0  0  0  0  0  0  0  0
   -4.8654   -1.0339    0.0000 C   0  0  0  0  0  0  0  0  0  0  0  0
   -5.2347    0.4199    0.0000 C   0  0  0  0  0  0  0  0  0  0  0  0
   -4.1603    1.4666    0.0000 C   0  0  0  0  0  0  0  0  0  0  0  0
   -2.7166    1.0595    0.0000 C   0  0  0  0  0  0  0  0  0  0  0  0
   -1.6422    2.1062    0.0000 C   0  0  0  0  0  0  0  0  0  0  0  0
   -2.0114    3.5600    0.0000 O   0  0  0  0  0  0  0  0  0  0  0  0
   -0.1985    1.6991    0.0000 C   0  0  0  0  0  0  0  0  0  0  0  0
    0.1708    0.2452    0.0000 C   0  0  0  0  0  0  0  0  0  0  0  0
    1.6145   -0.1619    0.0000 C   0  0  0  0  0  0  0  0  0  0  0  0
    1.9838   -1.6157    0.0000 C   0  0  0  0  0  0  0  0  0  0  0  0
    3.4275   -2.0228    0.0000 C   0  0  0  0  0  0  0  0  0  0  0  0
    4.5019   -0.9761    0.0000 C   0  0  0  0  0  0  0  0  0  0  0  0
    5.9456   -1.3832    0.0000 O   0  0  0  0  0  0  0  0  0  0  0  0
    6.3148   -2.8371    0.0000 C   0  0  0  0  0  0  0  0  0  0  0  0
    4.1326    0.4777    0.0000 C   0  0  0  0  0  0  0  0  0  0  0  0
    5.2070    1.5244    0.0000 O   0  0  0  0  0  0  0  0  0  0  0  0
    4.8378    2.9783    0.0000 C   0  0  0  0  0  0  0  0  0  0  0  0
    2.6889    0.8848    0.0000 C   0  0  0  0  0  0  0  0  0  0  0  0
   -0.9036   -0.8015    0.0000 O   0  0  0  0  0  0  0  0  0  0  0  0
   -2.3473   -0.3943    0.0000 C   0  0  0  0  0  0  0  0  0  0  0  0
   -3.4217   -1.4411    0.0000 C   0  0  0  0  0  0  0  0  0  0  0  0
  1  2  1  0
  2  3  1  0
  3  4  2  0
  4  5  1  0
  5  6  2  0
  6  7  1  0
  7  8  2  0
  7  9  1  0
  9 10  2  0
 10 11  1  0
 11 12  2  0
 12 13  1  0
 13 14  2  0
 14 15  1  0
 15 16  1  0
 14 17  1  0
 17 18  1  0
 18 19  1  0
 17 20  2  0
 10 21  1  0
 21 22  1  0
 22 23  2  0
 23  3  1  0
 22  6  1  0
 20 11  1  0
M  END
>  <identifier>  (696) 
CNP0331150.0

>  <canonical_smiles>  (696) 
COC1=CC=C2C(=O)C=C(C3=CC=C(OC)C(OC)=C3)OC2=C1

>  <standard_inchi>  (696) 
InChI=1S/C18H16O5/c1-20-12-5-6-13-14(19)10-16(23-17(13)9-12)11-4-7-15(21-2)18(8-11)22-3/h4-10H,1-3H3

>  <standard_inchi_key>  (696) 
VSFZYCDPDWSYSS-UHFFFAOYSA-N

>  <name>  (696) 
22395-24-0

>  <iupac_name>  (696) 
2-(3,4-dimethoxyphenyl)-7-methoxy-chromen-4-one

>  <annotation_level>  (696) 
5

>  <total_atom_count>  (696) 
39

>  <heavy_atom_count>  (696) 
23

>  <molecular_weight>  (696) 
312.32

>  <exact_molecular_weight>  (696) 
312.09977

>  <molecular_formula>  (696) 
C18H16O5

>  <alogp>  (696) 
3.49

>  <topological_polar_surface_area>  (696) 
57.90

>  <rotatable_bond_count>  (696) 
4

>  <hydrogen_bond_acceptors>  (696) 
5

>  <hydrogen_bond_donors>  (696) 
0

>  <hydrogen_bond_acceptors_lipinski>  (696) 
5

>  <hydrogen_bond_donors_lipinski>  (696) 
0

>  <lipinski_rule_of_five_violations>  (696) 
0

>  <aromatic_rings_count>  (696) 
3

>  <qed_drug_likeliness>  (696) 
0.74

>  <formal_charge>  (696) 
0

>  <fractioncsp3>  (696) 
0.17

>  <number_of_minimal_rings>  (696) 
3

>  <van_der_walls_volume>  (696) 
272.79

>  <contains_sugar>  (696) 
False

>  <contains_ring_sugars>  (696) 
False

>  <contains_linear_sugars>  (696) 
False

>  <murcko_framework>  (696) 
O1c2ccccc2CC=C1c3ccccc3

>  <np_likeness>  (696) 
0.31

>  <chemical_class>  (696) 
Flavonoids

>  <chemical_sub_class>  (696) 
O-methylated flavonoids

>  <chemical_super_class>  (696) 
Phenylpropanoids and polyketides

>  <direct_parent_classification>  (696) 
3'-O-methylated flavonoids

>  <np_classifier_pathway>  (696) 
Shikimates and Phenylpropanoids

>  <np_classifier_superclass>  (696) 
Flavonoids

>  <np_classifier_class>  (696) 
Flavones

>  <np_classifier_is_glycoside>  (696) 
False

>  <organisms>  (696) 
Acacia fasciculifera|Iryanthera juruensis|Myroxylon peruiferum|Umtiza listerana|Virola venosa

>  <collections>  (696) 
CMAUP (cCollective molecular activities of useful plants)|ChemSpider NPs|GNPS (Global Natural Products Social Molecular Networking)|InterBioScreen Ltd|KNApSaCK|Latin America dataset|NPASS|NPEdia|NuBBEDB|Super Natural II|TCMDB-Taiwan (Traditional Chinese Medicine database)|UNPD (Universal Natural Products Database)|WikiData Natural Products|ZINC NP

>  <dois>  (696) 
10.1016/0031-9422(91)83055-P|10.1016/S0031-9422(00)97703-3|10.1016/S0960-894X(99)00141-9|10.1016/s0960-894x(99)00141-9|10.1021/JF063451X|10.1021/jf063451x|10.1039/P19810002483

>  <synonyms>  (696) 
2-(3,4-Dimethoxyphenyl)-7-methoxy-4H-1-benzopyran-4-one|2-(3,4-Dimethoxyphenyl)-7-methoxy-4H-chromen-4-one|3,4,7-TRIMETHOXYFLAVONE|4H-1-Benzopyran-4-one, 2-(3,4-dimethoxyphenyl)-7-methoxy-|7,3',4'-Trimethoxyflavone|AKOS000663258|BDBM50420210|C18H16O5|CHEMBL13473|CS-0358577|DB-006271|DTXSID50176921|EU-0038471|F17715|Fasciculiferin|Flavone, 3',4',7-trimethoxy-|LMPK12110045|MFCD00143003|Oprea1_622775|Oprea1_692463|SCHEMBL987112|SR-01000434443|STL570255|VSFZYCDPDWSYSS-UHFFFAOYSA-N

>  <cas>  (696) 
nan

$$$$

     RDKit          2D

 18 20  0  0  0  0  0  0  0  0999 V2000
    6.1531   -1.8717    0.0000 C   0  0  0  0  0  0  0  0  0  0  0  0
    4.7237   -1.4168    0.0000 O   0  0  0  0  0  0  0  0  0  0  0  0
    4.4030    0.0485    0.0000 C   0  0  0  0  0  0  0  0  0  0  0  0
    5.5116    1.0589    0.0000 O   0  0  0  0  0  0  0  0  0  0  0  0
    2.9736    0.5034    0.0000 C   0  0  0  0  0  0  0  0  0  0  0  0
    2.5015    1.9271    0.0000 C   0  0  0  0  0  0  0  0  0  0  0  0
    1.0015    1.9181    0.0000 O   0  0  0  0  0  0  0  0  0  0  0  0
    0.5466    0.4887    0.0000 C   0  0  0  0  0  0  0  0  0  0  0  0
   -0.8772    0.0166    0.0000 C   0  0  0  0  0  0  0  0  0  0  0  0
   -1.1801   -1.4525    0.0000 C   0  0  0  0  0  0  0  0  0  0  0  0
   -2.6039   -1.9247    0.0000 C   0  0  0  0  0  0  0  0  0  0  0  0
   -3.7247   -0.9277    0.0000 C   0  0  0  0  0  0  0  0  0  0  0  0
   -5.2155   -1.0935    0.0000 N   0  0  0  0  0  0  0  0  0  0  0  0
   -5.8338    0.2731    0.0000 C   0  0  0  0  0  0  0  0  0  0  0  0
   -4.7252    1.2835    0.0000 C   0  0  0  0  0  0  0  0  0  0  0  0
   -3.4217    0.5414    0.0000 C   0  0  0  0  0  0  0  0  0  0  0  0
   -1.9979    1.0135    0.0000 C   0  0  0  0  0  0  0  0  0  0  0  0
    1.7654   -0.3856    0.0000 C   0  0  0  0  0  0  0  0  0  0  0  0
  1  2  1  0
  2  3  1  0
  3  4  2  0
  3  5  1  0
  5  6  2  0
  6  7  1  0
  7  8  1  0
  8  9  1  0
  9 10  2  0
 10 11  1  0
 11 12  2  0
 12 13  1  0
 13 14  1  0
 14 15  2  0
 15 16  1  0
 16 17  2  0
  8 18  2  0
 18  5  1  0
 17  9  1  0
 16 12  1  0
M  END
>  <identifier>  (697) 
CNP0214491.0

>  <canonical_smiles>  (697) 
COC(=O)C1=COC(C2=CC=C3NC=CC3=C2)=C1

>  <standard_inchi>  (697) 
InChI=1S/C14H11NO3/c1-17-14(16)11-7-13(18-8-11)10-2-3-12-9(6-10)4-5-15-12/h2-8,15H,1H3

>  <standard_inchi_key>  (697) 
RNCDIBITYIGCRS-UHFFFAOYSA-N

>  <name>  (697) 
nan

>  <iupac_name>  (697) 
methyl 5-(1~{H}-indol-5-yl)furan-3-carboxylate

>  <annotation_level>  (697) 
4

>  <total_atom_count>  (697) 
29

>  <heavy_atom_count>  (697) 
18

>  <molecular_weight>  (697) 
241.25

>  <exact_molecular_weight>  (697) 
241.07389

>  <molecular_formula>  (697) 
C14H11NO3

>  <alogp>  (697) 
3.21

>  <topological_polar_surface_area>  (697) 
55.23

>  <rotatable_bond_count>  (697) 
2

>  <hydrogen_bond_acceptors>  (697) 
3

>  <hydrogen_bond_donors>  (697) 
1

>  <hydrogen_bond_acceptors_lipinski>  (697) 
3

>  <hydrogen_bond_donors_lipinski>  (697) 
1

>  <lipinski_rule_of_five_violations>  (697) 
0

>  <aromatic_rings_count>  (697) 
3

>  <qed_drug_likeliness>  (697) 
0.70

>  <formal_charge>  (697) 
0

>  <fractioncsp3>  (697) 
0.07

>  <number_of_minimal_rings>  (697) 
3

>  <van_der_walls_volume>  (697) 
nan

>  <contains_sugar>  (697) 
False

>  <contains_ring_sugars>  (697) 
False

>  <contains_linear_sugars>  (697) 
False

>  <murcko_framework>  (697) 
o1cccc1-c2ccc3[nH]ccc3c2

>  <np_likeness>  (697) 
-0.07

>  <chemical_class>  (697) 
Indoles and derivatives

>  <chemical_sub_class>  (697) 
Indoles

>  <chemical_super_class>  (697) 
Organoheterocyclic compounds

>  <direct_parent_classification>  (697) 
Indoles

>  <np_classifier_pathway>  (697) 
Alkaloids

>  <np_classifier_superclass>  (697) 
Tryptophan alkaloids

>  <np_classifier_class>  (697) 
Simple indole alkaloids

>  <np_classifier_is_glycoside>  (697) 
False

>  <organisms>  (697) 
Raputia praetermissa

>  <collections>  (697) 
Latin America dataset|NuBBEDB|UNPD (Universal Natural Products Database)|WikiData Natural Products

>  <dois>  (697) 
10.1590/S0103-50532011000700021

>  <synonyms>  (697) 
Raputimonoindole B

>  <cas>  (697) 
nan

$$$$

     RDKit          2D

 33 37  0  0  0  0  0  0  0  0999 V2000
    1.3780   -5.4159    0.0000 C   0  0  0  0  0  0  0  0  0  0  0  0
    1.8286   -3.9852    0.0000 C   0  0  0  0  0  0  0  0  0  0  0  0
    3.2929   -3.6600    0.0000 O   0  0  0  0  0  0  0  0  0  0  0  0
    0.8148   -2.8796    0.0000 O   0  0  0  0  0  0  0  0  0  0  0  0
    1.2654   -1.4489    0.0000 C   0  0  0  0  0  0  0  0  0  0  0  0
    2.7297   -1.1237    0.0000 C   0  0  0  0  0  0  0  0  0  0  0  0
    3.1803    0.3070    0.0000 C   0  0  0  0  0  0  0  0  0  0  0  0
    4.6447    0.6322    0.0000 C   0  0  0  0  0  0  0  0  0  0  0  0
    6.1319    0.4369    0.0000 C   0  0  0  0  0  0  0  0  0  0  0  0
    4.7106   -0.8664    0.0000 C   0  0  0  0  0  0  0  0  0  0  0  0
    5.0952    2.0629    0.0000 C   0  0  0  0  0  0  0  0  0  0  0  0
    6.5596    2.3880    0.0000 O   0  0  0  0  0  0  0  0  0  0  0  0
    4.0815    3.1685    0.0000 C   0  0  0  0  0  0  0  0  0  0  0  0
    2.6171    2.8433    0.0000 C   0  0  0  0  0  0  0  0  0  0  0  0
    2.1666    1.4126    0.0000 C   0  0  0  0  0  0  0  0  0  0  0  0
    1.1528    2.5182    0.0000 C   0  0  0  0  0  0  0  0  0  0  0  0
    0.7022    1.0875    0.0000 C   0  0  0  0  0  0  0  0  0  0  0  0
   -0.3115    2.1930    0.0000 C   0  0  0  0  0  0  0  0  0  0  0  0
   -1.7759    1.8679    0.0000 C   0  0  0  0  0  0  0  0  0  0  0  0
   -2.2264    0.4372    0.0000 C   0  0  0  0  0  0  0  0  0  0  0  0
   -3.3502    1.4307    0.0000 C   0  0  0  0  0  0  0  0  0  0  0  0
   -1.2127   -0.6684    0.0000 C   0  0  0  0  0  0  0  0  0  0  0  0
   -1.9509   -1.9742    0.0000 C   0  0  0  0  0  0  0  0  0  0  0  0
   -3.4209   -1.6756    0.0000 C   0  0  0  0  0  0  0  0  0  0  0  0
   -4.5265   -2.6894    0.0000 O   0  0  0  0  0  0  0  0  0  0  0  0
   -3.5912   -0.1853    0.0000 C   0  0  0  0  0  0  0  0  0  0  0  0
   -4.8970    0.5529    0.0000 C   0  0  0  0  0  0  0  0  0  0  0  0
   -6.2617   -0.0696    0.0000 C   0  0  0  0  0  0  0  0  0  0  0  0
   -7.2754    1.0359    0.0000 O   0  0  0  0  0  0  0  0  0  0  0  0
   -6.5372    2.3417    0.0000 C   0  0  0  0  0  0  0  0  0  0  0  0
   -5.0673    2.0432    0.0000 C   0  0  0  0  0  0  0  0  0  0  0  0
    0.2516   -0.3433    0.0000 C   0  0  0  0  0  0  0  0  0  0  0  0
   -0.1989   -1.7740    0.0000 C   0  0  0  0  0  0  0  0  0  0  0  0
  1  2  1  0
  2  3  2  0
  2  4  1  0
  5  4  1  1
  5  6  1  0
  7  6  1  6
  7  8  1  0
  8  9  1  0
  8 10  1  0
  8 11  1  0
 11 12  2  0
 11 13  1  0
 13 14  2  0
 14 15  1  0
 15 16  1  6
 15 17  1  0
 17 18  1  6
 18 19  1  0
 19 20  1  0
 20 21  1  1
 20 22  1  0
 22 23  2  0
 23 24  1  0
 24 25  2  0
 24 26  1  0
 26 27  1  1
 27 28  2  0
 28 29  1  0
 29 30  1  0
 30 31  2  0
 22 32  1  0
 32 33  1  6
 32  5  1  0
 15  7  1  0
 32 17  1  0
 26 20  1  0
 31 27  1  0
M  END
>  <identifier>  (698) 
CNP0219625.3

>  <canonical_smiles>  (698) 
CC(=O)O[C@@H]1C[C@H]2C(C)(C)C(=O)C=C[C@]2(C)[C@H]2CC[C@]3(C)C(=CC(=O)[C@H]3C3=COC=C3)[C@@]21C

>  <standard_inchi>  (698) 
InChI=1S/C28H34O5/c1-16(29)33-23-14-20-25(2,3)22(31)8-11-26(20,4)19-7-10-27(5)21(28(19,23)6)13-18(30)24(27)17-9-12-32-15-17/h8-9,11-13,15,19-20,23-24H,7,10,14H2,1-6H3/t19-,20+,23-,24-,26-,27-,28-/m1/s1

>  <standard_inchi_key>  (698) 
KWAMDQVQFVBEAU-HMWIRDDCSA-N

>  <name>  (698) 
Azadiradione

>  <iupac_name>  (698) 
[(5~{R},7~{R},8~{R},9~{R},10~{R},13~{S},17~{R})-17-(3-furyl)-4,4,8,10,13-pentamethyl-3,16-dioxo-6,7,9,11,12,17-hexahydro-5~{H}-cyclopenta[a]phenanthren-7-yl] acetate

>  <annotation_level>  (698) 
5

>  <total_atom_count>  (698) 
67

>  <heavy_atom_count>  (698) 
33

>  <molecular_weight>  (698) 
450.58

>  <exact_molecular_weight>  (698) 
450.24062

>  <molecular_formula>  (698) 
C28H34O5

>  <alogp>  (698) 
5.42

>  <topological_polar_surface_area>  (698) 
73.58

>  <rotatable_bond_count>  (698) 
2

>  <hydrogen_bond_acceptors>  (698) 
5

>  <hydrogen_bond_donors>  (698) 
0

>  <hydrogen_bond_acceptors_lipinski>  (698) 
5

>  <hydrogen_bond_donors_lipinski>  (698) 
0

>  <lipinski_rule_of_five_violations>  (698) 
1

>  <aromatic_rings_count>  (698) 
1

>  <qed_drug_likeliness>  (698) 
0.56

>  <formal_charge>  (698) 
0

>  <fractioncsp3>  (698) 
0.61

>  <number_of_minimal_rings>  (698) 
5

>  <van_der_walls_volume>  (698) 
419.72

>  <contains_sugar>  (698) 
False

>  <contains_ring_sugars>  (698) 
False

>  <contains_linear_sugars>  (698) 
False

>  <murcko_framework>  (698) 
o1ccc(c1)C2CC=C3C2CCC4C5C=CCCC5CCC34

>  <np_likeness>  (698) 
3.34

>  <chemical_class>  (698) 
Steroids and steroid derivatives

>  <chemical_sub_class>  (698) 
Oxosteroids

>  <chemical_super_class>  (698) 
Lipids and lipid-like molecules

>  <direct_parent_classification>  (698) 
Oxosteroids

>  <np_classifier_pathway>  (698) 
Terpenoids

>  <np_classifier_superclass>  (698) 
Triterpenoids

>  <np_classifier_class>  (698) 
Limonoids

>  <np_classifier_is_glycoside>  (698) 
False

>  <organisms>  (698) 
Azadirachta indica|Cedrela odorata|Chisocheton siamensis|Dysoxylum parasiticum|Lansium domesticum|Quivisianthe papinae|Xylocarpus granatum

>  <collections>  (698) 
CMAUP (cCollective molecular activities of useful plants)|ChEBI NPs|Latin America dataset|NPASS|NuBBEDB|Super Natural II|WikiData Natural Products

>  <dois>  (698) 
10.1002/CHIN.199237275|10.1002/CHIN.200427164|10.1007/BF00518800|10.1007/BF02980677|10.1016/0031-9422(88)80661-7|10.1016/J.PHYMED.2008.05.004|10.1016/J.PHYTOCHEM.2006.07.005|10.1016/S0031-9422(96)00747-9|10.1016/S0040-4020(00)00244-1|10.1016/S0040-4020(01)98254-7|10.1016/S0367-326X(99)00155-0|10.1021/NP100325Q|10.1021/NP100395W|10.1021/NP100783K|10.1021/NP50081A005|10.1021/np100325q|10.1021/np100783k|10.1080/10826079508010463|10.1139/V07-155|10.1271/BBB.56.1835|10.1515/ZNB-1986-0720

>  <synonyms>  (698) 
(5alpha,7alpha,13alpha,17alpha)-17-(furan-3-yl)-4,4,8-trimethyl-3,16-dioxoandrosta-1,14-dien-7-yl acetate|24-Nor-5alpha,13alpha,17alpha-chola-1,14,20,22-tetraene-3,16-dione, 21,23-epoxy-7alpha-hydroxy-4,4,8-trimethyl-,acetate|24-Norchola-1,14,20,22-tetraene-3,16-dione, 7-(acetyloxy)-21,23-epoxy-4,4,8-trimethyl-, (5alpha,7alpha,13alpha,17alpha)-|26241-51-0|AKOS040763659|AT40289|Azadiradione|Azadiradione (~90%)|BDBM92410|CHEBI:67280|CHEMBL1215754|HY-N9615|Q27135739|TS-10154|[(5R,7R,8R,9R,10R,13S,17R)-17-(furan-3-yl)-4,4,8,10,13-pentamethyl-3,16-dioxo-6,7,9,11,12,17-hexahydro-5H-cyclopenta[a]phenanthren-7-yl] acetate

>  <cas>  (698) 
26241-51-0

$$$$

     RDKit          2D

 20 21  0  0  0  0  0  0  0  0999 V2000
   -7.8565    0.5283    0.0000 C   0  0  0  0  0  0  0  0  0  0  0  0
   -6.5614   -0.2284    0.0000 C   0  0  0  0  0  0  0  0  0  0  0  0
   -6.5692   -1.7284    0.0000 C   0  0  0  0  0  0  0  0  0  0  0  0
   -5.2585    0.5148    0.0000 N   0  0  0  0  0  0  0  0  0  0  0  0
   -3.9634   -0.2419    0.0000 C   0  0  0  0  0  0  0  0  0  0  0  0
   -2.6605    0.5013    0.0000 C   0  0  0  0  0  0  0  0  0  0  0  0
   -2.6527    2.0013    0.0000 O   0  0  0  0  0  0  0  0  0  0  0  0
   -1.3653   -0.2554    0.0000 C   0  0  0  0  0  0  0  0  0  0  0  0
   -0.0624    0.4878    0.0000 O   0  0  0  0  0  0  0  0  0  0  0  0
    1.2327   -0.2689    0.0000 C   0  0  0  0  0  0  0  0  0  0  0  0
    1.2249   -1.7689    0.0000 C   0  0  0  0  0  0  0  0  0  0  0  0
    2.5200   -2.5256    0.0000 C   0  0  0  0  0  0  0  0  0  0  0  0
    3.8230   -1.7824    0.0000 C   0  0  0  0  0  0  0  0  0  0  0  0
    5.1181   -2.5391    0.0000 O   0  0  0  0  0  0  0  0  0  0  0  0
    3.8307   -0.2824    0.0000 C   0  0  0  0  0  0  0  0  0  0  0  0
    5.1337    0.4608    0.0000 C   0  0  0  0  0  0  0  0  0  0  0  0
    5.1415    1.9608    0.0000 C   0  0  0  0  0  0  0  0  0  0  0  0
    3.8463    2.7176    0.0000 C   0  0  0  0  0  0  0  0  0  0  0  0
    2.5434    1.9743    0.0000 C   0  0  0  0  0  0  0  0  0  0  0  0
    2.5356    0.4743    0.0000 C   0  0  0  0  0  0  0  0  0  0  0  0
  1  2  1  0
  2  3  1  0
  2  4  1  0
  4  5  1  0
  5  6  1  0
  6  7  1  1
  6  8  1  0
  8  9  1  0
  9 10  1  0
 10 11  2  0
 11 12  1  0
 12 13  2  0
 13 14  1  0
 13 15  1  0
 15 16  2  0
 16 17  1  0
 17 18  2  0
 18 19  1  0
 19 20  2  0
 20 10  1  0
 20 15  1  0
M  END
>  <identifier>  (699) 
CNP0285218.1

>  <canonical_smiles>  (699) 
CC(C)NC[C@@H](O)COC1=CC=C(O)C2=CC=CC=C12

>  <standard_inchi>  (699) 
InChI=1S/C16H21NO3/c1-11(2)17-9-12(18)10-20-16-8-7-15(19)13-5-3-4-6-14(13)16/h3-8,11-12,17-19H,9-10H2,1-2H3/t12-/m1/s1

>  <standard_inchi_key>  (699) 
CWEPACWBWIOYID-GFCCVEGCSA-N

>  <name>  (699) 
(+)-4-Hydroxypropranolol

>  <iupac_name>  (699) 
4-[(2~{R})-2-hydroxy-3-(isopropylamino)propoxy]naphthalen-1-ol

>  <annotation_level>  (699) 
5

>  <total_atom_count>  (699) 
41

>  <heavy_atom_count>  (699) 
20

>  <molecular_weight>  (699) 
275.35

>  <exact_molecular_weight>  (699) 
275.15214

>  <molecular_formula>  (699) 
C16H21NO3

>  <alogp>  (699) 
2.28

>  <topological_polar_surface_area>  (699) 
61.72

>  <rotatable_bond_count>  (699) 
6

>  <hydrogen_bond_acceptors>  (699) 
4

>  <hydrogen_bond_donors>  (699) 
3

>  <hydrogen_bond_acceptors_lipinski>  (699) 
4

>  <hydrogen_bond_donors_lipinski>  (699) 
3

>  <lipinski_rule_of_five_violations>  (699) 
0

>  <aromatic_rings_count>  (699) 
2

>  <qed_drug_likeliness>  (699) 
0.76

>  <formal_charge>  (699) 
0

>  <fractioncsp3>  (699) 
0.38

>  <number_of_minimal_rings>  (699) 
2

>  <van_der_walls_volume>  (699) 
nan

>  <contains_sugar>  (699) 
False

>  <contains_ring_sugars>  (699) 
False

>  <contains_linear_sugars>  (699) 
False

>  <murcko_framework>  (699) 
c1ccc2ccccc2c1

>  <np_likeness>  (699) 
-0.07

>  <chemical_class>  (699) 
Naphthalenes

>  <chemical_sub_class>  (699) 
Naphthols and derivatives

>  <chemical_super_class>  (699) 
Benzenoids

>  <direct_parent_classification>  (699) 
Naphthols and derivatives

>  <np_classifier_pathway>  (699) 
Alkaloids

>  <np_classifier_superclass>  (699) 
nan

>  <np_classifier_class>  (699) 
nan

>  <np_classifier_is_glycoside>  (699) 
False

>  <organisms>  (699) 
Chaetomium globosum|Penicillium crustosum

>  <collections>  (699) 
Latin America dataset|NuBBEDB|WikiData Natural Products|ZINC NP

>  <dois>  (699) 
10.1002/ELPS.200900216|10.1002/elps.200900216

>  <synonyms>  (699) 
(+)-(R)-4-hydroxypropranolol|(R)-4-Hydroxypropranolol|1-Naphthalenol, 4-((2R)-2-hydroxy-3-((1-methylethyl)amino)propoxy)-|4-Hydroxypropranolol, (+)-|4-[(2R)-2-HYDROXY-3-[(1-METHYLETHYL)AMINO]PROPOXY]-1-NAPHTHALENOL|4-[(2R)-2-hydroxy-3-(propan-2-ylamino)propoxy]naphthalen-1-ol|4T9P49D6LC|76792-97-7|DB-294971|DTXSID701312788|Q27260467|UNII-4T9P49D6LC

>  <cas>  (699) 
76792-97-7

$$$$

     RDKit          2D

 18 20  0  0  0  0  0  0  0  0999 V2000
    1.9012    2.8717    0.0000 O   0  0  0  0  0  0  0  0  0  0  0  0
    1.2370    1.5267    0.0000 C   0  0  0  0  0  0  0  0  0  0  0  0
   -0.2599    1.4295    0.0000 C   0  0  0  0  0  0  0  0  0  0  0  0
   -0.9241    0.0846    0.0000 C   0  0  0  0  0  0  0  0  0  0  0  0
   -2.4209   -0.0126    0.0000 C   0  0  0  0  0  0  0  0  0  0  0  0
   -3.2535    1.2351    0.0000 C   0  0  0  0  0  0  0  0  0  0  0  0
   -4.7504    1.1379    0.0000 C   0  0  0  0  0  0  0  0  0  0  0  0
   -5.4146   -0.2070    0.0000 C   0  0  0  0  0  0  0  0  0  0  0  0
   -4.5820   -1.4547    0.0000 C   0  0  0  0  0  0  0  0  0  0  0  0
   -3.0852   -1.3575    0.0000 C   0  0  0  0  0  0  0  0  0  0  0  0
   -0.0915   -1.1631    0.0000 O   0  0  0  0  0  0  0  0  0  0  0  0
    1.4054   -1.0659    0.0000 C   0  0  0  0  0  0  0  0  0  0  0  0
    2.2380   -2.3136    0.0000 C   0  0  0  0  0  0  0  0  0  0  0  0
    3.7348   -2.2164    0.0000 C   0  0  0  0  0  0  0  0  0  0  0  0
    4.3991   -0.8714    0.0000 C   0  0  0  0  0  0  0  0  0  0  0  0
    3.5664    0.3763    0.0000 C   0  0  0  0  0  0  0  0  0  0  0  0
    4.2307    1.7212    0.0000 O   0  0  0  0  0  0  0  0  0  0  0  0
    2.0696    0.2790    0.0000 C   0  0  0  0  0  0  0  0  0  0  0  0
  1  2  2  0
  2  3  1  0
  3  4  2  0
  4  5  1  0
  5  6  2  0
  6  7  1  0
  7  8  2  0
  8  9  1  0
  9 10  2  0
  4 11  1  0
 11 12  1  0
 12 13  2  0
 13 14  1  0
 14 15  2  0
 15 16  1  0
 16 17  1  0
 16 18  2  0
 18  2  1  0
 10  5  1  0
 18 12  1  0
M  END
>  <identifier>  (700) 
CNP0179264.0

>  <canonical_smiles>  (700) 
O=C1C=C(C2=CC=CC=C2)OC2=CC=CC(O)=C12

>  <standard_inchi>  (700) 
InChI=1S/C15H10O3/c16-11-7-4-8-13-15(11)12(17)9-14(18-13)10-5-2-1-3-6-10/h1-9,16H

>  <standard_inchi_key>  (700) 
IYBLVRRCNVHZQJ-UHFFFAOYSA-N

>  <name>  (700) 
5-Hydroxyflavone

>  <iupac_name>  (700) 
5-hydroxy-2-phenyl-chromen-4-one

>  <annotation_level>  (700) 
5

>  <total_atom_count>  (700) 
28

>  <heavy_atom_count>  (700) 
18

>  <molecular_weight>  (700) 
238.24

>  <exact_molecular_weight>  (700) 
238.06299

>  <molecular_formula>  (700) 
C15H10O3

>  <alogp>  (700) 
3.17

>  <topological_polar_surface_area>  (700) 
50.44

>  <rotatable_bond_count>  (700) 
1

>  <hydrogen_bond_acceptors>  (700) 
3

>  <hydrogen_bond_donors>  (700) 
1

>  <hydrogen_bond_acceptors_lipinski>  (700) 
3

>  <hydrogen_bond_donors_lipinski>  (700) 
1

>  <lipinski_rule_of_five_violations>  (700) 
0

>  <aromatic_rings_count>  (700) 
3

>  <qed_drug_likeliness>  (700) 
0.71

>  <formal_charge>  (700) 
0

>  <fractioncsp3>  (700) 
0.00

>  <number_of_minimal_rings>  (700) 
3

>  <van_der_walls_volume>  (700) 
204.79

>  <contains_sugar>  (700) 
False

>  <contains_ring_sugars>  (700) 
False

>  <contains_linear_sugars>  (700) 
False

>  <murcko_framework>  (700) 
O1c2ccccc2CC=C1c3ccccc3

>  <np_likeness>  (700) 
0.90

>  <chemical_class>  (700) 
Flavonoids

>  <chemical_sub_class>  (700) 
Hydroxyflavonoids

>  <chemical_super_class>  (700) 
Phenylpropanoids and polyketides

>  <direct_parent_classification>  (700) 
5-hydroxyflavonoids

>  <np_classifier_pathway>  (700) 
Shikimates and Phenylpropanoids

>  <np_classifier_superclass>  (700) 
Flavonoids

>  <np_classifier_class>  (700) 
Flavones

>  <np_classifier_is_glycoside>  (700) 
False

>  <organisms>  (700) 
Anthocleista grandiflora|Chamaemelum nobile|Conchocarpus heterophyllus|Daedaleopsis confragosa|Epicoccum nigrum|Helleborus caucasicus|Hypoestes serpens|Lespedeza homoloba|Lolium perenne|Lophomyrtus bullata|Orgyia australis postica|Pericarpium pyri|Plutella xylostella|Primula|Primula denticulata|Primula farinosa|Schkuhria multiflora|Tilletia laevis

>  <collections>  (700) 
AnalytiCon Discovery NPs|BitterDB|CMAUP (cCollective molecular activities of useful plants)|GNPS (Global Natural Products Social Molecular Networking)|KNApSaCK|Latin America dataset|NPASS|NPEdia|NuBBEDB|Phyto4Health|PubChem NPs|Super Natural II|TCMID (Traditional Chinese Medicine Integrated Database)|UNPD (Universal Natural Products Database)|WikiData Natural Products|ZINC NP

>  <dois>  (700) 
10.1021/JF0347160|10.1039/B509076H|10.1590/S0100-40422008000400005

>  <synonyms>  (700) 
378AE9MHL3|491-78-1|4H-1-Benzopyran-4-one, 5-hydroxy-2-phenyl-|5-HYDROXY-2-PHENYL-4H-1-BENZOPYRAN-4-ONE|5-Hydroxy-2-phenyl-4-benzopyrone|5-Hydroxy-2-phenylchromone|5-Hydroxyflavone, >=97%|5-hydroxy-2-phenylchromen-4-one|5-hydroxy-flavone|ACon1_001958|AKOS015856472|BDBM50049385|BIDD:ER0489|BRD-K08048246-001-01-8|C13276|CCG-214308|CHEBI:172638|CHEMBL16807|CS-B1697|DTXSID90197690|EINECS 207-743-1|EN300-7408327|FLAVONE, 5-HYDROXY-|H1238|HMS3749C13|HY-22024|HYDROXYFLAVONE, 5-|IYBLVRRCNVHZQJ-UHFFFAOYSA-|InChI=1\/C15H10O3\/c16-11-7-4-8-13-15(11)12(17)9-14(18-13)10-5-2-1-3-6-10\/h1-9,16H|LMPK12110099|MEGxp0_001696|MFCD00016944|MLS002639146|NCGC00095329-01|NCGC00179967-01|NS00042462|NSC 26745|NSC-26745|Oprea1_688541|Primuletin|Primuliten|Q63408974|SCHEMBL158303|SMR001490542|SPECTRUM1501197|SR-05000002480|UNII-378AE9MHL3

>  <cas>  (700) 
491-78-1

$$$$

     RDKit          2D

 13 13  0  0  0  0  0  0  0  0999 V2000
   -3.6633    0.0000    0.0000 C   0  0  0  0  0  0  0  0  0  0  0  0
   -2.5295   -0.9820    0.0000 O   0  0  0  0  0  0  0  0  0  0  0  0
   -1.1121   -0.4910    0.0000 C   0  0  0  0  0  0  0  0  0  0  0  0
   -0.8286    0.9820    0.0000 C   0  0  0  0  0  0  0  0  0  0  0  0
   -1.9625    1.9640    0.0000 O   0  0  0  0  0  0  0  0  0  0  0  0
    0.5888    1.4730    0.0000 C   0  0  0  0  0  0  0  0  0  0  0  0
    0.8722    2.9459    0.0000 O   0  0  0  0  0  0  0  0  0  0  0  0
    1.7226    0.4910    0.0000 C   0  0  0  0  0  0  0  0  0  0  0  0
    3.1400    0.9820    0.0000 O   0  0  0  0  0  0  0  0  0  0  0  0
    1.4392   -0.9820    0.0000 C   0  0  0  0  0  0  0  0  0  0  0  0
    2.5731   -1.9640    0.0000 O   0  0  0  0  0  0  0  0  0  0  0  0
    0.0218   -1.4730    0.0000 C   0  0  0  0  0  0  0  0  0  0  0  0
   -0.2617   -2.9459    0.0000 O   0  0  0  0  0  0  0  0  0  0  0  0
  1  2  1  0
  3  2  1  1
  3  4  1  0
  4  5  1  6
  4  6  1  0
  6  7  1  1
  6  8  1  0
  8  9  1  6
  8 10  1  0
 10 11  1  6
 10 12  1  0
 12 13  1  1
 12  3  1  0
M  END
>  <identifier>  (701) 
CNP0201870.3

>  <canonical_smiles>  (701) 
CO[C@H]1[C@H](O)[C@@H](O)[C@H](O)[C@H](O)[C@H]1O

>  <standard_inchi>  (701) 
InChI=1S/C7H14O6/c1-13-7-5(11)3(9)2(8)4(10)6(7)12/h2-12H,1H3/t2-,3-,4-,5+,6+,7-/m0/s1

>  <standard_inchi_key>  (701) 
DSCFFEYYQKSRSV-FIZWYUIZSA-N

>  <name>  (701) 
L-Quebrachitol

>  <iupac_name>  (701) 
(1~{R},2~{S},4~{S},5~{R})-6-methoxycyclohexane-1,2,3,4,5-pentol

>  <annotation_level>  (701) 
5

>  <total_atom_count>  (701) 
27

>  <heavy_atom_count>  (701) 
13

>  <molecular_weight>  (701) 
194.18

>  <exact_molecular_weight>  (701) 
194.07904

>  <molecular_formula>  (701) 
C7H14O6

>  <alogp>  (701) 
-3.18

>  <topological_polar_surface_area>  (701) 
110.38

>  <rotatable_bond_count>  (701) 
1

>  <hydrogen_bond_acceptors>  (701) 
6

>  <hydrogen_bond_donors>  (701) 
5

>  <hydrogen_bond_acceptors_lipinski>  (701) 
6

>  <hydrogen_bond_donors_lipinski>  (701) 
5

>  <lipinski_rule_of_five_violations>  (701) 
0

>  <aromatic_rings_count>  (701) 
0

>  <qed_drug_likeliness>  (701) 
0.30

>  <formal_charge>  (701) 
0

>  <fractioncsp3>  (701) 
1.00

>  <number_of_minimal_rings>  (701) 
1

>  <van_der_walls_volume>  (701) 
168.51

>  <contains_sugar>  (701) 
False

>  <contains_ring_sugars>  (701) 
False

>  <contains_linear_sugars>  (701) 
False

>  <murcko_framework>  (701) 
C1CCCCC1

>  <np_likeness>  (701) 
1.56

>  <chemical_class>  (701) 
Organooxygen compounds

>  <chemical_sub_class>  (701) 
Alcohols and polyols

>  <chemical_super_class>  (701) 
Organic oxygen compounds

>  <direct_parent_classification>  (701) 
Cyclohexanols

>  <np_classifier_pathway>  (701) 
Carbohydrates

>  <np_classifier_superclass>  (701) 
Polyols

>  <np_classifier_class>  (701) 
Cyclitols

>  <np_classifier_is_glycoside>  (701) 
False

>  <organisms>  (701) 
Allophylus edulis|Artemisia gmelinii|Artemisia iwayomogi|Artemisia suksdorfii|Croton cortesianus|Excoecaria agallocha|Harpullia arborea|Harpullia pendula|Hippophae rhamnoides|Magonia pubescens|Mandevilla martiana|Melaleuca hypericifolia|Mitrephora vulpina|Tadehagi triquetrum|Tithonia diversifolia

>  <collections>  (701) 
Australian natural products|ChEBI NPs|ChemSpider NPs|ETM (Ethiopian Traditional Medicine) DB|FooDB|Latin America dataset|NPASS|NuBBEDB|Super Natural II|TCMDB-Taiwan (Traditional Chinese Medicine database)|WikiData Natural Products

>  <dois>  (701) 
10.1002/PTR.1358|10.1002/PTR.865|10.1007/BF00565192|10.1007/BF02974002|10.1016/0031-9422(92)80479-X|10.1016/J.CARRES.2008.07.014|10.1016/J.FITOTE.2008.04.010|10.1016/J.PHYMED.2007.09.002|10.1016/J.PHYTOCHEM.2006.06.013|10.1016/S0044-328X(84)80097-5|10.1016/j.carres.2008.07.014|10.1016/s0044-328x(84)80097-5|10.1021/JF0483117|10.1071/ch9771397|10.1515/ZNB-2006-0116|10.3390/MOLECULES15117840

>  <synonyms>  (701) 
L-Quebrachitol

>  <cas>  (701) 
642-38-6

$$$$

     RDKit          2D

 31 34  0  0  0  0  0  0  0  0999 V2000
    3.3857   -4.1070    0.0000 C   0  0  0  0  0  0  0  0  0  0  0  0
    4.4827   -3.0839    0.0000 O   0  0  0  0  0  0  0  0  0  0  0  0
    4.1452   -1.6224    0.0000 C   0  0  0  0  0  0  0  0  0  0  0  0
    2.7108   -1.1838    0.0000 C   0  0  0  0  0  0  0  0  0  0  0  0
    2.3733    0.2777    0.0000 C   0  0  0  0  0  0  0  0  0  0  0  0
    0.9389    0.7162    0.0000 C   0  0  0  0  0  0  0  0  0  0  0  0
   -0.2591   -0.1865    0.0000 O   0  0  0  0  0  0  0  0  0  0  0  0
   -1.4878    0.6739    0.0000 C   0  0  0  0  0  0  0  0  0  0  0  0
   -2.9061    0.1855    0.0000 C   0  0  0  0  0  0  0  0  0  0  0  0
   -3.1923   -1.2870    0.0000 C   0  0  0  0  0  0  0  0  0  0  0  0
   -4.6106   -1.7753    0.0000 C   0  0  0  0  0  0  0  0  0  0  0  0
   -4.8968   -3.2478    0.0000 O   0  0  0  0  0  0  0  0  0  0  0  0
   -3.7647   -4.2318    0.0000 C   0  0  0  0  0  0  0  0  0  0  0  0
   -5.7426   -0.7912    0.0000 C   0  0  0  0  0  0  0  0  0  0  0  0
   -7.2315   -0.9741    0.0000 O   0  0  0  0  0  0  0  0  0  0  0  0
   -7.8654    0.3854    0.0000 C   0  0  0  0  0  0  0  0  0  0  0  0
   -6.7684    1.4084    0.0000 O   0  0  0  0  0  0  0  0  0  0  0  0
   -5.4564    0.6812    0.0000 C   0  0  0  0  0  0  0  0  0  0  0  0
   -4.0382    1.1696    0.0000 C   0  0  0  0  0  0  0  0  0  0  0  0
   -1.0493    2.1083    0.0000 C   0  0  0  0  0  0  0  0  0  0  0  0
   -1.9520    3.3063    0.0000 C   0  0  0  0  0  0  0  0  0  0  0  0
    0.4505    2.1345    0.0000 C   0  0  0  0  0  0  0  0  0  0  0  0
    1.3108    3.3633    0.0000 C   0  0  0  0  0  0  0  0  0  0  0  0
    0.6769    4.7227    0.0000 O   0  0  0  0  0  0  0  0  0  0  0  0
    3.4703    1.3007    0.0000 C   0  0  0  0  0  0  0  0  0  0  0  0
    4.9048    0.8622    0.0000 C   0  0  0  0  0  0  0  0  0  0  0  0
    6.0018    1.8852    0.0000 O   0  0  0  0  0  0  0  0  0  0  0  0
    7.4363    1.4466    0.0000 C   0  0  0  0  0  0  0  0  0  0  0  0
    5.2422   -0.5994    0.0000 C   0  0  0  0  0  0  0  0  0  0  0  0
    6.6767   -1.0379    0.0000 O   0  0  0  0  0  0  0  0  0  0  0  0
    7.0142   -2.4995    0.0000 C   0  0  0  0  0  0  0  0  0  0  0  0
  1  2  1  0
  2  3  1  0
  3  4  2  0
  4  5  1  0
  6  5  1  6
  6  7  1  0
  7  8  1  0
  8  9  1  6
  9 10  2  0
 10 11  1  0
 11 12  1  0
 12 13  1  0
 11 14  2  0
 14 15  1  0
 15 16  1  0
 16 17  1  0
 17 18  1  0
 18 19  2  0
  8 20  1  0
 20 21  1  1
 20 22  1  0
 22 23  1  6
 23 24  1  0
  5 25  2  0
 25 26  1  0
 26 27  1  0
 27 28  1  0
 26 29  2  0
 29 30  1  0
 30 31  1  0
 29  3  1  0
 22  6  1  0
 19  9  1  0
 18 14  1  0
M  END
>  <identifier>  (702) 
CNP0313281.1

>  <canonical_smiles>  (702) 
COC1=CC([C@@H]2O[C@H](C3=CC(OC)=C4OCOC4=C3)[C@@H](C)[C@@H]2CO)=CC(OC)=C1OC

>  <standard_inchi>  (702) 
InChI=1S/C23H28O8/c1-12-15(10-24)21(14-7-16(25-2)22(28-5)17(8-14)26-3)31-20(12)13-6-18(27-4)23-19(9-13)29-11-30-23/h6-9,12,15,20-21,24H,10-11H2,1-5H3/t12-,15-,20-,21-/m0/s1

>  <standard_inchi_key>  (702) 
ICHSGFLKHDCFJL-WAQNEXLBSA-N

>  <name>  (702) 
nan

>  <iupac_name>  (702) 
[(2~{R},3~{R},4~{S},5~{S})-5-(7-methoxy-1,3-benzodioxol-5-yl)-4-methyl-2-(3,4,5-trimethoxyphenyl)tetrahydrofuran-3-yl]methanol

>  <annotation_level>  (702) 
5

>  <total_atom_count>  (702) 
59

>  <heavy_atom_count>  (702) 
31

>  <molecular_weight>  (702) 
432.47

>  <exact_molecular_weight>  (702) 
432.17842

>  <molecular_formula>  (702) 
C23H28O8

>  <alogp>  (702) 
3.51

>  <topological_polar_surface_area>  (702) 
84.84

>  <rotatable_bond_count>  (702) 
7

>  <hydrogen_bond_acceptors>  (702) 
8

>  <hydrogen_bond_donors>  (702) 
1

>  <hydrogen_bond_acceptors_lipinski>  (702) 
8

>  <hydrogen_bond_donors_lipinski>  (702) 
1

>  <lipinski_rule_of_five_violations>  (702) 
0

>  <aromatic_rings_count>  (702) 
2

>  <qed_drug_likeliness>  (702) 
0.71

>  <formal_charge>  (702) 
0

>  <fractioncsp3>  (702) 
0.48

>  <number_of_minimal_rings>  (702) 
4

>  <van_der_walls_volume>  (702) 
385.92

>  <contains_sugar>  (702) 
False

>  <contains_ring_sugars>  (702) 
False

>  <contains_linear_sugars>  (702) 
False

>  <murcko_framework>  (702) 
O1c2ccc(cc2OC1)C3OC(c4ccccc4)CC3

>  <np_likeness>  (702) 
1.33

>  <chemical_class>  (702) 
Furanoid lignans

>  <chemical_sub_class>  (702) 
Tetrahydrofuran lignans

>  <chemical_super_class>  (702) 
Lignans, neolignans and related compounds

>  <direct_parent_classification>  (702) 
7,7'-epoxylignans

>  <np_classifier_pathway>  (702) 
Shikimates and Phenylpropanoids

>  <np_classifier_superclass>  (702) 
Lignans

>  <np_classifier_class>  (702) 
Furanoid lignans

>  <np_classifier_is_glycoside>  (702) 
False

>  <organisms>  (702) 
Peperomia blanda

>  <collections>  (702) 
ChemSpider NPs|Latin America dataset|NuBBEDB|Super Natural II|WikiData Natural Products|ZINC NP

>  <dois>  (702) 
10.1016/J.PHYTOCHEM.2007.08.012|10.1016/j.phytochem.2007.08.012

>  <synonyms>  (702) 
Rel-(7R8S7'S8'S)-9-hydroxy-4'5'-methylenedioxy-3453'-tetramethoxy-77'-epoxylignan

>  <cas>  (702) 
nan

$$$$

     RDKit          2D

 21 22  0  0  0  0  0  0  0  0999 V2000
   -6.1460    0.4872    0.0000 C   0  0  0  0  0  0  0  0  0  0  0  0
   -4.6880    0.8396    0.0000 O   0  0  0  0  0  0  0  0  0  0  0  0
   -3.6537   -0.2468    0.0000 C   0  0  0  0  0  0  0  0  0  0  0  0
   -4.0775   -1.6857    0.0000 O   0  0  0  0  0  0  0  0  0  0  0  0
   -2.1957    0.1056    0.0000 C   0  0  0  0  0  0  0  0  0  0  0  0
   -1.1615   -0.9808    0.0000 C   0  0  0  0  0  0  0  0  0  0  0  0
    0.2965   -0.6284    0.0000 C   0  0  0  0  0  0  0  0  0  0  0  0
    1.3307   -1.7148    0.0000 C   0  0  0  0  0  0  0  0  0  0  0  0
    0.9070   -3.1537    0.0000 C   0  0  0  0  0  0  0  0  0  0  0  0
    1.9412   -4.2402    0.0000 C   0  0  0  0  0  0  0  0  0  0  0  0
    1.5174   -5.6791    0.0000 C   0  0  0  0  0  0  0  0  0  0  0  0
    3.3992   -3.8877    0.0000 C   0  0  0  0  0  0  0  0  0  0  0  0
    0.7203    0.8105    0.0000 C   0  0  0  0  0  0  0  0  0  0  0  0
    2.1783    1.1630    0.0000 O   0  0  0  0  0  0  0  0  0  0  0  0
    2.6021    2.6019    0.0000 C   0  0  0  0  0  0  0  0  0  0  0  0
    3.4924    3.8090    0.0000 C   0  0  0  0  0  0  0  0  0  0  0  0
    3.9455    1.9347    0.0000 C   0  0  0  0  0  0  0  0  0  0  0  0
    1.5678    3.6883    0.0000 C   0  0  0  0  0  0  0  0  0  0  0  0
    0.1098    3.3359    0.0000 C   0  0  0  0  0  0  0  0  0  0  0  0
   -0.3139    1.8970    0.0000 C   0  0  0  0  0  0  0  0  0  0  0  0
   -1.7720    1.5445    0.0000 C   0  0  0  0  0  0  0  0  0  0  0  0
  1  2  1  0
  2  3  1  0
  3  4  2  0
  3  5  1  0
  5  6  2  0
  6  7  1  0
  7  8  1  0
  8  9  1  0
  9 10  2  0
 10 11  1  0
 10 12  1  0
  7 13  2  0
 13 14  1  0
 14 15  1  0
 15 16  1  0
 15 17  1  0
 15 18  1  0
 18 19  1  0
 19 20  1  0
 20 21  2  0
 21  5  1  0
 20 13  1  0
M  END
>  <identifier>  (703) 
CNP0399417.0

>  <canonical_smiles>  (703) 
COC(=O)C1=CC(CC=C(C)C)=C2OC(C)(C)CCC2=C1

>  <standard_inchi>  (703) 
InChI=1S/C18H24O3/c1-12(2)6-7-13-10-15(17(19)20-5)11-14-8-9-18(3,4)21-16(13)14/h6,10-11H,7-9H2,1-5H3

>  <standard_inchi_key>  (703) 
LPROOVLZYNTLNJ-UHFFFAOYSA-N

>  <name>  (703) 
nan

>  <iupac_name>  (703) 
methyl 2,2-dimethyl-8-(3-methylbut-2-enyl)chromane-6-carboxylate

>  <annotation_level>  (703) 
5

>  <total_atom_count>  (703) 
45

>  <heavy_atom_count>  (703) 
21

>  <molecular_weight>  (703) 
288.39

>  <exact_molecular_weight>  (703) 
288.17254

>  <molecular_formula>  (703) 
C18H24O3

>  <alogp>  (703) 
4.09

>  <topological_polar_surface_area>  (703) 
35.53

>  <rotatable_bond_count>  (703) 
3

>  <hydrogen_bond_acceptors>  (703) 
3

>  <hydrogen_bond_donors>  (703) 
0

>  <hydrogen_bond_acceptors_lipinski>  (703) 
3

>  <hydrogen_bond_donors_lipinski>  (703) 
0

>  <lipinski_rule_of_five_violations>  (703) 
0

>  <aromatic_rings_count>  (703) 
1

>  <qed_drug_likeliness>  (703) 
0.62

>  <formal_charge>  (703) 
0

>  <fractioncsp3>  (703) 
0.50

>  <number_of_minimal_rings>  (703) 
2

>  <van_der_walls_volume>  (703) 
285.79

>  <contains_sugar>  (703) 
False

>  <contains_ring_sugars>  (703) 
False

>  <contains_linear_sugars>  (703) 
False

>  <murcko_framework>  (703) 
O1c2ccccc2CCC1

>  <np_likeness>  (703) 
1.60

>  <chemical_class>  (703) 
Benzopyrans

>  <chemical_sub_class>  (703) 
1-benzopyrans

>  <chemical_super_class>  (703) 
Organoheterocyclic compounds

>  <direct_parent_classification>  (703) 
2,2-dimethyl-1-benzopyrans

>  <np_classifier_pathway>  (703) 
Terpenoids

>  <np_classifier_superclass>  (703) 
Meroterpenoids

>  <np_classifier_class>  (703) 
Miscellaneous meroterpenoids

>  <np_classifier_is_glycoside>  (703) 
False

>  <organisms>  (703) 
Piper aduncum

>  <collections>  (703) 
ChemSpider NPs|Latin America dataset|NuBBEDB|Super Natural II|WikiData Natural Products|ZINC NP

>  <dois>  (703) 
10.1248/BPB.31.538|10.1248/bpb.31.538

>  <synonyms>  (703) 
Methyl-22-dimethyl-8-(3'-methylbut-2'-enyl)chroman-6-carboxylate

>  <cas>  (703) 
nan

$$$$

     RDKit          2D

 23 25  0  0  0  0  0  0  0  0999 V2000
    3.9365   -3.1176    0.0000 C   0  0  0  0  0  0  0  0  0  0  0  0
    3.9440   -1.6176    0.0000 C   0  0  0  0  0  0  0  0  0  0  0  0
    2.6488   -0.8611    0.0000 C   0  0  0  0  0  0  0  0  0  0  0  0
    2.6563    0.6389    0.0000 C   0  0  0  0  0  0  0  0  0  0  0  0
    1.3610    1.3954    0.0000 C   0  0  0  0  0  0  0  0  0  0  0  0
    0.0582    0.6519    0.0000 C   0  0  0  0  0  0  0  0  0  0  0  0
   -1.2370    1.4084    0.0000 C   0  0  0  0  0  0  0  0  0  0  0  0
   -2.5398    0.6649    0.0000 C   0  0  0  0  0  0  0  0  0  0  0  0
   -3.8351    1.4214    0.0000 C   0  0  0  0  0  0  0  0  0  0  0  0
   -5.1378    0.6779    0.0000 C   0  0  0  0  0  0  0  0  0  0  0  0
   -5.1454   -0.8221    0.0000 C   0  0  0  0  0  0  0  0  0  0  0  0
   -3.8501   -1.5786    0.0000 C   0  0  0  0  0  0  0  0  0  0  0  0
   -2.5473   -0.8351    0.0000 C   0  0  0  0  0  0  0  0  0  0  0  0
   -1.2521   -1.5916    0.0000 O   0  0  0  0  0  0  0  0  0  0  0  0
   -6.5743   -1.2784    0.0000 O   0  0  0  0  0  0  0  0  0  0  0  0
   -7.4498   -0.0605    0.0000 C   0  0  0  0  0  0  0  0  0  0  0  0
   -6.5621    1.1486    0.0000 O   0  0  0  0  0  0  0  0  0  0  0  0
    3.9591    1.3824    0.0000 C   0  0  0  0  0  0  0  0  0  0  0  0
    3.9666    2.8823    0.0000 O   0  0  0  0  0  0  0  0  0  0  0  0
    5.2543    0.6259    0.0000 C   0  0  0  0  0  0  0  0  0  0  0  0
    6.5571    1.3693    0.0000 C   0  0  0  0  0  0  0  0  0  0  0  0
    5.2468   -0.8741    0.0000 C   0  0  0  0  0  0  0  0  0  0  0  0
    6.5421   -1.6306    0.0000 O   0  0  0  0  0  0  0  0  0  0  0  0
  1  2  1  0
  2  3  2  0
  3  4  1  0
  4  5  1  0
  5  6  1  0
  6  7  1  0
  7  8  1  0
  8  9  2  0
  9 10  1  0
 10 11  2  0
 11 12  1  0
 12 13  2  0
 13 14  1  0
 11 15  1  0
 15 16  1  0
 16 17  1  0
  4 18  2  0
 18 19  1  0
 18 20  1  0
 20 21  1  0
 20 22  2  0
 22 23  1  0
 22  2  1  0
 13  8  1  0
 17 10  1  0
M  END
>  <identifier>  (704) 
CNP0138582.0

>  <canonical_smiles>  (704) 
CC1=CC(CCCC2=CC3=C(C=C2O)OCO3)=C(O)C(C)=C1O

>  <standard_inchi>  (704) 
InChI=1S/C18H20O5/c1-10-6-13(18(21)11(2)17(10)20)5-3-4-12-7-15-16(8-14(12)19)23-9-22-15/h6-8,19-21H,3-5,9H2,1-2H3

>  <standard_inchi_key>  (704) 
MSGWUGYJMGYNEW-UHFFFAOYSA-N

>  <name>  (704) 
nan

>  <iupac_name>  (704) 
4-[3-(6-hydroxy-1,3-benzodioxol-5-yl)propyl]-2,6-dimethyl-benzene-1,3-diol

>  <annotation_level>  (704) 
4

>  <total_atom_count>  (704) 
43

>  <heavy_atom_count>  (704) 
23

>  <molecular_weight>  (704) 
316.35

>  <exact_molecular_weight>  (704) 
316.13107

>  <molecular_formula>  (704) 
C18H20O5

>  <alogp>  (704) 
3.32

>  <topological_polar_surface_area>  (704) 
79.15

>  <rotatable_bond_count>  (704) 
4

>  <hydrogen_bond_acceptors>  (704) 
5

>  <hydrogen_bond_donors>  (704) 
3

>  <hydrogen_bond_acceptors_lipinski>  (704) 
5

>  <hydrogen_bond_donors_lipinski>  (704) 
3

>  <lipinski_rule_of_five_violations>  (704) 
0

>  <aromatic_rings_count>  (704) 
2

>  <qed_drug_likeliness>  (704) 
0.81

>  <formal_charge>  (704) 
0

>  <fractioncsp3>  (704) 
0.33

>  <number_of_minimal_rings>  (704) 
3

>  <van_der_walls_volume>  (704) 
nan

>  <contains_sugar>  (704) 
False

>  <contains_ring_sugars>  (704) 
False

>  <contains_linear_sugars>  (704) 
False

>  <murcko_framework>  (704) 
O1c2ccc(cc2OC1)CCCc3ccccc3

>  <np_likeness>  (704) 
0.86

>  <chemical_class>  (704) 
Benzodioxoles

>  <chemical_sub_class>  (704) 
Benzodioxoles

>  <chemical_super_class>  (704) 
Organoheterocyclic compounds

>  <direct_parent_classification>  (704) 
Benzodioxoles

>  <np_classifier_pathway>  (704) 
Polyketides

>  <np_classifier_superclass>  (704) 
Aromatic polyketides

>  <np_classifier_class>  (704) 
Catechols with side chains

>  <np_classifier_is_glycoside>  (704) 
False

>  <organisms>  (704) 
Iryanthera hostmannii|Iryanthera laevis|Iryanthera ulei

>  <collections>  (704) 
Latin America dataset|NuBBEDB|Super Natural II|UNPD (Universal Natural Products Database)|WikiData Natural Products|ZINC NP

>  <dois>  (704) 
10.1016/0031-9422(80)83082-2|10.1016/0031-9422(90)85388-V

>  <synonyms>  (704) 
4-(3-(5-hydroxybenzo[d][13]dioxol-6-yl)propyl)-26-dimethylbenzene-13-diol

>  <cas>  (704) 
nan

$$$$

     RDKit          2D

 22 24  0  0  0  0  0  0  0  0999 V2000
   -5.2171   -1.4160    0.0000 C   0  0  0  0  0  0  0  0  0  0  0  0
   -3.7212   -1.5273    0.0000 C   0  0  0  0  0  0  0  0  0  0  0  0
   -2.8769   -0.2874    0.0000 C   0  0  0  0  0  0  0  0  0  0  0  0
   -3.5285    1.0636    0.0000 C   0  0  0  0  0  0  0  0  0  0  0  0
   -5.0244    1.1749    0.0000 C   0  0  0  0  0  0  0  0  0  0  0  0
   -2.6842    2.3035    0.0000 C   0  0  0  0  0  0  0  0  0  0  0  0
   -1.1884    2.1922    0.0000 C   0  0  0  0  0  0  0  0  0  0  0  0
   -0.5368    0.8412    0.0000 C   0  0  0  0  0  0  0  0  0  0  0  0
   -1.3811   -0.3987    0.0000 C   0  0  0  0  0  0  0  0  0  0  0  0
   -0.7295   -1.7498    0.0000 C   0  0  0  0  0  0  0  0  0  0  0  0
   -1.5737   -2.9896    0.0000 O   0  0  0  0  0  0  0  0  0  0  0  0
    0.7664   -1.8610    0.0000 C   0  0  0  0  0  0  0  0  0  0  0  0
    1.6107   -0.6212    0.0000 C   0  0  0  0  0  0  0  0  0  0  0  0
    3.1066   -0.7324    0.0000 C   0  0  0  0  0  0  0  0  0  0  0  0
    4.4742   -1.3486    0.0000 C   0  0  0  0  0  0  0  0  0  0  0  0
    2.7372   -2.1862    0.0000 C   0  0  0  0  0  0  0  0  0  0  0  0
    3.9508    0.5074    0.0000 C   0  0  0  0  0  0  0  0  0  0  0  0
    5.4467    0.3962    0.0000 O   0  0  0  0  0  0  0  0  0  0  0  0
    3.2992    1.8585    0.0000 C   0  0  0  0  0  0  0  0  0  0  0  0
    1.8034    1.9698    0.0000 C   0  0  0  0  0  0  0  0  0  0  0  0
    0.9591    0.7299    0.0000 C   0  0  0  0  0  0  0  0  0  0  0  0
    0.3075    2.0810    0.0000 C   0  0  0  0  0  0  0  0  0  0  0  0
  1  2  1  0
  2  3  1  0
  3  4  2  0
  4  5  1  0
  4  6  1  0
  6  7  2  0
  7  8  1  0
  8  9  2  0
  9 10  1  0
 10 11  1  6
 10 12  1  0
 13 12  1  6
 13 14  1  0
 14 15  1  0
 14 16  1  0
 14 17  1  0
 17 18  2  0
 17 19  1  0
 19 20  1  0
 20 21  1  0
 21 22  1  6
  9  3  1  0
 21 13  1  0
 21  8  1  0
M  END
>  <identifier>  (705) 
CNP0080655.1

>  <canonical_smiles>  (705) 
CCC1=C(C)C=CC2=C1[C@@H](O)C[C@H]1C(C)(C)C(=O)CC[C@]21C

>  <standard_inchi>  (705) 
InChI=1S/C20H28O2/c1-6-13-12(2)7-8-14-18(13)15(21)11-16-19(3,4)17(22)9-10-20(14,16)5/h7-8,15-16,21H,6,9-11H2,1-5H3/t15-,16-,20+/m0/s1

>  <standard_inchi_key>  (705) 
SPRVDTUYOZAJAD-TWOQFEAHSA-N

>  <name>  (705) 
nan

>  <iupac_name>  (705) 
(4~{a}~{S},9~{S},10~{a}~{R})-8-ethyl-9-hydroxy-1,1,4~{a},7-tetramethyl-4,9,10,10~{a}-tetrahydro-3~{H}-phenanthren-2-one

>  <annotation_level>  (705) 
4

>  <total_atom_count>  (705) 
50

>  <heavy_atom_count>  (705) 
22

>  <molecular_weight>  (705) 
300.44

>  <exact_molecular_weight>  (705) 
300.20893

>  <molecular_formula>  (705) 
C20H28O2

>  <alogp>  (705) 
4.26

>  <topological_polar_surface_area>  (705) 
37.30

>  <rotatable_bond_count>  (705) 
1

>  <hydrogen_bond_acceptors>  (705) 
2

>  <hydrogen_bond_donors>  (705) 
1

>  <hydrogen_bond_acceptors_lipinski>  (705) 
2

>  <hydrogen_bond_donors_lipinski>  (705) 
1

>  <lipinski_rule_of_five_violations>  (705) 
0

>  <aromatic_rings_count>  (705) 
1

>  <qed_drug_likeliness>  (705) 
0.84

>  <formal_charge>  (705) 
0

>  <fractioncsp3>  (705) 
0.65

>  <number_of_minimal_rings>  (705) 
3

>  <van_der_walls_volume>  (705) 
nan

>  <contains_sugar>  (705) 
False

>  <contains_ring_sugars>  (705) 
False

>  <contains_linear_sugars>  (705) 
False

>  <murcko_framework>  (705) 
c1ccc2c(c1)CCC3CCCCC23

>  <np_likeness>  (705) 
2.30

>  <chemical_class>  (705) 
Prenol lipids

>  <chemical_sub_class>  (705) 
Diterpenoids

>  <chemical_super_class>  (705) 
Lipids and lipid-like molecules

>  <direct_parent_classification>  (705) 
Diterpenoids

>  <np_classifier_pathway>  (705) 
Terpenoids

>  <np_classifier_superclass>  (705) 
Diterpenoids

>  <np_classifier_class>  (705) 
Cleistanthane diterpenoids

>  <np_classifier_is_glycoside>  (705) 
False

>  <organisms>  (705) 
Vellozia piresiana

>  <collections>  (705) 
Latin America dataset|NuBBEDB|WikiData Natural Products

>  <dois>  (705) 
10.1016/S0031-9422(00)80444-6

>  <synonyms>  (705) 
7\u221a\u00e9\u00ac\u2264-Hydroxyl-81113-cleistanthatrien-3-one

>  <cas>  (705) 
nan

$$$$

     RDKit          2D

 32 35  0  0  0  0  0  0  0  0999 V2000
    2.3541   -3.0308    0.0000 C   0  0  0  0  0  0  0  0  0  0  0  0
    3.8075   -2.6600    0.0000 C   0  0  0  0  0  0  0  0  0  0  0  0
    4.8554   -3.7332    0.0000 C   0  0  0  0  0  0  0  0  0  0  0  0
    4.2130   -1.2158    0.0000 C   0  0  0  0  0  0  0  0  0  0  0  0
    5.6197   -0.6951    0.0000 C   0  0  0  0  0  0  0  0  0  0  0  0
    5.5592    0.8037    0.0000 C   0  0  0  0  0  0  0  0  0  0  0  0
    4.1150    1.2093    0.0000 C   0  0  0  0  0  0  0  0  0  0  0  0
    5.0729    2.3636    0.0000 C   0  0  0  0  0  0  0  0  0  0  0  0
    3.4501    2.5538    0.0000 C   0  0  0  0  0  0  0  0  0  0  0  0
    1.9532    2.6502    0.0000 C   0  0  0  0  0  0  0  0  0  0  0  0
    1.1212    1.4021    0.0000 C   0  0  0  0  0  0  0  0  0  0  0  0
    0.4563    2.7467    0.0000 C   0  0  0  0  0  0  0  0  0  0  0  0
    1.7862    0.0575    0.0000 C   0  0  0  0  0  0  0  0  0  0  0  0
    0.9542   -1.1906    0.0000 C   0  0  0  0  0  0  0  0  0  0  0  0
   -0.5427   -1.0942    0.0000 C   0  0  0  0  0  0  0  0  0  0  0  0
   -1.2076    0.2504    0.0000 C   0  0  0  0  0  0  0  0  0  0  0  0
   -2.7045    0.3468    0.0000 C   0  0  0  0  0  0  0  0  0  0  0  0
   -4.1441   -0.0745    0.0000 C   0  0  0  0  0  0  0  0  0  0  0  0
   -2.5395   -1.1441    0.0000 C   0  0  0  0  0  0  0  0  0  0  0  0
   -3.7482   -2.0324    0.0000 C   0  0  0  0  0  0  0  0  0  0  0  0
   -3.5832   -3.5233    0.0000 C   0  0  0  0  0  0  0  0  0  0  0  0
   -2.2096   -4.1259    0.0000 O   0  0  0  0  0  0  0  0  0  0  0  0
   -4.7919   -4.4116    0.0000 O   0  0  0  0  0  0  0  0  0  0  0  0
   -3.3695    1.6914    0.0000 C   0  0  0  0  0  0  0  0  0  0  0  0
   -4.8663    1.7878    0.0000 C   0  0  0  0  0  0  0  0  0  0  0  0
   -5.6983    0.5397    0.0000 C   0  0  0  0  0  0  0  0  0  0  0  0
   -5.5313    3.1324    0.0000 C   0  0  0  0  0  0  0  0  0  0  0  0
   -2.5375    2.9395    0.0000 C   0  0  0  0  0  0  0  0  0  0  0  0
   -1.0406    2.8431    0.0000 C   0  0  0  0  0  0  0  0  0  0  0  0
   -0.3757    1.4985    0.0000 C   0  0  0  0  0  0  0  0  0  0  0  0
    0.2893    0.1540    0.0000 C   0  0  0  0  0  0  0  0  0  0  0  0
    3.2831   -0.0389    0.0000 C   0  0  0  0  0  0  0  0  0  0  0  0
  1  2  2  0
  2  3  1  0
  4  2  1  1
  4  5  1  0
  5  6  1  0
  6  7  1  0
  7  8  1  6
  7  9  1  0
  9 10  1  0
 10 11  1  0
 11 12  1  1
 11 13  1  0
 13 14  1  1
 14 15  1  0
 16 15  1  6
 16 17  1  0
 17 18  1  6
 17 19  1  0
 19 20  1  0
 20 21  1  0
 21 22  2  0
 21 23  1  0
 17 24  1  0
 24 25  1  6
 25 26  2  0
 25 27  1  0
 24 28  1  0
 28 29  1  0
 29 30  1  0
 30 31  1  6
 13 32  1  0
 32  4  1  6
 32  7  1  0
 30 11  1  0
 30 16  1  0
M  END
>  <identifier>  (706) 
CNP0291888.1

>  <canonical_smiles>  (706) 
C=C(C)[C@@H]1CC[C@]2(C)CC[C@]3(C)[C@H](CC[C@@H]4[C@@](C)(CCC(=O)O)[C@H](C(=C)C)CC[C@]43C)[C@@H]12

>  <standard_inchi>  (706) 
InChI=1S/C30H48O2/c1-19(2)21-11-14-27(5)17-18-29(7)23(26(21)27)9-10-24-28(6,15-13-25(31)32)22(20(3)4)12-16-30(24,29)8/h21-24,26H,1,3,9-18H2,2,4-8H3,(H,31,32)/t21-,22-,23+,24+,26+,27+,28-,29+,30+/m0/s1

>  <standard_inchi_key>  (706) 
QQMJMPCYCIGUQX-JGFKHHSSSA-N

>  <name>  (706) 
nan

>  <iupac_name>  (706) 
3-[(3~{S},4~{S},5~{R},8~{R},9~{R},10~{R},13~{R},14~{R},15~{R})-3,15-diisopropenyl-4,9,10,13-tetramethyl-2,3,5,6,7,8,11,12,14,15,16,17-dodecahydro-1~{H}-cyclopenta[a]phenanthren-4-yl]propanoic acid

>  <annotation_level>  (706) 
5

>  <total_atom_count>  (706) 
80

>  <heavy_atom_count>  (706) 
32

>  <molecular_weight>  (706) 
440.71

>  <exact_molecular_weight>  (706) 
440.36543

>  <molecular_formula>  (706) 
C30H48O2

>  <alogp>  (706) 
8.28

>  <topological_polar_surface_area>  (706) 
37.30

>  <rotatable_bond_count>  (706) 
5

>  <hydrogen_bond_acceptors>  (706) 
1

>  <hydrogen_bond_donors>  (706) 
1

>  <hydrogen_bond_acceptors_lipinski>  (706) 
1

>  <hydrogen_bond_donors_lipinski>  (706) 
1

>  <lipinski_rule_of_five_violations>  (706) 
1

>  <aromatic_rings_count>  (706) 
0

>  <qed_drug_likeliness>  (706) 
0.44

>  <formal_charge>  (706) 
0

>  <fractioncsp3>  (706) 
0.83

>  <number_of_minimal_rings>  (706) 
4

>  <van_der_walls_volume>  (706) 
454.15

>  <contains_sugar>  (706) 
False

>  <contains_ring_sugars>  (706) 
False

>  <contains_linear_sugars>  (706) 
False

>  <murcko_framework>  (706) 
C1CCC2C(C1)CCC3C4CCCC4CCC23

>  <np_likeness>  (706) 
2.78

>  <chemical_class>  (706) 
Prenol lipids

>  <chemical_sub_class>  (706) 
Triterpenoids

>  <chemical_super_class>  (706) 
Lipids and lipid-like molecules

>  <direct_parent_classification>  (706) 
Lupane triterpenoids

>  <np_classifier_pathway>  (706) 
Terpenoids

>  <np_classifier_superclass>  (706) 
Triterpenoids

>  <np_classifier_class>  (706) 
Lupane triterpenoids

>  <np_classifier_is_glycoside>  (706) 
False

>  <organisms>  (706) 
Boswellia neglecta|Boswellia species|Euphorbia broteri|Euphorbia oxyphylla|Platypodium elegans|Rudgea jasminoides

>  <collections>  (706) 
ANPDB|ChemSpider NPs|Latin America dataset|NANPDB (Natural Products from Northern African Sources)|NuBBEDB|Super Natural II|WikiData Natural Products

>  <dois>  (706) 
10.1016/S0031-9422(00)82286-4|10.1016/S0367-326X(00)00279-3|10.1590/S0103-50531999000300013|10.4314/BCSE.V16I1.20952|10.4314/bcse.v16i1.20952

>  <synonyms>  (706) 
canaric acid

>  <cas>  (706) 
nan

$$$$

     RDKit          2D

 20 21  0  0  0  0  0  0  0  0999 V2000
   -2.9530   -3.1021    0.0000 C   0  0  0  0  0  0  0  0  0  0  0  0
   -3.4633   -1.6916    0.0000 C   0  0  0  0  0  0  0  0  0  0  0  0
   -4.9400   -1.4282    0.0000 C   0  0  0  0  0  0  0  0  0  0  0  0
   -2.4969   -0.5444    0.0000 C   0  0  0  0  0  0  0  0  0  0  0  0
   -3.0071    0.8662    0.0000 O   0  0  0  0  0  0  0  0  0  0  0  0
   -1.0202   -0.8077    0.0000 C   0  0  0  0  0  0  0  0  0  0  0  0
   -0.5099   -2.2183    0.0000 O   0  0  0  0  0  0  0  0  0  0  0  0
   -0.0537    0.3395    0.0000 C   0  0  0  0  0  0  0  0  0  0  0  0
   -0.5640    1.7500    0.0000 C   0  0  0  0  0  0  0  0  0  0  0  0
   -2.0407    2.0133    0.0000 O   0  0  0  0  0  0  0  0  0  0  0  0
   -2.5510    3.4239    0.0000 C   0  0  0  0  0  0  0  0  0  0  0  0
    0.4024    2.8972    0.0000 C   0  0  0  0  0  0  0  0  0  0  0  0
    1.8791    2.6338    0.0000 C   0  0  0  0  0  0  0  0  0  0  0  0
    2.3894    1.2233    0.0000 C   0  0  0  0  0  0  0  0  0  0  0  0
    1.4230    0.0761    0.0000 C   0  0  0  0  0  0  0  0  0  0  0  0
    1.9333   -1.3344    0.0000 O   0  0  0  0  0  0  0  0  0  0  0  0
    3.4100   -1.5978    0.0000 C   0  0  0  0  0  0  0  0  0  0  0  0
    3.9202   -3.0083    0.0000 O   0  0  0  0  0  0  0  0  0  0  0  0
    4.3764   -0.4506    0.0000 C   0  0  0  0  0  0  0  0  0  0  0  0
    3.8661    0.9600    0.0000 C   0  0  0  0  0  0  0  0  0  0  0  0
  1  2  2  0
  2  3  1  0
  2  4  1  0
  4  5  1  6
  4  6  1  0
  6  7  1  6
  6  8  1  0
  8  9  2  0
  9 10  1  0
 10 11  1  0
  9 12  1  0
 12 13  2  0
 13 14  1  0
 14 15  2  0
 15 16  1  0
 16 17  1  0
 17 18  2  0
 17 19  1  0
 19 20  2  0
 15  8  1  0
 20 14  1  0
M  END
>  <identifier>  (707) 
CNP0190444.3

>  <canonical_smiles>  (707) 
C=C(C)[C@H](O)[C@@H](O)C1=C(OC)C=CC2=C1OC(=O)C=C2

>  <standard_inchi>  (707) 
InChI=1S/C15H16O5/c1-8(2)13(17)14(18)12-10(19-3)6-4-9-5-7-11(16)20-15(9)12/h4-7,13-14,17-18H,1H2,2-3H3/t13-,14-/m0/s1

>  <standard_inchi_key>  (707) 
DKEANOQWICTXTP-KBPBESRZSA-N

>  <name>  (707) 
Minumicrolin

>  <iupac_name>  (707) 
8-[(1~{S},2~{S})-1,2-dihydroxy-3-methyl-but-3-enyl]-7-methoxy-chromen-2-one

>  <annotation_level>  (707) 
5

>  <total_atom_count>  (707) 
36

>  <heavy_atom_count>  (707) 
20

>  <molecular_weight>  (707) 
276.29

>  <exact_molecular_weight>  (707) 
276.09977

>  <molecular_formula>  (707) 
C15H16O5

>  <alogp>  (707) 
1.77

>  <topological_polar_surface_area>  (707) 
79.90

>  <rotatable_bond_count>  (707) 
4

>  <hydrogen_bond_acceptors>  (707) 
5

>  <hydrogen_bond_donors>  (707) 
2

>  <hydrogen_bond_acceptors_lipinski>  (707) 
5

>  <hydrogen_bond_donors_lipinski>  (707) 
2

>  <lipinski_rule_of_five_violations>  (707) 
0

>  <aromatic_rings_count>  (707) 
2

>  <qed_drug_likeliness>  (707) 
0.66

>  <formal_charge>  (707) 
0

>  <fractioncsp3>  (707) 
0.27

>  <number_of_minimal_rings>  (707) 
2

>  <van_der_walls_volume>  (707) 
nan

>  <contains_sugar>  (707) 
False

>  <contains_ring_sugars>  (707) 
False

>  <contains_linear_sugars>  (707) 
False

>  <murcko_framework>  (707) 
O1c2ccccc2C=CC1

>  <np_likeness>  (707) 
1.66

>  <chemical_class>  (707) 
Coumarins and derivatives

>  <chemical_sub_class>  (707) 
Coumarins and derivatives

>  <chemical_super_class>  (707) 
Phenylpropanoids and polyketides

>  <direct_parent_classification>  (707) 
Coumarins and derivatives

>  <np_classifier_pathway>  (707) 
Shikimates and Phenylpropanoids

>  <np_classifier_superclass>  (707) 
Coumarins

>  <np_classifier_class>  (707) 
Simple coumarins

>  <np_classifier_is_glycoside>  (707) 
False

>  <organisms>  (707) 
Leionema coxii|Leionema ralstonii|Micromelum falcatum|Micromelum minutum|Murraya exotica|Murraya gleniei|Murraya paniculata|Murraya paniculata var. exotica|Murraya paniculata var. omphalocarpa|Phebalium tuberculosum|Polygala paniculata|Rauia resinosa

>  <collections>  (707) 
Australian natural products|Latin America dataset|NPASS|NuBBEDB|Super Natural II|TCMDB-Taiwan (Traditional Chinese Medicine database)|WikiData Natural Products|ZINC NP

>  <dois>  (707) 
10.1016/0031-9422(92)83450-D|10.1016/0031-9422(96)00255-5|10.1016/0305-1978(86)90008-6|10.1016/0305-1978(88)90049-X|10.1016/0305-1978(88)90076-2|10.1016/S0031-9422(00)80543-9|10.1016/S0031-9422(00)81445-4|10.1016/S0031-9422(00)97490-9|10.1016/S0031-9422(00)98115-9|10.1016/s0031-9422(00)80543-9|10.1039/P19900002047|10.1055/S-2003-41112|10.1055/S-2007-969460|10.1080/10286020801967292|10.1248/CPB.35.4277|10.1248/CPB.37.119|10.1248/CPB.37.358|10.1248/CPB.48.334|10.1515/ZNC-2003-7-808|10.1590/S0100-40422010001000024

>  <synonyms>  (707) 
(+)-Murpanidin|13R570833L|2H-1-Benzopyran-2-one, 8-((1S,2S)-1,2-dihydroxy-3-methyl-3-butenyl)-7-methoxy-|2H-1-Benzopyran-2-one, 8-(1,2-dihydroxy-3-methyl-3-butenyl)-7-methoxy-, (S-(R*,R*))-|2H-1-Benzopyran-2-one, 8-[(1R,2S)-1,2-dihydroxy-3-methyl-3-buten-1-yl]-7-methoxy-, rel-(-)-|8-((1S,2S)-1,2-Dihydroxy-3-methyl-3-buten-1-yl)-7-methoxy-2H-1-benzopyran-2-one|8-[(1S,2S)-1,2-dihydroxy-3-methylbut-3-enyl]-7-methoxychromen-2-one|88546-96-7|AKOS040762060|CS-0023723|DKEANOQWICTXTP-KBPBESRZSA-N|HY-N3254|Murpanidin|Murrangatin|UNII-13R570833L|[7-Methoxy-8-(1,2-dihydroxy-3-methyl-3-butenyl)]coumarin|minumicrolin

>  <cas>  (707) 
88546-96-7

$$$$

     RDKit          2D

 33 37  0  0  0  0  0  0  0  0999 V2000
   -2.9458   -3.1051    0.0000 C   0  0  0  0  0  0  0  0  0  0  0  0
   -3.6666   -1.7896    0.0000 C   0  0  0  0  0  0  0  0  0  0  0  0
   -5.1662   -1.7561    0.0000 C   0  0  0  0  0  0  0  0  0  0  0  0
   -5.9451   -3.0381    0.0000 C   0  0  0  0  0  0  0  0  0  0  0  0
   -5.8870   -0.4407    0.0000 C   0  0  0  0  0  0  0  0  0  0  0  0
   -5.1082    0.8413    0.0000 C   0  0  0  0  0  0  0  0  0  0  0  0
   -3.6086    0.8078    0.0000 C   0  0  0  0  0  0  0  0  0  0  0  0
   -4.3294    2.1232    0.0000 C   0  0  0  0  0  0  0  0  0  0  0  0
   -5.8290    2.1567    0.0000 O   0  0  0  0  0  0  0  0  0  0  0  0
   -3.5506    3.4052    0.0000 O   0  0  0  0  0  0  0  0  0  0  0  0
   -2.8298    2.0897    0.0000 C   0  0  0  0  0  0  0  0  0  0  0  0
   -1.3301    2.0562    0.0000 C   0  0  0  0  0  0  0  0  0  0  0  0
   -0.6093    0.7408    0.0000 C   0  0  0  0  0  0  0  0  0  0  0  0
    0.1695    2.0227    0.0000 C   0  0  0  0  0  0  0  0  0  0  0  0
    0.8903    0.7073    0.0000 C   0  0  0  0  0  0  0  0  0  0  0  0
    1.6691    1.9892    0.0000 C   0  0  0  0  0  0  0  0  0  0  0  0
    3.1687    1.9557    0.0000 C   0  0  0  0  0  0  0  0  0  0  0  0
    3.8895    0.6403    0.0000 C   0  0  0  0  0  0  0  0  0  0  0  0
    5.3892    0.6068    0.0000 C   0  0  0  0  0  0  0  0  0  0  0  0
    6.8098    1.0882    0.0000 C   0  0  0  0  0  0  0  0  0  0  0  0
    5.1618    2.0894    0.0000 C   0  0  0  0  0  0  0  0  0  0  0  0
    6.1100   -0.7087    0.0000 C   0  0  0  0  0  0  0  0  0  0  0  0
    7.6096   -0.7422    0.0000 O   0  0  0  0  0  0  0  0  0  0  0  0
    5.3311   -1.9907    0.0000 C   0  0  0  0  0  0  0  0  0  0  0  0
    3.8315   -1.9572    0.0000 C   0  0  0  0  0  0  0  0  0  0  0  0
    3.1107   -0.6417    0.0000 C   0  0  0  0  0  0  0  0  0  0  0  0
    2.3319   -1.9237    0.0000 C   0  0  0  0  0  0  0  0  0  0  0  0
    1.6111   -0.6082    0.0000 C   0  0  0  0  0  0  0  0  0  0  0  0
    0.8323   -1.8902    0.0000 C   0  0  0  0  0  0  0  0  0  0  0  0
   -0.6674   -1.8566    0.0000 C   0  0  0  0  0  0  0  0  0  0  0  0
   -1.3882   -0.5412    0.0000 C   0  0  0  0  0  0  0  0  0  0  0  0
   -2.1670   -1.8231    0.0000 C   0  0  0  0  0  0  0  0  0  0  0  0
   -2.8878   -0.5077    0.0000 C   0  0  0  0  0  0  0  0  0  0  0  0
  2  1  1  1
  2  3  1  0
  3  4  1  6
  3  5  1  0
  5  6  1  0
  6  7  1  0
  7  8  1  1
  8  9  2  0
  8 10  1  0
  7 11  1  0
 11 12  1  0
 12 13  1  0
 13 14  1  1
 13 15  1  0
 15 16  2  0
 16 17  1  0
 18 17  1  1
 18 19  1  0
 19 20  1  0
 19 21  1  0
 19 22  1  0
 22 23  2  0
 22 24  1  0
 24 25  1  0
 25 26  1  0
 26 27  1  1
 26 28  1  0
 28 29  1  1
 29 30  1  0
 30 31  1  0
 31 32  1  6
 31 33  1  0
 33  2  1  0
 33  7  1  6
 31 13  1  0
 28 15  1  0
 26 18  1  0
M  END
>  <identifier>  (708) 
CNP0217403.1

>  <canonical_smiles>  (708) 
C[C@H]1[C@H](C)CC[C@]2(C(=O)O)CC[C@]3(C)C4=CC[C@H]5C(C)(C)C(=O)CC[C@]5(C)[C@H]4CC[C@@]3(C)[C@H]12

>  <standard_inchi>  (708) 
InChI=1S/C30H46O3/c1-18-10-15-30(25(32)33)17-16-28(6)21-8-9-22-26(3,4)23(31)12-13-27(22,5)20(21)11-14-29(28,7)24(30)19(18)2/h8,18-20,22,24H,9-17H2,1-7H3,(H,32,33)/t18-,19+,20+,22+,24+,27-,28-,29+,30+/m1/s1

>  <standard_inchi_key>  (708) 
SMBREQQMZYSMJF-FXJHRXGMSA-N

>  <name>  (708) 
nan

>  <iupac_name>  (708) 
(1~{S},2~{R},4~{a}~{S},6~{a}~{R},6~{a}~{S},8~{a}~{R},12~{a}~{R},14~{a}~{S},14~{b}~{S})-1,2,6~{a},9,9,12~{a},14~{a}-heptamethyl-10-oxo-1,2,3,4,5,6,6~{a},8,8~{a},11,12,13,14,14~{b}-tetradecahydropicene-4~{a}-carboxylic acid

>  <annotation_level>  (708) 
4

>  <total_atom_count>  (708) 
79

>  <heavy_atom_count>  (708) 
33

>  <molecular_weight>  (708) 
454.7

>  <exact_molecular_weight>  (708) 
454.3447

>  <molecular_formula>  (708) 
C30H46O3

>  <alogp>  (708) 
7.30

>  <topological_polar_surface_area>  (708) 
54.37

>  <rotatable_bond_count>  (708) 
1

>  <hydrogen_bond_acceptors>  (708) 
2

>  <hydrogen_bond_donors>  (708) 
1

>  <hydrogen_bond_acceptors_lipinski>  (708) 
2

>  <hydrogen_bond_donors_lipinski>  (708) 
1

>  <lipinski_rule_of_five_violations>  (708) 
1

>  <aromatic_rings_count>  (708) 
0

>  <qed_drug_likeliness>  (708) 
0.42

>  <formal_charge>  (708) 
0

>  <fractioncsp3>  (708) 
0.87

>  <number_of_minimal_rings>  (708) 
5

>  <van_der_walls_volume>  (708) 
nan

>  <contains_sugar>  (708) 
False

>  <contains_ring_sugars>  (708) 
False

>  <contains_linear_sugars>  (708) 
False

>  <murcko_framework>  (708) 
C1=C2C(CCC3C2CCC4CCCCC43)C5CCCCC5C1

>  <np_likeness>  (708) 
3.34

>  <chemical_class>  (708) 
Prenol lipids

>  <chemical_sub_class>  (708) 
Triterpenoids

>  <chemical_super_class>  (708) 
Lipids and lipid-like molecules

>  <direct_parent_classification>  (708) 
Taraxastane, ursane, and bauerane triterpenoids

>  <np_classifier_pathway>  (708) 
Terpenoids

>  <np_classifier_superclass>  (708) 
Triterpenoids

>  <np_classifier_class>  (708) 
Bauerane triterpenoids

>  <np_classifier_is_glycoside>  (708) 
False

>  <organisms>  (708) 
Davidsonia pruriens|Schinus terebinthifolius

>  <collections>  (708) 
Latin America dataset|NuBBEDB|Super Natural II|WikiData Natural Products

>  <dois>  (708) 
10.1016/S0031-9422(00)81236-4|10.1016/S0031-9422(00)91125-7

>  <synonyms>  (708) 
Terebenthifolic acid

>  <cas>  (708) 
nan

$$$$

     RDKit          2D

 31 35  0  0  0  0  0  0  0  0999 V2000
    4.3358   -4.5745    0.0000 C   0  0  0  0  0  0  0  0  0  0  0  0
    4.9346   -3.1992    0.0000 O   0  0  0  0  0  0  0  0  0  0  0  0
    4.0429   -1.9930    0.0000 C   0  0  0  0  0  0  0  0  0  0  0  0
    2.5525   -2.1622    0.0000 C   0  0  0  0  0  0  0  0  0  0  0  0
    1.6608   -0.9560    0.0000 C   0  0  0  0  0  0  0  0  0  0  0  0
    0.1703   -1.1251    0.0000 C   0  0  0  0  0  0  0  0  0  0  0  0
   -0.5689   -2.4303    0.0000 O   0  0  0  0  0  0  0  0  0  0  0  0
   -2.0386   -2.1306    0.0000 C   0  0  0  0  0  0  0  0  0  0  0  0
   -2.2078   -0.6402    0.0000 C   0  0  0  0  0  0  0  0  0  0  0  0
   -0.8425   -0.0187    0.0000 C   0  0  0  0  0  0  0  0  0  0  0  0
   -1.0117    1.4717    0.0000 C   0  0  0  0  0  0  0  0  0  0  0  0
   -2.4814    1.7714    0.0000 O   0  0  0  0  0  0  0  0  0  0  0  0
   -3.2207    0.4662    0.0000 C   0  0  0  0  0  0  0  0  0  0  0  0
   -4.7111    0.2971    0.0000 C   0  0  0  0  0  0  0  0  0  0  0  0
   -5.3098   -1.0782    0.0000 C   0  0  0  0  0  0  0  0  0  0  0  0
   -6.8003   -1.2474    0.0000 C   0  0  0  0  0  0  0  0  0  0  0  0
   -7.6920   -0.0412    0.0000 C   0  0  0  0  0  0  0  0  0  0  0  0
   -9.1850    0.1033    0.0000 O   0  0  0  0  0  0  0  0  0  0  0  0
   -9.5090    1.5679    0.0000 C   0  0  0  0  0  0  0  0  0  0  0  0
   -8.2162    2.3286    0.0000 O   0  0  0  0  0  0  0  0  0  0  0  0
   -7.0932    1.3341    0.0000 C   0  0  0  0  0  0  0  0  0  0  0  0
   -5.6028    1.5033    0.0000 C   0  0  0  0  0  0  0  0  0  0  0  0
    2.2595    0.4193    0.0000 C   0  0  0  0  0  0  0  0  0  0  0  0
    3.7500    0.5885    0.0000 C   0  0  0  0  0  0  0  0  0  0  0  0
    4.6416   -0.6177    0.0000 C   0  0  0  0  0  0  0  0  0  0  0  0
    6.1321   -0.4486    0.0000 O   0  0  0  0  0  0  0  0  0  0  0  0
    6.7308    0.9267    0.0000 C   0  0  0  0  0  0  0  0  0  0  0  0
    8.2213    1.0959    0.0000 C   0  0  0  0  0  0  0  0  0  0  0  0
    8.8200    2.4712    0.0000 C   0  0  0  0  0  0  0  0  0  0  0  0
   10.3104    2.6403    0.0000 C   0  0  0  0  0  0  0  0  0  0  0  0
    7.9283    3.6774    0.0000 C   0  0  0  0  0  0  0  0  0  0  0  0
  1  2  1  0
  2  3  1  0
  3  4  2  0
  4  5  1  0
  6  5  1  6
  6  7  1  0
  7  8  1  0
  9  8  1  1
  9 10  1  0
 10 11  1  1
 11 12  1  0
 12 13  1  0
 13 14  1  1
 14 15  2  0
 15 16  1  0
 16 17  2  0
 17 18  1  0
 18 19  1  0
 19 20  1  0
 20 21  1  0
 21 22  2  0
  5 23  2  0
 23 24  1  0
 24 25  2  0
 25 26  1  0
 26 27  1  0
 27 28  1  0
 28 29  2  0
 29 30  1  0
 29 31  1  0
 25  3  1  0
 10  6  1  0
 22 14  1  0
 13  9  1  0
 21 17  1  0
M  END
>  <identifier>  (709) 
CNP0170756.4

>  <canonical_smiles>  (709) 
COC1=CC([C@@H]2OC[C@@H]3[C@H]2CO[C@@H]3C2=CC=C3OCOC3=C2)=CC=C1OCC=C(C)C

>  <standard_inchi>  (709) 
InChI=1S/C25H28O6/c1-15(2)8-9-27-20-6-4-16(10-22(20)26-3)24-18-12-29-25(19(18)13-28-24)17-5-7-21-23(11-17)31-14-30-21/h4-8,10-11,18-19,24-25H,9,12-14H2,1-3H3/t18-,19-,24+,25-/m1/s1

>  <standard_inchi_key>  (709) 
WXYFFRZGPDZASV-ZSVMJGIMSA-N

>  <name>  (709) 
nan

>  <iupac_name>  (709) 
5-[(3~{S},3~{a}~{S},6~{R},6~{a}~{S})-6-[3-methoxy-4-(3-methylbut-2-enoxy)phenyl]-1,3,3~{a},4,6,6~{a}-hexahydrofuro[3,4-c]furan-3-yl]-1,3-benzodioxole

>  <annotation_level>  (709) 
4

>  <total_atom_count>  (709) 
59

>  <heavy_atom_count>  (709) 
31

>  <molecular_weight>  (709) 
424.49

>  <exact_molecular_weight>  (709) 
424.18859

>  <molecular_formula>  (709) 
C25H28O6

>  <alogp>  (709) 
4.84

>  <topological_polar_surface_area>  (709) 
55.38

>  <rotatable_bond_count>  (709) 
6

>  <hydrogen_bond_acceptors>  (709) 
6

>  <hydrogen_bond_donors>  (709) 
0

>  <hydrogen_bond_acceptors_lipinski>  (709) 
6

>  <hydrogen_bond_donors_lipinski>  (709) 
0

>  <lipinski_rule_of_five_violations>  (709) 
0

>  <aromatic_rings_count>  (709) 
2

>  <qed_drug_likeliness>  (709) 
0.62

>  <formal_charge>  (709) 
0

>  <fractioncsp3>  (709) 
0.44

>  <number_of_minimal_rings>  (709) 
5

>  <van_der_walls_volume>  (709) 
nan

>  <contains_sugar>  (709) 
False

>  <contains_ring_sugars>  (709) 
False

>  <contains_linear_sugars>  (709) 
False

>  <murcko_framework>  (709) 
O1c2ccc(cc2OC1)C3OCC4C(OCC34)c5ccccc5

>  <np_likeness>  (709) 
0.99

>  <chemical_class>  (709) 
Furanoid lignans

>  <chemical_sub_class>  (709) 
Furan lignans

>  <chemical_super_class>  (709) 
Lignans, neolignans and related compounds

>  <direct_parent_classification>  (709) 
Furan lignans

>  <np_classifier_pathway>  (709) 
Shikimates and Phenylpropanoids

>  <np_classifier_superclass>  (709) 
Lignans

>  <np_classifier_class>  (709) 
Furofuranoid lignans

>  <np_classifier_is_glycoside>  (709) 
False

>  <organisms>  (709) 
Raulinoa echinata|Zanthoxylum nitidum|Zanthoxylum rhetsa|Zanthoxylum wutaiense

>  <collections>  (709) 
Australian natural products|Latin America dataset|NuBBEDB|Super Natural II|WikiData Natural Products|ZINC NP

>  <dois>  (709) 
10.1002/1099-1565(200101/02)12:1<64::AID-PCA562>3.0.CO,2-3|10.1016/j.phytochem.2014.03.008|10.1021/NP700719E|10.1080/14786419.2018.1440218

>  <synonyms>  (709) 
(+)-xanthoxylol-\u221a\u00e9\u00ac\u2265\u221a\u00e9\u00ac\u2265-dimethylallylether

>  <cas>  (709) 
nan

$$$$

     RDKit          2D

 25 26  0  0  0  0  0  0  0  0999 V2000
    4.1945   -4.8581    0.0000 C   0  0  0  0  0  0  0  0  0  0  0  0
    3.6229   -3.4713    0.0000 C   0  0  0  0  0  0  0  0  0  0  0  0
    4.5380   -2.2828    0.0000 C   0  0  0  0  0  0  0  0  0  0  0  0
    3.9664   -0.8960    0.0000 C   0  0  0  0  0  0  0  0  0  0  0  0
    2.4795   -0.6977    0.0000 C   0  0  0  0  0  0  0  0  0  0  0  0
    1.9079    0.6891    0.0000 C   0  0  0  0  0  0  0  0  0  0  0  0
    0.4210    0.8874    0.0000 C   0  0  0  0  0  0  0  0  0  0  0  0
   -0.1506    2.2742    0.0000 C   0  0  0  0  0  0  0  0  0  0  0  0
   -0.4941   -0.3010    0.0000 C   0  0  0  0  0  0  0  0  0  0  0  0
   -1.9810   -0.1027    0.0000 C   0  0  0  0  0  0  0  0  0  0  0  0
   -2.5526    1.2841    0.0000 C   0  0  0  0  0  0  0  0  0  0  0  0
   -4.0395    1.4824    0.0000 C   0  0  0  0  0  0  0  0  0  0  0  0
   -4.9546    0.2939    0.0000 C   0  0  0  0  0  0  0  0  0  0  0  0
   -6.4415    0.4922    0.0000 O   0  0  0  0  0  0  0  0  0  0  0  0
   -7.0131    1.8790    0.0000 C   0  0  0  0  0  0  0  0  0  0  0  0
   -4.3830   -1.0929    0.0000 C   0  0  0  0  0  0  0  0  0  0  0  0
   -5.2981   -2.2814    0.0000 O   0  0  0  0  0  0  0  0  0  0  0  0
   -4.7265   -3.6682    0.0000 C   0  0  0  0  0  0  0  0  0  0  0  0
   -2.8961   -1.2912    0.0000 C   0  0  0  0  0  0  0  0  0  0  0  0
    2.8230    1.8776    0.0000 C   0  0  0  0  0  0  0  0  0  0  0  0
    2.2514    3.2644    0.0000 O   0  0  0  0  0  0  0  0  0  0  0  0
    3.1665    4.4529    0.0000 C   0  0  0  0  0  0  0  0  0  0  0  0
    4.3099    1.6793    0.0000 C   0  0  0  0  0  0  0  0  0  0  0  0
    4.8815    0.2925    0.0000 C   0  0  0  0  0  0  0  0  0  0  0  0
    6.3684    0.0942    0.0000 O   0  0  0  0  0  0  0  0  0  0  0  0
  1  2  2  0
  2  3  1  0
  3  4  1  0
  4  5  2  0
  5  6  1  0
  6  7  1  0
  7  8  1  1
  7  9  1  0
  9 10  1  0
 10 11  2  0
 11 12  1  0
 12 13  2  0
 13 14  1  0
 14 15  1  0
 13 16  1  0
 16 17  1  0
 17 18  1  0
 16 19  2  0
  6 20  2  0
 20 21  1  0
 21 22  1  0
 20 23  1  0
 23 24  2  0
 24 25  1  0
 24  4  1  0
 19 10  1  0
M  END
>  <identifier>  (710) 
CNP0301860.1

>  <canonical_smiles>  (710) 
C=CCC1=CC([C@H](C)CC2=CC=C(OC)C(OC)=C2)=C(OC)C=C1O

>  <standard_inchi>  (710) 
InChI=1S/C21H26O4/c1-6-7-16-12-17(20(24-4)13-18(16)22)14(2)10-15-8-9-19(23-3)21(11-15)25-5/h6,8-9,11-14,22H,1,7,10H2,2-5H3/t14-/m1/s1

>  <standard_inchi_key>  (710) 
AMZQGUSARZCJPO-CQSZACIVSA-N

>  <name>  (710) 
nan

>  <iupac_name>  (710) 
2-allyl-4-[(1~{R})-2-(3,4-dimethoxyphenyl)-1-methyl-ethyl]-5-methoxy-phenol

>  <annotation_level>  (710) 
4

>  <total_atom_count>  (710) 
51

>  <heavy_atom_count>  (710) 
25

>  <molecular_weight>  (710) 
342.44

>  <exact_molecular_weight>  (710) 
342.18311

>  <molecular_formula>  (710) 
C21H26O4

>  <alogp>  (710) 
4.49

>  <topological_polar_surface_area>  (710) 
47.92

>  <rotatable_bond_count>  (710) 
8

>  <hydrogen_bond_acceptors>  (710) 
4

>  <hydrogen_bond_donors>  (710) 
1

>  <hydrogen_bond_acceptors_lipinski>  (710) 
4

>  <hydrogen_bond_donors_lipinski>  (710) 
1

>  <lipinski_rule_of_five_violations>  (710) 
0

>  <aromatic_rings_count>  (710) 
2

>  <qed_drug_likeliness>  (710) 
0.72

>  <formal_charge>  (710) 
0

>  <fractioncsp3>  (710) 
0.33

>  <number_of_minimal_rings>  (710) 
2

>  <van_der_walls_volume>  (710) 
nan

>  <contains_sugar>  (710) 
False

>  <contains_ring_sugars>  (710) 
False

>  <contains_linear_sugars>  (710) 
False

>  <murcko_framework>  (710) 
c1ccc(cc1)CCc2ccccc2

>  <np_likeness>  (710) 
0.68

>  <chemical_class>  (710) 
Stilbenes

>  <chemical_sub_class>  (710) 
Stilbenes

>  <chemical_super_class>  (710) 
Phenylpropanoids and polyketides

>  <direct_parent_classification>  (710) 
Stilbenes

>  <np_classifier_pathway>  (710) 
Shikimates and Phenylpropanoids

>  <np_classifier_superclass>  (710) 
Lignans

>  <np_classifier_class>  (710) 
Neolignans

>  <np_classifier_is_glycoside>  (710) 
False

>  <organisms>  (710) 
Aniba lancifolia

>  <collections>  (710) 
Latin America dataset|NuBBEDB|WikiData Natural Products|ZINC NP

>  <dois>  (710) 
10.1016/S0031-9422(00)81975-5

>  <synonyms>  (710) 
(8R)-\u221a\u00e9\u201a\u00c4\u00f9(8')-6'-Hydroxy-344'-trimethoxy-8.3'-neolignan

>  <cas>  (710) 
nan

$$$$

     RDKit          2D

 27 31  0  0  0  0  0  0  0  0999 V2000
    4.7257   -2.0629    0.0000 C   0  0  0  0  0  0  0  0  0  0  0  0
    3.3940   -1.3725    0.0000 C   0  0  0  0  0  0  0  0  0  0  0  0
    3.3260    0.1259    0.0000 C   0  0  0  0  0  0  0  0  0  0  0  0
    4.5898    0.9341    0.0000 C   0  0  0  0  0  0  0  0  0  0  0  0
    4.5218    2.4325    0.0000 C   0  0  0  0  0  0  0  0  0  0  0  0
    3.1901    3.1229    0.0000 C   0  0  0  0  0  0  0  0  0  0  0  0
    1.9264    2.3147    0.0000 N   0  0  0  0  0  0  0  0  0  0  0  0
    0.4802    2.7131    0.0000 C   0  0  0  0  0  0  0  0  0  0  0  0
   -0.3455    1.4609    0.0000 C   0  0  0  0  0  0  0  0  0  0  0  0
    0.5902    0.2886    0.0000 C   0  0  0  0  0  0  0  0  0  0  0  0
   -0.8518    0.7013    0.0000 C   0  0  0  0  0  0  0  0  0  0  0  0
   -1.5100    2.0492    0.0000 C   0  0  0  0  0  0  0  0  0  0  0  0
   -3.0064    2.1532    0.0000 C   0  0  0  0  0  0  0  0  0  0  0  0
   -3.8446    0.9092    0.0000 C   0  0  0  0  0  0  0  0  0  0  0  0
   -5.3410    1.0131    0.0000 O   0  0  0  0  0  0  0  0  0  0  0  0
   -5.9992    2.3610    0.0000 C   0  0  0  0  0  0  0  0  0  0  0  0
   -3.1864   -0.4387    0.0000 C   0  0  0  0  0  0  0  0  0  0  0  0
   -4.0246   -1.6826    0.0000 O   0  0  0  0  0  0  0  0  0  0  0  0
   -1.6900   -0.5426    0.0000 C   0  0  0  0  0  0  0  0  0  0  0  0
   -0.7660   -1.7242    0.0000 N   0  0  0  0  0  0  0  0  0  0  0  0
   -1.1788   -3.1663    0.0000 C   0  0  0  0  0  0  0  0  0  0  0  0
   -0.1363   -4.2448    0.0000 C   0  0  0  0  0  0  0  0  0  0  0  0
   -2.6340   -3.5298    0.0000 O   0  0  0  0  0  0  0  0  0  0  0  0
    0.6435   -1.2172    0.0000 C   0  0  0  0  0  0  0  0  0  0  0  0
    1.8958   -2.0430    0.0000 C   0  0  0  0  0  0  0  0  0  0  0  0
    3.2370   -1.3714    0.0000 C   0  0  0  0  0  0  0  0  0  0  0  0
    1.9944    0.8163    0.0000 C   0  0  0  0  0  0  0  0  0  0  0  0
  1  2  1  0
  3  2  1  1
  3  4  1  0
  4  5  1  0
  5  6  1  0
  6  7  1  0
  7  8  1  0
  8  9  1  0
 10  9  1  6
 10 11  1  0
 11 12  2  0
 12 13  1  0
 13 14  2  0
 14 15  1  0
 15 16  1  0
 14 17  1  0
 17 18  1  0
 17 19  2  0
 19 20  1  0
 20 21  1  0
 21 22  1  0
 21 23  2  0
 20 24  1  0
 24 25  1  1
 25 26  1  0
 10 27  1  0
 26  3  1  0
 27  3  1  0
 27  7  1  0
 24 10  1  0
 19 11  1  0
M  END
>  <identifier>  (711) 
CNP0275475.2

>  <canonical_smiles>  (711) 
CC[C@@]12CCCN3CC[C@]4(C5=CC=C(OC)C(O)=C5N(C(C)=O)[C@@H]4CC1)C32

>  <standard_inchi>  (711) 
InChI=1S/C22H30N2O3/c1-4-21-9-5-12-23-13-11-22(20(21)23)15-6-7-16(27-3)19(26)18(15)24(14(2)25)17(22)8-10-21/h6-7,17,20,26H,4-5,8-13H2,1-3H3/t17-,20?,21-,22-/m1/s1

>  <standard_inchi_key>  (711) 
CITPXCNSMZMNIW-KSPRAUQHSA-N

>  <name>  (711) 
nan

>  <iupac_name>  (711) 
1-[(1~{R},9~{R},12~{R})-12-ethyl-6-hydroxy-5-methoxy-8,16-diazapentacyclo[10.6.1.0^{1,9}.0^{2,7}.0^{16,19}]nonadeca-2,4,6-trien-8-yl]ethanone

>  <annotation_level>  (711) 
4

>  <total_atom_count>  (711) 
57

>  <heavy_atom_count>  (711) 
27

>  <molecular_weight>  (711) 
370.49

>  <exact_molecular_weight>  (711) 
370.22564

>  <molecular_formula>  (711) 
C22H30N2O3

>  <alogp>  (711) 
3.43

>  <topological_polar_surface_area>  (711) 
53.01

>  <rotatable_bond_count>  (711) 
2

>  <hydrogen_bond_acceptors>  (711) 
4

>  <hydrogen_bond_donors>  (711) 
1

>  <hydrogen_bond_acceptors_lipinski>  (711) 
4

>  <hydrogen_bond_donors_lipinski>  (711) 
1

>  <lipinski_rule_of_five_violations>  (711) 
0

>  <aromatic_rings_count>  (711) 
1

>  <qed_drug_likeliness>  (711) 
0.87

>  <formal_charge>  (711) 
0

>  <fractioncsp3>  (711) 
0.68

>  <number_of_minimal_rings>  (711) 
5

>  <van_der_walls_volume>  (711) 
nan

>  <contains_sugar>  (711) 
False

>  <contains_ring_sugars>  (711) 
False

>  <contains_linear_sugars>  (711) 
False

>  <murcko_framework>  (711) 
c1ccc2c(c1)NC3CCC4CCCN5CCC23C54

>  <np_likeness>  (711) 
2.01

>  <chemical_class>  (711) 
Aspidospermatan-type alkaloids

>  <chemical_sub_class>  (711) 
Aspidospermatan-type alkaloids

>  <chemical_super_class>  (711) 
Alkaloids and derivatives

>  <direct_parent_classification>  (711) 
Aspidospermatan-type alkaloids

>  <np_classifier_pathway>  (711) 
Alkaloids

>  <np_classifier_superclass>  (711) 
Tryptophan alkaloids

>  <np_classifier_class>  (711) 
Aspidosperma type

>  <np_classifier_is_glycoside>  (711) 
False

>  <organisms>  (711) 
Aspidosperma formosanum

>  <collections>  (711) 
Latin America dataset|NuBBEDB|WikiData Natural Products

>  <dois>  (711) 
10.1016/S0031-9422(00)84426-X

>  <synonyms>  (711) 
(+)-aspidocarpine

>  <cas>  (711) 
nan

$$$$

     RDKit          2D

 29 31  0  0  0  0  0  0  0  0999 V2000
   -4.8633    5.1212    0.0000 C   0  0  0  0  0  0  0  0  0  0  0  0
   -3.6535    4.2344    0.0000 C   0  0  0  0  0  0  0  0  0  0  0  0
   -3.8165    2.7433    0.0000 C   0  0  0  0  0  0  0  0  0  0  0  0
   -5.1894    2.1389    0.0000 C   0  0  0  0  0  0  0  0  0  0  0  0
   -2.6067    1.8565    0.0000 C   0  0  0  0  0  0  0  0  0  0  0  0
   -1.2339    2.4608    0.0000 O   0  0  0  0  0  0  0  0  0  0  0  0
   -2.7698    0.3654    0.0000 C   0  0  0  0  0  0  0  0  0  0  0  0
   -4.0720   -0.3791    0.0000 C   0  0  0  0  0  0  0  0  0  0  0  0
   -5.4398    0.2367    0.0000 O   0  0  0  0  0  0  0  0  0  0  0  0
   -3.7663   -1.8477    0.0000 O   0  0  0  0  0  0  0  0  0  0  0  0
   -2.2752   -2.0108    0.0000 C   0  0  0  0  0  0  0  0  0  0  0  0
   -3.0307   -3.3066    0.0000 C   0  0  0  0  0  0  0  0  0  0  0  0
   -1.3987   -3.2280    0.0000 C   0  0  0  0  0  0  0  0  0  0  0  0
   -2.0146   -4.5957    0.0000 O   0  0  0  0  0  0  0  0  0  0  0  0
    0.0937   -3.0775    0.0000 C   0  0  0  0  0  0  0  0  0  0  0  0
    0.9703   -4.2947    0.0000 Cl  0  0  0  0  0  0  0  0  0  0  0  0
    0.7096   -1.7098    0.0000 C   0  0  0  0  0  0  0  0  0  0  0  0
    2.2021   -1.5593    0.0000 C   0  0  0  0  0  0  0  0  0  0  0  0
    2.8179   -0.1915    0.0000 C   0  0  0  0  0  0  0  0  0  0  0  0
    4.3104   -0.0410    0.0000 C   0  0  0  0  0  0  0  0  0  0  0  0
    4.9262    1.3267    0.0000 C   0  0  0  0  0  0  0  0  0  0  0  0
    6.4187    1.4772    0.0000 C   0  0  0  0  0  0  0  0  0  0  0  0
    7.0346    2.8449    0.0000 C   0  0  0  0  0  0  0  0  0  0  0  0
    7.2952    0.2600    0.0000 C   0  0  0  0  0  0  0  0  0  0  0  0
    8.7877    0.4105    0.0000 C   0  0  0  0  0  0  0  0  0  0  0  0
    1.9414    1.0257    0.0000 O   0  0  0  0  0  0  0  0  0  0  0  0
    0.4490    0.8752    0.0000 C   0  0  0  0  0  0  0  0  0  0  0  0
   -0.1669   -0.4925    0.0000 C   0  0  0  0  0  0  0  0  0  0  0  0
   -1.6594   -0.6430    0.0000 C   0  0  0  0  0  0  0  0  0  0  0  0
  1  2  1  0
  2  3  2  0
  3  4  1  0
  3  5  1  0
  5  6  2  0
  7  5  1  1
  7  8  1  0
  8  9  2  0
  8 10  1  0
 10 11  1  0
 11 12  1  6
 11 13  1  0
 13 14  2  0
 13 15  1  0
 15 16  1  0
 15 17  2  0
 17 18  1  0
 18 19  2  0
 19 20  1  0
 20 21  2  0
 21 22  1  0
 22 23  1  1
 22 24  1  0
 24 25  1  0
 19 26  1  0
 26 27  1  0
 27 28  2  0
 29 28  1  1
 29  7  1  0
 29 11  1  0
 28 17  1  0
M  END
>  <identifier>  (712) 
CNP0254290.1

>  <canonical_smiles>  (712) 
C/C=C(\C)C(=O)[C@@H]1C(=O)O[C@]2(C)C(=O)C(Cl)=C3C=C(/C=C/[C@@H](C)CC)OC=C3[C@H]12

>  <standard_inchi>  (712) 
InChI=1S/C23H25ClO5/c1-6-12(3)8-9-14-10-15-16(11-28-14)18-17(20(25)13(4)7-2)22(27)29-23(18,5)21(26)19(15)24/h7-12,17-18H,6H2,1-5H3/b9-8+,13-7+/t12-,17+,18+,23-/m0/s1

>  <standard_inchi_key>  (712) 
GFTHCZMPYKVNIC-GETGECRZSA-N

>  <name>  (712) 
Chaetoviridin G

>  <iupac_name>  (712) 
(6~{a}~{S},9~{R},9~{a}~{S})-5-chloro-6~{a}-methyl-9-[(~{E})-2-methylbut-2-enoyl]-3-[(~{E},3~{S})-3-methylpent-1-enyl]-9,9~{a}-dihydrofuro[2,3-h]isochromene-6,8-dione

>  <annotation_level>  (712) 
5

>  <total_atom_count>  (712) 
54

>  <heavy_atom_count>  (712) 
29

>  <molecular_weight>  (712) 
416.9

>  <exact_molecular_weight>  (712) 
416.13905

>  <molecular_formula>  (712) 
C23H25ClO5

>  <alogp>  (712) 
4.55

>  <topological_polar_surface_area>  (712) 
69.67

>  <rotatable_bond_count>  (712) 
5

>  <hydrogen_bond_acceptors>  (712) 
5

>  <hydrogen_bond_donors>  (712) 
0

>  <hydrogen_bond_acceptors_lipinski>  (712) 
5

>  <hydrogen_bond_donors_lipinski>  (712) 
0

>  <lipinski_rule_of_five_violations>  (712) 
0

>  <aromatic_rings_count>  (712) 
0

>  <qed_drug_likeliness>  (712) 
0.37

>  <formal_charge>  (712) 
0

>  <fractioncsp3>  (712) 
0.44

>  <number_of_minimal_rings>  (712) 
3

>  <van_der_walls_volume>  (712) 
371.54

>  <contains_sugar>  (712) 
False

>  <contains_ring_sugars>  (712) 
False

>  <contains_linear_sugars>  (712) 
False

>  <murcko_framework>  (712) 
O1C=CC2=CCC3OCCC3C2=C1

>  <np_likeness>  (712) 
2.97

>  <chemical_class>  (712) 
Organooxygen compounds

>  <chemical_sub_class>  (712) 
Carbonyl compounds

>  <chemical_super_class>  (712) 
Organic oxygen compounds

>  <direct_parent_classification>  (712) 
Cyclohexenones

>  <np_classifier_pathway>  (712) 
Polyketides

>  <np_classifier_superclass>  (712) 
Chromanes

>  <np_classifier_class>  (712) 
Azaphilones

>  <np_classifier_is_glycoside>  (712) 
False

>  <organisms>  (712) 
Chaetomium globosum|flathead mullet

>  <collections>  (712) 
CMNPD|ChEBI NPs|EMNPD|Latin America dataset|NPASS|NPAtlas|NuBBEDB|Super Natural II|WikiData Natural Products

>  <dois>  (712) 
10.1016/J.TET.2009.06.125|10.1016/j.tet.2009.06.125|10.1021/NP200110F|10.1021/np200110f|10.1039/c005001f

>  <synonyms>  (712) 
(6aS,9R,9aS)-5-chloro-6a-methyl-9-[(2E)-2-methylbut-2-enoyl]-3-[(1E,3S)-3-methylpent-1-en-1-yl]-9,9a-dihydro-6H-furo[2,3-h]isochromene-6,8(6aH)-dione|CHEBI:67619|CHEMBL1802158|Chaetomugilin O|Q27136086|chaetoviridin G

>  <cas>  (712) 
nan

$$$$

     RDKit          2D

 22 24  0  0  0  0  0  0  0  0999 V2000
   -5.6052   -2.7124    0.0000 O   0  0  0  0  0  0  0  0  0  0  0  0
   -4.6507   -1.5553    0.0000 C   0  0  0  0  0  0  0  0  0  0  0  0
   -5.1756   -0.1501    0.0000 C   0  0  0  0  0  0  0  0  0  0  0  0
   -4.2211    1.0070    0.0000 C   0  0  0  0  0  0  0  0  0  0  0  0
   -4.7460    2.4122    0.0000 O   0  0  0  0  0  0  0  0  0  0  0  0
   -2.7418    0.7590    0.0000 C   0  0  0  0  0  0  0  0  0  0  0  0
   -1.7873    1.9162    0.0000 C   0  0  0  0  0  0  0  0  0  0  0  0
   -0.3080    1.6682    0.0000 C   0  0  0  0  0  0  0  0  0  0  0  0
    0.6465    2.8253    0.0000 O   0  0  0  0  0  0  0  0  0  0  0  0
    0.2169    0.2630    0.0000 C   0  0  0  0  0  0  0  0  0  0  0  0
    1.6963    0.0150    0.0000 C   0  0  0  0  0  0  0  0  0  0  0  0
    2.2212   -1.3902    0.0000 C   0  0  0  0  0  0  0  0  0  0  0  0
    3.7005   -1.6382    0.0000 C   0  0  0  0  0  0  0  0  0  0  0  0
    4.2254   -3.0434    0.0000 O   0  0  0  0  0  0  0  0  0  0  0  0
    4.6550   -0.4810    0.0000 C   0  0  0  0  0  0  0  0  0  0  0  0
    6.1343   -0.7291    0.0000 O   0  0  0  0  0  0  0  0  0  0  0  0
    4.1301    0.9241    0.0000 C   0  0  0  0  0  0  0  0  0  0  0  0
    5.0846    2.0813    0.0000 O   0  0  0  0  0  0  0  0  0  0  0  0
    2.6507    1.1721    0.0000 C   0  0  0  0  0  0  0  0  0  0  0  0
   -0.7375   -0.8942    0.0000 O   0  0  0  0  0  0  0  0  0  0  0  0
   -2.2169   -0.6462    0.0000 C   0  0  0  0  0  0  0  0  0  0  0  0
   -3.1714   -1.8033    0.0000 C   0  0  0  0  0  0  0  0  0  0  0  0
  1  2  1  0
  2  3  2  0
  3  4  1  0
  4  5  1  0
  4  6  2  0
  6  7  1  0
  7  8  1  0
  8  9  1  1
  8 10  1  0
 10 11  1  1
 11 12  2  0
 12 13  1  0
 13 14  1  0
 13 15  2  0
 15 16  1  0
 15 17  1  0
 17 18  1  0
 17 19  2  0
 10 20  1  0
 20 21  1  0
 21 22  2  0
 22  2  1  0
 21  6  1  0
 19 11  1  0
M  END
>  <identifier>  (713) 
CNP0162539.1

>  <canonical_smiles>  (713) 
OC1=CC(O)=C2C[C@@H](O)[C@@H](C3=CC(O)=C(O)C(O)=C3)OC2=C1

>  <standard_inchi>  (713) 
InChI=1S/C15H14O7/c16-7-3-9(17)8-5-12(20)15(22-13(8)4-7)6-1-10(18)14(21)11(19)2-6/h1-4,12,15-21H,5H2/t12-,15-/m1/s1

>  <standard_inchi_key>  (713) 
XMOCLSLCDHWDHP-IUODEOHRSA-N

>  <name>  (713) 
(-)-Epigallocatechin

>  <iupac_name>  (713) 
(2~{R},3~{R})-2-(3,4,5-trihydroxyphenyl)chromane-3,5,7-triol

>  <annotation_level>  (713) 
5

>  <total_atom_count>  (713) 
36

>  <heavy_atom_count>  (713) 
22

>  <molecular_weight>  (713) 
306.27

>  <exact_molecular_weight>  (713) 
306.07395

>  <molecular_formula>  (713) 
C15H14O7

>  <alogp>  (713) 
1.25

>  <topological_polar_surface_area>  (713) 
130.61

>  <rotatable_bond_count>  (713) 
1

>  <hydrogen_bond_acceptors>  (713) 
7

>  <hydrogen_bond_donors>  (713) 
6

>  <hydrogen_bond_acceptors_lipinski>  (713) 
7

>  <hydrogen_bond_donors_lipinski>  (713) 
6

>  <lipinski_rule_of_five_violations>  (713) 
1

>  <aromatic_rings_count>  (713) 
2

>  <qed_drug_likeliness>  (713) 
0.44

>  <formal_charge>  (713) 
0

>  <fractioncsp3>  (713) 
0.20

>  <number_of_minimal_rings>  (713) 
3

>  <van_der_walls_volume>  (713) 
254.40

>  <contains_sugar>  (713) 
False

>  <contains_ring_sugars>  (713) 
False

>  <contains_linear_sugars>  (713) 
False

>  <murcko_framework>  (713) 
O1c2ccccc2CCC1c3ccccc3

>  <np_likeness>  (713) 
2.27

>  <chemical_class>  (713) 
Flavonoids

>  <chemical_sub_class>  (713) 
Flavans

>  <chemical_super_class>  (713) 
Phenylpropanoids and polyketides

>  <direct_parent_classification>  (713) 
Epigallocatechins

>  <np_classifier_pathway>  (713) 
Shikimates and Phenylpropanoids

>  <np_classifier_superclass>  (713) 
Flavonoids

>  <np_classifier_class>  (713) 
Flavan-3-ols

>  <np_classifier_is_glycoside>  (713) 
False

>  <organisms>  (713) 
Acacia Nilotica|Acacia adunca|Acacia aneura|Acacia arabica|Acacia aulacocarpa|Acacia baileyana|Acacia binervata|Acacia binervia|Acacia burrowii|Acacia calamifolia|Acacia cardiophylla|Acacia cheelii|Acacia chrysotricha|Acacia clunies-rossiae|Acacia concurrens|Acacia constablei|Acacia cultriformis|Acacia cyanophylla|Acacia dealbata|Acacia deanei|Acacia decurrens|Acacia doratoxylon|Acacia elata|Acacia falciformis|Acacia filicifolia|Acacia fimbriata|Acacia floribunda|Acacia holosericea|Acacia implexa|Acacia irrorata|Acacia karoo|Acacia kettlewelliae|Acacia lanigera|Acacia leucoclada|Acacia longifolia|Acacia mabellae|Acacia mearnsii|Acacia melanoxylon|Acacia mollifolia|Acacia neriifolia|Acacia nilotica|Acacia obtusifolia|Acacia oshanesii|Acacia oswaldii|Acacia pachyphloia|Acacia parramattensis|Acacia pubifolia|Acacia pycnantha|Acacia pycnostachya|Acacia retinodes|Acacia rigens|Acacia saligna|Acacia sieberiana|Acacia silvestris|Acacia terminalis|Acacia trachyphloia|Acacia trineura|Acacia verniciflua|Acacia vestita|Acanthospermum glabratum|Actinidia chinensis|Actinidia chinensis var. deliciosa|Actinidia chinensis var. hispida|Adenopeltis colliguaya|Adina sessilifolia|Aglaia formosana|Aglaia laxiflora|Agrimonia sp.|Aguacate|Alhagi maurorum|Alhagi pseudalhagi|Alhagi sparsifolia|Alyxia reinwardtii|Angelica lucida|Annona reticulata|Aphis graminum|Aphis pini|Apocynum cannabinum|Apocynum venetum|Arachis hypogaea|Artemisia carvifolia|Artemisia klotzchiana|Artemisia rehan|Artemisia schimperi|Arthrinium arundinis|Arum alpinum|Aspergillus arenarius|Aspergillus desertorum|Aspergillus quadrilineatus|Astraeus pteridis|Atraphaxis frutescens|Atylosia trinervia|Aulosira fertilissima|Averrhoa Carambola|Averrhoa carambola L.|Avrainvillea longicaulis|Azadirachta Azadirachta indica|Azadirachta indica|Bacillus subtilis|Bertholletia excelsa|Bitis gabonica|Bituminaria bituminosa|Bombus hortorum|Bryum argenteum|Callicarpa japonica|Callicarpa maingayi|Camellia Sinensis|Camellia sinensis|Camellia sp.|Capnoides sempervirens|Capsicum annuum|Caragana spinosa|Carya illinoinensis|Cashew|Castanea|Castanea vesca|Casuarina sp.|Centaurea linifolia|Centaurea seridis|Centipeda cunninghami|Cephalaria uralensis|Ceratocystis clavigera|Cereus weberi|Chamomilla recutita|Chrozophora obliqua|Chrysanthemum x morifolium|Chrysophyllum cainito|Chrysothamnus parryi|Cicer arietinum|Cistus creticus|Cistus salviifolius|Cladonia fallax|Cladrastis platycarpa|Clione antarctica|Cneoridium dumosum|Cneorum pulverulentum|Cocos nucifera|Coffea|Coffea arabica|Coffea canephora|Coleus garckeanus|Combretum quadrangulare|Conoideocrella luteorostrata|Consolida ajacis|Coprosma areolata|Cortinarius orellanus|Corylus|Corylus avellana|Cotula cinerea|Crataegus pinnatifida|Crotalaria aegyptiaca|Croton draconoides|Croton lechleri|Cucumis melo|Cucurbita pepo|Cyanostegia microphylla|Cycas circinalis|Cydonia|Cylindrospermopsis raciborskii|Cylindrospermum muscicola|Dalbergia stipulacea|Daphniphyllum paxianum|Dasiphora fruticosa|Daucus Carota|Daucus carota|Dendrodoris tuberculosa|Dermolepida albohirtum|Dicoma capensis|Dicranopteris pedata|Digitalis isabelliana|Dinemasporium strigosum|Diospyros kaki|Diplodia natalensis|Discodermia dissoluta|Distylium racemosum|Elaeagnus commutata|Elaeagnus glabra|Elephantopus hirtiflorus|Elephantopus tomentosus|Elymus repens|Encyothalia cliftonii|Entada phaseoloides|Ephedra sinica|Ephedra sp.|Eremanthus seidelii|Eschweilera coriacea|Esenbeckia grandiflora|Eucalyptus flocktoniae|Euphorbia amygdaloides|Euphorbia leuconeura|Euphorbia turczaninowii|Euryops algoensis|Ficus carica|Flindersia brayleyana|Fragaria|Fragaria x ananassa|Gambierdiscus toxicus|Gardenia jasminoides|Gardenia turgida|Geranium sp.|Geranium sylvaticum|Geranium thunbergii|Gerbera piloselloides|Ginkgo biloba|Ginkgo sp.|Gmelina asiatica|Gomortega keule|Gossypium hirsutum|Graphis rikuzensis|Guazuma Ulmifolia|Guazuma ulmifolia|Gymnosporia montana|Gymnosporia senegalensis|Haliclona mucosa|Haplophyllum ferganicum|Helichrysum cephaloideum|Hemionitis japonica|Heracleum sphondylium|Hesperis matronalis|Hippophae rhamnoides|Hippophae sp.|Holomelina lamae|Hymenoxys insignis|Hypericum balearicum|Hypericum perforatum|Illicium sp.|Ircinia spinosula|Iris ensata|Isocoma pluriflora|Jackiella javanica|Jatropha macrorhiza|Jugo|Jungermannia obovata|Juniperus sp.|Keiferia lycopersicella|Koenigia coriaria|Kothala himbutu|Kummerowia striata|Lavandula dentata|Lens culinaris|Leptarrhena pyrolifolia|Lespedeza bicolor|Leucopaxillus gentianeus|Ligularia cymbulifera|Lilium umbellatum|Limonium gmelini|Limonium gmelinii|Limonium sinense|Lindera aggregata|Litsea pungens|Lobophytum laevigatum|Lotus corniculatus|Lotus pedunculatus|Lotus uliginosus|Lycoris radiata|Lyophyllum shimeji|Macadamia|Machilus macrantha|Macrothele gigas|Magnolia montana|Malus domestica|Malus pumila|Marine actinobacterium|Mascarenhasia arborescens|Matricaria chamomilla|Maytenus aquifolium|Maytenus cuzcoina|Maytenus senegalensis|Maytenus sp.|Meconopsis napaulensis|Mentha X piperita|Mentha piperita piperita|Merremia umbellata|Mespilus germanica|Micarea austroternaria|Microtropis fokienensis|Millettia conraui|Mimusops caffra|Monteverdia aquifolium|Montipora mollis|Morella rubra|Morus alba|Musa|Musa acuminata|Myrica rubra|Naja kaouthia|Nematolepis phebalioides|Nerine bowdenii|Nuphar lutea|Onobrychis cyri|Onobrychis viciifolia|Oophaga pumilio|Oreopteris quelpaertensis|Ormosia panamensis|Oscillochloris trichoides|Osmerus mordax|Palafoxia rosea|Pangium edule|Parkia biglobosa|Pedicularis condensata|Pelargonium sidoides|Penicillium alutaceum|Penicillium herquei|Penicillium kapuscinskii|Perityle vaseyi|Petasites georgicus|Phaseolus vulgaris|Phoebe formosana|Phoenix loureiroi|Phora velutina|Phyfnnvik eyyfn|Phyllanthus Emblica|Phyllanthus emblica|Phyllanthus reticulatus|Phyllanthus sp.|Picea mariana|Pinus|Pinus edulis|Piptocarpha oblonga|Pistacia vera|Pisum sativum|Plantanus orientalis|Platycarya strobilacea|Polysiphonia elongata|Polyzonium rosalbum|Porella swartziana|Potentilla erecta|Potentilla fruticosa|Potentilla sp.|Potentilla tormentilla|Primula sp.|Prunus armeniaca|Prunus avium|Prunus domestica|Prunus dulcis|Prunus persica|Pseudodistoma arborescens|Psidium friedrichsthalianum|Psoroma pallidum|Pteris radiata|Pteroxygonum giraldii|Punica granatum|Pyrus communis|Pyrus ussuriensis|Quercus cerris L.|Quercus glauca|Quercus ilex L.|Quercus mongolica|Quercus palustris Muencch.|Quercus petraea Liebl.|Quercus pubescens Willd.|Quercus robur|Quercus robur L.|Quercus rubra L.|Ranunculus sceleratus|Rheum webbianum|Rhizobium leguminosarum|Rhodiola rosea|Rhodiola sachalinensis|Rhodiola semenovii|Rhus glabra|Rhus typhina|Rhus vulgaris|Ribes nigrum|Ribes rubrum|Rosa sp.|Rosmarinus officinalis|Rubritalea squalenifaciens|Rubus|Salacia chinensis|Salacia prinoides|Salvia coulteri|Salvia officinalis|Salvia parryi|Sarcophyton elegans|Satureja cuneifolia|Scopolia hladnikiana|Sedum obtuso-lineare|Sempervivum tectorum|Senecio adenophyllus|Senecio flavus|Senegalia catechu|Senegalia mellifera|Senegalia pennata|Serratula inermis|Sesbania bispinosa|Sida cordifolia|Solanum melongena|Solanum nigrum|Solanum sisymbriifolium|Solenopsis invicta|Solidago flexicaulis|Solidago serotina|Sonchus ortunoi|Sorbaria sorbifolia|Spatholobus suberectus|Spodoptera littoralis|Sterculia foetida|Stereospermum cylindricum|Stizolobium deeringianum|Streptomyces fradiae|Streptomyces mobaraensis|Streptomyces xanthochromogenes|Strophanthus kombe|Stryphnodendron adstringens|Styrax ferrugineus|Syzygium aqueum|Syzygium samarangense|Syzygium spp.|Tectaria subtriphylla|Thalictrum longistylum|Theobroma cacao|Thymbra spicata|Thymus vulgaris|Trichia floriformis|Trichophyton mentagrophytes|Tridachia crispata|Trifolium repens|Tripterygium hypoglaucum|Triticum aestivum|Trollius chinensis|Turpinia ternata|Turraeanthus mannii|Umbilicaria esculenta|Uncaria guianensis|Uncaria tomentosa|Vaccinium vitis-idaea|Vachellia horrida|Vachellia karroo|Vachellia nilotica|Vachellia pennatula|Vachellia seyal|Vachellia sieberiana|Vachellia tortilis|Valeriana wolgensis|Veronica arvensis|Viburnum urceolatum|Vicia Faba|Vicia faba|Vigna mungo|Viguiera linearis|Viguiera oblongifolia|Vincetoxicum hirundinaria|Vitellaria paradoxa|Vitis vinifera|Xanthoceras sorbifolia|Xanthoceras sorbifolia Bunge|Xanthoceras sorbifolium|Xylaria cubensis|Xyris pterygoblephara|Ziziphus jujuba|Ziziphus mauritiana|Ziziphus spina-christi|broad bean|common myrtle|lettuce|peanut|pomegranate|star fruit|tomato

>  <collections>  (713) 
ANPDB|Australian natural products|BitterDB|CMAUP (cCollective molecular activities of useful plants)|ChEBI NPs|ChemSpider NPs|DrugBankNP|ETM (Ethiopian Traditional Medicine) DB|FooDB|GNPS (Global Natural Products Social Molecular Networking)|KNApSaCK|Latin America dataset|NANPDB (Natural Products from Northern African Sources)|NAPRORE-CR|NPASS|NPEdia|Nat-UV DB|NuBBEDB|Phenol-explorer|Phyto4Health|PhytoLab phyproof® Reference Substances|SANCDB|Super Natural II|TCMDB-Taiwan (Traditional Chinese Medicine database)|TIPdb (database of Taiwan indigenous plants)|TPPT (Toxic Plants–PhytoToxins)|VietHerb|WikiData Natural Products

>  <dois>  (713) 
10.1002/%28SICI%291099-1573%28199902%2913:1%3C31::AID-PTR381%3E3.0.CO;2-C/epdf|10.1002/(SICI)1097-458X(199611)34:11<887::AID-OMR995>3.0.CO;2-U|10.1002/(SICI)1099-1573(199902)13:1<31::AID-PTR381>3.0.CO;2-C|10.1002/(SICI)1521-4168(19990401)22:4<225::AID-JHRC225>3.0.CO;2-V|10.1002/(sici)1099-1573(199902)13:1<31::aid-ptr381>3.0.co;2-c|10.1002/1099-1573(200011)14:7<501::AID-PTR655>3.0.CO;2-B|10.1002/9780470744307.gat218|10.1002/CBDV.201100002|10.1002/ELPS.201300646|10.1002/HLCA.201000168|10.1002/HLCA.201100267|10.1002/JSFA.2740600217|10.1002/MNFR.200400064|10.1002/PTR.1249|10.1002/PTR.2390|10.1002/PTR.2650050512|10.1002/food.19880321030|10.1002/ptr.1249|10.1007/BF00381261|10.1007/BF00564830|10.1007/BF00565058|10.1007/BF00565756|10.1007/BF00575060|10.1007/BF00597729|10.1007/BF00633406|10.1007/BF00638416|10.1007/BF00683862|10.1007/BF01201768|10.1007/BF02249631|10.1007/BF02291535|10.1007/BF02291536|10.1007/BF02291539|10.1007/BF02467181|10.1007/S00217-004-0938-X|10.1007/S10529-015-1825-1|10.1007/S10600-005-0133-8|10.1007/S10600-006-0052-3|10.1007/S10600-011-0025-Z|10.1007/S10600-012-0124-5|10.1007/S11418-008-0239-Y|10.1016/0021-9673(96)00456-6|10.1016/0031-9422(91)80011-O|10.1016/0031-9422(91)85063-6|10.1016/0031-9422(92)80196-L|10.1016/0031-9422(92)80352-F|10.1016/0031-9422(92)83300-N|10.1016/0031-9422(93)85116-9|10.1016/0031-9422(94)00574-D|10.1016/0031-9422(95)00602-8|10.1016/0031-9422(95)00686-9|10.1016/0166-3542(93)90095-Z|10.1016/0308-8146(93)90160-H|10.1016/0378-8741(86)90110-8|10.1016/J.BMC.2012.02.002|10.1016/J.BMCL.2011.03.091|10.1016/J.BSE.2013.04.001|10.1016/J.BSE.2016.02.030|10.1016/J.FITOTE.2003.08.004|10.1016/J.FITOTE.2009.01.006|10.1016/J.FOODCHEM.2008.11.094|10.1016/J.FOODCHEM.2014.08.101|10.1016/J.FOODCHEM.2019.125629|10.1016/J.FOODRES.2004.10.005|10.1016/J.LWT.2018.02.024|10.1016/J.PHYMED.2006.11.021|10.1016/J.PLAPHY.2015.04.008|10.1016/J.SAJB.2011.09.001|10.1016/S0021-9673(97)01069-8|10.1016/S0021-9673(98)00040-5|10.1016/S0031-9422(00)00124-2|10.1016/S0031-9422(00)81913-5|10.1016/S0031-9422(00)83018-6|10.1016/S0031-9422(00)85959-2|10.1016/S0031-9422(00)90858-6|10.1016/S0031-9422(97)00198-2|10.1016/S0031-9422(97)00824-8|10.1016/S0031-9422(98)00571-8|10.1016/S0031-9422(98)00715-8|10.1016/S0165-1161(96)90262-9|10.1016/S0304-4165(99)00102-6|10.1016/S0308-8146(02)00112-7|10.1016/S0308-8146(02)00415-6|10.1016/S0308-8146(03)00066-9|10.1016/S0308-8146(99)00179-X|10.1016/S0367-326X(99)00137-9|10.1016/S0731-7085(00)00264-8|10.1016/j.bmc.2012.02.002|10.1016/j.bmcl.2011.03.091|10.1016/j.bmcl.2016.08.094|10.1016/j.jfca.2018.09.012|10.1016/j.sajb.2011.09.001|10.1021/JF000026+|10.1021/JF000316Q|10.1021/JF00031A010|10.1021/JF000549H|10.1021/JF010153L|10.1021/JF011178N|10.1021/JF0531499|10.1021/JF061478A|10.1021/JF950652K|10.1021/JF980223X|10.1021/JF980669D|10.1021/JF981114L|10.1021/JF9813081|10.1021/JF991171U|10.1021/NP000135I|10.1021/NP000486X|10.1021/NP010370G|10.1021/NP0301543|10.1021/NP100372T|10.1021/NP50017A026|10.1021/NP980046U|10.1021/NP9902441|10.1021/acs.jnatprod.6b00720|10.1021/np0301543|10.1021/np049743e|10.1023/B:CONC.0000018119.19021.18|10.1023/B:CONC.0000025479.07578.5D|10.1023/B:CONC.0000025480.17399.66|10.1039/A909219F|10.1039/C9FO00799G|10.1039/jr9570003586|10.1055/S-0029-1240743|10.1055/S-2000-11135|10.1055/S-2000-8540|10.1055/S-2003-43208|10.1055/S-2006-959567|10.1055/S-2006-960021|10.1078/0944-7113-00117|10.1080/01635589209514207|10.1080/09637486.2017.1418845|10.1080/1071576021000006707|10.1080/14786419.2019.1579808|10.1080/15216549900201883|10.1081/JLC-100101831|10.1081/JLC-100103434|10.1081/JLC-120003036|10.1093/CARCIN/10.6.1003|10.1093/CARCIN/18.10.1911|10.1093/JN/131.9.2248|10.1093/JN/132.7.1819|10.1093/MUTAGE/11.1.37|10.1097/00001813-199606000-00011|10.1104/PP.69.2.522|10.1111/J.1365-2621.2005.TB08304.X|10.1159/000261407|10.1177/1934578X1501001229|10.1248/BPB.18.683|10.1248/BPB.23.1328|10.1248/BPB.25.1101|10.1248/BPB.25.72|10.1248/CPB.31.3906|10.1248/CPB.34.941|10.1248/CPB.35.611|10.1248/CPB.36.33|10.1248/CPB.37.3255|10.1248/CPB.37.77|10.1248/CPB.38.856|10.1248/CPB.40.1383|10.1248/CPB.40.2671|10.1248/CPB.41.1708|10.1248/CPB.47.1049|10.1248/CPB.48.1114|10.1248/CPB.49.396|10.1248/CPB.50.208|10.1248/CPB.50.841|10.1248/CPB.51.1051|10.1248/CPB.51.343|10.1248/CPB.55.57|10.1248/CPB.55.598|10.1248/YAKUSHI.121.371|10.1248/YAKUSHI1947.111.12_790|10.1271/BBB.59.2134|10.1271/BBB.61.1099|10.1271/BBB.61.1901|10.1271/BBB.90697|10.1271/BBB1961.46.1079|10.1271/BBB1961.51.139|10.1271/BBB1961.53.2307|10.3390/IJMS151120585|10.3390/MOLECULES13061219|10.3390/MOLECULES22101606

>  <synonyms>  (713) 
nan

>  <cas>  (713) 
970-74-1|124107-38-6|188819-07-0

$$$$

     RDKit          2D

 35 36  0  0  0  0  0  0  0  0999 V2000
    7.0729   -4.5230    0.0000 C   0  0  0  0  0  0  0  0  0  0  0  0
    5.5786   -4.3923    0.0000 C   0  0  0  0  0  0  0  0  0  0  0  0
    4.9447   -3.0328    0.0000 C   0  0  0  0  0  0  0  0  0  0  0  0
    5.8051   -1.8041    0.0000 C   0  0  0  0  0  0  0  0  0  0  0  0
    3.4504   -2.9021    0.0000 C   0  0  0  0  0  0  0  0  0  0  0  0
    2.5900   -4.1308    0.0000 O   0  0  0  0  0  0  0  0  0  0  0  0
    2.8165   -1.5426    0.0000 O   0  0  0  0  0  0  0  0  0  0  0  0
    1.3222   -1.4118    0.0000 C   0  0  0  0  0  0  0  0  0  0  0  0
    0.4618   -2.6406    0.0000 C   0  0  0  0  0  0  0  0  0  0  0  0
    0.6883   -0.0524    0.0000 C   0  0  0  0  0  0  0  0  0  0  0  0
   -0.8060    0.0784    0.0000 C   0  0  0  0  0  0  0  0  0  0  0  0
   -1.6664   -1.1504    0.0000 O   0  0  0  0  0  0  0  0  0  0  0  0
   -3.1607   -1.0196    0.0000 C   0  0  0  0  0  0  0  0  0  0  0  0
   -3.7946    0.3398    0.0000 O   0  0  0  0  0  0  0  0  0  0  0  0
   -5.2889    0.4706    0.0000 C   0  0  0  0  0  0  0  0  0  0  0  0
   -5.9228    1.8300    0.0000 C   0  0  0  0  0  0  0  0  0  0  0  0
   -5.0624    3.0588    0.0000 O   0  0  0  0  0  0  0  0  0  0  0  0
   -6.1493   -0.7581    0.0000 C   0  0  0  0  0  0  0  0  0  0  0  0
   -7.6436   -0.6274    0.0000 O   0  0  0  0  0  0  0  0  0  0  0  0
   -5.5153   -2.1176    0.0000 C   0  0  0  0  0  0  0  0  0  0  0  0
   -6.3757   -3.3463    0.0000 O   0  0  0  0  0  0  0  0  0  0  0  0
   -4.0210   -2.2484    0.0000 C   0  0  0  0  0  0  0  0  0  0  0  0
   -3.3871   -3.6078    0.0000 O   0  0  0  0  0  0  0  0  0  0  0  0
   -1.4399    1.4378    0.0000 O   0  0  0  0  0  0  0  0  0  0  0  0
   -0.5796    2.6665    0.0000 C   0  0  0  0  0  0  0  0  0  0  0  0
    0.9147    2.5358    0.0000 C   0  0  0  0  0  0  0  0  0  0  0  0
    1.7751    3.7645    0.0000 C   0  0  0  0  0  0  0  0  0  0  0  0
    2.7586    3.7989    0.0000 O   0  0  0  0  0  0  0  0  0  0  0  0
    1.1412    5.1240    0.0000 O   0  0  0  0  0  0  0  0  0  0  0  0
    2.0015    6.3527    0.0000 C   0  0  0  0  0  0  0  0  0  0  0  0
    1.5486    1.1763    0.0000 C   0  0  0  0  0  0  0  0  0  0  0  0
    3.0429    1.0456    0.0000 C   0  0  0  0  0  0  0  0  0  0  0  0
    3.9033    2.2743    0.0000 C   0  0  0  0  0  0  0  0  0  0  0  0
    5.3976    2.1436    0.0000 O   0  0  0  0  0  0  0  0  0  0  0  0
    3.5992    3.2103    0.0000 O   0  0  0  0  0  0  0  0  0  0  0  0
  1  2  1  0
  2  3  2  0
  3  4  1  0
  3  5  1  0
  5  6  2  0
  5  7  1  0
  7  8  1  0
  8  9  1  1
  8 10  1  0
 10 11  1  1
 11 12  1  0
 13 12  1  1
 13 14  1  0
 14 15  1  0
 15 16  1  1
 16 17  1  0
 15 18  1  0
 18 19  1  6
 18 20  1  0
 20 21  1  1
 20 22  1  0
 22 23  1  6
 11 24  1  0
 24 25  1  0
 25 26  2  0
 26 27  1  0
 27 28  2  0
 27 29  1  0
 29 30  1  0
 26 31  1  0
 31 32  1  1
 32 33  1  0
 33 34  2  0
 33 35  1  0
 31 10  1  0
 22 13  1  0
M  END
>  <identifier>  (714) 
CNP0173331.3

>  <canonical_smiles>  (714) 
C/C=C(\C)C(=O)O[C@@H](C)[C@H]1C(O[C@@H]2O[C@H](CO)[C@@H](O)[C@H](O)[C@H]2O)OC=C(C(=O)OC)[C@H]1CC(=O)O

>  <standard_inchi>  (714) 
InChI=1S/C22H32O13/c1-5-9(2)19(29)33-10(3)15-11(6-14(24)25)12(20(30)31-4)8-32-21(15)35-22-18(28)17(27)16(26)13(7-23)34-22/h5,8,10-11,13,15-18,21-23,26-28H,6-7H2,1-4H3,(H,24,25)/b9-5+/t10-,11+,13+,15+,16+,17-,18+,21?,22-/m0/s1

>  <standard_inchi_key>  (714) 
JVEXRQAKPOSWCW-NENWDJAGSA-N

>  <name>  (714) 
nan

>  <iupac_name>  (714) 
2-[(3~{S},4~{S})-5-methoxycarbonyl-3-[(1~{S})-1-[(~{E})-2-methylbut-2-enoyl]oxyethyl]-2-[(2~{S},3~{R},4~{S},5~{S},6~{R})-3,4,5-trihydroxy-6-(hydroxymethyl)tetrahydropyran-2-yl]oxy-3,4-dihydro-2~{H}-pyran-4-yl]acetic acid

>  <annotation_level>  (714) 
4

>  <total_atom_count>  (714) 
67

>  <heavy_atom_count>  (714) 
35

>  <molecular_weight>  (714) 
504.49

>  <exact_molecular_weight>  (714) 
504.18429

>  <molecular_formula>  (714) 
C22H32O13

>  <alogp>  (714) 
-1.18

>  <topological_polar_surface_area>  (714) 
198.51

>  <rotatable_bond_count>  (714) 
9

>  <hydrogen_bond_acceptors>  (714) 
12

>  <hydrogen_bond_donors>  (714) 
5

>  <hydrogen_bond_acceptors_lipinski>  (714) 
12

>  <hydrogen_bond_donors_lipinski>  (714) 
5

>  <lipinski_rule_of_five_violations>  (714) 
2

>  <aromatic_rings_count>  (714) 
0

>  <qed_drug_likeliness>  (714) 
0.19

>  <formal_charge>  (714) 
0

>  <fractioncsp3>  (714) 
0.68

>  <number_of_minimal_rings>  (714) 
2

>  <van_der_walls_volume>  (714) 
nan

>  <contains_sugar>  (714) 
True

>  <contains_ring_sugars>  (714) 
True

>  <contains_linear_sugars>  (714) 
False

>  <murcko_framework>  (714) 
O1C=CCCC1OC2OCCCC2

>  <np_likeness>  (714) 
2.43

>  <chemical_class>  (714) 
Prenol lipids

>  <chemical_sub_class>  (714) 
Monoterpenoids

>  <chemical_super_class>  (714) 
Lipids and lipid-like molecules

>  <direct_parent_classification>  (714) 
Iridoids and derivatives

>  <np_classifier_pathway>  (714) 
Terpenoids

>  <np_classifier_superclass>  (714) 
Monoterpenoids

>  <np_classifier_class>  (714) 
Secoiridoid monoterpenoids

>  <np_classifier_is_glycoside>  (714) 
True

>  <organisms>  (714) 
Calycophyllum spruceanum

>  <collections>  (714) 
Latin America dataset|NuBBEDB

>  <dois>  (714) 
10.1016/S0031-9422(03)00153-5

>  <synonyms>  (714) 
8-O-tigloyldiderroside

>  <cas>  (714) 
nan

$$$$

     RDKit          2D

 46 48  0  0  0  0  0  0  0  0999 V2000
   -2.0313    6.7126    0.0000 C   0  0  0  0  0  0  0  0  0  0  0  0
   -1.0158    5.6086    0.0000 C   0  0  0  0  0  0  0  0  0  0  0  0
    0.4480    5.9361    0.0000 C   0  0  0  0  0  0  0  0  0  0  0  0
    0.8963    7.3676    0.0000 C   0  0  0  0  0  0  0  0  0  0  0  0
    1.4635    4.8321    0.0000 C   0  0  0  0  0  0  0  0  0  0  0  0
    1.0152    3.4007    0.0000 C   0  0  0  0  0  0  0  0  0  0  0  0
    2.0307    2.2967    0.0000 C   0  0  0  0  0  0  0  0  0  0  0  0
    2.9416    3.4885    0.0000 C   0  0  0  0  0  0  0  0  0  0  0  0
    0.7672    1.4884    0.0000 C   0  0  0  0  0  0  0  0  0  0  0  0
   -0.5647    2.1784    0.0000 C   0  0  0  0  0  0  0  0  0  0  0  0
    0.8355   -0.0101    0.0000 C   0  0  0  0  0  0  0  0  0  0  0  0
   -0.4281   -0.8185    0.0000 O   0  0  0  0  0  0  0  0  0  0  0  0
   -1.7599   -0.1284    0.0000 C   0  0  0  0  0  0  0  0  0  0  0  0
   -1.8282    1.3700    0.0000 O   0  0  0  0  0  0  0  0  0  0  0  0
   -3.0234   -0.9368    0.0000 C   0  0  0  0  0  0  0  0  0  0  0  0
   -4.3553   -0.2467    0.0000 C   0  0  0  0  0  0  0  0  0  0  0  0
   -5.6188   -1.0551    0.0000 C   0  0  0  0  0  0  0  0  0  0  0  0
   -6.9507   -0.3650    0.0000 C   0  0  0  0  0  0  0  0  0  0  0  0
   -8.2142   -1.1734    0.0000 C   0  0  0  0  0  0  0  0  0  0  0  0
   -9.5461   -0.4833    0.0000 C   0  0  0  0  0  0  0  0  0  0  0  0
  -10.8096   -1.2917    0.0000 C   0  0  0  0  0  0  0  0  0  0  0  0
  -12.1414   -0.6016    0.0000 C   0  0  0  0  0  0  0  0  0  0  0  0
  -13.4050   -1.4100    0.0000 C   0  0  0  0  0  0  0  0  0  0  0  0
    2.1673   -0.7002    0.0000 C   0  0  0  0  0  0  0  0  0  0  0  0
    2.2356   -2.1986    0.0000 O   0  0  0  0  0  0  0  0  0  0  0  0
    0.9721   -3.0070    0.0000 C   0  0  0  0  0  0  0  0  0  0  0  0
    1.0404   -4.5054    0.0000 C   0  0  0  0  0  0  0  0  0  0  0  0
   -0.4872   -2.6597    0.0000 O   0  0  0  0  0  0  0  0  0  0  0  0
    3.4309    0.1082    0.0000 C   0  0  0  0  0  0  0  0  0  0  0  0
    4.7627   -0.5818    0.0000 C   0  0  0  0  0  0  0  0  0  0  0  0
    6.0262    0.2265    0.0000 C   0  0  0  0  0  0  0  0  0  0  0  0
    5.9579    1.7250    0.0000 C   0  0  0  0  0  0  0  0  0  0  0  0
    7.2215    2.5334    0.0000 O   0  0  0  0  0  0  0  0  0  0  0  0
    4.6261    2.4150    0.0000 C   0  0  0  0  0  0  0  0  0  0  0  0
    3.3625    1.6067    0.0000 C   0  0  0  0  0  0  0  0  0  0  0  0
    4.5180   -2.0617    0.0000 C   0  0  0  0  0  0  0  0  0  0  0  0
    5.5714   -3.1296    0.0000 O   0  0  0  0  0  0  0  0  0  0  0  0
    5.1733   -4.5758    0.0000 C   0  0  0  0  0  0  0  0  0  0  0  0
    6.2267   -5.6437    0.0000 C   0  0  0  0  0  0  0  0  0  0  0  0
    3.7218   -4.9542    0.0000 O   0  0  0  0  0  0  0  0  0  0  0  0
    3.0349   -2.2863    0.0000 O   0  0  0  0  0  0  0  0  0  0  0  0
    2.3630   -0.9452    0.0000 C   0  0  0  0  0  0  0  0  0  0  0  0
    0.8831   -0.7005    0.0000 O   0  0  0  0  0  0  0  0  0  0  0  0
   -0.0688   -1.8597    0.0000 C   0  0  0  0  0  0  0  0  0  0  0  0
   -1.5487   -1.6150    0.0000 C   0  0  0  0  0  0  0  0  0  0  0  0
    0.1038   -3.3498    0.0000 O   0  0  0  0  0  0  0  0  0  0  0  0
  1  2  2  0
  2  3  1  0
  3  4  2  0
  3  5  1  0
  5  6  1  0
  6  7  1  0
  7  8  1  6
  7  9  1  0
  9 10  1  1
  9 11  1  0
 11 12  1  6
 12 13  1  0
 13 14  2  0
 13 15  1  0
 15 16  2  0
 16 17  1  0
 17 18  2  0
 18 19  1  0
 19 20  1  0
 20 21  1  0
 21 22  1  0
 22 23  1  0
 11 24  1  0
 24 25  1  1
 25 26  1  0
 26 27  1  0
 26 28  2  0
 24 29  1  0
 29 30  1  6
 30 31  2  0
 31 32  1  0
 32 33  1  1
 32 34  1  0
 35 34  1  6
 30 36  1  0
 36 37  1  1
 37 38  1  0
 38 39  1  0
 38 40  2  0
 36 41  1  0
 41 42  1  0
 42 43  1  6
 43 44  1  0
 44 45  1  0
 44 46  2  0
 35  7  1  0
 35 29  1  0
 42 29  1  0
M  END
>  <identifier>  (715) 
CNP0085359.1

>  <canonical_smiles>  (715) 
C=CC(=C)CC[C@]1(C)[C@H](C)[C@@H](OC(=O)/C=C/C=C/CCCCC)[C@H](OC(C)=O)[C@@]23C(=C[C@H](O)C[C@@H]12)[C@@H](OC(C)=O)O[C@@H]3OC(C)=O

>  <standard_inchi>  (715) 
InChI=1S/C36H50O10/c1-9-11-12-13-14-15-16-17-30(41)45-31-23(4)35(8,19-18-22(3)10-2)29-21-27(40)20-28-33(43-25(6)38)46-34(44-26(7)39)36(28,29)32(31)42-24(5)37/h10,14-17,20,23,27,29,31-34,40H,2-3,9,11-13,18-19,21H2,1,4-8H3/b15-14+,17-16+/t23-,27+,29+,31-,32+,33+,34+,35-,36-/m1/s1

>  <standard_inchi_key>  (715) 
KAIWHFAEAXEXOF-YNJQKTHUSA-N

>  <name>  (715) 
nan

>  <iupac_name>  (715) 
[(1~{R},3~{R},5~{R},6~{a}~{S},7~{S},8~{S},9~{R},10~{R},10~{a}~{S})-1,3,10-triacetoxy-5-hydroxy-7,8-dimethyl-7-(3-methylenepent-4-enyl)-1,3,5,6,6~{a},8,9,10-octahydrobenzo[d]isobenzofuran-9-yl] (2~{E},4~{E})-deca-2,4-dienoate

>  <annotation_level>  (715) 
5

>  <total_atom_count>  (715) 
96

>  <heavy_atom_count>  (715) 
46

>  <molecular_weight>  (715) 
642.79

>  <exact_molecular_weight>  (715) 
642.3404

>  <molecular_formula>  (715) 
C36H50O10

>  <alogp>  (715) 
5.80

>  <topological_polar_surface_area>  (715) 
134.66

>  <rotatable_bond_count>  (715) 
14

>  <hydrogen_bond_acceptors>  (715) 
10

>  <hydrogen_bond_donors>  (715) 
1

>  <hydrogen_bond_acceptors_lipinski>  (715) 
10

>  <hydrogen_bond_donors_lipinski>  (715) 
1

>  <lipinski_rule_of_five_violations>  (715) 
2

>  <aromatic_rings_count>  (715) 
0

>  <qed_drug_likeliness>  (715) 
0.06

>  <formal_charge>  (715) 
0

>  <fractioncsp3>  (715) 
0.61

>  <number_of_minimal_rings>  (715) 
3

>  <van_der_walls_volume>  (715) 
608.36

>  <contains_sugar>  (715) 
False

>  <contains_ring_sugars>  (715) 
False

>  <contains_linear_sugars>  (715) 
False

>  <murcko_framework>  (715) 
O1CC2=CCCC3CCCCC23C1

>  <np_likeness>  (715) 
3.20

>  <chemical_class>  (715) 
Prenol lipids

>  <chemical_sub_class>  (715) 
Diterpenoids

>  <chemical_super_class>  (715) 
Lipids and lipid-like molecules

>  <direct_parent_classification>  (715) 
Colensane and clerodane diterpenoids

>  <np_classifier_pathway>  (715) 
Terpenoids

>  <np_classifier_superclass>  (715) 
Diterpenoids

>  <np_classifier_class>  (715) 
Colensane and Clerodane diterpenoids

>  <np_classifier_is_glycoside>  (715) 
True

>  <organisms>  (715) 
Casearia rupestris

>  <collections>  (715) 
ChemSpider NPs|Latin America dataset|NuBBEDB|Super Natural II|WikiData Natural Products|ZINC NP

>  <dois>  (715) 
10.1021/NP100840W|10.1021/np100840w

>  <synonyms>  (715) 
Casearupestrin D

>  <cas>  (715) 
nan

$$$$

     RDKit          2D

 21 24  0  0  0  0  0  0  0  0999 V2000
    5.9599    0.6053    0.0000 C   0  0  0  0  0  0  0  0  0  0  0  0
    4.5789    1.1909    0.0000 C   0  0  0  0  0  0  0  0  0  0  0  0
    3.3813    0.2878    0.0000 C   0  0  0  0  0  0  0  0  0  0  0  0
    3.4080   -1.2120    0.0000 C   0  0  0  0  0  0  0  0  0  0  0  0
    4.6370   -2.0719    0.0000 O   0  0  0  0  0  0  0  0  0  0  0  0
    1.9899   -1.7008    0.0000 O   0  0  0  0  0  0  0  0  0  0  0  0
    1.0867   -0.5032    0.0000 C   0  0  0  0  0  0  0  0  0  0  0  0
    0.5356   -1.8983    0.0000 C   0  0  0  0  0  0  0  0  0  0  0  0
   -0.9616   -1.8051    0.0000 C   0  0  0  0  0  0  0  0  0  0  0  0
   -1.3356   -0.3525    0.0000 C   0  0  0  0  0  0  0  0  0  0  0  0
   -2.6654    0.3415    0.0000 C   0  0  0  0  0  0  0  0  0  0  0  0
   -3.9313   -0.4632    0.0000 C   0  0  0  0  0  0  0  0  0  0  0  0
   -3.8675   -1.9618    0.0000 O   0  0  0  0  0  0  0  0  0  0  0  0
   -5.2611    0.2308    0.0000 O   0  0  0  0  0  0  0  0  0  0  0  0
   -6.5271   -0.5738    0.0000 C   0  0  0  0  0  0  0  0  0  0  0  0
   -2.7293    1.8401    0.0000 C   0  0  0  0  0  0  0  0  0  0  0  0
   -1.4634    2.6448    0.0000 O   0  0  0  0  0  0  0  0  0  0  0  0
   -0.1336    1.9508    0.0000 C   0  0  0  0  0  0  0  0  0  0  0  0
    1.3502    2.1709    0.0000 O   0  0  0  0  0  0  0  0  0  0  0  0
    2.0181    0.8278    0.0000 C   0  0  0  0  0  0  0  0  0  0  0  0
   -0.0697    0.4521    0.0000 C   0  0  0  0  0  0  0  0  0  0  0  0
  1  2  1  0
  2  3  2  0
  3  4  1  0
  4  5  2  0
  4  6  1  0
  7  6  1  1
  7  8  1  0
  8  9  2  0
 10  9  1  6
 10 11  1  0
 11 12  1  0
 12 13  2  0
 12 14  1  0
 14 15  1  0
 11 16  2  0
 16 17  1  0
 18 17  1  6
 18 19  1  0
 20 19  1  1
 21 18  1  6
 20  3  1  0
 20  7  1  0
 21  7  1  0
 21 10  1  0
M  END
>  <identifier>  (716) 
CNP0206987.1

>  <canonical_smiles>  (716) 
C/C=C1\C(=O)O[C@]23C=C[C@@H]4C(C(=O)OC)=CO[C@H](O[C@@H]12)[C@@H]43

>  <standard_inchi>  (716) 
InChI=1S/C15H14O6/c1-3-7-11-15(21-13(7)17)5-4-8-9(12(16)18-2)6-19-14(20-11)10(8)15/h3-6,8,10-11,14H,1-2H3/b7-3-/t8-,10-,11+,14-,15+/m1/s1

>  <standard_inchi_key>  (716) 
VFXXNAVZODKBIW-SIEBBUFOSA-N

>  <name>  (716) 
Isoplumericin

>  <iupac_name>  (716) 
methyl (1~{S},4~{S},8~{R},10~{S},11~{Z},14~{S})-11-ethylidene-12-oxo-7,9,13-trioxatetracyclo[6.5.1.0^{1,10}.0^{4,14}]tetradeca-2,5-diene-5-carboxylate

>  <annotation_level>  (716) 
5

>  <total_atom_count>  (716) 
35

>  <heavy_atom_count>  (716) 
21

>  <molecular_weight>  (716) 
290.27

>  <exact_molecular_weight>  (716) 
290.07904

>  <molecular_formula>  (716) 
C15H14O6

>  <alogp>  (716) 
0.84

>  <topological_polar_surface_area>  (716) 
71.06

>  <rotatable_bond_count>  (716) 
1

>  <hydrogen_bond_acceptors>  (716) 
6

>  <hydrogen_bond_donors>  (716) 
0

>  <hydrogen_bond_acceptors_lipinski>  (716) 
6

>  <hydrogen_bond_donors_lipinski>  (716) 
0

>  <lipinski_rule_of_five_violations>  (716) 
0

>  <aromatic_rings_count>  (716) 
0

>  <qed_drug_likeliness>  (716) 
0.40

>  <formal_charge>  (716) 
0

>  <fractioncsp3>  (716) 
0.47

>  <number_of_minimal_rings>  (716) 
4

>  <van_der_walls_volume>  (716) 
242.70

>  <contains_sugar>  (716) 
False

>  <contains_ring_sugars>  (716) 
False

>  <contains_linear_sugars>  (716) 
False

>  <murcko_framework>  (716) 
O1C=CC2C=CC34OCCC4OC1C23

>  <np_likeness>  (716) 
3.11

>  <chemical_class>  (716) 
Prenol lipids

>  <chemical_sub_class>  (716) 
Terpene lactones

>  <chemical_super_class>  (716) 
Lipids and lipid-like molecules

>  <direct_parent_classification>  (716) 
Terpene lactones

>  <np_classifier_pathway>  (716) 
Terpenoids

>  <np_classifier_superclass>  (716) 
Monoterpenoids

>  <np_classifier_class>  (716) 
Iridoids monoterpenoids

>  <np_classifier_is_glycoside>  (716) 
False

>  <organisms>  (716) 
Acacia salicina|Acanthaster planci|Achillea wilhelmsii|Allamanda blanchetii|Allamanda cathartica|Allamanda schottii|Allemanda cathartica|Backhousia angustifolia|Blighia welwitschii|Calvatia lilacina|Cunninghamia lanceolata var. konishii|Dioscorea villosa|Haliclona tubifera|Himatanthus articulatus|Himatanthus fallax|Himatanthus sucuuba|Io fluvialis|Juniperus ashei|Kalanchoe blossfeldiana|Plumeria|Plumeria Rubra|Plumeria alba|Plumeria obtusa|Plumeria rubra|Russula vesca|Sassafras officinalis|Setosphaeria turcica|Tanacetum nubigenum

>  <collections>  (716) 
Australian natural products|CMAUP (cCollective molecular activities of useful plants)|ChEBI NPs|ChemSpider NPs|ConMedNP|NPASS|NPEdia|NuBBEDB|Super Natural II|TCMDB-Taiwan (Traditional Chinese Medicine database)|VietHerb|WikiData Natural Products|ZINC NP

>  <dois>  (716) 
10.1016/0378-8741(91)90091-Q|10.1016/S0031-9422(00)80071-0|10.1016/S0031-9422(00)80083-7|10.1016/S0031-9422(99)00006-0|10.1021/NP50044A032|10.1021/NP50056A018|10.1021/NP970253E|10.1021/np50056a018|10.1021/np970253e|10.1055/S-0029-1240611|10.1201/9780203022320.CH4|10.1248/CPB.32.2947|10.1248/CPB.42.1198|10.1590/S0100-40421998000600005|10.1590/S0103-50531998000500004

>  <synonyms>  (716) 
31298-76-7|C09787|CHEBI:6042|CHEMBL463014|DTXSID801317662|Isoplumericin|Q27107001|methyl (1S,4S,8R,10S,11Z,14S)-11-ethylidene-12-oxo-7,9,13-trioxatetracyclo[6.5.1.01,10.04,14]tetradeca-2,5-diene-5-carboxylate

>  <cas>  (716) 
31298-76-7

$$$$

     RDKit          2D

 26 27  0  0  0  0  0  0  0  0999 V2000
   -6.4952   -0.9352    0.0000 C   0  0  0  0  0  0  0  0  0  0  0  0
   -5.1962   -1.6852    0.0000 O   0  0  0  0  0  0  0  0  0  0  0  0
   -3.8971   -0.9352    0.0000 C   0  0  0  0  0  0  0  0  0  0  0  0
   -3.8971    0.5648    0.0000 C   0  0  0  0  0  0  0  0  0  0  0  0
   -2.5981    1.3148    0.0000 C   0  0  0  0  0  0  0  0  0  0  0  0
   -2.5981    2.8148    0.0000 O   0  0  0  0  0  0  0  0  0  0  0  0
   -3.8971    3.5648    0.0000 C   0  0  0  0  0  0  0  0  0  0  0  0
   -1.2990    0.5648    0.0000 C   0  0  0  0  0  0  0  0  0  0  0  0
    0.0000    1.3148    0.0000 C   0  0  0  0  0  0  0  0  0  0  0  0
    0.0000    2.8148    0.0000 O   0  0  0  0  0  0  0  0  0  0  0  0
    1.2990    0.5648    0.0000 C   0  0  0  0  0  0  0  0  0  0  0  0
    2.5981    1.3148    0.0000 C   0  0  0  0  0  0  0  0  0  0  0  0
    2.5981    2.8148    0.0000 O   0  0  0  0  0  0  0  0  0  0  0  0
    3.8971    3.5648    0.0000 C   0  0  0  0  0  0  0  0  0  0  0  0
    3.8971    0.5648    0.0000 C   0  0  0  0  0  0  0  0  0  0  0  0
    3.8971   -0.9352    0.0000 C   0  0  0  0  0  0  0  0  0  0  0  0
    5.1962   -1.6852    0.0000 O   0  0  0  0  0  0  0  0  0  0  0  0
    6.4952   -0.9352    0.0000 C   0  0  0  0  0  0  0  0  0  0  0  0
    2.5981   -1.6852    0.0000 C   0  0  0  0  0  0  0  0  0  0  0  0
    2.5981   -3.1852    0.0000 C   0  0  0  0  0  0  0  0  0  0  0  0
    1.2990   -0.9352    0.0000 C   0  0  0  0  0  0  0  0  0  0  0  0
    0.5131   -1.5275    0.0000 O   0  0  0  0  0  0  0  0  0  0  0  0
   -1.2990   -0.9352    0.0000 C   0  0  0  0  0  0  0  0  0  0  0  0
   -0.5131   -1.5275    0.0000 O   0  0  0  0  0  0  0  0  0  0  0  0
   -2.5981   -1.6852    0.0000 C   0  0  0  0  0  0  0  0  0  0  0  0
   -2.5981   -3.1852    0.0000 C   0  0  0  0  0  0  0  0  0  0  0  0
  1  2  1  0
  2  3  1  0
  3  4  2  0
  4  5  1  0
  5  6  1  0
  6  7  1  0
  5  8  2  0
  8  9  1  0
  9 10  2  0
  9 11  1  0
 11 12  2  0
 12 13  1  0
 13 14  1  0
 12 15  1  0
 15 16  2  0
 16 17  1  0
 17 18  1  0
 16 19  1  0
 19 20  1  0
 19 21  2  0
 21 22  1  0
  8 23  1  0
 23 24  1  0
 23 25  2  0
 25 26  1  0
 25  3  1  0
 21 11  1  0
M  END
>  <identifier>  (717) 
CNP0308766.0

>  <canonical_smiles>  (717) 
COC1=CC(OC)=C(C(=O)C2=C(OC)C=C(OC)C(C)=C2O)C(O)=C1C

>  <standard_inchi>  (717) 
InChI=1S/C19H22O7/c1-9-11(23-3)7-13(25-5)15(17(9)20)19(22)16-14(26-6)8-12(24-4)10(2)18(16)21/h7-8,20-21H,1-6H3

>  <standard_inchi_key>  (717) 
FNFOIDHLNJBEGD-UHFFFAOYSA-N

>  <name>  (717) 
2,2'-dihydroxy-4,4',6,6'-tetramethoxy-3,3'-dimethylbenzophenone

>  <iupac_name>  (717) 
bis(2-hydroxy-4,6-dimethoxy-3-methyl-phenyl)methanone

>  <annotation_level>  (717) 
5

>  <total_atom_count>  (717) 
48

>  <heavy_atom_count>  (717) 
26

>  <molecular_weight>  (717) 
362.38

>  <exact_molecular_weight>  (717) 
362.13655

>  <molecular_formula>  (717) 
C19H22O7

>  <alogp>  (717) 
2.98

>  <topological_polar_surface_area>  (717) 
94.45

>  <rotatable_bond_count>  (717) 
6

>  <hydrogen_bond_acceptors>  (717) 
7

>  <hydrogen_bond_donors>  (717) 
2

>  <hydrogen_bond_acceptors_lipinski>  (717) 
7

>  <hydrogen_bond_donors_lipinski>  (717) 
2

>  <lipinski_rule_of_five_violations>  (717) 
0

>  <aromatic_rings_count>  (717) 
2

>  <qed_drug_likeliness>  (717) 
0.76

>  <formal_charge>  (717) 
0

>  <fractioncsp3>  (717) 
0.32

>  <number_of_minimal_rings>  (717) 
2

>  <van_der_walls_volume>  (717) 
nan

>  <contains_sugar>  (717) 
False

>  <contains_ring_sugars>  (717) 
False

>  <contains_linear_sugars>  (717) 
False

>  <murcko_framework>  (717) 
c1ccc(cc1)Cc2ccccc2

>  <np_likeness>  (717) 
0.57

>  <chemical_class>  (717) 
Benzene and substituted derivatives

>  <chemical_sub_class>  (717) 
Benzophenones

>  <chemical_super_class>  (717) 
Benzenoids

>  <direct_parent_classification>  (717) 
Benzophenones

>  <np_classifier_pathway>  (717) 
Polyketides

>  <np_classifier_superclass>  (717) 
Phloroglucinols

>  <np_classifier_class>  (717) 
Acyl phloroglucinols

>  <np_classifier_is_glycoside>  (717) 
False

>  <organisms>  (717) 
Qualea labouriauana

>  <collections>  (717) 
Latin America dataset|NuBBEDB|Super Natural II|UNPD (Universal Natural Products Database)|WikiData Natural Products|ZINC NP

>  <dois>  (717) 
10.1016/0031-9422(81)85112-6

>  <synonyms>  (717) 
22'-Dihydroxy-44'66'-tetramethoxy-33'-dimethylbenzophenone

>  <cas>  (717) 
nan

$$$$

     RDKit          2D

 26 30  0  0  0  0  0  0  0  0999 V2000
    3.9081   -2.9155    0.0000 C   0  0  0  0  0  0  0  0  0  0  0  0
    2.7854   -1.9207    0.0000 C   0  0  0  0  0  0  0  0  0  0  0  0
    3.0855   -0.4510    0.0000 C   0  0  0  0  0  0  0  0  0  0  0  0
    4.5084    0.0239    0.0000 C   0  0  0  0  0  0  0  0  0  0  0  0
    4.8085    1.4935    0.0000 C   0  0  0  0  0  0  0  0  0  0  0  0
    3.6858    2.4883    0.0000 C   0  0  0  0  0  0  0  0  0  0  0  0
    2.2630    2.0134    0.0000 N   0  0  0  0  0  0  0  0  0  0  0  0
    0.9580    2.7530    0.0000 C   0  0  0  0  0  0  0  0  0  0  0  0
   -0.1487    1.7404    0.0000 C   0  0  0  0  0  0  0  0  0  0  0  0
    0.4724    0.3750    0.0000 C   0  0  0  0  0  0  0  0  0  0  0  0
   -0.8252    1.1276    0.0000 C   0  0  0  0  0  0  0  0  0  0  0  0
   -1.1341    2.5954    0.0000 C   0  0  0  0  0  0  0  0  0  0  0  0
   -2.5598    3.0618    0.0000 C   0  0  0  0  0  0  0  0  0  0  0  0
   -3.6765    2.0603    0.0000 C   0  0  0  0  0  0  0  0  0  0  0  0
   -3.3676    0.5925    0.0000 C   0  0  0  0  0  0  0  0  0  0  0  0
   -4.4843   -0.4090    0.0000 O   0  0  0  0  0  0  0  0  0  0  0  0
   -5.9099    0.0573    0.0000 C   0  0  0  0  0  0  0  0  0  0  0  0
   -1.9419    0.1261    0.0000 C   0  0  0  0  0  0  0  0  0  0  0  0
   -1.3345   -1.2454    0.0000 N   0  0  0  0  0  0  0  0  0  0  0  0
   -2.0871   -2.5430    0.0000 C   0  0  0  0  0  0  0  0  0  0  0  0
   -1.3397   -3.8435    0.0000 C   0  0  0  0  0  0  0  0  0  0  0  0
   -3.5871   -2.5400    0.0000 O   0  0  0  0  0  0  0  0  0  0  0  0
    0.1562   -1.0982    0.0000 C   0  0  0  0  0  0  0  0  0  0  0  0
    1.1687   -2.2048    0.0000 C   0  0  0  0  0  0  0  0  0  0  0  0
    2.6334   -1.8813    0.0000 C   0  0  0  0  0  0  0  0  0  0  0  0
    1.9628    0.5437    0.0000 C   0  0  0  0  0  0  0  0  0  0  0  0
  1  2  1  0
  3  2  1  6
  3  4  1  0
  4  5  1  0
  5  6  1  0
  6  7  1  0
  7  8  1  0
  8  9  1  0
 10  9  1  1
 10 11  1  0
 11 12  2  0
 12 13  1  0
 13 14  2  0
 14 15  1  0
 15 16  1  0
 16 17  1  0
 15 18  2  0
 18 19  1  0
 19 20  1  0
 20 21  1  0
 20 22  2  0
 19 23  1  0
 23 24  1  6
 24 25  1  0
 10 26  1  0
 25  3  1  0
 26  3  1  0
 26  7  1  1
 23 10  1  0
 18 11  1  0
M  END
>  <identifier>  (718) 
CNP0112514.2

>  <canonical_smiles>  (718) 
CC[C@]12CCCN3CC[C@@]4(C5=CC=CC(OC)=C5N(C(C)=O)[C@H]4CC1)[C@@H]32

>  <standard_inchi>  (718) 
InChI=1S/C22H30N2O2/c1-4-21-10-6-13-23-14-12-22(20(21)23)16-7-5-8-17(26-3)19(16)24(15(2)25)18(22)9-11-21/h5,7-8,18,20H,4,6,9-14H2,1-3H3/t18-,20-,21-,22-/m0/s1

>  <standard_inchi_key>  (718) 
ARQOGCYMPUOVHK-QESAQDPVSA-N

>  <name>  (718) 
nan

>  <iupac_name>  (718) 
1-[(1~{S},9~{S},12~{S},19~{S})-12-ethyl-6-methoxy-8,16-diazapentacyclo[10.6.1.0^{1,9}.0^{2,7}.0^{16,19}]nonadeca-2,4,6-trien-8-yl]ethanone

>  <annotation_level>  (718) 
4

>  <total_atom_count>  (718) 
56

>  <heavy_atom_count>  (718) 
26

>  <molecular_weight>  (718) 
354.49

>  <exact_molecular_weight>  (718) 
354.23073

>  <molecular_formula>  (718) 
C22H30N2O2

>  <alogp>  (718) 
3.73

>  <topological_polar_surface_area>  (718) 
32.78

>  <rotatable_bond_count>  (718) 
2

>  <hydrogen_bond_acceptors>  (718) 
3

>  <hydrogen_bond_donors>  (718) 
0

>  <hydrogen_bond_acceptors_lipinski>  (718) 
3

>  <hydrogen_bond_donors_lipinski>  (718) 
0

>  <lipinski_rule_of_five_violations>  (718) 
0

>  <aromatic_rings_count>  (718) 
1

>  <qed_drug_likeliness>  (718) 
0.81

>  <formal_charge>  (718) 
0

>  <fractioncsp3>  (718) 
0.68

>  <number_of_minimal_rings>  (718) 
5

>  <van_der_walls_volume>  (718) 
nan

>  <contains_sugar>  (718) 
False

>  <contains_ring_sugars>  (718) 
False

>  <contains_linear_sugars>  (718) 
False

>  <murcko_framework>  (718) 
c1ccc2c(c1)NC3CCC4CCCN5CCC23C54

>  <np_likeness>  (718) 
1.71

>  <chemical_class>  (718) 
Aspidospermatan-type alkaloids

>  <chemical_sub_class>  (718) 
Aspidospermatan-type alkaloids

>  <chemical_super_class>  (718) 
Alkaloids and derivatives

>  <direct_parent_classification>  (718) 
Aspidospermatan-type alkaloids

>  <np_classifier_pathway>  (718) 
Alkaloids

>  <np_classifier_superclass>  (718) 
Tryptophan alkaloids

>  <np_classifier_class>  (718) 
Aspidosperma type

>  <np_classifier_is_glycoside>  (718) 
False

>  <organisms>  (718) 
Aspidosperma pyrifolium

>  <collections>  (718) 
Latin America dataset|NuBBEDB|Super Natural II|WikiData Natural Products

>  <dois>  (718) 
10.1016/S0031-9422(00)84061-3

>  <synonyms>  (718) 
(+)-Aspidospermine

>  <cas>  (718) 
nan

$$$$

     RDKit          2D

 21 22  0  0  0  0  0  0  0  0999 V2000
   -0.5307   -2.0402    0.0000 O   0  0  0  0  0  0  0  0  0  0  0  0
   -0.1958   -0.5780    0.0000 C   0  0  0  0  0  0  0  0  0  0  0  0
    1.2378   -0.1369    0.0000 C   0  0  0  0  0  0  0  0  0  0  0  0
    2.3367   -1.1580    0.0000 C   0  0  0  0  0  0  0  0  0  0  0  0
    3.7704   -0.7170    0.0000 C   0  0  0  0  0  0  0  0  0  0  0  0
    4.8692   -1.7380    0.0000 C   0  0  0  0  0  0  0  0  0  0  0  0
    6.3029   -1.2970    0.0000 C   0  0  0  0  0  0  0  0  0  0  0  0
    6.6377    0.1652    0.0000 C   0  0  0  0  0  0  0  0  0  0  0  0
    8.0714    0.6063    0.0000 O   0  0  0  0  0  0  0  0  0  0  0  0
    5.5389    1.1863    0.0000 C   0  0  0  0  0  0  0  0  0  0  0  0
    5.8738    2.6484    0.0000 O   0  0  0  0  0  0  0  0  0  0  0  0
    4.1052    0.7452    0.0000 C   0  0  0  0  0  0  0  0  0  0  0  0
   -1.2947    0.4431    0.0000 O   0  0  0  0  0  0  0  0  0  0  0  0
   -2.7283    0.0020    0.0000 C   0  0  0  0  0  0  0  0  0  0  0  0
   -3.8272    1.0231    0.0000 C   0  0  0  0  0  0  0  0  0  0  0  0
   -5.2609    0.5820    0.0000 C   0  0  0  0  0  0  0  0  0  0  0  0
   -6.3597    1.6031    0.0000 C   0  0  0  0  0  0  0  0  0  0  0  0
   -7.7934    1.1620    0.0000 C   0  0  0  0  0  0  0  0  0  0  0  0
   -8.1282   -0.3001    0.0000 C   0  0  0  0  0  0  0  0  0  0  0  0
   -7.0294   -1.3212    0.0000 C   0  0  0  0  0  0  0  0  0  0  0  0
   -5.5957   -0.8801    0.0000 C   0  0  0  0  0  0  0  0  0  0  0  0
  1  2  2  0
  2  3  1  0
  3  4  2  0
  4  5  1  0
  5  6  2  0
  6  7  1  0
  7  8  2  0
  8  9  1  0
  8 10  1  0
 10 11  1  0
 10 12  2  0
  2 13  1  0
 13 14  1  0
 14 15  1  0
 15 16  1  0
 16 17  2  0
 17 18  1  0
 18 19  2  0
 19 20  1  0
 20 21  2  0
 12  5  1  0
 21 16  1  0
M  END
>  <identifier>  (719) 
CNP0143842.1

>  <canonical_smiles>  (719) 
O=C(/C=C/C1=CC=C(O)C(O)=C1)OCCC1=CC=CC=C1

>  <standard_inchi>  (719) 
InChI=1S/C17H16O4/c18-15-8-6-14(12-16(15)19)7-9-17(20)21-11-10-13-4-2-1-3-5-13/h1-9,12,18-19H,10-11H2/b9-7+

>  <standard_inchi_key>  (719) 
SWUARLUWKZWEBQ-VQHVLOKHSA-N

>  <name>  (719) 
nan

>  <iupac_name>  (719) 
nan

>  <annotation_level>  (719) 
0

>  <total_atom_count>  (719) 
37

>  <heavy_atom_count>  (719) 
21

>  <molecular_weight>  (719) 
284.31

>  <exact_molecular_weight>  (719) 
284.10486

>  <molecular_formula>  (719) 
C17H16O4

>  <alogp>  (719) 
2.90

>  <topological_polar_surface_area>  (719) 
66.76

>  <rotatable_bond_count>  (719) 
5

>  <hydrogen_bond_acceptors>  (719) 
4

>  <hydrogen_bond_donors>  (719) 
2

>  <hydrogen_bond_acceptors_lipinski>  (719) 
4

>  <hydrogen_bond_donors_lipinski>  (719) 
2

>  <lipinski_rule_of_five_violations>  (719) 
0

>  <aromatic_rings_count>  (719) 
2

>  <qed_drug_likeliness>  (719) 
0.50

>  <formal_charge>  (719) 
0

>  <fractioncsp3>  (719) 
0.12

>  <number_of_minimal_rings>  (719) 
2

>  <van_der_walls_volume>  (719) 
261.38

>  <contains_sugar>  (719) 
False

>  <contains_ring_sugars>  (719) 
False

>  <contains_linear_sugars>  (719) 
False

>  <murcko_framework>  (719) 
O(CC=Cc1ccccc1)CCc2ccccc2

>  <np_likeness>  (719) 
0.62

>  <chemical_class>  (719) 
nan

>  <chemical_sub_class>  (719) 
nan

>  <chemical_super_class>  (719) 
nan

>  <direct_parent_classification>  (719) 
nan

>  <np_classifier_pathway>  (719) 
Shikimates and Phenylpropanoids

>  <np_classifier_superclass>  (719) 
Phenylethanoids (C6-C2)

>  <np_classifier_class>  (719) 
Cinnamic acids and derivatives

>  <np_classifier_is_glycoside>  (719) 
False

>  <organisms>  (719) 
Acrocarpia paniculata|Alibertia macrophylla|Anodendron affine|Apis|Apis A. melliphera|Apis mellifera|Apis mellifera ligustica|Apis species|Baccharis sarothroides|Cedrela salvadorensis|Cinnamomum aromaticum|Clathria basilana|Cordiera macrophylla|Euonymus alatus|Garcinia cambogia|Hertia cheirifolia|Hoya kerrii|Licaria chrysophylla|Ormosia hosiei|Ornithoglossum viride|Pertusaria truncata|Petasites laevigatus|Pocillopora eydouxi|Polypodium decumanum|Populus deltoides|Populus spp.|Populus szechuanica|Populus violascens|Propolis|Rhododendron dauricum|Rubia tetragona|Schizanthus tricolor|Sphaeranthus confertifolius|chinese propolis|korean propolis|propolis|taiwanese propolis

>  <collections>  (719) 
ANPDB|CMAUP (cCollective molecular activities of useful plants)|ChEBI NPs|ChemSpider NPs|FooDB|GNPS (Global Natural Products Social Molecular Networking)|KNApSaCK|Latin America dataset|NANPDB (Natural Products from Northern African Sources)|NPASS|NPEdia|Nat-UV DB|NuBBEDB|PubChem NPs|Super Natural II|TCMDB-Taiwan (Traditional Chinese Medicine database)|WikiData Natural Products|ZINC NP

>  <dois>  (719) 
10.1016/0031-9422(91)85077-D|10.1016/j.bmcl.2014.05.065|10.1021/JF400779W|10.1021/NP50081A003|10.1021/acs.jnatprod.6b00730|10.1021/acs.jnatprod.7b00433|10.1021/jf400779w|10.1021/np010486c|10.1021/np0203180|10.1021/np50081a003|10.1096/FJ.04-2126COM|10.1515/ZNC-1989-9-1003|10.1515/ZNC-1990-0604|10.1515/ZNC-1992-9-1022

>  <synonyms>  (719) 
nan

>  <cas>  (719) 
115610-29-2

$$$$

     RDKit          2D

 28 31  0  0  0  0  0  0  0  0999 V2000
   -7.1175    3.8231    0.0000 C   0  0  0  0  0  0  0  0  0  0  0  0
   -6.8224    2.3524    0.0000 C   0  0  0  0  0  0  0  0  0  0  0  0
   -7.9484    1.3615    0.0000 C   0  0  0  0  0  0  0  0  0  0  0  0
   -5.4012    1.8727    0.0000 C   0  0  0  0  0  0  0  0  0  0  0  0
   -5.1060    0.4020    0.0000 C   0  0  0  0  0  0  0  0  0  0  0  0
   -3.6848   -0.0778    0.0000 C   0  0  0  0  0  0  0  0  0  0  0  0
   -3.3897   -1.5484    0.0000 C   0  0  0  0  0  0  0  0  0  0  0  0
   -4.5158   -2.5394    0.0000 C   0  0  0  0  0  0  0  0  0  0  0  0
   -1.9685   -2.0282    0.0000 C   0  0  0  0  0  0  0  0  0  0  0  0
   -1.5212   -3.4600    0.0000 C   0  0  0  0  0  0  0  0  0  0  0  0
   -0.0213   -3.4770    0.0000 C   0  0  0  0  0  0  0  0  0  0  0  0
    0.4584   -2.0558    0.0000 C   0  0  0  0  0  0  0  0  0  0  0  0
    1.8356   -1.4614    0.0000 C   0  0  0  0  0  0  0  0  0  0  0  0
    3.0390   -2.3568    0.0000 C   0  0  0  0  0  0  0  0  0  0  0  0
    4.4162   -1.7624    0.0000 C   0  0  0  0  0  0  0  0  0  0  0  0
    4.5900   -0.2725    0.0000 C   0  0  0  0  0  0  0  0  0  0  0  0
    5.9671    0.3220    0.0000 C   0  0  0  0  0  0  0  0  0  0  0  0
    6.1409    1.8119    0.0000 C   0  0  0  0  0  0  0  0  0  0  0  0
    7.5181    2.4063    0.0000 O   0  0  0  0  0  0  0  0  0  0  0  0
    4.9375    2.7073    0.0000 C   0  0  0  0  0  0  0  0  0  0  0  0
    3.5603    2.1129    0.0000 C   0  0  0  0  0  0  0  0  0  0  0  0
    3.3866    0.6230    0.0000 C   0  0  0  0  0  0  0  0  0  0  0  0
    2.1832    1.5184    0.0000 C   0  0  0  0  0  0  0  0  0  0  0  0
    2.0094    0.0285    0.0000 C   0  0  0  0  0  0  0  0  0  0  0  0
    0.8060    0.9240    0.0000 C   0  0  0  0  0  0  0  0  0  0  0  0
   -0.5712    0.3295    0.0000 C   0  0  0  0  0  0  0  0  0  0  0  0
   -0.7450   -1.1604    0.0000 C   0  0  0  0  0  0  0  0  0  0  0  0
   -2.0354   -0.3956    0.0000 C   0  0  0  0  0  0  0  0  0  0  0  0
  1  2  1  0
  2  3  1  0
  2  4  1  0
  4  5  1  0
  5  6  1  0
  6  7  1  0
  7  8  1  6
  7  9  1  0
  9 10  1  6
 10 11  1  0
 12 11  1  6
 12 13  1  0
 13 14  1  1
 14 15  1  0
 15 16  2  0
 16 17  1  0
 17 18  1  0
 18 19  1  6
 18 20  1  0
 20 21  1  0
 21 22  1  0
 22 23  1  6
 22 24  1  0
 24 25  1  6
 25 26  1  0
 26 27  1  0
 27 28  1  6
 27  9  1  0
 27 12  1  0
 24 13  1  0
 22 16  1  0
M  END
>  <identifier>  (720) 
CNP0174859.1

>  <canonical_smiles>  (720) 
CC(C)CCC[C@@H](C)[C@H]1CC[C@H]2[C@@H]3CC=C4C[C@@H](O)CC[C@]4(C)[C@H]3CC[C@]12C

>  <standard_inchi>  (720) 
InChI=1S/C27H46O/c1-18(2)7-6-8-19(3)23-11-12-24-22-10-9-20-17-21(28)13-15-26(20,4)25(22)14-16-27(23,24)5/h9,18-19,21-25,28H,6-8,10-17H2,1-5H3/t19-,21+,22+,23-,24+,25+,26+,27-/m1/s1

>  <standard_inchi_key>  (720) 
HVYWMOMLDIMFJA-DPAQBDIFSA-N

>  <name>  (720) 
cholesterol

>  <iupac_name>  (720) 
(3~{S},8~{S},9~{S},10~{R},13~{R},14~{S},17~{R})-17-[(1~{R})-1,5-dimethylhexyl]-10,13-dimethyl-2,3,4,7,8,9,11,12,14,15,16,17-dodecahydro-1~{H}-cyclopenta[a]phenanthren-3-ol

>  <annotation_level>  (720) 
5

>  <total_atom_count>  (720) 
74

>  <heavy_atom_count>  (720) 
28

>  <molecular_weight>  (720) 
386.66

>  <exact_molecular_weight>  (720) 
386.35487

>  <molecular_formula>  (720) 
C27H46O

>  <alogp>  (720) 
7.39

>  <topological_polar_surface_area>  (720) 
20.23

>  <rotatable_bond_count>  (720) 
5

>  <hydrogen_bond_acceptors>  (720) 
1

>  <hydrogen_bond_donors>  (720) 
1

>  <hydrogen_bond_acceptors_lipinski>  (720) 
1

>  <hydrogen_bond_donors_lipinski>  (720) 
1

>  <lipinski_rule_of_five_violations>  (720) 
1

>  <aromatic_rings_count>  (720) 
0

>  <qed_drug_likeliness>  (720) 
0.49

>  <formal_charge>  (720) 
0

>  <fractioncsp3>  (720) 
0.93

>  <number_of_minimal_rings>  (720) 
4

>  <van_der_walls_volume>  (720) 
414.34

>  <contains_sugar>  (720) 
False

>  <contains_ring_sugars>  (720) 
False

>  <contains_linear_sugars>  (720) 
False

>  <murcko_framework>  (720) 
C1=C2CCCCC2C3CCC4CCCC4C3C1

>  <np_likeness>  (720) 
2.53

>  <chemical_class>  (720) 
Steroids and steroid derivatives

>  <chemical_sub_class>  (720) 
Cholestane steroids

>  <chemical_super_class>  (720) 
Lipids and lipid-like molecules

>  <direct_parent_classification>  (720) 
Cholesterols and derivatives

>  <np_classifier_pathway>  (720) 
Terpenoids

>  <np_classifier_superclass>  (720) 
Steroids

>  <np_classifier_class>  (720) 
Cholestane steroids

>  <np_classifier_is_glycoside>  (720) 
False

>  <organisms>  (720) 
Aaptos aaptos|Abramis brama|Abutilon theophrasti|Acacia leptostachya|Acanthaster planci|Acanthophora spicifera|Acanthus ilicifolius|Acarnus erithacus|Acaulospora laevis|Acetabularia acetabulum|Achillea millefolium|Achlya bisexualis|Aconitum nevadense|Adiantum caudatum|Aegiceras corniculatum|Aegiphila obducta|Aegiphila verticillata|Aesculus hippocastanum|Aframomum cereum|Aframomum sceptrum|Agaricus integer|Agaricus silvaticus|Agave atrovirens|Aglaophenia pluma|Ahnfeltia tobuchiensis|Ahnfeltiopsis furcellata|Aiolochroia crassa|Ajuga bracteosa|Ajuga reptans|Albizia adinocephala|Alexandrian laurel|Alitta succinea|Allium monspessulanum|Allium neapolitanum|Allium turcomanicum|Allomyces macrogynus|Allomyces spp.|Aloe barbadensis|Aloe rubroviolacea|Aloe vera|Alseodaphne corneri|Alsophila spinulosa|Alstroemeria aurea|Amaranthus blitum|Amaranthus caudatus|Amaranthus cruentus|Amaranthus hybridus|Amaranthus hypochondriacus|Amaranthus leucocarpus|Amaranthus lividus|Amaranthus retroflexus|Amaranthus tricolor|Ambrosia trifida|Amelanchier canadensis|American ginseng|Amoebidium parasiticum|Amphilectus digitatus|Amphilectus fucorum|Amphora coffeaeformis|Anabaena cylindrica|Anabaena viguieri|Anarhichas lupus|Anastatica hierochuntica|Anemarrhena asphodeloides|Angiopteris lygodiifolia|Annona coriacea|Annona impressivenia|Annona squamosa|Anoplopoma fimbria|Apis mellifera|Aplysia depilans|Aplysina fistularis|Aplysina lacunosa|Aplysinidae|Apostichopus japonicus|Arabidopsis thaliana|Arabis purpurea|Araucaria angustifolia|Arbutus menziesii|Archidendron chevalieri|Archosargus probatocephalus|Artemia salina|Artemisia abyssinica|Artemisia oranensis|Artemisia santonicum|Artemisia taurica|Aruncus dioicus|Ascophyllum nodosum|Aspergillus japonicus|Aspergillus oryzae|Aspergillus unguis|Asphodelus fistulosus|Astragalus atropubescens|Astragalus sevangensis|Aulacocephalus temmincki|Aulacomya atra|Aureoumbra lagunensis|Avena sativa|Avicennia officinalis|Axinella aruensis|Axinella cannabina|Axinella verrucosa|Azadirachta indica|Azolla nilotica|Baccharis reticularia|Baccharoides anthelmintica|Baikalospongia bacillifera|Balaena mysticetus|Barbula unguiculata|Bauhinia candicans|Belone belone|Bersama yangambiensis|Beta vulgaris|Biomphalaria tenagophila|Blastocladia ramosa|Blechnopsis orientalis|Bombax anceps|Bombax ceiba|Bombax malabaricum|Bombyx mori|Boodleopsis pusilla|Bos taurus|Bossiella orbigniana|Brachythecium buchananii|Brassica oleracea|Brassica rapa|Brevoortia tyrannus|Brosme brosme|Brotherella henonii|Bruguiera gymnorhiza|Bruguiera gymnorrhiza|Bryonia dioica|Bryopsis plumosa|Bryum rutilans|Buchenavia tetraphylla|Bufo bufo|Bugula neritina|Buxus sempervirens|Cabucala madagascariensis|Cachonina hallii|Callophyllis flabellata|Callophyllis laciniata|Callophyllis variegata|Campylopus japonicus|Campylopus richardii|Canavalia ensiformis|Canistrocarpus cervicornis|Cannabis sativa|Capra aegagrus|Capsella bursa-pastoris|Carthamus tinctorius|Cashew|Castanopsis sclerophylla|Catharanthus roseus|Caulerpa prolifera|Caulerpa racemosa|Caulerpa taxifolia|Celosia argentea|Celtis australis|Centaurea amara|Centaurea paui|Centella asiatica|Centroceras clavulatum|Cephalaria transsylvanica|Ceramium botryocarpum|Ceramium pacificum|Cerastoderma glaucum|Cereus chrysacanthus|Ceriops decandra|Chanos chanos|Chara australis|Chara buckellii|Chattonella marina|Chelonia mydas|Chlamydomonas reinhardtii|Chlorella vulgaris|Chloromorum toxicum|Chlorosplenium aeruginosum|Choisya ternata|Chondracanthus chamissoi|Chondrophycus papillosus|Chondrus canaliculatus|Chorisia insignis|Chorisia speciosa|Chromodoris obsoleta|Chromolaena arnottiana|Chrysolaena cognata|Chrysolaena platensis|Chrysolaena propinqua|Cibotium cumingii|Cichorium spinosum|Cinachyrella alloclada|Cinachyrella schulzei|Cinnamosma madagascariensis|Ciona intestinalis|Citrus karna|Citrus medica|Citrus natsudaidai|Citrus reticulata|Citrus unshiu|Citrus × deliciosa|Citrus × paradisi|Cladiella kashmani|Cladophora rupestris|Cladophora vagabunda|Clathria prolifera|Cleome amblyocarpa|Clerodendron neutens|Clerodendrum chinense|Clerodendrum fragrans|Clerodendrum indicum|Clerodendrum infortunatum|Clerodendrum scandens|Clerodendrum umbellatum|Cliona chilensis|Coccinella septempunctata|Codakia orbicularis|Codium decorticatum|Codium dichotomum|Coeloseira pacifica|Collectotrichum dematium|Common rose|Conocephalum japonicum|Conyza aegyptica|Cordia rothii|Cordylanthus kingii|Coregonus artedi|Cortinarius rubellus|Coryphaena hippurus|Costus tonkinensis|Crambe crambe|Crassostrea gigas|Crassostrea virginica|Cribricellina cribraria|Crinipellis scabella|Crotalaria podocarpa|Crotalaria trichotoma|Croton cumingii|Croton hieronymi|Crotone hieronymi|Crypthecodinium cohnii|Cryptonemia angustata|Cucumaria japonica|Cucurbita pepo|Cupressus macrocarpa|Cuscuta campestris|Cusparia trifoliata|Cussonia bancoensis|Cyclotella cryptica|Cymbidium aloifolium|Cymbopogon parkeri|Cymodocea nodosa|Cynoglossum creticum|Cyprinus carpio|Cystophora scalaris|Cystoseira barbata|Cystoseira crinita|Daldinia concentrica|Daphnia galeata|Daphnis nerii|Delisea pulchra|Delphinium dictyocarpum|Delphinium staphisagria|Dendrolimus spectabilis|Dendronephthya|Dendronephthya hemprichi|Dermonema abbottiae|Derris trifoliata|Detonula confervacea|Dicranum japonicum|Dicranum majus|Dictyopteris delicatula|Dictyopteris plagiogramma|Dictyota cervicornis|Dictyota dichotoma|Dictyota mertensii|Dictyuchus monosporus|Digitalis lanata|Digitalis lanata Ehrh.|Dioscorea bartlettii|Dioscorea convolvulacea|Dioscorea dumetorum|Dioscorea floribunda|Dioscorea hondurensis|Dioscorea nelsonii|Dioscorea polystachya|Dioscorea prazeri|Dioscorea zingiberensis|Diplopterygium glaucum|Diploschistes cretaceus|Diplotaxis harra|Dipsacomyces acuminosporus|Disynaphia halimifolia|Dolichospermum solitarium|Doodia picta|Dracaena cinnabari|Dracocephalum multicaule|Dragmacidon lunaecharta|Duttaphrynus melanostictus|Dwarf crocodile|Dynamena pumila|Dysidea avara|Dysidea fragilis|Dysoxylum lenticellatum|Echinometra lucunter|Echiochilon pauciflorum|Ectyoplasia ferox|Ellisella paraplexauroides|Ellisolandia elongata|Elsholtzia blanda|Elysia timida|Eminium spiculatum|Encope emarginata|Enteroctopus dofleini|Enteromorpha clathrata|Enteromorpha linza|Ephedra equisetina|Equisetum arvense|Equisetum giganteum|Equisetum ramosissimum|Eragrostis viscosa|Eremanthus crotonoides|Erignathus barbatus|Erimacrus isenbeckii|Erucaria microcarpa|Erylus lendenfeldi|Eryngium foetidum|Erysimum carniolicum|Esox lucius|Eucalyptus bakeri|Eucalyptus tereticornis|Eudendrium glomeratum|Eumetopias jubatus|Eunicea fusca|Eunicella cavolinii|Eunicella labiata|Euonymus japonicus|Eupatorium sternbergianum|Euphorbia erythraeae|Euphorbia grandicornis|Euphorbia lathyris|Euphorbia royleana|Euretaster insignis|Eurhynchium polystictum|Eutreptia viridis|Festuca argentina|Festuca hieronymi|Ficus pumila|Forsteronia refracta|Foxtail stonewort|Fraxinus chinensis subsp. rhynchophylla|Fridericia chica|Fritillaria pallidiflora|Fucus vesiculosus|Fumaria kraliki|Furcellaria fastigiata|Gastrothylax crumenifer|Gavia immer|Gelidium filicinum|Gigartina skottsbergii|Gleichenia japonica|Glenodinium halli|Glomus mosseae|Glomus sp.|Glycine Max|Glycine max|Glycine tabacina|Gmelina leichhardtii|Gnomonia leptostyla|Goniophlebium formosanum|Goniotrichum elegans|Gonyaulax polygramma|Gorgoniidae|Gossypium hirsutum|Gossypium sturtianum|Gracilaria edulis|Gracilaria longa|Grateloupia doryphora|Grewia mollis|Gryllotalpa orientalis|Gyalolechia fulgens|Gymnocarpium robertianum|Gymnodinium lunula|Gymnogongrus furcellatus|Gypsophila perfoliata|Halichondria bowerbanki|Haliclona chilensis|Halimeda macroloba|Hapalosiphon fontinalis|Haplopappus venetus|Haplophyllum acutifolium|Haplophyllum bucharicum|Hedera canariensis|Hedysarum multijugum|Helianthus annuus|Helichrysum nudifolium|Heliopsis helianthoides var. scabra|Heliotropium floridum|Heterotheca grandiflora|Heterotheca inuloides|Heteroxenia ghardaqensis|Hibiscus Sabdariffa|Hibiscus sabdariffa L.|Hippoglossus hippoglossus|Holotrichia diomphalia|Homo sapiens|Hordeum Vulgare|Hordeum vulgare L.cv Mammut|Hovenia acerba|Humulus lupulus|Hydnocarpus anthelminthicus|Hydropuntia edulis|Hyella caespitosa|Hylocereus undatus|Hymedesmia australis|Hymeniacidon perleve|Hymeniacidon sanguinea|Hypnea japonica|Hypnum plumaeforme|Hypopitys monotropa|Hypoxis nyasica|Hypoxylon deustum|Hyrtios gumminae|Ictalurus punctatus|Iophon|Ipheion uniflorum|Ircinia variabilis|Iridaea ciliata|Isoberlinia angolensis|Jania virgata|Juglans nigra|Juglans regia|Jungia polita|Juniperus serawschanica|Justicia trinervia|Kaempferia marginata|Kalanchoe daigremontiana|Kalanchoe marmorata|Kalanchoe petitiana|Katsuwonus pelamis|Kaunia saltensis|Kochia trichophylla|Koelreuteria paniculata|Ladeania juncea|Laminaria japonica|Lanurocerasus officinalis|Lappula intermedia|Laurencia aldingensis|Laurencia dendroidea|Laurencia elata|Laurencia obtusa|Laurencia okamurae|Laurencia thyrsifera|Lecanora conizaeoides|Leiostomus xanthurus|Lepista irina|Leptogorgia piccola|Leptogorgia ruberrima|Leptogorgia rubroflavescens|Leptogorgia viminalis|Leptogorgia violetta|Leptosphaeria typhae|Lepus timidus|Lessingianthus rubricaulis|Leucilla nuttingi|Leucobryum scabrum|Ligularia atroviolacea|Limanda limanda|Linderina pennispora|Linum usitatissimum|Lippia alba|Lobophytum laevigatum|Lolium perenne|Lophius piscatorius|Lopholatilus chamaeleonticeps|Lota lota|Lunasia quercifolia|Lycopodiella cernua|Lycopodium clavatum|Lycopodium obscurum|Lysimachia heterogenea|Lytanthus salicinus|Macaranga sampsonii|Macaranga sinensis|Machaerium scleroxylon|Macoma balthica|Macrotyloma uniflorum|Malus pumila|Mandevilla pentlandiana|Mangifera indica|Marmota marmota|Mauremys reevesii|Maytenus salicifolia|Mazzaella laminarioides|Medicago monspeliaca|Medicago sativa|Medicago scutellata|Melaleuca quinquenervia|Melanogrammus aeglefinus|Melanothamnus somalensis|Melilotus indicus|Mentzelia incisa|Merlangius merlangus|Merulius lacrymans|Meyenaster gelatinosus|Micromesistius poutassou|Micromonospora coerulea|Microstomus kitt|Mikania haenkeana|Mirabilis jalapa|Molopospermum peloponnesiacum|Molva molva|Monoblepharella sp.|Monotropa hypopitys|Monotropa uniflora|Mortierella alpina|Muricea californica|Mus musculus|Mya arenaria|Mycoplasma mycoides|Mytilus edulis|Mytilus galloprovincialis|Narcissus concolor|Nauclea officinalis|Nectria galligena|Nematochrysopsis marina|Neoesperiopsis digitata|Neofibularia nolitangere|Nephrolepis auriculata|Nephrolepis cordifolia|Nephrops norvegicus|Nicotiana benthamiana|Nicotiana rustica|Nicotiana tabacum|Nigella sativa|Nitella translucens|Nitellopsis obtusa|Nitzschia brevirostris|Nodularia harveyana|Nostoc carneum|Nostoc commune|Nothoscordum montevidense|Octopus vulgaris|Odobenus rosmarus|Oenothera biennis|Oncoba echinata|Oncorhynchus gorbuscha|Oncorhynchus keta|Oncorhynchus kisutch|Oncorhynchus mykiss|Oncorhynchus nerka|Oncorhynchus tshawytscha|Oocystis polymorpha|Ophiocordyceps sinensis|Ophioderma longicauda|Ophioderma longicaudum|Ophiodon elongatus|Ophiolepis superba|Ophiorrhiza pumila|Opuntia comonduensis|Opuntia humifusa|Opuntia humifusa humifusa|Opuntia vulgaris|Ornithopus sativus|Orytes rinojaponyes|Oryza coarctata|Oryza sativa|Otostegia fruticosa|Pachycereus tehuantepecanus|Padina gymnospora|Padina vickersiae|Paeonia emodi|Paeonia lactiflora|Paeonia rockii|Palisada perforata|Panax ginseng|Panicum miliaceum|Papilio phorcas|Parabenzoin trilobum|Paracribricellina cribraria|Paramphistomum epiclitum|Paranephelius uniflorus|Pardachirus pavoninus|Penicillium digitatum|Peprilus triacanthus|Pereskia aculeata|Perilla frutescens|Periploca forrestii|Petalostemon purpureum|Petrosia ficiformis|Peucedanum alsaticum|Peucedanum graveolens|Phallusia nigra|Phascolosoma vulgare|Phebalium ozothamnoides|Phellopterus littoralis|Phlomis regelii|Phoenix canariensis|Phoenix dactylifera|Phycomyces blakesleeanus|Phyllidiella pustulosa|Phyllophora crispa|Picramnia sellowii|Pimpinella aurea|Piper futokadsura|Pisum sativum|Pittosporum tobira|Plagiochila acanthophylla|Plakinastrella clathrata|Pleroma menoui|Pleurotus citrinopileatus|Podocarpus amarus|Pogonatum otaruense|Polanisia dodecandra|Polycephalomyces nipponicus|Polymastia pachymastia|Polyneura hilliae|Polytrichum formosum|Polyzoa opuntia|Pomatomus saltatrix|Populus fremontii|Porodaedalea pini|Porphyridium|Posidonia oceanica|Potebniamyces gallicola|Potentilla multifida|Prorocentrum balticum|Prorocentrum mexicanum|Prorocentrum micans|Prosopis cineraria|Prosopis spicigera|Protohermes grandis|Prunus laurocerasus|Prunus tomentosa|Psacalium paucicapitatum|Pseudogymnoascus pannorum|Pseudomonas chlororaphis|Psidium guajava|Psilotum nudum|Pteris longipinna|Pteroeides esperi|Ptilota pectinata|Pulvinula constellatio|Punica Granatum|Punica granatum|Pusa hispida|Pyrocystis lunula|Quercus cerris|Quercus ilex|Quercus rotundifolia|Ramalina|Rauvolfia serpentina|Reinhardtius hippoglossoides|Rennellia elliptica|Rhaponticum carthamoides|Rheum hotaoense|Rhinella arenarum|Rhizogonium dozyanum|Rhizophlyctis rosea|Rhizophora mucronata|Rhododendron aureum|Rhododendron fulgens|Rhododendron makinoi|Rhododendron molle|Rhododendron ponticum|Rissoella verruculosa|Rivularia nitida|Rothmannia macrophylla|Rubrivivax gelatinosus|Russian comfrey|Ruta pinnata|Saccharomyces cerevisiae|Saccharothrix mutabilis|Saduria entomon|Salmo salar|Salpa thompsoni|Salsola collina|Salvelinus namaycush|Salvia dorrii|Salvia fruticosa|Salvia triloba|Sambucus nigra|Sander lucioperca|Sarcodiotheca gaudichaudii|Sarcophyton subviride|Sarcotragus foetidus|Sargassum filipendula|Sargassum furcatum|Saururus cernuus|Scarlet firethorn|Schisandra chinensis|Schleichera oleosa|Schleichera trijuga|Schlumbergera bridgesii|Schlumbergera truncata|Schottera nicaeensis|Scophthalmus maximus|Scutellaria glabra|Sea lettuce|Sea peach|Sebastes alutus|Sebastes viviparus|Selaginella delicatula|Selaginella doederleinii|Selenicereus undatus|Senecio dianthus|Senna alexandrina|Serratula tinctoria|Sertularella crassicaulis|Sesamum alatum|Sesamum angustifolium|Sesamum radiatum|Sideritis syriaca|Sideritis taurica|Sinapis alba|Sinularia polydactyla|Sipunculus nudus|Smilax glabra|Smittium sp.|Solanum Tuberosum|Solanum aethiopicum|Solanum argentinum|Solanum arundo|Solanum aviculare|Solanum glaucophyllum|Solanum jasminoides|Solanum lanceolatum|Solanum laxum|Solanum lycopersicum|Solanum mammosum|Solanum melongena|Solanum nigrum|Solanum palitans|Solanum pseudocapsicum|Solanum tuberosum|Solanum virginianum|Solidago canadensis var. scabra|Sonneratia alba|Sophora angustifolia|Sophora viciifolia|Sorghum bicolor|Spatoglossum macrodontum|Spheciospongia inconstans|Spinacia oleracea|Spongionella gracilis|Squalus acanthias|Staphisagria macrosperma|Stelodoryx chlorophylla|Stenodus leucichthys|Stenotomus chrysops|Sterculia setigera|Stevia jujuyensis|Stevia polycephala|Stichaster striatus|Stichopus horrens|Streptomyces atratus|Streptomyces caelestis|Streptomyces parvisporogenes|Streptomyces plumbeus|Streptomyces roseoviolaceus|Streptomyces sclerotialus|Streptomyces violaceusniger|Strychnos fendleri|Strychnos froesii|Stylonema alsidii|Suaeda aegyptiaca|Suaeda maritima|Suberites massa|Sus scrofa|Sus scrofa domesticus|Symphoricarpos albus|Symphytum officinale|Synedra acus|Tamarix gallica|Tanacetum vulgare|Taxus baccata|Tedania anhelans|Tedania mucosa|Tephroseris integrifolia|Tethya aurantia|Tethya aurantium|Tethya deformis|Tetrapanax papyrifer|Teucrium abutiloides|Teucrium depressum|Teucrium orientale|Teucrium pilosum|Teucrium spinosum|Thalassiosira eccentrica|Thalassiosira pseudonana|Theobroma cacao|Thuidium tamariscinum|Thunnus alalunga|Thunnus albacares|Thunnus thynnus|Thymus piperella|Topsentia genitrix|Topsentia roquensis|Tragopogon orientalis|Tragopogon pratensis|Trematocarpus dichotomus|Trichilia rubescens|Trichoderma citrinum|Tricholoma muscarium|Trifoliate orange|Trifolium pannonicum|Trigonella balansae|Trigonella caerulea|Trigonella calliceras|Trigonella corniculata|Trigonella cretica|Trigonella foenum-graecum|Tripneustes esculentus|Tripterospermum japonicum|Triptilion benaventei|Triticum aestivum|Tylopilus neofelleus|Typha latifolia|Ulnaria acus|Ulva fasciata|Ulva gigantea|Ulva linza|Ulva popenguinensis|Ulva prolifera|Ulva rigida|Umbilicaria cinereorufescens|Ustilago maydis|Uvaria dependens|Vachellia farnesiana|Vanilla planifolia|Vanilla tahitensis|Veltheimia viridifolia|Veratrum grandiflorum|Vernonanthura nudiflora|Vernonia galamensis|Vernonia mollissima|Verongula gigantea|Viburnum opulus|Vicia faba|Vicia villosa|Vigna angularis|Vigna unguiculata|Vitex megapotamica|Vitis vinifera|Volkameria inermis|Water net|Woodwardia orientalis|Wrightia tinctoria|Xestospongia|Xestospongia testudinaria|Xiphias gladius|Xylopia aethiopica|Yucca gloriosa|Zanthoxylum petiolare|Zea mays|Zoanthus sociatus|beadlet anemone|common sunflower|crumb-of-bread sponge|hijiki|house mouse|maize|marsh frog|pomegranate|sesame|sweet potato|tomato

>  <collections>  (720) 
ANPDB|Australian natural products|CMAUP (cCollective molecular activities of useful plants)|ChEBI NPs|ChEMBL NPs|DrugBankNP|EMNPD|InterBioScreen Ltd|KNApSaCK|Latin America dataset|NANPDB (Natural Products from Northern African Sources)|NPASS|NuBBEDB|Phyto4Health|Super Natural II|TIPdb (database of Taiwan indigenous plants)|VietHerb|WikiData Natural Products

>  <dois>  (720) 
10.1002/(SICI)1099-1573(199902)13:1<78::AID-PTR384>3.0.CO;2-F|10.1002/(SICI)1099-1573(199906)13:4<329::AID-PTR458>3.0.CO;2-U|10.1002/ARDP.19873200503|10.1002/BSCB.19810900913|10.1002/CHIN.199517179|10.1002/JCCS.200000026|10.1002/JPS.2600710621|10.1002/JSFA.2740580210|10.1002/JSFA.2740590309|10.1002/PRAC.19953370184|10.1002/PTR.2650080603|10.1002/bms.1200030207|10.1002/bscb.19810900913|10.1006/BIOO.1993.1007|10.1007/978-3-540-71095-0_3622|10.1007/BF00269127|10.1007/BF00269298|10.1007/BF00399022|10.1007/BF00565153|10.1007/BF00569611|10.1007/BF00574332|10.1007/BF00574357|10.1007/BF00574376|10.1007/BF00575174|10.1007/BF00575732|10.1007/BF00579172|10.1007/BF00579640|10.1007/BF00598098|10.1007/BF00633411|10.1007/BF00713348|10.1007/BF00986610|10.1007/BF01196983|10.1007/BF01316801|10.1007/BF01946725|10.1007/BF01952468|10.1007/BF01963582|10.1007/BF02236284|10.1007/BF02238348|10.1007/BF02249626|10.1007/BF02534217|10.1007/BF02534547|10.1007/BF02534722|10.1007/BF02534802|10.1007/BF02535143|10.1007/BF02535183|10.1007/BF02535649|10.1007/BF02536024|10.1007/BF02536605|10.1007/BF02537347|10.1007/BF02537408|10.1007/BF02540958|10.1007/BF02541638|10.1007/BF02637687|10.1007/BF02645749|10.1007/BF02660305|10.1007/BF02679791|10.1007/S10600-006-0002-0|10.1007/S10600-010-9670-X|10.1007/S10600-010-9690-6|10.1007/S10600-011-0022-2|10.1007/S10600-011-9848-X|10.1007/S11172-010-0068-5|10.1007/S11306-016-1051-4|10.1007/S11745-997-0026-Z|10.1007/S11746-998-0009-8|10.1007/S13765-017-0340-6|10.1007/SPRINGERREFERENCE_137976|10.1016/0005-2736(73)90027-8|10.1016/0005-2736(73)90159-4|10.1016/0031-9422(73)80027-5|10.1016/0031-9422(77)84040-5|10.1016/0031-9422(82)83143-9|10.1016/0031-9422(82)83189-0|10.1016/0031-9422(83)80230-1|10.1016/0031-9422(83)83040-4|10.1016/0031-9422(84)83024-1|10.1016/0031-9422(84)83081-2|10.1016/0031-9422(84)83084-8|10.1016/0031-9422(85)80024-8|10.1016/0031-9422(85)80030-3|10.1016/0031-9422(86)88046-3|10.1016/0031-9422(88)80032-3|10.1016/0031-9422(88)80200-0|10.1016/0031-9422(88)80296-6|10.1016/0031-9422(88)80434-5|10.1016/0031-9422(88)80706-4|10.1016/0031-9422(88)83098-X|10.1016/0031-9422(88)84099-8|10.1016/0031-9422(90)85251-A|10.1016/0031-9422(91)80079-G|10.1016/0031-9422(91)83027-I|10.1016/0031-9422(91)83634-W|10.1016/0031-9422(91)83635-X|10.1016/0031-9422(91)83651-Z|10.1016/0031-9422(92)80289-Q|10.1016/0031-9422(92)80435-H|10.1016/0031-9422(92)80482-T|10.1016/0031-9422(92)83142-L|10.1016/0031-9422(92)83156-S|10.1016/0031-9422(92)83292-7|10.1016/0031-9422(92)83637-E|10.1016/0031-9422(92)83720-J|10.1016/0031-9422(92)83741-G|10.1016/0031-9422(92)90045-R|10.1016/0031-9422(93)80053-U|10.1016/0031-9422(93)85095-9|10.1016/0031-9422(93)85514-R|10.1016/0031-9422(93)85550-B|10.1016/0031-9422(94)00602-P|10.1016/0031-9422(94)00743-D|10.1016/0031-9422(94)00848-N|10.1016/0031-9422(95)00091-K|10.1016/0031-9422(95)00435-A|10.1016/0031-9422(95)00658-3|10.1016/0031-9422(95)00766-0|10.1016/0031-9422(95)00837-3|10.1016/0031-9422(95)98170-L|10.1016/0031-9422(96)00027-1|10.1016/0031-9422(96)00063-5|10.1016/0031-9422(96)00341-X|10.1016/0039-128X(80)90068-9|10.1016/0039-128X(80)90095-1|10.1016/0039-128X(81)90070-2|10.1016/0039-128X(81)90072-6|10.1016/0039-128X(82)90018-6|10.1016/0039-128X(82)90021-6|10.1016/0039-128X(82)90042-3|10.1016/0039-128X(83)90093-4|10.1016/0039-128X(86)90008-5|10.1016/0039-128X(89)90015-9|10.1016/0039-128X(89)90036-6|10.1016/0039-128X(94)90124-4|10.1016/0039-128X(95)00055-U|10.1016/0039-128X(95)00117-9|10.1016/0039-128X(95)00167-O|10.1016/0166-6851(85)90115-X|10.1016/0168-9452(91)90045-A|10.1016/0300-9629(91)90194-H|10.1016/0305-0491(83)90235-3|10.1016/0305-0491(84)90128-7|10.1016/0305-0491(85)90170-1|10.1016/0305-0491(85)90171-3|10.1016/0305-0491(85)90396-7|10.1016/0305-0491(87)90117-9|10.1016/0305-0491(87)90448-2|10.1016/0305-0491(92)90235-J|10.1016/0305-0491(92)90236-K|10.1016/0305-1978(75)90009-5|10.1016/0305-1978(84)90026-7|10.1016/0305-1978(84)90036-X|10.1016/0305-1978(84)90058-9|10.1016/0305-1978(85)90074-2|10.1016/0305-1978(88)90013-0|10.1016/0305-1978(88)90051-8|10.1016/0305-1978(89)90010-0|10.1016/0305-1978(91)90009-O|10.1016/0305-1978(93)90069-4|10.1016/0305-1978(95)00105-0|10.1016/0305-1978(96)00001-4|10.1016/0305-1978(96)00011-7|10.1016/0378-8741(79)90007-2|10.1016/0965-1748(93)90098-D|10.1016/B978-0-12-803138-4.00012-5|10.1016/J.ARABJC.2014.11.055|10.1016/J.BMCL.2011.07.092|10.1016/J.BSE.2007.02.004|10.1016/J.FOODRES.2017.03.019|10.1016/J.PHYTOCHEM.2004.06.021|10.1016/J.PHYTOCHEM.2006.02.023|10.1016/J.PHYTOCHEM.2006.04.020|10.1016/J.PHYTOCHEM.2008.05.013|10.1016/J.PHYTOL.2011.04.006|10.1016/J.TET.2014.03.056|10.1016/S0021-9673(01)81925-7|10.1016/S0031-9422(00)80074-6|10.1016/S0031-9422(00)80608-1|10.1016/S0031-9422(00)80786-4|10.1016/S0031-9422(00)80787-6|10.1016/S0031-9422(00)81167-X|10.1016/S0031-9422(00)81735-5|10.1016/S0031-9422(00)82541-8|10.1016/S0031-9422(00)83075-7|10.1016/S0031-9422(00)83106-4|10.1016/S0031-9422(00)84079-0|10.1016/S0031-9422(00)84080-7|10.1016/S0031-9422(00)84109-6|10.1016/S0031-9422(00)84127-8|10.1016/S0031-9422(00)84133-3|10.1016/S0031-9422(00)84445-3|10.1016/S0031-9422(00)84605-1|10.1016/S0031-9422(00)84774-3|10.1016/S0031-9422(00)85638-1|10.1016/S0031-9422(00)85967-1|10.1016/S0031-9422(00)88748-8|10.1016/S0031-9422(00)89105-0|10.1016/S0031-9422(00)90430-8|10.1016/S0031-9422(00)90495-3|10.1016/S0031-9422(00)90526-0|10.1016/S0031-9422(00)90814-8|10.1016/S0031-9422(00)91026-4|10.1016/S0031-9422(00)95209-9|10.1016/S0031-9422(00)97034-1|10.1016/S0031-9422(00)98222-0|10.1016/S0031-9422(01)00135-2|10.1016/S0031-9422(01)00188-1|10.1016/S0031-9422(03)00202-4|10.1016/S0031-9422(96)00588-2|10.1016/S0031-9422(96)00742-X|10.1016/S0031-9422(97)00101-5|10.1016/S0031-9422(97)00614-6|10.1016/S0031-9422(97)01126-6|10.1016/S0031-9422(98)00480-4|10.1016/S0031-9422(99)00251-4|10.1016/S0039-128X(70)80125-8|10.1016/S0040-4020(01)80793-6|10.1016/S0040-4020(01)81808-1|10.1016/S0040-4020(01)85914-7|10.1016/S0040-4020(01)90520-4|10.1016/S0040-4020(01)91445-0|10.1016/S0040-4039(00)97863-8|10.1016/S0040-4039(01)95227-X|10.1016/S0040-4039(97)00433-4|10.1016/S0305-0491(97)00269-1|10.1016/S0305-1978(00)00054-5|10.1016/S0367-326X(00)00239-2|10.1016/S0367-326X(01)00327-6|10.1016/S0378-8741(02)00172-1|10.1016/S0895-3988(08)60012-4|10.1016/S0926-6690(00)00088-1|10.1016/j.bmcl.2011.03.089|10.1016/j.bmcl.2011.07.092|10.1016/j.molbiopara.2012.08.006|10.1016/s0304-3835(01)00592-4|10.1017/S0890037X00039920|10.1021/ACS.JAFC.6B01323|10.1021/JA00027A038|10.1021/JA00228A055|10.1021/JF00048A018|10.1021/JF010701V|10.1021/JF020398D|10.1021/JF60200A008|10.1021/JF60213A026|10.1021/JO00001A013|10.1021/NP000179R|10.1021/NP50003A013|10.1021/NP50004A011|10.1021/NP50013A020|10.1021/NP50020A021|10.1021/NP50028A030|10.1021/NP50031A031|10.1021/NP50032A024|10.1021/NP50033A005|10.1021/NP50041A031|10.1021/NP50044A031|10.1021/NP50044A035|10.1021/NP50063A023|10.1021/NP50063A034|10.1021/NP50071A034|10.1021/NP50076A005|10.1021/NP50076A023|10.1021/NP50076A041|10.1021/NP50085A009|10.1021/NP50087A021|10.1021/NP50092A016|10.1021/NP50102A032|10.1021/NP50107A008|10.1021/NP900267V|10.1021/NP9804740|10.1023/a:1005355026186|10.1038/NBT.2488|10.1038/nbt.2488|10.1039/P19830000147|10.1039/P19840002277|10.1039/P19900002213|10.1051/CTV/20163101031|10.1055/S-0028-1097375|10.1055/S-0028-1097541|10.1055/S-0028-1099512|10.1055/S-2001-11496|10.1055/S-2006-959392|10.1055/S-2006-960012|10.1055/S-2006-961578|10.1055/S-2007-969208|10.1071/CH9841545|10.1071/CH9861401|10.1071/CH9890757|10.1073/PNAS.96.22.12251|10.1080/00021369.1989.10869818|10.1080/10575639808044953|10.1080/10575639908041220|10.1080/14786410903312991|10.1080/14786419.2010.518146|10.1093/GENETICS/73.2.303|10.1093/JXB/ERG184|10.1093/genetics/73.2.303|10.1098/RSPB.2003.2357|10.1098/rspb.2003.2357|10.1111/J.1399-3054.1987.TB04313.X|10.1111/TPJ.12747|10.1111/tpj.12747|10.1135/CCCC19773487|10.1248/BPB.19.573|10.1248/CPB.31.1366|10.1248/CPB.32.3003|10.1248/CPB.34.4562|10.1248/CPB.41.624|10.1248/CPB.44.1202|10.1248/CPB.45.944|10.1248/CPB.46.1408|10.1248/YAKUSHI1947.106.12_1092|10.12680/BALNEO.2011.1022|10.1271/BBB1961.43.2297|10.1271/BBB1961.53.3363|10.1271/NOGEIKAGAKU1924.59.895|10.1300/J044V05N02_05|10.1515/9783112328101-024|10.1515/BOTM.1972.15.1.46|10.1515/BOTM.1986.29.1.49|10.1515/BOTM.1991.34.3.215|10.1515/BOTM.1998.41.1-6.389|10.1515/ZNB-1986-0720|10.1515/ZNB-2009-1014|10.1515/ZNB-2011-0413|10.1515/ZNC-1983-5-628|10.1515/ZNC-1996-11-1220|10.1590/S0102-695X2011005000107|10.18535/IJETST/V2I8.18|10.21608/ZJPS.1997.169710|10.2331/SUISAN.51.1305|10.3109/13880208509070678|10.3109/13880208609083309|10.3109/13880209309082963|10.3390/MOLECULES22101761|10.3390/MOLECULES23020454|10.3390/MOLECULES25092099|10.3390/foods9060770|10.3989/GYA.1999.V50.I5.678|10.4067/S0717-97072010000300010|10.4197/SCI.16-1.4|10.5586/ASBP.1988.008|10.5650/JOS.50.259|10.5650/JOS1996.46.1499|10.5650/JOS1996.46.687|10.5650/JOS1996.47.605|10.5650/JOS1996.49.719|10.5650/jos.ess19091|10.5650/jos.ess20128

>  <synonyms>  (720) 
(+)-ent-Cholesterol|(-)-Cholesterol|(1R,3aS,3bS,7S,9aR,9bS,11aR)-9a,11a-dimethyl-1-[(2R)-6-methylheptan-2-yl]-1H,2H,3H,3aH,3bH,4H,6H,7H,8H,9H,9aH,9bH,10H,11H,11aH-cyclopenta[a]phenanthren-7-ol|(1S,2R,5S,10S,11S,14R,15R)-2,15-dimethyl-14-[(2R)-6-methylheptan-2-yl]tetracyclo[8.7.0.0;{2,7}.0;{11,15}]heptadec-7-en-5-ol|(3S,8S,9S,10R,13R,14S,17R)-10,13-dimethyl-17-[(2R)-6-methylheptan-2-yl]-2,3,4,7,8,9,11,12,14,15,16,17-dodecahydro-1H-cyclopenta[a]phenanthren-3-ol|(3S,8S,9S,10R,13R,14S,17R)-17-[(1R)-1,5-dimethylhexyl]-10,13-dimethyl-2,3,4,7,8,9,11,12,14,15,16,17-dodecahydro-1H-cyclopenta[a]phenanthren-3-ol|(3beta)-cholest-5-en-3-ol|(3beta,14beta,17alpha)-cholest-5-en-3-ol|.DELTA.5-Cholesten-3-.beta.-ol|10,13-dimethyl-17-(6-methylheptan-2-yl)-2,3,4,7,8,9,11,12,14,15,16,17-dodecahydro-1H-cyclopenta[a]phenanthren-3-ol|129111-15-5|1zhy|20-epi-cholesterol|20-iso-cholesterol|20bFH-cholest-5-en-3b-ol|22243-67-0|3beta-Hydroxy-5-cholestene|3beta-Hydroxycholest-5-ene|3h-cholesterol|3ss--Hydroxy-5-cholestene|5-Cholesten-3B-ol|5-Cholesten-3ss--ol|5-cholestene-3beta-ol|57-88-5|5:6-Cholesten-3beta-ol|5BBA213B-ECF4-44AF-8AAF-8A0120F2F886|80356-14-5|97C5T2UQ7J|AB00443913_03|AI3-03112|AKOS005267135|ALF component cholesterol|Analytical Reagent,>95.0%(HPLC)|Army Liposome Formulation component cholesterol|BDBM20192|BIDD:ER0548|BIDD:PXR0095|BP-26125|C00187|C3624|CAS-57-88-5|CCRIS 2834|CHEBI:140435|CHEBI:16113|CHEMBL112570|CHOLESTERINUM [HPUS]|CHOLESTEROL (EP MONOGRAPH)|CHOLESTEROL (IARC)|CHOLESTEROL (II)|CHOLESTEROL (MART.)|CHOLESTEROL (USP-RS)|CHOLESTEROL [HSDB]|CHOLESTEROL [IARC]|CHOLESTEROL [II]|CHOLESTEROL [JAN]|CHOLESTEROL [MART.]|CHOLESTEROL [VANDF]|CHOLESTEROL [WHO-DD]|CMC_13392|CS-5106|Cholest-5-en-3-ol|Cholest-5-en-3-ol (3beta)-|Cholest-5-en-3-ol (3beta)-, labeled with tritium|Cholest-5-en-3beta-ol|Cholesterin|Cholesterol (>99%)|Cholesterol (JP17\/NF)|Cholesterol (TN)|Cholesterol 10 microg\/mL in Acetonitrile|Cholesterol [BAN:JAN:NF]|Cholesterol base H|Cholesterol, 94%|Cholesterol, 99.0%|Cholesterol, >=95% (GC), powder, Ash, free|Cholesterol, European Pharmacopoeia (EP) Reference Standard|Cholesterol, NIST(R) SRM(R) 911c|Cholesterol, Pharmaceutical Secondary Standard; Certified Reference Material|Cholesterol, Sigma Grade, >=99%|Cholesterol, United States Pharmacopeia (USP) Reference Standard|Cholesterol, Vetec(TM) reagent grade, >=92.5%|Cholesterol, from lanolin, >=95.0% (GC)|Cholesterol, powder, BioReagent, suitable for cell culture, >=99%|Cholesterol, tested according to Ph.Eur.|Cholesterol,(S)|Cholesterol-t|Cholesterol1551|Cholesteryl alcohol|Cholestrol|Cordulan|D00040|DB04540|DTXCID402401|DTXSID3022401|Dastar|Delta5-Cholesten-3beta-ol|Dusoline|Dusoran|Dythol|EC 200-353-2|EINECS 200-353-2|EN300-323186|Epitope ID:150761|F70214|Fancol CH|GS-6857|GTPL2718|HSDB 7106|HY-N0322|Hydrocerin|Kathro|LMST01010001|Lanol|Lidinite|Liquid crystal CN\/9|MFCD00003646|NCGC00159351-02|NS00005787|NSC 8798|NSC-8798|Nimco cholesterol base H|Nimco cholesterol base No. 712|Phospholipon & Cholesterol|Provitamin D|Provitamin-d|Q43656|SMP1_000069|Soya phospholipon & Cholesterol (2:1 molar ratio)|Super hartolan|Tegolan|Tegolan (VAN)|Tox21_111595|UNII-97C5T2UQ7J|W-105431|WLN: L E5 B666 LUTJ A1 E1 FY1&3Y1&1 OQ|Z2033589790|cholesterol|delta(sup 5)-Cholesten-3-beta-ol|epicholesterin|s4154

>  <cas>  (720) 
57-88-5|129111-15-5|80356-14-5|22243-67-0

$$$$

     RDKit          2D

 17 19  0  0  0  0  0  0  0  0999 V2000
   -0.6385   -2.7504    0.0000 O   0  0  0  0  0  0  0  0  0  0  0  0
   -0.2993   -1.2892    0.0000 C   0  0  0  0  0  0  0  0  0  0  0  0
    1.1357   -0.8524    0.0000 C   0  0  0  0  0  0  0  0  0  0  0  0
    2.2315   -1.8768    0.0000 C   0  0  0  0  0  0  0  0  0  0  0  0
    3.6665   -1.4400    0.0000 C   0  0  0  0  0  0  0  0  0  0  0  0
    4.0057    0.0212    0.0000 C   0  0  0  0  0  0  0  0  0  0  0  0
    2.9099    1.0455    0.0000 C   0  0  0  0  0  0  0  0  0  0  0  0
    3.2491    2.5067    0.0000 O   0  0  0  0  0  0  0  0  0  0  0  0
    1.4749    0.6087    0.0000 C   0  0  0  0  0  0  0  0  0  0  0  0
    0.3791    1.6330    0.0000 O   0  0  0  0  0  0  0  0  0  0  0  0
   -1.0559    1.1962    0.0000 C   0  0  0  0  0  0  0  0  0  0  0  0
   -2.1517    2.2206    0.0000 C   0  0  0  0  0  0  0  0  0  0  0  0
   -3.5867    1.7837    0.0000 C   0  0  0  0  0  0  0  0  0  0  0  0
   -3.9259    0.3226    0.0000 C   0  0  0  0  0  0  0  0  0  0  0  0
   -2.8301   -0.7017    0.0000 C   0  0  0  0  0  0  0  0  0  0  0  0
   -3.1693   -2.1629    0.0000 O   0  0  0  0  0  0  0  0  0  0  0  0
   -1.3951   -0.2649    0.0000 C   0  0  0  0  0  0  0  0  0  0  0  0
  1  2  2  0
  2  3  1  0
  3  4  2  0
  4  5  1  0
  5  6  2  0
  6  7  1  0
  7  8  1  0
  7  9  2  0
  9 10  1  0
 10 11  1  0
 11 12  2  0
 12 13  1  0
 13 14  2  0
 14 15  1  0
 15 16  1  0
 15 17  2  0
 17  2  1  0
  9  3  1  0
 17 11  1  0
M  END
>  <identifier>  (721) 
CNP0281572.0

>  <canonical_smiles>  (721) 
O=C1C2=CC=CC(O)=C2OC2=CC=CC(O)=C12

>  <standard_inchi>  (721) 
InChI=1S/C13H8O4/c14-8-4-2-6-10-11(8)12(16)7-3-1-5-9(15)13(7)17-10/h1-6,14-15H

>  <standard_inchi_key>  (721) 
APIPFXZYOMIJQG-UHFFFAOYSA-N

>  <name>  (721) 
1,5-Dihydroxyxanthone

>  <iupac_name>  (721) 
1,5-dihydroxyxanthen-9-one

>  <annotation_level>  (721) 
5

>  <total_atom_count>  (721) 
25

>  <heavy_atom_count>  (721) 
17

>  <molecular_weight>  (721) 
228.2

>  <exact_molecular_weight>  (721) 
228.04226

>  <molecular_formula>  (721) 
C13H8O4

>  <alogp>  (721) 
2.36

>  <topological_polar_surface_area>  (721) 
70.67

>  <rotatable_bond_count>  (721) 
0

>  <hydrogen_bond_acceptors>  (721) 
4

>  <hydrogen_bond_donors>  (721) 
2

>  <hydrogen_bond_acceptors_lipinski>  (721) 
4

>  <hydrogen_bond_donors_lipinski>  (721) 
2

>  <lipinski_rule_of_five_violations>  (721) 
0

>  <aromatic_rings_count>  (721) 
3

>  <qed_drug_likeliness>  (721) 
0.58

>  <formal_charge>  (721) 
0

>  <fractioncsp3>  (721) 
0.00

>  <number_of_minimal_rings>  (721) 
3

>  <van_der_walls_volume>  (721) 
186.22

>  <contains_sugar>  (721) 
False

>  <contains_ring_sugars>  (721) 
False

>  <contains_linear_sugars>  (721) 
False

>  <murcko_framework>  (721) 
O1c2ccccc2Cc3ccccc13

>  <np_likeness>  (721) 
1.27

>  <chemical_class>  (721) 
Benzopyrans

>  <chemical_sub_class>  (721) 
1-benzopyrans

>  <chemical_super_class>  (721) 
Organoheterocyclic compounds

>  <direct_parent_classification>  (721) 
Xanthones

>  <np_classifier_pathway>  (721) 
Shikimates and Phenylpropanoids

>  <np_classifier_superclass>  (721) 
Xanthones

>  <np_classifier_class>  (721) 
Plant xanthones

>  <np_classifier_is_glycoside>  (721) 
False

>  <organisms>  (721) 
Agasthiyamalaia pauciflora|Alexandrian laurel|Allanblackia floribunda|Allanblackia gabonensis|Aplysilla spinifera|Artemisia anomala|Artocarpus integra|Calophyllum Inophyllum|Calophyllum apetalum|Calophyllum bracteatum|Calophyllum caledonicum|Calophyllum inophyllum|Calophyllum pulcherrimum|Calophyllum spp|Calophyllum spp.|Calophyllum thwaitesii|Calophyllum tomentosum|Calophyllum trapezifolium|Calophyllum walkeri|Crocus sieberi|Eugenia myrcianthes|Eupatorium sachalinense|Garcinia afzelii|Garcinia brasiliensis|Garcinia gardneriana|Garcinia linii|Garcinia polyantha Oliv.|Garcinia smeathmanii|Garcinia smeathmannii|Garcinia spp|Garcinia spp.|Garcinia subelliptica|Gynochthodes officinalis|Gyrophora hyperborea|Hypericum brasiliense|Iotrochota baculifera|Jacobaea persoonii|Leptochloa digitata|Lobophytum microlobulatum|Mammea africana|Mammea africana G.Don.|Mammea americana|Mammea americana L.|Mesua Ferrea|Mesua ferrea|Mesua ferrea L.|Mesua salicina|Mesua thwaitesii|Montanoa karwinskii|Nocardia alba|Ochrocapus odoratus|Ochrocarpos odoratus|Pentadesma butyracea|Pinus heldreichii|Piper umbellatum|Ramalina paludosa|Rheedia gardneriana|Rheedia gardneriana Planch.et Triana.|Salix matsudana|Sceletium subvelutinum|Senecio brasiliensis|Strychnos decussata|Suberites domuncula|Tovomita krukovii|Verbena bonariensis

>  <collections>  (721) 
AfroCancer|AfroDB|Australian natural products|CMAUP (cCollective molecular activities of useful plants)|ConMedNP|FooDB|KNApSaCK|Latin America dataset|NPASS|NuBBEDB|Super Natural II|TCMDB-Taiwan (Traditional Chinese Medicine database)|TCMID (Traditional Chinese Medicine Integrated Database)|UNPD (Universal Natural Products Database)|VietHerb|WikiData Natural Products

>  <dois>  (721) 
10.1007/S10600-008-9141-9|10.1016/0031-9422(81)80026-X|10.1016/J.PHYTOCHEM.2004.08.024|10.1016/J.PHYTOCHEM.2005.03.010|10.1016/J.PHYTOCHEM.2005.06.016|10.1016/J.PHYTOCHEM.2007.10.002|10.1016/J.PHYTOL.2010.02.006|10.1016/S0031-9422(00)83507-4|10.1016/S0031-9422(00)85714-3|10.1016/S0031-9422(00)89727-7|10.1016/S0031-9422(00)94795-2|10.1016/S0031-9422(00)97103-6|10.1016/S0031-9422(00)97372-2|10.1016/S0031-9422(02)00036-5|10.1016/S0031-9422(96)00856-4|10.1016/S0031-9422(97)00507-4|10.1016/S0040-4020(01)82592-8|10.1016/S0040-4020(01)83306-8|10.1016/S0040-4020(01)97929-3|10.1016/j.phytochem.2004.08.024|10.1021/NP000215M|10.1039/J29660000049|10.1039/J39660000178|10.1039/J39690002201|10.1039/J39710001332|10.1039/P19720001896|10.1039/P19720001935|10.1039/P19720002241|10.1039/P19720002255|10.1039/P19740002510|10.1039/P19750002215|10.1039/P19750002447|10.1055/S-2002-20049|10.1055/S-2004-835851|10.1248/CPB.54.448|10.3987/COM-96-7652

>  <synonyms>  (721) 
1,5-Bis(oxidanyl)xanthen-9-one|1,5-DIHYDROXY-9H-XANTHEN-9-ONE|1,5-Dihydroxy-9H-xanthen-9-one, 9CI|1,5-Dihydroxyxanthone|1,5-dihydroxyxanthen-9-one|14686-65-8|2945MQ2UXP|9H-Xanthen-9-one, 1,5-dihydroxy-|AKOS022656419|BDBM50155419|CHEMBL185686|CS-0146749|DTXSID80420489|HY-N8557|SCHEMBL15527312

>  <cas>  (721) 
14686-65-8

$$$$

     RDKit          2D

 31 35  0  0  0  0  0  0  0  0999 V2000
   -7.7597    1.3405    0.0000 C   0  0  0  0  0  0  0  0  0  0  0  0
   -6.2785    1.5771    0.0000 C   0  0  0  0  0  0  0  0  0  0  0  0
   -5.3330    0.4126    0.0000 C   0  0  0  0  0  0  0  0  0  0  0  0
   -5.7194   -1.0368    0.0000 C   0  0  0  0  0  0  0  0  0  0  0  0
   -7.1190   -1.5762    0.0000 O   0  0  0  0  0  0  0  0  0  0  0  0
   -4.4603   -1.8521    0.0000 C   0  0  0  0  0  0  0  0  0  0  0  0
   -3.2958   -0.9066    0.0000 C   0  0  0  0  0  0  0  0  0  0  0  0
   -1.8140   -1.1393    0.0000 C   0  0  0  0  0  0  0  0  0  0  0  0
   -1.2746   -2.5390    0.0000 C   0  0  0  0  0  0  0  0  0  0  0  0
    0.2073   -2.7717    0.0000 C   0  0  0  0  0  0  0  0  0  0  0  0
    1.1497   -1.6047    0.0000 C   0  0  0  0  0  0  0  0  0  0  0  0
    2.6484   -1.6681    0.0000 C   0  0  0  0  0  0  0  0  0  0  0  0
    3.4526   -0.4019    0.0000 C   0  0  0  0  0  0  0  0  0  0  0  0
    4.9512   -0.4652    0.0000 O   0  0  0  0  0  0  0  0  0  0  0  0
    5.6457   -1.7948    0.0000 C   0  0  0  0  0  0  0  0  0  0  0  0
    7.1444   -1.8581    0.0000 C   0  0  0  0  0  0  0  0  0  0  0  0
    4.8415   -3.0610    0.0000 O   0  0  0  0  0  0  0  0  0  0  0  0
    2.7581    0.9277    0.0000 C   0  0  0  0  0  0  0  0  0  0  0  0
    4.2372    1.1773    0.0000 O   0  0  0  0  0  0  0  0  0  0  0  0
    4.7605    2.5830    0.0000 C   0  0  0  0  0  0  0  0  0  0  0  0
    6.2396    2.8326    0.0000 C   0  0  0  0  0  0  0  0  0  0  0  0
    3.8048    3.7391    0.0000 O   0  0  0  0  0  0  0  0  0  0  0  0
    2.0907   -0.4157    0.0000 C   0  0  0  0  0  0  0  0  0  0  0  0
    0.6068   -0.1960    0.0000 C   0  0  0  0  0  0  0  0  0  0  0  0
    0.3572    1.2831    0.0000 C   0  0  0  0  0  0  0  0  0  0  0  0
    1.6868    1.9775    0.0000 O   0  0  0  0  0  0  0  0  0  0  0  0
   -0.8715    0.0276    0.0000 C   0  0  0  0  0  0  0  0  0  0  0  0
   -1.4109    1.4273    0.0000 C   0  0  0  0  0  0  0  0  0  0  0  0
   -2.8927    1.6600    0.0000 C   0  0  0  0  0  0  0  0  0  0  0  0
   -3.8352    0.4931    0.0000 C   0  0  0  0  0  0  0  0  0  0  0  0
   -4.5179    1.8287    0.0000 C   0  0  0  0  0  0  0  0  0  0  0  0
  1  2  1  0
  3  2  1  6
  3  4  1  0
  4  5  2  0
  4  6  1  0
  7  6  1  6
  7  8  1  0
  8  9  1  1
  9 10  1  0
 11 10  1  6
 11 12  1  0
 12 13  1  0
 13 14  1  6
 14 15  1  0
 15 16  1  0
 15 17  2  0
 13 18  1  0
 18 19  1  1
 19 20  1  0
 20 21  1  0
 20 22  2  0
 18 23  1  0
 23 24  1  0
 24 25  1  6
 25 26  1  0
 24 27  1  0
 27 28  1  6
 28 29  1  0
 29 30  1  0
 30 31  1  6
 30  3  1  0
 30  7  1  0
 27  8  1  0
 24 11  1  0
 26 18  1  0
M  END
>  <identifier>  (722) 
CNP0410153.1

>  <canonical_smiles>  (722) 
CC[C@H]1C(=O)C[C@H]2[C@@H]3CC[C@H]4C[C@@H](OC(C)=O)[C@]5(OC(C)=O)C[C@]4(CO5)[C@H]3CC[C@]12C

>  <standard_inchi>  (722) 
InChI=1S/C25H36O6/c1-5-18-21(28)11-20-17-7-6-16-10-22(30-14(2)26)25(31-15(3)27)12-24(16,13-29-25)19(17)8-9-23(18,20)4/h16-20,22H,5-13H2,1-4H3/t16-,17+,18-,19-,20-,22+,23+,24+,25+/m0/s1

>  <standard_inchi_key>  (722) 
ODKKQQNHCONUGL-REYGQXQUSA-N

>  <name>  (722) 
nan

>  <iupac_name>  (722) 
[(1~{R},2~{S},5~{S},6~{R},9~{S},10~{S},13~{S},15~{R},16~{R})-16-acetoxy-6-ethyl-5-methyl-7-oxo-17-oxapentacyclo[14.2.1.0^{1,13}.0^{2,10}.0^{5,9}]nonadecan-15-yl] acetate

>  <annotation_level>  (722) 
4

>  <total_atom_count>  (722) 
67

>  <heavy_atom_count>  (722) 
31

>  <molecular_weight>  (722) 
432.56

>  <exact_molecular_weight>  (722) 
432.25119

>  <molecular_formula>  (722) 
C25H36O6

>  <alogp>  (722) 
4.05

>  <topological_polar_surface_area>  (722) 
78.90

>  <rotatable_bond_count>  (722) 
3

>  <hydrogen_bond_acceptors>  (722) 
6

>  <hydrogen_bond_donors>  (722) 
0

>  <hydrogen_bond_acceptors_lipinski>  (722) 
6

>  <hydrogen_bond_donors_lipinski>  (722) 
0

>  <lipinski_rule_of_five_violations>  (722) 
0

>  <aromatic_rings_count>  (722) 
0

>  <qed_drug_likeliness>  (722) 
0.63

>  <formal_charge>  (722) 
0

>  <fractioncsp3>  (722) 
0.88

>  <number_of_minimal_rings>  (722) 
5

>  <van_der_walls_volume>  (722) 
nan

>  <contains_sugar>  (722) 
False

>  <contains_ring_sugars>  (722) 
False

>  <contains_linear_sugars>  (722) 
False

>  <murcko_framework>  (722) 
O1CC23CC1CCC3CCC4C5CCCC5CCC42

>  <np_likeness>  (722) 
2.58

>  <chemical_class>  (722) 
Steroids and steroid derivatives

>  <chemical_sub_class>  (722) 
Steroid esters

>  <chemical_super_class>  (722) 
Lipids and lipid-like molecules

>  <direct_parent_classification>  (722) 
Steroid esters

>  <np_classifier_pathway>  (722) 
Terpenoids

>  <np_classifier_superclass>  (722) 
Steroids

>  <np_classifier_class>  (722) 
Pregnane steroids

>  <np_classifier_is_glycoside>  (722) 
True

>  <organisms>  (722) 
Trichilia claussenii

>  <collections>  (722) 
Latin America dataset|NuBBEDB|WikiData Natural Products

>  <dois>  (722) 
10.1016/S0031-9422(97)00167-2

>  <synonyms>  (722) 
2\u221a\u00e9\u00ac\u00b13\u221a\u00e9\u00ac\u2264-Diacetoxypregnan-16-one 2\u221a\u00e9\u00ac\u226419-hemiketal

>  <cas>  (722) 
nan

$$$$

     RDKit          2D

 21 25  0  0  0  0  0  0  0  0999 V2000
    6.8477   -0.2253    0.0000 O   0  0  0  0  0  0  0  0  0  0  0  0
    5.3486   -0.2774    0.0000 C   0  0  0  0  0  0  0  0  0  0  0  0
    4.6441   -1.6017    0.0000 C   0  0  0  0  0  0  0  0  0  0  0  0
    3.1450   -1.6537    0.0000 C   0  0  0  0  0  0  0  0  0  0  0  0
    2.3504   -0.3815    0.0000 C   0  0  0  0  0  0  0  0  0  0  0  0
    3.0548    0.9428    0.0000 C   0  0  0  0  0  0  0  0  0  0  0  0
    4.5539    0.9948    0.0000 C   0  0  0  0  0  0  0  0  0  0  0  0
    2.2602    2.2150    0.0000 O   0  0  0  0  0  0  0  0  0  0  0  0
    0.7611    2.1629    0.0000 C   0  0  0  0  0  0  0  0  0  0  0  0
    0.0567    0.8386    0.0000 C   0  0  0  0  0  0  0  0  0  0  0  0
   -1.3989    0.4760    0.0000 C   0  0  0  0  0  0  0  0  0  0  0  0
   -2.6423    1.3150    0.0000 C   0  0  0  0  0  0  0  0  0  0  0  0
   -3.9906    0.6577    0.0000 C   0  0  0  0  0  0  0  0  0  0  0  0
   -4.0955   -0.8386    0.0000 C   0  0  0  0  0  0  0  0  0  0  0  0
   -2.8521   -1.6777    0.0000 C   0  0  0  0  0  0  0  0  0  0  0  0
   -1.5038   -1.0203    0.0000 C   0  0  0  0  0  0  0  0  0  0  0  0
   -0.1131   -1.5825    0.0000 O   0  0  0  0  0  0  0  0  0  0  0  0
    0.8513   -0.4336    0.0000 C   0  0  0  0  0  0  0  0  0  0  0  0
   -5.5510   -1.2013    0.0000 O   0  0  0  0  0  0  0  0  0  0  0  0
   -6.3456    0.0710    0.0000 C   0  0  0  0  0  0  0  0  0  0  0  0
   -5.3812    1.2199    0.0000 O   0  0  0  0  0  0  0  0  0  0  0  0
  1  2  1  0
  2  3  2  0
  3  4  1  0
  4  5  2  0
  5  6  1  0
  6  7  2  0
  6  8  1  0
  8  9  1  0
 10  9  1  6
 10 11  1  0
 11 12  2  0
 12 13  1  0
 13 14  2  0
 14 15  1  0
 15 16  2  0
 16 17  1  0
 18 17  1  6
 14 19  1  0
 19 20  1  0
 20 21  1  0
  7  2  1  0
 18 10  1  0
 18  5  1  0
 16 11  1  0
 21 13  1  0
M  END
>  <identifier>  (723) 
CNP0366241.1

>  <canonical_smiles>  (723) 
OC1=CC=C2C(=C1)OC[C@H]1C3=CC4=C(C=C3O[C@@H]21)OCO4

>  <standard_inchi>  (723) 
InChI=1S/C16H12O5/c17-8-1-2-9-12(3-8)18-6-11-10-4-14-15(20-7-19-14)5-13(10)21-16(9)11/h1-5,11,16-17H,6-7H2/t11-,16-/m0/s1

>  <standard_inchi_key>  (723) 
HUKSJTUUSUGIDC-ZBEGNZNMSA-N

>  <name>  (723) 
(-)-Maackiain

>  <iupac_name>  (723) 
(1~{R},12~{R})-5,7,11,19-tetraoxapentacyclo[10.8.0.0^{2,10}.0^{4,8}.0^{13,18}]icosa-2,4(8),9,13,15,17-hexaen-16-ol

>  <annotation_level>  (723) 
5

>  <total_atom_count>  (723) 
33

>  <heavy_atom_count>  (723) 
21

>  <molecular_weight>  (723) 
284.27

>  <exact_molecular_weight>  (723) 
284.06847

>  <molecular_formula>  (723) 
C16H12O5

>  <alogp>  (723) 
2.73

>  <topological_polar_surface_area>  (723) 
57.15

>  <rotatable_bond_count>  (723) 
0

>  <hydrogen_bond_acceptors>  (723) 
5

>  <hydrogen_bond_donors>  (723) 
1

>  <hydrogen_bond_acceptors_lipinski>  (723) 
5

>  <hydrogen_bond_donors_lipinski>  (723) 
1

>  <lipinski_rule_of_five_violations>  (723) 
0

>  <aromatic_rings_count>  (723) 
2

>  <qed_drug_likeliness>  (723) 
0.81

>  <formal_charge>  (723) 
0

>  <fractioncsp3>  (723) 
0.25

>  <number_of_minimal_rings>  (723) 
5

>  <van_der_walls_volume>  (723) 
234.39

>  <contains_sugar>  (723) 
False

>  <contains_ring_sugars>  (723) 
False

>  <contains_linear_sugars>  (723) 
False

>  <murcko_framework>  (723) 
O1c2cc3OC4c5ccccc5OCC4c3cc2OC1

>  <np_likeness>  (723) 
2.06

>  <chemical_class>  (723) 
Isoflavonoids

>  <chemical_sub_class>  (723) 
Furanoisoflavonoids

>  <chemical_super_class>  (723) 
Phenylpropanoids and polyketides

>  <direct_parent_classification>  (723) 
Pterocarpans

>  <np_classifier_pathway>  (723) 
Shikimates and Phenylpropanoids

>  <np_classifier_superclass>  (723) 
Isoflavonoids

>  <np_classifier_class>  (723) 
Pterocarpan

>  <np_classifier_is_glycoside>  (723) 
False

>  <organisms>  (723) 
Aaptos ciliata|Abelia chinensis|Abies excelsa|Abies pinsapo var. marocana|Achlya heterosexualis|Adenocarpus cincinnatus|Alternaria macrospora|Ampelocera edentula|Andira inermis|Angelica acutiloba|Antheroporum pierrei|Aplophyllum alberti-regelii|Arnica mollis|Artemisia indica|Asimina parviflora|Astragalus trojanus|Atraphaxis spinosa|Baccharis genistifolia|Baccharis neglecta|Bagarius bagarius|Baptisia sp.|Bobgunnia madagascariensis|Botrytis cinerea|Brassica carinata|Bryonia alba|Buccinum striatissimum|Butea Monosperma|Butea monosperma|Buxus natalensis|Calicotome villosa|Camptosema rubicundum|Canavalia bonariensis|Canavalia galeata|Canavalia gladiata|Canavalia rosea|Canavalia sericea|Canthium subcordatum|Caragana acanthophylla|Caragana altaica|Caragana ambigua|Caragana arborescens|Caragana aurantiaca|Caragana boisii|Caragana brevispina|Caragana conferta|Caragana decorticans|Caragana densa|Caragana erinacea|Caragana franchetiana|Caragana frutex|Caragana fruticosa|Caragana gerardiana|Caragana grandiflora|Caragana jubata|Caragana kirghisorum|Caragana laeta|Caragana microphylla|Caragana pekinensis|Caragana pleiophylla|Caragana pumila|Caragana pygmaea|Caragana sinica|Caragana sophorifolia|Caragana spinosa|Caragana stenophylla|Caragana tangutica|Caragana tibetica|Caragana tragacanthoides|Caragana turkestanica|Caragana ussuriensis|Caragana zahlbruckneri|Carpha glomerata|Cassytha melantha|Centaurea maculosa|Chondrodendron tomentosum|Chrysosporum ovalisporum|Cicer anatolicum|Cicer arietinum|Cicer bijugum|Cicer canariense|Cicer canariensis|Cicer chorassanicum|Cicer cuneatum|Cicer echinospermum|Cicer judaicum|Cicer judicum|Cicer macracanthum|Cicer microphyllum|Cicer mogolatvicum|Cicer mogoltavicum|Cicer montbretii|Cicer nuristanicum|Cicer oxyodon|Cicer pinnatifidum|Cicer pungens|Cicer rechingeri|Cicer reticulatum|Cicer songaricum|Cicer yamashitae|Citrus bigaradia|Cladrastis platycarpa|Clerodendrum bungei|Coniochaeta saccardoi|Conus mus|Cordia leucocephala|Croton gratissimus|Cryptocarya densiflora|Cyanostegia angustifolia|Dactylorhiza viridis|Dahlstedtia pentaphylla|Dahlstedtia pinnata|Dalbergia sericea|Deguelia scandens|Dendronephthya griffini|Dermatophyllum gypsophilum|Derris Scandens|Derris canarensis|Derris cuneifolia|Derris indica|Derris scandens Benth.|Diospyros assimilis|Diplopterygium glaucum|Diplotropis purpurea|Dolabella californica|Echinosophora koreensis|Embelia parviflora|Embelia schimperi|Ephedra sinica|Epilobium hirsutum|Eria anomala|Erycibe expansa|Erysimum leptophyllum|Erythrina melanacantha|Esenbeckia leiocarpa|Eucalyptus resinifera|Euchresta formosana|Euchresta horsfieldii|Euchresta japonica|Euphorbia nematocypha|Euphrasia genargentea|Eurycoma harmandiana|Faramea salicifolia|Galactia jussiaeana|Galactia striata|Genista pichisermolliana|Glycyrrhiza pallidiflora|Graphis scripta|Gymnocalycium schickendantzii|Gymnopus peronatus|Halimeda monile|Halobacillus litoralis|Haplophyllum obtusifolium|Hapsidospora irregularis|Helichrysum tenuifolium|Hippeastrum morelianum|Hypericum styphelioides|Hypotrachyna cirrhata|Ipomoea muricata|Ixeris debilis|Lathyrus aphaca|Lathyrus cicera|Lathyrus grandiflorus|Lathyrus hirsutus|Lathyrus linifolius|Lathyrus ochrus|Lathyrus palustris|Lathyrus roseus|Lathyrus sylvestris|Lathyrus tuberosus|Latrunculia magnifica|Lemaireocereus longispinus|Leptolobium bijugum|Lithocarpus hancei|Lobophytum durum|Lonchocarpus|Lonchocarpus sericeus|Lycogala epidendrum|Lycoris radiata|Lysimachia fordiana|Lythrum salicaria|Maackia amurensis|Maackia sp.|Maackia tenuifolia|Marasmiellus troyanus|Maytenus chuchuhuasha|Merendera raddeana|Millettia extensa|Millettia puguensis|Millettia pulchra|Millettia sp.|Monsonia senegalensis|Morella rubra|Mucuna Pruriens|Mucuna poggei|Mucuna pruriens|Myxococcus stipitatus|Nanhaia speciosa|Nonomuraea turkmeniaca|Onionis viscosa ssp. breviflora|Ononis alopecuroides|Ononis baetica|Ononis biflora|Ononis hispida|Ononis minutissima|Ononis mitissima|Ononis natrix|Ononis oligophylla|Ononis pinnata|Ononis speciosa|Ononis spinosa|Ononis subspicata|Ononis vaginalis|Ononis variegata|Ononis viscosa subsp. breviflora|Onopordum acanthium|Orthosiphon spicatus|Oxytropis falcata|Pancratium sickenbergeri|Patellaria scruposa|Pericopsis laxiflora|Perna canaliculus|Phyllanthus sellowianus|Picrasma quassioides|Pinus muricata|Pinus sativa|Piper regnellii|Pisum sativum|Planchonia grandis|Plathymenia reticulata|Platyosprion platycarpum|Polybia occidentalis|Polygonum salicifolium|Pongamia pinnata var. pinnata|Pseudosophora alopecuroides|Psorothamnus arborescens|Pteridium esculentum|Pterolobium hexapetalum|Ranunculus asiaticus|Remirea maritima|Rheum palaestinum|Rhinella marina|Schizophyllum lobatum|Scombresox saurus|Shigella dysenteriae|Simarouba glauca|Sinapis alba|Siphonaria capensis|Sloanea rhodantha|Solanum lanceolatum|Sophora Flavescens|Sophora Japonica|Sophora Tomentosa|Sophora alopecuroides|Sophora chrysophylla|Sophora exigua|Sophora flavescens|Sophora flavescens var. flavescens|Sophora franchetiana|Sophora fraseri|Sophora gypsophila|Sophora japonica|Sophora jaubertii|Sophora koreensis|Sophora leachiana|Sophora microphylla|Sophora mollis|Sophora moorcroftiana|Sophora prostrata|Sophora sp.|Sophora subprostrata|Sophora substrata|Sophora tetraptera|Sophora tomentosa|Sophora tonkinensis|Sophora tonkinensis var. tonkinensis|Streptomyces matensis|Styphnolobium japonicum|Swartzia apetala|Swartzia madagascariensis|Syzygium polycephaloides|Tephrosia Purpurea|Tephrosia carrollii|Tephrosia elata|Tephrosia fulvinervis|Tephrosia purpurea|Tephrosia villosa|Tephrosia virginiana|Theonella conica|Tricholoma columbetta|Trididemnum cyanophorum|Trifolium africanum|Trifolium alpestre|Trifolium angulatum|Trifolium bullatum|Trifolium clusii|Trifolium congestum|Trifolium dalmaticum|Trifolium diffusum|Trifolium heldreichianum|Trifolium ligusticum|Trifolium medium|Trifolium miegeanum|Trifolium montanum|Trifolium oliganthum|Trifolium ornithopodioides|Trifolium pallidum|Trifolium patulum|Trifolium pauciflorum|Trifolium phleoides|Trifolium pignantii|Trifolium pratense|Trifolium pratense L.|Trifolium purpureum|Trifolium saxatile|Trifolium sp.|Trifolium spp.|Trifolium tenuifolium|Trifolium trichocephalum|Trifolium vavilovii|Trigonella spp.|Ulex jussiaei|Ulex minor|Ulex parviflorus|Vellozia nanuzae|Vernonia fagifolia|Viburnum erubescens|Virgilia oroboides|Wikstroemia viridiflora|Xanthorhiza simplicissima|Zingiber amaricans|mountain clover|zigzag clover

>  <collections>  (723) 
Australian natural products|CMAUP (cCollective molecular activities of useful plants)|ChEBI NPs|KNApSaCK|Latin America dataset|NPASS|NPEdia|NuBBEDB|PhytoLab phyproof® Reference Substances|Super Natural II|TCMDB-Taiwan (Traditional Chinese Medicine database)|TIPdb (database of Taiwan indigenous plants)|VietHerb|WikiData Natural Products

>  <dois>  (723) 
10.1002/JSSC.201400691|10.1002/PCA.2800060603|10.1002/PTR.2650040607|10.1002/PTR.889|10.1007/BF00599277|10.1007/BF01170227|10.1007/BF02249700|10.1007/BF02994750|10.1007/S10600-006-0050-5|10.1016/0031-9422(73)85046-0|10.1016/0031-9422(80)85077-1|10.1016/0031-9422(80)85079-5|10.1016/0031-9422(88)80277-2|10.1016/0031-9422(89)80308-5|10.1016/0031-9422(90)80205-U|10.1016/0031-9422(90)85211-W|10.1016/0031-9422(90)85236-9|10.1016/0031-9422(92)90075-2|10.1016/0031-9422(93)85423-O|10.1016/0031-9422(94)00720-E|10.1016/0031-9422(94)00721-5|10.1016/0031-9422(95)91511-X|10.1016/0031-9422(96)00346-9|10.1016/0305-1978(78)90010-8|10.1016/0305-1978(81)90030-2|10.1016/0305-1978(82)90035-7|10.1016/J.PHYTOCHEM.2004.03.006|10.1016/J.PHYTOCHEM.2006.03.019|10.1016/J.PHYTOCHEM.2007.06.013|10.1016/J.PHYTOL.2011.07.005|10.1016/S0031-9422(00)80349-0|10.1016/S0031-9422(00)80547-6|10.1016/S0031-9422(00)82217-7|10.1016/S0031-9422(00)89598-9|10.1016/S0031-9422(00)90868-9|10.1016/S0031-9422(00)97051-1|10.1016/S0031-9422(00)98095-6|10.1016/S0031-9422(00)98278-5|10.1016/S0031-9422(01)00268-0|10.1016/S0031-9422(82)85025-5|10.1016/S0031-9422(97)00798-X|10.1016/S0031-9422(97)00802-9|10.1016/S0031-9422(97)01090-X|10.1016/S0031-9422(98)00551-2|10.1016/S0031-9422(99)00035-7|10.1016/S0305-1978(01)00055-2|10.1016/S0367-326X(00)00129-5|10.1016/S0367-326X(00)00165-9|10.1016/S0378-8741(01)00325-7|10.1016/j.bmc.2006.09.024|10.1016/j.bmcl.2016.08.044|10.1016/s0031-9422(00)90868-9|10.1016/s0031-9422(98)00551-2|10.1021/JF801227Q|10.1021/NP0502600|10.1021/NP100339U|10.1021/NP500016Z|10.1021/NP50042A032|10.1021/NP50068A037|10.1021/NP900144C|10.1021/NP970173A|10.1021/NP970236P|10.1021/NP980041X|10.1021/NP990051D|10.1021/acs.jnatprod.8b00321|10.1021/np970236p|10.1023/B:CONC.0000018120.22592.36|10.1039/J39690001109|10.1055/S-2001-14325|10.1055/S-2006-951689|10.1071/C96109|10.1080/10286020290019622|10.1080/1478641031000103669|10.1093/JEXBOT/52.357.681|10.1104/PP.94.3.1444|10.1177/1934578X1000501210|10.1248/CPB.29.532|10.1248/CPB.36.2220|10.1248/CPB.38.1712|10.1248/CPB.38.2756|10.1515/ZNC-1979-3-424|10.1515/ZNC-1979-7-823|10.1515/ZNC-1990-7-814|10.1515/ZNC-1992-7-808|10.1515/ZNC-2000-7-804|10.1515/ZNC-2001-11-1210|10.1515/ZNC-2002-7-810|10.1590/S0102-695X2009000300005|10.3987/COM-02-9678|10.3987/COM-95-7069

>  <synonyms>  (723) 
nan

>  <cas>  (723) 
2035-15-6|19908-48-6

$$$$

     RDKit          2D

 26 28  0  0  0  0  0  0  0  0999 V2000
   -5.2225    4.3916    0.0000 C   0  0  0  0  0  0  0  0  0  0  0  0
   -4.2282    3.2685    0.0000 C   0  0  0  0  0  0  0  0  0  0  0  0
   -4.7037    1.8459    0.0000 O   0  0  0  0  0  0  0  0  0  0  0  0
   -3.7094    0.7228    0.0000 C   0  0  0  0  0  0  0  0  0  0  0  0
   -4.1849   -0.6999    0.0000 C   0  0  0  0  0  0  0  0  0  0  0  0
   -5.6547   -0.9994    0.0000 C   0  0  0  0  0  0  0  0  0  0  0  0
   -3.1906   -1.8230    0.0000 C   0  0  0  0  0  0  0  0  0  0  0  0
   -3.6661   -3.2456    0.0000 O   0  0  0  0  0  0  0  0  0  0  0  0
   -1.7208   -1.5235    0.0000 C   0  0  0  0  0  0  0  0  0  0  0  0
   -0.7265   -2.6466    0.0000 C   0  0  0  0  0  0  0  0  0  0  0  0
   -1.2020   -4.0692    0.0000 O   0  0  0  0  0  0  0  0  0  0  0  0
    0.7432   -2.3470    0.0000 C   0  0  0  0  0  0  0  0  0  0  0  0
    1.2187   -0.9244    0.0000 C   0  0  0  0  0  0  0  0  0  0  0  0
    2.6885   -0.6249    0.0000 C   0  0  0  0  0  0  0  0  0  0  0  0
    3.6828   -1.7480    0.0000 C   0  0  0  0  0  0  0  0  0  0  0  0
    5.1526   -1.4485    0.0000 C   0  0  0  0  0  0  0  0  0  0  0  0
    5.6281   -0.0258    0.0000 C   0  0  0  0  0  0  0  0  0  0  0  0
    7.0979    0.2737    0.0000 O   0  0  0  0  0  0  0  0  0  0  0  0
    4.6338    1.0973    0.0000 C   0  0  0  0  0  0  0  0  0  0  0  0
    5.1093    2.5199    0.0000 O   0  0  0  0  0  0  0  0  0  0  0  0
    4.1150    3.6430    0.0000 C   0  0  0  0  0  0  0  0  0  0  0  0
    3.1640    0.7978    0.0000 C   0  0  0  0  0  0  0  0  0  0  0  0
    0.2245    0.1987    0.0000 O   0  0  0  0  0  0  0  0  0  0  0  0
   -1.2453   -0.1008    0.0000 C   0  0  0  0  0  0  0  0  0  0  0  0
   -2.2396    1.0223    0.0000 C   0  0  0  0  0  0  0  0  0  0  0  0
   -1.7641    2.4449    0.0000 C   0  0  0  0  0  0  0  0  0  0  0  0
  1  2  1  0
  2  3  1  0
  3  4  1  0
  4  5  2  0
  5  6  1  0
  5  7  1  0
  7  8  1  0
  7  9  2  0
  9 10  1  0
 10 11  2  0
 10 12  1  0
 12 13  1  0
 13 14  1  1
 14 15  2  0
 15 16  1  0
 16 17  2  0
 17 18  1  0
 17 19  1  0
 19 20  1  0
 20 21  1  0
 19 22  2  0
 13 23  1  0
 23 24  1  0
 24 25  2  0
 25 26  1  0
 25  4  1  0
 24  9  1  0
 22 14  1  0
M  END
>  <identifier>  (724) 
CNP0080579.1

>  <canonical_smiles>  (724) 
CCOC1=C(C)C(O)=C2C(=O)C[C@H](C3=CC=C(O)C(OC)=C3)OC2=C1C

>  <standard_inchi>  (724) 
InChI=1S/C20H22O6/c1-5-25-19-10(2)18(23)17-14(22)9-15(26-20(17)11(19)3)12-6-7-13(21)16(8-12)24-4/h6-8,15,21,23H,5,9H2,1-4H3/t15-/m1/s1

>  <standard_inchi_key>  (724) 
WZJGGZIWXDQPAL-OAHLLOKOSA-N

>  <name>  (724) 
(2r)-5,4'-dihydroxy-7-ethoxy-3'-methoxy-6,8-dimethylflavanone

>  <iupac_name>  (724) 
(2~{R})-7-ethoxy-5-hydroxy-2-(4-hydroxy-3-methoxy-phenyl)-6,8-dimethyl-chroman-4-one

>  <annotation_level>  (724) 
5

>  <total_atom_count>  (724) 
48

>  <heavy_atom_count>  (724) 
26

>  <molecular_weight>  (724) 
358.39

>  <exact_molecular_weight>  (724) 
358.14164

>  <molecular_formula>  (724) 
C20H22O6

>  <alogp>  (724) 
3.83

>  <topological_polar_surface_area>  (724) 
85.22

>  <rotatable_bond_count>  (724) 
4

>  <hydrogen_bond_acceptors>  (724) 
6

>  <hydrogen_bond_donors>  (724) 
2

>  <hydrogen_bond_acceptors_lipinski>  (724) 
6

>  <hydrogen_bond_donors_lipinski>  (724) 
2

>  <lipinski_rule_of_five_violations>  (724) 
0

>  <aromatic_rings_count>  (724) 
2

>  <qed_drug_likeliness>  (724) 
0.86

>  <formal_charge>  (724) 
0

>  <fractioncsp3>  (724) 
0.35

>  <number_of_minimal_rings>  (724) 
3

>  <van_der_walls_volume>  (724) 
nan

>  <contains_sugar>  (724) 
False

>  <contains_ring_sugars>  (724) 
False

>  <contains_linear_sugars>  (724) 
False

>  <murcko_framework>  (724) 
O1c2ccccc2CCC1c3ccccc3

>  <np_likeness>  (724) 
1.51

>  <chemical_class>  (724) 
Flavonoids

>  <chemical_sub_class>  (724) 
O-methylated flavonoids

>  <chemical_super_class>  (724) 
Phenylpropanoids and polyketides

>  <direct_parent_classification>  (724) 
3'-O-methylated flavonoids

>  <np_classifier_pathway>  (724) 
Shikimates and Phenylpropanoids

>  <np_classifier_superclass>  (724) 
Flavonoids

>  <np_classifier_class>  (724) 
Flavanones

>  <np_classifier_is_glycoside>  (724) 
False

>  <organisms>  (724) 
Qualea labouriauana

>  <collections>  (724) 
Latin America dataset|NuBBEDB|WikiData Natural Products|ZINC NP

>  <dois>  (724) 
10.1016/0031-9422(81)85112-6

>  <synonyms>  (724) 
(2R)-7-Ethoxy-54'-dihydroxy-3'-methoxy-68-dimethylflavanone

>  <cas>  (724) 
nan

$$$$

     RDKit          2D

  8  7  0  0  0  0  0  0  0  0999 V2000
   -4.5553   -0.2480    0.0000 C   0  0  0  0  0  0  0  0  0  0  0  0
   -3.2359    0.4655    0.0000 C   0  0  0  0  0  0  0  0  0  0  0  0
   -1.9583   -0.3205    0.0000 C   0  0  0  0  0  0  0  0  0  0  0  0
   -0.6388    0.3930    0.0000 C   0  0  0  0  0  0  0  0  0  0  0  0
    0.6388   -0.3930    0.0000 C   0  0  0  0  0  0  0  0  0  0  0  0
    1.9583    0.3205    0.0000 C   0  0  0  0  0  0  0  0  0  0  0  0
    3.2359   -0.4655    0.0000 C   0  0  0  0  0  0  0  0  0  0  0  0
    4.5553    0.2480    0.0000 O   0  0  0  0  0  0  0  0  0  0  0  0
  1  2  1  0
  2  3  1  0
  3  4  1  0
  4  5  1  0
  5  6  1  0
  6  7  1  0
  7  8  1  0
M  END
>  <identifier>  (725) 
CNP0329737.0

>  <canonical_smiles>  (725) 
CCCCCCCO

>  <standard_inchi>  (725) 
InChI=1S/C7H16O/c1-2-3-4-5-6-7-8/h8H,2-7H2,1H3

>  <standard_inchi_key>  (725) 
BBMCTIGTTCKYKF-UHFFFAOYSA-N

>  <name>  (725) 
1-HEPTANOL

>  <iupac_name>  (725) 
heptan-1-ol

>  <annotation_level>  (725) 
5

>  <total_atom_count>  (725) 
24

>  <heavy_atom_count>  (725) 
8

>  <molecular_weight>  (725) 
116.2

>  <exact_molecular_weight>  (725) 
116.12012

>  <molecular_formula>  (725) 
C7H16O

>  <alogp>  (725) 
1.95

>  <topological_polar_surface_area>  (725) 
20.23

>  <rotatable_bond_count>  (725) 
5

>  <hydrogen_bond_acceptors>  (725) 
1

>  <hydrogen_bond_donors>  (725) 
1

>  <hydrogen_bond_acceptors_lipinski>  (725) 
1

>  <hydrogen_bond_donors_lipinski>  (725) 
1

>  <lipinski_rule_of_five_violations>  (725) 
0

>  <aromatic_rings_count>  (725) 
0

>  <qed_drug_likeliness>  (725) 
0.54

>  <formal_charge>  (725) 
0

>  <fractioncsp3>  (725) 
1.00

>  <number_of_minimal_rings>  (725) 
0

>  <van_der_walls_volume>  (725) 
136.60

>  <contains_sugar>  (725) 
False

>  <contains_ring_sugars>  (725) 
False

>  <contains_linear_sugars>  (725) 
False

>  <murcko_framework>  (725) 
nan

>  <np_likeness>  (725) 
0.94

>  <chemical_class>  (725) 
Fatty Acyls

>  <chemical_sub_class>  (725) 
Fatty alcohols

>  <chemical_super_class>  (725) 
Lipids and lipid-like molecules

>  <direct_parent_classification>  (725) 
Fatty alcohols

>  <np_classifier_pathway>  (725) 
Fatty acids

>  <np_classifier_superclass>  (725) 
Fatty acyls

>  <np_classifier_class>  (725) 
Fatty alcohols

>  <np_classifier_is_glycoside>  (725) 
False

>  <organisms>  (725) 
Acacia dealbata|Achillea grandifolia|Actinidia chinensis|Akebia quinata|Akebia trifoliata|Aloe africana|Aloe ferox|Aloe spicata|Aloe vera|Camellia saluenensis|Capillipedium parviflorum|Carica papaya|Cedronella canariensis|Citrullus lanatus|Citrus limonia|Citrus maxima|Citrus reticulata|Commiphora quadricincta|Curcuma longa|Eupatorium cannabinum|FOOD SAKE|Hamamelis virginiana|Homo sapiens|Juglans nigra|Lycium barbarum|Lycium chinense|Magnolia obovata|Magnolia officinalis|Mangifera indica|Melia azedarach|Mimusops elengi|Monarda fistulosa|Opuntia ficus-indica|Pelargonium vitifolium|Phallus impudicus|Polygala senega|Prunus avium|Prunus dulcis|Rosa rugosa|Sagittaria sagittifolia|Triticum aestivum|Vitex agnus-castus|Zanthoxylum bungeanum|Zanthoxylum piperitum|Zanthoxylum schinifolium|Zea mays|bellis perennis|maize|rooibos|tomato

>  <collections>  (725) 
ANPDB|Australian natural products|CMAUP (cCollective molecular activities of useful plants)|ChEBI NPs|FooDB|KNApSaCK|Latin America dataset|NANPDB (Natural Products from Northern African Sources)|NPASS|NuBBEDB|Super Natural II|TCMDB-Taiwan (Traditional Chinese Medicine database)|TCMID (Traditional Chinese Medicine Integrated Database)|TIPdb (database of Taiwan indigenous plants)|UNPD (Universal Natural Products Database)|Watermelon|WikiData Natural Products

>  <dois>  (725) 
10.1002/FFJ.2730100408|10.1002/JSSC.200900378|10.1007/s10886-014-0498-x|10.1016/0031-9422(95)00183-8|10.1016/0031-9422(95)00241-X|10.1016/J.FOODCHEM.2013.11.092|10.1016/J.IJFOODMICRO.2008.10.017|10.1016/J.PHYTOCHEM.2004.04.003|10.1016/J.TALANTA.2008.07.061|10.1016/S0031-9422(00)82634-5|10.1016/S0031-9422(96)00559-6|10.1016/S0308-8146(00)00187-4|10.1016/S0925-5214(02)00250-8|10.1021/JF00062A024|10.1021/JF00069A050|10.1021/JF0402633|10.1021/JF0728101|10.1021/JF60209A051|10.1021/JF60218A022|10.1021/JF60218A053|10.1021/JF60228A025|10.1021/JF60230A020|10.1055/S-0028-1099434|10.1055/S-2006-957420|10.1055/S-2006-957814|10.1055/S-2006-961401|10.1055/S-2007-969599|10.1080/10412905.1992.9698083|10.1080/10412905.1992.9698128|10.1080/10412905.1994.9698425|10.1080/10412905.1994.9699345|10.1186/1471-2180-10-4|10.1590/S0100-40422002000700009|10.5650/JOS.56.59

>  <synonyms>  (725) 
1-HEPTANOL [HSDB]|1-HEPTANOL [MI]|1-Hept|1-Heptanol purum|1-Heptanol, 98%|1-Heptanol, >=99.5% (GC)|1-Heptanol, analytical standard|1-Heptanol, purum, >=99.0% (GC)|1-Hydroxyheptane|1-heptanol|1-heptyl alcohol|111-70-6|1219804-99-5|38007-42-0|4-01-00-01731 (Beilstein Handbook Reference)|53535-33-4|8JQ5607IO5|A802399|AI3-15363|AKOS000120104|Alcohol C-7|BDBM22605|BP-31150|BRN 1731686|C7 alcohol|CAS-111-70-6|CHEBI:43003|CHEBI:88619|CHEMBL273459|CS-0152146|DTXCID601937|DTXSID8021937|EC 203-897-9|EINECS 203-897-9|EINECS 258-615-7|EN300-19352|Enanthic alcohol|Enanthyl alcohol|F0001-0245|FEMA 2548|FEMA No. 2548|FEMA Number 2548|Gentanol|H0033|HEPTYL ALCOHOL [FCC]|HEPTYL ALCOHOL [FHFI]|HEPTYL ALCOHOL, N-|HSDB 1077|HY-W099504|Heptan-1-ol|Heptanol|Heptyl alcohol|Heptyl alcohol (natural)|Heptyl alcohol, 8CI|Heptyl alcohol, >=97%, FCC, FG|Heptyl alcohol, natural, 98%|Heptyl alcohol, primary|Hexyl carbinol|InChI=1\/C7H16O\/c1-2-3-4-5-6-7-8\/h8H,2-7H2,1H|J-002619|LMFA05000122|LS-13378|MFCD00002986|N-HEPTYL-D15 ALCOHOL|N-Heptanol-1 [French]|NCGC00249005-01|NCGC00257506-01|NCGC00258799-01|NS00007978|NSC 3703|NSC-3703|Pri-n-heptyl alcohol|Q113820|SCHEMBL2077|STL280281|Tox21_201247|Tox21_303470|UNII-8JQ5607IO5|WLN: Q7|Z104473596|heptanol|heptanol-1|l'Alcool N-heptylique primaire [French]|l'Alcool n-heptylique primaire|n-C7H15OH|n-Heptanol|n-Heptyl--d7 Alcohol|starbld0033280

>  <cas>  (725) 
111-70-6|53535-33-4|38007-42-0

$$$$

     RDKit          2D

 21 23  0  0  0  0  0  0  0  0999 V2000
   -3.7521   -2.8896    0.0000 C   0  0  0  0  0  0  0  0  0  0  0  0
   -2.3659   -2.3166    0.0000 O   0  0  0  0  0  0  0  0  0  0  0  0
   -2.1690   -0.8296    0.0000 C   0  0  0  0  0  0  0  0  0  0  0  0
   -3.3584    0.0844    0.0000 C   0  0  0  0  0  0  0  0  0  0  0  0
   -4.7446   -0.4886    0.0000 O   0  0  0  0  0  0  0  0  0  0  0  0
   -3.1615    1.5714    0.0000 C   0  0  0  0  0  0  0  0  0  0  0  0
   -1.7752    2.1444    0.0000 C   0  0  0  0  0  0  0  0  0  0  0  0
   -1.5783    3.6315    0.0000 O   0  0  0  0  0  0  0  0  0  0  0  0
   -0.5859    1.2304    0.0000 C   0  0  0  0  0  0  0  0  0  0  0  0
   -0.7828   -0.2566    0.0000 C   0  0  0  0  0  0  0  0  0  0  0  0
    0.4066   -1.1706    0.0000 N   0  0  0  0  0  0  0  0  0  0  0  0
    0.2097   -2.6577    0.0000 C   0  0  0  0  0  0  0  0  0  0  0  0
    1.7928   -0.5976    0.0000 C   0  0  0  0  0  0  0  0  0  0  0  0
    2.9822   -1.5117    0.0000 C   0  0  0  0  0  0  0  0  0  0  0  0
    2.7853   -2.9987    0.0000 O   0  0  0  0  0  0  0  0  0  0  0  0
    4.3684   -0.9387    0.0000 C   0  0  0  0  0  0  0  0  0  0  0  0
    4.5653    0.5483    0.0000 C   0  0  0  0  0  0  0  0  0  0  0  0
    3.3760    1.4624    0.0000 C   0  0  0  0  0  0  0  0  0  0  0  0
    1.9897    0.8894    0.0000 C   0  0  0  0  0  0  0  0  0  0  0  0
    0.8004    1.8034    0.0000 C   0  0  0  0  0  0  0  0  0  0  0  0
    0.9973    3.2904    0.0000 O   0  0  0  0  0  0  0  0  0  0  0  0
  1  2  1  0
  2  3  1  0
  3  4  2  0
  4  5  1  0
  4  6  1  0
  6  7  2  0
  7  8  1  0
  7  9  1  0
  9 10  2  0
 10 11  1  0
 11 12  1  0
 11 13  1  0
 13 14  2  0
 14 15  1  0
 14 16  1  0
 16 17  2  0
 17 18  1  0
 18 19  2  0
 19 20  1  0
 20 21  2  0
 10  3  1  0
 19 13  1  0
 20  9  1  0
M  END
>  <identifier>  (726) 
CNP0356454.0

>  <canonical_smiles>  (726) 
COC1=C(O)C=C(O)C2=C1N(C)C1=C(O)C=CC=C1C2=O

>  <standard_inchi>  (726) 
InChI=1S/C15H13NO5/c1-16-12-7(4-3-5-8(12)17)14(20)11-9(18)6-10(19)15(21-2)13(11)16/h3-6,17-19H,1-2H3

>  <standard_inchi_key>  (726) 
QEGXAAUCDUFHPJ-UHFFFAOYSA-N

>  <name>  (726) 
Citrusinine II

>  <iupac_name>  (726) 
1,3,5-trihydroxy-4-methoxy-10-methyl-acridin-9-one

>  <annotation_level>  (726) 
5

>  <total_atom_count>  (726) 
34

>  <heavy_atom_count>  (726) 
21

>  <molecular_weight>  (726) 
287.27

>  <exact_molecular_weight>  (726) 
287.07937

>  <molecular_formula>  (726) 
C15H13NO5

>  <alogp>  (726) 
1.82

>  <topological_polar_surface_area>  (726) 
91.92

>  <rotatable_bond_count>  (726) 
1

>  <hydrogen_bond_acceptors>  (726) 
6

>  <hydrogen_bond_donors>  (726) 
3

>  <hydrogen_bond_acceptors_lipinski>  (726) 
6

>  <hydrogen_bond_donors_lipinski>  (726) 
3

>  <lipinski_rule_of_five_violations>  (726) 
0

>  <aromatic_rings_count>  (726) 
3

>  <qed_drug_likeliness>  (726) 
0.59

>  <formal_charge>  (726) 
0

>  <fractioncsp3>  (726) 
0.13

>  <number_of_minimal_rings>  (726) 
3

>  <van_der_walls_volume>  (726) 
237.50

>  <contains_sugar>  (726) 
False

>  <contains_ring_sugars>  (726) 
False

>  <contains_linear_sugars>  (726) 
False

>  <murcko_framework>  (726) 
c1ccc2c(c1)Nc3ccccc3C2

>  <np_likeness>  (726) 
1.50

>  <chemical_class>  (726) 
Quinolines and derivatives

>  <chemical_sub_class>  (726) 
Benzoquinolines

>  <chemical_super_class>  (726) 
Organoheterocyclic compounds

>  <direct_parent_classification>  (726) 
Acridones

>  <np_classifier_pathway>  (726) 
Alkaloids

>  <np_classifier_superclass>  (726) 
Anthranilic acid alkaloids

>  <np_classifier_class>  (726) 
Acridone alkaloids

>  <np_classifier_is_glycoside>  (726) 
False

>  <organisms>  (726) 
Atalantia buxifolia|Citrus funadoko|Citrus sinensis|Citrus sinensis var.brasiliensis|Severinia buxifolia|Swinglea glutinosa|severinia buxifolia

>  <collections>  (726) 
CMAUP (cCollective molecular activities of useful plants)|FooDB|KNApSaCK|Latin America dataset|NPASS|NuBBEDB|Super Natural II|TCMDB-Taiwan (Traditional Chinese Medicine database)|TCMID (Traditional Chinese Medicine Integrated Database)|TIPdb (database of Taiwan indigenous plants)|UNPD (Universal Natural Products Database)|WikiData Natural Products

>  <dois>  (726) 
10.1002/JCCS.200100136|10.1016/J.BMC.2010.12.056|10.1021/JF902561C|10.1021/NP0005309|10.1021/NP0005762|10.1021/np0005309|10.1021/np0005762|10.1039/P19900001593|10.1055/S-2005-837758|10.1055/S-2006-958104|10.1248/CPB.48.85|10.1590/S0103-50532009000400008

>  <synonyms>  (726) 
1,3,5-TRIHYDROXY-4-METHOXY-10-METHYLACRIDIN-9-ONE|1,3,5-Trihydroxy-4-methoxy-10-methyl-9(10H)-acridinone|1,3,5-trihydroxy-4-methoxy-10-methyl-9,10-dihydroacridin-9-one|1,3,5-trihydroxy-4-methoxy-10-methylacridone|86680-33-3|BDBM50336480|CHEMBL465847|Citrusinine II|DTXSID201211167|GTPL11377|citrusinine-II|compound 5 [PMID: 21277783]

>  <cas>  (726) 
86680-33-3

$$$$

     RDKit          2D

 29 30  0  0  0  0  0  0  0  0999 V2000
   -7.3628    2.4868    0.0000 C   0  0  0  0  0  0  0  0  0  0  0  0
   -6.0181    1.8221    0.0000 C   0  0  0  0  0  0  0  0  0  0  0  0
   -4.7701    2.6542    0.0000 C   0  0  0  0  0  0  0  0  0  0  0  0
   -4.8667    4.1510    0.0000 C   0  0  0  0  0  0  0  0  0  0  0  0
   -3.4254    1.9894    0.0000 C   0  0  0  0  0  0  0  0  0  0  0  0
   -3.3288    0.4925    0.0000 C   0  0  0  0  0  0  0  0  0  0  0  0
   -1.9842   -0.1723    0.0000 C   0  0  0  0  0  0  0  0  0  0  0  0
   -1.5630    1.2673    0.0000 C   0  0  0  0  0  0  0  0  0  0  0  0
   -2.8724   -1.3811    0.0000 C   0  0  0  0  0  0  0  0  0  0  0  0
   -4.3633   -1.2163    0.0000 C   0  0  0  0  0  0  0  0  0  0  0  0
   -2.2697   -2.7547    0.0000 C   0  0  0  0  0  0  0  0  0  0  0  0
   -0.7787   -2.9195    0.0000 C   0  0  0  0  0  0  0  0  0  0  0  0
   -0.5498   -3.6830    0.0000 O   0  0  0  0  0  0  0  0  0  0  0  0
    0.1095   -1.7107    0.0000 C   0  0  0  0  0  0  0  0  0  0  0  0
    0.7122   -3.0843    0.0000 C   0  0  0  0  0  0  0  0  0  0  0  0
    0.3220   -3.7794    0.0000 O   0  0  0  0  0  0  0  0  0  0  0  0
    1.6004   -1.8755    0.0000 C   0  0  0  0  0  0  0  0  0  0  0  0
    2.2031   -3.2491    0.0000 C   0  0  0  0  0  0  0  0  0  0  0  0
    3.6940   -3.4139    0.0000 O   0  0  0  0  0  0  0  0  0  0  0  0
    2.4886   -0.6667    0.0000 C   0  0  0  0  0  0  0  0  0  0  0  0
    1.8858    0.7069    0.0000 C   0  0  0  0  0  0  0  0  0  0  0  0
    2.7740    1.9156    0.0000 O   0  0  0  0  0  0  0  0  0  0  0  0
    4.2649    1.7508    0.0000 C   0  0  0  0  0  0  0  0  0  0  0  0
    4.8677    0.3772    0.0000 O   0  0  0  0  0  0  0  0  0  0  0  0
    5.1531    2.9596    0.0000 C   0  0  0  0  0  0  0  0  0  0  0  0
    6.6440    2.7948    0.0000 C   0  0  0  0  0  0  0  0  0  0  0  0
    7.5322    4.0036    0.0000 C   0  0  0  0  0  0  0  0  0  0  0  0
    0.3949    0.8717    0.0000 C   0  0  0  0  0  0  0  0  0  0  0  0
   -0.4933   -0.3371    0.0000 C   0  0  0  0  0  0  0  0  0  0  0  0
  1  2  2  0
  2  3  1  0
  3  4  1  0
  3  5  2  0
  5  6  1  0
  6  7  1  0
  7  8  1  6
  7  9  1  0
  9 10  1  1
  9 11  1  0
 11 12  1  0
 12 13  1  1
 12 14  1  0
 14 15  1  1
 15 16  2  0
 14 17  1  0
 17 18  1  0
 18 19  2  0
 17 20  2  0
 20 21  1  0
 21 22  1  1
 22 23  1  0
 23 24  2  0
 23 25  1  0
 25 26  1  0
 26 27  1  0
 21 28  1  0
 29 28  1  6
 29  7  1  0
 29 14  1  0
M  END
>  <identifier>  (727) 
CNP0080435.1

>  <canonical_smiles>  (727) 
C=C/C(C)=C\C[C@]1(C)[C@H](C)C[C@H](O)[C@@]2(C=O)C(C=O)=C[C@H](OC(=O)CCC)C[C@@H]12

>  <standard_inchi>  (727) 
InChI=1S/C24H34O5/c1-6-8-22(28)29-19-12-18(14-25)24(15-26)20(13-19)23(5,10-9-16(3)7-2)17(4)11-21(24)27/h7,9,12,14-15,17,19-21,27H,2,6,8,10-11,13H2,1,3-5H3/b16-9-/t17-,19+,20+,21+,23-,24+/m1/s1

>  <standard_inchi_key>  (727) 
JNCWBVCCDFJVEI-ISYBQSFZSA-N

>  <name>  (727) 
nan

>  <iupac_name>  (727) 
[(2~{R},4~{a}~{S},5~{S},7~{R},8~{R},8~{a}~{S})-4,4~{a}-diformyl-5-hydroxy-7,8-dimethyl-8-[(2~{Z})-3-methylpenta-2,4-dienyl]-1,2,5,6,7,8~{a}-hexahydronaphthalen-2-yl] butanoate

>  <annotation_level>  (727) 
5

>  <total_atom_count>  (727) 
63

>  <heavy_atom_count>  (727) 
29

>  <molecular_weight>  (727) 
402.53

>  <exact_molecular_weight>  (727) 
402.24062

>  <molecular_formula>  (727) 
C24H34O5

>  <alogp>  (727) 
3.96

>  <topological_polar_surface_area>  (727) 
80.67

>  <rotatable_bond_count>  (727) 
8

>  <hydrogen_bond_acceptors>  (727) 
5

>  <hydrogen_bond_donors>  (727) 
1

>  <hydrogen_bond_acceptors_lipinski>  (727) 
5

>  <hydrogen_bond_donors_lipinski>  (727) 
1

>  <lipinski_rule_of_five_violations>  (727) 
0

>  <aromatic_rings_count>  (727) 
0

>  <qed_drug_likeliness>  (727) 
0.38

>  <formal_charge>  (727) 
0

>  <fractioncsp3>  (727) 
0.63

>  <number_of_minimal_rings>  (727) 
2

>  <van_der_walls_volume>  (727) 
390.90

>  <contains_sugar>  (727) 
False

>  <contains_ring_sugars>  (727) 
False

>  <contains_linear_sugars>  (727) 
False

>  <murcko_framework>  (727) 
C1=CC2CCCCC2CC1

>  <np_likeness>  (727) 
3.39

>  <chemical_class>  (727) 
Prenol lipids

>  <chemical_sub_class>  (727) 
Diterpenoids

>  <chemical_super_class>  (727) 
Lipids and lipid-like molecules

>  <direct_parent_classification>  (727) 
Colensane and clerodane diterpenoids

>  <np_classifier_pathway>  (727) 
Terpenoids

>  <np_classifier_superclass>  (727) 
Diterpenoids

>  <np_classifier_class>  (727) 
Colensane and Clerodane diterpenoids

>  <np_classifier_is_glycoside>  (727) 
False

>  <organisms>  (727) 
Casearia sylvestris

>  <collections>  (727) 
ChemSpider NPs|Latin America dataset|NuBBEDB|Super Natural II|WikiData Natural Products|ZINC NP

>  <dois>  (727) 
10.1002/CBDV.200800342|10.1002/cbdv.200800342

>  <synonyms>  (727) 
Casearin X Dialdehyde, (2R*4aS*5S*7R*8R*8aS*)-44a-Diformyl-124a56788a-octahydro-5-hydroxy-78-dimethyl-8-[(2Z)-3-methylpenta-24-dien-1-yl]naphthalen-2-yl Butanoate

>  <cas>  (727) 
nan

$$$$

     RDKit          2D

 22 26  0  0  0  0  0  0  0  0999 V2000
    3.5072    0.3220    0.0000 C   0  0  0  0  0  0  0  0  0  0  0  0
    2.0099    0.2325    0.0000 C   0  0  0  0  0  0  0  0  0  0  0  0
    2.5371    1.6368    0.0000 C   0  0  0  0  0  0  0  0  0  0  0  0
    3.9831    2.0357    0.0000 O   0  0  0  0  0  0  0  0  0  0  0  0
    1.3645    2.5721    0.0000 O   0  0  0  0  0  0  0  0  0  0  0  0
    0.1125    1.7459    0.0000 C   0  0  0  0  0  0  0  0  0  0  0  0
   -1.3919    1.8287    0.0000 C   0  0  0  0  0  0  0  0  0  0  0  0
   -2.3273    0.6560    0.0000 C   0  0  0  0  0  0  0  0  0  0  0  0
   -3.8105    0.8798    0.0000 C   0  0  0  0  0  0  0  0  0  0  0  0
   -4.3584    2.2761    0.0000 O   0  0  0  0  0  0  0  0  0  0  0  0
   -4.7459   -0.2929    0.0000 C   0  0  0  0  0  0  0  0  0  0  0  0
   -4.1980   -1.6892    0.0000 C   0  0  0  0  0  0  0  0  0  0  0  0
   -2.7148   -1.9130    0.0000 C   0  0  0  0  0  0  0  0  0  0  0  0
   -1.7794   -0.7403    0.0000 C   0  0  0  0  0  0  0  0  0  0  0  0
   -0.2962   -0.9641    0.0000 C   0  0  0  0  0  0  0  0  0  0  0  0
    0.3946   -2.2955    0.0000 C   0  0  0  0  0  0  0  0  0  0  0  0
    1.8931   -2.3630    0.0000 C   0  0  0  0  0  0  0  0  0  0  0  0
    2.7007   -1.0990    0.0000 C   0  0  0  0  0  0  0  0  0  0  0  0
    4.1992   -1.1664    0.0000 O   0  0  0  0  0  0  0  0  0  0  0  0
    1.8820   -1.0116    0.0000 O   0  0  0  0  0  0  0  0  0  0  0  0
    0.5271   -0.9506    0.0000 C   0  0  0  0  0  0  0  0  0  0  0  0
    0.5114    0.2999    0.0000 C   0  0  0  0  0  0  0  0  0  0  0  0
  2  1  1  6
  2  3  1  0
  3  4  2  0
  3  5  1  0
  5  6  1  0
  6  7  1  1
  7  8  1  0
  8  9  1  0
  9 10  2  0
  9 11  1  0
 11 12  1  0
 12 13  1  0
 13 14  1  0
 15 14  1  1
 15 16  1  0
 16 17  1  0
 17 18  1  0
 18 19  1  6
 18 20  1  0
 20 21  1  0
 15 22  1  0
 18  2  1  0
 22  2  1  0
 22  6  1  0
 14  8  1  0
 21 15  1  0
M  END
>  <identifier>  (728) 
CNP0148018.5

>  <canonical_smiles>  (728) 
C[C@]12C(=O)O[C@@H]3CC4C(=O)CCCC4[C@@]4(CC[C@@]1(O)OC4)C32

>  <standard_inchi>  (728) 
InChI=1S/C17H22O5/c1-15-13-12(22-14(15)19)7-9-10(3-2-4-11(9)18)16(13)5-6-17(15,20)21-8-16/h9-10,12-13,20H,2-8H2,1H3/t9?,10?,12-,13?,15+,16+,17-/m1/s1

>  <standard_inchi_key>  (728) 
UUEXLVLYJAIBND-IBVFNLMBSA-N

>  <name>  (728) 
nan

>  <iupac_name>  (728) 
(1~{S},9~{R},12~{R},13~{R})-13-hydroxy-12-methyl-10,14-dioxapentacyclo[11.2.2.1^{1,9}.0^{2,7}.0^{12,18}]octadecane-6,11-dione

>  <annotation_level>  (728) 
5

>  <total_atom_count>  (728) 
44

>  <heavy_atom_count>  (728) 
22

>  <molecular_weight>  (728) 
306.36

>  <exact_molecular_weight>  (728) 
306.14672

>  <molecular_formula>  (728) 
C17H22O5

>  <alogp>  (728) 
1.42

>  <topological_polar_surface_area>  (728) 
72.83

>  <rotatable_bond_count>  (728) 
0

>  <hydrogen_bond_acceptors>  (728) 
5

>  <hydrogen_bond_donors>  (728) 
1

>  <hydrogen_bond_acceptors_lipinski>  (728) 
5

>  <hydrogen_bond_donors_lipinski>  (728) 
1

>  <lipinski_rule_of_five_violations>  (728) 
0

>  <aromatic_rings_count>  (728) 
0

>  <qed_drug_likeliness>  (728) 
0.69

>  <formal_charge>  (728) 
0

>  <fractioncsp3>  (728) 
0.88

>  <number_of_minimal_rings>  (728) 
6

>  <van_der_walls_volume>  (728) 
nan

>  <contains_sugar>  (728) 
False

>  <contains_ring_sugars>  (728) 
False

>  <contains_linear_sugars>  (728) 
False

>  <murcko_framework>  (728) 
O1CC2C3OCC4(CC3)C5CCCCC5CC1C24

>  <np_likeness>  (728) 
2.90

>  <chemical_class>  (728) 
Naphthopyrans

>  <chemical_sub_class>  (728) 
Naphthopyrans

>  <chemical_super_class>  (728) 
Organoheterocyclic compounds

>  <direct_parent_classification>  (728) 
Naphthopyrans

>  <np_classifier_pathway>  (728) 
Terpenoids

>  <np_classifier_superclass>  (728) 
Diterpenoids

>  <np_classifier_class>  (728) 
Norpimarane and Norisopimarane diterpenoids

>  <np_classifier_is_glycoside>  (728) 
True

>  <organisms>  (728) 
Humirianthera rupestris

>  <collections>  (728) 
NuBBEDB

>  <dois>  (728) 
10.1016/S0031-9422(00)98552-2

>  <synonyms>  (728) 
Humirianthenolide A

>  <cas>  (728) 
nan

$$$$

     RDKit          2D

 12 12  0  0  0  0  0  0  0  0999 V2000
    3.3750    1.2990    0.0000 O   0  0  0  0  0  0  0  0  0  0  0  0
    2.6250    0.0000    0.0000 C   0  0  0  0  0  0  0  0  0  0  0  0
    3.3750   -1.2990    0.0000 O   0  0  0  0  0  0  0  0  0  0  0  0
    1.1250   -0.0000    0.0000 C   0  0  0  0  0  0  0  0  0  0  0  0
    0.3750   -1.2990    0.0000 C   0  0  0  0  0  0  0  0  0  0  0  0
   -1.1250   -1.2990    0.0000 C   0  0  0  0  0  0  0  0  0  0  0  0
   -1.8750   -2.5981    0.0000 O   0  0  0  0  0  0  0  0  0  0  0  0
   -1.8750    0.0000    0.0000 C   0  0  0  0  0  0  0  0  0  0  0  0
   -3.3750    0.0000    0.0000 O   0  0  0  0  0  0  0  0  0  0  0  0
   -1.1250    1.2990    0.0000 C   0  0  0  0  0  0  0  0  0  0  0  0
   -1.8750    2.5981    0.0000 O   0  0  0  0  0  0  0  0  0  0  0  0
    0.3750    1.2990    0.0000 C   0  0  0  0  0  0  0  0  0  0  0  0
  1  2  2  0
  2  3  1  0
  2  4  1  0
  4  5  2  0
  5  6  1  0
  6  7  1  0
  6  8  2  0
  8  9  1  0
  8 10  1  0
 10 11  1  0
 10 12  2  0
 12  4  1  0
M  END
>  <identifier>  (729) 
CNP0133244.0

>  <canonical_smiles>  (729) 
O=C(O)C1=CC(O)=C(O)C(O)=C1

>  <standard_inchi>  (729) 
InChI=1S/C7H6O5/c8-4-1-3(7(11)12)2-5(9)6(4)10/h1-2,8-10H,(H,11,12)

>  <standard_inchi_key>  (729) 
LNTHITQWFMADLM-UHFFFAOYSA-N

>  <name>  (729) 
Gallic acid

>  <iupac_name>  (729) 
3,4,5-trihydroxybenzoic acid

>  <annotation_level>  (729) 
5

>  <total_atom_count>  (729) 
18

>  <heavy_atom_count>  (729) 
12

>  <molecular_weight>  (729) 
170.12

>  <exact_molecular_weight>  (729) 
170.02152

>  <molecular_formula>  (729) 
C7H6O5

>  <alogp>  (729) 
0.50

>  <topological_polar_surface_area>  (729) 
97.99

>  <rotatable_bond_count>  (729) 
1

>  <hydrogen_bond_acceptors>  (729) 
4

>  <hydrogen_bond_donors>  (729) 
4

>  <hydrogen_bond_acceptors_lipinski>  (729) 
4

>  <hydrogen_bond_donors_lipinski>  (729) 
4

>  <lipinski_rule_of_five_violations>  (729) 
0

>  <aromatic_rings_count>  (729) 
1

>  <qed_drug_likeliness>  (729) 
0.46

>  <formal_charge>  (729) 
0

>  <fractioncsp3>  (729) 
0.00

>  <number_of_minimal_rings>  (729) 
1

>  <van_der_walls_volume>  (729) 
138.07

>  <contains_sugar>  (729) 
False

>  <contains_ring_sugars>  (729) 
False

>  <contains_linear_sugars>  (729) 
False

>  <murcko_framework>  (729) 
c1ccccc1

>  <np_likeness>  (729) 
0.98

>  <chemical_class>  (729) 
Benzene and substituted derivatives

>  <chemical_sub_class>  (729) 
Benzoic acids and derivatives

>  <chemical_super_class>  (729) 
Benzenoids

>  <direct_parent_classification>  (729) 
Hydroxybenzoic acid derivatives

>  <np_classifier_pathway>  (729) 
Shikimates and Phenylpropanoids

>  <np_classifier_superclass>  (729) 
Phenolic acids (C6-C1)

>  <np_classifier_class>  (729) 
Gallotannins

>  <np_classifier_is_glycoside>  (729) 
False

>  <organisms>  (729) 
Aaptos aaptos|Abrus Precatorius|Abrus precatorius|Abutilon indicum|Acacia Farnesiana|Acacia Nilotica|Acacia arabica|Acacia cyanophylla|Acacia farnesiana|Acacia horrida|Acacia longifolia|Acacia mellifera|Acacia nilotica|Acacia polyacantha subsp.camphylacantha|Acacia saligna|Acacia seyal|Acacia sieberiana|Acacia sp.|Acacia speckii|Acacia tortilis|Acalypha australis|Acalypha hispida|Acanthospermum glabratum|Acer barbinerve|Acer buergerianum|Acer ginnala|Acer negundo|Acer rubrum|Acer rubrum L.|Achillea clypeolata|Achillea millefolium|Aconitum heterophylloides|Aconitum nevadense|Aconitum seravschanicum|Aconitum tasiromontanum|Aconitum violaceum|Acridocarpus vivy|Acrostichum aureum|Adansonia grandidieri|Adina sessilifolia|Aegiceras corniculatum|Aframomum amaniense|Agaricus hortensis|Agelas linnaei|Aglaia elaeagnoidea|Agrimonia Pilosa|Agrimonia pilosa|Agrimonia pilosa var. japonica|Agrimonia pilosa var.japonica|Agrobacterium rhizogenes|Aguacate|Ailanthus giraldii|Ailanthus sp.|Aizopsis selskiana|Alangium grisolleoides|Alangium platanifolium|Albertisia papuana|Albizia julibrissin|Albizia myriophylla|Alchornea cordifolia|Alchornea glandulosa|Alchornea triplinervia|Alectoria divergens|Aleurites sp.|Alexandrium excavatum|Alkanna cappadocica|Allanblackia floribunda|Allium cepa|Allium rosenorum|Allium sativum|Alnus sp.|Aloe barbadensis|Aloe vera|Alphitonia macrocarpa|Alseodaphne corneri|Alternaria japonica|Alyxia reinwardtii|Alzatea verticillata|Amomum daniellii|Ampelopsis Japonica|Ampelopsis japonica|Ampelopsis quinquefolia|Amphorogyne spicata|Amsinckia tessellata|Anacardium humile|Anaphalis lactea|Anchusa azurea|Anethum graveolens|Angelica lucida|Angelica pubescens|Annella reticulata|Annona impressivenia|Annona muricata|Anolis lineatopus|Anthelia juratzkana|Anthocleista procera|Aphyllocladus denticulatus|Aplidium orthium|Aplophyllum telephioides|Aplysia parvula|Apterostigma dentigerum|Arbutus unedo|Arca noae|Archidendron bubalinum|Archidendron clypearia|Archidendron jiringa|Arctostaphylos columbiana|Arctostaphylos patula|Arctostaphylos sp.|Arctostaphylos uva-ursi|Ardisia Colorata|Ardisia colorata|Ardisia japonica|Ardisia paniculata|Areca catechu|Arisarum vulgare|Aristolochia elegans|Aristolochia zollingeriana|Armillaria tabescens|Aronia arbutifolia|Artabotrys blumei|Artabotrys hexapetalus|Artemisia afra|Artemisia alba|Artemisia biennis|Artemisia dentata|Artemisia klotzchiana|Artemisia tournefortiana|Arum alpinum|Ascidia ahodori|Asiasarum heterotropoides|Aspalathus linearis|Aspergillus candidus|Aspergillus falconensis|Aspergillus mutabilis|Aspergillus unguis|Asperula odora|Aspidosperma olivaceum|Aster sedifolius|Astraeus pteridis|Astragalus asper|Astragalus cibarius|Astragalus gummifer|Atalantia racemosa|Atalantia wightii|Athanasia crithmifolia|Atractylodes macrocephala|Aucuba chinensis|Aulacocephalus temmincki|Aulacomnium androgynum|Aurelia aurita|Azadirachta indica|Baeckea frutescens|Balanophora harlandii|Balanophora involucrata|Balanophora japonica|Balanophora laxiflora|Baphicacanthus cusia|Bartramia pomiformis|Bassia muricata|Bauhinia glauca|Beauveria felina|Beilschmiedia anacardioides|Benincasa hispida|Benzoin praecox|Berberis julianae|Bergenia ligulata|Bergenia pacumbis|Bergenia purpurascens|Bersama yangambiensis|Beta vulgaris|Betula obscura|Betula pendula|Betula pubescens|Biancaea sappan|Bipolaris heveae|Bistorta manshuriensis|Bistorta officinalis|Bistorta vivipara|Bitis gabonica|Bitter milkwort|Bixa orellana|Bleekeria vitiensis|Bombax ceiba|Bombax malabaricum|Botryosphaeria berengeriana|Brahea armata|Brassica juncea|Brassica oleracea|Brassica oleracea var. sabauda|Brassica rapa|Brenneria rubrifaciens|Brevibacterium linens|Brickellia vernicosa|Bridelia ferruginea|Bridelia micrantha|Bridelia sp.|Brucea javanica|Buchanania cochinchinensis|Buchanania lanzan|Buddleja cordata|Buphane fischeri|Bussea sakalava|Byrsonima crassifolia|Bystropogon origanifolius|Cacalia hastata L. (1753)|Cacospongia scalaris|Caesalpinia Pulcherrima|Caesalpinia Sappan|Caesalpinia pulcherrima|Caesalpinia sappan|Caesalpinia spinosa|Calcarisporium thermophilum|Callisia fragrans|Calophyllum polyanthum|Camellia|Camellia crassicolumna|Camellia crassicolumna var. multiplex|Camellia irrawadiensis|Camellia japonica|Camellia oleifera|Camellia pitardii|Camellia sinensis|Camellia sp.|Camellia taliensis|Canarium Album|Canarium album|Canavalia gladiata|Capnoides sempervirens|Capsicum annuum|Caragana spinosa|Cardamine pinnata|Cardiospermum halicacabum|Carduus tenuiflorus|Carica dodecaphylla|Carica pennata|Carthamus tinctorius|Carum carvi|Carya ovata|Caryocar microcarpum|Casimiroa tetrameria|Castanea|Castanea dentata|Castanea mollissima|Castanea sativa|Castanea sp.|Castanea vesca|Castanopsis fissa|Castanopsis sclerophylla|Casuarina equisetifolia|Casuarina sp.|Catechu|Caulerpa peltata|Caulerpa serrulata|Caulis millettiae|Caulis spatholobi|Caulocystis cephalornithos|Cecropia sp.|Cedronella canariensis|Cedrus libani|Celaenodendron mexicanum|Celtis reticulosa|Centaurea huber-morathii|Centaurea linifolia|Centaurea nigrescens|Centaurea squarrosa|Centella asiatica|Cephalaria grossheimii|Cephalaria paphlagonica|Ceramium rubrum|Ceratonia sp.|Cerbera dilatata|Cercidiphyllum japonicum|Cercis chinensis|Cerinthe minor|Chaenomeles sinensis|Chaetomium carinthiacum|Chaiturus marrubiastrum|Chamaenerion angustifolium|Chamerion angustifolium|Chamerion dodonaei|Chamomilla recutita|Chamomilla suaveolens|Changium smyrnioides|Cheimonophyllum candidissimum|Cheiropteris palmatopedata|Cheniella glauca|Choerospondias Axillaris|Choerospondias axillaris|Chromodoris lochi|Chrysophyllum cainito|Cichorium glandulosum|Cichorium intybus|Cinnamon|Cirsium japonicum|Cissus discolor|Cissus quinquefolia|Cissus sicyoides|Citrullus lanatus|Citrus paradisi|Citrus reticulata|Citrus tangerina|Citrus unshiu|Citrus × paradisi|Cladiella krempfi|Cleidion brevipetiolatum|Clematis koreana|Cleome chrysantha|Clerodendron cyrtophyllum|Clibadium mexiae|Cneoridium dumosum|Cneorum pulverulentum|Cnidium officinale|Coccoloba mollis|Coccus ilicis|Cochlospermum tinctorium|Codonocarpus australis|Codonopsis pilosula|Coespeletia moritziana|Coffea|Colchicum brachyphyllum|Colchicum speciosum|Combretum indicum|Combretum malabaricum|Combretum micranthum|Combretum quadrangulare|Conocephalum japonicum|Conocybe siliginea|Conus tribblei|Conyza canadensis|Cordia curassavica|Cordylanthus kingii|Coreopsis fasciculata|Coriandrum sativum|Coriaria japonica|Coriaria sinica|Cornus capitata|Cornus controversa|Cornus officinalis|Cornus sp.|Corydalis persica|Corylus americana|Corynanthe pachyceras|Cosmos pringlei|Cota tinctoria|Cotinus coggygria|Cotinus coggygria scop. var. cinerea|Cotinus coggygria var. cinerea|Cotula cinerea|Cowania mexicana|Crambe tatarica|Craspidospermum verticillatum|Crataegus laevigata|Crataegus monogyna|Crataegus oxyacantha L. (1753)|Crataegus pinnatifida|Crateva nurvala|Crepis foetida|Crinipellis scabella|Crinodendron hookerianum|Crinum defixum|Crocus minimus|Crocus sativus|Croton Tonkinensis|Croton cascarilloides|Croton celtidifolius|Croton cumingii|Croton kongensis|Croton megistocarpus|Croton penduliflorus|Croton sp.|Croton tonkinensis GAGNEP|Cryptocarya alba|Cucumis sativus|Cucurbita maxima|Cucurbita moschata|Cucurbita pepo|Cuminum cyminum|Cunonia macrophylla|Cuphea carthagenensis|Curculigo pilosa|Cyamopsis sp.|Cyamopsis tetragonoloba|Cyberlindnera jadinii|Cyclocarya paliurus|Cydonia oblonga|Cynoglossum amabile|Cynometra lujae|Cynomorium songaricum|Cystophora scalaris|Cytophaga hutchinsoni|Dacryodes hexandra|Dactylorhiza maculata|Dahlstedtia araripensis|Dalbergia lanceolaria subsp. paniculata|Daphne lancifolia|Daphniphyllum paxianum|Daucus carota|Debregeasia longifolia|Degenia velebitica|Delavay's tree peony|Delphinium nuttallianum|Delphinium shawurense|Delphinium virgatum|Dendriopoterium menendezii|Dendrobium longicornu|Dendrophthoe falcata|Dermocybe canaria|Derris uliginosa|Diabelia serrata|Dianthus caryophyllus|Dichotomaria marginata|Dictyopteris acrostichoides|Dictyopteris australis|Didemnum chartaceum|Dillenia Indica|Dillenia indica|Dimocarpus longan|Dinophysis acuminata|Dionaea sp.|Dioscorea althaeoides|Dioscorea japonica|Dioscorea opposita|Dioscorea polystachya|Dioscoreophyllum cumminsii|Diospyros Kaki|Diospyros cinnabarina|Diospyros eriantha|Diospyros glaucifolia|Diospyros japonica|Diospyros kaki|Diospyros lotus|Diospyros malabarica|Diospyros nigra|Diospyros verrucosa|Diotis maritima|Dipsacus azureus|Dipteracanthus prostratus|Discaria serratifolia|Distylium racemosum|Disynaphia halimifolia|Dodonaea viscosa|Doodia picta|Dorstenia lindeniana|Drynaria fortunei|Dryopteris polylepis|Dysidea amblia|Dysosma versipellis|Dysoxylum cumingianum|Echium pininana|Ehretia dicksonii|Ekebergia senegalensis|Elaeocarpus tuberculatus|Elephantorrhiza goetzei|Elettaria cardamomum|Elsholtzia cristata|Elysia ornata|Emblica officinalis|Emblica sp.|Ena montana|Enceliopsis argophylla|Entada rheedei|Epichloe festucae var. lolii|Epilobium dodonaei|Epilobium hirsutum|Epilobium parviflorum|Epimedium brevicornu|Epimedium grandiflorum|Epimedium koreanum|Epimedium pubescens|Epimedium sagittatum|Epimedium sempervirens|Epimedium wushanense|Epipactis palustris|Equisetum arvense|Equsetum arvense|Eragrostis viscosa|Eria mollis|Eria ramosissima|Eriocheir sinensis|Eriogonum umbellatum|Eriostemon tomentellus|Erodium cicutarium|Erodium glaucophyllum|Erodium moschatum|Erodium stephanianum|Erylus trisphaerus|Erythrina sacleuxii|Erythrophleum fordii|Erythrophleum ivorense|Erythroxylum passerinum|Eskemukerjea megacarpum|Eskemukerjea megacarpum HARA|Etlingera elatior|Eucalyptus|Eucalyptus Robusta|Eucalyptus camaldulensis|Eucalyptus globulus|Eucalyptus maideni|Eucalyptus maidenii|Eucalyptus nitens|Eucalyptus robusta|Eucalyptus sieberiana|Eucalyptus sp.|Eucalyptus tereticornis|Eucommia ulmoides|Eugenia edulis|Eugenia jambolana|Eugenia myrcianthes|Eugenia sandwicensis|Eugenia selloi|Eunicella cavolinii|Euonymus nanoides|Eupatorium areolare|Euphorbia|Euphorbia chamaesyce|Euphorbia ferganensis|Euphorbia franchetii|Euphorbia glareosa|Euphorbia granulata|Euphorbia hirta|Euphorbia humifusa|Euphorbia hyssopifolia|Euphorbia lunulata|Euphorbia maculata|Euphorbia officinarum|Euphorbia pekinensis|Euphorbia segetalis|Euphorbia soongarica|Euphorbia sp.|Euphoria longana|Euplotes raikovi|Euscaphis japonica|Excoecaria acerifolia|Excoecaria agallocha|Excoecaria cochinchinensis|Excoecaria cochinchinensis var. viridis|Excoecaria cochinchinensis var.viridis|Exostema acuminatum|FOOD SAKE|Fagopyrum acutatum|Fagopyrum cymosum|Fagopyrum dibotrys|Fagopyrum megacarpum|Fagraea gracilipes|Falconeria insignis|Fallopia multiflora|Felicia wrightii|Felimida luteorosea|Ficus cordata subsp. salicifolia|Ficus sarmentosa var. thunbergii|Filipendula sp.|Filipendula ulmaria|Flacourtia jangomas|Flueggea sp.|Flueggea virosa|Foeniculum vulgare|Forsteronia refracta|Fragaria|Fragaria x ananassa|Frankenia laevis|Fraxinus ornus|Fridericia chica|Fritillaria ningguoensis|Fructus choerospondiatis|Fructus mori|Fructus phyllanthi|Fucus vesiculosus|Gadus morhua callarias|Galatella sedifolia|Galium palustre|Galium sp.|Galphimia glauca|Ganoderma lucidum|Ganoderma sinense|Garcinia densivenia|Garcinia hombroniana|Garcinia mangostana L|Garcinia xipshuanbannaensis|Gardenia jasminoides|Gardenia turgida|Gardneria insularis|Gazania krebsiana|Gemmingia chinensis|Geranium carolinianum|Geranium collinum|Geranium macrorrhizum|Geranium macrorrhizum L.|Geranium pratense|Geranium pusillum|Geranium robertianum|Geranium sanguineum|Geranium saxatile|Geranium sibiricum|Geranium sp.|Geranium thunbergii|Geranium viscosissimum|Geranium wilfordii|Geum rivale|Geum rupestre|Ginkgo biloba|Gleditsia caspica|Gleichenia quadripartita|Gliricidia sepium|Glossocalyx brevipes|Glycine max|Glycosmis pseudoracemosa|Glycyrrhiza lepidota|Glycyrrhiza pallidiflora|Glycyrrhiza uralensis|Gnaphalium oligandrum|Goniophlebium niponicum|Goniothalamus amuyon|Gracilaria textorii|Grangea maderaspatana|Grevillea striata|Grewia mollis|Guiera senegalensis|Gutierrezia lucida|Gymnocarpium robertianum|Haematoxylon brasiletto|Haematoxylon campechianum|Haematoxylum brasiletto|Haematoxylum campechianum|Haematoxylum sp.|Haloxylon persicum|Hamamelis sp.|Hamamelis virginiana|Haplophyllum ramosissimum|Harpephyllum afrum|Harpephyllum caffrum|Harrisonia perforata|Havardia albicans|Helianthus divaricatus|Helichrysum chionosphaerum|Helichrysum cymosum|Helichrysum graveolens|Helichrysum mixtum|Heliomeris multiflora|Heliotropium floridum|Helminthotheca echioides|Herba acalyphae|Herba selaginellae doederleinii|Heterotheca grandiflora|Hibiscus sabdariffa|Hippophae rhamnoides|Hoffmannia strigillosa|Holomelina lamae|Homo sapiens|Hovenia acerba|Humata pectinata|Humulus lupulus|Humulus sp.|Humulus yunnanensis|Hygrophorus eburneus|Hylotelephium telephium|Hymenoxys insignis|Hypericum ascyron|Hypericum hirsutum|Hyphear tanakae|Hypoestes purpurea|Hyssopus officinalis|Ideopsis similis|Illicium verum|Indigofera linnaei|Inula britannica|Inula grantioides|Iryanthera paraensis|Isaria felina|Isaria fumosorosea|Isodon japonicus|Isopyrum thalictroides|Ixeris denticulata|Ixeris stolonifera|Jacobaea analoga|Jacobaea subalpina|Jacquemontia paniculata|Joannisea sp.|Juglans Regia|Juglans cinerea|Juglans mandshurica|Juglans nigra|Juglans regia|Juglans sigillata|Jugo|Juniperus horizontalis|Juniperus phoenicea|Juniperus rigida var. conferta|Justicia hayatai|Justicia paniculata|Justicia secunda|Kaempferia marginata|Kalanchoe blossfeldiana|Kalanchoe delagoensis|Kalanchoe pinnata|Kalanchoe tubiflora|Kali turgidum|Kaunia saltensis|Khaya ivorensis|Khaya senegalensis|Kitasatospora mediocidica|Koelreuteria paniculata|Koenigia coriaria|Lactarius camphoratus|Lactobacillus casei|Lactuca sativa|Lafoensia glyptocarpa|Lagenaria indica|Lagerstroemia indica|Lagerstroemia speciosa|Lamellodysidea chlorea|Larix cajanderi|Larix kaempferi|Lathyrus nissolia|Lathyrus tingitanus|Lavandula pedunculata|Lavandula vera|Lawsonia inermis|Lemaireocereus griseus|Lens culinaris|Lentinus tigrinus|Leontodon taraxacoides|Leonurus heterophyllus|Leonurus japonicus|Leonurus persicus|Lepisanthes tetraphylla|Leptocereus quadricostatus|Leptolaena diospyroidea|Leptolaena pauciflora|Lespedeza bicolor|Lespedeza tomentosa|Libidibia ferrea|Ligularia dentata|Ligusticum sinense|Lilium brownii|Lilium brownii f. e. brown var. colchesteri wils|Lilium lancifolium|Lilium pumilum|Limonium axillare|Limonium gmelini|Limonium gmelinii|Limonium popovii|Limonium sinense|Limonium wrightii|Liquidambar formosana|Litsea konishii|Litsea lancifolia|Litsea rotundifolia|Litsea szemaois|Lonchocarpus orotinus|Lonicera japonica|Loropetalum chinense|Lotus japonicus|Lupinus corymbosus|Lupinus verbasciformis|Lychnophora columnaris|Lysiana subfalcata|Lythrum salicaria|Macaranga barteri|Macaranga peltata|Macaranga vedeliana|Machilus macrantha|Macrothele gigas|Maesa lanceolata|Magnolia biloba|Magnolia sieboldii|Magnolia sprengeri|Maieta guianensis|Mallotus furetianus|Mallotus japonicus|Mallotus peltatus|Mallotus villosus|Malus domestica|Malus pumila|Mandragora autumnalis|Mangifera Indica|Mangifera indica|Manilkara Zapota|Manilkara zapota|Manilkara zapota cv.Tikal|Marine actinobacterium|Matricaria chamomilla|Matricaria discoidea|Matricaria matricarioides|Medicago sativa|Melaleuca ericifolia|Melaleuca leucadendra|Melaleuca quinquenervia|Melaleuca rhaphiophylla|Melastoma intermedium|Melia azedarach|Melia azedarach var. toosendan|Melissa officinalis|Mentha gattefossei|Mentha spicata|Meryta lanceolata|Metrodorea nigra|Mezoneuron benthamianum|Micarea austroternaria|Miconia cabucu|Miconia myriantha|Micromonospora chalcea|Micromonospora inositola|Microtropis fokienensis|Miliusa sinensis|Miliusa velutina|Millettia duchesnei|Millettia erythrocalyx|Millettia vatkei|Mimosa hamata|Mimusops caffra|Mitracarpus hirtus|Mitracarpus scaber|Modiolus demissus|Momordica charantia|Monochaetia compta|Monodora brevipes|Morella esculenta|Morella rubra|Morinda citrifolia|Mortierella elongata|Morus alba|Morus bombycis|Mucor hiemalis|Muntingia calabura|Murraya exotica|Murraya paniculata|Musa|Musa acuminata|Mutisia spinosa|Mycoacia fuscoatra|Mycobacterium leprae|Mycobacterium tuberculosis|Myrcia multiflora|Myrica gale|Myrica rubra|Myristica fragrans|Myrothamnus flabellifolia|Myrothamnus flabellifolius|Myrsine africana|Myrtus sp.|Nama hispidum|Narcissus concolor|Nauclea officinalis|Negombata magnifica|Nelumbo nucifera|Neobalanocarpus heimii|Neoshirakia japonica|Nepeta granatensis|Nerine bowdenii|Nostoc spongiaeforme|Nothofagus fusca|Nymphaea alba|Nymphaea caerulea|Ocimum tenuiflorum|Oenothera biennis|Oenothera erythrosepala|Oenothera glazioviana|Oenothera grandiflora|Oenothera lamarckiana|Oenothera sp.|Oenothera speciosa|Olea europaea|Oligomeris linifolia|Oncoba echinata|Onobrychis arenaria|Ononis sp.|Ononis vaginalis|Oophaga granulifera|Oophaga pumilio|Ophelia bicornis|Ophiolepis superba|Ophioparma ventosa|Origanum majorana|Origanum vulgare|Ormosia balansae|Orostachys fimbriata|Orostachys japonicus|Osbeckia chinensis|Oscillatoria princeps|Oscillochloris trichoides|Osteophloeum platyspermum|Osteospermum muricatum|Ovatus malisuctus|Ozoroa insignis|Paeonia albiflora|Paeonia anomala|Paeonia emodi|Paeonia lactiflora|Paeonia mouton|Paeonia obovata|Paeonia peregrina|Paeonia rockii|Paeonia suffruticosa|Paeonia veitchii|Panopsis rubescens|Papilio phorcas|Papularia sphaerosperma|Parabenzoin trilobum|Parablechnum minus|Parasenecio hastata|Parastrephia lepidophylla|Paratecoma peroba|Passiflora Caerulea|Passiflora caerulea|Passiflora ligularis|Pastinaca sativa|Pelargonium reniforme|Pelargonium sidoides|Peltogyne porphyrocardia|Peltophorum africanum|Penicillium bilaiae|Penicillium herquei|Penicillium kewense|Penicillium paxilli|Penicillium shearii|Penstemon secundiflorus|Peperomia vulcanica|Perenniporia subacida|Perilla frutescens|Perovskia abrotanoides|Persea kusanoi|Persicaria capitata|Persicaria chinensis|Persicaria hastatosagittata|Persicaria hydropiper|Persicaria muricata|Persicaria nepalensis|Persicaria orientalis|Persicaria pubescens|Persicaria sp.|Petiveria alliaceae|Petriella sordida|Petroselinum crispum|Petunia integrifolia subsp. inflata|Peucedanum oroselinum|Peucedanum praeruptorum|Phaeolus schweinitzii|Phallusia nigra|Phanera championii|Pharbitis nil|Phaseolus vulgaris|Phedimus aizoon|Phedimus kamtschaticus|Phlogacanthus thyrsiflorus|Phoenix dactylifera|Phormia regina|Photinia serratifolia|Phycomyces blakesleeanus|Phyfnnvik eyyfn|Phyllagathis rotundifolia|Phyllanthus Emblica|Phyllanthus amarus|Phyllanthus emblica|Phyllanthus niruri|Phyllanthus sp.|Phyllanthus tenellus|Phyllanthus urinaria|Phyllanthus virgatus|Phyllopsora haemophaea|Physalis alkekengi|Physalis edulis|Phytolacca acinosa|Picea abies|Picea rubens|Picris echioides|Picrorhiza kurrooa|Pieris napi|Pimenta dioica|Pimpinella anisum|Pinalia stricta|Pinus brutia var. eldarica|Pinus densiflora|Pinus edulis|Pinus pinaster|Piper arboreum|Piper nigrum|Piptocarpha oblonga|Pistacia Weinmannifolia|Pistacia chinensis|Pistacia lentiscus|Pistacia sp.|Pistacia weinmannifolia|Pistacia weinmannifolia J.Pisson ex.Franch|Plantago lanceolata|Plantago major|Platycarya Strobilacea|Platycarya strobilacea|Plectosphaerella cucumerina|Plectranthus caninus|Pleiogynium timorense|Pleiogynium timoriense|Pleogyne cunninghami|Pleogyne cunninghamii|Plinia edulis|Polycephalomyces nipponicus|Polygala amara|Polygonum Aviculare|Polygonum Cuspidatum|Polygonum Multiflorum|Polygonum aviculare|Polygonum bistorta|Polygonum cognatum|Polygonum cuspidatum|Polygonum multiflorum|Polygonum sp.|Polypodiodes formosana|Polyporus betulinus|Polyspora axillaris|Popillia japonica|Populus tomentosa|Porophyllum ruderale|Portulaca oleracea|Posidonia oceanica|Potamilla occelata|Potentilla chinense|Potentilla chinensis|Potentilla discolor|Potentilla erecta|Potentilla sp.|Potentilla tormentilla|Potentilla wallichiana|Pouzolzia occidentalis|Premna tomentosa|Prorocentrum micans|Prosopis cineraria|Prosopis farcta|Prosopis spicigera|Prunus avium|Prunus cerasifera|Prunus domestica|Prunus dulcis|Psephellus bellus|Pseudallescheria boydii|Pseudeurotium zonatum|Pseudodistoma arborescens|Pseudolarix amabilis|Pseudolarix kaempferi Gord.|Psidium Guajava|Psidium friedrichsthalianum|Psidium guajava|Psittacanthus cucullaris|Psora corallina|Psoroma pallidum|Psychotria stachyoides|Pteris dactylina|Pteris semipinnata|Pteroxygonum giraldii|Pulicaria wightiana|Pulveroboletus retipes|Punica Granatum|Punica granatum|Punica sp.|Punicaceae|Purshia mexicana|Putranjiva sp.|Pyrola calliantha|Pyrola decorata|Pyrostegia venusta|Quercus acutissima|Quercus cerris L.|Quercus dentata|Quercus faginea|Quercus gambelii|Quercus gilva|Quercus glauca|Quercus ilex|Quercus ilex L.|Quercus infectoria|Quercus palustris Muencch.|Quercus petraea|Quercus petraea Liebl.|Quercus pubescens|Quercus pubescens Willd.|Quercus pyrenaica|Quercus robur|Quercus robur L.|Quercus rubra|Quercus rubra L.|Quercus serrata|Quercus sp.|Quercus suber|Quillaja sp.|Radix euphorbiae pekinensis|Radix ginseng korea|Radix paeoniae rubra|Rana amurensis|Ranunculus ternatus|Rapanea lancifolia|Raphanus sativus|Ratibida mexicana|Rattus rattus|Rauvolfia salicifolia|Rauvolfia vomitoria|Reaumuria hirtella|Reaumuria mucronata|Reaumuria vermiculata|Rehmannia glutinosa|Rhaponticum carthamoides|Rheum Palmatum|Rheum australe|Rheum coreanum|Rheum emodii|Rheum hotaoense|Rheum officinale|Rheum palmatum|Rheum rhabarbarum|Rheum sp.|Rheum tanguticum|Rheum undulatum|Rhinella arenarum|Rhizobium rhizogenes|Rhizoma codonopsis pilosulae|Rhizophora apiculata|Rhizoplaca baranowii|Rhodiola coccinea|Rhodiola crenulata|Rhodiola heterodonta|Rhodiola rosea|Rhodiola sachalinensis|Rhodiola sacra|Rhodiola semenovii|Rhododendron dahuricum|Rhododendron dauricum|Rhododendron sp.|Rhus chinensis|Rhus coriaria|Rhus glabra|Rhus potaninii|Rhus punjabensis|Rhus semialata|Rhus sp.|Rhus typhina|Rhus wallichi|Rhynchophorus ferrugineus|Rhynchosia volubilis|Ribes nigrum|Ricinus communis|Ricinus sp.|Rivularia firma|Roboastra tigris|Rohdiola sacra|Rorippa indica|Rosa Chinensis|Rosa chinensis|Rosa laevigata|Rosa multiflora|Rosa platyacantha|Rosa pomifera|Rosa rugosa|Rosmarinus officinalis|Rubrivivax gelatinosus|Rubus adenotrichos|Rubus adenotrichus|Rubus chamaemorus|Rubus chingii|Rubus corchorifolius|Rubus coreanus|Rubus ellipticus|Rubus glaucus|Rubus idaeus|Rubus lambertianus|Rubus niveus|Rubus palmatus|Rubus pinfaensis|Rubus rosa|Rubus ulmifolius|Rubus wallichianus|Rumex obtusifolius|Ruta microcarpa|Ruta pinnata|Sagittaria sagittifolia|Salmonella enterica subsp. enterica serovar bovismorbificans|Salvia abrotanoides|Salvia dorrii|Salvia greggii|Salvia hispanica|Salvia officinalis|Sanguisorba minor|Sanguisorba officinalis|Sanguisorba sp.|Sapium Sebiferum|Sapium sebiferum|Sarcolaeana multiflora|Sargassum hemiphyllum|Saussurea amara|Saxifraga stolonifera|Schinus molle|Schinus terebinthifolius|Schizonepeta multifida|Schlechtendalia chinensis|Schnella guianensis|Scilla maritima|Sclerocarya birrea|Scolopia chinensis|Scorzonera pseudodivaricata|Secamone afzelii|Sedum crassularia|Sedum sediforme|Sedum takesimense|Sedum takesimense Nakai|Selinum carvifolium|Semecarpus vitiensis|Senecio behnii|Senecio callosus|Senecio inaequidens|Senecio isatideus|Senecio praecox|Senecio renardii|Senecio sinuatus|Senecio subdentatus|Senna reticulata|Senna siamea|Septoria pistaciarum|Serjania marginata|Serratula inermis|Serratula wolffii|Sesbania bispinosa|Sextonia rubra|Shorea sp.|Sia ferox|Sidastrum acuminatum|Sideritis euboea|Sideritis hirsuta|Sinapis alba|Sinularia molesta|Siphoneugena densiflora|Sisyrinchium californicum|Sloanea rhodantha|Smallanthus sonchifolius|Solanum lycopersicum|Solanum melongena|Solanum nigrum|Solidago serotina|Sophora angustifolia|Sophora pachycarpa|Sorbaria sorbifolia|Sorbus tianschanica|Spathodea campanulata|Spatholobus suberectus|Sphaerella laricina|Sphaerella rosigena|Spirographis spallanzani|Stephania elegans|Stephania sutchuenensis|Stephanitis takeyai|Stereospermum cylindricum|Stevia polycephala|Stocksia brahuica|Stomozoa murrayi|Streptoalloteichus hindustanus|Streptomyces PM9|Streptomyces cellulosae|Streptomyces cellulosae TES17|Streptomyces diastatochromogenes|Streptomyces fumanus|Streptomyces hyaluromycini|Streptomyces hyaluromycini MB-PO13T|Streptomyces lavendofoliae|Streptomyces odorifer|Streptomyces orinoci|Streptomyces parvisporogenes|Streptomyces paulus|Streptomyces thermoviolaceus|Strophanthus kombe|Strychnos spinosa|Stryphnodendron adstringens|Sweet Woodruff|Swertia japonica|Swertia swertopsis|Syncarpia hillii|Syncolostemon parviflorus|Syneilesis palmata|Syringa vulgaris|Syzygium Cumini|Syzygium aromaticum|Syzygium cordatum|Syzygium cumini|Syzygium grande|Syzygium kurzii|Syzygium sandwicense|Syzygium sp.|Tagetes erecta|Tagetes filifolia|Tagetes lucida|Tamarix Chinensis|Tamarix aphylla|Tamarix chinensis|Tamarix nilotica|Tamarix senegalensis|Tanacetum coccineum|Taraxacum bicorne|Taraxacum borealisinense|Taraxacum coreanum|Taraxacum mongolicum|Taraxacum officinale|Taraxacum platycarpum|Taxus baccata|Taxus brevifolia|Tectaria subtriphylla|Terminala chebula|Terminalia Bellirica|Terminalia Chebula|Terminalia arjuna|Terminalia bellirica|Terminalia catappa|Terminalia chebula|Terminalia citrina|Terminalia myriocarpa|Terminalia pallida|Terminalia sp.|Terminalia species|Terminalia superba|Tetradium glabrifolium|Tetragonotheca repanda|Tetraneuris acaulis|Teucrium depressum|Teucrium yemense|Thuja plicata|Thunia alba|Thymus|Thymus piperella|Thymus quinquecostatus|Thymus vulgaris|Tilia mandshurica|Tilia sp.|Tilia tomentosa|Todarodes pacificus|Toona sinensis|Toxicodendron succedaneum|Toxicodendron sylvestre|Toxicodendron vernicifluum|Toxicodendron wallichii|Trachelospermum asiaticum|Trachelospermum jasminoides|Trachycarpus Fortunei|Trachycarpus fortunei|Trewia nudiflora|Triadica sebifera|Triaenophora rupestris|Trichilia rubescens|Trichoderma koningi|Tridachia crispata|Triglochin maritima|Trigonella foenum-graecum|Tristaniopsis calobuxus|Triticum aestivum|Tsuga chinensis|Turbinaria ornata|Turbo argyrostoma|Turpinia arguta|Tussilago farfara|Tussilago sp.|Tylosema esculentum|Typha domingensis|Typha domingensis P.|Ulva lactuca|Uncaria donisii|Uncaria gambir|Unonopsis glaucopetala|Unonopsis spectabilis|Urospermum picroides|Urtica triangularis|Usnea undulata|Utricularia australis|Uvaria griffithii|Vaccinium corymbosum|Vaccinium macrocarpon|Vaccinium myrtillus|Vachellia horrida|Vachellia nilotica|Vahlia capensis|Valeriana fedtschenkoi|Valeriana officinalis|Varronia curassavica|Vepris louisii|Veratrum dahuricum|Verbascum thapsiforme|Vernicia cordata|Vernicia montana|Vernonia menthaefolia|Vernonia steetziana|Veronica arvensis|Vibrio fluvialis|Vibrio parahaemolyticus|Viburnum cylindricum|Vicia sylvatica|Virgilia divaricata|Virola multinervia|Viscaria viscosa|Viscum album|Visnea mocanera|Vitellaria paradoxa|Vitex negundo|Vitis Vinifera|Vitis vinifera|Woodfordia fruticosa|Woodfordia uniflora|Wulfenia orientalis|Xenia viridis|Xenoacremonium recifei|Xylaria cubensis|Zanthoxylum monophyllum|Zephyranthes sulphurea|Zieria smithii|Zingiber|Zingiber officinale|Ziziphus jujuba|Zostera marina|basil|cacao|chia|clove|common myrtle|garlic|leandra subseriata|mango tree|moringa|parsley|pomegranate|potato|quercus humboldtii|rooibos|soybean|terminalia bellirica|tomato

>  <collections>  (729) 
ANPDB|AfroCancer|AfroDB|Australian natural products|BIOFACQUIM|BitterDB|CMAUP (cCollective molecular activities of useful plants)|ChEBI NPs|ChemSpider NPs|ConMedNP|EMNPD|Exposome-explorer|FooDB|GNPS (Global Natural Products Social Molecular Networking)|HIM (Herbal Ingredients in-vivo Metabolism database)|HIT (Herbal Ingredients Targets)|InPACdb|InflamNat|InterBioScreen Ltd|KNApSaCK|Latin America dataset|Marine Natural Products|Mitishamba database|NANPDB (Natural Products from Northern African Sources)|NAPRORE-CR|NCI DTP data|NPACT|NPASS|NPCARE|NPDBEjeCol|NPEdia|NuBBEDB|PeruNPDB|Phenol-explorer|Phyto4Health|PhytoLab phyproof® Reference Substances|SANCDB|StreptomeDB|Super Natural II|TCMDB-Taiwan (Traditional Chinese Medicine database)|TCMID (Traditional Chinese Medicine Integrated Database)|TIPdb (database of Taiwan indigenous plants)|TPPT (Toxic Plants–PhytoToxins)|TerPenoids database embedded with Content information (TPCN)|UNPD (Universal Natural Products Database)|VietHerb|Watermelon|WikiData Natural Products|p-ANAPL

>  <dois>  (729) 
10.1002/(SICI)1096-9888(199706)32:6<645::AID-JMS518>3.0.CO;2-P|10.1002/(SICI)1099-1565(200001/02)11:1<52::AID-PCA482>3.0.CO;2-D|10.1002/(SICI)1099-1573(199605)10:3<260::AID-PTR811>3.0.CO;2-B|10.1002/(SICI)1099-1573(199702)11:1<22::AID-PTR951>3.0.CO;2-3|10.1002/(SICI)1099-1573(199805)12:3<159::AID-PTR209>3.0.CO;2-C|10.1002/(SICI)1099-1573(199811)12:7<488::AID-PTR344>3.0.CO;2-0|10.1002/1099-1573(200008)14:5<371::AID-PTR625>3.0.CO;2-F|10.1002/1521-4184(20008)333:8<275::AID-ARDP275>3.0.CO;2-4|10.1002/9780470114735.HAWLEY07659|10.1002/9780470744307.gat218|10.1002/CBDV.200800139|10.1002/CBDV.201100021|10.1002/CBDV.201100219|10.1002/CHIN.199746233|10.1002/CHIN.200307143|10.1002/CHIN.200447209|10.1002/CJOC.201190024|10.1002/HLCA.19470300226|10.1002/HLCA.200490070|10.1002/HLCA.200590178|10.1002/HLCA.200800420|10.1002/HLCA.200890084|10.1002/HLCA.200890222|10.1002/HLCA.200890234|10.1002/HLCA.201000067|10.1002/HLCA.201000250|10.1002/HLCA.201100267|10.1002/JCCS.199500128|10.1002/JCCS.199500136|10.1002/JCCS.199700025|10.1002/JCCS.199900085|10.1002/JCCS.200000030|10.1002/JCCS.200500117|10.1002/JCCS.200700228|10.1002/JCCS.200900093|10.1002/JMS.395|10.1002/JPS.2600551210|10.1002/JSFA.2740330512|10.1002/JSFA.6627|10.1002/JSSC.200390053|10.1002/JSSC.200390054|10.1002/JSSC.200500003|10.1002/MNFR.200400064|10.1002/PCA.1312|10.1002/PCA.548|10.1002/PCA.627|10.1002/PTR.1214|10.1002/PTR.1513|10.1002/PTR.1597|10.1002/PTR.1834|10.1002/PTR.2650040508|10.1002/PTR.3439|10.1002/PTR.785|10.1002/food.19880321030|10.1006/JFCA.1999.0868|10.1006/JFCA.2002.1071|10.1007/BF00487242|10.1007/BF00564822|10.1007/BF00565207|10.1007/BF00566112|10.1007/BF00567786|10.1007/BF00568650|10.1007/BF00570237|10.1007/BF00570720|10.1007/BF00571226|10.1007/BF00571236|10.1007/BF00575035|10.1007/BF00575192|10.1007/BF00575727|10.1007/BF00579081|10.1007/BF00597593|10.1007/BF00597729|10.1007/BF00598183|10.1007/BF00598602|10.1007/BF00607556|10.1007/BF00629750|10.1007/BF00629791|10.1007/BF00629850|10.1007/BF00638415|10.1007/BF00982301|10.1007/BF01100201|10.1007/BF01386200|10.1007/BF02234915|10.1007/BF02236305|10.1007/BF02236416|10.1007/BF02254802|10.1007/BF02273935|10.1007/BF02273936|10.1007/BF02323304|10.1007/BF02467181|10.1007/BF02488668|10.1007/BF02541505|10.1007/BF02858780|10.1007/BF02904662|10.1007/BF02908196|10.1007/BF02977342|10.1007/BF02978239|10.1007/BF02979129|10.1007/BF02979144|10.1007/BF02979196|10.1007/S00216-007-1298-8|10.1007/S00217-002-0603-1|10.1007/S00217-003-0762-8|10.1007/S00217-018-3201-6|10.1007/S002170000265|10.1007/S002170100354|10.1007/S002990050656|10.1007/S00394-019-01987-6|10.1007/S00425-015-2460-8|10.1007/S10600-005-0012-3|10.1007/S10600-005-0064-4|10.1007/S10600-005-0115-X|10.1007/S10600-005-0148-1|10.1007/S10600-006-0064-Z|10.1007/S10600-006-0267-3|10.1007/S10600-009-9174-8|10.1007/S10600-009-9289-Y|10.1007/S10600-009-9293-2|10.1007/S10600-009-9379-X|10.1007/S10600-010-9649-7|10.1007/S10600-011-0014-2|10.1007/S10600-011-0015-1|10.1007/S10600-011-0016-0|10.1007/S10600-011-0025-Z|10.1007/S10600-011-9852-1|10.1007/S10600-011-9895-3|10.1007/S10600-011-9905-5|10.1007/S10600-011-9907-3|10.1007/S10600-011-9908-2|10.1007/S10600-011-9956-7|10.1007/S10600-012-0124-5|10.1007/S10600-012-0285-2|10.1007/S10600-015-1336-2|10.1007/S10600-017-1993-4|10.1007/S10600-017-2124-Y|10.1007/S10600-017-2181-2|10.1007/S10600-018-2437-5|10.1007/S11130-009-0133-0|10.1007/S11130-020-00822-2|10.1007/S11418-009-0378-9|10.1007/S11947-012-0877-7|10.1007/S12272-011-0205-1|10.1007/s00425-015-2460-8|10.1007/s11130-012-0286-0|10.1007/s11130-020-00822-2|10.1016/0021-9673(95)00765-2|10.1016/0021-9673(96)00169-0|10.1016/0031-9422(67)85008-8|10.1016/0031-9422(73)80578-3|10.1016/0031-9422(73)85145-3|10.1016/0031-9422(75)85321-0|10.1016/0031-9422(82)83042-2|10.1016/0031-9422(83)83043-X|10.1016/0031-9422(88)80184-5|10.1016/0031-9422(88)80455-2|10.1016/0031-9422(88)80753-2|10.1016/0031-9422(88)80808-2|10.1016/0031-9422(88)83145-5|10.1016/0031-9422(90)83080-K|10.1016/0031-9422(90)85309-4|10.1016/0031-9422(90)85341-C|10.1016/0031-9422(90)89051-A|10.1016/0031-9422(91)83676-C|10.1016/0031-9422(91)85260-7|10.1016/0031-9422(92)80169-F|10.1016/0031-9422(92)80352-F|10.1016/0031-9422(92)80375-O|10.1016/0031-9422(92)83334-U|10.1016/0031-9422(93)85416-O|10.1016/0031-9422(93)85448-Z|10.1016/0031-9422(93)85545-3|10.1016/0031-9422(93)85553-4|10.1016/0031-9422(94)00603-Q|10.1016/0031-9422(94)00934-L|10.1016/0031-9422(95)00378-K|10.1016/0031-9422(95)00924-8|10.1016/0031-9422(96)00146-X|10.1016/0304-3770(86)90119-1|10.1016/0305-1978(76)90045-4|10.1016/0305-1978(90)90119-Z|10.1016/0305-1978(93)90061-U|10.1016/0305-1978(94)00092-U|10.1016/0305-1978(94)90063-9|10.1016/0378-8741(87)90051-1|10.1016/0378-8741(94)90102-3|10.1016/0963-9969(94)00046-B|10.1016/J.ARABJC.2013.12.011|10.1016/J.BIOPHA.2018.10.171|10.1016/J.BMC.2007.10.072|10.1016/J.BMC.2008.09.021|10.1016/J.BMC.2011.07.006|10.1016/J.BMC.2014.02.014|10.1016/J.BMCL.2011.10.073|10.1016/J.BMCL.2011.11.109|10.1016/J.BMCL.2014.03.014|10.1016/J.BMCL.2015.05.089|10.1016/J.BSE.2013.03.020|10.1016/J.BSE.2015.09.007|10.1016/J.CANLET.2009.05.040|10.1016/J.CHROMA.2007.01.090|10.1016/J.CHROMA.2014.04.007|10.1016/J.FCT.2004.01.008|10.1016/J.FCT.2007.07.003|10.1016/J.FITOTE.2004.01.011|10.1016/J.FITOTE.2004.10.017|10.1016/J.FITOTE.2007.05.003|10.1016/J.FITOTE.2008.03.005|10.1016/J.FITOTE.2009.04.009|10.1016/J.FITOTE.2009.09.013|10.1016/J.FITOTE.2011.08.014|10.1016/J.FITOTE.2011.08.020|10.1016/J.FITOTE.2012.06.007|10.1016/J.FITOTE.2016.08.013|10.1016/J.FOODCHEM.2005.02.007|10.1016/J.FOODCHEM.2005.11.053|10.1016/J.FOODCHEM.2006.06.063|10.1016/J.FOODCHEM.2006.11.008|10.1016/J.FOODCHEM.2020.128444|10.1016/J.FOODCONT.2014.02.001|10.1016/J.FOODRES.2004.10.005|10.1016/J.FOODRES.2011.01.009|10.1016/J.FSHW.2014.05.001|10.1016/J.INDCROP.2018.08.004|10.1016/J.JEP.2005.02.029|10.1016/J.JEP.2008.06.005|10.1016/J.JFCA.2003.09.010|10.1016/J.JFF.2015.12.019|10.1016/J.JPBA.2016.01.021|10.1016/J.JPBA.2017.08.019|10.1016/J.LFS.2004.12.024|10.1016/J.NEURO.2013.04.006|10.1016/J.PHYMED.2006.11.021|10.1016/J.PHYTOCHEM.2003.10.012|10.1016/J.PHYTOCHEM.2004.08.020|10.1016/J.PHYTOCHEM.2004.11.016|10.1016/J.PHYTOCHEM.2006.05.017|10.1016/J.PHYTOCHEM.2007.02.020|10.1016/J.PHYTOCHEM.2007.03.010|10.1016/J.PHYTOCHEM.2007.04.020|10.1016/J.PHYTOCHEM.2007.05.016|10.1016/J.PHYTOCHEM.2007.05.031|10.1016/J.PHYTOCHEM.2009.04.008|10.1016/J.PHYTOCHEM.2010.03.018|10.1016/J.PHYTOCHEM.2011.01.010|10.1016/J.PHYTOCHEM.2011.02.020|10.1016/J.PHYTOCHEM.2011.07.007|10.1016/J.TET.2011.11.062|10.1016/S0003-2670(01)01241-7|10.1016/S0003-2670(97)00668-5|10.1016/S0021-9673(00)00480-5|10.1016/S0021-9673(00)01030-X|10.1016/S0021-9673(01)00598-2|10.1016/S0021-9673(01)00913-X|10.1016/S0021-9673(01)87147-8|10.1016/S0021-9673(01)87655-X|10.1016/S0021-9673(01)87884-5|10.1016/S0021-9673(01)88752-5|10.1016/S0021-9673(01)89414-0|10.1016/S0021-9673(01)96734-2|10.1016/S0021-9673(96)00525-0|10.1016/S0021-9673(98)00294-5|10.1016/S0021-9673(99)00569-5|10.1016/S0031-9422(00)80097-7|10.1016/S0031-9422(00)80098-9|10.1016/S0031-9422(00)80675-5|10.1016/S0031-9422(00)82297-9|10.1016/S0031-9422(00)82451-6|10.1016/S0031-9422(00)89089-5|10.1016/S0031-9422(00)89647-8|10.1016/S0031-9422(00)90152-3|10.1016/S0031-9422(00)90858-6|10.1016/S0031-9422(00)94507-2|10.1016/S0031-9422(00)94532-1|10.1016/S0031-9422(00)95107-0|10.1016/S0031-9422(00)97175-9|10.1016/S0031-9422(00)98234-7|10.1016/S0031-9422(01)00180-7|10.1016/S0031-9422(01)00273-4|10.1016/S0031-9422(01)00365-X|10.1016/S0031-9422(01)00449-6|10.1016/S0031-9422(02)00435-1|10.1016/S0031-9422(03)00112-2|10.1016/S0031-9422(03)00198-5|10.1016/S0031-9422(03)00437-0|10.1016/S0031-9422(82)85054-1|10.1016/S0031-9422(96)00329-9|10.1016/S0031-9422(96)00888-6|10.1016/S0031-9422(97)00370-1|10.1016/S0031-9422(97)00670-5|10.1016/S0031-9422(97)00683-3|10.1016/S0031-9422(97)01078-9|10.1016/S0031-9422(97)01118-7|10.1016/S0031-9422(98)00107-1|10.1016/S0031-9422(98)00124-1|10.1016/S0031-9422(98)00667-0|10.1016/S0031-9422(99)00070-9|10.1016/S0031-9422(99)00236-8|10.1016/S0031-9422(99)00502-6|10.1016/S0040-4020(01)83494-3|10.1016/S0040-4039(00)93123-X|10.1016/S0044-4057(73)80039-5|10.1016/S0165-1161(96)90262-9|10.1016/S0304-3835(01)00708-X|10.1016/S0305-1978(02)00057-1|10.1016/S0305-1978(97)00032-X|10.1016/S0308-8146(02)00112-7|10.1016/S0308-8146(02)00590-3|10.1016/S0308-8146(03)00066-9|10.1016/S0308-8146(03)00127-4|10.1016/S0308-8146(99)00179-X|10.1016/S0367-326X(01)00295-7|10.1016/S0367-326X(99)00060-X|10.1016/S0378-8741(01)00363-4|10.1016/S0378-8741(02)00047-8|10.1016/S0378-8741(96)01421-3|10.1016/S0378-8741(98)00245-1|10.1016/S0889-1575(02)91071-9|10.1016/S0926-6690(00)00088-1|10.1016/S0963-9969(00)00070-3|10.1016/S0963-9969(99)00095-2|10.1016/S1875-5364(12)60009-0|10.1016/S2221-1691(12)60050-1|10.1016/j.bmc.2007.10.072|10.1016/j.bmc.2014.02.014|10.1016/j.bmcl.2011.10.073|10.1016/j.bmcl.2013.09.071|10.1016/j.bmcl.2015.05.089|10.1016/j.canlet.2006.01.001|10.1016/j.chroma.2014.04.007|10.1016/j.fitote.2016.08.013|10.1016/j.foodchem.2006.11.048|10.1016/j.foodchem.2020.128444|10.1016/j.foodcont.2014.02.001|10.1016/j.jep.2008.06.005|10.1016/j.jfca.2018.09.012|10.1016/j.phytochem.2003.10.012|10.1016/j.phytochem.2004.11.016|10.1016/j.phytochem.2010.03.018|10.1016/s0960-894x(99)00702-7|10.1021/ACS.JNATPROD.5B01073|10.1021/ACS.JNATPROD.9B00107|10.1021/JF000150T|10.1021/JF00022A013|10.1021/JF00035A076|10.1021/JF00052A008|10.1021/JF000670O|10.1021/JF00078A018|10.1021/JF0009347|10.1021/JF010526I|10.1021/JF011064B|10.1021/JF011178N|10.1021/JF020028P|10.1021/JF0201327|10.1021/JF025832Q|10.1021/JF030374M|10.1021/JF0346298|10.1021/JF040083T|10.1021/JF049450R|10.1021/JF050579Q|10.1021/JF050579Q.S001|10.1021/JF051513Y|10.1021/JF060251C|10.1021/JF0615247|10.1021/JF0629080|10.1021/JF071475D|10.1021/JF100233Y|10.1021/JF2011535|10.1021/JF204660C|10.1021/JF802152Z|10.1021/JF802900B|10.1021/JF802974M|10.1021/JF900695S|10.1021/JF904593N|10.1021/JF9502461|10.1021/JF9505335|10.1021/JF950652K|10.1021/JF9601628|10.1021/JF960486W|10.1021/JF960741C|10.1021/JF970863K|10.1021/JF980049C|10.1021/JF980223X|10.1021/JF990019P|10.1021/JF990092F|10.1021/JF990665O|10.1021/JF990972U|10.1021/JF9909757|10.1021/JF9912506|10.1021/NP000053U|10.1021/NP000061A|10.1021/NP000135I|10.1021/NP000292H|10.1021/NP000306J|10.1021/NP000350Z|10.1021/NP010035S|10.1021/NP010172P|10.1021/NP010393V|10.1021/NP0105578|10.1021/NP020018I|10.1021/NP0201523|10.1021/NP020467I|10.1021/NP020576X|10.1021/NP020608G|10.1021/NP0495985|10.1021/NP0497245|10.1021/NP0499158|10.1021/NP0500272|10.1021/NP0705615|10.1021/NP300212C|10.1021/NP50005A014|10.1021/NP50018A003|10.1021/NP50030A024|10.1021/NP50042A008|10.1021/NP50045A034|10.1021/NP50046A034|10.1021/NP50048A056|10.1021/NP50056A033|10.1021/NP50057A037|10.1021/NP50081A004|10.1021/NP8004634|10.1021/NP900530N|10.1021/NP960037Q|10.1021/NP960451Q|10.1021/NP960483D|10.1021/NP970336V|10.1021/NP970428K|10.1021/NP980543A|10.1021/NP990207+|10.1021/NP990271R|10.1021/NP990581+|10.1021/NP9906121|10.1021/acs.jnatprod.0c00395|10.1021/acs.jnatprod.5b01073|10.1021/acs.jnatprod.8b00984|10.1021/acs.jnatprod.9b00107|10.1021/jf100233y|10.1021/jf101029a|10.1021/jf4025135|10.1021/np000292h|10.1021/np020018i|10.1021/np0495985|10.1021/np0705615|10.1021/np300212c|10.1021/np50056a033|10.1021/np50057a037|10.1021/np500715x|10.1021/np8004634|10.1021/np900530n|10.1021/np960451q|10.1021/np990271r|10.1021/np9906121|10.1023/B:CONC.0000003425.70068.85|10.1023/B:CONC.0000025477.18086.8B|10.1023/B:CONC.0000025480.17399.66|10.1038/SCIENTIFICAMERICAN08131892-13860DSUPP|10.1038/sj.ejcn.1602744|10.1039/CT9222100066|10.1039/J39680000854|10.1046/J.1365-2621.1998.00219.X|10.1046/J.1432-1033.2003.03729.X|10.1046/J.1472-765X.2000.00692.X|10.1051/ctv/20173202093|10.1055/S-0028-1097531|10.1055/S-0028-1097578|10.1055/S-0028-1097584|10.1055/S-0028-1097641|10.1055/S-0028-1097643|10.1055/S-0028-1097868|10.1055/S-0028-1099524|10.1055/S-0028-1099548|10.1055/S-0028-1099567|10.1055/S-0028-1099955|10.1055/S-0028-1100041|10.1055/S-0028-1100049|10.1055/S-0030-1251818|10.1055/S-0031-1273555|10.1055/S-0035-1545201|10.1055/S-2000-8540|10.1055/S-2000-8547|10.1055/S-2000-8633|10.1055/S-2002-32070|10.1055/S-2002-32549|10.1055/S-2002-35657|10.1055/S-2004-832617|10.1055/S-2006-951729|10.1055/S-2006-957671|10.1055/S-2006-957860|10.1055/S-2006-957899|10.1055/S-2006-959536|10.1055/S-2006-959610|10.1055/S-2006-959635|10.1055/S-2006-959826|10.1055/S-2006-960021|10.1055/S-2006-960220|10.1055/S-2006-960871|10.1055/S-2006-960977|10.1055/S-2006-961558|10.1055/S-2006-961707|10.1055/S-2006-962094|10.1055/S-2006-962499|10.1055/S-2007-969559|10.1055/S-2007-969561|10.1055/S-2007-969797|10.1055/S-2007-981551|10.1055/S-2008-1034309|10.1055/S-2008-1074562|10.1071/BT9690133|10.1071/CH9761351|10.1071/bt9690133|10.1074/JBC.273.35.22260|10.1076/1388-0209(200009)3841-AFT284|10.1078/0944-7113-00112|10.1078/1433-187X-00307|10.1080/00021369.1981.10864661|10.1080/00021369.1982.10865200|10.1080/0957126032000114982|10.1080/09637480500524299|10.1080/09637486.2017.1418845|10.1080/1028602021000049087|10.1080/10286020290024022|10.1080/10286020903451757|10.1080/10575639708041195|10.1080/1071576021000006707|10.1080/13102818.2006.10817302|10.1080/13880200490505636|10.1080/14786410601035811|10.1080/14786410802696429|10.1080/14786419.2010.488631|10.1080/14786419.2010.523827|10.1080/15216549900201883|10.1081/JLC-120008754|10.1089/JMF.2007.571|10.1093/CARCIN/BGI347|10.1093/JAOAC/83.6.1480|10.1097/00001813-200111000-00009|10.1111/1750-3841.12404|10.1111/J.1365-2621.1983.TB14902.X|10.1111/J.1365-2621.1987.TB14056.X|10.1111/J.1365-2621.1994.TB05584.X|10.1111/J.1745-4557.2003.TB00243.X|10.1111/J.1745-4557.2006.00096.X|10.1139/B82-307|10.1139/O04-100|10.1155/2017/6873651|10.1159/000235378|10.1159/000236088|10.1177/1934578X0900400602|10.1177/1934578X1000500721|10.1186/S12906-018-2154-4|10.1186/s12906-015-0838-6|10.1186/s12906-015-0873-3|10.1186/s12906-017-1555-0|10.1186/s12906-018-2154-4|10.1201/9781315120157-15|10.1211/146080899128734325|10.1248/BPB.16.787|10.1248/BPB.20.1017|10.1248/BPB.20.401|10.1248/BPB.20.656|10.1248/BPB.22.157|10.1248/BPB.23.1328|10.1248/BPB.24.1443|10.1248/BPB.25.1101|10.1248/BPB.31.149|10.1248/CPB.14.877|10.1248/CPB.28.2850|10.1248/CPB.29.2862|10.1248/CPB.34.941|10.1248/CPB.36.2940|10.1248/CPB.37.2071|10.1248/CPB.37.2531|10.1248/CPB.38.2687|10.1248/CPB.38.3004|10.1248/CPB.39.2849|10.1248/CPB.39.3276|10.1248/CPB.39.3346|10.1248/CPB.39.881|10.1248/CPB.40.1383|10.1248/CPB.41.1214|10.1248/CPB.41.672|10.1248/CPB.42.1922|10.1248/CPB.43.1674|10.1248/CPB.46.113|10.1248/CPB.48.1114|10.1248/CPB.48.201|10.1248/CPB.49.1036|10.1248/CPB.49.396|10.1248/CPB.49.537|10.1248/CPB.49.887|10.1248/CPB.50.1484|10.1248/CPB.50.208|10.1248/CPB.50.605|10.1248/CPB.50.841|10.1248/CPB.52.776|10.1248/CPB.53.1600|10.1248/CPB.53.296|10.1248/CPB.53.305|10.1248/CPB.53.938|10.1248/CPB.54.136|10.1248/CPB.54.740|10.1248/CPB.55.492|10.1248/CPB.55.598|10.1248/CPB.55.804|10.1248/CPB.57.1089|10.1248/CPB.57.1284|10.1248/CPB.57.269|10.1248/CPB.57.532|10.1248/CPB.58.1227|10.1248/YAKUSHI1881.57.2_140|10.1248/YAKUSHI1881.57.8_800|10.1248/YAKUSHI1947.104.2_157|10.1248/YAKUSHI1947.107.12_1001|10.1248/YAKUSHI1947.117.12_1028|10.1271/BBB.57.1745|10.1271/BBB.58.1087|10.1271/BBB.59.1780|10.1271/BBB.80832|10.1271/BBB.80897|10.1271/BBB1961.45.1251|10.1271/BBB1961.46.1079|10.14233/AJCHEM.2014.16143A|10.1515/HF.1999.096|10.1515/PJFNS-2017-0005|10.1515/ZNB-1986-1125|10.1515/ZNB-2005-0513|10.1515/ZNB-2006-0111|10.1515/ZNC-1992-7-807|10.1515/ZNC-1994-11-1225|10.1515/ZNC-1997-7-805|10.1515/ZNC-2001-1-203|10.1515/ZNC-2001-9-1012|10.1515/ZNC-2003-9-1013|10.1590/S0103-50532006000200010|10.21273/HORTSCI.29.4.313|10.21548/25-2-2143|10.21608/BFSA.1998.67765|10.21608/BFSA.2003.65470|10.3109/10408447709082600|10.3109/13880209409083017|10.3136/NSKKK.50.180|10.3389/FNTPR.2023.1147195|10.3390/IJMS160715625|10.3390/MOLECULES14041456|10.3390/MOLECULES15042178|10.3390/MOLECULES15107153|10.3390/MOLECULES16108305|10.3390/MOLECULES23020469|10.3390/MOLECULES23030580|10.3390/NU11020402|10.3390/NU11061377|10.3390/PLANTS10071330|10.3390/foods9060770|10.3390/molecules22010011|10.3390/molecules24162945|10.3390/molecules24183212|10.3390/plants11030377|10.3390/plants6040050|10.36953/ECJ.2007.080323|10.37360/blacpma.20.19.2.10|10.38212/2224-6614.2935|10.3892/or.7.6.1221|10.3945/jn.109.113613|10.3987/COM-03-9882|10.3998/ARK.5550190.0012.214|10.4236/FNS.2012.33050|10.4268/CJCMM20141227|10.5012/BKCS.2009.30.9.2098|10.5246/JCPS.2011.02.019|10.5511/PLANTBIOTECHNOLOGY.14.123|10.5530/phrev.2020.14.7|10.5539/JPS.V1N2P61|10.5586/ASBP.1980.025|10.5586/ASBP.1991.011|10.5586/ASBP.1995.007|10.5586/ASBP.1998.029|10.5897/AJPP10.363|10.7235/HORT.2013.12200|10.7897/2230-8407.089160

>  <synonyms>  (729) 
nan

>  <cas>  (729) 
149-91-7|65271-60-5|137657-43-3

$$$$

     RDKit          2D

 31 36  0  0  0  0  0  0  0  0999 V2000
    3.1356    2.3192    0.0000 C   0  0  0  0  0  0  0  0  0  0  0  0
    2.8840    0.8404    0.0000 C   0  0  0  0  0  0  0  0  0  0  0  0
    1.5398    0.1748    0.0000 C   0  0  0  0  0  0  0  0  0  0  0  0
    1.7575   -1.3093    0.0000 C   0  0  0  0  0  0  0  0  0  0  0  0
    0.4133   -1.9750    0.0000 C   0  0  0  0  0  0  0  0  0  0  0  0
   -0.6352   -0.9023    0.0000 C   0  0  0  0  0  0  0  0  0  0  0  0
   -2.1339   -0.9636    0.0000 C   0  0  0  0  0  0  0  0  0  0  0  0
   -2.8301   -2.2923    0.0000 C   0  0  0  0  0  0  0  0  0  0  0  0
   -4.3289   -2.3536    0.0000 C   0  0  0  0  0  0  0  0  0  0  0  0
   -5.1314   -1.0864    0.0000 C   0  0  0  0  0  0  0  0  0  0  0  0
   -6.6301   -1.1477    0.0000 C   0  0  0  0  0  0  0  0  0  0  0  0
   -7.4327    0.1195    0.0000 C   0  0  0  0  0  0  0  0  0  0  0  0
   -8.9314    0.0582    0.0000 O   0  0  0  0  0  0  0  0  0  0  0  0
   -6.7364    1.4482    0.0000 C   0  0  0  0  0  0  0  0  0  0  0  0
   -5.2377    1.5095    0.0000 C   0  0  0  0  0  0  0  0  0  0  0  0
   -4.4352    0.2423    0.0000 C   0  0  0  0  0  0  0  0  0  0  0  0
   -3.7389    1.5709    0.0000 C   0  0  0  0  0  0  0  0  0  0  0  0
   -2.9364    0.3036    0.0000 C   0  0  0  0  0  0  0  0  0  0  0  0
   -2.2402    1.6323    0.0000 C   0  0  0  0  0  0  0  0  0  0  0  0
   -0.7414    1.6936    0.0000 C   0  0  0  0  0  0  0  0  0  0  0  0
    0.0611    0.4264    0.0000 C   0  0  0  0  0  0  0  0  0  0  0  0
    0.8924    1.6749    0.0000 C   0  0  0  0  0  0  0  0  0  0  0  0
    3.2363   -1.5609    0.0000 O   0  0  0  0  0  0  0  0  0  0  0  0
    3.9325   -0.2323    0.0000 C   0  0  0  0  0  0  0  0  0  0  0  0
    4.8631   -1.4087    0.0000 C   0  0  0  0  0  0  0  0  0  0  0  0
    6.3472   -1.1910    0.0000 C   0  0  0  0  0  0  0  0  0  0  0  0
    6.9007    0.2031    0.0000 C   0  0  0  0  0  0  0  0  0  0  0  0
    8.3848    0.4208    0.0000 C   0  0  0  0  0  0  0  0  0  0  0  0
    9.3154   -0.7556    0.0000 O   0  0  0  0  0  0  0  0  0  0  0  0
    5.9701    1.3795    0.0000 C   0  0  0  0  0  0  0  0  0  0  0  0
    4.4860    1.1618    0.0000 N   0  0  0  0  0  0  0  0  0  0  0  0
  2  1  1  6
  2  3  1  0
  3  4  1  1
  4  5  1  1
  6  5  1  1
  6  7  1  0
  7  8  1  6
  8  9  1  0
  9 10  2  0
 10 11  1  0
 11 12  1  0
 12 13  1  1
 12 14  1  0
 14 15  1  0
 15 16  1  0
 16 17  1  1
 16 18  1  0
 18 19  1  1
 19 20  1  0
 20 21  1  0
 21 22  1  1
  4 23  1  0
 23 24  1  0
 24 25  1  1
 25 26  1  0
 26 27  1  0
 27 28  1  6
 28 29  1  0
 27 30  1  0
 30 31  1  0
 24  2  1  0
 21  3  1  0
 31 24  1  0
 21  6  1  0
 18  7  1  0
 16 10  1  0
M  END
>  <identifier>  (730) 
CNP0378182.2

>  <canonical_smiles>  (730) 
C[C@H]1[C@H]2[C@H](C[C@H]3[C@@H]4CC=C5C[C@@H](O)CC[C@]5(C)[C@H]4CC[C@]23C)O[C@]12CC[C@@H](CO)CN2

>  <standard_inchi>  (730) 
InChI=1S/C27H43NO3/c1-16-24-23(31-27(16)11-6-17(15-29)14-28-27)13-22-20-5-4-18-12-19(30)7-9-25(18,2)21(20)8-10-26(22,24)3/h4,16-17,19-24,28-30H,5-15H2,1-3H3/t16-,17+,19-,20+,21-,22-,23-,24-,25-,26-,27+/m0/s1

>  <standard_inchi_key>  (730) 
UEWQNGMVYNREBE-JCUATARGSA-N

>  <name>  (730) 
nan

>  <iupac_name>  (730) 
(1~{S},2~{S},4~{S},5'~{R},6~{R},7~{S},8~{R},9~{S},12~{S},13~{R},16~{S})-5'-(hydroxymethyl)-7,9,13-trimethyl-spiro[5-oxapentacyclo[10.8.0.0^{2,9}.0^{4,8}.0^{13,18}]icos-18-ene-6,2'-piperidine]-16-ol

>  <annotation_level>  (730) 
4

>  <total_atom_count>  (730) 
74

>  <heavy_atom_count>  (730) 
31

>  <molecular_weight>  (730) 
429.65

>  <exact_molecular_weight>  (730) 
429.32429

>  <molecular_formula>  (730) 
C27H43NO3

>  <alogp>  (730) 
4.26

>  <topological_polar_surface_area>  (730) 
61.72

>  <rotatable_bond_count>  (730) 
1

>  <hydrogen_bond_acceptors>  (730) 
4

>  <hydrogen_bond_donors>  (730) 
3

>  <hydrogen_bond_acceptors_lipinski>  (730) 
4

>  <hydrogen_bond_donors_lipinski>  (730) 
3

>  <lipinski_rule_of_five_violations>  (730) 
0

>  <aromatic_rings_count>  (730) 
0

>  <qed_drug_likeliness>  (730) 
0.55

>  <formal_charge>  (730) 
0

>  <fractioncsp3>  (730) 
0.93

>  <number_of_minimal_rings>  (730) 
6

>  <van_der_walls_volume>  (730) 
nan

>  <contains_sugar>  (730) 
False

>  <contains_ring_sugars>  (730) 
False

>  <contains_linear_sugars>  (730) 
False

>  <murcko_framework>  (730) 
O1C2CC3C4CC=C5CCCCC5C4CCC3C2CC16NCCCC6

>  <np_likeness>  (730) 
3.17

>  <chemical_class>  (730) 
Steroids and steroid derivatives

>  <chemical_sub_class>  (730) 
Steroidal alkaloids

>  <chemical_super_class>  (730) 
Lipids and lipid-like molecules

>  <direct_parent_classification>  (730) 
Spirosolanes and derivatives

>  <np_classifier_pathway>  (730) 
Alkaloids

>  <np_classifier_superclass>  (730) 
Pseudoalkaloids

>  <np_classifier_class>  (730) 
Steroidal alkaloids

>  <np_classifier_is_glycoside>  (730) 
False

>  <organisms>  (730) 
Solanum asperum

>  <collections>  (730) 
Latin America dataset|NuBBEDB|Super Natural II|WikiData Natural Products

>  <dois>  (730) 
10.3987/R-1985-12-3111

>  <synonyms>  (730) 
Solaparnaine, Spirosol-5-ene-327-diol

>  <cas>  (730) 
nan

$$$$

     RDKit          2D

 26 27  0  0  0  0  0  0  0  0999 V2000
   -8.7696    0.0532    0.0000 C   0  0  0  0  0  0  0  0  0  0  0  0
   -7.5861   -0.8684    0.0000 O   0  0  0  0  0  0  0  0  0  0  0  0
   -6.1963   -0.3043    0.0000 C   0  0  0  0  0  0  0  0  0  0  0  0
   -5.9899    1.1815    0.0000 C   0  0  0  0  0  0  0  0  0  0  0  0
   -4.6000    1.7456    0.0000 C   0  0  0  0  0  0  0  0  0  0  0  0
   -3.4165    0.8240    0.0000 C   0  0  0  0  0  0  0  0  0  0  0  0
   -2.0267    1.3882    0.0000 C   0  0  0  0  0  0  0  0  0  0  0  0
   -0.8432    0.4666    0.0000 C   0  0  0  0  0  0  0  0  0  0  0  0
    0.5467    1.0307    0.0000 C   0  0  0  0  0  0  0  0  0  0  0  0
    0.7531    2.5165    0.0000 O   0  0  0  0  0  0  0  0  0  0  0  0
    1.7302    0.1092    0.0000 C   0  0  0  0  0  0  0  0  0  0  0  0
    1.5238   -1.3766    0.0000 C   0  0  0  0  0  0  0  0  0  0  0  0
    0.1340   -1.9407    0.0000 O   0  0  0  0  0  0  0  0  0  0  0  0
   -0.0724   -3.4265    0.0000 C   0  0  0  0  0  0  0  0  0  0  0  0
    2.7074   -2.2982    0.0000 C   0  0  0  0  0  0  0  0  0  0  0  0
    4.0972   -1.7340    0.0000 C   0  0  0  0  0  0  0  0  0  0  0  0
    5.2807   -2.6556    0.0000 O   0  0  0  0  0  0  0  0  0  0  0  0
    5.0744   -4.1413    0.0000 C   0  0  0  0  0  0  0  0  0  0  0  0
    4.3036   -0.2483    0.0000 C   0  0  0  0  0  0  0  0  0  0  0  0
    3.1201    0.6733    0.0000 C   0  0  0  0  0  0  0  0  0  0  0  0
    3.3264    2.1590    0.0000 O   0  0  0  0  0  0  0  0  0  0  0  0
    4.7163    2.7232    0.0000 C   0  0  0  0  0  0  0  0  0  0  0  0
    4.9227    4.2089    0.0000 C   0  0  0  0  0  0  0  0  0  0  0  0
    5.8998    1.8016    0.0000 O   0  0  0  0  0  0  0  0  0  0  0  0
   -3.6229   -0.6617    0.0000 C   0  0  0  0  0  0  0  0  0  0  0  0
   -5.0128   -1.2259    0.0000 C   0  0  0  0  0  0  0  0  0  0  0  0
  1  2  1  0
  2  3  1  0
  3  4  2  0
  4  5  1  0
  5  6  2  0
  6  7  1  0
  7  8  1  0
  8  9  1  0
  9 10  2  0
  9 11  1  0
 11 12  2  0
 12 13  1  0
 13 14  1  0
 12 15  1  0
 15 16  2  0
 16 17  1  0
 17 18  1  0
 16 19  1  0
 19 20  2  0
 20 21  1  0
 21 22  1  0
 22 23  1  0
 22 24  2  0
  6 25  1  0
 25 26  2  0
 26  3  1  0
 20 11  1  0
M  END
>  <identifier>  (731) 
CNP0138410.0

>  <canonical_smiles>  (731) 
COC1=CC=C(CCC(=O)C2=C(OC)C=C(OC)C=C2OC(C)=O)C=C1

>  <standard_inchi>  (731) 
InChI=1S/C20H22O6/c1-13(21)26-19-12-16(24-3)11-18(25-4)20(19)17(22)10-7-14-5-8-15(23-2)9-6-14/h5-6,8-9,11-12H,7,10H2,1-4H3

>  <standard_inchi_key>  (731) 
HGDHVAZCQRCGFB-UHFFFAOYSA-N

>  <name>  (731) 
nan

>  <iupac_name>  (731) 
[3,5-dimethoxy-2-[3-(4-methoxyphenyl)propanoyl]phenyl] acetate

>  <annotation_level>  (731) 
4

>  <total_atom_count>  (731) 
48

>  <heavy_atom_count>  (731) 
26

>  <molecular_weight>  (731) 
358.39

>  <exact_molecular_weight>  (731) 
358.14164

>  <molecular_formula>  (731) 
C20H22O6

>  <alogp>  (731) 
3.45

>  <topological_polar_surface_area>  (731) 
71.06

>  <rotatable_bond_count>  (731) 
8

>  <hydrogen_bond_acceptors>  (731) 
6

>  <hydrogen_bond_donors>  (731) 
0

>  <hydrogen_bond_acceptors_lipinski>  (731) 
6

>  <hydrogen_bond_donors_lipinski>  (731) 
0

>  <lipinski_rule_of_five_violations>  (731) 
0

>  <aromatic_rings_count>  (731) 
2

>  <qed_drug_likeliness>  (731) 
0.41

>  <formal_charge>  (731) 
0

>  <fractioncsp3>  (731) 
0.30

>  <number_of_minimal_rings>  (731) 
2

>  <van_der_walls_volume>  (731) 
nan

>  <contains_sugar>  (731) 
False

>  <contains_ring_sugars>  (731) 
False

>  <contains_linear_sugars>  (731) 
False

>  <murcko_framework>  (731) 
c1ccc(cc1)CCCc2ccccc2

>  <np_likeness>  (731) 
0.49

>  <chemical_class>  (731) 
Linear 1,3-diarylpropanoids

>  <chemical_sub_class>  (731) 
Linear 1,3-diarylpropanoids

>  <chemical_super_class>  (731) 
Phenylpropanoids and polyketides

>  <direct_parent_classification>  (731) 
Linear 1,3-diarylpropanoids

>  <np_classifier_pathway>  (731) 
Shikimates and Phenylpropanoids

>  <np_classifier_superclass>  (731) 
Flavonoids

>  <np_classifier_class>  (731) 
Chalcones

>  <np_classifier_is_glycoside>  (731) 
False

>  <organisms>  (731) 
Iryanthera laevis

>  <collections>  (731) 
Latin America dataset|NuBBEDB|WikiData Natural Products|ZINC NP

>  <dois>  (731) 
10.1016/0031-9422(80)83082-2

>  <synonyms>  (731) 
2'-acetate-4'-methoxy-46'-dimethoxydihydrochalcone

>  <cas>  (731) 
nan

$$$$

     RDKit          2D

 26 28  0  0  0  0  0  0  0  0999 V2000
   -5.8525    1.4570    0.0000 O   0  0  0  0  0  0  0  0  0  0  0  0
   -4.5241    2.1538    0.0000 C   0  0  0  0  0  0  0  0  0  0  0  0
   -4.4633    3.6525    0.0000 O   0  0  0  0  0  0  0  0  0  0  0  0
   -3.2565    1.3517    0.0000 C   0  0  0  0  0  0  0  0  0  0  0  0
   -1.9282    2.0485    0.0000 C   0  0  0  0  0  0  0  0  0  0  0  0
   -0.6606    1.2465    0.0000 O   0  0  0  0  0  0  0  0  0  0  0  0
   -0.7214   -0.2523    0.0000 C   0  0  0  0  0  0  0  0  0  0  0  0
    0.5462   -1.0543    0.0000 O   0  0  0  0  0  0  0  0  0  0  0  0
    1.8746   -0.3576    0.0000 C   0  0  0  0  0  0  0  0  0  0  0  0
    3.1421   -1.1596    0.0000 O   0  0  0  0  0  0  0  0  0  0  0  0
    4.4705   -0.4629    0.0000 C   0  0  0  0  0  0  0  0  0  0  0  0
    5.7381   -1.2649    0.0000 C   0  0  0  0  0  0  0  0  0  0  0  0
    5.6773   -2.7637    0.0000 O   0  0  0  0  0  0  0  0  0  0  0  0
    4.5313    1.0359    0.0000 C   0  0  0  0  0  0  0  0  0  0  0  0
    5.8597    1.7326    0.0000 O   0  0  0  0  0  0  0  0  0  0  0  0
    3.2637    1.8379    0.0000 C   0  0  0  0  0  0  0  0  0  0  0  0
    3.3245    3.3367    0.0000 O   0  0  0  0  0  0  0  0  0  0  0  0
    1.9354    1.1412    0.0000 C   0  0  0  0  0  0  0  0  0  0  0  0
    0.6678    1.9432    0.0000 O   0  0  0  0  0  0  0  0  0  0  0  0
   -2.0497   -0.9490    0.0000 C   0  0  0  0  0  0  0  0  0  0  0  0
   -2.4208   -2.4024    0.0000 C   0  0  0  0  0  0  0  0  0  0  0  0
   -1.4631   -3.5569    0.0000 C   0  0  0  0  0  0  0  0  0  0  0  0
   -1.9841   -4.9635    0.0000 O   0  0  0  0  0  0  0  0  0  0  0  0
   -3.9177   -2.4986    0.0000 C   0  0  0  0  0  0  0  0  0  0  0  0
   -4.4718   -1.1047    0.0000 C   0  0  0  0  0  0  0  0  0  0  0  0
   -3.3173   -0.1470    0.0000 C   0  0  0  0  0  0  0  0  0  0  0  0
  1  2  2  0
  2  3  1  0
  2  4  1  0
  4  5  2  0
  5  6  1  0
  6  7  1  0
  7  8  1  1
  9  8  1  1
  9 10  1  0
 10 11  1  0
 11 12  1  1
 12 13  1  0
 11 14  1  0
 14 15  1  6
 14 16  1  0
 16 17  1  1
 16 18  1  0
 18 19  1  6
  7 20  1  0
 20 21  1  6
 21 22  1  0
 22 23  1  0
 21 24  2  0
 24 25  1  0
 26 25  1  6
 26  4  1  0
 18  9  1  0
 26 20  1  0
M  END
>  <identifier>  (732) 
CNP0195240.1

>  <canonical_smiles>  (732) 
O=C(O)C1=CO[C@@H](O[C@@H]2O[C@H](CO)[C@@H](O)[C@H](O)[C@H]2O)[C@@H]2C(CO)=CC[C@H]12

>  <standard_inchi>  (732) 
InChI=1S/C16H22O10/c17-3-6-1-2-7-8(14(22)23)5-24-15(10(6)7)26-16-13(21)12(20)11(19)9(4-18)25-16/h1,5,7,9-13,15-21H,2-4H2,(H,22,23)/t7-,9-,10-,11-,12+,13-,15+,16+/m1/s1

>  <standard_inchi_key>  (732) 
ZJDOESGVOWAULF-OGJQONSISA-N

>  <name>  (732) 
Geniposidic acid

>  <iupac_name>  (732) 
(1~{S},4~{a}~{S},7~{a}~{S})-7-(hydroxymethyl)-1-[(2~{S},3~{R},4~{S},5~{S},6~{R})-3,4,5-trihydroxy-6-(hydroxymethyl)tetrahydropyran-2-yl]oxy-1,4~{a},5,7~{a}-tetrahydrocyclopenta[c]pyran-4-carboxylic acid

>  <annotation_level>  (732) 
5

>  <total_atom_count>  (732) 
48

>  <heavy_atom_count>  (732) 
26

>  <molecular_weight>  (732) 
374.34

>  <exact_molecular_weight>  (732) 
374.1213

>  <molecular_formula>  (732) 
C16H22O10

>  <alogp>  (732) 
-2.32

>  <topological_polar_surface_area>  (732) 
166.14

>  <rotatable_bond_count>  (732) 
5

>  <hydrogen_bond_acceptors>  (732) 
9

>  <hydrogen_bond_donors>  (732) 
6

>  <hydrogen_bond_acceptors_lipinski>  (732) 
9

>  <hydrogen_bond_donors_lipinski>  (732) 
6

>  <lipinski_rule_of_five_violations>  (732) 
1

>  <aromatic_rings_count>  (732) 
0

>  <qed_drug_likeliness>  (732) 
0.29

>  <formal_charge>  (732) 
0

>  <fractioncsp3>  (732) 
0.69

>  <number_of_minimal_rings>  (732) 
3

>  <van_der_walls_volume>  (732) 
313.80

>  <contains_sugar>  (732) 
True

>  <contains_ring_sugars>  (732) 
True

>  <contains_linear_sugars>  (732) 
False

>  <murcko_framework>  (732) 
O1C=CC2CC=CC2C1OC3OCCCC3

>  <np_likeness>  (732) 
2.92

>  <chemical_class>  (732) 
Prenol lipids

>  <chemical_sub_class>  (732) 
Terpene glycosides

>  <chemical_super_class>  (732) 
Lipids and lipid-like molecules

>  <direct_parent_classification>  (732) 
Iridoid O-glycosides

>  <np_classifier_pathway>  (732) 
Terpenoids

>  <np_classifier_superclass>  (732) 
Monoterpenoids

>  <np_classifier_class>  (732) 
Iridoids monoterpenoids

>  <np_classifier_is_glycoside>  (732) 
True

>  <organisms>  (732) 
Adenaria floribunda|Adina trichotoma|Afrocanthium gilfillanii|Akebia quinata|Alibertia sessilis|Aloysia citriodora|Aloysia citrodora|Aloysia triphylla|Andrachne rotundifolia|Antonia ovata|Arcopilus cupreus|Arctanthemum arcticum|Argylia radiata|Arisaema triphyllum|Artemisia diffusa|Artemisia koidzumii|Artemisia persica|Astraeus hygrometricus|Avicennia Officinalis|Avicennia marina|Avicennia officinalis|Broussonetia papyrifera|Caesalpinia brevifolia|Campylanthus glaber|Campylanthus salsoloides|Canthium berberidifolium|Caragana sinica|Castilleja minor var. exilis|Castilleja tenuiflora|Centaurea thessala|Chaerophyllum temulum|Cistanche deserticola|Cistanche phelypaea|Cistanche salsa|Cistanche tubulosa|Cleistanthus gracilis|Cordiera sessilis|Cordylanthus kingii|Cordylanthus ramosus|Cordylanthus tenuis|Cordylanthus wrightii|Corynebacterium poinsettiae|Crucianella graeca|Cruciata laevipes|Diplopappus fruticosus|Eremophila cuneifolia|Eucalyptus incrassata|Eucommia Ulmoides|Eucommia sp.|Eucommia ulmoides|Euphorbia neriifolia|Euphrasia nemorosa|Euphrasia pectinata|Euphrasia salisburgensis|Fusidium griseum|Galium aegeum|Galium album|Galium humifusum|Galium lovcense|Galium macedonicum|Galium mirum|Galium mollugo|Galium rhodopeum|Galium rivale|Gardenia|Gardenia jasminoides|Gardenia sp.|Garrya elliptica|Genipa americana|Genista tinctoria|Gentianopsis ciliata|Globularia orientalis|Globularia trichosantha|Globularia vulgaris|Glochidion ferdinandii|Gmelina philippensis|Haemanthus natalensis|Hedyotis corymbosa|Huperzia serrata|Ixora chinensis|Leonotis nepetifolia|Lippia alba|Lippia sp.|Lycopodium confertum|Marsupella emarginata|Mimosa hostilis|Montipora digitata|Nardosmia laevigata|Nephrotoma cornicina|Oldenlandia corymbosa|Orthocarpus luteus|Orthocarpus tolmiei|Ostracion cubicus|Pedicularis artselaeri|Pedicularis kansuensis|Pedicularis longiflora|Pedicularis muscicola|Pedicularis nordmanniana|Pedicularis plicata|Pedicularis verticillata|Penstemon barbatus|Penstemon barrettiae|Penstemon crandallii|Penstemon rydbergii|Penstemon virens|Pestalotiopsis microspora|Phialophora alba|Phtheirospermum japonicum|Plagiochila yokogurensis|Plantago Asiatica|Plantago Major|Plantago alpina|Plantago asiatica|Plantago bellardii|Plantago depressa|Plantago lundborgii|Plantago major|Plantago reniformis|Plantago sempervirens|Platycodon grandiflorus|Plocama calabrica|Premna barbata|Rehmannia glutinosa|Rheum maximowiczii|Saprosma scortechinii|Scyphiphora hydrophylacea|Scyphiphora hydrophyllacea|Stemonoporus affinis|Suckleya suckleyana|Tanacetum cinerariifolium|Tetragonia tetragonioides|Titanotrichum oldhamii|Trichoderma album|Verbascum macrurum|Veronica bellidioides|Veronica kellereri|Vitex mollis|Zhumeria majdae|blue water-speedwell|castilleja tenuiflora|cresentia alata|vitex mollis

>  <collections>  (732) 
AnalytiCon Discovery NPs|Australian natural products|CMAUP (cCollective molecular activities of useful plants)|ChEBI NPs|ChemSpider NPs|Latin America dataset|NPASS|NPEdia|NuBBEDB|PhytoLab phyproof® Reference Substances|Super Natural II|TCMDB-Taiwan (Traditional Chinese Medicine database)|VietHerb|WikiData Natural Products|ZINC NP

>  <dois>  (732) 
10.1002/(SICI)1521-4168(19980901)21:9<523::AID-JHRC523>3.0.CO;2-B|10.1002/CHIN.200340174|10.1002/CHIN.200450151|10.1002/HLCA.19810640110|10.1002/PCA.2800020107|10.1002/RCM.4643|10.1007/S11418-006-0027-5|10.1016/0031-9422(91)80031-U|10.1016/0031-9422(91)83660-D|10.1016/0031-9422(92)80354-H|10.1016/0031-9422(92)83458-B|10.1016/0031-9422(94)00906-A|10.1016/0031-9422(95)00172-4|10.1016/0031-9422(95)00904-3|10.1016/0031-9422(96)00158-6|10.1016/0031-9422(96)00328-7|10.1016/0305-1978(86)90106-7|10.1016/0305-1978(95)00027-R|10.1016/J.BMCL.2015.08.075|10.1016/J.CHROMA.2008.07.031|10.1016/J.JEP.2007.11.044|10.1016/J.PHYTOCHEM.2009.11.007|10.1016/S0021-9673(01)82148-8|10.1016/S0031-9422(00)00060-1|10.1016/S0031-9422(00)00149-7|10.1016/S0031-9422(00)00306-X|10.1016/S0031-9422(00)80374-X|10.1016/S0031-9422(00)81424-7|10.1016/S0031-9422(00)84499-4|10.1016/S0031-9422(00)90399-6|10.1016/S0031-9422(02)00140-1|10.1016/S0031-9422(97)00115-5|10.1016/S0031-9422(98)00090-9|10.1016/S0040-4039(01)85186-8|10.1016/S0305-1978(02)00061-3|10.1021/JF034528+|10.1021/NP000185N|10.1021/NP0003591|10.1021/NP000614H|10.1021/NP050447R|10.1021/NP0780046|10.1021/NP50055A033|10.1021/NP50067A009|10.1021/NP50074A050|10.1021/NP50078A032|10.1021/NP700758Q|10.1055/S-2000-8564|10.1055/S-2006-957565|10.1055/S-2006-960215|10.1055/S-2006-962746|10.1080/10286020.2010.522181|10.1080/10826079408013541|10.1080/14786419.2010.514268|10.1081/JLC-100101486|10.1081/JLC-120027086|10.1248/BPB.21.1306|10.1248/BPB.22.582|10.1248/CPB.33.1270|10.1248/CPB.33.3645|10.1248/CPB.34.523|10.1248/CPB.35.1803|10.1248/CPB.47.284|10.1248/CPB.50.678|10.1248/CPB.53.1342|10.1248/CPB.54.669|10.1248/CPB.58.1403|10.1515/ZNC-1996-5-604|10.1515/ZNC-1996-9-1005|10.1515/ZNC-1999-7-805|10.1515/ZNC-2001-11-1209|10.1515/ZNC-2002-7-807|10.1590/S0103-50532007000700017|10.2116/BUNSEKIKAGAKU.35.3_215|10.3987/COM-88-S125|10.5246/JCPS.2011.02.019

>  <synonyms>  (732) 
nan

>  <cas>  (732) 
27741-01-1

$$$$

     RDKit          2D

 35 39  0  0  0  0  0  0  0  0999 V2000
    5.9918   -4.3103    0.0000 C   0  0  0  0  0  0  0  0  0  0  0  0
    6.0321   -2.8109    0.0000 O   0  0  0  0  0  0  0  0  0  0  0  0
    4.7537   -2.0262    0.0000 C   0  0  0  0  0  0  0  0  0  0  0  0
    3.4350   -2.7410    0.0000 O   0  0  0  0  0  0  0  0  0  0  0  0
    4.7941   -0.5268    0.0000 C   0  0  0  0  0  0  0  0  0  0  0  0
    6.2637   -0.8269    0.0000 C   0  0  0  0  0  0  0  0  0  0  0  0
    3.3104   -0.7474    0.0000 C   0  0  0  0  0  0  0  0  0  0  0  0
    2.3774    0.4271    0.0000 C   0  0  0  0  0  0  0  0  0  0  0  0
    2.9282    1.8224    0.0000 C   0  0  0  0  0  0  0  0  0  0  0  0
    3.4789    3.2176    0.0000 C   0  0  0  0  0  0  0  0  0  0  0  0
    4.4119    2.0430    0.0000 C   0  0  0  0  0  0  0  0  0  0  0  0
    5.3448    0.8685    0.0000 C   0  0  0  0  0  0  0  0  0  0  0  0
    6.8285    1.0891    0.0000 O   0  0  0  0  0  0  0  0  0  0  0  0
    1.9952    2.9969    0.0000 C   0  0  0  0  0  0  0  0  0  0  0  0
    0.5116    2.7763    0.0000 C   0  0  0  0  0  0  0  0  0  0  0  0
   -0.4214    3.9509    0.0000 C   0  0  0  0  0  0  0  0  0  0  0  0
   -0.0392    1.3810    0.0000 C   0  0  0  0  0  0  0  0  0  0  0  0
   -1.5229    1.1604    0.0000 C   0  0  0  0  0  0  0  0  0  0  0  0
   -2.4558    2.3350    0.0000 C   0  0  0  0  0  0  0  0  0  0  0  0
   -3.9395    2.1143    0.0000 C   0  0  0  0  0  0  0  0  0  0  0  0
   -4.4902    0.7191    0.0000 C   0  0  0  0  0  0  0  0  0  0  0  0
   -3.5573   -0.4555    0.0000 C   0  0  0  0  0  0  0  0  0  0  0  0
   -4.1080   -1.8508    0.0000 C   0  0  0  0  0  0  0  0  0  0  0  0
   -5.5917   -2.0714    0.0000 C   0  0  0  0  0  0  0  0  0  0  0  0
   -6.1424   -3.4666    0.0000 O   0  0  0  0  0  0  0  0  0  0  0  0
   -6.5246   -0.8968    0.0000 C   0  0  0  0  0  0  0  0  0  0  0  0
   -8.0083   -1.1175    0.0000 O   0  0  0  0  0  0  0  0  0  0  0  0
   -5.9739    0.4984    0.0000 C   0  0  0  0  0  0  0  0  0  0  0  0
   -6.9068    1.6730    0.0000 C   0  0  0  0  0  0  0  0  0  0  0  0
   -2.0736   -0.2349    0.0000 C   0  0  0  0  0  0  0  0  0  0  0  0
   -2.6243   -1.6301    0.0000 C   0  0  0  0  0  0  0  0  0  0  0  0
   -1.1407   -1.4094    0.0000 C   0  0  0  0  0  0  0  0  0  0  0  0
    0.3430   -1.1888    0.0000 C   0  0  0  0  0  0  0  0  0  0  0  0
    0.8938    0.2065    0.0000 C   0  0  0  0  0  0  0  0  0  0  0  0
    1.8267   -0.9681    0.0000 C   0  0  0  0  0  0  0  0  0  0  0  0
  1  2  1  0
  2  3  1  0
  3  4  2  0
  3  5  1  0
  5  6  1  6
  5  7  1  0
  8  7  1  1
  8  9  1  0
  9 10  1  6
  9 11  1  0
 11 12  1  0
 12 13  2  0
  9 14  1  0
 14 15  1  0
 15 16  1  0
 15 17  2  0
 17 18  1  0
 18 19  2  0
 19 20  1  0
 20 21  2  0
 21 22  1  0
 22 23  2  0
 23 24  1  0
 24 25  2  0
 24 26  1  0
 26 27  1  0
 26 28  2  0
 28 29  1  0
 22 30  1  0
 30 31  1  6
 30 32  1  0
 32 33  1  0
 33 34  1  0
 34 35  1  1
 12  5  1  0
 34 17  1  0
 34  8  1  0
 30 18  1  0
 28 21  1  0
M  END
>  <identifier>  (733) 
CNP0210062.1

>  <canonical_smiles>  (733) 
COC(=O)[C@@]1(C)C[C@@H]2[C@](C)(CC1=O)CC(C)=C1C3=CC=C4C(=CC(=O)C(O)=C4C)[C@]3(C)CC[C@]12C

>  <standard_inchi>  (733) 
InChI=1S/C30H36O5/c1-16-13-27(3)15-23(32)30(6,26(34)35-7)14-22(27)29(5)11-10-28(4)19(24(16)29)9-8-18-17(2)25(33)21(31)12-20(18)28/h8-9,12,22,33H,10-11,13-15H2,1-7H3/t22-,27+,28-,29+,30+/m1/s1

>  <standard_inchi_key>  (733) 
UORCITODAXCKFN-ZRZQIRJPSA-N

>  <name>  (733) 
nan

>  <iupac_name>  (733) 
methyl (2~{S},4~{a}~{S},6~{a}~{S},14~{a}~{S},14~{b}~{R})-10-hydroxy-2,4~{a},6,6~{a},9,14~{a}-hexamethyl-3,11-dioxo-1,4,5,13,14,14~{b}-hexahydropicene-2-carboxylate

>  <annotation_level>  (733) 
5

>  <total_atom_count>  (733) 
71

>  <heavy_atom_count>  (733) 
35

>  <molecular_weight>  (733) 
476.61

>  <exact_molecular_weight>  (733) 
476.25627

>  <molecular_formula>  (733) 
C30H36O5

>  <alogp>  (733) 
5.89

>  <topological_polar_surface_area>  (733) 
80.67

>  <rotatable_bond_count>  (733) 
1

>  <hydrogen_bond_acceptors>  (733) 
5

>  <hydrogen_bond_donors>  (733) 
1

>  <hydrogen_bond_acceptors_lipinski>  (733) 
5

>  <hydrogen_bond_donors_lipinski>  (733) 
1

>  <lipinski_rule_of_five_violations>  (733) 
1

>  <aromatic_rings_count>  (733) 
0

>  <qed_drug_likeliness>  (733) 
0.38

>  <formal_charge>  (733) 
0

>  <fractioncsp3>  (733) 
0.57

>  <number_of_minimal_rings>  (733) 
5

>  <van_der_walls_volume>  (733) 
443.78

>  <contains_sugar>  (733) 
False

>  <contains_ring_sugars>  (733) 
False

>  <contains_linear_sugars>  (733) 
False

>  <murcko_framework>  (733) 
C=1C=C2C3=CCC4CCCCC4C3CCC2C5=CCC=CC15

>  <np_likeness>  (733) 
2.99

>  <chemical_class>  (733) 
Steroids and steroid derivatives

>  <chemical_sub_class>  (733) 
Hydroxysteroids

>  <chemical_super_class>  (733) 
Lipids and lipid-like molecules

>  <direct_parent_classification>  (733) 
3-hydroxysteroids

>  <np_classifier_pathway>  (733) 
Terpenoids

>  <np_classifier_superclass>  (733) 
Triterpenoids

>  <np_classifier_class>  (733) 
nan

>  <np_classifier_is_glycoside>  (733) 
False

>  <organisms>  (733) 
Peritassa campestris|Salacia campestris

>  <collections>  (733) 
ChemSpider NPs|Latin America dataset|NuBBEDB|Super Natural II|WikiData Natural Products|ZINC NP

>  <dois>  (733) 
10.1002/CBDV.200590016|10.1002/cbdv.200590016

>  <synonyms>  (733) 
Netzahualcoyene

>  <cas>  (733) 
nan

$$$$

     RDKit          2D

 33 37  0  0  0  0  0  0  0  0999 V2000
    2.4418    4.0902    0.0000 C   0  0  0  0  0  0  0  0  0  0  0  0
    3.2631    2.8350    0.0000 C   0  0  0  0  0  0  0  0  0  0  0  0
    4.4256    3.7829    0.0000 C   0  0  0  0  0  0  0  0  0  0  0  0
    1.9289    2.1494    0.0000 C   0  0  0  0  0  0  0  0  0  0  0  0
    2.1686    0.6687    0.0000 C   0  0  0  0  0  0  0  0  0  0  0  0
    3.6510    0.4391    0.0000 C   0  0  0  0  0  0  0  0  0  0  0  0
    4.3365   -0.8951    0.0000 C   0  0  0  0  0  0  0  0  0  0  0  0
    5.6707   -0.2095    0.0000 C   0  0  0  0  0  0  0  0  0  0  0  0
    5.0221   -2.2292    0.0000 O   0  0  0  0  0  0  0  0  0  0  0  0
    3.0023   -1.5806    0.0000 C   0  0  0  0  0  0  0  0  0  0  0  0
    2.7728   -3.0629    0.0000 C   0  0  0  0  0  0  0  0  0  0  0  0
    1.2921   -3.3027    0.0000 C   0  0  0  0  0  0  0  0  0  0  0  0
    0.6065   -1.9685    0.0000 C   0  0  0  0  0  0  0  0  0  0  0  0
   -0.3335   -3.1374    0.0000 O   0  0  0  0  0  0  0  0  0  0  0  0
   -0.8437   -1.5852    0.0000 C   0  0  0  0  0  0  0  0  0  0  0  0
   -1.9007   -2.6495    0.0000 C   0  0  0  0  0  0  0  0  0  0  0  0
   -3.3509   -2.2662    0.0000 C   0  0  0  0  0  0  0  0  0  0  0  0
   -4.4080   -3.3305    0.0000 O   0  0  0  0  0  0  0  0  0  0  0  0
   -3.7441   -0.8187    0.0000 C   0  0  0  0  0  0  0  0  0  0  0  0
   -5.1943   -0.4354    0.0000 C   0  0  0  0  0  0  0  0  0  0  0  0
   -5.5875    1.0121    0.0000 C   0  0  0  0  0  0  0  0  0  0  0  0
   -7.0377    1.3954    0.0000 O   0  0  0  0  0  0  0  0  0  0  0  0
   -4.5305    2.0764    0.0000 C   0  0  0  0  0  0  0  0  0  0  0  0
   -4.9237    3.5240    0.0000 O   0  0  0  0  0  0  0  0  0  0  0  0
   -3.0803    1.6931    0.0000 C   0  0  0  0  0  0  0  0  0  0  0  0
   -2.6871    0.2456    0.0000 C   0  0  0  0  0  0  0  0  0  0  0  0
   -1.6301    1.3099    0.0000 C   0  0  0  0  0  0  0  0  0  0  0  0
   -1.2369   -0.1377    0.0000 C   0  0  0  0  0  0  0  0  0  0  0  0
   -0.1799    0.9266    0.0000 C   0  0  0  0  0  0  0  0  0  0  0  0
    1.2703    0.5433    0.0000 C   0  0  0  0  0  0  0  0  0  0  0  0
    1.6635   -0.9042    0.0000 C   0  0  0  0  0  0  0  0  0  0  0  0
    2.8260    0.0438    0.0000 C   0  0  0  0  0  0  0  0  0  0  0  0
    4.3274    1.7780    0.0000 O   0  0  0  0  0  0  0  0  0  0  0  0
  1  2  1  0
  2  3  1  0
  2  4  1  0
  4  5  1  0
  6  5  1  1
  6  7  1  0
  7  8  1  1
  7  9  1  0
  7 10  1  0
 10 11  1  1
 11 12  1  0
 12 13  1  0
 13 14  1  6
 13 15  1  0
 15 16  2  0
 16 17  1  0
 17 18  2  0
 17 19  1  0
 19 20  1  0
 20 21  1  0
 21 22  1  1
 21 23  1  0
 23 24  1  1
 23 25  1  0
 25 26  1  0
 26 27  1  1
 26 28  1  0
 28 29  1  0
 29 30  1  0
 30 31  1  0
 31 32  1  1
  6 33  1  0
 33  2  1  0
 31 10  1  0
 31 13  1  0
 28 15  1  0
 26 19  1  0
M  END
>  <identifier>  (734) 
CNP0127410.1

>  <canonical_smiles>  (734) 
CC1(C)CC[C@H]([C@](C)(O)[C@H]2CC[C@@]3(O)C4=CC(=O)C5C[C@@H](O)[C@@H](O)C[C@]5(C)C4CC[C@]23C)O1

>  <standard_inchi>  (734) 
InChI=1S/C27H42O6/c1-23(2)9-8-22(33-23)26(5,31)21-7-11-27(32)16-12-18(28)17-13-19(29)20(30)14-24(17,3)15(16)6-10-25(21,27)4/h12,15,17,19-22,29-32H,6-11,13-14H2,1-5H3/t15?,17?,19-,20+,21+,22-,24-,25-,26-,27-/m1/s1

>  <standard_inchi_key>  (734) 
JWXMXJQGIRXWDG-DIFBHBPQSA-N

>  <name>  (734) 
nan

>  <iupac_name>  (734) 
(2~{S},3~{R},10~{R},13~{R},14~{S},17~{S})-17-[(1~{R})-1-[(2~{R})-5,5-dimethyltetrahydrofuran-2-yl]-1-hydroxy-ethyl]-2,3,14-trihydroxy-10,13-dimethyl-2,3,4,5,9,11,12,15,16,17-decahydro-1~{H}-cyclopenta[a]phenanthren-6-one

>  <annotation_level>  (734) 
4

>  <total_atom_count>  (734) 
75

>  <heavy_atom_count>  (734) 
33

>  <molecular_weight>  (734) 
462.63

>  <exact_molecular_weight>  (734) 
462.29814

>  <molecular_formula>  (734) 
C27H42O6

>  <alogp>  (734) 
2.90

>  <topological_polar_surface_area>  (734) 
107.22

>  <rotatable_bond_count>  (734) 
2

>  <hydrogen_bond_acceptors>  (734) 
6

>  <hydrogen_bond_donors>  (734) 
4

>  <hydrogen_bond_acceptors_lipinski>  (734) 
6

>  <hydrogen_bond_donors_lipinski>  (734) 
4

>  <lipinski_rule_of_five_violations>  (734) 
0

>  <aromatic_rings_count>  (734) 
0

>  <qed_drug_likeliness>  (734) 
0.50

>  <formal_charge>  (734) 
0

>  <fractioncsp3>  (734) 
0.89

>  <number_of_minimal_rings>  (734) 
5

>  <van_der_walls_volume>  (734) 
nan

>  <contains_sugar>  (734) 
False

>  <contains_ring_sugars>  (734) 
False

>  <contains_linear_sugars>  (734) 
False

>  <murcko_framework>  (734) 
O1CCCC1CC2CCC3C4=CCC5CCCCC5C4CCC32

>  <np_likeness>  (734) 
3.64

>  <chemical_class>  (734) 
Steroids and steroid derivatives

>  <chemical_sub_class>  (734) 
Cholestane steroids

>  <chemical_super_class>  (734) 
Lipids and lipid-like molecules

>  <direct_parent_classification>  (734) 
Cholesterols and derivatives

>  <np_classifier_pathway>  (734) 
Terpenoids

>  <np_classifier_superclass>  (734) 
Steroids

>  <np_classifier_class>  (734) 
Ecdysteroids

>  <np_classifier_is_glycoside>  (734) 
False

>  <organisms>  (734) 
Vitex polygama

>  <collections>  (734) 
Latin America dataset|NuBBEDB

>  <dois>  (734) 
10.1002/ps.1278

>  <synonyms>  (734) 
shidasterone

>  <cas>  (734) 
nan

$$$$

     RDKit          2D

 34 37  0  0  0  0  0  0  0  0999 V2000
    8.1933   -1.0544    0.0000 C   0  0  0  0  0  0  0  0  0  0  0  0
    6.7257   -1.3646    0.0000 C   0  0  0  0  0  0  0  0  0  0  0  0
    5.7233   -0.2487    0.0000 C   0  0  0  0  0  0  0  0  0  0  0  0
    6.0368    1.2181    0.0000 C   0  0  0  0  0  0  0  0  0  0  0  0
    7.4078    1.8267    0.0000 O   0  0  0  0  0  0  0  0  0  0  0  0
    4.7386    1.9696    0.0000 C   0  0  0  0  0  0  0  0  0  0  0  0
    3.6227    0.9672    0.0000 C   0  0  0  0  0  0  0  0  0  0  0  0
    2.1311    1.1256    0.0000 C   0  0  0  0  0  0  0  0  0  0  0  0
    1.5226    2.4967    0.0000 C   0  0  0  0  0  0  0  0  0  0  0  0
    0.0310    2.6551    0.0000 C   0  0  0  0  0  0  0  0  0  0  0  0
   -0.8521    1.4426    0.0000 C   0  0  0  0  0  0  0  0  0  0  0  0
   -2.3437    1.6011    0.0000 C   0  0  0  0  0  0  0  0  0  0  0  0
   -2.9522    2.9721    0.0000 O   0  0  0  0  0  0  0  0  0  0  0  0
   -4.4438    3.1306    0.0000 C   0  0  0  0  0  0  0  0  0  0  0  0
   -5.0524    4.5016    0.0000 C   0  0  0  0  0  0  0  0  0  0  0  0
   -5.3269    1.9180    0.0000 O   0  0  0  0  0  0  0  0  0  0  0  0
   -3.2267    0.3886    0.0000 C   0  0  0  0  0  0  0  0  0  0  0  0
   -4.7183    0.5470    0.0000 O   0  0  0  0  0  0  0  0  0  0  0  0
   -5.6014   -0.6655    0.0000 C   0  0  0  0  0  0  0  0  0  0  0  0
   -7.0930   -0.5070    0.0000 C   0  0  0  0  0  0  0  0  0  0  0  0
   -4.9928   -2.0365    0.0000 O   0  0  0  0  0  0  0  0  0  0  0  0
   -2.6182   -0.9825    0.0000 C   0  0  0  0  0  0  0  0  0  0  0  0
   -3.5012   -2.1950    0.0000 O   0  0  0  0  0  0  0  0  0  0  0  0
   -2.8927   -3.5660    0.0000 C   0  0  0  0  0  0  0  0  0  0  0  0
   -3.7757   -4.7785    0.0000 C   0  0  0  0  0  0  0  0  0  0  0  0
   -1.4010   -3.7245    0.0000 O   0  0  0  0  0  0  0  0  0  0  0  0
   -1.1266   -1.1409    0.0000 C   0  0  0  0  0  0  0  0  0  0  0  0
   -0.2435    0.0716    0.0000 C   0  0  0  0  0  0  0  0  0  0  0  0
    0.3650   -1.2994    0.0000 C   0  0  0  0  0  0  0  0  0  0  0  0
    1.2481   -0.0869    0.0000 C   0  0  0  0  0  0  0  0  0  0  0  0
    1.8567   -1.4579    0.0000 C   0  0  0  0  0  0  0  0  0  0  0  0
    3.3483   -1.6164    0.0000 C   0  0  0  0  0  0  0  0  0  0  0  0
    4.2313   -0.4038    0.0000 C   0  0  0  0  0  0  0  0  0  0  0  0
    4.9798   -1.7037    0.0000 C   0  0  0  0  0  0  0  0  0  0  0  0
  1  2  1  0
  3  2  1  6
  3  4  1  0
  4  5  2  0
  4  6  1  0
  7  6  1  6
  7  8  1  0
  8  9  1  1
  9 10  1  0
 11 10  1  6
 11 12  1  0
 12 13  1  6
 13 14  1  0
 14 15  1  0
 14 16  2  0
 12 17  1  0
 17 18  1  1
 18 19  1  0
 19 20  1  0
 19 21  2  0
 17 22  1  0
 22 23  1  1
 23 24  1  0
 24 25  1  0
 24 26  2  0
 22 27  1  0
 27 28  1  0
 28 29  1  6
 28 30  1  0
 30 31  1  6
 31 32  1  0
 32 33  1  0
 33 34  1  6
 33  3  1  0
 33  7  1  0
 30  8  1  0
 28 11  1  0
M  END
>  <identifier>  (735) 
CNP0080468.3

>  <canonical_smiles>  (735) 
CC[C@H]1C(=O)C[C@H]2[C@@H]3CC[C@H]4[C@@H](OC(C)=O)[C@H](OC(C)=O)[C@H](OC(C)=O)C[C@]4(C)[C@H]3CC[C@]12C

>  <standard_inchi>  (735) 
InChI=1S/C27H40O7/c1-7-18-22(31)12-21-17-8-9-20-24(33-15(3)29)25(34-16(4)30)23(32-14(2)28)13-27(20,6)19(17)10-11-26(18,21)5/h17-21,23-25H,7-13H2,1-6H3/t17-,18+,19+,20+,21+,23-,24-,25-,26-,27-/m1/s1

>  <standard_inchi_key>  (735) 
PLZPNDBFLGCZTJ-YCPYWYAXSA-N

>  <name>  (735) 
nan

>  <iupac_name>  (735) 
[(2~{R},3~{R},4~{R},5~{R},8~{R},9~{S},10~{R},13~{S},14~{S},17~{R})-3,4-diacetoxy-17-ethyl-10,13-dimethyl-16-oxo-1,2,3,4,5,6,7,8,9,11,12,14,15,17-tetradecahydrocyclopenta[a]phenanthren-2-yl] acetate

>  <annotation_level>  (735) 
4

>  <total_atom_count>  (735) 
74

>  <heavy_atom_count>  (735) 
34

>  <molecular_weight>  (735) 
476.61

>  <exact_molecular_weight>  (735) 
476.2774

>  <molecular_formula>  (735) 
C27H40O7

>  <alogp>  (735) 
4.25

>  <topological_polar_surface_area>  (735) 
95.97

>  <rotatable_bond_count>  (735) 
4

>  <hydrogen_bond_acceptors>  (735) 
7

>  <hydrogen_bond_donors>  (735) 
0

>  <hydrogen_bond_acceptors_lipinski>  (735) 
7

>  <hydrogen_bond_donors_lipinski>  (735) 
0

>  <lipinski_rule_of_five_violations>  (735) 
0

>  <aromatic_rings_count>  (735) 
0

>  <qed_drug_likeliness>  (735) 
0.44

>  <formal_charge>  (735) 
0

>  <fractioncsp3>  (735) 
0.85

>  <number_of_minimal_rings>  (735) 
4

>  <van_der_walls_volume>  (735) 
nan

>  <contains_sugar>  (735) 
False

>  <contains_ring_sugars>  (735) 
False

>  <contains_linear_sugars>  (735) 
False

>  <murcko_framework>  (735) 
C1CCC2C(C1)CCC3C4CCCC4CCC23

>  <np_likeness>  (735) 
2.23

>  <chemical_class>  (735) 
Steroids and steroid derivatives

>  <chemical_sub_class>  (735) 
Steroid esters

>  <chemical_super_class>  (735) 
Lipids and lipid-like molecules

>  <direct_parent_classification>  (735) 
Steroid esters

>  <np_classifier_pathway>  (735) 
Terpenoids

>  <np_classifier_superclass>  (735) 
Steroids

>  <np_classifier_class>  (735) 
Pregnane steroids

>  <np_classifier_is_glycoside>  (735) 
False

>  <organisms>  (735) 
Trichilia claussenii

>  <collections>  (735) 
Latin America dataset|NuBBEDB|WikiData Natural Products

>  <dois>  (735) 
10.1016/S0031-9422(97)00167-2

>  <synonyms>  (735) 
2\u221a\u00e9\u00ac\u00b13\u221a\u00e9\u00ac\u00b14\u221a\u00e9\u00ac\u2264-Triacetoxypregnan-16-one

>  <cas>  (735) 
nan

$$$$

     RDKit          2D

 27 30  0  0  0  0  0  0  0  0999 V2000
    7.4366   -3.8153    0.0000 C   0  0  0  0  0  0  0  0  0  0  0  0
    7.1860   -2.3363    0.0000 C   0  0  0  0  0  0  0  0  0  0  0  0
    5.7800   -1.8139    0.0000 C   0  0  0  0  0  0  0  0  0  0  0  0
    5.5294   -0.3350    0.0000 O   0  0  0  0  0  0  0  0  0  0  0  0
    4.1233    0.1875    0.0000 C   0  0  0  0  0  0  0  0  0  0  0  0
    2.9678   -0.7690    0.0000 C   0  0  0  0  0  0  0  0  0  0  0  0
    1.5618   -0.2465    0.0000 C   0  0  0  0  0  0  0  0  0  0  0  0
    1.3112    1.2324    0.0000 C   0  0  0  0  0  0  0  0  0  0  0  0
    2.4667    2.1889    0.0000 C   0  0  0  0  0  0  0  0  0  0  0  0
    3.8728    1.6664    0.0000 C   0  0  0  0  0  0  0  0  0  0  0  0
    5.0283    2.6229    0.0000 O   0  0  0  0  0  0  0  0  0  0  0  0
    6.4343    2.1004    0.0000 C   0  0  0  0  0  0  0  0  0  0  0  0
   -0.1728    1.4511    0.0000 C   0  0  0  0  0  0  0  0  0  0  0  0
   -0.8681    2.7802    0.0000 C   0  0  0  0  0  0  0  0  0  0  0  0
   -0.8394    0.1074    0.0000 C   0  0  0  0  0  0  0  0  0  0  0  0
   -2.3183   -0.1432    0.0000 C   0  0  0  0  0  0  0  0  0  0  0  0
   -3.2747    1.0123    0.0000 C   0  0  0  0  0  0  0  0  0  0  0  0
   -4.7537    0.7617    0.0000 C   0  0  0  0  0  0  0  0  0  0  0  0
   -5.7101    1.9172    0.0000 O   0  0  0  0  0  0  0  0  0  0  0  0
   -5.1877    3.3233    0.0000 C   0  0  0  0  0  0  0  0  0  0  0  0
   -5.2761   -0.6443    0.0000 C   0  0  0  0  0  0  0  0  0  0  0  0
   -6.6706   -1.1969    0.0000 O   0  0  0  0  0  0  0  0  0  0  0  0
   -6.5760   -2.6939    0.0000 C   0  0  0  0  0  0  0  0  0  0  0  0
   -5.1230   -3.0666    0.0000 O   0  0  0  0  0  0  0  0  0  0  0  0
   -4.3197   -1.7998    0.0000 C   0  0  0  0  0  0  0  0  0  0  0  0
   -2.8407   -1.5493    0.0000 C   0  0  0  0  0  0  0  0  0  0  0  0
    0.2327   -0.9418    0.0000 O   0  0  0  0  0  0  0  0  0  0  0  0
  1  2  2  0
  2  3  1  0
  3  4  1  0
  4  5  1  0
  5  6  2  0
  6  7  1  0
  7  8  2  0
  8  9  1  0
  9 10  2  0
 10 11  1  0
 11 12  1  0
  8 13  1  0
 13 14  1  1
 13 15  1  0
 15 16  1  1
 16 17  2  0
 17 18  1  0
 18 19  1  0
 19 20  1  0
 18 21  2  0
 21 22  1  0
 22 23  1  0
 23 24  1  0
 24 25  1  0
 25 26  2  0
 15 27  1  0
 10  5  1  0
 26 16  1  0
 27  7  1  0
 25 21  1  0
M  END
>  <identifier>  (736) 
CNP0307423.1

>  <canonical_smiles>  (736) 
C=CCOC1=CC2=C(C=C1OC)[C@H](C)[C@H](C1=CC(OC)=C3OCOC3=C1)O2

>  <standard_inchi>  (736) 
InChI=1S/C21H22O6/c1-5-6-24-17-10-15-14(9-16(17)22-3)12(2)20(27-15)13-7-18(23-4)21-19(8-13)25-11-26-21/h5,7-10,12,20H,1,6,11H2,2-4H3/t12-,20+/m0/s1

>  <standard_inchi_key>  (736) 
YMSMXICTYNQJKX-FKIZINRSSA-N

>  <name>  (736) 
nan

>  <iupac_name>  (736) 
6-[(2~{R},3~{S})-6-allyloxy-5-methoxy-3-methyl-2,3-dihydrobenzofuran-2-yl]-4-methoxy-1,3-benzodioxole

>  <annotation_level>  (736) 
4

>  <total_atom_count>  (736) 
49

>  <heavy_atom_count>  (736) 
27

>  <molecular_weight>  (736) 
370.4

>  <exact_molecular_weight>  (736) 
370.14164

>  <molecular_formula>  (736) 
C21H22O6

>  <alogp>  (736) 
4.23

>  <topological_polar_surface_area>  (736) 
55.38

>  <rotatable_bond_count>  (736) 
6

>  <hydrogen_bond_acceptors>  (736) 
6

>  <hydrogen_bond_donors>  (736) 
0

>  <hydrogen_bond_acceptors_lipinski>  (736) 
6

>  <hydrogen_bond_donors_lipinski>  (736) 
0

>  <lipinski_rule_of_five_violations>  (736) 
0

>  <aromatic_rings_count>  (736) 
2

>  <qed_drug_likeliness>  (736) 
0.71

>  <formal_charge>  (736) 
0

>  <fractioncsp3>  (736) 
0.33

>  <number_of_minimal_rings>  (736) 
4

>  <van_der_walls_volume>  (736) 
nan

>  <contains_sugar>  (736) 
False

>  <contains_ring_sugars>  (736) 
False

>  <contains_linear_sugars>  (736) 
False

>  <murcko_framework>  (736) 
O1c2ccc(cc2OC1)C3Oc4ccccc4C3

>  <np_likeness>  (736) 
1.28

>  <chemical_class>  (736) 
2-arylbenzofuran flavonoids

>  <chemical_sub_class>  (736) 
2-arylbenzofuran flavonoids

>  <chemical_super_class>  (736) 
Phenylpropanoids and polyketides

>  <direct_parent_classification>  (736) 
2-arylbenzofuran flavonoids

>  <np_classifier_pathway>  (736) 
Shikimates and Phenylpropanoids

>  <np_classifier_superclass>  (736) 
Lignans

>  <np_classifier_class>  (736) 
Neolignans

>  <np_classifier_is_glycoside>  (736) 
False

>  <organisms>  (736) 
Aniba simulans|Aniba taubertiana

>  <collections>  (736) 
Latin America dataset|NuBBEDB|Super Natural II|WikiData Natural Products|ZINC NP

>  <dois>  (736) 
10.1016/S0031-9422(00)89244-4

>  <synonyms>  (736) 
(2R3S)-6-O-Allyl-5-methoxy-2-(3'-methoxy-4'5'-methylenedioxyphenyl)-3-methyl-23-dihydrobenzofuran

>  <cas>  (736) 
nan

$$$$

     RDKit          2D

 32 35  0  0  0  0  0  0  0  0999 V2000
    9.5239    1.7108    0.0000 C   0  0  0  0  0  0  0  0  0  0  0  0
    8.5405    0.5781    0.0000 C   0  0  0  0  0  0  0  0  0  0  0  0
    9.0297   -0.8398    0.0000 C   0  0  0  0  0  0  0  0  0  0  0  0
    7.0679    0.8635    0.0000 C   0  0  0  0  0  0  0  0  0  0  0  0
    6.0845   -0.2692    0.0000 C   0  0  0  0  0  0  0  0  0  0  0  0
    4.6118    0.0162    0.0000 C   0  0  0  0  0  0  0  0  0  0  0  0
    3.6284   -1.1165    0.0000 C   0  0  0  0  0  0  0  0  0  0  0  0
    2.6450   -2.2492    0.0000 C   0  0  0  0  0  0  0  0  0  0  0  0
    4.7611   -2.0999    0.0000 O   0  0  0  0  0  0  0  0  0  0  0  0
    2.4958   -0.1331    0.0000 C   0  0  0  0  0  0  0  0  0  0  0  0
    2.6256    1.3613    0.0000 C   0  0  0  0  0  0  0  0  0  0  0  0
    1.2445    1.9466    0.0000 C   0  0  0  0  0  0  0  0  0  0  0  0
    0.2611    0.8139    0.0000 C   0  0  0  0  0  0  0  0  0  0  0  0
   -0.3736    2.1730    0.0000 C   0  0  0  0  0  0  0  0  0  0  0  0
    1.0344   -0.4714    0.0000 C   0  0  0  0  0  0  0  0  0  0  0  0
    0.3080   -1.7838    0.0000 C   0  0  0  0  0  0  0  0  0  0  0  0
   -1.1918   -1.8108    0.0000 C   0  0  0  0  0  0  0  0  0  0  0  0
   -1.9651   -0.5255    0.0000 C   0  0  0  0  0  0  0  0  0  0  0  0
   -3.4648   -0.5526    0.0000 C   0  0  0  0  0  0  0  0  0  0  0  0
   -2.6915   -1.8379    0.0000 C   0  0  0  0  0  0  0  0  0  0  0  0
   -4.1913   -1.8650    0.0000 C   0  0  0  0  0  0  0  0  0  0  0  0
   -5.6910   -1.8921    0.0000 C   0  0  0  0  0  0  0  0  0  0  0  0
   -6.4644   -0.6068    0.0000 C   0  0  0  0  0  0  0  0  0  0  0  0
   -7.9641   -0.6339    0.0000 O   0  0  0  0  0  0  0  0  0  0  0  0
   -5.7379    0.7056    0.0000 C   0  0  0  0  0  0  0  0  0  0  0  0
   -5.5042    2.1873    0.0000 C   0  0  0  0  0  0  0  0  0  0  0  0
   -7.1565    1.1931    0.0000 C   0  0  0  0  0  0  0  0  0  0  0  0
   -4.2382    0.7327    0.0000 C   0  0  0  0  0  0  0  0  0  0  0  0
   -3.5117    2.0450    0.0000 C   0  0  0  0  0  0  0  0  0  0  0  0
   -2.0120    2.0721    0.0000 C   0  0  0  0  0  0  0  0  0  0  0  0
   -1.2387    0.7868    0.0000 C   0  0  0  0  0  0  0  0  0  0  0  0
   -0.4653   -0.4985    0.0000 C   0  0  0  0  0  0  0  0  0  0  0  0
  1  2  1  0
  2  3  1  0
  2  4  2  0
  4  5  1  0
  5  6  1  0
  6  7  1  0
  7  8  1  1
  7  9  1  0
  7 10  1  0
 10 11  1  6
 11 12  1  0
 12 13  1  0
 13 14  1  1
 13 15  1  0
 15 16  1  1
 16 17  1  0
 18 17  1  6
 18 19  1  0
 19 20  1  6
 19 21  1  0
 21 22  1  0
 22 23  1  0
 23 24  1  6
 23 25  1  0
 25 26  1  0
 25 27  1  0
 25 28  1  0
 28 29  1  6
 29 30  1  0
 30 31  1  0
 31 32  1  6
 15 10  1  0
 31 18  1  0
 31 13  1  0
 28 19  1  0
M  END
>  <identifier>  (737) 
CNP0236926.3

>  <canonical_smiles>  (737) 
CC(C)=CCC[C@](C)(O)[C@H]1CC[C@]2(C)[C@@H]1CC[C@@H]1[C@@]3(C)CC[C@H](O)C(C)(C)[C@@H]3CC[C@]12C

>  <standard_inchi>  (737) 
InChI=1S/C30H52O2/c1-20(2)10-9-16-30(8,32)22-13-18-28(6)21(22)11-12-24-27(5)17-15-25(31)26(3,4)23(27)14-19-29(24,28)7/h10,21-25,31-32H,9,11-19H2,1-8H3/t21-,22+,23+,24-,25+,27+,28-,29-,30+/m1/s1

>  <standard_inchi_key>  (737) 
NLHQJXWYMZLQJY-TXNIMPHESA-N

>  <name>  (737) 
Dammarenediol II

>  <iupac_name>  (737) 
(3~{S},5~{R},8~{R},9~{R},10~{R},13~{R},14~{R},17~{S})-17-[(1~{S})-1-hydroxy-1,5-dimethyl-hex-4-enyl]-4,4,8,10,14-pentamethyl-2,3,5,6,7,9,11,12,13,15,16,17-dodecahydro-1~{H}-cyclopenta[a]phenanthren-3-ol

>  <annotation_level>  (737) 
5

>  <total_atom_count>  (737) 
84

>  <heavy_atom_count>  (737) 
32

>  <molecular_weight>  (737) 
444.74

>  <exact_molecular_weight>  (737) 
444.39673

>  <molecular_formula>  (737) 
C30H52O2

>  <alogp>  (737) 
7.53

>  <topological_polar_surface_area>  (737) 
40.46

>  <rotatable_bond_count>  (737) 
4

>  <hydrogen_bond_acceptors>  (737) 
2

>  <hydrogen_bond_donors>  (737) 
2

>  <hydrogen_bond_acceptors_lipinski>  (737) 
2

>  <hydrogen_bond_donors_lipinski>  (737) 
2

>  <lipinski_rule_of_five_violations>  (737) 
1

>  <aromatic_rings_count>  (737) 
0

>  <qed_drug_likeliness>  (737) 
0.44

>  <formal_charge>  (737) 
0

>  <fractioncsp3>  (737) 
0.93

>  <number_of_minimal_rings>  (737) 
4

>  <van_der_walls_volume>  (737) 
465.90

>  <contains_sugar>  (737) 
False

>  <contains_ring_sugars>  (737) 
False

>  <contains_linear_sugars>  (737) 
False

>  <murcko_framework>  (737) 
C1CCC2C(C1)CCC3C4CCCC4CCC23

>  <np_likeness>  (737) 
3.03

>  <chemical_class>  (737) 
Steroids and steroid derivatives

>  <chemical_sub_class>  (737) 
Hydroxysteroids

>  <chemical_super_class>  (737) 
Lipids and lipid-like molecules

>  <direct_parent_classification>  (737) 
3-hydroxysteroids

>  <np_classifier_pathway>  (737) 
Terpenoids

>  <np_classifier_superclass>  (737) 
Triterpenoids

>  <np_classifier_class>  (737) 
Dammarane and Protostane triterpenoids

>  <np_classifier_is_glycoside>  (737) 
False

>  <organisms>  (737) 
Aglaia abbreviata|Aglaia elaeagnoidea|Boswellia carteri|Boswellia carterii|Boswellia sacra|Camellia japonica|Ceriops Tagal|Ceriops tagal|Chrysanthemum morifolium|Cowania mexicana|Dendranthema morifolium|Dysoxylum beddomei|Dysoxylum macranthum|Dysoxylum malabaricum|Ligustrum japonicum|Ligustrum japonicus|Ligustrum lucidum|Olea capensis|Pistacia lentiscus|Pouteria caimito|Purshia mexicana|Shorea robusta|Trattinnickia burserifolia|Trixis grisebachii

>  <collections>  (737) 
ANPDB|CMAUP (cCollective molecular activities of useful plants)|ChEBI NPs|KNApSaCK|Latin America dataset|NANPDB (Natural Products from Northern African Sources)|NPASS|NuBBEDB|Super Natural II|TCMDB-Taiwan (Traditional Chinese Medicine database)|TIPdb (database of Taiwan indigenous plants)|VietHerb|WikiData Natural Products

>  <dois>  (737) 
10.1016/0031-9422(88)80147-X|10.1016/0031-9422(91)80095-I|10.1016/B978-0-12-013320-8.50007-1|10.1016/S0031-9422(00)00413-1|10.1016/S0031-9422(00)89542-4|10.1016/S0031-9422(00)90675-7|10.1016/S0031-9422(00)97935-4|10.1016/S0031-9422(99)00455-0|10.1021/JF010164E|10.1021/NP0502793|10.1021/NP100599G|10.1021/NP50009A016|10.1021/np100599g|10.1080/14786410310001626820|10.1248/CPB.52.153|10.1248/CPB.58.1541|10.1248/cpb.58.1541|10.1590/S0103-50532004000300008|10.4268/CJCMM20100712

>  <synonyms>  (737) 
(20S)-dammar-24-ene-3beta,20-diol|(20S)-dammarenediol|(3S,5R,8R,9R,10R,13R,14R,17S)-17-[(2S)-2-hydroxy-6-methylhept-5-en-2-yl]-4,4,8,10,14-pentamethyl-2,3,5,6,7,9,11,12,13,15,16,17-dodecahydro-1H-cyclopenta[a]phenanthren-3-ol|(3beta)-dammar-24-ene-3,20-diol|14351-29-2|3beta-glucodammar-24-ene-3,20-diol|8-methyl-18-nor-lanost-24-en-3beta,20-diol|AKOS032948154|C19829|CHEBI:62416|CHEMBL478945|Dammar-24-ene-3,20-diol, (20S)-|Dammar-24-ene-3beta,20-diol|Dammarenediol|Dammarenediol II|FS-10354|NS00069956|Q27131867|SCHEMBL6702114|dammar-24-ene-20(SS),3beta-diol|dammarenediol-II

>  <cas>  (737) 
14351-29-2

$$$$

     RDKit          2D

 16 17  0  0  0  0  0  0  0  0999 V2000
   -1.5424   -3.0325    0.0000 C   0  0  0  0  0  0  0  0  0  0  0  0
   -1.9298   -1.5834    0.0000 C   0  0  0  0  0  0  0  0  0  0  0  0
   -3.3785   -1.1944    0.0000 C   0  0  0  0  0  0  0  0  0  0  0  0
   -3.7659    0.2547    0.0000 C   0  0  0  0  0  0  0  0  0  0  0  0
   -2.7047    1.3148    0.0000 C   0  0  0  0  0  0  0  0  0  0  0  0
   -1.2560    0.9257    0.0000 C   0  0  0  0  0  0  0  0  0  0  0  0
   -1.6434    2.3748    0.0000 C   0  0  0  0  0  0  0  0  0  0  0  0
   -0.1948    1.9858    0.0000 C   0  0  0  0  0  0  0  0  0  0  0  0
    1.2539    1.5968    0.0000 C   0  0  0  0  0  0  0  0  0  0  0  0
    1.6413    0.1477    0.0000 C   0  0  0  0  0  0  0  0  0  0  0  0
    3.0900   -0.2413    0.0000 C   0  0  0  0  0  0  0  0  0  0  0  0
    3.4790    1.2074    0.0000 C   0  0  0  0  0  0  0  0  0  0  0  0
    2.7010   -1.6900    0.0000 C   0  0  0  0  0  0  0  0  0  0  0  0
    4.5387   -0.6303    0.0000 O   0  0  0  0  0  0  0  0  0  0  0  0
    0.5801   -0.9124    0.0000 C   0  0  0  0  0  0  0  0  0  0  0  0
   -0.8686   -0.5234    0.0000 C   0  0  0  0  0  0  0  0  0  0  0  0
  1  2  2  0
  2  3  1  0
  3  4  1  0
  4  5  1  0
  5  6  1  0
  6  7  1  1
  6  8  1  0
  8  9  1  0
  9 10  1  0
 10 11  1  1
 11 12  1  0
 11 13  1  0
 11 14  1  0
 10 15  1  0
 16 15  1  1
 16  2  1  0
 16  6  1  0
M  END
>  <identifier>  (738) 
CNP0292043.1

>  <canonical_smiles>  (738) 
C=C1CCC[C@]2(C)CC[C@@H](C(C)(C)O)C[C@@H]12

>  <standard_inchi>  (738) 
InChI=1S/C15H26O/c1-11-6-5-8-15(4)9-7-12(10-13(11)15)14(2,3)16/h12-13,16H,1,5-10H2,2-4H3/t12-,13+,15-/m1/s1

>  <standard_inchi_key>  (738) 
BOPIMTNSYWYZOC-VNHYZAJKSA-N

>  <name>  (738) 
beta-Eudesmol

>  <iupac_name>  (738) 
2-[(2~{R},4~{a}~{R},8~{a}~{S})-4~{a}-methyl-8-methylene-decalin-2-yl]propan-2-ol

>  <annotation_level>  (738) 
5

>  <total_atom_count>  (738) 
42

>  <heavy_atom_count>  (738) 
16

>  <molecular_weight>  (738) 
222.37

>  <exact_molecular_weight>  (738) 
222.19837

>  <molecular_formula>  (738) 
C15H26O

>  <alogp>  (738) 
3.92

>  <topological_polar_surface_area>  (738) 
20.23

>  <rotatable_bond_count>  (738) 
1

>  <hydrogen_bond_acceptors>  (738) 
1

>  <hydrogen_bond_donors>  (738) 
1

>  <hydrogen_bond_acceptors_lipinski>  (738) 
1

>  <hydrogen_bond_donors_lipinski>  (738) 
1

>  <lipinski_rule_of_five_violations>  (738) 
0

>  <aromatic_rings_count>  (738) 
0

>  <qed_drug_likeliness>  (738) 
0.67

>  <formal_charge>  (738) 
0

>  <fractioncsp3>  (738) 
0.87

>  <number_of_minimal_rings>  (738) 
2

>  <van_der_walls_volume>  (738) 
238.59

>  <contains_sugar>  (738) 
False

>  <contains_ring_sugars>  (738) 
False

>  <contains_linear_sugars>  (738) 
False

>  <murcko_framework>  (738) 
C1CCC2CCCCC2C1

>  <np_likeness>  (738) 
2.80

>  <chemical_class>  (738) 
Prenol lipids

>  <chemical_sub_class>  (738) 
Sesquiterpenoids

>  <chemical_super_class>  (738) 
Lipids and lipid-like molecules

>  <direct_parent_classification>  (738) 
Eudesmane, isoeudesmane or cycloeudesmane sesquiterpenoids

>  <np_classifier_pathway>  (738) 
Terpenoids

>  <np_classifier_superclass>  (738) 
Sesquiterpenoids

>  <np_classifier_class>  (738) 
Eudesmane sesquiterpenoids

>  <np_classifier_is_glycoside>  (738) 
False

>  <organisms>  (738) 
'Salvia africana-lutea'  [ L. (1753) ]|Abies firma|Abies sachalinensis var. gracilis|Abies sibirica|Achillea ageratum|Achillea arabica|Achillea biebersteinii|Actaea dahurica|Actaea heracleifolia|Actaea simplex|Adenocarpus foliolosus|Aeollanthus parvifolius|Agathosma betulina|Aglaia lawii|Agrimonia pilosa|Aiouea costaricensis|Akebia quinata|Akebia trifoliata|Alpinia breviligulata|Alpinia flabellata|Alpinia japonica|Alpinia zerumbet|Alternaria bataticola|Amaioua guianensis|Amyris balsamifera|Anethum graveolens|Angelica acutiloba|Angelica archangelica|Angelica gigas|Angelica japonica|Angelica sinensis|Annona cascarilloides|Anthoxanthum nitens|Antillogorgia elisabethae|Apium graveolens|Aristolochia odoratissima|Arnica sachalinensis|Artemisia arborescens|Artemisia campestris|Artemisia capillaris|Asarum europaeum L.|Athamanta vayredana|Atractylis ovata|Atractylodes|Atractylodes chinensis|Atractylodes japonica|Atractylodes lancea|Atractylodes macrocephala|Atractylodes rhizomes|Baccharis aliena|Baccharis genistelloides|Baccharis neglecta|Baccharis sagittalis|Baccharis salicina|Baccharis santelicis|Baccharis truncata|Baccharis venosa|Balsamorhiza sagittata|Beilschmiedia pendula|Beltrania rhombica|Benincasa hispida|Berchemia floribunda|Betula exilis|Betula maximowicziana|Bipolaris sacchari|Blumea arfakiana|Boltonia asteroides|Bothriochloa bladhii|Bothriochloa pertusa|Breonia chinensis|Brickellia veronicaefolia|Bugula neritina|Buxus wallichiana|Calanthe arisanensis|Calendula arvensis|Calendula persica|Callitris columellaris|Callitris intratropica|Callyspongia spinosissima|Calycolpus warszewiczianus|Campylotropis hirtella|Canarium luzonicum|Carissa edulis|Carissa spinarum|Centaurea armena|Centaurea benedicta|Centaurea oltensis|Centaurea scoparia|Centaurea sessilis|Cereus dumortieri|Ceropegia dichotoma|Chamaecyparis lawsoniana|Chamomilla recutita|Channa argus|Chenopodium botrys|Chloranthus fortunei|Choisya arizonica|Chromolaena arnottiana|Chrysosplenium oppositifolium|Chuquiraga erinacea|Cimicifuga foetida|Cinnamomum burmanni|Cistus creticus|Citrus maxima|Citrus reticulata|Citrus × deliciosa|Clausena excavata|Cleome chrysantha|Clerodendranthus spicatus|Clerodendrum calamitosum|Clethra macrophylla|Cordia trichotoma|Corymbia citriodora|Crinum moorei|Crotalaria candicans|Cryptomeria fortunei|Cryptomeria japonica|Cuphea hyssopifolia|Curcuma Zedoaria|Curcuma amada|Curcuma kwangsiensis|Curcuma phaeocaulis|Curcuma pierreana|Curcuma trichosantha|Curcuma wenyujin|Curcuma zedoaria|Cymbopogon citratus|Cymbopogon flexuosus|Cyperaceae|Daucus carota|Dendrobium loddigesii|Dioscorea japonica|Diplolophium africanum|Distephanus angulifolius|Dolichorrhiza persica|Dysphania botrys|Echinoclathria subhispida|Echinopsis macrogona|Elsholtzia ciliata|Elsholtzia fruticosa|Epimedium sagittatum|Eremophila cuneifolia|Eremophila dalyana|Eremophila flaccida|Eria japonica|Eria rigida|Erigeron canadensis|Eriogonum nudum|Erythrina sandwicensis|Etlingera elatior|Eucalyptus Globulus|Eucalyptus amplifolia|Eucalyptus angulosa|Eucalyptus apodophylla|Eucalyptus approximans|Eucalyptus behriana|Eucalyptus brassiana|Eucalyptus bridgesiana|Eucalyptus burgessiana|Eucalyptus campanulata|Eucalyptus ceratocorys|Eucalyptus citriodora|Eucalyptus cuprea|Eucalyptus delegatensis|Eucalyptus dendromorpha|Eucalyptus deuaensis|Eucalyptus dolichorhyncha|Eucalyptus fasciculosa|Eucalyptus forrestiana|Eucalyptus fraxinoides|Eucalyptus globulus|Eucalyptus globulus subsp. bicostata|Eucalyptus incrassata|Eucalyptus intertexta|Eucalyptus lansdowneana|Eucalyptus leucoxylon|Eucalyptus macathurii|Eucalyptus maidenii|Eucalyptus melanophloia|Eucalyptus mitchelli|Eucalyptus mitchelliana|Eucalyptus nova-anglica|Eucalyptus oblonga|Eucalyptus ochrophloia|Eucalyptus odorata|Eucalyptus paliformis|Eucalyptus populnea|Eucalyptus porosa|Eucalyptus pulverulenta|Eucalyptus sparsa|Eucalyptus spp.|Eucalyptus stenostoma|Eucalyptus stoatei|Eucalyptus tetraptera|Eucalyptus triflora|Eucalyptus viridis|Euphorbia balsamifera|Euphorbia palustris|Euphorbia pithyusa|Farfugium japonicum|Flourensia cernua|Foeniculum vulgare|Fokienia hodginsii|Fouquieria diguetii|Fritillaria hupehensis|Ginkgo biloba|Glehnia littoralis|Glycosmis macrophylla|Guatteriopsis friesiana|Gynoxys verrucosa|Gypsophila perfoliata|Hedycarya angustifolia|Hedychium spicatum|Helianthopsis microphylla|Helichrysum bracteiferum|Hepialus hecta|Hexalobus crispiflorus|Hexalobus monopetalus|Holarrhena floribunda|Holothuria squamifera|Humulus lupulus|Hyacinthoides hispanica|Hygrophila polysperma|Hypericum polyanthemum|Hypogymnia vittata|Hyssopus officinalis|Ichthyothere terminalis|Illicium simonsii|Incarvillea emodi|Inula helenium|Iphiona scabra|Ipomoea reptans|Juglans regia|Jugo|Juniperus comitana|Juniperus drupacea|Juniperus gamboana|Juniperus monticola|Juniperus standleyi|Juniperus taxifolia|Laggera pterodonta|Lathyrus latifolius|Lepechinia chamaedryoides|Lepechinia chilensis|Leptospermum scoparium|Lessingia glandulifera|Lindera aggregata|Lindera strichnifolia|Machaeranthera tanacetifolia|Magnolia biloba|Magnolia liliiflora|Magnolia obovata|Magnolia odora|Magnolia officinalis|Magnolia ovata|Mamestra brassicae|Manekia naranjoana|Martensia denticulata|Matricaria chamomilla|Mcneillia graminifolia|Mentha aquatica|Mentha arvensis|Mentha arvensis L.|Mentha canadensis|Mentha cardiaca|Microbiota decussata|Microglossa pyrifolia|Microglossa pyrrhopappa|Micromeria sinaica|Monascus kaoliang|Monocyclanthus vignei|Mosla chinensis|Mucuna sloanei|Mycale laxissima|Myelochroa rhytidodes|Nelumbo nucifera|Nervilia fordii|Notholaena peninsularis|Ochrocarpos odoratus|Ocotea gomezii|Olearia phlogopappa|Oligonychus bessardi|Ononis spinosa|Ononis viscosa|Oreoherzogia fallax|Origanum sipyleum|Origanum vulgare|Osbornia octodonta|Osteospermum muricatum|Panax ginseng|Pappobolus microphyllus|Parectatosoma mocquerysi|Parthenium argentatum|Pedicularis rex|Pelargonium quercifolium|Pelargonium vitifolium|Pentaclethra macrophylla|Periploca sepium|Petasites albus|Petasites hybridus|Philadelphia fleabane|Phyllobates bicolor|Pinus edulis|Pinus sitchensis|Piper lanceaefolium|Piper lhotzkyanum|Piper marginatum|Piper nigrum|Piper sylvestre|Piper taboganum|Pittosporum balfourii|Pittosporum viridiflorum|Plectranthus myrianthus|Plenodomus tracheiphilus|Plexaurella grisea|Polygala reinii|Pometia eximia|Posidonia oceanica|Protium heptaphyllum|Pseudocedrela kotschyi|Pseudocyphellaria coronata|Pseudotaxus chienii|Pseudotsuga japonica|Psiadia altissima|Psidium friedrichsthalianum|Psidium guajava|Psidium guyanense|Psidium salutare|Pterocarpus erinaceus|Pterocarpus marsupium|Pterocarpus santalinus|Pterocaulon virgatum|Pulicaria undulata|Punctelia microsticta|Pycnocycla spinosa|Pyrus bourgaeana|Retama duriaei|Rhanterium epapposum|Rhodiola semenovii|Rhododendron calostrotum|Rhododendron concinnum|Rhododendron cuneatum|Rhododendron dasypetalum|Rhododendron dauricum|Rhododendron edgeworthii|Rhododendron glaucophyllum|Rhododendron hippophaeoides|Rhododendron impeditum|Rhododendron intricatum|Rhododendron keiskei|Rhododendron lepidotum|Rhododendron lutescens|Rhododendron micranthum|Rhododendron moupinense|Rhododendron mucronulatum|Rhododendron polycladum|Rhododendron virgatum|Rhododendron xanthocodon|Roldana barba-johannis|Rothmannia urcelliformis|Rubia schumanniana|Sabal causiarum|Salvia absconditiflora|Salvia aurea|Salvia broussonetii|Salvia caespitosa|Salvia cinnabarina|Salvia dorystaechas|Salvia mirzayanii|Salvia sclarea|Salvia sessei|Sandoricum koetjape|Santolina chamaecyparissus|Santolina rosmarinifolia|Saussurea involucrata|Saussurea lappa|Schinus molle|Scutellaria baicalensis|Sedum sarmentosum|Senecio coahuilensis|Senecio flammeus|Senecio othonniformis|Sequoiadendron giganteum|Serratula xeranthemoides|Sigillina signifera|Sinularia manaarensis|Siparuna thecaphora|Solanum melongena|Sonneratia caseolaris|Sorbus torminalis|Sphaeria biglobosa|Sphaeria doliolum|Squamopappus skutchii|Stephania zippeliana|Stigmatella aurantiaca|Stigmatella aurantiaca DW4/3-1|Strobilanthes callosa|Strobilanthes zeylanica|Suaeda maritima|Swertia decora|Tagetes minuta|Taiwania cryptomerioides|Talaromyces variabilis|Tanacetum annuum|Tessaria fastigiata|Teucrium polium|Thelephora aurantiotincta|Theonella cupola|Thioalkalivibrio versutus|Thuja occidentalis|Thuja standishii|Thulinella chrysantha|Thymus carnosus|Thymus funkii|Thymus longiflorus|Thymus vulgaris|Thymus zygioides|Tilia rubra|Trichilia claussenii|Tristania conferta|Tritomaria quinquedentata|Triunia erythrocarpa|Valeriana officinalis|Venidium hirsutum|Veratrum eschscholtzii|Veratrum sabadilla|Vernonia cistifolia|Veronica polita|Vicoa vestita|Vidalia volubilis|Vitex negundo|Vogtia annua|Wettsteinia inversa|Widdringtonia whytei|Xenophyllum poposum|Xylopia aethiopica|Zanthoxylum gardneri|Zingiber officinale|Zingiber ottensii|Zingiber zerumbet|basil|common myrtle|water mint

>  <collections>  (738) 
ANPDB|Australian natural products|CMAUP (cCollective molecular activities of useful plants)|ChEBI NPs|ETM (Ethiopian Traditional Medicine) DB|FooDB|KNApSaCK|Latin America dataset|Mitishamba database|NANPDB (Natural Products from Northern African Sources)|NAPRORE-CR|NPASS|NPAtlas|NPEdia|NuBBEDB|Phyto4Health|SANCDB|Super Natural II|TCMDB-Taiwan (Traditional Chinese Medicine database)|TIPdb (database of Taiwan indigenous plants)|TPPT (Toxic Plants–PhytoToxins)|VietHerb|WikiData Natural Products|ZINC NP

>  <dois>  (738) 
10.1002/(SICI)1099-1026(199709/10)12:5<359::AID-FFJ660>3.0.CO;2-G|10.1002/(SICI)1099-1573(199605)10:3<248::AID-PTR807>3.0.CO;2-9|10.1002/(SICI)1099-1573(199702)11:1<67::AID-PTR29>3.0.CO;2-I|10.1002/(SICI)1099-1573(1998)12:1+<S117::AID-PTR269>3.0.CO;2-2|10.1002/1099-1573(200006)14:4<284::AID-PTR599>3.0.CO;2-Y|10.1002/CBDV.201800531|10.1002/CBIC.200500174|10.1002/CHIN.200533214|10.1002/FFJ.1096|10.1002/FFJ.1128|10.1002/FFJ.1582|10.1002/FFJ.2730020106|10.1002/FFJ.2730030204|10.1002/FFJ.2730030303|10.1002/FFJ.2730060314|10.1002/FFJ.2730070109|10.1002/FFJ.2730090305|10.1002/FFJ.2730100310|10.1002/FFJ.2730100605|10.1002/FFJ.2730100609|10.1002/HLCA.201200359|10.1002/JCCS.200000075|10.1002/JLAC.19717450107|10.1002/JLAC.199619960115|10.1002/JSSC.200900378|10.1002/biuz.19840140514|10.1002/cbic.200500174|10.1002/food.19880321030|10.1002/hlca.201200359/pdf|10.1007/978-3-662-03331-9_2|10.1007/BF00600860|10.1007/BF00634727|10.1007/BF00638774|10.1007/BF01386197|10.1007/BF01796055|10.1007/S10600-007-0232-9|10.1007/S13765-012-1162-1|10.1016/0031-9422(82)85188-1|10.1016/0031-9422(82)85198-4|10.1016/0031-9422(83)80102-2|10.1016/0031-9422(83)80171-X|10.1016/0031-9422(88)80126-2|10.1016/0031-9422(88)80206-1|10.1016/0031-9422(88)80461-8|10.1016/0031-9422(88)80790-8|10.1016/0031-9422(90)83041-X|10.1016/0031-9422(90)85066-O|10.1016/0031-9422(90)89060-M|10.1016/0031-9422(91)83641-W|10.1016/0031-9422(92)80456-O|10.1016/0031-9422(93)85295-3|10.1016/0031-9422(95)00013-W|10.1016/0031-9422(95)00559-5|10.1016/0031-9422(96)00225-7|10.1016/0305-1978(85)90081-X|10.1016/0378-8741(90)90044-T|10.1016/J.CHROMA.2007.12.011|10.1016/J.INDCROP.2017.12.016|10.1016/J.LWT.2018.05.011|10.1016/J.PHYTOCHEM.2003.08.004|10.1016/J.PHYTOCHEM.2004.03.019|10.1016/J.PHYTOCHEM.2005.04.006|10.1016/J.PHYTOCHEM.2008.04.008|10.1016/J.PHYTOCHEM.2009.06.013|10.1016/J.PHYTOCHEM.2018.06.006|10.1016/J.PHYTOCHEM.2019.112249|10.1016/S0021-9673(00)94572-2|10.1016/S0031-9422(00)80837-7|10.1016/S0031-9422(00)81225-X|10.1016/S0031-9422(00)81428-4|10.1016/S0031-9422(00)82421-8|10.1016/S0031-9422(00)83035-6|10.1016/S0031-9422(00)83116-7|10.1016/S0031-9422(00)83199-4|10.1016/S0031-9422(00)83991-6|10.1016/S0031-9422(00)84581-1|10.1016/S0031-9422(00)84946-8|10.1016/S0031-9422(00)86634-0|10.1016/S0031-9422(00)89256-0|10.1016/S0031-9422(00)89801-5|10.1016/S0031-9422(00)90411-4|10.1016/S0031-9422(00)90433-3|10.1016/S0031-9422(00)91365-7|10.1016/S0031-9422(00)97885-3|10.1016/S0031-9422(00)97945-7|10.1016/S0031-9422(97)00795-4|10.1016/S0031-9422(98)00067-3|10.1016/S0031-9422(98)00158-7|10.1016/S0031-9422(99)00050-3|10.1016/S0305-1978(00)00103-4|10.1016/S0305-1978(01)00032-1|10.1016/S0305-1978(97)00103-8|10.1016/S0968-0896(00)00306-0|10.1016/j.phytochem.2019.112249|10.1021/ACS.JAFC.5B05841.S001|10.1021/JF00039A035|10.1021/JF00046A030|10.1021/JF00097A027|10.1021/JF00116A075|10.1021/JF00118A056|10.1021/JF0116303|10.1021/JF020422N|10.1021/JF950792U|10.1021/JO040272A|10.1021/NP030475E|10.1021/NP060180B|10.1021/NP400872M|10.1021/NP50009A015|10.1021/NP50011A013|10.1021/NP50029A010|10.1021/NP50040A040|10.1021/NP50046A033|10.1021/NP50052A027|10.1021/NP50075A010|10.1021/NP50075A015|10.1021/NP50100A014|10.1021/NP50100A025|10.1021/NP50117A013|10.1021/jf011456i|10.1021/np060180b|10.1021/np400872m|10.1021/np50029a010|10.1021/np50075a010|10.1021/np50117a013|10.1023/B:JOEC.0000042400.14451.08|10.1055/S-2000-8654|10.1055/S-2006-957936|10.1055/S-2006-959482|10.1055/S-2006-959506|10.1055/S-2006-959580|10.1055/S-2006-959581|10.1055/S-2006-960090|10.1055/S-2006-960784|10.1055/S-2006-960908|10.1055/S-2006-961434|10.1055/S-2006-961452|10.1055/S-2006-961490|10.1055/S-2006-962421|10.1055/S-2007-969160|10.1055/S-2007-969442|10.1055/S-2007-969446|10.1055/S-2007-969948|10.1071/CH9630515|10.1071/CH9661541|10.1071/CH9840635|10.1071/CH9870405|10.1071/bru9860105|10.1076/1388-0209(200007)3831-SFT197|10.1076/PHBI.35.3.218.13295|10.1076/PHBI.39.3.191.5924|10.1080/0972060X.2010.10643892|10.1080/10412905.1990.9697838|10.1080/10412905.1991.9697906|10.1080/10412905.1991.9697930|10.1080/10412905.1991.9697953|10.1080/10412905.1991.9697963|10.1080/10412905.1991.9697964|10.1080/10412905.1991.9697984|10.1080/10412905.1992.9698006|10.1080/10412905.1992.9698035|10.1080/10412905.1992.9698043|10.1080/10412905.1992.9698053|10.1080/10412905.1992.9698062|10.1080/10412905.1992.9698083|10.1080/10412905.1992.9698084|10.1080/10412905.1992.9698087|10.1080/10412905.1992.9698125|10.1080/10412905.1992.9698135|10.1080/10412905.1993.9698162|10.1080/10412905.1993.9698170|10.1080/10412905.1993.9698176|10.1080/10412905.1993.9698218|10.1080/10412905.1993.9698231|10.1080/10412905.1993.9698243|10.1080/10412905.1993.9698277|10.1080/10412905.1993.9698279|10.1080/10412905.1994.9698337|10.1080/10412905.1994.9698361|10.1080/10412905.1994.9698428|10.1080/10412905.1994.9698433|10.1080/10412905.1994.9699345|10.1080/10412905.1994.9699347|10.1080/10412905.1994.9699353|10.1080/10412905.1994.9699356|10.1080/10412905.1995.9698479|10.1080/10412905.1995.9698501|10.1080/10412905.1995.9698508|10.1080/10412905.1995.9698516|10.1080/10412905.1995.9698577|10.1080/10412905.1995.9698581|10.1080/10412905.1996.9700555|10.1080/10412905.1996.9700567|10.1080/10412905.1996.9701028|10.1080/10412905.1997.9699459|10.1080/10412905.1997.9700724|10.1080/10412905.1997.9700799|10.1080/10412905.1998.9700878|10.1080/10412905.1998.9701005|10.1080/10412905.1998.9701015|10.1080/10412905.1999.9701150|10.1080/10412905.1999.9701158|10.1080/10412905.2001.9699635|10.1080/10412905.2002.9699852|10.1080/10412905.2010.9700320|10.1080/10412905.2010.9700338|10.1080/10412905.2010.9700389|10.1080/10412905.2012.747271|10.1135/CCCC19610811|10.1139/V64-059|10.1139/V86-001|10.1163/1574-9347_DNP_E832720|10.1177/1934578X1100600135|10.1177/1934578X1200700239|10.1248/CPB.23.1892|10.1248/CPB.28.681|10.1248/CPB.30.1952|10.1248/CPB.33.1148|10.1248/CPB.34.3854|10.1248/CPB.38.2033|10.1248/CPB.42.112|10.1248/CPB.44.1603|10.1248/CPB.49.1558|10.1248/CPB.49.716|10.1248/YAKUSHI1947.115.7_543|10.1248/YAKUSHI1947.116.9_728|10.1248/YAKUSHI1947.97.5_515|10.12692/IJB/12.4.370-382|10.1271/BBB1961.45.507|10.1271/BBB1961.51.1449|10.1271/BBB1961.52.2961|10.1271/NOGEIKAGAKU1924.67.1417|10.14233/AJCHEM.2013.14346|10.1515/ZNC-1982-3-401|10.1515/ZNC-2006-7-801|10.1515/znc-2006-7-801|10.1590/S0103-50532002000300014|10.1590/S0103-50532011000400018|10.3109/13880208709088136|10.3109/13880208909116900|10.3109/13880209109082877|10.3390/MOLECULES24234244|10.3987/R-1987-02-0447

>  <synonyms>  (738) 
(+)-.BETA.-EUDESMOL|(+)-beta-EUDESMOL|(2R,4aR,8aS)-Decahydro-8-methylene-alpha,alpha,4a-trimethyl-2-naphthylmethanol|-eudesmol|.BETA.-EUDESMOL, (+)-|.beta.-Eudesmol|2-((2R,4aR,8aS)-4a-methyl-8-methylenedecahydronaphthalen-2-yl)propan-2-ol|2-NAPHTHALENEMETHANOL, DECAHYDRO-.ALPHA.,.ALPHA.,4A-TRIMETHYL-8-METHYLENE-, (2R-(2.ALPHA.,4A.ALPHA.,8A.BETA.))-|2-NAPHTHALENEMETHANOL, DECAHYDRO-alpha,alpha,4A-TRIMETHYL-8-METHYLENE-, (2R-(2alpha,4Aalpha,8Abeta))-|2-Naphthalenemethanol, 1,2.alpha.,3,4,4a,5,6,7,8,8a.alpha.-decahydro-.alpha.,.alpha.,4a.beta.-trimethyl-8-methylene-|2-Naphthalenemethanol, decahydro-.alpha.,.alpha.,4a-trimethyl-8-methylene-, (2R,4aR,8aS)-|2-Naphthalenemethanol, decahydro-.alpha.,.alpha.,4a-trimethyl-8-methylene-, [2R-(2.alpha.,4a.alpha.,8a.beta.)]-|2-Naphthalenemethanol, decahydro-8-methylene-alpha,alpha,4a-trimethyl-, (2R-(2-alpha,4a-alpha,8a-beta)-|2-[(2R,4aR,8aS)-4a-methyl-8-methylene-decalin-2-yl]propan-2-ol|2-[(2R,4aR,8aS)-4a-methyl-8-methylidene-1,2,3,4,5,6,7,8a-octahydronaphthalen-2-yl]propan-2-ol|3-Fluoro-4-cyanophenyltrans-4-(4-n-propylcyclohexyl)-benzoate|4(15)-Selinen-11-ol|473-15-4|6R61524P48|?-Eudesmol|AKOS030254844|BDBM50529606|C09664|CHEBI:10417|CHEMBL88244|CS-0032182|DTXSID60883391|Eudesm-4(14)-en-11-ol|HY-N6018|MS-23247|NS00094764|Q27108630|SCHEMBL310604|UNII-6R61524P48|[beta]-Eudesmol|\u03b1-eudesmol|\u221a\u00e9\u00ac\u2264-eudesmol|beta -Eudesmol|beta-EUDESMOL, (+)-|beta-Eudesmol, >=90% (GC)|beta-Selinenol|beta-eudesmol

>  <cas>  (738) 
473-15-4

$$$$

     RDKit          2D

 26 27  0  0  0  0  0  0  0  0999 V2000
    2.8723   -5.0787    0.0000 C   0  0  0  0  0  0  0  0  0  0  0  0
    2.2019   -3.7368    0.0000 O   0  0  0  0  0  0  0  0  0  0  0  0
    3.0288   -2.4853    0.0000 C   0  0  0  0  0  0  0  0  0  0  0  0
    4.5261   -2.5757    0.0000 O   0  0  0  0  0  0  0  0  0  0  0  0
    2.3585   -1.1434    0.0000 C   0  0  0  0  0  0  0  0  0  0  0  0
    0.8612   -1.0531    0.0000 C   0  0  0  0  0  0  0  0  0  0  0  0
    0.1908    0.2888    0.0000 C   0  0  0  0  0  0  0  0  0  0  0  0
    1.0177    1.5403    0.0000 C   0  0  0  0  0  0  0  0  0  0  0  0
    0.3474    2.8822    0.0000 C   0  0  0  0  0  0  0  0  0  0  0  0
   -1.1499    2.9725    0.0000 C   0  0  0  0  0  0  0  0  0  0  0  0
   -1.9768    1.7211    0.0000 C   0  0  0  0  0  0  0  0  0  0  0  0
   -3.4741    1.8114    0.0000 C   0  0  0  0  0  0  0  0  0  0  0  0
   -4.3010    0.5600    0.0000 C   0  0  0  0  0  0  0  0  0  0  0  0
   -3.6306   -0.7819    0.0000 C   0  0  0  0  0  0  0  0  0  0  0  0
   -4.4575   -2.0334    0.0000 O   0  0  0  0  0  0  0  0  0  0  0  0
   -5.9548   -1.9430    0.0000 C   0  0  0  0  0  0  0  0  0  0  0  0
   -2.1334   -0.8723    0.0000 C   0  0  0  0  0  0  0  0  0  0  0  0
   -1.4630   -2.2142    0.0000 O   0  0  0  0  0  0  0  0  0  0  0  0
   -2.2899   -3.4657    0.0000 C   0  0  0  0  0  0  0  0  0  0  0  0
   -1.3064    0.3792    0.0000 C   0  0  0  0  0  0  0  0  0  0  0  0
    1.1743    4.1336    0.0000 C   0  0  0  0  0  0  0  0  0  0  0  0
    2.6716    4.0433    0.0000 O   0  0  0  0  0  0  0  0  0  0  0  0
    0.5039    5.4755    0.0000 O   0  0  0  0  0  0  0  0  0  0  0  0
    2.5150    1.4499    0.0000 C   0  0  0  0  0  0  0  0  0  0  0  0
    3.1854    0.1080    0.0000 C   0  0  0  0  0  0  0  0  0  0  0  0
    4.6826    0.0177    0.0000 O   0  0  0  0  0  0  0  0  0  0  0  0
  1  2  1  0
  2  3  1  0
  3  4  2  0
  3  5  1  0
  5  6  2  0
  6  7  1  0
  7  8  2  0
  8  9  1  0
  9 10  2  0
 10 11  1  0
 11 12  2  0
 12 13  1  0
 13 14  2  0
 14 15  1  0
 15 16  1  0
 14 17  1  0
 17 18  1  0
 18 19  1  0
 17 20  2  0
  9 21  1  0
 21 22  2  0
 21 23  1  0
  8 24  1  0
 24 25  2  0
 25 26  1  0
 25  5  1  0
 20 11  1  0
M  END
>  <identifier>  (739) 
CNP0080487.1

>  <canonical_smiles>  (739) 
COC(=O)C1=CC=C(/C(=C\C2=CC=C(OC)C(OC)=C2)C(=O)O)C=C1O

>  <standard_inchi>  (739) 
InChI=1S/C19H18O7/c1-24-16-7-4-11(9-17(16)25-2)8-14(18(21)22)12-5-6-13(15(20)10-12)19(23)26-3/h4-10,20H,1-3H3,(H,21,22)/b14-8+

>  <standard_inchi_key>  (739) 
FIZFMQMREPLBIE-RIYZIHGNSA-N

>  <name>  (739) 
nan

>  <iupac_name>  (739) 
nan

>  <annotation_level>  (739) 
0

>  <total_atom_count>  (739) 
44

>  <heavy_atom_count>  (739) 
26

>  <molecular_weight>  (739) 
358.35

>  <exact_molecular_weight>  (739) 
358.10525

>  <molecular_formula>  (739) 
C19H18O7

>  <alogp>  (739) 
2.82

>  <topological_polar_surface_area>  (739) 
102.29

>  <rotatable_bond_count>  (739) 
6

>  <hydrogen_bond_acceptors>  (739) 
6

>  <hydrogen_bond_donors>  (739) 
2

>  <hydrogen_bond_acceptors_lipinski>  (739) 
6

>  <hydrogen_bond_donors_lipinski>  (739) 
2

>  <lipinski_rule_of_five_violations>  (739) 
0

>  <aromatic_rings_count>  (739) 
2

>  <qed_drug_likeliness>  (739) 
0.46

>  <formal_charge>  (739) 
0

>  <fractioncsp3>  (739) 
0.16

>  <number_of_minimal_rings>  (739) 
2

>  <van_der_walls_volume>  (739) 
313.83

>  <contains_sugar>  (739) 
False

>  <contains_ring_sugars>  (739) 
False

>  <contains_linear_sugars>  (739) 
False

>  <murcko_framework>  (739) 
c1ccc(cc1)C=Cc2ccccc2

>  <np_likeness>  (739) 
0.29

>  <chemical_class>  (739) 
nan

>  <chemical_sub_class>  (739) 
nan

>  <chemical_super_class>  (739) 
nan

>  <direct_parent_classification>  (739) 
nan

>  <np_classifier_pathway>  (739) 
Shikimates and Phenylpropanoids

>  <np_classifier_superclass>  (739) 
Phenylpropanoids (C6-C3)

>  <np_classifier_class>  (739) 
nan

>  <np_classifier_is_glycoside>  (739) 
False

>  <organisms>  (739) 
Hortia oreadica

>  <collections>  (739) 
Latin America dataset|NuBBEDB|WikiData Natural Products|ZINC NP

>  <dois>  (739) 
10.1016/J.CHROMA.2009.02.009|10.1016/j.chroma.2009.02.009

>  <synonyms>  (739) 
nan

>  <cas>  (739) 
nan

$$$$

     RDKit          2D

 29 32  0  0  0  0  0  0  0  0999 V2000
    5.9016   -1.5247    0.0000 C   0  0  0  0  0  0  0  0  0  0  0  0
    4.4037   -1.4451    0.0000 C   0  0  0  0  0  0  0  0  0  0  0  0
    3.5858   -2.7025    0.0000 C   0  0  0  0  0  0  0  0  0  0  0  0
    2.0879   -2.6230    0.0000 C   0  0  0  0  0  0  0  0  0  0  0  0
    1.4079   -1.2860    0.0000 C   0  0  0  0  0  0  0  0  0  0  0  0
    2.2258   -0.0285    0.0000 C   0  0  0  0  0  0  0  0  0  0  0  0
    3.0436    1.2289    0.0000 C   0  0  0  0  0  0  0  0  0  0  0  0
    1.5457    1.3085    0.0000 C   0  0  0  0  0  0  0  0  0  0  0  0
    0.0478    1.3880    0.0000 C   0  0  0  0  0  0  0  0  0  0  0  0
   -0.7700    0.1306    0.0000 C   0  0  0  0  0  0  0  0  0  0  0  0
   -1.4500    1.4676    0.0000 C   0  0  0  0  0  0  0  0  0  0  0  0
   -2.2679    0.2102    0.0000 C   0  0  0  0  0  0  0  0  0  0  0  0
   -2.9479    1.5472    0.0000 C   0  0  0  0  0  0  0  0  0  0  0  0
   -4.4458    1.6268    0.0000 C   0  0  0  0  0  0  0  0  0  0  0  0
   -5.1258    2.9638    0.0000 C   0  0  0  0  0  0  0  0  0  0  0  0
   -5.2637    0.3694    0.0000 C   0  0  0  0  0  0  0  0  0  0  0  0
   -6.7616    0.4489    0.0000 O   0  0  0  0  0  0  0  0  0  0  0  0
   -4.5837   -0.9676    0.0000 C   0  0  0  0  0  0  0  0  0  0  0  0
   -3.0858   -1.0472    0.0000 C   0  0  0  0  0  0  0  0  0  0  0  0
   -3.9036   -2.3046    0.0000 C   0  0  0  0  0  0  0  0  0  0  0  0
   -2.4057   -2.3842    0.0000 C   0  0  0  0  0  0  0  0  0  0  0  0
   -0.9079   -2.4638    0.0000 C   0  0  0  0  0  0  0  0  0  0  0  0
   -0.0900   -1.2064    0.0000 C   0  0  0  0  0  0  0  0  0  0  0  0
    0.5900   -2.5434    0.0000 C   0  0  0  0  0  0  0  0  0  0  0  0
    3.7236   -0.1081    0.0000 C   0  0  0  0  0  0  0  0  0  0  0  0
    4.5415    1.1493    0.0000 C   0  0  0  0  0  0  0  0  0  0  0  0
    3.8615    2.4863    0.0000 C   0  0  0  0  0  0  0  0  0  0  0  0
    2.3636    2.5659    0.0000 O   0  0  0  0  0  0  0  0  0  0  0  0
    4.6793    3.7437    0.0000 O   0  0  0  0  0  0  0  0  0  0  0  0
  1  2  1  0
  2  3  2  0
  3  4  1  0
  4  5  2  0
  5  6  1  0
  6  7  1  6
  6  8  1  0
  8  9  1  0
  9 10  1  0
 10 11  1  1
 10 12  1  0
 12 13  1  1
 13 14  1  0
 14 15  1  6
 14 16  1  0
 16 17  2  0
 16 18  1  0
 18 19  1  0
 19 20  1  6
 19 21  1  0
 21 22  1  0
 22 23  1  0
 23 24  1  6
  6 25  1  0
 25 26  2  0
 26 27  1  0
 27 28  2  0
 27 29  1  0
 25  2  1  0
 23  5  1  0
 23 10  1  0
 19 12  1  0
M  END
>  <identifier>  (740) 
CNP0258530.1

>  <canonical_smiles>  (740) 
CC1=CC=C2[C@@](C)(CC[C@@]3(C)[C@@H]4C[C@@H](C)C(=O)C[C@]4(C)CC[C@]23C)/C1=C\C(=O)O

>  <standard_inchi>  (740) 
InChI=1S/C26H36O3/c1-16-7-8-20-24(4,18(16)14-22(28)29)10-12-26(6)21-13-17(2)19(27)15-23(21,3)9-11-25(20,26)5/h7-8,14,17,21H,9-13,15H2,1-6H3,(H,28,29)/b18-14-/t17-,21-,23+,24+,25-,26+/m1/s1

>  <standard_inchi_key>  (740) 
YBPFFFVUQSBIIL-VRWFVLJISA-N

>  <name>  (740) 
nan

>  <iupac_name>  (740) 
(2~{Z})-2-[(4~{b}~{S},6~{a}~{S},9~{R},10~{a}~{R},10~{b}~{S},12~{a}~{S})-2,4~{b},6~{a},9,10~{b},12~{a}-hexamethyl-8-oxo-5,6,7,9,10,10~{a},11,12-octahydrochrysen-1-ylidene]acetic acid

>  <annotation_level>  (740) 
4

>  <total_atom_count>  (740) 
65

>  <heavy_atom_count>  (740) 
29

>  <molecular_weight>  (740) 
396.57

>  <exact_molecular_weight>  (740) 
396.26645

>  <molecular_formula>  (740) 
C26H36O3

>  <alogp>  (740) 
6.11

>  <topological_polar_surface_area>  (740) 
54.37

>  <rotatable_bond_count>  (740) 
1

>  <hydrogen_bond_acceptors>  (740) 
2

>  <hydrogen_bond_donors>  (740) 
1

>  <hydrogen_bond_acceptors_lipinski>  (740) 
2

>  <hydrogen_bond_donors_lipinski>  (740) 
1

>  <lipinski_rule_of_five_violations>  (740) 
1

>  <aromatic_rings_count>  (740) 
0

>  <qed_drug_likeliness>  (740) 
0.54

>  <formal_charge>  (740) 
0

>  <fractioncsp3>  (740) 
0.69

>  <number_of_minimal_rings>  (740) 
4

>  <van_der_walls_volume>  (740) 
nan

>  <contains_sugar>  (740) 
False

>  <contains_ring_sugars>  (740) 
False

>  <contains_linear_sugars>  (740) 
False

>  <murcko_framework>  (740) 
C=1C=C2C(CC1)CCC3C2CCC4CCCCC43

>  <np_likeness>  (740) 
2.79

>  <chemical_class>  (740) 
Steroids and steroid derivatives

>  <chemical_sub_class>  (740) 
Oxosteroids

>  <chemical_super_class>  (740) 
Lipids and lipid-like molecules

>  <direct_parent_classification>  (740) 
16-oxosteroids

>  <np_classifier_pathway>  (740) 
Terpenoids

>  <np_classifier_superclass>  (740) 
Triterpenoids

>  <np_classifier_class>  (740) 
nan

>  <np_classifier_is_glycoside>  (740) 
False

>  <organisms>  (740) 
Peritassa campestris

>  <collections>  (740) 
Latin America dataset|NuBBEDB|WikiData Natural Products

>  <dois>  (740) 
10.1515/ZNC-2002-3-433|10.1515/znc-2002-3-433

>  <synonyms>  (740) 
campestrine-I

>  <cas>  (740) 
nan

$$$$

     RDKit          2D

 26 27  0  0  0  0  0  0  0  0999 V2000
   12.8516    1.3892    0.0000 O   0  0  0  0  0  0  0  0  0  0  0  0
   12.7576   -0.1078    0.0000 C   0  0  0  0  0  0  0  0  0  0  0  0
   14.0070   -0.9378    0.0000 O   0  0  0  0  0  0  0  0  0  0  0  0
   11.4141   -0.7749    0.0000 C   0  0  0  0  0  0  0  0  0  0  0  0
   10.1646    0.0551    0.0000 C   0  0  0  0  0  0  0  0  0  0  0  0
    8.8211   -0.6120    0.0000 C   0  0  0  0  0  0  0  0  0  0  0  0
    7.5716    0.2180    0.0000 C   0  0  0  0  0  0  0  0  0  0  0  0
    6.2281   -0.4491    0.0000 C   0  0  0  0  0  0  0  0  0  0  0  0
    4.9787    0.3809    0.0000 C   0  0  0  0  0  0  0  0  0  0  0  0
    3.6352   -0.2862    0.0000 C   0  0  0  0  0  0  0  0  0  0  0  0
    2.3857    0.5438    0.0000 C   0  0  0  0  0  0  0  0  0  0  0  0
    1.0422   -0.1233    0.0000 C   0  0  0  0  0  0  0  0  0  0  0  0
   -0.2072    0.7067    0.0000 C   0  0  0  0  0  0  0  0  0  0  0  0
   -1.5508    0.0396    0.0000 C   0  0  0  0  0  0  0  0  0  0  0  0
   -2.8002    0.8696    0.0000 C   0  0  0  0  0  0  0  0  0  0  0  0
   -4.1437    0.2025    0.0000 C   0  0  0  0  0  0  0  0  0  0  0  0
   -5.3932    1.0325    0.0000 C   0  0  0  0  0  0  0  0  0  0  0  0
   -6.7367    0.3654    0.0000 C   0  0  0  0  0  0  0  0  0  0  0  0
   -6.8307   -1.1316    0.0000 C   0  0  0  0  0  0  0  0  0  0  0  0
   -8.1742   -1.7987    0.0000 C   0  0  0  0  0  0  0  0  0  0  0  0
   -9.4237   -0.9687    0.0000 C   0  0  0  0  0  0  0  0  0  0  0  0
  -10.8765   -1.3419    0.0000 O   0  0  0  0  0  0  0  0  0  0  0  0
  -11.6804   -0.0755    0.0000 C   0  0  0  0  0  0  0  0  0  0  0  0
  -10.7244    1.0804    0.0000 O   0  0  0  0  0  0  0  0  0  0  0  0
   -9.3296    0.5283    0.0000 C   0  0  0  0  0  0  0  0  0  0  0  0
   -7.9861    1.1954    0.0000 C   0  0  0  0  0  0  0  0  0  0  0  0
  1  2  2  0
  2  3  1  0
  2  4  1  0
  4  5  1  0
  5  6  1  0
  6  7  1  0
  7  8  1  0
  8  9  1  0
  9 10  1  0
 10 11  1  0
 11 12  1  0
 12 13  1  0
 13 14  1  0
 14 15  1  0
 15 16  1  0
 16 17  1  0
 17 18  1  0
 18 19  2  0
 19 20  1  0
 20 21  2  0
 21 22  1  0
 22 23  1  0
 23 24  1  0
 24 25  1  0
 25 26  2  0
 26 18  1  0
 25 21  1  0
M  END
>  <identifier>  (741) 
CNP0157974.0

>  <canonical_smiles>  (741) 
O=C(O)CCCCCCCCCCCCCCC1=CC=C2OCOC2=C1

>  <standard_inchi>  (741) 
InChI=1S/C22H34O4/c23-22(24)14-12-10-8-6-4-2-1-3-5-7-9-11-13-19-15-16-20-21(17-19)26-18-25-20/h15-17H,1-14,18H2,(H,23,24)

>  <standard_inchi_key>  (741) 
FSCOINDZTAFRMP-UHFFFAOYSA-N

>  <name>  (741) 
nan

>  <iupac_name>  (741) 
15-(1,3-benzodioxol-5-yl)pentadecanoic acid

>  <annotation_level>  (741) 
5

>  <total_atom_count>  (741) 
60

>  <heavy_atom_count>  (741) 
26

>  <molecular_weight>  (741) 
362.51

>  <exact_molecular_weight>  (741) 
362.24571

>  <molecular_formula>  (741) 
C22H34O4

>  <alogp>  (741) 
6.11

>  <topological_polar_surface_area>  (741) 
55.76

>  <rotatable_bond_count>  (741) 
15

>  <hydrogen_bond_acceptors>  (741) 
3

>  <hydrogen_bond_donors>  (741) 
1

>  <hydrogen_bond_acceptors_lipinski>  (741) 
3

>  <hydrogen_bond_donors_lipinski>  (741) 
1

>  <lipinski_rule_of_five_violations>  (741) 
1

>  <aromatic_rings_count>  (741) 
1

>  <qed_drug_likeliness>  (741) 
0.38

>  <formal_charge>  (741) 
0

>  <fractioncsp3>  (741) 
0.68

>  <number_of_minimal_rings>  (741) 
2

>  <van_der_walls_volume>  (741) 
368.62

>  <contains_sugar>  (741) 
False

>  <contains_ring_sugars>  (741) 
False

>  <contains_linear_sugars>  (741) 
False

>  <murcko_framework>  (741) 
O1c2ccccc2OC1

>  <np_likeness>  (741) 
0.32

>  <chemical_class>  (741) 
Fatty Acyls

>  <chemical_sub_class>  (741) 
Fatty acids and conjugates

>  <chemical_super_class>  (741) 
Lipids and lipid-like molecules

>  <direct_parent_classification>  (741) 
Long-chain fatty acids

>  <np_classifier_pathway>  (741) 
Fatty acids

>  <np_classifier_superclass>  (741) 
Fatty Acids and Conjugates

>  <np_classifier_class>  (741) 
Carbocyclic fatty acids

>  <np_classifier_is_glycoside>  (741) 
False

>  <organisms>  (741) 
Iryanthera juruensis

>  <collections>  (741) 
ChemSpider NPs|Latin America dataset|NuBBEDB|Super Natural II|UNPD (Universal Natural Products Database)|WikiData Natural Products|ZINC NP

>  <dois>  (741) 
10.1016/S0031-9422(00)00477-5

>  <synonyms>  (741) 
15'-(34-Methylenedioxyphenyl)-pentadecanoic acid

>  <cas>  (741) 
nan

$$$$

     RDKit          2D

 18 19  0  0  0  0  0  0  0  0999 V2000
   -1.0861   -2.4821    0.0000 O   0  0  0  0  0  0  0  0  0  0  0  0
   -0.9978   -0.9847    0.0000 C   0  0  0  0  0  0  0  0  0  0  0  0
    0.3431   -0.3124    0.0000 O   0  0  0  0  0  0  0  0  0  0  0  0
    1.5957   -1.1375    0.0000 C   0  0  0  0  0  0  0  0  0  0  0  0
    2.9366   -0.4652    0.0000 C   0  0  0  0  0  0  0  0  0  0  0  0
    4.1893   -1.2904    0.0000 C   0  0  0  0  0  0  0  0  0  0  0  0
    5.5302   -0.6181    0.0000 C   0  0  0  0  0  0  0  0  0  0  0  0
    5.6185    0.8793    0.0000 C   0  0  0  0  0  0  0  0  0  0  0  0
    4.3658    1.7045    0.0000 C   0  0  0  0  0  0  0  0  0  0  0  0
    3.0249    1.0322    0.0000 C   0  0  0  0  0  0  0  0  0  0  0  0
   -2.2505   -0.1595    0.0000 C   0  0  0  0  0  0  0  0  0  0  0  0
   -2.1623    1.3379    0.0000 C   0  0  0  0  0  0  0  0  0  0  0  0
   -0.8214    2.0101    0.0000 O   0  0  0  0  0  0  0  0  0  0  0  0
   -3.4149    2.1630    0.0000 C   0  0  0  0  0  0  0  0  0  0  0  0
   -4.7558    1.4907    0.0000 C   0  0  0  0  0  0  0  0  0  0  0  0
   -4.8441   -0.0067    0.0000 C   0  0  0  0  0  0  0  0  0  0  0  0
   -3.5914   -0.8318    0.0000 C   0  0  0  0  0  0  0  0  0  0  0  0
   -3.6797   -2.3292    0.0000 O   0  0  0  0  0  0  0  0  0  0  0  0
  1  2  2  0
  2  3  1  0
  3  4  1  0
  4  5  1  0
  5  6  2  0
  6  7  1  0
  7  8  2  0
  8  9  1  0
  9 10  2  0
  2 11  1  0
 11 12  2  0
 12 13  1  0
 12 14  1  0
 14 15  2  0
 15 16  1  0
 16 17  2  0
 17 18  1  0
 10  5  1  0
 17 11  1  0
M  END
>  <identifier>  (742) 
CNP0145333.0

>  <canonical_smiles>  (742) 
O=C(OCC1=CC=CC=C1)C1=C(O)C=CC=C1O

>  <standard_inchi>  (742) 
InChI=1S/C14H12O4/c15-11-7-4-8-12(16)13(11)14(17)18-9-10-5-2-1-3-6-10/h1-8,15-16H,9H2

>  <standard_inchi_key>  (742) 
UONCJNZKQVIGHS-UHFFFAOYSA-N

>  <name>  (742) 
Benzyl 2,6-dihydroxybenzoate

>  <iupac_name>  (742) 
benzyl 2,6-dihydroxybenzoate

>  <annotation_level>  (742) 
5

>  <total_atom_count>  (742) 
30

>  <heavy_atom_count>  (742) 
18

>  <molecular_weight>  (742) 
244.25

>  <exact_molecular_weight>  (742) 
244.07356

>  <molecular_formula>  (742) 
C14H12O4

>  <alogp>  (742) 
2.45

>  <topological_polar_surface_area>  (742) 
66.76

>  <rotatable_bond_count>  (742) 
3

>  <hydrogen_bond_acceptors>  (742) 
4

>  <hydrogen_bond_donors>  (742) 
2

>  <hydrogen_bond_acceptors_lipinski>  (742) 
4

>  <hydrogen_bond_donors_lipinski>  (742) 
2

>  <lipinski_rule_of_five_violations>  (742) 
0

>  <aromatic_rings_count>  (742) 
2

>  <qed_drug_likeliness>  (742) 
0.81

>  <formal_charge>  (742) 
0

>  <fractioncsp3>  (742) 
0.07

>  <number_of_minimal_rings>  (742) 
2

>  <van_der_walls_volume>  (742) 
214.75

>  <contains_sugar>  (742) 
False

>  <contains_ring_sugars>  (742) 
False

>  <contains_linear_sugars>  (742) 
False

>  <murcko_framework>  (742) 
O(Cc1ccccc1)Cc2ccccc2

>  <np_likeness>  (742) 
0.05

>  <chemical_class>  (742) 
Benzene and substituted derivatives

>  <chemical_sub_class>  (742) 
Benzoic acids and derivatives

>  <chemical_super_class>  (742) 
Benzenoids

>  <direct_parent_classification>  (742) 
o-Hydroxybenzoic acid esters

>  <np_classifier_pathway>  (742) 
Shikimates and Phenylpropanoids

>  <np_classifier_superclass>  (742) 
Phenolic acids (C6-C1)

>  <np_classifier_class>  (742) 
Simple phenolic acids

>  <np_classifier_is_glycoside>  (742) 
False

>  <organisms>  (742) 
Acanthopanax ricinifolius|Albizia julibrissin|Anacardium occidentale|Anchusa officinalis|Aniba kappleri|Aniba riparia|Barringtonia asiatica|Calocera viscosa|Caryopteris mongholica|Cynanchum formosanum|Dalbergia rubiginosa|Desmos chinensis|Euphorbia kansui|Illicium verum|Leucetta microrhaphis|Mappia foetida|Mesembryanthemum tortuosum|Metapenaeus macleayi|Monomorium delagoense|Pinus monophylla|Ramalina terebrata|Satureja atropatana|Uvaria grandiflora

>  <collections>  (742) 
Australian natural products|CMAUP (cCollective molecular activities of useful plants)|Latin America dataset|NPASS|NuBBEDB|Super Natural II|UNPD (Universal Natural Products Database)|WikiData Natural Products|ZINC NP

>  <dois>  (742) 
10.1016/0031-9422(84)83114-3|10.1016/J.TET.2011.05.070|10.1016/S0031-9422(00)83890-X|10.1016/S0031-9422(98)00150-2|10.1021/NP9800553|10.1080/14786419.2011.619187|10.1590/1809-43921982123668

>  <synonyms>  (742) 
2,6-Dihydroxybenzoic Acid Benzyl Ester|85985-75-7|Benzyl 26-dihydroxybenzoate|DB-129715|DTXSID30442151|SCHEMBL3919215|Verimol K|verimol k

>  <cas>  (742) 
nan

$$$$

     RDKit          2D

 15 16  0  0  0  0  0  0  0  0999 V2000
   -4.3053   -2.3397    0.0000 O   0  0  0  0  0  0  0  0  0  0  0  0
   -3.7128   -0.9616    0.0000 C   0  0  0  0  0  0  0  0  0  0  0  0
   -4.6100    0.2405    0.0000 C   0  0  0  0  0  0  0  0  0  0  0  0
   -4.0175    1.6185    0.0000 C   0  0  0  0  0  0  0  0  0  0  0  0
   -2.5279    1.7944    0.0000 C   0  0  0  0  0  0  0  0  0  0  0  0
   -1.6307    0.5923    0.0000 C   0  0  0  0  0  0  0  0  0  0  0  0
   -0.1411    0.7682    0.0000 C   0  0  0  0  0  0  0  0  0  0  0  0
    0.7561   -0.4339    0.0000 C   0  0  0  0  0  0  0  0  0  0  0  0
    2.2458   -0.2580    0.0000 C   0  0  0  0  0  0  0  0  0  0  0  0
    3.1429   -1.4602    0.0000 C   0  0  0  0  0  0  0  0  0  0  0  0
    4.6326   -1.2843    0.0000 C   0  0  0  0  0  0  0  0  0  0  0  0
    5.2251    0.0938    0.0000 C   0  0  0  0  0  0  0  0  0  0  0  0
    4.3279    1.2959    0.0000 C   0  0  0  0  0  0  0  0  0  0  0  0
    2.8382    1.1200    0.0000 C   0  0  0  0  0  0  0  0  0  0  0  0
   -2.2232   -0.7857    0.0000 O   0  0  0  0  0  0  0  0  0  0  0  0
  1  2  2  0
  2  3  1  0
  3  4  2  0
  4  5  1  0
  5  6  1  0
  6  7  1  0
  7  8  2  0
  8  9  1  0
  9 10  2  0
 10 11  1  0
 11 12  2  0
 12 13  1  0
 13 14  2  0
  6 15  1  0
 15  2  1  0
 14  9  1  0
M  END
>  <identifier>  (743) 
CNP0179728.5

>  <canonical_smiles>  (743) 
O=C1C=CCC(/C=C/C2=CC=CC=C2)O1

>  <standard_inchi>  (743) 
InChI=1S/C13H12O2/c14-13-8-4-7-12(15-13)10-9-11-5-2-1-3-6-11/h1-6,8-10,12H,7H2/b10-9+

>  <standard_inchi_key>  (743) 
RLGHFVLWYYVMQZ-MDZDMXLPSA-N

>  <name>  (743) 
nan

>  <iupac_name>  (743) 
nan

>  <annotation_level>  (743) 
0

>  <total_atom_count>  (743) 
27

>  <heavy_atom_count>  (743) 
15

>  <molecular_weight>  (743) 
200.24

>  <exact_molecular_weight>  (743) 
200.08373

>  <molecular_formula>  (743) 
C13H12O2

>  <alogp>  (743) 
2.57

>  <topological_polar_surface_area>  (743) 
26.30

>  <rotatable_bond_count>  (743) 
2

>  <hydrogen_bond_acceptors>  (743) 
2

>  <hydrogen_bond_donors>  (743) 
0

>  <hydrogen_bond_acceptors_lipinski>  (743) 
2

>  <hydrogen_bond_donors_lipinski>  (743) 
0

>  <lipinski_rule_of_five_violations>  (743) 
0

>  <aromatic_rings_count>  (743) 
1

>  <qed_drug_likeliness>  (743) 
0.69

>  <formal_charge>  (743) 
0

>  <fractioncsp3>  (743) 
0.15

>  <number_of_minimal_rings>  (743) 
2

>  <van_der_walls_volume>  (743) 
188.96

>  <contains_sugar>  (743) 
False

>  <contains_ring_sugars>  (743) 
False

>  <contains_linear_sugars>  (743) 
False

>  <murcko_framework>  (743) 
O1CC=CCC1C=Cc2ccccc2

>  <np_likeness>  (743) 
2.29

>  <chemical_class>  (743) 
nan

>  <chemical_sub_class>  (743) 
nan

>  <chemical_super_class>  (743) 
nan

>  <direct_parent_classification>  (743) 
nan

>  <np_classifier_pathway>  (743) 
Shikimates and Phenylpropanoids

>  <np_classifier_superclass>  (743) 
Styrylpyrones

>  <np_classifier_class>  (743) 
Kavalactones and derivatives

>  <np_classifier_is_glycoside>  (743) 
False

>  <organisms>  (743) 
Cryptocarya moschata

>  <collections>  (743) 
CMAUP (cCollective molecular activities of useful plants)|Latin America dataset|NuBBEDB

>  <dois>  (743) 
10.1002/pca.818

>  <synonyms>  (743) 
nan

>  <cas>  (743) 
nan

$$$$

     RDKit          2D

 43 47  0  0  0  0  0  0  0  0999 V2000
  -11.6379    0.8185    0.0000 C   0  0  0  0  0  0  0  0  0  0  0  0
  -10.8815   -0.4768    0.0000 O   0  0  0  0  0  0  0  0  0  0  0  0
   -9.3815   -0.4694    0.0000 C   0  0  0  0  0  0  0  0  0  0  0  0
   -8.6380    0.8333    0.0000 C   0  0  0  0  0  0  0  0  0  0  0  0
   -7.1380    0.8408    0.0000 C   0  0  0  0  0  0  0  0  0  0  0  0
   -6.3815   -0.4545    0.0000 C   0  0  0  0  0  0  0  0  0  0  0  0
   -4.8816   -0.4471    0.0000 C   0  0  0  0  0  0  0  0  0  0  0  0
   -4.1251   -1.7424    0.0000 C   0  0  0  0  0  0  0  0  0  0  0  0
   -2.6252   -1.7350    0.0000 C   0  0  0  0  0  0  0  0  0  0  0  0
   -1.8687   -3.0303    0.0000 O   0  0  0  0  0  0  0  0  0  0  0  0
   -1.8816   -0.4323    0.0000 C   0  0  0  0  0  0  0  0  0  0  0  0
   -0.3816   -0.4248    0.0000 C   0  0  0  0  0  0  0  0  0  0  0  0
    0.3748   -1.7201    0.0000 O   0  0  0  0  0  0  0  0  0  0  0  0
    0.3619    0.8779    0.0000 C   0  0  0  0  0  0  0  0  0  0  0  0
   -0.3945    2.1732    0.0000 C   0  0  0  0  0  0  0  0  0  0  0  0
    0.3491    3.4759    0.0000 O   0  0  0  0  0  0  0  0  0  0  0  0
    1.8491    3.4834    0.0000 C   0  0  0  0  0  0  0  0  0  0  0  0
    2.6055    2.1881    0.0000 O   0  0  0  0  0  0  0  0  0  0  0  0
    4.1055    2.1955    0.0000 C   0  0  0  0  0  0  0  0  0  0  0  0
    4.8619    0.9002    0.0000 C   0  0  0  0  0  0  0  0  0  0  0  0
    4.1183   -0.4026    0.0000 O   0  0  0  0  0  0  0  0  0  0  0  0
    4.8747   -1.6979    0.0000 C   0  0  0  0  0  0  0  0  0  0  0  0
    4.1312   -3.0006    0.0000 O   0  0  0  0  0  0  0  0  0  0  0  0
    4.8876   -4.2959    0.0000 C   0  0  0  0  0  0  0  0  0  0  0  0
    4.1440   -5.5987    0.0000 C   0  0  0  0  0  0  0  0  0  0  0  0
    6.3876   -4.2885    0.0000 C   0  0  0  0  0  0  0  0  0  0  0  0
    7.1440   -5.5838    0.0000 O   0  0  0  0  0  0  0  0  0  0  0  0
    7.1311   -2.9858    0.0000 C   0  0  0  0  0  0  0  0  0  0  0  0
    8.6311   -2.9783    0.0000 O   0  0  0  0  0  0  0  0  0  0  0  0
    6.3747   -1.6904    0.0000 C   0  0  0  0  0  0  0  0  0  0  0  0
    7.1183   -0.3877    0.0000 O   0  0  0  0  0  0  0  0  0  0  0  0
    4.8490    3.4982    0.0000 C   0  0  0  0  0  0  0  0  0  0  0  0
    6.3490    3.5056    0.0000 O   0  0  0  0  0  0  0  0  0  0  0  0
    4.0926    4.7935    0.0000 C   0  0  0  0  0  0  0  0  0  0  0  0
    4.8362    6.0963    0.0000 O   0  0  0  0  0  0  0  0  0  0  0  0
    2.5926    4.7861    0.0000 C   0  0  0  0  0  0  0  0  0  0  0  0
    1.8362    6.0814    0.0000 O   0  0  0  0  0  0  0  0  0  0  0  0
   -1.8945    2.1658    0.0000 C   0  0  0  0  0  0  0  0  0  0  0  0
   -2.6380    0.8630    0.0000 C   0  0  0  0  0  0  0  0  0  0  0  0
   -4.1380    0.8556    0.0000 O   0  0  0  0  0  0  0  0  0  0  0  0
   -7.1251   -1.7573    0.0000 C   0  0  0  0  0  0  0  0  0  0  0  0
   -8.6251   -1.7647    0.0000 C   0  0  0  0  0  0  0  0  0  0  0  0
   -9.3687   -3.0674    0.0000 O   0  0  0  0  0  0  0  0  0  0  0  0
  1  2  1  0
  2  3  1  0
  3  4  2  0
  4  5  1  0
  5  6  2  0
  7  6  1  1
  7  8  1  0
  8  9  1  0
  9 10  2  0
  9 11  1  0
 11 12  2  0
 12 13  1  0
 12 14  1  0
 14 15  2  0
 15 16  1  0
 17 16  1  1
 17 18  1  0
 18 19  1  0
 19 20  1  1
 20 21  1  0
 22 21  1  1
 22 23  1  0
 23 24  1  0
 24 25  1  6
 24 26  1  0
 26 27  1  1
 26 28  1  0
 28 29  1  6
 28 30  1  0
 30 31  1  6
 19 32  1  0
 32 33  1  6
 32 34  1  0
 34 35  1  1
 34 36  1  0
 36 37  1  6
 15 38  1  0
 38 39  2  0
 39 40  1  0
  6 41  1  0
 41 42  2  0
 42 43  1  0
 42  3  1  0
 40  7  1  0
 39 11  1  0
 36 17  1  0
 30 22  1  0
M  END
>  <identifier>  (744) 
CNP0140888.1

>  <canonical_smiles>  (744) 
COC1=CC=C([C@@H]2CC(=O)C3=C(O)C=C(O[C@@H]4O[C@H](CO[C@@H]5O[C@@H](C)[C@H](O)[C@@H](O)[C@H]5O)[C@@H](O)[C@H](O)[C@H]4O)C=C3O2)C=C1O

>  <standard_inchi>  (744) 
InChI=1S/C28H34O15/c1-10-21(32)23(34)25(36)27(40-10)39-9-19-22(33)24(35)26(37)28(43-19)41-12-6-14(30)20-15(31)8-17(42-18(20)7-12)11-3-4-16(38-2)13(29)5-11/h3-7,10,17,19,21-30,32-37H,8-9H2,1-2H3/t10-,17-,19+,21-,22+,23+,24-,25+,26+,27+,28+/m0/s1

>  <standard_inchi_key>  (744) 
QUQPHWDTPGMPEX-QJBIFVCTSA-N

>  <name>  (744) 
hesperidin

>  <iupac_name>  (744) 
(2~{S})-5-hydroxy-2-(3-hydroxy-4-methoxy-phenyl)-7-[(2~{S},3~{R},4~{S},5~{S},6~{R})-3,4,5-trihydroxy-6-[[(2~{R},3~{R},4~{R},5~{R},6~{S})-3,4,5-trihydroxy-6-methyl-tetrahydropyran-2-yl]oxymethyl]tetrahydropyran-2-yl]oxy-chroman-4-one

>  <annotation_level>  (744) 
5

>  <total_atom_count>  (744) 
77

>  <heavy_atom_count>  (744) 
43

>  <molecular_weight>  (744) 
610.57

>  <exact_molecular_weight>  (744) 
610.18977

>  <molecular_formula>  (744) 
C28H34O15

>  <alogp>  (744) 
-1.16

>  <topological_polar_surface_area>  (744) 
234.29

>  <rotatable_bond_count>  (744) 
7

>  <hydrogen_bond_acceptors>  (744) 
15

>  <hydrogen_bond_donors>  (744) 
8

>  <hydrogen_bond_acceptors_lipinski>  (744) 
15

>  <hydrogen_bond_donors_lipinski>  (744) 
8

>  <lipinski_rule_of_five_violations>  (744) 
3

>  <aromatic_rings_count>  (744) 
2

>  <qed_drug_likeliness>  (744) 
0.18

>  <formal_charge>  (744) 
0

>  <fractioncsp3>  (744) 
0.54

>  <number_of_minimal_rings>  (744) 
5

>  <van_der_walls_volume>  (744) 
509.54

>  <contains_sugar>  (744) 
True

>  <contains_ring_sugars>  (744) 
True

>  <contains_linear_sugars>  (744) 
False

>  <murcko_framework>  (744) 
O(c1ccc2c(OC(c3ccccc3)CC2)c1)C4OC(COC5OCCCC5)CCC4

>  <np_likeness>  (744) 
1.95

>  <chemical_class>  (744) 
Flavonoids

>  <chemical_sub_class>  (744) 
Flavonoid glycosides

>  <chemical_super_class>  (744) 
Phenylpropanoids and polyketides

>  <direct_parent_classification>  (744) 
Flavonoid-7-O-glycosides

>  <np_classifier_pathway>  (744) 
Shikimates and Phenylpropanoids

>  <np_classifier_superclass>  (744) 
Flavonoids

>  <np_classifier_class>  (744) 
Flavanones

>  <np_classifier_is_glycoside>  (744) 
True

>  <organisms>  (744) 
Aceriphyllum rossii|Aesculus turbinata|Agathosma betulina|Agnorhiza bolanderi|Alligator mississippiensis|Allium fistulosum|Alnus alnobetula|Amaryllis radiata|Anaxagorea clavata|Angelica sp.|Aplidium conicum|Araujia sericifera|Argyreia speciosa|Aria pallescens|Arnica nevadensis|Artemisia capillaris|Artemisia monogyna|Artocarpus styracifolius|Aspilia hispidantha|Aster indicus|Asterolasia squamuligera|Axinyssa variabilis|Baccharis magellanica|Bassia butyracea|Betula obscura|Betula pendula|Beyeria brevifolia|Boronia inconspicua|Breea segeta|Bursaria spinosa|Calycanthus chinensis|Calycotome villosa|Camchaya loloana|Capsella bursa|Catharanthus roseus|Centaurea hyssopifolia|Chloranthus tianmushanensis|Chlorociboria aeruginascens|Chondodendron toxicoferum|Chromolaena odorata|Chromolaena pulchella|Chrysanthemum morifolium|Chrysanthemum uliginosum|Chrysanthemum x morifolium|Cinnamomum tenuifolium|Cirsium setosum|Citrus|Citrus Aurantium|Citrus aurantiifolia|Citrus aurantium|Citrus cavaleriei|Citrus excelsa|Citrus grandis|Citrus hystrix|Citrus jambhiri|Citrus japonica|Citrus junos|Citrus latipes|Citrus limon|Citrus longispina|Citrus macrophylla|Citrus maxima|Citrus medica|Citrus natsudaidai|Citrus nobilis|Citrus paradisi|Citrus reticulata|Citrus shunkokan|Citrus sinensis|Citrus sp.|Citrus sudachi|Citrus sulcata|Citrus tankan|Citrus trifoliata|Citrus ujukitsu|Citrus unshiu|Citrus webberi|Citrus wilsonii|Citrus × deliciosa|Citrus × paradisi|Cladonia evansii|Cladonia pleurota|Clinopodium laxiflorum|Clonostachys rosea|Coccus fagi|Codonopsis pilosula|Codonopsis pilosula subsp. tangshen|Conyza japonica|Conyza trihecatactis|Crotalus atrox|Cyanthillium cinereum|Cyclopia falcata|Cyclopia intermedia|Cyclopia subternata|Cynara cardunculus|Cynara scolymus|Dacrydium intermedium|Daphne sp.|Daucus Carota|Dendrobates truncatus|Dendrobenthamia capitata|Dendrobium candidum|Dendroctonus pseudotsugae|Dendrosenecio kilimanjari|Desmodium styracifolium|Dickeya chrysanthemi|Diospyros candolleana|Dipterocarpus alatus|Dorstenia mannii|Drosera peltata|Drummondita calida|Echinops amplexicaulis|Epaltes gariepina|Epinetrum cordifolium|Eremocitrus glauca|Eriostemon cynobiformis|Erysimum siliculosum|Esenbeckia|Euphorbia prostrata|Euphrasia stricta|Fallopia multiflora|Ficus erecta var. beecheyana|Ficus formosana|Flindersia acuminata|Flindersia collina|Flindersia laevicarpa|Flindersia xanthoxyla|Forsythia giraldiana|Forsythia suspensa|Forsythia viridissima|Fusarium gibbosum|Galium sp.|Gardenia fosbergii|Gonospermum canariense|Humulus lupulus|Hypericum perforatum|Hypericum reflexum|Hyssopus officinalis|Hyssopus sp.|Hyuganatsu|Ilex affinis|Isodon kameba|Jaspis stellifera|Kaempferia pulchra|Kaempferia rotunda|Krameria parvifolia|Kumquat|Lactarius scrobiculatus|Lactarius spinosulus|Laurencia nidifica|Lecanora coniza|Lobelia chinensis|Markhamia stipulata|Mentha X piperita|Mentha arvensis|Mentha canadensis|Mentha longifolia|Mentha piperita|Mentha piperita piperita|Mentha sp.|Mentha spicata|Michelia cathcartii|Microcitrus inodora|Mollugo spergula|Morella cerifera|Moringa oleifera|Myrsine capitellata|Nauclea gambir|Nepeta tenuifolia|Neurolaena macrophylla|Nicotiana affinis|Odixia angusta|Olea capensis|Osteospermum fruticosum|Panzeria canescens|Perovskia atriplicifolia|Petriella guttulata|Pharbitis nil|Pheidole pallidula|Philotheca rhomboidea|Philotheca tomentella|Phomopsis leptostromiformis|Phyllidiella pustulosa|Phyllobates aurotaenia|Pilocarpus trachylophus|Pluchea dioscoridis|Polygonatum odoratum|Portulaca oleracea|Prosopis glandulosa|Prunus laurocerasus|Prunus mume|Pseudopterogorgia kallos|Pteris prolifera|Pterocarpus grandiflorus|Pyrola rotundifolia|Pyrosoma giganteum|Quercus aegilops|Ramaria flava|Rheum coreanum|Rheum officinale|Rheum palmatum|Rheum tanguticum|Rhizobium phaseoli|Rosmarinus officinalis|Rosmarinus sp.|Rubus chingii|Rutaceae|Salvia|Salvia abrotanoides|Salvia hypargeia|Salvia officinalis|Salvia yangii|Schizonepeta tenuifolia|Schizonepeta tenuisfolia|Scrophularia sp.|Scutellaria barbata|Securidaca inappendiculata|Senecio sandersonii|Senecio squalidus|Seriphidium cinum|Sesbania punicea|Sideritis soluta|Sideritis trojana|Siegesbeckia pubescens|Sigesbeckia glabrescens|Simira eliezeriana|Sophora japonica|Stenostomum lucidum|Stevia alpina|Stoeba extensa|Streptomyces althioticus|Streptomyces coeruleorubidus|Streptomyces griseolus|Streptomyces michiganensis|Streptomyces violaceochromogenes|Strophanthus eminii|Strychnos cocculoides|Swertia chinensis|Taraxacum borealisinense|Taraxacum coreanum|Taraxacum mongolicum|Taraxacum officinale|Taraxacum platycarpum|Taxodium mucronatum|Tetradium daniellii|Thymus quinquecostatus|Thymus vulgaris|Toddalia asiatica|Trifoliate orange|Valeriana officinalis|Valeriana sp.|Verbascum phlomoides|Verbascum sp.|Vernonanthura divaricata|Vernonia profuga|Veronica cupressoides|Viguiera stenoloba|Vinca minor|Viola arvensis|Vitex madiensis|Welsh onion|Zanthoxylum asiaticum|Zanthoxylum avicennae|Zanthoxylum bungeanum|Zanthoxylum capense|Zanthoxylum dipetalum|Zanthoxylum fauriei|Zanthoxylum gilletii|Zanthoxylum leprieurii|Zanthoxylum nitidum|Zanthoxylum piperitum|Zanthoxylum rhoifolium|Zanthoxylum rigidum|Zanthoxylum scandens|Zanthoxylum schinifolium|Zanthoxylum sp.|Zanthoxylum sprucei|Zanthoxylum zanthoxyloides|Ziziphus spina-christi|common myrtle|pomelo

>  <collections>  (744) 
ANPDB|Australian natural products|CMAUP (cCollective molecular activities of useful plants)|ChEBI NPs|ChEMBL NPs|ChemSpider NPs|DrugBankNP|ETM (Ethiopian Traditional Medicine) DB|FooDB|GNPS (Global Natural Products Social Molecular Networking)|InterBioScreen Ltd|Latin America dataset|NANPDB (Natural Products from Northern African Sources)|NPACT|NPASS|NuBBEDB|Phenol-explorer|Phyto4Health|PhytoLab phyproof® Reference Substances|Super Natural II|TCMDB-Taiwan (Traditional Chinese Medicine database)|TIPdb (database of Taiwan indigenous plants)|VietHerb|WikiData Natural Products|ZINC NP

>  <dois>  (744) 
10.1002/1097-0215(20001001)88:1<146::AID-IJC23>3.0.CO;2-I|10.1002/ELPS.200500714|10.1002/JCCS.198500015|10.1002/JCCS.200000028|10.1002/JSFA.955|10.1002/PCA.2524|10.1002/pca.2524|10.1007/BF00580086|10.1007/BF00597874|10.1007/BF02976999|10.1007/BF02986008|10.1007/S00216-002-1300-4|10.1007/S11094-005-0104-1|10.1016/0021-9673(94)89051-X|10.1016/0031-9422(75)83064-0|10.1016/0031-9422(75)83129-3|10.1016/0031-9422(92)80274-I|10.1016/0031-9422(93)85237-L|10.1016/0031-9422(95)00852-7|10.1016/0305-1978(92)90104-L|10.1016/0305-1978(95)00096-8|10.1016/0305-1978(95)00109-3|10.1016/J.BMC.2010.03.040|10.1016/J.FITOTE.2003.12.010|10.1016/J.FOODCHEM.2003.09.037|10.1016/J.JEP.2008.06.025|10.1016/J.PHYTOCHEM.2013.07.003|10.1016/J.PHYTOCHEM.2014.09.004|10.1016/S0021-9673(97)01131-X|10.1016/S0031-9422(00)89821-0|10.1016/S0031-9422(00)90434-5|10.1016/S0031-9422(98)00110-1|10.1016/S0031-9422(99)00338-6|10.1016/S0091-3057(03)00121-7|10.1016/S0308-8146(00)00302-2|10.1016/S0367-326X(01)00265-9|10.1016/S0367-326X(01)00279-9|10.1016/S0367-326X(03)00061-3|10.1016/S0367-326X(99)00131-8|10.1016/S0731-7085(01)00476-9|10.1016/S0968-0896(00)00225-X|10.1016/j.phytochem.2014.09.004|10.1021/ACS.JNATPROD.0C00564|10.1021/JF00037A011|10.1021/JF00039A015|10.1021/JF00078A040|10.1021/JF040078P|10.1021/JF0400967|10.1021/JF040097Z|10.1021/JF980258X|10.1021/NP060217S|10.1021/NP50023A029|10.1021/NP50103A006|10.1021/NP50121A023|10.1021/NP900588Q|10.1055/S-0028-1101600|10.1055/S-2006-941504|10.1055/S-2006-951766|10.1071/CH9570480|10.1071/CH9600426|10.1071/CH9610469|10.1071/CH9620819|10.1071/ch9620819|10.1076/1388-0209(200007)3831-SFT210|10.1076/PHBI.37.1.28.6327|10.1080/14756360600988989|10.1111/J.1365-2621.1998.TB15675.X|10.1111/J.1744-7909.2005.00060.X|10.1201/B19644-31|10.1248/BPB.25.256|10.1248/CPB.34.3097|10.1248/YAKUSHI1947.108.10_1008|10.1248/YAKUSHI1947.111.3_193|10.1248/YAKUSHI1947.87.8_1017|10.1271/BBB.68.1131|10.1271/NOGEIKAGAKU1924.59.405|10.1515/ZNB-1992-0221|10.1515/ZNB-2007-0617|10.1515/ZNC-2002-11-1205|10.1590/S0100-40422009000100025|10.1590/S0100-40422012001100004|10.1590/S0103-50531999000200015|10.5586/ASBP.1980.025

>  <synonyms>  (744) 
nan

>  <cas>  (744) 
520-26-3

$$$$

     RDKit          2D

 43 47  0  0  0  0  0  0  0  0999 V2000
    9.3137    1.4280    0.0000 C   0  0  0  0  0  0  0  0  0  0  0  0
    7.9730    0.7553    0.0000 C   0  0  0  0  0  0  0  0  0  0  0  0
    6.7201    1.5801    0.0000 O   0  0  0  0  0  0  0  0  0  0  0  0
    5.3794    0.9075    0.0000 C   0  0  0  0  0  0  0  0  0  0  0  0
    4.1265    1.7323    0.0000 O   0  0  0  0  0  0  0  0  0  0  0  0
    2.7857    1.0596    0.0000 C   0  0  0  0  0  0  0  0  0  0  0  0
    1.5329    1.8844    0.0000 C   0  0  0  0  0  0  0  0  0  0  0  0
    0.1921    1.2118    0.0000 O   0  0  0  0  0  0  0  0  0  0  0  0
   -1.0608    2.0365    0.0000 C   0  0  0  0  0  0  0  0  0  0  0  0
   -2.4015    1.3639    0.0000 O   0  0  0  0  0  0  0  0  0  0  0  0
   -2.4893   -0.1335    0.0000 C   0  0  0  0  0  0  0  0  0  0  0  0
   -3.8301   -0.8062    0.0000 C   0  0  0  0  0  0  0  0  0  0  0  0
   -5.0829    0.0186    0.0000 C   0  0  0  0  0  0  0  0  0  0  0  0
   -4.9951    1.5160    0.0000 C   0  0  0  0  0  0  0  0  0  0  0  0
   -6.2480    2.3408    0.0000 C   0  0  0  0  0  0  0  0  0  0  0  0
   -7.5887    1.6682    0.0000 C   0  0  0  0  0  0  0  0  0  0  0  0
   -8.8416    2.4930    0.0000 O   0  0  0  0  0  0  0  0  0  0  0  0
   -7.6766    0.1707    0.0000 C   0  0  0  0  0  0  0  0  0  0  0  0
   -9.0173   -0.5019    0.0000 O   0  0  0  0  0  0  0  0  0  0  0  0
   -6.4237   -0.6540    0.0000 C   0  0  0  0  0  0  0  0  0  0  0  0
   -3.9179   -2.3036    0.0000 O   0  0  0  0  0  0  0  0  0  0  0  0
   -2.6650   -3.1284    0.0000 C   0  0  0  0  0  0  0  0  0  0  0  0
   -2.7528   -4.6258    0.0000 C   0  0  0  0  0  0  0  0  0  0  0  0
   -1.4999   -5.4506    0.0000 C   0  0  0  0  0  0  0  0  0  0  0  0
   -1.5878   -6.9480    0.0000 O   0  0  0  0  0  0  0  0  0  0  0  0
   -0.1592   -4.7779    0.0000 C   0  0  0  0  0  0  0  0  0  0  0  0
   -0.0714   -3.2805    0.0000 C   0  0  0  0  0  0  0  0  0  0  0  0
    1.2693   -2.6079    0.0000 O   0  0  0  0  0  0  0  0  0  0  0  0
   -1.3243   -2.4557    0.0000 C   0  0  0  0  0  0  0  0  0  0  0  0
   -1.2364   -0.9583    0.0000 C   0  0  0  0  0  0  0  0  0  0  0  0
    0.1043   -0.2857    0.0000 O   0  0  0  0  0  0  0  0  0  0  0  0
   -0.9729    3.5340    0.0000 C   0  0  0  0  0  0  0  0  0  0  0  0
   -2.2258    4.3587    0.0000 O   0  0  0  0  0  0  0  0  0  0  0  0
    0.3678    4.2066    0.0000 C   0  0  0  0  0  0  0  0  0  0  0  0
    0.4556    5.7040    0.0000 O   0  0  0  0  0  0  0  0  0  0  0  0
    1.6207    3.3818    0.0000 C   0  0  0  0  0  0  0  0  0  0  0  0
    2.9614    4.0545    0.0000 O   0  0  0  0  0  0  0  0  0  0  0  0
    5.2915   -0.5899    0.0000 C   0  0  0  0  0  0  0  0  0  0  0  0
    3.9508   -1.2626    0.0000 O   0  0  0  0  0  0  0  0  0  0  0  0
    6.5444   -1.4147    0.0000 C   0  0  0  0  0  0  0  0  0  0  0  0
    6.4566   -2.9122    0.0000 O   0  0  0  0  0  0  0  0  0  0  0  0
    7.8851   -0.7421    0.0000 C   0  0  0  0  0  0  0  0  0  0  0  0
    9.1380   -1.5669    0.0000 O   0  0  0  0  0  0  0  0  0  0  0  0
  2  1  1  1
  2  3  1  0
  3  4  1  0
  4  5  1  6
  5  6  1  0
  7  6  1  1
  7  8  1  0
  8  9  1  0
  9 10  1  1
 10 11  1  0
 11 12  2  0
 12 13  1  0
 13 14  2  0
 14 15  1  0
 15 16  2  0
 16 17  1  0
 16 18  1  0
 18 19  1  0
 18 20  2  0
 12 21  1  0
 21 22  1  0
 22 23  2  0
 23 24  1  0
 24 25  1  0
 24 26  2  0
 26 27  1  0
 27 28  1  0
 27 29  2  0
 29 30  1  0
 30 31  2  0
  9 32  1  0
 32 33  1  6
 32 34  1  0
 34 35  1  1
 34 36  1  0
 36 37  1  1
  4 38  1  0
 38 39  1  1
 38 40  1  0
 40 41  1  1
 40 42  1  0
 42 43  1  6
 42  2  1  0
 36  7  1  0
 30 11  1  0
 20 13  1  0
 29 22  1  0
M  END
>  <identifier>  (745) 
CNP0268715.3

>  <canonical_smiles>  (745) 
C[C@@H]1O[C@@H](OC[C@H]2O[C@@H](OC3=C(C4=CC=C(O)C(O)=C4)OC4=CC(O)=CC(O)=C4C3=O)[C@H](O)[C@@H](O)[C@H]2O)[C@H](O)[C@H](O)[C@H]1O

>  <standard_inchi>  (745) 
InChI=1S/C27H30O16/c1-8-17(32)20(35)22(37)26(40-8)39-7-15-18(33)21(36)23(38)27(42-15)43-25-19(34)16-13(31)5-10(28)6-14(16)41-24(25)9-2-3-11(29)12(30)4-9/h2-6,8,15,17-18,20-23,26-33,35-38H,7H2,1H3/t8-,15+,17-,18-,20+,21-,22+,23+,26+,27-/m0/s1

>  <standard_inchi_key>  (745) 
IKGXIBQEEMLURG-IEBISRBZSA-N

>  <name>  (745) 
Quercetin 3-O-robinobioside

>  <iupac_name>  (745) 
2-(3,4-dihydroxyphenyl)-5,7-dihydroxy-3-[(2~{S},3~{R},4~{S},5~{R},6~{R})-3,4,5-trihydroxy-6-[[(2~{R},3~{R},4~{R},5~{R},6~{S})-3,4,5-trihydroxy-6-methyl-tetrahydropyran-2-yl]oxymethyl]tetrahydropyran-2-yl]oxy-chromen-4-one

>  <annotation_level>  (745) 
5

>  <total_atom_count>  (745) 
73

>  <heavy_atom_count>  (745) 
43

>  <molecular_weight>  (745) 
610.52

>  <exact_molecular_weight>  (745) 
610.15338

>  <molecular_formula>  (745) 
C27H30O16

>  <alogp>  (745) 
-1.69

>  <topological_polar_surface_area>  (745) 
269.43

>  <rotatable_bond_count>  (745) 
6

>  <hydrogen_bond_acceptors>  (745) 
16

>  <hydrogen_bond_donors>  (745) 
10

>  <hydrogen_bond_acceptors_lipinski>  (745) 
16

>  <hydrogen_bond_donors_lipinski>  (745) 
10

>  <lipinski_rule_of_five_violations>  (745) 
3

>  <aromatic_rings_count>  (745) 
3

>  <qed_drug_likeliness>  (745) 
0.14

>  <formal_charge>  (745) 
0

>  <fractioncsp3>  (745) 
0.44

>  <number_of_minimal_rings>  (745) 
5

>  <van_der_walls_volume>  (745) 
493.89

>  <contains_sugar>  (745) 
True

>  <contains_ring_sugars>  (745) 
True

>  <contains_linear_sugars>  (745) 
False

>  <murcko_framework>  (745) 
O1c2ccccc2CC(OC3OC(COC4OCCCC4)CCC3)=C1c5ccccc5

>  <np_likeness>  (745) 
2.01

>  <chemical_class>  (745) 
Flavonoids

>  <chemical_sub_class>  (745) 
Flavonoid glycosides

>  <chemical_super_class>  (745) 
Phenylpropanoids and polyketides

>  <direct_parent_classification>  (745) 
Flavonoid-3-O-glycosides

>  <np_classifier_pathway>  (745) 
Shikimates and Phenylpropanoids

>  <np_classifier_superclass>  (745) 
Flavonoids

>  <np_classifier_class>  (745) 
Flavonols

>  <np_classifier_is_glycoside>  (745) 
True

>  <organisms>  (745) 
Abelmoschus manihot|Amsinckia tessellata|Anolis lineatopus|Anthyllis henoniana|Anthyllis lagascana|Anthyllis subsimplex|Aronia melanocarpa|Artemisia capillaris|Asarum canadense|Aspalathus linearis|Aspergillus mutabilis|Astragalus captiosus|Astragalus monspessulanus|Atropanthe sinensis|Aucuba chinensis|Aurelia aurita|Bistorta vivipara|Botryosphaeria berengeriana|Brickellia vernicosa|Calicotome villosa|Cananga odorata|Carica dodecaphylla|Cassytha Filiformis|Cassytha filiformis|Cedronella canariensis|Centaurea huber-morathii|Chenopodium pallidicaule|Chimarrhis turbinata|Cinnamomum philippinense|Citrus tangerina|Coniochaeta saccardoi|Crataegus pinnatifida|Crataegus sanguinea|Crocus minimus|Cunonia macrophylla|Curculigo pilosa|Cynometra lujae|Ebenus sibthorpii|Entada rheedei|Erylus trisphaerus|Eupatorium areolare|Euphorbia humifusa|Felimida luteorosea|Fraxinus americana|Genista pichisermolliana|Gleditsia caspica|Glycyrrhiza echinata|Glycyrrhiza glabra|Glycyrrhiza inflata|Glycyrrhiza macedonica|Glycyrrhiza uralensis|Gouania leptostachya|Gracilaria textorii|Gymnema sylvestre|Haplophyllum ramosissimum|Helichrysum mixtum|Humata pectinata|Ipomoea fistulosa|Ipomoea muricata|Kali turgidum|Lysiana subfalcata|Lysimachia Fortunei|Macaranga peltata|Nostoc spongiaeforme|Oenanthe javanica|Osteospermum muricatum|Parablechnum minus|Peperomia vulcanica|Phaeolus schweinitzii|Physalis Angulata|Physalis Peruviana|Physalis angulata|Physalis edulis|Physalis peruviana|Platycarya strobilacea|Premna tomentosa|Pyrostegia venusta|Rhamnus disperma|Sagittaria sagittifolia|Salvia blepharophylla|Saussurea amara|Sia ferox|Sideritis euboea|Sinoadina racemosa|Sisyrinchium californicum|Sorbus tianschanica|Spinulum annotinum|Stephania elegans|Strychnos variabilis|Suillus tridentinus|Swertia swertopsis|Taxus brevifolia|Trichoderma koningi|Tsuga chinensis|Usnea undulata|Utricularia australis|Virgilia divaricata|tarragon

>  <collections>  (745) 
Australian natural products|CMAUP (cCollective molecular activities of useful plants)|ChemSpider NPs|GNPS (Global Natural Products Social Molecular Networking)|Latin America dataset|NPASS|NuBBEDB|Phyto4Health|Specs Natural Products|Super Natural II|VietHerb|WikiData Natural Products|ZINC NP

>  <dois>  (745) 
10.1002/JCCS.201190020|10.1007/BF00563466|10.1007/BF00574809|10.1007/BF00598372|10.1007/s11418-014-0843-y|10.1016/0031-9422(88)80698-8|10.1016/0305-1978(92)90063-J|10.1016/J.CARRES.2003.12.017|10.1016/J.FITOTE.2010.04.012|10.1016/J.PHYTOL.2011.07.005|10.1016/S0031-9422(00)00216-8|10.1016/S0031-9422(00)00319-8|10.1016/S0031-9422(00)82498-X|10.1016/S0031-9422(00)85534-X|10.1016/S0031-9422(99)00262-9|10.1016/S0031-9422(99)00324-6|10.1016/S0305-1978(00)00053-3|10.1016/S0968-0896(00)00225-X|10.1016/j.bse.2008.06.007|10.1016/j.cbi.2014.10.023|10.1016/s0367-326x(99)00147-1|10.1021/JF00056A012|10.1021/NP030440E|10.1021/NP070564H|10.1021/acs.jnatprod.5b00502|10.1021/acs.jnatprod.8b01054|10.1093/CHROMSCI/47.3.206|10.1093/chromsci/47.3.206|10.1111/1750-3841.14660|10.1248/CPB.54.1226|10.1590/S0103-50532005000800008|10.3987/COM-97-7906

>  <synonyms>  (745) 
2-(3,4-DIHYDROXYPHENYL)-5,7-DIHYDROXY-3-{[(2S,3R,4S,5R,6R)-3,4,5-TRIHYDROXY-6-({[(2R,3R,4R,5R,6S)-3,4,5-TRIHYDROXY-6-METHYLOXAN-2-YL]OXY}METHYL)OXAN-2-YL]OXY}CHROMEN-4-ONE|2-(3,4-dihydroxyphenyl)-5,7-dihydroxy-3-[(2S,3R,4S,5R,6R)-3,4,5-trihydroxy-6-[[(2R,3R,4R,5R,6S)-3,4,5-trihydroxy-6-methyloxan-2-yl]oxymethyl]oxan-2-yl]oxychromen-4-one|52525-35-6|AKOS032948808|CHEMBL3735346|CS-0017131|FS-9970|HY-N1583|Quercetin-3-O-\u221a\u00e9\u00ac\u00b1-L-rhamnopyranosyl-(1\u221a\u00a2\u201a\u00c4\u2020\u201a\u00c4\u00f46)-\u221a\u00e9\u00ac\u2264-D-galactopyranoside|Quercetin3-O-robinobioside

>  <cas>  (745) 
52525-35-6

$$$$

     RDKit          2D

 56 61  0  0  0  0  0  0  0  0999 V2000
    1.7757   -7.6421    0.0000 C   0  0  0  0  0  0  0  0  0  0  0  0
    2.8876   -6.6354    0.0000 O   0  0  0  0  0  0  0  0  0  0  0  0
    2.5717   -5.1690    0.0000 C   0  0  0  0  0  0  0  0  0  0  0  0
    1.1438   -4.7094    0.0000 C   0  0  0  0  0  0  0  0  0  0  0  0
    0.8279   -3.2431    0.0000 C   0  0  0  0  0  0  0  0  0  0  0  0
   -0.6000   -2.7835    0.0000 O   0  0  0  0  0  0  0  0  0  0  0  0
   -1.7119   -3.7903    0.0000 C   0  0  0  0  0  0  0  0  0  0  0  0
   -3.1398   -3.3307    0.0000 O   0  0  0  0  0  0  0  0  0  0  0  0
   -4.2517   -4.3375    0.0000 C   0  0  0  0  0  0  0  0  0  0  0  0
   -5.6796   -3.8779    0.0000 C   0  0  0  0  0  0  0  0  0  0  0  0
   -5.9955   -2.4116    0.0000 O   0  0  0  0  0  0  0  0  0  0  0  0
   -3.9358   -5.8039    0.0000 C   0  0  0  0  0  0  0  0  0  0  0  0
   -5.0477   -6.8107    0.0000 O   0  0  0  0  0  0  0  0  0  0  0  0
   -2.5079   -6.2634    0.0000 C   0  0  0  0  0  0  0  0  0  0  0  0
   -2.1920   -7.7298    0.0000 O   0  0  0  0  0  0  0  0  0  0  0  0
   -1.3960   -5.2567    0.0000 C   0  0  0  0  0  0  0  0  0  0  0  0
    0.0319   -5.7162    0.0000 O   0  0  0  0  0  0  0  0  0  0  0  0
    1.9398   -2.2363    0.0000 C   0  0  0  0  0  0  0  0  0  0  0  0
    1.6239   -0.7700    0.0000 C   0  0  0  0  0  0  0  0  0  0  0  0
    0.1960   -0.3104    0.0000 O   0  0  0  0  0  0  0  0  0  0  0  0
    2.7358    0.2368    0.0000 C   0  0  0  0  0  0  0  0  0  0  0  0
    2.4199    1.7032    0.0000 O   0  0  0  0  0  0  0  0  0  0  0  0
    0.9920    2.1627    0.0000 C   0  0  0  0  0  0  0  0  0  0  0  0
   -0.1199    1.1560    0.0000 O   0  0  0  0  0  0  0  0  0  0  0  0
   -1.5478    1.6155    0.0000 C   0  0  0  0  0  0  0  0  0  0  0  0
   -2.6597    0.6087    0.0000 C   0  0  0  0  0  0  0  0  0  0  0  0
   -4.0876    1.0683    0.0000 O   0  0  0  0  0  0  0  0  0  0  0  0
   -4.4035    2.5347    0.0000 C   0  0  0  0  0  0  0  0  0  0  0  0
   -3.2916    3.5415    0.0000 O   0  0  0  0  0  0  0  0  0  0  0  0
   -3.6075    5.0078    0.0000 C   0  0  0  0  0  0  0  0  0  0  0  0
   -2.4956    6.0146    0.0000 C   0  0  0  0  0  0  0  0  0  0  0  0
   -5.0354    5.4674    0.0000 C   0  0  0  0  0  0  0  0  0  0  0  0
   -5.3513    6.9337    0.0000 O   0  0  0  0  0  0  0  0  0  0  0  0
   -6.1473    4.4606    0.0000 C   0  0  0  0  0  0  0  0  0  0  0  0
   -7.5752    4.9202    0.0000 O   0  0  0  0  0  0  0  0  0  0  0  0
   -5.8314    2.9942    0.0000 C   0  0  0  0  0  0  0  0  0  0  0  0
   -6.9433    1.9875    0.0000 O   0  0  0  0  0  0  0  0  0  0  0  0
   -1.8637    3.0819    0.0000 C   0  0  0  0  0  0  0  0  0  0  0  0
   -2.5409    3.5025    0.0000 O   0  0  0  0  0  0  0  0  0  0  0  0
   -0.7518    4.0887    0.0000 C   0  0  0  0  0  0  0  0  0  0  0  0
   -1.0677    5.5550    0.0000 O   0  0  0  0  0  0  0  0  0  0  0  0
    0.6761    3.6291    0.0000 C   0  0  0  0  0  0  0  0  0  0  0  0
    1.7880    4.6359    0.0000 O   0  0  0  0  0  0  0  0  0  0  0  0
    4.1637   -0.2228    0.0000 C   0  0  0  0  0  0  0  0  0  0  0  0
    5.2756    0.7840    0.0000 C   0  0  0  0  0  0  0  0  0  0  0  0
    4.9597    2.2504    0.0000 C   0  0  0  0  0  0  0  0  0  0  0  0
    6.0716    3.2572    0.0000 C   0  0  0  0  0  0  0  0  0  0  0  0
    7.4995    2.7976    0.0000 C   0  0  0  0  0  0  0  0  0  0  0  0
    8.6114    3.8044    0.0000 O   0  0  0  0  0  0  0  0  0  0  0  0
    8.2954    5.2707    0.0000 C   0  0  0  0  0  0  0  0  0  0  0  0
    7.8154    1.3312    0.0000 C   0  0  0  0  0  0  0  0  0  0  0  0
    9.2432    0.8717    0.0000 O   0  0  0  0  0  0  0  0  0  0  0  0
    6.7035    0.3245    0.0000 C   0  0  0  0  0  0  0  0  0  0  0  0
    4.4796   -1.6891    0.0000 O   0  0  0  0  0  0  0  0  0  0  0  0
    3.3677   -2.6959    0.0000 C   0  0  0  0  0  0  0  0  0  0  0  0
    3.6836   -4.1622    0.0000 C   0  0  0  0  0  0  0  0  0  0  0  0
  1  2  1  0
  2  3  1  0
  3  4  2  0
  4  5  1  0
  5  6  1  0
  7  6  1  1
  7  8  1  0
  8  9  1  0
  9 10  1  1
 10 11  1  0
  9 12  1  0
 12 13  1  6
 12 14  1  0
 14 15  1  1
 14 16  1  0
 16 17  1  6
  5 18  2  0
 18 19  1  0
 19 20  2  0
 19 21  1  0
 21 22  1  0
 23 22  1  6
 23 24  1  0
 24 25  1  0
 25 26  1  6
 26 27  1  0
 28 27  1  1
 28 29  1  0
 29 30  1  0
 30 31  1  6
 30 32  1  0
 32 33  1  1
 32 34  1  0
 34 35  1  6
 34 36  1  0
 36 37  1  6
 25 38  1  0
 38 39  1  1
 38 40  1  0
 40 41  1  6
 40 42  1  0
 42 43  1  1
 21 44  2  0
 44 45  1  0
 45 46  2  0
 46 47  1  0
 47 48  2  0
 48 49  1  0
 49 50  1  0
 48 51  1  0
 51 52  1  0
 51 53  2  0
 44 54  1  0
 54 55  1  0
 55 56  2  0
 56  3  1  0
 16  7  1  0
 55 18  1  0
 42 23  1  0
 53 45  1  0
 36 28  1  0
M  END
>  <identifier>  (746) 
CNP0160793.1

>  <canonical_smiles>  (746) 
COC1=CC(O[C@@H]2O[C@H](CO)[C@@H](O)[C@H](O)[C@H]2O)=C2C(=O)C(O[C@@H]3O[C@H](CO[C@@H]4O[C@@H](C)[C@H](O)[C@@H](O)[C@H]4O)[C@@H](O)[C@H](O)[C@H]3O)=C(C3=CC=C(OC)C(O)=C3)OC2=C1

>  <standard_inchi>  (746) 
InChI=1S/C35H44O21/c1-11-21(38)25(42)28(45)33(51-11)50-10-19-23(40)27(44)30(47)35(55-19)56-32-24(41)20-16(52-31(32)12-4-5-15(49-3)14(37)6-12)7-13(48-2)8-17(20)53-34-29(46)26(43)22(39)18(9-36)54-34/h4-8,11,18-19,21-23,25-30,33-40,42-47H,9-10H2,1-3H3/t11-,18+,19+,21-,22+,23+,25+,26-,27-,28+,29+,30+,33+,34+,35-/m0/s1

>  <standard_inchi_key>  (746) 
UOOULRKANCNCRM-QJJZTEDHSA-N

>  <name>  (746) 
nan

>  <iupac_name>  (746) 
2-(3-hydroxy-4-methoxy-phenyl)-7-methoxy-5-[(2~{S},3~{R},4~{S},5~{S},6~{R})-3,4,5-trihydroxy-6-(hydroxymethyl)tetrahydropyran-2-yl]oxy-3-[(2~{S},3~{R},4~{S},5~{S},6~{R})-3,4,5-trihydroxy-6-[[(2~{R},3~{R},4~{R},5~{R},6~{S})-3,4,5-trihydroxy-6-methyl-tetrahydropyran-2-yl]oxymethyl]tetrahydropyran-2-yl]oxy-chromen-4-one

>  <annotation_level>  (746) 
3

>  <total_atom_count>  (746) 
100

>  <heavy_atom_count>  (746) 
56

>  <molecular_weight>  (746) 
800.72

>  <exact_molecular_weight>  (746) 
800.23751

>  <molecular_formula>  (746) 
C35H44O21

>  <alogp>  (746) 
-3.61

>  <topological_polar_surface_area>  (746) 
326.58

>  <rotatable_bond_count>  (746) 
11

>  <hydrogen_bond_acceptors>  (746) 
21

>  <hydrogen_bond_donors>  (746) 
11

>  <hydrogen_bond_acceptors_lipinski>  (746) 
21

>  <hydrogen_bond_donors_lipinski>  (746) 
11

>  <lipinski_rule_of_five_violations>  (746) 
3

>  <aromatic_rings_count>  (746) 
3

>  <qed_drug_likeliness>  (746) 
0.09

>  <formal_charge>  (746) 
0

>  <fractioncsp3>  (746) 
0.57

>  <number_of_minimal_rings>  (746) 
6

>  <van_der_walls_volume>  (746) 
659.01

>  <contains_sugar>  (746) 
True

>  <contains_ring_sugars>  (746) 
True

>  <contains_linear_sugars>  (746) 
False

>  <murcko_framework>  (746) 
O1c2cccc(OC3OCCCC3)c2CC(OC4OC(COC5OCCCC5)CCC4)=C1c6ccccc6

>  <np_likeness>  (746) 
1.59

>  <chemical_class>  (746) 
Flavonoids

>  <chemical_sub_class>  (746) 
Flavonoid glycosides

>  <chemical_super_class>  (746) 
Phenylpropanoids and polyketides

>  <direct_parent_classification>  (746) 
Flavonoid-3-O-glycosides

>  <np_classifier_pathway>  (746) 
Shikimates and Phenylpropanoids

>  <np_classifier_superclass>  (746) 
Flavonoids

>  <np_classifier_class>  (746) 
Flavonols

>  <np_classifier_is_glycoside>  (746) 
True

>  <organisms>  (746) 
Erythroxylum lucidum|Erythroxylum macrophyllum|Erythroxylum moonii|Porcelia macrocarpa

>  <collections>  (746) 
ChemSpider NPs|Latin America dataset|NuBBEDB|Super Natural II|WikiData Natural Products|ZINC NP

>  <dois>  (746) 
10.1590/S0100-40422000000300004|10.3797/SCIPHARM.1410-10

>  <synonyms>  (746) 
nan

>  <cas>  (746) 
nan

$$$$

     RDKit          2D

 28 30  0  0  0  0  0  0  0  0999 V2000
    5.6297   -3.8246    0.0000 C   0  0  0  0  0  0  0  0  0  0  0  0
    4.3036   -3.1234    0.0000 O   0  0  0  0  0  0  0  0  0  0  0  0
    4.2478   -1.6245    0.0000 C   0  0  0  0  0  0  0  0  0  0  0  0
    5.5181   -0.8267    0.0000 O   0  0  0  0  0  0  0  0  0  0  0  0
    2.9218   -0.9233    0.0000 C   0  0  0  0  0  0  0  0  0  0  0  0
    1.6516   -1.7211    0.0000 C   0  0  0  0  0  0  0  0  0  0  0  0
    0.3255   -1.0200    0.0000 O   0  0  0  0  0  0  0  0  0  0  0  0
    0.2697    0.4790    0.0000 C   0  0  0  0  0  0  0  0  0  0  0  0
   -1.0563    1.1802    0.0000 O   0  0  0  0  0  0  0  0  0  0  0  0
   -2.3265    0.3824    0.0000 C   0  0  0  0  0  0  0  0  0  0  0  0
   -3.6526    1.0835    0.0000 O   0  0  0  0  0  0  0  0  0  0  0  0
   -4.9228    0.2857    0.0000 C   0  0  0  0  0  0  0  0  0  0  0  0
   -6.2489    0.9869    0.0000 C   0  0  0  0  0  0  0  0  0  0  0  0
   -6.3047    2.4859    0.0000 O   0  0  0  0  0  0  0  0  0  0  0  0
   -4.8670   -1.2132    0.0000 C   0  0  0  0  0  0  0  0  0  0  0  0
   -6.1373   -2.0110    0.0000 O   0  0  0  0  0  0  0  0  0  0  0  0
   -3.5410   -1.9144    0.0000 C   0  0  0  0  0  0  0  0  0  0  0  0
   -3.4852   -3.4134    0.0000 O   0  0  0  0  0  0  0  0  0  0  0  0
   -2.2707   -1.1166    0.0000 C   0  0  0  0  0  0  0  0  0  0  0  0
   -0.9447   -1.8178    0.0000 O   0  0  0  0  0  0  0  0  0  0  0  0
    1.5400    1.2768    0.0000 C   0  0  0  0  0  0  0  0  0  0  0  0
    2.8660    0.5756    0.0000 C   0  0  0  0  0  0  0  0  0  0  0  0
    3.9426    1.6201    0.0000 C   0  0  0  0  0  0  0  0  0  0  0  0
    5.4204    1.3630    0.0000 O   0  0  0  0  0  0  0  0  0  0  0  0
    3.2820    2.9668    0.0000 C   0  0  0  0  0  0  0  0  0  0  0  0
    1.7971    2.7546    0.0000 C   0  0  0  0  0  0  0  0  0  0  0  0
    1.7413    4.2536    0.0000 C   0  0  0  0  0  0  0  0  0  0  0  0
    0.3005    2.8558    0.0000 O   0  0  0  0  0  0  0  0  0  0  0  0
  1  2  1  0
  2  3  1  0
  3  4  2  0
  3  5  1  0
  5  6  2  0
  6  7  1  0
  7  8  1  0
  8  9  1  1
 10  9  1  1
 10 11  1  0
 11 12  1  0
 12 13  1  1
 13 14  1  0
 12 15  1  0
 15 16  1  6
 15 17  1  0
 17 18  1  1
 17 19  1  0
 19 20  1  6
 21  8  1  6
 21 22  1  0
 22 23  1  0
 23 24  1  1
 23 25  1  0
 25 26  1  0
 26 27  1  6
 26 28  1  0
 22  5  1  6
 19 10  1  0
 26 21  1  0
M  END
>  <identifier>  (747) 
CNP0240262.1

>  <canonical_smiles>  (747) 
COC(=O)C1=CO[C@@H](O[C@@H]2O[C@H](CO)[C@@H](O)[C@H](O)[C@H]2O)[C@H]2[C@@H]1[C@H](O)C[C@]2(C)O

>  <standard_inchi>  (747) 
InChI=1S/C17H26O11/c1-17(24)3-7(19)9-6(14(23)25-2)5-26-15(10(9)17)28-16-13(22)12(21)11(20)8(4-18)27-16/h5,7-13,15-16,18-22,24H,3-4H2,1-2H3/t7-,8-,9+,10-,11-,12+,13-,15+,16+,17+/m1/s1

>  <standard_inchi_key>  (747) 
KKSYAZCUYVRKML-IRDZEPHTSA-N

>  <name>  (747) 
Shanzhiside methyl ester

>  <iupac_name>  (747) 
methyl (1~{S},4~{a}~{S},5~{R},7~{S},7~{a}~{S})-5,7-dihydroxy-7-methyl-1-[(2~{S},3~{R},4~{S},5~{S},6~{R})-3,4,5-trihydroxy-6-(hydroxymethyl)tetrahydropyran-2-yl]oxy-4~{a},5,6,7~{a}-tetrahydro-1~{H}-cyclopenta[c]pyran-4-carboxylate

>  <annotation_level>  (747) 
5

>  <total_atom_count>  (747) 
54

>  <heavy_atom_count>  (747) 
28

>  <molecular_weight>  (747) 
406.38

>  <exact_molecular_weight>  (747) 
406.14751

>  <molecular_formula>  (747) 
C17H26O11

>  <alogp>  (747) 
-3.04

>  <topological_polar_surface_area>  (747) 
175.37

>  <rotatable_bond_count>  (747) 
4

>  <hydrogen_bond_acceptors>  (747) 
11

>  <hydrogen_bond_donors>  (747) 
6

>  <hydrogen_bond_acceptors_lipinski>  (747) 
11

>  <hydrogen_bond_donors_lipinski>  (747) 
6

>  <lipinski_rule_of_five_violations>  (747) 
2

>  <aromatic_rings_count>  (747) 
0

>  <qed_drug_likeliness>  (747) 
0.26

>  <formal_charge>  (747) 
0

>  <fractioncsp3>  (747) 
0.82

>  <number_of_minimal_rings>  (747) 
3

>  <van_der_walls_volume>  (747) 
344.93

>  <contains_sugar>  (747) 
True

>  <contains_ring_sugars>  (747) 
True

>  <contains_linear_sugars>  (747) 
False

>  <murcko_framework>  (747) 
O1C=CC2CCCC2C1OC3OCCCC3

>  <np_likeness>  (747) 
2.68

>  <chemical_class>  (747) 
Prenol lipids

>  <chemical_sub_class>  (747) 
Terpene glycosides

>  <chemical_super_class>  (747) 
Lipids and lipid-like molecules

>  <direct_parent_classification>  (747) 
Iridoid O-glycosides

>  <np_classifier_pathway>  (747) 
Terpenoids

>  <np_classifier_superclass>  (747) 
Monoterpenoids

>  <np_classifier_class>  (747) 
Iridoids monoterpenoids

>  <np_classifier_is_glycoside>  (747) 
True

>  <organisms>  (747) 
Adenaria floribunda|Alibertia edulis|Alnus mandshurica|Arctanthemum arcticum|Argopsis megalospora|Astraeus hygrometricus|Astragalus centralpinus|Barleria Lupulina|Barleria lupulina|Barleria prionitis|Boussingaultia baselloides|Caragana sinica|Castilleja hispida|Castilleja integra|Castilleja miniata|Castilleja minor|Castilleja occidentalis|Castilleja purpurea|Castilleja rhexifolia|Castilleja septentrionalis|Castilleja sulphurea|Centaurea thessala|Combretum molle|Cordiera macrophylla|Diplopappus fruticosus|Eugenia grandis|Gardenia jasminoides|Genista tinctoria|Lamiophlomis rotata|Lamium album|Lamium amplexicaule|Lamium garganicum|Lamium purpureum|Machaerocereus eruca|Marsupella emarginata|Mimosa hostilis|Mussaenda pubescens|Nardosmia laevigata|Nelsonia canescens|Neonauclea calycina|Odontites vernus|Ophiorrhiza japonica|Parentucellia viscosa|Parmelinopsis bonariensis|Pedicularis artselaeri|Pedicularis condensata|Pedicularis decora|Pedicularis grayi|Pedicularis muscicola|Pedicularis palustris|Pedicularis procera|Pedicularis semitorta|Pedicularis spicata|Pedicularis torta|Phlomis rigida|Phlomis spinidens|Phlomis umbrosa|Phlomoides betonicoides|Phlomoides rotata|Phlomoides tuberosa|Phlomoides umbrosa|Phlomoides younghushandii|Physcia caesia|Pinus pumilio|Plagiochila yokogurensis|Psydrax subcordatus|Rhinanthus angustifolius|Rhinanthus major|Rhinanthus minor|Salvia digitaloides|Saprosma scortechinii|Scyphiphora hydrophylacea|Scyphiphora hydrophyllacea|Sesamum alatum|Solanum wendlandii|Stemonoporus affinis|Tanacetum cinerariifolium|Tetragonia tetragonioides|Tovomita brevistaminea|Trichothecium crotocinigenum|Verbascum pseudonobile|Verticillium intertextum|blue water-speedwell

>  <collections>  (747) 
AnalytiCon Discovery NPs|CMAUP (cCollective molecular activities of useful plants)|ChemSpider NPs|GNPS (Global Natural Products Social Molecular Networking)|Latin America dataset|NPASS|NuBBEDB|Super Natural II|TCMDB-Taiwan (Traditional Chinese Medicine database)|VietHerb|WikiData Natural Products|ZINC NP

>  <dois>  (747) 
10.1002/CHIN.200610184|10.1002/HLCA.19920750318|10.1002/HLCA.200790187|10.1002/HLCA.200890147|10.1002/HLCA.200900158|10.1002/RCM.4643|10.1002/hlca.200890147|10.1016/0031-9422(81)80054-4|10.1016/0031-9422(88)87029-8|10.1016/0031-9422(91)80101-6|10.1016/0031-9422(91)83486-5|10.1016/0031-9422(91)83660-D|10.1016/0031-9422(93)85460-9|10.1016/0305-1978(86)90009-8|10.1016/0305-1978(92)90089-V|10.1016/J.PHYTOCHEM.2003.08.001|10.1016/S0031-9422(00)80754-2|10.1016/S0031-9422(00)82566-2|10.1016/S0031-9422(00)90473-4|10.1016/S0031-9422(00)95082-9|10.1016/S0031-9422(00)95234-8|10.1016/S0031-9422(00)98538-8|10.1016/S0031-9422(01)00236-9|10.1016/S0031-9422(96)00770-4|10.1016/S0031-9422(99)00431-8|10.1016/S0305-1978(96)00061-0|10.1016/S0378-8741(02)00358-6|10.1016/j.bmcl.2012.04.087|10.1021/NP060499W|10.1021/NP50016A008|10.1021/NP50042A013|10.1021/NP50043A037|10.1021/NP50051A024|10.1021/NP50074A050|10.1021/NP500791A|10.1021/NP900549E|10.1021/np500791a|10.1021/np900549e|10.1055/S-2000-8564|10.1055/S-2003-43223|10.1055/S-2006-957565|10.1071/CH9870785|10.1248/CPB.31.780|10.1248/CPB.33.4275|10.1248/CPB.34.876|10.1248/CPB.49.1039|10.1248/CPB.54.1705|10.1515/ZNC-2001-9-1004|10.3390/MOLECULES15042473|10.5246/JCPS.2011.02.019

>  <synonyms>  (747) 
64421-28-9|AC-34703|ACon0_000910|ACon1_000460|AKOS030573532|BRD-K61757038-001-01-0|CCG-268713|CHEBI:193584|CHEMBL1081414|CS-0009621|F17713|HY-N0630|MEGxp0_000430|METHYL (1S,4AS,5R,7S,7AS)-5,7-DIHYDROXY-7-METHYL-1-{[(2S,3R,4S,5S,6R)-3,4,5-TRIHYDROXY-6-(HYDROXYMETHYL)OXAN-2-YL]OXY}-1H,4AH,5H,6H,7AH-CYCLOPENTA[C]PYRAN-4-CARBOXYLATE|MFCD00017416|MS-26955|Methyl (1S,4aS,5R,7S,7aS)-5,7-dihydroxy-7-methyl-1-(((2S,3R,4S,5S,6R)-3,4,5-trihydroxy-6-(hydroxymethyl)tetrahydro-2H-pyran-2-yl)oxy)-1,4a,5,6,7,7a-hexahydrocyclopenta[c]pyran-4-carboxylate|NCGC00169057-01|NS00097692|SHANZHISIDE METHYLESTER|Shanzhisidmethylester|Z3247556297|methyl (1S,4aS,5R,7S,7aS)-5,7-dihydroxy-7-methyl-1-[(2S,3R,4S,5S,6R)-3,4,5-trihydroxy-6-(hydroxymethyl)oxan-2-yl]oxy-4a,5,6,7a-tetrahydro-1H-cyclopenta[c]pyran-4-carboxylate|s9307

>  <cas>  (747) 
64421-28-9

$$$$

     RDKit          2D

 27 30  0  0  0  0  0  0  0  0999 V2000
    6.6155   -3.6740    0.0000 C   0  0  0  0  0  0  0  0  0  0  0  0
    6.4179   -2.1871    0.0000 C   0  0  0  0  0  0  0  0  0  0  0  0
    5.0314   -1.6147    0.0000 C   0  0  0  0  0  0  0  0  0  0  0  0
    4.8338   -0.1278    0.0000 O   0  0  0  0  0  0  0  0  0  0  0  0
    3.4473    0.4446    0.0000 C   0  0  0  0  0  0  0  0  0  0  0  0
    3.2497    1.9315    0.0000 C   0  0  0  0  0  0  0  0  0  0  0  0
    4.4387    2.8461    0.0000 O   0  0  0  0  0  0  0  0  0  0  0  0
    5.8252    2.2737    0.0000 C   0  0  0  0  0  0  0  0  0  0  0  0
    1.8632    2.5039    0.0000 C   0  0  0  0  0  0  0  0  0  0  0  0
    0.6743    1.5893    0.0000 C   0  0  0  0  0  0  0  0  0  0  0  0
    0.8719    0.1024    0.0000 C   0  0  0  0  0  0  0  0  0  0  0  0
    2.2584   -0.4700    0.0000 C   0  0  0  0  0  0  0  0  0  0  0  0
    2.4560   -1.9569    0.0000 O   0  0  0  0  0  0  0  0  0  0  0  0
    3.8425   -2.5293    0.0000 C   0  0  0  0  0  0  0  0  0  0  0  0
   -0.4812   -0.5450    0.0000 O   0  0  0  0  0  0  0  0  0  0  0  0
   -1.5151    0.5418    0.0000 C   0  0  0  0  0  0  0  0  0  0  0  0
   -3.0020    0.3442    0.0000 C   0  0  0  0  0  0  0  0  0  0  0  0
   -3.9166    1.5332    0.0000 C   0  0  0  0  0  0  0  0  0  0  0  0
   -5.4035    1.3356    0.0000 C   0  0  0  0  0  0  0  0  0  0  0  0
   -5.9759   -0.0509    0.0000 C   0  0  0  0  0  0  0  0  0  0  0  0
   -7.3892   -0.5533    0.0000 O   0  0  0  0  0  0  0  0  0  0  0  0
   -7.3482   -2.0528    0.0000 C   0  0  0  0  0  0  0  0  0  0  0  0
   -5.9094   -2.4771    0.0000 O   0  0  0  0  0  0  0  0  0  0  0  0
   -5.0613   -1.2399    0.0000 C   0  0  0  0  0  0  0  0  0  0  0  0
   -3.5744   -1.0423    0.0000 C   0  0  0  0  0  0  0  0  0  0  0  0
   -0.8009    1.8609    0.0000 C   0  0  0  0  0  0  0  0  0  0  0  0
   -1.4483    3.2140    0.0000 C   0  0  0  0  0  0  0  0  0  0  0  0
  1  2  2  0
  2  3  1  0
  3  4  1  0
  4  5  1  0
  5  6  2  0
  6  7  1  0
  7  8  1  0
  6  9  1  0
  9 10  2  0
 10 11  1  0
 11 12  2  0
 12 13  1  0
 13 14  1  0
 11 15  1  0
 15 16  1  0
 16 17  1  6
 17 18  2  0
 18 19  1  0
 19 20  2  0
 20 21  1  0
 21 22  1  0
 22 23  1  0
 23 24  1  0
 24 25  2  0
 16 26  1  0
 26 27  1  1
 12  5  1  0
 25 17  1  0
 26 10  1  0
 24 20  1  0
M  END
>  <identifier>  (748) 
CNP0162943.1

>  <canonical_smiles>  (748) 
C=CCOC1=C(OC)C=C2C(=C1OC)O[C@H](C1=CC=C3OCOC3=C1)[C@H]2C

>  <standard_inchi>  (748) 
InChI=1S/C21H22O6/c1-5-8-24-20-17(22-3)10-14-12(2)18(27-19(14)21(20)23-4)13-6-7-15-16(9-13)26-11-25-15/h5-7,9-10,12,18H,1,8,11H2,2-4H3/t12-,18-/m0/s1

>  <standard_inchi_key>  (748) 
UVDMRNDOXNATBL-SGTLLEGYSA-N

>  <name>  (748) 
5-[(2S,3S)-5,7-dimethoxy-3-methyl-6-(prop-2-en-1-yloxy)-2,3-dihydro-1-benzofuran-2-yl]-2H-1,3-benzodioxole

>  <iupac_name>  (748) 
5-[(2~{S},3~{S})-6-allyloxy-5,7-dimethoxy-3-methyl-2,3-dihydrobenzofuran-2-yl]-1,3-benzodioxole

>  <annotation_level>  (748) 
5

>  <total_atom_count>  (748) 
49

>  <heavy_atom_count>  (748) 
27

>  <molecular_weight>  (748) 
370.4

>  <exact_molecular_weight>  (748) 
370.14164

>  <molecular_formula>  (748) 
C21H22O6

>  <alogp>  (748) 
4.23

>  <topological_polar_surface_area>  (748) 
55.38

>  <rotatable_bond_count>  (748) 
6

>  <hydrogen_bond_acceptors>  (748) 
6

>  <hydrogen_bond_donors>  (748) 
0

>  <hydrogen_bond_acceptors_lipinski>  (748) 
6

>  <hydrogen_bond_donors_lipinski>  (748) 
0

>  <lipinski_rule_of_five_violations>  (748) 
0

>  <aromatic_rings_count>  (748) 
2

>  <qed_drug_likeliness>  (748) 
0.71

>  <formal_charge>  (748) 
0

>  <fractioncsp3>  (748) 
0.33

>  <number_of_minimal_rings>  (748) 
4

>  <van_der_walls_volume>  (748) 
nan

>  <contains_sugar>  (748) 
False

>  <contains_ring_sugars>  (748) 
False

>  <contains_linear_sugars>  (748) 
False

>  <murcko_framework>  (748) 
O1c2ccc(cc2OC1)C3Oc4ccccc4C3

>  <np_likeness>  (748) 
1.35

>  <chemical_class>  (748) 
2-arylbenzofuran flavonoids

>  <chemical_sub_class>  (748) 
2-arylbenzofuran flavonoids

>  <chemical_super_class>  (748) 
Phenylpropanoids and polyketides

>  <direct_parent_classification>  (748) 
2-arylbenzofuran flavonoids

>  <np_classifier_pathway>  (748) 
Shikimates and Phenylpropanoids

>  <np_classifier_superclass>  (748) 
Lignans

>  <np_classifier_class>  (748) 
Neolignans

>  <np_classifier_is_glycoside>  (748) 
False

>  <organisms>  (748) 
Mespilodaphne veraguensis|Ocotea catharinensis|Ocotea veraguensis

>  <collections>  (748) 
Latin America dataset|NuBBEDB|Super Natural II|WikiData Natural Products

>  <dois>  (748) 
10.1016/0031-9422(91)83479-5|10.1016/S0031-9422(00)82369-9

>  <synonyms>  (748) 
(7S8S)-D-3'5'-Dimethoxy-34-methylenedioxy-8.1'7.O.6'4'O.7'-neolignan|SCHEMBL13948960

>  <cas>  (748) 
nan

$$$$

     RDKit          2D

 22 26  0  0  0  0  0  0  0  0999 V2000
    3.2716    2.4822    0.0000 O   0  0  0  0  0  0  0  0  0  0  0  0
    2.0834    1.5668    0.0000 C   0  0  0  0  0  0  0  0  0  0  0  0
    2.2820    0.0800    0.0000 C   0  0  0  0  0  0  0  0  0  0  0  0
    3.6690   -0.4913    0.0000 C   0  0  0  0  0  0  0  0  0  0  0  0
    3.8676   -1.9781    0.0000 C   0  0  0  0  0  0  0  0  0  0  0  0
    2.6794   -2.8936    0.0000 C   0  0  0  0  0  0  0  0  0  0  0  0
    1.2924   -2.3222    0.0000 C   0  0  0  0  0  0  0  0  0  0  0  0
    0.1042   -3.2377    0.0000 O   0  0  0  0  0  0  0  0  0  0  0  0
    1.0938   -0.8355    0.0000 C   0  0  0  0  0  0  0  0  0  0  0  0
   -0.2932   -0.2641    0.0000 C   0  0  0  0  0  0  0  0  0  0  0  0
   -0.4918    1.2227    0.0000 C   0  0  0  0  0  0  0  0  0  0  0  0
    0.6964    2.1381    0.0000 C   0  0  0  0  0  0  0  0  0  0  0  0
    0.4978    3.6249    0.0000 N   0  0  0  0  0  0  0  0  0  0  0  0
   -0.8892    4.1962    0.0000 C   0  0  0  0  0  0  0  0  0  0  0  0
   -2.0774    3.2808    0.0000 C   0  0  0  0  0  0  0  0  0  0  0  0
   -1.8787    1.7940    0.0000 C   0  0  0  0  0  0  0  0  0  0  0  0
   -3.0670    0.8786    0.0000 C   0  0  0  0  0  0  0  0  0  0  0  0
   -2.8683   -0.6082    0.0000 C   0  0  0  0  0  0  0  0  0  0  0  0
   -1.4814   -1.1796    0.0000 C   0  0  0  0  0  0  0  0  0  0  0  0
   -1.5962   -2.6752    0.0000 O   0  0  0  0  0  0  0  0  0  0  0  0
   -3.0541   -3.0281    0.0000 C   0  0  0  0  0  0  0  0  0  0  0  0
   -3.8403   -1.7507    0.0000 O   0  0  0  0  0  0  0  0  0  0  0  0
  1  2  2  0
  2  3  1  0
  3  4  2  0
  4  5  1  0
  5  6  2  0
  6  7  1  0
  7  8  1  0
  7  9  2  0
  9 10  1  0
 10 11  1  0
 11 12  2  0
 12 13  1  0
 13 14  2  0
 14 15  1  0
 15 16  2  0
 16 17  1  0
 17 18  2  0
 18 19  1  0
 19 20  1  0
 20 21  1  0
 21 22  1  0
 12  2  1  0
 22 18  1  0
  9  3  1  0
 19 10  2  0
 16 11  1  0
M  END
>  <identifier>  (749) 
CNP0311429.0

>  <canonical_smiles>  (749) 
O=C1C2=CC=CC(O)=C2C2=C3C1=NC=CC3=CC1=C2OCO1

>  <standard_inchi>  (749) 
InChI=1S/C17H9NO4/c19-10-3-1-2-9-13(10)14-12-8(4-5-18-15(12)16(9)20)6-11-17(14)22-7-21-11/h1-6,19H,7H2

>  <standard_inchi_key>  (749) 
DODFKQNXZYACBI-UHFFFAOYSA-N

>  <name>  (749) 
nan

>  <iupac_name>  (749) 
18-hydroxy-3,5-dioxa-11-azapentacyclo[10.7.1.0^{2,6}.0^{8,20}.0^{14,19}]icosa-1(20),2(6),7,9,11,14,16,18-octaen-13-one

>  <annotation_level>  (749) 
4

>  <total_atom_count>  (749) 
31

>  <heavy_atom_count>  (749) 
22

>  <molecular_weight>  (749) 
291.26

>  <exact_molecular_weight>  (749) 
291.05316

>  <molecular_formula>  (749) 
C17H9NO4

>  <alogp>  (749) 
2.88

>  <topological_polar_surface_area>  (749) 
68.65

>  <rotatable_bond_count>  (749) 
0

>  <hydrogen_bond_acceptors>  (749) 
5

>  <hydrogen_bond_donors>  (749) 
1

>  <hydrogen_bond_acceptors_lipinski>  (749) 
5

>  <hydrogen_bond_donors_lipinski>  (749) 
1

>  <lipinski_rule_of_five_violations>  (749) 
0

>  <aromatic_rings_count>  (749) 
3

>  <qed_drug_likeliness>  (749) 
0.54

>  <formal_charge>  (749) 
0

>  <fractioncsp3>  (749) 
0.06

>  <number_of_minimal_rings>  (749) 
5

>  <van_der_walls_volume>  (749) 
nan

>  <contains_sugar>  (749) 
False

>  <contains_ring_sugars>  (749) 
False

>  <contains_linear_sugars>  (749) 
False

>  <murcko_framework>  (749) 
n1ccc2cc3OCOc3c4-c5ccccc5Cc1c24

>  <np_likeness>  (749) 
1.42

>  <chemical_class>  (749) 
Aporphines

>  <chemical_sub_class>  (749) 
Aporphines

>  <chemical_super_class>  (749) 
Alkaloids and derivatives

>  <direct_parent_classification>  (749) 
Aporphines

>  <np_classifier_pathway>  (749) 
Alkaloids

>  <np_classifier_superclass>  (749) 
Tyrosine alkaloids

>  <np_classifier_class>  (749) 
Aporphine alkaloids

>  <np_classifier_is_glycoside>  (749) 
False

>  <organisms>  (749) 
Duguetia eximia

>  <collections>  (749) 
Latin America dataset|NuBBEDB|Super Natural II|UNPD (Universal Natural Products Database)|WikiData Natural Products|ZINC NP

>  <dois>  (749) 
10.1016/S0031-9422(00)94260-2

>  <synonyms>  (749) 
11-hydroxy-12-methylenedioxyoxoaporphine

>  <cas>  (749) 
nan

$$$$

     RDKit          2D

 21 23  0  0  0  0  0  0  0  0999 V2000
   -4.9298   -1.4925    0.0000 C   0  0  0  0  0  0  0  0  0  0  0  0
   -3.4321   -1.5749    0.0000 C   0  0  0  0  0  0  0  0  0  0  0  0
   -2.6119   -0.3190    0.0000 C   0  0  0  0  0  0  0  0  0  0  0  0
   -3.2894    1.0193    0.0000 C   0  0  0  0  0  0  0  0  0  0  0  0
   -4.7871    1.1017    0.0000 C   0  0  0  0  0  0  0  0  0  0  0  0
   -2.4692    2.2752    0.0000 C   0  0  0  0  0  0  0  0  0  0  0  0
   -0.9715    2.1928    0.0000 C   0  0  0  0  0  0  0  0  0  0  0  0
   -0.2939    0.8545    0.0000 C   0  0  0  0  0  0  0  0  0  0  0  0
   -1.1142   -0.4014    0.0000 C   0  0  0  0  0  0  0  0  0  0  0  0
   -0.4366   -1.7396    0.0000 C   0  0  0  0  0  0  0  0  0  0  0  0
   -1.2569   -2.9955    0.0000 O   0  0  0  0  0  0  0  0  0  0  0  0
    1.0611   -1.8220    0.0000 C   0  0  0  0  0  0  0  0  0  0  0  0
    1.8813   -0.5661    0.0000 C   0  0  0  0  0  0  0  0  0  0  0  0
    3.3790   -0.6485    0.0000 C   0  0  0  0  0  0  0  0  0  0  0  0
    4.7583   -1.2382    0.0000 C   0  0  0  0  0  0  0  0  0  0  0  0
    3.0378   -2.1092    0.0000 C   0  0  0  0  0  0  0  0  0  0  0  0
    4.1993    0.6074    0.0000 C   0  0  0  0  0  0  0  0  0  0  0  0
    3.5217    1.9456    0.0000 C   0  0  0  0  0  0  0  0  0  0  0  0
    2.0240    2.0280    0.0000 C   0  0  0  0  0  0  0  0  0  0  0  0
    1.2038    0.7721    0.0000 C   0  0  0  0  0  0  0  0  0  0  0  0
    0.5263    2.1104    0.0000 C   0  0  0  0  0  0  0  0  0  0  0  0
  1  2  1  0
  2  3  1  0
  3  4  2  0
  4  5  1  0
  4  6  1  0
  6  7  2  0
  7  8  1  0
  8  9  2  0
  9 10  1  0
 10 11  2  0
 10 12  1  0
 13 12  1  6
 13 14  1  0
 14 15  1  0
 14 16  1  0
 14 17  1  0
 17 18  1  0
 18 19  1  0
 19 20  1  0
 20 21  1  6
  9  3  1  0
 20 13  1  0
 20  8  1  0
M  END
>  <identifier>  (750) 
CNP0195824.1

>  <canonical_smiles>  (750) 
CCC1=C(C)C=CC2=C1C(=O)C[C@H]1C(C)(C)CCC[C@]21C

>  <standard_inchi>  (750) 
InChI=1S/C20H28O/c1-6-14-13(2)8-9-15-18(14)16(21)12-17-19(3,4)10-7-11-20(15,17)5/h8-9,17H,6-7,10-12H2,1-5H3/t17-,20+/m0/s1

>  <standard_inchi_key>  (750) 
PSLULZOEJJXWBH-FXAWDEMLSA-N

>  <name>  (750) 
nan

>  <iupac_name>  (750) 
(4~{a}~{S},10~{a}~{S})-8-ethyl-1,1,4~{a},7-tetramethyl-3,4,10,10~{a}-tetrahydro-2~{H}-phenanthren-9-one

>  <annotation_level>  (750) 
4

>  <total_atom_count>  (750) 
49

>  <heavy_atom_count>  (750) 
21

>  <molecular_weight>  (750) 
284.44

>  <exact_molecular_weight>  (750) 
284.21402

>  <molecular_formula>  (750) 
C20H28O

>  <alogp>  (750) 
5.23

>  <topological_polar_surface_area>  (750) 
17.07

>  <rotatable_bond_count>  (750) 
1

>  <hydrogen_bond_acceptors>  (750) 
1

>  <hydrogen_bond_donors>  (750) 
0

>  <hydrogen_bond_acceptors_lipinski>  (750) 
1

>  <hydrogen_bond_donors_lipinski>  (750) 
0

>  <lipinski_rule_of_five_violations>  (750) 
1

>  <aromatic_rings_count>  (750) 
1

>  <qed_drug_likeliness>  (750) 
0.69

>  <formal_charge>  (750) 
0

>  <fractioncsp3>  (750) 
0.65

>  <number_of_minimal_rings>  (750) 
3

>  <van_der_walls_volume>  (750) 
nan

>  <contains_sugar>  (750) 
False

>  <contains_ring_sugars>  (750) 
False

>  <contains_linear_sugars>  (750) 
False

>  <murcko_framework>  (750) 
c1ccc2c(c1)CCC3CCCCC23

>  <np_likeness>  (750) 
1.82

>  <chemical_class>  (750) 
Prenol lipids

>  <chemical_sub_class>  (750) 
Diterpenoids

>  <chemical_super_class>  (750) 
Lipids and lipid-like molecules

>  <direct_parent_classification>  (750) 
Diterpenoids

>  <np_classifier_pathway>  (750) 
Terpenoids

>  <np_classifier_superclass>  (750) 
Diterpenoids

>  <np_classifier_class>  (750) 
Cleistanthane diterpenoids

>  <np_classifier_is_glycoside>  (750) 
False

>  <organisms>  (750) 
Vellozia compacta|Vellozia declinans|Vellozia piresiana

>  <collections>  (750) 
Latin America dataset|NuBBEDB|Super Natural II|WikiData Natural Products

>  <dois>  (750) 
10.1016/0031-9422(92)80451-J|10.1016/S0031-9422(00)80444-6|10.1016/S0031-9422(99)00579-8|10.1016/S0040-4020(01)91585-6

>  <synonyms>  (750) 
81113-Cleistanthatrien-3-one

>  <cas>  (750) 
nan

$$$$

     RDKit          2D

 27 31  0  0  0  0  0  0  0  0999 V2000
    8.4844   -0.9638    0.0000 C   0  0  0  0  0  0  0  0  0  0  0  0
    7.4948    0.1635    0.0000 O   0  0  0  0  0  0  0  0  0  0  0  0
    6.0238   -0.1299    0.0000 C   0  0  0  0  0  0  0  0  0  0  0  0
    5.5423   -1.5506    0.0000 C   0  0  0  0  0  0  0  0  0  0  0  0
    4.0713   -1.8439    0.0000 C   0  0  0  0  0  0  0  0  0  0  0  0
    3.0817   -0.7167    0.0000 C   0  0  0  0  0  0  0  0  0  0  0  0
    1.6107   -1.0101    0.0000 C   0  0  0  0  0  0  0  0  0  0  0  0
    0.9834   -2.3726    0.0000 O   0  0  0  0  0  0  0  0  0  0  0  0
   -0.5063   -2.1971    0.0000 C   0  0  0  0  0  0  0  0  0  0  0  0
   -0.7997   -0.7260    0.0000 C   0  0  0  0  0  0  0  0  0  0  0  0
    0.5087    0.0076    0.0000 C   0  0  0  0  0  0  0  0  0  0  0  0
    0.2153    1.4786    0.0000 C   0  0  0  0  0  0  0  0  0  0  0  0
   -1.2744    1.6541    0.0000 O   0  0  0  0  0  0  0  0  0  0  0  0
   -1.9017    0.2916    0.0000 C   0  0  0  0  0  0  0  0  0  0  0  0
   -3.3727   -0.0018    0.0000 C   0  0  0  0  0  0  0  0  0  0  0  0
   -3.8542   -1.4224    0.0000 C   0  0  0  0  0  0  0  0  0  0  0  0
   -5.3252   -1.7158    0.0000 C   0  0  0  0  0  0  0  0  0  0  0  0
   -6.3148   -0.5886    0.0000 C   0  0  0  0  0  0  0  0  0  0  0  0
   -7.8147   -0.5697    0.0000 O   0  0  0  0  0  0  0  0  0  0  0  0
   -8.2602    0.8626    0.0000 C   0  0  0  0  0  0  0  0  0  0  0  0
   -7.0357    1.7290    0.0000 O   0  0  0  0  0  0  0  0  0  0  0  0
   -5.8333    0.8321    0.0000 C   0  0  0  0  0  0  0  0  0  0  0  0
   -4.3623    1.1255    0.0000 C   0  0  0  0  0  0  0  0  0  0  0  0
    3.5631    0.7039    0.0000 C   0  0  0  0  0  0  0  0  0  0  0  0
    5.0342    0.9973    0.0000 C   0  0  0  0  0  0  0  0  0  0  0  0
    5.5156    2.4180    0.0000 O   0  0  0  0  0  0  0  0  0  0  0  0
    4.5260    3.5452    0.0000 C   0  0  0  0  0  0  0  0  0  0  0  0
  1  2  1  0
  2  3  1  0
  3  4  2  0
  4  5  1  0
  5  6  2  0
  7  6  1  6
  7  8  1  0
  8  9  1  0
 10  9  1  6
 10 11  1  0
 11 12  1  6
 12 13  1  0
 13 14  1  0
 14 15  1  6
 15 16  2  0
 16 17  1  0
 17 18  2  0
 18 19  1  0
 19 20  1  0
 20 21  1  0
 21 22  1  0
 22 23  2  0
  6 24  1  0
 24 25  2  0
 25 26  1  0
 26 27  1  0
 25  3  1  0
 11  7  1  0
 23 15  1  0
 14 10  1  0
 22 18  1  0
M  END
>  <identifier>  (751) 
CNP0140264.4

>  <canonical_smiles>  (751) 
COC1=CC=C([C@@H]2OC[C@H]3[C@@H]2CO[C@H]3C2=CC=C3OCOC3=C2)C=C1OC

>  <standard_inchi>  (751) 
InChI=1S/C21H22O6/c1-22-16-5-3-12(7-18(16)23-2)20-14-9-25-21(15(14)10-24-20)13-4-6-17-19(8-13)27-11-26-17/h3-8,14-15,20-21H,9-11H2,1-2H3/t14-,15-,20-,21-/m0/s1

>  <standard_inchi_key>  (751) 
AWOGQCSIVCQXBT-PBFVBANWSA-N

>  <name>  (751) 
Demethoxyaschantin

>  <iupac_name>  (751) 
5-[(3~{R},3~{a}~{R},6~{R},6~{a}~{R})-6-(3,4-dimethoxyphenyl)-1,3,3~{a},4,6,6~{a}-hexahydrofuro[3,4-c]furan-3-yl]-1,3-benzodioxole

>  <annotation_level>  (751) 
5

>  <total_atom_count>  (751) 
49

>  <heavy_atom_count>  (751) 
27

>  <molecular_weight>  (751) 
370.4

>  <exact_molecular_weight>  (751) 
370.14164

>  <molecular_formula>  (751) 
C21H22O6

>  <alogp>  (751) 
3.51

>  <topological_polar_surface_area>  (751) 
55.38

>  <rotatable_bond_count>  (751) 
4

>  <hydrogen_bond_acceptors>  (751) 
6

>  <hydrogen_bond_donors>  (751) 
0

>  <hydrogen_bond_acceptors_lipinski>  (751) 
6

>  <hydrogen_bond_donors_lipinski>  (751) 
0

>  <lipinski_rule_of_five_violations>  (751) 
0

>  <aromatic_rings_count>  (751) 
2

>  <qed_drug_likeliness>  (751) 
0.82

>  <formal_charge>  (751) 
0

>  <fractioncsp3>  (751) 
0.43

>  <number_of_minimal_rings>  (751) 
5

>  <van_der_walls_volume>  (751) 
322.61

>  <contains_sugar>  (751) 
False

>  <contains_ring_sugars>  (751) 
False

>  <contains_linear_sugars>  (751) 
False

>  <murcko_framework>  (751) 
O1c2ccc(cc2OC1)C3OCC4C(OCC34)c5ccccc5

>  <np_likeness>  (751) 
0.75

>  <chemical_class>  (751) 
Furanoid lignans

>  <chemical_sub_class>  (751) 
Furan lignans

>  <chemical_super_class>  (751) 
Lignans, neolignans and related compounds

>  <direct_parent_classification>  (751) 
Furan lignans

>  <np_classifier_pathway>  (751) 
Shikimates and Phenylpropanoids

>  <np_classifier_superclass>  (751) 
Lignans

>  <np_classifier_class>  (751) 
Furofuranoid lignans

>  <np_classifier_is_glycoside>  (751) 
False

>  <organisms>  (751) 
Magnolia biondii|Magnolia denudata|Magnolia kobus|Magnolia salicifolia|Magnolia sprengeri|Raulinoa echinata|Virola venosa

>  <collections>  (751) 
CMAUP (cCollective molecular activities of useful plants)|Latin America dataset|NPASS|NuBBEDB|WikiData Natural Products

>  <dois>  (751) 
10.1002/1099-1565(200101/02)12:1<64::AID-PCA562>3.0.CO,2-3|10.1016/0031-9422(91)83055-P|10.1016/0031-9422(95)00578-1

>  <synonyms>  (751) 
(+)-methylpiperitol, (+)-Kobusin|Methylpiperitol;O-Methylpiperitol; Spinescin|Q-100938

>  <cas>  (751) 
nan

$$$$

     RDKit          2D

 41 43  0  0  0  0  0  0  0  0999 V2000
    7.3483   -1.6288    0.0000 C   0  0  0  0  0  0  0  0  0  0  0  0
    5.8484   -1.6395    0.0000 C   0  0  0  0  0  0  0  0  0  0  0  0
    5.1077   -2.9439    0.0000 C   0  0  0  0  0  0  0  0  0  0  0  0
    5.8670   -4.2375    0.0000 C   0  0  0  0  0  0  0  0  0  0  0  0
    3.6077   -2.9546    0.0000 C   0  0  0  0  0  0  0  0  0  0  0  0
    2.8484   -1.6610    0.0000 C   0  0  0  0  0  0  0  0  0  0  0  0
    1.3485   -1.6717    0.0000 C   0  0  0  0  0  0  0  0  0  0  0  0
    1.6195   -3.1470    0.0000 C   0  0  0  0  0  0  0  0  0  0  0  0
    1.5984   -0.1927    0.0000 C   0  0  0  0  0  0  0  0  0  0  0  0
    3.0042    0.3304    0.0000 C   0  0  0  0  0  0  0  0  0  0  0  0
    0.4424    0.7632    0.0000 C   0  0  0  0  0  0  0  0  0  0  0  0
    0.6923    2.2423    0.0000 O   0  0  0  0  0  0  0  0  0  0  0  0
    2.0981    2.7654    0.0000 C   0  0  0  0  0  0  0  0  0  0  0  0
    3.2541    1.8095    0.0000 O   0  0  0  0  0  0  0  0  0  0  0  0
    2.3480    4.2444    0.0000 C   0  0  0  0  0  0  0  0  0  0  0  0
    3.7538    4.7675    0.0000 C   0  0  0  0  0  0  0  0  0  0  0  0
    4.0037    6.2466    0.0000 C   0  0  0  0  0  0  0  0  0  0  0  0
   -0.9634    0.2401    0.0000 C   0  0  0  0  0  0  0  0  0  0  0  0
   -2.1194    1.1960    0.0000 O   0  0  0  0  0  0  0  0  0  0  0  0
   -1.8695    2.6751    0.0000 C   0  0  0  0  0  0  0  0  0  0  0  0
   -3.0254    3.6310    0.0000 C   0  0  0  0  0  0  0  0  0  0  0  0
   -0.6320    3.5228    0.0000 O   0  0  0  0  0  0  0  0  0  0  0  0
   -1.2133   -1.2389    0.0000 C   0  0  0  0  0  0  0  0  0  0  0  0
   -2.6191   -1.7620    0.0000 C   0  0  0  0  0  0  0  0  0  0  0  0
   -2.8690   -3.2411    0.0000 C   0  0  0  0  0  0  0  0  0  0  0  0
   -1.7131   -4.1970    0.0000 C   0  0  0  0  0  0  0  0  0  0  0  0
   -1.9629   -5.6761    0.0000 O   0  0  0  0  0  0  0  0  0  0  0  0
   -3.3688   -6.1992    0.0000 C   0  0  0  0  0  0  0  0  0  0  0  0
   -0.3072   -3.6739    0.0000 C   0  0  0  0  0  0  0  0  0  0  0  0
   -0.0574   -2.1949    0.0000 C   0  0  0  0  0  0  0  0  0  0  0  0
   -3.5511   -0.5867    0.0000 C   0  0  0  0  0  0  0  0  0  0  0  0
   -5.0497   -0.6498    0.0000 O   0  0  0  0  0  0  0  0  0  0  0  0
   -5.8537    0.6166    0.0000 C   0  0  0  0  0  0  0  0  0  0  0  0
   -7.3524    0.5535    0.0000 C   0  0  0  0  0  0  0  0  0  0  0  0
   -5.1590    1.9460    0.0000 O   0  0  0  0  0  0  0  0  0  0  0  0
   -2.7212    0.6629    0.0000 O   0  0  0  0  0  0  0  0  0  0  0  0
   -1.2764    0.2597    0.0000 C   0  0  0  0  0  0  0  0  0  0  0  0
   -0.1010    1.1917    0.0000 O   0  0  0  0  0  0  0  0  0  0  0  0
   -0.3204    2.6755    0.0000 C   0  0  0  0  0  0  0  0  0  0  0  0
    0.8550    3.6075    0.0000 C   0  0  0  0  0  0  0  0  0  0  0  0
   -1.5402    3.5486    0.0000 O   0  0  0  0  0  0  0  0  0  0  0  0
  1  2  2  0
  2  3  1  0
  3  4  1  0
  3  5  2  0
  5  6  1  0
  6  7  1  0
  7  8  1  6
  7  9  1  0
  9 10  1  1
  9 11  1  0
 11 12  1  6
 12 13  1  0
 13 14  2  0
 13 15  1  0
 15 16  1  0
 16 17  1  0
 11 18  1  0
 18 19  1  1
 19 20  1  0
 20 21  1  0
 20 22  2  0
 18 23  1  0
 23 24  1  6
 24 25  2  0
 25 26  1  0
 26 27  1  1
 27 28  1  0
 26 29  1  0
 30 29  1  6
 24 31  1  0
 31 32  1  1
 32 33  1  0
 33 34  1  0
 33 35  2  0
 31 36  1  0
 36 37  1  0
 37 38  1  1
 38 39  1  0
 39 40  1  0
 39 41  2  0
 30  7  1  0
 30 23  1  0
 37 23  1  0
M  END
>  <identifier>  (752) 
CNP0175084.2

>  <canonical_smiles>  (752) 
C=C/C(C)=C\C[C@]1(C)[C@H](C)[C@@H](OC(=O)CCC)[C@H](OC(C)=O)[C@@]23C(=C[C@H](OC)C[C@@H]12)[C@@H](OC(C)=O)O[C@H]3OC(C)=O

>  <standard_inchi>  (752) 
InChI=1S/C31H44O10/c1-10-12-25(35)40-26-18(4)30(8,14-13-17(3)11-2)24-16-22(36-9)15-23-28(38-20(6)33)41-29(39-21(7)34)31(23,24)27(26)37-19(5)32/h11,13,15,18,22,24,26-29H,2,10,12,14,16H2,1,3-9H3/b17-13-/t18-,22+,24+,26-,27+,28+,29-,30-,31-/m1/s1

>  <standard_inchi_key>  (752) 
WJFSBKDDKDZRMR-FSNPUOHESA-N

>  <name>  (752) 
nan

>  <iupac_name>  (752) 
[(1~{S},3~{R},5~{R},6~{a}~{S},7~{S},8~{S},9~{R},10~{R},10~{a}~{S})-1,3,10-triacetoxy-5-methoxy-7,8-dimethyl-7-[(2~{Z})-3-methylpenta-2,4-dienyl]-1,3,5,6,6~{a},8,9,10-octahydrobenzo[d]isobenzofuran-9-yl] butanoate

>  <annotation_level>  (752) 
5

>  <total_atom_count>  (752) 
85

>  <heavy_atom_count>  (752) 
41

>  <molecular_weight>  (752) 
576.68

>  <exact_molecular_weight>  (752) 
576.29345

>  <molecular_formula>  (752) 
C31H44O10

>  <alogp>  (752) 
4.56

>  <topological_polar_surface_area>  (752) 
123.66

>  <rotatable_bond_count>  (752) 
10

>  <hydrogen_bond_acceptors>  (752) 
10

>  <hydrogen_bond_donors>  (752) 
0

>  <hydrogen_bond_acceptors_lipinski>  (752) 
10

>  <hydrogen_bond_donors_lipinski>  (752) 
0

>  <lipinski_rule_of_five_violations>  (752) 
1

>  <aromatic_rings_count>  (752) 
0

>  <qed_drug_likeliness>  (752) 
0.16

>  <formal_charge>  (752) 
0

>  <fractioncsp3>  (752) 
0.68

>  <number_of_minimal_rings>  (752) 
3

>  <van_der_walls_volume>  (752) 
536.44

>  <contains_sugar>  (752) 
False

>  <contains_ring_sugars>  (752) 
False

>  <contains_linear_sugars>  (752) 
False

>  <murcko_framework>  (752) 
O1CC2=CCCC3CCCCC23C1

>  <np_likeness>  (752) 
3.18

>  <chemical_class>  (752) 
Prenol lipids

>  <chemical_sub_class>  (752) 
Diterpenoids

>  <chemical_super_class>  (752) 
Lipids and lipid-like molecules

>  <direct_parent_classification>  (752) 
Colensane and clerodane diterpenoids

>  <np_classifier_pathway>  (752) 
Terpenoids

>  <np_classifier_superclass>  (752) 
Diterpenoids

>  <np_classifier_class>  (752) 
Colensane and Clerodane diterpenoids

>  <np_classifier_is_glycoside>  (752) 
True

>  <organisms>  (752) 
Casearia sylvestris

>  <collections>  (752) 
ChemSpider NPs|Latin America dataset|NuBBEDB|Super Natural II|WikiData Natural Products|ZINC NP

>  <dois>  (752) 
10.1002/CBDV.200800342|10.1002/cbdv.200800342|10.1248/CPB.38.3384

>  <synonyms>  (752) 
Casearin B, (1R*3S*5S*6aS*7R*8R*9S*10S*10aR*)-1310-Tris(acetyloxy)-3566a78910-octahydro-5-methoxy-78-dimethyl-7-[(2Z)-3-methylpenta-24-dien-1-yl]naphtho[18a-c]furan-9-yl Butanoate

>  <cas>  (752) 
nan

$$$$

     RDKit          2D

 15 16  0  0  0  0  0  0  0  0999 V2000
    4.3069    0.4856    0.0000 C   0  0  0  0  0  0  0  0  0  0  0  0
    3.1386   -0.4551    0.0000 C   0  0  0  0  0  0  0  0  0  0  0  0
    3.3690   -1.9373    0.0000 C   0  0  0  0  0  0  0  0  0  0  0  0
    1.7397    0.0864    0.0000 C   0  0  0  0  0  0  0  0  0  0  0  0
    0.6449   -0.9390    0.0000 C   0  0  0  0  0  0  0  0  0  0  0  0
   -0.8394   -0.7223    0.0000 C   0  0  0  0  0  0  0  0  0  0  0  0
   -1.8379   -1.8417    0.0000 C   0  0  0  0  0  0  0  0  0  0  0  0
   -1.5191   -3.3075    0.0000 C   0  0  0  0  0  0  0  0  0  0  0  0
   -3.2110   -1.2380    0.0000 C   0  0  0  0  0  0  0  0  0  0  0  0
   -3.0612    0.2545    0.0000 C   0  0  0  0  0  0  0  0  0  0  0  0
   -1.5954    0.5732    0.0000 C   0  0  0  0  0  0  0  0  0  0  0  0
   -1.0539    1.9720    0.0000 C   0  0  0  0  0  0  0  0  0  0  0  0
   -2.0793    3.0668    0.0000 C   0  0  0  0  0  0  0  0  0  0  0  0
    0.3774    2.4208    0.0000 C   0  0  0  0  0  0  0  0  0  0  0  0
    1.6206    1.5817    0.0000 C   0  0  0  0  0  0  0  0  0  0  0  0
  1  2  2  0
  2  3  1  0
  4  2  1  1
  4  5  1  0
  5  6  2  0
  6  7  1  0
  7  8  1  6
  7  9  1  0
  9 10  1  0
 11 10  1  6
 11 12  1  0
 12 13  1  6
 12 14  1  0
 14 15  1  0
 15  4  1  0
 11  6  1  0
M  END
>  <identifier>  (753) 
CNP0163747.2

>  <canonical_smiles>  (753) 
C=C(C)[C@H]1C=C2[C@H](C)CC[C@@H]2[C@H](C)CC1

>  <standard_inchi>  (753) 
InChI=1S/C15H24/c1-10(2)13-7-5-11(3)14-8-6-12(4)15(14)9-13/h9,11-14H,1,5-8H2,2-4H3/t11-,12-,13-,14-/m1/s1

>  <standard_inchi_key>  (753) 
DUYRYUZIBGFLDD-AAVRWANBSA-N

>  <name>  (753) 
DTXSID101037142

>  <iupac_name>  (753) 
(1~{R},3~{a}~{R},4~{R},7~{R})-7-isopropenyl-1,4-dimethyl-1,2,3,3~{a},4,5,6,7-octahydroazulene

>  <annotation_level>  (753) 
5

>  <total_atom_count>  (753) 
39

>  <heavy_atom_count>  (753) 
15

>  <molecular_weight>  (753) 
204.36

>  <exact_molecular_weight>  (753) 
204.1878

>  <molecular_formula>  (753) 
C15H24

>  <alogp>  (753) 
4.58

>  <topological_polar_surface_area>  (753) 
0.00

>  <rotatable_bond_count>  (753) 
1

>  <hydrogen_bond_acceptors>  (753) 
0

>  <hydrogen_bond_donors>  (753) 
0

>  <hydrogen_bond_acceptors_lipinski>  (753) 
0

>  <hydrogen_bond_donors_lipinski>  (753) 
0

>  <lipinski_rule_of_five_violations>  (753) 
0

>  <aromatic_rings_count>  (753) 
0

>  <qed_drug_likeliness>  (753) 
0.55

>  <formal_charge>  (753) 
0

>  <fractioncsp3>  (753) 
0.73

>  <number_of_minimal_rings>  (753) 
2

>  <van_der_walls_volume>  (753) 
224.77

>  <contains_sugar>  (753) 
False

>  <contains_ring_sugars>  (753) 
False

>  <contains_linear_sugars>  (753) 
False

>  <murcko_framework>  (753) 
C1=C2CCCC2CCCC1

>  <np_likeness>  (753) 
2.85

>  <chemical_class>  (753) 
Prenol lipids

>  <chemical_sub_class>  (753) 
Sesquiterpenoids

>  <chemical_super_class>  (753) 
Lipids and lipid-like molecules

>  <direct_parent_classification>  (753) 
Sesquiterpenoids

>  <np_classifier_pathway>  (753) 
Terpenoids

>  <np_classifier_superclass>  (753) 
Sesquiterpenoids

>  <np_classifier_class>  (753) 
Aromadendrane sesquiterpenoids

>  <np_classifier_is_glycoside>  (753) 
False

>  <organisms>  (753) 
Acorus calamus|Annona reticulata|Anthyllis hermanniae|Artemisia annua|Cinnamomum camphora|Clerodendrum brachyanthum|Cynanchum sibiricum|Cyperus Rotundus|Cyperus rotundus|Dipterocarpus dyeri|Frullania tamarisci|Guatteriopsis blepharophylla|Guatteriopsis hispida|Helichrysum ambiguum|Humulus lupulus|Lecanora rupicola|Magnolia officinalis|Mangifera indica|Nardostachys chinensis|Ozothamnus adnatus|Ozothamnus bilobus|Ozothamnus retusus|Parmelia barbata|Persicaria hydropiperoides|Persicaria minor|Petasites albus|Petasites hybridus|Peucedanum ruthenicum|Peucedanum tauricum|Piper arboreum|Piper fimbriulatum|Piptocarpha chontalensis|Podachaenium eminens|Psidium guajava|Tersonia brevipes|Toona ciliata|Usnea magellanica|common myrtle

>  <collections>  (753) 
Australian natural products|CMAUP (cCollective molecular activities of useful plants)|FooDB|KNApSaCK|Latin America dataset|NAPRORE-CR|NPASS|NuBBEDB|Super Natural II|TCMDB-Taiwan (Traditional Chinese Medicine database)|TIPdb (database of Taiwan indigenous plants)|VietHerb|WikiData Natural Products|ZINC NP

>  <dois>  (753) 
10.1002/CBDV.201400340|10.1002/CBDV.201800531|10.1002/JSFA.6397|10.1002/JSSC.200900378|10.1006/JFCA.1999.0841|10.1016/0031-9422(89)80048-2|10.1016/J.CHROMA.2006.08.080|10.1016/J.FOODCHEM.2008.09.107|10.1016/J.FOODCHEM.2012.09.111|10.1016/J.FOODCHEM.2018.09.082|10.1016/J.INDCROP.2011.07.024|10.1016/J.INDCROP.2013.06.023|10.1016/J.PHYTOCHEM.2005.01.022|10.1016/S0031-9422(01)00018-8|10.1016/S0031-9422(01)00301-6|10.1016/S0031-9422(97)00762-0|10.1021/JF0402633|10.1080/10412905.2000.9699486|10.1080/10412905.2003.9698598|10.1080/10412905.2004.9698744|10.1080/10412905.2013.796498|10.1080/14620316.2003.11511610|10.1590/S0103-50532000000600012|10.3390/MOLECULES15107006

>  <synonyms>  (753) 
(+)-gamma-Gurjunene|1,4-Dimethyl-7-(1-methylethenyl)-octahydroazulene|\u221a\u00e9\u00ac\u2265-gurjunene

>  <cas>  (753) 
22567-17-5

$$$$

     RDKit          2D

 28 32  0  0  0  0  0  0  0  0999 V2000
   -2.7940   -5.7336    0.0000 C   0  0  0  0  0  0  0  0  0  0  0  0
   -2.1748   -4.3674    0.0000 C   0  0  0  0  0  0  0  0  0  0  0  0
   -0.6820   -4.2206    0.0000 C   0  0  0  0  0  0  0  0  0  0  0  0
   -3.0483   -3.1480    0.0000 C   0  0  0  0  0  0  0  0  0  0  0  0
   -2.4290   -1.7818    0.0000 C   0  0  0  0  0  0  0  0  0  0  0  0
   -0.9598   -1.4798    0.0000 C   0  0  0  0  0  0  0  0  0  0  0  0
   -0.7930    0.0109    0.0000 C   0  0  0  0  0  0  0  0  0  0  0  0
   -0.3199    1.4344    0.0000 C   0  0  0  0  0  0  0  0  0  0  0  0
    0.6721   -0.3108    0.0000 C   0  0  0  0  0  0  0  0  0  0  0  0
    1.6833    0.7972    0.0000 C   0  0  0  0  0  0  0  0  0  0  0  0
    3.1484    0.4755    0.0000 C   0  0  0  0  0  0  0  0  0  0  0  0
    3.6023   -0.9541    0.0000 C   0  0  0  0  0  0  0  0  0  0  0  0
    5.0674   -1.2758    0.0000 C   0  0  0  0  0  0  0  0  0  0  0  0
    6.0786   -0.1678    0.0000 C   0  0  0  0  0  0  0  0  0  0  0  0
    7.5785   -0.1779    0.0000 C   0  0  0  0  0  0  0  0  0  0  0  0
    8.0516    1.2456    0.0000 C   0  0  0  0  0  0  0  0  0  0  0  0
    6.8440    2.1354    0.0000 N   0  0  0  0  0  0  0  0  0  0  0  0
    5.6246    1.2618    0.0000 C   0  0  0  0  0  0  0  0  0  0  0  0
    4.1595    1.5835    0.0000 C   0  0  0  0  0  0  0  0  0  0  0  0
   -2.1592    0.6302    0.0000 C   0  0  0  0  0  0  0  0  0  0  0  0
   -2.6131    2.0599    0.0000 C   0  0  0  0  0  0  0  0  0  0  0  0
   -4.0782    2.3815    0.0000 C   0  0  0  0  0  0  0  0  0  0  0  0
   -5.0894    1.2736    0.0000 C   0  0  0  0  0  0  0  0  0  0  0  0
   -4.6354   -0.1561    0.0000 C   0  0  0  0  0  0  0  0  0  0  0  0
   -3.1703   -0.4778    0.0000 C   0  0  0  0  0  0  0  0  0  0  0  0
   -6.4556    1.8928    0.0000 N   0  0  0  0  0  0  0  0  0  0  0  0
   -6.2888    3.3835    0.0000 C   0  0  0  0  0  0  0  0  0  0  0  0
   -4.8195    3.6856    0.0000 C   0  0  0  0  0  0  0  0  0  0  0  0
  1  2  1  0
  2  3  1  0
  2  4  2  0
  5  4  1  1
  5  6  1  0
  6  7  1  0
  7  8  1  1
  7  9  1  0
  9 10  2  0
 10 11  1  0
 11 12  2  0
 12 13  1  0
 13 14  2  0
 14 15  1  0
 15 16  2  0
 16 17  1  0
 17 18  1  0
 18 19  2  0
  7 20  1  0
 20 21  2  0
 21 22  1  0
 22 23  2  0
 23 24  1  0
 24 25  2  0
 23 26  1  0
 26 27  1  0
 27 28  2  0
 25  5  1  0
 19 11  1  0
 25 20  1  0
 18 14  1  0
 28 22  1  0
M  END
>  <identifier>  (754) 
CNP0324917.1

>  <canonical_smiles>  (754) 
CC(C)=C[C@@H]1C[C@@](C)(/C=C/C2=CC=C3C=CNC3=C2)C2=CC3=C(C=C21)NC=C3

>  <standard_inchi>  (754) 
InChI=1S/C26H26N2/c1-17(2)12-21-16-26(3,23-14-20-8-11-28-25(20)15-22(21)23)9-6-18-4-5-19-7-10-27-24(19)13-18/h4-15,21,27-28H,16H2,1-3H3/b9-6+/t21-,26-/m1/s1

>  <standard_inchi_key>  (754) 
STKFDMFOGFXEHA-BZTSCEAKSA-N

>  <name>  (754) 
nan

>  <iupac_name>  (754) 
(5~{S},7~{S})-5-[(~{E})-2-(1~{H}-indol-6-yl)vinyl]-5-methyl-7-(2-methylprop-1-enyl)-6,7-dihydro-1~{H}-cyclopenta[f]indole

>  <annotation_level>  (754) 
4

>  <total_atom_count>  (754) 
54

>  <heavy_atom_count>  (754) 
28

>  <molecular_weight>  (754) 
366.51

>  <exact_molecular_weight>  (754) 
366.2096

>  <molecular_formula>  (754) 
C26H26N2

>  <alogp>  (754) 
7.07

>  <topological_polar_surface_area>  (754) 
31.58

>  <rotatable_bond_count>  (754) 
3

>  <hydrogen_bond_acceptors>  (754) 
0

>  <hydrogen_bond_donors>  (754) 
2

>  <hydrogen_bond_acceptors_lipinski>  (754) 
0

>  <hydrogen_bond_donors_lipinski>  (754) 
2

>  <lipinski_rule_of_five_violations>  (754) 
1

>  <aromatic_rings_count>  (754) 
4

>  <qed_drug_likeliness>  (754) 
0.36

>  <formal_charge>  (754) 
0

>  <fractioncsp3>  (754) 
0.23

>  <number_of_minimal_rings>  (754) 
5

>  <van_der_walls_volume>  (754) 
nan

>  <contains_sugar>  (754) 
False

>  <contains_ring_sugars>  (754) 
False

>  <contains_linear_sugars>  (754) 
False

>  <murcko_framework>  (754) 
c1cc2ccc(C=CC3c4cc5cc[nH]c5cc4CC3)cc2[nH]1

>  <np_likeness>  (754) 
1.07

>  <chemical_class>  (754) 
Indoles and derivatives

>  <chemical_sub_class>  (754) 
Indoles

>  <chemical_super_class>  (754) 
Organoheterocyclic compounds

>  <direct_parent_classification>  (754) 
Indoles

>  <np_classifier_pathway>  (754) 
Alkaloids

>  <np_classifier_superclass>  (754) 
Tryptophan alkaloids

>  <np_classifier_class>  (754) 
Simple indole alkaloids

>  <np_classifier_is_glycoside>  (754) 
False

>  <organisms>  (754) 
Raputia megalantha|Raputia simulans

>  <collections>  (754) 
Latin America dataset|NuBBEDB|WikiData Natural Products|ZINC NP

>  <dois>  (754) 
10.1590/S0103-50532011000700021

>  <synonyms>  (754) 
Raputindole A

>  <cas>  (754) 
nan

$$$$

     RDKit          2D

 44 47  0  0  0  0  0  0  0  0999 V2000
   -1.9574   -0.8437    0.0000 O   0  0  0  0  0  0  0  0  0  0  0  0
   -0.7093   -0.0116    0.0000 C   0  0  0  0  0  0  0  0  0  0  0  0
    0.6353   -0.6764    0.0000 C   0  0  0  0  0  0  0  0  0  0  0  0
    0.7319   -2.1733    0.0000 C   0  0  0  0  0  0  0  0  0  0  0  0
    2.0765   -2.8381    0.0000 C   0  0  0  0  0  0  0  0  0  0  0  0
    2.1731   -4.3350    0.0000 C   0  0  0  0  0  0  0  0  0  0  0  0
    3.5177   -4.9998    0.0000 C   0  0  0  0  0  0  0  0  0  0  0  0
    4.7658   -4.1678    0.0000 C   0  0  0  0  0  0  0  0  0  0  0  0
    6.1104   -4.8326    0.0000 O   0  0  0  0  0  0  0  0  0  0  0  0
    4.6692   -2.6709    0.0000 C   0  0  0  0  0  0  0  0  0  0  0  0
    5.9173   -1.8388    0.0000 O   0  0  0  0  0  0  0  0  0  0  0  0
    5.8207   -0.3419    0.0000 C   0  0  0  0  0  0  0  0  0  0  0  0
    7.0688    0.4901    0.0000 O   0  0  0  0  0  0  0  0  0  0  0  0
    6.9722    1.9870    0.0000 C   0  0  0  0  0  0  0  0  0  0  0  0
    8.2203    2.8191    0.0000 C   0  0  0  0  0  0  0  0  0  0  0  0
    9.5649    2.1543    0.0000 O   0  0  0  0  0  0  0  0  0  0  0  0
    5.6276    2.6519    0.0000 C   0  0  0  0  0  0  0  0  0  0  0  0
    5.5310    4.1487    0.0000 O   0  0  0  0  0  0  0  0  0  0  0  0
    4.3795    1.8198    0.0000 C   0  0  0  0  0  0  0  0  0  0  0  0
    3.0349    2.4846    0.0000 O   0  0  0  0  0  0  0  0  0  0  0  0
    4.4761    0.3229    0.0000 C   0  0  0  0  0  0  0  0  0  0  0  0
    3.2280   -0.5092    0.0000 O   0  0  0  0  0  0  0  0  0  0  0  0
    3.3246   -2.0061    0.0000 C   0  0  0  0  0  0  0  0  0  0  0  0
   -0.8059    1.4853    0.0000 O   0  0  0  0  0  0  0  0  0  0  0  0
   -2.1505    2.1501    0.0000 C   0  0  0  0  0  0  0  0  0  0  0  0
   -2.2470    3.6470    0.0000 O   0  0  0  0  0  0  0  0  0  0  0  0
   -3.5917    4.3118    0.0000 C   0  0  0  0  0  0  0  0  0  0  0  0
   -3.6882    5.8087    0.0000 C   0  0  0  0  0  0  0  0  0  0  0  0
   -2.4402    6.6408    0.0000 O   0  0  0  0  0  0  0  0  0  0  0  0
   -4.8397    3.4798    0.0000 C   0  0  0  0  0  0  0  0  0  0  0  0
   -6.1843    4.1446    0.0000 O   0  0  0  0  0  0  0  0  0  0  0  0
   -4.7432    1.9829    0.0000 C   0  0  0  0  0  0  0  0  0  0  0  0
   -5.9912    1.1508    0.0000 O   0  0  0  0  0  0  0  0  0  0  0  0
   -3.3985    1.3180    0.0000 C   0  0  0  0  0  0  0  0  0  0  0  0
   -3.3020   -0.1788    0.0000 O   0  0  0  0  0  0  0  0  0  0  0  0
   -4.5500   -1.0109    0.0000 C   0  0  0  0  0  0  0  0  0  0  0  0
   -5.8947   -0.3461    0.0000 C   0  0  0  0  0  0  0  0  0  0  0  0
   -7.1427   -1.1782    0.0000 O   0  0  0  0  0  0  0  0  0  0  0  0
   -7.0462   -2.6750    0.0000 C   0  0  0  0  0  0  0  0  0  0  0  0
   -8.2942   -3.5071    0.0000 O   0  0  0  0  0  0  0  0  0  0  0  0
   -5.7015   -3.3399    0.0000 C   0  0  0  0  0  0  0  0  0  0  0  0
   -5.6050   -4.8368    0.0000 O   0  0  0  0  0  0  0  0  0  0  0  0
   -4.4535   -2.5078    0.0000 C   0  0  0  0  0  0  0  0  0  0  0  0
   -3.1089   -3.1726    0.0000 O   0  0  0  0  0  0  0  0  0  0  0  0
  1  2  2  0
  2  3  1  0
  3  4  2  0
  4  5  1  0
  5  6  2  0
  6  7  1  0
  7  8  2  0
  8  9  1  0
  8 10  1  0
 10 11  1  0
 12 11  1  1
 12 13  1  0
 13 14  1  0
 14 15  1  1
 15 16  1  0
 14 17  1  0
 17 18  1  6
 17 19  1  0
 19 20  1  1
 19 21  1  0
 21 22  1  6
 10 23  2  0
  2 24  1  0
 25 24  1  1
 25 26  1  0
 26 27  1  0
 27 28  1  1
 28 29  1  0
 27 30  1  0
 30 31  1  6
 30 32  1  0
 32 33  1  1
 32 34  1  0
 34 35  1  6
 36 35  1  6
 36 37  1  0
 37 38  1  0
 38 39  1  0
 39 40  1  6
 39 41  1  0
 41 42  1  6
 41 43  1  0
 43 44  1  1
 23  5  1  0
 34 25  1  0
 43 36  1  0
 21 12  1  0
M  END
>  <identifier>  (755) 
CNP0239034.1

>  <canonical_smiles>  (755) 
O=C(/C=C/C1=CC=C(O)C(O[C@@H]2O[C@H](CO)[C@@H](O)[C@H](O)[C@H]2O)=C1)O[C@@H]1O[C@H](CO)[C@@H](O)[C@H](O)[C@H]1O[C@H]1CO[C@@H](O)[C@@H](O)[C@@H]1O

>  <standard_inchi>  (755) 
InChI=1S/C26H36O18/c27-6-12-16(31)19(34)22(37)25(42-12)41-11-5-9(1-3-10(11)29)2-4-15(30)44-26-23(20(35)17(32)13(7-28)43-26)40-14-8-39-24(38)21(36)18(14)33/h1-5,12-14,16-29,31-38H,6-8H2/b4-2+/t12-,13-,14+,16-,17-,18-,19+,20+,21+,22-,23-,24-,25-,26+/m1/s1

>  <standard_inchi_key>  (755) 
ULXNZIXJJLKCPD-JSPXEMGASA-N

>  <name>  (755) 
nan

>  <iupac_name>  (755) 
[(2~{S},3~{R},4~{S},5~{S},6~{R})-4,5-dihydroxy-6-(hydroxymethyl)-3-[(3~{S},4~{S},5~{S},6~{R})-4,5,6-trihydroxytetrahydropyran-3-yl]oxy-tetrahydropyran-2-yl] (~{E})-3-[4-hydroxy-3-[(2~{S},3~{R},4~{S},5~{S},6~{R})-3,4,5-trihydroxy-6-(hydroxymethyl)tetrahydropyran-2-yl]oxy-phenyl]prop-2-enoate

>  <annotation_level>  (755) 
3

>  <total_atom_count>  (755) 
80

>  <heavy_atom_count>  (755) 
44

>  <molecular_weight>  (755) 
636.56

>  <exact_molecular_weight>  (755) 
636.19016

>  <molecular_formula>  (755) 
C26H36O18

>  <alogp>  (755) 
-5.61

>  <topological_polar_surface_area>  (755) 
294.98

>  <rotatable_bond_count>  (755) 
9

>  <hydrogen_bond_acceptors>  (755) 
18

>  <hydrogen_bond_donors>  (755) 
11

>  <hydrogen_bond_acceptors_lipinski>  (755) 
18

>  <hydrogen_bond_donors_lipinski>  (755) 
11

>  <lipinski_rule_of_five_violations>  (755) 
3

>  <aromatic_rings_count>  (755) 
1

>  <qed_drug_likeliness>  (755) 
0.09

>  <formal_charge>  (755) 
0

>  <fractioncsp3>  (755) 
0.65

>  <number_of_minimal_rings>  (755) 
4

>  <van_der_walls_volume>  (755) 
523.32

>  <contains_sugar>  (755) 
True

>  <contains_ring_sugars>  (755) 
True

>  <contains_linear_sugars>  (755) 
False

>  <murcko_framework>  (755) 
O1CCCC(OC2CCCOC2OCC=Cc3cccc(OC4OCCCC4)c3)C1

>  <np_likeness>  (755) 
1.97

>  <chemical_class>  (755) 
Cinnamic acids and derivatives

>  <chemical_sub_class>  (755) 
Hydroxycinnamic acids and derivatives

>  <chemical_super_class>  (755) 
Phenylpropanoids and polyketides

>  <direct_parent_classification>  (755) 
Hydroxycinnamic acids

>  <np_classifier_pathway>  (755) 
nan

>  <np_classifier_superclass>  (755) 
nan

>  <np_classifier_class>  (755) 
nan

>  <np_classifier_is_glycoside>  (755) 
True

>  <organisms>  (755) 
Coussarea hydrangeifolia

>  <collections>  (755) 
ChemSpider NPs|Latin America dataset|NuBBEDB|Super Natural II|WikiData Natural Products

>  <dois>  (755) 
10.1016/J.PHYTOCHEM.2005.06.019|10.1016/j.phytochem.2005.06.019

>  <synonyms>  (755) 
nan

>  <cas>  (755) 
nan

$$$$

     RDKit          2D

 25 25  0  0  0  0  0  0  0  0999 V2000
   -8.3223    0.6262    0.0000 C   0  0  0  0  0  0  0  0  0  0  0  0
   -6.8318    0.4579    0.0000 C   0  0  0  0  0  0  0  0  0  0  0  0
   -5.9407    1.6645    0.0000 C   0  0  0  0  0  0  0  0  0  0  0  0
   -6.2323   -0.9171    0.0000 C   0  0  0  0  0  0  0  0  0  0  0  0
   -4.7418   -1.0855    0.0000 C   0  0  0  0  0  0  0  0  0  0  0  0
   -4.1423   -2.4605    0.0000 C   0  0  0  0  0  0  0  0  0  0  0  0
   -2.6518   -2.6288    0.0000 C   0  0  0  0  0  0  0  0  0  0  0  0
   -2.0523   -4.0038    0.0000 C   0  0  0  0  0  0  0  0  0  0  0  0
   -1.7607   -1.4222    0.0000 C   0  0  0  0  0  0  0  0  0  0  0  0
   -0.2702   -1.5905    0.0000 C   0  0  0  0  0  0  0  0  0  0  0  0
    0.6208   -0.3839    0.0000 C   0  0  0  0  0  0  0  0  0  0  0  0
    0.0214    0.9911    0.0000 C   0  0  0  0  0  0  0  0  0  0  0  0
    0.9124    2.1978    0.0000 C   0  0  0  0  0  0  0  0  0  0  0  0
    0.3130    3.5728    0.0000 C   0  0  0  0  0  0  0  0  0  0  0  0
   -1.1776    3.7411    0.0000 O   0  0  0  0  0  0  0  0  0  0  0  0
    1.2040    4.7794    0.0000 O   0  0  0  0  0  0  0  0  0  0  0  0
    2.4030    2.0294    0.0000 C   0  0  0  0  0  0  0  0  0  0  0  0
    3.0024    0.6544    0.0000 C   0  0  0  0  0  0  0  0  0  0  0  0
    4.4929    0.4861    0.0000 C   0  0  0  0  0  0  0  0  0  0  0  0
    5.0924   -0.8889    0.0000 C   0  0  0  0  0  0  0  0  0  0  0  0
    6.5829   -1.0573    0.0000 C   0  0  0  0  0  0  0  0  0  0  0  0
    7.1824   -2.4323    0.0000 C   0  0  0  0  0  0  0  0  0  0  0  0
    7.4740    0.1494    0.0000 C   0  0  0  0  0  0  0  0  0  0  0  0
    2.1114   -0.5522    0.0000 C   0  0  0  0  0  0  0  0  0  0  0  0
    2.7108   -1.9272    0.0000 O   0  0  0  0  0  0  0  0  0  0  0  0
  1  2  1  0
  2  3  1  0
  2  4  2  0
  4  5  1  0
  5  6  1  0
  6  7  1  0
  7  8  1  0
  7  9  2  0
  9 10  1  0
 10 11  1  0
 11 12  2  0
 12 13  1  0
 13 14  1  0
 14 15  2  0
 14 16  1  0
 13 17  2  0
 17 18  1  0
 18 19  1  0
 19 20  1  0
 20 21  2  0
 21 22  1  0
 21 23  1  0
 18 24  2  0
 24 25  1  0
 24 11  1  0
M  END
>  <identifier>  (756) 
CNP0162329.1

>  <canonical_smiles>  (756) 
CC(C)=CCC/C(C)=C/CC1=CC(C(=O)O)=CC(CC=C(C)C)=C1O

>  <standard_inchi>  (756) 
InChI=1S/C22H30O3/c1-15(2)7-6-8-17(5)10-12-19-14-20(22(24)25)13-18(21(19)23)11-9-16(3)4/h7,9-10,13-14,23H,6,8,11-12H2,1-5H3,(H,24,25)/b17-10+

>  <standard_inchi_key>  (756) 
SUXGLLRPXXXJER-LICLKQGHSA-N

>  <name>  (756) 
nan

>  <iupac_name>  (756) 
nan

>  <annotation_level>  (756) 
0

>  <total_atom_count>  (756) 
55

>  <heavy_atom_count>  (756) 
25

>  <molecular_weight>  (756) 
342.48

>  <exact_molecular_weight>  (756) 
342.21949

>  <molecular_formula>  (756) 
C22H30O3

>  <alogp>  (756) 
5.83

>  <topological_polar_surface_area>  (756) 
57.53

>  <rotatable_bond_count>  (756) 
8

>  <hydrogen_bond_acceptors>  (756) 
2

>  <hydrogen_bond_donors>  (756) 
2

>  <hydrogen_bond_acceptors_lipinski>  (756) 
2

>  <hydrogen_bond_donors_lipinski>  (756) 
2

>  <lipinski_rule_of_five_violations>  (756) 
1

>  <aromatic_rings_count>  (756) 
1

>  <qed_drug_likeliness>  (756) 
0.58

>  <formal_charge>  (756) 
0

>  <fractioncsp3>  (756) 
0.41

>  <number_of_minimal_rings>  (756) 
1

>  <van_der_walls_volume>  (756) 
350.78

>  <contains_sugar>  (756) 
False

>  <contains_ring_sugars>  (756) 
False

>  <contains_linear_sugars>  (756) 
False

>  <murcko_framework>  (756) 
c1ccccc1

>  <np_likeness>  (756) 
1.66

>  <chemical_class>  (756) 
nan

>  <chemical_sub_class>  (756) 
nan

>  <chemical_super_class>  (756) 
nan

>  <direct_parent_classification>  (756) 
nan

>  <np_classifier_pathway>  (756) 
Terpenoids

>  <np_classifier_superclass>  (756) 
Diterpenoids

>  <np_classifier_class>  (756) 
Myrsinane diterpenoids

>  <np_classifier_is_glycoside>  (756) 
False

>  <organisms>  (756) 
Myrsine seguinii|Myrsine wawraea|Rapanea umbellata

>  <collections>  (756) 
AnalytiCon Discovery NPs|ChEBI NPs|Latin America dataset|NPASS|NuBBEDB|Super Natural II|WikiData Natural Products|ZINC NP

>  <dois>  (756) 
10.1016/0031-9422(92)80271-F|10.1271/BBB.66.655|10.1590/S0100-40422012000700020

>  <synonyms>  (756) 
nan

>  <cas>  (756) 
nan

$$$$

     RDKit          2D

 25 27  0  0  0  0  0  0  0  0999 V2000
   -3.9229    3.4301    0.0000 C   0  0  0  0  0  0  0  0  0  0  0  0
   -4.3443    1.9905    0.0000 O   0  0  0  0  0  0  0  0  0  0  0  0
   -3.3082    0.9058    0.0000 C   0  0  0  0  0  0  0  0  0  0  0  0
   -3.7296   -0.5338    0.0000 C   0  0  0  0  0  0  0  0  0  0  0  0
   -5.1870   -0.8886    0.0000 O   0  0  0  0  0  0  0  0  0  0  0  0
   -6.2231    0.1961    0.0000 C   0  0  0  0  0  0  0  0  0  0  0  0
   -2.6936   -1.6185    0.0000 C   0  0  0  0  0  0  0  0  0  0  0  0
   -3.1149   -3.0581    0.0000 O   0  0  0  0  0  0  0  0  0  0  0  0
   -1.2361   -1.2636    0.0000 C   0  0  0  0  0  0  0  0  0  0  0  0
   -0.2001   -2.3484    0.0000 C   0  0  0  0  0  0  0  0  0  0  0  0
   -0.6215   -3.7879    0.0000 O   0  0  0  0  0  0  0  0  0  0  0  0
    1.2573   -1.9935    0.0000 C   0  0  0  0  0  0  0  0  0  0  0  0
    1.6787   -0.5539    0.0000 C   0  0  0  0  0  0  0  0  0  0  0  0
    3.1361   -0.1990    0.0000 C   0  0  0  0  0  0  0  0  0  0  0  0
    4.1721   -1.2837    0.0000 C   0  0  0  0  0  0  0  0  0  0  0  0
    5.6296   -0.9289    0.0000 C   0  0  0  0  0  0  0  0  0  0  0  0
    6.0509    0.5107    0.0000 C   0  0  0  0  0  0  0  0  0  0  0  0
    7.5084    0.8656    0.0000 O   0  0  0  0  0  0  0  0  0  0  0  0
    5.0149    1.5955    0.0000 C   0  0  0  0  0  0  0  0  0  0  0  0
    3.5575    1.2406    0.0000 C   0  0  0  0  0  0  0  0  0  0  0  0
    0.6427    0.5308    0.0000 O   0  0  0  0  0  0  0  0  0  0  0  0
   -0.8148    0.1760    0.0000 C   0  0  0  0  0  0  0  0  0  0  0  0
   -1.8508    1.2607    0.0000 C   0  0  0  0  0  0  0  0  0  0  0  0
   -1.4294    2.7003    0.0000 O   0  0  0  0  0  0  0  0  0  0  0  0
    0.0280    3.0552    0.0000 C   0  0  0  0  0  0  0  0  0  0  0  0
  1  2  1  0
  2  3  1  0
  3  4  2  0
  4  5  1  0
  5  6  1  0
  4  7  1  0
  7  8  1  0
  7  9  2  0
  9 10  1  0
 10 11  2  0
 10 12  1  0
 12 13  2  0
 13 14  1  0
 14 15  2  0
 15 16  1  0
 16 17  2  0
 17 18  1  0
 17 19  1  0
 19 20  2  0
 13 21  1  0
 21 22  1  0
 22 23  2  0
 23 24  1  0
 24 25  1  0
 23  3  1  0
 22  9  1  0
 20 14  1  0
M  END
>  <identifier>  (757) 
CNP0149550.0

>  <canonical_smiles>  (757) 
COC1=C(OC)C(O)=C2C(=O)C=C(C3=CC=C(O)C=C3)OC2=C1OC

>  <standard_inchi>  (757) 
InChI=1S/C18H16O7/c1-22-16-14(21)13-11(20)8-12(9-4-6-10(19)7-5-9)25-15(13)17(23-2)18(16)24-3/h4-8,19,21H,1-3H3

>  <standard_inchi_key>  (757) 
SAMBWAJRKKEEOR-UHFFFAOYSA-N

>  <name>  (757) 
Xanthomicrol

>  <iupac_name>  (757) 
5-hydroxy-2-(4-hydroxyphenyl)-6,7,8-trimethoxy-chromen-4-one

>  <annotation_level>  (757) 
5

>  <total_atom_count>  (757) 
41

>  <heavy_atom_count>  (757) 
25

>  <molecular_weight>  (757) 
344.32

>  <exact_molecular_weight>  (757) 
344.0896

>  <molecular_formula>  (757) 
C18H16O7

>  <alogp>  (757) 
2.90

>  <topological_polar_surface_area>  (757) 
98.36

>  <rotatable_bond_count>  (757) 
4

>  <hydrogen_bond_acceptors>  (757) 
7

>  <hydrogen_bond_donors>  (757) 
2

>  <hydrogen_bond_acceptors_lipinski>  (757) 
7

>  <hydrogen_bond_donors_lipinski>  (757) 
2

>  <lipinski_rule_of_five_violations>  (757) 
0

>  <aromatic_rings_count>  (757) 
3

>  <qed_drug_likeliness>  (757) 
0.75

>  <formal_charge>  (757) 
0

>  <fractioncsp3>  (757) 
0.17

>  <number_of_minimal_rings>  (757) 
3

>  <van_der_walls_volume>  (757) 
290.83

>  <contains_sugar>  (757) 
False

>  <contains_ring_sugars>  (757) 
False

>  <contains_linear_sugars>  (757) 
False

>  <murcko_framework>  (757) 
O1c2ccccc2CC=C1c3ccccc3

>  <np_likeness>  (757) 
1.35

>  <chemical_class>  (757) 
Flavonoids

>  <chemical_sub_class>  (757) 
O-methylated flavonoids

>  <chemical_super_class>  (757) 
Phenylpropanoids and polyketides

>  <direct_parent_classification>  (757) 
6-O-methylated flavonoids

>  <np_classifier_pathway>  (757) 
Shikimates and Phenylpropanoids

>  <np_classifier_superclass>  (757) 
Flavonoids

>  <np_classifier_class>  (757) 
Flavones

>  <np_classifier_is_glycoside>  (757) 
False

>  <organisms>  (757) 
Acer triflorum|Allium nutans|Ambrosia deltoidea|Argyroxiphium sandwicense|Baccharis patens|Baccharis quitensis|Baccharis spp|Baccharis spp.|Baccharis tucumanensis|Bellardia trixago|Bombax ceiba|Bombax malabaricum|Bracteantha viscosa|Brickellia paniculata|Canis lupus familiaris|Cheilanthes argentea|Chiliadenus iphionoides|Citrus japonica|Citrus medica|Citrus reticulata|Citrus sudachi|Citrus sudachii|Citrus × deliciosa|Cunila angustifolia|Cunila incana|Dalea purpurea|Dracocephalum kotschyi|Dracocephalum multicaule|Drimia sanguinea|Ficus lyrata|Helichrysum|Helichrysum spp.|Hymenoxys scaposa|Kumquat|Lavandula mairei var. mairei|Lavandula pubescens|Mentha Piperita|Mentha X piperita|Mentha arvensis|Mentha canadensis|Mentha piperita|Micromeria douglasii|Mosla chinensis|Nepeta spp.|Nothofagus cunninghamii|Ocimum Gratissimum|Ocimum americanum|Ocimum americanum L.var.americanum|Ocimum basilicum|Ocimum gratissimum|Olearia heterocarpa|Ononis natrix|Petalostemon gattingeri|Phthorimaea operculella|Phytolacca americana|Prunus cerasoides|Rathayibacter rathayi|Salvia tiliaefolia|Satureja cuneifolia|Satureja douglasii|Satureja montana|Scutellaria drummondii|Sideritis algarviensis|Sideritis angustifolia|Sideritis arborescens|Sideritis briquetiana|Sideritis dasygnaphala|Sideritis hirsuta|Sideritis jahandiezii|Sideritis leucantha|Sideritis maura|Sideritis ochroleuca|Sideritis spp|Sideritis spp.|Solanum sodomeum|Sophora flavescens|Stachys aegyptiaca|Stachys candida|Stachys chrysantha|Stachys glutinosa|Stachys mucronata|Stachys schtschegleevii|Thymus herba-barona|Thymus saturejoides|Thymus spp|Thymus spp.|Thymus vulgaris|Trichoderma vinosum|Ustilago sphaerogena|Varthemia iphionoides|Wilkesia gymnoxiphium|Wilkesia hobdyi|Zaluzianskya capensis|basil

>  <collections>  (757) 
ANPDB|AnalytiCon Discovery NPs|Australian natural products|CMAUP (cCollective molecular activities of useful plants)|ChEBI NPs|ETM (Ethiopian Traditional Medicine) DB|FooDB|KNApSaCK|Latin America dataset|NANPDB (Natural Products from Northern African Sources)|NPASS|NPCARE|NPEdia|NuBBEDB|Phyto4Health|Super Natural II|TCMDB-Taiwan (Traditional Chinese Medicine database)|TCMID (Traditional Chinese Medicine Integrated Database)|TIPdb (database of Taiwan indigenous plants)|UNPD (Universal Natural Products Database)|VietHerb|WikiData Natural Products

>  <dois>  (757) 
10.1002/1099-1565(200007/08)11:4<257::AID-PCA521>3.0.CO;2-A|10.1002/PTR.2650050407|10.1007/BF00630447|10.1016/0031-9422(81)84033-2|10.1016/0031-9422(81)85121-7|10.1016/0031-9422(82)85268-0|10.1016/0031-9422(84)83060-5|10.1016/0031-9422(88)80607-1|10.1016/0031-9422(90)85423-D|10.1016/0031-9422(92)83268-4|10.1016/0031-9422(93)85293-Z|10.1016/0031-9422(94)00531-W|10.1016/0031-9422(95)00217-U|10.1016/0305-1978(90)90068-Q|10.1016/0305-1978(91)90088-H|10.1016/0305-1978(94)90119-8|10.1016/J.BSE.2006.05.004|10.1016/J.FITOTE.2004.04.014|10.1016/J.FOODCHEM.2013.03.019|10.1016/J.JPBA.2019.03.056|10.1016/J.PHYTOCHEM.2005.04.035|10.1016/S0031-9422(00)00439-8|10.1016/S0031-9422(00)81116-4|10.1016/S0031-9422(00)95197-5|10.1016/S0031-9422(00)97932-9|10.1016/S0031-9422(02)00666-0|10.1016/S0305-1978(00)00013-2|10.1016/S0305-1978(00)00062-4|10.1016/S0305-1978(99)00021-6|10.1016/j.phytochem.2005.04.035|10.1021/JA01944A012|10.1021/JO00298A026|10.1021/NP060217S|10.1021/NP50041A041|10.1021/NP50119A018|10.1021/np50041a041|10.1021/np500671v|10.1055/S-2002-32092|10.1055/S-2006-962399|10.1055/S-2007-969583|10.1071/CH9712621|10.1071/ch9712621|10.1080/00021369.1989.10869758|10.1080/10286020310001608958|10.1080/14786419.2010.518146|10.1248/BPB.23.47|10.1248/BPB.29.1501|10.1515/ZNC-1985-11-1228|10.1515/ZNC-1986-1-214|10.1515/ZNC-1992-1-203|10.3109/13880208709055202|10.3109/13880209009082777

>  <synonyms>  (757) 
16545-23-6|3IN82Y8CAA|4',5-dihydroxy-6,7,8-trimethoxyflavone|4H-1-Benzopyran-4-one, 5-hydroxy-2-(4-hydroxyphenyl)-6,7,8-trimethoxy-|5,4'-DIHYDROXY-6,7,8-TRIMETHOXYFLAVONE|5-Hydroxy-2-(4-hydroxyphenyl)-6,7,8-trimethoxy-4H-1-benzopyran-4-one|5-hydroxy-2-(4-hydroxyphenyl)-6,7,8-trimethoxychromen-4-one|ACon1_000922|AKOS030525194|BDBM50412279|BRD-K34022850-001-01-8|CHEBI:35047|CHEMBL476121|DS-005366|DTXSID20167947|FLAVONE, 4',5-DIHYDROXY-6,7,8-TRIMETHOXY-|LMPK12111447|NCGC00169227-01|NSC 79323|NSC-79323|Q27116387|SCHEMBL6257160|UNII-3IN82Y8CAA|Xanthomicrol|xanthomicrol, 54'-dihydroxy-678-trimethoxyflavone

>  <cas>  (757) 
16545-23-6

$$$$

     RDKit          2D

 16 17  0  0  0  0  0  0  0  0999 V2000
   -6.1204   -0.4774    0.0000 C   0  0  0  0  0  0  0  0  0  0  0  0
   -5.7747    0.9823    0.0000 C   0  0  0  0  0  0  0  0  0  0  0  0
   -4.3378    1.4127    0.0000 C   0  0  0  0  0  0  0  0  0  0  0  0
   -3.2466    0.3835    0.0000 C   0  0  0  0  0  0  0  0  0  0  0  0
   -1.8097    0.8140    0.0000 C   0  0  0  0  0  0  0  0  0  0  0  0
   -0.7185   -0.2152    0.0000 S   0  0  0  0  0  0  0  0  0  0  0  0
    0.7185    0.2152    0.0000 S   0  0  0  0  0  0  0  0  0  0  0  0
    1.8097   -0.8140    0.0000 C   0  0  0  0  0  0  0  0  0  0  0  0
    3.2466   -0.3835    0.0000 C   0  0  0  0  0  0  0  0  0  0  0  0
    4.3378   -1.4127    0.0000 C   0  0  0  0  0  0  0  0  0  0  0  0
    5.7747   -0.9823    0.0000 C   0  0  0  0  0  0  0  0  0  0  0  0
    6.1204    0.4774    0.0000 C   0  0  0  0  0  0  0  0  0  0  0  0
    5.0292    1.5065    0.0000 C   0  0  0  0  0  0  0  0  0  0  0  0
    3.5923    1.0761    0.0000 C   0  0  0  0  0  0  0  0  0  0  0  0
   -3.5923   -1.0761    0.0000 C   0  0  0  0  0  0  0  0  0  0  0  0
   -5.0292   -1.5065    0.0000 C   0  0  0  0  0  0  0  0  0  0  0  0
  1  2  2  0
  2  3  1  0
  3  4  2  0
  4  5  1  0
  5  6  1  0
  6  7  1  0
  7  8  1  0
  8  9  1  0
  9 10  2  0
 10 11  1  0
 11 12  2  0
 12 13  1  0
 13 14  2  0
  4 15  1  0
 15 16  2  0
 16  1  1  0
 14  9  1  0
M  END
>  <identifier>  (758) 
CNP0296208.0

>  <canonical_smiles>  (758) 
C1=CC=C(CSSCC2=CC=CC=C2)C=C1

>  <standard_inchi>  (758) 
InChI=1S/C14H14S2/c1-3-7-13(8-4-1)11-15-16-12-14-9-5-2-6-10-14/h1-10H,11-12H2

>  <standard_inchi_key>  (758) 
GVPWHKZIJBODOX-UHFFFAOYSA-N

>  <name>  (758) 
Dibenzyl disulfide

>  <iupac_name>  (758) 
(benzyldisulfanyl)methylbenzene

>  <annotation_level>  (758) 
5

>  <total_atom_count>  (758) 
30

>  <heavy_atom_count>  (758) 
16

>  <molecular_weight>  (758) 
246.4

>  <exact_molecular_weight>  (758) 
246.05369

>  <molecular_formula>  (758) 
C14H14S2

>  <alogp>  (758) 
4.77

>  <topological_polar_surface_area>  (758) 
0.00

>  <rotatable_bond_count>  (758) 
5

>  <hydrogen_bond_acceptors>  (758) 
2

>  <hydrogen_bond_donors>  (758) 
0

>  <hydrogen_bond_acceptors_lipinski>  (758) 
2

>  <hydrogen_bond_donors_lipinski>  (758) 
0

>  <lipinski_rule_of_five_violations>  (758) 
0

>  <aromatic_rings_count>  (758) 
2

>  <qed_drug_likeliness>  (758) 
0.55

>  <formal_charge>  (758) 
0

>  <fractioncsp3>  (758) 
0.14

>  <number_of_minimal_rings>  (758) 
2

>  <van_der_walls_volume>  (758) 
224.74

>  <contains_sugar>  (758) 
False

>  <contains_ring_sugars>  (758) 
False

>  <contains_linear_sugars>  (758) 
False

>  <murcko_framework>  (758) 
S(SCc1ccccc1)Cc2ccccc2

>  <np_likeness>  (758) 
-0.15

>  <chemical_class>  (758) 
Benzene and substituted derivatives

>  <chemical_sub_class>  (758) 
Benzene and substituted derivatives

>  <chemical_super_class>  (758) 
Benzenoids

>  <direct_parent_classification>  (758) 
Benzene and substituted derivatives

>  <np_classifier_pathway>  (758) 
Shikimates and Phenylpropanoids

>  <np_classifier_superclass>  (758) 
Flavonoids

>  <np_classifier_class>  (758) 
Flavanones

>  <np_classifier_is_glycoside>  (758) 
False

>  <organisms>  (758) 
Coronopus didymus|Petiveria alliacea

>  <collections>  (758) 
Australian natural products|ChemSpider NPs|FooDB|KNApSaCK|Latin America dataset|Marine Natural Products|NPASS|NuBBEDB|Super Natural II|TCMDB-Taiwan (Traditional Chinese Medicine database)|TCMID (Traditional Chinese Medicine Integrated Database)|UNPD (Universal Natural Products Database)|WikiData Natural Products

>  <dois>  (758) 
10.1016/S0031-9422(01)00079-6|10.1016/S0031-9422(01)00304-1|10.14233/ajchem.2016.19563

>  <synonyms>  (758) 
(benzyldisulfanyl)methylbenzene|1,1'-(disulfanediyldimethanediyl)dibenzene|1,1'-[dithiobis(methylene)]dibenzene|1,2-dibenzyldisulfane|1,3-dithiabutane|1,4-Diphenyl-2,3-dithiabutane|150-60-7|4,4'-Biphenyldiglyoxal disodium bisulfite|A809057|AKOS005177808|B0417|BDS|BENZYL DISULFIDE [FHFI]|BENZYL DISULFIDE [USP-RS]|BG7680605N|Benzyl disulfide|Benzyl disulfide, 8CI|Benzyl disulfide, 98%, FG|Benzyl disulfide, United States Pharmacopeia (USP) Reference Standard|Bis(phenylmethyl) disulfide, 9CI|CCRIS 6924|CHEBI:72752|CHEMBL121047|CS-W010232|D77707|DAILUBE S 700|DB-003625|DIBENZYL DISULFIDE [MI]|DISULFIDE, DIBENZYL|DTXSID6059738|Di(phenylmethyl)disulfide|Dibenzyl disulfide 2 microg\/mL in Transformer Oil|Dibenzyl disulfide, 98%|Dibenzyl disulfide, analytical standard|Dibenzyl disulphide|Dibenzyldisulfid|Dibenzyldisulfid [Czech]|Disulfide, bis(phenylmethyl)|EINECS 205-764-0|EN300-16500|FEMA 3617|FEMA No. 3617|HY-W009516|InChI=1\/C14H14S2\/c1-3-7-13(8-4-1)11-15-16-12-14-9-5-2-6-10-14\/h1-10H,11-12H|J-008720|MFCD00004783|NS00020151|NSC 677465|NSC 6841|NSC-6841|Q27140119|SCHEMBL160895|STK831913|UNII-BG7680605N|WLN: R1SS1R|Z55949860|alpha-(Benzyldithio)toluene|dibenzyl-disulfide|ghl.PD_Mitscher_leg0.312

>  <cas>  (758) 
150-60-7

$$$$

     RDKit          2D

 69 79  0  0  0  0  0  0  0  0999 V2000
  -16.0729   -0.6649    0.0000 C   0  0  0  0  0  0  0  0  0  0  0  0
  -14.6096   -0.3352    0.0000 O   0  0  0  0  0  0  0  0  0  0  0  0
  -13.5924   -1.4376    0.0000 C   0  0  0  0  0  0  0  0  0  0  0  0
  -14.0386   -2.8698    0.0000 O   0  0  0  0  0  0  0  0  0  0  0  0
  -12.1291   -1.1080    0.0000 C   0  0  0  0  0  0  0  0  0  0  0  0
  -12.0586   -2.6063    0.0000 C   0  0  0  0  0  0  0  0  0  0  0  0
  -12.7079    0.2759    0.0000 C   0  0  0  0  0  0  0  0  0  0  0  0
  -11.7988    1.4690    0.0000 C   0  0  0  0  0  0  0  0  0  0  0  0
  -10.3110    1.2783    0.0000 C   0  0  0  0  0  0  0  0  0  0  0  0
  -10.8898    2.6622    0.0000 C   0  0  0  0  0  0  0  0  0  0  0  0
   -9.4019    2.4715    0.0000 C   0  0  0  0  0  0  0  0  0  0  0  0
   -7.9141    2.2808    0.0000 C   0  0  0  0  0  0  0  0  0  0  0  0
   -7.3353    0.8970    0.0000 C   0  0  0  0  0  0  0  0  0  0  0  0
   -6.4263    2.0901    0.0000 C   0  0  0  0  0  0  0  0  0  0  0  0
   -5.8475    0.7063    0.0000 C   0  0  0  0  0  0  0  0  0  0  0  0
   -4.9385    1.8994    0.0000 C   0  0  0  0  0  0  0  0  0  0  0  0
   -3.4506    1.7087    0.0000 C   0  0  0  0  0  0  0  0  0  0  0  0
   -2.8719    0.3249    0.0000 C   0  0  0  0  0  0  0  0  0  0  0  0
   -3.7809   -0.8683    0.0000 C   0  0  0  0  0  0  0  0  0  0  0  0
   -3.2021   -2.2521    0.0000 C   0  0  0  0  0  0  0  0  0  0  0  0
   -1.7143   -2.4428    0.0000 C   0  0  0  0  0  0  0  0  0  0  0  0
   -1.1355   -3.8266    0.0000 O   0  0  0  0  0  0  0  0  0  0  0  0
   -0.8053   -1.2496    0.0000 C   0  0  0  0  0  0  0  0  0  0  0  0
   -0.2265   -2.6335    0.0000 O   0  0  0  0  0  0  0  0  0  0  0  0
    0.6826   -1.4403    0.0000 O   0  0  0  0  0  0  0  0  0  0  0  0
    1.5916   -0.2472    0.0000 C   0  0  0  0  0  0  0  0  0  0  0  0
    3.0795   -0.4379    0.0000 C   0  0  0  0  0  0  0  0  0  0  0  0
    3.9885    0.7553    0.0000 C   0  0  0  0  0  0  0  0  0  0  0  0
    3.4098    2.1391    0.0000 C   0  0  0  0  0  0  0  0  0  0  0  0
    4.3188    3.3323    0.0000 C   0  0  0  0  0  0  0  0  0  0  0  0
    3.7400    4.7161    0.0000 O   0  0  0  0  0  0  0  0  0  0  0  0
    5.8066    3.1416    0.0000 C   0  0  0  0  0  0  0  0  0  0  0  0
    6.3854    1.7577    0.0000 C   0  0  0  0  0  0  0  0  0  0  0  0
    5.4764    0.5646    0.0000 C   0  0  0  0  0  0  0  0  0  0  0  0
    4.5673   -0.6286    0.0000 C   0  0  0  0  0  0  0  0  0  0  0  0
    6.0551   -0.8193    0.0000 C   0  0  0  0  0  0  0  0  0  0  0  0
    7.5430   -1.0099    0.0000 C   0  0  0  0  0  0  0  0  0  0  0  0
    8.4520    0.1832    0.0000 C   0  0  0  0  0  0  0  0  0  0  0  0
    9.0308   -1.2006    0.0000 C   0  0  0  0  0  0  0  0  0  0  0  0
    9.9398   -0.0075    0.0000 C   0  0  0  0  0  0  0  0  0  0  0  0
   10.5186   -1.3913    0.0000 C   0  0  0  0  0  0  0  0  0  0  0  0
   12.0064   -1.5820    0.0000 C   0  0  0  0  0  0  0  0  0  0  0  0
   13.3393   -2.2701    0.0000 C   0  0  0  0  0  0  0  0  0  0  0  0
   11.5603   -3.0141    0.0000 C   0  0  0  0  0  0  0  0  0  0  0  0
   10.0970   -3.3438    0.0000 O   0  0  0  0  0  0  0  0  0  0  0  0
   12.5775   -4.1166    0.0000 O   0  0  0  0  0  0  0  0  0  0  0  0
   12.1313   -5.5487    0.0000 C   0  0  0  0  0  0  0  0  0  0  0  0
   12.9155   -0.3889    0.0000 C   0  0  0  0  0  0  0  0  0  0  0  0
   12.3367    0.9950    0.0000 C   0  0  0  0  0  0  0  0  0  0  0  0
   10.8489    1.1857    0.0000 C   0  0  0  0  0  0  0  0  0  0  0  0
   11.7580    2.3788    0.0000 C   0  0  0  0  0  0  0  0  0  0  0  0
   10.2701    2.5695    0.0000 C   0  0  0  0  0  0  0  0  0  0  0  0
    8.7823    2.7602    0.0000 C   0  0  0  0  0  0  0  0  0  0  0  0
    7.8732    1.5671    0.0000 C   0  0  0  0  0  0  0  0  0  0  0  0
    7.2945    2.9509    0.0000 C   0  0  0  0  0  0  0  0  0  0  0  0
    1.9219    2.3298    0.0000 C   0  0  0  0  0  0  0  0  0  0  0  0
    1.3432    3.7137    0.0000 C   0  0  0  0  0  0  0  0  0  0  0  0
    1.0129    1.1367    0.0000 C   0  0  0  0  0  0  0  0  0  0  0  0
   -0.4750    1.3274    0.0000 O   0  0  0  0  0  0  0  0  0  0  0  0
   -1.3840    0.1342    0.0000 C   0  0  0  0  0  0  0  0  0  0  0  0
   -1.9628    1.5180    0.0000 C   0  0  0  0  0  0  0  0  0  0  0  0
   -5.2687   -0.6776    0.0000 C   0  0  0  0  0  0  0  0  0  0  0  0
   -4.6900   -2.0614    0.0000 C   0  0  0  0  0  0  0  0  0  0  0  0
   -6.1778   -1.8707    0.0000 C   0  0  0  0  0  0  0  0  0  0  0  0
   -7.6656   -1.6800    0.0000 C   0  0  0  0  0  0  0  0  0  0  0  0
   -8.2444   -0.2962    0.0000 C   0  0  0  0  0  0  0  0  0  0  0  0
   -9.1535   -1.4893    0.0000 C   0  0  0  0  0  0  0  0  0  0  0  0
   -9.7322   -0.1055    0.0000 C   0  0  0  0  0  0  0  0  0  0  0  0
  -10.6413   -1.2987    0.0000 C   0  0  0  0  0  0  0  0  0  0  0  0
  1  2  1  0
  2  3  1  0
  3  4  2  0
  3  5  1  0
  5  6  1  1
  5  7  1  0
  7  8  1  0
  8  9  1  0
  9 10  1  1
  9 11  1  0
 11 12  1  0
 12 13  1  0
 13 14  1  1
 13 15  1  0
 15 16  2  0
 16 17  1  0
 17 18  2  0
 18 19  1  0
 19 20  2  0
 20 21  1  0
 21 22  2  0
 21 23  1  0
 23 24  1  1
 23 25  1  0
 25 26  1  0
 26 27  2  0
 27 28  1  0
 28 29  2  0
 29 30  1  0
 30 31  2  0
 30 32  1  0
 32 33  2  0
 33 34  1  0
 34 35  1  6
 34 36  1  0
 36 37  1  0
 37 38  1  0
 38 39  1  1
 38 40  1  0
 40 41  1  1
 41 42  1  0
 42 43  1  6
 42 44  1  0
 44 45  2  0
 44 46  1  0
 46 47  1  0
 42 48  1  0
 48 49  1  0
 49 50  1  0
 50 51  1  6
 50 52  1  0
 52 53  1  0
 53 54  1  0
 54 55  1  6
 29 56  1  0
 56 57  1  0
 56 58  2  0
 58 59  1  0
 59 60  1  0
 60 61  1  1
 19 62  1  0
 62 63  1  1
 62 64  1  0
 64 65  1  0
 65 66  1  0
 66 67  1  6
 66 68  1  0
 68 69  1  6
 69  5  1  0
 68  9  1  0
 66 13  1  0
 62 15  1  0
 60 18  1  0
 60 23  1  0
 58 26  1  0
 34 28  1  0
 54 38  1  0
 54 33  1  0
 50 40  1  0
M  END
>  <identifier>  (759) 
CNP0407805.2

>  <canonical_smiles>  (759) 
COC(=O)[C@]1(C)CC[C@]2(C)CC[C@]3(C)C4=CC=C5C(=CC(=O)[C@@]6(O)OC7=CC8=C(C(=O)C=C9[C@@]8(C)CC[C@@]8(C)[C@@H]%10C[C@](C)(C(=O)OC)CC[C@]%10(C)CC[C@]98C)C(C)=C7O[C@@]56C)[C@]4(C)CC[C@@]3(C)[C@@H]2C1

>  <standard_inchi>  (759) 
InChI=1S/C60H78O9/c1-34-45-37(54(7)24-28-58(11)43-33-52(5,48(64)67-14)20-18-50(43,3)22-26-56(58,9)41(54)31-38(45)61)29-39-46(34)69-59(12)35-15-16-40-53(6,36(35)30-44(62)60(59,65)68-39)23-27-57(10)42-32-51(4,47(63)66-13)19-17-49(42,2)21-25-55(40,57)8/h15-16,29-31,42-43,65H,17-28,32-33H2,1-14H3/t42-,43-,49-,50-,51-,52-,53+,54+,55-,56-,57+,58+,59+,60-/m1/s1

>  <standard_inchi_key>  (759) 
ZSUIKYWXQBBQHV-XPFLZTEOSA-N

>  <name>  (759) 
nan

>  <iupac_name>  (759) 
dimethyl (3~{S},8~{S},11~{S},14~{R},16~{R},17~{S},20~{R},24~{S},29~{R},32~{S},33~{R},35~{R},38~{S},41~{S})-24-hydroxy-3,8,11,14,17,20,29,32,35,38,41,46-dodecamethyl-23,44-dioxo-2,25-dioxaundecacyclo[24.20.0.0^{3,24}.0^{4,21}.0^{7,20}.0^{8,17}.0^{11,16}.0^{28,45}.0^{29,42}.0^{32,41}.0^{33,38}]hexatetraconta-1(46),4,6,21,26,28(45),42-heptaene-14,35-dicarboxylate

>  <annotation_level>  (759) 
4

>  <total_atom_count>  (759) 
147

>  <heavy_atom_count>  (759) 
69

>  <molecular_weight>  (759) 
943.27

>  <exact_molecular_weight>  (759) 
942.56458

>  <molecular_formula>  (759) 
C60H78O9

>  <alogp>  (759) 
12.15

>  <topological_polar_surface_area>  (759) 
125.43

>  <rotatable_bond_count>  (759) 
2

>  <hydrogen_bond_acceptors>  (759) 
9

>  <hydrogen_bond_donors>  (759) 
1

>  <hydrogen_bond_acceptors_lipinski>  (759) 
9

>  <hydrogen_bond_donors_lipinski>  (759) 
1

>  <lipinski_rule_of_five_violations>  (759) 
2

>  <aromatic_rings_count>  (759) 
1

>  <qed_drug_likeliness>  (759) 
0.29

>  <formal_charge>  (759) 
0

>  <fractioncsp3>  (759) 
0.70

>  <number_of_minimal_rings>  (759) 
11

>  <van_der_walls_volume>  (759) 
881.38

>  <contains_sugar>  (759) 
False

>  <contains_ring_sugars>  (759) 
False

>  <contains_linear_sugars>  (759) 
False

>  <murcko_framework>  (759) 
O1c2cc3c(cc2OC4CC=C5C(=CC=C6C5CCC7C6CCC8CCCCC87)C14)C9C(=CC3)C%10CCC%11CCCCC%11C%10CC9

>  <np_likeness>  (759) 
1.89

>  <chemical_class>  (759) 
Prenol lipids

>  <chemical_sub_class>  (759) 
Triterpenoids

>  <chemical_super_class>  (759) 
Lipids and lipid-like molecules

>  <direct_parent_classification>  (759) 
Triterpenoids

>  <np_classifier_pathway>  (759) 
Terpenoids

>  <np_classifier_superclass>  (759) 
Triterpenoids

>  <np_classifier_class>  (759) 
Friedelane triterpenoids

>  <np_classifier_is_glycoside>  (759) 
False

>  <organisms>  (759) 
nan

>  <collections>  (759) 
ChemSpider NPs|Latin America dataset|NuBBEDB

>  <dois>  (759) 
10.1016/j.bmc.2007.11.008

>  <synonyms>  (759) 
Xuxuarine E\u221a\u00e9\u00ac\u00b1

>  <cas>  (759) 
nan

$$$$

     RDKit          2D

 32 35  0  0  0  0  0  0  0  0999 V2000
    1.7019    3.4650    0.0000 C   0  0  0  0  0  0  0  0  0  0  0  0
    0.5969    2.4507    0.0000 O   0  0  0  0  0  0  0  0  0  0  0  0
    0.9228    0.9865    0.0000 C   0  0  0  0  0  0  0  0  0  0  0  0
    2.3537    0.5367    0.0000 C   0  0  0  0  0  0  0  0  0  0  0  0
    3.4588    1.5510    0.0000 C   0  0  0  0  0  0  0  0  0  0  0  0
    3.1329    3.0152    0.0000 C   0  0  0  0  0  0  0  0  0  0  0  0
    4.2379    4.0295    0.0000 C   0  0  0  0  0  0  0  0  0  0  0  0
    3.9120    5.4936    0.0000 C   0  0  0  0  0  0  0  0  0  0  0  0
    5.6689    3.5796    0.0000 C   0  0  0  0  0  0  0  0  0  0  0  0
    2.6796   -0.9275    0.0000 C   0  0  0  0  0  0  0  0  0  0  0  0
    1.5746   -1.9418    0.0000 C   0  0  0  0  0  0  0  0  0  0  0  0
    1.9005   -3.4060    0.0000 C   0  0  0  0  0  0  0  0  0  0  0  0
    3.3314   -3.8558    0.0000 C   0  0  0  0  0  0  0  0  0  0  0  0
    4.4365   -2.8415    0.0000 C   0  0  0  0  0  0  0  0  0  0  0  0
    5.8218   -2.2663    0.0000 C   0  0  0  0  0  0  0  0  0  0  0  0
    5.2435   -4.1059    0.0000 C   0  0  0  0  0  0  0  0  0  0  0  0
    4.1106   -1.3773    0.0000 O   0  0  0  0  0  0  0  0  0  0  0  0
    0.1436   -1.4920    0.0000 C   0  0  0  0  0  0  0  0  0  0  0  0
   -0.1823   -0.0278    0.0000 C   0  0  0  0  0  0  0  0  0  0  0  0
   -1.6133    0.4220    0.0000 C   0  0  0  0  0  0  0  0  0  0  0  0
   -1.9391    1.8862    0.0000 O   0  0  0  0  0  0  0  0  0  0  0  0
   -2.7183   -0.5923    0.0000 C   0  0  0  0  0  0  0  0  0  0  0  0
   -4.1493   -0.1424    0.0000 C   0  0  0  0  0  0  0  0  0  0  0  0
   -4.4752    1.3217    0.0000 C   0  0  0  0  0  0  0  0  0  0  0  0
   -5.9061    1.7716    0.0000 C   0  0  0  0  0  0  0  0  0  0  0  0
   -7.0112    0.7573    0.0000 C   0  0  0  0  0  0  0  0  0  0  0  0
   -8.4421    1.2071    0.0000 O   0  0  0  0  0  0  0  0  0  0  0  0
   -6.6853   -0.7069    0.0000 C   0  0  0  0  0  0  0  0  0  0  0  0
   -5.2543   -1.1567    0.0000 C   0  0  0  0  0  0  0  0  0  0  0  0
   -2.3924   -2.0564    0.0000 C   0  0  0  0  0  0  0  0  0  0  0  0
   -3.4975   -3.0708    0.0000 O   0  0  0  0  0  0  0  0  0  0  0  0
   -0.9615   -2.5063    0.0000 O   0  0  0  0  0  0  0  0  0  0  0  0
  1  2  1  0
  2  3  1  0
  3  4  2  0
  4  5  1  0
  5  6  1  0
  6  7  2  0
  7  8  1  0
  7  9  1  0
  4 10  1  0
 10 11  2  0
 11 12  1  0
 12 13  2  0
 13 14  1  0
 14 15  1  0
 14 16  1  0
 14 17  1  0
 11 18  1  0
 18 19  2  0
 19 20  1  0
 20 21  1  0
 20 22  2  0
 22 23  1  0
 23 24  2  0
 24 25  1  0
 25 26  2  0
 26 27  1  0
 26 28  1  0
 28 29  2  0
 22 30  1  0
 30 31  2  0
 30 32  1  0
 19  3  1  0
 29 23  1  0
 17 10  1  0
 32 18  1  0
M  END
>  <identifier>  (760) 
CNP0211732.0

>  <canonical_smiles>  (760) 
COC1=C(CC=C(C)C)C2=C(C=CC(C)(C)O2)C2=C1C(O)=C(C1=CC=C(O)C=C1)C(=O)O2

>  <standard_inchi>  (760) 
InChI=1S/C26H26O6/c1-14(2)6-11-17-22-18(12-13-26(3,4)32-22)24-20(23(17)30-5)21(28)19(25(29)31-24)15-7-9-16(27)10-8-15/h6-10,12-13,27-28H,11H2,1-5H3

>  <standard_inchi_key>  (760) 
AAKJUGSASOCUFQ-UHFFFAOYSA-N

>  <name>  (760) 
Scandenin

>  <iupac_name>  (760) 
4-hydroxy-3-(4-hydroxyphenyl)-5-methoxy-8,8-dimethyl-6-(3-methylbut-2-enyl)pyrano[2,3-h]chromen-2-one

>  <annotation_level>  (760) 
5

>  <total_atom_count>  (760) 
58

>  <heavy_atom_count>  (760) 
32

>  <molecular_weight>  (760) 
434.49

>  <exact_molecular_weight>  (760) 
434.17294

>  <molecular_formula>  (760) 
C26H26O6

>  <alogp>  (760) 
5.57

>  <topological_polar_surface_area>  (760) 
89.13

>  <rotatable_bond_count>  (760) 
4

>  <hydrogen_bond_acceptors>  (760) 
6

>  <hydrogen_bond_donors>  (760) 
2

>  <hydrogen_bond_acceptors_lipinski>  (760) 
6

>  <hydrogen_bond_donors_lipinski>  (760) 
2

>  <lipinski_rule_of_five_violations>  (760) 
1

>  <aromatic_rings_count>  (760) 
3

>  <qed_drug_likeliness>  (760) 
0.41

>  <formal_charge>  (760) 
0

>  <fractioncsp3>  (760) 
0.27

>  <number_of_minimal_rings>  (760) 
4

>  <van_der_walls_volume>  (760) 
392.14

>  <contains_sugar>  (760) 
False

>  <contains_ring_sugars>  (760) 
False

>  <contains_linear_sugars>  (760) 
False

>  <murcko_framework>  (760) 
O1c2ccc3C=C(c4ccccc4)COc3c2C=CC1

>  <np_likeness>  (760) 
2.30

>  <chemical_class>  (760) 
Isoflavonoids

>  <chemical_sub_class>  (760) 
Pyranoisoflavonoids

>  <chemical_super_class>  (760) 
Phenylpropanoids and polyketides

>  <direct_parent_classification>  (760) 
Pyranoisoflavonoids

>  <np_classifier_pathway>  (760) 
Shikimates and Phenylpropanoids

>  <np_classifier_superclass>  (760) 
Coumarins

>  <np_classifier_class>  (760) 
Pyranocoumarins

>  <np_classifier_is_glycoside>  (760) 
False

>  <organisms>  (760) 
Deguelia hatschbachii|Deguelia scandens|Deguelia spruceana|Derris Scandens|Derris scandens

>  <collections>  (760) 
CMAUP (cCollective molecular activities of useful plants)|KNApSaCK|Latin America dataset|NPASS|NPEdia|NuBBEDB|Super Natural II|TCMID (Traditional Chinese Medicine Integrated Database)|UNPD (Universal Natural Products Database)|VietHerb|WikiData Natural Products|ZINC NP

>  <dois>  (760) 
10.1016/J.BMCL.2009.11.103|10.1016/S0031-9422(00)00509-4|10.1016/S0031-9422(00)81713-6|10.1016/j.bmcl.2009.11.103|10.1021/JO01193A012|10.1021/jf104411h|10.1039/J39660000192|10.1055/S-2004-827147|10.1211/JPP.61.02.0017|10.1211/jpp/61.02.0017|10.1590/S0103-50532003000100022

>  <synonyms>  (760) 
2H,8H-Benzo[1,2-b:3,4-b']dipyran-2-one, 4-hydroxy-3-(4-hydroxyphenyl)-5-methoxy-8,8-dimethyl-6-(3-methyl-2-butenyl)-|4-Hydroxy-3-(4-hydroxyphenyl)-5-methoxy-8,8-dimethyl-6-(3-methyl-2-buten-1-yl)-2H,8H-benzo[1,2-b:3,4-ba(2)]dipyran-2-one|4-Hydroxy-3-(4-hydroxyphenyl)-5-methoxy-8,8-dimethyl-6-(3-methyl-2-butenyl)-2H,8H-pyrano[2,3-f]chromen-2-one #|4-hydroxy-3-(4-hydroxyphenyl)-5-methoxy-8,8-dimethyl-6-(3-methylbut-2-enyl)-2-pyrano[2,3-h][1]benzopyranone|5084-00-4|AAKJUGSASOCUFQ-UHFFFAOYSA-N|BDBM50442909|BRD-K81847782-001-02-1|BSPBio_003003|CCG-38477|CHEBI:93435|CHEMBL1603825|DTXSID901340105|DivK1c_006441|KBio1_001385|KBio2_001226|KBio2_003794|KBio2_006362|KBio3_002223|KBioGR_002017|KBioSS_001226|LMPK12160022|NCGC00095595-01|NCGC00178349-01|Q27165133|SCHEMBL12062082|SDCCGMLS-0066849.P001|SPBio_001872|SPECTRUM300348|Scandenin|SpecPlus_000345|Spectrum2_001906|Spectrum3_001312|Spectrum4_001469|Spectrum5_000117|Spectrum_000746|scandenin

>  <cas>  (760) 
5084-00-4

$$$$

     RDKit          2D

 21 21  0  0  0  0  0  0  0  0999 V2000
  -11.1249    0.0682    0.0000 C   0  0  0  0  0  0  0  0  0  0  0  0
   -9.8176   -0.6674    0.0000 C   0  0  0  0  0  0  0  0  0  0  0  0
   -8.5269    0.0970    0.0000 C   0  0  0  0  0  0  0  0  0  0  0  0
   -7.2196   -0.6385    0.0000 C   0  0  0  0  0  0  0  0  0  0  0  0
   -5.9290    0.1259    0.0000 C   0  0  0  0  0  0  0  0  0  0  0  0
   -4.6217   -0.6097    0.0000 C   0  0  0  0  0  0  0  0  0  0  0  0
   -3.3311    0.1547    0.0000 C   0  0  0  0  0  0  0  0  0  0  0  0
   -2.0238   -0.5808    0.0000 C   0  0  0  0  0  0  0  0  0  0  0  0
   -0.7332    0.1836    0.0000 C   0  0  0  0  0  0  0  0  0  0  0  0
    0.5741   -0.5520    0.0000 C   0  0  0  0  0  0  0  0  0  0  0  0
    1.8647    0.2124    0.0000 C   0  0  0  0  0  0  0  0  0  0  0  0
    3.2417   -0.3824    0.0000 C   0  0  0  0  0  0  0  0  0  0  0  0
    4.2330    0.7434    0.0000 C   0  0  0  0  0  0  0  0  0  0  0  0
    5.7264    0.6031    0.0000 C   0  0  0  0  0  0  0  0  0  0  0  0
    6.3517   -0.7603    0.0000 C   0  0  0  0  0  0  0  0  0  0  0  0
    5.4836   -1.9836    0.0000 O   0  0  0  0  0  0  0  0  0  0  0  0
    7.8451   -0.9005    0.0000 C   0  0  0  0  0  0  0  0  0  0  0  0
    8.4704   -2.2640    0.0000 O   0  0  0  0  0  0  0  0  0  0  0  0
    3.4686    2.0340    0.0000 C   0  0  0  0  0  0  0  0  0  0  0  0
    4.0635    3.4110    0.0000 O   0  0  0  0  0  0  0  0  0  0  0  0
    2.0049    1.7058    0.0000 O   0  0  0  0  0  0  0  0  0  0  0  0
  1  2  2  0
  2  3  1  0
  3  4  1  0
  4  5  1  0
  5  6  1  0
  6  7  1  0
  7  8  1  0
  8  9  1  0
  9 10  1  0
 11 10  1  1
 11 12  1  0
 12 13  1  0
 13 14  1  1
 14 15  1  0
 15 16  1  6
 15 17  1  0
 17 18  1  0
 13 19  1  0
 19 20  2  0
 19 21  1  0
 21 11  1  0
M  END
>  <identifier>  (761) 
CNP0351006.1

>  <canonical_smiles>  (761) 
C=CCCCCCCCC[C@@H]1C[C@H](C[C@@H](O)CO)C(=O)O1

>  <standard_inchi>  (761) 
InChI=1S/C17H30O4/c1-2-3-4-5-6-7-8-9-10-16-12-14(17(20)21-16)11-15(19)13-18/h2,14-16,18-19H,1,3-13H2/t14-,15+,16+/m0/s1

>  <standard_inchi_key>  (761) 
SGQLBAQDXUEXPK-ARFHVFGLSA-N

>  <name>  (761) 
RUBRENOLIDE

>  <iupac_name>  (761) 
(3~{S},5~{R})-5-dec-9-enyl-3-[(2~{R})-2,3-dihydroxypropyl]tetrahydrofuran-2-one

>  <annotation_level>  (761) 
5

>  <total_atom_count>  (761) 
51

>  <heavy_atom_count>  (761) 
21

>  <molecular_weight>  (761) 
298.42

>  <exact_molecular_weight>  (761) 
298.21441

>  <molecular_formula>  (761) 
C17H30O4

>  <alogp>  (761) 
2.97

>  <topological_polar_surface_area>  (761) 
66.76

>  <rotatable_bond_count>  (761) 
12

>  <hydrogen_bond_acceptors>  (761) 
4

>  <hydrogen_bond_donors>  (761) 
2

>  <hydrogen_bond_acceptors_lipinski>  (761) 
4

>  <hydrogen_bond_donors_lipinski>  (761) 
2

>  <lipinski_rule_of_five_violations>  (761) 
0

>  <aromatic_rings_count>  (761) 
0

>  <qed_drug_likeliness>  (761) 
0.33

>  <formal_charge>  (761) 
0

>  <fractioncsp3>  (761) 
0.82

>  <number_of_minimal_rings>  (761) 
1

>  <van_der_walls_volume>  (761) 
nan

>  <contains_sugar>  (761) 
False

>  <contains_ring_sugars>  (761) 
False

>  <contains_linear_sugars>  (761) 
False

>  <murcko_framework>  (761) 
O1CCCC1

>  <np_likeness>  (761) 
2.08

>  <chemical_class>  (761) 
Lactones

>  <chemical_sub_class>  (761) 
Gamma butyrolactones

>  <chemical_super_class>  (761) 
Organoheterocyclic compounds

>  <direct_parent_classification>  (761) 
Gamma butyrolactones

>  <np_classifier_pathway>  (761) 
Polyketides

>  <np_classifier_superclass>  (761) 
Linear polyketides

>  <np_classifier_class>  (761) 
Open-chain polyketides

>  <np_classifier_is_glycoside>  (761) 
False

>  <organisms>  (761) 
Nectandra rubra|Sextonia rubra|tropical trees.

>  <collections>  (761) 
Latin America dataset|NPASS|NuBBEDB|Super Natural II|WikiData Natural Products|ZINC NP

>  <dois>  (761) 
10.1016/S0031-9422(00)86797-7|10.1021/np1001412|10.1039/c39720000514

>  <synonyms>  (761) 
(3S,5R)-5-dec-9-enyl-3-[(2R)-2,3-dihydroxypropyl]oxolan-2-one|CHEMBL1269937|rubrenolide

>  <cas>  (761) 
nan

$$$$

     RDKit          2D

 26 27  0  0  0  0  0  0  0  0999 V2000
   -6.7506   -1.3390    0.0000 C   0  0  0  0  0  0  0  0  0  0  0  0
   -5.3265   -0.8678    0.0000 C   0  0  0  0  0  0  0  0  0  0  0  0
   -5.0225    0.6011    0.0000 O   0  0  0  0  0  0  0  0  0  0  0  0
   -4.2064   -1.8655    0.0000 O   0  0  0  0  0  0  0  0  0  0  0  0
   -2.7823   -1.3943    0.0000 C   0  0  0  0  0  0  0  0  0  0  0  0
   -2.4784    0.0746    0.0000 C   0  0  0  0  0  0  0  0  0  0  0  0
   -1.0543    0.5458    0.0000 C   0  0  0  0  0  0  0  0  0  0  0  0
   -0.7503    2.0147    0.0000 O   0  0  0  0  0  0  0  0  0  0  0  0
   -1.8705    3.0124    0.0000 C   0  0  0  0  0  0  0  0  0  0  0  0
   -1.5665    4.4812    0.0000 C   0  0  0  0  0  0  0  0  0  0  0  0
   -3.2945    2.5411    0.0000 O   0  0  0  0  0  0  0  0  0  0  0  0
    0.0658   -0.4519    0.0000 C   0  0  0  0  0  0  0  0  0  0  0  0
    1.4899    0.0193    0.0000 C   0  0  0  0  0  0  0  0  0  0  0  0
    1.7938    1.4882    0.0000 O   0  0  0  0  0  0  0  0  0  0  0  0
    3.2179    1.9594    0.0000 C   0  0  0  0  0  0  0  0  0  0  0  0
    3.5218    3.4283    0.0000 C   0  0  0  0  0  0  0  0  0  0  0  0
    4.1170    1.3371    0.0000 O   0  0  0  0  0  0  0  0  0  0  0  0
    2.6100   -0.9783    0.0000 C   0  0  0  0  0  0  0  0  0  0  0  0
    4.0341   -0.5071    0.0000 C   0  0  0  0  0  0  0  0  0  0  0  0
    4.3845    0.5287    0.0000 C   0  0  0  0  0  0  0  0  0  0  0  0
    5.1542   -1.5048    0.0000 O   0  0  0  0  0  0  0  0  0  0  0  0
    2.3060   -2.4472    0.0000 C   0  0  0  0  0  0  0  0  0  0  0  0
    3.4261   -3.4449    0.0000 C   0  0  0  0  0  0  0  0  0  0  0  0
    0.8820   -2.9184    0.0000 C   0  0  0  0  0  0  0  0  0  0  0  0
   -0.2381   -1.9207    0.0000 C   0  0  0  0  0  0  0  0  0  0  0  0
   -1.6622   -2.3920    0.0000 C   0  0  0  0  0  0  0  0  0  0  0  0
  1  2  1  0
  2  3  2  0
  2  4  1  0
  4  5  1  0
  5  6  2  0
  6  7  1  0
  7  8  1  0
  8  9  1  0
  9 10  1  0
  9 11  2  0
  7 12  2  0
 12 13  1  0
 13 14  1  0
 14 15  1  0
 15 16  1  0
 15 17  2  0
 13 18  2  0
 18 19  1  0
 19 20  1  0
 19 21  2  0
 18 22  1  0
 22 23  1  0
 22 24  2  0
 24 25  1  0
 25 26  2  0
 26  5  1  0
 25 12  1  0
M  END
>  <identifier>  (762) 
CNP0080486.0

>  <canonical_smiles>  (762) 
CC(=O)OC1=CC(OC(C)=O)=C2C(OC(C)=O)=C(C(C)=O)C(C)=CC2=C1

>  <standard_inchi>  (762) 
InChI=1S/C19H18O7/c1-9-6-14-7-15(24-11(3)21)8-16(25-12(4)22)18(14)19(26-13(5)23)17(9)10(2)20/h6-8H,1-5H3

>  <standard_inchi_key>  (762) 
ROEUVWKBMXMQTB-UHFFFAOYSA-N

>  <name>  (762) 
nan

>  <iupac_name>  (762) 
(4,5-diacetoxy-6-acetyl-7-methyl-2-naphthyl) acetate

>  <annotation_level>  (762) 
4

>  <total_atom_count>  (762) 
44

>  <heavy_atom_count>  (762) 
26

>  <molecular_weight>  (762) 
358.35

>  <exact_molecular_weight>  (762) 
358.10525

>  <molecular_formula>  (762) 
C19H18O7

>  <alogp>  (762) 
3.13

>  <topological_polar_surface_area>  (762) 
95.97

>  <rotatable_bond_count>  (762) 
4

>  <hydrogen_bond_acceptors>  (762) 
7

>  <hydrogen_bond_donors>  (762) 
0

>  <hydrogen_bond_acceptors_lipinski>  (762) 
7

>  <hydrogen_bond_donors_lipinski>  (762) 
0

>  <lipinski_rule_of_five_violations>  (762) 
0

>  <aromatic_rings_count>  (762) 
2

>  <qed_drug_likeliness>  (762) 
0.47

>  <formal_charge>  (762) 
0

>  <fractioncsp3>  (762) 
0.26

>  <number_of_minimal_rings>  (762) 
2

>  <van_der_walls_volume>  (762) 
nan

>  <contains_sugar>  (762) 
False

>  <contains_ring_sugars>  (762) 
False

>  <contains_linear_sugars>  (762) 
False

>  <murcko_framework>  (762) 
c1ccc2ccccc2c1

>  <np_likeness>  (762) 
0.74

>  <chemical_class>  (762) 
Naphthalenes

>  <chemical_sub_class>  (762) 
Naphthalenes

>  <chemical_super_class>  (762) 
Benzenoids

>  <direct_parent_classification>  (762) 
Naphthalenes

>  <np_classifier_pathway>  (762) 
Polyketides

>  <np_classifier_superclass>  (762) 
Naphthalenes

>  <np_classifier_class>  (762) 
Naphthalenes and derivatives

>  <np_classifier_is_glycoside>  (762) 
False

>  <organisms>  (762) 
Aphis nerii

>  <collections>  (762) 
Latin America dataset|NuBBEDB|WikiData Natural Products|ZINC NP

>  <dois>  (762) 
10.1016/S0040-4039(01)97216-8

>  <synonyms>  (762) 
6-hydroxymusizin triacetate

>  <cas>  (762) 
nan

$$$$

     RDKit          2D

 37 41  0  0  0  0  0  0  0  0999 V2000
    5.4458   -3.8422    0.0000 C   0  0  0  0  0  0  0  0  0  0  0  0
    4.0922   -3.1958    0.0000 O   0  0  0  0  0  0  0  0  0  0  0  0
    3.9752   -1.7004    0.0000 C   0  0  0  0  0  0  0  0  0  0  0  0
    5.1163   -0.7268    0.0000 O   0  0  0  0  0  0  0  0  0  0  0  0
    4.5429    0.6593    0.0000 C   0  0  0  0  0  0  0  0  0  0  0  0
    5.3273    1.9379    0.0000 C   0  0  0  0  0  0  0  0  0  0  0  0
    4.6122    3.2565    0.0000 O   0  0  0  0  0  0  0  0  0  0  0  0
    6.8267    1.8980    0.0000 C   0  0  0  0  0  0  0  0  0  0  0  0
    6.7868    0.3985    0.0000 C   0  0  0  0  0  0  0  0  0  0  0  0
    6.8667    3.3974    0.0000 C   0  0  0  0  0  0  0  0  0  0  0  0
    8.3262    1.8580    0.0000 O   0  0  0  0  0  0  0  0  0  0  0  0
    9.0413    0.5394    0.0000 C   0  0  0  0  0  0  0  0  0  0  0  0
    3.0475    0.5424    0.0000 C   0  0  0  0  0  0  0  0  0  0  0  0
    2.6966   -0.9160    0.0000 C   0  0  0  0  0  0  0  0  0  0  0  0
    1.3105   -1.4894    0.0000 C   0  0  0  0  0  0  0  0  0  0  0  0
    0.9597   -2.9478    0.0000 C   0  0  0  0  0  0  0  0  0  0  0  0
   -0.5357   -3.0648    0.0000 C   0  0  0  0  0  0  0  0  0  0  0  0
   -1.1091   -1.6787    0.0000 C   0  0  0  0  0  0  0  0  0  0  0  0
   -2.1422   -2.7663    0.0000 C   0  0  0  0  0  0  0  0  0  0  0  0
   -2.5228   -1.1773    0.0000 C   0  0  0  0  0  0  0  0  0  0  0  0
   -3.6639   -2.1509    0.0000 C   0  0  0  0  0  0  0  0  0  0  0  0
   -5.0776   -1.6496    0.0000 C   0  0  0  0  0  0  0  0  0  0  0  0
   -5.3503   -0.1745    0.0000 C   0  0  0  0  0  0  0  0  0  0  0  0
   -6.7640    0.3268    0.0000 C   0  0  0  0  0  0  0  0  0  0  0  0
   -8.2640    0.3144    0.0000 C   0  0  0  0  0  0  0  0  0  0  0  0
   -7.0123   -1.1525    0.0000 C   0  0  0  0  0  0  0  0  0  0  0  0
   -7.0367    1.8018    0.0000 C   0  0  0  0  0  0  0  0  0  0  0  0
   -8.4504    2.3032    0.0000 O   0  0  0  0  0  0  0  0  0  0  0  0
   -5.8956    2.7755    0.0000 C   0  0  0  0  0  0  0  0  0  0  0  0
   -4.4819    2.2741    0.0000 C   0  0  0  0  0  0  0  0  0  0  0  0
   -4.2092    0.7991    0.0000 C   0  0  0  0  0  0  0  0  0  0  0  0
   -3.0682    1.7727    0.0000 C   0  0  0  0  0  0  0  0  0  0  0  0
   -2.7955    0.2977    0.0000 C   0  0  0  0  0  0  0  0  0  0  0  0
   -1.6544    1.2713    0.0000 C   0  0  0  0  0  0  0  0  0  0  0  0
   -0.2407    0.7700    0.0000 C   0  0  0  0  0  0  0  0  0  0  0  0
    0.0320   -0.7051    0.0000 C   0  0  0  0  0  0  0  0  0  0  0  0
    1.2685    0.1440    0.0000 C   0  0  0  0  0  0  0  0  0  0  0  0
  1  2  1  0
  3  2  1  1
  3  4  1  0
  4  5  1  0
  5  6  1  0
  6  7  1  6
  6  8  1  0
  8  9  1  0
  8 10  1  0
  8 11  1  0
 11 12  1  0
  5 13  1  6
 14 13  1  6
 14 15  1  0
 15 16  1  6
 16 17  1  0
 17 18  1  0
 18 19  1  1
 18 20  1  0
 20 21  2  0
 21 22  1  0
 23 22  1  1
 23 24  1  0
 24 25  1  0
 24 26  1  0
 24 27  1  0
 27 28  2  0
 27 29  1  0
 29 30  1  0
 30 31  1  0
 31 32  1  1
 31 33  1  0
 33 34  1  1
 34 35  1  0
 35 36  1  0
 36 37  1  6
 14  3  1  0
 36 15  1  0
 36 18  1  0
 33 20  1  0
 31 23  1  0
M  END
>  <identifier>  (763) 
CNP0196473.1

>  <canonical_smiles>  (763) 
CO[C@@H]1O[C@@H]([C@H](O)C(C)(C)OC)C[C@H]1[C@@H]1CC[C@]2(C)C3=CC[C@H]4C(C)(C)C(=O)CC[C@]4(C)[C@H]3CC[C@@]12C

>  <standard_inchi>  (763) 
InChI=1S/C32H52O5/c1-28(2)24-11-10-22-21(30(24,5)15-14-25(28)33)13-17-31(6)20(12-16-32(22,31)7)19-18-23(37-27(19)35-8)26(34)29(3,4)36-9/h10,19-21,23-24,26-27,34H,11-18H2,1-9H3/t19-,20-,21-,23+,24-,26-,27+,30+,31-,32+/m0/s1

>  <standard_inchi_key>  (763) 
LEHCWPXGSDLCRO-YWTUFOKMSA-N

>  <name>  (763) 
(5R,9R,10R,13S,14S,17S)-17-[(2R,3S,5R)-5-[(1S)-1-hydroxy-2-methoxy-2-methylpropyl]-2-methoxyoxolan-3-yl]-4,4,10,13,14-pentamethyl-1,2,5,6,9,11,12,15,16,17-decahydrocyclopenta[a]phenanthren-3-one

>  <iupac_name>  (763) 
(5~{R},9~{R},10~{R},13~{S},14~{S},17~{S})-17-[(2~{R},3~{S},5~{R})-5-[(1~{S})-1-hydroxy-2-methoxy-2-methyl-propyl]-2-methoxy-tetrahydrofuran-3-yl]-4,4,10,13,14-pentamethyl-1,2,5,6,9,11,12,15,16,17-decahydrocyclopenta[a]phenanthren-3-one

>  <annotation_level>  (763) 
5

>  <total_atom_count>  (763) 
89

>  <heavy_atom_count>  (763) 
37

>  <molecular_weight>  (763) 
516.76

>  <exact_molecular_weight>  (763) 
516.38147

>  <molecular_formula>  (763) 
C32H52O5

>  <alogp>  (763) 
6.32

>  <topological_polar_surface_area>  (763) 
64.99

>  <rotatable_bond_count>  (763) 
5

>  <hydrogen_bond_acceptors>  (763) 
5

>  <hydrogen_bond_donors>  (763) 
1

>  <hydrogen_bond_acceptors_lipinski>  (763) 
5

>  <hydrogen_bond_donors_lipinski>  (763) 
1

>  <lipinski_rule_of_five_violations>  (763) 
2

>  <aromatic_rings_count>  (763) 
0

>  <qed_drug_likeliness>  (763) 
0.43

>  <formal_charge>  (763) 
0

>  <fractioncsp3>  (763) 
0.91

>  <number_of_minimal_rings>  (763) 
5

>  <van_der_walls_volume>  (763) 
nan

>  <contains_sugar>  (763) 
False

>  <contains_ring_sugars>  (763) 
False

>  <contains_linear_sugars>  (763) 
False

>  <murcko_framework>  (763) 
O1CCC(C1)C2CCC3C4=CCC5CCCCC5C4CCC32

>  <np_likeness>  (763) 
3.43

>  <chemical_class>  (763) 
Steroids and steroid derivatives

>  <chemical_sub_class>  (763) 
Bile acids, alcohols and derivatives

>  <chemical_super_class>  (763) 
Lipids and lipid-like molecules

>  <direct_parent_classification>  (763) 
Bile acids, alcohols and derivatives

>  <np_classifier_pathway>  (763) 
Terpenoids

>  <np_classifier_superclass>  (763) 
Triterpenoids

>  <np_classifier_class>  (763) 
Lanostane, Tirucallane and Euphane triterpenoids

>  <np_classifier_is_glycoside>  (763) 
True

>  <organisms>  (763) 
Chisocheton cumingianus|Melia azedarach|Raulinoa echinata

>  <collections>  (763) 
Latin America dataset|NPASS|NuBBEDB|WikiData Natural Products

>  <dois>  (763) 
10.1016/J.BMC.2011.01.007|10.1021/NP0103970|10.1021/np0103970|10.1248/CPB.59.1003

>  <synonyms>  (763) 
21\u221a\u00e9\u00ac\u00b125-dimethylmelianodiol|21alpha,25-Dimethylmelianodiol|CHEMBL458938

>  <cas>  (763) 
nan

$$$$

     RDKit          2D

 18 18  0  0  0  0  0  0  0  0999 V2000
   -6.8750    0.5638    0.0000 C   0  0  0  0  0  0  0  0  0  0  0  0
   -5.4252    0.9488    0.0000 O   0  0  0  0  0  0  0  0  0  0  0  0
   -4.3670   -0.1143    0.0000 C   0  0  0  0  0  0  0  0  0  0  0  0
   -4.7584   -1.5623    0.0000 O   0  0  0  0  0  0  0  0  0  0  0  0
   -2.9172    0.2707    0.0000 C   0  0  0  0  0  0  0  0  0  0  0  0
   -1.8589   -0.7923    0.0000 C   0  0  0  0  0  0  0  0  0  0  0  0
   -0.4092   -0.4073    0.0000 C   0  0  0  0  0  0  0  0  0  0  0  0
   -0.0177    1.0407    0.0000 C   0  0  0  0  0  0  0  0  0  0  0  0
    1.4321    1.4257    0.0000 C   0  0  0  0  0  0  0  0  0  0  0  0
    1.8235    2.8737    0.0000 O   0  0  0  0  0  0  0  0  0  0  0  0
    3.2733    3.2587    0.0000 C   0  0  0  0  0  0  0  0  0  0  0  0
    2.4903    0.3626    0.0000 C   0  0  0  0  0  0  0  0  0  0  0  0
    3.9401    0.7476    0.0000 O   0  0  0  0  0  0  0  0  0  0  0  0
    4.9984   -0.3154    0.0000 C   0  0  0  0  0  0  0  0  0  0  0  0
    2.0989   -1.0854    0.0000 C   0  0  0  0  0  0  0  0  0  0  0  0
    3.1572   -2.1484    0.0000 O   0  0  0  0  0  0  0  0  0  0  0  0
    2.7657   -3.5964    0.0000 C   0  0  0  0  0  0  0  0  0  0  0  0
    0.6491   -1.4704    0.0000 C   0  0  0  0  0  0  0  0  0  0  0  0
  1  2  1  0
  2  3  1  0
  3  4  2  0
  3  5  1  0
  5  6  1  0
  6  7  1  0
  7  8  2  0
  8  9  1  0
  9 10  1  0
 10 11  1  0
  9 12  2  0
 12 13  1  0
 13 14  1  0
 12 15  1  0
 15 16  1  0
 16 17  1  0
 15 18  2  0
 18  7  1  0
M  END
>  <identifier>  (764) 
CNP0411619.0

>  <canonical_smiles>  (764) 
COC(=O)CCC1=CC(OC)=C(OC)C(OC)=C1

>  <standard_inchi>  (764) 
InChI=1S/C13H18O5/c1-15-10-7-9(5-6-12(14)17-3)8-11(16-2)13(10)18-4/h7-8H,5-6H2,1-4H3

>  <standard_inchi_key>  (764) 
KCQHYTFTCZDNMC-UHFFFAOYSA-N

>  <name>  (764) 
methyl 3-(3,4,5-trimethoxyphenyl)propanoate

>  <iupac_name>  (764) 
methyl 3-(3,4,5-trimethoxyphenyl)propanoate

>  <annotation_level>  (764) 
5

>  <total_atom_count>  (764) 
36

>  <heavy_atom_count>  (764) 
18

>  <molecular_weight>  (764) 
254.28

>  <exact_molecular_weight>  (764) 
254.11542

>  <molecular_formula>  (764) 
C13H18O5

>  <alogp>  (764) 
1.82

>  <topological_polar_surface_area>  (764) 
53.99

>  <rotatable_bond_count>  (764) 
6

>  <hydrogen_bond_acceptors>  (764) 
5

>  <hydrogen_bond_donors>  (764) 
0

>  <hydrogen_bond_acceptors_lipinski>  (764) 
5

>  <hydrogen_bond_donors_lipinski>  (764) 
0

>  <lipinski_rule_of_five_violations>  (764) 
0

>  <aromatic_rings_count>  (764) 
1

>  <qed_drug_likeliness>  (764) 
0.72

>  <formal_charge>  (764) 
0

>  <fractioncsp3>  (764) 
0.46

>  <number_of_minimal_rings>  (764) 
1

>  <van_der_walls_volume>  (764) 
238.57

>  <contains_sugar>  (764) 
False

>  <contains_ring_sugars>  (764) 
False

>  <contains_linear_sugars>  (764) 
False

>  <murcko_framework>  (764) 
c1ccccc1

>  <np_likeness>  (764) 
0.33

>  <chemical_class>  (764) 
Phenol ethers

>  <chemical_sub_class>  (764) 
Anisoles

>  <chemical_super_class>  (764) 
Benzenoids

>  <direct_parent_classification>  (764) 
Anisoles

>  <np_classifier_pathway>  (764) 
Shikimates and Phenylpropanoids

>  <np_classifier_superclass>  (764) 
Lignans

>  <np_classifier_class>  (764) 
Minor lignans

>  <np_classifier_is_glycoside>  (764) 
False

>  <organisms>  (764) 
Piper swartzianum|Piper tuberculatum

>  <collections>  (764) 
ChemSpider NPs|Latin America dataset|NuBBEDB|Super Natural II|UNPD (Universal Natural Products Database)|WikiData Natural Products|ZINC NP

>  <dois>  (764) 
10.1016/S0031-9422(01)00431-9

>  <synonyms>  (764) 
3-(3,4,5-trimethoxyphenyl)-propionic acid methyl ester|53560-25-1|AKOS017002942|CHEMBL2252075|DTXSID00383941|Methyl 3-(3,4,5-trimethoxyphenyl)propanonate|Methyl 678-trimethoxydihydrocinnamate|Propanoic acid, 3-(3,4,5-trimethoxyphenyl), methyl ester|SCHEMBL7431362

>  <cas>  (764) 
53560-25-1

$$$$

     RDKit          2D

 22 24  0  0  0  0  0  0  0  0999 V2000
   -5.2171   -1.4160    0.0000 C   0  0  0  0  0  0  0  0  0  0  0  0
   -3.7212   -1.5273    0.0000 C   0  0  0  0  0  0  0  0  0  0  0  0
   -2.8769   -0.2874    0.0000 C   0  0  0  0  0  0  0  0  0  0  0  0
   -3.5285    1.0636    0.0000 C   0  0  0  0  0  0  0  0  0  0  0  0
   -5.0244    1.1749    0.0000 C   0  0  0  0  0  0  0  0  0  0  0  0
   -2.6842    2.3035    0.0000 C   0  0  0  0  0  0  0  0  0  0  0  0
   -1.1884    2.1922    0.0000 C   0  0  0  0  0  0  0  0  0  0  0  0
   -0.5368    0.8412    0.0000 C   0  0  0  0  0  0  0  0  0  0  0  0
   -1.3811   -0.3987    0.0000 C   0  0  0  0  0  0  0  0  0  0  0  0
   -0.7295   -1.7498    0.0000 C   0  0  0  0  0  0  0  0  0  0  0  0
   -1.5737   -2.9896    0.0000 O   0  0  0  0  0  0  0  0  0  0  0  0
    0.7664   -1.8610    0.0000 C   0  0  0  0  0  0  0  0  0  0  0  0
    1.6107   -0.6212    0.0000 C   0  0  0  0  0  0  0  0  0  0  0  0
    3.1066   -0.7324    0.0000 C   0  0  0  0  0  0  0  0  0  0  0  0
    4.4742   -1.3486    0.0000 C   0  0  0  0  0  0  0  0  0  0  0  0
    2.7372   -2.1862    0.0000 C   0  0  0  0  0  0  0  0  0  0  0  0
    3.9508    0.5074    0.0000 C   0  0  0  0  0  0  0  0  0  0  0  0
    5.4467    0.3962    0.0000 O   0  0  0  0  0  0  0  0  0  0  0  0
    3.2992    1.8585    0.0000 C   0  0  0  0  0  0  0  0  0  0  0  0
    1.8034    1.9698    0.0000 C   0  0  0  0  0  0  0  0  0  0  0  0
    0.9591    0.7299    0.0000 C   0  0  0  0  0  0  0  0  0  0  0  0
    0.3075    2.0810    0.0000 C   0  0  0  0  0  0  0  0  0  0  0  0
  1  2  1  0
  2  3  1  0
  3  4  2  0
  4  5  1  0
  4  6  1  0
  6  7  2  0
  7  8  1  0
  8  9  2  0
  9 10  1  0
 10 11  2  0
 10 12  1  0
 12 13  1  0
 13 14  1  0
 14 15  1  0
 14 16  1  0
 14 17  1  0
 17 18  2  0
 17 19  1  0
 19 20  2  0
 20 21  1  0
 21 22  1  6
  9  3  1  0
 21 13  1  0
 21  8  1  0
M  END
>  <identifier>  (765) 
CNP0267066.1

>  <canonical_smiles>  (765) 
CCC1=C(C)C=CC2=C1C(=O)CC1C(C)(C)C(=O)C=C[C@]21C

>  <standard_inchi>  (765) 
InChI=1S/C20H24O2/c1-6-13-12(2)7-8-14-18(13)15(21)11-16-19(3,4)17(22)9-10-20(14,16)5/h7-10,16H,6,11H2,1-5H3/t16?,20-/m1/s1

>  <standard_inchi_key>  (765) 
BEYNZZVKYQTAAE-OTOKDRCRSA-N

>  <name>  (765) 
nan

>  <iupac_name>  (765) 
(4~{a}~{S})-8-ethyl-1,1,4~{a},7-tetramethyl-10,10~{a}-dihydrophenanthrene-2,9-dione

>  <annotation_level>  (765) 
4

>  <total_atom_count>  (765) 
46

>  <heavy_atom_count>  (765) 
22

>  <molecular_weight>  (765) 
296.41

>  <exact_molecular_weight>  (765) 
296.17763

>  <molecular_formula>  (765) 
C20H24O2

>  <alogp>  (765) 
4.18

>  <topological_polar_surface_area>  (765) 
34.14

>  <rotatable_bond_count>  (765) 
1

>  <hydrogen_bond_acceptors>  (765) 
2

>  <hydrogen_bond_donors>  (765) 
0

>  <hydrogen_bond_acceptors_lipinski>  (765) 
2

>  <hydrogen_bond_donors_lipinski>  (765) 
0

>  <lipinski_rule_of_five_violations>  (765) 
0

>  <aromatic_rings_count>  (765) 
1

>  <qed_drug_likeliness>  (765) 
0.78

>  <formal_charge>  (765) 
0

>  <fractioncsp3>  (765) 
0.50

>  <number_of_minimal_rings>  (765) 
3

>  <van_der_walls_volume>  (765) 
nan

>  <contains_sugar>  (765) 
False

>  <contains_ring_sugars>  (765) 
False

>  <contains_linear_sugars>  (765) 
False

>  <murcko_framework>  (765) 
c1ccc2c(c1)CCC3CCC=CC23

>  <np_likeness>  (765) 
1.80

>  <chemical_class>  (765) 
Prenol lipids

>  <chemical_sub_class>  (765) 
Diterpenoids

>  <chemical_super_class>  (765) 
Lipids and lipid-like molecules

>  <direct_parent_classification>  (765) 
Diterpenoids

>  <np_classifier_pathway>  (765) 
Terpenoids

>  <np_classifier_superclass>  (765) 
Diterpenoids

>  <np_classifier_class>  (765) 
Cleistanthane diterpenoids

>  <np_classifier_is_glycoside>  (765) 
False

>  <organisms>  (765) 
Vellozia piresiana

>  <collections>  (765) 
Latin America dataset|NuBBEDB

>  <dois>  (765) 
10.1016/S0031-9422(00)80444-6

>  <synonyms>  (765) 
181113-Cleistanthatetraen-37-dione

>  <cas>  (765) 
nan

$$$$

     RDKit          2D

 42 46  0  0  0  0  0  0  0  0999 V2000
    2.0057   -0.9683    0.0000 C   0  0  0  0  0  0  0  0  0  0  0  0
    1.1819    0.2853    0.0000 C   0  0  0  0  0  0  0  0  0  0  0  0
   -0.3156    0.1986    0.0000 O   0  0  0  0  0  0  0  0  0  0  0  0
   -1.1394    1.4521    0.0000 C   0  0  0  0  0  0  0  0  0  0  0  0
   -2.6369    1.3655    0.0000 O   0  0  0  0  0  0  0  0  0  0  0  0
   -3.3106    0.0253    0.0000 C   0  0  0  0  0  0  0  0  0  0  0  0
   -4.8081   -0.0614    0.0000 C   0  0  0  0  0  0  0  0  0  0  0  0
   -5.6319    1.1921    0.0000 C   0  0  0  0  0  0  0  0  0  0  0  0
   -4.9582    2.5323    0.0000 C   0  0  0  0  0  0  0  0  0  0  0  0
   -5.7820    3.7859    0.0000 C   0  0  0  0  0  0  0  0  0  0  0  0
   -7.2795    3.6992    0.0000 C   0  0  0  0  0  0  0  0  0  0  0  0
   -8.1033    4.9527    0.0000 O   0  0  0  0  0  0  0  0  0  0  0  0
   -7.9532    2.3590    0.0000 C   0  0  0  0  0  0  0  0  0  0  0  0
   -7.1294    1.1055    0.0000 C   0  0  0  0  0  0  0  0  0  0  0  0
   -5.4817   -1.4016    0.0000 O   0  0  0  0  0  0  0  0  0  0  0  0
   -4.6579   -2.6551    0.0000 C   0  0  0  0  0  0  0  0  0  0  0  0
   -5.3316   -3.9953    0.0000 C   0  0  0  0  0  0  0  0  0  0  0  0
   -4.5078   -5.2489    0.0000 C   0  0  0  0  0  0  0  0  0  0  0  0
   -5.1815   -6.5891    0.0000 O   0  0  0  0  0  0  0  0  0  0  0  0
   -3.0103   -5.1622    0.0000 C   0  0  0  0  0  0  0  0  0  0  0  0
   -2.3366   -3.8220    0.0000 C   0  0  0  0  0  0  0  0  0  0  0  0
   -0.8392   -3.7353    0.0000 O   0  0  0  0  0  0  0  0  0  0  0  0
   -3.1605   -2.5685    0.0000 C   0  0  0  0  0  0  0  0  0  0  0  0
   -2.4868   -1.2283    0.0000 C   0  0  0  0  0  0  0  0  0  0  0  0
   -0.9893   -1.1416    0.0000 O   0  0  0  0  0  0  0  0  0  0  0  0
   -0.4657    2.7923    0.0000 C   0  0  0  0  0  0  0  0  0  0  0  0
   -1.2895    4.0459    0.0000 O   0  0  0  0  0  0  0  0  0  0  0  0
    1.0318    2.8790    0.0000 C   0  0  0  0  0  0  0  0  0  0  0  0
    1.7055    4.2192    0.0000 O   0  0  0  0  0  0  0  0  0  0  0  0
    1.8556    1.6255    0.0000 C   0  0  0  0  0  0  0  0  0  0  0  0
    3.3531    1.7121    0.0000 O   0  0  0  0  0  0  0  0  0  0  0  0
    4.1769    0.4586    0.0000 C   0  0  0  0  0  0  0  0  0  0  0  0
    3.5032   -0.8816    0.0000 O   0  0  0  0  0  0  0  0  0  0  0  0
    5.6744    0.5453    0.0000 C   0  0  0  0  0  0  0  0  0  0  0  0
    6.4982   -0.7083    0.0000 C   0  0  0  0  0  0  0  0  0  0  0  0
    7.9957   -0.6216    0.0000 C   0  0  0  0  0  0  0  0  0  0  0  0
    8.8195   -1.8751    0.0000 C   0  0  0  0  0  0  0  0  0  0  0  0
   10.3170   -1.7885    0.0000 C   0  0  0  0  0  0  0  0  0  0  0  0
   10.9907   -0.4483    0.0000 C   0  0  0  0  0  0  0  0  0  0  0  0
   10.1669    0.8053    0.0000 C   0  0  0  0  0  0  0  0  0  0  0  0
   10.8406    2.1455    0.0000 O   0  0  0  0  0  0  0  0  0  0  0  0
    8.6694    0.7186    0.0000 C   0  0  0  0  0  0  0  0  0  0  0  0
  2  1  1  6
  2  3  1  0
  3  4  1  0
  4  5  1  1
  5  6  1  0
  6  7  2  0
  7  8  1  0
  8  9  2  0
  9 10  1  0
 10 11  2  0
 11 12  1  0
 11 13  1  0
 13 14  2  0
  7 15  1  0
 15 16  1  0
 16 17  2  0
 17 18  1  0
 18 19  1  0
 18 20  2  0
 20 21  1  0
 21 22  1  0
 21 23  2  0
 23 24  1  0
 24 25  2  0
  4 26  1  0
 26 27  1  6
 26 28  1  0
 28 29  1  6
 28 30  1  0
 30 31  1  1
 31 32  1  0
 32 33  2  0
 32 34  1  0
 34 35  2  3
 35 36  1  0
 36 37  2  0
 37 38  1  0
 38 39  2  0
 39 40  1  0
 40 41  1  0
 40 42  2  0
 30  2  1  0
 42 36  1  0
 24  6  1  0
 14  8  1  0
 23 16  1  0
M  END
>  <identifier>  (766) 
CNP0417051.2

>  <canonical_smiles>  (766) 
C[C@@H]1O[C@@H](OC2=C(C3=CC=C(O)C=C3)OC3=CC(O)=CC(O)=C3C2=O)[C@H](O)[C@H](O)[C@H]1OC(=O)C=CC1=CC=CC(O)=C1

>  <standard_inchi>  (766) 
InChI=1S/C30H26O12/c1-14-27(41-22(35)10-5-15-3-2-4-18(32)11-15)25(37)26(38)30(39-14)42-29-24(36)23-20(34)12-19(33)13-21(23)40-28(29)16-6-8-17(31)9-7-16/h2-14,25-27,30-34,37-38H,1H3/t14-,25-,26+,27-,30-/m0/s1

>  <standard_inchi_key>  (766) 
RHUHUHCSWSRUQC-PXSKZVMXSA-N

>  <name>  (766) 
nan

>  <iupac_name>  (766) 
[(2~{S},3~{R},4~{S},5~{R},6~{S})-6-[5,7-dihydroxy-2-(4-hydroxyphenyl)-4-oxo-chromen-3-yl]oxy-4,5-dihydroxy-2-methyl-tetrahydropyran-3-yl] 3-(3-hydroxyphenyl)prop-2-enoate

>  <annotation_level>  (766) 
4

>  <total_atom_count>  (766) 
68

>  <heavy_atom_count>  (766) 
42

>  <molecular_weight>  (766) 
578.53

>  <exact_molecular_weight>  (766) 
578.14243

>  <molecular_formula>  (766) 
C30H26O12

>  <alogp>  (766) 
2.75

>  <topological_polar_surface_area>  (766) 
196.35

>  <rotatable_bond_count>  (766) 
6

>  <hydrogen_bond_acceptors>  (766) 
12

>  <hydrogen_bond_donors>  (766) 
6

>  <hydrogen_bond_acceptors_lipinski>  (766) 
12

>  <hydrogen_bond_donors_lipinski>  (766) 
6

>  <lipinski_rule_of_five_violations>  (766) 
3

>  <aromatic_rings_count>  (766) 
4

>  <qed_drug_likeliness>  (766) 
0.14

>  <formal_charge>  (766) 
0

>  <fractioncsp3>  (766) 
0.20

>  <number_of_minimal_rings>  (766) 
5

>  <van_der_walls_volume>  (766) 
nan

>  <contains_sugar>  (766) 
True

>  <contains_ring_sugars>  (766) 
True

>  <contains_linear_sugars>  (766) 
False

>  <murcko_framework>  (766) 
O1c2ccccc2CC(OC3OCC(OCC=Cc4ccccc4)CC3)=C1c5ccccc5

>  <np_likeness>  (766) 
1.86

>  <chemical_class>  (766) 
Flavonoids

>  <chemical_sub_class>  (766) 
Flavonoid glycosides

>  <chemical_super_class>  (766) 
Phenylpropanoids and polyketides

>  <direct_parent_classification>  (766) 
Flavonoid-3-O-glycosides

>  <np_classifier_pathway>  (766) 
Shikimates and Phenylpropanoids

>  <np_classifier_superclass>  (766) 
Flavonoids

>  <np_classifier_class>  (766) 
Flavonols

>  <np_classifier_is_glycoside>  (766) 
True

>  <organisms>  (766) 
Qualea grandiflora

>  <collections>  (766) 
Latin America dataset|NuBBEDB

>  <dois>  (766) 
10.1590/S0100-40422008000600038

>  <synonyms>  (766) 
Kaempferol-3-O-\u221a\u00e9\u00ac\u00b1-L-(4''-Z-p-coumaroyl)-rhamnoside

>  <cas>  (766) 
nan

$$$$

     RDKit          2D

 16 18  0  0  0  0  0  0  0  0999 V2000
   -0.7189   -3.3137    0.0000 C   0  0  0  0  0  0  0  0  0  0  0  0
    0.3310   -2.2425    0.0000 C   0  0  0  0  0  0  0  0  0  0  0  0
    1.8148   -2.4622    0.0000 C   0  0  0  0  0  0  0  0  0  0  0  0
    2.4823   -1.1189    0.0000 C   0  0  0  0  0  0  0  0  0  0  0  0
    1.4110   -0.0689    0.0000 C   0  0  0  0  0  0  0  0  0  0  0  0
    2.8433    0.3769    0.0000 O   0  0  0  0  0  0  0  0  0  0  0  0
    0.0815   -0.7634    0.0000 C   0  0  0  0  0  0  0  0  0  0  0  0
   -1.2904   -0.1568    0.0000 C   0  0  0  0  0  0  0  0  0  0  0  0
   -1.6716    1.2940    0.0000 C   0  0  0  0  0  0  0  0  0  0  0  0
   -0.7750    2.4965    0.0000 C   0  0  0  0  0  0  0  0  0  0  0  0
    0.7243    2.5453    0.0000 C   0  0  0  0  0  0  0  0  0  0  0  0
    1.6971    1.4035    0.0000 C   0  0  0  0  0  0  0  0  0  0  0  0
    3.1479    1.7847    0.0000 C   0  0  0  0  0  0  0  0  0  0  0  0
   -2.7374    0.2385    0.0000 C   0  0  0  0  0  0  0  0  0  0  0  0
   -3.9619    1.1049    0.0000 C   0  0  0  0  0  0  0  0  0  0  0  0
   -3.3780   -1.1178    0.0000 C   0  0  0  0  0  0  0  0  0  0  0  0
  2  1  1  1
  2  3  1  0
  3  4  1  0
  4  5  1  0
  5  6  1  6
  5  7  1  0
  7  8  1  0
  8  9  1  0
  9 10  1  6
 10 11  1  0
 11 12  1  0
 12 13  1  6
  9 14  1  0
 14 15  1  0
 14 16  1  0
  7  2  1  1
  8 14  1  6
 12  5  1  0
M  END
>  <identifier>  (767) 
CNP0153939.1

>  <canonical_smiles>  (767) 
C[C@@H]1CC[C@@]2(O)[C@@H]1[C@H]1[C@@H](CC[C@@H]2C)C1(C)C

>  <standard_inchi>  (767) 
InChI=1S/C15H26O/c1-9-7-8-15(16)10(2)5-6-11-13(12(9)15)14(11,3)4/h9-13,16H,5-8H2,1-4H3/t9-,10+,11-,12+,13-,15+/m1/s1

>  <standard_inchi_key>  (767) 
QWRTXOOFEHOROQ-BFWDZPHWSA-N

>  <name>  (767) 
AKOS027270123

>  <iupac_name>  (767) 
(1~{a}~{R},4~{S},4~{a}~{S},7~{R},7~{a}~{S},7~{b}~{R})-1,1,4,7-tetramethyl-2,3,4,5,6,7,7~{a},7~{b}-octahydro-1~{a}~{H}-cyclopropa[h]azulen-4~{a}-ol

>  <annotation_level>  (767) 
5

>  <total_atom_count>  (767) 
42

>  <heavy_atom_count>  (767) 
16

>  <molecular_weight>  (767) 
222.37

>  <exact_molecular_weight>  (767) 
222.19837

>  <molecular_formula>  (767) 
C15H26O

>  <alogp>  (767) 
3.47

>  <topological_polar_surface_area>  (767) 
20.23

>  <rotatable_bond_count>  (767) 
0

>  <hydrogen_bond_acceptors>  (767) 
1

>  <hydrogen_bond_donors>  (767) 
1

>  <hydrogen_bond_acceptors_lipinski>  (767) 
1

>  <hydrogen_bond_donors_lipinski>  (767) 
1

>  <lipinski_rule_of_five_violations>  (767) 
0

>  <aromatic_rings_count>  (767) 
0

>  <qed_drug_likeliness>  (767) 
0.67

>  <formal_charge>  (767) 
0

>  <fractioncsp3>  (767) 
1.00

>  <number_of_minimal_rings>  (767) 
3

>  <van_der_walls_volume>  (767) 
235.79

>  <contains_sugar>  (767) 
False

>  <contains_ring_sugars>  (767) 
False

>  <contains_linear_sugars>  (767) 
False

>  <murcko_framework>  (767) 
C1CC2CCCC2C3CC3C1

>  <np_likeness>  (767) 
3.07

>  <chemical_class>  (767) 
Prenol lipids

>  <chemical_sub_class>  (767) 
Sesquiterpenoids

>  <chemical_super_class>  (767) 
Lipids and lipid-like molecules

>  <direct_parent_classification>  (767) 
Guaianes

>  <np_classifier_pathway>  (767) 
Terpenoids

>  <np_classifier_superclass>  (767) 
Sesquiterpenoids

>  <np_classifier_class>  (767) 
Aromadendrane sesquiterpenoids

>  <np_classifier_is_glycoside>  (767) 
False

>  <organisms>  (767) 
Allium victorialis|Arthrophytum leptocladum|Baccharis genistelloides|Baccharis sagittalis|Baccharis venosa|Blepharis sindica|Cellulomonas biazotea|Cladosporium tenuissimum|Corbicula fluminea|Croton sonderianus|Eucalyptus nova-anglica|Fragaria indica|Frullania brittoniae|Lamellodysidea herbacea|Latua pubiflora|Lobelia st|Melaleuca leucadendra|Metrosideros perforata|Phebalium gracile|Pinus densiflora var. densiflora|Remijia pedunculata|Rhododendron groenlandicum|Rhododendron tomentosum|Rudbeckia hirta|Saracha viscosa|Sarcodon aspratus|Sinopodophyllum emodi|Solanum toxicarum|Spongia australis|Stelletta inconspicua|Trichia favoginea

>  <collections>  (767) 
Australian natural products|CMAUP (cCollective molecular activities of useful plants)|Latin America dataset|NPASS|NuBBEDB|Super Natural II|WikiData Natural Products

>  <dois>  (767) 
10.1007/BF00579758|10.1016/S0040-4039(01)99416-X|10.1016/s0040-4039(01)99416-x|10.1021/JO00200A028|10.1021/NP9606052|10.1021/jo00200a028|10.1135/CCCC19610811

>  <synonyms>  (767) 
CS-0084917|FS-8849|HY-122375|Palustrol|palustrol

>  <cas>  (767) 
nan

$$$$

     RDKit          2D

 15 15  0  0  0  0  0  0  0  0999 V2000
    1.5153   -3.3139    0.0000 C   0  0  0  0  0  0  0  0  0  0  0  0
    2.1034   -1.9340    0.0000 C   0  0  0  0  0  0  0  0  0  0  0  0
    1.2024   -0.7347    0.0000 C   0  0  0  0  0  0  0  0  0  0  0  0
    2.5399   -0.0557    0.0000 C   0  0  0  0  0  0  0  0  0  0  0  0
    0.1778   -1.8303    0.0000 C   0  0  0  0  0  0  0  0  0  0  0  0
   -1.2832   -1.4907    0.0000 C   0  0  0  0  0  0  0  0  0  0  0  0
   -1.7197   -0.0556    0.0000 C   0  0  0  0  0  0  0  0  0  0  0  0
   -3.1807    0.2840    0.0000 C   0  0  0  0  0  0  0  0  0  0  0  0
   -3.6172    1.7191    0.0000 C   0  0  0  0  0  0  0  0  0  0  0  0
   -4.2053   -0.8116    0.0000 C   0  0  0  0  0  0  0  0  0  0  0  0
   -0.6951    1.0399    0.0000 C   0  0  0  0  0  0  0  0  0  0  0  0
    0.7660    0.7004    0.0000 C   0  0  0  0  0  0  0  0  0  0  0  0
    1.7906    1.7959    0.0000 C   0  0  0  0  0  0  0  0  0  0  0  0
    1.3541    3.2310    0.0000 C   0  0  0  0  0  0  0  0  0  0  0  0
    3.2516    1.4563    0.0000 C   0  0  0  0  0  0  0  0  0  0  0  0
  1  2  2  0
  2  3  1  0
  3  4  1  6
  3  5  1  0
  5  6  1  0
  6  7  1  0
  7  8  2  0
  8  9  1  0
  8 10  1  0
  7 11  1  0
 11 12  1  0
 12 13  1  6
 13 14  2  0
 13 15  1  0
 12  3  1  0
M  END
>  <identifier>  (768) 
CNP0308463.2

>  <canonical_smiles>  (768) 
C=C[C@@]1(C)CCC(=C(C)C)C[C@@H]1C(=C)C

>  <standard_inchi>  (768) 
InChI=1S/C15H24/c1-7-15(6)9-8-13(11(2)3)10-14(15)12(4)5/h7,14H,1,4,8-10H2,2-3,5-6H3/t14-,15+/m1/s1

>  <standard_inchi_key>  (768) 
BQSLMQNYHVFRDT-CABCVRRESA-N

>  <name>  (768) 
WYM3TH44BC

>  <iupac_name>  (768) 
cis-(1~{R},2~{R})-2-isopropenyl-4-isopropylidene-1-methyl-1-vinyl-cyclohexane

>  <annotation_level>  (768) 
5

>  <total_atom_count>  (768) 
39

>  <heavy_atom_count>  (768) 
15

>  <molecular_weight>  (768) 
204.36

>  <exact_molecular_weight>  (768) 
204.1878

>  <molecular_formula>  (768) 
C15H24

>  <alogp>  (768) 
4.89

>  <topological_polar_surface_area>  (768) 
0.00

>  <rotatable_bond_count>  (768) 
2

>  <hydrogen_bond_acceptors>  (768) 
0

>  <hydrogen_bond_donors>  (768) 
0

>  <hydrogen_bond_acceptors_lipinski>  (768) 
0

>  <hydrogen_bond_donors_lipinski>  (768) 
0

>  <lipinski_rule_of_five_violations>  (768) 
0

>  <aromatic_rings_count>  (768) 
0

>  <qed_drug_likeliness>  (768) 
0.56

>  <formal_charge>  (768) 
0

>  <fractioncsp3>  (768) 
0.60

>  <number_of_minimal_rings>  (768) 
1

>  <van_der_walls_volume>  (768) 
229.43

>  <contains_sugar>  (768) 
False

>  <contains_ring_sugars>  (768) 
False

>  <contains_linear_sugars>  (768) 
False

>  <murcko_framework>  (768) 
C1CCCCC1

>  <np_likeness>  (768) 
3.10

>  <chemical_class>  (768) 
Prenol lipids

>  <chemical_sub_class>  (768) 
Sesquiterpenoids

>  <chemical_super_class>  (768) 
Lipids and lipid-like molecules

>  <direct_parent_classification>  (768) 
Sesquiterpenoids

>  <np_classifier_pathway>  (768) 
Terpenoids

>  <np_classifier_superclass>  (768) 
Sesquiterpenoids

>  <np_classifier_class>  (768) 
Elemane sesquiterpenoids

>  <np_classifier_is_glycoside>  (768) 
False

>  <organisms>  (768) 
Acca sellowiana|Alphinia galanga|Artemisia annua|Citrus reticulata|Citrus sunki|Citrus × deliciosa|Croton grewioides|Croton zehntneri|Curcuma amada|Curcuma amanda Roxb|Curcuma zedoaria|Gurjun balsam|Kumquat|Lippia Aff. aristata|Murraya paniculata|Piper nigrum|Piper obliquum|Prostanthera aspalathoides|Solanum lycopersicum|Trifoliate orange|Valeriana officinalis|basil|common myrtle|potato

>  <collections>  (768) 
Australian natural products|CMAUP (cCollective molecular activities of useful plants)|FooDB|KNApSaCK|Latin America dataset|NPEdia|NuBBEDB|Super Natural II|TCMDB-Taiwan (Traditional Chinese Medicine database)|WikiData Natural Products|ZINC NP

>  <dois>  (768) 
10.1002/CBDV.201000088|10.1002/CBDV.201100039|10.1002/FFJ.1547|10.1002/FFJ.1804|10.1002/JSFA.6397|10.1007/S10886-013-0311-2|10.1016/J.CHROMA.2006.08.080|10.1016/S0031-9422(01)00018-8|10.1016/S0031-9422(97)00762-0|10.1016/S0308-8146(03)00014-1|10.1021/JO040272A|10.1021/NP030475E|10.1021/NP50017A019|10.1021/np50017a018|10.1080/10412905.2012.747271|10.3390/MEDICINES3010007|10.3390/MOLECULES21060814|10.3390/MOLECULES24112053|10.3390/MOLECULES24234244

>  <synonyms>  (768) 
(-)-gamma-Elemene|(-)-gamma-elemene,1-ethenyl-1-methyl-2-(1-methylethenyl)-4-(1-methylethylidene)-cyclohexane,gamma-elemene|(1R,2R)-1-Ethenyl-1-methyl-2-(1-methylethenyl)-4-(1-methylethylidene)cyclohexane|.GAMMA.-ELEMENE, (-)-|.gamma.-Elemene|29873-99-2|Cyclohexane, 1-ethenyl-1-methyl-2-(1-methylethenyl)-4-(1-methylethylidene)-, (1R,2R)-|DTXSID00881215|NS00096356|UNII-WYM3TH44BC|\u221a\u00e9\u00ac\u2265-Elemene|gamma-Elemene, (-)-|o-Menth-8-ene, 4-isopropylidene-1-vinyl-, (-)-

>  <cas>  (768) 
29873-99-2

$$$$

     RDKit          2D

 42 47  0  0  0  0  0  0  0  0999 V2000
   -7.2917   -3.2105    0.0000 O   0  0  0  0  0  0  0  0  0  0  0  0
   -6.0113   -2.4291    0.0000 C   0  0  0  0  0  0  0  0  0  0  0  0
   -6.0478   -0.9296    0.0000 C   0  0  0  0  0  0  0  0  0  0  0  0
   -4.7674   -0.1481    0.0000 C   0  0  0  0  0  0  0  0  0  0  0  0
   -4.9112    0.8255    0.0000 O   0  0  0  0  0  0  0  0  0  0  0  0
   -3.4505   -0.8663    0.0000 C   0  0  0  0  0  0  0  0  0  0  0  0
   -3.4140   -2.3658    0.0000 C   0  0  0  0  0  0  0  0  0  0  0  0
   -4.6944   -3.1473    0.0000 C   0  0  0  0  0  0  0  0  0  0  0  0
   -2.0971   -3.0840    0.0000 O   0  0  0  0  0  0  0  0  0  0  0  0
   -0.8167   -2.3025    0.0000 C   0  0  0  0  0  0  0  0  0  0  0  0
    0.5002   -3.0207    0.0000 C   0  0  0  0  0  0  0  0  0  0  0  0
    0.5368   -4.5202    0.0000 C   0  0  0  0  0  0  0  0  0  0  0  0
    1.8537   -5.2384    0.0000 C   0  0  0  0  0  0  0  0  0  0  0  0
    3.1341   -4.4569    0.0000 C   0  0  0  0  0  0  0  0  0  0  0  0
    4.4510   -5.1751    0.0000 O   0  0  0  0  0  0  0  0  0  0  0  0
    3.0976   -2.9574    0.0000 C   0  0  0  0  0  0  0  0  0  0  0  0
    4.3779   -2.1760    0.0000 O   0  0  0  0  0  0  0  0  0  0  0  0
    1.7806   -2.2392    0.0000 C   0  0  0  0  0  0  0  0  0  0  0  0
   -0.8532   -0.8030    0.0000 C   0  0  0  0  0  0  0  0  0  0  0  0
    0.4272   -0.0216    0.0000 O   0  0  0  0  0  0  0  0  0  0  0  0
   -2.1701   -0.0849    0.0000 C   0  0  0  0  0  0  0  0  0  0  0  0
   -2.2067    1.4147    0.0000 C   0  0  0  0  0  0  0  0  0  0  0  0
   -3.5236    2.1328    0.0000 C   0  0  0  0  0  0  0  0  0  0  0  0
   -4.4199    1.7264    0.0000 O   0  0  0  0  0  0  0  0  0  0  0  0
   -3.5602    3.6324    0.0000 C   0  0  0  0  0  0  0  0  0  0  0  0
   -2.2798    4.4138    0.0000 C   0  0  0  0  0  0  0  0  0  0  0  0
   -2.3163    5.9134    0.0000 O   0  0  0  0  0  0  0  0  0  0  0  0
   -0.9628    3.6957    0.0000 C   0  0  0  0  0  0  0  0  0  0  0  0
   -0.9263    2.1961    0.0000 C   0  0  0  0  0  0  0  0  0  0  0  0
    0.3906    1.4780    0.0000 O   0  0  0  0  0  0  0  0  0  0  0  0
    1.6710    2.2594    0.0000 C   0  0  0  0  0  0  0  0  0  0  0  0
    2.9879    1.5413    0.0000 C   0  0  0  0  0  0  0  0  0  0  0  0
    3.0245    0.0417    0.0000 C   0  0  0  0  0  0  0  0  0  0  0  0
    4.3414   -0.6764    0.0000 C   0  0  0  0  0  0  0  0  0  0  0  0
    5.6218    0.1050    0.0000 C   0  0  0  0  0  0  0  0  0  0  0  0
    6.9387   -0.6131    0.0000 O   0  0  0  0  0  0  0  0  0  0  0  0
    5.5852    1.6046    0.0000 C   0  0  0  0  0  0  0  0  0  0  0  0
    6.8656    2.3860    0.0000 O   0  0  0  0  0  0  0  0  0  0  0  0
    4.2683    2.3227    0.0000 C   0  0  0  0  0  0  0  0  0  0  0  0
    1.6345    3.7590    0.0000 C   0  0  0  0  0  0  0  0  0  0  0  0
    2.9148    4.5404    0.0000 O   0  0  0  0  0  0  0  0  0  0  0  0
    0.3175    4.4771    0.0000 C   0  0  0  0  0  0  0  0  0  0  0  0
  1  2  1  0
  2  3  2  0
  3  4  1  0
  4  5  1  0
  4  6  2  0
  6  7  1  0
  7  8  2  0
  7  9  1  0
  9 10  1  0
 10 11  1  1
 11 12  2  0
 12 13  1  0
 13 14  2  0
 14 15  1  0
 14 16  1  0
 16 17  1  0
 16 18  2  0
 10 19  1  0
 19 20  1  1
 19 21  1  0
 21 22  1  6
 22 23  2  0
 23 24  1  0
 23 25  1  0
 25 26  2  0
 26 27  1  0
 26 28  1  0
 28 29  2  0
 29 30  1  0
 30 31  1  0
 31 32  1  1
 32 33  2  0
 33 34  1  0
 34 35  2  0
 35 36  1  0
 35 37  1  0
 37 38  1  0
 37 39  2  0
 31 40  1  0
 40 41  1  1
 40 42  1  0
  8  2  1  0
 18 11  1  0
 29 22  1  0
 39 32  1  0
 21  6  1  0
 42 28  1  0
M  END
>  <identifier>  (769) 
CNP0192174.3

>  <canonical_smiles>  (769) 
OC1=CC(O)=C2C(=C1)O[C@H](C1=CC=C(O)C(O)=C1)[C@H](O)[C@H]2C1=C(O)C=C(O)C2=C1O[C@H](C1=CC=C(O)C(O)=C1)[C@H](O)C2

>  <standard_inchi>  (769) 
InChI=1S/C30H26O12/c31-13-7-20(37)24-23(8-13)41-29(12-2-4-16(33)19(36)6-12)27(40)26(24)25-21(38)10-17(34)14-9-22(39)28(42-30(14)25)11-1-3-15(32)18(35)5-11/h1-8,10,22,26-29,31-40H,9H2/t22-,26-,27-,28-,29-/m1/s1

>  <standard_inchi_key>  (769) 
XFZJEEAOWLFHDH-NFJBMHMQSA-N

>  <name>  (769) 
Procyanidin B2

>  <iupac_name>  (769) 
(2~{R},3~{R},4~{R})-2-(3,4-dihydroxyphenyl)-4-[(2~{R},3~{R})-2-(3,4-dihydroxyphenyl)-3,5,7-trihydroxy-chroman-8-yl]chromane-3,5,7-triol

>  <annotation_level>  (769) 
5

>  <total_atom_count>  (769) 
68

>  <heavy_atom_count>  (769) 
42

>  <molecular_weight>  (769) 
578.53

>  <exact_molecular_weight>  (769) 
578.14243

>  <molecular_formula>  (769) 
C30H26O12

>  <alogp>  (769) 
3.00

>  <topological_polar_surface_area>  (769) 
220.76

>  <rotatable_bond_count>  (769) 
3

>  <hydrogen_bond_acceptors>  (769) 
12

>  <hydrogen_bond_donors>  (769) 
10

>  <hydrogen_bond_acceptors_lipinski>  (769) 
12

>  <hydrogen_bond_donors_lipinski>  (769) 
10

>  <lipinski_rule_of_five_violations>  (769) 
3

>  <aromatic_rings_count>  (769) 
4

>  <qed_drug_likeliness>  (769) 
0.16

>  <formal_charge>  (769) 
0

>  <fractioncsp3>  (769) 
0.20

>  <number_of_minimal_rings>  (769) 
6

>  <van_der_walls_volume>  (769) 
475.14

>  <contains_sugar>  (769) 
False

>  <contains_ring_sugars>  (769) 
False

>  <contains_linear_sugars>  (769) 
False

>  <murcko_framework>  (769) 
O1c2ccccc2C(c3cccc4c3OC(c5ccccc5)CC4)CC1c6ccccc6

>  <np_likeness>  (769) 
1.93

>  <chemical_class>  (769) 
Flavonoids

>  <chemical_sub_class>  (769) 
Biflavonoids and polyflavonoids

>  <chemical_super_class>  (769) 
Phenylpropanoids and polyketides

>  <direct_parent_classification>  (769) 
Biflavonoids and polyflavonoids

>  <np_classifier_pathway>  (769) 
Shikimates and Phenylpropanoids

>  <np_classifier_superclass>  (769) 
Flavonoids

>  <np_classifier_class>  (769) 
Proanthocyanins

>  <np_classifier_is_glycoside>  (769) 
False

>  <organisms>  (769) 
Abies bifolia|Acacia adunca|Aconitum pseudohuiliense|Aconitum sachalinense|Acrotrema uniflorum|Actinidia chinensis|Actinopyga agassizi|Adiantum lunulatum|Aesculus hippocastanum|Aguacate|Albizia lebbeck|Alcea rosea|Alcyonium molle|Alcyonium utinomii|Aldisa sanguinea|Alhagi sparsifolia|Alkanna cappadocica|Alpinia blepharocalyx|Alstonia deplanchei|Alstonia spathulata|Amanita cokeri|Amathia pinnata|Anacystis montana|Anguilla japonica|Annona cornifolia|Annona reticulata|Antenoron neofiliforme|Aonidiella aurantii|Aplidium tabascum|Aplophyllum popovii|Aplysina archeri|Apocynum cannabinum|Apocynum venetum|Arabidopsis thaliana|Arachis Hypogaea|Arachis hypogaea|Araiostegiella perdurans|Arcyria denudata|Areca catechu|Artemisia assoana|Artemisia dentata|Aspergillus carneus|Aspergillus striatus|Aster bellidiastrum|Asteriscus graveolens|Asterospicularia laurae|Astragalus sempervirens|Atalantia racemosa|Averrhoa Carambola|Baccharis megapotamica|Balanops australiana|Banisteriopsis caapi|Begonia fagifolia|Betula|Bishovia boliviensis|Blastochloris viridis|Bombus muscorum|Buddleja cordata|Buphane fischeri|Cacalia bicolor|Calliphora vicina|Calluna sp.|Calluna vulgaris|Calostephane divaricata|Camellia Sinensis|Camellia reticulata|Camellia sinensis|Campylotropis hirtella|Capsicum annuum|Caragana aurantiaca|Cassia fistula|Castanea|Cecropia glaziovii|Cecropia hololeuca|Centrosema pascuorum|Ceratozamia fuscoviridis|Chaenomeles sinensis|Chaenomeles speciosa|Chromatium okenii|Cicer arietinum|Cinamomum cassia|Cinchona pubescens|Cinnamomum Cassia|Cinnamomum aromaticum|Cinnamomum bejolghota|Cinnamomum burmanni|Cinnamomum camphora|Cinnamomum cassia|Cinnamomum sieboldii|Cinnamomum sp.|Cinnamomum zeylanicum|Cinnamon|Citrus glauca|Codium decorticatum|Cola acuminata|Cola nitida|Coleogyne ramosissima|Cortinarius odoratus|Cotoneaster spp|Cotoneaster spp.|Cotyledon secunda|Crambe tatarica|Crataegus|Crataegus laevigata|Crataegus monogyna|Crataegus oxyacantha L. (1753)|Crataegus pinnatifida|Crataegus sp.|Crataegus spp|Crataegus spp.|Critonia quadrangularis|Croton lechleri|Cryptocarya obovata|Cryptotermes cynocephalus|Cucurbita pepo|Curarea candicans|Cydonia|Cydonia oblonga|Cynomorium songaricum|Dacrydium fonki|Daucus carota|Davallia bullata|Davallia divaricata|Davallia mariesii|Davallia trichomanoides|Deutzia corymbosa|Dimocarpus longan|Dioscorea alata|Dioscorea cirrhosa|Diospyros eriantha|Diospyros kaki|Dolomiaea souliei|Drechslera avenae|Dryopteris sp.|Dumortiera hirsuta|Elatophilus hebraicus|Eleutherobia albiflora|Erigeron crispus|Eriobotrya Japonica|Eriobotrya japonica|Eucalyptus camaldulensis|Eucalyptus jenseni|Eucalyptus melliodora|Eudistoma bituminis|Eunicea mammosa|Euonymus tingens|Eupatorium gracile|Euphorbia cornigera|Euphoria longan|Fagopyrum Esculentum|Fagopyrum cymosum|Fagopyrum dibotrys|Fagopyrum esculentum|Fallopia multiflora|Ficus carica|Ficus simplicissima|Flemingia congesta|Fomes cajanderi|Fragaria|Fragaria sp.|Fragaria vesca|Fragaria x ananassa|Fritillaria ningguoensis|Gambier|Garcinia mangostana|Gentiana germanica|Geranium sanguineum|Gnetum latifolium|Goniothalamus malayanus|Gorgonocephalus caryi|Griselinia littoralis|Guazuma Ulmifolia|Guazuma ulmifolia|Gymnopus confluens|Gymnosporia senegalensis|Halimodendron halodendron|Haplophyllum dauricum|Harungana sp.|Hedysarum connatum|Helietta longifoliata|Helipterum roseum|Hoffmannia strigillosa|Houttuynia cordata|Humulus lupulus|Hylocomium splendens|Hypericum erectum|Hypericum japonicum|Hypericum laricifolium|Hypericum perforatum|Hypericum sp.|Illicium anisatum|Ipomoea digitata|Iryanthera megistophylla|Juniperus rigida var. conferta|Juniperus sabina|Juniperus sp.|Kandelia candel|Kokoona reflexa|Larix gmelinii|Laurencia spectabilis|Laurus Nobilis|Leathesia nana|Lecanora planaica|Lemaireocereus griseus|Lens culinaris|Lepisorus ussuriensis|Leptogorgia sarmentosa|Lindera umbellata|Lonicera hypoleuca|Lotus corniculatus|Lysimachia mauritiana|Macrolepiota neomastoidea|Maesa ramentacea|Malus domestica|Malus pumila|Malus sp.|Malus spp|Malus spp.|Marrubium anisodon|Marrubium supinum|Maytenus aquifolium|Maytenus senegalensis|Melastoma candidum|Melastoma malabathricum subsp. normale|Melastoma septemnervium|Melilotus tauricus|Melolontha melolontha|Mespilus germanica|Metalasia bolusii|Millettia erythrocalyx|Millettia laurentii|Monodora tenuifolia|Monteverdia aquifolium|Musa|Musanga cecropioides|Mycobacterium leprae|Myelochroa aurulenta|Nasutitermes ephratae|Naucleopsis ternstroemiiflora|Negombata magnifica|Nelia pillansii|Nelumbo nucifera|Nicotiana sylvestris|Nototodarus sloanii|Ocimum tenuiflorum|Ononis vaginalis|Ornithorhynchus anatinus|Orthosphenia mexicana|Oxyanthus speciosus|Paeonia rockii|Pastinaca sativa|Peltostigma guatemalense|Penicillium janczewskii|Pentagramma triangularis|Persea americana|Phaseolus vulgaris|Phoebe pittieri|Phyllanthus niruri|Picea abies|Pinus radiata|Pinus strobus|Pinus sylvestris|Pisum sativum|Plantanus orientalis|Pluchea odorata|Poria selecta|Premna odorata|Prorocentrum micans|Prunus armeniaca|Prunus avium|Prunus domestica|Prunus dulcis|Prunus persica|Pseudoalteromonas luteoviolacea|Pseudocyphellaria impressa|Pseudoparmelia sphaerospora|Pseudoplexaura flagellosa|Pseudotsuga menziesii|Psidium friedrichsthalianum|Psidium guajava|Psorospermum febrifugum|Pteris semipinnata|Pyrus communis|Quercus dentata|Rapanea lancifolia|Rauvolfia vomitoria|Relhania pumila|Rhamnus lotus|Rheum|Rheum sp.|Rheum tanguticum|Rhinoceros sondaicus|Rhizophora stylosa|Rhododendron|Ribes rubrum|Ribes sanguineum|Rubus|Rubus chamaemorus|Rubus idaeus|Rumex acetosa|Rumex maritimus|Sabina sargentii|Salacia lehmbachii|Salacia prinoides|Salmonella enterica subsp. enterica serovar typhimurium|Salvia hispanica|Salvia syriaca|Salvia yosgadensis|Saraca asoca|Saxifraga stolonifera|Scleronephthya pallida|Scorzonera pseudodivaricata|Scutellaria amoena|Senecio latifolius|Senecio rivularis|Senecio vellereus|Serpocaulon triseriale|Sideritis brevibracteata|Sideroxylon cubense|Sideroxylon inerme|Sinularia depressa|Solanum elaeagnifolium|Solanum laxum|Solanum melongena|Spatholobus suberectus|Spirotropis longifolia|Stevia aristata|Stevia mercedensis|Streptomyces alboniger|Streptomyces avermectinius|Streptomyces xantholiticus|Strongylocentrotus droebachiensis|Strychnos tabascana|Styrax perkinsiae|Swertia franchetiana|Swinglea glutinosa|Symploca hydnoides|Syncarpia hillii|Tetranthera citrata|Theobroma Cacao|Theobroma cacao|Theobroma sp.|Thuja standishii|Thujopsis dolabrata|Tilia sp.|Trametes cinnabarina|Trichilia catigua|Triticum aestivum|Uncaria gambir|Uncaria macrophylla|Uncaria rhynchophylla|Uncaria sinensis|Urceola micrantha|Vaccinium macrocarpon|Vaccinium myrtillus|Vaccinium oxycoccos|Vaccinium sp.|Vaccinium vitis-idaea|Verbesina rupestris|Vicia faba|Viguiera decurrens|Viguiera incana|Vismia baccifera|Vitis Vinifera|Vitis labrusca|Vitis rotundifolia|Vitis sp.|Vitis vinifera|Wibelia divaricata|Widely distributed in plant|Wikstroemia retusa|Xenoacremonium recifei|Zanthoxylum piperitum|Zanthoxylum tetraspermum|Ziziphus jujuba|broad bean|cacao|ecdysanthera utilis|guarana|lettuce|pomegranate|star fruit|tomato

>  <collections>  (769) 
ANPDB|Australian natural products|CMAUP (cCollective molecular activities of useful plants)|ChemSpider NPs|ConMedNP|FooDB|GNPS (Global Natural Products Social Molecular Networking)|InflamNat|Latin America dataset|NANPDB (Natural Products from Northern African Sources)|NAPRORE-CR|NPASS|NPEdia|NuBBEDB|Phenol-explorer|Phyto4Health|PhytoLab phyproof® Reference Substances|Super Natural II|TCMDB-Taiwan (Traditional Chinese Medicine database)|TIPdb (database of Taiwan indigenous plants)|VietHerb|WikiData Natural Products

>  <dois>  (769) 
10.1002/%28SICI%291099-1573%28199902%2913:1%3C31::AID-PTR381%3E3.0.CO;2-C/epdf|10.1002/(SICI)1099-1565(199801/02)9:1<21::AID-PCA377>3.0.CO;2-W|10.1002/(SICI)1099-1565(200003/04)11:2<106::AID-PCA496>3.0.CO;2-O|10.1002/(SICI)1099-1573(199902)13:1<31::AID-PTR381>3.0.CO;2-C|10.1002/(sici)1099-1573(199902)13:1<31::aid-ptr381>3.0.co;2-c|10.1002/ARDP.19843170808|10.1002/ARDP.19913240207|10.1002/ELPS.201300646|10.1002/HLCA.200890142|10.1002/JCCS.199600013|10.1002/JMS.2954|10.1002/JMS.3423|10.1002/JMS.3818|10.1002/JSFA.7075|10.1002/MNFR.200500064|10.1002/PTR.1249|10.1002/mnfr.201400370|10.1002/ptr.1249|10.1006/FSTL.2001.0843|10.1007/BF00381261|10.1007/BF00580451|10.1007/BF01202512|10.1007/BF02291535|10.1007/BF02291536|10.1007/BF02291537|10.1007/BF02490789|10.1007/S00217-002-0603-1|10.1007/S002170100354|10.1007/S11418-007-0182-3|10.1007/S11418-008-0239-Y|10.1016/0031-9422(75)85197-1|10.1016/0031-9422(82)80150-7|10.1016/0031-9422(88)84117-7|10.1016/0031-9422(89)80138-4|10.1016/0031-9422(89)80370-X|10.1016/0031-9422(90)80121-V|10.1016/0031-9422(91)84228-K|10.1016/0031-9422(92)80317-8|10.1016/0031-9422(93)85231-F|10.1016/0031-9422(95)00144-V|10.1016/0031-9422(95)00602-8|10.1016/0031-9422(95)00855-1|10.1016/0031-9422(96)00122-7|10.1016/J.FITOTE.2009.08.015|10.1016/J.FOODCHEM.2005.02.007|10.1016/J.FOODCHEM.2005.11.053|10.1016/J.FOODCHEM.2020.128444|10.1016/J.FOODRES.2004.10.005|10.1016/J.JEP.2008.06.006|10.1016/J.JEP.2009.10.030|10.1016/J.PHYMED.2008.02.006|10.1016/J.PLAPHY.2015.04.008|10.1016/S0021-9673(99)00043-6|10.1016/S0021-9673(99)00281-2|10.1016/S0021-9673(99)00684-6|10.1016/S0031-9422(00)00192-8|10.1016/S0031-9422(00)81524-1|10.1016/S0031-9422(00)83481-0|10.1016/S0031-9422(00)83483-4|10.1016/S0031-9422(00)84524-0|10.1016/S0031-9422(00)84902-X|10.1016/S0031-9422(00)94532-1|10.1016/S0031-9422(00)95213-0|10.1016/S0031-9422(02)00051-1|10.1016/S0031-9422(02)00172-3|10.1016/S0031-9422(97)00489-5|10.1016/S0031-9422(98)00571-8|10.1016/S0939-6411(03)00046-8|10.1016/S0963-9969(00)00070-3|10.1016/j.foodchem.2020.128444|10.1021/ACS.JNATPROD.8B00953|10.1021/JF00048A016|10.1021/JF000549H|10.1021/JF00074A022|10.1021/JF0009753|10.1021/JF00097A031|10.1021/JF011083L|10.1021/JF0116202|10.1021/JF034475W|10.1021/JF0346298|10.1021/JF035416L|10.1021/JF049317Z|10.1021/JF049450R|10.1021/JF050457Y|10.1021/JF0721038|10.1021/JF302848U|10.1021/JF9601628|10.1021/JF970468U|10.1021/JF970753D|10.1021/NP000128U|10.1021/NP000583Q|10.1021/NP010414L|10.1021/NP020169L|10.1021/NP030510H|10.1021/NP50040A016|10.1021/acs.jafc.8b02066|10.1021/acs.jnatprod.8b00953|10.1021/np000128u|10.1021/np010414l|10.1021/np020169l|10.1023/B:CONC.0000025479.07578.5D|10.1039/C39810000781|10.1039/P19830002139|10.1039/P19840000343|10.1046/J.0007-0963.2001.04558.X|10.1055/S-0031-1299862|10.1055/S-2003-43208|10.1055/S-2005-871225|10.1055/S-2006-959719|10.1055/S-2006-961020|10.1055/S-2006-961539|10.1055/S-2007-969386|10.1078/0944-7113-00003|10.1080/10826079208018822|10.1081/JLC-120008754|10.1104/PP.109.148031|10.1104/PP.69.2.522|10.1111/J.1745-4557.2003.TB00243.X|10.1142/S0192415X01000198|10.1186/S12864-015-1547-8|10.1248/BPB.25.748|10.1248/CPB.30.4277|10.1248/CPB.32.3787|10.1248/CPB.33.3142|10.1248/CPB.33.3293|10.1248/CPB.33.4338|10.1248/CPB.34.4083|10.1248/CPB.34.633|10.1248/CPB.34.643|10.1248/CPB.35.1105|10.1248/CPB.35.4717|10.1248/CPB.36.39|10.1248/CPB.36.828|10.1248/CPB.37.3255|10.1248/CPB.37.77|10.1248/CPB.38.888|10.1248/CPB.39.2179|10.1248/CPB.40.2092|10.1248/CPB.41.1491|10.1248/CPB.48.687|10.1248/CPB.55.268|10.1248/YAKUSHI1947.114.2_129|10.1271/BBB.50669|10.1515/ZNB-1985-0630|10.1515/ZNC-1985-7-812|10.1515/ZNC-1999-1114|10.1515/hfsg.1977.31.1.20|10.1590/S0103-50532011001100010|10.17660/ACTAHORTIC.1994.381.64|10.3390/12051163|10.3390/12081950|10.3390/MOLECULES22101606|10.3390/molecules22010011|10.3390/plants6040050|10.3797/SCIPHARM.AUT-05-10|10.5344/AJEV.1987.38.4.277

>  <synonyms>  (769) 
nan

>  <cas>  (769) 
29106-49-8

$$$$

     RDKit          2D

 27 30  0  0  0  0  0  0  0  0999 V2000
    8.1552   -0.3061    0.0000 C   0  0  0  0  0  0  0  0  0  0  0  0
    6.7023   -0.6791    0.0000 C   0  0  0  0  0  0  0  0  0  0  0  0
    5.6528    0.3926    0.0000 C   0  0  0  0  0  0  0  0  0  0  0  0
    4.1999    0.0196    0.0000 C   0  0  0  0  0  0  0  0  0  0  0  0
    4.8196   -1.3464    0.0000 O   0  0  0  0  0  0  0  0  0  0  0  0
    3.9464   -2.5660    0.0000 C   0  0  0  0  0  0  0  0  0  0  0  0
    2.9622   -0.8278    0.0000 C   0  0  0  0  0  0  0  0  0  0  0  0
    1.6095   -0.1797    0.0000 C   0  0  0  0  0  0  0  0  0  0  0  0
    1.4945    1.3159    0.0000 C   0  0  0  0  0  0  0  0  0  0  0  0
    2.7321    2.1634    0.0000 C   0  0  0  0  0  0  0  0  0  0  0  0
    4.0849    1.5152    0.0000 C   0  0  0  0  0  0  0  0  0  0  0  0
    5.3226    2.3626    0.0000 O   0  0  0  0  0  0  0  0  0  0  0  0
    0.0365    1.6687    0.0000 O   0  0  0  0  0  0  0  0  0  0  0  0
   -0.7495    0.3911    0.0000 C   0  0  0  0  0  0  0  0  0  0  0  0
   -2.2451    0.2760    0.0000 C   0  0  0  0  0  0  0  0  0  0  0  0
   -2.8932   -1.0767    0.0000 C   0  0  0  0  0  0  0  0  0  0  0  0
   -4.3888   -1.1918    0.0000 C   0  0  0  0  0  0  0  0  0  0  0  0
   -5.0369   -2.5445    0.0000 O   0  0  0  0  0  0  0  0  0  0  0  0
   -4.1895   -3.7822    0.0000 C   0  0  0  0  0  0  0  0  0  0  0  0
   -5.2362    0.0459    0.0000 C   0  0  0  0  0  0  0  0  0  0  0  0
   -6.7230    0.2443    0.0000 O   0  0  0  0  0  0  0  0  0  0  0  0
   -6.9938    1.7197    0.0000 C   0  0  0  0  0  0  0  0  0  0  0  0
   -5.6743    2.4331    0.0000 O   0  0  0  0  0  0  0  0  0  0  0  0
   -4.5881    1.3987    0.0000 C   0  0  0  0  0  0  0  0  0  0  0  0
   -3.0925    1.5137    0.0000 C   0  0  0  0  0  0  0  0  0  0  0  0
    0.2227   -0.7512    0.0000 C   0  0  0  0  0  0  0  0  0  0  0  0
   -0.1301   -2.2092    0.0000 C   0  0  0  0  0  0  0  0  0  0  0  0
  1  2  2  0
  2  3  1  0
  4  3  1  1
  4  5  1  0
  5  6  1  0
  4  7  1  0
  7  8  2  0
  8  9  1  0
  9 10  2  0
 10 11  1  0
 11 12  2  0
  9 13  1  0
 13 14  1  0
 14 15  1  6
 15 16  2  0
 16 17  1  0
 17 18  1  0
 18 19  1  0
 17 20  2  0
 20 21  1  0
 21 22  1  0
 22 23  1  0
 23 24  1  0
 24 25  2  0
 14 26  1  0
 26 27  1  6
 11  4  1  0
 25 15  1  0
 26  8  1  0
 24 20  1  0
M  END
>  <identifier>  (770) 
CNP0368260.2

>  <canonical_smiles>  (770) 
C=CC[C@@]1(OC)C=C2C(=CC1=O)O[C@@H](C1=CC(OC)=C3OCOC3=C1)[C@H]2C

>  <standard_inchi>  (770) 
InChI=1S/C21H22O6/c1-5-6-21(24-4)10-14-12(2)19(27-15(14)9-18(21)22)13-7-16(23-3)20-17(8-13)25-11-26-20/h5,7-10,12,19H,1,6,11H2,2-4H3/t12-,19+,21+/m0/s1

>  <standard_inchi_key>  (770) 
LXIDLKZYDJVPIV-VYAXVDJTSA-N

>  <name>  (770) 
nan

>  <iupac_name>  (770) 
(2~{R},3~{S},5~{R})-5-allyl-5-methoxy-2-(7-methoxy-1,3-benzodioxol-5-yl)-3-methyl-2,3-dihydrobenzofuran-6-one

>  <annotation_level>  (770) 
4

>  <total_atom_count>  (770) 
49

>  <heavy_atom_count>  (770) 
27

>  <molecular_weight>  (770) 
370.4

>  <exact_molecular_weight>  (770) 
370.14164

>  <molecular_formula>  (770) 
C21H22O6

>  <alogp>  (770) 
3.49

>  <topological_polar_surface_area>  (770) 
63.22

>  <rotatable_bond_count>  (770) 
5

>  <hydrogen_bond_acceptors>  (770) 
6

>  <hydrogen_bond_donors>  (770) 
0

>  <hydrogen_bond_acceptors_lipinski>  (770) 
6

>  <hydrogen_bond_donors_lipinski>  (770) 
0

>  <lipinski_rule_of_five_violations>  (770) 
0

>  <aromatic_rings_count>  (770) 
1

>  <qed_drug_likeliness>  (770) 
0.74

>  <formal_charge>  (770) 
0

>  <fractioncsp3>  (770) 
0.38

>  <number_of_minimal_rings>  (770) 
4

>  <van_der_walls_volume>  (770) 
nan

>  <contains_sugar>  (770) 
False

>  <contains_ring_sugars>  (770) 
False

>  <contains_linear_sugars>  (770) 
False

>  <murcko_framework>  (770) 
O1c2ccc(cc2OC1)C3OC4=CCCC=C4C3

>  <np_likeness>  (770) 
2.37

>  <chemical_class>  (770) 
Benzodioxoles

>  <chemical_sub_class>  (770) 
Benzodioxoles

>  <chemical_super_class>  (770) 
Organoheterocyclic compounds

>  <direct_parent_classification>  (770) 
Benzodioxoles

>  <np_classifier_pathway>  (770) 
Shikimates and Phenylpropanoids

>  <np_classifier_superclass>  (770) 
Lignans

>  <np_classifier_class>  (770) 
Neolignans

>  <np_classifier_is_glycoside>  (770) 
False

>  <organisms>  (770) 
Aniba riparia|Aniba simulans|Aniba taubertiana

>  <collections>  (770) 
Latin America dataset|NuBBEDB|Super Natural II|WikiData Natural Products|ZINC NP

>  <dois>  (770) 
10.1016/S0031-9422(00)83890-X|10.1016/S0031-9422(00)89244-4

>  <synonyms>  (770) 
(2R3S5R)-5-Allyl-5-methoxy-2-(3'-methoxy-4'5'-methylenedioxyphenyl-3-methyl-2356-tetrahydro-6-oxobenzofuran

>  <cas>  (770) 
nan

$$$$

     RDKit          2D

 32 36  0  0  0  0  0  0  0  0999 V2000
   -6.4841   -2.4975    0.0000 C   0  0  0  0  0  0  0  0  0  0  0  0
   -5.6451   -1.2540    0.0000 C   0  0  0  0  0  0  0  0  0  0  0  0
   -6.3025    0.0942    0.0000 C   0  0  0  0  0  0  0  0  0  0  0  0
   -5.4636    1.3377    0.0000 C   0  0  0  0  0  0  0  0  0  0  0  0
   -3.9673    1.2329    0.0000 C   0  0  0  0  0  0  0  0  0  0  0  0
   -4.6247    2.5812    0.0000 C   0  0  0  0  0  0  0  0  0  0  0  0
   -3.1283    2.4763    0.0000 C   0  0  0  0  0  0  0  0  0  0  0  0
   -1.6320    2.3715    0.0000 C   0  0  0  0  0  0  0  0  0  0  0  0
   -0.9746    1.0233    0.0000 C   0  0  0  0  0  0  0  0  0  0  0  0
   -0.3172   -0.3250    0.0000 C   0  0  0  0  0  0  0  0  0  0  0  0
   -1.8135   -0.2202    0.0000 C   0  0  0  0  0  0  0  0  0  0  0  0
   -1.1561   -1.5685    0.0000 C   0  0  0  0  0  0  0  0  0  0  0  0
    0.3402   -1.6733    0.0000 C   0  0  0  0  0  0  0  0  0  0  0  0
    0.9976   -3.0215    0.0000 O   0  0  0  0  0  0  0  0  0  0  0  0
    1.1791   -0.4298    0.0000 C   0  0  0  0  0  0  0  0  0  0  0  0
    2.6755   -0.5346    0.0000 C   0  0  0  0  0  0  0  0  0  0  0  0
    1.8365   -1.7781    0.0000 C   0  0  0  0  0  0  0  0  0  0  0  0
    3.3329   -1.8829    0.0000 C   0  0  0  0  0  0  0  0  0  0  0  0
    4.8292   -1.9877    0.0000 C   0  0  0  0  0  0  0  0  0  0  0  0
    5.6681   -0.7442    0.0000 C   0  0  0  0  0  0  0  0  0  0  0  0
    7.1645   -0.8490    0.0000 O   0  0  0  0  0  0  0  0  0  0  0  0
    5.0107    0.6041    0.0000 C   0  0  0  0  0  0  0  0  0  0  0  0
    4.8541    2.0959    0.0000 C   0  0  0  0  0  0  0  0  0  0  0  0
    6.4527    1.0173    0.0000 C   0  0  0  0  0  0  0  0  0  0  0  0
    3.5144    0.7089    0.0000 C   0  0  0  0  0  0  0  0  0  0  0  0
    2.8570    2.0571    0.0000 C   0  0  0  0  0  0  0  0  0  0  0  0
    1.3607    2.1619    0.0000 C   0  0  0  0  0  0  0  0  0  0  0  0
    0.5217    0.9185    0.0000 C   0  0  0  0  0  0  0  0  0  0  0  0
   -0.1357    2.2667    0.0000 C   0  0  0  0  0  0  0  0  0  0  0  0
   -3.3099   -0.1154    0.0000 C   0  0  0  0  0  0  0  0  0  0  0  0
   -4.1488   -1.3588    0.0000 C   0  0  0  0  0  0  0  0  0  0  0  0
   -3.4914   -2.7071    0.0000 C   0  0  0  0  0  0  0  0  0  0  0  0
  2  1  1  6
  2  3  1  0
  3  4  1  0
  4  5  1  0
  5  6  1  1
  5  7  1  0
  7  8  1  0
  8  9  1  0
  9 10  1  6
  9 11  1  0
 11 12  2  0
 12 13  1  0
 13 14  2  0
 13 15  1  0
 15 16  1  0
 16 17  1  1
 16 18  1  0
 18 19  1  0
 19 20  1  0
 20 21  1  1
 20 22  1  0
 22 23  1  0
 22 24  1  0
 22 25  1  0
 25 26  1  0
 26 27  1  0
 27 28  1  0
 28 29  1  1
 11 30  1  0
 30 31  1  0
 31 32  1  1
 31  2  1  0
 30  5  1  0
 28  9  1  0
 28 15  1  0
 25 16  1  0
M  END
>  <identifier>  (771) 
CNP0176785.2

>  <canonical_smiles>  (771) 
C[C@@H]1CC[C@]2(C)CC[C@]3(C)C(=CC(=O)C4[C@@]5(C)CC[C@H](O)C(C)(C)C5CC[C@]43C)C2[C@H]1C

>  <standard_inchi>  (771) 
InChI=1S/C30H48O2/c1-18-9-12-27(5)15-16-29(7)20(24(27)19(18)2)17-21(31)25-28(6)13-11-23(32)26(3,4)22(28)10-14-30(25,29)8/h17-19,22-25,32H,9-16H2,1-8H3/t18-,19+,22?,23+,24?,25?,27-,28+,29-,30-/m1/s1

>  <standard_inchi_key>  (771) 
UHBYXZSSQWLZHC-ZKEFPEJCSA-N

>  <name>  (771) 
(1S,2R,4aR,6aS,6bR,10S,12aS)-10-hydroxy-1,2,4a,6a,6b,9,9,12a-octamethyl-1,2,3,4,4a,5,6,6a,6b,7,8,8a,9,10,11,12,12a,12b,13,14b-icosahydropicen-13-one

>  <iupac_name>  (771) 
(1~{S},2~{R},4~{a}~{R},6~{a}~{S},6~{b}~{R},10~{S},12~{a}~{S})-10-hydroxy-1,2,4~{a},6~{a},6~{b},9,9,12~{a}-octamethyl-1,2,3,4,5,6,6~{a},7,8,8~{a},10,11,12,14~{b}-tetradecahydropicen-13-one

>  <annotation_level>  (771) 
5

>  <total_atom_count>  (771) 
80

>  <heavy_atom_count>  (771) 
32

>  <molecular_weight>  (771) 
440.71

>  <exact_molecular_weight>  (771) 
440.36543

>  <molecular_formula>  (771) 
C30H48O2

>  <alogp>  (771) 
7.20

>  <topological_polar_surface_area>  (771) 
37.30

>  <rotatable_bond_count>  (771) 
0

>  <hydrogen_bond_acceptors>  (771) 
2

>  <hydrogen_bond_donors>  (771) 
1

>  <hydrogen_bond_acceptors_lipinski>  (771) 
2

>  <hydrogen_bond_donors_lipinski>  (771) 
1

>  <lipinski_rule_of_five_violations>  (771) 
1

>  <aromatic_rings_count>  (771) 
0

>  <qed_drug_likeliness>  (771) 
0.43

>  <formal_charge>  (771) 
0

>  <fractioncsp3>  (771) 
0.90

>  <number_of_minimal_rings>  (771) 
5

>  <van_der_walls_volume>  (771) 
nan

>  <contains_sugar>  (771) 
False

>  <contains_ring_sugars>  (771) 
False

>  <contains_linear_sugars>  (771) 
False

>  <murcko_framework>  (771) 
C1=C2C3CCCCC3CCC2C4CCC5CCCCC5C4C1

>  <np_likeness>  (771) 
3.20

>  <chemical_class>  (771) 
Prenol lipids

>  <chemical_sub_class>  (771) 
Triterpenoids

>  <chemical_super_class>  (771) 
Lipids and lipid-like molecules

>  <direct_parent_classification>  (771) 
Taraxastane, ursane, and bauerane triterpenoids

>  <np_classifier_pathway>  (771) 
Terpenoids

>  <np_classifier_superclass>  (771) 
Triterpenoids

>  <np_classifier_class>  (771) 
Ursane and Taraxastane triterpenoids

>  <np_classifier_is_glycoside>  (771) 
False

>  <organisms>  (771) 
Esenbeckia grandiflora|Launaea arborescens

>  <collections>  (771) 
ANPDB|Latin America dataset|NANPDB (Natural Products from Northern African Sources)|NuBBEDB|WikiData Natural Products

>  <dois>  (771) 
10.1016/j.phytochem.2008.09.025|10.1590/S0100-40422009000800010

>  <synonyms>  (771) 
3-beta-hydroxy-11-oxo-urs-12-ene|SCHEMBL15163870|\u221a\u00e9\u00ac\u00b1-amyrenonol

>  <cas>  (771) 
nan

$$$$

     RDKit          2D

  9  9  0  0  0  0  0  0  0  0999 V2000
   -4.0444    0.0606    0.0000 C   0  0  0  0  0  0  0  0  0  0  0  0
   -2.5865    0.4135    0.0000 C   0  0  0  0  0  0  0  0  0  0  0  0
   -1.5520   -0.6727    0.0000 C   0  0  0  0  0  0  0  0  0  0  0  0
   -0.0941   -0.3198    0.0000 C   0  0  0  0  0  0  0  0  0  0  0  0
    0.3293    1.1192    0.0000 C   0  0  0  0  0  0  0  0  0  0  0  0
    1.7872    1.4721    0.0000 C   0  0  0  0  0  0  0  0  0  0  0  0
    2.8217    0.3860    0.0000 C   0  0  0  0  0  0  0  0  0  0  0  0
    2.3984   -1.0531    0.0000 C   0  0  0  0  0  0  0  0  0  0  0  0
    0.9405   -1.4059    0.0000 C   0  0  0  0  0  0  0  0  0  0  0  0
  1  2  1  0
  2  3  1  0
  3  4  1  0
  4  5  2  0
  5  6  1  0
  6  7  1  0
  7  8  1  0
  8  9  1  0
  9  4  1  0
M  END
>  <identifier>  (772) 
CNP0080648.0

>  <canonical_smiles>  (772) 
CCCC1=CCCCC1

>  <standard_inchi>  (772) 
InChI=1S/C9H16/c1-2-6-9-7-4-3-5-8-9/h7H,2-6,8H2,1H3

>  <standard_inchi_key>  (772) 
WCPWJMLXSZIWOP-UHFFFAOYSA-N

>  <name>  (772) 
Cyclohexene, 1-propyl-

>  <iupac_name>  (772) 
1-propylcyclohexene

>  <annotation_level>  (772) 
5

>  <total_atom_count>  (772) 
25

>  <heavy_atom_count>  (772) 
9

>  <molecular_weight>  (772) 
124.23

>  <exact_molecular_weight>  (772) 
124.1252

>  <molecular_formula>  (772) 
C9H16

>  <alogp>  (772) 
3.29

>  <topological_polar_surface_area>  (772) 
0.00

>  <rotatable_bond_count>  (772) 
2

>  <hydrogen_bond_acceptors>  (772) 
0

>  <hydrogen_bond_donors>  (772) 
0

>  <hydrogen_bond_acceptors_lipinski>  (772) 
0

>  <hydrogen_bond_donors_lipinski>  (772) 
0

>  <lipinski_rule_of_five_violations>  (772) 
0

>  <aromatic_rings_count>  (772) 
0

>  <qed_drug_likeliness>  (772) 
0.50

>  <formal_charge>  (772) 
0

>  <fractioncsp3>  (772) 
0.78

>  <number_of_minimal_rings>  (772) 
1

>  <van_der_walls_volume>  (772) 
nan

>  <contains_sugar>  (772) 
False

>  <contains_ring_sugars>  (772) 
False

>  <contains_linear_sugars>  (772) 
False

>  <murcko_framework>  (772) 
C1=CCCCC1

>  <np_likeness>  (772) 
-0.14

>  <chemical_class>  (772) 
Unsaturated hydrocarbons

>  <chemical_sub_class>  (772) 
Branched unsaturated hydrocarbons

>  <chemical_super_class>  (772) 
Hydrocarbons

>  <direct_parent_classification>  (772) 
Branched unsaturated hydrocarbons

>  <np_classifier_pathway>  (772) 
nan

>  <np_classifier_superclass>  (772) 
nan

>  <np_classifier_class>  (772) 
nan

>  <np_classifier_is_glycoside>  (772) 
False

>  <organisms>  (772) 
Caryocar coriaceum

>  <collections>  (772) 
Latin America dataset|NuBBEDB|WikiData Natural Products|ZINC NP

>  <dois>  (772) 
10.1021/JF00120A031|10.1021/jf00120a031

>  <synonyms>  (772) 
1-Propyl-1-cyclohexene|1-propylcyclohexene|2539-75-5|Cyclohexene,1-propyl-|DTXSID80180036|WCPWJMLXSZIWOP-UHFFFAOYSA-N

>  <cas>  (772) 
2539-75-5

$$$$

     RDKit          2D

 22 25  0  0  0  0  0  0  0  0999 V2000
    1.1181   -4.0234    0.0000 O   0  0  0  0  0  0  0  0  0  0  0  0
    0.4965   -2.6582    0.0000 C   0  0  0  0  0  0  0  0  0  0  0  0
   -0.9965   -2.5139    0.0000 O   0  0  0  0  0  0  0  0  0  0  0  0
   -1.6180   -1.1487    0.0000 C   0  0  0  0  0  0  0  0  0  0  0  0
   -3.1111   -1.0044    0.0000 C   0  0  0  0  0  0  0  0  0  0  0  0
   -3.9826   -2.2252    0.0000 O   0  0  0  0  0  0  0  0  0  0  0  0
   -3.7326    0.3608    0.0000 C   0  0  0  0  0  0  0  0  0  0  0  0
   -5.2256    0.5052    0.0000 O   0  0  0  0  0  0  0  0  0  0  0  0
   -2.8611    1.5817    0.0000 C   0  0  0  0  0  0  0  0  0  0  0  0
   -1.3680    1.4373    0.0000 C   0  0  0  0  0  0  0  0  0  0  0  0
   -0.7465    0.0722    0.0000 C   0  0  0  0  0  0  0  0  0  0  0  0
    0.7465   -0.0722    0.0000 C   0  0  0  0  0  0  0  0  0  0  0  0
    1.6180    1.1487    0.0000 C   0  0  0  0  0  0  0  0  0  0  0  0
    0.9965    2.5139    0.0000 O   0  0  0  0  0  0  0  0  0  0  0  0
   -0.4965    2.6582    0.0000 C   0  0  0  0  0  0  0  0  0  0  0  0
   -1.1181    4.0234    0.0000 O   0  0  0  0  0  0  0  0  0  0  0  0
    3.1111    1.0044    0.0000 C   0  0  0  0  0  0  0  0  0  0  0  0
    3.9826    2.2252    0.0000 O   0  0  0  0  0  0  0  0  0  0  0  0
    3.7326   -0.3608    0.0000 C   0  0  0  0  0  0  0  0  0  0  0  0
    5.2256   -0.5052    0.0000 O   0  0  0  0  0  0  0  0  0  0  0  0
    2.8611   -1.5817    0.0000 C   0  0  0  0  0  0  0  0  0  0  0  0
    1.3680   -1.4373    0.0000 C   0  0  0  0  0  0  0  0  0  0  0  0
  1  2  2  0
  2  3  1  0
  3  4  1  0
  4  5  2  0
  5  6  1  0
  5  7  1  0
  7  8  1  0
  7  9  2  0
  9 10  1  0
 10 11  2  0
 11 12  1  0
 12 13  2  0
 13 14  1  0
 14 15  1  0
 15 16  2  0
 13 17  1  0
 17 18  1  0
 17 19  2  0
 19 20  1  0
 19 21  1  0
 21 22  2  0
 22  2  1  0
 11  4  1  0
 22 12  1  0
 15 10  1  0
M  END
>  <identifier>  (773) 
CNP0224900.0

>  <canonical_smiles>  (773) 
O=C1OC2=C(O)C(O)=CC3=C2C2=C(OC3=O)C(O)=C(O)C=C12

>  <standard_inchi>  (773) 
InChI=1S/C14H6O8/c15-5-1-3-7-8-4(14(20)22-11(7)9(5)17)2-6(16)10(18)12(8)21-13(3)19/h1-2,15-18H

>  <standard_inchi_key>  (773) 
AFSDNFLWKVMVRB-UHFFFAOYSA-N

>  <name>  (773) 
ellagic acid

>  <iupac_name>  (773) 
6,7,13,14-tetrahydroxy-2,9-dioxatetracyclo[6.6.2.0^{4,16}.0^{11,15}]hexadeca-1(14),4,6,8(16),11(15),12-hexaene-3,10-dione

>  <annotation_level>  (773) 
5

>  <total_atom_count>  (773) 
28

>  <heavy_atom_count>  (773) 
22

>  <molecular_weight>  (773) 
302.19

>  <exact_molecular_weight>  (773) 
302.00627

>  <molecular_formula>  (773) 
C14H6O8

>  <alogp>  (773) 
1.31

>  <topological_polar_surface_area>  (773) 
141.34

>  <rotatable_bond_count>  (773) 
0

>  <hydrogen_bond_acceptors>  (773) 
8

>  <hydrogen_bond_donors>  (773) 
4

>  <hydrogen_bond_acceptors_lipinski>  (773) 
8

>  <hydrogen_bond_donors_lipinski>  (773) 
4

>  <lipinski_rule_of_five_violations>  (773) 
0

>  <aromatic_rings_count>  (773) 
4

>  <qed_drug_likeliness>  (773) 
0.22

>  <formal_charge>  (773) 
0

>  <fractioncsp3>  (773) 
0.00

>  <number_of_minimal_rings>  (773) 
4

>  <van_der_walls_volume>  (773) 
221.44

>  <contains_sugar>  (773) 
False

>  <contains_ring_sugars>  (773) 
False

>  <contains_linear_sugars>  (773) 
False

>  <murcko_framework>  (773) 
O1c2cccc3c2-c4c(OC3)cccc4C1

>  <np_likeness>  (773) 
1.07

>  <chemical_class>  (773) 
Tannins

>  <chemical_sub_class>  (773) 
Hydrolyzable tannins

>  <chemical_super_class>  (773) 
Phenylpropanoids and polyketides

>  <direct_parent_classification>  (773) 
Hydrolyzable tannins

>  <np_classifier_pathway>  (773) 
Shikimates and Phenylpropanoids

>  <np_classifier_superclass>  (773) 
Phenolic acids (C6-C1)

>  <np_classifier_class>  (773) 
Gallotannins

>  <np_classifier_is_glycoside>  (773) 
False

>  <organisms>  (773) 
Acaena magellanica|Acer buergerianum|Acer ginnala|Acer negundo|Achillea clypeolata|Acicarpha tribuloides|Acisanthera quadrata|Aconitum palmatum|Aconitum tianschanicum|Aframomum amaniense|Agaricus hortensis|Agave brittoniana|Aglaia elaeagnoidea|Aglaia laxiflora|Agonis flexuosa|Agrimonia Pilosa|Agrimonia pilosa|Agrimonia pilosa var. japonica|Agrimonia pilosa var.japonica|Agrobacterium rhizogenes|Ailanthus sp.|Albatrellus caeruleoporus|Albertisia papuana|Alchornea cordifolia|Alchornea laxiflora|Alectoria divergens|Aleurites sp.|Alexandrium excavatum|Alnus sieboldiana|Aloidendron sabaea|Aluterus|Alyxia reinwardtii|Amanita pseudoporphyria|Amomum daniellii|Anerincleistus grandiflorus|Anerincleistus pauciflorus|Anerincleistus purpureus|Angelica pubescens|Aniba rosaeodora|Anisophyllea disticha|Anthelia juratzkana|Aplidium orthium|Aplidium pallidum|Aplysilla rosea|Aplysinella rhax|Apterostigma dentigerum|Arbacia pustulosa|Arctostaphylos columbiana|Arctostaphylos patula|Arctostaphylos sp.|Areca catechu|Ariocarpus fissuratus|Aristolochia elegans|Aristolochia zollingeriana|Aronia arbutifolia|Artemisia carvifolia|Artemisia tournefortiana|Asiasarum heterotropoides|Aspergillus candidus|Astartea fascicularis|Astraeus pteridis|Astragalus asper|Astragalus gummifer|Astronia smilacifolia|Atalantia wightii|Athanasia crithmifolia|Atractylodes macrocephala|Aulacomnium androgynum|Babingtonia camphorosmae|Bacillus thuringiensis|Backhousia angustifolia|Baeckea frutescens|Balanophora involucrata|Balanophora japonica|Baphia bancoensis|Barringtonia acutangula|Barringtonia macrostachya|Barringtonia racemosa|Barringtonia reticulata|Barringtonia sarcostachys|Barringtonia scortechinii|Bartramia pomiformis|Beauveria felina|Beilschmiedia anacardioides|Benzoin praecox|Berberis julianae|Bertholletia excelsa|Betula pubescens|Bidens tripartita|Bistorta officinalis|Botryosphaeria berengeriana|Brahea armata|Brassica oleracea var. sabauda|Brassica rapa|Brenneria rubrifaciens|Breynia vitis-idaea|Bridelia ferruginea|Bridelia sp.|Bruguiera gymnorhiza|Bruguiera gymnorrhiza|Bryum pseudotriquetrum|Bussea sakalava|Bystropogon origanifolius|Cacalia robusta|Calcarisporium thermophilum|Callicarpa maingayi|Callistemon citrinus|Callistemon lanceolatus|Callistemon phoeniceus|Callistemon speciosus|Callitropsis funebris|Calodendrum capense|Calothamnus quadrifidus|Canarium album|Canarium sp.|Capsicum annuum|Cardamine pinnata|Cardiospermum halicacabum|Carpesium faberi|Carpinus betulus|Carya|Caryocar microcarpum|Caryocar villosum|Casimiroa tetrameria|Castanea|Castanea sativa|Castanea sp.|Castanopsis fissa|Casuarina Equisetifolia|Casuarina cunninghamiana|Casuarina cunninghamiana Miq.|Casuarina equisetifolia|Casuarina equisetifolia L.|Casuarina sp.|Cedrus libani|Centaurea arbutifolia|Centaurea linifolia|Centaurea musimomum|Centaurea nigrescens|Centaurea polypodiifolia|Centella asiatica|Cephalaria grossheimii|Cephalaria uralensis|Cerbera dilatata|Cercospora scirpi|Cerinthe minor|Chamaecyparis lawsoniana|Chamaenerion angustifolium|Chamerion angustifolium|Chamerion dodonaei|Changium smyrnioides|Cheimonophyllum candidissimum|Cheiropteris palmatopedata|Chlamydomonas allensworthii|Choerospondias axillaris|Chrysanthemum lavandulifolium|Chrysothamnus parryi|Chydenanthus excelsus|Cirsium japonicum|Cissus quinquefolia|Cistus creticus|Cladiella krempfi|Cladonia fallax|Cladonia pityrea|Claviceps microcephala|Cleidion brevipetiolatum|Clematis angustifolia|Clibadium mexiae|Clidemia rubra|Clusia multiflora|Cneoridium dumosum|Cneorum pulverulentum|Coccus ilicis|Cochlospermum sp.|Cochlospermum tinctorium|Codiaeum variegatum|Codonocarpus australis|Codonopsis cordifolioidea|Coespeletia moritziana|Coffea|Colchicum speciosum|Colubrina retusa|Combretum griffithii var. yunnanense|Combretum indicum|Combretum malabaricum|Combretum wallichii var. ternatum|Combretum yunnanensis|Commiphora mukul|Comolia lythrarioides|Comolia villosa|Conyza canadensis|Cordia curassavica|Coreopsis fasciculata|Coriandrum sativum|Coriaria intermedia|Cornus capitata|Cornus sp.|Corydalis persica|Corydalis sewerzowi|Corymbia calophylla|Corymbia citriodora|Corymbia ficifolia|Corynanthe pachyceras|Cosmos pringlei|Cota tinctoria|Couroupita guianensis|Couroupita subsessilis|Cowania mexicana|Craspidospermum verticillatum|Crataegus aestivalis|Crataegus laevigata|Crataegus monogyna|Crataegus oxyacantha L. (1753)|Crataegus rufula|Crateva nurvala|Crematogaster africana|Crepis foetida|Crinum defixum|Crotalaria aegyptiaca|Croton caudatus|Cryptolestes pusillus|Cryptosporium pinicola|Cunonia macrophylla|Cuphea carthagenensis|Cyamopsis sp.|Cyamopsis tetragonoloba|Cylindrospermopsis raciborskii|Cymbopogon proximus|Cynoglossum amabile|Dahlstedtia araripensis|Dahlstedtia pentaphylla|Daphne lancifolia|Dasiphora fruticosa|Daucus carota|Davallia orientalis|Decaspermum fruticosum|Dendranthema sp.|Derris uliginosa|Dianthus deltoides|Dichotomaria marginata|Dicoma capensis|Dictyopteris acrostichoides|Digitalis isabelliana|Dimocarpus longan|Dionaea muscipula|Dioscorea althaeoides|Dioscorea japonica|Dioscorea membranacea|Dioscoreophyllum cumminsii|Diospyros ebenum|Diospyros kaki|Diospyros lotus|Diospyros verrucosa|Diotis maritima|Dipentodon sinicus|Discaria serratifolia|Dissochaeta annulata|Dissochaeta bracteata|Dissochaeta sagittata|Dissotis rotundifolia|Dorstenia lindeniana|Duchesnea indica|Echium pininana|Ehretia dicksonii|Ekebergia senegalensis|Elaeagnus formosana|Elaeocarpus fuscoides|Eleutherococcus senticosus|Emblica officinalis|Encyothalia cliftonii|Epilobium dodonaei|Epilobium hirsutum|Epilobium roseum|Erium villosum|Erodium cicutarium|Erodium stephanianum|Erylus nobilis|Erythrina sacleuxii|Eschweilera coriacea|Eskemukerjea megacarpum|Eucalyptus botryoides|Eucalyptus camaldulensis|Eucalyptus capitellata|Eucalyptus cinerea|Eucalyptus citriodora|Eucalyptus deglupta|Eucalyptus globulus|Eucalyptus nitens|Eucalyptus redunca|Eucalyptus saligna|Eucalyptus sp.|Eucalyptus torquata|Eucalyptus youngiana|Eugenia crebrinervis|Eugenia gustavioides|Eugenia jambolana|Eugenia longifolia|Eugenia rufofulva|Euonymus nanoides|Euphausia superba|Euphorbia|Euphorbia Hirta|Euphorbia chamaesyce|Euphorbia ferganensis|Euphorbia glareosa|Euphorbia granulata|Euphorbia hirta|Euphorbia humifusa|Euphorbia iberica|Euphorbia lunulata|Euphorbia maculata|Euphorbia oblongifolia|Euphorbia pekinensis|Euphorbia pulcherrima|Euphorbia segetalis|Euphorbia sp.|Euphorbia turczaninowii|Euphoria longana|Exostema acuminatum|Fagara zanthoxyloides|Ficus cordata subsp. salicifolia|Ficus sarmentosa var. thunbergii|Filipendula sp.|Filipendula ulmaria|Flemingia philippinensis|Flueggea microcarpa|Flueggea sp.|Flueggea virosa|Fragaria|Fragaria chiloensis|Fragaria vesca|Fragaria x ananassa|Frankenia laevis|Fructus caryophylli|Fructus choerospondiatis|Fructus phyllanthi|Galphimia glauca|Garcinia hombroniana|Gardneria insularis|Genista sessilifolia|Gentiana manshurica|Gentiana rigescens|Gentiana scabra|Gentiana triflora|Geranium carolinianum|Geranium collinum|Geranium pratense|Geranium pusillum|Geranium robertianum|Geranium saxatile|Geranium sibiricum|Geranium sp.|Geranium sylvaticum|Geranium thunbergii|Geranium viscosissimum|Geranium wilfordii|Geum elatum|Geum japonicum|Geum macrophyllum|Glaucium corniculatum|Globularia elongata|Glycosmis pseudoracemosa|Glycyrrhiza lepidota|Gomphostemma parviflorum|Gustavia augusta|Gustavia gracillima|Haematoxylum campechianum|Haematoxylum sp.|Haliclona mucosa|Haplophyllum ferganicum|Harpephyllum afrum|Helenium argentinum|Heliomeris multiflora|Heterometra savignii|Heterotis rotundifolia|Hippobroma longiflora|Hippophae rhamnoides|Hippophae sp.|Homo sapiens|Hygrophorus eburneus|Hypericum ascyron|Hypericum japonicum|Hypoestes purpurea|Idea leuconoe|Ideopsis similis|Ilex hainanensis|Inula grantioides|Ircinia spinosula|Isaria felina|Ixeris stolonifera|Jacobaea adonidifolia|Jacobaea subalpina|Juglans|Juglans ailanthifolia|Juglans ailantifolia|Juglans nigra|Juglans regia|Juglans sigillata|Jugo|Juniperus horizontalis|Justicia hayatai|Justicia paniculata|Khaya ivorensis|Khaya senegalensis|Koelreuteria paniculata|Kunzea ambigua|Kunzea ericoides|Lactobacillus casei|Lafoensia glyptocarpa|Lagerstroemia indica|Lagerstroemia speciosa|Laguncularia racemosa|Lambertella corni|Lamellodysidea chlorea|Larix cajanderi|Lasiosiphon kraussianus|Lathyrus tingitanus|Lechevalieria aerocolonigenes|Lecythis ollaria|Lens culinaris|Lepidorhinus squamosus|Lepisanthes tetraphylla|Lepraria xanthina|Leptospermum laevigatum|Leptospermum petersonii|Leptospermum scoparium|Leucascandra caveolata|Libidibia ferrea|Ligularia dentata|Limonium axillare|Limonium gmelini|Limonium gmelinii|Liquidambar sp.|Lithospermum sp.|Lonchocarpus orotinus|Lophomyrtus bullata|Lophomyrtus obcordata|Lophostemon confertus|Lotus japonicus|Lumnitzera|Lupinus verbasciformis|Lycopus sp.|Lythrum salicaria|Macaranga barteri|Macaranga tanarius|Machaerium kuhlmannii|Machilus macrantha|Macowania glandulosa|Macrolenes muscosa|Macrolenes nemorosa|Magnolia sprengeri|Mallotus japonicus|Malus domestica|Malus pumila|Mangifera Indica|Mangifera indica|Markhamia lutea|Markhamia platycalyx|Marumia rhodocarpa|Meconopsis horridula|Medinilla clarkei|Medinilla crassinervia|Medinilla scortechinii|Melaleuca ericifolia|Melaleuca huegelii|Melaleuca lanceolata|Melaleuca leucadendra|Melaleuca quinquenervia|Melaleuca rhaphiophylla|Melaleuca squarrosa|Melaleuca styphelioides|Melastoma malabathricum|Melastoma molle|Melastoma muticum|Melastoma sanguineum|Melastoma schizocarpum|Melicope sarcococca|Melochia chamaedrys|Memecylon garcinioides|Mentha X piperita|Metrosideros carminea|Metrosideros colensoi|Metrosideros excelsa|Metrosideros fulgens|Metrosideros perforata|Metrosideros robusta|Metrosideros umbellata|Miconia albicans|Miconia attenuata|Miconia ciliata|Miconia laevigata|Miconia macrothyrsa|Miconia myriantha|Miconia prasina|Miconia spicata|Miconia tamana|Microtropis fokienensis|Miliusa sinensis|Millettia vatkei|Modiolus demissus|Moelleriella libera|Monochaetia compta|Morinda morindoides|Mortierella elongata|Morus alba|Morus cathayana|Morus rubra|Moullava digyna|Muntingia calabura|Murraya exotica|Murraya paniculata|Mycobacterium tuberculosis|Myrcia neoglabra|Myrciaria cauliflora|Myrciaria dubia|Myrmica rubra|Myrtaceae|Myrtella bennigseniana|Myrtus sp.|Mytilus galloprovincialis|Nama hispidum|Neomyrtus pedunculata|Neoshirakia japonica|Nepeta suavis|Nephelium lappaceum|Nepsera aquatica|Nymphaea alba|Ochthocharis decumbens|Oenothera speciosa|Onoseris alata|Osbeckia brachystemon|Osbeckia chinensis|Osbeckia cupularis|Osbeckia octandra|Oscillatoria princeps|Oscillochloris trichoides|Osmites hirsuta|Osteophloeum platyspermum|Oxera splendida|Oxyspora hispida|Ozoroa insignis|Pachycentria constricta|Pachycentria pulverulenta|Pachycentria varingaefolia|Pachycentria varingiaefolia|Paracaryum himalayense|Parastrephia lepidophylla|Parazoanthus gracilis|Penicillium|Penicillium alutaceum|Penicillium crustaceum|Penicillium paxilli|Penicillium sp.|Penstemon secundiflorus|Perovskia abrotanoides|Petriella sordida|Petrosia corticata|Peucedanum oroselinum|Phaseolus vulgaris|Phedimus kamtschaticus|Phlogacanthus thyrsiflorus|Phormia regina|Phyfnnvik eyyfn|Phyllagathis hispida|Phyllagathis rotundifolia|Phyllagathis tuberculata|Phyllanthus emblica|Phyllanthus niruri|Phyllanthus sp.|Phyllanthus urinaria|Phytolacca acinosa|Pieris napi|Piper acutifolium|Piper arboreum|Pittocaulon praecox|Planchonia valida|Platycarya Strobilacea|Platycarya strobilacea|Plectosphaerella cucumerina|Plectranthus caninus|Pleiogynium timorense|Pleiogynium timoriense|Pleocarphus revolutus|Pleogyne cunninghami|Pleogyne cunninghamii|Plinia cauliflora|Plocamium corallorhiza|Podalyria calyptrata|Polygala amara|Polysiphonia elongata|Polyspora axillaris|Populus angustifolia|Portulaca oleracea|Potamilla occelata|Potentilla chrysantha|Potentilla discolor|Potentilla erecta|Potentilla fruticosa|Potentilla sp.|Potentilla tormentilla|Pouzolzia occidentalis|Prunus avium|Psephellus bellus|Pseudallescheria boydii|Pseudococcus comstocki|Pseudophryne coriacea|Pseudopterogorgia rigida|Psidium guajava|Psilotum nudum|Pteris australis|Pteris dactylina|Pteris radiata|Pternandra caerulescens|Pternandra echinata|Pternandra hirtella|Pterolepis glomerata|Punica Granatum|Punica granatum|Punica sp.|Punicaceae|Punicagranatum|Purshia mexicana|Pyrola decorata|Pyrostegia venusta|Quercus cerris L.|Quercus coccifera|Quercus faginea|Quercus gambelii|Quercus ilex|Quercus ilex L.|Quercus infectoria|Quercus palustris Muencch.|Quercus petraea|Quercus petraea Liebl.|Quercus pubescens|Quercus pubescens Willd.|Quercus pyrenaica|Quercus robur|Quercus robur L.|Quercus rubra L.|Quercus serrata|Quercus suber|Quillaja sp.|Radix euphorbiae pekinensis|Radix ginseng korea|Radix rosae laevigatae|Rana amurensis|Rauvolfia salicifolia|Reaumuria hirtella|Reaumuria vermiculata|Rhabdodendron amazonicum|Rhabdodendron macrophyllum|Rhaponticum carthamoides|Rhinella arenarum|Rhizobium rhizogenes|Rhizoma codonopsis pilosulae|Rhizophora stylosa|Rhizoplaca baranowii|Rhodamnia cinerea|Rhodamnia rubescens|Rhodiola crenulata|Rhododendron dauricum|Rhodomyrtus tomentosa|Rhus chinensis|Ribes nigrum|Ricinus communis|Ricinus sp.|Rosa|Rosa chinensis|Rosa gallica|Rosa laevigata|Rosa platyacantha|Rosa rugosa|Rosa × damascena|Rubus adenotrichos|Rubus adenotrichus|Rubus arcticus|Rubus chamaemorus|Rubus chingii|Rubus corchorifolius|Rubus coreanus|Rubus idaeus|Rubus idaeus L.|Rubus lambertianus|Rubus occidentalis|Rubus palmatus|Rubus rosa|Rubus saxatilis|Rubus ursinus|Ruta microcarpa|Salmonella enterica subsp. enterica serovar bovismorbificans|Sanguisorba minor|Sanguisorba sp.|Santiria trimera|Sapium glandulosum|Sapium laurifolium|Sapium sp.|Sarcopyramis nepalensis|Sasa paniculata|Saxifraga azizoon|Schizonepeta multifida|Scilla maritima|Sclerotinia fructigena|Scopolia hladnikiana|Scytonema ocellatum|Sedum forsteri|Selinum carvifolium|Senecio inaequidens|Senecio renardii|Senecio sinuatus|Senecio zoellneri|Senegalia pennata|Senna siamea|Septoria pistaciarum|Serratula inermis|Sextonia rubra|Shorea sp.|Sidastrum acuminatum|Sideritis nutans|Siete cueros|Simplicillium lamellicola|Sinularia molesta|Siphoneugena densiflora|Solanum diflorum|Sonchus ortunoi|Sonerila albiflora|Sonerila begoniaefolia|Sonerila erecta|Sonerila nidularia|Sonerila obliqua|Sonerila prostrata|Sonerila rudis|Sonneratia alba|Sonneratia caseolaris|Sonneratia griffithii|Spirographis spallanzani|Staehelina fruticosa|Stenomesson miniatum|Stephania sutchuenensis|Stereospermum acuminatissimum|Stevia purpurea|Stomozoa murrayi|Streptomyces blastmyceticus|Streptomyces cellulosae|Streptomyces cellulosae TES17|Streptomyces fradiae|Streptomyces fumanus|Streptomyces kanamyceticus|Streptomyces lavendofoliae|Streptomyces odorifer|Streptomyces paulus|Strychnos spinosa|Styrax ferrugineus|Swartzia madagascariensis|Swertia japonica|Syncarpia glomulifera|Syncolostemon parviflorus|Syzygium Cumini|Syzygium aqueum|Syzygium aromaticum|Syzygium crebrinerve|Syzygium cumini|Syzygium grande|Syzygium gustavioides|Syzygium jambos|Syzygium maire|Syzygium malaccense|Syzygium pachyphyllum|Syzygium politum|Syzygium pycnanthum|Syzygium samarangense|Syzygium smithii|Syzygium sp.|Syzygium subdecussatum|Syzygium wrayi|Tamarix africana|Tamarix aphylla|Tamarix chinensis|Tamarix nilotica|Tamarix pakistanica|Tamarix senegalensis|Tanacetum parthenium|Taraxacum bicorne|Taxodium lanceolata|Tectaria subtriphylla|Terminalia Bellirica|Terminalia Chebula|Terminalia alata|Terminalia arjuna|Terminalia bellirica|Terminalia brassii|Terminalia catappa|Terminalia chebula|Terminalia complanata|Terminalia ivorensis|Terminalia myriocarpa|Terminalia pallida|Terminalia phellocarpa|Terminalia sp.|Terminalia superba|Tetradium glabrifolium|Tetragonotheca repanda|Tetraneuris acaulis|Thuja plicata|Thunia alba|Thymus vulgaris|Tibouchina semidecandra|Tilia sp.|Todarodes pacificus|Toxicodendron succedaneum|Toxicodendron sylvestre|Trapa bicornis|Trattinnickia glaziovii|Triadica sebifera|Triaenophora rupestris|Tridachia crispata|Triglochin maritima|Trigonella foenum-graecum|Tristania|Tristaniopsis calobuxus|Tristaniopsis obovata|Tristaniopsis whiteana|Tropicoporus linteus|Turbinaria ornata|Turbo argyrostoma|Turpinia arguta|Uncaria guianensis|Unonopsis glaucopetala|Unonopsis spectabilis|Urtica triangularis|Vaccinium angustifolium|Vaccinium corymbosum|Vaccinium macrocarpon|Vaccinium myrtillus|Valeriana fedtschenkoi|Valeriana officinalis|Vallaris heynei|Vellozia candida|Vellozia streptophylla|Vernicia cordata|Vernicia montana|Vernonanthura squamulosa|Verticordia densiflora|Vicia sylvatica|Vinca herbacea|Vincetoxicum hirundinaria|Viola arvensis|Virola multinervia|Viscaria viscosa|Vitellaria paradoxa|Vitex pinnata|Vitis rotundifolia|Vitis vinifera|Wolfiporia cocos|Woodfordia fruticosa|Xenia viridis|Xylopia brasiliensis|Xyris indica|Zanthoxylum monophyllum|Zieria smithii|Ziziphus jujuba|Zygosaccharomyces rouxii|bog bilberry|clove|common myrtle|pomegranate|sweet potato|terminalia bellirica|tomato|tristaniopsis sp.

>  <collections>  (773) 
ANPDB|AfroCancer|AfroMalariaDB|Australian natural products|CMAUP (cCollective molecular activities of useful plants)|ChEBI NPs|ChemSpider NPs|ConMedNP|DrugBankNP|EMNPD|ETM (Ethiopian Traditional Medicine) DB|FooDB|GNPS (Global Natural Products Social Molecular Networking)|HIT (Herbal Ingredients Targets)|InPACdb|Indofine Chemical Company|InflamNat|InterBioScreen Ltd|KNApSaCK|Latin America dataset|NANPDB (Natural Products from Northern African Sources)|NCI DTP data|NPACT|NPASS|NPAtlas|NPCARE|NPEdia|NuBBEDB|Phenol-explorer|Phyto4Health|PhytoLab phyproof® Reference Substances|PubChem NPs|StreptomeDB|Super Natural II|TCMDB-Taiwan (Traditional Chinese Medicine database)|TCMID (Traditional Chinese Medicine Integrated Database)|TIPdb (database of Taiwan indigenous plants)|TPPT (Toxic Plants–PhytoToxins)|UEFS (Natural Products Databse of the UEFS)|UNPD (Universal Natural Products Database)|VietHerb|WikiData Natural Products|p-ANAPL

>  <dois>  (773) 
10.1002/(SICI)1096-9888(199706)32:6<645::AID-JMS518>3.0.CO;2-P|10.1002/1521-4184(20008)333:8<275::AID-ARDP275>3.0.CO;2-4|10.1002/9780470744307.gat218|10.1002/ARDP.19062440805|10.1002/ARDP.19622951105|10.1002/CBDV.200700462|10.1002/JCCS.199500128|10.1002/JCCS.199700025|10.1002/JCCS.199900085|10.1002/JCCS.200000030|10.1002/JCCS.200700228|10.1002/JPS.2600551210|10.1002/JPS.2600620831|10.1002/JSFA.2740330512|10.1002/JSFA.5531|10.1002/JSFA.6627|10.1002/JSFA.7075|10.1002/PCA.2800040607|10.1002/PCA.548|10.1002/PTR.1214|10.1002/food.19880321030|10.1002/ps.1278|10.1007/978-94-007-4053-2_3|10.1007/978-94-007-4053-2_37|10.1007/BF00564277|10.1007/BF00565058|10.1007/BF00566112|10.1007/BF00567786|10.1007/BF00568280|10.1007/BF00568623|10.1007/BF00597729|10.1007/BF00598602|10.1007/BF00941716|10.1007/BF01100201|10.1007/BF02236305|10.1007/BF02236416|10.1007/BF02273936|10.1007/BF02467181|10.1007/BF02488668|10.1007/BF02977896|10.1007/BF03046638|10.1007/S00217-004-0918-1|10.1007/S002170000184|10.1007/S10600-005-0012-3|10.1007/S10600-005-0148-1|10.1007/S10600-007-0060-Y|10.1007/S10600-010-9649-7|10.1007/S10600-011-0014-2|10.1007/S10600-011-9907-3|10.1007/S10600-011-9956-7|10.1007/S10637-005-5856-7|10.1007/S11094-005-0104-1|10.1007/S11130-009-0133-0|10.1007/S11746-011-1770-7|10.1016/0021-9673(96)00169-0|10.1016/0031-9422(73)85145-3|10.1016/0031-9422(75)83047-0|10.1016/0031-9422(75)85321-0|10.1016/0031-9422(84)83057-5|10.1016/0031-9422(88)80184-5|10.1016/0031-9422(88)80753-2|10.1016/0031-9422(90)80135-4|10.1016/0031-9422(91)85260-7|10.1016/0031-9422(92)80177-G|10.1016/0031-9422(93)85422-N|10.1016/0031-9422(93)85553-4|10.1016/0031-9422(95)00935-3|10.1016/0031-9422(96)00110-0|10.1016/0031-9422(96)89675-0|10.1016/0305-1978(90)90119-Z|10.1016/0305-1978(94)90063-9|10.1016/0305-1978(95)00007-0|10.1016/0378-8741(87)90051-1|10.1016/B978-0-12-397934-6.00012-7|10.1016/J.BSE.2016.02.030|10.1016/J.FITOTE.2006.06.011|10.1016/J.FITOTE.2011.10.014|10.1016/J.FITOTE.2012.06.007|10.1016/J.FOODCHEM.2004.05.054|10.1016/J.FOODCHEM.2006.11.008|10.1016/J.FOODRES.2017.03.019|10.1016/J.JEP.2004.04.012|10.1016/J.JFCA.2004.11.003|10.1016/J.JNUTBIO.2005.01.006|10.1016/J.MAM.2010.09.005|10.1016/J.NEURO.2013.04.006|10.1016/J.PHYMED.2003.12.002|10.1016/J.PHYTOCHEM.2004.11.016|10.1016/J.PHYTOCHEM.2007.02.020|10.1016/J.PHYTOCHEM.2007.03.010|10.1016/J.PHYTOCHEM.2008.03.003|10.1016/J.PHYTOCHEM.2008.04.004|10.1016/J.PHYTOCHEM.2009.11.008|10.1016/J.PHYTOCHEM.2010.03.018|10.1016/J.PHYTOCHEM.2011.02.020|10.1016/J.PHYTOCHEM.2011.07.007|10.1016/J.TETLET.2009.01.158|10.1016/S0021-9673(01)87147-8|10.1016/S0021-9673(01)91487-6|10.1016/S0031-9422(00)00502-1|10.1016/S0031-9422(00)80559-2|10.1016/S0031-9422(00)82451-6|10.1016/S0031-9422(00)82468-1|10.1016/S0031-9422(00)85748-9|10.1016/S0031-9422(00)85837-9|10.1016/S0031-9422(00)86652-2|10.1016/S0031-9422(00)89647-8|10.1016/S0031-9422(00)89820-9|10.1016/S0031-9422(00)89943-4|10.1016/S0031-9422(00)90858-6|10.1016/S0031-9422(00)94507-2|10.1016/S0031-9422(00)97983-4|10.1016/S0031-9422(00)98234-7|10.1016/S0031-9422(01)00006-1|10.1016/S0031-9422(01)00365-X|10.1016/S0031-9422(02)00435-1|10.1016/S0031-9422(03)00198-5|10.1016/S0031-9422(82)85054-1|10.1016/S0031-9422(96)00888-6|10.1016/S0031-9422(97)00370-1|10.1016/S0031-9422(97)00670-5|10.1016/S0031-9422(97)01078-9|10.1016/S0304-3835(99)00160-3|10.1016/S0305-1978(00)00089-2|10.1016/S0367-326X(99)00060-X|10.1016/S0378-8741(02)00099-5|10.1016/S0378-8741(02)00121-6|10.1016/S0944-7113(98)80015-9|10.1016/S0963-9969(00)00086-7|10.1016/S0963-9969(99)00095-2|10.1016/S1383-5718(99)00040-6|10.1016/S2221-1691(12)60050-1|10.1016/j.phytochem.2004.11.016|10.1021/JA00351A050|10.1021/JF00035A026|10.1021/JF000404A|10.1021/JF010192X|10.1021/JF020028P|10.1021/JF020614I|10.1021/JF030267S|10.1021/JF049450R|10.1021/JF050721N|10.1021/JF051294G|10.1021/JF0612171|10.1021/JF0629080|10.1021/JF0636014|10.1021/JF071475D|10.1021/JF2011535|10.1021/JF802152Z|10.1021/JF900725E|10.1021/JF9502461|10.1021/JF960486W|10.1021/JF970863K|10.1021/NP000306J|10.1021/NP010172P|10.1021/NP010465I|10.1021/NP030041J|10.1021/NP0501031|10.1021/NP0600999|10.1021/NP50031A037|10.1021/NP50045A039|10.1021/NP50048A056|10.1021/NP50056A033|10.1021/NP800015P|10.1021/NP8004634|10.1021/NP960451Q|10.1021/NP980046U|10.1021/acs.jnatprod.8b00984|10.1021/jf101029a|10.1021/np000306j|10.1021/np010172p|10.1021/np50056a033|10.1021/np50088a003|10.1021/np8004634|10.1021/np960451q|10.1023/B:CONC.0000025477.18086.8B|10.1039/CT9222100066|10.1042/BJ0090240|10.1042/bj0090240|10.1055/S-0028-1099548|10.1055/S-0028-1099567|10.1055/S-0028-1099955|10.1055/S-0031-1273555|10.1055/S-0034-1383145|10.1055/S-2002-32549|10.1055/S-2003-37706|10.1055/S-2004-832617|10.1055/S-2006-957824|10.1055/S-2006-959635|10.1055/S-2007-967167|10.1055/S-2007-969559|10.1071/BT9690133|10.1071/CH9610660|10.1071/CH9620168|10.1071/CH9761135|10.1071/CH9761351|10.1071/bt9690133|10.1076/PHBI.39.2.155.6254|10.1078/0944-7113-00043|10.1080/09637480500524299|10.1080/1028602021000049087|10.1080/10408390802064404|10.1080/10408390802145377|10.1093/CARCIN/22.5.831|10.1111/J.1365-2621.1990.TB03581.X|10.1177/0091270005279636|10.1186/S12906-018-2154-4|10.1186/s12906-017-1555-0|10.1186/s12906-018-2154-4|10.1211/0022357021779014|10.1246/BCSJ.39.2532|10.1248/BPB.16.787|10.1248/BPB.31.1968|10.1248/BPB.31.743|10.1248/BPB.31.765|10.1248/CPB.14.877|10.1248/CPB.32.1866|10.1248/CPB.34.941|10.1248/CPB.36.2940|10.1248/CPB.37.2071|10.1248/CPB.37.2531|10.1248/CPB.37.2655|10.1248/CPB.38.2201|10.1248/CPB.38.2687|10.1248/CPB.38.3004|10.1248/CPB.39.2849|10.1248/CPB.39.3346|10.1248/CPB.41.1214|10.1248/CPB.42.1922|10.1248/CPB.55.492|10.1248/CPB.56.847|10.1271/BBB.80832|10.1271/BBB.80897|10.1300/J065V02N04_03|10.1515/ZNB-2005-0513|10.1515/ZNC-2001-1-203|10.1515/ZNC-2001-9-1012|10.1515/ZNC-2008-5-611|10.1515/znc-2008-5-611|10.1590/S0103-50532006000200010|10.1615/JENVIRONPATHOLTOXICOLONCOL.V20.I1.20|10.17660/ACTAHORTIC.2003.597.15|10.21577/0103-5053.20190018|10.3390/MOLECULES14041456|10.3390/MOLECULES15031453|10.3390/MOLECULES16108305|10.3390/MOLECULES24020302|10.5246/JCPS.2011.02.019|10.5344/AJEV.1990.41.1.43|10.5586/ASBP.1991.011|10.5897/AJPP10.363|10.7235/HORT.2013.12200

>  <synonyms>  (773) 
nan

>  <cas>  (773) 
476-66-4|Ellagic Acid| Dihydrate - CAS 476-66-4|122328-15-8

$$$$

     RDKit          2D

 17 18  0  0  0  0  0  0  0  0999 V2000
   -3.0882    2.5981    0.0000 C   0  0  0  0  0  0  0  0  0  0  0  0
   -2.3382    1.2990    0.0000 C   0  0  0  0  0  0  0  0  0  0  0  0
   -3.0882   -0.0000    0.0000 O   0  0  0  0  0  0  0  0  0  0  0  0
   -2.3382   -1.2990    0.0000 C   0  0  0  0  0  0  0  0  0  0  0  0
   -3.0882   -2.5981    0.0000 O   0  0  0  0  0  0  0  0  0  0  0  0
   -0.8382   -1.2990    0.0000 C   0  0  0  0  0  0  0  0  0  0  0  0
   -0.0882   -2.5981    0.0000 C   0  0  0  0  0  0  0  0  0  0  0  0
    1.4118   -2.5981    0.0000 C   0  0  0  0  0  0  0  0  0  0  0  0
    2.1618   -1.2990    0.0000 C   0  0  0  0  0  0  0  0  0  0  0  0
    3.6618   -1.2990    0.0000 O   0  0  0  0  0  0  0  0  0  0  0  0
    1.4118    0.0000    0.0000 C   0  0  0  0  0  0  0  0  0  0  0  0
    2.1618    1.2990    0.0000 C   0  0  0  0  0  0  0  0  0  0  0  0
    1.4118    2.5981    0.0000 O   0  0  0  0  0  0  0  0  0  0  0  0
    3.6618    1.2990    0.0000 O   0  0  0  0  0  0  0  0  0  0  0  0
   -0.0882    0.0000    0.0000 C   0  0  0  0  0  0  0  0  0  0  0  0
   -0.8382    1.2990    0.0000 C   0  0  0  0  0  0  0  0  0  0  0  0
   -0.0882    2.5981    0.0000 O   0  0  0  0  0  0  0  0  0  0  0  0
  2  1  1  6
  2  3  1  0
  3  4  1  0
  4  5  2  0
  4  6  1  0
  6  7  2  0
  7  8  1  0
  8  9  2  0
  9 10  1  0
  9 11  1  0
 11 12  1  0
 12 13  2  0
 12 14  1  0
 11 15  2  0
 15 16  1  0
 16 17  1  6
 16  2  1  0
 15  6  1  0
M  END
>  <identifier>  (774) 
CNP0373670.1

>  <canonical_smiles>  (774) 
C[C@H]1OC(=O)C2=CC=C(O)C(C(=O)O)=C2[C@H]1O

>  <standard_inchi>  (774) 
InChI=1S/C11H10O6/c1-4-9(13)7-5(11(16)17-4)2-3-6(12)8(7)10(14)15/h2-4,9,12-13H,1H3,(H,14,15)/t4-,9+/m1/s1

>  <standard_inchi_key>  (774) 
GRDZRGXHJIYWOU-MOFOKWOHSA-N

>  <name>  (774) 
(3r,4r)-3,4-dihydro-4,6-dihydroxy-3-methyl-1-oxo-1h-isochromene-5-carboxylic acid

>  <iupac_name>  (774) 
(3~{R},4~{R})-4,6-dihydroxy-3-methyl-1-oxo-isochromane-5-carboxylic acid

>  <annotation_level>  (774) 
5

>  <total_atom_count>  (774) 
27

>  <heavy_atom_count>  (774) 
17

>  <molecular_weight>  (774) 
238.19

>  <exact_molecular_weight>  (774) 
238.04774

>  <molecular_formula>  (774) 
C11H10O6

>  <alogp>  (774) 
0.68

>  <topological_polar_surface_area>  (774) 
104.06

>  <rotatable_bond_count>  (774) 
1

>  <hydrogen_bond_acceptors>  (774) 
5

>  <hydrogen_bond_donors>  (774) 
3

>  <hydrogen_bond_acceptors_lipinski>  (774) 
5

>  <hydrogen_bond_donors_lipinski>  (774) 
3

>  <lipinski_rule_of_five_violations>  (774) 
0

>  <aromatic_rings_count>  (774) 
1

>  <qed_drug_likeliness>  (774) 
0.62

>  <formal_charge>  (774) 
0

>  <fractioncsp3>  (774) 
0.27

>  <number_of_minimal_rings>  (774) 
2

>  <van_der_walls_volume>  (774) 
194.84

>  <contains_sugar>  (774) 
False

>  <contains_ring_sugars>  (774) 
False

>  <contains_linear_sugars>  (774) 
False

>  <murcko_framework>  (774) 
O1Cc2ccccc2CC1

>  <np_likeness>  (774) 
1.77

>  <chemical_class>  (774) 
Benzene and substituted derivatives

>  <chemical_sub_class>  (774) 
Benzoic acids and derivatives

>  <chemical_super_class>  (774) 
Benzenoids

>  <direct_parent_classification>  (774) 
m-Phthalate esters

>  <np_classifier_pathway>  (774) 
Shikimates and Phenylpropanoids

>  <np_classifier_superclass>  (774) 
Coumarins

>  <np_classifier_class>  (774) 
Isocoumarins

>  <np_classifier_is_glycoside>  (774) 
False

>  <organisms>  (774) 
Piper aduncum|Xylaria|Xylaria sp.

>  <collections>  (774) 
ChemSpider NPs|Latin America dataset|NuBBEDB|Super Natural II|WikiData Natural Products|ZINC NP

>  <dois>  (774) 
10.1016/J.PHYTOL.2010.11.003|10.1016/j.phytol.2010.11.003

>  <synonyms>  (774) 
(3R4R)-34-Dihydro-46-dihydroxy-3-methyl-1-oxo-1H-isochromene-5-carboxylic acid

>  <cas>  (774) 
nan

$$$$

     RDKit          2D

  9  8  0  0  0  0  0  0  0  0999 V2000
   -5.1962   -0.3333    0.0000 C   0  0  0  0  0  0  0  0  0  0  0  0
   -3.8971    0.4167    0.0000 C   0  0  0  0  0  0  0  0  0  0  0  0
   -2.5981   -0.3333    0.0000 C   0  0  0  0  0  0  0  0  0  0  0  0
   -1.2990    0.4167    0.0000 C   0  0  0  0  0  0  0  0  0  0  0  0
    0.0000   -0.3333    0.0000 C   0  0  0  0  0  0  0  0  0  0  0  0
    1.2990    0.4167    0.0000 C   0  0  0  0  0  0  0  0  0  0  0  0
    2.5981   -0.3333    0.0000 C   0  0  0  0  0  0  0  0  0  0  0  0
    3.8971    0.4167    0.0000 C   0  0  0  0  0  0  0  0  0  0  0  0
    5.1962   -0.3333    0.0000 C   0  0  0  0  0  0  0  0  0  0  0  0
  1  2  2  0
  2  3  1  0
  3  4  1  0
  4  5  1  0
  5  6  1  0
  6  7  1  0
  7  8  1  0
  8  9  1  0
M  END
>  <identifier>  (775) 
CNP0317850.0

>  <canonical_smiles>  (775) 
C=CCCCCCCC

>  <standard_inchi>  (775) 
InChI=1S/C9H18/c1-3-5-7-9-8-6-4-2/h3H,1,4-9H2,2H3

>  <standard_inchi_key>  (775) 
JRZJOMJEPLMPRA-UHFFFAOYSA-N

>  <name>  (775) 
1-NONENE

>  <iupac_name>  (775) 
non-1-ene

>  <annotation_level>  (775) 
5

>  <total_atom_count>  (775) 
27

>  <heavy_atom_count>  (775) 
9

>  <molecular_weight>  (775) 
126.24

>  <exact_molecular_weight>  (775) 
126.14085

>  <molecular_formula>  (775) 
C9H18

>  <alogp>  (775) 
3.53

>  <topological_polar_surface_area>  (775) 
0.00

>  <rotatable_bond_count>  (775) 
6

>  <hydrogen_bond_acceptors>  (775) 
0

>  <hydrogen_bond_donors>  (775) 
0

>  <hydrogen_bond_acceptors_lipinski>  (775) 
0

>  <hydrogen_bond_donors_lipinski>  (775) 
0

>  <lipinski_rule_of_five_violations>  (775) 
0

>  <aromatic_rings_count>  (775) 
0

>  <qed_drug_likeliness>  (775) 
0.38

>  <formal_charge>  (775) 
0

>  <fractioncsp3>  (775) 
0.78

>  <number_of_minimal_rings>  (775) 
0

>  <van_der_walls_volume>  (775) 
155.74

>  <contains_sugar>  (775) 
False

>  <contains_ring_sugars>  (775) 
False

>  <contains_linear_sugars>  (775) 
False

>  <murcko_framework>  (775) 
nan

>  <np_likeness>  (775) 
1.13

>  <chemical_class>  (775) 
Unsaturated hydrocarbons

>  <chemical_sub_class>  (775) 
Olefins

>  <chemical_super_class>  (775) 
Hydrocarbons

>  <direct_parent_classification>  (775) 
Alkenes

>  <np_classifier_pathway>  (775) 
Fatty acids

>  <np_classifier_superclass>  (775) 
Fatty acyls

>  <np_classifier_class>  (775) 
Hydrocarbons

>  <np_classifier_is_glycoside>  (775) 
False

>  <organisms>  (775) 
Acacia armata|Adonis sutchuenensis|Astragalus ernestii|Berneuxia thibetica|Bongardia chrysogonum|Briareum asbestinum|Bunodosoma caissarum|Caryocar coriaceum|Cladogynos orientalis|Clinopodium gilliesii|Clinopodium odorum|Clusia ellipticifolia|Dumoria heckeli|Elaeis guineensis|Elizabethkingia meningoseptica|Eragrostis curvula|Fritillaria meleagris|Houttuynia cordata|Inula helenium|Isophysis tasmanica|Lonchocarpus laxiflorus|Mantella aurantiaca|Matricaria matricarioides|Metasequoia glyptostroboides|Oenanthe aquatica|Oryza sativa|Petasites albus|Petasites hybridus|Petasites japonicus|Plantago lundborgii|Prunus armeniaca|Sapium sebiferum|Sideritis arborescens|Solanum pseudoquina|Stilpnopappus pickelii|Streptomyces ehimensis|Tethya amamensis|Tussilago farfara

>  <collections>  (775) 
Australian natural products|CMAUP (cCollective molecular activities of useful plants)|FooDB|Latin America dataset|NPASS|NuBBEDB|Super Natural II|TCMDB-Taiwan (Traditional Chinese Medicine database)|TCMID (Traditional Chinese Medicine Integrated Database)|UNPD (Universal Natural Products Database)|WikiData Natural Products

>  <dois>  (775) 
10.1002/CBDV.201800531|10.1016/J.RENENE.2017.12.012|10.1021/JF00120A031|10.1021/jf00120a031|10.1055/S-0028-1097637|10.1080/10412905.1993.9698276|10.1248/YAKUSHI1947.112.8_571

>  <synonyms>  (775) 
.ALPHA.-NONENE|1-C9H18|1-N-NONENE|1-N-None|1-NONENE [HSDB]|1-NONYLENE|1-Nonene|1-Nonene, 96%|1-Nonene, analytical standard|1-nonene|124-11-8|31387-92-5|68855-57-2|AKOS009157987|Alkenes, C6-12 alpha-|CHEBI:77443|D91747|DB-041765|DTXCID3033806|DTXSID2059562|EC 271-212-0|EINECS 204-681-7|EINECS 271-212-0|EINECS 272-491-1|FEMA NO. 4651|HSDB 1081|J-005044|LMFA11000323|MFCD00009568|N-HEPTYLETHYLENE|N0295|N0613|NCIOpen2_000424|NONENE|NONYLENE|NS00020969|NSC 73961|NSC-73961|Nonene, 1-|Nonene-(1)|Propylene trimer|Q15687205|UNII-YPK83LUD6G|YPK83LUD6G|alpha-Nonene|non-1-ene

>  <cas>  (775) 
124-11-8|68855-57-2|31387-92-5

$$$$

     RDKit          2D

 22 24  0  0  0  0  0  0  0  0999 V2000
   -5.1850   -1.2838    0.0000 C   0  0  0  0  0  0  0  0  0  0  0  0
   -3.6926   -1.4348    0.0000 C   0  0  0  0  0  0  0  0  0  0  0  0
   -3.0771   -2.8027    0.0000 C   0  0  0  0  0  0  0  0  0  0  0  0
   -2.8157   -0.2178    0.0000 C   0  0  0  0  0  0  0  0  0  0  0  0
   -3.4312    1.1501    0.0000 C   0  0  0  0  0  0  0  0  0  0  0  0
   -4.9236    1.3011    0.0000 O   0  0  0  0  0  0  0  0  0  0  0  0
   -2.5543    2.3671    0.0000 C   0  0  0  0  0  0  0  0  0  0  0  0
   -1.0619    2.2162    0.0000 C   0  0  0  0  0  0  0  0  0  0  0  0
   -0.4464    0.8483    0.0000 C   0  0  0  0  0  0  0  0  0  0  0  0
   -1.3233   -0.3687    0.0000 C   0  0  0  0  0  0  0  0  0  0  0  0
   -0.7078   -1.7366    0.0000 C   0  0  0  0  0  0  0  0  0  0  0  0
    0.7845   -1.8876    0.0000 C   0  0  0  0  0  0  0  0  0  0  0  0
    1.6615   -0.6706    0.0000 C   0  0  0  0  0  0  0  0  0  0  0  0
    3.1538   -0.8215    0.0000 C   0  0  0  0  0  0  0  0  0  0  0  0
    4.5046   -1.4738    0.0000 C   0  0  0  0  0  0  0  0  0  0  0  0
    2.7460   -2.2650    0.0000 C   0  0  0  0  0  0  0  0  0  0  0  0
    4.0307    0.3954    0.0000 C   0  0  0  0  0  0  0  0  0  0  0  0
    5.5231    0.2445    0.0000 O   0  0  0  0  0  0  0  0  0  0  0  0
    3.4153    1.7634    0.0000 C   0  0  0  0  0  0  0  0  0  0  0  0
    1.9229    1.9143    0.0000 C   0  0  0  0  0  0  0  0  0  0  0  0
    1.0460    0.6973    0.0000 C   0  0  0  0  0  0  0  0  0  0  0  0
    0.4305    2.0652    0.0000 C   0  0  0  0  0  0  0  0  0  0  0  0
  1  2  1  0
  2  3  1  0
  2  4  1  0
  4  5  2  0
  5  6  1  0
  5  7  1  0
  7  8  2  0
  8  9  1  0
  9 10  2  0
 10 11  1  0
 11 12  1  0
 13 12  1  6
 13 14  1  0
 14 15  1  0
 14 16  1  0
 14 17  1  0
 17 18  1  6
 17 19  1  0
 19 20  1  0
 20 21  1  0
 21 22  1  6
 10  4  1  0
 21 13  1  0
 21  9  1  0
M  END
>  <identifier>  (776) 
CNP0280229.1

>  <canonical_smiles>  (776) 
CC(C)C1=C(O)C=CC2=C1CC[C@H]1C(C)(C)[C@@H](O)CC[C@]21C

>  <standard_inchi>  (776) 
InChI=1S/C20H30O2/c1-12(2)18-13-6-9-16-19(3,4)17(22)10-11-20(16,5)14(13)7-8-15(18)21/h7-8,12,16-17,21-22H,6,9-11H2,1-5H3/t16-,17-,20+/m0/s1

>  <standard_inchi_key>  (776) 
NORGIWDZGWMMGU-ABSDTBQOSA-N

>  <name>  (776) 
Totaradiol

>  <iupac_name>  (776) 
(2~{S},4~{a}~{S},10~{a}~{R})-8-isopropyl-1,1,4~{a}-trimethyl-2,3,4,9,10,10~{a}-hexahydrophenanthrene-2,7-diol

>  <annotation_level>  (776) 
5

>  <total_atom_count>  (776) 
52

>  <heavy_atom_count>  (776) 
22

>  <molecular_weight>  (776) 
302.46

>  <exact_molecular_weight>  (776) 
302.22458

>  <molecular_formula>  (776) 
C20H30O2

>  <alogp>  (776) 
4.52

>  <topological_polar_surface_area>  (776) 
40.46

>  <rotatable_bond_count>  (776) 
1

>  <hydrogen_bond_acceptors>  (776) 
2

>  <hydrogen_bond_donors>  (776) 
2

>  <hydrogen_bond_acceptors_lipinski>  (776) 
2

>  <hydrogen_bond_donors_lipinski>  (776) 
2

>  <lipinski_rule_of_five_violations>  (776) 
0

>  <aromatic_rings_count>  (776) 
1

>  <qed_drug_likeliness>  (776) 
0.80

>  <formal_charge>  (776) 
0

>  <fractioncsp3>  (776) 
0.70

>  <number_of_minimal_rings>  (776) 
3

>  <van_der_walls_volume>  (776) 
304.70

>  <contains_sugar>  (776) 
False

>  <contains_ring_sugars>  (776) 
False

>  <contains_linear_sugars>  (776) 
False

>  <murcko_framework>  (776) 
c1ccc2c(c1)CCC3CCCCC23

>  <np_likeness>  (776) 
2.56

>  <chemical_class>  (776) 
Prenol lipids

>  <chemical_sub_class>  (776) 
Diterpenoids

>  <chemical_super_class>  (776) 
Lipids and lipid-like molecules

>  <direct_parent_classification>  (776) 
Diterpenoids

>  <np_classifier_pathway>  (776) 
Terpenoids

>  <np_classifier_superclass>  (776) 
Diterpenoids

>  <np_classifier_class>  (776) 
Podocarpane diterpenoids

>  <np_classifier_is_glycoside>  (776) 
False

>  <organisms>  (776) 
Agathis robusta|Chamaecyparis formosensis|Juniperus procera|Myrica nagi|Nageia nagi|Platycladus Orientalis|Platycladus orientalis|Podocarpus lambereis|Podocarpus macrophyllus|Podocarpus macrophyllus D.DON|Tetraclinis articulata|Thuja plicata

>  <collections>  (776) 
ANPDB|Australian natural products|CMAUP (cCollective molecular activities of useful plants)|KNApSaCK|Latin America dataset|NANPDB (Natural Products from Northern African Sources)|NPASS|NuBBEDB|Super Natural II|TCMDB-Taiwan (Traditional Chinese Medicine database)|TIPdb (database of Taiwan indigenous plants)|VietHerb|WikiData Natural Products|ZINC NP

>  <dois>  (776) 
10.1002/PTR.2650090810|10.1016/0031-9422(75)85047-3|10.1016/0031-9422(91)85049-6|10.1016/J.PHYTOCHEM.2007.07.023|10.1016/S0031-9422(99)00074-6|10.1016/S0305-1978(00)00047-8|10.1016/j.bse.2006.09.013|10.1021/NP0204949|10.1248/CPB.56.1691

>  <synonyms>  (776) 
(+)-Totaradiol; 3-Hydroxytotarol|(2S,4AS,10AR)-8-ISOPROPYL-1,1,4A-TRIMETHYL-2,3,4,9,10,10A-HEXAHYDROPHENANTHRENE-2,7-DIOL|(2S,4aS,10aR)-1,1,4a-trimethyl-8-propan-2-yl-2,3,4,9,10,10a-hexahydrophenanthrene-2,7-diol|(2S,4aS,10aR)-1,2,3,4,4a,9,10,10a-Octahydro-1,1,4a-trimethyl-8-(1-methylethyl)-2,7-phenanthrenediol|14-Isopropylpodocarpa-8,11,13-triene-3beta,13-diol|3772-56-3|3\u221a\u00e9\u00ac\u2264-hydroxytotarol|AKOS032962347|CHEMBL446064|CS-0016425|DTXSID001114442|FS-9846|HY-N1137|Totaradiol

>  <cas>  (776) 
3772-56-3

$$$$

     RDKit          2D

 37 41  0  0  0  0  0  0  0  0999 V2000
    1.4123   -6.3086    0.0000 C   0  0  0  0  0  0  0  0  0  0  0  0
    2.5113   -5.2877    0.0000 O   0  0  0  0  0  0  0  0  0  0  0  0
    2.1767   -3.8255    0.0000 C   0  0  0  0  0  0  0  0  0  0  0  0
    0.7431   -3.3841    0.0000 O   0  0  0  0  0  0  0  0  0  0  0  0
    3.2757   -2.8046    0.0000 C   0  0  0  0  0  0  0  0  0  0  0  0
    2.9411   -1.3424    0.0000 C   0  0  0  0  0  0  0  0  0  0  0  0
    4.0401   -0.3215    0.0000 C   0  0  0  0  0  0  0  0  0  0  0  0
    4.8546   -1.5811    0.0000 C   0  0  0  0  0  0  0  0  0  0  0  0
    5.4220    0.2619    0.0000 C   0  0  0  0  0  0  0  0  0  0  0  0
    3.7055    1.1407    0.0000 C   0  0  0  0  0  0  0  0  0  0  0  0
    4.8045    2.1615    0.0000 O   0  0  0  0  0  0  0  0  0  0  0  0
    4.4700    3.6238    0.0000 C   0  0  0  0  0  0  0  0  0  0  0  0
    5.5690    4.6446    0.0000 C   0  0  0  0  0  0  0  0  0  0  0  0
    3.0363    4.0651    0.0000 O   0  0  0  0  0  0  0  0  0  0  0  0
    2.2719    1.5820    0.0000 C   0  0  0  0  0  0  0  0  0  0  0  0
    0.8383    2.0233    0.0000 C   0  0  0  0  0  0  0  0  0  0  0  0
   -0.2607    1.0025    0.0000 C   0  0  0  0  0  0  0  0  0  0  0  0
   -1.6943    1.4438    0.0000 C   0  0  0  0  0  0  0  0  0  0  0  0
   -2.0289    2.9060    0.0000 C   0  0  0  0  0  0  0  0  0  0  0  0
   -3.4625    3.3474    0.0000 C   0  0  0  0  0  0  0  0  0  0  0  0
   -3.7971    4.8096    0.0000 O   0  0  0  0  0  0  0  0  0  0  0  0
   -4.5615    2.3265    0.0000 O   0  0  0  0  0  0  0  0  0  0  0  0
   -4.2269    0.8643    0.0000 C   0  0  0  0  0  0  0  0  0  0  0  0
   -5.3259   -0.1566    0.0000 C   0  0  0  0  0  0  0  0  0  0  0  0
   -5.1460   -1.6458    0.0000 C   0  0  0  0  0  0  0  0  0  0  0  0
   -6.5067   -2.2771    0.0000 O   0  0  0  0  0  0  0  0  0  0  0  0
   -7.5276   -1.1780    0.0000 C   0  0  0  0  0  0  0  0  0  0  0  0
   -6.7978    0.1325    0.0000 C   0  0  0  0  0  0  0  0  0  0  0  0
   -2.7933    0.4229    0.0000 C   0  0  0  0  0  0  0  0  0  0  0  0
   -3.8923   -0.5979    0.0000 C   0  0  0  0  0  0  0  0  0  0  0  0
   -2.4587   -1.0393    0.0000 C   0  0  0  0  0  0  0  0  0  0  0  0
   -1.0251   -1.4806    0.0000 C   0  0  0  0  0  0  0  0  0  0  0  0
    0.0739   -0.4597    0.0000 C   0  0  0  0  0  0  0  0  0  0  0  0
    1.5075   -0.9011    0.0000 C   0  0  0  0  0  0  0  0  0  0  0  0
    1.8421   -2.3633    0.0000 C   0  0  0  0  0  0  0  0  0  0  0  0
    2.6065    0.1198    0.0000 C   0  0  0  0  0  0  0  0  0  0  0  0
    3.4025    0.0766    0.0000 O   0  0  0  0  0  0  0  0  0  0  0  0
  1  2  1  0
  2  3  1  0
  3  4  2  0
  3  5  1  0
  5  6  1  0
  6  7  1  0
  7  8  1  0
  7  9  1  0
  7 10  1  0
 10 11  1  1
 11 12  1  0
 12 13  1  0
 12 14  2  0
 10 15  1  0
 15 16  1  1
 17 16  1  6
 17 18  1  0
 18 19  2  0
 19 20  1  0
 20 21  2  0
 20 22  1  0
 22 23  1  0
 23 24  1  6
 24 25  2  0
 25 26  1  0
 26 27  1  0
 27 28  2  0
 23 29  1  0
 29 30  1  6
 29 31  1  0
 31 32  1  0
 33 32  1  1
 33 34  1  0
 34 35  1  6
 34 36  1  0
 36 37  2  0
 34  6  1  0
 36 15  1  0
 33 17  1  0
 29 18  1  0
 28 24  1  0
M  END
>  <identifier>  (777) 
CNP0156742.1

>  <canonical_smiles>  (777) 
COC(=O)CC1C(C)(C)[C@H](OC(C)=O)[C@@H]2C[C@H]3C4=CC(=O)O[C@@H](C5=COC=C5)[C@]4(C)CC[C@@H]3[C@@]1(C)C2=O

>  <standard_inchi>  (777) 
InChI=1S/C29H36O8/c1-15(30)36-26-18-11-17-19(29(5,24(18)33)21(27(26,2)3)13-22(31)34-6)7-9-28(4)20(17)12-23(32)37-25(28)16-8-10-35-14-16/h8,10,12,14,17-19,21,25-26H,7,9,11,13H2,1-6H3/t17-,18-,19+,21?,25+,26-,28-,29-/m1/s1

>  <standard_inchi_key>  (777) 
XOTNOFJPJBDOJJ-FPSCXZSDSA-N

>  <name>  (777) 
nan

>  <iupac_name>  (777) 
methyl 2-[(1~{R},2~{S},5~{R},6~{R},11~{R},13~{S},14~{R})-14-acetoxy-6-(3-furyl)-1,5,15,15-tetramethyl-8,17-dioxo-7-oxatetracyclo[11.3.1.0^{2,11}.0^{5,10}]heptadec-9-en-16-yl]acetate

>  <annotation_level>  (777) 
4

>  <total_atom_count>  (777) 
73

>  <heavy_atom_count>  (777) 
37

>  <molecular_weight>  (777) 
512.6

>  <exact_molecular_weight>  (777) 
512.24102

>  <molecular_formula>  (777) 
C29H36O8

>  <alogp>  (777) 
4.58

>  <topological_polar_surface_area>  (777) 
109.11

>  <rotatable_bond_count>  (777) 
4

>  <hydrogen_bond_acceptors>  (777) 
8

>  <hydrogen_bond_donors>  (777) 
0

>  <hydrogen_bond_acceptors_lipinski>  (777) 
8

>  <hydrogen_bond_donors_lipinski>  (777) 
0

>  <lipinski_rule_of_five_violations>  (777) 
1

>  <aromatic_rings_count>  (777) 
1

>  <qed_drug_likeliness>  (777) 
0.43

>  <formal_charge>  (777) 
0

>  <fractioncsp3>  (777) 
0.66

>  <number_of_minimal_rings>  (777) 
5

>  <van_der_walls_volume>  (777) 
nan

>  <contains_sugar>  (777) 
False

>  <contains_ring_sugars>  (777) 
False

>  <contains_linear_sugars>  (777) 
False

>  <murcko_framework>  (777) 
o1ccc(c1)C2OCC=C3C2CCC4C3CC5CCCC4C5

>  <np_likeness>  (777) 
2.67

>  <chemical_class>  (777) 
Prenol lipids

>  <chemical_sub_class>  (777) 
Triterpenoids

>  <chemical_super_class>  (777) 
Lipids and lipid-like molecules

>  <direct_parent_classification>  (777) 
Limonoids

>  <np_classifier_pathway>  (777) 
Terpenoids

>  <np_classifier_superclass>  (777) 
Triterpenoids

>  <np_classifier_class>  (777) 
Limonoids

>  <np_classifier_is_glycoside>  (777) 
False

>  <organisms>  (777) 
Cedrela fissilis

>  <collections>  (777) 
Latin America dataset|NuBBEDB|WikiData Natural Products

>  <dois>  (777) 
10.1055/S-0028-1088323|10.1055/s-0028-1088323

>  <synonyms>  (777) 
3\u221a\u00e9\u00ac\u2264-acetoxycarapin

>  <cas>  (777) 
nan

$$$$

     RDKit          2D

 31 36  0  0  0  0  0  0  0  0999 V2000
   -1.4061    4.8609    0.0000 C   0  0  0  0  0  0  0  0  0  0  0  0
   -1.3940    3.3610    0.0000 C   0  0  0  0  0  0  0  0  0  0  0  0
   -0.0890    2.6215    0.0000 C   0  0  0  0  0  0  0  0  0  0  0  0
    1.2040    3.3819    0.0000 O   0  0  0  0  0  0  0  0  0  0  0  0
   -0.0769    1.1215    0.0000 N   0  0  0  0  0  0  0  0  0  0  0  0
   -1.2833    0.2301    0.0000 C   0  0  0  0  0  0  0  0  0  0  0  0
   -0.8084   -1.1927    0.0000 C   0  0  0  0  0  0  0  0  0  0  0  0
   -1.8030   -2.3155    0.0000 C   0  0  0  0  0  0  0  0  0  0  0  0
   -3.2727   -2.0154    0.0000 C   0  0  0  0  0  0  0  0  0  0  0  0
   -4.2674   -3.1382    0.0000 O   0  0  0  0  0  0  0  0  0  0  0  0
   -5.7371   -2.8381    0.0000 C   0  0  0  0  0  0  0  0  0  0  0  0
   -3.7477   -0.5926    0.0000 C   0  0  0  0  0  0  0  0  0  0  0  0
   -5.2174   -0.2925    0.0000 O   0  0  0  0  0  0  0  0  0  0  0  0
   -5.6924    1.1303    0.0000 C   0  0  0  0  0  0  0  0  0  0  0  0
   -2.7530    0.5302    0.0000 C   0  0  0  0  0  0  0  0  0  0  0  0
   -3.2280    1.9530    0.0000 O   0  0  0  0  0  0  0  0  0  0  0  0
    0.6916   -1.1806    0.0000 C   0  0  0  0  0  0  0  0  0  0  0  0
    0.0705    0.1847    0.0000 C   0  0  0  0  0  0  0  0  0  0  0  0
    1.1771    1.1973    0.0000 C   0  0  0  0  0  0  0  0  0  0  0  0
    2.4821    0.4578    0.0000 N   0  0  0  0  0  0  0  0  0  0  0  0
    3.9049    0.9328    0.0000 C   0  0  0  0  0  0  0  0  0  0  0  0
    5.0277   -0.0619    0.0000 C   0  0  0  0  0  0  0  0  0  0  0  0
    4.7276   -1.5316    0.0000 C   0  0  0  0  0  0  0  0  0  0  0  0
    3.3048   -2.0066    0.0000 C   0  0  0  0  0  0  0  0  0  0  0  0
    3.2937   -1.4536    0.0000 C   0  0  0  0  0  0  0  0  0  0  0  0
    2.6053   -1.6651    0.0000 C   0  0  0  0  0  0  0  0  0  0  0  0
    2.7323   -0.9563    0.0000 O   0  0  0  0  0  0  0  0  0  0  0  0
    2.1821   -1.0119    0.0000 C   0  0  0  0  0  0  0  0  0  0  0  0
    3.6209   -0.5333    0.0000 C   0  0  0  0  0  0  0  0  0  0  0  0
    2.6083    0.5733    0.0000 C   0  0  0  0  0  0  0  0  0  0  0  0
    1.1436    0.2496    0.0000 C   0  0  0  0  0  0  0  0  0  0  0  0
  1  2  1  0
  2  3  1  0
  3  4  2  0
  3  5  1  0
  5  6  1  0
  6  7  2  0
  7  8  1  0
  8  9  2  0
  9 10  1  0
 10 11  1  0
  9 12  1  0
 12 13  1  0
 13 14  1  0
 12 15  2  0
 15 16  1  0
  7 17  1  0
 17 18  1  1
 18 19  1  0
 19 20  1  0
 20 21  1  0
 21 22  1  0
 22 23  1  0
 24 23  1  6
 24 25  1  0
 25 26  1  0
 26 27  1  0
 28 27  1  1
 24 29  1  0
 29 30  1  0
 31 30  1  6
 31  5  1  0
 15  6  1  0
 28 17  1  0
 31 17  1  0
 28 20  1  0
 28 24  1  0
M  END
>  <identifier>  (778) 
CNP0166125.1

>  <canonical_smiles>  (778) 
CCC(=O)N1C2=C(C=C(OC)C(OC)=C2O)[C@@]23CCN4CCC[C@]5(CCO[C@@]452)CC[C@@H]13

>  <standard_inchi>  (778) 
InChI=1S/C24H32N2O5/c1-4-18(27)26-17-6-8-22-7-5-11-25-12-9-23(17,24(22,25)31-13-10-22)15-14-16(29-2)21(30-3)20(28)19(15)26/h14,17,28H,4-13H2,1-3H3/t17-,22-,23-,24+/m1/s1

>  <standard_inchi_key>  (778) 
BJYVZJQGRUSSBS-BMZZKGLRSA-N

>  <name>  (778) 
Aspidoalbine

>  <iupac_name>  (778) 
1-[(1~{R},4~{R},12~{R},16~{S})-7-hydroxy-8,9-dimethoxy-17-oxa-5,15-diazahexacyclo[13.4.3.0^{1,16}.0^{4,12}.0^{6,11}.0^{12,16}]docosa-6(11),7,9-trien-5-yl]propan-1-one

>  <annotation_level>  (778) 
5

>  <total_atom_count>  (778) 
63

>  <heavy_atom_count>  (778) 
31

>  <molecular_weight>  (778) 
428.53

>  <exact_molecular_weight>  (778) 
428.23112

>  <molecular_formula>  (778) 
C24H32N2O5

>  <alogp>  (778) 
3.17

>  <topological_polar_surface_area>  (778) 
71.47

>  <rotatable_bond_count>  (778) 
3

>  <hydrogen_bond_acceptors>  (778) 
6

>  <hydrogen_bond_donors>  (778) 
1

>  <hydrogen_bond_acceptors_lipinski>  (778) 
6

>  <hydrogen_bond_donors_lipinski>  (778) 
1

>  <lipinski_rule_of_five_violations>  (778) 
0

>  <aromatic_rings_count>  (778) 
1

>  <qed_drug_likeliness>  (778) 
0.80

>  <formal_charge>  (778) 
0

>  <fractioncsp3>  (778) 
0.71

>  <number_of_minimal_rings>  (778) 
6

>  <van_der_walls_volume>  (778) 
nan

>  <contains_sugar>  (778) 
False

>  <contains_ring_sugars>  (778) 
False

>  <contains_linear_sugars>  (778) 
False

>  <murcko_framework>  (778) 
O1CCC23CCCN4CCC5(c6ccccc6NC5CC2)C143

>  <np_likeness>  (778) 
1.75

>  <chemical_class>  (778) 
Indoles and derivatives

>  <chemical_sub_class>  (778) 
Carbazoles

>  <chemical_super_class>  (778) 
Organoheterocyclic compounds

>  <direct_parent_classification>  (778) 
Carbazoles

>  <np_classifier_pathway>  (778) 
Alkaloids

>  <np_classifier_superclass>  (778) 
Tryptophan alkaloids

>  <np_classifier_class>  (778) 
Aspidosperma type

>  <np_classifier_is_glycoside>  (778) 
False

>  <organisms>  (778) 
Aspidosperma desmanthum|Aspidosperma megalocarpon

>  <collections>  (778) 
Latin America dataset|NuBBEDB|Super Natural II|WikiData Natural Products|ZINC NP

>  <dois>  (778) 
10.1016/S0031-9422(00)84426-X|10.1055/S-2006-957496

>  <synonyms>  (778) 
1-[(1R,4R,12R,16S)-7-hydroxy-8,9-dimethoxy-17-oxa-5,15-diazahexacyclo[13.4.3.01,16.04,12.06,11.012,16]docosa-6,8,10-trien-5-yl]propan-1-one|2122-25-0|C09038|CHEBI:2885|Q27105864|aspidoalbine

>  <cas>  (778) 
2122-25-0

$$$$

     RDKit          2D

 22 24  0  0  0  0  0  0  0  0999 V2000
   -5.2755    1.4273    0.0000 C   0  0  0  0  0  0  0  0  0  0  0  0
   -5.0511   -0.0558    0.0000 C   0  0  0  0  0  0  0  0  0  0  0  0
   -3.6545   -0.6031    0.0000 C   0  0  0  0  0  0  0  0  0  0  0  0
   -4.4360   -1.8834    0.0000 C   0  0  0  0  0  0  0  0  0  0  0  0
   -3.3581    0.8674    0.0000 C   0  0  0  0  0  0  0  0  0  0  0  0
   -1.9365    1.3459    0.0000 C   0  0  0  0  0  0  0  0  0  0  0  0
   -0.8113    0.3540    0.0000 C   0  0  0  0  0  0  0  0  0  0  0  0
   -1.1077   -1.1165    0.0000 C   0  0  0  0  0  0  0  0  0  0  0  0
    0.0176   -2.1084    0.0000 C   0  0  0  0  0  0  0  0  0  0  0  0
    1.4392   -1.6299    0.0000 C   0  0  0  0  0  0  0  0  0  0  0  0
    1.7356   -0.1594    0.0000 C   0  0  0  0  0  0  0  0  0  0  0  0
    3.1572    0.3191    0.0000 C   0  0  0  0  0  0  0  0  0  0  0  0
    4.6568    0.2825    0.0000 C   0  0  0  0  0  0  0  0  0  0  0  0
    3.3816   -1.1641    0.0000 C   0  0  0  0  0  0  0  0  0  0  0  0
    2.2094   -2.0999    0.0000 O   0  0  0  0  0  0  0  0  0  0  0  0
    4.7782   -1.7113    0.0000 O   0  0  0  0  0  0  0  0  0  0  0  0
    3.4536    1.7895    0.0000 C   0  0  0  0  0  0  0  0  0  0  0  0
    2.3284    2.7814    0.0000 C   0  0  0  0  0  0  0  0  0  0  0  0
    0.9068    2.3029    0.0000 C   0  0  0  0  0  0  0  0  0  0  0  0
    0.6104    0.8325    0.0000 C   0  0  0  0  0  0  0  0  0  0  0  0
   -0.5148    1.8244    0.0000 C   0  0  0  0  0  0  0  0  0  0  0  0
   -2.5293   -1.5950    0.0000 C   0  0  0  0  0  0  0  0  0  0  0  0
  1  2  2  0
  2  3  1  0
  3  4  1  6
  3  5  1  0
  5  6  1  0
  6  7  1  0
  7  8  1  0
  8  9  2  0
  9 10  1  0
 11 10  1  6
 11 12  1  0
 12 13  1  6
 12 14  1  0
 14 15  2  0
 14 16  1  0
 12 17  1  0
 17 18  1  0
 18 19  1  0
 19 20  1  0
 20 21  1  6
  8 22  1  0
 22  3  1  0
 20  7  1  0
 20 11  1  0
M  END
>  <identifier>  (779) 
CNP0195275.6

>  <canonical_smiles>  (779) 
C=C[C@@]1(C)CCC2C(=CC[C@H]3[C@](C)(C(=O)O)CCC[C@]23C)C1

>  <standard_inchi>  (779) 
InChI=1S/C20H30O2/c1-5-18(2)12-9-15-14(13-18)7-8-16-19(15,3)10-6-11-20(16,4)17(21)22/h5,7,15-16H,1,6,8-13H2,2-4H3,(H,21,22)/t15?,16-,18+,19-,20-/m1/s1

>  <standard_inchi_key>  (779) 
MXYATHGRPJZBNA-YLUWNPNHSA-N

>  <name>  (779) 
(1R,4aR,7S,10aR)-7-ethenyl-1,4a,7-trimethyl-1,2,3,4,4a,4b,5,6,7,8,10,10a-dodecahydrophenanthrene-1-carboxylic acid

>  <iupac_name>  (779) 
(1~{R},4~{a}~{R},7~{S},10~{a}~{R})-1,4~{a},7-trimethyl-7-vinyl-3,4,4~{b},5,6,8,10,10~{a}-octahydro-2~{H}-phenanthrene-1-carboxylic acid

>  <annotation_level>  (779) 
5

>  <total_atom_count>  (779) 
52

>  <heavy_atom_count>  (779) 
22

>  <molecular_weight>  (779) 
302.46

>  <exact_molecular_weight>  (779) 
302.22458

>  <molecular_formula>  (779) 
C20H30O2

>  <alogp>  (779) 
5.21

>  <topological_polar_surface_area>  (779) 
37.30

>  <rotatable_bond_count>  (779) 
2

>  <hydrogen_bond_acceptors>  (779) 
1

>  <hydrogen_bond_donors>  (779) 
1

>  <hydrogen_bond_acceptors_lipinski>  (779) 
1

>  <hydrogen_bond_donors_lipinski>  (779) 
1

>  <lipinski_rule_of_five_violations>  (779) 
1

>  <aromatic_rings_count>  (779) 
0

>  <qed_drug_likeliness>  (779) 
0.71

>  <formal_charge>  (779) 
0

>  <fractioncsp3>  (779) 
0.75

>  <number_of_minimal_rings>  (779) 
3

>  <van_der_walls_volume>  (779) 
nan

>  <contains_sugar>  (779) 
False

>  <contains_ring_sugars>  (779) 
False

>  <contains_linear_sugars>  (779) 
False

>  <murcko_framework>  (779) 
C1=C2CCCCC2C3CCCCC3C1

>  <np_likeness>  (779) 
3.49

>  <chemical_class>  (779) 
Prenol lipids

>  <chemical_sub_class>  (779) 
Diterpenoids

>  <chemical_super_class>  (779) 
Lipids and lipid-like molecules

>  <direct_parent_classification>  (779) 
Diterpenoids

>  <np_classifier_pathway>  (779) 
Terpenoids

>  <np_classifier_superclass>  (779) 
Diterpenoids

>  <np_classifier_class>  (779) 
Pimarane and Isopimarane diterpenoids

>  <np_classifier_is_glycoside>  (779) 
False

>  <organisms>  (779) 
Podocarpus lambereis

>  <collections>  (779) 
Latin America dataset|NuBBEDB

>  <dois>  (779) 
10.1016/0031-9422(75)85047-3

>  <synonyms>  (779) 
NCGC00165813-01|SCHEMBL13702083|isopimaric acid

>  <cas>  (779) 
nan

$$$$

     RDKit          2D

 20 23  0  0  0  0  0  0  0  0999 V2000
   -6.9640   -0.1630    0.0000 C   0  0  0  0  0  0  0  0  0  0  0  0
   -5.7685   -1.0690    0.0000 O   0  0  0  0  0  0  0  0  0  0  0  0
   -4.3861   -0.4866    0.0000 C   0  0  0  0  0  0  0  0  0  0  0  0
   -4.1993    1.0017    0.0000 C   0  0  0  0  0  0  0  0  0  0  0  0
   -2.8169    1.5841    0.0000 C   0  0  0  0  0  0  0  0  0  0  0  0
   -1.6214    0.6781    0.0000 C   0  0  0  0  0  0  0  0  0  0  0  0
   -1.8083   -0.8102    0.0000 C   0  0  0  0  0  0  0  0  0  0  0  0
   -3.1906   -1.3926    0.0000 C   0  0  0  0  0  0  0  0  0  0  0  0
   -0.4505   -1.4478    0.0000 O   0  0  0  0  0  0  0  0  0  0  0  0
    0.5754   -0.3536    0.0000 C   0  0  0  0  0  0  0  0  0  0  0  0
    2.0751   -0.3838    0.0000 C   0  0  0  0  0  0  0  0  0  0  0  0
    2.7988   -1.6977    0.0000 C   0  0  0  0  0  0  0  0  0  0  0  0
    4.2985   -1.7280    0.0000 C   0  0  0  0  0  0  0  0  0  0  0  0
    5.0745   -0.4443    0.0000 C   0  0  0  0  0  0  0  0  0  0  0  0
    6.5742   -0.4746    0.0000 O   0  0  0  0  0  0  0  0  0  0  0  0
    4.3509    0.8696    0.0000 C   0  0  0  0  0  0  0  0  0  0  0  0
    2.8512    0.8998    0.0000 C   0  0  0  0  0  0  0  0  0  0  0  0
    2.1275    2.2137    0.0000 O   0  0  0  0  0  0  0  0  0  0  0  0
    0.6278    2.2440    0.0000 C   0  0  0  0  0  0  0  0  0  0  0  0
   -0.1482    0.9603    0.0000 C   0  0  0  0  0  0  0  0  0  0  0  0
  1  2  1  0
  2  3  1  0
  3  4  2  0
  4  5  1  0
  5  6  2  0
  6  7  1  0
  7  8  2  0
  7  9  1  0
 10  9  1  1
 10 11  1  0
 11 12  2  0
 12 13  1  0
 13 14  2  0
 14 15  1  0
 14 16  1  0
 16 17  2  0
 17 18  1  0
 18 19  1  0
 20 19  1  1
  8  3  1  0
 20 10  1  0
 20  6  1  0
 17 11  1  0
M  END
>  <identifier>  (780) 
CNP0214655.1

>  <canonical_smiles>  (780) 
COC1=CC=C2C(=C1)O[C@@H]1C3=CC=C(O)C=C3OC[C@H]21

>  <standard_inchi>  (780) 
InChI=1S/C16H14O4/c1-18-10-3-5-11-13-8-19-14-6-9(17)2-4-12(14)16(13)20-15(11)7-10/h2-7,13,16-17H,8H2,1H3/t13-,16-/m1/s1

>  <standard_inchi_key>  (780) 
NSRJSISNDPOJOP-CZUORRHYSA-N

>  <name>  (780) 
(+)-Medicarpin

>  <iupac_name>  (780) 
(6~{a}~{S},11~{a}~{S})-9-methoxy-6~{a},11~{a}-dihydro-6~{H}-benzofuro[3,2-c]chromen-3-ol

>  <annotation_level>  (780) 
5

>  <total_atom_count>  (780) 
34

>  <heavy_atom_count>  (780) 
20

>  <molecular_weight>  (780) 
270.28

>  <exact_molecular_weight>  (780) 
270.08921

>  <molecular_formula>  (780) 
C16H14O4

>  <alogp>  (780) 
3.01

>  <topological_polar_surface_area>  (780) 
47.92

>  <rotatable_bond_count>  (780) 
1

>  <hydrogen_bond_acceptors>  (780) 
4

>  <hydrogen_bond_donors>  (780) 
1

>  <hydrogen_bond_acceptors_lipinski>  (780) 
4

>  <hydrogen_bond_donors_lipinski>  (780) 
1

>  <lipinski_rule_of_five_violations>  (780) 
0

>  <aromatic_rings_count>  (780) 
2

>  <qed_drug_likeliness>  (780) 
0.86

>  <formal_charge>  (780) 
0

>  <fractioncsp3>  (780) 
0.25

>  <number_of_minimal_rings>  (780) 
4

>  <van_der_walls_volume>  (780) 
234.25

>  <contains_sugar>  (780) 
False

>  <contains_ring_sugars>  (780) 
False

>  <contains_linear_sugars>  (780) 
False

>  <murcko_framework>  (780) 
O1c2ccccc2C3Oc4ccccc4C3C1

>  <np_likeness>  (780) 
1.86

>  <chemical_class>  (780) 
Isoflavonoids

>  <chemical_sub_class>  (780) 
Furanoisoflavonoids

>  <chemical_super_class>  (780) 
Phenylpropanoids and polyketides

>  <direct_parent_classification>  (780) 
Pterocarpans

>  <np_classifier_pathway>  (780) 
Shikimates and Phenylpropanoids

>  <np_classifier_superclass>  (780) 
Isoflavonoids

>  <np_classifier_class>  (780) 
Pterocarpan

>  <np_classifier_is_glycoside>  (780) 
False

>  <organisms>  (780) 
Abelia chinensis|Aldina heterophylla|Apis mellifera ligustica|Aplophyllum alberti-regelii|Asimina parviflora|Astragalus membranaceus|Astragalus mongholicus|Atraphaxis spinosa|Baccharis neglecta|Bolusanthus speciosus|Brazilian Red Propolis|Caragana tibetica|Caragana tibetica KOM.|Centaurea maculosa|Centrolobium sclerophyllum|Chondrodendron tomentosum|Clerodendrum bungei|Conus mus|Cordia leucocephala|Dalbergia Volubilis|Dalbergia decipularis|Dalbergia frutescens|Dalbergia monetaria|Dalbergia nitidula|Dalbergia odorifera|Dalbergia ovalis|Dalbergia riparia|Dalbergia sissoo|Dalbergia volubilis|Dalea versicolor|Delea versicolor|Dendronephthya griffini|Diospyros assimilis|Dolabella californica|Embelia parviflora|Embelia schimperi|Ephedra sinica|Epilobium hirsutum|Eria anomala|Erysimum leptophyllum|Erythrina melanacantha|Esenbeckia leiocarpa|Euphorbia nematocypha|Faramea salicifolia|Gliricidia sepium|Gymnocalycium schickendantzii|Haplophyllum obtusifolium|Hedysarum polybotrys|Helichrysum tenuifolium|Hypericum styphelioides|Latrunculia magnifica|Lemaireocereus longispinus|Lonchocarpus negrensis|Lycogala epidendrum|Lythrum salicaria|Maackia amurensis|Machaerium acutifolium|Machaerium aristulatum|Machaerium kuhlmannii|Machaerium nyctitans|Machaerium vestitum|Megaselia flavescens|Monsonia senegalensis|Morella rubra|Myxococcus stipitatus|Ononis vaginalis|Onopordum acanthium|Pancratium sickenbergeri|Piper regnellii|Planchonia grandis|Plathymenia reticulata|Platymiscium floribundum|Propolis|Psorothamnus spinosus|Pteridium esculentum|Pueraria montana var. lobata|Rhinella marina|Shigella dysenteriae|Simarouba glauca|Siphonaria capensis|Sophora Japonica|Sophora flavescens|Sophora japonica L.|Styphnolobium japonicum|Syzygium polycephaloides|Theonella conica|Tricholoma columbetta|Vellozia nanuzae|Vernonia fagifolia|Zollernia paraensis|dalea spinosa|peanut

>  <collections>  (780) 
ANPDB|CMAUP (cCollective molecular activities of useful plants)|ChEBI NPs|KNApSaCK|Latin America dataset|NANPDB (Natural Products from Northern African Sources)|NPASS|NuBBEDB|Super Natural II|VietHerb|WikiData Natural Products|ZINC NP

>  <dois>  (780) 
10.1007/BF00564330|10.1007/S12272-011-0206-0|10.1016/0031-9422(73)85046-0|10.1016/0031-9422(83)80106-X|10.1016/J.BMC.2007.10.004|10.1016/J.BMC.2008.04.016|10.1016/J.LFS.2005.09.044|10.1016/S0031-9422(00)89039-1|10.1016/S0031-9422(00)89103-7|10.1016/S0031-9422(00)90130-4|10.1016/S0031-9422(00)94593-X|10.1016/S0031-9422(00)94594-1|10.1016/S0031-9422(00)94599-0|10.1016/S0031-9422(00)94600-4|10.1016/S0031-9422(00)97984-6|10.1016/S0031-9422(97)00517-7|10.1016/j.phytochem.2004.02.011|10.1021/JF9808731|10.1021/NP0103158|10.1021/NP030409C|10.1021/NP049854D|10.1021/NP058057S|10.1021/NP070478H|10.1055/S-2001-14325|10.1055/S-2005-871277|10.1055/S-2006-957394|10.1211/JPP.61.02.0017|10.1248/CPB.32.3267|10.1248/CPB.33.5606|10.1248/CPB.37.979|10.1248/CPB.40.2452|10.1248/CPB.53.1204|10.1248/CPB.57.302|10.1515/ZNC-1985-5-605

>  <synonyms>  (780) 
(+)-(6aS,11aS)-medicarpin|(+)-Medicrpin|(+\/-)-Medicarpin|(1S,10S)-14-methoxy-8,17-dioxatetracyclo[8.7.0.0?,?.0??,??]heptadeca-2(7),3,5,11,13,15-hexaen-5-ol|(6As,11As)-Medicarpin|(6aS, 11aS)-Medicarpin|(6aS,11aS)-9-methoxy-6a,11a-dihydro-6H-[1]benzofuro[3,2-c]chromen-3-ol|(6aS,11aS)-Demethylhomopterocarpin|3-Hydroxy-9-methoxypterocarpan|33983-39-0|33983-40-3|9-Methoxy-6a,11a-dimethyl-6a,11a-dihydro-6H-\\ 1-benzofuro[3,2-c]chromen-3-ol from Dalbergia Oliveri|AKOS040740841|C01729|CHEBI:6714|CHEMBL413297|CS-0032253|DTXSID80872005|HY-N6052|Medicarpin (6\u221a\u00e9\u00ac\u00b1S11\u221a\u00e9\u00ac\u00b1S)-demethylhomopterocarpin, 3-hydroxy-9-methoxypterocarpan|Q27107309|SCHEMBL19999732|medicarpan

>  <cas>  (780) 
33983-39-0|33983-40-3

$$$$

     RDKit          2D

 41 44  0  0  0  0  0  0  0  0999 V2000
    8.3428   -2.9272    0.0000 C   0  0  0  0  0  0  0  0  0  0  0  0
    8.4751   -1.4330    0.0000 C   0  0  0  0  0  0  0  0  0  0  0  0
    7.2474   -0.5713    0.0000 C   0  0  0  0  0  0  0  0  0  0  0  0
    7.3797    0.9228    0.0000 C   0  0  0  0  0  0  0  0  0  0  0  0
    5.8872   -1.2038    0.0000 C   0  0  0  0  0  0  0  0  0  0  0  0
    4.6594   -0.3420    0.0000 C   0  0  0  0  0  0  0  0  0  0  0  0
    2.6233   -0.7926    0.0000 C   0  0  0  0  0  0  0  0  0  0  0  0
    4.1583   -2.2041    0.0000 C   0  0  0  0  0  0  0  0  0  0  0  0
    2.9126    0.4748    0.0000 C   0  0  0  0  0  0  0  0  0  0  0  0
    3.9744    1.5343    0.0000 C   0  0  0  0  0  0  0  0  0  0  0  0
    3.5878    2.9836    0.0000 C   0  0  0  0  0  0  0  0  0  0  0  0
    4.6496    4.0431    0.0000 O   0  0  0  0  0  0  0  0  0  0  0  0
    2.1394    3.3735    0.0000 C   0  0  0  0  0  0  0  0  0  0  0  0
    1.0775    2.3140    0.0000 C   0  0  0  0  0  0  0  0  0  0  0  0
   -0.4203    2.3941    0.0000 C   0  0  0  0  0  0  0  0  0  0  0  0
   -1.2359    3.6530    0.0000 O   0  0  0  0  0  0  0  0  0  0  0  0
   -2.7339    3.5762    0.0000 C   0  0  0  0  0  0  0  0  0  0  0  0
   -3.5495    4.8351    0.0000 C   0  0  0  0  0  0  0  0  0  0  0  0
   -3.4164    2.2404    0.0000 O   0  0  0  0  0  0  0  0  0  0  0  0
   -0.9594    0.9943    0.0000 O   0  0  0  0  0  0  0  0  0  0  0  0
    0.2053    0.0491    0.0000 C   0  0  0  0  0  0  0  0  0  0  0  0
    0.1251   -1.4488    0.0000 O   0  0  0  0  0  0  0  0  0  0  0  0
   -1.2121   -2.1283    0.0000 C   0  0  0  0  0  0  0  0  0  0  0  0
   -1.2923   -3.6261    0.0000 C   0  0  0  0  0  0  0  0  0  0  0  0
   -2.6299   -1.6385    0.0000 O   0  0  0  0  0  0  0  0  0  0  0  0
    1.4642    0.8647    0.0000 C   0  0  0  0  0  0  0  0  0  0  0  0
    1.0783   -0.3768    0.0000 C   0  0  0  0  0  0  0  0  0  0  0  0
   -1.0461    0.1950    0.0000 O   0  0  0  0  0  0  0  0  0  0  0  0
   -2.1079   -0.8645    0.0000 C   0  0  0  0  0  0  0  0  0  0  0  0
   -2.0835   -2.3643    0.0000 O   0  0  0  0  0  0  0  0  0  0  0  0
   -3.5564   -0.4747    0.0000 C   0  0  0  0  0  0  0  0  0  0  0  0
   -4.6182   -1.5342    0.0000 C   0  0  0  0  0  0  0  0  0  0  0  0
   -6.0667   -1.1444    0.0000 C   0  0  0  0  0  0  0  0  0  0  0  0
   -6.4533    0.3050    0.0000 C   0  0  0  0  0  0  0  0  0  0  0  0
   -7.9018    0.6948    0.0000 C   0  0  0  0  0  0  0  0  0  0  0  0
   -8.9636   -0.3647    0.0000 C   0  0  0  0  0  0  0  0  0  0  0  0
   -8.5770   -1.8140    0.0000 C   0  0  0  0  0  0  0  0  0  0  0  0
   -7.1285   -2.2039    0.0000 C   0  0  0  0  0  0  0  0  0  0  0  0
    1.2845   -1.1497    0.0000 C   0  0  0  0  0  0  0  0  0  0  0  0
    2.0570   -1.3576    0.0000 C   0  0  0  0  0  0  0  0  0  0  0  0
    2.6241   -3.4833    0.0000 C   0  0  0  0  0  0  0  0  0  0  0  0
  1  2  2  0
  2  3  1  0
  3  4  1  0
  3  5  2  0
  5  6  1  0
  6  7  1  0
  7  8  1  6
  7  9  1  0
  9 10  1  6
 10 11  1  0
 11 12  1  1
 11 13  1  0
 13 14  2  0
 14 15  1  0
 15 16  1  1
 16 17  1  0
 17 18  1  0
 17 19  2  0
 15 20  1  0
 20 21  1  0
 21 22  1  6
 22 23  1  0
 23 24  1  0
 23 25  2  0
 21 26  1  0
 26 27  1  0
 27 28  1  1
 28 29  1  0
 29 30  2  0
 29 31  1  0
 31 32  2  0
 32 33  1  0
 33 34  2  0
 34 35  1  0
 35 36  2  0
 36 37  1  0
 37 38  2  0
 27 39  1  0
 39 40  1  0
 40 41  1  1
 40  7  1  0
 26  9  1  0
 38 33  1  0
 26 14  1  6
M  END
>  <identifier>  (781) 
CNP0202389.1

>  <canonical_smiles>  (781) 
C=C/C(C)=C/C[C@]1(C)[C@H]2C[C@H](O)C=C3[C@H](OC(C)=O)O[C@@H](OC(C)=O)[C@@]32[C@H](OC(=O)/C=C/C2=CC=CC=C2)C[C@@H]1C

>  <standard_inchi>  (781) 
InChI=1S/C33H40O8/c1-7-20(2)15-16-32(6)21(3)17-28(40-29(37)14-13-24-11-9-8-10-12-24)33-26(18-25(36)19-27(32)33)30(38-22(4)34)41-31(33)39-23(5)35/h7-15,18,21,25,27-28,30-31,36H,1,16-17,19H2,2-6H3/b14-13+,20-15+/t21-,25+,27+,28+,30+,31+,32-,33-/m0/s1

>  <standard_inchi_key>  (781) 
YPXOUSATDOVBBH-YEUOXLKWSA-N

>  <name>  (781) 
[(1S,3S,5S,6aR,7S,8S,10R,10aR)-1,3-diacetyloxy-5-hydroxy-7,8-dimethyl-7-[(2E)-3-methylpenta-2,4-dienyl]-1,3,5,6,6a,8,9,10-octahydrobenzo[d][2]benzofuran-10-yl] (E)-3-phenylprop-2-enoate

>  <iupac_name>  (781) 
[(1~{S},3~{S},5~{S},6~{a}~{R},7~{S},8~{S},10~{R},10~{a}~{R})-1,3-diacetoxy-5-hydroxy-7,8-dimethyl-7-[(2~{E})-3-methylpenta-2,4-dienyl]-1,3,5,6,6~{a},8,9,10-octahydrobenzo[d]isobenzofuran-10-yl] (~{E})-3-phenylprop-2-enoate

>  <annotation_level>  (781) 
5

>  <total_atom_count>  (781) 
81

>  <heavy_atom_count>  (781) 
41

>  <molecular_weight>  (781) 
564.68

>  <exact_molecular_weight>  (781) 
564.27232

>  <molecular_formula>  (781) 
C33H40O8

>  <alogp>  (781) 
5.28

>  <topological_polar_surface_area>  (781) 
108.36

>  <rotatable_bond_count>  (781) 
8

>  <hydrogen_bond_acceptors>  (781) 
8

>  <hydrogen_bond_donors>  (781) 
1

>  <hydrogen_bond_acceptors_lipinski>  (781) 
8

>  <hydrogen_bond_donors_lipinski>  (781) 
1

>  <lipinski_rule_of_five_violations>  (781) 
2

>  <aromatic_rings_count>  (781) 
1

>  <qed_drug_likeliness>  (781) 
0.15

>  <formal_charge>  (781) 
0

>  <fractioncsp3>  (781) 
0.49

>  <number_of_minimal_rings>  (781) 
4

>  <van_der_walls_volume>  (781) 
522.24

>  <contains_sugar>  (781) 
False

>  <contains_ring_sugars>  (781) 
False

>  <contains_linear_sugars>  (781) 
False

>  <murcko_framework>  (781) 
O1CC2=CCCC3CCCC(OCC=Cc4ccccc4)C23C1

>  <np_likeness>  (781) 
3.04

>  <chemical_class>  (781) 
Prenol lipids

>  <chemical_sub_class>  (781) 
Diterpenoids

>  <chemical_super_class>  (781) 
Lipids and lipid-like molecules

>  <direct_parent_classification>  (781) 
Colensane and clerodane diterpenoids

>  <np_classifier_pathway>  (781) 
Terpenoids

>  <np_classifier_superclass>  (781) 
Diterpenoids

>  <np_classifier_class>  (781) 
Colensane and Clerodane diterpenoids

>  <np_classifier_is_glycoside>  (781) 
True

>  <organisms>  (781) 
Casearia obliqua|casearia obliqua

>  <collections>  (781) 
ChemSpider NPs|Latin America dataset|NPASS|NuBBEDB|Super Natural II|WikiData Natural Products|ZINC NP

>  <dois>  (781) 
10.1021/NP9004079|10.1021/np9004079

>  <synonyms>  (781) 
2\u221a\u00e9\u00ac\u2264-Hydroxyzuelanin-6\u221a\u00e9\u00ac\u2264-cinnamate|CHEMBL1077478

>  <cas>  (781) 
nan

$$$$

     RDKit          2D

 30 33  0  0  0  0  0  0  0  0999 V2000
    8.9775   -1.2979    0.0000 C   0  0  0  0  0  0  0  0  0  0  0  0
    8.0619   -0.1097    0.0000 O   0  0  0  0  0  0  0  0  0  0  0  0
    6.5752   -0.3085    0.0000 C   0  0  0  0  0  0  0  0  0  0  0  0
    6.0039   -1.6955    0.0000 C   0  0  0  0  0  0  0  0  0  0  0  0
    4.5172   -1.8943    0.0000 C   0  0  0  0  0  0  0  0  0  0  0  0
    3.6016   -0.7061    0.0000 C   0  0  0  0  0  0  0  0  0  0  0  0
    2.1149   -0.9048    0.0000 C   0  0  0  0  0  0  0  0  0  0  0  0
    1.4018   -2.2245    0.0000 O   0  0  0  0  0  0  0  0  0  0  0  0
   -0.0737   -1.9541    0.0000 C   0  0  0  0  0  0  0  0  0  0  0  0
   -0.2724   -0.4673    0.0000 C   0  0  0  0  0  0  0  0  0  0  0  0
    1.0801    0.1811    0.0000 C   0  0  0  0  0  0  0  0  0  0  0  0
    0.8814    1.6679    0.0000 C   0  0  0  0  0  0  0  0  0  0  0  0
   -0.5941    1.9383    0.0000 O   0  0  0  0  0  0  0  0  0  0  0  0
   -1.3071    0.6186    0.0000 C   0  0  0  0  0  0  0  0  0  0  0  0
   -2.7939    0.4199    0.0000 C   0  0  0  0  0  0  0  0  0  0  0  0
   -3.7094    1.6081    0.0000 C   0  0  0  0  0  0  0  0  0  0  0  0
   -5.1962    1.4093    0.0000 C   0  0  0  0  0  0  0  0  0  0  0  0
   -6.1118    2.5975    0.0000 O   0  0  0  0  0  0  0  0  0  0  0  0
   -5.5405    3.9844    0.0000 C   0  0  0  0  0  0  0  0  0  0  0  0
   -5.7675    0.0223    0.0000 C   0  0  0  0  0  0  0  0  0  0  0  0
   -7.2542   -0.1765    0.0000 O   0  0  0  0  0  0  0  0  0  0  0  0
   -7.8255   -1.5634    0.0000 C   0  0  0  0  0  0  0  0  0  0  0  0
   -4.8519   -1.1659    0.0000 C   0  0  0  0  0  0  0  0  0  0  0  0
   -5.4232   -2.5528    0.0000 O   0  0  0  0  0  0  0  0  0  0  0  0
   -4.5076   -3.7410    0.0000 C   0  0  0  0  0  0  0  0  0  0  0  0
   -3.3652   -0.9671    0.0000 C   0  0  0  0  0  0  0  0  0  0  0  0
    4.1729    0.6809    0.0000 C   0  0  0  0  0  0  0  0  0  0  0  0
    5.6596    0.8797    0.0000 C   0  0  0  0  0  0  0  0  0  0  0  0
    6.2309    2.2666    0.0000 O   0  0  0  0  0  0  0  0  0  0  0  0
    5.3154    3.4548    0.0000 C   0  0  0  0  0  0  0  0  0  0  0  0
  1  2  1  0
  2  3  1  0
  3  4  2  0
  4  5  1  0
  5  6  2  0
  7  6  1  1
  7  8  1  0
  8  9  1  0
 10  9  1  6
 10 11  1  0
 11 12  1  6
 12 13  1  0
 13 14  1  0
 14 15  1  1
 15 16  2  0
 16 17  1  0
 17 18  1  0
 18 19  1  0
 17 20  2  0
 20 21  1  0
 21 22  1  0
 20 23  1  0
 23 24  1  0
 24 25  1  0
 23 26  2  0
  6 27  1  0
 27 28  2  0
 28 29  1  0
 29 30  1  0
 28  3  1  0
 11  7  1  0
 26 15  1  0
 14 10  1  0
M  END
>  <identifier>  (782) 
CNP0387711.1

>  <canonical_smiles>  (782) 
COC1=CC=C([C@H]2OC[C@H]3[C@@H]2CO[C@@H]3C2=CC(OC)=C(OC)C(OC)=C2)C=C1OC

>  <standard_inchi>  (782) 
InChI=1S/C23H28O7/c1-24-17-7-6-13(8-18(17)25-2)21-15-11-30-22(16(15)12-29-21)14-9-19(26-3)23(28-5)20(10-14)27-4/h6-10,15-16,21-22H,11-12H2,1-5H3/t15-,16-,21+,22+/m0/s1

>  <standard_inchi_key>  (782) 
MFIHSKBTNZNJIK-RZTYQLBFSA-N

>  <name>  (782) 
Magnolin

>  <iupac_name>  (782) 
(3~{S},3~{a}~{R},6~{S},6~{a}~{R})-3-(3,4-dimethoxyphenyl)-6-(3,4,5-trimethoxyphenyl)-1,3,3~{a},4,6,6~{a}-hexahydrofuro[3,4-c]furan

>  <annotation_level>  (782) 
5

>  <total_atom_count>  (782) 
58

>  <heavy_atom_count>  (782) 
30

>  <molecular_weight>  (782) 
416.47

>  <exact_molecular_weight>  (782) 
416.1835

>  <molecular_formula>  (782) 
C23H28O7

>  <alogp>  (782) 
3.80

>  <topological_polar_surface_area>  (782) 
64.61

>  <rotatable_bond_count>  (782) 
7

>  <hydrogen_bond_acceptors>  (782) 
7

>  <hydrogen_bond_donors>  (782) 
0

>  <hydrogen_bond_acceptors_lipinski>  (782) 
7

>  <hydrogen_bond_donors_lipinski>  (782) 
0

>  <lipinski_rule_of_five_violations>  (782) 
0

>  <aromatic_rings_count>  (782) 
2

>  <qed_drug_likeliness>  (782) 
0.68

>  <formal_charge>  (782) 
0

>  <fractioncsp3>  (782) 
0.48

>  <number_of_minimal_rings>  (782) 
4

>  <van_der_walls_volume>  (782) 
376.51

>  <contains_sugar>  (782) 
False

>  <contains_ring_sugars>  (782) 
False

>  <contains_linear_sugars>  (782) 
False

>  <murcko_framework>  (782) 
O1CC2C(OCC2C1c3ccccc3)c4ccccc4

>  <np_likeness>  (782) 
0.78

>  <chemical_class>  (782) 
Furanoid lignans

>  <chemical_sub_class>  (782) 
Furan lignans

>  <chemical_super_class>  (782) 
Lignans, neolignans and related compounds

>  <direct_parent_classification>  (782) 
Furan lignans

>  <np_classifier_pathway>  (782) 
Shikimates and Phenylpropanoids

>  <np_classifier_superclass>  (782) 
Lignans

>  <np_classifier_class>  (782) 
Furofuranoid lignans

>  <np_classifier_is_glycoside>  (782) 
False

>  <organisms>  (782) 
Achillea holosericea|Acilepidopsis echitifolia|Acorus calamus|Actinoplanes durhamensis|Annona mucosa|Artemisia gorgonum|Geranium lambertii|Geranium platyanthum|Leucophyllum ambiguum|Licaria armeniaca|Magnolia biondii|Magnolia denudata|Magnolia fargesii|Magnolia kobus|Magnolia kobus var. borealis|Magnolia salicifolia|Magnolia sprengeri|Oenothera odorata|Persea pyrifolia|Polygala gazensis|Rollinia membranacea|Rollinia mucosa|Scenedesmus basiliensis|Vitex peduncularis

>  <collections>  (782) 
AnalytiCon Discovery NPs|Australian natural products|CMAUP (cCollective molecular activities of useful plants)|ChemSpider NPs|KNApSaCK|Latin America dataset|NPASS|NPEdia|NuBBEDB|Phyto4Health|Super Natural II|WikiData Natural Products|ZINC NP

>  <dois>  (782) 
10.1002/HLCA.200890256|10.1007/BF03216755|10.1016/0031-9422(81)80120-3|10.1016/0031-9422(81)84045-9|10.1016/0031-9422(92)83756-O|10.1016/0031-9422(95)00578-1|10.1016/J.JEP.2011.09.039|10.1016/J.PHYMED.2008.04.012|10.1016/S0031-9422(00)81539-3|10.1016/S0031-9422(00)81816-6|10.1016/S0031-9422(01)00442-3|10.1021/NP970510F|10.1021/NP990118X|10.1021/acs.jnatprod.0c00454|10.1055/S-2006-962492|10.1590/S0100-40422010000200017|10.32861/JBR.66.57.61

>  <synonyms>  (782) 
(+)-magnolin|(+\/-)-Magnolin|(1S,3AR,4S,6AR)-1-(3,4-DIMETHOXYPHENYL)-4-(3,4,5-TRIMETHOXYPHENYL)-HEXAHYDROFURO(3,4-C)FURAN|(1S,3aR,4S,6aR)-1-(3,4-dimethoxyphenyl)-4-(3,4,5-trimethoxyphenyl)-hexahydrofuro[3,4-c]furan|(1S-(1.ALPHA.,3A.ALPHA.,4.ALPHA.,6A.ALPHA.))-1H,3H-FURO(3,4-C)FURAN, 1.ALPHA.-(3,4-DIMETHOXYPHENYL)-3A.ALPHA.,4,6,6A.ALPHA.-TETRAHYDRO-4.ALPHA.-(3,4,5-TRIMETHOXYPHENYL)-, (+)-|(1S-(1alpha,3Aalpha,4alpha,6Aalpha))-1H,3H-FURO(3,4-C)FURAN, 1alpha-(3,4-DIMETHOXYPHENYL)-3Aalpha,4,6,6Aalpha-TETRAHYDRO-4alpha-(3,4,5-TRIMETHOXYPHENYL)-, (+)-|(1s,3ar,4s,6ar)-1-(3,4-dimethoxyphenyl)-4-(3,4,5-trimethoxyphenyl)tetrahydro-1h,3h-furo[3,4-c]furan|(3S,3aR,6S,6aR)-3-(3,4-dimethoxyphenyl)-6-(3,4,5-trimethoxyphenyl)-1,3,3a,4,6,6a-hexahydrofuro[3,4-c]furan|1-(3,4-dimethoxyphenyl)-4-(3,4,5-trimethoxyphenyl)perhydrofuro[3,4-c]furan|1275595-33-9|1H,3H-FURO(3,4-C)FURAN, 1-(3,4-DIMETHOXYPHENYL)TETRAHYDRO-4-(3,4,5-TRIMETHOXYPHENYL)-, (1S,3AR,4S,6AR)-|1H,3H-Furo(3,4-c)furan, 1-(3,4-dimethoxyphenyl)tetrahydro-4-(3,4,5-trimethoxyphenyl)-, (1S-(1alpha,3alpha,4alpha,6aalpha))-|1H,3H-Furo[3,4-c]furan, 1-(3,4-dimethoxyphenyl)tetrahydro-4-(3,4,5-trimethoxyphenyl)-, (1S,3aR,4S,6aR)-|1ST14741|31008-18-1|41689-51-4|95DA2NWV8P|AC-34491|AKOS015896749|AS-74802|BDBM50541534|CCG-268841|CHEMBL519926|CS-6942|DTXSID10953134|HY-N1374|MEDIORESINOL DIMETHYL ETHER|MFCD07783722|Magnolin|Q-100391|SCHEMBL18013408|UNII-95DA2NWV8P|XM73931|magnolin|s9102

>  <cas>  (782) 
31008-18-1|41689-51-4

$$$$

     RDKit          2D

 35 37  0  0  0  0  0  0  0  0999 V2000
   -6.5794    2.0191    0.0000 C   0  0  0  0  0  0  0  0  0  0  0  0
   -6.0419    0.6187    0.0000 O   0  0  0  0  0  0  0  0  0  0  0  0
   -4.5603    0.3841    0.0000 C   0  0  0  0  0  0  0  0  0  0  0  0
   -3.6164    1.5498    0.0000 C   0  0  0  0  0  0  0  0  0  0  0  0
   -2.1348    1.3151    0.0000 C   0  0  0  0  0  0  0  0  0  0  0  0
   -1.1909    2.4809    0.0000 O   0  0  0  0  0  0  0  0  0  0  0  0
   -1.7284    3.8812    0.0000 C   0  0  0  0  0  0  0  0  0  0  0  0
   -0.7844    5.0470    0.0000 C   0  0  0  0  0  0  0  0  0  0  0  0
   -3.2099    4.1159    0.0000 O   0  0  0  0  0  0  0  0  0  0  0  0
   -1.5973   -0.0852    0.0000 C   0  0  0  0  0  0  0  0  0  0  0  0
   -0.1157   -0.3199    0.0000 C   0  0  0  0  0  0  0  0  0  0  0  0
    0.4218   -1.7202    0.0000 C   0  0  0  0  0  0  0  0  0  0  0  0
   -0.5222   -2.8860    0.0000 O   0  0  0  0  0  0  0  0  0  0  0  0
   -2.0037   -2.6513    0.0000 C   0  0  0  0  0  0  0  0  0  0  0  0
    1.9033   -1.9549    0.0000 C   0  0  0  0  0  0  0  0  0  0  0  0
    2.4409   -3.3553    0.0000 O   0  0  0  0  0  0  0  0  0  0  0  0
    2.8473   -0.7892    0.0000 C   0  0  0  0  0  0  0  0  0  0  0  0
    4.3289   -1.0238    0.0000 C   0  0  0  0  0  0  0  0  0  0  0  0
    4.8664   -2.4242    0.0000 O   0  0  0  0  0  0  0  0  0  0  0  0
    6.3479   -2.6588    0.0000 C   0  0  0  0  0  0  0  0  0  0  0  0
    5.2728    0.1419    0.0000 C   0  0  0  0  0  0  0  0  0  0  0  0
    6.7544   -0.0927    0.0000 O   0  0  0  0  0  0  0  0  0  0  0  0
    7.2919   -1.4931    0.0000 C   0  0  0  0  0  0  0  0  0  0  0  0
    4.7353    1.5423    0.0000 C   0  0  0  0  0  0  0  0  0  0  0  0
    5.6793    2.7080    0.0000 O   0  0  0  0  0  0  0  0  0  0  0  0
    7.1608    2.4733    0.0000 C   0  0  0  0  0  0  0  0  0  0  0  0
    3.2537    1.7769    0.0000 C   0  0  0  0  0  0  0  0  0  0  0  0
    2.3098    0.6112    0.0000 C   0  0  0  0  0  0  0  0  0  0  0  0
    0.8282    0.8459    0.0000 O   0  0  0  0  0  0  0  0  0  0  0  0
   -2.5413   -1.2509    0.0000 C   0  0  0  0  0  0  0  0  0  0  0  0
   -4.0228   -1.0163    0.0000 C   0  0  0  0  0  0  0  0  0  0  0  0
   -4.9668   -2.1820    0.0000 O   0  0  0  0  0  0  0  0  0  0  0  0
   -6.4483   -1.9474    0.0000 C   0  0  0  0  0  0  0  0  0  0  0  0
   -7.3923   -3.1131    0.0000 C   0  0  0  0  0  0  0  0  0  0  0  0
   -6.9859   -0.5470    0.0000 O   0  0  0  0  0  0  0  0  0  0  0  0
  1  2  1  0
  2  3  1  0
  3  4  2  0
  4  5  1  0
  5  6  1  0
  6  7  1  0
  7  8  1  0
  7  9  2  0
  5 10  2  0
 10 11  1  0
 11 12  2  0
 12 13  1  0
 13 14  1  0
 12 15  1  0
 15 16  2  0
 15 17  1  0
 17 18  2  0
 18 19  1  0
 19 20  1  0
 18 21  1  0
 21 22  1  0
 22 23  1  0
 21 24  2  0
 24 25  1  0
 25 26  1  0
 24 27  1  0
 27 28  2  0
 28 29  1  0
 10 30  1  0
 30 31  2  0
 31 32  1  0
 32 33  1  0
 33 34  1  0
 33 35  2  0
 31  3  1  0
 29 11  1  0
 28 17  1  0
M  END
>  <identifier>  (783) 
CNP0080418.0

>  <canonical_smiles>  (783) 
COC1=CC(OC(C)=O)=C(C2=C(OC)C(=O)C3=C(OC)C(OC)=C(OC)C=C3O2)C=C1OC(C)=O

>  <standard_inchi>  (783) 
InChI=1S/C24H24O11/c1-11(25)33-14-9-15(28-3)16(34-12(2)26)8-13(14)21-24(32-7)20(27)19-17(35-21)10-18(29-4)22(30-5)23(19)31-6/h8-10H,1-7H3

>  <standard_inchi_key>  (783) 
HJFLUXICAZRNRW-UHFFFAOYSA-N

>  <name>  (783) 
34318-22-4

>  <iupac_name>  (783) 
[4-acetoxy-2-methoxy-5-(3,5,6,7-tetramethoxy-4-oxo-chromen-2-yl)phenyl] acetate

>  <annotation_level>  (783) 
5

>  <total_atom_count>  (783) 
59

>  <heavy_atom_count>  (783) 
35

>  <molecular_weight>  (783) 
488.45

>  <exact_molecular_weight>  (783) 
488.13186

>  <molecular_formula>  (783) 
C24H24O11

>  <alogp>  (783) 
3.35

>  <topological_polar_surface_area>  (783) 
128.96

>  <rotatable_bond_count>  (783) 
8

>  <hydrogen_bond_acceptors>  (783) 
11

>  <hydrogen_bond_donors>  (783) 
0

>  <hydrogen_bond_acceptors_lipinski>  (783) 
11

>  <hydrogen_bond_donors_lipinski>  (783) 
0

>  <lipinski_rule_of_five_violations>  (783) 
1

>  <aromatic_rings_count>  (783) 
3

>  <qed_drug_likeliness>  (783) 
0.34

>  <formal_charge>  (783) 
0

>  <fractioncsp3>  (783) 
0.29

>  <number_of_minimal_rings>  (783) 
3

>  <van_der_walls_volume>  (783) 
nan

>  <contains_sugar>  (783) 
False

>  <contains_ring_sugars>  (783) 
False

>  <contains_linear_sugars>  (783) 
False

>  <murcko_framework>  (783) 
O1c2ccccc2CC=C1c3ccccc3

>  <np_likeness>  (783) 
0.95

>  <chemical_class>  (783) 
Flavonoids

>  <chemical_sub_class>  (783) 
O-methylated flavonoids

>  <chemical_super_class>  (783) 
Phenylpropanoids and polyketides

>  <direct_parent_classification>  (783) 
6-O-methylated flavonoids

>  <np_classifier_pathway>  (783) 
Shikimates and Phenylpropanoids

>  <np_classifier_superclass>  (783) 
Flavonoids

>  <np_classifier_class>  (783) 
Flavonols

>  <np_classifier_is_glycoside>  (783) 
False

>  <organisms>  (783) 
Apuleia leiocarpa

>  <collections>  (783) 
Latin America dataset|NuBBEDB|WikiData Natural Products|ZINC NP

>  <dois>  (783) 
10.1016/S0031-9422(00)89891-X

>  <synonyms>  (783) 
2',5'-Di(acetyloxy)-3,4',5,6,7-pentamethoxyflavone|4-(Acetyloxy)-2-methoxy-5-(3,5,6,7-tetramethoxy-4-oxo-4H-chromen-2-yl)phenyl acetate #|Apulein diacetate|Flavone, 2',5'-dihydroxy-3,4',5,6,7-pentamethoxy-, diacetate|HJFLUXICAZRNRW-UHFFFAOYSA-N

>  <cas>  (783) 
nan

$$$$

     RDKit          2D

 18 20  0  0  0  0  0  0  0  0999 V2000
    4.8338    2.1052    0.0000 C   0  0  0  0  0  0  0  0  0  0  0  0
    4.4723    0.6495    0.0000 O   0  0  0  0  0  0  0  0  0  0  0  0
    3.0308    0.2347    0.0000 C   0  0  0  0  0  0  0  0  0  0  0  0
    1.9508    1.2757    0.0000 C   0  0  0  0  0  0  0  0  0  0  0  0
    0.5093    0.8610    0.0000 C   0  0  0  0  0  0  0  0  0  0  0  0
   -0.5707    1.9020    0.0000 N   0  0  0  0  0  0  0  0  0  0  0  0
   -2.0122    1.4872    0.0000 C   0  0  0  0  0  0  0  0  0  0  0  0
   -2.3737    0.0314    0.0000 C   0  0  0  0  0  0  0  0  0  0  0  0
   -3.8700   -0.0745    0.0000 C   0  0  0  0  0  0  0  0  0  0  0  0
   -4.4332    1.3157    0.0000 C   0  0  0  0  0  0  0  0  0  0  0  0
   -3.2850    2.2809    0.0000 O   0  0  0  0  0  0  0  0  0  0  0  0
   -1.2938   -1.0096    0.0000 C   0  0  0  0  0  0  0  0  0  0  0  0
   -1.6554   -2.4653    0.0000 O   0  0  0  0  0  0  0  0  0  0  0  0
   -3.0969   -2.8801    0.0000 C   0  0  0  0  0  0  0  0  0  0  0  0
    0.1477   -0.5948    0.0000 C   0  0  0  0  0  0  0  0  0  0  0  0
    1.2277   -1.6358    0.0000 C   0  0  0  0  0  0  0  0  0  0  0  0
    2.6692   -1.2211    0.0000 C   0  0  0  0  0  0  0  0  0  0  0  0
    3.7491   -2.2621    0.0000 O   0  0  0  0  0  0  0  0  0  0  0  0
  1  2  1  0
  2  3  1  0
  3  4  2  0
  4  5  1  0
  5  6  2  0
  6  7  1  0
  7  8  2  0
  8  9  1  0
  9 10  2  0
 10 11  1  0
  8 12  1  0
 12 13  1  0
 13 14  1  0
 12 15  2  0
 15 16  1  0
 16 17  2  0
 17 18  1  0
 17  3  1  0
 15  5  1  0
 11  7  1  0
M  END
>  <identifier>  (784) 
CNP0163828.0

>  <canonical_smiles>  (784) 
COC1=CC2=NC3=C(C=CO3)C(OC)=C2C=C1O

>  <standard_inchi>  (784) 
InChI=1S/C13H11NO4/c1-16-11-6-9-8(5-10(11)15)12(17-2)7-3-4-18-13(7)14-9/h3-6,15H,1-2H3

>  <standard_inchi_key>  (784) 
XYFGOYBZIPFPJH-UHFFFAOYSA-N

>  <name>  (784) 
nan

>  <iupac_name>  (784) 
4,7-dimethoxyfuro[2,3-b]quinolin-6-ol

>  <annotation_level>  (784) 
4

>  <total_atom_count>  (784) 
29

>  <heavy_atom_count>  (784) 
18

>  <molecular_weight>  (784) 
245.23

>  <exact_molecular_weight>  (784) 
245.06881

>  <molecular_formula>  (784) 
C13H11NO4

>  <alogp>  (784) 
2.70

>  <topological_polar_surface_area>  (784) 
64.72

>  <rotatable_bond_count>  (784) 
2

>  <hydrogen_bond_acceptors>  (784) 
5

>  <hydrogen_bond_donors>  (784) 
1

>  <hydrogen_bond_acceptors_lipinski>  (784) 
5

>  <hydrogen_bond_donors_lipinski>  (784) 
1

>  <lipinski_rule_of_five_violations>  (784) 
0

>  <aromatic_rings_count>  (784) 
3

>  <qed_drug_likeliness>  (784) 
0.75

>  <formal_charge>  (784) 
0

>  <fractioncsp3>  (784) 
0.15

>  <number_of_minimal_rings>  (784) 
3

>  <van_der_walls_volume>  (784) 
208.08

>  <contains_sugar>  (784) 
False

>  <contains_ring_sugars>  (784) 
False

>  <contains_linear_sugars>  (784) 
False

>  <murcko_framework>  (784) 
n1c2occc2cc3ccccc13

>  <np_likeness>  (784) 
1.15

>  <chemical_class>  (784) 
Quinolines and derivatives

>  <chemical_sub_class>  (784) 
Furanoquinolines

>  <chemical_super_class>  (784) 
Organoheterocyclic compounds

>  <direct_parent_classification>  (784) 
Furanoquinolines

>  <np_classifier_pathway>  (784) 
Alkaloids

>  <np_classifier_superclass>  (784) 
Tryptophan alkaloids

>  <np_classifier_class>  (784) 
Quinoline alkaloids

>  <np_classifier_is_glycoside>  (784) 
False

>  <organisms>  (784) 
Delphinium biternatum|Delphinium scabriflorum|Ertela trifolia|Esenbeckia grandiflora ssp.brevipetiolata|Haplophyllum vulcanicum|Monniera trifolia|Monnieria trifolia

>  <collections>  (784) 
KNApSaCK|Latin America dataset|Mitishamba database|NuBBEDB|Super Natural II|UNPD (Universal Natural Products Database)|WikiData Natural Products|ZINC NP

>  <dois>  (784) 
10.1007/BF00565884|10.1021/NP0305066|10.1590/S0100-40422009000800010|10.3987/R-1981-03-0371|10.3987/R-1984-12-2821

>  <synonyms>  (784) 
4,7-dimethoxyfuro[2,3-b]quinolin-6-ol|Delbine

>  <cas>  (784) 
nan

$$$$

     RDKit          2D

 21 21  0  0  0  0  0  0  0  0999 V2000
  -11.1388   -1.0895    0.0000 C   0  0  0  0  0  0  0  0  0  0  0  0
   -9.8300   -0.3568    0.0000 C   0  0  0  0  0  0  0  0  0  0  0  0
   -8.5211    0.3760    0.0000 C   0  0  0  0  0  0  0  0  0  0  0  0
   -7.2321   -0.3912    0.0000 C   0  0  0  0  0  0  0  0  0  0  0  0
   -5.9233    0.3416    0.0000 C   0  0  0  0  0  0  0  0  0  0  0  0
   -4.6343   -0.4256    0.0000 C   0  0  0  0  0  0  0  0  0  0  0  0
   -3.3254    0.3072    0.0000 C   0  0  0  0  0  0  0  0  0  0  0  0
   -2.0364   -0.4600    0.0000 C   0  0  0  0  0  0  0  0  0  0  0  0
   -0.7276    0.2728    0.0000 C   0  0  0  0  0  0  0  0  0  0  0  0
    0.5614   -0.4943    0.0000 C   0  0  0  0  0  0  0  0  0  0  0  0
    1.8703    0.2384    0.0000 C   0  0  0  0  0  0  0  0  0  0  0  0
    3.2324   -0.3898    0.0000 C   0  0  0  0  0  0  0  0  0  0  0  0
    4.2508    0.7115    0.0000 C   0  0  0  0  0  0  0  0  0  0  0  0
    5.7404    0.5350    0.0000 C   0  0  0  0  0  0  0  0  0  0  0  0
    6.3323   -0.8433    0.0000 C   0  0  0  0  0  0  0  0  0  0  0  0
    5.4346   -2.0450    0.0000 O   0  0  0  0  0  0  0  0  0  0  0  0
    7.8218   -1.0198    0.0000 C   0  0  0  0  0  0  0  0  0  0  0  0
    8.4138   -2.3981    0.0000 O   0  0  0  0  0  0  0  0  0  0  0  0
    3.5180    2.0204    0.0000 C   0  0  0  0  0  0  0  0  0  0  0  0
    4.1462    3.3825    0.0000 O   0  0  0  0  0  0  0  0  0  0  0  0
    2.0468    1.7280    0.0000 O   0  0  0  0  0  0  0  0  0  0  0  0
  1  2  3  0
  2  3  1  0
  3  4  1  0
  4  5  1  0
  5  6  1  0
  6  7  1  0
  7  8  1  0
  8  9  1  0
  9 10  1  0
 11 10  1  1
 11 12  1  0
 12 13  1  0
 13 14  1  1
 14 15  1  0
 15 16  1  6
 15 17  1  0
 17 18  1  0
 13 19  1  0
 19 20  2  0
 19 21  1  0
 21 11  1  0
M  END
>  <identifier>  (785) 
CNP0208055.1

>  <canonical_smiles>  (785) 
C#CCCCCCCCC[C@@H]1C[C@H](C[C@@H](O)CO)C(=O)O1

>  <standard_inchi>  (785) 
InChI=1S/C17H28O4/c1-2-3-4-5-6-7-8-9-10-16-12-14(17(20)21-16)11-15(19)13-18/h1,14-16,18-19H,3-13H2/t14-,15+,16+/m0/s1

>  <standard_inchi_key>  (785) 
VXZFZXZSRWYUBE-ARFHVFGLSA-N

>  <name>  (785) 
RUBRYNOLIDE

>  <iupac_name>  (785) 
(3~{S},5~{R})-5-dec-9-ynyl-3-[(2~{R})-2,3-dihydroxypropyl]tetrahydrofuran-2-one

>  <annotation_level>  (785) 
5

>  <total_atom_count>  (785) 
49

>  <heavy_atom_count>  (785) 
21

>  <molecular_weight>  (785) 
296.41

>  <exact_molecular_weight>  (785) 
296.19876

>  <molecular_formula>  (785) 
C17H28O4

>  <alogp>  (785) 
2.42

>  <topological_polar_surface_area>  (785) 
66.76

>  <rotatable_bond_count>  (785) 
11

>  <hydrogen_bond_acceptors>  (785) 
4

>  <hydrogen_bond_donors>  (785) 
2

>  <hydrogen_bond_acceptors_lipinski>  (785) 
4

>  <hydrogen_bond_donors_lipinski>  (785) 
2

>  <lipinski_rule_of_five_violations>  (785) 
0

>  <aromatic_rings_count>  (785) 
0

>  <qed_drug_likeliness>  (785) 
0.35

>  <formal_charge>  (785) 
0

>  <fractioncsp3>  (785) 
0.82

>  <number_of_minimal_rings>  (785) 
1

>  <van_der_walls_volume>  (785) 
nan

>  <contains_sugar>  (785) 
False

>  <contains_ring_sugars>  (785) 
False

>  <contains_linear_sugars>  (785) 
False

>  <murcko_framework>  (785) 
O1CCCC1

>  <np_likeness>  (785) 
1.78

>  <chemical_class>  (785) 
Lactones

>  <chemical_sub_class>  (785) 
Gamma butyrolactones

>  <chemical_super_class>  (785) 
Organoheterocyclic compounds

>  <direct_parent_classification>  (785) 
Gamma butyrolactones

>  <np_classifier_pathway>  (785) 
Polyketides

>  <np_classifier_superclass>  (785) 
Linear polyketides

>  <np_classifier_class>  (785) 
Open-chain polyketides

>  <np_classifier_is_glycoside>  (785) 
False

>  <organisms>  (785) 
Nectandra rubra|Sextonia rubra|tropical trees.

>  <collections>  (785) 
Latin America dataset|NPASS|NuBBEDB|Super Natural II|WikiData Natural Products|ZINC NP

>  <dois>  (785) 
10.1016/S0031-9422(00)86797-7|10.1021/np1001412|10.1039/c39720000514

>  <synonyms>  (785) 
(3S,5R)-5-dec-9-ynyl-3-[(2R)-2,3-dihydroxypropyl]oxolan-2-one|CHEMBL1269938|Rubrynolide

>  <cas>  (785) 
nan

$$$$

     RDKit          2D

 36 38  0  0  0  0  0  0  0  0999 V2000
    7.7840   -1.9425    0.0000 C   0  0  0  0  0  0  0  0  0  0  0  0
    6.3371   -1.5470    0.0000 C   0  0  0  0  0  0  0  0  0  0  0  0
    5.2711   -2.6023    0.0000 C   0  0  0  0  0  0  0  0  0  0  0  0
    5.6520   -4.0531    0.0000 C   0  0  0  0  0  0  0  0  0  0  0  0
    3.8242   -2.2068    0.0000 C   0  0  0  0  0  0  0  0  0  0  0  0
    3.4432   -0.7560    0.0000 C   0  0  0  0  0  0  0  0  0  0  0  0
    1.9963   -0.3605    0.0000 C   0  0  0  0  0  0  0  0  0  0  0  0
    1.8581   -1.8541    0.0000 C   0  0  0  0  0  0  0  0  0  0  0  0
    2.6370    0.9958    0.0000 C   0  0  0  0  0  0  0  0  0  0  0  0
    4.1320    1.1190    0.0000 C   0  0  0  0  0  0  0  0  0  0  0  0
    1.7829    2.2288    0.0000 C   0  0  0  0  0  0  0  0  0  0  0  0
    0.2879    2.1056    0.0000 C   0  0  0  0  0  0  0  0  0  0  0  0
   -0.2425    3.5087    0.0000 O   0  0  0  0  0  0  0  0  0  0  0  0
   -0.3528    0.7493    0.0000 C   0  0  0  0  0  0  0  0  0  0  0  0
   -1.8477    0.6261    0.0000 C   0  0  0  0  0  0  0  0  0  0  0  0
   -2.4885   -0.7301    0.0000 C   0  0  0  0  0  0  0  0  0  0  0  0
   -1.6343   -1.9632    0.0000 C   0  0  0  0  0  0  0  0  0  0  0  0
   -2.2750   -3.3194    0.0000 O   0  0  0  0  0  0  0  0  0  0  0  0
   -3.7700   -3.4427    0.0000 C   0  0  0  0  0  0  0  0  0  0  0  0
   -4.6242   -2.2096    0.0000 O   0  0  0  0  0  0  0  0  0  0  0  0
   -4.4107   -4.7989    0.0000 C   0  0  0  0  0  0  0  0  0  0  0  0
   -5.9057   -4.9222    0.0000 C   0  0  0  0  0  0  0  0  0  0  0  0
   -3.5565   -6.0320    0.0000 C   0  0  0  0  0  0  0  0  0  0  0  0
   -0.1394   -1.8399    0.0000 C   0  0  0  0  0  0  0  0  0  0  0  0
    0.5014   -0.4837    0.0000 C   0  0  0  0  0  0  0  0  0  0  0  0
   -1.4406    0.2518    0.0000 C   0  0  0  0  0  0  0  0  0  0  0  0
   -3.8867    2.3546    0.0000 O   0  0  0  0  0  0  0  0  0  0  0  0
   -4.3181    3.7912    0.0000 C   0  0  0  0  0  0  0  0  0  0  0  0
   -5.7779    4.1360    0.0000 C   0  0  0  0  0  0  0  0  0  0  0  0
   -3.2896    4.8831    0.0000 O   0  0  0  0  0  0  0  0  0  0  0  0
   -1.1174    0.8953    0.0000 O   0  0  0  0  0  0  0  0  0  0  0  0
   -0.6931    0.3134    0.0000 C   0  0  0  0  0  0  0  0  0  0  0  0
    1.3756    2.7883    0.0000 O   0  0  0  0  0  0  0  0  0  0  0  0
    1.5659    4.2762    0.0000 C   0  0  0  0  0  0  0  0  0  0  0  0
    2.9496    4.8554    0.0000 C   0  0  0  0  0  0  0  0  0  0  0  0
    0.3725    5.1850    0.0000 O   0  0  0  0  0  0  0  0  0  0  0  0
  1  2  2  0
  2  3  1  0
  3  4  1  0
  3  5  2  0
  5  6  1  0
  6  7  1  0
  7  8  1  6
  7  9  1  0
  9 10  1  1
  9 11  1  0
 11 12  1  0
 12 13  1  1
 12 14  1  0
 14 15  1  6
 15 16  2  0
 16 17  1  0
 17 18  1  6
 18 19  1  0
 19 20  2  0
 19 21  1  0
 21 22  1  0
 21 23  1  0
 17 24  1  0
 25 24  1  6
 15 26  1  0
 26 27  1  6
 27 28  1  0
 28 29  1  0
 28 30  2  0
 26 31  1  0
 31 32  1  0
 32 33  1  6
 33 34  1  0
 34 35  1  0
 34 36  2  0
 25  7  1  0
 25 14  1  0
 32 14  1  0
M  END
>  <identifier>  (786) 
CNP0165942.1

>  <canonical_smiles>  (786) 
C=C/C(C)=C\C[C@]1(C)[C@H](C)C[C@H](O)[C@@]23C(=C[C@@H](OC(=O)C(C)C)C[C@@H]12)[C@@H](OC(C)=O)O[C@H]3OC(C)=O

>  <standard_inchi>  (786) 
InChI=1S/C28H40O8/c1-9-16(4)10-11-27(8)17(5)12-23(31)28-21(13-20(14-22(27)28)35-24(32)15(2)3)25(33-18(6)29)36-26(28)34-19(7)30/h9-10,13,15,17,20,22-23,25-26,31H,1,11-12,14H2,2-8H3/b16-10-/t17-,20-,22+,23+,25+,26-,27-,28-/m1/s1

>  <standard_inchi_key>  (786) 
PASSAFHUDJPXAL-RGJUMIETSA-N

>  <name>  (786) 
nan

>  <iupac_name>  (786) 
[(1~{S},3~{R},5~{S},6~{a}~{S},7~{R},8~{R},10~{S},10~{a}~{S})-1,3-diacetoxy-10-hydroxy-7,8-dimethyl-7-[(2~{Z})-3-methylpenta-2,4-dienyl]-1,3,5,6,6~{a},8,9,10-octahydrobenzo[d]isobenzofuran-5-yl] 2-methylpropanoate

>  <annotation_level>  (786) 
5

>  <total_atom_count>  (786) 
76

>  <heavy_atom_count>  (786) 
36

>  <molecular_weight>  (786) 
504.62

>  <exact_molecular_weight>  (786) 
504.27232

>  <molecular_formula>  (786) 
C28H40O8

>  <alogp>  (786) 
4.22

>  <topological_polar_surface_area>  (786) 
108.36

>  <rotatable_bond_count>  (786) 
7

>  <hydrogen_bond_acceptors>  (786) 
8

>  <hydrogen_bond_donors>  (786) 
1

>  <hydrogen_bond_acceptors_lipinski>  (786) 
8

>  <hydrogen_bond_donors_lipinski>  (786) 
1

>  <lipinski_rule_of_five_violations>  (786) 
1

>  <aromatic_rings_count>  (786) 
0

>  <qed_drug_likeliness>  (786) 
0.24

>  <formal_charge>  (786) 
0

>  <fractioncsp3>  (786) 
0.68

>  <number_of_minimal_rings>  (786) 
3

>  <van_der_walls_volume>  (786) 
474.22

>  <contains_sugar>  (786) 
False

>  <contains_ring_sugars>  (786) 
False

>  <contains_linear_sugars>  (786) 
False

>  <murcko_framework>  (786) 
O1CC2=CCCC3CCCCC23C1

>  <np_likeness>  (786) 
3.52

>  <chemical_class>  (786) 
Prenol lipids

>  <chemical_sub_class>  (786) 
Diterpenoids

>  <chemical_super_class>  (786) 
Lipids and lipid-like molecules

>  <direct_parent_classification>  (786) 
Colensane and clerodane diterpenoids

>  <np_classifier_pathway>  (786) 
Terpenoids

>  <np_classifier_superclass>  (786) 
Diterpenoids

>  <np_classifier_class>  (786) 
Colensane and Clerodane diterpenoids

>  <np_classifier_is_glycoside>  (786) 
True

>  <organisms>  (786) 
Casearia sylvestris

>  <collections>  (786) 
ChemSpider NPs|Latin America dataset|NuBBEDB|WikiData Natural Products|ZINC NP

>  <dois>  (786) 
10.1002/PCA.902|10.1002/pca.902

>  <synonyms>  (786) 
Casearvestrin A

>  <cas>  (786) 
nan

$$$$

     RDKit          2D

 33 37  0  0  0  0  0  0  0  0999 V2000
   -6.4321    1.8753    0.0000 C   0  0  0  0  0  0  0  0  0  0  0  0
   -5.5467    0.6645    0.0000 C   0  0  0  0  0  0  0  0  0  0  0  0
   -6.1525   -0.7077    0.0000 C   0  0  0  0  0  0  0  0  0  0  0  0
   -7.6438   -0.8691    0.0000 O   0  0  0  0  0  0  0  0  0  0  0  0
   -5.2671   -1.9185    0.0000 C   0  0  0  0  0  0  0  0  0  0  0  0
   -5.8730   -3.2907    0.0000 O   0  0  0  0  0  0  0  0  0  0  0  0
   -3.7758   -1.7571    0.0000 C   0  0  0  0  0  0  0  0  0  0  0  0
   -3.1699   -0.3849    0.0000 C   0  0  0  0  0  0  0  0  0  0  0  0
   -4.0554    0.8259    0.0000 C   0  0  0  0  0  0  0  0  0  0  0  0
   -3.4495    2.1981    0.0000 C   0  0  0  0  0  0  0  0  0  0  0  0
   -1.9582    2.3595    0.0000 C   0  0  0  0  0  0  0  0  0  0  0  0
   -1.0728    1.1487    0.0000 C   0  0  0  0  0  0  0  0  0  0  0  0
   -1.6787   -0.2235    0.0000 C   0  0  0  0  0  0  0  0  0  0  0  0
   -2.2845   -1.5957    0.0000 C   0  0  0  0  0  0  0  0  0  0  0  0
   -0.7932   -1.4343    0.0000 C   0  0  0  0  0  0  0  0  0  0  0  0
    0.6981   -1.2729    0.0000 C   0  0  0  0  0  0  0  0  0  0  0  0
    1.3039    0.0993    0.0000 C   0  0  0  0  0  0  0  0  0  0  0  0
    2.1894   -1.1115    0.0000 C   0  0  0  0  0  0  0  0  0  0  0  0
    2.7952    0.2607    0.0000 C   0  0  0  0  0  0  0  0  0  0  0  0
    3.6806   -0.9501    0.0000 C   0  0  0  0  0  0  0  0  0  0  0  0
    5.1719   -0.7887    0.0000 C   0  0  0  0  0  0  0  0  0  0  0  0
    6.6285   -1.1471    0.0000 C   0  0  0  0  0  0  0  0  0  0  0  0
    5.0719   -2.2853    0.0000 C   0  0  0  0  0  0  0  0  0  0  0  0
    3.7258   -2.9471    0.0000 O   0  0  0  0  0  0  0  0  0  0  0  0
    6.3181   -3.1203    0.0000 O   0  0  0  0  0  0  0  0  0  0  0  0
    5.7778    0.5835    0.0000 C   0  0  0  0  0  0  0  0  0  0  0  0
    4.8924    1.7943    0.0000 C   0  0  0  0  0  0  0  0  0  0  0  0
    3.4011    1.6329    0.0000 C   0  0  0  0  0  0  0  0  0  0  0  0
    4.0069    3.0051    0.0000 C   0  0  0  0  0  0  0  0  0  0  0  0
    2.5157    2.8437    0.0000 C   0  0  0  0  0  0  0  0  0  0  0  0
    1.0244    2.6823    0.0000 C   0  0  0  0  0  0  0  0  0  0  0  0
    0.4185    1.3101    0.0000 C   0  0  0  0  0  0  0  0  0  0  0  0
   -0.4669    2.5209    0.0000 C   0  0  0  0  0  0  0  0  0  0  0  0
  1  2  1  0
  2  3  2  0
  3  4  1  0
  3  5  1  0
  5  6  2  0
  5  7  1  0
  7  8  2  0
  8  9  1  0
  9 10  2  0
 10 11  1  0
 11 12  2  0
 12 13  1  0
 13 14  1  6
 13 15  1  0
 15 16  1  0
 16 17  1  0
 17 18  1  1
 17 19  1  0
 19 20  1  1
 20 21  1  0
 21 22  1  6
 21 23  1  0
 23 24  2  0
 23 25  1  0
 21 26  1  0
 26 27  1  0
 27 28  1  0
 28 29  1  6
 28 30  1  0
 30 31  1  0
 31 32  1  0
 32 33  1  6
  9  2  1  0
 32 12  1  0
 13  8  1  0
 32 17  1  0
 28 19  1  0
M  END
>  <identifier>  (787) 
CNP0199266.2

>  <canonical_smiles>  (787) 
CC1=C(O)C(=O)C=C2C1=CC=C1[C@@]2(C)CC[C@@]2(C)[C@@H]3C[C@](C)(C(=O)O)CC[C@]3(C)CC[C@]12C

>  <standard_inchi>  (787) 
InChI=1S/C29H38O4/c1-17-18-7-8-21-27(4,19(18)15-20(30)23(17)31)12-14-29(6)22-16-26(3,24(32)33)10-9-25(22,2)11-13-28(21,29)5/h7-8,15,22,31H,9-14,16H2,1-6H3,(H,32,33)/t22-,25-,26-,27+,28-,29+/m1/s1

>  <standard_inchi_key>  (787) 
KQJSQWZMSAGSHN-JJWQIEBTSA-N

>  <name>  (787) 
celastrol

>  <iupac_name>  (787) 
(2~{R},4~{a}~{S},6~{a}~{R},6~{a}~{S},14~{a}~{S},14~{b}~{R})-10-hydroxy-2,4~{a},6~{a},6~{a},9,14~{a}-hexamethyl-11-oxo-1,3,4,5,6,13,14,14~{b}-octahydropicene-2-carboxylic acid

>  <annotation_level>  (787) 
5

>  <total_atom_count>  (787) 
71

>  <heavy_atom_count>  (787) 
33

>  <molecular_weight>  (787) 
450.62

>  <exact_molecular_weight>  (787) 
450.27701

>  <molecular_formula>  (787) 
C29H38O4

>  <alogp>  (787) 
6.70

>  <topological_polar_surface_area>  (787) 
74.60

>  <rotatable_bond_count>  (787) 
1

>  <hydrogen_bond_acceptors>  (787) 
3

>  <hydrogen_bond_donors>  (787) 
2

>  <hydrogen_bond_acceptors_lipinski>  (787) 
3

>  <hydrogen_bond_donors_lipinski>  (787) 
2

>  <lipinski_rule_of_five_violations>  (787) 
1

>  <aromatic_rings_count>  (787) 
0

>  <qed_drug_likeliness>  (787) 
0.47

>  <formal_charge>  (787) 
0

>  <fractioncsp3>  (787) 
0.66

>  <number_of_minimal_rings>  (787) 
5

>  <van_der_walls_volume>  (787) 
428.05

>  <contains_sugar>  (787) 
False

>  <contains_ring_sugars>  (787) 
False

>  <contains_linear_sugars>  (787) 
False

>  <murcko_framework>  (787) 
C=1C=C2C(C3=CCC=CC13)CCC4C2CCC5CCCCC54

>  <np_likeness>  (787) 
3.33

>  <chemical_class>  (787) 
Prenol lipids

>  <chemical_sub_class>  (787) 
Triterpenoids

>  <chemical_super_class>  (787) 
Lipids and lipid-like molecules

>  <direct_parent_classification>  (787) 
Triterpenoids

>  <np_classifier_pathway>  (787) 
Terpenoids

>  <np_classifier_superclass>  (787) 
Triterpenoids

>  <np_classifier_class>  (787) 
nan

>  <np_classifier_is_glycoside>  (787) 
False

>  <organisms>  (787) 
Angelica keiskei Koidzumi|Berberis lambertii|Catha edulis|Catha sp.|Celastraceae|Celastrus Orbiculatus|Celastrus hypoleucus|Celastrus orbiculatus|Celastrus paniculatus|Celastrus scandens|Centella asiatica|Crossopetalum gaumeri|Echinochloa crus-galli|Hippocratea volubilis|Kokoona ochracea|Kokoona zeylanica|Kothala himbutu|Lecanora glaucoma|Liatris punctata|Litsea gracilipes|Macrophomina phaseolina|Maytenus amazonica|Maytenus bilocularis|Maytenus canariensis|Maytenus chubutensis|Maytenus chuchuhuasca|Maytenus ilicifolia|Maytenus scutioides|Maytenus sp.|Maytenus spinosa|Maytenus umbellata|Maytenus woodsonii|Monteverdia ilioppjfeowneviufheiuwfew fgr|Monteverdia krukovii|Monteverdia macrocarpa|Monteverdia spinosa|Monteverdia truncata|Orthosphenia mexicana|Peritassa campestris|Pleurostylia opposita|Reissantia buchananii|Sageretia thea|Salacia campestris|Salacia kraussii|Sinularia dura|Taraxacum borealisinense|Taraxacum coreanum|Taraxacum mongolicum|Taraxacum officinale|Taraxacum platycarpum|Thunbergia grandiflora|Tricerma vitis-idaeum|Trichosanthes kirilowii|Tripterygium hypoglaucum|Tripterygium regelii|Tripterygium wilfordii|Tripterygium wilfordii Hook f.|Zanthoxylum syncarpum|celastrus strigillosus

>  <collections>  (787) 
AnalytiCon Discovery NPs|Australian natural products|CMAUP (cCollective molecular activities of useful plants)|ChEBI NPs|ChemSpider NPs|FooDB|HIT (Herbal Ingredients Targets)|InflamNat|KNApSaCK|Latin America dataset|NCI DTP data|NPACT|NPASS|NPEdia|NuBBEDB|Phyto4Health|PhytoLab phyproof® Reference Substances|Super Natural II|TCMDB-Taiwan (Traditional Chinese Medicine database)|TIPdb (database of Taiwan indigenous plants)|VietHerb|WikiData Natural Products

>  <dois>  (787) 
10.1002/HLCA.200900426|10.1002/PCA.626|10.1002/PS.953|10.1002/pca.626|10.1016/0031-9422(88)83123-6|10.1016/0031-9422(90)80182-G|10.1016/0031-9422(90)80182-g|10.1016/0031-9422(94)00916-H|10.1016/0031-9422(96)00886-2|10.1016/0040-4020(96)00497-8|10.1016/0305-1978(86)90005-0|10.1016/0968-0896(96)00078-8|10.1016/J.BMCL.2007.12.016|10.1016/J.BMCL.2010.01.152|10.1016/J.FCT.2010.11.044|10.1016/J.PHYTOCHEM.2010.06.023|10.1016/J.PHYTOCHEM.2011.03.018|10.1016/J.PHYTOCHEM.2011.11.023|10.1016/S0031-9422(00)00007-8|10.1016/S0031-9422(00)00144-8|10.1016/S0031-9422(00)00285-5|10.1016/S0031-9422(96)00858-8|10.1016/S0031-9422(96)00859-X|10.1016/S0031-9422(97)00048-4|10.1016/S0031-9422(97)00288-4|10.1016/S0031-9422(98)00300-8|10.1016/S0031-9422(99)00557-9|10.1016/S0040-4020(98)00835-7|10.1016/j.bmc.2012.06.050|10.1016/j.phytochem.2018.01.009|10.1021/JO00169A030|10.1021/NP010428R|10.1021/NP030241V|10.1021/NP030241V.S001|10.1021/NP200029Q|10.1021/NP50103A001|10.1021/NP900820P|10.1021/NP9704157|10.1039/9781847555649-00238|10.1039/P19830002845|10.1039/P19870002849|10.1055/S-2006-960066|10.1080/10575639508043213|10.1515/ZNC-1999-1-223

>  <synonyms>  (787) 
nan

>  <cas>  (787) 
34157-83-0|34157-83-0 (castrol)

$$$$

     RDKit          2D

 33 36  0  0  0  0  0  0  0  0999 V2000
    2.2572    5.6192    0.0000 C   0  0  0  0  0  0  0  0  0  0  0  0
    2.6259    4.1652    0.0000 C   0  0  0  0  0  0  0  0  0  0  0  0
    1.5511    3.1189    0.0000 C   0  0  0  0  0  0  0  0  0  0  0  0
    1.9199    1.6649    0.0000 C   0  0  0  0  0  0  0  0  0  0  0  0
    3.3634    1.2572    0.0000 C   0  0  0  0  0  0  0  0  0  0  0  0
    3.7322   -0.1967    0.0000 C   0  0  0  0  0  0  0  0  0  0  0  0
    5.1757   -0.6044    0.0000 O   0  0  0  0  0  0  0  0  0  0  0  0
    5.5444   -2.0584    0.0000 C   0  0  0  0  0  0  0  0  0  0  0  0
    2.6573   -1.2431    0.0000 C   0  0  0  0  0  0  0  0  0  0  0  0
    3.0261   -2.6970    0.0000 O   0  0  0  0  0  0  0  0  0  0  0  0
    1.9513   -3.7433    0.0000 C   0  0  0  0  0  0  0  0  0  0  0  0
    2.3200   -5.1973    0.0000 C   0  0  0  0  0  0  0  0  0  0  0  0
    0.5077   -3.3357    0.0000 O   0  0  0  0  0  0  0  0  0  0  0  0
    1.2138   -0.8354    0.0000 C   0  0  0  0  0  0  0  0  0  0  0  0
    0.1390   -1.8817    0.0000 O   0  0  0  0  0  0  0  0  0  0  0  0
   -0.8447   -1.8514    0.0000 C   0  0  0  0  0  0  0  0  0  0  0  0
    0.8451    0.6186    0.0000 C   0  0  0  0  0  0  0  0  0  0  0  0
   -0.5985    1.0262    0.0000 O   0  0  0  0  0  0  0  0  0  0  0  0
   -0.9672    2.4802    0.0000 C   0  0  0  0  0  0  0  0  0  0  0  0
   -2.4108    2.8878    0.0000 C   0  0  0  0  0  0  0  0  0  0  0  0
   -0.3960    3.0362    0.0000 O   0  0  0  0  0  0  0  0  0  0  0  0
    0.0134    0.1630    0.0000 C   0  0  0  0  0  0  0  0  0  0  0  0
   -1.3941   -0.3557    0.0000 C   0  0  0  0  0  0  0  0  0  0  0  0
   -1.6486   -1.8340    0.0000 C   0  0  0  0  0  0  0  0  0  0  0  0
   -3.0561   -2.3527    0.0000 C   0  0  0  0  0  0  0  0  0  0  0  0
   -4.2090   -1.3931    0.0000 C   0  0  0  0  0  0  0  0  0  0  0  0
   -5.6936   -1.6079    0.0000 O   0  0  0  0  0  0  0  0  0  0  0  0
   -6.3566   -0.2623    0.0000 C   0  0  0  0  0  0  0  0  0  0  0  0
   -5.2817    0.7840    0.0000 O   0  0  0  0  0  0  0  0  0  0  0  0
   -3.9545    0.0851    0.0000 C   0  0  0  0  0  0  0  0  0  0  0  0
   -2.5470    0.6038    0.0000 C   0  0  0  0  0  0  0  0  0  0  0  0
    0.4210    1.6065    0.0000 C   0  0  0  0  0  0  0  0  0  0  0  0
    0.0939    2.3335    0.0000 C   0  0  0  0  0  0  0  0  0  0  0  0
  1  2  2  0
  2  3  1  0
  4  3  1  1
  4  5  1  0
  5  6  2  0
  6  7  1  0
  7  8  1  0
  6  9  1  0
  9 10  1  1
 10 11  1  0
 11 12  1  0
 11 13  2  0
  9 14  1  0
 14 15  1  1
 15 16  1  0
 14 17  1  0
 17 18  1  0
 18 19  1  0
 19 20  1  0
 19 21  2  0
 14 22  1  0
 22 23  1  1
 23 24  2  0
 24 25  1  0
 25 26  2  0
 26 27  1  0
 27 28  1  0
 28 29  1  0
 29 30  1  0
 30 31  2  0
 22 32  1  0
 32 33  1  6
 17  4  1  0
 31 23  1  0
 32  4  1  0
 30 26  1  0
M  END
>  <identifier>  (788) 
CNP0080465.1

>  <canonical_smiles>  (788) 
C=CC[C@@]12C=C(OC)[C@@H](OC(C)=O)[C@@](OC)(C1OC(C)=O)[C@@H](C1=CC=C3OCOC3=C1)[C@@H]2C

>  <standard_inchi>  (788) 
InChI=1S/C25H30O8/c1-7-10-24-12-20(28-5)22(32-15(3)26)25(29-6,23(24)33-16(4)27)21(14(24)2)17-8-9-18-19(11-17)31-13-30-18/h7-9,11-12,14,21-23H,1,10,13H2,2-6H3/t14-,21+,22+,23?,24-,25+/m0/s1

>  <standard_inchi_key>  (788) 
CWNJRIFALHNITA-JROHWPLKSA-N

>  <name>  (788) 
nan

>  <iupac_name>  (788) 
[(1~{S},2~{R},5~{R},6~{S},7~{R})-8-acetoxy-5-allyl-7-(1,3-benzodioxol-5-yl)-1,3-dimethoxy-6-methyl-2-bicyclo[3.2.1]oct-3-enyl] acetate

>  <annotation_level>  (788) 
4

>  <total_atom_count>  (788) 
63

>  <heavy_atom_count>  (788) 
33

>  <molecular_weight>  (788) 
458.51

>  <exact_molecular_weight>  (788) 
458.19407

>  <molecular_formula>  (788) 
C25H30O8

>  <alogp>  (788) 
3.50

>  <topological_polar_surface_area>  (788) 
89.52

>  <rotatable_bond_count>  (788) 
7

>  <hydrogen_bond_acceptors>  (788) 
8

>  <hydrogen_bond_donors>  (788) 
0

>  <hydrogen_bond_acceptors_lipinski>  (788) 
8

>  <hydrogen_bond_donors_lipinski>  (788) 
0

>  <lipinski_rule_of_five_violations>  (788) 
0

>  <aromatic_rings_count>  (788) 
1

>  <qed_drug_likeliness>  (788) 
0.45

>  <formal_charge>  (788) 
0

>  <fractioncsp3>  (788) 
0.52

>  <number_of_minimal_rings>  (788) 
4

>  <van_der_walls_volume>  (788) 
nan

>  <contains_sugar>  (788) 
False

>  <contains_ring_sugars>  (788) 
False

>  <contains_linear_sugars>  (788) 
False

>  <murcko_framework>  (788) 
O1c2ccc(cc2OC1)C3CC4C=CCC3C4

>  <np_likeness>  (788) 
1.72

>  <chemical_class>  (788) 
Benzodioxoles

>  <chemical_sub_class>  (788) 
Benzodioxoles

>  <chemical_super_class>  (788) 
Organoheterocyclic compounds

>  <direct_parent_classification>  (788) 
Benzodioxoles

>  <np_classifier_pathway>  (788) 
Shikimates and Phenylpropanoids

>  <np_classifier_superclass>  (788) 
Lignans

>  <np_classifier_class>  (788) 
Neolignans

>  <np_classifier_is_glycoside>  (788) 
False

>  <organisms>  (788) 
Ocotea catharinensis

>  <collections>  (788) 
Latin America dataset|NuBBEDB|WikiData Natural Products

>  <dois>  (788) 
10.1016/0031-9422(83)83046-5|10.1016/0031-9422(91)83479-5

>  <synonyms>  (788) 
rel-(7R8S1'R2'R3'S4'R)-D-2'4'-Diacetate-3'5'-dimethoxy-34-methylenedioxy-1'2'3'4'-tetrahydro-73'81'-neoligna

>  <cas>  (788) 
nan

$$$$

     RDKit          2D

 27 30  0  0  0  0  0  0  0  0999 V2000
    2.6535    4.3092    0.0000 C   0  0  0  0  0  0  0  0  0  0  0  0
    2.6706    2.8093    0.0000 C   0  0  0  0  0  0  0  0  0  0  0  0
    1.3801    2.0446    0.0000 C   0  0  0  0  0  0  0  0  0  0  0  0
    1.3972    0.5447    0.0000 C   0  0  0  0  0  0  0  0  0  0  0  0
    2.7605    1.1703    0.0000 C   0  0  0  0  0  0  0  0  0  0  0  0
    3.9840    0.3025    0.0000 C   0  0  0  0  0  0  0  0  0  0  0  0
    5.3472    0.9282    0.0000 O   0  0  0  0  0  0  0  0  0  0  0  0
    6.5707    0.0604    0.0000 C   0  0  0  0  0  0  0  0  0  0  0  0
    3.8441   -1.1909    0.0000 C   0  0  0  0  0  0  0  0  0  0  0  0
    5.0676   -2.0588    0.0000 O   0  0  0  0  0  0  0  0  0  0  0  0
    2.4809   -1.8166    0.0000 C   0  0  0  0  0  0  0  0  0  0  0  0
    2.3410   -3.3101    0.0000 O   0  0  0  0  0  0  0  0  0  0  0  0
    3.5645   -4.1779    0.0000 C   0  0  0  0  0  0  0  0  0  0  0  0
    1.2574   -0.9488    0.0000 C   0  0  0  0  0  0  0  0  0  0  0  0
   -0.2062   -1.2773    0.0000 O   0  0  0  0  0  0  0  0  0  0  0  0
   -0.9709    0.0131    0.0000 C   0  0  0  0  0  0  0  0  0  0  0  0
   -2.4644    0.1529    0.0000 C   0  0  0  0  0  0  0  0  0  0  0  0
   -3.0901    1.5162    0.0000 C   0  0  0  0  0  0  0  0  0  0  0  0
   -4.5835    1.6560    0.0000 C   0  0  0  0  0  0  0  0  0  0  0  0
   -5.4513    0.4325    0.0000 C   0  0  0  0  0  0  0  0  0  0  0  0
   -6.9412    0.2588    0.0000 O   0  0  0  0  0  0  0  0  0  0  0  0
   -7.2364   -1.2119    0.0000 C   0  0  0  0  0  0  0  0  0  0  0  0
   -5.9289   -1.9471    0.0000 O   0  0  0  0  0  0  0  0  0  0  0  0
   -4.8257   -0.9308    0.0000 C   0  0  0  0  0  0  0  0  0  0  0  0
   -3.3322   -1.0706    0.0000 C   0  0  0  0  0  0  0  0  0  0  0  0
    0.0200    1.1392    0.0000 C   0  0  0  0  0  0  0  0  0  0  0  0
   -0.3085    2.6027    0.0000 C   0  0  0  0  0  0  0  0  0  0  0  0
  1  2  2  0
  2  3  1  0
  4  3  1  1
  4  5  1  0
  5  6  1  0
  6  7  1  6
  7  8  1  0
  6  9  1  0
  9 10  2  0
  9 11  1  0
 11 12  1  0
 12 13  1  0
 11 14  2  0
 14 15  1  0
 15 16  1  0
 16 17  1  6
 17 18  2  0
 18 19  1  0
 19 20  2  0
 20 21  1  0
 21 22  1  0
 22 23  1  0
 23 24  1  0
 24 25  2  0
 16 26  1  0
 26 27  1  6
 14  4  1  0
 25 17  1  0
 26  4  1  0
 24 20  1  0
M  END
>  <identifier>  (789) 
CNP0263795.3

>  <canonical_smiles>  (789) 
C=CC[C@@]12C[C@H](OC)C(=O)C(OC)=C1O[C@H](C1=CC=C3OCOC3=C1)[C@@H]2C

>  <standard_inchi>  (789) 
InChI=1S/C21H24O6/c1-5-8-21-10-16(23-3)17(22)19(24-4)20(21)27-18(12(21)2)13-6-7-14-15(9-13)26-11-25-14/h5-7,9,12,16,18H,1,8,10-11H2,2-4H3/t12-,16-,18-,21-/m0/s1

>  <standard_inchi_key>  (789) 
SSPDVRMNHFFRCE-KGTFQEQRSA-N

>  <name>  (789) 
nan

>  <iupac_name>  (789) 
(2~{S},3~{R},3~{a}~{S},5~{S})-3~{a}-allyl-2-(1,3-benzodioxol-5-yl)-5,7-dimethoxy-3-methyl-2,3,4,5-tetrahydrobenzofuran-6-one

>  <annotation_level>  (789) 
4

>  <total_atom_count>  (789) 
51

>  <heavy_atom_count>  (789) 
27

>  <molecular_weight>  (789) 
372.42

>  <exact_molecular_weight>  (789) 
372.15729

>  <molecular_formula>  (789) 
C21H24O6

>  <alogp>  (789) 
3.53

>  <topological_polar_surface_area>  (789) 
63.22

>  <rotatable_bond_count>  (789) 
5

>  <hydrogen_bond_acceptors>  (789) 
6

>  <hydrogen_bond_donors>  (789) 
0

>  <hydrogen_bond_acceptors_lipinski>  (789) 
6

>  <hydrogen_bond_donors_lipinski>  (789) 
0

>  <lipinski_rule_of_five_violations>  (789) 
0

>  <aromatic_rings_count>  (789) 
1

>  <qed_drug_likeliness>  (789) 
0.74

>  <formal_charge>  (789) 
0

>  <fractioncsp3>  (789) 
0.48

>  <number_of_minimal_rings>  (789) 
4

>  <van_der_walls_volume>  (789) 
nan

>  <contains_sugar>  (789) 
False

>  <contains_ring_sugars>  (789) 
False

>  <contains_linear_sugars>  (789) 
False

>  <murcko_framework>  (789) 
O1c2ccc(cc2OC1)C3OC4=CCCCC4C3

>  <np_likeness>  (789) 
2.20

>  <chemical_class>  (789) 
Benzodioxoles

>  <chemical_sub_class>  (789) 
Benzodioxoles

>  <chemical_super_class>  (789) 
Organoheterocyclic compounds

>  <direct_parent_classification>  (789) 
Benzodioxoles

>  <np_classifier_pathway>  (789) 
Shikimates and Phenylpropanoids

>  <np_classifier_superclass>  (789) 
Lignans

>  <np_classifier_class>  (789) 
Neolignans

>  <np_classifier_is_glycoside>  (789) 
False

>  <organisms>  (789) 
Aniba ferrea

>  <collections>  (789) 
Latin America dataset|NuBBEDB|WikiData Natural Products|ZINC NP

>  <dois>  (789) 
10.1016/0031-9422(80)83081-0

>  <synonyms>  (789) 
(\u221a\u00e9\u201a\u00c4\u00f98')-3'5'-Dimethoxy-34-methylenedioxy-1'4'5'6'-tetrahydro-4'-oxo-7.O.2'81'-neolignan

>  <cas>  (789) 
nan

$$$$

     RDKit          2D

 24 26  0  0  0  0  0  0  0  0999 V2000
    1.0543   -4.9444    0.0000 C   0  0  0  0  0  0  0  0  0  0  0  0
    0.1575   -3.7420    0.0000 C   0  0  0  0  0  0  0  0  0  0  0  0
   -1.3322   -3.9174    0.0000 O   0  0  0  0  0  0  0  0  0  0  0  0
    0.7504   -2.3642    0.0000 O   0  0  0  0  0  0  0  0  0  0  0  0
   -0.1464   -1.1618    0.0000 C   0  0  0  0  0  0  0  0  0  0  0  0
   -1.6361   -1.3372    0.0000 C   0  0  0  0  0  0  0  0  0  0  0  0
   -2.5329   -0.1348    0.0000 C   0  0  0  0  0  0  0  0  0  0  0  0
   -4.0226   -0.3102    0.0000 C   0  0  0  0  0  0  0  0  0  0  0  0
   -4.6155   -1.6881    0.0000 O   0  0  0  0  0  0  0  0  0  0  0  0
   -4.9194    0.8922    0.0000 C   0  0  0  0  0  0  0  0  0  0  0  0
   -4.3264    2.2700    0.0000 C   0  0  0  0  0  0  0  0  0  0  0  0
   -5.2232    3.4724    0.0000 O   0  0  0  0  0  0  0  0  0  0  0  0
   -2.8367    2.4455    0.0000 C   0  0  0  0  0  0  0  0  0  0  0  0
   -1.9400    1.2431    0.0000 C   0  0  0  0  0  0  0  0  0  0  0  0
   -0.4502    1.4185    0.0000 O   0  0  0  0  0  0  0  0  0  0  0  0
    0.4465    0.2161    0.0000 C   0  0  0  0  0  0  0  0  0  0  0  0
    1.9362    0.3915    0.0000 C   0  0  0  0  0  0  0  0  0  0  0  0
    2.8330   -0.8109    0.0000 C   0  0  0  0  0  0  0  0  0  0  0  0
    4.3227   -0.6354    0.0000 C   0  0  0  0  0  0  0  0  0  0  0  0
    4.9157    0.7424    0.0000 C   0  0  0  0  0  0  0  0  0  0  0  0
    6.4054    0.9178    0.0000 O   0  0  0  0  0  0  0  0  0  0  0  0
    4.0189    1.9448    0.0000 C   0  0  0  0  0  0  0  0  0  0  0  0
    4.6118    3.3227    0.0000 O   0  0  0  0  0  0  0  0  0  0  0  0
    2.5292    1.7694    0.0000 C   0  0  0  0  0  0  0  0  0  0  0  0
  1  2  1  0
  2  3  2  0
  2  4  1  0
  5  4  1  6
  5  6  1  0
  6  7  1  0
  7  8  2  0
  8  9  1  0
  8 10  1  0
 10 11  2  0
 11 12  1  0
 11 13  1  0
 13 14  2  0
 14 15  1  0
 15 16  1  0
 16 17  1  0
 17 18  2  0
 18 19  1  0
 19 20  2  0
 20 21  1  0
 20 22  1  0
 22 23  1  0
 22 24  2  0
 16  5  1  0
 24 17  1  0
 14  7  1  0
M  END
>  <identifier>  (790) 
CNP0257996.1

>  <canonical_smiles>  (790) 
CC(=O)O[C@@H]1CC2=C(O)C=C(O)C=C2OC1C1=CC=C(O)C(O)=C1

>  <standard_inchi>  (790) 
InChI=1S/C17H16O7/c1-8(18)23-16-7-11-13(21)5-10(19)6-15(11)24-17(16)9-2-3-12(20)14(22)4-9/h2-6,16-17,19-22H,7H2,1H3/t16-,17?/m1/s1

>  <standard_inchi_key>  (790) 
CCTIBFOBERZTCX-TZHYSIJRSA-N

>  <name>  (790) 
nan

>  <iupac_name>  (790) 
[(3~{R})-2-(3,4-dihydroxyphenyl)-5,7-dihydroxy-chroman-3-yl] acetate

>  <annotation_level>  (790) 
4

>  <total_atom_count>  (790) 
40

>  <heavy_atom_count>  (790) 
24

>  <molecular_weight>  (790) 
332.31

>  <exact_molecular_weight>  (790) 
332.0896

>  <molecular_formula>  (790) 
C17H16O7

>  <alogp>  (790) 
2.12

>  <topological_polar_surface_area>  (790) 
116.45

>  <rotatable_bond_count>  (790) 
2

>  <hydrogen_bond_acceptors>  (790) 
7

>  <hydrogen_bond_donors>  (790) 
4

>  <hydrogen_bond_acceptors_lipinski>  (790) 
7

>  <hydrogen_bond_donors_lipinski>  (790) 
4

>  <lipinski_rule_of_five_violations>  (790) 
0

>  <aromatic_rings_count>  (790) 
2

>  <qed_drug_likeliness>  (790) 
0.49

>  <formal_charge>  (790) 
0

>  <fractioncsp3>  (790) 
0.24

>  <number_of_minimal_rings>  (790) 
3

>  <van_der_walls_volume>  (790) 
nan

>  <contains_sugar>  (790) 
False

>  <contains_ring_sugars>  (790) 
False

>  <contains_linear_sugars>  (790) 
False

>  <murcko_framework>  (790) 
O1c2ccccc2CCC1c3ccccc3

>  <np_likeness>  (790) 
2.36

>  <chemical_class>  (790) 
Flavonoids

>  <chemical_sub_class>  (790) 
Flavans

>  <chemical_super_class>  (790) 
Phenylpropanoids and polyketides

>  <direct_parent_classification>  (790) 
Catechins

>  <np_classifier_pathway>  (790) 
Shikimates and Phenylpropanoids

>  <np_classifier_superclass>  (790) 
Flavonoids

>  <np_classifier_class>  (790) 
Flavan-3-ols

>  <np_classifier_is_glycoside>  (790) 
False

>  <organisms>  (790) 
Byrsonima coccolobifolia

>  <collections>  (790) 
Latin America dataset|NuBBEDB|WikiData Natural Products

>  <dois>  (790) 
10.1021/NP400717M|10.1021/np400717m

>  <synonyms>  (790) 
3-acetylcatechin

>  <cas>  (790) 
nan

$$$$

     RDKit          2D

 26 29  0  0  0  0  0  0  0  0999 V2000
   -8.6731    0.2398    0.0000 C   0  0  0  0  0  0  0  0  0  0  0  0
   -7.6224   -0.8308    0.0000 O   0  0  0  0  0  0  0  0  0  0  0  0
   -6.1700   -0.4562    0.0000 C   0  0  0  0  0  0  0  0  0  0  0  0
   -5.7682    0.9890    0.0000 C   0  0  0  0  0  0  0  0  0  0  0  0
   -4.3157    1.3636    0.0000 C   0  0  0  0  0  0  0  0  0  0  0  0
   -3.2650    0.2931    0.0000 C   0  0  0  0  0  0  0  0  0  0  0  0
   -1.8126    0.6677    0.0000 C   0  0  0  0  0  0  0  0  0  0  0  0
   -1.4108    2.1129    0.0000 C   0  0  0  0  0  0  0  0  0  0  0  0
    0.0417    2.4875    0.0000 O   0  0  0  0  0  0  0  0  0  0  0  0
    1.0924    1.4169    0.0000 C   0  0  0  0  0  0  0  0  0  0  0  0
    2.5448    1.7915    0.0000 C   0  0  0  0  0  0  0  0  0  0  0  0
    3.5955    0.7209    0.0000 C   0  0  0  0  0  0  0  0  0  0  0  0
    3.1937   -0.7243    0.0000 C   0  0  0  0  0  0  0  0  0  0  0  0
    4.2443   -1.7948    0.0000 C   0  0  0  0  0  0  0  0  0  0  0  0
    5.6968   -1.4202    0.0000 C   0  0  0  0  0  0  0  0  0  0  0  0
    6.0986    0.0250    0.0000 C   0  0  0  0  0  0  0  0  0  0  0  0
    6.9705    1.2456    0.0000 C   0  0  0  0  0  0  0  0  0  0  0  0
    7.4521   -0.6217    0.0000 C   0  0  0  0  0  0  0  0  0  0  0  0
    5.0480    1.0955    0.0000 O   0  0  0  0  0  0  0  0  0  0  0  0
    1.7412   -1.0989    0.0000 C   0  0  0  0  0  0  0  0  0  0  0  0
    1.3394   -2.5440    0.0000 O   0  0  0  0  0  0  0  0  0  0  0  0
    0.6906   -0.0283    0.0000 C   0  0  0  0  0  0  0  0  0  0  0  0
   -0.7619   -0.4029    0.0000 C   0  0  0  0  0  0  0  0  0  0  0  0
   -1.1637   -1.8481    0.0000 O   0  0  0  0  0  0  0  0  0  0  0  0
   -3.6669   -1.1521    0.0000 C   0  0  0  0  0  0  0  0  0  0  0  0
   -5.1193   -1.5267    0.0000 C   0  0  0  0  0  0  0  0  0  0  0  0
  1  2  1  0
  2  3  1  0
  3  4  2  0
  4  5  1  0
  5  6  2  0
  6  7  1  0
  7  8  2  0
  8  9  1  0
  9 10  1  0
 10 11  2  0
 11 12  1  0
 12 13  2  0
 13 14  1  0
 14 15  2  0
 15 16  1  0
 16 17  1  0
 16 18  1  0
 16 19  1  0
 13 20  1  0
 20 21  1  0
 20 22  2  0
 22 23  1  0
 23 24  2  0
  6 25  1  0
 25 26  2  0
 26  3  1  0
 23  7  1  0
 22 10  1  0
 19 12  1  0
M  END
>  <identifier>  (791) 
CNP0121741.0

>  <canonical_smiles>  (791) 
COC1=CC=C(C2=COC3=CC4=C(C=CC(C)(C)O4)C(O)=C3C2=O)C=C1

>  <standard_inchi>  (791) 
InChI=1S/C21H18O5/c1-21(2)9-8-14-16(26-21)10-17-18(19(14)22)20(23)15(11-25-17)12-4-6-13(24-3)7-5-12/h4-11,22H,1-3H3

>  <standard_inchi_key>  (791) 
QJSPPBAASCPSJB-UHFFFAOYSA-N

>  <name>  (791) 
4'-O-methylalpinumisoflavone

>  <iupac_name>  (791) 
5-hydroxy-7-(4-methoxyphenyl)-2,2-dimethyl-pyrano[3,2-g]chromen-6-one

>  <annotation_level>  (791) 
5

>  <total_atom_count>  (791) 
44

>  <heavy_atom_count>  (791) 
26

>  <molecular_weight>  (791) 
350.37

>  <exact_molecular_weight>  (791) 
350.11542

>  <molecular_formula>  (791) 
C21H18O5

>  <alogp>  (791) 
4.36

>  <topological_polar_surface_area>  (791) 
68.90

>  <rotatable_bond_count>  (791) 
2

>  <hydrogen_bond_acceptors>  (791) 
5

>  <hydrogen_bond_donors>  (791) 
1

>  <hydrogen_bond_acceptors_lipinski>  (791) 
5

>  <hydrogen_bond_donors_lipinski>  (791) 
1

>  <lipinski_rule_of_five_violations>  (791) 
0

>  <aromatic_rings_count>  (791) 
3

>  <qed_drug_likeliness>  (791) 
0.74

>  <formal_charge>  (791) 
0

>  <fractioncsp3>  (791) 
0.19

>  <number_of_minimal_rings>  (791) 
4

>  <van_der_walls_volume>  (791) 
nan

>  <contains_sugar>  (791) 
False

>  <contains_ring_sugars>  (791) 
False

>  <contains_linear_sugars>  (791) 
False

>  <murcko_framework>  (791) 
O1C=C(c2ccccc2)Cc3cc4C=CCOc4cc13

>  <np_likeness>  (791) 
1.99

>  <chemical_class>  (791) 
Isoflavonoids

>  <chemical_sub_class>  (791) 
Isoflav-2-enes

>  <chemical_super_class>  (791) 
Phenylpropanoids and polyketides

>  <direct_parent_classification>  (791) 
Isoflavones

>  <np_classifier_pathway>  (791) 
Shikimates and Phenylpropanoids

>  <np_classifier_superclass>  (791) 
Isoflavonoids

>  <np_classifier_class>  (791) 
Isoflavanones

>  <np_classifier_is_glycoside>  (791) 
False

>  <organisms>  (791) 
Derris|Derris sp.|Erythrina sigmoidea|Euchresta horsfieldii|Millettia thonningii

>  <collections>  (791) 
Latin America dataset|NPEdia|NuBBEDB|Super Natural II|TIPdb (database of Taiwan indigenous plants)|UNPD (Universal Natural Products Database)|WikiData Natural Products|ZINC NP

>  <dois>  (791) 
10.1016/0031-9422(83)85041-9|10.1016/0031-9422(90)85208-W|10.1016/S0031-9422(00)95111-2|10.1590/1809-43921982123615

>  <synonyms>  (791) 
27762-87-4|4-O-Methylalpinumisoflavone|5-hydroxy-7-(4-methoxyphenyl)-2,2-dimethylpyrano[3,2-g]chromen-6-one|DTXSID701308654|LMPK12050227

>  <cas>  (791) 
27762-87-4

$$$$

     RDKit          2D

 15 16  0  0  0  0  0  0  0  0999 V2000
    0.7500    3.7239    0.0000 C   0  0  0  0  0  0  0  0  0  0  0  0
   -0.0000    2.4249    0.0000 C   0  0  0  0  0  0  0  0  0  0  0  0
   -1.5000    2.4249    0.0000 C   0  0  0  0  0  0  0  0  0  0  0  0
   -2.2500    1.1258    0.0000 C   0  0  0  0  0  0  0  0  0  0  0  0
   -1.5000   -0.1732    0.0000 C   0  0  0  0  0  0  0  0  0  0  0  0
   -2.2500   -1.4722    0.0000 C   0  0  0  0  0  0  0  0  0  0  0  0
   -3.7500   -1.4722    0.0000 C   0  0  0  0  0  0  0  0  0  0  0  0
   -1.5000   -2.7713    0.0000 C   0  0  0  0  0  0  0  0  0  0  0  0
    0.0000   -0.1732    0.0000 C   0  0  0  0  0  0  0  0  0  0  0  0
    0.7500   -1.4722    0.0000 C   0  0  0  0  0  0  0  0  0  0  0  0
    2.2500   -1.4722    0.0000 C   0  0  0  0  0  0  0  0  0  0  0  0
    3.0000   -2.7713    0.0000 C   0  0  0  0  0  0  0  0  0  0  0  0
    3.0000   -0.1732    0.0000 C   0  0  0  0  0  0  0  0  0  0  0  0
    2.2500    1.1258    0.0000 C   0  0  0  0  0  0  0  0  0  0  0  0
    0.7500    1.1258    0.0000 C   0  0  0  0  0  0  0  0  0  0  0  0
  1  2  2  0
  2  3  1  0
  3  4  1  0
  4  5  1  0
  5  6  1  1
  6  7  1  0
  6  8  1  0
  5  9  1  0
  9 10  1  6
 10 11  2  0
 11 12  1  0
 11 13  1  0
 13 14  1  0
 15 14  1  6
 15  2  1  0
 15  9  1  0
M  END
>  <identifier>  (792) 
CNP0123983.2

>  <canonical_smiles>  (792) 
C=C1CC[C@H](C(C)C)[C@H]2C=C(C)CC[C@@H]12

>  <standard_inchi>  (792) 
InChI=1S/C15H24/c1-10(2)13-8-6-12(4)14-7-5-11(3)9-15(13)14/h9-10,13-15H,4-8H2,1-3H3/t13-,14+,15-/m1/s1

>  <standard_inchi_key>  (792) 
WRHGORWNJGOVQY-QLFBSQMISA-N

>  <name>  (792) 
.gamma.-Muurolene

>  <iupac_name>  (792) 
(1~{R},4~{a}~{R},8~{a}~{S})-1-isopropyl-7-methyl-4-methylene-2,3,4~{a},5,6,8~{a}-hexahydro-1~{H}-naphthalene

>  <annotation_level>  (792) 
5

>  <total_atom_count>  (792) 
39

>  <heavy_atom_count>  (792) 
15

>  <molecular_weight>  (792) 
204.36

>  <exact_molecular_weight>  (792) 
204.1878

>  <molecular_formula>  (792) 
C15H24

>  <alogp>  (792) 
4.58

>  <topological_polar_surface_area>  (792) 
0.00

>  <rotatable_bond_count>  (792) 
1

>  <hydrogen_bond_acceptors>  (792) 
0

>  <hydrogen_bond_donors>  (792) 
0

>  <hydrogen_bond_acceptors_lipinski>  (792) 
0

>  <hydrogen_bond_donors_lipinski>  (792) 
0

>  <lipinski_rule_of_five_violations>  (792) 
0

>  <aromatic_rings_count>  (792) 
0

>  <qed_drug_likeliness>  (792) 
0.55

>  <formal_charge>  (792) 
0

>  <fractioncsp3>  (792) 
0.73

>  <number_of_minimal_rings>  (792) 
2

>  <van_der_walls_volume>  (792) 
225.73

>  <contains_sugar>  (792) 
False

>  <contains_ring_sugars>  (792) 
False

>  <contains_linear_sugars>  (792) 
False

>  <murcko_framework>  (792) 
C1=CC2CCCCC2CC1

>  <np_likeness>  (792) 
3.09

>  <chemical_class>  (792) 
Prenol lipids

>  <chemical_sub_class>  (792) 
Sesquiterpenoids

>  <chemical_super_class>  (792) 
Lipids and lipid-like molecules

>  <direct_parent_classification>  (792) 
Sesquiterpenoids

>  <np_classifier_pathway>  (792) 
Terpenoids

>  <np_classifier_superclass>  (792) 
Sesquiterpenoids

>  <np_classifier_class>  (792) 
Cadinane sesquiterpenoids

>  <np_classifier_is_glycoside>  (792) 
False

>  <organisms>  (792) 
Acorus gramineus|Acorus tatarinowii|Agastache rugosa|Albizia zygia|Artemisia argyi|Artemisia capillaris|Artemisia montana|Artemisia princeps|Atropa belladonna|Brassica rapa subsp. pekinensis|Capsicum annuum|Chrysanthemum indicum|Chrysanthemum x morifolium|Cinamomum cassia|Cinnamomum aromaticum|Citrus reticulata|Citrus unshiu|Croton grewioides|Croton zehntneri|Curcuma kwangsiensis|Curcuma phaeocaulis|Curcuma wenyujin|Curcuma zedoaria|Cyperus rotundus|Daucus carota|Dendropanax trifidus|Frullania tamarisci|Humulus lupulus|Hypericum perforatum|Illicium difengpi|Juniperus oxycedrus|Larix gmelinii|Larix gmelinii var. gmelinii|Lindera aggregata|Lindera strichnifolia|Lippia alba|Melaleuca alternifolia|Melia azedarach|Melia azedarach var. toosendan|Mentha arvensis|Mentha canadensis|Murraya exotica|Murraya paniculata|Olea paniculata|Panax ginseng|Peniophora filamentosa|Pinus sibirica|Pinus sylvestris|Piper nigrum|Schisandra chinensis|Schisandra sphenanthera|Smilax glaucochina|Thymus quinquecostatus|Thymus vulgaris|Valeriana jatamansi|Venegasia carpesioides|Zingiber officinale|Ziziphus jujuba

>  <collections>  (792) 
Australian natural products|CMAUP (cCollective molecular activities of useful plants)|KNApSaCK|Latin America dataset|NPASS|NuBBEDB|Super Natural II|TCMDB-Taiwan (Traditional Chinese Medicine database)|WikiData Natural Products

>  <dois>  (792) 
10.1002/CBDV.201300390|10.1007/BF00576212|10.1007/BF00576230|10.1007/BF01134232|10.1016/S0031-9422(01)00018-8|10.1021/JO00200A028|10.1021/jf00089a027|10.1021/np50017a018|10.1246/BCSJ.51.3395

>  <synonyms>  (792) 
(+\/-)-.GAMMA.-MUUROLENE|(+\/-)-gamma-Muurolene|(1.ALPHA.,4A.ALPHA.,8A.ALPHA.)-NAPHTHALENE, 1,2,3,4,4A.BETA.,5,6.8A.BETA.-OCTAHYDRO-1.BETA.-ISOPROPYL-7-METHYL-4-METHYLENE-|(1R,4aR,8aS)-1-Isopropyl-7-methyl-4-methylene-1,2,3,4,4a,5,6,8a-octahydronaphthalene|(1alpha,4aalpha,8aalpha)-Naphthalene, 1,2,3,4,4abeta,5,6.8abeta-octahydro-1beta-isopropyl-7-methyl-4-methylene-|1-Isopropyl-7-methyl-4-methylene-1,2,3,4,4a,5,6,8a-octahydronaphthalene-, (1.alpha.,4a.alpha.,8a.alpha.)-|30021-74-0|L2F6RNG65D|Naphthalene, 1,2,3,4,4a,5,6,8a-octahydro-7-methyl-4-methylene-1-(1-methylethyl)-, (1.alpha.,4a.alpha.,8a.alpha.)-|Naphthalene, 1,2,3,4,4a,5,6,8a-octahydro-7-methyl-4-methylene-1-(1-methylethyl)-, (1R,4aR,8aS)-rel-|Rel-(1R,4aR,8aS)-1,2,3,4,4a,5,6,8a-octahydro-7-methyl-4-methylene-1-(1-methylethyl)naphthalene|UNII-L2F6RNG65D|WRHGORWNJGOVQY-QLFBSQMISA-N|[1.alpha.,4a.alpha.,8a.alpha.]-Naphthalene,1,2,3,4,4a,5,6,8a-octahydro-7-methyl-4-methylene-1-[1-methylethyl]|\u221a\u00e9\u00ac\u2265-Muurolene|g-Muurolene|gamma-Bulgarene

>  <cas>  (792) 
30021-74-0

$$$$

     RDKit          2D

 24 27  0  0  0  0  0  0  0  0999 V2000
    0.9969    3.9691    0.0000 C   0  0  0  0  0  0  0  0  0  0  0  0
    0.9460    2.4700    0.0000 C   0  0  0  0  0  0  0  0  0  0  0  0
    2.3701    1.9988    0.0000 C   0  0  0  0  0  0  0  0  0  0  0  0
    3.3134    0.8325    0.0000 C   0  0  0  0  0  0  0  0  0  0  0  0
    3.4763   -0.6586    0.0000 C   0  0  0  0  0  0  0  0  0  0  0  0
    2.8073   -2.0012    0.0000 C   0  0  0  0  0  0  0  0  0  0  0  0
    1.5186   -2.7688    0.0000 C   0  0  0  0  0  0  0  0  0  0  0  0
    0.0195   -2.7180    0.0000 C   0  0  0  0  0  0  0  0  0  0  0  0
    0.3234   -4.1868    0.0000 C   0  0  0  0  0  0  0  0  0  0  0  0
   -1.3363   -3.3597    0.0000 O   0  0  0  0  0  0  0  0  0  0  0  0
   -1.2142   -1.8646    0.0000 C   0  0  0  0  0  0  0  0  0  0  0  0
   -1.7906   -0.4798    0.0000 C   0  0  0  0  0  0  0  0  0  0  0  0
   -1.5269    0.9968    0.0000 C   0  0  0  0  0  0  0  0  0  0  0  0
   -2.8498    1.7039    0.0000 C   0  0  0  0  0  0  0  0  0  0  0  0
   -3.9311    0.6643    0.0000 C   0  0  0  0  0  0  0  0  0  0  0  0
   -4.8520    1.8483    0.0000 C   0  0  0  0  0  0  0  0  0  0  0  0
   -5.2049   -0.1278    0.0000 O   0  0  0  0  0  0  0  0  0  0  0  0
   -3.2765   -0.6853    0.0000 C   0  0  0  0  0  0  0  0  0  0  0  0
   -3.9836   -2.0082    0.0000 O   0  0  0  0  0  0  0  0  0  0  0  0
   -0.5067    2.0964    0.0000 C   0  0  0  0  0  0  0  0  0  0  0  0
   -1.2744    3.3851    0.0000 O   0  0  0  0  0  0  0  0  0  0  0  0
    4.6862    0.2281    0.0000 C   0  0  0  0  0  0  0  0  0  0  0  0
    5.7695   -0.8094    0.0000 C   0  0  0  0  0  0  0  0  0  0  0  0
    5.5198    1.4751    0.0000 C   0  0  0  0  0  0  0  0  0  0  0  0
  2  1  1  6
  2  3  1  0
  4  3  1  1
  4  5  1  0
  5  6  1  1
  6  7  1  0
  7  8  1  0
  8  9  1  1
  8 10  1  0
 11 10  1  1
 11 12  1  0
 12 13  2  0
 13 14  1  0
 14 15  1  0
 15 16  1  6
 15 17  1  0
 15 18  1  0
 18 19  2  0
 13 20  1  0
 20 21  2  0
  5 22  1  0
 22 23  1  0
 22 24  1  0
 20  2  1  0
 22  4  1  0
 11  8  1  0
 18 12  1  0
M  END
>  <identifier>  (793) 
CNP0156161.1

>  <canonical_smiles>  (793) 
C[C@@H]1C[C@@H]2[C@H](CC[C@]3(C)O[C@H]3C3=C(C[C@](C)(O)C3=O)C1=O)C2(C)C

>  <standard_inchi>  (793) 
InChI=1S/C20H28O4/c1-10-8-13-12(18(13,2)3)6-7-20(5)17(24-20)14-11(15(10)21)9-19(4,23)16(14)22/h10,12-13,17,23H,6-9H2,1-5H3/t10-,12+,13-,17+,19+,20+/m1/s1

>  <standard_inchi_key>  (793) 
OYIJAFDBTSSJDP-BRWQSCEMSA-N

>  <name>  (793) 
nan

>  <iupac_name>  (793) 
(2~{S},4~{S},7~{S},9~{R},11~{R},15~{S})-15-hydroxy-4,8,8,11,15-pentamethyl-3-oxatetracyclo[11.3.0.0^{2,4}.0^{7,9}]hexadec-1(13)-ene-12,16-dione

>  <annotation_level>  (793) 
5

>  <total_atom_count>  (793) 
52

>  <heavy_atom_count>  (793) 
24

>  <molecular_weight>  (793) 
332.44

>  <exact_molecular_weight>  (793) 
332.19876

>  <molecular_formula>  (793) 
C20H28O4

>  <alogp>  (793) 
2.83

>  <topological_polar_surface_area>  (793) 
66.90

>  <rotatable_bond_count>  (793) 
0

>  <hydrogen_bond_acceptors>  (793) 
4

>  <hydrogen_bond_donors>  (793) 
1

>  <hydrogen_bond_acceptors_lipinski>  (793) 
4

>  <hydrogen_bond_donors_lipinski>  (793) 
1

>  <lipinski_rule_of_five_violations>  (793) 
0

>  <aromatic_rings_count>  (793) 
0

>  <qed_drug_likeliness>  (793) 
0.69

>  <formal_charge>  (793) 
0

>  <fractioncsp3>  (793) 
0.80

>  <number_of_minimal_rings>  (793) 
4

>  <van_der_walls_volume>  (793) 
322.86

>  <contains_sugar>  (793) 
False

>  <contains_ring_sugars>  (793) 
False

>  <contains_linear_sugars>  (793) 
False

>  <murcko_framework>  (793) 
O1C2C3=C(CCC3)CCCC4CC4CCC12

>  <np_likeness>  (793) 
2.76

>  <chemical_class>  (793) 
Prenol lipids

>  <chemical_sub_class>  (793) 
Diterpenoids

>  <chemical_super_class>  (793) 
Lipids and lipid-like molecules

>  <direct_parent_classification>  (793) 
Diterpenoids

>  <np_classifier_pathway>  (793) 
Terpenoids

>  <np_classifier_superclass>  (793) 
Diterpenoids

>  <np_classifier_class>  (793) 
Lathyrane diterpenoids

>  <np_classifier_is_glycoside>  (793) 
False

>  <organisms>  (793) 
Jatropha podagrica|Jatropha podagrica Hook|Jatropha weddelliana

>  <collections>  (793) 
ChemSpider NPs|KNApSaCK|Latin America dataset|NPACT|NuBBEDB|Super Natural II|WikiData Natural Products|ZINC NP

>  <dois>  (793) 
10.1016/J.PHYTOCHEM.2007.05.021|10.1590/S0103-50532001000200022

>  <synonyms>  (793) 
2-Epihydroxyisojatrogrossidion

>  <cas>  (793) 
nan

$$$$

     RDKit          2D

 16 17  0  0  0  0  0  0  0  0999 V2000
    4.0183    0.6536    0.0000 C   0  0  0  0  0  0  0  0  0  0  0  0
    2.8016    1.5308    0.0000 O   0  0  0  0  0  0  0  0  0  0  0  0
    1.4335    0.9157    0.0000 C   0  0  0  0  0  0  0  0  0  0  0  0
    0.2167    1.7929    0.0000 C   0  0  0  0  0  0  0  0  0  0  0  0
    0.3681    3.2853    0.0000 C   0  0  0  0  0  0  0  0  0  0  0  0
   -1.1513    1.1778    0.0000 C   0  0  0  0  0  0  0  0  0  0  0  0
   -1.3026   -0.3146    0.0000 C   0  0  0  0  0  0  0  0  0  0  0  0
   -2.7687   -0.6318    0.0000 C   0  0  0  0  0  0  0  0  0  0  0  0
   -3.3738   -2.0044    0.0000 O   0  0  0  0  0  0  0  0  0  0  0  0
   -3.5235    0.6645    0.0000 O   0  0  0  0  0  0  0  0  0  0  0  0
   -2.5239    1.7828    0.0000 C   0  0  0  0  0  0  0  0  0  0  0  0
   -0.0859   -1.1918    0.0000 C   0  0  0  0  0  0  0  0  0  0  0  0
   -0.2372   -2.6841    0.0000 O   0  0  0  0  0  0  0  0  0  0  0  0
    1.2822   -0.5767    0.0000 C   0  0  0  0  0  0  0  0  0  0  0  0
    2.4989   -1.4539    0.0000 C   0  0  0  0  0  0  0  0  0  0  0  0
    2.3476   -2.9462    0.0000 O   0  0  0  0  0  0  0  0  0  0  0  0
  1  2  1  0
  2  3  1  0
  3  4  2  0
  4  5  1  0
  4  6  1  0
  6  7  2  0
  7  8  1  0
  8  9  2  0
  8 10  1  0
 10 11  1  0
  7 12  1  0
 12 13  1  0
 12 14  2  0
 14 15  1  0
 15 16  2  0
 14  3  1  0
 11  6  1  0
M  END
>  <identifier>  (794) 
CNP0271152.0

>  <canonical_smiles>  (794) 
COC1=C(C)C2=C(C(=O)OC2)C(O)=C1C=O

>  <standard_inchi>  (794) 
InChI=1S/C11H10O5/c1-5-7-4-16-11(14)8(7)9(13)6(3-12)10(5)15-2/h3,13H,4H2,1-2H3

>  <standard_inchi_key>  (794) 
AMMRYTGRYFXAEQ-UHFFFAOYSA-N

>  <name>  (794) 
6-formyl-7-hydroxy-5-methoxy-4-methylphthalide

>  <iupac_name>  (794) 
4-hydroxy-6-methoxy-7-methyl-3-oxo-1~{H}-isobenzofuran-5-carbaldehyde

>  <annotation_level>  (794) 
5

>  <total_atom_count>  (794) 
26

>  <heavy_atom_count>  (794) 
16

>  <molecular_weight>  (794) 
222.2

>  <exact_molecular_weight>  (794) 
222.05282

>  <molecular_formula>  (794) 
C11H10O5

>  <alogp>  (794) 
1.19

>  <topological_polar_surface_area>  (794) 
72.83

>  <rotatable_bond_count>  (794) 
2

>  <hydrogen_bond_acceptors>  (794) 
5

>  <hydrogen_bond_donors>  (794) 
1

>  <hydrogen_bond_acceptors_lipinski>  (794) 
5

>  <hydrogen_bond_donors_lipinski>  (794) 
1

>  <lipinski_rule_of_five_violations>  (794) 
0

>  <aromatic_rings_count>  (794) 
1

>  <qed_drug_likeliness>  (794) 
0.60

>  <formal_charge>  (794) 
0

>  <fractioncsp3>  (794) 
0.27

>  <number_of_minimal_rings>  (794) 
2

>  <van_der_walls_volume>  (794) 
nan

>  <contains_sugar>  (794) 
False

>  <contains_ring_sugars>  (794) 
False

>  <contains_linear_sugars>  (794) 
False

>  <murcko_framework>  (794) 
O1Cc2ccccc2C1

>  <np_likeness>  (794) 
1.77

>  <chemical_class>  (794) 
Isocoumarans

>  <chemical_sub_class>  (794) 
Isobenzofuranones

>  <chemical_super_class>  (794) 
Organoheterocyclic compounds

>  <direct_parent_classification>  (794) 
Phthalides

>  <np_classifier_pathway>  (794) 
Polyketides

>  <np_classifier_superclass>  (794) 
Cyclic polyketides

>  <np_classifier_class>  (794) 
Phthalide derivatives

>  <np_classifier_is_glycoside>  (794) 
False

>  <organisms>  (794) 
Hymenaea oblongifolia|Macrolobium bifolium|Rhytidhysteron|Rhytidhysteron sp. BZM-9

>  <collections>  (794) 
Latin America dataset|NPAtlas|NuBBEDB|UNPD (Universal Natural Products Database)|WikiData Natural Products|ZINC NP

>  <dois>  (794) 
10.1016/S0031-9422(00)89350-4|10.3390/MOLECULES26206092|10.3390/molecules26206092

>  <synonyms>  (794) 
4-hydroxy-6-methoxy-7-methyl-3-oxo-1,3-dihydro-isobenzofuran-5-carbaldehyde|6-Formyl-7-hydroxy-5-methoxy-4-methylphthalide

>  <cas>  (794) 
nan

$$$$

     RDKit          2D

 25 28  0  0  0  0  0  0  0  0999 V2000
    3.3759   -3.5405    0.0000 C   0  0  0  0  0  0  0  0  0  0  0  0
    3.2153   -2.0491    0.0000 C   0  0  0  0  0  0  0  0  0  0  0  0
    1.8434   -1.4425    0.0000 C   0  0  0  0  0  0  0  0  0  0  0  0
    1.6828    0.0488    0.0000 C   0  0  0  0  0  0  0  0  0  0  0  0
    3.1106   -0.4110    0.0000 C   0  0  0  0  0  0  0  0  0  0  0  0
    4.2227    0.5955    0.0000 C   0  0  0  0  0  0  0  0  0  0  0  0
    5.6505    0.1356    0.0000 O   0  0  0  0  0  0  0  0  0  0  0  0
    5.9661   -1.3308    0.0000 C   0  0  0  0  0  0  0  0  0  0  0  0
    3.9071    2.0619    0.0000 C   0  0  0  0  0  0  0  0  0  0  0  0
    5.0192    3.0685    0.0000 O   0  0  0  0  0  0  0  0  0  0  0  0
    2.4793    2.5218    0.0000 C   0  0  0  0  0  0  0  0  0  0  0  0
    1.3672    1.5153    0.0000 C   0  0  0  0  0  0  0  0  0  0  0  0
   -0.1250    1.6682    0.0000 O   0  0  0  0  0  0  0  0  0  0  0  0
   -0.7316    0.2964    0.0000 C   0  0  0  0  0  0  0  0  0  0  0  0
   -2.1980   -0.0193    0.0000 C   0  0  0  0  0  0  0  0  0  0  0  0
   -2.6579   -1.4470    0.0000 C   0  0  0  0  0  0  0  0  0  0  0  0
   -4.1243   -1.7627    0.0000 C   0  0  0  0  0  0  0  0  0  0  0  0
   -5.1308   -0.6505    0.0000 C   0  0  0  0  0  0  0  0  0  0  0  0
   -6.6308   -0.6544    0.0000 O   0  0  0  0  0  0  0  0  0  0  0  0
   -7.0980    0.7710    0.0000 C   0  0  0  0  0  0  0  0  0  0  0  0
   -5.8867    1.6558    0.0000 O   0  0  0  0  0  0  0  0  0  0  0  0
   -4.6710    0.7773    0.0000 C   0  0  0  0  0  0  0  0  0  0  0  0
   -3.2045    1.0929    0.0000 C   0  0  0  0  0  0  0  0  0  0  0  0
    0.3857   -0.7045    0.0000 C   0  0  0  0  0  0  0  0  0  0  0  0
    0.2327   -2.1967    0.0000 C   0  0  0  0  0  0  0  0  0  0  0  0
  1  2  2  0
  2  3  1  0
  4  3  1  6
  4  5  1  0
  5  6  2  0
  6  7  1  0
  7  8  1  0
  6  9  1  0
  9 10  2  0
  9 11  1  0
 11 12  2  0
 12 13  1  0
 13 14  1  0
 14 15  1  1
 15 16  2  0
 16 17  1  0
 17 18  2  0
 18 19  1  0
 19 20  1  0
 20 21  1  0
 21 22  1  0
 22 23  2  0
 14 24  1  0
 24 25  1  6
 12  4  1  0
 23 15  1  0
 24  4  1  0
 22 18  1  0
M  END
>  <identifier>  (795) 
CNP0209305.2

>  <canonical_smiles>  (795) 
C=CC[C@@]12C=C(OC)C(=O)C=C1O[C@H](C1=CC=C3OCOC3=C1)[C@H]2C

>  <standard_inchi>  (795) 
InChI=1S/C20H20O5/c1-4-7-20-10-17(22-3)14(21)9-18(20)25-19(12(20)2)13-5-6-15-16(8-13)24-11-23-15/h4-6,8-10,12,19H,1,7,11H2,2-3H3/t12-,19+,20+/m1/s1

>  <standard_inchi_key>  (795) 
SOLJFAQVSWXZEQ-CFGAKRJMSA-N

>  <name>  (795) 
Burchellin

>  <iupac_name>  (795) 
(2~{S},3~{S},3~{a}~{R})-3~{a}-allyl-2-(1,3-benzodioxol-5-yl)-5-methoxy-3-methyl-2,3-dihydrobenzofuran-6-one

>  <annotation_level>  (795) 
5

>  <total_atom_count>  (795) 
45

>  <heavy_atom_count>  (795) 
25

>  <molecular_weight>  (795) 
340.38

>  <exact_molecular_weight>  (795) 
340.13107

>  <molecular_formula>  (795) 
C20H20O5

>  <alogp>  (795) 
3.68

>  <topological_polar_surface_area>  (795) 
53.99

>  <rotatable_bond_count>  (795) 
4

>  <hydrogen_bond_acceptors>  (795) 
5

>  <hydrogen_bond_donors>  (795) 
0

>  <hydrogen_bond_acceptors_lipinski>  (795) 
5

>  <hydrogen_bond_donors_lipinski>  (795) 
0

>  <lipinski_rule_of_five_violations>  (795) 
0

>  <aromatic_rings_count>  (795) 
1

>  <qed_drug_likeliness>  (795) 
0.78

>  <formal_charge>  (795) 
0

>  <fractioncsp3>  (795) 
0.35

>  <number_of_minimal_rings>  (795) 
4

>  <van_der_walls_volume>  (795) 
304.48

>  <contains_sugar>  (795) 
False

>  <contains_ring_sugars>  (795) 
False

>  <contains_linear_sugars>  (795) 
False

>  <murcko_framework>  (795) 
O1c2ccc(cc2OC1)C3OC4=CCC=CC4C3

>  <np_likeness>  (795) 
2.28

>  <chemical_class>  (795) 
2-arylbenzofuran flavonoids

>  <chemical_sub_class>  (795) 
2-arylbenzofuran flavonoids

>  <chemical_super_class>  (795) 
Phenylpropanoids and polyketides

>  <direct_parent_classification>  (795) 
2-arylbenzofuran flavonoids

>  <np_classifier_pathway>  (795) 
Shikimates and Phenylpropanoids

>  <np_classifier_superclass>  (795) 
Lignans

>  <np_classifier_class>  (795) 
Neolignans

>  <np_classifier_is_glycoside>  (795) 
False

>  <organisms>  (795) 
Aniba burchelli|Aniba burchellii|Aniba citrifolia|Aniba sp.|Aniba terminalis|Bupleurum longiradiatum|Iryanthera hostmannii|Iryanthera ulei|Magnolia denudata|Magnolia liliiflora|Mespilodaphne cymbarum|Ocotea cymbarum|Piper hancei|Piper hymenophyllum|Piper kadsura|Piper wallichii|Piper wightii

>  <collections>  (795) 
CMAUP (cCollective molecular activities of useful plants)|ChEBI NPs|KNApSaCK|Latin America dataset|NPASS|NuBBEDB|Super Natural II|TCMDB-Taiwan (Traditional Chinese Medicine database)|TIPdb (database of Taiwan indigenous plants)|WikiData Natural Products|ZINC NP

>  <dois>  (795) 
10.1016/0031-9422(75)85303-9|10.1016/0031-9422(75)85358-1|10.1016/0031-9422(82)83163-4|10.1016/0031-9422(90)85388-V|10.1016/S0031-9422(00)86979-4|10.1016/S0031-9422(00)90169-9|10.1021/NP0505521|10.1186/1756-3305-7-172|10.3891/ACTA.CHEM.SCAND.48-1007|10.4268/CJCMM20100213|10.4268/cjcmm20100213

>  <synonyms>  (795) 
(2S,3S,3Ar)-2-(1,3-benzodioxol-5-yl)-5-methoxy-3-methyl-3a-prop-2-enyl-2,3-dihydro-1-benzofuran-6-one|(2S3S3aR)-3a-allyl-5-methoxy-3-methyl-2-piperonyl-233a6-tetrahydro-6-oxobenzofuran|38276-59-4|AKOS032962670|Burchellin|CHEBI:132650|CHEMBL4641974|CS-0023610|FS-8785|HY-N2970

>  <cas>  (795) 
38276-59-4

$$$$

     RDKit          2D

 22 24  0  0  0  0  0  0  0  0999 V2000
   -7.0776   -1.8953    0.0000 C   0  0  0  0  0  0  0  0  0  0  0  0
   -5.6153   -2.2295    0.0000 O   0  0  0  0  0  0  0  0  0  0  0  0
   -4.5947   -1.1303    0.0000 C   0  0  0  0  0  0  0  0  0  0  0  0
   -5.0363    0.3032    0.0000 C   0  0  0  0  0  0  0  0  0  0  0  0
   -4.0157    1.4025    0.0000 C   0  0  0  0  0  0  0  0  0  0  0  0
   -2.5534    1.0682    0.0000 C   0  0  0  0  0  0  0  0  0  0  0  0
   -1.5328    2.1675    0.0000 C   0  0  0  0  0  0  0  0  0  0  0  0
   -1.9745    3.6010    0.0000 O   0  0  0  0  0  0  0  0  0  0  0  0
   -0.0705    1.8332    0.0000 C   0  0  0  0  0  0  0  0  0  0  0  0
    0.3711    0.3997    0.0000 C   0  0  0  0  0  0  0  0  0  0  0  0
    1.8334    0.0655    0.0000 C   0  0  0  0  0  0  0  0  0  0  0  0
    2.2751   -1.3680    0.0000 C   0  0  0  0  0  0  0  0  0  0  0  0
    3.7374   -1.7023    0.0000 C   0  0  0  0  0  0  0  0  0  0  0  0
    4.7580   -0.6030    0.0000 C   0  0  0  0  0  0  0  0  0  0  0  0
    6.2203   -0.9373    0.0000 O   0  0  0  0  0  0  0  0  0  0  0  0
    6.6619   -2.3708    0.0000 C   0  0  0  0  0  0  0  0  0  0  0  0
    4.3163    0.8305    0.0000 C   0  0  0  0  0  0  0  0  0  0  0  0
    5.3369    1.9297    0.0000 O   0  0  0  0  0  0  0  0  0  0  0  0
    2.8540    1.1647    0.0000 C   0  0  0  0  0  0  0  0  0  0  0  0
   -0.6495   -0.6995    0.0000 O   0  0  0  0  0  0  0  0  0  0  0  0
   -2.1118   -0.3653    0.0000 C   0  0  0  0  0  0  0  0  0  0  0  0
   -3.1324   -1.4645    0.0000 C   0  0  0  0  0  0  0  0  0  0  0  0
  1  2  1  0
  2  3  1  0
  3  4  2  0
  4  5  1  0
  5  6  2  0
  6  7  1  0
  7  8  2  0
  7  9  1  0
  9 10  2  0
 10 11  1  0
 11 12  2  0
 12 13  1  0
 13 14  2  0
 14 15  1  0
 15 16  1  0
 14 17  1  0
 17 18  1  0
 17 19  2  0
 10 20  1  0
 20 21  1  0
 21 22  2  0
 22  3  1  0
 21  6  1  0
 19 11  1  0
M  END
>  <identifier>  (796) 
CNP0157322.0

>  <canonical_smiles>  (796) 
COC1=CC=C2C(=O)C=C(C3=CC=C(OC)C(O)=C3)OC2=C1

>  <standard_inchi>  (796) 
InChI=1S/C17H14O5/c1-20-11-4-5-12-13(18)9-16(22-17(12)8-11)10-3-6-15(21-2)14(19)7-10/h3-9,19H,1-2H3

>  <standard_inchi_key>  (796) 
QPWBUKXPEDEBQI-UHFFFAOYSA-N

>  <name>  (796) 
Tithonine

>  <iupac_name>  (796) 
2-(3-hydroxy-4-methoxy-phenyl)-7-methoxy-chromen-4-one

>  <annotation_level>  (796) 
5

>  <total_atom_count>  (796) 
36

>  <heavy_atom_count>  (796) 
22

>  <molecular_weight>  (796) 
298.29

>  <exact_molecular_weight>  (796) 
298.08412

>  <molecular_formula>  (796) 
C17H14O5

>  <alogp>  (796) 
3.18

>  <topological_polar_surface_area>  (796) 
68.90

>  <rotatable_bond_count>  (796) 
3

>  <hydrogen_bond_acceptors>  (796) 
5

>  <hydrogen_bond_donors>  (796) 
1

>  <hydrogen_bond_acceptors_lipinski>  (796) 
5

>  <hydrogen_bond_donors_lipinski>  (796) 
1

>  <lipinski_rule_of_five_violations>  (796) 
0

>  <aromatic_rings_count>  (796) 
3

>  <qed_drug_likeliness>  (796) 
0.80

>  <formal_charge>  (796) 
0

>  <fractioncsp3>  (796) 
0.12

>  <number_of_minimal_rings>  (796) 
3

>  <van_der_walls_volume>  (796) 
257.30

>  <contains_sugar>  (796) 
False

>  <contains_ring_sugars>  (796) 
False

>  <contains_linear_sugars>  (796) 
False

>  <murcko_framework>  (796) 
O1c2ccccc2CC=C1c3ccccc3

>  <np_likeness>  (796) 
0.65

>  <chemical_class>  (796) 
Flavonoids

>  <chemical_sub_class>  (796) 
O-methylated flavonoids

>  <chemical_super_class>  (796) 
Phenylpropanoids and polyketides

>  <direct_parent_classification>  (796) 
4'-O-methylated flavonoids

>  <np_classifier_pathway>  (796) 
Shikimates and Phenylpropanoids

>  <np_classifier_superclass>  (796) 
Flavonoids

>  <np_classifier_class>  (796) 
Flavones

>  <np_classifier_is_glycoside>  (796) 
False

>  <organisms>  (796) 
Albizia odoratissima|Calliandra inermis|Iryanthera juruensis|Tithonia rotundifolia|Tithonia tubaeformis|Virola michelii|Virola surinamensis|Virola venosa

>  <collections>  (796) 
ChemSpider NPs|KNApSaCK|Latin America dataset|NPEdia|NuBBEDB|Super Natural II|TCMDB-Taiwan (Traditional Chinese Medicine database)|UNPD (Universal Natural Products Database)|WikiData Natural Products|ZINC NP

>  <dois>  (796) 
10.1002/J.1537-2197.1982.TB13319.X|10.1016/0031-9422(91)83055-P|10.1016/S0031-9422(97)00199-4|10.1016/S0378-8741(98)00109-3|10.1021/JF063451X|10.1021/NP50117A017|10.1021/jf063451x|10.1039/P19860002017|10.1248/CPB.50.1271|10.4268/CJCMM20120222

>  <synonyms>  (796) 
2-(3-hydroxy-4-methoxy-phenyl)-7-methoxy-chromen-4-one|3'-hydroxy-7,4'-dimethoxyflavone|LMPK12110044|SCHEMBL26117897|Thithonine|Titonine

>  <cas>  (796) 
nan

$$$$

     RDKit          2D

 22 23  0  0  0  0  0  0  0  0999 V2000
    2.8808   -4.5307    0.0000 C   0  0  0  0  0  0  0  0  0  0  0  0
    1.5939   -3.7601    0.0000 O   0  0  0  0  0  0  0  0  0  0  0  0
    1.6178   -2.2603    0.0000 C   0  0  0  0  0  0  0  0  0  0  0  0
    2.9286   -1.5311    0.0000 O   0  0  0  0  0  0  0  0  0  0  0  0
    0.3309   -1.4897    0.0000 C   0  0  0  0  0  0  0  0  0  0  0  0
   -0.9800   -2.2189    0.0000 C   0  0  0  0  0  0  0  0  0  0  0  0
   -2.2669   -1.4483    0.0000 O   0  0  0  0  0  0  0  0  0  0  0  0
   -2.2430    0.0515    0.0000 C   0  0  0  0  0  0  0  0  0  0  0  0
   -3.5299    0.8222    0.0000 O   0  0  0  0  0  0  0  0  0  0  0  0
   -4.8407    0.0930    0.0000 C   0  0  0  0  0  0  0  0  0  0  0  0
   -6.1276    0.8636    0.0000 C   0  0  0  0  0  0  0  0  0  0  0  0
   -4.8646   -1.4068    0.0000 O   0  0  0  0  0  0  0  0  0  0  0  0
   -0.9321    0.7807    0.0000 C   0  0  0  0  0  0  0  0  0  0  0  0
    0.3548    0.0101    0.0000 C   0  0  0  0  0  0  0  0  0  0  0  0
    1.4854    0.9959    0.0000 C   0  0  0  0  0  0  0  0  0  0  0  0
    2.9474    0.6607    0.0000 O   0  0  0  0  0  0  0  0  0  0  0  0
    3.9688    1.7593    0.0000 C   0  0  0  0  0  0  0  0  0  0  0  0
    5.4308    1.4240    0.0000 C   0  0  0  0  0  0  0  0  0  0  0  0
    3.5281    3.1930    0.0000 O   0  0  0  0  0  0  0  0  0  0  0  0
    0.8972    2.3758    0.0000 C   0  0  0  0  0  0  0  0  0  0  0  0
   -0.5969    2.2428    0.0000 C   0  0  0  0  0  0  0  0  0  0  0  0
   -1.5827    3.3734    0.0000 C   0  0  0  0  0  0  0  0  0  0  0  0
  1  2  1  0
  2  3  1  0
  3  4  2  0
  3  5  1  0
  5  6  2  0
  6  7  1  0
  7  8  1  0
  8  9  1  1
  9 10  1  0
 10 11  1  0
 10 12  2  0
 13  8  1  6
 13 14  1  0
 14 15  1  0
 15 16  1  1
 16 17  1  0
 17 18  1  0
 17 19  2  0
 15 20  1  0
 20 21  1  0
 21 22  1  1
 14  5  1  6
 21 13  1  0
M  END
>  <identifier>  (797) 
CNP0282586.1

>  <canonical_smiles>  (797) 
COC(=O)C1=CO[C@@H](OC(C)=O)[C@H]2[C@@H]1[C@H](OC(C)=O)C[C@@H]2C

>  <standard_inchi>  (797) 
InChI=1S/C15H20O7/c1-7-5-11(21-8(2)16)13-10(14(18)19-4)6-20-15(12(7)13)22-9(3)17/h6-7,11-13,15H,5H2,1-4H3/t7-,11+,12+,13-,15-/m0/s1

>  <standard_inchi_key>  (797) 
MVLUZZJQQKGNMJ-VUOWJXOESA-N

>  <name>  (797) 
nan

>  <iupac_name>  (797) 
methyl (1~{S},4~{a}~{S},5~{R},7~{S},7~{a}~{R})-1,5-diacetoxy-7-methyl-1,4~{a},5,6,7,7~{a}-hexahydrocyclopenta[c]pyran-4-carboxylate

>  <annotation_level>  (797) 
5

>  <total_atom_count>  (797) 
42

>  <heavy_atom_count>  (797) 
22

>  <molecular_weight>  (797) 
312.32

>  <exact_molecular_weight>  (797) 
312.1209

>  <molecular_formula>  (797) 
C15H20O7

>  <alogp>  (797) 
1.17

>  <topological_polar_surface_area>  (797) 
88.13

>  <rotatable_bond_count>  (797) 
3

>  <hydrogen_bond_acceptors>  (797) 
7

>  <hydrogen_bond_donors>  (797) 
0

>  <hydrogen_bond_acceptors_lipinski>  (797) 
7

>  <hydrogen_bond_donors_lipinski>  (797) 
0

>  <lipinski_rule_of_five_violations>  (797) 
0

>  <aromatic_rings_count>  (797) 
0

>  <qed_drug_likeliness>  (797) 
0.57

>  <formal_charge>  (797) 
0

>  <fractioncsp3>  (797) 
0.67

>  <number_of_minimal_rings>  (797) 
2

>  <van_der_walls_volume>  (797) 
280.21

>  <contains_sugar>  (797) 
False

>  <contains_ring_sugars>  (797) 
False

>  <contains_linear_sugars>  (797) 
False

>  <murcko_framework>  (797) 
O1C=CC2CCCC2C1

>  <np_likeness>  (797) 
2.38

>  <chemical_class>  (797) 
Prenol lipids

>  <chemical_sub_class>  (797) 
Monoterpenoids

>  <chemical_super_class>  (797) 
Lipids and lipid-like molecules

>  <direct_parent_classification>  (797) 
Iridoids and derivatives

>  <np_classifier_pathway>  (797) 
Terpenoids

>  <np_classifier_superclass>  (797) 
Monoterpenoids

>  <np_classifier_class>  (797) 
Iridoids monoterpenoids

>  <np_classifier_is_glycoside>  (797) 
True

>  <organisms>  (797) 
Alibertia macrophylla|Cordiera macrophylla

>  <collections>  (797) 
ChemSpider NPs|Latin America dataset|NuBBEDB|Super Natural II|WikiData Natural Products|ZINC NP

>  <dois>  (797) 
10.1016/0031-9422(92)83701-Y

>  <synonyms>  (797) 
1\u221a\u00e9\u00ac\u2264-Hydroxy-dihydrocornin aglycone diacetate

>  <cas>  (797) 
nan

$$$$

     RDKit          2D

 31 34  0  0  0  0  0  0  0  0999 V2000
    7.3606   -0.2315    0.0000 C   0  0  0  0  0  0  0  0  0  0  0  0
    5.9257   -0.6685    0.0000 C   0  0  0  0  0  0  0  0  0  0  0  0
    4.8298    0.3558    0.0000 C   0  0  0  0  0  0  0  0  0  0  0  0
    5.0143    1.8444    0.0000 C   0  0  0  0  0  0  0  0  0  0  0  0
    6.3271    2.5701    0.0000 O   0  0  0  0  0  0  0  0  0  0  0  0
    3.6556    2.4799    0.0000 C   0  0  0  0  0  0  0  0  0  0  0  0
    2.6313    1.3840    0.0000 C   0  0  0  0  0  0  0  0  0  0  0  0
    1.1316    1.4119    0.0000 C   0  0  0  0  0  0  0  0  0  0  0  0
    0.4059    2.7247    0.0000 C   0  0  0  0  0  0  0  0  0  0  0  0
   -1.0938    2.7526    0.0000 C   0  0  0  0  0  0  0  0  0  0  0  0
   -1.8679    1.4677    0.0000 C   0  0  0  0  0  0  0  0  0  0  0  0
   -3.3676    1.4956    0.0000 C   0  0  0  0  0  0  0  0  0  0  0  0
   -4.1416    0.2107    0.0000 C   0  0  0  0  0  0  0  0  0  0  0  0
   -5.6414    0.2386    0.0000 O   0  0  0  0  0  0  0  0  0  0  0  0
   -6.3671    1.5514    0.0000 C   0  0  0  0  0  0  0  0  0  0  0  0
   -7.8668    1.5793    0.0000 C   0  0  0  0  0  0  0  0  0  0  0  0
   -5.5931    2.8362    0.0000 O   0  0  0  0  0  0  0  0  0  0  0  0
   -3.4159   -1.1020    0.0000 C   0  0  0  0  0  0  0  0  0  0  0  0
   -4.1899   -2.3869    0.0000 O   0  0  0  0  0  0  0  0  0  0  0  0
   -1.9162   -1.1299    0.0000 C   0  0  0  0  0  0  0  0  0  0  0  0
   -1.1422    0.1549    0.0000 C   0  0  0  0  0  0  0  0  0  0  0  0
   -0.4164   -1.1578    0.0000 C   0  0  0  0  0  0  0  0  0  0  0  0
   -1.1905   -2.4427    0.0000 O   0  0  0  0  0  0  0  0  0  0  0  0
   -0.4648   -3.7554    0.0000 C   0  0  0  0  0  0  0  0  0  0  0  0
   -1.2388   -5.0403    0.0000 C   0  0  0  0  0  0  0  0  0  0  0  0
    1.0350   -3.7833    0.0000 O   0  0  0  0  0  0  0  0  0  0  0  0
    0.3576    0.1271    0.0000 C   0  0  0  0  0  0  0  0  0  0  0  0
    1.0833   -1.1857    0.0000 C   0  0  0  0  0  0  0  0  0  0  0  0
    2.5830   -1.2136    0.0000 C   0  0  0  0  0  0  0  0  0  0  0  0
    3.3571    0.0713    0.0000 C   0  0  0  0  0  0  0  0  0  0  0  0
    4.2160   -1.1584    0.0000 C   0  0  0  0  0  0  0  0  0  0  0  0
  1  2  1  0
  3  2  1  6
  3  4  1  0
  4  5  2  0
  4  6  1  0
  6  7  1  0
  7  8  1  0
  8  9  1  0
  9 10  1  0
 10 11  1  0
 11 12  1  0
 12 13  1  0
 13 14  1  6
 14 15  1  0
 15 16  1  0
 15 17  2  0
 13 18  1  0
 18 19  2  0
 18 20  1  0
 20 21  1  0
 21 22  1  6
 22 23  1  0
 23 24  1  0
 24 25  1  0
 24 26  2  0
 21 27  1  0
 27 28  1  0
 28 29  1  0
 29 30  1  0
 30 31  1  6
 30  3  1  0
 30  7  1  0
 27  8  1  0
 21 11  1  0
M  END
>  <identifier>  (798) 
CNP0080512.1

>  <canonical_smiles>  (798) 
CC[C@H]1C(=O)CC2C3CCC4C[C@@H](OC(C)=O)C(=O)C[C@]4(COC(C)=O)C3CC[C@@]21C

>  <standard_inchi>  (798) 
InChI=1S/C25H36O6/c1-5-18-21(28)11-20-17-7-6-16-10-23(31-15(3)27)22(29)12-25(16,13-30-14(2)26)19(17)8-9-24(18,20)4/h16-20,23H,5-13H2,1-4H3/t16?,17?,18-,19?,20?,23+,24+,25+/m0/s1

>  <standard_inchi_key>  (798) 
ZFTUVYVXVWUVOQ-WNYUZHBHSA-N

>  <name>  (798) 
nan

>  <iupac_name>  (798) 
[(3~{R},10~{R},13~{S},17~{R})-3-acetoxy-17-ethyl-13-methyl-2,16-dioxo-3,4,5,6,7,8,9,11,12,14,15,17-dodecahydro-1~{H}-cyclopenta[a]phenanthren-10-yl]methyl acetate

>  <annotation_level>  (798) 
4

>  <total_atom_count>  (798) 
67

>  <heavy_atom_count>  (798) 
31

>  <molecular_weight>  (798) 
432.56

>  <exact_molecular_weight>  (798) 
432.25119

>  <molecular_formula>  (798) 
C25H36O6

>  <alogp>  (798) 
3.89

>  <topological_polar_surface_area>  (798) 
86.74

>  <rotatable_bond_count>  (798) 
4

>  <hydrogen_bond_acceptors>  (798) 
6

>  <hydrogen_bond_donors>  (798) 
0

>  <hydrogen_bond_acceptors_lipinski>  (798) 
6

>  <hydrogen_bond_donors_lipinski>  (798) 
0

>  <lipinski_rule_of_five_violations>  (798) 
0

>  <aromatic_rings_count>  (798) 
0

>  <qed_drug_likeliness>  (798) 
0.63

>  <formal_charge>  (798) 
0

>  <fractioncsp3>  (798) 
0.84

>  <number_of_minimal_rings>  (798) 
4

>  <van_der_walls_volume>  (798) 
nan

>  <contains_sugar>  (798) 
False

>  <contains_ring_sugars>  (798) 
False

>  <contains_linear_sugars>  (798) 
False

>  <murcko_framework>  (798) 
C1CCC2C(C1)CCC3C4CCCC4CCC23

>  <np_likeness>  (798) 
2.58

>  <chemical_class>  (798) 
Steroids and steroid derivatives

>  <chemical_sub_class>  (798) 
Steroid esters

>  <chemical_super_class>  (798) 
Lipids and lipid-like molecules

>  <direct_parent_classification>  (798) 
Steroid esters

>  <np_classifier_pathway>  (798) 
Terpenoids

>  <np_classifier_superclass>  (798) 
Steroids

>  <np_classifier_class>  (798) 
Pregnane steroids

>  <np_classifier_is_glycoside>  (798) 
False

>  <organisms>  (798) 
Trichilia claussenii

>  <collections>  (798) 
Latin America dataset|NuBBEDB

>  <dois>  (798) 
10.1016/S0031-9422(97)00167-2

>  <synonyms>  (798) 
3\u221a\u00e9\u00ac\u226419-Diacetoxypregnan-216-dione

>  <cas>  (798) 
nan

$$$$

     RDKit          2D

 33 37  0  0  0  0  0  0  0  0999 V2000
   -7.4284   -1.9055    0.0000 C   0  0  0  0  0  0  0  0  0  0  0  0
   -5.9874   -1.4891    0.0000 C   0  0  0  0  0  0  0  0  0  0  0  0
   -5.6275   -0.0329    0.0000 C   0  0  0  0  0  0  0  0  0  0  0  0
   -4.1865    0.3836    0.0000 C   0  0  0  0  0  0  0  0  0  0  0  0
   -3.8266    1.8398    0.0000 C   0  0  0  0  0  0  0  0  0  0  0  0
   -4.9078    2.8795    0.0000 C   0  0  0  0  0  0  0  0  0  0  0  0
   -2.3856    2.2562    0.0000 C   0  0  0  0  0  0  0  0  0  0  0  0
   -1.8754    3.6668    0.0000 C   0  0  0  0  0  0  0  0  0  0  0  0
   -0.3763    3.6176    0.0000 C   0  0  0  0  0  0  0  0  0  0  0  0
    0.0402    2.1765    0.0000 C   0  0  0  0  0  0  0  0  0  0  0  0
    1.1873    3.1431    0.0000 C   0  0  0  0  0  0  0  0  0  0  0  0
    1.3897    1.5218    0.0000 C   0  0  0  0  0  0  0  0  0  0  0  0
    2.6316    2.3631    0.0000 C   0  0  0  0  0  0  0  0  0  0  0  0
    3.9811    1.7084    0.0000 C   0  0  0  0  0  0  0  0  0  0  0  0
    4.0888    0.2123    0.0000 C   0  0  0  0  0  0  0  0  0  0  0  0
    5.4384   -0.4425    0.0000 C   0  0  0  0  0  0  0  0  0  0  0  0
    6.9305   -0.5962    0.0000 C   0  0  0  0  0  0  0  0  0  0  0  0
    5.8489    1.0002    0.0000 C   0  0  0  0  0  0  0  0  0  0  0  0
    5.5461   -1.9386    0.0000 C   0  0  0  0  0  0  0  0  0  0  0  0
    6.8957   -2.5934    0.0000 O   0  0  0  0  0  0  0  0  0  0  0  0
    4.3043   -2.7800    0.0000 C   0  0  0  0  0  0  0  0  0  0  0  0
    2.9548   -2.1252    0.0000 C   0  0  0  0  0  0  0  0  0  0  0  0
    2.8470   -0.6291    0.0000 C   0  0  0  0  0  0  0  0  0  0  0  0
    1.6052   -1.4705    0.0000 C   0  0  0  0  0  0  0  0  0  0  0  0
    1.4975    0.0256    0.0000 C   0  0  0  0  0  0  0  0  0  0  0  0
    0.2557   -0.8157    0.0000 C   0  0  0  0  0  0  0  0  0  0  0  0
   -1.0939   -0.1610    0.0000 C   0  0  0  0  0  0  0  0  0  0  0  0
   -1.2016    1.3352    0.0000 C   0  0  0  0  0  0  0  0  0  0  0  0
   -2.5246    0.6282    0.0000 C   0  0  0  0  0  0  0  0  0  0  0  0
   -4.9062   -2.5288    0.0000 C   0  0  0  0  0  0  0  0  0  0  0  0
   -5.2661   -3.9850    0.0000 C   0  0  0  0  0  0  0  0  0  0  0  0
   -3.4652   -2.1124    0.0000 C   0  0  0  0  0  0  0  0  0  0  0  0
   -2.3840   -3.1521    0.0000 O   0  0  0  0  0  0  0  0  0  0  0  0
  1  2  2  0
  2  3  1  0
  3  4  1  0
  4  5  1  0
  5  6  1  1
  5  7  1  0
  7  8  1  1
  8  9  1  0
  9 10  1  0
 10 11  1  6
 10 12  1  0
 12 13  1  6
 13 14  1  0
 15 14  1  1
 15 16  1  0
 16 17  1  0
 16 18  1  0
 16 19  1  0
 19 20  2  0
 19 21  1  0
 21 22  1  0
 23 22  1  6
 23 24  1  0
 25 24  1  1
 25 26  1  0
 26 27  1  0
 27 28  1  0
 28 29  1  1
  2 30  1  0
 30 31  1  0
 30 32  1  0
 32 33  1  0
 28  7  1  0
 28 10  1  0
 25 12  1  0
 23 15  1  0
 25 23  1  0
M  END
>  <identifier>  (799) 
CNP0158827.3

>  <canonical_smiles>  (799) 
C=C(CC[C@@H](C)[C@H]1CC[C@@]2(C)[C@@H]3CC[C@H]4C(C)(C)C(=O)CC[C@@]45C[C@@]35CC[C@]12C)C(C)CO

>  <standard_inchi>  (799) 
InChI=1S/C31H50O2/c1-20(22(3)18-32)8-9-21(2)23-12-14-29(7)25-11-10-24-27(4,5)26(33)13-15-30(24)19-31(25,30)17-16-28(23,29)6/h21-25,32H,1,8-19H2,2-7H3/t21-,22?,23-,24+,25+,28-,29+,30-,31+/m1/s1

>  <standard_inchi_key>  (799) 
OKILVWSNJYSCMZ-IUNBOQICSA-N

>  <name>  (799) 
nan

>  <iupac_name>  (799) 
(1~{S},3~{R},8~{R},11~{S},12~{S},15~{R},16~{R})-15-[(1~{R})-6-hydroxy-1,5-dimethyl-4-methylene-hexyl]-7,7,12,16-tetramethyl-pentacyclo[9.7.0.0^{1,3}.0^{3,8}.0^{12,16}]octadecan-6-one

>  <annotation_level>  (799) 
5

>  <total_atom_count>  (799) 
83

>  <heavy_atom_count>  (799) 
33

>  <molecular_weight>  (799) 
454.74

>  <exact_molecular_weight>  (799) 
454.38108

>  <molecular_formula>  (799) 
C31H50O2

>  <alogp>  (799) 
7.60

>  <topological_polar_surface_area>  (799) 
37.30

>  <rotatable_bond_count>  (799) 
6

>  <hydrogen_bond_acceptors>  (799) 
2

>  <hydrogen_bond_donors>  (799) 
1

>  <hydrogen_bond_acceptors_lipinski>  (799) 
2

>  <hydrogen_bond_donors_lipinski>  (799) 
1

>  <lipinski_rule_of_five_violations>  (799) 
1

>  <aromatic_rings_count>  (799) 
0

>  <qed_drug_likeliness>  (799) 
0.42

>  <formal_charge>  (799) 
0

>  <fractioncsp3>  (799) 
0.90

>  <number_of_minimal_rings>  (799) 
5

>  <van_der_walls_volume>  (799) 
472.94

>  <contains_sugar>  (799) 
False

>  <contains_ring_sugars>  (799) 
False

>  <contains_linear_sugars>  (799) 
False

>  <murcko_framework>  (799) 
C1CCC23CC43CCC5CCCC5C4CCC2C1

>  <np_likeness>  (799) 
3.26

>  <chemical_class>  (799) 
Steroids and steroid derivatives

>  <chemical_sub_class>  (799) 
Cycloartanols and derivatives

>  <chemical_super_class>  (799) 
Lipids and lipid-like molecules

>  <direct_parent_classification>  (799) 
Cycloartanols and derivatives

>  <np_classifier_pathway>  (799) 
Terpenoids

>  <np_classifier_superclass>  (799) 
Triterpenoids

>  <np_classifier_class>  (799) 
Cycloartane triterpenoids

>  <np_classifier_is_glycoside>  (799) 
False

>  <organisms>  (799) 
Mangifera indica|Trichilia claussenii

>  <collections>  (799) 
CMAUP (cCollective molecular activities of useful plants)|Latin America dataset|NPASS|NuBBEDB|WikiData Natural Products

>  <dois>  (799) 
10.1016/0031-9422(95)00969-8

>  <synonyms>  (799) 
24-Methylene-26-hydroxycycloartan-3-one

>  <cas>  (799) 
nan

$$$$

     RDKit          2D

 21 23  0  0  0  0  0  0  0  0999 V2000
   -5.9487   -0.4527    0.0000 C   0  0  0  0  0  0  0  0  0  0  0  0
   -4.6649   -1.2285    0.0000 O   0  0  0  0  0  0  0  0  0  0  0  0
   -3.3511   -0.5046    0.0000 C   0  0  0  0  0  0  0  0  0  0  0  0
   -3.3212    0.9951    0.0000 C   0  0  0  0  0  0  0  0  0  0  0  0
   -2.0074    1.7190    0.0000 C   0  0  0  0  0  0  0  0  0  0  0  0
   -1.9775    3.2187    0.0000 O   0  0  0  0  0  0  0  0  0  0  0  0
   -0.7236    0.9432    0.0000 C   0  0  0  0  0  0  0  0  0  0  0  0
    0.5901    1.6671    0.0000 C   0  0  0  0  0  0  0  0  0  0  0  0
    0.6201    3.1668    0.0000 O   0  0  0  0  0  0  0  0  0  0  0  0
    1.8739    0.8913    0.0000 C   0  0  0  0  0  0  0  0  0  0  0  0
    1.8440   -0.6084    0.0000 C   0  0  0  0  0  0  0  0  0  0  0  0
    3.1278   -1.3842    0.0000 C   0  0  0  0  0  0  0  0  0  0  0  0
    4.4415   -0.6603    0.0000 C   0  0  0  0  0  0  0  0  0  0  0  0
    5.7253   -1.4361    0.0000 C   0  0  0  0  0  0  0  0  0  0  0  0
    4.4715    0.8394    0.0000 O   0  0  0  0  0  0  0  0  0  0  0  0
    3.1877    1.6152    0.0000 C   0  0  0  0  0  0  0  0  0  0  0  0
    0.5302   -1.3323    0.0000 C   0  0  0  0  0  0  0  0  0  0  0  0
    0.5003   -2.8320    0.0000 O   0  0  0  0  0  0  0  0  0  0  0  0
   -0.7536   -0.5565    0.0000 C   0  0  0  0  0  0  0  0  0  0  0  0
   -2.0673   -1.2804    0.0000 C   0  0  0  0  0  0  0  0  0  0  0  0
   -2.0973   -2.7801    0.0000 O   0  0  0  0  0  0  0  0  0  0  0  0
  1  2  1  0
  2  3  1  0
  3  4  2  0
  4  5  1  0
  5  6  2  0
  5  7  1  0
  7  8  2  0
  8  9  1  0
  8 10  1  0
 10 11  2  0
 11 12  1  0
 12 13  2  0
 13 14  1  0
 13 15  1  0
 15 16  1  0
 11 17  1  0
 17 18  1  0
 17 19  2  0
 19 20  1  0
 20 21  2  0
 20  3  1  0
 19  7  1  0
 16 10  1  0
M  END
>  <identifier>  (800) 
CNP0326708.0

>  <canonical_smiles>  (800) 
COC1=CC(=O)C2=C(O)C3=C(C=C(C)OC3)C(O)=C2C1=O

>  <standard_inchi>  (800) 
InChI=1S/C15H12O6/c1-6-3-7-8(5-21-6)14(18)11-9(16)4-10(20-2)15(19)12(11)13(7)17/h3-4,17-18H,5H2,1-2H3

>  <standard_inchi_key>  (800) 
ZFYMKRBESCDJHI-UHFFFAOYSA-N

>  <name>  (800) 
ANHYDROFUSARUBIN

>  <iupac_name>  (800) 
5,10-dihydroxy-7-methoxy-3-methyl-1~{H}-benzo[g]isochromene-6,9-dione

>  <annotation_level>  (800) 
5

>  <total_atom_count>  (800) 
33

>  <heavy_atom_count>  (800) 
21

>  <molecular_weight>  (800) 
288.25

>  <exact_molecular_weight>  (800) 
288.06339

>  <molecular_formula>  (800) 
C15H12O6

>  <alogp>  (800) 
1.90

>  <topological_polar_surface_area>  (800) 
93.06

>  <rotatable_bond_count>  (800) 
1

>  <hydrogen_bond_acceptors>  (800) 
6

>  <hydrogen_bond_donors>  (800) 
2

>  <hydrogen_bond_acceptors_lipinski>  (800) 
6

>  <hydrogen_bond_donors_lipinski>  (800) 
2

>  <lipinski_rule_of_five_violations>  (800) 
0

>  <aromatic_rings_count>  (800) 
1

>  <qed_drug_likeliness>  (800) 
0.77

>  <formal_charge>  (800) 
0

>  <fractioncsp3>  (800) 
0.20

>  <number_of_minimal_rings>  (800) 
3

>  <van_der_walls_volume>  (800) 
238.54

>  <contains_sugar>  (800) 
False

>  <contains_ring_sugars>  (800) 
False

>  <contains_linear_sugars>  (800) 
False

>  <murcko_framework>  (800) 
O1C=Cc2cc3c(cc2C1)CC=CC3

>  <np_likeness>  (800) 
2.53

>  <chemical_class>  (800) 
Isochromanequinones

>  <chemical_sub_class>  (800) 
Isochromanequinones

>  <chemical_super_class>  (800) 
Phenylpropanoids and polyketides

>  <direct_parent_classification>  (800) 
Isochromanequinones

>  <np_classifier_pathway>  (800) 
Polyketides

>  <np_classifier_superclass>  (800) 
Naphthalenes

>  <np_classifier_class>  (800) 
Naphthoquinones

>  <np_classifier_is_glycoside>  (800) 
False

>  <organisms>  (800) 
Albonectria rigidiuscula|Fusarium|Fusarium decemcellulare|Fusarium haematococcum|Fusarium neocosmosporiellum|Fusarium oxysporum|Fusarium solani|Neocosmospora africana|Neocosmospora vasinfectum|fusarium spp. psu-f135

>  <collections>  (800) 
EMNPD|KNApSaCK|Latin America dataset|NPASS|NPEdia|NuBBEDB|UNPD (Universal Natural Products Database)|WikiData Natural Products|ZINC NP

>  <dois>  (800) 
10.1016/0031-9422(83)83042-8|10.1016/0031-9422(88)80712-X|10.1021/NP100282K|10.1094/PHYTO-71-951|10.1139/V78-260|10.1139/V82-422|10.1271/BBB1961.52.1253|10.1590/S0102-695X2012005000106

>  <synonyms>  (800) 
1H-Naphtho(2,3-c)pyran-5,10-dione, 6,9-dihydroxy-7-methoxy-3-methyl-|5,10-dihydroxy-7-methoxy-3-methyl-1H-benzo[g]isochromene-6,9-dione|64421-39-2|79383-28-1|Anhydrofusarubin|CHEMBL1224817|DTXSID10214676|SCHEMBL26507918

>  <cas>  (800) 
64421-39-2|79383-28-1

$$$$

     RDKit          2D

 21 22  0  0  0  0  0  0  0  0999 V2000
   -5.4256   -2.5687    0.0000 C   0  0  0  0  0  0  0  0  0  0  0  0
   -4.6095   -1.3101    0.0000 O   0  0  0  0  0  0  0  0  0  0  0  0
   -3.1115   -1.3876    0.0000 C   0  0  0  0  0  0  0  0  0  0  0  0
   -2.2954   -0.1290    0.0000 C   0  0  0  0  0  0  0  0  0  0  0  0
   -2.9773    1.2070    0.0000 C   0  0  0  0  0  0  0  0  0  0  0  0
   -2.1613    2.4656    0.0000 C   0  0  0  0  0  0  0  0  0  0  0  0
   -0.6633    2.3881    0.0000 C   0  0  0  0  0  0  0  0  0  0  0  0
    0.1528    3.6467    0.0000 C   0  0  0  0  0  0  0  0  0  0  0  0
   -0.5291    4.9827    0.0000 O   0  0  0  0  0  0  0  0  0  0  0  0
    0.0186    1.0520    0.0000 C   0  0  0  0  0  0  0  0  0  0  0  0
   -0.7974   -0.2065    0.0000 C   0  0  0  0  0  0  0  0  0  0  0  0
   -0.1155   -1.5426    0.0000 C   0  0  0  0  0  0  0  0  0  0  0  0
   -0.9316   -2.8011    0.0000 O   0  0  0  0  0  0  0  0  0  0  0  0
    1.3825   -1.6200    0.0000 C   0  0  0  0  0  0  0  0  0  0  0  0
    2.0644   -2.9561    0.0000 O   0  0  0  0  0  0  0  0  0  0  0  0
    2.1986   -0.3615    0.0000 C   0  0  0  0  0  0  0  0  0  0  0  0
    3.6965   -0.4389    0.0000 C   0  0  0  0  0  0  0  0  0  0  0  0
    3.7740    1.0590    0.0000 C   0  0  0  0  0  0  0  0  0  0  0  0
    3.6191   -1.9369    0.0000 C   0  0  0  0  0  0  0  0  0  0  0  0
    5.1945   -0.5164    0.0000 O   0  0  0  0  0  0  0  0  0  0  0  0
    1.5166    0.9746    0.0000 C   0  0  0  0  0  0  0  0  0  0  0  0
  1  2  1  0
  2  3  1  0
  3  4  1  0
  4  5  2  0
  5  6  1  0
  6  7  2  0
  7  8  1  0
  8  9  1  0
  7 10  1  0
 10 11  2  0
 11 12  1  0
 12 13  2  0
 12 14  1  0
 14 15  1  1
 14 16  1  0
 16 17  1  6
 17 18  1  0
 17 19  1  0
 17 20  1  0
 16 21  1  0
 11  4  1  0
 21 10  1  0
M  END
>  <identifier>  (801) 
CNP0321148.1

>  <canonical_smiles>  (801) 
COCC1=CC=C(CO)C2=C1C(=O)[C@H](O)[C@@H](C(C)(C)O)C2

>  <standard_inchi>  (801) 
InChI=1S/C16H22O5/c1-16(2,20)12-6-11-9(7-17)4-5-10(8-21-3)13(11)15(19)14(12)18/h4-5,12,14,17-18,20H,6-8H2,1-3H3/t12-,14+/m0/s1

>  <standard_inchi_key>  (801) 
KUYOFDPEDWRHRH-GXTWGEPZSA-N

>  <name>  (801) 
nan

>  <iupac_name>  (801) 
(2~{R},3~{S})-2-hydroxy-5-(hydroxymethyl)-3-(1-hydroxy-1-methyl-ethyl)-8-(methoxymethyl)tetralin-1-one

>  <annotation_level>  (801) 
4

>  <total_atom_count>  (801) 
43

>  <heavy_atom_count>  (801) 
21

>  <molecular_weight>  (801) 
294.35

>  <exact_molecular_weight>  (801) 
294.14672

>  <molecular_formula>  (801) 
C16H22O5

>  <alogp>  (801) 
0.81

>  <topological_polar_surface_area>  (801) 
86.99

>  <rotatable_bond_count>  (801) 
4

>  <hydrogen_bond_acceptors>  (801) 
5

>  <hydrogen_bond_donors>  (801) 
3

>  <hydrogen_bond_acceptors_lipinski>  (801) 
5

>  <hydrogen_bond_donors_lipinski>  (801) 
3

>  <lipinski_rule_of_five_violations>  (801) 
0

>  <aromatic_rings_count>  (801) 
1

>  <qed_drug_likeliness>  (801) 
0.76

>  <formal_charge>  (801) 
0

>  <fractioncsp3>  (801) 
0.56

>  <number_of_minimal_rings>  (801) 
2

>  <van_der_walls_volume>  (801) 
270.78

>  <contains_sugar>  (801) 
False

>  <contains_ring_sugars>  (801) 
False

>  <contains_linear_sugars>  (801) 
False

>  <murcko_framework>  (801) 
c1ccc2c(c1)CCCC2

>  <np_likeness>  (801) 
1.26

>  <chemical_class>  (801) 
Tetralins

>  <chemical_sub_class>  (801) 
Tetralins

>  <chemical_super_class>  (801) 
Benzenoids

>  <direct_parent_classification>  (801) 
Tetralins

>  <np_classifier_pathway>  (801) 
Terpenoids

>  <np_classifier_superclass>  (801) 
nan

>  <np_classifier_class>  (801) 
nan

>  <np_classifier_is_glycoside>  (801) 
False

>  <organisms>  (801) 
Emmotum nitens

>  <collections>  (801) 
KNApSaCK|Latin America dataset|NPEdia|NuBBEDB|WikiData Natural Products|ZINC NP

>  <dois>  (801) 
10.1016/0031-9422(74)80100-7

>  <synonyms>  (801) 
Emmotin B

>  <cas>  (801) 
nan

$$$$

     RDKit          2D

 30 32  0  0  0  0  0  0  0  0999 V2000
   -8.8477   -0.5877    0.0000 C   0  0  0  0  0  0  0  0  0  0  0  0
   -7.3621   -0.3803    0.0000 C   0  0  0  0  0  0  0  0  0  0  0  0
   -6.4397   -1.5632    0.0000 C   0  0  0  0  0  0  0  0  0  0  0  0
   -7.0028   -2.9534    0.0000 C   0  0  0  0  0  0  0  0  0  0  0  0
   -4.9541   -1.3557    0.0000 C   0  0  0  0  0  0  0  0  0  0  0  0
   -4.3909    0.0345    0.0000 C   0  0  0  0  0  0  0  0  0  0  0  0
   -2.9053    0.2420    0.0000 C   0  0  0  0  0  0  0  0  0  0  0  0
   -2.3422    1.6322    0.0000 C   0  0  0  0  0  0  0  0  0  0  0  0
   -0.8566    1.8397    0.0000 C   0  0  0  0  0  0  0  0  0  0  0  0
   -0.2934    3.2299    0.0000 C   0  0  0  0  0  0  0  0  0  0  0  0
   -1.2158    4.4128    0.0000 Cl  0  0  0  0  0  0  0  0  0  0  0  0
    1.1922    3.4374    0.0000 C   0  0  0  0  0  0  0  0  0  0  0  0
    1.7553    4.8276    0.0000 O   0  0  0  0  0  0  0  0  0  0  0  0
    2.1146    2.2545    0.0000 C   0  0  0  0  0  0  0  0  0  0  0  0
    2.8200    3.5783    0.0000 C   0  0  0  0  0  0  0  0  0  0  0  0
    3.6109    2.1485    0.0000 O   0  0  0  0  0  0  0  0  0  0  0  0
    3.9724    0.6928    0.0000 C   0  0  0  0  0  0  0  0  0  0  0  0
    5.3627    0.1296    0.0000 O   0  0  0  0  0  0  0  0  0  0  0  0
    2.6996   -0.1010    0.0000 C   0  0  0  0  0  0  0  0  0  0  0  0
    2.5937   -1.5972    0.0000 C   0  0  0  0  0  0  0  0  0  0  0  0
    1.2449   -2.2536    0.0000 O   0  0  0  0  0  0  0  0  0  0  0  0
    3.8365   -2.4371    0.0000 C   0  0  0  0  0  0  0  0  0  0  0  0
    5.1852   -1.7808    0.0000 C   0  0  0  0  0  0  0  0  0  0  0  0
    3.7305   -3.9334    0.0000 C   0  0  0  0  0  0  0  0  0  0  0  0
    2.3817   -4.5897    0.0000 C   0  0  0  0  0  0  0  0  0  0  0  0
    4.9733   -4.7733    0.0000 O   0  0  0  0  0  0  0  0  0  0  0  0
    1.5514    0.8642    0.0000 C   0  0  0  0  0  0  0  0  0  0  0  0
    0.0659    0.6568    0.0000 C   0  0  0  0  0  0  0  0  0  0  0  0
   -0.4973   -0.7335    0.0000 C   0  0  0  0  0  0  0  0  0  0  0  0
   -1.9829   -0.9409    0.0000 O   0  0  0  0  0  0  0  0  0  0  0  0
  1  2  1  0
  2  3  1  0
  3  4  1  1
  3  5  1  0
  5  6  2  0
  6  7  1  0
  7  8  2  0
  8  9  1  0
  9 10  2  0
 10 11  1  0
 10 12  1  0
 12 13  2  0
 12 14  1  0
 14 15  1  6
 14 16  1  0
 16 17  1  0
 17 18  2  0
 17 19  1  0
 19 20  1  1
 20 21  2  0
 20 22  1  0
 22 23  1  1
 22 24  1  0
 24 25  1  1
 24 26  1  0
 19 27  1  0
 27 28  1  1
 28 29  2  0
 29 30  1  0
 30  7  1  0
 28  9  1  0
 27 14  1  0
M  END
>  <identifier>  (802) 
CNP0293750.1

>  <canonical_smiles>  (802) 
CC[C@H](C)/C=C/C1=CC2=C(Cl)C(=O)[C@@]3(C)OC(=O)[C@@H](C(=O)[C@@H](C)[C@H](C)O)[C@H]3C2=CO1

>  <standard_inchi>  (802) 
InChI=1S/C23H27ClO6/c1-6-11(2)7-8-14-9-15-16(10-29-14)18-17(20(26)12(3)13(4)25)22(28)30-23(18,5)21(27)19(15)24/h7-13,17-18,25H,6H2,1-5H3/b8-7+/t11-,12-,13-,17+,18+,23-/m0/s1

>  <standard_inchi_key>  (802) 
DLQPRUDQTOCNPH-FLWIEKMGSA-N

>  <name>  (802) 
Chaetoviridin C

>  <iupac_name>  (802) 
(6~{a}~{S},9~{R},9~{a}~{S})-5-chloro-9-[(2~{S},3~{S})-3-hydroxy-2-methyl-butanoyl]-6~{a}-methyl-3-[(~{E},3~{S})-3-methylpent-1-enyl]-9,9~{a}-dihydrofuro[2,3-h]isochromene-6,8-dione

>  <annotation_level>  (802) 
5

>  <total_atom_count>  (802) 
57

>  <heavy_atom_count>  (802) 
30

>  <molecular_weight>  (802) 
434.92

>  <exact_molecular_weight>  (802) 
434.14962

>  <molecular_formula>  (802) 
C23H27ClO6

>  <alogp>  (802) 
3.60

>  <topological_polar_surface_area>  (802) 
89.90

>  <rotatable_bond_count>  (802) 
6

>  <hydrogen_bond_acceptors>  (802) 
6

>  <hydrogen_bond_donors>  (802) 
1

>  <hydrogen_bond_acceptors_lipinski>  (802) 
6

>  <hydrogen_bond_donors_lipinski>  (802) 
1

>  <lipinski_rule_of_five_violations>  (802) 
0

>  <aromatic_rings_count>  (802) 
0

>  <qed_drug_likeliness>  (802) 
0.51

>  <formal_charge>  (802) 
0

>  <fractioncsp3>  (802) 
0.52

>  <number_of_minimal_rings>  (802) 
3

>  <van_der_walls_volume>  (802) 
385.21

>  <contains_sugar>  (802) 
False

>  <contains_ring_sugars>  (802) 
False

>  <contains_linear_sugars>  (802) 
False

>  <murcko_framework>  (802) 
O1C=CC2=CCC3OCCC3C2=C1

>  <np_likeness>  (802) 
2.83

>  <chemical_class>  (802) 
Organooxygen compounds

>  <chemical_sub_class>  (802) 
Carbonyl compounds

>  <chemical_super_class>  (802) 
Organic oxygen compounds

>  <direct_parent_classification>  (802) 
Cyclohexenones

>  <np_classifier_pathway>  (802) 
Polyketides

>  <np_classifier_superclass>  (802) 
Chromanes

>  <np_classifier_class>  (802) 
Azaphilones

>  <np_classifier_is_glycoside>  (802) 
False

>  <organisms>  (802) 
Chaetomium globosum

>  <collections>  (802) 
ChEBI NPs|Latin America dataset|NPASS|NuBBEDB|WikiData Natural Products

>  <dois>  (802) 
10.1021/NP200110F|10.1021/np200110f|10.1248/CPB.38.625

>  <synonyms>  (802) 
CHEBI:68743|CHEMBL1802152|Q27104956|chaetoviridin C|rel(6aS,9R,9aS)-5-chloro-9-[(2S,3S)-3-hydroxy-2-methylbutanoyl]-6a-methyl-3-[(1E,3S)-3-methylpent-1-en-1-yl]-9,9a-dihydro-6H-furo[2,3-h]isochromene-6,8(6aH)-dione

>  <cas>  (802) 
nan

$$$$

     RDKit          2D

 33 36  0  0  0  0  0  0  0  0999 V2000
    1.9234   -1.1111    0.0000 O   0  0  0  0  0  0  0  0  0  0  0  0
    0.4347   -1.2949    0.0000 C   0  0  0  0  0  0  0  0  0  0  0  0
   -0.4689   -0.0976    0.0000 C   0  0  0  0  0  0  0  0  0  0  0  0
    0.1163    1.2836    0.0000 O   0  0  0  0  0  0  0  0  0  0  0  0
    1.6050    1.4674    0.0000 C   0  0  0  0  0  0  0  0  0  0  0  0
    2.5085    0.2701    0.0000 O   0  0  0  0  0  0  0  0  0  0  0  0
    3.9972    0.4539    0.0000 C   0  0  0  0  0  0  0  0  0  0  0  0
    4.9008   -0.7434    0.0000 C   0  0  0  0  0  0  0  0  0  0  0  0
    6.3895   -0.5596    0.0000 O   0  0  0  0  0  0  0  0  0  0  0  0
    4.5824    1.8351    0.0000 C   0  0  0  0  0  0  0  0  0  0  0  0
    6.0711    2.0189    0.0000 O   0  0  0  0  0  0  0  0  0  0  0  0
    3.6788    3.0324    0.0000 C   0  0  0  0  0  0  0  0  0  0  0  0
    4.2640    4.4136    0.0000 O   0  0  0  0  0  0  0  0  0  0  0  0
    2.1901    2.8486    0.0000 C   0  0  0  0  0  0  0  0  0  0  0  0
    1.2866    4.0459    0.0000 O   0  0  0  0  0  0  0  0  0  0  0  0
   -1.9575   -0.2814    0.0000 C   0  0  0  0  0  0  0  0  0  0  0  0
   -2.8611    0.9159    0.0000 C   0  0  0  0  0  0  0  0  0  0  0  0
   -2.2759    2.2971    0.0000 C   0  0  0  0  0  0  0  0  0  0  0  0
   -3.1795    3.4944    0.0000 C   0  0  0  0  0  0  0  0  0  0  0  0
   -4.6682    3.3106    0.0000 C   0  0  0  0  0  0  0  0  0  0  0  0
   -5.5717    4.5079    0.0000 O   0  0  0  0  0  0  0  0  0  0  0  0
   -5.2533    1.9294    0.0000 C   0  0  0  0  0  0  0  0  0  0  0  0
   -6.7420    1.7456    0.0000 O   0  0  0  0  0  0  0  0  0  0  0  0
   -4.3498    0.7321    0.0000 C   0  0  0  0  0  0  0  0  0  0  0  0
   -2.5427   -1.6626    0.0000 O   0  0  0  0  0  0  0  0  0  0  0  0
   -1.6391   -2.8599    0.0000 C   0  0  0  0  0  0  0  0  0  0  0  0
   -2.2243   -4.2410    0.0000 C   0  0  0  0  0  0  0  0  0  0  0  0
   -1.3207   -5.4384    0.0000 C   0  0  0  0  0  0  0  0  0  0  0  0
   -1.9059   -6.8195    0.0000 O   0  0  0  0  0  0  0  0  0  0  0  0
    0.1680   -5.2545    0.0000 C   0  0  0  0  0  0  0  0  0  0  0  0
    0.7531   -3.8734    0.0000 C   0  0  0  0  0  0  0  0  0  0  0  0
    2.2418   -3.6895    0.0000 O   0  0  0  0  0  0  0  0  0  0  0  0
   -0.1504   -2.6761    0.0000 C   0  0  0  0  0  0  0  0  0  0  0  0
  1  2  2  0
  2  3  1  0
  3  4  1  0
  5  4  1  1
  5  6  1  0
  6  7  1  0
  7  8  1  1
  8  9  1  0
  7 10  1  0
 10 11  1  1
 10 12  1  0
 12 13  1  1
 12 14  1  0
 14 15  1  6
  3 16  2  0
 16 17  1  0
 17 18  2  0
 18 19  1  0
 19 20  2  0
 20 21  1  0
 20 22  1  0
 22 23  1  0
 22 24  2  0
 16 25  1  0
 25 26  1  0
 26 27  2  0
 27 28  1  0
 28 29  1  0
 28 30  2  0
 30 31  1  0
 31 32  1  0
 31 33  2  0
 33  2  1  0
 14  5  1  0
 24 17  1  0
 33 26  1  0
M  END
>  <identifier>  (803) 
CNP0180599.1

>  <canonical_smiles>  (803) 
O=C1C(O[C@@H]2O[C@H](CO)[C@H](O)[C@H](O)[C@H]2O)=C(C2=CC=C(O)C(O)=C2)OC2=CC(O)=CC(O)=C12

>  <standard_inchi>  (803) 
InChI=1S/C21H20O12/c22-6-13-15(27)17(29)18(30)21(32-13)33-20-16(28)14-11(26)4-8(23)5-12(14)31-19(20)7-1-2-9(24)10(25)3-7/h1-5,13,15,17-18,21-27,29-30H,6H2/t13-,15+,17+,18-,21+/m1/s1

>  <standard_inchi_key>  (803) 
OVSQVDMCBVZWGM-DTGCRPNFSA-N

>  <name>  (803) 
Hyperoside

>  <iupac_name>  (803) 
2-(3,4-dihydroxyphenyl)-5,7-dihydroxy-3-[(2~{S},3~{R},4~{S},5~{R},6~{R})-3,4,5-trihydroxy-6-(hydroxymethyl)tetrahydropyran-2-yl]oxy-chromen-4-one

>  <annotation_level>  (803) 
5

>  <total_atom_count>  (803) 
53

>  <heavy_atom_count>  (803) 
33

>  <molecular_weight>  (803) 
464.38

>  <exact_molecular_weight>  (803) 
464.09548

>  <molecular_formula>  (803) 
C21H20O12

>  <alogp>  (803) 
-0.54

>  <topological_polar_surface_area>  (803) 
210.51

>  <rotatable_bond_count>  (803) 
4

>  <hydrogen_bond_acceptors>  (803) 
12

>  <hydrogen_bond_donors>  (803) 
8

>  <hydrogen_bond_acceptors_lipinski>  (803) 
12

>  <hydrogen_bond_donors_lipinski>  (803) 
8

>  <lipinski_rule_of_five_violations>  (803) 
2

>  <aromatic_rings_count>  (803) 
3

>  <qed_drug_likeliness>  (803) 
0.23

>  <formal_charge>  (803) 
0

>  <fractioncsp3>  (803) 
0.29

>  <number_of_minimal_rings>  (803) 
4

>  <van_der_walls_volume>  (803) 
370.26

>  <contains_sugar>  (803) 
True

>  <contains_ring_sugars>  (803) 
True

>  <contains_linear_sugars>  (803) 
False

>  <murcko_framework>  (803) 
O1c2ccccc2CC(OC3OCCCC3)=C1c4ccccc4

>  <np_likeness>  (803) 
2.16

>  <chemical_class>  (803) 
Flavonoids

>  <chemical_sub_class>  (803) 
Flavonoid glycosides

>  <chemical_super_class>  (803) 
Phenylpropanoids and polyketides

>  <direct_parent_classification>  (803) 
Flavonoid-3-O-glycosides

>  <np_classifier_pathway>  (803) 
Shikimates and Phenylpropanoids

>  <np_classifier_superclass>  (803) 
Flavonoids

>  <np_classifier_class>  (803) 
Flavonols

>  <np_classifier_is_glycoside>  (803) 
True

>  <organisms>  (803) 
Abelmoschus esculentus|Abelmoschus manihot|Abutilon theophrasti|Acacia aulacocarpa|Acacia latifolia|Acacia pycnantha|Acacia sp.|Acaena magellanica|Acanthopanax gracilistylus|Acanthopanax sessiliflorum|Acanthospermum australe|Acer barbinerve|Acer carpinifolium|Acer pictum|Acer pictum subsp. okamotoanum|Aceratium megalospermum|Achillea cretica|Achillea santolina|Achillea tenuifolia|Achillea teretifolia|Achyranthes aspera|Aconitum brevicalcaratum|Aconitum heterophylloides|Aconitum violaceum|Actinoplanes friuliensis|Adenocarpus foliolosus|Adenocarpus viscosus|Adiantum malesianum|Aegopodium sp.|Aerva javanica|Aesculus chinensis|Afrocarpus falcatus|Aganosma heynei|Agapanthus inapertus|Agarista salicifolia|Agelas linnaei|Agelas nakamurai|Ageratina areolaris|Ageratina havanensis|Ageratina tomentella|Aglaia laxiflora|Agrimonia Pilosa|Agrimonia pilosa|Aguacate|Ailanthus altissima|Ailanthus giraldii|Ailanthus sp.|Alangium kurzii|Alangium premnifolium|Alaria esculenta|Albertisia papuana|Alchemilla speciosa|Alchornea cordifolia|Alectra parasitica|Alexandrium hiranoi|Allium neapolitanum|Allium rotundum|Allium victorialis|Alnus hirsuta|Alnus sp.|Aloe vulgaris|Alpinia allughas|Alternaria japonica|Alternaria kikuchiana|Amaranthus cruentus|Ambrosia chamissonis|Amelanchier alnifolia|Amelanchier bartramiana|Amelanchier humilis|Amelanchier oligocarpa|Amelanchier sanguinea|Amelanchier spicata|Ammodendron conollyi|Amsinckia tessellata|Anacardium humile|Anacardium occidentale|Anacyclus tomentosus|Andrographis echioides|Anemone flaccida|Angelica keiskei|Angelica saxatilis|Angelica taiwaniana|Angelica tarokoensis|Anisopappus pinnatifidus|Annona crassiflora|Anolis lineatopus|Anthopleura xanthogrammica|Anthoxanthum nitens|Anthyllis henoniana|Anthyllis lagascana|Anthyllis onobrychioides|Anthyllis onobrychoides|Anthyllis subsimplex|Antillogorgia elisabethae|Apium graveolens|Aplysia punctata|Apocynaceae|Apocynum cannabinum|Apocynum venetum|Arbutus sp.|Arbutus unedo|Arctostaphylos columbiana|Arctostaphylos patula|Arctostaphylos sp.|Arctostaphylos uva-ursi|Arcytophyllum thymifolium|Ardisia neriifolia|Argania spinosa|Arnica angustifolia|Arnica chamissonis|Arnica frigida|Arnica fulgens|Arnica lonchophylla|Arnica louiseana|Arnica rydbergii|Arnica sororia|Aromadendron elegans|Aronia melanocarpa|Artabotrys blumei|Artabotrys hexapetalus|Artemisia Capillaris|Artemisia afra|Artemisia alba|Artemisia annua L.|Artemisia argyi|Artemisia capillaris|Artemisia carvifolia|Artemisia ludoviciana subsp. mexicana|Artemisia montana|Artemisia palustris|Artemisia princeps|Artemisia tournefortiana|Artemisia vulgaris|Arthrophytum leptocladum|Aruncus dioicus|Asanthus solidaginifolius|Asanthus thyrsiflorus|Asarum canadense|Asarum heterotropoides|Asarum sp.|Ascarina lucida|Ascidia ahodori|Asclepias curassavica|Ashitaba|Aspalathus linearis|Asparagus sp.|Aspergillus falconensis|Aspergillus fischeri|Aspergillus mutabilis|Aspicilia caesiocinerea|Aspidosperma subincanum|Aspilia africana|Aster oharai|Asteriscus graveolens|Asterogyne martiana|Astilbe biternata|Astilbe chinensis|Astilbe rubra|Astilbe thunbergii|Astragalus arguricus|Astragalus armatus|Astragalus asper|Astragalus babatagi|Astragalus brachycarpus|Astragalus bungeanus|Astragalus captiosus|Astragalus cibarius|Astragalus circassicus|Astragalus coluteocarpus|Astragalus complanatus|Astragalus eupeplus|Astragalus eximius|Astragalus goktschaicus|Astragalus lagopoides|Astragalus laguroides|Astragalus lagurus|Astragalus levieri|Astragalus macropterus|Astragalus onobrychis|Astragalus quisqualis|Astragalus robustus|Astragalus sevangensis|Astragalus wagneri|Atrophaneura polyeuctes|Atta cephalotes|Aucuba chinensis|Audouinia tentaculata|Aulacomnium androgynum|Aurelia aurita|Baccharis dracunculifolia|Baccharis magellanica|Baccharis rosmarinifolia|Baccharis thesioides|Bacillus thuringiensis|Bacterium sa|Bauhinia glauca|Beilschmiedia volckii|Bellium bellidioides|Berberis heteropoda|Berberis integerrima|Berberis koreana|Berberis sieboldii|Berberis vulgaris|Bergenia crassifolia|Berkheya zeyheri|Berlandiera texana|Beta vulgaris|Betula exilis|Betula humilis|Betula obscura|Betula oycoviensis|Betula pendula|Betula pubescens|Betula sp.|Bistorta vivipara|Bleekeria vitiensis|Blepharis sindica|Bombax ceiba|Botrydium granulatum|Botryosphaeria berengeriana|Bragantia wallichii|Brainea insignis|Bredemeyera brevifolia|Brickellia vernicosa|Brickelliastrum fendleri|Bugula dentata|Bupleurum chinense|Burkholderia pyrrocinia|Bursera graveolens|Byrsonima crassifolia|Byssothecium obiones|Caenorhabditis elegans|Calendula sp.|Callicarpa maingayi|Calligonum leucocladum|Callistemon lanceolatus|Callistemon viminalis|Calluna sp.|Calluna vulgaris|Calodendrum capense|Calonectria cylindrospora|Calycera crassifolia|Camellia japonica|Camellia sinensis|Campanula betulaefolia|Campanula kemulariae|Campanula kolenatiana|Campanula raddeana|Camptotheca acuminata|Canarium album|Canarium sp.|Canella winterana|Caragana spinosa|Caralluma stalagmifera|Carica dodecaphylla|Carica pennata|Carlina acaulis|Carpinus orientalis|Carpobrotus edulis|Cassipourea gerrardii|Cassytha Filiformis|Cassytha filiformis|Cassytha racemosa|Casuarina sp.|Catha edulis|Caulerpa serrulata|Cedronella canariensis|Celaenodendron mexicanum|Cellulomonas biazotea|Centaurea aspera|Centaurea calcitrapa|Centaurea huber-morathii|Cephalaria paphlagonica|Cephalaria procera|Cephalaria uralensis|Ceramium rubrum|Ceratosoma brevicaudatum|Cereus dumortieri|Cereus polyrhizus|Chaenomeles sinensis|Chaetomium cochliodes|Chaetomium globosum|Chaetomium subaffine|Chamaebatia foliolosa|Chamerion dodonaei|Chamomilla recutita|Chelonia japonica|Cheniella glauca|Chimaphila sp.|Chondrilla juncea|Chromolaena arnottiana|Chrysanthemum indicum|Chrysanthemum x morifolium|Chrysosplenium echinus|Chrysothamnus parryi|Cicer baldshuanicum|Cichorium intybus|Cichorium sp.|Cinnamomum philippinense|Circinotrichum falcatisporum|Cirsium arvense var. integrifolium|Cirsium dipsacolepis|Cirsium tanakae|Cissus discolor|Cissus sicyoides|Cissus verticillata|Cistus laurifolius|Citrullus lanatus|Citrus tangerina|Cladiella australis|Cladonia fallax|Cladophora laetevirens|Cladosporium tenuissimum|Clausena lansium|Cleistopholis staudtii|Clethra macrophylla|Climacoptera lanata|Clutia richardiana|Cnidium dahuricum|Cocculus diversifolius|Codonopsis pilosula|Coleus esquirolii|Colletotrichum lagenaria|Colobocentrotus atratus|Colochirus violaceus|Commiphora abyssinica|Consolida hohenackeri|Coprinellus flocculosus|Corbicula fluminea|Corchorus olitorius|Cordia curassavica|Cornus controversa|Cornus florida|Cornus mas|Cornus officinalis|Cornus sp.|Corticium simplex|Corydalis ochotensis|Cosmos pringlei|Cosmos sulphureus|Cotoneaster orbicularis|Cotula cinerea|Cotula cinereum|Craibiodendron henryi|Crangon vulgaris|Craspedia pleiocephala|Crassocephalum crepidioides|Crassocephalum mannii|Crassostrea gigas|Crataegus curvisepala|Crataegus laciniata|Crataegus laevigata|Crataegus microphylla|Crataegus monogyna|Crataegus orientalis|Crataegus oxyacantha L. (1753)|Crataegus pinnatifida|Crataegus rhipidophylla|Crataegus sanguinea|Crataegus sp.|Crataegus stevenii|Crataegus tanacetifolia|Crataegus viridis|Cratena peregrina|Crinum kirkii|Crocus minimus|Crossopteryx febrifuga|Crotalaria aegyptiaca|Crotalaria novae-hollandiae|Croton Tonkinensis|Croton cascarilloides|Croton caudatus|Croton celtidifolius|Croton rhamnifolius|Croton sp.|Cryptocarya alba|Cryptocarya aschersoniana|Cryptocarya lividula|Cryptocarya moschata|Cryptolestes ferrugineus|Cunonia macrophylla|Cuphea wrightii|Curculigo pilosa|Cuscuta australis|Cuscuta campestris|Cuscuta chinensis|Cuscuta europea|Cuscuta gronovii|Cuscuta lupuliformis|Cuscuta odorata|Cuscuta pedicellata|Cuscuta platyloba|Cuscuta reflexa|Cyberlindnera jadinii|Cycas armstrongii|Cycas revoluta|Cyclolobium clausseni|Cydonia|Cydonia oblonga|Cylindrospermopsis raciborskii|Cynara humilis|Cynoglossum germanicum|Cynometra lujae|Cystoseira crinita|Cystoseira jabukae|Cytisus scoparius|Daedalea juniperina|Dahlstedtia araripensis|Daphne giraldii|Daphne lancifolia|Dasiphora fruticosa|Dasystenella acanthina|Decachaeta thieleana|Delphinium|Delphinium andersoni|Delphinium oliverianum|Delphinium shawurense|Dendrobium fuscescens|Dendroctonus ponderosae|Dendroviguiera eriophora|Dendroviguiera insignis|Dendroviguiera sphaerocephala|Dermocybe canaria|Derris uliginosa|Descurainia sophia|Desmodium styracifolium|Dichotomaria marginata|Dicoma capensis|Dicoma tomentosa|Dicranopteris linearis|Dictyota bartayresiana|Didemnum solidum|Didymium bahiense|Digitalis isabelliana|Dimerostemma brasilianum|Dionaea muscipula|Dioscorea althaeoides|Dioscorea bulbifera|Diospyros japonica|Diospyros kaki|Diospyros zombensis|Diotis maritima|Diphasia angolensis|Diplusodon orbicularis|Dipodium punctatum|Dipteryx odorata|Dolichopentas longiflora|Drosera adelae|Drosera madagascariensis|Dryas octopetala|Drymaria cordata|Dryopteris aitoniana|Dryopteris polylepis|Dysidea amblia|Dysidea tupha|Ebenus sibthorpii|Echinacea pallida|Echinosophora koreensis|Elaeocarpus fuscoides|Elegia deusta|Eleutherococcus|Eleutherococcus brachypus|Eleutherococcus divaricatus|Eleutherococcus senticosus|Eleutherococcus sessiliflorus|Elliottia paniculata|Embelia schimperi|Empetrum nigrum|Encyothalia cliftonii|Entada rheedei|Ephedra aphylla|Ephedra campylopoda|Ephedra foeminea|Ephydatia syriaca|Epilobium dodonaei|Epilobium hirsutum|Epilobium prantlii|Epilobium sp.|Epimedium brevicornu|Epimedium brevicornum|Epimedium davidii|Epimedium grandiflorum|Epimedium koreanum|Epimedium pubescens|Epimedium sagittatum|Epimedium sempervirens|Epimedium wushanense|Epipactis palustris|Eria subsessilis|Erica cinerea|Erica glauca|Ericameria diffusa|Eriobotrya japonica|Eriostemon thryptomenoides|Erodium stephanianum|Erylus trisphaerus|Erysimum odoratum|Erythrina sacleuxii|Erythroxylum rufum|Erythroxylum suberosum|Erythroxylum ulei|Eucalyptus Globulus|Eucalyptus camaldulensis|Eucalyptus rostrata|Eucalyptus sp.|Eucalyptus staigeriana|Eugenia selloi|Eumorphia sericea|Euodia rutaecarpa|Eupatorium areolare|Eupatorium argentinum|Eupatorium birmanicum|Eupatorium cannabinum|Eupatorium lindleyanum|Euphorbia chamaesyce|Euphorbia esula|Euphorbia franchetii|Euphorbia helioscopia|Euphorbia humifusa|Euphorbia hyssopifolia|Euphorbia latazi|Euphorbia lunulata|Euphorbia nicaeensis|Euphorbia pannonica|Euphorbia paralias|Euphorbia pekinensis|Euphorbia scripta|Euphorbia soongarica|Euphorbia sp.|Euphorbia stepposa|Euphorbia turczaninowii|Euphoria longan|Euphydryas cynthia|Euplotes raikovi|Eupolyphaga sinensis|Euthamia graminifolia|Eutreptia viridis|Eutypella scoparia|Evernia vulpina|Excoecaria agallocha|Eysenhardtia subcoriacea|Fagara rubescens|Fagonia latifolia|Fagopyrum esculentum|Fagopyrum megacarpum|Fagopyrum sp.|Fagraea gracilipes|Fallopia cilinode|Fallopia convolvulus|Fallopia dumetorum|Fallopia multiflora|Fallopia scandens|Felimida luteorosea|Ficus cordata subsp. salicifolia|Ficus nervosa|Ficus sarmentosa var. thunbergii|Filipendula sp.|Filipendula ulmaria|Flemingia chappar|Foeniculum vulgare|Forsythia suspensa|Forsythia viridissima|Fragaria indica|Fragaria x ananassa|Fraxinus insularis|Fraxinus ornus|Frullania brittoniae|Frullania tamarisci|Fuchsia ampliata|Fuchsia andrei|Fuchsia apetala|Fuchsia arborescens|Fuchsia austromontana|Fuchsia ayavacensis|Fuchsia boliviana|Fuchsia campos-portoi|Fuchsia chloroloba|Fuchsia coccinea|Fuchsia colensoi|Fuchsia corymbiflora|Fuchsia cyrtandroides|Fuchsia decidua|Fuchsia decussata|Fuchsia denticulata|Fuchsia eucliandra|Fuchsia excorticata|Fuchsia ferreyrae|Fuchsia fontinalis|Fuchsia fulgens|Fuchsia furfuracea|Fuchsia hartwegii|Fuchsia hirtella|Fuchsia inflata|Fuchsia loxensis|Fuchsia lycioides|Fuchsia macrostigma|Fuchsia magellanica|Fuchsia mathewsii|Fuchsia membranacea|Fuchsia microphylla|Fuchsia pallescens|Fuchsia paniculata|Fuchsia perscandens|Fuchsia petiolaris|Fuchsia pilaloensis|Fuchsia polyantha|Fuchsia pringsheimii|Fuchsia procumbens|Fuchsia regia|Fuchsia rivularis|Fuchsia sanctae-rosae|Fuchsia sessilifolia|Fuchsia splendens|Fuchsia sylvatica|Fuchsia tillettiana|Fuchsia tincta|Fuchsia triphylla|Fuchsia venusta|Fuchsia vulcanica|Fucus spiralis|Galenia africana|Galium dasypodum|Galium heldreichii|Galium palustre|Galphimia glauca|Garcinia dulcis|Garcinia intermedia|Garcinia pseudoguttifera|Garcinia xipshuanbannaensis|Gardenia thailandica|Gardneria insularis|Gemmingia chinensis|Genista cinerea|Gentiana davidii var. formosana|Gentiana tibetica|Geranium carolinianum|Geranium lambertii|Geranium niveum|Geranium platyanthum|Geranium pusillum|Geranium robertianum|Geranium sp.|Geranium sylvaticum|Geranium thunbergii|Geranium tuberosum|Geranium wilfordii|Glechoma sp.|Gleditsia caspica|Glehnia littoralis|Globba malaccensis|Gloiopeltis furcata|Glycyrrhiza lepidota|Gnidia lamprantha|Gossypium hirsutum|Gracilaria textorii|Graphis cognata|Grataegus pinnatifida|Guatteria boliviana|Gutierrezia grandis|Gutierrezia lucida|Gutierrezia microcephala|Gymnema sylvestre|Gynoxys nitida|Habropetalum dawei|Haematopus ostralegus|Haliclona mucosa|Haliclona nigra|Halobacterium salinarum|Hamamelis virginiana|Haplopappus foliosus|Haplophyllum ferganicum|Haplophyllum ramosissimum|Haplophyllum robustum|Harungana sp.|Hedychium villosum|Hedyosmum arborescens|Hedysarum alpinum|Hedysarum branthii|Hedysarum coronarium|Hedysarum inundatum|Hedysarum neglectum|Hedysarum sachalinense|Helichrysum graveolens|Helichrysum lepidissimum|Helichrysum mixtum|Heliotropium amplexicaule|Heliotropium eichwaldii|Helleborus multifidus|Herba cichorii|Heterotheca inuloides|Heterotheca sp.|Hippophae rhamnoides|Hippospongia communis|Holboellia fargesi|Hopea utilis|Houttuynia Cordata|Houttuynia cordata|Humata pectinata|Humulus lupulus|Hydrocotyle leucocephala|Hydrocotyle sibthorpioides|Hylocereus ocamponis|Hylocereus undatus|Hylotelephium telephium|Hypericum Ascyron|Hypericum Sampsonii|Hypericum adenotrichum|Hypericum androsaemum|Hypericum ascyron|Hypericum attenuatum|Hypericum aucheri|Hypericum balearicum|Hypericum beanii|Hypericum bithynicum|Hypericum brasiliense|Hypericum canariense|Hypericum caprifoliatum|Hypericum caprifolium|Hypericum carinatum|Hypericum elegans|Hypericum erectum|Hypericum ericoides|Hypericum glandulosum|Hypericum graveolens|Hypericum hirsutum|Hypericum humifusum|Hypericum japonicum|Hypericum jovis|Hypericum kamtschaticum|Hypericum laricifolium|Hypericum maculatum|Hypericum monogynum|Hypericum montanum|Hypericum montbretii|Hypericum myrianthum|Hypericum mysorense|Hypericum perforatum|Hypericum polyanthemum|Hypericum pseudomaculatum|Hypericum pseudopetiolatum|Hypericum punctatum|Hypericum revolutum|Hypericum richeri|Hypericum sampsonii|Hypericum scabrum|Hypericum sikokumontanum|Hypericum sp.|Hypericum ternum|Hypericum tetrapterum|Hypericum triquetrifolium|Hypericum undulatum|Hypericum venustum|Hypomyces semitranslucens|Hyptis brevipes|Iberis amara|Ichthyothere terminalis|Ilex amara|Ilex lepta|Illicium sp.|Inella verrucosa|Inocybe geophylla|Iphiona scabra|Ipomoea fistulosa|Ipomoea reptans|Ipomopsis polycladon|Ips paraconfusus|Ircinia spinosula|Iris florentina|Iryanthera paraensis|Isodon japonicus|Ixeris chinensis|Ixeris tamagawaensis|Jaborosa kurtzii|Jacaranda decurrens|Jacobaea adonidifolia|Jacobaea vulgaris|Juglans mandshurica|Juglans regia|Juglans sp.|Jugo|Juniperus brevifolia|Juniperus utahensis|Justicia ciliata|Kali turgidum|Kalmia latifolia|Kalmia sp.|Kalopanax septemlobus|Kielmeyera coriacea|Kitaibelia vitifolia|Knautia montana|Knightia deplanchei|Knightia excelsa|Koelreuteria paniculata|Koenigia alpina|Kuehneromyces mutabilis|Laccaria vinaceoavellanea|Lactarius quietus|Lactarius uvidus|Lactobacillus delbrueckii subsp. bulgaricus|Lactuca sativa|Laennecia filaginoides|Lafoensia densiflora|Lafoensia glyptocarpa|Lamellodysidea herbacea|Larix decidua|Lathyrus nissolia|Lathyrus palustris|Latua pubiflora|Laurencia caraibica|Laurencia distichophylla|Lechevalieria aerocolonigenes|Leishmania major|Lenzites betulinus|Leontopodium nanum|Leonurus cardiaca|Leonurus glaucescens|Leonurus heterophyllus|Leonurus persicus|Leonurus sp.|Lepidium draba|Lepisorus thunbergianus|Lepraria xanthina|Leptobalanus apetalus|Lesquerella auriculata|Leucas neufliseana|Leuzea centauroides|Libocedrus plumosa|Licania apetala|Licania cariae|Licania pittieri|Licaria armeniaca|Ligularia lamarum|Limonium aureum|Lippia mexicana|Lithospermum officinale|Litsea glutinosa|Litsea salicifolia|Litsea triflora|Livistona australis|Lobelia st|Lonchocarpus orotinus|Lonicera confusa|Lonicera confuse|Lonicera dasystyla|Lonicera fulvotomentosa|Lonicera hypoglauca|Lonicera japonica|Lonicera macranthoides|Lotus corniculatus|Lotus ucrainicus|Lycopus europaeus|Lyonia ovalifolia|Lysiana subfalcata|Lysimachia christinae|Lysimachia fortunei|Lysimachia heterogenea|Lysimachia mauritiana|Lysimachia sp.|Lysimachia thyrsiflora|Lysimachia vulgaris|Maba buxifolia|Macaranga peltata|Macaranga tanarius|Machaerium nictitans|Machilus japonica|Maerua crassifolia|Magnolia sieboldii|Magnolia sprengeri|Mallotus villosus|Malpighia emarginata|Malus domestica|Malus pumila|Malus sp.|Malva sylvestris|Mammillaria magnimamma|Mandevilla martiana|Mangifera indica|Manoao colensoi|Matricaria chamomilla|Matricaria suffruticosa|Matthiola fruticulosa|Meconopsis horridula|Medicago sativa|Meehania fargesii|Melaleuca ericifolia|Melanelixia fuliginosa subsp. glabratula|Melilotus messanensis|Melilotus siculus|Mentzelia cordifolia|Mentzelia sp.|Menyanthes sp.|Menyanthes trifoliata|Mesembryanthemum anatomicum|Mesembryanthemum expansum|Metalasia cymbifolia|Metapenaeus bennettae|Microciona eurypa|Microglossa pyrrhopappa|Micromelum tephrocarpum|Micromeria pineolens|Microtea debilis|Mimosa pudica|Minthostachys setosa|Minthostachys spicata|Mitragyna speciosa|Mitrephora diversifolia|Monanchora pulchra|Monascus pilosus|Monochaetia compta|Monochaetum multiflorum|Monteverdia ilioppjfeowneviufheiuwfew fgr|Moquilea cariae|Morina nepalensis|Morus alba|Munronia delavayi|Myrica multiflora|Myrothamnus flabellifolia|Myrothamnus flabellifolius|Myrsine africana|Narcissus obesus|Nelumbo Nucifera|Nelumbo nucifera|Nemalion vermiculare|Neolentinus lepideus|Neonectria candida|Nepenthes thorelii|Nerium oleander|Nicotiana debneyi|Nidula candida|Nierembergia hippomanica|Nierembergia linariifolia|Norantea guianensis|Nostoc spongiaeforme|Nothofagus antarctica|Nymphoides cordata|Nymphoides crenata|Nymphoides grayana|Nymphoides grayanum|Oceanapia ramsayi|Ocimum gratissimum|Ocotea pulchella|Oenanthe javanica|Oenothera affinis|Oenothera canescens|Oenothera dissecta|Oenothera glazioviana|Oenothera havardii|Oenothera kunthiana|Oenothera odorata|Oenothera speciosa|Oenothera tetraptera|Onobrychis angustifolia|Onobrychis bobrovii|Onobrychis cornuta|Onobrychis echidna|Onobrychis ferganica|Onobrychis grandis|Onobrychis saravschanica|Onobrychis tanaitica|Ononis sp.|Ophiarthrum elegans|Ophiocoma scolopendrina|Ophiorrhiza kuroiwae|Ophiorrhiza liukiuensis|Oreoherzogia fallax|Ormopteris gleichenioides|Ormopteris pinnata|Ormopteris riedelii|Ormosia balansae|Ornduffia reniformis|Osmorhiza aristata|Osteophloeum platyspermum|Osteospermum muricatum|Ostryopsis davidiana|Osyris abyssinica|Oxera splendida|Paeonia rockii|Paliurus spina-christi|Pallenis spinosa|Panorpa japonica|Papaver rhoeas|Parablechnum minus|Paraburkholderia caryophylli|Paradendryphiella salina|Paralemnalia clavata|Parerythropodium fulvum|Paronychia argentea|Paronychia kapela|Passiflora sp.|Patersonia fragilis|Pelargonium graveolens|Peltogyne porphyrocardia|Penicillium alutaceum|Penicillium citreonigrum|Penicillium crustaceum|Penicillium kewense|Penicillium stipitatum|Penstemon gentianoides|Peperomia proctorii|Peperomia vulcanica|Perenniporia subacida|Periploca calophylla|Peritassa compta|Persicaria alpina|Persicaria amphibia|Persicaria decipiens|Persicaria lapathifolia|Persicaria mitis|Persicaria nepalensis|Persicaria pensylvanica|Persicaria salicifolia|Persicaria sp.|Persicaria stagnina|Persicaria thunbergii|Petriella sordida|Peucedanum praeruptorum|Peyrousea umbellata|Peyssonnelia caulifera|Phaeolus schweinitzii|Phanera japonica|Phebalium gracile|Phebalium stenophyllum|Phedimus kamtschaticus|Phedimus selskanianus|Phellodendron Amurense|Phellodendron amurense|Philadelphus lewisii|Phlebodium decumanum|Phlegmariurus tetrastichus|Phoebe formosana|Phorbas amaranthus|Phyllanthus discoideus|Phyllopsora haemophaea|Physalis edulis|Physochlaina physaloides|Picea rubens|Picnomon acarna|Picris conyzoides|Pimenta dioica|Pinus banksiana|Pinus brutia var. eldarica|Pinus densiflora var. densiflora|Piper taboganum|Pistacia atlantica|Plantago coronopus|Plantago lacustris|Plantago lanceolata|Plantago major|Platanus sp.|Platonia insignis|Platycarpha glomerata|Platycarya strobilacea|Plectocephalus chilensis|Plenodomus tracheiphilus|Plexaura homomalla|Polygala reinii|Polygonatum multiflorum|Polygonatum orientale|Polygonum Cuspidatum|Polygonum aviculare|Polygonum cuspidatum|Polygonum salicifolium|Polygonum senegalense|Polygonum sp.|Polygonum weyrichii|Polylepis besseri|Polylepis incana|Polymnia uvedalia|Polypodium virginianum|Polypodium vulgare|Polysiphonia elongata|Popillia japonica|Populus ussuriensis|Potentilla fruticosa|Premna tomentosa|Prosopis spicigera|Prumnopitys ferruginoides|Prunella Vulgaris|Prunella vulgaris|Prunus domestica|Prunus dulcis|Prunus padus|Prunus persica|Prunus persica var. nucipersica|Pseudaegle trifoliata|Pseudeurotium zonatum|Pseudophryne coriacea|Psiadia dentata|Psidium friedrichsthalianum|Psidium guajava|Psittacanthus cucullaris|Psorospermum adamauense|Psychotria serpens|Pteris fauriei|Pteris radiata|Ptilidium ciliare|Pulicaria incisa|Pycnandra acuminata|Pyrola calliantha|Pyrola elliptica|Pyrola incarnata|Pyrola japonica|Pyrola rotundifolia|Pyrus communis|Quercus ilex|Quercus laurifolia|Quercus sessiliflora|Quercus sp.|Quercus suber|Ramalina sayreana|Ranunculus sardous|Ratibida mexicana|Reaumuria hirtella|Relbunium atherodes|Remijia pedunculata|Retama duriaei|Rhamnus|Rhamnus cathartica|Rhamnus disperma|Rheedia acuminata|Rhizopus stolonifer|Rhodiola coccinea|Rhododendron arboreum|Rhododendron brachycarpum|Rhododendron catawbiense|Rhododendron dauricum|Rhododendron decorum|Rhododendron ellipticum|Rhododendron ferrugineum|Rhododendron groenlandicum|Rhododendron irroratum|Rhododendron latoucheae|Rhododendron ledebourii|Rhododendron mucronulatum|Rhododendron sichotense|Rhododendron simsii|Rhododendron spinuliferum|Rhododendron tomentosum|Rhynchosporium orthosporum|Rhytidoponera metallica|Ribes nigrum|Ricinus sp.|Robinsonia berteroi|Robinsonia evenia|Robinsonia gayana|Robinsonia macrocephala|Robinsonia masafuerae|Robinsonia thurifera|Roboastra tigris|Rodgersia sambucifolia|Roldana lineolata|Roldana lobata|Rosa|Rosa agrestis|Rosa canina|Rosa chinensis|Rosa davurica|Rosa lucieae|Rosa multiflora|Rosa rugosa|Rosa sp.|Rosa wichuraiana|Rotala rosea|Rubia schumanniana|Rubia tinctorum|Rubus|Rubus amabilis|Rubus idaeus|Rubus loganobaccus|Rubus saxatilis|Rubus xanthocarpus|Rudbeckia hirta|Ruditapes philippinarum|Ruellia rosea|Rumex acetosa|Rumex obtusifolius|Sabal causiarum|Saccharopolyspora spinosa|Sagittaria sagittifolia|Salacia elliptica|Salacia longipes|Salacia madagascariensis|Salix chaenomeloides|Salix pentandroides|Salix sp.|Salvia digitaloides|Salvia munzii|Sambucus sp.|Sanguisorba officinalis|Sanicula graveolens|Saprospira grandis|Saracha viscosa|Sarcococca vagans|Sarcodon aspratus|Sarcomphalus mistol|Sarcopoterium spinosum|Sarracenia alata|Sarracenia flava|Sarracenia jonesii|Sarracenia leucophylla|Sarracenia minor|Sarracenia oreophila|Sarracenia psittacina|Sarracenia purpurea|Sarracenia rubra|Saururus Chinensis|Saussurea amara|Saussurea carthamoides|Saussurea involucrata|Saxifraga cernua|Saxifraga tricuspidata|Scabiosa succisa|Scandosorbus intermedia|Scarlet firethorn|Schinus molle|Schisandra chinensis|Scilla dracomontana|Scilla maritima|Scolymus hispanicus|Scopolia hladnikiana|Scutellaria seleriana|Securidaca diversifolia|Sedum sarmentosum|Selenicereus sp.|Sempervivum ruthenicum|Senecio densiflorus|Senecio sarracenicus|Senecio scandens|Senegalia catechu|Sia ferox|Sida veronicaefolia|Sidastrum paniculatum|Sideritis euboea|Silene tatarica|Silphium perfoliatum|Sinoadina racemosa|Sinopodophyllum emodi|Sinularia molesta|Sisyrinchium californicum|Smyrnium creticum|Solanum acaule|Solanum cernuum|Solanum giganteum|Solanum incanum|Solanum nigrum|Solanum racemigerum|Solanum toxicarum|Solanum transcaucasicum|Solidago sp.|Solidago virgaurea|Sonchus asper|Sonchus ortunoi|Sophora exigua|Sophora moorcroftiana|Sophora tetraptera|Sophora tometosa|Sorbus aucuparia|Sorbus intermedia|Sorbus tianschanica|Sphaerostephanos penniger|Spigelia sp.|Spinacia oleracea|Spinulum annotinum|Spiraea formosa|Spiraea salicifolia|Spodoptera eridania|Spongia australis|Spongia bilamellata|Sporobolus cynosuroides|Stelletta inconspicua|Stephania elegans|Stephania epigaea|Stevia cuzcoensis|Stevia galeopsidifolia|Stevia microchaeta|Stevia nepetifolia|Stevia origanoides|Stevia purpurea|Stevia serrata|Stevia soratensis|Stevia suaveolens|Stipa vaseyi|Streblognathus aethiopicus|Streptomyces chattanoogensis|Streptomyces clavifer|Streptomyces diastatochromogenes|Streptomyces eurythermus|Streptomyces griseovariabilis|Streptomyces kanamyceticus|Streptomyces libani|Streptomyces rochei|Streptomyces setonensis|Strophanthus preussii|Strychnos spinosa|Strychnos variabilis|Stylissa flabelliformis|Styrax ferrugineus|Suillus bovinus|Suillus tridentinus|Sulla coronaria|Swartzia madagascariensis|Swertia delavayi|Swertia swertopsis|Symphyocladia latiuscula|Symphyotrichum bracteolatum|Symphyotrichum eatonii|Synoicum pulmonaria|Syzygium sp.|Tabebuia aurea|Tabebuia ochracea|Tachigali paniculata|Tagetes elliptica|Tamarix aphylla|Taraxacum bicorne|Taraxacum borealisinense|Taraxacum coreanum|Taraxacum mongolicum|Taraxacum officinale|Taraxacum platycarpum|Targionia hypophylla|Taxillus kaempferi|Taxodium Distichum|Taxodium huegelii|Taxodium mucronatum|Taxus brevifolia|Tecoma pentaphylla|Tecoma sp.|Tessaria integrifolia|Tetrahymena pyriformis|Teucrium pestalozzae|Thalictrum cultratum|Theobroma Cacao|Theobroma cacao|Thermopsis alpina|Thorecta marginalis|Tilia sp.|Torminalis glaberrima|Torreya jackii|Toxicodendron wallichii|Trachelospermum lucidum|Triadenum japonicum|Trichia favoginea|Trichilia hirta|Trichoderma koningi|Trichoderma longibrachiatum|Trichoderma polysporum|Trifolium Repens|Trifolium ambiguum|Trifolium apertum|Trifolium arvense|Trifolium aureum|Trifolium pratense|Trifolium repens|Tripetaleia paniculata|Tripodanthus acutifolius|Tsuga chinensis|Turbinaria ornata|Turricula parryi|Tussilago farfara|Tylophora indica|Typha domingensis|Udotea petiolata|Ulmus americana|Uncaria elliptica|Uncaria laevigata|Uncaria rhynchophylla|Uncaria sinensis|Uncaria sp.|Ungnadia speciosa|Urospermum dalechampii|Urospermum picroides|Usnea undulata|Utricularia australis|Vaccinium corymbosum|Vaccinium macrocarpon|Vaccinium myrtillus|Vaccinium ovalifolium|Vaccinium oxycoccos|Vaccinium sp.|Vaccinium vitis-idaea|Vachellia tortilis|Valeriana fedtschenkoi|Vallota purpurea|Vauquelinia corymbosa|Venus casina|Veratrum dahuricum|Verbesina encelioides|Vernonia anisochaetoides|Vernonia galamensis|Vernonia menthaefolia|Veronica pectinata|Verpa digitaliformis|Viburnum opulus|Viburnum tinus|Vidalia volubilis|Viguiera annua|Viguiera procumbens|Vincetoxicum hirundinaria|Viola arvensis|Virgilia divaricata|Vismia jefensis|Visnea mocanera|Vitex negundo|Vitex pinnata|Vitis aestivalis|Vitis cinerea|Vitis labrusca|Vitis rotundifolia|Vitis vinifera|Wedelia floribunda|Wedelia prostrata|Wikstroemia chamaedaphne|Wilcoxia viperina|Wolfiporia cocos|Xanthium pungens|Xanthoria aureola|Xanthosoma violaceum|Xylaria mellissii|Zanthoxylum bungeanum|Zanthoxylum fagara|Zanthoxylum liebmannianum|Zanthoxylum limoncello|Zanthoxylum piperitum|Zanthoxylum schinifolium|Zanthoxylum sp.|Zeora sordida|Ziziphus jujuba|Ziziphus mauritiana|Ziziphus spina-christi|asparagus|common myrtle|microtea debilis|mountain clover|rooibos|sarracenia purpurea|tarragon|umbellate wintergreen

>  <collections>  (803) 
ANPDB|AnalytiCon Discovery NPs|Australian natural products|BIOFACQUIM|CMAUP (cCollective molecular activities of useful plants)|ChEBI NPs|ChemSpider NPs|ETM (Ethiopian Traditional Medicine) DB|FooDB|GNPS (Global Natural Products Social Molecular Networking)|Latin America dataset|NANPDB (Natural Products from Northern African Sources)|NAPRORE-CR|NPASS|NPDBEjeCol|NuBBEDB|Phenol-explorer|Phyto4Health|PhytoLab phyproof® Reference Substances|SANCDB|Super Natural II|TCMDB-Taiwan (Traditional Chinese Medicine database)|TIPdb (database of Taiwan indigenous plants)|VietHerb|Watermelon|WikiData Natural Products

>  <dois>  (803) 
10.1002/(SICI)1097-0231(20000130)14:2<95::AID-RCM843>3.0.CO;2-6|10.1002/(SICI)1099-1565(199805/06)9:3<145::AID-PCA393>3.0.CO;2-K|10.1002/(SICI)1099-1573(199702)11:1<22::AID-PTR951>3.0.CO;2-3|10.1002/(SICI)1099-1573(199705)11:3<240::AID-PTR54>3.0.CO;2-K|10.1002/(SICI)1099-1573(199705)11:3<260::AID-PTR80>3.0.CO;2-N|10.1002/(SICI)1099-1573(199812)12:8<562::AID-PTR356>3.0.CO;2-6|10.1002/(SICI)1099-1573(199908/09)13:5<422::AID-PTR462>3.0.CO;2-M|10.1002/1099-1565(200007/08)11:4<257::AID-PCA521>3.0.CO;2-A|10.1002/1099-1573(200011)14:7<501::AID-PTR655>3.0.CO;2-B|10.1002/ARDP.19552880805|10.1002/ARDP.19913240207|10.1002/ARDP.19933260906|10.1002/ARDP.2503240811|10.1002/CHIN.200511237|10.1002/CHIN.200612187|10.1002/HLCA.200800346|10.1002/HLCA.201500519|10.1002/J.1537-2197.1985.TB08343.X|10.1002/J.1537-2197.1986.TB08521.X|10.1002/J.1537-2197.1986.TB10902.X|10.1002/J.1537-2197.1988.TB13465.X|10.1002/JCCS.199900034|10.1002/JCCS.201190020|10.1002/JPS.10057|10.1002/JPS.2600551210|10.1002/JPS.3030320706|10.1002/JSFA.1885|10.1002/MNFR.200400064|10.1002/MNFR.200500064|10.1002/MRC.1034|10.1002/MRC.2113|10.1002/MRC.2516|10.1002/PCA.2800040607|10.1002/PCA.638|10.1002/PTR.1513|10.1002/PTR.1834|10.1002/PTR.2529|10.1002/PTR.2650040508|10.1002/PTR.2650070111|10.1002/PTR.865|10.1002/PTR.883|10.1002/RCM.574|10.1007/978-1-4614-0535-1_53|10.1007/978-3-540-71095-0_9011|10.1007/978-3-7091-1084-3_5|10.1007/BF00563361|10.1007/BF00563466|10.1007/BF00563488|10.1007/BF00563636|10.1007/BF00563831|10.1007/BF00563833|10.1007/BF00563908|10.1007/BF00564349|10.1007/BF00564977|10.1007/BF00565261|10.1007/BF00565316|10.1007/BF00566073|10.1007/BF00566809|10.1007/BF00567044|10.1007/BF00567331|10.1007/BF00567719|10.1007/BF00567881|10.1007/BF00567951|10.1007/BF00568241|10.1007/BF00568359|10.1007/BF00568544|10.1007/BF00570212|10.1007/BF00570720|10.1007/BF00571239|10.1007/BF00573562|10.1007/BF00574227|10.1007/BF00575191|10.1007/BF00575724|10.1007/BF00577212|10.1007/BF00577213|10.1007/BF00577214|10.1007/BF00579083|10.1007/BF00579157|10.1007/BF00579158|10.1007/BF00579786|10.1007/BF00579837|10.1007/BF00579838|10.1007/BF00579982|10.1007/BF00580083|10.1007/BF00580090|10.1007/BF00580916|10.1007/BF00594312|10.1007/BF00597867|10.1007/BF00598202|10.1007/BF00598321|10.1007/BF00598324|10.1007/BF00598325|10.1007/BF00598597|10.1007/BF00598599|10.1007/BF00599015|10.1007/BF00599276|10.1007/BF00600851|10.1007/BF00600854|10.1007/BF00600855|10.1007/BF00629810|10.1007/BF00629813|10.1007/BF00630375|10.1007/BF00630415|10.1007/BF00630668|10.1007/BF00633293|10.1007/BF00633404|10.1007/BF00638770|10.1007/BF00683857|10.1007/BF00713338|10.1007/BF00985673|10.1007/BF01032045|10.1007/BF01134639|10.1007/BF01386200|10.1007/BF01870610|10.1007/BF01959464|10.1007/BF02234915|10.1007/BF02234939|10.1007/BF02319574|10.1007/BF02323285|10.1007/BF02323302|10.1007/BF02323304|10.1007/BF02329610|10.1007/BF02467181|10.1007/BF02490607|10.1007/BF02856638|10.1007/BF02974168|10.1007/BF02977002|10.1007/BF02980162|10.1007/BF03048930|10.1007/BF03179929|10.1007/PL00010306|10.1007/S00217-003-0845-6|10.1007/S002170100328|10.1007/S10600-005-0148-1|10.1007/S10600-006-0089-3|10.1007/S10600-006-0267-3|10.1007/S10600-007-0209-8|10.1007/S10600-008-0028-6|10.1007/S10600-008-0029-5|10.1007/S10600-008-9067-2|10.1007/S10600-009-9245-X|10.1007/S10600-009-9246-9|10.1007/S10600-009-9328-8|10.1007/S10600-009-9362-6|10.1007/S10600-009-9409-8|10.1007/S10600-009-9410-2|10.1007/S10600-010-9649-7|10.1007/S10600-011-0016-0|10.1007/S10600-011-0072-5|10.1007/S10600-011-9895-3|10.1007/S10600-011-9907-3|10.1007/S10600-011-9908-2|10.1007/S10600-012-0124-5|10.1007/S10600-018-2530-9|10.1007/S10600-019-02792-7|10.1007/S11094-005-0104-1|10.1007/S11418-010-0400-2|10.1007/s00217-005-1204-6|10.1016/0021-9673(94)80541-5|10.1016/0031-6865(95)00027-7|10.1016/0031-6865(96)00010-6|10.1016/0031-9422(74)85149-6|10.1016/0031-9422(80)85040-0|10.1016/0031-9422(82)80150-7|10.1016/0031-9422(82)83079-3|10.1016/0031-9422(82)83122-1|10.1016/0031-9422(82)83123-3|10.1016/0031-9422(83)80021-1|10.1016/0031-9422(84)83046-0|10.1016/0031-9422(86)80029-2|10.1016/0031-9422(86)80079-6|10.1016/0031-9422(88)80698-8|10.1016/0031-9422(88)80719-2|10.1016/0031-9422(88)84102-5|10.1016/0031-9422(89)80060-3|10.1016/0031-9422(90)80075-R|10.1016/0031-9422(90)80206-V|10.1016/0031-9422(90)85464-Q|10.1016/0031-9422(91)83748-A|10.1016/0031-9422(91)85140-U|10.1016/0031-9422(92)80489-2|10.1016/0031-9422(92)83305-I|10.1016/0031-9422(93)85102-W|10.1016/0031-9422(93)85108-4|10.1016/0031-9422(93)85134-D|10.1016/0031-9422(93)85448-Z|10.1016/0031-9422(93)85448-z|10.1016/0031-9422(94)00689-Q|10.1016/0031-9422(94)00784-Q|10.1016/0031-9422(94)00905-9|10.1016/0031-9422(94)00965-V|10.1016/0031-9422(95)00507-4|10.1016/0031-9422(95)00511-0|10.1016/0031-9422(95)00528-5|10.1016/0031-9422(95)00731-8|10.1016/0031-9422(96)00252-X|10.1016/0166-3542(93)90095-Z|10.1016/0305-1978(77)90039-4|10.1016/0305-1978(84)90068-1|10.1016/0305-1978(85)90089-4|10.1016/0305-1978(86)90025-6|10.1016/0305-1978(86)90088-8|10.1016/0305-1978(86)90089-X|10.1016/0305-1978(87)90085-8|10.1016/0305-1978(88)90035-X|10.1016/0305-1978(88)90085-3|10.1016/0305-1978(88)90086-5|10.1016/0305-1978(91)90007-M|10.1016/0305-1978(92)90028-C|10.1016/0305-1978(92)90038-F|10.1016/0305-1978(92)90060-Q|10.1016/0305-1978(93)90061-U|10.1016/0305-1978(93)90062-V|10.1016/0305-1978(93)90066-Z|10.1016/0305-1978(93)90077-5|10.1016/0305-1978(93)90081-2|10.1016/0305-1978(94)00092-U|10.1016/0305-1978(94)90120-1|10.1016/0305-1978(95)00039-W|10.1016/0305-1978(95)00108-5|10.1016/0305-1978(95)93663-N|10.1016/0305-1978(95)93846-U|10.1016/0308-8146(95)00068-2|10.1016/0952-3278(94)90141-4|10.1016/J.ACA.2012.02.051|10.1016/J.BMC.2004.10.020|10.1016/J.BMCL.2011.11.109|10.1016/J.BMCL.2015.05.089|10.1016/J.CHROMA.2007.03.038|10.1016/J.FITOTE.2007.07.002|10.1016/J.FITOTE.2007.11.012|10.1016/J.FITOTE.2010.04.012|10.1016/J.FITOTE.2016.08.013|10.1016/J.FOODCHEM.2009.07.063|10.1016/J.FOODCHEM.2011.08.010|10.1016/J.FOODCHEM.2013.06.057|10.1016/J.FOODCHEM.2020.128444|10.1016/J.JEP.2004.03.042|10.1016/J.JEP.2009.10.011|10.1016/J.JEP.2010.05.015|10.1016/J.PHYTOCHEM.2004.08.014|10.1016/J.PHYTOCHEM.2005.07.019|10.1016/J.PHYTOCHEM.2005.10.016|10.1016/J.PHYTOCHEM.2006.03.004|10.1016/J.PHYTOCHEM.2006.11.026|10.1016/J.PHYTOCHEM.2007.03.010|10.1016/J.PHYTOCHEM.2007.05.035|10.1016/J.PHYTOCHEM.2007.07.019|10.1016/J.PHYTOCHEM.2008.11.006|10.1016/J.PHYTOCHEM.2009.07.020|10.1016/J.PHYTOL.2011.02.005|10.1016/J.PLANTSCI.2004.06.001|10.1016/J.TETLET.2011.09.060|10.1016/S0003-2670(01)01370-8|10.1016/S0009-8981(02)00298-X|10.1016/S0014-827X(01)01068-0|10.1016/S0021-9673(00)00555-0|10.1016/S0021-9673(96)00578-X|10.1016/S0021-9673(97)00900-X|10.1016/S0021-9673(98)00697-9|10.1016/S0031-9422(00)00124-2|10.1016/S0031-9422(00)00216-8|10.1016/S0031-9422(00)00227-2|10.1016/S0031-9422(00)80695-0|10.1016/S0031-9422(00)81848-8|10.1016/S0031-9422(00)81860-9|10.1016/S0031-9422(00)82393-6|10.1016/S0031-9422(00)83015-0|10.1016/S0031-9422(00)83076-9|10.1016/S0031-9422(00)83864-9|10.1016/S0031-9422(00)84026-1|10.1016/S0031-9422(00)84999-7|10.1016/S0031-9422(00)85038-4|10.1016/S0031-9422(00)85534-X|10.1016/S0031-9422(00)85741-6|10.1016/S0031-9422(00)89514-X|10.1016/S0031-9422(00)89605-3|10.1016/S0031-9422(00)90397-2|10.1016/S0031-9422(00)90527-2|10.1016/S0031-9422(00)94535-7|10.1016/S0031-9422(00)97839-7|10.1016/S0031-9422(00)97951-2|10.1016/S0031-9422(00)98486-3|10.1016/S0031-9422(01)00247-3|10.1016/S0031-9422(02)00133-4|10.1016/S0031-9422(03)00437-0|10.1016/S0031-9422(96)00329-9|10.1016/S0031-9422(96)00706-6|10.1016/S0031-9422(96)00745-5|10.1016/S0031-9422(96)00842-4|10.1016/S0031-9422(97)00017-4|10.1016/S0031-9422(97)00370-1|10.1016/S0031-9422(97)00832-7|10.1016/S0031-9422(97)00878-9|10.1016/S0031-9422(98)00080-6|10.1016/S0031-9422(99)00262-9|10.1016/S0031-9422(99)00502-6|10.1016/S0031-9422(99)00598-1|10.1016/S0041-0101(97)00032-9|10.1016/S0176-1617(11)80953-3|10.1016/S0305-1978(00)00094-6|10.1016/S0305-1978(01)00086-2|10.1016/S0305-1978(01)00089-8|10.1016/S0305-1978(01)00136-3|10.1016/S0305-1978(02)00072-8|10.1016/S0305-1978(02)00159-X|10.1016/S0305-1978(96)00086-5|10.1016/S0305-1978(97)00015-X|10.1016/S0305-1978(97)00032-X|10.1016/S0305-1978(97)00034-3|10.1016/S0305-1978(98)00032-5|10.1016/S0305-1978(99)00084-8|10.1016/S0305-1978(99)00087-3|10.1016/S0305-1978(99)00113-1|10.1016/S0308-8146(00)00134-5|10.1016/S0308-8146(96)00287-7|10.1016/S0308-8146(99)00099-0|10.1016/S0367-326X(00)00297-5|10.1016/S0367-326X(02)00162-4|10.1016/S0367-326X(99)00147-1|10.1016/S0378-4347(01)00404-2|10.1016/S0378-5173(00)00660-8|10.1016/S0378-8741(01)00197-0|10.1016/S0944-7113(98)80015-9|10.1016/S0968-0896(00)00225-X|10.1016/S1001-0742(14)60648-3|10.1016/j.bmcl.2015.04.003|10.1016/j.bmcl.2015.05.089|10.1016/j.fitote.2016.08.013|10.1016/j.foodchem.2020.128444|10.1016/j.jfca.2018.09.012|10.1016/j.phytochem.2005.07.019|10.1016/j.phytochem.2007.03.010|10.1016/j.phytochem.2009.07.020|10.1016/j.phytochem.2015.08.017|10.1016/s0031-9422(00)85421-7|10.1017/S0890037X0003027X|10.1021/AC990598X|10.1021/JF00035A025|10.1021/JF00035A032|10.1021/JF00048A016|10.1021/JF00076A022|10.1021/JF00081A007|10.1021/JF00097A031|10.1021/JF00114A018|10.1021/JF0104681|10.1021/JF0202234|10.1021/JF020728U|10.1021/JF030096R|10.1021/JF030218F|10.1021/JF030813H|10.1021/JF034475W|10.1021/JF0346298|10.1021/JF0347721|10.1021/JF034970S|10.1021/JF035416L|10.1021/JF049317Z|10.1021/JF061058L|10.1021/JF0623687|10.1021/JF1049084|10.1021/JF2014759|10.1021/JF302848U|10.1021/JF900950Z|10.1021/JF903836K|10.1021/JF9505335|10.1021/JF960168X|10.1021/JF9605557|10.1021/JF9800211|10.1021/JF9801264|10.1021/JF990347P|10.1021/JF991002+|10.1021/NP0200764|10.1021/NP030217H|10.1021/NP040024+|10.1021/NP0500272|10.1021/NP0580614|10.1021/NP058062W|10.1021/NP0705615|10.1021/NP070564H|10.1021/NP1002274|10.1021/NP3001317|10.1021/NP50012A008|10.1021/NP50018A004|10.1021/NP50018A009|10.1021/NP50021A021|10.1021/NP50022A009|10.1021/NP50022A030|10.1021/NP50033A038|10.1021/NP50035A009|10.1021/NP50037A030|10.1021/NP50039A028|10.1021/NP50039A036|10.1021/NP50040A031|10.1021/NP50041A039|10.1021/NP50043A032|10.1021/NP50043A039|10.1021/NP50044A034|10.1021/NP50045A034|10.1021/NP50045A042|10.1021/NP50047A040|10.1021/NP50048A045|10.1021/NP50048A063|10.1021/NP50051A003|10.1021/NP50051A037|10.1021/NP50052A014|10.1021/NP50052A045|10.1021/NP50071A030|10.1021/NP50076A027|10.1021/NP50077A042|10.1021/NP50122A015|10.1021/NP9000653|10.1021/NP970025K|10.1021/NP980467B|10.1021/NP9900674|10.1021/acs.jnatprod.6b00484|10.1021/np040024+|10.1021/np200001x|10.1021/np3001317|10.1021/np400134z|10.1021/np50051a037|10.1021/np50076a027|10.1021/np50096a018|10.1021/np970025k|10.1021/np970171q|10.1021/np980467b|10.1023/B:CONC.0000025476.80448.69|10.1023/B:CONC.0000025477.18086.8B|10.1023/B:CONC.0000033945.16862.19|10.1055/S-0028-1097748|10.1055/S-0028-1097913|10.1055/S-0028-1099417|10.1055/S-0028-1099447|10.1055/S-0029-1240942|10.1055/S-0031-1300225|10.1055/S-0032-1321052|10.1055/S-0033-1352106|10.1055/S-2000-11119|10.1055/S-2000-11135|10.1055/S-2000-9779|10.1055/S-2001-11996|10.1055/S-2002-20053|10.1055/S-2002-34925|10.1055/S-2003-45114|10.1055/S-2003-45150|10.1055/S-2004-818956|10.1055/S-2004-832617|10.1055/S-2004-835854|10.1055/S-2006-957475|10.1055/S-2006-957598|10.1055/S-2006-957796|10.1055/S-2006-957824|10.1055/S-2006-957860|10.1055/S-2006-957954|10.1055/S-2006-958151|10.1055/S-2006-959503|10.1055/S-2006-959635|10.1055/S-2006-959756|10.1055/S-2006-959913|10.1055/S-2006-960798|10.1055/S-2006-960845|10.1055/S-2006-961020|10.1055/S-2006-961707|10.1055/S-2006-961904|10.1055/S-2006-962425|10.1055/S-2007-979339|10.1055/S-2007-979340|10.1055/S-2007-990223|10.1055/S-2008-1034278|10.1078/0944-7113-00031|10.1078/094471103322331476|10.1080/1028602021000049087|10.1080/10408398.2015.1078276|10.1080/1057563021000060149|10.1080/1071576021000006707|10.1080/10826079408013630|10.1080/12538078.2000.10515843|10.1080/13880200490505663|10.1080/13880200600798544|10.1080/14786410310001620673|10.1080/14786410802278327|10.1080/14786410802401390|10.1080/14786410903075507|10.1080/14786410903230359|10.1080/14786411003792165|10.1080/14786419.2011.587188|10.1081/JLC-100101645|10.1081/JLC-100101655|10.1093/CHROMSCI/41.2.87|10.1093/CHROMSCI/47.3.206|10.1104/PP.95.3.797|10.1104/PP.95.3.804|10.1111/1750-3841.14660|10.1111/J.1095-8339.1984.TB02563.X|10.1111/J.1365-2621.1967.TB00824.X|10.1111/J.1365-2621.1987.TB14056.X|10.1111/J.1365-2621.2003.TB12340.X|10.1111/J.1438-8677.1994.TB00414.X|10.1111/J.1469-8137.1913.TB05680.X|10.1139/B88-004|10.1139/B95-209|10.1142/S0192415X01000198|10.1177/089198879400700118|10.1177/089198879400701S18|10.1177/1934578X0800300227|10.1177/1934578X1501000817|10.1201/9781315120157-15|10.1201/9781420023305-8|10.1201/B15147-10|10.1211/0022357021779014|10.1248/BPB.25.1241|10.1248/BPB.25.1320|10.1248/BPB.26.1031|10.1248/BPB.28.19|10.1248/BPB.31.743|10.1248/BPB.33.122|10.1248/CPB.30.4046|10.1248/CPB.35.1234|10.1248/CPB.35.413|10.1248/CPB.37.2232|10.1248/CPB.38.2201|10.1248/CPB.38.2277|10.1248/CPB.40.2080|10.1248/CPB.40.2083|10.1248/CPB.41.1472|10.1248/CPB.41.1649|10.1248/CPB.45.367|10.1248/CPB.47.1510|10.1248/CPB.47.1515|10.1248/CPB.49.1388|10.1248/CPB.49.845|10.1248/CPB.51.1439|10.1248/CPB.52.1227|10.1248/CPB.52.714|10.1248/CPB.53.1355|10.1248/CPB.53.305|10.1248/CPB.54.1308|10.1248/CPB.54.136|10.1248/CPB.55.598|10.1248/CPB.57.1089|10.1248/CPB.57.1227|10.1248/CPB.58.696|10.1248/CPB.58.868|10.1248/CPB.59.1250|10.1248/CPB.59.135|10.1248/YAKUSHI1947.104.2_142|10.1248/YAKUSHI1947.106.11_982|10.1248/YAKUSHI1947.107.12_1001|10.1248/YAKUSHI1947.116.2_148|10.1248/YAKUSHI1947.79.3_403|10.1248/YAKUSHI1947.94.12_1634|10.1271/BBB.50669|10.1271/BBB.60112|10.1271/BBB.80421|10.1300/J044V09N02_12|10.1300/J044V09N04_12|10.14264/UQL.2014.538|10.1515/ZNB-2008-0317|10.1515/ZNC-1991-1-207|10.1515/ZNC-1992-7-807|10.1515/ZNC-1993-5-603|10.1515/ZNC-1995-11-1223|10.1515/ZNC-2001-9-1012|10.1590/S0100-40422010000200017|10.1590/S0103-50532010000200009|10.21608/BFSA.1988.73507|10.21608/BFSA.1995.69669|10.21608/ZJPS.1999.169705|10.21897/rmvz.218|10.2307/2996347|10.3109/13880209109082884|10.3109/13880209509088143|10.3136/FSTR.6.106|10.32861/JBR.66.57.61|10.3390/MOLECULES14041456|10.3390/MOLECULES15107153|10.3390/MOLECULES16098076|10.3390/MOLECULES16108305|10.3390/MOLECULES200815330|10.3390/molecules200815330|10.3724/SP.J.1009.2012.00084|10.3797/SCIPHARM.2006.74.203|10.3987/COM-03-9822|10.3987/COM-89-5087|10.3998/ark.5550190.0005.616|10.4000/BOOKS.IRDEDITIONS.5257|10.4268/CJCMM20101114|10.4268/CJCMM20121613|10.4268/CJCMM20150419|10.4314/GJPAS.V7I2.16244|10.4324/9780203304310_CHAPTER_3|10.5586/ASBP.1976.034|10.5586/ASBP.1980.025|10.5586/ASBP.1982.038|10.5897/AJB10.140|10.5897/JMPR.9000078

>  <synonyms>  (803) 
nan

>  <cas>  (803) 
482-36-0

$$$$

     RDKit          2D

 19 20  0  0  0  0  0  0  0  0999 V2000
   -1.4407    3.2656    0.0000 C   0  0  0  0  0  0  0  0  0  0  0  0
   -1.7338    1.7945    0.0000 O   0  0  0  0  0  0  0  0  0  0  0  0
   -0.6064    0.8051    0.0000 C   0  0  0  0  0  0  0  0  0  0  0  0
   -0.8996   -0.6660    0.0000 C   0  0  0  0  0  0  0  0  0  0  0  0
   -2.3202   -1.1476    0.0000 C   0  0  0  0  0  0  0  0  0  0  0  0
   -3.4476   -0.1582    0.0000 C   0  0  0  0  0  0  0  0  0  0  0  0
   -4.8681   -0.6399    0.0000 C   0  0  0  0  0  0  0  0  0  0  0  0
   -5.9955    0.3496    0.0000 C   0  0  0  0  0  0  0  0  0  0  0  0
   -5.1613   -2.1109    0.0000 C   0  0  0  0  0  0  0  0  0  0  0  0
    0.2278   -1.6554    0.0000 C   0  0  0  0  0  0  0  0  0  0  0  0
    1.6484   -1.1737    0.0000 C   0  0  0  0  0  0  0  0  0  0  0  0
    2.7758   -2.1632    0.0000 C   0  0  0  0  0  0  0  0  0  0  0  0
    4.1964   -1.6815    0.0000 C   0  0  0  0  0  0  0  0  0  0  0  0
    4.4895   -0.2104    0.0000 C   0  0  0  0  0  0  0  0  0  0  0  0
    5.9101    0.2712    0.0000 O   0  0  0  0  0  0  0  0  0  0  0  0
    3.3621    0.7790    0.0000 O   0  0  0  0  0  0  0  0  0  0  0  0
    1.9416    0.2973    0.0000 C   0  0  0  0  0  0  0  0  0  0  0  0
    0.8141    1.2867    0.0000 C   0  0  0  0  0  0  0  0  0  0  0  0
    1.1073    2.7578    0.0000 O   0  0  0  0  0  0  0  0  0  0  0  0
  1  2  1  0
  2  3  1  0
  3  4  2  0
  4  5  1  0
  5  6  1  0
  6  7  2  0
  7  8  1  0
  7  9  1  0
  4 10  1  0
 10 11  2  0
 11 12  1  0
 12 13  2  0
 13 14  1  0
 14 15  2  0
 14 16  1  0
 16 17  1  0
 17 18  2  0
 18 19  1  0
 18  3  1  0
 17 11  1  0
M  END
>  <identifier>  (804) 
CNP0248706.0

>  <canonical_smiles>  (804) 
COC1=C(CC=C(C)C)C=C2C=CC(=O)OC2=C1O

>  <standard_inchi>  (804) 
InChI=1S/C15H16O4/c1-9(2)4-5-10-8-11-6-7-12(16)19-15(11)13(17)14(10)18-3/h4,6-8,17H,5H2,1-3H3

>  <standard_inchi_key>  (804) 
NOCXLEOYPZOMHM-UHFFFAOYSA-N

>  <name>  (804) 
nan

>  <iupac_name>  (804) 
8-hydroxy-7-methoxy-6-(3-methylbut-2-enyl)chromen-2-one

>  <annotation_level>  (804) 
4

>  <total_atom_count>  (804) 
35

>  <heavy_atom_count>  (804) 
19

>  <molecular_weight>  (804) 
260.29

>  <exact_molecular_weight>  (804) 
260.10486

>  <molecular_formula>  (804) 
C15H16O4

>  <alogp>  (804) 
3.02

>  <topological_polar_surface_area>  (804) 
59.67

>  <rotatable_bond_count>  (804) 
3

>  <hydrogen_bond_acceptors>  (804) 
4

>  <hydrogen_bond_donors>  (804) 
1

>  <hydrogen_bond_acceptors_lipinski>  (804) 
4

>  <hydrogen_bond_donors_lipinski>  (804) 
1

>  <lipinski_rule_of_five_violations>  (804) 
0

>  <aromatic_rings_count>  (804) 
2

>  <qed_drug_likeliness>  (804) 
0.68

>  <formal_charge>  (804) 
0

>  <fractioncsp3>  (804) 
0.27

>  <number_of_minimal_rings>  (804) 
2

>  <van_der_walls_volume>  (804) 
nan

>  <contains_sugar>  (804) 
False

>  <contains_ring_sugars>  (804) 
False

>  <contains_linear_sugars>  (804) 
False

>  <murcko_framework>  (804) 
O1c2ccccc2C=CC1

>  <np_likeness>  (804) 
1.87

>  <chemical_class>  (804) 
Coumarins and derivatives

>  <chemical_sub_class>  (804) 
Coumarins and derivatives

>  <chemical_super_class>  (804) 
Phenylpropanoids and polyketides

>  <direct_parent_classification>  (804) 
Coumarins and derivatives

>  <np_classifier_pathway>  (804) 
Shikimates and Phenylpropanoids

>  <np_classifier_superclass>  (804) 
Coumarins

>  <np_classifier_class>  (804) 
Furocoumarins

>  <np_classifier_is_glycoside>  (804) 
False

>  <organisms>  (804) 
Brosimum parinarioides|Brosimum potabile|Brosimum rubescens|Melicope semecarpifolia|Zanthoxylum beecheyanum

>  <collections>  (804) 
Latin America dataset|NuBBEDB|Super Natural II|UNPD (Universal Natural Products Database)|WikiData Natural Products|ZINC NP

>  <dois>  (804) 
10.1002/JCCS.200400159|10.1016/S0031-9422(00)86395-5|10.1016/S0031-9422(00)89841-6|10.1055/S-2005-871295

>  <synonyms>  (804) 
Brosiparin

>  <cas>  (804) 
nan

$$$$

     RDKit          2D

 22 22  0  0  0  0  0  0  0  0999 V2000
  -11.9982    0.2382    0.0000 C   0  0  0  0  0  0  0  0  0  0  0  0
  -10.6511    0.8980    0.0000 O   0  0  0  0  0  0  0  0  0  0  0  0
   -9.4062    0.0612    0.0000 C   0  0  0  0  0  0  0  0  0  0  0  0
   -9.5083   -1.4353    0.0000 O   0  0  0  0  0  0  0  0  0  0  0  0
   -8.0591    0.7210    0.0000 C   0  0  0  0  0  0  0  0  0  0  0  0
   -6.8141   -0.1157    0.0000 C   0  0  0  0  0  0  0  0  0  0  0  0
   -5.4670    0.5441    0.0000 C   0  0  0  0  0  0  0  0  0  0  0  0
   -4.2221   -0.2927    0.0000 C   0  0  0  0  0  0  0  0  0  0  0  0
   -2.8750    0.3671    0.0000 C   0  0  0  0  0  0  0  0  0  0  0  0
   -1.6300   -0.4696    0.0000 C   0  0  0  0  0  0  0  0  0  0  0  0
   -0.2829    0.1902    0.0000 C   0  0  0  0  0  0  0  0  0  0  0  0
    0.9620   -0.6466    0.0000 C   0  0  0  0  0  0  0  0  0  0  0  0
    2.3091    0.0132    0.0000 C   0  0  0  0  0  0  0  0  0  0  0  0
    3.5540   -0.8235    0.0000 C   0  0  0  0  0  0  0  0  0  0  0  0
    4.9011   -0.1637    0.0000 C   0  0  0  0  0  0  0  0  0  0  0  0
    6.1461   -1.0005    0.0000 C   0  0  0  0  0  0  0  0  0  0  0  0
    7.4932   -0.3407    0.0000 C   0  0  0  0  0  0  0  0  0  0  0  0
    7.5954    1.1558    0.0000 C   0  0  0  0  0  0  0  0  0  0  0  0
    8.9425    1.8156    0.0000 C   0  0  0  0  0  0  0  0  0  0  0  0
   10.1874    0.9789    0.0000 C   0  0  0  0  0  0  0  0  0  0  0  0
   10.0852   -0.5176    0.0000 C   0  0  0  0  0  0  0  0  0  0  0  0
    8.7381   -1.1774    0.0000 C   0  0  0  0  0  0  0  0  0  0  0  0
  1  2  1  0
  2  3  1  0
  3  4  2  0
  3  5  1  0
  5  6  1  0
  6  7  1  0
  7  8  1  0
  8  9  1  0
  9 10  1  0
 10 11  1  0
 11 12  1  0
 12 13  1  0
 13 14  1  0
 14 15  1  0
 15 16  1  0
 16 17  1  0
 17 18  2  0
 18 19  1  0
 19 20  2  0
 20 21  1  0
 21 22  2  0
 22 17  1  0
M  END
>  <identifier>  (805) 
CNP0292439.0

>  <canonical_smiles>  (805) 
COC(=O)CCCCCCCCCCCCC1=CC=CC=C1

>  <standard_inchi>  (805) 
InChI=1S/C20H32O2/c1-22-20(21)18-14-9-7-5-3-2-4-6-8-11-15-19-16-12-10-13-17-19/h10,12-13,16-17H,2-9,11,14-15,18H2,1H3

>  <standard_inchi_key>  (805) 
JWVDZXNFGDETQE-UHFFFAOYSA-N

>  <name>  (805) 
methyl 13-phenyltridecanoate

>  <iupac_name>  (805) 
methyl 13-phenyltridecanoate

>  <annotation_level>  (805) 
5

>  <total_atom_count>  (805) 
54

>  <heavy_atom_count>  (805) 
22

>  <molecular_weight>  (805) 
304.47

>  <exact_molecular_weight>  (805) 
304.24023

>  <molecular_formula>  (805) 
C20H32O2

>  <alogp>  (805) 
5.69

>  <topological_polar_surface_area>  (805) 
26.30

>  <rotatable_bond_count>  (805) 
13

>  <hydrogen_bond_acceptors>  (805) 
2

>  <hydrogen_bond_donors>  (805) 
0

>  <hydrogen_bond_acceptors_lipinski>  (805) 
2

>  <hydrogen_bond_donors_lipinski>  (805) 
0

>  <lipinski_rule_of_five_violations>  (805) 
1

>  <aromatic_rings_count>  (805) 
1

>  <qed_drug_likeliness>  (805) 
0.35

>  <formal_charge>  (805) 
0

>  <fractioncsp3>  (805) 
0.65

>  <number_of_minimal_rings>  (805) 
1

>  <van_der_walls_volume>  (805) 
327.55

>  <contains_sugar>  (805) 
False

>  <contains_ring_sugars>  (805) 
False

>  <contains_linear_sugars>  (805) 
False

>  <murcko_framework>  (805) 
c1ccccc1

>  <np_likeness>  (805) 
0.11

>  <chemical_class>  (805) 
Fatty Acyls

>  <chemical_sub_class>  (805) 
Fatty acid esters

>  <chemical_super_class>  (805) 
Lipids and lipid-like molecules

>  <direct_parent_classification>  (805) 
Fatty acid methyl esters

>  <np_classifier_pathway>  (805) 
Fatty acids

>  <np_classifier_superclass>  (805) 
Fatty Acids and Conjugates

>  <np_classifier_class>  (805) 
Carbocyclic fatty acids

>  <np_classifier_is_glycoside>  (805) 
False

>  <organisms>  (805) 
Trichilia claussenii|Typhonium flagelliforme

>  <collections>  (805) 
Latin America dataset|Marine Natural Products|NuBBEDB|UNPD (Universal Natural Products Database)|WikiData Natural Products|ZINC NP

>  <dois>  (805) 
10.1016/0031-9422(95)00969-8|10.1055/S-2006-957778

>  <synonyms>  (805) 
123953-55-9|DTXSID10599975|Methyl 13-phenyl-tridecanoate|SCHEMBL9404041|phenyl tridecanoic acid methyl ester

>  <cas>  (805) 
nan

$$$$

     RDKit          2D

 12 12  0  0  0  0  0  0  0  0999 V2000
    0.2045   -3.3502    0.0000 C   0  0  0  0  0  0  0  0  0  0  0  0
    0.8488   -1.9956    0.0000 O   0  0  0  0  0  0  0  0  0  0  0  0
   -0.0021   -0.7603    0.0000 C   0  0  0  0  0  0  0  0  0  0  0  0
   -1.4973   -0.8796    0.0000 C   0  0  0  0  0  0  0  0  0  0  0  0
   -2.3482    0.3557    0.0000 C   0  0  0  0  0  0  0  0  0  0  0  0
   -3.8435    0.2364    0.0000 C   0  0  0  0  0  0  0  0  0  0  0  0
   -1.7039    1.7103    0.0000 C   0  0  0  0  0  0  0  0  0  0  0  0
   -0.2086    1.8295    0.0000 C   0  0  0  0  0  0  0  0  0  0  0  0
    0.6423    0.5942    0.0000 C   0  0  0  0  0  0  0  0  0  0  0  0
    2.1375    0.7135    0.0000 C   0  0  0  0  0  0  0  0  0  0  0  0
    2.9884   -0.5218    0.0000 C   0  0  0  0  0  0  0  0  0  0  0  0
    2.7819    2.0680    0.0000 C   0  0  0  0  0  0  0  0  0  0  0  0
  1  2  1  0
  2  3  1  0
  3  4  2  0
  4  5  1  0
  5  6  1  0
  5  7  2  0
  7  8  1  0
  8  9  2  0
  9 10  1  0
 10 11  1  0
 10 12  1  0
  9  3  1  0
M  END
>  <identifier>  (806) 
CNP0280563.0

>  <canonical_smiles>  (806) 
COC1=CC(C)=CC=C1C(C)C

>  <standard_inchi>  (806) 
InChI=1S/C11H16O/c1-8(2)10-6-5-9(3)7-11(10)12-4/h5-8H,1-4H3

>  <standard_inchi_key>  (806) 
LSQXNMXDFRRDSJ-UHFFFAOYSA-N

>  <name>  (806) 
1076-56-8

>  <iupac_name>  (806) 
1-isopropyl-2-methoxy-4-methyl-benzene

>  <annotation_level>  (806) 
5

>  <total_atom_count>  (806) 
28

>  <heavy_atom_count>  (806) 
12

>  <molecular_weight>  (806) 
164.25

>  <exact_molecular_weight>  (806) 
164.12012

>  <molecular_formula>  (806) 
C11H16O

>  <alogp>  (806) 
3.13

>  <topological_polar_surface_area>  (806) 
9.23

>  <rotatable_bond_count>  (806) 
2

>  <hydrogen_bond_acceptors>  (806) 
1

>  <hydrogen_bond_donors>  (806) 
0

>  <hydrogen_bond_acceptors_lipinski>  (806) 
1

>  <hydrogen_bond_donors_lipinski>  (806) 
0

>  <lipinski_rule_of_five_violations>  (806) 
0

>  <aromatic_rings_count>  (806) 
1

>  <qed_drug_likeliness>  (806) 
0.65

>  <formal_charge>  (806) 
0

>  <fractioncsp3>  (806) 
0.46

>  <number_of_minimal_rings>  (806) 
1

>  <van_der_walls_volume>  (806) 
174.38

>  <contains_sugar>  (806) 
False

>  <contains_ring_sugars>  (806) 
False

>  <contains_linear_sugars>  (806) 
False

>  <murcko_framework>  (806) 
c1ccccc1

>  <np_likeness>  (806) 
-0.38

>  <chemical_class>  (806) 
Prenol lipids

>  <chemical_sub_class>  (806) 
Monoterpenoids

>  <chemical_super_class>  (806) 
Lipids and lipid-like molecules

>  <direct_parent_classification>  (806) 
Aromatic monoterpenoids

>  <np_classifier_pathway>  (806) 
Terpenoids

>  <np_classifier_superclass>  (806) 
Monoterpenoids

>  <np_classifier_class>  (806) 
Menthane monoterpenoids

>  <np_classifier_is_glycoside>  (806) 
False

>  <organisms>  (806) 
Abies sachalinensis var. mayriana|Abies sibirica|Abrus precatorius|Acacia armata|Achillea pannonica|Achillea spinulifolia|Adonis sutchuenensis|Allium waldsteinii|Alloascoidea hylecoeti|Alluaudia dumosa|Alnus incana|Aloe ferox|Alpinia breviligulata|Ambrosia hispida|Amphimedon terpenensis|Annulusmagnus triseptatus|Anthocercis genistoides|Aphanamixis polystachya|Apium leptophyllum|Arabidopsis thaliana|Argylia radiata|Armillaria tabescens|Arnica montana|Asarum asperum|Asarum canadense|Asarum celsum|Asarum dilatatum|Asarum hatushimae|Asarum heterotropoides|Asarum sieboldii|Asarum trigynum|Asclepias speciosa|Ascocoryne sarcoides|Asiasarum heterotropoides|Asiasarum sieboldii|Aster batangensis|Astilbe odontophylla|Astragalus ernestii|Astragalus onobrychis|Atractylodes chinensis|Atractylodes lancea|Baeckea crenulata|Barbarea vulgaris subsp. arcuata|Berneuxia thibetica|Bidens andicola|Bidens bipinnata|Bishovia boliviensis|Bongardia chrysogonum|Brassica juncea|Briareum asbestinum|Bunodosoma caissarum|Bupleurum chinense|Bupleurum falcatum|Bupleurum scorzonerifolium|Byssochlamys fulva|Cacalia pilgeriana|Calea clematidea|Calea harleyi|Calea oxylepis|Calea pilosa|Callicarpa bodinieri|Citrus aurantiifolia|Citrus reticulata|Citrus spp.|Citrus unshiu|Citrus × deliciosa|Cladogynos orientalis|Clusia ellipticifolia|Conobea scoparioides|Conocliniopsis prasiifolia|Corydalis flabellata|Crithmum maritimum|Crocus asturicus|Croton eluteria|Cryptocarya triplinervis|Cupressus arizonica|Cyathocline purpurea|Cyclospermum leptophyllum|Cyerce cristallina|Cyperus erectus|Cyrtanthus obliquus|Daucus carota|Dichapetalum madagascariense|Diospyros crassiflora|Doriopsilla albopunctata|Dumoria heckeli|Durio kutejensis|Echites hirsuta|Elizabethkingia meningoseptica|Epimedium versicolor|Eragrostis curvula|Erica carnea|Erythrostemon gilliesii|Eupatorium Fortunei|Eupatorium capillifolium|Eupatorium fortunei|Eupatorium pauciflorum|Euphorbia officinarum subsp. echinus|Foeniculum vulgare|Fritillaria meleagris|Fritillaria raddeana|Fumago vagans|Garcinia multiflora|Gelonium aequoreum|Gnetum montanum|Goniothalamus tamirensis|Hamamelistes betulae|Hansenia forbesii|Hansenia weberbaueriana|Helenium alternifolium|Helichrysum acutatum|Helicoverpa zea|Helvella esculenta|Hemizonia congesta|Heterotropa|Houttuynia cordata|Huperzia lucidula|Hydnocarpus venenata|Hypericum perforatum|Hyptis pectinata|Isophysis tasmanica|Juniperus durangensis|Juniperus jaliscana|Justicia ghiesbreghtiana|Laggera alata|Laggera pterodonta|Larix gmelinii var. gmelinii|Larix gmelinii var. olgensis|Larix sibirica|Lavandula angustifolia|Lecanora nipponica|Lindera aggregata|Lindera strichnifolia|Linzia glabra|Lippia alnifolia|Lippia grata|Lippia origanoides|Lippia sidoides|Lonchocarpus laxiflorus|Lonicera tatarica var. morrowii|Lycopodium casuarinoides|Lysimachia clethroides|Macleaya cordata|Mallotus stenanthus|Mangifera indica|Manilkara hexandra|Mantella aurantiaca|Matricaria matricarioides|Medicago truncatula|Mesosphaerum pectinatum|Metasequoia glyptostroboides|Metopium brownei|Mimosa tenuiflora|Moringa aptera|Moringa stenopetala|Mosla dianthera|Mourera fluviatilis|Murraya exotica|Murraya paniculata|Mutisia orbignyana|Mycale cecilia|Nardostachys jatamansi|Nepeta cataria|Ocimum basilicum|Odontites vernus subsp. serotinus|Origanum adanense|Origanum intercedens|Origanum sipyleum|Origanum vulgare|Orthodon hadai|Ostericum grosseserratum|Paeonia delavayi|Panax ginseng|Panax notoginseng|Parmelia pseudoreticulata|Penstemon mucronatus|Pericarpium citri reticulatae|Perilla frutescens|Petasites Japonicus|Petasites albus|Petasites hybridus|Petasites japonicus|Phaulopsis imbricata|Physcia aegialita|Picea abies|Picea koraiensis|Picea schrenkiana|Pimenta racemosa|Pinus sibirica|Piper sintenense|Plantago lundborgii|Polyopes affinis|Porophyllum ruderale|Psidium guajava|Pteris palmiformis|Pulicaria dysenterica|Pyura sacciformis|Rhodiola quadrifida|Ricciocarpos natans|Saccharopolyspora hirsuta|Sambucus nigra|Sapium sebiferum|Sarcophyton glaucum|Schisandra Chinensis|Schisandra chinensis|Scutellaria nepetoides|Scutellaria violacea|Senecio elegans|Senegalia tenuifolia|Senna sophera|Sideritis arborescens|Sideritis kuegleriana|Solanum pseudoquina|Sphagnum rubellum|Spirastrella inconstans|Stellaria delavayi|Stemona saxorum|Stevia satureiaefolia|Stillingia sanguinolenta|Stilpnopappus pickelii|Streptomyces ehimensis|Streptomyces inusitatus|Syringa komarowi|Tethya amamensis|Tetraclinis articulata|Teucrium trifidum|Thalictrum fortunei|Thermotoga maritima|Thymus|Thymus kosteletzkyanus|Thymus marschallianus|Thymus nummularius|Thymus pannonicus|Thymus quinquecostatus|Thymus vulgaris|Trapa bispinosa|Uncaria glabrata|Uvaria chamae|Valeriana jatamansi|Valeriana officinalis|Vernonia arbor|Viburnum fur|Westiella intricata|Zataria multiflora

>  <collections>  (806) 
ANPDB|Australian natural products|CMAUP (cCollective molecular activities of useful plants)|EMNPD|FooDB|KNApSaCK|Latin America dataset|NANPDB (Natural Products from Northern African Sources)|NPASS|NPEdia|NuBBEDB|Phyto4Health|Super Natural II|TCMDB-Taiwan (Traditional Chinese Medicine database)|TCMID (Traditional Chinese Medicine Integrated Database)|UNPD (Universal Natural Products Database)|VietHerb|WikiData Natural Products

>  <dois>  (806) 
10.1002/(SICI)1099-1026(199911/12)14:6<393::AID-FFJ849>3.0.CO;2-5|10.1002/1099-1026(200005/06)15:3<186::AID-FFJ889>3.0.CO;2-I|10.1002/1099-1026(200011/12)15:6<413::AID-FFJ931>3.0.CO;2-H|10.1002/ARDP.19632960502|10.1002/ARDP.19632960602|10.1002/ARDP.19662990514|10.1002/CBDV.201100059|10.1002/CBDV.201800531|10.1002/FFJ.1175|10.1002/FFJ.2730050307|10.1002/FFJ.2730060205|10.1002/FFJ.2730060307|10.1002/FFJ.2730100317|10.1002/JSSC.200800341|10.1002/JSSC.201000192|10.1002/PCA.674|10.1002/PS.2180|10.1002/PTR.2650040210|10.1007/BF00567053|10.1007/BF00567284|10.1007/BF00570218|10.1007/BF00574829|10.1007/BF00579141|10.1007/BF00579988|10.1007/BF00580109|10.1007/BF00600859|10.1007/BF00600860|10.1007/BF00638774|10.1016/0031-9422(79)80147-8|10.1016/0031-9422(80)80218-4|10.1016/0031-9422(81)85166-7|10.1016/0031-9422(83)80242-8|10.1016/0031-9422(88)84114-1|10.1016/0305-1978(93)90031-L|10.1016/J.BSE.2010.01.009|10.1016/J.JEP.2012.11.045|10.1016/J.JPLPH.2018.10.006|10.1016/S0021-9673(00)00231-4|10.1016/S0031-9422(00)82443-7|10.1016/S0031-9422(00)82616-3|10.1016/S0031-9422(00)83114-3|10.1016/S0031-9422(00)86705-9|10.1016/S0925-5214(02)00250-8|10.1016/j.bse.2007.05.009|10.1016/s0031-9422(00)86705-9|10.1021/JF00026A027|10.1021/JF00065A004|10.1021/JF030212Q|10.1021/JF301835V|10.1021/NP0101191|10.1021/NP50017A018|10.1021/NP50040A037|10.1021/NP50044A039|10.1021/np50017a018|10.1055/S-0028-1097609|10.1055/S-0028-1099547|10.1055/S-0028-1100098|10.1055/S-2000-9773|10.1055/S-2003-37024|10.1055/S-2006-962016|10.1055/S-2006-962540|10.1071/CH9690495|10.1071/ch9690495|10.1080/10412905.1991.9697950|10.1080/10412905.1991.9697952|10.1080/10412905.1992.9698035|10.1080/10412905.1993.9698195|10.1080/10412905.1994.9698433|10.1080/10412905.1996.9700567|10.1080/10412905.1997.9700727|10.1080/10412905.1998.9700844|10.1080/10412905.1999.9701080|10.1080/10412905.2000.9699524|10.1080/10412905.2000.9699569|10.1246/NIKKASHI.1973.775|10.1246/NIKKASHI1921.65.166|10.1248/YAKUSHI1947.107.3_209|10.1248/YAKUSHI1947.107.3_219|10.1365/S10337-008-0921-Y|10.1515/ZNB-1999-0616|10.1515/ZNC-1984-7-803|10.3390/MOLECULES15096411|10.3390/MOLECULES200610298|10.3390/MOLECULES21060814|10.5897/JMPR10.078

>  <synonyms>  (806) 
1-Isopropyl-2-methoxy-4-methylbenzene|1-Isopropyl-2-methoxy-4-methylbenzene, analytical standard|1-METHYL-3-METHOXY-4-ISOPROPYL BENZENE [FHFI]|1-Methyl-3-methoxy-4-isopropylbenzene|2-ISO PROPYL-5-METHYLANISOLE|2-Isopropyl-5-methylanisole|2-Methoxy-4-methyl-1-(1-methylethyl)benzene|2-methoxy-4-methyl-1-propan-2-ylbenzene|3-METHOXY-PARA-CYMENE|3-Methoxy-p-cymene|4-06-00-03335 (Beilstein Handbook Reference)|4-Isopropyl-3-methoxytoluene|AI3-03431|AKOS015914183|ANISOLE, 2-ISOPROPYL-5-METHYL-|BDBM248170|BRN 2042889|Benzene, 2-methoxy-4-methyl-1-(1-methylethyl)-|CAS-1076-56-8|CHEBI:167336|CHEMBL2424841|CS-0335474|D91215|DTXCID3027617|DTXSID5047617|EINECS 214-063-9|FEMA No. 3436|Fema3436|I0996|LS-13985|MFCD01674973|Methyl THYMYL oxide|Methyl thymyl ether|Methylthymol, o-|NCGC00256877-01|NS00012741|NSC-404221|O-Methylthymol|Q27292012|SCHEMBL196752|Thymol derivative, 21|Thymol methyl|Thymol methyl ether|Thymol methyl ether (= methyl thymol)|Tox21_302575|UNII-VTE0C4390U|VTE0C4390U|methylthymol|para-methoxy thymol|starbld0009587|thymol Me ether|thymyl methyl oxide

>  <cas>  (806) 
1076-56-8

$$$$

     RDKit          2D

 21 23  0  0  0  0  0  0  0  0999 V2000
   -7.0816    1.4977    0.0000 C   0  0  0  0  0  0  0  0  0  0  0  0
   -6.4377    0.1430    0.0000 O   0  0  0  0  0  0  0  0  0  0  0  0
   -4.9425    0.0233    0.0000 C   0  0  0  0  0  0  0  0  0  0  0  0
   -4.0912    1.2583    0.0000 C   0  0  0  0  0  0  0  0  0  0  0  0
   -2.5960    1.1386    0.0000 C   0  0  0  0  0  0  0  0  0  0  0  0
   -1.9520   -0.2161    0.0000 C   0  0  0  0  0  0  0  0  0  0  0  0
   -0.4568   -0.3358    0.0000 C   0  0  0  0  0  0  0  0  0  0  0  0
    0.1871   -1.6905    0.0000 C   0  0  0  0  0  0  0  0  0  0  0  0
    1.6824   -1.8102    0.0000 C   0  0  0  0  0  0  0  0  0  0  0  0
    2.3263   -3.1649    0.0000 O   0  0  0  0  0  0  0  0  0  0  0  0
    2.5336   -0.5751    0.0000 C   0  0  0  0  0  0  0  0  0  0  0  0
    4.0288   -0.6948    0.0000 C   0  0  0  0  0  0  0  0  0  0  0  0
    4.6728   -2.0496    0.0000 O   0  0  0  0  0  0  0  0  0  0  0  0
    4.8801    0.5402    0.0000 C   0  0  0  0  0  0  0  0  0  0  0  0
    4.2361    1.8950    0.0000 C   0  0  0  0  0  0  0  0  0  0  0  0
    5.0874    3.1300    0.0000 O   0  0  0  0  0  0  0  0  0  0  0  0
    2.7409    2.0147    0.0000 C   0  0  0  0  0  0  0  0  0  0  0  0
    1.8897    0.7796    0.0000 C   0  0  0  0  0  0  0  0  0  0  0  0
    0.3944    0.8993    0.0000 O   0  0  0  0  0  0  0  0  0  0  0  0
   -2.8033   -1.4511    0.0000 C   0  0  0  0  0  0  0  0  0  0  0  0
   -4.2985   -1.3315    0.0000 C   0  0  0  0  0  0  0  0  0  0  0  0
  1  2  1  0
  2  3  1  0
  3  4  2  0
  4  5  1  0
  5  6  2  0
  6  7  1  0
  7  8  2  0
  8  9  1  0
  9 10  2  0
  9 11  1  0
 11 12  2  0
 12 13  1  0
 12 14  1  0
 14 15  2  0
 15 16  1  0
 15 17  1  0
 17 18  2  0
 18 19  1  0
  6 20  1  0
 20 21  2  0
 21  3  1  0
 19  7  1  0
 18 11  1  0
M  END
>  <identifier>  (807) 
CNP0248340.0

>  <canonical_smiles>  (807) 
COC1=CC=C(C2=CC(=O)C3=C(O)C=C(O)C=C3O2)C=C1

>  <standard_inchi>  (807) 
InChI=1S/C16H12O5/c1-20-11-4-2-9(3-5-11)14-8-13(19)16-12(18)6-10(17)7-15(16)21-14/h2-8,17-18H,1H3

>  <standard_inchi_key>  (807) 
DANYIYRPLHHOCZ-UHFFFAOYSA-N

>  <name>  (807) 
acacetin

>  <iupac_name>  (807) 
5,7-dihydroxy-2-(4-methoxyphenyl)chromen-4-one

>  <annotation_level>  (807) 
5

>  <total_atom_count>  (807) 
33

>  <heavy_atom_count>  (807) 
21

>  <molecular_weight>  (807) 
284.27

>  <exact_molecular_weight>  (807) 
284.06847

>  <molecular_formula>  (807) 
C16H12O5

>  <alogp>  (807) 
2.88

>  <topological_polar_surface_area>  (807) 
79.90

>  <rotatable_bond_count>  (807) 
2

>  <hydrogen_bond_acceptors>  (807) 
5

>  <hydrogen_bond_donors>  (807) 
2

>  <hydrogen_bond_acceptors_lipinski>  (807) 
5

>  <hydrogen_bond_donors_lipinski>  (807) 
2

>  <lipinski_rule_of_five_violations>  (807) 
0

>  <aromatic_rings_count>  (807) 
3

>  <qed_drug_likeliness>  (807) 
0.76

>  <formal_charge>  (807) 
0

>  <fractioncsp3>  (807) 
0.06

>  <number_of_minimal_rings>  (807) 
3

>  <van_der_walls_volume>  (807) 
239.22

>  <contains_sugar>  (807) 
False

>  <contains_ring_sugars>  (807) 
False

>  <contains_linear_sugars>  (807) 
False

>  <murcko_framework>  (807) 
O1c2ccccc2CC=C1c3ccccc3

>  <np_likeness>  (807) 
1.12

>  <chemical_class>  (807) 
Flavonoids

>  <chemical_sub_class>  (807) 
O-methylated flavonoids

>  <chemical_super_class>  (807) 
Phenylpropanoids and polyketides

>  <direct_parent_classification>  (807) 
4'-O-methylated flavonoids

>  <np_classifier_pathway>  (807) 
Shikimates and Phenylpropanoids

>  <np_classifier_superclass>  (807) 
Flavonoids

>  <np_classifier_class>  (807) 
Flavones

>  <np_classifier_is_glycoside>  (807) 
False

>  <organisms>  (807) 
Achillea eriophora|Acrocarpia paniculata|Adenia globosa|Afrocarpus gracilior|Agastache cusickii|Agastache foeniculum|Agastache nepetoides|Agastache occidentalis|Agastache parvifolia|Agastache rugosa|Agastache rugosus|Agastache scrophulariifolia|Agastache urticifolia|Agave xylonacantha|Ageratina altissima|Aglaia grandis|Agrostophyllum brevipes|Ajuga forrestii|Alangium ridleyi|Alnus glutinosa|Alnus japonica|Amaranthus hypochondriacus|Ammi sp.|Amphilophis odorata|Amsonia grandiflora|Anaphalis araneosa|Anaxagorea prinoides|Anoda cristata|Anodendron affine|Anthemis cretica|Antiphiona pinnatisecta|Apis mellifera|Apis mellifera ligustica|Aplysia vaccaria|Aquilaria sinensis|Arabidopsis thaliana|Arctotheca calendula|Argyrochosma nivea|Aria rostellata|Arnica amplexicaulis|Arnica chamissonis|Arnica parryi|Artemisia afra|Artemisia diffusa|Artemisia gmelinii|Artemisia herba-alba|Artemisia iwayomogi|Artemisia judaica|Artemisia kurramensis|Artemisia minor|Artemisia molinieri|Artemisia monosperma|Artemisia oliveriana|Artemisia pontica|Artemisia princeps|Artemisia transiliensis|Artemisia vestita|Asphodeline globifera|Asphodelus tenuifolius|Baccharis dracunculifolia|Baccharis gillesii|Baccharis grandicapitulata|Baccharis patagonica|Baccharis rhomboidalis|Baccharis salicifolia|Baccharis vaccinioides|Bahiopsis reticulata|Balsamorhiza deltoidea|Berberis repens|Betula pendula|Betula pubescens|Bhesa nitidissima|Biebersteinia orphanidis|Bitter bush|Bjerkandera adusta|Boletus bovinus|Boswellia carterii|Breea segeta|Buddleja davidii|Buddleja officinalis|Calceolaria irazuensis|Calea berteriana|Calea divaricata|Calea jamaicensis|Calea prunifolia|Calea septuplinervia|Calea solidaginea|Calea ternifolia|Calea urticifolia|Callicarpa pilosissima|Calophyllum inophyllum|Calycanthus floridus|Capsicum annuum|Caragana frutex|Carcinus maenas|Carthamus tinctorius|Catunaregam tomentosa|Cedrela salvadorensis|Centaurea cuneifolia|Centaurea hyalolepis|Centaurea pallescens|Cereus stellatus|Choriaster granulatus|Chromolaena farinosa|Chromolaena hirsuta|Chromolaena subhastata|Chrozophora brocchiana|Chrozophora obliqua|Chrozophora plicata|Chrozophora rottleri|Chrozophora tinctoria|Chrozophora verbascifolia|Chrysanthemum  zawadskii|Chrysanthemum boreale|Chrysanthemum indicum|Chrysanthemum lavandulifolium|Chrysanthemum leucanthemum|Chrysanthemum morifolium|Chrysanthemum sinense|Chrysanthemum x morifolium|Chrysothamnus nauseosus|Cirsium japonicum|Cirsium oleraceum|Cirsium rhinoceros|Cirsium setosum|Cis punctifer|Cistus creticus|Cistus ladanifer|Cistus laurifolius|Citrus reticulata|Citrus unshiu|Citrus wilsonii|Citrus × deliciosa|Clathria basilana|Colletotrichum gloeosporioides|Combretum afrum|Coprinopsis atramentaria|Crematogaster brevis|Crocus heuffelianus|Crocus laevigatus|Crotalaria laburnifolia|Croton laccifer|Cunila lythrifolia|Cyphus niveus|Danae racemosa|Daphniphyllum calycinum|Deltocyathus magnificus|Dendranthema morifolium|Dendranthema sp.|Dendrilla cavernosa|Dendrobates truncatus|Dendroctonus frontalis|Desmodium styracifolium|Dianthus caryophyllus|Dioscorea gracillima|Diphasiastrum thyoides|Dracocephalum multicaule|Dracocephalum peregrinum|Dysophylla stellata|Echium rubrum|Eichhornia crassipes|Elaeagnus orientalis|Elsholtzia bodinieri|Elsholtzia ciliata|Enicosanthum cupulare|Entada africana|Entada polystachya|Episcia cupreata|Eremophila georgei|Ericameria nauseosa var. nauseosa|Eriodictyon sessilifolium|Eucryphia|Eupatorium hookerianum|Eupatorium tinifolium|Euphorbia myrsinites|Fagara naranjillo|Foeniculum vulgare|Fomes robiniae|Fouquieria splendens|Fridericia chica|Fructus leonuri|Frullania teneriffae|Fuligo candida|Fumaria indica|Garcinia cambogia|Garcinia cowa|Garcinia gummi-gutta|Garcinia kola|Garcinia nervosa|Ginkgo biloba|Glechoma grandis|Glechoma longituba|Grindelia camporum|Grindelia hirsutula|Gymnocarpium robertianum|Gymnothorax javanicus|Hazunta membranacea|Hedysarum denticulatum|Helichrysum nitens|Helicoverpa armigera|Helicteres angustifolia|Hendersonula toruloidea|Herba cirsii japonici|Herba seu radix cirsii japonici|Hertia cheirifolia|Heteroplexis microcephala|Hippeastrum papilio|Humulus lupulus|Hydrocotyle ranunculoides|Hygrophorus chrysodon|Hypericum aucheri|Hypericum hirsutum|Iberis sempervirens|Impatiens edgeworthii|Indigofera tetrantha|Inula salsoloides|Iostephane madrensis|Ipomoea pes-caprae|Ips confusus|Isodon sculponeatus|Jasonia candicans|Laurencia composita|Laurencia decumbens|Lavandula sp.|Leucas Aspera|Leucas aspera|Leuconostoc mesenteroides|Licaria chrysophylla|Ligularia songarica|Limnocharis flava|Linaria aeruginea|Linaria kokanica|Linaria kurdica|Linaria macroura|Linaria sessilis|Liriodendron tulipifera|Lupinus subcarnosus|Lupinus texensis|Lychnophora ericoides|Lychnophora rupestris|Lycium barbarum|Lycium chinense|Lycopodium japonicum|Lycopus asper|Lycopus lucidus|Lygodium japonicum|Lysimachia paridiformis|Maackia tashiroi|Madia anomala|Madia citrigracilis|Meehania fargesii|Melampodium argophyllum|Melampodium camphoratum|Melanothamnus afaqhusainii|Meloidogyne incognita|Menisporopsis theobromae|Mentha Aquatica|Mentha aquatica|Mentha arvensis|Mentha canadensis|Mentha longifolia|Mentha piperita|Mentha spicata|Microglossa pyrifolia|Micromeria cristata|Micromeria croatica|Micromeria graeca|Micromeria juliana|Micromeria parviflora|Micromeria pseudocroatica|Millettia ferruginea|Mimulus pilosus|Mirabilis viscosa|Monomeria barbata|Mosla chinensis|Mosla scabra|Notholaena greggii|Notholaena rigida|Notholaena rosei|Nuxia sphaerocephala|Ocimum americanum|Ocimum americanum L.var.pilosum (Willd.) Paton|Ocimum basilicum L.|Ocimum x citriodorum Vis.|Ocimum × africanum|Odontites viscosus|Onopordum corymbosum|Onopordum illyricum|Onopordum laconicum|Onopordum macrocanthum|Ormosia hosiei|Ornithoglossum viride|Ostrya japonica|Othonna sedifolia|Ozothamnus obcordatus|Panzerina lanata|Parnassius phoebus|Pertusaria truncata|Petasites laevigatus|Phlomoides rotata|Picea neoveitchii|Piper guanacostense|Plagiocheilus prostratus|Platycladus orientalis|Plazia daphnoides|Plectranthus nummularius|Pocillopora eydouxi|Podocarpus fasciculus|Pogostemon cablin|Pogostemon stellatus|Polypodium decumanum|Polyporus dryadeus|Populus grandidentata|Populus tremula|Populus tremuloides|Pseudocyclosorus subochthodes|Pseudostellaria heterophylla|Pseuduvaria indochinensis|Psydrax livida|Ptarmica ptarmicifolia|Pteraster multipes|Pteris setuloso-costulata|Pterocarpus officinalis|Puccinia coronata|Quercus pedunculata|Radix cirsii japonici|Radix pseudostellariae|Ranzania japonica|Retiboletus ornatipes|Rhabdonia verticillata|Rhizophagus intraradices|Robinia pseudoacacia|Roemeria carica|Rothmannia wittii|Rubia tetragona|Ruta graveolens|Salvia dorrii|Salvia nicolsoniana|Salvia officinalis|Salvia sclarea|Salvia yosgadensis|Satureja odora|Schizanthus tricolor|Schumanniophyton magnificum|Scoparia Dulcis|Scoparia dulcis|Scoparia dulcis L.|Scutellaria baicalensis|Sedum litoreum|Senecio nemorensis|Senecio viscosus|Serratula cichoracea|Sphaeranthus confertifolius|Spongia officinalis|Streptomyces bobili|Streptomyces coeruleorubidus|Streptomyces tsukubensis|Streptomyces vinaceusdrappus|Striga asiatica|Tanacetum sp.|Tanacetum vulgare|Tasmannia lanceolata|Tetrapanax papyrifer|Tetraria capillaris|Teucrium asiaticum|Teucrium japonicum|Teucrium sp.|Thermopsis dolichocarpa|Thiocystis gelatinosa|Tolypothrix tenuis|Trichomanes reptans|Tricostularia neesii|Trifolium repens|Turnera diffusa|Urceolaria scruposa|Valeriana cardamines|Valeriana chionophila|Valeriana eriophylla|Valeriana fedtschenkoi|Valeriana ficariifolia|Veratrum dahuricum|Verbascum lychnites|Verbascum lychnitis|Vernonia fruticulosa|Vernonia lanuginosa|Vicia amurensis|Vitex limonifolia|Vitex polygama|Volkameria inermis|Wyethia mollis|Xanthorrhoea australis|Xylosalsola arbuscula|Zanthoxylum fraxineum|Zanthoxylum myriacanthum|Ziziphora clinopodioides|basil|combretum caffrum|corn mint|water mint

>  <collections>  (807) 
ANPDB|AfroDB|AfroMalariaDB|Australian natural products|BIOFACQUIM|CMAUP (cCollective molecular activities of useful plants)|ChEBI NPs|ConMedNP|ETM (Ethiopian Traditional Medicine) DB|FooDB|GNPS (Global Natural Products Social Molecular Networking)|HIM (Herbal Ingredients in-vivo Metabolism database)|HIT (Herbal Ingredients Targets)|InPACdb|KNApSaCK|Latin America dataset|Mitishamba database|NANPDB (Natural Products from Northern African Sources)|NPACT|NPASS|NPCARE|NPEdia|NuBBEDB|Phyto4Health|PhytoLab phyproof® Reference Substances|PubChem NPs|ReSpect|SANCDB|Super Natural II|TCMDB-Taiwan (Traditional Chinese Medicine database)|TCMID (Traditional Chinese Medicine Integrated Database)|TIPdb (database of Taiwan indigenous plants)|UEFS (Natural Products Databse of the UEFS)|UNPD (Universal Natural Products Database)|VietHerb|WikiData Natural Products|ZINC NP

>  <dois>  (807) 
10.1002/(SICI)1099-1565(200003/04)11:2<69::AID-PCA499>3.0.CO;2-Y|10.1002/CHIN.200047189|10.1002/HLCA.201000195|10.1002/J.1537-2197.1996.TB13914.X|10.1002/PTR.1066|10.1007/BF00564831|10.1007/BF00568249|10.1007/BF00569015|10.1007/BF00577211|10.1007/BF00579496|10.1007/BF00579782|10.1007/BF00579788|10.1007/BF00595086|10.1007/BF00597817|10.1007/BF00599014|10.1007/BF00630447|10.1007/BF00779271|10.1007/BF02857780|10.1007/BF02976657|10.1007/BF02979135|10.1007/BF02980123|10.1007/S10600-007-0208-9|10.1007/S10600-007-0232-9|10.1007/S10600-007-0233-8|10.1007/S10600-010-9461-4|10.1007/S10600-011-9904-6|10.1007/S10600-011-9906-4|10.1007/S10600-015-1519-X|10.1007/S12272-013-0015-8|10.1016/0021-9673(94)89051-X|10.1016/0031-9422(74)85049-1|10.1016/0031-9422(85)80028-5|10.1016/0031-9422(86)80020-6|10.1016/0031-9422(88)80695-2|10.1016/0031-9422(89)80041-X|10.1016/0031-9422(90)85131-X|10.1016/0031-9422(90)85302-V|10.1016/0031-9422(91)80120-P|10.1016/0031-9422(91)83494-6|10.1016/0031-9422(92)80186-I|10.1016/0031-9422(92)83268-4|10.1016/0031-9422(93)85457-3|10.1016/0031-9422(94)00945-P|10.1016/0031-9422(96)00041-6|10.1016/0305-1978(84)90067-X|10.1016/0305-1978(87)90107-4|10.1016/0305-1978(89)90096-3|10.1016/0305-1978(90)90051-G|10.1016/0305-1978(91)90084-D|10.1016/0305-1978(91)90088-H|10.1016/0305-1978(91)90099-L|10.1016/0305-1978(94)90119-8|10.1016/0305-1978(95)00080-1|10.1016/0378-8741(84)90075-8|10.1016/0734-9750(93)90042-L|10.1016/J.BSE.2014.12.019|10.1016/J.FCT.2016.02.009|10.1016/J.FITOTE.2009.06.007|10.1016/J.FITOTE.2009.07.004|10.1016/J.FITOTE.2009.12.005|10.1016/J.FITOTE.2011.11.023|10.1016/J.FOODCHEM.2019.125629|10.1016/J.JEP.2014.11.052|10.1016/J.JHAZMAT.2018.11.065|10.1016/J.JPBA.2016.01.021|10.1016/J.PHYTOCHEM.2004.06.005|10.1016/J.PHYTOCHEM.2005.11.024|10.1016/J.PHYTOCHEM.2011.01.018|10.1016/S0021-9673(01)88918-4|10.1016/S0021-9673(97)00900-X|10.1016/S0021-9673(97)01042-X|10.1016/S0031-9422(00)00355-1|10.1016/S0031-9422(00)00439-8|10.1016/S0031-9422(00)80359-3|10.1016/S0031-9422(00)80708-6|10.1016/S0031-9422(00)80758-X|10.1016/S0031-9422(00)81143-7|10.1016/S0031-9422(00)81769-0|10.1016/S0031-9422(00)83176-3|10.1016/S0031-9422(00)83754-1|10.1016/S0031-9422(00)83767-X|10.1016/S0031-9422(00)83881-9|10.1016/S0031-9422(00)84593-8|10.1016/S0031-9422(00)84607-5|10.1016/S0031-9422(00)84803-7|10.1016/S0031-9422(00)84889-X|10.1016/S0031-9422(00)84897-9|10.1016/S0031-9422(00)86469-9|10.1016/S0031-9422(00)90474-6|10.1016/S0031-9422(00)97311-4|10.1016/S0031-9422(00)97769-0|10.1016/S0031-9422(00)97950-0|10.1016/S0031-9422(01)00038-3|10.1016/S0031-9422(01)00415-0|10.1016/S0031-9422(96)00430-X|10.1016/S0031-9422(97)01003-0|10.1016/S0031-9422(97)01042-X|10.1016/S0031-9422(99)00110-7|10.1016/S0305-1978(96)00081-6|10.1016/S0305-1978(98)00077-5|10.1016/j.bcp.2003.09.042|10.1016/j.bcp.2006.07.039|10.1016/j.bmc.2009.02.050|10.1016/j.bse.2017.10.002|10.1016/j.canlet.2004.02.019|10.1016/j.jep.2014.11.052|10.1016/s0031-9422(00)95261-0|10.1016/s0305-1978(99)00045-9|10.1021/ACS.JNATPROD.9B00697.S001|10.1021/JF011682S|10.1021/JF030813H|10.1021/NP060253R|10.1021/NP50023A026|10.1021/NP50038A017|10.1021/NP50039A027|10.1021/NP50048A050|10.1021/NP50048A052|10.1021/NP50050A009|10.1021/NP50051A008|10.1021/NP50055A026|10.1021/NP50075A008|10.1021/NP50119A014|10.1021/NP8006364|10.1021/NP800643N|10.1021/NP800721F|10.1021/NP900213W|10.1021/NP960601X|10.1021/NP990092+|10.1021/NP990098Z|10.1021/acs.jnatprod.6b00440|10.1021/acs.jnatprod.9b00697|10.1021/jf048430m|10.1021/np50051a008|10.1021/np800721f|10.1021/np990092+|10.1023/B:CONC.0000025456.09089.84|10.1046/J.1432-1033.2003.03729.X|10.1055/S-0029-1234988|10.1055/S-2005-873181|10.1055/S-2006-957714|10.1055/S-2006-958030|10.1055/S-2006-962352|10.1055/S-2006-962790|10.1055/S-2006-962793|10.1055/S-2007-969851|10.1055/S-2007-971441|10.1071/CH9740331|10.1076/1388-0209(200007)38:3;1-S;FT229|10.1080/00021369.1980.10864416|10.1080/1028602021000000053|10.1080/14786419.2010.523423|10.1081/JLC-100102074|10.1093/carcin/bgi014|10.1093/pcp/pcn183|10.1139/V09-151|10.1246/NIKKASHI1948.88.7_763|10.1248/BPB.18.463|10.1248/BPB.27.1976|10.1248/CPB.29.1777|10.1248/CPB.50.583|10.1248/CPB.51.595|10.1248/CPB.54.546|10.1248/CPB.56.585|10.1248/CPB.58.394|10.1248/CPB.58.696|10.1271/BBB.67.2091|10.1271/BBB1961.44.2951|10.1515/ZNC-1984-1-204|10.1515/ZNC-1984-3-418|10.1515/ZNC-1986-1-214|10.1515/ZNC-1987-9-1004|10.1515/ZNC-1988-5-603|10.1515/ZNC-1992-9-1025|10.1515/ZNC-1994-5-618|10.1515/ZNC-1994-9-1022|10.1515/ZNC-1995-5-603|10.1515/ZNC-1995-5-604|10.1515/ZNC-1997-3-401|10.1515/ZNC-2000-1-203|10.1515/ZNC-2002-11-1212|10.1515/ZNC-2003-3-401|10.1515/ZNC-2008-5-611|10.1515/znc-2003-3-401|10.1515/znc-2008-5-611|10.2298/HEMIND0704272R|10.3390/IJMS15022327|10.3987/COM-08-S(F)79

>  <synonyms>  (807) 
nan

>  <cas>  (807) 
480-44-4

$$$$

     RDKit          2D

 17 18  0  0  0  0  0  0  0  0999 V2000
   -3.5669    1.8483    0.0000 C   0  0  0  0  0  0  0  0  0  0  0  0
   -3.2715    0.3777    0.0000 C   0  0  0  0  0  0  0  0  0  0  0  0
   -4.3973   -0.6135    0.0000 O   0  0  0  0  0  0  0  0  0  0  0  0
   -1.8501   -0.1017    0.0000 C   0  0  0  0  0  0  0  0  0  0  0  0
   -1.5547   -1.5723    0.0000 C   0  0  0  0  0  0  0  0  0  0  0  0
   -2.6805   -2.5635    0.0000 C   0  0  0  0  0  0  0  0  0  0  0  0
   -0.1334   -2.0518    0.0000 C   0  0  0  0  0  0  0  0  0  0  0  0
    0.9925   -1.0606    0.0000 C   0  0  0  0  0  0  0  0  0  0  0  0
    2.4138   -1.5400    0.0000 C   0  0  0  0  0  0  0  0  0  0  0  0
    3.5397   -0.5488    0.0000 C   0  0  0  0  0  0  0  0  0  0  0  0
    4.9610   -1.0282    0.0000 O   0  0  0  0  0  0  0  0  0  0  0  0
    3.2442    0.9218    0.0000 C   0  0  0  0  0  0  0  0  0  0  0  0
    1.8229    1.4012    0.0000 C   0  0  0  0  0  0  0  0  0  0  0  0
    1.5274    2.8718    0.0000 O   0  0  0  0  0  0  0  0  0  0  0  0
    0.6970    0.4100    0.0000 C   0  0  0  0  0  0  0  0  0  0  0  0
   -0.7243    0.8895    0.0000 C   0  0  0  0  0  0  0  0  0  0  0  0
   -1.0198    2.3601    0.0000 O   0  0  0  0  0  0  0  0  0  0  0  0
  1  2  1  0
  2  3  2  0
  2  4  1  0
  4  5  2  0
  5  6  1  0
  5  7  1  0
  7  8  2  0
  8  9  1  0
  9 10  2  0
 10 11  1  0
 10 12  1  0
 12 13  2  0
 13 14  1  0
 13 15  1  0
 15 16  2  0
 16 17  1  0
 16  4  1  0
 15  8  1  0
M  END
>  <identifier>  (808) 
CNP0286576.0

>  <canonical_smiles>  (808) 
CC(=O)C1=C(C)C=C2C=C(O)C=C(O)C2=C1O

>  <standard_inchi>  (808) 
InChI=1S/C13H12O4/c1-6-3-8-4-9(15)5-10(16)12(8)13(17)11(6)7(2)14/h3-5,15-17H,1-2H3

>  <standard_inchi_key>  (808) 
MUWYBCVOKHQYED-UHFFFAOYSA-N

>  <name>  (808) 
1-(1,6,8-trihydroxy-3-methylnaphthalen-2-yl)ethan-1-one

>  <iupac_name>  (808) 
1-(1,6,8-trihydroxy-3-methyl-2-naphthyl)ethanone

>  <annotation_level>  (808) 
5

>  <total_atom_count>  (808) 
29

>  <heavy_atom_count>  (808) 
17

>  <molecular_weight>  (808) 
232.23

>  <exact_molecular_weight>  (808) 
232.07356

>  <molecular_formula>  (808) 
C13H12O4

>  <alogp>  (808) 
2.47

>  <topological_polar_surface_area>  (808) 
77.76

>  <rotatable_bond_count>  (808) 
1

>  <hydrogen_bond_acceptors>  (808) 
4

>  <hydrogen_bond_donors>  (808) 
3

>  <hydrogen_bond_acceptors_lipinski>  (808) 
4

>  <hydrogen_bond_donors_lipinski>  (808) 
3

>  <lipinski_rule_of_five_violations>  (808) 
0

>  <aromatic_rings_count>  (808) 
2

>  <qed_drug_likeliness>  (808) 
0.66

>  <formal_charge>  (808) 
0

>  <fractioncsp3>  (808) 
0.15

>  <number_of_minimal_rings>  (808) 
2

>  <van_der_walls_volume>  (808) 
201.95

>  <contains_sugar>  (808) 
False

>  <contains_ring_sugars>  (808) 
False

>  <contains_linear_sugars>  (808) 
False

>  <murcko_framework>  (808) 
c1ccc2ccccc2c1

>  <np_likeness>  (808) 
1.59

>  <chemical_class>  (808) 
Naphthalenes

>  <chemical_sub_class>  (808) 
Naphthols and derivatives

>  <chemical_super_class>  (808) 
Benzenoids

>  <direct_parent_classification>  (808) 
Naphthols and derivatives

>  <np_classifier_pathway>  (808) 
Polyketides

>  <np_classifier_superclass>  (808) 
Naphthalenes

>  <np_classifier_class>  (808) 
Naphthalenes and derivatives

>  <np_classifier_is_glycoside>  (808) 
False

>  <organisms>  (808) 
Aphis nerii|Aphis spiraecola|Cassia Tora|Cassia tora|Senna tora

>  <collections>  (808) 
Australian natural products|KNApSaCK|Latin America dataset|NuBBEDB|Super Natural II|TCMDB-Taiwan (Traditional Chinese Medicine database)|UNPD (Universal Natural Products Database)|VietHerb|WikiData Natural Products|ZINC NP

>  <dois>  (808) 
10.1016/J.TET.2003.11.061|10.1016/S0040-4039(01)97216-8|10.1248/CPB.55.1476|10.1248/cpb.55.1476

>  <synonyms>  (808) 
2-acetyl-3-methyl-1,6,8-trihydroxynaphthalene|6-Hydroxymusizin|SCHEMBL12800168

>  <cas>  (808) 
nan

$$$$

     RDKit          2D

 22 24  0  0  0  0  0  0  0  0999 V2000
   -1.6096   -2.7735    0.0000 O   0  0  0  0  0  0  0  0  0  0  0  0
   -1.4468   -1.2823    0.0000 C   0  0  0  0  0  0  0  0  0  0  0  0
   -0.0740   -0.6778    0.0000 C   0  0  0  0  0  0  0  0  0  0  0  0
    1.1359   -1.5644    0.0000 C   0  0  0  0  0  0  0  0  0  0  0  0
    2.5087   -0.9598    0.0000 C   0  0  0  0  0  0  0  0  0  0  0  0
    3.7187   -1.8464    0.0000 C   0  0  0  0  0  0  0  0  0  0  0  0
    5.0914   -1.2418    0.0000 C   0  0  0  0  0  0  0  0  0  0  0  0
    5.2543    0.2493    0.0000 C   0  0  0  0  0  0  0  0  0  0  0  0
    6.6270    0.8539    0.0000 O   0  0  0  0  0  0  0  0  0  0  0  0
    4.0443    1.1359    0.0000 C   0  0  0  0  0  0  0  0  0  0  0  0
    4.2071    2.6270    0.0000 O   0  0  0  0  0  0  0  0  0  0  0  0
    2.6715    0.5313    0.0000 C   0  0  0  0  0  0  0  0  0  0  0  0
    1.4616    1.4179    0.0000 C   0  0  0  0  0  0  0  0  0  0  0  0
    0.0888    0.8133    0.0000 O   0  0  0  0  0  0  0  0  0  0  0  0
   -2.6567   -0.3958    0.0000 C   0  0  0  0  0  0  0  0  0  0  0  0
   -2.4939    1.0954    0.0000 C   0  0  0  0  0  0  0  0  0  0  0  0
   -3.7039    1.9819    0.0000 C   0  0  0  0  0  0  0  0  0  0  0  0
   -5.0766    1.3774    0.0000 C   0  0  0  0  0  0  0  0  0  0  0  0
   -6.2866    2.2640    0.0000 O   0  0  0  0  0  0  0  0  0  0  0  0
   -5.2395   -0.1137    0.0000 C   0  0  0  0  0  0  0  0  0  0  0  0
   -4.0295   -1.0003    0.0000 C   0  0  0  0  0  0  0  0  0  0  0  0
   -4.1923   -2.4915    0.0000 O   0  0  0  0  0  0  0  0  0  0  0  0
  1  2  2  0
  2  3  1  0
  3  4  2  0
  4  5  1  0
  5  6  2  0
  6  7  1  0
  7  8  2  0
  8  9  1  0
  8 10  1  0
 10 11  1  0
 10 12  2  0
 12 13  1  0
 13 14  1  0
  2 15  1  0
 15 16  2  0
 16 17  1  0
 17 18  2  0
 18 19  1  0
 18 20  1  0
 20 21  2  0
 21 22  1  0
 14  3  1  0
 21 15  1  0
 12  5  1  0
M  END
>  <identifier>  (809) 
CNP0331151.0

>  <canonical_smiles>  (809) 
O=C(C1=CC2=CC=C(O)C(O)=C2CO1)C1=CC=C(O)C=C1O

>  <standard_inchi>  (809) 
InChI=1S/C16H12O6/c17-9-2-3-10(13(19)6-9)16(21)14-5-8-1-4-12(18)15(20)11(8)7-22-14/h1-6,17-20H,7H2

>  <standard_inchi_key>  (809) 
LDCYWAYHOOYPSR-UHFFFAOYSA-N

>  <name>  (809) 
Mopachalcone

>  <iupac_name>  (809) 
(7,8-dihydroxy-1~{H}-isochromen-3-yl)-(2,4-dihydroxyphenyl)methanone

>  <annotation_level>  (809) 
5

>  <total_atom_count>  (809) 
34

>  <heavy_atom_count>  (809) 
22

>  <molecular_weight>  (809) 
300.27

>  <exact_molecular_weight>  (809) 
300.06339

>  <molecular_formula>  (809) 
C16H12O6

>  <alogp>  (809) 
2.26

>  <topological_polar_surface_area>  (809) 
107.22

>  <rotatable_bond_count>  (809) 
2

>  <hydrogen_bond_acceptors>  (809) 
6

>  <hydrogen_bond_donors>  (809) 
4

>  <hydrogen_bond_acceptors_lipinski>  (809) 
6

>  <hydrogen_bond_donors_lipinski>  (809) 
4

>  <lipinski_rule_of_five_violations>  (809) 
0

>  <aromatic_rings_count>  (809) 
2

>  <qed_drug_likeliness>  (809) 
0.50

>  <formal_charge>  (809) 
0

>  <fractioncsp3>  (809) 
0.06

>  <number_of_minimal_rings>  (809) 
3

>  <van_der_walls_volume>  (809) 
249.22

>  <contains_sugar>  (809) 
False

>  <contains_ring_sugars>  (809) 
False

>  <contains_linear_sugars>  (809) 
False

>  <murcko_framework>  (809) 
O1C(=Cc2ccccc2C1)Cc3ccccc3

>  <np_likeness>  (809) 
1.05

>  <chemical_class>  (809) 
Benzopyrans

>  <chemical_sub_class>  (809) 
2-benzopyrans

>  <chemical_super_class>  (809) 
Organoheterocyclic compounds

>  <direct_parent_classification>  (809) 
2-benzopyrans

>  <np_classifier_pathway>  (809) 
nan

>  <np_classifier_superclass>  (809) 
nan

>  <np_classifier_class>  (809) 
nan

>  <np_classifier_is_glycoside>  (809) 
False

>  <organisms>  (809) 
Goniorrhachis marginata

>  <collections>  (809) 
KNApSaCK|Latin America dataset|NPEdia|NuBBEDB|Super Natural II|UNPD (Universal Natural Products Database)|WikiData Natural Products|ZINC NP

>  <dois>  (809) 
10.1016/0031-9422(74)80106-8|10.1016/S0031-9422(00)86522-X

>  <synonyms>  (809) 
LMPK12120406|Mopachalcone

>  <cas>  (809) 
nan

$$$$

     RDKit          2D

 31 35  0  0  0  0  0  0  0  0999 V2000
    5.9003   -3.6266    0.0000 C   0  0  0  0  0  0  0  0  0  0  0  0
    6.3847   -2.2070    0.0000 O   0  0  0  0  0  0  0  0  0  0  0  0
    5.3975   -1.0777    0.0000 C   0  0  0  0  0  0  0  0  0  0  0  0
    3.9259   -1.3680    0.0000 C   0  0  0  0  0  0  0  0  0  0  0  0
    2.9387   -0.2386    0.0000 C   0  0  0  0  0  0  0  0  0  0  0  0
    1.4670   -0.5290    0.0000 C   0  0  0  0  0  0  0  0  0  0  0  0
    0.8369   -1.8902    0.0000 O   0  0  0  0  0  0  0  0  0  0  0  0
   -0.6525   -1.7115    0.0000 C   0  0  0  0  0  0  0  0  0  0  0  0
   -0.9428   -0.2399    0.0000 C   0  0  0  0  0  0  0  0  0  0  0  0
    0.3671    0.4910    0.0000 C   0  0  0  0  0  0  0  0  0  0  0  0
    0.0768    1.9626    0.0000 C   0  0  0  0  0  0  0  0  0  0  0  0
   -1.4125    2.1413    0.0000 O   0  0  0  0  0  0  0  0  0  0  0  0
   -2.0426    0.7801    0.0000 C   0  0  0  0  0  0  0  0  0  0  0  0
   -3.5143    0.4898    0.0000 C   0  0  0  0  0  0  0  0  0  0  0  0
   -3.9987   -0.9298    0.0000 C   0  0  0  0  0  0  0  0  0  0  0  0
   -5.4703   -1.2201    0.0000 C   0  0  0  0  0  0  0  0  0  0  0  0
   -5.9547   -2.6398    0.0000 O   0  0  0  0  0  0  0  0  0  0  0  0
   -4.9675   -3.7691    0.0000 C   0  0  0  0  0  0  0  0  0  0  0  0
   -6.4575   -0.0908    0.0000 C   0  0  0  0  0  0  0  0  0  0  0  0
   -7.9574   -0.0688    0.0000 O   0  0  0  0  0  0  0  0  0  0  0  0
   -8.3999    1.3644    0.0000 C   0  0  0  0  0  0  0  0  0  0  0  0
   -7.1736    2.2282    0.0000 O   0  0  0  0  0  0  0  0  0  0  0  0
   -5.9731    1.3288    0.0000 C   0  0  0  0  0  0  0  0  0  0  0  0
   -4.5015    1.6191    0.0000 C   0  0  0  0  0  0  0  0  0  0  0  0
    3.4231    1.1810    0.0000 C   0  0  0  0  0  0  0  0  0  0  0  0
    4.8947    1.4713    0.0000 C   0  0  0  0  0  0  0  0  0  0  0  0
    5.3791    2.8909    0.0000 O   0  0  0  0  0  0  0  0  0  0  0  0
    6.8508    3.1812    0.0000 C   0  0  0  0  0  0  0  0  0  0  0  0
    5.8819    0.3420    0.0000 C   0  0  0  0  0  0  0  0  0  0  0  0
    7.3536    0.6323    0.0000 O   0  0  0  0  0  0  0  0  0  0  0  0
    8.3408   -0.4971    0.0000 C   0  0  0  0  0  0  0  0  0  0  0  0
  1  2  1  0
  2  3  1  0
  3  4  2  0
  4  5  1  0
  6  5  1  1
  6  7  1  0
  7  8  1  0
  9  8  1  6
  9 10  1  0
 10 11  1  6
 11 12  1  0
 12 13  1  0
 13 14  1  1
 14 15  2  0
 15 16  1  0
 16 17  1  0
 17 18  1  0
 16 19  2  0
 19 20  1  0
 20 21  1  0
 21 22  1  0
 22 23  1  0
 23 24  2  0
  5 25  2  0
 25 26  1  0
 26 27  1  0
 27 28  1  0
 26 29  2  0
 29 30  1  0
 30 31  1  0
 29  3  1  0
 10  6  1  0
 24 14  1  0
 13  9  1  0
 23 19  1  0
M  END
>  <identifier>  (810) 
CNP0203752.1

>  <canonical_smiles>  (810) 
COC1=CC([C@H]2OC[C@H]3[C@@H]2CO[C@@H]3C2=CC(OC)=C3OCOC3=C2)=CC(OC)=C1OC

>  <standard_inchi>  (810) 
InChI=1S/C23H26O8/c1-24-16-5-12(6-17(25-2)22(16)27-4)20-14-9-29-21(15(14)10-28-20)13-7-18(26-3)23-19(8-13)30-11-31-23/h5-8,14-15,20-21H,9-11H2,1-4H3/t14-,15-,20+,21+/m0/s1

>  <standard_inchi_key>  (810) 
DHWUVPPRBIJJKS-VUEDXXQZSA-N

>  <name>  (810) 
Sesartemin

>  <iupac_name>  (810) 
6-[(3~{S},3~{a}~{R},6~{S},6~{a}~{R})-6-(3,4,5-trimethoxyphenyl)-1,3,3~{a},4,6,6~{a}-hexahydrofuro[3,4-c]furan-3-yl]-4-methoxy-1,3-benzodioxole

>  <annotation_level>  (810) 
5

>  <total_atom_count>  (810) 
57

>  <heavy_atom_count>  (810) 
31

>  <molecular_weight>  (810) 
430.45

>  <exact_molecular_weight>  (810) 
430.16277

>  <molecular_formula>  (810) 
C23H26O8

>  <alogp>  (810) 
3.52

>  <topological_polar_surface_area>  (810) 
73.84

>  <rotatable_bond_count>  (810) 
6

>  <hydrogen_bond_acceptors>  (810) 
8

>  <hydrogen_bond_donors>  (810) 
0

>  <hydrogen_bond_acceptors_lipinski>  (810) 
8

>  <hydrogen_bond_donors_lipinski>  (810) 
0

>  <lipinski_rule_of_five_violations>  (810) 
0

>  <aromatic_rings_count>  (810) 
2

>  <qed_drug_likeliness>  (810) 
0.69

>  <formal_charge>  (810) 
0

>  <fractioncsp3>  (810) 
0.48

>  <number_of_minimal_rings>  (810) 
5

>  <van_der_walls_volume>  (810) 
377.14

>  <contains_sugar>  (810) 
False

>  <contains_ring_sugars>  (810) 
False

>  <contains_linear_sugars>  (810) 
False

>  <murcko_framework>  (810) 
O1c2ccc(cc2OC1)C3OCC4C(OCC34)c5ccccc5

>  <np_likeness>  (810) 
0.93

>  <chemical_class>  (810) 
Furanoid lignans

>  <chemical_sub_class>  (810) 
Furan lignans

>  <chemical_super_class>  (810) 
Lignans, neolignans and related compounds

>  <direct_parent_classification>  (810) 
Furan lignans

>  <np_classifier_pathway>  (810) 
Shikimates and Phenylpropanoids

>  <np_classifier_superclass>  (810) 
Lignans

>  <np_classifier_class>  (810) 
Furofuranoid lignans

>  <np_classifier_is_glycoside>  (810) 
False

>  <organisms>  (810) 
Achillea cretica|Achillea holosericea|Achillea lingulata|Artemisia Absinthium|Artemisia Apiacea|Artemisia absinthium|Artemisia annua L.|Artemisia apiacea|Artemisia arborescens|Artemisia caruifolia|Artemisia carvifolia|Leucophyllum ambiguum|Ocotea duckei|Ocotea fasciculata|Pedicularis muscicola|Peperomia obtusifolia|Virola elongata|Wedelia floribunda

>  <collections>  (810) 
ANPDB|Australian natural products|CMAUP (cCollective molecular activities of useful plants)|ChEBI NPs|ChemSpider NPs|KNApSaCK|Latin America dataset|NANPDB (Natural Products from Northern African Sources)|NPASS|NPEdia|NuBBEDB|Phyto4Health|Super Natural II|TCMDB-Taiwan (Traditional Chinese Medicine database)|VietHerb|WikiData Natural Products

>  <dois>  (810) 
10.1016/0031-9422(88)80792-1|10.1016/0031-9422(96)00040-4|10.1016/0040-4020(80)88051-3|10.1016/0378-8741(84)90087-4|10.1016/S0031-9422(00)80766-9|10.1016/S0031-9422(01)00442-3|10.1016/S0031-9422(96)00720-0|10.1016/s0031-9422(96)00720-0|10.1021/acs.jnatprod.9b00759|10.1055/S-0029-1185364|10.1055/s-0029-1185364|10.1076/PHBI.37.2.144.6084|10.1248/CPB.49.183|10.2298/JSC0305277T

>  <synonyms>  (810) 
(+)-Sesartemin|6-[(3S,3aR,6S,6aR)-6-(3,4,5-trimethoxyphenyl)-1,3,3a,4,6,6a-hexahydrofuro[3,4-c]furan-3-yl]-4-methoxy-1,3-benzodioxole|77394-27-5|AKOS032948911|BDBM50541533|C23H26O8|CHEBI:9128|CHEMBL1980572|DTXSID90321716|FS-9438|NCI60_003597|NSC380470|Q27108283|SESARTEMIN-(+)|Sesartemin

>  <cas>  (810) 
77394-27-5

$$$$

     RDKit          2D

 19 20  0  0  0  0  0  0  0  0999 V2000
    5.9570    1.9687    0.0000 C   0  0  0  0  0  0  0  0  0  0  0  0
    5.0510    0.7733    0.0000 C   0  0  0  0  0  0  0  0  0  0  0  0
    5.6333   -0.6091    0.0000 O   0  0  0  0  0  0  0  0  0  0  0  0
    3.5627    0.9602    0.0000 O   0  0  0  0  0  0  0  0  0  0  0  0
    2.6567   -0.2352    0.0000 C   0  0  0  0  0  0  0  0  0  0  0  0
    1.1684   -0.0483    0.0000 C   0  0  0  0  0  0  0  0  0  0  0  0
    0.5861    1.3341    0.0000 C   0  0  0  0  0  0  0  0  0  0  0  0
   -0.9022    1.5210    0.0000 O   0  0  0  0  0  0  0  0  0  0  0  0
   -1.8083    0.3255    0.0000 C   0  0  0  0  0  0  0  0  0  0  0  0
   -3.2966    0.5125    0.0000 O   0  0  0  0  0  0  0  0  0  0  0  0
   -3.8788    1.8948    0.0000 C   0  0  0  0  0  0  0  0  0  0  0  0
   -5.3671    2.0818    0.0000 C   0  0  0  0  0  0  0  0  0  0  0  0
   -2.9728    3.0903    0.0000 O   0  0  0  0  0  0  0  0  0  0  0  0
   -1.2260   -1.0568    0.0000 C   0  0  0  0  0  0  0  0  0  0  0  0
    0.2623   -1.2438    0.0000 C   0  0  0  0  0  0  0  0  0  0  0  0
    0.5445   -2.7170    0.0000 C   0  0  0  0  0  0  0  0  0  0  0  0
   -0.7695   -3.4406    0.0000 C   0  0  0  0  0  0  0  0  0  0  0  0
   -1.8637   -2.4145    0.0000 C   0  0  0  0  0  0  0  0  0  0  0  0
   -3.3369   -2.6967    0.0000 C   0  0  0  0  0  0  0  0  0  0  0  0
  1  2  1  0
  2  3  2  0
  2  4  1  0
  4  5  1  0
  5  6  1  0
  6  7  2  0
  7  8  1  0
  8  9  1  0
  9 10  1  6
 10 11  1  0
 11 12  1  0
 11 13  2  0
 14  9  1  1
 14 15  1  0
 15 16  1  1
 16 17  1  0
 17 18  1  0
 18 19  1  6
 15  6  1  0
 18 14  1  0
M  END
>  <identifier>  (811) 
CNP0221084.1

>  <canonical_smiles>  (811) 
CC(=O)OCC1=CO[C@@H](OC(C)=O)[C@H]2[C@@H]1CC[C@@H]2C

>  <standard_inchi>  (811) 
InChI=1S/C14H20O5/c1-8-4-5-12-11(6-17-9(2)15)7-18-14(13(8)12)19-10(3)16/h7-8,12-14H,4-6H2,1-3H3/t8-,12+,13+,14-/m0/s1

>  <standard_inchi_key>  (811) 
PWSAKIKRNLLDNQ-IYMWITQMSA-N

>  <name>  (811) 
nan

>  <iupac_name>  (811) 
[(1~{S},4~{a}~{S},7~{S},7~{a}~{R})-1-acetoxy-7-methyl-1,4~{a},5,6,7,7~{a}-hexahydrocyclopenta[c]pyran-4-yl]methyl acetate

>  <annotation_level>  (811) 
5

>  <total_atom_count>  (811) 
39

>  <heavy_atom_count>  (811) 
19

>  <molecular_weight>  (811) 
268.31

>  <exact_molecular_weight>  (811) 
268.13107

>  <molecular_formula>  (811) 
C14H20O5

>  <alogp>  (811) 
2.02

>  <topological_polar_surface_area>  (811) 
61.83

>  <rotatable_bond_count>  (811) 
3

>  <hydrogen_bond_acceptors>  (811) 
5

>  <hydrogen_bond_donors>  (811) 
0

>  <hydrogen_bond_acceptors_lipinski>  (811) 
5

>  <hydrogen_bond_donors_lipinski>  (811) 
0

>  <lipinski_rule_of_five_violations>  (811) 
0

>  <aromatic_rings_count>  (811) 
0

>  <qed_drug_likeliness>  (811) 
0.73

>  <formal_charge>  (811) 
0

>  <fractioncsp3>  (811) 
0.71

>  <number_of_minimal_rings>  (811) 
2

>  <van_der_walls_volume>  (811) 
250.75

>  <contains_sugar>  (811) 
False

>  <contains_ring_sugars>  (811) 
False

>  <contains_linear_sugars>  (811) 
False

>  <murcko_framework>  (811) 
O1C=CC2CCCC2C1

>  <np_likeness>  (811) 
2.72

>  <chemical_class>  (811) 
Prenol lipids

>  <chemical_sub_class>  (811) 
Monoterpenoids

>  <chemical_super_class>  (811) 
Lipids and lipid-like molecules

>  <direct_parent_classification>  (811) 
Iridoids and derivatives

>  <np_classifier_pathway>  (811) 
Terpenoids

>  <np_classifier_superclass>  (811) 
Monoterpenoids

>  <np_classifier_class>  (811) 
Iridoids monoterpenoids

>  <np_classifier_is_glycoside>  (811) 
True

>  <organisms>  (811) 
Tocoyena formosa

>  <collections>  (811) 
ChemSpider NPs|Latin America dataset|NuBBEDB|Super Natural II|WikiData Natural Products|ZINC NP

>  <dois>  (811) 
10.5935/0103-5053.19960024

>  <synonyms>  (811) 
Teucrein

>  <cas>  (811) 
nan

$$$$

     RDKit          2D

 26 27  0  0  0  0  0  0  0  0999 V2000
   -7.1250   -0.9012    0.0000 C   0  0  0  0  0  0  0  0  0  0  0  0
   -5.7847   -0.2277    0.0000 O   0  0  0  0  0  0  0  0  0  0  0  0
   -4.5312   -1.0517    0.0000 C   0  0  0  0  0  0  0  0  0  0  0  0
   -4.6181   -2.5491    0.0000 O   0  0  0  0  0  0  0  0  0  0  0  0
   -3.1910   -0.3781    0.0000 C   0  0  0  0  0  0  0  0  0  0  0  0
   -3.1041    1.1193    0.0000 C   0  0  0  0  0  0  0  0  0  0  0  0
   -1.7638    1.7929    0.0000 C   0  0  0  0  0  0  0  0  0  0  0  0
   -0.5104    0.9689    0.0000 C   0  0  0  0  0  0  0  0  0  0  0  0
    0.8299    1.6424    0.0000 O   0  0  0  0  0  0  0  0  0  0  0  0
    0.9168    3.1399    0.0000 C   0  0  0  0  0  0  0  0  0  0  0  0
    1.5105    4.5174    0.0000 C   0  0  0  0  0  0  0  0  0  0  0  0
    2.3764    2.7943    0.0000 C   0  0  0  0  0  0  0  0  0  0  0  0
    2.8070    1.3575    0.0000 C   0  0  0  0  0  0  0  0  0  0  0  0
    4.2666    1.0119    0.0000 C   0  0  0  0  0  0  0  0  0  0  0  0
    4.6972   -0.4250    0.0000 C   0  0  0  0  0  0  0  0  0  0  0  0
    6.1568   -0.7706    0.0000 C   0  0  0  0  0  0  0  0  0  0  0  0
    3.6681   -1.5163    0.0000 C   0  0  0  0  0  0  0  0  0  0  0  0
   -0.3367    3.9639    0.0000 C   0  0  0  0  0  0  0  0  0  0  0  0
   -1.6770    3.2904    0.0000 C   0  0  0  0  0  0  0  0  0  0  0  0
   -0.5972   -0.5286    0.0000 C   0  0  0  0  0  0  0  0  0  0  0  0
    0.6562   -1.3525    0.0000 C   0  0  0  0  0  0  0  0  0  0  0  0
    0.5693   -2.8500    0.0000 C   0  0  0  0  0  0  0  0  0  0  0  0
    1.8228   -3.6740    0.0000 C   0  0  0  0  0  0  0  0  0  0  0  0
    1.7359   -5.1715    0.0000 C   0  0  0  0  0  0  0  0  0  0  0  0
    3.1631   -3.0005    0.0000 C   0  0  0  0  0  0  0  0  0  0  0  0
   -1.9375   -1.2021    0.0000 C   0  0  0  0  0  0  0  0  0  0  0  0
  1  2  1  0
  2  3  1  0
  3  4  2  0
  3  5  1  0
  5  6  2  0
  6  7  1  0
  7  8  2  0
  8  9  1  0
  9 10  1  0
 10 11  1  1
 10 12  1  0
 12 13  1  0
 13 14  1  0
 14 15  2  0
 15 16  1  0
 15 17  1  0
 10 18  1  0
 18 19  2  0
  8 20  1  0
 20 21  1  0
 21 22  1  0
 22 23  2  0
 23 24  1  0
 23 25  1  0
 20 26  2  0
 26  5  1  0
 19  7  1  0
M  END
>  <identifier>  (812) 
CNP0080488.1

>  <canonical_smiles>  (812) 
COC(=O)C1=CC2=C(O[C@@](C)(CCC=C(C)C)C=C2)C(CC=C(C)C)=C1

>  <standard_inchi>  (812) 
InChI=1S/C23H30O3/c1-16(2)8-7-12-23(5)13-11-19-15-20(22(24)25-6)14-18(21(19)26-23)10-9-17(3)4/h8-9,11,13-15H,7,10,12H2,1-6H3/t23-/m0/s1

>  <standard_inchi_key>  (812) 
ZMYVPUKCYGOUAE-QHCPKHFHSA-N

>  <name>  (812) 
nan

>  <iupac_name>  (812) 
methyl (2~{S})-2-methyl-8-(3-methylbut-2-enyl)-2-(4-methylpent-3-enyl)chromene-6-carboxylate

>  <annotation_level>  (812) 
5

>  <total_atom_count>  (812) 
56

>  <heavy_atom_count>  (812) 
26

>  <molecular_weight>  (812) 
354.49

>  <exact_molecular_weight>  (812) 
354.21949

>  <molecular_formula>  (812) 
C23H30O3

>  <alogp>  (812) 
5.89

>  <topological_polar_surface_area>  (812) 
35.53

>  <rotatable_bond_count>  (812) 
6

>  <hydrogen_bond_acceptors>  (812) 
3

>  <hydrogen_bond_donors>  (812) 
0

>  <hydrogen_bond_acceptors_lipinski>  (812) 
3

>  <hydrogen_bond_donors_lipinski>  (812) 
0

>  <lipinski_rule_of_five_violations>  (812) 
1

>  <aromatic_rings_count>  (812) 
1

>  <qed_drug_likeliness>  (812) 
0.47

>  <formal_charge>  (812) 
0

>  <fractioncsp3>  (812) 
0.44

>  <number_of_minimal_rings>  (812) 
2

>  <van_der_walls_volume>  (812) 
356.48

>  <contains_sugar>  (812) 
False

>  <contains_ring_sugars>  (812) 
False

>  <contains_linear_sugars>  (812) 
False

>  <murcko_framework>  (812) 
O1c2ccccc2C=CC1

>  <np_likeness>  (812) 
2.49

>  <chemical_class>  (812) 
Benzopyrans

>  <chemical_sub_class>  (812) 
1-benzopyrans

>  <chemical_super_class>  (812) 
Organoheterocyclic compounds

>  <direct_parent_classification>  (812) 
1-benzopyrans

>  <np_classifier_pathway>  (812) 
Terpenoids

>  <np_classifier_superclass>  (812) 
Meroterpenoids

>  <np_classifier_class>  (812) 
Polyprenylated cyclic polyketides (Hop meroterpenoids)

>  <np_classifier_is_glycoside>  (812) 
False

>  <organisms>  (812) 
Piper aduncum

>  <collections>  (812) 
ChemSpider NPs|Latin America dataset|NuBBEDB|Super Natural II|WikiData Natural Products|ZINC NP

>  <dois>  (812) 
10.1248/BPB.31.538|10.1248/bpb.31.538

>  <synonyms>  (812) 
(2S)-Methyl-2-methyl-8-(3-methylbut-2\"-enyl)-2-(4'-methylpent-3'-enyl)-2H-chromene-6-carboxylate

>  <cas>  (812) 
nan

$$$$

     RDKit          2D

 24 27  0  0  0  0  0  0  0  0999 V2000
    3.8368   -3.6777    0.0000 C   0  0  0  0  0  0  0  0  0  0  0  0
    2.5056   -2.9863    0.0000 O   0  0  0  0  0  0  0  0  0  0  0  0
    2.4388   -1.4878    0.0000 C   0  0  0  0  0  0  0  0  0  0  0  0
    3.7032   -0.6807    0.0000 C   0  0  0  0  0  0  0  0  0  0  0  0
    3.6364    0.8178    0.0000 C   0  0  0  0  0  0  0  0  0  0  0  0
    4.9007    1.6249    0.0000 C   0  0  0  0  0  0  0  0  0  0  0  0
    6.2319    0.9335    0.0000 C   0  0  0  0  0  0  0  0  0  0  0  0
    7.4962    1.7406    0.0000 C   0  0  0  0  0  0  0  0  0  0  0  0
    8.8274    1.0492    0.0000 O   0  0  0  0  0  0  0  0  0  0  0  0
    2.3052    1.5092    0.0000 C   0  0  0  0  0  0  0  0  0  0  0  0
    1.0409    0.7021    0.0000 C   0  0  0  0  0  0  0  0  0  0  0  0
    1.1077   -0.7964    0.0000 C   0  0  0  0  0  0  0  0  0  0  0  0
   -0.2968   -1.3230    0.0000 O   0  0  0  0  0  0  0  0  0  0  0  0
   -1.2317   -0.1500    0.0000 C   0  0  0  0  0  0  0  0  0  0  0  0
   -2.7302   -0.2168    0.0000 C   0  0  0  0  0  0  0  0  0  0  0  0
   -3.4216   -1.5479    0.0000 C   0  0  0  0  0  0  0  0  0  0  0  0
   -4.9201   -1.6147    0.0000 C   0  0  0  0  0  0  0  0  0  0  0  0
   -5.7272   -0.3504    0.0000 C   0  0  0  0  0  0  0  0  0  0  0  0
   -7.2069   -0.1042    0.0000 O   0  0  0  0  0  0  0  0  0  0  0  0
   -7.4300    1.3792    0.0000 C   0  0  0  0  0  0  0  0  0  0  0  0
   -6.0882    2.0497    0.0000 O   0  0  0  0  0  0  0  0  0  0  0  0
   -5.0358    0.9808    0.0000 C   0  0  0  0  0  0  0  0  0  0  0  0
   -3.5373    1.0476    0.0000 C   0  0  0  0  0  0  0  0  0  0  0  0
   -0.4049    1.1016    0.0000 C   0  0  0  0  0  0  0  0  0  0  0  0
  1  2  1  0
  2  3  1  0
  3  4  2  0
  4  5  1  0
  5  6  1  0
  6  7  1  0
  7  8  1  0
  8  9  1  0
  5 10  2  0
 10 11  1  0
 11 12  2  0
 12 13  1  0
 13 14  1  0
 14 15  1  0
 15 16  2  0
 16 17  1  0
 17 18  2  0
 18 19  1  0
 19 20  1  0
 20 21  1  0
 21 22  1  0
 22 23  2  0
 14 24  2  0
 12  3  1  0
 23 15  1  0
 24 11  1  0
 22 18  1  0
M  END
>  <identifier>  (813) 
CNP0307673.0

>  <canonical_smiles>  (813) 
COC1=CC(CCCO)=CC2=C1OC(C1=CC=C3OCOC3=C1)=C2

>  <standard_inchi>  (813) 
InChI=1S/C19H18O5/c1-21-18-8-12(3-2-6-20)7-14-10-16(24-19(14)18)13-4-5-15-17(9-13)23-11-22-15/h4-5,7-10,20H,2-3,6,11H2,1H3

>  <standard_inchi_key>  (813) 
VOLZBKQSLGCZGC-UHFFFAOYSA-N

>  <name>  (813) 
Egonol

>  <iupac_name>  (813) 
3-[2-(1,3-benzodioxol-5-yl)-7-methoxy-benzofuran-5-yl]propan-1-ol

>  <annotation_level>  (813) 
5

>  <total_atom_count>  (813) 
42

>  <heavy_atom_count>  (813) 
24

>  <molecular_weight>  (813) 
326.35

>  <exact_molecular_weight>  (813) 
326.11542

>  <molecular_formula>  (813) 
C19H18O5

>  <alogp>  (813) 
3.76

>  <topological_polar_surface_area>  (813) 
61.06

>  <rotatable_bond_count>  (813) 
5

>  <hydrogen_bond_acceptors>  (813) 
5

>  <hydrogen_bond_donors>  (813) 
1

>  <hydrogen_bond_acceptors_lipinski>  (813) 
5

>  <hydrogen_bond_donors_lipinski>  (813) 
1

>  <lipinski_rule_of_five_violations>  (813) 
0

>  <aromatic_rings_count>  (813) 
3

>  <qed_drug_likeliness>  (813) 
0.77

>  <formal_charge>  (813) 
0

>  <fractioncsp3>  (813) 
0.26

>  <number_of_minimal_rings>  (813) 
4

>  <van_der_walls_volume>  (813) 
286.72

>  <contains_sugar>  (813) 
False

>  <contains_ring_sugars>  (813) 
False

>  <contains_linear_sugars>  (813) 
False

>  <murcko_framework>  (813) 
o1c2ccccc2cc1-c3ccc4OCOc4c3

>  <np_likeness>  (813) 
0.69

>  <chemical_class>  (813) 
2-arylbenzofuran flavonoids

>  <chemical_sub_class>  (813) 
2-arylbenzofuran flavonoids

>  <chemical_super_class>  (813) 
Phenylpropanoids and polyketides

>  <direct_parent_classification>  (813) 
2-arylbenzofuran flavonoids

>  <np_classifier_pathway>  (813) 
Shikimates and Phenylpropanoids

>  <np_classifier_superclass>  (813) 
Lignans

>  <np_classifier_class>  (813) 
Neolignans

>  <np_classifier_is_glycoside>  (813) 
False

>  <organisms>  (813) 
Actinopyga agassizi|Alchornea glandulosa|Annona densicoma|Aplidium tabascum|Arcyria denudata|Aster bellidiastrum|Camellia sinensis|Chromatium okenii|Dolomiaea souliei|Eucalyptus camaldulensis|Garcinia mangostana|Gutierrezia sarothrae|Halimodendron halodendron|Laetiporus sulphureus|Laetiporus sulphureus var. miniatus|Laetiporus sulphureus var.miniatus|Leptogorgia sarmentosa|Liatris chapmanii|Lobophytum crassum|Lonicera hypoleuca|Myelochroa aurulenta|Nicotiana sylvestris|Oligoporus tephroleucus|Polygala telephioides|Poria selecta|Saussurea macrota|Scleronephthya pallida|Senecio vellereus|Serpocaulon triseriale|Stichopus californicus|Streptomyces alboniger|Streptomyces pyridomyceticus|Styrax agrestis|Styrax americanus|Styrax camporum|Styrax ferrugineus|Styrax formosanus|Styrax hookeri|Styrax japonicus|Styrax obassia|Styrax obassis|Styrax officinalis|Styrax perkinsiae|Trametes cinnabarina|Wibelia divaricata

>  <collections>  (813) 
CMAUP (cCollective molecular activities of useful plants)|ChEBI NPs|ChemSpider NPs|FooDB|KNApSaCK|Latin America dataset|NPASS|NuBBEDB|Phyto4Health|Super Natural II|TCMDB-Taiwan (Traditional Chinese Medicine database)|TCMID (Traditional Chinese Medicine Integrated Database)|UNPD (Universal Natural Products Database)|WikiData Natural Products

>  <dois>  (813) 
10.1002/CHIN.200516160|10.1007/S10600-008-9090-3|10.1016/0031-9422(88)80314-5|10.1016/J.BMCL.2010.08.061|10.1016/J.FITOTE.2007.01.001|10.1016/S0031-9422(00)00225-9|10.1016/S0031-9422(03)00357-1|10.1016/j.bmcl.2010.08.061|10.1021/NP200308J|10.1021/np200308j|10.1055/S-2004-835853|10.1055/S-2005-871226|10.1080/14786410412331271979|10.1248/BPB.30.139|10.1248/CPB.41.958|10.1248/CPB.49.327|10.5650/JOS1956.37.1162

>  <synonyms>  (813) 
2-(1,3-Benzodioxol-5-yl)-7-methoxy-5-benzofuranpropanol|3-(2-(benzo[d][1,3]dioxol-5-yl)-7-methoxybenzofuran-5-yl)propan-1-ol|3-[2-(1,3-benzodioxol-5-yl)-7-methoxy-1-benzofuran-5-yl]propan-1-ol|5-(3-Hydroxypropyl)-7-methoxy-2-(3,4-methylenedioxyphenyl)benzofuran|5-Benzofuranpropanol, 2-(1,3-benzodioxol-5-yl)-7-methoxy-|5-Benzofuranpropanol, 7-methoxy-2-[3,4-(methylenedioxy)phenyl]-|530-22-3|BDBM50327911|CHEBI:69558|CHEMBL470981|DTXSID70967474|Egonol|InChI=1\/C19H18O5\/c1-21-18-8-12(3-2-6-20)7-14-10-16(24-19(14)18)13-4-5-15-17(9-13)23-11-22-15\/h4-5,7-10,20H,2-3,6,11H2,1H|Q27137901|SCHEMBL4183989|VOLZBKQSLGCZGC-UHFFFAOYSA-N

>  <cas>  (813) 
530-22-3

$$$$

     RDKit          2D

 29 33  0  0  0  0  0  0  0  0999 V2000
    6.0150   -3.2414    0.0000 C   0  0  0  0  0  0  0  0  0  0  0  0
    4.6460   -2.6283    0.0000 C   0  0  0  0  0  0  0  0  0  0  0  0
    4.2800   -4.0829    0.0000 C   0  0  0  0  0  0  0  0  0  0  0  0
    3.1499   -2.5203    0.0000 C   0  0  0  0  0  0  0  0  0  0  0  0
    2.4953   -1.1707    0.0000 C   0  0  0  0  0  0  0  0  0  0  0  0
    3.3368    0.0710    0.0000 C   0  0  0  0  0  0  0  0  0  0  0  0
    4.8329   -0.0369    0.0000 C   0  0  0  0  0  0  0  0  0  0  0  0
    5.6744    1.2048    0.0000 C   0  0  0  0  0  0  0  0  0  0  0  0
    5.0198    2.5544    0.0000 C   0  0  0  0  0  0  0  0  0  0  0  0
    3.5237    2.6623    0.0000 C   0  0  0  0  0  0  0  0  0  0  0  0
    2.6822    1.4206    0.0000 C   0  0  0  0  0  0  0  0  0  0  0  0
    1.2412    1.8372    0.0000 C   0  0  0  0  0  0  0  0  0  0  0  0
    0.0572    0.9163    0.0000 C   0  0  0  0  0  0  0  0  0  0  0  0
   -1.3323    1.4813    0.0000 C   0  0  0  0  0  0  0  0  0  0  0  0
   -2.5164    0.5604    0.0000 N   0  0  0  0  0  0  0  0  0  0  0  0
   -2.3109   -0.9255    0.0000 C   0  0  0  0  0  0  0  0  0  0  0  0
   -0.9213   -1.4904    0.0000 O   0  0  0  0  0  0  0  0  0  0  0  0
   -3.4949   -1.8464    0.0000 N   0  0  0  0  0  0  0  0  0  0  0  0
   -4.8845   -1.2814    0.0000 C   0  0  0  0  0  0  0  0  0  0  0  0
   -6.0685   -2.2023    0.0000 C   0  0  0  0  0  0  0  0  0  0  0  0
   -7.4580   -1.6373    0.0000 C   0  0  0  0  0  0  0  0  0  0  0  0
   -7.6635   -0.1515    0.0000 C   0  0  0  0  0  0  0  0  0  0  0  0
   -6.4795    0.7694    0.0000 C   0  0  0  0  0  0  0  0  0  0  0  0
   -5.0900    0.2045    0.0000 C   0  0  0  0  0  0  0  0  0  0  0  0
   -3.9059    1.1254    0.0000 C   0  0  0  0  0  0  0  0  0  0  0  0
   -4.1114    2.6112    0.0000 O   0  0  0  0  0  0  0  0  0  0  0  0
    1.1922    3.3364    0.0000 C   0  0  0  0  0  0  0  0  0  0  0  0
    2.6028    3.8464    0.0000 N   0  0  0  0  0  0  0  0  0  0  0  0
    5.4875   -1.3865    0.0000 O   0  0  0  0  0  0  0  0  0  0  0  0
  1  2  1  0
  2  3  1  0
  2  4  1  0
  4  5  2  0
  5  6  1  0
  6  7  2  0
  7  8  1  0
  8  9  2  0
  9 10  1  0
 10 11  2  0
 11 12  1  0
 12 13  1  0
 13 14  1  0
 14 15  1  0
 15 16  1  0
 16 17  2  0
 16 18  1  0
 18 19  1  0
 19 20  2  0
 20 21  1  0
 21 22  2  0
 22 23  1  0
 23 24  2  0
 24 25  1  0
 25 26  2  0
 12 27  2  0
 27 28  1  0
  7 29  1  0
 29  2  1  0
 11  6  1  0
 25 15  1  0
 28 10  1  0
 24 19  1  0
M  END
>  <identifier>  (814) 
CNP0265195.0

>  <canonical_smiles>  (814) 
CC1(C)C=CC2=C(C=CC3=C2C(CCN2C(=O)NC4=CC=CC=C4C2=O)=CN3)O1

>  <standard_inchi>  (814) 
InChI=1S/C23H21N3O3/c1-23(2)11-9-16-19(29-23)8-7-18-20(16)14(13-24-18)10-12-26-21(27)15-5-3-4-6-17(15)25-22(26)28/h3-9,11,13,24H,10,12H2,1-2H3,(H,25,28)

>  <standard_inchi_key>  (814) 
NMWOOVXJOYZHJD-UHFFFAOYSA-N

>  <name>  (814) 
nan

>  <iupac_name>  (814) 
3-[2-(7,7-dimethyl-3~{H}-pyrano[3,2-e]indol-1-yl)ethyl]-1~{H}-quinazoline-2,4-dione

>  <annotation_level>  (814) 
4

>  <total_atom_count>  (814) 
50

>  <heavy_atom_count>  (814) 
29

>  <molecular_weight>  (814) 
387.44

>  <exact_molecular_weight>  (814) 
387.15829

>  <molecular_formula>  (814) 
C23H21N3O3

>  <alogp>  (814) 
3.60

>  <topological_polar_surface_area>  (814) 
79.88

>  <rotatable_bond_count>  (814) 
3

>  <hydrogen_bond_acceptors>  (814) 
4

>  <hydrogen_bond_donors>  (814) 
2

>  <hydrogen_bond_acceptors_lipinski>  (814) 
4

>  <hydrogen_bond_donors_lipinski>  (814) 
2

>  <lipinski_rule_of_five_violations>  (814) 
0

>  <aromatic_rings_count>  (814) 
4

>  <qed_drug_likeliness>  (814) 
0.56

>  <formal_charge>  (814) 
0

>  <fractioncsp3>  (814) 
0.22

>  <number_of_minimal_rings>  (814) 
5

>  <van_der_walls_volume>  (814) 
nan

>  <contains_sugar>  (814) 
False

>  <contains_ring_sugars>  (814) 
False

>  <contains_linear_sugars>  (814) 
False

>  <murcko_framework>  (814) 
O1c2ccc3[nH]cc(c3c2C=CC1)CCN4CNc5ccccc5C4

>  <np_likeness>  (814) 
0.46

>  <chemical_class>  (814) 
Benzopyrans

>  <chemical_sub_class>  (814) 
1-benzopyrans

>  <chemical_super_class>  (814) 
Organoheterocyclic compounds

>  <direct_parent_classification>  (814) 
2,2-dimethyl-1-benzopyrans

>  <np_classifier_pathway>  (814) 
Alkaloids

>  <np_classifier_superclass>  (814) 
Anthranilic acid alkaloids

>  <np_classifier_class>  (814) 
nan

>  <np_classifier_is_glycoside>  (814) 
False

>  <organisms>  (814) 
Conchocarpus gaudichaudianus

>  <collections>  (814) 
Latin America dataset|NuBBEDB

>  <dois>  (814) 
10.3987/COM-09-11671

>  <synonyms>  (814) 
3-(2-(77-dimethyl-37-dihydropyrano[32-e]indol-1-yl)ethyl)quinazoline-24(1H3H)-dione

>  <cas>  (814) 
nan

$$$$

     RDKit          2D

 12 13  0  0  0  0  0  0  0  0999 V2000
    5.1113    0.2305    0.0000 C   0  0  0  0  0  0  0  0  0  0  0  0
    3.6944   -0.2619    0.0000 C   0  0  0  0  0  0  0  0  0  0  0  0
    2.5595    0.7190    0.0000 C   0  0  0  0  0  0  0  0  0  0  0  0
    1.1426    0.2267    0.0000 C   0  0  0  0  0  0  0  0  0  0  0  0
    0.8606   -1.2466    0.0000 C   0  0  0  0  0  0  0  0  0  0  0  0
   -0.5563   -1.7389    0.0000 C   0  0  0  0  0  0  0  0  0  0  0  0
   -1.6911   -0.7580    0.0000 C   0  0  0  0  0  0  0  0  0  0  0  0
   -3.1794   -0.9450    0.0000 O   0  0  0  0  0  0  0  0  0  0  0  0
   -3.8172    0.4126    0.0000 C   0  0  0  0  0  0  0  0  0  0  0  0
   -2.7231    1.4387    0.0000 O   0  0  0  0  0  0  0  0  0  0  0  0
   -1.4091    0.7152    0.0000 C   0  0  0  0  0  0  0  0  0  0  0  0
    0.0078    1.2076    0.0000 C   0  0  0  0  0  0  0  0  0  0  0  0
  1  2  2  0
  2  3  1  0
  3  4  1  0
  4  5  2  0
  5  6  1  0
  6  7  2  0
  7  8  1  0
  8  9  1  0
  9 10  1  0
 10 11  1  0
 11 12  2  0
 12  4  1  0
 11  7  1  0
M  END
>  <identifier>  (815) 
CNP0320423.0

>  <canonical_smiles>  (815) 
C=CCC1=CC=C2OCOC2=C1

>  <standard_inchi>  (815) 
InChI=1S/C10H10O2/c1-2-3-8-4-5-9-10(6-8)12-7-11-9/h2,4-6H,1,3,7H2

>  <standard_inchi_key>  (815) 
ZMQAAUBTXCXRIC-UHFFFAOYSA-N

>  <name>  (815) 
safrole

>  <iupac_name>  (815) 
5-allyl-1,3-benzodioxole

>  <annotation_level>  (815) 
5

>  <total_atom_count>  (815) 
22

>  <heavy_atom_count>  (815) 
12

>  <molecular_weight>  (815) 
162.19

>  <exact_molecular_weight>  (815) 
162.06808

>  <molecular_formula>  (815) 
C10H10O2

>  <alogp>  (815) 
2.14

>  <topological_polar_surface_area>  (815) 
18.46

>  <rotatable_bond_count>  (815) 
2

>  <hydrogen_bond_acceptors>  (815) 
2

>  <hydrogen_bond_donors>  (815) 
0

>  <hydrogen_bond_acceptors_lipinski>  (815) 
2

>  <hydrogen_bond_donors_lipinski>  (815) 
0

>  <lipinski_rule_of_five_violations>  (815) 
0

>  <aromatic_rings_count>  (815) 
1

>  <qed_drug_likeliness>  (815) 
0.62

>  <formal_charge>  (815) 
0

>  <fractioncsp3>  (815) 
0.20

>  <number_of_minimal_rings>  (815) 
2

>  <van_der_walls_volume>  (815) 
151.71

>  <contains_sugar>  (815) 
False

>  <contains_ring_sugars>  (815) 
False

>  <contains_linear_sugars>  (815) 
False

>  <murcko_framework>  (815) 
O1c2ccccc2OC1

>  <np_likeness>  (815) 
0.51

>  <chemical_class>  (815) 
Benzodioxoles

>  <chemical_sub_class>  (815) 
Benzodioxoles

>  <chemical_super_class>  (815) 
Organoheterocyclic compounds

>  <direct_parent_classification>  (815) 
Benzodioxoles

>  <np_classifier_pathway>  (815) 
Shikimates and Phenylpropanoids

>  <np_classifier_superclass>  (815) 
Phenylpropanoids (C6-C3)

>  <np_classifier_class>  (815) 
Cinnamic acids and derivatives

>  <np_classifier_is_glycoside>  (815) 
False

>  <organisms>  (815) 
Acanthopanax ricinifolius|Aconitum episcopale|Aconitum macrorhynchum|Acorus calamus|Acorus gramineus|Acorus tatarinowii|Actinomadura hibisca|Agave lophantha|Albizia julibrissin|Anacardium occidentale|Anastrepha suspensa|Anchusa officinalis|Andinobates fulguritus|Anethum graveolens|Angelica acutiloba|Angelica gigas|Angelica sinensis|Aniba canelilla|Aniba spp.|Annona cascarilloides|Ardisia arborescens|Aristolochiaceae|Aromia moschata|Artemisia dracunculus|Artemisia glutinosa|Asarum asaroides|Asarum asperum|Asarum constrictum|Asarum costatum|Asarum crassum|Asarum curvistigma|Asarum fauriei|Asarum fauriei takaoi|Asarum forbesii|Asarum fudsinoi|Asarum gusk|Asarum heterotropoides|Asarum heterotropoides f. schm. var. mandshuricum (maxim.) kitag.|Asarum heterotropoides var. mandshuricum|Asarum heterotropoides var.mandshuricum|Asarum hexalobum|Asarum hypogynum|Asarum kumageanum|Asarum macranthum|Asarum muramatsui|Asarum nipponicum|Asarum rigescens|Asarum sakawanum|Asarum satsumense|Asarum savatieri|Asarum sieboldii|Asarum subglobosum|Asarum tamaense|Asarum trigynum|Asarum unzen|Asiasarum heterotropoides|Asiasarum sieboldii|Aspergillus caespitosus|Astilbe koreana|Atherosperma moschatum|Baccharis dracunculifolia|Boronia latipinna|Boronia muelleri|Bothriospermum secundum|Bowdichia nitida|Burkholderia cepacia|Cacia concinna|Calocera viscosa|Cananga odorata|Canella winterana|Cardium corbis|Caryocar glabrum|Caryopteris mongholica|Cassia carnaval|Catalpa bignonioides|Cephalonoplos segetum|Cinamomum cassia|Cinnamomum Camphora|Cinnamomum aromaticum|Cinnamomum camphora|Cinnamomum micranthum|Cinnamomum oliveri|Cinnamomum parthenoxylon|Cinnamomum sieboldii|Cinnamomum zeylanicum|Cinnamon|Citrus aurantium|Citrus hystrix|Citrus natsudaidai|Citrus sinensis|Citrus trifoliata|Clausena excavata|Colchicum macedonicum|Comaster multifida|Conoideocrella tenuis|Coprosma acerosa|Coptis deltoidea|Coptis omeiensis|Cornus officinalis|Cranfillia vulcanica|Croton grewioides|Croton zehntneri|Cryptocarya agathophylla|Curcuma amada|Curcuma amanda Roxb|Cyanospira rippkae|Cymathere triplicata|Dalbergia frutescens|Dalbergia rubiginosa|Dicliptera riparia|Dillenia papuana|Diosma acmaephylla|Drimys winteri|Elaeagnus umbellata|Elettaria cardamomum|Elsholtzia ciliata|Eremanthus arboreus|Eremophila longifolia|Erwinia rhapontici|Esenbeckia nesiotica|Eucalyptus citriodora|Eucalyptus hybrid|Euphorbia caducifolia|Euphorbia kansui|Ficus elastica|Forsythia suspensa|Forsythia suspense|Garcinia oligantha|Gibberella saubinetii|Gundelia tournefortii|Helianthopsis bishopii|Helipterum tenellum|Heterotropa|Hexastylis arifolia|Hexastylis virginica|Hypericum papuanum|Hypselodoris cantabrica|Hyptis tomentosa|Ilex kaushue|Illicium|Illicium anisatum|Illicium difengpi|Illicium dunnianum|Illicium henryi|Illicium lanceolatum|Illicium micranthum|Illicium parviflorum|Illicium religiosum|Illicium simonsii|Illicium tashiroi|Illicium verum|Inula germanica|Inula thapsoides|Ipomoea cristulata|Iris spuria|Juniperus chinensis|Juniperus comitana|Juniperus gamboana|Juniperus rigida|Juniperus scopulorum|Juniperus taxifolia|Juniperus virginiana|Kaunia arbuscularis|Lachnoanaerobaculum saburreum|Lantana camara|Laurelia sempervirens|Laurencia irieii|Lens phaseoloides|Leptolobium panamense|Leucetta microrhaphis|Leucophyllum ambiguum|Licaria puchuri-major|Licaria puchury-major|Limeum pterocarpum|Lindera neesiana|Litsea cubeba|Lophozonia menziesii|Lupinus formosus|Macrocystidia cucumis|Magnolia montana|Magnolia salicifolia|Malaxis grandifolia|Mangifera indica|Mappia foetida|Melicope indica|Mesembryanthemum tortuosum|Metapenaeus macleayi|Mikania banisteriae|Mikania congesta|Mikania cordifolia|Mikania parviflora|Monomorium delagoense|Monosis parishii|Morchella vulgaris|Mosla chinensis|Myristica Fragrans|Myristica argentea|Myristica fragrans|Nectandra angustifolia|Nectandra hihua|Nectandra polita|Nemuaron humboldtii|Nemuaron vieillardii|Nerita albicilla|Ocimum basilicum|Ocimum basilicum L.|Ocotea longifolia|Ocotea odorifera|Ocotea pretiosa|Oxandra xylopioides|Pagrus major|Palicourea alpina|Pancratium trianthum|Parmelia enteromorpha|Parmelia vittata|Peperomia bracteata|Peperomia campylotropa|Peperomia rotundifolia|Peperomia subspathulata|Persicaria thunbergii|Pinellia ternata|Piper aduncum|Piper auritum|Piper betle|Piper cubeba|Piper marginatum|Piper mikanianum|Piper nigrum|Piper pedicellosum|Piper sanctum|Piper sylvestre|Pocillopora damicornis|Polygala senega|Posoqueria latifolia|Protaetia cuprea|Pyracantha angustifolia|Ramalina terebrata|Resinicium pinicola|Rhodomyrtus tomentosa|Rhodotypos scandens|Rosmarinus officinalis|Rubus trifidus|Ruta graveolens|Salix sieboldiana|Salvia xalapensis|Sambucus ebulus|Sassafras albidum|Sassafras randaiense|Satureja atropatana|Saussurea lappa|Scrophularia smithii|Sequoiadendron giganteum|Solanum torvum|Sonchus leptocephalus|Streptomyces fulvoviridis|Swertia japonica|Tanacetum santolinoides|Trifolium alexandrium|Trifolium pratense|Tylophora flava|Virola surinamensis|West African Pepper|Wunderlichia mirabilis|Xanthostemon oppositifolius|Zieria arborescens|Zieria aspalathoides|Zieria cytisoides|Zieria involucrata|Zieria laevigata|Zieria laxiflora|Zieria minutiflora|Zieria murphyi|Zieria robusta|Zieria smithii|Zilla spinosa|Zingiber Officinale|Zingiber officinale|Zinnia elegans|Zinnia violacea|yerba mate

>  <collections>  (815) 
Australian natural products|CMAUP (cCollective molecular activities of useful plants)|ChEBI NPs|ChemSpider NPs|FooDB|HIM (Herbal Ingredients in-vivo Metabolism database)|KNApSaCK|Latin America dataset|NPASS|NPCARE|NPEdia|NuBBEDB|Phyto4Health|PubChem NPs|Super Natural II|TCMDB-Taiwan (Traditional Chinese Medicine database)|TCMID (Traditional Chinese Medicine Integrated Database)|TIPdb (database of Taiwan indigenous plants)|TPPT (Toxic Plants–PhytoToxins)|UNPD (Universal Natural Products Database)|VietHerb|WikiData Natural Products

>  <dois>  (815) 
10.1001/JAMA.291.5.562|10.1002/(SICI)1099-1026(199601)11:1<15::AID-FFJ541>3.0.CO;2-H|10.1002/(SICI)1099-1026(199901/02)14:1<15::AID-FFJ777>3.0.CO;2-M|10.1002/ANGE.19290424104|10.1002/FFJ.2730030204|10.1002/FFJ.2730090308|10.1002/FFJ.2730100408|10.1002/JCCS.200300024|10.1002/JLAC.18691520106|10.1002/JPS.3080270707|10.1002/PTR.2137|10.1002/food.19880321030|10.1006/JFCA.1999.0841|10.1007/BF00630021|10.1007/BF02857217|10.1007/S10600-018-2288-0|10.1007/S10600-020-02963-X|10.1016/0031-9422(73)80047-0|10.1016/0031-9422(83)83070-2|10.1016/0031-9422(89)80078-0|10.1016/0305-1978(85)90081-X|10.1016/0378-8741(83)90056-9|10.1016/0378-8741(90)90054-W|10.1016/0378-8741(94)01213-J|10.1016/S0031-9422(00)80112-0|10.1016/S0031-9422(00)80558-0|10.1016/S0031-9422(00)82268-2|10.1016/S0031-9422(00)94542-4|10.1016/S0031-9422(00)95013-1|10.1016/S0031-9422(00)97906-8|10.1016/S0031-9422(96)00675-9|10.1016/S0031-9422(98)00208-8|10.1016/S0378-8741(99)00072-0|10.1021/JF00011A020|10.1021/JF00025A023|10.1021/JF00069A028|10.1021/JF00083A001|10.1021/JF0402633|10.1021/JF058156B|10.1021/JF60165A026|10.1021/JF60217A066|10.1021/JF60218A031|10.1021/JO01161A020|10.1021/NP0401260|10.1021/NP50038A026|10.1021/NP50040A040|10.1021/NP50043A034|10.1021/NP50046A033|10.1021/NP50052A041|10.1021/NP50083A010|10.1021/np50083a010|10.1023/B:TICU.0000025657.42171.71|10.1039/CT9120101612|10.1039/CT9160900751|10.1055/S-2006-959379|10.1055/S-2006-959506|10.1055/S-2006-959548|10.1055/S-2006-962356|10.1055/S-2006-962742|10.1055/S-2006-962792|10.1055/S-2007-969683|10.1080/00021369.1989.10869813|10.1080/0972060x.2008.10643600|10.1080/10412905.1989.9697801|10.1080/10412905.1990.9697817|10.1080/10412905.1990.9697857|10.1080/10412905.1993.9698258|10.1080/10412905.1994.9698432|10.1080/10412905.1995.9698462|10.1080/10412905.1995.9698530|10.1080/10412905.1995.9700530|10.1080/10412905.1995.9700534|10.1080/10412905.1998.9700913|10.1080/10412905.1998.9701015|10.1080/10412905.2000.9699552|10.1080/10412905.2001.9712227|10.1080/10412905.2002.9699884|10.1080/10575630108041276|10.1080/1057563029001/4764|10.1080/13880200500220268|10.1093/CHROMSCI/32.7.253|10.1093/JAOAC/80.5.1023|10.1142/S0192415X87000151|10.1201/B14669-29|10.1246/BCSJ.56.3477|10.1246/NIKKASHI1921.64.1125|10.1248/BPB.20.776|10.1248/CPB.20.2251|10.1248/CPB.31.2879|10.1248/CPB.34.3885|10.1248/YAKUSHI1881.51.1_8|10.1248/YAKUSHI1947.106.1_17|10.1248/YAKUSHI1947.107.3_209|10.1248/YAKUSHI1947.107.3_219|10.1248/YAKUSHI1947.107.3_227|10.1248/YAKUSHI1947.87.12_1535|10.1248/YAKUSHI1947.90.11_1367|10.1515/ZNC-1984-7-803|10.1515/ZNC-1988-5-604|10.1673/031.011.15201|10.2174/157340711798375822|10.2478/V10007-009-0022-Y|10.3109/10408447709082600

>  <synonyms>  (815) 
(E)5-1-Propenyl]-1,3-benzodioxole|1, 5-(2-propenyl)-|1, 5-allyl-|1,2-Methylenedioxy-4-allylbenzene|1,3-Benzodioxole, 5-(2-propenyl)-|1,3-Benzodioxole, 5-allyl-|1-Allyl-3,4-(methylenedioxy)benzene|3,4-(Methylenedioxy)allylbenzene|3-(3,4-Methylenedioxyphenyl)prop-1-ene|3-[(3,4-Methylenedioxy)phenyl]-1-propene|4-Allyl-1,2-methylenedioxybenzene|4-Allyl-1,2-methylenedioxybenzene; 5-Prop-2-enyl-1,3-benzodioxole|4-Allylpyrocatechol formaldehyde acetal|5-(2-Propenyl)-1,3-benzodioxole|5-(prop-2-en-1-yl)-2H-1,3-benzodioxole|5-19-01-00553 (Beilstein Handbook Reference)|5-Allyl-1,3-benzodioxole|5-Allyl-1,3-benzodioxolerlet DS Base|5-allyl-benzo(1,3)dioxole|5-allylbenzo[d][1,3]dioxole|5-prop-2-enyl-1,3-benzodioxole|94-59-7|AC-34312|AI3-00514|AKOS016017163|Alda-89|Allylcatechol methylene ether|Allyldioxybenzene methylene ether|BENZENE,1-ALLYL,3,4-METHYLENEDIOXY   SAFROLE|BRN 0136380|BSPBio_002810|Benzene, 1,2-methylenedioxy-4-allyl-|Benzene, 4-allyl-1,2-(methylenedioxy)-|CAS-94-59-7|CCG-214763|CCRIS 553|CHEBI:8994|CHEMBL242273|Caswell No. 729|DB-057512|DTXCID601254|DTXSID0021254|DivK1c_001022|EINECS 202-345-4|EPA Pesticide Chemical Code 097901|FS-3451|HMS1922E22|HMS503M05|HSDB 2653|IDI1_001022|InChI=1\/C10H10O2\/c1-2-3-8-4-5-9-10(6-8)12-7-11-9\/h2,4-6H,1,3,7H|KBio1_001022|KBio2_001926|KBio2_004494|KBio2_007062|KBio3_002030|KBioGR_002319|KBioSS_001926|M-ALLYL PYROCATECHINMETHYLENE ETHER|MFCD00005841|MLS001056251|NCGC00091122-01|NCGC00254416-01|NCGC00259988-01|NCI-C00362|NINDS_001022|NS00017606|NSC 11831|NSC-11831|Q412424|RCRA waste no. U203|RCRA waste number U203|RSB34337V9|SAFROLE (IARC)|SAFROLE (USP-RS)|SAFROLE [IARC]|SAFROLE [MI]|SAFROLE [USP-RS]|SCHEMBL13045858|SCHEMBL56828|SDCCGMLS-0066708.P001|SMR001216599|SPBio_000850|SPECTRUM1503620|SR-05000002392|Safrene|Safrol|Safrol glass|Safrole MF|Safrole, 10mg\/ml in Methanol|Safrole, >=97%|Safrole, certified reference material, TraceCERT(R)|Safroles|Sassafras|Shikimole|Shikomol|Spectrum2_000775|Spectrum3_001105|Spectrum4_001939|Spectrum5_000843|Spectrum_001446|Tox21_202439|Tox21_300520|UNII-RSB34337V9|USEPA\/OPP Pesticide Code: 097901|WLN: T56 BO DO CHJ G2U1|m-Allylpyrocatechin methylene ether|safrole

>  <cas>  (815) 
94-59-7

$$$$

     RDKit          2D

 24 25  0  0  0  0  0  0  0  0999 V2000
    4.6744   -3.0011    0.0000 C   0  0  0  0  0  0  0  0  0  0  0  0
    5.2191   -1.6035    0.0000 C   0  0  0  0  0  0  0  0  0  0  0  0
    4.2811   -0.4330    0.0000 C   0  0  0  0  0  0  0  0  0  0  0  0
    5.5967    0.2875    0.0000 C   0  0  0  0  0  0  0  0  0  0  0  0
    3.2912   -1.5601    0.0000 C   0  0  0  0  0  0  0  0  0  0  0  0
    1.8203   -1.2664    0.0000 C   0  0  0  0  0  0  0  0  0  0  0  0
    1.3391    0.1544    0.0000 C   0  0  0  0  0  0  0  0  0  0  0  0
   -0.1318    0.4481    0.0000 C   0  0  0  0  0  0  0  0  0  0  0  0
   -0.1656   -1.0516    0.0000 C   0  0  0  0  0  0  0  0  0  0  0  0
    0.4128    1.8457    0.0000 C   0  0  0  0  0  0  0  0  0  0  0  0
   -0.5252    3.0162    0.0000 C   0  0  0  0  0  0  0  0  0  0  0  0
   -2.0079    2.7891    0.0000 C   0  0  0  0  0  0  0  0  0  0  0  0
   -2.5526    1.3914    0.0000 C   0  0  0  0  0  0  0  0  0  0  0  0
   -3.5424    0.2644    0.0000 C   0  0  0  0  0  0  0  0  0  0  0  0
   -3.8344    2.1705    0.0000 C   0  0  0  0  0  0  0  0  0  0  0  0
   -1.6145    0.2209    0.0000 C   0  0  0  0  0  0  0  0  0  0  0  0
   -2.1592   -1.1767    0.0000 C   0  0  0  0  0  0  0  0  0  0  0  0
   -3.6419   -1.4038    0.0000 C   0  0  0  0  0  0  0  0  0  0  0  0
   -4.5800   -0.2333    0.0000 O   0  0  0  0  0  0  0  0  0  0  0  0
   -4.1866   -2.8014    0.0000 O   0  0  0  0  0  0  0  0  0  0  0  0
   -5.6693   -3.0285    0.0000 C   0  0  0  0  0  0  0  0  0  0  0  0
    2.3290    1.2814    0.0000 C   0  0  0  0  0  0  0  0  0  0  0  0
    1.8478    2.7022    0.0000 O   0  0  0  0  0  0  0  0  0  0  0  0
    3.7999    0.9877    0.0000 C   0  0  0  0  0  0  0  0  0  0  0  0
  1  2  2  0
  2  3  1  0
  3  4  1  6
  3  5  1  0
  5  6  1  0
  7  6  1  6
  7  8  1  0
  8  9  1  1
  8 10  1  0
 10 11  1  0
 11 12  1  0
 12 13  1  0
 13 14  1  0
 13 15  1  0
 13 16  1  0
 16 17  1  1
 17 18  1  0
 18 19  2  0
 18 20  1  0
 20 21  1  0
  7 22  1  0
 22 23  2  0
 22 24  1  0
 24  3  1  0
 16  8  1  0
M  END
>  <identifier>  (816) 
CNP0080542.1

>  <canonical_smiles>  (816) 
C=C[C@@]1(C)CC[C@H]([C@@]2(C)CCCC(C)(C)[C@@H]2CC(=O)OC)C(=O)C1

>  <standard_inchi>  (816) 
InChI=1S/C21H34O3/c1-7-20(4)12-9-15(16(22)14-20)21(5)11-8-10-19(2,3)17(21)13-18(23)24-6/h7,15,17H,1,8-14H2,2-6H3/t15-,17-,20-,21+/m0/s1

>  <standard_inchi_key>  (816) 
LDVSXMCXDQWZKB-STRKUORWSA-N

>  <name>  (816) 
nan

>  <iupac_name>  (816) 
methyl 2-[(1~{S},6~{S})-2,2,6-trimethyl-6-[(1~{R},4~{S})-4-methyl-2-oxo-4-vinyl-cyclohexyl]cyclohexyl]acetate

>  <annotation_level>  (816) 
3

>  <total_atom_count>  (816) 
58

>  <heavy_atom_count>  (816) 
24

>  <molecular_weight>  (816) 
334.5

>  <exact_molecular_weight>  (816) 
334.25079

>  <molecular_formula>  (816) 
C21H34O3

>  <alogp>  (816) 
4.94

>  <topological_polar_surface_area>  (816) 
43.37

>  <rotatable_bond_count>  (816) 
4

>  <hydrogen_bond_acceptors>  (816) 
3

>  <hydrogen_bond_donors>  (816) 
0

>  <hydrogen_bond_acceptors_lipinski>  (816) 
3

>  <hydrogen_bond_donors_lipinski>  (816) 
0

>  <lipinski_rule_of_five_violations>  (816) 
0

>  <aromatic_rings_count>  (816) 
0

>  <qed_drug_likeliness>  (816) 
0.54

>  <formal_charge>  (816) 
0

>  <fractioncsp3>  (816) 
0.81

>  <number_of_minimal_rings>  (816) 
2

>  <van_der_walls_volume>  (816) 
nan

>  <contains_sugar>  (816) 
False

>  <contains_ring_sugars>  (816) 
False

>  <contains_linear_sugars>  (816) 
False

>  <murcko_framework>  (816) 
C1CCC(CC1)C2CCCCC2

>  <np_likeness>  (816) 
2.34

>  <chemical_class>  (816) 
Carboxylic acids and derivatives

>  <chemical_sub_class>  (816) 
Carboxylic acid derivatives

>  <chemical_super_class>  (816) 
Organic acids and derivatives

>  <direct_parent_classification>  (816) 
Methyl esters

>  <np_classifier_pathway>  (816) 
Terpenoids

>  <np_classifier_superclass>  (816) 
Diterpenoids

>  <np_classifier_class>  (816) 
Pimarane and Isopimarane diterpenoids

>  <np_classifier_is_glycoside>  (816) 
False

>  <organisms>  (816) 
Vellozia compacta

>  <collections>  (816) 
Latin America dataset|NuBBEDB|WikiData Natural Products|ZINC NP

>  <dois>  (816) 
10.1016/0031-9422(83)80034-X

>  <synonyms>  (816) 
nan

>  <cas>  (816) 
nan

$$$$

     RDKit          2D

 25 27  0  0  0  0  0  0  0  0999 V2000
   -7.6924    1.6959    0.0000 C   0  0  0  0  0  0  0  0  0  0  0  0
   -7.1463    0.2988    0.0000 O   0  0  0  0  0  0  0  0  0  0  0  0
   -5.6634    0.0732    0.0000 C   0  0  0  0  0  0  0  0  0  0  0  0
   -4.7266    1.2447    0.0000 C   0  0  0  0  0  0  0  0  0  0  0  0
   -3.2436    1.0191    0.0000 C   0  0  0  0  0  0  0  0  0  0  0  0
   -2.6975   -0.3780    0.0000 C   0  0  0  0  0  0  0  0  0  0  0  0
   -1.2146   -0.6036    0.0000 C   0  0  0  0  0  0  0  0  0  0  0  0
   -0.6685   -2.0007    0.0000 C   0  0  0  0  0  0  0  0  0  0  0  0
    0.8144   -2.2263    0.0000 C   0  0  0  0  0  0  0  0  0  0  0  0
    1.3605   -3.6233    0.0000 O   0  0  0  0  0  0  0  0  0  0  0  0
    1.7513   -1.0548    0.0000 C   0  0  0  0  0  0  0  0  0  0  0  0
    3.2342   -1.2804    0.0000 C   0  0  0  0  0  0  0  0  0  0  0  0
    3.7803   -2.6775    0.0000 O   0  0  0  0  0  0  0  0  0  0  0  0
    5.2632   -2.9031    0.0000 C   0  0  0  0  0  0  0  0  0  0  0  0
    4.1711   -0.1090    0.0000 C   0  0  0  0  0  0  0  0  0  0  0  0
    3.6250    1.2881    0.0000 C   0  0  0  0  0  0  0  0  0  0  0  0
    4.5618    2.4596    0.0000 O   0  0  0  0  0  0  0  0  0  0  0  0
    6.0448    2.2339    0.0000 C   0  0  0  0  0  0  0  0  0  0  0  0
    2.1420    1.5137    0.0000 C   0  0  0  0  0  0  0  0  0  0  0  0
    1.5959    2.9108    0.0000 O   0  0  0  0  0  0  0  0  0  0  0  0
    2.5328    4.0822    0.0000 C   0  0  0  0  0  0  0  0  0  0  0  0
    1.2052    0.3422    0.0000 C   0  0  0  0  0  0  0  0  0  0  0  0
   -0.2778    0.5679    0.0000 O   0  0  0  0  0  0  0  0  0  0  0  0
   -3.6344   -1.5495    0.0000 C   0  0  0  0  0  0  0  0  0  0  0  0
   -5.1173   -1.3239    0.0000 C   0  0  0  0  0  0  0  0  0  0  0  0
  1  2  1  0
  2  3  1  0
  3  4  2  0
  4  5  1  0
  5  6  2  0
  6  7  1  0
  7  8  2  0
  8  9  1  0
  9 10  2  0
  9 11  1  0
 11 12  2  0
 12 13  1  0
 13 14  1  0
 12 15  1  0
 15 16  2  0
 16 17  1  0
 17 18  1  0
 16 19  1  0
 19 20  1  0
 20 21  1  0
 19 22  2  0
 22 23  1  0
  6 24  1  0
 24 25  2  0
 25  3  1  0
 23  7  1  0
 22 11  1  0
M  END
>  <identifier>  (817) 
CNP0165314.0

>  <canonical_smiles>  (817) 
COC1=CC=C(C2=CC(=O)C3=C(OC)C=C(OC)C(OC)=C3O2)C=C1

>  <standard_inchi>  (817) 
InChI=1S/C19H18O6/c1-21-12-7-5-11(6-8-12)14-9-13(20)17-15(22-2)10-16(23-3)18(24-4)19(17)25-14/h5-10H,1-4H3

>  <standard_inchi_key>  (817) 
DDGJUTBQQURRGE-UHFFFAOYSA-N

>  <name>  (817) 
6-Demethoxytangeretin

>  <iupac_name>  (817) 
5,7,8-trimethoxy-2-(4-methoxyphenyl)chromen-4-one

>  <annotation_level>  (817) 
5

>  <total_atom_count>  (817) 
43

>  <heavy_atom_count>  (817) 
25

>  <molecular_weight>  (817) 
342.35

>  <exact_molecular_weight>  (817) 
342.11034

>  <molecular_formula>  (817) 
C19H18O6

>  <alogp>  (817) 
3.49

>  <topological_polar_surface_area>  (817) 
67.13

>  <rotatable_bond_count>  (817) 
5

>  <hydrogen_bond_acceptors>  (817) 
6

>  <hydrogen_bond_donors>  (817) 
0

>  <hydrogen_bond_acceptors_lipinski>  (817) 
6

>  <hydrogen_bond_donors_lipinski>  (817) 
0

>  <lipinski_rule_of_five_violations>  (817) 
0

>  <aromatic_rings_count>  (817) 
3

>  <qed_drug_likeliness>  (817) 
0.71

>  <formal_charge>  (817) 
0

>  <fractioncsp3>  (817) 
0.21

>  <number_of_minimal_rings>  (817) 
3

>  <van_der_walls_volume>  (817) 
298.42

>  <contains_sugar>  (817) 
False

>  <contains_ring_sugars>  (817) 
False

>  <contains_linear_sugars>  (817) 
False

>  <murcko_framework>  (817) 
O1c2ccccc2CC=C1c3ccccc3

>  <np_likeness>  (817) 
0.78

>  <chemical_class>  (817) 
Flavonoids

>  <chemical_sub_class>  (817) 
O-methylated flavonoids

>  <chemical_super_class>  (817) 
Phenylpropanoids and polyketides

>  <direct_parent_classification>  (817) 
5-O-methylated flavonoids

>  <np_classifier_pathway>  (817) 
Shikimates and Phenylpropanoids

>  <np_classifier_superclass>  (817) 
Flavonoids

>  <np_classifier_class>  (817) 
Flavones

>  <np_classifier_is_glycoside>  (817) 
False

>  <organisms>  (817) 
Aceriphyllum rossii|Agnorhiza bolanderi|Alligator mississippiensis|Anaxagorea clavata|Araujia sericifera|Aria pallescens|Arnica nevadensis|Artemisia monogyna|Bassia butyracea|Beyeria brevifolia|Bos taurus|Bubalus bubalis|Bursaria spinosa|Cherry Orange|Chloranthus tianmushanensis|Chromolaena odorata|Chromolaena pulchella|Citrus Sinensis|Citrus aurantium|Citrus hassaku|Citrus japonica|Citrus maxima|Citrus medica|Citrus reticulata|Citrus sinensis|Citrus sp.|Citrus tankan|Citrus unshiu|Citrus × deliciosa|Citrus × paradisi|Cladonia evansii|Cleistochlamys kirkii|Clonostachys rosea|Coccus fagi|Dendrosenecio kilimanjari|Dipterocarpus alatus|Drosera peltata|Echinops amplexicaulis|Epaltes gariepina|Erythrina schliebenii|Ficus formosana|Fusarium gibbosum|Gardenia fosbergii|Ilex affinis|Isodon kameba|Juncus effusus|Kaempferia pulchra|Kumquat|Lactarius scrobiculatus|Neoraputia alba|Odixia angusta|Pheidole pallidula|Prosopis glandulosa|Prunus laurocerasus|Pseudopterogorgia kallos|Pteris prolifera|Pterocarpus grandiflorus|Pyrosoma giganteum|Quercus aegilops|Rhizobium phaseoli|Salvia officinalis|Securidaca inappendiculata|Senecio squalidus|Seriphidium cinum|Sesbania punicea|Simira eliezeriana|Stenostomum lucidum|Streptomyces althioticus|Taxodium mucronatum|Vitex madiensis

>  <collections>  (817) 
ANPDB|CMAUP (cCollective molecular activities of useful plants)|FooDB|KNApSaCK|Latin America dataset|NANPDB (Natural Products from Northern African Sources)|NPASS|NPEdia|NuBBEDB|Super Natural II|TCMDB-Taiwan (Traditional Chinese Medicine database)|TCMID (Traditional Chinese Medicine Integrated Database)|UNPD (Universal Natural Products Database)|VietHerb|WikiData Natural Products|ZINC NP

>  <dois>  (817) 
10.1016/0031-9422(95)00648-6|10.1016/J.CHROMA.2017.12.022|10.1016/J.FOODCHEM.2009.06.059|10.1016/J.JPBA.2019.03.056|10.1021/acs.jnatprod.6b00839|10.1248/CPB.28.717|10.1248/CPB.37.1092|10.1248/CPB.41.714|10.1248/CPB.49.1356|10.3390/MOLECULES22071114|10.5935/0103-5053.19930018

>  <synonyms>  (817) 
2U2U884D0P|4',5,7,8-Tetramethoxyflavone|4H-1-Benzopyran-4-one, 5,7,8-trimethoxy-2-(4-methoxyphenyl)-|5,7,8,4''-TETRAMETHOXYFLAVONE|5,7,8,4'-tetramethoxyflavone|5,7,8-trimethoxy-2-(4-methoxyphenyl)chromen-4-one|6-Demethoxytangeritin|6601-66-7|AC-34592|AKOS025287977|CHEBI:228844|CHEMBL556454|CS-0032143|DDGJUTBQQURRGE-UHFFFAOYSA-N|DTXSID20348077|F21514|HY-N4126|LMPK12111369|MS-25234|PD125557|Q27255597|SCHEMBL987020|Tetra-O-methylisoscutellarein|UNII-2U2U884D0P

>  <cas>  (817) 
6601-66-7

$$$$

     RDKit          2D

 18 19  0  0  0  0  0  0  0  0999 V2000
   -4.6666   -2.6810    0.0000 O   0  0  0  0  0  0  0  0  0  0  0  0
   -4.0804   -1.3003    0.0000 C   0  0  0  0  0  0  0  0  0  0  0  0
   -4.9830   -0.1023    0.0000 C   0  0  0  0  0  0  0  0  0  0  0  0
   -4.3967    1.2784    0.0000 C   0  0  0  0  0  0  0  0  0  0  0  0
   -5.2993    2.4765    0.0000 O   0  0  0  0  0  0  0  0  0  0  0  0
   -2.9079    1.4610    0.0000 C   0  0  0  0  0  0  0  0  0  0  0  0
   -2.0053    0.2630    0.0000 C   0  0  0  0  0  0  0  0  0  0  0  0
   -0.5164    0.4456    0.0000 C   0  0  0  0  0  0  0  0  0  0  0  0
    0.3862   -0.7524    0.0000 C   0  0  0  0  0  0  0  0  0  0  0  0
    1.8750   -0.5698    0.0000 C   0  0  0  0  0  0  0  0  0  0  0  0
    2.7776   -1.7679    0.0000 C   0  0  0  0  0  0  0  0  0  0  0  0
    4.2664   -1.5852    0.0000 C   0  0  0  0  0  0  0  0  0  0  0  0
    4.8527   -0.2045    0.0000 C   0  0  0  0  0  0  0  0  0  0  0  0
    6.3415   -0.0219    0.0000 O   0  0  0  0  0  0  0  0  0  0  0  0
    3.9501    0.9935    0.0000 C   0  0  0  0  0  0  0  0  0  0  0  0
    4.5363    2.3742    0.0000 O   0  0  0  0  0  0  0  0  0  0  0  0
    2.4612    0.8109    0.0000 C   0  0  0  0  0  0  0  0  0  0  0  0
   -2.5915   -1.1177    0.0000 C   0  0  0  0  0  0  0  0  0  0  0  0
  1  2  1  0
  2  3  2  0
  3  4  1  0
  4  5  1  0
  4  6  2  0
  6  7  1  0
  7  8  1  0
  8  9  2  0
  9 10  1  0
 10 11  2  0
 11 12  1  0
 12 13  2  0
 13 14  1  0
 13 15  1  0
 15 16  1  0
 15 17  2  0
  7 18  2  0
 18  2  1  0
 17 10  1  0
M  END
>  <identifier>  (818) 
CNP0171967.1

>  <canonical_smiles>  (818) 
OC1=CC(O)=CC(/C=C/C2=CC=C(O)C(O)=C2)=C1

>  <standard_inchi>  (818) 
InChI=1S/C14H12O4/c15-11-5-10(6-12(16)8-11)2-1-9-3-4-13(17)14(18)7-9/h1-8,15-18H/b2-1+

>  <standard_inchi_key>  (818) 
CDRPUGZCRXZLFL-OWOJBTEDSA-N

>  <name>  (818) 
nan

>  <iupac_name>  (818) 
nan

>  <annotation_level>  (818) 
0

>  <total_atom_count>  (818) 
30

>  <heavy_atom_count>  (818) 
18

>  <molecular_weight>  (818) 
244.25

>  <exact_molecular_weight>  (818) 
244.07356

>  <molecular_formula>  (818) 
C14H12O4

>  <alogp>  (818) 
2.68

>  <topological_polar_surface_area>  (818) 
80.92

>  <rotatable_bond_count>  (818) 
2

>  <hydrogen_bond_acceptors>  (818) 
4

>  <hydrogen_bond_donors>  (818) 
4

>  <hydrogen_bond_acceptors_lipinski>  (818) 
4

>  <hydrogen_bond_donors_lipinski>  (818) 
4

>  <lipinski_rule_of_five_violations>  (818) 
0

>  <aromatic_rings_count>  (818) 
2

>  <qed_drug_likeliness>  (818) 
0.48

>  <formal_charge>  (818) 
0

>  <fractioncsp3>  (818) 
0.00

>  <number_of_minimal_rings>  (818) 
2

>  <van_der_walls_volume>  (818) 
216.98

>  <contains_sugar>  (818) 
False

>  <contains_ring_sugars>  (818) 
False

>  <contains_linear_sugars>  (818) 
False

>  <murcko_framework>  (818) 
c1ccc(cc1)C=Cc2ccccc2

>  <np_likeness>  (818) 
1.03

>  <chemical_class>  (818) 
nan

>  <chemical_sub_class>  (818) 
nan

>  <chemical_super_class>  (818) 
nan

>  <direct_parent_classification>  (818) 
nan

>  <np_classifier_pathway>  (818) 
Shikimates and Phenylpropanoids

>  <np_classifier_superclass>  (818) 
Stilbenoids

>  <np_classifier_class>  (818) 
Monomeric stilbenes

>  <np_classifier_is_glycoside>  (818) 
False

>  <organisms>  (818) 
Abies alba|Abies spectabilis|Acacia adunca|Aconitum heterophylloides|Adiantum lunulatum|Aiphanes horrida|Alstonia spathulata|Amathia pinnata|Anacystis montana|Annona cornifolia|Arabidopsis thaliana|Artemisia assoana|Asterospicularia laurae|Astragalus cibarius|Astragalus sempervirens|Azotobacter agilis|Bishovia boliviensis|Blastochloris viridis|Boehmeria nivea|Bolboschoenus fluviatilis|Calostephane divaricata|Capsicum tetragonum|Caragana aurantiaca|Caragana tibetica|Caragana tibetica KOM.|Carica pennata|Cassia Garrettiana|Cassia dentata|Cassia garrettiana|Cassia javanica|Cassia marginata|Celaenodendron mexicanum|Centrolobium robustum|Centrolobium tomentosum|Chaenomeles sinensis|Chamaecrista dentata|Chamaecrista flexuosa|Chamaecrista greggii|Cissus quadrangularis|Cladrastis platycarpa|Coffea|Coprosma lucida|Cotyledon secunda|Crotalaria anagyroides|Croton poilanei|Cyperus longus|Dasymaschalon sootepense|Dermocybe canaria|Dictyoloma incanescens|Dictyopteris undulata|Dioscorea antaly|Drechslera avenae|Dumortiera hirsuta|Eleutherococcus sessiliflorus|Eskemukerjea megacarpum HARA|Eucalyptus melliodora|Eucalyptus sideroxylon|Euonymus sachalinensis|Eupatorium adenophorum|Euphorbia lagascae|Fagopyrum megacarpum|Fallopia japonica var. japonica|Felicia erigeroides|Fritillaria persica|Gnetum latifolium|Goniothalamus malayanus|Guatteria melosma|Gymnosporia diversifolia|Hedysarum connatum|Helipterum roseum|Hylotelephium telephium|Hypericum laricifolium|Intsia Bijuga|Intsia bijuga|Ipomoea digitata|Laburnum alpinum|Laburnum anagyroides|Laurencia spectabilis|Leathesia nana|Lentzea albida|Lepisorus ussuriensis|Lobophytum chevalieri|Lupinus paniculatus|Lycoris traubii|Lygodium flexuosum|Lysimachia mauritiana|Maackia amurensis|Malus|Marrubium anisodon|Melaleuca leucadendra|Melaleuca leucadendron|Melaleuca sp.|Methylobacterium rhodinum|Morus spp.|Nasutitermes ephratae|Naucleopsis ternstroemiiflora|Panax ginseng|Parthenocissus quinquefolia|Parthenocissus tricuspidata|Pastinaca sativa|Peltostigma guatemalense|Pericopsis angolensis|Pericopsis elata|Phalaenopsis cornu-cervi|Phoebe pittieri|Phytolacca americana|Picea abies|Picea engelmannii|Picea excelsa|Picea glauca|Picea glehnii|Picea jezoensis|Picea jezoensis var. jezoensis|Picea mariana|Picea obovata|Picea ojanensis|Picea rubens|Picea sitchensis|Picea sp.|Pinus koraiensis|Pinus radiata|Pinus sp.|Pinus spp.|Polygonum cuspidatum|Premna odorata|Prunus avium|Prunus dulcis|Pseudoalteromonas luteoviolacea|Rauvolfia vomitoria|Rheum|Rheum coreanum|Rheum officinale|Rheum palmatum|Rheum rhaponticum|Rheum sp.|Rheum spp.|Rheum sublanceolatum|Rheum tanguticum|Rheum undulatum|Rheum wittrocki|Rumex maritimus|Sabina sargentii|Saccharum Officinarum|Saccharum officinarum|Saccharum spontaneum|Salvia syriaca|Schotia brachypetala|Scirpus fluviatilis|Scirpus maritimus|Scutellaria amoena|Securinega melanthesoides|Senna garrettiana|Senna lindheimeriana|Senna quinquangulata|Senna siamea|Senna skinneri|Sinularia depressa|Smilax bracteata|Smilax china|Smilax corbularia|Smilax glabra|Smilax menispermoidea|Solanum laxum|Sophora yunnanensis|Spirotropis longifolia|Streptomyces avermectinius|Streptomyces avermitilis|Streptomyces avermitilis MA4680|Strychnos staudtii|Stuhlmannia moavi|Stypopodium zonale|Suberea mollis|Sugarcane|Swertia franchetiana|Syagrus romanzoffiana|Thelephora palmata|Tilia|Trinia scabra|Tsuga mertensiana|Tsuga sp.|Vaccinium oxycoccos|Vaccinium stamineum|Veratrum dahuricum|Vernonia menthaefolia|Viguiera incana|Vitis|Vitis amurensis|Vitis sp.|Vitis vinifera|Vouacapoua americana|Vouacapoua macropetala|Widely distributed in plant|Wikstroemia retusa|Zanthoxylum tetraspermum|rhubarb|stuhlmannia moavi

>  <collections>  (818) 
AnalytiCon Discovery NPs|Australian natural products|CMAUP (cCollective molecular activities of useful plants)|ChEBI NPs|ChemSpider NPs|ConMedNP|DrugBankNP|FooDB|InflamNat|KNApSaCK|Latin America dataset|NPACT|NPASS|NPEdia|NuBBEDB|Phyto4Health|PhytoLab phyproof® Reference Substances|StreptomeDB|Super Natural II|TCMDB-Taiwan (Traditional Chinese Medicine database)|TIPdb (database of Taiwan indigenous plants)|VietHerb|WikiData Natural Products|p-ANAPL

>  <dois>  (818) 
10.1002/HON.2122|10.1002/JSSC.200800119|10.1002/MNFR.200700252|10.1002/PROS.22801|10.1002/PTR.2334|10.1002/PTR.5185|10.1006/BBRC.1999.1063|10.1007/BF00563957|10.1007/BF00576208|10.1007/BF00630268|10.1007/BF02979065|10.1007/S00253-015-6691-1|10.1007/S10600-006-0090-X|10.1016/0006-2952(92)90096-2|10.1016/0031-9422(73)80461-3|10.1016/0031-9422(91)83181-J|10.1016/0031-9422(92)80483-U|10.1016/0031-9422(92)83500-X|10.1016/0031-9422(96)00110-0|10.1016/B978-0-08-101926-9.00005-5|10.1016/J.BBAMEM.2009.06.005|10.1016/J.BBRC.2014.08.150|10.1016/J.BMC.2004.07.007|10.1016/J.BMC.2013.10.038|10.1016/J.BMCL.2006.01.043|10.1016/J.CANLET.2009.05.011|10.1016/J.CHROMA.2008.12.058|10.1016/J.CHROMA.2010.12.026|10.1016/J.CHROMA.2013.09.045|10.1016/J.FOODCHEM.2013.10.057|10.1016/J.FOODCHEM.2013.10.131|10.1016/J.INTIMP.2013.07.007|10.1016/J.JCHROMB.2007.03.007|10.1016/J.JHAZMAT.2018.11.065|10.1016/J.JNUTBIO.2015.07.005|10.1016/J.PHYTOCHEM.2007.12.004|10.1016/J.PHYTOCHEM.2008.01.002|10.1016/J.PHYTOCHEM.2010.03.014|10.1016/J.PHYTOCHEM.2010.12.018|10.1016/J.PHYTOCHEM.2011.10.011|10.1016/J.PHYTOCHEM.2016.08.011|10.1016/S0014-2999(02)01534-0|10.1016/S0024-3205(97)00883-7|10.1016/S0031-9422(00)85606-X|10.1016/S0031-9422(00)86214-7|10.1016/S0031-9422(00)90367-4|10.1016/S0031-9422(00)94705-8|10.1016/S0031-9422(00)97984-6|10.1016/S0031-9422(98)00071-5|10.1016/S0040-4020(01)81569-6|10.1016/S0040-4020(01)92498-6|10.1016/S0367-326X(00)00129-5|10.1016/S0367-326X(00)00155-6|10.1016/S0960-894X(99)00702-7|10.1016/S0968-0896(00)00215-7|10.1016/S0968-0896(01)00093-1|10.1016/j.bmc.2009.07.016|10.1016/j.bmc.2013.10.038|10.1016/s0960-894x(99)00702-7|10.1021/CB300222B|10.1021/JF040095E|10.1021/JF061155E|10.1021/JF404694Y|10.1021/JF5050266|10.1021/NP010173H|10.1021/NP50032A019|10.1021/NP50068A037|10.1021/NP9902744|10.1021/OL015985J|10.1021/acs.jnatprod.7b00384|10.1021/cb300222b|10.1021/np50032a019|10.1021/np990010h|10.1039/JR9560004477|10.1039/P19740000961|10.1039/P19760000186|10.1046/J.1365-2222.2001.01236.X|10.1055/S-2005-871229|10.1055/S-2007-990246|10.1071/CH9841127|10.1071/bi9691425|10.1080/10286020310001625076|10.1080/10575639908048789|10.1093/CARCIN/BGQ099|10.1124/DMD.108.026484|10.1158/1535-7163.MCT-08-0891|10.1248/BPB.24.264|10.1248/BPB.B15-00009|10.1248/CPB.26.3050|10.1248/CPB.27.984|10.1248/CPB.32.213|10.1248/CPB.32.3501|10.1248/CPB.36.1545|10.1248/CPB.39.3276|10.1248/CPB.39.3353|10.1248/CPB.53.1204|10.1248/CPB.54.136|10.1248/CPB.58.1379|10.1248/CPB.58.1646|10.1248/CPB.59.1567|10.1248/YAKUSHI1947.104.7_819|10.2174/1871520614666141016165057|10.2174/18715281113129990011|10.3176/CHEM.2003.3.01|10.3727/096504015X14386062091398|10.3891/ACTA.CHEM.SCAND.17-1781|10.3892/IJMM.2013.1283|10.3892/MMR.2015.3553|10.3892/MMR.2015.4156|10.3987/COM-02-9596

>  <synonyms>  (818) 
3,3',4,5'-Stilbenetetrol|Astringenin|trans-3,3',4,5'-Tetrahydroxystilbene

>  <cas>  (818) 
10083-24-6

$$$$

     RDKit          2D

 29 31  0  0  0  0  0  0  0  0999 V2000
   -8.8474   -0.3374    0.0000 C   0  0  0  0  0  0  0  0  0  0  0  0
   -7.3527   -0.2115    0.0000 C   0  0  0  0  0  0  0  0  0  0  0  0
   -6.4962   -1.4429    0.0000 C   0  0  0  0  0  0  0  0  0  0  0  0
   -7.1345   -2.8004    0.0000 C   0  0  0  0  0  0  0  0  0  0  0  0
   -5.0015   -1.3170    0.0000 C   0  0  0  0  0  0  0  0  0  0  0  0
   -4.3633    0.0405    0.0000 C   0  0  0  0  0  0  0  0  0  0  0  0
   -2.8686    0.1664    0.0000 C   0  0  0  0  0  0  0  0  0  0  0  0
   -2.2303    1.5238    0.0000 C   0  0  0  0  0  0  0  0  0  0  0  0
   -0.7356    1.6498    0.0000 C   0  0  0  0  0  0  0  0  0  0  0  0
   -0.0973    3.0072    0.0000 C   0  0  0  0  0  0  0  0  0  0  0  0
   -0.9538    4.2387    0.0000 Cl  0  0  0  0  0  0  0  0  0  0  0  0
    1.3974    3.1332    0.0000 C   0  0  0  0  0  0  0  0  0  0  0  0
    2.0356    4.4906    0.0000 O   0  0  0  0  0  0  0  0  0  0  0  0
    2.2538    1.9017    0.0000 C   0  0  0  0  0  0  0  0  0  0  0  0
    3.0305    3.1850    0.0000 C   0  0  0  0  0  0  0  0  0  0  0  0
    3.7420    1.7142    0.0000 O   0  0  0  0  0  0  0  0  0  0  0  0
    4.0236    0.2408    0.0000 C   0  0  0  0  0  0  0  0  0  0  0  0
    5.3810   -0.3974    0.0000 O   0  0  0  0  0  0  0  0  0  0  0  0
    2.7093   -0.4822    0.0000 C   0  0  0  0  0  0  0  0  0  0  0  0
    2.5218   -1.9704    0.0000 C   0  0  0  0  0  0  0  0  0  0  0  0
    1.1391   -2.5521    0.0000 O   0  0  0  0  0  0  0  0  0  0  0  0
    3.7168   -2.8770    0.0000 C   0  0  0  0  0  0  0  0  0  0  0  0
    3.5293   -4.3652    0.0000 C   0  0  0  0  0  0  0  0  0  0  0  0
    5.0994   -2.2953    0.0000 C   0  0  0  0  0  0  0  0  0  0  0  0
    6.2945   -3.2018    0.0000 C   0  0  0  0  0  0  0  0  0  0  0  0
    1.6156    0.5443    0.0000 C   0  0  0  0  0  0  0  0  0  0  0  0
    0.1209    0.4183    0.0000 C   0  0  0  0  0  0  0  0  0  0  0  0
   -0.5174   -0.9391    0.0000 C   0  0  0  0  0  0  0  0  0  0  0  0
   -2.0121   -1.0651    0.0000 O   0  0  0  0  0  0  0  0  0  0  0  0
  1  2  1  0
  2  3  1  0
  3  4  1  1
  3  5  1  0
  5  6  2  0
  6  7  1  0
  7  8  2  0
  8  9  1  0
  9 10  2  0
 10 11  1  0
 10 12  1  0
 12 13  2  0
 12 14  1  0
 14 15  1  6
 14 16  1  0
 16 17  1  0
 17 18  2  0
 17 19  1  0
 19 20  1  0
 20 21  2  0
 20 22  1  0
 22 23  1  1
 22 24  1  0
 24 25  1  0
 19 26  2  0
 26 27  1  0
 27 28  2  0
 28 29  1  0
 29  7  1  0
 27  9  1  0
 26 14  1  0
M  END
>  <identifier>  (819) 
CNP0133166.1

>  <canonical_smiles>  (819) 
CC[C@H](C)/C=C/C1=CC2=C(Cl)C(=O)[C@@]3(C)OC(=O)C(C(=O)[C@H](C)CC)=C3C2=CO1

>  <standard_inchi>  (819) 
InChI=1S/C23H25ClO5/c1-6-12(3)8-9-14-10-15-16(11-28-14)18-17(20(25)13(4)7-2)22(27)29-23(18,5)21(26)19(15)24/h8-13H,6-7H2,1-5H3/b9-8+/t12-,13+,23-/m0/s1

>  <standard_inchi_key>  (819) 
SPBQVEOEFQCPDM-YMWLQJPLSA-N

>  <name>  (819) 
4'-Epichaetoviridin F

>  <iupac_name>  (819) 
(6~{a}~{S})-5-chloro-6~{a}-methyl-9-[(2~{R})-2-methylbutanoyl]-3-[(~{E},3~{S})-3-methylpent-1-enyl]furo[2,3-h]isochromene-6,8-dione

>  <annotation_level>  (819) 
5

>  <total_atom_count>  (819) 
54

>  <heavy_atom_count>  (819) 
29

>  <molecular_weight>  (819) 
416.9

>  <exact_molecular_weight>  (819) 
416.13905

>  <molecular_formula>  (819) 
C23H25ClO5

>  <alogp>  (819) 
4.69

>  <topological_polar_surface_area>  (819) 
69.67

>  <rotatable_bond_count>  (819) 
6

>  <hydrogen_bond_acceptors>  (819) 
5

>  <hydrogen_bond_donors>  (819) 
0

>  <hydrogen_bond_acceptors_lipinski>  (819) 
5

>  <hydrogen_bond_donors_lipinski>  (819) 
0

>  <lipinski_rule_of_five_violations>  (819) 
0

>  <aromatic_rings_count>  (819) 
0

>  <qed_drug_likeliness>  (819) 
0.46

>  <formal_charge>  (819) 
0

>  <fractioncsp3>  (819) 
0.44

>  <number_of_minimal_rings>  (819) 
3

>  <van_der_walls_volume>  (819) 
373.10

>  <contains_sugar>  (819) 
False

>  <contains_ring_sugars>  (819) 
False

>  <contains_linear_sugars>  (819) 
False

>  <murcko_framework>  (819) 
O1C=CC2=CCC3OCC=C3C2=C1

>  <np_likeness>  (819) 
2.70

>  <chemical_class>  (819) 
Organooxygen compounds

>  <chemical_sub_class>  (819) 
Carbonyl compounds

>  <chemical_super_class>  (819) 
Organic oxygen compounds

>  <direct_parent_classification>  (819) 
Cyclohexenones

>  <np_classifier_pathway>  (819) 
Polyketides

>  <np_classifier_superclass>  (819) 
Chromanes

>  <np_classifier_class>  (819) 
Azaphilones

>  <np_classifier_is_glycoside>  (819) 
False

>  <organisms>  (819) 
Chaetomium globosum

>  <collections>  (819) 
ChEBI NPs|Latin America dataset|NPASS|NuBBEDB|WikiData Natural Products

>  <dois>  (819) 
10.1021/NP200110F|10.1021/np200110f

>  <synonyms>  (819) 
(6aS)-5-chloro-6a-methyl-9-[(2R)-2-methylbutanoyl]-3-[(1E,3S)-3-methylpent-1-en-1-yl]-6H-furo[2,3-h]isochromene-6,8(6aH)-dione|4'-epichaetoviridin F|CHEBI:67617|CHEMBL1802156|Q27136084

>  <cas>  (819) 
nan

$$$$

     RDKit          2D

 43 45  0  0  0  0  0  0  0  0999 V2000
   -1.8583    6.4154    0.0000 C   0  0  0  0  0  0  0  0  0  0  0  0
   -0.8777    5.2803    0.0000 C   0  0  0  0  0  0  0  0  0  0  0  0
    0.5956    5.5620    0.0000 C   0  0  0  0  0  0  0  0  0  0  0  0
    1.0883    6.9787    0.0000 C   0  0  0  0  0  0  0  0  0  0  0  0
    1.5762    4.4269    0.0000 C   0  0  0  0  0  0  0  0  0  0  0  0
    1.0835    3.0101    0.0000 C   0  0  0  0  0  0  0  0  0  0  0  0
    2.0641    1.8750    0.0000 C   0  0  0  0  0  0  0  0  0  0  0  0
    3.0117    3.0379    0.0000 C   0  0  0  0  0  0  0  0  0  0  0  0
    0.7760    1.1064    0.0000 C   0  0  0  0  0  0  0  0  0  0  0  0
   -0.5337    1.8377    0.0000 C   0  0  0  0  0  0  0  0  0  0  0  0
    0.7976   -0.3934    0.0000 C   0  0  0  0  0  0  0  0  0  0  0  0
   -0.4905   -1.1620    0.0000 O   0  0  0  0  0  0  0  0  0  0  0  0
   -1.8002   -0.4308    0.0000 C   0  0  0  0  0  0  0  0  0  0  0  0
   -1.8218    1.0691    0.0000 O   0  0  0  0  0  0  0  0  0  0  0  0
   -3.0883   -1.1994    0.0000 C   0  0  0  0  0  0  0  0  0  0  0  0
   -4.3980   -0.4682    0.0000 C   0  0  0  0  0  0  0  0  0  0  0  0
   -5.6861   -1.2368    0.0000 C   0  0  0  0  0  0  0  0  0  0  0  0
   -6.9958   -0.5055    0.0000 C   0  0  0  0  0  0  0  0  0  0  0  0
   -8.2839   -1.2741    0.0000 C   0  0  0  0  0  0  0  0  0  0  0  0
   -9.5936   -0.5429    0.0000 C   0  0  0  0  0  0  0  0  0  0  0  0
  -10.8817   -1.3115    0.0000 C   0  0  0  0  0  0  0  0  0  0  0  0
  -12.1914   -0.5803    0.0000 C   0  0  0  0  0  0  0  0  0  0  0  0
  -13.4796   -1.3489    0.0000 C   0  0  0  0  0  0  0  0  0  0  0  0
    2.1073   -1.1246    0.0000 C   0  0  0  0  0  0  0  0  0  0  0  0
    1.7653   -2.5851    0.0000 O   0  0  0  0  0  0  0  0  0  0  0  0
    3.3954   -0.3560    0.0000 C   0  0  0  0  0  0  0  0  0  0  0  0
    4.7051   -1.0873    0.0000 C   0  0  0  0  0  0  0  0  0  0  0  0
    5.9932   -0.3187    0.0000 C   0  0  0  0  0  0  0  0  0  0  0  0
    5.9716    1.1812    0.0000 C   0  0  0  0  0  0  0  0  0  0  0  0
    7.2597    1.9498    0.0000 O   0  0  0  0  0  0  0  0  0  0  0  0
    4.6619    1.9124    0.0000 C   0  0  0  0  0  0  0  0  0  0  0  0
    3.3738    1.1438    0.0000 C   0  0  0  0  0  0  0  0  0  0  0  0
    4.5758   -0.5495    0.0000 C   0  0  0  0  0  0  0  0  0  0  0  0
    5.4340   -3.6590    0.0000 O   0  0  0  0  0  0  0  0  0  0  0  0
    4.9910   -5.0921    0.0000 C   0  0  0  0  0  0  0  0  0  0  0  0
    6.0107   -6.1923    0.0000 C   0  0  0  0  0  0  0  0  0  0  0  0
    3.5285   -5.4250    0.0000 O   0  0  0  0  0  0  0  0  0  0  0  0
    3.9487   -0.9035    0.0000 O   0  0  0  0  0  0  0  0  0  0  0  0
    3.9210   -0.1839    0.0000 C   0  0  0  0  0  0  0  0  0  0  0  0
    0.8237   -1.0849    0.0000 O   0  0  0  0  0  0  0  0  0  0  0  0
   -0.1639   -2.2140    0.0000 C   0  0  0  0  0  0  0  0  0  0  0  0
   -1.6354   -1.9232    0.0000 C   0  0  0  0  0  0  0  0  0  0  0  0
    0.3201   -3.6337    0.0000 O   0  0  0  0  0  0  0  0  0  0  0  0
  1  2  2  0
  2  3  1  0
  3  4  2  0
  3  5  1  0
  5  6  1  0
  6  7  1  0
  7  8  1  6
  7  9  1  0
  9 10  1  1
  9 11  1  0
 11 12  1  6
 12 13  1  0
 13 14  2  0
 13 15  1  0
 15 16  2  0
 16 17  1  0
 17 18  2  0
 18 19  1  0
 19 20  1  0
 20 21  1  0
 21 22  1  0
 22 23  1  0
 11 24  1  0
 24 25  1  1
 24 26  1  0
 26 27  1  6
 27 28  2  0
 28 29  1  0
 29 30  1  1
 29 31  1  0
 32 31  1  6
 27 33  1  0
 33 34  1  6
 34 35  1  0
 35 36  1  0
 35 37  2  0
 33 38  1  0
 38 39  1  0
 39 40  1  1
 40 41  1  0
 41 42  1  0
 41 43  2  0
 32  7  1  0
 32 26  1  0
 39 26  1  0
M  END
>  <identifier>  (820) 
CNP0085361.1

>  <canonical_smiles>  (820) 
C=CC(=C)CC[C@]1(C)[C@H](C)[C@@H](OC(=O)/C=C/C=C/CCCCC)[C@H](O)[C@@]23C(=C[C@H](O)C[C@@H]12)[C@@H](OC(C)=O)O[C@@H]3OC(C)=O

>  <standard_inchi>  (820) 
InChI=1S/C34H48O9/c1-8-10-11-12-13-14-15-16-28(38)42-29-22(4)33(7,18-17-21(3)9-2)27-20-25(37)19-26-31(40-23(5)35)43-32(41-24(6)36)34(26,27)30(29)39/h9,13-16,19,22,25,27,29-32,37,39H,2-3,8,10-12,17-18,20H2,1,4-7H3/b14-13+,16-15+/t22-,25+,27+,29-,30+,31+,32+,33-,34-/m1/s1

>  <standard_inchi_key>  (820) 
WGHDGSZCVSIZQE-MRXMUHBJSA-N

>  <name>  (820) 
nan

>  <iupac_name>  (820) 
[(1~{R},3~{R},5~{R},6~{a}~{S},7~{S},8~{S},9~{R},10~{R},10~{a}~{S})-1,3-diacetoxy-5,10-dihydroxy-7,8-dimethyl-7-(3-methylenepent-4-enyl)-1,3,5,6,6~{a},8,9,10-octahydrobenzo[d]isobenzofuran-9-yl] (2~{E},4~{E})-deca-2,4-dienoate

>  <annotation_level>  (820) 
5

>  <total_atom_count>  (820) 
91

>  <heavy_atom_count>  (820) 
43

>  <molecular_weight>  (820) 
600.75

>  <exact_molecular_weight>  (820) 
600.32983

>  <molecular_formula>  (820) 
C34H48O9

>  <alogp>  (820) 
5.23

>  <topological_polar_surface_area>  (820) 
128.59

>  <rotatable_bond_count>  (820) 
13

>  <hydrogen_bond_acceptors>  (820) 
9

>  <hydrogen_bond_donors>  (820) 
2

>  <hydrogen_bond_acceptors_lipinski>  (820) 
9

>  <hydrogen_bond_donors_lipinski>  (820) 
2

>  <lipinski_rule_of_five_violations>  (820) 
2

>  <aromatic_rings_count>  (820) 
0

>  <qed_drug_likeliness>  (820) 
0.07

>  <formal_charge>  (820) 
0

>  <fractioncsp3>  (820) 
0.62

>  <number_of_minimal_rings>  (820) 
3

>  <van_der_walls_volume>  (820) 
570.91

>  <contains_sugar>  (820) 
False

>  <contains_ring_sugars>  (820) 
False

>  <contains_linear_sugars>  (820) 
False

>  <murcko_framework>  (820) 
O1CC2=CCCC3CCCCC23C1

>  <np_likeness>  (820) 
3.34

>  <chemical_class>  (820) 
Prenol lipids

>  <chemical_sub_class>  (820) 
Diterpenoids

>  <chemical_super_class>  (820) 
Lipids and lipid-like molecules

>  <direct_parent_classification>  (820) 
Colensane and clerodane diterpenoids

>  <np_classifier_pathway>  (820) 
Terpenoids

>  <np_classifier_superclass>  (820) 
Diterpenoids

>  <np_classifier_class>  (820) 
Colensane and Clerodane diterpenoids

>  <np_classifier_is_glycoside>  (820) 
True

>  <organisms>  (820) 
Casearia rupestris

>  <collections>  (820) 
ChemSpider NPs|Latin America dataset|NuBBEDB|Super Natural II|WikiData Natural Products|ZINC NP

>  <dois>  (820) 
10.1021/NP100840W|10.1021/np100840w

>  <synonyms>  (820) 
Casearupestrin B

>  <cas>  (820) 
nan

$$$$

     RDKit          2D

 21 23  0  0  0  0  0  0  0  0999 V2000
   -7.0000    2.0064    0.0000 C   0  0  0  0  0  0  0  0  0  0  0  0
   -6.5025    0.5913    0.0000 O   0  0  0  0  0  0  0  0  0  0  0  0
   -5.0283    0.3145    0.0000 C   0  0  0  0  0  0  0  0  0  0  0  0
   -4.0515    1.4529    0.0000 C   0  0  0  0  0  0  0  0  0  0  0  0
   -2.5773    1.1761    0.0000 C   0  0  0  0  0  0  0  0  0  0  0  0
   -2.0798   -0.2390    0.0000 C   0  0  0  0  0  0  0  0  0  0  0  0
   -0.6055   -0.5157    0.0000 C   0  0  0  0  0  0  0  0  0  0  0  0
   -0.1081   -1.9308    0.0000 C   0  0  0  0  0  0  0  0  0  0  0  0
    1.3662   -2.2076    0.0000 C   0  0  0  0  0  0  0  0  0  0  0  0
    1.8636   -3.6227    0.0000 O   0  0  0  0  0  0  0  0  0  0  0  0
    2.3430   -1.0692    0.0000 C   0  0  0  0  0  0  0  0  0  0  0  0
    3.8172   -1.3460    0.0000 C   0  0  0  0  0  0  0  0  0  0  0  0
    4.7940   -0.2076    0.0000 C   0  0  0  0  0  0  0  0  0  0  0  0
    4.2965    1.2075    0.0000 C   0  0  0  0  0  0  0  0  0  0  0  0
    5.2733    2.3459    0.0000 O   0  0  0  0  0  0  0  0  0  0  0  0
    6.7476    2.0691    0.0000 C   0  0  0  0  0  0  0  0  0  0  0  0
    2.8223    1.4843    0.0000 C   0  0  0  0  0  0  0  0  0  0  0  0
    1.8455    0.3459    0.0000 C   0  0  0  0  0  0  0  0  0  0  0  0
    0.3712    0.6226    0.0000 O   0  0  0  0  0  0  0  0  0  0  0  0
   -3.0566   -1.3773    0.0000 C   0  0  0  0  0  0  0  0  0  0  0  0
   -4.5308   -1.1006    0.0000 C   0  0  0  0  0  0  0  0  0  0  0  0
  1  2  1  0
  2  3  1  0
  3  4  2  0
  4  5  1  0
  5  6  2  0
  6  7  1  0
  7  8  2  0
  8  9  1  0
  9 10  2  0
  9 11  1  0
 11 12  2  0
 12 13  1  0
 13 14  2  0
 14 15  1  0
 15 16  1  0
 14 17  1  0
 17 18  2  0
 18 19  1  0
  6 20  1  0
 20 21  2  0
 21  3  1  0
 19  7  1  0
 18 11  1  0
M  END
>  <identifier>  (821) 
CNP0155456.0

>  <canonical_smiles>  (821) 
COC1=CC=C(C2=CC(=O)C3=CC=C(OC)C=C3O2)C=C1

>  <standard_inchi>  (821) 
InChI=1S/C17H14O4/c1-19-12-5-3-11(4-6-12)16-10-15(18)14-8-7-13(20-2)9-17(14)21-16/h3-10H,1-2H3

>  <standard_inchi_key>  (821) 
LGTXUFBDCDFQIU-UHFFFAOYSA-N

>  <name>  (821) 
7,4'-Dimethoxyflavone

>  <iupac_name>  (821) 
7-methoxy-2-(4-methoxyphenyl)chromen-4-one

>  <annotation_level>  (821) 
5

>  <total_atom_count>  (821) 
35

>  <heavy_atom_count>  (821) 
21

>  <molecular_weight>  (821) 
282.3

>  <exact_molecular_weight>  (821) 
282.08921

>  <molecular_formula>  (821) 
C17H14O4

>  <alogp>  (821) 
3.48

>  <topological_polar_surface_area>  (821) 
48.67

>  <rotatable_bond_count>  (821) 
3

>  <hydrogen_bond_acceptors>  (821) 
4

>  <hydrogen_bond_donors>  (821) 
0

>  <hydrogen_bond_acceptors_lipinski>  (821) 
4

>  <hydrogen_bond_donors_lipinski>  (821) 
0

>  <lipinski_rule_of_five_violations>  (821) 
0

>  <aromatic_rings_count>  (821) 
3

>  <qed_drug_likeliness>  (821) 
0.74

>  <formal_charge>  (821) 
0

>  <fractioncsp3>  (821) 
0.12

>  <number_of_minimal_rings>  (821) 
3

>  <van_der_walls_volume>  (821) 
248.76

>  <contains_sugar>  (821) 
False

>  <contains_ring_sugars>  (821) 
False

>  <contains_linear_sugars>  (821) 
False

>  <murcko_framework>  (821) 
O1c2ccccc2CC=C1c3ccccc3

>  <np_likeness>  (821) 
0.31

>  <chemical_class>  (821) 
Flavonoids

>  <chemical_sub_class>  (821) 
O-methylated flavonoids

>  <chemical_super_class>  (821) 
Phenylpropanoids and polyketides

>  <direct_parent_classification>  (821) 
4'-O-methylated flavonoids

>  <np_classifier_pathway>  (821) 
Shikimates and Phenylpropanoids

>  <np_classifier_superclass>  (821) 
Flavonoids

>  <np_classifier_class>  (821) 
Flavones

>  <np_classifier_is_glycoside>  (821) 
False

>  <organisms>  (821) 
Gynerium sagittatum|Iryanthera juruensis|Trigonella foenum-graecum|Virola carinata|Virola flexuosa|Virola venosa

>  <collections>  (821) 
ChemSpider NPs|FooDB|KNApSaCK|Latin America dataset|NuBBEDB|Super Natural II|TCMID (Traditional Chinese Medicine Integrated Database)|UNPD (Universal Natural Products Database)|WikiData Natural Products|ZINC NP

>  <dois>  (821) 
10.1016/0031-9422(91)83055-P|10.1016/J.PHYTOCHEM.2007.03.007|10.1016/J.PHYTOCHEM.2007.05.016|10.1016/S0031-9422(00)80161-2|10.1016/S0031-9422(00)82577-7|10.1016/S0031-9422(00)94440-6|10.1016/S0031-9422(01)00273-4|10.1021/JF063451X|10.1515/ZNB-1982-0423

>  <synonyms>  (821) 
20979-50-4|4',7-Dimethoxyflavone|4,7-DIMETHOXYFLAVONE|4H-1-Benzopyran-4-one, 7-methoxy-2-(4-methoxyphenyl)-|7,4''-dimethoxyflavone|7,4'-dimethoxyflavone, AldrichCPR|7-Methoxy-2-(4-methoxyphenyl)-4H-1-benzopyran-4-one|7-methoxy-2-(4-methoxyphenyl)chromen-4-one|AKOS000663257|BDBM50310184|BRD-K16115965-001-02-2|BSPBio_003358|CCG-38360|CHEMBL16442|DB-045444|DTXSID40332791|Dimethyldaidzin|HMS1610K02|HMS3428I06|KBio2_002268|KBio2_004836|KBio2_007404|KBio3_002860|KBioSS_002269|LGTXUFBDCDFQIU-UHFFFAOYSA-N|MFCD00017686|NCGC00178120-01|Oprea1_210472|Oprea1_683062|Q63409417|SCHEMBL3470601|SPBio_000213|SR-01000434442|Spectrum2_000057|Spectrum3_001879|Spectrum_001784|VT3Q9ZRK44

>  <cas>  (821) 
20979-50-4

$$$$

     RDKit          2D

 23 26  0  0  0  0  0  0  0  0999 V2000
    7.6028   -1.1113    0.0000 C   0  0  0  0  0  0  0  0  0  0  0  0
    6.7039    0.0895    0.0000 O   0  0  0  0  0  0  0  0  0  0  0  0
    5.2145   -0.0885    0.0000 C   0  0  0  0  0  0  0  0  0  0  0  0
    4.6240   -1.4674    0.0000 C   0  0  0  0  0  0  0  0  0  0  0  0
    3.1346   -1.6454    0.0000 C   0  0  0  0  0  0  0  0  0  0  0  0
    2.2357   -0.4446    0.0000 C   0  0  0  0  0  0  0  0  0  0  0  0
    0.7463   -0.6226    0.0000 C   0  0  0  0  0  0  0  0  0  0  0  0
    0.1558   -2.0014    0.0000 O   0  0  0  0  0  0  0  0  0  0  0  0
   -0.1525    0.5783    0.0000 C   0  0  0  0  0  0  0  0  0  0  0  0
    0.4380    1.9571    0.0000 N   0  0  0  0  0  0  0  0  0  0  0  0
   -0.4609    3.1580    0.0000 C   0  0  0  0  0  0  0  0  0  0  0  0
   -1.9503    2.9800    0.0000 C   0  0  0  0  0  0  0  0  0  0  0  0
   -2.5408    1.6011    0.0000 C   0  0  0  0  0  0  0  0  0  0  0  0
   -4.0302    1.4231    0.0000 C   0  0  0  0  0  0  0  0  0  0  0  0
   -4.6207    0.0442    0.0000 C   0  0  0  0  0  0  0  0  0  0  0  0
   -3.7219   -1.1566    0.0000 C   0  0  0  0  0  0  0  0  0  0  0  0
   -2.2325   -0.9786    0.0000 C   0  0  0  0  0  0  0  0  0  0  0  0
   -1.6419    0.4002    0.0000 C   0  0  0  0  0  0  0  0  0  0  0  0
   -4.5862   -2.3826    0.0000 O   0  0  0  0  0  0  0  0  0  0  0  0
   -6.0192   -1.9394    0.0000 C   0  0  0  0  0  0  0  0  0  0  0  0
   -6.0406   -0.4396    0.0000 O   0  0  0  0  0  0  0  0  0  0  0  0
    2.8263    0.9343    0.0000 C   0  0  0  0  0  0  0  0  0  0  0  0
    4.3157    1.1123    0.0000 C   0  0  0  0  0  0  0  0  0  0  0  0
  1  2  1  0
  2  3  1  0
  3  4  2  0
  4  5  1  0
  5  6  2  0
  6  7  1  0
  7  8  2  0
  7  9  1  0
  9 10  2  0
 10 11  1  0
 11 12  2  0
 12 13  1  0
 13 14  2  0
 14 15  1  0
 15 16  2  0
 16 17  1  0
 17 18  2  0
 16 19  1  0
 19 20  1  0
 20 21  1  0
  6 22  1  0
 22 23  2  0
 23  3  1  0
 18  9  1  0
 18 13  1  0
 21 15  1  0
M  END
>  <identifier>  (822) 
CNP0322517.0

>  <canonical_smiles>  (822) 
COC1=CC=C(C(=O)C2=NC=CC3=CC4=C(C=C23)OCO4)C=C1

>  <standard_inchi>  (822) 
InChI=1S/C18H13NO4/c1-21-13-4-2-11(3-5-13)18(20)17-14-9-16-15(22-10-23-16)8-12(14)6-7-19-17/h2-9H,10H2,1H3

>  <standard_inchi_key>  (822) 
QBHRSPJCSJXYCI-UHFFFAOYSA-N

>  <name>  (822) 
nan

>  <iupac_name>  (822) 
[1,3]dioxolo[4,5-g]isoquinolin-5-yl-(4-methoxyphenyl)methanone

>  <annotation_level>  (822) 
5

>  <total_atom_count>  (822) 
36

>  <heavy_atom_count>  (822) 
23

>  <molecular_weight>  (822) 
307.31

>  <exact_molecular_weight>  (822) 
307.08446

>  <molecular_formula>  (822) 
C18H13NO4

>  <alogp>  (822) 
3.20

>  <topological_polar_surface_area>  (822) 
57.65

>  <rotatable_bond_count>  (822) 
3

>  <hydrogen_bond_acceptors>  (822) 
5

>  <hydrogen_bond_donors>  (822) 
0

>  <hydrogen_bond_acceptors_lipinski>  (822) 
5

>  <hydrogen_bond_donors_lipinski>  (822) 
0

>  <lipinski_rule_of_five_violations>  (822) 
0

>  <aromatic_rings_count>  (822) 
3

>  <qed_drug_likeliness>  (822) 
0.70

>  <formal_charge>  (822) 
0

>  <fractioncsp3>  (822) 
0.11

>  <number_of_minimal_rings>  (822) 
4

>  <van_der_walls_volume>  (822) 
262.89

>  <contains_sugar>  (822) 
False

>  <contains_ring_sugars>  (822) 
False

>  <contains_linear_sugars>  (822) 
False

>  <murcko_framework>  (822) 
n1ccc2cc3OCOc3cc2c1Cc4ccccc4

>  <np_likeness>  (822) 
0.08

>  <chemical_class>  (822) 
Isoquinolines and derivatives

>  <chemical_sub_class>  (822) 
Benzylisoquinolines

>  <chemical_super_class>  (822) 
Organoheterocyclic compounds

>  <direct_parent_classification>  (822) 
Benzylisoquinolines

>  <np_classifier_pathway>  (822) 
Alkaloids

>  <np_classifier_superclass>  (822) 
Tyrosine alkaloids

>  <np_classifier_class>  (822) 
nan

>  <np_classifier_is_glycoside>  (822) 
False

>  <organisms>  (822) 
Ocotea pulchella

>  <collections>  (822) 
ChemSpider NPs|Latin America dataset|NuBBEDB|Super Natural II|UNPD (Universal Natural Products Database)|WikiData Natural Products|ZINC NP

>  <dois>  (822) 
10.1016/S0031-9422(00)95115-X

>  <synonyms>  (822) 
1-(p-Methoxybenzoyl)-67-methylenedioxyisoquinoline

>  <cas>  (822) 
nan

$$$$

     RDKit          2D

 27 29  0  0  0  0  0  0  0  0999 V2000
    7.1566   -1.6163    0.0000 C   0  0  0  0  0  0  0  0  0  0  0  0
    6.8464   -0.1487    0.0000 O   0  0  0  0  0  0  0  0  0  0  0  0
    5.4204    0.3164    0.0000 C   0  0  0  0  0  0  0  0  0  0  0  0
    4.3045   -0.6860    0.0000 C   0  0  0  0  0  0  0  0  0  0  0  0
    2.8785   -0.2209    0.0000 C   0  0  0  0  0  0  0  0  0  0  0  0
    1.7626   -1.2233    0.0000 C   0  0  0  0  0  0  0  0  0  0  0  0
    1.9177   -2.7153    0.0000 O   0  0  0  0  0  0  0  0  0  0  0  0
    0.5467   -3.3238    0.0000 C   0  0  0  0  0  0  0  0  0  0  0  0
   -0.4557   -2.2080    0.0000 C   0  0  0  0  0  0  0  0  0  0  0  0
   -1.9477   -2.3631    0.0000 C   0  0  0  0  0  0  0  0  0  0  0  0
   -2.8280   -1.1485    0.0000 C   0  0  0  0  0  0  0  0  0  0  0  0
   -2.2163    0.2211    0.0000 C   0  0  0  0  0  0  0  0  0  0  0  0
   -3.0966    1.4356    0.0000 C   0  0  0  0  0  0  0  0  0  0  0  0
   -4.5886    1.2805    0.0000 C   0  0  0  0  0  0  0  0  0  0  0  0
   -5.4689    2.4950    0.0000 O   0  0  0  0  0  0  0  0  0  0  0  0
   -4.8572    3.8647    0.0000 C   0  0  0  0  0  0  0  0  0  0  0  0
   -5.2002   -0.0891    0.0000 C   0  0  0  0  0  0  0  0  0  0  0  0
   -6.6922   -0.2442    0.0000 O   0  0  0  0  0  0  0  0  0  0  0  0
   -7.3039   -1.6138    0.0000 C   0  0  0  0  0  0  0  0  0  0  0  0
   -4.3199   -1.3036    0.0000 C   0  0  0  0  0  0  0  0  0  0  0  0
    0.2957   -0.9098    0.0000 C   0  0  0  0  0  0  0  0  0  0  0  0
   -0.3128    0.4612    0.0000 C   0  0  0  0  0  0  0  0  0  0  0  0
    0.5703    1.6738    0.0000 O   0  0  0  0  0  0  0  0  0  0  0  0
    2.5683    1.2467    0.0000 C   0  0  0  0  0  0  0  0  0  0  0  0
    3.6841    2.2491    0.0000 C   0  0  0  0  0  0  0  0  0  0  0  0
    5.1102    1.7840    0.0000 C   0  0  0  0  0  0  0  0  0  0  0  0
    6.2260    2.7864    0.0000 O   0  0  0  0  0  0  0  0  0  0  0  0
  1  2  1  0
  2  3  1  0
  3  4  2  0
  4  5  1  0
  6  5  1  1
  6  7  1  0
  7  8  1  0
  8  9  1  0
  9 10  1  6
 10 11  1  0
 11 12  2  0
 12 13  1  0
 13 14  2  0
 14 15  1  0
 15 16  1  0
 14 17  1  0
 17 18  1  0
 18 19  1  0
 17 20  2  0
  9 21  1  0
 21 22  1  6
 22 23  1  0
  5 24  2  0
 24 25  1  0
 25 26  2  0
 26 27  1  0
 26  3  1  0
 21  6  1  0
 20 11  1  0
M  END
>  <identifier>  (823) 
CNP0080484.1

>  <canonical_smiles>  (823) 
COC1=CC([C@H]2OC[C@H](CC3=CC=C(OC)C(OC)=C3)[C@@H]2CO)=CC=C1O

>  <standard_inchi>  (823) 
InChI=1S/C21H26O6/c1-24-18-7-4-13(9-20(18)26-3)8-15-12-27-21(16(15)11-22)14-5-6-17(23)19(10-14)25-2/h4-7,9-10,15-16,21-23H,8,11-12H2,1-3H3/t15-,16-,21+/m0/s1

>  <standard_inchi_key>  (823) 
SFMHPISSGZFAHZ-CKJXQJPGSA-N

>  <name>  (823) 
4'-O-Methyllariciresinol

>  <iupac_name>  (823) 
4-[(2~{S},3~{R},4~{R})-4-[(3,4-dimethoxyphenyl)methyl]-3-(hydroxymethyl)tetrahydrofuran-2-yl]-2-methoxy-phenol

>  <annotation_level>  (823) 
5

>  <total_atom_count>  (823) 
53

>  <heavy_atom_count>  (823) 
27

>  <molecular_weight>  (823) 
374.43

>  <exact_molecular_weight>  (823) 
374.17294

>  <molecular_formula>  (823) 
C21H26O6

>  <alogp>  (823) 
2.96

>  <topological_polar_surface_area>  (823) 
77.38

>  <rotatable_bond_count>  (823) 
7

>  <hydrogen_bond_acceptors>  (823) 
6

>  <hydrogen_bond_donors>  (823) 
2

>  <hydrogen_bond_acceptors_lipinski>  (823) 
6

>  <hydrogen_bond_donors_lipinski>  (823) 
2

>  <lipinski_rule_of_five_violations>  (823) 
0

>  <aromatic_rings_count>  (823) 
2

>  <qed_drug_likeliness>  (823) 
0.78

>  <formal_charge>  (823) 
0

>  <fractioncsp3>  (823) 
0.43

>  <number_of_minimal_rings>  (823) 
3

>  <van_der_walls_volume>  (823) 
nan

>  <contains_sugar>  (823) 
False

>  <contains_ring_sugars>  (823) 
False

>  <contains_linear_sugars>  (823) 
False

>  <murcko_framework>  (823) 
O1CC(Cc2ccccc2)CC1c3ccccc3

>  <np_likeness>  (823) 
1.51

>  <chemical_class>  (823) 
Furanoid lignans

>  <chemical_sub_class>  (823) 
Tetrahydrofuran lignans

>  <chemical_super_class>  (823) 
Lignans, neolignans and related compounds

>  <direct_parent_classification>  (823) 
7,9'-epoxylignans

>  <np_classifier_pathway>  (823) 
Shikimates and Phenylpropanoids

>  <np_classifier_superclass>  (823) 
Lignans

>  <np_classifier_class>  (823) 
Furanoid lignans

>  <np_classifier_is_glycoside>  (823) 
False

>  <organisms>  (823) 
Araucaria angustifolia

>  <collections>  (823) 
Latin America dataset|NuBBEDB|WikiData Natural Products|ZINC NP

>  <dois>  (823) 
10.1016/0031-9422(79)80188-0

>  <synonyms>  (823) 
73354-09-3|AKOS040763180|lariciresinol-4-methyl ether

>  <cas>  (823) 
73354-09-3

$$$$

     RDKit          2D

 13 14  0  0  0  0  0  0  0  0999 V2000
   -5.6487    0.1542    0.0000 C   0  0  0  0  0  0  0  0  0  0  0  0
   -4.2951    0.8005    0.0000 N   0  0  0  0  0  0  0  0  0  0  0  0
   -3.0586   -0.0487    0.0000 C   0  0  0  0  0  0  0  0  0  0  0  0
   -1.7049    0.5976    0.0000 C   0  0  0  0  0  0  0  0  0  0  0  0
   -0.4684   -0.2516    0.0000 C   0  0  0  0  0  0  0  0  0  0  0  0
   -0.4286   -1.7511    0.0000 C   0  0  0  0  0  0  0  0  0  0  0  0
    1.0098   -2.1766    0.0000 N   0  0  0  0  0  0  0  0  0  0  0  0
    1.8589   -0.9401    0.0000 C   0  0  0  0  0  0  0  0  0  0  0  0
    3.3460   -0.7438    0.0000 C   0  0  0  0  0  0  0  0  0  0  0  0
    3.9195    0.6423    0.0000 C   0  0  0  0  0  0  0  0  0  0  0  0
    3.0060    1.8320    0.0000 C   0  0  0  0  0  0  0  0  0  0  0  0
    1.5189    1.6356    0.0000 C   0  0  0  0  0  0  0  0  0  0  0  0
    0.9453    0.2496    0.0000 C   0  0  0  0  0  0  0  0  0  0  0  0
  1  2  1  0
  2  3  1  0
  3  4  1  0
  4  5  1  0
  5  6  2  0
  6  7  1  0
  7  8  1  0
  8  9  2  0
  9 10  1  0
 10 11  2  0
 11 12  1  0
 12 13  2  0
 13  5  1  0
 13  8  1  0
M  END
>  <identifier>  (824) 
CNP0113759.0

>  <canonical_smiles>  (824) 
CNCCC1=CNC2=CC=CC=C12

>  <standard_inchi>  (824) 
InChI=1S/C11H14N2/c1-12-7-6-9-8-13-11-5-3-2-4-10(9)11/h2-5,8,12-13H,6-7H2,1H3

>  <standard_inchi_key>  (824) 
NCIKQJBVUNUXLW-UHFFFAOYSA-N

>  <name>  (824) 
N-Methyltryptamine

>  <iupac_name>  (824) 
2-(1~{H}-indol-3-yl)-~{N}-methyl-ethanamine

>  <annotation_level>  (824) 
5

>  <total_atom_count>  (824) 
27

>  <heavy_atom_count>  (824) 
13

>  <molecular_weight>  (824) 
174.25

>  <exact_molecular_weight>  (824) 
174.1157

>  <molecular_formula>  (824) 
C11H14N2

>  <alogp>  (824) 
1.93

>  <topological_polar_surface_area>  (824) 
27.82

>  <rotatable_bond_count>  (824) 
3

>  <hydrogen_bond_acceptors>  (824) 
1

>  <hydrogen_bond_donors>  (824) 
2

>  <hydrogen_bond_acceptors_lipinski>  (824) 
1

>  <hydrogen_bond_donors_lipinski>  (824) 
2

>  <lipinski_rule_of_five_violations>  (824) 
0

>  <aromatic_rings_count>  (824) 
2

>  <qed_drug_likeliness>  (824) 
0.73

>  <formal_charge>  (824) 
0

>  <fractioncsp3>  (824) 
0.27

>  <number_of_minimal_rings>  (824) 
2

>  <van_der_walls_volume>  (824) 
173.94

>  <contains_sugar>  (824) 
False

>  <contains_ring_sugars>  (824) 
False

>  <contains_linear_sugars>  (824) 
False

>  <murcko_framework>  (824) 
c1ccc2[nH]ccc2c1

>  <np_likeness>  (824) 
0.00

>  <chemical_class>  (824) 
Indoles and derivatives

>  <chemical_sub_class>  (824) 
Indoles

>  <chemical_super_class>  (824) 
Organoheterocyclic compounds

>  <direct_parent_classification>  (824) 
Indoles

>  <np_classifier_pathway>  (824) 
Alkaloids

>  <np_classifier_superclass>  (824) 
Tryptophan alkaloids

>  <np_classifier_class>  (824) 
Simple indole alkaloids

>  <np_classifier_is_glycoside>  (824) 
False

>  <organisms>  (824) 
Acacia confusa|Acacia maidenii|Acacia rigidula|Anadenanthera peregrina|Artemisia santolina|Cacia confusa|Chimonanthus fragrans|Homo sapiens|Justicia pectoralis|Mimosa ophthalmocentra|Mimosa somnians|Nectandra angustifolia|Nectandra megapotamica|Palicourea sessilis|Paramuricea clavata|Phyllocladus aspleniifolius|Piptostigma fugax|Prosopis nigra|Stegobium paniceum|Tachigali paniculata|Vachellia rigidula|Virola calophylla|Virola elongata|Virola pavonis|Virola sebifera|Zanthoxylum arborescens|tomato

>  <collections>  (824) 
Australian natural products|ChEBI NPs|FooDB|GNPS (Global Natural Products Social Molecular Networking)|HIM (Herbal Ingredients in-vivo Metabolism database)|KNApSaCK|Latin America dataset|NPASS|NuBBEDB|PubChem NPs|UNPD (Universal Natural Products Database)|WikiData Natural Products

>  <dois>  (824) 
10.1002/JCCS.200000178|10.1002/MRC.1959|10.1007/BF00590811|10.1016/0031-9422(75)83050-0|10.1016/0031-9422(75)83054-8|10.1016/0031-9422(94)00675-J|10.1016/0378-8741(84)90048-5|10.1016/S0031-9422(00)81137-1|10.1016/S0031-9422(97)01022-4|10.1021/JO00134A027|10.1021/NP200537V|10.1021/NP50002A017|10.1021/NP50003A014|10.1021/acs.jnatprod.7b00681|10.1021/np200537v|10.1071/CH9650433|10.1071/CH9670811|10.1071/ch9650433|10.1076/PHBI.37.1.50.6312|10.1080/003655101753218319|10.1093/JXB/23.1.152|10.2307/4117899

>  <synonyms>  (824) 
(2-Indol-3-ylethyl)methylamine|1-Methyl-2-(3-indolyl)ethylamine|1H-Indole-3-ethanamine, N-methyl-|1HU|1ST166061|2-(1H-Indol-3-yl)-N-methylethanamine|2-(1H-indol-3-yl)ethyl-methyl-amine|3-(2-Methylaminoethyl)indole|3-(N-Methyl-2-amino-ethyl)-indole|5-22-10-00047 (Beilstein Handbook Reference)|61-49-4|6FRL4L3Z7V|AKOS005203036|AM20040845|BDBM30701|BIDD:GT0662|BRN 0134134|C06213|CCG-56495|CHEBI:28136|CHEMBL348588|DB-053906|DTXSID70209846|Dipterine|EINECS 200-507-9|HMS1440G10|HMS2235A08|HMS3372P09|IDI1_014697|INDOLE, 3-(2-(METHYLAMINO)ETHYL)-|InChI=1\/C11H14N2\/c1-12-7-6-9-8-13-11-5-3-2-4-10(9)11\/h2-5,8,12-13H,6-7H2,1H|M-4640|MFCD00005657|MLS000069493|Maybridge3_003310|Methyltryptamine|N-Methylindoleethylamine|N-Monomethyltryptamine|N-OMEGA-METHYLTRYPTAMINE|N-Omega-Methyltryptamine(NMT)|N-methyl-1H-indole-3-ethanamine|N-methyl-tryptamine|N-omega-Methyltryptamine, 99%|N-omega-Methyltryptamine, free base|N-w-Methyltryptamine|N.omega.-methyltryptamine|NCGC00018120-01|NS00014895|Oprea1_433490|Q308875|SCHEMBL379409|SMR000059062|SR-01000000029-2|UNII-6FRL4L3Z7V|cid_6088|n-methyl tryptamine

>  <cas>  (824) 
61-49-4

$$$$

     RDKit          2D

 25 25  0  0  0  0  0  0  0  0999 V2000
  -13.0759    0.7336    0.0000 C   0  0  0  0  0  0  0  0  0  0  0  0
  -11.8061   -0.0649    0.0000 C   0  0  0  0  0  0  0  0  0  0  0  0
  -10.4797    0.6356    0.0000 C   0  0  0  0  0  0  0  0  0  0  0  0
   -9.2099   -0.1628    0.0000 C   0  0  0  0  0  0  0  0  0  0  0  0
   -7.8835    0.5377    0.0000 C   0  0  0  0  0  0  0  0  0  0  0  0
   -6.6137   -0.2608    0.0000 C   0  0  0  0  0  0  0  0  0  0  0  0
   -5.2873    0.4397    0.0000 C   0  0  0  0  0  0  0  0  0  0  0  0
   -4.0174   -0.3588    0.0000 C   0  0  0  0  0  0  0  0  0  0  0  0
   -2.6910    0.3417    0.0000 C   0  0  0  0  0  0  0  0  0  0  0  0
   -1.4212   -0.4567    0.0000 C   0  0  0  0  0  0  0  0  0  0  0  0
   -1.4778   -1.9557    0.0000 O   0  0  0  0  0  0  0  0  0  0  0  0
   -0.0948    0.2437    0.0000 C   0  0  0  0  0  0  0  0  0  0  0  0
    1.1750   -0.5547    0.0000 C   0  0  0  0  0  0  0  0  0  0  0  0
    1.1185   -2.0536    0.0000 O   0  0  0  0  0  0  0  0  0  0  0  0
    2.5014    0.1458    0.0000 C   0  0  0  0  0  0  0  0  0  0  0  0
    3.7713   -0.6527    0.0000 C   0  0  0  0  0  0  0  0  0  0  0  0
    5.0977    0.0478    0.0000 C   0  0  0  0  0  0  0  0  0  0  0  0
    5.1542    1.5467    0.0000 C   0  0  0  0  0  0  0  0  0  0  0  0
    6.4806    2.2472    0.0000 C   0  0  0  0  0  0  0  0  0  0  0  0
    7.7504    1.4488    0.0000 C   0  0  0  0  0  0  0  0  0  0  0  0
    9.0768    2.1493    0.0000 O   0  0  0  0  0  0  0  0  0  0  0  0
    7.6939   -0.0502    0.0000 C   0  0  0  0  0  0  0  0  0  0  0  0
    8.9637   -0.8486    0.0000 O   0  0  0  0  0  0  0  0  0  0  0  0
    8.9072   -2.3475    0.0000 C   0  0  0  0  0  0  0  0  0  0  0  0
    6.3675   -0.7506    0.0000 C   0  0  0  0  0  0  0  0  0  0  0  0
  1  2  1  0
  2  3  1  0
  3  4  1  0
  4  5  1  0
  5  6  1  0
  6  7  1  0
  7  8  1  0
  8  9  1  0
  9 10  1  0
 10 11  1  1
 10 12  1  0
 12 13  1  0
 13 14  2  0
 13 15  1  0
 15 16  1  0
 16 17  1  0
 17 18  2  0
 18 19  1  0
 19 20  2  0
 20 21  1  0
 20 22  1  0
 22 23  1  0
 23 24  1  0
 22 25  2  0
 25 17  1  0
M  END
>  <identifier>  (825) 
CNP0273695.1

>  <canonical_smiles>  (825) 
CCCCCCCCC[C@H](O)CC(=O)CCC1=CC=C(O)C(OC)=C1

>  <standard_inchi>  (825) 
InChI=1S/C21H34O4/c1-3-4-5-6-7-8-9-10-18(22)16-19(23)13-11-17-12-14-20(24)21(15-17)25-2/h12,14-15,18,22,24H,3-11,13,16H2,1-2H3/t18-/m0/s1

>  <standard_inchi_key>  (825) 
AIULWNKTYPZYAN-SFHVURJKSA-N

>  <name>  (825) 
10-Gingerol

>  <iupac_name>  (825) 
(5~{S})-5-hydroxy-1-(4-hydroxy-3-methoxy-phenyl)tetradecan-3-one

>  <annotation_level>  (825) 
5

>  <total_atom_count>  (825) 
59

>  <heavy_atom_count>  (825) 
25

>  <molecular_weight>  (825) 
350.5

>  <exact_molecular_weight>  (825) 
350.24571

>  <molecular_formula>  (825) 
C21H34O4

>  <alogp>  (825) 
4.79

>  <topological_polar_surface_area>  (825) 
66.76

>  <rotatable_bond_count>  (825) 
14

>  <hydrogen_bond_acceptors>  (825) 
4

>  <hydrogen_bond_donors>  (825) 
2

>  <hydrogen_bond_acceptors_lipinski>  (825) 
4

>  <hydrogen_bond_donors_lipinski>  (825) 
2

>  <lipinski_rule_of_five_violations>  (825) 
0

>  <aromatic_rings_count>  (825) 
1

>  <qed_drug_likeliness>  (825) 
0.47

>  <formal_charge>  (825) 
0

>  <fractioncsp3>  (825) 
0.67

>  <number_of_minimal_rings>  (825) 
1

>  <van_der_walls_volume>  (825) 
359.12

>  <contains_sugar>  (825) 
False

>  <contains_ring_sugars>  (825) 
False

>  <contains_linear_sugars>  (825) 
False

>  <murcko_framework>  (825) 
c1ccccc1

>  <np_likeness>  (825) 
1.28

>  <chemical_class>  (825) 
Phenols

>  <chemical_sub_class>  (825) 
Methoxyphenols

>  <chemical_super_class>  (825) 
Benzenoids

>  <direct_parent_classification>  (825) 
Gingerols

>  <np_classifier_pathway>  (825) 
Polyketides

>  <np_classifier_superclass>  (825) 
Aromatic polyketides

>  <np_classifier_class>  (825) 
Catechols with side chains

>  <np_classifier_is_glycoside>  (825) 
False

>  <organisms>  (825) 
Zingiber Officinale|Zingiber aromaticum|Zingiber officinale|Zingiber sp.|Zingiberaceae

>  <collections>  (825) 
Australian natural products|CMAUP (cCollective molecular activities of useful plants)|ETM (Ethiopian Traditional Medicine) DB|InflamNat|KNApSaCK|Latin America dataset|NPACT|NPASS|NuBBEDB|PhytoLab phyproof® Reference Substances|Super Natural II|TCMDB-Taiwan (Traditional Chinese Medicine database)|TIPdb (database of Taiwan indigenous plants)|VietHerb|WikiData Natural Products

>  <dois>  (825) 
10.1002/JPS.2600711025|10.1002/PTR.1335|10.1016/0031-9422(91)80085-F|10.1016/0378-8741(85)90009-1|10.1016/J.JCHROMB.2012.07.013|10.1016/J.PHYTOCHEM.2004.03.007|10.1016/J.PHYTOCHEM.2004.06.008|10.1016/S0021-9673(97)01013-3|10.1016/S0031-9422(02)00618-0|10.1016/j.jchromb.2012.07.013|10.1016/j.jep.2009.10.004|10.1021/JF00069A027|10.1021/JF9027443|10.1021/JF970948L|10.1021/NP800555Y|10.1021/NP8006183|10.1021/jf050435b|10.1021/np800555y|10.1055/S-2005-871265|10.1071/CH9691033|10.1080/01483919008049223|10.1111/J.1365-2621.1986.TB13124.X|10.1111/J.1365-2621.1994.TB14710.X|10.1186/1472-6882-7-44|10.1248/BPB.28.495|10.1248/CPB.38.430|10.1248/CPB.40.387|10.1248/YAKUSHI1947.110.12_936|10.1248/YAKUSHI1947.112.9_645|10.1248/YAKUSHI1947.113.10_712

>  <synonyms>  (825) 
(+)-(S)-(10)-GINGEROL|(+)-(S)-[10]-Gingerol|(10)-Gingerol|(5S)-(10)-GINGEROL|(5S)-5-HYDROXY-1-(4-HYDROXY-3-METHOXYPHENYL)-3-TETRADECANONE|(S)-10-Gingerol|(S)-5-Hydroxy-1-(4-hydroxy-3-methoxyphenyl)-3-tetradecanone|10-GINGEROL (CONSTITUENT OF GINGER)|10-Gingerol|1ST40212|23513-15-7|3-Tetradecanone, 5-hydroxy-1-(4-hydroxy-3-methoxyphenyl)-, (5S)-|AC-1446|AIULWNKTYPZYAN-SFHVURJKSA-N|AKOS015888437|AS-71715|BDBM50317425|C17496|CCG-268037|CHEBI:81134|CHEMBL549472|CS-0008981|DTXCID60100570|DTXSID80178079|HY-N0448|MFCD01682694|ND6ZLI4J0V|PD053774|Q-100301|Q27155092|SCHEMBL16488702|SRCG-00267|UNII-ND6ZLI4J0V|Zingiberaceae|[10]-Gingerol|[10]-Gingerol, >=95% (HPLC)|[10]-Gingerol, analytical standard|s9091

>  <cas>  (825) 
23513-15-7

$$$$

     RDKit          2D

 28 33  0  0  0  0  0  0  0  0999 V2000
   -6.8463   -1.4613    0.0000 C   0  0  0  0  0  0  0  0  0  0  0  0
   -5.3491   -1.5533    0.0000 C   0  0  0  0  0  0  0  0  0  0  0  0
   -4.6802   -2.8960    0.0000 O   0  0  0  0  0  0  0  0  0  0  0  0
   -4.5208   -0.3028    0.0000 O   0  0  0  0  0  0  0  0  0  0  0  0
   -3.0236   -0.3949    0.0000 C   0  0  0  0  0  0  0  0  0  0  0  0
   -2.3547   -1.7375    0.0000 C   0  0  0  0  0  0  0  0  0  0  0  0
   -0.8576   -1.8296    0.0000 C   0  0  0  0  0  0  0  0  0  0  0  0
   -0.0292   -0.5790    0.0000 C   0  0  0  0  0  0  0  0  0  0  0  0
   -0.8465   -0.4782    0.0000 C   0  0  0  0  0  0  0  0  0  0  0  0
   -2.2002   -0.3949    0.0000 O   0  0  0  0  0  0  0  0  0  0  0  0
    1.4679   -0.6711    0.0000 C   0  0  0  0  0  0  0  0  0  0  0  0
    2.1368   -2.0137    0.0000 C   0  0  0  0  0  0  0  0  0  0  0  0
    3.6339   -2.1058    0.0000 C   0  0  0  0  0  0  0  0  0  0  0  0
    4.4623   -0.8552    0.0000 C   0  0  0  0  0  0  0  0  0  0  0  0
    3.7934    0.4874    0.0000 C   0  0  0  0  0  0  0  0  0  0  0  0
    4.8636    1.5384    0.0000 O   0  0  0  0  0  0  0  0  0  0  0  0
    6.1939    0.8453    0.0000 C   0  0  0  0  0  0  0  0  0  0  0  0
    5.9459   -0.6340    0.0000 C   0  0  0  0  0  0  0  0  0  0  0  0
    6.9969   -1.7042    0.0000 O   0  0  0  0  0  0  0  0  0  0  0  0
    2.2962    0.5795    0.0000 C   0  0  0  0  0  0  0  0  0  0  0  0
    1.6274    1.9221    0.0000 C   0  0  0  0  0  0  0  0  0  0  0  0
    0.1302    2.0142    0.0000 C   0  0  0  0  0  0  0  0  0  0  0  0
   -0.9208    3.0844    0.0000 O   0  0  0  0  0  0  0  0  0  0  0  0
   -2.2634    2.4156    0.0000 C   0  0  0  0  0  0  0  0  0  0  0  0
   -3.5937    3.1086    0.0000 O   0  0  0  0  0  0  0  0  0  0  0  0
   -2.1953    0.8557    0.0000 C   0  0  0  0  0  0  0  0  0  0  0  0
   -3.1691    1.9966    0.0000 C   0  0  0  0  0  0  0  0  0  0  0  0
   -0.6981    0.7636    0.0000 C   0  0  0  0  0  0  0  0  0  0  0  0
  1  2  1  0
  2  3  2  0
  2  4  1  0
  5  4  1  6
  5  6  1  0
  6  7  1  0
  8  7  1  1
  8  9  1  0
  9 10  1  0
  8 11  1  0
 11 12  1  1
 12 13  1  0
 13 14  1  0
 14 15  2  0
 15 16  1  0
 16 17  1  0
 17 18  1  0
 18 19  2  0
 15 20  1  0
 20 21  1  1
 22 21  1  6
 22 23  1  0
 23 24  1  0
 24 25  2  0
 24 26  1  0
 26 27  1  1
 26 28  1  0
 10  5  1  0
 20 11  1  0
 28 22  1  6
 26  5  1  0
 28  8  1  0
 18 14  1  0
M  END
>  <identifier>  (826) 
CNP0178299.1

>  <canonical_smiles>  (826) 
CC(=O)O[C@@]12CC[C@]3(CO1)[C@@H]1CCC4=C(OCC4=O)[C@@H]1C[C@H]1OC(=O)[C@]2(C)[C@H]13

>  <standard_inchi>  (826) 
InChI=1S/C21H24O7/c1-10(22)28-21-6-5-20(9-26-21)13-4-3-11-14(23)8-25-16(11)12(13)7-15-17(20)19(21,2)18(24)27-15/h12-13,15,17H,3-9H2,1-2H3/t12-,13-,15-,17+,19+,20+,21-/m1/s1

>  <standard_inchi_key>  (826) 
DVMSTNFJSIIPLD-YPMOGZFYSA-N

>  <name>  (826) 
nan

>  <iupac_name>  (826) 
[(1~{S},2~{R},10~{R},12~{R},15~{R},16~{R},21~{R})-15-methyl-6,14-dioxo-8,13,17-trioxahexacyclo[14.2.2.1^{1,12}.0^{2,10}.0^{5,9}.0^{15,21}]henicos-5(9)-en-16-yl] acetate

>  <annotation_level>  (826) 
3

>  <total_atom_count>  (826) 
52

>  <heavy_atom_count>  (826) 
28

>  <molecular_weight>  (826) 
388.42

>  <exact_molecular_weight>  (826) 
388.1522

>  <molecular_formula>  (826) 
C21H24O7

>  <alogp>  (826) 
1.89

>  <topological_polar_surface_area>  (826) 
88.13

>  <rotatable_bond_count>  (826) 
1

>  <hydrogen_bond_acceptors>  (826) 
7

>  <hydrogen_bond_donors>  (826) 
0

>  <hydrogen_bond_acceptors_lipinski>  (826) 
7

>  <hydrogen_bond_donors_lipinski>  (826) 
0

>  <lipinski_rule_of_five_violations>  (826) 
0

>  <aromatic_rings_count>  (826) 
0

>  <qed_drug_likeliness>  (826) 
0.63

>  <formal_charge>  (826) 
0

>  <fractioncsp3>  (826) 
0.76

>  <number_of_minimal_rings>  (826) 
7

>  <van_der_walls_volume>  (826) 
nan

>  <contains_sugar>  (826) 
False

>  <contains_ring_sugars>  (826) 
False

>  <contains_linear_sugars>  (826) 
False

>  <murcko_framework>  (826) 
O1C2=C(CC1)CCC3C2CC4OCC5C6OCC3(CC6)C45

>  <np_likeness>  (826) 
2.69

>  <chemical_class>  (826) 
Naphthopyrans

>  <chemical_sub_class>  (826) 
Naphthopyrans

>  <chemical_super_class>  (826) 
Organoheterocyclic compounds

>  <direct_parent_classification>  (826) 
Naphthopyrans

>  <np_classifier_pathway>  (826) 
Terpenoids

>  <np_classifier_superclass>  (826) 
Diterpenoids

>  <np_classifier_class>  (826) 
Tetracyclic diterpenoids

>  <np_classifier_is_glycoside>  (826) 
True

>  <organisms>  (826) 
Casimirella rupestris|Humirianthera rupestris

>  <collections>  (826) 
Latin America dataset|NuBBEDB|WikiData Natural Products

>  <dois>  (826) 
10.1016/S0031-9422(00)98552-2

>  <synonyms>  (826) 
nan

>  <cas>  (826) 
nan

$$$$

     RDKit          2D

 26 27  0  0  0  0  0  0  0  0999 V2000
   -0.7378   -4.6375    0.0000 C   0  0  0  0  0  0  0  0  0  0  0  0
   -0.0571   -3.3009    0.0000 C   0  0  0  0  0  0  0  0  0  0  0  0
    1.4408   -3.2221    0.0000 C   0  0  0  0  0  0  0  0  0  0  0  0
    2.1216   -1.8855    0.0000 C   0  0  0  0  0  0  0  0  0  0  0  0
    1.3044   -0.6277    0.0000 C   0  0  0  0  0  0  0  0  0  0  0  0
    1.9852    0.7090    0.0000 C   0  0  0  0  0  0  0  0  0  0  0  0
    2.1677    2.1978    0.0000 O   0  0  0  0  0  0  0  0  0  0  0  0
    3.5484    2.7841    0.0000 C   0  0  0  0  0  0  0  0  0  0  0  0
    0.5507    1.1473    0.0000 C   0  0  0  0  0  0  0  0  0  0  0  0
    0.2130    2.6088    0.0000 C   0  0  0  0  0  0  0  0  0  0  0  0
   -0.5462    0.1241    0.0000 C   0  0  0  0  0  0  0  0  0  0  0  0
   -1.9807    0.5624    0.0000 C   0  0  0  0  0  0  0  0  0  0  0  0
   -2.3184    2.0239    0.0000 C   0  0  0  0  0  0  0  0  0  0  0  0
   -3.7529    2.4622    0.0000 C   0  0  0  0  0  0  0  0  0  0  0  0
   -4.8498    1.4391    0.0000 C   0  0  0  0  0  0  0  0  0  0  0  0
   -6.2843    1.8774    0.0000 O   0  0  0  0  0  0  0  0  0  0  0  0
   -4.5121   -0.0224    0.0000 C   0  0  0  0  0  0  0  0  0  0  0  0
   -5.6090   -1.0456    0.0000 O   0  0  0  0  0  0  0  0  0  0  0  0
   -5.2713   -2.5071    0.0000 C   0  0  0  0  0  0  0  0  0  0  0  0
   -3.0776   -0.4608    0.0000 C   0  0  0  0  0  0  0  0  0  0  0  0
    3.4831    0.7877    0.0000 C   0  0  0  0  0  0  0  0  0  0  0  0
    4.1639    2.1244    0.0000 O   0  0  0  0  0  0  0  0  0  0  0  0
    5.6618    2.2031    0.0000 C   0  0  0  0  0  0  0  0  0  0  0  0
    4.3003   -0.4701    0.0000 C   0  0  0  0  0  0  0  0  0  0  0  0
    3.6195   -1.8068    0.0000 C   0  0  0  0  0  0  0  0  0  0  0  0
    4.4367   -3.0646    0.0000 O   0  0  0  0  0  0  0  0  0  0  0  0
  1  2  2  0
  2  3  1  0
  3  4  1  0
  4  5  2  0
  5  6  1  0
  6  7  1  6
  7  8  1  0
  6  9  1  0
  9 10  1  1
  9 11  1  0
 11 12  1  0
 12 13  2  0
 13 14  1  0
 14 15  2  0
 15 16  1  0
 15 17  1  0
 17 18  1  0
 18 19  1  0
 17 20  2  0
  6 21  1  0
 21 22  1  0
 22 23  1  0
 21 24  2  0
 24 25  1  0
 25 26  2  0
 25  4  1  0
 20 12  1  0
M  END
>  <identifier>  (827) 
CNP0370214.1

>  <canonical_smiles>  (827) 
C=CCC1=C[C@@](OC)([C@H](C)CC2=CC=C(O)C(OC)=C2)C(OC)=CC1=O

>  <standard_inchi>  (827) 
InChI=1S/C21H26O5/c1-6-7-16-13-21(26-5,20(25-4)12-18(16)23)14(2)10-15-8-9-17(22)19(11-15)24-3/h6,8-9,11-14,22H,1,7,10H2,2-5H3/t14-,21-/m1/s1

>  <standard_inchi_key>  (827) 
FVOYNDPUIIJRIA-SPLOXXLWSA-N

>  <name>  (827) 
nan

>  <iupac_name>  (827) 
(4~{S})-2-allyl-4-[(1~{R})-2-(4-hydroxy-3-methoxy-phenyl)-1-methyl-ethyl]-4,5-dimethoxy-cyclohexa-2,5-dien-1-one

>  <annotation_level>  (827) 
4

>  <total_atom_count>  (827) 
52

>  <heavy_atom_count>  (827) 
26

>  <molecular_weight>  (827) 
358.43

>  <exact_molecular_weight>  (827) 
358.17802

>  <molecular_formula>  (827) 
C21H26O5

>  <alogp>  (827) 
3.58

>  <topological_polar_surface_area>  (827) 
64.99

>  <rotatable_bond_count>  (827) 
8

>  <hydrogen_bond_acceptors>  (827) 
5

>  <hydrogen_bond_donors>  (827) 
1

>  <hydrogen_bond_acceptors_lipinski>  (827) 
5

>  <hydrogen_bond_donors_lipinski>  (827) 
1

>  <lipinski_rule_of_five_violations>  (827) 
0

>  <aromatic_rings_count>  (827) 
1

>  <qed_drug_likeliness>  (827) 
0.72

>  <formal_charge>  (827) 
0

>  <fractioncsp3>  (827) 
0.38

>  <number_of_minimal_rings>  (827) 
2

>  <van_der_walls_volume>  (827) 
nan

>  <contains_sugar>  (827) 
False

>  <contains_ring_sugars>  (827) 
False

>  <contains_linear_sugars>  (827) 
False

>  <murcko_framework>  (827) 
c1ccc(cc1)CCC2C=CCC=C2

>  <np_likeness>  (827) 
2.08

>  <chemical_class>  (827) 
Prenol lipids

>  <chemical_sub_class>  (827) 
Monoterpenoids

>  <chemical_super_class>  (827) 
Lipids and lipid-like molecules

>  <direct_parent_classification>  (827) 
Aromatic monoterpenoids

>  <np_classifier_pathway>  (827) 
Shikimates and Phenylpropanoids

>  <np_classifier_superclass>  (827) 
Lignans

>  <np_classifier_class>  (827) 
Neolignans

>  <np_classifier_is_glycoside>  (827) 
False

>  <organisms>  (827) 
Aniba lancifolia|Clitocybe inversa|Delphinus delphis|Hypericum calycinum|Kalanchoe petitiana|Tripora divaricata

>  <collections>  (827) 
Latin America dataset|NPASS|NuBBEDB|Super Natural II|WikiData Natural Products|ZINC NP

>  <dois>  (827) 
10.1016/S0031-9422(00)81975-5

>  <synonyms>  (827) 
Lancifolin A

>  <cas>  (827) 
nan

$$$$

     RDKit          2D

 26 29  0  0  0  0  0  0  0  0999 V2000
    3.8476    4.5652    0.0000 C   0  0  0  0  0  0  0  0  0  0  0  0
    3.8123    3.0656    0.0000 C   0  0  0  0  0  0  0  0  0  0  0  0
    2.4960    2.3464    0.0000 C   0  0  0  0  0  0  0  0  0  0  0  0
    2.4607    0.8468    0.0000 C   0  0  0  0  0  0  0  0  0  0  0  0
    3.7417    0.0664    0.0000 C   0  0  0  0  0  0  0  0  0  0  0  0
    3.7064   -1.4332    0.0000 C   0  0  0  0  0  0  0  0  0  0  0  0
    4.9875   -2.2135    0.0000 O   0  0  0  0  0  0  0  0  0  0  0  0
    2.3901   -2.1524    0.0000 C   0  0  0  0  0  0  0  0  0  0  0  0
    2.3548   -3.6520    0.0000 O   0  0  0  0  0  0  0  0  0  0  0  0
    1.1091   -1.3720    0.0000 C   0  0  0  0  0  0  0  0  0  0  0  0
   -0.2073   -2.0913    0.0000 O   0  0  0  0  0  0  0  0  0  0  0  0
   -0.2426   -3.5908    0.0000 C   0  0  0  0  0  0  0  0  0  0  0  0
    1.1444    0.1275    0.0000 C   0  0  0  0  0  0  0  0  0  0  0  0
   -0.1367    0.9079    0.0000 O   0  0  0  0  0  0  0  0  0  0  0  0
    0.2209   -0.0880    0.0000 C   0  0  0  0  0  0  0  0  0  0  0  0
   -1.2742   -0.2096    0.0000 C   0  0  0  0  0  0  0  0  0  0  0  0
   -1.9164   -1.5652    0.0000 C   0  0  0  0  0  0  0  0  0  0  0  0
   -3.4114   -1.6868    0.0000 C   0  0  0  0  0  0  0  0  0  0  0  0
   -4.2643   -0.4529    0.0000 C   0  0  0  0  0  0  0  0  0  0  0  0
   -5.7520   -0.2610    0.0000 O   0  0  0  0  0  0  0  0  0  0  0  0
   -6.0293    1.2131    0.0000 C   0  0  0  0  0  0  0  0  0  0  0  0
   -4.7129    1.9323    0.0000 O   0  0  0  0  0  0  0  0  0  0  0  0
   -3.6221    0.9027    0.0000 C   0  0  0  0  0  0  0  0  0  0  0  0
   -2.1271    1.0243    0.0000 C   0  0  0  0  0  0  0  0  0  0  0  0
    1.0012    1.1931    0.0000 C   0  0  0  0  0  0  0  0  0  0  0  0
    0.4235    2.5774    0.0000 C   0  0  0  0  0  0  0  0  0  0  0  0
  1  2  2  0
  2  3  1  0
  4  3  1  1
  4  5  1  0
  5  6  2  0
  6  7  1  0
  6  8  1  0
  8  9  2  0
  8 10  1  0
 10 11  1  1
 11 12  1  0
 10 13  1  0
 13 14  1  0
 10 15  1  0
 15 16  1  1
 16 17  2  0
 17 18  1  0
 18 19  2  0
 19 20  1  0
 20 21  1  0
 21 22  1  0
 22 23  1  0
 23 24  2  0
 15 25  1  0
 25 26  1  6
 13  4  1  0
 24 16  1  0
 25  4  1  0
 23 19  1  0
M  END
>  <identifier>  (828) 
CNP0366058.1

>  <canonical_smiles>  (828) 
C=CC[C@@]12C=C(O)C(=O)[C@@](OC)(C1O)[C@@H](C1=CC=C3OCOC3=C1)[C@@H]2C

>  <standard_inchi>  (828) 
InChI=1S/C20H22O6/c1-4-7-19-9-13(21)17(22)20(24-3,18(19)23)16(11(19)2)12-5-6-14-15(8-12)26-10-25-14/h4-6,8-9,11,16,18,21,23H,1,7,10H2,2-3H3/t11-,16+,18?,19-,20+/m0/s1

>  <standard_inchi_key>  (828) 
TXEDTYYHGZODBU-GWAVEVFISA-N

>  <name>  (828) 
nan

>  <iupac_name>  (828) 
(1~{S},5~{R},6~{S},7~{R})-5-allyl-7-(1,3-benzodioxol-5-yl)-3,8-dihydroxy-1-methoxy-6-methyl-bicyclo[3.2.1]oct-3-en-2-one

>  <annotation_level>  (828) 
4

>  <total_atom_count>  (828) 
48

>  <heavy_atom_count>  (828) 
26

>  <molecular_weight>  (828) 
358.39

>  <exact_molecular_weight>  (828) 
358.14164

>  <molecular_formula>  (828) 
C20H22O6

>  <alogp>  (828) 
2.48

>  <topological_polar_surface_area>  (828) 
85.22

>  <rotatable_bond_count>  (828) 
4

>  <hydrogen_bond_acceptors>  (828) 
6

>  <hydrogen_bond_donors>  (828) 
2

>  <hydrogen_bond_acceptors_lipinski>  (828) 
6

>  <hydrogen_bond_donors_lipinski>  (828) 
2

>  <lipinski_rule_of_five_violations>  (828) 
0

>  <aromatic_rings_count>  (828) 
1

>  <qed_drug_likeliness>  (828) 
0.80

>  <formal_charge>  (828) 
0

>  <fractioncsp3>  (828) 
0.45

>  <number_of_minimal_rings>  (828) 
4

>  <van_der_walls_volume>  (828) 
nan

>  <contains_sugar>  (828) 
False

>  <contains_ring_sugars>  (828) 
False

>  <contains_linear_sugars>  (828) 
False

>  <murcko_framework>  (828) 
O1c2ccc(cc2OC1)C3CC4C=CCC3C4

>  <np_likeness>  (828) 
2.21

>  <chemical_class>  (828) 
Benzodioxoles

>  <chemical_sub_class>  (828) 
Benzodioxoles

>  <chemical_super_class>  (828) 
Organoheterocyclic compounds

>  <direct_parent_classification>  (828) 
Benzodioxoles

>  <np_classifier_pathway>  (828) 
Shikimates and Phenylpropanoids

>  <np_classifier_superclass>  (828) 
Lignans

>  <np_classifier_class>  (828) 
Neolignans

>  <np_classifier_is_glycoside>  (828) 
False

>  <organisms>  (828) 
Ocotea catharinensis

>  <collections>  (828) 
Latin America dataset|NuBBEDB|WikiData Natural Products

>  <dois>  (828) 
10.1016/0031-9422(83)83046-5

>  <synonyms>  (828) 
rel-(7R8S1'R2'R3'S)-D-2'5'-Dihydroxy-3'-methoxy-34-methylenedioxy-1'2'3'4'-tetrahydro-73'81'-neolignan

>  <cas>  (828) 
nan

$$$$

     RDKit          2D

 19 21  0  0  0  0  0  0  0  0999 V2000
   -4.9117    2.1840    0.0000 C   0  0  0  0  0  0  0  0  0  0  0  0
   -4.6785    0.7022    0.0000 O   0  0  0  0  0  0  0  0  0  0  0  0
   -3.2787    0.1633    0.0000 C   0  0  0  0  0  0  0  0  0  0  0  0
   -3.0455   -1.3185    0.0000 C   0  0  0  0  0  0  0  0  0  0  0  0
   -1.6456   -1.8574    0.0000 C   0  0  0  0  0  0  0  0  0  0  0  0
   -1.4124   -3.3391    0.0000 O   0  0  0  0  0  0  0  0  0  0  0  0
   -0.4790   -0.9145    0.0000 C   0  0  0  0  0  0  0  0  0  0  0  0
    0.9209   -1.4534    0.0000 C   0  0  0  0  0  0  0  0  0  0  0  0
    1.1541   -2.9352    0.0000 O   0  0  0  0  0  0  0  0  0  0  0  0
    2.0875   -0.5106    0.0000 C   0  0  0  0  0  0  0  0  0  0  0  0
    3.4874   -1.0495    0.0000 C   0  0  0  0  0  0  0  0  0  0  0  0
    4.6540   -0.1067    0.0000 C   0  0  0  0  0  0  0  0  0  0  0  0
    4.4208    1.3751    0.0000 C   0  0  0  0  0  0  0  0  0  0  0  0
    3.0209    1.9140    0.0000 C   0  0  0  0  0  0  0  0  0  0  0  0
    1.8543    0.9712    0.0000 C   0  0  0  0  0  0  0  0  0  0  0  0
    0.4545    1.5101    0.0000 N   0  0  0  0  0  0  0  0  0  0  0  0
    0.2212    2.9918    0.0000 C   0  0  0  0  0  0  0  0  0  0  0  0
   -0.7122    0.5672    0.0000 C   0  0  0  0  0  0  0  0  0  0  0  0
   -2.1120    1.1061    0.0000 C   0  0  0  0  0  0  0  0  0  0  0  0
  1  2  1  0
  2  3  1  0
  3  4  2  0
  4  5  1  0
  5  6  1  0
  5  7  2  0
  7  8  1  0
  8  9  2  0
  8 10  1  0
 10 11  2  0
 11 12  1  0
 12 13  2  0
 13 14  1  0
 14 15  2  0
 15 16  1  0
 16 17  1  0
 16 18  1  0
 18 19  2  0
 19  3  1  0
 18  7  1  0
 15 10  1  0
M  END
>  <identifier>  (829) 
CNP0285334.0

>  <canonical_smiles>  (829) 
COC1=CC(O)=C2C(=O)C3=CC=CC=C3N(C)C2=C1

>  <standard_inchi>  (829) 
InChI=1S/C15H13NO3/c1-16-11-6-4-3-5-10(11)15(18)14-12(16)7-9(19-2)8-13(14)17/h3-8,17H,1-2H3

>  <standard_inchi_key>  (829) 
OCUBFJMZYYIVBO-UHFFFAOYSA-N

>  <name>  (829) 
1-hydroxy-3-methoxy-10-methylacridin-9-one

>  <iupac_name>  (829) 
1-hydroxy-3-methoxy-10-methyl-acridin-9-one

>  <annotation_level>  (829) 
5

>  <total_atom_count>  (829) 
32

>  <heavy_atom_count>  (829) 
19

>  <molecular_weight>  (829) 
255.27

>  <exact_molecular_weight>  (829) 
255.08954

>  <molecular_formula>  (829) 
C15H13NO3

>  <alogp>  (829) 
2.41

>  <topological_polar_surface_area>  (829) 
51.46

>  <rotatable_bond_count>  (829) 
1

>  <hydrogen_bond_acceptors>  (829) 
4

>  <hydrogen_bond_donors>  (829) 
1

>  <hydrogen_bond_acceptors_lipinski>  (829) 
4

>  <hydrogen_bond_donors_lipinski>  (829) 
1

>  <lipinski_rule_of_five_violations>  (829) 
0

>  <aromatic_rings_count>  (829) 
3

>  <qed_drug_likeliness>  (829) 
0.68

>  <formal_charge>  (829) 
0

>  <fractioncsp3>  (829) 
0.13

>  <number_of_minimal_rings>  (829) 
3

>  <van_der_walls_volume>  (829) 
221.08

>  <contains_sugar>  (829) 
False

>  <contains_ring_sugars>  (829) 
False

>  <contains_linear_sugars>  (829) 
False

>  <murcko_framework>  (829) 
c1ccc2c(c1)Nc3ccccc3C2

>  <np_likeness>  (829) 
0.62

>  <chemical_class>  (829) 
Quinolines and derivatives

>  <chemical_sub_class>  (829) 
Benzoquinolines

>  <chemical_super_class>  (829) 
Organoheterocyclic compounds

>  <direct_parent_classification>  (829) 
Acridones

>  <np_classifier_pathway>  (829) 
Alkaloids

>  <np_classifier_superclass>  (829) 
Anthranilic acid alkaloids

>  <np_classifier_class>  (829) 
Acridone alkaloids

>  <np_classifier_is_glycoside>  (829) 
False

>  <organisms>  (829) 
Citrus grandis|Conchocarpus marginatus|Cystoseira caespitosa|Esenbeckia febrifuga|Esenbeckia pilocarpoides|Fagara macrophylla|Glycosmis pentaphylla|Hypholoma capnoides|Lactarius deliciosus var. deterrimus|Limonia acidissima|Rosa transmorrisonensis|Ruta graveolens|Thamnosma montana|Vepris pilosa|Zanthoxylum gilletii|Zanthoxylum leprieurii|Zanthoxylum rubescens|pomelo

>  <collections>  (829) 
BIOFACQUIM|CMAUP (cCollective molecular activities of useful plants)|KNApSaCK|Latin America dataset|NPASS|NPCARE|NuBBEDB|Super Natural II|UNPD (Universal Natural Products Database)|WikiData Natural Products

>  <dois>  (829) 
10.1002/ARDP.19783110210|10.1007/BF00580032|10.1016/0031-9422(77)83047-1|10.1016/J.BMC.2010.03.040|10.1016/J.PHYMED.2008.02.001|10.1016/S0031-9422(01)00423-X|10.1016/S0367-326X(01)00265-9|10.1016/j.bmc.2010.03.040|10.1021/NP0400611|10.1021/NP50048A057|10.1055/S-2005-837758|10.1055/S-2006-959437|10.1055/S-2007-969789|10.1071/CH9530066|10.1111/J.2042-7158.1971.TB12785.X|10.1515/ZNB-1972-0715|10.1590/S0100-40422012001100006|10.3390/molecules23102693

>  <synonyms>  (829) 
1-HMMA cpd|1-Hydroxy-3-methoxy-10-methyl-10-hydroacridin-9-one|1-Hydroxy-3-methoxy-10-methyl-9(10H)-acridinone|1-Hydroxy-3-methoxy-10-methylacridone|1-hydroxy-3-methoxy-10-methylacridin-9(10H)-one|13161-83-6|CHEBI:173801|CHEMBL1094824|N-methyl-1-hydroxy-3-methoxyacridone|NCI60_028892|NSC681019|OCUBFJMZYYIVBO-UHFFFAOYSA-N|RD7-5040|SCHEMBL424353

>  <cas>  (829) 
13161-83-6

$$$$

     RDKit          2D

 17 19  0  0  0  0  0  0  0  0999 V2000
    6.5313   -1.6035    0.0000 C   0  0  0  0  0  0  0  0  0  0  0  0
    5.0883   -1.1941    0.0000 O   0  0  0  0  0  0  0  0  0  0  0  0
    4.7213    0.2603    0.0000 C   0  0  0  0  0  0  0  0  0  0  0  0
    3.2783    0.6697    0.0000 C   0  0  0  0  0  0  0  0  0  0  0  0
    2.7613    2.0778    0.0000 C   0  0  0  0  0  0  0  0  0  0  0  0
    1.2624    2.0213    0.0000 O   0  0  0  0  0  0  0  0  0  0  0  0
    0.8529    0.5783    0.0000 C   0  0  0  0  0  0  0  0  0  0  0  0
   -0.5552    0.0613    0.0000 C   0  0  0  0  0  0  0  0  0  0  0  0
   -0.8115   -1.4166    0.0000 C   0  0  0  0  0  0  0  0  0  0  0  0
   -2.2196   -1.9336    0.0000 C   0  0  0  0  0  0  0  0  0  0  0  0
   -3.3714   -0.9726    0.0000 C   0  0  0  0  0  0  0  0  0  0  0  0
   -4.8562   -1.1855    0.0000 N   0  0  0  0  0  0  0  0  0  0  0  0
   -5.5175    0.1608    0.0000 C   0  0  0  0  0  0  0  0  0  0  0  0
   -4.4414    1.2058    0.0000 C   0  0  0  0  0  0  0  0  0  0  0  0
   -3.1150    0.5053    0.0000 C   0  0  0  0  0  0  0  0  0  0  0  0
   -1.7069    1.0223    0.0000 C   0  0  0  0  0  0  0  0  0  0  0  0
    2.0988   -0.2570    0.0000 C   0  0  0  0  0  0  0  0  0  0  0  0
  1  2  1  0
  2  3  1  0
  3  4  1  0
  4  5  2  0
  5  6  1  0
  6  7  1  0
  7  8  1  0
  8  9  2  0
  9 10  1  0
 10 11  2  0
 11 12  1  0
 12 13  1  0
 13 14  2  0
 14 15  1  0
 15 16  2  0
  7 17  2  0
 17  4  1  0
 16  8  1  0
 15 11  1  0
M  END
>  <identifier>  (830) 
CNP0419876.0

>  <canonical_smiles>  (830) 
COCC1=COC(C2=CC=C3NC=CC3=C2)=C1

>  <standard_inchi>  (830) 
InChI=1S/C14H13NO2/c1-16-8-10-6-14(17-9-10)12-2-3-13-11(7-12)4-5-15-13/h2-7,9,15H,8H2,1H3

>  <standard_inchi_key>  (830) 
HZYOYPAUHNXOFK-UHFFFAOYSA-N

>  <name>  (830) 
nan

>  <iupac_name>  (830) 
5-[4-(methoxymethyl)-2-furyl]-1~{H}-indole

>  <annotation_level>  (830) 
4

>  <total_atom_count>  (830) 
30

>  <heavy_atom_count>  (830) 
17

>  <molecular_weight>  (830) 
227.26

>  <exact_molecular_weight>  (830) 
227.09463

>  <molecular_formula>  (830) 
C14H13NO2

>  <alogp>  (830) 
3.57

>  <topological_polar_surface_area>  (830) 
38.16

>  <rotatable_bond_count>  (830) 
3

>  <hydrogen_bond_acceptors>  (830) 
2

>  <hydrogen_bond_donors>  (830) 
1

>  <hydrogen_bond_acceptors_lipinski>  (830) 
2

>  <hydrogen_bond_donors_lipinski>  (830) 
1

>  <lipinski_rule_of_five_violations>  (830) 
0

>  <aromatic_rings_count>  (830) 
3

>  <qed_drug_likeliness>  (830) 
0.74

>  <formal_charge>  (830) 
0

>  <fractioncsp3>  (830) 
0.14

>  <number_of_minimal_rings>  (830) 
3

>  <van_der_walls_volume>  (830) 
nan

>  <contains_sugar>  (830) 
False

>  <contains_ring_sugars>  (830) 
False

>  <contains_linear_sugars>  (830) 
False

>  <murcko_framework>  (830) 
o1cccc1-c2ccc3[nH]ccc3c2

>  <np_likeness>  (830) 
0.00

>  <chemical_class>  (830) 
Indoles and derivatives

>  <chemical_sub_class>  (830) 
Indoles

>  <chemical_super_class>  (830) 
Organoheterocyclic compounds

>  <direct_parent_classification>  (830) 
Indoles

>  <np_classifier_pathway>  (830) 
Alkaloids

>  <np_classifier_superclass>  (830) 
Tryptophan alkaloids

>  <np_classifier_class>  (830) 
Simple indole alkaloids

>  <np_classifier_is_glycoside>  (830) 
False

>  <organisms>  (830) 
Raputia praetermissa

>  <collections>  (830) 
Latin America dataset|NuBBEDB|UNPD (Universal Natural Products Database)|WikiData Natural Products

>  <dois>  (830) 
10.1590/S0103-50532011000700021

>  <synonyms>  (830) 
Raputimonoindole C

>  <cas>  (830) 
nan

$$$$

     RDKit          2D

 37 43  0  0  0  0  0  0  0  0999 V2000
   -2.3526   -5.4719    0.0000 C   0  0  0  0  0  0  0  0  0  0  0  0
   -2.5961   -3.9918    0.0000 C   0  0  0  0  0  0  0  0  0  0  0  0
   -3.9997   -3.4626    0.0000 O   0  0  0  0  0  0  0  0  0  0  0  0
   -1.4361   -3.0409    0.0000 O   0  0  0  0  0  0  0  0  0  0  0  0
   -1.6796   -1.5607    0.0000 C   0  0  0  0  0  0  0  0  0  0  0  0
   -3.0832   -1.0316    0.0000 C   0  0  0  0  0  0  0  0  0  0  0  0
   -3.3267    0.4485    0.0000 C   0  0  0  0  0  0  0  0  0  0  0  0
   -4.5896    1.2579    0.0000 C   0  0  0  0  0  0  0  0  0  0  0  0
   -5.2625   -0.0826    0.0000 C   0  0  0  0  0  0  0  0  0  0  0  0
   -5.9931    1.7871    0.0000 C   0  0  0  0  0  0  0  0  0  0  0  0
   -4.2100    2.7091    0.0000 O   0  0  0  0  0  0  0  0  0  0  0  0
   -2.7126    2.7966    0.0000 C   0  0  0  0  0  0  0  0  0  0  0  0
   -1.5208    3.3159    0.0000 C   0  0  0  0  0  0  0  0  0  0  0  0
   -0.7299    3.1955    0.0000 C   0  0  0  0  0  0  0  0  0  0  0  0
    0.6443    4.9135    0.0000 O   0  0  0  0  0  0  0  0  0  0  0  0
   -0.4388    2.4504    0.0000 O   0  0  0  0  0  0  0  0  0  0  0  0
   -0.9385    1.8257    0.0000 C   0  0  0  0  0  0  0  0  0  0  0  0
   -2.1666    1.3995    0.0000 C   0  0  0  0  0  0  0  0  0  0  0  0
   -0.7631    0.8703    0.0000 C   0  0  0  0  0  0  0  0  0  0  0  0
    0.3970    1.8212    0.0000 C   0  0  0  0  0  0  0  0  0  0  0  0
    1.8005    1.2921    0.0000 C   0  0  0  0  0  0  0  0  0  0  0  0
    2.0441   -0.1880    0.0000 C   0  0  0  0  0  0  0  0  0  0  0  0
    3.2041    0.7629    0.0000 C   0  0  0  0  0  0  0  0  0  0  0  0
    3.4476   -0.7172    0.0000 C   0  0  0  0  0  0  0  0  0  0  0  0
    4.6077    0.2338    0.0000 C   0  0  0  0  0  0  0  0  0  0  0  0
    4.5202    1.7312    0.0000 C   0  0  0  0  0  0  0  0  0  0  0  0
    5.9173    2.2771    0.0000 O   0  0  0  0  0  0  0  0  0  0  0  0
    6.8683    1.1171    0.0000 C   0  0  0  0  0  0  0  0  0  0  0  0
    6.0588   -0.1458    0.0000 C   0  0  0  0  0  0  0  0  0  0  0  0
    3.6911   -2.1973    0.0000 O   0  0  0  0  0  0  0  0  0  0  0  0
    2.5311   -3.1482    0.0000 C   0  0  0  0  0  0  0  0  0  0  0  0
    2.7746   -4.6283    0.0000 O   0  0  0  0  0  0  0  0  0  0  0  0
    1.1275   -2.6191    0.0000 C   0  0  0  0  0  0  0  0  0  0  0  0
   -0.2760   -2.0899    0.0000 O   0  0  0  0  0  0  0  0  0  0  0  0
    0.8840   -1.1390    0.0000 C   0  0  0  0  0  0  0  0  0  0  0  0
   -0.5196   -0.6098    0.0000 C   0  0  0  0  0  0  0  0  0  0  0  0
   -1.9231   -0.0806    0.0000 C   0  0  0  0  0  0  0  0  0  0  0  0
  1  2  1  0
  2  3  2  0
  2  4  1  0
  4  5  1  0
  5  6  1  0
  7  6  1  1
  7  8  1  0
  8  9  1  0
  8 10  1  0
  8 11  1  0
 11 12  1  0
 12 13  1  1
 13 14  1  0
 14 15  2  0
 14 16  1  0
 16 17  1  0
 18 17  1  1
 18 19  1  0
 19 20  1  1
 20 21  1  0
 21 22  1  0
 22 23  1  6
 22 24  1  0
 24 25  1  6
 25 26  2  0
 26 27  1  0
 27 28  1  0
 28 29  2  0
 24 30  1  0
 30 31  1  0
 31 32  2  0
 31 33  1  0
 33 34  1  1
 35 34  1  1
 35 36  1  0
 36 37  1  1
 36  5  1  0
 18  7  1  0
 36 19  1  0
 18 12  1  0
 35 22  1  0
 29 25  1  0
 35 33  1  0
M  END
>  <identifier>  (831) 
CNP0309202.1

>  <canonical_smiles>  (831) 
CC(=O)OC1C[C@H]2C(C)(C)O[C@H]3CC(=O)OC[C@]32[C@H]2CC[C@@]3(C)[C@H](C4=COC=C4)OC(=O)[C@H]4O[C@]43[C@]12C

>  <standard_inchi>  (831) 
InChI=1S/C28H34O9/c1-14(29)34-18-10-17-24(2,3)36-19-11-20(30)33-13-27(17,19)16-6-8-25(4)21(15-7-9-32-12-15)35-23(31)22-28(25,37-22)26(16,18)5/h7,9,12,16-19,21-22H,6,8,10-11,13H2,1-5H3/t16-,17-,18?,19-,21-,22+,25-,26-,27+,28+/m0/s1

>  <standard_inchi_key>  (831) 
WQDRZTIUAGZBQW-GTKUCDSASA-N

>  <name>  (831) 
nan

>  <iupac_name>  (831) 
[(1~{R},2~{R},7~{S},10~{R},13~{S},14~{R},16~{S},19~{S},20~{S})-19-(3-furyl)-9,9,13,20-tetramethyl-5,17-dioxo-4,8,15,18-tetraoxahexacyclo[11.9.0.0^{2,7}.0^{2,10}.0^{14,16}.0^{14,20}]docosan-12-yl] acetate

>  <annotation_level>  (831) 
4

>  <total_atom_count>  (831) 
71

>  <heavy_atom_count>  (831) 
37

>  <molecular_weight>  (831) 
514.57

>  <exact_molecular_weight>  (831) 
514.22028

>  <molecular_formula>  (831) 
C28H34O9

>  <alogp>  (831) 
3.50

>  <topological_polar_surface_area>  (831) 
113.80

>  <rotatable_bond_count>  (831) 
2

>  <hydrogen_bond_acceptors>  (831) 
9

>  <hydrogen_bond_donors>  (831) 
0

>  <hydrogen_bond_acceptors_lipinski>  (831) 
9

>  <hydrogen_bond_donors_lipinski>  (831) 
0

>  <lipinski_rule_of_five_violations>  (831) 
1

>  <aromatic_rings_count>  (831) 
1

>  <qed_drug_likeliness>  (831) 
0.33

>  <formal_charge>  (831) 
0

>  <fractioncsp3>  (831) 
0.75

>  <number_of_minimal_rings>  (831) 
7

>  <van_der_walls_volume>  (831) 
nan

>  <contains_sugar>  (831) 
False

>  <contains_ring_sugars>  (831) 
False

>  <contains_linear_sugars>  (831) 
False

>  <murcko_framework>  (831) 
o1ccc(c1)C2OCC3OC34C2CCC5C4CCC6COC7CCOCC765

>  <np_likeness>  (831) 
3.55

>  <chemical_class>  (831) 
Steroids and steroid derivatives

>  <chemical_sub_class>  (831) 
Steroid lactones

>  <chemical_super_class>  (831) 
Lipids and lipid-like molecules

>  <direct_parent_classification>  (831) 
Steroid lactones

>  <np_classifier_pathway>  (831) 
Terpenoids

>  <np_classifier_superclass>  (831) 
Triterpenoids

>  <np_classifier_class>  (831) 
Limonoids

>  <np_classifier_is_glycoside>  (831) 
False

>  <organisms>  (831) 
Citrus sinensis

>  <collections>  (831) 
Latin America dataset|NuBBEDB

>  <dois>  (831) 
10.1021/jf801103p

>  <synonyms>  (831) 
Limonyl acetate

>  <cas>  (831) 
nan

$$$$

     RDKit          2D

 39 43  0  0  0  0  0  0  0  0999 V2000
   -6.6093    3.0846    0.0000 C   0  0  0  0  0  0  0  0  0  0  0  0
   -5.5107    2.0633    0.0000 C   0  0  0  0  0  0  0  0  0  0  0  0
   -4.0769    2.5041    0.0000 O   0  0  0  0  0  0  0  0  0  0  0  0
   -5.8459    0.6012    0.0000 O   0  0  0  0  0  0  0  0  0  0  0  0
   -4.7473   -0.4201    0.0000 C   0  0  0  0  0  0  0  0  0  0  0  0
   -5.0825   -1.8822    0.0000 C   0  0  0  0  0  0  0  0  0  0  0  0
   -3.9839   -2.9035    0.0000 C   0  0  0  0  0  0  0  0  0  0  0  0
   -4.3190   -4.3655    0.0000 C   0  0  0  0  0  0  0  0  0  0  0  0
   -2.5501   -2.4627    0.0000 C   0  0  0  0  0  0  0  0  0  0  0  0
   -1.4515   -3.4840    0.0000 C   0  0  0  0  0  0  0  0  0  0  0  0
   -0.0177   -3.0433    0.0000 C   0  0  0  0  0  0  0  0  0  0  0  0
    1.0809   -4.0646    0.0000 O   0  0  0  0  0  0  0  0  0  0  0  0
    2.5147   -3.6238    0.0000 C   0  0  0  0  0  0  0  0  0  0  0  0
    3.6133   -4.6451    0.0000 O   0  0  0  0  0  0  0  0  0  0  0  0
    2.8499   -2.1617    0.0000 C   0  0  0  0  0  0  0  0  0  0  0  0
    1.7513   -1.1404    0.0000 C   0  0  0  0  0  0  0  0  0  0  0  0
    0.3175   -1.5812    0.0000 C   0  0  0  0  0  0  0  0  0  0  0  0
    0.6527   -0.1191    0.0000 C   0  0  0  0  0  0  0  0  0  0  0  0
   -0.7811   -0.5599    0.0000 C   0  0  0  0  0  0  0  0  0  0  0  0
   -0.4459    0.9022    0.0000 C   0  0  0  0  0  0  0  0  0  0  0  0
   -1.5445    1.9235    0.0000 O   0  0  0  0  0  0  0  0  0  0  0  0
   -1.2094    3.3856    0.0000 C   0  0  0  0  0  0  0  0  0  0  0  0
   -2.3080    4.4069    0.0000 C   0  0  0  0  0  0  0  0  0  0  0  0
    0.2244    3.8263    0.0000 O   0  0  0  0  0  0  0  0  0  0  0  0
    0.9878    1.3430    0.0000 C   0  0  0  0  0  0  0  0  0  0  0  0
    2.0864    0.3216    0.0000 C   0  0  0  0  0  0  0  0  0  0  0  0
    3.4681   -0.2623    0.0000 C   0  0  0  0  0  0  0  0  0  0  0  0
    2.9015    1.5809    0.0000 C   0  0  0  0  0  0  0  0  0  0  0  0
    2.2184    2.9164    0.0000 O   0  0  0  0  0  0  0  0  0  0  0  0
    4.3995    1.5047    0.0000 C   0  0  0  0  0  0  0  0  0  0  0  0
    5.3417    2.6719    0.0000 C   0  0  0  0  0  0  0  0  0  0  0  0
    6.7429    2.1365    0.0000 O   0  0  0  0  0  0  0  0  0  0  0  0
    6.6667    0.6384    0.0000 C   0  0  0  0  0  0  0  0  0  0  0  0
    7.8339   -0.3038    0.0000 O   0  0  0  0  0  0  0  0  0  0  0  0
    5.2184    0.2480    0.0000 C   0  0  0  0  0  0  0  0  0  0  0  0
   -2.2149   -1.0006    0.0000 C   0  0  0  0  0  0  0  0  0  0  0  0
   -1.8797    0.4614    0.0000 C   0  0  0  0  0  0  0  0  0  0  0  0
   -3.3135    0.0207    0.0000 C   0  0  0  0  0  0  0  0  0  0  0  0
   -2.9783    1.4827    0.0000 O   0  0  0  0  0  0  0  0  0  0  0  0
  1  2  1  0
  2  3  2  0
  2  4  1  0
  5  4  1  6
  5  6  1  0
  6  7  1  0
  7  8  1  6
  7  9  1  0
  9 10  1  1
 11 10  1  6
 11 12  1  0
 12 13  1  0
 13 14  2  0
 13 15  1  0
 16 15  1  6
 16 17  1  0
 17 18  1  1
 17 19  1  0
 19 20  1  1
 20 21  1  6
 21 22  1  0
 22 23  1  0
 22 24  2  0
 20 25  1  0
 25 26  1  0
 26 27  1  6
 26 28  1  0
 28 29  2  0
 30 28  1  1
 30 31  1  0
 31 32  1  0
 32 33  1  0
 33 34  2  0
 33 35  1  0
 19 36  1  0
 36 37  1  1
 36 38  1  0
 38 39  2  0
 38  5  1  0
 36  9  1  0
 17 11  1  0
 35 30  1  0
 26 16  1  0
M  END
>  <identifier>  (832) 
CNP0256033.1

>  <canonical_smiles>  (832) 
CC(=O)O[C@H]1C[C@@H](C)[C@@H]2C[C@H]3OC(=O)C[C@@H]4[C@@]3(C)[C@H]([C@H](OC(C)=O)C[C@@]4(C)C(=O)[C@H]3COC(=O)C3)[C@@]2(C)C1=O

>  <standard_inchi>  (832) 
InChI=1S/C29H38O10/c1-13-7-18(37-14(2)30)26(35)28(5)17(13)9-21-29(6)20(10-23(33)39-21)27(4,11-19(24(28)29)38-15(3)31)25(34)16-8-22(32)36-12-16/h13,16-21,24H,7-12H2,1-6H3/t13-,16-,17+,18+,19-,20+,21-,24-,27-,28+,29-/m1/s1

>  <standard_inchi_key>  (832) 
MDGXIAKLNVEGKI-UXYMEGHMSA-N

>  <name>  (832) 
nan

>  <iupac_name>  (832) 
[(1~{S},2~{S},4~{S},6~{R},7~{S},9~{R},13~{R},14~{R},16~{R},17~{S})-16-acetoxy-2,6,14,17-tetramethyl-3,11-dioxo-14-[(3~{R})-5-oxotetrahydrofuran-3-carbonyl]-10-oxatetracyclo[7.7.1.0^{2,7}.0^{13,17}]heptadecan-4-yl] acetate

>  <annotation_level>  (832) 
4

>  <total_atom_count>  (832) 
77

>  <heavy_atom_count>  (832) 
39

>  <molecular_weight>  (832) 
546.61

>  <exact_molecular_weight>  (832) 
546.2465

>  <molecular_formula>  (832) 
C29H38O10

>  <alogp>  (832) 
2.58

>  <topological_polar_surface_area>  (832) 
139.34

>  <rotatable_bond_count>  (832) 
4

>  <hydrogen_bond_acceptors>  (832) 
10

>  <hydrogen_bond_donors>  (832) 
0

>  <hydrogen_bond_acceptors_lipinski>  (832) 
10

>  <hydrogen_bond_donors_lipinski>  (832) 
0

>  <lipinski_rule_of_five_violations>  (832) 
1

>  <aromatic_rings_count>  (832) 
0

>  <qed_drug_likeliness>  (832) 
0.38

>  <formal_charge>  (832) 
0

>  <fractioncsp3>  (832) 
0.79

>  <number_of_minimal_rings>  (832) 
5

>  <van_der_walls_volume>  (832) 
nan

>  <contains_sugar>  (832) 
False

>  <contains_ring_sugars>  (832) 
False

>  <contains_linear_sugars>  (832) 
False

>  <murcko_framework>  (832) 
O1CCC(C1)CC2CCC3C4CCCCC4CC5OCCC2C53

>  <np_likeness>  (832) 
2.61

>  <chemical_class>  (832) 
Prenol lipids

>  <chemical_sub_class>  (832) 
Terpene lactones

>  <chemical_super_class>  (832) 
Lipids and lipid-like molecules

>  <direct_parent_classification>  (832) 
Quassinoids

>  <np_classifier_pathway>  (832) 
Terpenoids

>  <np_classifier_superclass>  (832) 
Triterpenoids

>  <np_classifier_class>  (832) 
Quassinoids

>  <np_classifier_is_glycoside>  (832) 
False

>  <organisms>  (832) 
Homalolepis cuneata|Simaba cuneata

>  <collections>  (832) 
Latin America dataset|NuBBEDB|WikiData Natural Products

>  <dois>  (832) 
10.1590/S0103-50531999000100012

>  <synonyms>  (832) 
20(R)-2-O-acetylsimarolide

>  <cas>  (832) 
nan

$$$$

     RDKit          2D

 40 42  0  0  0  0  0  0  0  0999 V2000
    7.4515   -0.6517    0.0000 C   0  0  0  0  0  0  0  0  0  0  0  0
    5.9708   -0.8918    0.0000 C   0  0  0  0  0  0  0  0  0  0  0  0
    5.4383   -2.2941    0.0000 C   0  0  0  0  0  0  0  0  0  0  0  0
    6.3865   -3.4564    0.0000 C   0  0  0  0  0  0  0  0  0  0  0  0
    3.9576   -2.5341    0.0000 C   0  0  0  0  0  0  0  0  0  0  0  0
    3.0094   -1.3718    0.0000 C   0  0  0  0  0  0  0  0  0  0  0  0
    1.5288   -1.6119    0.0000 C   0  0  0  0  0  0  0  0  0  0  0  0
    2.0223   -3.0284    0.0000 C   0  0  0  0  0  0  0  0  0  0  0  0
    1.5495   -0.1120    0.0000 C   0  0  0  0  0  0  0  0  0  0  0  0
    2.8588    0.6200    0.0000 C   0  0  0  0  0  0  0  0  0  0  0  0
    0.2610    0.6559    0.0000 C   0  0  0  0  0  0  0  0  0  0  0  0
    0.2817    2.1557    0.0000 O   0  0  0  0  0  0  0  0  0  0  0  0
    1.5910    2.8877    0.0000 C   0  0  0  0  0  0  0  0  0  0  0  0
    2.8795    2.1198    0.0000 O   0  0  0  0  0  0  0  0  0  0  0  0
    1.6117    4.3876    0.0000 C   0  0  0  0  0  0  0  0  0  0  0  0
    2.9210    5.1195    0.0000 C   0  0  0  0  0  0  0  0  0  0  0  0
    2.9417    6.6194    0.0000 C   0  0  0  0  0  0  0  0  0  0  0  0
   -1.0483   -0.0761    0.0000 C   0  0  0  0  0  0  0  0  0  0  0  0
   -2.3369    0.6918    0.0000 O   0  0  0  0  0  0  0  0  0  0  0  0
   -2.3161    2.1916    0.0000 C   0  0  0  0  0  0  0  0  0  0  0  0
   -3.6047    2.9595    0.0000 C   0  0  0  0  0  0  0  0  0  0  0  0
   -1.2229    3.2187    0.0000 O   0  0  0  0  0  0  0  0  0  0  0  0
   -1.0691   -1.5760    0.0000 C   0  0  0  0  0  0  0  0  0  0  0  0
   -2.3783   -2.3079    0.0000 C   0  0  0  0  0  0  0  0  0  0  0  0
   -2.3991   -3.8078    0.0000 C   0  0  0  0  0  0  0  0  0  0  0  0
   -1.1105   -4.5757    0.0000 C   0  0  0  0  0  0  0  0  0  0  0  0
   -1.1313   -6.0755    0.0000 O   0  0  0  0  0  0  0  0  0  0  0  0
    0.1988   -3.8437    0.0000 C   0  0  0  0  0  0  0  0  0  0  0  0
    0.2195   -2.3438    0.0000 C   0  0  0  0  0  0  0  0  0  0  0  0
   -3.4791   -1.2889    0.0000 C   0  0  0  0  0  0  0  0  0  0  0  0
   -4.9505   -1.5805    0.0000 O   0  0  0  0  0  0  0  0  0  0  0  0
   -5.9387   -0.4520    0.0000 C   0  0  0  0  0  0  0  0  0  0  0  0
   -7.4101   -0.7436    0.0000 C   0  0  0  0  0  0  0  0  0  0  0  0
   -5.4555    0.9680    0.0000 O   0  0  0  0  0  0  0  0  0  0  0  0
   -2.8501    0.0728    0.0000 O   0  0  0  0  0  0  0  0  0  0  0  0
   -1.3606   -0.1046    0.0000 C   0  0  0  0  0  0  0  0  0  0  0  0
   -0.3416    0.9962    0.0000 O   0  0  0  0  0  0  0  0  0  0  0  0
   -0.7854    2.4290    0.0000 C   0  0  0  0  0  0  0  0  0  0  0  0
    0.2336    3.5298    0.0000 C   0  0  0  0  0  0  0  0  0  0  0  0
   -2.1243    3.1052    0.0000 O   0  0  0  0  0  0  0  0  0  0  0  0
  1  2  2  0
  2  3  1  0
  3  4  1  0
  3  5  2  0
  5  6  1  0
  6  7  1  0
  7  8  1  6
  7  9  1  0
  9 10  1  1
  9 11  1  0
 11 12  1  6
 12 13  1  0
 13 14  2  0
 13 15  1  0
 15 16  1  0
 16 17  1  0
 11 18  1  0
 18 19  1  1
 19 20  1  0
 20 21  1  0
 20 22  2  0
 18 23  1  0
 23 24  1  6
 24 25  2  0
 25 26  1  0
 26 27  1  1
 26 28  1  0
 29 28  1  6
 24 30  1  0
 30 31  1  1
 31 32  1  0
 32 33  1  0
 32 34  2  0
 30 35  1  0
 35 36  1  0
 36 37  1  1
 37 38  1  0
 38 39  1  0
 38 40  2  0
 29  7  1  0
 29 23  1  0
 36 23  1  0
M  END
>  <identifier>  (833) 
CNP0384320.1

>  <canonical_smiles>  (833) 
C=C/C(C)=C\C[C@]1(C)[C@H](C)[C@@H](OC(=O)CCC)[C@H](OC(C)=O)[C@@]23C(=C[C@H](O)C[C@@H]12)[C@@H](OC(C)=O)O[C@H]3OC(C)=O

>  <standard_inchi>  (833) 
InChI=1S/C30H42O10/c1-9-11-24(35)39-25-17(4)29(8,13-12-16(3)10-2)23-15-21(34)14-22-27(37-19(6)32)40-28(38-20(7)33)30(22,23)26(25)36-18(5)31/h10,12,14,17,21,23,25-28,34H,2,9,11,13,15H2,1,3-8H3/b16-12-/t17-,21+,23+,25-,26+,27+,28-,29-,30-/m1/s1

>  <standard_inchi_key>  (833) 
BHUYQOFSOZSSQX-XCQGBTKVSA-N

>  <name>  (833) 
nan

>  <iupac_name>  (833) 
[(1~{S},3~{R},5~{R},6~{a}~{S},7~{S},8~{S},9~{R},10~{R},10~{a}~{S})-1,3,10-triacetoxy-5-hydroxy-7,8-dimethyl-7-[(2~{Z})-3-methylpenta-2,4-dienyl]-1,3,5,6,6~{a},8,9,10-octahydrobenzo[d]isobenzofuran-9-yl] butanoate

>  <annotation_level>  (833) 
5

>  <total_atom_count>  (833) 
82

>  <heavy_atom_count>  (833) 
40

>  <molecular_weight>  (833) 
562.66

>  <exact_molecular_weight>  (833) 
562.2778

>  <molecular_formula>  (833) 
C30H42O10

>  <alogp>  (833) 
3.91

>  <topological_polar_surface_area>  (833) 
134.66

>  <rotatable_bond_count>  (833) 
9

>  <hydrogen_bond_acceptors>  (833) 
10

>  <hydrogen_bond_donors>  (833) 
1

>  <hydrogen_bond_acceptors_lipinski>  (833) 
10

>  <hydrogen_bond_donors_lipinski>  (833) 
1

>  <lipinski_rule_of_five_violations>  (833) 
1

>  <aromatic_rings_count>  (833) 
0

>  <qed_drug_likeliness>  (833) 
0.19

>  <formal_charge>  (833) 
0

>  <fractioncsp3>  (833) 
0.67

>  <number_of_minimal_rings>  (833) 
3

>  <van_der_walls_volume>  (833) 
519.23

>  <contains_sugar>  (833) 
False

>  <contains_ring_sugars>  (833) 
False

>  <contains_linear_sugars>  (833) 
False

>  <murcko_framework>  (833) 
O1CC2=CCCC3CCCCC23C1

>  <np_likeness>  (833) 
3.19

>  <chemical_class>  (833) 
Prenol lipids

>  <chemical_sub_class>  (833) 
Diterpenoids

>  <chemical_super_class>  (833) 
Lipids and lipid-like molecules

>  <direct_parent_classification>  (833) 
Colensane and clerodane diterpenoids

>  <np_classifier_pathway>  (833) 
Terpenoids

>  <np_classifier_superclass>  (833) 
Diterpenoids

>  <np_classifier_class>  (833) 
Colensane and Clerodane diterpenoids

>  <np_classifier_is_glycoside>  (833) 
True

>  <organisms>  (833) 
Casearia sylvestris

>  <collections>  (833) 
ChemSpider NPs|Latin America dataset|NuBBEDB|Super Natural II|WikiData Natural Products|ZINC NP

>  <dois>  (833) 
10.1002/PCA.902|10.1002/pca.902|10.1248/CPB.39.693

>  <synonyms>  (833) 
Casearin Q

>  <cas>  (833) 
nan

$$$$

     RDKit          2D

 33 36  0  0  0  0  0  0  0  0999 V2000
    0.3706   -3.5760    0.0000 C   0  0  0  0  0  0  0  0  0  0  0  0
    1.6654   -2.8186    0.0000 C   0  0  0  0  0  0  0  0  0  0  0  0
    3.0391   -3.4209    0.0000 C   0  0  0  0  0  0  0  0  0  0  0  0
    3.3594   -4.8863    0.0000 O   0  0  0  0  0  0  0  0  0  0  0  0
    4.0365   -2.3005    0.0000 O   0  0  0  0  0  0  0  0  0  0  0  0
    3.2791   -1.0057    0.0000 C   0  0  0  0  0  0  0  0  0  0  0  0
    1.8137   -1.3259    0.0000 C   0  0  0  0  0  0  0  0  0  0  0  0
    0.4399   -0.7236    0.0000 C   0  0  0  0  0  0  0  0  0  0  0  0
   -0.5574   -1.8441    0.0000 O   0  0  0  0  0  0  0  0  0  0  0  0
   -2.0264   -1.5405    0.0000 C   0  0  0  0  0  0  0  0  0  0  0  0
   -2.8286   -0.2730    0.0000 O   0  0  0  0  0  0  0  0  0  0  0  0
   -3.0237   -2.6609    0.0000 C   0  0  0  0  0  0  0  0  0  0  0  0
   -2.0935   -3.8377    0.0000 C   0  0  0  0  0  0  0  0  0  0  0  0
   -4.3441   -3.3727    0.0000 O   0  0  0  0  0  0  0  0  0  0  0  0
   -4.3003   -1.8733    0.0000 C   0  0  0  0  0  0  0  0  0  0  0  0
   -5.0120   -0.5529    0.0000 C   0  0  0  0  0  0  0  0  0  0  0  0
   -0.3175    0.5711    0.0000 C   0  0  0  0  0  0  0  0  0  0  0  0
   -1.7829    0.2509    0.0000 O   0  0  0  0  0  0  0  0  0  0  0  0
   -2.7929    1.3599    0.0000 C   0  0  0  0  0  0  0  0  0  0  0  0
   -4.2583    1.0397    0.0000 C   0  0  0  0  0  0  0  0  0  0  0  0
   -2.5509    2.1194    0.0000 O   0  0  0  0  0  0  0  0  0  0  0  0
   -0.1692    2.0638    0.0000 C   0  0  0  0  0  0  0  0  0  0  0  0
   -1.5429    2.6661    0.0000 C   0  0  0  0  0  0  0  0  0  0  0  0
   -2.2803    2.3633    0.0000 O   0  0  0  0  0  0  0  0  0  0  0  0
   -1.7082    4.1569    0.0000 O   0  0  0  0  0  0  0  0  0  0  0  0
   -3.0820    4.7592    0.0000 C   0  0  0  0  0  0  0  0  0  0  0  0
    0.8282    3.1842    0.0000 C   0  0  0  0  0  0  0  0  0  0  0  0
    2.2936    3.5044    0.0000 C   0  0  0  0  0  0  0  0  0  0  0  0
    3.6674    2.9021    0.0000 C   0  0  0  0  0  0  0  0  0  0  0  0
    4.4248    1.6073    0.0000 C   0  0  0  0  0  0  0  0  0  0  0  0
    5.5337    2.6173    0.0000 C   0  0  0  0  0  0  0  0  0  0  0  0
    5.6433    0.7326    0.0000 O   0  0  0  0  0  0  0  0  0  0  0  0
    4.2764    0.1147    0.0000 C   0  0  0  0  0  0  0  0  0  0  0  0
  1  2  2  0
  2  3  1  0
  3  4  2  0
  3  5  1  0
  6  5  1  1
  6  7  1  0
  7  8  1  0
  8  9  1  6
  9 10  1  0
 10 11  2  0
 10 12  1  0
 12 13  1  6
 12 14  1  0
 14 15  1  0
 15 16  1  1
  8 17  1  0
 17 18  1  1
 18 19  1  0
 19 20  1  0
 19 21  2  0
 17 22  1  0
 22 23  1  0
 23 24  2  0
 23 25  1  0
 25 26  1  0
 22 27  2  0
 27 28  1  0
 28 29  1  0
 29 30  1  0
 30 31  1  6
 30 32  1  0
 33 32  1  6
  7  2  1  6
 15 12  1  0
 33 30  1  0
 33  6  1  0
M  END
>  <identifier>  (834) 
CNP0200158.1

>  <canonical_smiles>  (834) 
C=C1C(=O)O[C@H]2[C@H]1[C@H](OC(=O)[C@@]1(C)O[C@H]1C)[C@@H](OC(C)=O)/C(C(=O)OC)=C\CC[C@@]1(C)O[C@H]21

>  <standard_inchi>  (834) 
InChI=1S/C23H28O10/c1-10-14-16(31-21(27)23(5)11(2)32-23)15(29-12(3)24)13(20(26)28-6)8-7-9-22(4)18(33-22)17(14)30-19(10)25/h8,11,14-18H,1,7,9H2,2-6H3/b13-8+/t11-,14+,15-,16-,17-,18+,22+,23-/m0/s1

>  <standard_inchi_key>  (834) 
VCBNPTWPJQLHQN-ZRVFLOPNSA-N

>  <name>  (834) 
Enhydrin

>  <iupac_name>  (834) 
methyl (1~{S},2~{R},4~{R},7~{E},9~{S},10~{S},11~{R})-9-acetoxy-10-[(2~{S},3~{S})-2,3-dimethyloxirane-2-carbonyl]oxy-4-methyl-12-methylene-13-oxo-3,14-dioxatricyclo[9.3.0.0^{2,4}]tetradec-7-ene-8-carboxylate

>  <annotation_level>  (834) 
5

>  <total_atom_count>  (834) 
61

>  <heavy_atom_count>  (834) 
33

>  <molecular_weight>  (834) 
464.47

>  <exact_molecular_weight>  (834) 
464.16825

>  <molecular_formula>  (834) 
C23H28O10

>  <alogp>  (834) 
1.16

>  <topological_polar_surface_area>  (834) 
130.26

>  <rotatable_bond_count>  (834) 
4

>  <hydrogen_bond_acceptors>  (834) 
10

>  <hydrogen_bond_donors>  (834) 
0

>  <hydrogen_bond_acceptors_lipinski>  (834) 
10

>  <hydrogen_bond_donors_lipinski>  (834) 
0

>  <lipinski_rule_of_five_violations>  (834) 
0

>  <aromatic_rings_count>  (834) 
0

>  <qed_drug_likeliness>  (834) 
0.26

>  <formal_charge>  (834) 
0

>  <fractioncsp3>  (834) 
0.65

>  <number_of_minimal_rings>  (834) 
4

>  <van_der_walls_volume>  (834) 
408.96

>  <contains_sugar>  (834) 
False

>  <contains_ring_sugars>  (834) 
False

>  <contains_linear_sugars>  (834) 
False

>  <murcko_framework>  (834) 
O1CC1COC2CC=CCCC3OC3C4OCCC24

>  <np_likeness>  (834) 
3.10

>  <chemical_class>  (834) 
Prenol lipids

>  <chemical_sub_class>  (834) 
Terpene lactones

>  <chemical_super_class>  (834) 
Lipids and lipid-like molecules

>  <direct_parent_classification>  (834) 
Terpene lactones

>  <np_classifier_pathway>  (834) 
Terpenoids

>  <np_classifier_superclass>  (834) 
Sesquiterpenoids

>  <np_classifier_class>  (834) 
Germacrane sesquiterpenoids

>  <np_classifier_is_glycoside>  (834) 
False

>  <organisms>  (834) 
Enhydra fluctuans|Polymnia sonchifolia|Smallanthus sonchifolius|Smilax glabra

>  <collections>  (834) 
CMAUP (cCollective molecular activities of useful plants)|Latin America dataset|NPASS|NuBBEDB|WikiData Natural Products|ZINC NP

>  <dois>  (834) 
10.1016/j.ejmech.2013.02.018|10.1039/C3CC46213G|10.1590/S1517-83822006000200018

>  <synonyms>  (834) 
BDBM50377905|CHEMBL206765|Enhydrin|enhydrine

>  <cas>  (834) 
nan

$$$$

     RDKit          2D

 31 35  0  0  0  0  0  0  0  0999 V2000
   -5.4033   -2.8103    0.0000 C   0  0  0  0  0  0  0  0  0  0  0  0
   -5.5437   -1.3169    0.0000 C   0  0  0  0  0  0  0  0  0  0  0  0
   -6.9900   -1.7145    0.0000 C   0  0  0  0  0  0  0  0  0  0  0  0
   -6.1864    0.0384    0.0000 C   0  0  0  0  0  0  0  0  0  0  0  0
   -5.3340    1.2727    0.0000 C   0  0  0  0  0  0  0  0  0  0  0  0
   -3.8389    1.1516    0.0000 C   0  0  0  0  0  0  0  0  0  0  0  0
   -4.4817    2.5070    0.0000 C   0  0  0  0  0  0  0  0  0  0  0  0
   -2.9866    2.3859    0.0000 C   0  0  0  0  0  0  0  0  0  0  0  0
   -1.4914    2.2649    0.0000 C   0  0  0  0  0  0  0  0  0  0  0  0
   -0.8487    0.9095    0.0000 C   0  0  0  0  0  0  0  0  0  0  0  0
   -0.2060   -0.4458    0.0000 C   0  0  0  0  0  0  0  0  0  0  0  0
   -1.7011   -0.3247    0.0000 C   0  0  0  0  0  0  0  0  0  0  0  0
   -1.0584   -1.6801    0.0000 C   0  0  0  0  0  0  0  0  0  0  0  0
    0.4367   -1.8011    0.0000 C   0  0  0  0  0  0  0  0  0  0  0  0
    1.2891   -0.5668    0.0000 C   0  0  0  0  0  0  0  0  0  0  0  0
    2.7842   -0.6879    0.0000 C   0  0  0  0  0  0  0  0  0  0  0  0
    1.9318   -1.9222    0.0000 C   0  0  0  0  0  0  0  0  0  0  0  0
    3.4269   -2.0432    0.0000 C   0  0  0  0  0  0  0  0  0  0  0  0
    4.9220   -2.1642    0.0000 C   0  0  0  0  0  0  0  0  0  0  0  0
    5.7744   -0.9300    0.0000 C   0  0  0  0  0  0  0  0  0  0  0  0
    7.2695   -1.0510    0.0000 O   0  0  0  0  0  0  0  0  0  0  0  0
    5.1317    0.4254    0.0000 C   0  0  0  0  0  0  0  0  0  0  0  0
    4.9913    1.9188    0.0000 C   0  0  0  0  0  0  0  0  0  0  0  0
    6.5780    0.8230    0.0000 C   0  0  0  0  0  0  0  0  0  0  0  0
    3.6366    0.5464    0.0000 C   0  0  0  0  0  0  0  0  0  0  0  0
    2.9939    1.9017    0.0000 C   0  0  0  0  0  0  0  0  0  0  0  0
    1.4988    2.0228    0.0000 C   0  0  0  0  0  0  0  0  0  0  0  0
    0.6464    0.7885    0.0000 C   0  0  0  0  0  0  0  0  0  0  0  0
    0.0037    2.1438    0.0000 C   0  0  0  0  0  0  0  0  0  0  0  0
   -3.1962   -0.2037    0.0000 C   0  0  0  0  0  0  0  0  0  0  0  0
   -4.0486   -1.4380    0.0000 C   0  0  0  0  0  0  0  0  0  0  0  0
  1  2  1  0
  2  3  1  0
  2  4  1  0
  4  5  1  0
  5  6  1  0
  6  7  1  1
  6  8  1  0
  8  9  1  0
  9 10  1  0
 10 11  1  6
 10 12  1  0
 12 13  2  0
 13 14  1  0
 15 14  1  1
 15 16  1  0
 16 17  1  1
 16 18  1  0
 18 19  1  0
 19 20  1  0
 20 21  1  1
 20 22  1  0
 22 23  1  0
 22 24  1  0
 22 25  1  0
 25 26  1  1
 26 27  1  0
 27 28  1  0
 28 29  1  1
 12 30  1  0
 30 31  1  6
 31  2  1  0
 30  6  1  0
 28 10  1  0
 28 15  1  0
 25 16  1  0
M  END
>  <identifier>  (835) 
CNP0362107.1

>  <canonical_smiles>  (835) 
CC1(C)CC[C@]2(C)CC[C@]3(C)C(=CC[C@@H]4[C@@]5(C)CC[C@H](O)C(C)(C)[C@@H]5CC[C@]43C)[C@@H]2C1

>  <standard_inchi>  (835) 
InChI=1S/C30H50O/c1-25(2)15-16-27(5)17-18-29(7)20(21(27)19-25)9-10-23-28(6)13-12-24(31)26(3,4)22(28)11-14-30(23,29)8/h9,21-24,31H,10-19H2,1-8H3/t21-,22-,23+,24-,27+,28-,29+,30+/m0/s1

>  <standard_inchi_key>  (835) 
JFSHUTJDVKUMTJ-QHPUVITPSA-N

>  <name>  (835) 
beta-Amyrin

>  <iupac_name>  (835) 
(3~{S},4~{a}~{R},6~{a}~{R},6~{b}~{S},8~{a}~{R},12~{a}~{R},14~{a}~{R},14~{b}~{R})-4,4,6~{a},6~{b},8~{a},11,11,14~{b}-octamethyl-1,2,3,4~{a},5,6,7,8,9,10,12,12~{a},14,14~{a}-tetradecahydropicen-3-ol

>  <annotation_level>  (835) 
5

>  <total_atom_count>  (835) 
81

>  <heavy_atom_count>  (835) 
31

>  <molecular_weight>  (835) 
426.73

>  <exact_molecular_weight>  (835) 
426.38617

>  <molecular_formula>  (835) 
C30H50O

>  <alogp>  (835) 
8.17

>  <topological_polar_surface_area>  (835) 
20.23

>  <rotatable_bond_count>  (835) 
0

>  <hydrogen_bond_acceptors>  (835) 
1

>  <hydrogen_bond_donors>  (835) 
1

>  <hydrogen_bond_acceptors_lipinski>  (835) 
1

>  <hydrogen_bond_donors_lipinski>  (835) 
1

>  <lipinski_rule_of_five_violations>  (835) 
1

>  <aromatic_rings_count>  (835) 
0

>  <qed_drug_likeliness>  (835) 
0.39

>  <formal_charge>  (835) 
0

>  <fractioncsp3>  (835) 
0.93

>  <number_of_minimal_rings>  (835) 
5

>  <van_der_walls_volume>  (835) 
445.05

>  <contains_sugar>  (835) 
False

>  <contains_ring_sugars>  (835) 
False

>  <contains_linear_sugars>  (835) 
False

>  <murcko_framework>  (835) 
C1=C2C3CCCCC3CCC2C4CCC5CCCCC5C4C1

>  <np_likeness>  (835) 
3.29

>  <chemical_class>  (835) 
Prenol lipids

>  <chemical_sub_class>  (835) 
Triterpenoids

>  <chemical_super_class>  (835) 
Lipids and lipid-like molecules

>  <direct_parent_classification>  (835) 
Oleanane triterpenoids

>  <np_classifier_pathway>  (835) 
Terpenoids

>  <np_classifier_superclass>  (835) 
Triterpenoids

>  <np_classifier_class>  (835) 
Oleanane triterpenoids

>  <np_classifier_is_glycoside>  (835) 
False

>  <organisms>  (835) 
Aaptos aaptos|Abies balsamea|Abies sp.|Abrus precatorius|Acacia cambagei|Acacia pruinosa|Acacia pulchella|Acacia sparsiflora|Acaena splendens|Acanthothamnus aphyllus|Acanthus ilicifolius|Acer oblongum|Acer triflorum|Achillea biebersteinii|Achillea millefolium|Achyranthes bidentata|Aconitum lycoctonum|Aconitum nevadense|Aconitum septentrionale|Acrisione denticulata|Acronychia laurifolia|Acronychia pedunculata|Acronychia sp.|Adenopeltis colliguaya|Adiantum caudatum|Aegilops geniculata|Aeonium cuneatum|Aerva sp.|Aesculus hippocastanum|Aesculus parviflora|Aesculus sp.|Afzelia sp.|Agave deserti|Agave shawii|Ageratina glabrata|Ageratina glechonophylla|Ageratina riparia|Aglaia lawii|Aglaia pyramidata|Ailanthus sp.|Ailanthus triphysa|Ajania fruticulosa|Ajuga chamaepitys|Ajuga reptans|Akebia trifoliata|Alaria crispa|Aleurites moluccanus|Aleuroglyphus ovatus|Alibertia edulis|Allagopappus viscosissimus|Allium neapolitanum|Allium victorialis|Alnus japonica|Alnus rugosa|Alseodaphne corneri|Alstonia boonei|Alstonia congensis|Alstonia scholaris|Alstonia sp.|Ambrosia canescens|Ambrosia grayi|American ginseng|Ampelopsis brevipedunculata|Anadenanthera colubrina|Anagallis arvensis|Anagallis sp.|Anaphalis margaritacea|Anatheca montagnei|Ancathia igniaria|Anchietea pyrifolia|Anchietea salutaris|Ancistrocladus ealaensis|Anemone clematis|Ania latifolia|Annona impressivenia|Anthopleura elegantissima|Anthopleura xanthogrammica|Apis mellifera|Arabidopsis thaliana|Aralia hispida|Aralia nudicaulis|Arbutus unedo|Archidendron chevalieri|Archidendron ellipticum|Arctium lappa|Arctium sp.|Arctostaphylos columbiana|Arctostaphylos patula|Ardisia Solanacea|Arenaria juncea|Argania sp.|Arisaema flavum|Aristolochia tagala|Arnebia hispidissima|Arnica amplexicaulis|Arnica foliosa|Arnica lanceolata|Arnica mollis|Arnica viscosa|Arnicratea grahamii|Artemisia annua|Artemisia argyi|Artemisia douglasiana|Artemisia dracunculus var. glauca|Artemisia feddei|Artemisia giraldii|Artemisia igniaria|Artemisia lancea|Artemisia leucotricha|Artemisia phaeolepis|Arum italicum|Arundo sp.|Asclepias speciosa|Asclepias subulata|Asclepias syriaca|Asclepias syriaca L.|Asparagus thunbergianus|Aspergillus arenarius|Aspergillus nidulans|Aspergillus quadrilineatus|Aspergillus unguis|Asphodelus albus|Asphodelus sp.|Aspilia mossambicensis|Aspilia paludosa|Aster acuminatus|Aster alpinus|Aster tongolensis|Asterias forbesi|Astragalus pamirensis|Astrantia major|Athanasia dregeana|Atractylodes lancea|Atriplex stocksii|Atropanthe sinensis|Aucoumea klaineana|Aulacocephalus temmincki|Austroderia toetoe|Austroeupatorium chaparense|Austroeupatorium inulifolium|Avena sativa|Avicennia officinalis|Baccharis dracunculifolia|Baccharis linearis|Baccharis neaei|Baccharis rhomboidalis|Baccharis solieri|Baccharis tola|Baccharoides anthelmintica|Bacillus thuringiensis|Baeomyces roseus|Balanophora abbreviata|Balanophora fungosa|Balanophora harlandii|Balanophora indica|Balanophora japonica|Beaumontia brevituba|Berberis crataegina|Berberis orthobotrys|Bersama yangambiensis|Beta vulgaris|Betula papyrifera|Bischofia javanica|Bitis arietans|Bituminaria bituminosa|Blumea eriantha|Blumea obliqua|Bombus hortorum|Boraginaceae|Bosistoa selwynii|Bosistoa transversa|Boswellia serrata|Bothriocline amplifolia|Brachylaena ramiflora|Brachypterum eriocarpum|Briareum violacea|Brosimum gaudichaudii|Bruguiera gymnorhiza|Bruguiera gymnorrhiza|Bryonia dioica|Bryum rutilans|Buddleja asiatica|Buddleja globosa|Buddleja madagascariensis|Bulbinella floribunda|Burkholderia pyrrocinia|Bursera simaruba|Bursera sp.|Butyrospermum sp.|Buxus wallichiana|Byrsonima microphylla|Byssothecium obiones|Cacalia delphiniifolia|Caesalpinia bonducella|Cajanus cajan|Calceolaria thyrsiflora|Calea clausseniana|Calendula officinalis|Calendula sp.|Callicarpa Arborea|Callicarpa pedunculata|Calodendrum capense|Calophyllum apetalum|Calophyllum sp.|Calophyllum thwaitesii|Calotropis gigantea|Calotropis procera|Calvatia craniformis|Calycotome villosa|Calyx podatypa|Camelina sativa|Camelina sp.|Camellia crapnelliana|Camellia japonica|Camellia oleifera|Camellia reticulata|Camellia sasanqua|Camellia sinensis|Campanula patula|Campsis grandiflora|Canarina canariensis|Canarium album|Canarium sp.|Canarium strictum|Canarium zeylanicum|Canavalia ensiformis|Canna x generalis|Capsicum chinense|Cardiospermum sp.|Cardopatium corymbosum|Carmona retusa|Carpinus cordata|Carthamus tinctorius|Caryocar villosum|Cassia fistula|Cassia javanica|Cassia javanica subsp. nodosa|Castanopsis sclerophylla|Casuarina Equisetifolia|Catalpa longissima|Catunaregam spinosa|Cecropia pachystachya|Cecropia sp.|Cedrelopsis grevei|Celastrus hypoleucus|Celastrus monospermus|Celastrus sp.|Centaurea africana|Centaurea arenaria|Centaurea aspera|Centaurea hololeuca|Centaurea nicolai|Centaurea nigra|Centaurea seridis|Centaurium sp.|Ceratocystis clavigera|Cereus weberi|Ceriops decandra|Cetraria pinastri|Chaetanthera chilensis|Chalciporus piperatus|Chamaemelum sp.|Chamerion dodonaei|Chamomilla suaveolens|Chara globularis|Chenopodium quinoa|Chimaphila sp.|Chisocheton siamensis|Chiton tuberculatus|Chondropetalum paniculatum|Chromodoris willani|Chromolaena arnottiana|Chrozophora obliqua|Chrysanthemum|Chrysanthemum morifolium|Chrysocoma tenuifolia|Chrysolaena cognata|Chrysolaena platensis|Chrysolaena propinqua|Chuquiraga ulicina|Cicer arietinum|Cipadessa fruticosa|Cirsium japonicum|Cirsium nipponicum|Cirsium palustre|Cirsium sp.|Citrus × paradisi|Cladonia amaurocraea|Cladonia impexa|Cladosporium cucumerinum|Clerodendrum splendens|Clintonia borealis|Clusia ellipticifolia|Clusia havetioides|Cneorum pulverulentum|Cnidoscolus multilobus|Cnidoscolus urens|Coccinia sp.|Codium dwarkense|Codonopsis lanceolata|Codonopsis pilosula|Codonopsis ussuriensis|Coffea bengalensis|Coleus coerulescens|Coleus comosus|Coleus garckeanus|Coleus parvifolius|Colladonia triquetra|Colletotrichum dematium|Comamonas testosteroni|Commiphora confusa|Commiphora dalzielii|Commiphora kua|Comptonia peregrina|Conium maculatum|Conocephalum japonicum|Consolida ajacis|Convallaria keiskei|Convolvulus scammonia|Conyza bonariensis|Conyza canadensis|Conyza sp.|Coptis trifolia|Coptis trifolia subsp. groenlandica|Cordiera macrophylla|Cordylanthus kingii|Cornus canadensis|Corticium caeruleum|Corydalis claviculata|Cosmos bipinnatus|Costus tonkinensis|Couroupita subsessilis|Craibiodendron yunnanense|Crataegus monogyna|Crataegus pontica|Cratoxylum maingayi|Crepis phoenix|Crinipellis scabella|Croton caudatus|Croton crassifolius|Croton cumingii|Croton hieronymi|Croton hovarum|Cryptolepis nigrescens|Cucurbita moschata|Cucurbita sp.|Cupania latifolia|Cuphea appendiculata|Cuphea carthagenensis|Cuphea epilobiifolia|Cuphea infundibulum|Cuscuta reflexa|Cussonia spicata|Cyanthillium cinereum|Cyathus helenae|Cycas armstrongii|Cycas beddomei|Cycas revoluta|Cyclocarya paliurus|Cyclolepis genistoides|Cyclotrichium niveum|Cylicodaphne sebifera|Cymbastela coralliophila|Cynanchum formosanum|Cynara cardunculus|Cynara humilis|Cynodon sp.|Cyperus sp.|Cyphostemma juttae|Cypripedium acaule|Cyrtocarpa procera|Cystophora scalaris|Dactylosporangium aurantiacum|Dalbergia ecastaphyllum|Dalbergia sissoo|Dalbergia stipulacea|Daphne gnidioides|Daphne oleoides|Dasystenella acanthina|Daucus carota|Dendranthema|Dendranthema morifolium|Dendranthema sp.|Dendropanax arboreus|Dendropanax trifidus|Derris brevipes|Derris canarensis|Derris cuneifolia|Derris laxiflora|Derris trifoliata|Dianthus armeria|Dichrostachys cinerea|Dimelaena oreina|Dinemasporium strigosum|Dioclea grandiflora|Diosma recurva|Diospyros Lotus|Diospyros Maritima|Diospyros lotus|Diospyros maritima|Diospyros melanoxylon|Diospyros morrisiana|Diospyros virginiana|Diplazium esculentum|Diploknema butyracea|Diploschistes cretaceus|Dirca occidentalis|Dischidia formosana|Disynaphia halimifolia|Doellingeria umbellata var. umbellata|Dolichandra unguis-cati|Dolichospermum viguieri|Doodia picta|Dorstenia bahiensis|Dorstenia bornimiana|Dorstenia brasiliensis|Dorstenia bryoniaefolia|Dorstenia carautae|Dorstenia cayapia|Dorstenia heringeri|Dorstenia lindeniana|Drynaria quercifolia|Dryopteris crenata|Drypetes littoralis|Dudleya brittonii|Dudleya farinosa|Duhaldea cappa|Durio zibethinus|Dysidea villosa|Dysosma pleiantha|Dytiscus marginalis|Echinocystis lobata|Echinops echinatus|Echinops niveus|Echinops pappii|Echiochilon pauciflorum|Eclipta sp.|Edgeworthia gardneri|Ehretia microphylla|Ehretia monopyrena|Ekebergia pterophylla|Elaeagnus angustifolia|Elaeagnus commutata|Elaeis sp.|Elaeocarpus fuscoides|Eleutherococcus sessiliflorus|Endosamara racemosa|Enkianthus nudipes|Ephedra aphylla|Epigaea repens|Epilobium dodonaei|Eragrostis curvula|Eragrostis viscosa|Eremanthus veadeiroensis|Eremosis tomentosa|Eria tomentosa|Erigeron bonariensis|Erigeron canadensis|Erysimum cheiranthoides|Erythrina caffra|Erythrina senegalensis|Erythrina variegate|Erythroxylum leal-costae|Erythroxylum passerinum|Erythroxylum sp.|Eschenbachia blinii|Eucalyptus exserta|Eucalyptus flocktoniae|Eucalyptus froggattii|Eucalyptus globulus|Eucalyptus regnans|Eunicella cavolinii|Euonymus alatus|Euonymus laxiflorus|Eupatorium cannabinum|Eupatorium perfoliatum|Euphorbia Hirta|Euphorbia aphylla|Euphorbia bivonae|Euphorbia characias|Euphorbia cyparissias|Euphorbia decipiens|Euphorbia ebracteolata|Euphorbia esula|Euphorbia esula l. var. cyparissoides boiss.|Euphorbia ferganensis|Euphorbia formosana|Euphorbia hirta|Euphorbia iberica|Euphorbia kansui|Euphorbia larica|Euphorbia maculata|Euphorbia nicaeensis|Euphorbia paralias|Euphorbia peplus|Euphorbia piscatoria|Euphorbia polycaulis|Euphorbia sororia|Euphorbia sp.|Euphorbia tithymaloides|Euphorbia trigona|Euphorbiaceae|Euphrasia nemorosa|Euploca scabra|Euthamia graminifolia|Eutreptia viridis|Eutrochium purpureum|Evasterias troschelii|Evodiopanax innovans|Excoecaria agallocha|Excoecaria sp.|Eysenhardtia polystachya|Falcaria vulgaris|Felicia amelloides|Fernandoa adenophylla|Festuca argentina|Ficus carica|Ficus cordata|Ficus glumosa|Ficus padifolia|Ficus pertusa|Ficus pumila|Ficus sarmentosa var. thunbergii|Ficus septica|Ficus sp.|Firmiana simplex|Fleischmannia pratensis|Flindersia brayleyana|Forsteronia refracta|Forsythia suspensa|Fraxinus americana|Fraxinus sp.|Fridericia chica|Fusarium dimerum|Gambeya africana|Ganoderma applanatum|Ganoderma lucidum|Garcinia lateriflora|Garcinia multiflora|Garcinia pyrifera|Garcinia thwaitesii|Garcinia vilersiana|Gaultheria procumbens|Gentiana davidii var. formosana|Gentiana lutea|Gerbera jamesonii|Gerbera piloselloides|Girgensohnia diptera|Gladiolus italicus|Glochidion philippicum|Gloiopeltis furcata|Glycyrrhiza sp.|Gochnatia hypoleuca|Goniophlebium formosanum|Goniophlebium niponicum|Gonocaryum calleryanum|Gossypium sp.|Great yellow gentian|Grewia mollis|Grindelia perennis|Guilandina bonduc|Gustavia hexapetala|Gustavia longifolia|Gymnanthemum myrianthum|Gymnema sp.|Gymnocarpium robertianum|Gymnosporia diversifolia|Gymnosporia emarginata|Gymnosporia heterophylla|Gymnosporia montana|Gymnosporia nemorosa|Gymnosporia senegalensis|Gynura japonica|Haemanthus toxicarius|Halidrys siliquosa|Halothamnus somalensis|Haloxylon salicornicum|Haminoea orbignyana|Hannoa undulata|Hedysarum multijugum|Helenium quadridentatum|Helianthus debilis|Helianthus radula|Helichrysum forskahlii|Heliotropium ellipticum|Heliotropium floridum|Heliotropium indicum|Heliotropium marifolium|Heracleum sphondylium|Hesperocyparis lusitanica|Heterotheca grandiflora|Heterotheca inuloides|Hieracium canadense|Hieracium gymnocephalum|Hieracium kalmii|Himalaiella deltoidea|Himatanthus articulatus|Hippocratea volubilis|Hippophae rhamnoides|Hippophae sp.|Hopea jucunda|Hortonia floribunda|Hoslundia opposita|Hosta sieboldiana|Hovenia acerba|Hoya australis|Hoya naumannii|Hultholia mimosoides|Hydnocarpus pentandrus|Hypericum perforatum|Hypericum sarothra|Hyptis suaveolens|Hyrtios eubamma|Ilex aquifolium|Ilex aquifolium L.|Ilex brevicuspis|Ilex iatifolla|Ilex latifolia|Ilex sp.|Ilex verticillata|Ilex verticillata (L.) A. Gray|Indian Tobacco|Indigofera carlesi|Inga paterno|Intsia bijuga|Inula Cappa|Inula salsoloides|Iodes cirrhosa|Iris sp.|Iris versicolor|Iris x germanica|Iryanthera juruensis|Isodon eriocalyx|Isoplexis chalcantha|Ixeridium gracile|Ixeris chinensis|Ixeris japonica|Ixora chinensis|Ixora coccinea|Jacobaea adonidifolia|Jacobaea cannabifolia|Jacobaea vulgaris|Jasminum azoricum|Jasminum fluminense|Jatropha gossypiifolia|Juglans nigra|Jungermannia obovata|Jungermannia subulata|Jungia polita|Juniperus communis|Juniperus horizontalis|Justicia simplex|Kaempferia marginata|Kalanchoe miniata|Kalanchoe pinnata|Kalmia angustifolia|Karwinskia sp.|Kaunia saltensis|Khaya grandifoliola|Khaya senegalensis|Kopsia arborea|Kopsia sp.|Kopsia teoi|Kothala himbutu|Kummerowia striata|Lactarius atroviridis|Lactarius sanguifluus|Lactarius subpiperatus|Lactuca indica|Lactuca sp.|Laennecia filaginoides|Laggera crispata|Laggera pterodonta|Lantana camara|Larix laricina|Lathyrus sativus|Lavandula canariensis|Lechevalieria aerocolonigenes|Lecidea speirodes|Lens culinaris|Leontodon filii|Lepraria xanthina|Leptadenia hastata|Lespedeza davidii|Lessingianthus rubricaulis|Leucosceptrum canum|Libocedrus yateensis|Licaria armeniaca|Ligularia amplexicaulis|Ligustrum obtusifolium|Lippia sp.|Lipschitziella deltoidea|Liriodendron tulipifera|Lithocarpus polystachyus|Lithodora fruticosa|Lithospermum canescens|Litsea sp.|Littorina littorea|Lobelia chinensis|Lobelia davidii|Lonchocarpus atropurpureus|Lotus albus|Luxemburgia nobilis|Lychnophora candelabrum|Lychnophora markgravii|Lycium chinense|Lydenburgia cassinoides|Lyophyllum shimeji|Macaranga tanarius|Maclura pomifera|Maclura tinctoria|Macrohyporia cocos|Macropsychanthus grandiflorus|Maianthemum canadense|Mallotus nudiflorus|Mallotus sp.|Malus sylvestris|Mammillaria coronata|Mammillaria longimamma|Mammillaria magnimamma|Mandragora officinarum|Mangifera indica|Manihot esculenta|Manilkara kauki|Maquira coriacea|Marsdenia tinctoria|Marsypianthes chamaedrys|Mascarenhasia arborescens|Maschalostachys markgrafii|Matricaria discoidea|Matricaria matricarioides|Maytenus boaria|Maytenus canariensis|Maytenus chubutensis|Maytenus hookeri|Maytenus magellanica|Maytenus salicifolia|Maytenus scutioides|Maytenus sp.|Maytenus spinosa|Maytenus umbellata|Maytenus woodsonii|Meconopsis horridula|Meconopsis napaulensis|Melaleuca decora|Melia azedarach|Menispermum canadense|Mentha spicata subsp. condensata|Merremia umbellata|Mesua ferrea|Microglossa pyrifolia|Microglossa pyrrhopappa|Micromelum minutum|Micromonas pusilla|Microtropis fokienensis|Mikania campanulata|Mikania haenkeana|Mikania minima|Mikania pohlii|Millettia conraui|Millettia thonningii|Millettia vatkei|Mimusops elengi|Mimusops sp.|Mitchella repens|Momordica charantia|Monanchora pulchra|Monanthotaxis congoensis|Monosis parishii|Montanoa hibiscifolia|Montanoa karwinskii|Montanoa tomentosa|Monteverdia aquifolium|Monteverdia horrida|Monteverdia ilioppjfeowneviufheiuwfew fgr|Monteverdia spinosa|Monteverdia truncata|Moraceae|Morinda coreia|Morus Australis|Morus alba|Morus australis|Morus indica|Munronia delavayi|Mutisia acuminata|Mutisia subulata|Mycena galericulata|Mycena haematopus|Myoporum platycarpum|Myrcia multiflora|Myrica cerifera|Myrica rubra|Myrtus tomentosa|Nabalus trifoliolatus|Narcissus concolor|Nauclea officinalis|Neobeguea mahafalensis|Neobeguea mahafaliensis|Neolamarckia cadamba|Neolitsea sericea|Neonectria candida|Nepeta clarkei|Nepeta hindostana|Nerium oleander|Nicotiana tabacum|Nierembergia hippomanica|Nierembergia linariifolia|Nigella sativa|Niphogeton ternata|Notechis scutatus|Nyctanthes sp.|Nymphaea odorata|Ocimum gratissimum|Oclemena acuminata|Ocotea suaveolens|Oenothera biennis|Olea europaea|Olea sp.|Oncoba echinata|Ongokea gore|Operculina turpethum|Ophiolepis superba|Ophiura sarsi|Origanum compactum|Origanum sp.|Origanum vulgare|Ormosia elata|Ormosia panamensis|Ornithopus sativus|Oryza coarctata|Osmerus mordax|Ourouparia formosana|Oxera splendida|Pachybasium candidum|Pachylaena atriplicifolia|Paeonia emodi|Palafoxia rosea|Palaquium canaliculatum|Panax ginseng|Papaver commutatum|Papaver rhoeas|Papilio phorcas|Parabenzoin trilobum|Paracoccus denitrificans|Parahancornia amara|Parahancornia fasciculata|Paramignya griffithii|Parasenecio auriculata|Parasenecio auriculatus|Parkinsonia aculeata|Parmelia zollingeri|Passiflora morifolia|Paullinia pinnata|Pedicularis condensata|Pedicularis pectinata|Pedilanthus Tithymaloides|Penianthus zenkeri|Penicillium crustaceum|Peperomia heyneana|Perezia coerulescens|Perezia lactucoides|Perezia linearis|Perezia pinnatifida|Perezia recurvata|Pergularia daemia|Periploca calophylla|Periploca laevigata|Periploca sepium|Perityle vaseyi|Perrottetia arisanensis|Pestalotiopsis virgatula|Petasites kablikianus|Phegopteris subaurita|Phellodendron sachalinense|Phlojodicarpus sibiricus|Phlomis regelii|Phlomoides medicinalis|Phoebe formosana|Phora scalaris|Phragmites sp.|Phyllanthus flexuosus|Phyllanthus sp.|Phyllanthus urinaria|Phyllanthus velutinus|Phyllospongia dendyi|Physalis sordida|Phytolacca americana|Phytolacca sp.|Picea mariana|Picris hieracioides|Picris spinifera|Pieris sp.|Pilocarpus trachylophus|Pinna nobilis|Pinus monophylla|Piper amalago|Piper elongatum|Piper umbellatum|Piptadenia peregrina|Piptocarpha opaca|Pistacia lentiscus|Pistacia mexicana|Pistacia sp.|Pisum sativum|Pisum sp.|Pithecellobium racemosum|Plakortis simplex|Plantago asiatica|Plantago major|Plectocephalus chilensis|Plectranthus ornatus|Pleurotus ostreatus|Plinia pennata|Pluchea lanceolata|Pluchea sagittalis|Plumbago pulchella|Plumeria alba|Plumeria obtusa|Plumeria sp.|Poa sphondylodes|Podocarpus montanus|Polycephalomyces nipponicus|Polygala ruwenzoriensis|Polyporus cinnabarinus|Polyscias bracteata|Polytolypa hystricis|Pontederia cordata|Populus sp.|Populus tremuloides|Porella swartziana|Portulaca oleracea|Pouteria torta|Prenanthes trifoliolata|Primula grandiflora|Protea mellifera|Protium crenatum|Protium heptaphyllum|Protium kleinii|Prumnopitys ferruginea|Prunella vulgaris|Prunus pensylvanica|Pseudobrickellia brasiliensis|Pseudocodon convolvulaceus|Pseudonocardia autotrophica|Pseudophryne coriacea|Psilotum nudum|Psorospermum androsaemifolium|Pteris inaequalis|Pterocarpus sp.|Pterocaulon polystachyum|Ptilostemon gnaphaloides|Pulicaria wightiana|Putranjiva sp.|Quercus mongolica|Quercus sp.|Quercus suber|Ramalina obtusata|Ranunculus laetus|Raputia simulans|Renealmia exaltata|Rhaponticoides africana|Rheum webbianum|Rhinacanthus nasutus|Rhizobium etli|Rhizoctonia repens|Rhizophora conjugata|Rhizophora mucronata|Rhododendron barbatum|Rhododendron ferrugineum|Rhododendron groenlandicum|Rhododendron macrosepalum|Rhododendron sp.|Rhodoglossum japonicum|Rhodomyrtus tomentosa|Rhoiptelea chiliantha|Rhus sp.|Rhus sylvestris|Rhus typhina|Ricinus sp.|Roccellaria mollis|Rohdea wattii|Rosa hybrid cultivar|Rosa sp.|Rosmarinus officinalis|Rosmarinus sp.|Rubrivivax gelatinosus|Rubus cochinchinensis|Rubus idaeus|Rubus plicatus|Rubus sp.|Rudbeckia hirta var. pulcherrima|Rudbeckia sp.|Rumex conglomeratus|Ruscus hypophyllum|Ruta pinnata|Saccharum sp.|Salacia chinensis|Salmonella enterica subsp. enterica serovar anatum|Salvia cardiophylla|Salvia coulteri|Salvia dorrii|Salvia fruticosa|Salvia mellifera|Salvia miltiorrhiza|Salvia officinalis|Salvia palaefolia|Salvia sp.|Salvia tomentosa|Salvia triloba|Salvia verticillata|Sambucus chinensis|Sambucus nigra|Sambucus sp.|Sanguinaria canadensis|Sanicula epipactis|Sapium haematospermum|Sapium rigidifolium|Sarcophyton buitendijki|Sarcostemma sp.|Sarcotragus spinosulus|Sarracenia purpurea|Satureja cuneifolia|Satureja sp.|Sauropus quadrangularis|Saussurea pricei|Scaevola spinescens|Schisandra arisanensis|Schisandra micrantha|Schrebera swietenoides|Sclerotinia fructicola|Scolopia chinensis|Scolytus multistriatus|Scopolia atropoides|Scorzoneroides autumnalis|Searsia thyrsiflora|Sebastiania schottiana|Sedum morganianum|Selaginella pallescens|Senecio desfontainei|Senecio flavus|Senecio gilliesi|Senecio heliopsis|Senecio polyodon|Senecio portalesianus|Senecio tauricola|Senecio tauricolus|Senecio viscosus|Senna didymobotrya|Senna petersiana|Senna siamea|Senna sophera|Serjania salzmanniana|Sesamum alatum|Sesamum angustifolium|Sesamum radiatum|Sesamum sp.|Shorea resina-nigra|Shorea robusta|Shorea sp.|Sida cordifolia|Sidera lenis|Sideritis argosphacelus|Sideritis canariensis|Sideritis candicans|Sideritis dendro-chahorra|Sideritis discolor|Sideritis kuegleriana|Sideritis lotsyi|Sideritis macrostachyos|Silene inflata|Silybum marianum|Sinapis arvensis|Sinofranchetia chinensis|Siphocampylus verticillatus|Siphoneugena densiflora|Siraitia grosvenorii|Smallanthus glabratus|Smilax glabra|Smilax macrophylla|Smooth hawksbeard|Solanum dulcamara|Solanum sisymbriifolium|Solanum spirale|Solenopsis invicta|Solenostemma argel|Solenostemma oleifolium|Solidago nemoralis|Solidago petiolaris|Solidago puberula|Solidago rugosa|Solidago virga-aurea|Solidago virgaurea|Sonchus Arvensis|Sonchus arvensis|Sonchus asper|Sonchus macrocarpus|Sophora angustifolia|Sophora japonica|Sophora leachiana|Sorbus americana|Sorghum bicolor|Sorghum sp.|Spermacoce articularis|Sphagneticola trilobata|Spilanthes ocymifolia|Spiraea formosa|Spodoptera littoralis|Stauntonia hexaphylla|Sterculia sp.|Stevia alpina|Stevia jujuyensis|Stevia polycephala|Stevia purpurea|Stevia seleriana|Stizolophus coronopifolius|Streptocaulon juventas|Streptomyces aurantiacus|Streptomyces aureus|Streptomyces fradiae|Streptomyces ipomoeae|Streptomyces kanamyceticus|Streptomyces mobaraensis|Streptomyces parvisporogenes|Streptomyces purpurogeneiscleroticus|Streptomyces roseoverticillatus|Streptomyces sclerotialus|Streptomyces xanthocidicus|Struthiopteris amabilis|Strychnos spinosa|Suaeda maritima|Suillus bovinus|Swamp dewberry|Swartzia madagascariensis|Swertia chirata|Swertia paniculata|Symphoricarpos albus|Symphyopappus compressus|Symphyotrichum novi-belgii var. novi-belgii|Symphyotrichum subulatum var. squamatum|Symplocarpus foetidus|Symplocos Racemosa|Symplocos racemosa|Synedrellopsis grisebachii|Synurus excelsus|Syzygium jambos|Syzygium kurzii|Syzygium samarangense|Tabernaemontana catharinensis|Tabernaemontana divaricata|Tabernaemontana glandulosa|Tabernaemontana laeta|Tabernaemontana markgrafiana|Tabernaemontana ventricosa|Tadorna ferruginea|Talipariti tiliaceum|Tamarix gallica|Tanacetum argenteum|Tanacetum sp.|Tanacetum vulgare|Taonia australasica|Tapeinosperma pseudojambosa|Taraxacum formosanum|Taraxacum hallaisanense|Taraxacum japonicum|Taraxacum mongolicum|Taraxacum officinale|Taraxacum platycarpum|Taraxacum wallichii|Taverniera aegyptiaca|Taxillus chinensis|Taxus drupacea|Teleogryllus emma|Tephrosia bidwilli|Tephrosia strigosa|Terminalia alata|Terminalia argentea|Terminalia calamansanay|Terminalia superba|Ternstroemia Gymnanthera|Tetradium glabrifolium|Teucrium depressum|Teucrium heterophyllum|Teucrium royleanum|Thalysias juniperina|Thesium humile|Thevetia Peruviana|Thevetia peruviana|Thielavia terricola|Thymbra spicata|Thymus piperella|Tilia sp.|Tilia tomentosa|Tilia vulgaris|Tinospora hainanensis|Tipuana tipu|Todaroa aurea|Toddalia asiatica|Toona ciliata|Tornabea scutellifera|Tovomita brasiliensis|Tovomita fructipendula|Toxicodendron sylvestre|Trachelospermum asiaticum|Tragopogon orientalis|Tragopogon pratensis|Trattinnickia aspera|Trichia floriformis|Trichilia havanensis|Trichilia hirta|Trichilia rubescens|Trichodesma africanum|Tricholoma batschii|Trichormus hallensis|Tridax procumbens|Trifolium repens|Tripterygium wilfordii|Trixis grisebachii|Trixis praestans|Tsuga canadensis|Turraeanthus mannii|Tussilago farfara|Tussilago sp.|Typha domingensis|Typha latifolia|Ulex sp.|Ungernia minor|Urolepis hecatantha|Ursinia eckloniana|Uvaria grandiflora|Vaccinium myrtillus|Vaccinium sp.|Vangueria tomentosa|Ventilago calyculata|Ventilago denticulata|Verbascum thapsus|Vernonanthura brasiliana|Vernonanthura chamaedrys|Vernonanthura montevidensis|Vernonanthura nudiflora|Vernonanthura squamulosa|Vernonia echitifolia|Vernonia galamensis|Vernonia incana|Vernonia lilacina|Vernonia mollissima|Vernonia sp.|Viburnum furcatum|Viburnum lantana L.|Viburnum nudum var. cassinoides|Viburnum opulus|Viburnum opulus L.|Viburnum plicatum Thunb.|Viburnum rhytidophyllum Hemsl.|Viburnum sp.|Viburnum tinus L.|Viburnum x bodnantense Aberc.|Vigna angularis|Vigna cylindrica|Vigna mungo|Vincetoxicum indicum|Viscum album|Viscum coloratum|Viscum cruciatum|Viscum sp.|Vismia cayennensis|Vitellaria paradoxa|Vitex pinnata|Vitis ficifolia|Vitis vinifera|Volkameria inermis|Vouacapoua macropetala|Wedelia acapulcensis var. hispida|Wedelia asperrima|Wedelia montevidensis|Werneria decora|Withania somnifera|Wolfiporia cocos|Wrightia sp.|Wrightia tinctoria|Xanthoparmelia camtschadalis|Xanthoparmelia pokornyi|Xanthoria parietina|Ximenia americana|Xylonagra arborea|Zaluzania grayana|Zanthoxylum Armatum|Zanthoxylum acuminatum|Zanthoxylum acutifolium|Zanthoxylum ailanthoides|Zanthoxylum armatum|Zanthoxylum asiaticum|Zanthoxylum beecheyanum|Zanthoxylum dimorphophyllum|Zanthoxylum nitidum|Zanthoxylum piasezkii|Zanthoxylum schinifolium|Zanthoxylum simulans|Zanthoxylum sp.|Zea sp.|Zygophyllum simplex|[polyangium] brachysporum|basil|common dandelion|common sunflower|lettuce|liquorice|maize|meadow clary|sesame|soybean|umbellate wintergreen

>  <collections>  (835) 
ANPDB|Australian natural products|BIOFACQUIM|CMAUP (cCollective molecular activities of useful plants)|ChEBI NPs|ChemSpider NPs|ConMedNP|FooDB|Latin America dataset|NANPDB (Natural Products from Northern African Sources)|NAPRORE-CR|NPASS|NuBBEDB|Phyto4Health|PhytoLab phyproof® Reference Substances|SANCDB|Super Natural II|TCMDB-Taiwan (Traditional Chinese Medicine database)|TIPdb (database of Taiwan indigenous plants)|TPPT (Toxic Plants–PhytoToxins)|VietHerb|WikiData Natural Products|ZINC NP

>  <dois>  (835) 
10.1002/(SICI)1099-1573(199705)11:3<240::AID-PTR54>3.0.CO;2-K|10.1002/(SICI)1099-1573(199908/09)13:5<433::AID-PTR457>3.0.CO;2-4|10.1002/1521-4184(200208)335:6<267::AID-ARDP267>3.0.CO;2-E|10.1002/ARDP.19873200503|10.1002/CBDV.201000166|10.1002/CBDV.201100006|10.1002/CHIN.199410238|10.1002/CHIN.200324153|10.1002/CHIN.200342183|10.1002/CHIN.200342184|10.1002/CHIN.200342212|10.1002/CHIN.200407160|10.1002/CHIN.200434196|10.1002/CHIN.200437183|10.1002/CHIN.200516156|10.1002/CHIN.200603175|10.1002/CJOC.20030210222|10.1002/HLCA.19930760712|10.1002/HLCA.200590094|10.1002/HLCA.200590178|10.1002/HLCA.200890084|10.1002/HLCA.200890088|10.1002/HLCA.200900220|10.1002/HLCA.201000207|10.1002/JCCS.199500128|10.1002/JCCS.200000048|10.1002/JCCS.200000075|10.1002/JCCS.200200019|10.1002/JCCS.200200068|10.1002/JCCS.200300178|10.1002/JCCS.200400036|10.1002/JCCS.200400099|10.1002/JCCS.200400159|10.1002/JCCS.200400211|10.1002/JHRC.1240200804|10.1002/JPS.2600551210|10.1002/JPS.2600620831|10.1002/JPS.2600641019|10.1002/JPS.2600710621|10.1002/JPS.2600770620|10.1002/JPS.2600810705|10.1002/JPS.3030360808|10.1002/JPS.3030430413|10.1002/JSFA.2740590309|10.1002/MRC.1600|10.1002/MRC.1734|10.1002/PCA.2800040508|10.1002/PTR.1111|10.1002/PTR.3187|10.1002/PTR.6785|10.1002/PTR.759|10.1002/biuz.19840140514|10.1007/BF00272743|10.1007/BF00397385|10.1007/BF00565067|10.1007/BF00567057|10.1007/BF00569023|10.1007/BF00576204|10.1007/BF00579142|10.1007/BF00580051|10.1007/BF00580456|10.1007/BF00598326|10.1007/BF00598380|10.1007/BF00598704|10.1007/BF02238337|10.1007/BF02249647|10.1007/BF02249650|10.1007/BF02534064|10.1007/BF02535183|10.1007/BF02540958|10.1007/BF02541590|10.1007/BF02541591|10.1007/BF02541638|10.1007/BF02637687|10.1007/BF02645749|10.1007/BF02660305|10.1007/BF02679791|10.1007/BF02859211|10.1007/BF02861174|10.1007/BF02980100|10.1007/BF02986020|10.1007/BF03046638|10.1007/S10600-006-0002-0|10.1007/S10600-007-0175-1|10.1007/S10600-008-0012-1|10.1007/S10600-008-9078-Z|10.1007/S10600-009-9176-6|10.1007/S10600-009-9387-X|10.1007/S10600-009-9408-9|10.1007/S10600-010-9459-Y|10.1007/S10600-010-9543-3|10.1007/S10600-010-9716-0|10.1007/S10600-011-0023-1|10.1007/S10600-011-0024-0|10.1007/S10600-011-0026-Y|10.1007/S10600-011-0067-2|10.1007/S10600-016-1771-8|10.1007/S10600-018-2437-5|10.1007/S10600-018-2544-3|10.1007/S10600-020-02963-X|10.1007/S11418-010-0403-Z|10.1007/S11745-997-0026-Z|10.1007/SPRINGERREFERENCE_68205|10.1016/0024-3205(93)90220-W|10.1016/0031-9422(71)85055-0|10.1016/0031-9422(74)85147-2|10.1016/0031-9422(75)83047-0|10.1016/0031-9422(75)83058-5|10.1016/0031-9422(80)83019-6|10.1016/0031-9422(80)85024-2|10.1016/0031-9422(81)84067-8|10.1016/0031-9422(82)80140-4|10.1016/0031-9422(82)83160-9|10.1016/0031-9422(83)80045-4|10.1016/0031-9422(83)80160-5|10.1016/0031-9422(83)80245-3|10.1016/0031-9422(83)80247-7|10.1016/0031-9422(83)83062-3|10.1016/0031-9422(84)83033-2|10.1016/0031-9422(84)83081-2|10.1016/0031-9422(85)80024-8|10.1016/0031-9422(85)80030-3|10.1016/0031-9422(86)88046-3|10.1016/0031-9422(88)80141-9|10.1016/0031-9422(88)80143-2|10.1016/0031-9422(88)80153-5|10.1016/0031-9422(88)80157-2|10.1016/0031-9422(88)80236-X|10.1016/0031-9422(88)80315-7|10.1016/0031-9422(88)80613-7|10.1016/0031-9422(88)80706-4|10.1016/0031-9422(88)80771-4|10.1016/0031-9422(88)83068-1|10.1016/0031-9422(88)83098-X|10.1016/0031-9422(88)83120-0|10.1016/0031-9422(88)83136-4|10.1016/0031-9422(88)83137-6|10.1016/0031-9422(88)84107-4|10.1016/0031-9422(88)87045-6|10.1016/0031-9422(89)80234-1|10.1016/0031-9422(89)80376-0|10.1016/0031-9422(89)80396-6|10.1016/0031-9422(89)85058-7|10.1016/0031-9422(90)85058-N|10.1016/0031-9422(90)85192-I|10.1016/0031-9422(90)85226-6|10.1016/0031-9422(90)85280-S|10.1016/0031-9422(90)85468-U|10.1016/0031-9422(90)87129-I|10.1016/0031-9422(90)87137-J|10.1016/0031-9422(90)89059-I|10.1016/0031-9422(91)80034-X|10.1016/0031-9422(91)80095-I|10.1016/0031-9422(91)83037-L|10.1016/0031-9422(91)83067-U|10.1016/0031-9422(91)83210-C|10.1016/0031-9422(91)83733-2|10.1016/0031-9422(91)84221-D|10.1016/0031-9422(91)85047-4|10.1016/0031-9422(91)85077-D|10.1016/0031-9422(91)85154-R|10.1016/0031-9422(91)85157-U|10.1016/0031-9422(91)85249-Y|10.1016/0031-9422(91)85271-Z|10.1016/0031-9422(91)85274-4|10.1016/0031-9422(92)80176-F|10.1016/0031-9422(92)80279-N|10.1016/0031-9422(92)80313-4|10.1016/0031-9422(92)80365-L|10.1016/0031-9422(92)80366-M|10.1016/0031-9422(92)83139-P|10.1016/0031-9422(92)83142-L|10.1016/0031-9422(92)83156-S|10.1016/0031-9422(92)83503-Q|10.1016/0031-9422(92)83720-J|10.1016/0031-9422(92)83724-D|10.1016/0031-9422(92)83741-G|10.1016/0031-9422(92)83744-J|10.1016/0031-9422(92)90045-R|10.1016/0031-9422(93)85112-5|10.1016/0031-9422(93)85359-Y|10.1016/0031-9422(93)85550-B|10.1016/0031-9422(94)00671-F|10.1016/0031-9422(94)00791-Q|10.1016/0031-9422(94)00850-S|10.1016/0031-9422(94)85021-6|10.1016/0031-9422(94)85023-2|10.1016/0031-9422(95)00054-B|10.1016/0031-9422(95)00091-K|10.1016/0031-9422(95)00164-3|10.1016/0031-9422(95)00427-9|10.1016/0031-9422(95)00494-R|10.1016/0031-9422(95)00624-9|10.1016/0031-9422(95)00681-8|10.1016/0031-9422(95)00731-8|10.1016/0031-9422(95)00748-2|10.1016/0031-9422(95)00778-4|10.1016/0031-9422(95)00942-6|10.1016/0031-9422(95)00973-6|10.1016/0031-9422(95)99386-3|10.1016/0031-9422(96)00118-5|10.1016/0031-9422(96)00229-4|10.1016/0031-9422(96)00886-2|10.1016/0165-1218(93)90043-D|10.1016/0305-1978(86)90005-0|10.1016/0305-1978(87)90052-4|10.1016/0305-1978(88)90078-6|10.1016/0305-1978(91)90062-5|10.1016/0305-1978(94)90107-4|10.1016/0305-1978(95)00082-8|10.1016/0305-1978(95)00096-8|10.1016/0378-8741(84)90002-3|10.1016/0378-8741(84)90075-8|10.1016/0378-8741(85)90002-9|10.1016/0968-0896(96)00078-8|10.1016/B978-0-12-812491-8.00030-8|10.1016/J.ARABJC.2011.03.011|10.1016/J.BMCL.2009.04.129|10.1016/J.BMCL.2010.05.061|10.1016/J.BMCL.2010.10.058|10.1016/J.CCLET.2010.02.022|10.1016/J.EJPHAR.2004.11.012|10.1016/J.FITOTE.2004.06.007|10.1016/J.FITOTE.2004.11.003|10.1016/J.JEP.2010.11.057|10.1016/J.PHYTOCHEM.2004.03.010|10.1016/J.PHYTOCHEM.2005.07.011|10.1016/J.PHYTOCHEM.2007.02.020|10.1016/J.PHYTOCHEM.2008.02.018|10.1016/J.PHYTOCHEM.2008.03.025|10.1016/J.PHYTOCHEM.2008.12.008|10.1016/J.PHYTOCHEM.2009.05.011|10.1016/J.PHYTOL.2009.03.002|10.1016/J.PHYTOL.2009.10.007|10.1016/J.TET.2005.01.051|10.1016/S0021-9673(98)00084-3|10.1016/S0031-9422(00)00062-5|10.1016/S0031-9422(00)00250-8|10.1016/S0031-9422(00)00296-X|10.1016/S0031-9422(00)00463-5|10.1016/S0031-9422(00)80074-6|10.1016/S0031-9422(00)80096-5|10.1016/S0031-9422(00)80098-9|10.1016/S0031-9422(00)80275-7|10.1016/S0031-9422(00)80396-9|10.1016/S0031-9422(00)80530-0|10.1016/S0031-9422(00)80533-6|10.1016/S0031-9422(00)80602-0|10.1016/S0031-9422(00)80607-X|10.1016/S0031-9422(00)80608-1|10.1016/S0031-9422(00)80819-5|10.1016/S0031-9422(00)81125-5|10.1016/S0031-9422(00)81318-7|10.1016/S0031-9422(00)81419-3|10.1016/S0031-9422(00)81694-5|10.1016/S0031-9422(00)81969-X|10.1016/S0031-9422(00)82541-8|10.1016/S0031-9422(00)82608-4|10.1016/S0031-9422(00)83042-3|10.1016/S0031-9422(00)83122-2|10.1016/S0031-9422(00)83498-6|10.1016/S0031-9422(00)83591-8|10.1016/S0031-9422(00)83751-6|10.1016/S0031-9422(00)83939-4|10.1016/S0031-9422(00)84784-6|10.1016/S0031-9422(00)84916-X|10.1016/S0031-9422(00)84947-X|10.1016/S0031-9422(00)84985-7|10.1016/S0031-9422(00)84990-0|10.1016/S0031-9422(00)85365-0|10.1016/S0031-9422(00)85392-3|10.1016/S0031-9422(00)85505-3|10.1016/S0031-9422(00)85520-X|10.1016/S0031-9422(00)86013-6|10.1016/S0031-9422(00)86539-5|10.1016/S0031-9422(00)86904-6|10.1016/S0031-9422(00)88703-8|10.1016/S0031-9422(00)88704-X|10.1016/S0031-9422(00)89541-2|10.1016/S0031-9422(00)89601-6|10.1016/S0031-9422(00)89602-8|10.1016/S0031-9422(00)89654-5|10.1016/S0031-9422(00)89810-6|10.1016/S0031-9422(00)90117-1|10.1016/S0031-9422(00)90142-0|10.1016/S0031-9422(00)90410-2|10.1016/S0031-9422(00)90500-4|10.1016/S0031-9422(00)90717-9|10.1016/S0031-9422(00)90719-2|10.1016/S0031-9422(00)90814-8|10.1016/S0031-9422(00)90867-7|10.1016/S0031-9422(00)94550-3|10.1016/S0031-9422(00)94844-1|10.1016/S0031-9422(00)95020-9|10.1016/S0031-9422(00)95112-4|10.1016/S0031-9422(00)95118-5|10.1016/S0031-9422(00)97034-1|10.1016/S0031-9422(00)97065-1|10.1016/S0031-9422(00)97098-5|10.1016/S0031-9422(00)97405-3|10.1016/S0031-9422(00)97553-8|10.1016/S0031-9422(00)97767-7|10.1016/S0031-9422(00)97787-2|10.1016/S0031-9422(00)97880-4|10.1016/S0031-9422(00)97889-0|10.1016/S0031-9422(00)97935-4|10.1016/S0031-9422(00)97947-0|10.1016/S0031-9422(00)97999-8|10.1016/S0031-9422(00)98014-2|10.1016/S0031-9422(01)00121-2|10.1016/S0031-9422(01)00176-5|10.1016/S0031-9422(01)00277-1|10.1016/S0031-9422(02)00268-6|10.1016/S0031-9422(02)00440-5|10.1016/S0031-9422(03)00075-X|10.1016/S0031-9422(03)00202-4|10.1016/S0031-9422(03)00342-X|10.1016/S0031-9422(96)00343-3|10.1016/S0031-9422(96)00680-2|10.1016/S0031-9422(97)00004-6|10.1016/S0031-9422(97)00021-6|10.1016/S0031-9422(97)00101-5|10.1016/S0031-9422(97)00280-X|10.1016/S0031-9422(97)00418-4|10.1016/S0031-9422(97)00497-4|10.1016/S0031-9422(97)00690-0|10.1016/S0031-9422(97)00783-8|10.1016/S0031-9422(97)00832-7|10.1016/S0031-9422(97)01055-8|10.1016/S0031-9422(97)01107-2|10.1016/S0031-9422(97)01137-0|10.1016/S0031-9422(98)00520-2|10.1016/S0031-9422(98)00536-6|10.1016/S0031-9422(98)00656-6|10.1016/S0031-9422(98)80079-4|10.1016/S0031-9422(99)00207-1|10.1016/S0031-9422(99)00270-8|10.1016/S0031-9422(99)00290-3|10.1016/S0031-9422(99)00314-3|10.1016/S0031-9422(99)00391-X|10.1016/S0031-9422(99)00401-X|10.1016/S0040-4020(99)00653-5|10.1016/S0040-4039(00)01347-2|10.1016/S0176-1617(85)80223-6|10.1016/S0305-1978(00)00063-6|10.1016/S0305-1978(01)00073-4|10.1016/S0305-1978(01)00127-2|10.1016/S0305-1978(02)00027-3|10.1016/S0305-1978(02)00090-X|10.1016/S0305-1978(98)00070-2|10.1016/S0305-1978(98)00079-9|10.1016/S0367-326X(00)00155-6|10.1016/S0367-326X(01)00267-2|10.1016/S0367-326X(01)00289-1|10.1016/S0367-326X(01)00292-1|10.1016/S0367-326X(01)00317-3|10.1016/S0367-326X(01)00325-2|10.1016/S0367-326X(01)00327-6|10.1016/S0367-326X(01)00342-2|10.1016/S0367-326X(02)00013-8|10.1016/S0367-326X(03)00106-0|10.1016/S0367-326X(99)00010-6|10.1016/S0367-326X(99)00060-X|10.1016/S0378-8741(01)00414-7|10.1016/S0896-8446(02)00012-8|10.1016/S0944-7113(98)80006-8|10.1016/S1001-0742(14)60648-3|10.1016/j.bmcl.2009.04.129|10.1016/j.bmcl.2010.05.061|10.1016/j.jep.2010.11.057|10.1016/j.phytol.2012.03.002|10.1021/JA01151A534|10.1021/JF00039A021|10.1021/JF010701V|10.1021/JF0206320|10.1021/NP000247+|10.1021/NP000321O|10.1021/NP0201220|10.1021/NP0301543|10.1021/NP0303411|10.1021/NP030509I|10.1021/NP030509I.S001|10.1021/NP040072U|10.1021/NP0497548|10.1021/NP0500272|10.1021/NP070038Q|10.1021/NP070154T|10.1021/NP070174V|10.1021/NP50009A016|10.1021/NP50017A014|10.1021/NP50017A026|10.1021/NP50024A014|10.1021/NP50026A001|10.1021/NP50027A025|10.1021/NP50028A003|10.1021/NP50028A021|10.1021/NP50031A030|10.1021/NP50031A033|10.1021/NP50032A023|10.1021/NP50034A016|10.1021/NP50034A017|10.1021/NP50034A036|10.1021/NP50034A043|10.1021/NP50037A031|10.1021/NP50039A032|10.1021/NP50044A031|10.1021/NP50045A025|10.1021/NP50046A026|10.1021/NP50046A049|10.1021/NP50047A034|10.1021/NP50050A045|10.1021/NP50054A035|10.1021/NP50063A024|10.1021/NP50064A021|10.1021/NP50066A019|10.1021/NP50069A024|10.1021/NP50074A033|10.1021/NP50074A036|10.1021/NP50077A010|10.1021/NP50087A027|10.1021/NP50096A031|10.1021/NP50100A022|10.1021/NP50101A008|10.1021/NP50104A012|10.1021/NP50116A019|10.1021/NP50116A023|10.1021/NP50123A007|10.1021/NP800093A|10.1021/NP970186O|10.1021/NP970490H|10.1021/NP980224J|10.1021/NP990495+|10.1021/OL800389Q|10.1021/acs.jnatprod.7b00241|10.1021/np0301543|10.1021/np0303411|10.1021/np070038q|10.1039/J39670000329|10.1042/BST0110595|10.1046/J.1432-1327.1998.2560238.X|10.1046/J.1432-1327.2000.01357.X|10.1055/S-0028-1097228|10.1055/S-0028-1097297|10.1055/S-0028-1097438|10.1055/S-0028-1097458|10.1055/S-0028-1097486|10.1055/S-0028-1097541|10.1055/S-0028-1097619|10.1055/S-0028-1099423|10.1055/S-0028-1099461|10.1055/S-0029-1234991|10.1055/S-0029-1241017|10.1055/S-0030-1264773|10.1055/S-0036-1578763|10.1055/S-2000-8632|10.1055/S-2001-15813|10.1055/S-2002-34416|10.1055/S-2003-38488|10.1055/S-2004-818920|10.1055/S-2006-957598|10.1055/S-2006-957747|10.1055/S-2006-957764|10.1055/S-2006-957793|10.1055/S-2006-957841|10.1055/S-2006-957961|10.1055/S-2006-958083|10.1055/S-2006-959392|10.1055/S-2006-959482|10.1055/S-2006-959562|10.1055/S-2006-959579|10.1055/S-2006-959585|10.1055/S-2006-959670|10.1055/S-2006-960781|10.1055/S-2006-960942|10.1055/S-2006-961488|10.1055/S-2006-961513|10.1055/S-2006-961822|10.1055/S-2006-962339|10.1055/S-2006-962358|10.1055/S-2006-962410|10.1055/S-2007-969483|10.1055/S-2007-971248|10.1055/S-2008-1034301|10.1055/S-2008-1034309|10.1071/CH9550129|10.1071/CH9580248|10.1071/CH9761351|10.1071/CH9781375|10.1071/ch9781375|10.1076/PHBI.35.1.49.13273|10.1076/PHBI.37.1.54.6310|10.1076/PHBI.38.5.391.5972|10.1076/PHBI.39.1.20.5941|10.1076/PHBI.41.4.231.15667|10.1080/03758397.1956.10857336|10.1080/10286020.2011.619183|10.1080/10286020.2011.620954|10.1080/1028602031000080441|10.1080/1028602042000324826|10.1080/10575639408043900|10.1080/10575639508043213|10.1080/10575639808041210|10.1080/10575639908048785|10.1080/13880200601026234|10.1080/14786411003754298|10.1099/00221287-129-3-543|10.1135/CCCC19842661|10.1139/V08-097|10.1139/V63-343|10.1139/V67-161|10.1139/V92-182|10.1177/1934578X0900400302|10.1186/2193-1801-3-253|10.1211/0022357001773607|10.1211/002235702919|10.1246/BCSJ.39.2313|10.1246/BCSJ.39.2532|10.1248/BPB.22.606|10.1248/CPB.18.1276|10.1248/CPB.24.2102|10.1248/CPB.32.369|10.1248/CPB.32.723|10.1248/CPB.35.3292|10.1248/CPB.37.1300|10.1248/CPB.37.2621|10.1248/CPB.39.3132|10.1248/CPB.40.2007|10.1248/CPB.40.2295|10.1248/CPB.42.608|10.1248/CPB.42.960|10.1248/CPB.43.1634|10.1248/CPB.43.180|10.1248/CPB.44.1202|10.1248/CPB.44.1255|10.1248/CPB.44.509|10.1248/CPB.45.2016|10.1248/CPB.46.113|10.1248/CPB.46.1189|10.1248/CPB.46.1408|10.1248/CPB.46.1647|10.1248/CPB.47.890|10.1248/CPB.49.151|10.1248/CPB.50.590|10.1248/CPB.51.1051|10.1248/CPB.51.89|10.1248/CPB.52.1227|10.1248/CPB.53.1037|10.1248/CPB.55.1258|10.1248/CPB.55.1402|10.1248/CPB.56.1428|10.1248/CPB.57.1352|10.1248/YAKUSHI1947.103.3_279|10.1248/YAKUSHI1947.103.3_356|10.1248/YAKUSHI1947.103.3_360|10.1248/YAKUSHI1947.104.4_390|10.1248/YAKUSHI1947.108.7_647|10.1248/YAKUSHI1947.111.7_365|10.1248/YAKUSHI1947.94.12_1593|10.1271/BBB1961.50.2921|10.1271/NOGEIKAGAKU1924.59.895|10.1351/PAC198153061101|10.14233/AJCHEM.2014.16935|10.1515/ZNB-1997-0319|10.1515/ZNB-2002-0913|10.1515/ZNB-2006-0910|10.1515/ZNB-2008-0717|10.1515/ZNB-2008-1113|10.1515/ZNC-1988-1-206|10.1515/ZNC-1988-11-1202|10.1515/ZNC-1988-3-404|10.1515/ZNC-1989-7-804|10.1515/ZNC-1991-9-1005|10.1515/ZNC-1992-7-805|10.1515/ZNC-1995-5-617|10.1515/ZNC-1999-1-223|10.1515/ZNC-2002-1-214|10.1515/ZNC-2003-3-411|10.1515/ZNC-2003-9-1002|10.15625/0866-708X/55/2/8608|10.1590/S0100-40422009000800010|10.1590/S0103-50531997000500016|10.1590/S0103-50531998000500004|10.1590/S0103-50531999000600017|10.1590/S0103-50532001000300008|10.1590/S0103-50532001000400020|10.1590/S0103-50532002000100020|10.1590/S0103-50532002000200023|10.1590/S0103-50532002000500021|10.1590/S0103-50532006000200010|10.1590/S0103-50532012000300015|10.21608/BFSA.1984.89568|10.21608/BFSA.1984.89869|10.21608/BFSA.1985.75705|10.21608/BFSA.1985.75707|10.21608/BFSA.1985.75886|10.21608/BFSA.1995.69697|10.21608/BFSA.2000.66323|10.21608/BFSA.2003.65484|10.21608/ZJPS.1996.185015|10.25073/2588-1140/VNUNST.5500|10.3109/10915819309140647|10.3109/13880208409070669|10.3109/13880209.2014.898078|10.3109/13880209009082796|10.3109/13880209209054017|10.3109/13880209309082947|10.3109/13880209509088152|10.32861/JBR.66.57.61|10.3329/DUJPS.V3I1.189|10.3390/molecules21020192|10.3724/SP.J.1009.2008.00116|10.3906/KIM-1206-45|10.3987/COM-95-7069|10.4067/S0366-16442000000100007|10.4268/CJCMM20121011|10.4268/CJCMM20140615|10.4268/CJCMM20151518|10.4268/CJCMM20151919|10.4314/BCSE.V11I2.71725|10.48141/SBJCHEM.V7.N8.1999.52_1999.PDF|10.5246/JCPS.2016.11.092|10.5511/PLANTBIOTECHNOLOGY1984.10.275|10.5586/ASBP.1988.008|10.5650/JOS1956.29.82|10.5935/0103-5053.19910004|10.7717/PEERJ.4998/FIG-8

>  <synonyms>  (835) 
(3S,4aR,6aR,6bS,8aR,12aR,14aR,14bR)-4,4,6a,6b,8a,11,11,14b-octamethyl-1,2,3,4,4a,5,6,6a,6b,7,8,8a,9,10,11,12,12a,14,14a,14b-icosahydropicen-3-ol|(3S,4aR,6aR,6bS,8aR,12aR,14aR,14bR)-4,4,6a,6b,8a,11,11,14b-octamethyl-1,2,3,4a,5,6,7,8,9,10,12,12a,14,14a-tetradecahydropicen-3-ol|(3beta)-olean-12-en-3-ol|-amyrin|.BETA.-AMYRIN [MI]|3beta-hydroxyolean-12-ene|559-70-6|?-Amyrin|A913759|AKOS032962060|AMYRIN, BETA-|Amyrin|B-Amyrin|BDBM50241955|BS-32560|C08616|CHEBI:10352|CHEMBL455098|CS-0023527|D85202|DTXSID201025005|EINECS 209-204-6|EX-A6672|HY-N2922|I(2)-Amyrin|JFSHUTJDVKUMTJ-QHPUVITPSA-N|KM8353IPSO|LMPR0106150015|MFCD00017381|NS00076600|NSC 527971|Olean-12-en-3-ol, (3b)-|Olean-12-en-3beta-ol|Q27108621|SCHEMBL377754|UNII-KM8353IPSO|\u03b2-Amyrenol|\u221a\u00e9\u00ac\u2264-amyrin|beta -Amyrin|beta-Amyrenol|beta-Amyrin, analytical standard|beta-amyrin

>  <cas>  (835) 
559-70-6

$$$$

     RDKit          2D

 15 16  0  0  0  0  0  0  0  0999 V2000
    3.3690   -1.9373    0.0000 C   0  0  0  0  0  0  0  0  0  0  0  0
    3.1386   -0.4551    0.0000 C   0  0  0  0  0  0  0  0  0  0  0  0
    4.3069    0.4856    0.0000 C   0  0  0  0  0  0  0  0  0  0  0  0
    1.7397    0.0864    0.0000 C   0  0  0  0  0  0  0  0  0  0  0  0
    1.6206    1.5817    0.0000 C   0  0  0  0  0  0  0  0  0  0  0  0
    0.3774    2.4208    0.0000 C   0  0  0  0  0  0  0  0  0  0  0  0
   -1.0539    1.9720    0.0000 C   0  0  0  0  0  0  0  0  0  0  0  0
   -2.0793    3.0668    0.0000 C   0  0  0  0  0  0  0  0  0  0  0  0
   -1.5954    0.5732    0.0000 C   0  0  0  0  0  0  0  0  0  0  0  0
   -0.8394   -0.7223    0.0000 C   0  0  0  0  0  0  0  0  0  0  0  0
    0.6449   -0.9390    0.0000 C   0  0  0  0  0  0  0  0  0  0  0  0
   -1.8379   -1.8417    0.0000 C   0  0  0  0  0  0  0  0  0  0  0  0
   -1.5191   -3.3075    0.0000 C   0  0  0  0  0  0  0  0  0  0  0  0
   -3.2110   -1.2380    0.0000 C   0  0  0  0  0  0  0  0  0  0  0  0
   -3.0612    0.2545    0.0000 C   0  0  0  0  0  0  0  0  0  0  0  0
  1  2  1  0
  2  3  1  0
  2  4  2  0
  4  5  1  0
  5  6  1  0
  6  7  1  0
  7  8  1  1
  7  9  1  0
  9 10  2  0
 10 11  1  0
 10 12  1  0
 12 13  1  1
 12 14  1  0
 14 15  1  0
 11  4  1  0
 15  9  1  0
M  END
>  <identifier>  (836) 
CNP0383816.2

>  <canonical_smiles>  (836) 
CC(C)=C1CC[C@H](C)C2=C(C1)[C@@H](C)CC2

>  <standard_inchi>  (836) 
InChI=1S/C15H24/c1-10(2)13-7-5-11(3)14-8-6-12(4)15(14)9-13/h11-12H,5-9H2,1-4H3/t11-,12-/m0/s1

>  <standard_inchi_key>  (836) 
GIBQERSGRNPMEH-RYUDHWBXSA-N

>  <name>  (836) 
88-84-6

>  <iupac_name>  (836) 
(1~{S},4~{S})-7-isopropylidene-1,4-dimethyl-2,3,4,5,6,8-hexahydro-1~{H}-azulene

>  <annotation_level>  (836) 
5

>  <total_atom_count>  (836) 
39

>  <heavy_atom_count>  (836) 
15

>  <molecular_weight>  (836) 
204.36

>  <exact_molecular_weight>  (836) 
204.1878

>  <molecular_formula>  (836) 
C15H24

>  <alogp>  (836) 
4.87

>  <topological_polar_surface_area>  (836) 
0.00

>  <rotatable_bond_count>  (836) 
0

>  <hydrogen_bond_acceptors>  (836) 
0

>  <hydrogen_bond_donors>  (836) 
0

>  <hydrogen_bond_acceptors_lipinski>  (836) 
0

>  <hydrogen_bond_donors_lipinski>  (836) 
0

>  <lipinski_rule_of_five_violations>  (836) 
0

>  <aromatic_rings_count>  (836) 
0

>  <qed_drug_likeliness>  (836) 
0.49

>  <formal_charge>  (836) 
0

>  <fractioncsp3>  (836) 
0.73

>  <number_of_minimal_rings>  (836) 
2

>  <van_der_walls_volume>  (836) 
225.58

>  <contains_sugar>  (836) 
False

>  <contains_ring_sugars>  (836) 
False

>  <contains_linear_sugars>  (836) 
False

>  <murcko_framework>  (836) 
C12=C(CCC1)CCCCC2

>  <np_likeness>  (836) 
1.79

>  <chemical_class>  (836) 
Prenol lipids

>  <chemical_sub_class>  (836) 
Sesquiterpenoids

>  <chemical_super_class>  (836) 
Lipids and lipid-like molecules

>  <direct_parent_classification>  (836) 
Sesquiterpenoids

>  <np_classifier_pathway>  (836) 
Terpenoids

>  <np_classifier_superclass>  (836) 
Sesquiterpenoids

>  <np_classifier_class>  (836) 
Guaiane sesquiterpenoids

>  <np_classifier_is_glycoside>  (836) 
False

>  <organisms>  (836) 
Acorus calamus|Amomum villosum|Artemisia annua|Artemisia argyi|Artemisia montana|Artemisia princeps|Atractylodes chinensis|Atractylodes lancea|Citrus reticulata|Citrus unshiu|Croton grewioides|Croton zehntneri|Curcuma kwangsiensis|Curcuma phaeocaulis|Curcuma wenyujin|Curcuma zedoaria|Eryngium expansum|Eryngium pandanifolium|Eryngium rostratum|Eryngium vesiculosum|Eucalyptus|Glehnia littoralis|Hypericum perforatum|Magnolia officinalis|Nicotiana tabacum|Ocotea morae|Panax ginseng|Perilla frutescens|Persicaria hydropiperoides|Persicaria minor|Pinus sylvestris|Piper nigrum|Pogostemon cablin|Polygonum minus|Rosmarinus officinalis|Saussurea lappa|Schisandra chinensis|Scutellaria barbata|Valeriana jatamansi

>  <collections>  (836) 
Australian natural products|CMAUP (cCollective molecular activities of useful plants)|KNApSaCK|Latin America dataset|NAPRORE-CR|NPASS|NuBBEDB|Super Natural II|TIPdb (database of Taiwan indigenous plants)|WikiData Natural Products

>  <dois>  (836) 
10.1007/S11418-007-0175-2|10.1016/J.FOODCHEM.2010.08.043|10.1016/J.JPBA.2005.09.015|10.1016/s0031-9422(00)83062-9|10.1021/NP50017A019|10.1021/np50017a019|10.1055/S-2006-960908|10.1080/10412905.2003.9698619|10.1590/S0103-50532011000400018|10.3109/08958378.2013.878005|10.3390/MOLECULES191119220|10.4315/0362-028X-68.4.790

>  <synonyms>  (836) 
(1S,4S)-1,4-Dimethyl-7-(propan-2-ylidene)-1,2,3,4,5,6,7,8-octahydroazulene|(1S,4S)-1,4-dimethyl-7-propan-2-ylidene-2,3,4,5,6,8-hexahydro-1H-azulene|(1S-cis)-1,2,3,4,5,6,7,8-Octahydro-7-isopropylidene-1,4-dimethylazulene|.beta.-cis-Guaiene|1,2,3,4,5,6,7,8-Octahydro-1,4-dimethyl-7-(1-methylethylidene)-azulene, (1S,cis)|1,4-Dimethyl-7-(1-methylethylidene)-1,2,3,4,5,6,7,8-octahydroazulene, (1S,cis)-|1D018Q907T|372162-07-7|?-Guaiene (>85%)|??-Guaiene|AKOS027288725|Azulene, 1,2,3,4,5,6,7,8-octahydro-1,4-dimethyl-7-(1-methylethylidene)-, (1S-cis)-|DTXSID401037341|DTXSID5052599|EINECS 201-860-1|GUAIENE [FHFI]|Guaia-1(5),7(11)-diene|Guaiene(Technical)|Guaiene, beta-|NS00012509|Q27252250|UNII-1D018Q907T|\u221a\u00e9\u00ac\u2264-Gauyene|_-guaiene|beta-Guaiene|cis-.beta.-Guaiene|guaiene|rel-(1R,4R)-1,2,3,4,5,6,7,8-Octahydro-1,4-dimethyl-7-(1-methylethylidene)azulene

>  <cas>  (836) 
372162-07-7|88-84-6

$$$$

     RDKit          2D

 28 29  0  0  0  0  0  0  0  0999 V2000
    6.2605   -4.5096    0.0000 C   0  0  0  0  0  0  0  0  0  0  0  0
    5.2281   -3.4214    0.0000 C   0  0  0  0  0  0  0  0  0  0  0  0
    5.6544   -1.9832    0.0000 C   0  0  0  0  0  0  0  0  0  0  0  0
    4.6220   -0.8950    0.0000 C   0  0  0  0  0  0  0  0  0  0  0  0
    3.1634   -1.2449    0.0000 C   0  0  0  0  0  0  0  0  0  0  0  0
    2.1311   -0.1567    0.0000 C   0  0  0  0  0  0  0  0  0  0  0  0
    2.5573    1.2815    0.0000 C   0  0  0  0  0  0  0  0  0  0  0  0
    1.5250    2.3697    0.0000 O   0  0  0  0  0  0  0  0  0  0  0  0
    0.0664    2.0198    0.0000 C   0  0  0  0  0  0  0  0  0  0  0  0
   -0.9660    3.1080    0.0000 C   0  0  0  0  0  0  0  0  0  0  0  0
   -0.3599    0.5816    0.0000 C   0  0  0  0  0  0  0  0  0  0  0  0
    0.6725   -0.5066    0.0000 O   0  0  0  0  0  0  0  0  0  0  0  0
   -1.8185    0.2317    0.0000 C   0  0  0  0  0  0  0  0  0  0  0  0
   -2.8509    1.3199    0.0000 C   0  0  0  0  0  0  0  0  0  0  0  0
   -4.3095    0.9700    0.0000 C   0  0  0  0  0  0  0  0  0  0  0  0
   -5.3418    2.0582    0.0000 O   0  0  0  0  0  0  0  0  0  0  0  0
   -4.9156    3.4963    0.0000 C   0  0  0  0  0  0  0  0  0  0  0  0
   -4.7357   -0.4682    0.0000 C   0  0  0  0  0  0  0  0  0  0  0  0
   -6.1943   -0.8181    0.0000 O   0  0  0  0  0  0  0  0  0  0  0  0
   -6.6206   -2.2563    0.0000 C   0  0  0  0  0  0  0  0  0  0  0  0
   -3.7034   -1.5564    0.0000 C   0  0  0  0  0  0  0  0  0  0  0  0
   -4.1296   -2.9946    0.0000 O   0  0  0  0  0  0  0  0  0  0  0  0
   -3.0973   -4.0828    0.0000 C   0  0  0  0  0  0  0  0  0  0  0  0
   -2.2448   -1.2065    0.0000 C   0  0  0  0  0  0  0  0  0  0  0  0
    4.0159    1.6314    0.0000 C   0  0  0  0  0  0  0  0  0  0  0  0
    4.4422    3.0696    0.0000 O   0  0  0  0  0  0  0  0  0  0  0  0
    5.9008    3.4195    0.0000 C   0  0  0  0  0  0  0  0  0  0  0  0
    5.0483    0.5432    0.0000 C   0  0  0  0  0  0  0  0  0  0  0  0
  1  2  1  0
  2  3  2  0
  3  4  1  0
  4  5  2  0
  5  6  1  0
  6  7  2  0
  7  8  1  0
  8  9  1  0
  9 10  1  1
  9 11  1  0
 11 12  1  1
 11 13  1  0
 13 14  2  0
 14 15  1  0
 15 16  1  0
 16 17  1  0
 15 18  2  0
 18 19  1  0
 19 20  1  0
 18 21  1  0
 21 22  1  0
 22 23  1  0
 21 24  2  0
  7 25  1  0
 25 26  1  0
 26 27  1  0
 25 28  2  0
 28  4  1  0
 24 13  1  0
M  END
>  <identifier>  (837) 
CNP0146734.3

>  <canonical_smiles>  (837) 
C/C=C/C1=CC=C(O[C@H](C)[C@@H](O)C2=CC(OC)=C(OC)C(OC)=C2)C(OC)=C1

>  <standard_inchi>  (837) 
InChI=1S/C22H28O6/c1-7-8-15-9-10-17(18(11-15)24-3)28-14(2)21(23)16-12-19(25-4)22(27-6)20(13-16)26-5/h7-14,21,23H,1-6H3/b8-7+/t14-,21-/m1/s1

>  <standard_inchi_key>  (837) 
LNEPYGTUEWFPKT-CUPZOLRKSA-N

>  <name>  (837) 
(1S,2R)-2-[2-methoxy-4-[(E)-prop-1-enyl]phenoxy]-1-(3,4,5-trimethoxyphenyl)propan-1-ol

>  <iupac_name>  (837) 
(1~{S},2~{R})-2-[2-methoxy-4-[(~{E})-prop-1-enyl]phenoxy]-1-(3,4,5-trimethoxyphenyl)propan-1-ol

>  <annotation_level>  (837) 
5

>  <total_atom_count>  (837) 
56

>  <heavy_atom_count>  (837) 
28

>  <molecular_weight>  (837) 
388.46

>  <exact_molecular_weight>  (837) 
388.18859

>  <molecular_formula>  (837) 
C22H28O6

>  <alogp>  (837) 
4.26

>  <topological_polar_surface_area>  (837) 
66.38

>  <rotatable_bond_count>  (837) 
9

>  <hydrogen_bond_acceptors>  (837) 
6

>  <hydrogen_bond_donors>  (837) 
1

>  <hydrogen_bond_acceptors_lipinski>  (837) 
6

>  <hydrogen_bond_donors_lipinski>  (837) 
1

>  <lipinski_rule_of_five_violations>  (837) 
0

>  <aromatic_rings_count>  (837) 
2

>  <qed_drug_likeliness>  (837) 
0.69

>  <formal_charge>  (837) 
0

>  <fractioncsp3>  (837) 
0.36

>  <number_of_minimal_rings>  (837) 
2

>  <van_der_walls_volume>  (837) 
nan

>  <contains_sugar>  (837) 
False

>  <contains_ring_sugars>  (837) 
False

>  <contains_linear_sugars>  (837) 
False

>  <murcko_framework>  (837) 
O(c1ccccc1)CCc2ccccc2

>  <np_likeness>  (837) 
0.80

>  <chemical_class>  (837) 
nan

>  <chemical_sub_class>  (837) 
Lignans, neolignans and related compounds

>  <chemical_super_class>  (837) 
Lignans, neolignans and related compounds

>  <direct_parent_classification>  (837) 
Lignans, neolignans and related compounds

>  <np_classifier_pathway>  (837) 
Shikimates and Phenylpropanoids

>  <np_classifier_superclass>  (837) 
Lignans

>  <np_classifier_class>  (837) 
Neolignans

>  <np_classifier_is_glycoside>  (837) 
False

>  <organisms>  (837) 
Virola surinamensis

>  <collections>  (837) 
Latin America dataset|NuBBEDB|Super Natural II|WikiData Natural Products

>  <dois>  (837) 
10.1016/S0031-9422(00)94227-4

>  <synonyms>  (837) 
CHEMBL464726|surinamensin

>  <cas>  (837) 
nan

$$$$

     RDKit          2D

 21 23  0  0  0  0  0  0  0  0999 V2000
    3.0670   -2.9089    0.0000 C   0  0  0  0  0  0  0  0  0  0  0  0
    3.9049   -1.6647    0.0000 C   0  0  0  0  0  0  0  0  0  0  0  0
    5.4013   -1.7682    0.0000 C   0  0  0  0  0  0  0  0  0  0  0  0
    3.2463   -0.3170    0.0000 C   0  0  0  0  0  0  0  0  0  0  0  0
    3.9495    1.0079    0.0000 C   0  0  0  0  0  0  0  0  0  0  0  0
    2.9068    2.0862    0.0000 C   0  0  0  0  0  0  0  0  0  0  0  0
    1.5590    1.4276    0.0000 C   0  0  0  0  0  0  0  0  0  0  0  0
    1.5056    2.9267    0.0000 C   0  0  0  0  0  0  0  0  0  0  0  0
    0.1679    1.9885    0.0000 O   0  0  0  0  0  0  0  0  0  0  0  0
   -1.0135    1.0642    0.0000 C   0  0  0  0  0  0  0  0  0  0  0  0
   -0.8036   -0.4211    0.0000 C   0  0  0  0  0  0  0  0  0  0  0  0
    0.5876   -0.9820    0.0000 C   0  0  0  0  0  0  0  0  0  0  0  0
    1.7689   -0.0576    0.0000 C   0  0  0  0  0  0  0  0  0  0  0  0
   -1.9850   -1.3455    0.0000 C   0  0  0  0  0  0  0  0  0  0  0  0
   -1.7751   -2.8307    0.0000 O   0  0  0  0  0  0  0  0  0  0  0  0
   -3.3761   -0.7846    0.0000 C   0  0  0  0  0  0  0  0  0  0  0  0
   -4.5575   -1.7089    0.0000 O   0  0  0  0  0  0  0  0  0  0  0  0
   -5.9487   -1.1480    0.0000 C   0  0  0  0  0  0  0  0  0  0  0  0
   -3.5860    0.7007    0.0000 C   0  0  0  0  0  0  0  0  0  0  0  0
   -2.4047    1.6250    0.0000 C   0  0  0  0  0  0  0  0  0  0  0  0
   -2.6145    3.1103    0.0000 O   0  0  0  0  0  0  0  0  0  0  0  0
  1  2  2  0
  2  3  1  0
  4  2  1  1
  4  5  1  0
  5  6  1  0
  6  7  1  0
  7  8  1  1
  7  9  1  0
  9 10  1  0
 10 11  2  0
 11 12  1  0
 13 12  1  6
 11 14  1  0
 14 15  2  0
 14 16  1  0
 16 17  1  0
 17 18  1  0
 16 19  1  0
 19 20  1  0
 20 21  1  0
 13  4  1  0
 13  7  1  0
 20 10  1  0
M  END
>  <identifier>  (838) 
CNP0130402.2

>  <canonical_smiles>  (838) 
C=C(C)[C@@H]1CC[C@@]2(C)OC3=C(C[C@@H]12)C(=O)C(OC)CC3O

>  <standard_inchi>  (838) 
InChI=1S/C17H24O4/c1-9(2)10-5-6-17(3)12(10)7-11-15(19)14(20-4)8-13(18)16(11)21-17/h10,12-14,18H,1,5-8H2,2-4H3/t10-,12-,13?,14?,17+/m0/s1

>  <standard_inchi_key>  (838) 
HIYHCUOXLSUVIZ-AHGUWTQQSA-N

>  <name>  (838) 
nan

>  <iupac_name>  (838) 
(1~{R},3~{a}~{R},9~{a}~{S})-5-hydroxy-1-isopropenyl-7-methoxy-3~{a}-methyl-1,2,3,5,6,7,9,9~{a}-octahydrocyclopenta[b]chromen-8-one

>  <annotation_level>  (838) 
4

>  <total_atom_count>  (838) 
45

>  <heavy_atom_count>  (838) 
21

>  <molecular_weight>  (838) 
292.38

>  <exact_molecular_weight>  (838) 
292.16746

>  <molecular_formula>  (838) 
C17H24O4

>  <alogp>  (838) 
2.37

>  <topological_polar_surface_area>  (838) 
55.76

>  <rotatable_bond_count>  (838) 
2

>  <hydrogen_bond_acceptors>  (838) 
4

>  <hydrogen_bond_donors>  (838) 
1

>  <hydrogen_bond_acceptors_lipinski>  (838) 
4

>  <hydrogen_bond_donors_lipinski>  (838) 
1

>  <lipinski_rule_of_five_violations>  (838) 
0

>  <aromatic_rings_count>  (838) 
0

>  <qed_drug_likeliness>  (838) 
0.79

>  <formal_charge>  (838) 
0

>  <fractioncsp3>  (838) 
0.71

>  <number_of_minimal_rings>  (838) 
3

>  <van_der_walls_volume>  (838) 
nan

>  <contains_sugar>  (838) 
False

>  <contains_ring_sugars>  (838) 
False

>  <contains_linear_sugars>  (838) 
False

>  <murcko_framework>  (838) 
O1C2=C(CCCC2)CC3CCCC13

>  <np_likeness>  (838) 
3.40

>  <chemical_class>  (838) 
Organooxygen compounds

>  <chemical_sub_class>  (838) 
Carbonyl compounds

>  <chemical_super_class>  (838) 
Organic oxygen compounds

>  <direct_parent_classification>  (838) 
Cyclohexenones

>  <np_classifier_pathway>  (838) 
Terpenoids

>  <np_classifier_superclass>  (838) 
Meroterpenoids

>  <np_classifier_class>  (838) 
Miscellaneous meroterpenoids

>  <np_classifier_is_glycoside>  (838) 
False

>  <organisms>  (838) 
Guignardia mangiferae|Phyllosticta capitalensis

>  <collections>  (838) 
Latin America dataset|NuBBEDB|WikiData Natural Products

>  <dois>  (838) 
10.1016/J.PHYTOL.2012.05.004|10.1016/j.phytol.2012.05.004

>  <synonyms>  (838) 
tricycloalternarene F

>  <cas>  (838) 
nan

$$$$

     RDKit          2D

  9  8  0  0  0  0  0  0  0  0999 V2000
   -5.1962   -0.3333    0.0000 C   0  0  0  0  0  0  0  0  0  0  0  0
   -3.8971    0.4167    0.0000 C   0  0  0  0  0  0  0  0  0  0  0  0
   -2.5981   -0.3333    0.0000 C   0  0  0  0  0  0  0  0  0  0  0  0
   -1.2990    0.4167    0.0000 S   0  0  0  0  0  0  0  0  0  0  0  0
    0.0000   -0.3333    0.0000 S   0  0  0  0  0  0  0  0  0  0  0  0
    1.2990    0.4167    0.0000 S   0  0  0  0  0  0  0  0  0  0  0  0
    2.5981   -0.3333    0.0000 C   0  0  0  0  0  0  0  0  0  0  0  0
    3.8971    0.4167    0.0000 C   0  0  0  0  0  0  0  0  0  0  0  0
    5.1962   -0.3333    0.0000 C   0  0  0  0  0  0  0  0  0  0  0  0
  1  2  2  0
  2  3  1  0
  3  4  1  0
  4  5  1  0
  5  6  1  0
  6  7  1  0
  7  8  1  0
  8  9  2  0
M  END
>  <identifier>  (839) 
CNP0285098.0

>  <canonical_smiles>  (839) 
C=CCSSSCC=C

>  <standard_inchi>  (839) 
InChI=1S/C6H10S3/c1-3-5-7-9-8-6-4-2/h3-4H,1-2,5-6H2

>  <standard_inchi_key>  (839) 
UBAXRAHSPKWNCX-UHFFFAOYSA-N

>  <name>  (839) 
Diallyl trisulfide

>  <iupac_name>  (839) 
3-(allyltrisulfanyl)prop-1-ene

>  <annotation_level>  (839) 
5

>  <total_atom_count>  (839) 
19

>  <heavy_atom_count>  (839) 
9

>  <molecular_weight>  (839) 
178.35

>  <exact_molecular_weight>  (839) 
177.99446

>  <molecular_formula>  (839) 
C6H10S3

>  <alogp>  (839) 
3.39

>  <topological_polar_surface_area>  (839) 
0.00

>  <rotatable_bond_count>  (839) 
6

>  <hydrogen_bond_acceptors>  (839) 
3

>  <hydrogen_bond_donors>  (839) 
0

>  <hydrogen_bond_acceptors_lipinski>  (839) 
3

>  <hydrogen_bond_donors_lipinski>  (839) 
0

>  <lipinski_rule_of_five_violations>  (839) 
0

>  <aromatic_rings_count>  (839) 
0

>  <qed_drug_likeliness>  (839) 
0.35

>  <formal_charge>  (839) 
0

>  <fractioncsp3>  (839) 
0.33

>  <number_of_minimal_rings>  (839) 
0

>  <van_der_walls_volume>  (839) 
157.00

>  <contains_sugar>  (839) 
False

>  <contains_ring_sugars>  (839) 
False

>  <contains_linear_sugars>  (839) 
False

>  <murcko_framework>  (839) 
nan

>  <np_likeness>  (839) 
1.20

>  <chemical_class>  (839) 
Organic trisulfides

>  <chemical_sub_class>  (839) 
Organic trisulfides

>  <chemical_super_class>  (839) 
Organosulfur compounds

>  <direct_parent_classification>  (839) 
Organic trisulfides

>  <np_classifier_pathway>  (839) 
nan

>  <np_classifier_superclass>  (839) 
nan

>  <np_classifier_class>  (839) 
nan

>  <np_classifier_is_glycoside>  (839) 
False

>  <organisms>  (839) 
Adenocalymma alliaceum|Allium|Allium Sativum|Allium chinense|Allium ericetorum|Allium macrochaetum|Allium macrostemon|Allium odorum|Allium ramosum|Allium sativum|Allium sativum L.|Allium ursinum|Allium ursinum L.|Allium victorialis|Aniba megaphylla|Berberis integerrima|Elephantopus angustifolius|Herbertus sakuraii|Isoplexis sceptrum|Libocedrus decurrens|Loranthus parasiticus|Mansoa alliacea|Nauclea latifolia|Ovibos moschatus|Rhodospirillum rubrum|garlic

>  <collections>  (839) 
CMAUP (cCollective molecular activities of useful plants)|ETM (Ethiopian Traditional Medicine) DB|FooDB|HIM (Herbal Ingredients in-vivo Metabolism database)|Latin America dataset|NPACT|NPASS|NPCARE|NuBBEDB|PeruNPDB|Super Natural II|TCMDB-Taiwan (Traditional Chinese Medicine database)|TCMID (Traditional Chinese Medicine Integrated Database)|TPPT (Toxic Plants–PhytoToxins)|UNPD (Universal Natural Products Database)|VietHerb|WikiData Natural Products|ZINC NP

>  <dois>  (839) 
10.1002/PTR.2650020310|10.1002/TOX.20737|10.1002/biuz.19840140514|10.1002/mnfr.200700072|10.1007/S11101-013-9295-3|10.1016/0021-9673(94)80162-2|10.1016/0049-3848(83)90027-0|10.1016/S0021-9673(00)91342-6|10.1016/S0944-7113(00)80010-0|10.1016/j.bse.2003.10.001|10.1016/j.chroma.2005.12.016|10.1021/JF00025A008|10.1021/JF00059A033|10.1021/JF00125A014|10.1021/JF9803076|10.1021/NP0503350|10.1021/jf00024a017|10.1021/jf00125a014|10.1021/jf0504768|10.1021/np3005248|10.1055/S-2006-961517|10.1055/S-2007-969089|10.1080/01635589709514617|10.1080/10412905.1997.9700732|10.1099/0022-1317-50-7-646|10.1186/1756-3305-7-184|10.1271/BBB.61.1482|10.3390/mol2net-03-04617|10.3748/WJG.V11.I35.5433|10.4161/CBT.8.22.9882

>  <synonyms>  (839) 
(CH2=CHCH2S)2S|0-01-00-00441 (Beilstein Handbook Reference)|0ZO1U5A3XX|1,3-Diallyltrisulfane|2050-87-5|3-(allyltrisulfanyl)prop-1-ene|3-(prop-2-enyltrisulfanyl)prop-1-ene|4,5,6-Trithia-1,8-nonadiene|8008-99-9|A814621|AI3-35127|AKOS006282485|ALLITRIDE|ALLYL TRISULFIDE|AS-75640|Allitridin|Allyl trisulfide, 8CI|BDBM50318454|BRN 1745734|CAS-2050-87-5|CCG-230978|CCRIS 3251|CHEBI:78492|CHEMBL123040|CS-0064491|DB-003624|DIALLYL TRISULFIDE [MI]|DIALLYL TRISULFIDE [WHO-DD]|DTXCID7025972|DTXSID9045972|Dasuansu|Di-2-propenyl trisulfide|Diallyl Trisulfide (80%)|Diallyl Trisulfide (80per cent)|Diallyl trisulfide, >=97% (HPLC)|Diallyl trisulphide|Diallyltrisulfide|EINECS 218-107-8|FEMA 3265|FEMA No. 3265|HY-117235|NCGC00095290-01|NS00021054|NSC651936|Prop-2-enyl prop-2-enylthio disulfide|Q-100252|Q17148332|SCHEMBL562845|SPECTRUM1505014|Tox21_111500|Trisulfide, di-2-propenyl|Trisulfide, di-2-propenyl (9CI)|UNII-0ZO1U5A3XX|allitridum|bis(prop-2-en-1-yl)trisulfane|diallyltrisulfane

>  <cas>  (839) 
2050-87-5|8008-99-9

$$$$

     RDKit          2D

 10 10  0  0  0  0  0  0  0  0999 V2000
    3.4380    0.2480    0.0000 C   0  0  0  0  0  0  0  0  0  0  0  0
    2.0536    0.8254    0.0000 C   0  0  0  0  0  0  0  0  0  0  0  0
    0.8613   -0.0849    0.0000 C   0  0  0  0  0  0  0  0  0  0  0  0
    1.9648   -1.1010    0.0000 O   0  0  0  0  0  0  0  0  0  0  0  0
    0.0523   -1.3480    0.0000 C   0  0  0  0  0  0  0  0  0  0  0  0
   -1.4461   -1.2789    0.0000 C   0  0  0  0  0  0  0  0  0  0  0  0
   -2.1355    0.0533    0.0000 C   0  0  0  0  0  0  0  0  0  0  0  0
   -3.6339    0.1224    0.0000 O   0  0  0  0  0  0  0  0  0  0  0  0
   -1.3265    1.3164    0.0000 C   0  0  0  0  0  0  0  0  0  0  0  0
    0.1720    1.2473    0.0000 C   0  0  0  0  0  0  0  0  0  0  0  0
  1  2  1  0
  2  3  1  0
  3  4  1  0
  3  5  1  0
  5  6  1  0
  6  7  1  0
  7  8  2  0
  7  9  1  0
  9 10  1  0
 10  3  1  0
M  END
>  <identifier>  (840) 
CNP0380589.0

>  <canonical_smiles>  (840) 
CCC1(O)CCC(=O)CC1

>  <standard_inchi>  (840) 
InChI=1S/C8H14O2/c1-2-8(10)5-3-7(9)4-6-8/h10H,2-6H2,1H3

>  <standard_inchi_key>  (840) 
DTEDYTYLWQAGIX-UHFFFAOYSA-N

>  <name>  (840) 
4-ethyl-4-hydroxycyclohexan-1-one

>  <iupac_name>  (840) 
4-ethyl-4-hydroxy-cyclohexanone

>  <annotation_level>  (840) 
5

>  <total_atom_count>  (840) 
24

>  <heavy_atom_count>  (840) 
10

>  <molecular_weight>  (840) 
142.2

>  <exact_molecular_weight>  (840) 
142.09938

>  <molecular_formula>  (840) 
C8H14O2

>  <alogp>  (840) 
1.27

>  <topological_polar_surface_area>  (840) 
37.30

>  <rotatable_bond_count>  (840) 
1

>  <hydrogen_bond_acceptors>  (840) 
2

>  <hydrogen_bond_donors>  (840) 
1

>  <hydrogen_bond_acceptors_lipinski>  (840) 
2

>  <hydrogen_bond_donors_lipinski>  (840) 
1

>  <lipinski_rule_of_five_violations>  (840) 
0

>  <aromatic_rings_count>  (840) 
0

>  <qed_drug_likeliness>  (840) 
0.60

>  <formal_charge>  (840) 
0

>  <fractioncsp3>  (840) 
0.88

>  <number_of_minimal_rings>  (840) 
1

>  <van_der_walls_volume>  (840) 
144.82

>  <contains_sugar>  (840) 
False

>  <contains_ring_sugars>  (840) 
False

>  <contains_linear_sugars>  (840) 
False

>  <murcko_framework>  (840) 
C1CCCCC1

>  <np_likeness>  (840) 
1.51

>  <chemical_class>  (840) 
Organooxygen compounds

>  <chemical_sub_class>  (840) 
Alcohols and polyols

>  <chemical_super_class>  (840) 
Organic oxygen compounds

>  <direct_parent_classification>  (840) 
Tertiary alcohols

>  <np_classifier_pathway>  (840) 
nan

>  <np_classifier_superclass>  (840) 
nan

>  <np_classifier_class>  (840) 
nan

>  <np_classifier_is_glycoside>  (840) 
False

>  <organisms>  (840) 
Xylaria|Xylaria sp.

>  <collections>  (840) 
ChemSpider NPs|Latin America dataset|NuBBEDB|WikiData Natural Products|ZINC NP

>  <dois>  (840) 
10.1016/J.TETASY.2009.11.001|10.1016/j.tetasy.2009.11.001

>  <synonyms>  (840) 
4-Ethyl-4-hydroxycyclohexanone|AKOS014313025|SCHEMBL10121025

>  <cas>  (840) 
nan

$$$$

     RDKit          2D

 39 43  0  0  0  0  0  0  0  0999 V2000
    3.9189   -4.1771    0.0000 C   0  0  0  0  0  0  0  0  0  0  0  0
    4.8045   -2.9664    0.0000 O   0  0  0  0  0  0  0  0  0  0  0  0
    4.1988   -1.5942    0.0000 C   0  0  0  0  0  0  0  0  0  0  0  0
    2.7076   -1.4325    0.0000 C   0  0  0  0  0  0  0  0  0  0  0  0
    2.1019   -0.0603    0.0000 C   0  0  0  0  0  0  0  0  0  0  0  0
    2.9875    1.1504    0.0000 C   0  0  0  0  0  0  0  0  0  0  0  0
    4.4788    0.9888    0.0000 C   0  0  0  0  0  0  0  0  0  0  0  0
    5.3643    2.1995    0.0000 O   0  0  0  0  0  0  0  0  0  0  0  0
    5.0844   -0.3835    0.0000 C   0  0  0  0  0  0  0  0  0  0  0  0
    6.5757   -0.5451    0.0000 O   0  0  0  0  0  0  0  0  0  0  0  0
    2.3818    2.5227    0.0000 C   0  0  0  0  0  0  0  0  0  0  0  0
    3.2674    3.7334    0.0000 O   0  0  0  0  0  0  0  0  0  0  0  0
    0.8905    2.6843    0.0000 C   0  0  0  0  0  0  0  0  0  0  0  0
    0.2849    4.0566    0.0000 O   0  0  0  0  0  0  0  0  0  0  0  0
    1.1705    5.2673    0.0000 C   0  0  0  0  0  0  0  0  0  0  0  0
    0.0049    1.4736    0.0000 C   0  0  0  0  0  0  0  0  0  0  0  0
   -1.4863    1.6352    0.0000 C   0  0  0  0  0  0  0  0  0  0  0  0
   -2.0920    3.0075    0.0000 C   0  0  0  0  0  0  0  0  0  0  0  0
   -3.5833    3.1691    0.0000 C   0  0  0  0  0  0  0  0  0  0  0  0
   -4.4689    1.9585    0.0000 C   0  0  0  0  0  0  0  0  0  0  0  0
   -5.9601    2.1201    0.0000 O   0  0  0  0  0  0  0  0  0  0  0  0
   -6.5658    3.4923    0.0000 C   0  0  0  0  0  0  0  0  0  0  0  0
   -3.8632    0.5862    0.0000 C   0  0  0  0  0  0  0  0  0  0  0  0
   -4.7488   -0.6245    0.0000 O   0  0  0  0  0  0  0  0  0  0  0  0
   -4.1431   -1.9968    0.0000 C   0  0  0  0  0  0  0  0  0  0  0  0
   -5.0287   -3.2075    0.0000 C   0  0  0  0  0  0  0  0  0  0  0  0
   -4.4230   -4.5797    0.0000 C   0  0  0  0  0  0  0  0  0  0  0  0
   -2.9317   -4.7413    0.0000 C   0  0  0  0  0  0  0  0  0  0  0  0
   -2.0461   -3.5307    0.0000 C   0  0  0  0  0  0  0  0  0  0  0  0
   -2.6518   -2.1584    0.0000 C   0  0  0  0  0  0  0  0  0  0  0  0
   -2.3719    0.4246    0.0000 C   0  0  0  0  0  0  0  0  0  0  0  0
   -1.7662   -0.9477    0.0000 O   0  0  0  0  0  0  0  0  0  0  0  0
   -0.2750   -1.1093    0.0000 C   0  0  0  0  0  0  0  0  0  0  0  0
    0.6106    0.1013    0.0000 C   0  0  0  0  0  0  0  0  0  0  0  0
    2.1019   -0.0603    0.0000 C   0  0  0  0  0  0  0  0  0  0  0  0
    2.7076   -1.4325    0.0000 C   0  0  0  0  0  0  0  0  0  0  0  0
    1.8220   -2.6432    0.0000 C   0  0  0  0  0  0  0  0  0  0  0  0
    0.3307   -2.4816    0.0000 C   0  0  0  0  0  0  0  0  0  0  0  0
    0.6106    0.1013    0.0000 O   0  0  0  0  0  0  0  0  0  0  0  0
  1  2  1  0
  2  3  1  0
  3  4  2  0
  4  5  1  0
  5  6  2  0
  6  7  1  0
  7  8  1  0
  7  9  2  0
  9 10  1  0
  6 11  1  0
 11 12  2  0
 11 13  1  0
 13 14  1  0
 14 15  1  0
 13 16  2  0
 16 17  1  0
 17 18  2  0
 18 19  1  0
 19 20  2  0
 20 21  1  0
 21 22  1  0
 20 23  1  0
 23 24  1  0
 24 25  1  0
 25 26  2  0
 26 27  1  0
 27 28  2  0
 28 29  1  0
 29 30  2  0
 23 31  2  0
 31 32  1  0
 32 33  1  0
 33 34  2  0
 34 35  1  0
 35 36  2  0
 36 37  1  0
 37 38  2  0
 16 39  1  0
  9  3  1  0
 31 17  1  0
 38 33  1  0
 39  5  1  0
 30 25  1  0
M  END
>  <identifier>  (841) 
CNP0080416.0

>  <canonical_smiles>  (841) 
COC1=CC2=C(C(O)=C1O)C(=O)C(OC)=C(C1=CC=C(OC)C(OC3=CC=CC=C3)=C1OC1=CC=CC=C1)O2

>  <standard_inchi>  (841) 
InChI=1S/C30H24O9/c1-34-20-15-14-19(27(37-17-10-6-4-7-11-17)29(20)38-18-12-8-5-9-13-18)28-30(36-3)26(33)23-21(39-28)16-22(35-2)24(31)25(23)32/h4-16,31-32H,1-3H3

>  <standard_inchi_key>  (841) 
WRHQPCDFYGLRII-UHFFFAOYSA-N

>  <name>  (841) 
nan

>  <iupac_name>  (841) 
5,6-dihydroxy-3,7-dimethoxy-2-(4-methoxy-2,3-diphenoxy-phenyl)chromen-4-one

>  <annotation_level>  (841) 
4

>  <total_atom_count>  (841) 
63

>  <heavy_atom_count>  (841) 
39

>  <molecular_weight>  (841) 
528.51

>  <exact_molecular_weight>  (841) 
528.14203

>  <molecular_formula>  (841) 
C30H24O9

>  <alogp>  (841) 
6.48

>  <topological_polar_surface_area>  (841) 
116.82

>  <rotatable_bond_count>  (841) 
8

>  <hydrogen_bond_acceptors>  (841) 
9

>  <hydrogen_bond_donors>  (841) 
2

>  <hydrogen_bond_acceptors_lipinski>  (841) 
9

>  <hydrogen_bond_donors_lipinski>  (841) 
2

>  <lipinski_rule_of_five_violations>  (841) 
2

>  <aromatic_rings_count>  (841) 
5

>  <qed_drug_likeliness>  (841) 
0.22

>  <formal_charge>  (841) 
0

>  <fractioncsp3>  (841) 
0.10

>  <number_of_minimal_rings>  (841) 
5

>  <van_der_walls_volume>  (841) 
nan

>  <contains_sugar>  (841) 
False

>  <contains_ring_sugars>  (841) 
False

>  <contains_linear_sugars>  (841) 
False

>  <murcko_framework>  (841) 
O(c1ccccc1)c2cccc(C=3Oc4ccccc4CC3)c2Oc5ccccc5

>  <np_likeness>  (841) 
0.75

>  <chemical_class>  (841) 
Flavonoids

>  <chemical_sub_class>  (841) 
O-methylated flavonoids

>  <chemical_super_class>  (841) 
Phenylpropanoids and polyketides

>  <direct_parent_classification>  (841) 
3-O-methylated flavonoids

>  <np_classifier_pathway>  (841) 
Shikimates and Phenylpropanoids

>  <np_classifier_superclass>  (841) 
Flavonoids

>  <np_classifier_class>  (841) 
Flavonols

>  <np_classifier_is_glycoside>  (841) 
False

>  <organisms>  (841) 
Apuleia leiocarpa

>  <collections>  (841) 
Latin America dataset|NuBBEDB|WikiData Natural Products|ZINC NP

>  <dois>  (841) 
10.1016/S0031-9422(00)89891-X

>  <synonyms>  (841) 
2'3'-O-Diphenylmethylapuleisin

>  <cas>  (841) 
nan

$$$$

     RDKit          2D

 27 30  0  0  0  0  0  0  0  0999 V2000
    2.6535    4.3092    0.0000 C   0  0  0  0  0  0  0  0  0  0  0  0
    2.6706    2.8093    0.0000 C   0  0  0  0  0  0  0  0  0  0  0  0
    1.3801    2.0446    0.0000 C   0  0  0  0  0  0  0  0  0  0  0  0
    1.3972    0.5447    0.0000 C   0  0  0  0  0  0  0  0  0  0  0  0
    2.7605    1.1703    0.0000 C   0  0  0  0  0  0  0  0  0  0  0  0
    3.9840    0.3025    0.0000 C   0  0  0  0  0  0  0  0  0  0  0  0
    5.3472    0.9282    0.0000 O   0  0  0  0  0  0  0  0  0  0  0  0
    6.5707    0.0604    0.0000 C   0  0  0  0  0  0  0  0  0  0  0  0
    3.8441   -1.1909    0.0000 C   0  0  0  0  0  0  0  0  0  0  0  0
    5.0676   -2.0588    0.0000 O   0  0  0  0  0  0  0  0  0  0  0  0
    2.4809   -1.8166    0.0000 C   0  0  0  0  0  0  0  0  0  0  0  0
    2.3410   -3.3101    0.0000 O   0  0  0  0  0  0  0  0  0  0  0  0
    3.5645   -4.1779    0.0000 C   0  0  0  0  0  0  0  0  0  0  0  0
    1.2574   -0.9488    0.0000 C   0  0  0  0  0  0  0  0  0  0  0  0
   -0.2062   -1.2773    0.0000 O   0  0  0  0  0  0  0  0  0  0  0  0
   -0.9709    0.0131    0.0000 C   0  0  0  0  0  0  0  0  0  0  0  0
   -2.4644    0.1529    0.0000 C   0  0  0  0  0  0  0  0  0  0  0  0
   -3.0901    1.5162    0.0000 C   0  0  0  0  0  0  0  0  0  0  0  0
   -4.5835    1.6560    0.0000 C   0  0  0  0  0  0  0  0  0  0  0  0
   -5.4513    0.4325    0.0000 C   0  0  0  0  0  0  0  0  0  0  0  0
   -6.9412    0.2588    0.0000 O   0  0  0  0  0  0  0  0  0  0  0  0
   -7.2364   -1.2119    0.0000 C   0  0  0  0  0  0  0  0  0  0  0  0
   -5.9289   -1.9471    0.0000 O   0  0  0  0  0  0  0  0  0  0  0  0
   -4.8257   -0.9308    0.0000 C   0  0  0  0  0  0  0  0  0  0  0  0
   -3.3322   -1.0706    0.0000 C   0  0  0  0  0  0  0  0  0  0  0  0
    0.0200    1.1392    0.0000 C   0  0  0  0  0  0  0  0  0  0  0  0
   -0.3085    2.6027    0.0000 C   0  0  0  0  0  0  0  0  0  0  0  0
  1  2  2  0
  2  3  1  0
  4  3  1  6
  4  5  1  0
  5  6  1  0
  6  7  1  1
  7  8  1  0
  6  9  1  0
  9 10  2  0
  9 11  1  0
 11 12  1  0
 12 13  1  0
 11 14  2  0
 14 15  1  0
 15 16  1  0
 16 17  1  1
 17 18  2  0
 18 19  1  0
 19 20  2  0
 20 21  1  0
 21 22  1  0
 22 23  1  0
 23 24  1  0
 24 25  2  0
 16 26  1  0
 26 27  1  1
 14  4  1  0
 25 17  1  0
 26  4  1  0
 24 20  1  0
M  END
>  <identifier>  (842) 
CNP0263795.4

>  <canonical_smiles>  (842) 
C=CC[C@]12C[C@@H](OC)C(=O)C(OC)=C1O[C@@H](C1=CC=C3OCOC3=C1)[C@H]2C

>  <standard_inchi>  (842) 
InChI=1S/C21H24O6/c1-5-8-21-10-16(23-3)17(22)19(24-4)20(21)27-18(12(21)2)13-6-7-14-15(9-13)26-11-25-14/h5-7,9,12,16,18H,1,8,10-11H2,2-4H3/t12-,16-,18-,21-/m1/s1

>  <standard_inchi_key>  (842) 
SSPDVRMNHFFRCE-BZVIESNCSA-N

>  <name>  (842) 
nan

>  <iupac_name>  (842) 
(2~{R},3~{S},3~{a}~{R},5~{R})-3~{a}-allyl-2-(1,3-benzodioxol-5-yl)-5,7-dimethoxy-3-methyl-2,3,4,5-tetrahydrobenzofuran-6-one

>  <annotation_level>  (842) 
4

>  <total_atom_count>  (842) 
51

>  <heavy_atom_count>  (842) 
27

>  <molecular_weight>  (842) 
372.42

>  <exact_molecular_weight>  (842) 
372.15729

>  <molecular_formula>  (842) 
C21H24O6

>  <alogp>  (842) 
3.53

>  <topological_polar_surface_area>  (842) 
63.22

>  <rotatable_bond_count>  (842) 
5

>  <hydrogen_bond_acceptors>  (842) 
6

>  <hydrogen_bond_donors>  (842) 
0

>  <hydrogen_bond_acceptors_lipinski>  (842) 
6

>  <hydrogen_bond_donors_lipinski>  (842) 
0

>  <lipinski_rule_of_five_violations>  (842) 
0

>  <aromatic_rings_count>  (842) 
1

>  <qed_drug_likeliness>  (842) 
0.74

>  <formal_charge>  (842) 
0

>  <fractioncsp3>  (842) 
0.48

>  <number_of_minimal_rings>  (842) 
4

>  <van_der_walls_volume>  (842) 
nan

>  <contains_sugar>  (842) 
False

>  <contains_ring_sugars>  (842) 
False

>  <contains_linear_sugars>  (842) 
False

>  <murcko_framework>  (842) 
O1c2ccc(cc2OC1)C3OC4=CCCCC4C3

>  <np_likeness>  (842) 
2.20

>  <chemical_class>  (842) 
Benzodioxoles

>  <chemical_sub_class>  (842) 
Benzodioxoles

>  <chemical_super_class>  (842) 
Organoheterocyclic compounds

>  <direct_parent_classification>  (842) 
Benzodioxoles

>  <np_classifier_pathway>  (842) 
Shikimates and Phenylpropanoids

>  <np_classifier_superclass>  (842) 
Lignans

>  <np_classifier_class>  (842) 
Neolignans

>  <np_classifier_is_glycoside>  (842) 
False

>  <organisms>  (842) 
Ocotea catharinensis

>  <collections>  (842) 
Latin America dataset|NuBBEDB|Super Natural II|WikiData Natural Products|ZINC NP

>  <dois>  (842) 
10.1016/0031-9422(91)83479-5|10.1016/S0031-9422(97)00343-9

>  <synonyms>  (842) 
(7R8S1'R3'R)-D5'8'-343'5'-Tetramethoxy-4'-oxo-8.1'7.O.6'-neolignan

>  <cas>  (842) 
nan

$$$$

     RDKit          2D

 20 23  0  0  0  0  0  0  0  0999 V2000
   -0.8038    3.6643    0.0000 C   0  0  0  0  0  0  0  0  0  0  0  0
   -0.7561    2.1650    0.0000 C   0  0  0  0  0  0  0  0  0  0  0  0
    0.5661    1.4566    0.0000 C   0  0  0  0  0  0  0  0  0  0  0  0
    0.6137   -0.0426    0.0000 C   0  0  0  0  0  0  0  0  0  0  0  0
    2.0542   -0.4606    0.0000 C   0  0  0  0  0  0  0  0  0  0  0  0
    2.7075   -1.8109    0.0000 C   0  0  0  0  0  0  0  0  0  0  0  0
    4.2036   -1.9202    0.0000 C   0  0  0  0  0  0  0  0  0  0  0  0
    5.0463   -0.6793    0.0000 C   0  0  0  0  0  0  0  0  0  0  0  0
    4.3930    0.6709    0.0000 C   0  0  0  0  0  0  0  0  0  0  0  0
    2.8970    0.7803    0.0000 C   0  0  0  0  0  0  0  0  0  0  0  0
    1.9772    1.9652    0.0000 N   0  0  0  0  0  0  0  0  0  0  0  0
   -0.6609   -0.8335    0.0000 C   0  0  0  0  0  0  0  0  0  0  0  0
   -1.9831   -0.1251    0.0000 C   0  0  0  0  0  0  0  0  0  0  0  0
   -3.2577   -0.9160    0.0000 C   0  0  0  0  0  0  0  0  0  0  0  0
   -4.5799   -0.2076    0.0000 C   0  0  0  0  0  0  0  0  0  0  0  0
   -2.0307    1.3741    0.0000 C   0  0  0  0  0  0  0  0  0  0  0  0
   -3.3053    0.5833    0.0000 C   0  0  0  0  0  0  0  0  0  0  0  0
   -3.2577   -0.9160    0.0000 C   0  0  0  0  0  0  0  0  0  0  0  0
   -1.9355   -1.6243    0.0000 N   0  0  0  0  0  0  0  0  0  0  0  0
   -1.8879   -3.1236    0.0000 C   0  0  0  0  0  0  0  0  0  0  0  0
  1  2  2  0
  2  3  1  0
  3  4  2  0
  4  5  1  0
  5  6  2  0
  6  7  1  0
  7  8  2  0
  8  9  1  0
  9 10  2  0
 10 11  1  0
  4 12  1  0
 12 13  1  0
 13 14  1  6
 14 15  1  0
 13 16  1  0
 16 17  1  6
 17 18  1  0
 18 19  1  0
 19 20  1  0
 16  2  1  0
 11  3  1  0
 12 19  1  1
 10  5  1  0
M  END
>  <identifier>  (843) 
CNP0169624.3

>  <canonical_smiles>  (843) 
C=C1C2=C(C3=CC=CC=C3N2)[C@@H]2[C@H](CC)[C@@H]1CCN2C

>  <standard_inchi>  (843) 
InChI=1S/C18H22N2/c1-4-12-13-9-10-20(3)18(12)16-14-7-5-6-8-15(14)19-17(16)11(13)2/h5-8,12-13,18-19H,2,4,9-10H2,1,3H3/t12-,13-,18+/m1/s1

>  <standard_inchi_key>  (843) 
MFFIRXGJJPPAMA-VFVRVIDISA-N

>  <name>  (843) 
nan

>  <iupac_name>  (843) 
(1~{S},12~{S},16~{R})-16-ethyl-15-methyl-11-methylene-9,15-diazatetracyclo[10.3.1.0^{2,10}.0^{3,8}]hexadeca-2(10),3,5,7-tetraene

>  <annotation_level>  (843) 
4

>  <total_atom_count>  (843) 
42

>  <heavy_atom_count>  (843) 
20

>  <molecular_weight>  (843) 
266.39

>  <exact_molecular_weight>  (843) 
266.1783

>  <molecular_formula>  (843) 
C18H22N2

>  <alogp>  (843) 
4.21

>  <topological_polar_surface_area>  (843) 
19.03

>  <rotatable_bond_count>  (843) 
1

>  <hydrogen_bond_acceptors>  (843) 
1

>  <hydrogen_bond_donors>  (843) 
1

>  <hydrogen_bond_acceptors_lipinski>  (843) 
1

>  <hydrogen_bond_donors_lipinski>  (843) 
1

>  <lipinski_rule_of_five_violations>  (843) 
0

>  <aromatic_rings_count>  (843) 
2

>  <qed_drug_likeliness>  (843) 
0.82

>  <formal_charge>  (843) 
0

>  <fractioncsp3>  (843) 
0.44

>  <number_of_minimal_rings>  (843) 
4

>  <van_der_walls_volume>  (843) 
nan

>  <contains_sugar>  (843) 
False

>  <contains_ring_sugars>  (843) 
False

>  <contains_linear_sugars>  (843) 
False

>  <murcko_framework>  (843) 
c1ccc2c(c1)[nH]c3c2C4NCCC(C3)C4

>  <np_likeness>  (843) 
0.77

>  <chemical_class>  (843) 
Indoles and derivatives

>  <chemical_sub_class>  (843) 
Carbazoles

>  <chemical_super_class>  (843) 
Organoheterocyclic compounds

>  <direct_parent_classification>  (843) 
Carbazoles

>  <np_classifier_pathway>  (843) 
Alkaloids

>  <np_classifier_superclass>  (843) 
Tryptophan alkaloids

>  <np_classifier_class>  (843) 
Corynanthe type

>  <np_classifier_is_glycoside>  (843) 
False

>  <organisms>  (843) 
Aspidosperma formosanum

>  <collections>  (843) 
Latin America dataset|NuBBEDB|WikiData Natural Products

>  <dois>  (843) 
10.1016/S0031-9422(00)84426-X

>  <synonyms>  (843) 
Uleine

>  <cas>  (843) 
nan

$$$$

     RDKit          2D

 35 41  0  0  0  0  0  0  0  0999 V2000
    3.6937    0.8075    0.0000 C   0  0  0  0  0  0  0  0  0  0  0  0
    2.6622   -0.2815    0.0000 C   0  0  0  0  0  0  0  0  0  0  0  0
    4.0766   -0.7809    0.0000 C   0  0  0  0  0  0  0  0  0  0  0  0
    5.3120    0.0699    0.0000 C   0  0  0  0  0  0  0  0  0  0  0  0
    5.3499    1.5694    0.0000 C   0  0  0  0  0  0  0  0  0  0  0  0
    6.7877    1.9968    0.0000 O   0  0  0  0  0  0  0  0  0  0  0  0
    7.6385    0.7614    0.0000 C   0  0  0  0  0  0  0  0  0  0  0  0
    6.7264   -0.4295    0.0000 C   0  0  0  0  0  0  0  0  0  0  0  0
    4.0388   -2.2804    0.0000 C   0  0  0  0  0  0  0  0  0  0  0  0
    2.6009   -2.7078    0.0000 C   0  0  0  0  0  0  0  0  0  0  0  0
    1.1057   -2.8268    0.0000 O   0  0  0  0  0  0  0  0  0  0  0  0
    1.7502   -1.4724    0.0000 C   0  0  0  0  0  0  0  0  0  0  0  0
    0.2628   -1.2779    0.0000 C   0  0  0  0  0  0  0  0  0  0  0  0
   -1.2013   -1.6040    0.0000 C   0  0  0  0  0  0  0  0  0  0  0  0
   -0.0349   -2.7481    0.0000 O   0  0  0  0  0  0  0  0  0  0  0  0
   -0.3125    0.1073    0.0000 C   0  0  0  0  0  0  0  0  0  0  0  0
    0.5995    1.2982    0.0000 C   0  0  0  0  0  0  0  0  0  0  0  0
   -0.2512    2.5336    0.0000 O   0  0  0  0  0  0  0  0  0  0  0  0
   -1.6891    2.1063    0.0000 C   0  0  0  0  0  0  0  0  0  0  0  0
   -2.9688    2.8888    0.0000 C   0  0  0  0  0  0  0  0  0  0  0  0
   -4.2863    2.1718    0.0000 C   0  0  0  0  0  0  0  0  0  0  0  0
   -5.5660    2.9544    0.0000 O   0  0  0  0  0  0  0  0  0  0  0  0
   -4.3242    0.6723    0.0000 C   0  0  0  0  0  0  0  0  0  0  0  0
   -5.6787    1.3168    0.0000 C   0  0  0  0  0  0  0  0  0  0  0  0
   -5.4639   -0.3029    0.0000 O   0  0  0  0  0  0  0  0  0  0  0  0
   -4.8886   -1.6882    0.0000 C   0  0  0  0  0  0  0  0  0  0  0  0
   -5.6711   -2.9679    0.0000 O   0  0  0  0  0  0  0  0  0  0  0  0
   -3.3933   -1.5691    0.0000 C   0  0  0  0  0  0  0  0  0  0  0  0
   -2.4181   -2.7088    0.0000 O   0  0  0  0  0  0  0  0  0  0  0  0
   -3.0445   -0.1102    0.0000 C   0  0  0  0  0  0  0  0  0  0  0  0
   -3.1636    1.3850    0.0000 O   0  0  0  0  0  0  0  0  0  0  0  0
   -1.7269    0.6067    0.0000 C   0  0  0  0  0  0  0  0  0  0  0  0
   -1.6078   -0.8885    0.0000 C   0  0  0  0  0  0  0  0  0  0  0  0
    2.0869    1.1038    0.0000 C   0  0  0  0  0  0  0  0  0  0  0  0
    2.9989    2.2947    0.0000 O   0  0  0  0  0  0  0  0  0  0  0  0
  2  1  1  6
  2  3  1  0
  3  4  1  6
  4  5  2  0
  5  6  1  0
  6  7  1  0
  7  8  2  0
  3  9  1  0
 10  9  1  1
 10 11  1  0
 12 11  1  1
 12 13  1  0
 13 14  1  1
 13 15  1  0
 13 16  1  0
 16 17  1  0
 17 18  1  6
 18 19  1  0
 19 20  1  6
 20 21  1  0
 21 22  2  0
 21 23  1  0
 23 24  1  6
 23 25  1  0
 25 26  1  0
 26 27  2  0
 26 28  1  0
 28 29  1  1
 28 30  1  0
 30 31  1  6
 30 32  1  0
 32 33  1  1
 17 34  1  0
 34 35  1  6
 12  2  1  0
 32 16  1  0
 34  2  1  0
  8  4  1  0
 12 10  1  0
 32 19  1  0
 30 23  1  0
M  END
>  <identifier>  (844) 
CNP0152843.2

>  <canonical_smiles>  (844) 
C[C@]12[C@H](C3=COC=C3)C[C@H]3O[C@]31[C@](C)(O)C1[C@H](O[C@H]3CC(=O)[C@]4(C)OC(=O)[C@H](O)[C@]4(O)[C@@]13C)[C@@H]2O

>  <standard_inchi>  (844) 
InChI=1S/C25H30O10/c1-20-11(10-5-6-32-9-10)7-14-25(20,34-14)22(3,30)16-15(17(20)27)33-13-8-12(26)23(4)24(31,21(13,16)2)18(28)19(29)35-23/h5-6,9,11,13-18,27-28,30-31H,7-8H2,1-4H3/t11-,13-,14+,15-,16?,17-,18-,20+,21+,22+,23-,24-,25+/m0/s1

>  <standard_inchi_key>  (844) 
OMQBBQBLEKPHLY-QJTZMQFLSA-N

>  <name>  (844) 
nan

>  <iupac_name>  (844) 
(2~{S},3~{R},4~{R},7~{R},10~{S},12~{S},13~{R},14~{R},15~{S},17~{R},19~{S},20~{R})-15-(3-furyl)-3,4,13,20-tetrahydroxy-2,7,14,20-tetramethyl-6,11,18-trioxahexacyclo[10.8.0.0^{2,10}.0^{3,7}.0^{14,19}.0^{17,19}]icosane-5,8-dione

>  <annotation_level>  (844) 
4

>  <total_atom_count>  (844) 
65

>  <heavy_atom_count>  (844) 
35

>  <molecular_weight>  (844) 
490.51

>  <exact_molecular_weight>  (844) 
490.1839

>  <molecular_formula>  (844) 
C25H30O10

>  <alogp>  (844) 
-0.19

>  <topological_polar_surface_area>  (844) 
159.19

>  <rotatable_bond_count>  (844) 
1

>  <hydrogen_bond_acceptors>  (844) 
10

>  <hydrogen_bond_donors>  (844) 
4

>  <hydrogen_bond_acceptors_lipinski>  (844) 
10

>  <hydrogen_bond_donors_lipinski>  (844) 
4

>  <lipinski_rule_of_five_violations>  (844) 
0

>  <aromatic_rings_count>  (844) 
1

>  <qed_drug_likeliness>  (844) 
0.31

>  <formal_charge>  (844) 
0

>  <fractioncsp3>  (844) 
0.76

>  <number_of_minimal_rings>  (844) 
7

>  <van_der_walls_volume>  (844) 
nan

>  <contains_sugar>  (844) 
False

>  <contains_ring_sugars>  (844) 
False

>  <contains_linear_sugars>  (844) 
False

>  <murcko_framework>  (844) 
o1ccc(c1)C2CC3OC43CC5C(OC6CCC7OCCC7C65)CC24

>  <np_likeness>  (844) 
2.71

>  <chemical_class>  (844) 
Organooxygen compounds

>  <chemical_sub_class>  (844) 
Carbohydrates and carbohydrate conjugates

>  <chemical_super_class>  (844) 
Organic oxygen compounds

>  <direct_parent_classification>  (844) 
Monosaccharides

>  <np_classifier_pathway>  (844) 
Terpenoids

>  <np_classifier_superclass>  (844) 
Triterpenoids

>  <np_classifier_class>  (844) 
Limonoids

>  <np_classifier_is_glycoside>  (844) 
False

>  <organisms>  (844) 
Toona ciliata

>  <collections>  (844) 
Latin America dataset|NuBBEDB

>  <dois>  (844) 
10.1016/S0031-9422(97)00872-8

>  <synonyms>  (844) 
5\u221a\u00e9\u00ac\u00b16\u221a\u00e9\u00ac\u22648\u221a\u00e9\u00ac\u00b112\u221a\u00e9\u00ac\u00b1-tetrahydroxy-28-norisotoonafolin

>  <cas>  (844) 
nan

$$$$

     RDKit          2D

 36 40  0  0  0  0  0  0  0  0999 V2000
   -5.2564   -3.1121    0.0000 C   0  0  0  0  0  0  0  0  0  0  0  0
   -5.4631   -1.6264    0.0000 C   0  0  0  0  0  0  0  0  0  0  0  0
   -6.8903   -2.0880    0.0000 C   0  0  0  0  0  0  0  0  0  0  0  0
   -6.1655   -0.3011    0.0000 C   0  0  0  0  0  0  0  0  0  0  0  0
   -5.3689    0.9699    0.0000 C   0  0  0  0  0  0  0  0  0  0  0  0
   -3.8699    0.9155    0.0000 C   0  0  0  0  0  0  0  0  0  0  0  0
   -4.5723    2.2409    0.0000 C   0  0  0  0  0  0  0  0  0  0  0  0
   -6.0713    2.2953    0.0000 O   0  0  0  0  0  0  0  0  0  0  0  0
   -3.7757    3.5119    0.0000 O   0  0  0  0  0  0  0  0  0  0  0  0
   -3.0733    2.1865    0.0000 C   0  0  0  0  0  0  0  0  0  0  0  0
   -1.5743    2.1322    0.0000 C   0  0  0  0  0  0  0  0  0  0  0  0
   -0.8719    0.8068    0.0000 C   0  0  0  0  0  0  0  0  0  0  0  0
   -0.1695   -0.5186    0.0000 C   0  0  0  0  0  0  0  0  0  0  0  0
   -1.6685   -0.4642    0.0000 C   0  0  0  0  0  0  0  0  0  0  0  0
   -0.9661   -1.7896    0.0000 C   0  0  0  0  0  0  0  0  0  0  0  0
    0.5329   -1.8440    0.0000 C   0  0  0  0  0  0  0  0  0  0  0  0
    1.3295   -0.5730    0.0000 C   0  0  0  0  0  0  0  0  0  0  0  0
    2.8286   -0.6273    0.0000 C   0  0  0  0  0  0  0  0  0  0  0  0
    2.0320   -1.8983    0.0000 C   0  0  0  0  0  0  0  0  0  0  0  0
    3.5310   -1.9527    0.0000 C   0  0  0  0  0  0  0  0  0  0  0  0
    5.0300   -2.0071    0.0000 C   0  0  0  0  0  0  0  0  0  0  0  0
    5.7324   -3.3325    0.0000 O   0  0  0  0  0  0  0  0  0  0  0  0
    5.8266   -0.7361    0.0000 C   0  0  0  0  0  0  0  0  0  0  0  0
    7.3256   -0.7905    0.0000 O   0  0  0  0  0  0  0  0  0  0  0  0
    5.1242    0.5893    0.0000 C   0  0  0  0  0  0  0  0  0  0  0  0
    4.9174    2.0750    0.0000 C   0  0  0  0  0  0  0  0  0  0  0  0
    6.5514    1.0509    0.0000 C   0  0  0  0  0  0  0  0  0  0  0  0
    6.8652    2.5177    0.0000 O   0  0  0  0  0  0  0  0  0  0  0  0
    3.6252    0.6437    0.0000 C   0  0  0  0  0  0  0  0  0  0  0  0
    2.9227    1.9690    0.0000 C   0  0  0  0  0  0  0  0  0  0  0  0
    1.4237    2.0234    0.0000 C   0  0  0  0  0  0  0  0  0  0  0  0
    0.6271    0.7524    0.0000 C   0  0  0  0  0  0  0  0  0  0  0  0
   -0.0753    2.0778    0.0000 C   0  0  0  0  0  0  0  0  0  0  0  0
   -3.1675   -0.4098    0.0000 C   0  0  0  0  0  0  0  0  0  0  0  0
   -3.9641   -1.6808    0.0000 C   0  0  0  0  0  0  0  0  0  0  0  0
   -3.2617   -3.0062    0.0000 O   0  0  0  0  0  0  0  0  0  0  0  0
  1  2  1  0
  2  3  1  0
  2  4  1  0
  4  5  1  0
  5  6  1  0
  6  7  1  1
  7  8  2  0
  7  9  1  0
  6 10  1  0
 10 11  1  0
 11 12  1  0
 12 13  1  6
 12 14  1  0
 14 15  2  0
 15 16  1  0
 17 16  1  1
 17 18  1  0
 18 19  1  1
 18 20  1  0
 20 21  1  0
 21 22  1  6
 21 23  1  0
 23 24  1  1
 23 25  1  0
 25 26  1  6
 25 27  1  0
 27 28  1  0
 25 29  1  0
 29 30  1  1
 30 31  1  0
 31 32  1  0
 32 33  1  1
 34 14  1  6
 34 35  1  0
 35 36  1  6
 35  2  1  0
 34  6  1  0
 32 12  1  0
 32 17  1  0
 29 18  1  0
M  END
>  <identifier>  (845) 
CNP0252493.2

>  <canonical_smiles>  (845) 
CC1(C)CC[C@]2(C(=O)O)CC[C@]3(C)C(=CC[C@@H]4[C@@]5(C)C[C@@H](O)[C@H](O)[C@](C)(CO)[C@@H]5CC[C@]43C)[C@@H]2[C@@H]1O

>  <standard_inchi>  (845) 
InChI=1S/C30H48O6/c1-25(2)11-13-30(24(35)36)14-12-28(5)17(21(30)23(25)34)7-8-20-26(3)15-18(32)22(33)27(4,16-31)19(26)9-10-29(20,28)6/h7,18-23,31-34H,8-16H2,1-6H3,(H,35,36)/t18-,19-,20-,21-,22+,23+,26+,27-,28-,29-,30+/m1/s1

>  <standard_inchi_key>  (845) 
IFIQVSCCFRXSJV-GOVAGAJPSA-N

>  <name>  (845) 
Sericic acid

>  <iupac_name>  (845) 
(1~{S},4~{a}~{R},6~{a}~{R},6~{a}~{S},6~{b}~{R},8~{a}~{R},9~{S},10~{R},11~{R},12~{a}~{R},14~{b}~{S})-1,10,11-trihydroxy-9-(hydroxymethyl)-2,2,6~{a},6~{b},9,12~{a}-hexamethyl-1,3,4,5,6,6~{a},7,8,8~{a},10,11,12,13,14~{b}-tetradecahydropicene-4~{a}-carboxylic acid

>  <annotation_level>  (845) 
5

>  <total_atom_count>  (845) 
84

>  <heavy_atom_count>  (845) 
36

>  <molecular_weight>  (845) 
504.71

>  <exact_molecular_weight>  (845) 
504.34509

>  <molecular_formula>  (845) 
C30H48O6

>  <alogp>  (845) 
4.15

>  <topological_polar_surface_area>  (845) 
118.22

>  <rotatable_bond_count>  (845) 
2

>  <hydrogen_bond_acceptors>  (845) 
5

>  <hydrogen_bond_donors>  (845) 
5

>  <hydrogen_bond_acceptors_lipinski>  (845) 
5

>  <hydrogen_bond_donors_lipinski>  (845) 
5

>  <lipinski_rule_of_five_violations>  (845) 
1

>  <aromatic_rings_count>  (845) 
0

>  <qed_drug_likeliness>  (845) 
0.36

>  <formal_charge>  (845) 
0

>  <fractioncsp3>  (845) 
0.90

>  <number_of_minimal_rings>  (845) 
5

>  <van_der_walls_volume>  (845) 
481.30

>  <contains_sugar>  (845) 
False

>  <contains_ring_sugars>  (845) 
False

>  <contains_linear_sugars>  (845) 
False

>  <murcko_framework>  (845) 
C1=C2C3CCCCC3CCC2C4CCC5CCCCC5C4C1

>  <np_likeness>  (845) 
3.18

>  <chemical_class>  (845) 
Steroids and steroid derivatives

>  <chemical_sub_class>  (845) 
Hydroxysteroids

>  <chemical_super_class>  (845) 
Lipids and lipid-like molecules

>  <direct_parent_classification>  (845) 
Hydroxysteroids

>  <np_classifier_pathway>  (845) 
Terpenoids

>  <np_classifier_superclass>  (845) 
Triterpenoids

>  <np_classifier_class>  (845) 
Oleanane triterpenoids

>  <np_classifier_is_glycoside>  (845) 
False

>  <organisms>  (845) 
Breynia vitis-idaea|Callitropsis funebris|Colubrina retusa|Helenium argentinum|Melochia chamaedrys|Osmites hirsuta|Parazoanthus gracilis|Plocamium corallorhiza|Pseudopterogorgia rigida|Pteleopsis suberosa Engl.et Diels|Quercus ilex|Quercus macrocarpa|Rosa Multiflora|Rosa multiflora|Rubus ellipticus|Rubus ellipticus var. obcordatus|Rubus ellipticus var.obcordatus|Rubus idaeus|Rudgea viburnioides|Rudgea viburnoides|Simplicillium lamellicola|Terminalia brownii|Terminalia engleri|Terminalia macroptera|Terminalia sericea|Vernonanthura squamulosa|Vinca herbacea|Vochysia divergens

>  <collections>  (845) 
ANPDB|CMAUP (cCollective molecular activities of useful plants)|ChemSpider NPs|KNApSaCK|Latin America dataset|NANPDB (Natural Products from Northern African Sources)|NPASS|NuBBEDB|Phyto4Health|Super Natural II|VietHerb|WikiData Natural Products|ZINC NP

>  <dois>  (845) 
10.1007/S10600-011-9969-2|10.1016/0378-8741(95)01260-K|10.1016/J.PHYTOCHEM.2006.07.017|10.1016/S0031-9422(00)86936-8|10.1016/S0031-9422(97)01006-6|10.1016/S0031-9422(98)00154-X|10.1021/JA064630Y|10.1021/NP900237A|10.1021/NP9704617|10.1021/np900237a|10.1021/np9704617|10.1590/S0103-50531999000200005

>  <synonyms>  (845) 
(1S,4AR,6AS,6BR,8AR,9S,10R,11R,12AR,12BR,14BS)-1,10,11-TRIHYDROXY-9-(HYDROXYMETHYL)-2,2,6A,6B,9,12A-HEXAMETHYL-1,3,4,5,6,7,8,8A,10,11,12,12B,13,14B-TETRADECAHYDROPICENE-4A-CARBOXYLIC ACID|(1S,4aR,6aR,6aS,6bR,8aR,9S,10R,11R,12aR,14bS)-1,10,11-trihydroxy-9-(hydroxymethyl)-2,2,6a,6b,9,12a-hexamethyl-1,3,4,5,6,6a,7,8,8a,10,11,12,13,14b-tetradecahydropicene-4a-carboxylic acid|(2alpha,3beta,4beta,19alpha)-2,3,19,23-Tetrahydroxyolean-12-en-28-oic acid|2,3,19,23-Tetrahydroxyolean-12-en-28-oic acid|55306-03-1|AKOS040763084|Arjungenin|CHEMBL1078651|CS-0105866|DTXSID40970632|HB4081|HY-126607|Olean-12-en-28-oic acid, 2,3,19,23-tetrahydroxy-, (2alpha,3beta,4beta,19alpha)-|SCHEMBL5799851|Sericic acid|Sericic acid, >=95% (LC\/MS-ELSD)

>  <cas>  (845) 
55306-03-1

$$$$

     RDKit          2D

 37 41  0  0  0  0  0  0  0  0999 V2000
   -0.5566    2.3513    0.0000 C   0  0  0  0  0  0  0  0  0  0  0  0
    0.3059    1.1241    0.0000 C   0  0  0  0  0  0  0  0  0  0  0  0
   -0.3256   -0.2364    0.0000 C   0  0  0  0  0  0  0  0  0  0  0  0
    0.5369   -1.4637    0.0000 C   0  0  0  0  0  0  0  0  0  0  0  0
    2.0309   -1.3303    0.0000 C   0  0  0  0  0  0  0  0  0  0  0  0
    2.6625    0.0302    0.0000 C   0  0  0  0  0  0  0  0  0  0  0  0
    1.8000    1.2575    0.0000 N   0  0  0  0  0  0  0  0  0  0  0  0
    2.4315    2.6180    0.0000 C   0  0  0  0  0  0  0  0  0  0  0  0
    3.9256    2.7514    0.0000 C   0  0  0  0  0  0  0  0  0  0  0  0
    4.7881    1.5241    0.0000 C   0  0  0  0  0  0  0  0  0  0  0  0
    4.1565    0.1636    0.0000 C   0  0  0  0  0  0  0  0  0  0  0  0
    5.2554   -0.8575    0.0000 N   0  0  0  0  0  0  0  0  0  0  0  0
    6.5660   -0.1280    0.0000 C   0  0  0  0  0  0  0  0  0  0  0  0
    7.9851   -0.6139    0.0000 C   0  0  0  0  0  0  0  0  0  0  0  0
    9.1155    0.3722    0.0000 C   0  0  0  0  0  0  0  0  0  0  0  0
    8.8267    1.8441    0.0000 C   0  0  0  0  0  0  0  0  0  0  0  0
    7.4076    2.3300    0.0000 C   0  0  0  0  0  0  0  0  0  0  0  0
    6.2772    1.3439    0.0000 C   0  0  0  0  0  0  0  0  0  0  0  0
   -0.0947   -2.8242    0.0000 C   0  0  0  0  0  0  0  0  0  0  0  0
    0.7678   -4.0515    0.0000 C   0  0  0  0  0  0  0  0  0  0  0  0
    2.2619   -3.9181    0.0000 O   0  0  0  0  0  0  0  0  0  0  0  0
    0.1363   -5.4120    0.0000 O   0  0  0  0  0  0  0  0  0  0  0  0
   -1.5888   -2.9576    0.0000 C   0  0  0  0  0  0  0  0  0  0  0  0
   -2.4513   -1.7304    0.0000 O   0  0  0  0  0  0  0  0  0  0  0  0
   -1.8197   -0.3698    0.0000 C   0  0  0  0  0  0  0  0  0  0  0  0
   -2.6822    0.8574    0.0000 O   0  0  0  0  0  0  0  0  0  0  0  0
   -4.1763    0.7241    0.0000 C   0  0  0  0  0  0  0  0  0  0  0  0
   -5.0388    1.9513    0.0000 O   0  0  0  0  0  0  0  0  0  0  0  0
   -6.5328    1.8180    0.0000 C   0  0  0  0  0  0  0  0  0  0  0  0
   -7.3954    3.0452    0.0000 C   0  0  0  0  0  0  0  0  0  0  0  0
   -6.7638    4.4058    0.0000 O   0  0  0  0  0  0  0  0  0  0  0  0
   -7.1644    0.4574    0.0000 C   0  0  0  0  0  0  0  0  0  0  0  0
   -8.6585    0.3241    0.0000 O   0  0  0  0  0  0  0  0  0  0  0  0
   -6.3019   -0.7698    0.0000 C   0  0  0  0  0  0  0  0  0  0  0  0
   -6.9334   -2.1304    0.0000 O   0  0  0  0  0  0  0  0  0  0  0  0
   -4.8078   -0.6365    0.0000 C   0  0  0  0  0  0  0  0  0  0  0  0
   -3.9453   -1.8637    0.0000 O   0  0  0  0  0  0  0  0  0  0  0  0
  1  2  2  0
  2  3  1  0
  3  4  1  0
  4  5  1  0
  6  5  1  6
  6  7  1  0
  7  8  1  0
  8  9  1  0
  9 10  1  0
 10 11  2  0
 11 12  1  0
 12 13  1  0
 13 14  2  0
 14 15  1  0
 15 16  2  0
 16 17  1  0
 17 18  2  0
  4 19  1  0
 19 20  1  0
 20 21  2  0
 20 22  1  0
 19 23  2  0
 23 24  1  0
 24 25  1  0
 25 26  1  1
 27 26  1  1
 27 28  1  0
 28 29  1  0
 29 30  1  1
 30 31  1  0
 29 32  1  0
 32 33  1  6
 32 34  1  0
 34 35  1  1
 34 36  1  0
 36 37  1  6
 25  3  1  0
 36 27  1  0
 11  6  1  0
 18 13  1  0
 18 10  1  0
M  END
>  <identifier>  (846) 
CNP0225072.2

>  <canonical_smiles>  (846) 
C=CC1C(C[C@@H]2NCCC3=C2NC2=CC=CC=C32)C(C(=O)O)=CO[C@H]1O[C@@H]1O[C@H](CO)[C@@H](O)[C@H](O)[C@H]1O

>  <standard_inchi>  (846) 
InChI=1S/C26H32N2O9/c1-2-12-15(9-18-20-14(7-8-27-18)13-5-3-4-6-17(13)28-20)16(24(33)34)11-35-25(12)37-26-23(32)22(31)21(30)19(10-29)36-26/h2-6,11-12,15,18-19,21-23,25-32H,1,7-10H2,(H,33,34)/t12?,15?,18-,19+,21+,22-,23+,25-,26-/m0/s1

>  <standard_inchi_key>  (846) 
CMMIVMFGFIBAGC-IEUFSHIYSA-N

>  <name>  (846) 
STRICTOSIDINIC ACID

>  <iupac_name>  (846) 
(2~{S})-4-[[(1~{S})-2,3,4,9-tetrahydro-1~{H}-pyrido[3,4-b]indol-1-yl]methyl]-2-[(2~{S},3~{R},4~{S},5~{S},6~{R})-3,4,5-trihydroxy-6-(hydroxymethyl)tetrahydropyran-2-yl]oxy-3-vinyl-3,4-dihydro-2~{H}-pyran-5-carboxylic acid

>  <annotation_level>  (846) 
5

>  <total_atom_count>  (846) 
69

>  <heavy_atom_count>  (846) 
37

>  <molecular_weight>  (846) 
516.55

>  <exact_molecular_weight>  (846) 
516.21078

>  <molecular_formula>  (846) 
C26H32N2O9

>  <alogp>  (846) 
0.30

>  <topological_polar_surface_area>  (846) 
173.73

>  <rotatable_bond_count>  (846) 
7

>  <hydrogen_bond_acceptors>  (846) 
9

>  <hydrogen_bond_donors>  (846) 
7

>  <hydrogen_bond_acceptors_lipinski>  (846) 
9

>  <hydrogen_bond_donors_lipinski>  (846) 
7

>  <lipinski_rule_of_five_violations>  (846) 
2

>  <aromatic_rings_count>  (846) 
2

>  <qed_drug_likeliness>  (846) 
0.25

>  <formal_charge>  (846) 
0

>  <fractioncsp3>  (846) 
0.50

>  <number_of_minimal_rings>  (846) 
5

>  <van_der_walls_volume>  (846) 
nan

>  <contains_sugar>  (846) 
True

>  <contains_ring_sugars>  (846) 
True

>  <contains_linear_sugars>  (846) 
False

>  <murcko_framework>  (846) 
O1C=CC(CC1OC2OCCCC2)CC3NCCc4c5ccccc5[nH]c43

>  <np_likeness>  (846) 
2.27

>  <chemical_class>  (846) 
Harmala alkaloids

>  <chemical_sub_class>  (846) 
Harmala alkaloids

>  <chemical_super_class>  (846) 
Alkaloids and derivatives

>  <direct_parent_classification>  (846) 
Harmala alkaloids

>  <np_classifier_pathway>  (846) 
Alkaloids

>  <np_classifier_superclass>  (846) 
Tryptophan alkaloids

>  <np_classifier_class>  (846) 
Carboline alkaloids

>  <np_classifier_is_glycoside>  (846) 
True

>  <organisms>  (846) 
Chimarrhis turbinata|Uncaria rhynchophylla

>  <collections>  (846) 
Latin America dataset|NPASS|NuBBEDB

>  <dois>  (846) 
10.1021/acs.jnatprod.9b00490|10.1021/np049863m|10.1590/S0102-695X2008000100007

>  <synonyms>  (846) 
CHEMBL528546|Strictosidine acid

>  <cas>  (846) 
nan

$$$$

     RDKit          2D

 17 18  0  0  0  0  0  0  0  0999 V2000
   -5.4960    1.5562    0.0000 C   0  0  0  0  0  0  0  0  0  0  0  0
   -4.0083    1.3644    0.0000 O   0  0  0  0  0  0  0  0  0  0  0  0
   -3.4306   -0.0199    0.0000 C   0  0  0  0  0  0  0  0  0  0  0  0
   -4.3406   -1.2123    0.0000 O   0  0  0  0  0  0  0  0  0  0  0  0
   -1.9429   -0.2117    0.0000 C   0  0  0  0  0  0  0  0  0  0  0  0
   -1.3652   -1.5960    0.0000 C   0  0  0  0  0  0  0  0  0  0  0  0
    0.1225   -1.7879    0.0000 C   0  0  0  0  0  0  0  0  0  0  0  0
    0.7002   -3.1722    0.0000 O   0  0  0  0  0  0  0  0  0  0  0  0
    1.0324   -0.5954    0.0000 C   0  0  0  0  0  0  0  0  0  0  0  0
    2.5201   -0.7873    0.0000 O   0  0  0  0  0  0  0  0  0  0  0  0
    3.4301    0.4052    0.0000 C   0  0  0  0  0  0  0  0  0  0  0  0
    4.6930    1.2145    0.0000 C   0  0  0  0  0  0  0  0  0  0  0  0
    4.4464   -0.6980    0.0000 C   0  0  0  0  0  0  0  0  0  0  0  0
    2.8524    1.7895    0.0000 C   0  0  0  0  0  0  0  0  0  0  0  0
    1.3647    1.9813    0.0000 C   0  0  0  0  0  0  0  0  0  0  0  0
    0.4547    0.7889    0.0000 C   0  0  0  0  0  0  0  0  0  0  0  0
   -1.0329    0.9807    0.0000 C   0  0  0  0  0  0  0  0  0  0  0  0
  1  2  1  0
  2  3  1  0
  3  4  2  0
  3  5  1  0
  5  6  2  0
  6  7  1  0
  7  8  1  0
  7  9  2  0
  9 10  1  0
 10 11  1  0
 11 12  1  0
 11 13  1  0
 11 14  1  0
 14 15  1  0
 15 16  1  0
 16 17  2  0
 17  5  1  0
 16  9  1  0
M  END
>  <identifier>  (847) 
CNP0262797.0

>  <canonical_smiles>  (847) 
COC(=O)C1=CC(O)=C2OC(C)(C)CCC2=C1

>  <standard_inchi>  (847) 
InChI=1S/C13H16O4/c1-13(2)5-4-8-6-9(12(15)16-3)7-10(14)11(8)17-13/h6-7,14H,4-5H2,1-3H3

>  <standard_inchi_key>  (847) 
CCSJJRWJXILAAC-UHFFFAOYSA-N

>  <name>  (847) 
nan

>  <iupac_name>  (847) 
methyl 8-hydroxy-2,2-dimethyl-chromane-6-carboxylate

>  <annotation_level>  (847) 
5

>  <total_atom_count>  (847) 
33

>  <heavy_atom_count>  (847) 
17

>  <molecular_weight>  (847) 
236.27

>  <exact_molecular_weight>  (847) 
236.10486

>  <molecular_formula>  (847) 
C13H16O4

>  <alogp>  (847) 
2.28

>  <topological_polar_surface_area>  (847) 
55.76

>  <rotatable_bond_count>  (847) 
1

>  <hydrogen_bond_acceptors>  (847) 
4

>  <hydrogen_bond_donors>  (847) 
1

>  <hydrogen_bond_acceptors_lipinski>  (847) 
4

>  <hydrogen_bond_donors_lipinski>  (847) 
1

>  <lipinski_rule_of_five_violations>  (847) 
0

>  <aromatic_rings_count>  (847) 
1

>  <qed_drug_likeliness>  (847) 
0.76

>  <formal_charge>  (847) 
0

>  <fractioncsp3>  (847) 
0.46

>  <number_of_minimal_rings>  (847) 
2

>  <van_der_walls_volume>  (847) 
218.53

>  <contains_sugar>  (847) 
False

>  <contains_ring_sugars>  (847) 
False

>  <contains_linear_sugars>  (847) 
False

>  <murcko_framework>  (847) 
O1c2ccccc2CCC1

>  <np_likeness>  (847) 
1.18

>  <chemical_class>  (847) 
Benzopyrans

>  <chemical_sub_class>  (847) 
1-benzopyrans

>  <chemical_super_class>  (847) 
Organoheterocyclic compounds

>  <direct_parent_classification>  (847) 
2,2-dimethyl-1-benzopyrans

>  <np_classifier_pathway>  (847) 
Terpenoids

>  <np_classifier_superclass>  (847) 
Meroterpenoids

>  <np_classifier_class>  (847) 
Meromonoterpenoids

>  <np_classifier_is_glycoside>  (847) 
False

>  <organisms>  (847) 
Piper aduncum

>  <collections>  (847) 
ChemSpider NPs|Latin America dataset|NuBBEDB|Super Natural II|WikiData Natural Products|ZINC NP

>  <dois>  (847) 
10.1248/BPB.31.538|10.1248/bpb.31.538

>  <synonyms>  (847) 
Methyl-8-hydroxy-22-dimethylchroman-6-carboxylate

>  <cas>  (847) 
nan

$$$$

     RDKit          2D

 15 16  0  0  0  0  0  0  0  0999 V2000
   -1.2679    3.2502    0.0000 C   0  0  0  0  0  0  0  0  0  0  0  0
   -1.3558    1.7528    0.0000 C   0  0  0  0  0  0  0  0  0  0  0  0
   -2.7430    1.1823    0.0000 C   0  0  0  0  0  0  0  0  0  0  0  0
   -3.1619   -0.2581    0.0000 C   0  0  0  0  0  0  0  0  0  0  0  0
   -2.2969   -1.4836    0.0000 C   0  0  0  0  0  0  0  0  0  0  0  0
   -0.7995   -1.5714    0.0000 C   0  0  0  0  0  0  0  0  0  0  0  0
    0.5115   -2.3003    0.0000 C   0  0  0  0  0  0  0  0  0  0  0  0
   -1.2184   -3.0118    0.0000 C   0  0  0  0  0  0  0  0  0  0  0  0
    0.2028   -0.4555    0.0000 C   0  0  0  0  0  0  0  0  0  0  0  0
    1.6078   -0.9808    0.0000 C   0  0  0  0  0  0  0  0  0  0  0  0
    2.7653   -0.0267    0.0000 C   0  0  0  0  0  0  0  0  0  0  0  0
    4.1703   -0.5520    0.0000 C   0  0  0  0  0  0  0  0  0  0  0  0
    2.5177    1.4527    0.0000 C   0  0  0  0  0  0  0  0  0  0  0  0
    1.1127    1.9781    0.0000 C   0  0  0  0  0  0  0  0  0  0  0  0
   -0.0447    1.0240    0.0000 C   0  0  0  0  0  0  0  0  0  0  0  0
  1  2  2  0
  2  3  1  0
  3  4  1  0
  4  5  1  0
  5  6  1  0
  6  7  1  0
  6  8  1  0
  9  6  1  6
  9 10  1  0
 10 11  2  0
 11 12  1  0
 11 13  1  0
 13 14  1  0
 15 14  1  6
 15  2  1  0
 15  9  1  0
M  END
>  <identifier>  (848) 
CNP0159730.2

>  <canonical_smiles>  (848) 
C=C1CCCC(C)(C)[C@H]2C=C(C)CC[C@@H]12

>  <standard_inchi>  (848) 
InChI=1S/C15H24/c1-11-7-8-13-12(2)6-5-9-15(3,4)14(13)10-11/h10,13-14H,2,5-9H2,1,3-4H3/t13-,14-/m0/s1

>  <standard_inchi_key>  (848) 
ZJSIKVDEOWWVEH-KBPBESRZSA-N

>  <name>  (848) 
(-)-alpha-Himachalene

>  <iupac_name>  (848) 
(4~{a}~{S},9~{a}~{R})-3,5,5-trimethyl-9-methylene-2,4~{a},6,7,8,9~{a}-hexahydro-1~{H}-benzo[7]annulene

>  <annotation_level>  (848) 
5

>  <total_atom_count>  (848) 
39

>  <heavy_atom_count>  (848) 
15

>  <molecular_weight>  (848) 
204.36

>  <exact_molecular_weight>  (848) 
204.1878

>  <molecular_formula>  (848) 
C15H24

>  <alogp>  (848) 
4.73

>  <topological_polar_surface_area>  (848) 
0.00

>  <rotatable_bond_count>  (848) 
0

>  <hydrogen_bond_acceptors>  (848) 
0

>  <hydrogen_bond_donors>  (848) 
0

>  <hydrogen_bond_acceptors_lipinski>  (848) 
0

>  <hydrogen_bond_donors_lipinski>  (848) 
0

>  <lipinski_rule_of_five_violations>  (848) 
0

>  <aromatic_rings_count>  (848) 
0

>  <qed_drug_likeliness>  (848) 
0.50

>  <formal_charge>  (848) 
0

>  <fractioncsp3>  (848) 
0.73

>  <number_of_minimal_rings>  (848) 
2

>  <van_der_walls_volume>  (848) 
224.05

>  <contains_sugar>  (848) 
False

>  <contains_ring_sugars>  (848) 
False

>  <contains_linear_sugars>  (848) 
False

>  <murcko_framework>  (848) 
C1=CC2CCCCCC2CC1

>  <np_likeness>  (848) 
3.16

>  <chemical_class>  (848) 
Prenol lipids

>  <chemical_sub_class>  (848) 
Sesquiterpenoids

>  <chemical_super_class>  (848) 
Lipids and lipid-like molecules

>  <direct_parent_classification>  (848) 
Himachalane and lippifoliane sesquiterpenoids

>  <np_classifier_pathway>  (848) 
Terpenoids

>  <np_classifier_superclass>  (848) 
Sesquiterpenoids

>  <np_classifier_class>  (848) 
Himachalane sesquiterpenoids

>  <np_classifier_is_glycoside>  (848) 
False

>  <organisms>  (848) 
Aconitum sachalinense subsp. yezoense|Alpinia chinensis|Aristolochia elegans|Aristolochia littoralis|Artemisia xerophytica|Bazzania trilobata|Berberis beaniana|Cedrela odorata|Cedrus libani|Cinnamomum sieboldii|Citrus medica var. sarcodactylis|Corymbia citriodora|Elaeocarpus serratus|Epimedium macranthum|Eucalyptus citriodora|Eucalyptus urophylla|Goniothalamus macrophyllus|Hamamelis virginiana|Heterotropa|Hypericum perforatum|Juniperus communis|Lippia integrifolia|Loropetalum chinense|Lutzomyia longipalpis|Melaleuca alternifolia|Micromeria sinaica|Myodocarpus gracilis|Origanum vulgare|Papaver suaveolens|Philadelphia fleabane|Phlomis lanata|Polycitor adriaticus|Polygonum Minus|Psychotria granadensis|Rhizopus oryzae|Scapania undulata|Streptomyces griseoaurantiacus|Teucrium cyprium|Teucrium divaricatum|Teucrium kotschyanum|Teucrium micropodioides|Vigna luteola|Wigandia kunthii|bellis perennis

>  <collections>  (848) 
Australian natural products|CMAUP (cCollective molecular activities of useful plants)|EMNPD|Latin America dataset|NPASS|NuBBEDB|Super Natural II|VietHerb|WikiData Natural Products|ZINC NP

>  <dois>  (848) 
10.1002/CBDV.200900091|10.1002/FFJ.1305|10.1007/BF00568367|10.1007/BF02029550|10.1016/0031-9422(82)80055-1|10.1016/0031-9422(95)00183-8|10.1016/0378-8741(91)90062-I|10.1016/J.PHYMED.2007.03.013|10.1016/J.PHYTOCHEM.2003.10.018|10.1016/S0031-9422(00)80411-2|10.1016/S0031-9422(97)00400-7|10.1016/S0031-9422(99)00123-5|10.1021/NP400872M|10.1021/NP50121A011|10.1021/np400872m|10.1055/S-2006-957420|10.1080/10412905.1993.9698253|10.1080/10412905.1994.9698334|10.1080/10412905.2000.9712210|10.1080/10412905.2003.9698597|10.1248/YAKUSHI1947.106.1_17|10.1248/YAKUSHI1947.107.3_209|10.1271/BBB1961.45.507|10.1590/S0103-50532000000600012|10.3109/13880209109082877

>  <synonyms>  (848) 
(-)-.ALPHA.-HIMACHALENE|(-)-2,7(14)-himachaladiene|(1R,6S)-alpha-himachalene|(4aS,9aR)-3,5,5-trimethyl-9-methylidene-2,4a,6,7,8,9a-hexahydro-1H-benzo[7]annulene|.ALPHA.-CIS-HIMACHALENE|.ALPHA.-HIMACHALENE, (-)-|1DB5J66V5P|1H-Benzocycloheptene, 2,4a,5,6,7,8,9,9a-octahydro-3,5,5-trimethyl-9-methylene-, (4aS,9ar)-|3853-83-6|CHEBI:49218|CHEMBL3120652|DTXSID30191859|LMPR0103480001|Q27121538|UNII-1DB5J66V5P|\u221a\u00e9\u00ac\u00b1-Himachalene|_-himachalene|alpha-Himachalene|alpha-Himachalene, (-)-|alpha-cis-Himachalene|himachal-4,11-diene

>  <cas>  (848) 
3853-83-6

$$$$

     RDKit          2D

 26 28  0  0  0  0  0  0  0  0999 V2000
   -7.0346   -2.2797    0.0000 C   0  0  0  0  0  0  0  0  0  0  0  0
   -5.5652   -2.5812    0.0000 O   0  0  0  0  0  0  0  0  0  0  0  0
   -4.5694   -1.4595    0.0000 C   0  0  0  0  0  0  0  0  0  0  0  0
   -5.0429   -0.0362    0.0000 C   0  0  0  0  0  0  0  0  0  0  0  0
   -4.0471    1.0856    0.0000 C   0  0  0  0  0  0  0  0  0  0  0  0
   -4.5206    2.5088    0.0000 O   0  0  0  0  0  0  0  0  0  0  0  0
   -2.5777    0.7840    0.0000 C   0  0  0  0  0  0  0  0  0  0  0  0
   -1.5819    1.9058    0.0000 C   0  0  0  0  0  0  0  0  0  0  0  0
   -2.0554    3.3290    0.0000 O   0  0  0  0  0  0  0  0  0  0  0  0
   -0.1125    1.6042    0.0000 C   0  0  0  0  0  0  0  0  0  0  0  0
    0.8833    2.7260    0.0000 O   0  0  0  0  0  0  0  0  0  0  0  0
    2.3527    2.4244    0.0000 C   0  0  0  0  0  0  0  0  0  0  0  0
    0.3610    0.1809    0.0000 C   0  0  0  0  0  0  0  0  0  0  0  0
    1.8304   -0.1206    0.0000 C   0  0  0  0  0  0  0  0  0  0  0  0
    2.8263    1.0011    0.0000 C   0  0  0  0  0  0  0  0  0  0  0  0
    4.2956    0.6996    0.0000 C   0  0  0  0  0  0  0  0  0  0  0  0
    5.2915    1.8213    0.0000 O   0  0  0  0  0  0  0  0  0  0  0  0
    4.7692   -0.7237    0.0000 C   0  0  0  0  0  0  0  0  0  0  0  0
    6.2386   -1.0252    0.0000 O   0  0  0  0  0  0  0  0  0  0  0  0
    6.7121   -2.4485    0.0000 C   0  0  0  0  0  0  0  0  0  0  0  0
    3.7734   -1.8454    0.0000 C   0  0  0  0  0  0  0  0  0  0  0  0
    2.3040   -1.5439    0.0000 C   0  0  0  0  0  0  0  0  0  0  0  0
    1.3081   -2.6657    0.0000 O   0  0  0  0  0  0  0  0  0  0  0  0
   -0.6348   -0.9408    0.0000 O   0  0  0  0  0  0  0  0  0  0  0  0
   -2.1042   -0.6393    0.0000 C   0  0  0  0  0  0  0  0  0  0  0  0
   -3.1000   -1.7610    0.0000 C   0  0  0  0  0  0  0  0  0  0  0  0
  1  2  1  0
  2  3  1  0
  3  4  2  0
  4  5  1  0
  5  6  1  0
  5  7  2  0
  7  8  1  0
  8  9  2  0
  8 10  1  0
 10 11  1  0
 11 12  1  0
 10 13  2  0
 13 14  1  0
 14 15  2  0
 15 16  1  0
 16 17  1  0
 16 18  2  0
 18 19  1  0
 19 20  1  0
 18 21  1  0
 21 22  2  0
 22 23  1  0
 13 24  1  0
 24 25  1  0
 25 26  2  0
 26  3  1  0
 25  7  1  0
 22 14  1  0
M  END
>  <identifier>  (849) 
CNP0174267.0

>  <canonical_smiles>  (849) 
COC1=CC(O)=C2C(=O)C(OC)=C(C3=CC(O)=C(OC)C=C3O)OC2=C1

>  <standard_inchi>  (849) 
InChI=1S/C18H16O8/c1-23-8-4-12(21)15-14(5-8)26-17(18(25-3)16(15)22)9-6-11(20)13(24-2)7-10(9)19/h4-7,19-21H,1-3H3

>  <standard_inchi_key>  (849) 
KGJTXYKKHKRNIM-UHFFFAOYSA-N

>  <name>  (849) 
Oxyayanin A

>  <iupac_name>  (849) 
2-(2,5-dihydroxy-4-methoxy-phenyl)-5-hydroxy-3,7-dimethoxy-chromen-4-one

>  <annotation_level>  (849) 
5

>  <total_atom_count>  (849) 
42

>  <heavy_atom_count>  (849) 
26

>  <molecular_weight>  (849) 
360.32

>  <exact_molecular_weight>  (849) 
360.08452

>  <molecular_formula>  (849) 
C18H16O8

>  <alogp>  (849) 
2.60

>  <topological_polar_surface_area>  (849) 
118.59

>  <rotatable_bond_count>  (849) 
4

>  <hydrogen_bond_acceptors>  (849) 
8

>  <hydrogen_bond_donors>  (849) 
3

>  <hydrogen_bond_acceptors_lipinski>  (849) 
8

>  <hydrogen_bond_donors_lipinski>  (849) 
3

>  <lipinski_rule_of_five_violations>  (849) 
0

>  <aromatic_rings_count>  (849) 
3

>  <qed_drug_likeliness>  (849) 
0.61

>  <formal_charge>  (849) 
0

>  <fractioncsp3>  (849) 
0.17

>  <number_of_minimal_rings>  (849) 
3

>  <van_der_walls_volume>  (849) 
298.58

>  <contains_sugar>  (849) 
False

>  <contains_ring_sugars>  (849) 
False

>  <contains_linear_sugars>  (849) 
False

>  <murcko_framework>  (849) 
O1c2ccccc2CC=C1c3ccccc3

>  <np_likeness>  (849) 
1.41

>  <chemical_class>  (849) 
Flavonoids

>  <chemical_sub_class>  (849) 
O-methylated flavonoids

>  <chemical_super_class>  (849) 
Phenylpropanoids and polyketides

>  <direct_parent_classification>  (849) 
3-O-methylated flavonoids

>  <np_classifier_pathway>  (849) 
Shikimates and Phenylpropanoids

>  <np_classifier_superclass>  (849) 
Flavonoids

>  <np_classifier_class>  (849) 
Flavonols

>  <np_classifier_is_glycoside>  (849) 
False

>  <organisms>  (849) 
Adiantum monochlamys|Apuleia leiocarpa|Baileya pauciradiata|Becium grandiflorum|Berberis amurensis|Berberis fortunei|Berberis thunbergii|Berberis vulgaris|Centaurea webbiana|Chrysosplenium grayanum|Commiphora erythraea|Crinum yemense|Distemonanthus benthamianus|Lissoclinum bistratum|Mahonia fortunei|Pachyphragma macrophyllum|Spilanthes mauritiana|Thalictrum lucidum|Vernonanthura chamaedrys|Vicia faba|Waltheria indica|Xanthorhiza simplicissima

>  <collections>  (849) 
Australian natural products|CMAUP (cCollective molecular activities of useful plants)|ChEBI NPs|KNApSaCK|Latin America dataset|NPASS|NPEdia|NuBBEDB|Phyto4Health|Super Natural II|TCMDB-Taiwan (Traditional Chinese Medicine database)|TCMID (Traditional Chinese Medicine Integrated Database)|UNPD (Universal Natural Products Database)|WikiData Natural Products|ZINC NP

>  <dois>  (849) 
10.1016/S0031-9422(00)89891-X|10.1021/ACS.JNATPROD.5B00896|10.1021/acs.jnatprod.5b00896|10.1039/JR9540004587|10.1039/JR9540004594|10.1111/J.1600-0536.1995.TB00680.X

>  <synonyms>  (849) 
2-(2,5-dihydroxy-4-methoxy-phenyl)-5-hydroxy-3,7-dimethoxy-chromen-4-one|2-(2,5-dihydroxy-4-methoxyphenyl)-5-hydroxy-3,7-dimethoxy-4H-1-benzopyran-4-one|5,2',5'-trihydroxy-3,7,4'-trimethoxyflavone|549-17-7|CHEBI:7854|CHEMBL491989|DTXSID40415174|Flavone. 2',5,5'-trihydroxy-3,4',7-trimethoxy-|LMPK12112516|OXYAYANINA|Oxyanin A|Oxyayanin-A|Q27107598|oxyanin A

>  <cas>  (849) 
549-17-7

$$$$

     RDKit          2D

 33 36  0  0  0  0  0  0  0  0999 V2000
    7.1676   -3.4964    0.0000 C   0  0  0  0  0  0  0  0  0  0  0  0
    6.7980   -2.0427    0.0000 C   0  0  0  0  0  0  0  0  0  0  0  0
    5.3542   -1.6359    0.0000 C   0  0  0  0  0  0  0  0  0  0  0  0
    4.9846   -0.1821    0.0000 C   0  0  0  0  0  0  0  0  0  0  0  0
    3.5408    0.2247    0.0000 C   0  0  0  0  0  0  0  0  0  0  0  0
    3.1712    1.6784    0.0000 C   0  0  0  0  0  0  0  0  0  0  0  0
    4.2454    2.7254    0.0000 C   0  0  0  0  0  0  0  0  0  0  0  0
    1.7274    2.0852    0.0000 C   0  0  0  0  0  0  0  0  0  0  0  0
    1.2079    3.4924    0.0000 C   0  0  0  0  0  0  0  0  0  0  0  0
   -0.2909    3.4331    0.0000 C   0  0  0  0  0  0  0  0  0  0  0  0
   -0.6977    1.9893    0.0000 C   0  0  0  0  0  0  0  0  0  0  0  0
   -1.8512    2.9482    0.0000 C   0  0  0  0  0  0  0  0  0  0  0  0
   -2.0429    1.3255    0.0000 C   0  0  0  0  0  0  0  0  0  0  0  0
   -3.2903    2.1586    0.0000 C   0  0  0  0  0  0  0  0  0  0  0  0
   -4.6354    1.4948    0.0000 C   0  0  0  0  0  0  0  0  0  0  0  0
   -4.7331   -0.0020    0.0000 C   0  0  0  0  0  0  0  0  0  0  0  0
   -6.0783   -0.6658    0.0000 C   0  0  0  0  0  0  0  0  0  0  0  0
   -7.5693   -0.8295    0.0000 C   0  0  0  0  0  0  0  0  0  0  0  0
   -6.4984    0.7742    0.0000 C   0  0  0  0  0  0  0  0  0  0  0  0
   -6.1760   -2.1626    0.0000 C   0  0  0  0  0  0  0  0  0  0  0  0
   -7.5212   -2.8264    0.0000 O   0  0  0  0  0  0  0  0  0  0  0  0
   -4.9286   -2.9956    0.0000 C   0  0  0  0  0  0  0  0  0  0  0  0
   -3.5835   -2.3319    0.0000 C   0  0  0  0  0  0  0  0  0  0  0  0
   -3.4857   -0.8351    0.0000 C   0  0  0  0  0  0  0  0  0  0  0  0
   -2.2383   -1.6681    0.0000 C   0  0  0  0  0  0  0  0  0  0  0  0
   -2.1406   -0.1713    0.0000 C   0  0  0  0  0  0  0  0  0  0  0  0
   -0.8932   -1.0043    0.0000 C   0  0  0  0  0  0  0  0  0  0  0  0
    0.4520   -0.3405    0.0000 C   0  0  0  0  0  0  0  0  0  0  0  0
    0.5497    1.1563    0.0000 C   0  0  0  0  0  0  0  0  0  0  0  0
    1.8774    0.4582    0.0000 C   0  0  0  0  0  0  0  0  0  0  0  0
    7.8722   -0.9957    0.0000 O   0  0  0  0  0  0  0  0  0  0  0  0
    9.3160   -1.4025    0.0000 C   0  0  0  0  0  0  0  0  0  0  0  0
   10.3902   -0.3556    0.0000 O   0  0  0  0  0  0  0  0  0  0  0  0
  1  2  1  0
  2  3  2  0
  3  4  1  0
  4  5  1  0
  5  6  1  0
  6  7  1  1
  6  8  1  0
  8  9  1  1
  9 10  1  0
 10 11  1  0
 11 12  1  1
 11 13  1  0
 13 14  2  0
 14 15  1  0
 16 15  1  6
 16 17  1  0
 17 18  1  0
 17 19  1  0
 17 20  1  0
 20 21  1  0
 20 22  1  0
 22 23  1  0
 23 24  1  0
 24 25  1  6
 24 26  1  0
 26 27  1  6
 27 28  1  0
 28 29  1  0
 29 30  1  1
  2 31  1  0
 31 32  1  0
 32 33  2  0
 29  8  1  0
 29 11  1  0
 26 13  1  0
 24 16  1  0
M  END
>  <identifier>  (850) 
CNP0116687.1

>  <canonical_smiles>  (850) 
C/C(=C/CC[C@H](C)[C@@H]1CC[C@@]2(C)C3=CC[C@H]4C(C)(C)C(O)CC[C@]4(C)[C@H]3CC[C@@]12C)OC=O

>  <standard_inchi>  (850) 
InChI=1S/C30H48O3/c1-20(9-8-10-21(2)33-19-31)22-13-17-30(7)24-11-12-25-27(3,4)26(32)15-16-28(25,5)23(24)14-18-29(22,30)6/h10-11,19-20,22-23,25-26,32H,8-9,12-18H2,1-7H3/b21-10-/t20-,22-,23-,25-,26?,28+,29-,30-/m0/s1

>  <standard_inchi_key>  (850) 
UQWIRZHNNHZNHQ-GCTGSJGBSA-N

>  <name>  (850) 
nan

>  <iupac_name>  (850) 
[(~{Z},5~{S})-5-[(5~{R},9~{R},10~{R},13~{S},14~{R},17~{S})-3-hydroxy-4,4,10,13,14-pentamethyl-2,3,5,6,9,11,12,15,16,17-decahydro-1~{H}-cyclopenta[a]phenanthren-17-yl]-1-methyl-hex-1-enyl] formate

>  <annotation_level>  (850) 
4

>  <total_atom_count>  (850) 
81

>  <heavy_atom_count>  (850) 
33

>  <molecular_weight>  (850) 
456.71

>  <exact_molecular_weight>  (850) 
456.36035

>  <molecular_formula>  (850) 
C30H48O3

>  <alogp>  (850) 
7.45

>  <topological_polar_surface_area>  (850) 
46.53

>  <rotatable_bond_count>  (850) 
6

>  <hydrogen_bond_acceptors>  (850) 
3

>  <hydrogen_bond_donors>  (850) 
1

>  <hydrogen_bond_acceptors_lipinski>  (850) 
3

>  <hydrogen_bond_donors_lipinski>  (850) 
1

>  <lipinski_rule_of_five_violations>  (850) 
1

>  <aromatic_rings_count>  (850) 
0

>  <qed_drug_likeliness>  (850) 
0.26

>  <formal_charge>  (850) 
0

>  <fractioncsp3>  (850) 
0.83

>  <number_of_minimal_rings>  (850) 
4

>  <van_der_walls_volume>  (850) 
nan

>  <contains_sugar>  (850) 
False

>  <contains_ring_sugars>  (850) 
False

>  <contains_linear_sugars>  (850) 
False

>  <murcko_framework>  (850) 
C1=C2C3CCCC3CCC2C4CCCCC4C1

>  <np_likeness>  (850) 
3.31

>  <chemical_class>  (850) 
Steroids and steroid derivatives

>  <chemical_sub_class>  (850) 
Cholestane steroids

>  <chemical_super_class>  (850) 
Lipids and lipid-like molecules

>  <direct_parent_classification>  (850) 
Cholesterols and derivatives

>  <np_classifier_pathway>  (850) 
Terpenoids

>  <np_classifier_superclass>  (850) 
Triterpenoids

>  <np_classifier_class>  (850) 
Lanostane, Tirucallane and Euphane triterpenoids

>  <np_classifier_is_glycoside>  (850) 
False

>  <organisms>  (850) 
Schinus terebinthifolius

>  <collections>  (850) 
Latin America dataset|NuBBEDB|WikiData Natural Products

>  <dois>  (850) 
10.1002/CBDV.201400065|10.1002/cbdv.201400065

>  <synonyms>  (850) 
schinol

>  <cas>  (850) 
nan

$$$$

     RDKit          2D

 20 20  0  0  0  0  0  0  0  0999 V2000
   -7.4983    2.5472    0.0000 C   0  0  0  0  0  0  0  0  0  0  0  0
   -6.0990    2.0069    0.0000 C   0  0  0  0  0  0  0  0  0  0  0  0
   -4.9314    2.9486    0.0000 C   0  0  0  0  0  0  0  0  0  0  0  0
   -5.8673    0.5249    0.0000 C   0  0  0  0  0  0  0  0  0  0  0  0
   -4.4680   -0.0154    0.0000 C   0  0  0  0  0  0  0  0  0  0  0  0
   -4.2363   -1.4974    0.0000 C   0  0  0  0  0  0  0  0  0  0  0  0
   -2.8370   -2.0377    0.0000 C   0  0  0  0  0  0  0  0  0  0  0  0
   -2.6052   -3.5197    0.0000 C   0  0  0  0  0  0  0  0  0  0  0  0
   -1.6694   -1.0960    0.0000 C   0  0  0  0  0  0  0  0  0  0  0  0
   -0.2701   -1.6364    0.0000 C   0  0  0  0  0  0  0  0  0  0  0  0
    0.8975   -0.6947    0.0000 O   0  0  0  0  0  0  0  0  0  0  0  0
    2.2968   -1.2350    0.0000 C   0  0  0  0  0  0  0  0  0  0  0  0
    2.5285   -2.7170    0.0000 O   0  0  0  0  0  0  0  0  0  0  0  0
    3.4644   -0.2933    0.0000 C   0  0  0  0  0  0  0  0  0  0  0  0
    3.2327    1.1886    0.0000 C   0  0  0  0  0  0  0  0  0  0  0  0
    4.4003    2.1303    0.0000 C   0  0  0  0  0  0  0  0  0  0  0  0
    5.7996    1.5900    0.0000 C   0  0  0  0  0  0  0  0  0  0  0  0
    6.9672    2.5317    0.0000 O   0  0  0  0  0  0  0  0  0  0  0  0
    6.0313    0.1080    0.0000 C   0  0  0  0  0  0  0  0  0  0  0  0
    4.8637   -0.8337    0.0000 C   0  0  0  0  0  0  0  0  0  0  0  0
  1  2  1  0
  2  3  1  0
  2  4  2  0
  4  5  1  0
  5  6  1  0
  6  7  1  0
  7  8  1  0
  7  9  2  0
  9 10  1  0
 10 11  1  0
 11 12  1  0
 12 13  2  0
 12 14  1  0
 14 15  2  0
 15 16  1  0
 16 17  2  0
 17 18  1  0
 17 19  1  0
 19 20  2  0
 20 14  1  0
M  END
>  <identifier>  (851) 
CNP0080493.1

>  <canonical_smiles>  (851) 
CC(C)=CCC/C(C)=C/COC(=O)C1=CC=C(O)C=C1

>  <standard_inchi>  (851) 
InChI=1S/C17H22O3/c1-13(2)5-4-6-14(3)11-12-20-17(19)15-7-9-16(18)10-8-15/h5,7-11,18H,4,6,12H2,1-3H3/b14-11+

>  <standard_inchi_key>  (851) 
ZMIOERHZBVVFLW-SDNWHVSQSA-N

>  <name>  (851) 
nan

>  <iupac_name>  (851) 
nan

>  <annotation_level>  (851) 
0

>  <total_atom_count>  (851) 
42

>  <heavy_atom_count>  (851) 
20

>  <molecular_weight>  (851) 
274.36

>  <exact_molecular_weight>  (851) 
274.15689

>  <molecular_formula>  (851) 
C17H22O3

>  <alogp>  (851) 
4.24

>  <topological_polar_surface_area>  (851) 
46.53

>  <rotatable_bond_count>  (851) 
6

>  <hydrogen_bond_acceptors>  (851) 
3

>  <hydrogen_bond_donors>  (851) 
1

>  <hydrogen_bond_acceptors_lipinski>  (851) 
3

>  <hydrogen_bond_donors_lipinski>  (851) 
1

>  <lipinski_rule_of_five_violations>  (851) 
0

>  <aromatic_rings_count>  (851) 
1

>  <qed_drug_likeliness>  (851) 
0.62

>  <formal_charge>  (851) 
0

>  <fractioncsp3>  (851) 
0.35

>  <number_of_minimal_rings>  (851) 
1

>  <van_der_walls_volume>  (851) 
274.42

>  <contains_sugar>  (851) 
False

>  <contains_ring_sugars>  (851) 
False

>  <contains_linear_sugars>  (851) 
False

>  <murcko_framework>  (851) 
c1ccccc1

>  <np_likeness>  (851) 
1.52

>  <chemical_class>  (851) 
nan

>  <chemical_sub_class>  (851) 
nan

>  <chemical_super_class>  (851) 
nan

>  <direct_parent_classification>  (851) 
nan

>  <np_classifier_pathway>  (851) 
Shikimates and Phenylpropanoids

>  <np_classifier_superclass>  (851) 
Phenolic acids (C6-C1)

>  <np_classifier_class>  (851) 
Acyclic monoterpenoids

>  <np_classifier_is_glycoside>  (851) 
False

>  <organisms>  (851) 
Piper crassinervium

>  <collections>  (851) 
ChemSpider NPs|Latin America dataset|NuBBEDB|Super Natural II|WikiData Natural Products|ZINC NP

>  <dois>  (851) 
10.1016/J.BIORTECH.2010.01.041|10.1016/j.biortech.2010.01.041

>  <synonyms>  (851) 
nan

>  <cas>  (851) 
nan

$$$$

     RDKit          2D

 43 45  0  0  0  0  0  0  0  0999 V2000
    7.1492    5.5163    0.0000 C   0  0  0  0  0  0  0  0  0  0  0  0
    6.3472    4.2488    0.0000 C   0  0  0  0  0  0  0  0  0  0  0  0
    7.0439    2.9204    0.0000 C   0  0  0  0  0  0  0  0  0  0  0  0
    8.5426    2.8596    0.0000 C   0  0  0  0  0  0  0  0  0  0  0  0
    6.2418    1.6529    0.0000 C   0  0  0  0  0  0  0  0  0  0  0  0
    4.7430    1.7137    0.0000 C   0  0  0  0  0  0  0  0  0  0  0  0
    3.9410    0.4461    0.0000 C   0  0  0  0  0  0  0  0  0  0  0  0
    5.3285   -0.1236    0.0000 C   0  0  0  0  0  0  0  0  0  0  0  0
    2.8320    1.4561    0.0000 C   0  0  0  0  0  0  0  0  0  0  0  0
    3.1521    2.9216    0.0000 C   0  0  0  0  0  0  0  0  0  0  0  0
    1.4028    1.0007    0.0000 C   0  0  0  0  0  0  0  0  0  0  0  0
    0.2938    2.0107    0.0000 O   0  0  0  0  0  0  0  0  0  0  0  0
    1.0826   -0.4647    0.0000 C   0  0  0  0  0  0  0  0  0  0  0  0
   -0.3466   -0.9202    0.0000 O   0  0  0  0  0  0  0  0  0  0  0  0
   -1.4556    0.0898    0.0000 C   0  0  0  0  0  0  0  0  0  0  0  0
   -1.4995    1.5892    0.0000 O   0  0  0  0  0  0  0  0  0  0  0  0
   -2.8848   -0.3656    0.0000 C   0  0  0  0  0  0  0  0  0  0  0  0
   -3.9938    0.6444    0.0000 C   0  0  0  0  0  0  0  0  0  0  0  0
   -5.4230    0.1889    0.0000 C   0  0  0  0  0  0  0  0  0  0  0  0
   -6.5320    1.1989    0.0000 C   0  0  0  0  0  0  0  0  0  0  0  0
   -7.9612    0.7435    0.0000 C   0  0  0  0  0  0  0  0  0  0  0  0
   -9.0702    1.7535    0.0000 C   0  0  0  0  0  0  0  0  0  0  0  0
  -10.4994    1.2980    0.0000 C   0  0  0  0  0  0  0  0  0  0  0  0
  -11.6084    2.3080    0.0000 C   0  0  0  0  0  0  0  0  0  0  0  0
  -13.0376    1.8526    0.0000 C   0  0  0  0  0  0  0  0  0  0  0  0
    2.1916   -1.4747    0.0000 C   0  0  0  0  0  0  0  0  0  0  0  0
    1.8714   -2.9402    0.0000 C   0  0  0  0  0  0  0  0  0  0  0  0
    2.9805   -3.9502    0.0000 C   0  0  0  0  0  0  0  0  0  0  0  0
    4.4096   -3.4947    0.0000 C   0  0  0  0  0  0  0  0  0  0  0  0
    5.5187   -4.5047    0.0000 O   0  0  0  0  0  0  0  0  0  0  0  0
    4.7298   -2.0293    0.0000 C   0  0  0  0  0  0  0  0  0  0  0  0
    3.6208   -1.0193    0.0000 C   0  0  0  0  0  0  0  0  0  0  0  0
    0.3788   -3.0885    0.0000 C   0  0  0  0  0  0  0  0  0  0  0  0
   -0.3785   -4.3833    0.0000 O   0  0  0  0  0  0  0  0  0  0  0  0
   -1.8785   -4.3748    0.0000 C   0  0  0  0  0  0  0  0  0  0  0  0
   -2.6359   -5.6696    0.0000 C   0  0  0  0  0  0  0  0  0  0  0  0
   -2.6212   -3.0715    0.0000 O   0  0  0  0  0  0  0  0  0  0  0  0
   -0.2235   -1.7148    0.0000 O   0  0  0  0  0  0  0  0  0  0  0  0
    0.8968   -0.7174    0.0000 C   0  0  0  0  0  0  0  0  0  0  0  0
    0.7485    0.7753    0.0000 O   0  0  0  0  0  0  0  0  0  0  0  0
   -0.6183    1.3931    0.0000 C   0  0  0  0  0  0  0  0  0  0  0  0
   -0.7667    2.8858    0.0000 C   0  0  0  0  0  0  0  0  0  0  0  0
   -2.0123    0.8392    0.0000 O   0  0  0  0  0  0  0  0  0  0  0  0
  1  2  2  0
  2  3  1  0
  3  4  2  0
  3  5  1  0
  5  6  1  0
  6  7  1  0
  7  8  1  6
  7  9  1  0
  9 10  1  1
  9 11  1  0
 11 12  1  6
 11 13  1  0
 13 14  1  1
 14 15  1  0
 15 16  2  0
 15 17  1  0
 17 18  2  0
 18 19  1  0
 19 20  2  0
 20 21  1  0
 21 22  1  0
 22 23  1  0
 23 24  1  0
 24 25  1  0
 13 26  1  0
 26 27  1  6
 27 28  2  0
 28 29  1  0
 29 30  1  1
 29 31  1  0
 32 31  1  6
 27 33  1  0
 33 34  1  1
 34 35  1  0
 35 36  1  0
 35 37  2  0
 33 38  1  0
 38 39  1  0
 39 40  1  6
 40 41  1  0
 41 42  1  0
 41 43  2  0
 32  7  1  0
 32 26  1  0
 39 26  1  0
M  END
>  <identifier>  (852) 
CNP0085362.1

>  <canonical_smiles>  (852) 
C=CC(=C)CC[C@]1(C)[C@H](C)[C@@H](O)[C@H](OC(=O)/C=C/C=C/CCCCC)[C@@]23C(=C[C@H](O)C[C@@H]12)[C@@H](OC(C)=O)O[C@@H]3OC(C)=O

>  <standard_inchi>  (852) 
InChI=1S/C34H48O9/c1-8-10-11-12-13-14-15-16-28(38)42-30-29(39)22(4)33(7,18-17-21(3)9-2)27-20-25(37)19-26-31(40-23(5)35)43-32(34(26,27)30)41-24(6)36/h9,13-16,19,22,25,27,29-32,37,39H,2-3,8,10-12,17-18,20H2,1,4-7H3/b14-13+,16-15+/t22-,25+,27+,29-,30+,31+,32+,33-,34-/m1/s1

>  <standard_inchi_key>  (852) 
NWTYSAQBDRQWLF-MRXMUHBJSA-N

>  <name>  (852) 
nan

>  <iupac_name>  (852) 
[(1~{R},3~{R},5~{R},6~{a}~{S},7~{S},8~{S},9~{R},10~{R},10~{a}~{S})-1,3-diacetoxy-5,9-dihydroxy-7,8-dimethyl-7-(3-methylenepent-4-enyl)-1,3,5,6,6~{a},8,9,10-octahydrobenzo[d]isobenzofuran-10-yl] (2~{E},4~{E})-deca-2,4-dienoate

>  <annotation_level>  (852) 
5

>  <total_atom_count>  (852) 
91

>  <heavy_atom_count>  (852) 
43

>  <molecular_weight>  (852) 
600.75

>  <exact_molecular_weight>  (852) 
600.32983

>  <molecular_formula>  (852) 
C34H48O9

>  <alogp>  (852) 
5.23

>  <topological_polar_surface_area>  (852) 
128.59

>  <rotatable_bond_count>  (852) 
13

>  <hydrogen_bond_acceptors>  (852) 
9

>  <hydrogen_bond_donors>  (852) 
2

>  <hydrogen_bond_acceptors_lipinski>  (852) 
9

>  <hydrogen_bond_donors_lipinski>  (852) 
2

>  <lipinski_rule_of_five_violations>  (852) 
2

>  <aromatic_rings_count>  (852) 
0

>  <qed_drug_likeliness>  (852) 
0.07

>  <formal_charge>  (852) 
0

>  <fractioncsp3>  (852) 
0.62

>  <number_of_minimal_rings>  (852) 
3

>  <van_der_walls_volume>  (852) 
569.53

>  <contains_sugar>  (852) 
False

>  <contains_ring_sugars>  (852) 
False

>  <contains_linear_sugars>  (852) 
False

>  <murcko_framework>  (852) 
O1CC2=CCCC3CCCCC23C1

>  <np_likeness>  (852) 
3.33

>  <chemical_class>  (852) 
Prenol lipids

>  <chemical_sub_class>  (852) 
Diterpenoids

>  <chemical_super_class>  (852) 
Lipids and lipid-like molecules

>  <direct_parent_classification>  (852) 
Colensane and clerodane diterpenoids

>  <np_classifier_pathway>  (852) 
Terpenoids

>  <np_classifier_superclass>  (852) 
Diterpenoids

>  <np_classifier_class>  (852) 
Colensane and Clerodane diterpenoids

>  <np_classifier_is_glycoside>  (852) 
True

>  <organisms>  (852) 
Casearia rupestris

>  <collections>  (852) 
ChemSpider NPs|Latin America dataset|NuBBEDB|Super Natural II|WikiData Natural Products|ZINC NP

>  <dois>  (852) 
10.1021/NP100840W|10.1021/np100840w

>  <synonyms>  (852) 
Casearupestrin A

>  <cas>  (852) 
nan

$$$$

     RDKit          2D

 15 17  0  0  0  0  0  0  0  0999 V2000
    2.1029   -2.9807    0.0000 C   0  0  0  0  0  0  0  0  0  0  0  0
    2.2008   -1.4839    0.0000 C   0  0  0  0  0  0  0  0  0  0  0  0
    3.4692   -0.6832    0.0000 C   0  0  0  0  0  0  0  0  0  0  0  0
    3.0997    0.7706    0.0000 C   0  0  0  0  0  0  0  0  0  0  0  0
    1.6029    0.8684    0.0000 C   0  0  0  0  0  0  0  0  0  0  0  0
    1.0473   -0.5249    0.0000 C   0  0  0  0  0  0  0  0  0  0  0  0
   -0.3460    0.0307    0.0000 C   0  0  0  0  0  0  0  0  0  0  0  0
   -1.8428    0.1285    0.0000 C   0  0  0  0  0  0  0  0  0  0  0  0
   -2.8017   -1.0249    0.0000 C   0  0  0  0  0  0  0  0  0  0  0  0
   -4.2801   -0.7711    0.0000 C   0  0  0  0  0  0  0  0  0  0  0  0
   -2.2823   -2.4321    0.0000 C   0  0  0  0  0  0  0  0  0  0  0  0
   -2.2122    1.5823    0.0000 C   0  0  0  0  0  0  0  0  0  0  0  0
   -0.9438    2.3830    0.0000 C   0  0  0  0  0  0  0  0  0  0  0  0
    0.2096    1.4240    0.0000 C   0  0  0  0  0  0  0  0  0  0  0  0
    0.9764    2.7132    0.0000 C   0  0  0  0  0  0  0  0  0  0  0  0
  1  2  2  0
  2  3  1  0
  3  4  1  0
  5  4  1  6
  5  6  1  0
  6  7  1  0
  7  8  1  1
  8  9  1  6
  9 10  1  0
  9 11  1  0
  8 12  1  0
 12 13  1  0
 13 14  1  0
 14 15  1  6
  6  2  1  6
 14  7  1  0
 14  5  1  0
M  END
>  <identifier>  (853) 
CNP0155918.2

>  <canonical_smiles>  (853) 
C=C1CC[C@@H]2[C@H]1[C@H]1[C@H](C(C)C)CC[C@]12C

>  <standard_inchi>  (853) 
InChI=1S/C15H24/c1-9(2)11-7-8-15(4)12-6-5-10(3)13(12)14(11)15/h9,11-14H,3,5-8H2,1-2,4H3/t11-,12+,13-,14+,15-/m0/s1

>  <standard_inchi_key>  (853) 
YIRAHEODBQONHI-ZQNQSHIBSA-N

>  <name>  (853) 
beta-Bourbonene

>  <iupac_name>  (853) 
(1~{S},2~{R},6~{S},7~{R},8~{S})-8-isopropyl-1-methyl-5-methylene-tricyclo[5.3.0.0^{2,6}]decane

>  <annotation_level>  (853) 
5

>  <total_atom_count>  (853) 
39

>  <heavy_atom_count>  (853) 
15

>  <molecular_weight>  (853) 
204.36

>  <exact_molecular_weight>  (853) 
204.1878

>  <molecular_formula>  (853) 
C15H24

>  <alogp>  (853) 
4.27

>  <topological_polar_surface_area>  (853) 
0.00

>  <rotatable_bond_count>  (853) 
1

>  <hydrogen_bond_acceptors>  (853) 
0

>  <hydrogen_bond_donors>  (853) 
0

>  <hydrogen_bond_acceptors_lipinski>  (853) 
0

>  <hydrogen_bond_donors_lipinski>  (853) 
0

>  <lipinski_rule_of_five_violations>  (853) 
0

>  <aromatic_rings_count>  (853) 
0

>  <qed_drug_likeliness>  (853) 
0.56

>  <formal_charge>  (853) 
0

>  <fractioncsp3>  (853) 
0.87

>  <number_of_minimal_rings>  (853) 
3

>  <van_der_walls_volume>  (853) 
222.35

>  <contains_sugar>  (853) 
False

>  <contains_ring_sugars>  (853) 
False

>  <contains_linear_sugars>  (853) 
False

>  <murcko_framework>  (853) 
C1CC2C(C1)C3CCCC23

>  <np_likeness>  (853) 
3.26

>  <chemical_class>  (853) 
Prenol lipids

>  <chemical_sub_class>  (853) 
Sesquiterpenoids

>  <chemical_super_class>  (853) 
Lipids and lipid-like molecules

>  <direct_parent_classification>  (853) 
Sesquiterpenoids

>  <np_classifier_pathway>  (853) 
Terpenoids

>  <np_classifier_superclass>  (853) 
Sesquiterpenoids

>  <np_classifier_class>  (853) 
Bourbonane sesquiterpenoids

>  <np_classifier_is_glycoside>  (853) 
False

>  <organisms>  (853) 
Acca sellowiana|Achillea abrotanoides|Agastache rugosa|Ageratum conyzoides|Ajuga chamaepitys|Aloysia citriodora|Aloysia citrodora|Aloysia triphylla|Anthemis aciphylla|Anthemis aciphylla BOISS.var.discoidea BOISS|Apium graveolens|Aristolochia birostris|Aristolochia cymbifera|Aristolochia didyma|Aristolochia elegans|Aristolochia gigantea|Aristolochia littoralis|Aristolochia macroura|Aristolochia triangularis|Artemisia annua L.|Artemisia arborescens|Aster scaber|Austrobaileya scandens|Austromyrtus dulcis|Bitter bush|Boswellia carteri|Boswellia frereana|Boswellia sacra|Bouchardatia neurococca|Bupleurum gibraltaricum|Camellia sinensis|Cantinoa mutabilis|Chamomilla recutita|Cinnamomum camphora|Cistus albidus|Cistus creticus|Citrus reticulata|Citrus × deliciosa|Clausena excavata|Cleistopholis patens|Clinopodium barbatum|Clinopodium carolinianum|Clinopodium congestum|Clinopodium grandiflorum|Clinopodium suaveolens|Commiphora gurreh|Commiphora holtziana|Commiphora kataf|Commiphora myrrha|Commiphora quadricincta|Croton adenocalyx|Croton jimenezii|Cryptomeria japonica|Culcitium canescens|Curcuma kwangsiensis|Curcuma phaeocaulis|Curcuma wenyujin|Curcuma zedoaria|Cyclotrichium niveum|Daphne odora|Daucus carota|Dendrobium officinale|Dendropanax trifidus|Elsholtzia ciliata|Eremanthus arboreus|Erigeron canadensis|Eucalyptus acaciiformis|Foeniculum vulgare|Geranium|Geranium bourbon|Guatteriopsis blepharophylla|Hedyosmum costaricense|Helichrysum bracteiferum|Heracleum dissectum|Hypericum perforatum|Hyptis mutabilis|Hyptis suaveolens|Hyssopus officinalis|Illicium anisatum|Isodon rugosus|Laggera pterodonta|Lallemantia peltata|Leonotis leonurus|Leonurus heterophyllus|Lepidozia vitrea|Lippia dulcis|Lippia multiflora|Liquidambar styraciflua|Lonicera japonica|Marrubium parviflorum|Matricaria chamomilla|Melissa officinalis|Mentha|Mentha Piperita|Mentha aquatica|Mentha arvensis|Mentha arvensis L.|Mentha canadensis|Mentha piperita|Mentha piperita L.|Micromeria maderensis|Micromeria myrtifolia|Micromeria sinaica|Minthostachys glabrescens|Morina persica|Mosla cavaleriei|Mosla chinensis|Murraya exotica|Murraya paniculata|Nepeta caesarea|Nepeta nuda|Nepeta racemosa|Nepeta viscida|Ocimum gratissimum|Ocotea morae|Origanum|Origanum adanense|Origanum laevigatum|Origanum vulgare|Orthosiphon aristatus|Orthosiphon grandiflorus|Pelargonium citronellum|Pelargonium endlicherianum|Pelargonium ternifolium|Pelargonium vitifolium|Perilla frutescens|Peucedanum paniculatum|Peucedanum paniculatum L.|Philadelphia fleabane|Phyllanthus emblica|Pinus halepensis|Piper arboreum|Piper auritum|Piper fimbriulatum|Piper marginatum|Piper obliquum|Platostoma africanum|Prangos uloptera|Psidium friedrichsthalianum|Pycnanthemum floridanum|Quercus coccifera|Renealmia floribunda|Rhanterium epapposum|Rosmarinus Officinalis|Rosmarinus officinalis|Salvia absconditiflora|Salvia caespitosa|Salvia dorystaechas|Salvia ianthina|Salvia officinalis|Salvia sclarea|Salvia syriaca|Salvia tomentosa|Salvia vermifolia|Satureja spicigera|Satureja wiedemanniana|Schisandra chinensis|Scutellaria barbata|Sideritis amasiaca|Sideritis athoa|Sideritis brevidens|Sideritis chamaedryfolia|Sideritis dichotoma|Sideritis hirsuta|Sideritis hispida|Sideritis leucantha|Sideritis lyciae|Sideritis montana|Sideritis paulii|Sideritis rubriflora|Sideritis tragoriganum|Smallanthus maculatus|Solanum stuckertii|Solidago canadensis|Stachys aegyptiaca|Stachys recta|Tessaria fastigiata|Teucrium asiaticum|Teucrium cyprium|Teucrium kotschyanum|Teucrium micropodioides|Teucrium montanum|Teucrium oxylepis|Teucrium polium|Teucrium pseudoscorodonia|Teucrium salviastrum|Teucrium scorodonia|Thymus|Thymus camphoratus|Thymus funkii|Thymus longicaulis|Thymus longiflorus|Thymus quinquecostatus|Thymus riatarum|Thymus sibthorpii|Thymus thracicus|Thymus vulgaris|Thymus willkommii|Thymus zygioides|Toona ciliata|Uvaria chamae|Varronia curassavica|Vitex agnus-castus|Vitex negundo|basil|bellis perennis|candyleaf|common myrtle|common sunflower|potato

>  <collections>  (853) 
ANPDB|Australian natural products|CMAUP (cCollective molecular activities of useful plants)|FooDB|KNApSaCK|Latin America dataset|NANPDB (Natural Products from Northern African Sources)|NAPRORE-CR|NPASS|NuBBEDB|Super Natural II|TCMDB-Taiwan (Traditional Chinese Medicine database)|VietHerb|WikiData Natural Products

>  <dois>  (853) 
10.1002/(SICI)1099-1573(1998)12:1+<S117::AID-PTR269>3.0.CO;2-2|10.1002/(SICI)1099-1573(1998)12:1+<S92::AID-PTR261>3.0.CO;2-9|10.1002/1099-1026(200005/06)15:3<201::AID-FFJ893>3.0.CO;2-I|10.1002/CBDV.201700436|10.1002/ECE3.5390|10.1002/FFJ.1582|10.1002/FFJ.2730010103|10.1002/FFJ.2730020106|10.1002/FFJ.2730020110|10.1002/FFJ.2730030406|10.1002/FFJ.2730070111|10.1002/FFJ.2730100203|10.1002/FFJ.2730100313|10.1002/FFJ.2730100317|10.1002/FFJ.2730100609|10.1007/BF02238211|10.1007/BF02282508|10.1016/0031-6865(94)00054-Y|10.1016/0031-9422(90)85421-B|10.1016/0031-9422(91)83632-U|10.1016/0031-9422(95)00183-8|10.1016/0031-9422(95)00522-9|10.1016/0305-1978(92)90070-T|10.1016/0378-8741(91)90062-I|10.1016/J.BSE.2010.01.009|10.1016/J.CHROMA.2014.10.058|10.1016/J.FOODCHEM.2006.01.045|10.1016/J.FOODCHEM.2010.08.043|10.1016/J.FOODRES.2018.12.054|10.1016/J.INDCROP.2013.06.023|10.1016/J.INDCROP.2014.04.048|10.1016/J.INDCROP.2017.12.016|10.1016/J.LWT.2018.05.011|10.1016/J.PHYTOCHEM.2005.07.001|10.1016/J.PHYTOCHEM.2006.04.025|10.1016/J.PHYTOCHEM.2008.02.017|10.1016/J.PHYTOCHEM.2009.06.013|10.1016/S0021-9673(00)00231-4|10.1016/S0031-9422(00)80081-3|10.1016/S0031-9422(00)80325-8|10.1016/S0031-9422(00)84709-3|10.1016/S0031-9422(00)97558-7|10.1016/S0031-9422(01)00322-3|10.1016/S0031-9422(96)00559-6|10.1016/S0031-9422(96)00691-7|10.1016/S0031-9422(97)00117-9|10.1016/S0031-9422(97)00400-7|10.1016/S0031-9422(97)00762-0|10.1016/S0031-9422(97)01124-2|10.1016/S0367-326X(01)00367-7|10.1016/S0926-6690(03)00076-1|10.1021/JF00034A033|10.1021/JF950275B|10.1021/JF950540T|10.1021/NP50034A044|10.1021/NP50035A037|10.1021/NP50038A026|10.1021/NP50039A032|10.1021/NP50046A033|10.1021/NP960732Y|10.1021/jf011456i|10.1055/S-2000-9780|10.1055/S-2006-957489|10.1055/S-2006-959580|10.1055/S-2006-959673|10.1055/S-2006-959714|10.1055/S-2006-960872|10.1055/S-2006-962016|10.1055/S-2006-962018|10.1055/S-2006-962093|10.1055/S-2006-962450|10.1055/S-2006-962451|10.1055/S-2007-969136|10.1055/S-2007-969171|10.1055/S-2007-969897|10.1055/S-2007-969948|10.1076/1388-0209(200004)3821-1FT106|10.1076/PHBI.35.3.218.13295|10.1076/PHBI.40.1.67.5852|10.1080/0972060X.2010.10643892|10.1080/10412905.1989.9697801|10.1080/10412905.1990.9697840|10.1080/10412905.1990.9697845|10.1080/10412905.1990.9697864|10.1080/10412905.1991.9697905|10.1080/10412905.1991.9697930|10.1080/10412905.1991.9697971|10.1080/10412905.1991.9697974|10.1080/10412905.1991.9697985|10.1080/10412905.1991.9697994|10.1080/10412905.1991.9700500|10.1080/10412905.1992.9698015|10.1080/10412905.1992.9698043|10.1080/10412905.1992.9698053|10.1080/10412905.1992.9698054|10.1080/10412905.1992.9698067|10.1080/10412905.1992.9698069|10.1080/10412905.1992.9698070|10.1080/10412905.1992.9698083|10.1080/10412905.1992.9698087|10.1080/10412905.1992.9698095|10.1080/10412905.1992.9698125|10.1080/10412905.1992.9698139|10.1080/10412905.1992.9698144|10.1080/10412905.1992.9698149|10.1080/10412905.1993.9698164|10.1080/10412905.1993.9698184|10.1080/10412905.1993.9698205|10.1080/10412905.1993.9698209|10.1080/10412905.1993.9698214|10.1080/10412905.1993.9698222|10.1080/10412905.1993.9698230|10.1080/10412905.1993.9698253|10.1080/10412905.1993.9698254|10.1080/10412905.1993.9698303|10.1080/10412905.1993.9698309|10.1080/10412905.1994.9698316|10.1080/10412905.1994.9698337|10.1080/10412905.1994.9698359|10.1080/10412905.1994.9698380|10.1080/10412905.1994.9698402|10.1080/10412905.1994.9698409|10.1080/10412905.1994.9698418|10.1080/10412905.1994.9698435|10.1080/10412905.1994.9698440|10.1080/10412905.1994.9698442|10.1080/10412905.1994.9699348|10.1080/10412905.1994.9699361|10.1080/10412905.1995.9698473|10.1080/10412905.1995.9698478|10.1080/10412905.1995.9698479|10.1080/10412905.1995.9698496|10.1080/10412905.1995.9698501|10.1080/10412905.1995.9698508|10.1080/10412905.1995.9698531|10.1080/10412905.1995.9698555|10.1080/10412905.1995.9698591|10.1080/10412905.1995.9700523|10.1080/10412905.1995.9700536|10.1080/10412905.1996.9700554|10.1080/10412905.1996.9700567|10.1080/10412905.1996.9700568|10.1080/10412905.1996.9701028|10.1080/10412905.1996.9701048|10.1080/10412905.1997.9700728|10.1080/10412905.1997.9700774|10.1080/10412905.1998.9700856|10.1080/10412905.1998.9700913|10.1080/10412905.1998.9700962|10.1080/10412905.1999.9701111|10.1080/10412905.1999.9701138|10.1080/10412905.2000.9699564|10.1080/10412905.2000.9699569|10.1080/10412905.2000.9712191|10.1080/10412905.2001.9699620|10.1080/10412905.2002.9699883|10.1080/10412905.2004.9698740|10.1155/2017/7436259|10.1246/BCSJ.51.3395|10.1248/CPB.54.222|10.1271/BBB1961.45.507|10.1271/BBB1961.47.483|10.1590/S0103-50532000000600012|10.1590/S0103-50532011000400018|10.17678/BEUSCITECH.348447|10.2307/2423424|10.2478/V10007-009-0022-Y|10.3109/13880209109082875|10.3109/13880209109082877|10.3390/MOLECULES24112053

>  <synonyms>  (853) 
(-)-beta-Bourbonene|(1S,2R,6S,7R,8S)-1-methyl-5-methylidene-8-propan-2-yltricyclo[5.3.0.02,6]decane|(1S,3aS,3bR,6aS,6bR)-1-Isopropyl-3a-methyl-6-methylenedecahydrocyclobuta[1,2:3,4]di[5]annulene|.beta.-Bourbonene|1,2,3,3A,3B.BETA.,4,5,6,6A.BETA.,6B.ALPHA.-DECA-HYDRO-L.ALPHA.-ISOPROPYL-3AA-METHYL-6-METHYLENE-CYCLOBUTA (1,2:3,4) DICYCLOPENTENE|1,2,3,3a,3bbeta,4,5,6,6abeta,6balpha-decahydro-1alpha-isopropyl-3aalpha-methyl-6-methylenecyclobuta(1,2:3,4)dicyclopentene|5208-59-3|Bourbonene|Bourbonene, beta-|CYCLOBUTA(1,2:3,4)DICYCLOPENTENE, DECAHYDRO-3A-METHYL-6-METHYLENE-1-(1-METHYLETHYL)-, (1S,3AS,3BR,6AS,6BR)-|Cyclobuta(1,2:3,4)dicyclopentene, 1,2,3,3a,3bbeta,4,5,6,6abeta,6balpha-decahydro-1alpha-isopropyl-3aalpha-methyl-6-methylene|Cyclobuta(1,2:3,4)dicyclopentene, decahydro-3a-methyl-6-methylene-1-(1-methylethyl)-, (1S-(1alpha,3aalpha,3bbeta,6abeta,6balpha))-|Decahydro-3a-methyl-6-methylene-1-(1-methylethyl)cyclobuta(1,2:3,4)dicyclopentene, (1S-(1alpha,3aalpha,3bbeta,6abeta,6balpha))-|Decahydroisopropylmethylmethylenecyclobuta(1,2:3,4)dicyclopentene|KIZ51R7NTL|LMPR0103870001|NS00022284|NSC-288727|UNII-KIZ51R7NTL|\u221a\u00e9\u00ac\u2264-bourbonene|b-bourbonene|beta-bourbenene

>  <cas>  (853) 
5208-59-3

$$$$

     RDKit          2D

 29 29  0  0  0  0  0  0  0  0999 V2000
  -16.6750    0.0570    0.0000 C   0  0  0  0  0  0  0  0  0  0  0  0
  -15.3465    0.7536    0.0000 C   0  0  0  0  0  0  0  0  0  0  0  0
  -14.0791   -0.0486    0.0000 C   0  0  0  0  0  0  0  0  0  0  0  0
  -12.7506    0.6480    0.0000 C   0  0  0  0  0  0  0  0  0  0  0  0
  -11.4831   -0.1542    0.0000 C   0  0  0  0  0  0  0  0  0  0  0  0
  -10.1547    0.5424    0.0000 C   0  0  0  0  0  0  0  0  0  0  0  0
   -8.8872   -0.2597    0.0000 C   0  0  0  0  0  0  0  0  0  0  0  0
   -7.5587    0.4369    0.0000 C   0  0  0  0  0  0  0  0  0  0  0  0
   -6.2913   -0.3653    0.0000 C   0  0  0  0  0  0  0  0  0  0  0  0
   -4.9628    0.3313    0.0000 C   0  0  0  0  0  0  0  0  0  0  0  0
   -3.6953   -0.4709    0.0000 C   0  0  0  0  0  0  0  0  0  0  0  0
   -2.3669    0.2257    0.0000 C   0  0  0  0  0  0  0  0  0  0  0  0
   -1.0994   -0.5765    0.0000 C   0  0  0  0  0  0  0  0  0  0  0  0
    0.2290    0.1201    0.0000 C   0  0  0  0  0  0  0  0  0  0  0  0
    1.4965   -0.6821    0.0000 C   0  0  0  0  0  0  0  0  0  0  0  0
    2.8250    0.0145    0.0000 O   0  0  0  0  0  0  0  0  0  0  0  0
    4.0925   -0.7877    0.0000 C   0  0  0  0  0  0  0  0  0  0  0  0
    4.0315   -2.2864    0.0000 O   0  0  0  0  0  0  0  0  0  0  0  0
    5.4209   -0.0911    0.0000 C   0  0  0  0  0  0  0  0  0  0  0  0
    6.6884   -0.8932    0.0000 C   0  0  0  0  0  0  0  0  0  0  0  0
    8.0168   -0.1967    0.0000 C   0  0  0  0  0  0  0  0  0  0  0  0
    8.0778    1.3021    0.0000 C   0  0  0  0  0  0  0  0  0  0  0  0
    9.4062    1.9987    0.0000 C   0  0  0  0  0  0  0  0  0  0  0  0
   10.6737    1.1965    0.0000 C   0  0  0  0  0  0  0  0  0  0  0  0
   12.0022    1.8931    0.0000 O   0  0  0  0  0  0  0  0  0  0  0  0
   13.2697    1.0909    0.0000 C   0  0  0  0  0  0  0  0  0  0  0  0
   10.6128   -0.3022    0.0000 C   0  0  0  0  0  0  0  0  0  0  0  0
    9.2843   -0.9988    0.0000 C   0  0  0  0  0  0  0  0  0  0  0  0
    9.2234   -2.4976    0.0000 O   0  0  0  0  0  0  0  0  0  0  0  0
  1  2  1  0
  2  3  1  0
  3  4  1  0
  4  5  1  0
  5  6  1  0
  6  7  1  0
  7  8  1  0
  8  9  1  0
  9 10  1  0
 10 11  1  0
 11 12  1  0
 12 13  1  0
 13 14  1  0
 14 15  1  0
 15 16  1  0
 16 17  1  0
 17 18  2  0
 17 19  1  0
 19 20  2  0
 20 21  1  0
 21 22  2  0
 22 23  1  0
 23 24  2  0
 24 25  1  0
 25 26  1  0
 24 27  1  0
 27 28  2  0
 28 29  1  0
 28 21  1  0
M  END
>  <identifier>  (854) 
CNP0080341.1

>  <canonical_smiles>  (854) 
CCCCCCCCCCCCCCCOC(=O)/C=C/C1=CC=C(OC)C=C1O

>  <standard_inchi>  (854) 
InChI=1S/C25H40O4/c1-3-4-5-6-7-8-9-10-11-12-13-14-15-20-29-25(27)19-17-22-16-18-23(28-2)21-24(22)26/h16-19,21,26H,3-15,20H2,1-2H3/b19-17+

>  <standard_inchi_key>  (854) 
XWPARAOHLYLRLD-HTXNQAPBSA-N

>  <name>  (854) 
nan

>  <iupac_name>  (854) 
nan

>  <annotation_level>  (854) 
0

>  <total_atom_count>  (854) 
69

>  <heavy_atom_count>  (854) 
29

>  <molecular_weight>  (854) 
404.59

>  <exact_molecular_weight>  (854) 
404.29266

>  <molecular_formula>  (854) 
C25H40O4

>  <alogp>  (854) 
7.05

>  <topological_polar_surface_area>  (854) 
55.76

>  <rotatable_bond_count>  (854) 
17

>  <hydrogen_bond_acceptors>  (854) 
4

>  <hydrogen_bond_donors>  (854) 
1

>  <hydrogen_bond_acceptors_lipinski>  (854) 
4

>  <hydrogen_bond_donors_lipinski>  (854) 
1

>  <lipinski_rule_of_five_violations>  (854) 
1

>  <aromatic_rings_count>  (854) 
1

>  <qed_drug_likeliness>  (854) 
0.17

>  <formal_charge>  (854) 
0

>  <fractioncsp3>  (854) 
0.64

>  <number_of_minimal_rings>  (854) 
1

>  <van_der_walls_volume>  (854) 
422.81

>  <contains_sugar>  (854) 
False

>  <contains_ring_sugars>  (854) 
False

>  <contains_linear_sugars>  (854) 
False

>  <murcko_framework>  (854) 
c1ccccc1

>  <np_likeness>  (854) 
0.39

>  <chemical_class>  (854) 
nan

>  <chemical_sub_class>  (854) 
nan

>  <chemical_super_class>  (854) 
nan

>  <direct_parent_classification>  (854) 
nan

>  <np_classifier_pathway>  (854) 
Shikimates and Phenylpropanoids

>  <np_classifier_superclass>  (854) 
nan

>  <np_classifier_class>  (854) 
nan

>  <np_classifier_is_glycoside>  (854) 
False

>  <organisms>  (854) 
Raputia praetermissa

>  <collections>  (854) 
Latin America dataset|NuBBEDB|WikiData Natural Products|ZINC NP

>  <dois>  (854) 
10.1590/S0103-50532011000700021

>  <synonyms>  (854) 
nan

>  <cas>  (854) 
nan

$$$$

     RDKit          2D

 15 15  0  0  0  0  0  0  0  0999 V2000
   -6.3130    0.4859    0.0000 C   0  0  0  0  0  0  0  0  0  0  0  0
   -4.8682    0.8891    0.0000 C   0  0  0  0  0  0  0  0  0  0  0  0
   -3.7966   -0.1605    0.0000 C   0  0  0  0  0  0  0  0  0  0  0  0
   -2.3518    0.2427    0.0000 O   0  0  0  0  0  0  0  0  0  0  0  0
   -1.2802   -0.8069    0.0000 C   0  0  0  0  0  0  0  0  0  0  0  0
   -1.6534   -2.2597    0.0000 O   0  0  0  0  0  0  0  0  0  0  0  0
    0.1646   -0.4036    0.0000 C   0  0  0  0  0  0  0  0  0  0  0  0
    0.5377    1.0492    0.0000 C   0  0  0  0  0  0  0  0  0  0  0  0
    1.9825    1.4524    0.0000 C   0  0  0  0  0  0  0  0  0  0  0  0
    2.3557    2.9053    0.0000 O   0  0  0  0  0  0  0  0  0  0  0  0
    3.0541    0.4028    0.0000 C   0  0  0  0  0  0  0  0  0  0  0  0
    4.4989    0.8061    0.0000 O   0  0  0  0  0  0  0  0  0  0  0  0
    2.6810   -1.0500    0.0000 C   0  0  0  0  0  0  0  0  0  0  0  0
    3.7526   -2.0996    0.0000 O   0  0  0  0  0  0  0  0  0  0  0  0
    1.2362   -1.4532    0.0000 C   0  0  0  0  0  0  0  0  0  0  0  0
  1  2  1  0
  2  3  1  0
  3  4  1  0
  4  5  1  0
  5  6  2  0
  5  7  1  0
  7  8  2  0
  8  9  1  0
  9 10  1  0
  9 11  2  0
 11 12  1  0
 11 13  1  0
 13 14  1  0
 13 15  2  0
 15  7  1  0
M  END
>  <identifier>  (855) 
CNP0265257.0

>  <canonical_smiles>  (855) 
CCCOC(=O)C1=CC(O)=C(O)C(O)=C1

>  <standard_inchi>  (855) 
InChI=1S/C10H12O5/c1-2-3-15-10(14)6-4-7(11)9(13)8(12)5-6/h4-5,11-13H,2-3H2,1H3

>  <standard_inchi_key>  (855) 
ZTHYODDOHIVTJV-UHFFFAOYSA-N

>  <name>  (855) 
propyl gallate

>  <iupac_name>  (855) 
propyl 3,4,5-trihydroxybenzoate

>  <annotation_level>  (855) 
5

>  <total_atom_count>  (855) 
27

>  <heavy_atom_count>  (855) 
15

>  <molecular_weight>  (855) 
212.2

>  <exact_molecular_weight>  (855) 
212.06847

>  <molecular_formula>  (855) 
C10H12O5

>  <alogp>  (855) 
1.37

>  <topological_polar_surface_area>  (855) 
86.99

>  <rotatable_bond_count>  (855) 
3

>  <hydrogen_bond_acceptors>  (855) 
5

>  <hydrogen_bond_donors>  (855) 
3

>  <hydrogen_bond_acceptors_lipinski>  (855) 
5

>  <hydrogen_bond_donors_lipinski>  (855) 
3

>  <lipinski_rule_of_five_violations>  (855) 
0

>  <aromatic_rings_count>  (855) 
1

>  <qed_drug_likeliness>  (855) 
0.52

>  <formal_charge>  (855) 
0

>  <fractioncsp3>  (855) 
0.30

>  <number_of_minimal_rings>  (855) 
1

>  <van_der_walls_volume>  (855) 
188.25

>  <contains_sugar>  (855) 
False

>  <contains_ring_sugars>  (855) 
False

>  <contains_linear_sugars>  (855) 
False

>  <murcko_framework>  (855) 
c1ccccc1

>  <np_likeness>  (855) 
0.46

>  <chemical_class>  (855) 
Benzene and substituted derivatives

>  <chemical_sub_class>  (855) 
Benzoic acids and derivatives

>  <chemical_super_class>  (855) 
Benzenoids

>  <direct_parent_classification>  (855) 
p-Hydroxybenzoic acid alkyl esters

>  <np_classifier_pathway>  (855) 
Shikimates and Phenylpropanoids

>  <np_classifier_superclass>  (855) 
Phenolic acids (C6-C1)

>  <np_classifier_class>  (855) 
Shikimic acids and derivatives

>  <np_classifier_is_glycoside>  (855) 
False

>  <organisms>  (855) 
Aaptos aaptos|Aconitum nevadense|Alchornea glandulosa|Alseodaphne corneri|Annona impressivenia|Aspergillus unguis|Aulacocephalus temmincki|Bersama yangambiensis|Capparis spinosa|Castanopsis sclerophylla|Conocephalum japonicum|Cordylanthus kingii|Crinipellis scabella|Croton cumingii|Cystophora scalaris|Disynaphia halimifolia|Doodia picta|Eragrostis viscosa|Eunicella cavolinii|Forsteronia refracta|Fridericia chica|Grewia mollis|Gymnocarpium robertianum|Heliotropium floridum|Heterotheca grandiflora|Hovenia acerba|Juglans nigra|Kaempferia marginata|Kaunia saltensis|Mangifera indica|Narcissus concolor|Nauclea officinalis|Nocardia sp. NRRL 5646|Oncoba echinata|Ophiolepis superba|Papilio phorcas|Parabenzoin trilobum|Polycephalomyces nipponicus|Radix paeoniae rubra|Rubrivivax gelatinosus|Ruta pinnata|Salvia dorrii|Sophora angustifolia|Stevia polycephala|Streptomyces parvisporogenes|Teucrium depressum|Thymus piperella|Trichilia rubescens|maize

>  <collections>  (855) 
Australian natural products|BitterDB|CMAUP (cCollective molecular activities of useful plants)|ChemSpider NPs|DrugBankNP|FooDB|Latin America dataset|NPASS|NuBBEDB|Super Natural II|TCMID (Traditional Chinese Medicine Integrated Database)|UNPD (Universal Natural Products Database)|WikiData Natural Products

>  <dois>  (855) 
10.1016/0165-1218(84)90058-2|10.1016/j.indcrop.2015.07.040|10.1021/JF011064B|10.1021/JF100233Y|10.1021/jf100233y|10.1021/np020189n

>  <synonyms>  (855) 
121-79-9|3,4,5-Trihydroxy-benzoic acid propy|3,4,5-Trihydroxybenzene-1-propylcarboxylate|3,4,5-Trihydroxybenzoic acid propyl ester|5-Methyl-4,5-dihydrothiazole-2-thiol|56274-95-4|8D4SNN7V92|A19435|AC-11365|AC-34485|AI3-17136|AKOS001603853|AS-11986|Anhydrous propyl gallate (e 310)|BCP13340|BDBM50032154|BIDD:ER0334|Benzoic acid, 3,4,5-trihydroxy-, propyl ester|CAS-121-79-9|CBDivE_013134|CCG-207932|CCRIS 541|CHEBI:10607|CHEMBL7983|CS-0009059|D02382|DB-003766|DB-327302|DB12450|DTXCID901201|DTXSID5021201|E-310|E310|E80666|EFFF5FFA-651C-4DE3-A25F-D807C65D5537|EINECS 204-498-2|EU-0036319|FEMA 2947|FEMA No. 2947|G0018|Gallate, Propyl|Gallic acid, propyl ester|HSDB 591|HY-N0524|INS NO.310|INS-310|InChI=1\/C10H12O5\/c1-2-3-15-10(14)6-4-7(11)9(13)8(12)5-6\/h4-5,11-13H,2-3H2,1H|MFCD00002196|N-PROPYL ESTER OF 3,4,5- TRIHYDROXYBENZOIC ACID|N-Propyl gallate|NCGC00164234-01|NCGC00254138-01|NCGC00259835-01|NCI-C505888|NCI60_002094|NIPA 49|NS00013163|NSC 2626|NSC-2626|Nipagallin P|Nipanox S 1|Oprea1_580415|PROPYL GALLATE [EP MONOGRAPH]|PROPYL GALLATE [FCC]|PROPYL GALLATE [HSDB]|PROPYL GALLATE [II]|PROPYL GALLATE [MART.]|PROPYL GALLATE [USP-RS]|PROPYL GALLATE [VANDF]|PROPYL GALLATE [WHO-DD]|Progallin P|Propyl 3,4,5-trihydroxybenzoate|Propyl galiate|Propyl gallate (NF)|Propyl gallate (e 310)|Propyl gallate [NF]|Propyl gallate, 98%|Propyl gallate, >=98%, FCC|Propyl gallate, European Pharmacopoeia (EP) Reference Standard|Propyl gallate, Pharmaceutical Secondary Standard; Certified Reference Material|Propyl gallate, USP, 98.0-102.0%|Propyl gallate, United States Pharmacopeia (USP) Reference Standard|Propyl gallate, antioxidant, >=98.0% (HPLC)|Propyl gallate, for microscopy, >=98.0% (HPLC)|Propyl gallate, powder|Propylester kyseliny gallove|Propylester kyseliny gallove [Czech]|Propylgallate,(S)|Q-201634|Q608726|SCHEMBL22630|SR-01000944710|Sustane PG|Tenox PG|Tox21_113531|Tox21_202286|Tox21_300060|UNII-8D4SNN7V92|WLN: QR BQ CQ EVO3|l ester|n-Propyl ester of 3,4,5-trihydroxybenzoic acid|n-propyl-gallate|s5113

>  <cas>  (855) 
121-79-9|56274-95-4

$$$$

     RDKit          2D

 15 14  0  0  0  0  0  0  0  0999 V2000
   -9.0933   -0.3500    0.0000 C   0  0  0  0  0  0  0  0  0  0  0  0
   -7.7942    0.4000    0.0000 C   0  0  0  0  0  0  0  0  0  0  0  0
   -6.4952   -0.3500    0.0000 C   0  0  0  0  0  0  0  0  0  0  0  0
   -5.1962    0.4000    0.0000 C   0  0  0  0  0  0  0  0  0  0  0  0
   -3.8971   -0.3500    0.0000 C   0  0  0  0  0  0  0  0  0  0  0  0
   -2.5981    0.4000    0.0000 C   0  0  0  0  0  0  0  0  0  0  0  0
   -1.2990   -0.3500    0.0000 C   0  0  0  0  0  0  0  0  0  0  0  0
    0.0000    0.4000    0.0000 C   0  0  0  0  0  0  0  0  0  0  0  0
    1.2990   -0.3500    0.0000 C   0  0  0  0  0  0  0  0  0  0  0  0
    2.5981    0.4000    0.0000 C   0  0  0  0  0  0  0  0  0  0  0  0
    3.8971   -0.3500    0.0000 C   0  0  0  0  0  0  0  0  0  0  0  0
    5.1962    0.4000    0.0000 C   0  0  0  0  0  0  0  0  0  0  0  0
    6.4952   -0.3500    0.0000 C   0  0  0  0  0  0  0  0  0  0  0  0
    7.7942    0.4000    0.0000 C   0  0  0  0  0  0  0  0  0  0  0  0
    9.0933   -0.3500    0.0000 C   0  0  0  0  0  0  0  0  0  0  0  0
  1  2  2  0
  2  3  1  0
  3  4  1  0
  4  5  1  0
  5  6  1  0
  6  7  1  0
  7  8  1  0
  8  9  1  0
  9 10  1  0
 10 11  1  0
 11 12  1  0
 12 13  1  0
 13 14  1  0
 14 15  1  0
M  END
>  <identifier>  (856) 
CNP0103453.0

>  <canonical_smiles>  (856) 
C=CCCCCCCCCCCCCC

>  <standard_inchi>  (856) 
InChI=1S/C15H30/c1-3-5-7-9-11-13-15-14-12-10-8-6-4-2/h3H,1,4-15H2,2H3

>  <standard_inchi_key>  (856) 
PJLHTVIBELQURV-UHFFFAOYSA-N

>  <name>  (856) 
1-PENTADECENE

>  <iupac_name>  (856) 
pentadec-1-ene

>  <annotation_level>  (856) 
5

>  <total_atom_count>  (856) 
45

>  <heavy_atom_count>  (856) 
15

>  <molecular_weight>  (856) 
210.4

>  <exact_molecular_weight>  (856) 
210.23475

>  <molecular_formula>  (856) 
C15H30

>  <alogp>  (856) 
5.87

>  <topological_polar_surface_area>  (856) 
0.00

>  <rotatable_bond_count>  (856) 
12

>  <hydrogen_bond_acceptors>  (856) 
0

>  <hydrogen_bond_donors>  (856) 
0

>  <hydrogen_bond_acceptors_lipinski>  (856) 
0

>  <hydrogen_bond_donors_lipinski>  (856) 
0

>  <lipinski_rule_of_five_violations>  (856) 
1

>  <aromatic_rings_count>  (856) 
0

>  <qed_drug_likeliness>  (856) 
0.28

>  <formal_charge>  (856) 
0

>  <fractioncsp3>  (856) 
0.87

>  <number_of_minimal_rings>  (856) 
0

>  <van_der_walls_volume>  (856) 
255.68

>  <contains_sugar>  (856) 
False

>  <contains_ring_sugars>  (856) 
False

>  <contains_linear_sugars>  (856) 
False

>  <murcko_framework>  (856) 
nan

>  <np_likeness>  (856) 
0.68

>  <chemical_class>  (856) 
Unsaturated hydrocarbons

>  <chemical_sub_class>  (856) 
Olefins

>  <chemical_super_class>  (856) 
Hydrocarbons

>  <direct_parent_classification>  (856) 
Alkenes

>  <np_classifier_pathway>  (856) 
Fatty acids

>  <np_classifier_superclass>  (856) 
Fatty acyls

>  <np_classifier_class>  (856) 
Hydrocarbons

>  <np_classifier_is_glycoside>  (856) 
False

>  <organisms>  (856) 
Aldama helianthoides|Allium sativum|Aloe vera|Ammodaucus leucotrichus|Angelica dahurica|Arctium lappa|Asarum heterotropoides|Asarum sieboldii|Asarum takaoi|Asiasarum heterotropoides|Asiasarum sieboldii|Calotropis procera|Carthamus tinctorius|Caryocar coriaceum|Caulocystis cephalornithos|Centaurea solstitialis|Cirsium arvense|Cirsium dipsacolepis|Citrullus lanatus|Cleome gynandra|Codonopsis pilosula|Confused flour beetle|Culcitium canescens|Dendrobium fimbriatum var. oculatum|Echinacea pallida|Echinacea purpurea|Elaeis guineensis|Herba cirsii japonici|Herba seu radix cirsii japonici|Herrania cuatrecasana|Inula helenium|Nelumbo lutea|Nelumbo nucifera|Ophrys sphegodes|Oryza sativa|Panax ginseng|Radix cirsii japonici|Rehmannia glutinosa|Saussurea involucrata|Senecio isatideus|Streptomyces malaysiense|Streptomyces malaysiensis|Theobroma mammosum|Theobroma simiarum|Tribolium castaneum|Trichosanthes kirilowii|Trichosanthes rosthornii|Tussilago farfara|Uloma tenebrionoides|cacao|watermelon

>  <collections>  (856) 
ANPDB|Australian natural products|CMAUP (cCollective molecular activities of useful plants)|EMNPD|ETM (Ethiopian Traditional Medicine) DB|FooDB|Latin America dataset|NANPDB (Natural Products from Northern African Sources)|NPASS|NuBBEDB|StreptomeDB|Super Natural II|TCMDB-Taiwan (Traditional Chinese Medicine database)|TCMID (Traditional Chinese Medicine Integrated Database)|UNPD (Universal Natural Products Database)|Watermelon|WikiData Natural Products

>  <dois>  (856) 
10.1002/(SICI)1099-1565(199803/04)9:2<88::AID-PCA384>3.0.CO;2-4|10.1002/BMC.969|10.1007/BF00989557|10.1016/0031-9422(81)85228-4|10.1016/J.ARABJC.2013.09.013|10.1016/J.RENENE.2017.12.012|10.1016/S0031-9422(00)81276-5|10.1016/S0031-9422(00)81427-2|10.1016/S0031-9422(00)97558-7|10.1016/j.arabjc.2013.09.013|10.1017/S1742758400005282|10.1021/JF00048A056|10.1021/JF00071A004|10.1021/JF00083A034|10.1021/JF00120A031|10.1021/NP50052A041|10.1021/jf00120a031|10.1038/SREP24247|10.1038/srep24247|10.1071/CH9802097|10.1071/ch9802097|10.1080/10412905.1991.9697932|10.1080/10412905.1992.9698080|10.1248/YAKUSHI1947.112.8_571|10.1271/BBB1961.39.2207|10.1271/BBB1961.49.3145|10.1271/NOGEIKAGAKU1924.59.389|10.1515/ZNC-1982-1-202

>  <synonyms>  (856) 
1-Pentadecene, 98%|1-pentadecene|13360-61-7|27251-68-9|2M9QW46A8B|7H-PYRAZOLO[4,3-D]PYRIMIDIN-7-ONE,1,4-DIHYDRO-|AKOS015912787|AS-56500|C15H30|CCRIS 5721|CHEBI:77506|CS-0186359|D83561|DB-042190|DTXSID1065421|EINECS 236-414-5|EINECS 248-364-1|J-006413|KH577LIA74|LMFA11000327|MFCD00008987|NS00020262|NSC 77125|NSC-77125|P0627|PENTADECENE,1-|Pentadec-1-ene|Pentadecene|Q3374882|S0345|UNII-2M9QW46A8B|UNII-KH577LIA74

>  <cas>  (856) 
13360-61-7|27251-68-9

$$$$

     RDKit          2D

 41 44  0  0  0  0  0  0  0  0999 V2000
   -2.8813   -2.8406    0.0000 C   0  0  0  0  0  0  0  0  0  0  0  0
   -1.6684   -3.7232    0.0000 O   0  0  0  0  0  0  0  0  0  0  0  0
   -0.2976   -3.1140    0.0000 C   0  0  0  0  0  0  0  0  0  0  0  0
   -0.1398   -1.6223    0.0000 C   0  0  0  0  0  0  0  0  0  0  0  0
    1.2309   -1.0132    0.0000 C   0  0  0  0  0  0  0  0  0  0  0  0
    1.3888    0.4785    0.0000 C   0  0  0  0  0  0  0  0  0  0  0  0
    2.7595    1.0876    0.0000 C   0  0  0  0  0  0  0  0  0  0  0  0
    3.9724    0.2051    0.0000 C   0  0  0  0  0  0  0  0  0  0  0  0
    3.8146   -1.2866    0.0000 O   0  0  0  0  0  0  0  0  0  0  0  0
    5.0275   -2.1691    0.0000 C   0  0  0  0  0  0  0  0  0  0  0  0
    5.3432    0.8142    0.0000 C   0  0  0  0  0  0  0  0  0  0  0  0
    6.5561   -0.0683    0.0000 O   0  0  0  0  0  0  0  0  0  0  0  0
    5.5010    2.3059    0.0000 C   0  0  0  0  0  0  0  0  0  0  0  0
    6.8718    2.9151    0.0000 O   0  0  0  0  0  0  0  0  0  0  0  0
    7.0296    4.4067    0.0000 C   0  0  0  0  0  0  0  0  0  0  0  0
    4.2881    3.1884    0.0000 C   0  0  0  0  0  0  0  0  0  0  0  0
    2.9174    2.5793    0.0000 C   0  0  0  0  0  0  0  0  0  0  0  0
    1.7045    3.4618    0.0000 C   0  0  0  0  0  0  0  0  0  0  0  0
    0.3337    2.8527    0.0000 C   0  0  0  0  0  0  0  0  0  0  0  0
   -0.8792    3.7352    0.0000 C   0  0  0  0  0  0  0  0  0  0  0  0
   -0.7214    5.2269    0.0000 O   0  0  0  0  0  0  0  0  0  0  0  0
    0.1759    1.3610    0.0000 C   0  0  0  0  0  0  0  0  0  0  0  0
   -1.1949    0.7519    0.0000 C   0  0  0  0  0  0  0  0  0  0  0  0
   -2.4078    1.6344    0.0000 O   0  0  0  0  0  0  0  0  0  0  0  0
   -3.7785    1.0252    0.0000 C   0  0  0  0  0  0  0  0  0  0  0  0
   -4.9914    1.9078    0.0000 O   0  0  0  0  0  0  0  0  0  0  0  0
   -6.3622    1.2986    0.0000 C   0  0  0  0  0  0  0  0  0  0  0  0
   -7.5751    2.1812    0.0000 C   0  0  0  0  0  0  0  0  0  0  0  0
   -7.4172    3.6728    0.0000 O   0  0  0  0  0  0  0  0  0  0  0  0
   -6.5200   -0.1930    0.0000 C   0  0  0  0  0  0  0  0  0  0  0  0
   -7.8908   -0.8022    0.0000 O   0  0  0  0  0  0  0  0  0  0  0  0
   -5.3071   -1.0756    0.0000 C   0  0  0  0  0  0  0  0  0  0  0  0
   -5.4649   -2.5673    0.0000 O   0  0  0  0  0  0  0  0  0  0  0  0
   -3.9364   -0.4664    0.0000 C   0  0  0  0  0  0  0  0  0  0  0  0
   -2.7235   -1.3490    0.0000 O   0  0  0  0  0  0  0  0  0  0  0  0
    2.4438   -1.8957    0.0000 C   0  0  0  0  0  0  0  0  0  0  0  0
    2.2860   -3.3874    0.0000 C   0  0  0  0  0  0  0  0  0  0  0  0
    3.4989   -4.2699    0.0000 O   0  0  0  0  0  0  0  0  0  0  0  0
    3.3411   -5.7616    0.0000 C   0  0  0  0  0  0  0  0  0  0  0  0
    0.9153   -3.9965    0.0000 C   0  0  0  0  0  0  0  0  0  0  0  0
    0.7574   -5.4882    0.0000 O   0  0  0  0  0  0  0  0  0  0  0  0
  1  2  1  0
  2  3  1  0
  3  4  2  0
  4  5  1  0
  6  5  1  6
  6  7  1  0
  7  8  2  0
  8  9  1  0
  9 10  1  0
  8 11  1  0
 11 12  1  0
 11 13  2  0
 13 14  1  0
 14 15  1  0
 13 16  1  0
 16 17  2  0
 17 18  1  0
 18 19  1  0
 19 20  1  6
 20 21  1  0
 19 22  1  0
 22 23  1  1
 23 24  1  0
 25 24  1  1
 25 26  1  0
 26 27  1  0
 27 28  1  1
 28 29  1  0
 27 30  1  0
 30 31  1  6
 30 32  1  0
 32 33  1  1
 32 34  1  0
 34 35  1  6
  5 36  2  0
 36 37  1  0
 37 38  1  0
 38 39  1  0
 37 40  2  0
 40 41  1  0
 40  3  1  0
 22  6  1  0
 34 25  1  0
 17  7  1  0
M  END
>  <identifier>  (857) 
CNP0210130.1

>  <canonical_smiles>  (857) 
COC1=CC([C@H]2C3=C(OC)C(O)=C(OC)C=C3C[C@@H](CO)[C@@H]2CO[C@@H]2O[C@H](CO)[C@@H](O)[C@H](O)[C@H]2O)=CC(OC)=C1O

>  <standard_inchi>  (857) 
InChI=1S/C28H38O13/c1-36-16-7-13(8-17(37-2)22(16)31)20-15(11-40-28-26(35)25(34)23(32)19(10-30)41-28)14(9-29)5-12-6-18(38-3)24(33)27(39-4)21(12)20/h6-8,14-15,19-20,23,25-26,28-35H,5,9-11H2,1-4H3/t14-,15-,19+,20+,23+,25-,26+,28+/m0/s1

>  <standard_inchi_key>  (857) 
PQQRNPDHSJDAGV-HQSXISOASA-N

>  <name>  (857) 
(+)-Lyoniresinol 9'-O-glucoside

>  <iupac_name>  (857) 
(2~{R},3~{R},4~{S},5~{S},6~{R})-2-[[(1~{S},2~{R},3~{R})-7-hydroxy-1-(4-hydroxy-3,5-dimethoxy-phenyl)-3-(hydroxymethyl)-6,8-dimethoxy-tetralin-2-yl]methoxy]-6-(hydroxymethyl)tetrahydropyran-3,4,5-triol

>  <annotation_level>  (857) 
5

>  <total_atom_count>  (857) 
79

>  <heavy_atom_count>  (857) 
41

>  <molecular_weight>  (857) 
582.6

>  <exact_molecular_weight>  (857) 
582.23124

>  <molecular_formula>  (857) 
C28H38O13

>  <alogp>  (857) 
-0.14

>  <topological_polar_surface_area>  (857) 
196.99

>  <rotatable_bond_count>  (857) 
10

>  <hydrogen_bond_acceptors>  (857) 
13

>  <hydrogen_bond_donors>  (857) 
7

>  <hydrogen_bond_acceptors_lipinski>  (857) 
13

>  <hydrogen_bond_donors_lipinski>  (857) 
7

>  <lipinski_rule_of_five_violations>  (857) 
3

>  <aromatic_rings_count>  (857) 
2

>  <qed_drug_likeliness>  (857) 
0.20

>  <formal_charge>  (857) 
0

>  <fractioncsp3>  (857) 
0.57

>  <number_of_minimal_rings>  (857) 
4

>  <van_der_walls_volume>  (857) 
508.04

>  <contains_sugar>  (857) 
True

>  <contains_ring_sugars>  (857) 
True

>  <contains_linear_sugars>  (857) 
False

>  <murcko_framework>  (857) 
O1CCCCC1OCC2CCc3ccccc3C2c4ccccc4

>  <np_likeness>  (857) 
1.96

>  <chemical_class>  (857) 
Lignan glycosides

>  <chemical_sub_class>  (857) 
Lignan glycosides

>  <chemical_super_class>  (857) 
Lignans, neolignans and related compounds

>  <direct_parent_classification>  (857) 
Lignan glycosides

>  <np_classifier_pathway>  (857) 
Shikimates and Phenylpropanoids

>  <np_classifier_superclass>  (857) 
Lignans

>  <np_classifier_class>  (857) 
Arylnaphthalene and aryltetralin lignans

>  <np_classifier_is_glycoside>  (857) 
True

>  <organisms>  (857) 
Acanthus ebracteatus|Acanthus ilicifolius|Aegle marmelos|Alangium premnifolium|Alibertia sessilis|Avicennia marina|Barbarea verna|Barleria lupulina|Barnettia kerrii|Betula pendula|Betula platyphylla|Blitum virgatum|Chaenomeles sinensis|Cordiera sessilis|Embelia ribes|Fernandoa adenophylla|Hovenia trichocarpa|Lycium chinense|Markhamia stipulata|Myrsine africana|Orthocaulis attenuatus|Phyllogeiton zeyheri|Pseudocydonia sinensis|Psoroma crassum|Quillaja saponaria|Santisukia kerrii|Scabiosa pyrenaica|Stemmadenia minima|Stephania longa|Strobilanthes cusia|Strychnos vanprukii|Tabernaemontana robinsonii|Verbena brasiliensis|Walsura robusta|Zanthoxylum petiolare

>  <collections>  (857) 
Australian natural products|CMAUP (cCollective molecular activities of useful plants)|ChEBI NPs|ChemSpider NPs|ConMedNP|KNApSaCK|Latin America dataset|NPASS|NuBBEDB|PubChem NPs|Super Natural II|TCMDB-Taiwan (Traditional Chinese Medicine database)|TIPdb (database of Taiwan indigenous plants)|WikiData Natural Products|ZINC NP

>  <dois>  (857) 
10.1002/HLCA.200890234|10.1007/BF02977397|10.1016/0031-9422(95)00496-T|10.1016/J.FITOTE.2004.04.013|10.1016/S0031-9422(00)00362-9|10.1016/S0031-9422(00)89656-9|10.1016/S0031-9422(01)00212-6|10.1016/S0031-9422(01)00236-9|10.1016/S0031-9422(01)00306-5|10.1016/S0031-9422(01)00466-6|10.1016/S0031-9422(01)00476-9|10.1016/S0031-9422(03)00100-6|10.1016/S0031-9422(96)00879-5|10.1016/S0031-9422(98)00409-9|10.1016/S0960-894X(98)00528-9|10.1016/s0031-9422(00)00362-9|10.1016/s0031-9422(01)00306-5|10.1021/ACS.JNATPROD.5B00090|10.1021/NP060284M|10.1021/NP50043A037|10.1021/acs.jnatprod.5b00090|10.1021/np060284m|10.1055/S-2006-961451|10.1055/S-2008-1034318|10.1055/s-2006-961451|10.1055/s-2008-1034318|10.1080/14786410902819152|10.1248/CPB.42.1924|10.1248/CPB.51.1318|10.1248/CPB.52.1242|10.1248/CPB.54.1421|10.1248/CPB.58.415|10.1590/S0100-46702006000400008|10.1590/S0103-50532007000700017

>  <synonyms>  (857) 
(+)-Lyoniresinol 3|(+)-Lyoniresinol-3\u221a\u00e9\u00ac\u00b1-O-\u221a\u00e9\u00ac\u2264-glucopyranoside|(+)-lyoniresinol 9'-O-beta-D-glucopyranoside|(+)-lyoniresinol-3-alpha-O-beta-D-glucopyranoside|(2R,3R,4S,5S,6R)-2-[[(1S,2R,3R)-1-(3,5-dimethoxy-4-oxidanyl-phenyl)-3-(hydroxymethyl)-6,8-dimethoxy-7-oxidanyl-1,2,3,4-tetrahydronaphthalen-2-yl]methoxy]-6-(hydroxymethyl)oxane-3,4,5-triol|(2R,3R,4S,5S,6R)-2-[[(1S,2R,3R)-7-hydroxy-1-(4-hydroxy-3,5-dimethoxy-phenyl)-6,8-dimethoxy-3-methylol-tetralin-2-yl]methoxy]-6-methylol-tetrahydropyran-3,4,5-triol|(2R,3R,4S,5S,6R)-2-[[(1S,2R,3R)-7-hydroxy-1-(4-hydroxy-3,5-dimethoxyphenyl)-3-(hydroxymethyl)-6,8-dimethoxy-1,2,3,4-tetrahydronaphthalen-2-yl]methoxy]-6-(hydroxymethyl)oxane-3,4,5-triol|87585-32-8|A-D-glucopyranoside|A-O-|AKOS040762638|BDBM94838|CHEBI:66606|CHEMBL464198|CS-0016086|DTXSID101007668|E80679|FS-9487|HMS2268O23|HY-N0952|MLS000563029|Q27135222|SCHEMBL23203493|SMR001215805|[(1S,2R,3R)-7-hydroxy-1-(4-hydroxy-3,5-dimethoxyphenyl)-3-(hydroxymethyl)-6,8-dimethoxy-1,2,3,4-tetrahydronaphthalen-2-yl]methyl beta-D-glucopyranoside|cid_10483388|lyoniresinol glucoside|pteleifoside G

>  <cas>  (857) 
87585-32-8

$$$$

     RDKit          2D

 31 34  0  0  0  0  0  0  0  0999 V2000
   -1.8897    1.7296    0.0000 O   0  0  0  0  0  0  0  0  0  0  0  0
   -0.4069    1.5033    0.0000 C   0  0  0  0  0  0  0  0  0  0  0  0
    0.1385    0.1060    0.0000 C   0  0  0  0  0  0  0  0  0  0  0  0
   -0.7988   -1.0650    0.0000 O   0  0  0  0  0  0  0  0  0  0  0  0
   -2.2817   -0.8387    0.0000 C   0  0  0  0  0  0  0  0  0  0  0  0
   -2.8271    0.5586    0.0000 O   0  0  0  0  0  0  0  0  0  0  0  0
   -4.3100    0.7849    0.0000 C   0  0  0  0  0  0  0  0  0  0  0  0
   -5.2473   -0.3861    0.0000 C   0  0  0  0  0  0  0  0  0  0  0  0
   -6.7302   -0.1599    0.0000 O   0  0  0  0  0  0  0  0  0  0  0  0
   -4.7019   -1.7835    0.0000 C   0  0  0  0  0  0  0  0  0  0  0  0
   -5.6393   -2.9545    0.0000 O   0  0  0  0  0  0  0  0  0  0  0  0
   -3.2191   -2.0097    0.0000 C   0  0  0  0  0  0  0  0  0  0  0  0
   -2.6736   -3.4071    0.0000 O   0  0  0  0  0  0  0  0  0  0  0  0
    1.6214   -0.1203    0.0000 C   0  0  0  0  0  0  0  0  0  0  0  0
    2.1668   -1.5176    0.0000 C   0  0  0  0  0  0  0  0  0  0  0  0
    1.2294   -2.6886    0.0000 C   0  0  0  0  0  0  0  0  0  0  0  0
    1.7749   -4.0859    0.0000 C   0  0  0  0  0  0  0  0  0  0  0  0
    3.2577   -4.3122    0.0000 C   0  0  0  0  0  0  0  0  0  0  0  0
    3.8032   -5.7095    0.0000 O   0  0  0  0  0  0  0  0  0  0  0  0
    4.1951   -3.1412    0.0000 C   0  0  0  0  0  0  0  0  0  0  0  0
    5.6779   -3.3675    0.0000 O   0  0  0  0  0  0  0  0  0  0  0  0
    3.6497   -1.7439    0.0000 C   0  0  0  0  0  0  0  0  0  0  0  0
    2.5588    1.0508    0.0000 O   0  0  0  0  0  0  0  0  0  0  0  0
    2.0133    2.4481    0.0000 C   0  0  0  0  0  0  0  0  0  0  0  0
    2.9507    3.6191    0.0000 C   0  0  0  0  0  0  0  0  0  0  0  0
    2.4053    5.0164    0.0000 C   0  0  0  0  0  0  0  0  0  0  0  0
    3.3426    6.1875    0.0000 O   0  0  0  0  0  0  0  0  0  0  0  0
    0.9224    5.2427    0.0000 C   0  0  0  0  0  0  0  0  0  0  0  0
   -0.0150    4.0717    0.0000 C   0  0  0  0  0  0  0  0  0  0  0  0
   -1.4978    4.2980    0.0000 O   0  0  0  0  0  0  0  0  0  0  0  0
    0.5305    2.6744    0.0000 C   0  0  0  0  0  0  0  0  0  0  0  0
  1  2  2  0
  2  3  1  0
  3  4  1  0
  5  4  1  1
  5  6  1  0
  6  7  1  0
  7  8  1  0
  8  9  1  6
  8 10  1  0
 10 11  1  6
 10 12  1  0
 12 13  1  1
  3 14  2  0
 14 15  1  0
 15 16  2  0
 16 17  1  0
 17 18  2  0
 18 19  1  0
 18 20  1  0
 20 21  1  0
 20 22  2  0
 14 23  1  0
 23 24  1  0
 24 25  2  0
 25 26  1  0
 26 27  1  0
 26 28  2  0
 28 29  1  0
 29 30  1  0
 29 31  2  0
 31  2  1  0
 12  5  1  0
 22 15  1  0
 31 24  1  0
M  END
>  <identifier>  (858) 
CNP0388516.1

>  <canonical_smiles>  (858) 
O=C1C(O[C@@H]2OC[C@@H](O)[C@@H](O)[C@@H]2O)=C(C2=CC=C(O)C(O)=C2)OC2=CC(O)=CC(O)=C12

>  <standard_inchi>  (858) 
InChI=1S/C20H18O11/c21-8-4-11(24)14-13(5-8)30-18(7-1-2-9(22)10(23)3-7)19(16(14)27)31-20-17(28)15(26)12(25)6-29-20/h1-5,12,15,17,20-26,28H,6H2/t12-,15-,17+,20+/m1/s1

>  <standard_inchi_key>  (858) 
PZZRDJXEMZMZFD-VHICIVCISA-N

>  <name>  (858) 
2-(3,4-dihydroxyphenyl)-5,7-dihydroxy-3-[(2S,3S,4R,5R)-3,4,5-trihydroxyoxan-2-yl]oxychromen-4-one

>  <iupac_name>  (858) 
2-(3,4-dihydroxyphenyl)-5,7-dihydroxy-3-[(2~{S},3~{S},4~{R},5~{R})-3,4,5-trihydroxytetrahydropyran-2-yl]oxy-chromen-4-one

>  <annotation_level>  (858) 
5

>  <total_atom_count>  (858) 
49

>  <heavy_atom_count>  (858) 
31

>  <molecular_weight>  (858) 
434.35

>  <exact_molecular_weight>  (858) 
434.08491

>  <molecular_formula>  (858) 
C20H18O11

>  <alogp>  (858) 
0.10

>  <topological_polar_surface_area>  (858) 
190.28

>  <rotatable_bond_count>  (858) 
3

>  <hydrogen_bond_acceptors>  (858) 
11

>  <hydrogen_bond_donors>  (858) 
7

>  <hydrogen_bond_acceptors_lipinski>  (858) 
11

>  <hydrogen_bond_donors_lipinski>  (858) 
7

>  <lipinski_rule_of_five_violations>  (858) 
2

>  <aromatic_rings_count>  (858) 
3

>  <qed_drug_likeliness>  (858) 
0.28

>  <formal_charge>  (858) 
0

>  <fractioncsp3>  (858) 
0.25

>  <number_of_minimal_rings>  (858) 
4

>  <van_der_walls_volume>  (858) 
346.15

>  <contains_sugar>  (858) 
True

>  <contains_ring_sugars>  (858) 
True

>  <contains_linear_sugars>  (858) 
False

>  <murcko_framework>  (858) 
O1c2ccccc2CC(OC3OCCCC3)=C1c4ccccc4

>  <np_likeness>  (858) 
2.04

>  <chemical_class>  (858) 
Flavonoids

>  <chemical_sub_class>  (858) 
Flavonoid glycosides

>  <chemical_super_class>  (858) 
Phenylpropanoids and polyketides

>  <direct_parent_classification>  (858) 
Flavonoid-3-O-glycosides

>  <np_classifier_pathway>  (858) 
Shikimates and Phenylpropanoids

>  <np_classifier_superclass>  (858) 
Flavonoids

>  <np_classifier_class>  (858) 
Flavonols

>  <np_classifier_is_glycoside>  (858) 
True

>  <organisms>  (858) 
Acer truncatum|Anacyclus tomentosus|Annona crassiflora|Arum alpinum|Arum cylindraceum|Arum lucanum|Bacillus thuringiensis|Briareum violacea|Calodendrum capense|Croton caudatus|Cryptocarya aschersoniana|Elaeocarpus fuscoides|Geranium collinum|Hedysarum alpinum|Hedysarum inundatum|Hippospongia communis|Hypericum scabrum|Ixeris tamagawaensis|Jacobaea adonidifolia|Kalanchoe pinnata|Larix sibirica|Lechevalieria aerocolonigenes|Lepraria xanthina|Licania pittieri|Macaranga tanarius|Mangifera indica|Meconopsis horridula|Moquilea pyrifolia|Oxera splendida|Penicillium crustaceum|Pseudophryne coriacea|Ruditapes philippinarum|Sidastrum paniculatum|Siphoneugena densiflora|Solanum giganteum|Stevia purpurea|Streptomyces kanamyceticus|Streptomyces libani|Swartzia madagascariensis|Ungnadia speciosa|Vitex pinnata|Wolfiporia cocos|candyleaf

>  <collections>  (858) 
Australian natural products|CMAUP (cCollective molecular activities of useful plants)|ChemSpider NPs|Latin America dataset|NPASS|NuBBEDB|Super Natural II|WikiData Natural Products|ZINC NP

>  <dois>  (858) 
10.1002/ps.1278|10.1007/BF00565363|10.1007/BF00568608|10.1007/BF00569822|10.1007/BF00630415|10.1016/0031-6865(95)00027-7|10.1016/0031-6865(96)00009-X|10.1016/J.PHYTOCHEM.2009.07.020|10.1016/S0031-9422(00)00227-2|10.1016/j.indcrop.2017.10.057|10.1021/NP040024+|10.1080/14786410802447294|10.1080/14786419.2010.488625|10.1365/S10337-009-1338-Y

>  <synonyms>  (858) 
CHEMBL520637|Quercetin-3-O-\u221a\u00e9\u00ac\u00b1-L-arabinopyranoside, guiajaverin|SCHEMBL4226891

>  <cas>  (858) 
nan

$$$$

     RDKit          2D

 20 22  0  0  0  0  0  0  0  0999 V2000
    6.9899   -1.8523    0.0000 O   0  0  0  0  0  0  0  0  0  0  0  0
    5.7006   -1.0857    0.0000 C   0  0  0  0  0  0  0  0  0  0  0  0
    4.3920   -1.8190    0.0000 C   0  0  0  0  0  0  0  0  0  0  0  0
    3.1027   -1.0524    0.0000 C   0  0  0  0  0  0  0  0  0  0  0  0
    3.1220    0.4475    0.0000 C   0  0  0  0  0  0  0  0  0  0  0  0
    1.8326    1.2141    0.0000 C   0  0  0  0  0  0  0  0  0  0  0  0
    0.5241    0.4808    0.0000 C   0  0  0  0  0  0  0  0  0  0  0  0
   -0.7652    1.2474    0.0000 C   0  0  0  0  0  0  0  0  0  0  0  0
   -2.0738    0.5141    0.0000 C   0  0  0  0  0  0  0  0  0  0  0  0
   -2.0930   -0.9857    0.0000 C   0  0  0  0  0  0  0  0  0  0  0  0
   -3.4016   -1.7190    0.0000 C   0  0  0  0  0  0  0  0  0  0  0  0
   -4.6909   -0.9524    0.0000 C   0  0  0  0  0  0  0  0  0  0  0  0
   -6.1233   -1.3976    0.0000 O   0  0  0  0  0  0  0  0  0  0  0  0
   -6.9893   -0.1729    0.0000 C   0  0  0  0  0  0  0  0  0  0  0  0
   -6.0922    1.0293    0.0000 O   0  0  0  0  0  0  0  0  0  0  0  0
   -4.6716    0.5475    0.0000 C   0  0  0  0  0  0  0  0  0  0  0  0
   -3.3631    1.2807    0.0000 C   0  0  0  0  0  0  0  0  0  0  0  0
    4.4305    1.1808    0.0000 C   0  0  0  0  0  0  0  0  0  0  0  0
    4.4497    2.6806    0.0000 O   0  0  0  0  0  0  0  0  0  0  0  0
    5.7198    0.4142    0.0000 C   0  0  0  0  0  0  0  0  0  0  0  0
  1  2  1  0
  2  3  2  0
  3  4  1  0
  4  5  2  0
  5  6  1  0
  6  7  1  0
  7  8  1  0
  8  9  1  0
  9 10  2  0
 10 11  1  0
 11 12  2  0
 12 13  1  0
 13 14  1  0
 14 15  1  0
 15 16  1  0
 16 17  2  0
  5 18  1  0
 18 19  1  0
 18 20  2  0
 20  2  1  0
 17  9  1  0
 16 12  1  0
M  END
>  <identifier>  (859) 
CNP0318495.0

>  <canonical_smiles>  (859) 
OC1=CC=C(CCCC2=CC=C3OCOC3=C2)C(O)=C1

>  <standard_inchi>  (859) 
InChI=1S/C16H16O4/c17-13-6-5-12(14(18)9-13)3-1-2-11-4-7-15-16(8-11)20-10-19-15/h4-9,17-18H,1-3,10H2

>  <standard_inchi_key>  (859) 
GPQWKEMAMHFAFC-UHFFFAOYSA-N

>  <name>  (859) 
MEGxp0_001222

>  <iupac_name>  (859) 
4-[3-(1,3-benzodioxol-5-yl)propyl]benzene-1,3-diol

>  <annotation_level>  (859) 
5

>  <total_atom_count>  (859) 
36

>  <heavy_atom_count>  (859) 
20

>  <molecular_weight>  (859) 
272.3

>  <exact_molecular_weight>  (859) 
272.10486

>  <molecular_formula>  (859) 
C16H16O4

>  <alogp>  (859) 
3.00

>  <topological_polar_surface_area>  (859) 
58.92

>  <rotatable_bond_count>  (859) 
4

>  <hydrogen_bond_acceptors>  (859) 
4

>  <hydrogen_bond_donors>  (859) 
2

>  <hydrogen_bond_acceptors_lipinski>  (859) 
4

>  <hydrogen_bond_donors_lipinski>  (859) 
2

>  <lipinski_rule_of_five_violations>  (859) 
0

>  <aromatic_rings_count>  (859) 
2

>  <qed_drug_likeliness>  (859) 
0.90

>  <formal_charge>  (859) 
0

>  <fractioncsp3>  (859) 
0.25

>  <number_of_minimal_rings>  (859) 
3

>  <van_der_walls_volume>  (859) 
nan

>  <contains_sugar>  (859) 
False

>  <contains_ring_sugars>  (859) 
False

>  <contains_linear_sugars>  (859) 
False

>  <murcko_framework>  (859) 
O1c2ccc(cc2OC1)CCCc3ccccc3

>  <np_likeness>  (859) 
0.68

>  <chemical_class>  (859) 
Benzodioxoles

>  <chemical_sub_class>  (859) 
Benzodioxoles

>  <chemical_super_class>  (859) 
Organoheterocyclic compounds

>  <direct_parent_classification>  (859) 
Benzodioxoles

>  <np_classifier_pathway>  (859) 
Shikimates and Phenylpropanoids

>  <np_classifier_superclass>  (859) 
Lignans

>  <np_classifier_class>  (859) 
nan

>  <np_classifier_is_glycoside>  (859) 
False

>  <organisms>  (859) 
Iryanthera polyneura

>  <collections>  (859) 
Latin America dataset|NuBBEDB|UNPD (Universal Natural Products Database)|WikiData Natural Products|ZINC NP

>  <dois>  (859) 
10.1016/S0031-9422(00)91467-5

>  <synonyms>  (859) 
13-diarylpropane|ACon1_001109|BRD-K65500363-001-01-5|NCGC00169668-01

>  <cas>  (859) 
nan

$$$$

     RDKit          2D

 32 35  0  0  0  0  0  0  0  0999 V2000
   -1.9354    4.4002    0.0000 C   0  0  0  0  0  0  0  0  0  0  0  0
   -1.6676    2.9243    0.0000 O   0  0  0  0  0  0  0  0  0  0  0  0
   -2.8119    1.9544    0.0000 C   0  0  0  0  0  0  0  0  0  0  0  0
   -4.2239    2.4605    0.0000 O   0  0  0  0  0  0  0  0  0  0  0  0
   -2.5441    0.4785    0.0000 C   0  0  0  0  0  0  0  0  0  0  0  0
   -3.6884   -0.4913    0.0000 C   0  0  0  0  0  0  0  0  0  0  0  0
   -3.4206   -1.9672    0.0000 C   0  0  0  0  0  0  0  0  0  0  0  0
   -2.0085   -2.4733    0.0000 C   0  0  0  0  0  0  0  0  0  0  0  0
   -0.8642   -1.5034    0.0000 C   0  0  0  0  0  0  0  0  0  0  0  0
   -1.1320   -0.0275    0.0000 C   0  0  0  0  0  0  0  0  0  0  0  0
    0.0123    0.9424    0.0000 C   0  0  0  0  0  0  0  0  0  0  0  0
   -0.2555    2.4183    0.0000 O   0  0  0  0  0  0  0  0  0  0  0  0
    0.8887    3.3881    0.0000 C   0  0  0  0  0  0  0  0  0  0  0  0
    0.6209    4.8640    0.0000 C   0  0  0  0  0  0  0  0  0  0  0  0
    2.3008    2.8821    0.0000 O   0  0  0  0  0  0  0  0  0  0  0  0
    1.4243    0.4363    0.0000 C   0  0  0  0  0  0  0  0  0  0  0  0
    2.5686    1.4062    0.0000 O   0  0  0  0  0  0  0  0  0  0  0  0
    3.9807    0.9001    0.0000 C   0  0  0  0  0  0  0  0  0  0  0  0
    5.1249    1.8700    0.0000 C   0  0  0  0  0  0  0  0  0  0  0  0
    4.2484   -0.5758    0.0000 O   0  0  0  0  0  0  0  0  0  0  0  0
    1.6921   -1.0396    0.0000 C   0  0  0  0  0  0  0  0  0  0  0  0
    3.1042   -1.5456    0.0000 C   0  0  0  0  0  0  0  0  0  0  0  0
    4.6042   -1.5382    0.0000 C   0  0  0  0  0  0  0  0  0  0  0  0
    3.3573   -0.0671    0.0000 C   0  0  0  0  0  0  0  0  0  0  0  0
    3.3720   -3.0215    0.0000 C   0  0  0  0  0  0  0  0  0  0  0  0
    2.2277   -3.9914    0.0000 C   0  0  0  0  0  0  0  0  0  0  0  0
    0.8156   -3.4854    0.0000 C   0  0  0  0  0  0  0  0  0  0  0  0
    0.5478   -2.0095    0.0000 C   0  0  0  0  0  0  0  0  0  0  0  0
   -0.5964   -2.9793    0.0000 C   0  0  0  0  0  0  0  0  0  0  0  0
   -4.7415   -2.6780    0.0000 O   0  0  0  0  0  0  0  0  0  0  0  0
   -5.8256   -1.6414    0.0000 C   0  0  0  0  0  0  0  0  0  0  0  0
   -5.1748   -0.2899    0.0000 C   0  0  0  0  0  0  0  0  0  0  0  0
  1  2  1  0
  2  3  1  0
  3  4  2  0
  5  3  1  1
  5  6  1  0
  6  7  2  0
  7  8  1  0
  9  8  1  1
  9 10  1  0
 10 11  1  0
 11 12  1  1
 12 13  1  0
 13 14  1  0
 13 15  2  0
 11 16  1  0
 16 17  1  6
 17 18  1  0
 18 19  1  0
 18 20  2  0
 16 21  1  0
 21 22  1  1
 22 23  1  0
 22 24  1  0
 22 25  1  0
 25 26  1  0
 26 27  1  0
 27 28  1  0
 28 29  1  1
  7 30  1  0
 30 31  1  0
 31 32  2  0
 10  5  1  6
 28 21  1  0
 32  6  1  0
 28  9  1  0
M  END
>  <identifier>  (860) 
CNP0108897.1

>  <canonical_smiles>  (860) 
COC(=O)[C@@H]1C2=C(C[C@H]3[C@H]1[C@@H](OC(C)=O)[C@H](OC(C)=O)[C@H]1C(C)(C)CCC[C@]31C)OC=C2

>  <standard_inchi>  (860) 
InChI=1S/C25H34O7/c1-13(26)31-20-19-16(12-17-15(8-11-30-17)18(19)23(28)29-6)25(5)10-7-9-24(3,4)22(25)21(20)32-14(2)27/h8,11,16,18-22H,7,9-10,12H2,1-6H3/t16-,18+,19+,20+,21-,22-,25+/m0/s1

>  <standard_inchi_key>  (860) 
YZXSILAXXNXXDW-IISRAJEVSA-N

>  <name>  (860) 
nan

>  <iupac_name>  (860) 
methyl (4~{a}~{S},5~{R},6~{R},6~{a}~{R},7~{S},11~{a}~{S},11~{b}~{R})-5,6-diacetoxy-4,4,11~{b}-trimethyl-1,2,3,4~{a},5,6,6~{a},7,11,11~{a}-decahydronaphtho[2,1-f]benzofuran-7-carboxylate

>  <annotation_level>  (860) 
4

>  <total_atom_count>  (860) 
66

>  <heavy_atom_count>  (860) 
32

>  <molecular_weight>  (860) 
446.54

>  <exact_molecular_weight>  (860) 
446.23045

>  <molecular_formula>  (860) 
C25H34O7

>  <alogp>  (860) 
4.03

>  <topological_polar_surface_area>  (860) 
92.04

>  <rotatable_bond_count>  (860) 
3

>  <hydrogen_bond_acceptors>  (860) 
7

>  <hydrogen_bond_donors>  (860) 
0

>  <hydrogen_bond_acceptors_lipinski>  (860) 
7

>  <hydrogen_bond_donors_lipinski>  (860) 
0

>  <lipinski_rule_of_five_violations>  (860) 
0

>  <aromatic_rings_count>  (860) 
1

>  <qed_drug_likeliness>  (860) 
0.51

>  <formal_charge>  (860) 
0

>  <fractioncsp3>  (860) 
0.72

>  <number_of_minimal_rings>  (860) 
4

>  <van_der_walls_volume>  (860) 
nan

>  <contains_sugar>  (860) 
False

>  <contains_ring_sugars>  (860) 
False

>  <contains_linear_sugars>  (860) 
False

>  <murcko_framework>  (860) 
o1ccc2c1CC3C(C2)CCC4CCCCC43

>  <np_likeness>  (860) 
2.20

>  <chemical_class>  (860) 
Prenol lipids

>  <chemical_sub_class>  (860) 
Diterpenoids

>  <chemical_super_class>  (860) 
Lipids and lipid-like molecules

>  <direct_parent_classification>  (860) 
Diterpenoids

>  <np_classifier_pathway>  (860) 
Terpenoids

>  <np_classifier_superclass>  (860) 
Diterpenoids

>  <np_classifier_class>  (860) 
Cassane diterpenoids

>  <np_classifier_is_glycoside>  (860) 
False

>  <organisms>  (860) 
Pterodon emarginatus|Pterodon pubescens

>  <collections>  (860) 
Latin America dataset|NuBBEDB|WikiData Natural Products|ZINC NP

>  <dois>  (860) 
10.1016/S0031-9422(00)89084-6

>  <synonyms>  (860) 
Methyl 6\u221a\u00e9\u00ac\u00b17\u221a\u00e9\u00ac\u2264-diacetoxyvouacapan-14\u221a\u00e9\u00ac\u2264-oate

>  <cas>  (860) 
nan

$$$$

     RDKit          2D

 28 31  0  0  0  0  0  0  0  0999 V2000
    4.8018    4.1356    0.0000 C   0  0  0  0  0  0  0  0  0  0  0  0
    4.5357    2.6594    0.0000 C   0  0  0  0  0  0  0  0  0  0  0  0
    3.1242    2.1518    0.0000 C   0  0  0  0  0  0  0  0  0  0  0  0
    2.8581    0.6756    0.0000 C   0  0  0  0  0  0  0  0  0  0  0  0
    4.0035   -0.2930    0.0000 C   0  0  0  0  0  0  0  0  0  0  0  0
    3.7374   -1.7692    0.0000 C   0  0  0  0  0  0  0  0  0  0  0  0
    4.8828   -2.7377    0.0000 O   0  0  0  0  0  0  0  0  0  0  0  0
    2.3259   -2.2769    0.0000 C   0  0  0  0  0  0  0  0  0  0  0  0
    2.0599   -3.7531    0.0000 O   0  0  0  0  0  0  0  0  0  0  0  0
    1.1806   -1.3083    0.0000 C   0  0  0  0  0  0  0  0  0  0  0  0
   -0.2309   -1.8160    0.0000 O   0  0  0  0  0  0  0  0  0  0  0  0
   -0.4970   -3.2922    0.0000 C   0  0  0  0  0  0  0  0  0  0  0  0
    1.4466    0.1679    0.0000 C   0  0  0  0  0  0  0  0  0  0  0  0
    0.3012    1.1364    0.0000 O   0  0  0  0  0  0  0  0  0  0  0  0
    0.5009    0.0974    0.0000 C   0  0  0  0  0  0  0  0  0  0  0  0
   -0.9950    0.2077    0.0000 C   0  0  0  0  0  0  0  0  0  0  0  0
   -1.8385   -1.0327    0.0000 C   0  0  0  0  0  0  0  0  0  0  0  0
   -3.3344   -0.9224    0.0000 C   0  0  0  0  0  0  0  0  0  0  0  0
   -4.1780   -2.1627    0.0000 O   0  0  0  0  0  0  0  0  0  0  0  0
   -3.5255   -3.5134    0.0000 C   0  0  0  0  0  0  0  0  0  0  0  0
   -3.9869    0.4283    0.0000 C   0  0  0  0  0  0  0  0  0  0  0  0
   -5.4272    0.8473    0.0000 O   0  0  0  0  0  0  0  0  0  0  0  0
   -5.4738    2.3465    0.0000 C   0  0  0  0  0  0  0  0  0  0  0  0
   -4.0623    2.8542    0.0000 O   0  0  0  0  0  0  0  0  0  0  0  0
   -3.1434    1.6687    0.0000 C   0  0  0  0  0  0  0  0  0  0  0  0
   -1.6474    1.5584    0.0000 C   0  0  0  0  0  0  0  0  0  0  0  0
    1.4695    1.2428    0.0000 C   0  0  0  0  0  0  0  0  0  0  0  0
    1.1121    2.6996    0.0000 C   0  0  0  0  0  0  0  0  0  0  0  0
  1  2  2  0
  2  3  1  0
  4  3  1  1
  4  5  1  0
  5  6  1  0
  6  7  2  0
  6  8  1  0
  8  9  1  0
  8 10  1  0
 10 11  1  1
 11 12  1  0
 10 13  1  0
 13 14  1  0
 10 15  1  0
 15 16  1  1
 16 17  2  0
 17 18  1  0
 18 19  1  0
 19 20  1  0
 18 21  2  0
 21 22  1  0
 22 23  1  0
 23 24  1  0
 24 25  1  0
 25 26  2  0
 15 27  1  0
 27 28  1  6
 13  4  1  0
 26 16  1  0
 27  4  1  0
 25 21  1  0
M  END
>  <identifier>  (861) 
CNP0212404.2

>  <canonical_smiles>  (861) 
C=CC[C@@]12CC(=O)C(O)[C@@](OC)(C1O)[C@@H](C1=CC(OC)=C3OCOC3=C1)[C@@H]2C

>  <standard_inchi>  (861) 
InChI=1S/C21H26O7/c1-5-6-20-9-13(22)18(23)21(26-4,19(20)24)16(11(20)2)12-7-14(25-3)17-15(8-12)27-10-28-17/h5,7-8,11,16,18-19,23-24H,1,6,9-10H2,2-4H3/t11-,16+,18?,19?,20-,21+/m0/s1

>  <standard_inchi_key>  (861) 
LZOZNNUTUVJVDZ-HOLZPWSASA-N

>  <name>  (861) 
nan

>  <iupac_name>  (861) 
(1~{S},5~{S},6~{S},7~{R})-5-allyl-2,8-dihydroxy-1-methoxy-7-(7-methoxy-1,3-benzodioxol-5-yl)-6-methyl-bicyclo[3.2.1]octan-3-one

>  <annotation_level>  (861) 
4

>  <total_atom_count>  (861) 
54

>  <heavy_atom_count>  (861) 
28

>  <molecular_weight>  (861) 
390.43

>  <exact_molecular_weight>  (861) 
390.16785

>  <molecular_formula>  (861) 
C21H26O7

>  <alogp>  (861) 
1.80

>  <topological_polar_surface_area>  (861) 
94.45

>  <rotatable_bond_count>  (861) 
5

>  <hydrogen_bond_acceptors>  (861) 
7

>  <hydrogen_bond_donors>  (861) 
2

>  <hydrogen_bond_acceptors_lipinski>  (861) 
7

>  <hydrogen_bond_donors_lipinski>  (861) 
2

>  <lipinski_rule_of_five_violations>  (861) 
0

>  <aromatic_rings_count>  (861) 
1

>  <qed_drug_likeliness>  (861) 
0.74

>  <formal_charge>  (861) 
0

>  <fractioncsp3>  (861) 
0.57

>  <number_of_minimal_rings>  (861) 
4

>  <van_der_walls_volume>  (861) 
nan

>  <contains_sugar>  (861) 
False

>  <contains_ring_sugars>  (861) 
False

>  <contains_linear_sugars>  (861) 
False

>  <murcko_framework>  (861) 
O1c2ccc(cc2OC1)C3CC4CCCC3C4

>  <np_likeness>  (861) 
2.20

>  <chemical_class>  (861) 
Benzodioxoles

>  <chemical_sub_class>  (861) 
Benzodioxoles

>  <chemical_super_class>  (861) 
Organoheterocyclic compounds

>  <direct_parent_classification>  (861) 
Benzodioxoles

>  <np_classifier_pathway>  (861) 
Shikimates and Phenylpropanoids

>  <np_classifier_superclass>  (861) 
Lignans

>  <np_classifier_class>  (861) 
Neolignans

>  <np_classifier_is_glycoside>  (861) 
False

>  <organisms>  (861) 
Ocotea catharinensis

>  <collections>  (861) 
Latin America dataset|NuBBEDB|WikiData Natural Products

>  <dois>  (861) 
10.1016/0031-9422(83)83046-5

>  <synonyms>  (861) 
5'-methoxycanellin-C

>  <cas>  (861) 
nan

$$$$

     RDKit          2D

 35 37  0  0  0  0  0  0  0  0999 V2000
   -7.8000    2.7149    0.0000 C   0  0  0  0  0  0  0  0  0  0  0  0
   -6.9590    1.4729    0.0000 C   0  0  0  0  0  0  0  0  0  0  0  0
   -5.4628    1.5802    0.0000 O   0  0  0  0  0  0  0  0  0  0  0  0
   -4.6218    0.3382    0.0000 C   0  0  0  0  0  0  0  0  0  0  0  0
   -5.2769   -1.0112    0.0000 C   0  0  0  0  0  0  0  0  0  0  0  0
   -6.7730   -1.1185    0.0000 O   0  0  0  0  0  0  0  0  0  0  0  0
   -7.4281   -2.4679    0.0000 C   0  0  0  0  0  0  0  0  0  0  0  0
   -4.4358   -2.2532    0.0000 C   0  0  0  0  0  0  0  0  0  0  0  0
   -2.9397   -2.1459    0.0000 C   0  0  0  0  0  0  0  0  0  0  0  0
   -2.2846   -0.7965    0.0000 C   0  0  0  0  0  0  0  0  0  0  0  0
   -0.7884   -0.6892    0.0000 C   0  0  0  0  0  0  0  0  0  0  0  0
    0.0526   -1.9312    0.0000 C   0  0  0  0  0  0  0  0  0  0  0  0
   -0.6025   -3.2806    0.0000 O   0  0  0  0  0  0  0  0  0  0  0  0
   -2.0986   -3.3879    0.0000 C   0  0  0  0  0  0  0  0  0  0  0  0
    1.5488   -1.8238    0.0000 C   0  0  0  0  0  0  0  0  0  0  0  0
    2.3898   -3.0659    0.0000 O   0  0  0  0  0  0  0  0  0  0  0  0
    2.2039   -0.4745    0.0000 C   0  0  0  0  0  0  0  0  0  0  0  0
    3.7000   -0.3671    0.0000 C   0  0  0  0  0  0  0  0  0  0  0  0
    4.5411   -1.6091    0.0000 O   0  0  0  0  0  0  0  0  0  0  0  0
    6.0372   -1.5018    0.0000 C   0  0  0  0  0  0  0  0  0  0  0  0
    6.8783   -2.7438    0.0000 C   0  0  0  0  0  0  0  0  0  0  0  0
    4.3552    0.9823    0.0000 C   0  0  0  0  0  0  0  0  0  0  0  0
    5.8513    1.0896    0.0000 O   0  0  0  0  0  0  0  0  0  0  0  0
    6.6924   -0.1524    0.0000 C   0  0  0  0  0  0  0  0  0  0  0  0
    8.1885   -0.0451    0.0000 C   0  0  0  0  0  0  0  0  0  0  0  0
    3.5141    2.2243    0.0000 C   0  0  0  0  0  0  0  0  0  0  0  0
    4.1692    3.5737    0.0000 O   0  0  0  0  0  0  0  0  0  0  0  0
    5.6654    3.6810    0.0000 C   0  0  0  0  0  0  0  0  0  0  0  0
    2.0180    2.1170    0.0000 C   0  0  0  0  0  0  0  0  0  0  0  0
    1.3628    0.7676    0.0000 C   0  0  0  0  0  0  0  0  0  0  0  0
   -0.1333    0.6602    0.0000 O   0  0  0  0  0  0  0  0  0  0  0  0
   -3.1256    0.4455    0.0000 C   0  0  0  0  0  0  0  0  0  0  0  0
   -2.4705    1.7949    0.0000 O   0  0  0  0  0  0  0  0  0  0  0  0
   -3.3115    3.0370    0.0000 C   0  0  0  0  0  0  0  0  0  0  0  0
   -2.6564    4.3863    0.0000 C   0  0  0  0  0  0  0  0  0  0  0  0
  1  2  1  0
  2  3  1  0
  3  4  1  0
  4  5  2  0
  5  6  1  0
  6  7  1  0
  5  8  1  0
  8  9  2  0
  9 10  1  0
 10 11  1  0
 11 12  2  0
 12 13  1  0
 13 14  1  0
 12 15  1  0
 15 16  2  0
 15 17  1  0
 17 18  2  0
 18 19  1  0
 19 20  1  0
 20 21  1  0
 18 22  1  0
 22 23  1  0
 23 24  1  0
 24 25  1  0
 22 26  2  0
 26 27  1  0
 27 28  1  0
 26 29  1  0
 29 30  2  0
 30 31  1  0
 10 32  2  0
 32 33  1  0
 33 34  1  0
 34 35  1  0
 32  4  1  0
 31 11  1  0
 30 17  1  0
M  END
>  <identifier>  (862) 
CNP0080388.0

>  <canonical_smiles>  (862) 
CCOC1=C(OC)C=CC(C2=C(OC)C(=O)C3=C(OCC)C(OCC)=C(OC)C=C3O2)=C1OCC

>  <standard_inchi>  (862) 
InChI=1S/C26H32O9/c1-8-31-21-15(12-13-16(28-5)23(21)32-9-2)22-26(30-7)20(27)19-17(35-22)14-18(29-6)24(33-10-3)25(19)34-11-4/h12-14H,8-11H2,1-7H3

>  <standard_inchi_key>  (862) 
ADSWCFGNWSSMRV-UHFFFAOYSA-N

>  <name>  (862) 
nan

>  <iupac_name>  (862) 
2-(2,3-diethoxy-4-methoxy-phenyl)-5,6-diethoxy-3,7-dimethoxy-chromen-4-one

>  <annotation_level>  (862) 
4

>  <total_atom_count>  (862) 
67

>  <heavy_atom_count>  (862) 
35

>  <molecular_weight>  (862) 
488.53

>  <exact_molecular_weight>  (862) 
488.20463

>  <molecular_formula>  (862) 
C26H32O9

>  <alogp>  (862) 
5.08

>  <topological_polar_surface_area>  (862) 
94.82

>  <rotatable_bond_count>  (862) 
12

>  <hydrogen_bond_acceptors>  (862) 
9

>  <hydrogen_bond_donors>  (862) 
0

>  <hydrogen_bond_acceptors_lipinski>  (862) 
9

>  <hydrogen_bond_donors_lipinski>  (862) 
0

>  <lipinski_rule_of_five_violations>  (862) 
1

>  <aromatic_rings_count>  (862) 
3

>  <qed_drug_likeliness>  (862) 
0.35

>  <formal_charge>  (862) 
0

>  <fractioncsp3>  (862) 
0.42

>  <number_of_minimal_rings>  (862) 
3

>  <van_der_walls_volume>  (862) 
nan

>  <contains_sugar>  (862) 
False

>  <contains_ring_sugars>  (862) 
False

>  <contains_linear_sugars>  (862) 
False

>  <murcko_framework>  (862) 
O1c2ccccc2CC=C1c3ccccc3

>  <np_likeness>  (862) 
0.71

>  <chemical_class>  (862) 
Flavonoids

>  <chemical_sub_class>  (862) 
O-methylated flavonoids

>  <chemical_super_class>  (862) 
Phenylpropanoids and polyketides

>  <direct_parent_classification>  (862) 
3-O-methylated flavonoids

>  <np_classifier_pathway>  (862) 
Shikimates and Phenylpropanoids

>  <np_classifier_superclass>  (862) 
Flavonoids

>  <np_classifier_class>  (862) 
Flavonols

>  <np_classifier_is_glycoside>  (862) 
False

>  <organisms>  (862) 
Apuleia leiocarpa

>  <collections>  (862) 
Latin America dataset|NuBBEDB|WikiData Natural Products|ZINC NP

>  <dois>  (862) 
10.1016/S0031-9422(00)89891-X

>  <synonyms>  (862) 
Apuleisin tetraethyl ether

>  <cas>  (862) 
nan

$$$$

     RDKit          2D

 34 38  0  0  0  0  0  0  0  0999 V2000
   -4.9692   -3.4070    0.0000 C   0  0  0  0  0  0  0  0  0  0  0  0
   -5.2580   -1.9351    0.0000 C   0  0  0  0  0  0  0  0  0  0  0  0
   -6.6574   -2.4750    0.0000 C   0  0  0  0  0  0  0  0  0  0  0  0
   -6.0328   -0.6507    0.0000 C   0  0  0  0  0  0  0  0  0  0  0  0
   -5.3078    0.6625    0.0000 C   0  0  0  0  0  0  0  0  0  0  0  0
   -3.8081    0.6913    0.0000 C   0  0  0  0  0  0  0  0  0  0  0  0
   -4.5828    1.9757    0.0000 C   0  0  0  0  0  0  0  0  0  0  0  0
   -6.0826    1.9469    0.0000 O   0  0  0  0  0  0  0  0  0  0  0  0
   -3.8579    3.2889    0.0000 O   0  0  0  0  0  0  0  0  0  0  0  0
   -3.0831    2.0044    0.0000 C   0  0  0  0  0  0  0  0  0  0  0  0
   -1.5834    2.0332    0.0000 C   0  0  0  0  0  0  0  0  0  0  0  0
   -0.8086    0.7488    0.0000 C   0  0  0  0  0  0  0  0  0  0  0  0
   -0.0339   -0.5356    0.0000 C   0  0  0  0  0  0  0  0  0  0  0  0
   -1.5336   -0.5644    0.0000 C   0  0  0  0  0  0  0  0  0  0  0  0
   -0.7588   -1.8488    0.0000 C   0  0  0  0  0  0  0  0  0  0  0  0
    0.7409   -1.8201    0.0000 C   0  0  0  0  0  0  0  0  0  0  0  0
    1.4659   -0.5069    0.0000 C   0  0  0  0  0  0  0  0  0  0  0  0
    2.9656   -0.4781    0.0000 C   0  0  0  0  0  0  0  0  0  0  0  0
    2.2406   -1.7913    0.0000 C   0  0  0  0  0  0  0  0  0  0  0  0
    3.7404   -1.7626    0.0000 C   0  0  0  0  0  0  0  0  0  0  0  0
    5.2401   -1.7338    0.0000 C   0  0  0  0  0  0  0  0  0  0  0  0
    6.0148   -3.0182    0.0000 O   0  0  0  0  0  0  0  0  0  0  0  0
    5.9650   -0.4206    0.0000 C   0  0  0  0  0  0  0  0  0  0  0  0
    7.4648   -0.3919    0.0000 O   0  0  0  0  0  0  0  0  0  0  0  0
    5.1903    0.8638    0.0000 C   0  0  0  0  0  0  0  0  0  0  0  0
    4.9015    2.3357    0.0000 C   0  0  0  0  0  0  0  0  0  0  0  0
    6.5897    1.4038    0.0000 C   0  0  0  0  0  0  0  0  0  0  0  0
    3.6906    0.8350    0.0000 C   0  0  0  0  0  0  0  0  0  0  0  0
    2.9158    2.1195    0.0000 C   0  0  0  0  0  0  0  0  0  0  0  0
    1.4161    2.0907    0.0000 C   0  0  0  0  0  0  0  0  0  0  0  0
    0.6911    0.7775    0.0000 C   0  0  0  0  0  0  0  0  0  0  0  0
   -0.0837    2.0620    0.0000 C   0  0  0  0  0  0  0  0  0  0  0  0
   -3.0333   -0.5932    0.0000 C   0  0  0  0  0  0  0  0  0  0  0  0
   -3.7583   -1.9063    0.0000 C   0  0  0  0  0  0  0  0  0  0  0  0
  1  2  1  0
  2  3  1  0
  2  4  1  0
  4  5  1  0
  5  6  1  0
  6  7  1  1
  7  8  2  0
  7  9  1  0
  6 10  1  0
 10 11  1  0
 11 12  1  0
 12 13  1  6
 12 14  1  0
 14 15  2  0
 15 16  1  0
 16 17  1  0
 17 18  1  0
 18 19  1  1
 18 20  1  0
 20 21  1  0
 21 22  1  6
 21 23  1  0
 23 24  1  6
 23 25  1  0
 25 26  1  0
 25 27  1  0
 25 28  1  0
 28 29  1  0
 29 30  1  0
 30 31  1  0
 31 32  1  1
 14 33  1  0
 33 34  1  0
 34  2  1  0
 33  6  1  0
 31 12  1  0
 31 17  1  0
 28 18  1  0
M  END
>  <identifier>  (863) 
CNP0227468.12

>  <canonical_smiles>  (863) 
CC1(C)CC[C@]2(C(=O)O)CC[C@]3(C)C(=CCC4[C@@]5(C)C[C@@H](O)[C@@H](O)C(C)(C)C5CC[C@]43C)C2C1

>  <standard_inchi>  (863) 
InChI=1S/C30H48O4/c1-25(2)12-14-30(24(33)34)15-13-28(6)18(19(30)16-25)8-9-22-27(5)17-20(31)23(32)26(3,4)21(27)10-11-29(22,28)7/h8,19-23,31-32H,9-17H2,1-7H3,(H,33,34)/t19?,20-,21?,22?,23-,27+,28-,29-,30+/m1/s1

>  <standard_inchi_key>  (863) 
MDZKJHQSJHYOHJ-FUJLAGDBSA-N

>  <name>  (863) 
nan

>  <iupac_name>  (863) 
(4~{a}~{S},6~{a}~{S},6~{b}~{R},10~{S},11~{R},12~{a}~{R})-10,11-dihydroxy-2,2,6~{a},6~{b},9,9,12~{a}-heptamethyl-1,3,4,5,6,6~{a},7,8,8~{a},10,11,12,13,14~{b}-tetradecahydropicene-4~{a}-carboxylic acid

>  <annotation_level>  (863) 
4

>  <total_atom_count>  (863) 
82

>  <heavy_atom_count>  (863) 
34

>  <molecular_weight>  (863) 
472.71

>  <exact_molecular_weight>  (863) 
472.35526

>  <molecular_formula>  (863) 
C30H48O4

>  <alogp>  (863) 
6.20

>  <topological_polar_surface_area>  (863) 
77.76

>  <rotatable_bond_count>  (863) 
1

>  <hydrogen_bond_acceptors>  (863) 
3

>  <hydrogen_bond_donors>  (863) 
3

>  <hydrogen_bond_acceptors_lipinski>  (863) 
3

>  <hydrogen_bond_donors_lipinski>  (863) 
3

>  <lipinski_rule_of_five_violations>  (863) 
1

>  <aromatic_rings_count>  (863) 
0

>  <qed_drug_likeliness>  (863) 
0.40

>  <formal_charge>  (863) 
0

>  <fractioncsp3>  (863) 
0.90

>  <number_of_minimal_rings>  (863) 
5

>  <van_der_walls_volume>  (863) 
nan

>  <contains_sugar>  (863) 
False

>  <contains_ring_sugars>  (863) 
False

>  <contains_linear_sugars>  (863) 
False

>  <murcko_framework>  (863) 
C1=C2C3CCCCC3CCC2C4CCC5CCCCC5C4C1

>  <np_likeness>  (863) 
3.30

>  <chemical_class>  (863) 
Prenol lipids

>  <chemical_sub_class>  (863) 
Triterpenoids

>  <chemical_super_class>  (863) 
Lipids and lipid-like molecules

>  <direct_parent_classification>  (863) 
Oleanane triterpenoids

>  <np_classifier_pathway>  (863) 
Terpenoids

>  <np_classifier_superclass>  (863) 
Triterpenoids

>  <np_classifier_class>  (863) 
Oleanane triterpenoids

>  <np_classifier_is_glycoside>  (863) 
False

>  <organisms>  (863) 
Vitex polygama

>  <collections>  (863) 
Latin America dataset|NuBBEDB|WikiData Natural Products

>  <dois>  (863) 
10.1515/ZNC-2008-5-611|10.1515/znc-2008-5-611

>  <synonyms>  (863) 
2\u221a\u00e9\u00ac\u00b13\u221a\u00e9\u00ac\u00b1-dihydroxyolean-12- en-28-oic acid

>  <cas>  (863) 
nan

$$$$

     RDKit          2D

 27 28  0  0  0  0  0  0  0  0999 V2000
   -6.7074   -2.4622    0.0000 C   0  0  0  0  0  0  0  0  0  0  0  0
   -6.3816   -0.9980    0.0000 S   0  0  0  0  0  0  0  0  0  0  0  0
   -4.9507   -0.5480    0.0000 C   0  0  0  0  0  0  0  0  0  0  0  0
   -4.6250    0.9162    0.0000 C   0  0  0  0  0  0  0  0  0  0  0  0
   -5.7301    1.9304    0.0000 O   0  0  0  0  0  0  0  0  0  0  0  0
   -3.1941    1.3662    0.0000 N   0  0  0  0  0  0  0  0  0  0  0  0
   -2.8683    2.8304    0.0000 C   0  0  0  0  0  0  0  0  0  0  0  0
   -2.0889    0.3520    0.0000 C   0  0  0  0  0  0  0  0  0  0  0  0
   -1.2820    1.6165    0.0000 C   0  0  0  0  0  0  0  0  0  0  0  0
    0.2165    1.5500    0.0000 C   0  0  0  0  0  0  0  0  0  0  0  0
    0.9081    0.2189    0.0000 C   0  0  0  0  0  0  0  0  0  0  0  0
    2.4067    0.1524    0.0000 C   0  0  0  0  0  0  0  0  0  0  0  0
    3.2136    1.4169    0.0000 C   0  0  0  0  0  0  0  0  0  0  0  0
    4.7121    1.3503    0.0000 O   0  0  0  0  0  0  0  0  0  0  0  0
    5.4037    0.0193    0.0000 C   0  0  0  0  0  0  0  0  0  0  0  0
    6.9022   -0.0473    0.0000 C   0  0  0  0  0  0  0  0  0  0  0  0
    7.5939   -1.3783    0.0000 C   0  0  0  0  0  0  0  0  0  0  0  0
    9.0924   -1.4449    0.0000 C   0  0  0  0  0  0  0  0  0  0  0  0
    6.7870   -2.6428    0.0000 C   0  0  0  0  0  0  0  0  0  0  0  0
    2.5219    2.7479    0.0000 C   0  0  0  0  0  0  0  0  0  0  0  0
    1.0234    2.8144    0.0000 C   0  0  0  0  0  0  0  0  0  0  0  0
   -0.7035   -0.2230    0.0000 S   0  0  0  0  0  0  0  0  0  0  0  0
   -0.5088   -1.7104    0.0000 C   0  0  0  0  0  0  0  0  0  0  0  0
   -2.4147   -1.1122    0.0000 C   0  0  0  0  0  0  0  0  0  0  0  0
   -1.3095   -2.1264    0.0000 O   0  0  0  0  0  0  0  0  0  0  0  0
   -3.8456   -1.5622    0.0000 N   0  0  0  0  0  0  0  0  0  0  0  0
   -4.1713   -3.0264    0.0000 C   0  0  0  0  0  0  0  0  0  0  0  0
  1  2  1  0
  3  2  1  6
  3  4  1  0
  4  5  2  0
  4  6  1  0
  6  7  1  0
  6  8  1  0
  8  9  1  6
  9 10  1  0
 10 11  2  0
 11 12  1  0
 12 13  2  0
 13 14  1  0
 14 15  1  0
 15 16  1  0
 16 17  2  0
 17 18  1  0
 17 19  1  0
 13 20  1  0
 20 21  2  0
  8 22  1  0
 22 23  1  0
  8 24  1  0
 24 25  2  0
 24 26  1  0
 26 27  1  0
 26  3  1  0
 21 10  1  0
M  END
>  <identifier>  (864) 
CNP0266495.3

>  <canonical_smiles>  (864) 
CS[C@@H]1C(=O)N(C)[C@@](CC2=CC=C(OCC=C(C)C)C=C2)(SC)C(=O)N1C

>  <standard_inchi>  (864) 
InChI=1S/C20H28N2O3S2/c1-14(2)11-12-25-16-9-7-15(8-10-16)13-20(27-6)19(24)21(3)18(26-5)17(23)22(20)4/h7-11,18H,12-13H2,1-6H3/t18-,20+/m1/s1

>  <standard_inchi_key>  (864) 
XBKBUMFBHNQOLC-QUCCMNQESA-N

>  <name>  (864) 
(3S,6R)-1,4-dimethyl-3-[[4-(3-methylbut-2-enoxy)phenyl]methyl]-3,6-bis(methylsulanyl)piperazine-2,5-dione

>  <iupac_name>  (864) 
(3~{S},6~{R})-1,4-dimethyl-3-[[4-(3-methylbut-2-enoxy)phenyl]methyl]-3,6-bis(methylsulfanyl)piperazine-2,5-dione

>  <annotation_level>  (864) 
5

>  <total_atom_count>  (864) 
55

>  <heavy_atom_count>  (864) 
27

>  <molecular_weight>  (864) 
408.59

>  <exact_molecular_weight>  (864) 
408.15413

>  <molecular_formula>  (864) 
C20H28N2O3S2

>  <alogp>  (864) 
3.25

>  <topological_polar_surface_area>  (864) 
49.85

>  <rotatable_bond_count>  (864) 
7

>  <hydrogen_bond_acceptors>  (864) 
5

>  <hydrogen_bond_donors>  (864) 
0

>  <hydrogen_bond_acceptors_lipinski>  (864) 
5

>  <hydrogen_bond_donors_lipinski>  (864) 
0

>  <lipinski_rule_of_five_violations>  (864) 
0

>  <aromatic_rings_count>  (864) 
1

>  <qed_drug_likeliness>  (864) 
0.65

>  <formal_charge>  (864) 
0

>  <fractioncsp3>  (864) 
0.50

>  <number_of_minimal_rings>  (864) 
2

>  <van_der_walls_volume>  (864) 
nan

>  <contains_sugar>  (864) 
False

>  <contains_ring_sugars>  (864) 
False

>  <contains_linear_sugars>  (864) 
False

>  <murcko_framework>  (864) 
c1ccc(cc1)CC2NCCNC2

>  <np_likeness>  (864) 
1.35

>  <chemical_class>  (864) 
Carboxylic acids and derivatives

>  <chemical_sub_class>  (864) 
Amino acids, peptides, and analogues

>  <chemical_super_class>  (864) 
Organic acids and derivatives

>  <direct_parent_classification>  (864) 
Alpha amino acids

>  <np_classifier_pathway>  (864) 
Alkaloids

>  <np_classifier_superclass>  (864) 
Peptide alkaloids

>  <np_classifier_class>  (864) 
Thiodiketopiperazine alkaloids

>  <np_classifier_is_glycoside>  (864) 
False

>  <organisms>  (864) 
Colletotrichum gloeosporioides|Penicillium crustosum|Penicillium solitum

>  <collections>  (864) 
NPAtlas|NuBBEDB|WikiData Natural Products|ZINC NP

>  <dois>  (864) 
10.1016/J.PHYTOCHEM.2010.05.012|10.1016/j.phytochem.2010.05.012

>  <synonyms>  (864) 
(3S,6R)-1,4-dimethyl-3-[[4-(3-methylbut-2-enoxy)phenyl]methyl]-3,6-bis(methylsulanyl)piperazine-2,5-dione|Not named

>  <cas>  (864) 
nan

$$$$

     RDKit          2D

 46 50  0  0  0  0  0  0  0  0999 V2000
    8.1687   -3.2992    0.0000 C   0  0  0  0  0  0  0  0  0  0  0  0
    7.4776   -1.9678    0.0000 O   0  0  0  0  0  0  0  0  0  0  0  0
    5.9792   -1.9006    0.0000 C   0  0  0  0  0  0  0  0  0  0  0  0
    5.1717   -3.1647    0.0000 O   0  0  0  0  0  0  0  0  0  0  0  0
    5.2881   -0.5692    0.0000 C   0  0  0  0  0  0  0  0  0  0  0  0
    6.7866   -0.6365    0.0000 C   0  0  0  0  0  0  0  0  0  0  0  0
    7.5941    0.6277    0.0000 C   0  0  0  0  0  0  0  0  0  0  0  0
    6.9031    1.9590    0.0000 C   0  0  0  0  0  0  0  0  0  0  0  0
    7.7105    3.2231    0.0000 C   0  0  0  0  0  0  0  0  0  0  0  0
    5.4046    2.0262    0.0000 C   0  0  0  0  0  0  0  0  0  0  0  0
    4.0195    2.6019    0.0000 C   0  0  0  0  0  0  0  0  0  0  0  0
    5.7310    3.4903    0.0000 O   0  0  0  0  0  0  0  0  0  0  0  0
    4.5971    0.7621    0.0000 C   0  0  0  0  0  0  0  0  0  0  0  0
    3.0986    0.8294    0.0000 C   0  0  0  0  0  0  0  0  0  0  0  0
    2.4076    2.1607    0.0000 C   0  0  0  0  0  0  0  0  0  0  0  0
    0.9091    2.2279    0.0000 C   0  0  0  0  0  0  0  0  0  0  0  0
    0.1016    0.9638    0.0000 C   0  0  0  0  0  0  0  0  0  0  0  0
   -1.3969    1.0311    0.0000 C   0  0  0  0  0  0  0  0  0  0  0  0
   -0.5894    2.2952    0.0000 C   0  0  0  0  0  0  0  0  0  0  0  0
   -2.0879    2.3624    0.0000 C   0  0  0  0  0  0  0  0  0  0  0  0
   -3.5864    2.4296    0.0000 C   0  0  0  0  0  0  0  0  0  0  0  0
   -4.3938    1.1655    0.0000 C   0  0  0  0  0  0  0  0  0  0  0  0
   -5.8923    1.2327    0.0000 O   0  0  0  0  0  0  0  0  0  0  0  0
   -6.5834    2.5641    0.0000 C   0  0  0  0  0  0  0  0  0  0  0  0
   -8.0819    2.6313    0.0000 C   0  0  0  0  0  0  0  0  0  0  0  0
   -5.7759    3.8282    0.0000 O   0  0  0  0  0  0  0  0  0  0  0  0
   -3.7028   -0.1658    0.0000 C   0  0  0  0  0  0  0  0  0  0  0  0
   -3.5088   -1.6532    0.0000 C   0  0  0  0  0  0  0  0  0  0  0  0
   -4.7000   -2.5649    0.0000 O   0  0  0  0  0  0  0  0  0  0  0  0
   -4.5060   -4.0523    0.0000 C   0  0  0  0  0  0  0  0  0  0  0  0
   -5.6971   -4.9641    0.0000 C   0  0  0  0  0  0  0  0  0  0  0  0
   -3.1208   -4.6280    0.0000 O   0  0  0  0  0  0  0  0  0  0  0  0
   -5.1339   -0.6152    0.0000 C   0  0  0  0  0  0  0  0  0  0  0  0
   -6.2386    0.3995    0.0000 O   0  0  0  0  0  0  0  0  0  0  0  0
   -7.6698   -0.0498    0.0000 C   0  0  0  0  0  0  0  0  0  0  0  0
   -8.7744    0.9649    0.0000 C   0  0  0  0  0  0  0  0  0  0  0  0
   -7.9962   -1.5138    0.0000 O   0  0  0  0  0  0  0  0  0  0  0  0
   -2.2043   -0.2331    0.0000 C   0  0  0  0  0  0  0  0  0  0  0  0
   -1.5133   -1.5644    0.0000 C   0  0  0  0  0  0  0  0  0  0  0  0
   -0.0148   -1.6316    0.0000 C   0  0  0  0  0  0  0  0  0  0  0  0
    0.7927   -0.3675    0.0000 C   0  0  0  0  0  0  0  0  0  0  0  0
    1.4837   -1.6989    0.0000 C   0  0  0  0  0  0  0  0  0  0  0  0
    2.2911   -0.4348    0.0000 C   0  0  0  0  0  0  0  0  0  0  0  0
    3.7896   -0.5020    0.0000 C   0  0  0  0  0  0  0  0  0  0  0  0
    2.9822   -1.7661    0.0000 C   0  0  0  0  0  0  0  0  0  0  0  0
    4.4807   -1.8333    0.0000 C   0  0  0  0  0  0  0  0  0  0  0  0
  1  2  1  0
  2  3  1  0
  3  4  2  0
  5  3  1  1
  5  6  1  0
  6  7  1  0
  7  8  1  0
  8  9  1  6
  8 10  1  0
 10 11  1  1
 10 12  1  0
 10 13  1  0
 13 14  1  0
 14 15  2  0
 15 16  1  0
 16 17  1  0
 17 18  1  0
 18 19  1  1
 18 20  1  0
 20 21  1  0
 21 22  1  0
 22 23  1  1
 23 24  1  0
 24 25  1  0
 24 26  2  0
 22 27  1  0
 27 28  1  0
 28 29  1  0
 29 30  1  0
 30 31  1  0
 30 32  2  0
 27 33  1  0
 33 34  1  0
 34 35  1  0
 35 36  1  0
 35 37  2  0
 27 38  1  0
 38 39  1  0
 39 40  1  0
 40 41  1  0
 41 42  1  1
 41 43  1  0
 43 44  1  6
 43 45  1  0
 45 46  1  0
 13  5  1  0
 43 14  1  0
 46  5  1  0
 41 17  1  0
 38 18  1  0
M  END
>  <identifier>  (865) 
CNP0201979.1

>  <canonical_smiles>  (865) 
COC(=O)[C@]12CC[C@@H](C)[C@@](C)(O)C1C1=CCC3[C@@]4(C)CC[C@H](OC(C)=O)C(COC(C)=O)(COC(C)=O)C4CC[C@@]3(C)[C@]1(C)CC2

>  <standard_inchi>  (865) 
InChI=1S/C37H56O9/c1-22-12-17-36(31(41)43-9)19-18-33(6)26(30(36)35(22,8)42)10-11-27-32(5)15-14-29(46-25(4)40)37(20-44-23(2)38,21-45-24(3)39)28(32)13-16-34(27,33)7/h10,22,27-30,42H,11-21H2,1-9H3/t22-,27?,28?,29+,30?,32-,33-,34-,35-,36+/m1/s1

>  <standard_inchi_key>  (865) 
FBMMTTJGBPWEQH-FPILEQGASA-N

>  <name>  (865) 
nan

>  <iupac_name>  (865) 
methyl (1~{R},2~{R},4~{a}~{S},6~{a}~{S},6~{b}~{R},10~{S},12~{a}~{R})-10-acetoxy-9,9-bis(acetoxymethyl)-1-hydroxy-1,2,6~{a},6~{b},12~{a}-pentamethyl-2,3,4,5,6,6~{a},7,8,8~{a},10,11,12,13,14~{b}-tetradecahydropicene-4~{a}-carboxylate

>  <annotation_level>  (865) 
3

>  <total_atom_count>  (865) 
102

>  <heavy_atom_count>  (865) 
46

>  <molecular_weight>  (865) 
644.85

>  <exact_molecular_weight>  (865) 
644.39243

>  <molecular_formula>  (865) 
C37H56O9

>  <alogp>  (865) 
5.95

>  <topological_polar_surface_area>  (865) 
125.43

>  <rotatable_bond_count>  (865) 
6

>  <hydrogen_bond_acceptors>  (865) 
9

>  <hydrogen_bond_donors>  (865) 
1

>  <hydrogen_bond_acceptors_lipinski>  (865) 
9

>  <hydrogen_bond_donors_lipinski>  (865) 
1

>  <lipinski_rule_of_five_violations>  (865) 
2

>  <aromatic_rings_count>  (865) 
0

>  <qed_drug_likeliness>  (865) 
0.21

>  <formal_charge>  (865) 
0

>  <fractioncsp3>  (865) 
0.84

>  <number_of_minimal_rings>  (865) 
5

>  <van_der_walls_volume>  (865) 
nan

>  <contains_sugar>  (865) 
False

>  <contains_ring_sugars>  (865) 
False

>  <contains_linear_sugars>  (865) 
False

>  <murcko_framework>  (865) 
C1=C2C3CCCCC3CCC2C4CCC5CCCCC5C4C1

>  <np_likeness>  (865) 
2.77

>  <chemical_class>  (865) 
Prenol lipids

>  <chemical_sub_class>  (865) 
Triterpenoids

>  <chemical_super_class>  (865) 
Lipids and lipid-like molecules

>  <direct_parent_classification>  (865) 
Taraxastane, ursane, and bauerane triterpenoids

>  <np_classifier_pathway>  (865) 
Terpenoids

>  <np_classifier_superclass>  (865) 
Triterpenoids

>  <np_classifier_class>  (865) 
Ursane and Taraxastane triterpenoids

>  <np_classifier_is_glycoside>  (865) 
False

>  <organisms>  (865) 
Alibertia edulis

>  <collections>  (865) 
Latin America dataset|NuBBEDB

>  <dois>  (865) 
10.1016/S0031-9422(00)89654-5

>  <synonyms>  (865) 
nan

>  <cas>  (865) 
nan

$$$$

     RDKit          2D

 16 17  0  0  0  0  0  0  0  0999 V2000
   -2.3654   -3.0271    0.0000 C   0  0  0  0  0  0  0  0  0  0  0  0
   -1.3083   -1.9629    0.0000 C   0  0  0  0  0  0  0  0  0  0  0  0
    0.1092   -2.4536    0.0000 C   0  0  0  0  0  0  0  0  0  0  0  0
    1.3766   -1.6512    0.0000 C   0  0  0  0  0  0  0  0  0  0  0  0
    1.5395   -0.1601    0.0000 C   0  0  0  0  0  0  0  0  0  0  0  0
    2.9537    0.3401    0.0000 C   0  0  0  0  0  0  0  0  0  0  0  0
    2.4535    1.7542    0.0000 C   0  0  0  0  0  0  0  0  0  0  0  0
    3.4538   -1.0741    0.0000 C   0  0  0  0  0  0  0  0  0  0  0  0
    4.3678    0.8402    0.0000 O   0  0  0  0  0  0  0  0  0  0  0  0
    0.4753    0.8970    0.0000 C   0  0  0  0  0  0  0  0  0  0  0  0
   -1.0147    0.7240    0.0000 C   0  0  0  0  0  0  0  0  0  0  0  0
   -1.8085   -0.5487    0.0000 C   0  0  0  0  0  0  0  0  0  0  0  0
   -3.2642   -0.1871    0.0000 C   0  0  0  0  0  0  0  0  0  0  0  0
   -3.3702    1.3091    0.0000 C   0  0  0  0  0  0  0  0  0  0  0  0
   -1.9799    1.8722    0.0000 C   0  0  0  0  0  0  0  0  0  0  0  0
   -1.6183    3.3280    0.0000 C   0  0  0  0  0  0  0  0  0  0  0  0
  2  1  1  6
  2  3  1  0
  3  4  1  0
  4  5  1  0
  5  6  1  6
  6  7  1  0
  6  8  1  0
  6  9  1  0
  5 10  1  0
 10 11  1  0
 11 12  2  0
 12 13  1  0
 13 14  1  0
 14 15  1  0
 15 16  1  6
 12  2  1  0
 15 11  1  0
M  END
>  <identifier>  (866) 
CNP0189004.1

>  <canonical_smiles>  (866) 
C[C@H]1CC[C@@H](C(C)(C)O)CC2=C1CC[C@@H]2C

>  <standard_inchi>  (866) 
InChI=1S/C15H26O/c1-10-5-7-12(15(3,4)16)9-14-11(2)6-8-13(10)14/h10-12,16H,5-9H2,1-4H3/t10-,11-,12+/m0/s1

>  <standard_inchi_key>  (866) 
TWVJWDMOZJXUID-SDDRHHMPSA-N

>  <name>  (866) 
Guaiol

>  <iupac_name>  (866) 
2-[(3~{S},5~{R},8~{S})-3,8-dimethyl-1,2,3,4,5,6,7,8-octahydroazulen-5-yl]propan-2-ol

>  <annotation_level>  (866) 
5

>  <total_atom_count>  (866) 
42

>  <heavy_atom_count>  (866) 
16

>  <molecular_weight>  (866) 
222.37

>  <exact_molecular_weight>  (866) 
222.19837

>  <molecular_formula>  (866) 
C15H26O

>  <alogp>  (866) 
3.92

>  <topological_polar_surface_area>  (866) 
20.23

>  <rotatable_bond_count>  (866) 
1

>  <hydrogen_bond_acceptors>  (866) 
1

>  <hydrogen_bond_donors>  (866) 
1

>  <hydrogen_bond_acceptors_lipinski>  (866) 
1

>  <hydrogen_bond_donors_lipinski>  (866) 
1

>  <lipinski_rule_of_five_violations>  (866) 
0

>  <aromatic_rings_count>  (866) 
0

>  <qed_drug_likeliness>  (866) 
0.67

>  <formal_charge>  (866) 
0

>  <fractioncsp3>  (866) 
0.87

>  <number_of_minimal_rings>  (866) 
2

>  <van_der_walls_volume>  (866) 
239.36

>  <contains_sugar>  (866) 
False

>  <contains_ring_sugars>  (866) 
False

>  <contains_linear_sugars>  (866) 
False

>  <murcko_framework>  (866) 
C12=C(CCC1)CCCCC2

>  <np_likeness>  (866) 
2.09

>  <chemical_class>  (866) 
Prenol lipids

>  <chemical_sub_class>  (866) 
Sesquiterpenoids

>  <chemical_super_class>  (866) 
Lipids and lipid-like molecules

>  <direct_parent_classification>  (866) 
Sesquiterpenoids

>  <np_classifier_pathway>  (866) 
Terpenoids

>  <np_classifier_superclass>  (866) 
Sesquiterpenoids

>  <np_classifier_class>  (866) 
Guaiane sesquiterpenoids

>  <np_classifier_is_glycoside>  (866) 
False

>  <organisms>  (866) 
Agrimonia pilosa|Aiouea costaricensis|Alphinia galanga|Alpinia breviligulata|Alpinia zerumbet|Angelica acutiloba|Angelica gigas|Angelica sinensis|Aquilaria agallochum|Aquilaria sinensis|Aristolochia asclepiadifolia|Artemisia capillaris|Atractylodes chinensis|Bupleurum gibraltaricum|Callitris columellaris|Callitris intratropica|Canarium luzonicum|Cannabis sativa|Cantinoa mutabilis|Chenopodium botrys|Cinnamomum camphora|Cistus creticus|Citrus|Cordia trichotoma|Cortex magnoliae officinalis|Corymbia maculata|Croton hemiargyreus|Cryptomeria japonica|Daucus carota|Drimys aromatica|Dysphania botrys|Eriostemon fitzgeraldii|Etlingera elatior|Eucalyptus citriodora|Ferula assafoetida|Ferula fukanensis|Ferula sinkiangensis|Guaiacum Officinale|Guaiacum officinale|Hansenia forbesii|Hansenia weberbaueriana|Helietta apiculata|Humulus lupulus|Hyptis mutabilis|Jugo|Kumquat|Lepechinia floribunda|Magnolia obovata|Magnolia officinalis|Mangifera indica|Melaleuca Leucadendra|Melaleuca leucadendra L.|Melaleuca squarrosa|Mentha arvensis L.|Michelia Champaca|Michelia champaca|Murraya gleniei|Nectandra salicina|Ocotea gomezii|Oocephalus oppositiflorus|Ostericum grosseserratum|Petasites albus|Petasites hybridus|Philotheca fitzgeraldii|Pinus halepensis|Piper lhotzkyanum|Populus alba|Populus balsamifera|Populus candicans|Salvia dorystaechas|Tetradenia riparia|Thapsia villosa|Thymus vulgaris|Toona ciliata|Uvaria puguensis|Uvaria species|Valeriana jatamansi|Zingiber officinale

>  <collections>  (866) 
ANPDB|Australian natural products|CMAUP (cCollective molecular activities of useful plants)|ChEBI NPs|EMNPD|ETM (Ethiopian Traditional Medicine) DB|KNApSaCK|Latin America dataset|NANPDB (Natural Products from Northern African Sources)|NAPRORE-CR|NPASS|NPEdia|NuBBEDB|Super Natural II|TCMDB-Taiwan (Traditional Chinese Medicine database)|VietHerb|WikiData Natural Products|ZINC NP

>  <dois>  (866) 
10.1002/CBDV.201100059|10.1002/CBDV.201800531|10.1002/ECE3.5390|10.1002/FFJ.2730080104|10.1002/HLCA.201200359|10.1006/JFCA.1999.0841|10.1016/0031-9422(95)00382-H|10.1016/0031-9422(95)00382-h|10.1016/J.FCT.2008.07.017|10.1016/J.FOODCHEM.2018.09.082|10.1016/J.PHYTOCHEM.2009.06.013|10.1016/S0031-9422(00)81445-4|10.1016/S0031-9422(00)83991-6|10.1016/S0031-9422(00)85032-3|10.1016/S0031-9422(97)00795-4|10.1016/S0031-9422(98)00067-3|10.1016/S0031-9422(98)00158-7|10.1016/s0031-9422(98)00158-7|10.1021/JF040102Z|10.1021/JF0402633|10.1021/NP50008A001|10.1021/NP960732Y|10.1023/B:JOEC.0000042400.14451.08|10.1055/S-2002-32898|10.1055/S-2006-957672|10.1055/S-2006-960908|10.1055/S-2007-969160|10.1055/s-2006-960113|10.1071/CH9620389|10.1080/10412905.1991.9697930|10.1080/10412905.1992.9698087|10.1080/10412905.1993.9698282|10.1080/10412905.1994.9698326|10.1080/10412905.1994.9698417|10.1080/10412905.1994.9698433|10.1080/10412905.1994.9698446|10.1080/10412905.1994.9699345|10.1080/10412905.1995.9698469|10.1080/10412905.2000.9712201|10.1080/10412905.2010.9700389|10.1080/10575630290020604|10.1093/CHROMSCI/38.6.234|10.1271/BBB1961.52.2961|10.1515/ZNC-1989-5-603|10.1590/S0100-40422009000200028|10.1590/S0103-50532000000600012|10.1590/S0103-50532011000400018|10.3109/13880208909116900|10.3390/MOLECULES21060814|10.5897/JMPR12.157

>  <synonyms>  (866) 
(-)-Guaiol|(-)-Guaiol, 97%|(-)-Guaiol, analytical standard|(3R,6S,10S)-6,10,alpha,alpha-Tetramethylbicyclo[5.3.0]dec-1(7)-ene-3-methanol|(3S,5R,8S)-1,2,3,4,5,6,7,8-OCTAHYDRO-.ALPHA.,.ALPHA.3,8-TETRAMETHYL-5-AZULENEMETHANOL|(3S,5R,8S)-1,2,3,4,5,6,7,8-OCTAHYDRO-alpha,alpha3,8-TETRAMETHYL-5-AZULENEMETHANOL|2-((3S,8S)-1,2,3,4,5,6,7,8-Octahydro-3,8-dimethylazulen-5-yl)propan-2-ol|2-(3,8-dimethyl-1,2,3,4,5,6,7,8-octahydro-azulen-5-yl)-propan-2-ol|2-[(3S,5R,8S)-3,8-dimethyl-1,2,3,4,5,6,7,8-octahydroazulen-5-yl]propan-2-ol|489-86-1|5-Azulenemethanol, 1,2,3,4,5,6,7,8-octahydro-.alpha.,.alpha.,3,8-tetramethyl-, (3S,5R,8S)-|5-Azulenemethanol,2,3,4,5,6,7,8-octahydro-.alpha.,.alpha.,3,8-tetramethyl-, [3S-(3.alpha.,5.alpha.,8.alpha.)]-|AKOS040760436|BSPBio_003320|C09676|CCG-208248|CHEBI:5552|CHEMBL226915|CS-0024560|Champaca camphor|Champacol|Champacol; Guaiac alcohol|DTXSID40883399|E88593|EINECS 207-702-8|GUAIOL [MI]|GUAIOL(-)|Guai-1(5)-en-11-ol|Guaiac alcohol|Guaiol|Guaiol 100 microg\/mL in Acetonitrile|HY-N3980|I7WP008A91|KBio3_002822|LMPR0103410007|MFCD00043336|MS-23248|NCGC00178142-01|NS00114035|NSC 19941|NSC-19941|Q5613321|SCHEMBL114056|SPECTRUM1800009|SR-05000002468|Spectrum3_001870|TWVJWDMOZJXUID-SDDRHHMPSA-N|UNII-I7WP008A91|[3S-(3alpha,5alpha,8alpha)]-1,2,3,4,5,6,7,8-octahydro-alpha,alpha,3,8-tetramethyl-5-azulenemethanol|guaiol

>  <cas>  (866) 
489-86-1

$$$$

     RDKit          2D

 33 37  0  0  0  0  0  0  0  0999 V2000
   -4.5643    2.7548    0.0000 C   0  0  0  0  0  0  0  0  0  0  0  0
   -3.4892    1.7088    0.0000 C   0  0  0  0  0  0  0  0  0  0  0  0
   -3.8575    0.2547    0.0000 C   0  0  0  0  0  0  0  0  0  0  0  0
   -2.7823   -0.7913    0.0000 O   0  0  0  0  0  0  0  0  0  0  0  0
   -5.3009   -0.1534    0.0000 C   0  0  0  0  0  0  0  0  0  0  0  0
   -5.6692   -1.6075    0.0000 C   0  0  0  0  0  0  0  0  0  0  0  0
   -7.1126   -2.0156    0.0000 C   0  0  0  0  0  0  0  0  0  0  0  0
   -7.5207   -0.5722    0.0000 C   0  0  0  0  0  0  0  0  0  0  0  0
   -6.7045   -3.4590    0.0000 C   0  0  0  0  0  0  0  0  0  0  0  0
   -8.5560   -2.4237    0.0000 O   0  0  0  0  0  0  0  0  0  0  0  0
   -2.0458    2.1169    0.0000 C   0  0  0  0  0  0  0  0  0  0  0  0
   -1.5275    3.5245    0.0000 C   0  0  0  0  0  0  0  0  0  0  0  0
   -0.0286    3.4666    0.0000 C   0  0  0  0  0  0  0  0  0  0  0  0
    0.3795    2.0232    0.0000 C   0  0  0  0  0  0  0  0  0  0  0  0
    1.5321    2.9831    0.0000 C   0  0  0  0  0  0  0  0  0  0  0  0
    1.7252    1.3606    0.0000 C   0  0  0  0  0  0  0  0  0  0  0  0
    2.9719    2.1948    0.0000 C   0  0  0  0  0  0  0  0  0  0  0  0
    4.3176    1.5323    0.0000 C   0  0  0  0  0  0  0  0  0  0  0  0
    4.4167    0.0355    0.0000 C   0  0  0  0  0  0  0  0  0  0  0  0
    5.7624   -0.6270    0.0000 C   0  0  0  0  0  0  0  0  0  0  0  0
    7.2536   -0.7893    0.0000 C   0  0  0  0  0  0  0  0  0  0  0  0
    6.1812    0.8133    0.0000 C   0  0  0  0  0  0  0  0  0  0  0  0
    5.8615   -2.1237    0.0000 C   0  0  0  0  0  0  0  0  0  0  0  0
    7.2073   -2.7863    0.0000 O   0  0  0  0  0  0  0  0  0  0  0  0
    4.6149   -2.9579    0.0000 C   0  0  0  0  0  0  0  0  0  0  0  0
    3.2691   -2.2954    0.0000 C   0  0  0  0  0  0  0  0  0  0  0  0
    3.1700   -0.7986    0.0000 C   0  0  0  0  0  0  0  0  0  0  0  0
    1.9234   -1.6328    0.0000 C   0  0  0  0  0  0  0  0  0  0  0  0
    1.8243   -0.1361    0.0000 C   0  0  0  0  0  0  0  0  0  0  0  0
    0.5776   -0.9703    0.0000 C   0  0  0  0  0  0  0  0  0  0  0  0
   -0.7681   -0.3077    0.0000 C   0  0  0  0  0  0  0  0  0  0  0  0
   -0.8672    1.1890    0.0000 C   0  0  0  0  0  0  0  0  0  0  0  0
   -2.1942    0.4897    0.0000 C   0  0  0  0  0  0  0  0  0  0  0  0
  2  1  1  1
  2  3  1  0
  3  4  1  0
  3  5  1  0
  5  6  2  0
  6  7  1  0
  7  8  1  0
  7  9  1  0
  7 10  1  0
  2 11  1  0
 11 12  1  1
 12 13  1  0
 13 14  1  0
 14 15  1  6
 14 16  1  0
 16 17  1  0
 17 18  1  0
 18 19  1  0
 19 20  1  0
 20 21  1  0
 20 22  1  0
 20 23  1  0
 23 24  2  0
 23 25  1  0
 25 26  1  0
 27 26  1  6
 27 28  1  0
 29 28  1  1
 29 30  1  0
 30 31  1  0
 31 32  1  0
 32 33  1  1
 32 11  1  0
 32 14  1  0
 29 16  1  0
 27 19  1  0
 29 27  1  0
M  END
>  <identifier>  (867) 
CNP0114670.1

>  <canonical_smiles>  (867) 
C[C@H](C(O)/C=C/C(C)(C)O)[C@H]1CC[C@@]2(C)C3CCC4C(C)(C)C(=O)CC[C@@]45C[C@@]35CC[C@]12C

>  <standard_inchi>  (867) 
InChI=1S/C30H48O3/c1-19(21(31)11-13-25(2,3)33)20-10-14-28(7)23-9-8-22-26(4,5)24(32)12-15-29(22)18-30(23,29)17-16-27(20,28)6/h11,13,19-23,31,33H,8-10,12,14-18H2,1-7H3/b13-11+/t19-,20+,21?,22?,23?,27+,28-,29+,30-/m0/s1

>  <standard_inchi_key>  (867) 
FGKUHDXMDDMVEC-UKFMLJDKSA-N

>  <name>  (867) 
nan

>  <iupac_name>  (867) 
(1~{S},3~{R},12~{S},15~{R},16~{R})-15-[(~{E},1~{S})-2,5-dihydroxy-1,5-dimethyl-hex-3-enyl]-7,7,12,16-tetramethyl-pentacyclo[9.7.0.0^{1,3}.0^{3,8}.0^{12,16}]octadecan-6-one

>  <annotation_level>  (867) 
4

>  <total_atom_count>  (867) 
81

>  <heavy_atom_count>  (867) 
33

>  <molecular_weight>  (867) 
456.71

>  <exact_molecular_weight>  (867) 
456.36035

>  <molecular_formula>  (867) 
C30H48O3

>  <alogp>  (867) 
6.32

>  <topological_polar_surface_area>  (867) 
57.53

>  <rotatable_bond_count>  (867) 
4

>  <hydrogen_bond_acceptors>  (867) 
3

>  <hydrogen_bond_donors>  (867) 
2

>  <hydrogen_bond_acceptors_lipinski>  (867) 
3

>  <hydrogen_bond_donors_lipinski>  (867) 
2

>  <lipinski_rule_of_five_violations>  (867) 
1

>  <aromatic_rings_count>  (867) 
0

>  <qed_drug_likeliness>  (867) 
0.49

>  <formal_charge>  (867) 
0

>  <fractioncsp3>  (867) 
0.90

>  <number_of_minimal_rings>  (867) 
5

>  <van_der_walls_volume>  (867) 
nan

>  <contains_sugar>  (867) 
False

>  <contains_ring_sugars>  (867) 
False

>  <contains_linear_sugars>  (867) 
False

>  <murcko_framework>  (867) 
C1CCC23CC43CCC5CCCC5C4CCC2C1

>  <np_likeness>  (867) 
3.22

>  <chemical_class>  (867) 
Steroids and steroid derivatives

>  <chemical_sub_class>  (867) 
Cycloartanols and derivatives

>  <chemical_super_class>  (867) 
Lipids and lipid-like molecules

>  <direct_parent_classification>  (867) 
Cycloartanols and derivatives

>  <np_classifier_pathway>  (867) 
Terpenoids

>  <np_classifier_superclass>  (867) 
Triterpenoids

>  <np_classifier_class>  (867) 
Cycloartane triterpenoids

>  <np_classifier_is_glycoside>  (867) 
False

>  <organisms>  (867) 
Trichilia claussenii

>  <collections>  (867) 
Latin America dataset|NuBBEDB|WikiData Natural Products

>  <dois>  (867) 
10.1590/S0103-50532002000300014

>  <synonyms>  (867) 
2225-Dihydroxy-9\u221a\u00e9\u00ac\u226419-cyclolanost-23-en-3-one

>  <cas>  (867) 
nan

$$$$

     RDKit          2D

 33 35  0  0  0  0  0  0  0  0999 V2000
   -7.8872   -1.5523    0.0000 C   0  0  0  0  0  0  0  0  0  0  0  0
   -7.1013   -0.2746    0.0000 O   0  0  0  0  0  0  0  0  0  0  0  0
   -5.6019   -0.3164    0.0000 C   0  0  0  0  0  0  0  0  0  0  0  0
   -4.8884   -1.6359    0.0000 C   0  0  0  0  0  0  0  0  0  0  0  0
   -3.3890   -1.6777    0.0000 C   0  0  0  0  0  0  0  0  0  0  0  0
   -2.6031   -0.4000    0.0000 C   0  0  0  0  0  0  0  0  0  0  0  0
   -1.1036   -0.4418    0.0000 C   0  0  0  0  0  0  0  0  0  0  0  0
   -0.3901   -1.7612    0.0000 C   0  0  0  0  0  0  0  0  0  0  0  0
   -1.1760   -3.0389    0.0000 O   0  0  0  0  0  0  0  0  0  0  0  0
   -2.6754   -2.9971    0.0000 C   0  0  0  0  0  0  0  0  0  0  0  0
    1.1093   -1.8030    0.0000 C   0  0  0  0  0  0  0  0  0  0  0  0
    1.8228   -3.1224    0.0000 O   0  0  0  0  0  0  0  0  0  0  0  0
    1.8952   -0.5254    0.0000 C   0  0  0  0  0  0  0  0  0  0  0  0
    3.3946   -0.5672    0.0000 C   0  0  0  0  0  0  0  0  0  0  0  0
    4.1081   -1.8866    0.0000 O   0  0  0  0  0  0  0  0  0  0  0  0
    5.6075   -1.9284    0.0000 C   0  0  0  0  0  0  0  0  0  0  0  0
    6.3211   -3.2478    0.0000 C   0  0  0  0  0  0  0  0  0  0  0  0
    6.3934   -0.6507    0.0000 O   0  0  0  0  0  0  0  0  0  0  0  0
    4.1805    0.7105    0.0000 C   0  0  0  0  0  0  0  0  0  0  0  0
    5.6799    0.6687    0.0000 O   0  0  0  0  0  0  0  0  0  0  0  0
    6.4658    1.9463    0.0000 C   0  0  0  0  0  0  0  0  0  0  0  0
    3.4670    2.0299    0.0000 C   0  0  0  0  0  0  0  0  0  0  0  0
    4.2529    3.3075    0.0000 O   0  0  0  0  0  0  0  0  0  0  0  0
    5.7523    3.2658    0.0000 C   0  0  0  0  0  0  0  0  0  0  0  0
    1.9676    2.0717    0.0000 C   0  0  0  0  0  0  0  0  0  0  0  0
    1.1817    0.7940    0.0000 C   0  0  0  0  0  0  0  0  0  0  0  0
   -0.3177    0.8358    0.0000 O   0  0  0  0  0  0  0  0  0  0  0  0
   -3.3166    0.9194    0.0000 C   0  0  0  0  0  0  0  0  0  0  0  0
   -2.5307    2.1971    0.0000 O   0  0  0  0  0  0  0  0  0  0  0  0
   -3.2442    3.5165    0.0000 C   0  0  0  0  0  0  0  0  0  0  0  0
   -4.8160    0.9612    0.0000 C   0  0  0  0  0  0  0  0  0  0  0  0
   -5.5295    2.2806    0.0000 O   0  0  0  0  0  0  0  0  0  0  0  0
   -7.0289    2.3224    0.0000 C   0  0  0  0  0  0  0  0  0  0  0  0
  1  2  1  0
  2  3  1  0
  3  4  2  0
  4  5  1  0
  5  6  2  0
  6  7  1  0
  7  8  2  0
  8  9  1  0
  9 10  1  0
  8 11  1  0
 11 12  2  0
 11 13  1  0
 13 14  2  0
 14 15  1  0
 15 16  1  0
 16 17  1  0
 16 18  2  0
 14 19  1  0
 19 20  1  0
 20 21  1  0
 19 22  2  0
 22 23  1  0
 23 24  1  0
 22 25  1  0
 25 26  2  0
 26 27  1  0
  6 28  1  0
 28 29  1  0
 29 30  1  0
 28 31  2  0
 31 32  1  0
 32 33  1  0
 31  3  1  0
 27  7  1  0
 26 13  1  0
M  END
>  <identifier>  (868) 
CNP0109976.0

>  <canonical_smiles>  (868) 
COC1=CC=C(C2=C(OC)C(=O)C3=C(OC(C)=O)C(OC)=C(OC)C=C3O2)C(OC)=C1OC

>  <standard_inchi>  (868) 
InChI=1S/C23H24O10/c1-11(24)32-22-16-14(10-15(27-3)21(22)30-6)33-19(23(31-7)17(16)25)12-8-9-13(26-2)20(29-5)18(12)28-4/h8-10H,1-7H3

>  <standard_inchi_key>  (868) 
DMMSTSNLEAUSAR-UHFFFAOYSA-N

>  <name>  (868) 
nan

>  <iupac_name>  (868) 
[3,6,7-trimethoxy-4-oxo-2-(2,3,4-trimethoxyphenyl)chromen-5-yl] acetate

>  <annotation_level>  (868) 
4

>  <total_atom_count>  (868) 
57

>  <heavy_atom_count>  (868) 
33

>  <molecular_weight>  (868) 
460.44

>  <exact_molecular_weight>  (868) 
460.13695

>  <molecular_formula>  (868) 
C23H24O10

>  <alogp>  (868) 
3.44

>  <topological_polar_surface_area>  (868) 
111.89

>  <rotatable_bond_count>  (868) 
8

>  <hydrogen_bond_acceptors>  (868) 
10

>  <hydrogen_bond_donors>  (868) 
0

>  <hydrogen_bond_acceptors_lipinski>  (868) 
10

>  <hydrogen_bond_donors_lipinski>  (868) 
0

>  <lipinski_rule_of_five_violations>  (868) 
0

>  <aromatic_rings_count>  (868) 
3

>  <qed_drug_likeliness>  (868) 
0.37

>  <formal_charge>  (868) 
0

>  <fractioncsp3>  (868) 
0.30

>  <number_of_minimal_rings>  (868) 
3

>  <van_der_walls_volume>  (868) 
nan

>  <contains_sugar>  (868) 
False

>  <contains_ring_sugars>  (868) 
False

>  <contains_linear_sugars>  (868) 
False

>  <murcko_framework>  (868) 
O1c2ccccc2CC=C1c3ccccc3

>  <np_likeness>  (868) 
0.95

>  <chemical_class>  (868) 
Flavonoids

>  <chemical_sub_class>  (868) 
O-methylated flavonoids

>  <chemical_super_class>  (868) 
Phenylpropanoids and polyketides

>  <direct_parent_classification>  (868) 
6-O-methylated flavonoids

>  <np_classifier_pathway>  (868) 
Shikimates and Phenylpropanoids

>  <np_classifier_superclass>  (868) 
Flavonoids

>  <np_classifier_class>  (868) 
Flavonols

>  <np_classifier_is_glycoside>  (868) 
False

>  <organisms>  (868) 
Apuleia leiocarpa

>  <collections>  (868) 
Latin America dataset|NuBBEDB|WikiData Natural Products|ZINC NP

>  <dois>  (868) 
10.1016/S0031-9422(00)89891-X

>  <synonyms>  (868) 
5-O-acetyl-2'3'6-tri-O-methylapuleisin

>  <cas>  (868) 
nan

$$$$

     RDKit          2D

 20 21  0  0  0  0  0  0  0  0999 V2000
   -6.9189    1.1391    0.0000 C   0  0  0  0  0  0  0  0  0  0  0  0
   -5.4202    1.2021    0.0000 O   0  0  0  0  0  0  0  0  0  0  0  0
   -4.6163   -0.0642    0.0000 C   0  0  0  0  0  0  0  0  0  0  0  0
   -5.3110   -1.3937    0.0000 O   0  0  0  0  0  0  0  0  0  0  0  0
   -3.1176   -0.0012    0.0000 C   0  0  0  0  0  0  0  0  0  0  0  0
   -2.3137   -1.2675    0.0000 C   0  0  0  0  0  0  0  0  0  0  0  0
   -0.8150   -1.2045    0.0000 C   0  0  0  0  0  0  0  0  0  0  0  0
   -0.0110   -2.4708    0.0000 C   0  0  0  0  0  0  0  0  0  0  0  0
    1.4876   -2.4078    0.0000 C   0  0  0  0  0  0  0  0  0  0  0  0
    2.1824   -1.0783    0.0000 C   0  0  0  0  0  0  0  0  0  0  0  0
    3.6810   -1.0153    0.0000 O   0  0  0  0  0  0  0  0  0  0  0  0
    4.3758    0.3142    0.0000 C   0  0  0  0  0  0  0  0  0  0  0  0
    5.4833    1.3258    0.0000 C   0  0  0  0  0  0  0  0  0  0  0  0
    5.5643   -0.6009    0.0000 C   0  0  0  0  0  0  0  0  0  0  0  0
    3.5718    1.5805    0.0000 C   0  0  0  0  0  0  0  0  0  0  0  0
    2.0731    1.5174    0.0000 C   0  0  0  0  0  0  0  0  0  0  0  0
    1.3784    0.1880    0.0000 C   0  0  0  0  0  0  0  0  0  0  0  0
   -0.1203    0.1250    0.0000 C   0  0  0  0  0  0  0  0  0  0  0  0
   -0.9242    1.3913    0.0000 O   0  0  0  0  0  0  0  0  0  0  0  0
   -0.2295    2.7207    0.0000 C   0  0  0  0  0  0  0  0  0  0  0  0
  1  2  1  0
  2  3  1  0
  3  4  2  0
  3  5  1  0
  5  6  1  0
  6  7  1  0
  7  8  2  0
  8  9  1  0
  9 10  2  0
 10 11  1  0
 11 12  1  0
 12 13  1  0
 12 14  1  0
 12 15  1  0
 15 16  2  0
 16 17  1  0
 17 18  2  0
 18 19  1  0
 19 20  1  0
 18  7  1  0
 17 10  1  0
M  END
>  <identifier>  (869) 
CNP0320787.0

>  <canonical_smiles>  (869) 
COC(=O)CCC1=CC=C2OC(C)(C)C=CC2=C1OC

>  <standard_inchi>  (869) 
InChI=1S/C16H20O4/c1-16(2)10-9-12-13(20-16)7-5-11(15(12)19-4)6-8-14(17)18-3/h5,7,9-10H,6,8H2,1-4H3

>  <standard_inchi_key>  (869) 
XRJVRHOPKCXHKJ-UHFFFAOYSA-N

>  <name>  (869) 
nan

>  <iupac_name>  (869) 
methyl 3-(5-methoxy-2,2-dimethyl-chromen-6-yl)propanoate

>  <annotation_level>  (869) 
4

>  <total_atom_count>  (869) 
40

>  <heavy_atom_count>  (869) 
20

>  <molecular_weight>  (869) 
276.33

>  <exact_molecular_weight>  (869) 
276.13616

>  <molecular_formula>  (869) 
C16H20O4

>  <alogp>  (869) 
2.99

>  <topological_polar_surface_area>  (869) 
44.76

>  <rotatable_bond_count>  (869) 
4

>  <hydrogen_bond_acceptors>  (869) 
4

>  <hydrogen_bond_donors>  (869) 
0

>  <hydrogen_bond_acceptors_lipinski>  (869) 
4

>  <hydrogen_bond_donors_lipinski>  (869) 
0

>  <lipinski_rule_of_five_violations>  (869) 
0

>  <aromatic_rings_count>  (869) 
1

>  <qed_drug_likeliness>  (869) 
0.79

>  <formal_charge>  (869) 
0

>  <fractioncsp3>  (869) 
0.44

>  <number_of_minimal_rings>  (869) 
2

>  <van_der_walls_volume>  (869) 
nan

>  <contains_sugar>  (869) 
False

>  <contains_ring_sugars>  (869) 
False

>  <contains_linear_sugars>  (869) 
False

>  <murcko_framework>  (869) 
O1c2ccccc2C=CC1

>  <np_likeness>  (869) 
1.60

>  <chemical_class>  (869) 
Benzopyrans

>  <chemical_sub_class>  (869) 
1-benzopyrans

>  <chemical_super_class>  (869) 
Organoheterocyclic compounds

>  <direct_parent_classification>  (869) 
2,2-dimethyl-1-benzopyrans

>  <np_classifier_pathway>  (869) 
Terpenoids

>  <np_classifier_superclass>  (869) 
Meroterpenoids

>  <np_classifier_class>  (869) 
Merohemiterpenoids

>  <np_classifier_is_glycoside>  (869) 
False

>  <organisms>  (869) 
Hortia oreadica

>  <collections>  (869) 
Latin America dataset|NuBBEDB|UNPD (Universal Natural Products Database)|WikiData Natural Products|ZINC NP

>  <dois>  (869) 
10.1016/J.BSE.2012.03.005|10.1016/j.bse.2012.03.005

>  <synonyms>  (869) 
Methyl 5-methoxy-22-dimethyl-2H-1-benzopyran-6-pronanoate

>  <cas>  (869) 
nan

$$$$

     RDKit          2D

 18 19  0  0  0  0  0  0  0  0999 V2000
   -2.6908   -3.3936    0.0000 C   0  0  0  0  0  0  0  0  0  0  0  0
   -2.2038   -1.9748    0.0000 O   0  0  0  0  0  0  0  0  0  0  0  0
   -0.7317   -1.6872    0.0000 C   0  0  0  0  0  0  0  0  0  0  0  0
    0.2535   -2.8183    0.0000 C   0  0  0  0  0  0  0  0  0  0  0  0
    1.7257   -2.5306    0.0000 C   0  0  0  0  0  0  0  0  0  0  0  0
    2.2126   -1.1119    0.0000 C   0  0  0  0  0  0  0  0  0  0  0  0
    3.6848   -0.8242    0.0000 C   0  0  0  0  0  0  0  0  0  0  0  0
    4.1717    0.5946    0.0000 C   0  0  0  0  0  0  0  0  0  0  0  0
    3.1865    1.7257    0.0000 C   0  0  0  0  0  0  0  0  0  0  0  0
    3.6735    3.1444    0.0000 O   0  0  0  0  0  0  0  0  0  0  0  0
    1.7144    1.4380    0.0000 O   0  0  0  0  0  0  0  0  0  0  0  0
    1.2274    0.0192    0.0000 C   0  0  0  0  0  0  0  0  0  0  0  0
   -0.2447   -0.2684    0.0000 C   0  0  0  0  0  0  0  0  0  0  0  0
   -1.2299    0.8627    0.0000 C   0  0  0  0  0  0  0  0  0  0  0  0
   -2.7021    0.5750    0.0000 C   0  0  0  0  0  0  0  0  0  0  0  0
   -3.6873    1.7061    0.0000 C   0  0  0  0  0  0  0  0  0  0  0  0
   -5.1595    1.4184    0.0000 C   0  0  0  0  0  0  0  0  0  0  0  0
   -3.2003    3.1249    0.0000 C   0  0  0  0  0  0  0  0  0  0  0  0
  1  2  1  0
  2  3  1  0
  3  4  2  0
  4  5  1  0
  5  6  2  0
  6  7  1  0
  7  8  2  0
  8  9  1  0
  9 10  2  0
  9 11  1  0
 11 12  1  0
 12 13  2  0
 13 14  1  0
 14 15  1  0
 15 16  2  0
 16 17  1  0
 16 18  1  0
 13  3  1  0
 12  6  1  0
M  END
>  <identifier>  (870) 
CNP0281698.0

>  <canonical_smiles>  (870) 
COC1=CC=C2C=CC(=O)OC2=C1CC=C(C)C

>  <standard_inchi>  (870) 
InChI=1S/C15H16O3/c1-10(2)4-7-12-13(17-3)8-5-11-6-9-14(16)18-15(11)12/h4-6,8-9H,7H2,1-3H3

>  <standard_inchi_key>  (870) 
MBRLOUHOWLUMFF-UHFFFAOYSA-N

>  <name>  (870) 
Osthole

>  <iupac_name>  (870) 
7-methoxy-8-(3-methylbut-2-enyl)chromen-2-one

>  <annotation_level>  (870) 
5

>  <total_atom_count>  (870) 
34

>  <heavy_atom_count>  (870) 
18

>  <molecular_weight>  (870) 
244.29

>  <exact_molecular_weight>  (870) 
244.10994

>  <molecular_formula>  (870) 
C15H16O3

>  <alogp>  (870) 
3.31

>  <topological_polar_surface_area>  (870) 
39.44

>  <rotatable_bond_count>  (870) 
3

>  <hydrogen_bond_acceptors>  (870) 
3

>  <hydrogen_bond_donors>  (870) 
0

>  <hydrogen_bond_acceptors_lipinski>  (870) 
3

>  <hydrogen_bond_donors_lipinski>  (870) 
0

>  <lipinski_rule_of_five_violations>  (870) 
0

>  <aromatic_rings_count>  (870) 
2

>  <qed_drug_likeliness>  (870) 
0.61

>  <formal_charge>  (870) 
0

>  <fractioncsp3>  (870) 
0.27

>  <number_of_minimal_rings>  (870) 
2

>  <van_der_walls_volume>  (870) 
229.19

>  <contains_sugar>  (870) 
False

>  <contains_ring_sugars>  (870) 
False

>  <contains_linear_sugars>  (870) 
False

>  <murcko_framework>  (870) 
O1c2ccccc2C=CC1

>  <np_likeness>  (870) 
1.62

>  <chemical_class>  (870) 
Coumarins and derivatives

>  <chemical_sub_class>  (870) 
Coumarins and derivatives

>  <chemical_super_class>  (870) 
Phenylpropanoids and polyketides

>  <direct_parent_classification>  (870) 
Coumarins and derivatives

>  <np_classifier_pathway>  (870) 
Shikimates and Phenylpropanoids

>  <np_classifier_superclass>  (870) 
Coumarins

>  <np_classifier_class>  (870) 
Simple coumarins

>  <np_classifier_is_glycoside>  (870) 
False

>  <organisms>  (870) 
Adlumia fungosa|Agrimonia Pilosa|Agrimonia pilosa|Agrimonia pilosa var. japonica|Agrimonia pilosa var.japonica|Ambrosia polystachya|Angelica Pubescens|Angelica archangelica|Angelica archangelica L.|Angelica dahurica|Angelica genuflexa|Angelica japonica|Angelica officinalis|Angelica polymorpha|Angelica pubescens|Angelica pubescens f.biserrata|Angelica sp.|Angelica sylvestris L.|Angelica tschimganica|Angelica ursina|Angelica ursina Maxim|Apiaceae|Apium graveolens|Aralia continentalis|Archangelicia tschimganica|Archidendron chevalieri|Arnica foliosa|Arracacia tolucensis|Atractylodes lancea|Baccharis flabellata|Bilacunaria microcarpa|Callitropsis nootkatensis|Citrus aurantium|Citrus funadoko|Citrus grandis|Citrus maxima|Citrus medica|Citrus sp|Citrus sp.|Citrus spp.|Citrus wilsonii|Clausena Excavata|Clausena anisata|Clausena excavata|Clausena harmandiana|Clausena sp|Clausena sp.|Clausenia spp.|Cneoridium spp.|Cnidium Monnieri|Cnidium monieri|Cnidium monnieri|Cnidium sp.|Cyathus helenae|Cystoseira caespitosa|Daphne cannabina|Daucus carota|Dinosperma stipitatum|Eucalyptus exserta|Euphorbia bivonae|Ferula moschata|Ferula persica|Ferula sumbul|Ferulago capillaris|Ferulago lutea|Ferulago turcomanica|Flindersia bennettiana|Gasteria bicolor|Gynostemma pentaphyllum|Hansenia weberbaueriana|Haplophyllum bungei|Haplophyllum spp.|Heracleum asperum|Heracleum candicans|Heracleum candicans WALL.|Heracleum canescens|Heracleum pinnatum|Hypholoma capnoides|Imperatoria ostruthium|Indian beech tree|Inga paterno|Juglans regia|Lactarius deliciosus var. deterrimus|Leionema ellipticum|Leiothrix flavescens|Leonurus heterophyllus|Leptospermum liversidgei|Leutea turcomanica|Limonia acidissima|Lomatium nuttallii|Magydaris pastinacea|Melicope semecarpifolia|Micromelum minutum|Murraya Paniculata|Murraya alata|Murraya exotica|Murraya gleniei|Murraya paniculata|Notopterygium incisum|Pastinaca sativa|Pastinaca sp.|Pentaceras australe|Pentaceras australis|Petroselinum crispum|Peucedanum ostruthium|Peucedanum rubricaule|Phebalium tuberculosum|Phegopteris subaurita|Pilocarpus riedelianus|Prangos|Prangos bucharica|Prangos ferulacea|Prangos haussknechtii|Prangos lipskyi|Prangos lophoptera|Prangos pabularia|Prangos tschimganica|Prangos uloptera|Radix heraclei maximi|Rosa transmorrisonensis|Ruta graveolens|Sauropus quadrangularis|Selinum monniere|Senecio barba-johannis|Seseli buchtormense|Seseli foliosum|Seseli grandivittatum|Seseli gummiferum|Seseli gummiferum subsp.corymbosum|Seseli hartvigii|Seseli resinosum|Seseli sibiricum|Seseli transcaucasicum|Siphula applanata|Skimmia laureola|Skimmia reevesiana|Smilax macrophylla|Solanum lycocarpum|Spilanthes ocymifolia|Spiranthera odoratissima|Spongia hispida|Tephrosia lupinifolia|Tetrataenium canescens|Thamnosma texana|Ticorea longiflora|Torilis japonica|Umbelliferae|Vernonia echitifolia|Wedelia forsteriana|Zeravschania regeliana|murraya alata|pomelo

>  <collections>  (870) 
AnalytiCon Discovery NPs|Australian natural products|BIOFACQUIM|CMAUP (cCollective molecular activities of useful plants)|ChEBI NPs|ETM (Ethiopian Traditional Medicine) DB|FooDB|GNPS (Global Natural Products Social Molecular Networking)|HIT (Herbal Ingredients Targets)|InPACdb|InflamNat|KNApSaCK|Latin America dataset|NPACT|NPASS|NPEdia|NuBBEDB|Phyto4Health|PhytoLab phyproof® Reference Substances|PubChem NPs|Super Natural II|TCMDB-Taiwan (Traditional Chinese Medicine database)|TCMID (Traditional Chinese Medicine Integrated Database)|TIPdb (database of Taiwan indigenous plants)|TPPT (Toxic Plants–PhytoToxins)|UEFS (Natural Products Databse of the UEFS)|UNPD (Universal Natural Products Database)|VietHerb|WikiData Natural Products|ZINC NP

>  <dois>  (870) 
10.1002/(SICI)1099-1565(199811/12)9:6<283::AID-PCA419>3.0.CO;2-9|10.1002/0471684228.EGP01775|10.1002/JLAC.19324950112|10.1002/JPS.2600570534|10.1002/PCA.2800030108|10.1007/BF00563911|10.1007/BF00563983|10.1007/BF00564817|10.1007/BF00565847|10.1007/BF00566806|10.1007/BF00567161|10.1007/BF00567813|10.1007/BF00567996|10.1007/BF00568353|10.1007/BF00569581|10.1007/BF00570197|10.1007/BF00570200|10.1007/BF00570211|10.1007/BF00570686|10.1007/BF00575189|10.1007/BF00577207|10.1007/BF00598313|10.1007/BF00630666|10.1007/BF00713331|10.1007/BF00781092|10.1007/BF00993733|10.1007/BF02234865|10.1007/BF02975883|10.1007/BF02976681|10.1007/S10600-011-0026-Y|10.1007/S11418-007-0154-7|10.1007/S11418-008-0266-8|10.1007/S12272-010-0505-X|10.1016/0031-9422(73)85135-0|10.1016/0031-9422(75)85267-8|10.1016/0031-9422(88)80815-X|10.1016/0031-9422(89)80056-1|10.1016/0031-9422(89)85027-7|10.1016/0031-9422(92)83450-D|10.1016/0031-9422(93)80055-W|10.1016/0031-9422(94)85101-8|10.1016/0305-1978(91)90117-I|10.1016/0378-8741(86)90156-X|10.1016/0960-894X(96)00315-0|10.1016/B978-0-12-818162-1.00006-7|10.1016/J.BSE.2005.01.008|10.1016/J.JEP.2007.05.015|10.1016/S0006-2952(02)01606-4|10.1016/S0021-9673(00)00321-6|10.1016/S0031-9422(00)80348-9|10.1016/S0031-9422(00)80543-9|10.1016/S0031-9422(00)81445-4|10.1016/S0031-9422(00)81759-8|10.1016/S0031-9422(00)82295-5|10.1016/S0031-9422(00)84814-1|10.1016/S0031-9422(00)97490-9|10.1016/S0031-9422(02)00023-7|10.1016/S0031-9422(96)00532-8|10.1016/S0031-9422(96)00877-1|10.1016/S0031-9422(99)00220-4|10.1016/S0031-9422(99)00524-5|10.1016/S0031-9422(99)00554-3|10.1016/S0040-4020(01)92623-7|10.1016/S0040-4039(00)72373-2|10.1016/S0165-022X(00)00079-8|10.1016/S0305-1978(03)00039-5|10.1016/j.jep.2007.05.015|10.1016/s0006-2952(02)01606-4|10.1021/JF102812T|10.1021/NP010122K|10.1021/NP200072A|10.1021/NP50036A038|10.1021/NP50050A046|10.1021/NP50060A016|10.1021/NP50085A003|10.1021/NP500861U|10.1021/NP50087A013|10.1021/NP970430B|10.1021/NP990522W|10.1021/acs.jnatprod.7b00322|10.1021/jf102812t|10.1021/np010122k|10.1021/np200072a|10.1021/np50060a016|10.1021/np500861u|10.1021/np9006712|10.1021/np970430b|10.1039/P19900001593|10.1039/P19900002047|10.1039/c7md00388a|10.1055/S-0038-1651041|10.1055/S-2001-12013|10.1055/S-2003-45188|10.1055/S-2006-951724|10.1055/S-2006-957507|10.1055/S-2006-957987|10.1055/S-2006-959392|10.1055/S-2006-961931|10.1055/S-2007-987215|10.1071/CH9670973|10.1071/ch9640975|10.1080/10412905.1993.9698257|10.1097/00005392-200006000-00105|10.1135/CCCC19861509|10.1248/BPB.24.1012|10.1248/BPB.25.260|10.1248/BPB.25.809|10.1248/CPB.28.1782|10.1248/CPB.29.2565|10.1248/CPB.33.1676|10.1248/CPB.33.5351|10.1248/CPB.35.4277|10.1248/CPB.47.96|10.1248/CPB.49.877|10.1248/CPB.54.897|10.1248/YAKUSHI1947.103.10_1091|10.1248/YAKUSHI1947.105.5_449|10.1248/YAKUSHI1947.87.4_464|10.1254/JJP.85.95|10.1271/BBB1961.43.1603|10.1351/PAC200173030617|10.1371/journal.pone.0019825|10.1590/S0102-695X2008000100002|10.2174/1568011053352622|10.2903/j.efsa.2012.2663

>  <synonyms>  (870) 
1440642-68-1|2H-1-Benzopyran-2-one, 7-methoxy-8-(3-methyl-2-butenyl)-|484-12-8|7-METHOXY-8-(3-METHYL-2-BUTENYL)-COUMARIN|7-METHOXY-8-(3-METHYLBUT-2-ENYL)-2-CHROMENONE|7-Methoxy 8-isopentenylcoumarin|7-Methoxy-8-(3-methyl-2-butenyl)-2H-chromen-2-one #|7-Methoxy-8-isopentenylcoumarin|7-methoxy-8-(3-methyl-2-butenyl)-2h-1-benzopyran-2-one|7-methoxy-8-(3-methyl-2-butenyl)coumarin|7-methoxy-8-(3-methylbut-2-en-1-yl)-2H-chromen-2-one|8-(3-Methyl-2-butenyl)herniarin|A0O|A827530|AC-8041|ACon1_002155|AKOS000277663|AMY40671|BBL013019|BCP10832|BDBM50240512|BRD-K78294846-001-03-3|BSPBio_003369|C09280|CCG-40172|CHEBI:69832|CHEMBL52229|Coumarin, 7-methoxy-8-(3-methyl-2-butenyl)-|DS-0881|DTXSID20197507|DivK1c_007042|GTPL10302|HMS2267O21|HMS3656A07|HSDB 8479|HY-N0054|InChI=1\/C15H16O3\/c1-10(2)4-7-12-13(17-3)8-5-11-6-9-14(16)18-15(11)12\/h4-6,8-9H,7H2,1-3H|KBio1_001986|KBio2_002022|KBio2_004590|KBio2_007158|KBio3_002589|KBioGR_001954|KBioSS_002022|MEGxp0_000155|MFCD00076049|MLS000574904|MLS001048988|MLS006011425|NCGC00095694-01|NP699|NS00031794|NSC 31868|NSC-31868|O0426|OSTHOLE [INCI]|OSTHOLE [MI]|Oprea1_642606|Oprea1_873803|Osthol|Osthole (Osthol)|Osthole, European Pharmacopoeia (EP) Reference Standard|Osthole, analytical standard|Osthole, primary pharmaceutical reference standard|Osthole,(S)|Ostole|Q-100535|Q4338679|SCHEMBL50436|SDCCGMLS-0066780.P001|SMR000156202|SPBio_000646|SPECTRUM1504165|SR-01000721624|STK396321|SW219438-1|SpecPlus_000946|Spectrum2_000723|Spectrum3_001645|Spectrum4_001687|Spectrum5_000334|Spectrum_001542|UNII-XH1TI1759C|Umbelliferae|WLN: T66 BOVJ IO1 J2UY1&1|XH1TI1759C|osthol|s2337

>  <cas>  (870) 
484-12-8

$$$$

     RDKit          2D

 22 23  0  0  0  0  0  0  0  0999 V2000
   -9.1613   -1.8304    0.0000 O   0  0  0  0  0  0  0  0  0  0  0  0
   -7.8587   -1.0867    0.0000 C   0  0  0  0  0  0  0  0  0  0  0  0
   -7.8514    0.4133    0.0000 C   0  0  0  0  0  0  0  0  0  0  0  0
   -6.5487    1.1569    0.0000 C   0  0  0  0  0  0  0  0  0  0  0  0
   -5.2533    0.4006    0.0000 C   0  0  0  0  0  0  0  0  0  0  0  0
   -3.9506    1.1443    0.0000 C   0  0  0  0  0  0  0  0  0  0  0  0
   -2.6553    0.3880    0.0000 C   0  0  0  0  0  0  0  0  0  0  0  0
   -1.3526    1.1316    0.0000 C   0  0  0  0  0  0  0  0  0  0  0  0
   -0.0572    0.3753    0.0000 C   0  0  0  0  0  0  0  0  0  0  0  0
    1.2455    1.1189    0.0000 C   0  0  0  0  0  0  0  0  0  0  0  0
    1.2528    2.6189    0.0000 O   0  0  0  0  0  0  0  0  0  0  0  0
    2.5408    0.3626    0.0000 C   0  0  0  0  0  0  0  0  0  0  0  0
    3.8435    1.1063    0.0000 C   0  0  0  0  0  0  0  0  0  0  0  0
    5.1389    0.3499    0.0000 C   0  0  0  0  0  0  0  0  0  0  0  0
    5.1316   -1.1500    0.0000 C   0  0  0  0  0  0  0  0  0  0  0  0
    6.4269   -1.9064    0.0000 C   0  0  0  0  0  0  0  0  0  0  0  0
    7.7296   -1.1627    0.0000 C   0  0  0  0  0  0  0  0  0  0  0  0
    9.0250   -1.9190    0.0000 O   0  0  0  0  0  0  0  0  0  0  0  0
    7.7369    0.3373    0.0000 C   0  0  0  0  0  0  0  0  0  0  0  0
    6.4416    1.0936    0.0000 C   0  0  0  0  0  0  0  0  0  0  0  0
   -5.2606   -1.0994    0.0000 C   0  0  0  0  0  0  0  0  0  0  0  0
   -6.5633   -1.8430    0.0000 C   0  0  0  0  0  0  0  0  0  0  0  0
  1  2  1  0
  2  3  2  0
  3  4  1  0
  4  5  2  0
  5  6  1  0
  6  7  1  0
  7  8  1  0
  8  9  1  0
  9 10  1  0
 10 11  1  6
 10 12  1  0
 12 13  1  0
 13 14  1  0
 14 15  2  0
 15 16  1  0
 16 17  2  0
 17 18  1  0
 17 19  1  0
 19 20  2  0
  5 21  1  0
 21 22  2  0
 22  2  1  0
 20 14  1  0
M  END
>  <identifier>  (871) 
CNP0260993.2

>  <canonical_smiles>  (871) 
OC1=CC=C(CCCC[C@H](O)CCC2=CC=C(O)C=C2)C=C1

>  <standard_inchi>  (871) 
InChI=1S/C19H24O3/c20-17(10-7-16-8-13-19(22)14-9-16)4-2-1-3-15-5-11-18(21)12-6-15/h5-6,8-9,11-14,17,20-22H,1-4,7,10H2/t17-/m0/s1

>  <standard_inchi_key>  (871) 
UYJAYWZGEZOHRU-KRWDZBQOSA-N

>  <name>  (871) 
(+)-Centrolobol

>  <iupac_name>  (871) 
4-[(5~{S})-5-hydroxy-7-(4-hydroxyphenyl)heptyl]phenol

>  <annotation_level>  (871) 
5

>  <total_atom_count>  (871) 
46

>  <heavy_atom_count>  (871) 
22

>  <molecular_weight>  (871) 
300.4

>  <exact_molecular_weight>  (871) 
300.17254

>  <molecular_formula>  (871) 
C19H24O3

>  <alogp>  (871) 
3.80

>  <topological_polar_surface_area>  (871) 
60.69

>  <rotatable_bond_count>  (871) 
8

>  <hydrogen_bond_acceptors>  (871) 
3

>  <hydrogen_bond_donors>  (871) 
3

>  <hydrogen_bond_acceptors_lipinski>  (871) 
3

>  <hydrogen_bond_donors_lipinski>  (871) 
3

>  <lipinski_rule_of_five_violations>  (871) 
0

>  <aromatic_rings_count>  (871) 
2

>  <qed_drug_likeliness>  (871) 
0.65

>  <formal_charge>  (871) 
0

>  <fractioncsp3>  (871) 
0.37

>  <number_of_minimal_rings>  (871) 
2

>  <van_der_walls_volume>  (871) 
nan

>  <contains_sugar>  (871) 
False

>  <contains_ring_sugars>  (871) 
False

>  <contains_linear_sugars>  (871) 
False

>  <murcko_framework>  (871) 
c1ccc(cc1)CCCCCCCc2ccccc2

>  <np_likeness>  (871) 
0.86

>  <chemical_class>  (871) 
Diarylheptanoids

>  <chemical_sub_class>  (871) 
Linear diarylheptanoids

>  <chemical_super_class>  (871) 
Phenylpropanoids and polyketides

>  <direct_parent_classification>  (871) 
Linear diarylheptanoids

>  <np_classifier_pathway>  (871) 
Shikimates and Phenylpropanoids

>  <np_classifier_superclass>  (871) 
Diarylheptanoids

>  <np_classifier_class>  (871) 
Linear diarylheptanoids

>  <np_classifier_is_glycoside>  (871) 
False

>  <organisms>  (871) 
Centrolobium|Centrolobium robustum|Centrolobium tomentosum

>  <collections>  (871) 
Latin America dataset|NuBBEDB|Super Natural II|WikiData Natural Products|ZINC NP

>  <dois>  (871) 
10.1016/S0031-9422(00)85606-X|10.1016/S0031-9422(00)97984-6|10.1071/CH9841127

>  <synonyms>  (871) 
(+)-centrolobol|30359-04-7|DTXSID60873813

>  <cas>  (871) 
30359-04-7

$$$$

     RDKit          2D

 55 61  0  0  0  0  0  0  0  0999 V2000
   -9.2606   -3.5076    0.0000 C   0  0  0  0  0  0  0  0  0  0  0  0
   -9.6711   -2.0649    0.0000 C   0  0  0  0  0  0  0  0  0  0  0  0
  -11.0207   -2.7197    0.0000 C   0  0  0  0  0  0  0  0  0  0  0  0
  -10.5503   -0.8496    0.0000 C   0  0  0  0  0  0  0  0  0  0  0  0
   -9.9374    0.5195    0.0000 C   0  0  0  0  0  0  0  0  0  0  0  0
   -8.4453    0.6732    0.0000 C   0  0  0  0  0  0  0  0  0  0  0  0
   -9.3245    1.8886    0.0000 C   0  0  0  0  0  0  0  0  0  0  0  0
  -10.8166    1.7348    0.0000 O   0  0  0  0  0  0  0  0  0  0  0  0
   -8.7116    3.2576    0.0000 O   0  0  0  0  0  0  0  0  0  0  0  0
   -7.8324    2.0423    0.0000 C   0  0  0  0  0  0  0  0  0  0  0  0
   -6.3403    2.1960    0.0000 C   0  0  0  0  0  0  0  0  0  0  0  0
   -5.4611    0.9807    0.0000 C   0  0  0  0  0  0  0  0  0  0  0  0
   -4.5819   -0.2346    0.0000 C   0  0  0  0  0  0  0  0  0  0  0  0
   -6.0740   -0.3884    0.0000 C   0  0  0  0  0  0  0  0  0  0  0  0
   -5.1948   -1.6037    0.0000 C   0  0  0  0  0  0  0  0  0  0  0  0
   -3.7027   -1.4500    0.0000 C   0  0  0  0  0  0  0  0  0  0  0  0
   -3.0898   -0.0809    0.0000 C   0  0  0  0  0  0  0  0  0  0  0  0
   -1.5977    0.0728    0.0000 C   0  0  0  0  0  0  0  0  0  0  0  0
   -2.2106   -1.2962    0.0000 C   0  0  0  0  0  0  0  0  0  0  0  0
   -0.7185   -1.1425    0.0000 C   0  0  0  0  0  0  0  0  0  0  0  0
    0.7736   -0.9888    0.0000 C   0  0  0  0  0  0  0  0  0  0  0  0
    1.3865    0.3803    0.0000 C   0  0  0  0  0  0  0  0  0  0  0  0
    2.8786    0.5340    0.0000 O   0  0  0  0  0  0  0  0  0  0  0  0
    3.7578   -0.6813    0.0000 C   0  0  0  0  0  0  0  0  0  0  0  0
    3.1449   -2.0504    0.0000 O   0  0  0  0  0  0  0  0  0  0  0  0
    4.0241   -3.2657    0.0000 C   0  0  0  0  0  0  0  0  0  0  0  0
    3.4112   -4.6348    0.0000 C   0  0  0  0  0  0  0  0  0  0  0  0
    1.9190   -4.7885    0.0000 O   0  0  0  0  0  0  0  0  0  0  0  0
    5.5162   -3.1120    0.0000 C   0  0  0  0  0  0  0  0  0  0  0  0
    6.3954   -4.3273    0.0000 O   0  0  0  0  0  0  0  0  0  0  0  0
    6.1291   -1.7429    0.0000 C   0  0  0  0  0  0  0  0  0  0  0  0
    7.6212   -1.5892    0.0000 O   0  0  0  0  0  0  0  0  0  0  0  0
    5.2499   -0.5276    0.0000 C   0  0  0  0  0  0  0  0  0  0  0  0
    5.8628    0.8415    0.0000 O   0  0  0  0  0  0  0  0  0  0  0  0
    7.3549    0.9952    0.0000 C   0  0  0  0  0  0  0  0  0  0  0  0
    8.2341   -0.2201    0.0000 O   0  0  0  0  0  0  0  0  0  0  0  0
    9.7262   -0.0664    0.0000 C   0  0  0  0  0  0  0  0  0  0  0  0
   10.6054   -1.2817    0.0000 C   0  0  0  0  0  0  0  0  0  0  0  0
   12.0975   -1.1280    0.0000 O   0  0  0  0  0  0  0  0  0  0  0  0
   10.3391    1.3027    0.0000 C   0  0  0  0  0  0  0  0  0  0  0  0
   11.8312    1.4564    0.0000 O   0  0  0  0  0  0  0  0  0  0  0  0
    9.4599    2.5180    0.0000 C   0  0  0  0  0  0  0  0  0  0  0  0
   10.0728    3.8871    0.0000 O   0  0  0  0  0  0  0  0  0  0  0  0
    7.9678    2.3643    0.0000 C   0  0  0  0  0  0  0  0  0  0  0  0
    7.0886    3.5796    0.0000 O   0  0  0  0  0  0  0  0  0  0  0  0
    0.5073    1.5956    0.0000 C   0  0  0  0  0  0  0  0  0  0  0  0
    0.0968    3.0384    0.0000 C   0  0  0  0  0  0  0  0  0  0  0  0
    1.8569    2.2504    0.0000 C   0  0  0  0  0  0  0  0  0  0  0  0
   -0.9848    1.4419    0.0000 C   0  0  0  0  0  0  0  0  0  0  0  0
   -1.8640    2.6572    0.0000 C   0  0  0  0  0  0  0  0  0  0  0  0
   -3.3561    2.5035    0.0000 C   0  0  0  0  0  0  0  0  0  0  0  0
   -3.9690    1.1344    0.0000 C   0  0  0  0  0  0  0  0  0  0  0  0
   -4.8482    2.3498    0.0000 C   0  0  0  0  0  0  0  0  0  0  0  0
   -7.5661   -0.5421    0.0000 C   0  0  0  0  0  0  0  0  0  0  0  0
   -8.1790   -1.9112    0.0000 C   0  0  0  0  0  0  0  0  0  0  0  0
  1  2  1  0
  2  3  1  0
  2  4  1  0
  4  5  1  0
  5  6  1  0
  6  7  1  1
  7  8  2  0
  7  9  1  0
  6 10  1  0
 10 11  1  0
 11 12  1  0
 12 13  1  6
 12 14  1  0
 14 15  2  0
 15 16  1  0
 17 16  1  1
 17 18  1  0
 18 19  1  1
 18 20  1  0
 20 21  1  0
 21 22  1  0
 22 23  1  1
 24 23  1  6
 24 25  1  0
 25 26  1  0
 26 27  1  1
 27 28  1  0
 26 29  1  0
 29 30  1  6
 29 31  1  0
 31 32  1  1
 31 33  1  0
 33 34  1  6
 35 34  1  1
 35 36  1  0
 36 37  1  0
 37 38  1  1
 38 39  1  0
 37 40  1  0
 40 41  1  6
 40 42  1  0
 42 43  1  1
 42 44  1  0
 44 45  1  6
 22 46  1  0
 46 47  1  0
 46 48  1  0
 46 49  1  0
 49 50  1  1
 50 51  1  0
 51 52  1  0
 52 53  1  1
 14 54  1  0
 54 55  1  6
 55  2  1  0
 54  6  1  0
 52 12  1  0
 52 17  1  0
 49 18  1  0
 33 24  1  0
 44 35  1  0
M  END
>  <identifier>  (872) 
CNP0214597.1

>  <canonical_smiles>  (872) 
CC1(C)CC[C@]2(C(=O)O)CC[C@]3(C)C(=CC[C@@H]4[C@@]5(C)CC[C@H](O[C@H]6O[C@H](CO)[C@@H](O)[C@H](O)[C@H]6O[C@@H]6O[C@H](CO)[C@@H](O)[C@H](O)[C@H]6O)C(C)(C)[C@@H]5CC[C@]43C)[C@@H]2C1

>  <standard_inchi>  (872) 
InChI=1S/C42H68O13/c1-37(2)14-16-42(36(50)51)17-15-40(6)21(22(42)18-37)8-9-26-39(5)12-11-27(38(3,4)25(39)10-13-41(26,40)7)54-35-33(31(48)29(46)24(20-44)53-35)55-34-32(49)30(47)28(45)23(19-43)52-34/h8,22-35,43-49H,9-20H2,1-7H3,(H,50,51)/t22-,23+,24+,25-,26+,27-,28+,29+,30-,31-,32+,33+,34-,35+,39-,40+,41+,42-/m0/s1

>  <standard_inchi_key>  (872) 
LEQCLUFJRGKLOA-YFCCLPGUSA-N

>  <name>  (872) 
nan

>  <iupac_name>  (872) 
(4~{a}~{S},6~{a}~{R},6~{a}~{S},6~{b}~{R},8~{a}~{R},10~{S},12~{a}~{R},14~{b}~{S})-10-[(2~{S},3~{R},4~{S},5~{S},6~{R})-4,5-dihydroxy-6-(hydroxymethyl)-3-[(2~{S},3~{R},4~{S},5~{S},6~{R})-3,4,5-trihydroxy-6-(hydroxymethyl)tetrahydropyran-2-yl]oxy-tetrahydropyran-2-yl]oxy-2,2,6~{a},6~{b},9,9,12~{a}-heptamethyl-1,3,4,5,6,6~{a},7,8,8~{a},10,11,12,13,14~{b}-tetradecahydropicene-4~{a}-carboxylic acid

>  <annotation_level>  (872) 
5

>  <total_atom_count>  (872) 
123

>  <heavy_atom_count>  (872) 
55

>  <molecular_weight>  (872) 
780.99

>  <exact_molecular_weight>  (872) 
780.46599

>  <molecular_formula>  (872) 
C42H68O13

>  <alogp>  (872) 
2.88

>  <topological_polar_surface_area>  (872) 
215.83

>  <rotatable_bond_count>  (872) 
7

>  <hydrogen_bond_acceptors>  (872) 
12

>  <hydrogen_bond_donors>  (872) 
8

>  <hydrogen_bond_acceptors_lipinski>  (872) 
12

>  <hydrogen_bond_donors_lipinski>  (872) 
8

>  <lipinski_rule_of_five_violations>  (872) 
3

>  <aromatic_rings_count>  (872) 
0

>  <qed_drug_likeliness>  (872) 
0.14

>  <formal_charge>  (872) 
0

>  <fractioncsp3>  (872) 
0.93

>  <number_of_minimal_rings>  (872) 
7

>  <van_der_walls_volume>  (872) 
719.63

>  <contains_sugar>  (872) 
True

>  <contains_ring_sugars>  (872) 
True

>  <contains_linear_sugars>  (872) 
False

>  <murcko_framework>  (872) 
O1CCCCC1OC2CCCOC2OC3CCC4C(CCC5C6C(=CCC54)C7CCCCC7CC6)C3

>  <np_likeness>  (872) 
2.74

>  <chemical_class>  (872) 
Prenol lipids

>  <chemical_sub_class>  (872) 
Terpene glycosides

>  <chemical_super_class>  (872) 
Lipids and lipid-like molecules

>  <direct_parent_classification>  (872) 
Triterpene saponins

>  <np_classifier_pathway>  (872) 
Terpenoids

>  <np_classifier_superclass>  (872) 
Triterpenoids

>  <np_classifier_class>  (872) 
Oleanane triterpenoids

>  <np_classifier_is_glycoside>  (872) 
True

>  <organisms>  (872) 
Swartzia langsdorffii|Swartzia langsdorfii

>  <collections>  (872) 
ChemSpider NPs|Latin America dataset|NuBBEDB|WikiData Natural Products

>  <dois>  (872) 
10.1590/S0100-40422008000400023

>  <synonyms>  (872) 
Oleanolic acid 3-sophoroside

>  <cas>  (872) 
nan

$$$$

     RDKit          2D

 31 34  0  0  0  0  0  0  0  0999 V2000
   -5.3332   -2.7625    0.0000 C   0  0  0  0  0  0  0  0  0  0  0  0
   -4.6443   -1.4301    0.0000 C   0  0  0  0  0  0  0  0  0  0  0  0
   -5.4539   -0.1673    0.0000 C   0  0  0  0  0  0  0  0  0  0  0  0
   -3.1460   -1.3604    0.0000 C   0  0  0  0  0  0  0  0  0  0  0  0
   -2.3364   -2.6232    0.0000 C   0  0  0  0  0  0  0  0  0  0  0  0
   -0.8381   -2.5536    0.0000 C   0  0  0  0  0  0  0  0  0  0  0  0
   -0.1492   -1.2211    0.0000 C   0  0  0  0  0  0  0  0  0  0  0  0
   -1.6476   -1.2908    0.0000 C   0  0  0  0  0  0  0  0  0  0  0  0
   -0.9587    0.0417    0.0000 C   0  0  0  0  0  0  0  0  0  0  0  0
   -0.2699    1.3742    0.0000 C   0  0  0  0  0  0  0  0  0  0  0  0
    1.2285    1.4438    0.0000 C   0  0  0  0  0  0  0  0  0  0  0  0
    2.0380    0.1810    0.0000 C   0  0  0  0  0  0  0  0  0  0  0  0
    3.5182   -0.0624    0.0000 C   0  0  0  0  0  0  0  0  0  0  0  0
    4.5851    0.9920    0.0000 C   0  0  0  0  0  0  0  0  0  0  0  0
    3.4249    1.9429    0.0000 C   0  0  0  0  0  0  0  0  0  0  0  0
    5.4094    2.2452    0.0000 C   0  0  0  0  0  0  0  0  0  0  0  0
    6.8560    1.8484    0.0000 C   0  0  0  0  0  0  0  0  0  0  0  0
    6.9257    0.3500    0.0000 C   0  0  0  0  0  0  0  0  0  0  0  0
    8.1788   -0.4744    0.0000 O   0  0  0  0  0  0  0  0  0  0  0  0
    5.5222   -0.1793    0.0000 O   0  0  0  0  0  0  0  0  0  0  0  0
    3.7441   -1.5453    0.0000 C   0  0  0  0  0  0  0  0  0  0  0  0
    2.4036   -2.2183    0.0000 C   0  0  0  0  0  0  0  0  0  0  0  0
    1.3492   -1.1514    0.0000 C   0  0  0  0  0  0  0  0  0  0  0  0
    0.8034   -2.5486    0.0000 C   0  0  0  0  0  0  0  0  0  0  0  0
   -2.4571   -0.0279    0.0000 C   0  0  0  0  0  0  0  0  0  0  0  0
   -2.2655    1.4598    0.0000 C   0  0  0  0  0  0  0  0  0  0  0  0
   -3.8889    0.4191    0.0000 C   0  0  0  0  0  0  0  0  0  0  0  0
   -4.2177    1.8826    0.0000 C   0  0  0  0  0  0  0  0  0  0  0  0
   -5.6496    2.3296    0.0000 C   0  0  0  0  0  0  0  0  0  0  0  0
   -6.7526    1.3131    0.0000 O   0  0  0  0  0  0  0  0  0  0  0  0
   -5.9784    3.7931    0.0000 O   0  0  0  0  0  0  0  0  0  0  0  0
  1  2  2  0
  2  3  1  0
  4  2  1  1
  4  5  1  0
  5  6  1  0
  6  7  1  0
  7  8  1  1
  7  9  1  0
  9 10  1  1
 10 11  1  0
 12 11  1  6
 12 13  1  0
 13 14  1  0
 14 15  1  1
 14 16  1  0
 16 17  1  0
 17 18  1  0
 18 19  2  0
 18 20  1  0
 13 21  1  1
 21 22  1  0
 22 23  1  0
 23 24  1  6
  9 25  1  0
 25 26  1  1
 25 27  1  0
 27 28  1  0
 28 29  1  0
 29 30  2  0
 29 31  1  0
 25  4  1  0
 23  7  1  0
 23 12  1  0
 20 14  1  0
M  END
>  <identifier>  (873) 
CNP0193960.2

>  <canonical_smiles>  (873) 
C=C(C)[C@@H]1CC[C@]2(C)[C@H](CC[C@@H]3[C@@H]([C@]4(C)CCC(=O)O4)CC[C@]32C)[C@@]1(C)CCC(=O)O

>  <standard_inchi>  (873) 
InChI=1S/C27H42O4/c1-17(2)18-9-15-26(5)21(24(18,3)13-11-22(28)29)8-7-19-20(10-14-25(19,26)4)27(6)16-12-23(30)31-27/h18-21H,1,7-16H2,2-6H3,(H,28,29)/t18-,19+,20-,21+,24-,25+,26+,27-/m0/s1

>  <standard_inchi_key>  (873) 
LEKUPXHLKIIVCR-FAKJQIDCSA-N

>  <name>  (873) 
Eichlerialactone

>  <iupac_name>  (873) 
3-[(3~{S},3~{a}~{R},5~{a}~{R},6~{S},7~{S},9~{a}~{R},9~{b}~{R})-7-isopropenyl-6,9~{a},9~{b}-trimethyl-3-[(2~{S})-2-methyl-5-oxo-tetrahydrofuran-2-yl]-1,2,3,3~{a},4,5,5~{a},7,8,9-decahydrocyclopenta[a]naphthalen-6-yl]propanoic acid

>  <annotation_level>  (873) 
5

>  <total_atom_count>  (873) 
73

>  <heavy_atom_count>  (873) 
31

>  <molecular_weight>  (873) 
430.63

>  <exact_molecular_weight>  (873) 
430.30831

>  <molecular_formula>  (873) 
C27H42O4

>  <alogp>  (873) 
6.39

>  <topological_polar_surface_area>  (873) 
63.60

>  <rotatable_bond_count>  (873) 
5

>  <hydrogen_bond_acceptors>  (873) 
3

>  <hydrogen_bond_donors>  (873) 
1

>  <hydrogen_bond_acceptors_lipinski>  (873) 
3

>  <hydrogen_bond_donors_lipinski>  (873) 
1

>  <lipinski_rule_of_five_violations>  (873) 
1

>  <aromatic_rings_count>  (873) 
0

>  <qed_drug_likeliness>  (873) 
0.41

>  <formal_charge>  (873) 
0

>  <fractioncsp3>  (873) 
0.85

>  <number_of_minimal_rings>  (873) 
4

>  <van_der_walls_volume>  (873) 
nan

>  <contains_sugar>  (873) 
False

>  <contains_ring_sugars>  (873) 
False

>  <contains_linear_sugars>  (873) 
False

>  <murcko_framework>  (873) 
O1CCCC1C2CCC3C4CCCCC4CCC23

>  <np_likeness>  (873) 
2.78

>  <chemical_class>  (873) 
Prenol lipids

>  <chemical_sub_class>  (873) 
Terpene lactones

>  <chemical_super_class>  (873) 
Lipids and lipid-like molecules

>  <direct_parent_classification>  (873) 
Diterpene lactones

>  <np_classifier_pathway>  (873) 
Terpenoids

>  <np_classifier_superclass>  (873) 
Triterpenoids

>  <np_classifier_class>  (873) 
Dammarane and Protostane triterpenoids

>  <np_classifier_is_glycoside>  (873) 
False

>  <organisms>  (873) 
Aglaia erythrosperma|Aglaia lawii|Aglaia perviridis|Cabralea canjerana|Dysoxylum binectariferum|Dysoxylum cauliflorum|Dysoxylum ficiforme|Dysoxylum gotadhora|Dysoxylum mollissimum|dysoxylum binecteriferum

>  <collections>  (873) 
Latin America dataset|NPASS|NuBBEDB|Super Natural II|WikiData Natural Products

>  <dois>  (873) 
10.1016/J.BSE.2005.10.012|10.1016/S0031-9422(00)97581-2|10.1016/S0040-4039(98)02657-4|10.1016/j.bse.2005.10.012|10.1021/NP400700G|10.1080/10286020903565226|10.1080/14786419.2010.508038|10.3987/COM-00-9045

>  <synonyms>  (873) 
18-Nor-3,4-seco-5-cholane-3,24-dioic acid, 20-hydroxy-4,8,14-trimethyl-4-methylene-, -lactone|2202-01-9|3,4-Seco-18-nor-5-cholane-3,24-dioic acid, 20-hydroxy-4,8,14-trimethyl-4-methylene-, -lactone, (20S)-|3-[(3S,3aR,5aR,6S,7S,9aR,9bR)-6,9a,9b-trimethyl-3-[(2S)-2-methyl-5-oxooxolan-2-yl]-7-prop-1-en-2-yl-1,2,3,3a,4,5,5a,7,8,9-decahydrocyclopenta[a]naphthalen-6-yl]propanoic acid|AKOS032962092|CHEMBL3109460|CS-0024245|FS-9582|HY-N3800|eichlerialactone

>  <cas>  (873) 
2202-01-9

$$$$

     RDKit          2D

 23 26  0  0  0  0  0  0  0  0999 V2000
    4.7113   -2.0716    0.0000 C   0  0  0  0  0  0  0  0  0  0  0  0
    3.2441   -1.7597    0.0000 C   0  0  0  0  0  0  0  0  0  0  0  0
    2.2404   -2.8744    0.0000 C   0  0  0  0  0  0  0  0  0  0  0  0
    0.7732   -2.5625    0.0000 C   0  0  0  0  0  0  0  0  0  0  0  0
    0.3097   -1.1359    0.0000 C   0  0  0  0  0  0  0  0  0  0  0  0
    1.3134   -0.0212    0.0000 C   0  0  0  0  0  0  0  0  0  0  0  0
    2.7806   -0.3331    0.0000 C   0  0  0  0  0  0  0  0  0  0  0  0
    3.7843    0.7816    0.0000 C   0  0  0  0  0  0  0  0  0  0  0  0
    3.3208    2.2082    0.0000 C   0  0  0  0  0  0  0  0  0  0  0  0
    4.3245    3.3229    0.0000 O   0  0  0  0  0  0  0  0  0  0  0  0
    1.8536    2.5201    0.0000 O   0  0  0  0  0  0  0  0  0  0  0  0
    0.8499    1.4054    0.0000 C   0  0  0  0  0  0  0  0  0  0  0  0
   -0.6173    1.7173    0.0000 C   0  0  0  0  0  0  0  0  0  0  0  0
   -1.6210    0.6026    0.0000 C   0  0  0  0  0  0  0  0  0  0  0  0
   -3.0883    0.9145    0.0000 C   0  0  0  0  0  0  0  0  0  0  0  0
   -4.3603    1.7094    0.0000 C   0  0  0  0  0  0  0  0  0  0  0  0
   -2.5263    2.3052    0.0000 C   0  0  0  0  0  0  0  0  0  0  0  0
   -4.0920   -0.2002    0.0000 C   0  0  0  0  0  0  0  0  0  0  0  0
   -5.5592    0.1117    0.0000 O   0  0  0  0  0  0  0  0  0  0  0  0
   -3.6285   -1.6268    0.0000 C   0  0  0  0  0  0  0  0  0  0  0  0
   -2.1613   -1.9387    0.0000 C   0  0  0  0  0  0  0  0  0  0  0  0
   -1.1575   -0.8240    0.0000 C   0  0  0  0  0  0  0  0  0  0  0  0
   -0.6940   -2.2506    0.0000 C   0  0  0  0  0  0  0  0  0  0  0  0
  1  2  1  0
  2  3  2  0
  3  4  1  0
  4  5  2  0
  5  6  1  0
  6  7  2  0
  7  8  1  0
  8  9  1  0
  9 10  2  0
  9 11  1  0
 11 12  1  0
 12 13  1  6
 14 13  1  6
 14 15  1  0
 15 16  1  0
 15 17  1  0
 15 18  1  0
 18 19  2  0
 18 20  1  0
 20 21  1  0
 21 22  1  0
 22 23  1  6
  7  2  1  0
 22 14  1  0
 22  5  1  0
 12  6  1  0
M  END
>  <identifier>  (874) 
CNP0316247.1

>  <canonical_smiles>  (874) 
CC1=CC=C2C3=C1CC(=O)O[C@H]3C[C@H]1C(C)(C)C(=O)CC[C@]21C

>  <standard_inchi>  (874) 
InChI=1S/C20H24O3/c1-11-5-6-13-18-12(11)9-17(22)23-14(18)10-15-19(2,3)16(21)7-8-20(13,15)4/h5-6,14-15H,7-10H2,1-4H3/t14-,15-,20+/m0/s1

>  <standard_inchi_key>  (874) 
OAUYWWVMZLOVNK-AUSJPIAWSA-N

>  <name>  (874) 
nan

>  <iupac_name>  (874) 
(2~{S},7~{R},9~{S})-2,6,6,14-tetramethyl-10-oxatetracyclo[7.7.1.0^{2,7}.0^{13,17}]heptadeca-1(16),13(17),14-triene-5,11-dione

>  <annotation_level>  (874) 
3

>  <total_atom_count>  (874) 
47

>  <heavy_atom_count>  (874) 
23

>  <molecular_weight>  (874) 
312.41

>  <exact_molecular_weight>  (874) 
312.17254

>  <molecular_formula>  (874) 
C20H24O3

>  <alogp>  (874) 
3.80

>  <topological_polar_surface_area>  (874) 
43.37

>  <rotatable_bond_count>  (874) 
0

>  <hydrogen_bond_acceptors>  (874) 
3

>  <hydrogen_bond_donors>  (874) 
0

>  <hydrogen_bond_acceptors_lipinski>  (874) 
3

>  <hydrogen_bond_donors_lipinski>  (874) 
0

>  <lipinski_rule_of_five_violations>  (874) 
0

>  <aromatic_rings_count>  (874) 
1

>  <qed_drug_likeliness>  (874) 
0.68

>  <formal_charge>  (874) 
0

>  <fractioncsp3>  (874) 
0.60

>  <number_of_minimal_rings>  (874) 
4

>  <van_der_walls_volume>  (874) 
nan

>  <contains_sugar>  (874) 
False

>  <contains_ring_sugars>  (874) 
False

>  <contains_linear_sugars>  (874) 
False

>  <murcko_framework>  (874) 
O1CCc2cccc3c2C1CC4CCCCC34

>  <np_likeness>  (874) 
2.42

>  <chemical_class>  (874) 
Prenol lipids

>  <chemical_sub_class>  (874) 
Terpene lactones

>  <chemical_super_class>  (874) 
Lipids and lipid-like molecules

>  <direct_parent_classification>  (874) 
Quassinoids

>  <np_classifier_pathway>  (874) 
Terpenoids

>  <np_classifier_superclass>  (874) 
Diterpenoids

>  <np_classifier_class>  (874) 
Cleistanthane diterpenoids

>  <np_classifier_is_glycoside>  (874) 
False

>  <organisms>  (874) 
Vellozia compacta

>  <collections>  (874) 
Latin America dataset|NuBBEDB|Super Natural II|WikiData Natural Products

>  <dois>  (874) 
10.1016/0031-9422(83)80034-X

>  <synonyms>  (874) 
nan

>  <cas>  (874) 
nan

$$$$

     RDKit          2D

 31 33  0  0  0  0  0  0  0  0999 V2000
   -7.3918   -1.2876    0.0000 C   0  0  0  0  0  0  0  0  0  0  0  0
   -5.9087   -1.5125    0.0000 O   0  0  0  0  0  0  0  0  0  0  0  0
   -4.9724   -0.3406    0.0000 C   0  0  0  0  0  0  0  0  0  0  0  0
   -5.5192    1.0562    0.0000 C   0  0  0  0  0  0  0  0  0  0  0  0
   -4.5829    2.2281    0.0000 C   0  0  0  0  0  0  0  0  0  0  0  0
   -3.0998    2.0032    0.0000 C   0  0  0  0  0  0  0  0  0  0  0  0
   -2.1635    3.1751    0.0000 C   0  0  0  0  0  0  0  0  0  0  0  0
   -0.6805    2.9502    0.0000 C   0  0  0  0  0  0  0  0  0  0  0  0
    0.3732    4.0178    0.0000 C   0  0  0  0  0  0  0  0  0  0  0  0
    1.7141    3.3456    0.0000 O   0  0  0  0  0  0  0  0  0  0  0  0
    1.4892    1.8625    0.0000 C   0  0  0  0  0  0  0  0  0  0  0  0
    2.5568    0.8089    0.0000 C   0  0  0  0  0  0  0  0  0  0  0  0
    2.1781   -0.6425    0.0000 C   0  0  0  0  0  0  0  0  0  0  0  0
    3.2457   -1.6962    0.0000 C   0  0  0  0  0  0  0  0  0  0  0  0
    4.6920   -1.2985    0.0000 C   0  0  0  0  0  0  0  0  0  0  0  0
    5.7596   -2.3521    0.0000 O   0  0  0  0  0  0  0  0  0  0  0  0
    5.3809   -3.8035    0.0000 C   0  0  0  0  0  0  0  0  0  0  0  0
    5.0707    0.1529    0.0000 C   0  0  0  0  0  0  0  0  0  0  0  0
    6.5170    0.5507    0.0000 O   0  0  0  0  0  0  0  0  0  0  0  0
    6.8957    2.0021    0.0000 C   0  0  0  0  0  0  0  0  0  0  0  0
    4.0031    1.2066    0.0000 C   0  0  0  0  0  0  0  0  0  0  0  0
    0.0093    1.6181    0.0000 C   0  0  0  0  0  0  0  0  0  0  0  0
   -0.6629    0.2772    0.0000 C   0  0  0  0  0  0  0  0  0  0  0  0
    0.1623   -0.9754    0.0000 O   0  0  0  0  0  0  0  0  0  0  0  0
   -0.5099   -2.3164    0.0000 C   0  0  0  0  0  0  0  0  0  0  0  0
    0.3153   -3.5690    0.0000 C   0  0  0  0  0  0  0  0  0  0  0  0
   -2.0073   -2.4047    0.0000 O   0  0  0  0  0  0  0  0  0  0  0  0
   -2.5531    0.6064    0.0000 C   0  0  0  0  0  0  0  0  0  0  0  0
   -3.4894   -0.5655    0.0000 C   0  0  0  0  0  0  0  0  0  0  0  0
   -2.9427   -1.9624    0.0000 O   0  0  0  0  0  0  0  0  0  0  0  0
   -3.8790   -3.1342    0.0000 C   0  0  0  0  0  0  0  0  0  0  0  0
  1  2  1  0
  2  3  1  0
  3  4  2  0
  4  5  1  0
  5  6  2  0
  6  7  1  0
  8  7  1  1
  8  9  1  0
  9 10  1  0
 10 11  1  0
 11 12  1  6
 12 13  2  0
 13 14  1  0
 14 15  2  0
 15 16  1  0
 16 17  1  0
 15 18  1  0
 18 19  1  0
 19 20  1  0
 18 21  2  0
 11 22  1  0
 22 23  1  1
 23 24  1  0
 24 25  1  0
 25 26  1  0
 25 27  2  0
  6 28  1  0
 28 29  2  0
 29 30  1  0
 30 31  1  0
 29  3  1  0
 22  8  1  0
 21 12  1  0
M  END
>  <identifier>  (875) 
CNP0261557.1

>  <canonical_smiles>  (875) 
COC1=CC=C(C[C@H]2CO[C@H](C3=CC=C(OC)C(OC)=C3)[C@H]2COC(C)=O)C=C1OC

>  <standard_inchi>  (875) 
InChI=1S/C24H30O7/c1-15(25)30-14-19-18(10-16-6-8-20(26-2)22(11-16)28-4)13-31-24(19)17-7-9-21(27-3)23(12-17)29-5/h6-9,11-12,18-19,24H,10,13-14H2,1-5H3/t18-,19-,24+/m0/s1

>  <standard_inchi_key>  (875) 
PPIRSWOCXJSZIK-AXHZCLLHSA-N

>  <name>  (875) 
73354-15-1

>  <iupac_name>  (875) 
[(2~{S},3~{R},4~{R})-2-(3,4-dimethoxyphenyl)-4-[(3,4-dimethoxyphenyl)methyl]tetrahydrofuran-3-yl]methyl acetate

>  <annotation_level>  (875) 
5

>  <total_atom_count>  (875) 
61

>  <heavy_atom_count>  (875) 
31

>  <molecular_weight>  (875) 
430.5

>  <exact_molecular_weight>  (875) 
430.19915

>  <molecular_formula>  (875) 
C24H30O7

>  <alogp>  (875) 
3.83

>  <topological_polar_surface_area>  (875) 
72.45

>  <rotatable_bond_count>  (875) 
9

>  <hydrogen_bond_acceptors>  (875) 
7

>  <hydrogen_bond_donors>  (875) 
0

>  <hydrogen_bond_acceptors_lipinski>  (875) 
7

>  <hydrogen_bond_donors_lipinski>  (875) 
0

>  <lipinski_rule_of_five_violations>  (875) 
0

>  <aromatic_rings_count>  (875) 
2

>  <qed_drug_likeliness>  (875) 
0.56

>  <formal_charge>  (875) 
0

>  <fractioncsp3>  (875) 
0.46

>  <number_of_minimal_rings>  (875) 
3

>  <van_der_walls_volume>  (875) 
nan

>  <contains_sugar>  (875) 
False

>  <contains_ring_sugars>  (875) 
False

>  <contains_linear_sugars>  (875) 
False

>  <murcko_framework>  (875) 
O1CC(Cc2ccccc2)CC1c3ccccc3

>  <np_likeness>  (875) 
1.13

>  <chemical_class>  (875) 
Furanoid lignans

>  <chemical_sub_class>  (875) 
Tetrahydrofuran lignans

>  <chemical_super_class>  (875) 
Lignans, neolignans and related compounds

>  <direct_parent_classification>  (875) 
7,9'-epoxylignans

>  <np_classifier_pathway>  (875) 
Shikimates and Phenylpropanoids

>  <np_classifier_superclass>  (875) 
Lignans

>  <np_classifier_class>  (875) 
Furanoid lignans

>  <np_classifier_is_glycoside>  (875) 
False

>  <organisms>  (875) 
Araucaria angustifolia

>  <collections>  (875) 
Latin America dataset|NuBBEDB|WikiData Natural Products|ZINC NP

>  <dois>  (875) 
10.1016/0031-9422(79)80188-0

>  <synonyms>  (875) 
3-Furanmethanol, 2-(3,4-dimethoxyphenyl)-4-[(3,4-dimethoxyphenyl)methyl]tetrahydro-, acetate, (2S,3R,4R)-|9-O-Acetyl-4,4'-di-O-methyllariciresinol|AKOS032962152|FS-9001|Lariciresinol-4,4'-dimethyl ether-9-acetate|[(2S,3R,4R)-2-(3,4-dimethoxyphenyl)-4-[(3,4-dimethoxyphenyl)methyl]oxolan-3-yl]methyl acetate

>  <cas>  (875) 
nan

$$$$

     RDKit          2D

 30 29  0  0  0  0  0  0  0  0999 V2000
  -18.7523   -0.2686    0.0000 C   0  0  0  0  0  0  0  0  0  0  0  0
  -17.4471    0.4706    0.0000 C   0  0  0  0  0  0  0  0  0  0  0  0
  -16.1544   -0.2902    0.0000 C   0  0  0  0  0  0  0  0  0  0  0  0
  -14.8491    0.4489    0.0000 C   0  0  0  0  0  0  0  0  0  0  0  0
  -13.5564   -0.3119    0.0000 C   0  0  0  0  0  0  0  0  0  0  0  0
  -12.2511    0.4272    0.0000 C   0  0  0  0  0  0  0  0  0  0  0  0
  -10.9584   -0.3336    0.0000 C   0  0  0  0  0  0  0  0  0  0  0  0
   -9.6531    0.4055    0.0000 C   0  0  0  0  0  0  0  0  0  0  0  0
   -8.3604   -0.3553    0.0000 C   0  0  0  0  0  0  0  0  0  0  0  0
   -7.0552    0.3839    0.0000 C   0  0  0  0  0  0  0  0  0  0  0  0
   -5.7624   -0.3769    0.0000 C   0  0  0  0  0  0  0  0  0  0  0  0
   -4.4572    0.3622    0.0000 C   0  0  0  0  0  0  0  0  0  0  0  0
   -3.1644   -0.3986    0.0000 C   0  0  0  0  0  0  0  0  0  0  0  0
   -1.8592    0.3405    0.0000 C   0  0  0  0  0  0  0  0  0  0  0  0
   -0.5664   -0.4203    0.0000 C   0  0  0  0  0  0  0  0  0  0  0  0
    0.7388    0.3188    0.0000 C   0  0  0  0  0  0  0  0  0  0  0  0
    2.0315   -0.4420    0.0000 C   0  0  0  0  0  0  0  0  0  0  0  0
    3.3368    0.2972    0.0000 C   0  0  0  0  0  0  0  0  0  0  0  0
    4.6295   -0.4636    0.0000 C   0  0  0  0  0  0  0  0  0  0  0  0
    5.9348    0.2755    0.0000 C   0  0  0  0  0  0  0  0  0  0  0  0
    7.2275   -0.4853    0.0000 C   0  0  0  0  0  0  0  0  0  0  0  0
    8.5328    0.2538    0.0000 C   0  0  0  0  0  0  0  0  0  0  0  0
    9.8255   -0.5070    0.0000 C   0  0  0  0  0  0  0  0  0  0  0  0
   11.1308    0.2321    0.0000 C   0  0  0  0  0  0  0  0  0  0  0  0
   12.4235   -0.5287    0.0000 C   0  0  0  0  0  0  0  0  0  0  0  0
   13.7287    0.2105    0.0000 C   0  0  0  0  0  0  0  0  0  0  0  0
   15.0215   -0.5503    0.0000 C   0  0  0  0  0  0  0  0  0  0  0  0
   16.3267    0.1888    0.0000 C   0  0  0  0  0  0  0  0  0  0  0  0
   16.3392    1.6887    0.0000 O   0  0  0  0  0  0  0  0  0  0  0  0
   17.6195   -0.5720    0.0000 O   0  0  0  0  0  0  0  0  0  0  0  0
  1  2  1  0
  2  3  1  0
  3  4  1  0
  4  5  1  0
  5  6  1  0
  6  7  1  0
  7  8  1  0
  8  9  1  0
  9 10  1  0
 10 11  1  0
 11 12  1  0
 12 13  1  0
 13 14  1  0
 14 15  1  0
 15 16  1  0
 16 17  1  0
 17 18  1  0
 18 19  1  0
 19 20  1  0
 20 21  1  0
 21 22  1  0
 22 23  1  0
 23 24  1  0
 24 25  1  0
 25 26  1  0
 26 27  1  0
 27 28  1  0
 28 29  2  0
 28 30  1  0
M  END
>  <identifier>  (876) 
CNP0273906.0

>  <canonical_smiles>  (876) 
CCCCCCCCCCCCCCCCCCCCCCCCCCCC(=O)O

>  <standard_inchi>  (876) 
InChI=1S/C28H56O2/c1-2-3-4-5-6-7-8-9-10-11-12-13-14-15-16-17-18-19-20-21-22-23-24-25-26-27-28(29)30/h2-27H2,1H3,(H,29,30)

>  <standard_inchi_key>  (876) 
UTOPWMOLSKOLTQ-UHFFFAOYSA-N

>  <name>  (876) 
OCTACOSANOIC ACID

>  <iupac_name>  (876) 
octacosanoic acid

>  <annotation_level>  (876) 
5

>  <total_atom_count>  (876) 
86

>  <heavy_atom_count>  (876) 
30

>  <molecular_weight>  (876) 
424.75

>  <exact_molecular_weight>  (876) 
424.42803

>  <molecular_formula>  (876) 
C28H56O2

>  <alogp>  (876) 
10.23

>  <topological_polar_surface_area>  (876) 
37.30

>  <rotatable_bond_count>  (876) 
26

>  <hydrogen_bond_acceptors>  (876) 
1

>  <hydrogen_bond_donors>  (876) 
1

>  <hydrogen_bond_acceptors_lipinski>  (876) 
1

>  <hydrogen_bond_donors_lipinski>  (876) 
1

>  <lipinski_rule_of_five_violations>  (876) 
1

>  <aromatic_rings_count>  (876) 
0

>  <qed_drug_likeliness>  (876) 
0.14

>  <formal_charge>  (876) 
0

>  <fractioncsp3>  (876) 
0.96

>  <number_of_minimal_rings>  (876) 
0

>  <van_der_walls_volume>  (876) 
489.50

>  <contains_sugar>  (876) 
False

>  <contains_ring_sugars>  (876) 
False

>  <contains_linear_sugars>  (876) 
False

>  <murcko_framework>  (876) 
nan

>  <np_likeness>  (876) 
0.23

>  <chemical_class>  (876) 
Fatty Acyls

>  <chemical_sub_class>  (876) 
Fatty acids and conjugates

>  <chemical_super_class>  (876) 
Lipids and lipid-like molecules

>  <direct_parent_classification>  (876) 
Very long-chain fatty acids

>  <np_classifier_pathway>  (876) 
Fatty acids

>  <np_classifier_superclass>  (876) 
Fatty Acids and Conjugates

>  <np_classifier_class>  (876) 
Hydroxy fatty acids

>  <np_classifier_is_glycoside>  (876) 
False

>  <organisms>  (876) 
Achillea santolinoides|Ampelopsis japonica|Amphimedon complanata|Aniba kappleri|Arctostaphylos uva-ursi|Artemisia roxburghiana|Biemna|Butea monosperma|Cnidium monnieri|Cyanthillium cinereum|Daemonorops draco|Drimia indica|Eucalyptus globulus|Eucalyptus risdoni|Eucalyptus risdonii|Eucommia ulmoides|Euphorbia tithymaloides|Excoecaria acerifolia|Fusarium avenaceum|Fusarium sacchari|Galium glaucum|Garrya laurifolia|Gentiana macrophylla|Ginkgo biloba|Goupia glabra|Helipterum gnaphaloides|Hellenia lacera|Hippophae rhamnoides|Isodon adenanthus|Laggera alata|Launaea aspleniifolia|Lepra ophthalmiza|Lithothamnion corallioides|Lysimachia patungensis|Malvaviscus arboreus|Medinilla magnifica|Mesua ferrea|Miliusa balansae|Monopteryx uaucu|Moringa oleifera|Nauclea diderrichii|Nicotiana tabacum|Onobrychis bobrovii|Papaver persicum|Pertusaria ophthalmiza|Petrosia pellasarca|Petteria ramentacea|Peucedanum mashanense|Platycodon grandiflorum|Podospora curvicolla|Populus tremuloides|Prunus laurocerasus|Pyrola japonica|Rheum sublanceolatum|Rhizophora apiculata|Ruscus aculeatus|Samanea saman|Senecio cathcartensis|Sequoia sempervirens|Streptomyces|Streptomyces sp. NP10|Terminalia chebula|Traversia baccharoides|Trifolium strepens|Triticum durum|Vitex divaricata|Zataria multiflora

>  <collections>  (876) 
Australian natural products|CMAUP (cCollective molecular activities of useful plants)|FooDB|Latin America dataset|NPASS|NuBBEDB|StreptomeDB|Super Natural II|TCMDB-Taiwan (Traditional Chinese Medicine database)|TCMID (Traditional Chinese Medicine Integrated Database)|TIPdb (database of Taiwan indigenous plants)|UNPD (Universal Natural Products Database)|WikiData Natural Products

>  <dois>  (876) 
10.1002/CJOC.19910090207|10.1007/BF00574222|10.1007/BF02660305|10.1007/S10600-007-0071-8|10.1007/S10600-010-9521-9|10.1007/S10600-017-2124-Y|10.1007/S40278-014-1868-4|10.1016/0031-9422(83)85034-1|10.1016/0031-9422(93)85036-Q|10.1016/0031-9422(96)00241-5|10.1016/J.BSE.2005.07.017|10.1016/J.FITOTE.2005.08.020|10.1016/S0031-9422(00)85500-4|10.1016/S0031-9422(00)86478-X|10.1016/S0031-9422(00)86539-5|10.1016/S0031-9422(00)90054-2|10.1016/S0031-9422(98)00111-3|10.1016/S1875-5364(19)30114-1|10.1021/JF00069A012|10.1021/JO01064A066|10.1021/NP50042A023|10.1021/NP50070A010|10.1021/NP50073A043|10.1039/JR9620005194|10.1055/S-0036-1596440|10.1071/CH9640464|10.1080/10286020310001625076|10.1080/14786410903075457|10.1139/V86-081|10.1515/ZNB-2008-0318|10.1515/hf.2002.024|10.1590/1809-43921982123668|10.3389/FMICB.2018.01302|10.3389/fmicb.2018.01302|10.3390/molecules27020483|10.4103/0974-8490.112421|10.4268/CJCMM20111611|10.4268/CJCMM20141334

>  <synonyms>  (876) 
03D7DC3A-50B1-4BBA-9AF7-C86F38E231A2|4BKL1A0KJY|506-48-9|A12581|A855122|AKOS015892943|C21933|C28:0|CH3-[CH2]26-COOH|CHEBI:31001|CHEMBL2261064|CS-0144141|DB-255857|DTXSID2075051|EINECS 208-041-8|FA 28:0|HY-N8425|LMFA01010028|M1342|MFCD00002812|MONTAN ACID ESTER|Montanic acid|NS00013426|NSC-407311|Octacosancarbonsaeure|Octacosanoic acid|Octacosanoic acid, puriss., synthetic, >=98.5% (GC)|Octacosanoic acid, synthetic, >=98%|Octacosanoic acid,synthetic|Octacosansaeure|Q911196|SCHEMBL49866|UNII-4BKL1A0KJY|n-octacosanoate|n-octacosanoic acid|octacosoate|octacosoic acid|octaeicosanoic acid

>  <cas>  (876) 
506-48-9

$$$$

     RDKit          2D

 24 27  0  0  0  0  0  0  0  0999 V2000
   -3.4776    1.4401    0.0000 C   0  0  0  0  0  0  0  0  0  0  0  0
   -3.0981   -0.0111    0.0000 C   0  0  0  0  0  0  0  0  0  0  0  0
   -4.5931   -0.1328    0.0000 C   0  0  0  0  0  0  0  0  0  0  0  0
   -5.4461    1.1010    0.0000 O   0  0  0  0  0  0  0  0  0  0  0  0
   -3.2378   -1.5046    0.0000 C   0  0  0  0  0  0  0  0  0  0  0  0
   -4.6010   -2.1303    0.0000 O   0  0  0  0  0  0  0  0  0  0  0  0
   -2.0142   -2.3723    0.0000 C   0  0  0  0  0  0  0  0  0  0  0  0
   -0.6510   -1.7466    0.0000 C   0  0  0  0  0  0  0  0  0  0  0  0
   -0.5113   -0.2531    0.0000 C   0  0  0  0  0  0  0  0  0  0  0  0
   -1.8745   -0.8788    0.0000 C   0  0  0  0  0  0  0  0  0  0  0  0
   -1.7348    0.6147    0.0000 C   0  0  0  0  0  0  0  0  0  0  0  0
   -1.5951    2.1081    0.0000 C   0  0  0  0  0  0  0  0  0  0  0  0
   -0.2319    2.7339    0.0000 C   0  0  0  0  0  0  0  0  0  0  0  0
    0.9917    1.8662    0.0000 C   0  0  0  0  0  0  0  0  0  0  0  0
    2.4552    2.1948    0.0000 C   0  0  0  0  0  0  0  0  0  0  0  0
    3.3869    0.9419    0.0000 C   0  0  0  0  0  0  0  0  0  0  0  0
    1.9551    1.3891    0.0000 C   0  0  0  0  0  0  0  0  0  0  0  0
    0.8520    0.3727    0.0000 C   0  0  0  0  0  0  0  0  0  0  0  0
    1.1806   -1.0909    0.0000 C   0  0  0  0  0  0  0  0  0  0  0  0
    2.6124   -1.5381    0.0000 C   0  0  0  0  0  0  0  0  0  0  0  0
    3.7156   -0.5217    0.0000 C   0  0  0  0  0  0  0  0  0  0  0  0
    4.5249   -1.7846    0.0000 O   0  0  0  0  0  0  0  0  0  0  0  0
    5.0998    0.0561    0.0000 C   0  0  0  0  0  0  0  0  0  0  0  0
    6.2923   -0.8538    0.0000 O   0  0  0  0  0  0  0  0  0  0  0  0
  2  1  1  6
  2  3  1  0
  3  4  1  0
  2  5  1  0
  5  6  1  1
  5  7  1  0
  7  8  1  0
  8  9  1  0
  9 10  1  6
  9 11  1  0
 11 12  1  6
 12 13  1  0
 13 14  1  0
 14 15  1  0
 16 15  1  1
 16 17  1  0
 17 18  1  0
 18 19  1  1
 19 20  1  0
 20 21  1  0
 21 22  1  6
 21 23  1  0
 23 24  1  0
 11  2  1  0
 18 14  1  0
 18  9  1  0
 21 16  1  0
M  END
>  <identifier>  (877) 
CNP0327159.3

>  <canonical_smiles>  (877) 
C[C@@]1(CO)[C@H](O)CC[C@@]2(C)[C@H]1CCC1C[C@@H]3C[C@@]12CC[C@]3(O)CO

>  <standard_inchi>  (877) 
InChI=1S/C20H34O4/c1-17(11-21)15-4-3-13-9-14-10-19(13,7-8-20(14,24)12-22)18(15,2)6-5-16(17)23/h13-16,21-24H,3-12H2,1-2H3/t13?,14-,15+,16-,17+,18+,19+,20+/m1/s1

>  <standard_inchi_key>  (877) 
NOFOAYPPHIUXJR-PTBVVEJTSA-N

>  <name>  (877) 
(1S,2S,5R,6R,7R,12R,13R)-6,13-bis(hydroxymethyl)-2,6-dimethyltetracyclo[10.3.1.01,10.02,7]hexadecane-5,13-diol

>  <iupac_name>  (877) 
(1~{S},2~{S},5~{R},6~{R},7~{R},12~{R},13~{R})-6,13-bis(hydroxymethyl)-2,6-dimethyl-tetracyclo[10.3.1.0^{1,10}.0^{2,7}]hexadecane-5,13-diol

>  <annotation_level>  (877) 
5

>  <total_atom_count>  (877) 
58

>  <heavy_atom_count>  (877) 
24

>  <molecular_weight>  (877) 
338.49

>  <exact_molecular_weight>  (877) 
338.24571

>  <molecular_formula>  (877) 
C20H34O4

>  <alogp>  (877) 
2.09

>  <topological_polar_surface_area>  (877) 
80.92

>  <rotatable_bond_count>  (877) 
2

>  <hydrogen_bond_acceptors>  (877) 
4

>  <hydrogen_bond_donors>  (877) 
4

>  <hydrogen_bond_acceptors_lipinski>  (877) 
4

>  <hydrogen_bond_donors_lipinski>  (877) 
4

>  <lipinski_rule_of_five_violations>  (877) 
0

>  <aromatic_rings_count>  (877) 
0

>  <qed_drug_likeliness>  (877) 
0.62

>  <formal_charge>  (877) 
0

>  <fractioncsp3>  (877) 
1.00

>  <number_of_minimal_rings>  (877) 
4

>  <van_der_walls_volume>  (877) 
nan

>  <contains_sugar>  (877) 
False

>  <contains_ring_sugars>  (877) 
False

>  <contains_linear_sugars>  (877) 
False

>  <murcko_framework>  (877) 
C1CCC2C(C1)CCC3CC4CCCC32C4

>  <np_likeness>  (877) 
3.34

>  <chemical_class>  (877) 
Prenol lipids

>  <chemical_sub_class>  (877) 
Diterpenoids

>  <chemical_super_class>  (877) 
Lipids and lipid-like molecules

>  <direct_parent_classification>  (877) 
Aphidicolane and stemodane diterpenoids

>  <np_classifier_pathway>  (877) 
Terpenoids

>  <np_classifier_superclass>  (877) 
Diterpenoids

>  <np_classifier_class>  (877) 
Aphidicolane diterpenoids

>  <np_classifier_is_glycoside>  (877) 
False

>  <organisms>  (877) 
Nigrospora oryzae|Nigrospora sphaerica

>  <collections>  (877) 
Latin America dataset|NuBBEDB|WikiData Natural Products

>  <dois>  (877) 
10.1055/S-0034-1368301|10.1055/s-0034-1368301

>  <synonyms>  (877) 
Aphidicolin|CHEMBL12500

>  <cas>  (877) 
nan

$$$$

     RDKit          2D

 10 10  0  0  0  0  0  0  0  0999 V2000
   -4.3791   -0.3880    0.0000 C   0  0  0  0  0  0  0  0  0  0  0  0
   -2.9908    0.1799    0.0000 C   0  0  0  0  0  0  0  0  0  0  0  0
   -1.8048   -0.7384    0.0000 C   0  0  0  0  0  0  0  0  0  0  0  0
   -0.4165   -0.1704    0.0000 C   0  0  0  0  0  0  0  0  0  0  0  0
   -0.2142    1.3159    0.0000 C   0  0  0  0  0  0  0  0  0  0  0  0
    1.1741    1.8839    0.0000 C   0  0  0  0  0  0  0  0  0  0  0  0
    2.3601    0.9656    0.0000 C   0  0  0  0  0  0  0  0  0  0  0  0
    2.1579   -0.5207    0.0000 C   0  0  0  0  0  0  0  0  0  0  0  0
    3.3439   -1.4390    0.0000 O   0  0  0  0  0  0  0  0  0  0  0  0
    0.7695   -1.0887    0.0000 O   0  0  0  0  0  0  0  0  0  0  0  0
  1  2  1  0
  2  3  1  0
  4  3  1  1
  4  5  1  0
  5  6  1  0
  6  7  2  0
  7  8  1  0
  8  9  2  0
  8 10  1  0
 10  4  1  0
M  END
>  <identifier>  (878) 
CNP0289173.1

>  <canonical_smiles>  (878) 
CCC[C@H]1CC=CC(=O)O1

>  <standard_inchi>  (878) 
InChI=1S/C8H12O2/c1-2-4-7-5-3-6-8(9)10-7/h3,6-7H,2,4-5H2,1H3/t7-/m0/s1

>  <standard_inchi_key>  (878) 
ZFFLYUGDQAHVSE-ZETCQYMHSA-N

>  <name>  (878) 
nan

>  <iupac_name>  (878) 
(2~{S})-2-propyl-2,3-dihydropyran-6-one

>  <annotation_level>  (878) 
5

>  <total_atom_count>  (878) 
22

>  <heavy_atom_count>  (878) 
10

>  <molecular_weight>  (878) 
140.18

>  <exact_molecular_weight>  (878) 
140.08373

>  <molecular_formula>  (878) 
C8H12O2

>  <alogp>  (878) 
1.66

>  <topological_polar_surface_area>  (878) 
26.30

>  <rotatable_bond_count>  (878) 
2

>  <hydrogen_bond_acceptors>  (878) 
2

>  <hydrogen_bond_donors>  (878) 
0

>  <hydrogen_bond_acceptors_lipinski>  (878) 
2

>  <hydrogen_bond_donors_lipinski>  (878) 
0

>  <lipinski_rule_of_five_violations>  (878) 
0

>  <aromatic_rings_count>  (878) 
0

>  <qed_drug_likeliness>  (878) 
0.55

>  <formal_charge>  (878) 
0

>  <fractioncsp3>  (878) 
0.63

>  <number_of_minimal_rings>  (878) 
1

>  <van_der_walls_volume>  (878) 
140.80

>  <contains_sugar>  (878) 
False

>  <contains_ring_sugars>  (878) 
False

>  <contains_linear_sugars>  (878) 
False

>  <murcko_framework>  (878) 
O1CC=CCC1

>  <np_likeness>  (878) 
2.83

>  <chemical_class>  (878) 
Pyrans

>  <chemical_sub_class>  (878) 
Pyranones and derivatives

>  <chemical_super_class>  (878) 
Organoheterocyclic compounds

>  <direct_parent_classification>  (878) 
Dihydropyranones

>  <np_classifier_pathway>  (878) 
Polyketides

>  <np_classifier_superclass>  (878) 
Cyclic polyketides

>  <np_classifier_class>  (878) 
2-pyrone derivatives

>  <np_classifier_is_glycoside>  (878) 
False

>  <organisms>  (878) 
Cryptocarya aschersoniana

>  <collections>  (878) 
ChemSpider NPs|Latin America dataset|NuBBEDB|Super Natural II|ZINC NP

>  <dois>  (878) 
nan

>  <synonyms>  (878) 
6-Propyl-56-dihydro-2-pyrone

>  <cas>  (878) 
nan

$$$$

     RDKit          2D

 27 30  0  0  0  0  0  0  0  0999 V2000
    3.3236    5.0400    0.0000 C   0  0  0  0  0  0  0  0  0  0  0  0
    3.4045    3.5422    0.0000 C   0  0  0  0  0  0  0  0  0  0  0  0
    2.1478    2.7232    0.0000 C   0  0  0  0  0  0  0  0  0  0  0  0
    2.2287    1.2254    0.0000 C   0  0  0  0  0  0  0  0  0  0  0  0
    3.5662    0.5466    0.0000 C   0  0  0  0  0  0  0  0  0  0  0  0
    3.6471   -0.9513    0.0000 C   0  0  0  0  0  0  0  0  0  0  0  0
    4.9847   -1.6301    0.0000 O   0  0  0  0  0  0  0  0  0  0  0  0
    5.0656   -3.1279    0.0000 C   0  0  0  0  0  0  0  0  0  0  0  0
    2.3904   -1.7702    0.0000 C   0  0  0  0  0  0  0  0  0  0  0  0
    2.4713   -3.2680    0.0000 O   0  0  0  0  0  0  0  0  0  0  0  0
    1.0528   -1.0914    0.0000 C   0  0  0  0  0  0  0  0  0  0  0  0
   -0.2039   -1.9103    0.0000 O   0  0  0  0  0  0  0  0  0  0  0  0
   -0.1230   -3.4082    0.0000 C   0  0  0  0  0  0  0  0  0  0  0  0
   -0.0095   -0.0324    0.0000 C   0  0  0  0  0  0  0  0  0  0  0  0
   -1.4907   -0.2694    0.0000 C   0  0  0  0  0  0  0  0  0  0  0  0
   -2.0260   -1.6706    0.0000 C   0  0  0  0  0  0  0  0  0  0  0  0
   -3.5071   -1.9077    0.0000 C   0  0  0  0  0  0  0  0  0  0  0  0
   -4.4530   -0.7434    0.0000 C   0  0  0  0  0  0  0  0  0  0  0  0
   -5.9510   -0.6673    0.0000 O   0  0  0  0  0  0  0  0  0  0  0  0
   -6.3416    0.7809    0.0000 C   0  0  0  0  0  0  0  0  0  0  0  0
   -5.0849    1.5999    0.0000 O   0  0  0  0  0  0  0  0  0  0  0  0
   -3.9177    0.6578    0.0000 C   0  0  0  0  0  0  0  0  0  0  0  0
   -2.4365    0.8948    0.0000 C   0  0  0  0  0  0  0  0  0  0  0  0
    0.6694    1.3052    0.0000 C   0  0  0  0  0  0  0  0  0  0  0  0
   -0.0138    2.6406    0.0000 C   0  0  0  0  0  0  0  0  0  0  0  0
    0.9720    0.4064    0.0000 C   0  0  0  0  0  0  0  0  0  0  0  0
   -0.3656    1.0853    0.0000 O   0  0  0  0  0  0  0  0  0  0  0  0
  1  2  2  0
  2  3  1  0
  4  3  1  6
  4  5  1  0
  5  6  2  0
  6  7  1  0
  7  8  1  0
  6  9  1  0
  9 10  2  0
  9 11  1  0
 11 12  1  1
 12 13  1  0
 11 14  1  0
 14 15  1  6
 15 16  2  0
 16 17  1  0
 17 18  2  0
 18 19  1  0
 19 20  1  0
 20 21  1  0
 21 22  1  0
 22 23  2  0
 14 24  1  0
 24 25  1  1
 11 26  1  0
 26 27  1  6
 24  4  1  0
 26  4  1  0
 23 15  1  0
 22 18  1  0
M  END
>  <identifier>  (879) 
CNP0359865.3

>  <canonical_smiles>  (879) 
C=CC[C@@]12C=C(OC)C(=O)[C@](OC)([C@H](C3=CC=C4OCOC4=C3)[C@H]1C)[C@@H]2O

>  <standard_inchi>  (879) 
InChI=1S/C21H24O6/c1-5-8-20-10-16(24-3)18(22)21(25-4,19(20)23)17(12(20)2)13-6-7-14-15(9-13)27-11-26-14/h5-7,9-10,12,17,19,23H,1,8,11H2,2-4H3/t12-,17+,19-,20-,21-/m1/s1

>  <standard_inchi_key>  (879) 
RTLORDLGFCTXOX-IQUYCSQLSA-N

>  <name>  (879) 
(1S,5S,6R,7S,8R)-7-(1,3-benzodioxol-5-yl)-8-hydroxy-1,3-dimethoxy-6-methyl-5-prop-2-enylbicyclo[3.2.1]oct-3-en-2-one

>  <iupac_name>  (879) 
(1~{S},5~{S},6~{R},7~{S},8~{R})-5-allyl-7-(1,3-benzodioxol-5-yl)-8-hydroxy-1,3-dimethoxy-6-methyl-bicyclo[3.2.1]oct-3-en-2-one

>  <annotation_level>  (879) 
5

>  <total_atom_count>  (879) 
51

>  <heavy_atom_count>  (879) 
27

>  <molecular_weight>  (879) 
372.42

>  <exact_molecular_weight>  (879) 
372.15729

>  <molecular_formula>  (879) 
C21H24O6

>  <alogp>  (879) 
2.57

>  <topological_polar_surface_area>  (879) 
74.22

>  <rotatable_bond_count>  (879) 
5

>  <hydrogen_bond_acceptors>  (879) 
6

>  <hydrogen_bond_donors>  (879) 
1

>  <hydrogen_bond_acceptors_lipinski>  (879) 
6

>  <hydrogen_bond_donors_lipinski>  (879) 
1

>  <lipinski_rule_of_five_violations>  (879) 
0

>  <aromatic_rings_count>  (879) 
1

>  <qed_drug_likeliness>  (879) 
0.80

>  <formal_charge>  (879) 
0

>  <fractioncsp3>  (879) 
0.48

>  <number_of_minimal_rings>  (879) 
4

>  <van_der_walls_volume>  (879) 
nan

>  <contains_sugar>  (879) 
False

>  <contains_ring_sugars>  (879) 
False

>  <contains_linear_sugars>  (879) 
False

>  <murcko_framework>  (879) 
O1c2ccc(cc2OC1)C3CC4C=CCC3C4

>  <np_likeness>  (879) 
2.17

>  <chemical_class>  (879) 
Benzodioxoles

>  <chemical_sub_class>  (879) 
Benzodioxoles

>  <chemical_super_class>  (879) 
Organoheterocyclic compounds

>  <direct_parent_classification>  (879) 
Benzodioxoles

>  <np_classifier_pathway>  (879) 
Shikimates and Phenylpropanoids

>  <np_classifier_superclass>  (879) 
Lignans

>  <np_classifier_class>  (879) 
Neolignans

>  <np_classifier_is_glycoside>  (879) 
False

>  <organisms>  (879) 
Endlicheria|Licaria armeniaca|Ocotea aciphylla

>  <collections>  (879) 
Latin America dataset|NuBBEDB|WikiData Natural Products

>  <dois>  (879) 
10.1016/0031-9422(81)84045-9|10.1016/S0031-9422(00)81240-6|10.1021/NP030507Y

>  <synonyms>  (879) 
3'-methoxyguianin|BDBM50242103|CHEMBL513395

>  <cas>  (879) 
nan

$$$$

     RDKit          2D

 39 44  0  0  0  0  0  0  0  0999 V2000
   -3.5409    6.7246    0.0000 C   0  0  0  0  0  0  0  0  0  0  0  0
   -3.8400    5.2547    0.0000 O   0  0  0  0  0  0  0  0  0  0  0  0
   -2.7166    4.2607    0.0000 C   0  0  0  0  0  0  0  0  0  0  0  0
   -1.2941    4.7366    0.0000 O   0  0  0  0  0  0  0  0  0  0  0  0
   -3.0157    2.7909    0.0000 C   0  0  0  0  0  0  0  0  0  0  0  0
   -1.8923    1.7969    0.0000 C   0  0  0  0  0  0  0  0  0  0  0  0
   -2.1914    0.3270    0.0000 C   0  0  0  0  0  0  0  0  0  0  0  0
   -3.1524    0.8488    0.0000 C   0  0  0  0  0  0  0  0  0  0  0  0
   -0.6919    0.2877    0.0000 C   0  0  0  0  0  0  0  0  0  0  0  0
    0.0919    1.5666    0.0000 C   0  0  0  0  0  0  0  0  0  0  0  0
    1.5914    1.5273    0.0000 C   0  0  0  0  0  0  0  0  0  0  0  0
    2.3071    0.2091    0.0000 C   0  0  0  0  0  0  0  0  0  0  0  0
    3.0908    1.4880    0.0000 C   0  0  0  0  0  0  0  0  0  0  0  0
    3.8065    0.1697    0.0000 C   0  0  0  0  0  0  0  0  0  0  0  0
    4.5903    1.4487    0.0000 C   0  0  0  0  0  0  0  0  0  0  0  0
    4.0164    2.8345    0.0000 C   0  0  0  0  0  0  0  0  0  0  0  0
    5.1570    3.8087    0.0000 O   0  0  0  0  0  0  0  0  0  0  0  0
    6.4359    3.0249    0.0000 C   0  0  0  0  0  0  0  0  0  0  0  0
    6.0857    1.5663    0.0000 C   0  0  0  0  0  0  0  0  0  0  0  0
    4.5222   -1.1485    0.0000 O   0  0  0  0  0  0  0  0  0  0  0  0
    3.7384   -2.4274    0.0000 C   0  0  0  0  0  0  0  0  0  0  0  0
    4.4541   -3.7457    0.0000 O   0  0  0  0  0  0  0  0  0  0  0  0
    2.2390   -2.3881    0.0000 C   0  0  0  0  0  0  0  0  0  0  0  0
    0.7395   -2.3488    0.0000 O   0  0  0  0  0  0  0  0  0  0  0  0
    1.5233   -1.0699    0.0000 C   0  0  0  0  0  0  0  0  0  0  0  0
    0.0238   -1.0306    0.0000 C   0  0  0  0  0  0  0  0  0  0  0  0
   -1.4757   -0.9912    0.0000 C   0  0  0  0  0  0  0  0  0  0  0  0
   -0.7600   -2.3095    0.0000 C   0  0  0  0  0  0  0  0  0  0  0  0
   -0.0443   -3.6277    0.0000 O   0  0  0  0  0  0  0  0  0  0  0  0
   -0.8281   -4.9067    0.0000 C   0  0  0  0  0  0  0  0  0  0  0  0
   -0.1124   -6.2249    0.0000 C   0  0  0  0  0  0  0  0  0  0  0  0
   -2.3276   -4.8674    0.0000 O   0  0  0  0  0  0  0  0  0  0  0  0
   -2.2595   -2.2702    0.0000 C   0  0  0  0  0  0  0  0  0  0  0  0
   -3.0433   -3.5491    0.0000 O   0  0  0  0  0  0  0  0  0  0  0  0
   -2.9752   -0.9519    0.0000 C   0  0  0  0  0  0  0  0  0  0  0  0
   -4.2934   -1.6676    0.0000 O   0  0  0  0  0  0  0  0  0  0  0  0
   -4.2541   -0.1681    0.0000 C   0  0  0  0  0  0  0  0  0  0  0  0
   -5.7240    0.1310    0.0000 C   0  0  0  0  0  0  0  0  0  0  0  0
   -3.9803    0.8905    0.0000 C   0  0  0  0  0  0  0  0  0  0  0  0
  1  2  1  0
  2  3  1  0
  3  4  2  0
  3  5  1  0
  5  6  2  3
  6  7  1  0
  7  8  1  1
  7  9  1  0
  9 10  1  1
 10 11  1  0
 11 12  1  0
 12 13  1  6
 12 14  1  0
 14 15  1  6
 15 16  2  0
 16 17  1  0
 17 18  1  0
 18 19  2  0
 14 20  1  0
 20 21  1  0
 21 22  2  0
 21 23  1  0
 23 24  1  1
 25 24  1  1
 25 26  1  0
 26 27  1  1
 26 28  1  0
 28 29  1  0
 29 30  1  0
 30 31  1  0
 30 32  2  0
 28 33  1  0
 33 34  2  0
 33 35  1  0
 35 36  1  6
 36 37  1  0
 37 38  1  0
 37 39  1  0
 35  7  1  0
 26  9  1  0
 37 35  1  0
 25 12  1  0
 19 15  1  0
 25 23  1  0
M  END
>  <identifier>  (880) 
CNP0080505.1

>  <canonical_smiles>  (880) 
COC(=O)C=C[C@]1(C)[C@H]2CC[C@@]3(C)[C@H](C4=COC=C4)OC(=O)[C@H]4O[C@]43[C@]2(C)C(OC(C)=O)C(=O)[C@]12OC2(C)C

>  <standard_inchi>  (880) 
InChI=1S/C29H34O10/c1-15(30)36-21-19(32)28(24(2,3)39-28)25(4,12-9-18(31)34-7)17-8-11-26(5)20(16-10-13-35-14-16)37-23(33)22-29(26,38-22)27(17,21)6/h9-10,12-14,17,20-22H,8,11H2,1-7H3/t17-,20+,21?,22-,25-,26+,27+,28-,29-/m1/s1

>  <standard_inchi_key>  (880) 
SGJOBOHDYYLSIT-FRQHVQDFSA-N

>  <name>  (880) 
nan

>  <iupac_name>  (880) 
methyl 3-[(1~{R},2~{S},5~{S},6~{R},7~{R},10~{S},11~{S},14~{S})-3-acetoxy-11-(3-furyl)-2,3',3',6,10-pentamethyl-4,13-dioxo-spiro[12,15-dioxatetracyclo[8.5.0.0^{1,14}.0^{2,7}]pentadecane-5,2'-oxirane]-6-yl]prop-2-enoate

>  <annotation_level>  (880) 
4

>  <total_atom_count>  (880) 
73

>  <heavy_atom_count>  (880) 
39

>  <molecular_weight>  (880) 
542.58

>  <exact_molecular_weight>  (880) 
542.2152

>  <molecular_formula>  (880) 
C29H34O10

>  <alogp>  (880) 
3.24

>  <topological_polar_surface_area>  (880) 
134.17

>  <rotatable_bond_count>  (880) 
4

>  <hydrogen_bond_acceptors>  (880) 
10

>  <hydrogen_bond_donors>  (880) 
0

>  <hydrogen_bond_acceptors_lipinski>  (880) 
10

>  <hydrogen_bond_donors_lipinski>  (880) 
0

>  <lipinski_rule_of_five_violations>  (880) 
1

>  <aromatic_rings_count>  (880) 
1

>  <qed_drug_likeliness>  (880) 
0.24

>  <formal_charge>  (880) 
0

>  <fractioncsp3>  (880) 
0.66

>  <number_of_minimal_rings>  (880) 
6

>  <van_der_walls_volume>  (880) 
nan

>  <contains_sugar>  (880) 
False

>  <contains_ring_sugars>  (880) 
False

>  <contains_linear_sugars>  (880) 
False

>  <murcko_framework>  (880) 
o1ccc(c1)C2OCC3OC34C2CCC5CC6(OC6)CCC54

>  <np_likeness>  (880) 
2.59

>  <chemical_class>  (880) 
Naphthopyrans

>  <chemical_sub_class>  (880) 
Naphthopyrans

>  <chemical_super_class>  (880) 
Organoheterocyclic compounds

>  <direct_parent_classification>  (880) 
Naphthopyrans

>  <np_classifier_pathway>  (880) 
Terpenoids

>  <np_classifier_superclass>  (880) 
Triterpenoids

>  <np_classifier_class>  (880) 
Limonoids

>  <np_classifier_is_glycoside>  (880) 
False

>  <organisms>  (880) 
Dictyoloma vandellianum

>  <collections>  (880) 
Latin America dataset|NuBBEDB

>  <dois>  (880) 
10.1016/0305-1978(88)90060-9

>  <synonyms>  (880) 
Spathelin

>  <cas>  (880) 
nan

$$$$

     RDKit          2D

 19 21  0  0  0  0  0  0  0  0999 V2000
   -6.2397   -1.5415    0.0000 C   0  0  0  0  0  0  0  0  0  0  0  0
   -4.8039   -1.9757    0.0000 O   0  0  0  0  0  0  0  0  0  0  0  0
   -3.7100   -0.9494    0.0000 C   0  0  0  0  0  0  0  0  0  0  0  0
   -4.0518    0.5111    0.0000 C   0  0  0  0  0  0  0  0  0  0  0  0
   -2.9579    1.5374    0.0000 C   0  0  0  0  0  0  0  0  0  0  0  0
   -1.5221    1.1032    0.0000 C   0  0  0  0  0  0  0  0  0  0  0  0
   -0.4282    2.1295    0.0000 C   0  0  0  0  0  0  0  0  0  0  0  0
   -0.7700    3.5900    0.0000 O   0  0  0  0  0  0  0  0  0  0  0  0
    1.0076    1.6953    0.0000 C   0  0  0  0  0  0  0  0  0  0  0  0
    1.3494    0.2347    0.0000 C   0  0  0  0  0  0  0  0  0  0  0  0
    2.7852   -0.1995    0.0000 C   0  0  0  0  0  0  0  0  0  0  0  0
    3.1270   -1.6600    0.0000 C   0  0  0  0  0  0  0  0  0  0  0  0
    4.5628   -2.0942    0.0000 C   0  0  0  0  0  0  0  0  0  0  0  0
    5.6567   -1.0679    0.0000 C   0  0  0  0  0  0  0  0  0  0  0  0
    5.3149    0.3926    0.0000 C   0  0  0  0  0  0  0  0  0  0  0  0
    3.8791    0.8268    0.0000 C   0  0  0  0  0  0  0  0  0  0  0  0
    0.2555   -0.7916    0.0000 O   0  0  0  0  0  0  0  0  0  0  0  0
   -1.1803   -0.3573    0.0000 C   0  0  0  0  0  0  0  0  0  0  0  0
   -2.2742   -1.3836    0.0000 C   0  0  0  0  0  0  0  0  0  0  0  0
  1  2  1  0
  2  3  1  0
  3  4  2  0
  4  5  1  0
  5  6  2  0
  6  7  1  0
  7  8  2  0
  7  9  1  0
  9 10  2  0
 10 11  1  0
 11 12  2  0
 12 13  1  0
 13 14  2  0
 14 15  1  0
 15 16  2  0
 10 17  1  0
 17 18  1  0
 18 19  2  0
 19  3  1  0
 18  6  1  0
 16 11  1  0
M  END
>  <identifier>  (881) 
CNP0295329.0

>  <canonical_smiles>  (881) 
COC1=CC=C2C(=O)C=C(C3=CC=CC=C3)OC2=C1

>  <standard_inchi>  (881) 
InChI=1S/C16H12O3/c1-18-12-7-8-13-14(17)10-15(19-16(13)9-12)11-5-3-2-4-6-11/h2-10H,1H3

>  <standard_inchi_key>  (881) 
QKNDCRMJDZLFEG-UHFFFAOYSA-N

>  <name>  (881) 
7-Methoxyflavone

>  <iupac_name>  (881) 
7-methoxy-2-phenyl-chromen-4-one

>  <annotation_level>  (881) 
5

>  <total_atom_count>  (881) 
31

>  <heavy_atom_count>  (881) 
19

>  <molecular_weight>  (881) 
252.27

>  <exact_molecular_weight>  (881) 
252.07864

>  <molecular_formula>  (881) 
C16H12O3

>  <alogp>  (881) 
3.47

>  <topological_polar_surface_area>  (881) 
39.44

>  <rotatable_bond_count>  (881) 
2

>  <hydrogen_bond_acceptors>  (881) 
3

>  <hydrogen_bond_donors>  (881) 
0

>  <hydrogen_bond_acceptors_lipinski>  (881) 
3

>  <hydrogen_bond_donors_lipinski>  (881) 
0

>  <lipinski_rule_of_five_violations>  (881) 
0

>  <aromatic_rings_count>  (881) 
3

>  <qed_drug_likeliness>  (881) 
0.70

>  <formal_charge>  (881) 
0

>  <fractioncsp3>  (881) 
0.06

>  <number_of_minimal_rings>  (881) 
3

>  <van_der_walls_volume>  (881) 
222.03

>  <contains_sugar>  (881) 
False

>  <contains_ring_sugars>  (881) 
False

>  <contains_linear_sugars>  (881) 
False

>  <murcko_framework>  (881) 
O1c2ccccc2CC=C1c3ccccc3

>  <np_likeness>  (881) 
0.29

>  <chemical_class>  (881) 
Flavonoids

>  <chemical_sub_class>  (881) 
O-methylated flavonoids

>  <chemical_super_class>  (881) 
Phenylpropanoids and polyketides

>  <direct_parent_classification>  (881) 
7-O-methylated flavonoids

>  <np_classifier_pathway>  (881) 
Shikimates and Phenylpropanoids

>  <np_classifier_superclass>  (881) 
Flavonoids

>  <np_classifier_class>  (881) 
Flavones

>  <np_classifier_is_glycoside>  (881) 
False

>  <organisms>  (881) 
Acrocarpia paniculata|Anodendron affine|Apis mellifera|Cedrela salvadorensis|Cipadessa fruticosa|Clathria basilana|Conchocarpus heterophyllus|Garcinia cambogia|Hertia cheirifolia|Licaria chrysophylla|Muntingia calabura|Ormosia hosiei|Ornithoglossum viride|Pertusaria truncata|Petasites laevigatus|Pimelea simplex|Pocillopora eydouxi|Polypodium decumanum|Rubia tetragona|Salix babylonica|Schizanthus tricolor|Sphaeranthus confertifolius|Ziziphus mauritiana

>  <collections>  (881) 
Australian natural products|CMAUP (cCollective molecular activities of useful plants)|InterBioScreen Ltd|KNApSaCK|Latin America dataset|NPASS|NPEdia|NuBBEDB|Super Natural II|TCMID (Traditional Chinese Medicine Integrated Database)|TIPdb (database of Taiwan indigenous plants)|UNPD (Universal Natural Products Database)|WikiData Natural Products|ZINC NP

>  <dois>  (881) 
10.1055/S-2007-967196|10.1071/CH9811779|10.1071/ch9811779|10.1080/14786410601130307|10.1590/S0102-695X2010000100002|10.3390/MOLECULES13081530

>  <synonyms>  (881) 
22395-22-8|4H-1-Benzopyran-4-one, 7-methoxy-2-phenyl-|7-METHOXYFLAVONE [VANDF]|7-Methoxy Flavone|7-Methoxy-2-phenyl-4H-benzopyran-4-one|7-Methoxy-2-phenylchromone|7-methoxy-2-phenyl-4H-chromen-4-one|7-methoxyflavone|A1-00200|A878550|AB00133543-03|ACon1_000207|AKOS001617181|BDBM50591918|BIDD:ER0421|BRD-K00654887-001-01-5|CCG-106707|CHEBI:192603|CHEMBL16782|CS-0144725|D70148|DB-045897|DS-4825|DTXSID80332790|EU-0071703|F3385-6145|Flavone, 7-methoxy-|HY-N8487|InChI=1\/C16H12O3\/c1-18-12-7-8-13-14(17)10-15(19-16(13)9-12)11-5-3-2-4-6-11\/h2-10H,1H|J-014687|LMPK12110021|M1423|MB00278|MEGxp0_001706|MFCD00017462|NCGC00180781-01|NS00015828|NSC-741744|Oprea1_076281|PD143277|Q27293878|SCHEMBL1373009|SR-01000434441|STL100263|UNII-XK561AP5UR|XK561AP5UR

>  <cas>  (881) 
22395-22-8

$$$$

     RDKit          2D

 10 10  0  0  0  0  0  0  0  0999 V2000
    3.7500    0.0000    0.0000 C   0  0  0  0  0  0  0  0  0  0  0  0
    2.2500   -0.0000    0.0000 C   0  0  0  0  0  0  0  0  0  0  0  0
    1.5000   -1.2990    0.0000 C   0  0  0  0  0  0  0  0  0  0  0  0
   -0.0000   -1.2990    0.0000 C   0  0  0  0  0  0  0  0  0  0  0  0
   -0.7500    0.0000    0.0000 C   0  0  0  0  0  0  0  0  0  0  0  0
   -2.2500    0.0000    0.0000 C   0  0  0  0  0  0  0  0  0  0  0  0
   -3.0000    1.2990    0.0000 C   0  0  0  0  0  0  0  0  0  0  0  0
   -3.0000   -1.2990    0.0000 C   0  0  0  0  0  0  0  0  0  0  0  0
    0.0000    1.2990    0.0000 C   0  0  0  0  0  0  0  0  0  0  0  0
    1.5000    1.2990    0.0000 C   0  0  0  0  0  0  0  0  0  0  0  0
  1  2  1  0
  2  3  2  0
  3  4  1  0
  4  5  2  0
  5  6  1  0
  6  7  1  0
  6  8  1  0
  5  9  1  0
  9 10  1  0
 10  2  1  0
M  END
>  <identifier>  (882) 
CNP0178656.0

>  <canonical_smiles>  (882) 
CC1=CC=C(C(C)C)CC1

>  <standard_inchi>  (882) 
InChI=1S/C10H16/c1-8(2)10-6-4-9(3)5-7-10/h4,6,8H,5,7H2,1-3H3

>  <standard_inchi_key>  (882) 
YHQGMYUVUMAZJR-UHFFFAOYSA-N

>  <name>  (882) 
ALPHA-TERPINENE

>  <iupac_name>  (882) 
1-isopropyl-4-methyl-cyclohexa-1,3-diene

>  <annotation_level>  (882) 
5

>  <total_atom_count>  (882) 
26

>  <heavy_atom_count>  (882) 
10

>  <molecular_weight>  (882) 
136.24

>  <exact_molecular_weight>  (882) 
136.1252

>  <molecular_formula>  (882) 
C10H16

>  <alogp>  (882) 
3.31

>  <topological_polar_surface_area>  (882) 
0.00

>  <rotatable_bond_count>  (882) 
1

>  <hydrogen_bond_acceptors>  (882) 
0

>  <hydrogen_bond_donors>  (882) 
0

>  <hydrogen_bond_acceptors_lipinski>  (882) 
0

>  <hydrogen_bond_donors_lipinski>  (882) 
0

>  <lipinski_rule_of_five_violations>  (882) 
0

>  <aromatic_rings_count>  (882) 
0

>  <qed_drug_likeliness>  (882) 
0.52

>  <formal_charge>  (882) 
0

>  <fractioncsp3>  (882) 
0.60

>  <number_of_minimal_rings>  (882) 
1

>  <van_der_walls_volume>  (882) 
154.46

>  <contains_sugar>  (882) 
False

>  <contains_ring_sugars>  (882) 
False

>  <contains_linear_sugars>  (882) 
False

>  <murcko_framework>  (882) 
C=1C=CCCC1

>  <np_likeness>  (882) 
2.53

>  <chemical_class>  (882) 
Prenol lipids

>  <chemical_sub_class>  (882) 
Monoterpenoids

>  <chemical_super_class>  (882) 
Lipids and lipid-like molecules

>  <direct_parent_classification>  (882) 
Monocyclic monoterpenoids

>  <np_classifier_pathway>  (882) 
Terpenoids

>  <np_classifier_superclass>  (882) 
Monoterpenoids

>  <np_classifier_class>  (882) 
Monocyclic monoterpenoids

>  <np_classifier_is_glycoside>  (882) 
False

>  <organisms>  (882) 
Abies alba|Abies sachalinensis|Acca sellowiana|Aceriphyllum rossii|Achillea abrotanoides|Achillea arabica|Achillea biebersteinii|Achillea erba-rotta|Achillea grandifolia|Achillea millefolium|Achillea moschata|Achillea nana|Achillea nobilis|Achillea ptarmica|Acmella ciliata|Actinodium cunninghamii|Actinomadura hibisca|Agathosma betulina|Ageratum conyzoides|Agnorhiza bolanderi|Aguacate|Akebia quinata|Akebia trifoliata|Alligator mississippiensis|Aloysia gratissima|Alphinia galanga|Alpinia galanga|Alpinia zerumbet|Amitermes beaumonti|Amitermes papuanus|Amomum compactum|Amomum krervanh|Amomum longiligulare|Amomum villosum|Amomum xanthioides|Anastrepha suspensa|Anaxagorea clavata|Anethum graveolens|Anethum graveolens L.|Angelica Pubescens|Angelica acutiloba|Angelica gigas|Angelica pubescens f.biserrata|Angelica sinensis|Annona cascarilloides|Anthemis aciphylla|Anthemis aciphylla BOISS.var.discoidea BOISS|Apiaceae|Apium graveolens|Arabidopsis thaliana|Araujia sericifera|Aria pallescens|Arnica nevadensis|Artemisia Annua|Artemisia Capillaris|Artemisia absinthium|Artemisia afra|Artemisia annua|Artemisia arborescens|Artemisia argyi|Artemisia capillaris|Artemisia dracunculus|Artemisia herba-alba|Artemisia indica|Artemisia messerschmidtiana|Artemisia molinieri|Artemisia monogyna|Artemisia montana|Artemisia princeps|Artemisia salsoloides|Artemisia thuscula|Artemisia vulgaris|Artemisia xerophytica|Asarum heterotropoides|Asarum sieboldii|Asiasarum heterotropoides|Asiasarum sieboldii|Aspergillus caespitosus|Aster scaber|Asterolasia squamuligera|Astilbe koreana|Austrobaileya scandens|Baccharis dracunculifolia|Baccharis rufescens|Baeckea frutescens|Baeckea frutescens L.|Bassia butyracea|Beilschmiedia pendula|Beyeria brevifolia|Bitter bush|Boronia muelleri|Boswellia carteri|Boswellia carterii|Boswellia sacra|Bupleurum fruticosum|Burkholderia cepacia|Bursaria spinosa|Callistemon linearis|Camellia sinensis|Canabis sativa|Canarium luzonicum|Canella winterana|Cannabis sativa|Cantinoa mutabilis|Carica papaya|Carpesium Abrotanoides|Carpesium abrotanoides|Carum carvi|Cassia carnaval|Catha edulis|Catharanthus roseus|Cedrus libani|Cetraria aculeata|Chamaecyparis formosensis|Chamaecyparis lawsoniana|Chamaecyparis lawsoniana (A. Murray bis) Parl.|Chamaecyparis obtusa|Chamaecyparis pisifera|Chamaemelum nobile|Chenopodium ambrosioides|Chenopodium ambrosioides L.|Chiliadenus lopadusanus|Chloranthus tianmushanensis|Chresta sphaerocephala|Chromolaena odorata|Chromolaena pulchella|Chrysanthemum indicum|Chrysanthemum morifolium|Chrysanthemum x morifolium|Chrysanthemum zawadskii|Cicuta virosa|Cinnamomum|Cinnamomum aromaticum|Cinnamomum camphora|Cinnamomum illicioides|Cinnamomum parthenoxylum|Cinnamomum sieboldii|Cinnamomum tenuifolium|Cinnamomum zeylanicum|Cinnamon|Cistus albidus|Cistus creticus|Cistus ladanifer|Cistus laurifolius|Cistus monspeliensis|Citrus|Citrus Aurantifolia|Citrus Grandis|Citrus Hystrix|Citrus Reticulata|Citrus Sinensis|Citrus aurantifolia|Citrus aurantium|Citrus grandis|Citrus hystrix|Citrus junos|Citrus maxima|Citrus medica|Citrus medica var. sarcodactylis|Citrus reticulata|Citrus sinensis|Citrus spp.|Citrus unshiu|Citrus × deliciosa|Citrus × paradisi|Citrus ×iyo|Cladonia evansii|Cleistopholis patens|Clinopodium album|Clinopodium barbatum|Clinopodium carolinianum|Clinopodium congestum|Clinopodium grandiflorum|Clinopodium thymifolium|Clonostachys rosea|Cnidium officinale|Coccus fagi|Coespeletia timotensis|Colchicum macedonicum|Conoideocrella tenuis|Conyza newii|Coprosma acerosa|Coptis deltoidea|Coriandrum Sativum|Coriandrum sativum|Coriandrum sativum L.|Cornulaca monacantha|Corydalis nakaii|Couroupita guianensis|Cranfillia vulcanica|Crithmum maritimum|Croton jimenezii|Cryptomeria japonica|Cuminum cyminum|Cuminum cyminum L.|Cupressus sempervirens|Curcuma amada|Curcuma amanda Roxb|Curcuma kwangsiensis|Curcuma longa|Curcuma phaeocaulis|Curcuma wenyujin|Curcuma zedoaria|Cyanospira rippkae|Cymathere triplicata|Cymbopogon citratus|Cymbopogon flexuosus|Cymbopogon martinii|Dacrydium nausoriense|Dacrydium nidulum|Dalbergia frutescens|Daucus Carota|Daucus carota|Dendranthema indicum|Dendrosenecio kilimanjari|Dicliptera riparia|Dillenia papuana|Dipterocarpus alatus|Drosera peltata|Ducrosia ismaelis|Dysphania ambrosioides|Echinophora tenuifolia|Echinops amplexicaulis|Elettaria Cardamomum|Elettaria cardamomum|Elsholtzia ciliata|Elsholtzia fruticosa|Elsholtzia pilosa|Epaltes gariepina|Erwinia rhapontici|Espeletia timotensis|Etlingera cevuga|Etlingera elatior|Eucalyptus|Eucalyptus approximans|Eucalyptus brassiana|Eucalyptus burgessiana|Eucalyptus camaldulensis|Eucalyptus delegatensis|Eucalyptus dendromorpha|Eucalyptus exserta|Eucalyptus fraxinoides|Eucalyptus globulus|Eucalyptus moluccana|Eucalyptus nitens|Eucalyptus ovata|Eucalyptus oviformis|Eucalyptus paliformis|Eucalyptus pulverulenta|Eucalyptus punctata|Eucalyptus radiata|Eucalyptus saligna|Eucalyptus sideroxylon|Eucalyptus spp.|Eucalyptus stenostoma|Eucalyptus triflora|Eupatorium cannabinum|Euphorbia caducifolia|Ferula assafoetida|Ferula fukanensis|Ferula sinkiangensis|Ferulago nodosa|Ficus elastica|Ficus formosana|Flacourtia inermis|Foeniculum Vulgare|Foeniculum vulgare|Folium perillae|Forsythia suspensa|Forsythia viridissima|Fructus amomi|Fructus evodiae|Frullania|Fusarium gibbosum|Garcinia dulcis|Gardenia fosbergii|Gossypium hirsutum|Gossypium sturtianum|Hansenia weberbaueriana|Haplopappus foliosus|Haplostichanthus johnsonii|Hedeoma mandoniana|Hedychium coronarium|Hedyosmum bonplandianum|Hedyosmum mexicanum|Helianthopsis bishopii|Helichrysum bracteiferum|Helichrysum odoratissimum|Heracleum persicum|Homalomena occulta|Homo sapiens|Houttuynia Cordata|Houttuynia cordata|Houttuynia emeiensis|Humulus lupulus|Hypericum papuanum|Hypericum perforatum|Hypselodoris cantabrica|Hyptis goyazensis|Hyptis mutabilis|Hyptis pectinata|Hyptis spicigera|Hyptis suaveolens|Hyssopus seravschanicus|Ilex affinis|Ilex kaushue|Illicium anisatum|Illicium difengpi|Illicium verum|Inula thapsoides|Isodon kameba|Isodon melissoides|Isodon rugosus|Jaspis stellifera|Jugo|Juniperus communis|Juniperus foetidissima|Juniperus monticola|Juniperus scopulorum|Juniperus spp.|Kaempferia pulchra|Kaunia arbuscularis|Kunzea salina|Lactarius scrobiculatus|Laggera pterodonta|Lanxangia tsao-ko|Larix sibirica|Larix sukaczewii|Laurus|Laurus nobilis L.|Lavandula latifolia|Lavandula stoechas|Lepechinia chamaedryoides|Lepechinia chilensis|Ligusticum chuanxiong|Ligusticum porteri|Ligusticum sinense|Limeum pterocarpum|Lippia Myriocephala|Lippia graveolens|Lippia javanica|Lippia multiflora|Lippia origanoides|Lippia sidoides|Lippia ukambensis|Liquidambar Formosana|Liquidambar formosana|Liquidambar orientalis|Liquidambar styraciflua|Litchi chinensis|Litsea ceylanica|Litsea cubeba|Litsea glaucescens|Lupinus formosus|Macrocystidia cucumis|Magnolia biondii|Magnolia denudata|Magnolia kobus|Magnolia liliflora|Magnolia liliiflora|Magnolia officinalis|Magnolia salicifolia|Magnolia sprengeri|Manekia naranjoana|Mangifera indica|Masla dianthera|Melaleuca Leucadendra|Melaleuca alternifolia|Melaleuca decussata|Melaleuca leucadendra|Melaleuca leucadendra L.|Melaleuca linariifolia|Melaleuca parviflora|Mentha Piperita|Mentha arvensis L.|Mentha piperita|Mentha piperita L.|Mesosphaerum pectinatum|Microcitrus|Micromeria biflora|Micromeria juliana|Micromeria maderensis|Micromeria myrtifolia|Micromeria teneriffae|Minthostachys andina|Minthostachys glabrescens|Monarda citriodora|Monarda fistulosa|Monodora tenuifolia|Moringa oleifera|Mosla Dianthera|Mosla cavaleriei|Mosla chinensis|Mosla dianthera|Murraya exotica|Murraya paniculata|Myrcia hedraiophylla|Myristica fragrans|Myrtaceae|Nasutitermes ephratae|Nasutitermes nigriceps|Nelumbo lutea|Nelumbo nucifera|Nepeta crispa|Nepeta racemosa|Nepeta viscida|Nerita albicilla|Notopterygium incisum|Ocimum gratissimum|Ocimum spp.|Ocotea austinii|Ocotea gomezii|Ocotea morae|Odixia angusta|Origanum acutidens|Origanum cordifolium|Origanum dictamnus|Origanum hypericifolium|Origanum intercedens|Origanum majorana|Origanum minutiflorum|Origanum onites|Origanum paniculatum|Origanum ramonense|Origanum sipyleum|Origanum syriacum|Origanum vulgare|Otostegia fruticosa|Oxandra xylopioides|Palicourea alpina|Parmelia enteromorpha|Parthenium argentatum|Parthenium confertum|Parthenium fruticosum|Parthenium hysterophorus|Parthenium incanum|Parthenium schottii|Parthenium tomentosum|Pelargonium citronellum|Pelargonium quercifolium|Peltigera aphthosa|Pericarpium citri reticulatae viride|Persicaria thunbergii|Petasites tatewakianus|Petriella guttulata|Pheidole pallidula|Phyllobates aurotaenia|Picea abies|Picea abies var. abies|Pilocarpus affinis pauciflorus|Pilocarpus jaborandi|Pilocarpus pauciflorus|Pimenta racemosa|Pimpinella anisum|Pinus flexilis|Pinus halepensis|Pinus merkusii|Pinus sylvestris|Piper aduncum|Piper arboreum|Piper augustum|Piper auritum|Piper cubeba|Piper fimbriulatum|Piper lanceaefolium|Piper marginatum|Piper nigrum|Piper sylvestre|Pistacia vera|Plagiochila rutilans var. standleyi|Plagiochila standleyi|Platycladus orientalis|Plectranthus marrubioides|Pluchea dioscoridis|Podachaenium eminens|Porophyllum ruderale|Posoqueria latifolia|Prangos uloptera|Primula macrophylla|Prosopis glandulosa|Prunus laurocerasus|Pseudopterogorgia kallos|Psiadia altissima|Psidium friedrichsthalianum|Psidium guajava|Psidium salutare|Pteris prolifera|Pterocarpus grandiflorus|Ptychopetalum olacoides|Punica granatum|Pyrola rotundifolia|Pyrosoma giganteum|Quercus aegilops|Quercus coccifera|Quercus ilex|Radix chuanxiong|Radix et rhizoma anisochili|Renealmia floribunda|Rhanterium epapposum|Rhizobium phaseoli|Rhizoma ahemones daddeanae|Rhizoma chuanxiong|Rhodiola rosea|Rhodiola rosea L.|Rhododendron mucronulatum|Rhodomyrtus tomentosa|Rosmarinus Officinalis|Rosmarinus eriocalyx|Rosmarinus officinalis|Rosmarinus officinalis L.|Rosmarinus tomentosus|Salix sieboldiana|Salvia absconditiflora|Salvia caespitosa|Salvia candidissima|Salvia dorisiana|Salvia dorystaechas|Salvia fruticosa|Salvia granatensis|Salvia jordanii|Salvia officinalis|Salvia syriaca|Salvia triloba|Salvia vermifolia|Salvia xalapensis|Sambucus ebulus|Santolina chamaecyparissus|Santolina insularis|Satureja cilicica|Satureja cuneifolia|Satureja hortensis|Satureja montana|Satureja spicigera|Satureja thymbra|Satureja wiedemanniana|Sauromatum venosum|Saussurea lappa|Scalesia aspera|Schinus molle|Schisandra Chinensis|Schisandra chinensis|Scrophularia smithii|Securidaca inappendiculata|Senecio alcicornis|Senecio chrysanthemoides|Senecio squalidus|Senecio viscosissimus|Senna alexandrina|Sequoia sempervirens|Sequoiadendron giganteum|Seriphidium cinum|Sesbania punicea|Sideritis dichotoma|Sideritis hirsuta|Sideritis leucantha|Sideritis lyciae|Sideritis paulii|Sideritis perfoliata|Simira eliezeriana|Sinopodophyllum hexandrum|Siparuna thecaphora|Smallanthus maculatus|Solanum lycopersicum|Solanum torvum|Stachys aegyptiaca|Steganotaenia araliacea|Stenostomum lucidum|Stereocaulon sasakii|Stevia alpina|Stockwellia|Stoeba extensa|Streptomyces althioticus|Streptomyces fulvoviridis|Streptomyces violaceochromogenes|Strobilanthes callosa|Strobilanthes zeylanica|Strophanthus eminii|Syzygium aromaticum|Tanacetum annuum|Tanacetum millefolium|Tanacetum parthenium|Tanacetum santolinoides|Tanacetum vulgare|Tarchonanthus camphoratus|Taxodium mucronatum|Tetradenia riparia|Teucrium cyprium|Teucrium kotschyanum|Teucrium leucocladum|Teucrium micropodioides|Teucrium polium subsp. polium|Teucrium pseudoscorodonia|Thapsia garganica|Thuja occidentalis|Thuja standishii|Thujopsis dolabrata|Thujopsis dolabrata var. dolabrata|Thymbra capitata|Thymbra spicata|Thymus|Thymus broussonetii|Thymus camphoratus|Thymus capitatus|Thymus cilicicus|Thymus eigii|Thymus kotschyanus|Thymus longicaulis|Thymus nummularius|Thymus pectinatus|Thymus quinquecostatus|Thymus revolutus|Thymus riatarum|Thymus saturejoides|Thymus schimperi|Thymus sibthorpii|Thymus sipyleus|Thymus thracicus|Thymus vulgaris|Thymus willkommii|Thymus zygioides|Thymus zygis|Trachyspermum ammi|Trichostema dichotomum|Trichostema lanceolatum|Trifolium Repens|Trifolium alexandrium|Trifolium pratense|Trifolium repens L.|Tylophora flava|Ulva clathrata|Umbellularia californica|Vaccinium macrocarpon|Valeriana jatamansi|Valeriana officinalis|Varronia curassavica|Viburnum orientale|Virola surinamensis|Vitex agnus-castus|Vitex madiensis|Vitex negundo|Vitis vinifera|Vogtia annua|Wunderlichia mirabilis|Wurfbainia villosa|Xenophyllum poposum|Xylopia aromatica|Xylopia sericea|Zanthoxylum armatum|Zanthoxylum bungeanum|Zanthoxylum chalybaeum|Zanthoxylum chalybeum|Zanthoxylum piperitum|Zanthoxylum schinifolium|Zanthoxylum simulans|Zataria multiflora|Zilla spinosa|Zingiber cassumunar|Zingiber montanum|Zingiber officinale|Zingiber ottensii|Zingiber purpureum|basil|bellis perennis|cicely|common myrtle|common sunflower|corn mint|marjoram|parsley|pomelo|rooibos|tomato

>  <collections>  (882) 
ANPDB|Australian natural products|BitterDB|CMAUP (cCollective molecular activities of useful plants)|ChEBI NPs|EMNPD|ETM (Ethiopian Traditional Medicine) DB|FooDB|KNApSaCK|Latin America dataset|Mitishamba database|NANPDB (Natural Products from Northern African Sources)|NAPRORE-CR|NPASS|NPDBEjeCol|NPEdia|NuBBEDB|Phyto4Health|Super Natural II|TCMDB-Taiwan (Traditional Chinese Medicine database)|TCMID (Traditional Chinese Medicine Integrated Database)|TIPdb (database of Taiwan indigenous plants)|TPPT (Toxic Plants–PhytoToxins)|UNPD (Universal Natural Products Database)|VietHerb|WikiData Natural Products

>  <dois>  (882) 
10.1002/(SICI)1097-0231(199608)10:11<1345::AID-RCM631>3.0.CO;2-4|10.1002/(SICI)1099-1026(199601)11:1<15::AID-FFJ541>3.0.CO;2-H|10.1002/(SICI)1099-1026(199611)11:6<367::AID-FFJ598>3.0.CO;2-R|10.1002/(SICI)1099-1026(1998070)13:4<245::AID-FFJ736>3.0.CO;2-J|10.1002/(SICI)1099-1026(199911/12)14:6<393::AID-FFJ849>3.0.CO;2-5|10.1002/(SICI)1099-1565(199909/10)10:5<241::AID-PCA460>3.0.CO;2-5|10.1002/1099-1026(200005/06)15:3<201::AID-FFJ893>3.0.CO;2-I|10.1002/9780470744307.gat218|10.1002/CBDV.200900162|10.1002/CBDV.201700436|10.1002/CJOC.201180379|10.1002/ECE3.5390|10.1002/FFJ.1053|10.1002/FFJ.1096|10.1002/FFJ.1105|10.1002/FFJ.1187|10.1002/FFJ.1417|10.1002/FFJ.1547|10.1002/FFJ.2730020106|10.1002/FFJ.2730020110|10.1002/FFJ.2730030204|10.1002/FFJ.2730040206|10.1002/FFJ.2730070111|10.1002/FFJ.2730070603|10.1002/FFJ.2730090107|10.1002/FFJ.2730100313|10.1002/HLCA.201200359|10.1002/JCCS.198600037|10.1002/JPS.3080191008|10.1002/JSFA.2740580109|10.1002/JSFA.4146|10.1002/JSSC.200900378|10.1002/PCA.2778|10.1002/PTR.2137|10.1002/PTR.2650040210|10.1002/PTR.2650090215|10.1002/PTR.856|10.1002/RCM.1290091307|10.1002/biuz.19840140514|10.1006/JFCA.1999.0841|10.1007/BF00568256|10.1007/BF00568367|10.1007/BF00580068|10.1007/BF00580907|10.1007/BF00629663|10.1007/BF00629778|10.1007/BF00629870|10.1007/BF01024117|10.1007/BF01386197|10.1007/BF01959201|10.1007/BF02858924|10.1007/BF02860163|10.1007/BF02860485|10.1007/BF02985250|10.1007/S004030050433|10.1007/S11418-006-0039-1|10.1007/S11418-007-0175-2|10.1016/0031-9422(74)85146-0|10.1016/0031-9422(82)80129-5|10.1016/0031-9422(82)83156-7|10.1016/0031-9422(82)85188-1|10.1016/0031-9422(83)85029-8|10.1016/0031-9422(88)80124-9|10.1016/0031-9422(88)80444-8|10.1016/0031-9422(88)83114-5|10.1016/0031-9422(90)85066-O|10.1016/0031-9422(90)85269-L|10.1016/0031-9422(91)83064-R|10.1016/0031-9422(91)83632-U|10.1016/0031-9422(92)83136-M|10.1016/0031-9422(93)85408-J|10.1016/0031-9422(94)85021-6|10.1016/0031-9422(95)00183-8|10.1016/0031-9422(95)00328-5|10.1016/0031-9422(95)00347-A|10.1016/0031-9422(95)00492-P|10.1016/0031-9422(95)00601-X|10.1016/0031-9422(96)00119-7|10.1016/0300-483X(95)03242-8|10.1016/0305-1978(85)90081-X|10.1016/0305-1978(89)90100-2|10.1016/0305-1978(92)90070-T|10.1016/0305-1978(93)90029-Q|10.1016/0305-1978(93)90031-L|10.1016/0305-1978(93)90070-8|10.1016/0305-1978(94)90033-7|10.1016/0305-1978(95)00094-1|10.1016/0305-1978(96)00023-3|10.1016/0378-8741(91)90062-I|10.1016/0378-8741(91)90063-J|10.1016/J.ARABJC.2012.04.042|10.1016/J.BSE.2003.12.009|10.1016/J.CHROMA.2014.10.058|10.1016/J.FOODCHEM.2012.09.111|10.1016/J.FOODCHEM.2015.11.033|10.1016/J.FOODRES.2018.12.054|10.1016/J.INDCROP.2013.06.023|10.1016/J.JPLPH.2018.10.006|10.1016/J.PHYMED.2004.04.006|10.1016/J.PHYMED.2007.03.013|10.1016/J.PHYTOCHEM.2006.04.025|10.1016/J.PHYTOCHEM.2009.07.031|10.1016/J.PHYTOCHEM.2011.09.002|10.1016/S0021-9673(01)82096-3|10.1016/S0021-9673(01)95765-6|10.1016/S0031-9422(00)80081-3|10.1016/S0031-9422(00)80268-X|10.1016/S0031-9422(00)80325-8|10.1016/S0031-9422(00)80682-2|10.1016/S0031-9422(00)80683-4|10.1016/S0031-9422(00)81286-8|10.1016/S0031-9422(00)81741-0|10.1016/S0031-9422(00)83061-7|10.1016/S0031-9422(00)83062-9|10.1016/S0031-9422(00)84088-1|10.1016/S0031-9422(00)84581-1|10.1016/S0031-9422(00)84802-5|10.1016/S0031-9422(00)84946-8|10.1016/S0031-9422(00)90514-4|10.1016/S0031-9422(00)94539-4|10.1016/S0031-9422(00)94756-3|10.1016/S0031-9422(00)94990-2|10.1016/S0031-9422(01)00056-5|10.1016/S0031-9422(02)00004-3|10.1016/S0031-9422(02)00477-6|10.1016/S0031-9422(97)00117-9|10.1016/S0031-9422(97)00324-5|10.1016/S0031-9422(97)00762-0|10.1016/S0031-9422(97)00795-4|10.1016/S0031-9422(97)00828-5|10.1016/S0031-9422(98)00022-3|10.1016/S0031-9422(99)00346-5|10.1016/S0305-1978(00)00103-4|10.1016/S0305-1978(00)00114-9|10.1016/S0305-1978(99)00080-0|10.1016/S0367-326X(01)00327-6|10.1016/S0378-8741(01)00238-0|10.1016/S0378-8741(97)01528-6|10.1016/S0378-8741(99)00209-3|10.1016/S0926-6690(03)00076-1|10.1016/S0944-7113(97)80003-7|10.1016/S0944-7113(98)80048-2|10.1016/j.phytochem.2012.05.019|10.1021/JF00011A020|10.1021/JF00019A020|10.1021/JF00034A020|10.1021/JF00034A033|10.1021/JF00056A055|10.1021/JF00062A024|10.1021/JF00064A020|10.1021/JF00073A015|10.1021/JF00083A023|10.1021/JF00087A036|10.1021/JF00094A032|10.1021/JF00098A007|10.1021/JF00104A026|10.1021/JF0116303|10.1021/JF035377D|10.1021/JF0402633|10.1021/JF049033E|10.1021/JF60160A012|10.1021/JF60198A031|10.1021/JF60199A051|10.1021/JF60200A011|10.1021/JF60201A021|10.1021/JF60206A038|10.1021/JF60218A031|10.1021/JF60221A025|10.1021/JF60222A026|10.1021/JF60230A021|10.1021/JF950540T|10.1021/JF950577D|10.1021/JF970031M|10.1021/JF970110Y|10.1021/JF9708296|10.1021/JO040272A|10.1021/NP030475E|10.1021/NP50006A014|10.1021/NP50008A001|10.1021/NP50009A015|10.1021/NP50034A044|10.1021/NP50035A037|10.1021/NP50038A026|10.1021/NP50046A033|10.1021/NP50046A047|10.1021/NP50047A039|10.1021/NP50048A037|10.1021/NP50048A039|10.1021/NP50062A008|10.1021/jf011456i|10.1021/jf049033e|10.1021/np50006a014|10.1039/J39690000541|10.1055/S-0028-1097609|10.1055/S-0028-1099455|10.1055/S-0028-1100058|10.1055/S-0028-1100131|10.1055/S-2000-10685|10.1055/S-2003-37024|10.1055/S-2006-957378|10.1055/S-2006-957707|10.1055/S-2006-957814|10.1055/S-2006-959474|10.1055/S-2006-959506|10.1055/S-2006-959580|10.1055/S-2006-959714|10.1055/S-2006-959993|10.1055/S-2006-960034|10.1055/S-2006-960126|10.1055/S-2006-960128|10.1055/S-2006-960216|10.1055/S-2006-960939|10.1055/S-2006-961401|10.1055/S-2006-961452|10.1055/S-2006-961490|10.1055/S-2006-961555|10.1055/S-2006-962018|10.1055/S-2006-962450|10.1055/S-2006-962540|10.1055/S-2006-962640|10.1055/S-2006-962688|10.1055/S-2006-962745|10.1055/S-2006-962781|10.1055/S-2007-969050|10.1055/S-2007-969160|10.1055/S-2007-969172|10.1055/S-2007-969176|10.1055/S-2007-969275|10.1055/S-2007-969442|10.1055/S-2007-969599|10.1055/S-2007-969621|10.1055/S-2007-969862|10.1055/S-2007-969897|10.1055/S-2007-969948|10.1055/S-2007-970006|10.1071/bt9810605|10.1073/PNAS.93.18.9966|10.1076/1388-0209(200007)3831-SFT197|10.1076/PHBI.40.1.67.5852|10.1080/00387018508062249|10.1080/0972060X.2013.813219|10.1080/0972060x.2009.10643771|10.1080/10412905.1989.9697751|10.1080/10412905.1989.9697769|10.1080/10412905.1989.9697780|10.1080/10412905.1989.9697797|10.1080/10412905.1989.9699438|10.1080/10412905.1989.9699439|10.1080/10412905.1990.9697824|10.1080/10412905.1990.9697825|10.1080/10412905.1990.9697830|10.1080/10412905.1990.9697847|10.1080/10412905.1990.9697854|10.1080/10412905.1990.9697857|10.1080/10412905.1990.9697864|10.1080/10412905.1990.9697878|10.1080/10412905.1991.9697898|10.1080/10412905.1991.9697905|10.1080/10412905.1991.9697906|10.1080/10412905.1991.9697921|10.1080/10412905.1991.9697923|10.1080/10412905.1991.9697930|10.1080/10412905.1991.9697932|10.1080/10412905.1991.9697936|10.1080/10412905.1991.9697950|10.1080/10412905.1991.9697952|10.1080/10412905.1991.9697953|10.1080/10412905.1991.9697971|10.1080/10412905.1991.9697982|10.1080/10412905.1991.9697990|10.1080/10412905.1991.9697994|10.1080/10412905.1991.9700498|10.1080/10412905.1992.9698015|10.1080/10412905.1992.9698020|10.1080/10412905.1992.9698034|10.1080/10412905.1992.9698035|10.1080/10412905.1992.9698059|10.1080/10412905.1992.9698061|10.1080/10412905.1992.9698062|10.1080/10412905.1992.9698067|10.1080/10412905.1992.9698069|10.1080/10412905.1992.9698070|10.1080/10412905.1992.9698072|10.1080/10412905.1992.9698084|10.1080/10412905.1992.9698086|10.1080/10412905.1992.9698087|10.1080/10412905.1992.9698091|10.1080/10412905.1992.9698109|10.1080/10412905.1992.9698110|10.1080/10412905.1992.9698125|10.1080/10412905.1992.9698136|10.1080/10412905.1992.9698147|10.1080/10412905.1992.9698149|10.1080/10412905.1993.9698164|10.1080/10412905.1993.9698169|10.1080/10412905.1993.9698170|10.1080/10412905.1993.9698176|10.1080/10412905.1993.9698179|10.1080/10412905.1993.9698181|10.1080/10412905.1993.9698189|10.1080/10412905.1993.9698205|10.1080/10412905.1993.9698206|10.1080/10412905.1993.9698214|10.1080/10412905.1993.9698215|10.1080/10412905.1993.9698216|10.1080/10412905.1993.9698218|10.1080/10412905.1993.9698222|10.1080/10412905.1993.9698230|10.1080/10412905.1993.9698235|10.1080/10412905.1993.9698248|10.1080/10412905.1993.9698250|10.1080/10412905.1993.9698253|10.1080/10412905.1993.9698256|10.1080/10412905.1993.9698275|10.1080/10412905.1993.9698309|10.1080/10412905.1994.9698320|10.1080/10412905.1994.9698327|10.1080/10412905.1994.9698330|10.1080/10412905.1994.9698359|10.1080/10412905.1994.9698380|10.1080/10412905.1994.9698404|10.1080/10412905.1994.9698406|10.1080/10412905.1994.9698408|10.1080/10412905.1994.9698412|10.1080/10412905.1994.9698427|10.1080/10412905.1994.9699346|10.1080/10412905.1994.9699347|10.1080/10412905.1994.9699348|10.1080/10412905.1994.9699355|10.1080/10412905.1994.9699356|10.1080/10412905.1994.9699358|10.1080/10412905.1994.9699365|10.1080/10412905.1995.9698473|10.1080/10412905.1995.9698475|10.1080/10412905.1995.9698478|10.1080/10412905.1995.9698479|10.1080/10412905.1995.9698496|10.1080/10412905.1995.9698501|10.1080/10412905.1995.9698505|10.1080/10412905.1995.9698506|10.1080/10412905.1995.9698507|10.1080/10412905.1995.9698508|10.1080/10412905.1995.9698522|10.1080/10412905.1995.9698524|10.1080/10412905.1995.9698528|10.1080/10412905.1995.9698531|10.1080/10412905.1995.9698553|10.1080/10412905.1995.9698558|10.1080/10412905.1995.9698575|10.1080/10412905.1995.9698577|10.1080/10412905.1995.9698591|10.1080/10412905.1995.9700519|10.1080/10412905.1995.9700523|10.1080/10412905.1995.9700529|10.1080/10412905.1995.9700531|10.1080/10412905.1996.9700547|10.1080/10412905.1996.9700554|10.1080/10412905.1996.9700562|10.1080/10412905.1996.9700565|10.1080/10412905.1996.9700567|10.1080/10412905.1996.9700568|10.1080/10412905.1996.9701028|10.1080/10412905.1997.9700709|10.1080/10412905.1997.9700721|10.1080/10412905.1997.9700741|10.1080/10412905.1997.9700780|10.1080/10412905.1998.9700913|10.1080/10412905.1998.9700962|10.1080/10412905.1998.9701015|10.1080/10412905.1999.9701056|10.1080/10412905.1999.9701080|10.1080/10412905.1999.9701113|10.1080/10412905.1999.9701118|10.1080/10412905.1999.9701147|10.1080/10412905.2000.9699524|10.1080/10412905.2000.9712032|10.1080/10412905.2000.9712167|10.1080/10412905.2001.9699620|10.1080/10412905.2002.9699883|10.1080/10412905.2004.9698688|10.1080/10412905.2004.9698740|10.1080/10412905.2004.9698744|10.1080/10412905.2007.9699946|10.1080/10412905.2010.9700320|10.1080/10412905.2010.9700338|10.1080/10412905.2013.796498|10.1080/10412905.2018.1431966|10.1080/10575630108041259|10.1080/14620316.2003.11511610|10.1080/14786410500528478|10.1080/14786410701848154|10.1088/1752-7155/8/1/014001|10.1093/JISESA/IEU175|10.1111/J.1095-8339.1986.TB01826.X|10.1111/J.1365-2621.1985.TB10476.X|10.1128/CMR.19.1.50-62.2006|10.1135/CCCC19862884|10.1135/CCCC19912969|10.1155/2020/8819311|10.1177/1934578X1100600135|10.1186/1471-2229-14-140|10.1186/1472-6882-6-39|10.1186/1756-3305-7-407|10.1201/B22102-8|10.1246/NIKKASHI1921.52.222|10.1246/NIKKASHI1921.63.1465|10.1248/CPB.12.991|10.1248/CPB.54.222|10.1248/CPB.54.725|10.1248/CPB.54.936|10.1248/YAKUSHI1947.106.1_17|10.1271/BBB1961.45.1493|10.1271/BBB1961.47.1841|10.1271/BBB1961.52.2961|10.1271/BBB1961.55.2571|10.1300/J044V07N02_02|10.1515/ZNC-1984-7-802|10.1515/ZNC-1988-5-608|10.1515/ZNC-1990-9-1023|10.1590/S0102-695X2010000400016|10.1590/S0103-50532011000400018|10.2307/2423424|10.23850/24220582.3465|10.2478/V10007-009-0022-Y|10.3109/13880209009082783|10.3109/13880209109082875|10.3136/FSTR.7.200|10.3390/12030389|10.3390/60100092|10.3390/MOLECULES20045346|10.3390/MOLECULES24112053|10.3390/MOLECULES24234244|10.3891/ACTA.CHEM.SCAND.15-1003|10.3891/ACTA.CHEM.SCAND.21-2076|10.4268/CJCMM20111319|10.4314/BCSE.V12I1.21037|10.5897/JMPR12.157

>  <synonyms>  (882) 
-Terpinen|.ALPHA.TERPINENE|.alpha.-Terpine|1,3-Cyclohexadiene, 1-methyl-4-(1-methylethyl)-|1,3-Cyclohexadiene, 1-methyl-4-isopropyl-|1-Isopropyl-4-methyl-1,3-cyclohexadiene|1-Methyl-4-(1-methylethyl)-1,3-cyclohexadiene|1-Methyl-4-isopropyl-1,3-cyclohexadiene|1-Methyl-4-isopropylcyclohexadiene-1,3|1-isopropyl-4-methylcyclohexa-1,3-diene|1-methyl-4-(propan-2-yl)cyclohexa-1,3-diene|1ST1970|4-ISOPROPYL-1-METHYL-1,3-CYCLOHEXADIENE|99-86-5|9MI|A-Terpinene =89%,  contains BHT as stabilizer|AI3-26467|AKOS015841730|ALPHA-TERPINENE [FCC]|Alpha-terpinene alpha-terpinene|BS-33443|C09898|CAS-99-86-5|CCRIS 9058|CHEBI:10334|CHEMBL2251642|CS-0039183|DTXCID7021237|DTXSID9041237|E75753|EINECS 202-795-1|EN300-6738504|Epitope ID:123897|FEMA 3558|FEMA No. 3558|HY-W020182|I24X278AP1|InChI=1\/C10H16\/c1-8(2)10-6-4-9(3)5-7-10\/h4,6,8H,5,7H2,1-3H|LMPR0102090026|M0317|MFCD00001534|NCGC00248299-01|NCGC00255025-01|NS00013197|P-MENTHA-1,3-DIENE [FHFI]|Q423851|Terpenene|Terpilene|Tox21_301126|UNII-I24X278AP1|W-100014|Z1255364643|a-Terpinene (~90%)|a-terpinene|alpha-Terpinen|alpha-Terpinene 2000 microg\/mL in Acetonitrile|alpha-Terpinene, 85%|alpha-Terpinene, >=89%, FCC, FG|alpha-Terpinene, >=95.0% (GC)|alpha-Terpinene, analytical standard|alpha-terpinene|p-Mentha-1,3-diene

>  <cas>  (882) 
99-86-5

$$$$

     RDKit          2D

 26 27  0  0  0  0  0  0  0  0999 V2000
    0.4841   -2.8296    0.0000 C   0  0  0  0  0  0  0  0  0  0  0  0
    0.4923   -1.3296    0.0000 O   0  0  0  0  0  0  0  0  0  0  0  0
   -0.8026   -0.5725    0.0000 C   0  0  0  0  0  0  0  0  0  0  0  0
   -2.1057   -1.3154    0.0000 C   0  0  0  0  0  0  0  0  0  0  0  0
   -3.4006   -0.5583    0.0000 C   0  0  0  0  0  0  0  0  0  0  0  0
   -4.7037   -1.3011    0.0000 C   0  0  0  0  0  0  0  0  0  0  0  0
   -5.9986   -0.5440    0.0000 C   0  0  0  0  0  0  0  0  0  0  0  0
   -7.3018   -1.2869    0.0000 C   0  0  0  0  0  0  0  0  0  0  0  0
   -8.5967   -0.5297    0.0000 O   0  0  0  0  0  0  0  0  0  0  0  0
   -3.3924    0.9417    0.0000 C   0  0  0  0  0  0  0  0  0  0  0  0
   -2.0892    1.6846    0.0000 C   0  0  0  0  0  0  0  0  0  0  0  0
   -2.0810    3.1846    0.0000 O   0  0  0  0  0  0  0  0  0  0  0  0
   -0.7779    3.9274    0.0000 C   0  0  0  0  0  0  0  0  0  0  0  0
   -0.7943    0.9275    0.0000 C   0  0  0  0  0  0  0  0  0  0  0  0
    0.5088    1.6703    0.0000 O   0  0  0  0  0  0  0  0  0  0  0  0
    1.8037    0.9132    0.0000 C   0  0  0  0  0  0  0  0  0  0  0  0
    1.7955   -0.5868    0.0000 O   0  0  0  0  0  0  0  0  0  0  0  0
    3.0904   -1.3439    0.0000 C   0  0  0  0  0  0  0  0  0  0  0  0
    3.0821   -2.8439    0.0000 C   0  0  0  0  0  0  0  0  0  0  0  0
    4.3770   -3.6010    0.0000 O   0  0  0  0  0  0  0  0  0  0  0  0
    4.3935   -0.6011    0.0000 C   0  0  0  0  0  0  0  0  0  0  0  0
    5.6884   -1.3582    0.0000 O   0  0  0  0  0  0  0  0  0  0  0  0
    4.4017    0.8989    0.0000 C   0  0  0  0  0  0  0  0  0  0  0  0
    5.7049    1.6418    0.0000 O   0  0  0  0  0  0  0  0  0  0  0  0
    3.1068    1.6560    0.0000 C   0  0  0  0  0  0  0  0  0  0  0  0
    3.1151    3.1560    0.0000 O   0  0  0  0  0  0  0  0  0  0  0  0
  1  2  1  0
  2  3  1  0
  3  4  2  0
  4  5  1  0
  5  6  1  0
  6  7  2  0
  7  8  1  0
  8  9  1  0
  5 10  2  0
 10 11  1  0
 11 12  1  0
 12 13  1  0
 11 14  2  0
 14 15  1  0
 16 15  1  1
 16 17  1  0
 17 18  1  0
 18 19  1  1
 19 20  1  0
 18 21  1  0
 21 22  1  6
 21 23  1  0
 23 24  1  1
 23 25  1  0
 25 26  1  6
 14  3  1  0
 25 16  1  0
M  END
>  <identifier>  (883) 
CNP0225577.1

>  <canonical_smiles>  (883) 
COC1=CC(/C=C/CO)=CC(OC)=C1O[C@@H]1O[C@H](CO)[C@@H](O)[C@H](O)[C@H]1O

>  <standard_inchi>  (883) 
InChI=1S/C17H24O9/c1-23-10-6-9(4-3-5-18)7-11(24-2)16(10)26-17-15(22)14(21)13(20)12(8-19)25-17/h3-4,6-7,12-15,17-22H,5,8H2,1-2H3/b4-3+/t12-,13-,14+,15-,17+/m1/s1

>  <standard_inchi_key>  (883) 
QJVXKWHHAMZTBY-GCPOEHJPSA-N

>  <name>  (883) 
Syringin

>  <iupac_name>  (883) 
(2~{R},3~{S},4~{S},5~{R},6~{S})-2-(hydroxymethyl)-6-[4-[(~{E})-3-hydroxyprop-1-enyl]-2,6-dimethoxy-phenoxy]tetrahydropyran-3,4,5-triol

>  <annotation_level>  (883) 
5

>  <total_atom_count>  (883) 
50

>  <heavy_atom_count>  (883) 
26

>  <molecular_weight>  (883) 
372.37

>  <exact_molecular_weight>  (883) 
372.14203

>  <molecular_formula>  (883) 
C17H24O9

>  <alogp>  (883) 
-1.11

>  <topological_polar_surface_area>  (883) 
138.07

>  <rotatable_bond_count>  (883) 
7

>  <hydrogen_bond_acceptors>  (883) 
9

>  <hydrogen_bond_donors>  (883) 
5

>  <hydrogen_bond_acceptors_lipinski>  (883) 
9

>  <hydrogen_bond_donors_lipinski>  (883) 
5

>  <lipinski_rule_of_five_violations>  (883) 
0

>  <aromatic_rings_count>  (883) 
1

>  <qed_drug_likeliness>  (883) 
0.40

>  <formal_charge>  (883) 
0

>  <fractioncsp3>  (883) 
0.53

>  <number_of_minimal_rings>  (883) 
2

>  <van_der_walls_volume>  (883) 
326.66

>  <contains_sugar>  (883) 
True

>  <contains_ring_sugars>  (883) 
True

>  <contains_linear_sugars>  (883) 
False

>  <murcko_framework>  (883) 
O(c1ccccc1)C2OCCCC2

>  <np_likeness>  (883) 
1.91

>  <chemical_class>  (883) 
Cinnamyl alcohols

>  <chemical_sub_class>  (883) 
Cinnamyl alcohols

>  <chemical_super_class>  (883) 
Phenylpropanoids and polyketides

>  <direct_parent_classification>  (883) 
Cinnamyl alcohols

>  <np_classifier_pathway>  (883) 
Terpenoids

>  <np_classifier_superclass>  (883) 
Monoterpenoids

>  <np_classifier_class>  (883) 
Menthane monoterpenoids

>  <np_classifier_is_glycoside>  (883) 
True

>  <organisms>  (883) 
Acacia aulacocarpa|Acanthopanax Gracilistylus|Acanthopanax Senticosus|Acanthopanax gracilistylus|Acanthopanax sessiliflorum|Acanthus ebracteatus|Acer pictum|Aconitum racemulosum|Aconitum zuccarini|Actinomadura hibisca|Adenia volkensii|Adenopeltis colliguaya|Adenophora stenanthina|Aka coralliphagum|Alpinia flabellata|Alpinia zerumbet|Alternaria bataticola|Amsinckia tessellata|Anagyris foetida|Anastrepha suspensa|Anemoclema glaucifolium|Anemone flaccida|Anethum Graveolens|Anethum graveolens|Angelica decursiva|Angelica japonica|Angylocalyx braunii|Anolis lineatopus|Antitrogus consanguineus|Apium graveolens|Archidendron lucidum|Ardisia neriifolia|Artemisia dracunculus|Artemisia minor|Aspalathus linearis|Aspergillus arenarius|Aspergillus caespitosus|Aspergillus mutabilis|Aspergillus quadrilineatus|Aspidosperma subincanum|Aster papposus|Astilbe koreana|Atractylodes Lancea|Atractylodes lancea|Aucuba chinensis|Aurelia aurita|Baccharis angustifolia|Baccharis truncata|Bassia parkii|Benincasa hispida|Berberis aquifolium|Bipolaris sacchari|Bistorta vivipara|Bituminaria bituminosa|Bombus hortorum|Boraginaceae|Boronia muelleri|Botryosphaeria berengeriana|Brachychiton populneum|Brickellia vernicosa|Buddleja scordioides|Burkholderia cepacia|Calea morii|Callitris drummondii|Callyspongia spinosissima|Capuronianthus mahafalensis|Carallia brachiata|Cardiospermum hirsutum|Carex distachya|Carica dodecaphylla|Carthamus lanatus|Carthamus tinctorius|Carum carvi|Cassia carnaval|Cedronella canariensis|Centaurea benedicta|Centaurea deflexa|Centaurea huber-morathii|Centaurea napifolia|Centaurea seridis|Ceratocystis clavigera|Cereus weberi|Cetraria aculeata|Chamaecyparis obtusa|Chamaecyparis pisifera|Chavica betle|Chiloscyphus polyanthos|Chloranthus fortunei|Choriaster granulatus|Chrozophora obliqua|Chrozophora plicata|Chrysocoma peduncularis|Chrysotila lamellosa|Chuquiraga erinacea|Cinchona succirubra|Cirsium arvense var. integrifolium|Cirsium japonicum|Cistanche deserticola|Cistanche mongolica|Cistanche salsa|Cistanche tubulosa|Citrus sp.|Citrus tangerina|Clematis hexapetala|Clostridium butyricum|Clostridium paraputrificum|Cneorum pulverulentum|Cnidium officinale|Codonopsis lanceolata|Codonopsis pilosula|Codonopsis ussuriensis|Colchicum macedonicum|Coleus garckeanus|Conoideocrella tenuis|Consolida ajacis|Coprosma acerosa|Coptis deltoidea|Cortinarius vinosipes|Cranfillia vulcanica|Crocus minimus|Cryptocarya aschersoniana|Cucumis myriocarpus|Cunonia macrophylla|Cuphea hyssopifolia|Curculigo pilosa|Cyanospira rippkae|Cymathere triplicata|Cynometra lujae|Cystoseira elegans|Dalbergia frutescens|Dalbergia stipulacea|Daphne acutiloba|Daphne arisanensis|Daphne feddei|Daphne genkwa|Daphne oleoides|Daphne sp.|Dicliptera riparia|Dillenia papuana|Dinemasporium strigosum|Dioscorea gracillima|Diplopteraster multipes|Distylium racemosum|Dolomiaea costus|Dracaena cambodiana|Echinoclathria subhispida|Echium rubrum|Eichhornia crassipes|Elaeagnus commutata|Elettaria cardamomum|Eleutherococcus koreanus|Eleutherococcus senticosus|Eleutherococcus sessiliflorus|Eleutherococcus sp.|Eleutherococcus trifoliatus|Entada africana|Entada polystachya|Entada rheedei|Epilobium parviflorum|Eria rigida|Erwinia rhapontici|Erylus trisphaerus|Etlingera elatior|Eucalyptus flocktoniae|Eucommia Ulmoides|Eucommia ulmoides|Eudistoma toealensis|Eulophia ochreata|Euodia Meliaefolia|Euonymus japonicus|Eupatorium areolare|Eupatorium argentinum|Euphorbia caducifolia|Euphorbia clarkeana|Euphorbia hirta|Euphorbia humifusa|Euphorbia palustris|Euphorbia pithyusa|Euphorbia sieboldiana|Farfugium japonicum|Felimida luteorosea|Ficus elastica|Ficus microcarpa|Flindersia brayleyana|Foeniculum Vulgare|Foeniculum vulgare|Fouquieria diguetii|Fraxinus chinensis|Fraxinus chinensis subsp. rhynchophylla|Fraxinus sp.|Fraxinus stylosa|Fraxinus szaboana|Fritillaria hupehensis|Fuligo candida|Fumaria indica|Gerbera piloselloides|Gleditsia caspica|Glehnia littoralis|Globularia alypum|Globularia sp.|Glochidion zeylanicum|Gmelina arborea|Gnidia polycephala|Gracilaria textorii|Guatteria boliviana|Gynoxys verrucosa|Haplophyllum ramosissimum|Helianthopsis bishopii|Helichrysum arenarium|Helichrysum mixtum|Helogyne hutchisonii|Hendersonula toruloidea|Heracleum sphondylium|Holarrhena floribunda|Holothuria squamifera|Hornschuchia citriodora|Houttuynia cordata|Humata pectinata|Hydnocarpus octandra|Hymenoxys microcephala|Hypericum papuanum|Hypericum prolificum|Hypogymnia vittata|Hypselodoris cantabrica|Iberis sempervirens|Ilex buergeri|Ilex chinensis|Ilex kaushue|Ilex rotunda|Ilyonectria destructans|Inula thapsoides|Iris pallasii|Itoa orientalis|Jasminum Lanceolarium|Jasminum lanceolarium|Jasminum mesnyi|Jasminum nudiflorum|Jungermannia obovata|Juniperus brevifolia|Juniperus rigida|Kali turgidum|Kalopanax septemlobus|Kaunia arbuscularis|Knema attenuata|Kummerowia striata|Lathyrus latifolius|Leonurus heterophyllus|Ligularia narynensis|Ligusticum lucidum|Ligusticum sinense|Ligustrum obtusifolium|Limeum pterocarpum|Limonium vulgare|Linaria japonica|Linaria vulgaris|Linum flavum|Lithodora fruticosa|Litsea cubeba|Lonicera japonica|Lupinus formosus|Lyophyllum shimeji|Lysiana subfalcata|Macaranga peltata|Macrocystidia cucumis|Magnolia biondii|Magnolia champaca|Magnolia crassipes|Magnolia denudata|Magnolia lacei|Magnolia obovata|Magnolia officinalis|Magnolia sieboldii|Magnolia yunnanensis|Mamestra brassicae|Mascarenhasia arborescens|Meconopsis napaulensis|Merremia umbellata|Michelia champaca|Millettia conraui|Monomeria barbata|Montanelia tominii|Narthecium asiaticum|Neolentinus lepideus|Nerita albicilla|Nostoc spongiaeforme|Ononis viscosa|Opuntia humifusa|Ormosia panamensis|Osmanthus armatus|Osmanthus heterophyllus|Osmanthus ilicifolius|Osmanthus × fortunei|Osmerus mordax|Osteospermum muricatum|Oxandra xylopioides|Oxytropis myriophylla|Pajanelia multijuga|Palafoxia rosea|Palicourea alpina|Paliurus spina-christi|Panax ginseng|Panax trifoliatus|Parablechnum minus|Parectatosoma mocquerysi|Parmelia enteromorpha|Parmelia norcrambidiocarpa|Parmelia pokornyi|Passiflora edulis|Passiflora foetida|Paulownia Fortunei|Pedicularis condensata|Pedicularis rex|Penicillium meleagrinum|Penicillium sclerotiorum|Peperomia vulcanica|Peritassa compta|Perityle vaseyi|Persicaria thunbergii|Peucedanum praeruptorum|Phaeolus schweinitzii|Phebalium ambiens|Phellodendron amurense|Phellodendron chinense|Phillyrea latifolia|Phlomis aurea|Phoebe formosana|Phoma medicaginis|Phyllobates bicolor|Physalis edulis|Picradeniopsis schaffneri|Picrasma quassioides|Picrasma sp.|Pinus edulis|Piper cubeba|Platycarya strobilacea|Plectranthus nummularius|Plectranthus parviflorus|Polygala chamaebuxus|Porella swartziana|Posidonia oceanica|Posoqueria latifolia|Premna tomentosa|Prosopis juliflora|Prunus ssiori|Psephellus bellus|Psephellus simplicicaulis|Pseudocyphellaria coronata|Pseudoxandra cuspidata|Pseuduvaria indochinensis|Psiadia dentata|Pteris setuloso-costulata|Pterocarpus erinaceus|Putranjiva roxburghii|Pyrus bourgaeana|Quercus mongolica|Rafflesia kerrii|Rheedia acuminata|Rheum webbianum|Rhizoplaca chrysoleuca|Rhizopogon pumilionus|Rhodomyrtus tomentosa|Roemeria carica|Ruellia patula|Ruellia tuberosa|Rumex aquaticus|Rzedowskia tolantonguensis|Sagittaria sagittifolia|Salacia chinensis|Salix gracilis|Salix sieboldiana|Salix sp.|Salvadora persica|Salvia broussonetii|Salvia coulteri|Salvia xalapensis|Sambucus ebulus|Sanchezia nobilis|Sanchezia oblonga|Sandoricum koetjape|Satureja cuneifolia|Saussurea Lappa|Saussurea amara|Saussurea controversa|Saussurea cordifolia|Saussurea involucrata|Saussurea laniceps|Saussurea medusa|Saussurea sp.|Saussurea triangulata|Scapharca broughtonii|Schefflera divaricata|Schumanniophyton magnificum|Sclerodoris tanya|Scrophularia smithii|Scutellaria orientalis|Scutellaria strigillosa|Sedum sarmentosum|Senecio flavus|Senecio ilicifolius|Sia ferox|Sida cordifolia|Sideritis euboea|Sigillina signifera|Sinapis arvensis|Sisyrinchium californicum|Solanum aculeatissimum|Solanum dasyphyllum|Solanum olgae|Solanum sisymbriifolium|Solanum torvum|Solenopsis invicta|Sorbus tianschanica|Sorbus torminalis|Spodoptera littoralis|Stachys byzantina|Stachys palaestina|Stachyurus himalaicus|Stellera chamaejasme|Stephania elegans|Stevia gilliesii|Streptomyces fradiae|Streptomyces fulvoviridis|Streptomyces mobaraensis|Styrax japonica|Styrax japonicus|Suaeda maritima|Swertia swertopsis|Symphyocladia latiuscula|Syringa josikaea|Syringa reticulata|Syringa sp.|Syringa vulgaris|Talaromyces pinophilus|Tanacetum santolinoides|Taraxacum platycarpum|Taraxacum udum|Taxus brevifolia|Tecoma heptaphylla|Tephrosia purpurea|Tetracentron sinense|Thelephora aurantiotincta|Thioalkalivibrio versutus|Thiocystis gelatinosa|Thymbra spicata|Thymus quinquecostatus|Thymus vulgaris|Tinospora cordifolia|Tinospora crispa|Tinospora hainanensis|Tinospora sinensis|Tithonia rotundifolia|Torricellia angulata|Trametes albida|Trichia floriformis|Trichilia connaroides|Trichoderma koningi|Trifolium alexandrium|Trifolium pratense|Tripterygium regelii|Triunia erythrocarpa|Tsuga chinensis|Tsuga diversifolia|Turraeanthus mannii|Tylophora flava|Usnea undulata|Utricularia australis|Vateria indica|Vernonanthura pinguis|Veronica persica|Virgilia divaricata|Viscum Album|Viscum album|Viscum coloratum|Viscum sp.|Vismia orientalis|Vitex limonifolia|Wedelia scaberrima|Wikstroemia sikokiana|Wikstroemia sp.|Wunderlichia mirabilis|Zantedeschia aethiopica|Zanthoxylum bungeanum|Zanthoxylum microcarpum|Zanthoxylum piperitum|Zanthoxylum schinifolium|Zilla spinosa|common dandelion|rooibos

>  <collections>  (883) 
ANPDB|AnalytiCon Discovery NPs|Australian natural products|CMAUP (cCollective molecular activities of useful plants)|ChEBI NPs|ChemSpider NPs|ConMedNP|FooDB|GNPS (Global Natural Products Social Molecular Networking)|Latin America dataset|NANPDB (Natural Products from Northern African Sources)|NPASS|NuBBEDB|Phyto4Health|PhytoLab phyproof® Reference Substances|SANCDB|Super Natural II|TCMDB-Taiwan (Traditional Chinese Medicine database)|VietHerb|WikiData Natural Products|ZINC NP

>  <dois>  (883) 
10.1002/(SICI)1099-1565(199811/12)9:6<291::AID-PCA417>3.0.CO;2-K|10.1002/CHIN.199734227|10.1002/CHIN.200322218|10.1002/CHIN.200407175|10.1002/HLCA.19810640103|10.1002/HLCA.200790096|10.1002/HLCA.200890166|10.1002/HLCA.200900157|10.1002/JSSC.200700265|10.1002/PCA.2800020310|10.1002/PCA.2800050607|10.1002/PTR.2650090614|10.1007/BF00597667|10.1007/BF00629789|10.1007/BF00629948|10.1007/BF00630230|10.1007/BF00630671|10.1007/BF00765714|10.1007/BF00779267|10.1007/BF02291547|10.1007/BF02974100|10.1007/BF02975842|10.1007/BF02976634|10.1007/BF02994751|10.1007/BF03216748|10.1007/S10600-013-0549-5|10.1007/S10600-014-1092-8|10.1007/S10600-015-1519-X|10.1007/S10600-019-02925-Y|10.1007/S11418-005-0023-1|10.1007/S11418-007-0181-4|10.1007/S11418-012-0692-5|10.1007/S12272-011-0305-Y|10.1007/s11418-012-0692-5|10.1016/0031-9422(92)83301-E|10.1016/0031-9422(93)85194-V|10.1016/0031-9422(93)85459-5|10.1016/0031-9422(94)00601-O|10.1016/0031-9422(95)00234-X|10.1016/0031-9422(95)00499-8|10.1016/B978-0-12-804678-4.00006-3|10.1016/B978-1-4377-2333-5.00134-6|10.1016/J.BMCL.2010.12.025|10.1016/J.BMCL.2011.08.089|10.1016/J.BSE.2019.03.010|10.1016/J.CARRES.2009.10.019|10.1016/J.CCLET.2008.09.041|10.1016/J.EJMECH.2011.03.011|10.1016/J.FITOTE.2004.09.019|10.1016/J.FITOTE.2005.04.016|10.1016/J.FITOTE.2006.06.012|10.1016/J.FITOTE.2008.01.002|10.1016/J.FITOTE.2008.06.008|10.1016/J.FITOTE.2009.12.004|10.1016/J.FITOTE.2010.01.005|10.1016/J.JEP.2004.08.027|10.1016/J.PHYTOCHEM.2004.01.006|10.1016/J.PHYTOCHEM.2007.03.029|10.1016/J.PHYTOCHEM.2009.12.016|10.1016/S0031-9422(00)00331-9|10.1016/S0031-9422(00)83944-8|10.1016/S0031-9422(00)84510-0|10.1016/S0031-9422(00)90376-5|10.1016/S0031-9422(00)90497-7|10.1016/S0031-9422(00)90536-3|10.1016/S0031-9422(00)95201-4|10.1016/S0031-9422(00)97572-1|10.1016/S0031-9422(01)00262-X|10.1016/S0031-9422(01)00306-5|10.1016/S0031-9422(02)00288-1|10.1016/S0031-9422(03)00211-5|10.1016/S0031-9422(03)00461-8|10.1016/S0031-9422(98)00092-2|10.1016/S0031-9422(98)00181-2|10.1016/S0031-9422(98)00586-X|10.1016/S0031-9422(99)00305-2|10.1016/S0040-4020(00)00696-7|10.1016/S0305-1978(02)00032-7|10.1016/S0305-1978(96)00094-4|10.1016/S0367-326X(99)00158-6|10.1016/S0378-8741(00)00251-8|10.1016/S0378-8741(97)00086-X|10.1016/S0944-7113(98)80053-6|10.1016/S0968-0896(02)00470-4|10.1016/S0968-0896(02)00471-6|10.1016/j.bmcl.2010.12.025|10.1016/j.bmcl.2011.03.091|10.1016/j.bmcl.2011.08.089|10.1021/ACS.JAFC.9B00846.S001|10.1021/JF801603S|10.1021/NP040113M|10.1021/NP0501233|10.1021/NP070388C|10.1021/NP50034A043|10.1021/NP50045A045|10.1021/NP800014S|10.1021/NP8001805|10.1021/NP8004166|10.1021/NP800643N|10.1021/NP960452I|10.1021/acs.jafc.9b00846|10.1021/acs.jnatprod.9b01120|10.1021/np040113m|10.1021/np070388c|10.1021/np4005773|10.1021/np8004166|10.1055/S-0031-1300006|10.1055/S-2000-8539|10.1055/S-2001-12004|10.1055/S-2001-18352|10.1055/S-2006-957466|10.1055/S-2006-959587|10.1055/S-2007-969090|10.1055/S-2008-1074537|10.1076/PHBI.40.5.380.8460|10.1079/CABICOMPENDIUM.56462|10.1080/10286020108040371|10.1080/10286020290019686|10.1080/10286020903482810|10.1080/10575639508043162|10.1080/14786410802253197|10.1080/14786410802689713|10.1081/JLC-100101841|10.1081/JLC-100102078|10.1139/V09-112|10.1248/CPB.32.3009|10.1248/CPB.35.3292|10.1248/CPB.36.1158|10.1248/CPB.36.1791|10.1248/CPB.37.1300|10.1248/CPB.37.2995|10.1248/CPB.37.3301|10.1248/CPB.38.1763|10.1248/CPB.38.1927|10.1248/CPB.39.2422|10.1248/CPB.39.865|10.1248/CPB.41.214|10.1248/CPB.43.1385|10.1248/CPB.43.703|10.1248/CPB.44.337|10.1248/CPB.46.1587|10.1248/CPB.47.114|10.1248/CPB.47.287|10.1248/CPB.49.716|10.1248/CPB.50.137|10.1248/CPB.50.1393|10.1248/CPB.50.384|10.1248/CPB.50.501|10.1248/CPB.51.1106|10.1248/CPB.53.1416|10.1248/CPB.55.474|10.1248/CPB.56.308|10.1248/CPB.57.361|10.1248/CPB.57.853|10.1248/CPB.58.1369|10.1248/CPB.59.1020|10.1248/CPB.59.725|10.1248/YAKUSHI1947.105.5_442|10.1248/YAKUSHI1947.105.6_542|10.1248/YAKUSHI1947.107.7_525|10.1248/YAKUSHI1947.108.7_647|10.1248/YAKUSHI1947.79.4_544|10.1271/BBB1961.54.557|10.1515/ZNB-2007-0615|10.1515/ZNC-2001-5-606|10.1515/ZNC-2003-9-1019|10.1590/S0100-46702007000300002|10.21608/BFSA.2000.66323|10.2210/PDB1EIT/PDB|10.3390/12102270|10.3390/MOLECULES23020383|10.3892/OR.7.6.1213|10.4268/CJCMM20100712|10.4268/CJCMM20111319|10.4268/CJCMM20141019|10.5012/BKCS.2010.31.04.1081|10.5586/ASBP.2003.013|10.5650/JOS1956.44.1012

>  <synonyms>  (883) 
nan

>  <cas>  (883) 
118-34-3

$$$$

     RDKit          2D

 27 28  0  0  0  0  0  0  0  0999 V2000
  -11.3700   -0.9838    0.0000 C   0  0  0  0  0  0  0  0  0  0  0  0
  -10.1059   -0.1762    0.0000 C   0  0  0  0  0  0  0  0  0  0  0  0
  -10.1733    1.3223    0.0000 C   0  0  0  0  0  0  0  0  0  0  0  0
   -8.7745   -0.8671    0.0000 C   0  0  0  0  0  0  0  0  0  0  0  0
   -7.5105   -0.0595    0.0000 C   0  0  0  0  0  0  0  0  0  0  0  0
   -6.1791   -0.7504    0.0000 C   0  0  0  0  0  0  0  0  0  0  0  0
   -4.9150    0.0571    0.0000 C   0  0  0  0  0  0  0  0  0  0  0  0
   -4.9824    1.5556    0.0000 C   0  0  0  0  0  0  0  0  0  0  0  0
   -3.5836   -0.6338    0.0000 C   0  0  0  0  0  0  0  0  0  0  0  0
   -2.3195    0.1738    0.0000 C   0  0  0  0  0  0  0  0  0  0  0  0
   -0.9881   -0.5171    0.0000 C   0  0  0  0  0  0  0  0  0  0  0  0
    0.2759    0.2905    0.0000 C   0  0  0  0  0  0  0  0  0  0  0  0
    0.2086    1.7889    0.0000 C   0  0  0  0  0  0  0  0  0  0  0  0
    1.6073   -0.4005    0.0000 C   0  0  0  0  0  0  0  0  0  0  0  0
    2.8714    0.4071    0.0000 C   0  0  0  0  0  0  0  0  0  0  0  0
    4.2028   -0.2838    0.0000 C   0  0  0  0  0  0  0  0  0  0  0  0
    4.2701   -1.7823    0.0000 C   0  0  0  0  0  0  0  0  0  0  0  0
    5.6015   -2.4732    0.0000 C   0  0  0  0  0  0  0  0  0  0  0  0
    5.6689   -3.9717    0.0000 O   0  0  0  0  0  0  0  0  0  0  0  0
    6.8656   -1.6656    0.0000 O   0  0  0  0  0  0  0  0  0  0  0  0
    6.7982   -0.1671    0.0000 C   0  0  0  0  0  0  0  0  0  0  0  0
    5.4668    0.5238    0.0000 C   0  0  0  0  0  0  0  0  0  0  0  0
    6.7309    1.3314    0.0000 C   0  0  0  0  0  0  0  0  0  0  0  0
    7.9949    2.1389    0.0000 O   0  0  0  0  0  0  0  0  0  0  0  0
    5.3995    2.0223    0.0000 C   0  0  0  0  0  0  0  0  0  0  0  0
    4.1354    1.2147    0.0000 C   0  0  0  0  0  0  0  0  0  0  0  0
    2.8040    1.9056    0.0000 O   0  0  0  0  0  0  0  0  0  0  0  0
  1  2  1  0
  2  3  1  0
  2  4  2  0
  4  5  1  0
  5  6  1  0
  6  7  1  0
  7  8  1  0
  7  9  2  0
  9 10  1  0
 10 11  1  0
 11 12  1  0
 12 13  1  0
 12 14  2  0
 14 15  1  0
 16 15  1  1
 16 17  1  0
 17 18  1  0
 18 19  2  0
 18 20  1  0
 21 20  1  6
 21 22  1  0
 21 23  1  0
 23 24  1  6
 23 25  1  0
 25 26  1  0
 26 27  2  0
 22 16  1  0
 26 16  1  0
M  END
>  <identifier>  (884) 
CNP0181986.1

>  <canonical_smiles>  (884) 
CC(C)=CCC/C(C)=C/CC/C(C)=C/C[C@]12CC(=O)O[C@H](C1)[C@@H](O)CC2=O

>  <standard_inchi>  (884) 
InChI=1S/C23H34O4/c1-16(2)7-5-8-17(3)9-6-10-18(4)11-12-23-14-20(27-22(26)15-23)19(24)13-21(23)25/h7,9,11,19-20,24H,5-6,8,10,12-15H2,1-4H3/b17-9+,18-11+/t19-,20+,23+/m0/s1

>  <standard_inchi_key>  (884) 
RHVATUPILPBCCA-DBGCXORASA-N

>  <name>  (884) 
nan

>  <iupac_name>  (884) 
(1~{R},5~{R},8~{S})-8-hydroxy-5-[(2~{E},6~{E})-3,7,11-trimethyldodeca-2,6,10-trienyl]-2-oxabicyclo[3.3.1]nonane-3,6-dione

>  <annotation_level>  (884) 
4

>  <total_atom_count>  (884) 
61

>  <heavy_atom_count>  (884) 
27

>  <molecular_weight>  (884) 
374.52

>  <exact_molecular_weight>  (884) 
374.24571

>  <molecular_formula>  (884) 
C23H34O4

>  <alogp>  (884) 
4.82

>  <topological_polar_surface_area>  (884) 
63.60

>  <rotatable_bond_count>  (884) 
8

>  <hydrogen_bond_acceptors>  (884) 
4

>  <hydrogen_bond_donors>  (884) 
1

>  <hydrogen_bond_acceptors_lipinski>  (884) 
4

>  <hydrogen_bond_donors_lipinski>  (884) 
1

>  <lipinski_rule_of_five_violations>  (884) 
0

>  <aromatic_rings_count>  (884) 
0

>  <qed_drug_likeliness>  (884) 
0.49

>  <formal_charge>  (884) 
0

>  <fractioncsp3>  (884) 
0.65

>  <number_of_minimal_rings>  (884) 
2

>  <van_der_walls_volume>  (884) 
nan

>  <contains_sugar>  (884) 
False

>  <contains_ring_sugars>  (884) 
False

>  <contains_linear_sugars>  (884) 
False

>  <murcko_framework>  (884) 
O1CCC2CCCC1C2

>  <np_likeness>  (884) 
2.22

>  <chemical_class>  (884) 
Prenol lipids

>  <chemical_sub_class>  (884) 
Terpene lactones

>  <chemical_super_class>  (884) 
Lipids and lipid-like molecules

>  <direct_parent_classification>  (884) 
Terpene lactones

>  <np_classifier_pathway>  (884) 
Terpenoids

>  <np_classifier_superclass>  (884) 
Sesterterpenoids

>  <np_classifier_class>  (884) 
Linear sesterterpenoids

>  <np_classifier_is_glycoside>  (884) 
False

>  <organisms>  (884) 
Otoba parvifolia

>  <collections>  (884) 
Latin America dataset|NuBBEDB|WikiData Natural Products|ZINC NP

>  <dois>  (884) 
10.1016/0031-9422(95)00368-H

>  <synonyms>  (884) 
Rel-(1'R4'S5'R)-2-(1'-Farnesyl)-45-dihydroxy-2-oxocyclohexan-1-yl)-acetic acid \u221a\u00e9\u00ac\u00a5-lactone

>  <cas>  (884) 
nan

$$$$

     RDKit          2D

 26 27  0  0  0  0  0  0  0  0999 V2000
  -11.0414   -1.1308    0.0000 C   0  0  0  0  0  0  0  0  0  0  0  0
   -9.7944   -0.2972    0.0000 C   0  0  0  0  0  0  0  0  0  0  0  0
   -9.8928    1.1996    0.0000 C   0  0  0  0  0  0  0  0  0  0  0  0
   -8.4489   -0.9603    0.0000 C   0  0  0  0  0  0  0  0  0  0  0  0
   -7.2019   -0.1267    0.0000 C   0  0  0  0  0  0  0  0  0  0  0  0
   -5.8564   -0.7898    0.0000 C   0  0  0  0  0  0  0  0  0  0  0  0
   -4.6094    0.0438    0.0000 C   0  0  0  0  0  0  0  0  0  0  0  0
   -4.7078    1.5405    0.0000 C   0  0  0  0  0  0  0  0  0  0  0  0
   -3.2640   -0.6194    0.0000 C   0  0  0  0  0  0  0  0  0  0  0  0
   -2.0169    0.2143    0.0000 C   0  0  0  0  0  0  0  0  0  0  0  0
   -0.6715   -0.4489    0.0000 C   0  0  0  0  0  0  0  0  0  0  0  0
    0.5755    0.3848    0.0000 C   0  0  0  0  0  0  0  0  0  0  0  0
    0.4771    1.8815    0.0000 C   0  0  0  0  0  0  0  0  0  0  0  0
    1.9210   -0.2784    0.0000 C   0  0  0  0  0  0  0  0  0  0  0  0
    3.1680    0.5552    0.0000 C   0  0  0  0  0  0  0  0  0  0  0  0
    4.5135   -0.1079    0.0000 C   0  0  0  0  0  0  0  0  0  0  0  0
    4.6119   -1.6047    0.0000 C   0  0  0  0  0  0  0  0  0  0  0  0
    5.9574   -2.2678    0.0000 C   0  0  0  0  0  0  0  0  0  0  0  0
    6.0558   -3.7646    0.0000 O   0  0  0  0  0  0  0  0  0  0  0  0
    7.2044   -1.4342    0.0000 O   0  0  0  0  0  0  0  0  0  0  0  0
    7.1060    0.0626    0.0000 C   0  0  0  0  0  0  0  0  0  0  0  0
    7.0075    1.5593    0.0000 C   0  0  0  0  0  0  0  0  0  0  0  0
    5.6621    2.2225    0.0000 C   0  0  0  0  0  0  0  0  0  0  0  0
    4.4150    1.3889    0.0000 C   0  0  0  0  0  0  0  0  0  0  0  0
    3.0696    2.0520    0.0000 O   0  0  0  0  0  0  0  0  0  0  0  0
    5.7605    0.7257    0.0000 C   0  0  0  0  0  0  0  0  0  0  0  0
  1  2  1  0
  2  3  1  0
  2  4  2  0
  4  5  1  0
  5  6  1  0
  6  7  1  0
  7  8  1  0
  7  9  2  0
  9 10  1  0
 10 11  1  0
 11 12  1  0
 12 13  1  0
 12 14  2  0
 14 15  1  0
 15 16  1  0
 16 17  1  0
 17 18  1  0
 18 19  2  0
 18 20  1  0
 20 21  1  0
 21 22  1  0
 22 23  2  0
 23 24  1  0
 24 25  2  0
 21 26  1  0
 24 16  1  0
 26 16  1  0
M  END
>  <identifier>  (885) 
CNP0177522.2

>  <canonical_smiles>  (885) 
CC(C)=CCC/C(C)=C/CC/C(C)=C/CC12CC(=O)OC(C=CC1=O)C2

>  <standard_inchi>  (885) 
InChI=1S/C23H32O3/c1-17(2)7-5-8-18(3)9-6-10-19(4)13-14-23-15-20(11-12-21(23)24)26-22(25)16-23/h7,9,11-13,20H,5-6,8,10,14-16H2,1-4H3/b18-9+,19-13+

>  <standard_inchi_key>  (885) 
PEOSCKIZDYJJSE-RPSHFMPKSA-N

>  <name>  (885) 
nan

>  <iupac_name>  (885) 
nan

>  <annotation_level>  (885) 
0

>  <total_atom_count>  (885) 
58

>  <heavy_atom_count>  (885) 
26

>  <molecular_weight>  (885) 
356.51

>  <exact_molecular_weight>  (885) 
356.23514

>  <molecular_formula>  (885) 
C23H32O3

>  <alogp>  (885) 
5.63

>  <topological_polar_surface_area>  (885) 
43.37

>  <rotatable_bond_count>  (885) 
8

>  <hydrogen_bond_acceptors>  (885) 
3

>  <hydrogen_bond_donors>  (885) 
0

>  <hydrogen_bond_acceptors_lipinski>  (885) 
3

>  <hydrogen_bond_donors_lipinski>  (885) 
0

>  <lipinski_rule_of_five_violations>  (885) 
1

>  <aromatic_rings_count>  (885) 
0

>  <qed_drug_likeliness>  (885) 
0.42

>  <formal_charge>  (885) 
0

>  <fractioncsp3>  (885) 
0.57

>  <number_of_minimal_rings>  (885) 
2

>  <van_der_walls_volume>  (885) 
362.10

>  <contains_sugar>  (885) 
False

>  <contains_ring_sugars>  (885) 
False

>  <contains_linear_sugars>  (885) 
False

>  <murcko_framework>  (885) 
O1CCC2CC=CC1C2

>  <np_likeness>  (885) 
2.30

>  <chemical_class>  (885) 
nan

>  <chemical_sub_class>  (885) 
nan

>  <chemical_super_class>  (885) 
nan

>  <direct_parent_classification>  (885) 
nan

>  <np_classifier_pathway>  (885) 
Terpenoids

>  <np_classifier_superclass>  (885) 
Meroterpenoids

>  <np_classifier_class>  (885) 
Prenyl quinone meroterpenoids

>  <np_classifier_is_glycoside>  (885) 
False

>  <organisms>  (885) 
Otoba parvifolia

>  <collections>  (885) 
Latin America dataset|NuBBEDB

>  <dois>  (885) 
10.1016/0031-9422(95)00368-H

>  <synonyms>  (885) 
nan

>  <cas>  (885) 
nan

$$$$

     RDKit          2D

 37 41  0  0  0  0  0  0  0  0999 V2000
    6.4407   -3.3837    0.0000 C   0  0  0  0  0  0  0  0  0  0  0  0
    5.7505   -2.0519    0.0000 O   0  0  0  0  0  0  0  0  0  0  0  0
    4.2521   -1.9837    0.0000 C   0  0  0  0  0  0  0  0  0  0  0  0
    3.4438   -3.2473    0.0000 O   0  0  0  0  0  0  0  0  0  0  0  0
    3.5619   -0.6519    0.0000 C   0  0  0  0  0  0  0  0  0  0  0  0
    5.0603   -0.7201    0.0000 C   0  0  0  0  0  0  0  0  0  0  0  0
    5.8686    0.5435    0.0000 C   0  0  0  0  0  0  0  0  0  0  0  0
    5.1784    1.8753    0.0000 C   0  0  0  0  0  0  0  0  0  0  0  0
    4.9854    3.3628    0.0000 C   0  0  0  0  0  0  0  0  0  0  0  0
    6.6099    2.3237    0.0000 C   0  0  0  0  0  0  0  0  0  0  0  0
    3.6800    1.9435    0.0000 C   0  0  0  0  0  0  0  0  0  0  0  0
    2.9898    3.2753    0.0000 O   0  0  0  0  0  0  0  0  0  0  0  0
    2.8717    0.6799    0.0000 C   0  0  0  0  0  0  0  0  0  0  0  0
    1.3733    0.7481    0.0000 C   0  0  0  0  0  0  0  0  0  0  0  0
    0.6831    2.0799    0.0000 C   0  0  0  0  0  0  0  0  0  0  0  0
   -0.8153    2.1481    0.0000 C   0  0  0  0  0  0  0  0  0  0  0  0
   -1.6236    0.8845    0.0000 C   0  0  0  0  0  0  0  0  0  0  0  0
   -3.1221    0.9527    0.0000 C   0  0  0  0  0  0  0  0  0  0  0  0
   -2.3138    2.2163    0.0000 C   0  0  0  0  0  0  0  0  0  0  0  0
   -3.8122    2.2845    0.0000 C   0  0  0  0  0  0  0  0  0  0  0  0
   -5.3107    2.3527    0.0000 C   0  0  0  0  0  0  0  0  0  0  0  0
   -6.1190    1.0891    0.0000 C   0  0  0  0  0  0  0  0  0  0  0  0
   -7.6174    1.1573    0.0000 O   0  0  0  0  0  0  0  0  0  0  0  0
   -5.4288   -0.2427    0.0000 C   0  0  0  0  0  0  0  0  0  0  0  0
   -5.2358   -1.7302    0.0000 C   0  0  0  0  0  0  0  0  0  0  0  0
   -3.8510   -2.3068    0.0000 O   0  0  0  0  0  0  0  0  0  0  0  0
   -6.8602   -0.6911    0.0000 C   0  0  0  0  0  0  0  0  0  0  0  0
   -7.1876   -2.1550    0.0000 O   0  0  0  0  0  0  0  0  0  0  0  0
   -3.9304   -0.3109    0.0000 C   0  0  0  0  0  0  0  0  0  0  0  0
   -3.2402   -1.6427    0.0000 C   0  0  0  0  0  0  0  0  0  0  0  0
   -1.7417   -1.7109    0.0000 C   0  0  0  0  0  0  0  0  0  0  0  0
   -0.9335   -0.4473    0.0000 C   0  0  0  0  0  0  0  0  0  0  0  0
   -0.2433   -1.7791    0.0000 C   0  0  0  0  0  0  0  0  0  0  0  0
    0.5650   -0.5155    0.0000 C   0  0  0  0  0  0  0  0  0  0  0  0
    2.0634   -0.5837    0.0000 C   0  0  0  0  0  0  0  0  0  0  0  0
    1.2552   -1.8473    0.0000 C   0  0  0  0  0  0  0  0  0  0  0  0
    2.7536   -1.9155    0.0000 C   0  0  0  0  0  0  0  0  0  0  0  0
  1  2  1  0
  2  3  1  0
  3  4  2  0
  5  3  1  1
  5  6  1  0
  6  7  1  0
  7  8  1  0
  8  9  1  0
  8 10  1  0
  8 11  1  0
 11 12  1  6
 11 13  1  0
 13 14  1  0
 14 15  2  0
 15 16  1  0
 16 17  1  0
 17 18  1  0
 18 19  1  1
 18 20  1  0
 20 21  1  0
 21 22  1  0
 22 23  1  1
 22 24  1  0
 24 25  1  0
 25 26  1  0
 24 27  1  0
 27 28  1  0
 24 29  1  0
 29 30  1  0
 30 31  1  0
 31 32  1  0
 32 33  1  1
 32 34  1  0
 34 35  1  6
 34 36  1  0
 36 37  1  0
 13  5  1  0
 34 14  1  0
 37  5  1  0
 32 17  1  0
 29 18  1  0
M  END
>  <identifier>  (886) 
CNP0194145.1

>  <canonical_smiles>  (886) 
COC(=O)[C@]12CCC(C)(C)[C@@H](O)C1C1=CCC3[C@@]4(C)CC[C@H](O)C(CO)(CO)C4CC[C@@]3(C)[C@]1(C)CC2

>  <standard_inchi>  (886) 
InChI=1S/C31H50O6/c1-26(2)13-15-30(25(36)37-6)16-14-28(4)19(23(30)24(26)35)7-8-20-27(3)11-10-22(34)31(17-32,18-33)21(27)9-12-29(20,28)5/h7,20-24,32-35H,8-18H2,1-6H3/t20?,21?,22-,23?,24-,27+,28+,29+,30-/m0/s1

>  <standard_inchi_key>  (886) 
ILNUAJNZFQMDHR-WAGUVUIQSA-N

>  <name>  (886) 
nan

>  <iupac_name>  (886) 
methyl (1~{S},4~{a}~{R},6~{a}~{S},6~{b}~{R},10~{S},12~{a}~{R})-1,10-dihydroxy-9,9-bis(hydroxymethyl)-2,2,6~{a},6~{b},12~{a}-pentamethyl-1,3,4,5,6,6~{a},7,8,8~{a},10,11,12,13,14~{b}-tetradecahydropicene-4~{a}-carboxylate

>  <annotation_level>  (886) 
3

>  <total_atom_count>  (886) 
87

>  <heavy_atom_count>  (886) 
37

>  <molecular_weight>  (886) 
518.74

>  <exact_molecular_weight>  (886) 
518.36074

>  <molecular_formula>  (886) 
C31H50O6

>  <alogp>  (886) 
4.24

>  <topological_polar_surface_area>  (886) 
107.22

>  <rotatable_bond_count>  (886) 
3

>  <hydrogen_bond_acceptors>  (886) 
6

>  <hydrogen_bond_donors>  (886) 
4

>  <hydrogen_bond_acceptors_lipinski>  (886) 
6

>  <hydrogen_bond_donors_lipinski>  (886) 
4

>  <lipinski_rule_of_five_violations>  (886) 
1

>  <aromatic_rings_count>  (886) 
0

>  <qed_drug_likeliness>  (886) 
0.33

>  <formal_charge>  (886) 
0

>  <fractioncsp3>  (886) 
0.90

>  <number_of_minimal_rings>  (886) 
5

>  <van_der_walls_volume>  (886) 
nan

>  <contains_sugar>  (886) 
False

>  <contains_ring_sugars>  (886) 
False

>  <contains_linear_sugars>  (886) 
False

>  <murcko_framework>  (886) 
C1=C2C3CCCCC3CCC2C4CCC5CCCCC5C4C1

>  <np_likeness>  (886) 
3.05

>  <chemical_class>  (886) 
Prenol lipids

>  <chemical_sub_class>  (886) 
Triterpenoids

>  <chemical_super_class>  (886) 
Lipids and lipid-like molecules

>  <direct_parent_classification>  (886) 
Triterpenoids

>  <np_classifier_pathway>  (886) 
Terpenoids

>  <np_classifier_superclass>  (886) 
Triterpenoids

>  <np_classifier_class>  (886) 
Oleanane triterpenoids

>  <np_classifier_is_glycoside>  (886) 
False

>  <organisms>  (886) 
Alibertia edulis

>  <collections>  (886) 
Latin America dataset|NuBBEDB|WikiData Natural Products

>  <dois>  (886) 
10.1016/S0031-9422(00)89654-5

>  <synonyms>  (886) 
nan

>  <cas>  (886) 
nan

$$$$

     RDKit          2D

 56 62  0  0  0  0  0  0  0  0999 V2000
  -13.6909    2.6714    0.0000 C   0  0  0  0  0  0  0  0  0  0  0  0
  -12.2808    2.1599    0.0000 O   0  0  0  0  0  0  0  0  0  0  0  0
  -12.0187    0.6830    0.0000 C   0  0  0  0  0  0  0  0  0  0  0  0
  -10.6086    0.1715    0.0000 C   0  0  0  0  0  0  0  0  0  0  0  0
   -9.4606    1.1369    0.0000 O   0  0  0  0  0  0  0  0  0  0  0  0
   -8.0505    0.6254    0.0000 C   0  0  0  0  0  0  0  0  0  0  0  0
   -6.9025    1.5908    0.0000 O   0  0  0  0  0  0  0  0  0  0  0  0
   -5.4924    1.0793    0.0000 C   0  0  0  0  0  0  0  0  0  0  0  0
   -5.2303   -0.3976    0.0000 C   0  0  0  0  0  0  0  0  0  0  0  0
   -3.8202   -0.9091    0.0000 C   0  0  0  0  0  0  0  0  0  0  0  0
   -2.6722    0.0563    0.0000 C   0  0  0  0  0  0  0  0  0  0  0  0
   -2.4101   -1.4206    0.0000 C   0  0  0  0  0  0  0  0  0  0  0  0
   -1.2621   -0.4552    0.0000 C   0  0  0  0  0  0  0  0  0  0  0  0
   -1.0000   -1.9321    0.0000 C   0  0  0  0  0  0  0  0  0  0  0  0
    0.4100   -2.4436    0.0000 C   0  0  0  0  0  0  0  0  0  0  0  0
    1.5581   -1.4782    0.0000 C   0  0  0  0  0  0  0  0  0  0  0  0
    2.9682   -1.9897    0.0000 C   0  0  0  0  0  0  0  0  0  0  0  0
    3.2302   -3.4666    0.0000 C   0  0  0  0  0  0  0  0  0  0  0  0
    4.6403   -3.9781    0.0000 C   0  0  0  0  0  0  0  0  0  0  0  0
    5.7904   -4.9411    0.0000 C   0  0  0  0  0  0  0  0  0  0  0  0
    3.8917   -5.2780    0.0000 C   0  0  0  0  0  0  0  0  0  0  0  0
    5.7884   -3.0127    0.0000 C   0  0  0  0  0  0  0  0  0  0  0  0
    5.5263   -1.5358    0.0000 C   0  0  0  0  0  0  0  0  0  0  0  0
    4.1162   -1.0243    0.0000 C   0  0  0  0  0  0  0  0  0  0  0  0
    5.2642   -0.0588    0.0000 C   0  0  0  0  0  0  0  0  0  0  0  0
    5.0021    1.4181    0.0000 O   0  0  0  0  0  0  0  0  0  0  0  0
    6.6743   -0.5703    0.0000 O   0  0  0  0  0  0  0  0  0  0  0  0
    7.8223    0.3951    0.0000 C   0  0  0  0  0  0  0  0  0  0  0  0
    9.2324   -0.1164    0.0000 O   0  0  0  0  0  0  0  0  0  0  0  0
   10.3804    0.8490    0.0000 C   0  0  0  0  0  0  0  0  0  0  0  0
   11.7905    0.3375    0.0000 C   0  0  0  0  0  0  0  0  0  0  0  0
   12.0526   -1.1394    0.0000 O   0  0  0  0  0  0  0  0  0  0  0  0
   10.1184    2.3259    0.0000 C   0  0  0  0  0  0  0  0  0  0  0  0
   11.2664    3.2914    0.0000 O   0  0  0  0  0  0  0  0  0  0  0  0
    8.7083    2.8374    0.0000 C   0  0  0  0  0  0  0  0  0  0  0  0
    8.4462    4.3144    0.0000 O   0  0  0  0  0  0  0  0  0  0  0  0
    7.5602    1.8720    0.0000 C   0  0  0  0  0  0  0  0  0  0  0  0
    6.1502    2.3835    0.0000 O   0  0  0  0  0  0  0  0  0  0  0  0
    3.8541    0.4527    0.0000 C   0  0  0  0  0  0  0  0  0  0  0  0
    2.4440    0.9642    0.0000 C   0  0  0  0  0  0  0  0  0  0  0  0
    1.2960   -0.0013    0.0000 C   0  0  0  0  0  0  0  0  0  0  0  0
    0.1480   -0.9667    0.0000 C   0  0  0  0  0  0  0  0  0  0  0  0
   -0.1141    0.5102    0.0000 C   0  0  0  0  0  0  0  0  0  0  0  0
    1.0339    1.4757    0.0000 C   0  0  0  0  0  0  0  0  0  0  0  0
   -0.3762    1.9872    0.0000 C   0  0  0  0  0  0  0  0  0  0  0  0
   -1.7863    2.4987    0.0000 C   0  0  0  0  0  0  0  0  0  0  0  0
   -2.9343    1.5332    0.0000 C   0  0  0  0  0  0  0  0  0  0  0  0
   -4.3444    2.0447    0.0000 C   0  0  0  0  0  0  0  0  0  0  0  0
   -5.4945    3.0077    0.0000 C   0  0  0  0  0  0  0  0  0  0  0  0
   -3.5958    3.3446    0.0000 C   0  0  0  0  0  0  0  0  0  0  0  0
   -7.7884   -0.8515    0.0000 C   0  0  0  0  0  0  0  0  0  0  0  0
   -6.3783   -1.3630    0.0000 O   0  0  0  0  0  0  0  0  0  0  0  0
   -8.9365   -1.8170    0.0000 C   0  0  0  0  0  0  0  0  0  0  0  0
   -8.6744   -3.2939    0.0000 O   0  0  0  0  0  0  0  0  0  0  0  0
  -10.3466   -1.3055    0.0000 C   0  0  0  0  0  0  0  0  0  0  0  0
  -11.4946   -2.2709    0.0000 O   0  0  0  0  0  0  0  0  0  0  0  0
  1  2  1  0
  2  3  1  0
  4  3  1  1
  4  5  1  0
  5  6  1  0
  6  7  1  1
  8  7  1  6
  8  9  1  0
  9 10  1  0
 10 11  1  0
 11 12  1  6
 11 13  1  0
 13 14  1  6
 14 15  1  0
 15 16  2  0
 16 17  1  0
 17 18  1  1
 18 19  1  0
 19 20  1  0
 19 21  1  0
 19 22  1  0
 22 23  1  0
 23 24  1  0
 24 25  1  6
 25 26  2  0
 25 27  1  0
 28 27  1  1
 28 29  1  0
 29 30  1  0
 30 31  1  1
 31 32  1  0
 30 33  1  0
 33 34  1  6
 33 35  1  0
 35 36  1  1
 35 37  1  0
 37 38  1  6
 24 39  1  0
 39 40  1  0
 40 41  1  0
 41 42  1  1
 41 43  1  0
 43 44  1  6
 43 45  1  0
 45 46  1  0
 47 46  1  6
 47 48  1  0
 48 49  1  0
 48 50  1  0
  6 51  1  0
 51 52  1  6
 51 53  1  0
 53 54  1  1
 53 55  1  0
 55 56  1  6
 55  4  1  0
 48  8  1  0
 47 11  1  0
 43 13  1  0
 41 16  1  0
 24 17  1  0
 37 28  1  0
M  END
>  <identifier>  (887) 
CNP0080445.1

>  <canonical_smiles>  (887) 
COC[C@H]1O[C@@H](O[C@H]2CC[C@]3(C)[C@H]4CC=C5[C@@H]6CC(C)(C)CC[C@]6(C(=O)O[C@@H]6O[C@H](CO)[C@@H](O)[C@H](O)[C@H]6O)CC[C@@]5(C)[C@]4(C)CC[C@H]3C2(C)C)[C@H](O)[C@@H](O)[C@@H]1O

>  <standard_inchi>  (887) 
InChI=1S/C43H70O13/c1-38(2)15-17-43(37(51)56-36-34(50)31(47)29(45)24(20-44)53-36)18-16-41(6)22(23(43)19-38)9-10-27-40(5)13-12-28(39(3,4)26(40)11-14-42(27,41)7)55-35-33(49)32(48)30(46)25(54-35)21-52-8/h9,23-36,44-50H,10-21H2,1-8H3/t23-,24+,25+,26-,27+,28-,29+,30+,31-,32-,33+,34+,35-,36-,40-,41+,42+,43-/m0/s1

>  <standard_inchi_key>  (887) 
XJCDCCQOVXGYEV-LYQJVNMSSA-N

>  <name>  (887) 
nan

>  <iupac_name>  (887) 
[(2~{S},3~{R},4~{S},5~{S},6~{R})-3,4,5-trihydroxy-6-(hydroxymethyl)tetrahydropyran-2-yl] (4~{a}~{S},6~{a}~{R},6~{a}~{S},6~{b}~{R},8~{a}~{R},10~{S},12~{a}~{R},14~{b}~{S})-2,2,6~{a},6~{b},9,9,12~{a}-heptamethyl-10-[(2~{R},3~{R},4~{S},5~{S},6~{R})-3,4,5-trihydroxy-6-(methoxymethyl)tetrahydropyran-2-yl]oxy-1,3,4,5,6,6~{a},7,8,8~{a},10,11,12,13,14~{b}-tetradecahydropicene-4~{a}-carboxylate

>  <annotation_level>  (887) 
5

>  <total_atom_count>  (887) 
126

>  <heavy_atom_count>  (887) 
56

>  <molecular_weight>  (887) 
795.02

>  <exact_molecular_weight>  (887) 
794.48164

>  <molecular_formula>  (887) 
C43H70O13

>  <alogp>  (887) 
2.97

>  <topological_polar_surface_area>  (887) 
204.83

>  <rotatable_bond_count>  (887) 
7

>  <hydrogen_bond_acceptors>  (887) 
13

>  <hydrogen_bond_donors>  (887) 
7

>  <hydrogen_bond_acceptors_lipinski>  (887) 
13

>  <hydrogen_bond_donors_lipinski>  (887) 
7

>  <lipinski_rule_of_five_violations>  (887) 
3

>  <aromatic_rings_count>  (887) 
0

>  <qed_drug_likeliness>  (887) 
0.11

>  <formal_charge>  (887) 
0

>  <fractioncsp3>  (887) 
0.93

>  <number_of_minimal_rings>  (887) 
7

>  <van_der_walls_volume>  (887) 
735.22

>  <contains_sugar>  (887) 
True

>  <contains_ring_sugars>  (887) 
True

>  <contains_linear_sugars>  (887) 
False

>  <murcko_framework>  (887) 
O1CCCCC1OCC23CCCCC3C4=CCC5C(CCC6CC(OC7OCCCC7)CCC65)C4CC2

>  <np_likeness>  (887) 
2.57

>  <chemical_class>  (887) 
Prenol lipids

>  <chemical_sub_class>  (887) 
Terpene glycosides

>  <chemical_super_class>  (887) 
Lipids and lipid-like molecules

>  <direct_parent_classification>  (887) 
Triterpene saponins

>  <np_classifier_pathway>  (887) 
Terpenoids

>  <np_classifier_superclass>  (887) 
Triterpenoids

>  <np_classifier_class>  (887) 
Oleanane triterpenoids

>  <np_classifier_is_glycoside>  (887) 
True

>  <organisms>  (887) 
Swartzia langsdorffii|Swartzia langsdorfii

>  <collections>  (887) 
ChemSpider NPs|Latin America dataset|NuBBEDB|WikiData Natural Products

>  <dois>  (887) 
10.1590/S0100-40422008000400023

>  <synonyms>  (887) 
3-O-\u221a\u00e9\u00ac\u2264-D-(6'-methyl)-glucopyranosyl-28-O-\u221a\u00e9\u00ac\u2264-D-glucopyranosyl-oleanate

>  <cas>  (887) 
nan

$$$$

     RDKit          2D

 27 31  0  0  0  0  0  0  0  0999 V2000
    8.4844   -0.9638    0.0000 C   0  0  0  0  0  0  0  0  0  0  0  0
    7.4948    0.1635    0.0000 O   0  0  0  0  0  0  0  0  0  0  0  0
    6.0238   -0.1299    0.0000 C   0  0  0  0  0  0  0  0  0  0  0  0
    5.5423   -1.5506    0.0000 C   0  0  0  0  0  0  0  0  0  0  0  0
    4.0713   -1.8439    0.0000 C   0  0  0  0  0  0  0  0  0  0  0  0
    3.0817   -0.7167    0.0000 C   0  0  0  0  0  0  0  0  0  0  0  0
    1.6107   -1.0101    0.0000 C   0  0  0  0  0  0  0  0  0  0  0  0
    0.9834   -2.3726    0.0000 O   0  0  0  0  0  0  0  0  0  0  0  0
   -0.5063   -2.1971    0.0000 C   0  0  0  0  0  0  0  0  0  0  0  0
   -0.7997   -0.7260    0.0000 C   0  0  0  0  0  0  0  0  0  0  0  0
    0.5087    0.0076    0.0000 C   0  0  0  0  0  0  0  0  0  0  0  0
    0.2153    1.4786    0.0000 C   0  0  0  0  0  0  0  0  0  0  0  0
   -1.2744    1.6541    0.0000 O   0  0  0  0  0  0  0  0  0  0  0  0
   -1.9017    0.2916    0.0000 C   0  0  0  0  0  0  0  0  0  0  0  0
   -3.3727   -0.0018    0.0000 C   0  0  0  0  0  0  0  0  0  0  0  0
   -3.8542   -1.4224    0.0000 C   0  0  0  0  0  0  0  0  0  0  0  0
   -5.3252   -1.7158    0.0000 C   0  0  0  0  0  0  0  0  0  0  0  0
   -6.3148   -0.5886    0.0000 C   0  0  0  0  0  0  0  0  0  0  0  0
   -7.8147   -0.5697    0.0000 O   0  0  0  0  0  0  0  0  0  0  0  0
   -8.2602    0.8626    0.0000 C   0  0  0  0  0  0  0  0  0  0  0  0
   -7.0357    1.7290    0.0000 O   0  0  0  0  0  0  0  0  0  0  0  0
   -5.8333    0.8321    0.0000 C   0  0  0  0  0  0  0  0  0  0  0  0
   -4.3623    1.1255    0.0000 C   0  0  0  0  0  0  0  0  0  0  0  0
    3.5631    0.7039    0.0000 C   0  0  0  0  0  0  0  0  0  0  0  0
    5.0342    0.9973    0.0000 C   0  0  0  0  0  0  0  0  0  0  0  0
    5.5156    2.4180    0.0000 O   0  0  0  0  0  0  0  0  0  0  0  0
    4.5260    3.5452    0.0000 C   0  0  0  0  0  0  0  0  0  0  0  0
  1  2  1  0
  2  3  1  0
  3  4  2  0
  4  5  1  0
  5  6  2  0
  7  6  1  1
  7  8  1  0
  8  9  1  0
 10  9  1  6
 10 11  1  0
 11 12  1  6
 12 13  1  0
 13 14  1  0
 14 15  1  6
 15 16  2  0
 16 17  1  0
 17 18  2  0
 18 19  1  0
 19 20  1  0
 20 21  1  0
 21 22  1  0
 22 23  2  0
  6 24  1  0
 24 25  2  0
 25 26  1  0
 26 27  1  0
 25  3  1  0
 11  7  1  0
 23 15  1  0
 14 10  1  0
 22 18  1  0
M  END
>  <identifier>  (888) 
CNP0140264.7

>  <canonical_smiles>  (888) 
COC1=CC=C([C@H]2OC[C@H]3[C@@H]2CO[C@H]3C2=CC=C3OCOC3=C2)C=C1OC

>  <standard_inchi>  (888) 
InChI=1S/C21H22O6/c1-22-16-5-3-12(7-18(16)23-2)20-14-9-25-21(15(14)10-24-20)13-4-6-17-19(8-13)27-11-26-17/h3-8,14-15,20-21H,9-11H2,1-2H3/t14-,15-,20+,21-/m0/s1

>  <standard_inchi_key>  (888) 
AWOGQCSIVCQXBT-YJPXFSGGSA-N

>  <name>  (888) 
nan

>  <iupac_name>  (888) 
5-[(3~{R},3~{a}~{R},6~{S},6~{a}~{R})-6-(3,4-dimethoxyphenyl)-1,3,3~{a},4,6,6~{a}-hexahydrofuro[3,4-c]furan-3-yl]-1,3-benzodioxole

>  <annotation_level>  (888) 
4

>  <total_atom_count>  (888) 
49

>  <heavy_atom_count>  (888) 
27

>  <molecular_weight>  (888) 
370.4

>  <exact_molecular_weight>  (888) 
370.14164

>  <molecular_formula>  (888) 
C21H22O6

>  <alogp>  (888) 
3.51

>  <topological_polar_surface_area>  (888) 
55.38

>  <rotatable_bond_count>  (888) 
4

>  <hydrogen_bond_acceptors>  (888) 
6

>  <hydrogen_bond_donors>  (888) 
0

>  <hydrogen_bond_acceptors_lipinski>  (888) 
6

>  <hydrogen_bond_donors_lipinski>  (888) 
0

>  <lipinski_rule_of_five_violations>  (888) 
0

>  <aromatic_rings_count>  (888) 
2

>  <qed_drug_likeliness>  (888) 
0.82

>  <formal_charge>  (888) 
0

>  <fractioncsp3>  (888) 
0.43

>  <number_of_minimal_rings>  (888) 
5

>  <van_der_walls_volume>  (888) 
nan

>  <contains_sugar>  (888) 
False

>  <contains_ring_sugars>  (888) 
False

>  <contains_linear_sugars>  (888) 
False

>  <murcko_framework>  (888) 
O1c2ccc(cc2OC1)C3OCC4C(OCC34)c5ccccc5

>  <np_likeness>  (888) 
0.75

>  <chemical_class>  (888) 
Furanoid lignans

>  <chemical_sub_class>  (888) 
Furan lignans

>  <chemical_super_class>  (888) 
Lignans, neolignans and related compounds

>  <direct_parent_classification>  (888) 
Furan lignans

>  <np_classifier_pathway>  (888) 
Shikimates and Phenylpropanoids

>  <np_classifier_superclass>  (888) 
Lignans

>  <np_classifier_class>  (888) 
Furofuranoid lignans

>  <np_classifier_is_glycoside>  (888) 
False

>  <organisms>  (888) 
Magnolia denudata|Raulinoa echinata|Samadera bidwillii

>  <collections>  (888) 
Australian natural products|Latin America dataset|NuBBEDB|Super Natural II|TCMDB-Taiwan (Traditional Chinese Medicine database)|WikiData Natural Products|ZINC NP

>  <dois>  (888) 
10.1002/1099-1565(200101/02)12:1<64::AID-PCA562>3.0.CO,2-3|10.1016/S0031-9422(96)00708-X|10.1016/s0031-9422(96)00708-x|10.1248/CPB.53.235

>  <synonyms>  (888) 
(+)-methylpluviatilol|neofargesin

>  <cas>  (888) 
nan

$$$$

     RDKit          2D

 34 40  0  0  0  0  0  0  0  0999 V2000
   -6.4068    0.2709    0.0000 C   0  0  0  0  0  0  0  0  0  0  0  0
   -4.9315   -0.0000    0.0000 C   0  0  0  0  0  0  0  0  0  0  0  0
   -5.3551   -1.4390    0.0000 C   0  0  0  0  0  0  0  0  0  0  0  0
   -4.8163    1.4956    0.0000 O   0  0  0  0  0  0  0  0  0  0  0  0
   -3.3583    1.8482    0.0000 C   0  0  0  0  0  0  0  0  0  0  0  0
   -2.2780    2.5713    0.0000 C   0  0  0  0  0  0  0  0  0  0  0  0
   -1.4784    2.5936    0.0000 C   0  0  0  0  0  0  0  0  0  0  0  0
   -0.4318    4.5288    0.0000 O   0  0  0  0  0  0  0  0  0  0  0  0
   -1.0592    1.9122    0.0000 O   0  0  0  0  0  0  0  0  0  0  0  0
   -1.4398    1.2085    0.0000 C   0  0  0  0  0  0  0  0  0  0  0  0
   -2.5724    0.5705    0.0000 C   0  0  0  0  0  0  0  0  0  0  0  0
   -1.0971    0.2996    0.0000 C   0  0  0  0  0  0  0  0  0  0  0  0
   -0.1248    1.4419    0.0000 C   0  0  0  0  0  0  0  0  0  0  0  0
    1.3505    1.1710    0.0000 C   0  0  0  0  0  0  0  0  0  0  0  0
    1.8536   -0.2422    0.0000 C   0  0  0  0  0  0  0  0  0  0  0  0
    2.8258    0.9001    0.0000 C   0  0  0  0  0  0  0  0  0  0  0  0
    3.3289   -0.5131    0.0000 C   0  0  0  0  0  0  0  0  0  0  0  0
    4.3012    0.6292    0.0000 C   0  0  0  0  0  0  0  0  0  0  0  0
    3.9486    2.0871    0.0000 C   0  0  0  0  0  0  0  0  0  0  0  0
    5.2262    2.8730    0.0000 O   0  0  0  0  0  0  0  0  0  0  0  0
    6.3684    1.9008    0.0000 C   0  0  0  0  0  0  0  0  0  0  0  0
    5.7967    0.5140    0.0000 C   0  0  0  0  0  0  0  0  0  0  0  0
    3.8320   -1.9262    0.0000 O   0  0  0  0  0  0  0  0  0  0  0  0
    2.8597   -3.0684    0.0000 C   0  0  0  0  0  0  0  0  0  0  0  0
    3.3628   -4.4815    0.0000 O   0  0  0  0  0  0  0  0  0  0  0  0
    1.3844   -2.7975    0.0000 C   0  0  0  0  0  0  0  0  0  0  0  0
   -0.0910   -2.5266    0.0000 O   0  0  0  0  0  0  0  0  0  0  0  0
    0.8813   -1.3844    0.0000 C   0  0  0  0  0  0  0  0  0  0  0  0
   -0.5940   -1.1135    0.0000 C   0  0  0  0  0  0  0  0  0  0  0  0
   -2.0694   -0.8426    0.0000 C   0  0  0  0  0  0  0  0  0  0  0  0
   -1.5663   -2.2557    0.0000 C   0  0  0  0  0  0  0  0  0  0  0  0
   -1.0632   -3.6689    0.0000 O   0  0  0  0  0  0  0  0  0  0  0  0
   -3.0416   -1.9848    0.0000 C   0  0  0  0  0  0  0  0  0  0  0  0
   -3.5447   -0.5717    0.0000 C   0  0  0  0  0  0  0  0  0  0  0  0
  1  2  1  0
  2  3  1  0
  2  4  1  0
  4  5  1  0
  5  6  1  1
  6  7  1  0
  7  8  2  0
  7  9  1  0
  9 10  1  0
 11 10  1  1
 11 12  1  0
 12 13  1  0
 13 14  1  0
 14 15  1  0
 15 16  1  6
 15 17  1  0
 17 18  1  6
 18 19  2  0
 19 20  1  0
 20 21  1  0
 21 22  2  0
 17 23  1  0
 23 24  1  0
 24 25  2  0
 24 26  1  0
 26 27  1  1
 28 27  1  1
 28 29  1  0
 29 30  1  1
 29 31  1  0
 31 32  2  0
 31 33  1  0
 34 33  1  1
 34  2  1  0
 11  5  1  0
 29 12  1  0
 34 11  1  0
 28 15  1  0
 22 18  1  0
 28 26  1  0
M  END
>  <identifier>  (889) 
CNP0188078.7

>  <canonical_smiles>  (889) 
CC1(C)O[C@H]2CC(=O)OC[C@]23C2CC[C@@]4(C)[C@H](C5=COC=C5)OC(=O)[C@H]5O[C@]54[C@]2(C)C(=O)C[C@@H]13

>  <standard_inchi>  (889) 
InChI=1S/C26H30O8/c1-22(2)15-9-16(27)24(4)14(25(15)12-31-18(28)10-17(25)33-22)5-7-23(3)19(13-6-8-30-11-13)32-21(29)20-26(23,24)34-20/h6,8,11,14-15,17,19-20H,5,7,9-10,12H2,1-4H3/t14?,15-,17-,19-,20+,23-,24-,25+,26+/m0/s1

>  <standard_inchi_key>  (889) 
KBDSLGBFQAGHBE-YKUAKICNSA-N

>  <name>  (889) 
nan

>  <iupac_name>  (889) 
(2~{R},7~{S},10~{R},13~{R},14~{R},16~{S},19~{S},20~{S})-19-(3-furyl)-9,9,13,20-tetramethyl-4,8,15,18-tetraoxahexacyclo[11.9.0.0^{2,7}.0^{2,10}.0^{14,16}.0^{14,20}]docosane-5,12,17-trione

>  <annotation_level>  (889) 
4

>  <total_atom_count>  (889) 
64

>  <heavy_atom_count>  (889) 
34

>  <molecular_weight>  (889) 
470.52

>  <exact_molecular_weight>  (889) 
470.19407

>  <molecular_formula>  (889) 
C26H30O8

>  <alogp>  (889) 
3.14

>  <topological_polar_surface_area>  (889) 
104.57

>  <rotatable_bond_count>  (889) 
1

>  <hydrogen_bond_acceptors>  (889) 
8

>  <hydrogen_bond_donors>  (889) 
0

>  <hydrogen_bond_acceptors_lipinski>  (889) 
8

>  <hydrogen_bond_donors_lipinski>  (889) 
0

>  <lipinski_rule_of_five_violations>  (889) 
0

>  <aromatic_rings_count>  (889) 
1

>  <qed_drug_likeliness>  (889) 
0.46

>  <formal_charge>  (889) 
0

>  <fractioncsp3>  (889) 
0.73

>  <number_of_minimal_rings>  (889) 
7

>  <van_der_walls_volume>  (889) 
nan

>  <contains_sugar>  (889) 
False

>  <contains_ring_sugars>  (889) 
False

>  <contains_linear_sugars>  (889) 
False

>  <murcko_framework>  (889) 
o1ccc(c1)C2OCC3OC34C2CCC5C4CCC6COC7CCOCC765

>  <np_likeness>  (889) 
3.43

>  <chemical_class>  (889) 
Steroids and steroid derivatives

>  <chemical_sub_class>  (889) 
Oxosteroids

>  <chemical_super_class>  (889) 
Lipids and lipid-like molecules

>  <direct_parent_classification>  (889) 
Oxosteroids

>  <np_classifier_pathway>  (889) 
Terpenoids

>  <np_classifier_superclass>  (889) 
Triterpenoids

>  <np_classifier_class>  (889) 
Limonoids

>  <np_classifier_is_glycoside>  (889) 
False

>  <organisms>  (889) 
Spiranthera odoratissima St. odoratissima

>  <collections>  (889) 
Latin America dataset|NuBBEDB

>  <dois>  (889) 
10.1590/S0103-50532010000500016

>  <synonyms>  (889) 
Limonin

>  <cas>  (889) 
nan

$$$$

     RDKit          2D

 33 37  0  0  0  0  0  0  0  0999 V2000
   -2.9851   -3.1712    0.0000 C   0  0  0  0  0  0  0  0  0  0  0  0
   -3.7183   -1.8626    0.0000 C   0  0  0  0  0  0  0  0  0  0  0  0
   -5.2181   -1.8432    0.0000 C   0  0  0  0  0  0  0  0  0  0  0  0
   -5.9849   -3.1325    0.0000 C   0  0  0  0  0  0  0  0  0  0  0  0
   -5.9513   -0.5346    0.0000 C   0  0  0  0  0  0  0  0  0  0  0  0
   -5.1846    0.7546    0.0000 C   0  0  0  0  0  0  0  0  0  0  0  0
   -3.6847    0.7353    0.0000 C   0  0  0  0  0  0  0  0  0  0  0  0
   -4.4179    2.0439    0.0000 C   0  0  0  0  0  0  0  0  0  0  0  0
   -5.9178    2.0632    0.0000 O   0  0  0  0  0  0  0  0  0  0  0  0
   -3.6512    3.3331    0.0000 O   0  0  0  0  0  0  0  0  0  0  0  0
   -2.9180    2.0245    0.0000 C   0  0  0  0  0  0  0  0  0  0  0  0
   -1.4181    2.0051    0.0000 C   0  0  0  0  0  0  0  0  0  0  0  0
   -0.6850    0.6965    0.0000 C   0  0  0  0  0  0  0  0  0  0  0  0
    0.0482   -0.6121    0.0000 C   0  0  0  0  0  0  0  0  0  0  0  0
   -1.4517   -0.5927    0.0000 C   0  0  0  0  0  0  0  0  0  0  0  0
   -0.7185   -1.9013    0.0000 C   0  0  0  0  0  0  0  0  0  0  0  0
    0.7814   -1.9207    0.0000 C   0  0  0  0  0  0  0  0  0  0  0  0
    1.5481   -0.6315    0.0000 C   0  0  0  0  0  0  0  0  0  0  0  0
    3.0479   -0.6508    0.0000 C   0  0  0  0  0  0  0  0  0  0  0  0
    2.2812   -1.9401    0.0000 C   0  0  0  0  0  0  0  0  0  0  0  0
    3.7811   -1.9594    0.0000 C   0  0  0  0  0  0  0  0  0  0  0  0
    5.2810   -1.9788    0.0000 C   0  0  0  0  0  0  0  0  0  0  0  0
    6.0477   -0.6896    0.0000 C   0  0  0  0  0  0  0  0  0  0  0  0
    7.5476   -0.7089    0.0000 O   0  0  0  0  0  0  0  0  0  0  0  0
    5.3145    0.6191    0.0000 C   0  0  0  0  0  0  0  0  0  0  0  0
    5.0731    2.0995    0.0000 C   0  0  0  0  0  0  0  0  0  0  0  0
    6.7306    1.1138    0.0000 C   0  0  0  0  0  0  0  0  0  0  0  0
    3.8146    0.6384    0.0000 C   0  0  0  0  0  0  0  0  0  0  0  0
    3.0815    1.9470    0.0000 C   0  0  0  0  0  0  0  0  0  0  0  0
    1.5816    1.9664    0.0000 C   0  0  0  0  0  0  0  0  0  0  0  0
    0.8149    0.6772    0.0000 C   0  0  0  0  0  0  0  0  0  0  0  0
    0.0817    1.9858    0.0000 C   0  0  0  0  0  0  0  0  0  0  0  0
   -2.9516   -0.5734    0.0000 C   0  0  0  0  0  0  0  0  0  0  0  0
  2  1  1  1
  2  3  1  0
  3  4  1  6
  3  5  1  0
  5  6  1  0
  6  7  1  0
  7  8  1  1
  8  9  2  0
  8 10  1  0
  7 11  1  0
 11 12  1  0
 12 13  1  0
 13 14  1  6
 13 15  1  0
 15 16  2  0
 16 17  1  0
 18 17  1  1
 18 19  1  0
 19 20  1  1
 19 21  1  0
 21 22  1  0
 22 23  1  0
 23 24  1  1
 23 25  1  0
 25 26  1  0
 25 27  1  0
 25 28  1  0
 28 29  1  0
 29 30  1  0
 30 31  1  0
 31 32  1  1
 33 15  1  6
 33  2  1  0
 33  7  1  0
 31 13  1  0
 31 18  1  0
 28 19  1  0
M  END
>  <identifier>  (890) 
CNP0219063.5

>  <canonical_smiles>  (890) 
C[C@H]1[C@H](C)CC[C@]2(C(=O)O)CC[C@]3(C)C(=CC[C@@H]4[C@@]5(C)CC[C@H](O)C(C)(C)C5CC[C@]43C)[C@H]12

>  <standard_inchi>  (890) 
InChI=1S/C30H48O3/c1-18-10-15-30(25(32)33)17-16-28(6)20(24(30)19(18)2)8-9-22-27(5)13-12-23(31)26(3,4)21(27)11-14-29(22,28)7/h8,18-19,21-24,31H,9-17H2,1-7H3,(H,32,33)/t18-,19+,21?,22-,23+,24+,27+,28-,29-,30+/m1/s1

>  <standard_inchi_key>  (890) 
WCGUUGGRBIKTOS-JJWDWEPMSA-N

>  <name>  (890) 
(1S,2R,4aS,6aS,6bR,10S,12aR,12bR,14bS)-10-hydroxy-1,2,6a,6b,9,9,12a-heptamethyl-1,2,3,4,4a,5,6,6a,6b,7,8,8a,9,10,11,12,12a,12b,13,14b-icosahydropicene-4a-carboxylic acid

>  <iupac_name>  (890) 
(1~{S},2~{R},4~{a}~{S},6~{a}~{R},6~{a}~{S},6~{b}~{R},10~{S},12~{a}~{R},14~{b}~{S})-10-hydroxy-1,2,6~{a},6~{b},9,9,12~{a}-heptamethyl-2,3,4,5,6,6~{a},7,8,8~{a},10,11,12,13,14~{b}-tetradecahydro-1~{H}-picene-4~{a}-carboxylic acid

>  <annotation_level>  (890) 
5

>  <total_atom_count>  (890) 
81

>  <heavy_atom_count>  (890) 
33

>  <molecular_weight>  (890) 
456.71

>  <exact_molecular_weight>  (890) 
456.36035

>  <molecular_formula>  (890) 
C30H48O3

>  <alogp>  (890) 
7.09

>  <topological_polar_surface_area>  (890) 
57.53

>  <rotatable_bond_count>  (890) 
1

>  <hydrogen_bond_acceptors>  (890) 
2

>  <hydrogen_bond_donors>  (890) 
2

>  <hydrogen_bond_acceptors_lipinski>  (890) 
2

>  <hydrogen_bond_donors_lipinski>  (890) 
2

>  <lipinski_rule_of_five_violations>  (890) 
1

>  <aromatic_rings_count>  (890) 
0

>  <qed_drug_likeliness>  (890) 
0.41

>  <formal_charge>  (890) 
0

>  <fractioncsp3>  (890) 
0.90

>  <number_of_minimal_rings>  (890) 
5

>  <van_der_walls_volume>  (890) 
454.57

>  <contains_sugar>  (890) 
False

>  <contains_ring_sugars>  (890) 
False

>  <contains_linear_sugars>  (890) 
False

>  <murcko_framework>  (890) 
C1=C2C3CCCCC3CCC2C4CCC5CCCCC5C4C1

>  <np_likeness>  (890) 
3.19

>  <chemical_class>  (890) 
Prenol lipids

>  <chemical_sub_class>  (890) 
Triterpenoids

>  <chemical_super_class>  (890) 
Lipids and lipid-like molecules

>  <direct_parent_classification>  (890) 
Taraxastane, ursane, and bauerane triterpenoids

>  <np_classifier_pathway>  (890) 
Terpenoids

>  <np_classifier_superclass>  (890) 
Triterpenoids

>  <np_classifier_class>  (890) 
Ursane and Taraxastane triterpenoids

>  <np_classifier_is_glycoside>  (890) 
False

>  <organisms>  (890) 
Bursera cuneata|Styrax ferrugineus

>  <collections>  (890) 
FooDB|Indofine Chemical Company|Latin America dataset|NuBBEDB|WikiData Natural Products

>  <dois>  (890) 
10.1016/J.JEP.2019.03.013|10.1016/S0031-9422(00)00225-9

>  <synonyms>  (890) 
(1S,2R,4AS,6AS,6BR,10S,12AR,12BR,14BS)-10-HYDROXY-1,2,6A,6B,9,9,12A-HEPTAMETHYL-2,3,4,5,6,7,8,8A,10,11,12,12B,13,14B-TETRADECAHYDRO-1H-PICENE-4A-CARBOXYLIC ACID|(1S,2R,4aS,6aR,6aS,6bR,10S,12aR,14bS)-10-hydroxy-1,2,6a,6b,9,9,12a-heptamethyl-2,3,4,5,6,6a,7,8,8a,10,11,12,13,14b-tetradecahydro-1H-picene-4a-carboxylic acid|(1S,2R,4aS,6aS,6bR,10S,12aR,12bR,14bS)-10-hydroxy-1,2,6a,6b,9,9,12a-heptamethyl-1,3,4,5,6,6a,6b,7,8,8a,9,10,11,12,12a,12b,13,14b-octadecahydropicene-4a(2H)-carboxylic acid|AKOS016008498|BDBM23197|GS-6617|SCHEMBL70206|URSOLIC ACID|Ursolic Acid, 10|Ursolic acid|pentacyclic triterpene compound 10

>  <cas>  (890) 
nan

$$$$

     RDKit          2D

 41 45  0  0  0  0  0  0  0  0999 V2000
   -9.8348    3.3838    0.0000 C   0  0  0  0  0  0  0  0  0  0  0  0
   -9.5134    1.9187    0.0000 C   0  0  0  0  0  0  0  0  0  0  0  0
   -8.0838    1.4644    0.0000 C   0  0  0  0  0  0  0  0  0  0  0  0
   -7.7624   -0.0007    0.0000 C   0  0  0  0  0  0  0  0  0  0  0  0
   -6.3328   -0.4549    0.0000 C   0  0  0  0  0  0  0  0  0  0  0  0
   -6.0114   -1.9201    0.0000 C   0  0  0  0  0  0  0  0  0  0  0  0
   -7.1195   -2.9310    0.0000 C   0  0  0  0  0  0  0  0  0  0  0  0
   -4.5818   -2.3743    0.0000 C   0  0  0  0  0  0  0  0  0  0  0  0
   -4.1090   -3.7979    0.0000 C   0  0  0  0  0  0  0  0  0  0  0  0
   -2.6090   -3.7881    0.0000 C   0  0  0  0  0  0  0  0  0  0  0  0
   -2.1548   -2.3585    0.0000 C   0  0  0  0  0  0  0  0  0  0  0  0
   -0.7885   -1.7395    0.0000 C   0  0  0  0  0  0  0  0  0  0  0  0
    0.4307   -2.6133    0.0000 C   0  0  0  0  0  0  0  0  0  0  0  0
    1.7971   -1.9943    0.0000 C   0  0  0  0  0  0  0  0  0  0  0  0
    1.9441   -0.5015    0.0000 C   0  0  0  0  0  0  0  0  0  0  0  0
    3.3105    0.1175    0.0000 C   0  0  0  0  0  0  0  0  0  0  0  0
    3.4575    1.6103    0.0000 C   0  0  0  0  0  0  0  0  0  0  0  0
    4.8239    2.2293    0.0000 O   0  0  0  0  0  0  0  0  0  0  0  0
    6.0431    1.3555    0.0000 C   0  0  0  0  0  0  0  0  0  0  0  0
    5.8960   -0.1372    0.0000 O   0  0  0  0  0  0  0  0  0  0  0  0
    7.1153   -1.0110    0.0000 C   0  0  0  0  0  0  0  0  0  0  0  0
    6.9682   -2.5038    0.0000 C   0  0  0  0  0  0  0  0  0  0  0  0
    5.6019   -3.1228    0.0000 O   0  0  0  0  0  0  0  0  0  0  0  0
    8.4816   -0.3920    0.0000 C   0  0  0  0  0  0  0  0  0  0  0  0
    9.7008   -1.2657    0.0000 O   0  0  0  0  0  0  0  0  0  0  0  0
    8.6286    1.1008    0.0000 C   0  0  0  0  0  0  0  0  0  0  0  0
    9.9950    1.7198    0.0000 O   0  0  0  0  0  0  0  0  0  0  0  0
    7.4094    1.9746    0.0000 C   0  0  0  0  0  0  0  0  0  0  0  0
    7.5565    3.4673    0.0000 O   0  0  0  0  0  0  0  0  0  0  0  0
    2.2383    2.4840    0.0000 C   0  0  0  0  0  0  0  0  0  0  0  0
    0.8720    1.8650    0.0000 C   0  0  0  0  0  0  0  0  0  0  0  0
    0.7249    0.3723    0.0000 C   0  0  0  0  0  0  0  0  0  0  0  0
   -0.4943    1.2460    0.0000 C   0  0  0  0  0  0  0  0  0  0  0  0
   -0.6414   -0.2468    0.0000 C   0  0  0  0  0  0  0  0  0  0  0  0
   -1.8607    0.6270    0.0000 C   0  0  0  0  0  0  0  0  0  0  0  0
   -3.2270    0.0080    0.0000 C   0  0  0  0  0  0  0  0  0  0  0  0
   -3.3741   -1.4848    0.0000 C   0  0  0  0  0  0  0  0  0  0  0  0
   -4.6779   -0.7432    0.0000 C   0  0  0  0  0  0  0  0  0  0  0  0
   -6.9756    2.4754    0.0000 C   0  0  0  0  0  0  0  0  0  0  0  0
   -7.2970    3.9405    0.0000 C   0  0  0  0  0  0  0  0  0  0  0  0
   -5.5460    2.0211    0.0000 C   0  0  0  0  0  0  0  0  0  0  0  0
  1  2  1  0
  3  2  1  1
  3  4  1  0
  4  5  1  0
  5  6  1  0
  6  7  1  6
  6  8  1  0
  8  9  1  6
  9 10  1  0
 11 10  1  6
 11 12  1  0
 12 13  1  1
 13 14  1  0
 14 15  2  0
 15 16  1  0
 16 17  1  0
 17 18  1  6
 19 18  1  1
 19 20  1  0
 20 21  1  0
 21 22  1  1
 22 23  1  0
 21 24  1  0
 24 25  1  6
 24 26  1  0
 26 27  1  1
 26 28  1  0
 28 29  1  6
 17 30  1  0
 30 31  1  0
 31 32  1  0
 32 33  1  6
 32 34  1  0
 34 35  1  6
 35 36  1  0
 36 37  1  0
 37 38  1  6
  3 39  1  0
 39 40  1  0
 39 41  1  0
 37  8  1  0
 37 11  1  0
 34 12  1  0
 32 15  1  0
 28 19  1  0
M  END
>  <identifier>  (891) 
CNP0324146.1

>  <canonical_smiles>  (891) 
CC[C@H](CC[C@@H](C)[C@H]1CC[C@H]2[C@@H]3CC=C4C[C@@H](O[C@@H]5O[C@H](CO)[C@@H](O)[C@H](O)[C@H]5O)CC[C@]4(C)[C@H]3CC[C@]12C)C(C)C

>  <standard_inchi>  (891) 
InChI=1S/C35H60O6/c1-7-22(20(2)3)9-8-21(4)26-12-13-27-25-11-10-23-18-24(14-16-34(23,5)28(25)15-17-35(26,27)6)40-33-32(39)31(38)30(37)29(19-36)41-33/h10,20-22,24-33,36-39H,7-9,11-19H2,1-6H3/t21-,22-,24+,25+,26-,27+,28+,29-,30-,31+,32-,33-,34+,35-/m1/s1

>  <standard_inchi_key>  (891) 
NPJICTMALKLTFW-OFUAXYCQSA-N

>  <name>  (891) 
Daucosterol

>  <iupac_name>  (891) 
(2~{R},3~{R},4~{S},5~{S},6~{R})-2-[[(3~{S},8~{S},9~{S},10~{R},13~{R},14~{S},17~{R})-17-[(1~{R},4~{R})-4-ethyl-1,5-dimethyl-hexyl]-10,13-dimethyl-2,3,4,7,8,9,11,12,14,15,16,17-dodecahydro-1~{H}-cyclopenta[a]phenanthren-3-yl]oxy]-6-(hydroxymethyl)tetrahydropyran-3,4,5-triol

>  <annotation_level>  (891) 
5

>  <total_atom_count>  (891) 
101

>  <heavy_atom_count>  (891) 
41

>  <molecular_weight>  (891) 
576.86

>  <exact_molecular_weight>  (891) 
576.43899

>  <molecular_formula>  (891) 
C35H60O6

>  <alogp>  (891) 
5.85

>  <topological_polar_surface_area>  (891) 
99.38

>  <rotatable_bond_count>  (891) 
9

>  <hydrogen_bond_acceptors>  (891) 
6

>  <hydrogen_bond_donors>  (891) 
4

>  <hydrogen_bond_acceptors_lipinski>  (891) 
6

>  <hydrogen_bond_donors_lipinski>  (891) 
4

>  <lipinski_rule_of_five_violations>  (891) 
2

>  <aromatic_rings_count>  (891) 
0

>  <qed_drug_likeliness>  (891) 
0.26

>  <formal_charge>  (891) 
0

>  <fractioncsp3>  (891) 
0.94

>  <number_of_minimal_rings>  (891) 
5

>  <van_der_walls_volume>  (891) 
576.98

>  <contains_sugar>  (891) 
True

>  <contains_ring_sugars>  (891) 
True

>  <contains_linear_sugars>  (891) 
False

>  <murcko_framework>  (891) 
O1CCCCC1OC2CC3=CCC4C(CCC5CCCC54)C3CC2

>  <np_likeness>  (891) 
2.69

>  <chemical_class>  (891) 
Steroids and steroid derivatives

>  <chemical_sub_class>  (891) 
Stigmastanes and derivatives

>  <chemical_super_class>  (891) 
Lipids and lipid-like molecules

>  <direct_parent_classification>  (891) 
Stigmastanes and derivatives

>  <np_classifier_pathway>  (891) 
Terpenoids

>  <np_classifier_superclass>  (891) 
Steroids

>  <np_classifier_class>  (891) 
Stigmastane steroids

>  <np_classifier_is_glycoside>  (891) 
True

>  <organisms>  (891) 
Aaptos aaptos|Abies koreana|Abies nobilis|Absidia caerulea|Abuta velutina|Acacia adunca|Acacia aulacocarpa|Acacia cambagei|Acacia dealbata|Acacia linarioides|Acacia longifolia|Acacia melanoxylon|Acacia polyacantha|Acacia retinodes|Acacia salicina|Acacia suma|Acaena splendens|Acanthaster planci|Acanthopanax gracilistylus|Acanthopanax sessiliflorum|Acanthothamnus aphyllus|Acanthus ilicifolius|Acer mandshuricum|Acer spicatum|Achillea ageratum|Achillea biebersteinii|Achillea clypeolata|Achillea magnifica|Achillea millefolium|Achillea sipikorensis|Achillea wilhelmsii|Achlya bisexualis|Achlys triphylla|Achyranthes bidentata|Achyranthes fauriei|Achyranthes japonica|Achyrocline bogotensis|Acicarpha tribuloides|Acinetobacter baumannii|Acinetobacter calcoaceticus|Aconitum contortum|Aconitum fauriei|Aconitum flavum|Aconitum forrestii|Aconitum japonicum|Aconitum karakolicum|Aconitum leucostomum|Aconitum nevadense|Aconitum palmatum|Aconitum subcuneatum|Aconitum tianschanicum|Aconitum zuccarini|Acorus calamus|Acrisione denticulata|Acritopappus longifolius|Acrocomia sclerocarpa|Actaea elata|Actinidia chinensis|Actiniopteris australis|Adenium obesum|Adenocarpus hispanicus|Adenophora|Adenophora triphylla|Adenophora wawreana|Adiantum lunulatum|Adina rubescens|Aegiceras corniculatum|Aeginetia indica|Aegiphila verticillata|Aegle marmelos|Aerva lanata|Aesculus chinensis var. wilsonii|Aesculus parviflora|Agardhiella tenera|Agaricus hortensis|Agaricus integer|Agaricus nebularis|Agaricus silvaticus|Agarum cribrosum|Agathis lanceolata|Agathosma scaberula|Agave Americana|Agave huachucensis|Agelas dispar|Ageratina tomentella|Ageratum mexicanum|Aglaia andamanica|Aglaia elaeagnoidea|Aglaia elliptica|Aglaia foveolata|Aglaia odorata|Aglaia rubiginosa|Agnorhiza reticulata|Agrostistachys hookeri|Ailanthus altissima|Ailanthus triphysa|Ajania fruticulosa|Ajania nubigena|Ajuga australis|Ajuga bracteosa|Ajuga taiwanensis|Aka coralliphagum|Akebia quinata|Alangium platanifolium|Albatrellus caeruleoporus|Albizia schimperana|Alcea rosea|Alchornea cordifolia|Alchornea laxiflora|Alcyonium utinomii|Aldisa sanguinea|Alectoria japonica|Alectoria rigida|Alexandrium excavatum|Alkanna cappadocica|Alkanna hirsutissima|Allagopappus dichotomus|Allagopappus viscosissimus|Allium cepa|Allium chinense|Allium monspessulanum|Allium tuberosum|Allium victorialis|Allium wallichii|Allophylus laevigatus|Alnus cordata|Alnus japonica|Aloe deltoideodonta|Aloe indica|Aloe microstigma|Aloe vera|Alpinia blepharocalyx|Alpinia flabellata|Alpinia oxyphylla|Alpinia pinnanensis|Alpinia roxburghii|Alpinia zerumbet|Alseodaphne corneri|Alsidium corallinum|Alstonia angustiloba|Alstonia spathulata|Alstonia spectabilis|Alstonia undulifolia|Alternaria bataticola|Alyxia levinei|Alyxia sinensis|Amanita pseudoporphyria|Amanoa oblongifolia|Amaranthus spinosus|Amathia pinnata|Amelanchier vulgaris|Amietophrynus regularis|Amomum daniellii|Amomum villosum|Amsinckia menziesii|Amsonia elliptica|Amsonia tomentosa|Amycolatopsis sulphurea|Anacystis montana|Anaphalis lactea|Anaphalis subumbellata|Anaptychia heterochroa|Anaptychia obscura|Anarsia lineatella|Anastatica hierochuntica|Andaliman|Anemone clematis|Anemone flaccida|Angelica dahurica|Angelica decursiva|Angelica japonica|Angiopteris caudatiformis|Anguilla japonica|Aniba rosaeodora|Anisacanthus quadrifidus|Anisacanthus virgularis|Anisodus tanguticus|Anisomeles indica|Anisopappus pinnatifidus|Annona bullata|Annona cherimola|Annona cherimolia|Annona cornifolia|Annona glabra|Annona impressivenia|Annona montana|Annona muricata|Annona purpurea|Annona squamosa|Anomospermum grandifolium|Anthemis|Anthocleista vogelii|Anthotroche myoporoides|Aonidiella aurantii|Aplidium multiplicatum|Aplidium orthium|Aplysia vaccaria|Aplysilla rosea|Aplysina archeri|Aplysina laevis|Aplysinella rhax|Apollonias barbujana|Apterostigma dentigerum|Aquilegia ecalcarata|Aquilegia viridiflora|Arachniodes standishii|Araiostegiella perdurans|Aralia decaisneana|Aralia elata|Aralia leschenaultii|Aralidium pinnatifidum|Arbacia pustulosa|Arbutus menziesii|Archidendron ellipticum|Arctium lappa|Arctostaphylos patula|Ardisia elliptica|Ardisia neriifolia|Arenaria oreophila|Ariocarpus fissuratus|Arisaema amurense|Aristea ecklonii|Aristolochia Kaempferi|Aristolochia chamissonis|Aristolochia chilensis|Aristolochia clematitis|Aristolochia cucurbitifolia|Aristolochia elegans|Aristolochia gehrtii|Aristolochia heterophylla|Aristolochia kaempferi|Aristolochia littoralis|Aristolochia liukiuensis|Aristolochia manshuriensis|Arnebia decumbens|Arnica parryi|Arnica viscosa|Artabotrys Uncinatus|Artabotrys uncinatus|Artabotrys zeylanicus|Artemisia annua L.|Artemisia anomala|Artemisia apiacea|Artemisia arborescens|Artemisia arbuscula|Artemisia assoana|Artemisia dentata|Artemisia eriopoda|Artemisia feddei|Artemisia giraldii|Artemisia hanseniana|Artemisia herba-alba|Artemisia igniaria|Artemisia keiskeana|Artemisia lancea|Artemisia minor|Artemisia pectinata|Artemisia pedemontana|Artemisia phaeolepis|Artemisia roxburghiana|Artemisia rubripes|Artemisia rutifolia|Artemisia schischkinii|Artemisia siversiana|Artemisia taurica|Artemisia vestita|Arthrobacter viscosus|Arum italicum|Arundo donax|Asarum petelotii|Asclepias syriaca|Asimina parviflora|Asparagus adscendens|Asparagus cochinchinensis|Asparagus curillus|Aspergillus candidus|Aspergillus carneus|Aspergillus microcysticus|Aspergillus striatus|Aspergillus unguis|Asperula tinctoria|Aspidosperma subincanum|Aspilia paludosa|Aspilia parvifolia|Asplenium indicum|Aster ageratoides|Aster alpinus|Aster koraiensis|Aster souliei|Aster tataricus|Asterias glacialis|Asteriscus aquaticus|Asteriscus sericeus|Asterococcus muratae|Asterospicularia laurae|Astilbe chinensis|Astilbe myriantha|Astilbe rubra|Astragalus adsurgens|Astragalus altaicola|Astragalus amarus|Astragalus arequipensis|Astragalus armatus|Astragalus babatagi|Astragalus bicuspis|Astragalus chinensis|Astragalus coluteocarpus|Astragalus dissectus|Astragalus flexus|Astragalus fruticosus|Astragalus gummifer|Astragalus kabadianus|Astragalus kulabensis|Astragalus macropus|Astragalus massiliensis|Astragalus membranaceus|Astragalus mongholicus|Astragalus orbiculatus|Astragalus pterocephalus|Astragalus schahrudensis|Astragalus sempervirens|Astragalus sieversianus|Astragalus syriacus|Astragalus tomentosus|Astragalus tragacantha|Astragalus uninodis|Astragalus uninodus|Astragalus villosissimus|Astropecten latespinosus|Atalantia racemosa|Atalantia wightii|Athanasia crithmifolia|Athanasia dregeana|Atractylodes macrocephala|Atropa acuminata|Aulacocephalus temmincki|Auricularia auricula-judae|Austrobaileya scandens|Auxemma oncocalyx|Avrainvillea nigricans|Axinella weltneri|Axinyssa tethyoides|Azadirachta indica|Baccharis dracunculifolia|Baccharis grandicapitulata|Baccharis solieri|Baccharis truncata|Bacillus litoralis|Backhousia angustifolia|Bacopa monnieri|Bacterial strain|Balanophora abbreviata|Balanophora harlandii|Balanophora japonica|Balanops australiana|Balanus glandula|Baphia bancoensis|Baptisia lecontii|Baroniella acuminata|Barringtonia acutangula|Basanacantha spinosa|Bassia scoparia|Bauhinia purpurea|Beauveria felina|Beesia calthifolia|Begonia malabarica|Begonia nantoensis|Beilschmiedia anacardioides|Beilschmiedia zenkeri|Benincasa hispida|Benkara malabarica|Benzoin praecox|Berberis crataegina|Berberis julianae|Berberis orthobotrys|Berchemia floribunda|Berchemia pakistanica|Berchemia racemosa|Berkheya radula|Berkheya rhapontica|Bersama swinnyi|Bersama yangambiensis|Betula alnoides|Betula platyphylla|Biancaea sappan|Bidens bipinnata|Bidens tripartita|Biebersteinia heterostemon|Bipolaris sacchari|Bishovia boliviensis|Bistorta elliptica|Bistorta officinalis|Bitter bush|Bituminaria bituminosa|Bituminaria morisiana|Blainvillea latifolia|Blastochloris viridis|Blighia welwitschii|Blumea eriantha|Blumea mollis|Blutaparon portulacoides|Boehmeria pannosa|Boerhavia diffusa|Boletinus paluster|Bombus terrestris|Borassus Flabellifer|Borassus flabellifer|Boschniakia rossica|Botrychium ternatum|Brackenridgea nitida|Brandisia hancei|Brassica rapa|Brassica rapa subsp. oleifera|Brenneria rubrifaciens|Breynia fruticosa|Bridelia ferruginea|Brombya platynema|Brosimum gaudichaudii|Brucea javanica|Bruguiera gymnorhiza|Bruguiera gymnorrhiza|Bryonia alba|Bryonopsis laciniosa|Buchenavia tetraphylla|Buddleja cordata|Buddleja fallowiana|Buddleja variabilis|Bufotes viridis|Bulbinella floribunda|Bulbophyllum odoratissimum|Buphane fischeri|Bursera graveolens|Bursera kerberi|Buxus hildebrandtii|Buxus rolfei|Byrsonima crassifolia|Bystropogon origanifolius|Cacalia robusta|Caiman crocodilus|Calamus insignis|Calcarisporium thermophilum|Calceolaria thyrsiflora|Calea cuneifolia|Calea mediterranea|Calea megacephala|Calea pilosa|Calea platylepis|Callerya cinerea|Callicarpa Macrophylla|Callicarpa acuminata|Callistemon coccineus|Callitris drummondii|Callophycus serratus|Callyspongia spinosissima|Calocedrus macrolepis|Calonectria lauri|Calophyllum apetalum|Calophyllum lanigerum|Calophyllum polyanthum|Calophyllum thwaitesii|Calostephane divaricata|Calvatia lilacina|Calycanthus chinensis|Calycotome villosa|Calyptranthes pallens|Calyptranthes williamsii|Camellia japonica|Camellia oleifera|Campanula lactiflora|Campylopus clavatus|Campylospermum flavum|Canarium muelleri|Canella winterana|Capparis ovata|Capparis spinosa|Capsicum annuum|Capsicum baccatum|Capuronianthus mahafalensis|Caragana aurantiaca|Caraipa densifolia|Caralluma stalagmifera|Cardamine pinnata|Cardiospermum halicacabum|Cardiospermum hirsutum|Carissa spinarum|Carlina acanthifolia|Carpesium faberi|Carpesium longifolium|Carpesium macrocephalum|Carthamus mareoticus|Carthamus tinctorius|Caryocar villosum|Caryopteris tangutica|Casearia membranacea|Casimiroa pubescens|Casimiroa tetrameria|Cassia Javanica|Cassia alata|Cassia fistula|Cassine papillosa|Cassytha filiformis|Castanea dentata|Castanopsis fissa|Castanopsis sclerophylla|Catalpa ovata|Catananche caerulea|Catha edulis|Caulis millettiae|Caulis sargentodoxae|Caulis spatholobi|Ceanothus velutinus|Cedrelopsis grevei|Cedrus deodara|Ceiba pentandra|Celastrus dispermus|Celastrus flagellaris|Celosia argentea|Centaurea aemulans|Centaurea arbutifolia|Centaurea arenaria|Centaurea aspera|Centaurea benedicta|Centaurea bracteata|Centaurea cadmea|Centaurea horrida|Centaurea imperialis|Centaurea musimomum|Centaurea nigrescens|Centaurea omphalotricha|Centaurea pseudocadmea|Centaurea regia|Centaurea rothmalerana|Centella asiatica|Centrosema pubescens|Cephalaria procera|Cephalotaxus hainanensis|Ceramium botryocarpum|Cerbera dilatata|Cerbera odollam|Cereus chrysacanthus|Ceriops decandra|Ceropegia gordonii|Chaenomeles japonica|Chaenomeles sinensis|Chaenomeles speciosa|Chaetomium arcuatum|Chamaecyparis formosensis|Chamaecyparis pisifera|Chamomilla recutita|Charpentiera obovata|Cheilanthes marantae|Cheilanthes mysurensis|Chelonaplysilla violacea|Chenopodium ficifolium|Chione venosa|Chiton tuberculatus|Chlamydomonas allensworthii|Chlamydomonas reinhardtii|Chloranthus fortunei|Chlorophora regia|Chlorophytum borivilianum|Chondria californica|Choriaster granulatus|Chromodoris obsoleta|Chrozophora prostrata|Chrysanthemum indicum|Chrysosplenium flagelliferum|Chuquiraga erinacea|Cichorium endivia|Cichorium glandulosum|Cichorium intybus|Cineraria geifolia|Cinnamomum camphora|Cinnamomum kotoense|Cinnamomum subavenium|Cinnamomum tenuifolium|Cinnamosma madagascariensis|Cipadessa fruticosa|Circinotrichum falcatisporum|Cirsium carolinianum|Cirsium japonicum|Cirsium palustre|Cirsium wallichii|Cissus discolor|Cissus quinquefolia|Cissus sicyoides|Cissus tricuspidata|Cistanche deserticola|Cistanche salsa|Citrullus colocynthis|Citrus grandis|Citrus hystrix|Citrus paradisi|Citrus reshni|Citrus wilsonii|Cladiella krempfi|Cladonia impexa|Cladonia pityrea|Cladosporium cucumerinum|Cladrastis kentukea|Clarkia unguiculata|Clathria prolifera|Clausena dunniana|Clausena euchrestifolia|Clausena excavata|Claviceps microcephala|Clematis chinensis|Clematis hexapetala|Clematis manshurica|Clematis terniflora var. mandshurica|Cleome brachycarpa|Cleome chrysantha|Cleome droserifolia|Clerodendrum colebrookianum|Clerodendrum cyrtophyllum|Clerodendrum glandulosum|Clerodendrum trichotomum|Clinacanthus nutans|Clinopodium gracile|Clinopodium laxiflorum|Clinostemon mahuba|Clusia nemorosa|Cneorum pulverulentum|Coccinella transversoguttata|Codium dwarkense|Codonocarpus australis|Codonopsis cordifolioidea|Coelogyne flavida|Coelogyne ovalis|Coeloseira pacifica|Coffea liberica var. dewevrei|Colchicum speciosum|Coleus parvifolius|Colladonia triquetra|Combretum quadrangulare|Commelina undulata|Conger myriaster|Coniogramme japonica|Conocephalum japonicum|Conus pulicarius|Conyza bonariensis|Conyza canadensis|Coptis trifolia subsp. groenlandica|Corchorus capsularis|Corchorus depressus|Corchorus olitorius|Cordia oncocalyx|Cordia trichotoma|Cordylanthus kingii|Cordyline indivisa|Coreopsis fasciculata|Cornus capitata|Coronophora gregaria|Cortinarius odoratus|Cortinarius vinosipes|Cortinarius viola|Cortinarius violaceus|Corydalis calliantha|Corydalis conspersa|Corydalis cornuta|Corydalis densiflora|Corydalis persica|Corydalis sewerzowi|Corymbia citriodora|Corynanthe pachyceras|Corynascus setosus|Costasiella ocellifera|Cota tinctoria|Cotinus coggygria|Cotyledon secunda|Cousinia canescens|Cowania mexicana|Craibiodendron yunnanense|Crambe crambe|Crambe tatarica|Crataegus flava|Crataegus pinnatifida|Crataegus pontica|Crateva nurvala|Crateva religiosa|Cratoxylum cochinchinense|Cremanthodium discoideum|Cremastra appendiculata|Crematogaster africana|Creosphaeria sassafras|Crepis foetida|Crinipellis scabella|Crinum asiaticum|Crinum augustum|Crinum defixum|Crinum latifolium|Crinum stuhlmannii|Crotalaria mitchellii|Crotalaria stolzii|Croton cajucara|Croton cumingii|Croton geayi|Croton glabellus|Croton laevigatus|Croton lechleri|Croton montevidensis|Croton pulegiodorus|Croton regelianus|Croton tetradenius|Croton urucurana|Cryptocarya aschersoniana|Cryptolepis nigrescens|Cryptolepis obtusa|Cryptolestes pusillus|Cryptosporium pinicola|Cucumis sativus|Cucurbita moschata|Cullen corylifolia|Cullen corylifolium|Cunninghamia lanceolata var. konishii|Cuphea carthagenensis|Cuphea hyssopifolia|Cuphea wrightii|Curculigo capitulata|Curculigo orchioides|Curcuma aeruginosa|Cyanotis arachnoidea|Cyathula officinalis|Cybister confusus|Cyclospermum leptophyllum|Cydonia oblonga|Cydonia vulgaris|Cylas formicarius|Cymbastela coralliophila|Cymbopogon martinii|Cynanchum aphyllum|Cynanchum bungei|Cynanchum viminale|Cynara humilis|Cynoctonum wilfordii|Cynoglossum amabile|Cynomorium songaricum|Cyperus pilosus|Cyperus rotundus|Cystophora scalaris|Cystoseira mediterranea|Cytisus ciliatus|Dacrycarpus imbricatus|Dacrydium biforme|Dactylorhiza hatagirea|Dactynotus ambrosiae|Daemonorops draco|Dahlstedtia pentaphylla|Dahlstedtia pinnata|Dalbergia congestiflora|Dalbergia ecastaphyllum|Dalbergia nitidula|Dalbergia paniculata|Daldinia concentrica|Daphne arisanensis|Daphne gnidioides|Daphne oleoides|Daphne papyracea|Daphne sericea|Daphniphyllum subverticillatum|Datisca glomerata|Daucus carota|Decaneuropsis cumingiana|Delisea elegans|Delphinium campylocentrum|Delphinium cashmerianum|Delphinium giraldii|Delphinium venulosum|Delphinium winklerianum|Dendrilla membranosa|Dendrobium Nobile|Dendrobium candidum|Dendrobium cariniferum|Dendrobium catenatum|Dendrobium chrysanthum|Dendrobium chryseum|Dendrobium chrysotoxum|Dendrobium fimbriatum|Dendrobium loddigesii|Dendrobium moniliforme|Dendrobium nobile|Dendrobium officinale|Dendrobium polyanthum|Dendrobium thyrsiflorum|Dendrobium tosaense|Dendrodoris krebsii|Dendronephthya gigantea|Dendropanax trifidus|Dermocybe cardinalis|Dermocybe semisanguinea|Descurainia sophia|Desmodium canadense|Desmodium gangeticum|Desmostachya bipinnata|Deutzia corymbosa|Deutzia hookeriana|Dialium excelsum|Dianthus chinensis|Diaphus coeruleus|Diaphus suborbitalis|Diaporthe helianthi|Dichomitus squalens|Dicliptera japonica|Dicliptera riparia|Dictamnus dasycarpus|Didemnum inarmatum|Dimelaena oreina|Dimocarpus fumatus|Dimorphocarpa wislizeni|Dioscorea bulbifera|Dioscorea gracillima|Dioscorea membranacea|Dioscorea nipponica Makino subsp. rosthornii (Prain et Burkill) C. T. Ting|Dioscorea olfersiana|Dioscorea oppositifolia|Dioscorea spongiosa|Dioscorea villosa|Dioscoreophyllum cumminsii|Diospyros eriantha|Diospyros maritima|Diospyros verrucosa|Dipentodon sinicus|Diplazium esculentum|Dipsacus asper|Dipsacus azureus|Dipsacus dipsacoides|Dipsacus inermis|Dipterocarpus dyeri|Dischidia formosana|Disepalum plagioneurum|Disporopsis Aspera|Disynaphia halimifolia|Dodonaea viscosa|Dolichandra unguis-cati|Dolomiaea costus|Domohinea perrieri|Doodia picta|Doris montereyensis|Dorstenia barteri|Dorstenia brasiliensis|Dorstenia elliptica|Dorstenia lindeniana|Dorstenia mannii|Dorstenia prorepens|Dorstenia psilurus|Dracaena cochinchinensis|Dracaena concinna|Dracaena mannii|Dracaena ombet|Dracocephalum moldavica|Drechslera avenae|Drimys winteri|Dryadodaphne novoguineensis|Drymaria cordata|Drynaria quercifolia|Dryocosmus kuriphilus|Drypetes indica|Drypetes paxii|Drypetes roxburghii|Drypetes tessmanniana|Duddingtonia flagrans|Duhaldea cappa|Dumortiera hirsuta|Duranta erecta|Dysosma aurantiocaulis|Dysoxylum lenticellare|Dysphania graveolens|Dystaenia takesimana|Dytiscus marginalis|Ecballium elaterium|Echinacea simulata|Echinochloa crus-galli|Echinoclathria subhispida|Echinocystis lobata|Echinops echinatus|Echinops giganteus|Echinops ritro|Echinus microtuberculatus|Echiochilon pauciflorum|Echium rubrum|Ecklonia arborea|Egregia menziesii|Eichhornia crassipes|Elaeagnus pungens|Elaphoglossum lindbergii|Eleusine indica|Eleutherobia albiflora|Eleutherococcus brachypus|Eleutherococcus senticosus|Eleutherococcus sessiliflorus|Elliottia paniculata|Elmerrillia papuana|Elsholtzia ciliata|Embelia Ribes|Embelia ribes|Emericellopsis minima|Enkianthus campanulatus|Enkianthus cernuus|Entada africana|Entada polystachya|Entodon luridus|Epimedium sagittatum|Eragrostis viscosa|Eremocarpus setiger|Eremogone kansuensis|Eremophila serrulata|Eremostachys moluccelloides|Eremurus chinensis|Eria elegans|Eria marginata|Eria rigida|Erigeron bonariensis|Erigeron canadensis|Erinus alpinus|Eriocapitella tomentosa|Eriogonum umbellatum|Eriolarynx australis|Eriophyllum confertiflorum|Eriophyton wallichii|Eriosema chinense|Eriostemon rhomboideus|Erium villosum|Erylus nobilis|Erythrina sigmoidea|Erythrina vogelii|Eschenbachia blinii|Escontria chiotilla|Esenbeckia conspecta|Eskemukerjea megacarpum|Ethulia conyzoides|Eucalyptus|Eucalyptus Camaldulensis|Eucalyptus albens|Eucalyptus camaldulensis|Eucalyptus camaldulensis var. pendula|Eucalyptus citriodora|Eucalyptus globulus|Eucalyptus jenseni|Eucalyptus kitsoni|Eucalyptus melliodora|Eucalyptus robusta|Eucalyptus rubida|Eucalyptus saligna|Euchresta formosana|Eucryphia cordifolia|Eugenia hyemalis|Eunicella cavolinii|Euodia bodinieri|Euodia officinalis|Euodia ruticarpa|Euonymus alatus|Euonymus echinatus|Euonymus fortunei|Euonymus laxiflorus|Euonymus nanoides|Euonymus tingens|Eupatorium argentinum|Euphausia superba|Euphorbia aleppica|Euphorbia altotibetica|Euphorbia biglandulosa|Euphorbia boetica|Euphorbia bupleuroides|Euphorbia cornigera|Euphorbia dendroides|Euphorbia ebracteolata|Euphorbia esula|Euphorbia formosana|Euphorbia hirta|Euphorbia kansui|Euphorbia macroclada|Euphorbia palustris|Euphorbia petiolata|Euphorbia pithyusa|Euphorbia quinquecostata|Euphorbia resinifera|Euphorbia rothiana|Euphorbia segetalis|Euphorbia tirucalli|Euphorbia wallichii|Euploca racemosa|Euptelea polyandra|Eurya japonica|Eurycoma longifolia|Euthamia graminifolia|Evodia rutaecarpa|Evolvulus nummularius|Excoecaria acerifolia|Eysenhardtia platycarpa|Fagara naranjillo|Fagopyrum cymosum|Fagopyrum tataricum|Fagus fusca|Fallopia multiflora|Farfugium japonicum|Fatsia japonica|Felicia amelloides|Ferula ammoniacum|Ferula gummosa|Ferula gumosa|Fibraurea recisa|Fibraurea tinctoria|Ficus conraui|Ficus glumosa|Ficus lyrata|Ficus microcarpa|Ficus mucuso|Ficus nervosa|Ficus pandurata|Ficus polita|Ficus pumila|Ficus racemosa|Ficus sagittata|Ficus septica|Flacourtia indica|Flavoparmelia caperata|Flemingia macrophylla|Flemingia philippinensis|Flemingia stricta|Flueggea tinctoria|Flueggea virosa|Foeniculum vulgare|Folium digitalis|Folium viticis negundo|Formica fusca|Forsteronia refracta|Forsythia suspensa|Fouquieria diguetii|Fragaria vesca|Fraxinus malacophylla|Fridericia chica|Fritillaria cirrhosa|Fritillaria hupehensis|Fritillaria ningguoensis|Fritillaria taipaiensis|Fritillaria thunbergii|Fritillaria verticillata|Fructus choerospondiatis|Fructus gardeniae grandiflorae|Fructus gardeniae preparata|Fructus mori|Fructus xanthii sibirici|Frullania muscicola|Fuligo candida|Fulmarus glacialis|Fumaria indica|Fumaria kraliki|Fusarium avenaceum|Fusarium dimerum|Fusarium sacchari|Gaertnera morindoides|Galdieria sulphuraria|Galega officinalis|Galphimia glauca|Ganoderma applanatum|Ganoderma lucidum|Garcia parviflora|Garcinia griffithii|Garcinia hombroniana|Garcinia latissima|Garcinia scortechinii|Gardenia gordoni|Gardenia tubifera|Garrya laurifolia|Gasterosteus aculeatus|Gastrodia elata|Geigeria schinzii|Gelasia cretica|Genista sessilifolia|Gentiana algida|Gentiana bellidifolia|Gentiana crassicaulis|Gentiana dahurica|Gentiana davidii var. formosana|Gentiana macrophylla|Gentiana scabra|Gentiana siphonantha|Gentiana straminea|Gentiana tibetica|Geranium macrorrhizum|Glinus oppositifolius|Glochidion philippicum|Glochidion zeylanicum|Gloiosiphonia verticillaris|Glycine sp.|Glycosmis pseudoracemosa|Glycosmis puberula|Glyptopetalum sclerocarpum|Gnetum latifolium|Gnetum montanum|Goldfussia yunnanensis|Gomphostemma parviflorum|Gonepteryx rhamni|Goniothalamus malayanus|Goniothalamus sesquipedalis|Goniothalamus undulatus|Gonocaryum calleryanum|Gonospermum elegans|Gonospermum ferulaceum|Gonzalezia decurrens|Gossypium sp.|Gouania ulmifolia|Goupia glabra|Gratiola officinalis|Great yellow gentian|Gremmeniella abietina|Grevillea robusta|Grewia bicolor|Grewia bilamellata|Grewia damine|Grewia mollis|Grindelia discoidea|Grindelia nana|Guadua angustifolia|Guaiacum officinale|Guarea trichilioides|Guatteria boliviana|Guettarda eximia|Guettarda noumeana|Gutierrezia dracunculoides|Gymnocarpium robertianum|Gymnopus confluens|Gymnosporia diversifolia|Gymnotheca involucrata|Gynochthodes parvifolia|Gynoxys verrucosa|Gynura japonica|Gypothamnium pinifolium|Gypsophila oldhamiana|Gyrostroma missouriense|Haemanthus toxicarius|Hakea saligna|Halenia elliptica|Halichondria okadai|Haliclona tubifera|Halimodendron halodendron|Halocarpus biformis|Halocharis hispida|Halopitys incurvus|Haloxylon salicornicum|Hansenia forbesii|Hansenia weberbaueriana|Haplocarpha scaposa|Harrisonia perforata|Hebanthe erianthos|Hedera Nepalensis|Hedera nepalensis|Hedera rhombea|Hedera taurica|Hedychium coronarium|Hedysarum connatum|Hedysarum gmelini|Hedysarum polybotrys|Helenium integrifolium|Helenium quadridentatum|Helenium virginicum|Helianthus radula|Helichrysum angustifolium|Helichrysum arenarium|Helichrysum auriceps|Helichrysum cameroonense|Helichrysum davenportii|Helichrysum dendroideum|Helichrysum nudifolium|Helichrysum stoechas|Helichrysum sutherlandii|Heliconius cydno|Helicteres angustifolia|Helicteres isora|Heliomeris multiflora|Heliotropium digynum|Heliotropium floridum|Heliotropium indicum|Helipterum gnaphaloides|Helipterum propinquum|Helipterum roseum|Hellenia lacera|Helwingia chinensis|Hemiselmis virescens|Hendersonula toruloidea|Heracleum wolongense|Herba patriniae|Herba selaginellae doederleinii|Heterocapsa triquetra|Heteropanax fragrans|Heteropolygonatum alte-lobatum|Heteropsis integerrima|Heterosigma akashiwo|Heterotheca grandiflora|Heuchera cylindrica|Hexabranchus sanguineus|Hexagonia speciosa|Hibiscus palustris|Hibiscus schizopetalus|Hibiscus taiwanensis|Hijmania angusticornis|Himalaiella deltoidea|Himalrandia tetrasperma|Hippasteria phrygiana|Hippobroma longiflora|Hippocratea excelsa|Hippocratea volubilis|Hoffmannia strigillosa|Holarrhena floribunda|Holothuria atra|Holothuria squamifera|Homalium longifolium|Hoodia gordonii|Houttuynia cordata|Hovenia acerba|Hubertia tomentosa|Humulus lupulus|Hydnocarpus pentandrus|Hydrangea chinensis|Hydrastis canadensis|Hydrocotyle ranunculoides|Hyella caespitosa|Hygrocybe punicea|Hygrophorus eburneus|Hylocomium splendens|Hylotrupes bajulus|Hymenaea martiana|Hymenodictyon floribundum|Hymenoxys microcephala|Hyoscyamus niger|Hyoscyamus pusillus|Hypericum caprifoliatum|Hypericum erectum|Hypericum geminiflorum|Hypericum japonicum|Hypericum laricifolium|Hypericum monogynum|Hypericum oblongifolium|Hypericum perforatum|Hypericum reptans|Hyphear tanakae|Hypogymnia vittata|Hypolaena fastigiata|Hypolepis punctata|Hypotrachyna quaesita|Hypoxis nyasica|Hypselodoris porterae|Hyptis Brevipes|Hyptis brevipes|Hyptis suaveolens|Ibacus peronii|Iberis sempervirens|Icacina oliviformis|Icacina senegalensis|Idea leuconoe|Ilex brevicuspis|Incarvillea delavayi|Inula Cappa|Inula Racemosa|Inula britannica|Inula grantioides|Inula japonica|Inula racemosa|Io fluvialis|Iochroma australe|Iostephane heterophylla|Iotrochota purpurea|Iphiona grantioides|Iphiona scabra|Ipomoea cairica|Ipomoea digitata|Ipomoea fistulosa|Ipomoea nil|Ipomoea purpurea|Iresine diffusa|Iridaea membranacea|Iris domestica|Iris leptophylla|Iris tectorum|Iryanthera polyneura|Isatis tinctoria|Isoberlinia angolensis|Isodon adenanthus|Isodon amethystoides|Isodon angustifolius|Isodon coetsa|Isodon glutinosus|Isodon japonica var. glaucocalyx|Isodon japonicus|Isodon lophanthoides|Isodon pharicus|Isodon phyllostachys|Isodon rubescens|Isodon sculponeatus|Isodon umbrosus|Ixora coccinea|Jaborosa leucotricha|Jacobaea subalpina|Jasminum grandiflorum|Jatropha maheshwarii|Juglans nigra|Juncus effusus|Juniperus ashei|Juniperus brevifolia|Juniperus formosana|Juniperus horizontalis|Juniperus rigida|Juniperus rigida var. conferta|Juniperus scopulorum|Justicia adhatoda|Justicia betonica|Justicia diffusa|Justicia flava|Justicia glauca|Justicia tranquebariensis|Justicia trinervia|Kadsura Heteroclita|Kadsura ananosma|Kadsura coccinea|Kadsura heteroclita|Kaempferia Angustifolia|Kaempferia marginata|Kalanchoe blossfeldiana|Kalanchoe spathulata|Kaunia saltensis|Khaya anthotheca|Khaya grandifoliola|Khaya senegalensis|Kiggelaria africana|Kitagawia praeruptora|Kniphofia foliosa|Koelreuteria paniculata|Koenigia coriaria|Kokoona reflexa|Koompassia malaccensis|Kopsia grandifolia|Krameria bicolor|Krameria grayi|Krameria sonorae|Krascheninnikovia ceratoides|Kydia glabrescens|Lactarius atroviridis|Lactarius pubescens|Lactarius sanguifluus|Lactobacillus casei|Lactococcus lactis|Laetiporus versisporus|Lafoensia glyptocarpa|Lagerstroemia|Lagerstroemia speciosa|Laggera alata|Lagotis yunnanensis|Lambertella corni|Lanaria lanata|Lantana Camara|Lantana camara|Lanxangia tsao-ko|Laportea ovalifolia|Lasianthaea podocephala|Lasianthus fordii|Lasiosiphon kraussianus|Lastrea thelypteris|Lathyrus latifolius|Lathyrus rotundifolius|Lathyrus tingitanus|Laurencia saitoi|Laurencia spectabilis|Laurencia tristicha|Laurentia longiflora|Lavandula canariensis|Lawsonia inermis|Leathesia nana|Lebeckia plukenetiana|Lecanora lividocinerea|Lecidella chodati|Ledebouria socialis|Leitneria floridana|Lemaireocereus griseus|Leontice kiangnanensis|Leontopodium nanum|Lepechinia caulescens|Lepidiota negatoria|Lepidium apetalum|Lepidorhinus squamosus|Lepisorus ussuriensis|Lepista irina|Lepraria citrina|Leptolobium bijugum|Leptopus chinensis|Leptothorax acervorum|Lespedeza thunbergii subsp. formosa|Leucanthemum maximum|Leucas inflata|Leucocarpus perfoliatus|Leucoptera malifoliella|Leucosceptrum|Liatris aspera|Licania cariae|Ligularia atroviolacea|Ligularia dentata|Ligularia dolichobotrys|Ligularia duciformis|Ligularia hodgsonii|Ligularia intermedia|Ligularia macrophylla|Ligularia pleurocaulis|Ligularia sagitta|Ligularia songarica|Ligularia tongolensis|Ligusticum jeholense|Ligusticum porteri|Ligusticum sinense|Ligusticum tenuissimum|Ligustrum obtusifolium|Ligustrum ovalifolium|Lilium brownii|Lilium candidum|Lilium lancifolium|Lilium pumilum|Limnodynastes interioris|Limonium axillare|Limonium wrightii|Linaria vulgaris|Lindera communis|Lindera glauca|Linum usitatissimum|Liparis keitaoensis|Liparis nakaharai|Lippia adoensis|Lipschitziella deltoidea|Liquidambar formosana|Liriope muscari|Liriope spicata|Lissoclinum japonicum|Litchi chinensis|Lithodora fruticosa|Lithothamnion corallioides|Littorina littorea|Lobelia chinensis|Lobophora variegata|Lobophytum cristatum|Lobophytum denticulatum|Lonchocarpus costaricensis|Lonchocarpus urucu|Lonicera hypoleuca|Lonicera japonica|Lophiostoma vaginatispora|Lophocereus marginatus|Loranthus tanakae|Lotus creticus|Lotus ucrainicus|Lucilia caesar|Lupinus cosentinii|Lupinus luteus|Lupinus pubescens|Luxemburgia nobilis|Lycium barbarum|Lycium chinense|Lycopodium japonicum|Lycopodium paniculatum|Lycopus europaeus|Lygodium pinnatifidum|Lyonia ovalifolia|Lysimachia japonica|Lysimachia mauritiana|Lysionotus denticulosus|Mabea fistulifera|Macaranga sinensis|Machaerium kuhlmannii|Machilus japonica|Machilus obovatifolia|Machilus zuihoensis|Maclura aurantiaca|Macrococculus pomiferus|Macrolepiota neomastoidea|Macropiper latifolium|Macropiper methysticum|Maesa ramentacea|Maesobotrya floribunda|Maesopsis eminii|Magnolia grandiflora|Magnolia obovata|Magnolia odora|Magnolia sieboldii|Magnolia sinica|Mallotus apelta|Mallotus repandus|Mamestra brassicae|Mandevilla martiana|Mandragora officinarum|Mangifera indica|Manihot esculenta|Mannia fragrans|Maquira coriacea|Marchantia polymorpha|Marrubium anisodon|Massa hanshi fermentata|Matricaria chamomilla|Maytenus buxifolia|Maytenus hookeri|Meconopsis|Medinilla magnifica|Medium grandiflorum|Melaleuca decora|Melaleuca uncinata|Melampodium leucanthum|Melanophryniscus moreirae|Melia azedarach|Melia toosendan|Melicope micrococca|Melissa officinalis|Melochia tomentosa|Melolontha melolontha|Mentha arvensis|Mentha canadensis|Mentha pulegiformis|Mentha spicata|Meryta denhamii|Mespilus germanica|Mesua beccariana|Mesua ferrea|Metanarthecium luteoviride|Methanosarcina barkeri|Methylosinus trichosporium|Metridium senile|Micrococcus luteus|Microlepia marginata|Micromonospora echinospora|Microsorum punctatum|Mikania luetzelburgii|Mikania oblongifolia|Mikania stipulacea|Millettia conraui|Millettia erythrocalyx|Millettia laurentii|Millettia pinnata|Millettia vatkei|Mimosa invisa|Mimosa tenuiflora|Mimusops elengi|Mirabilis himalaica|Mirabilis jalapa|Mitragyna stipulosa|Modiolus demissus|Mollinedia costaricensis|Mollugo cerviana|Monanchora unguiculata|Monascus purpureus|Monochaetum vulcanicum|Monodora tenuifolia|Monomeria barbata|Monopteryx uaucu|Moquilea cariae|Moquilea pyrifolia|Morella pensylvanica|Morinda Citrifolia|Morinda citrifolia|Morinda morindoides|Moringa oleifera|Moringa pterygosperma|Mortierella elongata|Morus alba|Morus insignis|Morus mongolica|Mosla dianthera|Mosla soochowensis|Mucuna urens|Murdannia triquetra|Mussaenda parviflora|Mutisia acerosa|Mycobacterium leprae|Mycobacterium tuberculosis|Myelobia smerintha|Myoporum platycarpum|Myrcia neopallens|Myrianthus arboreus|Myrica arborea|Myristica argentea|Myristica cagayanensis|Myristica otoba|Myrtopsis sellingii|Mytilus galloprovincialis|Nannoglottis ravida|Napoleonaea vogelii|Narcissus concolor|Nardostachys jatamansi|Nasutitermes ephratae|Nauclea latifolia|Nauclea officinalis|Nauclea orientalis|Naucleopsis ternstroemiiflora|Nealchornea yapurensis|Negombata magnifica|Nelumbo nucifera|Nemuaron humboldtii|Neoboutonia glabrescens|Neolentinus lepideus|Neolitsea acuminatissima|Neolitsea hiiranensis|Neolitsea pulchella|Neolitsea villosa|Neophaeosphaeria quadriseptata|Nepeta caesarea|Nepeta multifida|Nepeta tuberosa|Nephroma australe|Nephroma cellulosum|Nephthea armata|Newbouldia laevis|Nicotiana glauca|Nigella aristata|Nipaecoccus aurilanatus|Nonomuraea dietziae|Nothapodytes nimmoniana|Nothapodytes pittosporoides|Notholaena aschenborniana|Notholaena lemmonii|Nototodarus sloanii|Nyctanthes arbor-tristis|Nymphaea elegans|Ochna afzelii|Ochna calodendron|Ocimum gratissimum|Ocimum tenuiflorum|Oenothera biennis|Oldenlandia corymbosa var. corymbosa|Oleum viticis negundo|Oligochaeta divaricata|Oncoba echinata|Ongokea gore|Onobrychis bobrovii|Ononis vaginalis|Ononis viscosa|Onopordum macrocanthum|Onoseris alata|Onychium contiguum C.Hope (1901)|Onychium japonicum|Onychium lucidum|Ophidiaster ophidianus|Ophiocordyceps heteropoda|Ophiolepis superba|Ophiopogon intermedius|Ophiopogon jaburan|Ophiopogon japonicus|Ophiopogon planiscapus|Ophiorrhiza kuroiwae|Ophiorrhiza liukiuensis|Ophiorrhiza pumila|Ophryosporus charua|Opuntia humifusa humifusa|Oreocnide frutescens|Ormosia dasycarpa|Orobanche coerulescens|Orobanche pycnostachya|Oroxylum indicum|Oryza sativa|Osbeckia chinensis|Oscillatoria princeps|Osmanthus heterophyllus|Osmanthus ilicifolius|Osmanthus × fortunei|Osmundaria colensoi|Otanthus maritimus|Otostegia fruticosa|Ouratea castaneifolia|Ouratea semiserrata|Oxyanthus pallidus|Oxytropis puberula|Ozoroa insignis|Pachycereus pringlei|Pachygone dasycarpa|Paeonia Suffruticosa|Palaquium canaliculatum|Paliurus hemsleyanus|Panax bipinnatifidus var. bipinnatifidus|Panax ginseng|Panax innovans|Panax japonicus var. major (burk.) wu et feng|Panax papyrifer|Panax pseudoginseng|Panax vietnamensis|Papaver persicum|Papaver pseudocanescens|Papaver radicatum|Papaver somniferum|Papilio phorcas|Parabenzoin trilobum|Paracoccus denitrificans|Parameria laevigata|Paramignya griffithii|Paramyrothecium roridum|Paranephelius uniflorus|Parasenecio pilgerianus|Parastrephia lepidophylla|Pardachirus pavoninus|Parectatosoma mocquerysi|Paris polyphylla var. chinensis|Parkia javanica|Parmelia pokornyi|Parmelia tinctina|Parnassius phoebus|Parthenium bipinnatifidum|Parthenium hysterophorus|Paspalum scrobiculatum|Passiflora oerstedii|Pastinaca sativa|Patrinia rupestris|Paullinia pinnata|Pavonia alba|Pecten irradians|Pedalium murex|Pedicularis densispica|Pedicularis muscicola|Pedicularis rex|Pelea madagascarica|Pellacalyx axillaris|Peltophorum dubium|Peltostigma guatemalense|Penianthus zenkeri|Penicillium abidjanum|Penicillium alutaceum|Penicillium cinerascens|Penicillium decumbens|Penicillium janczewskii|Penicillium olsonii|Penstemon secundiflorus|Pentaceraster alveolatus|Peperomia humilis|Peperomia leptostachya|Pericome caudata|Periconia atropurpurea|Perilla frutescens|Periploca forrestii|Periploca sepium|Peritassa compta|Perovskia abrotanoides|Perovskia atriplicifolia|Persea indica|Persea mexicana|Persicaria amphibia|Persicaria ferruginea|Persicaria lapathifolia|Persicaria nepalensis|Persicaria spectabilis|Persicaria tinctoria|Perymenium jelskii|Pestalotiopsis oenotherae|Petalostemon purpureum|Petasites formosanus|Petasites japonicus|Petrorhagia dubia|Petrosia corticata|Petrosia hebes|Petrosia similis|Petteria ramentacea|Petunia nyctaginiflora|Peucedanum oroselinum|Peucedanum praeruptorum|Peyrousea umbellata|Pharbitis nil|Phascolosoma elongatum|Phebalium dentatum|Phebalium whitei|Phedimus kamtschaticus|Phegopteris bukoensis|Phellinus tremulae|Phenax angustifolius|Philotheca rhomboidea|Phlegmariurus tetrastichus|Phlogacanthus thyrsiflorus|Phlojodicarpus sibiricus|Phlomis crinita|Phlomis nissolii|Phlomis umbrosa|Phlomoides hamosa|Phlomoides medicinalis|Phlomoides tuberosa|Phoebe pittieri|Phonus mareoticus|Phora affinis|Phoradendron reichenbachianum|Phormia regina|Phyllanthus oligospermus|Phyllanthus velutinus|Phyllanthus watsonii|Phyllidia ocellata|Phyllobates bicolor|Phyllospongia lamellosa|Physalis lagascae|Physalis minima|Physalis peruviana|Physalis sordida|Physocarpus intermedius|Phytolacca acinosa|Picea neoveitchii|Picradeniopsis pringlei|Picramnia antidesma|Picramnia hirsuta|Picramnia latifolia|Picris radicata|Pilocarpus spicatus|Pinellia ternata|Pinguicula moranensis|Pinus edulis|Pinus glauca|Pinus picea|Pinus strobus|Pinus sylvestris|Piper Nigrum|Piper acutifolium|Piper aequale|Piper arboreum|Piper brachystachyum|Piper lanceifolium|Piper latifolium|Piper longum|Piper majusculum|Piper marginatum|Piper methysticum|Piper nigrum|Piper pedicellatum|Piper peepuloides|Piper peltatum|Piper puberulum|Piper sanctum|Piper schmidtii|Piper umbellatum|Piptadenia colubrina|Piptanthus nanus|Piptocarpha opaca|Piptostigma fugax|Pistacia atlantica|Pithecellobium racemosum|Pittosporum brevicalyx|Pittosporum undulatum|Plakinastrella clathrata|Platycarpha glomerata|Platycladus orientalis|Platycodon grandiflorum|Platycodon grandiflorus|Plectosphaerella cucumerina|Plectranthus caninus|Plectranthus nummularius|Plectranthus purpuratus|Pleione bulbocodioides|Pleione yunnanensis|Pleogyne cunninghami|Pleogyne cunninghamii|Pleurolobus gangeticus|Pleurotus ostreatus|Pluchea dioscoridis|Pluchea lanceolata|Pluchea odorata|Pluchea suaveolens|Plumbago zeylanica|Plumeria rubra|Poa huecu|Poacynum venetum|Podanthus mitiqui|Podocarpus amarus|Podocarpus blumei|Podocarpus montanus|Podolepis longipedata|Podophyllum hexandrum|Podospora curvicolla|Pogostemon cablin|Polemonium caeruleum|Polyalthia nemoralis|Polyalthia suberosa|Polycephalomyces nipponicus|Polygala amara|Polygala aureocauda|Polygala sibirica|Polygala tenuifolia|Polygonatum kingianum|Polygonum flaccidum|Polyphaga sinensis|Polypodium hastatum|Polypodium vulgare|Polyporus confluens|Polyscias fulva|Polytolypa hystricis|Ponera metallica|Pongamia pinnata|Populus alba|Populus angustifolia|Poraqueiba guianensis|Portulaca oleracea|Posidonia oceanica|Postia guttulata|Potamogeton malaianus|Potebniamyces gallicola|Potentilla candicans|Pouzolzia occidentalis|Prangos ferulacea|Prangos pabularia|Premna odorata|Primula hirsuta|Primula integrifolia|Primula macrophylla|Prinsepia utilis|Procris repens|Prorocentrum micans|Prosopis kuntzei|Prosopis spicigera|Protium heptaphyllum|Prunella vulgaris|Prunus africana|Prunus amygdalus|Prunus armeniaca|Prunus avium|Prunus cornuta|Prunus davidiana|Prunus dulcis|Prunus lusitanica|Prunus mahaleb|Prunus persica|Prunus zippeliana|Psacalium megaphyllum|Psammosilene tunicoides|Pseudallescheria boydii|Pseudoalteromonas luteoviolacea|Pseudocyphellaria aurata|Pseudocyphellaria australiensis|Pseudocyphellaria coronata|Pseudocyphellaria hirsuta|Pseudomonas chlororaphis|Pseudomonas syringae|Pseudoplexaura flagellosa|Pseudostellaria heterophylla|Pseudowintera colorata|Pseudoxandra sclerocarpa|Pseuduvaria indochinensis|Psiadia dentata|Psidium Guajava|Psidium acutangulum|Psidium cattleyanum|Psidium guajava|Psilotum nudum|Psittacanthus cucullaris|Psychotria correae|Pteridium Aquilinum|Pteris Multifida|Pteris ensiformis|Pteris inaequalis|Pteris multifida|Pteris semipinnata|Pteris setuloso-costulata|Pteris spinulosa|Pterocarpus erinaceus|Pterocarpus indicus|Pterospermum xylocarpum|Pteryxia terebinthina|Ptilostemon chamaepeuce|Ptilota pectinata|Pueraria montana var. lobata|Pulicaria incisa|Pulicaria laciniata|Pulicaria wightiana|Pulsatilla cernua|Punica Granatum|Punica granatum|Purpura aperta|Purshia mexicana|Pycnanthus angolensis|Pyrobaculum organotrophum|Pyrola decorata|Pyrrosia petiolosa|Pyrus bourgaeana|Pyrus communis|Quercus imbricaria|Quercus serrata|Rabdosia excisa|Rabdosia macrophylla|Rabdosia ternifolia|Radermachera xylocarpa|Radix kadsurae coccineae|Radix rosae laevigatae|Ramalina pollinaria|Ramariopsis helvola|Ramuius wallichii seu puberulii|Randia longispina|Ranunculus acris|Ranunculus bulbosus|Ranunculus laetus|Rapanea lancifolia|Rapanea neurophylla|Rauvolfia salicifolia|Rauvolfia vomitoria|Reinwardtiodendron anamalaiense|Reissantia buchananii|Renealmia alpinia|Renilla muelleri|Reseda suffruticosa|Retrophyllum rospigliosii|Rhamnus cathartica|Rhamnus formosana|Rhamnus wightii|Rhaponticum uniflorum|Rheedia acuminata|Rheum coreanum|Rheum maximowiczii|Rheum officinale|Rheum palmatum|Rheum sublanceolatum|Rheum tanguticum|Rhinacanthus nasutus|Rhinella arenarum|Rhinella icterica|Rhizoctonia repens|Rhizoma curcumae|Rhizophora apiculata|Rhizophora tagal|Rhizoplaca baranowii|Rhizopus arrhizus|Rhizopus oryzae|Rhizosolenia setigera|Rhodiola fastigiata|Rhodiola kirilowii|Rhodiola linearifolia|Rhodiola rosea|Rhodiola sachalinensis|Rhodiola sinuata|Rhodobacter sphaeroides|Rhododendron aureum|Rhododendron barbatum|Rhododendron ferrugineum|Rhododendron latoucheae|Rhododendron maximum|Rhododendron micranthum|Rhododendron mucronulatum|Rhodoglossum japonicum|Robinsonecio gerberifolius|Roccellaria mollis|Rodgersia podophylla|Roemeria carica|Rogeria adenophylla|Roldana angulifolia|Roldana lobata|Rorippa indica|Rosa agrestis|Rosa bella|Rosa davidii|Rosa laevigata|Rosa taiwanensis|Rosa transmorrisonensis|Roscoea purpurea|Rourea Minor|Rourea minor|Rubia akane|Rubia argyi|Rubia pubescens|Rubia wallichiana|Rubia yunnanensis|Rubrivivax gelatinosus|Rubus chingii|Rubus chroosepalus|Rubus coreanus|Rubus irenaeus|Rubus laciniatus|Rubus pungens|Rubus rosa|Rubus xanthocarpus|Ruellia patula|Rumex maritimus|Rumex nepalensis|Ruscus aculeatus|Russula sardonia|Russula vesca|Ruta microcarpa|Ruta pinnata|Sabina sargentii|Saccharothrix mutabilis|Saccharothrix mutabilis subsp. capreolus|Sagittaria trifolia|Salacia lehmbachii|Salix sachalinensis|Salmonella enterica subsp. enterica serovar bovismorbificans|Salsola collina|Salsola micranthera|Salvadora persica|Salvia aegyptiaca|Salvia broussonetii|Salvia bucharica|Salvia caespitosa|Salvia deserta|Salvia deserti|Salvia dorrii|Salvia eriophora|Salvia hispanica|Salvia horminum|Salvia lavandulifolia|Salvia longistyla|Salvia macrosiphon|Salvia miltiorrhiza|Salvia moorcroftiana|Salvia nubicola|Salvia officinalis|Salvia palaestina|Salvia sahendica|Salvia staminea|Salvia syriaca|Salvia tiliaefolia|Salvia tomentosa|Salvia trijuga|Salvia urolepis|Salvia verbenaca|Salvia verticillata|Salvia yosgadensis|Samadera indica|Sambucus nigra|Sandoricum koetjape|Sanguisorba alpina|Sanguisorba officinalis|Sanicula epipactis|Santolina chamaecyparissus|Sapium haematospermum|Sapium sebiferum|Saposhnikovia divaricata|Saraca asoca|Sarcococca hookeriana|Sarcophyton buitendijki|Sarcophyton flexuosum|Sarcopyramis nepalensis|Sargentodoxa cuneata|Sarracenia flava|Sasa paniculata|Sassafras officinalis|Satureja cuneifolia|Satureja montana|Sauromatum giganteum|Saussurea controversa|Saussurea cordifolia|Saussurea involucrata|Saussurea lappa|Saussurea medusa|Saussurea parviflora|Saussurea salicifolia|Saxidomus giganteus|Scalesia baurii|Scapania nemorea|Scaphium affine|Schefflera divaricata|Schefflera venulosa|Schisandra arisanensis|Schisandra chinensis|Schizonepeta multifida|Schleichera trijuga|Schnabelia tetradonta|Schnella guianensis|Schultesia guianensis|Schumanniophyton magnificum|Sclerodoris tanya|Scleromitrion diffusum|Scopolia atropoides|Scorzonera cretica|Scorzonera hispanica|Scorzonera pseudodivaricata|Scrophularia buergeriana|Scrophularia koelzii|Scrophularia leucoclada|Scrophularia ningpoensis|Scutellaria amoena|Scutellaria chaematochlora|Scutellaria galericulata|Scutellaria lateriflora|Scytonema ocellatum|Securigera securidaca|Securinega tinctoria|Sedum forsteri|Sedum sarmentosum|Selaginella labordei|Selaginella tamariscina|Selinum carvifolium|Selinum libanotis|Selinum papyraceum|Senecio bonariensis|Senecio cathcartensis|Senecio congestus|Senecio heliopsis|Senecio macrophyllus|Senecio polyodon|Senecio rupestris|Senecio ruwenzoriensis|Senecio scandens|Senecio sinuatus|Senecio zoellneri|Senegalia mellifera|Senegalia polyacantha|Senna alata|Senna auriculata|Senna didymobotrya|Senna sophera|Septoria pistaciarum|Sequoia sempervirens|Serenoa repens|Serenoa sp.|Setosphaeria turcica|Shigella flexneri|Shorea seminis|Sida spinosa|Sidastrum acuminatum|Sideritis brevibracteata|Sideritis condensata|Sideritis dasygnaphala|Sideritis grandiflora|Sideroxylon cubense|Siegesbeckia orientalis|Sigesbeckia glabrescens|Sigesbeckia pubescens|Sigillina signifera|Silene linicola|Simaba orinocensis|Sinapis arvensis|Sindora wallichii|Sinopodophyllum hexandrum|Sinularia capitalis|Sinularia depressa|Sinularia firma|Sinularia inelegans|Sinularia leptoclados|Siparuna apiosyce|Siparuna brasiliensis|Siphocampylus verticillatus|Siphoneugena densiflora|Sipunculus nudus|Smallanthus maculatus|Smenospongia echina|Smilax China|Smilax china|Smilax glabra|Smilax lanceaefolia|Smilax lebrunii|Smilax perfoliata|Smooth hawksbeard|Smythea bombaiensis|Sohnreyia excelsa|Solanderia secunda|Solanum aethiopicum|Solanum americanum|Solanum andigena|Solanum chacoense|Solanum chrysotrichum|Solanum crispum|Solanum diflorum|Solanum euacanthum|Solanum lasiocarpum|Solanum laxum|Solanum melongena|Solanum olgae|Solanum sisymbriifolium|Solanum violaceum|Solanum virginianum|Solidago petiolaris|Sonneratia alba|Sophora alopecuroides|Sophora angustifolia|Sophora japonica|Sophora mollis|Sophora secundiflora|Sophora viciifolia|Sorbus torminalis|Sordaria araneosa|Soroseris hookeriana|Sparganium stoloniferum|Spartina cynosuroides|Spathodea campanulata|Spatholobus suberectus|Sphaerella rubella|Sphaerophysa salsula|Sphagneticola trilobata|Spilanthes acmella|Spilanthes paniculata|Spiracantha cornifolia|Spiraea formosa|Spiraea formosana|Spirographis spallanzani|Spongionella gracilis|Staehelina fruticosa|Stanhopea lietzei|Stellaria dichotoma|Stellaria media|Stellera chamaejasme|Stemodia maritima|Stenocarpella maydis|Stenocereus thurberi|Stenochlaena Palustris|Stenochlaena palustris|Stenolobium stans|Stenostomum acutatum|Stephania sasakii|Stephania sutchuenensis|Stephanitis rhododendri|Stereocaulon leprocauloides|Stevia connata|Stevia maimarensis|Stevia polycephala|Stichopus chloronotus|Stichopus horrens|Stifftia chrysantha|Stiretrus anchorago|Streblus asper|Streptomyces atratus|Streptomyces aurantiacus|Streptomyces avermectinius|Streptomyces bacillaris|Streptomyces caelestis|Streptomyces cavourensis|Streptomyces corchorusii|Streptomyces fradiae|Streptomyces fumanus|Streptomyces gannmycicus|Streptomyces lavendofoliae|Streptomyces lomondensis|Streptomyces luteosporeus|Streptomyces melanogenes|Streptomyces misawanensis|Streptomyces mutabilis|Streptomyces naraensis|Streptomyces odorifer|Streptomyces parvisporogenes|Streptomyces platensis|Streptomyces prunicolor|Streptomyces pseudovenezuelae|Streptomyces purpurogeneiscleroticus|Streptomyces ramocissimus|Streptomyces roseoverticillatus|Strobilanthes yunnanensis|Strongylodesma algoaensis|Strophanthus sarmentosus var. senegambiae|Strychnos amazonica|Strychnos cathayensis|Strychnos elaeocarpa|Strychnos floribunda|Strychnos ledermannii|Strychnos ligustrina|Strychnos spinosa|Strychnos wallichiana|Stypandra imbricata|Styrax agrestis|Styrax hookeri|Styrax japonicus|Suaeda maritima|Subergorgia hicksoni|Suregada lanceolata|Swertia franchetiana|Swertia hickinii|Swertia japonica|Swertia punicea|Symphyocladia latiuscula|Symplocos racemosa|Syncarpia hillii|Syncolostemon parviflorus|Syphonota geographica|Syringa reticulata|Syzygium kurzii|Syzygium sandwicense|Tabernaemontana divaricata|Tabernaemontana laeta|Tachardia acaciae|Tadehagi triquetrum|Tadorna ferruginea|Tagetes erecta|Tanacetum artemisioides|Tanacetum balsamitoides|Tanacetum nubigenum|Tanacetum vulgare|Taonia australasica|Taraxacum campylodes|Taraxacum croceum|Taraxacum formosanum|Taraxacum lapponicum|Taraxacum mongolicum|Taraxacum scariosum|Taraxacum wallichii|Tasmannia lanceolata|Taxus Wallichiana|Taxus drupacea|Taxus wallichiana|Tecoma heptaphylla|Tecoma stans|Tectona grandis|Tephroseris flammea|Tephroseris integrifolia|Tephroseris kirilowii|Tephrosia bracteolata|Tephrosia candida|Tephrosia odorata|Tephrosia pumila|Tephrosia viridiflora|Tephrosia vogelii|Terminalia arjuna|Terminalia chebula|Terminalia glabrescens|Tetracentron sinense|Tetracera asiatica|Tetradium daniellii|Tetradium glabrifolium|Tetraena coccinea|Tetraneuris acaulis|Tetrapanax papyrifer|Teucrium depressum|Teucrium marum|Teucrium orientale|Thalictrum aquilegiifolium|Thalictrum atriplex|Thalictrum simplex|Thalysias juniperina|Thaminophyllum multiflorum|Thelephora aurantiotincta|Thermopsis mollis|Thioalkalivibrio versutus|Thiocystis gelatinosa|Thuja plicata|Thulinella chrysantha|Thymus piperella|Tinospora sinensis|Tithonia longiradiata|Tithonia rotundifolia|Tolpis webbii|Tolypocladium album|Tolypothrix tjipanasensis|Toona ciliata|Toona sinensis|Torenia anagallis|Torreya grandis|Torreya nuncifera|Trachyrhamphus serratus|Trapa bicornis|Trema micrantha|Trema orientale|Triadica sebifera|Trianthema portulacastrum|Tribulus terrestris|Trichia carnea|Trichilia|Trichilia claussenii|Trichilia elegans|Trichilia emetica|Trichilia havanensis|Trichilia rubescens|Trichocolea tomentella|Trichoderma citrinum|Tricholoma batschii|Trichosanthes scabra|Trichosanthes tricuspidata|Trichosurus vulpecula|Triclisia subcordata|Tridax procumbens|Trifolium hybridum|Trifolium resupinatum|Trifolium strepens|Triglochin maritima|Trikentrion flabelliforme|Tripetaleia paniculata|Triplostegia glandulifera|Triplostegia grandiflora|Tripterospermum lanceolatum|Tripterygium hypoglaucum|Tripterygium wilfordii|Triticum sp.|Triumfetta cordifolia|Triunia erythrocarpa|Trollius chinensis|Tsitsikamma favus|Tulipa silvestris|Turbo argyrostoma|Turraea nilotica|Tylophora tanakae|Typha angustifolia|Ulmus davidiana|Ulva prolifera|Umbilicaria cinereorufescens|Uncaria africana|Uncaria florida|Uncaria hirsuta|Uncaria macrophylla|Uncaria rhynchophylla|Uncaria sinensis|Uncaria tomentosa|Ungernia victoris|Unonopsis glaucopetala|Urceola rosea|Urtica dioica|Urtica triangularis|Usnea canariensis|Usnea japonica|Uvaria kirkii|Uvaria lucida|Vaccinium macrocarpon|Vaccinium oxycoccos|Vachellia leucophloea|Vachellia pennatula|Vallaris heynei|Vallaris solanacea|Vatica cinerea|Vellozia streptophylla|Veltheimia viridifolia|Vepris afzelii|Veratrum mengtzeanum|Verbascum songaricum|Verbascum spinosum|Verbascum wiedemannianum|Verbena brasiliensis|Verbena officinalis|Veronica kellereri|Veronica liwanensis|Viburnum betulifolium|Viburnum cylindricum|Viburnum davidii|Viburnum dilatatum|Viburnum furcatum|Viburnum jucundum|Viburnum suspensum|Viburnum urceolatum|Vicia benghalensis|Vigna angularis|Vigna unguiculata|Viguiera decurrens|Viguiera incana|Viguiera pinnatilobata|Vincetoxicum hemsleyanum|Vincetoxicum hirundinaria|Vincetoxicum mongolicum|Viola odorata|Virola michelii|Virola oleifera|Virola sebifera|Virola surinamensis|Viscum album|Viscum coloratum|Vitex Trifolia|Vitex limonifolia|Vitex negundo|Vitex quinata|Vitex rotundifolia|Vitex trifolia|Vitis betulifolia|Vitis ficifolia|Vitis silvestris|Vitis vinifera|Viviparus japonicus|Vladimiria muliensis|Vochysia ferruginea|Vochysia vismiifolia|Walsura tubulata|Warburgia stuhlmannii|Watersipora cucullata|Welsh onion|Wikstroemia lanceolata|Wikstroemia retusa|Wisteria floribunda|Withania coagulans|Withania somnifera|Woodwardia orientalis|Xanthium sibiricum|Xanthium strumarium|Xanthoparmelia pokornyi|Xenoacremonium recifei|Xiphophora gladiata|Xylocarpus Granatum|Xylocarpus granatum|Xylopia aethiopica|Xylopia frutescens|Xyris indica|Zaluzania grayana|Zanthoxylum Armatum|Zanthoxylum acutifolium|Zanthoxylum ailanthoides|Zanthoxylum armatum|Zanthoxylum avicennae|Zanthoxylum beecheyanum|Zanthoxylum bungeanum|Zanthoxylum liebmannianum|Zanthoxylum limoncello|Zanthoxylum monophyllum|Zanthoxylum nitidum|Zanthoxylum piasezkii|Zanthoxylum schreberi|Zanthoxylum tetraspermum|Zebrina pendula|Zeora sordida|Zephyranthes flava|Zieria smithii|Zingiber officinale|Ziziphora tenuior|Ziziphus jujuba|Ziziphus spina-christi|Zygophyllum simplex|Zygosaccharomyces rouxii|[clostridium] cellulolyticum|[polyangium] brachysporum|asparagus|common dandelion|common sunflower|lettuce|moringa|peanut|pomegranate|pomelo|solanum violaceum

>  <collections>  (891) 
ANPDB|Australian natural products|BIOFACQUIM|CMAUP (cCollective molecular activities of useful plants)|ChEBI NPs|ChEMBL NPs|ChemSpider NPs|EMNPD|KNApSaCK|Latin America dataset|NANPDB (Natural Products from Northern African Sources)|NPACT|NPASS|NuBBEDB|Phyto4Health|PhytoLab phyproof® Reference Substances|Super Natural II|TCMDB-Taiwan (Traditional Chinese Medicine database)|TIPdb (database of Taiwan indigenous plants)|VietHerb|WikiData Natural Products|ZINC NP

>  <dois>  (891) 
10.1002/(SICI)1099-1573(1998)12:1+<S138::AID-PTR276>3.0.CO;2-5|10.1002/(SICI)1099-1573(199803)12:2<118::AID-PTR207>3.0.CO;2-U|10.1002/(SICI)1099-1573(199805)12:3<209::AID-PTR215>3.0.CO;2-P|10.1002/1099-1573(200009)14:6<463::AID-PTR611>3.0.CO;2-G|10.1002/ARDP.18511180224|10.1002/ARDP.19893220211|10.1002/CBDV.200800128|10.1002/CHIN.199734227|10.1002/CHIN.199848194|10.1002/CHIN.200303151|10.1002/CHIN.200331207|10.1002/CHIN.200337151|10.1002/CHIN.200338184|10.1002/CHIN.200342212|10.1002/CHIN.200345176|10.1002/CHIN.200345199|10.1002/CHIN.200352191|10.1002/CHIN.200402233|10.1002/CHIN.200406148|10.1002/CHIN.200429169|10.1002/CHIN.200430200|10.1002/CHIN.200434239|10.1002/CHIN.200438214|10.1002/CHIN.200447158|10.1002/CHIN.200502192|10.1002/CHIN.200505221|10.1002/CHIN.200517192|10.1002/CHIN.200517210|10.1002/CHIN.200517223|10.1002/CHIN.200533256|10.1002/CHIN.200537180|10.1002/CHIN.200550175|10.1002/CHIN.200612187|10.1002/CHIN.200624175|10.1002/CHIN.200706168|10.1002/CHIN.200729163|10.1002/CHIN.200948211|10.1002/CJOC.20030210222|10.1002/CJOC.201190024|10.1002/HLCA.200390170|10.1002/HLCA.200390194|10.1002/HLCA.200490183|10.1002/HLCA.200790168|10.1002/HLCA.200800331|10.1002/HLCA.200890050|10.1002/HLCA.200890115|10.1002/HLCA.200890222|10.1002/HLCA.200900201|10.1002/HLCA.200900308|10.1002/HLCA.200900341|10.1002/HLCA.201000164|10.1002/HLCA.201000388|10.1002/HLCA.201100173|10.1002/JCCS.198200006|10.1002/JCCS.198300029|10.1002/JCCS.198400021|10.1002/JCCS.199200061|10.1002/JCCS.199300096|10.1002/JCCS.199400031|10.1002/JCCS.199500073|10.1002/JCCS.199500076|10.1002/JCCS.199500136|10.1002/JCCS.199700056|10.1002/JCCS.199900010|10.1002/JCCS.200000028|10.1002/JCCS.200000050|10.1002/JCCS.200000074|10.1002/JCCS.200000124|10.1002/JCCS.200100154|10.1002/JCCS.200100177|10.1002/JCCS.200200019|10.1002/JCCS.200200020|10.1002/JCCS.200200022|10.1002/JCCS.200200040|10.1002/JCCS.200200042|10.1002/JCCS.200200066|10.1002/JCCS.200200146|10.1002/JCCS.200400131|10.1002/JCCS.200700064|10.1002/JCCS.200800190|10.1002/JHRC.1240090210|10.1002/JPS.2600551210|10.1002/JPS.2600641019|10.1002/JPS.3080230508|10.1002/MRC.1236|10.1002/MRC.1550|10.1002/MRC.855|10.1002/NT.2620010104|10.1002/PCA.656|10.1002/PTR.1111|10.1002/PTR.1166|10.1002/PTR.2650030513|10.1002/PTR.2894|10.1002/PTR.3187|10.1002/PTR.865|10.1002/PTR.910|10.1007/978-3-642-71425-2_1|10.1007/978-3-7091-1084-3_4|10.1007/BF00566595|10.1007/BF00573546|10.1007/BF00574606|10.1007/BF00574643|10.1007/BF00579060|10.1007/BF00581591|10.1007/BF00596642|10.1007/BF00597595|10.1007/BF00598098|10.1007/BF00598207|10.1007/BF00598265|10.1007/BF00598606|10.1007/BF00599280|10.1007/BF00600861|10.1007/BF00601301|10.1007/BF00630174|10.1007/BF00630230|10.1007/BF00630318|10.1007/BF00630340|10.1007/BF00630363|10.1007/BF00630450|10.1007/BF00631025|10.1007/BF00633412|10.1007/BF00636560|10.1007/BF01164901|10.1007/BF01374037|10.1007/BF02114110|10.1007/BF02236422|10.1007/BF02249650|10.1007/BF02282421|10.1007/BF02282514|10.1007/BF02329601|10.1007/BF02709296|10.1007/BF02858178|10.1007/BF02968244|10.1007/BF02975159|10.1007/BF02975884|10.1007/BF02976956|10.1007/BF02976999|10.1007/BF03036855|10.1007/BF03036856|10.1007/BFB0119198|10.1007/S00044-004-0041-7|10.1007/S00284-018-1517-X|10.1007/S10600-005-0108-9|10.1007/S10600-005-0133-8|10.1007/S10600-005-0207-7|10.1007/S10600-006-0193-4|10.1007/S10600-006-0229-9|10.1007/S10600-007-0133-Y|10.1007/S10600-007-0134-X|10.1007/S10600-007-0152-8|10.1007/S10600-007-0206-Y|10.1007/S10600-007-0232-9|10.1007/S10600-008-9052-9|10.1007/S10600-008-9111-2|10.1007/S10600-008-9127-7|10.1007/S10600-009-9290-5|10.1007/S10600-009-9329-7|10.1007/S10600-009-9377-Z|10.1007/S10600-009-9387-X|10.1007/S10600-009-9408-9|10.1007/S10600-009-9451-6|10.1007/S10600-010-9462-3|10.1007/S10600-010-9477-9|10.1007/S10600-010-9512-X|10.1007/S10600-010-9591-8|10.1007/S10600-010-9595-4|10.1007/S10600-010-9598-1|10.1007/S10600-010-9599-0|10.1007/S10600-010-9645-Y|10.1007/S10600-010-9673-7|10.1007/S10600-010-9742-Y|10.1007/S10600-011-0023-1|10.1007/S10600-011-0083-2|10.1007/S10600-011-9772-0|10.1007/S10600-011-9794-7|10.1007/S10600-011-9810-Y|10.1007/S10600-011-9905-5|10.1007/S10600-011-9914-4|10.1007/S10600-011-9920-6|10.1007/S10600-012-0126-3|10.1007/S10600-012-0138-Z|10.1007/S10600-012-0286-1|10.1007/S10600-012-0426-7|10.1007/S10600-013-0630-0|10.1007/S10600-013-0733-7|10.1007/S10600-014-0947-3|10.1007/S10600-014-1015-8|10.1007/S10600-014-1130-6|10.1007/S10600-014-1132-4|10.1007/S10600-014-1163-X|10.1007/S10600-015-1235-6|10.1007/S10600-015-1519-X|10.1007/S10600-017-1933-3|10.1007/S10600-017-2003-6|10.1007/S10600-017-2240-8|10.1007/S10600-018-2437-5|10.1007/S10600-018-2544-3|10.1007/S10600-019-02696-6|10.1007/S11094-015-1200-5|10.1007/S11101-023-09858-Z|10.1007/S11418-007-0202-3|10.1007/S11418-008-0256-X|10.1007/S11745-004-1328-X|10.1007/S11745-005-1388-Y|10.1007/S11746-000-0107-4|10.1007/S11746-010-1584-Z|10.1007/S11746-011-1770-7|10.1007/S12272-009-1510-9|10.1007/S12272-010-0610-X|10.1007/S12272-010-0903-0|10.1007/S12272-011-0305-Y|10.1007/S13659-014-0041-3|10.1007/SPRINGERREFERENCE_68783|10.1007/SPRINGERREFERENCE_68851|10.1007/s11745-005-1388-y|10.1016/0031-6865(96)00010-6|10.1016/0031-9422(73)80027-5|10.1016/0031-9422(73)80048-2|10.1016/0031-9422(74)85034-X|10.1016/0031-9422(74)85048-X|10.1016/0031-9422(75)85386-6|10.1016/0031-9422(80)80223-8|10.1016/0031-9422(80)83035-4|10.1016/0031-9422(80)85126-0|10.1016/0031-9422(81)83035-X|10.1016/0031-9422(81)85287-9|10.1016/0031-9422(82)83046-X|10.1016/0031-9422(82)83183-X|10.1016/0031-9422(82)83196-8|10.1016/0031-9422(82)83199-3|10.1016/0031-9422(82)85225-4|10.1016/0031-9422(83)80160-5|10.1016/0031-9422(83)80162-9|10.1016/0031-9422(83)80163-0|10.1016/0031-9422(83)80245-3|10.1016/0031-9422(83)83036-2|10.1016/0031-9422(83)83073-8|10.1016/0031-9422(83)85044-4|10.1016/0031-9422(84)83092-7|10.1016/0031-9422(84)83094-0|10.1016/0031-9422(84)83095-2|10.1016/0031-9422(86)80035-8|10.1016/0031-9422(86)88039-6|10.1016/0031-9422(88)80057-8|10.1016/0031-9422(88)80058-X|10.1016/0031-9422(88)80455-2|10.1016/0031-9422(88)80771-4|10.1016/0031-9422(88)80785-4|10.1016/0031-9422(88)83017-6|10.1016/0031-9422(88)83055-3|10.1016/0031-9422(88)83133-9|10.1016/0031-9422(88)84116-5|10.1016/0031-9422(89)80054-8|10.1016/0031-9422(89)80227-4|10.1016/0031-9422(90)80042-F|10.1016/0031-9422(90)83068-C|10.1016/0031-9422(90)83073-A|10.1016/0031-9422(90)85114-U|10.1016/0031-9422(90)85270-P|10.1016/0031-9422(90)85365-M|10.1016/0031-9422(90)85371-L|10.1016/0031-9422(90)85376-Q|10.1016/0031-9422(90)87120-J|10.1016/0031-9422(90)89069-L|10.1016/0031-9422(90)89077-M|10.1016/0031-9422(91)80015-S|10.1016/0031-9422(91)80032-V|10.1016/0031-9422(91)83058-S|10.1016/0031-9422(91)83067-U|10.1016/0031-9422(91)83214-6|10.1016/0031-9422(91)83502-C|10.1016/0031-9422(91)83503-D|10.1016/0031-9422(91)83509-J|10.1016/0031-9422(91)83648-5|10.1016/0031-9422(91)83669-C|10.1016/0031-9422(91)83765-D|10.1016/0031-9422(91)85047-4|10.1016/0031-9422(91)85053-3|10.1016/0031-9422(91)85150-X|10.1016/0031-9422(91)85303-H|10.1016/0031-9422(92)80123-V|10.1016/0031-9422(92)80125-X|10.1016/0031-9422(92)80185-H|10.1016/0031-9422(92)80189-L|10.1016/0031-9422(92)80219-5|10.1016/0031-9422(92)80279-N|10.1016/0031-9422(92)80300-4|10.1016/0031-9422(92)80313-4|10.1016/0031-9422(92)80371-K|10.1016/0031-9422(92)80448-N|10.1016/0031-9422(92)80452-K|10.1016/0031-9422(92)80499-5|10.1016/0031-9422(92)83301-E|10.1016/0031-9422(92)83503-Q|10.1016/0031-9422(92)83667-N|10.1016/0031-9422(92)83727-G|10.1016/0031-9422(93)80051-S|10.1016/0031-9422(93)85036-Q|10.1016/0031-9422(93)85048-V|10.1016/0031-9422(93)85192-T|10.1016/0031-9422(93)85192-t|10.1016/0031-9422(93)85359-Y|10.1016/0031-9422(93)85547-5|10.1016/0031-9422(93)85552-3|10.1016/0031-9422(94)00574-D|10.1016/0031-9422(94)00603-Q|10.1016/0031-9422(94)00675-J|10.1016/0031-9422(94)00737-E|10.1016/0031-9422(94)00823-C|10.1016/0031-9422(94)00901-5|10.1016/0031-9422(94)00935-M|10.1016/0031-9422(94)00950-X|10.1016/0031-9422(94)00965-V|10.1016/0031-9422(95)00093-3|10.1016/0031-9422(95)00248-6|10.1016/0031-9422(95)00361-A|10.1016/0031-9422(95)00370-M|10.1016/0031-9422(95)00397-P|10.1016/0031-9422(95)00427-9|10.1016/0031-9422(95)00599-4|10.1016/0031-9422(95)00648-6|10.1016/0031-9422(95)00671-0|10.1016/0031-9422(95)00877-2|10.1016/0031-9422(95)00878-0|10.1016/0031-9422(95)00942-6|10.1016/0031-9422(96)00071-4|10.1016/0031-9422(96)00149-5|10.1016/0031-9422(96)00325-1|10.1016/0049-3848(90)90162-6|10.1016/0378-8741(85)90026-1|10.1016/0378-8741(86)90109-1|10.1016/0378-8741(88)90058-X|10.1016/0378-8741(91)90160-F|10.1016/0378-8741(93)90010-3|10.1016/B978-0-12-812491-8.00030-8|10.1016/J.BMC.2003.10.031|10.1016/J.BMC.2003.11.017|10.1016/J.BMC.2005.07.050|10.1016/J.BMC.2006.08.012|10.1016/J.BMC.2008.09.023|10.1016/J.BMC.2010.01.046|10.1016/J.BMC.2011.03.055|10.1016/J.BMCL.2005.07.020|10.1016/J.BMCL.2010.01.096|10.1016/J.BMCL.2010.10.058|10.1016/J.BMCL.2010.12.025|10.1016/J.BMCL.2011.09.129|10.1016/J.BSE.2003.10.008|10.1016/J.BSE.2005.07.017|10.1016/J.BSE.2005.10.018|10.1016/J.BSE.2013.03.002|10.1016/J.BSE.2014.12.019|10.1016/J.BSE.2016.07.005|10.1016/J.BSE.2020.104014|10.1016/J.CCLET.2009.02.006|10.1016/J.CCLET.2009.08.006|10.1016/J.FCT.2004.01.008|10.1016/J.FITOTE.2004.03.009|10.1016/J.FITOTE.2004.04.012|10.1016/J.FITOTE.2004.09.018|10.1016/J.FITOTE.2006.06.011|10.1016/J.FITOTE.2007.01.001|10.1016/J.FITOTE.2009.06.001|10.1016/J.FITOTE.2009.11.003|10.1016/J.FITOTE.2010.03.019|10.1016/J.FITOTE.2010.05.008|10.1016/J.FITOTE.2010.05.012|10.1016/J.FITOTE.2010.05.013|10.1016/J.FITOTE.2012.12.001|10.1016/J.FITOTE.2013.01.008|10.1016/J.FITOTE.2014.01.007|10.1016/J.FOODCHEM.2009.04.098|10.1016/J.JEP.2005.01.029|10.1016/J.PHYMED.2010.03.004|10.1016/J.PHYTOCHEM.2003.10.021|10.1016/J.PHYTOCHEM.2003.10.028|10.1016/J.PHYTOCHEM.2004.05.014|10.1016/J.PHYTOCHEM.2004.07.007|10.1016/J.PHYTOCHEM.2004.08.007|10.1016/J.PHYTOCHEM.2004.10.016|10.1016/J.PHYTOCHEM.2004.12.012|10.1016/J.PHYTOCHEM.2005.02.027|10.1016/J.PHYTOCHEM.2005.03.020|10.1016/J.PHYTOCHEM.2005.03.028|10.1016/J.PHYTOCHEM.2005.04.001|10.1016/J.PHYTOCHEM.2005.05.019|10.1016/J.PHYTOCHEM.2005.07.002|10.1016/J.PHYTOCHEM.2005.12.019|10.1016/J.PHYTOCHEM.2006.04.012|10.1016/J.PHYTOCHEM.2006.05.002|10.1016/J.PHYTOCHEM.2006.10.026|10.1016/J.PHYTOCHEM.2007.10.024|10.1016/J.PHYTOCHEM.2007.11.019|10.1016/J.PHYTOCHEM.2009.02.006|10.1016/J.PHYTOCHEM.2009.04.024|10.1016/J.PHYTOCHEM.2009.10.013|10.1016/J.PHYTOCHEM.2009.12.016|10.1016/J.PHYTOCHEM.2010.08.006|10.1016/J.PHYTOCHEM.2010.09.014|10.1016/J.PHYTOCHEM.2011.01.018|10.1016/J.PHYTOCHEM.2011.07.007|10.1016/J.PHYTOL.2010.10.002|10.1016/J.PHYTOL.2011.02.011|10.1016/J.PHYTOL.2011.05.002|10.1016/J.PHYTOL.2011.06.004|10.1016/J.PHYTOL.2014.09.011|10.1016/J.STEROIDS.2005.09.007|10.1016/J.TET.2003.08.029|10.1016/J.TET.2010.01.016|10.1016/J.TETLET.2008.07.056|10.1016/J.TETLET.2010.11.040|10.1016/S0031-9422(00)00035-2|10.1016/S0031-9422(00)00058-3|10.1016/S0031-9422(00)00131-X|10.1016/S0031-9422(00)00215-6|10.1016/S0031-9422(00)00222-3|10.1016/S0031-9422(00)00283-1|10.1016/S0031-9422(00)00486-6|10.1016/S0031-9422(00)80098-9|10.1016/S0031-9422(00)80395-7|10.1016/S0031-9422(00)80539-7|10.1016/S0031-9422(00)80571-3|10.1016/S0031-9422(00)80792-X|10.1016/S0031-9422(00)81125-5|10.1016/S0031-9422(00)81143-7|10.1016/S0031-9422(00)81196-6|10.1016/S0031-9422(00)81428-4|10.1016/S0031-9422(00)81509-5|10.1016/S0031-9422(00)81835-X|10.1016/S0031-9422(00)81857-9|10.1016/S0031-9422(00)82392-4|10.1016/S0031-9422(00)82510-8|10.1016/S0031-9422(00)82511-X|10.1016/S0031-9422(00)83190-8|10.1016/S0031-9422(00)83594-3|10.1016/S0031-9422(00)83606-7|10.1016/S0031-9422(00)83845-5|10.1016/S0031-9422(00)84039-X|10.1016/S0031-9422(00)84103-5|10.1016/S0031-9422(00)84778-0|10.1016/S0031-9422(00)84913-4|10.1016/S0031-9422(00)84953-5|10.1016/S0031-9422(00)84956-0|10.1016/S0031-9422(00)85505-3|10.1016/S0031-9422(00)85509-0|10.1016/S0031-9422(00)86992-7|10.1016/S0031-9422(00)89540-0|10.1016/S0031-9422(00)89728-9|10.1016/S0031-9422(00)89799-X|10.1016/S0031-9422(00)90410-2|10.1016/S0031-9422(00)90468-0|10.1016/S0031-9422(00)90478-3|10.1016/S0031-9422(00)90529-6|10.1016/S0031-9422(00)90599-5|10.1016/S0031-9422(00)90843-4|10.1016/S0031-9422(00)90897-5|10.1016/S0031-9422(00)94708-3|10.1016/S0031-9422(00)95009-X|10.1016/S0031-9422(00)95013-1|10.1016/S0031-9422(00)95020-9|10.1016/S0031-9422(00)95166-5|10.1016/S0031-9422(00)97041-9|10.1016/S0031-9422(00)97886-5|10.1016/S0031-9422(00)97990-1|10.1016/S0031-9422(00)98097-X|10.1016/S0031-9422(01)00043-7|10.1016/S0031-9422(01)00066-8|10.1016/S0031-9422(01)00176-5|10.1016/S0031-9422(01)00180-7|10.1016/S0031-9422(01)00345-4|10.1016/S0031-9422(01)00389-2|10.1016/S0031-9422(01)00414-9|10.1016/S0031-9422(01)00483-6|10.1016/S0031-9422(02)00023-7|10.1016/S0031-9422(02)00190-5|10.1016/S0031-9422(02)00243-1|10.1016/S0031-9422(02)00283-2|10.1016/S0031-9422(02)00385-0|10.1016/S0031-9422(02)00758-6|10.1016/S0031-9422(03)00021-9|10.1016/S0031-9422(03)00075-X|10.1016/S0031-9422(03)00183-3|10.1016/S0031-9422(03)00190-0|10.1016/S0031-9422(03)00342-X|10.1016/S0031-9422(82)85045-0|10.1016/S0031-9422(96)00560-2|10.1016/S0031-9422(96)00634-6|10.1016/S0031-9422(96)00644-9|10.1016/S0031-9422(96)00652-8|10.1016/S0031-9422(96)00655-3|10.1016/S0031-9422(96)00680-2|10.1016/S0031-9422(96)00737-6|10.1016/S0031-9422(96)00843-6|10.1016/S0031-9422(97)00036-8|10.1016/S0031-9422(97)00097-6|10.1016/S0031-9422(97)00114-3|10.1016/S0031-9422(97)00150-7|10.1016/S0031-9422(97)00167-2|10.1016/S0031-9422(97)00225-2|10.1016/S0031-9422(97)00313-0|10.1016/S0031-9422(97)00493-7|10.1016/S0031-9422(97)00690-0|10.1016/S0031-9422(97)00698-5|10.1016/S0031-9422(97)00746-2|10.1016/S0031-9422(97)00872-8|10.1016/S0031-9422(97)00889-3|10.1016/S0031-9422(97)01057-1|10.1016/S0031-9422(97)80032-5|10.1016/S0031-9422(98)00017-X|10.1016/S0031-9422(98)00067-3|10.1016/S0031-9422(98)00223-4|10.1016/S0031-9422(98)00234-9|10.1016/S0031-9422(98)00352-5|10.1016/S0031-9422(98)00354-9|10.1016/S0031-9422(98)00379-3|10.1016/S0031-9422(98)00383-5|10.1016/S0031-9422(98)00483-X|10.1016/S0031-9422(98)00673-6|10.1016/S0031-9422(98)00731-6|10.1016/S0031-9422(98)00739-0|10.1016/S0031-9422(99)00054-0|10.1016/S0031-9422(99)00074-6|10.1016/S0031-9422(99)00192-2|10.1016/S0031-9422(99)00311-8|10.1016/S0031-9422(99)00338-6|10.1016/S0031-9422(99)00390-8|10.1016/S0031-9422(99)00457-4|10.1016/S0031-9422(99)00568-3|10.1016/S0031-9422(99)00578-6|10.1016/S0040-4020(01)81308-9|10.1016/S0040-4039(97)10404-X|10.1016/S0041-0101(97)00032-9|10.1016/S0140-6736(01)46204-0|10.1016/S0305-1978(00)00063-6|10.1016/S0305-1978(01)00055-2|10.1016/S0305-1978(01)00096-5|10.1016/S0305-1978(01)00130-2|10.1016/S0305-1978(02)00038-8|10.1016/S0305-1978(02)00055-8|10.1016/S0305-1978(02)00086-8|10.1016/S0305-1978(02)00159-X|10.1016/S0305-1978(02)00168-0|10.1016/S0305-1978(03)00134-0|10.1016/S0305-1978(97)00080-X|10.1016/S0305-1978(99)00081-2|10.1016/S0367-326X(00)00223-9|10.1016/S0367-326X(00)00246-X|10.1016/S0367-326X(00)00297-5|10.1016/S0367-326X(00)00316-6|10.1016/S0367-326X(01)00290-8|10.1016/S0367-326X(01)00315-X|10.1016/S0367-326X(01)00317-3|10.1016/S0367-326X(01)00342-2|10.1016/S0367-326X(01)00370-7|10.1016/S0367-326X(02)00074-6|10.1016/S0367-326X(03)00056-X|10.1016/S0367-326X(03)00107-2|10.1016/S0367-326X(98)00032-X|10.1016/S0367-326X(99)00010-6|10.1016/S0367-326X(99)00108-2|10.1016/S0367-326X(99)00109-4|10.1016/S0367-326X(99)00165-3|10.1016/S0378-8741(01)00352-X|10.1016/S0378-8741(01)00414-7|10.1016/S0378-8741(97)00039-1|10.1016/S0378-8741(99)00159-2|10.1016/S0928-3420(99)80040-8|10.1016/S0968-0896(02)00470-4|10.1016/S1001-0742(14)60648-3|10.1016/S1383-5718(99)00025-X|10.1016/j.bmcl.2010.01.096|10.1016/j.bmcl.2010.12.025|10.1016/j.bmcl.2017.03.095|10.1016/j.bse.2005.10.018|10.1016/j.jep.2015.08.039|10.1016/s0031-9422(98)00673-6|10.1016/s0031-9422(99)00338-6|10.1016/s0305-1978(03)00134-0|10.1021/ACS.JNATPROD.5B01035|10.1021/JF001192K|10.1021/JF020262F|10.1021/JF025651O|10.1021/JF040017R|10.1021/JF0483117|10.1021/JF052812Q|10.1021/JF060251C|10.1021/JF061058L|10.1021/JO00298A026|10.1021/NP000486X|10.1021/NP000493L|10.1021/NP000496Y|10.1021/NP0005560|10.1021/NP010042G|10.1021/NP010073B|10.1021/NP010091T|10.1021/NP010236W|10.1021/NP0103665|10.1021/NP010419I|10.1021/NP020233Z|10.1021/NP020261H|10.1021/NP0203739|10.1021/NP020379Y|10.1021/NP020390Y|10.1021/NP0205957|10.1021/NP030015L|10.1021/NP030241V|10.1021/NP030241V.S001|10.1021/NP030278F|10.1021/NP0303411|10.1021/NP0304417|10.1021/NP0304417.S001|10.1021/NP030479J|10.1021/NP030479J.S001|10.1021/NP030531B|10.1021/NP034041V|10.1021/NP040041Z|10.1021/NP040187Y|10.1021/NP0495985|10.1021/NP0495985.S001|10.1021/NP0496688|10.1021/NP0496845|10.1021/NP0497548|10.1021/NP049783I|10.1021/NP049783I.S001|10.1021/NP0498051|10.1021/NP0498612|10.1021/NP0499158|10.1021/NP050021C|10.1021/NP0500272|10.1021/NP050313D|10.1021/NP050545C|10.1021/NP0580210|10.1021/NP060107L|10.1021/NP060166Z|10.1021/NP060217S|10.1021/NP060284M|10.1021/NP0604073|10.1021/NP060425K|10.1021/NP070113X|10.1021/NP070564H|10.1021/NP100127K|10.1021/NP1002516|10.1021/NP100440P|10.1021/NP100531X|10.1021/NP100566V|10.1021/NP100851S|10.1021/NP100896W|10.1021/NP200051J|10.1021/NP2000914|10.1021/NP2002918|10.1021/NP200646E|10.1021/NP200877U|10.1021/NP50008A007|10.1021/NP50010A008|10.1021/NP50013A022|10.1021/NP50015A025|10.1021/NP50024A017|10.1021/NP50025A012|10.1021/NP50025A017|10.1021/NP50026A015|10.1021/NP50028A035|10.1021/NP50034A043|10.1021/NP50035A032|10.1021/NP50036A047|10.1021/NP50037A025|10.1021/NP50040A042|10.1021/NP50042A023|10.1021/NP50042A030|10.1021/NP50044A005|10.1021/NP50044A033|10.1021/NP50045A034|10.1021/NP50045A036|10.1021/NP50046A026|10.1021/NP50046A034|10.1021/NP50047A034|10.1021/NP50050A045|10.1021/NP50050A048|10.1021/NP50051A003|10.1021/NP50052A040|10.1021/NP50053A018|10.1021/NP50055A017|10.1021/NP50055A035|10.1021/NP50057A012|10.1021/NP50057A037|10.1021/NP50058A010|10.1021/NP50060A034|10.1021/NP50062A032|10.1021/NP50064A028|10.1021/NP50068A032|10.1021/NP50071A041|10.1021/NP50072A006|10.1021/NP50075A023|10.1021/NP50077A010|10.1021/NP50078A023|10.1021/NP50080A002|10.1021/NP50080A018|10.1021/NP50081A004|10.1021/NP50088A010|10.1021/NP50088A012|10.1021/NP50091A003|10.1021/NP50096A031|10.1021/NP50101A026|10.1021/NP50104A020|10.1021/NP50114A003|10.1021/NP50116A023|10.1021/NP50117A014|10.1021/NP50121A013|10.1021/NP900068T|10.1021/NP9001724|10.1021/NP900225P|10.1021/NP900341F|10.1021/NP960134J|10.1021/NP960412E|10.1021/NP960452I|10.1021/NP9701687|10.1021/NP970302N|10.1021/NP970369A|10.1021/NP980224J|10.1021/NP980543A|10.1021/NP990009I|10.1021/NP9902340|10.1021/NP990495+|10.1021/NP990523O|10.1021/NP990548N|10.1021/NP990581+|10.1021/NP9905923|10.1021/np000496y|10.1021/np010222q|10.1021/np030531b|10.1021/np0495985|10.1021/np060284m|10.1021/np100440p|10.1021/np100487j|10.1021/np100531x|10.1021/np100566v|10.1021/np100851s|10.1021/np100896w|10.1021/np200051j|10.1021/np2000914|10.1021/np2002918|10.1021/np200646e|10.1021/np200877u|10.1021/np3007638|10.1021/np50057a037|10.1021/np900068t|10.1021/np9902340|10.1038/192288B0|10.1039/9781847555649-00238|10.1039/C39940000773|10.1039/J39670000329|10.1039/P19750001370|10.1039/P19810002405|10.1039/P19830001333|10.1055/S-0028-1097463|10.1055/S-0028-1097546|10.1055/S-0028-1097592|10.1055/S-0028-1099934|10.1055/S-0029-1240611|10.1055/S-0029-1243132|10.1055/S-0031-1273569|10.1055/S-0036-1578747|10.1055/S-1999-13965|10.1055/S-1999-14052|10.1055/S-2000-8544|10.1055/S-2000-8607|10.1055/S-2000-8632|10.1055/S-2000-8654|10.1055/S-2000-9901|10.1055/S-2001-15823|10.1055/S-2001-16480|10.1055/S-2001-17357|10.1055/S-2001-18840|10.1055/S-2002-26750|10.1055/S-2002-32899|10.1055/S-2002-34408|10.1055/S-2003-39705|10.1055/S-2003-41115|10.1055/S-2003-41120|10.1055/S-2003-41123|10.1055/S-2003-42796|10.1055/S-2004-815540|10.1055/S-2004-827159|10.1055/S-2004-835858|10.1055/S-2005-873171|10.1055/S-2005-873178|10.1055/S-2006-957356|10.1055/S-2006-957431|10.1055/S-2006-957718|10.1055/S-2006-957741|10.1055/S-2006-957773|10.1055/S-2006-957780|10.1055/S-2006-957841|10.1055/S-2006-957858|10.1055/S-2006-958035|10.1055/S-2006-958064|10.1055/S-2006-959380|10.1055/S-2006-959556|10.1055/S-2006-959567|10.1055/S-2006-959704|10.1055/S-2006-959766|10.1055/S-2006-960030|10.1055/S-2006-960835|10.1055/S-2006-960854|10.1055/S-2006-960911|10.1055/S-2006-960977|10.1055/S-2006-961492|10.1055/S-2006-961513|10.1055/S-2006-961663|10.1055/S-2006-961993|10.1055/S-2006-962517|10.1055/S-2006-962793|10.1055/S-2007-967103|10.1055/S-2007-967166|10.1055/S-2007-969308|10.1055/S-2007-969511|10.1055/S-2007-969559|10.1055/S-2007-969764|10.1055/S-2007-969783|10.1055/S-2007-971248|10.1055/S-2007-971441|10.1055/S-2007-971500|10.1055/S-2007-981619|10.1055/S-2007-993781|10.1055/S-2008-1074990|10.1055/S-2009-1216479|10.1071/CH00100|10.1071/CH02151|10.1071/CH9750081|10.1071/CH9761351|10.1071/ch9750081|10.1076/PHBI.35.1.49.13273|10.1076/PHBI.35.2.121.13280|10.1076/PHBI.35.2.141.13285|10.1076/PHBI.39.3.202.5930|10.1076/PHBI.40.2.96.5848|10.1076/PHBI.41.2.92.14245|10.1076/PHBI.41.5.375.15938|10.1078/094471102321621386|10.1078/094471102321621395|10.1080/00387019909350045|10.1080/10.575630290015736|10.1080/10286020.2010.485933|10.1080/10286020.2010.546355|10.1080/10286020.2011.619183|10.1080/10286020.2011.641535|10.1080/10286020008039908|10.1080/1028602021000049087|10.1080/10286020290027443|10.1080/10286020290028992|10.1080/1028602031000066843|10.1080/1028602031000105830|10.1080/1028602031000105867|10.1080/1028602031000147393|10.1080/10286020310001608958|10.1080/10286020310001625076|10.1080/1028602042000204081|10.1080/1028602042000324826|10.1080/1028602042000325591|10.1080/10286020600782454|10.1080/10286020903482810|10.1080/10286021003730330|10.1080/10286029808039845|10.1080/10575630108041297|10.1080/10575630290033097|10.1080/10575630290033169|10.1080/10575630290034302|10.1080/10575639508043204|10.1080/10575639608043576|10.1080/13880200590928753|10.1080/14786410310001620538|10.1080/14786410802214009|10.1080/14786410802253197|10.1080/14786410802696247|10.1080/14786410902757899|10.1080/14786410902833948|10.1080/14786410902951088|10.1080/14786410903040402|10.1080/14786410903387688|10.1080/14786411003754223|10.1080/14786419.2010.534735|10.1080/14786419.2010.539182|10.1080/14786419.2010.541879|10.1086/326342|10.1111/J.1365-2621.1953.TB17705.X|10.1111/J.1744-7909.2005.00060.X|10.1111/J.1744-7909.2005.00127.X|10.1111/J.1744-7909.2006.00279.X|10.1135/CCCC19842661|10.1139/V06-164|10.1139/V87-023|10.1201/9781420023305-8|10.1211/0022357001773607|10.1211/0022357001773904|10.1246/BCSJ.57.2484|10.1246/NIKKASHI.1985.799|10.1246/NIKKASHI.1992.423|10.1246/NIKKASHI.1994.493|10.1248/BPB.23.1328|10.1248/BPB.23.660|10.1248/BPB.28.1103|10.1248/BPB.28.173|10.1248/BPB.29.834|10.1248/BPB.33.316|10.1248/CPB.16.326|10.1248/CPB.18.1276|10.1248/CPB.26.1666|10.1248/CPB.31.3486|10.1248/CPB.32.1729|10.1248/CPB.32.325|10.1248/CPB.32.3994|10.1248/CPB.33.3324|10.1248/CPB.33.3473|10.1248/CPB.33.4701|10.1248/CPB.34.726|10.1248/CPB.35.1610|10.1248/CPB.35.229|10.1248/CPB.35.3292|10.1248/CPB.36.1180|10.1248/CPB.36.2430|10.1248/CPB.36.578|10.1248/CPB.36.807|10.1248/CPB.37.1300|10.1248/CPB.37.2431|10.1248/CPB.37.3214|10.1248/CPB.38.1931|10.1248/CPB.38.2281|10.1248/CPB.38.2498|10.1248/CPB.39.1310|10.1248/CPB.39.2440|10.1248/CPB.40.2230|10.1248/CPB.40.3133|10.1248/CPB.41.1238|10.1248/CPB.41.1612|10.1248/CPB.41.2007|10.1248/CPB.41.2010|10.1248/CPB.41.926|10.1248/CPB.43.703|10.1248/CPB.44.429|10.1248/CPB.44.492|10.1248/CPB.46.107|10.1248/CPB.46.1624|10.1248/CPB.46.1647|10.1248/CPB.47.1152|10.1248/CPB.47.141|10.1248/CPB.47.1448|10.1248/CPB.47.1618|10.1248/CPB.47.375|10.1248/CPB.47.571|10.1248/CPB.47.887|10.1248/CPB.48.1114|10.1248/CPB.48.357|10.1248/CPB.49.1226|10.1248/CPB.49.151|10.1248/CPB.50.1124|10.1248/CPB.50.645|10.1248/CPB.51.599|10.1248/CPB.51.885|10.1248/CPB.52.1227|10.1248/CPB.52.1265|10.1248/CPB.52.1349|10.1248/CPB.53.1335|10.1248/CPB.53.1338|10.1248/CPB.53.1355|10.1248/CPB.53.56|10.1248/CPB.53.616|10.1248/CPB.53.701|10.1248/CPB.53.836|10.1248/CPB.54.1223|10.1248/CPB.54.1421|10.1248/CPB.55.1258|10.1248/CPB.55.1402|10.1248/CPB.55.1677|10.1248/CPB.55.1744|10.1248/CPB.55.308|10.1248/CPB.56.203|10.1248/CPB.56.213|10.1248/CPB.56.97|10.1248/CPB.57.1|10.1248/CPB.57.1119|10.1248/CPB.57.1227|10.1248/CPB.57.245|10.1248/CPB.57.283|10.1248/CPB.57.620|10.1248/CPB.59.1425|10.1248/CPB.59.725|10.1248/YAKUSHI.122.291|10.1248/YAKUSHI1947.103.3_360|10.1248/YAKUSHI1947.103.6_612|10.1248/YAKUSHI1947.103.9_997|10.1248/YAKUSHI1947.104.2_157|10.1248/YAKUSHI1947.104.4_390|10.1248/YAKUSHI1947.105.5_442|10.1248/YAKUSHI1947.105.6_542|10.1248/YAKUSHI1947.107.1_23|10.1248/YAKUSHI1947.108.7_647|10.1248/YAKUSHI1947.109.3_175|10.1248/YAKUSHI1947.110.5_354|10.1248/YAKUSHI1947.85.5_469|10.1248/YAKUSHI1947.87.9_1153|10.1248/YAKUSHI1947.94.10_1349|10.1248/YAKUSHI1947.94.12_1634|10.1262/JRD.49.175|10.1271/BBB.67.2477|10.1271/BBB.69.1763|10.14232/FGYKF.2018.A2|10.14233/AJCHEM.2014.16935|10.14264/UQL.2014.538|10.14271/DMS-19177-DE|10.1515/ZNB-2004-0316|10.1515/ZNB-2005-1214|10.1515/ZNB-2006-0910|10.1515/ZNB-2007-0917|10.1515/ZNB-2008-0317|10.1515/ZNB-2010-1117|10.1515/ZNB-2011-0610|10.1515/ZNC-2000-7-802|10.1515/ZNC-2000-9-1029|10.1515/ZNC-2002-1-214|10.1515/ZNC-2002-7-808|10.1515/ZNC-2003-9-1014|10.1515/ZNC-2017-0140|10.15228/2012.V02.I01.P04|10.1590/S0100-40421999000200006|10.1590/S0100-40422001000100006|10.1590/S0100-40422010001000014|10.1590/S0100-46702002000100009|10.1590/S0102-695X2008000100002|10.1590/S0102-695X2009000600004|10.1590/S0103-50532000000300007|10.1590/S0103-50532001000300008|10.1590/S0103-50532001000400004|10.1590/S0103-50532001000400019|10.1590/S0103-50532001000600016|10.1590/S0103-50532002000100020|10.1590/S0103-50532002000200023|10.1590/S0103-50532003000300021|10.1590/S0103-50532006000200010|10.1590/S0103-50532012000300015|10.21608/BFSA.1993.70202|10.21608/BFSA.2000.66323|10.21608/BFSA.2000.66324|10.21608/BFSA.2000.66325|10.21608/BFSA.2002.65703|10.21608/bfsa.2006.65200|10.2174/2210289201304010153|10.21779/2542-0321-2016-31-2-51-53|10.2307/3242378|10.26510/2394-0859.PBE.2017.07|10.3109/13880208509069005|10.3109/13880209009082796|10.3109/13880209309082916|10.3109/13880209409083017|10.3109/13880209509088143|10.3109/14756369309040765|10.3329/JSR.V4I3.7725|10.3390/12051035|10.3390/MOLECULES13020255|10.3390/MOLECULES16043018|10.3724/SP.J.1008.2010.01120|10.3724/SP.J.1009.2008.00116|10.3724/SP.J.1009.2010.00192|10.3724/SP.J.1145.2011.00350|10.3797/SCIPHARM.AUT-00-39|10.3923/JBS.2001.843.845|10.3987/COM-01-9190|10.3987/COM-02-9615|10.3987/COM-03-9777|10.3987/COM-03-9804|10.3987/COM-03-9822|10.3998/ARK.5550190.0011.227|10.4014/JMB.0902.072|10.4028/WWW.SCIENTIFIC.NET/AMR.554-556.1845|10.4268/CJCMM20100813|10.4268/CJCMM20101114|10.4268/CJCMM20102314|10.4268/CJCMM20111611|10.4268/CJCMM20120413|10.4268/CJCMM20121011|10.4268/CJCMM20121613|10.4268/CJCMM20131917|10.4268/CJCMM20132321|10.4268/CJCMM20140217|10.4268/CJCMM20141017|10.4268/CJCMM20141334|10.4268/CJCMM20142015|10.4268/CJCMM20150419|10.4268/CJCMM20150420|10.4268/CJCMM20150722|10.4268/CJCMM20151817|10.4268/CJCMM20152219|10.4268/CJCMM20160315|10.4268/CJCMM20161809|10.4314/BCSE.V17I2.61669|10.4324/9780203304310_CHAPTER_3|10.5012/BKCS.2009.30.9.2098|10.5012/BKCS.2011.32.6.2079|10.5151/9786555500080-02|10.5246/JCPS.2011.02.019|10.5246/JCPS.2020.06.041|10.7324/JAPS.2015.50912

>  <synonyms>  (891) 
nan

>  <cas>  (891) 
474-58-8

$$$$

     RDKit          2D

 17 19  0  0  0  0  0  0  0  0999 V2000
    5.0334   -0.6331    0.0000 C   0  0  0  0  0  0  0  0  0  0  0  0
    3.7334    0.1153    0.0000 O   0  0  0  0  0  0  0  0  0  0  0  0
    2.4353   -0.6364    0.0000 C   0  0  0  0  0  0  0  0  0  0  0  0
    2.4372   -2.1364    0.0000 O   0  0  0  0  0  0  0  0  0  0  0  0
    1.1353    0.1120    0.0000 C   0  0  0  0  0  0  0  0  0  0  0  0
   -0.1628   -0.6397    0.0000 C   0  0  0  0  0  0  0  0  0  0  0  0
   -0.4728   -2.1073    0.0000 C   0  0  0  0  0  0  0  0  0  0  0  0
   -1.9644   -2.2660    0.0000 C   0  0  0  0  0  0  0  0  0  0  0  0
   -2.5762   -0.8965    0.0000 C   0  0  0  0  0  0  0  0  0  0  0  0
   -3.2931   -0.5479    0.0000 O   0  0  0  0  0  0  0  0  0  0  0  0
   -3.6922    0.1058    0.0000 C   0  0  0  0  0  0  0  0  0  0  0  0
   -3.0838    1.4769    0.0000 O   0  0  0  0  0  0  0  0  0  0  0  0
   -1.4647    1.6087    0.0000 C   0  0  0  0  0  0  0  0  0  0  0  0
   -0.1666    2.3603    0.0000 O   0  0  0  0  0  0  0  0  0  0  0  0
    1.1334    1.6120    0.0000 C   0  0  0  0  0  0  0  0  0  0  0  0
    2.4315    2.3636    0.0000 O   0  0  0  0  0  0  0  0  0  0  0  0
   -1.4628    0.1087    0.0000 C   0  0  0  0  0  0  0  0  0  0  0  0
  1  2  1  0
  2  3  1  0
  3  4  2  0
  5  3  1  1
  5  6  1  0
  6  7  1  1
  7  8  2  0
  8  9  1  0
  9 10  1  1
  9 11  1  0
 11 12  1  0
 13 12  1  6
 13 14  1  0
 14 15  1  0
 15 16  1  6
 17 13  1  1
 15  5  1  0
 17  6  1  0
 17  9  1  0
M  END
>  <identifier>  (892) 
CNP0324400.2

>  <canonical_smiles>  (892) 
COC(=O)[C@H]1[C@H]2C=C[C@]3(O)CO[C@H](O[C@@H]1O)[C@@H]23

>  <standard_inchi>  (892) 
InChI=1S/C11H14O6/c1-15-8(12)6-5-2-3-11(14)4-16-10(7(5)11)17-9(6)13/h2-3,5-7,9-10,13-14H,4H2,1H3/t5-,6-,7-,9+,10-,11+/m1/s1

>  <standard_inchi_key>  (892) 
QEGAWOPOQXLXMR-MCEKMFAVSA-N

>  <name>  (892) 
nan

>  <iupac_name>  (892) 
methyl (1~{R},4~{R},7~{S},8~{S},9~{S},11~{S})-4,9-dihydroxy-2,10-dioxatricyclo[5.3.1.0^{4,11}]undec-5-ene-8-carboxylate

>  <annotation_level>  (892) 
5

>  <total_atom_count>  (892) 
31

>  <heavy_atom_count>  (892) 
17

>  <molecular_weight>  (892) 
242.23

>  <exact_molecular_weight>  (892) 
242.07904

>  <molecular_formula>  (892) 
C11H14O6

>  <alogp>  (892) 
-0.99

>  <topological_polar_surface_area>  (892) 
85.22

>  <rotatable_bond_count>  (892) 
1

>  <hydrogen_bond_acceptors>  (892) 
6

>  <hydrogen_bond_donors>  (892) 
2

>  <hydrogen_bond_acceptors_lipinski>  (892) 
6

>  <hydrogen_bond_donors_lipinski>  (892) 
2

>  <lipinski_rule_of_five_violations>  (892) 
0

>  <aromatic_rings_count>  (892) 
0

>  <qed_drug_likeliness>  (892) 
0.45

>  <formal_charge>  (892) 
0

>  <fractioncsp3>  (892) 
0.73

>  <number_of_minimal_rings>  (892) 
3

>  <van_der_walls_volume>  (892) 
199.51

>  <contains_sugar>  (892) 
False

>  <contains_ring_sugars>  (892) 
False

>  <contains_linear_sugars>  (892) 
False

>  <murcko_framework>  (892) 
O1CCC2C=CC3COC1C32

>  <np_likeness>  (892) 
3.17

>  <chemical_class>  (892) 
Prenol lipids

>  <chemical_sub_class>  (892) 
Monoterpenoids

>  <chemical_super_class>  (892) 
Lipids and lipid-like molecules

>  <direct_parent_classification>  (892) 
Iridoids and derivatives

>  <np_classifier_pathway>  (892) 
Terpenoids

>  <np_classifier_superclass>  (892) 
Monoterpenoids

>  <np_classifier_class>  (892) 
Iridoids monoterpenoids

>  <np_classifier_is_glycoside>  (892) 
True

>  <organisms>  (892) 
Burchellia bubalina|Catunaregam nilotica|Cordiera sessilis|Rothmannia globosa|Tocoyena formosa

>  <collections>  (892) 
ChemSpider NPs|Latin America dataset|NuBBEDB|WikiData Natural Products|ZINC NP

>  <dois>  (892) 
10.1002/CHIN.200305197|10.1007/S00706-002-0500-0|10.1016/S0031-9422(00)80266-6|10.1016/S0031-9422(97)00238-0|10.1016/S0031-9422(98)00508-1|10.1590/S0103-50531997000300013

>  <synonyms>  (892) 
\u221a\u00e9\u00ac\u00b1-Gardiol

>  <cas>  (892) 
nan

$$$$

     RDKit          2D

 41 46  0  0  0  0  0  0  0  0999 V2000
    6.4376   -6.3436    0.0000 C   0  0  0  0  0  0  0  0  0  0  0  0
    7.2910   -5.1099    0.0000 O   0  0  0  0  0  0  0  0  0  0  0  0
    6.6493   -3.7541    0.0000 C   0  0  0  0  0  0  0  0  0  0  0  0
    5.1542   -3.6319    0.0000 C   0  0  0  0  0  0  0  0  0  0  0  0
    4.5125   -2.2761    0.0000 C   0  0  0  0  0  0  0  0  0  0  0  0
    5.3658   -1.0425    0.0000 C   0  0  0  0  0  0  0  0  0  0  0  0
    4.7241    0.3133    0.0000 C   0  0  0  0  0  0  0  0  0  0  0  0
    5.5775    1.5469    0.0000 C   0  0  0  0  0  0  0  0  0  0  0  0
    4.9358    2.9028    0.0000 C   0  0  0  0  0  0  0  0  0  0  0  0
    5.7891    4.1364    0.0000 O   0  0  0  0  0  0  0  0  0  0  0  0
    3.4407    3.0249    0.0000 C   0  0  0  0  0  0  0  0  0  0  0  0
    2.7990    4.3807    0.0000 C   0  0  0  0  0  0  0  0  0  0  0  0
    3.6523    5.6144    0.0000 O   0  0  0  0  0  0  0  0  0  0  0  0
    1.3040    4.5029    0.0000 C   0  0  0  0  0  0  0  0  0  0  0  0
    0.4507    3.2693    0.0000 C   0  0  0  0  0  0  0  0  0  0  0  0
   -1.0443    3.3914    0.0000 O   0  0  0  0  0  0  0  0  0  0  0  0
    1.0924    1.9135    0.0000 C   0  0  0  0  0  0  0  0  0  0  0  0
    0.2391    0.6798    0.0000 C   0  0  0  0  0  0  0  0  0  0  0  0
   -1.2559    0.8020    0.0000 C   0  0  0  0  0  0  0  0  0  0  0  0
   -2.1092   -0.4316    0.0000 C   0  0  0  0  0  0  0  0  0  0  0  0
   -3.6043   -0.3095    0.0000 C   0  0  0  0  0  0  0  0  0  0  0  0
   -4.2460    1.0463    0.0000 C   0  0  0  0  0  0  0  0  0  0  0  0
   -5.7410    1.1685    0.0000 C   0  0  0  0  0  0  0  0  0  0  0  0
   -6.3827    2.5243    0.0000 O   0  0  0  0  0  0  0  0  0  0  0  0
   -6.5943   -0.0651    0.0000 C   0  0  0  0  0  0  0  0  0  0  0  0
   -8.0893    0.0571    0.0000 C   0  0  0  0  0  0  0  0  0  0  0  0
   -8.7310    1.4129    0.0000 O   0  0  0  0  0  0  0  0  0  0  0  0
   -8.9426   -1.1766    0.0000 C   0  0  0  0  0  0  0  0  0  0  0  0
   -8.3009   -2.5324    0.0000 C   0  0  0  0  0  0  0  0  0  0  0  0
   -9.1542   -3.7660    0.0000 O   0  0  0  0  0  0  0  0  0  0  0  0
   -6.8059   -2.6546    0.0000 C   0  0  0  0  0  0  0  0  0  0  0  0
   -5.9526   -1.4209    0.0000 C   0  0  0  0  0  0  0  0  0  0  0  0
   -4.4576   -1.5431    0.0000 O   0  0  0  0  0  0  0  0  0  0  0  0
   -1.4675   -1.7874    0.0000 C   0  0  0  0  0  0  0  0  0  0  0  0
    0.0275   -1.9096    0.0000 C   0  0  0  0  0  0  0  0  0  0  0  0
    0.8808   -0.6760    0.0000 C   0  0  0  0  0  0  0  0  0  0  0  0
    2.3758   -0.7982    0.0000 O   0  0  0  0  0  0  0  0  0  0  0  0
    2.5874    1.7913    0.0000 C   0  0  0  0  0  0  0  0  0  0  0  0
    3.2291    0.4355    0.0000 O   0  0  0  0  0  0  0  0  0  0  0  0
    6.8609   -1.1647    0.0000 C   0  0  0  0  0  0  0  0  0  0  0  0
    7.5026   -2.5205    0.0000 C   0  0  0  0  0  0  0  0  0  0  0  0
  1  2  1  0
  2  3  1  0
  3  4  2  0
  4  5  1  0
  5  6  2  0
  6  7  1  0
  7  8  2  0
  8  9  1  0
  9 10  2  0
  9 11  1  0
 11 12  2  0
 12 13  1  0
 12 14  1  0
 14 15  2  0
 15 16  1  0
 15 17  1  0
 17 18  1  0
 18 19  2  0
 19 20  1  0
 20 21  1  0
 21 22  2  0
 22 23  1  0
 23 24  2  0
 23 25  1  0
 25 26  2  0
 26 27  1  0
 26 28  1  0
 28 29  2  0
 29 30  1  0
 29 31  1  0
 31 32  2  0
 32 33  1  0
 20 34  2  0
 34 35  1  0
 35 36  2  0
 36 37  1  0
 17 38  2  0
 38 39  1  0
  6 40  1  0
 40 41  2  0
 41  3  1  0
 39  7  1  0
 38 11  1  0
 36 18  1  0
 33 21  1  0
 32 25  1  0
M  END
>  <identifier>  (893) 
CNP0411630.0

>  <canonical_smiles>  (893) 
COC1=CC=C(C2=CC(=O)C3=C(O)C=C(O)C(C4=CC(C5=CC(=O)C6=C(O)C=C(O)C=C6O5)=CC=C4O)=C3O2)C=C1

>  <standard_inchi>  (893) 
InChI=1S/C31H20O10/c1-39-17-5-2-14(3-6-17)25-13-24(38)30-22(36)11-21(35)28(31(30)41-25)18-8-15(4-7-19(18)33)26-12-23(37)29-20(34)9-16(32)10-27(29)40-26/h2-13,32-36H,1H3

>  <standard_inchi_key>  (893) 
RBTRUVNXLDXHBJ-UHFFFAOYSA-N

>  <name>  (893) 
Podocarpusflavone A

>  <iupac_name>  (893) 
8-[5-(5,7-dihydroxy-4-oxo-chromen-2-yl)-2-hydroxy-phenyl]-5,7-dihydroxy-2-(4-methoxyphenyl)chromen-4-one

>  <annotation_level>  (893) 
5

>  <total_atom_count>  (893) 
61

>  <heavy_atom_count>  (893) 
41

>  <molecular_weight>  (893) 
552.49

>  <exact_molecular_weight>  (893) 
552.10565

>  <molecular_formula>  (893) 
C31H20O10

>  <alogp>  (893) 
5.44

>  <topological_polar_surface_area>  (893) 
170.80

>  <rotatable_bond_count>  (893) 
4

>  <hydrogen_bond_acceptors>  (893) 
10

>  <hydrogen_bond_donors>  (893) 
5

>  <hydrogen_bond_acceptors_lipinski>  (893) 
10

>  <hydrogen_bond_donors_lipinski>  (893) 
5

>  <lipinski_rule_of_five_violations>  (893) 
2

>  <aromatic_rings_count>  (893) 
6

>  <qed_drug_likeliness>  (893) 
0.19

>  <formal_charge>  (893) 
0

>  <fractioncsp3>  (893) 
0.03

>  <number_of_minimal_rings>  (893) 
6

>  <van_der_walls_volume>  (893) 
449.71

>  <contains_sugar>  (893) 
False

>  <contains_ring_sugars>  (893) 
False

>  <contains_linear_sugars>  (893) 
False

>  <murcko_framework>  (893) 
O1c2ccccc2CC=C1c3cccc(c3)-c4cccc5c4OC(=CC5)c6ccccc6

>  <np_likeness>  (893) 
1.12

>  <chemical_class>  (893) 
Flavonoids

>  <chemical_sub_class>  (893) 
Biflavonoids and polyflavonoids

>  <chemical_super_class>  (893) 
Phenylpropanoids and polyketides

>  <direct_parent_classification>  (893) 
Biflavonoids and polyflavonoids

>  <np_classifier_pathway>  (893) 
Shikimates and Phenylpropanoids

>  <np_classifier_superclass>  (893) 
Flavonoids

>  <np_classifier_class>  (893) 
Flavones

>  <np_classifier_is_glycoside>  (893) 
False

>  <organisms>  (893) 
Afrocarpus gracilior|Aglaia forbesii|Antidesma bunius|Callitris columellaris|Callitropsis nootkatensis|Caloplaca murorum|Coprinellus heptemerus|Cupressus lusitanica|Cupressus sempervirens|Cupressus spp.|Cycas revoluta|Dacrycarpus imbricatus|Dacrydium spp.|Decussocarpus spp.|Dendrobium chrysotoxum|Didymella lethalis|Ectatosoma tiaratum|Erythrophyllum delesserioides|Eurybia divaricata|Falcatifolium spp.|Fitzroya patagonica|Garcinia dulcis|Garcinia intermedia|Garcinia livingstonei|Garcinia livingstonii|Garcinia subelliptica|Ginkgo biloba|Halocarpus spp.|Himalayan honeysuckle|Hydnocarpus hainanensis|Isophysis tasmanica|Juniperus rigida|Juniperus spp.|Lagarostrobos spp.|Lechevalieria aerocolonigenes|Lepidozamia spp.|Manihot esculenta|Nageia nagi|Nitraria sibirica|Ouratea multiflora|Passalora fulva|Penicillium toxicarium|Pinus longifolia|Piranhea mexicana|Platycladus orientalis|Podocalyx loranthoides|Podocarpus elongatus|Podocarpus fasciculus|Podocarpus gracilior|Podocarpus gracillor|Podocarpus imbricatus|Podocarpus macrophyllus|Podocarpus nagai|Podocarpus neriifolius|Podocarpus spp.|Podocarpus urbanii|Prumnopitys montana|Prumnopitys spp.|Putranjiva Roxburghii|Putranjiva roxburghii|Quercus canariensis|Retrophyllum rospigliosii|Sciadopitys verticillata|Sciadotenia toxifera|Selaginella moellendorffii|Selaginella moellendorfii|Sequoiadendron giganteum|Soulamea pancheri|Taxodium mucronatum|Trattinnickia glaziovii|Valeriana microphylla|Xanthocyparis nootkatensis|Zanthoxylum podocarpum

>  <collections>  (893) 
ANPDB|Australian natural products|CMAUP (cCollective molecular activities of useful plants)|ChemSpider NPs|ConMedNP|KNApSaCK|Latin America dataset|NANPDB (Natural Products from Northern African Sources)|NPASS|NPEdia|NuBBEDB|Super Natural II|TCMDB-Taiwan (Traditional Chinese Medicine database)|TCMID (Traditional Chinese Medicine Integrated Database)|TIPdb (database of Taiwan indigenous plants)|UNPD (Universal Natural Products Database)|VietHerb|WikiData Natural Products|ZINC NP

>  <dois>  (893) 
10.1007/978-94-015-9572-8_3|10.1007/BF01990665|10.1016/0031-9422(73)85143-X|10.1016/0031-9422(74)85132-0|10.1016/0031-9422(82)80065-4|10.1016/0305-1978(95)00007-0|10.1016/J.CHROMA.2009.01.013|10.1016/J.FITOTE.2009.09.007|10.1016/J.PHYTOCHEM.2005.10.016|10.1016/J.PHYTOL.2012.02.005|10.1016/S0031-9422(00)81743-4|10.1016/S0031-9422(00)83874-1|10.1016/S0031-9422(00)83875-3|10.1016/S0031-9422(00)86949-6|10.1016/S0040-4039(00)61989-5|10.1016/S0040-4039(01)94051-1|10.1016/S0367-326X(03)00065-0|10.1016/j.phytol.2012.02.005|10.1021/NP50051A032|10.1021/NP960608E|10.1021/np960608e|10.1055/S-0029-1240743|10.1055/S-2000-8598|10.1055/S-2007-990218|10.1080/10575639408044043|10.1177/1934578x1601100717|10.1248/BPB.19.311|10.1248/BPB.27.141|10.1248/CPB.17.150|10.1248/CPB.28.1894|10.1248/CPB.56.585|10.1515/ZNC-1998-11-1202|10.1590/S0102-695X2007000300003

>  <synonyms>  (893) 
22136-74-9|41583-83-9|4H-1-Benzopyran-4-one, 8-(5-(5,7-dihydroxy-4-oxo-4H-1-benzopyran-2-yl)-2-hydroxyphenyl)-5,7-dihydroxy-2-(4-hydroxyphenyl)-, monomethyl ether|8-[5-(5,7-Dihydroxy-4-oxo-4H-1-benzopyran-2-yl)-2-hydroxyphenyl]-5,7-dihydroxy-2-(4-methoxyphenyl)-4H-1-benzopyran-4-one|8-[5-(5,7-dihydroxy-4-oxochromen-2-yl)-2-hydroxyphenyl]-5,7-dihydroxy-2-(4-methoxyphenyl)chromen-4-one|AKOS032962454|CHEBI:191156|CS-5764|DTXSID10944784|E80809|HY-N2198|MS-30092|Mono-O-methylamentoflavone|Podocarpusflavonea|SCHEMBL25937932|podocarpusflavone A

>  <cas>  (893) 
22136-74-9|41583-83-9

$$$$

     RDKit          2D

 28 33  0  0  0  0  0  0  0  0999 V2000
   -6.9668   -0.2436    0.0000 C   0  0  0  0  0  0  0  0  0  0  0  0
   -5.7478   -1.1178    0.0000 O   0  0  0  0  0  0  0  0  0  0  0  0
   -4.3813   -0.4992    0.0000 C   0  0  0  0  0  0  0  0  0  0  0  0
   -4.2337    0.9935    0.0000 C   0  0  0  0  0  0  0  0  0  0  0  0
   -2.8672    1.6120    0.0000 C   0  0  0  0  0  0  0  0  0  0  0  0
   -1.6483    0.7379    0.0000 C   0  0  0  0  0  0  0  0  0  0  0  0
   -1.7958   -0.7549    0.0000 C   0  0  0  0  0  0  0  0  0  0  0  0
   -3.1624   -1.3734    0.0000 C   0  0  0  0  0  0  0  0  0  0  0  0
   -0.4218   -1.3565    0.0000 N   0  0  0  0  0  0  0  0  0  0  0  0
   -0.1009   -2.8218    0.0000 C   0  0  0  0  0  0  0  0  0  0  0  0
    1.1261   -3.3848    0.0000 C   0  0  0  0  0  0  0  0  0  0  0  0
   -1.2094   -3.8323    0.0000 O   0  0  0  0  0  0  0  0  0  0  0  0
    0.5750   -0.2356    0.0000 C   0  0  0  0  0  0  0  0  0  0  0  0
    2.0750   -0.2264    0.0000 C   0  0  0  0  0  0  0  0  0  0  0  0
    2.6316   -1.6193    0.0000 C   0  0  0  0  0  0  0  0  0  0  0  0
    1.8476   -2.7183    0.0000 O   0  0  0  0  0  0  0  0  0  0  0  0
    4.0676   -2.0526    0.0000 O   0  0  0  0  0  0  0  0  0  0  0  0
    5.3018   -1.2000    0.0000 C   0  0  0  0  0  0  0  0  0  0  0  0
    5.4046    0.2965    0.0000 C   0  0  0  0  0  0  0  0  0  0  0  0
    4.2988    1.3100    0.0000 C   0  0  0  0  0  0  0  0  0  0  0  0
    1.0414    3.6157    0.0000 C   0  0  0  0  0  0  0  0  0  0  0  0
   -0.4516    3.4709    0.0000 N   0  0  0  0  0  0  0  0  0  0  0  0
   -0.3852    2.8753    0.0000 C   0  0  0  0  0  0  0  0  0  0  0  0
   -0.2493    1.6544    0.0000 C   0  0  0  0  0  0  0  0  0  0  0  0
   -0.1830    1.0588    0.0000 C   0  0  0  0  0  0  0  0  0  0  0  0
    0.5590    2.3624    0.0000 C   0  0  0  0  0  0  0  0  0  0  0  0
    2.0590    2.3717    0.0000 C   0  0  0  0  0  0  0  0  0  0  0  0
    2.8170    1.0773    0.0000 C   0  0  0  0  0  0  0  0  0  0  0  0
  1  2  1  0
  2  3  1  0
  3  4  2  0
  4  5  1  0
  5  6  2  0
  6  7  1  0
  7  8  2  0
  7  9  1  0
  9 10  1  0
 10 11  1  0
 10 12  2  0
 13  9  1  6
 13 14  1  0
 14 15  1  1
 15 16  1  1
 15 17  1  0
 17 18  1  0
 18 19  1  0
 19 20  2  0
 20 21  1  0
 21 22  1  0
 22 23  1  0
 23 24  1  0
 25 24  1  1
 25 26  1  0
 26 27  1  1
 28 27  1  1
  8  3  1  0
 25 13  1  0
 25  6  1  0
 28 14  1  0
 28 20  1  0
 26 22  1  0
M  END
>  <identifier>  (894) 
CNP0185820.1

>  <canonical_smiles>  (894) 
COC1=CC=C2C(=C1)N(C(C)=O)[C@H]1[C@@H]3[C@H](O)OCC=C4CN5CC[C@]21[C@@H]5C[C@@H]43

>  <standard_inchi>  (894) 
InChI=1S/C22H26N2O4/c1-12(25)24-17-9-14(27-2)3-4-16(17)22-6-7-23-11-13-5-8-28-21(26)19(20(22)24)15(13)10-18(22)23/h3-5,9,15,18-21,26H,6-8,10-11H2,1-2H3/t15-,18-,19+,20-,21+,22+/m0/s1

>  <standard_inchi_key>  (894) 
CWUAKNMXNCKRQK-ZKRAORQLSA-N

>  <name>  (894) 
11-Methoxydiaboline

>  <iupac_name>  (894) 
1-[(4~{R},12~{S},13~{R},14~{R},19~{R},21~{S})-14-hydroxy-8-methoxy-15-oxa-1,11-diazahexacyclo[16.3.1.0^{4,12}.0^{4,21}.0^{5,10}.0^{13,19}]docosa-5,7,9,17-tetraen-11-yl]ethanone

>  <annotation_level>  (894) 
5

>  <total_atom_count>  (894) 
54

>  <heavy_atom_count>  (894) 
28

>  <molecular_weight>  (894) 
382.46

>  <exact_molecular_weight>  (894) 
382.18926

>  <molecular_formula>  (894) 
C22H26N2O4

>  <alogp>  (894) 
1.67

>  <topological_polar_surface_area>  (894) 
62.24

>  <rotatable_bond_count>  (894) 
1

>  <hydrogen_bond_acceptors>  (894) 
5

>  <hydrogen_bond_donors>  (894) 
1

>  <hydrogen_bond_acceptors_lipinski>  (894) 
5

>  <hydrogen_bond_donors_lipinski>  (894) 
1

>  <lipinski_rule_of_five_violations>  (894) 
0

>  <aromatic_rings_count>  (894) 
1

>  <qed_drug_likeliness>  (894) 
0.75

>  <formal_charge>  (894) 
0

>  <fractioncsp3>  (894) 
0.59

>  <number_of_minimal_rings>  (894) 
6

>  <van_der_walls_volume>  (894) 
338.50

>  <contains_sugar>  (894) 
False

>  <contains_ring_sugars>  (894) 
False

>  <contains_linear_sugars>  (894) 
False

>  <murcko_framework>  (894) 
O1CC=C2CN3CCC45c6ccccc6NC5C(C1)C2CC34

>  <np_likeness>  (894) 
2.41

>  <chemical_class>  (894) 
Strychnos alkaloids

>  <chemical_sub_class>  (894) 
Strychnos alkaloids

>  <chemical_super_class>  (894) 
Alkaloids and derivatives

>  <direct_parent_classification>  (894) 
Strychnos alkaloids

>  <np_classifier_pathway>  (894) 
Alkaloids

>  <np_classifier_superclass>  (894) 
Tryptophan alkaloids

>  <np_classifier_class>  (894) 
Strychnos type

>  <np_classifier_is_glycoside>  (894) 
False

>  <organisms>  (894) 
Artemisia annua L.|Didiscus oxeata|Discaria febrifuga|Euplexaura nuttingi|Megoura crassicauda|Strychnos brachiata|Strychnos cocculoides|Strychnos gardneri|Strychnos henningsii|Strychnos lucida|Strychnos malacoclados|Strychnos matopensis|Strychnos potatorum|Strychnos pseudoquina|Strychnos pungens|Strychnos romeu-belenii|Strychnos romeubelenii|Strychnos spinosa|Strychnos staudtii

>  <collections>  (894) 
Australian natural products|CMAUP (cCollective molecular activities of useful plants)|KNApSaCK|Latin America dataset|NPASS|NuBBEDB|Super Natural II|WikiData Natural Products

>  <dois>  (894) 
10.1002/JLAC.19687120122|10.1007/S11418-005-0021-3|10.1007/s11418-005-0021-3|10.1016/0031-9422(74)85148-4|10.1016/0031-9422(80)85164-8|10.1016/0031-9422(88)80046-3|10.1016/0031-9422(88)83173-X|10.1016/0031-9422(90)83087-H|10.1016/0031-9422(90)85151-5|10.1016/0031-9422(92)83650-N|10.1016/B978-1-4831-9671-8.50013-X|10.1021/NP50012A003|10.1021/NP50036A007|10.1021/np50036a007|10.1055/S-2007-969763

>  <synonyms>  (894) 
(17R)-1-ACETYL-19,20-DIDEHYDRO-17,18-EPOXY-11-METHOXYCURAN-17-OL|11-Methoxydiaboline|36151-16-3|Curan-17-ol, 1-acetyl-19,20-didehydro-17,18-epoxy-11-methoxy-, (17R)-|FT3S93R9T8|Q27896894|UNII-FT3S93R9T8

>  <cas>  (894) 
36151-16-3

$$$$

     RDKit          2D

 11 11  0  0  0  0  0  0  0  0999 V2000
   -5.5150    0.0802    0.0000 C   0  0  0  0  0  0  0  0  0  0  0  0
   -4.0984    0.5735    0.0000 C   0  0  0  0  0  0  0  0  0  0  0  0
   -2.9629   -0.4066    0.0000 C   0  0  0  0  0  0  0  0  0  0  0  0
   -1.5464    0.0867    0.0000 C   0  0  0  0  0  0  0  0  0  0  0  0
   -0.4109   -0.8934    0.0000 C   0  0  0  0  0  0  0  0  0  0  0  0
    1.0057   -0.4001    0.0000 C   0  0  0  0  0  0  0  0  0  0  0  0
    1.2868    1.0734    0.0000 C   0  0  0  0  0  0  0  0  0  0  0  0
    2.7033    1.5667    0.0000 C   0  0  0  0  0  0  0  0  0  0  0  0
    3.8388    0.5866    0.0000 C   0  0  0  0  0  0  0  0  0  0  0  0
    3.5578   -0.8869    0.0000 C   0  0  0  0  0  0  0  0  0  0  0  0
    2.1412   -1.3802    0.0000 C   0  0  0  0  0  0  0  0  0  0  0  0
  1  2  1  0
  2  3  1  0
  3  4  1  0
  4  5  1  0
  5  6  1  0
  6  7  2  0
  7  8  1  0
  8  9  1  0
  9 10  1  0
 10 11  1  0
 11  6  1  0
M  END
>  <identifier>  (895) 
CNP0080596.0

>  <canonical_smiles>  (895) 
CCCCCC1=CCCCC1

>  <standard_inchi>  (895) 
InChI=1S/C11H20/c1-2-3-5-8-11-9-6-4-7-10-11/h9H,2-8,10H2,1H3

>  <standard_inchi_key>  (895) 
IOTQTOFPEVQVPG-UHFFFAOYSA-N

>  <name>  (895) 
1-Pentylcyclohexene

>  <iupac_name>  (895) 
1-pentylcyclohexene

>  <annotation_level>  (895) 
5

>  <total_atom_count>  (895) 
31

>  <heavy_atom_count>  (895) 
11

>  <molecular_weight>  (895) 
152.28

>  <exact_molecular_weight>  (895) 
152.1565

>  <molecular_formula>  (895) 
C11H20

>  <alogp>  (895) 
4.07

>  <topological_polar_surface_area>  (895) 
0.00

>  <rotatable_bond_count>  (895) 
4

>  <hydrogen_bond_acceptors>  (895) 
0

>  <hydrogen_bond_donors>  (895) 
0

>  <hydrogen_bond_acceptors_lipinski>  (895) 
0

>  <hydrogen_bond_donors_lipinski>  (895) 
0

>  <lipinski_rule_of_five_violations>  (895) 
0

>  <aromatic_rings_count>  (895) 
0

>  <qed_drug_likeliness>  (895) 
0.42

>  <formal_charge>  (895) 
0

>  <fractioncsp3>  (895) 
0.82

>  <number_of_minimal_rings>  (895) 
1

>  <van_der_walls_volume>  (895) 
nan

>  <contains_sugar>  (895) 
False

>  <contains_ring_sugars>  (895) 
False

>  <contains_linear_sugars>  (895) 
False

>  <murcko_framework>  (895) 
C1=CCCCC1

>  <np_likeness>  (895) 
0.34

>  <chemical_class>  (895) 
Unsaturated hydrocarbons

>  <chemical_sub_class>  (895) 
Branched unsaturated hydrocarbons

>  <chemical_super_class>  (895) 
Hydrocarbons

>  <direct_parent_classification>  (895) 
Branched unsaturated hydrocarbons

>  <np_classifier_pathway>  (895) 
nan

>  <np_classifier_superclass>  (895) 
nan

>  <np_classifier_class>  (895) 
nan

>  <np_classifier_is_glycoside>  (895) 
False

>  <organisms>  (895) 
Caryocar coriaceum

>  <collections>  (895) 
Latin America dataset|NuBBEDB|WikiData Natural Products|ZINC NP

>  <dois>  (895) 
10.1021/JF00120A031|10.1021/jf00120a031

>  <synonyms>  (895) 
1-Pentyl-1-cyclohexene|1-Pentylcyclohexene-1|15232-85-6|CHEBI:229441|Cyclohexene, 1-pentyl-|DTXSID40164998|IOTQTOFPEVQVPG-UHFFFAOYSA-N|n-amylcyclohexene

>  <cas>  (895) 
15232-85-6

$$$$

     RDKit          2D

 26 28  0  0  0  0  0  0  0  0999 V2000
   -6.9355    2.6908    0.0000 C   0  0  0  0  0  0  0  0  0  0  0  0
   -6.5286    1.2470    0.0000 O   0  0  0  0  0  0  0  0  0  0  0  0
   -5.0748    0.8775    0.0000 C   0  0  0  0  0  0  0  0  0  0  0  0
   -4.0279    1.9517    0.0000 C   0  0  0  0  0  0  0  0  0  0  0  0
   -2.5742    1.5822    0.0000 C   0  0  0  0  0  0  0  0  0  0  0  0
   -2.1673    0.1385    0.0000 C   0  0  0  0  0  0  0  0  0  0  0  0
   -0.7135   -0.2311    0.0000 C   0  0  0  0  0  0  0  0  0  0  0  0
   -0.3066   -1.6748    0.0000 C   0  0  0  0  0  0  0  0  0  0  0  0
    1.1471   -2.0443    0.0000 C   0  0  0  0  0  0  0  0  0  0  0  0
    1.5540   -3.4881    0.0000 O   0  0  0  0  0  0  0  0  0  0  0  0
    2.1940   -0.9701    0.0000 C   0  0  0  0  0  0  0  0  0  0  0  0
    3.6478   -1.3396    0.0000 C   0  0  0  0  0  0  0  0  0  0  0  0
    4.0547   -2.7834    0.0000 O   0  0  0  0  0  0  0  0  0  0  0  0
    4.6947   -0.2653    0.0000 C   0  0  0  0  0  0  0  0  0  0  0  0
    6.1485   -0.6349    0.0000 C   0  0  0  0  0  0  0  0  0  0  0  0
    4.2878    1.1784    0.0000 C   0  0  0  0  0  0  0  0  0  0  0  0
    5.3347    2.2527    0.0000 O   0  0  0  0  0  0  0  0  0  0  0  0
    6.7885    1.8831    0.0000 C   0  0  0  0  0  0  0  0  0  0  0  0
    2.8340    1.5479    0.0000 C   0  0  0  0  0  0  0  0  0  0  0  0
    2.4272    2.9917    0.0000 C   0  0  0  0  0  0  0  0  0  0  0  0
    1.7871    0.4737    0.0000 C   0  0  0  0  0  0  0  0  0  0  0  0
    0.3334    0.8432    0.0000 O   0  0  0  0  0  0  0  0  0  0  0  0
   -3.2142   -0.9358    0.0000 C   0  0  0  0  0  0  0  0  0  0  0  0
   -4.6680   -0.5663    0.0000 C   0  0  0  0  0  0  0  0  0  0  0  0
   -5.7149   -1.6405    0.0000 O   0  0  0  0  0  0  0  0  0  0  0  0
   -5.3080   -3.0843    0.0000 C   0  0  0  0  0  0  0  0  0  0  0  0
  1  2  1  0
  2  3  1  0
  3  4  2  0
  4  5  1  0
  5  6  2  0
  7  6  1  6
  7  8  1  0
  8  9  1  0
  9 10  2  0
  9 11  1  0
 11 12  2  0
 12 13  1  0
 12 14  1  0
 14 15  1  0
 14 16  2  0
 16 17  1  0
 17 18  1  0
 16 19  1  0
 19 20  1  0
 19 21  2  0
 21 22  1  0
  6 23  1  0
 23 24  2  0
 24 25  1  0
 25 26  1  0
 24  3  1  0
 22  7  1  0
 21 11  1  0
M  END
>  <identifier>  (896) 
CNP0370884.1

>  <canonical_smiles>  (896) 
COC1=CC=C([C@H]2CC(=O)C3=C(O)C(C)=C(OC)C(C)=C3O2)C=C1OC

>  <standard_inchi>  (896) 
InChI=1S/C20H22O6/c1-10-18(22)17-13(21)9-15(26-20(17)11(2)19(10)25-5)12-6-7-14(23-3)16(8-12)24-4/h6-8,15,22H,9H2,1-5H3/t15-/m1/s1

>  <standard_inchi_key>  (896) 
DVMTYNYBXLUSPY-OAHLLOKOSA-N

>  <name>  (896) 
(2r)-5-hydroxy-7,3',4'-trimethoxy-6,8-dimethylflavanone

>  <iupac_name>  (896) 
(2~{R})-2-(3,4-dimethoxyphenyl)-5-hydroxy-7-methoxy-6,8-dimethyl-chroman-4-one

>  <annotation_level>  (896) 
5

>  <total_atom_count>  (896) 
48

>  <heavy_atom_count>  (896) 
26

>  <molecular_weight>  (896) 
358.39

>  <exact_molecular_weight>  (896) 
358.14164

>  <molecular_formula>  (896) 
C20H22O6

>  <alogp>  (896) 
3.74

>  <topological_polar_surface_area>  (896) 
74.22

>  <rotatable_bond_count>  (896) 
4

>  <hydrogen_bond_acceptors>  (896) 
6

>  <hydrogen_bond_donors>  (896) 
1

>  <hydrogen_bond_acceptors_lipinski>  (896) 
6

>  <hydrogen_bond_donors_lipinski>  (896) 
1

>  <lipinski_rule_of_five_violations>  (896) 
0

>  <aromatic_rings_count>  (896) 
2

>  <qed_drug_likeliness>  (896) 
0.90

>  <formal_charge>  (896) 
0

>  <fractioncsp3>  (896) 
0.35

>  <number_of_minimal_rings>  (896) 
3

>  <van_der_walls_volume>  (896) 
nan

>  <contains_sugar>  (896) 
False

>  <contains_ring_sugars>  (896) 
False

>  <contains_linear_sugars>  (896) 
False

>  <murcko_framework>  (896) 
O1c2ccccc2CCC1c3ccccc3

>  <np_likeness>  (896) 
1.53

>  <chemical_class>  (896) 
Flavonoids

>  <chemical_sub_class>  (896) 
O-methylated flavonoids

>  <chemical_super_class>  (896) 
Phenylpropanoids and polyketides

>  <direct_parent_classification>  (896) 
3'-O-methylated flavonoids

>  <np_classifier_pathway>  (896) 
Shikimates and Phenylpropanoids

>  <np_classifier_superclass>  (896) 
Flavonoids

>  <np_classifier_class>  (896) 
Flavanones

>  <np_classifier_is_glycoside>  (896) 
False

>  <organisms>  (896) 
Qualea labouriauana

>  <collections>  (896) 
Latin America dataset|NuBBEDB|WikiData Natural Products|ZINC NP

>  <dois>  (896) 
10.1016/0031-9422(81)85112-6

>  <synonyms>  (896) 
(2R)-5-Hydroxy-73'4'-trimethoxy-68-dimethylflavanone

>  <cas>  (896) 
nan

$$$$

     RDKit          2D

 54 58  0  0  0  0  0  0  0  0999 V2000
   -6.3495    2.2824    0.0000 C   0  0  0  0  0  0  0  0  0  0  0  0
   -4.8510    2.2141    0.0000 C   0  0  0  0  0  0  0  0  0  0  0  0
   -4.2028    3.5668    0.0000 O   0  0  0  0  0  0  0  0  0  0  0  0
   -4.1609    0.8823    0.0000 O   0  0  0  0  0  0  0  0  0  0  0  0
   -2.6625    0.8141    0.0000 C   0  0  0  0  0  0  0  0  0  0  0  0
   -1.9724   -0.5177    0.0000 C   0  0  0  0  0  0  0  0  0  0  0  0
   -2.7807   -1.7813    0.0000 C   0  0  0  0  0  0  0  0  0  0  0  0
   -4.2791   -1.7131    0.0000 O   0  0  0  0  0  0  0  0  0  0  0  0
   -5.0875   -2.9766    0.0000 C   0  0  0  0  0  0  0  0  0  0  0  0
   -6.5859   -2.9084    0.0000 C   0  0  0  0  0  0  0  0  0  0  0  0
   -4.3973   -4.3084    0.0000 O   0  0  0  0  0  0  0  0  0  0  0  0
   -2.0906   -3.1131    0.0000 C   0  0  0  0  0  0  0  0  0  0  0  0
   -2.7388   -4.4658    0.0000 O   0  0  0  0  0  0  0  0  0  0  0  0
   -0.5921   -3.1814    0.0000 C   0  0  0  0  0  0  0  0  0  0  0  0
   -1.2845   -1.8507    0.0000 C   0  0  0  0  0  0  0  0  0  0  0  0
   -2.7680   -1.6287    0.0000 O   0  0  0  0  0  0  0  0  0  0  0  0
   -3.7020   -2.8025    0.0000 C   0  0  0  0  0  0  0  0  0  0  0  0
   -5.1951   -2.9461    0.0000 C   0  0  0  0  0  0  0  0  0  0  0  0
   -3.3267   -4.2548    0.0000 O   0  0  0  0  0  0  0  0  0  0  0  0
   -0.4627   -0.3395    0.0000 C   0  0  0  0  0  0  0  0  0  0  0  0
   -0.0838   -1.7909    0.0000 O   0  0  0  0  0  0  0  0  0  0  0  0
    0.8874   -2.9341    0.0000 C   0  0  0  0  0  0  0  0  0  0  0  0
   -0.0111   -4.1352    0.0000 C   0  0  0  0  0  0  0  0  0  0  0  0
    2.2583   -3.5427    0.0000 C   0  0  0  0  0  0  0  0  0  0  0  0
    3.7576   -3.4962    0.0000 O   0  0  0  0  0  0  0  0  0  0  0  0
    5.0882   -2.8039    0.0000 C   0  0  0  0  0  0  0  0  0  0  0  0
    6.0594   -3.9471    0.0000 O   0  0  0  0  0  0  0  0  0  0  0  0
    5.9867   -1.6027    0.0000 C   0  0  0  0  0  0  0  0  0  0  0  0
    7.1174   -2.5884    0.0000 C   0  0  0  0  0  0  0  0  0  0  0  0
    8.5363   -2.1021    0.0000 C   0  0  0  0  0  0  0  0  0  0  0  0
    8.8247   -0.6301    0.0000 C   0  0  0  0  0  0  0  0  0  0  0  0
    7.6940    0.3556    0.0000 N   0  0  0  0  0  0  0  0  0  0  0  0
    6.2750   -0.1307    0.0000 C   0  0  0  0  0  0  0  0  0  0  0  0
    5.8961    1.3207    0.0000 C   0  0  0  0  0  0  0  0  0  0  0  0
    7.2267    2.0130    0.0000 C   0  0  0  0  0  0  0  0  0  0  0  0
    4.9250    2.4639    0.0000 C   0  0  0  0  0  0  0  0  0  0  0  0
    5.8234    3.6650    0.0000 C   0  0  0  0  0  0  0  0  0  0  0  0
    3.5540    3.0725    0.0000 C   0  0  0  0  0  0  0  0  0  0  0  0
    3.8423    4.5446    0.0000 O   0  0  0  0  0  0  0  0  0  0  0  0
    2.0547    3.0261    0.0000 O   0  0  0  0  0  0  0  0  0  0  0  0
    0.7241    2.3337    0.0000 C   0  0  0  0  0  0  0  0  0  0  0  0
   -1.3703    2.0096    0.0000 C   0  0  0  0  0  0  0  0  0  0  0  0
   -1.7988    3.4471    0.0000 O   0  0  0  0  0  0  0  0  0  0  0  0
   -0.7682    4.5370    0.0000 C   0  0  0  0  0  0  0  0  0  0  0  0
   -1.1967    5.9744    0.0000 C   0  0  0  0  0  0  0  0  0  0  0  0
    0.6910    4.1893    0.0000 O   0  0  0  0  0  0  0  0  0  0  0  0
   -2.4009    0.9198    0.0000 C   0  0  0  0  0  0  0  0  0  0  0  0
   -3.8601    1.2674    0.0000 O   0  0  0  0  0  0  0  0  0  0  0  0
   -4.2886    2.7049    0.0000 C   0  0  0  0  0  0  0  0  0  0  0  0
   -5.7477    3.0525    0.0000 C   0  0  0  0  0  0  0  0  0  0  0  0
   -3.1328    3.6610    0.0000 O   0  0  0  0  0  0  0  0  0  0  0  0
   -0.1744    1.1325    0.0000 C   0  0  0  0  0  0  0  0  0  0  0  0
   -1.6500    0.8631    0.0000 C   0  0  0  0  0  0  0  0  0  0  0  0
   -1.2493    2.1787    0.0000 O   0  0  0  0  0  0  0  0  0  0  0  0
  1  2  1  0
  2  3  2  0
  2  4  1  0
  4  5  1  0
  6  5  1  1
  6  7  1  0
  7  8  1  1
  8  9  1  0
  9 10  1  0
  9 11  2  0
  7 12  1  0
 12 13  1  6
 12 14  1  0
 14 15  1  0
 15 16  1  1
 16 17  1  0
 17 18  1  0
 17 19  2  0
 15 20  1  0
 20 21  1  6
 21 22  1  0
 22 23  1  6
 22 24  1  0
 24 25  1  0
 25 26  1  0
 26 27  2  0
 26 28  1  0
 28 29  2  0
 29 30  1  0
 30 31  2  0
 31 32  1  0
 32 33  2  0
 33 34  1  0
 34 35  1  0
 34 36  1  0
 36 37  1  0
 36 38  1  0
 38 39  2  0
 38 40  1  0
 41 40  1  6
 41 42  1  0
 42 43  1  1
 43 44  1  0
 44 45  1  0
 44 46  2  0
 42 47  1  0
 47 48  1  1
 48 49  1  0
 49 50  1  0
 49 51  2  0
 41 52  1  0
 52 53  1  6
 52 54  1  0
 20  6  1  0
 33 28  1  0
 47  6  1  0
 14 22  1  6
 52 20  1  0
M  END
>  <identifier>  (897) 
CNP0203723.3

>  <canonical_smiles>  (897) 
CC(=O)OC[C@]12[C@H](OC(C)=O)[C@@H](O)[C@@H]3[C@@H](OC(C)=O)[C@@]14O[C@@]3(C)COC(=O)C1=CC=CN=C1C(C)C(C)C(=O)O[C@@H]([C@H](OC(C)=O)[C@@H]2OC(C)=O)[C@]4(C)O

>  <standard_inchi>  (897) 
InChI=1S/C36H45NO17/c1-15-16(2)31(44)53-29-26(49-18(4)39)30(52-21(7)42)35(14-47-17(3)38)28(51-20(6)41)25(43)23-27(50-19(5)40)36(35,34(29,9)46)54-33(23,8)13-48-32(45)22-11-10-12-37-24(15)22/h10-12,15-16,23,25-30,43,46H,13-14H2,1-9H3/t15?,16?,23-,25+,26+,27-,28-,29+,30+,33+,34+,35-,36+/m1/s1

>  <standard_inchi_key>  (897) 
NLOQRURWORDOGK-FFSUENBLSA-N

>  <name>  (897) 
nan

>  <iupac_name>  (897) 
[(1~{S},3~{R},17~{S},18~{R},19~{R},20~{R},21~{S},22~{S},23~{R},24~{R},25~{S})-18,19,21,24-tetraacetoxy-22,25-dihydroxy-3,13,14,25-tetramethyl-6,15-dioxo-2,5,16-trioxa-11-azapentacyclo[15.7.1.0^{1,20}.0^{3,23}.0^{7,12}]pentacosa-7,9,11-trien-20-yl]methyl acetate

>  <annotation_level>  (897) 
4

>  <total_atom_count>  (897) 
99

>  <heavy_atom_count>  (897) 
54

>  <molecular_weight>  (897) 
763.75

>  <exact_molecular_weight>  (897) 
763.26875

>  <molecular_formula>  (897) 
C36H45NO17

>  <alogp>  (897) 
0.46

>  <topological_polar_surface_area>  (897) 
246.68

>  <rotatable_bond_count>  (897) 
6

>  <hydrogen_bond_acceptors>  (897) 
18

>  <hydrogen_bond_donors>  (897) 
2

>  <hydrogen_bond_acceptors_lipinski>  (897) 
18

>  <hydrogen_bond_donors_lipinski>  (897) 
2

>  <lipinski_rule_of_five_violations>  (897) 
2

>  <aromatic_rings_count>  (897) 
1

>  <qed_drug_likeliness>  (897) 
0.30

>  <formal_charge>  (897) 
0

>  <fractioncsp3>  (897) 
0.67

>  <number_of_minimal_rings>  (897) 
5

>  <van_der_walls_volume>  (897) 
nan

>  <contains_sugar>  (897) 
False

>  <contains_ring_sugars>  (897) 
False

>  <contains_linear_sugars>  (897) 
False

>  <murcko_framework>  (897) 
n1cccc2c1CCCOC3CCC4CCC5CC4(OC5COC2)C3

>  <np_likeness>  (897) 
2.00

>  <chemical_class>  (897) 
nan

>  <chemical_sub_class>  (897) 
Alkaloids and derivatives

>  <chemical_super_class>  (897) 
Alkaloids and derivatives

>  <direct_parent_classification>  (897) 
Alkaloids and derivatives

>  <np_classifier_pathway>  (897) 
Alkaloids

>  <np_classifier_superclass>  (897) 
Nicotinic acid alkaloids

>  <np_classifier_class>  (897) 
Agarofuran sesquiterpenoids

>  <np_classifier_is_glycoside>  (897) 
False

>  <organisms>  (897) 
Maytenus aquifolium|Monteverdia aquifolium

>  <collections>  (897) 
Latin America dataset|NuBBEDB|WikiData Natural Products

>  <dois>  (897) 
10.1016/S0031-9422(97)00824-8

>  <synonyms>  (897) 
Aquifoliunine E-III

>  <cas>  (897) 
nan

$$$$

     RDKit          2D

 31 35  0  0  0  0  0  0  0  0999 V2000
   -5.3515   -2.7279    0.0000 C   0  0  0  0  0  0  0  0  0  0  0  0
   -5.4789   -1.2333    0.0000 C   0  0  0  0  0  0  0  0  0  0  0  0
   -6.9287   -1.6183    0.0000 C   0  0  0  0  0  0  0  0  0  0  0  0
   -6.1098    0.1275    0.0000 C   0  0  0  0  0  0  0  0  0  0  0  0
   -5.2467    1.3543    0.0000 C   0  0  0  0  0  0  0  0  0  0  0  0
   -3.7527    1.2203    0.0000 C   0  0  0  0  0  0  0  0  0  0  0  0
   -4.3836    2.5811    0.0000 C   0  0  0  0  0  0  0  0  0  0  0  0
   -2.8896    2.4471    0.0000 C   0  0  0  0  0  0  0  0  0  0  0  0
   -1.3956    2.3130    0.0000 C   0  0  0  0  0  0  0  0  0  0  0  0
   -0.7647    0.9522    0.0000 C   0  0  0  0  0  0  0  0  0  0  0  0
    0.0984    2.1790    0.0000 C   0  0  0  0  0  0  0  0  0  0  0  0
    0.7293    0.8181    0.0000 C   0  0  0  0  0  0  0  0  0  0  0  0
    1.3602   -0.5428    0.0000 C   0  0  0  0  0  0  0  0  0  0  0  0
    0.4971   -1.7696    0.0000 C   0  0  0  0  0  0  0  0  0  0  0  0
   -0.9969   -1.6355    0.0000 C   0  0  0  0  0  0  0  0  0  0  0  0
   -1.6278   -0.2747    0.0000 C   0  0  0  0  0  0  0  0  0  0  0  0
   -2.4909   -1.5015    0.0000 C   0  0  0  0  0  0  0  0  0  0  0  0
   -3.1218   -0.1406    0.0000 C   0  0  0  0  0  0  0  0  0  0  0  0
   -3.9849   -1.3674    0.0000 C   0  0  0  0  0  0  0  0  0  0  0  0
    2.8542   -0.6768    0.0000 C   0  0  0  0  0  0  0  0  0  0  0  0
    1.9911   -1.9037    0.0000 C   0  0  0  0  0  0  0  0  0  0  0  0
    3.4851   -2.0377    0.0000 C   0  0  0  0  0  0  0  0  0  0  0  0
    4.9790   -2.1718    0.0000 C   0  0  0  0  0  0  0  0  0  0  0  0
    5.8421   -0.9450    0.0000 C   0  0  0  0  0  0  0  0  0  0  0  0
    7.3361   -1.0790    0.0000 O   0  0  0  0  0  0  0  0  0  0  0  0
    5.2113    0.4159    0.0000 C   0  0  0  0  0  0  0  0  0  0  0  0
    5.0838    1.9105    0.0000 C   0  0  0  0  0  0  0  0  0  0  0  0
    6.6610    0.8009    0.0000 C   0  0  0  0  0  0  0  0  0  0  0  0
    3.7173    0.5500    0.0000 C   0  0  0  0  0  0  0  0  0  0  0  0
    3.0864    1.9108    0.0000 C   0  0  0  0  0  0  0  0  0  0  0  0
    1.5924    2.0449    0.0000 C   0  0  0  0  0  0  0  0  0  0  0  0
  1  2  1  0
  2  3  1  0
  2  4  1  0
  4  5  1  0
  5  6  1  0
  6  7  1  1
  6  8  1  0
  8  9  1  0
  9 10  1  0
 10 11  1  1
 10 12  1  0
 12 13  2  0
 13 14  1  0
 14 15  1  0
 15 16  1  0
 16 17  1  6
 16 18  1  0
 18 19  1  0
 13 20  1  0
 20 21  1  1
 20 22  1  0
 22 23  1  0
 23 24  1  0
 24 25  1  1
 24 26  1  0
 26 27  1  0
 26 28  1  0
 26 29  1  0
 29 30  1  0
 30 31  1  0
 19  2  1  0
 29 20  1  0
 18  6  1  0
 16 10  1  0
 31 12  1  0
M  END
>  <identifier>  (898) 
CNP0382254.4

>  <canonical_smiles>  (898) 
CC1(C)CC[C@]2(C)CC[C@]3(C)C4=C(CC[C@@]3(C)C2C1)[C@@]1(C)CC[C@H](O)C(C)(C)C1CC4

>  <standard_inchi>  (898) 
InChI=1S/C30H50O/c1-25(2)15-16-27(5)17-18-29(7)21-9-10-22-26(3,4)24(31)12-13-28(22,6)20(21)11-14-30(29,8)23(27)19-25/h22-24,31H,9-19H2,1-8H3/t22?,23?,24-,27+,28+,29+,30-/m0/s1

>  <standard_inchi_key>  (898) 
MCSMMGJCXCBSKD-KTLHYBCNSA-N

>  <name>  (898) 
C19801

>  <iupac_name>  (898) 
(3~{S},6~{a}~{S},6~{b}~{S},8~{a}~{R},14~{b}~{S})-4,4,6~{a},6~{b},8~{a},11,11,14~{b}-octamethyl-1,2,3,4~{a},5,6,7,8,9,10,12,12~{a},13,14-tetradecahydropicen-3-ol

>  <annotation_level>  (898) 
5

>  <total_atom_count>  (898) 
81

>  <heavy_atom_count>  (898) 
31

>  <molecular_weight>  (898) 
426.73

>  <exact_molecular_weight>  (898) 
426.38617

>  <molecular_formula>  (898) 
C30H50O

>  <alogp>  (898) 
8.31

>  <topological_polar_surface_area>  (898) 
20.23

>  <rotatable_bond_count>  (898) 
0

>  <hydrogen_bond_acceptors>  (898) 
1

>  <hydrogen_bond_donors>  (898) 
1

>  <hydrogen_bond_acceptors_lipinski>  (898) 
1

>  <hydrogen_bond_donors_lipinski>  (898) 
1

>  <lipinski_rule_of_five_violations>  (898) 
1

>  <aromatic_rings_count>  (898) 
0

>  <qed_drug_likeliness>  (898) 
0.39

>  <formal_charge>  (898) 
0

>  <fractioncsp3>  (898) 
0.93

>  <number_of_minimal_rings>  (898) 
5

>  <van_der_walls_volume>  (898) 
nan

>  <contains_sugar>  (898) 
False

>  <contains_ring_sugars>  (898) 
False

>  <contains_linear_sugars>  (898) 
False

>  <murcko_framework>  (898) 
C12=C(CCC3CCCCC13)C4CCC5CCCCC5C4CC2

>  <np_likeness>  (898) 
3.23

>  <chemical_class>  (898) 
Organooxygen compounds

>  <chemical_sub_class>  (898) 
Alcohols and polyols

>  <chemical_super_class>  (898) 
Organic oxygen compounds

>  <direct_parent_classification>  (898) 
Cyclic alcohols and derivatives

>  <np_classifier_pathway>  (898) 
Terpenoids

>  <np_classifier_superclass>  (898) 
Triterpenoids

>  <np_classifier_class>  (898) 
Multiflorane triterpenoids

>  <np_classifier_is_glycoside>  (898) 
False

>  <organisms>  (898) 
Raulinoa echinata

>  <collections>  (898) 
Latin America dataset|NuBBEDB

>  <dois>  (898) 
10.1078/0944-7113-00016

>  <synonyms>  (898) 
Isomultiflorenol

>  <cas>  (898) 
nan

$$$$

     RDKit          2D

 23 26  0  0  0  0  0  0  0  0999 V2000
    4.5058   -2.1732    0.0000 C   0  0  0  0  0  0  0  0  0  0  0  0
    3.9741   -0.7706    0.0000 O   0  0  0  0  0  0  0  0  0  0  0  0
    2.4935   -0.5298    0.0000 C   0  0  0  0  0  0  0  0  0  0  0  0
    1.5447   -1.6916    0.0000 C   0  0  0  0  0  0  0  0  0  0  0  0
    0.0642   -1.4508    0.0000 C   0  0  0  0  0  0  0  0  0  0  0  0
   -0.4676   -0.0482    0.0000 C   0  0  0  0  0  0  0  0  0  0  0  0
    0.4812    1.1136    0.0000 C   0  0  0  0  0  0  0  0  0  0  0  0
    1.9618    0.8728    0.0000 C   0  0  0  0  0  0  0  0  0  0  0  0
    2.9106    2.0346    0.0000 O   0  0  0  0  0  0  0  0  0  0  0  0
    4.3911    1.7938    0.0000 C   0  0  0  0  0  0  0  0  0  0  0  0
   -1.9481    0.1926    0.0000 C   0  0  0  0  0  0  0  0  0  0  0  0
   -0.8287    0.8535    0.0000 C   0  0  0  0  0  0  0  0  0  0  0  0
   -0.4625    1.5648    0.0000 C   0  0  0  0  0  0  0  0  0  0  0  0
    1.7349    1.6708    0.0000 O   0  0  0  0  0  0  0  0  0  0  0  0
   -0.8955    2.2376    0.0000 C   0  0  0  0  0  0  0  0  0  0  0  0
   -1.6945    2.1990    0.0000 C   0  0  0  0  0  0  0  0  0  0  0  0
   -2.7599    1.4540    0.0000 C   0  0  0  0  0  0  0  0  0  0  0  0
   -4.2103    1.0718    0.0000 C   0  0  0  0  0  0  0  0  0  0  0  0
   -4.2951   -0.4259    0.0000 C   0  0  0  0  0  0  0  0  0  0  0  0
   -2.8969   -0.9692    0.0000 N   0  0  0  0  0  0  0  0  0  0  0  0
   -2.3652   -2.3718    0.0000 C   0  0  0  0  0  0  0  0  0  0  0  0
   -0.8846   -2.6126    0.0000 C   0  0  0  0  0  0  0  0  0  0  0  0
   -0.3529   -4.0152    0.0000 O   0  0  0  0  0  0  0  0  0  0  0  0
  1  2  1  0
  2  3  1  0
  3  4  2  0
  4  5  1  0
  5  6  2  0
  6  7  1  0
  7  8  2  0
  8  9  1  0
  9 10  1  0
  6 11  1  0
 11 12  1  6
 12 13  1  0
 13 14  1  6
 13 15  1  0
 15 16  2  0
 16 17  1  0
 17 18  2  0
 18 19  1  0
 19 20  1  0
 20 21  1  0
 21 22  1  0
 22 23  1  6
  8  3  1  0
 17 11  1  0
 22  5  1  0
 20 11  1  0
M  END
>  <identifier>  (899) 
CNP0238248.1

>  <canonical_smiles>  (899) 
COC1=CC2=C(C=C1OC)[C@]13C[C@@H](O)C=CC1=CCN3C[C@H]2O

>  <standard_inchi>  (899) 
InChI=1S/C18H21NO4/c1-22-16-7-13-14(8-17(16)23-2)18-9-12(20)4-3-11(18)5-6-19(18)10-15(13)21/h3-5,7-8,12,15,20-21H,6,9-10H2,1-2H3/t12-,15+,18-/m0/s1

>  <standard_inchi_key>  (899) 
LRCYONYSPOTFTD-PNPHSEOMSA-N

>  <name>  (899) 
(+)-11alpha-hydroxyerytravine

>  <iupac_name>  (899) 
(2~{R},9~{S},13~{b}~{S})-11,12-dimethoxy-2,6,8,9-tetrahydro-1~{H}-indolo[7~{a},1-a]isoquinoline-2,9-diol

>  <annotation_level>  (899) 
5

>  <total_atom_count>  (899) 
44

>  <heavy_atom_count>  (899) 
23

>  <molecular_weight>  (899) 
315.37

>  <exact_molecular_weight>  (899) 
315.14706

>  <molecular_formula>  (899) 
C18H21NO4

>  <alogp>  (899) 
1.51

>  <topological_polar_surface_area>  (899) 
62.16

>  <rotatable_bond_count>  (899) 
2

>  <hydrogen_bond_acceptors>  (899) 
5

>  <hydrogen_bond_donors>  (899) 
2

>  <hydrogen_bond_acceptors_lipinski>  (899) 
5

>  <hydrogen_bond_donors_lipinski>  (899) 
2

>  <lipinski_rule_of_five_violations>  (899) 
0

>  <aromatic_rings_count>  (899) 
1

>  <qed_drug_likeliness>  (899) 
0.87

>  <formal_charge>  (899) 
0

>  <fractioncsp3>  (899) 
0.44

>  <number_of_minimal_rings>  (899) 
4

>  <van_der_walls_volume>  (899) 
283.16

>  <contains_sugar>  (899) 
False

>  <contains_ring_sugars>  (899) 
False

>  <contains_linear_sugars>  (899) 
False

>  <murcko_framework>  (899) 
c1ccc2c(c1)CCN3CC=C4C=CCCC423

>  <np_likeness>  (899) 
2.55

>  <chemical_class>  (899) 
Erythrina alkaloids

>  <chemical_sub_class>  (899) 
Erythrinanes

>  <chemical_super_class>  (899) 
Alkaloids and derivatives

>  <direct_parent_classification>  (899) 
Erythrinanes

>  <np_classifier_pathway>  (899) 
Alkaloids

>  <np_classifier_superclass>  (899) 
Lysine alkaloids

>  <np_classifier_class>  (899) 
Indolizidine alkaloids

>  <np_classifier_is_glycoside>  (899) 
False

>  <organisms>  (899) 
Erythrina mulungu

>  <collections>  (899) 
ChemSpider NPs|KNApSaCK|Latin America dataset|NPASS|NuBBEDB|Super Natural II|WikiData Natural Products|ZINC NP

>  <dois>  (899) 
10.1021/NP060254J|10.1021/np060254j

>  <synonyms>  (899) 
(+)-11\u221a\u00e9\u00ac\u00b1-Hydroxyerythravine|(+)-11alpha-Hydroxyerythravine|CHEMBL218056|SCHEMBL14021743

>  <cas>  (899) 
nan

$$$$

     RDKit          2D

 30 32  0  0  0  0  0  0  0  0999 V2000
   -3.4950    3.9928    0.0000 C   0  0  0  0  0  0  0  0  0  0  0  0
   -4.5256    2.9029    0.0000 O   0  0  0  0  0  0  0  0  0  0  0  0
   -4.0970    1.4654    0.0000 C   0  0  0  0  0  0  0  0  0  0  0  0
   -2.6378    1.1179    0.0000 C   0  0  0  0  0  0  0  0  0  0  0  0
   -2.2092   -0.3196    0.0000 C   0  0  0  0  0  0  0  0  0  0  0  0
   -0.7500   -0.6671    0.0000 C   0  0  0  0  0  0  0  0  0  0  0  0
   -0.3214   -2.1046    0.0000 C   0  0  0  0  0  0  0  0  0  0  0  0
    1.1378   -2.4521    0.0000 C   0  0  0  0  0  0  0  0  0  0  0  0
    1.5665   -3.8896    0.0000 O   0  0  0  0  0  0  0  0  0  0  0  0
    2.1684   -1.3622    0.0000 C   0  0  0  0  0  0  0  0  0  0  0  0
    3.6276   -1.7097    0.0000 C   0  0  0  0  0  0  0  0  0  0  0  0
    4.0562   -3.1472    0.0000 O   0  0  0  0  0  0  0  0  0  0  0  0
    4.6581   -0.6198    0.0000 C   0  0  0  0  0  0  0  0  0  0  0  0
    6.1173   -0.9673    0.0000 C   0  0  0  0  0  0  0  0  0  0  0  0
    4.2295    0.8177    0.0000 C   0  0  0  0  0  0  0  0  0  0  0  0
    5.2601    1.9076    0.0000 O   0  0  0  0  0  0  0  0  0  0  0  0
    6.7193    1.5601    0.0000 C   0  0  0  0  0  0  0  0  0  0  0  0
    7.7498    2.6500    0.0000 C   0  0  0  0  0  0  0  0  0  0  0  0
    7.1479    0.1226    0.0000 O   0  0  0  0  0  0  0  0  0  0  0  0
    2.7703    1.1652    0.0000 C   0  0  0  0  0  0  0  0  0  0  0  0
    2.3417    2.6027    0.0000 C   0  0  0  0  0  0  0  0  0  0  0  0
    1.7398    0.0753    0.0000 C   0  0  0  0  0  0  0  0  0  0  0  0
    0.2806    0.4228    0.0000 O   0  0  0  0  0  0  0  0  0  0  0  0
   -3.2397   -1.4095    0.0000 C   0  0  0  0  0  0  0  0  0  0  0  0
   -4.6989   -1.0620    0.0000 C   0  0  0  0  0  0  0  0  0  0  0  0
   -5.1275    0.3755    0.0000 C   0  0  0  0  0  0  0  0  0  0  0  0
   -6.5867    0.7230    0.0000 O   0  0  0  0  0  0  0  0  0  0  0  0
   -7.6173   -0.3669    0.0000 C   0  0  0  0  0  0  0  0  0  0  0  0
   -9.0765   -0.0194    0.0000 C   0  0  0  0  0  0  0  0  0  0  0  0
   -7.1887   -1.8044    0.0000 O   0  0  0  0  0  0  0  0  0  0  0  0
  1  2  1  0
  2  3  1  0
  3  4  2  0
  4  5  1  0
  6  5  1  6
  6  7  1  0
  7  8  1  0
  8  9  2  0
  8 10  1  0
 10 11  2  0
 11 12  1  0
 11 13  1  0
 13 14  1  0
 13 15  2  0
 15 16  1  0
 16 17  1  0
 17 18  1  0
 17 19  2  0
 15 20  1  0
 20 21  1  0
 20 22  2  0
 22 23  1  0
  5 24  2  0
 24 25  1  0
 25 26  2  0
 26 27  1  0
 27 28  1  0
 28 29  1  0
 28 30  2  0
 26  3  1  0
 23  6  1  0
 22 10  1  0
M  END
>  <identifier>  (900) 
CNP0126364.1

>  <canonical_smiles>  (900) 
COC1=CC([C@H]2CC(=O)C3=C(O)C(C)=C(OC(C)=O)C(C)=C3O2)=CC=C1OC(C)=O

>  <standard_inchi>  (900) 
InChI=1S/C22H22O8/c1-10-20(26)19-15(25)9-17(30-22(19)11(2)21(10)29-13(4)24)14-6-7-16(28-12(3)23)18(8-14)27-5/h6-8,17,26H,9H2,1-5H3/t17-/m1/s1

>  <standard_inchi_key>  (900) 
AOLRIXVCSLTLKV-QGZVFWFLSA-N

>  <name>  (900) 
nan

>  <iupac_name>  (900) 
[4-[(2~{R})-7-acetoxy-5-hydroxy-6,8-dimethyl-4-oxo-chroman-2-yl]-2-methoxy-phenyl] acetate

>  <annotation_level>  (900) 
4

>  <total_atom_count>  (900) 
52

>  <heavy_atom_count>  (900) 
30

>  <molecular_weight>  (900) 
414.41

>  <exact_molecular_weight>  (900) 
414.13147

>  <molecular_formula>  (900) 
C22H22O8

>  <alogp>  (900) 
3.57

>  <topological_polar_surface_area>  (900) 
108.36

>  <rotatable_bond_count>  (900) 
4

>  <hydrogen_bond_acceptors>  (900) 
8

>  <hydrogen_bond_donors>  (900) 
1

>  <hydrogen_bond_acceptors_lipinski>  (900) 
8

>  <hydrogen_bond_donors_lipinski>  (900) 
1

>  <lipinski_rule_of_five_violations>  (900) 
0

>  <aromatic_rings_count>  (900) 
2

>  <qed_drug_likeliness>  (900) 
0.60

>  <formal_charge>  (900) 
0

>  <fractioncsp3>  (900) 
0.32

>  <number_of_minimal_rings>  (900) 
3

>  <van_der_walls_volume>  (900) 
nan

>  <contains_sugar>  (900) 
False

>  <contains_ring_sugars>  (900) 
False

>  <contains_linear_sugars>  (900) 
False

>  <murcko_framework>  (900) 
O1c2ccccc2CCC1c3ccccc3

>  <np_likeness>  (900) 
1.48

>  <chemical_class>  (900) 
Flavonoids

>  <chemical_sub_class>  (900) 
O-methylated flavonoids

>  <chemical_super_class>  (900) 
Phenylpropanoids and polyketides

>  <direct_parent_classification>  (900) 
3'-O-methylated flavonoids

>  <np_classifier_pathway>  (900) 
Shikimates and Phenylpropanoids

>  <np_classifier_superclass>  (900) 
Flavonoids

>  <np_classifier_class>  (900) 
Flavanones

>  <np_classifier_is_glycoside>  (900) 
False

>  <organisms>  (900) 
Qualea labouriauana

>  <collections>  (900) 
Latin America dataset|NuBBEDB|WikiData Natural Products|ZINC NP

>  <dois>  (900) 
10.1016/0031-9422(81)85112-6

>  <synonyms>  (900) 
(2R)-74'-Diacetate-5-hydroxy-3'-methoxy-68-dimethylflavanone

>  <cas>  (900) 
nan

$$$$

     RDKit          2D

 32 38  0  0  0  0  0  0  0  0999 V2000
   -5.1477   -0.8063    0.0000 C   0  0  0  0  0  0  0  0  0  0  0  0
   -4.6555    0.6106    0.0000 C   0  0  0  0  0  0  0  0  0  0  0  0
   -6.1363    0.8493    0.0000 C   0  0  0  0  0  0  0  0  0  0  0  0
   -4.6775    2.1105    0.0000 C   0  0  0  0  0  0  0  0  0  0  0  0
   -5.9875    2.8413    0.0000 O   0  0  0  0  0  0  0  0  0  0  0  0
   -3.3897    2.8795    0.0000 C   0  0  0  0  0  0  0  0  0  0  0  0
   -2.0797    2.1487    0.0000 C   0  0  0  0  0  0  0  0  0  0  0  0
   -0.6601    2.6331    0.0000 O   0  0  0  0  0  0  0  0  0  0  0  0
    0.2393    1.4327    0.0000 C   0  0  0  0  0  0  0  0  0  0  0  0
    1.7332    1.2979    0.0000 C   0  0  0  0  0  0  0  0  0  0  0  0
    2.3634   -0.0633    0.0000 C   0  0  0  0  0  0  0  0  0  0  0  0
    3.3506    1.0660    0.0000 C   0  0  0  0  0  0  0  0  0  0  0  0
    3.7967   -0.5058    0.0000 C   0  0  0  0  0  0  0  0  0  0  0  0
    4.9971    0.3936    0.0000 C   0  0  0  0  0  0  0  0  0  0  0  0
    4.9750    1.8935    0.0000 C   0  0  0  0  0  0  0  0  0  0  0  0
    6.3947    2.3779    0.0000 O   0  0  0  0  0  0  0  0  0  0  0  0
    7.2941    1.1775    0.0000 C   0  0  0  0  0  0  0  0  0  0  0  0
    6.4304   -0.0489    0.0000 C   0  0  0  0  0  0  0  0  0  0  0  0
    3.8187   -2.0057    0.0000 C   0  0  0  0  0  0  0  0  0  0  0  0
    2.3991   -2.4901    0.0000 C   0  0  0  0  0  0  0  0  0  0  0  0
    0.9098   -2.6688    0.0000 O   0  0  0  0  0  0  0  0  0  0  0  0
    1.4997   -1.2897    0.0000 C   0  0  0  0  0  0  0  0  0  0  0  0
    0.0058   -1.1548    0.0000 C   0  0  0  0  0  0  0  0  0  0  0  0
   -0.5973   -1.6761    0.0000 C   0  0  0  0  0  0  0  0  0  0  0  0
   -0.7445   -2.4537    0.0000 O   0  0  0  0  0  0  0  0  0  0  0  0
   -2.2279   -2.6769    0.0000 C   0  0  0  0  0  0  0  0  0  0  0  0
   -2.6703   -4.1101    0.0000 O   0  0  0  0  0  0  0  0  0  0  0  0
   -3.3272   -1.6564    0.0000 C   0  0  0  0  0  0  0  0  0  0  0  0
   -3.3455   -0.1202    0.0000 C   0  0  0  0  0  0  0  0  0  0  0  0
   -2.0577    0.6488    0.0000 C   0  0  0  0  0  0  0  0  0  0  0  0
   -1.8789   -0.8405    0.0000 C   0  0  0  0  0  0  0  0  0  0  0  0
   -0.6244    0.2063    0.0000 C   0  0  0  0  0  0  0  0  0  0  0  0
  1  2  1  0
  2  3  1  0
  2  4  1  0
  4  5  2  0
  4  6  1  0
  7  6  1  6
  7  8  1  0
  8  9  1  0
  9 10  1  6
 10 11  1  0
 11 12  1  6
 11 13  1  0
 13 14  1  6
 14 15  2  0
 15 16  1  0
 16 17  1  0
 17 18  2  0
 13 19  1  0
 20 19  1  1
 20 21  1  0
 22 21  1  1
 22 23  1  0
 23 24  1  1
 23 25  1  0
 25 26  1  0
 26 27  2  0
 26 28  1  0
 28 29  1  0
 29 30  1  0
 30 31  1  1
 30 32  1  0
 29  2  1  0
 30  7  1  0
 32  9  1  0
 22 11  1  0
 32 23  1  0
 18 14  1  0
 22 20  1  0
M  END
>  <identifier>  (901) 
CNP0219562.1

>  <canonical_smiles>  (901) 
CC1(C)C(=O)C[C@@H]2O[C@@H]3C[C@@]4(C)[C@H](C5=COC=C5)C[C@H]5O[C@]54[C@]4(C)OC(=O)CC1[C@@]2(C)C34

>  <standard_inchi>  (901) 
InChI=1S/C26H32O6/c1-22(2)16-9-20(28)32-25(5)21-15(30-18(10-17(22)27)24(16,21)4)11-23(3)14(13-6-7-29-12-13)8-19-26(23,25)31-19/h6-7,12,14-16,18-19,21H,8-11H2,1-5H3/t14-,15+,16?,18-,19+,21?,23-,24+,25+,26+/m0/s1

>  <standard_inchi_key>  (901) 
XYFUPHKWDUUJGG-QNZZVYMUSA-N

>  <name>  (901) 
nan

>  <iupac_name>  (901) 
(1~{R},3~{S},4~{S},6~{R},8~{S},9~{R},17~{S},18~{S})-4-(3-furyl)-3,9,14,14,18-pentamethyl-7,10,20-trioxahexacyclo[15.2.1.0^{3,8}.0^{6,8}.0^{9,19}.0^{13,18}]icosane-11,15-dione

>  <annotation_level>  (901) 
4

>  <total_atom_count>  (901) 
64

>  <heavy_atom_count>  (901) 
32

>  <molecular_weight>  (901) 
440.54

>  <exact_molecular_weight>  (901) 
440.21989

>  <molecular_formula>  (901) 
C26H32O6

>  <alogp>  (901) 
4.03

>  <topological_polar_surface_area>  (901) 
78.27

>  <rotatable_bond_count>  (901) 
1

>  <hydrogen_bond_acceptors>  (901) 
6

>  <hydrogen_bond_donors>  (901) 
0

>  <hydrogen_bond_acceptors_lipinski>  (901) 
6

>  <hydrogen_bond_donors_lipinski>  (901) 
0

>  <lipinski_rule_of_five_violations>  (901) 
0

>  <aromatic_rings_count>  (901) 
1

>  <qed_drug_likeliness>  (901) 
0.48

>  <formal_charge>  (901) 
0

>  <fractioncsp3>  (901) 
0.77

>  <number_of_minimal_rings>  (901) 
7

>  <van_der_walls_volume>  (901) 
nan

>  <contains_sugar>  (901) 
False

>  <contains_ring_sugars>  (901) 
False

>  <contains_linear_sugars>  (901) 
False

>  <murcko_framework>  (901) 
o1ccc(c1)C2CC3OC34C5OCCC6CCCC7OC(CC24)C5C76

>  <np_likeness>  (901) 
3.19

>  <chemical_class>  (901) 
Prenol lipids

>  <chemical_sub_class>  (901) 
Triterpenoids

>  <chemical_super_class>  (901) 
Lipids and lipid-like molecules

>  <direct_parent_classification>  (901) 
Limonoids

>  <np_classifier_pathway>  (901) 
Terpenoids

>  <np_classifier_superclass>  (901) 
Triterpenoids

>  <np_classifier_class>  (901) 
Limonoids

>  <np_classifier_is_glycoside>  (901) 
False

>  <organisms>  (901) 
Toona ciliata

>  <collections>  (901) 
Latin America dataset|NuBBEDB|WikiData Natural Products

>  <dois>  (901) 
10.1016/S0031-9422(97)00872-8

>  <synonyms>  (901) 
toonafolin

>  <cas>  (901) 
nan

$$$$

     RDKit          2D

 24 26  0  0  0  0  0  0  0  0999 V2000
   -3.8636    3.7194    0.0000 C   0  0  0  0  0  0  0  0  0  0  0  0
   -4.6617    2.4493    0.0000 O   0  0  0  0  0  0  0  0  0  0  0  0
   -3.9608    1.1231    0.0000 C   0  0  0  0  0  0  0  0  0  0  0  0
   -2.4618    1.0671    0.0000 C   0  0  0  0  0  0  0  0  0  0  0  0
   -1.7609   -0.2591    0.0000 C   0  0  0  0  0  0  0  0  0  0  0  0
   -0.2620   -0.3152    0.0000 C   0  0  0  0  0  0  0  0  0  0  0  0
    0.4389   -1.6414    0.0000 C   0  0  0  0  0  0  0  0  0  0  0  0
   -0.3591   -2.9114    0.0000 O   0  0  0  0  0  0  0  0  0  0  0  0
   -1.8581   -2.8554    0.0000 C   0  0  0  0  0  0  0  0  0  0  0  0
    1.9379   -1.6974    0.0000 C   0  0  0  0  0  0  0  0  0  0  0  0
    2.6388   -3.0236    0.0000 O   0  0  0  0  0  0  0  0  0  0  0  0
    2.7359   -0.4273    0.0000 C   0  0  0  0  0  0  0  0  0  0  0  0
    4.2349   -0.4834    0.0000 C   0  0  0  0  0  0  0  0  0  0  0  0
    4.9358   -1.8096    0.0000 O   0  0  0  0  0  0  0  0  0  0  0  0
    5.0329    0.7867    0.0000 C   0  0  0  0  0  0  0  0  0  0  0  0
    4.3320    2.1128    0.0000 C   0  0  0  0  0  0  0  0  0  0  0  0
    5.1301    3.3829    0.0000 O   0  0  0  0  0  0  0  0  0  0  0  0
    2.8331    2.1689    0.0000 C   0  0  0  0  0  0  0  0  0  0  0  0
    2.0350    0.8988    0.0000 C   0  0  0  0  0  0  0  0  0  0  0  0
    0.5361    0.9549    0.0000 O   0  0  0  0  0  0  0  0  0  0  0  0
   -2.5590   -1.5292    0.0000 C   0  0  0  0  0  0  0  0  0  0  0  0
   -4.0579   -1.4731    0.0000 C   0  0  0  0  0  0  0  0  0  0  0  0
   -4.7588   -0.1469    0.0000 C   0  0  0  0  0  0  0  0  0  0  0  0
   -6.2578   -0.0909    0.0000 O   0  0  0  0  0  0  0  0  0  0  0  0
  1  2  1  0
  2  3  1  0
  3  4  2  0
  4  5  1  0
  5  6  1  0
  6  7  2  0
  7  8  1  0
  8  9  1  0
  7 10  1  0
 10 11  2  0
 10 12  1  0
 12 13  2  0
 13 14  1  0
 13 15  1  0
 15 16  2  0
 16 17  1  0
 16 18  1  0
 18 19  2  0
 19 20  1  0
  5 21  2  0
 21 22  1  0
 22 23  2  0
 23 24  1  0
 23  3  1  0
 20  6  1  0
 19 12  1  0
M  END
>  <identifier>  (902) 
CNP0304960.0

>  <canonical_smiles>  (902) 
COC1=CC(C2=C(OC)C(=O)C3=C(O)C=C(O)C=C3O2)=CC=C1O

>  <standard_inchi>  (902) 
InChI=1S/C17H14O7/c1-22-12-5-8(3-4-10(12)19)16-17(23-2)15(21)14-11(20)6-9(18)7-13(14)24-16/h3-7,18-20H,1-2H3

>  <standard_inchi_key>  (902) 
FMEHGPQTMOPUGM-UHFFFAOYSA-N

>  <name>  (902) 
Quercetin 3,3'-dimethyl ether

>  <iupac_name>  (902) 
5,7-dihydroxy-2-(4-hydroxy-3-methoxy-phenyl)-3-methoxy-chromen-4-one

>  <annotation_level>  (902) 
5

>  <total_atom_count>  (902) 
38

>  <heavy_atom_count>  (902) 
24

>  <molecular_weight>  (902) 
330.29

>  <exact_molecular_weight>  (902) 
330.07395

>  <molecular_formula>  (902) 
C17H14O7

>  <alogp>  (902) 
2.59

>  <topological_polar_surface_area>  (902) 
109.36

>  <rotatable_bond_count>  (902) 
3

>  <hydrogen_bond_acceptors>  (902) 
7

>  <hydrogen_bond_donors>  (902) 
3

>  <hydrogen_bond_acceptors_lipinski>  (902) 
7

>  <hydrogen_bond_donors_lipinski>  (902) 
3

>  <lipinski_rule_of_five_violations>  (902) 
0

>  <aromatic_rings_count>  (902) 
3

>  <qed_drug_likeliness>  (902) 
0.68

>  <formal_charge>  (902) 
0

>  <fractioncsp3>  (902) 
0.12

>  <number_of_minimal_rings>  (902) 
3

>  <van_der_walls_volume>  (902) 
273.16

>  <contains_sugar>  (902) 
False

>  <contains_ring_sugars>  (902) 
False

>  <contains_linear_sugars>  (902) 
False

>  <murcko_framework>  (902) 
O1c2ccccc2CC=C1c3ccccc3

>  <np_likeness>  (902) 
1.46

>  <chemical_class>  (902) 
Flavonoids

>  <chemical_sub_class>  (902) 
O-methylated flavonoids

>  <chemical_super_class>  (902) 
Phenylpropanoids and polyketides

>  <direct_parent_classification>  (902) 
3-O-methylated flavonoids

>  <np_classifier_pathway>  (902) 
Shikimates and Phenylpropanoids

>  <np_classifier_superclass>  (902) 
Flavonoids

>  <np_classifier_class>  (902) 
Flavonols

>  <np_classifier_is_glycoside>  (902) 
False

>  <organisms>  (902) 
Acacia neovernicosa|Acrocarpia paniculata|Agapanthus africanus|Ajania fruticulosa|Anarthria scabra|Anodendron affine|Apis mellifera|Artemisia brevifolia|Astragalus alopecurus|Austroplenckia populnea|Baccharis kingii|Balsamorhiza hookeri|Barosma crenulata|Bipolaris sorokiniana|Calceolaria spp.|Cedrela salvadorensis|Centipeda Minima|Centipeda minima|Chiliadenus iphionoides|Chiliadenus montanus|Chrysomela tremula|Chrysothamnus humilis|Chrysothamnus viscidiflorus|Clathria basilana|Cleome amblyocarpa|Cleome amplyocarpa|Cotoneaster microphylla|Cyperus alopecuroides|Cystoclonium purpureum|Delphinium brownii|Dittrichia viscosa|Dovyalis abyssinica|Eremosis triflosculosa|Ericameria nauseosa|Eucalyptus cordata|Eucryphia|Eucryphia lucida|Fagraea fragrans|Fouquieria splendens|Fritillaria ussuriensis|Garcinia cambogia|Geraea viscida|Glycyrrhiza Uralensis|Glycyrrhiza echinata|Glycyrrhiza uralensis|Gochnatia glutinosa|Grindelia camporum|Grindelia hirsutula|Gutierrezia microcephala|Halimodendron halodendron|Haplopappus integerrimus|Heliotropium sinuatum|Heliotropium stenophyllum|Hertia cheirifolia|Iboza riparia|Isodon coetsa|Isodon serra|Jasonia montana|Kleinhovia hospita|Knautia arvensis|Laggera pterodonta|Larrea cuneifolia|Lentinus tigrinus|Licaria chrysophylla|Lycopodium contiguum|Melicope coodeana|Melicope perspicuinervia|Melicope reticulata|Mexican propolis|Millettia zechiana|Mimulus lewisii|Mirabilis viscosa|Mitracarpus scaber|Mundulea striata|Muntingia calabura|Nectandra rubra|Nephelium mutabile|Nicotiana tabacum|Nothofagus alpina|Nothofagus menziesii|Nothofagus nervosa|Ormosia hosiei|Ornithoglossum viride|Paeonia lactiflora|Panda oleosa|Pertusaria truncata|Petasites laevigatus|Phyllanthus virgatus|Pluchea sericea|Pocillopora eydouxi|Polanisia trachysperma|Polygala arillata|Polypodium decumanum|Prosopis fiebrigii|Prosopis hassleri|Pseudomonas viridiflava|Psiadia viscosa|Rhaponticum carthamoides|Rhizopus japonicus|Robinsonia gracilis|Rubia tetragona|Rubus phoenicolasius|Salvia|Salvia officinalis|Salvia pedicellata|Schizanthus tricolor|Senecio kaempferi|Shorea affinis|Siegesbeckia pubescens|Sigesbeckia glabrescens|Sphaeranthus confertifolius|Tetilla japonica|Ulva lactuca|Uvaria cherrevensis|Vachellia vernicosa|Varthemia iphionoides|Veratrum dahuricum|Viscum Album|Viscum album|Viscum coloratum|Viscum cruciatum|Vitex polygama|Wedelia biflora|Wollastonia biflora|Xanthocephalum gymnospermoides

>  <collections>  (902) 
ANPDB|Australian natural products|CMAUP (cCollective molecular activities of useful plants)|KNApSaCK|Latin America dataset|NANPDB (Natural Products from Northern African Sources)|NPACT|NPASS|NPEdia|NuBBEDB|Phyto4Health|Super Natural II|TCMID (Traditional Chinese Medicine Integrated Database)|TIPdb (database of Taiwan indigenous plants)|UNPD (Universal Natural Products Database)|VietHerb|WikiData Natural Products|ZINC NP

>  <dois>  (902) 
10.1007/S10600-007-0233-8|10.1007/S10600-011-9821-8|10.1016/0003-9861(65)90017-2|10.1016/0031-9422(86)88032-3|10.1016/0031-9422(88)83128-5|10.1016/0031-9422(89)80041-X|10.1016/0031-9422(89)80084-6|10.1016/0031-9422(89)85071-X|10.1016/0031-9422(93)85152-H|10.1016/0031-9422(93)85152-h|10.1016/0305-1978(92)90015-6|10.1016/0305-1978(92)90084-Q|10.1016/J.BIOPHA.2022.113754|10.1016/J.PHYTOCHEM.2005.07.006|10.1016/J.PHYTOCHEM.2009.04.008|10.1016/S0031-9422(00)80497-5|10.1016/S0031-9422(00)81697-0|10.1016/S0031-9422(00)81782-3|10.1016/S0031-9422(00)82416-4|10.1016/S0031-9422(00)83176-3|10.1016/S0031-9422(00)86519-X|10.1016/S0031-9422(00)86899-5|10.1016/S0031-9422(00)94793-9|10.1016/S0031-9422(00)97976-7|10.1016/S0031-9422(00)98561-3|10.1016/S0031-9422(01)00389-2|10.1016/S0031-9422(01)00415-0|10.1016/S0031-9422(02)00060-2|10.1016/S0031-9422(02)00083-3|10.1016/S0031-9422(02)00666-0|10.1016/S0031-9422(03)00112-2|10.1016/S0031-9422(97)00139-8|10.1016/S0031-9422(99)00110-7|10.1016/S0305-1978(96)00081-6|10.1016/S0305-1978(99)00045-9|10.1016/s0305-1978(99)00045-9|10.1021/NP990009I|10.1021/np50050a065|10.1021/np900772m|10.1055/s-2007-971429|10.1071/CH9740187|10.1071/ch9740187|10.1246/CL.1982.957|10.1248/CPB.33.4091|10.1248/CPB.39.3272|10.1271/BBB.60132|10.1515/ZNC-1994-9-1022|10.1515/ZNC-2008-5-611|10.1515/znc-2008-5-611|10.3390/MOLECULES15095998

>  <synonyms>  (902) 
3,3'-Di-O-methylquercetin|3,3'-Dimethoxyquercetin|3,3'-Dimethylquercetol|3,3'-O-DIMETHYLQUERCETIN|3,3'-O-dimethyl quercetin|3-O-methylisorhamnetin|4',5,7-trihydroxy-3,3'-dimethoxyflavone|4382-17-6|4H-1-Benzopyran-4-one, 5,7-dihydroxy-2-(4-hydroxy-3-methoxyphenyl)-3-methoxy-|5,7,4'-Trihydroxy-3,3'-dimethoxyflavone|5,7-dihydroxy-2-(4-hydroxy-3-methoxyphenyl)-3-methoxy-4H-1-benzopyran-4-one|5,7-dihydroxy-2-(4-hydroxy-3-methoxyphenyl)-3-methoxychromen-4-one|AKOS040762258|CHEBI:146138|CHEMBL511363|CS-0158831|DS-011102|DTXSID60195941|E87214|FMEHGPQTMOPUGM-UHFFFAOYSA-N|Flavone, 4',5,7-trihydroxy-3,3'-dimethoxy-|HY-N9135|J03N0KJ42I|LMPK12112752|NS00094748|NSC 254669|Q27280983|Quercetin-3,3-dimethyl ether|SCHEMBL1252850|UNII-J03N0KJ42I

>  <cas>  (902) 
4382-17-6

$$$$

     RDKit          2D

 41 43  0  0  0  0  0  0  0  0999 V2000
    7.3483   -1.6288    0.0000 C   0  0  0  0  0  0  0  0  0  0  0  0
    5.8484   -1.6395    0.0000 C   0  0  0  0  0  0  0  0  0  0  0  0
    5.1077   -2.9439    0.0000 C   0  0  0  0  0  0  0  0  0  0  0  0
    5.8670   -4.2375    0.0000 C   0  0  0  0  0  0  0  0  0  0  0  0
    3.6077   -2.9546    0.0000 C   0  0  0  0  0  0  0  0  0  0  0  0
    2.8484   -1.6610    0.0000 C   0  0  0  0  0  0  0  0  0  0  0  0
    1.3485   -1.6717    0.0000 C   0  0  0  0  0  0  0  0  0  0  0  0
    1.6195   -3.1470    0.0000 C   0  0  0  0  0  0  0  0  0  0  0  0
    1.5984   -0.1927    0.0000 C   0  0  0  0  0  0  0  0  0  0  0  0
    3.0042    0.3304    0.0000 C   0  0  0  0  0  0  0  0  0  0  0  0
    0.4424    0.7632    0.0000 C   0  0  0  0  0  0  0  0  0  0  0  0
    0.6923    2.2423    0.0000 O   0  0  0  0  0  0  0  0  0  0  0  0
    2.0981    2.7654    0.0000 C   0  0  0  0  0  0  0  0  0  0  0  0
    3.2541    1.8095    0.0000 O   0  0  0  0  0  0  0  0  0  0  0  0
    2.3480    4.2444    0.0000 C   0  0  0  0  0  0  0  0  0  0  0  0
    3.7538    4.7675    0.0000 C   0  0  0  0  0  0  0  0  0  0  0  0
    4.0037    6.2466    0.0000 C   0  0  0  0  0  0  0  0  0  0  0  0
   -0.9634    0.2401    0.0000 C   0  0  0  0  0  0  0  0  0  0  0  0
   -2.1194    1.1960    0.0000 O   0  0  0  0  0  0  0  0  0  0  0  0
   -1.8695    2.6751    0.0000 C   0  0  0  0  0  0  0  0  0  0  0  0
   -3.0254    3.6310    0.0000 C   0  0  0  0  0  0  0  0  0  0  0  0
   -0.6320    3.5228    0.0000 O   0  0  0  0  0  0  0  0  0  0  0  0
   -1.2133   -1.2389    0.0000 C   0  0  0  0  0  0  0  0  0  0  0  0
   -2.6191   -1.7620    0.0000 C   0  0  0  0  0  0  0  0  0  0  0  0
   -2.8690   -3.2411    0.0000 C   0  0  0  0  0  0  0  0  0  0  0  0
   -1.7131   -4.1970    0.0000 C   0  0  0  0  0  0  0  0  0  0  0  0
   -1.9629   -5.6761    0.0000 O   0  0  0  0  0  0  0  0  0  0  0  0
   -3.3688   -6.1992    0.0000 C   0  0  0  0  0  0  0  0  0  0  0  0
   -0.3072   -3.6739    0.0000 C   0  0  0  0  0  0  0  0  0  0  0  0
   -0.0574   -2.1949    0.0000 C   0  0  0  0  0  0  0  0  0  0  0  0
   -3.5511   -0.5867    0.0000 C   0  0  0  0  0  0  0  0  0  0  0  0
   -5.0497   -0.6498    0.0000 O   0  0  0  0  0  0  0  0  0  0  0  0
   -5.8537    0.6166    0.0000 C   0  0  0  0  0  0  0  0  0  0  0  0
   -7.3524    0.5535    0.0000 C   0  0  0  0  0  0  0  0  0  0  0  0
   -5.1590    1.9460    0.0000 O   0  0  0  0  0  0  0  0  0  0  0  0
   -2.7212    0.6629    0.0000 O   0  0  0  0  0  0  0  0  0  0  0  0
   -1.2764    0.2597    0.0000 C   0  0  0  0  0  0  0  0  0  0  0  0
   -0.1010    1.1917    0.0000 O   0  0  0  0  0  0  0  0  0  0  0  0
   -0.3204    2.6755    0.0000 C   0  0  0  0  0  0  0  0  0  0  0  0
    0.8550    3.6075    0.0000 C   0  0  0  0  0  0  0  0  0  0  0  0
   -1.5402    3.5486    0.0000 O   0  0  0  0  0  0  0  0  0  0  0  0
  1  2  2  0
  2  3  1  0
  3  4  1  0
  3  5  2  0
  5  6  1  0
  6  7  1  0
  7  8  1  6
  7  9  1  0
  9 10  1  1
  9 11  1  0
 11 12  1  6
 12 13  1  0
 13 14  2  0
 13 15  1  0
 15 16  1  0
 16 17  1  0
 11 18  1  0
 18 19  1  6
 19 20  1  0
 20 21  1  0
 20 22  2  0
 18 23  1  0
 23 24  1  6
 24 25  2  0
 25 26  1  0
 26 27  1  1
 27 28  1  0
 26 29  1  0
 30 29  1  6
 24 31  1  0
 31 32  1  1
 32 33  1  0
 33 34  1  0
 33 35  2  0
 31 36  1  0
 36 37  1  0
 37 38  1  1
 38 39  1  0
 39 40  1  0
 39 41  2  0
 30  7  1  0
 30 23  1  0
 37 23  1  0
M  END
>  <identifier>  (903) 
CNP0175084.1

>  <canonical_smiles>  (903) 
C=C/C(C)=C\C[C@]1(C)[C@H](C)[C@@H](OC(=O)CCC)[C@@H](OC(C)=O)[C@@]23C(=C[C@H](OC)C[C@@H]12)[C@@H](OC(C)=O)O[C@H]3OC(C)=O

>  <standard_inchi>  (903) 
InChI=1S/C31H44O10/c1-10-12-25(35)40-26-18(4)30(8,14-13-17(3)11-2)24-16-22(36-9)15-23-28(38-20(6)33)41-29(39-21(7)34)31(23,24)27(26)37-19(5)32/h11,13,15,18,22,24,26-29H,2,10,12,14,16H2,1,3-9H3/b17-13-/t18-,22+,24+,26-,27-,28+,29-,30-,31-/m1/s1

>  <standard_inchi_key>  (903) 
WJFSBKDDKDZRMR-HIXJRTQWSA-N

>  <name>  (903) 
nan

>  <iupac_name>  (903) 
[(1~{S},3~{R},5~{R},6~{a}~{S},7~{S},8~{S},9~{R},10~{S},10~{a}~{S})-1,3,10-triacetoxy-5-methoxy-7,8-dimethyl-7-[(2~{Z})-3-methylpenta-2,4-dienyl]-1,3,5,6,6~{a},8,9,10-octahydrobenzo[d]isobenzofuran-9-yl] butanoate

>  <annotation_level>  (903) 
5

>  <total_atom_count>  (903) 
85

>  <heavy_atom_count>  (903) 
41

>  <molecular_weight>  (903) 
576.68

>  <exact_molecular_weight>  (903) 
576.29345

>  <molecular_formula>  (903) 
C31H44O10

>  <alogp>  (903) 
4.56

>  <topological_polar_surface_area>  (903) 
123.66

>  <rotatable_bond_count>  (903) 
10

>  <hydrogen_bond_acceptors>  (903) 
10

>  <hydrogen_bond_donors>  (903) 
0

>  <hydrogen_bond_acceptors_lipinski>  (903) 
10

>  <hydrogen_bond_donors_lipinski>  (903) 
0

>  <lipinski_rule_of_five_violations>  (903) 
1

>  <aromatic_rings_count>  (903) 
0

>  <qed_drug_likeliness>  (903) 
0.16

>  <formal_charge>  (903) 
0

>  <fractioncsp3>  (903) 
0.68

>  <number_of_minimal_rings>  (903) 
3

>  <van_der_walls_volume>  (903) 
537.94

>  <contains_sugar>  (903) 
False

>  <contains_ring_sugars>  (903) 
False

>  <contains_linear_sugars>  (903) 
False

>  <murcko_framework>  (903) 
O1CC2=CCCC3CCCCC23C1

>  <np_likeness>  (903) 
3.18

>  <chemical_class>  (903) 
Prenol lipids

>  <chemical_sub_class>  (903) 
Diterpenoids

>  <chemical_super_class>  (903) 
Lipids and lipid-like molecules

>  <direct_parent_classification>  (903) 
Colensane and clerodane diterpenoids

>  <np_classifier_pathway>  (903) 
Terpenoids

>  <np_classifier_superclass>  (903) 
Diterpenoids

>  <np_classifier_class>  (903) 
Colensane and Clerodane diterpenoids

>  <np_classifier_is_glycoside>  (903) 
True

>  <organisms>  (903) 
Casearia sylvestris

>  <collections>  (903) 
ChemSpider NPs|Latin America dataset|NuBBEDB|Super Natural II|WikiData Natural Products|ZINC NP

>  <dois>  (903) 
10.1016/S0031-9422(98)00249-0

>  <synonyms>  (903) 
Casearin T

>  <cas>  (903) 
nan

$$$$

     RDKit          2D

 10 10  0  0  0  0  0  0  0  0999 V2000
    2.5988    0.9104    0.0000 O   0  0  0  0  0  0  0  0  0  0  0  0
    1.7848   -0.3495    0.0000 C   0  0  0  0  0  0  0  0  0  0  0  0
    2.4688   -1.6844    0.0000 O   0  0  0  0  0  0  0  0  0  0  0  0
    0.2866   -0.2745    0.0000 C   0  0  0  0  0  0  0  0  0  0  0  0
   -0.5274   -1.5344    0.0000 C   0  0  0  0  0  0  0  0  0  0  0  0
   -2.0255   -1.4594    0.0000 C   0  0  0  0  0  0  0  0  0  0  0  0
   -2.7096   -0.1244    0.0000 C   0  0  0  0  0  0  0  0  0  0  0  0
   -1.8956    1.1355    0.0000 C   0  0  0  0  0  0  0  0  0  0  0  0
   -0.3975    1.0604    0.0000 C   0  0  0  0  0  0  0  0  0  0  0  0
    0.4166    2.3203    0.0000 O   0  0  0  0  0  0  0  0  0  0  0  0
  1  2  2  0
  2  3  1  0
  2  4  1  0
  4  5  2  0
  5  6  1  0
  6  7  2  0
  7  8  1  0
  8  9  2  0
  9 10  1  0
  9  4  1  0
M  END
>  <identifier>  (904) 
CNP0230203.0

>  <canonical_smiles>  (904) 
O=C(O)C1=CC=CC=C1O

>  <standard_inchi>  (904) 
InChI=1S/C7H6O3/c8-6-4-2-1-3-5(6)7(9)10/h1-4,8H,(H,9,10)

>  <standard_inchi_key>  (904) 
YGSDEFSMJLZEOE-UHFFFAOYSA-N

>  <name>  (904) 
salicylic acid

>  <iupac_name>  (904) 
2-hydroxybenzoic acid

>  <annotation_level>  (904) 
5

>  <total_atom_count>  (904) 
16

>  <heavy_atom_count>  (904) 
10

>  <molecular_weight>  (904) 
138.12

>  <exact_molecular_weight>  (904) 
138.03169

>  <molecular_formula>  (904) 
C7H6O3

>  <alogp>  (904) 
1.09

>  <topological_polar_surface_area>  (904) 
57.53

>  <rotatable_bond_count>  (904) 
1

>  <hydrogen_bond_acceptors>  (904) 
2

>  <hydrogen_bond_donors>  (904) 
2

>  <hydrogen_bond_acceptors_lipinski>  (904) 
2

>  <hydrogen_bond_donors_lipinski>  (904) 
2

>  <lipinski_rule_of_five_violations>  (904) 
0

>  <aromatic_rings_count>  (904) 
1

>  <qed_drug_likeliness>  (904) 
0.61

>  <formal_charge>  (904) 
0

>  <fractioncsp3>  (904) 
0.00

>  <number_of_minimal_rings>  (904) 
1

>  <van_der_walls_volume>  (904) 
119.91

>  <contains_sugar>  (904) 
False

>  <contains_ring_sugars>  (904) 
False

>  <contains_linear_sugars>  (904) 
False

>  <murcko_framework>  (904) 
c1ccccc1

>  <np_likeness>  (904) 
0.14

>  <chemical_class>  (904) 
Benzene and substituted derivatives

>  <chemical_sub_class>  (904) 
Benzoic acids and derivatives

>  <chemical_super_class>  (904) 
Benzenoids

>  <direct_parent_classification>  (904) 
Salicylic acids

>  <np_classifier_pathway>  (904) 
Shikimates and Phenylpropanoids

>  <np_classifier_superclass>  (904) 
Phenolic acids (C6-C1)

>  <np_classifier_class>  (904) 
Simple phenolic acids

>  <np_classifier_is_glycoside>  (904) 
False

>  <organisms>  (904) 
Abies alba|Abies alba Mill.|Abrus pulchellus|Acacia sp.|Achillea millefolium|Achyranthes aspera|Aconitum carmichaelii|Aconitum coreanum|Aconitum japonicum|Actaea dahurica|Actaea heracleifolia|Actaea simplex|Actinidia deliciosa|Alibertia sessilis|Aloe sp.|Alstonia muelleriana|Althaea armeniaca|Althaea broussonetiifolia|Althaea cannabina|Althaea narbonensis|Althaea officinalis|Ammopiptanthus mongolicus|Amsinckia tessellata|Anacardium Occidentale|Anacardium occidentale|Anolis lineatopus|Arabidopsis thaliana|Artemisia Annua|Artemisia annua|Artemisia annua L.|Artemisia capillaris|Artemisia cina|Artemisia gmelinii|Artemisia sacrorum|Artemisia scoparia|Aspalathus linearis|Aspergillus mutabilis|Aucuba chinensis|Aurelia aurita|Ballota sp.|Betula pendula|Betula pubescens|Betula sp.|Bidens bipinnata|Bistorta vivipara|Bletilla striata|Brassica napus|Brassica rapa|Brickellia vernicosa|Broussonetia kazinoki|Broussonetia papyrifera|Burchardia multiflora|Burkholderia cepacia|Callicarpa integerrima|Camellia sinensis|Canarium album|Capsicum annuum|Carduus crispus|Carex sp.|Carica dodecaphylla|Carica papaya|Carum sp.|Cashew|Castanea sativa|Catharanthus roseus|Cedronella canariensis|Centaurea huber-morathii|Centella asiatica|Cephalotaxus fortunei|Cestrum nocturnum|Chamomilla recutita|Cheiranthus sp.|Chlamydomonas reinhardtii|Cimicifuga foetida|Cimicifuga sp.|Cinnamomum sp.|Cinnamomum verum|Cinnamon|Citrullus lanatus|Citrus paradisi|Citrus reticulata|Citrus tangerina|Citrus unshiu|Citrus × paradisi|Coccinia sp.|Cordiera sessilis|Cordyceps sinensis|Coreopsis nodosa|Coriandrum sativum|Cornus sp.|Cossypium herbaceum|Crataegus laevigata|Crataegus monogyna|Crataegus oxyacantha L. (1753)|Crocus minimus|Crocus sativus|Cucumis sativus|Cunonia macrophylla|Curculigo pilosa|Curcuma longa|Cyamopsis sp.|Cynanchum chinense|Cynometra lujae|Dacrydium cupressinum|Dendrobium huoshanense|Dendrobium officinale|Desmodium gangeticum|Diospyros kaki|Diospyros lotus|Dipteryx odorata|Dischidia formosana|Dorema sp.|Drimia sanguinea|Ecklonia kurome|Elettaria cardamomum|Entada rheedei|Erylus trisphaerus|Escherichia coli|Eupatorium areolare|Euthamia graminifolia|FOOD SAKE|Fagopyrum esculentum|Felimida luteorosea|Filipendula sp.|Filipendula ulmaria|Flindersia laevicarpa C.T.White et Francis.|Foeniculum vulgare|Fragaria sp.|Fructus choerospondiatis|Fructus psoraleae corylifoliae|Galium aparine|Galium sp.|Gaultheria procumbens|Gaultheria sp.|Gaultheria yunnanensis|Geniostoma antherotrichum|Ginkgo biloba|Gleditsia caspica|Glehnia littoralis|Globularia sp.|Glycine tomentella|Gossypium herbaceum|Gracilaria textorii|Haematococcus lacustris|Handroanthus impetiginosum|Handroanthus impetiginosus|Haplophyllum ramosissimum|Harpephyllum afrum|Harpephyllum caffrum|Hedychium gardnerianum|Helichrysum mixtum|Heliotropium sarmentosum|Herba artemisiae scopariae|Herniaria|Heteroplexis microcephala|Homo sapiens|Hordeum vulgare|Humata pectinata|Hyacinthus sp.|Hydnellum zonatum|Hypoxylon rubiginosum|Imperata cylindrica var. major|Inula britannica|Iris|Isatis indigotica|Isatis tinctoria|Isodon japonica var. glaucocalyx|Isodon rubescens|Isodon scoparius|Juglans regia|Kali turgidum|Laggera alata|Laurus sp.|Lepidium sativum|Lithospermum erythrorhizon|Lupinus albus|Lysiana subfalcata|Macaranga peltata|Malva pucheina|Malva silvestris|Mangifera indica|Matricaria chamomilla|Melia azedarach|Melia azedarach var. toosendan|Melilotus sp.|Melissa sp.|Menispermum dauricum|Mentha X piperita|Menyanthes trifoliata|Metagentiana rhodantha|Momordica charantia|Momordica foetida|Morus alba|Myristica fragrans|Nelumbo nucifera|Nicotiana tabacum|Nicotiana undulata|Nidus vespae|Nostoc spongiaeforme|Oenothera biennis|Oenothera suaveolens|Ononis speciosa|Ophiocordyceps sinensis|Origanum sp.|Orthantha lutea|Oryza sativa|Osteospermum muricatum|Paeonia rockii|Paeonia suffruticosa|Panax ginseng|Panax schinseng|Parablechnum minus|Passiflora incarnata|Pelargonium graveolens|Peperomia vulcanica|Petiveria alliaceae|Phaeolus schweinitzii|Phaseolus vulgaris|Phyllanthus niruri|Phyllanthus sp.|Physalis edulis|Picea abies|Pimpinella villosa|Pinus edulis|Pinus mugo|Pinus pinaster|Pinus radiata|Piper sp.|Piptothrix pubens|Plantago Major|Plantago major|Platycarya strobilacea|Polygala senega|Polygonatum cyrtonema|Polygonatum falcatum|Polygonatum kingianum|Polygonatum sibiricum|Populus alba|Populus deltoides|Populus pseudosimonii|Premna tomentosa|Primula acaulis|Pseudomonas aeruginosa|Pseudomonas fluorescens|Pseudostellaria heterophylla|Pteris multifida|Pterocarya stenoptera|Pterocladiella tenuis|Punica granatum|Quercus alba|Radix moghaniae philippinensis|Rehmannia glutinosa|Rhaponticum carthamoides|Rorippa indica|Rorippa sylvestris|Rosa rugosa|Rosa sp.|Rosmarinus officinalis|Rubus chingii|Rubus coreanus|Rubus idaeus|Rudbeckia hirta var. pulcherrima|Saccharina japonica|Saccharomyces pastori|Sagittaria sagittifolia|Salix alba|Salix nigra|Salvia divaricata|Salvia officinalis|Salvia staminea|Satureja sp.|Sauromatum guttatum|Sauromatum venosum|Saussurea amara|Saussurea pricei|Schisandra chinensis|Secale cereale|Secamone afzelii|Securidaca inappendiculata|Senecio paludaffinis|Senna alexandrina|Senna reticulata|Sia ferox|Sideritis euboea|Sinapis alba|Sisyrinchium californicum|Solidago canadensis|Solidago gigantea|Solidago virgaurea|Sophora lehmanni|Sophora lehmannii|Sorbus tianschanica|Stephania elegans|Streptomyces PM9|Streptomyces flocculus|Streptomyces scabiei|Streptomyces scabies|Swertia angustifolia|Swertia swertopsis|Tabebuia avellanedae|Tabernaemontana divaricata|Tachigalia paniculata|Taxodium distichum|Taxus baccata|Taxus brevifolia|Thymus sp.|Thymus vulgaris|Tournefortia sarmentosa|Tragopogon orientalis|Tragopogon pratensis|Trichoderma koningi|Trigonella grandiflora|Tripolium pannonicum|Triticum aestivum|Tsuga chinensis|Tulipa gesneriana|Ulmus rubra|Usnea undulata|Utricularia australis|Uvaria calamistrata|Vaccinium macrocarpon|Vaccinium sp.|Viola sp.|Virgilia divaricata|Vitis vinifera|Wurmbea deserticola|Wurmbea dioica|Wurmbea inframediana|Wurmbea tenella|Xanthium orientale|Xanthium strumarium|Zingiber officinale|basil|broad bean|clove|garlic|liquorice|maize|marjoram|pomegranate|potato|soybean|tomato

>  <collections>  (904) 
ANPDB|Australian natural products|BIOFACQUIM|CMAUP (cCollective molecular activities of useful plants)|ChEBI NPs|ChemSpider NPs|DrugBankNP|ETM (Ethiopian Traditional Medicine) DB|Exposome-explorer|FooDB|GNPS (Global Natural Products Social Molecular Networking)|HIM (Herbal Ingredients in-vivo Metabolism database)|HIT (Herbal Ingredients Targets)|KNApSaCK|Latin America dataset|NANPDB (Natural Products from Northern African Sources)|NAPRORE-CR|NPASS|NPEdia|NuBBEDB|Phenol-explorer|Phyto4Health|PhytoLab phyproof® Reference Substances|PubChem NPs|ReSpect|StreptomeDB|Super Natural II|TCMDB-Taiwan (Traditional Chinese Medicine database)|TCMID (Traditional Chinese Medicine Integrated Database)|TIPdb (database of Taiwan indigenous plants)|UNPD (Universal Natural Products Database)|VietHerb|Watermelon|WikiData Natural Products

>  <dois>  (904) 
10.1002/(SICI)1099-1565(199801/02)9:1<35::AID-PCA379>3.0.CO;2-D|10.1002/ANGE.19790910924|10.1002/ELPS.201300646|10.1002/FFJ.2730100408|10.1002/HLCA.200490257|10.1002/J.1537-2197.1936.TB09011.X|10.1002/JSSC.200500003|10.1007/978-3-540-71095-0_3994|10.1007/BF00290369|10.1007/BF00381261|10.1007/BF00566073|10.1007/BF00575055|10.1007/BF00575727|10.1007/BF00598326|10.1007/BF00994606|10.1007/BF02671339|10.1007/BF02856441|10.1007/BF02908196|10.1007/S00217-011-1560-3|10.1007/S002170050544|10.1007/S00425-015-2460-8|10.1007/S10529-015-1825-1|10.1007/S10600-006-0064-Z|10.1007/S10600-010-9543-3|10.1007/S11033-011-0978-9|10.1007/S11240-014-0506-4|10.1007/S11306-014-0658-6|10.1007/S12038-017-9682-9|10.1007/s00425-015-2460-8|10.1016/0021-9673(95)00585-B|10.1016/0031-9422(88)80121-3|10.1016/0031-9422(89)85030-7|10.1016/0031-9422(93)85359-Y|10.1016/0031-9422(94)85056-9|10.1016/0031-9422(94)85095-X|10.1016/0031-9422(95)00005-R|10.1016/0031-9422(95)00768-7|10.1016/0098-8472(86)90054-7|10.1016/0305-1978(94)00092-U|10.1016/0378-8741(95)01328-8|10.1016/B978-0-12-394294-4.00006-7|10.1016/J.ARABJC.2013.12.011|10.1016/J.BMCL.2005.07.020|10.1016/J.FITOTE.2011.08.014|10.1016/J.FITOTE.2019.104271|10.1016/J.FOODCHEM.2020.128444|10.1016/J.FOODRES.2017.06.052|10.1016/J.PHYTOCHEM.2003.12.004|10.1016/J.PHYTOCHEM.2005.09.023|10.1016/J.PHYTOCHEM.2005.11.023|10.1016/J.PHYTOCHEM.2009.01.009|10.1016/J.PHYTOCHEM.2009.04.008|10.1016/J.PHYTOCHEM.2017.08.009|10.1016/J.PLAPHY.2015.04.008|10.1016/S0003-2670(97)00668-5|10.1016/S0021-9673(01)87655-X|10.1016/S0031-9422(00)82343-2|10.1016/S0031-9422(00)86043-4|10.1016/S0031-9422(00)88025-5|10.1016/S0031-9422(99)00578-6|10.1016/S0308-8146(02)00590-3|10.1016/S0308-8146(03)00127-4|10.1016/j.arabjc.2013.12.011|10.1016/j.fitote.2011.08.014|10.1016/j.foodchem.2020.128444|10.1016/s0031-9422(00)88199-6|10.1021/JF00002A039|10.1021/JF00111A051|10.1021/JF00123A028|10.1021/JF020055F|10.1021/JF020957G|10.1021/JF0636014|10.1021/JF60197A010|10.1021/JF60209A051|10.1021/JF60231A019|10.1021/JF960741C|10.1021/NP100902F|10.1021/NP50008A004|10.1021/NP50037A048|10.1021/NP50041A038|10.1021/NP50088A020|10.1021/NP50106A021|10.1021/NP50125A026|10.1021/NP900213W|10.1021/NP900252F|10.1021/NP9901332|10.1021/jf035073r|10.1021/jf101029a|10.1021/jf1017143|10.1021/np100902f|10.1021/np50106a021|10.1038/ki.2011.30|10.1039/J39670002100|10.1039/J39680000854|10.1046/J.1365-2621.1998.00219.X|10.1055/S-0028-1099839|10.1055/S-2006-957604|10.1055/S-2006-957644|10.1055/S-2006-958019|10.1055/S-2006-960092|10.1055/S-2007-969228|10.1055/S-2007-969319|10.1073/PNAS.92.10.4076|10.1080/01483919008049590|10.1080/10412905.1998.9700992|10.1080/1478641031000118906|10.1086/325089|10.1093/JAOAC/81.4.757|10.1093/JXB/ERZ422|10.1093/PCP/PCY091|10.1093/pcp/pcn183|10.1094/PHYTO.1998.88.7.692|10.1099/00222615-36-3-184|10.1104/PP.103.2.315|10.1104/PP.106.078428|10.1104/PP.108.2.633|10.1104/PP.109.3.1107|10.1104/PP.117.3.1095|10.1104/PP.118.2.565|10.1104/PP.69.2.522|10.1111/NPH.14412|10.1111/TPJ.12747|10.1111/tpj.12747|10.1126/SCIENCE.237.4822.1601|10.1126/SCIENCE.250.4983.1004|10.1128/AEM.01169-17|10.1128/JB.172.12.6713-6720.1990|10.1135/CCCC19901257|10.1177/154405910208100613|10.1246/BCSJ.60.981|10.1271/BBB.61.1674|10.1271/BBB.61.1995|10.1300/J133V04N01_05|10.1365/S10337-005-0622-8|10.1371/JOURNAL.PONE.0151350|10.14233/AJCHEM.2014.16143A|10.1515/HF.1999.096|10.1515/ZNB-1964-0902|10.1515/ZNB-1966-0509|10.1515/ZNC-2001-9-1012|10.15255/CABEQ.2015.2168|10.1590/S0102-695X2007000100002|10.1590/S0103-50532007000700017|10.3390/IJMS19041049|10.3390/MOLECULES15096244|10.3390/molecules27020483|10.3390/molecules27061860|10.3390/plants6040050|10.4268/CJCMM20130812|10.4268/CJCMM20141017|10.4268/CJCMM20142423|10.4268/CJCMM20150419|10.5586/ASBP.1985.037|10.5586/ASBP.1988.009|10.5586/ASBP.1995.007|10.5586/ASBP.1998.029|10.9734/EJMP/2013/4976

>  <synonyms>  (904) 
nan

>  <cas>  (904) 
69-72-7|29656-58-4|8052-31-1|25496-36-0

$$$$

     RDKit          2D

 40 43  0  0  0  0  0  0  0  0999 V2000
    5.6802    1.7048    0.0000 C   0  0  0  0  0  0  0  0  0  0  0  0
    4.2795    2.2415    0.0000 C   0  0  0  0  0  0  0  0  0  0  0  0
    3.8904    3.6901    0.0000 C   0  0  0  0  0  0  0  0  0  0  0  0
    4.8337    4.8564    0.0000 O   0  0  0  0  0  0  0  0  0  0  0  0
    2.3924    3.7677    0.0000 O   0  0  0  0  0  0  0  0  0  0  0  0
    1.8557    2.3670    0.0000 C   0  0  0  0  0  0  0  0  0  0  0  0
    0.3560    2.3399    0.0000 C   0  0  0  0  0  0  0  0  0  0  0  0
   -0.7755    1.3551    0.0000 C   0  0  0  0  0  0  0  0  0  0  0  0
   -2.0879    2.0815    0.0000 C   0  0  0  0  0  0  0  0  0  0  0  0
   -2.1150    3.5813    0.0000 O   0  0  0  0  0  0  0  0  0  0  0  0
   -1.0092   -0.1265    0.0000 C   0  0  0  0  0  0  0  0  0  0  0  0
   -1.5459   -1.5272    0.0000 C   0  0  0  0  0  0  0  0  0  0  0  0
   -2.9946   -1.9164    0.0000 C   0  0  0  0  0  0  0  0  0  0  0  0
   -4.0559   -0.8563    0.0000 C   0  0  0  0  0  0  0  0  0  0  0  0
   -3.6685    0.5928    0.0000 C   0  0  0  0  0  0  0  0  0  0  0  0
   -2.2199    0.9819    0.0000 O   0  0  0  0  0  0  0  0  0  0  0  0
   -4.7299    1.6528    0.0000 C   0  0  0  0  0  0  0  0  0  0  0  0
   -4.3425    3.1019    0.0000 C   0  0  0  0  0  0  0  0  0  0  0  0
   -6.1785    1.2637    0.0000 C   0  0  0  0  0  0  0  0  0  0  0  0
   -6.5659   -0.1854    0.0000 C   0  0  0  0  0  0  0  0  0  0  0  0
   -8.0145   -0.5746    0.0000 C   0  0  0  0  0  0  0  0  0  0  0  0
   -9.0758    0.4855    0.0000 C   0  0  0  0  0  0  0  0  0  0  0  0
   -8.4018   -2.0237    0.0000 O   0  0  0  0  0  0  0  0  0  0  0  0
   -5.5045   -1.2455    0.0000 C   0  0  0  0  0  0  0  0  0  0  0  0
   -5.8919   -2.6946    0.0000 O   0  0  0  0  0  0  0  0  0  0  0  0
   -0.3796   -2.4705    0.0000 C   0  0  0  0  0  0  0  0  0  0  0  0
   -0.4572   -3.9685    0.0000 O   0  0  0  0  0  0  0  0  0  0  0  0
    1.1827   -1.8993    0.0000 C   0  0  0  0  0  0  0  0  0  0  0  0
    1.2098   -3.3991    0.0000 C   0  0  0  0  0  0  0  0  0  0  0  0
    2.5827   -1.3609    0.0000 C   0  0  0  0  0  0  0  0  0  0  0  0
    3.3091   -0.0485    0.0000 C   0  0  0  0  0  0  0  0  0  0  0  0
    4.7908   -0.2823    0.0000 O   0  0  0  0  0  0  0  0  0  0  0  0
    5.3292   -1.6823    0.0000 C   0  0  0  0  0  0  0  0  0  0  0  0
    4.3859   -2.8486    0.0000 O   0  0  0  0  0  0  0  0  0  0  0  0
    6.8109   -1.9161    0.0000 C   0  0  0  0  0  0  0  0  0  0  0  0
    7.3493   -3.3161    0.0000 C   0  0  0  0  0  0  0  0  0  0  0  0
    7.7542   -0.7498    0.0000 C   0  0  0  0  0  0  0  0  0  0  0  0
    9.2358   -0.9835    0.0000 C   0  0  0  0  0  0  0  0  0  0  0  0
    3.0220    1.4237    0.0000 C   0  0  0  0  0  0  0  0  0  0  0  0
   -0.2359   -1.4118    0.0000 O   0  0  0  0  0  0  0  0  0  0  0  0
  1  2  2  0
  2  3  1  0
  3  4  2  0
  3  5  1  0
  6  5  1  1
  6  7  1  0
  7  8  2  0
  8  9  1  0
  9 10  1  0
  8 11  1  0
 11 12  2  0
 12 13  1  0
 13 14  1  0
 14 15  2  0
 15 16  1  0
 15 17  1  0
 17 18  1  0
 17 19  2  0
 19 20  1  0
 20 21  1  0
 21 22  1  0
 21 23  2  0
 20 24  2  0
 24 25  1  0
 12 26  1  0
 26 27  2  0
 26 28  1  0
 28 29  1  1
 28 30  1  0
 30 31  1  0
 31 32  1  6
 32 33  1  0
 33 34  2  0
 33 35  1  0
 35 36  1  0
 35 37  2  3
 37 38  1  0
 31 39  1  0
 28 40  1  0
 39  2  1  1
 39  6  1  0
 40 11  1  0
 24 14  1  0
M  END
>  <identifier>  (905) 
CNP0080464.1

>  <canonical_smiles>  (905) 
C=C1C(=O)O[C@@H]2/C=C(/CO)C3=C(CC4=C(O)C(C)=CC(C(C)=O)=C4O)C(=O)[C@@](C)(C[C@@H](OC(=O)C(C)=CC)[C@H]12)O3

>  <standard_inchi>  (905) 
InChI=1S/C30H32O10/c1-7-13(2)28(36)39-22-11-30(6)27(35)20(10-19-24(33)14(3)8-18(16(5)32)25(19)34)26(40-30)17(12-31)9-21-23(22)15(4)29(37)38-21/h7-9,21-23,31,33-34H,4,10-12H2,1-3,5-6H3/b13-7?,17-9-/t21-,22-,23-,30-/m1/s1

>  <standard_inchi_key>  (905) 
LSNAPVWIIXPAED-NQNGGHSMSA-N

>  <name>  (905) 
nan

>  <iupac_name>  (905) 
[(2~{Z},4~{R},8~{S},9~{R},11~{R})-13-[(3-acetyl-2,6-dihydroxy-5-methyl-phenyl)methyl]-2-(hydroxymethyl)-11-methyl-7-methylene-6,12-dioxo-5,14-dioxatricyclo[9.2.1.0^{4,8}]tetradeca-1(13),2-dien-9-yl] 2-methylbut-2-enoate

>  <annotation_level>  (905) 
4

>  <total_atom_count>  (905) 
72

>  <heavy_atom_count>  (905) 
40

>  <molecular_weight>  (905) 
552.58

>  <exact_molecular_weight>  (905) 
552.19955

>  <molecular_formula>  (905) 
C30H32O10

>  <alogp>  (905) 
3.06

>  <topological_polar_surface_area>  (905) 
156.66

>  <rotatable_bond_count>  (905) 
6

>  <hydrogen_bond_acceptors>  (905) 
10

>  <hydrogen_bond_donors>  (905) 
3

>  <hydrogen_bond_acceptors_lipinski>  (905) 
10

>  <hydrogen_bond_donors_lipinski>  (905) 
3

>  <lipinski_rule_of_five_violations>  (905) 
1

>  <aromatic_rings_count>  (905) 
1

>  <qed_drug_likeliness>  (905) 
0.27

>  <formal_charge>  (905) 
0

>  <fractioncsp3>  (905) 
0.40

>  <number_of_minimal_rings>  (905) 
4

>  <van_der_walls_volume>  (905) 
nan

>  <contains_sugar>  (905) 
False

>  <contains_ring_sugars>  (905) 
False

>  <contains_linear_sugars>  (905) 
False

>  <murcko_framework>  (905) 
O1C=2C=CC3OCCC3CCC1CC2Cc4ccccc4

>  <np_likeness>  (905) 
2.36

>  <chemical_class>  (905) 
Organooxygen compounds

>  <chemical_sub_class>  (905) 
Carbonyl compounds

>  <chemical_super_class>  (905) 
Organic oxygen compounds

>  <direct_parent_classification>  (905) 
Alkyl-phenylketones

>  <np_classifier_pathway>  (905) 
Terpenoids

>  <np_classifier_superclass>  (905) 
Sesquiterpenoids

>  <np_classifier_class>  (905) 
Germacrane sesquiterpenoids

>  <np_classifier_is_glycoside>  (905) 
False

>  <organisms>  (905) 
Aspergillus niger

>  <collections>  (905) 
Latin America dataset|NuBBEDB

>  <dois>  (905) 
10.1016/j.phytochem.2013.09.022

>  <synonyms>  (905) 
tert-butyl 2-(910-dihydro-9-hydroxy-10-oxophenanthren-9-yl)acetate

>  <cas>  (905) 
nan

$$$$

     RDKit          2D

 14 15  0  0  0  0  0  0  0  0999 V2000
    4.2882   -0.7199    0.0000 C   0  0  0  0  0  0  0  0  0  0  0  0
    2.8278   -0.3774    0.0000 C   0  0  0  0  0  0  0  0  0  0  0  0
    1.8010   -1.4708    0.0000 C   0  0  0  0  0  0  0  0  0  0  0  0
    0.3406   -1.1283    0.0000 C   0  0  0  0  0  0  0  0  0  0  0  0
   -0.6862   -2.2217    0.0000 C   0  0  0  0  0  0  0  0  0  0  0  0
   -2.1466   -1.8792    0.0000 C   0  0  0  0  0  0  0  0  0  0  0  0
   -2.5801   -0.4432    0.0000 C   0  0  0  0  0  0  0  0  0  0  0  0
   -4.0405   -0.1006    0.0000 O   0  0  0  0  0  0  0  0  0  0  0  0
   -1.5533    0.6503    0.0000 C   0  0  0  0  0  0  0  0  0  0  0  0
   -1.9868    2.0862    0.0000 O   0  0  0  0  0  0  0  0  0  0  0  0
   -0.0929    0.3077    0.0000 C   0  0  0  0  0  0  0  0  0  0  0  0
    0.9339    1.4011    0.0000 C   0  0  0  0  0  0  0  0  0  0  0  0
    0.5004    2.8371    0.0000 O   0  0  0  0  0  0  0  0  0  0  0  0
    2.3943    1.0586    0.0000 O   0  0  0  0  0  0  0  0  0  0  0  0
  2  1  1  6
  2  3  1  0
  3  4  1  0
  4  5  2  0
  5  6  1  0
  6  7  2  0
  7  8  1  0
  7  9  1  0
  9 10  1  0
  9 11  2  0
 11 12  1  0
 12 13  2  0
 12 14  1  0
 14  2  1  0
 11  4  1  0
M  END
>  <identifier>  (906) 
CNP0187546.2

>  <canonical_smiles>  (906) 
C[C@@H]1CC2=CC=C(O)C(O)=C2C(=O)O1

>  <standard_inchi>  (906) 
InChI=1S/C10H10O4/c1-5-4-6-2-3-7(11)9(12)8(6)10(13)14-5/h2-3,5,11-12H,4H2,1H3/t5-/m1/s1

>  <standard_inchi_key>  (906) 
NNADFONXCWKMRA-RXMQYKEDSA-N

>  <name>  (906) 
nan

>  <iupac_name>  (906) 
(3~{R})-7,8-dihydroxy-3-methyl-isochroman-1-one

>  <annotation_level>  (906) 
5

>  <total_atom_count>  (906) 
24

>  <heavy_atom_count>  (906) 
14

>  <molecular_weight>  (906) 
194.19

>  <exact_molecular_weight>  (906) 
194.05791

>  <molecular_formula>  (906) 
C10H10O4

>  <alogp>  (906) 
1.20

>  <topological_polar_surface_area>  (906) 
66.76

>  <rotatable_bond_count>  (906) 
0

>  <hydrogen_bond_acceptors>  (906) 
4

>  <hydrogen_bond_donors>  (906) 
2

>  <hydrogen_bond_acceptors_lipinski>  (906) 
4

>  <hydrogen_bond_donors_lipinski>  (906) 
2

>  <lipinski_rule_of_five_violations>  (906) 
0

>  <aromatic_rings_count>  (906) 
1

>  <qed_drug_likeliness>  (906) 
0.48

>  <formal_charge>  (906) 
0

>  <fractioncsp3>  (906) 
0.30

>  <number_of_minimal_rings>  (906) 
2

>  <van_der_walls_volume>  (906) 
167.42

>  <contains_sugar>  (906) 
False

>  <contains_ring_sugars>  (906) 
False

>  <contains_linear_sugars>  (906) 
False

>  <murcko_framework>  (906) 
O1Cc2ccccc2CC1

>  <np_likeness>  (906) 
1.75

>  <chemical_class>  (906) 
Benzopyrans

>  <chemical_sub_class>  (906) 
2-benzopyrans

>  <chemical_super_class>  (906) 
Organoheterocyclic compounds

>  <direct_parent_classification>  (906) 
2-benzopyrans

>  <np_classifier_pathway>  (906) 
Shikimates and Phenylpropanoids

>  <np_classifier_superclass>  (906) 
Coumarins

>  <np_classifier_class>  (906) 
Isocoumarins

>  <np_classifier_is_glycoside>  (906) 
False

>  <organisms>  (906) 
Penicillium|Penicillium sp.|Phonus arborescens|Prunus serrulata var. spontanea

>  <collections>  (906) 
CMAUP (cCollective molecular activities of useful plants)|ChemSpider NPs|Latin America dataset|NPASS|NuBBEDB|Super Natural II|WikiData Natural Products|ZINC NP

>  <dois>  (906) 
10.1016/J.PHYTOL.2010.11.003|10.1016/j.phytol.2010.11.003

>  <synonyms>  (906) 
(R)-7-Hydroxymellein

>  <cas>  (906) 
nan

$$$$

     RDKit          2D

 23 25  0  0  0  0  0  0  0  0999 V2000
   -6.0169   -2.3660    0.0000 C   0  0  0  0  0  0  0  0  0  0  0  0
   -4.5599   -2.7223    0.0000 O   0  0  0  0  0  0  0  0  0  0  0  0
   -3.5228   -1.6387    0.0000 C   0  0  0  0  0  0  0  0  0  0  0  0
   -3.9427   -0.1986    0.0000 C   0  0  0  0  0  0  0  0  0  0  0  0
   -2.9055    0.8850    0.0000 C   0  0  0  0  0  0  0  0  0  0  0  0
   -3.3255    2.3251    0.0000 O   0  0  0  0  0  0  0  0  0  0  0  0
   -4.7825    2.6814    0.0000 C   0  0  0  0  0  0  0  0  0  0  0  0
   -1.4485    0.5287    0.0000 C   0  0  0  0  0  0  0  0  0  0  0  0
   -0.4113    1.6124    0.0000 C   0  0  0  0  0  0  0  0  0  0  0  0
   -0.8313    3.0524    0.0000 O   0  0  0  0  0  0  0  0  0  0  0  0
    1.0457    1.2560    0.0000 C   0  0  0  0  0  0  0  0  0  0  0  0
    2.0829    2.3397    0.0000 O   0  0  0  0  0  0  0  0  0  0  0  0
    3.5399    1.9833    0.0000 C   0  0  0  0  0  0  0  0  0  0  0  0
    1.4656   -0.1840    0.0000 C   0  0  0  0  0  0  0  0  0  0  0  0
    2.9227   -0.5404    0.0000 C   0  0  0  0  0  0  0  0  0  0  0  0
    3.3426   -1.9804    0.0000 C   0  0  0  0  0  0  0  0  0  0  0  0
    4.7997   -2.3367    0.0000 C   0  0  0  0  0  0  0  0  0  0  0  0
    5.8368   -1.2531    0.0000 C   0  0  0  0  0  0  0  0  0  0  0  0
    5.4169    0.1869    0.0000 C   0  0  0  0  0  0  0  0  0  0  0  0
    3.9598    0.5433    0.0000 C   0  0  0  0  0  0  0  0  0  0  0  0
    0.4285   -1.2677    0.0000 O   0  0  0  0  0  0  0  0  0  0  0  0
   -1.0286   -0.9113    0.0000 C   0  0  0  0  0  0  0  0  0  0  0  0
   -2.0657   -1.9950    0.0000 C   0  0  0  0  0  0  0  0  0  0  0  0
  1  2  1  0
  2  3  1  0
  3  4  2  0
  4  5  1  0
  5  6  1  0
  6  7  1  0
  5  8  2  0
  8  9  1  0
  9 10  2  0
  9 11  1  0
 11 12  1  0
 12 13  1  0
 11 14  2  0
 14 15  1  0
 15 16  2  0
 16 17  1  0
 17 18  2  0
 18 19  1  0
 19 20  2  0
 14 21  1  0
 21 22  1  0
 22 23  2  0
 23  3  1  0
 22  8  1  0
 20 15  1  0
M  END
>  <identifier>  (907) 
CNP0160760.0

>  <canonical_smiles>  (907) 
COC1=CC(OC)=C2C(=O)C(OC)=C(C3=CC=CC=C3)OC2=C1

>  <standard_inchi>  (907) 
InChI=1S/C18H16O5/c1-20-12-9-13(21-2)15-14(10-12)23-17(18(22-3)16(15)19)11-7-5-4-6-8-11/h4-10H,1-3H3

>  <standard_inchi_key>  (907) 
CBTHKWVPSIGKMI-UHFFFAOYSA-N

>  <name>  (907) 
3,5,7-Trimethoxyflavone

>  <iupac_name>  (907) 
3,5,7-trimethoxy-2-phenyl-chromen-4-one

>  <annotation_level>  (907) 
5

>  <total_atom_count>  (907) 
39

>  <heavy_atom_count>  (907) 
23

>  <molecular_weight>  (907) 
312.32

>  <exact_molecular_weight>  (907) 
312.09977

>  <molecular_formula>  (907) 
C18H16O5

>  <alogp>  (907) 
3.49

>  <topological_polar_surface_area>  (907) 
57.90

>  <rotatable_bond_count>  (907) 
4

>  <hydrogen_bond_acceptors>  (907) 
5

>  <hydrogen_bond_donors>  (907) 
0

>  <hydrogen_bond_acceptors_lipinski>  (907) 
5

>  <hydrogen_bond_donors_lipinski>  (907) 
0

>  <lipinski_rule_of_five_violations>  (907) 
0

>  <aromatic_rings_count>  (907) 
3

>  <qed_drug_likeliness>  (907) 
0.74

>  <formal_charge>  (907) 
0

>  <fractioncsp3>  (907) 
0.17

>  <number_of_minimal_rings>  (907) 
3

>  <van_der_walls_volume>  (907) 
272.94

>  <contains_sugar>  (907) 
False

>  <contains_ring_sugars>  (907) 
False

>  <contains_linear_sugars>  (907) 
False

>  <murcko_framework>  (907) 
O1c2ccccc2CC=C1c3ccccc3

>  <np_likeness>  (907) 
0.81

>  <chemical_class>  (907) 
Flavonoids

>  <chemical_sub_class>  (907) 
O-methylated flavonoids

>  <chemical_super_class>  (907) 
Phenylpropanoids and polyketides

>  <direct_parent_classification>  (907) 
3-O-methylated flavonoids

>  <np_classifier_pathway>  (907) 
Shikimates and Phenylpropanoids

>  <np_classifier_superclass>  (907) 
Flavonoids

>  <np_classifier_class>  (907) 
Flavonols

>  <np_classifier_is_glycoside>  (907) 
False

>  <organisms>  (907) 
Aconitum variegatum|Amorphophallus konjac|Aniba riparia|Aniba santalodora|Astragalus circassicus|Beilschmiedia madang|Bethencourtia palmensis|Boesenbergia pandurata|Boesenbergia rotunda|Bombax anceps|Boswellia ovalifoliolata|Campanula choziatowskyi|Centaurea scoparia|Centaurea sonchifolia|Cheilanthes fragrans|Colchicum filifolium|Cynoglossum macrostylum|Dialium excelsum|Drymaria cordata|Dysidea fragilis|Erythrina hypaphorus|Esox lucius|Etmopterus spinax|Euphorbia hylonoma|Fadogia agrestis|Gomphrena martiana|Hardenbergia violacea|Helichrysum nitens|Heliotropium scabrum|Helleborus macranthus|Iris kashmiriana|Kaempferia parviflora|Lactarius mitissimus|Lemonia spectabilis|Lepechinia urbanii|Lonchocarpus chiricanus|Maclura cochinchinensis|Matricaria sabulosa|Matsucoccus josephi|Mentzelia decapetala|Mimosa pigra|Mucuna holtonii|Nepytia freemani|Orgyia pseudotsugata|Ostrya carpinifolia|Parmotrema nilgherrense|Petunia axillaris subsp. parodii|Podocarpus dacrydioides|Preussia terricola|Pterocaulon serrulatum|Pulsatilla chinensis|Quercus marilandica|Rubia akane|Salix babylonica|Salix rosmarinifolia|Salvia lavanduloides|Salvia patens|Salvia virgata|Senecio platyphylloides|Sphaeria rousseliana|Stephania dielsiana|Thalassiosira weissflogii|Zingiber officinale

>  <collections>  (907) 
CMAUP (cCollective molecular activities of useful plants)|ChEBI NPs|KNApSaCK|Latin America dataset|NPASS|NPEdia|NuBBEDB|Phyto4Health|Super Natural II|UNPD (Universal Natural Products Database)|WikiData Natural Products|ZINC NP

>  <dois>  (907) 
10.1002/JCCS.200200069|10.1007/S00217-018-3188-Z|10.1016/0031-9422(80)85135-1|10.1016/0031-9422(83)83075-1|10.1016/0031-9422(88)84087-1|10.1016/0305-1978(78)90024-8|10.1016/J.PHYTOCHEM.2008.09.001|10.1016/S0031-9422(00)88985-2|10.1016/S0031-9422(01)00451-4|10.1248/CPB.60.62|10.4067/S0717-97072010000300010

>  <synonyms>  (907) 
26964-29-4|3,5,7-Tri-O-methylgalangin|3,5,7-Trimethoxy-2-phenyl-4H-chromen-4-one|3,5,7-trimethoxy-2-phenyl-4H-1-benzopyran-4-one|3,5,7-trimethoxy-flavone|4H-1-Benzopyran-4-one, 3,5,7-trimethoxy-2-phenyl-|ACon1_000793|AKOS030530658|BDBM50049384|BRD-K89975061-001-01-6|C10045|CCG-214229|CHEBI:5263|CHEMBL75772|CS-0065329|Chromen-4-one, 3,5,7-trimethoxy-2-phenyl-|DTXSID20181461|EN300-7438486|Flavone, 3,5,7-trimethoxy-|GTPL402|Galangin 3,5,7-trimethyl ether|Galangin trimethyl ether|HY-118157|LMPK12111652|MEGxp0_001894|MRS928|NCGC00169354-01|Q27087799|SCHEMBL1664287|TS-08760|Thymidine 5'-(tetrahydrogen triphosphate), sodium salt (1:3)|Z2375617912

>  <cas>  (907) 
26964-29-4

$$$$

     RDKit          2D

 22 22  0  0  0  0  0  0  0  0999 V2000
  -12.9472   -0.0876    0.0000 C   0  0  0  0  0  0  0  0  0  0  0  0
  -11.6170    0.6055    0.0000 C   0  0  0  0  0  0  0  0  0  0  0  0
  -10.3516   -0.2000    0.0000 C   0  0  0  0  0  0  0  0  0  0  0  0
   -9.0213    0.4931    0.0000 C   0  0  0  0  0  0  0  0  0  0  0  0
   -7.7560   -0.3124    0.0000 C   0  0  0  0  0  0  0  0  0  0  0  0
   -6.4257    0.3807    0.0000 C   0  0  0  0  0  0  0  0  0  0  0  0
   -5.1603   -0.4248    0.0000 C   0  0  0  0  0  0  0  0  0  0  0  0
   -3.8300    0.2682    0.0000 C   0  0  0  0  0  0  0  0  0  0  0  0
   -2.5647   -0.5373    0.0000 C   0  0  0  0  0  0  0  0  0  0  0  0
   -1.2344    0.1558    0.0000 C   0  0  0  0  0  0  0  0  0  0  0  0
    0.0310   -0.6497    0.0000 C   0  0  0  0  0  0  0  0  0  0  0  0
    1.3612    0.0434    0.0000 C   0  0  0  0  0  0  0  0  0  0  0  0
    2.6266   -0.7621    0.0000 C   0  0  0  0  0  0  0  0  0  0  0  0
    3.9569   -0.0690    0.0000 C   0  0  0  0  0  0  0  0  0  0  0  0
    5.2223   -0.8745    0.0000 C   0  0  0  0  0  0  0  0  0  0  0  0
    6.5525   -0.1814    0.0000 C   0  0  0  0  0  0  0  0  0  0  0  0
    6.6174    1.3172    0.0000 C   0  0  0  0  0  0  0  0  0  0  0  0
    7.9477    2.0103    0.0000 C   0  0  0  0  0  0  0  0  0  0  0  0
    9.2131    1.2048    0.0000 C   0  0  0  0  0  0  0  0  0  0  0  0
    9.1482   -0.2938    0.0000 C   0  0  0  0  0  0  0  0  0  0  0  0
   10.4135   -1.0993    0.0000 O   0  0  0  0  0  0  0  0  0  0  0  0
    7.8179   -0.9869    0.0000 C   0  0  0  0  0  0  0  0  0  0  0  0
  1  2  1  0
  2  3  1  0
  3  4  1  0
  4  5  1  0
  5  6  1  0
  6  7  1  0
  7  8  1  0
  8  9  1  0
  9 10  1  0
 10 11  1  0
 11 12  1  0
 12 13  1  0
 13 14  1  0
 14 15  1  0
 15 16  1  0
 16 17  2  0
 17 18  1  0
 18 19  2  0
 19 20  1  0
 20 21  1  0
 20 22  2  0
 22 16  1  0
M  END
>  <identifier>  (908) 
CNP0292382.0

>  <canonical_smiles>  (908) 
CCCCCCCCCCCCCCCC1=CC=CC(O)=C1

>  <standard_inchi>  (908) 
InChI=1S/C21H36O/c1-2-3-4-5-6-7-8-9-10-11-12-13-14-16-20-17-15-18-21(22)19-20/h15,17-19,22H,2-14,16H2,1H3

>  <standard_inchi_key>  (908) 
PTFIPECGHSYQNR-UHFFFAOYSA-N

>  <name>  (908) 
3-Pentadecylphenol

>  <iupac_name>  (908) 
3-pentadecylphenol

>  <annotation_level>  (908) 
5

>  <total_atom_count>  (908) 
58

>  <heavy_atom_count>  (908) 
22

>  <molecular_weight>  (908) 
304.52

>  <exact_molecular_weight>  (908) 
304.27662

>  <molecular_formula>  (908) 
C21H36O

>  <alogp>  (908) 
7.03

>  <topological_polar_surface_area>  (908) 
20.23

>  <rotatable_bond_count>  (908) 
14

>  <hydrogen_bond_acceptors>  (908) 
1

>  <hydrogen_bond_donors>  (908) 
1

>  <hydrogen_bond_acceptors_lipinski>  (908) 
1

>  <hydrogen_bond_donors_lipinski>  (908) 
1

>  <lipinski_rule_of_five_violations>  (908) 
1

>  <aromatic_rings_count>  (908) 
1

>  <qed_drug_likeliness>  (908) 
0.37

>  <formal_charge>  (908) 
0

>  <fractioncsp3>  (908) 
0.71

>  <number_of_minimal_rings>  (908) 
1

>  <van_der_walls_volume>  (908) 
340.22

>  <contains_sugar>  (908) 
False

>  <contains_ring_sugars>  (908) 
False

>  <contains_linear_sugars>  (908) 
False

>  <murcko_framework>  (908) 
c1ccccc1

>  <np_likeness>  (908) 
0.37

>  <chemical_class>  (908) 
Phenols

>  <chemical_sub_class>  (908) 
1-hydroxy-2-unsubstituted benzenoids

>  <chemical_super_class>  (908) 
Benzenoids

>  <direct_parent_classification>  (908) 
1-hydroxy-2-unsubstituted benzenoids

>  <np_classifier_pathway>  (908) 
Polyketides

>  <np_classifier_superclass>  (908) 
Aromatic polyketides

>  <np_classifier_class>  (908) 
Catechols with side chains

>  <np_classifier_is_glycoside>  (908) 
False

>  <organisms>  (908) 
Anacardium occidentale|Aronia arbutifolia|Calotropis gigantea|Cashew|Clibadium mexiae|Discaria serratifolia|Ginkgo biloba|Ginkgo biloba L.|Ideopsis similis|Justicia hayatai|Pteris dactylina|Pyrostegia venusta|Rana amurensis|Schistochila appendiculata|Tapirira obtusa|Viscaria viscosa

>  <collections>  (908) 
Australian natural products|CMAUP (cCollective molecular activities of useful plants)|FooDB|Latin America dataset|NPASS|NuBBEDB|Super Natural II|TPPT (Toxic Plants–PhytoToxins)|UNPD (Universal Natural Products Database)|WikiData Natural Products

>  <dois>  (908) 
10.1002/PTR.2650070309|10.1002/food.19880321030|10.1016/J.CHROMA.2009.01.013|10.1016/S0031-9422(00)00476-3|10.1016/S0031-9422(00)84775-5|10.1021/JF00002A039|10.1021/JF00030A035|10.1021/NP50106A021|10.1021/NP970367Q|10.1021/jf00030a035|10.1055/S-2008-1074497|10.2903/j.efsa.2012.2663

>  <synonyms>  (908) 
1-Hydroxy-3-pentadecylbenzene|2-Deoxy-urushiol I|3-Pentadecyl Phenol|3-Pentadecylphenol, analytical standard|3-Pentadecylphenol, technical grade, 90%|3-n-Pentadecylphenol|3-pentadecylphenol|501-24-6|A827983|AKOS015916272|Anacardol, tetrahydro-|Anacardol?|BDBM50082305|CHEBI:174189|CHEMBL34689|CS-0185717|Cardanol C15:0|Cardolite NC-507|Cyclogallipharaol|D92087|DTXSID9060108|EINECS 207-921-9|HY-W127489|Hydrocardanol|Hydroginkgol|InChI=1\/C21H36O\/c1-2-3-4-5-6-7-8-9-10-11-12-13-14-16-20-17-15-18-21(22)19-20\/h15,17-19,22H,2-14,16H2,1H3|J10ATZ45ZU|LMPK15010004|LS-14918|MFCD00002310|NS00020824|NSC 9781|NSC-9781|PHENOL, 3-PENTADECYL|PTFIPECGHSYQNR-UHFFFAOYSA-|Phenol, 3-pentadecyl-|Phenol, m-pentadecyl- (8CI)|Q27281005|SCHEMBL135991|Tetrahydroanacardol|UNII-J10ATZ45ZU|W-105982|m-Pentadecylphenol

>  <cas>  (908) 
501-24-6

$$$$

     RDKit          2D

 30 33  0  0  0  0  0  0  0  0999 V2000
    2.0381   -2.4163    0.0000 O   0  0  0  0  0  0  0  0  0  0  0  0
    2.3291   -0.9448    0.0000 C   0  0  0  0  0  0  0  0  0  0  0  0
    3.7490   -0.4611    0.0000 C   0  0  0  0  0  0  0  0  0  0  0  0
    4.8778   -1.4489    0.0000 C   0  0  0  0  0  0  0  0  0  0  0  0
    6.2977   -0.9652    0.0000 C   0  0  0  0  0  0  0  0  0  0  0  0
    7.4265   -1.9529    0.0000 O   0  0  0  0  0  0  0  0  0  0  0  0
    6.5887    0.5063    0.0000 C   0  0  0  0  0  0  0  0  0  0  0  0
    8.0086    0.9901    0.0000 O   0  0  0  0  0  0  0  0  0  0  0  0
    5.4599    1.4941    0.0000 C   0  0  0  0  0  0  0  0  0  0  0  0
    4.0400    1.0104    0.0000 C   0  0  0  0  0  0  0  0  0  0  0  0
    2.9112    1.9982    0.0000 O   0  0  0  0  0  0  0  0  0  0  0  0
    1.4913    1.5144    0.0000 C   0  0  0  0  0  0  0  0  0  0  0  0
    0.3624    2.5022    0.0000 C   0  0  0  0  0  0  0  0  0  0  0  0
   -1.0574    2.0185    0.0000 C   0  0  0  0  0  0  0  0  0  0  0  0
   -2.1863    3.0063    0.0000 O   0  0  0  0  0  0  0  0  0  0  0  0
   -1.3484    0.5470    0.0000 C   0  0  0  0  0  0  0  0  0  0  0  0
   -2.7683    0.0633    0.0000 C   0  0  0  0  0  0  0  0  0  0  0  0
   -3.8971    1.0511    0.0000 O   0  0  0  0  0  0  0  0  0  0  0  0
   -5.3170    0.5673    0.0000 C   0  0  0  0  0  0  0  0  0  0  0  0
   -6.4459    1.5551    0.0000 C   0  0  0  0  0  0  0  0  0  0  0  0
   -6.1548    3.0266    0.0000 O   0  0  0  0  0  0  0  0  0  0  0  0
   -5.6080   -0.9042    0.0000 C   0  0  0  0  0  0  0  0  0  0  0  0
   -7.0279   -1.3879    0.0000 O   0  0  0  0  0  0  0  0  0  0  0  0
   -4.4792   -1.8919    0.0000 C   0  0  0  0  0  0  0  0  0  0  0  0
   -4.7702   -3.3634    0.0000 O   0  0  0  0  0  0  0  0  0  0  0  0
   -3.0593   -1.4082    0.0000 C   0  0  0  0  0  0  0  0  0  0  0  0
   -1.9305   -2.3960    0.0000 O   0  0  0  0  0  0  0  0  0  0  0  0
   -0.2196   -0.4408    0.0000 C   0  0  0  0  0  0  0  0  0  0  0  0
   -0.5106   -1.9123    0.0000 O   0  0  0  0  0  0  0  0  0  0  0  0
    1.2003    0.0429    0.0000 C   0  0  0  0  0  0  0  0  0  0  0  0
  1  2  2  0
  2  3  1  0
  3  4  2  0
  4  5  1  0
  5  6  1  0
  5  7  2  0
  7  8  1  0
  7  9  1  0
  9 10  2  0
 10 11  1  0
 11 12  1  0
 12 13  2  0
 13 14  1  0
 14 15  1  0
 14 16  2  0
 17 16  1  1
 17 18  1  0
 18 19  1  0
 19 20  1  1
 20 21  1  0
 19 22  1  0
 22 23  1  6
 22 24  1  0
 24 25  1  1
 24 26  1  0
 26 27  1  6
 16 28  1  0
 28 29  1  0
 28 30  2  0
 30  2  1  0
 10  3  1  0
 30 12  1  0
 26 17  1  0
M  END
>  <identifier>  (909) 
CNP0117445.1

>  <canonical_smiles>  (909) 
O=C1C2=CC(O)=C(O)C=C2OC2=CC(O)=C([C@@H]3O[C@H](CO)[C@@H](O)[C@H](O)[C@H]3O)C(O)=C12

>  <standard_inchi>  (909) 
InChI=1S/C19H18O11/c20-4-11-15(25)17(27)18(28)19(30-11)12-8(23)3-10-13(16(12)26)14(24)5-1-6(21)7(22)2-9(5)29-10/h1-3,11,15,17-23,25-28H,4H2/t11-,15-,17+,18-,19+/m1/s1

>  <standard_inchi_key>  (909) 
AEDDIBAIWPIIBD-ZJKJAXBQSA-N

>  <name>  (909) 
Mangiferin

>  <iupac_name>  (909) 
1,3,6,7-tetrahydroxy-2-[(2~{S},3~{R},4~{R},5~{S},6~{R})-3,4,5-trihydroxy-6-(hydroxymethyl)tetrahydropyran-2-yl]xanthen-9-one

>  <annotation_level>  (909) 
5

>  <total_atom_count>  (909) 
48

>  <heavy_atom_count>  (909) 
30

>  <molecular_weight>  (909) 
422.34

>  <exact_molecular_weight>  (909) 
422.08491

>  <molecular_formula>  (909) 
C19H18O11

>  <alogp>  (909) 
-0.72

>  <topological_polar_surface_area>  (909) 
201.28

>  <rotatable_bond_count>  (909) 
2

>  <hydrogen_bond_acceptors>  (909) 
11

>  <hydrogen_bond_donors>  (909) 
8

>  <hydrogen_bond_acceptors_lipinski>  (909) 
11

>  <hydrogen_bond_donors_lipinski>  (909) 
8

>  <lipinski_rule_of_five_violations>  (909) 
2

>  <aromatic_rings_count>  (909) 
3

>  <qed_drug_likeliness>  (909) 
0.19

>  <formal_charge>  (909) 
0

>  <fractioncsp3>  (909) 
0.32

>  <number_of_minimal_rings>  (909) 
4

>  <van_der_walls_volume>  (909) 
332.02

>  <contains_sugar>  (909) 
True

>  <contains_ring_sugars>  (909) 
True

>  <contains_linear_sugars>  (909) 
False

>  <murcko_framework>  (909) 
O1c2ccccc2Cc3cc(ccc13)C4OCCCC4

>  <np_likeness>  (909) 
2.00

>  <chemical_class>  (909) 
Benzopyrans

>  <chemical_sub_class>  (909) 
1-benzopyrans

>  <chemical_super_class>  (909) 
Organoheterocyclic compounds

>  <direct_parent_classification>  (909) 
Xanthones

>  <np_classifier_pathway>  (909) 
Shikimates and Phenylpropanoids

>  <np_classifier_superclass>  (909) 
Xanthones

>  <np_classifier_class>  (909) 
Plant xanthones

>  <np_classifier_is_glycoside>  (909) 
False

>  <organisms>  (909) 
Aaptos aaptos|Aconitum nevadense|Acystopteris japonica|Acystopteris tenuisecta|Adenopeltis colliguaya|Alnus firma|Alseodaphne corneri|Anacardiaceae|Anemarrhena asphodeloides|Anemarrhena asphodeloides Bunge|Anemarrhena sp.|Annona impressivenia|Aphloia madagascariensis|Aphloia theiformis|Aquilaria sinensis|Arrabidaea patellifera|Arrabidaea samydoides|Artemisia glabella|Artemisia montana|Aspergillus arenarius|Aspergillus quadrilineatus|Aspergillus unguis|Asplenium montanum|Asplenium montanum Willd.|Asplenium sp.|Astragalus membranaceus|Astragalus mongholicus|Athyrium atkinsonii|Athyrium mesosorum|Aulacocephalus temmincki|Belamcanda Chinensis|Belamcanda chinensis|Bersama abyssinica|Bersama engleriana Gurke|Bersama yangambiensis|Bituminaria bituminosa|Boehmeria nivea|Bombax ceiba|Bombax malabaricum|Bombus hortorum|Calophyllum apetalum|Canscora alata|Canscora decussata|Capsicum tetragonum|Castanopsis sclerophylla|Centaurea seridis|Ceratocystis clavigera|Cereus weberi|Chrozophora obliqua|Cladonia furcata|Cneorum pulverulentum|Coleus garckeanus|Conocephalum japonicum|Consolida ajacis|Consolida oliveriana|Cordylanthus kingii|Cratoxylum cochinchinense|Cratoxylum pruniflorum|Crinipellis scabella|Crocus gargaricus|Crotalaria anagyroides|Croton cumingii|Croton poilanei|Cyclopia falcata|Cyclopia genistoides|Cyclopia intermedia|Cyclopia maculata|Cyclopia sessiliflora|Cyclopia subternata|Cystophora scalaris|Cystopteris alpina|Cystopteris diaphana|Cystopteris douglasii|Cystopteris fragilis|Cystopteris montana|Cystopteris moupinensis|Cystopteris schizochlamys|Cystopteris sudetica|Dalbergia stipulacea|Dasymaschalon sootepense|Davallia sinensis|Davallia solida|Delairea odorata|Deparia boryana|Deparia henryi|Deparia japonica|Deparia petersenii|Dictyoloma incanescens|Dictyopteris undulata|Didymoglossum krausii|Didymoglossum kraussii|Dinemasporium strigosum|Disynaphia halimifolia|Doodia picta|Drypetes molunduana|Elaeagnus commutata|Eleutherine bulbosa|Eragrostis viscosa|Eucalyptus flocktoniae|Eunicella cavolinii|Euonymus sachalinensis|Eupatorium adenophorum|Euphorbia makinoi|Felicia erigeroides|Flindersia brayleyana|Forsteronia refracta|Fridericia chica|Fridericia patellifera|Fridericia samydoides|Gelasine elongata|Gentiana asclepiadea|Gentiana campestris|Gentiana chosenica|Gentiana cruciata|Gentiana davidii formosana|Gentiana lutea|Gentiana orbicularis|Gentiana pseudoaquatica|Gentiana sp.|Gentiana thunbergii|Gentianella amarella|Gentianella campestris|Gentianella germanica|Gentianella nitida|Gentianella serotina|Gentianopsis|Gentianopsis barbata|Gentianopsis barbellata|Gentianopsis ciliata|Gentianopsis crinita|Gentianopsis detonsa|Gentianopsis grandis|Gentianopsis lanceolata|Gentianopsis paludosa|Gentianopsis simplex|Gentianopsis thermalis|Gentianopsis virgata|Gerbera piloselloides|Gnidia involucrata|Great yellow gentian|Grewia mollis|Guatteria melosma|Gymnocarpium dryopteris|Gymnocarpium oyamense|Gymnocarpium puchellum|Gymnocarpium remotepinnatum|Gymnocarpium robertianum|Gyrinops walla|Hedysarum alpinum|Hedysarum branthii|Hedysarum denticulatum|Hedysarum inundatum|Hedysarum sachalinense|Hedysarum sericeum|Heliotropium floridum|Heptaptera triquetra|Heracleum sphondylium|Heterocapsa niei|Heterotheca grandiflora|Hibiscus liliastrum|Hiptage benghalensis|Hiptage madablota|Hovenia acerba|Hymenophyllum nephrophyllum|Hypaphorus subumbrans|Hypericum Sampsonii|Hypericum ancherii|Hypericum androsaemum|Hypericum asperuloides|Hypericum attenuatum|Hypericum aucheri|Hypericum australe|Hypericum barbatum|Hypericum bithynicum|Hypericum bupleuroides|Hypericum calycinum|Hypericum elegans|Hypericum empetrifolium|Hypericum formosissimum|Hypericum hircinum|Hypericum hirsutum|Hypericum humifusum|Hypericum japonicum|Hypericum maculatum|Hypericum montanum|Hypericum montbretii|Hypericum olympicum|Hypericum origanifolium|Hypericum patulum|Hypericum perfoliatum|Hypericum perforatum|Hypericum polyphyllum|Hypericum pulchrum|Hypericum rochelii|Hypericum rumeliacum|Hypericum sampsonii|Hypericum scabrum|Hypericum sp.|Hypericum spp.|Hypericum spruneri|Hypericum thasium|Hypericum triquetrifolium|Hypericum umbellatum|Hypericum xylosteifolium|Iris cengialti|Iris domestica|Iris ensata|Iris florentina|Iris lactea|Iris missouriensis|Iris nigricans|Iris pumila|Iris suaveolens|Iris triflora|Iris unguicularis|Iris x germanica|Jaborosa caulescens|Juglans nigra|Jungermannia obovata|Kaempferia marginata|Kaunia saltensis|Kothala himbutu|Kummerowia striata|Lespedeza juncea sericea|Lobophytum chevalieri|Lophozia barbata|Lupinus paniculatus|Lycoris traubii|Lygodium flexuosum|Lyophyllum shimeji|Mangifera Indica|Mangifera indica|Mangifera persiciformis|Mangifera sp.|Mascarenhasia arborescens|Meconopsis napaulensis|Merremia umbellata|Methylobacterium rhodinum|Millettia conraui|Monnina emarginata|Moraea australis|Moraea setifolia|Narcissus concolor|Nauclea officinalis|Oncoba echinata|Ophiolepis superba|Ormosia panamensis|Osmerus mordax|Palafoxia rosea|Panax ginseng|Papilio phorcas|Parabenzoin trilobum|Pedicularis condensata|Perityle vaseyi|Peucedanum longifolium|Phaleria macrocarpa|Phellodendron amurense|Phoebe formosana|Physematium elongatum|Physematium manchuriense|Physematium molle|Physematium plummerae|Polycephalomyces nipponicus|Polygala fallax|Polygala sibirica|Polygala tenuifolia|Porella swartziana|Pyrrosia Lingua|Pyrrosia Sheareri|Pyrrosia calvata|Pyrrosia davidii|Pyrrosia lingua|Pyrrosia petiolosa|Pyrrosia prinoides|Pyrrosia pseudocalvata|Pyrrosia sheareri|Pyrrosia tricuspis|Pyrus calleryana|Quercus mongolica|Rheum webbianum|Rhynchosia suaveolens|Rigidella|Rigidella orthantha|Rubrivivax gelatinosus|Ruta pinnata|Saccharum spontaneum|Salacia chinensis|Salacia prinoides|Salacia reticulata|Salvia coulteri|Salvia dorrii|Satureja cuneifolia|Securinega melanthesoides|Senecio flavus|Senecio mikanioides|Sida cordifolia|Silene fortunei|Siler trilobum|Smilax Bracteata|Smilax bracteata|Smilax glycyphylla|Smilax myosotiflora|Smilax sp.|Solanum sisymbriifolium|Solenopsis invicta|Sophora angustifolia|Sophora microphylla|Spodoptera littoralis|Stevia polycephala|Streptomyces collinus|Streptomyces fradiae|Streptomyces gougerotii|Streptomyces mobaraensis|Streptomyces parvisporogenes|Strychnos staudtii|Suberea mollis|Swertia calycina|Swertia chirata|Swertia chirayita|Swertia cordata|Swertia corymbosa|Swertia franchetiana|Swertia japonica|Swertia kouitchensis|Swertia mussotii|Swertia pseudochinensis|Swertia punctata|Swertia souliei|Swertia sp.|Teucrium depressum|Teucrium leucocladum|Thelephora palmata|Thymbra spicata|Thymus piperella|Tigridia alpestris|Tigridia orthantha|Trichia floriformis|Trichilia rubescens|Trichomanes krausii|Trichomanes polypodioides|Tripterospermum japonicum|Tripterospermum trinervium|Tsuga mertensiana|Turraeanthus mannii|Urena Lobata|Urena lobata|Verbena triphylla|Wettsteinia inversa|Woodsia alpina|Woodsia elongata|Woodsia glabella|Woodsia hancockii|Woodsia ilvensis|Woodsia manchuriensis|Woodsia mexicana|Woodsia mollis|Woodsia montevidensis|Woodsia obtusa|Woodsia oregana|Woodsia plummerae|Woodsia polystichoides|Woodsia rosthorniana|Woodsia scopulina|mango tree

>  <collections>  (909) 
ANPDB|Australian natural products|CMAUP (cCollective molecular activities of useful plants)|ChEBI NPs|ChemSpider NPs|ETM (Ethiopian Traditional Medicine) DB|FooDB|GNPS (Global Natural Products Social Molecular Networking)|InflamNat|KNApSaCK|Latin America dataset|NANPDB (Natural Products from Northern African Sources)|NPASS|NPEdia|NuBBEDB|Phyto4Health|PhytoLab phyproof® Reference Substances|Super Natural II|TIPdb (database of Taiwan indigenous plants)|VietHerb|WikiData Natural Products|ZINC NP

>  <dois>  (909) 
10.1002/CHIN.200407160|10.1002/CHIN.200451186|10.1002/CHIN.200511237|10.1002/HLCA.19750580731|10.1002/J.1537-2197.1996.TB13914.X|10.1002/JPS.2600570631|10.1002/JPS.2600611136|10.1002/JPS.2600640543|10.1002/JSSC.201300794|10.1002/MRC.1972|10.1002/hlca.19750580731|10.1002/jps.2600640543|10.1007/BF00563849|10.1007/BF00563966|10.1007/BF00567331|10.1007/BF00576104|10.1007/BF00630332|10.1007/BF00630415|10.1007/S00217-002-0644-5|10.1007/s00217-002-0644-5|10.1016/0031-9422(88)80189-4|10.1016/0031-9422(93)80037-S|10.1016/0031-9422(94)00641-6|10.1016/0031-9422(95)00528-5|10.1016/0031-9422(96)00154-9|10.1016/0305-1978(82)90006-0|10.1016/0305-1978(96)00006-3|10.1016/0378-8741(85)90010-8|10.1016/B978-0-12-304250-7.50016-X|10.1016/J.BMCL.2013.08.085|10.1016/J.BSE.2004.02.008|10.1016/J.PHRS.2003.12.020|10.1016/J.PHYTOCHEM.2004.08.014|10.1016/J.PHYTOCHEM.2008.01.002|10.1016/J.PHYTOCHEM.2010.11.025|10.1016/S0021-9673(01)83513-5|10.1016/S0031-9422(00)00046-7|10.1016/S0031-9422(00)83042-3|10.1016/S0031-9422(00)88887-1|10.1016/S0031-9422(00)94168-2|10.1016/S0031-9422(00)97205-4|10.1016/S0031-9422(02)00231-5|10.1016/S0031-9422(99)00190-9|10.1016/S0040-4039(00)95355-3|10.1016/S0305-1978(98)00010-6|10.1016/S0367-326X(00)00189-1|10.1016/S0367-326X(02)00011-4|10.1016/S1567-5769(02)00018-8|10.1016/j.bmc.2014.02.014|10.1016/j.bmcl.2013.08.085|10.1016/j.bse.2004.02.008|10.1016/j.freeradbiomed.2004.03.017|10.1016/j.phytochem.2004.08.014|10.1016/s0031-9422(00)82954-4|10.1016/s0031-9422(02)00231-5|10.1016/s0367-326x(02)00011-4|10.1021/JF011064B|10.1021/JF030218F|10.1021/JF040097Z|10.1021/JF980258X|10.1021/NP030100T|10.1021/NP0301543|10.1021/NP400082G|10.1021/NP50029A025|10.1021/NP50037A042|10.1021/NP50040A043|10.1021/NP50044A024|10.1021/NP50103A019|10.1021/NP800406Q|10.1021/acs.jnatprod.6b00381|10.1021/jf040097z|10.1021/np030100t|10.1021/np0301543|10.1021/np400082g|10.1021/np400134z|10.1021/np50103a019|10.1021/np800406q|10.1038/SREP42683|10.1038/srep42683|10.1055/S-0029-1243123|10.1055/S-0029-1243126|10.1055/S-0033-1352106|10.1055/S-1999-14060|10.1055/S-2002-20053|10.1055/S-2006-957908|10.1055/S-2006-958102|10.1055/S-2006-960796|10.1055/S-2006-962050|10.1055/S-2006-962408|10.1055/S-2007-969569|10.1055/s-2006-960796|10.1078/0176-1617-00195|10.1093/JN/132.7.1819|10.1139/B91-030|10.1177/089198879400700118|10.1177/089198879400701S18|10.1246/BCSJ.30.618|10.1246/bcsj.30.618|10.1248/BPB.21.1389|10.1248/BPB.24.1009|10.1248/BPB.25.72|10.1248/CPB.21.2562|10.1248/CPB.28.2482|10.1248/CPB.32.2676|10.1248/CPB.42.2342|10.1248/CPB.43.461|10.1248/CPB.47.962|10.1248/CPB.51.1051|10.1248/CPB.52.866|10.1248/CPB.57.134|10.1248/YAKUSHI.121.371|10.1248/YAKUSHI1947.101.12_1118|10.1248/cpb.51.1051|10.1248/yakushi.121.371|10.1271/BBB1961.46.2595|10.1515/ZNC-1984-1-204|10.1515/ZNC-1985-5-608|10.21608/BFSA.1993.70202|10.2202/1553-3840.1263|10.3390/MOLECULES19021411|10.3987/COM-11-12257|10.3987/R-1985-10-2543|10.4268/CJCMM20151921

>  <synonyms>  (909) 
nan

>  <cas>  (909) 
4773-96-0

$$$$

     RDKit          2D

 28 31  0  0  0  0  0  0  0  0999 V2000
    8.5322   -1.4288    0.0000 C   0  0  0  0  0  0  0  0  0  0  0  0
    7.6552   -0.2119    0.0000 O   0  0  0  0  0  0  0  0  0  0  0  0
    6.1629   -0.3629    0.0000 C   0  0  0  0  0  0  0  0  0  0  0  0
    5.5475   -1.7309    0.0000 C   0  0  0  0  0  0  0  0  0  0  0  0
    4.0551   -1.8820    0.0000 C   0  0  0  0  0  0  0  0  0  0  0  0
    3.1781   -0.6651    0.0000 C   0  0  0  0  0  0  0  0  0  0  0  0
    1.6857   -0.8161    0.0000 C   0  0  0  0  0  0  0  0  0  0  0  0
    0.9308   -2.1123    0.0000 O   0  0  0  0  0  0  0  0  0  0  0  0
   -0.5353   -1.7948    0.0000 C   0  0  0  0  0  0  0  0  0  0  0  0
   -0.6863   -0.3024    0.0000 C   0  0  0  0  0  0  0  0  0  0  0  0
    0.6863    0.3024    0.0000 C   0  0  0  0  0  0  0  0  0  0  0  0
    0.5353    1.7948    0.0000 C   0  0  0  0  0  0  0  0  0  0  0  0
   -0.9308    2.1123    0.0000 O   0  0  0  0  0  0  0  0  0  0  0  0
   -1.6857    0.8161    0.0000 C   0  0  0  0  0  0  0  0  0  0  0  0
   -3.1781    0.6651    0.0000 C   0  0  0  0  0  0  0  0  0  0  0  0
   -4.0551    1.8820    0.0000 C   0  0  0  0  0  0  0  0  0  0  0  0
   -5.5475    1.7309    0.0000 C   0  0  0  0  0  0  0  0  0  0  0  0
   -6.1629    0.3629    0.0000 C   0  0  0  0  0  0  0  0  0  0  0  0
   -7.6552    0.2119    0.0000 O   0  0  0  0  0  0  0  0  0  0  0  0
   -8.5322    1.4288    0.0000 C   0  0  0  0  0  0  0  0  0  0  0  0
   -5.2858   -0.8540    0.0000 C   0  0  0  0  0  0  0  0  0  0  0  0
   -5.9012   -2.2219    0.0000 O   0  0  0  0  0  0  0  0  0  0  0  0
   -5.0242   -3.4388    0.0000 C   0  0  0  0  0  0  0  0  0  0  0  0
   -3.7935   -0.7029    0.0000 C   0  0  0  0  0  0  0  0  0  0  0  0
    3.7935    0.7029    0.0000 C   0  0  0  0  0  0  0  0  0  0  0  0
    5.2858    0.8540    0.0000 C   0  0  0  0  0  0  0  0  0  0  0  0
    5.9012    2.2219    0.0000 O   0  0  0  0  0  0  0  0  0  0  0  0
    5.0242    3.4388    0.0000 C   0  0  0  0  0  0  0  0  0  0  0  0
  1  2  1  0
  2  3  1  0
  3  4  2  0
  4  5  1  0
  5  6  2  0
  7  6  1  1
  7  8  1  0
  8  9  1  0
 10  9  1  6
 10 11  1  0
 11 12  1  6
 12 13  1  0
 13 14  1  0
 14 15  1  1
 15 16  2  0
 16 17  1  0
 17 18  2  0
 18 19  1  0
 19 20  1  0
 18 21  1  0
 21 22  1  0
 22 23  1  0
 21 24  2  0
  6 25  1  0
 25 26  2  0
 26 27  1  0
 27 28  1  0
 26  3  1  0
 11  7  1  0
 24 15  1  0
 14 10  1  0
M  END
>  <identifier>  (910) 
CNP0163646.1

>  <canonical_smiles>  (910) 
COC1=CC=C([C@H]2OC[C@H]3[C@@H]2CO[C@@H]3C2=CC=C(OC)C(OC)=C2)C=C1OC

>  <standard_inchi>  (910) 
InChI=1S/C22H26O6/c1-23-17-7-5-13(9-19(17)25-3)21-15-11-28-22(16(15)12-27-21)14-6-8-18(24-2)20(10-14)26-4/h5-10,15-16,21-22H,11-12H2,1-4H3/t15-,16-,21+,22+/m0/s1

>  <standard_inchi_key>  (910) 
PEUUVVGQIVMSAW-RZTYQLBFSA-N

>  <name>  (910) 
Pinoresinol dimethyl ether

>  <iupac_name>  (910) 
(3~{S},3~{a}~{R},6~{S},6~{a}~{R})-3,6-bis(3,4-dimethoxyphenyl)-1,3,3~{a},4,6,6~{a}-hexahydrofuro[3,4-c]furan

>  <annotation_level>  (910) 
5

>  <total_atom_count>  (910) 
54

>  <heavy_atom_count>  (910) 
28

>  <molecular_weight>  (910) 
386.44

>  <exact_molecular_weight>  (910) 
386.17294

>  <molecular_formula>  (910) 
C22H26O6

>  <alogp>  (910) 
3.80

>  <topological_polar_surface_area>  (910) 
55.38

>  <rotatable_bond_count>  (910) 
6

>  <hydrogen_bond_acceptors>  (910) 
6

>  <hydrogen_bond_donors>  (910) 
0

>  <hydrogen_bond_acceptors_lipinski>  (910) 
6

>  <hydrogen_bond_donors_lipinski>  (910) 
0

>  <lipinski_rule_of_five_violations>  (910) 
0

>  <aromatic_rings_count>  (910) 
2

>  <qed_drug_likeliness>  (910) 
0.75

>  <formal_charge>  (910) 
0

>  <fractioncsp3>  (910) 
0.46

>  <number_of_minimal_rings>  (910) 
4

>  <van_der_walls_volume>  (910) 
352.14

>  <contains_sugar>  (910) 
False

>  <contains_ring_sugars>  (910) 
False

>  <contains_linear_sugars>  (910) 
False

>  <murcko_framework>  (910) 
O1CC2C(OCC2C1c3ccccc3)c4ccccc4

>  <np_likeness>  (910) 
0.65

>  <chemical_class>  (910) 
Furanoid lignans

>  <chemical_sub_class>  (910) 
Furan lignans

>  <chemical_super_class>  (910) 
Lignans, neolignans and related compounds

>  <direct_parent_classification>  (910) 
Furan lignans

>  <np_classifier_pathway>  (910) 
Shikimates and Phenylpropanoids

>  <np_classifier_superclass>  (910) 
Lignans

>  <np_classifier_class>  (910) 
Furofuranoid lignans

>  <np_classifier_is_glycoside>  (910) 
False

>  <organisms>  (910) 
Acanthopanax senticosus|Acorus calamus|Acorus gramineus|Acorus tatarinowii|Aglaia abbreviata|Aglaia elaeagnoidea|Aglaia leptantha|Annona mucosa|Aptosimum spinescens|Araucaria angustifolia|Aristolochia elegans|Aristolochia flos-avis|Aristolochia pubescens|Baliospermum montanum|Betula humilis|Bistorta manshuriensis|Brazilian Red Propolis|Bupleurum salicifolium|Calyptranthes pallens|Clerodendron brachyanthum|Clerodendrum fragrans|Clinopodium vulgare|Clusia congestiflora|Corallina pilulifera|Daphne oleoides|Daphne oleoides spp.|Eleutherococcus senticosus|Enkleia siamensis|Erythroxylum novogranatense|Eucalyptus hemiphloia|Eucommia ulmoides|Euodia micrococca|Evodia micrococca var. micrococca|Fagara heitzii|Fusarium asiaticum|Haplophyllum acutifolium|Haplophyllum perforatum|Haplophyllum sp.|Haplophyllum spp.|Humbertia madagascariensis|Knoxia valerianoides|Lactobacillus reuteri|Laurelia novae-zelandiae|Licaria armeniaca|Lindera praecox|Liriodendron sp.|Liriodendron tulipifera|Litsea gracilipes|Machilus wangchiana|Magnolia biondii|Magnolia coco|Magnolia denudata|Magnolia fargesii|Magnolia kobus|Magnolia kobus var. borealis|Magnolia praecocissima|Magnolia pterocarpa|Magnolia salicifolia|Magnolia sp.|Magnolia sprengeri|Magnolia stellata|Magnolia × soulangeana|Melicope hayesii|Metrodorea flavida|Metrodorea nigra|Mollisia caesia|Mycale adhaerens|Orophea enneandra|Ostracion lentiginosus|Ouratea semiserrata|Pandanus odoratissimus|Pandanus odorifer|Pandanus tectorius|Panulirus longipes|Parabenzoin praecox|Pectobacterium carotovorum|Persea kurzii|Phaylopsis falcisepala|Polygala gazensis|Propolis|Raulinoa echinata|Rhynchosia volubilis|Rollinia exalbida|Rollinia mucosa|Rudbeckia maxima|Rudbeckia nitida|Rudbeckia scabrifolia|Samadera bidwillii|Sarcophyton mililatensis|Stellera chamaejasme|Streblus asper|Streptomyces limosus|Streptomyces omiyaensis|Streptomyces subrutilus|Swertia patens|Swietenia mahagoni|Talauma hodgsonii|Thalictrum urbaini|Trixis vauthieri|Virola elongata|Virola michelii|Virola sp.|Zanthoxylum acanthopodium|Zanthoxylum alatum|Zanthoxylum culantrillo|Zanthoxylum fagara|Zanthoxylum heitzii|Zanthoxylum oxyphyllum|Zanthoxylum simulans|Zanthoxylum sp.

>  <collections>  (910) 
AnalytiCon Discovery NPs|Australian natural products|CMAUP (cCollective molecular activities of useful plants)|ChEBI NPs|ChemSpider NPs|ConMedNP|InterBioScreen Ltd|KNApSaCK|Latin America dataset|NPASS|NPEdia|NuBBEDB|Phyto4Health|PhytoLab phyproof® Reference Substances|Super Natural II|TCMDB-Taiwan (Traditional Chinese Medicine database)|TIPdb (database of Taiwan indigenous plants)|WikiData Natural Products|ZINC NP

>  <dois>  (910) 
10.1002/1099-1565(200101/02)12:1<64::AID-PCA562>3.0.CO;2-3|10.1002/HLCA.200890256|10.1007/BF00714932|10.1007/S10600-008-9093-0|10.1016/0031-9422(88)80479-5|10.1016/0031-9422(90)85020-G|10.1016/0031-9422(90)85117-X|10.1016/0031-9422(95)00578-1|10.1016/0031-9422(96)00232-4|10.1016/J.BMC.2007.10.004|10.1016/J.BMC.2008.04.016|10.1016/J.BMCL.2010.10.135|10.1016/J.PHYTOCHEM.2009.05.004|10.1016/J.PHYTOCHEM.2009.08.007|10.1016/S0031-9422(00)00239-9|10.1016/S0031-9422(00)81539-3|10.1016/S0031-9422(00)81816-6|10.1016/S0031-9422(00)89347-4|10.1016/S0031-9422(00)90743-X|10.1016/S0031-9422(96)00708-X|10.1016/S0031-9422(97)00458-5|10.1016/S0031-9422(98)00390-2|10.1016/S0031-9422(98)00720-1|10.1016/S0031-9422(99)00176-4|10.1016/S0031-9422(99)00305-2|10.1016/j.bmc.2007.10.004|10.1016/j.bmc.2008.04.016|10.1016/j.bmcl.2008.11.103|10.1016/s0031-9422(98)00720-1|10.1021/NP50033A032|10.1021/NP900504A|10.1021/NP990118X|10.1021/acs.jnatprod.5b00328|10.1055/S-2006-960893|10.1055/S-2006-962492|10.1071/ch9610135|10.1080/00021369.1976.10862166|10.1080/10286020108040371|10.1080/14786419.2010.511219|10.1248/CPB.50.541|10.1248/CPB.55.137|10.4268/CJCMM20120222

>  <synonyms>  (910) 
(+)-Eudesmin|(+)-Pinoresinol dimethyl ether|(+)-pinoresinol dimethyl ether|(1S,3.ALPHA.R,4S,6.ALPHA.R)-1,4-BIS(3,4-DIMETHOXYPHENYL)TETRAHYDRO-1H,3H-FURO(3,4-C)FURAN|(1S,3aR,4S,6aR)-1,4-Bis(3,4-dimethoxyphenyl)tetrahydro-1H,3H-furo[3,4-c]furan|(3S,3aR,6S,6aR)-3,6-bis(3,4-dimethoxyphenyl)-1,3,3a,4,6,6a-hexahydrofuro[3,4-c]furan|1,4-BIS(3,4-DIMETHOXYPHENYL)-HEXAHYDROFURO[3,4-C]FURAN|1H,3H-Furo(3,4-c)furan, 1,4-bis(3,4-dimethoxyphenyl)tetrahydro-, (1R-(1alpha,3aalpha,4alpha,6aalpha))-|1ST179486|29106-36-3|3TPV0HJ9B0|526-06-7|AC1L2JAN|AC1Q70YM|AKOS002141813|CCG-268481|CHEBI:23|CHEMBL519099|CS-0019488|DTXSID50951699|Eudesmin|HY-N2180|MS-26384|NSC 35476|O,O-Dimethylpinoresinol|Pinoresinol, O,O-dimethyl-|Q27105196|Rel-(7S7'S8R8'R)-eudesmin (+)-eudesmin, (+)-Pinoresinol dimethyl ether|SCHEMBL12427086|SureCN12427086|UNII-3TPV0HJ9B0|s9436

>  <cas>  (910) 
29106-36-3|526-06-7

$$$$

     RDKit          2D

 36 39  0  0  0  0  0  0  0  0999 V2000
   11.1976   -2.6662    0.0000 C   0  0  0  0  0  0  0  0  0  0  0  0
   10.6729   -1.2610    0.0000 O   0  0  0  0  0  0  0  0  0  0  0  0
    9.1936   -1.0128    0.0000 C   0  0  0  0  0  0  0  0  0  0  0  0
    8.2390   -2.1698    0.0000 C   0  0  0  0  0  0  0  0  0  0  0  0
    6.7596   -1.9216    0.0000 C   0  0  0  0  0  0  0  0  0  0  0  0
    6.2349   -0.5164    0.0000 C   0  0  0  0  0  0  0  0  0  0  0  0
    4.7556   -0.2682    0.0000 C   0  0  0  0  0  0  0  0  0  0  0  0
    3.6853   -1.3191    0.0000 C   0  0  0  0  0  0  0  0  0  0  0  0
    2.3550   -0.6260    0.0000 C   0  0  0  0  0  0  0  0  0  0  0  0
    0.9498   -1.1507    0.0000 C   0  0  0  0  0  0  0  0  0  0  0  0
   -0.2072   -0.1961    0.0000 C   0  0  0  0  0  0  0  0  0  0  0  0
   -1.6125   -0.7208    0.0000 C   0  0  0  0  0  0  0  0  0  0  0  0
   -2.7695    0.2338    0.0000 C   0  0  0  0  0  0  0  0  0  0  0  0
   -4.1747   -0.2909    0.0000 C   0  0  0  0  0  0  0  0  0  0  0  0
   -5.3318    0.6637    0.0000 O   0  0  0  0  0  0  0  0  0  0  0  0
   -6.7370    0.1389    0.0000 C   0  0  0  0  0  0  0  0  0  0  0  0
   -7.8940    1.0935    0.0000 O   0  0  0  0  0  0  0  0  0  0  0  0
   -9.2992    0.5688    0.0000 C   0  0  0  0  0  0  0  0  0  0  0  0
  -10.4563    1.5234    0.0000 C   0  0  0  0  0  0  0  0  0  0  0  0
  -10.2081    3.0027    0.0000 O   0  0  0  0  0  0  0  0  0  0  0  0
   -9.5474   -0.9105    0.0000 C   0  0  0  0  0  0  0  0  0  0  0  0
  -10.9527   -1.4352    0.0000 O   0  0  0  0  0  0  0  0  0  0  0  0
   -8.3904   -1.8651    0.0000 C   0  0  0  0  0  0  0  0  0  0  0  0
   -8.6386   -3.3444    0.0000 O   0  0  0  0  0  0  0  0  0  0  0  0
   -6.9852   -1.3404    0.0000 C   0  0  0  0  0  0  0  0  0  0  0  0
   -5.8281   -2.2950    0.0000 O   0  0  0  0  0  0  0  0  0  0  0  0
    0.0410    1.2832    0.0000 C   0  0  0  0  0  0  0  0  0  0  0  0
    1.4462    1.8080    0.0000 C   0  0  0  0  0  0  0  0  0  0  0  0
    1.6944    3.2873    0.0000 O   0  0  0  0  0  0  0  0  0  0  0  0
    0.5373    4.2419    0.0000 C   0  0  0  0  0  0  0  0  0  0  0  0
    2.6032    0.8534    0.0000 C   0  0  0  0  0  0  0  0  0  0  0  0
    4.0868    1.0745    0.0000 O   0  0  0  0  0  0  0  0  0  0  0  0
    7.1895    0.6406    0.0000 C   0  0  0  0  0  0  0  0  0  0  0  0
    8.6688    0.3924    0.0000 C   0  0  0  0  0  0  0  0  0  0  0  0
    9.6234    1.5495    0.0000 O   0  0  0  0  0  0  0  0  0  0  0  0
    9.0987    2.9547    0.0000 C   0  0  0  0  0  0  0  0  0  0  0  0
  1  2  1  0
  2  3  1  0
  3  4  2  0
  4  5  1  0
  5  6  2  0
  6  7  1  0
  7  8  2  0
  8  9  1  0
  9 10  2  0
 10 11  1  0
 11 12  1  0
 12 13  1  0
 13 14  1  0
 14 15  1  0
 16 15  1  1
 16 17  1  0
 17 18  1  0
 18 19  1  1
 19 20  1  0
 18 21  1  0
 21 22  1  6
 21 23  1  0
 23 24  1  1
 23 25  1  0
 25 26  1  6
 11 27  2  0
 27 28  1  0
 28 29  1  0
 29 30  1  0
 28 31  2  0
 31 32  1  0
  6 33  1  0
 33 34  2  0
 34 35  1  0
 35 36  1  0
 34  3  1  0
 32  7  1  0
 31  9  1  0
 25 16  1  0
M  END
>  <identifier>  (911) 
CNP0115845.1

>  <canonical_smiles>  (911) 
COC1=CC=C(C2=CC3=CC(CCCO[C@@H]4O[C@H](CO)[C@@H](O)[C@H](O)[C@H]4O)=CC(OC)=C3O2)C=C1OC

>  <standard_inchi>  (911) 
InChI=1S/C26H32O10/c1-31-17-7-6-15(11-19(17)32-2)18-12-16-9-14(10-20(33-3)25(16)35-18)5-4-8-34-26-24(30)23(29)22(28)21(13-27)36-26/h6-7,9-12,21-24,26-30H,4-5,8,13H2,1-3H3/t21-,22-,23+,24-,26-/m1/s1

>  <standard_inchi_key>  (911) 
NDBXVWJEZUKCIS-HROMDODWSA-N

>  <name>  (911) 
325791-19-3

>  <iupac_name>  (911) 
(2~{R},3~{R},4~{S},5~{S},6~{R})-2-[3-[2-(3,4-dimethoxyphenyl)-7-methoxy-benzofuran-5-yl]propoxy]-6-(hydroxymethyl)tetrahydropyran-3,4,5-triol

>  <annotation_level>  (911) 
5

>  <total_atom_count>  (911) 
68

>  <heavy_atom_count>  (911) 
36

>  <molecular_weight>  (911) 
504.53

>  <exact_molecular_weight>  (911) 
504.19955

>  <molecular_formula>  (911) 
C26H32O10

>  <alogp>  (911) 
1.87

>  <topological_polar_surface_area>  (911) 
140.21

>  <rotatable_bond_count>  (911) 
10

>  <hydrogen_bond_acceptors>  (911) 
10

>  <hydrogen_bond_donors>  (911) 
4

>  <hydrogen_bond_acceptors_lipinski>  (911) 
10

>  <hydrogen_bond_donors_lipinski>  (911) 
4

>  <lipinski_rule_of_five_violations>  (911) 
1

>  <aromatic_rings_count>  (911) 
3

>  <qed_drug_likeliness>  (911) 
0.30

>  <formal_charge>  (911) 
0

>  <fractioncsp3>  (911) 
0.46

>  <number_of_minimal_rings>  (911) 
4

>  <van_der_walls_volume>  (911) 
444.15

>  <contains_sugar>  (911) 
True

>  <contains_ring_sugars>  (911) 
True

>  <contains_linear_sugars>  (911) 
False

>  <murcko_framework>  (911) 
o1c2ccc(cc2cc1-c3ccccc3)CCCOC4OCCCC4

>  <np_likeness>  (911) 
1.18

>  <chemical_class>  (911) 
2-arylbenzofuran flavonoids

>  <chemical_sub_class>  (911) 
2-arylbenzofuran flavonoids

>  <chemical_super_class>  (911) 
Phenylpropanoids and polyketides

>  <direct_parent_classification>  (911) 
2-arylbenzofuran flavonoids

>  <np_classifier_pathway>  (911) 
Shikimates and Phenylpropanoids

>  <np_classifier_superclass>  (911) 
Lignans

>  <np_classifier_class>  (911) 
Neolignans

>  <np_classifier_is_glycoside>  (911) 
True

>  <organisms>  (911) 
Styrax ferrugineus

>  <collections>  (911) 
ChemSpider NPs|Latin America dataset|NuBBEDB|Super Natural II|TCMDB-Taiwan (Traditional Chinese Medicine database)|WikiData Natural Products|ZINC NP

>  <dois>  (911) 
10.1016/S0031-9422(00)00225-9

>  <synonyms>  (911) 
(2R,3R,4S,5S,6R)-2-[3-[2-(3,4-dimethoxyphenyl)-7-methoxy-1-benzofuran-5-yl]propoxy]-6-(hydroxymethyl)oxane-3,4,5-triol|5-[3''-(.beta.-D-glucopyranosyloxy)propyl]-7-methoxy-2-(3',4'-dimethoxyphenyl)benzofuran|A-D-Glucoside|AC1LABT1|DTXSID90333132|HOMO EGONOL BETA-D-GLUCOSIDE|Homo Egonol 

>  <cas>  (911) 
nan

$$$$

     RDKit          2D

 31 35  0  0  0  0  0  0  0  0999 V2000
   -5.9683   -2.2184    0.0000 C   0  0  0  0  0  0  0  0  0  0  0  0
   -5.2086   -0.9250    0.0000 C   0  0  0  0  0  0  0  0  0  0  0  0
   -5.9490    0.3796    0.0000 C   0  0  0  0  0  0  0  0  0  0  0  0
   -7.4489    0.3907    0.0000 O   0  0  0  0  0  0  0  0  0  0  0  0
   -5.1893    1.6730    0.0000 C   0  0  0  0  0  0  0  0  0  0  0  0
   -5.9296    2.9776    0.0000 O   0  0  0  0  0  0  0  0  0  0  0  0
   -3.6893    1.6618    0.0000 C   0  0  0  0  0  0  0  0  0  0  0  0
   -2.9490    0.3572    0.0000 C   0  0  0  0  0  0  0  0  0  0  0  0
   -3.7087   -0.9362    0.0000 C   0  0  0  0  0  0  0  0  0  0  0  0
   -2.9684   -2.2408    0.0000 C   0  0  0  0  0  0  0  0  0  0  0  0
   -1.4684   -2.2520    0.0000 C   0  0  0  0  0  0  0  0  0  0  0  0
   -0.7088   -0.9585    0.0000 C   0  0  0  0  0  0  0  0  0  0  0  0
   -1.4491    0.3460    0.0000 C   0  0  0  0  0  0  0  0  0  0  0  0
   -2.1894    1.6506    0.0000 C   0  0  0  0  0  0  0  0  0  0  0  0
   -0.6894    1.6395    0.0000 C   0  0  0  0  0  0  0  0  0  0  0  0
    0.8105    1.6283    0.0000 C   0  0  0  0  0  0  0  0  0  0  0  0
    1.5508    0.3237    0.0000 C   0  0  0  0  0  0  0  0  0  0  0  0
    2.3105    1.6171    0.0000 C   0  0  0  0  0  0  0  0  0  0  0  0
    3.0508    0.3125    0.0000 C   0  0  0  0  0  0  0  0  0  0  0  0
    3.8105    1.6059    0.0000 C   0  0  0  0  0  0  0  0  0  0  0  0
    5.3104    1.5948    0.0000 C   0  0  0  0  0  0  0  0  0  0  0  0
    6.0701    2.8882    0.0000 C   0  0  0  0  0  0  0  0  0  0  0  0
    6.0507    0.2902    0.0000 C   0  0  0  0  0  0  0  0  0  0  0  0
    7.5507    0.2790    0.0000 O   0  0  0  0  0  0  0  0  0  0  0  0
    5.2911   -1.0032    0.0000 C   0  0  0  0  0  0  0  0  0  0  0  0
    3.7911   -0.9921    0.0000 C   0  0  0  0  0  0  0  0  0  0  0  0
    4.5314   -2.2967    0.0000 C   0  0  0  0  0  0  0  0  0  0  0  0
    3.0314   -2.2855    0.0000 C   0  0  0  0  0  0  0  0  0  0  0  0
    1.5315   -2.2743    0.0000 C   0  0  0  0  0  0  0  0  0  0  0  0
    0.7912   -0.9697    0.0000 C   0  0  0  0  0  0  0  0  0  0  0  0
    0.0315   -2.2631    0.0000 C   0  0  0  0  0  0  0  0  0  0  0  0
  1  2  1  0
  2  3  2  0
  3  4  1  0
  3  5  1  0
  5  6  2  0
  5  7  1  0
  7  8  2  0
  8  9  1  0
  9 10  2  0
 10 11  1  0
 11 12  2  0
 12 13  1  0
 13 14  1  1
 13 15  1  0
 15 16  1  0
 16 17  1  0
 17 18  1  6
 17 19  1  0
 19 20  1  6
 20 21  1  0
 21 22  1  1
 21 23  1  0
 23 24  2  0
 23 25  1  0
 25 26  1  0
 26 27  1  1
 26 28  1  0
 28 29  1  0
 29 30  1  0
 30 31  1  1
  9  2  1  0
 30 12  1  0
 13  8  1  0
 30 17  1  0
 26 19  1  0
M  END
>  <identifier>  (912) 
CNP0310954.1

>  <canonical_smiles>  (912) 
CC1=C(O)C(=O)C=C2C1=CC=C1[C@@]2(C)CC[C@@]2(C)[C@@H]3C[C@@H](C)C(=O)C[C@]3(C)CC[C@]12C

>  <standard_inchi>  (912) 
InChI=1S/C28H36O3/c1-16-13-23-25(3,15-21(16)30)9-11-27(5)22-8-7-18-17(2)24(31)20(29)14-19(18)26(22,4)10-12-28(23,27)6/h7-8,14,16,23,31H,9-13,15H2,1-6H3/t16-,23-,25+,26+,27-,28+/m1/s1

>  <standard_inchi_key>  (912) 
WSTYNZDAOAEEKG-GWJSGULQSA-N

>  <name>  (912) 
Tingenone

>  <iupac_name>  (912) 
(6~{a}~{S},6~{b}~{S},8~{a}~{S},11~{R},12~{a}~{R},14~{a}~{R})-3-hydroxy-4,6~{a},6~{b},8~{a},11,14~{a}-hexamethyl-7,8,9,11,12,12~{a},13,14-octahydropicene-2,10-dione

>  <annotation_level>  (912) 
5

>  <total_atom_count>  (912) 
67

>  <heavy_atom_count>  (912) 
31

>  <molecular_weight>  (912) 
420.59

>  <exact_molecular_weight>  (912) 
420.26645

>  <molecular_formula>  (912) 
C28H36O3

>  <alogp>  (912) 
6.42

>  <topological_polar_surface_area>  (912) 
54.37

>  <rotatable_bond_count>  (912) 
0

>  <hydrogen_bond_acceptors>  (912) 
3

>  <hydrogen_bond_donors>  (912) 
1

>  <hydrogen_bond_acceptors_lipinski>  (912) 
3

>  <hydrogen_bond_donors_lipinski>  (912) 
1

>  <lipinski_rule_of_five_violations>  (912) 
1

>  <aromatic_rings_count>  (912) 
0

>  <qed_drug_likeliness>  (912) 
0.49

>  <formal_charge>  (912) 
0

>  <fractioncsp3>  (912) 
0.64

>  <number_of_minimal_rings>  (912) 
5

>  <van_der_walls_volume>  (912) 
403.96

>  <contains_sugar>  (912) 
False

>  <contains_ring_sugars>  (912) 
False

>  <contains_linear_sugars>  (912) 
False

>  <murcko_framework>  (912) 
C=1C=C2C(C3=CCC=CC13)CCC4C2CCC5CCCCC54

>  <np_likeness>  (912) 
3.46

>  <chemical_class>  (912) 
Organooxygen compounds

>  <chemical_sub_class>  (912) 
Carbonyl compounds

>  <chemical_super_class>  (912) 
Organic oxygen compounds

>  <direct_parent_classification>  (912) 
Cyclic ketones

>  <np_classifier_pathway>  (912) 
Terpenoids

>  <np_classifier_superclass>  (912) 
Triterpenoids

>  <np_classifier_class>  (912) 
nan

>  <np_classifier_is_glycoside>  (912) 
False

>  <organisms>  (912) 
Acacia pachyphloia|Acanthothamnus aphyllus|Adenopeltis colliguaya|Argemone munita|Ariocarpus retusus|Arthrinium arundinis|Aspergillus arenarius|Aspergillus quadrilineatus|Astragalus pamirensis|Beaumontia brevituba|Berberis lambertii|Bituminaria bituminosa|Bombus hortorum|Calyx podatypa|Catha edulis|Centaurea hololeuca|Centaurea seridis|Centipeda cunninghami|Ceratocystis clavigera|Cereus weberi|Cheiloclinium cognatum|Chisocheton siamensis|Chrozophora obliqua|Chrysanthemum x morifolium|Cladiella kashmani|Cneorum pulverulentum|Coleus coerulescens|Coleus garckeanus|Consolida ajacis|Cyanostegia microphylla|Dalbergia stipulacea|Dinemasporium strigosum|Discodermia dissoluta|Echinochloa crus-galli|Elaeagnus commutata|Elaeodendron balae|Elaeodendron croceum|Elaeodendron papillosum|Elymus repens|Eucalyptus flocktoniae|Euphorbia leuconeura|Flindersia brayleyana|Gerbera piloselloides|Glyptopetalum sclerocarpum|Graphis rikuzensis|Gymnosporia cassinoides|Gymnosporia dryandri|Gymnosporia nemorosa|Heracleum sphondylium|Hippocratea excelsa|Hippocratea volubilis|Iryanthera juruensis|Isocoma pluriflora|Jungermannia obovata|Kokoona ochracea|Kokoona zeylanica|Kothala himbutu|Kummerowia striata|Lathyrus hirsutus|Lavandula dentata|Lobelia davidii|Lydenburgia cassinoides|Lyophyllum shimeji|Mandragora officinarum|Mascarenhasia arborescens|Maytenus amazonica|Maytenus aquifolium|Maytenus canariensis|Maytenus chubutensis|Maytenus chuchuhuasca|Maytenus cuzcoina|Maytenus ilicifolia|Maytenus magellanica|Maytenus retusa|Maytenus scutioides|Maytenus sp.|Maytenus spinosa|Maytenus umbellata|Maytenus woodsonii|Meconopsis napaulensis|Merremia umbellata|Millettia conraui|Monteverdia amazonica|Monteverdia aquifolium|Monteverdia catingarum|Monteverdia fugax|Monteverdia horrida|Monteverdia ilioppjfeowneviufheiuwfew fgr|Monteverdia krukovii|Monteverdia laevis|Monteverdia macrocarpa|Monteverdia retusa|Monteverdia spinosa|Monteverdia truncata|Montipora mollis|Ormosia panamensis|Osmerus mordax|Palafoxia rosea|Pedicularis condensata|Peperomia heyneana|Peritassa campestris|Perityle vaseyi|Phoebe formosana|Polycitorella mariae|Porella swartziana|Pyrus ussuriensis|Quercus mongolica|Ranunculus sceleratus|Rheum webbianum|Rohdea wattii|Salacia chinensis|Salacia petenensis|Salvia coulteri|Satureja cuneifolia|Sclerotinia homoeocarpa|Senecio flavus|Sida cordifolia|Solanum sisymbriifolium|Solenopsis invicta|Spodoptera littoralis|Streptomyces fradiae|Streptomyces mobaraensis|Tenodera aridifolia|Thunbergia grandiflora|Thymbra spicata|Tricerma vitis-idaeum|Trichia floriformis|Tripterygium regelii|Tripterygium wilfordii|Turraeanthus mannii|Valeriana wolgensis|Zanthoxylum syncarpum

>  <collections>  (912) 
CMAUP (cCollective molecular activities of useful plants)|ChemSpider NPs|Latin America dataset|NPASS|NuBBEDB|SANCDB|Super Natural II|WikiData Natural Products|ZINC NP

>  <dois>  (912) 
10.1002/(SICI)1099-1565(199809/10)9:5<245::AID-PCA413>3.0.CO;2-T|10.1002/CHIN.199004272|10.1002/CHIN.200407160|10.1002/CHIN.200447157|10.1002/PCA.626|10.1016/0031-9422(75)85188-0|10.1016/0031-9422(93)85252-M|10.1016/0031-9422(96)00205-1|10.1016/0031-9422(96)00886-2|10.1016/0040-4020(94)00999-B|10.1016/0040-4020(96)00497-8|10.1016/0305-1978(86)90005-0|10.1016/0378-8741(82)90022-8|10.1016/0968-0896(96)00078-8|10.1016/J.BMCL.2007.12.016|10.1016/J.BMCL.2010.01.152|10.1016/J.PHYTOCHEM.2004.03.039|10.1016/J.PHYTOCHEM.2010.06.023|10.1016/S0031-9422(00)00285-5|10.1016/S0031-9422(00)80396-9|10.1016/S0031-9422(00)83591-8|10.1016/S0031-9422(00)89810-6|10.1016/S0031-9422(96)00858-8|10.1016/S0031-9422(98)00290-8|10.1016/S0031-9422(98)00300-8|10.1016/S0040-4020(01)89113-4|10.1016/S0040-4020(98)00835-7|10.1021/NP010123C|10.1021/NP0301543|10.1021/NP060559Y|10.1021/NP100517U|10.1021/NP50103A001|10.1021/NP50114A009|10.1021/NP980359P|10.1039/9781847555649-00238|10.1055/S-2001-10879|10.1055/S-2006-957524|10.1055/S-2006-960066|10.1080/10575639408043900|10.1080/10575639508043213|10.1080/14786410903052399|10.1139/V92-182|10.1515/ZNC-1999-1-223|10.3390/MOLECULES15106956

>  <synonyms>  (912) 
(6aS,6bS,8aS,11R,12aR,14aR)-3-hydroxy-4,6a,6b,8a,11,14a-hexamethyl-7,8,9,11,12,12a,13,14-octahydropicene-2,10-dione|(6bS,8aS,11R,12aR,12bS,14aR)-3-hydroxy-4,6b,8a,11,12b,14a-hexamethyl-2,6b,7,8,8a,9,10,11,12,12a,12b,13,14,14a-tetradecahydropicene-2,10-dione|(9beta,13alpha,14beta,20beta)-3-Hydroxy-9,13-dimethyl-24,25,26,30-tetranoroleana-1(10),3,5,7-tetraene-2,21-dione|20-decarboxy-20-oxocelastrol|24,25,26,30-Tetranoroleana-1(10),3,5,7-tetraene-2,21-dione, 3-hydroxy-9,13-dimethyl-, (9beta,13alpha,14beta,20beta)-|50802-21-6|AKOS040746411|BDBM512755|D:A-Friedo-24,30-dinoroleana-1(10),3,5,7-tetraene-2,21-dione, 3-hydroxy-, (20-beta)-|DTXSID401318599|Maitenin|Maytenin|Maytenin Tingenone|NSC608781|R35Y6B78ZS|SCHEMBL17064|Tingenin A|Tingenon|Tingenone III|acs.jmedchem.1c00409_ST.349|maitenine

>  <cas>  (912) 
50802-21-6

$$$$

     RDKit          2D

 37 42  0  0  0  0  0  0  0  0999 V2000
    4.0270   -3.0059    0.0000 C   0  0  0  0  0  0  0  0  0  0  0  0
    2.9709   -1.9407    0.0000 C   0  0  0  0  0  0  0  0  0  0  0  0
    3.3653   -0.4935    0.0000 C   0  0  0  0  0  0  0  0  0  0  0  0
    2.4263    0.6762    0.0000 O   0  0  0  0  0  0  0  0  0  0  0  0
    3.2486    1.9307    0.0000 C   0  0  0  0  0  0  0  0  0  0  0  0
    1.9150    2.6174    0.0000 C   0  0  0  0  0  0  0  0  0  0  0  0
    3.7921    3.3288    0.0000 C   0  0  0  0  0  0  0  0  0  0  0  0
    4.6958    1.5363    0.0000 C   0  0  0  0  0  0  0  0  0  0  0  0
    6.0985    2.0679    0.0000 O   0  0  0  0  0  0  0  0  0  0  0  0
    7.0375    0.8982    0.0000 C   0  0  0  0  0  0  0  0  0  0  0  0
    8.1026    1.9543    0.0000 C   0  0  0  0  0  0  0  0  0  0  0  0
    8.1992   -0.0507    0.0000 C   0  0  0  0  0  0  0  0  0  0  0  0
    6.2152   -0.3563    0.0000 O   0  0  0  0  0  0  0  0  0  0  0  0
    4.7679    0.0381    0.0000 C   0  0  0  0  0  0  0  0  0  0  0  0
    1.5204   -2.3228    0.0000 C   0  0  0  0  0  0  0  0  0  0  0  0
    0.9769   -3.7209    0.0000 C   0  0  0  0  0  0  0  0  0  0  0  0
   -0.5207   -3.6360    0.0000 C   0  0  0  0  0  0  0  0  0  0  0  0
   -0.9028   -2.1855    0.0000 C   0  0  0  0  0  0  0  0  0  0  0  0
   -2.0725   -3.1245    0.0000 C   0  0  0  0  0  0  0  0  0  0  0  0
   -2.2364   -1.4988    0.0000 C   0  0  0  0  0  0  0  0  0  0  0  0
   -3.4979   -2.3104    0.0000 C   0  0  0  0  0  0  0  0  0  0  0  0
   -4.8315   -1.6237    0.0000 C   0  0  0  0  0  0  0  0  0  0  0  0
   -4.9036   -0.1255    0.0000 C   0  0  0  0  0  0  0  0  0  0  0  0
   -6.2372    0.5612    0.0000 C   0  0  0  0  0  0  0  0  0  0  0  0
   -7.7252    0.7503    0.0000 C   0  0  0  0  0  0  0  0  0  0  0  0
   -6.6818   -0.8714    0.0000 C   0  0  0  0  0  0  0  0  0  0  0  0
   -6.3093    2.0595    0.0000 C   0  0  0  0  0  0  0  0  0  0  0  0
   -7.6429    2.7461    0.0000 O   0  0  0  0  0  0  0  0  0  0  0  0
   -5.0478    2.8711    0.0000 C   0  0  0  0  0  0  0  0  0  0  0  0
   -3.7142    2.1844    0.0000 C   0  0  0  0  0  0  0  0  0  0  0  0
   -3.6421    0.6861    0.0000 C   0  0  0  0  0  0  0  0  0  0  0  0
   -2.3806    1.4977    0.0000 C   0  0  0  0  0  0  0  0  0  0  0  0
   -2.3085   -0.0005    0.0000 C   0  0  0  0  0  0  0  0  0  0  0  0
   -1.0470    0.8111    0.0000 C   0  0  0  0  0  0  0  0  0  0  0  0
    0.2866    0.1244    0.0000 C   0  0  0  0  0  0  0  0  0  0  0  0
    0.3587   -1.3739    0.0000 C   0  0  0  0  0  0  0  0  0  0  0  0
    1.6981   -0.6986    0.0000 C   0  0  0  0  0  0  0  0  0  0  0  0
  2  1  1  1
  2  3  1  0
  3  4  1  0
  4  5  1  0
  5  6  1  0
  5  7  1  0
  5  8  1  0
  8  9  1  1
  9 10  1  0
 10 11  1  0
 10 12  1  0
 10 13  1  0
 14 13  1  1
  2 15  1  0
 15 16  1  6
 16 17  1  0
 17 18  1  0
 18 19  1  1
 18 20  1  0
 20 21  2  0
 21 22  1  0
 23 22  1  1
 23 24  1  0
 24 25  1  0
 24 26  1  0
 24 27  1  0
 27 28  1  1
 27 29  1  0
 29 30  1  0
 30 31  1  0
 31 32  1  1
 31 33  1  0
 33 34  1  1
 34 35  1  0
 35 36  1  0
 36 37  1  6
 14  3  1  0
 36 15  1  0
 14  8  1  0
 36 18  1  0
 33 20  1  0
 31 23  1  0
M  END
>  <identifier>  (913) 
CNP0080626.1

>  <canonical_smiles>  (913) 
C[C@H](C1OC(C)(C)[C@H]2OC(C)(C)O[C@@H]12)[C@@H]1CC[C@]2(C)C3=CC[C@H]4C(C)(C)[C@@H](O)CC[C@]4(C)[C@H]3CC[C@@]12C

>  <standard_inchi>  (913) 
InChI=1S/C33H54O4/c1-19(25-26-27(29(4,5)35-25)37-30(6,7)36-26)20-13-17-33(10)22-11-12-23-28(2,3)24(34)15-16-31(23,8)21(22)14-18-32(20,33)9/h11,19-21,23-27,34H,12-18H2,1-10H3/t19-,20-,21-,23-,24-,25?,26-,27-,31+,32-,33+/m0/s1

>  <standard_inchi_key>  (913) 
PRGLLHIYMVBELW-FMPXGEJQSA-N

>  <name>  (913) 
nan

>  <iupac_name>  (913) 
(3~{S},5~{R},9~{R},10~{R},13~{S},14~{S},17~{S})-17-[(1~{S})-1-[(3~{a}~{S},6~{a}~{S})-2,2,4,4-tetramethyl-6,6~{a}-dihydro-3~{a}~{H}-furo[3,4-d][1,3]dioxol-6-yl]ethyl]-4,4,10,13,14-pentamethyl-2,3,5,6,9,11,12,15,16,17-decahydro-1~{H}-cyclopenta[a]phenanthren-3-ol

>  <annotation_level>  (913) 
4

>  <total_atom_count>  (913) 
91

>  <heavy_atom_count>  (913) 
37

>  <molecular_weight>  (913) 
514.79

>  <exact_molecular_weight>  (913) 
514.40221

>  <molecular_formula>  (913) 
C33H54O4

>  <alogp>  (913) 
7.29

>  <topological_polar_surface_area>  (913) 
47.92

>  <rotatable_bond_count>  (913) 
2

>  <hydrogen_bond_acceptors>  (913) 
4

>  <hydrogen_bond_donors>  (913) 
1

>  <hydrogen_bond_acceptors_lipinski>  (913) 
4

>  <hydrogen_bond_donors_lipinski>  (913) 
1

>  <lipinski_rule_of_five_violations>  (913) 
2

>  <aromatic_rings_count>  (913) 
0

>  <qed_drug_likeliness>  (913) 
0.39

>  <formal_charge>  (913) 
0

>  <fractioncsp3>  (913) 
0.94

>  <number_of_minimal_rings>  (913) 
6

>  <van_der_walls_volume>  (913) 
nan

>  <contains_sugar>  (913) 
False

>  <contains_ring_sugars>  (913) 
False

>  <contains_linear_sugars>  (913) 
False

>  <murcko_framework>  (913) 
O1COC2C1COC2CC3CCC4C5=CCC6CCCCC6C5CCC43

>  <np_likeness>  (913) 
3.08

>  <chemical_class>  (913) 
Steroids and steroid derivatives

>  <chemical_sub_class>  (913) 
Hydroxysteroids

>  <chemical_super_class>  (913) 
Lipids and lipid-like molecules

>  <direct_parent_classification>  (913) 
Hydroxysteroids

>  <np_classifier_pathway>  (913) 
Terpenoids

>  <np_classifier_superclass>  (913) 
Triterpenoids

>  <np_classifier_class>  (913) 
Lanostane, Tirucallane and Euphane triterpenoids

>  <np_classifier_is_glycoside>  (913) 
False

>  <organisms>  (913) 
Cedrela odorata

>  <collections>  (913) 
Latin America dataset|NuBBEDB|WikiData Natural Products

>  <dois>  (913) 
10.2174/187152010794728620

>  <synonyms>  (913) 
Acetonide of odoratol

>  <cas>  (913) 
nan

$$$$

     RDKit          2D

 28 30  0  0  0  0  0  0  0  0999 V2000
   -5.5144   -2.4763    0.0000 C   0  0  0  0  0  0  0  0  0  0  0  0
   -4.1683   -1.8145    0.0000 C   0  0  0  0  0  0  0  0  0  0  0  0
   -2.9221   -2.6493    0.0000 O   0  0  0  0  0  0  0  0  0  0  0  0
   -4.0685   -0.3178    0.0000 O   0  0  0  0  0  0  0  0  0  0  0  0
   -2.7224    0.3441    0.0000 C   0  0  0  0  0  0  0  0  0  0  0  0
   -2.6226    1.8408    0.0000 C   0  0  0  0  0  0  0  0  0  0  0  0
   -3.8688    2.6756    0.0000 C   0  0  0  0  0  0  0  0  0  0  0  0
   -3.7690    4.1722    0.0000 C   0  0  0  0  0  0  0  0  0  0  0  0
   -5.2149    2.0137    0.0000 C   0  0  0  0  0  0  0  0  0  0  0  0
   -1.2765    2.5026    0.0000 C   0  0  0  0  0  0  0  0  0  0  0  0
   -0.0303    1.6679    0.0000 C   0  0  0  0  0  0  0  0  0  0  0  0
    1.2021    2.5230    0.0000 C   0  0  0  0  0  0  0  0  0  0  0  0
    2.6391    2.0926    0.0000 C   0  0  0  0  0  0  0  0  0  0  0  0
    3.1985    0.7008    0.0000 C   0  0  0  0  0  0  0  0  0  0  0  0
    2.4592   -0.6043    0.0000 C   0  0  0  0  0  0  0  0  0  0  0  0
    3.2198   -1.8972    0.0000 C   0  0  0  0  0  0  0  0  0  0  0  0
    4.7197   -1.8849    0.0000 C   0  0  0  0  0  0  0  0  0  0  0  0
    5.4591   -0.5797    0.0000 C   0  0  0  0  0  0  0  0  0  0  0  0
    4.6984    0.7131    0.0000 C   0  0  0  0  0  0  0  0  0  0  0  0
    4.4259    2.1881    0.0000 C   0  0  0  0  0  0  0  0  0  0  0  0
    6.1037    1.2377    0.0000 C   0  0  0  0  0  0  0  0  0  0  0  0
    0.9778   -0.8400    0.0000 C   0  0  0  0  0  0  0  0  0  0  0  0
   -0.1301    0.1712    0.0000 C   0  0  0  0  0  0  0  0  0  0  0  0
   -1.4762   -0.4907    0.0000 C   0  0  0  0  0  0  0  0  0  0  0  0
   -1.5760   -1.9874    0.0000 O   0  0  0  0  0  0  0  0  0  0  0  0
   -0.3298   -2.8222    0.0000 C   0  0  0  0  0  0  0  0  0  0  0  0
   -0.4296   -4.3188    0.0000 C   0  0  0  0  0  0  0  0  0  0  0  0
    1.0163   -2.1603    0.0000 O   0  0  0  0  0  0  0  0  0  0  0  0
  1  2  1  0
  2  3  2  0
  2  4  1  0
  4  5  1  0
  5  6  2  0
  6  7  1  0
  7  8  1  0
  7  9  1  0
  6 10  1  0
 10 11  2  0
 11 12  1  0
 12 13  1  0
 14 13  1  1
 14 15  1  0
 15 16  2  0
 16 17  1  0
 17 18  1  0
 18 19  1  0
 19 20  1  0
 19 21  1  0
 15 22  1  0
 22 23  1  0
 23 24  2  0
 24 25  1  0
 25 26  1  0
 26 27  1  0
 26 28  2  0
 24  5  1  0
 23 11  1  0
 19 14  1  0
M  END
>  <identifier>  (914) 
CNP0142672.1

>  <canonical_smiles>  (914) 
CC(=O)OC1=C(C(C)C)C=C2CC[C@@H]3C(=CCCC3(C)C)CC2=C1OC(C)=O

>  <standard_inchi>  (914) 
InChI=1S/C24H32O4/c1-14(2)19-12-17-9-10-21-18(8-7-11-24(21,5)6)13-20(17)23(28-16(4)26)22(19)27-15(3)25/h8,12,14,21H,7,9-11,13H2,1-6H3/t21-/m1/s1

>  <standard_inchi_key>  (914) 
ZRKDARPAWIQXGK-OAQYLSRUSA-N

>  <name>  (914) 
[(11S)-5-acetyloxy-12,12-dimethyl-6-propan-2-yl-4-tricyclo[9.4.0.03,8]pentadeca-1(15),3,5,7-tetraenyl] acetate

>  <iupac_name>  (914) 
[(11~{S})-4-acetoxy-6-isopropyl-12,12-dimethyl-5-tricyclo[9.4.0.0^{3,8}]pentadeca-1(15),3,5,7-tetraenyl] acetate

>  <annotation_level>  (914) 
5

>  <total_atom_count>  (914) 
60

>  <heavy_atom_count>  (914) 
28

>  <molecular_weight>  (914) 
384.52

>  <exact_molecular_weight>  (914) 
384.23006

>  <molecular_formula>  (914) 
C24H32O4

>  <alogp>  (914) 
5.51

>  <topological_polar_surface_area>  (914) 
52.60

>  <rotatable_bond_count>  (914) 
3

>  <hydrogen_bond_acceptors>  (914) 
4

>  <hydrogen_bond_donors>  (914) 
0

>  <hydrogen_bond_acceptors_lipinski>  (914) 
4

>  <hydrogen_bond_donors_lipinski>  (914) 
0

>  <lipinski_rule_of_five_violations>  (914) 
1

>  <aromatic_rings_count>  (914) 
1

>  <qed_drug_likeliness>  (914) 
0.39

>  <formal_charge>  (914) 
0

>  <fractioncsp3>  (914) 
0.58

>  <number_of_minimal_rings>  (914) 
3

>  <van_der_walls_volume>  (914) 
nan

>  <contains_sugar>  (914) 
False

>  <contains_ring_sugars>  (914) 
False

>  <contains_linear_sugars>  (914) 
False

>  <murcko_framework>  (914) 
c1ccc2c(c1)CC3=CCCCC3CC2

>  <np_likeness>  (914) 
1.69

>  <chemical_class>  (914) 
Prenol lipids

>  <chemical_sub_class>  (914) 
Diterpenoids

>  <chemical_super_class>  (914) 
Lipids and lipid-like molecules

>  <direct_parent_classification>  (914) 
Diterpenoids

>  <np_classifier_pathway>  (914) 
Terpenoids

>  <np_classifier_superclass>  (914) 
Diterpenoids

>  <np_classifier_class>  (914) 
Icetexane diterpenoids

>  <np_classifier_is_glycoside>  (914) 
False

>  <organisms>  (914) 
Coleus barbatus|Plectranthus barbatus

>  <collections>  (914) 
Latin America dataset|NuBBEDB|WikiData Natural Products

>  <dois>  (914) 
10.1016/S0040-4020(01)88671-3

>  <synonyms>  (914) 
(-)-Barbatusol diacetate|CHEMBL4860622

>  <cas>  (914) 
nan

$$$$

     RDKit          2D

 29 32  0  0  0  0  0  0  0  0999 V2000
   -1.1606    2.6163    0.0000 C   0  0  0  0  0  0  0  0  0  0  0  0
    0.0744    1.7649    0.0000 C   0  0  0  0  0  0  0  0  0  0  0  0
   -0.0455    0.2697    0.0000 C   0  0  0  0  0  0  0  0  0  0  0  0
    1.1895   -0.5817    0.0000 C   0  0  0  0  0  0  0  0  0  0  0  0
    1.4650    0.8927    0.0000 C   0  0  0  0  0  0  0  0  0  0  0  0
    2.8796    1.3914    0.0000 C   0  0  0  0  0  0  0  0  0  0  0  0
    3.1551    2.8659    0.0000 O   0  0  0  0  0  0  0  0  0  0  0  0
    4.5698    3.3646    0.0000 C   0  0  0  0  0  0  0  0  0  0  0  0
    4.0188    0.4156    0.0000 C   0  0  0  0  0  0  0  0  0  0  0  0
    5.4335    0.9143    0.0000 O   0  0  0  0  0  0  0  0  0  0  0  0
    3.7434   -1.0589    0.0000 C   0  0  0  0  0  0  0  0  0  0  0  0
    4.8826   -2.0347    0.0000 O   0  0  0  0  0  0  0  0  0  0  0  0
    6.2972   -1.5360    0.0000 C   0  0  0  0  0  0  0  0  0  0  0  0
    2.3287   -1.5576    0.0000 C   0  0  0  0  0  0  0  0  0  0  0  0
    1.7526   -2.9425    0.0000 O   0  0  0  0  0  0  0  0  0  0  0  0
    0.2574   -2.8227    0.0000 C   0  0  0  0  0  0  0  0  0  0  0  0
   -0.7184   -3.9619    0.0000 C   0  0  0  0  0  0  0  0  0  0  0  0
   -0.0906   -1.3636    0.0000 C   0  0  0  0  0  0  0  0  0  0  0  0
   -1.4756   -0.7876    0.0000 C   0  0  0  0  0  0  0  0  0  0  0  0
   -1.6692    0.6998    0.0000 C   0  0  0  0  0  0  0  0  0  0  0  0
   -3.0542    1.2759    0.0000 C   0  0  0  0  0  0  0  0  0  0  0  0
   -3.2479    2.7633    0.0000 O   0  0  0  0  0  0  0  0  0  0  0  0
   -2.0565    3.6747    0.0000 C   0  0  0  0  0  0  0  0  0  0  0  0
   -4.2456    0.3644    0.0000 C   0  0  0  0  0  0  0  0  0  0  0  0
   -5.7201    0.6399    0.0000 O   0  0  0  0  0  0  0  0  0  0  0  0
   -6.4377   -0.6773    0.0000 C   0  0  0  0  0  0  0  0  0  0  0  0
   -5.4068   -1.7668    0.0000 O   0  0  0  0  0  0  0  0  0  0  0  0
   -4.0519   -1.1230    0.0000 C   0  0  0  0  0  0  0  0  0  0  0  0
   -2.6670   -1.6990    0.0000 C   0  0  0  0  0  0  0  0  0  0  0  0
  1  2  1  0
  2  3  1  0
  4  3  1  1
  4  5  1  0
  5  6  1  0
  6  7  1  6
  7  8  1  0
  6  9  1  0
  9 10  2  0
  9 11  1  0
 11 12  1  0
 12 13  1  0
 11 14  2  0
 14 15  1  0
 15 16  1  0
 16 17  1  6
 16 18  1  0
 18 19  1  1
 19 20  2  0
 20 21  1  0
 21 22  1  0
 22 23  1  0
 21 24  2  0
 24 25  1  0
 25 26  1  0
 26 27  1  0
 27 28  1  0
 28 29  2  0
 14  4  1  0
 29 19  1  0
 18  4  1  0
 28 24  1  0
M  END
>  <identifier>  (915) 
CNP0318849.1

>  <canonical_smiles>  (915) 
CCC[C@@]12C[C@H](OC)C(=O)C(OC)=C1O[C@H](C)[C@H]2C1=CC(OC)=C2OCOC2=C1

>  <standard_inchi>  (915) 
InChI=1S/C22H28O7/c1-6-7-22-10-16(25-4)18(23)20(26-5)21(22)29-12(2)17(22)13-8-14(24-3)19-15(9-13)27-11-28-19/h8-9,12,16-17H,6-7,10-11H2,1-5H3/t12-,16+,17+,22+/m1/s1

>  <standard_inchi_key>  (915) 
JMOWSBJENQPPHA-JFEFUFABSA-N

>  <name>  (915) 
nan

>  <iupac_name>  (915) 
(2~{R},3~{S},3~{a}~{S},5~{S})-5,7-dimethoxy-3-(7-methoxy-1,3-benzodioxol-5-yl)-2-methyl-3~{a}-propyl-2,3,4,5-tetrahydrobenzofuran-6-one

>  <annotation_level>  (915) 
3

>  <total_atom_count>  (915) 
57

>  <heavy_atom_count>  (915) 
29

>  <molecular_weight>  (915) 
404.46

>  <exact_molecular_weight>  (915) 
404.1835

>  <molecular_formula>  (915) 
C22H28O7

>  <alogp>  (915) 
3.56

>  <topological_polar_surface_area>  (915) 
72.45

>  <rotatable_bond_count>  (915) 
6

>  <hydrogen_bond_acceptors>  (915) 
7

>  <hydrogen_bond_donors>  (915) 
0

>  <hydrogen_bond_acceptors_lipinski>  (915) 
7

>  <hydrogen_bond_donors_lipinski>  (915) 
0

>  <lipinski_rule_of_five_violations>  (915) 
0

>  <aromatic_rings_count>  (915) 
1

>  <qed_drug_likeliness>  (915) 
0.72

>  <formal_charge>  (915) 
0

>  <fractioncsp3>  (915) 
0.59

>  <number_of_minimal_rings>  (915) 
4

>  <van_der_walls_volume>  (915) 
nan

>  <contains_sugar>  (915) 
False

>  <contains_ring_sugars>  (915) 
False

>  <contains_linear_sugars>  (915) 
False

>  <murcko_framework>  (915) 
O1c2ccc(cc2OC1)C3COC4=CCCCC43

>  <np_likeness>  (915) 
1.77

>  <chemical_class>  (915) 
Benzodioxoles

>  <chemical_sub_class>  (915) 
Benzodioxoles

>  <chemical_super_class>  (915) 
Organoheterocyclic compounds

>  <direct_parent_classification>  (915) 
Benzodioxoles

>  <np_classifier_pathway>  (915) 
Shikimates and Phenylpropanoids

>  <np_classifier_superclass>  (915) 
Lignans

>  <np_classifier_class>  (915) 
nan

>  <np_classifier_is_glycoside>  (915) 
False

>  <organisms>  (915) 
Licaria chrysophylla

>  <collections>  (915) 
Latin America dataset|NuBBEDB|WikiData Natural Products

>  <dois>  (915) 
10.1016/0031-9422(82)83121-X

>  <synonyms>  (915) 
nan

>  <cas>  (915) 
nan

$$$$

     RDKit          2D

 19 21  0  0  0  0  0  0  0  0999 V2000
   -1.7493   -3.4874    0.0000 C   0  0  0  0  0  0  0  0  0  0  0  0
   -0.3957   -2.8409    0.0000 O   0  0  0  0  0  0  0  0  0  0  0  0
   -0.2788   -1.3455    0.0000 C   0  0  0  0  0  0  0  0  0  0  0  0
    1.0747   -0.6990    0.0000 C   0  0  0  0  0  0  0  0  0  0  0  0
    2.3113   -1.5480    0.0000 C   0  0  0  0  0  0  0  0  0  0  0  0
    3.6649   -0.9015    0.0000 C   0  0  0  0  0  0  0  0  0  0  0  0
    3.7818    0.5939    0.0000 C   0  0  0  0  0  0  0  0  0  0  0  0
    4.4031    1.9592    0.0000 C   0  0  0  0  0  0  0  0  0  0  0  0
    5.2342    0.2191    0.0000 C   0  0  0  0  0  0  0  0  0  0  0  0
    2.5452    1.4429    0.0000 O   0  0  0  0  0  0  0  0  0  0  0  0
    1.1916    0.7964    0.0000 C   0  0  0  0  0  0  0  0  0  0  0  0
   -0.0450    1.6454    0.0000 C   0  0  0  0  0  0  0  0  0  0  0  0
   -1.3986    0.9989    0.0000 C   0  0  0  0  0  0  0  0  0  0  0  0
   -1.5155   -0.4965    0.0000 C   0  0  0  0  0  0  0  0  0  0  0  0
   -2.8690   -1.1430    0.0000 C   0  0  0  0  0  0  0  0  0  0  0  0
   -4.1056   -0.2940    0.0000 C   0  0  0  0  0  0  0  0  0  0  0  0
   -3.9887    1.2014    0.0000 C   0  0  0  0  0  0  0  0  0  0  0  0
   -5.2254    2.0504    0.0000 O   0  0  0  0  0  0  0  0  0  0  0  0
   -2.6352    1.8479    0.0000 O   0  0  0  0  0  0  0  0  0  0  0  0
  1  2  1  0
  2  3  1  0
  3  4  2  0
  4  5  1  0
  5  6  2  0
  6  7  1  0
  7  8  1  0
  7  9  1  0
  7 10  1  0
 10 11  1  0
 11 12  2  0
 12 13  1  0
 13 14  2  0
 14 15  1  0
 15 16  2  0
 16 17  1  0
 17 18  2  0
 17 19  1  0
 14  3  1  0
 11  4  1  0
 19 13  1  0
M  END
>  <identifier>  (916) 
CNP0105066.0

>  <canonical_smiles>  (916) 
COC1=C2C=CC(C)(C)OC2=CC2=C1C=CC(=O)O2

>  <standard_inchi>  (916) 
InChI=1S/C15H14O4/c1-15(2)7-6-10-12(19-15)8-11-9(14(10)17-3)4-5-13(16)18-11/h4-8H,1-3H3

>  <standard_inchi_key>  (916) 
JSJIIHRNDMLJGK-UHFFFAOYSA-N

>  <name>  (916) 
Xanthoxyletin

>  <iupac_name>  (916) 
5-methoxy-2,2-dimethyl-pyrano[3,2-g]chromen-8-one

>  <annotation_level>  (916) 
5

>  <total_atom_count>  (916) 
33

>  <heavy_atom_count>  (916) 
19

>  <molecular_weight>  (916) 
258.27

>  <exact_molecular_weight>  (916) 
258.08921

>  <molecular_formula>  (916) 
C15H14O4

>  <alogp>  (916) 
2.99

>  <topological_polar_surface_area>  (916) 
48.67

>  <rotatable_bond_count>  (916) 
1

>  <hydrogen_bond_acceptors>  (916) 
4

>  <hydrogen_bond_donors>  (916) 
0

>  <hydrogen_bond_acceptors_lipinski>  (916) 
4

>  <hydrogen_bond_donors_lipinski>  (916) 
0

>  <lipinski_rule_of_five_violations>  (916) 
0

>  <aromatic_rings_count>  (916) 
2

>  <qed_drug_likeliness>  (916) 
0.74

>  <formal_charge>  (916) 
0

>  <fractioncsp3>  (916) 
0.27

>  <number_of_minimal_rings>  (916) 
3

>  <van_der_walls_volume>  (916) 
227.47

>  <contains_sugar>  (916) 
False

>  <contains_ring_sugars>  (916) 
False

>  <contains_linear_sugars>  (916) 
False

>  <murcko_framework>  (916) 
O1c2cc3OCC=Cc3cc2C=CC1

>  <np_likeness>  (916) 
2.29

>  <chemical_class>  (916) 
Coumarins and derivatives

>  <chemical_sub_class>  (916) 
Pyranocoumarins

>  <chemical_super_class>  (916) 
Phenylpropanoids and polyketides

>  <direct_parent_classification>  (916) 
Linear pyranocoumarins

>  <np_classifier_pathway>  (916) 
Shikimates and Phenylpropanoids

>  <np_classifier_superclass>  (916) 
Coumarins

>  <np_classifier_class>  (916) 
Pyranocoumarins

>  <np_classifier_is_glycoside>  (916) 
False

>  <organisms>  (916) 
Aceriphyllum rossii|Agnorhiza bolanderi|Alligator mississippiensis|Anagallis arvensis|Anaxagorea clavata|Angelica archangelica|Angelica taiwaniana|Araujia sericifera|Aria pallescens|Arnica nevadensis|Artemisia monogyna|Asterolasia squamuligera|Bassia butyracea|Beyeria brevifolia|Bursaria spinosa|Catharanthus roseus|Chloranthus tianmushanensis|Chloroxylon swietenia|Chromolaena odorata|Chromolaena pulchella|Cinnamomum tenuifolium|Citrus canariculata|Citrus funadoko|Citrus grandis|Citrus hassaku|Citrus junos|Citrus medica|Citrus nobilis|Citrus reticulata|Citrus sinensis|Citrus tamurana|Citrus trifoliata|Citrus × deliciosa|Citrus × paradisi|Cladonia evansii|Clausena Excavata|Clausena anisata|Clausena excavata|Clausena harmandiana|Clonostachys rosea|Cnidium monnieri|Coccus fagi|Dendrosenecio kilimanjari|Dipterocarpus alatus|Drosera peltata|Echinogorgia|Echinops amplexicaulis|Epaltes gariepina|Ficus formosana|Fusarium gibbosum|Gardenia fosbergii|Geijera balansae|Halfordia kendack|Halfordia scleroxyla|Hansenia weberbaueriana|Harrisonia perforata|Heracleum lanatum var. asiaticum|Ilex affinis|Isodon kameba|Jaspis stellifera|Kaempferia pulchra|Lactarius scrobiculatus|Melicope ternata|Moringa oleifera|Murraya koenigii|Murraya siamensis|Notopterygium incisum|Odixia angusta|Palythoa tuberculosa|Pastinaca sativa|Petriella guttulata|Peucedanum rubricaule|Pheidole pallidula|Phyllobates aurotaenia|Pilocarpus goudotianus|Pleiospermium alatum|Pleurospermum rivulorum|Pluchea dioscoridis|Plumbago Zeylanica|Plumbago zeylanica|Poncirus trifoliata|Prosopis glandulosa|Prunus laurocerasus|Pseudopterogorgia kallos|Pteris prolifera|Pterocarpus grandiflorus|Pyrola rotundifolia|Pyrosoma giganteum|Quercus aegilops|Rhizobium phaseoli|Salvia officinalis|Securidaca inappendiculata|Senecio squalidus|Seriphidium cinum|Sesbania punicea|Simira eliezeriana|Stenostomum lucidum|Stevia alpina|Stoeba extensa|Streptomyces althioticus|Streptomyces violaceochromogenes|Strophanthus eminii|Taxodium mucronatum|Trifoliate orange|Uncaria perrottetii|Vitex madiensis|Zanthoxylum americanum|Zanthoxylum dipetalum|Zanthoxylum sarasinii|pomelo

>  <collections>  (916) 
Australian natural products|CMAUP (cCollective molecular activities of useful plants)|ChEBI NPs|ConMedNP|ETM (Ethiopian Traditional Medicine) DB|FooDB|GNPS (Global Natural Products Social Molecular Networking)|KNApSaCK|Latin America dataset|NPASS|NPCARE|NuBBEDB|Phyto4Health|PubChem NPs|Super Natural II|TCMDB-Taiwan (Traditional Chinese Medicine database)|TCMID (Traditional Chinese Medicine Integrated Database)|TIPdb (database of Taiwan indigenous plants)|UNPD (Universal Natural Products Database)|VietHerb|WikiData Natural Products

>  <dois>  (916) 
10.1002/PTR.686|10.1016/0031-9422(75)83129-3|10.1016/0031-9422(88)80815-X|10.1016/0031-9422(88)83146-7|10.1016/0031-9422(89)80056-1|10.1016/0031-9422(89)80402-9|10.1016/0031-9422(90)89054-D|10.1016/0031-9422(95)00472-J|10.1016/0031-9422(96)00212-9|10.1016/0305-1978(96)88874-0|10.1016/S0031-9422(00)84044-3|10.1016/S0031-9422(00)84608-7|10.1016/S0031-9422(00)88581-7|10.1016/S0031-9422(02)00519-8|10.1016/S0031-9422(96)00532-8|10.1016/S0031-9422(99)00220-4|10.1016/j.chroma.2009.02.066|10.1021/NP100654M|10.1021/NP50032A016|10.1021/NP50036A038|10.1021/NP50039A034|10.1021/NP50041A009|10.1021/NP50066A017|10.1021/NP50070A025|10.1021/NP50087A013|10.1021/np100654m|10.1039/JR9490002162|10.1039/P19900001593|10.1055/S-2003-37716|10.1055/S-2003-39697|10.1055/S-2006-960965|10.1055/S-2006-962355|10.1055/S-2006-962398|10.1071/CH9560120|10.1071/ch9560120|10.1248/CPB.38.1230|10.1248/CPB.41.1657|10.1248/CPB.45.48|10.1248/CPB.46.693|10.1248/CPB.56.827

>  <synonyms>  (916) 
2-Propenoic acid,2-dimethyl-2H-1-benzopyran-6-yl)-, .delta.-lactone|2H,2-b:5,4-b']dipyran-2-one, 5-methoxy-8,8-dimethyl-|2H,8H-Benzo(1,2-b:5,4-b')dipyran-2-one, 5-methoxy-8,8-dimethyl-|5-Methoxy-8,8-dimethyl-2H,8H-benzo[1,2-b:5,4-b']dipyran-2-one,9CI|5-Methoxy-8,8-dimethyl-2H,8H-pyrano[3,2-g]chromen-2-one|5-methoxy-2,2-dimethylpyrano[3,2-g]chromen-8-one|69MPX4M5VD|7-HYDROXY-5-METHOXY-2,2-DIMETHYL-2H-1-BENZOPYRAN-6-ACRYLIC ACID .DELTA.-LACTONE|84-99-1|ACon1_000545|AKOS032962595|BDBM50428432|BRD-K28556256-001-01-3|CHEBI:69929|CHEMBL501358|CS-0016348|DTXSID70232891|FS-8762|HMS2269F07|HY-N1065|MEGxp0_001370|MLS000876794|NCGC00168976-01|NCGC00168976-02!5-methoxy-2,2-dimethylpyrano[3,2-g]chromen-8-one|NCI60_003203|NSC 35542|NSC 35542; Xanthoxylin N|NSC-35542|Q27138273|SCHEMBL5793283|SMR000440571|UNII-69MPX4M5VD|XANTHOXYLETIN [MI]|XX163678|Xanthoxyletin|Xanthoxylin N|Xanthoxyloin

>  <cas>  (916) 
84-99-1

$$$$

     RDKit          2D

 24 26  0  0  0  0  0  0  0  0999 V2000
   -6.7239    2.0089    0.0000 C   0  0  0  0  0  0  0  0  0  0  0  0
   -6.1237    0.6342    0.0000 O   0  0  0  0  0  0  0  0  0  0  0  0
   -4.6331    0.4666    0.0000 C   0  0  0  0  0  0  0  0  0  0  0  0
   -3.7427    1.6736    0.0000 C   0  0  0  0  0  0  0  0  0  0  0  0
   -2.2521    1.5060    0.0000 C   0  0  0  0  0  0  0  0  0  0  0  0
   -1.6519    0.1313    0.0000 C   0  0  0  0  0  0  0  0  0  0  0  0
   -0.1613   -0.0363    0.0000 C   0  0  0  0  0  0  0  0  0  0  0  0
    0.4388   -1.4110    0.0000 C   0  0  0  0  0  0  0  0  0  0  0  0
    1.9294   -1.5787    0.0000 O   0  0  0  0  0  0  0  0  0  0  0  0
    2.8199   -0.3716    0.0000 C   0  0  0  0  0  0  0  0  0  0  0  0
    4.3105   -0.5392    0.0000 C   0  0  0  0  0  0  0  0  0  0  0  0
    4.9106   -1.9139    0.0000 O   0  0  0  0  0  0  0  0  0  0  0  0
    4.0202   -3.1210    0.0000 C   0  0  0  0  0  0  0  0  0  0  0  0
    5.2010    0.6679    0.0000 C   0  0  0  0  0  0  0  0  0  0  0  0
    6.6916    0.5002    0.0000 O   0  0  0  0  0  0  0  0  0  0  0  0
    4.6008    2.0426    0.0000 C   0  0  0  0  0  0  0  0  0  0  0  0
    3.1102    2.2102    0.0000 C   0  0  0  0  0  0  0  0  0  0  0  0
    2.2198    1.0031    0.0000 C   0  0  0  0  0  0  0  0  0  0  0  0
    0.7292    1.1708    0.0000 C   0  0  0  0  0  0  0  0  0  0  0  0
    0.1290    2.5455    0.0000 O   0  0  0  0  0  0  0  0  0  0  0  0
   -2.5424   -1.0758    0.0000 C   0  0  0  0  0  0  0  0  0  0  0  0
   -4.0330   -0.9082    0.0000 C   0  0  0  0  0  0  0  0  0  0  0  0
   -4.9235   -2.1152    0.0000 O   0  0  0  0  0  0  0  0  0  0  0  0
   -4.3233   -3.4900    0.0000 C   0  0  0  0  0  0  0  0  0  0  0  0
  1  2  1  0
  2  3  1  0
  3  4  2  0
  4  5  1  0
  5  6  2  0
  6  7  1  0
  7  8  2  0
  8  9  1  0
  9 10  1  0
 10 11  2  0
 11 12  1  0
 12 13  1  0
 11 14  1  0
 14 15  1  0
 14 16  2  0
 16 17  1  0
 17 18  2  0
 18 19  1  0
 19 20  2  0
  6 21  1  0
 21 22  2  0
 22 23  1  0
 23 24  1  0
 22  3  1  0
 19  7  1  0
 18 10  1  0
M  END
>  <identifier>  (917) 
CNP0174330.0

>  <canonical_smiles>  (917) 
COC1=CC=C(C2=COC3=C(OC)C(O)=CC=C3C2=O)C=C1OC

>  <standard_inchi>  (917) 
InChI=1S/C18H16O6/c1-21-14-7-4-10(8-15(14)22-2)12-9-24-17-11(16(12)20)5-6-13(19)18(17)23-3/h4-9,19H,1-3H3

>  <standard_inchi_key>  (917) 
VYUBGGKHELMRLL-UHFFFAOYSA-N

>  <name>  (917) 
7-Hydroxy-8,3',4'-trimethoxyisoflavone

>  <iupac_name>  (917) 
3-(3,4-dimethoxyphenyl)-7-hydroxy-8-methoxy-chromen-4-one

>  <annotation_level>  (917) 
5

>  <total_atom_count>  (917) 
40

>  <heavy_atom_count>  (917) 
24

>  <molecular_weight>  (917) 
328.32

>  <exact_molecular_weight>  (917) 
328.09469

>  <molecular_formula>  (917) 
C18H16O6

>  <alogp>  (917) 
3.19

>  <topological_polar_surface_area>  (917) 
78.13

>  <rotatable_bond_count>  (917) 
4

>  <hydrogen_bond_acceptors>  (917) 
6

>  <hydrogen_bond_donors>  (917) 
1

>  <hydrogen_bond_acceptors_lipinski>  (917) 
6

>  <hydrogen_bond_donors_lipinski>  (917) 
1

>  <lipinski_rule_of_five_violations>  (917) 
0

>  <aromatic_rings_count>  (917) 
3

>  <qed_drug_likeliness>  (917) 
0.79

>  <formal_charge>  (917) 
0

>  <fractioncsp3>  (917) 
0.17

>  <number_of_minimal_rings>  (917) 
3

>  <van_der_walls_volume>  (917) 
nan

>  <contains_sugar>  (917) 
False

>  <contains_ring_sugars>  (917) 
False

>  <contains_linear_sugars>  (917) 
False

>  <murcko_framework>  (917) 
O1C=C(c2ccccc2)Cc3ccccc13

>  <np_likeness>  (917) 
0.97

>  <chemical_class>  (917) 
Isoflavonoids

>  <chemical_sub_class>  (917) 
Isoflav-2-enes

>  <chemical_super_class>  (917) 
Phenylpropanoids and polyketides

>  <direct_parent_classification>  (917) 
Isoflavones

>  <np_classifier_pathway>  (917) 
Shikimates and Phenylpropanoids

>  <np_classifier_superclass>  (917) 
Isoflavonoids

>  <np_classifier_class>  (917) 
Isoflavones

>  <np_classifier_is_glycoside>  (917) 
False

>  <organisms>  (917) 
Dipteryx alata|Millettia dura|Monopterix uaucu|Monopteryx uaucu|Xanthocercis zambesiaca

>  <collections>  (917) 
ANPDB|Latin America dataset|NANPDB (Natural Products from Northern African Sources)|NPEdia|NuBBEDB|Super Natural II|UNPD (Universal Natural Products Database)|WikiData Natural Products|ZINC NP

>  <dois>  (917) 
10.1016/0031-9422(81)85097-2|10.1016/0031-9422(88)80154-7|10.1016/j.phytol.2017.07.012|10.3390/MOLECULES15118193

>  <synonyms>  (917) 
7-hydroxy-8,3',4'-trimethoxyisoflavone|LMPK12050141

>  <cas>  (917) 
nan

$$$$

     RDKit          2D

 34 38  0  0  0  0  0  0  0  0999 V2000
    0.7813   -5.3330    0.0000 C   0  0  0  0  0  0  0  0  0  0  0  0
    1.4335   -3.9822    0.0000 C   0  0  0  0  0  0  0  0  0  0  0  0
    2.9294   -3.8715    0.0000 O   0  0  0  0  0  0  0  0  0  0  0  0
    0.5897   -2.7420    0.0000 O   0  0  0  0  0  0  0  0  0  0  0  0
    1.2418   -1.3912    0.0000 C   0  0  0  0  0  0  0  0  0  0  0  0
    2.7377   -1.2805    0.0000 C   0  0  0  0  0  0  0  0  0  0  0  0
    3.3898    0.0703    0.0000 C   0  0  0  0  0  0  0  0  0  0  0  0
    4.8858    0.1809    0.0000 C   0  0  0  0  0  0  0  0  0  0  0  0
    6.3293   -0.2267    0.0000 C   0  0  0  0  0  0  0  0  0  0  0  0
    4.7350   -1.3115    0.0000 C   0  0  0  0  0  0  0  0  0  0  0  0
    5.5379    1.5318    0.0000 C   0  0  0  0  0  0  0  0  0  0  0  0
    7.0338    1.6424    0.0000 O   0  0  0  0  0  0  0  0  0  0  0  0
    4.6941    2.7719    0.0000 C   0  0  0  0  0  0  0  0  0  0  0  0
    3.1982    2.6613    0.0000 C   0  0  0  0  0  0  0  0  0  0  0  0
    2.5461    1.3105    0.0000 C   0  0  0  0  0  0  0  0  0  0  0  0
    1.7023    2.5506    0.0000 C   0  0  0  0  0  0  0  0  0  0  0  0
    1.0501    1.1998    0.0000 C   0  0  0  0  0  0  0  0  0  0  0  0
    0.2064    2.4400    0.0000 C   0  0  0  0  0  0  0  0  0  0  0  0
   -1.2896    2.3293    0.0000 C   0  0  0  0  0  0  0  0  0  0  0  0
   -1.9417    0.9785    0.0000 C   0  0  0  0  0  0  0  0  0  0  0  0
   -2.7637    2.2332    0.0000 C   0  0  0  0  0  0  0  0  0  0  0  0
   -1.0979   -0.2617    0.0000 C   0  0  0  0  0  0  0  0  0  0  0  0
   -2.0166   -1.4474    0.0000 C   0  0  0  0  0  0  0  0  0  0  0  0
   -3.4282   -0.9400    0.0000 C   0  0  0  0  0  0  0  0  0  0  0  0
   -4.6684   -1.7838    0.0000 O   0  0  0  0  0  0  0  0  0  0  0  0
   -3.3819    0.5593    0.0000 C   0  0  0  0  0  0  0  0  0  0  0  0
   -3.8263    1.9919    0.0000 O   0  0  0  0  0  0  0  0  0  0  0  0
   -4.8778    0.4486    0.0000 C   0  0  0  0  0  0  0  0  0  0  0  0
   -5.6676   -0.8267    0.0000 C   0  0  0  0  0  0  0  0  0  0  0  0
   -7.1245   -0.4696    0.0000 O   0  0  0  0  0  0  0  0  0  0  0  0
   -7.2351    1.0263    0.0000 C   0  0  0  0  0  0  0  0  0  0  0  0
   -5.8466    1.5938    0.0000 C   0  0  0  0  0  0  0  0  0  0  0  0
    0.3980   -0.1510    0.0000 C   0  0  0  0  0  0  0  0  0  0  0  0
   -0.2541   -1.5018    0.0000 C   0  0  0  0  0  0  0  0  0  0  0  0
  1  2  1  0
  2  3  2  0
  2  4  1  0
  5  4  1  1
  5  6  1  0
  6  7  1  0
  7  8  1  0
  8  9  1  0
  8 10  1  0
  8 11  1  0
 11 12  2  0
 11 13  1  0
 13 14  2  0
 14 15  1  0
 15 16  1  6
 15 17  1  0
 17 18  1  0
 18 19  1  0
 19 20  1  0
 20 21  1  1
 20 22  1  0
 22 23  2  0
 23 24  1  0
 24 25  2  0
 24 26  1  0
 26 27  1  6
 26 28  1  0
 28 29  2  0
 29 30  1  0
 30 31  1  0
 31 32  2  0
 22 33  1  0
 33 34  1  6
 33  5  1  0
 15  7  1  0
 33 17  1  0
 26 20  1  0
 32 28  1  0
M  END
>  <identifier>  (918) 
CNP0379031.3

>  <canonical_smiles>  (918) 
CC(=O)O[C@@H]1CC2C(C)(C)C(=O)C=C[C@]2(C)C2CC[C@]3(C)C(=CC(=O)[C@@]3(O)C3=COC=C3)[C@@]21C

>  <standard_inchi>  (918) 
InChI=1S/C28H34O6/c1-16(29)34-23-14-19-24(2,3)21(30)8-10-25(19,4)18-7-11-26(5)20(27(18,23)6)13-22(31)28(26,32)17-9-12-33-15-17/h8-10,12-13,15,18-19,23,32H,7,11,14H2,1-6H3/t18?,19?,23-,25-,26-,27-,28+/m1/s1

>  <standard_inchi_key>  (918) 
QXKHBVSTPRHRQV-UYVKZKAESA-N

>  <name>  (918) 
nan

>  <iupac_name>  (918) 
[(7~{R},8~{R},10~{R},13~{R},17~{S})-17-(3-furyl)-17-hydroxy-4,4,8,10,13-pentamethyl-3,16-dioxo-5,6,7,9,11,12-hexahydrocyclopenta[a]phenanthren-7-yl] acetate

>  <annotation_level>  (918) 
4

>  <total_atom_count>  (918) 
68

>  <heavy_atom_count>  (918) 
34

>  <molecular_weight>  (918) 
466.57

>  <exact_molecular_weight>  (918) 
466.23554

>  <molecular_formula>  (918) 
C28H34O6

>  <alogp>  (918) 
4.52

>  <topological_polar_surface_area>  (918) 
93.81

>  <rotatable_bond_count>  (918) 
2

>  <hydrogen_bond_acceptors>  (918) 
6

>  <hydrogen_bond_donors>  (918) 
1

>  <hydrogen_bond_acceptors_lipinski>  (918) 
6

>  <hydrogen_bond_donors_lipinski>  (918) 
1

>  <lipinski_rule_of_five_violations>  (918) 
0

>  <aromatic_rings_count>  (918) 
1

>  <qed_drug_likeliness>  (918) 
0.64

>  <formal_charge>  (918) 
0

>  <fractioncsp3>  (918) 
0.61

>  <number_of_minimal_rings>  (918) 
5

>  <van_der_walls_volume>  (918) 
nan

>  <contains_sugar>  (918) 
False

>  <contains_ring_sugars>  (918) 
False

>  <contains_linear_sugars>  (918) 
False

>  <murcko_framework>  (918) 
o1ccc(c1)C2CC=C3C2CCC4C5C=CCCC5CCC34

>  <np_likeness>  (918) 
3.12

>  <chemical_class>  (918) 
Steroids and steroid derivatives

>  <chemical_sub_class>  (918) 
Hydroxysteroids

>  <chemical_super_class>  (918) 
Lipids and lipid-like molecules

>  <direct_parent_classification>  (918) 
Hydroxysteroids

>  <np_classifier_pathway>  (918) 
Terpenoids

>  <np_classifier_superclass>  (918) 
Triterpenoids

>  <np_classifier_class>  (918) 
Limonoids

>  <np_classifier_is_glycoside>  (918) 
False

>  <organisms>  (918) 
Carapa guianensis

>  <collections>  (918) 
Latin America dataset|NuBBEDB|WikiData Natural Products

>  <dois>  (918) 
10.1590/S0103-50532006000300017

>  <synonyms>  (918) 
17\u221a\u00e9\u00ac\u2264-hydroxyazadiradione

>  <cas>  (918) 
nan

$$$$

     RDKit          2D

 48 53  0  0  0  0  0  0  0  0999 V2000
   -1.5774   -6.0359    0.0000 C   0  0  0  0  0  0  0  0  0  0  0  0
   -2.4281   -4.8004    0.0000 C   0  0  0  0  0  0  0  0  0  0  0  0
   -3.4970   -5.8527    0.0000 C   0  0  0  0  0  0  0  0  0  0  0  0
   -3.6500   -3.9305    0.0000 C   0  0  0  0  0  0  0  0  0  0  0  0
   -3.5076   -2.4372    0.0000 C   0  0  0  0  0  0  0  0  0  0  0  0
   -2.1432   -1.8140    0.0000 C   0  0  0  0  0  0  0  0  0  0  0  0
   -3.3651   -0.9440    0.0000 C   0  0  0  0  0  0  0  0  0  0  0  0
   -4.7295   -1.5673    0.0000 O   0  0  0  0  0  0  0  0  0  0  0  0
   -3.2227    0.5492    0.0000 O   0  0  0  0  0  0  0  0  0  0  0  0
   -4.4446    1.4192    0.0000 C   0  0  0  0  0  0  0  0  0  0  0  0
   -4.3022    2.9124    0.0000 O   0  0  0  0  0  0  0  0  0  0  0  0
   -5.5241    3.7824    0.0000 C   0  0  0  0  0  0  0  0  0  0  0  0
   -5.3817    5.2756    0.0000 C   0  0  0  0  0  0  0  0  0  0  0  0
   -4.0173    5.8988    0.0000 O   0  0  0  0  0  0  0  0  0  0  0  0
   -6.8885    3.1591    0.0000 C   0  0  0  0  0  0  0  0  0  0  0  0
   -8.1104    4.0291    0.0000 O   0  0  0  0  0  0  0  0  0  0  0  0
   -7.0309    1.6659    0.0000 C   0  0  0  0  0  0  0  0  0  0  0  0
   -8.3953    1.0427    0.0000 O   0  0  0  0  0  0  0  0  0  0  0  0
   -5.8090    0.7959    0.0000 C   0  0  0  0  0  0  0  0  0  0  0  0
   -5.9515   -0.6973    0.0000 O   0  0  0  0  0  0  0  0  0  0  0  0
   -2.0007   -0.3208    0.0000 C   0  0  0  0  0  0  0  0  0  0  0  0
   -0.6363    0.3025    0.0000 C   0  0  0  0  0  0  0  0  0  0  0  0
    0.5856   -0.5675    0.0000 C   0  0  0  0  0  0  0  0  0  0  0  0
    1.8076   -1.4375    0.0000 C   0  0  0  0  0  0  0  0  0  0  0  0
    0.4432   -2.0607    0.0000 C   0  0  0  0  0  0  0  0  0  0  0  0
    1.6651   -2.9307    0.0000 C   0  0  0  0  0  0  0  0  0  0  0  0
    3.0295   -2.3074    0.0000 C   0  0  0  0  0  0  0  0  0  0  0  0
    3.1719   -0.8142    0.0000 C   0  0  0  0  0  0  0  0  0  0  0  0
    4.5363   -0.1910    0.0000 C   0  0  0  0  0  0  0  0  0  0  0  0
    4.3939   -1.6842    0.0000 C   0  0  0  0  0  0  0  0  0  0  0  0
    5.7583   -1.0610    0.0000 C   0  0  0  0  0  0  0  0  0  0  0  0
    7.1227   -0.4377    0.0000 C   0  0  0  0  0  0  0  0  0  0  0  0
    8.3446   -1.3077    0.0000 O   0  0  0  0  0  0  0  0  0  0  0  0
    7.2651    1.0555    0.0000 C   0  0  0  0  0  0  0  0  0  0  0  0
    8.6295    1.6788    0.0000 O   0  0  0  0  0  0  0  0  0  0  0  0
    6.0432    1.9255    0.0000 C   0  0  0  0  0  0  0  0  0  0  0  0
    5.1925    3.1609    0.0000 C   0  0  0  0  0  0  0  0  0  0  0  0
    3.6972    3.0419    0.0000 O   0  0  0  0  0  0  0  0  0  0  0  0
    7.1121    2.9778    0.0000 C   0  0  0  0  0  0  0  0  0  0  0  0
    6.7353    4.4297    0.0000 O   0  0  0  0  0  0  0  0  0  0  0  0
    4.6788    1.3022    0.0000 C   0  0  0  0  0  0  0  0  0  0  0  0
    3.4568    2.1722    0.0000 C   0  0  0  0  0  0  0  0  0  0  0  0
    2.0924    1.5490    0.0000 C   0  0  0  0  0  0  0  0  0  0  0  0
    1.9500    0.0558    0.0000 C   0  0  0  0  0  0  0  0  0  0  0  0
    0.7281    0.9257    0.0000 C   0  0  0  0  0  0  0  0  0  0  0  0
   -0.9212   -2.6840    0.0000 C   0  0  0  0  0  0  0  0  0  0  0  0
   -1.0637   -4.1772    0.0000 C   0  0  0  0  0  0  0  0  0  0  0  0
    0.1583   -5.0472    0.0000 O   0  0  0  0  0  0  0  0  0  0  0  0
  1  2  1  0
  2  3  1  0
  2  4  1  0
  4  5  1  0
  5  6  1  0
  6  7  1  1
  7  8  2  0
  7  9  1  0
 10  9  1  1
 10 11  1  0
 11 12  1  0
 12 13  1  1
 13 14  1  0
 12 15  1  0
 15 16  1  6
 15 17  1  0
 17 18  1  1
 17 19  1  0
 19 20  1  6
  6 21  1  0
 21 22  1  0
 22 23  1  0
 23 24  1  6
 23 25  1  0
 25 26  2  0
 26 27  1  0
 28 27  1  1
 28 29  1  0
 29 30  1  1
 29 31  1  0
 31 32  1  0
 32 33  1  6
 32 34  1  0
 34 35  1  1
 34 36  1  0
 36 37  1  0
 37 38  1  0
 36 39  1  0
 39 40  1  0
 36 41  1  0
 41 42  1  1
 42 43  1  0
 43 44  1  0
 44 45  1  1
 46 25  1  6
 46 47  1  0
 47 48  1  6
 47  2  1  0
 46  6  1  0
 19 10  1  0
 44 23  1  0
 44 28  1  0
 41 29  1  0
M  END
>  <identifier>  (919) 
CNP0318573.2

>  <canonical_smiles>  (919) 
CC1(C)CC[C@]2(C(=O)O[C@@H]3O[C@H](CO)[C@@H](O)[C@H](O)[C@H]3O)CC[C@]3(C)C(=CC[C@@H]4[C@@]5(C)C[C@@H](O)[C@H](O)C(CO)(CO)[C@@H]5CC[C@]43C)[C@@H]2[C@@H]1O

>  <standard_inchi>  (919) 
InChI=1S/C36H58O12/c1-31(2)10-12-35(30(46)48-29-26(43)25(42)24(41)20(15-37)47-29)13-11-33(4)18(23(35)28(31)45)6-7-21-32(3)14-19(40)27(44)36(16-38,17-39)22(32)8-9-34(21,33)5/h6,19-29,37-45H,7-17H2,1-5H3/t19-,20-,21-,22-,23-,24-,25+,26-,27+,28+,29+,32-,33-,34-,35+/m1/s1

>  <standard_inchi_key>  (919) 
FSLDBYNJYAUPDI-WGIITRTQSA-N

>  <name>  (919) 
InChI=1/C36H58O12/c1-31(2)10-12-35(30(46)48-29-26(43)25(42)24(41)20(15-37)47-29)13-11-33(4)18(23(35)28(31)45)6-7-21-32(3)14-19(40)27(44)36(16-38,17-39)22(32)8-9-34(21,33)5/h6,19-29,37-45H,7-17H2,1-5H3/t19-,20-,21-,22-,23-,24-,25+,26-,27+,28+,29+,32-,33-,3

>  <iupac_name>  (919) 
[(2~{S},3~{R},4~{S},5~{S},6~{R})-3,4,5-trihydroxy-6-(hydroxymethyl)tetrahydropyran-2-yl] (1~{S},4~{a}~{R},6~{a}~{R},6~{a}~{S},6~{b}~{R},8~{a}~{R},10~{R},11~{R},12~{a}~{R},14~{b}~{S})-1,10,11-trihydroxy-9,9-bis(hydroxymethyl)-2,2,6~{a},6~{b},12~{a}-pentamethyl-1,3,4,5,6,6~{a},7,8,8~{a},10,11,12,13,14~{b}-tetradecahydropicene-4~{a}-carboxylate

>  <annotation_level>  (919) 
5

>  <total_atom_count>  (919) 
106

>  <heavy_atom_count>  (919) 
48

>  <molecular_weight>  (919) 
682.85

>  <exact_molecular_weight>  (919) 
682.39283

>  <molecular_formula>  (919) 
C36H58O12

>  <alogp>  (919) 
0.38

>  <topological_polar_surface_area>  (919) 
217.60

>  <rotatable_bond_count>  (919) 
5

>  <hydrogen_bond_acceptors>  (919) 
12

>  <hydrogen_bond_donors>  (919) 
9

>  <hydrogen_bond_acceptors_lipinski>  (919) 
12

>  <hydrogen_bond_donors_lipinski>  (919) 
9

>  <lipinski_rule_of_five_violations>  (919) 
3

>  <aromatic_rings_count>  (919) 
0

>  <qed_drug_likeliness>  (919) 
0.14

>  <formal_charge>  (919) 
0

>  <fractioncsp3>  (919) 
0.92

>  <number_of_minimal_rings>  (919) 
6

>  <van_der_walls_volume>  (919) 
620.36

>  <contains_sugar>  (919) 
True

>  <contains_ring_sugars>  (919) 
True

>  <contains_linear_sugars>  (919) 
False

>  <murcko_framework>  (919) 
O1CCCCC1OCC23CCCCC3C4=CCC5C(CCC6CCCCC65)C4CC2

>  <np_likeness>  (919) 
2.91

>  <chemical_class>  (919) 
Steroids and steroid derivatives

>  <chemical_sub_class>  (919) 
Hydroxysteroids

>  <chemical_super_class>  (919) 
Lipids and lipid-like molecules

>  <direct_parent_classification>  (919) 
Hydroxysteroids

>  <np_classifier_pathway>  (919) 
Terpenoids

>  <np_classifier_superclass>  (919) 
Triterpenoids

>  <np_classifier_class>  (919) 
Oleanane triterpenoids

>  <np_classifier_is_glycoside>  (919) 
True

>  <organisms>  (919) 
Rudgea viburnioides|Rudgea viburnoides|Trachelospermum asiaticum

>  <collections>  (919) 
ChemSpider NPs|KNApSaCK|Latin America dataset|NuBBEDB|Super Natural II|WikiData Natural Products|ZINC NP

>  <dois>  (919) 
10.1021/NP9704617|10.1021/np9704617|10.1248/CPB.35.1833

>  <synonyms>  (919) 
Trachelosperoside E-1

>  <cas>  (919) 
nan

$$$$

     RDKit          2D

 38 42  0  0  0  0  0  0  0  0999 V2000
    2.1300   -3.7750    0.0000 C   0  0  0  0  0  0  0  0  0  0  0  0
    0.8668   -2.9661    0.0000 C   0  0  0  0  0  0  0  0  0  0  0  0
   -0.4654   -3.6555    0.0000 O   0  0  0  0  0  0  0  0  0  0  0  0
    0.9358   -1.4676    0.0000 O   0  0  0  0  0  0  0  0  0  0  0  0
   -0.3274   -0.6587    0.0000 C   0  0  0  0  0  0  0  0  0  0  0  0
   -1.4594   -1.6428    0.0000 C   0  0  0  0  0  0  0  0  0  0  0  0
   -2.0147   -3.0362    0.0000 O   0  0  0  0  0  0  0  0  0  0  0  0
   -2.9438   -1.8586    0.0000 C   0  0  0  0  0  0  0  0  0  0  0  0
   -4.3093   -1.2377    0.0000 C   0  0  0  0  0  0  0  0  0  0  0  0
   -5.7664   -1.5936    0.0000 C   0  0  0  0  0  0  0  0  0  0  0  0
   -4.4495   -2.7311    0.0000 O   0  0  0  0  0  0  0  0  0  0  0  0
   -5.1222    0.0229    0.0000 C   0  0  0  0  0  0  0  0  0  0  0  0
   -6.5608   -0.4019    0.0000 O   0  0  0  0  0  0  0  0  0  0  0  0
   -5.1246    1.5229    0.0000 C   0  0  0  0  0  0  0  0  0  0  0  0
   -6.5645    1.9432    0.0000 C   0  0  0  0  0  0  0  0  0  0  0  0
   -4.3156    2.7861    0.0000 C   0  0  0  0  0  0  0  0  0  0  0  0
   -2.8306    2.5750    0.0000 C   0  0  0  0  0  0  0  0  0  0  0  0
   -1.4671    3.2003    0.0000 C   0  0  0  0  0  0  0  0  0  0  0  0
   -0.3319    2.2198    0.0000 C   0  0  0  0  0  0  0  0  0  0  0  0
    0.7015    3.3070    0.0000 C   0  0  0  0  0  0  0  0  0  0  0  0
    0.2766    4.7456    0.0000 O   0  0  0  0  0  0  0  0  0  0  0  0
    2.1597    2.9557    0.0000 C   0  0  0  0  0  0  0  0  0  0  0  0
    3.1931    4.0430    0.0000 C   0  0  0  0  0  0  0  0  0  0  0  0
    2.5846    1.5171    0.0000 C   0  0  0  0  0  0  0  0  0  0  0  0
    4.0429    1.1658    0.0000 C   0  0  0  0  0  0  0  0  0  0  0  0
    1.5512    0.4299    0.0000 C   0  0  0  0  0  0  0  0  0  0  0  0
    1.6677   -1.0656    0.0000 C   0  0  0  0  0  0  0  0  0  0  0  0
    2.9461   -1.8503    0.0000 C   0  0  0  0  0  0  0  0  0  0  0  0
    4.2649   -1.1356    0.0000 C   0  0  0  0  0  0  0  0  0  0  0  0
    4.3053    0.3638    0.0000 C   0  0  0  0  0  0  0  0  0  0  0  0
    5.6241    1.0785    0.0000 C   0  0  0  0  0  0  0  0  0  0  0  0
    6.9024    0.2937    0.0000 C   0  0  0  0  0  0  0  0  0  0  0  0
    6.8620   -1.2057    0.0000 C   0  0  0  0  0  0  0  0  0  0  0  0
    5.5432   -1.9204    0.0000 C   0  0  0  0  0  0  0  0  0  0  0  0
    0.2815   -1.6385    0.0000 N   0  0  0  0  0  0  0  0  0  0  0  0
   -0.6918   -0.4971    0.0000 C   0  0  0  0  0  0  0  0  0  0  0  0
   -2.1873   -0.6136    0.0000 O   0  0  0  0  0  0  0  0  0  0  0  0
    0.0929    0.7812    0.0000 C   0  0  0  0  0  0  0  0  0  0  0  0
  1  2  1  0
  2  3  2  0
  2  4  1  0
  5  4  1  6
  5  6  1  0
  6  7  1  6
  8  7  1  1
  8  9  1  0
  9 10  1  6
  9 11  1  0
  9 12  1  0
 12 13  2  0
 12 14  1  0
 14 15  1  1
 14 16  1  0
 16 17  1  0
 17 18  2  0
 19 18  1  1
 19 20  1  0
 20 21  2  0
 20 22  1  0
 22 23  1  6
 22 24  1  0
 24 25  1  1
 24 26  1  0
 26 27  1  1
 27 28  1  6
 28 29  1  0
 29 30  2  0
 30 31  1  0
 31 32  2  0
 32 33  1  0
 33 34  2  0
 27 35  1  0
 35 36  1  0
 36 37  2  0
 38 36  1  1
 38  5  1  0
  8  6  1  0
 38 19  1  0
 38 26  1  0
 34 29  1  0
M  END
>  <identifier>  (920) 
CNP0080563.2

>  <canonical_smiles>  (920) 
CC(=O)O[C@@H]1[C@@H]2O[C@H]2[C@@](C)(O)C(=O)[C@@H](C)C/C=C/[C@H]2C(=O)[C@H](C)[C@@H](C)[C@H]3[C@H](CC4=CC=CC=C4)NC(=O)[C@@]312

>  <standard_inchi>  (920) 
InChI=1S/C30H37NO7/c1-15-10-9-13-20-23(33)17(3)16(2)22-21(14-19-11-7-6-8-12-19)31-28(35)30(20,22)27(37-18(4)32)24-26(38-24)29(5,36)25(15)34/h6-9,11-13,15-17,20-22,24,26-27,36H,10,14H2,1-5H3,(H,31,35)/b13-9+/t15-,16+,17+,20-,21-,22-,24+,26+,27+,29-,30-/m0/s1

>  <standard_inchi_key>  (920) 
PAWKTQMFPZJNQO-WINXJLOBSA-N

>  <name>  (920) 
[(1~{R},2~{S},3~{S},5~{R},6~{R},8~{S},10~{E},12~{R},14~{R},15~{S},16~{R},17~{S})-17-benzyl-6-hydroxy-6,8,14,15-tetramethyl-7,13,19-trioxo-4-oxa-18-azatetracyclo[10.7.0.0^{1,16}.0^{3,5}]nonadec-10-en-2-yl] acetate

>  <iupac_name>  (920) 
[(1~{R},2~{S},3~{S},5~{R},6~{R},8~{S},10~{E},12~{R},14~{R},15~{S},16~{R},17~{S})-17-benzyl-6-hydroxy-6,8,14,15-tetramethyl-7,13,19-trioxo-4-oxa-18-azatetracyclo[10.7.0.0^{1,16}.0^{3,5}]nonadec-10-en-2-yl] acetate

>  <annotation_level>  (920) 
3

>  <total_atom_count>  (920) 
75

>  <heavy_atom_count>  (920) 
38

>  <molecular_weight>  (920) 
523.63

>  <exact_molecular_weight>  (920) 
523.257

>  <molecular_formula>  (920) 
C30H37NO7

>  <alogp>  (920) 
2.42

>  <topological_polar_surface_area>  (920) 
122.30

>  <rotatable_bond_count>  (920) 
3

>  <hydrogen_bond_acceptors>  (920) 
7

>  <hydrogen_bond_donors>  (920) 
2

>  <hydrogen_bond_acceptors_lipinski>  (920) 
7

>  <hydrogen_bond_donors_lipinski>  (920) 
2

>  <lipinski_rule_of_five_violations>  (920) 
1

>  <aromatic_rings_count>  (920) 
1

>  <qed_drug_likeliness>  (920) 
0.35

>  <formal_charge>  (920) 
0

>  <fractioncsp3>  (920) 
0.60

>  <number_of_minimal_rings>  (920) 
5

>  <van_der_walls_volume>  (920) 
nan

>  <contains_sugar>  (920) 
False

>  <contains_ring_sugars>  (920) 
False

>  <contains_linear_sugars>  (920) 
False

>  <murcko_framework>  (920) 
O1C2CCCCC=CC3CCCC4C(NCC34CC12)Cc5ccccc5

>  <np_likeness>  (920) 
2.53

>  <chemical_class>  (920) 
Isoindoles and derivatives

>  <chemical_sub_class>  (920) 
Isoindolines

>  <chemical_super_class>  (920) 
Organoheterocyclic compounds

>  <direct_parent_classification>  (920) 
Isoindolones

>  <np_classifier_pathway>  (920) 
Alkaloids

>  <np_classifier_superclass>  (920) 
Pseudoalkaloids

>  <np_classifier_class>  (920) 
Cytochalasan alkaloids

>  <np_classifier_is_glycoside>  (920) 
False

>  <organisms>  (920) 
Xylaria sp.

>  <collections>  (920) 
Latin America dataset|NuBBEDB

>  <dois>  (920) 
10.1590/S0100-40422010001000006

>  <synonyms>  (920) 
nan

>  <cas>  (920) 
nan

$$$$

     RDKit          2D

 31 34  0  0  0  0  0  0  0  0999 V2000
   -7.4428    2.9010    0.0000 C   0  0  0  0  0  0  0  0  0  0  0  0
   -6.9917    1.4704    0.0000 C   0  0  0  0  0  0  0  0  0  0  0  0
   -5.5272    1.1457    0.0000 C   0  0  0  0  0  0  0  0  0  0  0  0
   -5.0762   -0.2848    0.0000 C   0  0  0  0  0  0  0  0  0  0  0  0
   -3.6117   -0.6095    0.0000 C   0  0  0  0  0  0  0  0  0  0  0  0
   -3.1607   -2.0401    0.0000 C   0  0  0  0  0  0  0  0  0  0  0  0
   -4.1740   -3.1460    0.0000 C   0  0  0  0  0  0  0  0  0  0  0  0
   -1.6962   -2.3647    0.0000 C   0  0  0  0  0  0  0  0  0  0  0  0
   -1.0981   -3.7403    0.0000 C   0  0  0  0  0  0  0  0  0  0  0  0
    0.3950   -3.5965    0.0000 C   0  0  0  0  0  0  0  0  0  0  0  0
    0.7197   -2.1321    0.0000 C   0  0  0  0  0  0  0  0  0  0  0  0
    2.0252   -1.3934    0.0000 C   0  0  0  0  0  0  0  0  0  0  0  0
    3.3176   -2.1547    0.0000 C   0  0  0  0  0  0  0  0  0  0  0  0
    3.3046   -3.6546    0.0000 O   0  0  0  0  0  0  0  0  0  0  0  0
    4.6232   -1.4161    0.0000 C   0  0  0  0  0  0  0  0  0  0  0  0
    4.6362    0.0839    0.0000 C   0  0  0  0  0  0  0  0  0  0  0  0
    5.9418    0.8225    0.0000 C   0  0  0  0  0  0  0  0  0  0  0  0
    5.9548    2.3225    0.0000 C   0  0  0  0  0  0  0  0  0  0  0  0
    7.2604    3.0611    0.0000 O   0  0  0  0  0  0  0  0  0  0  0  0
    4.6624    3.0838    0.0000 C   0  0  0  0  0  0  0  0  0  0  0  0
    3.3569    2.3451    0.0000 C   0  0  0  0  0  0  0  0  0  0  0  0
    3.3438    0.8452    0.0000 C   0  0  0  0  0  0  0  0  0  0  0  0
    2.0513    1.6065    0.0000 C   0  0  0  0  0  0  0  0  0  0  0  0
    2.0383    0.1065    0.0000 C   0  0  0  0  0  0  0  0  0  0  0  0
    0.7458    0.8678    0.0000 C   0  0  0  0  0  0  0  0  0  0  0  0
   -0.5597    0.1292    0.0000 C   0  0  0  0  0  0  0  0  0  0  0  0
   -0.5728   -1.3708    0.0000 C   0  0  0  0  0  0  0  0  0  0  0  0
   -1.9377   -0.7487    0.0000 C   0  0  0  0  0  0  0  0  0  0  0  0
   -4.5139    2.2517    0.0000 C   0  0  0  0  0  0  0  0  0  0  0  0
   -4.9649    3.6822    0.0000 C   0  0  0  0  0  0  0  0  0  0  0  0
   -3.0494    1.9270    0.0000 C   0  0  0  0  0  0  0  0  0  0  0  0
  1  2  1  0
  3  2  1  1
  3  4  1  0
  4  5  1  0
  5  6  1  0
  6  7  1  6
  6  8  1  0
  8  9  1  6
  9 10  1  0
 11 10  1  6
 11 12  1  0
 12 13  1  1
 13 14  2  0
 13 15  1  0
 15 16  2  0
 16 17  1  0
 17 18  1  0
 18 19  1  6
 18 20  1  0
 20 21  1  0
 21 22  1  0
 22 23  1  6
 22 24  1  0
 24 25  1  6
 25 26  1  0
 26 27  1  0
 27 28  1  6
  3 29  1  0
 29 30  1  0
 29 31  1  0
 27  8  1  0
 27 11  1  0
 24 12  1  0
 22 16  1  0
M  END
>  <identifier>  (921) 
CNP0130819.1

>  <canonical_smiles>  (921) 
CC[C@H](CC[C@@H](C)[C@H]1CC[C@H]2[C@@H]3C(=O)C=C4C[C@@H](O)CC[C@]4(C)[C@H]3CC[C@]12C)C(C)C

>  <standard_inchi>  (921) 
InChI=1S/C29H48O2/c1-7-20(18(2)3)9-8-19(4)23-10-11-24-27-25(13-15-29(23,24)6)28(5)14-12-22(30)16-21(28)17-26(27)31/h17-20,22-25,27,30H,7-16H2,1-6H3/t19-,20-,22+,23-,24+,25+,27+,28+,29-/m1/s1

>  <standard_inchi_key>  (921) 
ICFXJOAKQGDRCT-ZIHMWMKCSA-N

>  <name>  (921) 
2034-74-4

>  <iupac_name>  (921) 
(3~{S},8~{S},9~{S},10~{R},13~{R},14~{S},17~{R})-17-[(1~{R},4~{R})-4-ethyl-1,5-dimethyl-hexyl]-3-hydroxy-10,13-dimethyl-1,2,3,4,8,9,11,12,14,15,16,17-dodecahydrocyclopenta[a]phenanthren-7-one

>  <annotation_level>  (921) 
5

>  <total_atom_count>  (921) 
79

>  <heavy_atom_count>  (921) 
31

>  <molecular_weight>  (921) 
428.7

>  <exact_molecular_weight>  (921) 
428.36543

>  <molecular_formula>  (921) 
C29H48O2

>  <alogp>  (921) 
7.20

>  <topological_polar_surface_area>  (921) 
37.30

>  <rotatable_bond_count>  (921) 
6

>  <hydrogen_bond_acceptors>  (921) 
2

>  <hydrogen_bond_donors>  (921) 
1

>  <hydrogen_bond_acceptors_lipinski>  (921) 
2

>  <hydrogen_bond_donors_lipinski>  (921) 
1

>  <lipinski_rule_of_five_violations>  (921) 
1

>  <aromatic_rings_count>  (921) 
0

>  <qed_drug_likeliness>  (921) 
0.49

>  <formal_charge>  (921) 
0

>  <fractioncsp3>  (921) 
0.90

>  <number_of_minimal_rings>  (921) 
4

>  <van_der_walls_volume>  (921) 
447.91

>  <contains_sugar>  (921) 
False

>  <contains_ring_sugars>  (921) 
False

>  <contains_linear_sugars>  (921) 
False

>  <murcko_framework>  (921) 
C1=C2CCCCC2C3CCC4CCCC4C3C1

>  <np_likeness>  (921) 
2.76

>  <chemical_class>  (921) 
Steroids and steroid derivatives

>  <chemical_sub_class>  (921) 
Stigmastanes and derivatives

>  <chemical_super_class>  (921) 
Lipids and lipid-like molecules

>  <direct_parent_classification>  (921) 
Stigmastanes and derivatives

>  <np_classifier_pathway>  (921) 
Terpenoids

>  <np_classifier_superclass>  (921) 
Steroids

>  <np_classifier_class>  (921) 
Stigmastane steroids

>  <np_classifier_is_glycoside>  (921) 
False

>  <organisms>  (921) 
Acanthophyllum sordidum|Achyranthes aspera|Aconitum campylorrhynchum|Aconitum habaense|Aconitum tanguticum|Acorus calamus|Acrocarpia paniculata|Acronychia laurifolia|Agave deserti|Aglaia pyramidata|Albizia mollis|Alnus cordata|Aloe deltoideodonta|Amomum sulcatum|Anodendron affine|Antitrogus consanguineus|Aphelandra chamissoniana|Apis mellifera|Aquilaria sinensis|Aristolochia chamissonis|Artemisia gypsacea|Arum italicum|Asclepias subulata|Aspergillus duricaulis|Aspergillus multicolor|Austrobaileya scandens|Bacillus amyloliquefaciens|Bactris plumeriana|Barnettia kerrii|Bauhinia purpurea|Beilschmiedia tsangii|Berberis aquifolium|Berberis fremontii|Betula davurica|Bosistoa floydii|Bougainvillea glabra|Brassica napus|Bryopsis pennata|Calotropis gigantea|Cassia artemisioides|Cedrela salvadorensis|Celastrus monospermus|Centaurea dealbata|Centaurea napifolia|Centaurea ptosimopappoides|Chalina arbuscula|Chenopodium rubrum|Chrysosporium queenslandicum|Clathria basilana|Codonopsis pilosula var. modesta|Conium maculatum|Crinum latifolium|Cybister lateralimarginalis|Diospyros eriantha|Diplopteraster multipes|Dolichospermum viguieri|Drimia fugax|Duhaldea cappa|Dysidea villosa|Elmerrillia papuana|Epipedobates anthonyi|Eucalyptus hybr|Euglena longa|Euphorbia fischeri|Euphorbia fischeriana|Euphorbia jaxartica|Eutrochium purpureum|Ficus beecheyana|Ficus erecta var. beecheyana|Flammulina velutipes|Garcinia cambogia|Garcinia conrauana|Gentiana lutea|Glycine max|Gmelina arborea|Goldfussia yunnanensis|Goniophlebium niponicum|Gynochthodes officinalis|Gynura japonica|Haplopappus arbutoides|Hedysarum sachalinense|Heliotropium glutinosum|Heloderma suspectum|Hertia cheirifolia|Hornschuchia citriodora|Hortonia floribunda|Hosta sieboldiana|Houttuynia cordata|Hydnocarpus octandra|Inocybe aeruginascens|Inula Cappa|Inula cappa|Inula salsoloides|Jacobaea cannabifolia|Joannesia princeps|Juncus effusus|Knema attenuata|Lactarius subpiperatus|Laurencia rigida|Laurentia longiflora|Lecidea carpathica|Leitneria floridana|Lepraria citrina|Leucas cephalotes|Libanothamnus occultus|Licaria chrysophylla|Ligularia dolichobotrys|Lindera communis|Litsea acutivena|Lyophyllum connatum|Lythrum salicaria|Macaranga triloba|Malva rotundifolia|Maytenus obtusifolia|Melia azedarach|Melicope semecarpifolia|Microglossa zeylanica|Micromelum integerrimum|Microtropis japonica|Morinda coreia|Morus macroura|Narcissus triandrus|Neopringlea integrifolia|Notechis scutatus|Nothapodytes pittosporoides|Notholaena aschenborniana|Ocypus olens|Ormosia hosiei|Ornithoglossum viride|Oryza sativa|Osmitopsis osmitoides|Oxybasis rubra|Panax spinosus|Papaver glaucum|Parmelia zollingeri|Passiflora morifolia|Penstemon confertus|Pentaceraster regulus|Persicaria lapathifolia|Pertusaria truncata|Petasites laevigatus|Petrosia hebes|Phaseolus vulgaris|Phebalium bilobum|Photinia lucida|Phylica rogersii|Phyllanthus emblica|Pilocarpus grandiflorus|Plakortis lita|Plakortis simplex|Pocillopora eydouxi|Polyalthia stenopetala|Polypodium decumanum|Pourthiaea arguta|Pseudotsuga japonica|Pterocaulon polystachyum|Purpura aperta|Pyropia tenera|Quercus laurifolia|Raphanus raphanistrum|Rhizophora mangle|Rhizopogon pumilionus|Roemeria refracta|Rubia tetragona|Salix alba|Salix cheilophila|Salvia divaricata|Salvia syriaca|Salvia syriaca L.|Sambucus adnata|Sarcophyton latum|Saussurea hieracioides|Saussurea superba|Schisandra sphaerandra|Schizanthus tricolor|Schlumbergera truncata|Schrebera swietenoides|Scolopia spinosa|Senecio gilliesi|Sesbania grandiflora|Sideritis argosphacelus|Sideritis argosphacelus var. spicata|Sideritis discolor|Sinomenium acutum|Solanum spirale|Solanum violaceum|Sophora leachiana|Sphacelaria arctica|Sphaeranthus confertifolius|Sphaerella asteroma|Stereocaulon azoreum|Streptomyces flaveus|Streptomyces prasinopilosus|Strophanthus hispidus|Strychnos henningsii|Swietenia macrophylla|Syphonota geographica|Talipariti tiliaceum|Tanacetum praeteritum|Tephrosia bidwilli|Tessaria dodoneaefolia|Thermopsis mollis|Thermothelomyces thermophila|Thielavia terricola|Trichilia estipulata|Vernonia lilacina|Vernonia scorpioides|Veronica intercedens|Viscum multinerve|Vitex negundo|Xanthoria parietina|Zantedeschia aethiopica|Zanthoxylum beecheyanum|Zanthoxylum dimorphophyllum|Zanthoxylum simulans|Zanthoxylum wutaiense|maize|solanum violaceum

>  <collections>  (921) 
Australian natural products|CMAUP (cCollective molecular activities of useful plants)|KNApSaCK|Latin America dataset|NPASS|NuBBEDB|Phyto4Health|TIPdb (database of Taiwan indigenous plants)|VietHerb|WikiData Natural Products

>  <dois>  (921) 
10.1002/CBDV.200900198|10.1002/JCCS.199300062|10.1002/JCCS.199400028|10.1002/JCCS.199700056|10.1002/JCCS.200400067|10.1002/JCCS.200400099|10.1002/JCCS.200400159|10.1002/JCCS.200400211|10.1002/JCCS.200700071|10.1002/JCCS.200800059|10.1002/JCCS.200900093|10.1007/S10600-010-9659-5|10.1016/J.BMCL.2013.02.060|10.1016/J.FOODCHEM.2009.09.093|10.1016/J.PHYTOCHEM.2003.10.026|10.1016/J.PHYTOCHEM.2009.05.011|10.1016/J.STEROIDS.2006.03.001|10.1016/S0031-9422(00)00298-3|10.1016/S0031-9422(00)82230-X|10.1016/S0031-9422(00)90483-7|10.1016/S0031-9422(02)00268-6|10.1016/S0031-9422(03)00225-5|10.1016/S0031-9422(96)00777-7|10.1016/S0031-9422(96)00818-7|10.1016/S0031-9422(97)00309-9|10.1016/S0031-9422(97)00493-7|10.1016/S0031-9422(98)00092-2|10.1016/S0031-9422(98)00583-4|10.1016/j.bmcl.2013.02.060|10.1016/j.fitote.2012.12.023|10.1016/s0031-9422(98)00092-2|10.1021/NP0704349|10.1021/NP700719E|10.1021/NP800097T|10.1021/np010222q|10.1021/np0704349|10.1021/np800097t|10.1055/S-0028-1097188|10.1055/S-0030-1249833|10.1055/S-2000-8629|10.1055/S-2001-18840|10.1055/S-2005-916220|10.1055/s-0028-1097188|10.1080/10575639408043928|10.1177/1934578x1100600614|10.1246/BCSJ.45.223|10.1248/CPB.43.1462|10.1248/CPB.46.1630|10.1248/CPB.54.1370|10.1248/CPB.55.1258|10.1248/CPB.55.1528|10.1248/CPB.55.153|10.1248/CPB.59.1396|10.1515/ZNB-2005-0715|10.2298/JSC110206128R

>  <synonyms>  (921) 
(1R,3AS,3BS,7S,9AR,9BS,11AR)-1-[(2R,5R)-5-ETHYL-6-METHYLHEPTAN-2-YL]-7-HYDROXY-9A,11A-DIMETHYL-1H,2H,3H,3AH,3BH,6H,7H,8H,9H,9BH,10H,11H-CYCLOPENTA[A]PHENANTHREN-4-ONE|(3S,8S,9S,10R,13R,14S,17R)-17-[(2R,5R)-5-ethyl-6-methylheptan-2-yl]-3-hydroxy-10,13-dimethyl-1,2,3,4,8,9,11,12,14,15,16,17-dodecahydrocyclopenta[a]phenanthren-7-one|3-Hydroxystigmast-5-en-7-one|3\u221a\u00e9\u00ac\u2264-hydroxy-stigmast-5-en-7-one, 24-\u221a\u00e9\u00ac\u2264-7-oxositosterol|3beta-hydroxy-stigmast-5-en-7-one|7-Ketositosterol|7-Ketositosterol; 7-Oxo--sitosterol; 7-Oxositosterol; 7-Oxysitosterol; 7-keto-Sitosterol; Stigmast-5-en-3-ol-7-one|7-oxo-beta-sitosterol|AKOS040761251|CHEBI:177122|CHEMBL254780|CS-0023263|DTXSID00942496|FS-9535|HY-N2757|LMST01040169|PD167700|SCHEMBL12484619|Stigmast-5-en-3.beta.-ol-7-one|Stigmast-5-en-7-one, 3-hydroxy-, (3beta)-

>  <cas>  (921) 
nan

$$$$

     RDKit          2D

 38 43  0  0  0  0  0  0  0  0999 V2000
    2.2444   -3.6980    0.0000 C   0  0  0  0  0  0  0  0  0  0  0  0
    0.9632   -2.9179    0.0000 C   0  0  0  0  0  0  0  0  0  0  0  0
   -0.3529   -3.6374    0.0000 O   0  0  0  0  0  0  0  0  0  0  0  0
    0.9982   -1.4183    0.0000 O   0  0  0  0  0  0  0  0  0  0  0  0
   -0.2831   -0.6383    0.0000 C   0  0  0  0  0  0  0  0  0  0  0  0
   -1.3925   -1.6478    0.0000 C   0  0  0  0  0  0  0  0  0  0  0  0
   -1.9160   -3.0535    0.0000 O   0  0  0  0  0  0  0  0  0  0  0  0
   -2.8716   -1.8973    0.0000 C   0  0  0  0  0  0  0  0  0  0  0  0
   -4.2508   -1.3075    0.0000 C   0  0  0  0  0  0  0  0  0  0  0  0
   -5.6995   -1.6965    0.0000 C   0  0  0  0  0  0  0  0  0  0  0  0
   -4.3570   -2.8038    0.0000 O   0  0  0  0  0  0  0  0  0  0  0  0
   -5.0922   -0.0657    0.0000 C   0  0  0  0  0  0  0  0  0  0  0  0
   -6.5207   -0.5232    0.0000 O   0  0  0  0  0  0  0  0  0  0  0  0
   -5.1286    1.4338    0.0000 C   0  0  0  0  0  0  0  0  0  0  0  0
   -6.5777    1.8213    0.0000 C   0  0  0  0  0  0  0  0  0  0  0  0
   -4.3486    2.7150    0.0000 C   0  0  0  0  0  0  0  0  0  0  0  0
   -2.9997    3.3711    0.0000 C   0  0  0  0  0  0  0  0  0  0  0  0
   -1.5102    3.1938    0.0000 C   0  0  0  0  0  0  0  0  0  0  0  0
   -0.3530    2.2394    0.0000 C   0  0  0  0  0  0  0  0  0  0  0  0
    0.6554    3.3498    0.0000 C   0  0  0  0  0  0  0  0  0  0  0  0
    1.6638    4.4603    0.0000 O   0  0  0  0  0  0  0  0  0  0  0  0
    2.1213    3.0317    0.0000 C   0  0  0  0  0  0  0  0  0  0  0  0
    0.6927    2.5743    0.0000 C   0  0  0  0  0  0  0  0  0  0  0  0
    2.5787    1.6032    0.0000 C   0  0  0  0  0  0  0  0  0  0  0  0
    4.0446    1.2851    0.0000 C   0  0  0  0  0  0  0  0  0  0  0  0
    1.5703    0.4927    0.0000 C   0  0  0  0  0  0  0  0  0  0  0  0
    1.7208   -0.9997    0.0000 C   0  0  0  0  0  0  0  0  0  0  0  0
    3.0166   -1.7552    0.0000 C   0  0  0  0  0  0  0  0  0  0  0  0
    4.3188   -1.0108    0.0000 C   0  0  0  0  0  0  0  0  0  0  0  0
    4.3252    0.4892    0.0000 C   0  0  0  0  0  0  0  0  0  0  0  0
    5.6274    1.2337    0.0000 C   0  0  0  0  0  0  0  0  0  0  0  0
    6.9232    0.4782    0.0000 C   0  0  0  0  0  0  0  0  0  0  0  0
    6.9169   -1.0218    0.0000 C   0  0  0  0  0  0  0  0  0  0  0  0
    5.6147   -1.7663    0.0000 C   0  0  0  0  0  0  0  0  0  0  0  0
    0.3479   -1.6040    0.0000 N   0  0  0  0  0  0  0  0  0  0  0  0
   -0.6511   -0.4850    0.0000 C   0  0  0  0  0  0  0  0  0  0  0  0
   -2.1435   -0.6355    0.0000 O   0  0  0  0  0  0  0  0  0  0  0  0
    0.1044    0.8108    0.0000 C   0  0  0  0  0  0  0  0  0  0  0  0
  1  2  1  0
  2  3  2  0
  2  4  1  0
  5  4  1  6
  5  6  1  0
  6  7  1  6
  8  7  1  1
  8  9  1  0
  9 10  1  6
  9 11  1  0
  9 12  1  0
 12 13  2  0
 12 14  1  0
 14 15  1  1
 14 16  1  0
 16 17  1  0
 17 18  2  0
 19 18  1  1
 19 20  1  0
 20 21  1  6
 21 22  1  0
 22 23  1  1
 22 24  1  0
 24 25  1  1
 24 26  1  0
 26 27  1  1
 27 28  1  6
 28 29  1  0
 29 30  2  0
 30 31  1  0
 31 32  2  0
 32 33  1  0
 33 34  2  0
 27 35  1  0
 35 36  1  0
 36 37  2  0
 38 36  1  1
 38  5  1  0
  8  6  1  0
 38 19  1  0
 22 20  1  0
 38 26  1  0
 34 29  1  0
M  END
>  <identifier>  (922) 
CNP0369331.3

>  <canonical_smiles>  (922) 
CC(=O)O[C@@H]1[C@@H]2O[C@H]2[C@@](C)(O)C(=O)[C@@H](C)C/C=C\[C@H]2[C@@H]3O[C@]3(C)[C@@H](C)[C@H]3[C@H](CC4=CC=CC=C4)NC(=O)[C@@]312

>  <standard_inchi>  (922) 
InChI=1S/C30H37NO7/c1-15-10-9-13-19-24-29(5,38-24)16(2)21-20(14-18-11-7-6-8-12-18)31-27(34)30(19,21)26(36-17(3)32)22-25(37-22)28(4,35)23(15)33/h6-9,11-13,15-16,19-22,24-26,35H,10,14H2,1-5H3,(H,31,34)/b13-9-/t15-,16-,19-,20-,21-,22+,24-,25+,26+,28-,29+,30-/m0/s1

>  <standard_inchi_key>  (922) 
GSPOYKSHFNFUKI-PCEUMRPESA-N

>  <name>  (922) 
nan

>  <iupac_name>  (922) 
[(1~{R},2~{S},3~{S},5~{R},6~{R},8~{S},10~{Z},12~{R},13~{S},15~{R},16~{S},17~{R},18~{S})-18-benzyl-6-hydroxy-6,8,15,16-tetramethyl-7,20-dioxo-4,14-dioxa-19-azapentacyclo[10.8.0.0^{1,17}.0^{3,5}.0^{13,15}]icos-10-en-2-yl] acetate

>  <annotation_level>  (922) 
4

>  <total_atom_count>  (922) 
75

>  <heavy_atom_count>  (922) 
38

>  <molecular_weight>  (922) 
523.63

>  <exact_molecular_weight>  (922) 
523.257

>  <molecular_formula>  (922) 
C30H37NO7

>  <alogp>  (922) 
2.37

>  <topological_polar_surface_area>  (922) 
117.76

>  <rotatable_bond_count>  (922) 
3

>  <hydrogen_bond_acceptors>  (922) 
7

>  <hydrogen_bond_donors>  (922) 
2

>  <hydrogen_bond_acceptors_lipinski>  (922) 
7

>  <hydrogen_bond_donors_lipinski>  (922) 
2

>  <lipinski_rule_of_five_violations>  (922) 
1

>  <aromatic_rings_count>  (922) 
1

>  <qed_drug_likeliness>  (922) 
0.35

>  <formal_charge>  (922) 
0

>  <fractioncsp3>  (922) 
0.63

>  <number_of_minimal_rings>  (922) 
6

>  <van_der_walls_volume>  (922) 
nan

>  <contains_sugar>  (922) 
False

>  <contains_ring_sugars>  (922) 
False

>  <contains_linear_sugars>  (922) 
False

>  <murcko_framework>  (922) 
O1C2CCCCC=CC3C4OC4CC5C(NCC35CC12)Cc6ccccc6

>  <np_likeness>  (922) 
2.84

>  <chemical_class>  (922) 
Isoindoles and derivatives

>  <chemical_sub_class>  (922) 
Isoindolines

>  <chemical_super_class>  (922) 
Organoheterocyclic compounds

>  <direct_parent_classification>  (922) 
Isoindolones

>  <np_classifier_pathway>  (922) 
Alkaloids

>  <np_classifier_superclass>  (922) 
Pseudoalkaloids

>  <np_classifier_class>  (922) 
Cytochalasan alkaloids

>  <np_classifier_is_glycoside>  (922) 
False

>  <organisms>  (922) 
Xylaria|Xylaria obovata|Xylaria sp.

>  <collections>  (922) 
Latin America dataset|NPAtlas|NuBBEDB|WikiData Natural Products

>  <dois>  (922) 
10.1016/s0040-4020(01)85632-5|10.1590/S0100-40422010001000006

>  <synonyms>  (922) 
19,20-Epoxycytochalasin Q

>  <cas>  (922) 
nan

$$$$

     RDKit          2D

 13 14  0  0  0  0  0  0  0  0999 V2000
    1.1102    2.8060    0.0000 O   0  0  0  0  0  0  0  0  0  0  0  0
    0.0496    1.7454    0.0000 C   0  0  0  0  0  0  0  0  0  0  0  0
   -1.3993    2.1336    0.0000 C   0  0  0  0  0  0  0  0  0  0  0  0
   -2.4600    1.0730    0.0000 C   0  0  0  0  0  0  0  0  0  0  0  0
   -2.0717   -0.3759    0.0000 C   0  0  0  0  0  0  0  0  0  0  0  0
   -3.1324   -1.4366    0.0000 O   0  0  0  0  0  0  0  0  0  0  0  0
   -0.6229   -0.7642    0.0000 C   0  0  0  0  0  0  0  0  0  0  0  0
   -0.2346   -2.2131    0.0000 C   0  0  0  0  0  0  0  0  0  0  0  0
    1.2143   -2.6013    0.0000 C   0  0  0  0  0  0  0  0  0  0  0  0
    2.2749   -1.5406    0.0000 C   0  0  0  0  0  0  0  0  0  0  0  0
    1.8867   -0.0917    0.0000 C   0  0  0  0  0  0  0  0  0  0  0  0
    2.9474    0.9689    0.0000 O   0  0  0  0  0  0  0  0  0  0  0  0
    0.4378    0.2965    0.0000 C   0  0  0  0  0  0  0  0  0  0  0  0
  1  2  2  0
  2  3  1  0
  3  4  1  0
  4  5  1  0
  5  6  1  1
  5  7  1  0
  7  8  2  0
  8  9  1  0
  9 10  2  0
 10 11  1  0
 11 12  1  0
 11 13  2  0
 13  2  1  0
 13  7  1  0
M  END
>  <identifier>  (923) 
CNP0252911.2

>  <canonical_smiles>  (923) 
O=C1CC[C@H](O)C2=CC=CC(O)=C12

>  <standard_inchi>  (923) 
InChI=1S/C10H10O3/c11-7-4-5-9(13)10-6(7)2-1-3-8(10)12/h1-3,7,11-12H,4-5H2/t7-/m0/s1

>  <standard_inchi_key>  (923) 
ZXYYTDCENDYKBR-ZETCQYMHSA-N

>  <name>  (923) 
Isosclerone

>  <iupac_name>  (923) 
(4~{S})-4,8-dihydroxytetralin-1-one

>  <annotation_level>  (923) 
5

>  <total_atom_count>  (923) 
23

>  <heavy_atom_count>  (923) 
13

>  <molecular_weight>  (923) 
178.19

>  <exact_molecular_weight>  (923) 
178.06299

>  <molecular_formula>  (923) 
C10H10O3

>  <alogp>  (923) 
1.40

>  <topological_polar_surface_area>  (923) 
57.53

>  <rotatable_bond_count>  (923) 
0

>  <hydrogen_bond_acceptors>  (923) 
3

>  <hydrogen_bond_donors>  (923) 
2

>  <hydrogen_bond_acceptors_lipinski>  (923) 
3

>  <hydrogen_bond_donors_lipinski>  (923) 
2

>  <lipinski_rule_of_five_violations>  (923) 
0

>  <aromatic_rings_count>  (923) 
1

>  <qed_drug_likeliness>  (923) 
0.63

>  <formal_charge>  (923) 
0

>  <fractioncsp3>  (923) 
0.30

>  <number_of_minimal_rings>  (923) 
2

>  <van_der_walls_volume>  (923) 
158.18

>  <contains_sugar>  (923) 
False

>  <contains_ring_sugars>  (923) 
False

>  <contains_linear_sugars>  (923) 
False

>  <murcko_framework>  (923) 
c1ccc2c(c1)CCCC2

>  <np_likeness>  (923) 
1.71

>  <chemical_class>  (923) 
Tetralins

>  <chemical_sub_class>  (923) 
Tetralins

>  <chemical_super_class>  (923) 
Benzenoids

>  <direct_parent_classification>  (923) 
Tetralins

>  <np_classifier_pathway>  (923) 
Polyketides

>  <np_classifier_superclass>  (923) 
Naphthalenes

>  <np_classifier_class>  (923) 
Naphthalenones

>  <np_classifier_is_glycoside>  (923) 
False

>  <organisms>  (923) 
Achyranthes obtusifolia|Achyrocline tomentosa|Alhagi maurorum|Allium angulosum|Anemone thalictroides|Aster conspicuus|Beauveria bassiana|Bos frontalis|Botryllus leachi|Bryoria implexa|Cadophora|Clitocybula oculus|Clusia sandiensis|Crotalaria ferruginea|Cytospora eucalypti|Cytospora eucalypticola|Daldinia eschscholtzii|Daldinia eschscholtzii HJ004|Desmodium pulchellu|Dicarpella dryina|Diplogelasinospora grovesii|Diploprion bifasciatum|Discula|Engelhardia roxburghiana|Erythrophleum chlorostachys|Garcinia atroviridis|Glycosmis trichanthera|Goniothalamus dolichocarpus|Graminopassalora graminis|Guettarda platypoda|Helicia nilagirica|Juglans mandshurica|Juglans mandshurica MAXIM.var.sieboldiana MAKINO|Jugo|Kleinia tomentosa|Lactarius deliciosus|Lecanora sulphurella|Lobelia inflata|Magnaporthe oryzae|Marasmiellus ramealis|Melanocarpus albomyces|Moonia heterophylla|Murrayella periclados|Nannocystis exedens|Neomirandea arthodes|Ormosia macrophylla|Osmundaria spiralis|Papulaspora immersa|Penicillium diversum|Phaleria macrocarpa|Picea jezoensis var. jezoensis|Pistacia chinensis|Polyporus tuberaster|Protea neriifolia|Psolus eximius|Pulicaria insignis|Pyricularia oryzae|Rhinella spinulosa|Sapium indicum|Sclerotinia sclerotiorum|Seiridium cupressi|Senecio chrysocoma|Senna didymobotrya|Sorocea ilicifolia|Streptomyces microflavus|Talaromyces diversus|Taxus mairei|Tecoma undulata|Trichocladium griseum|Tubakia dryina|Vanderbylia fraxinea|Vernonia brevifolia|Viola philippica|Zanthoxylum parviflorum|cadophora sp.

>  <collections>  (923) 
CMAUP (cCollective molecular activities of useful plants)|EMNPD|KNApSaCK|Marine Natural Products|NPASS|NPEdia|NuBBEDB|Phyto4Health|Super Natural II|TCMDB-Taiwan (Traditional Chinese Medicine database)|TIPdb (database of Taiwan indigenous plants)|WikiData Natural Products

>  <dois>  (923) 
10.1002/CBDV.201000011|10.1002/CHIN.200334202|10.1002/cbdv.201000011|10.1007/BF00578500|10.1007/BF00630083|10.1007/BF00636558|10.1016/0031-9422(88)83047-4|10.1016/S0031-9422(02)00606-4|10.1016/S0040-4020(02)01222-X|10.1021/ACS.JNATPROD.5B00204|10.1021/ACS.JNATPROD.9B00241|10.1021/NP50077A009|10.1021/acs.jnatprod.5b00204|10.1021/acs.jnatprod.9b00241|10.1055/S-2005-837786|10.1055/S-2008-1074536|10.1111/J.1574-695X.2007.00331.X|10.1248/CPB.34.1497|10.1248/CPB.46.423|10.1248/CPB.53.934|10.1271/BBB.58.1956|10.1271/BBB1961.38.1501

>  <synonyms>  (923) 
(+)-REGIOLONE|(-)-(4S)-48-dihydroxy-a-tetralone|(-)-Regiolone|(4S)-3,4-Dihydro-4,8-dihydroxy-1(2H)-naphthalenone|(4S)-4,8-DIHYDROXY-.ALPHA.-TETRALONE|(4S)-4,8-DIHYDROXY-3,4-DIHYDRO-2H-NAPHTHALEN-1-ONE|(4S)-4,8-Dihydroxy-3,4-dihydronaphthalene-1(2H)-one|(4S)-4,8-Dihydroxy-alpha-tetralone|(4S)-4,8-dihydroxy-1,2,3,4-tetrahydronaphthalen-1-one|(4S)-4,8-dihydroxytetralin-1-one|(4s)-4,8-dihydroxy-1-tetralone|(S)-(+)-Isosclerone|1(2H)-Naphthalenone, 3,4-dihydro-4,8-dihydroxy-, (4S)-|4,8-Dihydroxytetralone|54712-38-8|AKOS040763724|BDBM50049521|CHEMBL3318321|DB-289981|DTXSID801318296|ISOSCLERONE, (S)-|Isosclerone, (S)-(+)-|Isosclerone-|SCHEMBL6281138|UNII-YF5MZ96X5K|YF5MZ96X5K

>  <cas>  (923) 
54712-38-8

$$$$

     RDKit          2D

 33 36  0  0  0  0  0  0  0  0999 V2000
    2.1465   -3.1221    0.0000 C   0  0  0  0  0  0  0  0  0  0  0  0
    3.6332   -2.9224    0.0000 C   0  0  0  0  0  0  0  0  0  0  0  0
    4.5495   -4.1100    0.0000 C   0  0  0  0  0  0  0  0  0  0  0  0
    4.2035   -1.5350    0.0000 C   0  0  0  0  0  0  0  0  0  0  0  0
    5.6612   -1.1810    0.0000 C   0  0  0  0  0  0  0  0  0  0  0  0
    5.7749    0.3147    0.0000 C   0  0  0  0  0  0  0  0  0  0  0  0
    4.3876    0.8850    0.0000 C   0  0  0  0  0  0  0  0  0  0  0  0
    5.4729    1.9204    0.0000 C   0  0  0  0  0  0  0  0  0  0  0  0
    3.8831    2.2977    0.0000 C   0  0  0  0  0  0  0  0  0  0  0  0
    2.4075    2.5671    0.0000 C   0  0  0  0  0  0  0  0  0  0  0  0
    1.4364    1.4239    0.0000 C   0  0  0  0  0  0  0  0  0  0  0  0
    0.9319    2.8366    0.0000 C   0  0  0  0  0  0  0  0  0  0  0  0
    1.9408    0.0113    0.0000 C   0  0  0  0  0  0  0  0  0  0  0  0
    0.9697   -1.1319    0.0000 C   0  0  0  0  0  0  0  0  0  0  0  0
   -0.5059   -0.8624    0.0000 C   0  0  0  0  0  0  0  0  0  0  0  0
   -1.0104    0.5502    0.0000 C   0  0  0  0  0  0  0  0  0  0  0  0
   -2.4860    0.8196    0.0000 C   0  0  0  0  0  0  0  0  0  0  0  0
   -3.9648    0.5682    0.0000 C   0  0  0  0  0  0  0  0  0  0  0  0
   -2.4951   -0.6803    0.0000 C   0  0  0  0  0  0  0  0  0  0  0  0
   -3.7987   -1.4224    0.0000 C   0  0  0  0  0  0  0  0  0  0  0  0
   -3.8078   -2.9224    0.0000 C   0  0  0  0  0  0  0  0  0  0  0  0
   -2.5134   -3.6803    0.0000 O   0  0  0  0  0  0  0  0  0  0  0  0
   -5.1114   -3.6645    0.0000 O   0  0  0  0  0  0  0  0  0  0  0  0
   -5.1205   -5.1644    0.0000 C   0  0  0  0  0  0  0  0  0  0  0  0
   -2.9904    2.2323    0.0000 C   0  0  0  0  0  0  0  0  0  0  0  0
   -4.4660    2.5017    0.0000 C   0  0  0  0  0  0  0  0  0  0  0  0
   -5.4372    1.3586    0.0000 C   0  0  0  0  0  0  0  0  0  0  0  0
   -4.9705    3.9144    0.0000 C   0  0  0  0  0  0  0  0  0  0  0  0
   -2.0193    3.3755    0.0000 C   0  0  0  0  0  0  0  0  0  0  0  0
   -0.5437    3.1060    0.0000 C   0  0  0  0  0  0  0  0  0  0  0  0
   -0.0392    1.6934    0.0000 C   0  0  0  0  0  0  0  0  0  0  0  0
    0.4652    0.2807    0.0000 C   0  0  0  0  0  0  0  0  0  0  0  0
    3.4164   -0.2582    0.0000 C   0  0  0  0  0  0  0  0  0  0  0  0
  1  2  2  0
  2  3  1  0
  4  2  1  6
  4  5  1  0
  5  6  1  0
  6  7  1  0
  7  8  1  6
  7  9  1  0
  9 10  1  0
 10 11  1  0
 11 12  1  1
 11 13  1  0
 13 14  1  1
 14 15  1  0
 16 15  1  6
 16 17  1  0
 17 18  1  6
 17 19  1  0
 19 20  1  0
 20 21  1  0
 21 22  2  0
 21 23  1  0
 23 24  1  0
 17 25  1  0
 25 26  1  6
 26 27  2  0
 26 28  1  0
 25 29  1  0
 29 30  1  0
 30 31  1  0
 31 32  1  6
 13 33  1  0
 33  4  1  6
 33  7  1  0
 31 11  1  0
 31 16  1  0
M  END
>  <identifier>  (924) 
CNP0177744.1

>  <canonical_smiles>  (924) 
C=C(C)[C@H]1CC[C@]2(C)CC[C@]3(C)[C@H](CC[C@@H]4[C@@](C)(CCC(=O)OC)[C@H](C(=C)C)CC[C@]43C)[C@@H]12

>  <standard_inchi>  (924) 
InChI=1S/C31H50O2/c1-20(2)22-12-15-28(5)18-19-30(7)24(27(22)28)10-11-25-29(6,16-14-26(32)33-9)23(21(3)4)13-17-31(25,30)8/h22-25,27H,1,3,10-19H2,2,4-9H3/t22-,23+,24-,25-,27-,28-,29+,30-,31-/m1/s1

>  <standard_inchi_key>  (924) 
QSMKZPFEDLONIK-PZSOPSJPSA-N

>  <name>  (924) 
nan

>  <iupac_name>  (924) 
methyl 3-[(3~{S},4~{S},5~{R},8~{R},9~{R},10~{R},13~{R},14~{R},15~{S})-3,15-diisopropenyl-4,9,10,13-tetramethyl-2,3,5,6,7,8,11,12,14,15,16,17-dodecahydro-1~{H}-cyclopenta[a]phenanthren-4-yl]propanoate

>  <annotation_level>  (924) 
5

>  <total_atom_count>  (924) 
83

>  <heavy_atom_count>  (924) 
33

>  <molecular_weight>  (924) 
454.74

>  <exact_molecular_weight>  (924) 
454.38108

>  <molecular_formula>  (924) 
C31H50O2

>  <alogp>  (924) 
8.37

>  <topological_polar_surface_area>  (924) 
26.30

>  <rotatable_bond_count>  (924) 
5

>  <hydrogen_bond_acceptors>  (924) 
2

>  <hydrogen_bond_donors>  (924) 
0

>  <hydrogen_bond_acceptors_lipinski>  (924) 
2

>  <hydrogen_bond_donors_lipinski>  (924) 
0

>  <lipinski_rule_of_five_violations>  (924) 
1

>  <aromatic_rings_count>  (924) 
0

>  <qed_drug_likeliness>  (924) 
0.31

>  <formal_charge>  (924) 
0

>  <fractioncsp3>  (924) 
0.84

>  <number_of_minimal_rings>  (924) 
4

>  <van_der_walls_volume>  (924) 
472.74

>  <contains_sugar>  (924) 
False

>  <contains_ring_sugars>  (924) 
False

>  <contains_linear_sugars>  (924) 
False

>  <murcko_framework>  (924) 
C1CCC2C(C1)CCC3C4CCCC4CCC23

>  <np_likeness>  (924) 
2.64

>  <chemical_class>  (924) 
Prenol lipids

>  <chemical_sub_class>  (924) 
Triterpenoids

>  <chemical_super_class>  (924) 
Lipids and lipid-like molecules

>  <direct_parent_classification>  (924) 
Lupane triterpenoids

>  <np_classifier_pathway>  (924) 
Terpenoids

>  <np_classifier_superclass>  (924) 
Triterpenoids

>  <np_classifier_class>  (924) 
Lupane triterpenoids

>  <np_classifier_is_glycoside>  (924) 
False

>  <organisms>  (924) 
Rudgea jasminoides

>  <collections>  (924) 
ChemSpider NPs|Latin America dataset|NuBBEDB|WikiData Natural Products

>  <dois>  (924) 
10.1590/S0103-50531999000300013

>  <synonyms>  (924) 
Methyl canarate

>  <cas>  (924) 
nan

$$$$

     RDKit          2D

 17 18  0  0  0  0  0  0  0  0999 V2000
   -2.0566   -3.2416    0.0000 C   0  0  0  0  0  0  0  0  0  0  0  0
   -1.2784   -1.9593    0.0000 N   0  0  0  0  0  0  0  0  0  0  0  0
   -1.9998   -0.6442    0.0000 C   0  0  0  0  0  0  0  0  0  0  0  0
   -3.4995   -0.6114    0.0000 C   0  0  0  0  0  0  0  0  0  0  0  0
   -4.2209    0.7037    0.0000 C   0  0  0  0  0  0  0  0  0  0  0  0
   -3.4427    1.9861    0.0000 C   0  0  0  0  0  0  0  0  0  0  0  0
   -1.9431    1.9533    0.0000 C   0  0  0  0  0  0  0  0  0  0  0  0
   -1.2216    0.6382    0.0000 C   0  0  0  0  0  0  0  0  0  0  0  0
    0.2780    0.6054    0.0000 C   0  0  0  0  0  0  0  0  0  0  0  0
    0.9994   -0.7097    0.0000 C   0  0  0  0  0  0  0  0  0  0  0  0
    2.4991   -0.7425    0.0000 C   0  0  0  0  0  0  0  0  0  0  0  0
    3.2205   -2.0576    0.0000 O   0  0  0  0  0  0  0  0  0  0  0  0
    2.4423   -3.3400    0.0000 C   0  0  0  0  0  0  0  0  0  0  0  0
    3.2773    0.5398    0.0000 C   0  0  0  0  0  0  0  0  0  0  0  0
    2.5559    1.8549    0.0000 C   0  0  0  0  0  0  0  0  0  0  0  0
    3.3341    3.1373    0.0000 O   0  0  0  0  0  0  0  0  0  0  0  0
    1.0562    1.8877    0.0000 O   0  0  0  0  0  0  0  0  0  0  0  0
  1  2  1  0
  2  3  1  0
  3  4  2  0
  4  5  1  0
  5  6  2  0
  6  7  1  0
  7  8  2  0
  8  9  1  0
  9 10  2  0
 10 11  1  0
 11 12  1  0
 12 13  1  0
 11 14  2  0
 14 15  1  0
 15 16  2  0
 15 17  1  0
  8  3  1  0
 17  9  1  0
M  END
>  <identifier>  (925) 
CNP0080621.0

>  <canonical_smiles>  (925) 
CNC1=CC=CC=C1C1=CC(OC)=CC(=O)O1

>  <standard_inchi>  (925) 
InChI=1S/C13H13NO3/c1-14-11-6-4-3-5-10(11)12-7-9(16-2)8-13(15)17-12/h3-8,14H,1-2H3

>  <standard_inchi_key>  (925) 
CKHZWDBICDCKKM-UHFFFAOYSA-N

>  <name>  (925) 
nan

>  <iupac_name>  (925) 
4-methoxy-6-[2-(methylamino)phenyl]pyran-2-one

>  <annotation_level>  (925) 
4

>  <total_atom_count>  (925) 
30

>  <heavy_atom_count>  (925) 
17

>  <molecular_weight>  (925) 
231.25

>  <exact_molecular_weight>  (925) 
231.08954

>  <molecular_formula>  (925) 
C13H13NO3

>  <alogp>  (925) 
2.36

>  <topological_polar_surface_area>  (925) 
51.47

>  <rotatable_bond_count>  (925) 
3

>  <hydrogen_bond_acceptors>  (925) 
4

>  <hydrogen_bond_donors>  (925) 
1

>  <hydrogen_bond_acceptors_lipinski>  (925) 
4

>  <hydrogen_bond_donors_lipinski>  (925) 
1

>  <lipinski_rule_of_five_violations>  (925) 
0

>  <aromatic_rings_count>  (925) 
2

>  <qed_drug_likeliness>  (925) 
0.88

>  <formal_charge>  (925) 
0

>  <fractioncsp3>  (925) 
0.15

>  <number_of_minimal_rings>  (925) 
2

>  <van_der_walls_volume>  (925) 
nan

>  <contains_sugar>  (925) 
False

>  <contains_ring_sugars>  (925) 
False

>  <contains_linear_sugars>  (925) 
False

>  <murcko_framework>  (925) 
O1C(=CC=CC1)c2ccccc2

>  <np_likeness>  (925) 
0.34

>  <chemical_class>  (925) 
Organonitrogen compounds

>  <chemical_sub_class>  (925) 
Amines

>  <chemical_super_class>  (925) 
Organic nitrogen compounds

>  <direct_parent_classification>  (925) 
Phenylalkylamines

>  <np_classifier_pathway>  (925) 
Polyketides

>  <np_classifier_superclass>  (925) 
Cyclic polyketides

>  <np_classifier_class>  (925) 
2-pyrone derivatives

>  <np_classifier_is_glycoside>  (925) 
False

>  <organisms>  (925) 
Almeidea rubra

>  <collections>  (925) 
Latin America dataset|NuBBEDB|WikiData Natural Products|ZINC NP

>  <dois>  (925) 
10.1590/S0103-50532005000300018

>  <synonyms>  (925) 
4-metoxi-6-[2-(metilamino)fenil]- 2H-piran-2-ona

>  <cas>  (925) 
nan

$$$$

     RDKit          2D

 30 31  0  0  0  0  0  0  0  0999 V2000
   15.5422    1.4115    0.0000 O   0  0  0  0  0  0  0  0  0  0  0  0
   15.4708   -0.0868    0.0000 C   0  0  0  0  0  0  0  0  0  0  0  0
   16.7327   -0.8978    0.0000 O   0  0  0  0  0  0  0  0  0  0  0  0
   14.1375   -0.7741    0.0000 C   0  0  0  0  0  0  0  0  0  0  0  0
   12.8757    0.0369    0.0000 C   0  0  0  0  0  0  0  0  0  0  0  0
   11.5424   -0.6504    0.0000 C   0  0  0  0  0  0  0  0  0  0  0  0
   10.2806    0.1606    0.0000 C   0  0  0  0  0  0  0  0  0  0  0  0
    8.9473   -0.5266    0.0000 C   0  0  0  0  0  0  0  0  0  0  0  0
    7.6854    0.2844    0.0000 C   0  0  0  0  0  0  0  0  0  0  0  0
    6.3521   -0.4029    0.0000 C   0  0  0  0  0  0  0  0  0  0  0  0
    5.0903    0.4081    0.0000 C   0  0  0  0  0  0  0  0  0  0  0  0
    3.7570   -0.2792    0.0000 C   0  0  0  0  0  0  0  0  0  0  0  0
    2.4952    0.5318    0.0000 C   0  0  0  0  0  0  0  0  0  0  0  0
    1.1619   -0.1555    0.0000 C   0  0  0  0  0  0  0  0  0  0  0  0
   -0.1000    0.6555    0.0000 C   0  0  0  0  0  0  0  0  0  0  0  0
   -1.4332   -0.0318    0.0000 C   0  0  0  0  0  0  0  0  0  0  0  0
   -2.6951    0.7792    0.0000 C   0  0  0  0  0  0  0  0  0  0  0  0
   -4.0284    0.0919    0.0000 C   0  0  0  0  0  0  0  0  0  0  0  0
   -5.2902    0.9029    0.0000 C   0  0  0  0  0  0  0  0  0  0  0  0
   -6.6235    0.2156    0.0000 C   0  0  0  0  0  0  0  0  0  0  0  0
   -7.8853    1.0266    0.0000 C   0  0  0  0  0  0  0  0  0  0  0  0
   -9.2186    0.3394    0.0000 C   0  0  0  0  0  0  0  0  0  0  0  0
   -9.2901   -1.1589    0.0000 C   0  0  0  0  0  0  0  0  0  0  0  0
  -10.6233   -1.8462    0.0000 C   0  0  0  0  0  0  0  0  0  0  0  0
  -11.8852   -1.0352    0.0000 C   0  0  0  0  0  0  0  0  0  0  0  0
  -13.3322   -1.4303    0.0000 O   0  0  0  0  0  0  0  0  0  0  0  0
  -14.1551   -0.1762    0.0000 C   0  0  0  0  0  0  0  0  0  0  0  0
  -13.2166    0.9940    0.0000 O   0  0  0  0  0  0  0  0  0  0  0  0
  -11.8138    0.4631    0.0000 C   0  0  0  0  0  0  0  0  0  0  0  0
  -10.4805    1.1504    0.0000 C   0  0  0  0  0  0  0  0  0  0  0  0
  1  2  2  0
  2  3  1  0
  2  4  1  0
  4  5  1  0
  5  6  1  0
  6  7  1  0
  7  8  1  0
  8  9  1  0
  9 10  1  0
 10 11  1  0
 11 12  1  0
 12 13  1  0
 13 14  1  0
 14 15  1  0
 15 16  1  0
 16 17  1  0
 17 18  1  0
 18 19  1  0
 19 20  1  0
 20 21  1  0
 21 22  1  0
 22 23  2  0
 23 24  1  0
 24 25  2  0
 25 26  1  0
 26 27  1  0
 27 28  1  0
 28 29  1  0
 29 30  2  0
 30 22  1  0
 29 25  1  0
M  END
>  <identifier>  (926) 
CNP0405133.0

>  <canonical_smiles>  (926) 
O=C(O)CCCCCCCCCCCCCCCCCCC1=CC=C2OCOC2=C1

>  <standard_inchi>  (926) 
InChI=1S/C26H42O4/c27-26(28)18-16-14-12-10-8-6-4-2-1-3-5-7-9-11-13-15-17-23-19-20-24-25(21-23)30-22-29-24/h19-21H,1-18,22H2,(H,27,28)

>  <standard_inchi_key>  (926) 
FOKXWQYKVUZPMN-UHFFFAOYSA-N

>  <name>  (926) 
nan

>  <iupac_name>  (926) 
19-(1,3-benzodioxol-5-yl)nonadecanoic acid

>  <annotation_level>  (926) 
5

>  <total_atom_count>  (926) 
72

>  <heavy_atom_count>  (926) 
30

>  <molecular_weight>  (926) 
418.62

>  <exact_molecular_weight>  (926) 
418.30831

>  <molecular_formula>  (926) 
C26H42O4

>  <alogp>  (926) 
7.67

>  <topological_polar_surface_area>  (926) 
55.76

>  <rotatable_bond_count>  (926) 
19

>  <hydrogen_bond_acceptors>  (926) 
3

>  <hydrogen_bond_donors>  (926) 
1

>  <hydrogen_bond_acceptors_lipinski>  (926) 
3

>  <hydrogen_bond_donors_lipinski>  (926) 
1

>  <lipinski_rule_of_five_violations>  (926) 
1

>  <aromatic_rings_count>  (926) 
1

>  <qed_drug_likeliness>  (926) 
0.23

>  <formal_charge>  (926) 
0

>  <fractioncsp3>  (926) 
0.73

>  <number_of_minimal_rings>  (926) 
2

>  <van_der_walls_volume>  (926) 
434.49

>  <contains_sugar>  (926) 
False

>  <contains_ring_sugars>  (926) 
False

>  <contains_linear_sugars>  (926) 
False

>  <murcko_framework>  (926) 
O1c2ccccc2OC1

>  <np_likeness>  (926) 
0.28

>  <chemical_class>  (926) 
Fatty Acyls

>  <chemical_sub_class>  (926) 
Fatty acids and conjugates

>  <chemical_super_class>  (926) 
Lipids and lipid-like molecules

>  <direct_parent_classification>  (926) 
Long-chain fatty acids

>  <np_classifier_pathway>  (926) 
Fatty acids

>  <np_classifier_superclass>  (926) 
Fatty Acids and Conjugates

>  <np_classifier_class>  (926) 
Carbocyclic fatty acids

>  <np_classifier_is_glycoside>  (926) 
False

>  <organisms>  (926) 
Iryanthera juruensis

>  <collections>  (926) 
ChemSpider NPs|Latin America dataset|NuBBEDB|Super Natural II|UNPD (Universal Natural Products Database)|WikiData Natural Products|ZINC NP

>  <dois>  (926) 
10.1016/S0031-9422(00)00477-5|10.1021/JF063451X

>  <synonyms>  (926) 
19'-(34-Methylenedioxyphenyl)-nonadecanoic acid

>  <cas>  (926) 
nan

$$$$

     RDKit          2D

 30 34  0  0  0  0  0  0  0  0999 V2000
   -7.4144   -2.4359    0.0000 C   0  0  0  0  0  0  0  0  0  0  0  0
   -7.3223   -0.9387    0.0000 C   0  0  0  0  0  0  0  0  0  0  0  0
   -8.5729   -0.1104    0.0000 C   0  0  0  0  0  0  0  0  0  0  0  0
   -5.9797   -0.2698    0.0000 C   0  0  0  0  0  0  0  0  0  0  0  0
   -4.6494   -0.9628    0.0000 C   0  0  0  0  0  0  0  0  0  0  0  0
   -3.5792    0.0882    0.0000 C   0  0  0  0  0  0  0  0  0  0  0  0
   -4.2481    1.4308    0.0000 C   0  0  0  0  0  0  0  0  0  0  0  0
   -3.4198    2.6814    0.0000 C   0  0  0  0  0  0  0  0  0  0  0  0
   -1.9226    2.5893    0.0000 C   0  0  0  0  0  0  0  0  0  0  0  0
   -1.2538    1.2467    0.0000 C   0  0  0  0  0  0  0  0  0  0  0  0
   -2.0821   -0.0038    0.0000 C   0  0  0  0  0  0  0  0  0  0  0  0
   -1.4132   -1.3464    0.0000 O   0  0  0  0  0  0  0  0  0  0  0  0
    0.0840   -1.4385    0.0000 C   0  0  0  0  0  0  0  0  0  0  0  0
    0.7529   -2.7811    0.0000 C   0  0  0  0  0  0  0  0  0  0  0  0
    2.2501   -2.8731    0.0000 O   0  0  0  0  0  0  0  0  0  0  0  0
    3.0784   -1.6225    0.0000 C   0  0  0  0  0  0  0  0  0  0  0  0
    4.5755   -1.7146    0.0000 C   0  0  0  0  0  0  0  0  0  0  0  0
    5.4038   -0.4640    0.0000 C   0  0  0  0  0  0  0  0  0  0  0  0
    6.9010   -0.5560    0.0000 O   0  0  0  0  0  0  0  0  0  0  0  0
    7.5699   -1.8986    0.0000 C   0  0  0  0  0  0  0  0  0  0  0  0
    4.7349    0.8786    0.0000 C   0  0  0  0  0  0  0  0  0  0  0  0
    5.5632    2.1292    0.0000 O   0  0  0  0  0  0  0  0  0  0  0  0
    7.0604    2.0371    0.0000 C   0  0  0  0  0  0  0  0  0  0  0  0
    3.2378    0.9706    0.0000 C   0  0  0  0  0  0  0  0  0  0  0  0
    2.4095   -0.2799    0.0000 C   0  0  0  0  0  0  0  0  0  0  0  0
    0.9123   -0.1879    0.0000 C   0  0  0  0  0  0  0  0  0  0  0  0
    1.7406    1.0627    0.0000 O   0  0  0  0  0  0  0  0  0  0  0  0
    0.2434    1.1547    0.0000 C   0  0  0  0  0  0  0  0  0  0  0  0
    1.0717    2.4053    0.0000 O   0  0  0  0  0  0  0  0  0  0  0  0
   -5.7317    1.2095    0.0000 O   0  0  0  0  0  0  0  0  0  0  0  0
  1  2  2  0
  2  3  1  0
  4  2  1  6
  4  5  1  0
  5  6  1  0
  6  7  2  0
  7  8  1  0
  8  9  2  0
  9 10  1  0
 10 11  2  0
 11 12  1  0
 12 13  1  0
 13 14  1  1
 14 15  1  0
 15 16  1  0
 16 17  2  0
 17 18  1  0
 18 19  1  0
 19 20  1  0
 18 21  2  0
 21 22  1  0
 22 23  1  0
 21 24  1  0
 24 25  2  0
 25 26  1  0
 26 27  1  6
 26 28  1  0
 28 29  2  0
  7 30  1  0
 30  4  1  0
 11  6  1  0
 26 13  1  0
 28 10  1  0
 25 16  1  0
M  END
>  <identifier>  (927) 
CNP0205624.3

>  <canonical_smiles>  (927) 
C=C(C)[C@H]1CC2=C(C=CC3=C2O[C@@H]2COC4=CC(OC)=C(OC)C=C4[C@]2(O)C3=O)O1

>  <standard_inchi>  (927) 
InChI=1S/C23H22O7/c1-11(2)16-7-13-15(29-16)6-5-12-21(13)30-20-10-28-17-9-19(27-4)18(26-3)8-14(17)23(20,25)22(12)24/h5-6,8-9,16,20,25H,1,7,10H2,2-4H3/t16-,20-,23-/m1/s1

>  <standard_inchi_key>  (927) 
JFVKWCYZKMUTLH-AYPBNUJASA-N

>  <name>  (927) 
12a-Hydroxyrotenone

>  <iupac_name>  (927) 
(1~{R},6~{R},13~{R})-13-hydroxy-6-isopropenyl-16,17-dimethoxy-2,7,20-trioxapentacyclo[11.8.0.0^{3,11}.0^{4,8}.0^{14,19}]henicosa-3(11),4(8),9,14,16,18-hexaen-12-one

>  <annotation_level>  (927) 
5

>  <total_atom_count>  (927) 
52

>  <heavy_atom_count>  (927) 
30

>  <molecular_weight>  (927) 
410.42

>  <exact_molecular_weight>  (927) 
410.13655

>  <molecular_formula>  (927) 
C23H22O7

>  <alogp>  (927) 
2.81

>  <topological_polar_surface_area>  (927) 
83.45

>  <rotatable_bond_count>  (927) 
3

>  <hydrogen_bond_acceptors>  (927) 
7

>  <hydrogen_bond_donors>  (927) 
1

>  <hydrogen_bond_acceptors_lipinski>  (927) 
7

>  <hydrogen_bond_donors_lipinski>  (927) 
1

>  <lipinski_rule_of_five_violations>  (927) 
0

>  <aromatic_rings_count>  (927) 
2

>  <qed_drug_likeliness>  (927) 
0.78

>  <formal_charge>  (927) 
0

>  <fractioncsp3>  (927) 
0.35

>  <number_of_minimal_rings>  (927) 
5

>  <van_der_walls_volume>  (927) 
353.18

>  <contains_sugar>  (927) 
False

>  <contains_ring_sugars>  (927) 
False

>  <contains_linear_sugars>  (927) 
False

>  <murcko_framework>  (927) 
O1c2ccc3c(OC4COc5ccccc5C4C3)c2CC1

>  <np_likeness>  (927) 
2.18

>  <chemical_class>  (927) 
Isoflavonoids

>  <chemical_sub_class>  (927) 
Rotenoids

>  <chemical_super_class>  (927) 
Phenylpropanoids and polyketides

>  <direct_parent_classification>  (927) 
Rotenones

>  <np_classifier_pathway>  (927) 
Shikimates and Phenylpropanoids

>  <np_classifier_superclass>  (927) 
Isoflavonoids

>  <np_classifier_class>  (927) 
Rotenoids

>  <np_classifier_is_glycoside>  (927) 
False

>  <organisms>  (927) 
Achillea cretica|Amorpha fruticosa|Antheroporum pierrei|Artemisia igniaria|Cordia americana|Deguelia rufescens|Deguelia spruceana|Deguelia urucu|Derris|Derris canarensis|Derris cuneifolia|Derris malaccensis|Derris montana|Derris oblonga|Derris trifoliata|Derris urucu|Erycibe expansa|Eupatorium riparium|Glycosmis montana|Indigofera spicata|Lonchocarpus|Lonchocarpus subglaucescens|Lonchocarpus utilis|Millettia ferruginea|Millettia pachycarpa|Mundulea chapelieri|Neorautanenia amboensis|Neorautanenia mitis|Pachyrhizus erosus|Pachyrrhizus erosus|Patrinia scabra|Pedicularis semitorta|Piscidia mollois|Pogonolepis muelleriana|Pongamiopsis pervilleana|Sarcolobus globosus|Scopolia japonica|Tephrosia Purpurea|Tephrosia candida|Tephrosia pentaphylla|Tephrosia praecana|Tephrosia purpurea|Tephrosia vogelii|derris malaccensis plain

>  <collections>  (927) 
Australian natural products|CMAUP (cCollective molecular activities of useful plants)|ChEBI NPs|FooDB|KNApSaCK|Latin America dataset|NPACT|NPASS|NPEdia|NuBBEDB|Super Natural II|TCMDB-Taiwan (Traditional Chinese Medicine database)|TIPdb (database of Taiwan indigenous plants)|VietHerb|WikiData Natural Products

>  <dois>  (927) 
10.1002/(SICI)1521-4168(19980901)21:9<513::AID-JHRC513>3.0.CO,2-F|10.1002/(SICI)1521-4168(19980901)21:9<513::AID-JHRC513>3.0.CO;2-F|10.1002/(sici)1521-4168(19980901)21:9<513::aid-jhrc513>3.0.co;2-f|10.1002/PTR.889|10.1016/0031-9422(80)87050-6|10.1016/0031-9422(82)80103-9|10.1016/0031-9422(89)80308-5|10.1016/0031-9422(90)85212-X|10.1016/0031-9422(96)00134-3|10.1016/S0031-9422(00)90838-0|10.1016/S0031-9422(82)85084-X|10.1016/j.bmc.2006.09.024|10.1021/JF981188X|10.1021/NP010126P|10.1021/NP0303815|10.1021/NP0303815.S001|10.1021/NP100430R|10.1021/NP100763P|10.1021/NP50051A002|10.1021/NP50055A035|10.1021/np010126p|10.1021/np0303815|10.1021/np100430r|10.1021/np100763p|10.1021/np400567c|10.1055/S-2005-864182|10.1073/PNAS.95.7.3380|10.1093/CHROMSCI/38.4.174|10.1139/V07-120|10.1248/CPB.50.534|10.1248/CPB.54.1530|10.3987/COM-92-6288

>  <synonyms>  (927) 
(-)-cis-12a-Hydroxyrotenone|(-)-cis-Rotenolone|(1)Benzopyrano(3,4-b)furo(2,3-h)(1)benzopyran-6(6ah)-one, 1,2,12,12a-alpha-tetrahydro-6a-alpha-hydroxy-2-alpha-isopropenyl-8,9-dimethoxy-|(1R,6R,13R)-13-hydroxy-16,17-dimethoxy-6-prop-1-en-2-yl-2,7,20-trioxapentacyclo[11.8.0.03,11.04,8.014,19]henicosa-3(11),4(8),9,14,16,18-hexaen-12-one|(2R,6aR,12aR)-1,2,12,12a-Tetrahydro-6a-hydroxy-8,9-dimethoxy-2-(1-methylethenyl)[1]benzopyrano[3,4-b]furo[2,3-h][1]benzopyran-6(6aH)-one|1,2,12,12a-Tetrahydro-6a-hydroxy-8,9-dimethoxy-2-(1-methylethenyl)-(2R,6aR,12aR)-[1]Benzopyrano[3,4-b]furo[2,3-h][1]benzopyran-6(6aH)-one|12-Hydroxyrotenone|12-hydroxyrotenone, rotenolone|12alpha-Hydroxyrotenone|509-96-6|6a-beta,12a-beta-Rotenolone|6ab,12ab-Rotenolone|AKOS040753816|BDBM50480247|C10464|CHEBI:68051|CHEMBL240545|FS-10634|HN2R8MKH6Y|HY-119694|Q27104952|Rotenolon I|Rotenolone|UNII-HN2R8MKH6Y|[1]Benzopyrano[3,4-b]furo[2,3-h][1]benzopyran-6(6aH)-one, 1,2,12,12a-tetrahydro-6a-hydroxy-8,9-dimethoxy-2-(1-methylethenyl)-, (2R,6aR,12aR)-|hydroxy-isopropenyl-dimethoxy-[?]one

>  <cas>  (927) 
nan

$$$$

     RDKit          2D

 15 16  0  0  0  0  0  0  0  0999 V2000
   -2.9874    2.7974    0.0000 C   0  0  0  0  0  0  0  0  0  0  0  0
   -3.0110    1.2976    0.0000 O   0  0  0  0  0  0  0  0  0  0  0  0
   -1.7240    0.5272    0.0000 C   0  0  0  0  0  0  0  0  0  0  0  0
   -0.4133    1.2567    0.0000 C   0  0  0  0  0  0  0  0  0  0  0  0
    0.8738    0.4863    0.0000 C   0  0  0  0  0  0  0  0  0  0  0  0
    0.8502   -1.0135    0.0000 C   0  0  0  0  0  0  0  0  0  0  0  0
    2.1373   -1.7839    0.0000 C   0  0  0  0  0  0  0  0  0  0  0  0
    3.4479   -1.0544    0.0000 C   0  0  0  0  0  0  0  0  0  0  0  0
    3.4715    0.4454    0.0000 C   0  0  0  0  0  0  0  0  0  0  0  0
    4.7822    1.1749    0.0000 O   0  0  0  0  0  0  0  0  0  0  0  0
    2.1845    1.2158    0.0000 O   0  0  0  0  0  0  0  0  0  0  0  0
   -0.4605   -1.7430    0.0000 C   0  0  0  0  0  0  0  0  0  0  0  0
   -1.7476   -0.9726    0.0000 C   0  0  0  0  0  0  0  0  0  0  0  0
   -3.0583   -1.7021    0.0000 C   0  0  0  0  0  0  0  0  0  0  0  0
   -4.3453   -0.9317    0.0000 O   0  0  0  0  0  0  0  0  0  0  0  0
  1  2  1  0
  2  3  1  0
  3  4  2  0
  4  5  1  0
  5  6  2  0
  6  7  1  0
  7  8  2  0
  8  9  1  0
  9 10  2  0
  9 11  1  0
  6 12  1  0
 12 13  2  0
 13 14  1  0
 14 15  2  0
 13  3  1  0
 11  5  1  0
M  END
>  <identifier>  (928) 
CNP0163510.0

>  <canonical_smiles>  (928) 
COC1=CC2=C(C=CC(=O)O2)C=C1C=O

>  <standard_inchi>  (928) 
InChI=1S/C11H8O4/c1-14-9-5-10-7(4-8(9)6-12)2-3-11(13)15-10/h2-6H,1H3

>  <standard_inchi_key>  (928) 
JZYCZVLVWUCHTP-UHFFFAOYSA-N

>  <name>  (928) 
6-Formyl-7-methoxycoumarin

>  <iupac_name>  (928) 
7-methoxy-2-oxo-chromene-6-carbaldehyde

>  <annotation_level>  (928) 
5

>  <total_atom_count>  (928) 
23

>  <heavy_atom_count>  (928) 
15

>  <molecular_weight>  (928) 
204.18

>  <exact_molecular_weight>  (928) 
204.04226

>  <molecular_formula>  (928) 
C11H8O4

>  <alogp>  (928) 
1.61

>  <topological_polar_surface_area>  (928) 
56.51

>  <rotatable_bond_count>  (928) 
2

>  <hydrogen_bond_acceptors>  (928) 
4

>  <hydrogen_bond_donors>  (928) 
0

>  <hydrogen_bond_acceptors_lipinski>  (928) 
4

>  <hydrogen_bond_donors_lipinski>  (928) 
0

>  <lipinski_rule_of_five_violations>  (928) 
0

>  <aromatic_rings_count>  (928) 
2

>  <qed_drug_likeliness>  (928) 
0.55

>  <formal_charge>  (928) 
0

>  <fractioncsp3>  (928) 
0.09

>  <number_of_minimal_rings>  (928) 
2

>  <van_der_walls_volume>  (928) 
171.03

>  <contains_sugar>  (928) 
False

>  <contains_ring_sugars>  (928) 
False

>  <contains_linear_sugars>  (928) 
False

>  <murcko_framework>  (928) 
O1c2ccccc2C=CC1

>  <np_likeness>  (928) 
0.64

>  <chemical_class>  (928) 
Coumarins and derivatives

>  <chemical_sub_class>  (928) 
Coumarins and derivatives

>  <chemical_super_class>  (928) 
Phenylpropanoids and polyketides

>  <direct_parent_classification>  (928) 
Coumarins and derivatives

>  <np_classifier_pathway>  (928) 
Shikimates and Phenylpropanoids

>  <np_classifier_superclass>  (928) 
Coumarins

>  <np_classifier_class>  (928) 
Simple coumarins

>  <np_classifier_is_glycoside>  (928) 
False

>  <organisms>  (928) 
Boenninghausenia albiflora|Citrus canariculata|Citrus nobilis|Citrus reticulata|Citrus sinensis|Citrus × deliciosa|Euphorbia hirta|Halosaccion ramentaceum|Heracleum rapula|Ipomoea nil|Laurencia glandulifera|Naringi crenulata|Rhodiola crenulata|Zanthoxylum suberosum

>  <collections>  (928) 
Australian natural products|CMAUP (cCollective molecular activities of useful plants)|FooDB|Latin America dataset|NPASS|NuBBEDB|Super Natural II|TCMDB-Taiwan (Traditional Chinese Medicine database)|TCMID (Traditional Chinese Medicine Integrated Database)|UNPD (Universal Natural Products Database)|WikiData Natural Products|ZINC NP

>  <dois>  (928) 
10.1016/0031-9422(75)83061-5|10.1016/S0031-9422(00)84608-7|10.1021/NP50022A028|10.1021/jf801103p|10.1071/ch9672429|10.1080/10286020290019677|10.1248/CPB.38.1230|10.3987/com-07-11291

>  <synonyms>  (928) 
2H-1-Benzopyran-6-carboxaldehyde, 7-methoxy-2-oxo-|4444-74-0|7-Methoxy-2-oxo-2H-1-benzopyran-6-carboxaldehyde|7-methoxy-2-oxochromene-6-carbaldehyde|Angelical|Crenulatin|Crenulatin coumarin|DTXSID60963228

>  <cas>  (928) 
4444-74-0

$$$$

     RDKit          2D

 30 30  0  0  0  0  0  0  0  0999 V2000
  -14.5692    2.1714    0.0000 C   0  0  0  0  0  0  0  0  0  0  0  0
  -13.4766    1.1437    0.0000 C   0  0  0  0  0  0  0  0  0  0  0  0
  -13.8204   -0.3164    0.0000 O   0  0  0  0  0  0  0  0  0  0  0  0
  -12.0403    1.5760    0.0000 C   0  0  0  0  0  0  0  0  0  0  0  0
  -10.9477    0.5483    0.0000 C   0  0  0  0  0  0  0  0  0  0  0  0
   -9.5114    0.9807    0.0000 C   0  0  0  0  0  0  0  0  0  0  0  0
   -8.4187   -0.0471    0.0000 C   0  0  0  0  0  0  0  0  0  0  0  0
   -6.9824    0.3853    0.0000 C   0  0  0  0  0  0  0  0  0  0  0  0
   -5.8898   -0.6424    0.0000 C   0  0  0  0  0  0  0  0  0  0  0  0
   -4.4535   -0.2101    0.0000 C   0  0  0  0  0  0  0  0  0  0  0  0
   -3.3609   -1.2378    0.0000 C   0  0  0  0  0  0  0  0  0  0  0  0
   -1.9245   -0.8054    0.0000 C   0  0  0  0  0  0  0  0  0  0  0  0
   -0.8319   -1.8331    0.0000 C   0  0  0  0  0  0  0  0  0  0  0  0
    0.6044   -1.4008    0.0000 C   0  0  0  0  0  0  0  0  0  0  0  0
    1.6970   -2.4285    0.0000 C   0  0  0  0  0  0  0  0  0  0  0  0
    3.1334   -1.9961    0.0000 C   0  0  0  0  0  0  0  0  0  0  0  0
    3.4771   -0.5361    0.0000 C   0  0  0  0  0  0  0  0  0  0  0  0
    4.9134   -0.1037    0.0000 C   0  0  0  0  0  0  0  0  0  0  0  0
    6.0060   -1.1314    0.0000 C   0  0  0  0  0  0  0  0  0  0  0  0
    7.4424   -0.6991    0.0000 O   0  0  0  0  0  0  0  0  0  0  0  0
    7.7861    0.7610    0.0000 C   0  0  0  0  0  0  0  0  0  0  0  0
    6.6935    1.7887    0.0000 O   0  0  0  0  0  0  0  0  0  0  0  0
    9.2224    1.1934    0.0000 O   0  0  0  0  0  0  0  0  0  0  0  0
    9.5662    2.6535    0.0000 C   0  0  0  0  0  0  0  0  0  0  0  0
   11.0263    2.3097    0.0000 C   0  0  0  0  0  0  0  0  0  0  0  0
    8.1061    2.9972    0.0000 C   0  0  0  0  0  0  0  0  0  0  0  0
    9.9099    4.1136    0.0000 C   0  0  0  0  0  0  0  0  0  0  0  0
    5.6623   -2.5915    0.0000 C   0  0  0  0  0  0  0  0  0  0  0  0
    6.7549   -3.6192    0.0000 C   0  0  0  0  0  0  0  0  0  0  0  0
    4.2260   -3.0239    0.0000 N   0  0  0  0  0  0  0  0  0  0  0  0
  1  2  1  0
  2  3  2  0
  2  4  1  0
  4  5  1  0
  5  6  1  0
  6  7  1  0
  7  8  1  0
  8  9  1  0
  9 10  1  0
 10 11  1  0
 11 12  1  0
 12 13  1  0
 13 14  1  0
 14 15  1  0
 16 15  1  1
 16 17  1  0
 17 18  1  0
 18 19  1  0
 19 20  1  1
 20 21  1  0
 21 22  2  0
 21 23  1  0
 23 24  1  0
 24 25  1  0
 24 26  1  0
 24 27  1  0
 19 28  1  0
 28 29  1  1
 28 30  1  0
 30 16  1  0
M  END
>  <identifier>  (929) 
CNP0100639.2

>  <canonical_smiles>  (929) 
CC(=O)CCCCCCCCCCCC[C@H]1CC[C@@H](OC(=O)OC(C)(C)C)[C@@H](C)N1

>  <standard_inchi>  (929) 
InChI=1S/C25H47NO4/c1-20(27)16-14-12-10-8-6-7-9-11-13-15-17-22-18-19-23(21(2)26-22)29-24(28)30-25(3,4)5/h21-23,26H,6-19H2,1-5H3/t21-,22+,23-/m1/s1

>  <standard_inchi_key>  (929) 
HGUBSUVMPCCXIF-XPWALMASSA-N

>  <name>  (929) 
tert-butyl [(2R,3R,6S)-2-methyl-6-(13-oxotetradecyl)piperidin-3-yl] carbonate

>  <iupac_name>  (929) 
~{tert}-butyl [(2~{R},3~{R},6~{S})-2-methyl-6-(13-oxotetradecyl)-3-piperidyl] carbonate

>  <annotation_level>  (929) 
5

>  <total_atom_count>  (929) 
77

>  <heavy_atom_count>  (929) 
30

>  <molecular_weight>  (929) 
425.65

>  <exact_molecular_weight>  (929) 
425.35051

>  <molecular_formula>  (929) 
C25H47NO4

>  <alogp>  (929) 
6.72

>  <topological_polar_surface_area>  (929) 
64.63

>  <rotatable_bond_count>  (929) 
14

>  <hydrogen_bond_acceptors>  (929) 
5

>  <hydrogen_bond_donors>  (929) 
1

>  <hydrogen_bond_acceptors_lipinski>  (929) 
5

>  <hydrogen_bond_donors_lipinski>  (929) 
1

>  <lipinski_rule_of_five_violations>  (929) 
1

>  <aromatic_rings_count>  (929) 
0

>  <qed_drug_likeliness>  (929) 
0.25

>  <formal_charge>  (929) 
0

>  <fractioncsp3>  (929) 
0.92

>  <number_of_minimal_rings>  (929) 
1

>  <van_der_walls_volume>  (929) 
451.32

>  <contains_sugar>  (929) 
False

>  <contains_ring_sugars>  (929) 
False

>  <contains_linear_sugars>  (929) 
False

>  <murcko_framework>  (929) 
N1CCCCC1

>  <np_likeness>  (929) 
1.40

>  <chemical_class>  (929) 
nan

>  <chemical_sub_class>  (929) 
Alkaloids and derivatives

>  <chemical_super_class>  (929) 
Alkaloids and derivatives

>  <direct_parent_classification>  (929) 
Alkaloids and derivatives

>  <np_classifier_pathway>  (929) 
nan

>  <np_classifier_superclass>  (929) 
nan

>  <np_classifier_class>  (929) 
nan

>  <np_classifier_is_glycoside>  (929) 
False

>  <organisms>  (929) 
Senna spectabilis

>  <collections>  (929) 
ChemSpider NPs|Latin America dataset|NuBBEDB|Super Natural II|WikiData Natural Products|ZINC NP

>  <dois>  (929) 
10.1016/J.BMC.2005.04.030|10.1248/CPB.56.407|10.1248/cpb.56.407

>  <synonyms>  (929) 
2-(R)-Methyl-6-(S)-(tetradecyl-13'-one)-3-(R)-O-tert-butoxycarbonyl-piperidine|CHEMBL3139212

>  <cas>  (929) 
nan

$$$$

     RDKit          2D

 23 26  0  0  0  0  0  0  0  0999 V2000
    4.2455   -2.7108    0.0000 C   0  0  0  0  0  0  0  0  0  0  0  0
    3.7900   -1.2816    0.0000 O   0  0  0  0  0  0  0  0  0  0  0  0
    2.3245   -0.9615    0.0000 C   0  0  0  0  0  0  0  0  0  0  0  0
    1.3146   -2.0705    0.0000 C   0  0  0  0  0  0  0  0  0  0  0  0
   -0.1509   -1.7504    0.0000 C   0  0  0  0  0  0  0  0  0  0  0  0
   -0.6064   -0.3213    0.0000 C   0  0  0  0  0  0  0  0  0  0  0  0
    0.4036    0.7878    0.0000 C   0  0  0  0  0  0  0  0  0  0  0  0
    1.8690    0.4677    0.0000 C   0  0  0  0  0  0  0  0  0  0  0  0
    2.8790    1.5768    0.0000 O   0  0  0  0  0  0  0  0  0  0  0  0
    4.3444    1.2566    0.0000 C   0  0  0  0  0  0  0  0  0  0  0  0
   -2.0718   -0.0011    0.0000 C   0  0  0  0  0  0  0  0  0  0  0  0
   -0.9184    0.5986    0.0000 C   0  0  0  0  0  0  0  0  0  0  0  0
   -0.5145    1.2892    0.0000 C   0  0  0  0  0  0  0  0  0  0  0  0
    1.6854    1.2768    0.0000 O   0  0  0  0  0  0  0  0  0  0  0  0
    2.4427    2.5716    0.0000 C   0  0  0  0  0  0  0  0  0  0  0  0
   -0.9106    1.9842    0.0000 C   0  0  0  0  0  0  0  0  0  0  0  0
   -1.7106    1.9887    0.0000 C   0  0  0  0  0  0  0  0  0  0  0  0
   -2.8145    1.3021    0.0000 C   0  0  0  0  0  0  0  0  0  0  0  0
   -4.2834    0.9985    0.0000 C   0  0  0  0  0  0  0  0  0  0  0  0
   -4.4486   -0.4924    0.0000 C   0  0  0  0  0  0  0  0  0  0  0  0
   -3.0818   -1.1102    0.0000 N   0  0  0  0  0  0  0  0  0  0  0  0
   -2.6263   -2.5394    0.0000 C   0  0  0  0  0  0  0  0  0  0  0  0
   -1.1608   -2.8595    0.0000 C   0  0  0  0  0  0  0  0  0  0  0  0
  1  2  1  0
  2  3  1  0
  3  4  2  0
  4  5  1  0
  5  6  2  0
  6  7  1  0
  7  8  2  0
  8  9  1  0
  9 10  1  0
  6 11  1  0
 11 12  1  6
 12 13  1  0
 13 14  1  6
 14 15  1  0
 13 16  1  0
 16 17  2  0
 17 18  1  0
 18 19  2  0
 19 20  1  0
 20 21  1  0
 21 22  1  0
 22 23  1  0
  8  3  1  0
 18 11  1  0
 23  5  1  0
 21 11  1  0
M  END
>  <identifier>  (930) 
CNP0160260.1

>  <canonical_smiles>  (930) 
COC1=CC2=C(C=C1OC)[C@]13C[C@@H](OC)C=CC1=CCN3CC2

>  <standard_inchi>  (930) 
InChI=1S/C19H23NO3/c1-21-15-5-4-14-7-9-20-8-6-13-10-17(22-2)18(23-3)11-16(13)19(14,20)12-15/h4-5,7,10-11,15H,6,8-9,12H2,1-3H3/t15-,19-/m0/s1

>  <standard_inchi_key>  (930) 
WXVSPYOOFCCEII-KXBFYZLASA-N

>  <name>  (930) 
Erysotrine

>  <iupac_name>  (930) 
(2~{R},13~{b}~{S})-2,11,12-trimethoxy-2,6,8,9-tetrahydro-1~{H}-indolo[7~{a},1-a]isoquinoline

>  <annotation_level>  (930) 
5

>  <total_atom_count>  (930) 
46

>  <heavy_atom_count>  (930) 
23

>  <molecular_weight>  (930) 
313.4

>  <exact_molecular_weight>  (930) 
313.16779

>  <molecular_formula>  (930) 
C19H23NO3

>  <alogp>  (930) 
2.67

>  <topological_polar_surface_area>  (930) 
30.93

>  <rotatable_bond_count>  (930) 
3

>  <hydrogen_bond_acceptors>  (930) 
4

>  <hydrogen_bond_donors>  (930) 
0

>  <hydrogen_bond_acceptors_lipinski>  (930) 
4

>  <hydrogen_bond_donors_lipinski>  (930) 
0

>  <lipinski_rule_of_five_violations>  (930) 
0

>  <aromatic_rings_count>  (930) 
1

>  <qed_drug_likeliness>  (930) 
0.86

>  <formal_charge>  (930) 
0

>  <fractioncsp3>  (930) 
0.47

>  <number_of_minimal_rings>  (930) 
4

>  <van_der_walls_volume>  (930) 
291.91

>  <contains_sugar>  (930) 
False

>  <contains_ring_sugars>  (930) 
False

>  <contains_linear_sugars>  (930) 
False

>  <murcko_framework>  (930) 
c1ccc2c(c1)CCN3CC=C4C=CCCC423

>  <np_likeness>  (930) 
2.44

>  <chemical_class>  (930) 
Erythrina alkaloids

>  <chemical_sub_class>  (930) 
Erythrinanes

>  <chemical_super_class>  (930) 
Alkaloids and derivatives

>  <direct_parent_classification>  (930) 
Erythrinanes

>  <np_classifier_pathway>  (930) 
Alkaloids

>  <np_classifier_superclass>  (930) 
Lysine alkaloids

>  <np_classifier_class>  (930) 
Indolizidine alkaloids

>  <np_classifier_is_glycoside>  (930) 
False

>  <organisms>  (930) 
Berberis zycium|Erythrina abyssinica|Erythrina atitlanensis|Erythrina cochleata|Erythrina crista-galli|Erythrina crista-galli L.|Erythrina flabelliformis|Erythrina fusca|Erythrina glauca|Erythrina goldmanii|Erythrina guatemalensis|Erythrina herbacea|Erythrina latissima|Erythrina leptorhiza|Erythrina lysistemon|Erythrina macrophylla|Erythrina mexicana|Erythrina mulungu|Erythrina oaxacana|Erythrina oliviae|Erythrina poeppigiana|Erythrina senegalensis|Erythrina steyermarkii|Erythrina suberosa|Erythrina tajumulcensis|Erythrina variegata|Erythrina velutina|Erythrina verna|Erythrina vespertilio|Erythrina zeyheri|Erythrina × bidwillii|Osmundaria fimbriata|Rissoella verruculosa|Smallanthus fruticosus

>  <collections>  (930) 
ANPDB|AfroCancer|AfroDB|Australian natural products|ChEBI NPs|ETM (Ethiopian Traditional Medicine) DB|KNApSaCK|Latin America dataset|NANPDB (Natural Products from Northern African Sources)|NPASS|NPEdia|NuBBEDB|Super Natural II|TCMDB-Taiwan (Traditional Chinese Medicine database)|TPPT (Toxic Plants–PhytoToxins)|WikiData Natural Products

>  <dois>  (930) 
10.1002/9780470744307.gat218|10.1002/JPS.2600610821|10.1002/biuz.19840140514|10.1002/food.19880321030|10.1016/0031-9422(91)83084-X|10.1016/0031-9422(94)00764-K|10.1016/J.BMCL.2008.10.111|10.1016/S0031-9422(00)82559-5|10.1016/S0305-1978(97)00113-0|10.1021/NP50054A024|10.1021/NP50073A014|10.1021/NP990540D|10.1055/S-0031-1298310|10.1055/S-2002-32891|10.1055/S-2006-962538|10.1055/s-0031-1298310|10.1080/14786419.2011.573791|10.1139/V81-400|10.1139/v81-400

>  <synonyms>  (930) 
(+)-Erysotrine|(1S,16R)-4,5,16-trimethoxy-10-azatetracyclo[8.7.0.0^{1,13}.0^{2,7}]heptadeca-2(7),3,5,12,14-pentaene|(2R,13bS)-2,11,12-trimethoxy-2,6,8,9-tetrahydro-1H-indolo[7a,1-a]isoquinoline|(3beta)-1,2,6,7-Tetradehydro-3,15,16-trimethoxyerythrinan|(9bS,11R)-7,8,11-trimethoxy-2H,4H,5H,10H,11H-indolo[7a,1-a]isoquinoline|27740-43-8|57JE7XNE7L|AKOS032948694|BDBM50006648|C09423|CHEBI:4838|CHEMBL442947|CS-0024334|DTXSID80182090|Erysotrin|Erythrinan, 1,2,6,7-tetradehydro-3,15,16-trimethoxy-, (3beta)-|FS-9705|HY-N3852|NS00094798|Q27106501|erysotrine

>  <cas>  (930) 
27740-43-8

$$$$

     RDKit          2D

 16 17  0  0  0  0  0  0  0  0999 V2000
   -5.8490    0.3579    0.0000 C   0  0  0  0  0  0  0  0  0  0  0  0
   -4.3952    0.7270    0.0000 O   0  0  0  0  0  0  0  0  0  0  0  0
   -3.3486   -0.3475    0.0000 C   0  0  0  0  0  0  0  0  0  0  0  0
   -3.7559   -1.7912    0.0000 O   0  0  0  0  0  0  0  0  0  0  0  0
   -1.8947    0.0216    0.0000 C   0  0  0  0  0  0  0  0  0  0  0  0
   -1.4874    1.4652    0.0000 C   0  0  0  0  0  0  0  0  0  0  0  0
   -0.0335    1.8343    0.0000 C   0  0  0  0  0  0  0  0  0  0  0  0
    1.0131    0.7598    0.0000 C   0  0  0  0  0  0  0  0  0  0  0  0
    2.4669    1.1289    0.0000 O   0  0  0  0  0  0  0  0  0  0  0  0
    3.5135    0.0543    0.0000 C   0  0  0  0  0  0  0  0  0  0  0  0
    4.8645   -0.5974    0.0000 C   0  0  0  0  0  0  0  0  0  0  0  0
    4.3900    1.2716    0.0000 C   0  0  0  0  0  0  0  0  0  0  0  0
    3.1062   -1.3893    0.0000 C   0  0  0  0  0  0  0  0  0  0  0  0
    1.6524   -1.7584    0.0000 C   0  0  0  0  0  0  0  0  0  0  0  0
    0.6058   -0.6839    0.0000 C   0  0  0  0  0  0  0  0  0  0  0  0
   -0.8481   -1.0530    0.0000 C   0  0  0  0  0  0  0  0  0  0  0  0
  1  2  1  0
  2  3  1  0
  3  4  2  0
  3  5  1  0
  5  6  2  0
  6  7  1  0
  7  8  2  0
  8  9  1  0
  9 10  1  0
 10 11  1  0
 10 12  1  0
 10 13  1  0
 13 14  1  0
 14 15  1  0
 15 16  2  0
 16  5  1  0
 15  8  1  0
M  END
>  <identifier>  (931) 
CNP0080646.0

>  <canonical_smiles>  (931) 
COC(=O)C1=CC=C2OC(C)(C)CCC2=C1

>  <standard_inchi>  (931) 
InChI=1S/C13H16O3/c1-13(2)7-6-9-8-10(12(14)15-3)4-5-11(9)16-13/h4-5,8H,6-7H2,1-3H3

>  <standard_inchi_key>  (931) 
QOOSUIFPCJRCCM-UHFFFAOYSA-N

>  <name>  (931) 
methyl 2,2-dimethyl-3,4-dihydro-2H-1-benzopyran-6-carboxylate

>  <iupac_name>  (931) 
methyl 2,2-dimethylchromane-6-carboxylate

>  <annotation_level>  (931) 
5

>  <total_atom_count>  (931) 
32

>  <heavy_atom_count>  (931) 
16

>  <molecular_weight>  (931) 
220.27

>  <exact_molecular_weight>  (931) 
220.10994

>  <molecular_formula>  (931) 
C13H16O3

>  <alogp>  (931) 
2.58

>  <topological_polar_surface_area>  (931) 
35.53

>  <rotatable_bond_count>  (931) 
1

>  <hydrogen_bond_acceptors>  (931) 
3

>  <hydrogen_bond_donors>  (931) 
0

>  <hydrogen_bond_acceptors_lipinski>  (931) 
3

>  <hydrogen_bond_donors_lipinski>  (931) 
0

>  <lipinski_rule_of_five_violations>  (931) 
0

>  <aromatic_rings_count>  (931) 
1

>  <qed_drug_likeliness>  (931) 
0.68

>  <formal_charge>  (931) 
0

>  <fractioncsp3>  (931) 
0.46

>  <number_of_minimal_rings>  (931) 
2

>  <van_der_walls_volume>  (931) 
209.59

>  <contains_sugar>  (931) 
False

>  <contains_ring_sugars>  (931) 
False

>  <contains_linear_sugars>  (931) 
False

>  <murcko_framework>  (931) 
O1c2ccccc2CCC1

>  <np_likeness>  (931) 
0.54

>  <chemical_class>  (931) 
Benzopyrans

>  <chemical_sub_class>  (931) 
1-benzopyrans

>  <chemical_super_class>  (931) 
Organoheterocyclic compounds

>  <direct_parent_classification>  (931) 
2,2-dimethyl-1-benzopyrans

>  <np_classifier_pathway>  (931) 
Terpenoids

>  <np_classifier_superclass>  (931) 
Meroterpenoids

>  <np_classifier_class>  (931) 
Merohemiterpenoids

>  <np_classifier_is_glycoside>  (931) 
False

>  <organisms>  (931) 
Piper aduncum

>  <collections>  (931) 
ChemSpider NPs|Latin America dataset|NuBBEDB|Super Natural II|WikiData Natural Products|ZINC NP

>  <dois>  (931) 
10.1248/BPB.31.538|10.1248/bpb.31.538

>  <synonyms>  (931) 
2,2-dimethyl-chroman-6-carboxylic acid methyl ester|34818-55-8|AKOS004115533|DB-402120|Methyl 3,4-dihydro-2,2-dimethyl-2H-1-benzopyran-6-carboxylate|Methyl-22-dimethylchroman-6-carboxylate|SCHEMBL16742142|methyl 2,2-dimethyl-6-chromanecarboxylate

>  <cas>  (931) 
34818-55-8

$$$$

     RDKit          2D

 23 25  0  0  0  0  0  0  0  0999 V2000
    1.3602   -4.2970    0.0000 C   0  0  0  0  0  0  0  0  0  0  0  0
    0.0099   -3.6438    0.0000 C   0  0  0  0  0  0  0  0  0  0  0  0
   -0.0995   -2.1478    0.0000 C   0  0  0  0  0  0  0  0  0  0  0  0
   -1.5955   -2.2572    0.0000 C   0  0  0  0  0  0  0  0  0  0  0  0
    1.3965   -2.0384    0.0000 C   0  0  0  0  0  0  0  0  0  0  0  0
   -0.2090   -0.6518    0.0000 C   0  0  0  0  0  0  0  0  0  0  0  0
    1.0319    0.1910    0.0000 C   0  0  0  0  0  0  0  0  0  0  0  0
    2.3822   -0.4623    0.0000 O   0  0  0  0  0  0  0  0  0  0  0  0
    3.6230    0.3805    0.0000 C   0  0  0  0  0  0  0  0  0  0  0  0
    5.0773    0.7481    0.0000 C   0  0  0  0  0  0  0  0  0  0  0  0
    4.2375   -0.9878    0.0000 C   0  0  0  0  0  0  0  0  0  0  0  0
    3.5136    1.8765    0.0000 C   0  0  0  0  0  0  0  0  0  0  0  0
    2.1633    2.5297    0.0000 C   0  0  0  0  0  0  0  0  0  0  0  0
    0.9224    1.6870    0.0000 C   0  0  0  0  0  0  0  0  0  0  0  0
   -0.4278    2.3402    0.0000 C   0  0  0  0  0  0  0  0  0  0  0  0
   -0.5373    3.8362    0.0000 O   0  0  0  0  0  0  0  0  0  0  0  0
   -1.6687    1.4974    0.0000 C   0  0  0  0  0  0  0  0  0  0  0  0
   -1.5593    0.0014    0.0000 C   0  0  0  0  0  0  0  0  0  0  0  0
   -2.8001   -0.8414    0.0000 O   0  0  0  0  0  0  0  0  0  0  0  0
   -4.1504   -0.1881    0.0000 C   0  0  0  0  0  0  0  0  0  0  0  0
   -5.3913   -1.0309    0.0000 O   0  0  0  0  0  0  0  0  0  0  0  0
   -4.2599    1.3079    0.0000 C   0  0  0  0  0  0  0  0  0  0  0  0
   -3.0190    2.1507    0.0000 C   0  0  0  0  0  0  0  0  0  0  0  0
  1  2  2  0
  2  3  1  0
  3  4  1  0
  3  5  1  0
  3  6  1  0
  6  7  2  0
  7  8  1  0
  8  9  1  0
  9 10  1  0
  9 11  1  0
  9 12  1  0
 12 13  2  0
 13 14  1  0
 14 15  2  0
 15 16  1  0
 15 17  1  0
 17 18  2  0
 18 19  1  0
 19 20  1  0
 20 21  2  0
 20 22  1  0
 22 23  2  0
 18  6  1  0
 14  7  1  0
 23 17  1  0
M  END
>  <identifier>  (932) 
CNP0251111.0

>  <canonical_smiles>  (932) 
C=CC(C)(C)C1=C2OC(C)(C)C=CC2=C(O)C2=C1OC(=O)C=C2

>  <standard_inchi>  (932) 
InChI=1S/C19H20O4/c1-6-18(2,3)14-16-11(7-8-13(20)22-16)15(21)12-9-10-19(4,5)23-17(12)14/h6-10,21H,1H2,2-5H3

>  <standard_inchi_key>  (932) 
WYMMNGQSPNWCIK-UHFFFAOYSA-N

>  <name>  (932) 
nor-Dentatin

>  <iupac_name>  (932) 
10-(1,1-dimethylallyl)-5-hydroxy-2,2-dimethyl-pyrano[3,2-g]chromen-8-one

>  <annotation_level>  (932) 
5

>  <total_atom_count>  (932) 
43

>  <heavy_atom_count>  (932) 
23

>  <molecular_weight>  (932) 
312.37

>  <exact_molecular_weight>  (932) 
312.13616

>  <molecular_formula>  (932) 
C19H20O4

>  <alogp>  (932) 
4.15

>  <topological_polar_surface_area>  (932) 
59.67

>  <rotatable_bond_count>  (932) 
2

>  <hydrogen_bond_acceptors>  (932) 
4

>  <hydrogen_bond_donors>  (932) 
1

>  <hydrogen_bond_acceptors_lipinski>  (932) 
4

>  <hydrogen_bond_donors_lipinski>  (932) 
1

>  <lipinski_rule_of_five_violations>  (932) 
0

>  <aromatic_rings_count>  (932) 
2

>  <qed_drug_likeliness>  (932) 
0.67

>  <formal_charge>  (932) 
0

>  <fractioncsp3>  (932) 
0.32

>  <number_of_minimal_rings>  (932) 
3

>  <van_der_walls_volume>  (932) 
283.85

>  <contains_sugar>  (932) 
False

>  <contains_ring_sugars>  (932) 
False

>  <contains_linear_sugars>  (932) 
False

>  <murcko_framework>  (932) 
O1c2cc3OCC=Cc3cc2C=CC1

>  <np_likeness>  (932) 
2.85

>  <chemical_class>  (932) 
Coumarins and derivatives

>  <chemical_sub_class>  (932) 
Pyranocoumarins

>  <chemical_super_class>  (932) 
Phenylpropanoids and polyketides

>  <direct_parent_classification>  (932) 
Linear pyranocoumarins

>  <np_classifier_pathway>  (932) 
Shikimates and Phenylpropanoids

>  <np_classifier_superclass>  (932) 
Coumarins

>  <np_classifier_class>  (932) 
Pyranocoumarins

>  <np_classifier_is_glycoside>  (932) 
False

>  <organisms>  (932) 
Anagallis arvensis|Asterolasia squamuligera|Bauhinia racemosa|Catharanthus roseus|Cinnamomum tenuifolium|Citrus funadoko|Citrus grandis|Citrus hassaku|Citrus jambhiri|Citrus junos|Citrus medica|Citrus medica var. etrog|Citrus nobilis|Citrus reticulata|Citrus sinensis|Citrus sulcata|Citrus tamurana|Citrus × deliciosa|Citrus × paradisi|Clausena dentata|Clausena excavata|Clausena harmandiana|Curvularia spicifera|Cyclamen balearicum|Enkleia malaccensis|Enkleia siamensis|Grindelia humilis|Jaspis stellifera|Maianthemum stellatum|Moringa oleifera|Palythoa tuberculosa|Paramignya monophylla|Petriella guttulata|Phyllobates aurotaenia|Pinus koraiensis|Pluchea dioscoridis|Pyrola rotundifolia|Stevia alpina|Stoeba extensa|Streptomyces violaceochromogenes|Strophanthus eminii|Tanacetum argyrophyllum|Trifoliate orange|Uncaria perrottetii|pomelo

>  <collections>  (932) 
CMAUP (cCollective molecular activities of useful plants)|ChEBI NPs|GNPS (Global Natural Products Social Molecular Networking)|Latin America dataset|NPASS|NuBBEDB|Super Natural II|TCMID (Traditional Chinese Medicine Integrated Database)|UNPD (Universal Natural Products Database)|WikiData Natural Products|ZINC NP

>  <dois>  (932) 
10.1016/0031-9422(88)80815-X|10.1016/0031-9422(88)83146-7|10.1016/0031-9422(94)00485-C|10.1016/0031-9422(96)00212-9|10.1016/S0031-9422(00)84608-7|10.1016/S0031-9422(96)00532-8|10.1016/S0031-9422(97)00760-7|10.1016/S0031-9422(99)00220-4|10.1021/NP100654M|10.1021/NP50036A038|10.1021/NP50048A044|10.1021/NP50048A051|10.1021/jf801103p|10.1039/P19900001593|10.1055/S-2003-37716|10.1248/CPB.34.3922|10.1248/CPB.38.1230|10.1248/CPB.39.2509|10.1248/CPB.41.1657|10.1248/CPB.45.48|10.1248/CPB.56.827|10.1248/CPB.58.61

>  <synonyms>  (932) 
10-(1,1-Dimethyl-2-propenyl)-5-hydroxy-8,8-dimethyl-2H,8H-pyrano[3,2-g]chromen-2-one|10-(1,1-dimethylallyl)-5-hydroxy-2,2-dimethyl-pyrano[3,2-g]chromen-8-one|5-hydroxy-2,2-dimethyl-10-(2-methylbut-3-en-2-yl)pyrano[3,2-g]chromen-8-one|CHEBI:69940|CHEMBL158309|Nordentatin|Q27138283|SCHEMBL3364111|ZINC03641076

>  <cas>  (932) 
nan

$$$$

     RDKit          2D

 24 27  0  0  0  0  0  0  0  0999 V2000
   -5.9724   -1.7506    0.0000 C   0  0  0  0  0  0  0  0  0  0  0  0
   -4.4749   -1.6651    0.0000 O   0  0  0  0  0  0  0  0  0  0  0  0
   -3.8001   -0.3254    0.0000 C   0  0  0  0  0  0  0  0  0  0  0  0
   -4.6230    0.9288    0.0000 C   0  0  0  0  0  0  0  0  0  0  0  0
   -3.9482    2.2684    0.0000 C   0  0  0  0  0  0  0  0  0  0  0  0
   -4.7711    3.5226    0.0000 O   0  0  0  0  0  0  0  0  0  0  0  0
   -2.4507    2.3539    0.0000 C   0  0  0  0  0  0  0  0  0  0  0  0
   -1.6278    1.0998    0.0000 C   0  0  0  0  0  0  0  0  0  0  0  0
   -2.3026   -0.2399    0.0000 C   0  0  0  0  0  0  0  0  0  0  0  0
   -1.4797   -1.4941    0.0000 C   0  0  0  0  0  0  0  0  0  0  0  0
   -2.1545   -2.8338    0.0000 O   0  0  0  0  0  0  0  0  0  0  0  0
    0.0178   -1.4086    0.0000 C   0  0  0  0  0  0  0  0  0  0  0  0
    0.8407   -2.6627    0.0000 O   0  0  0  0  0  0  0  0  0  0  0  0
    2.3382   -2.5772    0.0000 C   0  0  0  0  0  0  0  0  0  0  0  0
    3.0129   -1.2375    0.0000 C   0  0  0  0  0  0  0  0  0  0  0  0
    4.5105   -1.1520    0.0000 C   0  0  0  0  0  0  0  0  0  0  0  0
    5.1852    0.1876    0.0000 C   0  0  0  0  0  0  0  0  0  0  0  0
    6.6828    0.2732    0.0000 O   0  0  0  0  0  0  0  0  0  0  0  0
    4.3624    1.4418    0.0000 C   0  0  0  0  0  0  0  0  0  0  0  0
    5.0371    2.7815    0.0000 O   0  0  0  0  0  0  0  0  0  0  0  0
    2.8648    1.3563    0.0000 C   0  0  0  0  0  0  0  0  0  0  0  0
    2.1901    0.0166    0.0000 C   0  0  0  0  0  0  0  0  0  0  0  0
    0.6926   -0.0689    0.0000 C   0  0  0  0  0  0  0  0  0  0  0  0
   -0.1303    1.1853    0.0000 O   0  0  0  0  0  0  0  0  0  0  0  0
  1  2  1  0
  2  3  1  0
  3  4  2  0
  4  5  1  0
  5  6  1  0
  5  7  2  0
  7  8  1  0
  8  9  2  0
  9 10  1  0
 10 11  2  0
 10 12  1  0
 12 13  1  1
 13 14  1  0
 14 15  1  0
 15 16  2  0
 16 17  1  0
 17 18  1  0
 17 19  2  0
 19 20  1  0
 19 21  1  0
 21 22  2  0
 22 23  1  0
 23 24  1  6
  9  3  1  0
 23 12  1  0
 24  8  1  0
 22 15  1  0
M  END
>  <identifier>  (933) 
CNP0227106.2

>  <canonical_smiles>  (933) 
COC1=CC(O)=CC2=C1C(=O)[C@@H]1OCC3=CC(O)=C(O)C=C3[C@H]1O2

>  <standard_inchi>  (933) 
InChI=1S/C17H14O7/c1-22-12-3-8(18)4-13-14(12)15(21)17-16(24-13)9-5-11(20)10(19)2-7(9)6-23-17/h2-5,16-20H,6H2,1H3/t16-,17+/m1/s1

>  <standard_inchi_key>  (933) 
VBHQQUQXWGPBBF-SJORKVTESA-N

>  <name>  (933) 
nan

>  <iupac_name>  (933) 
(6~{a}~{R},12~{a}~{R})-2,3,10-trihydroxy-8-methoxy-6~{a},12~{a}-dihydro-5~{H}-isochromeno[4,3-b]chromen-7-one

>  <annotation_level>  (933) 
4

>  <total_atom_count>  (933) 
38

>  <heavy_atom_count>  (933) 
24

>  <molecular_weight>  (933) 
330.29

>  <exact_molecular_weight>  (933) 
330.07395

>  <molecular_formula>  (933) 
C17H14O7

>  <alogp>  (933) 
2.03

>  <topological_polar_surface_area>  (933) 
105.45

>  <rotatable_bond_count>  (933) 
1

>  <hydrogen_bond_acceptors>  (933) 
7

>  <hydrogen_bond_donors>  (933) 
3

>  <hydrogen_bond_acceptors_lipinski>  (933) 
7

>  <hydrogen_bond_donors_lipinski>  (933) 
3

>  <lipinski_rule_of_five_violations>  (933) 
0

>  <aromatic_rings_count>  (933) 
2

>  <qed_drug_likeliness>  (933) 
0.69

>  <formal_charge>  (933) 
0

>  <fractioncsp3>  (933) 
0.24

>  <number_of_minimal_rings>  (933) 
4

>  <van_der_walls_volume>  (933) 
nan

>  <contains_sugar>  (933) 
False

>  <contains_ring_sugars>  (933) 
False

>  <contains_linear_sugars>  (933) 
False

>  <murcko_framework>  (933) 
O1c2ccccc2CC3OCc4ccccc4C13

>  <np_likeness>  (933) 
2.06

>  <chemical_class>  (933) 
Flavonoids

>  <chemical_sub_class>  (933) 
Pyranoflavonoids

>  <chemical_super_class>  (933) 
Phenylpropanoids and polyketides

>  <direct_parent_classification>  (933) 
Pyranoflavonoids

>  <np_classifier_pathway>  (933) 
Shikimates and Phenylpropanoids

>  <np_classifier_superclass>  (933) 
Isoflavonoids

>  <np_classifier_class>  (933) 
nan

>  <np_classifier_is_glycoside>  (933) 
False

>  <organisms>  (933) 
Goniorrhachis marginata

>  <collections>  (933) 
Latin America dataset|NPEdia|NuBBEDB|Super Natural II|WikiData Natural Products

>  <dois>  (933) 
10.1016/S0031-9422(00)86522-X

>  <synonyms>  (933) 
(6aR12aR)-2310-Trihydroxy-8-methoxy-612-dioxabenz(a)anthracen-7(5H6aH12aH)-one|5-Methoxypeltogynone

>  <cas>  (933) 
nan

$$$$

     RDKit          2D

 26 29  0  0  0  0  0  0  0  0999 V2000
   -0.9217   -3.6527    0.0000 C   0  0  0  0  0  0  0  0  0  0  0  0
    0.3924   -2.9293    0.0000 C   0  0  0  0  0  0  0  0  0  0  0  0
    0.4229   -1.4296    0.0000 C   0  0  0  0  0  0  0  0  0  0  0  0
    1.7369   -0.7062    0.0000 C   0  0  0  0  0  0  0  0  0  0  0  0
    3.0204   -1.4825    0.0000 C   0  0  0  0  0  0  0  0  0  0  0  0
    4.3345   -0.7591    0.0000 C   0  0  0  0  0  0  0  0  0  0  0  0
    5.6180   -1.5354    0.0000 O   0  0  0  0  0  0  0  0  0  0  0  0
    4.3650    0.7406    0.0000 C   0  0  0  0  0  0  0  0  0  0  0  0
    5.6790    1.4640    0.0000 O   0  0  0  0  0  0  0  0  0  0  0  0
    3.0815    1.5169    0.0000 C   0  0  0  0  0  0  0  0  0  0  0  0
    1.6209    1.8586    0.0000 C   0  0  0  0  0  0  0  0  0  0  0  0
    1.0388    3.2410    0.0000 C   0  0  0  0  0  0  0  0  0  0  0  0
    0.8446    0.5751    0.0000 C   0  0  0  0  0  0  0  0  0  0  0  0
   -0.6500    0.4487    0.0000 C   0  0  0  0  0  0  0  0  0  0  0  0
   -1.2879   -0.9090    0.0000 C   0  0  0  0  0  0  0  0  0  0  0  0
   -2.7825   -1.0354    0.0000 C   0  0  0  0  0  0  0  0  0  0  0  0
   -3.4204   -2.3930    0.0000 O   0  0  0  0  0  0  0  0  0  0  0  0
   -2.5636   -3.6242    0.0000 C   0  0  0  0  0  0  0  0  0  0  0  0
   -3.6393    0.1959    0.0000 C   0  0  0  0  0  0  0  0  0  0  0  0
   -5.1276    0.3830    0.0000 O   0  0  0  0  0  0  0  0  0  0  0  0
   -5.4096    1.8562    0.0000 C   0  0  0  0  0  0  0  0  0  0  0  0
   -4.0955    2.5797    0.0000 O   0  0  0  0  0  0  0  0  0  0  0  0
   -3.0015    1.5535    0.0000 C   0  0  0  0  0  0  0  0  0  0  0  0
   -1.5068    1.6799    0.0000 C   0  0  0  0  0  0  0  0  0  0  0  0
    1.7675    0.7935    0.0000 C   0  0  0  0  0  0  0  0  0  0  0  0
    0.4840    1.5698    0.0000 O   0  0  0  0  0  0  0  0  0  0  0  0
  1  2  2  0
  2  3  1  0
  3  4  1  0
  4  5  1  0
  5  6  1  0
  6  7  2  0
  6  8  1  0
  8  9  1  0
  8 10  1  0
 10 11  1  0
 11 12  1  0
 11 13  1  0
 13 14  1  1
 14 15  2  0
 15 16  1  0
 16 17  1  0
 17 18  1  0
 16 19  2  0
 19 20  1  0
 20 21  1  0
 21 22  1  0
 22 23  1  0
 23 24  2  0
 10 25  1  0
 25 26  1  0
 13  4  1  0
 24 14  1  0
 25  4  1  0
 23 19  1  0
M  END
>  <identifier>  (934) 
CNP0165932.1

>  <canonical_smiles>  (934) 
C=CCC12CC(=O)C(O)C(C(C)[C@@H]1C1=CC(OC)=C3OCOC3=C1)C2O

>  <standard_inchi>  (934) 
InChI=1S/C20H24O6/c1-4-5-20-8-12(21)17(22)15(19(20)23)10(2)16(20)11-6-13(24-3)18-14(7-11)25-9-26-18/h4,6-7,10,15-17,19,22-23H,1,5,8-9H2,2-3H3/t10?,15?,16-,17?,19?,20?/m1/s1

>  <standard_inchi_key>  (934) 
OCBRHHMDESBRER-BDMMJYHHSA-N

>  <name>  (934) 
nan

>  <iupac_name>  (934) 
(7~{R})-1-allyl-4,8-dihydroxy-7-(7-methoxy-1,3-benzodioxol-5-yl)-6-methyl-bicyclo[3.2.1]octan-3-one

>  <annotation_level>  (934) 
4

>  <total_atom_count>  (934) 
50

>  <heavy_atom_count>  (934) 
26

>  <molecular_weight>  (934) 
360.41

>  <exact_molecular_weight>  (934) 
360.15729

>  <molecular_formula>  (934) 
C20H24O6

>  <alogp>  (934) 
2.03

>  <topological_polar_surface_area>  (934) 
85.22

>  <rotatable_bond_count>  (934) 
4

>  <hydrogen_bond_acceptors>  (934) 
6

>  <hydrogen_bond_donors>  (934) 
2

>  <hydrogen_bond_acceptors_lipinski>  (934) 
6

>  <hydrogen_bond_donors_lipinski>  (934) 
2

>  <lipinski_rule_of_five_violations>  (934) 
0

>  <aromatic_rings_count>  (934) 
1

>  <qed_drug_likeliness>  (934) 
0.80

>  <formal_charge>  (934) 
0

>  <fractioncsp3>  (934) 
0.55

>  <number_of_minimal_rings>  (934) 
4

>  <van_der_walls_volume>  (934) 
nan

>  <contains_sugar>  (934) 
False

>  <contains_ring_sugars>  (934) 
False

>  <contains_linear_sugars>  (934) 
False

>  <murcko_framework>  (934) 
O1c2ccc(cc2OC1)C3CC4CCCC3C4

>  <np_likeness>  (934) 
1.64

>  <chemical_class>  (934) 
Benzodioxoles

>  <chemical_sub_class>  (934) 
Benzodioxoles

>  <chemical_super_class>  (934) 
Organoheterocyclic compounds

>  <direct_parent_classification>  (934) 
Benzodioxoles

>  <np_classifier_pathway>  (934) 
Shikimates and Phenylpropanoids

>  <np_classifier_superclass>  (934) 
Lignans

>  <np_classifier_class>  (934) 
Neolignans

>  <np_classifier_is_glycoside>  (934) 
False

>  <organisms>  (934) 
Aniba|Aniba sp.

>  <collections>  (934) 
Latin America dataset|NuBBEDB|WikiData Natural Products

>  <dois>  (934) 
10.1016/0031-9422(75)85358-1

>  <synonyms>  (934) 
(7R)-1-allyl-48-dihydroxy-7-(7-methoxybenzo[d][13]dioxol-5-yl)-6-methylbicyclo[3.2.1]octan-3-one

>  <cas>  (934) 
nan

$$$$

     RDKit          2D

 23 26  0  0  0  0  0  0  0  0999 V2000
   -5.0699    2.0226    0.0000 C   0  0  0  0  0  0  0  0  0  0  0  0
   -4.5905    0.6013    0.0000 C   0  0  0  0  0  0  0  0  0  0  0  0
   -5.5816   -0.5245    0.0000 C   0  0  0  0  0  0  0  0  0  0  0  0
   -3.1198    0.3059    0.0000 C   0  0  0  0  0  0  0  0  0  0  0  0
   -2.1287    1.4317    0.0000 C   0  0  0  0  0  0  0  0  0  0  0  0
   -0.6581    1.1363    0.0000 C   0  0  0  0  0  0  0  0  0  0  0  0
   -0.1786   -0.2850    0.0000 C   0  0  0  0  0  0  0  0  0  0  0  0
   -1.1698   -1.4109    0.0000 C   0  0  0  0  0  0  0  0  0  0  0  0
   -0.6904   -2.8322    0.0000 O   0  0  0  0  0  0  0  0  0  0  0  0
   -2.6404   -1.1154    0.0000 C   0  0  0  0  0  0  0  0  0  0  0  0
   -3.6316   -2.2413    0.0000 O   0  0  0  0  0  0  0  0  0  0  0  0
    1.2920   -0.5805    0.0000 C   0  0  0  0  0  0  0  0  0  0  0  0
    1.7714   -2.0018    0.0000 C   0  0  0  0  0  0  0  0  0  0  0  0
    3.2420   -2.2973    0.0000 C   0  0  0  0  0  0  0  0  0  0  0  0
    4.2332   -1.1714    0.0000 C   0  0  0  0  0  0  0  0  0  0  0  0
    3.7538    0.2499    0.0000 C   0  0  0  0  0  0  0  0  0  0  0  0
    3.7894    1.7495    0.0000 C   0  0  0  0  0  0  0  0  0  0  0  0
    5.2368    0.4752    0.0000 C   0  0  0  0  0  0  0  0  0  0  0  0
    2.2832    0.5454    0.0000 C   0  0  0  0  0  0  0  0  0  0  0  0
    1.8037    1.9667    0.0000 C   0  0  0  0  0  0  0  0  0  0  0  0
    0.3331    2.2621    0.0000 C   0  0  0  0  0  0  0  0  0  0  0  0
    0.6436    1.4995    0.0000 O   0  0  0  0  0  0  0  0  0  0  0  0
    1.0771    0.2144    0.0000 C   0  0  0  0  0  0  0  0  0  0  0  0
  1  2  1  0
  2  3  1  0
  2  4  1  0
  4  5  2  0
  5  6  1  0
  6  7  2  0
  7  8  1  0
  8  9  2  0
  8 10  1  0
 10 11  2  0
  7 12  1  0
 12 13  1  1
 13 14  1  0
 14 15  1  0
 15 16  1  0
 16 17  1  0
 16 18  1  0
 16 19  1  0
 19 20  1  0
 21 20  1  6
 21 22  1  0
 22 23  1  0
 10  4  1  0
 19 12  1  0
 21  6  1  0
 23 12  1  0
M  END
>  <identifier>  (935) 
CNP0323075.2

>  <canonical_smiles>  (935) 
CC(C)C1=CC2=C(C(=O)C1=O)[C@@]13CCCC(C)(C)C1C[C@@H]2OC3

>  <standard_inchi>  (935) 
InChI=1S/C20H26O3/c1-11(2)12-8-13-14-9-15-19(3,4)6-5-7-20(15,10-23-14)16(13)18(22)17(12)21/h8,11,14-15H,5-7,9-10H2,1-4H3/t14-,15?,20+/m0/s1

>  <standard_inchi_key>  (935) 
MCRKHQBQOAINHY-UZMOSDRWSA-N

>  <name>  (935) 
nan

>  <iupac_name>  (935) 
(1~{R},8~{S})-5-isopropyl-11,11-dimethyl-16-oxatetracyclo[6.6.2.0^{1,10}.0^{2,7}]hexadeca-2(7),5-diene-3,4-dione

>  <annotation_level>  (935) 
4

>  <total_atom_count>  (935) 
49

>  <heavy_atom_count>  (935) 
23

>  <molecular_weight>  (935) 
314.43

>  <exact_molecular_weight>  (935) 
314.18819

>  <molecular_formula>  (935) 
C20H26O3

>  <alogp>  (935) 
3.63

>  <topological_polar_surface_area>  (935) 
43.37

>  <rotatable_bond_count>  (935) 
1

>  <hydrogen_bond_acceptors>  (935) 
3

>  <hydrogen_bond_donors>  (935) 
0

>  <hydrogen_bond_acceptors_lipinski>  (935) 
3

>  <hydrogen_bond_donors_lipinski>  (935) 
0

>  <lipinski_rule_of_five_violations>  (935) 
0

>  <aromatic_rings_count>  (935) 
0

>  <qed_drug_likeliness>  (935) 
0.55

>  <formal_charge>  (935) 
0

>  <fractioncsp3>  (935) 
0.70

>  <number_of_minimal_rings>  (935) 
5

>  <van_der_walls_volume>  (935) 
nan

>  <contains_sugar>  (935) 
False

>  <contains_ring_sugars>  (935) 
False

>  <contains_linear_sugars>  (935) 
False

>  <murcko_framework>  (935) 
O1CC23C4=C(C=CCC4)C1CC3CCCC2

>  <np_likeness>  (935) 
2.45

>  <chemical_class>  (935) 
Prenol lipids

>  <chemical_sub_class>  (935) 
Diterpenoids

>  <chemical_super_class>  (935) 
Lipids and lipid-like molecules

>  <direct_parent_classification>  (935) 
Diterpenoids

>  <np_classifier_pathway>  (935) 
Terpenoids

>  <np_classifier_superclass>  (935) 
Diterpenoids

>  <np_classifier_class>  (935) 
Abietane diterpenoids

>  <np_classifier_is_glycoside>  (935) 
False

>  <organisms>  (935) 
Coleus barbatus|Plectranthus barbatus

>  <collections>  (935) 
Latin America dataset|NuBBEDB|WikiData Natural Products

>  <dois>  (935) 
10.1016/S0031-9422(00)83467-6

>  <synonyms>  (935) 
2H-94a-(Epoxymethano)phenanthrene-56-dione 13491010a-hexahydro-11-dimethyl-7-(1-methylethyl)- (4aR9S10aS), o-quinone 20-deoxocarnosol derivative

>  <cas>  (935) 
nan

$$$$

     RDKit          2D

 33 36  0  0  0  0  0  0  0  0999 V2000
    7.1676   -3.4964    0.0000 C   0  0  0  0  0  0  0  0  0  0  0  0
    6.7980   -2.0427    0.0000 C   0  0  0  0  0  0  0  0  0  0  0  0
    5.3542   -1.6359    0.0000 C   0  0  0  0  0  0  0  0  0  0  0  0
    4.9846   -0.1821    0.0000 C   0  0  0  0  0  0  0  0  0  0  0  0
    3.5408    0.2247    0.0000 C   0  0  0  0  0  0  0  0  0  0  0  0
    3.1712    1.6784    0.0000 C   0  0  0  0  0  0  0  0  0  0  0  0
    4.2454    2.7254    0.0000 C   0  0  0  0  0  0  0  0  0  0  0  0
    1.7274    2.0852    0.0000 C   0  0  0  0  0  0  0  0  0  0  0  0
    1.2079    3.4924    0.0000 C   0  0  0  0  0  0  0  0  0  0  0  0
   -0.2909    3.4331    0.0000 C   0  0  0  0  0  0  0  0  0  0  0  0
   -0.6977    1.9893    0.0000 C   0  0  0  0  0  0  0  0  0  0  0  0
   -1.8512    2.9482    0.0000 C   0  0  0  0  0  0  0  0  0  0  0  0
   -2.0429    1.3255    0.0000 C   0  0  0  0  0  0  0  0  0  0  0  0
   -3.2903    2.1586    0.0000 C   0  0  0  0  0  0  0  0  0  0  0  0
   -4.6354    1.4948    0.0000 C   0  0  0  0  0  0  0  0  0  0  0  0
   -4.7331   -0.0020    0.0000 C   0  0  0  0  0  0  0  0  0  0  0  0
   -6.0783   -0.6658    0.0000 C   0  0  0  0  0  0  0  0  0  0  0  0
   -7.5693   -0.8295    0.0000 C   0  0  0  0  0  0  0  0  0  0  0  0
   -6.4984    0.7742    0.0000 C   0  0  0  0  0  0  0  0  0  0  0  0
   -6.1760   -2.1626    0.0000 C   0  0  0  0  0  0  0  0  0  0  0  0
   -7.5212   -2.8264    0.0000 O   0  0  0  0  0  0  0  0  0  0  0  0
   -4.9286   -2.9956    0.0000 C   0  0  0  0  0  0  0  0  0  0  0  0
   -3.5835   -2.3319    0.0000 C   0  0  0  0  0  0  0  0  0  0  0  0
   -3.4857   -0.8351    0.0000 C   0  0  0  0  0  0  0  0  0  0  0  0
   -2.2383   -1.6681    0.0000 C   0  0  0  0  0  0  0  0  0  0  0  0
   -2.1406   -0.1713    0.0000 C   0  0  0  0  0  0  0  0  0  0  0  0
   -0.8932   -1.0043    0.0000 C   0  0  0  0  0  0  0  0  0  0  0  0
    0.4520   -0.3405    0.0000 C   0  0  0  0  0  0  0  0  0  0  0  0
    0.5497    1.1563    0.0000 C   0  0  0  0  0  0  0  0  0  0  0  0
    1.8774    0.4582    0.0000 C   0  0  0  0  0  0  0  0  0  0  0  0
    7.8722   -0.9957    0.0000 O   0  0  0  0  0  0  0  0  0  0  0  0
    9.3160   -1.4025    0.0000 C   0  0  0  0  0  0  0  0  0  0  0  0
   10.3902   -0.3556    0.0000 O   0  0  0  0  0  0  0  0  0  0  0  0
  1  2  1  0
  2  3  2  3
  3  4  1  0
  4  5  1  0
  5  6  1  0
  6  7  1  1
  6  8  1  0
  8  9  1  1
  9 10  1  0
 10 11  1  0
 11 12  1  1
 11 13  1  0
 13 14  2  0
 14 15  1  0
 16 15  1  6
 16 17  1  0
 17 18  1  0
 17 19  1  0
 17 20  1  0
 20 21  2  0
 20 22  1  0
 22 23  1  0
 23 24  1  0
 24 25  1  6
 24 26  1  0
 26 27  1  6
 27 28  1  0
 28 29  1  0
 29 30  1  1
  2 31  1  0
 31 32  1  0
 32 33  2  0
 29  8  1  0
 29 11  1  0
 26 13  1  0
 24 16  1  0
M  END
>  <identifier>  (936) 
CNP0080511.1

>  <canonical_smiles>  (936) 
CC(=CCC[C@H](C)[C@@H]1CC[C@@]2(C)C3=CC[C@H]4C(C)(C)C(=O)CC[C@]4(C)[C@H]3CC[C@@]12C)OC=O

>  <standard_inchi>  (936) 
InChI=1S/C30H46O3/c1-20(9-8-10-21(2)33-19-31)22-13-17-30(7)24-11-12-25-27(3,4)26(32)15-16-28(25,5)23(24)14-18-29(22,30)6/h10-11,19-20,22-23,25H,8-9,12-18H2,1-7H3/t20-,22-,23-,25-,28+,29-,30-/m0/s1

>  <standard_inchi_key>  (936) 
XXBQFIJFFSTMNY-ZEZMUWQLSA-N

>  <name>  (936) 
nan

>  <iupac_name>  (936) 
[(5~{S})-1-methyl-5-[(5~{R},9~{R},10~{R},13~{S},14~{R},17~{S})-4,4,10,13,14-pentamethyl-3-oxo-1,2,5,6,9,11,12,15,16,17-decahydrocyclopenta[a]phenanthren-17-yl]hex-1-enyl] formate

>  <annotation_level>  (936) 
4

>  <total_atom_count>  (936) 
79

>  <heavy_atom_count>  (936) 
33

>  <molecular_weight>  (936) 
454.7

>  <exact_molecular_weight>  (936) 
454.3447

>  <molecular_formula>  (936) 
C30H46O3

>  <alogp>  (936) 
7.65

>  <topological_polar_surface_area>  (936) 
43.37

>  <rotatable_bond_count>  (936) 
6

>  <hydrogen_bond_acceptors>  (936) 
3

>  <hydrogen_bond_donors>  (936) 
0

>  <hydrogen_bond_acceptors_lipinski>  (936) 
3

>  <hydrogen_bond_donors_lipinski>  (936) 
0

>  <lipinski_rule_of_five_violations>  (936) 
1

>  <aromatic_rings_count>  (936) 
0

>  <qed_drug_likeliness>  (936) 
0.24

>  <formal_charge>  (936) 
0

>  <fractioncsp3>  (936) 
0.80

>  <number_of_minimal_rings>  (936) 
4

>  <van_der_walls_volume>  (936) 
nan

>  <contains_sugar>  (936) 
False

>  <contains_ring_sugars>  (936) 
False

>  <contains_linear_sugars>  (936) 
False

>  <murcko_framework>  (936) 
C1=C2C3CCCC3CCC2C4CCCCC4C1

>  <np_likeness>  (936) 
3.31

>  <chemical_class>  (936) 
Steroids and steroid derivatives

>  <chemical_sub_class>  (936) 
Cholestane steroids

>  <chemical_super_class>  (936) 
Lipids and lipid-like molecules

>  <direct_parent_classification>  (936) 
Cholesterols and derivatives

>  <np_classifier_pathway>  (936) 
Terpenoids

>  <np_classifier_superclass>  (936) 
Triterpenoids

>  <np_classifier_class>  (936) 
Lanostane, Tirucallane and Euphane triterpenoids

>  <np_classifier_is_glycoside>  (936) 
False

>  <organisms>  (936) 
Schinus terebinthifolius

>  <collections>  (936) 
Latin America dataset|NuBBEDB

>  <dois>  (936) 
10.1002/cbdv.201400065

>  <synonyms>  (936) 
Masticadienoic acid

>  <cas>  (936) 
nan

$$$$

     RDKit          2D

 23 23  0  0  0  0  0  0  0  0999 V2000
  -12.1620    0.9598    0.0000 C   0  0  0  0  0  0  0  0  0  0  0  0
  -10.9215    0.1165    0.0000 C   0  0  0  0  0  0  0  0  0  0  0  0
  -11.0315   -1.3794    0.0000 O   0  0  0  0  0  0  0  0  0  0  0  0
   -9.5709    0.7692    0.0000 C   0  0  0  0  0  0  0  0  0  0  0  0
   -8.3304   -0.0740    0.0000 C   0  0  0  0  0  0  0  0  0  0  0  0
   -6.9799    0.5787    0.0000 C   0  0  0  0  0  0  0  0  0  0  0  0
   -5.7393   -0.2646    0.0000 C   0  0  0  0  0  0  0  0  0  0  0  0
   -4.3888    0.3881    0.0000 C   0  0  0  0  0  0  0  0  0  0  0  0
   -3.1483   -0.4551    0.0000 C   0  0  0  0  0  0  0  0  0  0  0  0
   -1.7977    0.1976    0.0000 C   0  0  0  0  0  0  0  0  0  0  0  0
   -0.5572   -0.6457    0.0000 C   0  0  0  0  0  0  0  0  0  0  0  0
    0.7934    0.0070    0.0000 C   0  0  0  0  0  0  0  0  0  0  0  0
    2.0339   -0.8362    0.0000 C   0  0  0  0  0  0  0  0  0  0  0  0
    3.3845   -0.1835    0.0000 C   0  0  0  0  0  0  0  0  0  0  0  0
    4.6250   -1.0268    0.0000 C   0  0  0  0  0  0  0  0  0  0  0  0
    5.9755   -0.3740    0.0000 C   0  0  0  0  0  0  0  0  0  0  0  0
    6.0855    1.1219    0.0000 C   0  0  0  0  0  0  0  0  0  0  0  0
    7.4361    1.7746    0.0000 C   0  0  0  0  0  0  0  0  0  0  0  0
    8.6766    0.9314    0.0000 C   0  0  0  0  0  0  0  0  0  0  0  0
   10.0272    1.5841    0.0000 O   0  0  0  0  0  0  0  0  0  0  0  0
    8.5666   -0.5646    0.0000 C   0  0  0  0  0  0  0  0  0  0  0  0
    9.8071   -1.4078    0.0000 C   0  0  0  0  0  0  0  0  0  0  0  0
    7.2161   -1.2173    0.0000 N   0  0  0  0  0  0  0  0  0  0  0  0
  1  2  1  0
  2  3  2  0
  2  4  1  0
  4  5  1  0
  5  6  1  0
  6  7  1  0
  7  8  1  0
  8  9  1  0
  9 10  1  0
 10 11  1  0
 11 12  1  0
 12 13  1  0
 13 14  1  0
 14 15  1  0
 16 15  1  1
 16 17  1  0
 17 18  1  0
 18 19  1  0
 19 20  2  0
 19 21  1  0
 21 22  1  1
 21 23  1  0
 23 16  1  0
M  END
>  <identifier>  (937) 
CNP0080378.1

>  <canonical_smiles>  (937) 
CC(=O)CCCCCCCCCCCC[C@H]1CCC(=O)[C@@H](C)N1

>  <standard_inchi>  (937) 
InChI=1S/C20H37NO2/c1-17(22)13-11-9-7-5-3-4-6-8-10-12-14-19-15-16-20(23)18(2)21-19/h18-19,21H,3-16H2,1-2H3/t18-,19+/m1/s1

>  <standard_inchi_key>  (937) 
VQHQDAAWFVGOFT-MOPGFXCFSA-N

>  <name>  (937) 
nan

>  <iupac_name>  (937) 
(2~{R},6~{S})-2-methyl-6-(13-oxotetradecyl)piperidin-3-one

>  <annotation_level>  (937) 
5

>  <total_atom_count>  (937) 
60

>  <heavy_atom_count>  (937) 
23

>  <molecular_weight>  (937) 
323.52

>  <exact_molecular_weight>  (937) 
323.28243

>  <molecular_formula>  (937) 
C20H37NO2

>  <alogp>  (937) 
4.97

>  <topological_polar_surface_area>  (937) 
46.17

>  <rotatable_bond_count>  (937) 
13

>  <hydrogen_bond_acceptors>  (937) 
3

>  <hydrogen_bond_donors>  (937) 
1

>  <hydrogen_bond_acceptors_lipinski>  (937) 
3

>  <hydrogen_bond_donors_lipinski>  (937) 
1

>  <lipinski_rule_of_five_violations>  (937) 
0

>  <aromatic_rings_count>  (937) 
0

>  <qed_drug_likeliness>  (937) 
0.49

>  <formal_charge>  (937) 
0

>  <fractioncsp3>  (937) 
0.90

>  <number_of_minimal_rings>  (937) 
1

>  <van_der_walls_volume>  (937) 
350.42

>  <contains_sugar>  (937) 
False

>  <contains_ring_sugars>  (937) 
False

>  <contains_linear_sugars>  (937) 
False

>  <murcko_framework>  (937) 
N1CCCCC1

>  <np_likeness>  (937) 
1.22

>  <chemical_class>  (937) 
nan

>  <chemical_sub_class>  (937) 
Alkaloids and derivatives

>  <chemical_super_class>  (937) 
Alkaloids and derivatives

>  <direct_parent_classification>  (937) 
Alkaloids and derivatives

>  <np_classifier_pathway>  (937) 
nan

>  <np_classifier_superclass>  (937) 
nan

>  <np_classifier_class>  (937) 
nan

>  <np_classifier_is_glycoside>  (937) 
False

>  <organisms>  (937) 
Senna spectabilis

>  <collections>  (937) 
ChemSpider NPs|Latin America dataset|NuBBEDB|Super Natural II|WikiData Natural Products|ZINC NP

>  <dois>  (937) 
10.1248/CPB.56.407|10.1248/cpb.56.407

>  <synonyms>  (937) 
2-(R)-Methyl-6-(S)-(tetradecyl-13'-one)-piperidin-3-one

>  <cas>  (937) 
nan

$$$$

     RDKit          2D

 22 23  0  0  0  0  0  0  0  0999 V2000
    1.2405   -5.6001    0.0000 C   0  0  0  0  0  0  0  0  0  0  0  0
    0.2817   -4.4465    0.0000 O   0  0  0  0  0  0  0  0  0  0  0  0
    0.8014   -3.0394    0.0000 C   0  0  0  0  0  0  0  0  0  0  0  0
    2.2798   -2.7859    0.0000 O   0  0  0  0  0  0  0  0  0  0  0  0
   -0.1574   -1.8859    0.0000 C   0  0  0  0  0  0  0  0  0  0  0  0
   -1.6358   -2.1394    0.0000 C   0  0  0  0  0  0  0  0  0  0  0  0
   -2.5946   -0.9858    0.0000 O   0  0  0  0  0  0  0  0  0  0  0  0
   -2.0749    0.4213    0.0000 C   0  0  0  0  0  0  0  0  0  0  0  0
   -3.0337    1.5749    0.0000 O   0  0  0  0  0  0  0  0  0  0  0  0
   -4.5121    1.3214    0.0000 C   0  0  0  0  0  0  0  0  0  0  0  0
   -5.4709    2.4749    0.0000 C   0  0  0  0  0  0  0  0  0  0  0  0
   -5.0318   -0.0858    0.0000 O   0  0  0  0  0  0  0  0  0  0  0  0
   -0.5965    0.6748    0.0000 C   0  0  0  0  0  0  0  0  0  0  0  0
    0.2043    1.9432    0.0000 C   0  0  0  0  0  0  0  0  0  0  0  0
   -0.3510    3.3366    0.0000 C   0  0  0  0  0  0  0  0  0  0  0  0
    1.6581    1.5735    0.0000 C   0  0  0  0  0  0  0  0  0  0  0  0
    2.8116    2.5322    0.0000 O   0  0  0  0  0  0  0  0  0  0  0  0
    4.2187    2.0126    0.0000 C   0  0  0  0  0  0  0  0  0  0  0  0
    5.3723    2.9714    0.0000 C   0  0  0  0  0  0  0  0  0  0  0  0
    4.4723    0.5342    0.0000 O   0  0  0  0  0  0  0  0  0  0  0  0
    1.7557    0.0766    0.0000 C   0  0  0  0  0  0  0  0  0  0  0  0
    0.3623   -0.4787    0.0000 C   0  0  0  0  0  0  0  0  0  0  0  0
  1  2  1  0
  2  3  1  0
  3  4  2  0
  3  5  1  0
  5  6  2  0
  6  7  1  0
  7  8  1  0
  8  9  1  1
  9 10  1  0
 10 11  1  0
 10 12  2  0
 13  8  1  6
 13 14  1  0
 14 15  1  1
 14 16  1  0
 16 17  1  1
 17 18  1  0
 18 19  1  0
 18 20  2  0
 16 21  1  0
 22 21  1  6
 22  5  1  0
 22 13  1  0
M  END
>  <identifier>  (938) 
CNP0224572.1

>  <canonical_smiles>  (938) 
COC(=O)C1=CO[C@@H](OC(C)=O)[C@@H]2[C@@H](C)[C@@H](OC(C)=O)C[C@H]12

>  <standard_inchi>  (938) 
InChI=1S/C15H20O7/c1-7-12(21-8(2)16)5-10-11(14(18)19-4)6-20-15(13(7)10)22-9(3)17/h6-7,10,12-13,15H,5H2,1-4H3/t7-,10+,12-,13+,15-/m0/s1

>  <standard_inchi_key>  (938) 
UJVSCOPJNGPMCR-GFFXGSQUSA-N

>  <name>  (938) 
nan

>  <iupac_name>  (938) 
methyl (1~{S},4~{a}~{S},6~{S},7~{R},7~{a}~{S})-1,6-diacetoxy-7-methyl-1,4~{a},5,6,7,7~{a}-hexahydrocyclopenta[c]pyran-4-carboxylate

>  <annotation_level>  (938) 
5

>  <total_atom_count>  (938) 
42

>  <heavy_atom_count>  (938) 
22

>  <molecular_weight>  (938) 
312.32

>  <exact_molecular_weight>  (938) 
312.1209

>  <molecular_formula>  (938) 
C15H20O7

>  <alogp>  (938) 
1.17

>  <topological_polar_surface_area>  (938) 
88.13

>  <rotatable_bond_count>  (938) 
3

>  <hydrogen_bond_acceptors>  (938) 
7

>  <hydrogen_bond_donors>  (938) 
0

>  <hydrogen_bond_acceptors_lipinski>  (938) 
7

>  <hydrogen_bond_donors_lipinski>  (938) 
0

>  <lipinski_rule_of_five_violations>  (938) 
0

>  <aromatic_rings_count>  (938) 
0

>  <qed_drug_likeliness>  (938) 
0.57

>  <formal_charge>  (938) 
0

>  <fractioncsp3>  (938) 
0.67

>  <number_of_minimal_rings>  (938) 
2

>  <van_der_walls_volume>  (938) 
279.06

>  <contains_sugar>  (938) 
False

>  <contains_ring_sugars>  (938) 
False

>  <contains_linear_sugars>  (938) 
False

>  <murcko_framework>  (938) 
O1C=CC2CCCC2C1

>  <np_likeness>  (938) 
2.41

>  <chemical_class>  (938) 
Prenol lipids

>  <chemical_sub_class>  (938) 
Monoterpenoids

>  <chemical_super_class>  (938) 
Lipids and lipid-like molecules

>  <direct_parent_classification>  (938) 
Iridoids and derivatives

>  <np_classifier_pathway>  (938) 
Terpenoids

>  <np_classifier_superclass>  (938) 
Monoterpenoids

>  <np_classifier_class>  (938) 
Iridoids monoterpenoids

>  <np_classifier_is_glycoside>  (938) 
True

>  <organisms>  (938) 
Alibertia macrophylla|Cordiera macrophylla

>  <collections>  (938) 
ChemSpider NPs|Latin America dataset|NuBBEDB|Super Natural II|WikiData Natural Products|ZINC NP

>  <dois>  (938) 
10.1016/0031-9422(92)83701-Y

>  <synonyms>  (938) 
Loganetin diacetate

>  <cas>  (938) 
nan

$$$$

     RDKit          2D

 26 28  0  0  0  0  0  0  0  0999 V2000
   -0.4654   -4.6240    0.0000 C   0  0  0  0  0  0  0  0  0  0  0  0
    0.4334   -3.4231    0.0000 O   0  0  0  0  0  0  0  0  0  0  0  0
   -0.1571   -2.0443    0.0000 C   0  0  0  0  0  0  0  0  0  0  0  0
   -1.6465   -1.8663    0.0000 C   0  0  0  0  0  0  0  0  0  0  0  0
   -2.5454   -3.0672    0.0000 O   0  0  0  0  0  0  0  0  0  0  0  0
   -2.2371   -0.4874    0.0000 C   0  0  0  0  0  0  0  0  0  0  0  0
   -3.7265   -0.3095    0.0000 C   0  0  0  0  0  0  0  0  0  0  0  0
   -4.3171    1.0694    0.0000 C   0  0  0  0  0  0  0  0  0  0  0  0
   -5.8065    1.2474    0.0000 C   0  0  0  0  0  0  0  0  0  0  0  0
   -6.3970    2.6262    0.0000 C   0  0  0  0  0  0  0  0  0  0  0  0
   -6.7053    0.0465    0.0000 C   0  0  0  0  0  0  0  0  0  0  0  0
   -1.3383    0.7134    0.0000 C   0  0  0  0  0  0  0  0  0  0  0  0
   -1.9288    2.0923    0.0000 O   0  0  0  0  0  0  0  0  0  0  0  0
    0.1511    0.5354    0.0000 C   0  0  0  0  0  0  0  0  0  0  0  0
    0.7417   -0.8434    0.0000 C   0  0  0  0  0  0  0  0  0  0  0  0
    2.2311   -1.0214    0.0000 N   0  0  0  0  0  0  0  0  0  0  0  0
    2.8217   -2.4003    0.0000 C   0  0  0  0  0  0  0  0  0  0  0  0
    3.1299    0.1795    0.0000 C   0  0  0  0  0  0  0  0  0  0  0  0
    4.6193    0.0015    0.0000 C   0  0  0  0  0  0  0  0  0  0  0  0
    5.2099   -1.3774    0.0000 O   0  0  0  0  0  0  0  0  0  0  0  0
    5.5182    1.2024    0.0000 C   0  0  0  0  0  0  0  0  0  0  0  0
    4.9276    2.5812    0.0000 C   0  0  0  0  0  0  0  0  0  0  0  0
    3.4382    2.7592    0.0000 C   0  0  0  0  0  0  0  0  0  0  0  0
    2.5394    1.5583    0.0000 C   0  0  0  0  0  0  0  0  0  0  0  0
    1.0500    1.7363    0.0000 C   0  0  0  0  0  0  0  0  0  0  0  0
    0.4594    3.1152    0.0000 O   0  0  0  0  0  0  0  0  0  0  0  0
  1  2  1  0
  2  3  1  0
  3  4  2  0
  4  5  1  0
  4  6  1  0
  6  7  1  0
  7  8  1  0
  8  9  2  0
  9 10  1  0
  9 11  1  0
  6 12  2  0
 12 13  1  0
 12 14  1  0
 14 15  2  0
 15 16  1  0
 16 17  1  0
 16 18  1  0
 18 19  2  0
 19 20  1  0
 19 21  1  0
 21 22  2  0
 22 23  1  0
 23 24  2  0
 24 25  1  0
 25 26  2  0
 15  3  1  0
 24 18  1  0
 25 14  1  0
M  END
>  <identifier>  (939) 
CNP0333293.0

>  <canonical_smiles>  (939) 
COC1=C(O)C(CC=C(C)C)=C(O)C2=C1N(C)C1=C(O)C=CC=C1C2=O

>  <standard_inchi>  (939) 
InChI=1S/C20H21NO5/c1-10(2)8-9-12-18(24)14-16(20(26-4)19(12)25)21(3)15-11(17(14)23)6-5-7-13(15)22/h5-8,22,24-25H,9H2,1-4H3

>  <standard_inchi_key>  (939) 
GKBPFZFFEMNSRA-UHFFFAOYSA-N

>  <name>  (939) 
Glycocitrine-Iv

>  <iupac_name>  (939) 
1,3,5-trihydroxy-4-methoxy-10-methyl-2-(3-methylbut-2-enyl)acridin-9-one

>  <annotation_level>  (939) 
5

>  <total_atom_count>  (939) 
47

>  <heavy_atom_count>  (939) 
26

>  <molecular_weight>  (939) 
355.39

>  <exact_molecular_weight>  (939) 
355.14197

>  <molecular_formula>  (939) 
C20H21NO5

>  <alogp>  (939) 
3.33

>  <topological_polar_surface_area>  (939) 
91.92

>  <rotatable_bond_count>  (939) 
3

>  <hydrogen_bond_acceptors>  (939) 
6

>  <hydrogen_bond_donors>  (939) 
3

>  <hydrogen_bond_acceptors_lipinski>  (939) 
6

>  <hydrogen_bond_donors_lipinski>  (939) 
3

>  <lipinski_rule_of_five_violations>  (939) 
0

>  <aromatic_rings_count>  (939) 
3

>  <qed_drug_likeliness>  (939) 
0.50

>  <formal_charge>  (939) 
0

>  <fractioncsp3>  (939) 
0.25

>  <number_of_minimal_rings>  (939) 
3

>  <van_der_walls_volume>  (939) 
314.32

>  <contains_sugar>  (939) 
False

>  <contains_ring_sugars>  (939) 
False

>  <contains_linear_sugars>  (939) 
False

>  <murcko_framework>  (939) 
c1ccc2c(c1)Nc3ccccc3C2

>  <np_likeness>  (939) 
1.86

>  <chemical_class>  (939) 
Quinolines and derivatives

>  <chemical_sub_class>  (939) 
Benzoquinolines

>  <chemical_super_class>  (939) 
Organoheterocyclic compounds

>  <direct_parent_classification>  (939) 
Acridones

>  <np_classifier_pathway>  (939) 
Alkaloids

>  <np_classifier_superclass>  (939) 
Anthranilic acid alkaloids

>  <np_classifier_class>  (939) 
Acridone alkaloids

>  <np_classifier_is_glycoside>  (939) 
False

>  <organisms>  (939) 
Clematis flammula|Gentiana lactea|Glycosmis citrifolia|Glycosmis citrifolia (WILLD.) LINDL.|Glycosmis parviflora|Hortia arborea|Korolkowia sewerzowi|Swinglea glutinosa

>  <collections>  (939) 
CMAUP (cCollective molecular activities of useful plants)|KNApSaCK|Latin America dataset|NPASS|NuBBEDB|Super Natural II|UNPD (Universal Natural Products Database)|WikiData Natural Products

>  <dois>  (939) 
10.1016/J.BMC.2010.12.056|10.1021/JF902561C|10.1021/NP0005762|10.1021/np0005762|10.1248/CPB.48.65|10.1590/S0103-50532009000400008

>  <synonyms>  (939) 
1,3,5-Trihydroxy-4-methoxy-10-methyl-2-(3-methyl-2-buten-1-yl)-9(10H)-acridinone|1,3,5-trihydroxy-4-methoxy-2-(3-methylbut-2-enyl)-10-methyl-9-acridone|262359-05-7|BDBM50336478|CHEMBL463652|DTXSID801344354|Glycocitrine IV

>  <cas>  (939) 
262359-05-7

$$$$

     RDKit          2D

 28 29  0  0  0  0  0  0  0  0999 V2000
   -9.1113   -0.6373    0.0000 C   0  0  0  0  0  0  0  0  0  0  0  0
   -7.8308   -1.4184    0.0000 O   0  0  0  0  0  0  0  0  0  0  0  0
   -6.5140   -0.7000    0.0000 C   0  0  0  0  0  0  0  0  0  0  0  0
   -6.4778    0.7995    0.0000 C   0  0  0  0  0  0  0  0  0  0  0  0
   -5.1610    1.5179    0.0000 C   0  0  0  0  0  0  0  0  0  0  0  0
   -3.8805    0.7368    0.0000 C   0  0  0  0  0  0  0  0  0  0  0  0
   -2.5637    1.4552    0.0000 C   0  0  0  0  0  0  0  0  0  0  0  0
   -1.2831    0.6740    0.0000 C   0  0  0  0  0  0  0  0  0  0  0  0
    0.0336    1.3925    0.0000 C   0  0  0  0  0  0  0  0  0  0  0  0
    0.0699    2.8920    0.0000 O   0  0  0  0  0  0  0  0  0  0  0  0
    1.3142    0.6113    0.0000 C   0  0  0  0  0  0  0  0  0  0  0  0
    1.2780   -0.8883    0.0000 C   0  0  0  0  0  0  0  0  0  0  0  0
   -0.0388   -1.6067    0.0000 O   0  0  0  0  0  0  0  0  0  0  0  0
   -0.0750   -3.1062    0.0000 C   0  0  0  0  0  0  0  0  0  0  0  0
    2.5585   -1.6694    0.0000 C   0  0  0  0  0  0  0  0  0  0  0  0
    3.8753   -0.9510    0.0000 C   0  0  0  0  0  0  0  0  0  0  0  0
    5.1558   -1.7322    0.0000 O   0  0  0  0  0  0  0  0  0  0  0  0
    5.1196   -3.2317    0.0000 C   0  0  0  0  0  0  0  0  0  0  0  0
    6.4001   -4.0129    0.0000 C   0  0  0  0  0  0  0  0  0  0  0  0
    3.8028   -3.9501    0.0000 O   0  0  0  0  0  0  0  0  0  0  0  0
    3.9115    0.5486    0.0000 C   0  0  0  0  0  0  0  0  0  0  0  0
    2.6310    1.3297    0.0000 C   0  0  0  0  0  0  0  0  0  0  0  0
    2.6672    2.8293    0.0000 O   0  0  0  0  0  0  0  0  0  0  0  0
    3.9840    3.5477    0.0000 C   0  0  0  0  0  0  0  0  0  0  0  0
    4.0202    5.0472    0.0000 C   0  0  0  0  0  0  0  0  0  0  0  0
    5.2645    2.7665    0.0000 O   0  0  0  0  0  0  0  0  0  0  0  0
   -3.9167   -0.7628    0.0000 C   0  0  0  0  0  0  0  0  0  0  0  0
   -5.2334   -1.4812    0.0000 C   0  0  0  0  0  0  0  0  0  0  0  0
  1  2  1  0
  2  3  1  0
  3  4  2  0
  4  5  1  0
  5  6  2  0
  6  7  1  0
  7  8  1  0
  8  9  1  0
  9 10  2  0
  9 11  1  0
 11 12  2  0
 12 13  1  0
 13 14  1  0
 12 15  1  0
 15 16  2  0
 16 17  1  0
 17 18  1  0
 18 19  1  0
 18 20  2  0
 16 21  1  0
 21 22  2  0
 22 23  1  0
 23 24  1  0
 24 25  1  0
 24 26  2  0
  6 27  1  0
 27 28  2  0
 28  3  1  0
 22 11  1  0
M  END
>  <identifier>  (940) 
CNP0080421.0

>  <canonical_smiles>  (940) 
COC1=CC=C(CCC(=O)C2=C(OC)C=C(OC(C)=O)C=C2OC(C)=O)C=C1

>  <standard_inchi>  (940) 
InChI=1S/C21H22O7/c1-13(22)27-17-11-19(26-4)21(20(12-17)28-14(2)23)18(24)10-7-15-5-8-16(25-3)9-6-15/h5-6,8-9,11-12H,7,10H2,1-4H3

>  <standard_inchi_key>  (940) 
BTXQFWYDPHIGEW-UHFFFAOYSA-N

>  <name>  (940) 
nan

>  <iupac_name>  (940) 
[3-acetoxy-5-methoxy-4-[3-(4-methoxyphenyl)propanoyl]phenyl] acetate

>  <annotation_level>  (940) 
4

>  <total_atom_count>  (940) 
50

>  <heavy_atom_count>  (940) 
28

>  <molecular_weight>  (940) 
386.4

>  <exact_molecular_weight>  (940) 
386.13655

>  <molecular_formula>  (940) 
C21H22O7

>  <alogp>  (940) 
3.37

>  <topological_polar_surface_area>  (940) 
88.13

>  <rotatable_bond_count>  (940) 
8

>  <hydrogen_bond_acceptors>  (940) 
7

>  <hydrogen_bond_donors>  (940) 
0

>  <hydrogen_bond_acceptors_lipinski>  (940) 
7

>  <hydrogen_bond_donors_lipinski>  (940) 
0

>  <lipinski_rule_of_five_violations>  (940) 
0

>  <aromatic_rings_count>  (940) 
2

>  <qed_drug_likeliness>  (940) 
0.39

>  <formal_charge>  (940) 
0

>  <fractioncsp3>  (940) 
0.29

>  <number_of_minimal_rings>  (940) 
2

>  <van_der_walls_volume>  (940) 
nan

>  <contains_sugar>  (940) 
False

>  <contains_ring_sugars>  (940) 
False

>  <contains_linear_sugars>  (940) 
False

>  <murcko_framework>  (940) 
c1ccc(cc1)CCCc2ccccc2

>  <np_likeness>  (940) 
0.48

>  <chemical_class>  (940) 
Linear 1,3-diarylpropanoids

>  <chemical_sub_class>  (940) 
Linear 1,3-diarylpropanoids

>  <chemical_super_class>  (940) 
Phenylpropanoids and polyketides

>  <direct_parent_classification>  (940) 
Linear 1,3-diarylpropanoids

>  <np_classifier_pathway>  (940) 
Shikimates and Phenylpropanoids

>  <np_classifier_superclass>  (940) 
Flavonoids

>  <np_classifier_class>  (940) 
Chalcones

>  <np_classifier_is_glycoside>  (940) 
False

>  <organisms>  (940) 
Iryanthera laevis

>  <collections>  (940) 
Latin America dataset|NuBBEDB|WikiData Natural Products|ZINC NP

>  <dois>  (940) 
10.1016/0031-9422(80)83082-2

>  <synonyms>  (940) 
2'4'-Diacetate-46'-dimethoxydihydrochalcone

>  <cas>  (940) 
nan

$$$$

     RDKit          2D

 36 40  0  0  0  0  0  0  0  0999 V2000
   -9.4905    1.2576    0.0000 C   0  0  0  0  0  0  0  0  0  0  0  0
   -7.9915    1.3138    0.0000 C   0  0  0  0  0  0  0  0  0  0  0  0
   -7.2907    2.6400    0.0000 O   0  0  0  0  0  0  0  0  0  0  0  0
   -7.1934    0.0438    0.0000 O   0  0  0  0  0  0  0  0  0  0  0  0
   -5.6944    0.1000    0.0000 C   0  0  0  0  0  0  0  0  0  0  0  0
   -4.9936    1.4262    0.0000 C   0  0  0  0  0  0  0  0  0  0  0  0
   -3.4947    1.4823    0.0000 C   0  0  0  0  0  0  0  0  0  0  0  0
   -2.6965    0.2123    0.0000 C   0  0  0  0  0  0  0  0  0  0  0  0
   -1.9957    1.5385    0.0000 C   0  0  0  0  0  0  0  0  0  0  0  0
   -1.1976    0.2685    0.0000 C   0  0  0  0  0  0  0  0  0  0  0  0
   -0.4968    1.5947    0.0000 C   0  0  0  0  0  0  0  0  0  0  0  0
    1.0022    1.6509    0.0000 C   0  0  0  0  0  0  0  0  0  0  0  0
    1.8003    0.3808    0.0000 C   0  0  0  0  0  0  0  0  0  0  0  0
    3.2782    0.1241    0.0000 C   0  0  0  0  0  0  0  0  0  0  0  0
    4.3545    1.1689    0.0000 C   0  0  0  0  0  0  0  0  0  0  0  0
    3.2030    2.1301    0.0000 C   0  0  0  0  0  0  0  0  0  0  0  0
    5.1901    2.4146    0.0000 C   0  0  0  0  0  0  0  0  0  0  0  0
    6.6331    2.0048    0.0000 C   0  0  0  0  0  0  0  0  0  0  0  0
    6.6893    0.5059    0.0000 C   0  0  0  0  0  0  0  0  0  0  0  0
    7.9349   -0.3298    0.0000 C   0  0  0  0  0  0  0  0  0  0  0  0
    8.7706    0.9159    0.0000 C   0  0  0  0  0  0  0  0  0  0  0  0
    7.0993   -1.5755    0.0000 C   0  0  0  0  0  0  0  0  0  0  0  0
    9.1806   -1.1654    0.0000 O   0  0  0  0  0  0  0  0  0  0  0  0
    5.2810   -0.0108    0.0000 O   0  0  0  0  0  0  0  0  0  0  0  0
    3.4907   -1.3607    0.0000 C   0  0  0  0  0  0  0  0  0  0  0  0
    2.1442   -2.0217    0.0000 C   0  0  0  0  0  0  0  0  0  0  0  0
    1.0995   -0.9454    0.0000 C   0  0  0  0  0  0  0  0  0  0  0  0
    0.5411   -2.3376    0.0000 C   0  0  0  0  0  0  0  0  0  0  0  0
   -0.3995   -1.0016    0.0000 C   0  0  0  0  0  0  0  0  0  0  0  0
   -1.8984   -1.0577    0.0000 C   0  0  0  0  0  0  0  0  0  0  0  0
   -1.1003   -2.3278    0.0000 C   0  0  0  0  0  0  0  0  0  0  0  0
   -2.5992   -2.3839    0.0000 C   0  0  0  0  0  0  0  0  0  0  0  0
   -3.3974   -1.1139    0.0000 C   0  0  0  0  0  0  0  0  0  0  0  0
   -4.8963   -1.1701    0.0000 C   0  0  0  0  0  0  0  0  0  0  0  0
   -4.5807   -2.6365    0.0000 C   0  0  0  0  0  0  0  0  0  0  0  0
   -6.2856   -1.7355    0.0000 C   0  0  0  0  0  0  0  0  0  0  0  0
  1  2  1  0
  2  3  2  0
  2  4  1  0
  5  4  1  6
  5  6  1  0
  6  7  1  0
  7  8  1  0
  8  9  1  1
  8 10  1  0
 10 11  1  1
 11 12  1  0
 13 12  1  6
 13 14  1  0
 14 15  1  0
 15 16  1  1
 15 17  1  0
 17 18  1  0
 18 19  1  0
 19 20  1  1
 20 21  1  0
 20 22  1  0
 20 23  1  0
 19 24  1  0
 14 25  1  1
 25 26  1  0
 26 27  1  0
 27 28  1  6
 27 29  1  0
 29 30  1  1
 29 31  1  0
 31 32  1  0
 33 32  1  1
 33 34  1  0
 34 35  1  0
 34 36  1  0
 34  5  1  0
 33  8  1  0
 29 10  1  0
 27 13  1  0
 24 15  1  0
M  END
>  <identifier>  (941) 
CNP0116269.1

>  <canonical_smiles>  (941) 
CC(=O)O[C@@H]1CC[C@]2(C)[C@H]3CC[C@@H]4[C@@H]([C@]5(C)CC[C@@H](C(C)(C)O)O5)CC[C@@]4(C)[C@]3(C)CC[C@H]2C1(C)C

>  <standard_inchi>  (941) 
InChI=1S/C32H54O4/c1-20(33)35-25-14-16-29(6)23(27(25,2)3)13-18-31(8)24(29)11-10-21-22(12-17-30(21,31)7)32(9)19-15-26(36-32)28(4,5)34/h21-26,34H,10-19H2,1-9H3/t21-,22+,23+,24-,25-,26+,29+,30-,31-,32+/m1/s1

>  <standard_inchi_key>  (941) 
MYKPKZPRXSYQEQ-QCPMDXGFSA-N

>  <name>  (941) 
Cabraleadiol 3-acetate

>  <iupac_name>  (941) 
[(3~{R},5~{R},8~{R},9~{R},10~{R},13~{R},14~{R},17~{S})-17-[(2~{S},5~{S})-5-(1-hydroxy-1-methyl-ethyl)-2-methyl-tetrahydrofuran-2-yl]-4,4,8,10,14-pentamethyl-2,3,5,6,7,9,11,12,13,15,16,17-dodecahydro-1~{H}-cyclopenta[a]phenanthren-3-yl] acetate

>  <annotation_level>  (941) 
5

>  <total_atom_count>  (941) 
90

>  <heavy_atom_count>  (941) 
36

>  <molecular_weight>  (941) 
502.78

>  <exact_molecular_weight>  (941) 
502.40221

>  <molecular_formula>  (941) 
C32H54O4

>  <alogp>  (941) 
7.31

>  <topological_polar_surface_area>  (941) 
55.76

>  <rotatable_bond_count>  (941) 
3

>  <hydrogen_bond_acceptors>  (941) 
4

>  <hydrogen_bond_donors>  (941) 
1

>  <hydrogen_bond_acceptors_lipinski>  (941) 
4

>  <hydrogen_bond_donors_lipinski>  (941) 
1

>  <lipinski_rule_of_five_violations>  (941) 
2

>  <aromatic_rings_count>  (941) 
0

>  <qed_drug_likeliness>  (941) 
0.41

>  <formal_charge>  (941) 
0

>  <fractioncsp3>  (941) 
0.97

>  <number_of_minimal_rings>  (941) 
5

>  <van_der_walls_volume>  (941) 
507.00

>  <contains_sugar>  (941) 
False

>  <contains_ring_sugars>  (941) 
False

>  <contains_linear_sugars>  (941) 
False

>  <murcko_framework>  (941) 
O1CCCC1C2CCC3C2CCC4C5CCCCC5CCC43

>  <np_likeness>  (941) 
2.96

>  <chemical_class>  (941) 
Prenol lipids

>  <chemical_sub_class>  (941) 
Terpene glycosides

>  <chemical_super_class>  (941) 
Lipids and lipid-like molecules

>  <direct_parent_classification>  (941) 
Triterpene saponins

>  <np_classifier_pathway>  (941) 
Terpenoids

>  <np_classifier_superclass>  (941) 
Triterpenoids

>  <np_classifier_class>  (941) 
Dammarane and Protostane triterpenoids

>  <np_classifier_is_glycoside>  (941) 
False

>  <organisms>  (941) 
Aglaia abbreviata|Aglaia elaeagnoidea|Aglaia lawii|Aglaia tomentosa|Cabralea polytricha|Commiphora confusa|Commiphora dalzielii|Nothofagus pumilio

>  <collections>  (941) 
ANPDB|CMAUP (cCollective molecular activities of useful plants)|ChEBI NPs|KNApSaCK|Latin America dataset|NANPDB (Natural Products from Northern African Sources)|NuBBEDB|Super Natural II|WikiData Natural Products

>  <dois>  (941) 
10.1016/0031-9422(85)80029-7|10.1016/0040-4020(72)80138-8|10.1016/J.PHYTOCHEM.2004.04.002|10.1016/S0031-9422(00)00463-5|10.1016/S0031-9422(00)80607-X|10.1016/S0031-9422(99)00053-9|10.1021/NP100599G|10.4314/BCSE.V16I1.20951

>  <synonyms>  (941) 
(3alpha,24S)-25-hydroxy-20,24-epoxydammaran-3-yl acetate|35833-62-6|AKOS032962132|Betulafolianediol 3-acetate; Cabraleadiol 3-acetate|CHEBI:70273|CS-0023622|Cabraleadiol 3-acetate|FS-9796|HY-N2976|Q27138613|[(3R,5R,8R,9R,10R,13R,14R,17S)-17-[(2S,5S)-5-(2-hydroxypropan-2-yl)-2-methyloxolan-2-yl]-4,4,8,10,14-pentamethyl-2,3,5,6,7,9,11,12,13,15,16,17-dodecahydro-1H-cyclopenta[a]phenanthren-3-yl] acetate|cabraleadiol monoacetate

>  <cas>  (941) 
35833-62-6

$$$$

     RDKit          2D

 31 35  0  0  0  0  0  0  0  0999 V2000
   -6.6850    2.8495    0.0000 C   0  0  0  0  0  0  0  0  0  0  0  0
   -6.7142    1.3498    0.0000 C   0  0  0  0  0  0  0  0  0  0  0  0
   -8.0276    0.6252    0.0000 C   0  0  0  0  0  0  0  0  0  0  0  0
   -5.4300    0.5747    0.0000 C   0  0  0  0  0  0  0  0  0  0  0  0
   -5.4592   -0.9251    0.0000 C   0  0  0  0  0  0  0  0  0  0  0  0
   -4.1166    1.2992    0.0000 C   0  0  0  0  0  0  0  0  0  0  0  0
   -4.6021    2.7185    0.0000 C   0  0  0  0  0  0  0  0  0  0  0  0
   -2.6346    1.5309    0.0000 C   0  0  0  0  0  0  0  0  0  0  0  0
   -3.1750    0.1316    0.0000 C   0  0  0  0  0  0  0  0  0  0  0  0
   -2.9433   -1.3504    0.0000 C   0  0  0  0  0  0  0  0  0  0  0  0
   -4.1109   -2.2920    0.0000 C   0  0  0  0  0  0  0  0  0  0  0  0
   -1.5440   -1.8908    0.0000 C   0  0  0  0  0  0  0  0  0  0  0  0
   -1.1587   -3.3404    0.0000 C   0  0  0  0  0  0  0  0  0  0  0  0
    0.3391   -3.4220    0.0000 C   0  0  0  0  0  0  0  0  0  0  0  0
    0.8795   -2.0227    0.0000 C   0  0  0  0  0  0  0  0  0  0  0  0
    2.2809   -1.4879    0.0000 C   0  0  0  0  0  0  0  0  0  0  0  0
    3.4447   -2.4343    0.0000 C   0  0  0  0  0  0  0  0  0  0  0  0
    4.8462   -1.8996    0.0000 C   0  0  0  0  0  0  0  0  0  0  0  0
    5.0838   -0.4185    0.0000 C   0  0  0  0  0  0  0  0  0  0  0  0
    6.4853    0.1162    0.0000 C   0  0  0  0  0  0  0  0  0  0  0  0
    6.7229    1.5973    0.0000 C   0  0  0  0  0  0  0  0  0  0  0  0
    8.1243    2.1320    0.0000 O   0  0  0  0  0  0  0  0  0  0  0  0
    5.5591    2.5436    0.0000 C   0  0  0  0  0  0  0  0  0  0  0  0
    4.1576    2.0089    0.0000 C   0  0  0  0  0  0  0  0  0  0  0  0
    3.9200    0.5278    0.0000 C   0  0  0  0  0  0  0  0  0  0  0  0
    2.7562    1.4742    0.0000 C   0  0  0  0  0  0  0  0  0  0  0  0
    2.5185   -0.0069    0.0000 C   0  0  0  0  0  0  0  0  0  0  0  0
    1.3547    0.9394    0.0000 C   0  0  0  0  0  0  0  0  0  0  0  0
   -0.0467    0.4047    0.0000 C   0  0  0  0  0  0  0  0  0  0  0  0
   -0.2844   -1.0763    0.0000 C   0  0  0  0  0  0  0  0  0  0  0  0
   -1.5407   -0.2569    0.0000 C   0  0  0  0  0  0  0  0  0  0  0  0
  1  2  1  0
  2  3  1  0
  2  4  1  0
  4  5  1  6
  4  6  1  0
  6  7  1  6
  6  8  1  0
  9  8  1  6
  9 10  1  0
 10 11  1  6
 10 12  1  0
 12 13  1  6
 13 14  1  0
 15 14  1  6
 15 16  1  0
 16 17  1  1
 17 18  1  0
 18 19  2  0
 19 20  1  0
 20 21  1  0
 21 22  1  6
 21 23  1  0
 23 24  1  0
 24 25  1  0
 25 26  1  6
 25 27  1  0
 27 28  1  6
 28 29  1  0
 29 30  1  0
 30 31  1  6
  9  6  1  0
 30 12  1  0
 30 15  1  0
 27 16  1  0
 25 19  1  0
M  END
>  <identifier>  (942) 
CNP0150693.3

>  <canonical_smiles>  (942) 
CC(C)[C@@H](C)[C@@]1(C)C[C@@H]1[C@@H](C)[C@H]1CC[C@H]2[C@@H]3CC=C4C[C@@H](O)CC[C@]4(C)[C@H]3CC[C@]12C

>  <standard_inchi>  (942) 
InChI=1S/C30H50O/c1-18(2)20(4)30(7)17-27(30)19(3)24-10-11-25-23-9-8-21-16-22(31)12-14-28(21,5)26(23)13-15-29(24,25)6/h8,18-20,22-27,31H,9-17H2,1-7H3/t19-,20+,22-,23-,24+,25-,26-,27+,28-,29+,30+/m0/s1

>  <standard_inchi_key>  (942) 
YRPMZHRSQIFCLR-PVNJCSFGSA-N

>  <name>  (942) 
Gorgosterol

>  <iupac_name>  (942) 
(3~{S},8~{S},9~{S},10~{R},13~{R},14~{S},17~{R})-17-[(1~{S})-1-[(1~{R},2~{R})-2-[(1~{R})-1,2-dimethylpropyl]-2-methyl-cyclopropyl]ethyl]-10,13-dimethyl-2,3,4,7,8,9,11,12,14,15,16,17-dodecahydro-1~{H}-cyclopenta[a]phenanthren-3-ol

>  <annotation_level>  (942) 
5

>  <total_atom_count>  (942) 
81

>  <heavy_atom_count>  (942) 
31

>  <molecular_weight>  (942) 
426.73

>  <exact_molecular_weight>  (942) 
426.38617

>  <molecular_formula>  (942) 
C30H50O

>  <alogp>  (942) 
7.88

>  <topological_polar_surface_area>  (942) 
20.23

>  <rotatable_bond_count>  (942) 
4

>  <hydrogen_bond_acceptors>  (942) 
1

>  <hydrogen_bond_donors>  (942) 
1

>  <hydrogen_bond_acceptors_lipinski>  (942) 
1

>  <hydrogen_bond_donors_lipinski>  (942) 
1

>  <lipinski_rule_of_five_violations>  (942) 
1

>  <aromatic_rings_count>  (942) 
0

>  <qed_drug_likeliness>  (942) 
0.45

>  <formal_charge>  (942) 
0

>  <fractioncsp3>  (942) 
0.93

>  <number_of_minimal_rings>  (942) 
5

>  <van_der_walls_volume>  (942) 
453.02

>  <contains_sugar>  (942) 
False

>  <contains_ring_sugars>  (942) 
False

>  <contains_linear_sugars>  (942) 
False

>  <murcko_framework>  (942) 
C1=C2CCCCC2C3CCC4C(CCC4C3C1)CC5CC5

>  <np_likeness>  (942) 
2.84

>  <chemical_class>  (942) 
Steroids and steroid derivatives

>  <chemical_sub_class>  (942) 
Gorgostanes and derivatives

>  <chemical_super_class>  (942) 
Lipids and lipid-like molecules

>  <direct_parent_classification>  (942) 
Gorgostanes and derivatives

>  <np_classifier_pathway>  (942) 
Terpenoids

>  <np_classifier_superclass>  (942) 
Steroids

>  <np_classifier_class>  (942) 
Cholestane steroids

>  <np_classifier_is_glycoside>  (942) 
False

>  <organisms>  (942) 
Acanthaster planci|Axinella aruensis|Eunicea laciniata|Klyxum molle|Melia azedarach|Melia azedarach var. toosendan|Palythoa caribaeorum|Sarcophyton glaucum|Sarcophyton trocheliophorum|Sinularia brassica|Sinularia molesta

>  <collections>  (942) 
CMAUP (cCollective molecular activities of useful plants)|KNApSaCK|Latin America dataset|NPASS|NuBBEDB|Super Natural II|WikiData Natural Products

>  <dois>  (942) 
10.1002/MRC.2706|10.1016/0039-128X(79)90079-5|10.1016/0039-128X(80)90068-9|10.1016/0039-128X(89)90015-9|10.1016/0305-0491(82)90526-0|10.1021/NP000315S|10.1021/NP9901480|10.1071/CH9890665|10.1248/CPB.48.1087

>  <synonyms>  (942) 
(3S,8S,9S,10R,13R,14S,17R)-10,13-dimethyl-17-[(1S)-1-[(1R,2R)-2-methyl-2-[(2R)-3-methylbutan-2-yl]cyclopropyl]ethyl]-2,3,4,7,8,9,11,12,14,15,16,17-dodecahydro-1H-cyclopenta[a]phenanthren-3-ol|C19655|CHEBI:166797|Gorgosterol|LMST01060001|gorgost-5-en-3beta-ol

>  <cas>  (942) 
nan

$$$$

     RDKit          2D

 24 26  0  0  0  0  0  0  0  0999 V2000
    5.1581   -0.0715    0.0000 C   0  0  0  0  0  0  0  0  0  0  0  0
    3.6939    0.2541    0.0000 C   0  0  0  0  0  0  0  0  0  0  0  0
    3.0966    1.6300    0.0000 C   0  0  0  0  0  0  0  0  0  0  0  0
    1.6034    1.4872    0.0000 C   0  0  0  0  0  0  0  0  0  0  0  0
    2.4021    2.7569    0.0000 O   0  0  0  0  0  0  0  0  0  0  0  0
    0.4068    2.3916    0.0000 C   0  0  0  0  0  0  0  0  0  0  0  0
    0.9374    3.7946    0.0000 O   0  0  0  0  0  0  0  0  0  0  0  0
   -1.0889    2.5055    0.0000 C   0  0  0  0  0  0  0  0  0  0  0  0
   -1.4010    3.9727    0.0000 C   0  0  0  0  0  0  0  0  0  0  0  0
   -2.4087    1.7927    0.0000 C   0  0  0  0  0  0  0  0  0  0  0  0
   -3.1336    0.4795    0.0000 C   0  0  0  0  0  0  0  0  0  0  0  0
   -3.0335   -1.0172    0.0000 C   0  0  0  0  0  0  0  0  0  0  0  0
   -2.1401   -2.2221    0.0000 C   0  0  0  0  0  0  0  0  0  0  0  0
   -0.7371   -2.7528    0.0000 C   0  0  0  0  0  0  0  0  0  0  0  0
    0.7301   -2.4406    0.0000 C   0  0  0  0  0  0  0  0  0  0  0  0
    0.5452   -3.9292    0.0000 C   0  0  0  0  0  0  0  0  0  0  0  0
    2.0763   -3.1023    0.0000 O   0  0  0  0  0  0  0  0  0  0  0  0
    1.7956   -1.3849    0.0000 C   0  0  0  0  0  0  0  0  0  0  0  0
    1.2779    0.0229    0.0000 C   0  0  0  0  0  0  0  0  0  0  0  0
    2.5698   -0.7392    0.0000 C   0  0  0  0  0  0  0  0  0  0  0  0
    2.7127   -2.2324    0.0000 O   0  0  0  0  0  0  0  0  0  0  0  0
   -4.3797   -0.3556    0.0000 C   0  0  0  0  0  0  0  0  0  0  0  0
   -5.2650   -1.5664    0.0000 C   0  0  0  0  0  0  0  0  0  0  0  0
   -5.4184    0.7266    0.0000 C   0  0  0  0  0  0  0  0  0  0  0  0
  1  2  1  0
  2  3  2  0
  3  4  1  0
  4  5  1  1
  4  6  1  0
  6  7  2  0
  6  8  1  0
  8  9  1  1
  8 10  1  0
 11 10  1  6
 11 12  1  0
 12 13  1  6
 13 14  1  0
 14 15  1  0
 15 16  1  6
 15 17  1  0
 15 18  1  0
 18 19  2  0
 19 20  1  0
 20 21  2  0
 12 22  1  0
 22 23  1  0
 22 24  1  0
 20  2  1  0
 19  4  1  0
 22 11  1  0
M  END
>  <identifier>  (943) 
CNP0102980.4

>  <canonical_smiles>  (943) 
CC1=C[C@@]2(O)C(=O)[C@H](C)C[C@@H]3[C@H](CC[C@](C)(O)/C=C/2C1=O)C3(C)C

>  <standard_inchi>  (943) 
InChI=1S/C20H28O4/c1-11-8-14-13(18(14,3)4)6-7-19(5,23)10-15-16(21)12(2)9-20(15,24)17(11)22/h9-11,13-14,23-24H,6-8H2,1-5H3/b15-10+/t11-,13+,14-,19+,20+/m1/s1

>  <standard_inchi_key>  (943) 
FBVWSXCVYVNYII-MDTRRVDTSA-N

>  <name>  (943) 
nan

>  <iupac_name>  (943) 
(1~{S},3~{R},5~{R},7~{S},10~{S},11~{Z})-1,10-dihydroxy-3,6,6,10,14-pentamethyl-tricyclo[10.3.0.0^{5,7}]pentadeca-11,14-diene-2,13-dione

>  <annotation_level>  (943) 
4

>  <total_atom_count>  (943) 
52

>  <heavy_atom_count>  (943) 
24

>  <molecular_weight>  (943) 
332.44

>  <exact_molecular_weight>  (943) 
332.19876

>  <molecular_formula>  (943) 
C20H28O4

>  <alogp>  (943) 
2.59

>  <topological_polar_surface_area>  (943) 
74.60

>  <rotatable_bond_count>  (943) 
0

>  <hydrogen_bond_acceptors>  (943) 
4

>  <hydrogen_bond_donors>  (943) 
2

>  <hydrogen_bond_acceptors_lipinski>  (943) 
4

>  <hydrogen_bond_donors_lipinski>  (943) 
2

>  <lipinski_rule_of_five_violations>  (943) 
0

>  <aromatic_rings_count>  (943) 
0

>  <qed_drug_likeliness>  (943) 
0.71

>  <formal_charge>  (943) 
0

>  <fractioncsp3>  (943) 
0.70

>  <number_of_minimal_rings>  (943) 
3

>  <van_der_walls_volume>  (943) 
nan

>  <contains_sugar>  (943) 
False

>  <contains_ring_sugars>  (943) 
False

>  <contains_linear_sugars>  (943) 
False

>  <murcko_framework>  (943) 
C1=CC2C(=CCCCC3CC3CCC2)C1

>  <np_likeness>  (943) 
2.50

>  <chemical_class>  (943) 
Prenol lipids

>  <chemical_sub_class>  (943) 
Diterpenoids

>  <chemical_super_class>  (943) 
Lipids and lipid-like molecules

>  <direct_parent_classification>  (943) 
Diterpenoids

>  <np_classifier_pathway>  (943) 
Terpenoids

>  <np_classifier_superclass>  (943) 
Diterpenoids

>  <np_classifier_class>  (943) 
Lathyrane diterpenoids

>  <np_classifier_is_glycoside>  (943) 
False

>  <organisms>  (943) 
Euphorbiaceae|Jatropha weddelliana

>  <collections>  (943) 
Latin America dataset|NuBBEDB|Supernatural3|WikiData Natural Products

>  <dois>  (943) 
10.1590/S0103-50532001000200022

>  <synonyms>  (943) 
(1S,3R,5R,7S,10S,11E)-10-hydroxy-3,6,6,10,14-pentamethyl-2,13-dioxotricyclo[10.3.0.0\u2075,\u2077]pentadeca-11,14-dien-1-olate|15-Epi-4E-jatrogrossiden-tadion

>  <cas>  (943) 
nan

$$$$

     RDKit          2D

 30 33  0  0  0  0  0  0  0  0999 V2000
    3.2660    4.7926    0.0000 C   0  0  0  0  0  0  0  0  0  0  0  0
    3.3763    3.2967    0.0000 C   0  0  0  0  0  0  0  0  0  0  0  0
    2.1359    2.4532    0.0000 C   0  0  0  0  0  0  0  0  0  0  0  0
    2.2462    0.9573    0.0000 C   0  0  0  0  0  0  0  0  0  0  0  0
    3.5969    0.3048    0.0000 C   0  0  0  0  0  0  0  0  0  0  0  0
    3.7071   -1.1911    0.0000 C   0  0  0  0  0  0  0  0  0  0  0  0
    5.0578   -1.8436    0.0000 O   0  0  0  0  0  0  0  0  0  0  0  0
    5.1681   -3.3395    0.0000 C   0  0  0  0  0  0  0  0  0  0  0  0
    2.4668   -2.0346    0.0000 C   0  0  0  0  0  0  0  0  0  0  0  0
    2.5771   -3.5306    0.0000 O   0  0  0  0  0  0  0  0  0  0  0  0
    1.1161   -1.3822    0.0000 C   0  0  0  0  0  0  0  0  0  0  0  0
   -0.1243   -2.2256    0.0000 O   0  0  0  0  0  0  0  0  0  0  0  0
   -0.0140   -3.7216    0.0000 C   0  0  0  0  0  0  0  0  0  0  0  0
    0.0332   -0.3442    0.0000 C   0  0  0  0  0  0  0  0  0  0  0  0
   -1.4431   -0.6103    0.0000 C   0  0  0  0  0  0  0  0  0  0  0  0
   -1.9508   -2.0218    0.0000 C   0  0  0  0  0  0  0  0  0  0  0  0
   -3.4270   -2.2878    0.0000 C   0  0  0  0  0  0  0  0  0  0  0  0
   -4.3955   -1.1424    0.0000 C   0  0  0  0  0  0  0  0  0  0  0  0
   -5.8948   -1.0957    0.0000 O   0  0  0  0  0  0  0  0  0  0  0  0
   -6.3137    0.3446    0.0000 C   0  0  0  0  0  0  0  0  0  0  0  0
   -5.0733    1.1881    0.0000 O   0  0  0  0  0  0  0  0  0  0  0  0
   -3.8878    0.2691    0.0000 C   0  0  0  0  0  0  0  0  0  0  0  0
   -2.4116    0.5351    0.0000 C   0  0  0  0  0  0  0  0  0  0  0  0
    0.6856    1.0064    0.0000 C   0  0  0  0  0  0  0  0  0  0  0  0
    0.3173    2.4605    0.0000 C   0  0  0  0  0  0  0  0  0  0  0  0
    1.0058    0.1138    0.0000 C   0  0  0  0  0  0  0  0  0  0  0  0
   -0.3448    0.7662    0.0000 O   0  0  0  0  0  0  0  0  0  0  0  0
   -0.4551    2.2622    0.0000 C   0  0  0  0  0  0  0  0  0  0  0  0
    0.7852    3.1057    0.0000 C   0  0  0  0  0  0  0  0  0  0  0  0
   -1.8058    2.9147    0.0000 C   0  0  0  0  0  0  0  0  0  0  0  0
  1  2  2  0
  2  3  1  0
  4  3  1  6
  4  5  1  0
  5  6  1  0
  6  7  1  6
  7  8  1  0
  6  9  1  0
  9 10  2  0
  9 11  1  0
 11 12  1  1
 12 13  1  0
 11 14  1  0
 14 15  1  6
 15 16  2  0
 16 17  1  0
 17 18  2  0
 18 19  1  0
 19 20  1  0
 20 21  1  0
 21 22  1  0
 22 23  2  0
 14 24  1  0
 24 25  1  1
 11 26  1  0
 26 27  1  6
 27 28  1  0
 28 29  2  0
 28 30  1  0
 24  4  1  0
 26  4  1  0
 23 15  1  0
 22 18  1  0
M  END
>  <identifier>  (944) 
CNP0080474.1

>  <canonical_smiles>  (944) 
C=CC[C@@]12C[C@H](OC)C(=O)[C@](OC)([C@H](C3=CC=C4OCOC4=C3)[C@H]1C)[C@@H]2OC(=C)C

>  <standard_inchi>  (944) 
InChI=1S/C24H30O6/c1-7-10-23-12-19(26-5)21(25)24(27-6,22(23)30-14(2)3)20(15(23)4)16-8-9-17-18(11-16)29-13-28-17/h7-9,11,15,19-20,22H,1-2,10,12-13H2,3-6H3/t15-,19+,20+,22-,23-,24-/m1/s1

>  <standard_inchi_key>  (944) 
NSIIXMNLFMUKHP-SMXHBICTSA-N

>  <name>  (944) 
nan

>  <iupac_name>  (944) 
(1~{S},3~{S},5~{R},6~{R},7~{S},8~{R})-5-allyl-7-(1,3-benzodioxol-5-yl)-8-isopropenyloxy-1,3-dimethoxy-6-methyl-bicyclo[3.2.1]octan-2-one

>  <annotation_level>  (944) 
4

>  <total_atom_count>  (944) 
60

>  <heavy_atom_count>  (944) 
30

>  <molecular_weight>  (944) 
414.5

>  <exact_molecular_weight>  (944) 
414.20424

>  <molecular_formula>  (944) 
C24H30O6

>  <alogp>  (944) 
4.00

>  <topological_polar_surface_area>  (944) 
63.22

>  <rotatable_bond_count>  (944) 
7

>  <hydrogen_bond_acceptors>  (944) 
6

>  <hydrogen_bond_donors>  (944) 
0

>  <hydrogen_bond_acceptors_lipinski>  (944) 
6

>  <hydrogen_bond_donors_lipinski>  (944) 
0

>  <lipinski_rule_of_five_violations>  (944) 
0

>  <aromatic_rings_count>  (944) 
1

>  <qed_drug_likeliness>  (944) 
0.50

>  <formal_charge>  (944) 
0

>  <fractioncsp3>  (944) 
0.54

>  <number_of_minimal_rings>  (944) 
4

>  <van_der_walls_volume>  (944) 
nan

>  <contains_sugar>  (944) 
False

>  <contains_ring_sugars>  (944) 
False

>  <contains_linear_sugars>  (944) 
False

>  <murcko_framework>  (944) 
O1c2ccc(cc2OC1)C3CC4CCCC3C4

>  <np_likeness>  (944) 
1.75

>  <chemical_class>  (944) 
Benzodioxoles

>  <chemical_sub_class>  (944) 
Benzodioxoles

>  <chemical_super_class>  (944) 
Organoheterocyclic compounds

>  <direct_parent_classification>  (944) 
Benzodioxoles

>  <np_classifier_pathway>  (944) 
Shikimates and Phenylpropanoids

>  <np_classifier_superclass>  (944) 
Lignans

>  <np_classifier_class>  (944) 
Neolignans

>  <np_classifier_is_glycoside>  (944) 
False

>  <organisms>  (944) 
Licaria armeniaca

>  <collections>  (944) 
Latin America dataset|NuBBEDB|WikiData Natural Products

>  <dois>  (944) 
10.1016/0031-9422(81)84045-9

>  <synonyms>  (944) 
(7S8R1'S2'S3'R)-1'2'3'4'-Tetrahydro-4'-oxo - 7.3'.8.1'-neolignan

>  <cas>  (944) 
nan

$$$$

     RDKit          2D

 11 11  0  0  0  0  0  0  0  0999 V2000
   -3.8254    0.0221    0.0000 C   0  0  0  0  0  0  0  0  0  0  0  0
   -2.3278    0.1061    0.0000 C   0  0  0  0  0  0  0  0  0  0  0  0
   -1.6517    1.4450    0.0000 C   0  0  0  0  0  0  0  0  0  0  0  0
   -0.1540    1.5290    0.0000 C   0  0  0  0  0  0  0  0  0  0  0  0
    0.6675    0.2740    0.0000 C   0  0  0  0  0  0  0  0  0  0  0  0
    2.1652    0.3579    0.0000 C   0  0  0  0  0  0  0  0  0  0  0  0
    2.9867   -0.8971    0.0000 C   0  0  0  0  0  0  0  0  0  0  0  0
    2.8413    1.6969    0.0000 C   0  0  0  0  0  0  0  0  0  0  0  0
   -0.0086   -1.0650    0.0000 C   0  0  0  0  0  0  0  0  0  0  0  0
    0.8129   -2.3200    0.0000 O   0  0  0  0  0  0  0  0  0  0  0  0
   -1.5062   -1.1490    0.0000 C   0  0  0  0  0  0  0  0  0  0  0  0
  1  2  1  0
  2  3  2  0
  3  4  1  0
  4  5  2  0
  5  6  1  0
  6  7  1  0
  6  8  1  0
  5  9  1  0
  9 10  1  0
  9 11  2  0
 11  2  1  0
M  END
>  <identifier>  (945) 
CNP0135128.0

>  <canonical_smiles>  (945) 
CC1=CC=C(C(C)C)C(O)=C1

>  <standard_inchi>  (945) 
InChI=1S/C10H14O/c1-7(2)9-5-4-8(3)6-10(9)11/h4-7,11H,1-3H3

>  <standard_inchi_key>  (945) 
MGSRCZKZVOBKFT-UHFFFAOYSA-N

>  <name>  (945) 
THYMOL

>  <iupac_name>  (945) 
2-isopropyl-5-methyl-phenol

>  <annotation_level>  (945) 
5

>  <total_atom_count>  (945) 
25

>  <heavy_atom_count>  (945) 
11

>  <molecular_weight>  (945) 
150.22

>  <exact_molecular_weight>  (945) 
150.10447

>  <molecular_formula>  (945) 
C10H14O

>  <alogp>  (945) 
2.82

>  <topological_polar_surface_area>  (945) 
20.23

>  <rotatable_bond_count>  (945) 
1

>  <hydrogen_bond_acceptors>  (945) 
1

>  <hydrogen_bond_donors>  (945) 
1

>  <hydrogen_bond_acceptors_lipinski>  (945) 
1

>  <hydrogen_bond_donors_lipinski>  (945) 
1

>  <lipinski_rule_of_five_violations>  (945) 
0

>  <aromatic_rings_count>  (945) 
1

>  <qed_drug_likeliness>  (945) 
0.65

>  <formal_charge>  (945) 
0

>  <fractioncsp3>  (945) 
0.40

>  <number_of_minimal_rings>  (945) 
1

>  <van_der_walls_volume>  (945) 
157.87

>  <contains_sugar>  (945) 
False

>  <contains_ring_sugars>  (945) 
False

>  <contains_linear_sugars>  (945) 
False

>  <murcko_framework>  (945) 
c1ccccc1

>  <np_likeness>  (945) 
0.35

>  <chemical_class>  (945) 
Prenol lipids

>  <chemical_sub_class>  (945) 
Monoterpenoids

>  <chemical_super_class>  (945) 
Lipids and lipid-like molecules

>  <direct_parent_classification>  (945) 
Aromatic monoterpenoids

>  <np_classifier_pathway>  (945) 
Terpenoids

>  <np_classifier_superclass>  (945) 
Monoterpenoids

>  <np_classifier_class>  (945) 
Menthane monoterpenoids

>  <np_classifier_is_glycoside>  (945) 
False

>  <organisms>  (945) 
Abies sp.|Abrus pulchellus|Acanthospermum australe|Aceriphyllum rossii|Achillea abrotanoides|Achillea ageratum|Achillea arabica|Achillea biebersteinii|Achillea cuneatiloba|Achillea grandifolia|Achillea millefolium|Achillea pannonica|Acinos alpinus|Acmella ciliata|Acorus tatarinowii|Aeollanthus pubescens|Aframomum melegueta|Agastache rugosa|Agnorhiza bolanderi|Ajania fastigiata|Alangium premnifolium|Aletris farinosa|Alicyclobacillus acidocaldarius|Alligator mississippiensis|Alloascoidea hylecoeti|Aloysia citriodora|Aloysia citrodora|Aloysia triphylla|Alpinia conchigera|Alpinia galanga|Alpinia latilabris|Alpinia zerumbet|Amomum compactum|Amomum krervanh|Amphimedon terpenensis|Anabasis setifera|Anaxagorea clavata|Anchusa strigosa|Anemopsis californica|Anethum graveolens|Angelica Pubescens|Angelica pubescens|Angelica pubescens f.biserrata|Angelica tarokoensis|Annulusmagnus triseptatus|Anthemis aciphylla|Anthemis aciphylla BOISS.var.discoidea BOISS|Anthocercis genistoides|Antiphiona fragrans|Aphanamixis polystachya|Apiaceae|Apium graveolens|Arabidopsis thaliana|Araujia sericifera|Aria pallescens|Aristolochiaceae|Armillaria tabescens|Arnica montana|Arnica nevadensis|Artemisia Annua|Artemisia ammaniana|Artemisia annua|Artemisia capillaris|Artemisia herba-alba|Artemisia judaica|Artemisia ludoviciana|Artemisia maritima|Artemisia monogyna|Artemisia sericea|Artemisia spicigera|Artemisia xerophytica|Asarum asperum|Asarum fudsinoi|Asarum hatushimae|Asarum heterotropoides|Asarum sieboldii|Asarum simile|Asclepias speciosa|Ascocoryne sarcoides|Asiasarum heterotropoides|Asiasarum sieboldii|Astilbe odontophylla|Atherosperma moschatum|Athrixia elata|Athroisma gracile|Atractylodes lancea|Baccharis dracunculifolia|Backhousia angustifolia|Backhousia myrtifolia|Baeckea frutescens|Baeckea frutescens L.|Barbarea vulgaris subsp. arcuata|Bassia butyracea|Berteroa incana|Beyeria brevifolia|Bidens bipinnata|Bombax ceiba|Boronia bipinnata|Boronia ledifolia|Boronia thujona|Bragantia wallichii|Brucea javanica|Brucea mollis|Bupleurum chinense|Bupleurum fruticescens|Bupleurum fruticosum|Bursaria spinosa|Calamintha sp.|Calea hispida|Calea oxylepis|Calea triantha|Calea villosa|Callicarpa bodinieri|Callitris columellaris|Callitris glaucophylla|Callitris hugelii|Cantinoa mutabilis|Capparis spinosa|Carissa opaca|Carum carvi|Casearia esculenta|Catha edulis|Centaurea bornmuelleri|Centranthus longiflorus ssp. longiflorus|Chamaecyparis obtusa var. formosana|Chamomilla recutita|Chenopodium ambrosioides|Chenopodium sp.|Chiliadenus lopadusanus|Chloranthus tianmushanensis|Chresta sphaerocephala|Chromolaena odorata|Chromolaena pulchella|Chrysanthemum indicum|Chrysanthemum morifolium|Chrysanthemum viscidehirtum|Chrysanthemum x morifolium|Chrysanthemum zawadskii|Chrysopogon zizanioides|Cinnamomum aromaticum|Cinnamomum oliveri|Cinnamon|Cirsium microspicatum|Cistus creticus|Citrullus lanatus|Citrus Reticulata|Citrus Sinensis|Citrus aurantiifolia|Citrus maxima|Citrus reticulata|Citrus reticulate|Citrus sinensis L.|Citrus unshiu|Citrus × deliciosa|Citrus ×iyo|Cladonia evansii|Cladonia gonecha|Clematis chinensis|Clinopodium barbatum|Clinopodium brownei|Clinopodium carolinianum|Clinopodium chilense|Clinopodium congestum|Clinopodium gilliesii|Clinopodium grandiflorum|Clonostachys rosea|Coccus fagi|Coleus amboinicus|Colobocentrotus atratus|Condea verticillata|Conobea scoparioides|Coriandrum sativum|Coridothymus capitatus|Cornulaca monacantha|Corydalis flabellata|Corydalis stricta|Crocus asturicus|Cryptocarya agathophylla|Cryptocarya triplinervis|Cuminum cyminum|Curcuma amada|Curcuma amanda Roxb|Curcuma kwangsiensis|Curcuma phaeocaulis|Curcuma pierreana|Curcuma wenyujin|Curcuma zedoaria|Cyathocline purpurea|Cyerce cristallina|Cymbopogon schoenanthus|Cyperus rotundus|Darwinia citriodora|Daucus carota|Delphinium andersoni|Dendranthema sp.|Dendrosenecio kilimanjari|Dichapetalum madagascariense|Dimocarpus fumatus|Diospyros crassiflora|Diphasia angolensis|Diplotaenia cachrydifolia|Dipterocarpus alatus|Dolomiaea souliei|Doriopsilla albopunctata|Doryphora sassafras|Dracocephalum moldavicum|Drosera peltata|Duboisia myoporoides|Duhaldea cappa|Duhaldea nervosa|Dysphania ambrosioides|Echinophora tenuifolia|Echinops amplexicaulis|Echites hirsuta|Elettaria cardamomum|Elsholtzia ciliata|Elsholtzia fruticosa|Elsholtzia pilosa|Elsholtzia splendens|Epaltes gariepina|Ephedra sinica|Epimedium davidii|Epimedium versicolor|Eremophila mitchellii|Eremophila oppositifolia|Erica carnea|Erysimum odoratum|Etlingera elatior|Eucalyptus bridgesiana|Eucalyptus caesia|Eucalyptus camaldulensis|Eucalyptus camfieldii|Eucalyptus dealbata|Eucalyptus dives|Eucalyptus flocktoniae|Eucalyptus polyanthemos|Eucalyptus polybractea|Eupatorium cannabinum|Eupatorium capillifolium|Eupatorium fortunei|Eupatorium pauciflorum|Euphorbia officinarum subsp. echinus|Eupolyphaga sinensis|Eusynstyela misakiensis|Eutypella scoparia|Fagara ailanthoides|Fagara leprieurii|Ferula ovina|Ficus formosana|Flacourtia inermis|Flindersia schottiana|Foeniculum vulgare|Frullania tamarisci|Fusarium gibbosum|Galenia africana|Gardenia fosbergii|Gaultheria mucronata|Geigeria acaulis|Geigeria burkei|Geigeria rigida|Geijera parviflora|Ginkgo sp.|Globba malaccensis|Gnidia lamprantha|Gossypium hirsutum|Habenaria digitata|Hedycarya angustifolia|Helenium alternifolium|Helichrysum amorginum|Helichrysum italicum|Heracleum antasiaticum|Heteranthemis viscidehirta|Heterotheca inuloides|Hofmeisteria schaffneri|Homo sapiens|Houttuynia cordata|Humulus japonicus|Humulus lupulus|Huperzia lucidula|Hydnocarpus venenata|Hyptis mutabilis|Hyptis pectinata|Hyptis spicigera|Hyptis suaveolens|Hyssopus officinalis|Hyssopus seravschanicus|Hysterobaeckea behrii|Ilex affinis|Ilex amara|Illicium verum|Inula nervosa|Isodon japonicus|Isodon kameba|Isodon melissoides|Jateorhiza sp.|Juglans nigra|Juniperus excelsa|Juniperus gamboana|Juniperus jaliscana|Juniperus monticola|Juniperus scopulorum|Justicia ghiesbreghtiana|Kaempferia pulchra|Knightia excelsa|Labiatae|Lactarius scrobiculatus|Lagarostrobos franklinii|Laggera alata|Laggera decurrens|Lamiaceae|Laurencia distichophylla|Laurilia sulcata|Lavandula angustifolia|Lavandula latifolia|Leonurus glaucescens|Lepidium draba|Levisticum officinale|Ligusticum chuanxiong|Ligusticum sinense|Limnophila repens|Linum capitatum|Lippia abyssinica|Lippia adoensis|Lippia alnifolia|Lippia chevalieri|Lippia gracilis|Lippia grata|Lippia graveolens|Lippia multiflora|Lippia origanoides|Lippia sidoides|Lippia sp.|Lycopodium casuarinoides|Lycopodium fawcettii|Lysimachia clethroides|Maba buxifolia|Machilus acuminatissima|Macleaya cordata|Maesopsis eminii|Magnolia liliflora|Magnolia liliiflora|Malus domestica|Malus pumila|Mammea suriga|Mangifera indica|Manilkara hexandra|Matricaria chamomilla|Medicago truncatula|Melaleuca rhaphiophylla|Mentha arvensis|Mentha canadensis|Mentha longifolia|Mentha piperita|Mentha pulegium|Mentha spicata|Mentha suaveolens|Mesosphaerum pectinatum|Mespilodaphne pretiosa|Micromeria juliana|Micromeria nervosa|Micromeria pineolens|Mikania banisteriae|Mikania congesta|Mikania cordifolia|Mikania goyazensis|Mikania luetzelburgii|Mikania parviflora|Mikania pohlii|Mimosa tenuiflora|Minthostachys glabrescens|Minthostachys mollis|Molopospermum peloponnesiacum|Monarda citriodora|Monarda fistulosa|Monarda punctata|Moringa stenopetala|Morus alba|Mosla Chinensis|Mosla cavaleriei|Mosla chinensis|Mourera fluviatilis|Murraya exotica|Murraya paniculata|Mycale cecilia|Myristica fragrans|Nemalion vermiculare|Nepeta annua|Nepeta racemosa|Nidula candida|Nigella sativa|Nigella sativa L|Ocimum basilicum|Ocimum carnosum|Ocimum gratissimum|Ocimum selloi|Ocimum spp.|Odixia angusta|Oldenlandia diffusa|Oleum ocimi gratissimi|Ophiocoma scolopendrina|Origanum acutidens|Origanum adanense|Origanum cordifolium|Origanum dictamnus|Origanum hypericifolium|Origanum intercedens|Origanum minutiflorum|Origanum onites|Origanum paniculatum|Origanum sipyleum|Origanum sp.|Origanum syriacum|Origanum vulgare|Origanum vulgaris|Otostegia fruticosa|Paederia scandens|Paeonia anomala|Paeonia delavayi|Paeonia lactiflora|Paeonia veitchii|Paepalanthus robustus|Parmelia pseudoreticulata|Pecten jacobaeus|Pegolettia oxyodonta|Pelargonium quercifolium|Pelargonium ternifolium|Peltigera canina|Penicillium citreonigrum|Penstemon acuminatus|Pericarpium citri|Pericarpium citri reticulatae|Pericarpium citri reticulatae viride|Perilla frutescens|Pernettya mucronata|Pertusaria communis|Phaulopsis imbricata|Pheidole pallidula|Phialocephala fortinii|Phyla nodiflora|Phyllanthus emblica|Physcia aegialita|Picradeniopsis schaffneri|Pimenta dioica|Pimenta racemosa|Pimpinella anisum|Piper aduncum|Piper angustifolium|Piper auritum|Piper crassinervium|Piper nigrum|Piper sintenense|Pistacia vera|Plectranthus cylindraceus|Plectranthus montanus|Polygala crotalarioides|Polygala senega|Polyopes affinis|Portulaca okinawensis|Prosopis glandulosa|Prunus laurocerasus|Prunus persica|Pseudodistoma megalarva|Pseudopterogorgia kallos|Pteris palmiformis|Pteris prolifera|Pterocarpus grandiflorus|Ptychotis ajowan|Pulicaria arabica|Pulicaria undulata|Pyracantha fortuneana|Pyrosoma giganteum|Pyrrosia davidii|Pyura sacciformis|Quercus aegilops|Quercus sessiliflora|Radix chuanxiong|Radix smilacis|Rhanterium epapposum|Rhizobium phaseoli|Rhizoma chuanxiong|Rhizophora mangle|Rhodiola rosea|Rhodiola rosea L.|Ricciocarpos natans|Robinia pseudoacacia|Rosmarinus officinalis|Rumphella aggregata|Salacia madagascariensis|Salvadora persica|Salvia absconditiflora|Salvia caespitosa|Salvia fruticosa|Salvia officinalis|Salvia sclarea|Salvia triloba|Sambucus nigra|Santalum lanceolatum|Santolina insularis|Sarcophyton glaucum|Satureja bachtiarica|Satureja cilicica|Satureja cuneifolia|Satureja montana|Satureja sp.|Satureja spicigera|Satureja thymbra|Saussurea carthamoides|Saussurea involucrata|Saussurea lappa|Scutellaria barbata|Scutellaria lateriflora|Scutellaria violacea|Securidaca inappendiculata|Senecio squalidus|Senegalia tenuifolia|Senna alexandrina|Senna sophera|Seriphidium cinum|Sesbania punicea|Sideritis athoa|Sideritis chamaedryfolia|Sideritis cretica|Sideritis curvidens|Sideritis hirsuta|Sideritis leucantha|Sideritis romana|Sideritis syriaca|Simira eliezeriana|Solanum acaule|Sphaeranthus confertifolius|Sphagneticola trilobata|Spirastrella inconstans|Spodoptera eridania|Spongia maynardii|Stachys obliqua|Stellera chamaejasme|Stenostomum lucidum|Stereocaulon ramulosum|Stevia satureiaefolia|Stillingia sanguinolenta|Streptomyces althioticus|Streptomyces griseovariabilis|Stypopodium flabelliforme|Swertia delavayi|Syringa komarowi|Syzygium aromaticum|Tagetes minuta|Tanacetum annuum|Tanacetum parthenium|Tanacetum sinaicum|Tanacetum sp.|Tanacetum vulgare|Taraxacum udum|Taxodium mucronatum|Terminalia bentzoe|Teucrium asiaticum|Teucrium cyprium|Teucrium kotschyanum|Teucrium leucocladum|Teucrium luteum|Teucrium micropodioides|Teucrium oxylepis|Teucrium pseudoscorodonia|Teucrium salviastrum|Teucrium scorodonia|Teucrium trifidum|Thalictrum fortunei|Thermotoga maritima|Thymbra capitata|Thymbra spicata|Thymus|Thymus Carmanicus|Thymus Vulgaris|Thymus X-porlock|Thymus bovei|Thymus broussonetii|Thymus capitatus|Thymus carnosus|Thymus cilicicus|Thymus daghestanicus|Thymus eigii|Thymus eriocalyx|Thymus fedtschenkoi|Thymus funkii|Thymus karamarianicus|Thymus kosteletzkyanus|Thymus kotschyanus|Thymus longicaulis|Thymus longiflorus|Thymus magnus|Thymus maroccanus|Thymus marschallianus|Thymus membranaceus|Thymus migricus|Thymus nummularius|Thymus orespedanus|Thymus pannonicus|Thymus pastoralis|Thymus pectinatus|Thymus piperella|Thymus pubescens|Thymus pulegioides|Thymus quinquecostatus|Thymus quinquecostatus var. przewalskii|Thymus quiquecostatus|Thymus revolutus|Thymus riatarum|Thymus saturejoides|Thymus schimperi|Thymus serpyllum|Thymus sibthorpii|Thymus sp.|Thymus thracicus|Thymus vulgaris|Thymus vulgaris L.|Thymus zygioides|Thymus zygis|Torulopsis magnoliae|Trachyspermum ammi|Trapa bispinosa|Trichocolea tomentella|Tricholoma scalpturatum|Trifolium medium|Trigonella foenum-graecum|Trypetheliopsis boninensis|Umbellularia californica|Uncaria glabrata|Uvaria chamae|Vaccinium ashei|Vaccinium corymbosum|Vaccinium virgatum|Vaccinium vitis-idaea|Valeriana officinalis|Vallota purpurea|Vernonia angulifolia|Viburnum fur|Vismia jefensis|Vitex agnus-castus|Vitex madiensis|Vogtia annua|Xanthium orientale|Xanthium strumarium|Xanthorrhoea preissii|Xenia puertogalerae|Xylopia aromatica|Xylopia sericea|Zanthoxylum ovalifolium|Zataria multiflora|Zea mays|Zieria smithii|Zingiber|Zingiber mioga|Zingiber officinale|Ziziphora hispanica|basil|bellis perennis|clove|common myrtle|liquorice|maize|marjoram|rooibos|árnica

>  <collections>  (945) 
ANPDB|AnalytiCon Discovery NPs|Australian natural products|BIOFACQUIM|CMAUP (cCollective molecular activities of useful plants)|ChEBI NPs|DrugBankNP|ETM (Ethiopian Traditional Medicine) DB|FooDB|InflamNat|InterBioScreen Ltd|KNApSaCK|Latin America dataset|NANPDB (Natural Products from Northern African Sources)|NPACT|NPASS|NPDBEjeCol|NPEdia|NuBBEDB|PeruNPDB|Phenol-explorer|Phyto4Health|PhytoLab phyproof® Reference Substances|PubChem NPs|ReSpect|Super Natural II|TCMDB-Taiwan (Traditional Chinese Medicine database)|TCMID (Traditional Chinese Medicine Integrated Database)|TIPdb (database of Taiwan indigenous plants)|TPPT (Toxic Plants–PhytoToxins)|UEFS (Natural Products Databse of the UEFS)|UNPD (Universal Natural Products Database)|VietHerb|Watermelon|WikiData Natural Products|ZINC NP

>  <dois>  (945) 
10.1002/(SICI)1099-1026(199611)11:6<367::AID-FFJ598>3.0.CO;2-R|10.1002/(SICI)1099-1026(199705)12:3<211::AID-FFJ622>3.0.CO;2-5|10.1002/(SICI)1099-1026(199801/02)13:1<26::AID-FFJ686>3.0.CO;2-P|10.1002/(SICI)1099-1026(1998070)13:4<245::AID-FFJ736>3.0.CO;2-J|10.1002/(SICI)1099-1026(199901/02)14:1<55::AID-FFJ784>3.0.CO;2-Q|10.1002/(SICI)1099-1026(199911/12)14:6<405::AID-FFJ853>3.0.CO;2-M|10.1002/(SICI)1099-1573(199605)10:3<248::AID-PTR807>3.0.CO;2-9|10.1002/1099-1026(200009/10)15:5<339::AID-FFJ922>3.0.CO;2-H|10.1002/1099-1026(200011/12)15:6<373::AID-FFJ923>3.0.CO;2-9|10.1002/1099-1026(200011/12)15:6<413::AID-FFJ931>3.0.CO;2-H|10.1002/9780470744307.gat218|10.1002/ARDP.19662990514|10.1002/CBDV.201000034|10.1002/CBDV.201100039|10.1002/CBER.19470800613|10.1002/CJOC.201180379|10.1002/FFJ.1036|10.1002/FFJ.2730010304|10.1002/FFJ.2730020106|10.1002/FFJ.2730020110|10.1002/FFJ.2730050307|10.1002/FFJ.2730100317|10.1002/FFJ.2730100408|10.1002/FFJ.2730100609|10.1002/FFJ.3227|10.1002/FFJ.984|10.1002/HLCA.200690059|10.1002/JCCS.196000025|10.1002/JHRC.1240200910|10.1002/JLAC.18460580107|10.1002/JSFA.2740430304|10.1002/PTR.1238|10.1002/PTR.2137|10.1002/PTR.2650010304|10.1002/PTR.2650040210|10.1002/PTR.2650040606|10.1002/PTR.2650090215|10.1002/PTR.7003|10.1002/PTR.979|10.1002/biuz.19840140514|10.1007/BF00568252|10.1007/BF00568256|10.1007/BF00575062|10.1007/BF00576231|10.1007/BF00579141|10.1007/BF00579167|10.1007/BF00598430|10.1007/BF00599279|10.1007/BF00629663|10.1007/BF00629664|10.1007/BF00629778|10.1007/BF00629779|10.1007/BF01959201|10.1007/BF01961467|10.1007/BF02236436|10.1007/BF02858924|10.1007/BF02860163|10.1007/BF02907824|10.1007/S002170050405|10.1007/S11418-007-0175-2|10.1016/0031-9422(74)85146-0|10.1016/0031-9422(80)80207-X|10.1016/0031-9422(80)85064-3|10.1016/0031-9422(81)84031-9|10.1016/0031-9422(81)85188-6|10.1016/0031-9422(81)85270-3|10.1016/0031-9422(82)80140-4|10.1016/0031-9422(82)83188-9|10.1016/0031-9422(82)85265-5|10.1016/0031-9422(83)85052-3|10.1016/0031-9422(88)83114-5|10.1016/0031-9422(89)80200-6|10.1016/0031-9422(89)80289-4|10.1016/0031-9422(89)85055-1|10.1016/0031-9422(90)85109-S|10.1016/0031-9422(90)85421-B|10.1016/0031-9422(91)83197-S|10.1016/0031-9422(91)83730-9|10.1016/0031-9422(92)83136-M|10.1016/0031-9422(93)80026-O|10.1016/0031-9422(95)00183-8|10.1016/0031-9422(95)00347-A|10.1016/0305-1978(84)90011-5|10.1016/0305-1978(92)90070-T|10.1016/0305-1978(93)90031-L|10.1016/0305-1978(94)90086-8|10.1016/0305-1978(95)00094-1|10.1016/0378-8741(89)90113-X|10.1016/0378-8741(91)90062-I|10.1016/0378-8741(91)90063-J|10.1016/0378-8741(94)90094-9|10.1016/J.APJTM.2016.06.009|10.1016/J.BSE.2003.12.009|10.1016/J.BSE.2010.01.009|10.1016/J.FOODRES.2012.03.015|10.1016/J.INDCROP.2014.11.043|10.1016/J.JEP.2010.07.009|10.1016/J.JEP.2012.11.045|10.1016/J.JPLPH.2018.10.006|10.1016/J.PHYMED.2010.03.020|10.1016/J.PHYMED.2011.12.003|10.1016/J.PHYTOCHEM.2005.09.020|10.1016/J.PHYTOCHEM.2007.11.006|10.1016/J.PHYTOCHEM.2008.01.011|10.1016/J.PHYTOCHEM.2009.07.031|10.1016/S0021-9673(00)00231-4|10.1016/S0021-9673(01)82096-3|10.1016/S0021-9673(97)00276-8|10.1016/S0021-9673(99)00071-0|10.1016/S0031-6865(97)00023-X|10.1016/S0031-9422(00)80081-3|10.1016/S0031-9422(00)80112-0|10.1016/S0031-9422(00)80325-8|10.1016/S0031-9422(00)80558-0|10.1016/S0031-9422(00)80757-8|10.1016/S0031-9422(00)80814-6|10.1016/S0031-9422(00)81692-1|10.1016/S0031-9422(00)81855-5|10.1016/S0031-9422(00)82443-7|10.1016/S0031-9422(00)82509-1|10.1016/S0031-9422(00)90497-7|10.1016/S0031-9422(00)90514-4|10.1016/S0031-9422(00)97082-1|10.1016/S0031-9422(00)97892-0|10.1016/S0031-9422(02)00004-3|10.1016/S0031-9422(02)00477-6|10.1016/S0031-9422(82)85040-1|10.1016/S0031-9422(82)85073-5|10.1016/S0031-9422(97)00737-1|10.1016/S0031-9422(97)00795-4|10.1016/S0040-4039(97)00761-2|10.1016/S0278-6915(01)00078-3|10.1016/S0305-1978(00)00062-4|10.1016/S0367-326X(00)00154-4|10.1016/S0367-326X(01)00327-6|10.1016/S0378-8741(00)00229-4|10.1016/S0378-8741(01)00238-0|10.1016/S0378-8741(02)00318-5|10.1016/S0378-8741(97)00088-3|10.1016/S0378-8741(97)01528-6|10.1016/S0731-7085(98)00300-8|10.1016/S0925-5214(02)00250-8|10.1016/S0944-7113(11)80031-0|10.1016/S0944-7113(11)80046-2|10.1016/j.jep.2008.05.031|10.1016/j.jep.2010.07.009|10.1017/S0022149X00033812|10.1017/s0022149x00033812|10.1021/ACS.JAFC.5B00546|10.1021/JF00025A025|10.1021/JF00056A055|10.1021/JF00062A024|10.1021/JF00068A009|10.1021/JF0402633|10.1021/JF051513Y|10.1021/JF60200A011|10.1021/JF60206A038|10.1021/JF60214A042|10.1021/JF60218A022|10.1021/JF950540T|10.1021/JF9603893|10.1021/JF970031M|10.1021/JF970110Y|10.1021/JF9708296|10.1021/NP000124P|10.1021/NP0101191|10.1021/NP50009A015|10.1021/NP50017A018|10.1021/NP50034A044|10.1021/NP50039A037|10.1021/NP50040A037|10.1021/NP50040A040|10.1021/NP50041A038|10.1021/NP50044A019|10.1021/NP50044A039|10.1021/NP50045A046|10.1021/NP50047A039|10.1021/NP50048A039|10.1021/NP50050A053|10.1021/NP50050A054|10.1021/NP50051A029|10.1021/NP50062A008|10.1021/NP990376U|10.1021/np50017a018|10.1039/A707083G|10.1055/S-0028-1099434|10.1055/S-0028-1099547|10.1055/S-0028-1100058|10.1055/S-0028-1100098|10.1055/S-0029-1243136|10.1055/S-2003-37032|10.1055/S-2004-832654|10.1055/S-2006-957640|10.1055/S-2006-957707|10.1055/S-2006-957814|10.1055/S-2006-957911|10.1055/S-2006-957914|10.1055/S-2006-958061|10.1055/S-2006-959548|10.1055/S-2006-959714|10.1055/S-2006-959755|10.1055/S-2006-960081|10.1055/S-2006-960936|10.1055/S-2006-961401|10.1055/S-2006-961490|10.1055/S-2006-962399|10.1055/S-2006-962452|10.1055/S-2006-962540|10.1055/S-2006-962640|10.1055/S-2006-962781|10.1055/S-2007-969050|10.1055/S-2007-969172|10.1055/S-2007-969176|10.1055/S-2007-969372|10.1055/S-2007-969591|10.1055/S-2007-969599|10.1055/S-2007-969862|10.1055/S-2007-969917|10.1055/S-2007-970006|10.1055/S-2008-1081349|10.1076/1388-0209(200004)3821-1FT106|10.1076/PHBI.35.3.218.13295|10.1076/PHBI.40.4.263.8465|10.1080/0972060X.2014.895210|10.1080/10412905.1989.9697753|10.1080/10412905.1990.9697808|10.1080/10412905.1990.9697881|10.1080/10412905.1991.9697905|10.1080/10412905.1991.9697909|10.1080/10412905.1991.9697923|10.1080/10412905.1991.9697952|10.1080/10412905.1991.9697953|10.1080/10412905.1991.9697971|10.1080/10412905.1991.9697982|10.1080/10412905.1991.9697984|10.1080/10412905.1991.9697994|10.1080/10412905.1991.9700495|10.1080/10412905.1992.9698034|10.1080/10412905.1992.9698035|10.1080/10412905.1992.9698054|10.1080/10412905.1992.9698061|10.1080/10412905.1992.9698067|10.1080/10412905.1992.9698070|10.1080/10412905.1992.9698080|10.1080/10412905.1992.9698084|10.1080/10412905.1992.9698088|10.1080/10412905.1992.9698091|10.1080/10412905.1992.9698109|10.1080/10412905.1992.9698123|10.1080/10412905.1992.9698128|10.1080/10412905.1992.9698129|10.1080/10412905.1992.9698136|10.1080/10412905.1992.9698138|10.1080/10412905.1992.9698152|10.1080/10412905.1993.9698169|10.1080/10412905.1993.9698174|10.1080/10412905.1993.9698176|10.1080/10412905.1993.9698181|10.1080/10412905.1993.9698205|10.1080/10412905.1993.9698206|10.1080/10412905.1993.9698218|10.1080/10412905.1993.9698222|10.1080/10412905.1993.9698230|10.1080/10412905.1993.9698250|10.1080/10412905.1993.9698253|10.1080/10412905.1993.9698255|10.1080/10412905.1993.9698275|10.1080/10412905.1993.9698294|10.1080/10412905.1993.9698303|10.1080/10412905.1993.9698309|10.1080/10412905.1994.9698320|10.1080/10412905.1994.9698344|10.1080/10412905.1994.9698359|10.1080/10412905.1994.9698404|10.1080/10412905.1994.9698406|10.1080/10412905.1994.9698409|10.1080/10412905.1994.9698427|10.1080/10412905.1994.9698440|10.1080/10412905.1994.9698443|10.1080/10412905.1994.9698447|10.1080/10412905.1994.9699348|10.1080/10412905.1994.9699354|10.1080/10412905.1994.9699355|10.1080/10412905.1995.9698478|10.1080/10412905.1995.9698479|10.1080/10412905.1995.9698499|10.1080/10412905.1995.9698501|10.1080/10412905.1995.9698505|10.1080/10412905.1995.9698508|10.1080/10412905.1995.9698516|10.1080/10412905.1995.9698522|10.1080/10412905.1995.9698524|10.1080/10412905.1995.9698549|10.1080/10412905.1995.9698558|10.1080/10412905.1995.9698577|10.1080/10412905.1995.9700523|10.1080/10412905.1996.9700554|10.1080/10412905.1996.9700562|10.1080/10412905.1996.9700567|10.1080/10412905.1997.9700721|10.1080/10412905.1997.9700727|10.1080/10412905.1997.9700757|10.1080/10412905.1997.9700785|10.1080/10412905.1997.9700812|10.1080/10412905.1998.9700844|10.1080/10412905.1998.9700854|10.1080/10412905.1998.9700913|10.1080/10412905.1998.9700975|10.1080/10412905.1998.9701001|10.1080/10412905.1999.9701070|10.1080/10412905.1999.9701080|10.1080/10412905.1999.9701113|10.1080/10412905.1999.9701126|10.1080/10412905.1999.9701147|10.1080/10412905.1999.9701169|10.1080/10412905.1999.9701184|10.1080/10412905.2000.9699524|10.1080/10412905.2000.9699569|10.1080/10412905.2000.9712058|10.1080/10412905.2000.9712155|10.1080/10412905.2000.9712167|10.1080/10412905.2001.9699592|10.1080/10412905.2001.9699622|10.1080/10412905.2001.9699659|10.1080/10412905.2005.9698829|10.1080/1057563021000040790|10.1080/10826079508009224|10.1080/14786410500528478|10.1080/14786411003792140|10.1088/1752-7155/8/1/014001|10.1093/OXFORDJOURNALS.AOB.A086958|10.1093/pcp/pcn183|10.1094/PHYTO.2000.90.7.710|10.1111/J.1365-2621.1985.TB13419.X|10.1111/J.1365-2672.1994.TB01661.X|10.1111/J.1439-0434.1986.TB00902.X|10.1111/J.1469-8137.2006.01842.X|10.1111/j.1469-8137.2006.01842.x|10.1186/1472-6882-6-39|10.1246/NIKKASHI.1973.775|10.1248/BPB.24.307|10.1248/CPB.54.1465|10.1248/CPB.54.222|10.1248/YAKUSHI1947.107.3_209|10.12692/IJB/12.4.370-382|10.1271/BBB1961.47.1841|10.1271/BBB1961.48.2847|10.1271/BBB1961.55.1655|10.1515/ZNB-1992-0324|10.1515/ZNB-1999-0616|10.1515/ZNC-1984-7-803|10.1515/ZNC-1988-5-608|10.1663/0013-0001(2003)057[0118:IOSMAO]2.0.CO;2|10.17660/ACTAHORTIC.2005.678.19|10.23850/24220582.3465|10.3109/10408447709082600|10.3109/13880208409070665|10.3109/13880208709060907|10.3109/13880208709088136|10.3109/13880209109082868|10.3109/13880209109082875|10.3109/1547691X.2015.1029145|10.3109/1547691x.2015.1029145|10.3389/FPHAR.2024.1346526|10.3390/MOLECULES13061333|10.3390/MOLECULES13092156|10.3390/MOLECULES21111576|10.3891/ACTA.CHEM.SCAND.21-0945|10.3891/ACTA.CHEM.SCAND.21-2076|10.3906/KIM-1206-45|10.3987/COM-95-7148|10.4268/CJCMM20111319|10.4314/BCSE.V12I1.21037|10.5897/JMPR10.078

>  <synonyms>  (945) 
nan

>  <cas>  (945) 
89-83-8

$$$$

     RDKit          2D

 15 17  0  0  0  0  0  0  0  0999 V2000
   -3.6588   -1.5356    0.0000 C   0  0  0  0  0  0  0  0  0  0  0  0
   -2.4714   -0.6189    0.0000 C   0  0  0  0  0  0  0  0  0  0  0  0
   -2.6716    0.8677    0.0000 C   0  0  0  0  0  0  0  0  0  0  0  0
   -1.4843    1.7844    0.0000 C   0  0  0  0  0  0  0  0  0  0  0  0
   -0.0968    1.2144    0.0000 C   0  0  0  0  0  0  0  0  0  0  0  0
   -0.2970    2.7010    0.0000 C   0  0  0  0  0  0  0  0  0  0  0  0
    1.0905    2.1311    0.0000 C   0  0  0  0  0  0  0  0  0  0  0  0
    2.4780    1.5612    0.0000 C   0  0  0  0  0  0  0  0  0  0  0  0
    2.6782    0.0746    0.0000 C   0  0  0  0  0  0  0  0  0  0  0  0
    1.4909   -0.8421    0.0000 C   0  0  0  0  0  0  0  0  0  0  0  0
    1.0193   -2.2660    0.0000 C   0  0  0  0  0  0  0  0  0  0  0  0
    2.5998   -1.8522    0.0000 C   0  0  0  0  0  0  0  0  0  0  0  0
    0.1034   -0.2721    0.0000 C   0  0  0  0  0  0  0  0  0  0  0  0
    0.3036   -1.7587    0.0000 C   0  0  0  0  0  0  0  0  0  0  0  0
   -1.0839   -1.1888    0.0000 C   0  0  0  0  0  0  0  0  0  0  0  0
  1  2  1  0
  2  3  2  0
  3  4  1  0
  4  5  1  0
  5  6  1  1
  5  7  1  0
  7  8  1  0
  8  9  1  0
  9 10  1  0
 10 11  1  0
 10 12  1  0
 10 13  1  0
 13 14  1  1
 15 14  1  1
 15  2  1  0
 13  5  1  0
 15 13  1  0
M  END
>  <identifier>  (946) 
CNP0223016.1

>  <canonical_smiles>  (946) 
CC1=CC[C@]2(C)CCCC(C)(C)[C@@]23C[C@@H]13

>  <standard_inchi>  (946) 
InChI=1S/C15H24/c1-11-6-9-14(4)8-5-7-13(2,3)15(14)10-12(11)15/h6,12H,5,7-10H2,1-4H3/t12-,14-,15-/m0/s1

>  <standard_inchi_key>  (946) 
WXQGPFZDVCRBME-QEJZJMRPSA-N

>  <name>  (946) 
Thujopsene

>  <iupac_name>  (946) 
(1~{a}~{S},4~{a}~{S},8~{a}~{S})-2,4~{a},8,8-tetramethyl-1,1~{a},4,5,6,7-hexahydrocyclopropa[j]naphthalene

>  <annotation_level>  (946) 
5

>  <total_atom_count>  (946) 
39

>  <heavy_atom_count>  (946) 
15

>  <molecular_weight>  (946) 
204.36

>  <exact_molecular_weight>  (946) 
204.1878

>  <molecular_formula>  (946) 
C15H24

>  <alogp>  (946) 
4.56

>  <topological_polar_surface_area>  (946) 
0.00

>  <rotatable_bond_count>  (946) 
0

>  <hydrogen_bond_acceptors>  (946) 
0

>  <hydrogen_bond_donors>  (946) 
0

>  <hydrogen_bond_acceptors_lipinski>  (946) 
0

>  <hydrogen_bond_donors_lipinski>  (946) 
0

>  <lipinski_rule_of_five_violations>  (946) 
0

>  <aromatic_rings_count>  (946) 
0

>  <qed_drug_likeliness>  (946) 
0.51

>  <formal_charge>  (946) 
0

>  <fractioncsp3>  (946) 
0.87

>  <number_of_minimal_rings>  (946) 
3

>  <van_der_walls_volume>  (946) 
222.28

>  <contains_sugar>  (946) 
False

>  <contains_ring_sugars>  (946) 
False

>  <contains_linear_sugars>  (946) 
False

>  <murcko_framework>  (946) 
C1=CC2CC32CCCCC3C1

>  <np_likeness>  (946) 
3.18

>  <chemical_class>  (946) 
Prenol lipids

>  <chemical_sub_class>  (946) 
Sesquiterpenoids

>  <chemical_super_class>  (946) 
Lipids and lipid-like molecules

>  <direct_parent_classification>  (946) 
Sesquiterpenoids

>  <np_classifier_pathway>  (946) 
Terpenoids

>  <np_classifier_superclass>  (946) 
Sesquiterpenoids

>  <np_classifier_class>  (946) 
Thujopsane sesquiterpenoids

>  <np_classifier_is_glycoside>  (946) 
False

>  <organisms>  (946) 
Adenocarpus commutatus|Aglaia meridionalis|Allium ursinum|Alseodaphne semecarpifolia|Ammi majus|Amycolatopsis lurida|Anacystis cyanea|Angelica acutiloba|Angelica archangelica|Angelica gigas|Angelica sinensis|Arabidopsis thaliana|Arcangelisia gusanlung|Artemisia schmidtiana|Babylonia japonica|Basella alba|Bazzania angustifolia|Bazzania trilobata|Brickellia pendula|Bupleurum chinense|Bupleurum falcatum|Bupleurum scorzonerifolium|Callitropsis nootkatensis|Callyspongia truncata|Capsicum annuum|Centella asiatica|Chaetomium retardatum|Chamaecyparis lawsoniana|Chamaecyparis obtusa|Chamaecyparis pisifera|Chamaemelum scariosum|Chrysanthemum indicum|Chrysanthemum x morifolium|Citrus tankan|Cladonia pseudodidyma|Cladosporium herbarum|Cleidion brevipetiolatum|Cnidium officinale|Coleus carnosus|Copaifera paupera|Cortinarius basirubescens|Corynespora cassiicola|Crotalaria lechnaultii|Croton eluteria|Croton sonderianus|Cupressus bakeri|Daphnandra micrantha|Delphinium tatsienense|Dunaliella acidophila|Entandrophragma cylindricum|Escallonia philippiana|Eugenia dysenterica|Fagus menziesii|Ficus fistulosa|Ficus maxima|Frullania falciloba|Galium verum|Ganoderma applanatum|Gleichenia glauca|Helipterum strictum|Hesperocyparis nevadensis|Hippocratea indica|Iphiona scabra|Juniperus horizontalis|Juniperus recurva|Juniperus recurva Buch.|Juniperus rigida|Juniperus thurifera|Lactobacillus acidophilus|Lagenaria siceraria|Lathyrus macrorrhizus|Laurencia elata|Lentinellus omphalodes|Lepidozia fauriana|Leptospermum scoparium|Ligusticum sinense|Litsea glutinosa|Machaerium mucronulatum|Magnolia acuminata|Marsupella emarginata|Matteuccia struthiopteris|Microbiota decussata|Microcystis aeruginosa|Millettia racemosa|Murraya exotica|Murraya paniculata|Ochtodes crockeri|Ophioglossum vulgatum|Osteospermum thodei|Panax ginseng|Parmelia conspersa|Penicillium nalgiovensis|Perilla frutescens|Persicaria hydropiperoides|Persicaria minor|Petasites albus|Petasites hybridus|Platycladus orientalis|Plumbago europaea|Pogostemon cablin|Polygonum Minus|Polygonum maritimum|Polygonum minus|Polyporus sulphureus|Pyrocystis lunula|Rhanterium epapposum|Rheum undulatum|Sargassum parvivesiculosum|Schisandra Chinensis|Schisandra chinensis|Scrophularia deserti|Senecio erraticus|Simmondsia chinensis|Streptomyces scabiei|Tabebuia rosea|Tagetes minuta|Talaromyces wortmanni|Tanacetum parthenium|Tanacetum santolina|Taxodium distichum|Thuja standishii|Thujopsis dolabrata|Thujopsis dolabrata var. dolabrata|Timonius kaniensis|Trocholejeunea sandvicensis|Viguiera lanceolata|Widdringtonia whytei|Xanthocyparis nootkatensis

>  <collections>  (946) 
Australian natural products|CMAUP (cCollective molecular activities of useful plants)|ChEBI NPs|EMNPD|KNApSaCK|Latin America dataset|NPASS|NPEdia|NuBBEDB|Super Natural II|TCMDB-Taiwan (Traditional Chinese Medicine database)|VietHerb|WikiData Natural Products|ZINC NP

>  <dois>  (946) 
10.1002/(SICI)1099-1026(199611)11:6<367::AID-FFJ598>3.0.CO;2-R|10.1002/CBDV.201800531|10.1002/CBER.19560890224|10.1002/FFJ.2730020106|10.1002/FFJ.2730030303|10.1002/FFJ.2730060307|10.1002/JSSC.200800253|10.1007/S12272-011-1218-5|10.1016/0031-9422(82)83156-7|10.1016/0305-1978(85)90081-X|10.1016/0305-1978(94)90030-2|10.1016/0889-1575(91)90017-Z|10.1016/S0031-9422(00)80268-X|10.1016/S0031-9422(00)81063-8|10.1016/S0031-9422(00)85772-6|10.1016/S0031-9422(00)88478-2|10.1016/S0031-9422(01)00123-6|10.1016/S0031-9422(01)00322-3|10.1016/S0031-9422(02)00214-5|10.1016/S0031-9422(02)00542-3|10.1016/S0031-9422(97)00943-6|10.1016/S0031-9422(99)00123-5|10.1016/S0040-4020(01)91974-X|10.1016/S0378-8741(00)00214-2|10.1021/JF00046A030|10.1021/JF802820D|10.1021/JO00200A028|10.1021/JO01339A502|10.1021/NP000159P|10.1021/NP800631T|10.1021/NP970146K|10.1021/jo00200a028|10.1055/S-2003-37024|10.1055/S-2005-837753|10.1076/PHBI.39.5.388.5894|10.1080/10412905.1994.9698382|10.1080/10412905.1999.9701161|10.1080/10412905.2004.9698765|10.1111/J.1365-313X.2005.02417.X|10.1139/V61-339|10.1271/BBB.57.792|10.1271/BBB1961.41.201|10.1271/BBB1961.50.2915|10.1515/ZNC-2002-11-1208|10.3329/bjb.v37i1.1568|10.3390/MOLECULES191119220

>  <synonyms>  (946) 
(-)-Thujopsene|(-)-Thujopsene, >=97.0% (GC)|(-)-widdrene|(1AS-(1aalpha,4abeta,8aR*))-1,1a,4,4a,5,6,7,8-octahydro-2,4a,8,8-tetramethylcyclopropa(d)naphthalene|(1aS,4aS,8aS)-2,4a,8,8-tetramethyl-1,1a,4,5,6,7-hexahydrocyclopropa[j]naphthalene|470-40-6|A827133|AKOS015914102|C09740|CHEBI:9578|CYCLOPROPA(D)NAPHTHALENE, 1,1A,4,4A,5,6,7,8-OCTAHYDRO-2,4A,8,8-TETRAMETHYL-, (1AS-(1A.ALPHA.,4A.BETA.,8AR*))-|Cyclopropa(D)Naphthalene, 1,1A,4,4A,5,6,7,8-Octahydro-2,4A,8,8-Tetramethyl-, (1As,4As,8As)|Cyclopropa(d)naphthalene, 1,1a,4,4a,5,6,7,8-octahydro-2,4a,8,8-tetramethyl-, (1aS,4aS,8aS)-|E116U47P7N|EINECS 207-426-8|LMPR0103860001|NSC 44707|NSC-44707|Q15269711|Sesquichamene|THUJOPSENE [MI]|Thujopsen|Thujopsene, (-)-|UNII-E116U47P7N|WIDDRENE|WXQGPFZDVCRBME-QEJZJMRPSA-N|cis-(-)-Thujopsene|cis-Thujopsene|thujopsene

>  <cas>  (946) 
470-40-6

$$$$

     RDKit          2D

 23 23  0  0  0  0  0  0  0  0999 V2000
  -12.1620    0.9598    0.0000 C   0  0  0  0  0  0  0  0  0  0  0  0
  -10.9215    0.1165    0.0000 C   0  0  0  0  0  0  0  0  0  0  0  0
  -11.0315   -1.3794    0.0000 O   0  0  0  0  0  0  0  0  0  0  0  0
   -9.5709    0.7692    0.0000 C   0  0  0  0  0  0  0  0  0  0  0  0
   -8.3304   -0.0740    0.0000 C   0  0  0  0  0  0  0  0  0  0  0  0
   -6.9799    0.5787    0.0000 C   0  0  0  0  0  0  0  0  0  0  0  0
   -5.7393   -0.2646    0.0000 C   0  0  0  0  0  0  0  0  0  0  0  0
   -4.3888    0.3881    0.0000 C   0  0  0  0  0  0  0  0  0  0  0  0
   -3.1483   -0.4551    0.0000 C   0  0  0  0  0  0  0  0  0  0  0  0
   -1.7977    0.1976    0.0000 C   0  0  0  0  0  0  0  0  0  0  0  0
   -0.5572   -0.6457    0.0000 C   0  0  0  0  0  0  0  0  0  0  0  0
    0.7934    0.0070    0.0000 C   0  0  0  0  0  0  0  0  0  0  0  0
    2.0339   -0.8362    0.0000 C   0  0  0  0  0  0  0  0  0  0  0  0
    3.3845   -0.1835    0.0000 C   0  0  0  0  0  0  0  0  0  0  0  0
    4.6250   -1.0268    0.0000 C   0  0  0  0  0  0  0  0  0  0  0  0
    5.9755   -0.3740    0.0000 C   0  0  0  0  0  0  0  0  0  0  0  0
    6.0855    1.1219    0.0000 C   0  0  0  0  0  0  0  0  0  0  0  0
    7.4361    1.7746    0.0000 C   0  0  0  0  0  0  0  0  0  0  0  0
    8.6766    0.9314    0.0000 C   0  0  0  0  0  0  0  0  0  0  0  0
   10.0272    1.5841    0.0000 O   0  0  0  0  0  0  0  0  0  0  0  0
    8.5666   -0.5646    0.0000 C   0  0  0  0  0  0  0  0  0  0  0  0
    9.8071   -1.4078    0.0000 C   0  0  0  0  0  0  0  0  0  0  0  0
    7.2161   -1.2173    0.0000 N   0  0  0  0  0  0  0  0  0  0  0  0
  1  2  1  0
  2  3  2  0
  2  4  1  0
  4  5  1  0
  5  6  1  0
  6  7  1  0
  7  8  1  0
  8  9  1  0
  9 10  1  0
 10 11  1  0
 11 12  1  0
 12 13  1  0
 13 14  1  0
 14 15  1  0
 16 15  1  6
 16 17  1  0
 17 18  1  0
 18 19  1  0
 19 20  1  6
 19 21  1  0
 21 22  1  6
 21 23  1  0
 23 16  1  0
M  END
>  <identifier>  (947) 
CNP0265234.4

>  <canonical_smiles>  (947) 
CC(=O)CCCCCCCCCCCC[C@@H]1CC[C@H](O)[C@H](C)N1

>  <standard_inchi>  (947) 
InChI=1S/C20H39NO2/c1-17(22)13-11-9-7-5-3-4-6-8-10-12-14-19-15-16-20(23)18(2)21-19/h18-21,23H,3-16H2,1-2H3/t18-,19+,20-/m0/s1

>  <standard_inchi_key>  (947) 
SMOKZFNZPZHGMX-ZCNNSNEGSA-N

>  <name>  (947) 
spectaline

>  <iupac_name>  (947) 
14-[(2~{R},5~{S},6~{S})-5-hydroxy-6-methyl-2-piperidyl]tetradecan-2-one

>  <annotation_level>  (947) 
5

>  <total_atom_count>  (947) 
62

>  <heavy_atom_count>  (947) 
23

>  <molecular_weight>  (947) 
325.54

>  <exact_molecular_weight>  (947) 
325.29808

>  <molecular_formula>  (947) 
C20H39NO2

>  <alogp>  (947) 
4.76

>  <topological_polar_surface_area>  (947) 
49.33

>  <rotatable_bond_count>  (947) 
13

>  <hydrogen_bond_acceptors>  (947) 
3

>  <hydrogen_bond_donors>  (947) 
2

>  <hydrogen_bond_acceptors_lipinski>  (947) 
3

>  <hydrogen_bond_donors_lipinski>  (947) 
2

>  <lipinski_rule_of_five_violations>  (947) 
0

>  <aromatic_rings_count>  (947) 
0

>  <qed_drug_likeliness>  (947) 
0.48

>  <formal_charge>  (947) 
0

>  <fractioncsp3>  (947) 
0.95

>  <number_of_minimal_rings>  (947) 
1

>  <van_der_walls_volume>  (947) 
nan

>  <contains_sugar>  (947) 
False

>  <contains_ring_sugars>  (947) 
False

>  <contains_linear_sugars>  (947) 
False

>  <murcko_framework>  (947) 
N1CCCCC1

>  <np_likeness>  (947) 
1.78

>  <chemical_class>  (947) 
nan

>  <chemical_sub_class>  (947) 
Alkaloids and derivatives

>  <chemical_super_class>  (947) 
Alkaloids and derivatives

>  <direct_parent_classification>  (947) 
Alkaloids and derivatives

>  <np_classifier_pathway>  (947) 
Alkaloids

>  <np_classifier_superclass>  (947) 
Lysine alkaloids

>  <np_classifier_class>  (947) 
Piperidine alkaloids

>  <np_classifier_is_glycoside>  (947) 
False

>  <organisms>  (947) 
Cassia leptophylla

>  <collections>  (947) 
Latin America dataset|NuBBEDB|Super Natural II|WikiData Natural Products|ZINC NP

>  <dois>  (947) 
10.1016/0040-4020(95)00254-6

>  <synonyms>  (947) 
(+)-Spectaline|14-[(2R,5S,6S)-5-hydroxy-6-methylpiperidin-2-yl]tetradecan-2-one|SCHEMBL2380916

>  <cas>  (947) 
nan

$$$$

     RDKit          2D

 19 19  0  0  0  0  0  0  0  0999 V2000
   -6.3972   -1.3349    0.0000 C   0  0  0  0  0  0  0  0  0  0  0  0
   -5.1162   -0.5546    0.0000 C   0  0  0  0  0  0  0  0  0  0  0  0
   -5.1514    0.9450    0.0000 C   0  0  0  0  0  0  0  0  0  0  0  0
   -6.4677    1.6643    0.0000 C   0  0  0  0  0  0  0  0  0  0  0  0
   -6.5030    3.1639    0.0000 O   0  0  0  0  0  0  0  0  0  0  0  0
   -3.7999   -1.2739    0.0000 C   0  0  0  0  0  0  0  0  0  0  0  0
   -2.5188   -0.4935    0.0000 O   0  0  0  0  0  0  0  0  0  0  0  0
   -1.2025   -1.2128    0.0000 C   0  0  0  0  0  0  0  0  0  0  0  0
   -1.1673   -2.7124    0.0000 O   0  0  0  0  0  0  0  0  0  0  0  0
    0.0786   -0.4325    0.0000 C   0  0  0  0  0  0  0  0  0  0  0  0
    1.3949   -1.1518    0.0000 C   0  0  0  0  0  0  0  0  0  0  0  0
    2.6759   -0.3714    0.0000 C   0  0  0  0  0  0  0  0  0  0  0  0
    2.6407    1.1282    0.0000 C   0  0  0  0  0  0  0  0  0  0  0  0
    3.9217    1.9085    0.0000 C   0  0  0  0  0  0  0  0  0  0  0  0
    5.2380    1.1892    0.0000 C   0  0  0  0  0  0  0  0  0  0  0  0
    6.5191    1.9695    0.0000 O   0  0  0  0  0  0  0  0  0  0  0  0
    5.2733   -0.3104    0.0000 C   0  0  0  0  0  0  0  0  0  0  0  0
    6.5896   -1.0297    0.0000 O   0  0  0  0  0  0  0  0  0  0  0  0
    3.9922   -1.0907    0.0000 C   0  0  0  0  0  0  0  0  0  0  0  0
  1  2  1  0
  2  3  1  0
  3  4  1  0
  4  5  1  0
  2  6  1  0
  6  7  1  0
  7  8  1  0
  8  9  2  0
  8 10  1  0
 10 11  2  0
 11 12  1  0
 12 13  2  0
 13 14  1  0
 14 15  2  0
 15 16  1  0
 15 17  1  0
 17 18  1  0
 17 19  2  0
 19 12  1  0
M  END
>  <identifier>  (948) 
CNP0231891.3

>  <canonical_smiles>  (948) 
CC(CCO)COC(=O)/C=C/C1=CC=C(O)C(O)=C1

>  <standard_inchi>  (948) 
InChI=1S/C14H18O5/c1-10(6-7-15)9-19-14(18)5-3-11-2-4-12(16)13(17)8-11/h2-5,8,10,15-17H,6-7,9H2,1H3/b5-3+

>  <standard_inchi_key>  (948) 
ISCFZGDGRGXVNJ-HWKANZROSA-N

>  <name>  (948) 
nan

>  <iupac_name>  (948) 
nan

>  <annotation_level>  (948) 
0

>  <total_atom_count>  (948) 
37

>  <heavy_atom_count>  (948) 
19

>  <molecular_weight>  (948) 
266.29

>  <exact_molecular_weight>  (948) 
266.11542

>  <molecular_formula>  (948) 
C14H18O5

>  <alogp>  (948) 
1.67

>  <topological_polar_surface_area>  (948) 
86.99

>  <rotatable_bond_count>  (948) 
6

>  <hydrogen_bond_acceptors>  (948) 
5

>  <hydrogen_bond_donors>  (948) 
3

>  <hydrogen_bond_acceptors_lipinski>  (948) 
5

>  <hydrogen_bond_donors_lipinski>  (948) 
3

>  <lipinski_rule_of_five_violations>  (948) 
0

>  <aromatic_rings_count>  (948) 
1

>  <qed_drug_likeliness>  (948) 
0.41

>  <formal_charge>  (948) 
0

>  <fractioncsp3>  (948) 
0.36

>  <number_of_minimal_rings>  (948) 
1

>  <van_der_walls_volume>  (948) 
248.36

>  <contains_sugar>  (948) 
False

>  <contains_ring_sugars>  (948) 
False

>  <contains_linear_sugars>  (948) 
False

>  <murcko_framework>  (948) 
c1ccccc1

>  <np_likeness>  (948) 
1.41

>  <chemical_class>  (948) 
nan

>  <chemical_sub_class>  (948) 
nan

>  <chemical_super_class>  (948) 
nan

>  <direct_parent_classification>  (948) 
nan

>  <np_classifier_pathway>  (948) 
Shikimates and Phenylpropanoids

>  <np_classifier_superclass>  (948) 
Phenylpropanoids (C6-C3)

>  <np_classifier_class>  (948) 
Cinnamic acids and derivatives

>  <np_classifier_is_glycoside>  (948) 
False

>  <organisms>  (948) 
Alibertia macrophylla

>  <collections>  (948) 
Latin America dataset|NuBBEDB

>  <dois>  (948) 
10.1016/0031-9422(91)85077-D

>  <synonyms>  (948) 
nan

>  <cas>  (948) 
nan

$$$$

     RDKit          2D

  8  7  0  0  0  0  0  0  0  0999 V2000
   -4.5553   -0.2480    0.0000 C   0  0  0  0  0  0  0  0  0  0  0  0
   -3.2359    0.4655    0.0000 C   0  0  0  0  0  0  0  0  0  0  0  0
   -1.9583   -0.3205    0.0000 C   0  0  0  0  0  0  0  0  0  0  0  0
   -0.6388    0.3930    0.0000 S   0  0  0  0  0  0  0  0  0  0  0  0
    0.6388   -0.3930    0.0000 S   0  0  0  0  0  0  0  0  0  0  0  0
    1.9583    0.3205    0.0000 C   0  0  0  0  0  0  0  0  0  0  0  0
    3.2359   -0.4655    0.0000 C   0  0  0  0  0  0  0  0  0  0  0  0
    4.5553    0.2480    0.0000 C   0  0  0  0  0  0  0  0  0  0  0  0
  1  2  2  0
  2  3  1  0
  3  4  1  0
  4  5  1  0
  5  6  1  0
  6  7  1  0
  7  8  1  0
M  END
>  <identifier>  (949) 
CNP0170059.0

>  <canonical_smiles>  (949) 
C=CCSSCCC

>  <standard_inchi>  (949) 
InChI=1S/C6H12S2/c1-3-5-7-8-6-4-2/h3H,1,4-6H2,2H3

>  <standard_inchi_key>  (949) 
FCSSPCOFDUKHPV-UHFFFAOYSA-N

>  <name>  (949) 
ALLYL PROPYL DISULFIDE

>  <iupac_name>  (949) 
1-(allyldisulfanyl)propane

>  <annotation_level>  (949) 
5

>  <total_atom_count>  (949) 
20

>  <heavy_atom_count>  (949) 
8

>  <molecular_weight>  (949) 
148.3

>  <exact_molecular_weight>  (949) 
148.03804

>  <molecular_formula>  (949) 
C6H12S2

>  <alogp>  (949) 
2.96

>  <topological_polar_surface_area>  (949) 
0.00

>  <rotatable_bond_count>  (949) 
5

>  <hydrogen_bond_acceptors>  (949) 
2

>  <hydrogen_bond_donors>  (949) 
0

>  <hydrogen_bond_acceptors_lipinski>  (949) 
2

>  <hydrogen_bond_donors_lipinski>  (949) 
0

>  <lipinski_rule_of_five_violations>  (949) 
0

>  <aromatic_rings_count>  (949) 
0

>  <qed_drug_likeliness>  (949) 
0.33

>  <formal_charge>  (949) 
0

>  <fractioncsp3>  (949) 
0.67

>  <number_of_minimal_rings>  (949) 
0

>  <van_der_walls_volume>  (949) 
143.34

>  <contains_sugar>  (949) 
False

>  <contains_ring_sugars>  (949) 
False

>  <contains_linear_sugars>  (949) 
False

>  <murcko_framework>  (949) 
nan

>  <np_likeness>  (949) 
1.14

>  <chemical_class>  (949) 
Organic disulfides

>  <chemical_sub_class>  (949) 
Dialkyldisulfides

>  <chemical_super_class>  (949) 
Organosulfur compounds

>  <direct_parent_classification>  (949) 
Dialkyldisulfides

>  <np_classifier_pathway>  (949) 
Fatty acids

>  <np_classifier_superclass>  (949) 
Fatty acyls

>  <np_classifier_class>  (949) 
Fatty alcohols

>  <np_classifier_is_glycoside>  (949) 
False

>  <organisms>  (949) 
Adenocalymma alliaceum|Allium ampeloprasum|Allium ascalonicum|Allium ascalonicum Auct.|Allium cepa|Allium cepa L.|Allium fistulosum L.|Allium obliquum|Allium porrum|Allium porrum L.|Allium sativum|Allium schoenoprasum|Allium schoenoprasum L.|Aniba megaphylla|Berberis integerrima|Elephantopus angustifolius|Herbertus sakuraii|Isoplexis sceptrum|Libocedrus decurrens|Loranthus parasiticus|Mansoa alliacea|Nauclea latifolia|Ovibos moschatus|Rhodospirillum rubrum|Welsh onion|garlic

>  <collections>  (949) 
CMAUP (cCollective molecular activities of useful plants)|FooDB|Latin America dataset|NPASS|NuBBEDB|Super Natural II|TCMDB-Taiwan (Traditional Chinese Medicine database)|TCMID (Traditional Chinese Medicine Integrated Database)|TPPT (Toxic Plants–PhytoToxins)|UNPD (Universal Natural Products Database)|WikiData Natural Products

>  <dois>  (949) 
10.1002/biuz.19840140514|10.1002/mnfr.200700072|10.1016/j.bse.2003.10.001|10.1016/j.chroma.2005.12.016|10.1021/JF00034A054|10.1021/JF00059A033|10.1021/JF00097A029|10.1021/JF00125A014|10.1021/JF801220B|10.1021/NP0503350|10.1021/jf00024a017|10.1021/jf00125a014|10.1021/jf0504768|10.1080/10412905.1991.9697935|10.1271/BBB.56.1865|10.1271/BBB1961.52.2383

>  <synonyms>  (949) 
0167D73R1T|1-(prop-2-enyldisulfanyl)propane|1-Allyl-2-propyldisulfane|2-Propenyl propyl disulfide|2179-59-1|3-(Propyldisulfanyl)-1-propene, AldrichCPR|3-(propyldisulfanyl)prop-1-ene|3-(propyldithio)prop-1-ene|4,5-Dithia-1-octene|A815667|AKOS006344180|ALLYL PROPYL DISULFIDE [FHFI]|ALLYL PROPYL DISULFIDE [HSDB]|APDS|Allyl propyl disulphide|AllylPropylDisulfide|Allylpropyldisulfid|BRN 1744005|CAS-2179-59-1|CCRIS 4571|CHEBI:173628|CHEMBL3187351|D88487|DB-003584|DTXCID604448|DTXSID8024448|Disulfide, 2-propenyl propyl|Disulfide, allyl propyl|EINECS 218-550-7|FEMA NO. 4073|HSDB 2519|LS-13191|MFCD00040072|NCGC00260160-01|NS00005700|Propyl 2-propenyl disulfide|Propyl allyl disulfide|Q-100270|Q4348232|SCHEMBL1300739|Tox21_202612|UNII-0167D73R1T|allyl-propyl-disulfide

>  <cas>  (949) 
2179-59-1

$$$$

     RDKit          2D

 41 46  0  0  0  0  0  0  0  0999 V2000
    4.9499   -3.4813    0.0000 C   0  0  0  0  0  0  0  0  0  0  0  0
    6.4287   -3.2300    0.0000 C   0  0  0  0  0  0  0  0  0  0  0  0
    7.3857   -4.3851    0.0000 C   0  0  0  0  0  0  0  0  0  0  0  0
    6.9505   -1.8237    0.0000 C   0  0  0  0  0  0  0  0  0  0  0  0
    8.3949   -1.4192    0.0000 C   0  0  0  0  0  0  0  0  0  0  0  0
    8.4566    0.0795    0.0000 C   0  0  0  0  0  0  0  0  0  0  0  0
    7.0502    0.6013    0.0000 C   0  0  0  0  0  0  0  0  0  0  0  0
    8.0989    1.6738    0.0000 C   0  0  0  0  0  0  0  0  0  0  0  0
    6.4970    1.9955    0.0000 C   0  0  0  0  0  0  0  0  0  0  0  0
    5.0129    2.2135    0.0000 C   0  0  0  0  0  0  0  0  0  0  0  0
    4.0821    1.0373    0.0000 C   0  0  0  0  0  0  0  0  0  0  0  0
    3.5288    2.4315    0.0000 C   0  0  0  0  0  0  0  0  0  0  0  0
    4.6353   -0.3570    0.0000 C   0  0  0  0  0  0  0  0  0  0  0  0
    3.7045   -1.5332    0.0000 C   0  0  0  0  0  0  0  0  0  0  0  0
    2.2205   -1.3153    0.0000 C   0  0  0  0  0  0  0  0  0  0  0  0
    1.6672    0.0790    0.0000 C   0  0  0  0  0  0  0  0  0  0  0  0
    0.1831    0.2969    0.0000 C   0  0  0  0  0  0  0  0  0  0  0  0
    0.7364   -1.0973    0.0000 C   0  0  0  0  0  0  0  0  0  0  0  0
   -0.7477   -0.8793    0.0000 C   0  0  0  0  0  0  0  0  0  0  0  0
   -2.2318   -0.6613    0.0000 C   0  0  0  0  0  0  0  0  0  0  0  0
   -2.7850    0.7329    0.0000 C   0  0  0  0  0  0  0  0  0  0  0  0
   -4.2691    0.9509    0.0000 O   0  0  0  0  0  0  0  0  0  0  0  0
   -5.1999   -0.2254    0.0000 C   0  0  0  0  0  0  0  0  0  0  0  0
   -4.6467   -1.6196    0.0000 O   0  0  0  0  0  0  0  0  0  0  0  0
   -6.6840   -0.0074    0.0000 C   0  0  0  0  0  0  0  0  0  0  0  0
   -7.6148   -1.1837    0.0000 C   0  0  0  0  0  0  0  0  0  0  0  0
   -9.0989   -0.9657    0.0000 C   0  0  0  0  0  0  0  0  0  0  0  0
   -9.6522    0.4286    0.0000 C   0  0  0  0  0  0  0  0  0  0  0  0
  -11.1362    0.6465    0.0000 C   0  0  0  0  0  0  0  0  0  0  0  0
  -12.0671   -0.5297    0.0000 C   0  0  0  0  0  0  0  0  0  0  0  0
  -11.5138   -1.9240    0.0000 C   0  0  0  0  0  0  0  0  0  0  0  0
  -10.0297   -2.1419    0.0000 C   0  0  0  0  0  0  0  0  0  0  0  0
   -1.8542    1.9092    0.0000 C   0  0  0  0  0  0  0  0  0  0  0  0
   -1.3819    3.3328    0.0000 C   0  0  0  0  0  0  0  0  0  0  0  0
   -3.1742    2.6216    0.0000 C   0  0  0  0  0  0  0  0  0  0  0  0
   -0.3701    1.6912    0.0000 C   0  0  0  0  0  0  0  0  0  0  0  0
    0.5607    2.8674    0.0000 C   0  0  0  0  0  0  0  0  0  0  0  0
    2.0447    2.6495    0.0000 C   0  0  0  0  0  0  0  0  0  0  0  0
    2.5980    1.2552    0.0000 C   0  0  0  0  0  0  0  0  0  0  0  0
    3.1513   -0.1390    0.0000 C   0  0  0  0  0  0  0  0  0  0  0  0
    6.1194   -0.5750    0.0000 C   0  0  0  0  0  0  0  0  0  0  0  0
  1  2  2  0
  2  3  1  0
  4  2  1  1
  4  5  1  0
  5  6  1  0
  6  7  1  0
  7  8  1  6
  7  9  1  0
  9 10  1  0
 10 11  1  0
 11 12  1  1
 11 13  1  0
 13 14  1  1
 14 15  1  0
 16 15  1  6
 16 17  1  0
 17 18  1  6
 17 19  1  0
 19 20  1  0
 20 21  1  0
 21 22  1  6
 22 23  1  0
 23 24  2  0
 23 25  1  0
 25 26  1  0
 26 27  1  0
 27 28  2  0
 28 29  1  0
 29 30  2  0
 30 31  1  0
 31 32  2  0
 21 33  1  0
 33 34  1  0
 33 35  1  0
 33 36  1  0
 36 37  1  6
 37 38  1  0
 38 39  1  0
 39 40  1  6
 13 41  1  0
 41  4  1  6
 41  7  1  0
 39 11  1  0
 39 16  1  0
 36 17  1  0
 32 27  1  0
M  END
>  <identifier>  (950) 
CNP0135980.1

>  <canonical_smiles>  (950) 
C=C(C)[C@@H]1CC[C@]2(C)CC[C@]3(C)[C@H](CC[C@@H]4[C@@]5(C)CC[C@H](OC(=O)CCC6=CC=CC=C6)C(C)(C)[C@@H]5CC[C@]43C)[C@@H]12

>  <standard_inchi>  (950) 
InChI=1S/C39H58O2/c1-26(2)28-18-21-36(5)24-25-38(7)29(34(28)36)15-16-31-37(6)22-20-32(35(3,4)30(37)19-23-39(31,38)8)41-33(40)17-14-27-12-10-9-11-13-27/h9-13,28-32,34H,1,14-25H2,2-8H3/t28-,29+,30-,31+,32-,34+,36+,37-,38+,39+/m0/s1

>  <standard_inchi_key>  (950) 
BXSJJYBMAUOEPV-HBHILWERSA-N

>  <name>  (950) 
Lupeol dihydrocinnamate

>  <iupac_name>  (950) 
[(1~{R},3~{a}~{R},5~{a}~{R},5~{b}~{R},7~{a}~{R},9~{S},11~{a}~{R},11~{b}~{R},13~{a}~{R},13~{b}~{R})-1-isopropenyl-3~{a},5~{a},5~{b},8,8,11~{a}-hexamethyl-1,2,3,4,5,6,7,7~{a},9,10,11,11~{b},12,13,13~{a},13~{b}-hexadecahydrocyclopenta[a]chrysen-9-yl] 3-phenylpropanoate

>  <annotation_level>  (950) 
5

>  <total_atom_count>  (950) 
99

>  <heavy_atom_count>  (950) 
41

>  <molecular_weight>  (950) 
558.89

>  <exact_molecular_weight>  (950) 
558.44368

>  <molecular_formula>  (950) 
C39H58O2

>  <alogp>  (950) 
10.21

>  <topological_polar_surface_area>  (950) 
26.30

>  <rotatable_bond_count>  (950) 
5

>  <hydrogen_bond_acceptors>  (950) 
2

>  <hydrogen_bond_donors>  (950) 
0

>  <hydrogen_bond_acceptors_lipinski>  (950) 
2

>  <hydrogen_bond_donors_lipinski>  (950) 
0

>  <lipinski_rule_of_five_violations>  (950) 
2

>  <aromatic_rings_count>  (950) 
1

>  <qed_drug_likeliness>  (950) 
0.27

>  <formal_charge>  (950) 
0

>  <fractioncsp3>  (950) 
0.77

>  <number_of_minimal_rings>  (950) 
6

>  <van_der_walls_volume>  (950) 
570.50

>  <contains_sugar>  (950) 
False

>  <contains_ring_sugars>  (950) 
False

>  <contains_linear_sugars>  (950) 
False

>  <murcko_framework>  (950) 
O(CCCc1ccccc1)C2CCC3C(CCC4C3CCC5C6CCCC6CCC54)C2

>  <np_likeness>  (950) 
2.34

>  <chemical_class>  (950) 
Prenol lipids

>  <chemical_sub_class>  (950) 
Triterpenoids

>  <chemical_super_class>  (950) 
Lipids and lipid-like molecules

>  <direct_parent_classification>  (950) 
Lupane triterpenoids

>  <np_classifier_pathway>  (950) 
Terpenoids

>  <np_classifier_superclass>  (950) 
Triterpenoids

>  <np_classifier_class>  (950) 
Lupane triterpenoids

>  <np_classifier_is_glycoside>  (950) 
False

>  <organisms>  (950) 
Cnidoscolus vitifolius

>  <collections>  (950) 
ChemSpider NPs|Latin America dataset|NuBBEDB|Super Natural II|WikiData Natural Products

>  <dois>  (950) 
10.1016/S0031-9422(98)00069-7

>  <synonyms>  (950) 
93915-44-7|AKOS040752751|DTXSID00917200|Lup-20(29)-en-3-yl 3-phenylpropanoate|Lupeol beta-phenylpropionate|Lupeol dihydrocinnamate|[(1R,3aR,5aR,5bR,7aR,9S,11aR,11bR,13aR,13bR)-3a,5a,5b,8,8,11a-hexamethyl-1-prop-1-en-2-yl-1,2,3,4,5,6,7,7a,9,10,11,11b,12,13,13a,13b-hexadecahydrocyclopenta[a]chrysen-9-yl] 3-phenylpropanoate

>  <cas>  (950) 
93915-44-7

$$$$

     RDKit          2D

 30 32  0  0  0  0  0  0  0  0999 V2000
   -4.8100   -5.1723    0.0000 C   0  0  0  0  0  0  0  0  0  0  0  0
   -3.6265   -4.2507    0.0000 O   0  0  0  0  0  0  0  0  0  0  0  0
   -3.8329   -2.7649    0.0000 C   0  0  0  0  0  0  0  0  0  0  0  0
   -5.2228   -2.2008    0.0000 O   0  0  0  0  0  0  0  0  0  0  0  0
   -2.6494   -1.8433    0.0000 C   0  0  0  0  0  0  0  0  0  0  0  0
   -1.2596   -2.4075    0.0000 C   0  0  0  0  0  0  0  0  0  0  0  0
   -0.0761   -1.4859    0.0000 O   0  0  0  0  0  0  0  0  0  0  0  0
   -0.2825   -0.0001    0.0000 C   0  0  0  0  0  0  0  0  0  0  0  0
    0.9010    0.9215    0.0000 O   0  0  0  0  0  0  0  0  0  0  0  0
    2.2909    0.3574    0.0000 C   0  0  0  0  0  0  0  0  0  0  0  0
    2.4973   -1.1284    0.0000 O   0  0  0  0  0  0  0  0  0  0  0  0
    3.8872   -1.6925    0.0000 C   0  0  0  0  0  0  0  0  0  0  0  0
    4.0936   -3.1782    0.0000 C   0  0  0  0  0  0  0  0  0  0  0  0
    2.9101   -4.0998    0.0000 O   0  0  0  0  0  0  0  0  0  0  0  0
    5.0707   -0.7709    0.0000 C   0  0  0  0  0  0  0  0  0  0  0  0
    6.4605   -1.3350    0.0000 O   0  0  0  0  0  0  0  0  0  0  0  0
    4.8643    0.7148    0.0000 C   0  0  0  0  0  0  0  0  0  0  0  0
    6.0478    1.6364    0.0000 O   0  0  0  0  0  0  0  0  0  0  0  0
    3.4744    1.2790    0.0000 C   0  0  0  0  0  0  0  0  0  0  0  0
    3.2680    2.7647    0.0000 O   0  0  0  0  0  0  0  0  0  0  0  0
   -1.6723    0.5640    0.0000 C   0  0  0  0  0  0  0  0  0  0  0  0
   -2.8558   -0.3576    0.0000 C   0  0  0  0  0  0  0  0  0  0  0  0
   -4.0980    0.4832    0.0000 C   0  0  0  0  0  0  0  0  0  0  0  0
   -3.6823    1.9244    0.0000 C   0  0  0  0  0  0  0  0  0  0  0  0
   -2.1831    1.9744    0.0000 C   0  0  0  0  0  0  0  0  0  0  0  0
   -0.7271    2.3349    0.0000 O   0  0  0  0  0  0  0  0  0  0  0  0
   -2.3895    3.4601    0.0000 C   0  0  0  0  0  0  0  0  0  0  0  0
   -3.7794    4.0242    0.0000 O   0  0  0  0  0  0  0  0  0  0  0  0
   -1.2060    4.3817    0.0000 O   0  0  0  0  0  0  0  0  0  0  0  0
   -1.4124    5.8674    0.0000 C   0  0  0  0  0  0  0  0  0  0  0  0
  1  2  1  0
  2  3  1  0
  3  4  2  0
  3  5  1  0
  5  6  2  0
  6  7  1  0
  7  8  1  0
  8  9  1  6
 10  9  1  1
 10 11  1  0
 11 12  1  0
 12 13  1  1
 13 14  1  0
 12 15  1  0
 15 16  1  6
 15 17  1  0
 17 18  1  1
 17 19  1  0
 19 20  1  6
 21  8  1  1
 21 22  1  0
 22 23  1  1
 23 24  2  0
 24 25  1  0
 25 26  1  1
 25 27  1  0
 27 28  2  0
 27 29  1  0
 29 30  1  0
 22  5  1  0
 19 10  1  0
 25 21  1  0
M  END
>  <identifier>  (951) 
CNP0280660.1

>  <canonical_smiles>  (951) 
COC(=O)C1=CO[C@@H](O[C@@H]2O[C@H](CO)[C@@H](O)[C@H](O)[C@H]2O)[C@H]2[C@@H]1C=C[C@]2(O)C(=O)OC

>  <standard_inchi>  (951) 
InChI=1S/C18H24O12/c1-26-14(23)8-6-28-15(10-7(8)3-4-18(10,25)17(24)27-2)30-16-13(22)12(21)11(20)9(5-19)29-16/h3-4,6-7,9-13,15-16,19-22,25H,5H2,1-2H3/t7-,9-,10-,11-,12+,13-,15+,16+,18-/m1/s1

>  <standard_inchi_key>  (951) 
HHRLQMQDBHPIOK-PRKUFRHESA-N

>  <name>  (951) 
nan

>  <iupac_name>  (951) 
dimethyl (1~{S},4~{a}~{S},7~{R},7~{a}~{S})-7-hydroxy-1-[(2~{S},3~{R},4~{S},5~{S},6~{R})-3,4,5-trihydroxy-6-(hydroxymethyl)tetrahydropyran-2-yl]oxy-4~{a},7~{a}-dihydro-1~{H}-cyclopenta[c]pyran-4,7-dicarboxylate

>  <annotation_level>  (951) 
5

>  <total_atom_count>  (951) 
54

>  <heavy_atom_count>  (951) 
30

>  <molecular_weight>  (951) 
432.38

>  <exact_molecular_weight>  (951) 
432.12678

>  <molecular_formula>  (951) 
C18H24O12

>  <alogp>  (951) 
-3.08

>  <topological_polar_surface_area>  (951) 
181.44

>  <rotatable_bond_count>  (951) 
5

>  <hydrogen_bond_acceptors>  (951) 
12

>  <hydrogen_bond_donors>  (951) 
5

>  <hydrogen_bond_acceptors_lipinski>  (951) 
12

>  <hydrogen_bond_donors_lipinski>  (951) 
5

>  <lipinski_rule_of_five_violations>  (951) 
1

>  <aromatic_rings_count>  (951) 
0

>  <qed_drug_likeliness>  (951) 
0.22

>  <formal_charge>  (951) 
0

>  <fractioncsp3>  (951) 
0.67

>  <number_of_minimal_rings>  (951) 
3

>  <van_der_walls_volume>  (951) 
359.86

>  <contains_sugar>  (951) 
True

>  <contains_ring_sugars>  (951) 
True

>  <contains_linear_sugars>  (951) 
False

>  <murcko_framework>  (951) 
O1C=CC2C=CCC2C1OC3OCCCC3

>  <np_likeness>  (951) 
2.55

>  <chemical_class>  (951) 
Prenol lipids

>  <chemical_sub_class>  (951) 
Terpene glycosides

>  <chemical_super_class>  (951) 
Lipids and lipid-like molecules

>  <direct_parent_classification>  (951) 
Iridoid O-glycosides

>  <np_classifier_pathway>  (951) 
Terpenoids

>  <np_classifier_superclass>  (951) 
Monoterpenoids

>  <np_classifier_class>  (951) 
Iridoids monoterpenoids

>  <np_classifier_is_glycoside>  (951) 
True

>  <organisms>  (951) 
Tocoyena formosa

>  <collections>  (951) 
ChemSpider NPs|Latin America dataset|NuBBEDB|Super Natural II|WikiData Natural Products|ZINC NP

>  <dois>  (951) 
10.1016/S0031-9422(97)00238-0

>  <synonyms>  (951) 
Mollugoside methyl ester

>  <cas>  (951) 
nan

$$$$

     RDKit          2D

 28 32  0  0  0  0  0  0  0  0999 V2000
   -7.1618    1.8068    0.0000 C   0  0  0  0  0  0  0  0  0  0  0  0
   -5.6656    1.7000    0.0000 O   0  0  0  0  0  0  0  0  0  0  0  0
   -5.0100    0.3509    0.0000 C   0  0  0  0  0  0  0  0  0  0  0  0
   -5.8505   -0.8915    0.0000 O   0  0  0  0  0  0  0  0  0  0  0  0
   -3.5138    0.2442    0.0000 C   0  0  0  0  0  0  0  0  0  0  0  0
   -3.8787   -1.2108    0.0000 C   0  0  0  0  0  0  0  0  0  0  0  0
   -3.6685    1.7362    0.0000 C   0  0  0  0  0  0  0  0  0  0  0  0
   -2.4537    2.6161    0.0000 C   0  0  0  0  0  0  0  0  0  0  0  0
   -1.0842    2.0041    0.0000 C   0  0  0  0  0  0  0  0  0  0  0  0
   -0.9296    0.5121    0.0000 C   0  0  0  0  0  0  0  0  0  0  0  0
   -2.1443   -0.3679    0.0000 C   0  0  0  0  0  0  0  0  0  0  0  0
   -1.9897   -1.8599    0.0000 C   0  0  0  0  0  0  0  0  0  0  0  0
   -0.6202   -2.4719    0.0000 C   0  0  0  0  0  0  0  0  0  0  0  0
    0.8714   -2.6308    0.0000 O   0  0  0  0  0  0  0  0  0  0  0  0
    1.4834   -1.2614    0.0000 C   0  0  0  0  0  0  0  0  0  0  0  0
    2.2800   -1.2904    0.0000 O   0  0  0  0  0  0  0  0  0  0  0  0
    0.4399   -0.1000    0.0000 C   0  0  0  0  0  0  0  0  0  0  0  0
    1.6547    0.7800    0.0000 C   0  0  0  0  0  0  0  0  0  0  0  0
    3.0241    0.1680    0.0000 C   0  0  0  0  0  0  0  0  0  0  0  0
    4.2389    1.0479    0.0000 C   0  0  0  0  0  0  0  0  0  0  0  0
    4.2410    2.5479    0.0000 C   0  0  0  0  0  0  0  0  0  0  0  0
    5.6682    3.0094    0.0000 O   0  0  0  0  0  0  0  0  0  0  0  0
    6.5482    1.7946    0.0000 C   0  0  0  0  0  0  0  0  0  0  0  0
    5.6648    0.5824    0.0000 C   0  0  0  0  0  0  0  0  0  0  0  0
    3.1788   -1.3241    0.0000 O   0  0  0  0  0  0  0  0  0  0  0  0
    1.9640   -2.2040    0.0000 C   0  0  0  0  0  0  0  0  0  0  0  0
    2.1187   -3.6960    0.0000 O   0  0  0  0  0  0  0  0  0  0  0  0
    0.5946   -1.5920    0.0000 C   0  0  0  0  0  0  0  0  0  0  0  0
  1  2  1  0
  2  3  1  0
  3  4  2  0
  3  5  1  0
  5  6  1  6
  5  7  1  0
  7  8  1  0
  8  9  1  0
 10  9  1  1
 10 11  1  0
 11 12  1  1
 13 12  1  1
 13 14  1  0
 14 15  1  0
 15 16  2  0
 15 17  1  0
 17 18  1  6
 18 19  1  0
 19 20  1  1
 20 21  2  0
 21 22  1  0
 22 23  1  0
 23 24  2  0
 19 25  1  0
 25 26  1  0
 26 27  2  0
 28 26  1  6
 11  5  1  0
 28 13  1  0
 17 10  1  0
 24 20  1  0
 28 17  1  0
M  END
>  <identifier>  (952) 
CNP0324993.2

>  <canonical_smiles>  (952) 
COC(=O)[C@@]1(C)CCC[C@@H]2[C@H]1C[C@@H]1OC(=O)[C@]23C[C@@H](C2=COC=C2)OC(=O)[C@H]13

>  <standard_inchi>  (952) 
InChI=1S/C21H24O7/c1-20(18(23)25-2)6-3-4-12-13(20)8-14-16-17(22)27-15(11-5-7-26-10-11)9-21(12,16)19(24)28-14/h5,7,10,12-16H,3-4,6,8-9H2,1-2H3/t12-,13-,14+,15+,16+,20+,21-/m1/s1

>  <standard_inchi_key>  (952) 
ZGRXZVQQLDOVAT-UYJTXGADSA-N

>  <name>  (952) 
nan

>  <iupac_name>  (952) 
methyl (1~{R},2~{R},6~{S},7~{R},9~{S},10~{S},13~{S})-13-(3-furyl)-6-methyl-11,15-dioxo-12,16-dioxatetracyclo[7.5.2.0^{1,10}.0^{2,7}]hexadecane-6-carboxylate

>  <annotation_level>  (952) 
5

>  <total_atom_count>  (952) 
52

>  <heavy_atom_count>  (952) 
28

>  <molecular_weight>  (952) 
388.42

>  <exact_molecular_weight>  (952) 
388.1522

>  <molecular_formula>  (952) 
C21H24O7

>  <alogp>  (952) 
2.79

>  <topological_polar_surface_area>  (952) 
92.04

>  <rotatable_bond_count>  (952) 
2

>  <hydrogen_bond_acceptors>  (952) 
7

>  <hydrogen_bond_donors>  (952) 
0

>  <hydrogen_bond_acceptors_lipinski>  (952) 
7

>  <hydrogen_bond_donors_lipinski>  (952) 
0

>  <lipinski_rule_of_five_violations>  (952) 
0

>  <aromatic_rings_count>  (952) 
1

>  <qed_drug_likeliness>  (952) 
0.57

>  <formal_charge>  (952) 
0

>  <fractioncsp3>  (952) 
0.67

>  <number_of_minimal_rings>  (952) 
5

>  <van_der_walls_volume>  (952) 
336.28

>  <contains_sugar>  (952) 
False

>  <contains_ring_sugars>  (952) 
False

>  <contains_linear_sugars>  (952) 
False

>  <murcko_framework>  (952) 
o1ccc(c1)C2OCC3C4OCC3(C2)C5CCCCC5C4

>  <np_likeness>  (952) 
2.86

>  <chemical_class>  (952) 
Naphthopyrans

>  <chemical_sub_class>  (952) 
Naphthopyrans

>  <chemical_super_class>  (952) 
Organoheterocyclic compounds

>  <direct_parent_classification>  (952) 
Naphthopyrans

>  <np_classifier_pathway>  (952) 
Terpenoids

>  <np_classifier_superclass>  (952) 
Diterpenoids

>  <np_classifier_class>  (952) 
Colensane and Clerodane diterpenoids

>  <np_classifier_is_glycoside>  (952) 
False

>  <organisms>  (952) 
Croton diasii

>  <collections>  (952) 
ChemSpider NPs|Latin America dataset|NuBBEDB|Super Natural II|WikiData Natural Products|ZINC NP

>  <dois>  (952) 
10.1016/S0031-9422(00)88692-6

>  <synonyms>  (952) 
Diasin

>  <cas>  (952) 
nan

$$$$

     RDKit          2D

 36 40  0  0  0  0  0  0  0  0999 V2000
   -3.8614   -3.5290    0.0000 C   0  0  0  0  0  0  0  0  0  0  0  0
   -2.3614   -3.5180    0.0000 O   0  0  0  0  0  0  0  0  0  0  0  0
   -1.6210   -2.2135    0.0000 C   0  0  0  0  0  0  0  0  0  0  0  0
   -2.3805   -0.9200    0.0000 O   0  0  0  0  0  0  0  0  0  0  0  0
   -0.1210   -2.2025    0.0000 C   0  0  0  0  0  0  0  0  0  0  0  0
    0.6194   -0.8980    0.0000 C   0  0  0  0  0  0  0  0  0  0  0  0
   -0.1401    0.3955    0.0000 C   0  0  0  0  0  0  0  0  0  0  0  0
   -1.0129   -0.8245    0.0000 C   0  0  0  0  0  0  0  0  0  0  0  0
   -1.6096    0.6966    0.0000 C   0  0  0  0  0  0  0  0  0  0  0  0
   -2.9754    0.0764    0.0000 C   0  0  0  0  0  0  0  0  0  0  0  0
   -3.2765   -1.3930    0.0000 C   0  0  0  0  0  0  0  0  0  0  0  0
   -3.9873    1.1838    0.0000 C   0  0  0  0  0  0  0  0  0  0  0  0
   -5.4778    1.0160    0.0000 C   0  0  0  0  0  0  0  0  0  0  0  0
   -6.2183   -0.2885    0.0000 C   0  0  0  0  0  0  0  0  0  0  0  0
   -7.6878    0.0126    0.0000 O   0  0  0  0  0  0  0  0  0  0  0  0
   -7.8555    1.5032    0.0000 C   0  0  0  0  0  0  0  0  0  0  0  0
   -6.4897    2.1233    0.0000 C   0  0  0  0  0  0  0  0  0  0  0  0
   -3.2468    2.4883    0.0000 C   0  0  0  0  0  0  0  0  0  0  0  0
   -1.7773    2.1872    0.0000 C   0  0  0  0  0  0  0  0  0  0  0  0
   -0.4115    2.8073    0.0000 O   0  0  0  0  0  0  0  0  0  0  0  0
    0.6003    1.7000    0.0000 C   0  0  0  0  0  0  0  0  0  0  0  0
    2.1003    1.7110    0.0000 C   0  0  0  0  0  0  0  0  0  0  0  0
    2.8407    3.0155    0.0000 O   0  0  0  0  0  0  0  0  0  0  0  0
    2.8598    0.4175    0.0000 C   0  0  0  0  0  0  0  0  0  0  0  0
    2.1194   -0.8870    0.0000 C   0  0  0  0  0  0  0  0  0  0  0  0
    1.3789   -2.1915    0.0000 C   0  0  0  0  0  0  0  0  0  0  0  0
    2.8789   -2.1805    0.0000 C   0  0  0  0  0  0  0  0  0  0  0  0
    2.1384   -3.4850    0.0000 O   0  0  0  0  0  0  0  0  0  0  0  0
    4.3788   -2.1695    0.0000 C   0  0  0  0  0  0  0  0  0  0  0  0
    5.1193   -0.8649    0.0000 C   0  0  0  0  0  0  0  0  0  0  0  0
    4.3598    0.4286    0.0000 C   0  0  0  0  0  0  0  0  0  0  0  0
    4.0884    1.9038    0.0000 C   0  0  0  0  0  0  0  0  0  0  0  0
    5.7655    0.9519    0.0000 C   0  0  0  0  0  0  0  0  0  0  0  0
    6.0151    2.4310    0.0000 O   0  0  0  0  0  0  0  0  0  0  0  0
    6.9216   -0.0038    0.0000 O   0  0  0  0  0  0  0  0  0  0  0  0
    8.3273    0.5196    0.0000 C   0  0  0  0  0  0  0  0  0  0  0  0
  1  2  1  0
  2  3  1  0
  3  4  2  0
  3  5  1  0
  6  5  1  1
  6  7  1  0
  7  8  1  1
  7  9  1  0
  9 10  2  0
 10 11  1  0
 10 12  1  0
 12 13  1  6
 13 14  2  0
 14 15  1  0
 15 16  1  0
 16 17  2  0
 12 18  1  0
 19 18  1  1
 19 20  1  0
 21 20  1  6
 21 22  1  0
 22 23  1  6
 22 24  1  0
 24 25  1  0
 25 26  1  1
 25 27  1  0
 27 28  2  0
 27 29  1  0
 29 30  2  0
 30 31  1  0
 31 32  1  1
 31 33  1  0
 33 34  2  0
 33 35  1  0
 35 36  1  0
 25  6  1  0
 21  7  1  0
 24 31  1  1
 19  9  1  0
 17 13  1  0
M  END
>  <identifier>  (953) 
CNP0114549.2

>  <canonical_smiles>  (953) 
COC(=O)C[C@H]1[C@]2(C)C3=C(C)[C@H](C4=COC=C4)C[C@H]3O[C@@H]2[C@H](O)[C@@H]2[C@]1(C)C(=O)C=C[C@@]2(C)C(=O)OC

>  <standard_inchi>  (953) 
InChI=1S/C28H34O8/c1-14-16(15-8-10-35-13-15)11-17-21(14)28(4)18(12-20(30)33-5)27(3)19(29)7-9-26(2,25(32)34-6)23(27)22(31)24(28)36-17/h7-10,13,16-18,22-24,31H,11-12H2,1-6H3/t16-,17-,18-,22-,23+,24-,26-,27+,28-/m1/s1

>  <standard_inchi_key>  (953) 
CTBHKOAPXBDFPX-PQYHCQQJSA-N

>  <name>  (953) 
Deacetylnimbin

>  <iupac_name>  (953) 
methyl (1~{S},2~{R},3~{R},4~{R},8~{R},9~{S},10~{R},13~{R},15~{R})-13-(3-furyl)-2-hydroxy-9-(2-methoxy-2-oxo-ethyl)-4,8,10,12-tetramethyl-7-oxo-16-oxatetracyclo[8.6.0.0^{3,8}.0^{11,15}]hexadeca-5,11-diene-4-carboxylate

>  <annotation_level>  (953) 
5

>  <total_atom_count>  (953) 
70

>  <heavy_atom_count>  (953) 
36

>  <molecular_weight>  (953) 
498.57

>  <exact_molecular_weight>  (953) 
498.22537

>  <molecular_formula>  (953) 
C28H34O8

>  <alogp>  (953) 
3.35

>  <topological_polar_surface_area>  (953) 
112.27

>  <rotatable_bond_count>  (953) 
4

>  <hydrogen_bond_acceptors>  (953) 
8

>  <hydrogen_bond_donors>  (953) 
1

>  <hydrogen_bond_acceptors_lipinski>  (953) 
8

>  <hydrogen_bond_donors_lipinski>  (953) 
1

>  <lipinski_rule_of_five_violations>  (953) 
0

>  <aromatic_rings_count>  (953) 
1

>  <qed_drug_likeliness>  (953) 
0.50

>  <formal_charge>  (953) 
0

>  <fractioncsp3>  (953) 
0.61

>  <number_of_minimal_rings>  (953) 
5

>  <van_der_walls_volume>  (953) 
447.35

>  <contains_sugar>  (953) 
False

>  <contains_ring_sugars>  (953) 
False

>  <contains_linear_sugars>  (953) 
False

>  <murcko_framework>  (953) 
o1ccc(c1)C2C=C3C(OC4CC5CC=CCC5CC34)C2

>  <np_likeness>  (953) 
2.89

>  <chemical_class>  (953) 
Prenol lipids

>  <chemical_sub_class>  (953) 
Triterpenoids

>  <chemical_super_class>  (953) 
Lipids and lipid-like molecules

>  <direct_parent_classification>  (953) 
Limonoids

>  <np_classifier_pathway>  (953) 
Terpenoids

>  <np_classifier_superclass>  (953) 
Triterpenoids

>  <np_classifier_class>  (953) 
Limonoids

>  <np_classifier_is_glycoside>  (953) 
False

>  <organisms>  (953) 
Aristolochia indica|Azadirachta indica

>  <collections>  (953) 
CMAUP (cCollective molecular activities of useful plants)|ChEBI NPs|Latin America dataset|NPASS|NuBBEDB|Specs Natural Products|Super Natural II|WikiData Natural Products|ZINC NP

>  <dois>  (953) 
10.1002/(SICI)1099-1565(199901/02)10:1<39::AID-PCA426>3.0.CO;2-L|10.1002/PCA.1208|10.1002/pca.1208|10.1007/BF02980677|10.1016/S0031-9422(99)00367-2|10.1016/S0040-4020(01)81360-0|10.1021/NP100783K|10.1021/NP50048A016|10.1021/NP50081A005|10.1021/NP50083A006|10.1021/np100783k|10.1080/10826079508010463|10.1271/BBB.56.1835|10.3987/COM-88-4683|10.3987/R-1987-07-1827

>  <synonyms>  (953) 
18609-16-0|6-deacetylnimbin|AKOS032948232|AT40288|CHEBI:67305|CHEMBL1774398|CS-0024075|Desacetylnimbin|FS-9346|HY-N3694|Q27135761|methyl (2R,3aR,4aS,5R,5aR,6R,9aR,10S,10aR)-2-(furan-3-yl)-5-hydroxy-10-(2-methoxy-2-oxoethyl)-1,6,9a,10a-tetramethyl-9-oxo-3,3a,4a,5,5a,6,9,9a,10,10a-decahydro-2H-cyclopenta[b]naphtho[2,3-d]furan-6-carboxylate|nimbic acid dimethyl ester

>  <cas>  (953) 
18609-16-0

$$$$

     RDKit          2D

 37 40  0  0  0  0  0  0  0  0999 V2000
   -9.5069   -1.0833    0.0000 C   0  0  0  0  0  0  0  0  0  0  0  0
   -8.3112   -0.1774    0.0000 O   0  0  0  0  0  0  0  0  0  0  0  0
   -6.9290   -0.7600    0.0000 C   0  0  0  0  0  0  0  0  0  0  0  0
   -6.7423   -2.2483    0.0000 O   0  0  0  0  0  0  0  0  0  0  0  0
   -5.7334    0.1458    0.0000 C   0  0  0  0  0  0  0  0  0  0  0  0
   -5.9200    1.6342    0.0000 C   0  0  0  0  0  0  0  0  0  0  0  0
   -4.7244    2.5400    0.0000 C   0  0  0  0  0  0  0  0  0  0  0  0
   -3.3421    1.9574    0.0000 C   0  0  0  0  0  0  0  0  0  0  0  0
   -2.4012    3.1256    0.0000 O   0  0  0  0  0  0  0  0  0  0  0  0
   -3.1555    0.4691    0.0000 C   0  0  0  0  0  0  0  0  0  0  0  0
   -1.7732   -0.1134    0.0000 C   0  0  0  0  0  0  0  0  0  0  0  0
   -0.4895    0.6624    0.0000 C   0  0  0  0  0  0  0  0  0  0  0  0
    0.6451   -0.3187    0.0000 C   0  0  0  0  0  0  0  0  0  0  0  0
    0.0626   -1.7010    0.0000 O   0  0  0  0  0  0  0  0  0  0  0  0
   -1.4320   -1.5741    0.0000 C   0  0  0  0  0  0  0  0  0  0  0  0
   -2.4132   -2.7087    0.0000 C   0  0  0  0  0  0  0  0  0  0  0  0
   -3.5478   -1.7275    0.0000 C   0  0  0  0  0  0  0  0  0  0  0  0
   -1.2786   -3.6899    0.0000 C   0  0  0  0  0  0  0  0  0  0  0  0
   -3.3944   -3.8433    0.0000 O   0  0  0  0  0  0  0  0  0  0  0  0
    2.0622    0.1733    0.0000 C   0  0  0  0  0  0  0  0  0  0  0  0
    3.1968   -0.8079    0.0000 C   0  0  0  0  0  0  0  0  0  0  0  0
    2.9143   -2.2811    0.0000 O   0  0  0  0  0  0  0  0  0  0  0  0
    4.6138   -0.3159    0.0000 C   0  0  0  0  0  0  0  0  0  0  0  0
    5.7484   -1.2971    0.0000 C   0  0  0  0  0  0  0  0  0  0  0  0
    7.1654   -0.8051    0.0000 C   0  0  0  0  0  0  0  0  0  0  0  0
    8.3000   -1.7862    0.0000 C   0  0  0  0  0  0  0  0  0  0  0  0
    9.7170   -1.2942    0.0000 C   0  0  0  0  0  0  0  0  0  0  0  0
    9.9994    0.1790    0.0000 C   0  0  0  0  0  0  0  0  0  0  0  0
    8.8648    1.1601    0.0000 C   0  0  0  0  0  0  0  0  0  0  0  0
    7.4478    0.6681    0.0000 C   0  0  0  0  0  0  0  0  0  0  0  0
    2.3446    1.6464    0.0000 C   0  0  0  0  0  0  0  0  0  0  0  0
    3.7616    2.1385    0.0000 O   0  0  0  0  0  0  0  0  0  0  0  0
    1.2100    2.6276    0.0000 C   0  0  0  0  0  0  0  0  0  0  0  0
   -0.2070    2.1356    0.0000 C   0  0  0  0  0  0  0  0  0  0  0  0
   -1.3416    3.1168    0.0000 O   0  0  0  0  0  0  0  0  0  0  0  0
   -1.0592    4.5899    0.0000 C   0  0  0  0  0  0  0  0  0  0  0  0
   -4.3511   -0.4367    0.0000 C   0  0  0  0  0  0  0  0  0  0  0  0
  1  2  1  0
  2  3  1  0
  3  4  2  0
  3  5  1  0
  5  6  2  0
  6  7  1  0
  7  8  2  0
  8  9  1  0
  8 10  1  0
 11 10  1  6
 11 12  1  0
 12 13  2  0
 13 14  1  0
 14 15  1  0
 15 16  1  1
 16 17  1  0
 16 18  1  0
 16 19  1  0
 13 20  1  0
 20 21  1  0
 21 22  2  0
 21 23  1  0
 23 24  1  0
 24 25  1  0
 25 26  2  0
 26 27  1  0
 27 28  2  0
 28 29  1  0
 29 30  2  0
 20 31  1  0
 31 32  1  0
 31 33  1  0
 33 34  2  0
 34 35  1  0
 35 36  1  0
 10 37  2  0
 37  5  1  0
 15 11  1  0
 30 25  1  0
 34 12  1  0
M  END
>  <identifier>  (954) 
CNP0080427.2

>  <canonical_smiles>  (954) 
COC(=O)C1=CC=C(O)C([C@@H]2C3=C(O[C@H]2C(C)(C)O)C(C(=O)CCC2=CC=CC=C2)C(O)C=C3OC)=C1

>  <standard_inchi>  (954) 
InChI=1S/C29H32O8/c1-29(2,34)27-23(18-14-17(28(33)36-4)11-13-19(18)30)25-22(35-3)15-21(32)24(26(25)37-27)20(31)12-10-16-8-6-5-7-9-16/h5-9,11,13-15,21,23-24,27,30,32,34H,10,12H2,1-4H3/t21?,23-,24?,27-/m1/s1

>  <standard_inchi_key>  (954) 
BUYHVQYKLADDJT-DKVGFKEGSA-N

>  <name>  (954) 
nan

>  <iupac_name>  (954) 
methyl 4-hydroxy-3-[(2~{R},3~{R})-6-hydroxy-2-(1-hydroxy-1-methyl-ethyl)-4-methoxy-7-(3-phenylpropanoyl)-2,3,6,7-tetrahydrobenzofuran-3-yl]benzoate

>  <annotation_level>  (954) 
4

>  <total_atom_count>  (954) 
69

>  <heavy_atom_count>  (954) 
37

>  <molecular_weight>  (954) 
508.57

>  <exact_molecular_weight>  (954) 
508.20972

>  <molecular_formula>  (954) 
C29H32O8

>  <alogp>  (954) 
3.41

>  <topological_polar_surface_area>  (954) 
122.52

>  <rotatable_bond_count>  (954) 
8

>  <hydrogen_bond_acceptors>  (954) 
8

>  <hydrogen_bond_donors>  (954) 
3

>  <hydrogen_bond_acceptors_lipinski>  (954) 
8

>  <hydrogen_bond_donors_lipinski>  (954) 
3

>  <lipinski_rule_of_five_violations>  (954) 
1

>  <aromatic_rings_count>  (954) 
2

>  <qed_drug_likeliness>  (954) 
0.46

>  <formal_charge>  (954) 
0

>  <fractioncsp3>  (954) 
0.38

>  <number_of_minimal_rings>  (954) 
4

>  <van_der_walls_volume>  (954) 
nan

>  <contains_sugar>  (954) 
False

>  <contains_ring_sugars>  (954) 
False

>  <contains_linear_sugars>  (954) 
False

>  <murcko_framework>  (954) 
O1C2=C(C=CCC2CCCc3ccccc3)C(c4ccccc4)C1

>  <np_likeness>  (954) 
1.38

>  <chemical_class>  (954) 
Diarylheptanoids

>  <chemical_sub_class>  (954) 
Linear diarylheptanoids

>  <chemical_super_class>  (954) 
Phenylpropanoids and polyketides

>  <direct_parent_classification>  (954) 
Linear diarylheptanoids

>  <np_classifier_pathway>  (954) 
Shikimates and Phenylpropanoids

>  <np_classifier_superclass>  (954) 
nan

>  <np_classifier_class>  (954) 
nan

>  <np_classifier_is_glycoside>  (954) 
False

>  <organisms>  (954) 
Piper aduncum

>  <collections>  (954) 
Latin America dataset|NuBBEDB|WikiData Natural Products

>  <dois>  (954) 
10.1021/NP030530J|10.1021/np030530j

>  <synonyms>  (954) 
Piperaduncine B

>  <cas>  (954) 
nan

$$$$

     RDKit          2D

 16 17  0  0  0  0  0  0  0  0999 V2000
   -3.1763   -2.5349    0.0000 C   0  0  0  0  0  0  0  0  0  0  0  0
   -2.6938   -1.1146    0.0000 C   0  0  0  0  0  0  0  0  0  0  0  0
   -3.6826    0.0134    0.0000 C   0  0  0  0  0  0  0  0  0  0  0  0
   -3.2001    1.4337    0.0000 C   0  0  0  0  0  0  0  0  0  0  0  0
   -1.7288    1.7260    0.0000 C   0  0  0  0  0  0  0  0  0  0  0  0
   -1.2463    3.1462    0.0000 C   0  0  0  0  0  0  0  0  0  0  0  0
   -0.7401    0.5980    0.0000 C   0  0  0  0  0  0  0  0  0  0  0  0
   -1.2226   -0.8223    0.0000 C   0  0  0  0  0  0  0  0  0  0  0  0
   -0.2338   -1.9503    0.0000 C   0  0  0  0  0  0  0  0  0  0  0  0
    1.2374   -1.6580    0.0000 C   0  0  0  0  0  0  0  0  0  0  0  0
    1.7199   -0.2378    0.0000 C   0  0  0  0  0  0  0  0  0  0  0  0
    3.1912    0.0545    0.0000 C   0  0  0  0  0  0  0  0  0  0  0  0
    2.8989    1.5258    0.0000 C   0  0  0  0  0  0  0  0  0  0  0  0
    3.4835   -1.4167    0.0000 C   0  0  0  0  0  0  0  0  0  0  0  0
    4.6624    0.3468    0.0000 O   0  0  0  0  0  0  0  0  0  0  0  0
    0.7312    0.8902    0.0000 C   0  0  0  0  0  0  0  0  0  0  0  0
  1  2  1  0
  2  3  2  0
  3  4  1  0
  4  5  2  0
  5  6  1  0
  5  7  1  0
  7  8  2  0
  8  9  1  0
  9 10  1  0
 10 11  1  0
 11 12  1  6
 12 13  1  0
 12 14  1  0
 12 15  1  0
 11 16  1  0
  8  2  1  0
 16  7  1  0
M  END
>  <identifier>  (955) 
CNP0120326.2

>  <canonical_smiles>  (955) 
CC1=CC=C(C)C2=C1CC[C@@H](C(C)(C)O)C2

>  <standard_inchi>  (955) 
InChI=1S/C15H22O/c1-10-5-6-11(2)14-9-12(15(3,4)16)7-8-13(10)14/h5-6,12,16H,7-9H2,1-4H3/t12-/m1/s1

>  <standard_inchi_key>  (955) 
AFBBWQXTLZVDEE-GFCCVEGCSA-N

>  <name>  (955) 
2-[(2R)-5,8-dimethyl-1,2,3,4-tetrahydronaphthalen-2-yl]propan-2-ol

>  <iupac_name>  (955) 
2-[(2~{R})-5,8-dimethyltetralin-2-yl]propan-2-ol

>  <annotation_level>  (955) 
5

>  <total_atom_count>  (955) 
38

>  <heavy_atom_count>  (955) 
16

>  <molecular_weight>  (955) 
218.34

>  <exact_molecular_weight>  (955) 
218.16707

>  <molecular_formula>  (955) 
C15H22O

>  <alogp>  (955) 
3.18

>  <topological_polar_surface_area>  (955) 
20.23

>  <rotatable_bond_count>  (955) 
1

>  <hydrogen_bond_acceptors>  (955) 
1

>  <hydrogen_bond_donors>  (955) 
1

>  <hydrogen_bond_acceptors_lipinski>  (955) 
1

>  <hydrogen_bond_donors_lipinski>  (955) 
1

>  <lipinski_rule_of_five_violations>  (955) 
0

>  <aromatic_rings_count>  (955) 
1

>  <qed_drug_likeliness>  (955) 
0.77

>  <formal_charge>  (955) 
0

>  <fractioncsp3>  (955) 
0.60

>  <number_of_minimal_rings>  (955) 
2

>  <van_der_walls_volume>  (955) 
nan

>  <contains_sugar>  (955) 
False

>  <contains_ring_sugars>  (955) 
False

>  <contains_linear_sugars>  (955) 
False

>  <murcko_framework>  (955) 
c1ccc2c(c1)CCCC2

>  <np_likeness>  (955) 
0.64

>  <chemical_class>  (955) 
Tetralins

>  <chemical_sub_class>  (955) 
Tetralins

>  <chemical_super_class>  (955) 
Benzenoids

>  <direct_parent_classification>  (955) 
Tetralins

>  <np_classifier_pathway>  (955) 
Terpenoids

>  <np_classifier_superclass>  (955) 
Sesquiterpenoids

>  <np_classifier_class>  (955) 
Cadinane sesquiterpenoids

>  <np_classifier_is_glycoside>  (955) 
False

>  <organisms>  (955) 
Artemisia Annua|Emmotum nitens|Nicotiana rustica|Nicotiana undulata|Thuja occidentalis

>  <collections>  (955) 
Latin America dataset|NuBBEDB|Super Natural II|VietHerb|WikiData Natural Products|ZINC NP

>  <dois>  (955) 
10.1016/0031-9422(76)85091-1|10.1016/0031-9422(83)80220-9|10.1016/0031-9422(88)83099-1|10.1139/V64-059

>  <synonyms>  (955) 
SCHEMBL6510934|occidol

>  <cas>  (955) 
nan

$$$$

     RDKit          2D

 16 17  0  0  0  0  0  0  0  0999 V2000
   -1.9036   -3.7450    0.0000 C   0  0  0  0  0  0  0  0  0  0  0  0
   -0.8993   -2.6308    0.0000 C   0  0  0  0  0  0  0  0  0  0  0  0
   -1.3620   -1.2040    0.0000 C   0  0  0  0  0  0  0  0  0  0  0  0
   -0.3577   -0.0898    0.0000 C   0  0  0  0  0  0  0  0  0  0  0  0
    1.1093   -0.4025    0.0000 C   0  0  0  0  0  0  0  0  0  0  0  0
    1.5721   -1.8293    0.0000 C   0  0  0  0  0  0  0  0  0  0  0  0
    0.5678   -2.9435    0.0000 C   0  0  0  0  0  0  0  0  0  0  0  0
    2.1136    0.7117    0.0000 C   0  0  0  0  0  0  0  0  0  0  0  0
    3.4385    1.4152    0.0000 C   0  0  0  0  0  0  0  0  0  0  0  0
    3.0365   -0.4708    0.0000 O   0  0  0  0  0  0  0  0  0  0  0  0
    1.6509    2.1385    0.0000 C   0  0  0  0  0  0  0  0  0  0  0  0
    0.1839    2.4512    0.0000 C   0  0  0  0  0  0  0  0  0  0  0  0
   -0.8205    1.3370    0.0000 C   0  0  0  0  0  0  0  0  0  0  0  0
   -2.2875    1.6497    0.0000 C   0  0  0  0  0  0  0  0  0  0  0  0
   -2.7502    3.0766    0.0000 C   0  0  0  0  0  0  0  0  0  0  0  0
   -3.2918    0.5356    0.0000 C   0  0  0  0  0  0  0  0  0  0  0  0
  1  2  1  0
  2  3  2  0
  4  3  1  1
  4  5  1  0
  5  6  1  6
  6  7  1  0
  5  8  1  0
  8  9  1  6
  8 10  1  0
  8 11  1  0
 11 12  1  0
 12 13  1  0
 13 14  1  6
 14 15  1  0
 14 16  1  0
  7  2  1  0
 13  4  1  0
M  END
>  <identifier>  (956) 
CNP0262195.7

>  <canonical_smiles>  (956) 
CC1=C[C@@H]2[C@@H](CC1)[C@](C)(O)CC[C@H]2C(C)C

>  <standard_inchi>  (956) 
InChI=1S/C15H26O/c1-10(2)12-7-8-15(4,16)14-6-5-11(3)9-13(12)14/h9-10,12-14,16H,5-8H2,1-4H3/t12-,13-,14+,15+/m0/s1

>  <standard_inchi_key>  (956) 
LHYHMMRYTDARSZ-BYNSBNAKSA-N

>  <name>  (956) 
alpha-Cadinol

>  <iupac_name>  (956) 
(1~{R},4~{S},4~{a}~{R},8~{a}~{R})-4-isopropyl-1,6-dimethyl-3,4,4~{a},7,8,8~{a}-hexahydro-2~{H}-naphthalen-1-ol

>  <annotation_level>  (956) 
5

>  <total_atom_count>  (956) 
42

>  <heavy_atom_count>  (956) 
16

>  <molecular_weight>  (956) 
222.37

>  <exact_molecular_weight>  (956) 
222.19837

>  <molecular_formula>  (956) 
C15H26O

>  <alogp>  (956) 
3.78

>  <topological_polar_surface_area>  (956) 
20.23

>  <rotatable_bond_count>  (956) 
1

>  <hydrogen_bond_acceptors>  (956) 
1

>  <hydrogen_bond_donors>  (956) 
1

>  <hydrogen_bond_acceptors_lipinski>  (956) 
1

>  <hydrogen_bond_donors_lipinski>  (956) 
1

>  <lipinski_rule_of_five_violations>  (956) 
0

>  <aromatic_rings_count>  (956) 
0

>  <qed_drug_likeliness>  (956) 
0.67

>  <formal_charge>  (956) 
0

>  <fractioncsp3>  (956) 
0.87

>  <number_of_minimal_rings>  (956) 
2

>  <van_der_walls_volume>  (956) 
239.22

>  <contains_sugar>  (956) 
False

>  <contains_ring_sugars>  (956) 
False

>  <contains_linear_sugars>  (956) 
False

>  <murcko_framework>  (956) 
C1=CC2CCCCC2CC1

>  <np_likeness>  (956) 
3.14

>  <chemical_class>  (956) 
Prenol lipids

>  <chemical_sub_class>  (956) 
Sesquiterpenoids

>  <chemical_super_class>  (956) 
Lipids and lipid-like molecules

>  <direct_parent_classification>  (956) 
Sesquiterpenoids

>  <np_classifier_pathway>  (956) 
Terpenoids

>  <np_classifier_superclass>  (956) 
Sesquiterpenoids

>  <np_classifier_class>  (956) 
Cadinane sesquiterpenoids

>  <np_classifier_is_glycoside>  (956) 
False

>  <organisms>  (956) 
Achillea millefolium|Achyrospermum africanum|Acicarpha tribuloides|Aconitum ibukiense|Aconitum palmatum|Aconitum tianschanicum|Acremonium furcatum|Aeschynanthus parvifolius|Agastache foeniculum|Agastache rugosa|Agelas longissima|Aguacate|Aiouea costaricensis|Ajuga chamaepitys|Albatrellus caeruleoporus|Alpinia pulcherrima|Amanita pseudoporphyria|Anacardium humile|Anaphalis contorta|Angostura trifoliata|Aniba firmula|Aniba rosaeodora|Annona cascarilloides|Annona reticulata|Annona squamosa|Antidesma laciniatum|Aplysilla rosea|Aplysinella rhax|Arbacia pustulosa|Ariocarpus fissuratus|Aristolochia birostris|Aristolochia cymbifera|Aristolochia elegans|Aristolochia gigantea|Aristolochia littoralis|Aristolochia macroura|Aristolochia triangularis|Artemisia annua L.|Artemisia capillaries|Artemisia lagocephala|Artemisia vulgaris|Aster scaber|Austrobaileya scandens|Baccharis articulata|Baccharis dracunculifolia|Baccharis rufescens|Baccharoides lilacina|Beilschmiedia pendula|Bergenia crassifolia|Betula papyrifera|Bidens tripartita|Bignonia unguiscati|Bitter bush|Bonnemaisonia asparagoides|Boronia alata|Bouchardatia neurococca|Boykinia tellimoides|Breonia chinensis|Brucea javanica|Bufo bankorensis|Cacalia robusta|Caesalpinia Pulcherrima|Caesalpinia pulcherrima|Calendula officinalis|Callicarpa americana|Calocedrus formosana|Calocedrus macrolepis|Calypogeia muelleriana|Camellia sinensis|Campylotropis hirtella|Cananga odorata|Carpesium faberi|Centaurea arbutifolia|Centaurea musimomum|Ceropegia dichotoma|Chamaecyparis formosensis|Chamaecyparis lawsoniana|Chamaecyparis lawsoniana (A. Murray bis) Parl.|Chamaecyparis obtusa|Chamaecyparis obtusa var. formosana|Chamomilla recutita|Chamonixia caespitosa|Cheilanthes farinosa|Chlamydomonas allensworthii|Chromodoris cavae|Chrysopogon zizanioides|Cinnamomum parthenoxylon|Cinnamomum philippinense|Cinnamomum sieboldii|Cinnamomum zeylanicum|Cinnamon|Cionura erecta|Cistus albidus|Cladonia pityrea|Cladosiphon okamuranus|Claviceps microcephala|Cleistopholis patens|Cleome chrysantha|Cleonia lusitanica|Clerodendrum tomentosum|Cochlospermum angolense|Codonopsis cordifolioidea|Cordia trichotoma|Coronilla hyrcana|Corydalis sewerzowi|Corymbia citriodora|Corymbia maculata|Coscinoderma matthewsi|Crematogaster africana|Crinum moorei|Crotalaria candicans|Croton gossypiifolius|Croton jimenezii|Cryptolestes pusillus|Cryptomeria japonica|Cucumaria frondosa|Cupressus macnabiana|Curcuma Aeruginosa|Cyathus intermedius|Cymbopogon citratus|Cymbopogon nardus|Cyperus capitatus|Dacryodes normandii|Dahlstedtia pentaphylla|Daniellia oliveri|Delphinium tricorne|Dendrobium loddigesii|Distephanus angulifolius|Duguetia confinis|Echinocardium cordatum|Echinophora tournefortii|Ekimia bornmuelleri|Entandrophragma cylindricum|Ephedra altissima|Eremanthus arboreus|Eria japonica|Eria siamensis|Erica cinerea|Erigeron canadensis|Eriobotrya japonica|Erium villosum|Erylus nobilis|Etlingera pavieana|Eucalyptus apodophylla|Eucalyptus caleyi|Eucalyptus citriodora|Eucalyptus globulus subsp. bicostata|Euphausia superba|Ferula flabelliloba|Fevillea trilobata|Flemingia philippinensis|Fokienia hodginsii|Genista sessilifolia|Glaucium oxylobum|Glycosmis macrophylla|Gomphostemma parviflorum|Graphis handelii|Gymnodinium nagasakiense|Gypsophila perfoliata|Haemanthus albiflos|Haliotis diversicolor|Hedychium spicatum|Hedyosmum costaricense|Helichrysum armenium|Helichrysum odoratissimum|Helichrysum splendidum|Helleborus viridis|Heteranthemis viscidehirta|Hexalobus crispiflorus|Hippobroma longiflora|Homalomena aromatica|Hordeum bulbosum|Humulus lupulus|Hypericum coris|Hypericum japonicum|Hypericum polyanthemum|Hyptis suaveolens|Illicium difengpi|Illicium merrillianum|Iris sibirica|Isolona pilosa|Jackiella javanica|Jatropha gossypiifolia|Jugo|Juniperus comitana|Juniperus communis|Juniperus drupacea|Juniperus formosana|Juniperus gamboana|Juniperus oxycedrus|Juniperus sabina|Juniperus standleyi|Juniperus taxifolia|Karenia mikimotoi|Keyserlingia koreensis|Kuloa usambarensis|Lactarius torminosus|Lambertella corni|Lantana camara|Larix kaempferi|Launea|Lavandula stoechas|Lecanora sulphurata|Leonotis leonurus|Lepechinia caulescens|Lepechinia chamaedryoides|Lepechinia chilensis|Lepechinia floribunda|Lepidorhinus squamosus|Liatris microcephala|Liquidambar styraciflua|Litsea acutivena|Litsea nitida|Lobelia langeana|Machaerium kuhlmannii|Machilus zuihoensis var. mushaensis|Magnolia henryi|Maprounea guianensis|Martensia denticulata|Matricaria chamomilla|Matricaria pubescens|Maytenus emarginata|Melaleuca Leucadendra|Melissa officinalis|Mentha cardiaca|Mentha longifolia|Mentha spicata|Micromelum falcatum|Micromeria biflora|Mocis latipes|Monodora brevipes|Monodora undulata|Morina persica|Mulguraea tridens|Mycale tenuis|Mycetinis alliaceus|Mycosphaerella nawae|Myrcia tricona|Mytilus galloprovincialis|Nelumbo lutea|Neolentinus lepideus|Neolitsea parvigemma|Neolitsea variabillima|Nepeta trachonitica|Ocotea gomezii|Ocotea usambarensis|Ononis spinosa|Onoseris alata|Origanum vulgare|Pallenis spinosa|Pelargonium endlicherianum|Peltophorum dubium|Penicilliopsis clavariiformis|Pentaclethra macrophylla|Periploca sepium|Peritassa campestris|Persea tolimanensis|Petrosia corticata|Philadelphia fleabane|Phoma asparagi|Phyllocladus trichomanoides|Pimenta dioica|Pimenta racemosa|Pinus cembra L.|Pinus mugo Turra|Pinus nigra J. F. Arnold|Pinus pumila|Pinus sylvestris|Pinus sylvestris L.|Piper acutifolium|Piper arboreum|Piper augustum|Piper auritum|Piper cernuum|Piper dactylostigmum|Piper fimbriulatum|Piper gaudichaudianum|Piper regnellii|Pittosporum viridiflorum|Platostoma africanum|Plectranthus myrianthus|Pleiospermium alatum|Pogostemon travancoricus|Polyalthia Cerasoides|Polygonum Minus|Pongamia Pinnata|Pongamia pinnata|Porphyra tenera|Prangos uechtritzii|Prunus pseudocerasus|Pseudobrickellia brasiliensis|Pseudomonas fluorescens|Pseudotsuga sinensis var. sinensis|Pseudotsuga sinensis var. wilsoniana|Psiadia altissima|Psidium salutare|Psilotum nudum|Pterocarpus dalbergioides|Pterocaulon virgatum|Pulicaria stephanocarpa|Pycnothymus rigidus|Rhizophagus intraradices|Rhodiola semenovii|Riccia fluitans|Salvia dorisiana|Salvia miniata|Salvia mirzayanii|Salvia officinalis|Salvia sessei|Salvia tomentosa|Santolina chamaecyparissus|Sanvitalia ocymoides|Sassafras albidum|Satureja wiedemanniana|Saussurea involucrata|Schinus molle|Schisandra glaucescens|Scutellaria barbata|Scytonema ocellatum|Senecio adenophyllus|Senecio zoellneri|Sibiraea angustata|Sideritis lanata|Sideritis lyciae|Smallanthus maculatus|Solanum diflorum|Solidago canadensis|Sonneratia caseolaris|Spondias mombin|Staehelina fruticosa|Stephania zippeliana|Streptomyces cyaneus|Streptomyces fradiae|Streptomyces sakaiensis|Tagetes lucida|Taiwania cryptomerioides|Talaromyces variabilis|Tamarix dioica|Tetradenia riparia|Teucrium asiaticum|Teucrium leucocladum|Teucrium montanum|Teucrium oxylepis|Teucrium pestalozzae|Teucrium polium|Teucrium pseudoscorodonia|Teucrium salviastrum|Teucrium sandrasicum|Teucrium scorodonia|Teucrium scorodonia L. subsp. baeticum|Teucrium stocksianum|Thalictrum sachalinense|Thelepus setosus|Thuja occidentalis|Thulinella chrysantha|Thymus camphoratus|Thymus funkii|Thymus longiflorus|Thymus riatarum|Thymus willkommii|Thymus zygis|Toona ciliata|Trapa bicornis|Trichocereus bridgesii|Tripterygium wilfordii|Tristania conferta|Uvaria chamae|Valeriana officinalis|Vallaris heynei|Varronia curassavica|Vellozia streptophylla|Vernonia aurea|Vernonia cistifolia|Veronica polita|Virola surinamensis|Vitex negundo|West African Pepper|Xanthium canadense|Xenophyllum poposum|Xylopia sericea|Xyris indica|Zanthoxylum nitidum|Zanthoxylum schinifolium|Zingiber mioga|Zingiber officinale|Zygosaccharomyces rouxii|candyleaf|potato

>  <collections>  (956) 
ANPDB|Australian natural products|CMAUP (cCollective molecular activities of useful plants)|ChEBI NPs|EMNPD|Latin America dataset|NANPDB (Natural Products from Northern African Sources)|NAPRORE-CR|NPASS|NuBBEDB|Phyto4Health|SANCDB|Super Natural II|TCMDB-Taiwan (Traditional Chinese Medicine database)|TPPT (Toxic Plants–PhytoToxins)|VietHerb|WikiData Natural Products

>  <dois>  (956) 
10.1002/(SICI)1099-1026(199601)11:1<15::AID-FFJ541>3.0.CO;2-H|10.1002/(SICI)1099-1026(199701)12:1<47::AID-FFJ610>3.0.CO;2-7|10.1002/(SICI)1099-1026(199901/02)14:1<15::AID-FFJ777>3.0.CO;2-M|10.1002/1099-1026(200005/06)15:3<201::AID-FFJ893>3.0.CO;2-I|10.1002/1099-1573(200006)14:4<284::AID-PTR599>3.0.CO;2-Y|10.1002/CHIN.200403183|10.1002/FFJ.1096|10.1002/FFJ.1128|10.1002/FFJ.2730010103|10.1002/FFJ.2730030208|10.1002/FFJ.2730060306|10.1002/FFJ.2730070109|10.1002/FFJ.2730100310|10.1002/FFJ.2730100609|10.1002/HLCA.201200359|10.1002/JCCS.200000074|10.1002/JLAC.19717450107|10.1002/JPS.3030440906|10.1002/PCA.2800050503|10.1002/PCA.594|10.1002/biuz.19840140514|10.1006/JFCA.2000.0968|10.1007/BF00630335|10.1007/BF00714911|10.1007/BF02312888|10.1016/0031-9422(88)80461-8|10.1016/0031-9422(90)83036-Z|10.1016/0031-9422(90)85421-B|10.1016/0031-9422(91)83632-U|10.1016/0031-9422(91)83757-C|10.1016/0031-9422(91)85146-Q|10.1016/0031-9422(92)80160-G|10.1016/0031-9422(92)83123-G|10.1016/0031-9422(93)85295-3|10.1016/0031-9422(95)00013-W|10.1016/0031-9422(95)00347-A|10.1016/0031-9422(95)00405-V|10.1016/0305-1978(85)90081-X|10.1016/0305-1978(96)00023-3|10.1016/J.BSE.2003.12.009|10.1016/J.JPBA.2011.01.016|10.1016/J.PHYTOCHEM.2003.08.004|10.1016/J.PHYTOCHEM.2005.05.012|10.1016/J.PHYTOCHEM.2008.12.006|10.1016/J.PHYTOCHEM.2011.09.002|10.1016/J.SAJB.2014.10.006|10.1016/S0031-9422(00)00275-2|10.1016/S0031-9422(00)80774-8|10.1016/S0031-9422(00)81118-8|10.1016/S0031-9422(00)83061-7|10.1016/S0031-9422(00)83062-9|10.1016/S0031-9422(00)83498-6|10.1016/S0031-9422(00)84035-2|10.1016/S0031-9422(00)84802-5|10.1016/S0031-9422(00)95204-X|10.1016/S0031-9422(00)98011-7|10.1016/S0031-9422(02)00207-8|10.1016/S0031-9422(97)00117-9|10.1016/S0031-9422(97)00324-5|10.1016/S0031-9422(97)00400-7|10.1016/S0031-9422(97)00671-7|10.1016/S0031-9422(97)00762-0|10.1016/S0031-9422(97)01124-2|10.1016/S0031-9422(97)84396-8|10.1016/S0031-9422(98)00283-0|10.1016/S0031-9422(98)00577-9|10.1016/S0031-9422(99)00074-6|10.1016/S0031-9422(99)00601-9|10.1016/S0040-4020(01)96690-6|10.1016/S0305-1978(03)00098-X|10.1016/S0367-326X(00)00154-4|10.1016/S0367-326X(02)00171-5|10.1016/S0378-8741(01)00211-2|10.1016/S0378-8741(99)00072-0|10.1016/j.phytochem.2011.09.002|10.1016/j.sajb.2014.10.006|10.1021/JF00034A033|10.1021/JF00035A029|10.1021/JF00069A028|10.1021/JF00083A001|10.1021/JF00116A075|10.1021/JF00118A056|10.1021/JF0116303|10.1021/JF60199A051|10.1021/JO01159A001|10.1021/NP0101402|10.1021/NP030207G|10.1021/NP030515E|10.1021/NP058090E|10.1021/NP50039A032|10.1021/NP50040A040|10.1021/NP50052A027|10.1021/NP50058A023|10.1021/NP50117A013|10.1021/NP50121A011|10.1021/NP700745F|10.1021/NP960513C|10.1021/np030207g|10.1021/np960513c|10.1055/S-0028-1097957|10.1055/S-2000-8627|10.1055/S-2001-18363|10.1055/S-2006-959379|10.1055/S-2006-959580|10.1055/S-2006-959673|10.1055/S-2006-959674|10.1055/S-2006-960032|10.1055/S-2006-960356|10.1055/S-2006-960872|10.1055/S-2006-961452|10.1055/S-2006-962016|10.1055/S-2006-962093|10.1055/S-2006-962450|10.1055/S-2006-962685|10.1055/S-2007-969487|10.1055/S-2007-969499|10.1076/1388-0209(200004)3821-1FT106|10.1080/0972060x.2009.10643771|10.1080/10412905.1989.9697801|10.1080/10412905.1989.9699439|10.1080/10412905.1990.9697864|10.1080/10412905.1991.9697905|10.1080/10412905.1991.9697930|10.1080/10412905.1991.9697932|10.1080/10412905.1991.9697952|10.1080/10412905.1991.9697980|10.1080/10412905.1991.9697985|10.1080/10412905.1992.9698069|10.1080/10412905.1992.9698080|10.1080/10412905.1992.9698101|10.1080/10412905.1992.9698109|10.1080/10412905.1992.9698127|10.1080/10412905.1992.9698139|10.1080/10412905.1993.9698177|10.1080/10412905.1993.9698235|10.1080/10412905.1993.9698253|10.1080/10412905.1994.9698344|10.1080/10412905.1994.9698380|10.1080/10412905.1994.9698395|10.1080/10412905.1994.9698414|10.1080/10412905.1994.9698435|10.1080/10412905.1994.9698446|10.1080/10412905.1994.9699347|10.1080/10412905.1994.9699362|10.1080/10412905.1995.9698462|10.1080/10412905.1995.9698473|10.1080/10412905.1995.9698496|10.1080/10412905.1996.9700559|10.1080/10412905.1997.9700708|10.1080/10412905.1997.9700709|10.1080/10412905.1997.9700774|10.1080/10412905.1997.9700812|10.1080/10412905.1997.9700813|10.1080/10412905.1998.9700856|10.1080/10412905.1998.9700913|10.1080/10412905.1998.9701015|10.1080/10412905.1999.9701059|10.1080/10412905.1999.9701096|10.1080/10412905.1999.9701102|10.1080/10412905.1999.9701111|10.1080/10412905.1999.9701144|10.1080/10412905.2000.9712032|10.1080/10412905.2000.9712050|10.1080/10412905.2000.9712159|10.1080/10412905.2000.9712178|10.1080/10412905.2001.9699706|10.1080/10412905.2002.9699759|10.1080/10412905.2002.9699883|10.1080/10412905.2004.9698740|10.1080/10412905.2010.9700320|10.1080/10412905.2010.9700389|10.1080/10412905.2018.1431966|10.1080/10575630108041269|10.1080/14786410701848154|10.1246/BCSJ.37.474|10.1246/BCSJ.8.371|10.1248/CPB.50.133|10.1248/CPB.51.986|10.1248/YAKUSHI1947.106.1_17|10.1255/EJMS.1252|10.1255/ejms.1252|10.1271/BBB1961.45.507|10.1271/BBB1961.52.2961|10.1271/BBB1961.55.1655|10.1515/HF.2000.041|10.1515/HFSG.1973.27.3.93|10.1515/ZNC-2002-11-1206|10.1590/S0103-50532000000600012|10.1590/S0103-50532001000600016|10.1590/S0103-50532011000400018|10.1673/031.011.15201|10.17660/ACTAHORTIC.1999.500.11|10.2307/2423424|10.23893/1307-2080.APS.05611|10.3109/13880209009082783|10.4324/9780203219430_CHAPTER_13|10.5897/JMPR10.078

>  <synonyms>  (956) 
(-)-alpha-Cadinol|(1R,4S,4AR,8AR)-1,2,3,4,4A,7,8,8A-OCTAHYDRO-1,6-DIMETHYL-4-(1-METHYLETHYL)-1-NAPHTHALENOL|(1R,4S,4aR,8aR)-1,6-dimethyl-4-propan-2-yl-3,4,4a,7,8,8a-hexahydro-2H-naphthalen-1-ol|(1R,4S,4aR,8aR)-4-Isopropyl-1,6-dimethyl-1,2,3,4,4a,7,8,8a-octahydronaphthalen-1-ol|(1R-(1.ALPHA.,4.BETA.,4A.BETA.,8A.ALPHA.))-|.ALPHA.-CADINOL, (-)-|.alpha.-Cadinol|1-NAPHTHALENOL, 1,2,3,4,4A,7,8,8A-OCTAHYDRO-1,6-DIMETHYL-4-(1-METHYLETHYL)-,|1-Naphthalenol, 1,2,3,4,4a,7,8,8a-octahydro-1,6-dimethyl-4-(1-methylethyl)-, (1R,4S,4aR,8aR)-|481-34-5|CADINOL, ALPHA-|CHEBI:132905|CHEMBL486795|Cadin-4-en-10-ol|DC0YJ4816P|DTXSID701017679|NS00093939|Q4734900|SCHEMBL4276031|UNII-DC0YJ4816P|\u221a\u00e9\u00ac\u00b1-Cadinol|_-cadinol|a-Cadinol|alpha-Cadinol, (-)-|alpha-cadinol|l-alpha-Cadinol

>  <cas>  (956) 
481-34-5

$$$$

     RDKit          2D

 31 35  0  0  0  0  0  0  0  0999 V2000
   -7.6683   -3.8358    0.0000 C   0  0  0  0  0  0  0  0  0  0  0  0
   -7.3520   -2.3695    0.0000 C   0  0  0  0  0  0  0  0  0  0  0  0
   -8.4637   -1.3625    0.0000 C   0  0  0  0  0  0  0  0  0  0  0  0
   -5.9241   -1.9103    0.0000 C   0  0  0  0  0  0  0  0  0  0  0  0
   -5.6078   -0.4440    0.0000 C   0  0  0  0  0  0  0  0  0  0  0  0
   -4.1799    0.0153    0.0000 C   0  0  0  0  0  0  0  0  0  0  0  0
   -3.8636    1.4816    0.0000 C   0  0  0  0  0  0  0  0  0  0  0  0
   -4.9753    2.4886    0.0000 C   0  0  0  0  0  0  0  0  0  0  0  0
   -2.4356    1.9408    0.0000 C   0  0  0  0  0  0  0  0  0  0  0  0
   -1.9679    3.3660    0.0000 C   0  0  0  0  0  0  0  0  0  0  0  0
   -0.4679    3.3615    0.0000 C   0  0  0  0  0  0  0  0  0  0  0  0
   -0.0086    1.9336    0.0000 C   0  0  0  0  0  0  0  0  0  0  0  0
    1.1091    2.9339    0.0000 C   0  0  0  0  0  0  0  0  0  0  0  0
    1.3599    1.3194    0.0000 C   0  0  0  0  0  0  0  0  0  0  0  0
    2.5760    2.1974    0.0000 C   0  0  0  0  0  0  0  0  0  0  0  0
    3.9445    1.5832    0.0000 C   0  0  0  0  0  0  0  0  0  0  0  0
    4.0969    0.0910    0.0000 C   0  0  0  0  0  0  0  0  0  0  0  0
    5.4654   -0.5232    0.0000 C   0  0  0  0  0  0  0  0  0  0  0  0
    6.9614   -0.6323    0.0000 C   0  0  0  0  0  0  0  0  0  0  0  0
    5.8326    0.9311    0.0000 C   0  0  0  0  0  0  0  0  0  0  0  0
    5.6177   -2.0155    0.0000 C   0  0  0  0  0  0  0  0  0  0  0  0
    6.9862   -2.6297    0.0000 O   0  0  0  0  0  0  0  0  0  0  0  0
    4.4015   -2.8935    0.0000 C   0  0  0  0  0  0  0  0  0  0  0  0
    3.0331   -2.2793    0.0000 C   0  0  0  0  0  0  0  0  0  0  0  0
    2.8807   -0.7871    0.0000 C   0  0  0  0  0  0  0  0  0  0  0  0
    1.6646   -1.6651    0.0000 C   0  0  0  0  0  0  0  0  0  0  0  0
    1.5122   -0.1729    0.0000 C   0  0  0  0  0  0  0  0  0  0  0  0
    0.2961   -1.0509    0.0000 C   0  0  0  0  0  0  0  0  0  0  0  0
   -1.0724   -0.4367    0.0000 C   0  0  0  0  0  0  0  0  0  0  0  0
   -1.2248    1.0555    0.0000 C   0  0  0  0  0  0  0  0  0  0  0  0
   -2.5260    0.3094    0.0000 C   0  0  0  0  0  0  0  0  0  0  0  0
  1  2  1  0
  2  3  1  0
  2  4  2  0
  4  5  1  0
  5  6  1  0
  6  7  1  0
  7  8  1  1
  7  9  1  0
  9 10  1  1
 10 11  1  0
 11 12  1  0
 12 13  1  6
 12 14  1  0
 14 15  1  6
 15 16  1  0
 17 16  1  1
 17 18  1  0
 18 19  1  0
 18 20  1  0
 18 21  1  0
 21 22  1  1
 21 23  1  0
 23 24  1  0
 25 24  1  6
 25 26  1  0
 27 26  1  1
 27 28  1  0
 28 29  1  0
 29 30  1  0
 30 31  1  1
 30  9  1  0
 30 12  1  0
 27 14  1  0
 25 17  1  0
 27 25  1  0
M  END
>  <identifier>  (957) 
CNP0224096.9

>  <canonical_smiles>  (957) 
CC(C)=CCC[C@@H](C)[C@H]1CC[C@@]2(C)[C@@H]3CC[C@H]4C(C)(C)[C@@H](O)CC[C@@]45C[C@@]35CC[C@]12C

>  <standard_inchi>  (957) 
InChI=1S/C30H50O/c1-20(2)9-8-10-21(3)22-13-15-28(7)24-12-11-23-26(4,5)25(31)14-16-29(23)19-30(24,29)18-17-27(22,28)6/h9,21-25,31H,8,10-19H2,1-7H3/t21-,22-,23+,24+,25+,27-,28+,29-,30+/m1/s1

>  <standard_inchi_key>  (957) 
ONQRKEUAIJMULO-YBXTVTTCSA-N

>  <name>  (957) 
Cycloartenol

>  <iupac_name>  (957) 
(1~{S},3~{R},6~{S},8~{R},11~{S},12~{S},15~{R},16~{R})-15-[(1~{R})-1,5-dimethylhex-4-enyl]-7,7,12,16-tetramethyl-pentacyclo[9.7.0.0^{1,3}.0^{3,8}.0^{12,16}]octadecan-6-ol

>  <annotation_level>  (957) 
5

>  <total_atom_count>  (957) 
81

>  <heavy_atom_count>  (957) 
31

>  <molecular_weight>  (957) 
426.73

>  <exact_molecular_weight>  (957) 
426.38617

>  <molecular_formula>  (957) 
C30H50O

>  <alogp>  (957) 
8.17

>  <topological_polar_surface_area>  (957) 
20.23

>  <rotatable_bond_count>  (957) 
4

>  <hydrogen_bond_acceptors>  (957) 
1

>  <hydrogen_bond_donors>  (957) 
1

>  <hydrogen_bond_acceptors_lipinski>  (957) 
1

>  <hydrogen_bond_donors_lipinski>  (957) 
1

>  <lipinski_rule_of_five_violations>  (957) 
1

>  <aromatic_rings_count>  (957) 
0

>  <qed_drug_likeliness>  (957) 
0.45

>  <formal_charge>  (957) 
0

>  <fractioncsp3>  (957) 
0.93

>  <number_of_minimal_rings>  (957) 
5

>  <van_der_walls_volume>  (957) 
452.66

>  <contains_sugar>  (957) 
False

>  <contains_ring_sugars>  (957) 
False

>  <contains_linear_sugars>  (957) 
False

>  <murcko_framework>  (957) 
C1CCC23CC43CCC5CCCC5C4CCC2C1

>  <np_likeness>  (957) 
3.30

>  <chemical_class>  (957) 
Steroids and steroid derivatives

>  <chemical_sub_class>  (957) 
Cycloartanols and derivatives

>  <chemical_super_class>  (957) 
Lipids and lipid-like molecules

>  <direct_parent_classification>  (957) 
Cycloartanols and derivatives

>  <np_classifier_pathway>  (957) 
Terpenoids

>  <np_classifier_superclass>  (957) 
Triterpenoids

>  <np_classifier_class>  (957) 
Cycloartane triterpenoids

>  <np_classifier_is_glycoside>  (957) 
False

>  <organisms>  (957) 
Aaptos aaptos|Abrus precatorius|Acer pycnanthum|Aconitum nevadense|Actaea simplex|Adiantum caudatum|Agathosma betulina|Aglaia elaeagnoidea|Aglaia lawii|Aglaia roxburghiana|Ajuga reptans|Aloe microstigma|Alseodaphne corneri|Amaioua guianensis|Amberboa ramosa|American ginseng|Anastrophyllum donnianum|Andira paruiflora|Andira parviflora|Annona impressivenia|Antitrogus consanguineus|Aplidium multiplicatum|Aplysina fistularis|Arnica sachalinensis|Artocarpus integer|Aspergillus unguis|Aulacocephalus temmincki|Avena sativa|Axinella polypoides|Axinella verrucosa|Azolla nilotica|Baccharis santelicis|Baccharoides anthelmintica|Berberis aquifolium|Berchemia floribunda|Bersama yangambiensis|Beta vulgaris|Betula maximowicziana|Brya ebenus|Bryonia dioica|Bryum rutilans|Bugula neritina|Cajanus cajan|Calanthe arisanensis|Calendula officinalis|Calendula sp.|Calotropis gigantea|Camellia japonica|Camellia oleifera|Camellia sasanqua|Camellia sinensis|Capsicum annuum|Carnegiea gigantea|Carthamus tinctorius|Casearia ilicifolia|Castanopsis sclerophylla|Centaurea napifolia|Chamomilla suaveolens|Channa argus|Chlamydomonas reinhardtii|Choisya arizonica|Chrozophora prostrata|Chrysanthemum morifolium|Chrysosplenium oppositifolium|Cicer arietinum|Cimicifuga simplex|Citrus chachiensis|Clerodendrum splendens|Comamonas testosteroni|Conocephalum japonicum|Cordylanthus kingii|Corydalis taliensis|Cosmos bipinnatus|Crataegus monogyna|Crinipellis scabella|Crinum latifolium|Croton cumingii|Cucumis melo|Curculigo orchioides|Cuscuta campestris|Cyperus conglomeratus|Cystophora scalaris|Dendranthema morifolium|Digitalis lanata|Dioscorea bartlettii|Dioscorea convolvulacea|Dioscorea floribunda|Dioscorea hondurensis|Dioscorea nelsonii|Diplopteraster multipes|Diplopterygium glaucum|Diploschistes cretaceus|Disynaphia halimifolia|Doodia picta|Elaeagnus angustifolia|Enteromorpha intestinalis|Ephedra equisetina|Epimedium sagittatum|Eragrostis viscosa|Eriocephalus scariosus|Eriogonum nudum|Erythrina sandwicensis|Eunicella cavolinii|Euphorbia Neriifolia|Euphorbia balsamifera|Euphorbia boetica|Euphorbia broteri|Euphorbia bupleuroides|Euphorbia caducifolia|Euphorbia characias|Euphorbia cyparissias|Euphorbia ebracteolata|Euphorbia fischeriana|Euphorbia guyoniana|Euphorbia hirta|Euphorbia kansui|Euphorbia lathyris|Euphorbia mellifera|Euphorbia neriifolia|Euphorbia nicaeensis|Euphorbia oxyphylla|Euphorbia paralias|Euphorbia peplus|Euphorbia piscatoria|Euphorbia plumerioides|Euphorbia portulacoides|Euphorbia pulcherrima|Euphorbia rigida|Euphorbia segetalis|Euphorbia seguieri|Euphorbia seguieriana|Euphorbia sp.|Euphorbia stygiana|Euphorbia tithymaloides|Excoecaria agallocha|Ficus macrophylla|Forsteronia refracta|Fridericia chica|Garcinia kola|Garcinia mangostana|Garcinia sp.|Girgensohnia diptera|Gleichenia japonica|Glycine Max|Glycine max|Glycine sp.|Gmelina arborea|Goniophlebium formosanum|Gossypium hirsutum|Grewia mollis|Gymnocarpium robertianum|Gynura japonica|Haminoea orbignyana|Hedysarum multijugum|Helianthus debilis|Heliotropium floridum|Hellenia speciosa|Hepialus hecta|Herbertus aduncus|Heterotheca grandiflora|Heterotheca inuloides|Himatanthus articulatus|Hippophae rhamnoides|Hornschuchia citriodora|Hovenia acerba|Hyacinthoides hispanica|Hydnocarpus octandra|Hygrophila polysperma|Hypopitys monotropa|Ifloga spicata|Incarvillea emodi|Isodon japonicus|Ixeris chinensis|Juglans nigra|Kaempferia marginata|Kaunia saltensis|Knema attenuata|Krameria bicolor|Krameria grayi|Krameria sonorae|Larix gmelinii|Larix sp.|Lathyrus sativus|Lens culinaris|Lepidagathis cristata|Leptadenia hastata|Lessertia frutescens|Leucilla nuttingi|Leucosolenia eleanor|Linum Usitatissimum|Lophozia ventricosa|Macfadyena cynanchoides|Macrocystis pyrifera|Mangifera indica|Maquira coriacea|Mastigophora diclados|Matricaria discoidea|Matricaria matricarioides|Mcneillia graminifolia|Meridiastra calcar|Milleria quinqueflora|Momordica charantia|Monotropa hypopitys|Monotropa uniflora|Monticalia firmipes|Morinda citrifolia|Mucuna sloanei|Mycale laxissima|Myelochroa rhytidodes|Narcissus concolor|Nauclea officinalis|Nelumbo nucifera|Neolitsea aciculata|Nervilia fordii|Nicotiana benthamiana|Nicotiana debneyi|Nicotiana forsteri|Nicotiana fragrans|Nicotiana paniculata|Nicotiana tabacum|Nigella sativa|Notholaena peninsularis|Ochrocarpos odoratus|Oenothera biennis|Olea europaea|Oleandra wallichii|Oligochaeta divaricata|Oligonychus bessardi|Oncoba echinata|Ononis sp.|Ophiolepis superba|Oryza sp.|Paeonia emodi|Paeonia lactiflora|Paeonia rockii|Panax ginseng|Papaver sommiferum|Papaver somniferum|Papilio phorcas|Parabenzoin trilobum|Pedilanthus Tithymaloides|Peridinium foliaceum|Persea sp.|Petrosia ficiformis|Philotheca myoporoides|Phlomis regelii|Physalis peruviana|Phytolacca americana|Phytolacca sp.|Pinellia ternata|Pinus sitchensis|Pistacia sp.|Pisum sativum|Pittosporum viridiflorum|Plexaurella grisea|Plumbago zeylanica|Polycephalomyces nipponicus|Pseudocedrela kotschyi|Pseudonocardia compacta|Pseudotaxus chienii|Psilotum nudum|Punctelia microsticta|Rabdosia macrocalyx|Rhizopogon pumilionus|Rhodomonas salina|Roldana barba-johannis|Roldana sessilifolia|Rothmannia urcelliformis|Rubrivivax gelatinosus|Ruta pinnata|Salvia dorrii|Sambucus sp.|Santolina rosmarinifolia|Sapium pachystachys|Scutellaria discolor|Sea lettuce|Senecio coahuilensis|Senecio lydenburgensis|Senecio othonniformis|Serratula xeranthemoides|Sesamum alatum|Sesamum angustifolium|Sesamum radiatum|Sinularia manaarensis|Smallanthus glabratus|Smilax glabra|Smilax sp.|Solanum aethiopicum|Solanum aviculare|Solanum melongena|Solanum virginianum|Solidago canadensis|Sophora angustifolia|Sphaeria biglobosa|Sphaeria doliolum|Stevia polycephala|Streptocaulon juventas|Streptomyces parvisporogenes|Streptomyces sclerotialus|Swertia decora|Symphoricarpos albus|Tabernaemontana divaricata|Taraxacum platycarpum|Taraxacum sp.|Tethya aurantia|Tethya aurantium|Teucrium depressum|Theonella cupola|Thymus piperella|Tillandsia recurvata|Tillandsia streptocarpa|Tillandsia usneoides|Trichilia rubescens|Tritomaria quinquedentata|Ulva intestinalis|Ulva lactuca|Ulva pertusa|Unknown sp.|Vahlia capensis|Venidium hirsutum|Veratrum eschscholtzii|Vicoa vestita|Vigna cylindrica|Vigna mungo|Vigna unguiculata|Vitis vinifera|Woodwardia radicans|Xanthosoma robustum|Xylopia columbiana|Zantedeschia aethiopica|common dandelion|common sunflower|maize|rice bran|sesame|soybean|tomato

>  <collections>  (957) 
ANPDB|Australian natural products|CMAUP (cCollective molecular activities of useful plants)|ChEBI NPs|Latin America dataset|NANPDB (Natural Products from Northern African Sources)|NPASS|NPAtlas|NuBBEDB|Phyto4Health|PhytoLab phyproof® Reference Substances|SANCDB|Super Natural II|TCMDB-Taiwan (Traditional Chinese Medicine database)|VietHerb|WikiData Natural Products|ZINC NP

>  <dois>  (957) 
10.1002/ARDP.19873200503|10.1002/CHIN.200052207|10.1002/JCCS.200400211|10.1002/JSFA.2740590309|10.1002/PTR.1003|10.1007/BF00574580|10.1007/BF00579142|10.1007/BF00580051|10.1007/BF02236284|10.1007/BF02249647|10.1007/BF02534064|10.1007/BF02534857|10.1007/BF02537347|10.1007/BF02541591|10.1007/BF02541638|10.1007/BF02637687|10.1007/BF02645749|10.1007/BF02660305|10.1007/BF02679791|10.1007/S10600-012-0194-4|10.1016/0006-291X(91)92021-B|10.1016/0031-9422(73)80027-5|10.1016/0031-9422(73)85046-0|10.1016/0031-9422(77)84040-5|10.1016/0031-9422(80)83085-8|10.1016/0031-9422(82)83165-8|10.1016/0031-9422(82)85222-9|10.1016/0031-9422(84)83081-2|10.1016/0031-9422(86)88046-3|10.1016/0031-9422(88)80428-X|10.1016/0031-9422(88)83136-4|10.1016/0031-9422(90)85028-E|10.1016/0031-9422(91)84139-J|10.1016/0031-9422(91)84157-N|10.1016/0031-9422(92)80289-Q|10.1016/0031-9422(92)80369-P|10.1016/0031-9422(92)83142-L|10.1016/0031-9422(93)85112-5|10.1016/0031-9422(94)00710-B|10.1016/0031-9422(94)00932-J|10.1016/0031-9422(95)00075-I|10.1016/0031-9422(95)00514-8|10.1016/0031-9422(95)00752-0|10.1016/0031-9422(95)00765-2|10.1016/0039-128X(77)90011-3|10.1016/0305-0491(91)90140-9|10.1016/0305-1978(91)90037-Z|10.1016/J.BMC.2004.08.048|10.1016/J.BMC.2005.09.010|10.1016/J.FITOTE.2004.06.007|10.1016/J.FOODRES.2020.109416|10.1016/J.JCHROMB.2004.08.047|10.1016/J.JEP.2004.07.022|10.1016/J.PHYTOCHEM.2007.01.017|10.1016/J.PHYTOL.2014.09.011|10.1016/S0021-9673(96)01091-6|10.1016/S0031-9422(00)00062-5|10.1016/S0031-9422(00)80073-4|10.1016/S0031-9422(00)80074-6|10.1016/S0031-9422(00)80342-8|10.1016/S0031-9422(00)81748-3|10.1016/S0031-9422(00)82185-8|10.1016/S0031-9422(00)82286-4|10.1016/S0031-9422(00)83192-1|10.1016/S0031-9422(00)83495-0|10.1016/S0031-9422(00)83830-3|10.1016/S0031-9422(00)85859-8|10.1016/S0031-9422(00)90655-1|10.1016/S0031-9422(00)94844-1|10.1016/S0031-9422(00)95020-9|10.1016/S0031-9422(00)97034-1|10.1016/S0031-9422(00)97405-3|10.1016/S0031-9422(00)97767-7|10.1016/S0031-9422(00)97846-4|10.1016/S0031-9422(00)97902-0|10.1016/S0031-9422(00)97943-3|10.1016/S0031-9422(01)00383-1|10.1016/S0031-9422(96)00343-3|10.1016/S0031-9422(96)00466-9|10.1016/S0031-9422(96)00512-2|10.1016/S0031-9422(96)00657-7|10.1016/S0031-9422(97)00832-7|10.1016/S0031-9422(97)01011-X|10.1016/S0031-9422(97)01126-6|10.1016/S0031-9422(98)00044-2|10.1016/S0031-9422(98)00092-2|10.1016/S0031-9422(98)00656-6|10.1016/S0031-9422(99)00047-3|10.1016/S0305-1978(99)00085-X|10.1016/S0367-326X(01)00317-3|10.1016/j.foodres.2020.109416|10.1016/j.phytochem.2007.01.017|10.1021/JF010813M|10.1021/NP070174V|10.1021/NP50032A024|10.1021/NP50121A013|10.1021/NP50126A020|10.1021/NP960075+|10.1021/NP990081G|10.1021/np068044u|10.1039/P19880002407|10.1039/P19890000261|10.1046/j.1365-2958.2003.03309.x|10.1055/S-0028-1097371|10.1055/S-0028-1097375|10.1055/S-2006-957747|10.1055/S-2006-957893|10.1055/S-2006-959456|10.1055/S-2006-959579|10.1055/S-2006-959586|10.1055/S-2006-961492|10.1055/S-2006-962328|10.1055/S-2006-962427|10.1071/ch9650226|10.1080/1057563031000122103|10.1080/14786419.2019.1648457|10.1086/333834|10.1093/JXB/ERG184|10.1104/PP.89.2.681|10.1211/0022357001773607|10.1248/BPB.33.267|10.1248/CPB.41.624|10.1248/CPB.44.1202|10.1248/CPB.44.509|10.1248/CPB.45.2016|10.1248/CPB.47.1157|10.1248/CPB.52.1382|10.1248/YAKUSHI1947.111.2_120|10.1271/BBB1961.50.2921|10.1515/ZNB-1985-0420|10.1515/ZNC-1983-5-628|10.1590/S0103-50531998000500004|10.3109/10915819309140647|10.3109/13880209509065369|10.3390/foods9060770

>  <synonyms>  (957) 
nan

>  <cas>  (957) 
469-38-5

$$$$

     RDKit          2D

 24 25  0  0  0  0  0  0  0  0999 V2000
   -7.4724    0.7306    0.0000 C   0  0  0  0  0  0  0  0  0  0  0  0
   -6.0735    0.1891    0.0000 C   0  0  0  0  0  0  0  0  0  0  0  0
   -5.8429   -1.2930    0.0000 C   0  0  0  0  0  0  0  0  0  0  0  0
   -4.9052    1.1299    0.0000 C   0  0  0  0  0  0  0  0  0  0  0  0
   -3.5063    0.5884    0.0000 C   0  0  0  0  0  0  0  0  0  0  0  0
   -2.3380    1.5292    0.0000 C   0  0  0  0  0  0  0  0  0  0  0  0
   -0.9391    0.9878    0.0000 C   0  0  0  0  0  0  0  0  0  0  0  0
   -1.7152   -0.2958    0.0000 C   0  0  0  0  0  0  0  0  0  0  0  0
   -0.6488    2.4594    0.0000 C   0  0  0  0  0  0  0  0  0  0  0  0
    0.7708    2.9438    0.0000 C   0  0  0  0  0  0  0  0  0  0  0  0
    1.9002    1.9566    0.0000 C   0  0  0  0  0  0  0  0  0  0  0  0
    3.3198    2.4410    0.0000 C   0  0  0  0  0  0  0  0  0  0  0  0
    3.6101    3.9127    0.0000 O   0  0  0  0  0  0  0  0  0  0  0  0
    4.4491    1.4538    0.0000 C   0  0  0  0  0  0  0  0  0  0  0  0
    4.1588   -0.0178    0.0000 C   0  0  0  0  0  0  0  0  0  0  0  0
    5.2882   -1.0051    0.0000 C   0  0  0  0  0  0  0  0  0  0  0  0
    2.7392   -0.5023    0.0000 C   0  0  0  0  0  0  0  0  0  0  0  0
    2.4489   -1.9739    0.0000 C   0  0  0  0  0  0  0  0  0  0  0  0
    1.0293   -2.4583    0.0000 C   0  0  0  0  0  0  0  0  0  0  0  0
    0.7390   -3.9300    0.0000 C   0  0  0  0  0  0  0  0  0  0  0  0
   -0.6806   -4.4144    0.0000 C   0  0  0  0  0  0  0  0  0  0  0  0
    1.8683   -4.9172    0.0000 C   0  0  0  0  0  0  0  0  0  0  0  0
    1.6099    0.4850    0.0000 C   0  0  0  0  0  0  0  0  0  0  0  0
    0.1903    0.0005    0.0000 O   0  0  0  0  0  0  0  0  0  0  0  0
  1  2  1  0
  2  3  1  0
  2  4  2  0
  4  5  1  0
  5  6  2  0
  6  7  1  0
  7  8  1  6
  7  9  1  0
  9 10  1  0
 10 11  1  0
 11 12  2  0
 12 13  1  0
 12 14  1  0
 14 15  2  0
 15 16  1  0
 15 17  1  0
 17 18  1  0
 18 19  1  0
 19 20  2  0
 20 21  1  0
 20 22  1  0
 17 23  2  0
 23 24  1  0
 24  7  1  0
 23 11  1  0
M  END
>  <identifier>  (958) 
CNP0304791.1

>  <canonical_smiles>  (958) 
CC(C)=C/C=C/[C@@]1(C)CCC2=C(O)C=C(C)C(CC=C(C)C)=C2O1

>  <standard_inchi>  (958) 
InChI=1S/C22H30O2/c1-15(2)8-7-12-22(6)13-11-19-20(23)14-17(5)18(21(19)24-22)10-9-16(3)4/h7-9,12,14,23H,10-11,13H2,1-6H3/b12-7+/t22-/m0/s1

>  <standard_inchi_key>  (958) 
UANZUGFDTSFCAF-CGIBVWHJSA-N

>  <name>  (958) 
nan

>  <iupac_name>  (958) 
(2~{R})-2,7-dimethyl-8-(3-methylbut-2-enyl)-2-[(1~{E})-4-methylpenta-1,3-dienyl]chroman-5-ol

>  <annotation_level>  (958) 
5

>  <total_atom_count>  (958) 
54

>  <heavy_atom_count>  (958) 
24

>  <molecular_weight>  (958) 
326.48

>  <exact_molecular_weight>  (958) 
326.22458

>  <molecular_formula>  (958) 
C22H30O2

>  <alogp>  (958) 
5.82

>  <topological_polar_surface_area>  (958) 
29.46

>  <rotatable_bond_count>  (958) 
4

>  <hydrogen_bond_acceptors>  (958) 
2

>  <hydrogen_bond_donors>  (958) 
1

>  <hydrogen_bond_acceptors_lipinski>  (958) 
2

>  <hydrogen_bond_donors_lipinski>  (958) 
1

>  <lipinski_rule_of_five_violations>  (958) 
1

>  <aromatic_rings_count>  (958) 
1

>  <qed_drug_likeliness>  (958) 
0.56

>  <formal_charge>  (958) 
0

>  <fractioncsp3>  (958) 
0.46

>  <number_of_minimal_rings>  (958) 
2

>  <van_der_walls_volume>  (958) 
335.56

>  <contains_sugar>  (958) 
False

>  <contains_ring_sugars>  (958) 
False

>  <contains_linear_sugars>  (958) 
False

>  <murcko_framework>  (958) 
O1c2ccccc2CCC1

>  <np_likeness>  (958) 
2.71

>  <chemical_class>  (958) 
Benzopyrans

>  <chemical_sub_class>  (958) 
1-benzopyrans

>  <chemical_super_class>  (958) 
Organoheterocyclic compounds

>  <direct_parent_classification>  (958) 
1-benzopyrans

>  <np_classifier_pathway>  (958) 
Polyketides

>  <np_classifier_superclass>  (958) 
Meroterpenoids

>  <np_classifier_class>  (958) 
Tetraketide meroterpenoids

>  <np_classifier_is_glycoside>  (958) 
False

>  <organisms>  (958) 
Peperomia obtusifolia

>  <collections>  (958) 
ChemSpider NPs|Latin America dataset|NuBBEDB|Super Natural II|WikiData Natural Products|ZINC NP

>  <dois>  (958) 
10.1016/J.TETASY.2010.09.004|10.1055/s-0029-1185364

>  <synonyms>  (958) 
Peperobtusin A

>  <cas>  (958) 
nan

$$$$

     RDKit          2D

 31 35  0  0  0  0  0  0  0  0999 V2000
    5.1629    4.0763    0.0000 C   0  0  0  0  0  0  0  0  0  0  0  0
    4.7816    2.6255    0.0000 C   0  0  0  0  0  0  0  0  0  0  0  0
    3.3346    2.2303    0.0000 C   0  0  0  0  0  0  0  0  0  0  0  0
    5.8473    1.5700    0.0000 C   0  0  0  0  0  0  0  0  0  0  0  0
    7.2943    1.9651    0.0000 C   0  0  0  0  0  0  0  0  0  0  0  0
    5.4660    0.1192    0.0000 C   0  0  0  0  0  0  0  0  0  0  0  0
    4.0190   -0.2759    0.0000 C   0  0  0  0  0  0  0  0  0  0  0  0
    3.6378   -1.7267    0.0000 C   0  0  0  0  0  0  0  0  0  0  0  0
    4.7035   -2.7822    0.0000 C   0  0  0  0  0  0  0  0  0  0  0  0
    2.1907   -2.1219    0.0000 C   0  0  0  0  0  0  0  0  0  0  0  0
    1.6599   -3.5248    0.0000 C   0  0  0  0  0  0  0  0  0  0  0  0
    0.1616   -3.4535    0.0000 C   0  0  0  0  0  0  0  0  0  0  0  0
   -0.2336   -2.0065    0.0000 C   0  0  0  0  0  0  0  0  0  0  0  0
   -1.4876   -2.8294    0.0000 O   0  0  0  0  0  0  0  0  0  0  0  0
   -1.5733   -1.3319    0.0000 C   0  0  0  0  0  0  0  0  0  0  0  0
   -2.8274   -2.1549    0.0000 C   0  0  0  0  0  0  0  0  0  0  0  0
   -4.1672   -1.4803    0.0000 C   0  0  0  0  0  0  0  0  0  0  0  0
   -5.4212   -2.3033    0.0000 O   0  0  0  0  0  0  0  0  0  0  0  0
   -4.2528    0.0172    0.0000 C   0  0  0  0  0  0  0  0  0  0  0  0
   -5.5926    0.6918    0.0000 C   0  0  0  0  0  0  0  0  0  0  0  0
   -5.6783    2.1894    0.0000 C   0  0  0  0  0  0  0  0  0  0  0  0
   -7.0181    2.8639    0.0000 O   0  0  0  0  0  0  0  0  0  0  0  0
   -4.4242    3.0123    0.0000 C   0  0  0  0  0  0  0  0  0  0  0  0
   -3.0845    2.3378    0.0000 C   0  0  0  0  0  0  0  0  0  0  0  0
   -2.9988    0.8402    0.0000 C   0  0  0  0  0  0  0  0  0  0  0  0
   -1.7447    1.6632    0.0000 C   0  0  0  0  0  0  0  0  0  0  0  0
   -1.6590    0.1657    0.0000 C   0  0  0  0  0  0  0  0  0  0  0  0
   -0.4049    0.9886    0.0000 C   0  0  0  0  0  0  0  0  0  0  0  0
    0.9348    0.3141    0.0000 C   0  0  0  0  0  0  0  0  0  0  0  0
    1.0205   -1.1835    0.0000 C   0  0  0  0  0  0  0  0  0  0  0  0
    2.3537   -0.4961    0.0000 C   0  0  0  0  0  0  0  0  0  0  0  0
  1  2  1  0
  2  3  1  0
  2  4  1  0
  4  5  1  1
  4  6  1  0
  6  7  2  0
  7  8  1  0
  8  9  1  1
  8 10  1  0
 10 11  1  1
 11 12  1  0
 13 12  1  6
 13 14  1  0
 14 15  1  0
 15 16  1  6
 16 17  1  0
 17 18  2  0
 17 19  1  0
 19 20  2  0
 20 21  1  0
 21 22  2  0
 21 23  1  0
 23 24  1  0
 24 25  1  0
 25 26  1  1
 25 27  1  0
 27 28  1  1
 28 29  1  0
 29 30  1  0
 30 31  1  1
 30 10  1  0
 15 13  1  0
 25 19  1  0
 30 13  1  0
 27 15  1  0
M  END
>  <identifier>  (959) 
CNP0243381.1

>  <canonical_smiles>  (959) 
CC(C)[C@@H](C)/C=C/[C@@H](C)[C@H]1CC[C@]23O[C@]24CC(=O)C2=CC(=O)CC[C@]2(C)[C@H]4CC[C@]13C

>  <standard_inchi>  (959) 
InChI=1S/C28H40O3/c1-17(2)18(3)7-8-19(4)21-10-14-28-26(21,6)13-11-24-25(5)12-9-20(29)15-22(25)23(30)16-27(24,28)31-28/h7-8,15,17-19,21,24H,9-14,16H2,1-6H3/b8-7+/t18-,19+,21+,24+,25-,26+,27-,28+/m0/s1

>  <standard_inchi_key>  (959) 
DJVSRKXHTYPLOV-ZNUAOLICSA-N

>  <name>  (959) 
8,14-Epoxyergosta-4,22-diene-3,6-dione

>  <iupac_name>  (959) 
(1~{S},3~{R},6~{R},7~{R},10~{R},11~{R})-7,11-dimethyl-6-[(~{E},1~{R},4~{R})-1,4,5-trimethylhex-2-enyl]-2-oxapentacyclo[8.8.0.0^{1,3}.0^{3,7}.0^{11,16}]octadec-15-ene-14,17-dione

>  <annotation_level>  (959) 
5

>  <total_atom_count>  (959) 
71

>  <heavy_atom_count>  (959) 
31

>  <molecular_weight>  (959) 
424.63

>  <exact_molecular_weight>  (959) 
424.29775

>  <molecular_formula>  (959) 
C28H40O3

>  <alogp>  (959) 
6.07

>  <topological_polar_surface_area>  (959) 
46.67

>  <rotatable_bond_count>  (959) 
4

>  <hydrogen_bond_acceptors>  (959) 
3

>  <hydrogen_bond_donors>  (959) 
0

>  <hydrogen_bond_acceptors_lipinski>  (959) 
3

>  <hydrogen_bond_donors_lipinski>  (959) 
0

>  <lipinski_rule_of_five_violations>  (959) 
1

>  <aromatic_rings_count>  (959) 
0

>  <qed_drug_likeliness>  (959) 
0.41

>  <formal_charge>  (959) 
0

>  <fractioncsp3>  (959) 
0.79

>  <number_of_minimal_rings>  (959) 
5

>  <van_der_walls_volume>  (959) 
423.21

>  <contains_sugar>  (959) 
False

>  <contains_ring_sugars>  (959) 
False

>  <contains_linear_sugars>  (959) 
False

>  <murcko_framework>  (959) 
O1C23CCCC3CCC4C5C(=CCCC5)CCC142

>  <np_likeness>  (959) 
2.97

>  <chemical_class>  (959) 
Steroids and steroid derivatives

>  <chemical_sub_class>  (959) 
Ergostane steroids

>  <chemical_super_class>  (959) 
Lipids and lipid-like molecules

>  <direct_parent_classification>  (959) 
Ergostane steroids

>  <np_classifier_pathway>  (959) 
Terpenoids

>  <np_classifier_superclass>  (959) 
Steroids

>  <np_classifier_class>  (959) 
Ergostane steroids

>  <np_classifier_is_glycoside>  (959) 
False

>  <organisms>  (959) 
Papulaspora immersa

>  <collections>  (959) 
CMAUP (cCollective molecular activities of useful plants)|Latin America dataset|NuBBEDB|WikiData Natural Products

>  <dois>  (959) 
10.1055/S-0034-1368301|10.1055/s-0034-1368301

>  <synonyms>  (959) 
(14I(2),22E)-8,14-Epoxyergosta-4,22-diene-3,6-dione|(1S,3R,6R,7R,10R,11R)-6-[(E,2R,5R)-5,6-dimethylhept-3-en-2-yl]-7,11-dimethyl-2-oxapentacyclo[8.8.0.01,3.03,7.011,16]octadec-15-ene-14,17-dione|(22E24R)-814-epoxyergosta-422-diene-36-dione|1265908-20-0|A,22E)-|AKOS027250670|DTXSID901239376|Ergosta-4,22-diene-3,6-dione, 8,14-epoxy-, (14beta,22E)-

>  <cas>  (959) 
1265908-20-0

$$$$

     RDKit          2D

 23 24  0  0  0  0  0  0  0  0999 V2000
   -9.5723   -0.7988    0.0000 C   0  0  0  0  0  0  0  0  0  0  0  0
   -8.2521   -0.0868    0.0000 C   0  0  0  0  0  0  0  0  0  0  0  0
   -8.2086    1.4126    0.0000 C   0  0  0  0  0  0  0  0  0  0  0  0
   -6.9753   -0.8741    0.0000 C   0  0  0  0  0  0  0  0  0  0  0  0
   -5.6551   -0.1621    0.0000 C   0  0  0  0  0  0  0  0  0  0  0  0
   -5.6116    1.3372    0.0000 O   0  0  0  0  0  0  0  0  0  0  0  0
   -4.3783   -0.9495    0.0000 C   0  0  0  0  0  0  0  0  0  0  0  0
   -3.0581   -0.2375    0.0000 C   0  0  0  0  0  0  0  0  0  0  0  0
   -3.0146    1.2619    0.0000 C   0  0  0  0  0  0  0  0  0  0  0  0
   -1.7814   -1.0249    0.0000 C   0  0  0  0  0  0  0  0  0  0  0  0
   -0.4611   -0.3128    0.0000 C   0  0  0  0  0  0  0  0  0  0  0  0
    0.8156   -1.1002    0.0000 O   0  0  0  0  0  0  0  0  0  0  0  0
    2.1359   -0.3882    0.0000 C   0  0  0  0  0  0  0  0  0  0  0  0
    2.1794    1.1112    0.0000 C   0  0  0  0  0  0  0  0  0  0  0  0
    3.4996    1.8232    0.0000 C   0  0  0  0  0  0  0  0  0  0  0  0
    4.7764    1.0358    0.0000 C   0  0  0  0  0  0  0  0  0  0  0  0
    6.0966    1.7478    0.0000 C   0  0  0  0  0  0  0  0  0  0  0  0
    7.3733    0.9605    0.0000 C   0  0  0  0  0  0  0  0  0  0  0  0
    7.3298   -0.5389    0.0000 C   0  0  0  0  0  0  0  0  0  0  0  0
    8.6066   -1.3263    0.0000 O   0  0  0  0  0  0  0  0  0  0  0  0
    6.0096   -1.2509    0.0000 O   0  0  0  0  0  0  0  0  0  0  0  0
    4.7329   -0.4635    0.0000 C   0  0  0  0  0  0  0  0  0  0  0  0
    3.4126   -1.1756    0.0000 C   0  0  0  0  0  0  0  0  0  0  0  0
  1  2  1  0
  2  3  1  0
  2  4  2  0
  4  5  1  0
  5  6  1  0
  5  7  1  0
  7  8  1  0
  8  9  1  0
  8 10  2  0
 10 11  1  0
 11 12  1  0
 12 13  1  0
 13 14  2  0
 14 15  1  0
 15 16  2  0
 16 17  1  0
 17 18  2  0
 18 19  1  0
 19 20  2  0
 19 21  1  0
 21 22  1  0
 22 23  2  0
 23 13  1  0
 22 16  1  0
M  END
>  <identifier>  (960) 
CNP0260451.4

>  <canonical_smiles>  (960) 
CC(C)=CC(O)C/C(C)=C/COC1=CC=C2C=CC(=O)OC2=C1

>  <standard_inchi>  (960) 
InChI=1S/C19H22O4/c1-13(2)10-16(20)11-14(3)8-9-22-17-6-4-15-5-7-19(21)23-18(15)12-17/h4-8,10,12,16,20H,9,11H2,1-3H3/b14-8+

>  <standard_inchi_key>  (960) 
VNADFOGBKXRWGC-RIYZIHGNSA-N

>  <name>  (960) 
nan

>  <iupac_name>  (960) 
nan

>  <annotation_level>  (960) 
0

>  <total_atom_count>  (960) 
45

>  <heavy_atom_count>  (960) 
23

>  <molecular_weight>  (960) 
314.38

>  <exact_molecular_weight>  (960) 
314.15181

>  <molecular_formula>  (960) 
C19H22O4

>  <alogp>  (960) 
3.84

>  <topological_polar_surface_area>  (960) 
59.67

>  <rotatable_bond_count>  (960) 
6

>  <hydrogen_bond_acceptors>  (960) 
4

>  <hydrogen_bond_donors>  (960) 
1

>  <hydrogen_bond_acceptors_lipinski>  (960) 
4

>  <hydrogen_bond_donors_lipinski>  (960) 
1

>  <lipinski_rule_of_five_violations>  (960) 
0

>  <aromatic_rings_count>  (960) 
2

>  <qed_drug_likeliness>  (960) 
0.65

>  <formal_charge>  (960) 
0

>  <fractioncsp3>  (960) 
0.32

>  <number_of_minimal_rings>  (960) 
2

>  <van_der_walls_volume>  (960) 
297.99

>  <contains_sugar>  (960) 
False

>  <contains_ring_sugars>  (960) 
False

>  <contains_linear_sugars>  (960) 
False

>  <murcko_framework>  (960) 
O1c2ccccc2C=CC1

>  <np_likeness>  (960) 
1.67

>  <chemical_class>  (960) 
nan

>  <chemical_sub_class>  (960) 
nan

>  <chemical_super_class>  (960) 
nan

>  <direct_parent_classification>  (960) 
nan

>  <np_classifier_pathway>  (960) 
Shikimates and Phenylpropanoids

>  <np_classifier_superclass>  (960) 
Coumarins

>  <np_classifier_class>  (960) 
Simple coumarins

>  <np_classifier_is_glycoside>  (960) 
False

>  <organisms>  (960) 
Esenbeckia grandiflora|Hansenia weberbaueriana|Notopterygium forbesii|Zanthoxylum rhoifolium

>  <collections>  (960) 
AnalytiCon Discovery NPs|CMAUP (cCollective molecular activities of useful plants)|GNPS (Global Natural Products Social Molecular Networking)|Latin America dataset|NPASS|NuBBEDB|PubChem NPs|WikiData Natural Products

>  <dois>  (960) 
10.1016/0305-1978(92)90104-L|10.1016/J.FITOTE.2003.08.004

>  <synonyms>  (960) 
nan

>  <cas>  (960) 
nan

$$$$

     RDKit          2D

 22 25  0  0  0  0  0  0  0  0999 V2000
    5.2780   -0.7482    0.0000 C   0  0  0  0  0  0  0  0  0  0  0  0
    3.7823   -0.8612    0.0000 C   0  0  0  0  0  0  0  0  0  0  0  0
    3.1323   -2.2131    0.0000 C   0  0  0  0  0  0  0  0  0  0  0  0
    3.9781   -3.4519    0.0000 Cl  0  0  0  0  0  0  0  0  0  0  0  0
    2.9365    0.3776    0.0000 C   0  0  0  0  0  0  0  0  0  0  0  0
    3.4416    1.7900    0.0000 C   0  0  0  0  0  0  0  0  0  0  0  0
    2.2544    2.7068    0.0000 C   0  0  0  0  0  0  0  0  0  0  0  0
    1.0156    1.8610    0.0000 C   0  0  0  0  0  0  0  0  0  0  0  0
    0.7468    3.3368    0.0000 C   0  0  0  0  0  0  0  0  0  0  0  0
   -0.4419    2.2157    0.0000 O   0  0  0  0  0  0  0  0  0  0  0  0
   -1.4778    1.1309    0.0000 C   0  0  0  0  0  0  0  0  0  0  0  0
   -1.0562   -0.3087    0.0000 C   0  0  0  0  0  0  0  0  0  0  0  0
    0.4012   -0.6634    0.0000 C   0  0  0  0  0  0  0  0  0  0  0  0
    1.4371    0.4215    0.0000 C   0  0  0  0  0  0  0  0  0  0  0  0
   -2.0921   -1.3935    0.0000 C   0  0  0  0  0  0  0  0  0  0  0  0
   -1.6706   -2.8331    0.0000 O   0  0  0  0  0  0  0  0  0  0  0  0
   -3.5496   -1.0388    0.0000 C   0  0  0  0  0  0  0  0  0  0  0  0
   -3.4365   -2.5346    0.0000 O   0  0  0  0  0  0  0  0  0  0  0  0
   -4.8261   -0.2511    0.0000 C   0  0  0  0  0  0  0  0  0  0  0  0
   -4.4714    1.2063    0.0000 O   0  0  0  0  0  0  0  0  0  0  0  0
   -2.9757    1.3194    0.0000 C   0  0  0  0  0  0  0  0  0  0  0  0
   -2.4060   -0.0682    0.0000 C   0  0  0  0  0  0  0  0  0  0  0  0
  1  2  2  0
  2  3  1  0
  3  4  1  0
  5  2  1  1
  5  6  1  0
  6  7  1  0
  7  8  1  0
  8  9  1  1
  8 10  1  0
 10 11  1  0
 11 12  2  0
 12 13  1  0
 14 13  1  6
 12 15  1  0
 15 16  2  0
 15 17  1  0
 17 18  1  1
 17 19  1  0
 19 20  1  0
 21 20  1  6
 21 22  1  0
 14  5  1  0
 22 17  1  0
 14  8  1  0
 21 11  1  0
M  END
>  <identifier>  (961) 
CNP0080636.1

>  <canonical_smiles>  (961) 
C=C(CCl)[C@@H]1CC[C@@]2(C)OC3=C(C[C@@H]12)C(=O)[C@]1(O)CO[C@H]3C1

>  <standard_inchi>  (961) 
InChI=1S/C17H21ClO4/c1-9(7-18)10-3-4-16(2)12(10)5-11-14(22-16)13-6-17(20,8-21-13)15(11)19/h10,12-13,20H,1,3-8H2,2H3/t10-,12-,13-,16+,17+/m0/s1

>  <standard_inchi_key>  (961) 
ULIMJJCKZUDUCO-AWKHGQQRSA-N

>  <name>  (961) 
nan

>  <iupac_name>  (961) 
(1~{S},4~{R},7~{R},8~{S},12~{R})-7-[1-(chloromethyl)vinyl]-12-hydroxy-4-methyl-3,14-dioxatetracyclo[10.2.1.0^{2,10}.0^{4,8}]pentadec-2(10)-en-11-one

>  <annotation_level>  (961) 
4

>  <total_atom_count>  (961) 
43

>  <heavy_atom_count>  (961) 
22

>  <molecular_weight>  (961) 
324.8

>  <exact_molecular_weight>  (961) 
324.11284

>  <molecular_formula>  (961) 
C17H21ClO4

>  <alogp>  (961) 
2.34

>  <topological_polar_surface_area>  (961) 
55.76

>  <rotatable_bond_count>  (961) 
2

>  <hydrogen_bond_acceptors>  (961) 
4

>  <hydrogen_bond_donors>  (961) 
1

>  <hydrogen_bond_acceptors_lipinski>  (961) 
4

>  <hydrogen_bond_donors_lipinski>  (961) 
1

>  <lipinski_rule_of_five_violations>  (961) 
0

>  <aromatic_rings_count>  (961) 
0

>  <qed_drug_likeliness>  (961) 
0.63

>  <formal_charge>  (961) 
0

>  <fractioncsp3>  (961) 
0.71

>  <number_of_minimal_rings>  (961) 
4

>  <van_der_walls_volume>  (961) 
nan

>  <contains_sugar>  (961) 
False

>  <contains_ring_sugars>  (961) 
False

>  <contains_linear_sugars>  (961) 
False

>  <murcko_framework>  (961) 
O1C2=C(CC3COC2C3)CC4CCCC14

>  <np_likeness>  (961) 
2.27

>  <chemical_class>  (961) 
Organooxygen compounds

>  <chemical_sub_class>  (961) 
Carbonyl compounds

>  <chemical_super_class>  (961) 
Organic oxygen compounds

>  <direct_parent_classification>  (961) 
Cyclohexenones

>  <np_classifier_pathway>  (961) 
Terpenoids

>  <np_classifier_superclass>  (961) 
Meroterpenoids

>  <np_classifier_class>  (961) 
Miscellaneous meroterpenoids

>  <np_classifier_is_glycoside>  (961) 
False

>  <organisms>  (961) 
Guignardia mangiferae|Phyllosticta capitalensis

>  <collections>  (961) 
Latin America dataset|NuBBEDB|WikiData Natural Products

>  <dois>  (961) 
10.1016/J.PHYTOL.2012.05.004|10.1016/j.phytol.2012.05.004

>  <synonyms>  (961) 
guignardone D

>  <cas>  (961) 
nan

$$$$

     RDKit          2D

 21 21  0  0  0  0  0  0  0  0999 V2000
   -1.1865   -4.5849    0.0000 C   0  0  0  0  0  0  0  0  0  0  0  0
   -1.4098   -3.1016    0.0000 C   0  0  0  0  0  0  0  0  0  0  0  0
   -2.8060   -2.5533    0.0000 O   0  0  0  0  0  0  0  0  0  0  0  0
   -0.2368   -2.1665    0.0000 O   0  0  0  0  0  0  0  0  0  0  0  0
   -0.4601   -0.6833    0.0000 C   0  0  0  0  0  0  0  0  0  0  0  0
   -1.8564   -0.1350    0.0000 C   0  0  0  0  0  0  0  0  0  0  0  0
   -2.0797    1.3483    0.0000 C   0  0  0  0  0  0  0  0  0  0  0  0
   -3.4759    1.8965    0.0000 C   0  0  0  0  0  0  0  0  0  0  0  0
   -4.6488    0.9615    0.0000 O   0  0  0  0  0  0  0  0  0  0  0  0
   -3.6992    3.3798    0.0000 O   0  0  0  0  0  0  0  0  0  0  0  0
   -0.9067    2.2833    0.0000 C   0  0  0  0  0  0  0  0  0  0  0  0
    0.4895    1.7351    0.0000 C   0  0  0  0  0  0  0  0  0  0  0  0
    1.6624    2.6701    0.0000 O   0  0  0  0  0  0  0  0  0  0  0  0
    3.0586    2.1218    0.0000 C   0  0  0  0  0  0  0  0  0  0  0  0
    4.2315    3.0569    0.0000 C   0  0  0  0  0  0  0  0  0  0  0  0
    3.2819    0.6385    0.0000 O   0  0  0  0  0  0  0  0  0  0  0  0
    0.7128    0.2518    0.0000 C   0  0  0  0  0  0  0  0  0  0  0  0
    2.1090   -0.2965    0.0000 O   0  0  0  0  0  0  0  0  0  0  0  0
    2.3323   -1.7798    0.0000 C   0  0  0  0  0  0  0  0  0  0  0  0
    3.7285   -2.3280    0.0000 C   0  0  0  0  0  0  0  0  0  0  0  0
    1.1594   -2.7148    0.0000 O   0  0  0  0  0  0  0  0  0  0  0  0
  1  2  1  0
  2  3  2  0
  2  4  1  0
  4  5  1  0
  5  6  2  0
  6  7  1  0
  7  8  1  0
  8  9  2  0
  8 10  1  0
  7 11  2  0
 11 12  1  0
 12 13  1  0
 13 14  1  0
 14 15  1  0
 14 16  2  0
 12 17  2  0
 17 18  1  0
 18 19  1  0
 19 20  1  0
 19 21  2  0
 17  5  1  0
M  END
>  <identifier>  (962) 
CNP0114231.0

>  <canonical_smiles>  (962) 
CC(=O)OC1=CC(C(=O)O)=CC(OC(C)=O)=C1OC(C)=O

>  <standard_inchi>  (962) 
InChI=1S/C13H12O8/c1-6(14)19-10-4-9(13(17)18)5-11(20-7(2)15)12(10)21-8(3)16/h4-5H,1-3H3,(H,17,18)

>  <standard_inchi_key>  (962) 
BJCGLAAQSUGMKB-UHFFFAOYSA-N

>  <name>  (962) 
6635-24-1

>  <iupac_name>  (962) 
3,4,5-triacetoxybenzoic acid

>  <annotation_level>  (962) 
5

>  <total_atom_count>  (962) 
33

>  <heavy_atom_count>  (962) 
21

>  <molecular_weight>  (962) 
296.23

>  <exact_molecular_weight>  (962) 
296.05322

>  <molecular_formula>  (962) 
C13H12O8

>  <alogp>  (962) 
1.16

>  <topological_polar_surface_area>  (962) 
116.20

>  <rotatable_bond_count>  (962) 
4

>  <hydrogen_bond_acceptors>  (962) 
7

>  <hydrogen_bond_donors>  (962) 
1

>  <hydrogen_bond_acceptors_lipinski>  (962) 
7

>  <hydrogen_bond_donors_lipinski>  (962) 
1

>  <lipinski_rule_of_five_violations>  (962) 
0

>  <aromatic_rings_count>  (962) 
1

>  <qed_drug_likeliness>  (962) 
0.65

>  <formal_charge>  (962) 
0

>  <fractioncsp3>  (962) 
0.23

>  <number_of_minimal_rings>  (962) 
1

>  <van_der_walls_volume>  (962) 
249.49

>  <contains_sugar>  (962) 
False

>  <contains_ring_sugars>  (962) 
False

>  <contains_linear_sugars>  (962) 
False

>  <murcko_framework>  (962) 
c1ccccc1

>  <np_likeness>  (962) 
0.53

>  <chemical_class>  (962) 
Carboxylic acids and derivatives

>  <chemical_sub_class>  (962) 
Tetracarboxylic acids and derivatives

>  <chemical_super_class>  (962) 
Organic acids and derivatives

>  <direct_parent_classification>  (962) 
Tetracarboxylic acids and derivatives

>  <np_classifier_pathway>  (962) 
Shikimates and Phenylpropanoids

>  <np_classifier_superclass>  (962) 
Phenolic acids (C6-C1)

>  <np_classifier_class>  (962) 
Simple phenolic acids

>  <np_classifier_is_glycoside>  (962) 
False

>  <organisms>  (962) 
Acacia adunca|Adiantum lunulatum|Alchornea glandulosa|Alstonia spathulata|Amathia pinnata|Anacystis montana|Annona cornifolia|Artemisia assoana|Asterospicularia laurae|Astragalus sempervirens|Bishovia boliviensis|Blastochloris viridis|Calostephane divaricata|Caragana aurantiaca|Chaenomeles sinensis|Cotyledon secunda|Drechslera avenae|Dumortiera hirsuta|Eucalyptus melliodora|Gnetum latifolium|Goniothalamus malayanus|Hedysarum connatum|Helipterum roseum|Hypericum laricifolium|Ipomoea digitata|Laurencia spectabilis|Leathesia nana|Lepisorus ussuriensis|Lysimachia mauritiana|Marrubium anisodon|Nasutitermes ephratae|Naucleopsis ternstroemiiflora|Pastinaca sativa|Peltostigma guatemalense|Phoebe pittieri|Premna odorata|Pseudoalteromonas luteoviolacea|Rauvolfia vomitoria|Rumex maritimus|Sabina sargentii|Salvia syriaca|Scutellaria amoena|Sinularia depressa|Solanum laxum|Streptomyces avermectinius|Swertia franchetiana|Vaccinium oxycoccos|Viguiera incana|Vitis vinifera|Wikstroemia retusa|Zanthoxylum tetraspermum

>  <collections>  (962) 
CMAUP (cCollective molecular activities of useful plants)|ChemSpider NPs|Latin America dataset|NPASS|NuBBEDB|Phyto4Health|Super Natural II|UNPD (Universal Natural Products Database)|WikiData Natural Products|ZINC NP

>  <dois>  (962) 
10.1080/14786410903335232

>  <synonyms>  (962) 
2TPZ8W7SN9|3,4,5-triacetoxybenzoic acid|AKOS000122530|BJCGLAAQSUGMKB-UHFFFAOYSA-N|Benzoic acid, 3,4,5-tris(acetyloxy)-|CHEMBL505054|CS-0218154|DB-054917|DTXSID40216562|EN300-00256|F20525|GALLIC ACID TRIACETATE|Gallic acid, triacetate|InChI=1\/C13H12O8\/c1-6(14)19-10-4-9(13(17)18)5-11(20-7(2)15)12(10)21-8(3)16\/h4-5H,1-3H3,(H,17,18|J-511102|MFCD00017226|NSC 16959|NSC 49173|NSC-16959|NSC-49173|SCHEMBL716891|STR05114|Triacetylgallussaure|Z104481222

>  <cas>  (962) 
nan

$$$$

     RDKit          2D

 19 21  0  0  0  0  0  0  0  0999 V2000
    1.8479    3.4095    0.0000 O   0  0  0  0  0  0  0  0  0  0  0  0
    1.3514    1.9940    0.0000 C   0  0  0  0  0  0  0  0  0  0  0  0
   -0.1226    1.7162    0.0000 C   0  0  0  0  0  0  0  0  0  0  0  0
   -0.6190    0.3008    0.0000 C   0  0  0  0  0  0  0  0  0  0  0  0
   -2.0931    0.0230    0.0000 C   0  0  0  0  0  0  0  0  0  0  0  0
   -3.0707    1.1606    0.0000 C   0  0  0  0  0  0  0  0  0  0  0  0
   -4.5448    0.8828    0.0000 C   0  0  0  0  0  0  0  0  0  0  0  0
   -5.0412   -0.5326    0.0000 C   0  0  0  0  0  0  0  0  0  0  0  0
   -6.5152   -0.8104    0.0000 O   0  0  0  0  0  0  0  0  0  0  0  0
   -4.0636   -1.6703    0.0000 C   0  0  0  0  0  0  0  0  0  0  0  0
   -2.5895   -1.3925    0.0000 C   0  0  0  0  0  0  0  0  0  0  0  0
    0.3586   -0.8369    0.0000 O   0  0  0  0  0  0  0  0  0  0  0  0
    1.8326   -0.5591    0.0000 C   0  0  0  0  0  0  0  0  0  0  0  0
    2.8102   -1.6967    0.0000 C   0  0  0  0  0  0  0  0  0  0  0  0
    4.2843   -1.4189    0.0000 C   0  0  0  0  0  0  0  0  0  0  0  0
    5.2619   -2.5566    0.0000 O   0  0  0  0  0  0  0  0  0  0  0  0
    4.7807   -0.0035    0.0000 C   0  0  0  0  0  0  0  0  0  0  0  0
    3.8031    1.1342    0.0000 C   0  0  0  0  0  0  0  0  0  0  0  0
    2.3291    0.8564    0.0000 C   0  0  0  0  0  0  0  0  0  0  0  0
  1  2  2  0
  2  3  1  0
  3  4  2  0
  4  5  1  0
  5  6  2  0
  6  7  1  0
  7  8  2  0
  8  9  1  0
  8 10  1  0
 10 11  2  0
  4 12  1  0
 12 13  1  0
 13 14  2  0
 14 15  1  0
 15 16  1  0
 15 17  2  0
 17 18  1  0
 18 19  2  0
 19  2  1  0
 11  5  1  0
 19 13  1  0
M  END
>  <identifier>  (963) 
CNP0259111.0

>  <canonical_smiles>  (963) 
O=C1C=C(C2=CC=C(O)C=C2)OC2=CC(O)=CC=C12

>  <standard_inchi>  (963) 
InChI=1S/C15H10O4/c16-10-3-1-9(2-4-10)14-8-13(18)12-6-5-11(17)7-15(12)19-14/h1-8,16-17H

>  <standard_inchi_key>  (963) 
LCAWNFIFMLXZPQ-UHFFFAOYSA-N

>  <name>  (963) 
7,4'-Dihydroxyflavone

>  <iupac_name>  (963) 
7-hydroxy-2-(4-hydroxyphenyl)chromen-4-one

>  <annotation_level>  (963) 
5

>  <total_atom_count>  (963) 
29

>  <heavy_atom_count>  (963) 
19

>  <molecular_weight>  (963) 
254.24

>  <exact_molecular_weight>  (963) 
254.05791

>  <molecular_formula>  (963) 
C15H10O4

>  <alogp>  (963) 
2.87

>  <topological_polar_surface_area>  (963) 
70.67

>  <rotatable_bond_count>  (963) 
1

>  <hydrogen_bond_acceptors>  (963) 
4

>  <hydrogen_bond_donors>  (963) 
2

>  <hydrogen_bond_acceptors_lipinski>  (963) 
4

>  <hydrogen_bond_donors_lipinski>  (963) 
2

>  <lipinski_rule_of_five_violations>  (963) 
0

>  <aromatic_rings_count>  (963) 
3

>  <qed_drug_likeliness>  (963) 
0.70

>  <formal_charge>  (963) 
0

>  <fractioncsp3>  (963) 
0.00

>  <number_of_minimal_rings>  (963) 
3

>  <van_der_walls_volume>  (963) 
215.00

>  <contains_sugar>  (963) 
False

>  <contains_ring_sugars>  (963) 
False

>  <contains_linear_sugars>  (963) 
False

>  <murcko_framework>  (963) 
O1c2ccccc2CC=C1c3ccccc3

>  <np_likeness>  (963) 
0.85

>  <chemical_class>  (963) 
Flavonoids

>  <chemical_sub_class>  (963) 
Hydroxyflavonoids

>  <chemical_super_class>  (963) 
Phenylpropanoids and polyketides

>  <direct_parent_classification>  (963) 
7-hydroxyflavonoids

>  <np_classifier_pathway>  (963) 
Shikimates and Phenylpropanoids

>  <np_classifier_superclass>  (963) 
Flavonoids

>  <np_classifier_class>  (963) 
Flavones

>  <np_classifier_is_glycoside>  (963) 
False

>  <organisms>  (963) 
Aglaia formosana|Aphis graminum|Aphis pini|Artemisia rehan|Aspergillus desertorum|Aulosira fertilissima|Avrainvillea longicaulis|Baptisia arachnifera|Baptisia australis|Baptisia bracteata|Baptisia calycosa|Baptisia cinerea|Baptisia lanceolata|Baptisia lecontei|Baptisia megacarpa|Baptisia nuttalliana|Baptisia perfoliata|Baptisia simplicifolia|Baptisia sphaerocarpa|Brosimum acutifolium|Broussonetia papyrifera|Bryum argenteum|Caesalpinia Decapetala|Caesalpinia decapetala|Callicarpa japonica|Cladrastis platycarpa|Clione antarctica|Coprosma areolata|Cortinarius orellanus|Crinum asiaticum|Crotalaria assamica|Crotalaria pallida|Cylindrospermum muscicola|Daemonorops draco|Diplodia natalensis|Dracaena cinnabari|Elephantopus hirtiflorus|Entada phaseoloides|Eremanthus seidelii|Euphorbia amygdaloides|Gambierdiscus toxicus|Glycyrrhiza echinata|Glycyrrhiza eurycarpa|Glycyrrhiza glabra|Glycyrrhiza glara|Glycyrrhiza inflata|Glycyrrhiza pallidiflora|Glycyrrhiza uralensis|Glycyrrhiza yunnanensis|Gmelina asiatica|Helichrysum cephaloideum|Hemionitis japonica|Hesperis matronalis|Hypericum balearicum|Inula salsoloides|Iryanthera juruensis|Jackiella javanica|Jatropha macrorhiza|Lentinus tigrinus|Ligularia cymbulifera|Lilium umbellatum|Lobophytum laevigatum|Magnolia montana|Medicago Sativa|Medicago arabica|Medicago coronata|Medicago intertexta|Medicago laciniata|Medicago littoralis|Medicago marina|Medicago minima|Medicago monspeliaca|Medicago orbicularis|Medicago polymorpha|Medicago radiata|Medicago sativa|Medicago truncatula|Mitracarpus scaber|Nematolepis phebalioides|Oreopteris quelpaertensis|Oxytropis trichophysa|Pangium edule|Phora velutina|Phyllanthus emblica|Polyzonium rosalbum|Pterocarpus marsupium|Rhizobium leguminosarum|Rhus vulgaris|Salix babylonica|Sarcophyton elegans|Sedum obtuso-lineare|Senecio adenophyllus|Solidago flexicaulis|Sophora chrysophylla|Sophora davidii|Sophora microphylla|Sophora prostrata|Sophora substrata|Sophora viciifolia|Sophora vicllfolia|Sterculia foetida|Stizolobium deeringianum|Thermopsis macrophylla|Thermopsis mollis|Thermopsis rhombifolia|Thermopsis villosa|Trichophyton mentagrophytes|Trifolium Repens|Trifolium repens|Trifolium subterraneum|Trigonella anguina|Trigonella coerulescens|Trigonella foenum-graecum|Trigonella laciniata|Trigonella maritima|Trigonella spicata|Trigonella stellata|Trollius chinensis|Umbilicaria esculenta|Vicia Faba|Vicia faba|Vigna mungo|Viguiera linearis|broad bean|liquorice

>  <collections>  (963) 
AnalytiCon Discovery NPs|BitterDB|CMAUP (cCollective molecular activities of useful plants)|ChEBI NPs|ChemSpider NPs|ConMedNP|FooDB|KNApSaCK|Latin America dataset|NPASS|NPEdia|NuBBEDB|Phenol-explorer|Phyto4Health|Specs Natural Products|Super Natural II|TCMDB-Taiwan (Traditional Chinese Medicine database)|TCMID (Traditional Chinese Medicine Integrated Database)|TIPdb (database of Taiwan indigenous plants)|UNPD (Universal Natural Products Database)|VietHerb|WikiData Natural Products|ZINC NP

>  <dois>  (963) 
10.1002/CBDV.201100002|10.1002/ELPS.201300646|10.1002/HLCA.201000195|10.1007/BF00381261|10.1007/BF00630449|10.1007/BF02994750|10.1016/0031-9422(73)85021-6|10.1016/0031-9422(76)85130-8|10.1016/0031-9422(93)85025-M|10.1016/0031-9422(94)00674-I|10.1016/0031-9422(94)00738-F|10.1016/0305-1978(82)90048-5|10.1016/0305-1978(93)90090-E|10.1016/J.BMC.2017.05.009|10.1016/J.BMCL.2003.11.074|10.1016/J.FITOTE.2011.12.010|10.1016/J.PHYTOCHEM.2006.10.023|10.1016/J.PHYTOCHEM.2007.05.016|10.1016/J.PLAPHY.2015.04.008|10.1016/S0031-9422(00)82219-0|10.1016/S0031-9422(00)84834-7|10.1016/S0031-9422(00)85667-8|10.1016/S0031-9422(00)85740-4|10.1016/S0031-9422(00)88458-7|10.1016/S0031-9422(00)88812-3|10.1016/S0031-9422(00)94793-9|10.1016/S0031-9422(01)00273-4|10.1016/j.bmc.2017.05.009|10.1016/j.bmcl.2003.11.074|10.1021/JF00002A006|10.1021/JF063451X|10.1021/NP010389J|10.1021/NP020241F|10.1021/acs.jnatprod.7b00707|10.1021/jf063451x|10.1104/PP.69.2.522|10.1248/CPB.38.1712|10.3390/MOLECULES13081530

>  <synonyms>  (963) 
2196-14-7|4',7-Dihydroxyflavone|4H-1-Benzopyran-4-one, 7-hydroxy-2-(4-hydroxyphenyl)-|53ZZF57X0U|7, 4'-Dihydroxyflavone|7,4'-DHF|7,4-DIHYDROXYFLAVONE|7-Hydroxy-2-(4-hydroxyphenyl)-4H-chromen-4-one|A815788|AKOS016012973|BDBM50077323|BRD-K50384076-001-01-9|BRN 0224356|CCG-231475|CHEBI:29503|CHEMBL294878|CS-0023012|D85187|DB-045734|DIHYDROXYFLAVONE, 4',7-|DTXCID9098856|DTXSID50176365|FLAVONE, 4',7-DIHYDROXY-|HY-N2609|KBioGR_001900|KUMATAKENIN B|LMPK12110035|MB00287|MFCD00017694|MS-23576|NCGC00096029-01|PD001614|Q15410218|SCHEMBL157723|SPECTRUM1500721|SR-05000002501|Spectrum4_001280|UNII-53ZZF57X0U

>  <cas>  (963) 
2196-14-7

$$$$

     RDKit          2D

 31 32  0  0  0  0  0  0  0  0999 V2000
  -12.2844   -0.1534    0.0000 C   0  0  0  0  0  0  0  0  0  0  0  0
  -10.8981    0.4195    0.0000 C   0  0  0  0  0  0  0  0  0  0  0  0
  -10.7011    1.9066    0.0000 C   0  0  0  0  0  0  0  0  0  0  0  0
   -9.7088   -0.4945    0.0000 C   0  0  0  0  0  0  0  0  0  0  0  0
   -8.3225    0.0784    0.0000 C   0  0  0  0  0  0  0  0  0  0  0  0
   -7.1332   -0.8357    0.0000 C   0  0  0  0  0  0  0  0  0  0  0  0
   -5.7469   -0.2627    0.0000 C   0  0  0  0  0  0  0  0  0  0  0  0
   -4.5576   -1.1768    0.0000 C   0  0  0  0  0  0  0  0  0  0  0  0
   -3.1713   -0.6039    0.0000 C   0  0  0  0  0  0  0  0  0  0  0  0
   -1.9820   -1.5179    0.0000 C   0  0  0  0  0  0  0  0  0  0  0  0
   -0.5958   -0.9450    0.0000 C   0  0  0  0  0  0  0  0  0  0  0  0
   -0.3988    0.5420    0.0000 C   0  0  0  0  0  0  0  0  0  0  0  0
    0.5936   -1.8591    0.0000 C   0  0  0  0  0  0  0  0  0  0  0  0
    1.9798   -1.2861    0.0000 C   0  0  0  0  0  0  0  0  0  0  0  0
    3.1691   -2.2002    0.0000 C   0  0  0  0  0  0  0  0  0  0  0  0
    4.5554   -1.6273    0.0000 C   0  0  0  0  0  0  0  0  0  0  0  0
    4.8789   -3.0920    0.0000 C   0  0  0  0  0  0  0  0  0  0  0  0
    3.7504   -0.3615    0.0000 C   0  0  0  0  0  0  0  0  0  0  0  0
    4.4441    0.9684    0.0000 C   0  0  0  0  0  0  0  0  0  0  0  0
    5.9427    1.0327    0.0000 C   0  0  0  0  0  0  0  0  0  0  0  0
    6.6364    2.3627    0.0000 C   0  0  0  0  0  0  0  0  0  0  0  0
    8.1350    2.4269    0.0000 C   0  0  0  0  0  0  0  0  0  0  0  0
    8.8287    3.7569    0.0000 O   0  0  0  0  0  0  0  0  0  0  0  0
    8.9400    1.1612    0.0000 C   0  0  0  0  0  0  0  0  0  0  0  0
    8.2463   -0.1688    0.0000 C   0  0  0  0  0  0  0  0  0  0  0  0
    9.0513   -1.4345    0.0000 C   0  0  0  0  0  0  0  0  0  0  0  0
    6.7477   -0.2330    0.0000 C   0  0  0  0  0  0  0  0  0  0  0  0
    6.0540   -1.5630    0.0000 O   0  0  0  0  0  0  0  0  0  0  0  0
   -5.5500    1.2243    0.0000 C   0  0  0  0  0  0  0  0  0  0  0  0
   -4.1637    1.7972    0.0000 O   0  0  0  0  0  0  0  0  0  0  0  0
   -6.7393    2.1384    0.0000 O   0  0  0  0  0  0  0  0  0  0  0  0
  1  2  1  0
  2  3  1  0
  2  4  2  0
  4  5  1  0
  5  6  1  0
  6  7  1  0
  7  8  2  0
  8  9  1  0
  9 10  1  0
 10 11  1  0
 11 12  1  0
 11 13  2  0
 13 14  1  0
 14 15  1  0
 15 16  1  0
 16 17  1  0
 16 18  1  0
 18 19  1  0
 19 20  1  0
 20 21  2  0
 21 22  1  0
 22 23  1  0
 22 24  2  0
 24 25  1  0
 25 26  1  0
 25 27  2  0
 27 28  1  0
  7 29  1  0
 29 30  2  0
 29 31  1  0
 28 16  1  0
 27 20  1  0
M  END
>  <identifier>  (964) 
CNP0222221.5

>  <canonical_smiles>  (964) 
CC(C)=CCC/C(=C/CC/C(C)=C/CCC1(C)CCC2=CC(O)=CC(C)=C2O1)C(=O)O

>  <standard_inchi>  (964) 
InChI=1S/C27H38O4/c1-19(2)9-6-12-22(26(29)30)13-7-10-20(3)11-8-15-27(5)16-14-23-18-24(28)17-21(4)25(23)31-27/h9,11,13,17-18,28H,6-8,10,12,14-16H2,1-5H3,(H,29,30)/b20-11+,22-13-

>  <standard_inchi_key>  (964) 
CWYYWDRQIIFZHK-WDZAAMDOSA-N

>  <name>  (964) 
nan

>  <iupac_name>  (964) 
nan

>  <annotation_level>  (964) 
0

>  <total_atom_count>  (964) 
69

>  <heavy_atom_count>  (964) 
31

>  <molecular_weight>  (964) 
426.6

>  <exact_molecular_weight>  (964) 
426.27701

>  <molecular_formula>  (964) 
C27H38O4

>  <alogp>  (964) 
7.05

>  <topological_polar_surface_area>  (964) 
66.76

>  <rotatable_bond_count>  (964) 
10

>  <hydrogen_bond_acceptors>  (964) 
3

>  <hydrogen_bond_donors>  (964) 
2

>  <hydrogen_bond_acceptors_lipinski>  (964) 
3

>  <hydrogen_bond_donors_lipinski>  (964) 
2

>  <lipinski_rule_of_five_violations>  (964) 
1

>  <aromatic_rings_count>  (964) 
1

>  <qed_drug_likeliness>  (964) 
0.31

>  <formal_charge>  (964) 
0

>  <fractioncsp3>  (964) 
0.52

>  <number_of_minimal_rings>  (964) 
2

>  <van_der_walls_volume>  (964) 
430.49

>  <contains_sugar>  (964) 
False

>  <contains_ring_sugars>  (964) 
False

>  <contains_linear_sugars>  (964) 
False

>  <murcko_framework>  (964) 
O1c2ccccc2CCC1

>  <np_likeness>  (964) 
2.48

>  <chemical_class>  (964) 
nan

>  <chemical_sub_class>  (964) 
nan

>  <chemical_super_class>  (964) 
nan

>  <direct_parent_classification>  (964) 
nan

>  <np_classifier_pathway>  (964) 
Terpenoids

>  <np_classifier_superclass>  (964) 
Meroterpenoids

>  <np_classifier_class>  (964) 
Prenyl quinone meroterpenoids

>  <np_classifier_is_glycoside>  (964) 
False

>  <organisms>  (964) 
Iryanthera grandis

>  <collections>  (964) 
Latin America dataset|NuBBEDB

>  <dois>  (964) 
10.1016/S0031-9422(00)80162-4

>  <synonyms>  (964) 
nan

>  <cas>  (964) 
nan

$$$$

     RDKit          2D

 25 28  0  0  0  0  0  0  0  0999 V2000
    3.3759   -3.5405    0.0000 C   0  0  0  0  0  0  0  0  0  0  0  0
    3.2153   -2.0491    0.0000 C   0  0  0  0  0  0  0  0  0  0  0  0
    1.8434   -1.4425    0.0000 C   0  0  0  0  0  0  0  0  0  0  0  0
    1.6828    0.0488    0.0000 C   0  0  0  0  0  0  0  0  0  0  0  0
    3.1106   -0.4110    0.0000 C   0  0  0  0  0  0  0  0  0  0  0  0
    4.2227    0.5955    0.0000 C   0  0  0  0  0  0  0  0  0  0  0  0
    5.6505    0.1356    0.0000 O   0  0  0  0  0  0  0  0  0  0  0  0
    5.9661   -1.3308    0.0000 C   0  0  0  0  0  0  0  0  0  0  0  0
    3.9071    2.0619    0.0000 C   0  0  0  0  0  0  0  0  0  0  0  0
    5.0192    3.0685    0.0000 O   0  0  0  0  0  0  0  0  0  0  0  0
    2.4793    2.5218    0.0000 C   0  0  0  0  0  0  0  0  0  0  0  0
    1.3672    1.5153    0.0000 C   0  0  0  0  0  0  0  0  0  0  0  0
   -0.1250    1.6682    0.0000 O   0  0  0  0  0  0  0  0  0  0  0  0
   -0.7316    0.2964    0.0000 C   0  0  0  0  0  0  0  0  0  0  0  0
   -2.1980   -0.0193    0.0000 C   0  0  0  0  0  0  0  0  0  0  0  0
   -2.6579   -1.4470    0.0000 C   0  0  0  0  0  0  0  0  0  0  0  0
   -4.1243   -1.7627    0.0000 C   0  0  0  0  0  0  0  0  0  0  0  0
   -5.1308   -0.6505    0.0000 C   0  0  0  0  0  0  0  0  0  0  0  0
   -6.6308   -0.6544    0.0000 O   0  0  0  0  0  0  0  0  0  0  0  0
   -7.0980    0.7710    0.0000 C   0  0  0  0  0  0  0  0  0  0  0  0
   -5.8867    1.6558    0.0000 O   0  0  0  0  0  0  0  0  0  0  0  0
   -4.6710    0.7773    0.0000 C   0  0  0  0  0  0  0  0  0  0  0  0
   -3.2045    1.0929    0.0000 C   0  0  0  0  0  0  0  0  0  0  0  0
    0.3857   -0.7045    0.0000 C   0  0  0  0  0  0  0  0  0  0  0  0
    0.2327   -2.1967    0.0000 C   0  0  0  0  0  0  0  0  0  0  0  0
  1  2  2  0
  2  3  1  0
  4  3  1  6
  4  5  1  0
  5  6  2  0
  6  7  1  0
  7  8  1  0
  6  9  1  0
  9 10  2  0
  9 11  1  0
 11 12  2  0
 12 13  1  0
 13 14  1  0
 14 15  1  6
 15 16  2  0
 16 17  1  0
 17 18  2  0
 18 19  1  0
 19 20  1  0
 20 21  1  0
 21 22  1  0
 22 23  2  0
 14 24  1  0
 24 25  1  6
 12  4  1  0
 23 15  1  0
 24  4  1  0
 22 18  1  0
M  END
>  <identifier>  (965) 
CNP0209305.3

>  <canonical_smiles>  (965) 
C=CC[C@@]12C=C(OC)C(=O)C=C1O[C@@H](C1=CC=C3OCOC3=C1)[C@H]2C

>  <standard_inchi>  (965) 
InChI=1S/C20H20O5/c1-4-7-20-10-17(22-3)14(21)9-18(20)25-19(12(20)2)13-5-6-15-16(8-13)24-11-23-15/h4-6,8-10,12,19H,1,7,11H2,2-3H3/t12-,19-,20+/m1/s1

>  <standard_inchi_key>  (965) 
SOLJFAQVSWXZEQ-BYYRLHKVSA-N

>  <name>  (965) 
nan

>  <iupac_name>  (965) 
(2~{R},3~{S},3~{a}~{R})-3~{a}-allyl-2-(1,3-benzodioxol-5-yl)-5-methoxy-3-methyl-2,3-dihydrobenzofuran-6-one

>  <annotation_level>  (965) 
4

>  <total_atom_count>  (965) 
45

>  <heavy_atom_count>  (965) 
25

>  <molecular_weight>  (965) 
340.38

>  <exact_molecular_weight>  (965) 
340.13107

>  <molecular_formula>  (965) 
C20H20O5

>  <alogp>  (965) 
3.68

>  <topological_polar_surface_area>  (965) 
53.99

>  <rotatable_bond_count>  (965) 
4

>  <hydrogen_bond_acceptors>  (965) 
5

>  <hydrogen_bond_donors>  (965) 
0

>  <hydrogen_bond_acceptors_lipinski>  (965) 
5

>  <hydrogen_bond_donors_lipinski>  (965) 
0

>  <lipinski_rule_of_five_violations>  (965) 
0

>  <aromatic_rings_count>  (965) 
1

>  <qed_drug_likeliness>  (965) 
0.78

>  <formal_charge>  (965) 
0

>  <fractioncsp3>  (965) 
0.35

>  <number_of_minimal_rings>  (965) 
4

>  <van_der_walls_volume>  (965) 
nan

>  <contains_sugar>  (965) 
False

>  <contains_ring_sugars>  (965) 
False

>  <contains_linear_sugars>  (965) 
False

>  <murcko_framework>  (965) 
O1c2ccc(cc2OC1)C3OC4=CCC=CC4C3

>  <np_likeness>  (965) 
2.28

>  <chemical_class>  (965) 
2-arylbenzofuran flavonoids

>  <chemical_sub_class>  (965) 
2-arylbenzofuran flavonoids

>  <chemical_super_class>  (965) 
Phenylpropanoids and polyketides

>  <direct_parent_classification>  (965) 
2-arylbenzofuran flavonoids

>  <np_classifier_pathway>  (965) 
Shikimates and Phenylpropanoids

>  <np_classifier_superclass>  (965) 
Lignans

>  <np_classifier_class>  (965) 
Neolignans

>  <np_classifier_is_glycoside>  (965) 
False

>  <organisms>  (965) 
Aniba terminalis|Magnolia denudata

>  <collections>  (965) 
Latin America dataset|NuBBEDB|Super Natural II|WikiData Natural Products|ZINC NP

>  <dois>  (965) 
10.1016/0031-9422(75)85303-9|10.1248/CPB.48.832

>  <synonyms>  (965) 
(2R3S3aR)-3a-Allyl-5-methoxy-3-methyl-2-piperonyl-233a6-tetrahydro-6-oxobenzofuran

>  <cas>  (965) 
nan

$$$$

     RDKit          2D

 20 22  0  0  0  0  0  0  0  0999 V2000
    1.8497    3.2973    0.0000 O   0  0  0  0  0  0  0  0  0  0  0  0
    1.3762    1.8739    0.0000 C   0  0  0  0  0  0  0  0  0  0  0  0
   -0.0931    1.5722    0.0000 C   0  0  0  0  0  0  0  0  0  0  0  0
   -1.0890    2.6939    0.0000 O   0  0  0  0  0  0  0  0  0  0  0  0
   -0.5665    0.1489    0.0000 C   0  0  0  0  0  0  0  0  0  0  0  0
   -2.0359   -0.1528    0.0000 C   0  0  0  0  0  0  0  0  0  0  0  0
   -3.0318    0.9689    0.0000 C   0  0  0  0  0  0  0  0  0  0  0  0
   -4.5012    0.6672    0.0000 C   0  0  0  0  0  0  0  0  0  0  0  0
   -4.9746   -0.7561    0.0000 C   0  0  0  0  0  0  0  0  0  0  0  0
   -6.4439   -1.0578    0.0000 O   0  0  0  0  0  0  0  0  0  0  0  0
   -3.9786   -1.8778    0.0000 C   0  0  0  0  0  0  0  0  0  0  0  0
   -2.5093   -1.5761    0.0000 C   0  0  0  0  0  0  0  0  0  0  0  0
    0.4294   -0.9727    0.0000 O   0  0  0  0  0  0  0  0  0  0  0  0
    1.8988   -0.6711    0.0000 C   0  0  0  0  0  0  0  0  0  0  0  0
    2.8947   -1.7927    0.0000 C   0  0  0  0  0  0  0  0  0  0  0  0
    4.3640   -1.4911    0.0000 C   0  0  0  0  0  0  0  0  0  0  0  0
    5.3600   -2.6127    0.0000 O   0  0  0  0  0  0  0  0  0  0  0  0
    4.8375   -0.0677    0.0000 C   0  0  0  0  0  0  0  0  0  0  0  0
    3.8415    1.0539    0.0000 C   0  0  0  0  0  0  0  0  0  0  0  0
    2.3722    0.7523    0.0000 C   0  0  0  0  0  0  0  0  0  0  0  0
  1  2  2  0
  2  3  1  0
  3  4  1  0
  3  5  2  0
  5  6  1  0
  6  7  2  0
  7  8  1  0
  8  9  2  0
  9 10  1  0
  9 11  1  0
 11 12  2  0
  5 13  1  0
 13 14  1  0
 14 15  2  0
 15 16  1  0
 16 17  1  0
 16 18  2  0
 18 19  1  0
 19 20  2  0
 20  2  1  0
 12  6  1  0
 20 14  1  0
M  END
>  <identifier>  (966) 
CNP0281946.0

>  <canonical_smiles>  (966) 
O=C1C(O)=C(C2=CC=C(O)C=C2)OC2=CC(O)=CC=C12

>  <standard_inchi>  (966) 
InChI=1S/C15H10O5/c16-9-3-1-8(2-4-9)15-14(19)13(18)11-6-5-10(17)7-12(11)20-15/h1-7,16-17,19H

>  <standard_inchi_key>  (966) 
OBWHQJYOOCRPST-UHFFFAOYSA-N

>  <name>  (966) 
3,7,4'-Trihydroxyflavone

>  <iupac_name>  (966) 
3,7-dihydroxy-2-(4-hydroxyphenyl)chromen-4-one

>  <annotation_level>  (966) 
5

>  <total_atom_count>  (966) 
30

>  <heavy_atom_count>  (966) 
20

>  <molecular_weight>  (966) 
270.24

>  <exact_molecular_weight>  (966) 
270.05282

>  <molecular_formula>  (966) 
C15H10O5

>  <alogp>  (966) 
2.58

>  <topological_polar_surface_area>  (966) 
90.90

>  <rotatable_bond_count>  (966) 
1

>  <hydrogen_bond_acceptors>  (966) 
5

>  <hydrogen_bond_donors>  (966) 
3

>  <hydrogen_bond_acceptors_lipinski>  (966) 
5

>  <hydrogen_bond_donors_lipinski>  (966) 
3

>  <lipinski_rule_of_five_violations>  (966) 
0

>  <aromatic_rings_count>  (966) 
3

>  <qed_drug_likeliness>  (966) 
0.63

>  <formal_charge>  (966) 
0

>  <fractioncsp3>  (966) 
0.00

>  <number_of_minimal_rings>  (966) 
3

>  <van_der_walls_volume>  (966) 
223.09

>  <contains_sugar>  (966) 
False

>  <contains_ring_sugars>  (966) 
False

>  <contains_linear_sugars>  (966) 
False

>  <murcko_framework>  (966) 
O1c2ccccc2CC=C1c3ccccc3

>  <np_likeness>  (966) 
1.04

>  <chemical_class>  (966) 
Flavonoids

>  <chemical_sub_class>  (966) 
Flavones

>  <chemical_super_class>  (966) 
Phenylpropanoids and polyketides

>  <direct_parent_classification>  (966) 
Flavonols

>  <np_classifier_pathway>  (966) 
Shikimates and Phenylpropanoids

>  <np_classifier_superclass>  (966) 
Flavonoids

>  <np_classifier_class>  (966) 
Flavonols

>  <np_classifier_is_glycoside>  (966) 
False

>  <organisms>  (966) 
A new engineered strain of Escherichia coli [n.a.]|Acacia|Acacia lanigera|Acacia spp.|Anthyllis vulneraria|Baptisia calycosa|Baptisia lecontei|Baptisia simplicifolia|Biancaea decapetala|Brucea javanica|Butea spp.|Cicer arietinum|Clematis hexapetala|Dermatophyllum secundiflorum|Dorycnium pentaphyllum|Erythrina fusca|Lathyrus pratensis|Lens culinaris|Leontopodium nanum|Lotus corniculatus|Lotus maritimus|Meadow vetchling|Millettia spp.|Platymiscium praecox|Pterocarpus marsupium|Rhus spp.|Rhus succedanea|Robinia pseudoacacia|Schinopsis lorentzii|Scutellaria baicalensis|Sophora secundiflora|Trifolium subterraneum|Ulex spp.|Umtiza listerana|dragon's teeth

>  <collections>  (966) 
Australian natural products|BitterDB|FooDB|KNApSaCK|Latin America dataset|NPASS|NPCARE|NPEdia|NuBBEDB|Super Natural II|UNPD (Universal Natural Products Database)|WikiData Natural Products

>  <dois>  (966) 
10.1002/JCCS.200200040|10.1016/0031-9422(81)84073-3|10.1016/0031-9422(95)93530-S|10.1016/J.FITOTE.2007.07.008|10.1016/J.FITOTE.2010.01.009|10.1016/S0031-9422(00)84834-7|10.1016/S0031-9422(00)85740-4|10.1016/S0031-9422(00)86150-6|10.1016/S0031-9422(00)88397-1|10.1016/S0031-9422(00)89849-0|10.1016/S0031-9422(00)94253-5|10.1016/S0031-9422(00)94254-7|10.1016/S0031-9422(00)94317-6|10.1016/S0031-9422(00)97703-3|10.1016/S1875-5364(09)60015-7|10.1016/s0031-9422(00)82163-9|10.1021/NP50031A029|10.1042/BJ0820324|10.1071/ch9721943c|10.1111/J.1600-0609.2009.01365.X|10.1515/ZNB-2007-0615|10.1515/ZNC-1982-3-401

>  <synonyms>  (966) 
2034-65-3|3,4',7-Trihydroxyflavone|3,7,4-trihydroxyflavone|3,7-Dihydroxy-2-(4-hydroxyphenyl)-4H-1-benzopyran-4-one|3,7-dihydroxy-2-(4-hydroxyphenyl)-4H-chromen-4-one|4',7-Dihydroxyflavonol|4H-1-Benzopyran-4-one, 3,7-dihydroxy-2-(4-hydroxyphenyl)-|5-Dehydroxykaempferol|5-Deoxykaempferol|AKOS024282395|BDBM26657|CDB76C6V7X|CHEBI:196244|CHEMBL242383|CS-0092579|DTXSID90174249|Flavone, 3,7,4'-trihydroxy-|G12064|HY-111806|LMPK12111552|MFCD00016939|MS-23817|NCGC00017177-01|NCGC00142439-01|NS00116302|OBWHQJYOOCRPST-UHFFFAOYSA-N|Q63398249|RESOKAEMPFEROL|Resokaempherol|SCHEMBL344710|TNP00041|UNII-CDB76C6V7X|Z2216897705

>  <cas>  (966) 
2034-65-3

$$$$

     RDKit          2D

 14 13  0  0  0  0  0  0  0  0999 V2000
   -6.4952    0.7500    0.0000 C   0  0  0  0  0  0  0  0  0  0  0  0
   -5.1962    0.0000    0.0000 C   0  0  0  0  0  0  0  0  0  0  0  0
   -5.1962   -1.5000    0.0000 C   0  0  0  0  0  0  0  0  0  0  0  0
   -3.8971    0.7500    0.0000 C   0  0  0  0  0  0  0  0  0  0  0  0
   -2.5981    0.0000    0.0000 C   0  0  0  0  0  0  0  0  0  0  0  0
   -1.2990    0.7500    0.0000 N   0  0  0  0  0  0  0  0  0  0  0  0
   -0.0000    0.0000    0.0000 C   0  0  0  0  0  0  0  0  0  0  0  0
   -0.0000   -1.5000    0.0000 N   0  0  0  0  0  0  0  0  0  0  0  0
    1.2990    0.7500    0.0000 N   0  0  0  0  0  0  0  0  0  0  0  0
    2.5981    0.0000    0.0000 C   0  0  0  0  0  0  0  0  0  0  0  0
    3.8971    0.7500    0.0000 C   0  0  0  0  0  0  0  0  0  0  0  0
    5.1962    0.0000    0.0000 C   0  0  0  0  0  0  0  0  0  0  0  0
    6.4952    0.7500    0.0000 C   0  0  0  0  0  0  0  0  0  0  0  0
    5.1962   -1.5000    0.0000 C   0  0  0  0  0  0  0  0  0  0  0  0
  1  2  1  0
  2  3  1  0
  2  4  2  0
  4  5  1  0
  5  6  1  0
  6  7  1  0
  7  8  2  0
  7  9  1  0
  9 10  1  0
 10 11  1  0
 11 12  2  0
 12 13  1  0
 12 14  1  0
M  END
>  <identifier>  (967) 
CNP0169963.0

>  <canonical_smiles>  (967) 
CC(C)=CCNC(=N)NCC=C(C)C

>  <standard_inchi>  (967) 
InChI=1S/C11H21N3/c1-9(2)5-7-13-11(12)14-8-6-10(3)4/h5-6H,7-8H2,1-4H3,(H3,12,13,14)

>  <standard_inchi_key>  (967) 
PDIPOEDZYMYFGI-UHFFFAOYSA-N

>  <name>  (967) 
Pterogynidine

>  <iupac_name>  (967) 
1,3-bis(3-methylbut-2-enyl)guanidine

>  <annotation_level>  (967) 
5

>  <total_atom_count>  (967) 
35

>  <heavy_atom_count>  (967) 
14

>  <molecular_weight>  (967) 
195.31

>  <exact_molecular_weight>  (967) 
195.17355

>  <molecular_formula>  (967) 
C11H21N3

>  <alogp>  (967) 
2.03

>  <topological_polar_surface_area>  (967) 
47.91

>  <rotatable_bond_count>  (967) 
4

>  <hydrogen_bond_acceptors>  (967) 
1

>  <hydrogen_bond_donors>  (967) 
3

>  <hydrogen_bond_acceptors_lipinski>  (967) 
1

>  <hydrogen_bond_donors_lipinski>  (967) 
3

>  <lipinski_rule_of_five_violations>  (967) 
0

>  <aromatic_rings_count>  (967) 
0

>  <qed_drug_likeliness>  (967) 
0.37

>  <formal_charge>  (967) 
0

>  <fractioncsp3>  (967) 
0.55

>  <number_of_minimal_rings>  (967) 
0

>  <van_der_walls_volume>  (967) 
215.13

>  <contains_sugar>  (967) 
False

>  <contains_ring_sugars>  (967) 
False

>  <contains_linear_sugars>  (967) 
False

>  <murcko_framework>  (967) 
nan

>  <np_likeness>  (967) 
1.08

>  <chemical_class>  (967) 
Organonitrogen compounds

>  <chemical_sub_class>  (967) 
Guanidines

>  <chemical_super_class>  (967) 
Organic nitrogen compounds

>  <direct_parent_classification>  (967) 
Guanidines

>  <np_classifier_pathway>  (967) 
Terpenoids

>  <np_classifier_superclass>  (967) 
Monoterpenoids

>  <np_classifier_class>  (967) 
nan

>  <np_classifier_is_glycoside>  (967) 
False

>  <organisms>  (967) 
Pterogyne nitens

>  <collections>  (967) 
ChemSpider NPs|ConMedNP|KNApSaCK|Latin America dataset|NPASS|NuBBEDB|Super Natural II|UNPD (Universal Natural Products Database)|WikiData Natural Products|ZINC NP

>  <dois>  (967) 
10.1007/S13277-010-0064-2|10.1021/NP50125A006|10.1021/NP800612X|10.1590/S0102-695X2009000100014

>  <synonyms>  (967) 
Pterogynidine

>  <cas>  (967) 
nan

$$$$

     RDKit          2D

 17 19  0  0  0  0  0  0  0  0999 V2000
    2.0551   -2.8406    0.0000 C   0  0  0  0  0  0  0  0  0  0  0  0
    2.2030   -1.3479    0.0000 C   0  0  0  0  0  0  0  0  0  0  0  0
    0.9842   -0.4735    0.0000 C   0  0  0  0  0  0  0  0  0  0  0  0
   -0.3824   -1.0917    0.0000 C   0  0  0  0  0  0  0  0  0  0  0  0
   -0.5303   -2.5844    0.0000 O   0  0  0  0  0  0  0  0  0  0  0  0
   -1.6012   -0.2173    0.0000 C   0  0  0  0  0  0  0  0  0  0  0  0
   -1.4533    1.2754    0.0000 C   0  0  0  0  0  0  0  0  0  0  0  0
   -0.0866    1.8937    0.0000 C   0  0  0  0  0  0  0  0  0  0  0  0
    1.1321    1.0192    0.0000 C   0  0  0  0  0  0  0  0  0  0  0  0
    1.2800    2.5119    0.0000 C   0  0  0  0  0  0  0  0  0  0  0  0
    2.4988    1.6375    0.0000 C   0  0  0  0  0  0  0  0  0  0  0  0
    3.7175    0.7630    0.0000 C   0  0  0  0  0  0  0  0  0  0  0  0
    3.5696   -0.7296    0.0000 C   0  0  0  0  0  0  0  0  0  0  0  0
   -2.8272    1.8773    0.0000 O   0  0  0  0  0  0  0  0  0  0  0  0
   -3.8243    0.7567    0.0000 C   0  0  0  0  0  0  0  0  0  0  0  0
   -3.0665   -0.5379    0.0000 C   0  0  0  0  0  0  0  0  0  0  0  0
   -3.6685   -1.9118    0.0000 C   0  0  0  0  0  0  0  0  0  0  0  0
  1  2  1  0
  2  3  2  0
  3  4  1  0
  4  5  2  0
  4  6  1  0
  6  7  2  0
  7  8  1  0
  8  9  1  0
  9 10  1  6
  9 11  1  0
 11 12  2  0
 12 13  1  0
  7 14  1  0
 14 15  1  0
 15 16  2  0
 16 17  1  0
 13  2  1  0
  9  3  1  0
 16  6  1  0
M  END
>  <identifier>  (968) 
CNP0165076.1

>  <canonical_smiles>  (968) 
CC1=C2C(=O)C3=C(C[C@@]2(C)C=CC1)OC=C3C

>  <standard_inchi>  (968) 
InChI=1S/C15H16O2/c1-9-5-4-6-15(3)7-11-12(10(2)8-17-11)14(16)13(9)15/h4,6,8H,5,7H2,1-3H3/t15-/m1/s1

>  <standard_inchi_key>  (968) 
ZAUXXSQCVPKKPE-OAHLLOKOSA-N

>  <name>  (968) 
nan

>  <iupac_name>  (968) 
(8~{a}~{S})-3,5,8~{a}-trimethyl-6,9-dihydrobenzo[f]benzofuran-4-one

>  <annotation_level>  (968) 
5

>  <total_atom_count>  (968) 
33

>  <heavy_atom_count>  (968) 
17

>  <molecular_weight>  (968) 
228.29

>  <exact_molecular_weight>  (968) 
228.11503

>  <molecular_formula>  (968) 
C15H16O2

>  <alogp>  (968) 
3.61

>  <topological_polar_surface_area>  (968) 
30.21

>  <rotatable_bond_count>  (968) 
0

>  <hydrogen_bond_acceptors>  (968) 
2

>  <hydrogen_bond_donors>  (968) 
0

>  <hydrogen_bond_acceptors_lipinski>  (968) 
2

>  <hydrogen_bond_donors_lipinski>  (968) 
0

>  <lipinski_rule_of_five_violations>  (968) 
0

>  <aromatic_rings_count>  (968) 
1

>  <qed_drug_likeliness>  (968) 
0.63

>  <formal_charge>  (968) 
0

>  <fractioncsp3>  (968) 
0.40

>  <number_of_minimal_rings>  (968) 
3

>  <van_der_walls_volume>  (968) 
215.08

>  <contains_sugar>  (968) 
False

>  <contains_ring_sugars>  (968) 
False

>  <contains_linear_sugars>  (968) 
False

>  <murcko_framework>  (968) 
o1ccc2c1CC3C=CCC=C3C2

>  <np_likeness>  (968) 
2.72

>  <chemical_class>  (968) 
Prenol lipids

>  <chemical_sub_class>  (968) 
Sesquiterpenoids

>  <chemical_super_class>  (968) 
Lipids and lipid-like molecules

>  <direct_parent_classification>  (968) 
Eremophilane, 8,9-secoeremophilane and furoeremophilane sesquiterpenoids

>  <np_classifier_pathway>  (968) 
Terpenoids

>  <np_classifier_superclass>  (968) 
Sesquiterpenoids

>  <np_classifier_class>  (968) 
Germacrane sesquiterpenoids

>  <np_classifier_is_glycoside>  (968) 
False

>  <organisms>  (968) 
Ocotea pulchella

>  <collections>  (968) 
ChemSpider NPs|Latin America dataset|NuBBEDB|Super Natural II|WikiData Natural Products|ZINC NP

>  <dois>  (968) 
10.1016/S0031-9422(00)95115-X

>  <synonyms>  (968) 
14-Furanoeudesmadien-6-one

>  <cas>  (968) 
nan

$$$$

     RDKit          2D

 49 53  0  0  0  0  0  0  0  0999 V2000
  -10.0815   -6.3997    0.0000 C   0  0  0  0  0  0  0  0  0  0  0  0
   -9.2938   -5.1232    0.0000 C   0  0  0  0  0  0  0  0  0  0  0  0
  -10.0054   -3.8028    0.0000 C   0  0  0  0  0  0  0  0  0  0  0  0
   -9.2176   -2.5263    0.0000 C   0  0  0  0  0  0  0  0  0  0  0  0
   -9.9292   -1.2058    0.0000 C   0  0  0  0  0  0  0  0  0  0  0  0
  -11.4285   -1.1618    0.0000 C   0  0  0  0  0  0  0  0  0  0  0  0
   -9.1414    0.0707    0.0000 C   0  0  0  0  0  0  0  0  0  0  0  0
   -9.7111    1.4583    0.0000 C   0  0  0  0  0  0  0  0  0  0  0  0
   -8.5674    2.4289    0.0000 C   0  0  0  0  0  0  0  0  0  0  0  0
   -7.2909    1.6411    0.0000 C   0  0  0  0  0  0  0  0  0  0  0  0
   -7.0904    3.1276    0.0000 C   0  0  0  0  0  0  0  0  0  0  0  0
   -5.8513    2.0626    0.0000 C   0  0  0  0  0  0  0  0  0  0  0  0
   -5.4966    3.5200    0.0000 C   0  0  0  0  0  0  0  0  0  0  0  0
   -4.0570    3.9415    0.0000 C   0  0  0  0  0  0  0  0  0  0  0  0
   -2.9722    2.9056    0.0000 C   0  0  0  0  0  0  0  0  0  0  0  0
   -1.5326    3.3271    0.0000 C   0  0  0  0  0  0  0  0  0  0  0  0
   -0.3241    4.2155    0.0000 C   0  0  0  0  0  0  0  0  0  0  0  0
   -2.1977    4.6716    0.0000 C   0  0  0  0  0  0  0  0  0  0  0  0
   -0.4478    2.2911    0.0000 C   0  0  0  0  0  0  0  0  0  0  0  0
    0.9917    2.7126    0.0000 O   0  0  0  0  0  0  0  0  0  0  0  0
    2.0765    1.6767    0.0000 C   0  0  0  0  0  0  0  0  0  0  0  0
    1.7218    0.2192    0.0000 O   0  0  0  0  0  0  0  0  0  0  0  0
    3.5161    2.0982    0.0000 C   0  0  0  0  0  0  0  0  0  0  0  0
    4.6009    1.0622    0.0000 C   0  0  0  0  0  0  0  0  0  0  0  0
    6.0405    1.4837    0.0000 C   0  0  0  0  0  0  0  0  0  0  0  0
    7.1253    0.4477    0.0000 C   0  0  0  0  0  0  0  0  0  0  0  0
    8.5648    0.8692    0.0000 C   0  0  0  0  0  0  0  0  0  0  0  0
    9.6496   -0.1667    0.0000 C   0  0  0  0  0  0  0  0  0  0  0  0
   11.0892    0.2548    0.0000 C   0  0  0  0  0  0  0  0  0  0  0  0
   12.1740   -0.7812    0.0000 C   0  0  0  0  0  0  0  0  0  0  0  0
   13.6136   -0.3597    0.0000 C   0  0  0  0  0  0  0  0  0  0  0  0
   14.6984   -1.3956    0.0000 C   0  0  0  0  0  0  0  0  0  0  0  0
   16.1379   -0.9742    0.0000 C   0  0  0  0  0  0  0  0  0  0  0  0
   17.2227   -2.0101    0.0000 C   0  0  0  0  0  0  0  0  0  0  0  0
   18.6623   -1.5886    0.0000 C   0  0  0  0  0  0  0  0  0  0  0  0
   19.7471   -2.6246    0.0000 C   0  0  0  0  0  0  0  0  0  0  0  0
   21.1867   -2.2031    0.0000 C   0  0  0  0  0  0  0  0  0  0  0  0
   -0.8026    0.8337    0.0000 C   0  0  0  0  0  0  0  0  0  0  0  0
   -2.2422    0.4122    0.0000 C   0  0  0  0  0  0  0  0  0  0  0  0
   -3.3270    1.4481    0.0000 C   0  0  0  0  0  0  0  0  0  0  0  0
   -3.6817   -0.0093    0.0000 C   0  0  0  0  0  0  0  0  0  0  0  0
   -4.7665    1.0266    0.0000 C   0  0  0  0  0  0  0  0  0  0  0  0
   -5.1213   -0.4308    0.0000 C   0  0  0  0  0  0  0  0  0  0  0  0
   -6.5609   -0.8523    0.0000 C   0  0  0  0  0  0  0  0  0  0  0  0
   -7.6457    0.1837    0.0000 C   0  0  0  0  0  0  0  0  0  0  0  0
   -8.1508   -1.2287    0.0000 C   0  0  0  0  0  0  0  0  0  0  0  0
   -7.7944   -5.1672    0.0000 C   0  0  0  0  0  0  0  0  0  0  0  0
   -7.0828   -6.4877    0.0000 C   0  0  0  0  0  0  0  0  0  0  0  0
   -7.0066   -3.8907    0.0000 C   0  0  0  0  0  0  0  0  0  0  0  0
  1  2  2  0
  2  3  1  0
  3  4  1  0
  4  5  1  0
  5  6  1  1
  5  7  1  0
  7  8  1  6
  8  9  1  0
  9 10  1  0
 10 11  1  6
 10 12  1  0
 12 13  1  0
 13 14  1  0
 14 15  1  0
 15 16  1  0
 16 17  1  0
 16 18  1  0
 16 19  1  0
 19 20  1  1
 20 21  1  0
 21 22  2  0
 21 23  1  0
 23 24  1  0
 24 25  1  0
 25 26  1  0
 26 27  1  0
 27 28  1  0
 28 29  1  0
 29 30  1  0
 30 31  1  0
 31 32  1  0
 32 33  1  0
 33 34  1  0
 34 35  1  0
 35 36  1  0
 36 37  1  0
 19 38  1  0
 38 39  1  0
 40 39  1  6
 40 41  1  0
 42 41  1  1
 42 43  1  0
 43 44  1  0
 44 45  1  0
 45 46  1  1
  2 47  1  0
 47 48  1  0
 47 49  1  0
 45  7  1  0
 45 10  1  0
 42 12  1  0
 40 15  1  0
 42 40  1  0
M  END
>  <identifier>  (969) 
CNP0242475.2

>  <canonical_smiles>  (969) 
C=C(CC[C@@H](C)[C@@H]1CC[C@@]2(C)C3CCC4C(C)(C)[C@@H](OC(=O)CCCCCCCCCCCCCCC)CC[C@@]45C[C@@]35CC[C@]12C)C(C)C

>  <standard_inchi>  (969) 
InChI=1S/C47H82O2/c1-10-11-12-13-14-15-16-17-18-19-20-21-22-23-42(48)49-41-29-31-46-34-47(46)33-32-44(8)38(37(5)25-24-36(4)35(2)3)28-30-45(44,9)40(47)27-26-39(46)43(41,6)7/h35,37-41H,4,10-34H2,1-3,5-9H3/t37-,38+,39?,40?,41+,44-,45+,46-,47+/m1/s1

>  <standard_inchi_key>  (969) 
DSWGTWGCIOOKRQ-MXHZCADMSA-N

>  <name>  (969) 
nan

>  <iupac_name>  (969) 
[(1~{S},3~{R},6~{S},12~{S},15~{S},16~{R})-15-[(1~{R})-1,5-dimethyl-4-methylene-hexyl]-7,7,12,16-tetramethyl-6-pentacyclo[9.7.0.0^{1,3}.0^{3,8}.0^{12,16}]octadecanyl] hexadecanoate

>  <annotation_level>  (969) 
3

>  <total_atom_count>  (969) 
131

>  <heavy_atom_count>  (969) 
49

>  <molecular_weight>  (969) 
679.17

>  <exact_molecular_weight>  (969) 
678.63148

>  <molecular_formula>  (969) 
C47H82O2

>  <alogp>  (969) 
14.45

>  <topological_polar_surface_area>  (969) 
26.30

>  <rotatable_bond_count>  (969) 
20

>  <hydrogen_bond_acceptors>  (969) 
2

>  <hydrogen_bond_donors>  (969) 
0

>  <hydrogen_bond_acceptors_lipinski>  (969) 
2

>  <hydrogen_bond_donors_lipinski>  (969) 
0

>  <lipinski_rule_of_five_violations>  (969) 
2

>  <aromatic_rings_count>  (969) 
0

>  <qed_drug_likeliness>  (969) 
0.07

>  <formal_charge>  (969) 
0

>  <fractioncsp3>  (969) 
0.94

>  <number_of_minimal_rings>  (969) 
5

>  <van_der_walls_volume>  (969) 
nan

>  <contains_sugar>  (969) 
False

>  <contains_ring_sugars>  (969) 
False

>  <contains_linear_sugars>  (969) 
False

>  <murcko_framework>  (969) 
C1CCC23CC43CCC5CCCC5C4CCC2C1

>  <np_likeness>  (969) 
2.26

>  <chemical_class>  (969) 
Steroids and steroid derivatives

>  <chemical_sub_class>  (969) 
Cycloartanols and derivatives

>  <chemical_super_class>  (969) 
Lipids and lipid-like molecules

>  <direct_parent_classification>  (969) 
Cycloartanols and derivatives

>  <np_classifier_pathway>  (969) 
Terpenoids

>  <np_classifier_superclass>  (969) 
Triterpenoids

>  <np_classifier_class>  (969) 
Cycloartane triterpenoids

>  <np_classifier_is_glycoside>  (969) 
False

>  <organisms>  (969) 
Trichilia claussenii

>  <collections>  (969) 
Latin America dataset|NuBBEDB

>  <dois>  (969) 
10.1016/0031-9422(95)00696-8

>  <synonyms>  (969) 
nan

>  <cas>  (969) 
nan

$$$$

     RDKit          2D

 32 36  0  0  0  0  0  0  0  0999 V2000
    3.7632   -4.7357    0.0000 C   0  0  0  0  0  0  0  0  0  0  0  0
    4.3998   -3.3774    0.0000 O   0  0  0  0  0  0  0  0  0  0  0  0
    3.5417   -2.1471    0.0000 C   0  0  0  0  0  0  0  0  0  0  0  0
    2.0472   -2.2750    0.0000 C   0  0  0  0  0  0  0  0  0  0  0  0
    1.1892   -1.0446    0.0000 C   0  0  0  0  0  0  0  0  0  0  0  0
   -0.3054   -1.1725    0.0000 C   0  0  0  0  0  0  0  0  0  0  0  0
   -1.0804   -2.4568    0.0000 O   0  0  0  0  0  0  0  0  0  0  0  0
   -2.5413   -2.1166    0.0000 C   0  0  0  0  0  0  0  0  0  0  0  0
   -2.6692   -0.6220    0.0000 C   0  0  0  0  0  0  0  0  0  0  0  0
   -1.2873   -0.0386    0.0000 C   0  0  0  0  0  0  0  0  0  0  0  0
   -1.4152    1.4560    0.0000 C   0  0  0  0  0  0  0  0  0  0  0  0
   -2.8761    1.7962    0.0000 O   0  0  0  0  0  0  0  0  0  0  0  0
   -3.6511    0.5119    0.0000 C   0  0  0  0  0  0  0  0  0  0  0  0
   -5.1457    0.3840    0.0000 C   0  0  0  0  0  0  0  0  0  0  0  0
   -5.7822   -0.9743    0.0000 C   0  0  0  0  0  0  0  0  0  0  0  0
   -7.2767   -1.1022    0.0000 C   0  0  0  0  0  0  0  0  0  0  0  0
   -8.1347    0.1282    0.0000 C   0  0  0  0  0  0  0  0  0  0  0  0
   -9.6232    0.3138    0.0000 O   0  0  0  0  0  0  0  0  0  0  0  0
   -9.9066    1.7868    0.0000 C   0  0  0  0  0  0  0  0  0  0  0  0
   -8.5933    2.5115    0.0000 O   0  0  0  0  0  0  0  0  0  0  0  0
   -7.4982    1.4865    0.0000 C   0  0  0  0  0  0  0  0  0  0  0  0
   -6.0037    1.6143    0.0000 C   0  0  0  0  0  0  0  0  0  0  0  0
    1.8257    0.3136    0.0000 C   0  0  0  0  0  0  0  0  0  0  0  0
    3.3202    0.4415    0.0000 C   0  0  0  0  0  0  0  0  0  0  0  0
    4.1782   -0.7888    0.0000 C   0  0  0  0  0  0  0  0  0  0  0  0
    5.6728   -0.6609    0.0000 O   0  0  0  0  0  0  0  0  0  0  0  0
    6.3093    0.6973    0.0000 C   0  0  0  0  0  0  0  0  0  0  0  0
    7.8038    0.8252    0.0000 C   0  0  0  0  0  0  0  0  0  0  0  0
    8.4403    2.1835    0.0000 C   0  0  0  0  0  0  0  0  0  0  0  0
    9.9349    2.3114    0.0000 C   0  0  0  0  0  0  0  0  0  0  0  0
   10.5714    3.6696    0.0000 C   0  0  0  0  0  0  0  0  0  0  0  0
   10.7929    1.0810    0.0000 C   0  0  0  0  0  0  0  0  0  0  0  0
  1  2  1  0
  2  3  1  0
  3  4  2  0
  4  5  1  0
  6  5  1  1
  6  7  1  0
  7  8  1  0
  9  8  1  6
  9 10  1  0
 10 11  1  6
 11 12  1  0
 12 13  1  0
 13 14  1  1
 14 15  2  0
 15 16  1  0
 16 17  2  0
 17 18  1  0
 18 19  1  0
 19 20  1  0
 20 21  1  0
 21 22  2  0
  5 23  2  0
 23 24  1  0
 24 25  2  0
 25 26  1  0
 26 27  1  0
 27 28  1  0
 28 29  1  0
 29 30  2  0
 30 31  1  0
 30 32  1  0
 25  3  1  0
 10  6  1  0
 22 14  1  0
 13  9  1  0
 21 17  1  0
M  END
>  <identifier>  (970) 
CNP0080471.1

>  <canonical_smiles>  (970) 
COC1=CC([C@H]2OC[C@H]3[C@@H]2CO[C@@H]3C2=CC=C3OCOC3=C2)=CC=C1OCCC=C(C)C

>  <standard_inchi>  (970) 
InChI=1S/C26H30O6/c1-16(2)5-4-10-28-21-8-6-17(11-23(21)27-3)25-19-13-30-26(20(19)14-29-25)18-7-9-22-24(12-18)32-15-31-22/h5-9,11-12,19-20,25-26H,4,10,13-15H2,1-3H3/t19-,20-,25+,26+/m0/s1

>  <standard_inchi_key>  (970) 
IGZHRGYGJFOCHE-JZKJUIAGSA-N

>  <name>  (970) 
nan

>  <iupac_name>  (970) 
5-[(3~{S},3~{a}~{R},6~{S},6~{a}~{R})-6-[3-methoxy-4-(4-methylpent-3-enoxy)phenyl]-1,3,3~{a},4,6,6~{a}-hexahydrofuro[3,4-c]furan-3-yl]-1,3-benzodioxole

>  <annotation_level>  (970) 
4

>  <total_atom_count>  (970) 
62

>  <heavy_atom_count>  (970) 
32

>  <molecular_weight>  (970) 
438.52

>  <exact_molecular_weight>  (970) 
438.20424

>  <molecular_formula>  (970) 
C26H30O6

>  <alogp>  (970) 
5.23

>  <topological_polar_surface_area>  (970) 
55.38

>  <rotatable_bond_count>  (970) 
7

>  <hydrogen_bond_acceptors>  (970) 
6

>  <hydrogen_bond_donors>  (970) 
0

>  <hydrogen_bond_acceptors_lipinski>  (970) 
6

>  <hydrogen_bond_donors_lipinski>  (970) 
0

>  <lipinski_rule_of_five_violations>  (970) 
1

>  <aromatic_rings_count>  (970) 
2

>  <qed_drug_likeliness>  (970) 
0.44

>  <formal_charge>  (970) 
0

>  <fractioncsp3>  (970) 
0.46

>  <number_of_minimal_rings>  (970) 
5

>  <van_der_walls_volume>  (970) 
nan

>  <contains_sugar>  (970) 
False

>  <contains_ring_sugars>  (970) 
False

>  <contains_linear_sugars>  (970) 
False

>  <murcko_framework>  (970) 
O1c2ccc(cc2OC1)C3OCC4C(OCC34)c5ccccc5

>  <np_likeness>  (970) 
1.07

>  <chemical_class>  (970) 
Furanoid lignans

>  <chemical_sub_class>  (970) 
Furan lignans

>  <chemical_super_class>  (970) 
Lignans, neolignans and related compounds

>  <direct_parent_classification>  (970) 
Furan lignans

>  <np_classifier_pathway>  (970) 
Shikimates and Phenylpropanoids

>  <np_classifier_superclass>  (970) 
Lignans

>  <np_classifier_class>  (970) 
Furofuranoid lignans

>  <np_classifier_is_glycoside>  (970) 
False

>  <organisms>  (970) 
Zanthoxylum petiolare

>  <collections>  (970) 
Latin America dataset|NuBBEDB|WikiData Natural Products|ZINC NP

>  <dois>  (970) 
10.1016/S0031-9422(00)89656-9

>  <synonyms>  (970) 
yy-dimethylallyletherpiperitol, [23] (+)-piperitol-yy-dimethylallylether

>  <cas>  (970) 
nan

$$$$

     RDKit          2D

 21 23  0  0  0  0  0  0  0  0999 V2000
   -1.9365   -3.1249    0.0000 C   0  0  0  0  0  0  0  0  0  0  0  0
   -2.4613   -1.7197    0.0000 C   0  0  0  0  0  0  0  0  0  0  0  0
   -3.9406   -1.4716    0.0000 C   0  0  0  0  0  0  0  0  0  0  0  0
   -4.8952   -2.6286    0.0000 O   0  0  0  0  0  0  0  0  0  0  0  0
   -4.4654   -0.0663    0.0000 C   0  0  0  0  0  0  0  0  0  0  0  0
   -3.5108    1.0907    0.0000 C   0  0  0  0  0  0  0  0  0  0  0  0
   -4.0355    2.4959    0.0000 O   0  0  0  0  0  0  0  0  0  0  0  0
   -2.0315    0.8426    0.0000 C   0  0  0  0  0  0  0  0  0  0  0  0
   -1.5067   -0.5627    0.0000 C   0  0  0  0  0  0  0  0  0  0  0  0
   -0.0274   -0.8108    0.0000 O   0  0  0  0  0  0  0  0  0  0  0  0
    0.9272    0.3463    0.0000 C   0  0  0  0  0  0  0  0  0  0  0  0
    2.4065    0.0981    0.0000 C   0  0  0  0  0  0  0  0  0  0  0  0
    2.9313   -1.3071    0.0000 C   0  0  0  0  0  0  0  0  0  0  0  0
    4.4106   -1.5553    0.0000 C   0  0  0  0  0  0  0  0  0  0  0  0
    5.3652   -0.3982    0.0000 C   0  0  0  0  0  0  0  0  0  0  0  0
    6.8445   -0.6464    0.0000 O   0  0  0  0  0  0  0  0  0  0  0  0
    4.8404    1.0070    0.0000 C   0  0  0  0  0  0  0  0  0  0  0  0
    3.3611    1.2552    0.0000 C   0  0  0  0  0  0  0  0  0  0  0  0
    0.4024    1.7515    0.0000 C   0  0  0  0  0  0  0  0  0  0  0  0
   -1.0769    1.9996    0.0000 C   0  0  0  0  0  0  0  0  0  0  0  0
   -1.6016    3.4048    0.0000 O   0  0  0  0  0  0  0  0  0  0  0  0
  1  2  1  0
  2  3  2  0
  3  4  1  0
  3  5  1  0
  5  6  2  0
  6  7  1  0
  6  8  1  0
  8  9  2  0
  9 10  1  0
 10 11  1  0
 11 12  1  6
 12 13  2  0
 13 14  1  0
 14 15  2  0
 15 16  1  0
 15 17  1  0
 17 18  2  0
 11 19  1  0
 19 20  1  0
 20 21  2  0
  9  2  1  0
 18 12  1  0
 20  8  1  0
M  END
>  <identifier>  (971) 
CNP0273666.1

>  <canonical_smiles>  (971) 
CC1=C(O)C=C(O)C2=C1O[C@@H](C1=CC=C(O)C=C1)CC2=O

>  <standard_inchi>  (971) 
InChI=1S/C16H14O5/c1-8-11(18)6-12(19)15-13(20)7-14(21-16(8)15)9-2-4-10(17)5-3-9/h2-6,14,17-19H,7H2,1H3/t14-/m1/s1

>  <standard_inchi_key>  (971) 
GMVYLXBMPRDZDR-CQSZACIVSA-N

>  <name>  (971) 
(2r)-5,7,4'-trihydroxy-8-methylflavanone

>  <iupac_name>  (971) 
(2~{R})-5,7-dihydroxy-2-(4-hydroxyphenyl)-8-methyl-chroman-4-one

>  <annotation_level>  (971) 
5

>  <total_atom_count>  (971) 
35

>  <heavy_atom_count>  (971) 
21

>  <molecular_weight>  (971) 
286.28

>  <exact_molecular_weight>  (971) 
286.08412

>  <molecular_formula>  (971) 
C16H14O5

>  <alogp>  (971) 
2.82

>  <topological_polar_surface_area>  (971) 
86.99

>  <rotatable_bond_count>  (971) 
1

>  <hydrogen_bond_acceptors>  (971) 
5

>  <hydrogen_bond_donors>  (971) 
3

>  <hydrogen_bond_acceptors_lipinski>  (971) 
5

>  <hydrogen_bond_donors_lipinski>  (971) 
3

>  <lipinski_rule_of_five_violations>  (971) 
0

>  <aromatic_rings_count>  (971) 
2

>  <qed_drug_likeliness>  (971) 
0.75

>  <formal_charge>  (971) 
0

>  <fractioncsp3>  (971) 
0.19

>  <number_of_minimal_rings>  (971) 
3

>  <van_der_walls_volume>  (971) 
nan

>  <contains_sugar>  (971) 
False

>  <contains_ring_sugars>  (971) 
False

>  <contains_linear_sugars>  (971) 
False

>  <murcko_framework>  (971) 
O1c2ccccc2CCC1c3ccccc3

>  <np_likeness>  (971) 
1.81

>  <chemical_class>  (971) 
Flavonoids

>  <chemical_sub_class>  (971) 
Flavans

>  <chemical_super_class>  (971) 
Phenylpropanoids and polyketides

>  <direct_parent_classification>  (971) 
Flavanones

>  <np_classifier_pathway>  (971) 
Shikimates and Phenylpropanoids

>  <np_classifier_superclass>  (971) 
Flavonoids

>  <np_classifier_class>  (971) 
Flavanones

>  <np_classifier_is_glycoside>  (971) 
False

>  <organisms>  (971) 
Qualea labouriauana

>  <collections>  (971) 
Latin America dataset|NuBBEDB|Super Natural II|WikiData Natural Products|ZINC NP

>  <dois>  (971) 
10.1016/0031-9422(81)85112-6

>  <synonyms>  (971) 
(2R)-574'-Trihydroxy-8-methylflavanone

>  <cas>  (971) 
nan

$$$$

     RDKit          2D

 23 27  0  0  0  0  0  0  0  0999 V2000
   -3.6169    2.2343    0.0000 C   0  0  0  0  0  0  0  0  0  0  0  0
   -2.9977    0.8681    0.0000 C   0  0  0  0  0  0  0  0  0  0  0  0
   -2.0014    1.9894    0.0000 C   0  0  0  0  0  0  0  0  0  0  0  0
   -0.5322    1.6872    0.0000 C   0  0  0  0  0  0  0  0  0  0  0  0
   -0.0592    0.2637    0.0000 C   0  0  0  0  0  0  0  0  0  0  0  0
   -1.0556   -0.8576    0.0000 C   0  0  0  0  0  0  0  0  0  0  0  0
   -0.5826   -2.2811    0.0000 C   0  0  0  0  0  0  0  0  0  0  0  0
    0.8866   -2.5833    0.0000 C   0  0  0  0  0  0  0  0  0  0  0  0
    1.8829   -1.4620    0.0000 C   0  0  0  0  0  0  0  0  0  0  0  0
    3.3770   -1.5958    0.0000 C   0  0  0  0  0  0  0  0  0  0  0  0
    4.2398   -0.3688    0.0000 C   0  0  0  0  0  0  0  0  0  0  0  0
    5.7339   -0.5026    0.0000 O   0  0  0  0  0  0  0  0  0  0  0  0
    3.6087    0.9919    0.0000 C   0  0  0  0  0  0  0  0  0  0  0  0
    5.0979    1.1717    0.0000 O   0  0  0  0  0  0  0  0  0  0  0  0
    2.8788   -0.3185    0.0000 C   0  0  0  0  0  0  0  0  0  0  0  0
    1.4069   -0.0293    0.0000 C   0  0  0  0  0  0  0  0  0  0  0  0
    1.2272    1.4599    0.0000 C   0  0  0  0  0  0  0  0  0  0  0  0
    2.5880    2.0911    0.0000 O   0  0  0  0  0  0  0  0  0  0  0  0
   -2.5248   -0.5554    0.0000 C   0  0  0  0  0  0  0  0  0  0  0  0
   -3.7325   -1.4451    0.0000 C   0  0  0  0  0  0  0  0  0  0  0  0
   -4.9518   -0.5714    0.0000 C   0  0  0  0  0  0  0  0  0  0  0  0
   -6.3753   -1.0444    0.0000 O   0  0  0  0  0  0  0  0  0  0  0  0
   -4.4977    0.8582    0.0000 C   0  0  0  0  0  0  0  0  0  0  0  0
  2  1  1  6
  2  3  1  0
  3  4  1  0
  4  5  1  0
  5  6  1  0
  6  7  1  0
  7  8  1  0
  8  9  1  0
  9 10  1  0
 10 11  1  0
 11 12  1  1
 11 13  1  0
 13 14  1  6
 13 15  1  0
 15 16  1  0
 16 17  1  6
 17 18  1  0
  6 19  1  0
 19 20  1  0
 20 21  1  0
 21 22  2  0
 21 23  1  0
 19  2  1  0
 23  2  1  0
 16  5  1  0
 16  9  1  0
 18 13  1  0
M  END
>  <identifier>  (972) 
CNP0198571.2

>  <canonical_smiles>  (972) 
C[C@]12CCC3C(CCC4C[C@H](O)[C@@]5(O)C[C@@]43CO5)C1CC(=O)C2

>  <standard_inchi>  (972) 
InChI=1S/C19H28O4/c1-17-5-4-14-13(15(17)7-12(20)8-17)3-2-11-6-16(21)19(22)9-18(11,14)10-23-19/h11,13-16,21-22H,2-10H2,1H3/t11?,13?,14?,15?,16-,17+,18+,19+/m0/s1

>  <standard_inchi_key>  (972) 
ONICYSBMOZSVKS-SZMGWGOQSA-N

>  <name>  (972) 
nan

>  <iupac_name>  (972) 
(1~{R},5~{R},15~{S},16~{R})-15,16-dihydroxy-5-methyl-17-oxapentacyclo[14.2.1.0^{1,13}.0^{2,10}.0^{5,9}]nonadecan-7-one

>  <annotation_level>  (972) 
4

>  <total_atom_count>  (972) 
51

>  <heavy_atom_count>  (972) 
23

>  <molecular_weight>  (972) 
320.43

>  <exact_molecular_weight>  (972) 
320.19876

>  <molecular_formula>  (972) 
C19H28O4

>  <alogp>  (972) 
2.27

>  <topological_polar_surface_area>  (972) 
66.76

>  <rotatable_bond_count>  (972) 
0

>  <hydrogen_bond_acceptors>  (972) 
4

>  <hydrogen_bond_donors>  (972) 
2

>  <hydrogen_bond_acceptors_lipinski>  (972) 
4

>  <hydrogen_bond_donors_lipinski>  (972) 
2

>  <lipinski_rule_of_five_violations>  (972) 
0

>  <aromatic_rings_count>  (972) 
0

>  <qed_drug_likeliness>  (972) 
0.72

>  <formal_charge>  (972) 
0

>  <fractioncsp3>  (972) 
0.95

>  <number_of_minimal_rings>  (972) 
5

>  <van_der_walls_volume>  (972) 
nan

>  <contains_sugar>  (972) 
False

>  <contains_ring_sugars>  (972) 
False

>  <contains_linear_sugars>  (972) 
False

>  <murcko_framework>  (972) 
O1CC23CC1CCC3CCC4C5CCCC5CCC42

>  <np_likeness>  (972) 
3.07

>  <chemical_class>  (972) 
Steroids and steroid derivatives

>  <chemical_sub_class>  (972) 
Oxosteroids

>  <chemical_super_class>  (972) 
Lipids and lipid-like molecules

>  <direct_parent_classification>  (972) 
16-oxosteroids

>  <np_classifier_pathway>  (972) 
Terpenoids

>  <np_classifier_superclass>  (972) 
Steroids

>  <np_classifier_class>  (972) 
Androstane steroids

>  <np_classifier_is_glycoside>  (972) 
True

>  <organisms>  (972) 
Trichilia claussenii

>  <collections>  (972) 
Latin America dataset|NuBBEDB

>  <dois>  (972) 
10.1016/S0031-9422(97)00167-2

>  <synonyms>  (972) 
2\u221a\u00e9\u00ac\u00b13\u221a\u00e9\u00ac\u00b1-Dihydroxy-androstan-16-one 2\u221a\u00e9\u00ac\u226419-hemiketal

>  <cas>  (972) 
nan

$$$$

     RDKit          2D

 25 29  0  0  0  0  0  0  0  0999 V2000
   -6.5057    1.2267    0.0000 C   0  0  0  0  0  0  0  0  0  0  0  0
   -5.0330    1.5114    0.0000 C   0  0  0  0  0  0  0  0  0  0  0  0
   -4.0500    0.3784    0.0000 C   0  0  0  0  0  0  0  0  0  0  0  0
   -4.3889   -1.0828    0.0000 C   0  0  0  0  0  0  0  0  0  0  0  0
   -5.7703   -1.6676    0.0000 O   0  0  0  0  0  0  0  0  0  0  0  0
   -3.1039   -1.8567    0.0000 C   0  0  0  0  0  0  0  0  0  0  0  0
   -1.9709   -0.8737    0.0000 C   0  0  0  0  0  0  0  0  0  0  0  0
   -0.4823   -1.0580    0.0000 C   0  0  0  0  0  0  0  0  0  0  0  0
    0.1025   -2.4393    0.0000 C   0  0  0  0  0  0  0  0  0  0  0  0
    1.5911   -2.6236    0.0000 C   0  0  0  0  0  0  0  0  0  0  0  0
    2.4950   -1.4265    0.0000 C   0  0  0  0  0  0  0  0  0  0  0  0
    3.9949   -1.4410    0.0000 C   0  0  0  0  0  0  0  0  0  0  0  0
    4.7574   -0.1492    0.0000 C   0  0  0  0  0  0  0  0  0  0  0  0
    6.2574   -0.1637    0.0000 O   0  0  0  0  0  0  0  0  0  0  0  0
    4.0200    1.1570    0.0000 C   0  0  0  0  0  0  0  0  0  0  0  0
    5.4901    1.4547    0.0000 O   0  0  0  0  0  0  0  0  0  0  0  0
    3.3967   -0.2074    0.0000 C   0  0  0  0  0  0  0  0  0  0  0  0
    1.9065   -0.0362    0.0000 C   0  0  0  0  0  0  0  0  0  0  0  0
    1.6088    1.4339    0.0000 C   0  0  0  0  0  0  0  0  0  0  0  0
    2.9150    2.1714    0.0000 O   0  0  0  0  0  0  0  0  0  0  0  0
    0.4216    0.1391    0.0000 C   0  0  0  0  0  0  0  0  0  0  0  0
   -0.1631    1.5204    0.0000 C   0  0  0  0  0  0  0  0  0  0  0  0
   -1.6517    1.7047    0.0000 C   0  0  0  0  0  0  0  0  0  0  0  0
   -2.5556    0.5076    0.0000 C   0  0  0  0  0  0  0  0  0  0  0  0
   -3.2815    1.8203    0.0000 C   0  0  0  0  0  0  0  0  0  0  0  0
  1  2  1  0
  3  2  1  6
  3  4  1  0
  4  5  2  0
  4  6  1  0
  7  6  1  6
  7  8  1  0
  8  9  1  1
  9 10  1  0
 11 10  1  6
 11 12  1  0
 12 13  1  0
 13 14  1  6
 13 15  1  0
 15 16  1  1
 15 17  1  0
 17 18  1  0
 18 19  1  6
 19 20  1  0
 18 21  1  0
 21 22  1  6
 22 23  1  0
 23 24  1  0
 24 25  1  6
 24  3  1  0
 24  7  1  0
 21  8  1  0
 18 11  1  0
 20 15  1  0
M  END
>  <identifier>  (973) 
CNP0135860.1

>  <canonical_smiles>  (973) 
CC[C@H]1C(=O)C[C@H]2[C@@H]3CC[C@H]4C[C@@H](O)[C@]5(O)C[C@]4(CO5)[C@H]3CC[C@]12C

>  <standard_inchi>  (973) 
InChI=1S/C21H32O4/c1-3-14-17(22)9-16-13-5-4-12-8-18(23)21(24)10-20(12,11-25-21)15(13)6-7-19(14,16)2/h12-16,18,23-24H,3-11H2,1-2H3/t12-,13+,14-,15-,16-,18+,19+,20+,21-/m0/s1

>  <standard_inchi_key>  (973) 
YTQLYPLDMHKTML-JHZVCAIQSA-N

>  <name>  (973) 
nan

>  <iupac_name>  (973) 
(1~{R},2~{S},5~{S},6~{R},9~{S},10~{S},13~{S},15~{R},16~{S})-6-ethyl-15,16-dihydroxy-5-methyl-17-oxapentacyclo[14.2.1.0^{1,13}.0^{2,10}.0^{5,9}]nonadecan-7-one

>  <annotation_level>  (973) 
4

>  <total_atom_count>  (973) 
57

>  <heavy_atom_count>  (973) 
25

>  <molecular_weight>  (973) 
348.48

>  <exact_molecular_weight>  (973) 
348.23006

>  <molecular_formula>  (973) 
C21H32O4

>  <alogp>  (973) 
2.90

>  <topological_polar_surface_area>  (973) 
66.76

>  <rotatable_bond_count>  (973) 
1

>  <hydrogen_bond_acceptors>  (973) 
4

>  <hydrogen_bond_donors>  (973) 
2

>  <hydrogen_bond_acceptors_lipinski>  (973) 
4

>  <hydrogen_bond_donors_lipinski>  (973) 
2

>  <lipinski_rule_of_five_violations>  (973) 
0

>  <aromatic_rings_count>  (973) 
0

>  <qed_drug_likeliness>  (973) 
0.76

>  <formal_charge>  (973) 
0

>  <fractioncsp3>  (973) 
0.95

>  <number_of_minimal_rings>  (973) 
5

>  <van_der_walls_volume>  (973) 
329.50

>  <contains_sugar>  (973) 
False

>  <contains_ring_sugars>  (973) 
False

>  <contains_linear_sugars>  (973) 
False

>  <murcko_framework>  (973) 
O1CC23CC1CCC3CCC4C5CCCC5CCC42

>  <np_likeness>  (973) 
2.95

>  <chemical_class>  (973) 
Steroids and steroid derivatives

>  <chemical_sub_class>  (973) 
Oxosteroids

>  <chemical_super_class>  (973) 
Lipids and lipid-like molecules

>  <direct_parent_classification>  (973) 
16-oxosteroids

>  <np_classifier_pathway>  (973) 
Terpenoids

>  <np_classifier_superclass>  (973) 
Steroids

>  <np_classifier_class>  (973) 
Pregnane steroids

>  <np_classifier_is_glycoside>  (973) 
True

>  <organisms>  (973) 
Acer spicatum|Cephalaria procera|Citrus paradisi|Cytisus ciliatus|Diospyros maritima|Domohinea perrieri|Dracaena mannii|Helipterum propinquum|Limnodynastes interioris|Lobophytum denticulatum|Mannia fragrans|Melia volkensii|Mesua beccariana|Millettia pinnata|Nephthea armata|Parthenium bipinnatifidum|Pittosporum undulatum|Stephanitis rhododendri|Streptomyces luteosporeus|Trichilia claussenii

>  <collections>  (973) 
CMAUP (cCollective molecular activities of useful plants)|Latin America dataset|NPASS|NuBBEDB|Super Natural II|WikiData Natural Products

>  <dois>  (973) 
10.1016/S0031-9422(97)00167-2|10.1021/JO980158Q

>  <synonyms>  (973) 
2\u221a\u00e9\u00ac\u00b13\u221a\u00e9\u00ac\u2264-Dihydroxypregnan-16-one 2\u221a\u00e9\u00ac\u226419-hemiketal

>  <cas>  (973) 
nan

$$$$

     RDKit          2D

 15 16  0  0  0  0  0  0  0  0999 V2000
    3.0000   -2.7713    0.0000 C   0  0  0  0  0  0  0  0  0  0  0  0
    2.2500   -1.4722    0.0000 C   0  0  0  0  0  0  0  0  0  0  0  0
    0.7500   -1.4722    0.0000 C   0  0  0  0  0  0  0  0  0  0  0  0
    0.0000   -0.1732    0.0000 C   0  0  0  0  0  0  0  0  0  0  0  0
    0.7500    1.1258    0.0000 C   0  0  0  0  0  0  0  0  0  0  0  0
    2.2500    1.1258    0.0000 C   0  0  0  0  0  0  0  0  0  0  0  0
    3.0000   -0.1732    0.0000 C   0  0  0  0  0  0  0  0  0  0  0  0
   -0.0000    2.4249    0.0000 C   0  0  0  0  0  0  0  0  0  0  0  0
    0.7500    3.7239    0.0000 C   0  0  0  0  0  0  0  0  0  0  0  0
   -1.5000    2.4249    0.0000 C   0  0  0  0  0  0  0  0  0  0  0  0
   -2.2500    1.1258    0.0000 C   0  0  0  0  0  0  0  0  0  0  0  0
   -1.5000   -0.1732    0.0000 C   0  0  0  0  0  0  0  0  0  0  0  0
   -2.2500   -1.4722    0.0000 C   0  0  0  0  0  0  0  0  0  0  0  0
   -3.7500   -1.4722    0.0000 C   0  0  0  0  0  0  0  0  0  0  0  0
   -1.5000   -2.7713    0.0000 C   0  0  0  0  0  0  0  0  0  0  0  0
  1  2  1  0
  2  3  2  0
  4  3  1  1
  4  5  1  0
  5  6  1  1
  6  7  1  0
  5  8  1  0
  8  9  1  0
  8 10  2  0
 10 11  1  0
 11 12  1  0
 12 13  1  6
 13 14  1  0
 13 15  1  0
  7  2  1  0
 12  4  1  0
M  END
>  <identifier>  (974) 
CNP0163726.6

>  <canonical_smiles>  (974) 
CC1=C[C@@H]2[C@H](CC1)C(C)=CC[C@H]2C(C)C

>  <standard_inchi>  (974) 
InChI=1S/C15H24/c1-10(2)13-8-6-12(4)14-7-5-11(3)9-15(13)14/h6,9-10,13-15H,5,7-8H2,1-4H3/t13-,14+,15-/m0/s1

>  <standard_inchi_key>  (974) 
QMAYBMKBYCGXDH-ZNMIVQPWSA-N

>  <name>  (974) 
alpha-Muurolene

>  <iupac_name>  (974) 
(1~{S},4~{a}~{S},8~{a}~{R})-1-isopropyl-4,7-dimethyl-1,2,4~{a},5,6,8~{a}-hexahydronaphthalene

>  <annotation_level>  (974) 
5

>  <total_atom_count>  (974) 
39

>  <heavy_atom_count>  (974) 
15

>  <molecular_weight>  (974) 
204.36

>  <exact_molecular_weight>  (974) 
204.1878

>  <molecular_formula>  (974) 
C15H24

>  <alogp>  (974) 
4.58

>  <topological_polar_surface_area>  (974) 
0.00

>  <rotatable_bond_count>  (974) 
1

>  <hydrogen_bond_acceptors>  (974) 
0

>  <hydrogen_bond_donors>  (974) 
0

>  <hydrogen_bond_acceptors_lipinski>  (974) 
0

>  <hydrogen_bond_donors_lipinski>  (974) 
0

>  <lipinski_rule_of_five_violations>  (974) 
0

>  <aromatic_rings_count>  (974) 
0

>  <qed_drug_likeliness>  (974) 
0.55

>  <formal_charge>  (974) 
0

>  <fractioncsp3>  (974) 
0.73

>  <number_of_minimal_rings>  (974) 
2

>  <van_der_walls_volume>  (974) 
226.09

>  <contains_sugar>  (974) 
False

>  <contains_ring_sugars>  (974) 
False

>  <contains_linear_sugars>  (974) 
False

>  <murcko_framework>  (974) 
C1=CC2CCC=CC2CC1

>  <np_likeness>  (974) 
2.98

>  <chemical_class>  (974) 
Prenol lipids

>  <chemical_sub_class>  (974) 
Sesquiterpenoids

>  <chemical_super_class>  (974) 
Lipids and lipid-like molecules

>  <direct_parent_classification>  (974) 
Sesquiterpenoids

>  <np_classifier_pathway>  (974) 
Terpenoids

>  <np_classifier_superclass>  (974) 
Sesquiterpenoids

>  <np_classifier_class>  (974) 
Cadinane sesquiterpenoids

>  <np_classifier_is_glycoside>  (974) 
False

>  <organisms>  (974) 
Abies nordmanniana|Abies pinsapo|Abies pinsapo subsp. marocana|Achillea abrotanoides|Achillea millefolium|Agathosma betulina|Ageratum conyzoides|Aguacate|Aiouea costaricensis|Alangium premnifolium|Alpinia zerumbet|Angelica tarokoensis|Annona cascarilloides|Antidesma laciniatum|Aplysilla pallida|Arnica chamissonis|Artabotrys lastoursvillensis|Artemisia coerulescens|Asarum gusk|Aster scaber|Baccharis articulata|Baccharis dracunculifolia|Baccharis rufescens|Bazzania japonica|Beilschmiedia pendula|Bitter bush|Bombax ceiba|Boswellia carteri|Boswellia frereana|Boswellia sacra|Bragantia wallichii|Breonia chinensis|Bupleurum acutifolium|Campylotropis hirtella|Cananga odorata|Canarium luzonicum|Cecropia pachystachya|Cedrela odorata|Ceropegia dichotoma|Chamaecyparis lawsoniana|Cinnamomum parthenoxylon|Cistus creticus|Cistus ladanifer|Cistus laurifolius|Cistus monspeliensis|Citrus grandis|Citrus × paradisi|Cleistopholis patens|Colobocentrotus atratus|Commiphora gurreh|Commiphora quadricincta|Conyza incana|Cotinus coggygria|Crinum moorei|Crotalaria candicans|Croton cortesianus|Croton eluteria|Croton jimenezii|Cryptomeria japonica|Culcitium canescens|Cupressus sempervirens|Curcuma pierreana|Cutaneotrichosporon cutaneum|Cycas revoluta|Cymbopogon schoenanthus|Cyperus Rotundus|Cyperus rotundus|Daniellia oliveri|Delphinium andersoni|Dendrobium loddigesii|Dendropanax trifidus|Diphasia angolensis|Distephanus angulifolius|Echinus auritus|Elsholtzia fruticosa|Entandrophragma cylindricum|Epimedium davidii|Eria japonica|Erigeron sumatrensis|Erysimum odoratum|Etlingera elatior|Eucalyptus acaciiformis|Eucalyptus apodophylla|Eucalyptus globulus subsp. bicostata|Eupatorium cannabinum|Eupolyphaga sinensis|Eutypella scoparia|Frullania tamarisci|Galenia africana|Gastrolobium callistachys|Globba malaccensis|Glycosmis macrophylla|Gnidia lamprantha|Grazielia serrata|Gypsophila perfoliata|Hedychium spicatum|Helichrysum amorginum|Helichrysum italicum|Helichrysum odoratissimum|Heracleum dissectum|Herba patriniae|Heterotheca inuloides|Hexalobus crispiflorus|Homalomena occulta|Homo sapiens|Humulus lupulus|Hypericum polyanthemum|Hyptis spicigera|Hyptis suaveolens|Ilex amara|Isodon japonicus|Jugo|Juniperus comitana|Juniperus drupacea|Juniperus durangensis|Juniperus gamboana|Juniperus jaliscana|Juniperus oxycedrus|Juniperus standleyi|Juniperus taxifolia|Knightia excelsa|Lantana indica|Larix gmelinii var. gmelinii|Larix gmelinii var. olgensis|Larix sibirica|Laurencia distichophylla|Lavandula stoechas|Leonurus glaucescens|Lepidium draba|Leplaea cedrata|Lippia Myriocephala|Lippia alba|Lippia dulcis|Lippia grata|Lippia multiflora|Litsea laurifolia|Maba buxifolia|Macaranga indica|Manekia naranjoana|Martensia denticulata|Melaleuca Leucadendra|Melaleuca alternifolia|Mentha cardiaca|Micromeria myrtifolia|Micromeria pineolens|Micromeria sinaica|Mikania banisteriae|Mikania congesta|Mikania cordifolia|Mikania parviflora|Nasutitermes novarumhebridarum|Nectandra salicina|Nemalion vermiculare|Nepeta racemosa|Nidula candida|Ocotea austinii|Ocotea gomezii|Ononis spinosa|Ophiocoma scolopendrina|Origanum vulgare|Pectis brevipedunculata|Pelargonium endlicherianum|Pelargonium quercifolium|Pelargonium vitifolium|Penicillium citreonigrum|Pentaclethra macrophylla|Periploca sepium|Persea tolimanensis|Phaseolus atropurpureus|Pholiota nameko|Phyllodesmium lizardense|Phyllodesmium lizardensis|Picea koraiensis|Picea orientalis|Pimenta dioica|Pimenta racemosa|Pinus albicaulis|Pinus heldreichii|Pinus pinaster|Pinus pumila|Pinus sylvestris|Pinus sylvestris var. hamata|Piper aduncum|Piper arboreum|Piper augustum|Piper auritum|Piper fimbriulatum|Piper obliquum|Pistacia lentiscus|Pittosporum balfourii|Pittosporum tobira|Platostoma africanum|Plectranthus myrianthus|Podachaenium eminens|Premna schimperi|Psiadia altissima|Psidium friedrichsthalianum|Pterocaulon virgatum|Ptychopetalum olacoides|Quercus sessiliflora|Rhaponticum carthamoides|Rhodiola semenovii|Rhododendron mucronulatum|Rosmarinus Officinalis|Rosmarinus officinalis|Salacia madagascariensis|Salvia absconditiflora|Salvia caespitosa|Salvia dorisiana|Salvia dorystaechas|Salvia ianthina|Salvia officinalis|Salvia sclarea|Salvia sessei|Salvia tomentosa|Santolina chamaecyparissus|Santolina corsica|Santolina insularis|Sarcococca coriacea|Saussurea carthamoides|Schinus lentiscifolia|Schinus lentiscifolius|Schinus molle|Sequoia sempervirens|Sideritis ibanezii|Sideritis lyciae|Sideritis tragoriganum|Smallanthus maculatus|Solanum acaule|Solidago canadensis|Sonneratia caseolaris|Spodoptera eridania|Spongia zimocca|Stemodia viscosa|Stephania zippeliana|Stockwellia|Stolonica socialis|Streptomyces fimicarius BWL-H1|Streptomyces griseovariabilis|Streptomyces tumescens|Strychnos tomentosa|Succinus|Swertia delavayi|Synoicum castellatum|Syzygium nervosum|Tagetes lucida|Talaromyces variabilis|Tamarindus indica|Tephrosia crassifolia|Tetradenia riparia|Teucrium asiaticum|Teucrium oxylepis|Teucrium polium|Teucrium pseudoscorodonia|Teucrium salviastrum|Teucrium scorodonia|Thymus vulgaris|Trichothecium sympodiale|Trigonella foenum-graecum|Tristania conferta|Tubifera ferruginosa|Uvaria chamae|Uvaria narum|Vaccinium vitis-idaea|Valeriana jatamansi|Vallota purpurea|Vernonia cistifolia|Veronica polita|Vismia jefensis|Vitis heyneana|Xylopia aethiopica|Xylopia aromatica|Xylopia sericea|Zanthoxylum zanthoxyloides|Zingiber Officinale|Zingiber officinale|bellis perennis|clove|maize|pomelo|potato

>  <collections>  (974) 
ANPDB|Australian natural products|CMAUP (cCollective molecular activities of useful plants)|EMNPD|Latin America dataset|NANPDB (Natural Products from Northern African Sources)|NAPRORE-CR|NPASS|NuBBEDB|StreptomeDB|Super Natural II|VietHerb|WikiData Natural Products

>  <dois>  (974) 
10.1002/(SICI)1099-1026(199601)11:1<15::AID-FFJ541>3.0.CO;2-H|10.1002/(SICI)1099-1026(199701)12:1<47::AID-FFJ610>3.0.CO;2-7|10.1002/(SICI)1099-1573(1998)12:1+<S117::AID-PTR269>3.0.CO;2-2|10.1002/ARDP.19803130302|10.1002/FFJ.2730060307|10.1002/FFJ.2730080504|10.1002/FFJ.2730090107|10.1002/FFJ.2730100310|10.1002/HLCA.201200359|10.1007/BF00567053|10.1007/BF00567284|10.1007/BF00567793|10.1007/BF00570218|10.1007/BF00576212|10.1007/BF00576230|10.1007/BF00577187|10.1007/BF00579988|10.1007/BF00580452|10.1007/BF00581596|10.1007/BF00980588|10.1007/BF01386197|10.1016/0031-9422(82)83091-4|10.1016/0031-9422(83)85029-8|10.1016/0031-9422(89)80285-7|10.1016/0031-9422(90)85109-S|10.1016/0031-9422(90)85421-B|10.1016/0031-9422(91)83064-R|10.1016/0031-9422(91)84207-9|10.1016/0031-9422(95)00183-8|10.1016/0305-1978(85)90081-X|10.1016/0305-1978(92)90070-T|10.1016/0305-1978(96)00023-3|10.1016/J.APJTM.2016.06.009|10.1016/J.PHYTOCHEM.2003.08.004|10.1016/J.PHYTOCHEM.2008.12.018|10.1016/J.PHYTOCHEM.2011.09.002|10.1016/S0031-9422(00)80325-8|10.1016/S0031-9422(00)80558-0|10.1016/S0031-9422(00)83061-7|10.1016/S0031-9422(00)83062-9|10.1016/S0031-9422(00)84802-5|10.1016/S0031-9422(00)94835-0|10.1016/S0031-9422(00)95102-1|10.1016/S0031-9422(00)95206-3|10.1016/S0031-9422(00)97558-7|10.1016/S0031-9422(01)00301-6|10.1016/S0031-9422(03)00188-2|10.1016/S0031-9422(96)00559-6|10.1016/S0031-9422(96)00691-7|10.1016/S0031-9422(97)00762-0|10.1016/S0031-9422(97)00795-4|10.1016/S0378-8741(97)01528-6|10.1021/JA02260A021|10.1021/JF00034A020|10.1021/JF00034A033|10.1021/JF00035A029|10.1021/JF00069A028|10.1021/JF00104A026|10.1021/JF00116A075|10.1021/JF00118A056|10.1021/JF00125A044|10.1021/JF60199A051|10.1021/JF60201A021|10.1021/NP50038A026|10.1021/NP50039A032|10.1021/NP50040A037|10.1021/NP50040A040|10.1021/NP50041A034|10.1021/NP50044A039|10.1021/NP50046A035|10.1021/NP50048A037|10.1021/NP50048A039|10.1021/NP800583E|10.1021/NP980445P|10.1021/jf011456i|10.1021/np50017a018|10.1055/S-2000-9780|10.1055/S-2006-957489|10.1055/S-2006-957672|10.1055/S-2006-957914|10.1055/S-2006-959581|10.1055/S-2006-959673|10.1055/S-2006-959674|10.1055/S-2006-960126|10.1055/S-2006-960872|10.1055/S-2006-961490|10.1055/S-2006-962016|10.1055/S-2006-962093|10.1055/S-2006-962450|10.1055/S-2006-962688|10.1055/S-2007-969160|10.1055/S-2007-969499|10.1055/S-2007-969591|10.1055/S-2007-969599|10.1076/PHBI.35.3.218.13295|10.1080/10412905.1991.9697930|10.1080/10412905.1991.9697952|10.1080/10412905.1991.9697953|10.1080/10412905.1991.9700500|10.1080/10412905.1992.9698015|10.1080/10412905.1992.9698068|10.1080/10412905.1992.9698083|10.1080/10412905.1992.9698087|10.1080/10412905.1992.9698109|10.1080/10412905.1992.9698112|10.1080/10412905.1993.9698184|10.1080/10412905.1993.9698202|10.1080/10412905.1993.9698205|10.1080/10412905.1993.9698206|10.1080/10412905.1993.9698218|10.1080/10412905.1993.9698235|10.1080/10412905.1993.9698250|10.1080/10412905.1993.9698253|10.1080/10412905.1994.9698330|10.1080/10412905.1994.9698449|10.1080/10412905.1994.9699347|10.1080/10412905.1994.9699348|10.1080/10412905.1994.9699362|10.1080/10412905.1994.9699366|10.1080/10412905.1995.9698462|10.1080/10412905.1995.9698479|10.1080/10412905.1995.9698496|10.1080/10412905.1995.9698502|10.1080/10412905.1995.9698508|10.1080/10412905.1995.9698516|10.1080/10412905.1996.9700558|10.1080/10412905.1996.9701048|10.1080/10412905.1997.9700812|10.1080/10412905.1998.9700913|10.1080/10412905.1998.9701015|10.1080/10412905.1999.9701056|10.1080/10412905.1999.9701102|10.1080/10412905.2002.9699883|10.1080/10412905.2004.9698688|10.1080/10412905.2004.9698740|10.1080/10412905.2004.9698744|10.1080/10412905.2007.9699946|10.1080/10412905.2010.9700320|10.1080/10412905.2010.9700389|10.1080/10412905.2018.1431966|10.1080/14786410701848154|10.1088/1752-7155/8/1/014001|10.1155/2014/614187|10.1177/1934578X1100600135|10.1246/BCSJ.51.3395|10.1248/CPB.52.354|10.1271/BBB1961.45.1493|10.1271/BBB1961.49.1583|10.1271/BBB1961.52.2961|10.1271/BBB1961.55.2571|10.1515/ZNC-1984-7-802|10.1515/ZNC-1984-7-803|10.1590/S0100-40422009000200028|10.1590/S0103-50532000000600012|10.1590/S0103-50532011000400018|10.3109/13880209109082876|10.3109/13880209109082877|10.3166/SDA.22.249-264|10.3390/12030283|10.3390/12030389|10.3390/molecules23020358|10.3891/ACTA.CHEM.SCAND.21-0159|10.3891/ACTA.CHEM.SCAND.21-2076

>  <synonyms>  (974) 
(+)-alpha-muurolene|(-)-.alpha.-Muurolene|(1S,4AS,8AR)-1,2,4A,5,6,8A-HEXAHYDRO-4,7-DIMETHYL-1-(1-METHYLETHYL)NAPHTHALENE|(1S,4aS,8aR)-1-isopropyl-4,7-dimethyl-1,2,4a,5,6,8a-hexahydronaphthalene|(1S,4aS,8aR)-4,7-dimethyl-1-(propan-2-yl)-1,2,4a,5,6,8a-hexahydronaphthalene|.alpha.-Muurolene|1.BETA.-CADINA-4,9-DIENE|10208-80-7|31983-22-9|B1-Cadinene|C20272|CHEBI:64797|D2ZGB75M36|DTXSID90144629|Muurolene|NAPHTHALENE, 1,2,4A,5,6,8A-HEXAHYDRO-4,7-DIMETHYL-1-(1-METHYLETHYL)-, (1S-(1.ALPHA.,4A.ALPHA.,8A.ALPHA.))-|NS00095990|Naphthalene, 1,2,4a,5,6,8a-hexahydro-4,7-dimethyl-1-(1-methylethyl)-, (1S,4aS,8aR)-|Naphthalene, 1,2,4a,5,6,8a-hexahydro-4,7-dimethyl-1-(1-methylethyl)-, (1S-(1alpha,4aalpha,8aalpha))-|Q27133436|QMAYBMKBYCGXDH-ZNMIVQPWSA-N|UNII-D2ZGB75M36|\u221a\u00e9\u00ac\u00b1-Muurolene|_-muurolene|alpha-Muurolene, (-)-

>  <cas>  (974) 
10208-80-7

$$$$

     RDKit          2D

 34 38  0  0  0  0  0  0  0  0999 V2000
    8.2477    0.6305    0.0000 C   0  0  0  0  0  0  0  0  0  0  0  0
    7.3585   -0.5775    0.0000 C   0  0  0  0  0  0  0  0  0  0  0  0
    6.4693   -1.7856    0.0000 C   0  0  0  0  0  0  0  0  0  0  0  0
    8.5665   -1.4667    0.0000 O   0  0  0  0  0  0  0  0  0  0  0  0
    6.1505    0.3117    0.0000 C   0  0  0  0  0  0  0  0  0  0  0  0
    6.1598    1.8116    0.0000 C   0  0  0  0  0  0  0  0  0  0  0  0
    4.7361    2.2840    0.0000 C   0  0  0  0  0  0  0  0  0  0  0  0
    3.8469    1.0760    0.0000 C   0  0  0  0  0  0  0  0  0  0  0  0
    2.7384    2.0866    0.0000 C   0  0  0  0  0  0  0  0  0  0  0  0
    2.7260    0.0792    0.0000 C   0  0  0  0  0  0  0  0  0  0  0  0
    2.8735   -1.4135    0.0000 C   0  0  0  0  0  0  0  0  0  0  0  0
    1.4994   -2.0151    0.0000 C   0  0  0  0  0  0  0  0  0  0  0  0
    0.5027   -0.8942    0.0000 C   0  0  0  0  0  0  0  0  0  0  0  0
   -0.1159   -2.2607    0.0000 C   0  0  0  0  0  0  0  0  0  0  0  0
    1.2607    0.4002    0.0000 C   0  0  0  0  0  0  0  0  0  0  0  0
    0.5188    1.7038    0.0000 C   0  0  0  0  0  0  0  0  0  0  0  0
   -0.9812    1.7131    0.0000 C   0  0  0  0  0  0  0  0  0  0  0  0
   -1.7392    0.4188    0.0000 C   0  0  0  0  0  0  0  0  0  0  0  0
   -3.2392    0.4281    0.0000 C   0  0  0  0  0  0  0  0  0  0  0  0
   -2.4812    1.7224    0.0000 C   0  0  0  0  0  0  0  0  0  0  0  0
   -3.9811    1.7317    0.0000 C   0  0  0  0  0  0  0  0  0  0  0  0
   -5.4811    1.7411    0.0000 C   0  0  0  0  0  0  0  0  0  0  0  0
   -6.2391    0.4467    0.0000 C   0  0  0  0  0  0  0  0  0  0  0  0
   -7.7391    0.4560    0.0000 N   0  0  0  0  0  0  0  0  0  0  0  0
   -8.4810    1.7597    0.0000 O   0  0  0  0  0  0  0  0  0  0  0  0
   -5.4972   -0.8570    0.0000 C   0  0  0  0  0  0  0  0  0  0  0  0
   -5.2459   -2.3358    0.0000 C   0  0  0  0  0  0  0  0  0  0  0  0
   -6.9099   -1.3613    0.0000 C   0  0  0  0  0  0  0  0  0  0  0  0
   -3.9972   -0.8663    0.0000 C   0  0  0  0  0  0  0  0  0  0  0  0
   -3.2553   -2.1699    0.0000 C   0  0  0  0  0  0  0  0  0  0  0  0
   -1.7553   -2.1792    0.0000 C   0  0  0  0  0  0  0  0  0  0  0  0
   -0.9973   -0.8849    0.0000 C   0  0  0  0  0  0  0  0  0  0  0  0
   -0.2393    0.4095    0.0000 C   0  0  0  0  0  0  0  0  0  0  0  0
    4.7210   -0.1430    0.0000 O   0  0  0  0  0  0  0  0  0  0  0  0
  1  2  1  0
  2  3  1  0
  2  4  1  0
  5  2  1  1
  5  6  1  0
  6  7  1  0
  7  8  1  0
  8  9  1  1
  8 10  1  0
 10 11  1  1
 11 12  1  0
 12 13  1  0
 13 14  1  6
 13 15  1  0
 15 16  1  6
 16 17  1  0
 18 17  1  1
 18 19  1  0
 19 20  1  1
 19 21  1  0
 21 22  1  0
 22 23  1  0
 23 24  2  0
 24 25  1  0
 23 26  1  0
 26 27  1  0
 26 28  1  0
 26 29  1  0
 29 30  1  1
 30 31  1  0
 31 32  1  0
 32 33  1  1
  8 34  1  0
 34  5  1  0
 15 10  1  0
 32 18  1  0
 32 13  1  0
 29 19  1  0
M  END
>  <identifier>  (975) 
CNP0080629.1

>  <canonical_smiles>  (975) 
CC(C)(O)[C@@H]1CC[C@@](C)([C@H]2CC[C@]3(C)[C@@H]2CC[C@@H]2[C@@]4(C)CC/C(=N\O)C(C)(C)[C@@H]4CC[C@]23C)O1

>  <standard_inchi>  (975) 
InChI=1S/C30H51NO3/c1-25(2)21-12-17-29(7)22(27(21,5)15-13-23(25)31-33)10-9-19-20(11-16-28(19,29)6)30(8)18-14-24(34-30)26(3,4)32/h19-22,24,32-33H,9-18H2,1-8H3/b31-23+/t19-,20+,21+,22-,24+,27+,28-,29-,30+/m1/s1

>  <standard_inchi_key>  (975) 
ZEZLUDTWEQFFOC-XJZSUXFPSA-N

>  <name>  (975) 
Cabraleone oxime

>  <iupac_name>  (975) 
(~{E},5~{R},8~{R},9~{R},10~{R},13~{R},14~{R},17~{S})-17-[(2~{S},5~{S})-5-(1-hydroxy-1-methyl-ethyl)-2-methyl-tetrahydrofuran-2-yl]-4,4,8,10,14-pentamethyl-1,2,5,6,7,9,11,12,13,15,16,17-dodecahydrocyclopenta[a]phenanthren-3-one oxime

>  <annotation_level>  (975) 
5

>  <total_atom_count>  (975) 
85

>  <heavy_atom_count>  (975) 
34

>  <molecular_weight>  (975) 
473.74

>  <exact_molecular_weight>  (975) 
473.38689

>  <molecular_formula>  (975) 
C30H51NO3

>  <alogp>  (975) 
7.21

>  <topological_polar_surface_area>  (975) 
62.05

>  <rotatable_bond_count>  (975) 
2

>  <hydrogen_bond_acceptors>  (975) 
4

>  <hydrogen_bond_donors>  (975) 
2

>  <hydrogen_bond_acceptors_lipinski>  (975) 
4

>  <hydrogen_bond_donors_lipinski>  (975) 
2

>  <lipinski_rule_of_five_violations>  (975) 
1

>  <aromatic_rings_count>  (975) 
0

>  <qed_drug_likeliness>  (975) 
0.33

>  <formal_charge>  (975) 
0

>  <fractioncsp3>  (975) 
0.97

>  <number_of_minimal_rings>  (975) 
5

>  <van_der_walls_volume>  (975) 
nan

>  <contains_sugar>  (975) 
False

>  <contains_ring_sugars>  (975) 
False

>  <contains_linear_sugars>  (975) 
False

>  <murcko_framework>  (975) 
O1CCCC1C2CCC3C2CCC4C5CCCCC5CCC43

>  <np_likeness>  (975) 
2.76

>  <chemical_class>  (975) 
Prenol lipids

>  <chemical_sub_class>  (975) 
Terpene glycosides

>  <chemical_super_class>  (975) 
Lipids and lipid-like molecules

>  <direct_parent_classification>  (975) 
Triterpene saponins

>  <np_classifier_pathway>  (975) 
Terpenoids

>  <np_classifier_superclass>  (975) 
Triterpenoids

>  <np_classifier_class>  (975) 
Dammarane and Protostane triterpenoids

>  <np_classifier_is_glycoside>  (975) 
False

>  <organisms>  (975) 
Cabralea polytricha

>  <collections>  (975) 
Latin America dataset|NuBBEDB

>  <dois>  (975) 
10.1016/0040-4020(72)80138-8

>  <synonyms>  (975) 
Cabraleone oxime

>  <cas>  (975) 
nan

$$$$

     RDKit          2D

 36 38  0  0  0  0  0  0  0  0999 V2000
    6.5317   -2.5860    0.0000 C   0  0  0  0  0  0  0  0  0  0  0  0
    5.0561   -2.3167    0.0000 C   0  0  0  0  0  0  0  0  0  0  0  0
    4.0850   -3.4599    0.0000 C   0  0  0  0  0  0  0  0  0  0  0  0
    4.5896   -4.8725    0.0000 C   0  0  0  0  0  0  0  0  0  0  0  0
    2.6094   -3.1906    0.0000 C   0  0  0  0  0  0  0  0  0  0  0  0
    2.1049   -1.7780    0.0000 C   0  0  0  0  0  0  0  0  0  0  0  0
    0.6292   -1.5087    0.0000 C   0  0  0  0  0  0  0  0  0  0  0  0
    0.6202   -3.0087    0.0000 C   0  0  0  0  0  0  0  0  0  0  0  0
    1.1507   -0.1023    0.0000 C   0  0  0  0  0  0  0  0  0  0  0  0
    2.6294    0.1493    0.0000 C   0  0  0  0  0  0  0  0  0  0  0  0
    0.1934    1.0526    0.0000 C   0  0  0  0  0  0  0  0  0  0  0  0
    0.7149    2.4590    0.0000 O   0  0  0  0  0  0  0  0  0  0  0  0
    2.1936    2.7106    0.0000 C   0  0  0  0  0  0  0  0  0  0  0  0
    3.1509    1.5558    0.0000 O   0  0  0  0  0  0  0  0  0  0  0  0
    2.7151    4.1170    0.0000 C   0  0  0  0  0  0  0  0  0  0  0  0
    4.1939    4.3687    0.0000 C   0  0  0  0  0  0  0  0  0  0  0  0
    4.7153    5.7751    0.0000 C   0  0  0  0  0  0  0  0  0  0  0  0
   -1.2853    0.8009    0.0000 C   0  0  0  0  0  0  0  0  0  0  0  0
   -1.9347    2.1531    0.0000 O   0  0  0  0  0  0  0  0  0  0  0  0
   -1.8068   -0.6055    0.0000 C   0  0  0  0  0  0  0  0  0  0  0  0
   -3.2855   -0.8571    0.0000 C   0  0  0  0  0  0  0  0  0  0  0  0
   -3.8070   -2.2635    0.0000 C   0  0  0  0  0  0  0  0  0  0  0  0
   -2.8497   -3.4184    0.0000 C   0  0  0  0  0  0  0  0  0  0  0  0
   -3.3712   -4.8248    0.0000 O   0  0  0  0  0  0  0  0  0  0  0  0
   -1.3710   -3.1668    0.0000 C   0  0  0  0  0  0  0  0  0  0  0  0
   -0.8495   -1.7603    0.0000 C   0  0  0  0  0  0  0  0  0  0  0  0
   -2.8477   -1.1949    0.0000 C   0  0  0  0  0  0  0  0  0  0  0  0
   -5.4659    0.6892    0.0000 O   0  0  0  0  0  0  0  0  0  0  0  0
   -6.0195    2.0833    0.0000 C   0  0  0  0  0  0  0  0  0  0  0  0
   -7.5036    2.3010    0.0000 C   0  0  0  0  0  0  0  0  0  0  0  0
   -2.5811   -0.5260    0.0000 O   0  0  0  0  0  0  0  0  0  0  0  0
   -2.1083   -1.0691    0.0000 C   0  0  0  0  0  0  0  0  0  0  0  0
   -0.2605    1.5749    0.0000 O   0  0  0  0  0  0  0  0  0  0  0  0
   -0.1992    3.0736    0.0000 C   0  0  0  0  0  0  0  0  0  0  0  0
    1.1294    3.7699    0.0000 C   0  0  0  0  0  0  0  0  0  0  0  0
   -1.4665    3.8761    0.0000 O   0  0  0  0  0  0  0  0  0  0  0  0
  1  2  2  0
  2  3  1  0
  3  4  1  0
  3  5  2  0
  5  6  1  0
  6  7  1  0
  7  8  1  6
  7  9  1  0
  9 10  1  1
  9 11  1  0
 11 12  1  6
 12 13  1  0
 13 14  2  0
 13 15  1  0
 15 16  1  0
 16 17  1  0
 11 18  1  0
 18 19  1  1
 18 20  1  0
 20 21  1  6
 21 22  2  0
 22 23  1  0
 23 24  1  1
 23 25  1  0
 26 25  1  6
 21 27  1  0
 27 28  1  6
 28 29  1  0
 29 30  1  0
 27 31  1  0
 31 32  1  0
 32 33  1  6
 33 34  1  0
 34 35  1  0
 34 36  2  0
 26  7  1  0
 26 20  1  0
 32 20  1  0
M  END
>  <identifier>  (976) 
CNP0223667.1

>  <canonical_smiles>  (976) 
C=C/C(C)=C\C[C@]1(C)[C@H](C)[C@@H](OC(=O)CCC)[C@H](O)[C@@]23C(=C[C@H](O)C[C@@H]12)[C@@H](OCC)O[C@H]3OC(C)=O

>  <standard_inchi>  (976) 
InChI=1S/C28H42O8/c1-8-11-22(31)35-23-17(5)27(7,13-12-16(4)9-2)21-15-19(30)14-20-25(33-10-3)36-26(34-18(6)29)28(20,21)24(23)32/h9,12,14,17,19,21,23-26,30,32H,2,8,10-11,13,15H2,1,3-7H3/b16-12-/t17-,19+,21+,23-,24+,25+,26-,27-,28-/m1/s1

>  <standard_inchi_key>  (976) 
CCCYGLFSKFPJID-PZRZUAEBSA-N

>  <name>  (976) 
nan

>  <iupac_name>  (976) 
[(1~{S},3~{S},5~{R},6~{a}~{S},7~{S},8~{S},9~{R},10~{R},10~{a}~{S})-1-acetoxy-3-ethoxy-5,10-dihydroxy-7,8-dimethyl-7-[(2~{Z})-3-methylpenta-2,4-dienyl]-1,3,5,6,6~{a},8,9,10-octahydrobenzo[d]isobenzofuran-9-yl] butanoate

>  <annotation_level>  (976) 
5

>  <total_atom_count>  (976) 
78

>  <heavy_atom_count>  (976) 
36

>  <molecular_weight>  (976) 
506.64

>  <exact_molecular_weight>  (976) 
506.28797

>  <molecular_formula>  (976) 
C28H42O8

>  <alogp>  (976) 
3.81

>  <topological_polar_surface_area>  (976) 
111.52

>  <rotatable_bond_count>  (976) 
9

>  <hydrogen_bond_acceptors>  (976) 
8

>  <hydrogen_bond_donors>  (976) 
2

>  <hydrogen_bond_acceptors_lipinski>  (976) 
8

>  <hydrogen_bond_donors_lipinski>  (976) 
2

>  <lipinski_rule_of_five_violations>  (976) 
1

>  <aromatic_rings_count>  (976) 
0

>  <qed_drug_likeliness>  (976) 
0.28

>  <formal_charge>  (976) 
0

>  <fractioncsp3>  (976) 
0.71

>  <number_of_minimal_rings>  (976) 
3

>  <van_der_walls_volume>  (976) 
480.11

>  <contains_sugar>  (976) 
False

>  <contains_ring_sugars>  (976) 
False

>  <contains_linear_sugars>  (976) 
False

>  <murcko_framework>  (976) 
O1CC2=CCCC3CCCCC23C1

>  <np_likeness>  (976) 
3.35

>  <chemical_class>  (976) 
Prenol lipids

>  <chemical_sub_class>  (976) 
Diterpenoids

>  <chemical_super_class>  (976) 
Lipids and lipid-like molecules

>  <direct_parent_classification>  (976) 
Colensane and clerodane diterpenoids

>  <np_classifier_pathway>  (976) 
Terpenoids

>  <np_classifier_superclass>  (976) 
Diterpenoids

>  <np_classifier_class>  (976) 
Colensane and Clerodane diterpenoids

>  <np_classifier_is_glycoside>  (976) 
True

>  <organisms>  (976) 
Casearia sylvestris

>  <collections>  (976) 
ChemSpider NPs|Latin America dataset|NuBBEDB|Super Natural II|WikiData Natural Products|ZINC NP

>  <dois>  (976) 
10.1002/PCA.902|10.1002/pca.902|10.1248/CPB.38.3384

>  <synonyms>  (976) 
Casearin F

>  <cas>  (976) 
nan

$$$$

     RDKit          2D

  7  7  0  0  0  0  0  0  0  0999 V2000
    2.5714    0.0000    0.0000 C   0  0  0  0  0  0  0  0  0  0  0  0
    1.0714   -0.0000    0.0000 C   0  0  0  0  0  0  0  0  0  0  0  0
    0.3214   -1.2990    0.0000 C   0  0  0  0  0  0  0  0  0  0  0  0
   -1.1786   -1.2990    0.0000 C   0  0  0  0  0  0  0  0  0  0  0  0
   -1.9286    0.0000    0.0000 C   0  0  0  0  0  0  0  0  0  0  0  0
   -1.1786    1.2990    0.0000 C   0  0  0  0  0  0  0  0  0  0  0  0
    0.3214    1.2990    0.0000 C   0  0  0  0  0  0  0  0  0  0  0  0
  1  2  1  0
  2  3  1  0
  3  4  1  0
  4  5  1  0
  5  6  1  0
  6  7  1  0
  7  2  1  0
M  END
>  <identifier>  (977) 
CNP0191222.0

>  <canonical_smiles>  (977) 
CC1CCCCC1

>  <standard_inchi>  (977) 
InChI=1S/C7H14/c1-7-5-3-2-4-6-7/h7H,2-6H2,1H3

>  <standard_inchi_key>  (977) 
UAEPNZWRGJTJPN-UHFFFAOYSA-N

>  <name>  (977) 
METHYLCYCLOHEXANE

>  <iupac_name>  (977) 
methylcyclohexane

>  <annotation_level>  (977) 
5

>  <total_atom_count>  (977) 
21

>  <heavy_atom_count>  (977) 
7

>  <molecular_weight>  (977) 
98.19

>  <exact_molecular_weight>  (977) 
98.10955

>  <molecular_formula>  (977) 
C7H14

>  <alogp>  (977) 
2.59

>  <topological_polar_surface_area>  (977) 
0.00

>  <rotatable_bond_count>  (977) 
0

>  <hydrogen_bond_acceptors>  (977) 
0

>  <hydrogen_bond_donors>  (977) 
0

>  <hydrogen_bond_acceptors_lipinski>  (977) 
0

>  <hydrogen_bond_donors_lipinski>  (977) 
0

>  <lipinski_rule_of_five_violations>  (977) 
0

>  <aromatic_rings_count>  (977) 
0

>  <qed_drug_likeliness>  (977) 
0.44

>  <formal_charge>  (977) 
0

>  <fractioncsp3>  (977) 
1.00

>  <number_of_minimal_rings>  (977) 
1

>  <van_der_walls_volume>  (977) 
117.12

>  <contains_sugar>  (977) 
False

>  <contains_ring_sugars>  (977) 
False

>  <contains_linear_sugars>  (977) 
False

>  <murcko_framework>  (977) 
C1CCCCC1

>  <np_likeness>  (977) 
-0.02

>  <chemical_class>  (977) 
Saturated hydrocarbons

>  <chemical_sub_class>  (977) 
Cycloalkanes

>  <chemical_super_class>  (977) 
Hydrocarbons

>  <direct_parent_classification>  (977) 
Cycloalkanes

>  <np_classifier_pathway>  (977) 
Fatty acids

>  <np_classifier_superclass>  (977) 
Fatty acyls

>  <np_classifier_class>  (977) 
Hydrocarbons

>  <np_classifier_is_glycoside>  (977) 
False

>  <organisms>  (977) 
Acca sellowiana|Asystasia gangetica|Burkholderia tropica|Carica papaya|Caryocar coriaceum|Crataegus pinnatifida|Homo sapiens (Exhaled breath)|Lycopersicon Esculentum|Lycopersicon esculentum Mill.|Nicotiana tabacum|Opuntia ficus-indica

>  <collections>  (977) 
Australian natural products|CMAUP (cCollective molecular activities of useful plants)|FooDB|KNApSaCK|Latin America dataset|NuBBEDB|Super Natural II|TCMDB-Taiwan (Traditional Chinese Medicine database)|TCMID (Traditional Chinese Medicine Integrated Database)|TIPdb (database of Taiwan indigenous plants)|UNPD (Universal Natural Products Database)|VietHerb|WikiData Natural Products|ZINC NP

>  <dois>  (977) 
10.1016/J.INDCROP.2012.02.029|10.1021/JF00119A021|10.1021/JF00120A031|10.1021/JF60209A051|10.1021/JF60218A053|10.1021/jf00120a031|10.1080/0972060x.2011.10643975|10.3390/MOLECULES24112053|10.4161/BIOE.23808

>  <synonyms>  (977) 
108-87-2|A801936|AI3-18132|AKOS015842776|CAS-108-87-2|CHEBI:165745|Cyclohexane, methyl-|Cyclohexylmethane|DTXCID4027733|DTXSID0047749|EC 203-624-3|EINECS 203-624-3|H5WXT3SV31|HSDB 98|Hexahydrotoluene|InChI=1\/C7H14\/c1-7-5-3-2-4-6-7\/h7H,2-6H2,1H|J-522692|LMFA11000660|M0190|M0244|M0627|MCHX|METHYLCYCLOHEXANE (USP-RS)|METHYLCYCLOHEXANE [HSDB]|METHYLCYCLOHEXANE [MI]|METHYLCYCLOHEXANE-D11 (RING-D11)|MFCD00001497|Methylcyclohexane 100 microg\/mL in Acetonitrile|Methylcyclohexane 1000 microg\/mL in Methanol|Methylcyclohexane [UN2296]  [Flammable liquid]|Methylcyclohexane, 99%|Methylcyclohexane, ReagentPlus(R), 99%|Methylcyclohexane, analytical standard|Methylcyclohexane, anhydrous, >=99%|Methylcyclohexane, purum, absolute, over molecular sieve (H2O <=0.005%), >=98.0% (GC)|Methylcyclohexane, spectrophotometric grade, 99%|Metylocykloheksan|Metylocykloheksan [Polish]|NCGC00357267-01|NS00002209|NSC 9391|NSC-9391|Q419330|Sextone B|TOLUENE, HEXAHYDRO|Toluene hexahydride|Toluene, hexahydro-|Tox21_303867|UN2296|UNII-H5WXT3SV31|WLN: L6TJ A1|for HPLC, inverted exclamation markY99%|methyl cyclohexane

>  <cas>  (977) 
108-87-2

$$$$

     RDKit          2D

 25 25  0  0  0  0  0  0  0  0999 V2000
  -10.7590   -0.7260    0.0000 C   0  0  0  0  0  0  0  0  0  0  0  0
   -9.3811   -0.1332    0.0000 C   0  0  0  0  0  0  0  0  0  0  0  0
   -9.2056    1.3565    0.0000 O   0  0  0  0  0  0  0  0  0  0  0  0
   -8.1788   -1.0300    0.0000 O   0  0  0  0  0  0  0  0  0  0  0  0
   -6.8009   -0.4372    0.0000 C   0  0  0  0  0  0  0  0  0  0  0  0
   -6.6254    1.0525    0.0000 C   0  0  0  0  0  0  0  0  0  0  0  0
   -5.2475    1.6453    0.0000 C   0  0  0  0  0  0  0  0  0  0  0  0
   -4.0452    0.7485    0.0000 C   0  0  0  0  0  0  0  0  0  0  0  0
   -2.6673    1.3413    0.0000 C   0  0  0  0  0  0  0  0  0  0  0  0
   -1.4649    0.4445    0.0000 C   0  0  0  0  0  0  0  0  0  0  0  0
   -0.0871    1.0373    0.0000 C   0  0  0  0  0  0  0  0  0  0  0  0
    1.1153    0.1405    0.0000 C   0  0  0  0  0  0  0  0  0  0  0  0
    2.4932    0.7333    0.0000 C   0  0  0  0  0  0  0  0  0  0  0  0
    3.6955   -0.1635    0.0000 C   0  0  0  0  0  0  0  0  0  0  0  0
    5.0734    0.4293    0.0000 C   0  0  0  0  0  0  0  0  0  0  0  0
    6.2757   -0.4676    0.0000 C   0  0  0  0  0  0  0  0  0  0  0  0
    7.6536    0.1253    0.0000 C   0  0  0  0  0  0  0  0  0  0  0  0
    8.8560   -0.7716    0.0000 C   0  0  0  0  0  0  0  0  0  0  0  0
   10.2338   -0.1787    0.0000 C   0  0  0  0  0  0  0  0  0  0  0  0
   10.4094    1.3110    0.0000 O   0  0  0  0  0  0  0  0  0  0  0  0
   11.4362   -1.0756    0.0000 C   0  0  0  0  0  0  0  0  0  0  0  0
   12.8141   -0.4827    0.0000 O   0  0  0  0  0  0  0  0  0  0  0  0
   -4.2207   -0.7412    0.0000 N   0  0  0  0  0  0  0  0  0  0  0  0
   -5.5986   -1.3341    0.0000 C   0  0  0  0  0  0  0  0  0  0  0  0
   -5.7741   -2.8238    0.0000 C   0  0  0  0  0  0  0  0  0  0  0  0
  1  2  1  0
  2  3  2  0
  2  4  1  0
  5  4  1  1
  5  6  1  0
  6  7  1  0
  7  8  1  0
  8  9  1  1
  9 10  1  0
 10 11  1  0
 11 12  1  0
 12 13  1  0
 13 14  1  0
 14 15  1  0
 15 16  1  0
 16 17  1  0
 17 18  1  0
 18 19  1  0
 19 20  1  0
 19 21  1  0
 21 22  1  0
  8 23  1  0
 23 24  1  0
 24 25  1  1
 24  5  1  0
M  END
>  <identifier>  (978) 
CNP0325611.1

>  <canonical_smiles>  (978) 
CC(=O)O[C@H]1CC[C@@H](CCCCCCCCCCC(O)CO)N[C@H]1C

>  <standard_inchi>  (978) 
InChI=1S/C20H39NO4/c1-16-20(25-17(2)23)14-13-18(21-16)11-9-7-5-3-4-6-8-10-12-19(24)15-22/h16,18-22,24H,3-15H2,1-2H3/t16-,18+,19?,20-/m0/s1

>  <standard_inchi_key>  (978) 
MJPZKLRGLLDPRZ-UVIIYCAGSA-N

>  <name>  (978) 
nan

>  <iupac_name>  (978) 
[(2~{S},3~{S},6~{R})-6-(11,12-dihydroxydodecyl)-2-methyl-3-piperidyl] acetate

>  <annotation_level>  (978) 
4

>  <total_atom_count>  (978) 
64

>  <heavy_atom_count>  (978) 
25

>  <molecular_weight>  (978) 
357.53

>  <exact_molecular_weight>  (978) 
357.28791

>  <molecular_formula>  (978) 
C20H39NO4

>  <alogp>  (978) 
3.31

>  <topological_polar_surface_area>  (978) 
78.79

>  <rotatable_bond_count>  (978) 
13

>  <hydrogen_bond_acceptors>  (978) 
5

>  <hydrogen_bond_donors>  (978) 
3

>  <hydrogen_bond_acceptors_lipinski>  (978) 
5

>  <hydrogen_bond_donors_lipinski>  (978) 
3

>  <lipinski_rule_of_five_violations>  (978) 
0

>  <aromatic_rings_count>  (978) 
0

>  <qed_drug_likeliness>  (978) 
0.35

>  <formal_charge>  (978) 
0

>  <fractioncsp3>  (978) 
0.95

>  <number_of_minimal_rings>  (978) 
1

>  <van_der_walls_volume>  (978) 
nan

>  <contains_sugar>  (978) 
False

>  <contains_ring_sugars>  (978) 
False

>  <contains_linear_sugars>  (978) 
False

>  <murcko_framework>  (978) 
N1CCCCC1

>  <np_likeness>  (978) 
2.17

>  <chemical_class>  (978) 
nan

>  <chemical_sub_class>  (978) 
Alkaloids and derivatives

>  <chemical_super_class>  (978) 
Alkaloids and derivatives

>  <direct_parent_classification>  (978) 
Alkaloids and derivatives

>  <np_classifier_pathway>  (978) 
Alkaloids

>  <np_classifier_superclass>  (978) 
Lysine alkaloids

>  <np_classifier_class>  (978) 
Piperidine alkaloids

>  <np_classifier_is_glycoside>  (978) 
False

>  <organisms>  (978) 
Cassia leptophylla

>  <collections>  (978) 
Latin America dataset|NuBBEDB|WikiData Natural Products

>  <dois>  (978) 
10.1016/0040-4020(95)00254-6

>  <synonyms>  (978) 
3-Acetylleptophyllin A

>  <cas>  (978) 
nan

$$$$

     RDKit          2D

 38 42  0  0  0  0  0  0  0  0999 V2000
   -8.5801   -0.6323    0.0000 C   0  0  0  0  0  0  0  0  0  0  0  0
   -7.3976   -1.5552    0.0000 O   0  0  0  0  0  0  0  0  0  0  0  0
   -6.0071   -0.9925    0.0000 C   0  0  0  0  0  0  0  0  0  0  0  0
   -5.7991    0.4930    0.0000 C   0  0  0  0  0  0  0  0  0  0  0  0
   -4.4087    1.0556    0.0000 C   0  0  0  0  0  0  0  0  0  0  0  0
   -3.2262    0.1328    0.0000 C   0  0  0  0  0  0  0  0  0  0  0  0
   -3.4341   -1.3527    0.0000 C   0  0  0  0  0  0  0  0  0  0  0  0
   -4.8246   -1.9154    0.0000 C   0  0  0  0  0  0  0  0  0  0  0  0
   -5.0326   -3.4009    0.0000 O   0  0  0  0  0  0  0  0  0  0  0  0
   -2.2516   -2.2756    0.0000 O   0  0  0  0  0  0  0  0  0  0  0  0
   -0.8611   -1.7129    0.0000 C   0  0  0  0  0  0  0  0  0  0  0  0
    0.3214   -2.6358    0.0000 O   0  0  0  0  0  0  0  0  0  0  0  0
   -0.6532   -0.2274    0.0000 C   0  0  0  0  0  0  0  0  0  0  0  0
    0.7373    0.3352    0.0000 C   0  0  0  0  0  0  0  0  0  0  0  0
    0.9453    1.8207    0.0000 C   0  0  0  0  0  0  0  0  0  0  0  0
    2.3357    2.3834    0.0000 O   0  0  0  0  0  0  0  0  0  0  0  0
    3.5182    1.4605    0.0000 C   0  0  0  0  0  0  0  0  0  0  0  0
    3.3103   -0.0250    0.0000 O   0  0  0  0  0  0  0  0  0  0  0  0
    4.4928   -0.9478    0.0000 C   0  0  0  0  0  0  0  0  0  0  0  0
    4.2848   -2.4333    0.0000 C   0  0  0  0  0  0  0  0  0  0  0  0
    2.8944   -2.9960    0.0000 O   0  0  0  0  0  0  0  0  0  0  0  0
    2.6864   -4.4815    0.0000 C   0  0  0  0  0  0  0  0  0  0  0  0
    1.2959   -5.0442    0.0000 C   0  0  0  0  0  0  0  0  0  0  0  0
    3.8689   -5.4044    0.0000 O   0  0  0  0  0  0  0  0  0  0  0  0
    5.8833   -0.3852    0.0000 C   0  0  0  0  0  0  0  0  0  0  0  0
    7.0658   -1.3080    0.0000 O   0  0  0  0  0  0  0  0  0  0  0  0
    6.0912    1.1003    0.0000 C   0  0  0  0  0  0  0  0  0  0  0  0
    7.4817    1.6630    0.0000 O   0  0  0  0  0  0  0  0  0  0  0  0
    4.9087    2.0232    0.0000 C   0  0  0  0  0  0  0  0  0  0  0  0
    5.1167    3.5087    0.0000 O   0  0  0  0  0  0  0  0  0  0  0  0
   -0.2372    2.7436    0.0000 C   0  0  0  0  0  0  0  0  0  0  0  0
   -0.0293    4.2291    0.0000 O   0  0  0  0  0  0  0  0  0  0  0  0
    1.3612    4.7918    0.0000 C   0  0  0  0  0  0  0  0  0  0  0  0
   -1.6277    2.1809    0.0000 C   0  0  0  0  0  0  0  0  0  0  0  0
   -1.8357    0.6954    0.0000 C   0  0  0  0  0  0  0  0  0  0  0  0
   -2.8102    3.1038    0.0000 O   0  0  0  0  0  0  0  0  0  0  0  0
   -4.2007    2.5411    0.0000 C   0  0  0  0  0  0  0  0  0  0  0  0
   -5.3832    3.4640    0.0000 O   0  0  0  0  0  0  0  0  0  0  0  0
  1  2  1  0
  2  3  1  0
  3  4  2  0
  4  5  1  0
  5  6  2  0
  6  7  1  0
  7  8  2  0
  8  9  1  0
  7 10  1  0
 10 11  1  0
 11 12  2  0
 11 13  1  0
 13 14  2  0
 14 15  1  0
 15 16  1  0
 17 16  1  1
 17 18  1  0
 18 19  1  0
 19 20  1  1
 20 21  1  0
 21 22  1  0
 22 23  1  0
 22 24  2  0
 19 25  1  0
 25 26  1  6
 25 27  1  0
 27 28  1  1
 27 29  1  0
 29 30  1  6
 15 31  2  0
 31 32  1  0
 32 33  1  0
 31 34  1  0
 34 35  2  0
 34 36  1  0
 36 37  1  0
 37 38  2  0
  8  3  1  0
 35 13  1  0
 37  5  1  0
 35  6  1  0
 29 17  1  0
M  END
>  <identifier>  (979) 
CNP0142759.1

>  <canonical_smiles>  (979) 
COC1=CC2=C3C(=C1O)OC(=O)C1=CC(O[C@@H]4O[C@H](COC(C)=O)[C@@H](O)[C@H](O)[C@H]4O)=C(OC)C(=C13)OC2=O

>  <standard_inchi>  (979) 
InChI=1S/C24H22O14/c1-7(25)34-6-12-15(26)17(28)18(29)24(36-12)35-11-5-9-14-13-8(23(31)38-21(14)19(11)33-3)4-10(32-2)16(27)20(13)37-22(9)30/h4-5,12,15,17-18,24,26-29H,6H2,1-3H3/t12-,15-,17+,18-,24-/m1/s1

>  <standard_inchi_key>  (979) 
RQIKJFPMCUEYIW-BMMFWZCSSA-N

>  <name>  (979) 
nan

>  <iupac_name>  (979) 
[(2~{R},3~{S},4~{S},5~{R},6~{S})-3,4,5-trihydroxy-6-[(14-hydroxy-7,13-dimethoxy-3,10-dioxo-2,9-dioxatetracyclo[6.6.2.0^{4,16}.0^{11,15}]hexadeca-1(14),4,6,8(16),11(15),12-hexaen-6-yl)oxy]tetrahydropyran-2-yl]methyl acetate

>  <annotation_level>  (979) 
4

>  <total_atom_count>  (979) 
60

>  <heavy_atom_count>  (979) 
38

>  <molecular_weight>  (979) 
534.43

>  <exact_molecular_weight>  (979) 
534.10096

>  <molecular_formula>  (979) 
C24H22O14

>  <alogp>  (979) 
-0.04

>  <topological_polar_surface_area>  (979) 
204.56

>  <rotatable_bond_count>  (979) 
6

>  <hydrogen_bond_acceptors>  (979) 
14

>  <hydrogen_bond_donors>  (979) 
4

>  <hydrogen_bond_acceptors_lipinski>  (979) 
14

>  <hydrogen_bond_donors_lipinski>  (979) 
4

>  <lipinski_rule_of_five_violations>  (979) 
2

>  <aromatic_rings_count>  (979) 
4

>  <qed_drug_likeliness>  (979) 
0.15

>  <formal_charge>  (979) 
0

>  <fractioncsp3>  (979) 
0.38

>  <number_of_minimal_rings>  (979) 
5

>  <van_der_walls_volume>  (979) 
nan

>  <contains_sugar>  (979) 
True

>  <contains_ring_sugars>  (979) 
True

>  <contains_linear_sugars>  (979) 
False

>  <murcko_framework>  (979) 
O1c2cccc3c2-c4c(OC3)cc(OC5OCCCC5)cc4C1

>  <np_likeness>  (979) 
1.80

>  <chemical_class>  (979) 
Tannins

>  <chemical_sub_class>  (979) 
Hydrolyzable tannins

>  <chemical_super_class>  (979) 
Phenylpropanoids and polyketides

>  <direct_parent_classification>  (979) 
Hydrolyzable tannins

>  <np_classifier_pathway>  (979) 
Shikimates and Phenylpropanoids

>  <np_classifier_superclass>  (979) 
Coumarins

>  <np_classifier_class>  (979) 
Isocoumarins

>  <np_classifier_is_glycoside>  (979) 
True

>  <organisms>  (979) 
Siphoneugena densiflora

>  <collections>  (979) 
Latin America dataset|NuBBEDB|WikiData Natural Products|ZINC NP

>  <dois>  (979) 
10.1002/PS.1278|10.1002/ps.1278|10.1590/S0103-50532006000200010

>  <synonyms>  (979) 
34'-di-O-methylellagic acid 4-O-\u221a\u00e9\u00ac\u2264-D-6''-O-acetylglucopyranoside

>  <cas>  (979) 
nan

$$$$

     RDKit          2D

 30 32  0  0  0  0  0  0  0  0999 V2000
   -2.1076    4.7903    0.0000 C   0  0  0  0  0  0  0  0  0  0  0  0
   -3.3989    4.0269    0.0000 C   0  0  0  0  0  0  0  0  0  0  0  0
   -4.7055    4.7635    0.0000 C   0  0  0  0  0  0  0  0  0  0  0  0
   -3.3834    2.5270    0.0000 C   0  0  0  0  0  0  0  0  0  0  0  0
   -4.6747    1.7637    0.0000 C   0  0  0  0  0  0  0  0  0  0  0  0
   -4.6592    0.2638    0.0000 C   0  0  0  0  0  0  0  0  0  0  0  0
   -3.3526   -0.4728    0.0000 C   0  0  0  0  0  0  0  0  0  0  0  0
   -3.3371   -1.9727    0.0000 C   0  0  0  0  0  0  0  0  0  0  0  0
   -2.0304   -2.7093    0.0000 C   0  0  0  0  0  0  0  0  0  0  0  0
   -0.7392   -1.9460    0.0000 C   0  0  0  0  0  0  0  0  0  0  0  0
    0.5675   -2.6826    0.0000 C   0  0  0  0  0  0  0  0  0  0  0  0
    0.5829   -4.1825    0.0000 O   0  0  0  0  0  0  0  0  0  0  0  0
    1.8588   -1.9193    0.0000 C   0  0  0  0  0  0  0  0  0  0  0  0
    3.1654   -2.6559    0.0000 C   0  0  0  0  0  0  0  0  0  0  0  0
    3.1809   -4.1558    0.0000 O   0  0  0  0  0  0  0  0  0  0  0  0
    4.4567   -1.8925    0.0000 C   0  0  0  0  0  0  0  0  0  0  0  0
    4.4413   -0.3926    0.0000 C   0  0  0  0  0  0  0  0  0  0  0  0
    5.7325    0.3707    0.0000 O   0  0  0  0  0  0  0  0  0  0  0  0
    5.7171    1.8706    0.0000 C   0  0  0  0  0  0  0  0  0  0  0  0
    6.2156    3.2854    0.0000 C   0  0  0  0  0  0  0  0  0  0  0  0
    7.1969    1.6254    0.0000 C   0  0  0  0  0  0  0  0  0  0  0  0
    4.4104    2.6072    0.0000 C   0  0  0  0  0  0  0  0  0  0  0  0
    3.1191    1.8439    0.0000 C   0  0  0  0  0  0  0  0  0  0  0  0
    3.1346    0.3440    0.0000 C   0  0  0  0  0  0  0  0  0  0  0  0
    1.8433   -0.4194    0.0000 C   0  0  0  0  0  0  0  0  0  0  0  0
    0.5366    0.3172    0.0000 O   0  0  0  0  0  0  0  0  0  0  0  0
   -4.6284   -2.7361    0.0000 C   0  0  0  0  0  0  0  0  0  0  0  0
   -5.9351   -1.9995    0.0000 C   0  0  0  0  0  0  0  0  0  0  0  0
   -5.9505   -0.4996    0.0000 C   0  0  0  0  0  0  0  0  0  0  0  0
   -7.2572    0.2370    0.0000 O   0  0  0  0  0  0  0  0  0  0  0  0
  1  2  1  0
  2  3  1  0
  2  4  2  0
  4  5  1  0
  5  6  1  0
  6  7  2  0
  7  8  1  0
  8  9  1  0
  9 10  1  0
 10 11  1  0
 11 12  2  0
 11 13  1  0
 13 14  2  0
 14 15  1  0
 14 16  1  0
 16 17  2  0
 17 18  1  0
 18 19  1  0
 19 20  1  0
 19 21  1  0
 19 22  1  0
 22 23  1  0
 23 24  1  0
 24 25  2  0
 25 26  1  0
  8 27  2  0
 27 28  1  0
 28 29  2  0
 29 30  1  0
 29  6  1  0
 25 13  1  0
 24 17  1  0
M  END
>  <identifier>  (980) 
CNP0080516.0

>  <canonical_smiles>  (980) 
CC(C)=CCC1=CC(CCC(=O)C2=C(O)C=C3OC(C)(C)CCC3=C2O)=CC=C1O

>  <standard_inchi>  (980) 
InChI=1S/C25H30O5/c1-15(2)5-8-17-13-16(6-9-19(17)26)7-10-20(27)23-21(28)14-22-18(24(23)29)11-12-25(3,4)30-22/h5-6,9,13-14,26,28-29H,7-8,10-12H2,1-4H3

>  <standard_inchi_key>  (980) 
TWJXTJFWKWMZRY-UHFFFAOYSA-N

>  <name>  (980) 
1-(5,7-dihydroxy-2,2-dimethyl-3,4-dihydrochromen-6-yl)-3-[4-hydroxy-3-(3-methylbut-2-enyl)phenyl]propan-1-one

>  <iupac_name>  (980) 
1-(5,7-dihydroxy-2,2-dimethyl-chroman-6-yl)-3-[4-hydroxy-3-(3-methylbut-2-enyl)phenyl]propan-1-one

>  <annotation_level>  (980) 
5

>  <total_atom_count>  (980) 
60

>  <heavy_atom_count>  (980) 
30

>  <molecular_weight>  (980) 
410.51

>  <exact_molecular_weight>  (980) 
410.20932

>  <molecular_formula>  (980) 
C25H30O5

>  <alogp>  (980) 
5.23

>  <topological_polar_surface_area>  (980) 
86.99

>  <rotatable_bond_count>  (980) 
6

>  <hydrogen_bond_acceptors>  (980) 
5

>  <hydrogen_bond_donors>  (980) 
3

>  <hydrogen_bond_acceptors_lipinski>  (980) 
5

>  <hydrogen_bond_donors_lipinski>  (980) 
3

>  <lipinski_rule_of_five_violations>  (980) 
1

>  <aromatic_rings_count>  (980) 
2

>  <qed_drug_likeliness>  (980) 
0.45

>  <formal_charge>  (980) 
0

>  <fractioncsp3>  (980) 
0.40

>  <number_of_minimal_rings>  (980) 
3

>  <van_der_walls_volume>  (980) 
nan

>  <contains_sugar>  (980) 
False

>  <contains_ring_sugars>  (980) 
False

>  <contains_linear_sugars>  (980) 
False

>  <murcko_framework>  (980) 
O1c2ccc(cc2CCC1)CCCc3ccccc3

>  <np_likeness>  (980) 
1.85

>  <chemical_class>  (980) 
Linear 1,3-diarylpropanoids

>  <chemical_sub_class>  (980) 
Chalcones and dihydrochalcones

>  <chemical_super_class>  (980) 
Phenylpropanoids and polyketides

>  <direct_parent_classification>  (980) 
2'-Hydroxy-dihydrochalcones

>  <np_classifier_pathway>  (980) 
Shikimates and Phenylpropanoids

>  <np_classifier_superclass>  (980) 
Flavonoids

>  <np_classifier_class>  (980) 
Chalcones

>  <np_classifier_is_glycoside>  (980) 
False

>  <organisms>  (980) 
Metrodorea stipularis

>  <collections>  (980) 
Latin America dataset|NPASS|NuBBEDB|WikiData Natural Products|ZINC NP

>  <dois>  (980) 
10.1021/NP500453X|10.1021/np500453x

>  <synonyms>  (980) 
1-(57-dihydroxy-22-dimethylchroman- 6-yl)-3-[4-hydroxy-3-(3-methylbut-2-en-1-yl)- phenyl]propan-1-one|BDBM50032226|CHEMBL3352911

>  <cas>  (980) 
nan

$$$$

     RDKit          2D

 23 25  0  0  0  0  0  0  0  0999 V2000
   -5.5354    2.0589    0.0000 C   0  0  0  0  0  0  0  0  0  0  0  0
   -5.0719    0.6324    0.0000 C   0  0  0  0  0  0  0  0  0  0  0  0
   -6.0755   -0.4824    0.0000 C   0  0  0  0  0  0  0  0  0  0  0  0
   -3.6046    0.3205    0.0000 C   0  0  0  0  0  0  0  0  0  0  0  0
   -2.6010    1.4353    0.0000 C   0  0  0  0  0  0  0  0  0  0  0  0
   -1.1337    1.1234    0.0000 C   0  0  0  0  0  0  0  0  0  0  0  0
   -0.6702   -0.3031    0.0000 C   0  0  0  0  0  0  0  0  0  0  0  0
   -1.6738   -1.4179    0.0000 C   0  0  0  0  0  0  0  0  0  0  0  0
   -3.1411   -1.1060    0.0000 C   0  0  0  0  0  0  0  0  0  0  0  0
   -4.1447   -2.2208    0.0000 O   0  0  0  0  0  0  0  0  0  0  0  0
    0.7971   -0.6150    0.0000 C   0  0  0  0  0  0  0  0  0  0  0  0
   -0.2066   -1.7297    0.0000 C   0  0  0  0  0  0  0  0  0  0  0  0
    1.2606   -2.0416    0.0000 C   0  0  0  0  0  0  0  0  0  0  0  0
    2.7278   -2.3534    0.0000 C   0  0  0  0  0  0  0  0  0  0  0  0
    3.7315   -1.2387    0.0000 C   0  0  0  0  0  0  0  0  0  0  0  0
    3.2680    0.1879    0.0000 C   0  0  0  0  0  0  0  0  0  0  0  0
    3.3203    1.6870    0.0000 C   0  0  0  0  0  0  0  0  0  0  0  0
    4.7534    0.3967    0.0000 C   0  0  0  0  0  0  0  0  0  0  0  0
    5.3152    1.7875    0.0000 O   0  0  0  0  0  0  0  0  0  0  0  0
    5.6769   -0.7853    0.0000 O   0  0  0  0  0  0  0  0  0  0  0  0
    1.8007    0.4998    0.0000 C   0  0  0  0  0  0  0  0  0  0  0  0
    1.3372    1.9263    0.0000 C   0  0  0  0  0  0  0  0  0  0  0  0
   -0.1301    2.2382    0.0000 C   0  0  0  0  0  0  0  0  0  0  0  0
  1  2  1  0
  2  3  1  0
  2  4  1  0
  4  5  2  0
  5  6  1  0
  6  7  2  0
  7  8  1  0
  8  9  2  0
  9 10  1  0
  7 11  1  0
 11 12  1  1
 11 13  1  0
 13 14  1  0
 14 15  1  0
 15 16  1  0
 16 17  1  6
 16 18  1  0
 18 19  2  0
 18 20  1  0
 16 21  1  0
 21 22  1  1
 22 23  1  0
  9  4  1  0
 21 11  1  0
 23  6  1  0
M  END
>  <identifier>  (981) 
CNP0116886.1

>  <canonical_smiles>  (981) 
CC(C)C1=CC2=C(C=C1O)[C@@]1(C)CCC[C@](C)(C(=O)O)[C@@H]1CC2

>  <standard_inchi>  (981) 
InChI=1S/C20H28O3/c1-12(2)14-10-13-6-7-17-19(3,15(13)11-16(14)21)8-5-9-20(17,4)18(22)23/h10-12,17,21H,5-9H2,1-4H3,(H,22,23)/t17-,19-,20+/m1/s1

>  <standard_inchi_key>  (981) 
AYDJDNNMKHXZOQ-RLLQIKCJSA-N

>  <name>  (981) 
lambertic acid

>  <iupac_name>  (981) 
(1~{S},4~{a}~{S},10~{a}~{R})-6-hydroxy-7-isopropyl-1,4~{a}-dimethyl-2,3,4,9,10,10~{a}-hexahydrophenanthrene-1-carboxylic acid

>  <annotation_level>  (981) 
5

>  <total_atom_count>  (981) 
51

>  <heavy_atom_count>  (981) 
23

>  <molecular_weight>  (981) 
316.44

>  <exact_molecular_weight>  (981) 
316.20384

>  <molecular_formula>  (981) 
C20H28O3

>  <alogp>  (981) 
4.61

>  <topological_polar_surface_area>  (981) 
57.53

>  <rotatable_bond_count>  (981) 
2

>  <hydrogen_bond_acceptors>  (981) 
2

>  <hydrogen_bond_donors>  (981) 
2

>  <hydrogen_bond_acceptors_lipinski>  (981) 
2

>  <hydrogen_bond_donors_lipinski>  (981) 
2

>  <lipinski_rule_of_five_violations>  (981) 
0

>  <aromatic_rings_count>  (981) 
1

>  <qed_drug_likeliness>  (981) 
0.84

>  <formal_charge>  (981) 
0

>  <fractioncsp3>  (981) 
0.65

>  <number_of_minimal_rings>  (981) 
3

>  <van_der_walls_volume>  (981) 
308.79

>  <contains_sugar>  (981) 
False

>  <contains_ring_sugars>  (981) 
False

>  <contains_linear_sugars>  (981) 
False

>  <murcko_framework>  (981) 
c1ccc2c(c1)CCC3CCCCC23

>  <np_likeness>  (981) 
2.33

>  <chemical_class>  (981) 
Prenol lipids

>  <chemical_sub_class>  (981) 
Diterpenoids

>  <chemical_super_class>  (981) 
Lipids and lipid-like molecules

>  <direct_parent_classification>  (981) 
Diterpenoids

>  <np_classifier_pathway>  (981) 
Terpenoids

>  <np_classifier_superclass>  (981) 
Diterpenoids

>  <np_classifier_class>  (981) 
Podocarpane diterpenoids

>  <np_classifier_is_glycoside>  (981) 
False

>  <organisms>  (981) 
Helionides oblonga|Kothala himbutu|Maytenus laevis|Maytenus loevis|Monteverdia laevis|Podocarpus lambereis|Podocarpus lambertianus|Podocarpus macrophyllus|Podocarpus macrophyllus D.DON|Premna serratifolia|Salacia oblonga

>  <collections>  (981) 
CMAUP (cCollective molecular activities of useful plants)|KNApSaCK|Latin America dataset|NPASS|NuBBEDB|Super Natural II|TIPdb (database of Taiwan indigenous plants)|WikiData Natural Products

>  <dois>  (981) 
10.1016/0031-9422(75)85047-3|10.1016/J.TET.2011.11.058|10.1021/np040006s|10.1093/JN/132.7.1819|10.1248/CPB.47.1725|10.1248/CPB.50.115|10.1248/CPB.56.1691

>  <synonyms>  (981) 
(1S,4aS,10aR)-6-hydroxy-1,4a-dimethyl-7-propan-2-yl-2,3,4,9,10,10a-hexahydrophenanthrene-1-carboxylic acid|55051-96-2|CHEMBL519807|Lambertic acid

>  <cas>  (981) 
55051-96-2

$$$$

     RDKit          2D

 20 22  0  0  0  0  0  0  0  0999 V2000
    4.1352    2.3089    0.0000 O   0  0  0  0  0  0  0  0  0  0  0  0
    4.0568    0.8110    0.0000 C   0  0  0  0  0  0  0  0  0  0  0  0
    2.7203    0.1299    0.0000 C   0  0  0  0  0  0  0  0  0  0  0  0
    1.4623    0.9468    0.0000 C   0  0  0  0  0  0  0  0  0  0  0  0
    0.1258    0.2658    0.0000 C   0  0  0  0  0  0  0  0  0  0  0  0
   -1.1322    1.0827    0.0000 C   0  0  0  0  0  0  0  0  0  0  0  0
   -2.4687    0.4016    0.0000 C   0  0  0  0  0  0  0  0  0  0  0  0
   -2.5472   -1.0963    0.0000 C   0  0  0  0  0  0  0  0  0  0  0  0
   -3.8837   -1.7773    0.0000 C   0  0  0  0  0  0  0  0  0  0  0  0
   -5.1417   -0.9604    0.0000 C   0  0  0  0  0  0  0  0  0  0  0  0
   -6.5906   -1.3487    0.0000 O   0  0  0  0  0  0  0  0  0  0  0  0
   -7.4076   -0.0907    0.0000 C   0  0  0  0  0  0  0  0  0  0  0  0
   -6.4636    1.0750    0.0000 O   0  0  0  0  0  0  0  0  0  0  0  0
   -5.0633    0.5375    0.0000 C   0  0  0  0  0  0  0  0  0  0  0  0
   -3.7268    1.2186    0.0000 C   0  0  0  0  0  0  0  0  0  0  0  0
    5.3148   -0.0060    0.0000 N   0  0  0  0  0  0  0  0  0  0  0  0
    6.7152    0.5317    0.0000 C   0  0  0  0  0  0  0  0  0  0  0  0
    7.6592   -0.6340    0.0000 C   0  0  0  0  0  0  0  0  0  0  0  0
    6.8423   -1.8921    0.0000 C   0  0  0  0  0  0  0  0  0  0  0  0
    5.3934   -1.5039    0.0000 C   0  0  0  0  0  0  0  0  0  0  0  0
  1  2  2  0
  2  3  1  0
  3  4  1  0
  4  5  1  0
  5  6  1  0
  6  7  1  0
  7  8  2  0
  8  9  1  0
  9 10  2  0
 10 11  1  0
 11 12  1  0
 12 13  1  0
 13 14  1  0
 14 15  2  0
  2 16  1  0
 16 17  1  0
 17 18  1  0
 18 19  1  0
 19 20  1  0
 15  7  1  0
 20 16  1  0
 14 10  1  0
M  END
>  <identifier>  (982) 
CNP0344030.0

>  <canonical_smiles>  (982) 
O=C(CCCCC1=CC=C2OCOC2=C1)N1CCCC1

>  <standard_inchi>  (982) 
InChI=1S/C16H21NO3/c18-16(17-9-3-4-10-17)6-2-1-5-13-7-8-14-15(11-13)20-12-19-14/h7-8,11H,1-6,9-10,12H2

>  <standard_inchi_key>  (982) 
SUUYFWPFLGFWRW-UHFFFAOYSA-N

>  <name>  (982) 
5-(1,3-benzodioxol-5-yl)-1-pyrrolidin-1-ylpentan-1-one

>  <iupac_name>  (982) 
5-(1,3-benzodioxol-5-yl)-1-pyrrolidin-1-yl-pentan-1-one

>  <annotation_level>  (982) 
5

>  <total_atom_count>  (982) 
41

>  <heavy_atom_count>  (982) 
20

>  <molecular_weight>  (982) 
275.35

>  <exact_molecular_weight>  (982) 
275.15214

>  <molecular_formula>  (982) 
C16H21NO3

>  <alogp>  (982) 
2.75

>  <topological_polar_surface_area>  (982) 
38.77

>  <rotatable_bond_count>  (982) 
5

>  <hydrogen_bond_acceptors>  (982) 
3

>  <hydrogen_bond_donors>  (982) 
0

>  <hydrogen_bond_acceptors_lipinski>  (982) 
3

>  <hydrogen_bond_donors_lipinski>  (982) 
0

>  <lipinski_rule_of_five_violations>  (982) 
0

>  <aromatic_rings_count>  (982) 
1

>  <qed_drug_likeliness>  (982) 
0.78

>  <formal_charge>  (982) 
0

>  <fractioncsp3>  (982) 
0.56

>  <number_of_minimal_rings>  (982) 
3

>  <van_der_walls_volume>  (982) 
262.58

>  <contains_sugar>  (982) 
False

>  <contains_ring_sugars>  (982) 
False

>  <contains_linear_sugars>  (982) 
False

>  <murcko_framework>  (982) 
O1c2ccc(cc2OC1)CCCCCN3CCCC3

>  <np_likeness>  (982) 
-0.40

>  <chemical_class>  (982) 
Benzodioxoles

>  <chemical_sub_class>  (982) 
Benzodioxoles

>  <chemical_super_class>  (982) 
Organoheterocyclic compounds

>  <direct_parent_classification>  (982) 
Benzodioxoles

>  <np_classifier_pathway>  (982) 
Alkaloids

>  <np_classifier_superclass>  (982) 
Lysine alkaloids

>  <np_classifier_class>  (982) 
Piperidine alkaloids

>  <np_classifier_is_glycoside>  (982) 
False

>  <organisms>  (982) 
Piper arboreum

>  <collections>  (982) 
ChemSpider NPs|Latin America dataset|NuBBEDB|Super Natural II|UNPD (Universal Natural Products Database)|WikiData Natural Products|ZINC NP

>  <dois>  (982) 
10.1016/S0031-9422(01)00431-9

>  <synonyms>  (982) 
CHEMBL4561654|Tetrahydropiperyline N-[10-(1314-methylenedioxyphenyl)-pentanoyl]-pyrrolidine

>  <cas>  (982) 
nan

$$$$

     RDKit          2D

 29 32  0  0  0  0  0  0  0  0999 V2000
    5.6383   -1.1617    0.0000 C   0  0  0  0  0  0  0  0  0  0  0  0
    4.1387   -1.1268    0.0000 C   0  0  0  0  0  0  0  0  0  0  0  0
    3.3587   -2.4080    0.0000 C   0  0  0  0  0  0  0  0  0  0  0  0
    1.8591   -2.3732    0.0000 C   0  0  0  0  0  0  0  0  0  0  0  0
    1.1395   -1.0570    0.0000 C   0  0  0  0  0  0  0  0  0  0  0  0
    1.9195    0.2242    0.0000 C   0  0  0  0  0  0  0  0  0  0  0  0
    2.6995    1.5055    0.0000 C   0  0  0  0  0  0  0  0  0  0  0  0
    1.1999    1.5403    0.0000 C   0  0  0  0  0  0  0  0  0  0  0  0
   -0.2997    1.5752    0.0000 C   0  0  0  0  0  0  0  0  0  0  0  0
   -1.0797    0.2939    0.0000 C   0  0  0  0  0  0  0  0  0  0  0  0
   -1.7993    1.6101    0.0000 C   0  0  0  0  0  0  0  0  0  0  0  0
   -2.5793    0.3288    0.0000 C   0  0  0  0  0  0  0  0  0  0  0  0
   -3.2989    1.6449    0.0000 C   0  0  0  0  0  0  0  0  0  0  0  0
   -4.7985    1.6798    0.0000 C   0  0  0  0  0  0  0  0  0  0  0  0
   -5.5181    2.9959    0.0000 C   0  0  0  0  0  0  0  0  0  0  0  0
   -5.5784    0.3986    0.0000 C   0  0  0  0  0  0  0  0  0  0  0  0
   -7.0780    0.4334    0.0000 O   0  0  0  0  0  0  0  0  0  0  0  0
   -4.8589   -0.9176    0.0000 C   0  0  0  0  0  0  0  0  0  0  0  0
   -3.3593   -0.9524    0.0000 C   0  0  0  0  0  0  0  0  0  0  0  0
   -4.1393   -2.2337    0.0000 C   0  0  0  0  0  0  0  0  0  0  0  0
   -2.6397   -2.2686    0.0000 C   0  0  0  0  0  0  0  0  0  0  0  0
   -1.1401   -2.3034    0.0000 C   0  0  0  0  0  0  0  0  0  0  0  0
   -0.3601   -1.0222    0.0000 C   0  0  0  0  0  0  0  0  0  0  0  0
    0.3595   -2.3383    0.0000 C   0  0  0  0  0  0  0  0  0  0  0  0
    3.4191    0.1893    0.0000 C   0  0  0  0  0  0  0  0  0  0  0  0
    4.1991    1.4706    0.0000 C   0  0  0  0  0  0  0  0  0  0  0  0
    5.6987    1.4357    0.0000 C   0  0  0  0  0  0  0  0  0  0  0  0
    6.4183    0.1196    0.0000 O   0  0  0  0  0  0  0  0  0  0  0  0
    6.4787    2.7170    0.0000 O   0  0  0  0  0  0  0  0  0  0  0  0
  1  2  1  0
  2  3  2  0
  3  4  1  0
  4  5  2  0
  5  6  1  0
  6  7  1  6
  6  8  1  0
  8  9  1  0
  9 10  1  0
 10 11  1  1
 10 12  1  0
 12 13  1  1
 13 14  1  0
 14 15  1  6
 14 16  1  0
 16 17  2  0
 16 18  1  0
 18 19  1  0
 19 20  1  6
 19 21  1  0
 21 22  1  0
 22 23  1  0
 23 24  1  6
  6 25  1  0
 25 26  2  3
 26 27  1  0
 27 28  2  0
 27 29  1  0
 25  2  1  0
 23  5  1  0
 23 10  1  0
 19 12  1  0
M  END
>  <identifier>  (983) 
CNP0258530.2

>  <canonical_smiles>  (983) 
CC1=CC=C2[C@@](C)(CC[C@@]3(C)[C@@H]4C[C@@H](C)C(=O)C[C@]4(C)CC[C@]23C)C1=CC(=O)O

>  <standard_inchi>  (983) 
InChI=1S/C26H36O3/c1-16-7-8-20-24(4,18(16)14-22(28)29)10-12-26(6)21-13-17(2)19(27)15-23(21,3)9-11-25(20,26)5/h7-8,14,17,21H,9-13,15H2,1-6H3,(H,28,29)/t17-,21-,23+,24+,25-,26+/m1/s1

>  <standard_inchi_key>  (983) 
YBPFFFVUQSBIIL-IIVAXGGESA-N

>  <name>  (983) 
nan

>  <iupac_name>  (983) 
2-[(4~{b}~{S},6~{a}~{S},9~{R},10~{a}~{R},10~{b}~{S},12~{a}~{S})-2,4~{b},6~{a},9,10~{b},12~{a}-hexamethyl-8-oxo-5,6,7,9,10,10~{a},11,12-octahydrochrysen-1-ylidene]acetic acid

>  <annotation_level>  (983) 
4

>  <total_atom_count>  (983) 
65

>  <heavy_atom_count>  (983) 
29

>  <molecular_weight>  (983) 
396.57

>  <exact_molecular_weight>  (983) 
396.26645

>  <molecular_formula>  (983) 
C26H36O3

>  <alogp>  (983) 
6.11

>  <topological_polar_surface_area>  (983) 
54.37

>  <rotatable_bond_count>  (983) 
1

>  <hydrogen_bond_acceptors>  (983) 
2

>  <hydrogen_bond_donors>  (983) 
1

>  <hydrogen_bond_acceptors_lipinski>  (983) 
2

>  <hydrogen_bond_donors_lipinski>  (983) 
1

>  <lipinski_rule_of_five_violations>  (983) 
1

>  <aromatic_rings_count>  (983) 
0

>  <qed_drug_likeliness>  (983) 
0.54

>  <formal_charge>  (983) 
0

>  <fractioncsp3>  (983) 
0.69

>  <number_of_minimal_rings>  (983) 
4

>  <van_der_walls_volume>  (983) 
nan

>  <contains_sugar>  (983) 
False

>  <contains_ring_sugars>  (983) 
False

>  <contains_linear_sugars>  (983) 
False

>  <murcko_framework>  (983) 
C=1C=C2C(CC1)CCC3C2CCC4CCCCC43

>  <np_likeness>  (983) 
2.79

>  <chemical_class>  (983) 
Steroids and steroid derivatives

>  <chemical_sub_class>  (983) 
Oxosteroids

>  <chemical_super_class>  (983) 
Lipids and lipid-like molecules

>  <direct_parent_classification>  (983) 
16-oxosteroids

>  <np_classifier_pathway>  (983) 
Terpenoids

>  <np_classifier_superclass>  (983) 
Triterpenoids

>  <np_classifier_class>  (983) 
nan

>  <np_classifier_is_glycoside>  (983) 
False

>  <organisms>  (983) 
Peritassa campestris

>  <collections>  (983) 
Latin America dataset|NuBBEDB

>  <dois>  (983) 
10.1515/znc-2002-3-433

>  <synonyms>  (983) 
campestrine-II

>  <cas>  (983) 
nan

$$$$

     RDKit          2D

 26 28  0  0  0  0  0  0  0  0999 V2000
   -7.6822   -1.7384    0.0000 O   0  0  0  0  0  0  0  0  0  0  0  0
   -7.2102   -0.3145    0.0000 C   0  0  0  0  0  0  0  0  0  0  0  0
   -8.2073    0.8061    0.0000 C   0  0  0  0  0  0  0  0  0  0  0  0
   -7.7353    2.2299    0.0000 C   0  0  0  0  0  0  0  0  0  0  0  0
   -6.2662    2.5331    0.0000 C   0  0  0  0  0  0  0  0  0  0  0  0
   -5.2692    1.4124    0.0000 C   0  0  0  0  0  0  0  0  0  0  0  0
   -3.8001    1.7156    0.0000 C   0  0  0  0  0  0  0  0  0  0  0  0
   -2.8031    0.5949    0.0000 C   0  0  0  0  0  0  0  0  0  0  0  0
   -1.3340    0.8981    0.0000 C   0  0  0  0  0  0  0  0  0  0  0  0
   -0.3370   -0.2226    0.0000 C   0  0  0  0  0  0  0  0  0  0  0  0
   -0.8090   -1.6464    0.0000 C   0  0  0  0  0  0  0  0  0  0  0  0
    0.1881   -2.7670    0.0000 C   0  0  0  0  0  0  0  0  0  0  0  0
   -0.2839   -4.1909    0.0000 O   0  0  0  0  0  0  0  0  0  0  0  0
    1.6572   -2.4639    0.0000 C   0  0  0  0  0  0  0  0  0  0  0  0
    2.6542   -3.5845    0.0000 O   0  0  0  0  0  0  0  0  0  0  0  0
    2.1291   -1.0401    0.0000 C   0  0  0  0  0  0  0  0  0  0  0  0
    3.5982   -0.7369    0.0000 C   0  0  0  0  0  0  0  0  0  0  0  0
    4.0702    0.6869    0.0000 C   0  0  0  0  0  0  0  0  0  0  0  0
    5.5392    0.9900    0.0000 C   0  0  0  0  0  0  0  0  0  0  0  0
    6.5363   -0.1306    0.0000 C   0  0  0  0  0  0  0  0  0  0  0  0
    8.0053    0.1725    0.0000 C   0  0  0  0  0  0  0  0  0  0  0  0
    8.4773    1.5963    0.0000 C   0  0  0  0  0  0  0  0  0  0  0  0
    7.4802    2.7170    0.0000 C   0  0  0  0  0  0  0  0  0  0  0  0
    6.0112    2.4138    0.0000 C   0  0  0  0  0  0  0  0  0  0  0  0
    1.1321    0.0806    0.0000 O   0  0  0  0  0  0  0  0  0  0  0  0
   -5.7412   -0.0114    0.0000 O   0  0  0  0  0  0  0  0  0  0  0  0
  1  2  2  0
  2  3  1  0
  3  4  2  0
  4  5  1  0
  5  6  1  0
  6  7  1  6
  7  8  2  0
  8  9  1  0
 10  9  1  6
 10 11  1  0
 11 12  1  0
 12 13  1  6
 12 14  1  0
 14 15  1  1
 14 16  1  0
 16 17  1  6
 17 18  2  0
 18 19  1  0
 19 20  2  0
 20 21  1  0
 21 22  2  0
 22 23  1  0
 23 24  2  0
 16 25  1  0
  6 26  1  0
 26  2  1  0
 25 10  1  0
 24 19  1  0
M  END
>  <identifier>  (984) 
CNP0112930.2

>  <canonical_smiles>  (984) 
O=C1C=CC[C@H](/C=C/C[C@H]2C[C@@H](O)[C@H](O)[C@@H](/C=C/C3=CC=CC=C3)O2)O1

>  <standard_inchi>  (984) 
InChI=1S/C21H24O5/c22-18-14-17(10-4-8-16-9-5-11-20(23)26-16)25-19(21(18)24)13-12-15-6-2-1-3-7-15/h1-8,11-13,16-19,21-22,24H,9-10,14H2/b8-4+,13-12+/t16-,17-,18+,19+,21-/m0/s1

>  <standard_inchi_key>  (984) 
ITOWMYXEGADZIR-UJCCVNEUSA-N

>  <name>  (984) 
nan

>  <iupac_name>  (984) 
(2~{R})-2-[(~{E})-3-[(2~{S},4~{R},5~{S},6~{R})-4,5-dihydroxy-6-[(~{E})-styryl]tetrahydropyran-2-yl]prop-1-enyl]-2,3-dihydropyran-6-one

>  <annotation_level>  (984) 
5

>  <total_atom_count>  (984) 
50

>  <heavy_atom_count>  (984) 
26

>  <molecular_weight>  (984) 
356.42

>  <exact_molecular_weight>  (984) 
356.16237

>  <molecular_formula>  (984) 
C21H24O5

>  <alogp>  (984) 
2.40

>  <topological_polar_surface_area>  (984) 
75.99

>  <rotatable_bond_count>  (984) 
5

>  <hydrogen_bond_acceptors>  (984) 
5

>  <hydrogen_bond_donors>  (984) 
2

>  <hydrogen_bond_acceptors_lipinski>  (984) 
5

>  <hydrogen_bond_donors_lipinski>  (984) 
2

>  <lipinski_rule_of_five_violations>  (984) 
0

>  <aromatic_rings_count>  (984) 
1

>  <qed_drug_likeliness>  (984) 
0.63

>  <formal_charge>  (984) 
0

>  <fractioncsp3>  (984) 
0.38

>  <number_of_minimal_rings>  (984) 
3

>  <van_der_walls_volume>  (984) 
329.58

>  <contains_sugar>  (984) 
False

>  <contains_ring_sugars>  (984) 
False

>  <contains_linear_sugars>  (984) 
False

>  <murcko_framework>  (984) 
O1CC=CCC1C=CCC2OC(C=Cc3ccccc3)CCC2

>  <np_likeness>  (984) 
2.79

>  <chemical_class>  (984) 
Pyrans

>  <chemical_sub_class>  (984) 
Pyranones and derivatives

>  <chemical_super_class>  (984) 
Organoheterocyclic compounds

>  <direct_parent_classification>  (984) 
Dihydropyranones

>  <np_classifier_pathway>  (984) 
Shikimates and Phenylpropanoids

>  <np_classifier_superclass>  (984) 
Styrylpyrones

>  <np_classifier_class>  (984) 
Kavalactones and derivatives

>  <np_classifier_is_glycoside>  (984) 
False

>  <organisms>  (984) 
Cryptocarya moschata

>  <collections>  (984) 
ChemSpider NPs|Latin America dataset|NuBBEDB|Super Natural II|WikiData Natural Products|ZINC NP

>  <dois>  (984) 
10.1016/S0031-9422(99)00532-4

>  <synonyms>  (984) 
Cryptopyranmoscatone B1, (6R)-56-dihydro-6-[(4'S6'R7'S8'R1'E9'E)-4'8'-epoxy-6'7'-dihydroxy-10'-phenyl-1'9'-decadienyl]-2-pyrone

>  <cas>  (984) 
nan

$$$$

     RDKit          2D

  8  7  0  0  0  0  0  0  0  0999 V2000
   -4.5553   -0.2480    0.0000 C   0  0  0  0  0  0  0  0  0  0  0  0
   -3.2359    0.4655    0.0000 C   0  0  0  0  0  0  0  0  0  0  0  0
   -1.9583   -0.3205    0.0000 C   0  0  0  0  0  0  0  0  0  0  0  0
   -0.6388    0.3930    0.0000 C   0  0  0  0  0  0  0  0  0  0  0  0
    0.6388   -0.3930    0.0000 C   0  0  0  0  0  0  0  0  0  0  0  0
    1.9583    0.3205    0.0000 C   0  0  0  0  0  0  0  0  0  0  0  0
    3.2359   -0.4655    0.0000 C   0  0  0  0  0  0  0  0  0  0  0  0
    4.5553    0.2480    0.0000 O   0  0  0  0  0  0  0  0  0  0  0  0
  1  2  1  0
  2  3  1  0
  3  4  1  0
  4  5  1  0
  5  6  1  0
  6  7  1  0
  7  8  2  0
M  END
>  <identifier>  (985) 
CNP0243745.0

>  <canonical_smiles>  (985) 
CCCCCCC=O

>  <standard_inchi>  (985) 
InChI=1S/C7H14O/c1-2-3-4-5-6-7-8/h7H,2-6H2,1H3

>  <standard_inchi_key>  (985) 
FXHGMKSSBGDXIY-UHFFFAOYSA-N

>  <name>  (985) 
Heptanal

>  <iupac_name>  (985) 
heptanal

>  <annotation_level>  (985) 
5

>  <total_atom_count>  (985) 
22

>  <heavy_atom_count>  (985) 
8

>  <molecular_weight>  (985) 
114.19

>  <exact_molecular_weight>  (985) 
114.10447

>  <molecular_formula>  (985) 
C7H14O

>  <alogp>  (985) 
2.16

>  <topological_polar_surface_area>  (985) 
17.07

>  <rotatable_bond_count>  (985) 
5

>  <hydrogen_bond_acceptors>  (985) 
1

>  <hydrogen_bond_donors>  (985) 
0

>  <hydrogen_bond_acceptors_lipinski>  (985) 
1

>  <hydrogen_bond_donors_lipinski>  (985) 
0

>  <lipinski_rule_of_five_violations>  (985) 
0

>  <aromatic_rings_count>  (985) 
0

>  <qed_drug_likeliness>  (985) 
0.40

>  <formal_charge>  (985) 
0

>  <fractioncsp3>  (985) 
0.86

>  <number_of_minimal_rings>  (985) 
0

>  <van_der_walls_volume>  (985) 
131.26

>  <contains_sugar>  (985) 
False

>  <contains_ring_sugars>  (985) 
False

>  <contains_linear_sugars>  (985) 
False

>  <murcko_framework>  (985) 
nan

>  <np_likeness>  (985) 
1.73

>  <chemical_class>  (985) 
Organooxygen compounds

>  <chemical_sub_class>  (985) 
Carbonyl compounds

>  <chemical_super_class>  (985) 
Organic oxygen compounds

>  <direct_parent_classification>  (985) 
Medium-chain aldehydes

>  <np_classifier_pathway>  (985) 
Fatty acids

>  <np_classifier_superclass>  (985) 
Fatty acyls

>  <np_classifier_class>  (985) 
Fatty aldehydes

>  <np_classifier_is_glycoside>  (985) 
False

>  <organisms>  (985) 
Akebia quinata|Akebia trifoliata|Alangium premnifolium|Aloe africana|Aloe ferox|Aloe spicata|Aloe vera|Angelica acutiloba|Angelica gigas|Angelica sinensis|Angelica tarokoensis|Arctium lappa|Artemisia argyi|Artemisia montana|Artemisia princeps|Aster scaber|Avena sativa|Bistorta manshuriensis|Bistorta officinalis|Bombax ceiba|Bragantia wallichii|Bupleurum chinense|Bupleurum falcatum|Bupleurum scorzonerifolium|Camellia sinensis|Cannabis sativa|Capsella bursa-pastoris|Capsicum annuum|Carica papaya|Castanopsis cuspidata|Centaurea oltensis|Centaurea sessilis|Centella asiatica|Ceraeochrysa smithi|Ceratophyllum demersum|Cistus creticus|Citrullus lanatus|Citrullus lanatus subsp. vulgaris|Citrus limon|Citrus reticulata|Citrus sinensis|Citrus wilsonii|Citrus × deliciosa|Colobocentrotus atratus|Coriandrum sativum|Couroupita guianensis|Crocus sativus|Cynomorium songaricum|Daphne odora|Daucus carota|Delphinium andersoni|Diphasia angolensis|Echinophora tenuifolia|Epimedium davidii|Eryngium expansum|Eryngium foetidum|Eryngium pandanifolium|Eryngium rostratum|Eryngium vesiculosum|Erysimum odoratum|Eucheuma muricatum|Eupolyphaga sinensis|Eutypella scoparia|Exodermis poria|Festuca arundinacea|Festuca rubra|Ficus carica|Fructus hippophae|Frullania tamarisci|Galenia africana|Ganoderma lucidum|Glehnia littoralis|Globba malaccensis|Gnidia lamprantha|Gossypium hirsutum|Hansenia forbesii|Hansenia weberbaueriana|Heterotheca inuloides|Hippophae rhamnoides|Homo sapiens|Houttuynia cordata|Humulus lupulus|Ilex amara|Isodon japonicus|Knightia excelsa|Laminaria japonica|Launaea resedifolia|Laurencia distichophylla|Leonurus glaucescens|Lepidium draba|Ligusticum chuanxiong|Ligusticum sinense|Lobelia chinensis|Lonicera japonica|Lucensosergia lucens|Lycium barbarum|Lycium chinense|Maba buxifolia|Micromeria pineolens|Nemalion vermiculare|Nidula candida|Notopterygium forbesii|Ocotea morae|Oldenlandia diffusa|Ophiocoma scolopendrina|Ostericum grosseserratum|Panax ginseng|Panax notoginseng|Panax quinquefolius|Patrinia scabiosifolia|Patrinia villosa|Penicillium citreonigrum|Peristeria elata|Pimpinella anisum|Pinellia ternata|Platynereis dumerilii|Plumeria rubra|Polygala senega|Prunus avium|Prunus dulcis|Quercus sessiliflora|Radix chuanxiong|Rhizoma chuanxiong|Rhodiola rosea|Rosa gallica|Rosa × damascena|Rosmarinus officinalis|Salacia madagascariensis|Saussurea carthamoides|Scutellaria barbata|Senna alexandrina|Sideritis hispida|Smallanthus maculatus|Solanum acaule|Spodoptera eridania|Streptomyces griseovariabilis|Swertia delavayi|Tagetes minuta|Teucrium leucocladum|Trigonella foenum-graecum|Triticum aestivum|Vaccinium ashei|Vaccinium corymbosum|Vaccinium macrocarpon|Vaccinium virgatum|Vaccinium vitis-idaea|Vallota purpurea|Vismia jefensis|Zea mays|Zingiber mioga|bellis perennis|giraffe|maize|rooibos|tomato

>  <collections>  (985) 
ANPDB|Australian natural products|CMAUP (cCollective molecular activities of useful plants)|ChEBI NPs|FooDB|KNApSaCK|Latin America dataset|NANPDB (Natural Products from Northern African Sources)|NAPRORE-CR|NPASS|NuBBEDB|Phyto4Health|Super Natural II|TCMDB-Taiwan (Traditional Chinese Medicine database)|TCMID (Traditional Chinese Medicine Integrated Database)|UNPD (Universal Natural Products Database)|Watermelon|WikiData Natural Products

>  <dois>  (985) 
10.1002/FFJ.1588|10.1002/FFJ.2730070108|10.1002/FFJ.2730100408|10.1002/JEZ.1402460308|10.1007/BF00579447|10.1007/BF00987858|10.1016/0031-9422(91)84185-U|10.1016/0031-9422(95)00183-8|10.1016/J.BSE.2003.12.009|10.1016/J.CGH.2013.02.015|10.1016/J.CHROMA.2014.10.058|10.1016/J.IJFOODMICRO.2008.10.017|10.1016/J.JPBA.2008.08.004|10.1016/J.PHYTOCHEM.2005.04.006|10.1016/J.PHYTOCHEM.2005.10.025|10.1016/J.PHYTOCHEM.2009.06.013|10.1016/J.TALANTA.2008.07.061|10.1016/S0031-9422(00)82634-5|10.1016/S0031-9422(02)00004-3|10.1016/S0031-9422(98)00022-3|10.1016/S0305-1978(02)00037-6|10.1016/S0308-8146(00)00187-4|10.1016/j.cgh.2013.02.015|10.1021/JF00034A033|10.1021/JF00062A024|10.1021/JF00094A032|10.1021/JF00112A045|10.1021/JF60160A012|10.1021/JF60200A011|10.1021/JF60218A022|10.1021/JF60224A025|10.1021/JF60228A025|10.1021/JF60230A020|10.1021/NP50008A001|10.1055/S-2007-969591|10.1073/PNAS.93.8.3280|10.1080/00021369.1984.10866348|10.1080/10412905.1992.9698106|10.1080/10412905.1994.9698382|10.1080/10412905.1994.9698401|10.1080/10412905.1994.9698406|10.1080/10412905.1994.9698418|10.1080/10412905.1994.9699353|10.1080/10412905.1995.9698507|10.1080/10412905.2003.9698619|10.1080/10412905.2004.9698740|10.1088/1752-7155/8/1/014001|10.1111/J.1365-2621.1983.TB14849.X|10.1111/J.1365-2621.1985.TB10476.X|10.1111/J.1600-0536.1991.TB01726.X|10.1186/2191-2858-2-2|10.1271/BBB1961.47.483|10.1271/BBB1961.50.1039|10.1271/BBB1961.55.1655|10.1271/NOGEIKAGAKU1924.59.389|10.1590/S0100-40422002000700009|10.1590/S0103-50532011000400018|10.1681/ASN.2011121175|10.3390/MOLECULES200712093|10.3390/MOLECULES21111576|10.3891/ACTA.CHEM.SCAND.21-0945|10.3891/ACTA.CHEM.SCAND.21-2076|10.5935/0103-5053.20160142

>  <synonyms>  (985) 
1-Heptanal|111-71-7|1246819-97-5|92N104S3HF|A802402|AI3-02066|AKOS000121137|Aldehyde C-7|BDBM50028829|BIDD:ER0302|BRN 1560236|CAS-111-71-7|CCRIS 6041|CHEBI:34787|CHEMBL18104|DB-041000|DTXCID601597|DTXSID0021597|EC 203-898-4|EINECS 203-898-4|EN300-24060|Enanthal|Enanthaldehyde|Enanthole|F2190-0613|FEMA 2540|FEMA NUMBER 2540|FEMA No. 2540|FEMA Number 2541|H0025|HEPTANAL (ALDEHYDE C-7)|HEPTANAL [FCC]|HEPTANAL [FHFI]|HEPTANAL [MI]|HSDB 6026|Heptaldehyde|Heptaldehyde, 95%|Heptaldehyde, analytical standard|Heptaldehyde, technical, >=95% (GC)|Heptanal|Heptanal (natural)|Heptanal, >=95%, FCC, FG|Heptanal-d14|Heptyl aldehyde|InChI=1\/C7H14O\/c1-2-3-4-5-6-7-8\/h7H,2-6H2,1H|J-002620|J-521429|LMFA06000001|MFCD00007028|N-HEPTANAL|N-HEPTANAL [HSDB]|NCGC00091807-01|NCGC00256491-01|NCGC00259722-01|NS00008989|NSC 2190|NSC-2190|Oenanthal|Oenanthaldehyde|Oenanthol|Q425827|SCHEMBL22542|STL453624|STR02180|Tox21_202173|Tox21_302779|UN3056|UNII-92N104S3HF|WLN: VH6|heptan-1-al|heptanal|n-C6H13CHO|n-Heptaldehyde [UN3056] [Flammable liquid]

>  <cas>  (985) 
nan

$$$$

     RDKit          2D

 27 29  0  0  0  0  0  0  0  0999 V2000
   -8.5551   -1.3677    0.0000 C   0  0  0  0  0  0  0  0  0  0  0  0
   -7.2394   -0.6473    0.0000 C   0  0  0  0  0  0  0  0  0  0  0  0
   -5.9577   -1.4266    0.0000 C   0  0  0  0  0  0  0  0  0  0  0  0
   -4.6420   -0.7063    0.0000 C   0  0  0  0  0  0  0  0  0  0  0  0
   -4.6080    0.7933    0.0000 C   0  0  0  0  0  0  0  0  0  0  0  0
   -3.2922    1.5137    0.0000 C   0  0  0  0  0  0  0  0  0  0  0  0
   -3.2582    3.0133    0.0000 O   0  0  0  0  0  0  0  0  0  0  0  0
   -4.5399    3.7926    0.0000 C   0  0  0  0  0  0  0  0  0  0  0  0
   -2.0106    0.7344    0.0000 C   0  0  0  0  0  0  0  0  0  0  0  0
   -0.5738    1.1654    0.0000 O   0  0  0  0  0  0  0  0  0  0  0  0
    0.2801   -0.0678    0.0000 C   0  0  0  0  0  0  0  0  0  0  0  0
    1.7797   -0.1019    0.0000 C   0  0  0  0  0  0  0  0  0  0  0  0
    2.5000   -1.4176    0.0000 C   0  0  0  0  0  0  0  0  0  0  0  0
    3.9997   -1.4516    0.0000 C   0  0  0  0  0  0  0  0  0  0  0  0
    4.7200   -2.7673    0.0000 O   0  0  0  0  0  0  0  0  0  0  0  0
    3.9407   -4.0490    0.0000 C   0  0  0  0  0  0  0  0  0  0  0  0
    4.7789   -0.1699    0.0000 C   0  0  0  0  0  0  0  0  0  0  0  0
    6.2786   -0.2040    0.0000 O   0  0  0  0  0  0  0  0  0  0  0  0
    7.0578    1.0777    0.0000 C   0  0  0  0  0  0  0  0  0  0  0  0
    4.0586    1.1458    0.0000 C   0  0  0  0  0  0  0  0  0  0  0  0
    4.8379    2.4275    0.0000 O   0  0  0  0  0  0  0  0  0  0  0  0
    4.1176    3.7432    0.0000 C   0  0  0  0  0  0  0  0  0  0  0  0
    2.5590    1.1798    0.0000 C   0  0  0  0  0  0  0  0  0  0  0  0
   -0.6289   -1.2610    0.0000 C   0  0  0  0  0  0  0  0  0  0  0  0
   -0.1979   -2.6978    0.0000 C   0  0  0  0  0  0  0  0  0  0  0  0
   -2.0446   -0.7652    0.0000 C   0  0  0  0  0  0  0  0  0  0  0  0
   -3.3603   -1.4856    0.0000 C   0  0  0  0  0  0  0  0  0  0  0  0
  1  2  1  0
  2  3  2  0
  3  4  1  0
  4  5  2  0
  5  6  1  0
  6  7  1  0
  7  8  1  0
  6  9  2  0
  9 10  1  0
 10 11  1  0
 11 12  1  1
 12 13  2  0
 13 14  1  0
 14 15  1  0
 15 16  1  0
 14 17  2  0
 17 18  1  0
 18 19  1  0
 17 20  1  0
 20 21  1  0
 21 22  1  0
 20 23  2  0
 11 24  1  0
 24 25  1  6
 24 26  1  0
 26 27  2  0
 27  4  1  0
 26  9  1  0
 23 12  1  0
M  END
>  <identifier>  (986) 
CNP0219898.1

>  <canonical_smiles>  (986) 
C/C=C/C1=CC(OC)=C2O[C@@H](C3=CC(OC)=C(OC)C(OC)=C3)[C@H](C)C2=C1

>  <standard_inchi>  (986) 
InChI=1S/C22H26O5/c1-7-8-14-9-16-13(2)20(27-21(16)17(10-14)23-3)15-11-18(24-4)22(26-6)19(12-15)25-5/h7-13,20H,1-6H3/b8-7+/t13-,20-/m1/s1

>  <standard_inchi_key>  (986) 
GPTWTKZDAAYJRN-RTJDVGLLSA-N

>  <name>  (986) 
DTXSID301318653

>  <iupac_name>  (986) 
(2~{R},3~{R})-7-methoxy-3-methyl-5-[(~{E})-prop-1-enyl]-2-(3,4,5-trimethoxyphenyl)-2,3-dihydrobenzofuran

>  <annotation_level>  (986) 
5

>  <total_atom_count>  (986) 
53

>  <heavy_atom_count>  (986) 
27

>  <molecular_weight>  (986) 
370.45

>  <exact_molecular_weight>  (986) 
370.17802

>  <molecular_formula>  (986) 
C22H26O5

>  <alogp>  (986) 
4.99

>  <topological_polar_surface_area>  (986) 
46.15

>  <rotatable_bond_count>  (986) 
6

>  <hydrogen_bond_acceptors>  (986) 
5

>  <hydrogen_bond_donors>  (986) 
0

>  <hydrogen_bond_acceptors_lipinski>  (986) 
5

>  <hydrogen_bond_donors_lipinski>  (986) 
0

>  <lipinski_rule_of_five_violations>  (986) 
0

>  <aromatic_rings_count>  (986) 
2

>  <qed_drug_likeliness>  (986) 
0.72

>  <formal_charge>  (986) 
0

>  <fractioncsp3>  (986) 
0.36

>  <number_of_minimal_rings>  (986) 
3

>  <van_der_walls_volume>  (986) 
nan

>  <contains_sugar>  (986) 
False

>  <contains_ring_sugars>  (986) 
False

>  <contains_linear_sugars>  (986) 
False

>  <murcko_framework>  (986) 
O1c2ccccc2CC1c3ccccc3

>  <np_likeness>  (986) 
1.43

>  <chemical_class>  (986) 
2-arylbenzofuran flavonoids

>  <chemical_sub_class>  (986) 
2-arylbenzofuran flavonoids

>  <chemical_super_class>  (986) 
Phenylpropanoids and polyketides

>  <direct_parent_classification>  (986) 
2-arylbenzofuran flavonoids

>  <np_classifier_pathway>  (986) 
Shikimates and Phenylpropanoids

>  <np_classifier_superclass>  (986) 
Lignans

>  <np_classifier_class>  (986) 
Neolignans

>  <np_classifier_is_glycoside>  (986) 
False

>  <organisms>  (986) 
Nectandra miranda|Rhodostemonodaphne miranda

>  <collections>  (986) 
Latin America dataset|NuBBEDB|Super Natural II|WikiData Natural Products|ZINC NP

>  <dois>  (986) 
10.1016/S0031-9422(00)89245-6

>  <synonyms>  (986) 
(2R3R)-23-Dihydro-7-methoxy-3-methyl-5-(1E)-1-propen-1-yl-2-(345-trimethoxyphenyl)benzofuran|60297-83-8

>  <cas>  (986) 
60297-83-8

$$$$

     RDKit          2D

 29 31  0  0  0  0  0  0  0  0999 V2000
   -8.8962   -0.2700    0.0000 C   0  0  0  0  0  0  0  0  0  0  0  0
   -7.4070   -0.0903    0.0000 C   0  0  0  0  0  0  0  0  0  0  0  0
   -6.5067   -1.2901    0.0000 C   0  0  0  0  0  0  0  0  0  0  0  0
   -7.0957   -2.6696    0.0000 C   0  0  0  0  0  0  0  0  0  0  0  0
   -5.0175   -1.1103    0.0000 C   0  0  0  0  0  0  0  0  0  0  0  0
   -4.4286    0.2692    0.0000 C   0  0  0  0  0  0  0  0  0  0  0  0
   -2.9394    0.4489    0.0000 C   0  0  0  0  0  0  0  0  0  0  0  0
   -2.3505    1.8285    0.0000 C   0  0  0  0  0  0  0  0  0  0  0  0
   -0.8613    2.0082    0.0000 C   0  0  0  0  0  0  0  0  0  0  0  0
   -0.2723    3.3878    0.0000 C   0  0  0  0  0  0  0  0  0  0  0  0
    1.2169    3.5675    0.0000 C   0  0  0  0  0  0  0  0  0  0  0  0
    1.8058    4.9470    0.0000 O   0  0  0  0  0  0  0  0  0  0  0  0
    2.1171    2.3677    0.0000 C   0  0  0  0  0  0  0  0  0  0  0  0
    2.8470    3.6781    0.0000 C   0  0  0  0  0  0  0  0  0  0  0  0
    3.6111    2.2338    0.0000 O   0  0  0  0  0  0  0  0  0  0  0  0
    3.9456    0.7716    0.0000 C   0  0  0  0  0  0  0  0  0  0  0  0
    5.3251    0.1826    0.0000 O   0  0  0  0  0  0  0  0  0  0  0  0
    2.6582    0.0017    0.0000 C   0  0  0  0  0  0  0  0  0  0  0  0
    2.5244   -1.4923    0.0000 C   0  0  0  0  0  0  0  0  0  0  0  0
    1.1636   -2.1234    0.0000 O   0  0  0  0  0  0  0  0  0  0  0  0
    3.7513   -2.3552    0.0000 C   0  0  0  0  0  0  0  0  0  0  0  0
    5.1121   -1.7241    0.0000 C   0  0  0  0  0  0  0  0  0  0  0  0
    3.6175   -3.8492    0.0000 C   0  0  0  0  0  0  0  0  0  0  0  0
    2.2568   -4.4804    0.0000 C   0  0  0  0  0  0  0  0  0  0  0  0
    4.8445   -4.7121    0.0000 O   0  0  0  0  0  0  0  0  0  0  0  0
    1.5282    0.9881    0.0000 C   0  0  0  0  0  0  0  0  0  0  0  0
    0.0390    0.8084    0.0000 C   0  0  0  0  0  0  0  0  0  0  0  0
   -0.5500   -0.5712    0.0000 C   0  0  0  0  0  0  0  0  0  0  0  0
   -2.0392   -0.7509    0.0000 O   0  0  0  0  0  0  0  0  0  0  0  0
  1  2  1  0
  2  3  1  0
  3  4  1  1
  3  5  1  0
  5  6  2  0
  6  7  1  0
  7  8  2  0
  8  9  1  0
  9 10  2  0
 10 11  1  0
 11 12  2  0
 11 13  1  0
 13 14  1  6
 13 15  1  0
 15 16  1  0
 16 17  2  0
 16 18  1  0
 18 19  1  0
 19 20  2  0
 19 21  1  0
 21 22  1  1
 21 23  1  0
 23 24  1  6
 23 25  1  0
 18 26  2  0
 26 27  1  0
 27 28  2  0
 28 29  1  0
 29  7  1  0
 27  9  1  0
 26 13  1  0
M  END
>  <identifier>  (987) 
CNP0251739.1

>  <canonical_smiles>  (987) 
CC[C@H](C)/C=C/C1=CC2=CC(=O)[C@@]3(C)OC(=O)C(C(=O)[C@@H](C)[C@@H](C)O)=C3C2=CO1

>  <standard_inchi>  (987) 
InChI=1S/C23H26O6/c1-6-12(2)7-8-16-9-15-10-18(25)23(5)20(17(15)11-28-16)19(22(27)29-23)21(26)13(3)14(4)24/h7-14,24H,6H2,1-5H3/b8-7+/t12-,13-,14+,23+/m0/s1

>  <standard_inchi_key>  (987) 
HKVYPGSRVJADQC-HCSAQBBQSA-N

>  <name>  (987) 
Chaetoviridin H

>  <iupac_name>  (987) 
(6~{a}~{S})-9-[(2~{S},3~{R})-3-hydroxy-2-methyl-butanoyl]-6~{a}-methyl-3-[(~{E},3~{S})-3-methylpent-1-enyl]furo[2,3-h]isochromene-6,8-dione

>  <annotation_level>  (987) 
5

>  <total_atom_count>  (987) 
55

>  <heavy_atom_count>  (987) 
29

>  <molecular_weight>  (987) 
398.46

>  <exact_molecular_weight>  (987) 
398.17294

>  <molecular_formula>  (987) 
C23H26O6

>  <alogp>  (987) 
3.09

>  <topological_polar_surface_area>  (987) 
89.90

>  <rotatable_bond_count>  (987) 
6

>  <hydrogen_bond_acceptors>  (987) 
6

>  <hydrogen_bond_donors>  (987) 
1

>  <hydrogen_bond_acceptors_lipinski>  (987) 
6

>  <hydrogen_bond_donors_lipinski>  (987) 
1

>  <lipinski_rule_of_five_violations>  (987) 
0

>  <aromatic_rings_count>  (987) 
0

>  <qed_drug_likeliness>  (987) 
0.55

>  <formal_charge>  (987) 
0

>  <fractioncsp3>  (987) 
0.44

>  <number_of_minimal_rings>  (987) 
3

>  <van_der_walls_volume>  (987) 
364.17

>  <contains_sugar>  (987) 
False

>  <contains_ring_sugars>  (987) 
False

>  <contains_linear_sugars>  (987) 
False

>  <murcko_framework>  (987) 
O1C=CC2=CCC3OCC=C3C2=C1

>  <np_likeness>  (987) 
2.94

>  <chemical_class>  (987) 
Organooxygen compounds

>  <chemical_sub_class>  (987) 
Carbonyl compounds

>  <chemical_super_class>  (987) 
Organic oxygen compounds

>  <direct_parent_classification>  (987) 
Cyclohexenones

>  <np_classifier_pathway>  (987) 
Polyketides

>  <np_classifier_superclass>  (987) 
Chromanes

>  <np_classifier_class>  (987) 
Azaphilones

>  <np_classifier_is_glycoside>  (987) 
False

>  <organisms>  (987) 
Chaetomium globosum

>  <collections>  (987) 
ChEBI NPs|Latin America dataset|NPASS|NuBBEDB|WikiData Natural Products|ZINC NP

>  <dois>  (987) 
10.1021/NP200110F|10.1021/np200110f

>  <synonyms>  (987) 
(6aS)-9-[(2S,3R)-3-hydroxy-2-methylbutanoyl]-6a-methyl-3-[(1E,3S)-3-methylpent-1-en-1-yl]-6H-furo[2,3-h]isochromene-6,8(6aH)-dione|CHEBI:67620|CHEMBL1802159|Q27136087|chaetoviridin H

>  <cas>  (987) 
nan

$$$$

     RDKit          2D

 23 23  0  0  0  0  0  0  0  0999 V2000
    0.0675   -2.3727    0.0000 C   0  0  0  0  0  0  0  0  0  0  0  0
   -1.3859   -2.7438    0.0000 C   0  0  0  0  0  0  0  0  0  0  0  0
   -2.4339   -1.6707    0.0000 C   0  0  0  0  0  0  0  0  0  0  0  0
   -3.5070   -2.7187    0.0000 C   0  0  0  0  0  0  0  0  0  0  0  0
   -1.3608   -0.6226    0.0000 C   0  0  0  0  0  0  0  0  0  0  0  0
    0.0834   -1.0280    0.0000 C   0  0  0  0  0  0  0  0  0  0  0  0
    1.1565    0.0201    0.0000 C   0  0  0  0  0  0  0  0  0  0  0  0
    2.6007   -0.3852    0.0000 C   0  0  0  0  0  0  0  0  0  0  0  0
    2.9718   -1.8386    0.0000 C   0  0  0  0  0  0  0  0  0  0  0  0
    3.6738    0.6628    0.0000 C   0  0  0  0  0  0  0  0  0  0  0  0
    5.1180    0.2575    0.0000 C   0  0  0  0  0  0  0  0  0  0  0  0
    6.1912    1.3056    0.0000 C   0  0  0  0  0  0  0  0  0  0  0  0
    7.6354    0.9002    0.0000 C   0  0  0  0  0  0  0  0  0  0  0  0
    8.7085    1.9483    0.0000 C   0  0  0  0  0  0  0  0  0  0  0  0
    8.0064   -0.5531    0.0000 C   0  0  0  0  0  0  0  0  0  0  0  0
   -3.4820   -0.5976    0.0000 C   0  0  0  0  0  0  0  0  0  0  0  0
   -4.9353   -0.9686    0.0000 C   0  0  0  0  0  0  0  0  0  0  0  0
   -5.9834    0.1045    0.0000 C   0  0  0  0  0  0  0  0  0  0  0  0
   -5.5781    1.5487    0.0000 C   0  0  0  0  0  0  0  0  0  0  0  0
   -6.6261    2.6218    0.0000 O   0  0  0  0  0  0  0  0  0  0  0  0
   -4.1247    1.9198    0.0000 C   0  0  0  0  0  0  0  0  0  0  0  0
   -3.7194    3.3640    0.0000 O   0  0  0  0  0  0  0  0  0  0  0  0
   -3.0766    0.8466    0.0000 C   0  0  0  0  0  0  0  0  0  0  0  0
  1  2  2  0
  2  3  1  0
  3  4  1  0
  3  5  1  0
  5  6  1  0
  6  7  1  0
  7  8  2  0
  8  9  1  0
  8 10  1  0
 10 11  1  0
 11 12  1  0
 12 13  2  0
 13 14  1  0
 13 15  1  0
  3 16  1  0
 16 17  2  0
 17 18  1  0
 18 19  2  0
 19 20  1  0
 19 21  1  0
 21 22  1  0
 21 23  2  0
 23 16  1  0
M  END
>  <identifier>  (988) 
CNP0179785.4

>  <canonical_smiles>  (988) 
C=CC(C)(CC/C=C(\C)CCC=C(C)C)C1=CC=C(O)C(O)=C1

>  <standard_inchi>  (988) 
InChI=1S/C21H30O2/c1-6-21(5,18-12-13-19(22)20(23)15-18)14-8-11-17(4)10-7-9-16(2)3/h6,9,11-13,15,22-23H,1,7-8,10,14H2,2-5H3/b17-11+

>  <standard_inchi_key>  (988) 
ZBZZDHDWRSFLAY-GZTJUZNOSA-N

>  <name>  (988) 
4-Nerolidylcatechol

>  <iupac_name>  (988) 
4-[(6E)-3,7,11-trimethyldodeca-1,6,10-trien-3-yl]benzene-1,2-diol

>  <annotation_level>  (988) 
0

>  <total_atom_count>  (988) 
53

>  <heavy_atom_count>  (988) 
23

>  <molecular_weight>  (988) 
314.47

>  <exact_molecular_weight>  (988) 
314.22458

>  <molecular_formula>  (988) 
C21H30O2

>  <alogp>  (988) 
6.01

>  <topological_polar_surface_area>  (988) 
40.46

>  <rotatable_bond_count>  (988) 
8

>  <hydrogen_bond_acceptors>  (988) 
2

>  <hydrogen_bond_donors>  (988) 
2

>  <hydrogen_bond_acceptors_lipinski>  (988) 
2

>  <hydrogen_bond_donors_lipinski>  (988) 
2

>  <lipinski_rule_of_five_violations>  (988) 
1

>  <aromatic_rings_count>  (988) 
1

>  <qed_drug_likeliness>  (988) 
0.46

>  <formal_charge>  (988) 
0

>  <fractioncsp3>  (988) 
0.43

>  <number_of_minimal_rings>  (988) 
1

>  <van_der_walls_volume>  (988) 
328.98

>  <contains_sugar>  (988) 
False

>  <contains_ring_sugars>  (988) 
False

>  <contains_linear_sugars>  (988) 
False

>  <murcko_framework>  (988) 
c1ccccc1

>  <np_likeness>  (988) 
2.18

>  <chemical_class>  (988) 
nan

>  <chemical_sub_class>  (988) 
nan

>  <chemical_super_class>  (988) 
nan

>  <direct_parent_classification>  (988) 
nan

>  <np_classifier_pathway>  (988) 
Terpenoids

>  <np_classifier_superclass>  (988) 
Sesquiterpenoids

>  <np_classifier_class>  (988) 
Farnesane sesquiterpenoids

>  <np_classifier_is_glycoside>  (988) 
False

>  <organisms>  (988) 
Piper peltatum|Piper umbellatum|Pothomorphe umbellata

>  <collections>  (988) 
CMAUP (cCollective molecular activities of useful plants)|FooDB|Latin America dataset|NAPRORE-CR|NPASS|NuBBEDB|WikiData Natural Products

>  <dois>  (988) 
10.1002/PTR.753|10.1016/j.phytochem.2005.03.026|10.1590/S0100-40422009000500005|10.1590/S0103-50532005000800018

>  <synonyms>  (988) 
|1,2-Benzenediol, 4-(1-ethenyl-1,5,9-trimethyl-4,8-decadienyl)-|3-(3,4-Dihydroxyphenyl)-3,7,11-trimethyl-1,6,10-dodecatriene|4-((6E)-3,7,11-trimethyldodeca-1,6,10-trien-3-yl)benzene-1,2-diol|4-Nerolidylcatechol|4-[(4E)-1,5,9-trimethyl-1-vinyl-deca-4,8-dienyl]benzene-1,2-diol|4-[(6E)-3,7,11-trimethyldodeca-1,6,10-trien-3-yl]benzene-1,2-diol|74683-11-7|CHEBI:174288|DTXCID001745673|DTXSID201315787|NSC-692990|NSC692990|RefChem:912713|SCHEMBL14106951

>  <cas>  (988) 
74683-11-7

$$$$

     RDKit          2D

 10  9  0  0  0  0  0  0  0  0999 V2000
   -4.6765    0.0000    0.0000 C   0  0  0  0  0  0  0  0  0  0  0  0
   -3.3775    0.7500    0.0000 C   0  0  0  0  0  0  0  0  0  0  0  0
   -2.0785    0.0000    0.0000 C   0  0  0  0  0  0  0  0  0  0  0  0
   -2.0785   -1.5000    0.0000 C   0  0  0  0  0  0  0  0  0  0  0  0
   -0.7794    0.7500    0.0000 C   0  0  0  0  0  0  0  0  0  0  0  0
    0.5196   -0.0000    0.0000 C   0  0  0  0  0  0  0  0  0  0  0  0
    1.8187    0.7500    0.0000 C   0  0  0  0  0  0  0  0  0  0  0  0
    3.1177   -0.0000    0.0000 C   0  0  0  0  0  0  0  0  0  0  0  0
    4.4167    0.7500    0.0000 C   0  0  0  0  0  0  0  0  0  0  0  0
    3.1177   -1.5000    0.0000 C   0  0  0  0  0  0  0  0  0  0  0  0
  1  2  2  0
  2  3  1  0
  3  4  2  0
  3  5  1  0
  5  6  1  0
  6  7  1  0
  7  8  2  0
  8  9  1  0
  8 10  1  0
M  END
>  <identifier>  (989) 
CNP0241365.0

>  <canonical_smiles>  (989) 
C=CC(=C)CCC=C(C)C

>  <standard_inchi>  (989) 
InChI=1S/C10H16/c1-5-10(4)8-6-7-9(2)3/h5,7H,1,4,6,8H2,2-3H3

>  <standard_inchi_key>  (989) 
UAHWPYUMFXYFJY-UHFFFAOYSA-N

>  <name>  (989) 
MYRCENE

>  <iupac_name>  (989) 
7-methyl-3-methylene-octa-1,6-diene

>  <annotation_level>  (989) 
5

>  <total_atom_count>  (989) 
26

>  <heavy_atom_count>  (989) 
10

>  <molecular_weight>  (989) 
136.24

>  <exact_molecular_weight>  (989) 
136.1252

>  <molecular_formula>  (989) 
C10H16

>  <alogp>  (989) 
3.48

>  <topological_polar_surface_area>  (989) 
0.00

>  <rotatable_bond_count>  (989) 
4

>  <hydrogen_bond_acceptors>  (989) 
0

>  <hydrogen_bond_donors>  (989) 
0

>  <hydrogen_bond_acceptors_lipinski>  (989) 
0

>  <hydrogen_bond_donors_lipinski>  (989) 
0

>  <lipinski_rule_of_five_violations>  (989) 
0

>  <aromatic_rings_count>  (989) 
0

>  <qed_drug_likeliness>  (989) 
0.41

>  <formal_charge>  (989) 
0

>  <fractioncsp3>  (989) 
0.40

>  <number_of_minimal_rings>  (989) 
0

>  <van_der_walls_volume>  (989) 
160.66

>  <contains_sugar>  (989) 
False

>  <contains_ring_sugars>  (989) 
False

>  <contains_linear_sugars>  (989) 
False

>  <murcko_framework>  (989) 
nan

>  <np_likeness>  (989) 
3.26

>  <chemical_class>  (989) 
Prenol lipids

>  <chemical_sub_class>  (989) 
Monoterpenoids

>  <chemical_super_class>  (989) 
Lipids and lipid-like molecules

>  <direct_parent_classification>  (989) 
Acyclic monoterpenoids

>  <np_classifier_pathway>  (989) 
Terpenoids

>  <np_classifier_superclass>  (989) 
Monoterpenoids

>  <np_classifier_class>  (989) 
Acyclic monoterpenoids

>  <np_classifier_is_glycoside>  (989) 
False

>  <organisms>  (989) 
'Salvia africana-lutea'  [ L. (1753) ]|Abies balsamea|Abies grandis|Abies nordmanniana|Abies sachalinensis|Abrus pulchellus|Acca sellowiana|Achillea abrotanoides|Achillea arabica|Achillea biebersteinii|Achillea clavennae|Achillea clypeolata|Achillea millefolium|Acmella ciliata|Aconitum episcopale|Acorus calamus|Acorus calanus L.|Acremonium furcatum|Actaea japonica|Actaea podocarpa|Actaea simplex|Actinodium cunninghamii|Adina trichotoma|Aegle marmelos|Aethalium septicum|Afraegle paniculata|Aframomum angustifolium|Aframomum melegueta|African blue basil|Agaricus hortensis|Agastache foeniculum|Agathosma betulina|Agathosma capensis|Agathosma puberula|Agathosma venusta|Ageratum conyzoides|Aguacate|Aiouea costaricensis|Ajuga chamaepitys|Ajuga reptans|Akebia quinata|Akebia trifoliata|Alangium premnifolium|Alcea rosea|Alcyonium utinomii|Aldisa sanguinea|Alkanna cappadocica|Allium victorialis|Aloysia citriodora|Aloysia citrodora|Aloysia triphylla|Alphinia galanga|Alpinia blepharocalyx|Alpinia breviligulata|Alpinia chinensis|Alpinia conchigera|Alpinia galanga|Alpinia hainanensis|Alpinia katsumadai|Alpinia latilabris|Alpinia officinarum|Alpinia roxburghii|Alpinia zerumbet|Amaryllidaceae|Amitermes papuanus|Ammodaucus leucotrichus|Amomum compactum|Amomum kravanh|Amomum krervanh|Amomum longiligulare|Amomum medium|Amomum villosum|Amomum xanthioides|Anethum graveolens|Angelica Pubescens|Angelica acutiloba|Angelica archangelica|Angelica dahurica|Angelica gigas|Angelica pubescens|Angelica pubescens f.biserrata|Angelica sinensis|Angelica tarokoensis|Anguilla japonica|Anisocycla jollyana|Annona cascarilloides|Annona glabra|Annona reticulata|Annona squamosa|Anthemis aciphylla|Anthemis aciphylla BOISS.var.discoidea BOISS|Aonidiella aurantii|Apium graveolens|Aplysina archeri|Arabidopsis thaliana|Araiostegiella perdurans|Araucaria cunninghamii|Ardisia arborescens|Aristolochia debilis|Aristolochia trilobata|Armina maculata|Aromia moschata|Artemisia Annua|Artemisia Capillaris|Artemisia absinthium|Artemisia annua|Artemisia annua L.|Artemisia apiacea|Artemisia arborescens|Artemisia argyi|Artemisia capillaries|Artemisia capillaris|Artemisia carvifolia|Artemisia dentata|Artemisia dracunculus|Artemisia halophila|Artemisia messerschmidtiana|Artemisia montana|Artemisia princeps|Artemisia rupestris|Artemisia salsoloides|Artemisia santonicum|Artemisia scoparia|Artemisia spicigera|Artemisia thuscula|Artemisia tridentata|Artemisia vulgaris|Arthrophytum leptocladum|Arum maculatum|Asarum canadense|Asarum fauriei|Asarum heteropoides var.mandshuricum|Asarum heterotropoides|Asarum heterotropoides f. schm. var. mandshuricum (maxim.) kitag.|Asarum heterotropoides var. mandshuricum|Asarum kumageanum|Asarum lutchuense|Asarum megacalyx|Asarum rigescens|Asarum sieboldii|Asarum takaoi|Asiasarum heterotropoides|Asiasarum sieboldii|Aspergillus carneus|Aspergillus ruber|Aspergillus striatus|Aspilia paludosa|Aster scaber|Asteraceae|Asterolasia squamuligera|Astragalus glycyphyllos|Atalantia buxifolia|Atalantia racemosa|Athamanta macedonica|Athanasia crithmifolia|Athrixia elata|Aucklandia lappa|Aulacomnium palustre|Austrobaileya scandens|Avena sativa|Baccharis articulata|Baccharis dracunculifolia|Baccharis rufescens|Backhousia citriodora|Baeckea frutescens|Baeckea frutescens L.|Balanops australiana|Beilschmiedia pendula|Benzoin praecox|Berberis heterobotrys|Berberis julianae|Bidens andicola|Bistorta manshuriensis|Bistorta officinalis|Bitter bush|Blepharis sindica|Blepharocalyx salicifolius|Blepharocalyx tweediei|Boenninghausenia Albiflora|Boenninghausenia albiflora|Bombax ceiba|Boronia latipinna|Boswellia carteri|Boswellia carterii|Boswellia papyrifera|Boswellia sacra|Boswellia serrata|Bothriochloa bladhii|Botryotrichum murorum|Boykinia tellimoides|Bragantia wallichii|Brassica campestris|Brassica juncea|Brassica napus|Brassica nigra|Brassica rapa|Bridelia ferruginea|Buddleja cordata|Bunium paucifolium|Buphane fischeri|Bupleurum chinense|Bupleurum fruticescens|Bupleurum fruticosum|Bupleurum gibraltaricum|Bupleurum rigidum|Bupleurum smithii var. parvifolium|Bystropogon canariensis|Bystropogon mollis|Bystropogon origanifolius|Cacia concinna|Caesalpinia bonducella|Calamintha incana|Callistemon linearis|Callitropsis nootkatensis|Calocedrus macrolepis var. formosana|Calocedrus macrolepis var.formosana|Camellia sinensis|Cananga odorata|Canarium luzonicum|Canella winterana|Cannabis sativa|Cantinoa mutabilis|Capsicum annuum|Carapichea ipecacuanha|Cardamine pinnata|Carica papaya|Carum carvi|Cassinia subtropica|Castanopsis cuspidata|Catha edulis|Catharanthus roseus|Cedrus atlantica|Cedrus libani|Cellulomonas biazotea|Centaurea cheiranthifolia|Centaurea solstitialis|Centella asiatica|Centranthus longiflorus ssp. longiflorus|Cephalotaxus griffithii|Cephalotaxus harringtonia|Cephalotaxus harringtonii|Cephalotaxus mannii|Ceratiomyxa fruticulosa|Cerbera dilatata|Cetraria aculeata|Chaerophyllum macrospermum|Chamaecyparis lawsoniana|Chamaecyparis obtusa|Chamaecyparis obtusa var. formosana|Chamaecyparis obtusa var.formosana|Chamaecyparis pisifera|Chamaemelum nobile|Chamomilla recutita|Chamomilla suaveolens|Chamonixia caespitosa|Chenopodium ambrosioides|Chresta sphaerocephala|Chrysanthemum indicum|Chrysanthemum morifolium|Chrysanthemum x morifolium|Chrysanthemum zawadskii|Chrysopogon zizanioides|Cicuta virosa|Cimicifuga simplex|Cinnamomum aromaticum|Cinnamomum burmanni|Cinnamomum camphora|Cinnamomum cassia|Cinnamomum illicioides|Cinnamomum iners|Cinnamomum pachyphyllum|Cinnamomum sieboldii|Cinnamomum tenuifolium|Cinnamomum verum|Cinnamomum zeylanicum|Cinnamon|Cistus albidus|Cistus creticus|Cistus ladanifer|Cistus laurifolius|Cistus monspeliensis|Citrullus lanatus|Citrus Aurantifolia|Citrus Aurantium|Citrus Grandis|Citrus Hystrix|Citrus Paradisi|Citrus Reticulata|Citrus Sinensis|Citrus aurantifolia|Citrus aurantiifolia|Citrus aurantium|Citrus grandis|Citrus hystrix|Citrus inflata|Citrus junos|Citrus limettioides|Citrus limon|Citrus maxima|Citrus medica|Citrus natsudaidai|Citrus paradisi|Citrus reticulata|Citrus reticulate|Citrus sinensis|Citrus sunki|Citrus trifoliata|Citrus unshiu|Citrus unshiu Marc.|Citrus wilsonii|Citrus × deliciosa|Citrus × paradisi|Citrus ×iyo|Cladanthus arabicus|Cladosporium tenuissimum|Clausena anisata|Clausena excavata|Cleistopholis patens|Cleonia lusitanica|Clinopodium album|Clinopodium barbatum|Clinopodium brevifolium|Clinopodium brownei|Clinopodium carolinianum|Clinopodium congestum|Clinopodium gilliesii|Clinopodium grandiflorum|Clinopodium insulare|Clinopodium odorum|Clinopodium suaveolens|Clinopodium thymifolium|Cneorum pulverulentum|Cnidium officinale|Codonocarpus australis|Coespeletia timotensis|Colchicum arenarium|Coleostephus myconis|Colobocentrotus atratus|Comamonas testosteroni|Commiphora gurreh|Commiphora quadricincta|Commiphora sphaerocarpa|Comptonia peregrina|Conyza sumatrensis|Coptis chinensis|Coptis deltoidea|Coptis japonica|Coptis teeta|Corbicula fluminea|Coriandrum sativum|Cornulaca monacantha|Cortinarius odoratus|Cortinellus berkeleyanus|Corydalis nakaii|Corymbia citriodora|Couroupita guianensis|Craibiodendron yunnanese|Crambe tatarica|Crateva nurvala|Cratoxylum pruniflorum|Crithmum maritimum|Crocus sativus|Croton adenocalyx|Croton eluteria|Croton grewioides|Croton jimenezii|Croton micans|Croton sonderianus|Croton zehntneri|Cryptocarya agathophylla|Cryptomeria japonica|Cryptomeria japonica var. sinensis|Cryptotaenia japonica|Cucumaria frondosa|Cuminum cyminum|Cunila fasciculata|Cunila microcephala|Cupressus macrocarpa|Cupressus sempervirens|Curcuma Aeruginosa|Curcuma Aromatica|Curcuma Xanthorrhiza|Curcuma aeruginosa|Curcuma amada|Curcuma amanda Roxb|Curcuma aromatica|Curcuma kwangsiensis|Curcuma longa|Curcuma mangga|Curcuma phaeocaulis|Curcuma pierreana|Curcuma wenyujin|Curcuma xanthorrhiza|Curcuma zedoaria|Curio articulatus|Cymbopogon citratus|Cymbopogon distans|Cymbopogon flexuosus|Cymbopogon martinii|Cymbopogon nardus|Cymbopogon schoenanthus|Cyperaceae|Cyperus Rotundus|Cyperus rotundus|Cyperus rotundus L.|Dacrydium nausoriense|Dacrydium nidulum|Daphnandra johnsonii|Daphne mezereum|Daucus carota|Delphinium andersoni|Dianella revoluta|Dictamnus albus|Dimocarpus fumatus|Diospyros eriantha|Diospyros verrucosa|Diphasia angolensis|Diplolophium africanum|Diplotaenia cachrydifolia|Dolomiaea costus|Dracocephalum kotschyi|Dryopteris abbreviata|Ducrosia anethifolia|Ducrosia ismaelis|Dysoxylum hainanense|Dysphania ambrosioides|Echinacea angustifolia|Echinacea pallida|Echinacea purpurea|Echinophora orientalis|Echinophora tenuifolia|Echinophora trichophylla|Elettaria cardamomum|Eleutherobia albiflora|Elsholtzia ciliata|Elsholtzia eriostachya|Elsholtzia fruticosa|Elsholtzia pilosa|Elsholtzia splendens|Enydra fluctuans|Ephedra Sinica|Ephedra sinica|Epimedium davidii|Eriobotrya japonica|Erodendrum neriifolium|Eryngium foetidum|Erysimum odoratum|Erythrina burttii|Espeletia timotensis|Etlingera cevuga|Etlingera elatior|Etlingera pavieana|Eucalyptus angulosa|Eucalyptus apodophylla|Eucalyptus behriana|Eucalyptus blakelyi|Eucalyptus bosistoana|Eucalyptus brassiana|Eucalyptus camaldulensis|Eucalyptus ceratocorys|Eucalyptus citriodora|Eucalyptus cladocalyx|Eucalyptus cloeziana|Eucalyptus cuprea|Eucalyptus dealbata|Eucalyptus delegatensis|Eucalyptus dolichorhyncha|Eucalyptus exserta|Eucalyptus fasciculosa|Eucalyptus forrestiana|Eucalyptus globulus|Eucalyptus hybrid|Eucalyptus incrassata|Eucalyptus intertexta|Eucalyptus jenseni|Eucalyptus jensenii|Eucalyptus kochii|Eucalyptus lansdowneana|Eucalyptus leucoxylon|Eucalyptus maidenii|Eucalyptus melanophloia|Eucalyptus moluccana|Eucalyptus nitens|Eucalyptus ochrophloia|Eucalyptus odorata|Eucalyptus ovata|Eucalyptus oviformis|Eucalyptus polyanthemos|Eucalyptus populnea|Eucalyptus porosa|Eucalyptus pulverulenta|Eucalyptus punctata|Eucalyptus radiata|Eucalyptus sideroxylon|Eucalyptus sparsa|Eucalyptus staigeriana|Eucalyptus stoatei|Eucalyptus tereticornis|Eucalyptus tetraptera|Eucalyptus viridis|Eugenia dysenterica|Eugenia uniflora|Euodia bodinieri|Euodia officinalis|Euodia ruticarpa|Euonymus nanoides|Euonymus tingens|Eupatorium cannabinum|Eupatorium capillifolium|Eupatorium fortunei|Euphorbia bivonae|Euphorbia cornigera|Eupolyphaga sinensis|Eutypella scoparia|Evodia rutaecarpa|Fagara ailanthoides|Feijoa sellowiana|Ferula assa-foetida|Ferula assafoetida|Ferula iliensis|Ferula ovina|Ferulago nodosa|Ferulago thirkeana|Ferulago trachycarpa|Ficus carica|Flacourtia inermis|Flourensia cernua|Foeniculum vulgare|Folium perillae|Forsythia suspensa|Forsythia suspense|Forsythia viridissima|Fragaria indica|Freesia hybrida|Fritillaria ningguoensis|Fructus amomi|Fructus evodiae|Fructus galangae|Fructus schiandrae|Fructus syzygii|Frullania|Frullania brittoniae|Frullania monocera|Frullania tamarisci|Galenia africana|Garcinia oligantha|Gentiana kurroo|Geranium|Girgensohnia diptera|Glehnia littoralis|Globba malaccensis|Gnidia lamprantha|Gossypium hirsutum|Grangea maderaspatana|Grindelia hirsutula|Guatteria hispida|Guatteriopsis hispida|Gutierrezia sarothrae|Gymnopus confluens|Gyrothyra underwoodiana|Halocarpus bidwillii|Halocarpus biformis|Halocarpus kirkii|Haminoea orbignyana|Hansenia forbesii|Hansenia weberbaueriana|Haplostichanthus johnsonii|Hardwickia pinnata|Hedeoma mandoniana|Hedychium coronarium|Hedychium spicatum|Helenium mexicanum|Helichrysum amorginum|Helichrysum bracteiferum|Helichrysum italicum|Helichrysum odoratissimum|Helichrysum taenari|Heracleum dissectum|Heracleum persicum|Heracleum stevenii|Herba glechomae longitubae|Hesperis matronalis|Hesperozygis rhododon|Heteranthemis viscidehirta|Heteropyxis natalensis|Heterotheca inuloides|Heterotropa|Hippeastrum aulicum|Hoffmannia strigillosa|Homo sapiens|Houttuynia Cordata|Houttuynia cordata|Houttuynia cordata Thunb.|Houttuynia emeiensis|Humulus lupulus|Hylocomium splendens|Hypericum heterophyllum|Hypericum hyssopifolium|Hypericum perforatum|Hypericum rumeliacum|Hypericum scabrum|Hypericum triquetrifolium|Hyptis emoryi|Hyptis goyazensis|Hyptis mutabilis|Hyptis pectinata|Hyptis spicigera|Hyptis suaveolens|Hyssopus officinalis|Hyssopus seravschanicus|Ilex amara|Illicium anisatum|Illicium difengpi|Illicium verum|Inga umbellifera|Iris spuria|Isatis tinctoria|Isodon japonica var. glaucocalyx|Isodon japonicus|Isodon melissoides|Isodon rugosus|Ixora chinensis|Jacobaea argunensis|Jacobaea subalpina|Jaspis stellifera|Jugo|Jungermannia vulcanicola|Juniperus chinensis|Juniperus communis|Juniperus drupacea|Juniperus durangensis|Juniperus foetidissima|Juniperus jaliscana|Juniperus monticola|Juniperus oxycedrus|Juniperus rigida var. conferta|Juniperus taxifolia|Karlodinium veneficum|Kippistia suaedifolia|Kleinia pendula|Knightia excelsa|Kokoona ochracea|Kokoona reflexa|Kunzea salina|Lactarius flavidulus|Lactobacillus casei|Laggera alata|Laggera aurita|Laggera pterodonta|Lagoecia cuminoides|Lamellodysidea herbacea|Lamprolobium fruticosum|Lanxangia tsao-ko|Larix gmelinii var. gmelinii|Larix gmelinii var. olgensis|Larix kaempferi|Larix laricina|Larix lyallii|Larix occidentalis|Larix sibirica|Laser trilobum|Latua pubiflora|Launea|Laurencia distichophylla|Laurus nobilis|Lavandula angustifolia|Lavandula latifolia|Lavandula stoechas|Ledum palustre L.|Lemaireocereus griseus|Leonotis leonurus|Leonurus glaucescens|Lepechinia chamaedryoides|Lepechinia chilensis|Lepechinia floribunda|Lepidium draba|Lepraria chlorina|Leptospermum scoparium|Levisticum officinale|Licaria puchury-major|Ligularia hodgsonii|Ligusticum chuanxiong|Ligusticum sinense|Lippia Aff. sidoides|Lippia Myriocephala|Lippia alba|Lippia chevalieri|Lippia dulcis|Lippia gracilis|Lippia grata|Lippia graveolens|Lippia multiflora|Lippia origanoides|Lippia sidoides|Liquidambar styraciflua|Liriodendron tulipifera|Litchi chinensis|Litsea cubeba|Litsea glaucescens|Lobelia st|Maba buxifolia|Macrolepiota neomastoidea|Maesa macrophylla|Maesa ramentacea|Maesopsis eminii|Magnolia balansae|Magnolia liliflora|Magnolia liliiflora|Malus|Malus domestica|Malus pumila|Manekia naranjoana|Mangifera indica|Manoao colensoi|Marasmius graminum|Matricaria chamomilla|Matricaria discoidea|Matricaria matricarioides|Medicago Sativa|Medicago sativa|Melaleuca Leucadendra|Melaleuca alternifolia|Melaleuca decussata|Melaleuca leucadendra|Melaleuca leucadendra L.|Melaleuca linariifolia|Melaleuca parviflora|Melaleuca quinquenervia|Melampodium camphoratum|Melissa officinalis|Melolontha melolontha|Mentha|Mentha X piperita|Mentha aquatica|Mentha arvensis|Mentha canadensis|Mentha haplocalyx|Mentha piperita|Mentha pulegium|Mentha spicata|Mentha suaveolens|Mesosphaerum pectinatum|Methylosinus trichosporium|Metrosideros umbellata|Microcitrus|Micromeria biflora|Micromeria croatica|Micromeria juliana|Micromeria maderensis|Micromeria myrtifolia|Micromeria pineolens|Micromeria teneriffae|Mikania banisteriae|Mikania congesta|Mikania cordifolia|Mikania grazielae|Mikania parviflora|Millettia erythrocalyx|Millettia laurentii|Minthostachys andina|Minthostachys glabrescens|Minthostachys mollis|Monarda citriodora|Monarda fistulosa|Monnina sylvatica|Monodora tenuifolia|Montanoa tomentosa|Moringa oleifera|Mortierella elongata|Mosla cavaleriei|Mosla chinensis|Murraya koenigii|Murraya paniculata|Mycobacterium leprae|Mycobacterium tuberculosis|Myristica fragrans|Myrtaceae|Myrtus communis|Nasutitermes ephratae|Nasutitermes matangensis|Nasutitermes nigriceps|Nectandra salicina|Negombata magnifica|Nelumbo lutea|Nelumbo nucifera|Nemalion vermiculare|Nepenthes rafflesiana|Nepeta annua|Nepeta nuda|Nepeta racemosa|Nepeta viscida|Nicotiana alata|Nicotiana bonariensis|Nicotiana langsdorffii|Nicotiana mutabilis|Nidorella resedifolia|Nidula candida|Nigella sativa|Nigella sativa L|Notopterygium forbesii|Notopterygium incisum|Nototodarus sloanii|Ochtodes secundiramea|Ocimum americanum|Ocimum basilicum|Ocimum campechianum|Ocimum grandiflorum|Ocimum gratissimum|Ocimum micranthum|Ocimum tenuiflorum|Ocotea austinii|Ocotea morae|Oenanthe aquatica|Oleum ocimi gratissimi|Ononis vaginalis|Ophiocoma scolopendrina|Ophrys sphegodes|Oplopanax elatus|Opuntia ficus-indica|Origanum acutidens|Origanum adanense|Origanum cordifolium|Origanum dictamnus|Origanum dubium|Origanum hypericifolium|Origanum intercedens|Origanum laevigatum|Origanum majorana|Origanum minutiflorum|Origanum onites|Origanum paniculatum|Origanum sipyleum|Origanum syriacum|Origanum vulgare|Osbornia octodonta|Osmanthus fragrans|Ostericum grosseserratum|Otostegia fruticosa|Pagrus major|Panax ginseng|Panax notoginseng|Panax quinquefolius|Parmelia vittata|Parthenium argentatum|Parthenium confertum|Parthenium fruticosum|Parthenium hysterophorus|Parthenium incanum|Parthenium schottii|Parthenium tomentosum|Pelargonium citronellum|Pelargonium graveolens|Pelargonium quercifolium|Pelargonium ternifolium|Pelargonium vitifolium|Pelargonium x hortorum|Pellia epiphylla|Peltodon radicans|Penicillium citreonigrum|Penicillium janczewskii|Peperomia circinnata|Pericarpium citri|Pericarpium citri reticulatae|Pericarpium citri reticulatae viride|Pericarpium zanthoxyli|Perilla frutescens|Periploca sepium|Perovskia abrotanoides|Perovskia atriplicifolia|Persea obovatifolia|Persea tolimanensis|Petasites albus|Petriella guttulata|Petroselinum crispum|Peucedanum paniculatum|Peucedanum paniculatum L.|Peucedanum zenkeri|Phallus impudicus|Phebalium gracile|Phellodendron amurense|Phlomis lanata|Phyllanthus emblica|Phyllobates aurotaenia|Phyllocladus trichomanoides|Picea abies|Picea abies var. abies|Picea ajanensis|Picea glehnii|Picea glehnii L.|Picea koraiensis|Picea mariana|Picea orientalis|Picridium crystallinum|Pieris melete|Pieris napi|Pilocarpus grandiflorus|Pilocarpus jaborandi|Pilocarpus pauciflorus|Pimelea linifolia|Pimenta acris|Pimenta dioica|Pimenta racemosa|Pimpinella anisum|Pimpinella serbica|Pinna muricata|Pinus aristata|Pinus brutia var. eldarica|Pinus brutia var. pityusa|Pinus caribaea|Pinus cembra|Pinus cembroides|Pinus contorta|Pinus densiflora|Pinus densiflora var. densiflora|Pinus edulis|Pinus flexilis|Pinus halepensis|Pinus hartwegii|Pinus heldreichii|Pinus longaeva|Pinus massoniana|Pinus merkusii|Pinus peuce|Pinus ponderosa|Pinus pumila|Pinus remota|Pinus rzedowskii|Pinus sibirica|Pinus strobus|Pinus sylvestris|Piper aduncum|Piper angustifolium|Piper anisum|Piper arboreum|Piper augustum|Piper auritum|Piper callosum|Piper corcovadense|Piper cubeba|Piper fimbriulatum|Piper gaudichaudianum|Piper gibbilimbum|Piper lanceaefolium|Piper marginatum|Piper nigrum|Piper regnellii|Pistacia atlantica|Pistacia lentiscus|Pistacia vera|Pittocaulon bombycophole|Pittosporum balfourii|Platycladus orientalis|Pleodendron costaricense|Pleogyne cunninghami|Pleogyne cunninghamii|Pluchea dioscoridis|Pluchea odorata|Pocillopora damicornis|Podachaenium eminens|Poliomintha incana|Polyachyrus sphaerocephalus|Polygala amara|Porophyllum gracile|Porophyllum ruderale|Portieria hornemannii|Portulaca okinawensis|Portulaca oleracea|Poterium sanguisorba|Prangos uloptera|Primula macrophylla|Prorocentrum micans|Protaetia cuprea|Proteaceae|Protium heptaphyllum|Prunella vulgaris|Pseudallescheria boydii|Pseudoplexaura flagellosa|Pseudotsuga menziesii|Psiadia altissima|Psidium guajava|Psidium larueotteanum|Psidium rufum|Psidium salutare|Pteris semipinnata|Pterocarpus dalbergioides|Pteronia incana|Ptychopetalum olacoides|Punica granatum|Pycnanthemum floridanum|Pyrenophora teres|Pyrola decorata|Pyrola rotundifolia|Quercus coccifera|Quercus ilex|Quercus serrata|Quercus sessiliflora|Radix chuanxiong|Rapanea lancifolia|Raukaua simplex|Remijia pedunculata|Renealmia floribunda|Resina liquidambaris|Rhanterium epapposum|Rhinella arenarum|Rhizoma chuanxiong|Rhizoma curcumae|Rhodiola crenulata|Rhodiola rosea|Rhodiola rosea L.|Rhododendron campylogynum|Rhododendron concinnum|Rhododendron glaucophyllum|Rhododendron groenlandicum|Rhododendron impeditum|Rhododendron micranthum|Rhododendron scabrifolium|Rhododendron tomentosum|Rhododendron yunnanense|Rosa gallica|Rosa × centifolia|Rosa × damascena|Rosmarinus Officinalis|Rosmarinus eriocalyx|Rosmarinus officinalis|Rosmarinus officinalis L.|Rosmarinus tomentosus|Rubus pungens|Rubus rosa|Rubus trifidus|Rudbeckia hirta|Russula queletii|Ruta graveolens|Sagittaria sagittifolia|Salacia lehmbachii|Salacia madagascariensis|Salvia|Salvia abrotanoides|Salvia absconditiflora|Salvia aurea|Salvia brandegeei|Salvia caespitosa|Salvia candidissima|Salvia columbariae|Salvia dichroa|Salvia dorisiana|Salvia dorystaechas|Salvia fruticosa|Salvia granatensis|Salvia hispanica|Salvia jordanii|Salvia mellifera|Salvia munzii|Salvia officinalis|Salvia pomifera|Salvia sahendica|Salvia sclarea|Salvia syriaca|Salvia tomentosa|Salvia triloba|Salvia yosgadensis|Santolina canescens|Santolina chamaecyparissus|Santolina corsica|Santolina corsica Jordan et Fourr|Santolina rosmarinifolia|Saracha viscosa|Sarcodon aspratus|Sassafras albidum|Satureja cilicica|Satureja cuneifolia|Satureja hortensis|Satureja montana|Satureja spicigera|Satureja thymbra|Satureja wiedemanniana|Saussurea Lappa|Saussurea carthamoides|Saussurea lappa|Scalesia affinis|Scalesia aspera|Scalesia baurii|Scalesia cordata|Scalesia crockeri|Scalesia helleri|Scalesia incisa|Scalesia microcephala|Scalesia pedunculata|Scalesia stewartii|Scalesia villosa|Scaligeria lazica|Scandix australis|Schinus lentiscifolia|Schinus lentiscifolius|Schinus molle|Schisandra Chinensis|Schisandra chinensis|Schizonepeta multifida|Schizonepeta tenuifolia|Schizonepeta tenuisfolia|Scorzonera pseudodivaricata|Scutellaria lateriflora|Scytalidium uredinicola|Senecio alcicornis|Senecio chrysanthemoides|Senna alexandrina|Septoria pistaciarum|Sequoia sempervirens|Sequoiadendron giganteum|Sideritis argyrea|Sideritis athoa|Sideritis brevibracteata|Sideritis chamaedryfolia|Sideritis condensata|Sideritis congesta|Sideritis dichotoma|Sideritis hirsuta|Sideritis hispida|Sideritis lanata|Sideritis leucantha|Sideritis lyciae|Sideritis paulii|Sideritis perfoliata|Sideroxylon cubense|Sinapis alba|Sinopodophyllum emodi|Siparuna thecaphora|Siphula roccellaeformis|Sium latifolium|Smallanthus glabratus|Smallanthus maculatus|Solanecio biafrae|Solanum acaule|Solanum betaceum|Solanum incisum|Solanum stuckertii|Solanum toxicarum|Solidago canadensis|Solidago gigantea|Solidago litoralis|Solidago odora|Sophora flavescens|Sphagneticola trilobata|Spiranthera odoratissima|Spodoptera eridania|Spongia australis|Stachys aegyptiaca|Steganotaenia araliacea|Stelletta inconspicua|Stephania sutchuenensis|Stereocaulon sasakii|Stevia alpina|Stichopus parvimensis|Stockwellia|Stoeba extensa|Stoebe plumosa|Stoebe vulgaris|Streptomyces citreus CBS 109.60|Streptomyces fumanus|Streptomyces griseovariabilis|Streptomyces lavendofoliae|Streptomyces odorifer|Streptomyces violaceochromogenes|Strobilanthes callosa|Strobilanthes zeylanica|Strophanthus eminii|Suillus granulatus|Swertia delavayi|Swertia japonica|Syncarpia hillii|Syzygium aromaticum|Syzygium cumini|Syzygium nervosum|Tagetes lucida|Tagetes minuta|Tamarindus indica|Tamarix gallica|Tambourissa leptophylla|Tanacetum annuum|Tanacetum millefolium|Tanacetum parthenium|Tanacetum vulgare|Taxodium distichum|Terminalia bentzoe|Tessaria fastigiata|Tetradenia riparia|Tetraneuris acaulis|Teucrium asiaticum|Teucrium bidentatum|Teucrium cyprium|Teucrium kotschyanum|Teucrium leucocladum|Teucrium micropodioides|Teucrium montanum|Teucrium oxylepis|Teucrium pestalozzae|Teucrium polium|Teucrium pseudoscorodonia|Teucrium salviastrum|Teucrium sandrasicum|Teucrium scorodonia|Thalictrum sachalinense|Thapsia maxima|Thapsia villosa|Thuja occidentalis|Thuja plicata|Thuja standishii|Thymbra capitata|Thymbra spicata|Thymus|Thymus X-porlock|Thymus baeticus|Thymus broussonetii|Thymus camphoratus|Thymus capitatus|Thymus eigii|Thymus eriocalyx|Thymus funkii|Thymus longicaulis|Thymus longiflorus|Thymus maroccanus|Thymus membranaceus|Thymus nummularius|Thymus orespedanus|Thymus pectinatus|Thymus pubescens|Thymus quinquecostatus|Thymus revolutus|Thymus riatarum|Thymus saturejoides|Thymus schimperi|Thymus sibthorpii|Thymus thracicus|Thymus villosus|Thymus vulgaris|Thymus willkommii|Thymus zygioides|Thymus zygis|Tilesia baccata|Toddalia asiatica|Torulopsis magnoliae|Trachyspermum ammi|Trichia favoginea|Trichostema dichotomum|Trifoliate orange|Trypetheliopsis boninensis|Tsuga canadensis|Turbo argyrostoma|Ulva clathrata|Umbellularia californica|Umbilicaria pustulata|Unonopsis glaucopetala|Uvaria chamae|Vaccinium ashei|Vaccinium corymbosum|Vaccinium virgatum|Vaccinium vitis-idaea|Valeriana jatamansi|Valeriana officinalis|Vallesia glabra|Vallota purpurea|Varronia curassavica|Verbesina diversifolia|Viburnum orientale|Viguiera decurrens|Viola hondoensis|Virola surinamensis|Vismia jefensis|Vitex agnus-castus|Vitex negundo|Vitex trifolia|Vogtia annua|Warburgia stuhlmannii|Warburgia ugandensis|Wedelia calycina|Wedelia scaberrima|West African Pepper|Wurfbainia compacta|Wurfbainia longiligularis|Wurfbainia neoaurantiaca|Wurfbainia villosa|Xanthium orientale|Xanthium strumarium|Xanthocyparis nootkatensis|Xenia puertogalerae|Xenoacremonium recifei|Xylopia aromatica|Xylopia sericea|Zanthoxylum armatum|Zanthoxylum asiaticum|Zanthoxylum bungeanum|Zanthoxylum chalybaeum|Zanthoxylum chalybeum|Zanthoxylum gilletii|Zanthoxylum piperitum|Zanthoxylum schinifolium|Zanthoxylum simulans|Zanthoxylum zanthoxyloides|Zataria multiflora|Zieria arborescens|Zieria chevalieri|Zieria murphyi|Zieria smithii|Zingiber mioga|Zingiber officinale|Zingiber ottensii|Zingiber zerumbet|basil|bellis perennis|candyleaf|cicely|common myrtle|common sunflower|corn mint|maize|marjoram|parsley|pomegranate|pomelo|potato|rooibos|springbok|tarragon|tomato|water mint

>  <collections>  (989) 
ANPDB|AfroDB|Australian natural products|CMAUP (cCollective molecular activities of useful plants)|ChEBI NPs|FooDB|HIM (Herbal Ingredients in-vivo Metabolism database)|InterBioScreen Ltd|KNApSaCK|Latin America dataset|Mitishamba database|NANPDB (Natural Products from Northern African Sources)|NAPRORE-CR|NPACT|NPASS|NPAtlas|NPDBEjeCol|NPEdia|NuBBEDB|Phyto4Health|SANCDB|Seaweed Metabolite Database (SWMD)|Super Natural II|TCMDB-Taiwan (Traditional Chinese Medicine database)|TCMID (Traditional Chinese Medicine Integrated Database)|TIPdb (database of Taiwan indigenous plants)|TPPT (Toxic Plants–PhytoToxins)|UEFS (Natural Products Databse of the UEFS)|UNPD (Universal Natural Products Database)|VietHerb|Watermelon|WikiData Natural Products

>  <dois>  (989) 
10.1002/(SICI)1097-0231(199608)10:11<1345::AID-RCM631>3.0.CO;2-4|10.1002/(SICI)1099-1026(199601)11:1<15::AID-FFJ541>3.0.CO;2-H|10.1002/(SICI)1099-1026(199701)12:1<47::AID-FFJ610>3.0.CO;2-7|10.1002/(SICI)1099-1026(199703)12:2<117::AID-FFJ612>3.0.CO;2-X|10.1002/(SICI)1099-1026(199707)12:4<285::AID-FFJ649>3.0.CO;2-W|10.1002/(SICI)1099-1026(199709/10)12:5<335::AID-FFJ664>3.0.CO;2-I|10.1002/(SICI)1099-1026(199711/12)12:6<397::AID-FFJ670>3.0.CO;2-Z|10.1002/(SICI)1099-1026(199801/02)13:1<26::AID-FFJ686>3.0.CO;2-P|10.1002/(SICI)1099-1026(199801/02)13:1<29::AID-FFJ682>3.0.CO;2-S|10.1002/(SICI)1099-1026(1998070)13:4<245::AID-FFJ736>3.0.CO;2-J|10.1002/(SICI)1099-1026(199907/08)14:4<211::AID-FFJ812>3.0.CO;2-W|10.1002/(SICI)1099-1026(199909/10)14:5<312::AID-FFJ835>3.0.CO;2-B|10.1002/(SICI)1099-1026(199911/12)14:6<393::AID-FFJ849>3.0.CO;2-5|10.1002/(SICI)1099-1026(200003/04)15:2<100::AID-FFJ874>3.0.CO;2-Y|10.1002/(SICI)1099-1565(199909/10)10:5<241::AID-PCA460>3.0.CO;2-5|10.1002/(SICI)1099-1573(199702)11:1<67::AID-PTR29>3.0.CO;2-I|10.1002/(SICI)1099-1573(1998)12:1+<S117::AID-PTR269>3.0.CO;2-2|10.1002/(SICI)1099-1573(1998)12:1+<S92::AID-PTR261>3.0.CO;2-9|10.1002/1099-1026(200009/10)15:5<299::AID-FFJ911>3.0.CO;2-I|10.1002/1099-1026(200009/10)15:5<339::AID-FFJ922>3.0.CO;2-H|10.1002/1099-1026(200101/02)16:1<19::AID-FFJ940>3.0.CO;2-U|10.1002/1099-1565(200007/08)11:4<236::AID-PCA503>3.0.CO;2-B|10.1002/9780470744307.gat218|10.1002/CBDV.200900162|10.1002/CBDV.201100059|10.1002/CBDV.201700436|10.1002/CBDV.201800531|10.1002/CJOC.201180379|10.1002/ECE3.5390|10.1002/FFJ.1053|10.1002/FFJ.1064|10.1002/FFJ.1105|10.1002/FFJ.1124|10.1002/FFJ.1161|10.1002/FFJ.1175|10.1002/FFJ.1248|10.1002/FFJ.1279|10.1002/FFJ.1305|10.1002/FFJ.1349|10.1002/FFJ.1547|10.1002/FFJ.1582|10.1002/FFJ.1804|10.1002/FFJ.2730010103|10.1002/FFJ.2730020106|10.1002/FFJ.2730020110|10.1002/FFJ.2730020404|10.1002/FFJ.2730030107|10.1002/FFJ.2730030203|10.1002/FFJ.2730030204|10.1002/FFJ.2730030208|10.1002/FFJ.2730040105|10.1002/FFJ.2730040407|10.1002/FFJ.2730040411|10.1002/FFJ.2730050307|10.1002/FFJ.2730060307|10.1002/FFJ.2730060314|10.1002/FFJ.2730060406|10.1002/FFJ.2730070109|10.1002/FFJ.2730070111|10.1002/FFJ.2730070603|10.1002/FFJ.2730080303|10.1002/FFJ.2730080504|10.1002/FFJ.2730090107|10.1002/FFJ.2730090305|10.1002/FFJ.2730100204|10.1002/FFJ.2730100310|10.1002/FFJ.2730100313|10.1002/FFJ.2730100602|10.1002/FFJ.2730100605|10.1002/FFJ.2730100609|10.1002/FFJ.3227|10.1002/HLCA.19840670504|10.1002/HLCA.201200359|10.1002/JCTB.5010020103|10.1002/JCTB.5010020405|10.1002/JPS.3030431207|10.1002/JPS.3030450205|10.1002/JPS.3030450308|10.1002/JSFA.2740041103|10.1002/JSFA.2740061203|10.1002/JSFA.2740580109|10.1002/JSFA.2740630315|10.1002/JSFA.4146|10.1002/JSSC.200900024|10.1002/PCA.759|10.1002/PTR.1093|10.1002/PTR.2137|10.1002/PTR.2650010304|10.1002/PTR.2650040210|10.1002/PTR.2650040606|10.1002/PTR.2650070123|10.1002/PTR.2650090215|10.1002/RCM.1290091307|10.1006/JFCA.2000.0968|10.1007/BF00565890|10.1007/BF00566074|10.1007/BF00567053|10.1007/BF00567284|10.1007/BF00567793|10.1007/BF00568256|10.1007/BF00570218|10.1007/BF00574326|10.1007/BF00574605|10.1007/BF00575062|10.1007/BF00576212|10.1007/BF00576230|10.1007/BF00577187|10.1007/BF00579167|10.1007/BF00579447|10.1007/BF00579986|10.1007/BF00579988|10.1007/BF00580068|10.1007/BF00580452|10.1007/BF00580453|10.1007/BF00580907|10.1007/BF00598430|10.1007/BF00629814|10.1007/BF00713346|10.1007/BF01014700|10.1007/BF01024117|10.1007/BF01134621|10.1007/BF01947255|10.1007/BF01954043|10.1007/BF01959201|10.1007/BF01959202|10.1007/BF01970171|10.1007/BF02269705|10.1007/BF02312888|10.1007/BF02858924|10.1007/BF02860163|10.1007/BF02860485|10.1007/BF02866639|10.1007/BF02901380|10.1007/BF02985250|10.1007/S004030050433|10.1007/S10600-009-9210-8|10.1007/S10886-013-0311-2|10.1007/S11418-006-0039-1|10.1007/S11418-007-0175-2|10.1007/S13765-012-1162-1|10.1016/0031-9422(74)85146-0|10.1016/0031-9422(75)85073-4|10.1016/0031-9422(75)85267-8|10.1016/0031-9422(75)85347-7|10.1016/0031-9422(82)80129-5|10.1016/0031-9422(82)80138-6|10.1016/0031-9422(82)83205-6|10.1016/0031-9422(82)85264-3|10.1016/0031-9422(83)85029-8|10.1016/0031-9422(83)85052-3|10.1016/0031-9422(84)83045-9|10.1016/0031-9422(86)88017-7|10.1016/0031-9422(88)80099-2|10.1016/0031-9422(88)80124-9|10.1016/0031-9422(88)80444-8|10.1016/0031-9422(88)83085-1|10.1016/0031-9422(90)80178-J|10.1016/0031-9422(90)85066-O|10.1016/0031-9422(90)85103-M|10.1016/0031-9422(90)85109-S|10.1016/0031-9422(90)85269-L|10.1016/0031-9422(90)85270-P|10.1016/0031-9422(90)85421-B|10.1016/0031-9422(91)83064-R|10.1016/0031-9422(91)83632-U|10.1016/0031-9422(92)80396-V|10.1016/0031-9422(92)83136-M|10.1016/0031-9422(93)85031-L|10.1016/0031-9422(93)85098-C|10.1016/0031-9422(93)85157-M|10.1016/0031-9422(93)85408-J|10.1016/0031-9422(94)00332-N|10.1016/0031-9422(95)00183-8|10.1016/0031-9422(95)00328-5|10.1016/0031-9422(95)00347-A|10.1016/0031-9422(95)00492-P|10.1016/0031-9422(95)00522-9|10.1016/0031-9422(95)00601-X|10.1016/0031-9422(95)00801-2|10.1016/0031-9422(95)00947-7|10.1016/0031-9422(96)00119-7|10.1016/0278-6915(94)90200-3|10.1016/0305-1978(82)90045-X|10.1016/0305-1978(85)90081-X|10.1016/0305-1978(86)90043-8|10.1016/0305-1978(86)90078-5|10.1016/0305-1978(87)90058-5|10.1016/0305-1978(88)90075-0|10.1016/0305-1978(88)90083-X|10.1016/0305-1978(89)90100-2|10.1016/0305-1978(91)90079-F|10.1016/0305-1978(92)90070-T|10.1016/0305-1978(93)90029-Q|10.1016/0305-1978(93)90031-L|10.1016/0305-1978(93)90070-8|10.1016/0305-1978(94)90116-3|10.1016/0305-1978(95)00026-Q|10.1016/0305-1978(95)00033-Q|10.1016/0305-1978(95)00094-1|10.1016/0305-1978(96)00023-3|10.1016/0378-8741(83)90056-9|10.1016/0378-8741(84)90057-6|10.1016/0378-8741(86)90105-4|10.1016/0378-8741(89)90036-6|10.1016/0378-8741(91)90062-I|10.1016/0378-8741(91)90063-J|10.1016/0378-8741(91)90187-I|10.1016/J.APJTM.2016.06.009|10.1016/J.ARABJC.2010.11.006|10.1016/J.ARABJC.2013.09.013|10.1016/J.BSE.2003.12.009|10.1016/J.BSE.2020.104004|10.1016/J.CHROMA.2014.10.058|10.1016/J.FITOTE.2003.07.007|10.1016/J.FITOTE.2004.05.009|10.1016/J.FOODRES.2018.12.054|10.1016/J.IJFOODMICRO.2008.10.017|10.1016/J.PHYMED.2004.04.006|10.1016/J.PHYMED.2007.03.013|10.1016/J.PHYMED.2011.12.003|10.1016/J.PHYTOCHEM.2004.03.019|10.1016/J.PHYTOCHEM.2005.01.007|10.1016/J.PHYTOCHEM.2005.07.001|10.1016/J.PHYTOCHEM.2006.04.025|10.1016/J.PHYTOCHEM.2006.05.038|10.1016/J.PHYTOCHEM.2006.12.009|10.1016/J.PHYTOCHEM.2007.04.027|10.1016/J.PHYTOCHEM.2008.03.005|10.1016/J.PHYTOCHEM.2009.03.012|10.1016/J.PHYTOCHEM.2009.06.013|10.1016/J.PHYTOCHEM.2009.07.031|10.1016/J.PHYTOCHEM.2011.09.002|10.1016/J.PHYTOCHEM.2019.112249|10.1016/J.TALANTA.2008.07.061|10.1016/S0021-9673(00)00231-4|10.1016/S0021-9673(01)82096-3|10.1016/S0021-9673(01)89448-6|10.1016/S0021-9673(01)95036-8|10.1016/S0031-9422(00)80081-3|10.1016/S0031-9422(00)80268-X|10.1016/S0031-9422(00)80325-8|10.1016/S0031-9422(00)80441-0|10.1016/S0031-9422(00)80558-0|10.1016/S0031-9422(00)80682-2|10.1016/S0031-9422(00)80745-1|10.1016/S0031-9422(00)80814-6|10.1016/S0031-9422(00)81063-8|10.1016/S0031-9422(00)81225-X|10.1016/S0031-9422(00)81276-5|10.1016/S0031-9422(00)81284-4|10.1016/S0031-9422(00)81741-0|10.1016/S0031-9422(00)82268-2|10.1016/S0031-9422(00)83061-7|10.1016/S0031-9422(00)83062-9|10.1016/S0031-9422(00)84581-1|10.1016/S0031-9422(00)84596-3|10.1016/S0031-9422(00)84709-3|10.1016/S0031-9422(00)84802-5|10.1016/S0031-9422(00)84946-8|10.1016/S0031-9422(00)85326-1|10.1016/S0031-9422(00)85772-6|10.1016/S0031-9422(00)86318-9|10.1016/S0031-9422(00)86412-2|10.1016/S0031-9422(00)86634-0|10.1016/S0031-9422(00)86727-8|10.1016/S0031-9422(00)88048-6|10.1016/S0031-9422(00)89650-8|10.1016/S0031-9422(00)90341-8|10.1016/S0031-9422(00)90514-4|10.1016/S0031-9422(00)94183-9|10.1016/S0031-9422(00)94539-4|10.1016/S0031-9422(00)94756-3|10.1016/S0031-9422(00)94990-2|10.1016/S0031-9422(00)97295-9|10.1016/S0031-9422(00)97781-1|10.1016/S0031-9422(02)00004-3|10.1016/S0031-9422(02)00477-6|10.1016/S0031-9422(02)00542-3|10.1016/S0031-9422(96)00559-6|10.1016/S0031-9422(96)00691-7|10.1016/S0031-9422(96)00726-1|10.1016/S0031-9422(97)00117-9|10.1016/S0031-9422(97)00141-6|10.1016/S0031-9422(97)00324-5|10.1016/S0031-9422(97)00762-0|10.1016/S0031-9422(97)00795-4|10.1016/S0031-9422(97)00828-5|10.1016/S0031-9422(98)00022-3|10.1016/S0031-9422(98)00105-8|10.1016/S0031-9422(98)00189-7|10.1016/S0031-9422(99)00050-3|10.1016/S0031-9422(99)00346-5|10.1016/S0040-4039(01)85855-X|10.1016/S0305-1978(00)00103-4|10.1016/S0305-1978(01)00032-1|10.1016/S0305-1978(03)00039-5|10.1016/S0315-5463(77)73504-7|10.1016/S0367-326X(00)00154-4|10.1016/S0367-326X(01)00327-6|10.1016/S0367-326X(01)00367-7|10.1016/S0367-326X(03)00195-3|10.1016/S0367-326X(98)00002-1|10.1016/S0367-326X(98)00020-3|10.1016/S0378-8741(00)00214-2|10.1016/S0378-8741(01)00211-2|10.1016/S0378-8741(01)00238-0|10.1016/S0378-8741(99)00072-0|10.1016/S0378-8741(99)00209-3|10.1016/S0926-6690(03)00076-1|10.1016/S0944-7113(11)80031-0|10.1016/S0944-7113(98)80048-2|10.1016/j.arabjc.2013.09.013|10.1016/j.lwt.2023.115213|10.1016/j.phytochem.2019.112249|10.1021/JA01150A128|10.1021/JF00019A020|10.1021/JF00023A054|10.1021/JF00025A025|10.1021/JF00029A021|10.1021/JF00034A020|10.1021/JF00034A033|10.1021/JF00035A029|10.1021/JF00039A035|10.1021/JF00046A030|10.1021/JF00047A021|10.1021/JF00056A055|10.1021/JF00062A024|10.1021/JF00063A015|10.1021/JF00064A020|10.1021/JF00065A004|10.1021/JF00067A018|10.1021/JF00069A028|10.1021/JF00071A004|10.1021/JF00071A013|10.1021/JF00073A015|10.1021/JF00083A001|10.1021/JF00087A036|10.1021/JF00091A025|10.1021/JF00091A049|10.1021/JF00094A032|10.1021/JF00097A027|10.1021/JF00098A007|10.1021/JF00100A013|10.1021/JF00104A026|10.1021/JF00112A045|10.1021/JF00116A075|10.1021/JF00125A044|10.1021/JF0116303|10.1021/JF072173E|10.1021/JF60160A012|10.1021/JF60198A031|10.1021/JF60199A051|10.1021/JF60200A011|10.1021/JF60201A021|10.1021/JF60206A038|10.1021/JF60210A021|10.1021/JF60217A066|10.1021/JF60218A022|10.1021/JF60218A031|10.1021/JF60218A053|10.1021/JF60223A016|10.1021/JF60224A025|10.1021/JF60230A021|10.1021/JF60232A044|10.1021/JF950540T|10.1021/JF950577D|10.1021/JF950653C|10.1021/JF970031M|10.1021/JF970110Y|10.1021/JF9702149|10.1021/JF9708296|10.1021/JF9800559|10.1021/JF980108M|10.1021/JF990514L|10.1021/JF9911850|10.1021/JO00200A028|10.1021/JO01159A001|10.1021/JO01168A011|10.1021/JO01199A001|10.1021/JO040272A|10.1021/NP0206007|10.1021/NP030475E|10.1021/NP0504863|10.1021/NP50006A014|10.1021/NP50008A001|10.1021/NP50009A015|10.1021/NP50017A018|10.1021/NP50017A019|10.1021/NP50018A028|10.1021/NP50027A022|10.1021/NP50028A031|10.1021/NP50033A002|10.1021/NP50033A020|10.1021/NP50034A039|10.1021/NP50034A044|10.1021/NP50035A028|10.1021/NP50035A036|10.1021/NP50035A037|10.1021/NP50038A026|10.1021/NP50039A032|10.1021/NP50040A037|10.1021/NP50041A034|10.1021/NP50041A038|10.1021/NP50042A025|10.1021/NP50043A034|10.1021/NP50044A039|10.1021/NP50045A046|10.1021/NP50046A033|10.1021/NP50046A035|10.1021/NP50046A047|10.1021/NP50047A038|10.1021/NP50048A037|10.1021/NP50048A039|10.1021/NP50050A038|10.1021/NP50050A051|10.1021/NP50051A035|10.1021/NP50052A041|10.1021/NP50053A047|10.1021/NP50062A008|10.1021/NP50094A002|10.1021/acs.est.7b02240|10.1021/np0206007|10.1021/np50017a018|10.1023/B:CONC.0000025459.72590.9E|10.1039/CT9140502613|10.1055/S-0028-1097363|10.1055/S-0028-1097609|10.1055/S-0028-1097637|10.1055/S-0028-1097719|10.1055/S-0028-1097777|10.1055/S-0028-1097798|10.1055/S-0028-1097962|10.1055/S-0028-1097977|10.1055/S-0028-1099434|10.1055/S-0028-1099455|10.1055/S-0028-1099968|10.1055/S-0028-1100058|10.1055/S-0028-1100131|10.1055/S-0029-1243136|10.1055/S-2000-10685|10.1055/S-2000-8631|10.1055/S-2000-9773|10.1055/S-2001-12001|10.1055/S-2001-18363|10.1055/S-2002-32557|10.1055/S-2003-37024|10.1055/S-2003-37032|10.1055/S-2003-39695|10.1055/S-2006-957378|10.1055/S-2006-957433|10.1055/S-2006-957488|10.1055/S-2006-957489|10.1055/S-2006-957641|10.1055/S-2006-957707|10.1055/S-2006-957814|10.1055/S-2006-957911|10.1055/S-2006-957914|10.1055/S-2006-959379|10.1055/S-2006-959474|10.1055/S-2006-959542|10.1055/S-2006-959548|10.1055/S-2006-959580|10.1055/S-2006-959581|10.1055/S-2006-959673|10.1055/S-2006-959674|10.1055/S-2006-959714|10.1055/S-2006-959755|10.1055/S-2006-959993|10.1055/S-2006-960024|10.1055/S-2006-960033|10.1055/S-2006-960034|10.1055/S-2006-960081|10.1055/S-2006-960096|10.1055/S-2006-960123|10.1055/S-2006-960128|10.1055/S-2006-960832|10.1055/S-2006-960931|10.1055/S-2006-960936|10.1055/S-2006-960939|10.1055/S-2006-961434|10.1055/S-2006-961452|10.1055/S-2006-961490|10.1055/S-2006-961701|10.1055/S-2006-962016|10.1055/S-2006-962018|10.1055/S-2006-962450|10.1055/S-2006-962451|10.1055/S-2006-962452|10.1055/S-2006-962540|10.1055/S-2006-962640|10.1055/S-2006-962688|10.1055/S-2006-962701|10.1055/S-2006-962745|10.1055/S-2006-962781|10.1055/S-2007-969160|10.1055/S-2007-969171|10.1055/S-2007-969172|10.1055/S-2007-969187|10.1055/S-2007-969442|10.1055/S-2007-969599|10.1055/S-2007-969621|10.1055/S-2007-969862|10.1055/S-2007-969883|10.1055/S-2007-969897|10.1055/S-2007-969948|10.1055/S-2007-970006|10.1055/S-2008-1074841|10.1071/CH9600367|10.1071/bt9810605|10.1071/bt9880119|10.1073/PNAS.93.18.9966|10.1076/PHBI.35.1.66.13267|10.1076/PHBI.35.3.218.13295|10.1076/PHBI.39.5.388.5894|10.1080/00359194709518945|10.1080/00387018508062249|10.1080/0972060X.2005.10643413|10.1080/0972060X.2007.10643581|10.1080/0972060X.2013.813219|10.1080/10286020802514622|10.1080/10412905.1989.9697754|10.1080/10412905.1989.9697769|10.1080/10412905.1989.9697786|10.1080/10412905.1989.9697797|10.1080/10412905.1989.9697802|10.1080/10412905.1989.9699438|10.1080/10412905.1989.9699439|10.1080/10412905.1990.9697808|10.1080/10412905.1990.9697824|10.1080/10412905.1990.9697825|10.1080/10412905.1990.9697829|10.1080/10412905.1990.9697830|10.1080/10412905.1990.9697840|10.1080/10412905.1990.9697845|10.1080/10412905.1990.9697847|10.1080/10412905.1990.9697854|10.1080/10412905.1990.9697857|10.1080/10412905.1990.9697864|10.1080/10412905.1990.9697877|10.1080/10412905.1990.9697878|10.1080/10412905.1991.9697898|10.1080/10412905.1991.9697900|10.1080/10412905.1991.9697905|10.1080/10412905.1991.9697906|10.1080/10412905.1991.9697907|10.1080/10412905.1991.9697921|10.1080/10412905.1991.9697923|10.1080/10412905.1991.9697930|10.1080/10412905.1991.9697932|10.1080/10412905.1991.9697936|10.1080/10412905.1991.9697950|10.1080/10412905.1991.9697952|10.1080/10412905.1991.9697953|10.1080/10412905.1991.9697958|10.1080/10412905.1991.9697959|10.1080/10412905.1991.9697971|10.1080/10412905.1991.9697980|10.1080/10412905.1991.9697982|10.1080/10412905.1991.9697985|10.1080/10412905.1991.9697990|10.1080/10412905.1991.9697991|10.1080/10412905.1991.9697994|10.1080/10412905.1991.9700498|10.1080/10412905.1992.9698015|10.1080/10412905.1992.9698016|10.1080/10412905.1992.9698019|10.1080/10412905.1992.9698020|10.1080/10412905.1992.9698032|10.1080/10412905.1992.9698034|10.1080/10412905.1992.9698035|10.1080/10412905.1992.9698043|10.1080/10412905.1992.9698054|10.1080/10412905.1992.9698059|10.1080/10412905.1992.9698061|10.1080/10412905.1992.9698062|10.1080/10412905.1992.9698065|10.1080/10412905.1992.9698066|10.1080/10412905.1992.9698067|10.1080/10412905.1992.9698069|10.1080/10412905.1992.9698070|10.1080/10412905.1992.9698072|10.1080/10412905.1992.9698079|10.1080/10412905.1992.9698083|10.1080/10412905.1992.9698084|10.1080/10412905.1992.9698086|10.1080/10412905.1992.9698087|10.1080/10412905.1992.9698088|10.1080/10412905.1992.9698091|10.1080/10412905.1992.9698095|10.1080/10412905.1992.9698109|10.1080/10412905.1992.9698110|10.1080/10412905.1992.9698111|10.1080/10412905.1992.9698115|10.1080/10412905.1992.9698125|10.1080/10412905.1992.9698129|10.1080/10412905.1992.9698130|10.1080/10412905.1992.9698137|10.1080/10412905.1992.9698138|10.1080/10412905.1992.9698144|10.1080/10412905.1992.9698149|10.1080/10412905.1992.9698155|10.1080/10412905.1993.9698162|10.1080/10412905.1993.9698164|10.1080/10412905.1993.9698169|10.1080/10412905.1993.9698170|10.1080/10412905.1993.9698174|10.1080/10412905.1993.9698176|10.1080/10412905.1993.9698177|10.1080/10412905.1993.9698178|10.1080/10412905.1993.9698179|10.1080/10412905.1993.9698181|10.1080/10412905.1993.9698184|10.1080/10412905.1993.9698189|10.1080/10412905.1993.9698191|10.1080/10412905.1993.9698205|10.1080/10412905.1993.9698206|10.1080/10412905.1993.9698207|10.1080/10412905.1993.9698209|10.1080/10412905.1993.9698214|10.1080/10412905.1993.9698215|10.1080/10412905.1993.9698216|10.1080/10412905.1993.9698218|10.1080/10412905.1993.9698222|10.1080/10412905.1993.9698230|10.1080/10412905.1993.9698231|10.1080/10412905.1993.9698232|10.1080/10412905.1993.9698235|10.1080/10412905.1993.9698237|10.1080/10412905.1993.9698244|10.1080/10412905.1993.9698248|10.1080/10412905.1993.9698250|10.1080/10412905.1993.9698253|10.1080/10412905.1993.9698254|10.1080/10412905.1993.9698255|10.1080/10412905.1993.9698256|10.1080/10412905.1993.9698258|10.1080/10412905.1993.9698260|10.1080/10412905.1993.9698261|10.1080/10412905.1993.9698275|10.1080/10412905.1993.9698276|10.1080/10412905.1993.9698277|10.1080/10412905.1993.9698303|10.1080/10412905.1993.9698309|10.1080/10412905.1994.9698320|10.1080/10412905.1994.9698327|10.1080/10412905.1994.9698330|10.1080/10412905.1994.9698332|10.1080/10412905.1994.9698333|10.1080/10412905.1994.9698334|10.1080/10412905.1994.9698337|10.1080/10412905.1994.9698359|10.1080/10412905.1994.9698380|10.1080/10412905.1994.9698382|10.1080/10412905.1994.9698394|10.1080/10412905.1994.9698395|10.1080/10412905.1994.9698396|10.1080/10412905.1994.9698400|10.1080/10412905.1994.9698401|10.1080/10412905.1994.9698402|10.1080/10412905.1994.9698404|10.1080/10412905.1994.9698405|10.1080/10412905.1994.9698406|10.1080/10412905.1994.9698408|10.1080/10412905.1994.9698409|10.1080/10412905.1994.9698412|10.1080/10412905.1994.9698417|10.1080/10412905.1994.9698418|10.1080/10412905.1994.9698427|10.1080/10412905.1994.9698428|10.1080/10412905.1994.9698433|10.1080/10412905.1994.9698442|10.1080/10412905.1994.9698443|10.1080/10412905.1994.9698444|10.1080/10412905.1994.9698446|10.1080/10412905.1994.9698447|10.1080/10412905.1994.9698448|10.1080/10412905.1994.9698449|10.1080/10412905.1994.9699347|10.1080/10412905.1994.9699348|10.1080/10412905.1994.9699354|10.1080/10412905.1994.9699355|10.1080/10412905.1994.9699356|10.1080/10412905.1994.9699357|10.1080/10412905.1994.9699358|10.1080/10412905.1994.9699365|10.1080/10412905.1994.9699366|10.1080/10412905.1995.9698468|10.1080/10412905.1995.9698470|10.1080/10412905.1995.9698472|10.1080/10412905.1995.9698473|10.1080/10412905.1995.9698478|10.1080/10412905.1995.9698479|10.1080/10412905.1995.9698496|10.1080/10412905.1995.9698499|10.1080/10412905.1995.9698501|10.1080/10412905.1995.9698503|10.1080/10412905.1995.9698505|10.1080/10412905.1995.9698506|10.1080/10412905.1995.9698507|10.1080/10412905.1995.9698508|10.1080/10412905.1995.9698515|10.1080/10412905.1995.9698516|10.1080/10412905.1995.9698520|10.1080/10412905.1995.9698522|10.1080/10412905.1995.9698524|10.1080/10412905.1995.9698528|10.1080/10412905.1995.9698530|10.1080/10412905.1995.9698531|10.1080/10412905.1995.9698532|10.1080/10412905.1995.9698553|10.1080/10412905.1995.9698555|10.1080/10412905.1995.9698558|10.1080/10412905.1995.9698575|10.1080/10412905.1995.9698577|10.1080/10412905.1995.9698581|10.1080/10412905.1995.9698587|10.1080/10412905.1995.9698591|10.1080/10412905.1995.9700518|10.1080/10412905.1995.9700519|10.1080/10412905.1995.9700523|10.1080/10412905.1995.9700529|10.1080/10412905.1995.9700530|10.1080/10412905.1995.9700531|10.1080/10412905.1995.9700537|10.1080/10412905.1996.9700547|10.1080/10412905.1996.9700554|10.1080/10412905.1996.9700555|10.1080/10412905.1996.9700557|10.1080/10412905.1996.9700558|10.1080/10412905.1996.9700559|10.1080/10412905.1996.9700560|10.1080/10412905.1996.9700562|10.1080/10412905.1996.9700565|10.1080/10412905.1996.9700567|10.1080/10412905.1996.9700568|10.1080/10412905.1996.9701028|10.1080/10412905.1996.9701048|10.1080/10412905.1997.9699459|10.1080/10412905.1997.9700708|10.1080/10412905.1997.9700709|10.1080/10412905.1997.9700711|10.1080/10412905.1997.9700721|10.1080/10412905.1997.9700725|10.1080/10412905.1997.9700727|10.1080/10412905.1997.9700728|10.1080/10412905.1997.9700731|10.1080/10412905.1997.9700773|10.1080/10412905.1997.9700774|10.1080/10412905.1997.9700778|10.1080/10412905.1997.9700785|10.1080/10412905.1997.9700799|10.1080/10412905.1997.9700820|10.1080/10412905.1998.9700844|10.1080/10412905.1998.9700853|10.1080/10412905.1998.9700906|10.1080/10412905.1998.9700913|10.1080/10412905.1998.9700917|10.1080/10412905.1998.9700918|10.1080/10412905.1998.9700992|10.1080/10412905.1998.9701001|10.1080/10412905.1998.9701003|10.1080/10412905.1998.9701010|10.1080/10412905.1998.9701015|10.1080/10412905.1999.9701056|10.1080/10412905.1999.9701080|10.1080/10412905.1999.9701111|10.1080/10412905.1999.9701113|10.1080/10412905.1999.9701114|10.1080/10412905.1999.9701122|10.1080/10412905.1999.9701147|10.1080/10412905.1999.9701150|10.1080/10412905.1999.9701151|10.1080/10412905.1999.9701154|10.1080/10412905.1999.9701161|10.1080/10412905.1999.9701183|10.1080/10412905.2000.9699486|10.1080/10412905.2000.9699527|10.1080/10412905.2000.9699552|10.1080/10412905.2000.9699569|10.1080/10412905.2000.9712058|10.1080/10412905.2000.9712152|10.1080/10412905.2000.9712163|10.1080/10412905.2000.9712167|10.1080/10412905.2000.9712204|10.1080/10412905.2000.9712210|10.1080/10412905.2000.9712211|10.1080/10412905.2001.9699608|10.1080/10412905.2001.9699620|10.1080/10412905.2002.9699826|10.1080/10412905.2002.9699844|10.1080/10412905.2002.9699852|10.1080/10412905.2002.9699883|10.1080/10412905.2004.9698641|10.1080/10412905.2004.9698688|10.1080/10412905.2004.9698740|10.1080/10412905.2004.9698744|10.1080/10412905.2005.9698829|10.1080/10412905.2007.9699946|10.1080/10412905.2008.9699963|10.1080/10412905.2010.9700320|10.1080/10412905.2010.9700338|10.1080/10412905.2010.9700389|10.1080/10412905.2012.747271|10.1080/10412905.2018.1431966|10.1080/10942912.2016.1155057|10.1080/14620316.1988.11515884|10.1080/14786410701848154|10.1080/17429140600968177|10.1093/JAOAC/83.3.621|10.1094/ASBCJ-59-0222|10.1094/ASBCJ-60-0204|10.1104/PP.104.044388|10.1111/J.1095-8339.1986.TB01826.X|10.1111/J.1365-2621.1985.TB10476.X|10.1111/J.1365-2621.1985.TB13419.X|10.1111/J.1365-313X.2005.02417.X|10.1111/J.1432-1033.1988.TB13741.X|10.1111/J.1600-0536.1991.TB01726.X|10.1128/AEM.64.9.3546-3546.1998|10.1128/aem.62.4.1295-1299.1996|10.1135/CCCC19582188|10.1135/CCCC19601656|10.1135/CCCC19611362|10.1135/CCCC19661113|10.1135/CCCC19832411|10.1135/CCCC19862884|10.1135/CCCC19912969|10.1139/CJR50B-035|10.1139/V53-027|10.1139/V53-039|10.1163/1574-9347_BNP_E123430|10.1163/1574-9347_DNP_E123430|10.1163/1574-9347_DNP_E832720|10.1177/1934578X1100600135|10.1186/1472-6882-6-39|10.1246/BCSJ.42.3026|10.1248/BPB.23.1314|10.1248/CPB.52.764|10.1248/CPB.52.861|10.1248/CPB.53.1484|10.1248/CPB.54.222|10.1248/CPB.54.725|10.1248/CPB.54.936|10.1248/YAKUSHI1947.106.1_17|10.1271/BBB.57.591|10.1271/BBB.70.958|10.1271/BBB1961.47.1841|10.1271/BBB1961.48.2843|10.1271/BBB1961.50.1863|10.1271/BBB1961.52.2961|10.1271/BBB1961.55.1655|10.1271/BBB1961.55.2571|10.1271/NOGEIKAGAKU1924.67.1417|10.1365/S10337-008-0921-Y|10.1515/ZNB-1992-0324|10.1515/ZNC-1984-7-802|10.1515/ZNC-1984-7-803|10.1515/ZNC-1988-5-604|10.1515/ZNC-1988-5-608|10.1515/ZNC-1990-9-1023|10.1515/ZNC-2003-9-1004|10.1515/ZNC-2006-7-801|10.1590/S0100-40422009000200028|10.1590/S0102-695X2005000300006|10.1590/S0103-50532010000500012|10.1590/S0103-50532011000400018|10.1631/JZUS.B1200086|10.17660/ACTAHORTIC.2005.677.9|10.17660/ACTAHORTIC.2005.678.19|10.17678/BEUSCITECH.348447|10.21273/HORTSCI.25.5.556|10.2172/6984924|10.2307/2423424|10.2307/3242952|10.2307/4114957|10.23893/1307-2080.APS.05611|10.2478/V10007-009-0022-Y|10.2503/JJSHS.53.141|10.3109/13880208209055190|10.3109/13880208409070665|10.3109/13880209.2014.1001405|10.3109/13880209109082875|10.3390/12030283|10.3390/12030389|10.3390/MOLECULES14082909|10.3390/MOLECULES14103868|10.3390/MOLECULES21060814|10.3390/MOLECULES22030335|10.3390/MOLECULES24234244|10.3891/ACTA.CHEM.SCAND.21-0945|10.3891/ACTA.CHEM.SCAND.21-2076|10.4268/CJCMM20111319|10.4268/CJCMM20142423|10.4314/BCSE.V11I1.21012|10.4314/BCSE.V12I1.21037|10.5694/J.1326-5377.1998.TB126732.X|10.5897/JMPR10.078

>  <synonyms>  (989) 
|.BETA.-MYRCENE [MI]|.beta.-Geraniolene|1, 7-methyl-3-methylene-|1,6-Octadiene, 7-methyl-3-methylene-|123-35-3|2-Methyl-6-methylene-2,7-octadiene|29463-45-4|3-Methylene-7-methyl-1,6-octadiene|3M39CZS25B|4-01-00-01108 (Beilstein Handbook Reference)|7-Methyl-3-methylene-1,6-octadiene|7-Methyl-3-methylene-1,6-octadiene (myrcene)|7-Methyl-3-methyleneocta-1,6-diene|7-Methyl-3-methyleneoctadiene-(1,6)|?-MYRCENE|A805060|AI3-00738|AKOS015904015|B-Myrcene|BBL036906|BRN 1719990|C06074|CAS-123-35-3|CCRIS 3725|CHEBI:17221|CHEMBL455491|DTXCID205692|DTXSID6025692|E80785|EC 204-622-5|EINECS 204-622-5|EN300-187797|FEMA 2762|FEMA NUMBER 2762|FEMA No. 2762|HSDB 1258|HY-N0803|InChI=1\/C10H16\/c1-5-10(4)8-6-7-9(2)3\/h5,7H,1,4,6,8H2,2-3H|LMPR0102010005|M0235|MFCD00008908|MYRCENE [FCC]|MYRCENE [FHFI]|MYRCENE [HSDB]|MYRCENE [INCI]|Myrcene|Myrcene (natural)|Myrcene (stabilized with BHT)|Myrcene analytical standard|Myrcene, .beta.-|Myrcene, >=95%, stabilized, FCC, FG|Myrcene, primary pharmaceutical reference standard|Myrcene, technical grade|N6Q|NCGC00091420-01|NCGC00254252-01|NS00005804|NSC 406264|Q-201417|Q424577|STL477735|Tox21_300351|UNII-3M39CZS25B|VS-13772|WLN: 1Y1&U3YU1&1U1|_-myrcene|b-Geraniolene|b-Myrcene|b-Myrcene (>90%)|beta -myrcene|beta-MYRCENE (IARC)|beta-Myrcene|beta-Myrcene 1000 microg\/mL in Isopropanol|beta-geraniolene|myrcene

>  <cas>  (989) 
123-35-3|29463-45-4

$$$$

     RDKit          2D

 27 28  0  0  0  0  0  0  0  0999 V2000
    6.7802   -3.2949    0.0000 C   0  0  0  0  0  0  0  0  0  0  0  0
    7.1760   -1.8481    0.0000 O   0  0  0  0  0  0  0  0  0  0  0  0
    6.1209   -0.7819    0.0000 C   0  0  0  0  0  0  0  0  0  0  0  0
    4.6700   -1.1625    0.0000 C   0  0  0  0  0  0  0  0  0  0  0  0
    3.6150   -0.0963    0.0000 C   0  0  0  0  0  0  0  0  0  0  0  0
    2.1640   -0.4769    0.0000 C   0  0  0  0  0  0  0  0  0  0  0  0
    1.1090    0.5894    0.0000 C   0  0  0  0  0  0  0  0  0  0  0  0
    1.5048    2.0362    0.0000 C   0  0  0  0  0  0  0  0  0  0  0  0
    0.4497    3.1024    0.0000 O   0  0  0  0  0  0  0  0  0  0  0  0
   -0.3419    0.2087    0.0000 C   0  0  0  0  0  0  0  0  0  0  0  0
   -0.7378   -1.2381    0.0000 C   0  0  0  0  0  0  0  0  0  0  0  0
   -2.1887   -1.6187    0.0000 O   0  0  0  0  0  0  0  0  0  0  0  0
   -1.3970    1.2750    0.0000 C   0  0  0  0  0  0  0  0  0  0  0  0
   -2.8479    0.8944    0.0000 C   0  0  0  0  0  0  0  0  0  0  0  0
   -3.9030    1.9606    0.0000 C   0  0  0  0  0  0  0  0  0  0  0  0
   -5.3539    1.5800    0.0000 C   0  0  0  0  0  0  0  0  0  0  0  0
   -5.7497    0.1331    0.0000 C   0  0  0  0  0  0  0  0  0  0  0  0
   -7.2006   -0.2475    0.0000 O   0  0  0  0  0  0  0  0  0  0  0  0
   -8.2557    0.8188    0.0000 C   0  0  0  0  0  0  0  0  0  0  0  0
   -4.6947   -0.9331    0.0000 C   0  0  0  0  0  0  0  0  0  0  0  0
   -5.0905   -2.3799    0.0000 O   0  0  0  0  0  0  0  0  0  0  0  0
   -6.5414   -2.7605    0.0000 C   0  0  0  0  0  0  0  0  0  0  0  0
   -3.2438   -0.5525    0.0000 C   0  0  0  0  0  0  0  0  0  0  0  0
    4.0108    1.3506    0.0000 C   0  0  0  0  0  0  0  0  0  0  0  0
    5.4617    1.7312    0.0000 C   0  0  0  0  0  0  0  0  0  0  0  0
    6.5168    0.6650    0.0000 C   0  0  0  0  0  0  0  0  0  0  0  0
    7.9677    1.0456    0.0000 O   0  0  0  0  0  0  0  0  0  0  0  0
  1  2  1  0
  2  3  1  0
  3  4  2  0
  4  5  1  0
  5  6  1  0
  7  6  1  6
  7  8  1  0
  8  9  1  0
  7 10  1  0
 10 11  1  6
 11 12  1  0
 10 13  1  0
 13 14  1  0
 14 15  2  0
 15 16  1  0
 16 17  2  0
 17 18  1  0
 18 19  1  0
 17 20  1  0
 20 21  1  0
 21 22  1  0
 20 23  2  0
  5 24  2  0
 24 25  1  0
 25 26  2  0
 26 27  1  0
 26  3  1  0
 23 14  1  0
M  END
>  <identifier>  (990) 
CNP0216646.1

>  <canonical_smiles>  (990) 
COC1=CC(C[C@@H](CO)[C@H](CO)CC2=CC=C(OC)C(OC)=C2)=CC=C1O

>  <standard_inchi>  (990) 
InChI=1S/C21H28O6/c1-25-19-7-5-15(11-21(19)27-3)9-17(13-23)16(12-22)8-14-4-6-18(24)20(10-14)26-2/h4-7,10-11,16-17,22-24H,8-9,12-13H2,1-3H3/t16-,17-/m0/s1

>  <standard_inchi_key>  (990) 
QOOLUDONRDSQAX-IRXDYDNUSA-N

>  <name>  (990) 
(2R,3R)-2-[(3,4-dimethoxyphenyl)methyl]-3-[(4-hydroxy-3-methoxyphenyl)methyl]butane-1,4-diol

>  <iupac_name>  (990) 
(2~{R},3~{R})-2-[(3,4-dimethoxyphenyl)methyl]-3-[(4-hydroxy-3-methoxy-phenyl)methyl]butane-1,4-diol

>  <annotation_level>  (990) 
5

>  <total_atom_count>  (990) 
55

>  <heavy_atom_count>  (990) 
27

>  <molecular_weight>  (990) 
376.45

>  <exact_molecular_weight>  (990) 
376.18859

>  <molecular_formula>  (990) 
C21H28O6

>  <alogp>  (990) 
2.42

>  <topological_polar_surface_area>  (990) 
88.38

>  <rotatable_bond_count>  (990) 
10

>  <hydrogen_bond_acceptors>  (990) 
6

>  <hydrogen_bond_donors>  (990) 
3

>  <hydrogen_bond_acceptors_lipinski>  (990) 
6

>  <hydrogen_bond_donors_lipinski>  (990) 
3

>  <lipinski_rule_of_five_violations>  (990) 
0

>  <aromatic_rings_count>  (990) 
2

>  <qed_drug_likeliness>  (990) 
0.59

>  <formal_charge>  (990) 
0

>  <fractioncsp3>  (990) 
0.43

>  <number_of_minimal_rings>  (990) 
2

>  <van_der_walls_volume>  (990) 
nan

>  <contains_sugar>  (990) 
False

>  <contains_ring_sugars>  (990) 
False

>  <contains_linear_sugars>  (990) 
False

>  <murcko_framework>  (990) 
c1ccc(cc1)CCCCc2ccccc2

>  <np_likeness>  (990) 
0.71

>  <chemical_class>  (990) 
Dibenzylbutane lignans

>  <chemical_sub_class>  (990) 
Dibenzylbutane lignans

>  <chemical_super_class>  (990) 
Lignans, neolignans and related compounds

>  <direct_parent_classification>  (990) 
Dibenzylbutane lignans

>  <np_classifier_pathway>  (990) 
Shikimates and Phenylpropanoids

>  <np_classifier_superclass>  (990) 
Lignans

>  <np_classifier_class>  (990) 
Dibenzylbutane lignans

>  <np_classifier_is_glycoside>  (990) 
False

>  <organisms>  (990) 
Araucaria angustifolia

>  <collections>  (990) 
Latin America dataset|NuBBEDB|Super Natural II|WikiData Natural Products|ZINC NP

>  <dois>  (990) 
10.1016/0031-9422(79)80188-0

>  <synonyms>  (990) 
(2R,3R)-2-(4'-Hydroxy-3'-methoxybenzyl)-3-(3\"\",4\"\"-dimethoxybenzyl)-1,4-butanediol|(2R,3R)-2-[(3,4-dimethoxyphenyl)methyl]-3-[(4-hydroxy-3-methoxy-phenyl)methyl]butane-1,4-diol|CHEMBL172855|Secoisolariciresinol-4-methyl ether

>  <cas>  (990) 
nan

$$$$

     RDKit          2D

 43 45  0  0  0  0  0  0  0  0999 V2000
   -6.4151   -4.7333    0.0000 C   0  0  0  0  0  0  0  0  0  0  0  0
   -6.1797   -3.2519    0.0000 C   0  0  0  0  0  0  0  0  0  0  0  0
   -7.3449   -2.3073    0.0000 C   0  0  0  0  0  0  0  0  0  0  0  0
   -4.7790   -2.7151    0.0000 C   0  0  0  0  0  0  0  0  0  0  0  0
   -4.1682   -1.3451    0.0000 C   0  0  0  0  0  0  0  0  0  0  0  0
   -2.7982   -1.9559    0.0000 C   0  0  0  0  0  0  0  0  0  0  0  0
   -1.3975   -1.4191    0.0000 C   0  0  0  0  0  0  0  0  0  0  0  0
   -1.1621    0.0623    0.0000 C   0  0  0  0  0  0  0  0  0  0  0  0
   -2.6619    0.0369    0.0000 C   0  0  0  0  0  0  0  0  0  0  0  0
   -3.4337    1.3231    0.0000 C   0  0  0  0  0  0  0  0  0  0  0  0
   -4.9335    1.2977    0.0000 C   0  0  0  0  0  0  0  0  0  0  0  0
   -5.7054    2.5839    0.0000 C   0  0  0  0  0  0  0  0  0  0  0  0
   -5.6614   -0.0138    0.0000 C   0  0  0  0  0  0  0  0  0  0  0  0
    0.2559   -0.4268    0.0000 C   0  0  0  0  0  0  0  0  0  0  0  0
    0.5414   -1.8994    0.0000 O   0  0  0  0  0  0  0  0  0  0  0  0
    1.3885    0.5566    0.0000 C   0  0  0  0  0  0  0  0  0  0  0  0
    2.8065    0.0675    0.0000 C   0  0  0  0  0  0  0  0  0  0  0  0
    3.0920   -1.4051    0.0000 C   0  0  0  0  0  0  0  0  0  0  0  0
    4.5100   -1.8942    0.0000 C   0  0  0  0  0  0  0  0  0  0  0  0
    4.7954   -3.3668    0.0000 C   0  0  0  0  0  0  0  0  0  0  0  0
    6.2134   -3.8559    0.0000 C   0  0  0  0  0  0  0  0  0  0  0  0
    6.4988   -5.3285    0.0000 C   0  0  0  0  0  0  0  0  0  0  0  0
    7.9169   -5.8176    0.0000 C   0  0  0  0  0  0  0  0  0  0  0  0
    3.9391    1.0510    0.0000 C   0  0  0  0  0  0  0  0  0  0  0  0
    5.3571    0.5619    0.0000 C   0  0  0  0  0  0  0  0  0  0  0  0
    5.6426   -0.9107    0.0000 O   0  0  0  0  0  0  0  0  0  0  0  0
    6.4897    1.5454    0.0000 O   0  0  0  0  0  0  0  0  0  0  0  0
    7.9078    1.0563    0.0000 C   0  0  0  0  0  0  0  0  0  0  0  0
    1.1031    2.0292    0.0000 C   0  0  0  0  0  0  0  0  0  0  0  0
    2.2357    3.0127    0.0000 O   0  0  0  0  0  0  0  0  0  0  0  0
    1.9503    4.4853    0.0000 C   0  0  0  0  0  0  0  0  0  0  0  0
    3.0829    5.4688    0.0000 C   0  0  0  0  0  0  0  0  0  0  0  0
    0.5323    4.9744    0.0000 C   0  0  0  0  0  0  0  0  0  0  0  0
    0.2468    6.4470    0.0000 C   0  0  0  0  0  0  0  0  0  0  0  0
   -0.6003    3.9910    0.0000 C   0  0  0  0  0  0  0  0  0  0  0  0
   -2.0184    4.4801    0.0000 O   0  0  0  0  0  0  0  0  0  0  0  0
   -0.3149    2.5184    0.0000 C   0  0  0  0  0  0  0  0  0  0  0  0
   -1.4475    1.5349    0.0000 C   0  0  0  0  0  0  0  0  0  0  0  0
   -2.8655    2.0240    0.0000 O   0  0  0  0  0  0  0  0  0  0  0  0
   -3.1509    3.4966    0.0000 C   0  0  0  0  0  0  0  0  0  0  0  0
   -3.4090   -3.3259    0.0000 C   0  0  0  0  0  0  0  0  0  0  0  0
   -2.0390   -3.9368    0.0000 C   0  0  0  0  0  0  0  0  0  0  0  0
   -4.0199   -4.6959    0.0000 C   0  0  0  0  0  0  0  0  0  0  0  0
  1  2  2  0
  2  3  1  0
  2  4  1  0
  4  5  1  0
  5  6  1  0
  6  7  1  0
  7  8  1  0
  8  9  1  0
  9 10  1  0
 10 11  2  0
 11 12  1  0
 11 13  1  0
  8 14  1  0
 14 15  2  0
 14 16  1  0
 16 17  1  0
 17 18  1  0
 18 19  1  0
 19 20  1  0
 20 21  1  0
 21 22  1  0
 22 23  1  0
 17 24  1  0
 24 25  1  0
 25 26  2  0
 25 27  1  0
 27 28  1  0
 16 29  2  0
 29 30  1  0
 30 31  1  0
 31 32  1  1
 31 33  1  0
 33 34  1  6
 33 35  1  0
 35 36  2  0
 35 37  1  0
 37 38  2  0
 38 39  1  0
 39 40  1  0
  6 41  1  0
 41 42  1  0
 41 43  1  0
 41  4  1  0
 38  8  1  0
 37 29  1  0
M  END
>  <identifier>  (991) 
CNP0080355.1

>  <canonical_smiles>  (991) 
C=C(C)C1CC(CC2(CC=C(C)C)C(=O)C(C(CCCCCC)CC(=O)OC)=C3O[C@H](C)[C@@H](C)C(=O)C3=C2OC)C1(C)C

>  <standard_inchi>  (991) 
InChI=1S/C37H56O6/c1-12-13-14-15-16-26(19-29(38)41-10)30-33-31(32(39)24(6)25(7)43-33)35(42-11)37(34(30)40,18-17-22(2)3)21-27-20-28(23(4)5)36(27,8)9/h17,24-28H,4,12-16,18-21H2,1-3,5-11H3/t24-,25-,26?,27?,28?,37?/m1/s1

>  <standard_inchi_key>  (991) 
CHSVUHPQJDFPKU-KTZXMZFHSA-N

>  <name>  (991) 
nan

>  <iupac_name>  (991) 
methyl 3-[(2~{R},3~{R})-6-[(3-isopropenyl-2,2-dimethyl-cyclobutyl)methyl]-5-methoxy-2,3-dimethyl-6-(3-methylbut-2-enyl)-4,7-dioxo-2,3-dihydrochromen-8-yl]nonanoate

>  <annotation_level>  (991) 
4

>  <total_atom_count>  (991) 
99

>  <heavy_atom_count>  (991) 
43

>  <molecular_weight>  (991) 
596.85

>  <exact_molecular_weight>  (991) 
596.40769

>  <molecular_formula>  (991) 
C37H56O6

>  <alogp>  (991) 
8.47

>  <topological_polar_surface_area>  (991) 
78.90

>  <rotatable_bond_count>  (991) 
14

>  <hydrogen_bond_acceptors>  (991) 
6

>  <hydrogen_bond_donors>  (991) 
0

>  <hydrogen_bond_acceptors_lipinski>  (991) 
6

>  <hydrogen_bond_donors_lipinski>  (991) 
0

>  <lipinski_rule_of_five_violations>  (991) 
2

>  <aromatic_rings_count>  (991) 
0

>  <qed_drug_likeliness>  (991) 
0.11

>  <formal_charge>  (991) 
0

>  <fractioncsp3>  (991) 
0.70

>  <number_of_minimal_rings>  (991) 
3

>  <van_der_walls_volume>  (991) 
nan

>  <contains_sugar>  (991) 
False

>  <contains_ring_sugars>  (991) 
False

>  <contains_linear_sugars>  (991) 
False

>  <murcko_framework>  (991) 
O1C2=CCC(C=C2CCC1)CC3CCC3

>  <np_likeness>  (991) 
2.28

>  <chemical_class>  (991) 
Fatty Acyls

>  <chemical_sub_class>  (991) 
Fatty acid esters

>  <chemical_super_class>  (991) 
Lipids and lipid-like molecules

>  <direct_parent_classification>  (991) 
Fatty acid methyl esters

>  <np_classifier_pathway>  (991) 
Polyketides

>  <np_classifier_superclass>  (991) 
Meroterpenoids

>  <np_classifier_class>  (991) 
Polyprenylated cyclic polyketides (Hop meroterpenoids)

>  <np_classifier_is_glycoside>  (991) 
False

>  <organisms>  (991) 
Calophyllum brasiliense

>  <collections>  (991) 
Latin America dataset|NuBBEDB|WikiData Natural Products

>  <dois>  (991) 
10.1080/14786410701582282

>  <synonyms>  (991) 
6-O-methyl caloverticillic acid methyl ester

>  <cas>  (991) 
nan

$$$$

     RDKit          2D

 34 38  0  0  0  0  0  0  0  0999 V2000
   -3.0313   -3.2035    0.0000 C   0  0  0  0  0  0  0  0  0  0  0  0
   -3.8183   -1.9265    0.0000 C   0  0  0  0  0  0  0  0  0  0  0  0
   -5.3176   -1.9696    0.0000 C   0  0  0  0  0  0  0  0  0  0  0  0
   -6.0300   -3.2897    0.0000 C   0  0  0  0  0  0  0  0  0  0  0  0
   -6.1047   -0.6927    0.0000 C   0  0  0  0  0  0  0  0  0  0  0  0
   -5.3923    0.6274    0.0000 C   0  0  0  0  0  0  0  0  0  0  0  0
   -3.8929    0.6705    0.0000 C   0  0  0  0  0  0  0  0  0  0  0  0
   -4.6799    1.9474    0.0000 C   0  0  0  0  0  0  0  0  0  0  0  0
   -6.1793    1.9043    0.0000 O   0  0  0  0  0  0  0  0  0  0  0  0
   -3.9675    3.2675    0.0000 O   0  0  0  0  0  0  0  0  0  0  0  0
   -3.1805    1.9905    0.0000 C   0  0  0  0  0  0  0  0  0  0  0  0
   -1.6811    2.0336    0.0000 C   0  0  0  0  0  0  0  0  0  0  0  0
   -0.8941    0.7566    0.0000 C   0  0  0  0  0  0  0  0  0  0  0  0
   -0.1071   -0.5203    0.0000 C   0  0  0  0  0  0  0  0  0  0  0  0
   -1.6065   -0.5634    0.0000 C   0  0  0  0  0  0  0  0  0  0  0  0
   -0.8195   -1.8404    0.0000 C   0  0  0  0  0  0  0  0  0  0  0  0
    0.6799   -1.7973    0.0000 C   0  0  0  0  0  0  0  0  0  0  0  0
    1.3923   -0.4772    0.0000 C   0  0  0  0  0  0  0  0  0  0  0  0
    2.8916   -0.4341    0.0000 C   0  0  0  0  0  0  0  0  0  0  0  0
    2.1793   -1.7542    0.0000 C   0  0  0  0  0  0  0  0  0  0  0  0
    3.6786   -1.7111    0.0000 C   0  0  0  0  0  0  0  0  0  0  0  0
    5.1780   -1.6680    0.0000 C   0  0  0  0  0  0  0  0  0  0  0  0
    5.9650   -2.9450    0.0000 O   0  0  0  0  0  0  0  0  0  0  0  0
    5.8904   -0.3479    0.0000 C   0  0  0  0  0  0  0  0  0  0  0  0
    7.3898   -0.3049    0.0000 O   0  0  0  0  0  0  0  0  0  0  0  0
    5.1034    0.9290    0.0000 C   0  0  0  0  0  0  0  0  0  0  0  0
    4.8006    2.3981    0.0000 C   0  0  0  0  0  0  0  0  0  0  0  0
    6.4976    1.4823    0.0000 C   0  0  0  0  0  0  0  0  0  0  0  0
    3.6040    0.8859    0.0000 C   0  0  0  0  0  0  0  0  0  0  0  0
    2.8170    2.1629    0.0000 C   0  0  0  0  0  0  0  0  0  0  0  0
    1.3176    2.1198    0.0000 C   0  0  0  0  0  0  0  0  0  0  0  0
    0.6052    0.7997    0.0000 C   0  0  0  0  0  0  0  0  0  0  0  0
   -0.1818    2.0767    0.0000 C   0  0  0  0  0  0  0  0  0  0  0  0
   -3.1059   -0.6065    0.0000 C   0  0  0  0  0  0  0  0  0  0  0  0
  2  1  1  1
  2  3  1  0
  3  4  1  6
  3  5  1  0
  5  6  1  0
  6  7  1  0
  7  8  1  1
  8  9  2  0
  8 10  1  0
  7 11  1  0
 11 12  1  0
 12 13  1  0
 13 14  1  6
 13 15  1  0
 15 16  2  0
 16 17  1  0
 18 17  1  1
 18 19  1  0
 19 20  1  1
 19 21  1  0
 21 22  1  0
 22 23  1  1
 22 24  1  0
 24 25  1  1
 24 26  1  0
 26 27  1  0
 26 28  1  0
 26 29  1  0
 29 30  1  1
 30 31  1  0
 31 32  1  0
 32 33  1  1
 34 15  1  6
 34  2  1  0
 34  7  1  0
 32 13  1  0
 32 18  1  0
 29 19  1  0
M  END
>  <identifier>  (992) 
CNP0215187.2

>  <canonical_smiles>  (992) 
C[C@H]1[C@H](C)CC[C@]2(C(=O)O)CC[C@]3(C)C(=CC[C@@H]4[C@@]5(C)C[C@H](O)[C@H](O)C(C)(C)[C@@H]5CC[C@]43C)[C@H]12

>  <standard_inchi>  (992) 
InChI=1S/C30H48O4/c1-17-10-13-30(25(33)34)15-14-28(6)19(23(30)18(17)2)8-9-22-27(5)16-20(31)24(32)26(3,4)21(27)11-12-29(22,28)7/h8,17-18,20-24,31-32H,9-16H2,1-7H3,(H,33,34)/t17-,18+,20+,21+,22-,23+,24+,27+,28-,29-,30+/m1/s1

>  <standard_inchi_key>  (992) 
HFGSQOYIOKBQOW-XOYVNYDSSA-N

>  <name>  (992) 
2beta-hydroxyursolic acid

>  <iupac_name>  (992) 
(1~{S},2~{R},4~{a}~{S},6~{a}~{R},6~{a}~{S},6~{b}~{R},8~{a}~{R},10~{R},11~{S},12~{a}~{R},14~{b}~{S})-10,11-dihydroxy-1,2,6~{a},6~{b},9,9,12~{a}-heptamethyl-2,3,4,5,6,6~{a},7,8,8~{a},10,11,12,13,14~{b}-tetradecahydro-1~{H}-picene-4~{a}-carboxylic acid

>  <annotation_level>  (992) 
5

>  <total_atom_count>  (992) 
82

>  <heavy_atom_count>  (992) 
34

>  <molecular_weight>  (992) 
472.71

>  <exact_molecular_weight>  (992) 
472.35526

>  <molecular_formula>  (992) 
C30H48O4

>  <alogp>  (992) 
6.06

>  <topological_polar_surface_area>  (992) 
77.76

>  <rotatable_bond_count>  (992) 
1

>  <hydrogen_bond_acceptors>  (992) 
3

>  <hydrogen_bond_donors>  (992) 
3

>  <hydrogen_bond_acceptors_lipinski>  (992) 
3

>  <hydrogen_bond_donors_lipinski>  (992) 
3

>  <lipinski_rule_of_five_violations>  (992) 
1

>  <aromatic_rings_count>  (992) 
0

>  <qed_drug_likeliness>  (992) 
0.41

>  <formal_charge>  (992) 
0

>  <fractioncsp3>  (992) 
0.90

>  <number_of_minimal_rings>  (992) 
5

>  <van_der_walls_volume>  (992) 
465.08

>  <contains_sugar>  (992) 
False

>  <contains_ring_sugars>  (992) 
False

>  <contains_linear_sugars>  (992) 
False

>  <murcko_framework>  (992) 
C1=C2C3CCCCC3CCC2C4CCC5CCCCC5C4C1

>  <np_likeness>  (992) 
3.26

>  <chemical_class>  (992) 
Prenol lipids

>  <chemical_sub_class>  (992) 
Triterpenoids

>  <chemical_super_class>  (992) 
Lipids and lipid-like molecules

>  <direct_parent_classification>  (992) 
Taraxastane, ursane, and bauerane triterpenoids

>  <np_classifier_pathway>  (992) 
Terpenoids

>  <np_classifier_superclass>  (992) 
Triterpenoids

>  <np_classifier_class>  (992) 
Ursane and Taraxastane triterpenoids

>  <np_classifier_is_glycoside>  (992) 
False

>  <organisms>  (992) 
Styrax camporum

>  <collections>  (992) 
CMAUP (cCollective molecular activities of useful plants)|ChemSpider NPs|ConMedNP|Latin America dataset|NuBBEDB|Super Natural II|WikiData Natural Products

>  <dois>  (992) 
10.1590/S0100-40422002000300002

>  <synonyms>  (992) 
(1S,2R,4aS,6aR,6aS,6bR,8aR,10R,11S,12aR,14bS)-10,11-dihydroxy-1,2,6a,6b,9,9,12a-heptamethyl-2,3,4,5,6,6a,7,8,8a,10,11,12,13,14b-tetradecahydro-1H-picene-4a-carboxylic acid|2-epi-corosolic acid|2\u221a\u00e9\u00ac\u00b13\u221a\u00e9\u00ac\u00b1-Dihydroxy-urs-12-en-28-oic acid|87205-98-9|BDBM50346707|CHEMBL391534|SCHEMBL13735311

>  <cas>  (992) 
87205-98-9

$$$$

     RDKit          2D

 33 36  0  0  0  0  0  0  0  0999 V2000
   -2.0384    2.7292    0.0000 C   0  0  0  0  0  0  0  0  0  0  0  0
   -2.2249    1.2408    0.0000 O   0  0  0  0  0  0  0  0  0  0  0  0
   -1.0292    0.3351    0.0000 C   0  0  0  0  0  0  0  0  0  0  0  0
    0.3530    0.9178    0.0000 C   0  0  0  0  0  0  0  0  0  0  0  0
    1.5487    0.0121    0.0000 C   0  0  0  0  0  0  0  0  0  0  0  0
    1.3622   -1.4763    0.0000 C   0  0  0  0  0  0  0  0  0  0  0  0
   -0.0200   -2.0589    0.0000 C   0  0  0  0  0  0  0  0  0  0  0  0
   -0.2065   -3.5473    0.0000 O   0  0  0  0  0  0  0  0  0  0  0  0
   -1.2157   -1.1532    0.0000 C   0  0  0  0  0  0  0  0  0  0  0  0
   -2.5979   -1.7359    0.0000 O   0  0  0  0  0  0  0  0  0  0  0  0
   -3.7936   -0.8302    0.0000 C   0  0  0  0  0  0  0  0  0  0  0  0
   -3.6071    0.6582    0.0000 O   0  0  0  0  0  0  0  0  0  0  0  0
   -4.8028    1.5639    0.0000 C   0  0  0  0  0  0  0  0  0  0  0  0
   -4.6163    3.0522    0.0000 C   0  0  0  0  0  0  0  0  0  0  0  0
   -5.8120    3.9579    0.0000 O   0  0  0  0  0  0  0  0  0  0  0  0
   -6.1850    0.9812    0.0000 C   0  0  0  0  0  0  0  0  0  0  0  0
   -7.3807    1.8869    0.0000 O   0  0  0  0  0  0  0  0  0  0  0  0
   -6.3715   -0.5072    0.0000 C   0  0  0  0  0  0  0  0  0  0  0  0
   -7.7537   -1.0898    0.0000 O   0  0  0  0  0  0  0  0  0  0  0  0
   -5.1758   -1.4129    0.0000 C   0  0  0  0  0  0  0  0  0  0  0  0
   -5.3623   -2.9012    0.0000 O   0  0  0  0  0  0  0  0  0  0  0  0
    2.5579   -2.3820    0.0000 C   0  0  0  0  0  0  0  0  0  0  0  0
    2.3714   -3.8704    0.0000 O   0  0  0  0  0  0  0  0  0  0  0  0
    3.9402   -1.7993    0.0000 C   0  0  0  0  0  0  0  0  0  0  0  0
    4.1267   -0.3110    0.0000 C   0  0  0  0  0  0  0  0  0  0  0  0
    5.5089    0.2717    0.0000 C   0  0  0  0  0  0  0  0  0  0  0  0
    6.7046   -0.6340    0.0000 C   0  0  0  0  0  0  0  0  0  0  0  0
    8.0868   -0.0514    0.0000 C   0  0  0  0  0  0  0  0  0  0  0  0
    8.2733    1.4370    0.0000 C   0  0  0  0  0  0  0  0  0  0  0  0
    9.6555    2.0197    0.0000 O   0  0  0  0  0  0  0  0  0  0  0  0
    7.0776    2.3427    0.0000 C   0  0  0  0  0  0  0  0  0  0  0  0
    5.6954    1.7600    0.0000 C   0  0  0  0  0  0  0  0  0  0  0  0
    2.9310    0.5947    0.0000 O   0  0  0  0  0  0  0  0  0  0  0  0
  1  2  1  0
  2  3  1  0
  3  4  2  0
  4  5  1  0
  5  6  2  0
  6  7  1  0
  7  8  1  0
  7  9  2  0
  9 10  1  0
 11 10  1  1
 11 12  1  0
 12 13  1  0
 13 14  1  1
 14 15  1  0
 13 16  1  0
 16 17  1  6
 16 18  1  0
 18 19  1  1
 18 20  1  0
 20 21  1  6
  6 22  1  0
 22 23  2  0
 22 24  1  0
 24 25  2  0
 25 26  1  0
 26 27  2  0
 27 28  1  0
 28 29  2  0
 29 30  1  0
 29 31  1  0
 31 32  2  0
 25 33  1  0
  9  3  1  0
 20 11  1  0
 32 26  1  0
 33  5  1  0
M  END
>  <identifier>  (993) 
CNP0190029.1

>  <canonical_smiles>  (993) 
COC1=CC2=C(C(O)=C1O[C@@H]1O[C@H](CO)[C@@H](O)[C@H](O)[C@H]1O)C(=O)C=C(C1=CC=C(O)C=C1)O2

>  <standard_inchi>  (993) 
InChI=1S/C22H22O11/c1-30-14-7-13-16(11(25)6-12(31-13)9-2-4-10(24)5-3-9)18(27)21(14)33-22-20(29)19(28)17(26)15(8-23)32-22/h2-7,15,17,19-20,22-24,26-29H,8H2,1H3/t15-,17-,19+,20-,22+/m1/s1

>  <standard_inchi_key>  (993) 
JSUJHPSAVAWXEN-GSVZXUNASA-N

>  <name>  (993) 
89647-63-2

>  <iupac_name>  (993) 
5-hydroxy-2-(4-hydroxyphenyl)-7-methoxy-6-[(2~{S},3~{R},4~{S},5~{S},6~{R})-3,4,5-trihydroxy-6-(hydroxymethyl)tetrahydropyran-2-yl]oxy-chromen-4-one

>  <annotation_level>  (993) 
5

>  <total_atom_count>  (993) 
55

>  <heavy_atom_count>  (993) 
33

>  <molecular_weight>  (993) 
462.41

>  <exact_molecular_weight>  (993) 
462.11621

>  <molecular_formula>  (993) 
C22H22O11

>  <alogp>  (993) 
0.06

>  <topological_polar_surface_area>  (993) 
179.28

>  <rotatable_bond_count>  (993) 
5

>  <hydrogen_bond_acceptors>  (993) 
11

>  <hydrogen_bond_donors>  (993) 
6

>  <hydrogen_bond_acceptors_lipinski>  (993) 
11

>  <hydrogen_bond_donors_lipinski>  (993) 
6

>  <lipinski_rule_of_five_violations>  (993) 
2

>  <aromatic_rings_count>  (993) 
3

>  <qed_drug_likeliness>  (993) 
0.30

>  <formal_charge>  (993) 
0

>  <fractioncsp3>  (993) 
0.32

>  <number_of_minimal_rings>  (993) 
4

>  <van_der_walls_volume>  (993) 
379.97

>  <contains_sugar>  (993) 
True

>  <contains_ring_sugars>  (993) 
True

>  <contains_linear_sugars>  (993) 
False

>  <murcko_framework>  (993) 
O1c2ccc(OC3OCCCC3)cc2CC=C1c4ccccc4

>  <np_likeness>  (993) 
1.83

>  <chemical_class>  (993) 
Flavonoids

>  <chemical_sub_class>  (993) 
Flavonoid glycosides

>  <chemical_super_class>  (993) 
Phenylpropanoids and polyketides

>  <direct_parent_classification>  (993) 
Flavonoid O-glycosides

>  <np_classifier_pathway>  (993) 
Shikimates and Phenylpropanoids

>  <np_classifier_superclass>  (993) 
Flavonoids

>  <np_classifier_class>  (993) 
Flavones

>  <np_classifier_is_glycoside>  (993) 
True

>  <organisms>  (993) 
Crocus corsicus|Crocus minimus|Dracocephalum tanguticum|Pterogyne nitens

>  <collections>  (993) 
CMAUP (cCollective molecular activities of useful plants)|ChemSpider NPs|Latin America dataset|NPASS|NuBBEDB|WikiData Natural Products|ZINC NP

>  <dois>  (993) 
10.1016/J.BMCL.2010.09.086|10.1016/j.bmcl.2010.09.086|10.1248/CPB.56.723|10.1248/cpb.56.723|10.1515/ZNC-1984-1-204

>  <synonyms>  (993) 
5-Hydroxy-2-(4-hydroxyphenyl)-7-methoxy-6-(((2S,3R,4S,5S,6R)-3,4,5-trihydroxy-6-(hydroxymethyl)tetrahydro-2H-pyran-2-yl)oxy)-4H-chromen-4-one|CHEMBL1272197|Sorbifolin 6-O-\u221a\u00e9\u00ac\u2264-glucopyranoside

>  <cas>  (993) 
nan

$$$$

     RDKit          2D

 20 22  0  0  0  0  0  0  0  0999 V2000
    2.3066    3.4190    0.0000 O   0  0  0  0  0  0  0  0  0  0  0  0
    1.7178    2.0394    0.0000 C   0  0  0  0  0  0  0  0  0  0  0  0
    0.2286    1.8595    0.0000 C   0  0  0  0  0  0  0  0  0  0  0  0
   -0.3602    0.4799    0.0000 C   0  0  0  0  0  0  0  0  0  0  0  0
   -1.8493    0.3000    0.0000 C   0  0  0  0  0  0  0  0  0  0  0  0
   -2.7497    1.4997    0.0000 C   0  0  0  0  0  0  0  0  0  0  0  0
   -4.2389    1.3198    0.0000 C   0  0  0  0  0  0  0  0  0  0  0  0
   -4.8277   -0.0598    0.0000 C   0  0  0  0  0  0  0  0  0  0  0  0
   -6.3168   -0.2397    0.0000 O   0  0  0  0  0  0  0  0  0  0  0  0
   -3.9273   -1.2595    0.0000 C   0  0  0  0  0  0  0  0  0  0  0  0
   -4.5161   -2.6391    0.0000 O   0  0  0  0  0  0  0  0  0  0  0  0
   -2.4381   -1.0796    0.0000 C   0  0  0  0  0  0  0  0  0  0  0  0
    0.5402   -0.7198    0.0000 O   0  0  0  0  0  0  0  0  0  0  0  0
    2.0294   -0.5399    0.0000 C   0  0  0  0  0  0  0  0  0  0  0  0
    2.9298   -1.7397    0.0000 C   0  0  0  0  0  0  0  0  0  0  0  0
    4.4190   -1.5598    0.0000 C   0  0  0  0  0  0  0  0  0  0  0  0
    5.3193   -2.7595    0.0000 O   0  0  0  0  0  0  0  0  0  0  0  0
    5.0077   -0.1802    0.0000 C   0  0  0  0  0  0  0  0  0  0  0  0
    4.1074    1.0196    0.0000 C   0  0  0  0  0  0  0  0  0  0  0  0
    2.6182    0.8397    0.0000 C   0  0  0  0  0  0  0  0  0  0  0  0
  1  2  2  0
  2  3  1  0
  3  4  1  0
  4  5  1  6
  5  6  2  0
  6  7  1  0
  7  8  2  0
  8  9  1  0
  8 10  1  0
 10 11  1  0
 10 12  2  0
  4 13  1  0
 13 14  1  0
 14 15  2  0
 15 16  1  0
 16 17  1  0
 16 18  2  0
 18 19  1  0
 19 20  2  0
 20  2  1  0
 12  5  1  0
 20 14  1  0
M  END
>  <identifier>  (994) 
CNP0170493.1

>  <canonical_smiles>  (994) 
O=C1C[C@@H](C2=CC=C(O)C(O)=C2)OC2=CC(O)=CC=C12

>  <standard_inchi>  (994) 
InChI=1S/C15H12O5/c16-9-2-3-10-12(18)7-14(20-15(10)6-9)8-1-4-11(17)13(19)5-8/h1-6,14,16-17,19H,7H2/t14-/m0/s1

>  <standard_inchi_key>  (994) 
MJBPUQUGJNAPAZ-AWEZNQCLSA-N

>  <name>  (994) 
Butin

>  <iupac_name>  (994) 
(2~{S})-2-(3,4-dihydroxyphenyl)-7-hydroxy-chroman-4-one

>  <annotation_level>  (994) 
5

>  <total_atom_count>  (994) 
32

>  <heavy_atom_count>  (994) 
20

>  <molecular_weight>  (994) 
272.26

>  <exact_molecular_weight>  (994) 
272.06847

>  <molecular_formula>  (994) 
C15H12O5

>  <alogp>  (994) 
2.51

>  <topological_polar_surface_area>  (994) 
86.99

>  <rotatable_bond_count>  (994) 
1

>  <hydrogen_bond_acceptors>  (994) 
5

>  <hydrogen_bond_donors>  (994) 
3

>  <hydrogen_bond_acceptors_lipinski>  (994) 
5

>  <hydrogen_bond_donors_lipinski>  (994) 
3

>  <lipinski_rule_of_five_violations>  (994) 
0

>  <aromatic_rings_count>  (994) 
2

>  <qed_drug_likeliness>  (994) 
0.69

>  <formal_charge>  (994) 
0

>  <fractioncsp3>  (994) 
0.13

>  <number_of_minimal_rings>  (994) 
3

>  <van_der_walls_volume>  (994) 
230.12

>  <contains_sugar>  (994) 
False

>  <contains_ring_sugars>  (994) 
False

>  <contains_linear_sugars>  (994) 
False

>  <murcko_framework>  (994) 
O1c2ccccc2CCC1c3ccccc3

>  <np_likeness>  (994) 
1.63

>  <chemical_class>  (994) 
Flavonoids

>  <chemical_sub_class>  (994) 
Flavans

>  <chemical_super_class>  (994) 
Phenylpropanoids and polyketides

>  <direct_parent_classification>  (994) 
Flavanones

>  <np_classifier_pathway>  (994) 
Shikimates and Phenylpropanoids

>  <np_classifier_superclass>  (994) 
Flavonoids

>  <np_classifier_class>  (994) 
Flavanones

>  <np_classifier_is_glycoside>  (994) 
False

>  <organisms>  (994) 
Abedus herberti|Acacia baileyana|Acacia binervata|Acacia buxifolia|Acacia calamifolia|Acacia cardiophylla|Acacia chrysotricha|Acacia clunies-rossiae|Acacia constablei|Acacia dealbata|Acacia deanei|Acacia decora|Acacia falciformis|Acacia filicifolia|Acacia irrorata|Acacia kettlewelliae|Acacia lanigera|Acacia leucoclada|Acacia mearnsii|Acacia melanoxylon|Acacia mollifolia|Acacia neriifolia|Acacia oshanesii|Acacia parramattensis|Acacia peuce|Acacia pycnantha|Acacia rubida|Acacia silvestris|Acacia terminalis|Acacia trachyphloia|Acacia vestita|Adenanthera pavonina|Aeschrion excelsa|Agrobacterium tumefaciens|Artemisia incanescens|Boletus pini|Bolusanthus speciosus|Brachymeris montana|Brucea javanica|Bryocaulon pseudosatoanum|Butea Monosperma|Butea frondosa|Butea monosperma|Caloboletus calopus|Capsicum annuum|Croton zehntneri|Cyperus papyrus|Dalbergia odorifera|Dimorphotheca aurantiaca|Dipteryx lacunifera|Dipteryx odorata|Dorstenia dinklagei|Elsholtzia ciliata|Fagus grandifolia|Gliricidia Sepium|Gliricidia sepium|Glycine soja|Hydnophytum formicarum|Hypoxylon tinctor|Ichthyothere latifolia|Junceella gemmacea|Lachnophyllum gossypinum|Machaerium villosum|Mangifera Indica|Mangifera indica|Mangifera spp.|Mitragyna inermis|Neorautanenia ficifolia|Neurymenia fraxinifolia|Othonna dentata|Paramecium tetraurelia|Peltogyne paniculata|Peltogyne venosa|Perriera orientalis|Pseudofumaria lutea|Pteris cretica var. nervosa|Rhodococcus fascians|Robinia pseudoacacia|Sabal blackburniana|Sapium haematospermum|Scrophularia umbrosa|Sinularia facile|Solanum sublobatum|Sophora mollis|Spatholobus suberectus|Spatholobus suberectus Dunn|Stocksia brahuica|Strychnos erichsonii|Swertia pseudochinensis|Toxicodendron vernicifluum|Umtiza listerana

>  <collections>  (994) 
Australian natural products|CMAUP (cCollective molecular activities of useful plants)|ChEBI NPs|ChemSpider NPs|FooDB|KNApSaCK|Latin America dataset|NPASS|NPEdia|NuBBEDB|Phenol-explorer|SANCDB|Super Natural II|TIPdb (database of Taiwan indigenous plants)|VietHerb|WikiData Natural Products|ZINC NP

>  <dois>  (994) 
10.1002/BMC.535|10.1002/HLCA.200890233|10.1002/JCCS.200800033|10.1002/RCM.1936|10.1002/hlca.200890233|10.1007/BF00985218|10.1007/BF03172444|10.1016/0031-9422(74)80331-6|10.1016/0031-9422(77)80016-2|10.1016/0031-9422(84)83041-1|10.1016/0378-8741(86)90046-2|10.1016/J.FCT.2012.03.052|10.1016/J.FOODCHEM.2019.125629|10.1016/J.PHYTOCHEM.2006.05.008|10.1016/S0031-9422(00)85959-2|10.1016/S0031-9422(00)94599-0|10.1016/s0031-9422(00)85959-2|10.1021/NP020522N|10.1021/NP100372T|10.1021/NP900144C|10.1021/acs.jnatprod.0c00756|10.1039/CT9048501459|10.1039/P19790000777|10.1042/BJ0870167|10.1042/bj0870167|10.1055/S-2006-957394|10.1246/NIKKASHI1948.87.11_1201|10.1248/CPB.57.428|10.3390/MOLECULES13040904|10.3987/COM-11-12275

>  <synonyms>  (994) 
(-)-Butin|(-)-Butin, (2S)-2-(34-dihydroxyphenyl)-23-dihydro-7-hydroxy-4H-chromen-4-one|(-)-butin|(2S)-2-(3,4-DIHYDROXYPHENYL)-2,3-DIHYDRO-7-HYDROXY-4H-1-BENZOPYRAN-4-ONE|(2S)-2-(3,4-dihydroxyphenyl)-7-hydroxy-2,3-dihydrochromen-4-one|(S)-7,3',4'-TRIHYDROXYFLAVANONE|492-14-8|4H-1-BENZOPYRAN-4-ONE, 2-(3,4-DIHYDROXYPHENYL)-2,3-DIHYDRO-7-HYDROXY-, (2S)-|4H-1-Benzopyran-4-one, 2-(3,4-dihydroxyphenyl)-2,3-dihydro-7-hydroxy-, (S)-|7,3',4'-Trihydroxyflavanone|AKOS026674267|BDBM50009647|Butin|C09614|CHEBI:27725|CHEMBL451168|CS-0032187|DTXSID60197708|E80807|FLAVANONE, 3',4',7-TRIHYDROXY-|HY-N6020|LMPK12140075|MS-23850|Q5002528|S23T8BI9DD|SCHEMBL68554|UNII-S23T8BI9DD

>  <cas>  (994) 
492-14-8

$$$$

     RDKit          2D

 24 27  0  0  0  0  0  0  0  0999 V2000
    0.9969    3.9691    0.0000 C   0  0  0  0  0  0  0  0  0  0  0  0
    0.9460    2.4700    0.0000 C   0  0  0  0  0  0  0  0  0  0  0  0
    2.3701    1.9988    0.0000 C   0  0  0  0  0  0  0  0  0  0  0  0
    3.3134    0.8325    0.0000 C   0  0  0  0  0  0  0  0  0  0  0  0
    3.4763   -0.6586    0.0000 C   0  0  0  0  0  0  0  0  0  0  0  0
    2.8073   -2.0012    0.0000 C   0  0  0  0  0  0  0  0  0  0  0  0
    1.5186   -2.7688    0.0000 C   0  0  0  0  0  0  0  0  0  0  0  0
    0.0195   -2.7180    0.0000 C   0  0  0  0  0  0  0  0  0  0  0  0
    0.3234   -4.1868    0.0000 C   0  0  0  0  0  0  0  0  0  0  0  0
   -1.3363   -3.3597    0.0000 O   0  0  0  0  0  0  0  0  0  0  0  0
   -1.2142   -1.8646    0.0000 C   0  0  0  0  0  0  0  0  0  0  0  0
   -1.7906   -0.4798    0.0000 C   0  0  0  0  0  0  0  0  0  0  0  0
   -1.5269    0.9968    0.0000 C   0  0  0  0  0  0  0  0  0  0  0  0
   -2.8498    1.7039    0.0000 C   0  0  0  0  0  0  0  0  0  0  0  0
   -3.9311    0.6643    0.0000 C   0  0  0  0  0  0  0  0  0  0  0  0
   -4.8520    1.8483    0.0000 C   0  0  0  0  0  0  0  0  0  0  0  0
   -5.2049   -0.1278    0.0000 O   0  0  0  0  0  0  0  0  0  0  0  0
   -3.2765   -0.6853    0.0000 C   0  0  0  0  0  0  0  0  0  0  0  0
   -3.9836   -2.0082    0.0000 O   0  0  0  0  0  0  0  0  0  0  0  0
   -0.5067    2.0964    0.0000 C   0  0  0  0  0  0  0  0  0  0  0  0
   -1.2744    3.3851    0.0000 O   0  0  0  0  0  0  0  0  0  0  0  0
    4.6862    0.2281    0.0000 C   0  0  0  0  0  0  0  0  0  0  0  0
    5.7695   -0.8094    0.0000 C   0  0  0  0  0  0  0  0  0  0  0  0
    5.5198    1.4751    0.0000 C   0  0  0  0  0  0  0  0  0  0  0  0
  2  1  1  6
  2  3  1  0
  4  3  1  1
  4  5  1  0
  5  6  1  1
  6  7  1  0
  7  8  1  0
  8  9  1  1
  8 10  1  0
 11 10  1  1
 11 12  1  0
 12 13  2  0
 13 14  1  0
 14 15  1  0
 15 16  1  1
 15 17  1  0
 15 18  1  0
 18 19  2  0
 13 20  1  0
 20 21  2  0
  5 22  1  0
 22 23  1  0
 22 24  1  0
 20  2  1  0
 22  4  1  0
 11  8  1  0
 18 12  1  0
M  END
>  <identifier>  (995) 
CNP0156161.2

>  <canonical_smiles>  (995) 
C[C@@H]1C[C@@H]2[C@H](CC[C@]3(C)O[C@H]3C3=C(C[C@@](C)(O)C3=O)C1=O)C2(C)C

>  <standard_inchi>  (995) 
InChI=1S/C20H28O4/c1-10-8-13-12(18(13,2)3)6-7-20(5)17(24-20)14-11(15(10)21)9-19(4,23)16(14)22/h10,12-13,17,23H,6-9H2,1-5H3/t10-,12+,13-,17+,19-,20+/m1/s1

>  <standard_inchi_key>  (995) 
OYIJAFDBTSSJDP-GDPDPJRASA-N

>  <name>  (995) 
nan

>  <iupac_name>  (995) 
(2~{S},4~{S},7~{S},9~{R},11~{R},15~{R})-15-hydroxy-4,8,8,11,15-pentamethyl-3-oxatetracyclo[11.3.0.0^{2,4}.0^{7,9}]hexadec-1(13)-ene-12,16-dione

>  <annotation_level>  (995) 
5

>  <total_atom_count>  (995) 
52

>  <heavy_atom_count>  (995) 
24

>  <molecular_weight>  (995) 
332.44

>  <exact_molecular_weight>  (995) 
332.19876

>  <molecular_formula>  (995) 
C20H28O4

>  <alogp>  (995) 
2.83

>  <topological_polar_surface_area>  (995) 
66.90

>  <rotatable_bond_count>  (995) 
0

>  <hydrogen_bond_acceptors>  (995) 
4

>  <hydrogen_bond_donors>  (995) 
1

>  <hydrogen_bond_acceptors_lipinski>  (995) 
4

>  <hydrogen_bond_donors_lipinski>  (995) 
1

>  <lipinski_rule_of_five_violations>  (995) 
0

>  <aromatic_rings_count>  (995) 
0

>  <qed_drug_likeliness>  (995) 
0.69

>  <formal_charge>  (995) 
0

>  <fractioncsp3>  (995) 
0.80

>  <number_of_minimal_rings>  (995) 
4

>  <van_der_walls_volume>  (995) 
319.72

>  <contains_sugar>  (995) 
False

>  <contains_ring_sugars>  (995) 
False

>  <contains_linear_sugars>  (995) 
False

>  <murcko_framework>  (995) 
O1C2C3=C(CCC3)CCCC4CC4CCC12

>  <np_likeness>  (995) 
2.76

>  <chemical_class>  (995) 
Prenol lipids

>  <chemical_sub_class>  (995) 
Diterpenoids

>  <chemical_super_class>  (995) 
Lipids and lipid-like molecules

>  <direct_parent_classification>  (995) 
Diterpenoids

>  <np_classifier_pathway>  (995) 
Terpenoids

>  <np_classifier_superclass>  (995) 
Diterpenoids

>  <np_classifier_class>  (995) 
Lathyrane diterpenoids

>  <np_classifier_is_glycoside>  (995) 
False

>  <organisms>  (995) 
Jatropha podagrica|Jatropha podagrica Hook|Jatropha weddelliana

>  <collections>  (995) 
ChemSpider NPs|KNApSaCK|Latin America dataset|NPACT|NuBBEDB|WikiData Natural Products|ZINC NP

>  <dois>  (995) 
10.1016/J.PHYTOCHEM.2007.05.021|10.1590/S0103-50532001000200022

>  <synonyms>  (995) 
2-Hydroxyisojatrogrossidion

>  <cas>  (995) 
nan

$$$$

     RDKit          2D

 28 30  0  0  0  0  0  0  0  0999 V2000
    0.8092    3.7654    0.0000 C   0  0  0  0  0  0  0  0  0  0  0  0
    1.8093    2.6474    0.0000 C   0  0  0  0  0  0  0  0  0  0  0  0
    1.4927    1.1812    0.0000 C   0  0  0  0  0  0  0  0  0  0  0  0
    0.1913    0.4354    0.0000 C   0  0  0  0  0  0  0  0  0  0  0  0
   -1.1053    1.1896    0.0000 O   0  0  0  0  0  0  0  0  0  0  0  0
   -2.4068    0.4438    0.0000 C   0  0  0  0  0  0  0  0  0  0  0  0
   -3.7034    1.1979    0.0000 O   0  0  0  0  0  0  0  0  0  0  0  0
   -5.0049    0.4521    0.0000 C   0  0  0  0  0  0  0  0  0  0  0  0
   -6.3015    1.2063    0.0000 C   0  0  0  0  0  0  0  0  0  0  0  0
   -6.2966    2.7063    0.0000 O   0  0  0  0  0  0  0  0  0  0  0  0
   -5.0097   -1.0479    0.0000 C   0  0  0  0  0  0  0  0  0  0  0  0
   -6.3111   -1.7937    0.0000 O   0  0  0  0  0  0  0  0  0  0  0  0
   -3.7131   -1.8020    0.0000 C   0  0  0  0  0  0  0  0  0  0  0  0
   -3.7179   -3.3020    0.0000 O   0  0  0  0  0  0  0  0  0  0  0  0
   -2.4116   -1.0562    0.0000 C   0  0  0  0  0  0  0  0  0  0  0  0
   -1.1150   -1.8104    0.0000 O   0  0  0  0  0  0  0  0  0  0  0  0
    0.1864   -1.0646    0.0000 O   0  0  0  0  0  0  0  0  0  0  0  0
    1.4831   -1.8188    0.0000 C   0  0  0  0  0  0  0  0  0  0  0  0
    2.7845   -1.0730    0.0000 C   0  0  0  0  0  0  0  0  0  0  0  0
    4.0811   -1.8272    0.0000 C   0  0  0  0  0  0  0  0  0  0  0  0
    5.3826   -1.0813    0.0000 O   0  0  0  0  0  0  0  0  0  0  0  0
    4.0763   -3.3271    0.0000 O   0  0  0  0  0  0  0  0  0  0  0  0
    5.3729   -4.0813    0.0000 C   0  0  0  0  0  0  0  0  0  0  0  0
    2.7893    0.4270    0.0000 C   0  0  0  0  0  0  0  0  0  0  0  0
    3.9073    1.4271    0.0000 C   0  0  0  0  0  0  0  0  0  0  0  0
    5.3735    1.1105    0.0000 O   0  0  0  0  0  0  0  0  0  0  0  0
    3.3016    2.7994    0.0000 C   0  0  0  0  0  0  0  0  0  0  0  0
    4.0558    4.0960    0.0000 O   0  0  0  0  0  0  0  0  0  0  0  0
  1  2  2  0
  3  2  1  6
  3  4  1  0
  4  5  1  1
  6  5  1  1
  6  7  1  0
  7  8  1  0
  8  9  1  1
  9 10  1  0
  8 11  1  0
 11 12  1  6
 11 13  1  0
 13 14  1  1
 13 15  1  0
 15 16  1  6
  4 17  1  0
 17 18  1  0
 18 19  2  0
 19 20  1  0
 20 21  2  0
 20 22  1  0
 22 23  1  0
 24 19  1  6
 24 25  1  0
 25 26  1  1
 25 27  1  0
 27 28  1  6
 27  2  1  0
 24  3  1  0
 15  6  1  0
M  END
>  <identifier>  (996) 
CNP0281583.1

>  <canonical_smiles>  (996) 
C=C1[C@H]2[C@H](O[C@@H]3O[C@H](CO)[C@@H](O)[C@H](O)[C@H]3O)OC=C(C(=O)OC)[C@H]2[C@H](O)[C@H]1O

>  <standard_inchi>  (996) 
InChI=1S/C17H24O11/c1-5-8-9(12(21)10(5)19)6(15(24)25-2)4-26-16(8)28-17-14(23)13(22)11(20)7(3-18)27-17/h4,7-14,16-23H,1,3H2,2H3/t7-,8-,9-,10+,11-,12+,13+,14-,16+,17+/m1/s1

>  <standard_inchi_key>  (996) 
QUTNKSUGCORXII-DLDSXJETSA-N

>  <name>  (996) 
nan

>  <iupac_name>  (996) 
methyl (1~{S},4~{a}~{S},5~{S},6~{S},7~{a}~{S})-5,6-dihydroxy-7-methylene-1-[(2~{S},3~{R},4~{S},5~{S},6~{R})-3,4,5-trihydroxy-6-(hydroxymethyl)tetrahydropyran-2-yl]oxy-4~{a},5,6,7~{a}-tetrahydro-1~{H}-cyclopenta[c]pyran-4-carboxylate

>  <annotation_level>  (996) 
5

>  <total_atom_count>  (996) 
52

>  <heavy_atom_count>  (996) 
28

>  <molecular_weight>  (996) 
404.37

>  <exact_molecular_weight>  (996) 
404.13186

>  <molecular_formula>  (996) 
C17H24O11

>  <alogp>  (996) 
-3.26

>  <topological_polar_surface_area>  (996) 
175.37

>  <rotatable_bond_count>  (996) 
4

>  <hydrogen_bond_acceptors>  (996) 
11

>  <hydrogen_bond_donors>  (996) 
6

>  <hydrogen_bond_acceptors_lipinski>  (996) 
11

>  <hydrogen_bond_donors_lipinski>  (996) 
6

>  <lipinski_rule_of_five_violations>  (996) 
2

>  <aromatic_rings_count>  (996) 
0

>  <qed_drug_likeliness>  (996) 
0.20

>  <formal_charge>  (996) 
0

>  <fractioncsp3>  (996) 
0.71

>  <number_of_minimal_rings>  (996) 
3

>  <van_der_walls_volume>  (996) 
339.21

>  <contains_sugar>  (996) 
True

>  <contains_ring_sugars>  (996) 
True

>  <contains_linear_sugars>  (996) 
False

>  <murcko_framework>  (996) 
O1C=CC2CCCC2C1OC3OCCCC3

>  <np_likeness>  (996) 
2.54

>  <chemical_class>  (996) 
Organooxygen compounds

>  <chemical_sub_class>  (996) 
Carbohydrates and carbohydrate conjugates

>  <chemical_super_class>  (996) 
Organic oxygen compounds

>  <direct_parent_classification>  (996) 
Monosaccharides

>  <np_classifier_pathway>  (996) 
Terpenoids

>  <np_classifier_superclass>  (996) 
Monoterpenoids

>  <np_classifier_class>  (996) 
Iridoids monoterpenoids

>  <np_classifier_is_glycoside>  (996) 
True

>  <organisms>  (996) 
Alibertia edulis

>  <collections>  (996) 
ChemSpider NPs|Latin America dataset|NuBBEDB|Super Natural II|WikiData Natural Products|ZINC NP

>  <dois>  (996) 
10.1002/HLCA.200890147|10.1002/hlca.200890147

>  <synonyms>  (996) 
6\u221a\u00e9\u00ac\u2264-hydroxy-7-epigardoside methyl ester

>  <cas>  (996) 
nan

$$$$

     RDKit          2D

 32 35  0  0  0  0  0  0  0  0999 V2000
    9.5239    1.7108    0.0000 C   0  0  0  0  0  0  0  0  0  0  0  0
    8.5405    0.5781    0.0000 C   0  0  0  0  0  0  0  0  0  0  0  0
    9.0297   -0.8398    0.0000 C   0  0  0  0  0  0  0  0  0  0  0  0
    7.0679    0.8635    0.0000 C   0  0  0  0  0  0  0  0  0  0  0  0
    6.0845   -0.2692    0.0000 C   0  0  0  0  0  0  0  0  0  0  0  0
    4.6118    0.0162    0.0000 C   0  0  0  0  0  0  0  0  0  0  0  0
    3.6284   -1.1165    0.0000 C   0  0  0  0  0  0  0  0  0  0  0  0
    2.6450   -2.2492    0.0000 C   0  0  0  0  0  0  0  0  0  0  0  0
    4.7611   -2.0999    0.0000 O   0  0  0  0  0  0  0  0  0  0  0  0
    2.4958   -0.1331    0.0000 C   0  0  0  0  0  0  0  0  0  0  0  0
    2.6256    1.3613    0.0000 C   0  0  0  0  0  0  0  0  0  0  0  0
    1.2445    1.9466    0.0000 C   0  0  0  0  0  0  0  0  0  0  0  0
    0.2611    0.8139    0.0000 C   0  0  0  0  0  0  0  0  0  0  0  0
   -0.3736    2.1730    0.0000 C   0  0  0  0  0  0  0  0  0  0  0  0
    1.0344   -0.4714    0.0000 C   0  0  0  0  0  0  0  0  0  0  0  0
    0.3080   -1.7838    0.0000 C   0  0  0  0  0  0  0  0  0  0  0  0
   -1.1918   -1.8108    0.0000 C   0  0  0  0  0  0  0  0  0  0  0  0
   -1.9651   -0.5255    0.0000 C   0  0  0  0  0  0  0  0  0  0  0  0
   -3.4648   -0.5526    0.0000 C   0  0  0  0  0  0  0  0  0  0  0  0
   -2.6915   -1.8379    0.0000 C   0  0  0  0  0  0  0  0  0  0  0  0
   -4.1913   -1.8650    0.0000 C   0  0  0  0  0  0  0  0  0  0  0  0
   -5.6910   -1.8921    0.0000 C   0  0  0  0  0  0  0  0  0  0  0  0
   -6.4644   -0.6068    0.0000 C   0  0  0  0  0  0  0  0  0  0  0  0
   -7.9641   -0.6339    0.0000 O   0  0  0  0  0  0  0  0  0  0  0  0
   -5.7379    0.7056    0.0000 C   0  0  0  0  0  0  0  0  0  0  0  0
   -5.5042    2.1873    0.0000 C   0  0  0  0  0  0  0  0  0  0  0  0
   -7.1565    1.1931    0.0000 C   0  0  0  0  0  0  0  0  0  0  0  0
   -4.2382    0.7327    0.0000 C   0  0  0  0  0  0  0  0  0  0  0  0
   -3.5117    2.0450    0.0000 C   0  0  0  0  0  0  0  0  0  0  0  0
   -2.0120    2.0721    0.0000 C   0  0  0  0  0  0  0  0  0  0  0  0
   -1.2387    0.7868    0.0000 C   0  0  0  0  0  0  0  0  0  0  0  0
   -0.4653   -0.4985    0.0000 C   0  0  0  0  0  0  0  0  0  0  0  0
  1  2  1  0
  2  3  1  0
  2  4  2  0
  4  5  1  0
  5  6  1  0
  6  7  1  0
  7  8  1  1
  7  9  1  0
  7 10  1  0
 10 11  1  6
 11 12  1  0
 12 13  1  0
 13 14  1  1
 13 15  1  0
 15 16  1  1
 16 17  1  0
 18 17  1  6
 18 19  1  0
 19 20  1  6
 19 21  1  0
 21 22  1  0
 22 23  1  0
 23 24  1  1
 23 25  1  0
 25 26  1  0
 25 27  1  0
 25 28  1  0
 28 29  1  6
 29 30  1  0
 30 31  1  0
 31 32  1  6
 15 10  1  0
 31 18  1  0
 31 13  1  0
 28 19  1  0
M  END
>  <identifier>  (997) 
CNP0236926.6

>  <canonical_smiles>  (997) 
CC(C)=CCC[C@](C)(O)[C@H]1CC[C@]2(C)[C@@H]1CC[C@@H]1[C@@]3(C)CC[C@@H](O)C(C)(C)[C@@H]3CC[C@]12C

>  <standard_inchi>  (997) 
InChI=1S/C30H52O2/c1-20(2)10-9-16-30(8,32)22-13-18-28(6)21(22)11-12-24-27(5)17-15-25(31)26(3,4)23(27)14-19-29(24,28)7/h10,21-25,31-32H,9,11-19H2,1-8H3/t21-,22+,23+,24-,25-,27+,28-,29-,30+/m1/s1

>  <standard_inchi_key>  (997) 
NLHQJXWYMZLQJY-IBOXRLJPSA-N

>  <name>  (997) 
nan

>  <iupac_name>  (997) 
(3~{R},5~{R},8~{R},9~{R},10~{R},13~{R},14~{R},17~{S})-17-[(1~{S})-1-hydroxy-1,5-dimethyl-hex-4-enyl]-4,4,8,10,14-pentamethyl-2,3,5,6,7,9,11,12,13,15,16,17-dodecahydro-1~{H}-cyclopenta[a]phenanthren-3-ol

>  <annotation_level>  (997) 
4

>  <total_atom_count>  (997) 
84

>  <heavy_atom_count>  (997) 
32

>  <molecular_weight>  (997) 
444.74

>  <exact_molecular_weight>  (997) 
444.39673

>  <molecular_formula>  (997) 
C30H52O2

>  <alogp>  (997) 
7.53

>  <topological_polar_surface_area>  (997) 
40.46

>  <rotatable_bond_count>  (997) 
4

>  <hydrogen_bond_acceptors>  (997) 
2

>  <hydrogen_bond_donors>  (997) 
2

>  <hydrogen_bond_acceptors_lipinski>  (997) 
2

>  <hydrogen_bond_donors_lipinski>  (997) 
2

>  <lipinski_rule_of_five_violations>  (997) 
1

>  <aromatic_rings_count>  (997) 
0

>  <qed_drug_likeliness>  (997) 
0.44

>  <formal_charge>  (997) 
0

>  <fractioncsp3>  (997) 
0.93

>  <number_of_minimal_rings>  (997) 
4

>  <van_der_walls_volume>  (997) 
nan

>  <contains_sugar>  (997) 
False

>  <contains_ring_sugars>  (997) 
False

>  <contains_linear_sugars>  (997) 
False

>  <murcko_framework>  (997) 
C1CCC2C(C1)CCC3C4CCCC4CCC23

>  <np_likeness>  (997) 
3.03

>  <chemical_class>  (997) 
Steroids and steroid derivatives

>  <chemical_sub_class>  (997) 
Hydroxysteroids

>  <chemical_super_class>  (997) 
Lipids and lipid-like molecules

>  <direct_parent_classification>  (997) 
3-hydroxysteroids

>  <np_classifier_pathway>  (997) 
Terpenoids

>  <np_classifier_superclass>  (997) 
Triterpenoids

>  <np_classifier_class>  (997) 
Dammarane and Protostane triterpenoids

>  <np_classifier_is_glycoside>  (997) 
False

>  <organisms>  (997) 
Trattinnickia burserifolia

>  <collections>  (997) 
Latin America dataset|NuBBEDB|Super Natural II|WikiData Natural Products

>  <dois>  (997) 
10.1590/S0103-50532004000300008

>  <synonyms>  (997) 
3\u221a\u00e9\u00ac\u00b120(S)-dihydroxydammar-24-ene

>  <cas>  (997) 
nan

$$$$

     RDKit          2D

 33 35  0  0  0  0  0  0  0  0999 V2000
   -7.5268   -2.0322    0.0000 C   0  0  0  0  0  0  0  0  0  0  0  0
   -6.0686   -2.3838    0.0000 O   0  0  0  0  0  0  0  0  0  0  0  0
   -5.0350   -1.2967    0.0000 C   0  0  0  0  0  0  0  0  0  0  0  0
   -5.4597    0.1419    0.0000 C   0  0  0  0  0  0  0  0  0  0  0  0
   -4.4261    1.2290    0.0000 C   0  0  0  0  0  0  0  0  0  0  0  0
   -4.8508    2.6677    0.0000 O   0  0  0  0  0  0  0  0  0  0  0  0
   -6.3090    3.0192    0.0000 C   0  0  0  0  0  0  0  0  0  0  0  0
   -2.9679    0.8775    0.0000 C   0  0  0  0  0  0  0  0  0  0  0  0
   -1.9344    1.9646    0.0000 C   0  0  0  0  0  0  0  0  0  0  0  0
   -2.3590    3.4032    0.0000 O   0  0  0  0  0  0  0  0  0  0  0  0
   -0.4761    1.6130    0.0000 C   0  0  0  0  0  0  0  0  0  0  0  0
    0.5574    2.7001    0.0000 O   0  0  0  0  0  0  0  0  0  0  0  0
    2.0156    2.3485    0.0000 C   0  0  0  0  0  0  0  0  0  0  0  0
   -0.0515    0.1744    0.0000 C   0  0  0  0  0  0  0  0  0  0  0  0
    1.4067   -0.1772    0.0000 C   0  0  0  0  0  0  0  0  0  0  0  0
    2.4403    0.9099    0.0000 C   0  0  0  0  0  0  0  0  0  0  0  0
    3.8985    0.5584    0.0000 C   0  0  0  0  0  0  0  0  0  0  0  0
    4.9321    1.6455    0.0000 O   0  0  0  0  0  0  0  0  0  0  0  0
    4.5074    3.0841    0.0000 C   0  0  0  0  0  0  0  0  0  0  0  0
    5.5410    4.1712    0.0000 C   0  0  0  0  0  0  0  0  0  0  0  0
    3.0492    3.4356    0.0000 O   0  0  0  0  0  0  0  0  0  0  0  0
    4.3232   -0.8803    0.0000 C   0  0  0  0  0  0  0  0  0  0  0  0
    5.7814   -1.2318    0.0000 O   0  0  0  0  0  0  0  0  0  0  0  0
    6.2061   -2.6704    0.0000 C   0  0  0  0  0  0  0  0  0  0  0  0
    3.2896   -1.9673    0.0000 C   0  0  0  0  0  0  0  0  0  0  0  0
    1.8314   -1.6158    0.0000 C   0  0  0  0  0  0  0  0  0  0  0  0
    0.7978   -2.7029    0.0000 O   0  0  0  0  0  0  0  0  0  0  0  0
    1.2225   -4.1415    0.0000 C   0  0  0  0  0  0  0  0  0  0  0  0
    0.1889   -5.2286    0.0000 C   0  0  0  0  0  0  0  0  0  0  0  0
    2.6807   -4.4931    0.0000 O   0  0  0  0  0  0  0  0  0  0  0  0
   -1.0850   -0.9127    0.0000 O   0  0  0  0  0  0  0  0  0  0  0  0
   -2.5433   -0.5612    0.0000 C   0  0  0  0  0  0  0  0  0  0  0  0
   -3.5768   -1.6482    0.0000 C   0  0  0  0  0  0  0  0  0  0  0  0
  1  2  1  0
  2  3  1  0
  3  4  2  0
  4  5  1  0
  5  6  1  0
  6  7  1  0
  5  8  2  0
  8  9  1  0
  9 10  2  0
  9 11  1  0
 11 12  1  0
 12 13  1  0
 11 14  2  0
 14 15  1  0
 15 16  2  0
 16 17  1  0
 17 18  1  0
 18 19  1  0
 19 20  1  0
 19 21  2  0
 17 22  2  0
 22 23  1  0
 23 24  1  0
 22 25  1  0
 25 26  2  0
 26 27  1  0
 27 28  1  0
 28 29  1  0
 28 30  2  0
 14 31  1  0
 31 32  1  0
 32 33  2  0
 33  3  1  0
 32  8  1  0
 26 15  1  0
M  END
>  <identifier>  (998) 
CNP0080431.0

>  <canonical_smiles>  (998) 
COC1=CC(OC)=C2C(=O)C(OC)=C(C3=CC(OC(C)=O)=C(OC)C=C3OC(C)=O)OC2=C1

>  <standard_inchi>  (998) 
InChI=1S/C23H22O10/c1-11(24)31-15-10-16(28-4)17(32-12(2)25)9-14(15)22-23(30-6)21(26)20-18(29-5)7-13(27-3)8-19(20)33-22/h7-10H,1-6H3

>  <standard_inchi_key>  (998) 
NPQYQXBHJOFWJC-UHFFFAOYSA-N

>  <name>  (998) 
nan

>  <iupac_name>  (998) 
[4-acetoxy-2-methoxy-5-(3,5,7-trimethoxy-4-oxo-chromen-2-yl)phenyl] acetate

>  <annotation_level>  (998) 
4

>  <total_atom_count>  (998) 
55

>  <heavy_atom_count>  (998) 
33

>  <molecular_weight>  (998) 
458.42

>  <exact_molecular_weight>  (998) 
458.1213

>  <molecular_formula>  (998) 
C23H22O10

>  <alogp>  (998) 
3.35

>  <topological_polar_surface_area>  (998) 
119.73

>  <rotatable_bond_count>  (998) 
7

>  <hydrogen_bond_acceptors>  (998) 
10

>  <hydrogen_bond_donors>  (998) 
0

>  <hydrogen_bond_acceptors_lipinski>  (998) 
10

>  <hydrogen_bond_donors_lipinski>  (998) 
0

>  <lipinski_rule_of_five_violations>  (998) 
0

>  <aromatic_rings_count>  (998) 
3

>  <qed_drug_likeliness>  (998) 
0.38

>  <formal_charge>  (998) 
0

>  <fractioncsp3>  (998) 
0.26

>  <number_of_minimal_rings>  (998) 
3

>  <van_der_walls_volume>  (998) 
nan

>  <contains_sugar>  (998) 
False

>  <contains_ring_sugars>  (998) 
False

>  <contains_linear_sugars>  (998) 
False

>  <murcko_framework>  (998) 
O1c2ccccc2CC=C1c3ccccc3

>  <np_likeness>  (998) 
0.90

>  <chemical_class>  (998) 
Flavonoids

>  <chemical_sub_class>  (998) 
O-methylated flavonoids

>  <chemical_super_class>  (998) 
Phenylpropanoids and polyketides

>  <direct_parent_classification>  (998) 
3-O-methylated flavonoids

>  <np_classifier_pathway>  (998) 
Shikimates and Phenylpropanoids

>  <np_classifier_superclass>  (998) 
Flavonoids

>  <np_classifier_class>  (998) 
Flavonols

>  <np_classifier_is_glycoside>  (998) 
False

>  <organisms>  (998) 
Apuleia leiocarpa

>  <collections>  (998) 
Latin America dataset|NuBBEDB|WikiData Natural Products|ZINC NP

>  <dois>  (998) 
10.1016/S0031-9422(00)89891-X

>  <synonyms>  (998) 
5-O-methyloxyayanin-A diacetate

>  <cas>  (998) 
nan

$$$$

     RDKit          2D

 19 22  0  0  0  0  0  0  0  0999 V2000
    1.1912   -2.9375    0.0000 O   0  0  0  0  0  0  0  0  0  0  0  0
    1.1067   -1.4399    0.0000 C   0  0  0  0  0  0  0  0  0  0  0  0
    2.3614   -0.6178    0.0000 C   0  0  0  0  0  0  0  0  0  0  0  0
    3.7006   -1.2934    0.0000 C   0  0  0  0  0  0  0  0  0  0  0  0
    4.9553   -0.4714    0.0000 C   0  0  0  0  0  0  0  0  0  0  0  0
    4.8707    1.0262    0.0000 C   0  0  0  0  0  0  0  0  0  0  0  0
    3.5315    1.7018    0.0000 C   0  0  0  0  0  0  0  0  0  0  0  0
    2.2768    0.8798    0.0000 C   0  0  0  0  0  0  0  0  0  0  0  0
    0.9375    1.5553    0.0000 O   0  0  0  0  0  0  0  0  0  0  0  0
   -0.3172    0.7333    0.0000 C   0  0  0  0  0  0  0  0  0  0  0  0
   -1.6564    1.4089    0.0000 C   0  0  0  0  0  0  0  0  0  0  0  0
   -1.7410    2.9065    0.0000 O   0  0  0  0  0  0  0  0  0  0  0  0
   -2.9111    0.5868    0.0000 C   0  0  0  0  0  0  0  0  0  0  0  0
   -2.8265   -0.9108    0.0000 C   0  0  0  0  0  0  0  0  0  0  0  0
   -1.4873   -1.5864    0.0000 C   0  0  0  0  0  0  0  0  0  0  0  0
   -0.2326   -0.7643    0.0000 C   0  0  0  0  0  0  0  0  0  0  0  0
   -4.2247   -1.4540    0.0000 O   0  0  0  0  0  0  0  0  0  0  0  0
   -5.1734   -0.2921    0.0000 C   0  0  0  0  0  0  0  0  0  0  0  0
   -4.3615    0.9692    0.0000 O   0  0  0  0  0  0  0  0  0  0  0  0
  1  2  2  0
  2  3  1  0
  3  4  2  0
  4  5  1  0
  5  6  2  0
  6  7  1  0
  7  8  2  0
  8  9  1  0
  9 10  1  0
 10 11  2  0
 11 12  1  0
 11 13  1  0
 13 14  2  0
 14 15  1  0
 15 16  2  0
 14 17  1  0
 17 18  1  0
 18 19  1  0
 16  2  1  0
  8  3  1  0
 16 10  1  0
 19 13  1  0
M  END
>  <identifier>  (999) 
CNP0261122.0

>  <canonical_smiles>  (999) 
O=C1C2=CC=CC=C2OC2=C(O)C3=C(C=C12)OCO3

>  <standard_inchi>  (999) 
InChI=1S/C14H8O5/c15-11-7-3-1-2-4-9(7)19-13-8(11)5-10-14(12(13)16)18-6-17-10/h1-5,16H,6H2

>  <standard_inchi_key>  (999) 
JSVGXAFVTWWBRD-UHFFFAOYSA-N

>  <name>  (999) 
nan

>  <iupac_name>  (999) 
4-hydroxy-[1,3]dioxolo[4,5-b]xanthen-10-one

>  <annotation_level>  (999) 
4

>  <total_atom_count>  (999) 
27

>  <heavy_atom_count>  (999) 
19

>  <molecular_weight>  (999) 
256.21

>  <exact_molecular_weight>  (999) 
256.03717

>  <molecular_formula>  (999) 
C14H8O5

>  <alogp>  (999) 
2.38

>  <topological_polar_surface_area>  (999) 
68.90

>  <rotatable_bond_count>  (999) 
0

>  <hydrogen_bond_acceptors>  (999) 
5

>  <hydrogen_bond_donors>  (999) 
1

>  <hydrogen_bond_acceptors_lipinski>  (999) 
5

>  <hydrogen_bond_donors_lipinski>  (999) 
1

>  <lipinski_rule_of_five_violations>  (999) 
0

>  <aromatic_rings_count>  (999) 
3

>  <qed_drug_likeliness>  (999) 
0.63

>  <formal_charge>  (999) 
0

>  <fractioncsp3>  (999) 
0.07

>  <number_of_minimal_rings>  (999) 
4

>  <van_der_walls_volume>  (999) 
nan

>  <contains_sugar>  (999) 
False

>  <contains_ring_sugars>  (999) 
False

>  <contains_linear_sugars>  (999) 
False

>  <murcko_framework>  (999) 
O1c2ccccc2Cc3cc4OCOc4cc13

>  <np_likeness>  (999) 
1.08

>  <chemical_class>  (999) 
Benzopyrans

>  <chemical_sub_class>  (999) 
1-benzopyrans

>  <chemical_super_class>  (999) 
Organoheterocyclic compounds

>  <direct_parent_classification>  (999) 
Xanthones

>  <np_classifier_pathway>  (999) 
Shikimates and Phenylpropanoids

>  <np_classifier_superclass>  (999) 
Xanthones

>  <np_classifier_class>  (999) 
Plant xanthones

>  <np_classifier_is_glycoside>  (999) 
False

>  <organisms>  (999) 
Kielmeyera rubriflora|Kielmeyera speciosa

>  <collections>  (999) 
Latin America dataset|NuBBEDB|Super Natural II|UNPD (Universal Natural Products Database)|WikiData Natural Products|ZINC NP

>  <dois>  (999) 
10.1016/S0031-9422(00)85774-X|10.1016/S0031-9422(00)97240-6

>  <synonyms>  (999) 
4-hydroxy-23-methylenedioxyxanthone

>  <cas>  (999) 
nan

$$$$

     RDKit          2D

 39 41  0  0  0  0  0  0  0  0999 V2000
   -7.5064   -2.3691    0.0000 C   0  0  0  0  0  0  0  0  0  0  0  0
   -6.7745   -1.0598    0.0000 O   0  0  0  0  0  0  0  0  0  0  0  0
   -5.2746   -1.0390    0.0000 C   0  0  0  0  0  0  0  0  0  0  0  0
   -4.5067   -2.3276    0.0000 C   0  0  0  0  0  0  0  0  0  0  0  0
   -3.0068   -2.3068    0.0000 C   0  0  0  0  0  0  0  0  0  0  0  0
   -2.2749   -0.9975    0.0000 C   0  0  0  0  0  0  0  0  0  0  0  0
   -0.7750   -0.9768    0.0000 C   0  0  0  0  0  0  0  0  0  0  0  0
   -0.0071   -2.2653    0.0000 C   0  0  0  0  0  0  0  0  0  0  0  0
   -0.7391   -3.5746    0.0000 O   0  0  0  0  0  0  0  0  0  0  0  0
   -2.2389   -3.5953    0.0000 C   0  0  0  0  0  0  0  0  0  0  0  0
    1.4927   -2.2446    0.0000 C   0  0  0  0  0  0  0  0  0  0  0  0
    2.2606   -3.5331    0.0000 O   0  0  0  0  0  0  0  0  0  0  0  0
    2.2247   -0.9353    0.0000 C   0  0  0  0  0  0  0  0  0  0  0  0
    3.7245   -0.9145    0.0000 C   0  0  0  0  0  0  0  0  0  0  0  0
    4.4924   -2.2031    0.0000 O   0  0  0  0  0  0  0  0  0  0  0  0
    5.9923   -2.1823    0.0000 C   0  0  0  0  0  0  0  0  0  0  0  0
    6.7602   -3.4708    0.0000 C   0  0  0  0  0  0  0  0  0  0  0  0
    6.7243   -0.8730    0.0000 O   0  0  0  0  0  0  0  0  0  0  0  0
    4.4565    0.3948    0.0000 C   0  0  0  0  0  0  0  0  0  0  0  0
    5.9564    0.4155    0.0000 O   0  0  0  0  0  0  0  0  0  0  0  0
    6.6883    1.7248    0.0000 C   0  0  0  0  0  0  0  0  0  0  0  0
    8.1882    1.7456    0.0000 C   0  0  0  0  0  0  0  0  0  0  0  0
    5.9204    3.0133    0.0000 O   0  0  0  0  0  0  0  0  0  0  0  0
    3.6886    1.6833    0.0000 C   0  0  0  0  0  0  0  0  0  0  0  0
    4.4206    2.9926    0.0000 O   0  0  0  0  0  0  0  0  0  0  0  0
    3.6527    4.2811    0.0000 C   0  0  0  0  0  0  0  0  0  0  0  0
    2.1888    1.6626    0.0000 C   0  0  0  0  0  0  0  0  0  0  0  0
    1.4568    0.3533    0.0000 C   0  0  0  0  0  0  0  0  0  0  0  0
   -0.0431    0.3325    0.0000 O   0  0  0  0  0  0  0  0  0  0  0  0
   -3.0428    0.2910    0.0000 C   0  0  0  0  0  0  0  0  0  0  0  0
   -2.3108    1.6003    0.0000 O   0  0  0  0  0  0  0  0  0  0  0  0
   -3.0787    2.8889    0.0000 C   0  0  0  0  0  0  0  0  0  0  0  0
   -2.3468    4.1981    0.0000 C   0  0  0  0  0  0  0  0  0  0  0  0
   -4.5786    2.8681    0.0000 O   0  0  0  0  0  0  0  0  0  0  0  0
   -4.5426    0.2703    0.0000 C   0  0  0  0  0  0  0  0  0  0  0  0
   -5.3105    1.5588    0.0000 O   0  0  0  0  0  0  0  0  0  0  0  0
   -6.8104    1.5381    0.0000 C   0  0  0  0  0  0  0  0  0  0  0  0
   -7.5783    2.8266    0.0000 C   0  0  0  0  0  0  0  0  0  0  0  0
   -7.5423    0.2288    0.0000 O   0  0  0  0  0  0  0  0  0  0  0  0
  1  2  1  0
  2  3  1  0
  3  4  2  0
  4  5  1  0
  5  6  2  0
  6  7  1  0
  7  8  2  0
  8  9  1  0
  9 10  1  0
  8 11  1  0
 11 12  2  0
 11 13  1  0
 13 14  2  0
 14 15  1  0
 15 16  1  0
 16 17  1  0
 16 18  2  0
 14 19  1  0
 19 20  1  0
 20 21  1  0
 21 22  1  0
 21 23  2  0
 19 24  2  0
 24 25  1  0
 25 26  1  0
 24 27  1  0
 27 28  2  0
 28 29  1  0
  6 30  1  0
 30 31  1  0
 31 32  1  0
 32 33  1  0
 32 34  2  0
 30 35  2  0
 35 36  1  0
 36 37  1  0
 37 38  1  0
 37 39  2  0
 35  3  1  0
 29  7  1  0
 28 13  1  0
M  END
>  <identifier>  (1000) 
CNP0246588.0

>  <canonical_smiles>  (1000) 
COC1=CC=C(C2=C(OC)C(=O)C3=C(OC(C)=O)C(OC(C)=O)=C(OC)C=C3O2)C(OC(C)=O)=C1OC(C)=O

>  <standard_inchi>  (1000) 
InChI=1S/C26H24O13/c1-11(27)35-21-15(8-9-16(32-5)23(21)36-12(2)28)22-26(34-7)20(31)19-17(39-22)10-18(33-6)24(37-13(3)29)25(19)38-14(4)30/h8-10H,1-7H3

>  <standard_inchi_key>  (1000) 
DBBSIVFQJWAGKW-UHFFFAOYSA-N

>  <name>  (1000) 
nan

>  <iupac_name>  (1000) 
[2-acetoxy-6-(5,6-diacetoxy-3,7-dimethoxy-4-oxo-chromen-2-yl)-3-methoxy-phenyl] acetate

>  <annotation_level>  (1000) 
4

>  <total_atom_count>  (1000) 
63

>  <heavy_atom_count>  (1000) 
39

>  <molecular_weight>  (1000) 
544.47

>  <exact_molecular_weight>  (1000) 
544.12169

>  <molecular_formula>  (1000) 
C26H24O13

>  <alogp>  (1000) 
3.19

>  <topological_polar_surface_area>  (1000) 
163.10

>  <rotatable_bond_count>  (1000) 
8

>  <hydrogen_bond_acceptors>  (1000) 
13

>  <hydrogen_bond_donors>  (1000) 
0

>  <hydrogen_bond_acceptors_lipinski>  (1000) 
13

>  <hydrogen_bond_donors_lipinski>  (1000) 
0

>  <lipinski_rule_of_five_violations>  (1000) 
2

>  <aromatic_rings_count>  (1000) 
3

>  <qed_drug_likeliness>  (1000) 
0.30

>  <formal_charge>  (1000) 
0

>  <fractioncsp3>  (1000) 
0.27

>  <number_of_minimal_rings>  (1000) 
3

>  <van_der_walls_volume>  (1000) 
nan

>  <contains_sugar>  (1000) 
False

>  <contains_ring_sugars>  (1000) 
False

>  <contains_linear_sugars>  (1000) 
False

>  <murcko_framework>  (1000) 
O1c2ccccc2CC=C1c3ccccc3

>  <np_likeness>  (1000) 
0.81

>  <chemical_class>  (1000) 
Flavonoids

>  <chemical_sub_class>  (1000) 
O-methylated flavonoids

>  <chemical_super_class>  (1000) 
Phenylpropanoids and polyketides

>  <direct_parent_classification>  (1000) 
3-O-methylated flavonoids

>  <np_classifier_pathway>  (1000) 
Shikimates and Phenylpropanoids

>  <np_classifier_superclass>  (1000) 
Flavonoids

>  <np_classifier_class>  (1000) 
Flavonols

>  <np_classifier_is_glycoside>  (1000) 
False

>  <organisms>  (1000) 
Apuleia leiocarpa

>  <collections>  (1000) 
Latin America dataset|NuBBEDB|Super Natural II|UNPD (Universal Natural Products Database)|WikiData Natural Products|ZINC NP

>  <dois>  (1000) 
10.1016/S0031-9422(00)89891-X

>  <synonyms>  (1000) 
Apuleisin tetraacetate

>  <cas>  (1000) 
nan

$$$$

     RDKit          2D

 34 38  0  0  0  0  0  0  0  0999 V2000
   -5.1965   -3.2772    0.0000 C   0  0  0  0  0  0  0  0  0  0  0  0
   -5.4143   -1.7931    0.0000 C   0  0  0  0  0  0  0  0  0  0  0  0
   -6.8380   -2.2653    0.0000 C   0  0  0  0  0  0  0  0  0  0  0  0
   -6.1265   -0.4730    0.0000 C   0  0  0  0  0  0  0  0  0  0  0  0
   -5.3393    0.8039    0.0000 C   0  0  0  0  0  0  0  0  0  0  0  0
   -3.8399    0.7606    0.0000 C   0  0  0  0  0  0  0  0  0  0  0  0
   -4.5522    2.0808    0.0000 C   0  0  0  0  0  0  0  0  0  0  0  0
   -6.0515    2.1240    0.0000 O   0  0  0  0  0  0  0  0  0  0  0  0
   -3.7650    3.3576    0.0000 O   0  0  0  0  0  0  0  0  0  0  0  0
   -3.0528    2.0375    0.0000 C   0  0  0  0  0  0  0  0  0  0  0  0
   -1.5534    1.9942    0.0000 C   0  0  0  0  0  0  0  0  0  0  0  0
   -0.8412    0.6741    0.0000 C   0  0  0  0  0  0  0  0  0  0  0  0
   -0.1290   -0.6461    0.0000 C   0  0  0  0  0  0  0  0  0  0  0  0
   -1.6284   -0.6028    0.0000 C   0  0  0  0  0  0  0  0  0  0  0  0
   -0.9162   -1.9229    0.0000 C   0  0  0  0  0  0  0  0  0  0  0  0
    0.5832   -1.9662    0.0000 C   0  0  0  0  0  0  0  0  0  0  0  0
    1.3704   -0.6893    0.0000 C   0  0  0  0  0  0  0  0  0  0  0  0
    2.8698   -0.7326    0.0000 C   0  0  0  0  0  0  0  0  0  0  0  0
    2.0826   -2.0095    0.0000 C   0  0  0  0  0  0  0  0  0  0  0  0
    3.5820   -2.0528    0.0000 C   0  0  0  0  0  0  0  0  0  0  0  0
    5.0814   -2.0960    0.0000 C   0  0  0  0  0  0  0  0  0  0  0  0
    5.8685   -0.8192    0.0000 C   0  0  0  0  0  0  0  0  0  0  0  0
    7.3679   -0.8624    0.0000 N   0  0  0  0  0  0  0  0  0  0  0  0
    8.1551    0.4144    0.0000 O   0  0  0  0  0  0  0  0  0  0  0  0
    5.1563    0.5010    0.0000 C   0  0  0  0  0  0  0  0  0  0  0  0
    4.9386    1.9851    0.0000 C   0  0  0  0  0  0  0  0  0  0  0  0
    6.5801    0.9731    0.0000 C   0  0  0  0  0  0  0  0  0  0  0  0
    3.6569    0.5442    0.0000 C   0  0  0  0  0  0  0  0  0  0  0  0
    2.9447    1.8644    0.0000 C   0  0  0  0  0  0  0  0  0  0  0  0
    1.4453    1.9077    0.0000 C   0  0  0  0  0  0  0  0  0  0  0  0
    0.6582    0.6308    0.0000 C   0  0  0  0  0  0  0  0  0  0  0  0
   -0.0540    1.9509    0.0000 C   0  0  0  0  0  0  0  0  0  0  0  0
   -3.1277   -0.5595    0.0000 C   0  0  0  0  0  0  0  0  0  0  0  0
   -3.9149   -1.8364    0.0000 C   0  0  0  0  0  0  0  0  0  0  0  0
  1  2  1  0
  2  3  1  0
  2  4  1  0
  4  5  1  0
  5  6  1  0
  6  7  1  1
  7  8  2  0
  7  9  1  0
  6 10  1  0
 10 11  1  0
 11 12  1  0
 12 13  1  6
 12 14  1  0
 14 15  2  0
 15 16  1  0
 17 16  1  1
 17 18  1  0
 18 19  1  1
 18 20  1  0
 20 21  1  0
 21 22  1  0
 22 23  2  0
 23 24  1  0
 22 25  1  0
 25 26  1  0
 25 27  1  0
 25 28  1  0
 28 29  1  1
 29 30  1  0
 30 31  1  0
 31 32  1  1
 14 33  1  0
 33 34  1  6
 34  2  1  0
 33  6  1  0
 31 12  1  0
 31 17  1  0
 28 18  1  0
M  END
>  <identifier>  (1001) 
CNP0080649.1

>  <canonical_smiles>  (1001) 
CC1(C)CC[C@]2(C(=O)O)CC[C@]3(C)C(=CC[C@@H]4[C@@]5(C)CC/C(=N/O)C(C)(C)[C@@H]5CC[C@]43C)[C@@H]2C1

>  <standard_inchi>  (1001) 
InChI=1S/C30H47NO3/c1-25(2)14-16-30(24(32)33)17-15-28(6)19(20(30)18-25)8-9-22-27(5)12-11-23(31-34)26(3,4)21(27)10-13-29(22,28)7/h8,20-22,34H,9-18H2,1-7H3,(H,32,33)/b31-23-/t20-,21-,22+,27-,28+,29+,30-/m0/s1

>  <standard_inchi_key>  (1001) 
JXAQIRMTFVLMTK-VWMLZFNCSA-N

>  <name>  (1001) 
nan

>  <iupac_name>  (1001) 
(4~{a}~{S},6~{a}~{R},6~{a}~{S},6~{b}~{R},8~{a}~{R},10~{Z},12~{a}~{R},14~{b}~{S})-10-hydroxyimino-2,2,6~{a},6~{b},9,9,12~{a}-heptamethyl-3,4,5,6,6~{a},7,8,8~{a},11,12,13,14~{b}-dodecahydro-1~{H}-picene-4~{a}-carboxylic acid

>  <annotation_level>  (1001) 
4

>  <total_atom_count>  (1001) 
81

>  <heavy_atom_count>  (1001) 
34

>  <molecular_weight>  (1001) 
469.71

>  <exact_molecular_weight>  (1001) 
469.35559

>  <molecular_formula>  (1001) 
C30H47NO3

>  <alogp>  (1001) 
7.70

>  <topological_polar_surface_area>  (1001) 
69.89

>  <rotatable_bond_count>  (1001) 
1

>  <hydrogen_bond_acceptors>  (1001) 
3

>  <hydrogen_bond_donors>  (1001) 
2

>  <hydrogen_bond_acceptors_lipinski>  (1001) 
3

>  <hydrogen_bond_donors_lipinski>  (1001) 
2

>  <lipinski_rule_of_five_violations>  (1001) 
1

>  <aromatic_rings_count>  (1001) 
0

>  <qed_drug_likeliness>  (1001) 
0.23

>  <formal_charge>  (1001) 
0

>  <fractioncsp3>  (1001) 
0.87

>  <number_of_minimal_rings>  (1001) 
5

>  <van_der_walls_volume>  (1001) 
nan

>  <contains_sugar>  (1001) 
False

>  <contains_ring_sugars>  (1001) 
False

>  <contains_linear_sugars>  (1001) 
False

>  <murcko_framework>  (1001) 
C1=C2C3CCCCC3CCC2C4CCC5CCCCC5C4C1

>  <np_likeness>  (1001) 
3.03

>  <chemical_class>  (1001) 
Prenol lipids

>  <chemical_sub_class>  (1001) 
Triterpenoids

>  <chemical_super_class>  (1001) 
Lipids and lipid-like molecules

>  <direct_parent_classification>  (1001) 
Oleanane triterpenoids

>  <np_classifier_pathway>  (1001) 
Terpenoids

>  <np_classifier_superclass>  (1001) 
Triterpenoids

>  <np_classifier_class>  (1001) 
Oleanane triterpenoids

>  <np_classifier_is_glycoside>  (1001) 
False

>  <organisms>  (1001) 
Myrcia guianensis|Myrcia lingua

>  <collections>  (1001) 
Latin America dataset|NuBBEDB|WikiData Natural Products

>  <dois>  (1001) 
10.1002/CBDV.201400065|10.1002/cbdv.201400065

>  <synonyms>  (1001) 
3-(hydroxyimino)-olean-12-en-28-oic acid

>  <cas>  (1001) 
nan

$$$$

     RDKit          2D

 27 30  0  0  0  0  0  0  0  0999 V2000
    4.9414   -4.5955    0.0000 C   0  0  0  0  0  0  0  0  0  0  0  0
    4.7845   -3.1037    0.0000 C   0  0  0  0  0  0  0  0  0  0  0  0
    3.4141   -2.4938    0.0000 C   0  0  0  0  0  0  0  0  0  0  0  0
    3.2572   -1.0020    0.0000 C   0  0  0  0  0  0  0  0  0  0  0  0
    4.4706   -0.1202    0.0000 C   0  0  0  0  0  0  0  0  0  0  0  0
    5.8410   -0.7302    0.0000 O   0  0  0  0  0  0  0  0  0  0  0  0
    4.3137    1.3716    0.0000 C   0  0  0  0  0  0  0  0  0  0  0  0
    5.5271    2.2533    0.0000 O   0  0  0  0  0  0  0  0  0  0  0  0
    5.3702    3.7451    0.0000 C   0  0  0  0  0  0  0  0  0  0  0  0
    2.9433    1.9815    0.0000 C   0  0  0  0  0  0  0  0  0  0  0  0
    1.7299    1.0998    0.0000 C   0  0  0  0  0  0  0  0  0  0  0  0
    1.8868   -0.3920    0.0000 C   0  0  0  0  0  0  0  0  0  0  0  0
    0.5165   -1.0022    0.0000 O   0  0  0  0  0  0  0  0  0  0  0  0
   -0.4873    0.1124    0.0000 C   0  0  0  0  0  0  0  0  0  0  0  0
   -1.9790   -0.0445    0.0000 C   0  0  0  0  0  0  0  0  0  0  0  0
   -2.8608    1.1689    0.0000 C   0  0  0  0  0  0  0  0  0  0  0  0
   -4.3526    1.0120    0.0000 C   0  0  0  0  0  0  0  0  0  0  0  0
   -5.2344    2.2254    0.0000 O   0  0  0  0  0  0  0  0  0  0  0  0
   -4.6244    3.5958    0.0000 C   0  0  0  0  0  0  0  0  0  0  0  0
   -4.9626   -0.3584    0.0000 C   0  0  0  0  0  0  0  0  0  0  0  0
   -6.3891   -0.8221    0.0000 O   0  0  0  0  0  0  0  0  0  0  0  0
   -6.3890   -2.3221    0.0000 C   0  0  0  0  0  0  0  0  0  0  0  0
   -4.9624   -2.7855    0.0000 O   0  0  0  0  0  0  0  0  0  0  0  0
   -4.0808   -1.5718    0.0000 C   0  0  0  0  0  0  0  0  0  0  0  0
   -2.5890   -1.4149    0.0000 C   0  0  0  0  0  0  0  0  0  0  0  0
    0.2626    1.4115    0.0000 C   0  0  0  0  0  0  0  0  0  0  0  0
   -0.3476    2.7817    0.0000 C   0  0  0  0  0  0  0  0  0  0  0  0
  1  2  2  0
  2  3  1  0
  3  4  1  0
  4  5  2  0
  5  6  1  0
  5  7  1  0
  7  8  1  0
  8  9  1  0
  7 10  2  0
 10 11  1  0
 11 12  2  0
 12 13  1  0
 13 14  1  0
 14 15  1  6
 15 16  2  0
 16 17  1  0
 17 18  1  0
 18 19  1  0
 17 20  2  0
 20 21  1  0
 21 22  1  0
 22 23  1  0
 23 24  1  0
 24 25  2  0
 14 26  1  0
 26 27  1  1
 12  4  1  0
 25 15  1  0
 26 11  1  0
 24 20  1  0
M  END
>  <identifier>  (1002) 
CNP0176004.1

>  <canonical_smiles>  (1002) 
C=CCC1=C(O)C(OC)=CC2=C1O[C@H](C1=CC(OC)=C3OCOC3=C1)[C@H]2C

>  <standard_inchi>  (1002) 
InChI=1S/C21H22O6/c1-5-6-13-18(22)15(23-3)9-14-11(2)19(27-20(13)14)12-7-16(24-4)21-17(8-12)25-10-26-21/h5,7-9,11,19,22H,1,6,10H2,2-4H3/t11-,19-/m0/s1

>  <standard_inchi_key>  (1002) 
CUHMKTJOBOYMIQ-WLRWDXFRSA-N

>  <name>  (1002) 
nan

>  <iupac_name>  (1002) 
(2~{S},3~{S})-7-allyl-5-methoxy-2-(7-methoxy-1,3-benzodioxol-5-yl)-3-methyl-2,3-dihydrobenzofuran-6-ol

>  <annotation_level>  (1002) 
4

>  <total_atom_count>  (1002) 
49

>  <heavy_atom_count>  (1002) 
27

>  <molecular_weight>  (1002) 
370.4

>  <exact_molecular_weight>  (1002) 
370.14164

>  <molecular_formula>  (1002) 
C21H22O6

>  <alogp>  (1002) 
4.10

>  <topological_polar_surface_area>  (1002) 
66.38

>  <rotatable_bond_count>  (1002) 
5

>  <hydrogen_bond_acceptors>  (1002) 
6

>  <hydrogen_bond_donors>  (1002) 
1

>  <hydrogen_bond_acceptors_lipinski>  (1002) 
6

>  <hydrogen_bond_donors_lipinski>  (1002) 
1

>  <lipinski_rule_of_five_violations>  (1002) 
0

>  <aromatic_rings_count>  (1002) 
2

>  <qed_drug_likeliness>  (1002) 
0.80

>  <formal_charge>  (1002) 
0

>  <fractioncsp3>  (1002) 
0.33

>  <number_of_minimal_rings>  (1002) 
4

>  <van_der_walls_volume>  (1002) 
nan

>  <contains_sugar>  (1002) 
False

>  <contains_ring_sugars>  (1002) 
False

>  <contains_linear_sugars>  (1002) 
False

>  <murcko_framework>  (1002) 
O1c2ccc(cc2OC1)C3Oc4ccccc4C3

>  <np_likeness>  (1002) 
1.90

>  <chemical_class>  (1002) 
2-arylbenzofuran flavonoids

>  <chemical_sub_class>  (1002) 
2-arylbenzofuran flavonoids

>  <chemical_super_class>  (1002) 
Phenylpropanoids and polyketides

>  <direct_parent_classification>  (1002) 
2-arylbenzofuran flavonoids

>  <np_classifier_pathway>  (1002) 
Shikimates and Phenylpropanoids

>  <np_classifier_superclass>  (1002) 
Lignans

>  <np_classifier_class>  (1002) 
Neolignans

>  <np_classifier_is_glycoside>  (1002) 
False

>  <organisms>  (1002) 
Aniba|Aniba simulans

>  <collections>  (1002) 
Latin America dataset|NuBBEDB|Super Natural II|WikiData Natural Products|ZINC NP

>  <dois>  (1002) 
10.1016/S0031-9422(00)89244-4

>  <synonyms>  (1002) 
(2S3S)-7-allyl-6-hydroxy-5-methoxy-2-(3-methoxy-45-methylenedioxyphenyl)-3-methyl-23-dihydrobenzofuran

>  <cas>  (1002) 
nan

$$$$

     RDKit          2D

 23 27  0  0  0  0  0  0  0  0999 V2000
   -2.5439   -2.8855    0.0000 C   0  0  0  0  0  0  0  0  0  0  0  0
   -1.2425   -2.1397    0.0000 C   0  0  0  0  0  0  0  0  0  0  0  0
   -0.7340   -3.5509    0.0000 C   0  0  0  0  0  0  0  0  0  0  0  0
    0.2355   -1.8839    0.0000 O   0  0  0  0  0  0  0  0  0  0  0  0
    0.7531   -0.4761    0.0000 C   0  0  0  0  0  0  0  0  0  0  0  0
   -0.2074    0.6761    0.0000 C   0  0  0  0  0  0  0  0  0  0  0  0
    0.3101    2.0840    0.0000 C   0  0  0  0  0  0  0  0  0  0  0  0
    1.7881    2.3397    0.0000 C   0  0  0  0  0  0  0  0  0  0  0  0
    2.7486    1.1876    0.0000 C   0  0  0  0  0  0  0  0  0  0  0  0
    2.2311   -0.2203    0.0000 C   0  0  0  0  0  0  0  0  0  0  0  0
    3.1916   -1.3724    0.0000 C   0  0  0  0  0  0  0  0  0  0  0  0
    4.6696   -1.1167    0.0000 C   0  0  0  0  0  0  0  0  0  0  0  0
    5.1872    0.2912    0.0000 C   0  0  0  0  0  0  0  0  0  0  0  0
    6.6652    0.5470    0.0000 O   0  0  0  0  0  0  0  0  0  0  0  0
    4.2267    1.4433    0.0000 O   0  0  0  0  0  0  0  0  0  0  0  0
   -2.9719    2.2772    0.0000 O   0  0  0  0  0  0  0  0  0  0  0  0
   -4.1240    1.3167    0.0000 C   0  0  0  0  0  0  0  0  0  0  0  0
   -5.0845    2.4689    0.0000 C   0  0  0  0  0  0  0  0  0  0  0  0
   -4.6415   -0.0912    0.0000 C   0  0  0  0  0  0  0  0  0  0  0  0
   -3.6810   -1.2433    0.0000 C   0  0  0  0  0  0  0  0  0  0  0  0
   -2.2030   -0.9876    0.0000 C   0  0  0  0  0  0  0  0  0  0  0  0
   -1.6855    0.4203    0.0000 C   0  0  0  0  0  0  0  0  0  0  0  0
   -2.8875    0.9155    0.0000 C   0  0  0  0  0  0  0  0  0  0  0  0
  1  2  1  0
  2  3  1  0
  2  4  1  0
  4  5  1  0
  5  6  2  0
  6  7  1  0
  7  8  2  0
  8  9  1  0
  9 10  2  0
 10 11  1  0
 11 12  2  0
 12 13  1  0
 13 14  2  0
 13 15  1  0
  7 16  1  0
 16 17  1  0
 17 18  1  6
 17 19  1  0
 19 20  1  0
 21 20  1  1
 21 22  1  0
 22 23  1  0
 21  2  1  0
 10  5  1  0
 23 17  1  0
 22  6  1  0
 15  9  1  0
M  END
>  <identifier>  (1003) 
CNP0121931.1

>  <canonical_smiles>  (1003) 
CC1(C)OC2=C3C(=CC4=C2C=CC(=O)O4)O[C@]2(C)CC[C@H]1C3C2

>  <standard_inchi>  (1003) 
InChI=1S/C19H20O4/c1-18(2)12-6-7-19(3)9-11(12)16-14(22-19)8-13-10(17(16)23-18)4-5-15(20)21-13/h4-5,8,11-12H,6-7,9H2,1-3H3/t11?,12-,19+/m0/s1

>  <standard_inchi_key>  (1003) 
NHTYZRTXNCKKNM-YPBSHKTQSA-N

>  <name>  (1003) 
nan

>  <iupac_name>  (1003) 
(12~{S},15~{R})-11,11,15-trimethyl-4,10,19-trioxapentacyclo[13.3.1.0^{3,8}.0^{9,18}.0^{12,17}]nonadeca-1,3(8),6,9(18)-tetraen-5-one

>  <annotation_level>  (1003) 
4

>  <total_atom_count>  (1003) 
43

>  <heavy_atom_count>  (1003) 
23

>  <molecular_weight>  (1003) 
312.37

>  <exact_molecular_weight>  (1003) 
312.13616

>  <molecular_formula>  (1003) 
C19H20O4

>  <alogp>  (1003) 
4.00

>  <topological_polar_surface_area>  (1003) 
48.67

>  <rotatable_bond_count>  (1003) 
0

>  <hydrogen_bond_acceptors>  (1003) 
4

>  <hydrogen_bond_donors>  (1003) 
0

>  <hydrogen_bond_acceptors_lipinski>  (1003) 
4

>  <hydrogen_bond_donors_lipinski>  (1003) 
0

>  <lipinski_rule_of_five_violations>  (1003) 
0

>  <aromatic_rings_count>  (1003) 
2

>  <qed_drug_likeliness>  (1003) 
0.69

>  <formal_charge>  (1003) 
0

>  <fractioncsp3>  (1003) 
0.53

>  <number_of_minimal_rings>  (1003) 
5

>  <van_der_walls_volume>  (1003) 
nan

>  <contains_sugar>  (1003) 
False

>  <contains_ring_sugars>  (1003) 
False

>  <contains_linear_sugars>  (1003) 
False

>  <murcko_framework>  (1003) 
O1c2cc3OC4CCC5COc(c2C=CC1)c3C5C4

>  <np_likeness>  (1003) 
2.43

>  <chemical_class>  (1003) 
Coumarins and derivatives

>  <chemical_sub_class>  (1003) 
Pyranocoumarins

>  <chemical_super_class>  (1003) 
Phenylpropanoids and polyketides

>  <direct_parent_classification>  (1003) 
Angular pyranocoumarins

>  <np_classifier_pathway>  (1003) 
Shikimates and Phenylpropanoids

>  <np_classifier_superclass>  (1003) 
Coumarins

>  <np_classifier_class>  (1003) 
Pyranocoumarins

>  <np_classifier_is_glycoside>  (1003) 
False

>  <organisms>  (1003) 
Metrodorea nigra

>  <collections>  (1003) 
Latin America dataset|NuBBEDB

>  <dois>  (1003) 
10.1016/0031-9422(95)00504-Z

>  <synonyms>  (1003) 
Deoxybruceol

>  <cas>  (1003) 
nan

$$$$

     RDKit          2D

 25 28  0  0  0  0  0  0  0  0999 V2000
    1.6363    4.7336    0.0000 C   0  0  0  0  0  0  0  0  0  0  0  0
    0.5955    3.6534    0.0000 O   0  0  0  0  0  0  0  0  0  0  0  0
    1.0106    2.2120    0.0000 C   0  0  0  0  0  0  0  0  0  0  0  0
    2.4664    1.8507    0.0000 C   0  0  0  0  0  0  0  0  0  0  0  0
    2.8815    0.4093    0.0000 C   0  0  0  0  0  0  0  0  0  0  0  0
    1.8407   -0.6709    0.0000 C   0  0  0  0  0  0  0  0  0  0  0  0
    2.2557   -2.1123    0.0000 C   0  0  0  0  0  0  0  0  0  0  0  0
    3.7116   -2.4736    0.0000 C   0  0  0  0  0  0  0  0  0  0  0  0
    4.7524   -1.3934    0.0000 C   0  0  0  0  0  0  0  0  0  0  0  0
    6.0998   -0.7344    0.0000 C   0  0  0  0  0  0  0  0  0  0  0  0
    5.6354   -2.6060    0.0000 C   0  0  0  0  0  0  0  0  0  0  0  0
    4.3373    0.0480    0.0000 O   0  0  0  0  0  0  0  0  0  0  0  0
    0.3848   -0.3096    0.0000 C   0  0  0  0  0  0  0  0  0  0  0  0
   -0.0302    1.1318    0.0000 C   0  0  0  0  0  0  0  0  0  0  0  0
   -1.4861    1.4931    0.0000 C   0  0  0  0  0  0  0  0  0  0  0  0
   -1.9011    2.9345    0.0000 O   0  0  0  0  0  0  0  0  0  0  0  0
   -2.5269    0.4129    0.0000 C   0  0  0  0  0  0  0  0  0  0  0  0
   -3.9827    0.7742    0.0000 C   0  0  0  0  0  0  0  0  0  0  0  0
   -5.0235   -0.3060    0.0000 C   0  0  0  0  0  0  0  0  0  0  0  0
   -6.4793    0.0553    0.0000 O   0  0  0  0  0  0  0  0  0  0  0  0
   -4.6084   -1.7474    0.0000 C   0  0  0  0  0  0  0  0  0  0  0  0
   -5.6492   -2.8276    0.0000 O   0  0  0  0  0  0  0  0  0  0  0  0
   -3.1526   -2.1087    0.0000 C   0  0  0  0  0  0  0  0  0  0  0  0
   -2.1118   -1.0285    0.0000 C   0  0  0  0  0  0  0  0  0  0  0  0
   -0.6560   -1.3898    0.0000 O   0  0  0  0  0  0  0  0  0  0  0  0
  1  2  1  0
  2  3  1  0
  3  4  2  0
  4  5  1  0
  5  6  2  0
  6  7  1  0
  7  8  2  0
  8  9  1  0
  9 10  1  0
  9 11  1  0
  9 12  1  0
  6 13  1  0
 13 14  2  0
 14 15  1  0
 15 16  2  0
 15 17  1  0
 17 18  2  0
 18 19  1  0
 19 20  1  0
 19 21  2  0
 21 22  1  0
 21 23  1  0
 23 24  2  0
 24 25  1  0
 14  3  1  0
 24 17  1  0
 12  5  1  0
 25 13  1  0
M  END
>  <identifier>  (1004) 
CNP0224461.0

>  <canonical_smiles>  (1004) 
COC1=CC2=C(C=CC(C)(C)O2)C2=C1C(=O)C1=CC(O)=C(O)C=C1O2

>  <standard_inchi>  (1004) 
InChI=1S/C19H16O6/c1-19(2)5-4-9-14(25-19)8-15(23-3)16-17(22)10-6-11(20)12(21)7-13(10)24-18(9)16/h4-8,20-21H,1-3H3

>  <standard_inchi_key>  (1004) 
CSVZNKKSWFXPMC-UHFFFAOYSA-N

>  <name>  (1004) 
nan

>  <iupac_name>  (1004) 
9,10-dihydroxy-6-methoxy-3,3-dimethyl-pyrano[2,3-c]xanthen-7-one

>  <annotation_level>  (1004) 
4

>  <total_atom_count>  (1004) 
41

>  <heavy_atom_count>  (1004) 
25

>  <molecular_weight>  (1004) 
340.33

>  <exact_molecular_weight>  (1004) 
340.09469

>  <molecular_formula>  (1004) 
C19H16O6

>  <alogp>  (1004) 
3.55

>  <topological_polar_surface_area>  (1004) 
89.13

>  <rotatable_bond_count>  (1004) 
1

>  <hydrogen_bond_acceptors>  (1004) 
6

>  <hydrogen_bond_donors>  (1004) 
2

>  <hydrogen_bond_acceptors_lipinski>  (1004) 
6

>  <hydrogen_bond_donors_lipinski>  (1004) 
2

>  <lipinski_rule_of_five_violations>  (1004) 
0

>  <aromatic_rings_count>  (1004) 
3

>  <qed_drug_likeliness>  (1004) 
0.52

>  <formal_charge>  (1004) 
0

>  <fractioncsp3>  (1004) 
0.21

>  <number_of_minimal_rings>  (1004) 
4

>  <van_der_walls_volume>  (1004) 
nan

>  <contains_sugar>  (1004) 
False

>  <contains_ring_sugars>  (1004) 
False

>  <contains_linear_sugars>  (1004) 
False

>  <murcko_framework>  (1004) 
O1c2ccccc2Cc3ccc4OCC=Cc4c13

>  <np_likeness>  (1004) 
2.29

>  <chemical_class>  (1004) 
Benzopyrans

>  <chemical_sub_class>  (1004) 
1-benzopyrans

>  <chemical_super_class>  (1004) 
Organoheterocyclic compounds

>  <direct_parent_classification>  (1004) 
Pyranoxanthones

>  <np_classifier_pathway>  (1004) 
Shikimates and Phenylpropanoids

>  <np_classifier_superclass>  (1004) 
Xanthones

>  <np_classifier_class>  (1004) 
Plant xanthones

>  <np_classifier_is_glycoside>  (1004) 
False

>  <organisms>  (1004) 
Lorostemon coelhoi|Pterodon emarginatus|Pterodon pubescens

>  <collections>  (1004) 
Latin America dataset|NuBBEDB|Super Natural II|UNPD (Universal Natural Products Database)|WikiData Natural Products|ZINC NP

>  <dois>  (1004) 
10.1016/0031-9422(73)80714-9|10.1016/S0031-9422(00)89084-6

>  <synonyms>  (1004) 
Lorostemin

>  <cas>  (1004) 
nan

$$$$

     RDKit          2D

 21 23  0  0  0  0  0  0  0  0999 V2000
   -4.9419    1.9110    0.0000 C   0  0  0  0  0  0  0  0  0  0  0  0
   -4.9455    0.4110    0.0000 C   0  0  0  0  0  0  0  0  0  0  0  0
   -3.6483   -0.3421    0.0000 C   0  0  0  0  0  0  0  0  0  0  0  0
   -4.6152   -1.4888    0.0000 C   0  0  0  0  0  0  0  0  0  0  0  0
   -3.1319    1.0662    0.0000 C   0  0  0  0  0  0  0  0  0  0  0  0
   -1.6540    1.3231    0.0000 C   0  0  0  0  0  0  0  0  0  0  0  0
   -0.6926    0.1717    0.0000 C   0  0  0  0  0  0  0  0  0  0  0  0
   -1.2090   -1.2366    0.0000 C   0  0  0  0  0  0  0  0  0  0  0  0
   -0.2476   -2.3880    0.0000 C   0  0  0  0  0  0  0  0  0  0  0  0
    1.2302   -2.1311    0.0000 C   0  0  0  0  0  0  0  0  0  0  0  0
    1.7466   -0.7228    0.0000 C   0  0  0  0  0  0  0  0  0  0  0  0
    3.2245   -0.4658    0.0000 C   0  0  0  0  0  0  0  0  0  0  0  0
    4.7010   -0.7299    0.0000 C   0  0  0  0  0  0  0  0  0  0  0  0
    3.2208   -1.9658    0.0000 C   0  0  0  0  0  0  0  0  0  0  0  0
    3.7409    0.9425    0.0000 C   0  0  0  0  0  0  0  0  0  0  0  0
    5.2187    1.1994    0.0000 O   0  0  0  0  0  0  0  0  0  0  0  0
    2.7795    2.0938    0.0000 C   0  0  0  0  0  0  0  0  0  0  0  0
    1.3016    1.8369    0.0000 C   0  0  0  0  0  0  0  0  0  0  0  0
    0.7852    0.4286    0.0000 C   0  0  0  0  0  0  0  0  0  0  0  0
   -0.1762    1.5800    0.0000 C   0  0  0  0  0  0  0  0  0  0  0  0
   -2.6869   -1.4935    0.0000 C   0  0  0  0  0  0  0  0  0  0  0  0
  1  2  2  0
  2  3  1  0
  3  4  1  1
  3  5  1  0
  5  6  1  0
  6  7  1  0
  7  8  1  0
  8  9  2  0
  9 10  1  0
 11 10  1  6
 11 12  1  0
 12 13  1  0
 12 14  1  0
 12 15  1  0
 15 16  1  6
 15 17  1  0
 17 18  1  0
 18 19  1  0
 19 20  1  6
  8 21  1  0
 21  3  1  0
 19  7  1  0
 19 11  1  0
M  END
>  <identifier>  (1005) 
CNP0206232.3

>  <canonical_smiles>  (1005) 
C=C[C@]1(C)CCC2C(=CC[C@H]3C(C)(C)[C@@H](O)CC[C@]23C)C1

>  <standard_inchi>  (1005) 
InChI=1S/C20H32O/c1-6-19(4)11-9-15-14(13-19)7-8-16-18(2,3)17(21)10-12-20(15,16)5/h6-7,15-17,21H,1,8-13H2,2-5H3/t15?,16-,17-,19+,20+/m0/s1

>  <standard_inchi_key>  (1005) 
BLRQCWSOICYRPH-XXLBNXLCSA-N

>  <name>  (1005) 
Pimara-7,15-dien-3-beta-ol diterpene

>  <iupac_name>  (1005) 
(2~{S},4~{a}~{R},7~{R},10~{a}~{R})-1,1,4~{a},7-tetramethyl-7-vinyl-3,4,4~{b},5,6,8,10,10~{a}-octahydro-2~{H}-phenanthren-2-ol

>  <annotation_level>  (1005) 
5

>  <total_atom_count>  (1005) 
53

>  <heavy_atom_count>  (1005) 
21

>  <molecular_weight>  (1005) 
288.48

>  <exact_molecular_weight>  (1005) 
288.24532

>  <molecular_formula>  (1005) 
C20H32O

>  <alogp>  (1005) 
5.11

>  <topological_polar_surface_area>  (1005) 
20.23

>  <rotatable_bond_count>  (1005) 
1

>  <hydrogen_bond_acceptors>  (1005) 
1

>  <hydrogen_bond_donors>  (1005) 
1

>  <hydrogen_bond_acceptors_lipinski>  (1005) 
1

>  <hydrogen_bond_donors_lipinski>  (1005) 
1

>  <lipinski_rule_of_five_violations>  (1005) 
1

>  <aromatic_rings_count>  (1005) 
0

>  <qed_drug_likeliness>  (1005) 
0.66

>  <formal_charge>  (1005) 
0

>  <fractioncsp3>  (1005) 
0.80

>  <number_of_minimal_rings>  (1005) 
3

>  <van_der_walls_volume>  (1005) 
nan

>  <contains_sugar>  (1005) 
False

>  <contains_ring_sugars>  (1005) 
False

>  <contains_linear_sugars>  (1005) 
False

>  <murcko_framework>  (1005) 
C1=C2CCCCC2C3CCCCC3C1

>  <np_likeness>  (1005) 
3.81

>  <chemical_class>  (1005) 
Prenol lipids

>  <chemical_sub_class>  (1005) 
Diterpenoids

>  <chemical_super_class>  (1005) 
Lipids and lipid-like molecules

>  <direct_parent_classification>  (1005) 
Diterpenoids

>  <np_classifier_pathway>  (1005) 
Terpenoids

>  <np_classifier_superclass>  (1005) 
Diterpenoids

>  <np_classifier_class>  (1005) 
Pimarane and Isopimarane diterpenoids

>  <np_classifier_is_glycoside>  (1005) 
False

>  <organisms>  (1005) 
Asteraceae|Nigrospora oryzae|Nigrospora sphaerica|Unknown-fungus sonchifolius (Asteraceae)

>  <collections>  (1005) 
Latin America dataset|NPAtlas|NuBBEDB|WikiData Natural Products

>  <dois>  (1005) 
10.1002/JOBM.200800093|10.1002/jobm.200800093

>  <synonyms>  (1005) 
(2S,4aR,7R,10aR)-7-ethenyl-1,1,4a,7-tetramethyl-3,4,4b,5,6,8,10,10a-octahydro-2H-phenanthren-2-ol|CHEBI:197909|Pimara-7,15-dien-3-beta-ol diterpene|Pimara-715-dien-3\u221a\u00e9\u00ac\u2264-ol

>  <cas>  (1005) 
nan

$$$$

     RDKit          2D

 34 37  0  0  0  0  0  0  0  0999 V2000
   -6.0239   -2.8447    0.0000 C   0  0  0  0  0  0  0  0  0  0  0  0
   -5.3679   -1.4958    0.0000 C   0  0  0  0  0  0  0  0  0  0  0  0
   -6.2080   -0.2532    0.0000 C   0  0  0  0  0  0  0  0  0  0  0  0
   -3.8716   -1.3895    0.0000 C   0  0  0  0  0  0  0  0  0  0  0  0
   -3.0314   -2.6321    0.0000 C   0  0  0  0  0  0  0  0  0  0  0  0
   -1.5352   -2.5258    0.0000 C   0  0  0  0  0  0  0  0  0  0  0  0
   -0.8792   -1.1769    0.0000 C   0  0  0  0  0  0  0  0  0  0  0  0
   -2.3754   -1.2832    0.0000 C   0  0  0  0  0  0  0  0  0  0  0  0
   -1.7194    0.0657    0.0000 C   0  0  0  0  0  0  0  0  0  0  0  0
   -1.0633    1.4147    0.0000 C   0  0  0  0  0  0  0  0  0  0  0  0
    0.4329    1.5210    0.0000 C   0  0  0  0  0  0  0  0  0  0  0  0
    1.2731    0.2784    0.0000 C   0  0  0  0  0  0  0  0  0  0  0  0
    2.7587    0.0713    0.0000 C   0  0  0  0  0  0  0  0  0  0  0  0
    3.7995    1.1515    0.0000 C   0  0  0  0  0  0  0  0  0  0  0  0
    2.6165    2.0736    0.0000 C   0  0  0  0  0  0  0  0  0  0  0  0
    4.5930    2.4244    0.0000 C   0  0  0  0  0  0  0  0  0  0  0  0
    6.0488    2.0632    0.0000 C   0  0  0  0  0  0  0  0  0  0  0  0
    6.1551    0.5670    0.0000 C   0  0  0  0  0  0  0  0  0  0  0  0
    7.4281   -0.2265    0.0000 C   0  0  0  0  0  0  0  0  0  0  0  0
    8.2215    1.0465    0.0000 C   0  0  0  0  0  0  0  0  0  0  0  0
    6.6346   -1.4995    0.0000 C   0  0  0  0  0  0  0  0  0  0  0  0
    8.7011   -1.0199    0.0000 O   0  0  0  0  0  0  0  0  0  0  0  0
    4.7650    0.0035    0.0000 O   0  0  0  0  0  0  0  0  0  0  0  0
    3.0209   -1.4056    0.0000 C   0  0  0  0  0  0  0  0  0  0  0  0
    1.6972   -2.1113    0.0000 C   0  0  0  0  0  0  0  0  0  0  0  0
    0.6171   -1.0706    0.0000 C   0  0  0  0  0  0  0  0  0  0  0  0
    0.1056   -2.4807    0.0000 C   0  0  0  0  0  0  0  0  0  0  0  0
   -3.2156   -0.0406    0.0000 C   0  0  0  0  0  0  0  0  0  0  0  0
   -3.0605    1.4514    0.0000 C   0  0  0  0  0  0  0  0  0  0  0  0
   -4.6579    0.3713    0.0000 C   0  0  0  0  0  0  0  0  0  0  0  0
   -5.0225    1.8263    0.0000 C   0  0  0  0  0  0  0  0  0  0  0  0
   -6.4648    2.2381    0.0000 C   0  0  0  0  0  0  0  0  0  0  0  0
   -7.5427    1.1949    0.0000 O   0  0  0  0  0  0  0  0  0  0  0  0
   -6.8293    3.6932    0.0000 O   0  0  0  0  0  0  0  0  0  0  0  0
  1  2  2  0
  2  3  1  0
  2  4  1  0
  4  5  1  0
  5  6  1  0
  6  7  1  0
  7  8  1  1
  7  9  1  0
  9 10  1  0
 10 11  1  0
 11 12  1  0
 12 13  1  0
 13 14  1  0
 14 15  1  1
 14 16  1  0
 16 17  1  0
 17 18  1  0
 18 19  1  6
 19 20  1  0
 19 21  1  0
 19 22  1  0
 18 23  1  0
 13 24  1  1
 24 25  1  0
 25 26  1  0
 26 27  1  6
  9 28  1  0
 28 29  1  1
 28 30  1  0
 30 31  1  0
 31 32  1  0
 32 33  2  0
 32 34  1  0
 28  4  1  0
 26  7  1  0
 26 12  1  0
 23 14  1  0
M  END
>  <identifier>  (1006) 
CNP0215020.5

>  <canonical_smiles>  (1006) 
C=C(C)C1CC[C@]2(C)C(CCC3[C@@H]([C@]4(C)CC[C@H](C(C)(C)O)O4)CC[C@]32C)[C@@]1(C)CCC(=O)O

>  <standard_inchi>  (1006) 
InChI=1S/C30H50O4/c1-19(2)20-11-17-29(7)23(27(20,5)15-14-25(31)32)10-9-21-22(12-16-28(21,29)6)30(8)18-13-24(34-30)26(3,4)33/h20-24,33H,1,9-18H2,2-8H3,(H,31,32)/t20?,21?,22-,23?,24+,27-,28+,29+,30-/m0/s1

>  <standard_inchi_key>  (1006) 
ZKBGKWZSOPPDSD-XAGCDGRDSA-N

>  <name>  (1006) 
nan

>  <iupac_name>  (1006) 
3-[(3~{S},6~{S},9~{a}~{R},9~{b}~{R})-3-[(2~{S},5~{R})-5-(1-hydroxy-1-methyl-ethyl)-2-methyl-tetrahydrofuran-2-yl]-7-isopropenyl-6,9~{a},9~{b}-trimethyl-1,2,3,3~{a},4,5,5~{a},7,8,9-decahydrocyclopenta[a]naphthalen-6-yl]propanoic acid

>  <annotation_level>  (1006) 
4

>  <total_atom_count>  (1006) 
84

>  <heavy_atom_count>  (1006) 
34

>  <molecular_weight>  (1006) 
474.73

>  <exact_molecular_weight>  (1006) 
474.37091

>  <molecular_formula>  (1006) 
C30H50O4

>  <alogp>  (1006) 
7.00

>  <topological_polar_surface_area>  (1006) 
66.76

>  <rotatable_bond_count>  (1006) 
6

>  <hydrogen_bond_acceptors>  (1006) 
3

>  <hydrogen_bond_donors>  (1006) 
2

>  <hydrogen_bond_acceptors_lipinski>  (1006) 
3

>  <hydrogen_bond_donors_lipinski>  (1006) 
2

>  <lipinski_rule_of_five_violations>  (1006) 
1

>  <aromatic_rings_count>  (1006) 
0

>  <qed_drug_likeliness>  (1006) 
0.41

>  <formal_charge>  (1006) 
0

>  <fractioncsp3>  (1006) 
0.90

>  <number_of_minimal_rings>  (1006) 
4

>  <van_der_walls_volume>  (1006) 
nan

>  <contains_sugar>  (1006) 
False

>  <contains_ring_sugars>  (1006) 
False

>  <contains_linear_sugars>  (1006) 
False

>  <murcko_framework>  (1006) 
O1CCCC1C2CCC3C4CCCCC4CCC23

>  <np_likeness>  (1006) 
2.90

>  <chemical_class>  (1006) 
Prenol lipids

>  <chemical_sub_class>  (1006) 
Terpene glycosides

>  <chemical_super_class>  (1006) 
Lipids and lipid-like molecules

>  <direct_parent_classification>  (1006) 
Diterpene glycosides

>  <np_classifier_pathway>  (1006) 
Terpenoids

>  <np_classifier_superclass>  (1006) 
Triterpenoids

>  <np_classifier_class>  (1006) 
Dammarane and Protostane triterpenoids

>  <np_classifier_is_glycoside>  (1006) 
False

>  <organisms>  (1006) 
Cabralea canjerana

>  <collections>  (1006) 
Latin America dataset|NuBBEDB

>  <dois>  (1006) 
10.1016/j.bse.2005.10.012

>  <synonyms>  (1006) 
20S24R-epoxy-25-hydroxy-34-secodammar-4(28)-en-3-oic acid

>  <cas>  (1006) 
nan

$$$$

     RDKit          2D

 26 31  0  0  0  0  0  0  0  0999 V2000
   -3.5976    1.3936    0.0000 C   0  0  0  0  0  0  0  0  0  0  0  0
   -5.0361    1.8185    0.0000 C   0  0  0  0  0  0  0  0  0  0  0  0
   -6.1234    0.7852    0.0000 C   0  0  0  0  0  0  0  0  0  0  0  0
   -5.7721   -0.6731    0.0000 C   0  0  0  0  0  0  0  0  0  0  0  0
   -4.3336   -1.0981    0.0000 C   0  0  0  0  0  0  0  0  0  0  0  0
   -3.2463   -0.0647    0.0000 C   0  0  0  0  0  0  0  0  0  0  0  0
   -1.8078   -0.4897    0.0000 C   0  0  0  0  0  0  0  0  0  0  0  0
   -1.3060   -1.9033    0.0000 O   0  0  0  0  0  0  0  0  0  0  0  0
    0.1935   -1.8629    0.0000 C   0  0  0  0  0  0  0  0  0  0  0  0
    0.6184   -0.4243    0.0000 C   0  0  0  0  0  0  0  0  0  0  0  0
   -0.6184    0.4243    0.0000 C   0  0  0  0  0  0  0  0  0  0  0  0
   -0.1935    1.8629    0.0000 C   0  0  0  0  0  0  0  0  0  0  0  0
    1.3060    1.9033    0.0000 O   0  0  0  0  0  0  0  0  0  0  0  0
    1.8078    0.4897    0.0000 C   0  0  0  0  0  0  0  0  0  0  0  0
    3.2463    0.0647    0.0000 C   0  0  0  0  0  0  0  0  0  0  0  0
    3.5976   -1.3936    0.0000 C   0  0  0  0  0  0  0  0  0  0  0  0
    5.0361   -1.8185    0.0000 C   0  0  0  0  0  0  0  0  0  0  0  0
    6.1234   -0.7852    0.0000 C   0  0  0  0  0  0  0  0  0  0  0  0
    7.6189   -0.9017    0.0000 O   0  0  0  0  0  0  0  0  0  0  0  0
    8.1919    0.4845    0.0000 C   0  0  0  0  0  0  0  0  0  0  0  0
    7.0505    1.4578    0.0000 O   0  0  0  0  0  0  0  0  0  0  0  0
    5.7721    0.6731    0.0000 C   0  0  0  0  0  0  0  0  0  0  0  0
    4.3336    1.0981    0.0000 C   0  0  0  0  0  0  0  0  0  0  0  0
   -7.0505   -1.4578    0.0000 O   0  0  0  0  0  0  0  0  0  0  0  0
   -8.1919   -0.4845    0.0000 C   0  0  0  0  0  0  0  0  0  0  0  0
   -7.6189    0.9017    0.0000 O   0  0  0  0  0  0  0  0  0  0  0  0
  1  2  2  0
  2  3  1  0
  3  4  2  0
  4  5  1  0
  5  6  2  0
  7  6  1  6
  7  8  1  0
  8  9  1  0
 10  9  1  1
 10 11  1  0
 11 12  1  1
 12 13  1  0
 13 14  1  0
 14 15  1  6
 15 16  2  0
 16 17  1  0
 17 18  2  0
 18 19  1  0
 19 20  1  0
 20 21  1  0
 21 22  1  0
 22 23  2  0
  4 24  1  0
 24 25  1  0
 25 26  1  0
  6  1  1  0
 11  7  1  0
 23 15  1  0
 26  3  1  0
 14 10  1  0
 22 18  1  0
M  END
>  <identifier>  (1007) 
CNP0123354.3

>  <canonical_smiles>  (1007) 
C1=CC2=C(C=C1[C@H]1OC[C@H]3[C@@H]1CO[C@@H]3C1=CC=C3OCOC3=C1)OCO2

>  <standard_inchi>  (1007) 
InChI=1S/C20H18O6/c1-3-15-17(25-9-23-15)5-11(1)19-13-7-22-20(14(13)8-21-19)12-2-4-16-18(6-12)26-10-24-16/h1-6,13-14,19-20H,7-10H2/t13-,14-,19+,20+/m0/s1

>  <standard_inchi_key>  (1007) 
PEYUIKBAABKQKQ-AFHBHXEDSA-N

>  <name>  (1007) 
sesamin

>  <iupac_name>  (1007) 
5-[(3~{S},3~{a}~{R},6~{S},6~{a}~{R})-6-(1,3-benzodioxol-5-yl)-1,3,3~{a},4,6,6~{a}-hexahydrofuro[3,4-c]furan-3-yl]-1,3-benzodioxole

>  <annotation_level>  (1007) 
5

>  <total_atom_count>  (1007) 
44

>  <heavy_atom_count>  (1007) 
26

>  <molecular_weight>  (1007) 
354.36

>  <exact_molecular_weight>  (1007) 
354.11034

>  <molecular_formula>  (1007) 
C20H18O6

>  <alogp>  (1007) 
3.22

>  <topological_polar_surface_area>  (1007) 
55.38

>  <rotatable_bond_count>  (1007) 
2

>  <hydrogen_bond_acceptors>  (1007) 
6

>  <hydrogen_bond_donors>  (1007) 
0

>  <hydrogen_bond_acceptors_lipinski>  (1007) 
6

>  <hydrogen_bond_donors_lipinski>  (1007) 
0

>  <lipinski_rule_of_five_violations>  (1007) 
0

>  <aromatic_rings_count>  (1007) 
2

>  <qed_drug_likeliness>  (1007) 
0.83

>  <formal_charge>  (1007) 
0

>  <fractioncsp3>  (1007) 
0.40

>  <number_of_minimal_rings>  (1007) 
6

>  <van_der_walls_volume>  (1007) 
297.52

>  <contains_sugar>  (1007) 
False

>  <contains_ring_sugars>  (1007) 
False

>  <contains_linear_sugars>  (1007) 
False

>  <murcko_framework>  (1007) 
O1c2ccc(cc2OC1)C3OCC4C(OCC34)c5ccc6OCOc6c5

>  <np_likeness>  (1007) 
0.75

>  <chemical_class>  (1007) 
Furanoid lignans

>  <chemical_sub_class>  (1007) 
Furan lignans

>  <chemical_super_class>  (1007) 
Lignans, neolignans and related compounds

>  <direct_parent_classification>  (1007) 
Furan lignans

>  <np_classifier_pathway>  (1007) 
Shikimates and Phenylpropanoids

>  <np_classifier_superclass>  (1007) 
Lignans

>  <np_classifier_class>  (1007) 
Furofuranoid lignans

>  <np_classifier_is_glycoside>  (1007) 
False

>  <organisms>  (1007) 
Abies webbiana|Acanthopanax gracilistylus|Acanthopanax sessiliflorum|Acanthosyris paulo-alvinii|Acanthothamnus aphyllus|Acanthus mollis|Achillea ageratifolia|Achillea biserrata|Achillea clavennae|Achillea magnifica|Achillea millefolium|Achillea sipikorensis|Achillea spirokensis|Acicarpha tribuloides|Aconitum episcopale|Aconitum palmatum|Aconitum tianschanicum|Actinodaphne acuminata|Actinodaphne longifolia|Agaricus xanthodermus|Ageratina virburnoides|Ageratum Conyzoides|Ageratum conyzoides|Aglaia perviridis|Aiouea montana|Aiouea trinervis|Albatrellus caeruleoporus|Alectoria rigida|Alstonia undulifolia|Amanita pseudoporphyria|Amanoa oblongifolia|Anacyclus pyrethrum|Anacyclus sp.|Aniba rosaeodora|Anthotroche blackii|Antrodia camphorata|Antrodia cinnamomea|Apis|Apis species|Aplysilla rosea|Aplysinella rhax|Apollonias barbujana|Aptosimum spinescens|Arbacia pustulosa|Ardisia arborescens|Ardisia japonica|Ariocarpus fissuratus|Aristolochia acuminata|Aristolochia flos-avis|Aristolochia pubescens|Aristolochia tagala|Armillaria edodes|Arnebia decumbens|Aromia moschata|Artabotrys uncinatus|Artemisia Capillaris|Artemisia absinthium|Artemisia arborescens|Artemisia argentea|Artemisia capillaris|Artemisia caruifolia|Artemisia carvifolia|Artemisia giraldii|Artemisia gorgonum|Artemisia mongolica|Artemisia rutifolia|Artemisia siversiana|Artemisia sp.|Asarum Maximum|Asarum heterotropoides|Asarum heterotropoides var. mandshuricum|Asarum maximum|Asarum sieboldii|Asiasarum heterotropoides|Asiasarum sieboldii|Asiasarum sp.|Asteriscus aquaticus|Athrotaxis selaginoides|Berkheya rhapontica|Betula alnoides|Betula platyphylla|Bidens tripartita|Boronella pancheri|Boronia pancheri|Briareum asbestinum|Brickellia longifolia|Bridelia Retusa|Bridelia retusa|Brunsvigia orientalis|Bryonopsis laciniosa|Buddleja cordata|Buddleja sessiliflora|Bupleurum rigidum|Cacalia robusta|Cacia concinna|Callicarpa furfuracea|Calocedrus formosana|Camellia oleifera|Capparis ovata|Carpesium faberi|Carpesium longifolium|Caryodaphnopsis baviensis|Cassine papillosa|Catalpa bignonioides|Catalpa ovata|Centaurea arbutifolia|Centaurea musimomum|Cephalotaxus hainanensis|Ceratotheca sesamoides|Ceratotheca triloba|Chamaecyparis obtusa|Charpentiera obovata|Chlamydomonas allensworthii|Chrysanthemum cinerariifolium|Cinnamomum Camphora|Cinnamomum camphora|Cinnamomum kotoense|Cinnamomum subavenium|Cinnamomum tenuifolium|Cinnamomum triplinerve|Cladonia pityrea|Cladrastis kentukea|Clathria prolifera|Claviceps microcephala|Cleistanthus collinus|Cleistanthus patulus|Cleome gynandra|Clerodendrum cyrtophyllum|Clerodendrum trichotomum|Cochlearia officinalis|Codonopsis cordifolioidea|Coelogyne nitida|Coleonema pulchellum|Coleus scutellarioides|Commiphora sp.|Conus pulicarius|Cortinarius viola|Corydalis sewerzowi|Corydalis suaveolens|Corymbia citriodora|Corymbia scabrida|Cota saguramica|Crematogaster africana|Crinum stuhlmannii|Crocus corsicus|Crotalaria mitchellii|Croton montevidensis|Cryptocarya angulata|Cryptolestes pusillus|Cucumis sativus|Cuscuta Australis|Cuscuta Japonica|Cuscuta australis|Cuscuta chinensis|Cuscuta japonica|Cystoseira barbatula|Daemonorops draco|Dahlstedtia pentaphylla|Daphne genkwa|Daphne sp.|Datisca glomerata|Dendranthema sp.|Dicerocaryum zanguebarium|Dichotomanthes tristaniicarpa|Didymosphaeria enalia|Digitalis purpurea|Dinosperma stipitatum|Dioscorea olfersiana|Diospyros melanoxylon|Dittrichia viscosa|Dracaena ombet|Dracontium loretense|Drimys sp.|Drimys winteri|Dryobalanops camphora|Ecballium elaterium|Echinus microtuberculatus|Ecionemia geodides|Eleutherococcus|Eleutherococcus divaricatus var. albeofructus|Eleutherococcus divaricatus var. chiisanensis|Eleutherococcus gracilistylus|Eleutherococcus obovatus|Eleutherococcus senticosus|Eleutherococcus sessiliflorus|Eleutherococcus sp.|Eminium lehmannii|Endiandra xanthocarpa|Eperua bijuga|Eremophila phyllopoda|Erium villosum|Erylus nobilis|Erythranthe cardinalis|Esenbeckia leiocarpa|Ethulia conyzoides|Eucalyptus citriodora|Eucalyptus hybrid|Eucalyptus perriniana|Euodia micrococca|Euphausia superba|Euphorbia wangii|Eurhynchium striatum|Excoecaria acerifolia|Fagara chalybea|Fagara heitzii|Fagara macrophylla|Fagara rhetze|Fagara xanthoxyloides|Fagus fusca|Ferula gummosa|Fleischmannia hymenophylla|Fleischmannia microstemon|Fleischmannia pratensis|Flemingia philippinensis|Flindersia amboinensis|Forsythia suspensa|Fragaria|Frullania brasiliensis|Fusarium avenaceum|Fusarium sacchari|Garcinia oligantha|Garrya laurifolia|Genista sessilifolia|Ginkgo biloba|Ginkgo sp.|Glycosmis puberula|Gomphostemma parviflorum|Gonospermum fruticosum|Gonospermum gomerae|Goupia glabra|Gynura japonica|Helichrysum auriceps|Helichrysum oxyphyllum|Helipterum gnaphaloides|Hippobroma longiflora|Holubia saccata|Homalium laurifolium|Houttuynia Cordata|Houttuynia cordata|Hubertia tomentosa|Hydrocotyle Sibthorpioides|Hydrocotyle sibthorpioides|Hypenia salzmannii|Hypericum chinense|Hypericum japonicum|Hyphaene thebaica|Hypoestes purpurea|Hyptis salzmanii|Hyptis tomentosa|Iberodes linifolia|Iotrochota purpurea|Iridaea membranacea|Iris spuria|Iryanthera polyneura|Jatropha mahafalensis|Juniperus communis|Juniperus thurifera|Justicia hyssopifolia|Justicia simplex|Kallichroma tethys|Karenia mikimotoi|Kopsia jasminiflora|Kuloa usambarensis|Laggera alata|Lambertella corni|Lancea tibetica|Lantana camara|Leifsonia aquatica|Lepidorhinus squamosus|Leucanthemopsis pallida|Leucanthemopsis pulverulenta|Libanotis transcaucasica|Ligustrum obtusifolium|Lindera obtusiloba|Lissoclinum japonicum|Lithothamnion corallioides|Lophocolea bidentata|Lotus ucrainicus|Machaerium kuhlmannii|Machilus Thunbergii|Machilus glaucescens|Machilus thunbergii|Magnolia|Magnolia Coco|Magnolia coco|Magnolia denudata|Magnolia grandiflora var. rubra|Magnolia kobus var. borealis|Magnolia mutabilis|Magnolia praecocissima|Magnolia pterocarpa|Magnolia sp.|Magnolia stellata|Markhamia lutea|Markhamia platycalyx|Marsilea quadrifolia|Mastophora hutchinsoni|Matsumurella chinensis|Medinilla magnifica|Melicope stipitata|Mesua ferrea|Metridium senile|Microcos paniculata|Mimulus cardinalis|Monascus rubropunctatus|Monopteryx uaucu|Moringa oleifera|Mucor spinosus|Mycoplasma mycoides|Myelobia smerintha|Myrica arborea|Myristica cagayanensis|Mytilus galloprovincialis|Nectandra amazonum|Nectandra amazonumm|Nectandra turbacensis|Nigella aristata|Nymphaea caerulea|Ocotea usambarensis|Omphalodes linifolia|Onobrychis bobrovii|Onoseris alata|Oocystis polymorpha|Ophidiaster ophidianus|Oplopanax horridus|Otanthus maritimus|Pagrus major|Palisota barteri|Palythoa variabilis|Pandanus boninensis|Papaver persicum|Papilio xuthus|Parmelia vittata|Parmelia weberi|Paulownia taiwaniana|Paulownia tomentosa|Pedalium murex|Penaeus bennettae|Penicillium tardum|Penstemon campanulatus|Peperomia humilis|Peperomia leptostachya|Peperomia pellucida|Peperomia sui|Peperomia vulcanica|Persea kurzii|Pestalotiopsis adusta|Petrosia corticata|Petteria ramentacea|Phaylopsis falcisepala|Phebalium dentatum|Phelline brachyphylla|Philotheca citrina|Phoebe grandis|Phoebe mexicana|Phoma herbarum|Photorhabdus luminescens|Phyllanthus oligospermus|Phyllarthron comorense|Physalis coztomatl|Pinus hartwegii|Pinus parviflora|Piper Longum|Piper Retrofractum|Piper Sarmentosum|Piper acutifolium|Piper austrosinense|Piper brachystachyum|Piper caninum|Piper lanatum|Piper longum|Piper lowong|Piper mullesua|Piper peepuloides|Piper retrofractum|Piper sarmentosum|Piper sintenense|Piper sp.|Piper sylvaticum|Piscidia piscipula|Pithomyces graminicola|Plantago hookeriana|Pocillopora damicornis|Podocarpus brevifolius|Podocarpus minor|Podolepis rugata|Podospora curvicolla|Polygala aureocauda|Polygonum flaccidum|Polypodium vulgare|Potamogeton malaianus|Pothomorphe peltata|Proboscidea louisianica|Protaetia cuprea|Pseudodistoma novaezelandiae|Pseudomonas stutzeri|Pseudomonas syringae|Pseudowintera colorata|Pseudoxandra sclerocarpa|Psilotum nudum|Pterodiscus aurantiacus|Quassia amara|Quercus imbricaria|Raulinoa echinata|Ribes nigrum|Rogeria adenophylla|Rubus chamaemorus|Rubus pileatus|Rubus trifidus|Ruta montana|Saccharothrix mutabilis subsp. capreolus|Salvia amplexicaulis|Salvia verticillata|Samadera bidwillii|Sassafras sp.|Scabiosa rotata|Schefflera venulosa|Schoenocaulon officinale|Scomber japonicus|Scrophularia koelzii|Scrophularia leucoclada|Scytonema ocellatum|Senecio cathcartensis|Senecio magnificus|Senecio zoellneri|Sequoia sempervirens|Sesamothamnus busseanus|Sesamum Indicum|Sesamum alatum|Sesamum angolense|Sesamum angustifolium|Sesamum calycinum|Sesamum capense|Sesamum indicum|Sesamum latifolium|Sesamum orientale|Sesamum pedalioides|Sesamum radiatum|Sesamum rigidum|Sesamum sesamoides|Sesamum sp.|Sesamum triphyllum|Sibthorpia europaea|Sideritis argosphacelus var. spicata|Sideritis canariensis|Sideritis discolor|Sideritis kuegleriana|Sideritis massoniana|Sideritis tenoi|Silene banksia|Sinularia leptoclados|Solanum andigena|Solanum diflorum|Solenostoma triste|Spiracantha cornifolia|Stachyurus praecox|Staehelina fruticosa|Stemona Collinsae|Stemona collinsae|Stevia pilosa|Sticta coronata|Streptomyces|Streptomyces fradiae|Streptomyces naraensis|Streptomyces platensis|Streptomyces roseiscleroticus|Streptomyces sp. IT-44|Strychnos Cathayensis|Strychnos cathayensis|Strychnos psilosperma|Stypandra imbricata|Taiwanofungus camphoratus|Talauma hodgsoni|Talauma hodgsonii|Tanacetum sp.|Taxus mairei|Tolypothrix nodosa|Torenia violacea|Trapa bicornis|Trifolium strepens|Tunica prolifera|Tylophora tanakae|Umbilicaria hypococcinea|Ursinia anethoides|Usnea dasopoga|Vaccinium myrtillus|Vaccinium vitis-idaea|Vallaris heynei|Vellozia streptophylla|Verbesina virginica|Vincetoxicum hirundinaria|Virola carinata|Virola elongata|Virola flexuosa|Virola michelii|Virola multinervia|Virola sebifera|Virola surinamensis|Virola venosa|Vismia baccifera|Vismia guaramirangae|Vitex negundo|Viviparus japonicus|West African Pepper|Xanthium spinosum|Xyris indica|Zanthoxylum Acanthopodium|Zanthoxylum Armatum|Zanthoxylum Nitidum|Zanthoxylum Rhetsa|Zanthoxylum acanthopodium|Zanthoxylum acuminatum|Zanthoxylum alatum|Zanthoxylum americanum|Zanthoxylum armatum|Zanthoxylum arnottianum|Zanthoxylum beecheyanum|Zanthoxylum bungeanum|Zanthoxylum capense|Zanthoxylum caudatum|Zanthoxylum chalybaeum|Zanthoxylum chalybeum|Zanthoxylum ciliatum|Zanthoxylum clava-herculis|Zanthoxylum conspersipunctatum|Zanthoxylum culantrillo|Zanthoxylum gilletii|Zanthoxylum heitzii|Zanthoxylum integrifoliolum|Zanthoxylum integrifolium|Zanthoxylum leprieurii|Zanthoxylum martinicense|Zanthoxylum naranjillo|Zanthoxylum nitidum|Zanthoxylum oxyphyllum|Zanthoxylum petiolare|Zanthoxylum piperitum|Zanthoxylum pluviatile|Zanthoxylum podocarpum|Zanthoxylum rhetsa|Zanthoxylum rhoifolium|Zanthoxylum rubescens|Zanthoxylum setulosum|Zanthoxylum sp.|Zanthoxylum sprucei|Zanthoxylum tetraspermum|Zanthoxylum tingoassuiba|Zanthoxylum usambarense|Zanthoxylum valens|Zanthoxylum zanthoxyloides|Zygosaccharomyces rouxii|borage|sesame

>  <collections>  (1007) 
ANPDB|AfroCancer|AnalytiCon Discovery NPs|Australian natural products|CMAUP (cCollective molecular activities of useful plants)|ChEBI NPs|ChemSpider NPs|KNApSaCK|Latin America dataset|NANPDB (Natural Products from Northern African Sources)|NAPRORE-CR|NPACT|NPASS|NPAtlas|NPEdia|NuBBEDB|Phenol-explorer|Phyto4Health|PhytoLab phyproof® Reference Substances|Super Natural II|TCMDB-Taiwan (Traditional Chinese Medicine database)|TIPdb (database of Taiwan indigenous plants)|VietHerb|WikiData Natural Products

>  <dois>  (1007) 
10.1002/(SICI)1097-0010(199709)75:1<19::AID-JSFA830>3.0.CO;2-C|10.1002/1099-1565(200101/02)12:1<64::AID-PCA562>3.0.CO;2-3|10.1002/1099-1573(200102)15:1<70::AID-PTR671>3.0.CO;2-N|10.1002/ARDP.18962340308|10.1002/ARDP.19162540208|10.1002/CBDV.200800107|10.1002/CHIN.199005299|10.1002/CHIN.200340213|10.1002/HLCA.200390161|10.1002/HLCA.200690013|10.1002/JCCS.198400021|10.1002/JCCS.199300062|10.1002/JCCS.199500107|10.1002/JCCS.199800116|10.1002/JCCS.200000074|10.1002/JCCS.200000077|10.1002/JCCS.200400159|10.1002/JSFA.2740680403|10.1002/PCA.2800050503|10.1002/PTR.5194|10.1002/PTR.686|10.1002/ptr.5194|10.1002/ptr.849|10.1007/978-1-4899-1783-6_3|10.1007/BF00579679|10.1007/BF02266969|10.1007/BF02536287|10.1007/BF02541549|10.1007/BF02660599|10.1007/BF02673792|10.1007/BF02975429|10.1007/S11746-004-0924-5|10.1007/S11746-006-5029-7|10.1007/S11746-997-0159-0|10.1016/0031-9422(73)80486-8|10.1016/0031-9422(80)80197-X|10.1016/0031-9422(88)80056-6|10.1016/0031-9422(88)80289-9|10.1016/0031-9422(88)80760-X|10.1016/0031-9422(88)80792-1|10.1016/0031-9422(89)80155-4|10.1016/0031-9422(89)80275-4|10.1016/0031-9422(89)80372-3|10.1016/0031-9422(89)80393-0|10.1016/0031-9422(90)85020-G|10.1016/0031-9422(90)85106-P|10.1016/0031-9422(90)87120-J|10.1016/0031-9422(90)89065-H|10.1016/0031-9422(91)83055-P|10.1016/0031-9422(91)83210-C|10.1016/0031-9422(91)83459-X|10.1016/0031-9422(94)85101-8|10.1016/0031-9422(95)00261-5|10.1016/0031-9422(95)00464-I|10.1016/0040-4020(80)88051-3|10.1016/0305-1978(85)90071-7|10.1016/0305-1978(92)90104-L|10.1016/0305-1978(94)90037-X|10.1016/0734-9750(93)90042-L|10.1016/J.BMC.2010.03.040|10.1016/J.BMC.2010.10.032|10.1016/J.BMCL.2012.01.136|10.1016/J.BPC.2004.10.001|10.1016/J.FOODCHEM.2006.11.055|10.1016/J.FOODCHEM.2010.09.069|10.1016/J.FOODCHEM.2012.03.133|10.1016/J.JEP.2004.01.022|10.1016/J.JEP.2006.06.004|10.1016/J.JEP.2011.09.039|10.1016/J.PHYTOCHEM.2005.08.019|10.1016/J.PHYTOCHEM.2006.02.026|10.1016/J.PHYTOCHEM.2006.12.015|10.1016/J.PHYTOCHEM.2009.05.011|10.1016/J.PHYTOCHEM.2009.08.007|10.1016/J.PHYTOCHEM.2009.12.013|10.1016/J.PHYTOL.2011.05.004|10.1016/S0021-9673(99)00191-0|10.1016/S0031-9422(00)00402-7|10.1016/S0031-9422(00)80091-6|10.1016/S0031-9422(00)80721-9|10.1016/S0031-9422(00)81525-3|10.1016/S0031-9422(00)81536-8|10.1016/S0031-9422(00)82577-7|10.1016/S0031-9422(00)83172-6|10.1016/S0031-9422(00)83181-7|10.1016/S0031-9422(00)83537-2|10.1016/S0031-9422(00)84703-2|10.1016/S0031-9422(00)89656-9|10.1016/S0031-9422(00)90373-X|10.1016/S0031-9422(00)90847-1|10.1016/S0031-9422(00)95190-2|10.1016/S0031-9422(00)95279-8|10.1016/S0031-9422(00)97884-1|10.1016/S0031-9422(00)97906-8|10.1016/S0031-9422(00)97985-8|10.1016/S0031-9422(00)98080-4|10.1016/S0031-9422(01)00364-8|10.1016/S0031-9422(02)00191-7|10.1016/S0031-9422(02)00623-4|10.1016/S0031-9422(03)00183-3|10.1016/S0031-9422(96)00708-X|10.1016/S0031-9422(96)00720-0|10.1016/S0031-9422(97)00124-6|10.1016/S0031-9422(97)00152-0|10.1016/S0031-9422(97)00199-4|10.1016/S0031-9422(97)00209-4|10.1016/S0031-9422(97)00727-9|10.1016/S0031-9422(97)00747-4|10.1016/S0031-9422(98)00268-4|10.1016/S0031-9422(99)00176-4|10.1016/S0031-9422(99)00486-0|10.1016/S0040-4020(01)98893-3|10.1016/S0367-326X(00)00214-8|10.1016/S0367-326X(01)00265-9|10.1016/S0968-0896(00)00225-X|10.1016/j.bmc.2010.10.032|10.1016/j.bmcl.2012.01.136|10.1016/j.bpc.2004.10.001|10.1021/JF011682S|10.1021/JF052325A|10.1021/JF061694J|10.1021/JF102006W|10.1021/JO010857U|10.1021/NP0105073|10.1021/NP030142H|10.1021/NP050457S|10.1021/NP0580210|10.1021/NP060107L|10.1021/NP060425K|10.1021/NP070045E|10.1021/NP1004483|10.1021/NP200557E|10.1021/NP50037A031|10.1021/NP50040A021|10.1021/NP50042A023|10.1021/NP50067A034|10.1021/NP50121A011|10.1021/NP800474V|10.1021/NP900225P|10.1021/NP900674D|10.1021/NP9702953|10.1021/NP970571D|10.1021/NP980471N|10.1021/np070045e|10.1021/np1004483|10.1021/np200557e|10.1021/np50005a010|10.1021/np900674d|10.1021/np980471n|10.1039/J39690002477|10.1055/S-0028-1088338|10.1055/S-0028-1097189|10.1055/S-0028-1099446|10.1055/S-1999-13965|10.1055/S-1999-14012|10.1055/S-1999-14093|10.1055/S-2003-38877|10.1055/S-2005-871251|10.1055/S-2006-941504|10.1055/S-2006-957846|10.1055/S-2006-957982|10.1055/S-2006-958064|10.1055/S-2006-960893|10.1055/S-2006-960985|10.1055/S-2006-962791|10.1055/S-2007-969511|10.1055/S-2007-969993|10.1055/S-2008-1074556|10.1071/CH9940587|10.1071/ch9610135|10.1071/ch9700133|10.1073/PNAS.0603865103|10.1076/1388-0209(200007)3831-SFT210|10.1080/00021369.1990.10870374|10.1080/10575639608043580|10.1093/JAOAC/83.6.1484|10.1093/JN/135.2.227|10.1093/JN/136.4.906|10.1248/CPB.39.1310|10.1248/CPB.40.2325|10.1248/CPB.40.2639|10.1248/CPB.49.183|10.1248/CPB.50.541|10.1248/CPB.54.149|10.1248/CPB.56.60|10.1248/CPB.56.97|10.1271/BBB1961.54.2669|10.1271/NOGEIKAGAKU1924.69.685|10.1533/9781855737945.236|10.21608/BFSA.1988.73495|10.3109/10915819309140647|10.3109/13880209509088142|10.3403/30305939U|10.3892/IJMM.6.1.43|10.3892/OR.7.6.1213|10.5564/BICCT.V0I6.1105|10.7164/ANTIBIOTICS.47.487

>  <synonyms>  (1007) 
nan

>  <cas>  (1007) 
607-80-7|81602-22-4

$$$$

     RDKit          2D

 25 29  0  0  0  0  0  0  0  0999 V2000
   -6.2923    2.3242    0.0000 C   0  0  0  0  0  0  0  0  0  0  0  0
   -5.4474    1.0848    0.0000 C   0  0  0  0  0  0  0  0  0  0  0  0
   -6.0983   -0.2666    0.0000 O   0  0  0  0  0  0  0  0  0  0  0  0
   -3.9516    1.1967    0.0000 O   0  0  0  0  0  0  0  0  0  0  0  0
   -3.1067   -0.0427    0.0000 C   0  0  0  0  0  0  0  0  0  0  0  0
   -3.7576   -1.3941    0.0000 C   0  0  0  0  0  0  0  0  0  0  0  0
   -2.9128   -2.6335    0.0000 C   0  0  0  0  0  0  0  0  0  0  0  0
   -1.4169   -2.5215    0.0000 C   0  0  0  0  0  0  0  0  0  0  0  0
   -0.7660   -1.1701    0.0000 C   0  0  0  0  0  0  0  0  0  0  0  0
   -1.6109    0.0693    0.0000 C   0  0  0  0  0  0  0  0  0  0  0  0
   -0.9600    1.4207    0.0000 C   0  0  0  0  0  0  0  0  0  0  0  0
    0.5359    1.5327    0.0000 C   0  0  0  0  0  0  0  0  0  0  0  0
    1.5725    2.6168    0.0000 O   0  0  0  0  0  0  0  0  0  0  0  0
    2.9239    1.9658    0.0000 C   0  0  0  0  0  0  0  0  0  0  0  0
    4.2449    2.6765    0.0000 O   0  0  0  0  0  0  0  0  0  0  0  0
    2.7225    0.4794    0.0000 C   0  0  0  0  0  0  0  0  0  0  0  0
    4.1623    0.9000    0.0000 C   0  0  0  0  0  0  0  0  0  0  0  0
    1.2465    0.2117    0.0000 C   0  0  0  0  0  0  0  0  0  0  0  0
    0.7404   -1.2003    0.0000 C   0  0  0  0  0  0  0  0  0  0  0  0
    1.7103   -2.3446    0.0000 C   0  0  0  0  0  0  0  0  0  0  0  0
    3.1862   -2.0769    0.0000 C   0  0  0  0  0  0  0  0  0  0  0  0
    3.6923   -0.6649    0.0000 C   0  0  0  0  0  0  0  0  0  0  0  0
    5.1682   -0.3972    0.0000 O   0  0  0  0  0  0  0  0  0  0  0  0
    2.8746   -0.7619    0.0000 O   0  0  0  0  0  0  0  0  0  0  0  0
    1.5401   -1.0040    0.0000 C   0  0  0  0  0  0  0  0  0  0  0  0
  1  2  1  0
  2  3  2  0
  2  4  1  0
  5  4  1  6
  5  6  1  0
  6  7  1  0
  7  8  1  0
  8  9  1  0
  9 10  1  0
 10 11  1  0
 12 11  1  1
 12 13  1  0
 13 14  1  0
 14 15  2  0
 14 16  1  0
 16 17  1  6
 16 18  1  0
 18 19  1  0
 19 20  1  0
 20 21  1  0
 21 22  1  0
 22 23  1  0
 22 24  1  0
 24 25  1  0
 10  5  1  0
 18 12  1  0
 25 19  1  0
 19  9  1  1
 22 16  1  0
M  END
>  <identifier>  (1008) 
CNP0080633.1

>  <canonical_smiles>  (1008) 
CC(=O)O[C@H]1CCCC2C1C[C@H]1OC(=O)[C@]3(C)C1[C@]21CCC3(O)OC1

>  <standard_inchi>  (1008) 
InChI=1S/C19H26O6/c1-10(20)24-13-5-3-4-12-11(13)8-14-15-17(2,16(21)25-14)19(22)7-6-18(12,15)9-23-19/h11-15,22H,3-9H2,1-2H3/t11?,12?,13-,14+,15?,17-,18-,19?/m0/s1

>  <standard_inchi_key>  (1008) 
RMVWYAHHKXGCPY-BMBLBSSZSA-N

>  <name>  (1008) 
[(1~{S},6~{S},9~{R},12~{R})-13-hydroxy-12-methyl-11-oxo-10,14-dioxapentacyclo[11.2.2.1^{1,9}.0^{2,7}.0^{12,18}]octadecan-6-yl] acetate

>  <iupac_name>  (1008) 
[(1~{S},6~{S},9~{R},12~{R})-13-hydroxy-12-methyl-11-oxo-10,14-dioxapentacyclo[11.2.2.1^{1,9}.0^{2,7}.0^{12,18}]octadecan-6-yl] acetate

>  <annotation_level>  (1008) 
3

>  <total_atom_count>  (1008) 
51

>  <heavy_atom_count>  (1008) 
25

>  <molecular_weight>  (1008) 
350.41

>  <exact_molecular_weight>  (1008) 
350.17294

>  <molecular_formula>  (1008) 
C19H26O6

>  <alogp>  (1008) 
1.78

>  <topological_polar_surface_area>  (1008) 
82.06

>  <rotatable_bond_count>  (1008) 
1

>  <hydrogen_bond_acceptors>  (1008) 
6

>  <hydrogen_bond_donors>  (1008) 
1

>  <hydrogen_bond_acceptors_lipinski>  (1008) 
6

>  <hydrogen_bond_donors_lipinski>  (1008) 
1

>  <lipinski_rule_of_five_violations>  (1008) 
0

>  <aromatic_rings_count>  (1008) 
0

>  <qed_drug_likeliness>  (1008) 
0.73

>  <formal_charge>  (1008) 
0

>  <fractioncsp3>  (1008) 
0.90

>  <number_of_minimal_rings>  (1008) 
6

>  <van_der_walls_volume>  (1008) 
nan

>  <contains_sugar>  (1008) 
False

>  <contains_ring_sugars>  (1008) 
False

>  <contains_linear_sugars>  (1008) 
False

>  <murcko_framework>  (1008) 
O1CC2C3OCC4(CC3)C5CCCCC5CC1C24

>  <np_likeness>  (1008) 
3.10

>  <chemical_class>  (1008) 
Naphthopyrans

>  <chemical_sub_class>  (1008) 
Naphthopyrans

>  <chemical_super_class>  (1008) 
Organoheterocyclic compounds

>  <direct_parent_classification>  (1008) 
Naphthopyrans

>  <np_classifier_pathway>  (1008) 
Terpenoids

>  <np_classifier_superclass>  (1008) 
Diterpenoids

>  <np_classifier_class>  (1008) 
Norpimarane and Norisopimarane diterpenoids

>  <np_classifier_is_glycoside>  (1008) 
True

>  <organisms>  (1008) 
Casimirella rupestris|Humirianthera rupestris

>  <collections>  (1008) 
Latin America dataset|NuBBEDB|WikiData Natural Products

>  <dois>  (1008) 
10.1016/S0031-9422(00)98552-2

>  <synonyms>  (1008) 
nan

>  <cas>  (1008) 
nan

$$$$

     RDKit          2D

 31 33  0  0  0  0  0  0  0  0999 V2000
    5.2267   -4.5539    0.0000 C   0  0  0  0  0  0  0  0  0  0  0  0
    5.5098   -3.0809    0.0000 O   0  0  0  0  0  0  0  0  0  0  0  0
    4.3757   -2.0992    0.0000 C   0  0  0  0  0  0  0  0  0  0  0  0
    2.9585   -2.5905    0.0000 C   0  0  0  0  0  0  0  0  0  0  0  0
    1.8243   -1.6087    0.0000 C   0  0  0  0  0  0  0  0  0  0  0  0
    0.4071   -2.1000    0.0000 O   0  0  0  0  0  0  0  0  0  0  0  0
    2.1075   -0.1357    0.0000 C   0  0  0  0  0  0  0  0  0  0  0  0
    0.9734    0.8460    0.0000 C   0  0  0  0  0  0  0  0  0  0  0  0
    1.2565    2.3191    0.0000 O   0  0  0  0  0  0  0  0  0  0  0  0
   -0.4439    0.3547    0.0000 C   0  0  0  0  0  0  0  0  0  0  0  0
   -1.5780    1.3365    0.0000 C   0  0  0  0  0  0  0  0  0  0  0  0
   -2.9952    0.8452    0.0000 C   0  0  0  0  0  0  0  0  0  0  0  0
   -4.1293    1.8269    0.0000 C   0  0  0  0  0  0  0  0  0  0  0  0
   -5.5466    1.3356    0.0000 C   0  0  0  0  0  0  0  0  0  0  0  0
   -6.6807    2.3173    0.0000 O   0  0  0  0  0  0  0  0  0  0  0  0
   -6.3976    3.7904    0.0000 C   0  0  0  0  0  0  0  0  0  0  0  0
   -5.8298   -0.1374    0.0000 C   0  0  0  0  0  0  0  0  0  0  0  0
   -7.2470   -0.6287    0.0000 O   0  0  0  0  0  0  0  0  0  0  0  0
   -7.5302   -2.1018    0.0000 C   0  0  0  0  0  0  0  0  0  0  0  0
   -4.6956   -1.1192    0.0000 C   0  0  0  0  0  0  0  0  0  0  0  0
   -4.9788   -2.5922    0.0000 O   0  0  0  0  0  0  0  0  0  0  0  0
   -3.8447   -3.5739    0.0000 C   0  0  0  0  0  0  0  0  0  0  0  0
   -3.2784   -0.6279    0.0000 C   0  0  0  0  0  0  0  0  0  0  0  0
    3.5248    0.3556    0.0000 C   0  0  0  0  0  0  0  0  0  0  0  0
    4.6589   -0.6261    0.0000 C   0  0  0  0  0  0  0  0  0  0  0  0
    6.0761   -0.1348    0.0000 C   0  0  0  0  0  0  0  0  0  0  0  0
    6.3593    1.3382    0.0000 C   0  0  0  0  0  0  0  0  0  0  0  0
    5.2252    2.3199    0.0000 C   0  0  0  0  0  0  0  0  0  0  0  0
    4.4952    3.6304    0.0000 C   0  0  0  0  0  0  0  0  0  0  0  0
    6.3889    3.2663    0.0000 C   0  0  0  0  0  0  0  0  0  0  0  0
    3.8079    1.8286    0.0000 O   0  0  0  0  0  0  0  0  0  0  0  0
  1  2  1  0
  2  3  1  0
  3  4  2  0
  4  5  1  0
  5  6  1  0
  5  7  2  0
  7  8  1  0
  8  9  2  0
  8 10  1  0
 10 11  2  0
 11 12  1  0
 12 13  2  0
 13 14  1  0
 14 15  1  0
 15 16  1  0
 14 17  2  0
 17 18  1  0
 18 19  1  0
 17 20  1  0
 20 21  1  0
 21 22  1  0
 20 23  2  0
  7 24  1  0
 24 25  2  0
 25 26  1  0
 26 27  2  0
 27 28  1  0
 28 29  1  0
 28 30  1  0
 28 31  1  0
 25  3  1  0
 23 12  1  0
 31 24  1  0
M  END
>  <identifier>  (1009) 
CNP0234506.1

>  <canonical_smiles>  (1009) 
COC1=CC(O)=C(C(=O)/C=C/C2=CC(OC)=C(OC)C(OC)=C2)C2=C1C=CC(C)(C)O2

>  <standard_inchi>  (1009) 
InChI=1S/C24H26O7/c1-24(2)10-9-15-18(27-3)13-17(26)21(22(15)31-24)16(25)8-7-14-11-19(28-4)23(30-6)20(12-14)29-5/h7-13,26H,1-6H3/b8-7+

>  <standard_inchi_key>  (1009) 
NPYZCJPNWUTNDN-BQYQJAHWSA-N

>  <name>  (1009) 
nan

>  <iupac_name>  (1009) 
nan

>  <annotation_level>  (1009) 
0

>  <total_atom_count>  (1009) 
57

>  <heavy_atom_count>  (1009) 
31

>  <molecular_weight>  (1009) 
426.47

>  <exact_molecular_weight>  (1009) 
426.16785

>  <molecular_formula>  (1009) 
C24H26O7

>  <alogp>  (1009) 
4.51

>  <topological_polar_surface_area>  (1009) 
83.45

>  <rotatable_bond_count>  (1009) 
7

>  <hydrogen_bond_acceptors>  (1009) 
7

>  <hydrogen_bond_donors>  (1009) 
1

>  <hydrogen_bond_acceptors_lipinski>  (1009) 
7

>  <hydrogen_bond_donors_lipinski>  (1009) 
1

>  <lipinski_rule_of_five_violations>  (1009) 
0

>  <aromatic_rings_count>  (1009) 
2

>  <qed_drug_likeliness>  (1009) 
0.52

>  <formal_charge>  (1009) 
0

>  <fractioncsp3>  (1009) 
0.29

>  <number_of_minimal_rings>  (1009) 
3

>  <van_der_walls_volume>  (1009) 
386.70

>  <contains_sugar>  (1009) 
False

>  <contains_ring_sugars>  (1009) 
False

>  <contains_linear_sugars>  (1009) 
False

>  <murcko_framework>  (1009) 
O1c2c(cccc2CC=Cc3ccccc3)C=CC1

>  <np_likeness>  (1009) 
1.69

>  <chemical_class>  (1009) 
nan

>  <chemical_sub_class>  (1009) 
nan

>  <chemical_super_class>  (1009) 
nan

>  <direct_parent_classification>  (1009) 
nan

>  <np_classifier_pathway>  (1009) 
Shikimates and Phenylpropanoids

>  <np_classifier_superclass>  (1009) 
Flavonoids

>  <np_classifier_class>  (1009) 
Chalcones

>  <np_classifier_is_glycoside>  (1009) 
False

>  <organisms>  (1009) 
Neoraputia magnifica

>  <collections>  (1009) 
Latin America dataset|NuBBEDB|Super Natural II|WikiData Natural Products|ZINC NP

>  <dois>  (1009) 
10.1016/S0031-9422(00)00248-X|10.1016/S0031-9422(97)00140-4|10.1211/JPP.61.02.0017

>  <synonyms>  (1009) 
nan

>  <cas>  (1009) 
nan

$$$$

     RDKit          2D

 23 24  0  0  0  0  0  0  0  0999 V2000
   -6.2987   -0.9521    0.0000 O   0  0  0  0  0  0  0  0  0  0  0  0
   -4.9230   -1.5502    0.0000 C   0  0  0  0  0  0  0  0  0  0  0  0
   -3.7173   -0.6579    0.0000 C   0  0  0  0  0  0  0  0  0  0  0  0
   -2.2867   -1.1089    0.0000 O   0  0  0  0  0  0  0  0  0  0  0  0
   -1.4157    0.1123    0.0000 C   0  0  0  0  0  0  0  0  0  0  0  0
   -0.2922   -0.8816    0.0000 C   0  0  0  0  0  0  0  0  0  0  0  0
   -0.5912   -2.3515    0.0000 O   0  0  0  0  0  0  0  0  0  0  0  0
   -0.3098    1.1257    0.0000 O   0  0  0  0  0  0  0  0  0  0  0  0
    1.1208    0.6747    0.0000 C   0  0  0  0  0  0  0  0  0  0  0  0
    1.4455   -0.7898    0.0000 O   0  0  0  0  0  0  0  0  0  0  0  0
    2.8761   -1.2408    0.0000 C   0  0  0  0  0  0  0  0  0  0  0  0
    3.2008   -2.7052    0.0000 C   0  0  0  0  0  0  0  0  0  0  0  0
    2.0949   -3.7186    0.0000 O   0  0  0  0  0  0  0  0  0  0  0  0
    3.9820   -0.2274    0.0000 C   0  0  0  0  0  0  0  0  0  0  0  0
    5.4126   -0.6784    0.0000 O   0  0  0  0  0  0  0  0  0  0  0  0
    3.6573    1.2371    0.0000 C   0  0  0  0  0  0  0  0  0  0  0  0
    4.7631    2.2505    0.0000 O   0  0  0  0  0  0  0  0  0  0  0  0
    2.2267    1.6881    0.0000 C   0  0  0  0  0  0  0  0  0  0  0  0
    1.9020    3.1525    0.0000 O   0  0  0  0  0  0  0  0  0  0  0  0
   -2.3080    1.3180    0.0000 C   0  0  0  0  0  0  0  0  0  0  0  0
   -1.8570    2.7486    0.0000 O   0  0  0  0  0  0  0  0  0  0  0  0
   -3.7304    0.8420    0.0000 C   0  0  0  0  0  0  0  0  0  0  0  0
   -4.9516    1.7130    0.0000 O   0  0  0  0  0  0  0  0  0  0  0  0
  1  2  1  0
  3  2  1  6
  3  4  1  0
  4  5  1  0
  5  6  1  1
  6  7  1  0
  5  8  1  0
  9  8  1  6
  9 10  1  0
 10 11  1  0
 11 12  1  1
 12 13  1  0
 11 14  1  0
 14 15  1  6
 14 16  1  0
 16 17  1  1
 16 18  1  0
 18 19  1  6
  5 20  1  0
 20 21  1  6
 20 22  1  0
 22 23  1  1
 22  3  1  0
 18  9  1  0
M  END
>  <identifier>  (1010) 
CNP0208561.1

>  <canonical_smiles>  (1010) 
OC[C@H]1O[C@@](CO)(O[C@H]2O[C@H](CO)[C@@H](O)[C@H](O)[C@H]2O)[C@@H](O)[C@@H]1O

>  <standard_inchi>  (1010) 
InChI=1S/C12H22O11/c13-1-4-6(16)8(18)9(19)11(21-4)23-12(3-15)10(20)7(17)5(2-14)22-12/h4-11,13-20H,1-3H2/t4-,5-,6-,7-,8+,9-,10+,11-,12+/m1/s1

>  <standard_inchi_key>  (1010) 
CZMRCDWAGMRECN-UGDNZRGBSA-N

>  <name>  (1010) 
sucrose

>  <iupac_name>  (1010) 
(2~{R},3~{R},4~{S},5~{S},6~{R})-2-[(2~{S},3~{S},4~{S},5~{R})-3,4-dihydroxy-2,5-bis(hydroxymethyl)tetrahydrofuran-2-yl]oxy-6-(hydroxymethyl)tetrahydropyran-3,4,5-triol

>  <annotation_level>  (1010) 
5

>  <total_atom_count>  (1010) 
45

>  <heavy_atom_count>  (1010) 
23

>  <molecular_weight>  (1010) 
342.3

>  <exact_molecular_weight>  (1010) 
342.11621

>  <molecular_formula>  (1010) 
C12H22O11

>  <alogp>  (1010) 
-5.40

>  <topological_polar_surface_area>  (1010) 
189.53

>  <rotatable_bond_count>  (1010) 
5

>  <hydrogen_bond_acceptors>  (1010) 
11

>  <hydrogen_bond_donors>  (1010) 
8

>  <hydrogen_bond_acceptors_lipinski>  (1010) 
11

>  <hydrogen_bond_donors_lipinski>  (1010) 
8

>  <lipinski_rule_of_five_violations>  (1010) 
2

>  <aromatic_rings_count>  (1010) 
0

>  <qed_drug_likeliness>  (1010) 
0.24

>  <formal_charge>  (1010) 
0

>  <fractioncsp3>  (1010) 
1.00

>  <number_of_minimal_rings>  (1010) 
2

>  <van_der_walls_volume>  (1010) 
282.29

>  <contains_sugar>  (1010) 
True

>  <contains_ring_sugars>  (1010) 
True

>  <contains_linear_sugars>  (1010) 
False

>  <murcko_framework>  (1010) 
O1CCCCC1OC2OCCC2

>  <np_likeness>  (1010) 
2.14

>  <chemical_class>  (1010) 
Organooxygen compounds

>  <chemical_sub_class>  (1010) 
Ethers

>  <chemical_super_class>  (1010) 
Organic oxygen compounds

>  <direct_parent_classification>  (1010) 
Ketals

>  <np_classifier_pathway>  (1010) 
Carbohydrates

>  <np_classifier_superclass>  (1010) 
Saccharides

>  <np_classifier_class>  (1010) 
Disaccharides

>  <np_classifier_is_glycoside>  (1010) 
True

>  <organisms>  (1010) 
Abedus herberti|Abelmoschus esculentus|Acacia farnesiana|Acacia lasiopetala|Acacia mearnsii|Acanthopanax Senticosus|Acanthospermum hispidum|Acer negundo|Aconitum japonicum|Actaea dahurica|Actinidia arguta|Actinidia chinensis|Actinidia hemsleyana|Actinidia polygama|Adesmia boronioides|Afrocarpus gracilior|Agaricus bisporus|Agathis macrophylla|Agave xylonacantha|Agrobacterium aurantiacum|Agrobacterium tumefaciens|Alaria angusta|Alexandrium peruvianum|Allium ampeloprasum|Allium ascalonicum|Allium cepa|Allium fistulosum|Allium sativum|Allium schoenoprasum|Allium stipitatum|Allium suworowii|Aloe Vera|Aloe africana|Aloe ferox|Aloe spicata|Aloe vera|Alstonia muelleriana|Alstonia pittieri|Alstonia scholaris|Amaranthus cruentus|American ginseng|Amomum villosum|Amsonia grandiflora|Anabaena laxa|Anacardium occidentale|Ananas comosus|Andrachne|Androcymbium palaestinum|Angelica sinensis|Angiopteris evecta|Ankistrodesmus braunii|Annona cherimola|Annona muricata|Annona squamosa|Anoectochilus formosanus|Anthemis cretica|Anthriscus cerefolium|Antiphiona pinnatisecta|Aphanoascus terreus|Apiaceae|Apium graveolens|Aplidiopsis confluata|Arachis hypogaea|Arachniodes exilis|Arachniodes standishii|Aralia decaisneana|Araucaria bidwillii|Arbutus unedo|Arctium lappa|Aristolochia arcuata|Aristolochia baetica|Armoracia rusticana|Arnica montana|Aronia melanocarpa|Artemisia argentea|Artemisia cina|Artemisia incanescens|Artocarpus altilis|Artocarpus heterophyllus|Ascoseira mirabilis|Ashitaba|Asparagus officinalis|Asphodeline damascena|Astragalus Membranaceus|Astragalus arequipensis|Astragalus membranaceus|Astragalus mongholicus|Astragalus pterocephalus|Aucklandia costus|Aucklandia lappa|Avena sativa|Averrhoa carambola|Banisteriopsis caapi|Benincasa hispida|Berberis repens|Berchemia floribunda|Berchemia racemosa|Bertholletia excelsa|Beta Vulgaris|Beta vulgaris|Boerhavia diffusa|Bolboschoenus maritimus|Boletus pini|Bombax ceiba|Bombax malabaricum|Bombus pascuorum|Bos taurus|Boscia salicifolia|Bothriocline laxa|Brassica alboglabra|Brassica juncea|Brassica napus|Brassica oleracea|Brassica oleracea var. sabauda|Brassica rapa|Brassica ruvo|Breea segeta|Brodiaea californica|Broussonetia kazinoki|Broussonetia papyrifera|Bryothamnion triquetrum|Buddleja cordata|Buddleja yunnanensis|Bunium ferulaceum|Bunium incrassatum|Bunium pachypodum|Bupleurum chinense|Bupleurum falcatum|Bupleurum scorzonerifolium|Burkholderia cepacia|Byrsonima crassifolia|Caenorhabditis elegans|Cajanus cajan|Callicarpa americana|Caloboletus calopus|Calophyllum inophyllum|Camellia sinensis|Canavalia ensiformis|Cannabis sativa|Cantharellus cibarius|Capparis spinosa|Capsicum annum L.|Capsicum annuum|Caragana microphylla|Carica papaya|Carum carvi|Carya illinoinensis|Castela texana|Castela tortuosa|Catalpa bignonioides|Catharanthus roseus|Cathormion altissimum|Ceiba speciosa|Centaurea iberica|Centaurea pseudoscabiosa|Centaurea solstitialis|Centrosema pubescens|Cephalanthus occidentalis|Cephalaria kotschyi|Cephalaria nachiczevanica|Cephalaria procera|Ceratonia siliqua|Ceroplastes pseudoceriferus|Chaetomella raphigera|Chamaecyparis lawsoniana|Chara ceratophylla|Chlamydomonas reinhardtii|Chlorurus gibbus|Chondrus crispus|Chrysanthemum coronarium|Chrysanthemum foeniculaceum|Chrysanthemum indicum|Chrysanthemum x morifolium|Cicer arietinum|Cichorium endivia|Cichorium intybus|Cinnamomum aromaticum|Cirsium setosum|Citrullus lanatus|Citrus aurantiifolia|Citrus latifolia|Citrus limon|Citrus paradisi|Citrus reticulata|Citrus sinensis|Cleidion spiciflorum|Clerodendrum mandarinorum|Cocculus laurifolius|Cocos nucifera|Codiaeum variegatum|Codonopsis pilosula|Codonopsis pilosula subsp. tangshen|Coffea arabica|Coffea canephora|Colchicum schimperi|Coleogyne ramosissima|Colocasia esculenta|Corchorus olitorius|Cordia myxa|Cordia trichotoma|Coreopsis nodosa|Coriandrum sativum|Cosmos diversifolius|Crassostrea virginica|Crataegus|Crateva religiosa|Cremastra appendiculata|Crescentia alata|Croton megalocarpus|Croton ruizianus|Cryptocarya oblata|Cryptocarya pleurosperma|Cucumis Sativus|Cucumis melo|Cucumis sativus|Cucurbita foetidissima|Cucurbita maxima|Cucurbita moschata|Cucurbita pepo|Cuminum cyminum|Cupressus sempervirens|Curculigo orchioides|Curcuma caesia|Curcuma longa|Cuscuta salina|Cyanthillium cinereum|Cyathula tomentosa|Cyberlindnera jadinii|Cydonia oblonga|Cymbopogon martinii|Cynanchum maximoviczii|Cynara cardunculus var. scolymus|Cyperus esculentus|Cyperus papyrus|Cystoseira barbata|Cystoseira caespitosa|Cystoseira crinita|Dacrydium cupressinum|Daiswa dunniana|Dalbergia cochinchinensis|Dalbergia melanoxylon|Daphne oleoides|Daucus carota|Delairea odorata|Delphinium geyeri|Dendrobium candidum|Dendrobium catenatum|Dendrobium chrysanthum|Dendrobium chrysotoxum|Dendrobium fimbriatum|Dendrobium fuscescens|Dendrobium loddigesii|Dendrobium moniliforme|Dendrobium nobile|Dendrobium officinale|Dendrobium tosaense|Derris canarensis|Derris cuneifolia|Desmodium canum|Desmodium intortum|Desmodium sandwicense|Desmodium uncinatum|Detarium microcarpum|Digitalis lanata|Dillenia philippinensis|Dimorphotheca aurantiaca|Diospyros kaki|Dipsacus Asper|Dipsacus asper|Dipsacus asperoides|Dipsacus inermis|Dolomiaea costus|Doris obsoleta|Dorstenia brasiliensis|Dovyalis afra|Durio zibethinus|Echium italicum|Ehretia alba|Eleutherococcus senticosus|Elliottia paniculata|Enicosanthum cupulare|Epimedium wushanense|Eragrostis tef|Eriocaulon ligulatum|Eruca vesicaria|Erythrina pallida|Erythrophleum couminga|Escherichia coli|Eschweilera coriacea|Eucalyptus australiana|Eucalyptus kitsoniana|Eucommia ulmoides|Euonymus europaeus|Euphorbia antiquorum|Euphorbia ebracteolata|Euphorbia kansui|Euphorbia lagascae|Euphorbia pulcherrima|Euphorbia sanctae-catharinae|Euphoria longana|Euphrasia rubra|Euryops pedunculatus|Exochorda giraldii|Fagopyrum esculentum|Fagus grandifolia|Feijoa sellowiana|Ficus carica|Flacourtia indica|Flammulina velutipes|Flavoparmelia euplecta|Foeniculum vulgare|Fragaria x ananassa|Ganoderma lucidum|Ganoderma sinense|Garcinia mangostana|Garcinia purpurea|Gastrodia elata|Genista corsica|Genista purgans|Geranium pratense|Geum rivale|Gleichenia japonica|Glossogyne tenuifolia|Glycine Max|Glycine max|Glycine tomentella|Gnathotrichus sulcatus|Gossypium hirsutum|Grateloupia filicina|Grifola frondosa|Gunnera perpensa|Gymnopus androsaceus|Gymnosporia senegalensis|Gynochthodes officinalis|Gypsophila oldhamiana|Haematococcus lacustris|Hansenia forbesii|Hansenia weberbaueriana|Haplophyllum ramosissimum|Harpephyllum afrum|Hedysarum sikkimense|Helianthus Annuus|Helianthus annuus|Helianthus tuberosus|Helicoverpa armigera|Heteropolygonatum alte-lobatum|Hibiscus sabbariffa|Himantoglossum hircinum|Hohenbuehelia serotina|Homo sapiens|Hordeum vulgare|Hordeum vulgare var. distichon|Hovea linearis|Hovenia dulcis|Hubera cerasoides|Hylobius abietis|Hymenocallis littoralis|Hypericum perforatum|Hypholoma capnoides|Hypoxylon rubiginosum|Hypoxylon tinctor|Ichthyothere latifolia|Inga spectabilis|Inga velutina|Ipomoea batatas|Iris nigricans|Isolona campanulata|Jacaranda acutifolia|Jacaranda mimosifolia|Juglans regia|Juncus effusus|Juncus maritimus|Juniperus foetidissima|Kalopanax septemlobus|Kopsia longiflora|Kothala himbutu|Lablab purpureus|Lachnophyllum gossypinum|Lactarius deliciosus var. deterrimus|Lactuca sativa|Lactuca serriola|Lagochilus leiacanthus|Lamium amplexicaule|Lamium moschatum|Lancea tibetica|Laurencia decumbens|Laurencia pacifica|Lens culinaris|Lentinus edodes|Lepidium sativum|Lepidium virginicum|Lepidophorum repandum|Lethasterias fusca|Leucaena leucocephala|Leuconostoc mesenteroides|Ligularia brachyphylla|Ligularia nanchuanica|Ligusticum jeholense|Ligusticum lucidum|Ligusticum porteri|Ligusticum sinense|Ligusticum tenuissimum|Ligustrum lucidum|Lilium japonicum|Lindera sericea|Linum usitatissimum|Listia bainesii|Litchi chinensis|Lonchocarpus longistylus|Lonicera confusa|Lonicera fulvotomentosa|Lonicera hypoglauca|Lonicera macranthoides|Lotononis|Luffa aegyptiaca|Lupinus albus|Lycopersicon Esculentum|Lycopodium japonicum|Lycopodium obscurum|Maackia tashiroi|Maclura pomifera|Macroptilium atropurpureum|Macroptilium lathyroides|Macrotyloma axillare|Malouetia tamaquarina|Malpighia emarginata|Malus pumila|Mammea americana|Mangifera indica|Manihot esculenta|Maranta arundinacea|Markhamia lutea|Markhamia platycalyx|Marsdenia tenacissima|Marsdenia tomentosa|Medicago polymorpha|Medicago sativa|Medicago scutellata|Medicago truncatula|Melanogrammus aeglefinus|Metalasia cymbifolia|Methanosarcina barkeri|Microcos paniculata|Mitragyna inermis|Momordica charantia|Momordica cochinchinensis|Morus alba|Morus bombycis|Morus nigra|Muntingia calabura|Mus musculus|Musa X paradisiaca|Musa acuminata|Mylia taylorii|Myristica fragrans|Myristica malabarica|Myrothamnus flabellifolia|Myrothamnus flabellifolius|Nasturtium officinale|Neonotonia wightii|Neopicrorhiza scrophulariiflora|Neorautanenia ficifolia|Neustanthus phaseoloides|Nicotiana tabacum|Nicotiana undulata|Nigella sativa|Notholaena lemmonii|Notholirion bulbuliferum|Ocimum basilicum|Ocimum pilosum|Olea europaea|Onobrychis cyri|Onobrychis viciifolia|Onychium contiguum C.Hope (1901)|Onychium japonicum|Onychium lucidum|Opuntia cochenillifera|Opuntia ficus-indica|Opuntia macrorhiza|Origanum majorana|Origanum vulgare|Ormosia nobilis|Oryza sativa|Ostericum grosseserratum|Othonna dentata|Oxytropis muricata|Pachyrhizus erosus|Paeonia hybrid|Paeonia lactiflora|Paeonia peregrina|Paeonia suffruticosa|Paeonia veitchii|Panax ginseng|Panax schinseng|Pangium edule|Panicum miliaceum|Papaver somniferum|Paramecium tetraurelia|Passiflora edulis|Passiflora foetida|Passiflora incarnata|Passiflora oerstedii|Pastinaca sativa|Pavonia alba|Pediomelum esculentum|Penicillium chrysogenum|Perilla frutescens|Perriera orientalis|Persea americana|Perymenium berlandieri|Petiveria alliacea|Petroselinum Crispum|Petroselinum crispum|Phaseolus Vulgaris|Phaseolus lunatus|Phaseolus vulgaris|Phelline lucida|Phlojodicarpus sibiricus|Phlomoides rotata|Phoenix dactylifera|Phragmites australis|Phyllanthus sellowianus|Phyllostachys edulis|Physalis philadelphica|Physcomitrella patens|Phytelephas aequatorialis|Phytolacca americana|Picrorhiza kurrooa|Piper nigrum|Piptostigma fugax|Pistacia vera|Pisum sativum|Plagiomnium cuspidatum|Plantago Asiatica|Plantago asiatica|Plectranthus lanuginosus|Plectranthus ornatus|Plectranthus saccatus|Pleiogynium timorense|Pleiogynium timoriense|Pleione bulbocodioides|Pleione yunnanensis|Pleurotus ostreatus|Plinia cauliflora|Plumeria|Pogostemon cablin|Polygala fruticosa|Polygala japonica|Polygonatum sewerzowii|Polytrichum commune|Populus alba|Populus nigra|Populus tremuloides|Populus yunnanensis|Porphyra laciniata|Pouteria sapota|Prunus armeniaca|Prunus avium|Prunus cerasus|Prunus domestica|Prunus dulcis|Prunus padus|Prunus persica|Prunus spinosa|Prunus virginiana|Pseudocyclosorus subochthodes|Pseudocyphellaria rubella|Pseudofumaria lutea|Pseudostellaria heterophylla|Psidium friedrichsthalianum|Psidium guajava|Psila boliviensis|Pteris Multifida|Pteris cretica var. nervosa|Pterocladiella tenuis|Pteryxia terebinthina|Pueraria montana var. lobata|Punica Granatum|Punica granatum|Pyrenula japonica|Pyrrosia Lingua|Pyrrosia Sheareri|Pyrrosia lingua|Pyrus communis|Pyrus pyrifolia|Quercus castaneifolia|Quercus ithaburensis subsp. macrolepis|Raphanus sativus|Rehmannia glutinosa|Rheum rhabarbarum|Rhodanthe maryonii|Rhodiola kirilowii|Rhodobryum ontariense|Rhodococcus fascians|Rhododendron campylocarpum|Rhododendron mucronatum|Rhododendron ungerni|Rhus chinensis|Ribes nigrum|Ribes rubrum|Ribes uva-crispa|Robinsonecio gerberifolius|Roldana angulifolia|Roldana lineolata|Roldana lobata|Rosa transmorrisonensis|Rubia akane|Rubus loganobaccus|Rubus spectabilis|Rubus ursinus|Russula japonica|Sabal blackburniana|Saccharina cichorioides|Saccharomyces cerevisiae|Saccharomyces pastori|Saccharum Officinarum|Salacia oblonga|Salsola collina|Salvia miltiorrhiza|Salvia officinalis|Salvia oxyodon|Sander lucioperca|Sapium glandulosum|Sapium laurifolium|Sarcomyxa serotina|Saussurea costus|Saussurea lappa|Scabiosa comosa|Scapania aequiloba|Scaphium affine|Schinus molle|Scopolia parviflora|Scrophularia nodosa|Scrophularia umbrosa|Scutellaria Baicalensis|Scutellaria schachristanica|Secale cereale|Sechium edule|Senecio oxyodontus|Senecio paludaffinis|Senecio sarracenicus|Senecio scandens|Senna alexandrina|Senna siamea|Sesamum orientale|Seseli foliosum|Shorea wangtianshuea|Sidnyum turbinatum|Silene conoidea|Silverleaf whitefly|Simmondsia chinensis|Sinapis alba|Sinopodophyllum hexandrum|Sinularia facile|Siraitia grosvenorii|Smallanthus maculatus|Solanum lycopersicum|Solanum melongena|Solanum pseudopersicum|Solanum quitoense|Solanum sublobatum|Solanum tuberosum|Solenopsis punctaticeps|Sophora flavescens|Sophora tonkinensis|Sorghum|Sorghum bicolor|Spartium junceum|Spathodea campanulata|Spergula japonica|Sphaerellopsis filum|Sphaerotrichia divaricata|Sphenostylis stenocarpa|Spinacia oleracea|Stellaria dichotoma|Stephania aculeata|Stocksia brahuica|Streptomyces bobili|Streptomyces erythrochromogenes|Streptomyces flocculus|Streptomyces noursei|Streptomyces viridogenes|Strychnos erichsonii|Strychnos ignatii|Strychnos tricalysioides|Stylissa flabelliformis|Stylosanthes guianensis|Stylosanthes humilis|Suaeda aegyptiaca|Sugarcane|Sus scrofa|Sus scrofa domesticus|Swertia pseudochinensis|Syzygium aromaticum|Tachigalia paniculata|Tachypleus tridentatus|Tadehagi triquetrum|Tamarindus indica|Tamarix aphylla|Tapinella panuoides|Taraxacum borealisinense|Taraxacum campylodes|Taraxacum coreanum|Taraxacum croceum|Taraxacum lapponicum|Taraxacum mongolicum|Taraxacum officinale|Taraxacum platycarpum|Taxus baccata|Tecoma stans|Tephroseris flammea|Tephrosia crassifolia|Tetrapleura tetraptera|Teucrium polium|Thalictrum aquilegiifolium|Thalictrum podocarpum|Thamnophis sirtalis|Theobroma cacao|Thymus vulgaris|Tillandsia usneoides|Toddalia aculeata|Torilis japonica|Tragopogon orientalis|Tragopogon pratensis|Tribulus cistoides|Trichodesma incanum|Trifolium burchellianum|Trifolium repens|Trifolium subterraneum|Trigonella foenum-graecum|Trigonella grandiflora|Tripetaleia paniculata|Tripolium pannonicum|Triticum aestivum|Triticum spelta|Triticum turanicum|Tulipa turkestanica|Turnera diffusa|Tussilago farfara|Tylosema esculentum|Typha angustifolia|Undaria pinnatifida|Urochloa decumbens|Uvaria calamistrata|Vaccinium alaskaense|Vaccinium macrocarpon|Vaccinium myrtillus|Vaccinium vitis-idaea|Vachellia farnesiana var. farnesiana|Vernonanthura divaricata|Vernonia cumingiana|Vicia faba|Vigna luteola|Vigna radiata|Vigna unguiculata|Vitex doniana|Vitis rotundifolia|Vitis vinifera|Wahlenbergia marginata|Withania somnifera|Woodfordia fruticosa|Xanthorrhoea resinosa|Xanthosoma sagittifolium|Xenia florida|Xenia obscuronata|Xylaria mellissii|Xylocarpus granatum|Zanthoxylum martinicense|Zanthoxylum rigidum|Zea Mays|Zea mays|Zingiber officinale|Ziziphus jujuba|Ziziphus spina-christi|broad bean|cacao|common dandelion|common sunflower|corn mint|garlic|liquorice|peanut|snap bean|soybean|yerba mate

>  <collections>  (1010) 
ANPDB|AfroMalariaDB|Australian natural products|BIOFACQUIM|CMAUP (cCollective molecular activities of useful plants)|ChEBI NPs|ChEMBL NPs|ConMedNP|DrugBankNP|ETM (Ethiopian Traditional Medicine) DB|FooDB|Latin America dataset|NANPDB (Natural Products from Northern African Sources)|NAPRORE-CR|NPASS|Nat-UV DB|NuBBEDB|Phyto4Health|Super Natural II|TCMDB-Taiwan (Traditional Chinese Medicine database)|VietHerb|WikiData Natural Products

>  <dois>  (1010) 
10.1002/ARDP.19622951105|10.1002/CHIN.199333272|10.1002/CHIN.199848194|10.1002/CHIN.200338184|10.1002/HLCA.19890720705|10.1002/HLCA.200900049|10.1002/HLCA.201500519|10.1002/JSFA.2740500106|10.1002/PCA.2800020310|10.1002/PCA.638|10.1002/PTR.1210|10.1002/PTR.2650070514|10.1002/nbm.1369|10.1006/FSTL.1996.0201|10.1006/JFCA.1999.0868|10.1006/JFCA.2000.0962|10.1006/JFCA.2000.0968|10.1007/978-3-540-71095-0_5152|10.1007/978-3-642-48618-0_9|10.1007/978-3-7091-1084-3_4|10.1007/978-3-7091-1084-3_5|10.1007/BF00566818|10.1007/BF00567064|10.1007/BF00567133|10.1007/BF00567865|10.1007/BF00574388|10.1007/BF00596693|10.1007/BF00598313|10.1007/BF00630328|10.1007/BF00630423|10.1007/BF00630588|10.1007/BF00697055|10.1007/BF01088464|10.1007/BF01088469|10.1007/BF01100201|10.1007/BF01165188|10.1007/BF02660305|10.1007/BF02858783|10.1007/BF02859211|10.1007/BF02894639|10.1007/BF02907355|10.1007/S00044-007-9080-1|10.1007/S10600-006-0193-4|10.1007/S10600-007-0083-4|10.1007/S10600-009-9259-4|10.1007/S10600-011-9810-Y|10.1007/S10600-011-9892-6|10.1007/S10600-011-9927-Z|10.1007/S10600-011-9955-8|10.1007/S10600-016-1687-3|10.1007/S10600-017-2240-8|10.1007/S10600-021-03562-0|10.1007/S11306-016-1051-4|10.1007/S11418-007-0138-7|10.1007/s00216-012-6339-2|10.1016/0031-9422(74)85048-X|10.1016/0031-9422(91)85098-K|10.1016/0031-9422(92)80139-6|10.1016/0031-9422(92)80313-4|10.1016/0031-9422(92)80362-I|10.1016/0031-9422(93)85552-3|10.1016/0031-9422(94)00574-D|10.1016/0031-9422(95)00261-5|10.1016/0031-9422(95)00341-4|10.1016/0031-9422(95)00622-2|10.1016/0305-1978(88)90095-6|10.1016/0308-8146(93)90137-5|10.1016/0378-8741(90)90067-4|10.1016/0378-8741(93)90056-B|10.1016/0960-8524(96)00068-5|10.1016/B978-0-08-028853-6.50009-7|10.1016/J.ARABJC.2011.01.022|10.1016/J.BMC.2007.12.021|10.1016/J.BMC.2011.07.006|10.1016/J.BMCL.2014.11.001|10.1016/J.BSE.2004.10.015|10.1016/J.FITOTE.2007.07.002|10.1016/J.FOODCHEM.2010.05.061|10.1016/J.INDCROP.2013.08.051|10.1016/J.JEP.2018.10.031|10.1016/J.PHYTOCHEM.2005.10.001|10.1016/J.PHYTOCHEM.2006.01.031|10.1016/J.PHYTOCHEM.2008.01.010|10.1016/S0008-6215(02)00025-3|10.1016/S0021-9673(01)88498-3|10.1016/S0021-9673(01)95056-3|10.1016/S0021-9673(98)00542-1|10.1016/S0031-9422(00)80263-0|10.1016/S0031-9422(00)80622-6|10.1016/S0031-9422(00)81690-8|10.1016/S0031-9422(00)82207-4|10.1016/S0031-9422(00)82386-9|10.1016/S0031-9422(00)85029-3|10.1016/S0031-9422(00)85491-6|10.1016/S0031-9422(00)85498-9|10.1016/S0031-9422(00)86890-9|10.1016/S0031-9422(00)90379-0|10.1016/S0031-9422(00)97041-9|10.1016/S0031-9422(00)97746-X|10.1016/S0031-9422(00)97846-4|10.1016/S0031-9422(02)00229-7|10.1016/S0031-9422(02)00655-6|10.1016/S0031-9422(96)00652-8|10.1016/S0031-9422(97)00093-9|10.1016/S0031-9422(97)00766-8|10.1016/S0031-9422(97)01088-1|10.1016/S0031-9422(98)00716-X|10.1016/S0031-9422(99)00336-2|10.1016/S0040-4020(01)92498-6|10.1016/S0040-4039(00)96845-X|10.1016/S0044-328X(84)80097-5|10.1016/S0140-6736(49)91289-1|10.1016/S0176-1617(11)81257-5|10.1016/S0305-1978(97)00128-2|10.1016/S0308-8146(00)00268-5|10.1016/S0308-8146(01)00204-7|10.1016/S0308-8146(96)00271-3|10.1016/S0367-326X(00)00265-3|10.1016/S0367-326X(99)00010-6|10.1016/S0968-0896(01)00422-9|10.1016/j.arabjc.2011.01.022|10.1016/j.bmcl.2014.11.001|10.1016/j.foodchem.2010.05.061|10.1016/j.foodres.2017.10.005|10.1016/j.indcrop.2013.08.051|10.1016/j.jep.2018.10.031|10.1016/j.molbiopara.2012.08.006|10.1016/j.nutres.2014.05.005|10.1021/AC2001109|10.1021/CB3004226|10.1021/JF00017A016|10.1021/JF000388H|10.1021/JF00068A034|10.1021/JF00071A015|10.1021/JF00071A036|10.1021/JF00093A051|10.1021/JF010380N|10.1021/JF040017R|10.1021/JF0483117|10.1021/JF60197A017|10.1021/JF60216A022|10.1021/JF60221A032|10.1021/JF9601170|10.1021/JF970032E|10.1021/JF990709T|10.1021/NP0203739|10.1021/NP050301S|10.1021/NP060253R|10.1021/NP0604073|10.1021/NP060499W|10.1021/NP50001A008|10.1021/NP50008A001|10.1021/NP50009A009|10.1021/NP50015A025|10.1021/NP50018A011|10.1021/NP50019A012|10.1021/NP50032A019|10.1021/NP50054A027|10.1021/NP50101A026|10.1021/NP50104A001|10.1021/NP50122A023|10.1021/NP800830V|10.1021/NP980046U|10.1021/NP990092+|10.1021/NP990282K|10.1021/acsfoodscitech.1c00262|10.1038/MSB.2011.65|10.1038/NBT.2488|10.1038/msb.2011.65|10.1038/nbt.2488|10.1039/B103653J|10.1039/P19720001896|10.1051/CTV/20163101031|10.1055/S-0028-1099548|10.1055/S-0028-1099567|10.1055/S-2005-864103|10.1055/S-2006-957777|10.1055/S-2006-957923|10.1055/S-2006-961526|10.1055/S-2006-961605|10.1055/S-2007-969783|10.1071/CH9771583|10.1071/ch9771583|10.1076/1388-0209(200007)3831-SFT210|10.1080/10286020290024022|10.1080/10826079408013763|10.1080/10826079608006294|10.1080/14786419.2010.534735|10.1080/14786419.2010.535163|10.1080/14786419.2018.1451998|10.1081/JFP-120015598|10.1089/ind.2013.0013|10.1093/CHROMSCI/39.6.251|10.1093/JAOAC/67.4.764|10.1104/PP.71.3.703|10.1111/1365-3040.EP11572682|10.1111/J.1365-2621.1972.TB03677.X|10.1111/J.1365-2621.1981.TB03018.X|10.1111/J.1365-2621.1983.TB09203.X|10.1111/J.1365-2621.1983.TB09208.X|10.1111/J.1365-2621.1983.TB14934.X|10.1111/J.1365-3040.1982.TB00924.X|10.1111/TPJ.12747|10.1111/j.1750-3841.2008.00716.x|10.1111/tpj.12747|10.1135/CCCC19622111|10.1142/S0192415X87000151|10.1155/2017/7436259|10.1177/1934578X1501000714|10.1186/1471-2164-13-36|10.1201/9780203022320.CH4|10.1201/B14669-29|10.1248/CPB.14.877|10.1248/CPB.18.1276|10.1248/CPB.32.325|10.1248/CPB.33.1|10.1248/CPB.34.726|10.1248/CPB.39.1551|10.1248/CPB.46.1583|10.1248/CPB.47.1725|10.1248/CPB.47.988|10.1248/CPB.48.1803|10.1248/CPB.49.151|10.1248/CPB.51.32|10.1248/CPB.55.1677|10.1248/YAKUSHI.121.497|10.1248/YAKUSHI1947.106.1_22|10.1248/YAKUSHI1947.110.10_746|10.1248/YAKUSHI1947.110.5_354|10.1248/YAKUSHI1947.115.12_992|10.1248/YAKUSHI1947.116.2_158|10.1248/YAKUSHI1947.85.5_469|10.1248/YAKUSHI1947.94.12_1634|10.1271/BBB.56.99|10.1271/BBB.60.654|10.1271/BBB1961.49.933|10.1300/J044V06N02_02|10.1300/J044V06N02_08|10.14300/MNNC.2016.11094|10.1515/ZNB-2008-0317|10.1515/ZNC-1992-0602|10.1515/ZNC-1998-9-1002|10.1515/ZNC-2000-9-1029|10.1590/S0100-40422009000100025|10.1590/S0103-50531999000200015|10.1590/S0103-50532001000600016|10.3109/13880208409070652|10.3136/NSKKK1962.33.10_740|10.3358/SHOKUEISHI.32.504|10.3389/FMOLB.2018.00096|10.3390/MOLECULES15085547|10.3390/molecules24203710|10.3891/ACTA.CHEM.SCAND.32B-0588|10.3987/COM-95-7069|10.4197/SCI.16-1.4|10.4268/CJCMM20100712|10.4268/CJCMM20111013|10.4268/CJCMM20150419|10.5246/JCPS.2011.02.019|10.5564/BICCT.V0I6.1105|10.5586/ASBP.1977.015|10.5586/ASBP.1988.009

>  <synonyms>  (1010) 
(2R,3R,4S,5S,6R)-2-(((2S,3S,4S,5R)-3,4-Dihydroxy-2,5-bis(hydroxymethyl)tetrahydrofuran-2-yl)oxy)-6-(hydroxymethyl)tetrahydro-2H-pyran-3,4,5-triol|(2R,3R,4S,5S,6R)-2-[(2S,3S,4S,5R)-3,4-dihydroxy-2,5-bis(hydroxymethyl)oxolan-2-yl]oxy-6-(hydroxymethyl)oxane-3,4,5-triol|(alpha-D-Glucosido)-beta-D-fructofuranoside|.ALPHA.-D-GLUCOPYRANOSIDE, .BETA.-D-FRUCTOFURANOSYL-|.BETA.-D-FRUCTOFURANOSYL-.ALPHA.-D-GLUCOPYRANOSIDE|1af6|57-50-1|8027-47-2|8030-20-4|85456-51-5|86101-30-6|87430-66-8|92004-84-7|A-5|AI3-09085|AKOS024306988|Amerfand|Amerfond|BDBM50108105|Beetsugar|C00089|C151H8M554|CAS-57-50-1|CCRIS 2120|CHEBI:17992|CHEBI:65313|CHEMBL253582|CS-0013810|Cane sugar|Carbon isotopes in sucrose, NIST(R) RM 8542, IAEA-CH-6 sucrose|Compressible sugar|Compressible sugar, United States Pharmacopeia (USP) Reference Standard|Confectioner's sugar|D(+)-Sucrose|D-(+)-Saccharose|D-Saccharose|D-Saccharose 1000 microg\/mL in Methanol|D-Saccharose 20000 microg\/mL in Water|D-Sucrose|D00025|D70407|DB02772|DTXCID101288|DTXSID2021288|DYSPEPSIA HEADACHE|EINECS 200-334-9|EN300-126630|Epitope ID:153236|Frost Sugar|Fructofuranoside, alpha-D-glucopyranosyl, beta-D|GLC-(1-2)FRU|GNE-410|GTPL5411|Glc(alpha1->2beta)Fru|Glucopyranoside, beta-D-fructofuranosyl, alpha-D|HSDB 500|HY-B1779|J-519846|MFCD00006626|Manalox AS|Microse|NCGC00164248-01|NCGC00254237-01|NCGC00258948-01|NCI-C56597|NSC 406942|Q4027534|REFINED SUGAR|Rock candy|Rohrzucker|S-67F|S0111|SACCHARUM OFFICINALE|SACCHARUM OFFICINALE [HPUS]|SR-01000883983|SUCROSE (CONSTITUENT OF CRANBERRY LIQUID PREPARATION)|SUCROSE (EP IMPURITY)|SUCROSE (EP MONOGRAPH)|SUCROSE (II)|SUCROSE (USP-RS)|SUCROSE [FCC]|SUCROSE [HSDB]|SUCROSE [II]|SUCROSE [JAN]|SUCROSE [NF]|SUCROSE [USP-RS]|SUCROSE [VANDF]|SUCROSE [WHO-DD]|SUGAR [VANDF]|SUGAR, WHITE|Saccarose|Saccharum|Sacharose|Sucraloxum|Sucraloxum [INN-Latin]|Sucrose|Sucrose (JP17\/NF)|Sucrose (TN)|Sucrose (for injection)|Sucrose ACS grade|Sucrose Biochemical grade|Sucrose Palmitic Acid (1:1 Mixture)|Sucrose [JAN:NF]|Sucrose [USAN:JAN]|Sucrose, >=99.5%|Sucrose, >=99.5% (GC)|Sucrose, ACS reagent|Sucrose, AR|Sucrose, BioReagent, suitable for cell culture, suitable for insect cell culture, >=99.5% (GC)|Sucrose, BioUltra, for molecular biology, >=99.5% (HPLC)|Sucrose, BioXtra, >=99.5% (GC)|Sucrose, British Pharmacopoeia (BP) Reference Standard|Sucrose, European Pharmacopoeia (EP) Reference Standard|Sucrose, Grade I, plant cell culture tested|Sucrose, JIS special grade|Sucrose, Molecular Biology Grade|Sucrose, NIST(R) SRM(R) 17f, optical rotation|Sucrose, SAJ first grade|Sucrose, USP|Sucrose, United States Pharmacopeia (USP) Reference Standard|Sucrose, Vetec(TM) reagent grade, 99%|Sucrose, Vetec(TM) reagent grade, RNase and DNase free|Sucrose, analytical standard|Sucrose, analytical standard, for enzymatic assay kit SCA20|Sucrose, anhydrous, free-flowing, Redi-Dri(TM), ACS reagent|Sucrose, cell culture tested|Sucrose, dust|Sucrose, for electrophoresis, >99%|Sucrose, for microbiology, ACS reagent, >=99.0%|Sucrose, for molecular biology, >=99.5% (GC)|Sucrose, meets USP testing specifications|Sucrose, p.a., ACS reagent|Sucrose, pure|Sucrose, purified|Sucrose, puriss., meets analytical specification of Ph. Eur., BP, NF|Sucrose, reagent grade|Sucrose,ultrapure|Sugar spheres (NF)|Sugar, compressible (NF)|Sugar, confectioner's (NF)|Sugar,(S)|Sugars|Table sugar|Tox21_112093|Tox21_201397|Tox21_300410|UNII-C151H8M554|White soft sugar (JP17)|White sugar|Z1589255958|a-D-Glucopyranosyl A-D-fructofuranoside|alpha-D-Glc-(1-2)-beta-D-Fru|alpha-D-Glucopyranoside, beta-D-fructofuranosyl-|alpha-D-Glucopyranosyl beta-D-fructofuranoside|alpha-D-glucopyranosyl-(1->2)-beta-D-fructofuranoside|b -D-Fructofuranosyl a-D-glucopyranoside|beta-D-Fructofuranosyl-alpha-D-glucopyranoside|beta-D-Fruf-(2<->1)-alpha-D-Glcp|beta-D-fructofuranosyl-(2&harr;1)-alpha-D-glucopyranoside|bmse000119|bmse000804|bmse000918|s3598|sacarosa|saccharose|sucrose|sugar

>  <cas>  (1010) 
57-50-1|92004-84-7|8027-47-2|8030-20-4|85456-51-5|86101-30-6|87430-66-8|25702-74-3

$$$$

     RDKit          2D

 22 24  0  0  0  0  0  0  0  0999 V2000
   -4.9012    2.5538    0.0000 C   0  0  0  0  0  0  0  0  0  0  0  0
   -4.7164    1.0652    0.0000 C   0  0  0  0  0  0  0  0  0  0  0  0
   -5.9131    0.1608    0.0000 C   0  0  0  0  0  0  0  0  0  0  0  0
   -3.3348    0.4810    0.0000 C   0  0  0  0  0  0  0  0  0  0  0  0
   -2.1381    1.3853    0.0000 C   0  0  0  0  0  0  0  0  0  0  0  0
   -0.7566    0.8011    0.0000 C   0  0  0  0  0  0  0  0  0  0  0  0
   -0.5717   -0.6875    0.0000 C   0  0  0  0  0  0  0  0  0  0  0  0
    0.7073   -1.4711    0.0000 C   0  0  0  0  0  0  0  0  0  0  0  0
    2.1174   -0.9597    0.0000 C   0  0  0  0  0  0  0  0  0  0  0  0
    3.1087   -2.0855    0.0000 C   0  0  0  0  0  0  0  0  0  0  0  0
    4.5793   -1.7900    0.0000 C   0  0  0  0  0  0  0  0  0  0  0  0
    5.0586   -0.3686    0.0000 C   0  0  0  0  0  0  0  0  0  0  0  0
    4.0674    0.7572    0.0000 C   0  0  0  0  0  0  0  0  0  0  0  0
    3.5210    2.1541    0.0000 C   0  0  0  0  0  0  0  0  0  0  0  0
    5.3482    1.5379    0.0000 C   0  0  0  0  0  0  0  0  0  0  0  0
    2.5968    0.4616    0.0000 C   0  0  0  0  0  0  0  0  0  0  0  0
    1.7844    1.7226    0.0000 C   0  0  0  0  0  0  0  0  0  0  0  0
    0.2920    1.8737    0.0000 C   0  0  0  0  0  0  0  0  0  0  0  0
   -1.7685   -1.5918    0.0000 C   0  0  0  0  0  0  0  0  0  0  0  0
   -1.5837   -3.0804    0.0000 O   0  0  0  0  0  0  0  0  0  0  0  0
   -3.1500   -1.0076    0.0000 C   0  0  0  0  0  0  0  0  0  0  0  0
   -4.3468   -1.9120    0.0000 O   0  0  0  0  0  0  0  0  0  0  0  0
  1  2  1  0
  2  3  1  0
  2  4  1  0
  4  5  2  0
  5  6  1  0
  6  7  2  0
  7  8  1  0
  8  9  1  0
  9 10  2  0
 10 11  1  0
 11 12  1  0
 12 13  1  0
 13 14  1  0
 13 15  1  0
 13 16  1  0
 16 17  1  1
 17 18  1  0
  7 19  1  0
 19 20  1  0
 19 21  2  0
 21 22  1  0
 21  4  1  0
 18  6  1  0
 16  9  1  0
M  END
>  <identifier>  (1011) 
CNP0158411.1

>  <canonical_smiles>  (1011) 
CC(C)C1=CC2=C(CC3=CCCC(C)(C)[C@@H]3CC2)C(O)=C1O

>  <standard_inchi>  (1011) 
InChI=1S/C20H28O2/c1-12(2)15-10-13-7-8-17-14(6-5-9-20(17,3)4)11-16(13)19(22)18(15)21/h6,10,12,17,21-22H,5,7-9,11H2,1-4H3/t17-/m1/s1

>  <standard_inchi_key>  (1011) 
ZSBGZCORDLYKJB-QGZVFWFLSA-N

>  <name>  (1011) 
(11S)-12,12-dimethyl-6-propan-2-yltricyclo[9.4.0.03,8]pentadeca-1(15),3,5,7-tetraene-4,5-diol

>  <iupac_name>  (1011) 
(11~{S})-6-isopropyl-12,12-dimethyl-tricyclo[9.4.0.0^{3,8}]pentadeca-1(15),3(8),4,6-tetraene-4,5-diol

>  <annotation_level>  (1011) 
5

>  <total_atom_count>  (1011) 
50

>  <heavy_atom_count>  (1011) 
22

>  <molecular_weight>  (1011) 
300.44

>  <exact_molecular_weight>  (1011) 
300.20893

>  <molecular_formula>  (1011) 
C20H28O2

>  <alogp>  (1011) 
5.07

>  <topological_polar_surface_area>  (1011) 
40.46

>  <rotatable_bond_count>  (1011) 
1

>  <hydrogen_bond_acceptors>  (1011) 
2

>  <hydrogen_bond_donors>  (1011) 
2

>  <hydrogen_bond_acceptors_lipinski>  (1011) 
2

>  <hydrogen_bond_donors_lipinski>  (1011) 
2

>  <lipinski_rule_of_five_violations>  (1011) 
1

>  <aromatic_rings_count>  (1011) 
1

>  <qed_drug_likeliness>  (1011) 
0.56

>  <formal_charge>  (1011) 
0

>  <fractioncsp3>  (1011) 
0.60

>  <number_of_minimal_rings>  (1011) 
3

>  <van_der_walls_volume>  (1011) 
300.02

>  <contains_sugar>  (1011) 
False

>  <contains_ring_sugars>  (1011) 
False

>  <contains_linear_sugars>  (1011) 
False

>  <murcko_framework>  (1011) 
c1ccc2c(c1)CC3=CCCCC3CC2

>  <np_likeness>  (1011) 
2.20

>  <chemical_class>  (1011) 
Prenol lipids

>  <chemical_sub_class>  (1011) 
Diterpenoids

>  <chemical_super_class>  (1011) 
Lipids and lipid-like molecules

>  <direct_parent_classification>  (1011) 
Diterpenoids

>  <np_classifier_pathway>  (1011) 
Terpenoids

>  <np_classifier_superclass>  (1011) 
Diterpenoids

>  <np_classifier_class>  (1011) 
Icetexane diterpenoids

>  <np_classifier_is_glycoside>  (1011) 
False

>  <organisms>  (1011) 
Allochromatium minutissimum|Amentotaxus yunnanensis|Artemisia siversiana|Camptothecium lutescens|Cladonia bellidiflora|Coleus barbatus|Decachaeta ovatifolia|Deguelia hatschbachii|Delphinium cyphoplectrum|Dioscorea communis|Euphorbia retusa|Hydrolithon reinboldii|Notholaena dealbata|Palmaria palmata|Phallusia fumigata|Plectranthus barbatus|Pleurophycus gardneri|Rhabdia lycioides|Ritterella rubra|Salvia przewalskii|Salvia przewalskll|Stauntonia obovatifoliola|Streptomyces lateritius|Uvaria klaineana|Viburnum sieboldi|Vicia sativa

>  <collections>  (1011) 
CMAUP (cCollective molecular activities of useful plants)|KNApSaCK|Latin America dataset|NPASS|NuBBEDB|Super Natural II|TCMDB-Taiwan (Traditional Chinese Medicine database)|WikiData Natural Products|ZINC NP

>  <dois>  (1011) 
10.1016/S0031-9422(00)83467-6|10.1016/S0040-4020(01)88671-3|10.1248/CPB.53.1575

>  <synonyms>  (1011) 
(-)-Barbatusol|(11S)-12,12-Dimethyl-6-propan-2-yltricyclo[9.4.0.03,8]pentadeca-1(15),3,5,7-tetraene-4,5-diol|Barbatusol|CHEMBL4870428

>  <cas>  (1011) 
nan

$$$$

     RDKit          2D

 22 24  0  0  0  0  0  0  0  0999 V2000
   -4.8876    1.7252    0.0000 C   0  0  0  0  0  0  0  0  0  0  0  0
   -4.6464    0.2447    0.0000 O   0  0  0  0  0  0  0  0  0  0  0  0
   -3.2437   -0.2866    0.0000 C   0  0  0  0  0  0  0  0  0  0  0  0
   -3.0025   -1.7671    0.0000 C   0  0  0  0  0  0  0  0  0  0  0  0
   -1.5998   -2.2985    0.0000 C   0  0  0  0  0  0  0  0  0  0  0  0
   -1.3586   -3.7790    0.0000 O   0  0  0  0  0  0  0  0  0  0  0  0
   -0.4383   -1.3494    0.0000 C   0  0  0  0  0  0  0  0  0  0  0  0
    0.9645   -1.8808    0.0000 C   0  0  0  0  0  0  0  0  0  0  0  0
    1.2056   -3.3612    0.0000 O   0  0  0  0  0  0  0  0  0  0  0  0
    2.1260   -0.9317    0.0000 C   0  0  0  0  0  0  0  0  0  0  0  0
    3.5287   -1.4630    0.0000 C   0  0  0  0  0  0  0  0  0  0  0  0
    4.6903   -0.5139    0.0000 C   0  0  0  0  0  0  0  0  0  0  0  0
    4.4491    0.9666    0.0000 C   0  0  0  0  0  0  0  0  0  0  0  0
    3.0464    1.4979    0.0000 C   0  0  0  0  0  0  0  0  0  0  0  0
    2.8052    2.9784    0.0000 O   0  0  0  0  0  0  0  0  0  0  0  0
    1.8848    0.5488    0.0000 C   0  0  0  0  0  0  0  0  0  0  0  0
    0.4821    1.0802    0.0000 N   0  0  0  0  0  0  0  0  0  0  0  0
    0.2409    2.5607    0.0000 C   0  0  0  0  0  0  0  0  0  0  0  0
   -0.6794    0.1311    0.0000 C   0  0  0  0  0  0  0  0  0  0  0  0
   -2.0822    0.6625    0.0000 C   0  0  0  0  0  0  0  0  0  0  0  0
   -2.3233    2.1430    0.0000 O   0  0  0  0  0  0  0  0  0  0  0  0
   -1.1618    3.0921    0.0000 C   0  0  0  0  0  0  0  0  0  0  0  0
  1  2  1  0
  2  3  1  0
  3  4  2  0
  4  5  1  0
  5  6  1  0
  5  7  2  0
  7  8  1  0
  8  9  2  0
  8 10  1  0
 10 11  2  0
 11 12  1  0
 12 13  2  0
 13 14  1  0
 14 15  1  0
 14 16  2  0
 16 17  1  0
 17 18  1  0
 17 19  1  0
 19 20  2  0
 20 21  1  0
 21 22  1  0
 20  3  1  0
 19  7  1  0
 16 10  1  0
M  END
>  <identifier>  (1012) 
CNP0322614.0

>  <canonical_smiles>  (1012) 
COC1=CC(O)=C2C(=O)C3=CC=CC(O)=C3N(C)C2=C1OC

>  <standard_inchi>  (1012) 
InChI=1S/C16H15NO5/c1-17-13-8(5-4-6-9(13)18)15(20)12-10(19)7-11(21-2)16(22-3)14(12)17/h4-7,18-19H,1-3H3

>  <standard_inchi_key>  (1012) 
UTEAJHNFBCLZHN-UHFFFAOYSA-N

>  <name>  (1012) 
Citrusinine I

>  <iupac_name>  (1012) 
1,5-dihydroxy-3,4-dimethoxy-10-methyl-acridin-9-one

>  <annotation_level>  (1012) 
5

>  <total_atom_count>  (1012) 
37

>  <heavy_atom_count>  (1012) 
22

>  <molecular_weight>  (1012) 
301.3

>  <exact_molecular_weight>  (1012) 
301.09502

>  <molecular_formula>  (1012) 
C16H15NO5

>  <alogp>  (1012) 
2.12

>  <topological_polar_surface_area>  (1012) 
80.92

>  <rotatable_bond_count>  (1012) 
2

>  <hydrogen_bond_acceptors>  (1012) 
6

>  <hydrogen_bond_donors>  (1012) 
2

>  <hydrogen_bond_acceptors_lipinski>  (1012) 
6

>  <hydrogen_bond_donors_lipinski>  (1012) 
2

>  <lipinski_rule_of_five_violations>  (1012) 
0

>  <aromatic_rings_count>  (1012) 
3

>  <qed_drug_likeliness>  (1012) 
0.71

>  <formal_charge>  (1012) 
0

>  <fractioncsp3>  (1012) 
0.19

>  <number_of_minimal_rings>  (1012) 
3

>  <van_der_walls_volume>  (1012) 
254.19

>  <contains_sugar>  (1012) 
False

>  <contains_ring_sugars>  (1012) 
False

>  <contains_linear_sugars>  (1012) 
False

>  <murcko_framework>  (1012) 
c1ccc2c(c1)Nc3ccccc3C2

>  <np_likeness>  (1012) 
1.38

>  <chemical_class>  (1012) 
Quinolines and derivatives

>  <chemical_sub_class>  (1012) 
Benzoquinolines

>  <chemical_super_class>  (1012) 
Organoheterocyclic compounds

>  <direct_parent_classification>  (1012) 
Acridones

>  <np_classifier_pathway>  (1012) 
Alkaloids

>  <np_classifier_superclass>  (1012) 
Anthranilic acid alkaloids

>  <np_classifier_class>  (1012) 
Acridone alkaloids

>  <np_classifier_is_glycoside>  (1012) 
False

>  <organisms>  (1012) 
Atalantia Monophylla|Atalantia buxifolia|Atalantia monophylla|Citrus grandis|Citrus nobilis|Citrus reticulata|Citrus sinensis|Citrus sinensis var.brasiliensis|Citrus × deliciosa|Clematis flammula|Gentiana lactea|Hortia arborea|Korolkowia sewerzowi|Severinia buxifolia|Swinglea glutinosa|pomelo|severinia buxifolia

>  <collections>  (1012) 
CMAUP (cCollective molecular activities of useful plants)|FooDB|KNApSaCK|Latin America dataset|NPASS|NuBBEDB|Super Natural II|TCMDB-Taiwan (Traditional Chinese Medicine database)|TIPdb (database of Taiwan indigenous plants)|UNPD (Universal Natural Products Database)|VietHerb|WikiData Natural Products

>  <dois>  (1012) 
10.1002/JCCS.200100136|10.1002/JCCS.200500180|10.1016/J.BMC.2010.12.056|10.1016/J.PHYTOCHEM.2008.08.007|10.1016/S0031-9422(00)84044-3|10.1016/S0031-9422(00)84608-7|10.1021/JF902561C|10.1021/NP0005309|10.1021/np0005309|10.1248/CPB.31.901|10.1248/CPB.48.85|10.1590/S0103-50532009000400008

>  <synonyms>  (1012) 
1,5-DIHYDROXY-3,4-DIMETHOXY-10-METHYL-9,10-DIHYDROACRIDIN-9-ONE|1,5-Dihydroxy-3,4-dimethoxy-10-methyl-9(10H)-Acridinone|1,5-dihydroxy-3,4-dimethoxy-10-methylacridin-9-one|86680-32-2|9(10H)-Acridinone, 1,5-dihydroxy-3,4-dimethoxy-10-methyl-|AKOS040763313|BDBM50336481|CHEBI:184245|CHEMBL451705|Citrusinine-I|DTXSID10235760

>  <cas>  (1012) 
86680-32-2

$$$$

     RDKit          2D

 32 36  0  0  0  0  0  0  0  0999 V2000
   -6.4433   -2.3651    0.0000 C   0  0  0  0  0  0  0  0  0  0  0  0
   -5.5776   -1.1401    0.0000 C   0  0  0  0  0  0  0  0  0  0  0  0
   -6.2057    0.2221    0.0000 C   0  0  0  0  0  0  0  0  0  0  0  0
   -5.3400    1.4471    0.0000 C   0  0  0  0  0  0  0  0  0  0  0  0
   -3.8463    1.3099    0.0000 C   0  0  0  0  0  0  0  0  0  0  0  0
   -4.4744    2.6721    0.0000 C   0  0  0  0  0  0  0  0  0  0  0  0
   -2.9806    2.5349    0.0000 C   0  0  0  0  0  0  0  0  0  0  0  0
   -1.4869    2.3977    0.0000 C   0  0  0  0  0  0  0  0  0  0  0  0
   -0.8589    1.0356    0.0000 C   0  0  0  0  0  0  0  0  0  0  0  0
   -0.2308   -0.3266    0.0000 C   0  0  0  0  0  0  0  0  0  0  0  0
   -1.7245   -0.1894    0.0000 C   0  0  0  0  0  0  0  0  0  0  0  0
   -1.0965   -1.5516    0.0000 C   0  0  0  0  0  0  0  0  0  0  0  0
   -1.9621   -2.7766    0.0000 O   0  0  0  0  0  0  0  0  0  0  0  0
    0.3973   -1.6888    0.0000 C   0  0  0  0  0  0  0  0  0  0  0  0
    1.2629   -0.4638    0.0000 C   0  0  0  0  0  0  0  0  0  0  0  0
    2.7566   -0.6010    0.0000 C   0  0  0  0  0  0  0  0  0  0  0  0
    1.8910   -1.8260    0.0000 C   0  0  0  0  0  0  0  0  0  0  0  0
    3.3847   -1.9632    0.0000 C   0  0  0  0  0  0  0  0  0  0  0  0
    4.8784   -2.1003    0.0000 C   0  0  0  0  0  0  0  0  0  0  0  0
    5.7441   -0.8753    0.0000 C   0  0  0  0  0  0  0  0  0  0  0  0
    7.2378   -1.0125    0.0000 O   0  0  0  0  0  0  0  0  0  0  0  0
    5.1160    0.4869    0.0000 C   0  0  0  0  0  0  0  0  0  0  0  0
    4.9917    1.9817    0.0000 C   0  0  0  0  0  0  0  0  0  0  0  0
    6.5665    0.8688    0.0000 C   0  0  0  0  0  0  0  0  0  0  0  0
    3.6223    0.6240    0.0000 C   0  0  0  0  0  0  0  0  0  0  0  0
    2.9942    1.9862    0.0000 C   0  0  0  0  0  0  0  0  0  0  0  0
    1.5005    2.1234    0.0000 C   0  0  0  0  0  0  0  0  0  0  0  0
    0.6348    0.8984    0.0000 C   0  0  0  0  0  0  0  0  0  0  0  0
    0.0068    2.2606    0.0000 C   0  0  0  0  0  0  0  0  0  0  0  0
   -3.2182   -0.0523    0.0000 C   0  0  0  0  0  0  0  0  0  0  0  0
   -4.0839   -1.2773    0.0000 C   0  0  0  0  0  0  0  0  0  0  0  0
   -3.4558   -2.6395    0.0000 C   0  0  0  0  0  0  0  0  0  0  0  0
  2  1  1  6
  2  3  1  0
  3  4  1  0
  4  5  1  0
  5  6  1  1
  5  7  1  0
  7  8  1  0
  8  9  1  0
  9 10  1  6
  9 11  1  0
 11 12  1  0
 12 13  2  0
 12 14  1  0
 14 15  1  0
 15 16  1  0
 16 17  1  1
 16 18  1  0
 18 19  1  0
 19 20  1  0
 20 21  1  1
 20 22  1  0
 22 23  1  0
 22 24  1  0
 22 25  1  0
 25 26  1  0
 26 27  1  0
 27 28  1  0
 28 29  1  1
 11 30  1  0
 30 31  1  0
 31 32  1  1
 31  2  1  0
 30  5  1  0
 28  9  1  0
 28 15  1  0
 25 16  1  0
M  END
>  <identifier>  (1013) 
CNP0351703.1

>  <canonical_smiles>  (1013) 
C[C@@H]1CC[C@]2(C)CC[C@]3(C)C(C(=O)CC4[C@@]5(C)CC[C@H](O)C(C)(C)C5CC[C@]43C)C2[C@H]1C

>  <standard_inchi>  (1013) 
InChI=1S/C30H50O2/c1-18-9-12-27(5)15-16-30(8)25(24(27)19(18)2)20(31)17-22-28(6)13-11-23(32)26(3,4)21(28)10-14-29(22,30)7/h18-19,21-25,32H,9-17H2,1-8H3/t18-,19+,21?,22?,23+,24?,25?,27-,28+,29-,30-/m1/s1

>  <standard_inchi_key>  (1013) 
SBAHYKNARCOBND-ONKPEOBLSA-N

>  <name>  (1013) 
nan

>  <iupac_name>  (1013) 
(3~{S},6~{a}~{R},6~{b}~{R},8~{a}~{R},11~{R},12~{S},14~{b}~{R})-3-hydroxy-4,4,6~{a},6~{b},8~{a},11,12,14~{b}-octamethyl-1,2,3,4~{a},5,6,6~{a},7,8,9,10,11,12,12~{a},14,14~{a}-hexadecahydropicen-13-one

>  <annotation_level>  (1013) 
4

>  <total_atom_count>  (1013) 
82

>  <heavy_atom_count>  (1013) 
32

>  <molecular_weight>  (1013) 
442.73

>  <exact_molecular_weight>  (1013) 
442.38108

>  <molecular_formula>  (1013) 
C30H50O2

>  <alogp>  (1013) 
7.28

>  <topological_polar_surface_area>  (1013) 
37.30

>  <rotatable_bond_count>  (1013) 
0

>  <hydrogen_bond_acceptors>  (1013) 
2

>  <hydrogen_bond_donors>  (1013) 
1

>  <hydrogen_bond_acceptors_lipinski>  (1013) 
2

>  <hydrogen_bond_donors_lipinski>  (1013) 
1

>  <lipinski_rule_of_five_violations>  (1013) 
1

>  <aromatic_rings_count>  (1013) 
0

>  <qed_drug_likeliness>  (1013) 
0.43

>  <formal_charge>  (1013) 
0

>  <fractioncsp3>  (1013) 
0.97

>  <number_of_minimal_rings>  (1013) 
5

>  <van_der_walls_volume>  (1013) 
nan

>  <contains_sugar>  (1013) 
False

>  <contains_ring_sugars>  (1013) 
False

>  <contains_linear_sugars>  (1013) 
False

>  <murcko_framework>  (1013) 
C1CCC2C(C1)CCC3C2CCC4C5CCCCC5CCC43

>  <np_likeness>  (1013) 
2.85

>  <chemical_class>  (1013) 
Prenol lipids

>  <chemical_sub_class>  (1013) 
Triterpenoids

>  <chemical_super_class>  (1013) 
Lipids and lipid-like molecules

>  <direct_parent_classification>  (1013) 
Taraxastane, ursane, and bauerane triterpenoids

>  <np_classifier_pathway>  (1013) 
Terpenoids

>  <np_classifier_superclass>  (1013) 
Triterpenoids

>  <np_classifier_class>  (1013) 
Bauerane triterpenoids

>  <np_classifier_is_glycoside>  (1013) 
False

>  <organisms>  (1013) 
Esenbeckia grandiflora

>  <collections>  (1013) 
Latin America dataset|NuBBEDB|WikiData Natural Products

>  <dois>  (1013) 
10.1590/S0100-40422009000800010

>  <synonyms>  (1013) 
3\u221a\u00e9\u00ac\u00b1-hydroxy-ursan-12-one

>  <cas>  (1013) 
nan

$$$$

     RDKit          2D

 20 22  0  0  0  0  0  0  0  0999 V2000
   -5.9818   -1.9954    0.0000 C   0  0  0  0  0  0  0  0  0  0  0  0
   -4.5259   -2.3567    0.0000 O   0  0  0  0  0  0  0  0  0  0  0  0
   -3.4851   -1.2766    0.0000 C   0  0  0  0  0  0  0  0  0  0  0  0
   -3.9001    0.1649    0.0000 C   0  0  0  0  0  0  0  0  0  0  0  0
   -2.8593    1.2450    0.0000 C   0  0  0  0  0  0  0  0  0  0  0  0
   -3.2743    2.6864    0.0000 O   0  0  0  0  0  0  0  0  0  0  0  0
   -1.4035    0.8837    0.0000 C   0  0  0  0  0  0  0  0  0  0  0  0
   -0.3626    1.9638    0.0000 C   0  0  0  0  0  0  0  0  0  0  0  0
   -0.7777    3.4053    0.0000 O   0  0  0  0  0  0  0  0  0  0  0  0
    1.0932    1.6025    0.0000 C   0  0  0  0  0  0  0  0  0  0  0  0
    1.5082    0.1611    0.0000 C   0  0  0  0  0  0  0  0  0  0  0  0
    2.9640   -0.2002    0.0000 C   0  0  0  0  0  0  0  0  0  0  0  0
    3.3791   -1.6417    0.0000 C   0  0  0  0  0  0  0  0  0  0  0  0
    4.8349   -2.0030    0.0000 C   0  0  0  0  0  0  0  0  0  0  0  0
    5.8757   -0.9229    0.0000 C   0  0  0  0  0  0  0  0  0  0  0  0
    5.4607    0.5186    0.0000 C   0  0  0  0  0  0  0  0  0  0  0  0
    4.0049    0.8799    0.0000 C   0  0  0  0  0  0  0  0  0  0  0  0
    0.4674   -0.9191    0.0000 O   0  0  0  0  0  0  0  0  0  0  0  0
   -0.9885   -0.5578    0.0000 C   0  0  0  0  0  0  0  0  0  0  0  0
   -2.0293   -1.6379    0.0000 C   0  0  0  0  0  0  0  0  0  0  0  0
  1  2  1  0
  2  3  1  0
  3  4  2  0
  4  5  1  0
  5  6  1  0
  5  7  2  0
  7  8  1  0
  8  9  2  0
  8 10  1  0
 10 11  1  0
 11 12  1  1
 12 13  2  0
 13 14  1  0
 14 15  2  0
 15 16  1  0
 16 17  2  0
 11 18  1  0
 18 19  1  0
 19 20  2  0
 20  3  1  0
 19  7  1  0
 17 12  1  0
M  END
>  <identifier>  (1014) 
CNP0280813.1

>  <canonical_smiles>  (1014) 
COC1=CC(O)=C2C(=O)C[C@@H](C3=CC=CC=C3)OC2=C1

>  <standard_inchi>  (1014) 
InChI=1S/C16H14O4/c1-19-11-7-12(17)16-13(18)9-14(20-15(16)8-11)10-5-3-2-4-6-10/h2-8,14,17H,9H2,1H3/t14-/m0/s1

>  <standard_inchi_key>  (1014) 
ORJDDOBAOGKRJV-AWEZNQCLSA-N

>  <name>  (1014) 
Pinostrobin

>  <iupac_name>  (1014) 
(2~{S})-5-hydroxy-7-methoxy-2-phenyl-chroman-4-one

>  <annotation_level>  (1014) 
5

>  <total_atom_count>  (1014) 
34

>  <heavy_atom_count>  (1014) 
20

>  <molecular_weight>  (1014) 
270.28

>  <exact_molecular_weight>  (1014) 
270.08921

>  <molecular_formula>  (1014) 
C16H14O4

>  <alogp>  (1014) 
3.11

>  <topological_polar_surface_area>  (1014) 
55.76

>  <rotatable_bond_count>  (1014) 
2

>  <hydrogen_bond_acceptors>  (1014) 
4

>  <hydrogen_bond_donors>  (1014) 
1

>  <hydrogen_bond_acceptors_lipinski>  (1014) 
4

>  <hydrogen_bond_donors_lipinski>  (1014) 
1

>  <lipinski_rule_of_five_violations>  (1014) 
0

>  <aromatic_rings_count>  (1014) 
2

>  <qed_drug_likeliness>  (1014) 
0.91

>  <formal_charge>  (1014) 
0

>  <fractioncsp3>  (1014) 
0.19

>  <number_of_minimal_rings>  (1014) 
3

>  <van_der_walls_volume>  (1014) 
238.17

>  <contains_sugar>  (1014) 
False

>  <contains_ring_sugars>  (1014) 
False

>  <contains_linear_sugars>  (1014) 
False

>  <murcko_framework>  (1014) 
O1c2ccccc2CCC1c3ccccc3

>  <np_likeness>  (1014) 
1.33

>  <chemical_class>  (1014) 
Flavonoids

>  <chemical_sub_class>  (1014) 
O-methylated flavonoids

>  <chemical_super_class>  (1014) 
Phenylpropanoids and polyketides

>  <direct_parent_classification>  (1014) 
7-O-methylated flavonoids

>  <np_classifier_pathway>  (1014) 
Shikimates and Phenylpropanoids

>  <np_classifier_superclass>  (1014) 
Flavonoids

>  <np_classifier_class>  (1014) 
Flavanones

>  <np_classifier_is_glycoside>  (1014) 
False

>  <organisms>  (1014) 
Aaptos ciliata|Abies excelsa|Abies pinsapo var. marocana|Acer saccharum|Achlya heterosexualis|Aconitum variegatum|Acrocarpia paniculata|Alnus firma|Alpinia katsumadai|Alternaria macrospora|Amorphophallus konjac|Ampelocera edentula|Andira retusa|Angelica acutiloba|Angelica pancicii|Aniba riparia|Aniba santalodora|Anodendron affine|Apis mellifera|Aplidium solidum|Aralia hispida|Argemone aenea|Arnica mollis|Artemisia campestris|Astragalus circassicus|Baeckea frutescens|Balanophora polyandra|Beilschmiedia madang|Bethencourtia palmensis|Boesenbergia pandurata|Boesenbergia rotunda|Boswellia ovalifoliolata|Botrytis cinerea|Brassica carinata|Bryonia alba|Cajanus cajan|Campanula choziatowskyi|Canthium schimperianum|Carpha glomerata|Cedrela salvadorensis|Celastrus kusanoi|Centaurea scoparia|Centaurea sonchifolia|Cheilanthes fragrans|Chenopodiastrum murale|Chenopodium quinoa|Chrysosporum ovalisporum|Citrus medica|Clathria basilana|Colchicum filifolium|Coprosma foetidissima|Croton gratissimus|Cryptocarya chinensis|Cryptostylis fulva|Cyanostegia angustifolia|Cynoglossum macrostylum|Cyttaria johowii|Dactylorhiza viridis|Dalbergia odorifera|Davidsonia pruriens|Dialium excelsum|Diplopterygium glaucum|Drymaria cordata|Dysidea fragilis|Dysphania graveolens|Dyssodia anthemidifolia|Eremophila exotrachys|Eriocephalus kingesii|Erythrina hypaphorus|Erythrina subumbrans|Esox lucius|Etmopterus spinax|Eucalyptus regnans|Eucalyptus resinifera|Euphorbia hylonoma|Euphrasia genargentea|Eurycoma harmandiana|Fadogia agrestis|Friesodielsia enghiana|Fusarium striatum|Gaillardia coahuilensis|Garcinia cambogia|Geranium collinum|Girgensohnia oppositiflora|Gonotheca helianthoides|Halobacillus litoralis|Haplopappus remyanus|Hardenbergia violacea|Harpullia cupanioides|Heliotropium scabrum|Helleborus macranthus|Hertia cheirifolia|Hypericum perforatum|Hypocrella bambusae|Iris kashmiriana|Isodon eriocalyx|Isodon oresbius|Ixeris debilis|Kaempferia pandurata|Kaempferia parviflora|Lactarius mitissimus|Laennecia filaginoides|Laggera pterodonta|Leguminosae|Lemonia spectabilis|Lepechinia urbanii|Leptospermum scoparium|Lespedeza maximowiczi|Licaria chrysophylla|Lilium rubrum|Lindera erythrocarpa|Lindera umbellata|Litsea glaucescens|Lobelia syphilitica|Lobophytum durum|Lonchocarpus chiricanus|Luma chequen|Lychnophora markgravii|Lychnophora pinaster|Lysastrosoma anthosticta|Lysimachia fordiana|Maclura cochinchinensis|Magnolia laevifolia|Marasmiellus troyanus|Marrubium parviflorum|Maschalostachys markgrafii|Matricaria sabulosa|Matsucoccus josephi|Maytenus chuchuhuasha|Mentzelia decapetala|Mexican Brown Propolis|Mexican propolis|Microglossa pyrifolia|Miliusa balansae|Miliusa sinensis|Mimosa pigra|Mucuna holtonii|Muntingia calabura|Mycobacterium avium|Nannizzia gypsea|Nepytia freemani|Odixia angusta|Onychium siliculosum|Orgyia pseudotsugata|Ormosia hosiei|Ornithoglossum viride|Orthosiphon spicatus|Ostrya carpinifolia|Oxytropis falcata|Padina tetrastromatica|Panicum crus-galli|Parmotrema nilgherrense|Parthenium confertum|Persicaria ferruginea|Pertusaria truncata|Petasites laevigatus|Petunia axillaris subsp. parodii|Phymatopteris hastata|Pinus armandi|Pinus clausa|Pinus lambertiana|Pinus morrisonicola|Pinus sibirica|Piper aduncum|Piper cubeba|Piper fadyenii|Piper hispidum|Piper majusculum|Piper methysticum|Piper porphyrophyllum|Piper rugosum|Pityrogramma ebenea|Pityrogramma tartarea|Pocillopora eydouxi|Podocarpus dacrydioides|Polygonatum polyanthemum|Polypodium decumanum|Pongamia pinnata|Populus alba|Populus balsamifera|Populus candicans|Populus cathayana|Populus deltoides|Populus laurifolia|Populus tomentosa|Populus trichocarpa|Populus tristis|Preussia terricola|Propolis|Psathyrotes ramosissima|Psychotria leiocarpa|Pterocaulon serrulatum|Pterolobium hexapetalum|Pulsatilla chinensis|Pyropolyporus fomentarius|Quercus marilandica|Ranunculus asiaticus|Remirea maritima|Renealmia nicolaioides|Ribes viscosissimum|Roemeria hybrida|Rubia akane|Rubia tetragona|Salix rosmarinifolia|Salvia lavanduloides|Salvia patens|Salvia texana|Salvia virgata|Sarcandra glabra|Sarcandra hainanensis|Schizanthus tricolor|Schizophyllum lobatum|Scleropyrum wallichianum|Senecio platyphylloides|Sinapis alba|Solanum lanceolatum|Sphaeranthus confertifolius|Sphaerechinus granularis|Sphaeria rousseliana|Stephania dielsiana|Stephania discolor|Streptomyces graminofaciens|Streptomyces matensis|Taxandria spathulata|Tephrosia elata|Thalassiosira weissflogii|Trididemnum cyanophorum|Trifolium diffusum|Uvaria chamae|Uvaria rufa|Veretillum cynomorium|Veronica stricta|Viburnum erubescens|Viguiera arenaria|Walsura yunnanensis|Wikstroemia viridiflora|Xanthorhiza simplicissima|Xylopia emarginata|Youngia japonica|Zanthoxylum ocumarense|Zingiber officinale|Zuccagnia punctata|chinese propolis|tarragon

>  <collections>  (1014) 
AfroCancer|AfroMalariaDB|Australian natural products|BIOFACQUIM|CMAUP (cCollective molecular activities of useful plants)|ChEBI NPs|ConMedNP|ETM (Ethiopian Traditional Medicine) DB|InflamNat|Latin America dataset|NPASS|NuBBEDB|Phyto4Health|Super Natural II|TIPdb (database of Taiwan indigenous plants)|WikiData Natural Products|ZINC NP

>  <dois>  (1014) 
10.1002/BIO.1209|10.1007/978-1-4613-4151-2_9|10.1007/BF00569825|10.1007/BF00599013|10.1007/BF00607554|10.1007/BF00630627|10.1007/BF02236417|10.1007/S10600-009-9291-4|10.1007/S10600-011-9970-9|10.1016/0031-9422(74)85048-X|10.1016/0031-9422(83)83075-1|10.1016/0031-9422(88)80201-2|10.1016/0031-9422(88)80479-5|10.1016/0031-9422(88)83049-8|10.1016/0031-9422(90)85186-J|10.1016/0031-9422(91)80089-J|10.1016/0031-9422(93)80020-S|10.1016/0031-9422(96)00018-0|10.1016/0031-9422(96)00084-2|10.1016/0305-1978(78)90024-8|10.1016/0305-1978(91)90071-7|10.1016/0305-1978(93)90083-4|10.1016/J.BMCL.2005.12.075|10.1016/J.BMCL.2013.04.032|10.1016/J.FITOTE.2010.05.005|10.1016/J.FOODCHEM.2010.01.062|10.1016/J.JEP.2010.01.009|10.1016/J.JEP.2011.09.038|10.1016/J.PHYMED.2014.02.011|10.1016/J.PHYTOCHEM.2006.06.018|10.1016/J.PHYTOCHEM.2008.09.001|10.1016/S0031-9422(00)81303-5|10.1016/S0031-9422(00)81509-5|10.1016/S0031-9422(00)83877-7|10.1016/S0031-9422(00)84186-2|10.1016/S0031-9422(00)90467-9|10.1016/S0031-9422(00)90601-0|10.1016/S0031-9422(00)98114-7|10.1016/S0031-9422(01)00451-4|10.1016/S0031-9422(02)00374-6|10.1016/S0031-9422(03)00112-2|10.1016/S0031-9422(96)00527-4|10.1016/S0305-1978(01)00127-2|10.1016/S0305-1978(97)00084-7|10.1016/j.bmc.2009.02.050|10.1016/j.bmcl.2013.04.032|10.1016/j.indcrop.2019.01.050|10.1016/j.phymed.2014.02.011|10.1021/JF010016O|10.1021/JF010963X|10.1021/JF902991T|10.1021/JO00428A006|10.1021/NP020249P|10.1021/NP070286M|10.1021/NP100014J|10.1021/NP100339U|10.1021/NP50043A035|10.1021/NP50059A016|10.1021/np010486c|10.1021/np020249p|10.1021/np070286m|10.1021/np100014j|10.1021/np900772m|10.1055/A-0626-7356|10.1055/S-2002-20053|10.1055/S-2006-957598|10.1055/S-2006-958054|10.1055/a-0626-7356|10.1071/CH9772099|10.1071/CH9840449|10.1071/ch9862111|10.1080/13880200500385194|10.1080/14786410903421826|10.1080/14786419.2011.569505|10.1246/BCSJ.43.2223|10.1248/CPB.56.956|10.1248/CPB.57.743|10.1271/BBB.90114|10.1271/BBB1961.50.3053|10.1515/ZNC-1992-3-423|10.1515/ZNC-1992-7-804|10.1515/ZNC-1999-1220|10.1515/znc-1997-9-1003|10.3390/MOLECULES14031032|10.3390/MOLECULES23040852|10.3390/molecules23040852|10.3891/ACTA.CHEM.SCAND.04-1042|10.3891/ACTA.CHEM.SCAND.05-0121|10.3987/COM-89-5282

>  <synonyms>  (1014) 
(-)-2S-PINOCEMBRIN|(-)-pinostrobin|(2S)-2,3-DIHYDRO-5-HYDROXY-7-METHOXY-2-PHENYL-4H-1-BENZOPYRAN-4-ONE|(2S)-pinostrombin, Pinocembrin-7-methyl ether, (2S)-5-hydroxy-7-methoxyflavanone|(2s)-5-hydroxy-7-methoxyflavanone|(S)-2,3-Dihydro-5-hydroxy-7-methoxy-2-phenyl-4-benzopyrone|480-37-5|4H-1-BENZOPYRAN-4-ONE, 2,3-DIHYDRO-5-HYDROXY-7-METHOXY-2-PHENYL-, (2S)-|4H-1-Benzopyran-4-one, 2,3-dihydro-5-hydroxy-7-methoxy-2-phenyl-, (S)-|5-Hydroxy-7-methoxy-2-phenyl-2,3-dihydro-4H-1-benzopyran-4-one|5-Hydroxy-7-methoxy-2-phenyl-2,3-dihydro-4H-chromen-4-one|5-hydroxy-7-methoxy-2-phenylchroman-4-one|7-METHYLPINOCEMBRIN|AKOS037515398|BDBM50338968|CCG-262304|CHEBI:80491|CHEMBL254613|CS-0018678|DTXSID50963979|E87161|EINECS 207-548-1|FLAVANONE, 5-HYDROXY-7-METHOXY-|HY-N2127|Leguminosae|MS-23823|NCGC00163610-01|NS00124152|ORJDDOBAOGKRJV-AWEZNQCLSA-N|PINOCEMBRIN 7-METHYL ETHER|Pinocembrin-7-methylether|Pinostrobin, >=99.0% (TLC)|Pinostrombin|Q27149542|SCHEMBL7648566|SR-05000013704|SZD9LZS694|UNII-SZD9LZS694|dihydrotectochrysin|pinostrobin

>  <cas>  (1014) 
480-37-5

$$$$

     RDKit          2D

 45 49  0  0  0  0  0  0  0  0999 V2000
   -9.1952    3.9266    0.0000 C   0  0  0  0  0  0  0  0  0  0  0  0
   -8.6598    2.5254    0.0000 O   0  0  0  0  0  0  0  0  0  0  0  0
   -7.1787    2.2884    0.0000 C   0  0  0  0  0  0  0  0  0  0  0  0
   -6.2329    3.4527    0.0000 C   0  0  0  0  0  0  0  0  0  0  0  0
   -4.7517    3.2158    0.0000 C   0  0  0  0  0  0  0  0  0  0  0  0
   -4.2163    1.8146    0.0000 C   0  0  0  0  0  0  0  0  0  0  0  0
   -2.7351    1.5777    0.0000 C   0  0  0  0  0  0  0  0  0  0  0  0
   -2.1997    0.1765    0.0000 C   0  0  0  0  0  0  0  0  0  0  0  0
   -3.1455   -0.9878    0.0000 O   0  0  0  0  0  0  0  0  0  0  0  0
   -2.6101   -2.3890    0.0000 C   0  0  0  0  0  0  0  0  0  0  0  0
   -1.1289   -2.6259    0.0000 O   0  0  0  0  0  0  0  0  0  0  0  0
   -0.5935   -4.0271    0.0000 C   0  0  0  0  0  0  0  0  0  0  0  0
    0.8876   -4.2640    0.0000 C   0  0  0  0  0  0  0  0  0  0  0  0
   -1.5393   -5.1914    0.0000 C   0  0  0  0  0  0  0  0  0  0  0  0
   -1.0039   -6.5926    0.0000 O   0  0  0  0  0  0  0  0  0  0  0  0
   -3.0205   -4.9545    0.0000 C   0  0  0  0  0  0  0  0  0  0  0  0
   -3.9662   -6.1187    0.0000 O   0  0  0  0  0  0  0  0  0  0  0  0
   -3.5559   -3.5533    0.0000 C   0  0  0  0  0  0  0  0  0  0  0  0
   -5.0371   -3.3163    0.0000 O   0  0  0  0  0  0  0  0  0  0  0  0
   -0.7186   -0.0605    0.0000 C   0  0  0  0  0  0  0  0  0  0  0  0
   -0.1832   -1.4617    0.0000 O   0  0  0  0  0  0  0  0  0  0  0  0
    0.2272    1.1038    0.0000 C   0  0  0  0  0  0  0  0  0  0  0  0
    1.7084    0.8669    0.0000 C   0  0  0  0  0  0  0  0  0  0  0  0
    2.2438   -0.5343    0.0000 O   0  0  0  0  0  0  0  0  0  0  0  0
    3.7249   -0.7712    0.0000 C   0  0  0  0  0  0  0  0  0  0  0  0
    4.2603   -2.1724    0.0000 O   0  0  0  0  0  0  0  0  0  0  0  0
    5.7415   -2.4094    0.0000 C   0  0  0  0  0  0  0  0  0  0  0  0
    6.2769   -3.8106    0.0000 C   0  0  0  0  0  0  0  0  0  0  0  0
    6.6873   -1.2451    0.0000 C   0  0  0  0  0  0  0  0  0  0  0  0
    8.1685   -1.4820    0.0000 O   0  0  0  0  0  0  0  0  0  0  0  0
    6.1519    0.1561    0.0000 C   0  0  0  0  0  0  0  0  0  0  0  0
    7.0977    1.3204    0.0000 O   0  0  0  0  0  0  0  0  0  0  0  0
    4.6707    0.3930    0.0000 C   0  0  0  0  0  0  0  0  0  0  0  0
    4.1353    1.7942    0.0000 O   0  0  0  0  0  0  0  0  0  0  0  0
    2.6541    2.0311    0.0000 C   0  0  0  0  0  0  0  0  0  0  0  0
    2.1187    3.4323    0.0000 C   0  0  0  0  0  0  0  0  0  0  0  0
    3.0645    4.5966    0.0000 O   0  0  0  0  0  0  0  0  0  0  0  0
    4.5457    4.3597    0.0000 C   0  0  0  0  0  0  0  0  0  0  0  0
    5.4914    5.5239    0.0000 C   0  0  0  0  0  0  0  0  0  0  0  0
    5.0811    2.9585    0.0000 O   0  0  0  0  0  0  0  0  0  0  0  0
    0.6376    3.6693    0.0000 C   0  0  0  0  0  0  0  0  0  0  0  0
   -0.3082    2.5050    0.0000 C   0  0  0  0  0  0  0  0  0  0  0  0
   -1.7894    2.7419    0.0000 O   0  0  0  0  0  0  0  0  0  0  0  0
   -5.1621    0.6503    0.0000 C   0  0  0  0  0  0  0  0  0  0  0  0
   -6.6433    0.8872    0.0000 C   0  0  0  0  0  0  0  0  0  0  0  0
  1  2  1  0
  2  3  1  0
  3  4  2  0
  4  5  1  0
  5  6  2  0
  6  7  1  0
  7  8  2  0
  8  9  1  0
 10  9  1  6
 10 11  1  0
 11 12  1  0
 12 13  1  1
 12 14  1  0
 14 15  1  6
 14 16  1  0
 16 17  1  1
 16 18  1  0
 18 19  1  1
  8 20  1  0
 20 21  2  0
 20 22  1  0
 22 23  2  0
 23 24  1  0
 25 24  1  1
 25 26  1  0
 26 27  1  0
 27 28  1  6
 27 29  1  0
 29 30  1  1
 29 31  1  0
 31 32  1  6
 31 33  1  0
 33 34  1  6
 23 35  1  0
 35 36  2  0
 36 37  1  0
 37 38  1  0
 38 39  1  0
 38 40  2  0
 36 41  1  0
 41 42  2  0
 42 43  1  0
  6 44  1  0
 44 45  2  0
 45  3  1  0
 43  7  1  0
 18 10  1  0
 42 22  1  0
 33 25  1  0
M  END
>  <identifier>  (1015) 
CNP0324325.1

>  <canonical_smiles>  (1015) 
COC1=CC=C(C2=C(O[C@@H]3O[C@@H](C)[C@H](O)[C@@H](O)[C@H]3O)C(=O)C3=C(O[C@@H]4O[C@@H](C)[C@H](O)[C@@H](O)[C@H]4O)C=C(OC(C)=O)C=C3O2)C=C1

>  <standard_inchi>  (1015) 
InChI=1S/C30H34O15/c1-11-20(32)23(35)25(37)29(40-11)44-18-10-16(42-13(3)31)9-17-19(18)22(34)28(27(43-17)14-5-7-15(39-4)8-6-14)45-30-26(38)24(36)21(33)12(2)41-30/h5-12,20-21,23-26,29-30,32-33,35-38H,1-4H3/t11-,12-,20-,21-,23+,24+,25+,26+,29-,30-/m0/s1

>  <standard_inchi_key>  (1015) 
OYJBVFOLIWKKBW-ABSKOJRNSA-N

>  <name>  (1015) 
nan

>  <iupac_name>  (1015) 
[2-(4-methoxyphenyl)-4-oxo-3,5-bis[[(2~{S},3~{R},4~{R},5~{R},6~{S})-3,4,5-trihydroxy-6-methyl-tetrahydropyran-2-yl]oxy]chromen-7-yl] acetate

>  <annotation_level>  (1015) 
5

>  <total_atom_count>  (1015) 
79

>  <heavy_atom_count>  (1015) 
45

>  <molecular_weight>  (1015) 
634.59

>  <exact_molecular_weight>  (1015) 
634.18977

>  <molecular_formula>  (1015) 
C30H34O15

>  <alogp>  (1015) 
-0.19

>  <topological_polar_surface_area>  (1015) 
224.04

>  <rotatable_bond_count>  (1015) 
7

>  <hydrogen_bond_acceptors>  (1015) 
15

>  <hydrogen_bond_donors>  (1015) 
6

>  <hydrogen_bond_acceptors_lipinski>  (1015) 
15

>  <hydrogen_bond_donors_lipinski>  (1015) 
6

>  <lipinski_rule_of_five_violations>  (1015) 
3

>  <aromatic_rings_count>  (1015) 
3

>  <qed_drug_likeliness>  (1015) 
0.15

>  <formal_charge>  (1015) 
0

>  <fractioncsp3>  (1015) 
0.47

>  <number_of_minimal_rings>  (1015) 
5

>  <van_der_walls_volume>  (1015) 
530.42

>  <contains_sugar>  (1015) 
True

>  <contains_ring_sugars>  (1015) 
True

>  <contains_linear_sugars>  (1015) 
False

>  <murcko_framework>  (1015) 
O1c2cccc(OC3OCCCC3)c2CC(OC4OCCCC4)=C1c5ccccc5

>  <np_likeness>  (1015) 
1.35

>  <chemical_class>  (1015) 
Flavonoids

>  <chemical_sub_class>  (1015) 
Flavonoid glycosides

>  <chemical_super_class>  (1015) 
Phenylpropanoids and polyketides

>  <direct_parent_classification>  (1015) 
Flavonoid-3-O-glycosides

>  <np_classifier_pathway>  (1015) 
Shikimates and Phenylpropanoids

>  <np_classifier_superclass>  (1015) 
Flavonoids

>  <np_classifier_class>  (1015) 
Flavonols

>  <np_classifier_is_glycoside>  (1015) 
True

>  <organisms>  (1015) 
Chiococca alba|Chiococca brachiata

>  <collections>  (1015) 
ChemSpider NPs|Latin America dataset|NuBBEDB|WikiData Natural Products|ZINC NP

>  <dois>  (1015) 
10.1590/S0103-50532004000400004

>  <synonyms>  (1015) 
4'-Methoxykaempferol-7-(acetyloxy)-35-O-\u221a\u00e9\u00ac\u00b1-L-rhamnoside

>  <cas>  (1015) 
nan

$$$$

     RDKit          2D

 14 14  0  0  0  0  0  0  0  0999 V2000
   -5.0949    0.9924    0.0000 C   0  0  0  0  0  0  0  0  0  0  0  0
   -3.5949    1.0007    0.0000 C   0  0  0  0  0  0  0  0  0  0  0  0
   -2.8377   -0.2941    0.0000 C   0  0  0  0  0  0  0  0  0  0  0  0
   -1.3377   -0.2858    0.0000 C   0  0  0  0  0  0  0  0  0  0  0  0
   -0.5949    1.0174    0.0000 C   0  0  0  0  0  0  0  0  0  0  0  0
    0.9050    1.0257    0.0000 C   0  0  0  0  0  0  0  0  0  0  0  0
    1.6478    2.3289    0.0000 O   0  0  0  0  0  0  0  0  0  0  0  0
    3.1478    2.3372    0.0000 C   0  0  0  0  0  0  0  0  0  0  0  0
    1.6622   -0.2691    0.0000 C   0  0  0  0  0  0  0  0  0  0  0  0
    3.1622   -0.2608    0.0000 O   0  0  0  0  0  0  0  0  0  0  0  0
    3.9194   -1.5556    0.0000 C   0  0  0  0  0  0  0  0  0  0  0  0
    0.9195   -1.5723    0.0000 C   0  0  0  0  0  0  0  0  0  0  0  0
   -0.5805   -1.5807    0.0000 C   0  0  0  0  0  0  0  0  0  0  0  0
   -1.3233   -2.8838    0.0000 O   0  0  0  0  0  0  0  0  0  0  0  0
  1  2  2  0
  2  3  1  0
  3  4  1  0
  4  5  2  0
  5  6  1  0
  6  7  1  0
  7  8  1  0
  6  9  2  0
  9 10  1  0
 10 11  1  0
  9 12  1  0
 12 13  2  0
 13 14  1  0
 13  4  1  0
M  END
>  <identifier>  (1016) 
CNP0302606.0

>  <canonical_smiles>  (1016) 
C=CCC1=CC(OC)=C(OC)C=C1O

>  <standard_inchi>  (1016) 
InChI=1S/C11H14O3/c1-4-5-8-6-10(13-2)11(14-3)7-9(8)12/h4,6-7,12H,1,5H2,2-3H3

>  <standard_inchi_key>  (1016) 
IHAVVJBEVFMSES-UHFFFAOYSA-N

>  <name>  (1016) 
2-Allyl-4,5-dimethoxyphenol

>  <iupac_name>  (1016) 
2-allyl-4,5-dimethoxy-phenol

>  <annotation_level>  (1016) 
5

>  <total_atom_count>  (1016) 
28

>  <heavy_atom_count>  (1016) 
14

>  <molecular_weight>  (1016) 
194.23

>  <exact_molecular_weight>  (1016) 
194.09429

>  <molecular_formula>  (1016) 
C11H14O3

>  <alogp>  (1016) 
2.14

>  <topological_polar_surface_area>  (1016) 
38.69

>  <rotatable_bond_count>  (1016) 
4

>  <hydrogen_bond_acceptors>  (1016) 
3

>  <hydrogen_bond_donors>  (1016) 
1

>  <hydrogen_bond_acceptors_lipinski>  (1016) 
3

>  <hydrogen_bond_donors_lipinski>  (1016) 
1

>  <lipinski_rule_of_five_violations>  (1016) 
0

>  <aromatic_rings_count>  (1016) 
1

>  <qed_drug_likeliness>  (1016) 
0.75

>  <formal_charge>  (1016) 
0

>  <fractioncsp3>  (1016) 
0.27

>  <number_of_minimal_rings>  (1016) 
1

>  <van_der_walls_volume>  (1016) 
nan

>  <contains_sugar>  (1016) 
False

>  <contains_ring_sugars>  (1016) 
False

>  <contains_linear_sugars>  (1016) 
False

>  <murcko_framework>  (1016) 
c1ccccc1

>  <np_likeness>  (1016) 
1.02

>  <chemical_class>  (1016) 
Phenols

>  <chemical_sub_class>  (1016) 
Methoxyphenols

>  <chemical_super_class>  (1016) 
Benzenoids

>  <direct_parent_classification>  (1016) 
Methoxyphenols

>  <np_classifier_pathway>  (1016) 
Shikimates and Phenylpropanoids

>  <np_classifier_superclass>  (1016) 
Phenylpropanoids (C6-C3)

>  <np_classifier_class>  (1016) 
Cinnamic acids and derivatives

>  <np_classifier_is_glycoside>  (1016) 
False

>  <organisms>  (1016) 
Aniba lancifolia|Bulbophyllum cheiri|Clitocybe inversa|Delphinus delphis|Hypericum calycinum|Kalanchoe petitiana|Tripora divaricata

>  <collections>  (1016) 
Latin America dataset|NPASS|NuBBEDB|Super Natural II|UNPD (Universal Natural Products Database)|WikiData Natural Products|ZINC NP

>  <dois>  (1016) 
10.1016/S0031-9422(00)81975-5|10.1016/S0305-1978(03)00179-0

>  <synonyms>  (1016) 
2-Hydroxy-45-dimethoxyallylbenzene|4,5-DIMETHOXY-2-(2-PROPENYL)PHENOL|4,5-DIMETHOXY-2-(PROP-2-EN-1-YL)PHENOL|4,5-dimethoxy-2-prop-2-enylphenol|59893-87-7|A914502|AKOS015891162|BDBM50321277|C75801|CHEMBL1163202|CS-0158006|DB-338058|DS-6852|DTXSID20451252|EN300-1721583|MFCD18975114|SCHEMBL13387030|Z1251353913

>  <cas>  (1016) 
59893-87-7

$$$$

     RDKit          2D

 33 36  0  0  0  0  0  0  0  0999 V2000
   -8.8215    1.2252    0.0000 C   0  0  0  0  0  0  0  0  0  0  0  0
   -7.9170    0.0286    0.0000 O   0  0  0  0  0  0  0  0  0  0  0  0
   -6.4285    0.2136    0.0000 C   0  0  0  0  0  0  0  0  0  0  0  0
   -5.8444    1.5953    0.0000 C   0  0  0  0  0  0  0  0  0  0  0  0
   -4.3559    1.7803    0.0000 C   0  0  0  0  0  0  0  0  0  0  0  0
   -3.4514    0.5837    0.0000 C   0  0  0  0  0  0  0  0  0  0  0  0
   -1.9628    0.7688    0.0000 C   0  0  0  0  0  0  0  0  0  0  0  0
   -1.3788    2.1504    0.0000 C   0  0  0  0  0  0  0  0  0  0  0  0
    0.1097    2.3355    0.0000 C   0  0  0  0  0  0  0  0  0  0  0  0
    0.6937    3.7171    0.0000 O   0  0  0  0  0  0  0  0  0  0  0  0
    1.0142    1.1389    0.0000 C   0  0  0  0  0  0  0  0  0  0  0  0
    2.5028    1.3239    0.0000 C   0  0  0  0  0  0  0  0  0  0  0  0
    3.0868    2.7056    0.0000 O   0  0  0  0  0  0  0  0  0  0  0  0
    4.5753    2.8906    0.0000 C   0  0  0  0  0  0  0  0  0  0  0  0
    5.1594    4.2723    0.0000 C   0  0  0  0  0  0  0  0  0  0  0  0
    5.4799    1.6940    0.0000 O   0  0  0  0  0  0  0  0  0  0  0  0
    3.4073    0.1273    0.0000 C   0  0  0  0  0  0  0  0  0  0  0  0
    2.8233   -1.2543    0.0000 C   0  0  0  0  0  0  0  0  0  0  0  0
    3.7278   -2.4509    0.0000 O   0  0  0  0  0  0  0  0  0  0  0  0
    5.2164   -2.2658    0.0000 C   0  0  0  0  0  0  0  0  0  0  0  0
    6.6784   -2.6011    0.0000 C   0  0  0  0  0  0  0  0  0  0  0  0
    5.1401   -3.7639    0.0000 C   0  0  0  0  0  0  0  0  0  0  0  0
    5.8004   -0.8842    0.0000 C   0  0  0  0  0  0  0  0  0  0  0  0
    4.8959    0.3124    0.0000 C   0  0  0  0  0  0  0  0  0  0  0  0
    1.3348   -1.4393    0.0000 C   0  0  0  0  0  0  0  0  0  0  0  0
    0.7507   -2.8210    0.0000 O   0  0  0  0  0  0  0  0  0  0  0  0
   -0.7378   -3.0060    0.0000 C   0  0  0  0  0  0  0  0  0  0  0  0
    0.4302   -0.2428    0.0000 C   0  0  0  0  0  0  0  0  0  0  0  0
   -1.0583   -0.4278    0.0000 O   0  0  0  0  0  0  0  0  0  0  0  0
   -4.0354   -0.7979    0.0000 C   0  0  0  0  0  0  0  0  0  0  0  0
   -5.5239   -0.9829    0.0000 C   0  0  0  0  0  0  0  0  0  0  0  0
   -6.1080   -2.3646    0.0000 O   0  0  0  0  0  0  0  0  0  0  0  0
   -5.2034   -3.5612    0.0000 C   0  0  0  0  0  0  0  0  0  0  0  0
  1  2  1  0
  2  3  1  0
  3  4  2  0
  4  5  1  0
  5  6  2  0
  6  7  1  0
  7  8  2  0
  8  9  1  0
  9 10  2  0
  9 11  1  0
 11 12  2  0
 12 13  1  0
 13 14  1  0
 14 15  1  0
 14 16  2  0
 12 17  1  0
 17 18  2  0
 18 19  1  0
 19 20  1  0
 20 21  1  0
 20 22  1  0
 20 23  1  0
 23 24  2  0
 18 25  1  0
 25 26  1  0
 26 27  1  0
 25 28  2  0
 28 29  1  0
  6 30  1  0
 30 31  2  0
 31 32  1  0
 32 33  1  0
 31  3  1  0
 29  7  1  0
 28 11  1  0
 24 17  1  0
M  END
>  <identifier>  (1017) 
CNP0101255.0

>  <canonical_smiles>  (1017) 
COC1=CC=C(C2=CC(=O)C3=C(OC(C)=O)C4=C(OC(C)(C)C=C4)C(OC)=C3O2)C=C1OC

>  <standard_inchi>  (1017) 
InChI=1S/C25H24O8/c1-13(26)31-21-15-9-10-25(2,3)33-22(15)24(30-6)23-20(21)16(27)12-18(32-23)14-7-8-17(28-4)19(11-14)29-5/h7-12H,1-6H3

>  <standard_inchi_key>  (1017) 
CMJWSWJCDIZRKJ-UHFFFAOYSA-N

>  <name>  (1017) 
nan

>  <iupac_name>  (1017) 
[8-(3,4-dimethoxyphenyl)-10-methoxy-2,2-dimethyl-6-oxo-pyrano[3,2-g]chromen-5-yl] acetate

>  <annotation_level>  (1017) 
3

>  <total_atom_count>  (1017) 
57

>  <heavy_atom_count>  (1017) 
33

>  <molecular_weight>  (1017) 
452.46

>  <exact_molecular_weight>  (1017) 
452.14712

>  <molecular_formula>  (1017) 
C25H24O8

>  <alogp>  (1017) 
4.60

>  <topological_polar_surface_area>  (1017) 
93.43

>  <rotatable_bond_count>  (1017) 
5

>  <hydrogen_bond_acceptors>  (1017) 
8

>  <hydrogen_bond_donors>  (1017) 
0

>  <hydrogen_bond_acceptors_lipinski>  (1017) 
8

>  <hydrogen_bond_donors_lipinski>  (1017) 
0

>  <lipinski_rule_of_five_violations>  (1017) 
0

>  <aromatic_rings_count>  (1017) 
3

>  <qed_drug_likeliness>  (1017) 
0.41

>  <formal_charge>  (1017) 
0

>  <fractioncsp3>  (1017) 
0.28

>  <number_of_minimal_rings>  (1017) 
4

>  <van_der_walls_volume>  (1017) 
nan

>  <contains_sugar>  (1017) 
False

>  <contains_ring_sugars>  (1017) 
False

>  <contains_linear_sugars>  (1017) 
False

>  <murcko_framework>  (1017) 
O1c2cc3OCC=Cc3cc2CC=C1c4ccccc4

>  <np_likeness>  (1017) 
1.75

>  <chemical_class>  (1017) 
Flavonoids

>  <chemical_sub_class>  (1017) 
Pyranoflavonoids

>  <chemical_super_class>  (1017) 
Phenylpropanoids and polyketides

>  <direct_parent_classification>  (1017) 
Pyranoflavonoids

>  <np_classifier_pathway>  (1017) 
Shikimates and Phenylpropanoids

>  <np_classifier_superclass>  (1017) 
Flavonoids

>  <np_classifier_class>  (1017) 
Flavones

>  <np_classifier_is_glycoside>  (1017) 
False

>  <organisms>  (1017) 
Neoraputia alba

>  <collections>  (1017) 
Latin America dataset|NuBBEDB|WikiData Natural Products|ZINC NP

>  <dois>  (1017) 
10.5935/0103-5053.19930018

>  <synonyms>  (1017) 
nan

>  <cas>  (1017) 
nan

$$$$

     RDKit          2D

 20 23  0  0  0  0  0  0  0  0999 V2000
   -5.1060   -1.2276    0.0000 C   0  0  0  0  0  0  0  0  0  0  0  0
   -3.7116   -0.6747    0.0000 C   0  0  0  0  0  0  0  0  0  0  0  0
   -2.4447   -1.4778    0.0000 C   0  0  0  0  0  0  0  0  0  0  0  0
   -1.2895   -0.5210    0.0000 C   0  0  0  0  0  0  0  0  0  0  0  0
   -0.5938   -1.8499    0.0000 C   0  0  0  0  0  0  0  0  0  0  0  0
    0.9049   -1.9119    0.0000 C   0  0  0  0  0  0  0  0  0  0  0  0
    1.7080   -0.6450    0.0000 C   0  0  0  0  0  0  0  0  0  0  0  0
    3.2067   -0.7070    0.0000 C   0  0  0  0  0  0  0  0  0  0  0  0
    4.5938   -1.2779    0.0000 C   0  0  0  0  0  0  0  0  0  0  0  0
    2.8854   -2.1722    0.0000 C   0  0  0  0  0  0  0  0  0  0  0  0
    4.0097    0.5599    0.0000 C   0  0  0  0  0  0  0  0  0  0  0  0
    3.3141    1.8888    0.0000 C   0  0  0  0  0  0  0  0  0  0  0  0
    1.8154    1.9509    0.0000 C   0  0  0  0  0  0  0  0  0  0  0  0
    1.0123    0.6839    0.0000 C   0  0  0  0  0  0  0  0  0  0  0  0
    0.3166    2.0129    0.0000 C   0  0  0  0  0  0  0  0  0  0  0  0
   -0.4864    0.7459    0.0000 C   0  0  0  0  0  0  0  0  0  0  0  0
   -1.1821    2.0749    0.0000 C   0  0  0  0  0  0  0  0  0  0  0  0
   -2.6808    2.1369    0.0000 C   0  0  0  0  0  0  0  0  0  0  0  0
   -3.4838    0.8699    0.0000 C   0  0  0  0  0  0  0  0  0  0  0  0
   -2.7882   -0.4590    0.0000 C   0  0  0  0  0  0  0  0  0  0  0  0
  1  2  2  0
  2  3  1  0
  4  3  1  6
  4  5  1  0
  5  6  1  0
  7  6  1  1
  7  8  1  0
  8  9  1  0
  8 10  1  0
  8 11  1  0
 11 12  1  0
 12 13  1  0
 13 14  1  0
 14 15  1  1
 14 16  1  0
 16 17  2  0
 17 18  1  0
 19 18  1  6
 19 20  1  0
 19  2  1  0
 16  4  1  0
 20  4  1  0
 14  7  1  0
M  END
>  <identifier>  (1018) 
CNP0238744.1

>  <canonical_smiles>  (1018) 
C=C1C[C@@]23CC[C@@H]4C(C)(C)CCC[C@@]4(C)C2=CC[C@@H]1C3

>  <standard_inchi>  (1018) 
InChI=1S/C20H30/c1-14-12-20-11-8-16-18(2,3)9-5-10-19(16,4)17(20)7-6-15(14)13-20/h7,15-16H,1,5-6,8-13H2,2-4H3/t15-,16-,19-,20-/m1/s1

>  <standard_inchi_key>  (1018) 
RUTQZFCOTBYTMG-XNFNUYLZSA-N

>  <name>  (1018) 
nan

>  <iupac_name>  (1018) 
(1~{S},4~{R},9~{R},13~{R})-5,5,9-trimethyl-14-methylene-tetracyclo[11.2.1.0^{1,10}.0^{4,9}]hexadec-10-ene

>  <annotation_level>  (1018) 
3

>  <total_atom_count>  (1018) 
50

>  <heavy_atom_count>  (1018) 
20

>  <molecular_weight>  (1018) 
270.46

>  <exact_molecular_weight>  (1018) 
270.23475

>  <molecular_formula>  (1018) 
C20H30

>  <alogp>  (1018) 
5.90

>  <topological_polar_surface_area>  (1018) 
0.00

>  <rotatable_bond_count>  (1018) 
0

>  <hydrogen_bond_acceptors>  (1018) 
0

>  <hydrogen_bond_donors>  (1018) 
0

>  <hydrogen_bond_acceptors_lipinski>  (1018) 
0

>  <hydrogen_bond_donors_lipinski>  (1018) 
0

>  <lipinski_rule_of_five_violations>  (1018) 
1

>  <aromatic_rings_count>  (1018) 
0

>  <qed_drug_likeliness>  (1018) 
0.48

>  <formal_charge>  (1018) 
0

>  <fractioncsp3>  (1018) 
0.80

>  <number_of_minimal_rings>  (1018) 
4

>  <van_der_walls_volume>  (1018) 
nan

>  <contains_sugar>  (1018) 
False

>  <contains_ring_sugars>  (1018) 
False

>  <contains_linear_sugars>  (1018) 
False

>  <murcko_framework>  (1018) 
C1=C2C3CCCCC3CCC24CCC(C1)C4

>  <np_likeness>  (1018) 
2.99

>  <chemical_class>  (1018) 
Prenol lipids

>  <chemical_sub_class>  (1018) 
Diterpenoids

>  <chemical_super_class>  (1018) 
Lipids and lipid-like molecules

>  <direct_parent_classification>  (1018) 
Kaurane diterpenoids

>  <np_classifier_pathway>  (1018) 
Terpenoids

>  <np_classifier_superclass>  (1018) 
Diterpenoids

>  <np_classifier_class>  (1018) 
Kaurane and Phyllocladane diterpenoids

>  <np_classifier_is_glycoside>  (1018) 
False

>  <organisms>  (1018) 
Vellozia caput-ardeae

>  <collections>  (1018) 
Latin America dataset|NuBBEDB|WikiData Natural Products

>  <dois>  (1018) 
10.1016/0031-9422(83)80035-1

>  <synonyms>  (1018) 
nan

>  <cas>  (1018) 
nan

$$$$

     RDKit          2D

 20 22  0  0  0  0  0  0  0  0999 V2000
   -5.4006   -1.0361    0.0000 C   0  0  0  0  0  0  0  0  0  0  0  0
   -4.0074   -0.4802    0.0000 C   0  0  0  0  0  0  0  0  0  0  0  0
   -3.7923    1.0043    0.0000 C   0  0  0  0  0  0  0  0  0  0  0  0
   -2.3991    1.5602    0.0000 C   0  0  0  0  0  0  0  0  0  0  0  0
   -2.1840    3.0447    0.0000 O   0  0  0  0  0  0  0  0  0  0  0  0
   -1.2211    0.6317    0.0000 C   0  0  0  0  0  0  0  0  0  0  0  0
   -1.4362   -0.8528    0.0000 C   0  0  0  0  0  0  0  0  0  0  0  0
   -2.8294   -1.4087    0.0000 C   0  0  0  0  0  0  0  0  0  0  0  0
   -0.2582   -1.7814    0.0000 C   0  0  0  0  0  0  0  0  0  0  0  0
   -0.4733   -3.2659    0.0000 O   0  0  0  0  0  0  0  0  0  0  0  0
    1.1350   -1.2255    0.0000 C   0  0  0  0  0  0  0  0  0  0  0  0
    2.3130   -2.1540    0.0000 C   0  0  0  0  0  0  0  0  0  0  0  0
    3.7062   -1.5981    0.0000 C   0  0  0  0  0  0  0  0  0  0  0  0
    3.9214   -0.1136    0.0000 C   0  0  0  0  0  0  0  0  0  0  0  0
    5.3145    0.4423    0.0000 O   0  0  0  0  0  0  0  0  0  0  0  0
    2.7433    0.8149    0.0000 C   0  0  0  0  0  0  0  0  0  0  0  0
    2.9585    2.2994    0.0000 O   0  0  0  0  0  0  0  0  0  0  0  0
    1.3502    0.2590    0.0000 C   0  0  0  0  0  0  0  0  0  0  0  0
    0.1721    1.1876    0.0000 C   0  0  0  0  0  0  0  0  0  0  0  0
    0.3873    2.6721    0.0000 O   0  0  0  0  0  0  0  0  0  0  0  0
  1  2  1  0
  2  3  2  0
  3  4  1  0
  4  5  1  0
  4  6  2  0
  6  7  1  0
  7  8  2  0
  7  9  1  0
  9 10  2  0
  9 11  1  0
 11 12  1  1
 12 13  1  0
 13 14  1  0
 14 15  1  6
 14 16  1  0
 16 17  1  1
 16 18  1  0
 18 19  1  6
 19 20  1  1
  8  2  1  0
 18 11  1  0
 19  6  1  0
M  END
>  <identifier>  (1019) 
CNP0272958.1

>  <canonical_smiles>  (1019) 
CC1=CC(O)=C2C(=C1)C(=O)[C@@H]1CC[C@@H](O)[C@H](O)[C@H]1[C@@H]2O

>  <standard_inchi>  (1019) 
InChI=1S/C15H18O5/c1-6-4-8-11(10(17)5-6)15(20)12-7(13(8)18)2-3-9(16)14(12)19/h4-5,7,9,12,14-17,19-20H,2-3H2,1H3/t7-,9-,12+,14+,15-/m1/s1

>  <standard_inchi_key>  (1019) 
MWCGPXUTXLUBCW-ASGATMAYSA-N

>  <name>  (1019) 
Dendryol F

>  <iupac_name>  (1019) 
(3~{R},4~{R},4~{a}~{R},9~{a}~{R},10~{S})-3,4,5,10-tetrahydroxy-7-methyl-2,3,4,4~{a},9~{a},10-hexahydro-1~{H}-anthracen-9-one

>  <annotation_level>  (1019) 
5

>  <total_atom_count>  (1019) 
38

>  <heavy_atom_count>  (1019) 
20

>  <molecular_weight>  (1019) 
278.3

>  <exact_molecular_weight>  (1019) 
278.11542

>  <molecular_formula>  (1019) 
C15H18O5

>  <alogp>  (1019) 
0.68

>  <topological_polar_surface_area>  (1019) 
97.99

>  <rotatable_bond_count>  (1019) 
0

>  <hydrogen_bond_acceptors>  (1019) 
5

>  <hydrogen_bond_donors>  (1019) 
4

>  <hydrogen_bond_acceptors_lipinski>  (1019) 
5

>  <hydrogen_bond_donors_lipinski>  (1019) 
4

>  <lipinski_rule_of_five_violations>  (1019) 
0

>  <aromatic_rings_count>  (1019) 
1

>  <qed_drug_likeliness>  (1019) 
0.56

>  <formal_charge>  (1019) 
0

>  <fractioncsp3>  (1019) 
0.53

>  <number_of_minimal_rings>  (1019) 
3

>  <van_der_walls_volume>  (1019) 
nan

>  <contains_sugar>  (1019) 
False

>  <contains_ring_sugars>  (1019) 
False

>  <contains_linear_sugars>  (1019) 
False

>  <murcko_framework>  (1019) 
c1ccc2c(c1)CC3CCCCC3C2

>  <np_likeness>  (1019) 
1.94

>  <chemical_class>  (1019) 
Tetralins

>  <chemical_sub_class>  (1019) 
Tetralins

>  <chemical_super_class>  (1019) 
Benzenoids

>  <direct_parent_classification>  (1019) 
Tetralins

>  <np_classifier_pathway>  (1019) 
Polyketides

>  <np_classifier_superclass>  (1019) 
Polycyclic aromatic polyketides

>  <np_classifier_class>  (1019) 
Anthraquinones and anthrones

>  <np_classifier_is_glycoside>  (1019) 
False

>  <organisms>  (1019) 
Epicoccum sorghinum|Phoma sorghina

>  <collections>  (1019) 
Latin America dataset|NPAtlas|NuBBEDB|WikiData Natural Products

>  <dois>  (1019) 
10.1590/S0103-50532006000500017|10.1590/s0103-50532006000500017

>  <synonyms>  (1019) 
(3R,4R,4aR,9aR,10S)-3,4,5,10-tetrahydroxy-7-methyl-2,3,4,4a,9a,10-hexahydro-1H-anthracen-9-one|CHEBI:206376|Dendryol  F

>  <cas>  (1019) 
nan

$$$$

     RDKit          2D

 20 22  0  0  0  0  0  0  0  0999 V2000
   -3.7625   -2.9965    0.0000 C   0  0  0  0  0  0  0  0  0  0  0  0
   -2.3723   -2.4331    0.0000 O   0  0  0  0  0  0  0  0  0  0  0  0
   -2.1651   -0.9475    0.0000 C   0  0  0  0  0  0  0  0  0  0  0  0
   -3.3481   -0.0253    0.0000 C   0  0  0  0  0  0  0  0  0  0  0  0
   -4.7383   -0.5886    0.0000 O   0  0  0  0  0  0  0  0  0  0  0  0
   -3.1409    1.4604    0.0000 C   0  0  0  0  0  0  0  0  0  0  0  0
   -1.7507    2.0237    0.0000 C   0  0  0  0  0  0  0  0  0  0  0  0
   -1.5435    3.5094    0.0000 O   0  0  0  0  0  0  0  0  0  0  0  0
   -0.5678    1.1015    0.0000 C   0  0  0  0  0  0  0  0  0  0  0  0
   -0.7750   -0.3841    0.0000 C   0  0  0  0  0  0  0  0  0  0  0  0
    0.4080   -1.3064    0.0000 N   0  0  0  0  0  0  0  0  0  0  0  0
    1.7982   -0.7430    0.0000 C   0  0  0  0  0  0  0  0  0  0  0  0
    2.9812   -1.6653    0.0000 C   0  0  0  0  0  0  0  0  0  0  0  0
    2.7740   -3.1509    0.0000 O   0  0  0  0  0  0  0  0  0  0  0  0
    4.3714   -1.1019    0.0000 C   0  0  0  0  0  0  0  0  0  0  0  0
    4.5786    0.3837    0.0000 C   0  0  0  0  0  0  0  0  0  0  0  0
    3.3956    1.3060    0.0000 C   0  0  0  0  0  0  0  0  0  0  0  0
    2.0054    0.7426    0.0000 C   0  0  0  0  0  0  0  0  0  0  0  0
    0.8224    1.6649    0.0000 C   0  0  0  0  0  0  0  0  0  0  0  0
    1.0296    3.1505    0.0000 O   0  0  0  0  0  0  0  0  0  0  0  0
  1  2  1  0
  2  3  1  0
  3  4  2  0
  4  5  1  0
  4  6  1  0
  6  7  2  0
  7  8  1  0
  7  9  1  0
  9 10  2  0
 10 11  1  0
 11 12  1  0
 12 13  2  0
 13 14  1  0
 13 15  1  0
 15 16  2  0
 16 17  1  0
 17 18  2  0
 18 19  1  0
 19 20  2  0
 10  3  1  0
 18 12  1  0
 19  9  1  0
M  END
>  <identifier>  (1020) 
CNP0286998.0

>  <canonical_smiles>  (1020) 
COC1=C(O)C=C(O)C2=C1NC1=C(O)C=CC=C1C2=O

>  <standard_inchi>  (1020) 
InChI=1S/C14H11NO5/c1-20-14-9(18)5-8(17)10-12(14)15-11-6(13(10)19)3-2-4-7(11)16/h2-5,16-18H,1H3,(H,15,19)

>  <standard_inchi_key>  (1020) 
XRMCNVSMYHMIDI-UHFFFAOYSA-N

>  <name>  (1020) 
nan

>  <iupac_name>  (1020) 
1,3,5-trihydroxy-4-methoxy-10~{H}-acridin-9-one

>  <annotation_level>  (1020) 
4

>  <total_atom_count>  (1020) 
31

>  <heavy_atom_count>  (1020) 
20

>  <molecular_weight>  (1020) 
273.24

>  <exact_molecular_weight>  (1020) 
273.06372

>  <molecular_formula>  (1020) 
C14H11NO5

>  <alogp>  (1020) 
1.81

>  <topological_polar_surface_area>  (1020) 
102.78

>  <rotatable_bond_count>  (1020) 
1

>  <hydrogen_bond_acceptors>  (1020) 
5

>  <hydrogen_bond_donors>  (1020) 
4

>  <hydrogen_bond_acceptors_lipinski>  (1020) 
5

>  <hydrogen_bond_donors_lipinski>  (1020) 
4

>  <lipinski_rule_of_five_violations>  (1020) 
0

>  <aromatic_rings_count>  (1020) 
3

>  <qed_drug_likeliness>  (1020) 
0.51

>  <formal_charge>  (1020) 
0

>  <fractioncsp3>  (1020) 
0.07

>  <number_of_minimal_rings>  (1020) 
3

>  <van_der_walls_volume>  (1020) 
nan

>  <contains_sugar>  (1020) 
False

>  <contains_ring_sugars>  (1020) 
False

>  <contains_linear_sugars>  (1020) 
False

>  <murcko_framework>  (1020) 
c1ccc2c(c1)Nc3ccccc3C2

>  <np_likeness>  (1020) 
1.43

>  <chemical_class>  (1020) 
Quinolines and derivatives

>  <chemical_sub_class>  (1020) 
Benzoquinolines

>  <chemical_super_class>  (1020) 
Organoheterocyclic compounds

>  <direct_parent_classification>  (1020) 
Acridones

>  <np_classifier_pathway>  (1020) 
Alkaloids

>  <np_classifier_superclass>  (1020) 
Anthranilic acid alkaloids

>  <np_classifier_class>  (1020) 
Acridone alkaloids

>  <np_classifier_is_glycoside>  (1020) 
False

>  <organisms>  (1020) 
Swinglea glutinosa

>  <collections>  (1020) 
Latin America dataset|NuBBEDB|WikiData Natural Products

>  <dois>  (1020) 
10.1080/14786410600907002

>  <synonyms>  (1020) 
citrusinine-II

>  <cas>  (1020) 
nan

$$$$

     RDKit          2D

 15 16  0  0  0  0  0  0  0  0999 V2000
    2.3919   -3.3599    0.0000 C   0  0  0  0  0  0  0  0  0  0  0  0
    1.7686   -1.9955    0.0000 C   0  0  0  0  0  0  0  0  0  0  0  0
    0.2753   -1.8532    0.0000 C   0  0  0  0  0  0  0  0  0  0  0  0
   -0.3480   -0.4888    0.0000 C   0  0  0  0  0  0  0  0  0  0  0  0
   -1.8412   -0.3464    0.0000 C   0  0  0  0  0  0  0  0  0  0  0  0
   -2.7111   -1.5684    0.0000 C   0  0  0  0  0  0  0  0  0  0  0  0
   -4.2043   -1.4260    0.0000 O   0  0  0  0  0  0  0  0  0  0  0  0
   -2.4645    1.0179    0.0000 C   0  0  0  0  0  0  0  0  0  0  0  0
   -1.5946    2.2399    0.0000 C   0  0  0  0  0  0  0  0  0  0  0  0
   -0.1014    2.0976    0.0000 C   0  0  0  0  0  0  0  0  0  0  0  0
    0.7686    3.3195    0.0000 O   0  0  0  0  0  0  0  0  0  0  0  0
    0.5220    0.7332    0.0000 C   0  0  0  0  0  0  0  0  0  0  0  0
    2.0152    0.5908    0.0000 C   0  0  0  0  0  0  0  0  0  0  0  0
    2.8851    1.8128    0.0000 O   0  0  0  0  0  0  0  0  0  0  0  0
    2.6385   -0.7736    0.0000 O   0  0  0  0  0  0  0  0  0  0  0  0
  2  1  1  6
  2  3  1  0
  3  4  1  0
  4  5  2  0
  5  6  1  0
  6  7  2  0
  5  8  1  0
  8  9  2  0
  9 10  1  0
 10 11  1  0
 10 12  2  0
 12 13  1  0
 13 14  2  0
 13 15  1  0
 15  2  1  0
 12  4  1  0
M  END
>  <identifier>  (1021) 
CNP0261658.1

>  <canonical_smiles>  (1021) 
C[C@@H]1CC2=C(C=O)C=CC(O)=C2C(=O)O1

>  <standard_inchi>  (1021) 
InChI=1S/C11H10O4/c1-6-4-8-7(5-12)2-3-9(13)10(8)11(14)15-6/h2-3,5-6,13H,4H2,1H3/t6-/m1/s1

>  <standard_inchi_key>  (1021) 
PTNGWSBREHHWFF-ZCFIWIBFSA-N

>  <name>  (1021) 
(3R)-8-hydroxy-3-methyl-1-oxo-3,4-dihydroisochromene-5-carbaldehyde

>  <iupac_name>  (1021) 
(3~{R})-8-hydroxy-3-methyl-1-oxo-isochromane-5-carbaldehyde

>  <annotation_level>  (1021) 
5

>  <total_atom_count>  (1021) 
25

>  <heavy_atom_count>  (1021) 
15

>  <molecular_weight>  (1021) 
206.2

>  <exact_molecular_weight>  (1021) 
206.05791

>  <molecular_formula>  (1021) 
C11H10O4

>  <alogp>  (1021) 
1.31

>  <topological_polar_surface_area>  (1021) 
63.60

>  <rotatable_bond_count>  (1021) 
1

>  <hydrogen_bond_acceptors>  (1021) 
4

>  <hydrogen_bond_donors>  (1021) 
1

>  <hydrogen_bond_acceptors_lipinski>  (1021) 
4

>  <hydrogen_bond_donors_lipinski>  (1021) 
1

>  <lipinski_rule_of_five_violations>  (1021) 
0

>  <aromatic_rings_count>  (1021) 
1

>  <qed_drug_likeliness>  (1021) 
0.56

>  <formal_charge>  (1021) 
0

>  <fractioncsp3>  (1021) 
0.27

>  <number_of_minimal_rings>  (1021) 
2

>  <van_der_walls_volume>  (1021) 
177.86

>  <contains_sugar>  (1021) 
False

>  <contains_ring_sugars>  (1021) 
False

>  <contains_linear_sugars>  (1021) 
False

>  <murcko_framework>  (1021) 
O1Cc2ccccc2CC1

>  <np_likeness>  (1021) 
1.79

>  <chemical_class>  (1021) 
Benzopyrans

>  <chemical_sub_class>  (1021) 
2-benzopyrans

>  <chemical_super_class>  (1021) 
Organoheterocyclic compounds

>  <direct_parent_classification>  (1021) 
2-benzopyrans

>  <np_classifier_pathway>  (1021) 
Shikimates and Phenylpropanoids

>  <np_classifier_superclass>  (1021) 
Coumarins

>  <np_classifier_class>  (1021) 
Isocoumarins

>  <np_classifier_is_glycoside>  (1021) 
False

>  <organisms>  (1021) 
Achlys triphylla|Achyranthes obtusifolia|Achyrocline tomentosa|Albizia procera|Alectoria ochroleuca|Alhagi maurorum|Allium angulosum|Anemone thalictroides|Artemisia giraldii|Artemisia porrecta|Beauveria bassiana|Botryllus leachi|Brucea javanica|Bulbophyllum protractum|Bursera tonkinensis|Calystegia pubescens|Clusia sandiensis|Cypripedium calceolus|Desmodium pulchellu|Diospyros glaucifolia|Diploprion bifasciatum|Elymnias thryallis|Erythrophleum chlorostachys|Goniothalamus dolichocarpus|Guettarda platypoda|Helicia nilagirica|Hortonia floribunda|Lactarius deliciosus|Lactuca laciniata|Lampranthus sociorum|Lecanora sulphurella|Lobelia inflata|Marasmiellus ramealis|Melanargia galathea|Millettia pinnata|Moonia heterophylla|Nannocystis exedens|Nauclea rhynchophylla|Ormosia macrophylla|Osmundaria spiralis|Penicillium cyclopium|Pertusaria amara|Perymenium mendezii|Phaleria macrocarpa|Picea glauca|Picea jezoensis var. jezoensis|Pistacia chinensis|Psolus eximius|Pulicaria insignis|Sapium indicum|Seiridium cupressi|Tarchonanthus camphoratus|Taxus mairei|Tecoma undulata|Thea sasanqua|Theobroma grandiflorum|Uruparia lanosa|Vanderbylia fraxinea|Vernonia brevifolia

>  <collections>  (1021) 
CMAUP (cCollective molecular activities of useful plants)|Latin America dataset|NPASS|NPEdia|NuBBEDB|Super Natural II|WikiData Natural Products|ZINC NP

>  <dois>  (1021) 
10.1002/JCCS.200500117|10.1016/S0031-9422(00)89350-4|10.1021/NP800192F|10.1021/np800192f

>  <synonyms>  (1021) 
(3R)-5-Formyl-8-hydroxy-3-methyl-34-dihydroisocoumarin|5-Formylmellein|CHEMBL450534

>  <cas>  (1021) 
nan

$$$$

     RDKit          2D

 13 14  0  0  0  0  0  0  0  0999 V2000
   -2.7601    2.7519    0.0000 C   0  0  0  0  0  0  0  0  0  0  0  0
   -1.3165    2.3444    0.0000 O   0  0  0  0  0  0  0  0  0  0  0  0
   -0.9476    0.8905    0.0000 C   0  0  0  0  0  0  0  0  0  0  0  0
   -2.0223   -0.1560    0.0000 C   0  0  0  0  0  0  0  0  0  0  0  0
   -1.6534   -1.6099    0.0000 C   0  0  0  0  0  0  0  0  0  0  0  0
   -2.7281   -2.6563    0.0000 O   0  0  0  0  0  0  0  0  0  0  0  0
   -0.2098   -2.0174    0.0000 N   0  0  0  0  0  0  0  0  0  0  0  0
    0.8649   -0.9710    0.0000 C   0  0  0  0  0  0  0  0  0  0  0  0
    2.3085   -1.3785    0.0000 C   0  0  0  0  0  0  0  0  0  0  0  0
    3.3832   -0.3320    0.0000 C   0  0  0  0  0  0  0  0  0  0  0  0
    3.0143    1.1219    0.0000 C   0  0  0  0  0  0  0  0  0  0  0  0
    1.5707    1.5294    0.0000 C   0  0  0  0  0  0  0  0  0  0  0  0
    0.4960    0.4830    0.0000 C   0  0  0  0  0  0  0  0  0  0  0  0
  1  2  1  0
  2  3  1  0
  3  4  2  0
  4  5  1  0
  5  6  2  0
  5  7  1  0
  7  8  1  0
  8  9  2  0
  9 10  1  0
 10 11  2  0
 11 12  1  0
 12 13  2  0
 13  3  1  0
 13  8  1  0
M  END
>  <identifier>  (1022) 
CNP0145550.0

>  <canonical_smiles>  (1022) 
COC1=CC(=O)NC2=CC=CC=C12

>  <standard_inchi>  (1022) 
InChI=1S/C10H9NO2/c1-13-9-6-10(12)11-8-5-3-2-4-7(8)9/h2-6H,1H3,(H,11,12)

>  <standard_inchi_key>  (1022) 
LJYFMHAOCYPGMX-UHFFFAOYSA-N

>  <name>  (1022) 
4-Methoxy-1H-quinolin-2-one

>  <iupac_name>  (1022) 
4-methoxy-1~{H}-quinolin-2-one

>  <annotation_level>  (1022) 
5

>  <total_atom_count>  (1022) 
22

>  <heavy_atom_count>  (1022) 
13

>  <molecular_weight>  (1022) 
175.19

>  <exact_molecular_weight>  (1022) 
175.06333

>  <molecular_formula>  (1022) 
C10H9NO2

>  <alogp>  (1022) 
1.54

>  <topological_polar_surface_area>  (1022) 
42.09

>  <rotatable_bond_count>  (1022) 
1

>  <hydrogen_bond_acceptors>  (1022) 
2

>  <hydrogen_bond_donors>  (1022) 
1

>  <hydrogen_bond_acceptors_lipinski>  (1022) 
2

>  <hydrogen_bond_donors_lipinski>  (1022) 
1

>  <lipinski_rule_of_five_violations>  (1022) 
0

>  <aromatic_rings_count>  (1022) 
2

>  <qed_drug_likeliness>  (1022) 
0.71

>  <formal_charge>  (1022) 
0

>  <fractioncsp3>  (1022) 
0.10

>  <number_of_minimal_rings>  (1022) 
2

>  <van_der_walls_volume>  (1022) 
nan

>  <contains_sugar>  (1022) 
False

>  <contains_ring_sugars>  (1022) 
False

>  <contains_linear_sugars>  (1022) 
False

>  <murcko_framework>  (1022) 
c1ccc2NCC=Cc2c1

>  <np_likeness>  (1022) 
-0.07

>  <chemical_class>  (1022) 
Quinolines and derivatives

>  <chemical_sub_class>  (1022) 
Quinolones and derivatives

>  <chemical_super_class>  (1022) 
Organoheterocyclic compounds

>  <direct_parent_classification>  (1022) 
Hydroquinolones

>  <np_classifier_pathway>  (1022) 
Alkaloids

>  <np_classifier_superclass>  (1022) 
Tryptophan alkaloids

>  <np_classifier_class>  (1022) 
Quinoline alkaloids

>  <np_classifier_is_glycoside>  (1022) 
False

>  <organisms>  (1022) 
Adiscanthus fusciflorus|Haplophyllum bucharicum|Haplophyllum bungei|Hortia longifolia|Limonia acidissima|Myrtopsis sellingii|Peltostigma guatemalense|Zanthoxylum nitidum|Zanthoxylum simulans

>  <collections>  (1022) 
Australian natural products|Latin America dataset|NuBBEDB|UNPD (Universal Natural Products Database)|WikiData Natural Products

>  <dois>  (1022) 
10.1007/BF00596686|10.1007/BF02238348|10.1016/0031-9422(80)83207-9|10.1016/0031-9422(95)00856-X|10.1016/S0031-9422(00)86717-5|10.1016/j.bse.2020.104080|10.1016/j.bse.2021.104351|10.1021/JO00829A053|10.1021/NP50047A022|10.1080/14786410802228439

>  <synonyms>  (1022) 
2(1H)-Quinolinone, 4-methoxy-|2-HYDROXY-4-METHOXYQUINOLINE|2-hydroxy4-methoxyquinoline|27667-34-1|4-METHOXYQUINOLIN-2-OL|4-Methoxy-2(1H)-quinolinone|4-methoxy 2-quinolone|4-methoxyquinolin-2(1H)-one|84906-78-5|AB09148|AE-562\/12222666|AKOS006279256|AMY1644|AS-47436|CBA66734|CS-0187030|DTXSID70344887|EN300-6491756|F13722|MFCD01463823|Oprea1_123612|Oprea1_173512|SCHEMBL2799080|Z3227040961

>  <cas>  (1022) 
27667-34-1|84906-78-5

$$$$

     RDKit          2D

 26 27  0  0  0  0  0  0  0  0999 V2000
   -7.1250   -0.9012    0.0000 C   0  0  0  0  0  0  0  0  0  0  0  0
   -5.7847   -0.2277    0.0000 O   0  0  0  0  0  0  0  0  0  0  0  0
   -4.5312   -1.0517    0.0000 C   0  0  0  0  0  0  0  0  0  0  0  0
   -4.6181   -2.5491    0.0000 O   0  0  0  0  0  0  0  0  0  0  0  0
   -3.1910   -0.3781    0.0000 C   0  0  0  0  0  0  0  0  0  0  0  0
   -1.9375   -1.2021    0.0000 C   0  0  0  0  0  0  0  0  0  0  0  0
   -0.5972   -0.5286    0.0000 C   0  0  0  0  0  0  0  0  0  0  0  0
    0.6562   -1.3525    0.0000 C   0  0  0  0  0  0  0  0  0  0  0  0
    0.5693   -2.8500    0.0000 C   0  0  0  0  0  0  0  0  0  0  0  0
    1.8228   -3.6740    0.0000 C   0  0  0  0  0  0  0  0  0  0  0  0
    1.7359   -5.1715    0.0000 C   0  0  0  0  0  0  0  0  0  0  0  0
    3.1631   -3.0005    0.0000 C   0  0  0  0  0  0  0  0  0  0  0  0
   -0.5104    0.9689    0.0000 C   0  0  0  0  0  0  0  0  0  0  0  0
    0.8299    1.6424    0.0000 O   0  0  0  0  0  0  0  0  0  0  0  0
    0.9168    3.1399    0.0000 C   0  0  0  0  0  0  0  0  0  0  0  0
    1.5105    4.5174    0.0000 C   0  0  0  0  0  0  0  0  0  0  0  0
    2.3764    2.7943    0.0000 C   0  0  0  0  0  0  0  0  0  0  0  0
    2.8070    1.3575    0.0000 C   0  0  0  0  0  0  0  0  0  0  0  0
    4.2666    1.0119    0.0000 C   0  0  0  0  0  0  0  0  0  0  0  0
    4.6972   -0.4250    0.0000 C   0  0  0  0  0  0  0  0  0  0  0  0
    6.1568   -0.7706    0.0000 C   0  0  0  0  0  0  0  0  0  0  0  0
    3.6681   -1.5163    0.0000 C   0  0  0  0  0  0  0  0  0  0  0  0
   -0.3367    3.9639    0.0000 C   0  0  0  0  0  0  0  0  0  0  0  0
   -1.6770    3.2904    0.0000 C   0  0  0  0  0  0  0  0  0  0  0  0
   -1.7638    1.7929    0.0000 C   0  0  0  0  0  0  0  0  0  0  0  0
   -3.1041    1.1193    0.0000 C   0  0  0  0  0  0  0  0  0  0  0  0
  1  2  1  0
  2  3  1  0
  3  4  2  0
  3  5  1  0
  5  6  2  0
  6  7  1  0
  7  8  1  0
  8  9  1  0
  9 10  1  0
 10 11  1  0
 10 12  1  0
  7 13  2  0
 13 14  1  0
 14 15  1  0
 15 16  1  1
 15 17  1  0
 17 18  1  0
 18 19  1  0
 19 20  1  0
 20 21  1  0
 20 22  1  0
 15 23  1  0
 23 24  1  0
 24 25  1  0
 25 26  2  0
 26  5  1  0
 25 13  1  0
M  END
>  <identifier>  (1023) 
CNP0080439.1

>  <canonical_smiles>  (1023) 
COC(=O)C1=CC(CCC(C)C)=C2O[C@@](C)(CCCC(C)C)CCC2=C1

>  <standard_inchi>  (1023) 
InChI=1S/C23H36O3/c1-16(2)8-7-12-23(5)13-11-19-15-20(22(24)25-6)14-18(21(19)26-23)10-9-17(3)4/h14-17H,7-13H2,1-6H3/t23-/m0/s1

>  <standard_inchi_key>  (1023) 
JLWGAJAFCQCLFY-QHCPKHFHSA-N

>  <name>  (1023) 
nan

>  <iupac_name>  (1023) 
methyl (2~{S})-2-isohexyl-8-isopentyl-2-methyl-chromane-6-carboxylate

>  <annotation_level>  (1023) 
5

>  <total_atom_count>  (1023) 
62

>  <heavy_atom_count>  (1023) 
26

>  <molecular_weight>  (1023) 
360.54

>  <exact_molecular_weight>  (1023) 
360.26645

>  <molecular_formula>  (1023) 
C23H36O3

>  <alogp>  (1023) 
5.97

>  <topological_polar_surface_area>  (1023) 
35.53

>  <rotatable_bond_count>  (1023) 
8

>  <hydrogen_bond_acceptors>  (1023) 
3

>  <hydrogen_bond_donors>  (1023) 
0

>  <hydrogen_bond_acceptors_lipinski>  (1023) 
3

>  <hydrogen_bond_donors_lipinski>  (1023) 
0

>  <lipinski_rule_of_five_violations>  (1023) 
1

>  <aromatic_rings_count>  (1023) 
1

>  <qed_drug_likeliness>  (1023) 
0.54

>  <formal_charge>  (1023) 
0

>  <fractioncsp3>  (1023) 
0.70

>  <number_of_minimal_rings>  (1023) 
2

>  <van_der_walls_volume>  (1023) 
374.84

>  <contains_sugar>  (1023) 
False

>  <contains_ring_sugars>  (1023) 
False

>  <contains_linear_sugars>  (1023) 
False

>  <murcko_framework>  (1023) 
O1c2ccccc2CCC1

>  <np_likeness>  (1023) 
1.29

>  <chemical_class>  (1023) 
Benzopyrans

>  <chemical_sub_class>  (1023) 
1-benzopyrans

>  <chemical_super_class>  (1023) 
Organoheterocyclic compounds

>  <direct_parent_classification>  (1023) 
1-benzopyrans

>  <np_classifier_pathway>  (1023) 
Terpenoids

>  <np_classifier_superclass>  (1023) 
Meroterpenoids

>  <np_classifier_class>  (1023) 
Prenyl quinone meroterpenoids

>  <np_classifier_is_glycoside>  (1023) 
False

>  <organisms>  (1023) 
Piper aduncum

>  <collections>  (1023) 
ChemSpider NPs|Latin America dataset|NuBBEDB|Super Natural II|WikiData Natural Products|ZINC NP

>  <dois>  (1023) 
10.1248/BPB.31.538|10.1248/bpb.31.538

>  <synonyms>  (1023) 
(2S)-Methyl-8-isopentyl-2-methyl-2-(4'-methylpentyl)chroman-6-carboxylate

>  <cas>  (1023) 
nan

$$$$

     RDKit          2D

 21 23  0  0  0  0  0  0  0  0999 V2000
    3.7325    2.4472    0.0000 O   0  0  0  0  0  0  0  0  0  0  0  0
    3.6820    0.9481    0.0000 C   0  0  0  0  0  0  0  0  0  0  0  0
    2.3585    0.2422    0.0000 C   0  0  0  0  0  0  0  0  0  0  0  0
    1.0854    1.0355    0.0000 C   0  0  0  0  0  0  0  0  0  0  0  0
   -0.2381    0.3296    0.0000 C   0  0  0  0  0  0  0  0  0  0  0  0
   -1.5112    1.1229    0.0000 C   0  0  0  0  0  0  0  0  0  0  0  0
   -2.8347    0.4171    0.0000 C   0  0  0  0  0  0  0  0  0  0  0  0
   -2.8852   -1.0821    0.0000 C   0  0  0  0  0  0  0  0  0  0  0  0
   -4.2088   -1.7879    0.0000 C   0  0  0  0  0  0  0  0  0  0  0  0
   -5.4818   -0.9947    0.0000 C   0  0  0  0  0  0  0  0  0  0  0  0
   -6.9232   -1.4099    0.0000 O   0  0  0  0  0  0  0  0  0  0  0  0
   -7.7635   -0.1674    0.0000 C   0  0  0  0  0  0  0  0  0  0  0  0
   -6.8415    1.0158    0.0000 O   0  0  0  0  0  0  0  0  0  0  0  0
   -5.4313    0.5045    0.0000 C   0  0  0  0  0  0  0  0  0  0  0  0
   -4.1078    1.2104    0.0000 C   0  0  0  0  0  0  0  0  0  0  0  0
    4.9551    0.1548    0.0000 N   0  0  0  0  0  0  0  0  0  0  0  0
    4.9046   -1.3444    0.0000 C   0  0  0  0  0  0  0  0  0  0  0  0
    6.1777   -2.1377    0.0000 C   0  0  0  0  0  0  0  0  0  0  0  0
    7.5012   -1.4318    0.0000 C   0  0  0  0  0  0  0  0  0  0  0  0
    7.5517    0.0673    0.0000 C   0  0  0  0  0  0  0  0  0  0  0  0
    6.2786    0.8606    0.0000 C   0  0  0  0  0  0  0  0  0  0  0  0
  1  2  2  0
  2  3  1  0
  3  4  2  0
  4  5  1  0
  5  6  2  0
  6  7  1  0
  7  8  2  0
  8  9  1  0
  9 10  2  0
 10 11  1  0
 11 12  1  0
 12 13  1  0
 13 14  1  0
 14 15  2  0
  2 16  1  0
 16 17  1  0
 17 18  1  0
 18 19  1  0
 19 20  1  0
 20 21  1  0
 15  7  1  0
 21 16  1  0
 14 10  1  0
M  END
>  <identifier>  (1024) 
CNP0193594.1

>  <canonical_smiles>  (1024) 
O=C(/C=C/C=C/C1=CC=C2OCOC2=C1)N1CCCCC1

>  <standard_inchi>  (1024) 
InChI=1S/C17H19NO3/c19-17(18-10-4-1-5-11-18)7-3-2-6-14-8-9-15-16(12-14)21-13-20-15/h2-3,6-9,12H,1,4-5,10-11,13H2/b6-2+,7-3+

>  <standard_inchi_key>  (1024) 
MXXWOMGUGJBKIW-YPCIICBESA-N

>  <name>  (1024) 
nan

>  <iupac_name>  (1024) 
nan

>  <annotation_level>  (1024) 
0

>  <total_atom_count>  (1024) 
40

>  <heavy_atom_count>  (1024) 
21

>  <molecular_weight>  (1024) 
285.34

>  <exact_molecular_weight>  (1024) 
285.13649

>  <molecular_formula>  (1024) 
C17H19NO3

>  <alogp>  (1024) 
3.00

>  <topological_polar_surface_area>  (1024) 
38.77

>  <rotatable_bond_count>  (1024) 
3

>  <hydrogen_bond_acceptors>  (1024) 
3

>  <hydrogen_bond_donors>  (1024) 
0

>  <hydrogen_bond_acceptors_lipinski>  (1024) 
3

>  <hydrogen_bond_donors_lipinski>  (1024) 
0

>  <lipinski_rule_of_five_violations>  (1024) 
0

>  <aromatic_rings_count>  (1024) 
1

>  <qed_drug_likeliness>  (1024) 
0.63

>  <formal_charge>  (1024) 
0

>  <fractioncsp3>  (1024) 
0.35

>  <number_of_minimal_rings>  (1024) 
3

>  <van_der_walls_volume>  (1024) 
266.16

>  <contains_sugar>  (1024) 
False

>  <contains_ring_sugars>  (1024) 
False

>  <contains_linear_sugars>  (1024) 
False

>  <murcko_framework>  (1024) 
O1c2ccc(C=CC=CCN3CCCCC3)cc2OC1

>  <np_likeness>  (1024) 
0.13

>  <chemical_class>  (1024) 
nan

>  <chemical_sub_class>  (1024) 
nan

>  <chemical_super_class>  (1024) 
nan

>  <direct_parent_classification>  (1024) 
nan

>  <np_classifier_pathway>  (1024) 
Alkaloids

>  <np_classifier_superclass>  (1024) 
Lysine alkaloids

>  <np_classifier_class>  (1024) 
Piperidine alkaloids

>  <np_classifier_is_glycoside>  (1024) 
False

>  <organisms>  (1024) 
Abies webbiana|Agaricus xanthodermus|Aglaia perviridis|Artemisia coerulescens|Brickellia longifolia|Bupleurum rigidum|Capsicum annuum|Carpesium longifolium|Centaurea aegyptiaca|Chenopodium ambrosioides|Cochlearia officinalis|Coelogyne nitida|Crocus corsicus|Dichotomanthes tristaniicarpa|Didymosphaeria enalia|Dracontium loretense|Euphorbia wangii|Frullania brasiliensis|Homalium laurifolium|Homo sapiens|Hydrastis canadensis|Indian beech tree|Leifsonia aquatica|Macropiper|Magnolia officinalis|Matsumurella chinensis|Monascus rubropunctatus|Mycoplasma mycoides|Palisota barteri|Penicillium tardum|Periconia|Periconia sp.|Photorhabdus luminescens|Piper Betle|Piper Longum|Piper Nigrum|Piper Retrofractum|Piper acutisleginum|Piper attenuatum|Piper betle|Piper boehmeriifolium|Piper capense|Piper chaba|Piper cubeba|Piper guineense|Piper guineense Schum.et Thom.|Piper hederaceum|Piper khasiana|Piper khasianum|Piper longum|Piper nigrum|Piper novae-hollandiae|Piper officinarum|Piper pedicellatum|Piper peepuloides|Piper retrofractum|Piper retrofractum Vahl.|Piper sp.|Piper suipigua|Piper swartzianum|Piper sylvaticum|Piper thomsoni|Piper trichostachyon|Piper tuberculatum|Piperaceae|Podocarpus minor|Pothomorphe peltata|Pseudomonas stutzeri|Rubia cordifolia|Schefflera venulosa|Silene banksia|Stolonica socialis|Tephrosia crassifolia|Ulocladium|Valeriana officinalis|Verbesina virginica|West African Pepper|pomegranate

>  <collections>  (1024) 
AnalytiCon Discovery NPs|Australian natural products|CMAUP (cCollective molecular activities of useful plants)|ChEBI NPs|ChemSpider NPs|DrugBankNP|EMNPD|ETM (Ethiopian Traditional Medicine) DB|FooDB|GNPS (Global Natural Products Social Molecular Networking)|HIM (Herbal Ingredients in-vivo Metabolism database)|HIT (Herbal Ingredients Targets)|Indofine Chemical Company|InflamNat|KNApSaCK|Latin America dataset|NPASS|NPAtlas|NPEdia|NuBBEDB|PhytoLab phyproof® Reference Substances|PubChem NPs|Super Natural II|TCMDB-Taiwan (Traditional Chinese Medicine database)|TIPdb (database of Taiwan indigenous plants)|VietHerb|WikiData Natural Products|p-ANAPL

>  <dois>  (1024) 
10.1002/BIO.1209|10.1002/CHIN.199246266|10.1002/CHIN.200340213|10.1002/CHIN.200352219|10.1002/CHIN.200447158|10.1002/CHIN.200552178|10.1002/JPS.2600630733|10.1007/BF02856625|10.1007/S00044-008-9161-9|10.1007/S00044-012-0397-Z|10.1007/S11010-005-3702-Z|10.1016/0031-9422(74)80272-4|10.1016/0031-9422(88)80168-7|10.1016/0031-9422(88)80249-8|10.1016/0031-9422(90)85102-L|10.1016/0031-9422(92)83736-I|10.1016/J.BMCL.2012.09.056|10.1016/J.BMCL.2013.01.118|10.1016/J.CELLIMM.2013.09.001|10.1016/J.CHROMA.2004.03.056|10.1016/J.FITOTE.2012.12.001|10.1016/J.PHYMED.2007.06.011|10.1016/S0021-9673(01)83545-7|10.1016/S0021-9673(01)89200-1|10.1016/S0021-9673(01)95038-1|10.1016/S0031-9422(00)00226-0|10.1016/S0031-9422(00)86838-7|10.1016/S0031-9422(00)88579-9|10.1016/S0031-9422(00)94460-1|10.1016/S0031-9422(01)00364-8|10.1016/S0031-9422(97)00202-1|10.1016/S0031-9422(98)00208-8|10.1016/S0968-0896(02)00130-X|10.1016/j.bmcl.2012.09.056|10.1016/j.bmcl.2013.01.118|10.1016/j.cellimm.2013.09.001|10.1016/j.ejmech.2019.04.002|10.1021/ED070P598|10.1021/IE010359B|10.1021/IE0107845|10.1021/JF00103A029|10.1021/JF60178A026|10.1021/JO040272A|10.1021/NP030475E|10.1021/NP030475E.S001|10.1021/acs.jnatprod.7b00081|10.1021/acs.jnatprod.7b00654|10.1021/np300911b|10.1038/JA.2011.27|10.1038/ja.2011.27|10.1039/c7md00388a|10.1055/S-0028-1099446|10.1055/S-0035-1546106|10.1055/S-1999-14031|10.1055/S-2002-34410|10.1055/S-2006-957982|10.1055/S-2007-969445|10.1055/s-1999-14031|10.1071/CH9691531|10.1071/ch9691531|10.1076/PHBI.39.3.236.5926|10.1080/10286020903565226|10.1080/14786410310001608028|10.1080/14786419.2017.1299722|10.1248/BPB.31.1063|10.1248/CPB.31.3562|10.1248/CPB.36.2452|10.1271/BBB.57.1329|10.1271/BBB1961.45.1257|10.17660/ACTAHORTIC.1996.426.21|10.3109/13880209.2014.991835|10.3390/MOLECULES14093833|10.3390/MOLECULES15042398|10.3987/COM-02-9518

>  <synonyms>  (1024) 
1-Piperoylpiperidine

>  <cas>  (1024) 
94-62-2

$$$$

     RDKit          2D

 16 18  0  0  0  0  0  0  0  0999 V2000
   -2.8988   -2.5798    0.0000 C   0  0  0  0  0  0  0  0  0  0  0  0
   -1.5471   -1.9295    0.0000 C   0  0  0  0  0  0  0  0  0  0  0  0
   -0.3747   -2.8652    0.0000 C   0  0  0  0  0  0  0  0  0  0  0  0
    1.0878   -2.5320    0.0000 C   0  0  0  0  0  0  0  0  0  0  0  0
    1.7392   -1.1808    0.0000 C   0  0  0  0  0  0  0  0  0  0  0  0
    1.0889    0.1709    0.0000 C   0  0  0  0  0  0  0  0  0  0  0  0
   -0.3734    0.5053    0.0000 C   0  0  0  0  0  0  0  0  0  0  0  0
   -1.5465   -0.4295    0.0000 C   0  0  0  0  0  0  0  0  0  0  0  0
   -2.7980    0.3974    0.0000 C   0  0  0  0  0  0  0  0  0  0  0  0
   -2.3984    1.8431    0.0000 C   0  0  0  0  0  0  0  0  0  0  0  0
   -0.8999    1.9098    0.0000 C   0  0  0  0  0  0  0  0  0  0  0  0
   -1.1228    3.3932    0.0000 C   0  0  0  0  0  0  0  0  0  0  0  0
    0.5520    2.2866    0.0000 O   0  0  0  0  0  0  0  0  0  0  0  0
    2.5847    0.0582    0.0000 C   0  0  0  0  0  0  0  0  0  0  0  0
    2.9554    1.5117    0.0000 C   0  0  0  0  0  0  0  0  0  0  0  0
    3.9517   -0.5593    0.0000 C   0  0  0  0  0  0  0  0  0  0  0  0
  1  2  2  0
  2  3  1  0
  3  4  1  0
  5  4  1  6
  5  6  1  0
  6  7  1  0
  7  8  1  0
  8  9  1  6
  9 10  1  0
 10 11  1  0
 11 12  1  1
 11 13  1  0
  6 14  1  6
 14 15  1  0
 14 16  1  0
  8  2  1  0
 14  5  1  0
  7 11  1  1
M  END
>  <identifier>  (1025) 
CNP0141421.5

>  <canonical_smiles>  (1025) 
C=C1CC[C@@H]2[C@H]([C@H]3[C@H]1CC[C@]3(C)O)C2(C)C

>  <standard_inchi>  (1025) 
InChI=1S/C15H24O/c1-9-5-6-11-13(14(11,2)3)12-10(9)7-8-15(12,4)16/h10-13,16H,1,5-8H2,2-4H3/t10-,11+,12+,13+,15-/m0/s1

>  <standard_inchi_key>  (1025) 
FRMCCTDTYSRUBE-BGPZULBFSA-N

>  <name>  (1025) 
Spathulenol

>  <iupac_name>  (1025) 
(1~{a}~{R},4~{a}~{R},7~{S},7~{a}~{R},7~{b}~{R})-1,1,7-trimethyl-4-methylene-1~{a},2,3,4~{a},5,6,7~{a},7~{b}-octahydrocyclopropa[h]azulen-7-ol

>  <annotation_level>  (1025) 
5

>  <total_atom_count>  (1025) 
40

>  <heavy_atom_count>  (1025) 
16

>  <molecular_weight>  (1025) 
220.36

>  <exact_molecular_weight>  (1025) 
220.18272

>  <molecular_formula>  (1025) 
C15H24O

>  <alogp>  (1025) 
3.39

>  <topological_polar_surface_area>  (1025) 
20.23

>  <rotatable_bond_count>  (1025) 
0

>  <hydrogen_bond_acceptors>  (1025) 
1

>  <hydrogen_bond_donors>  (1025) 
1

>  <hydrogen_bond_acceptors_lipinski>  (1025) 
1

>  <hydrogen_bond_donors_lipinski>  (1025) 
1

>  <lipinski_rule_of_five_violations>  (1025) 
0

>  <aromatic_rings_count>  (1025) 
0

>  <qed_drug_likeliness>  (1025) 
0.62

>  <formal_charge>  (1025) 
0

>  <fractioncsp3>  (1025) 
0.87

>  <number_of_minimal_rings>  (1025) 
3

>  <van_der_walls_volume>  (1025) 
231.25

>  <contains_sugar>  (1025) 
False

>  <contains_ring_sugars>  (1025) 
False

>  <contains_linear_sugars>  (1025) 
False

>  <murcko_framework>  (1025) 
C1CC2CCCC2C3CC3C1

>  <np_likeness>  (1025) 
3.31

>  <chemical_class>  (1025) 
Prenol lipids

>  <chemical_sub_class>  (1025) 
Sesquiterpenoids

>  <chemical_super_class>  (1025) 
Lipids and lipid-like molecules

>  <direct_parent_classification>  (1025) 
Guaianes

>  <np_classifier_pathway>  (1025) 
Terpenoids

>  <np_classifier_superclass>  (1025) 
Sesquiterpenoids

>  <np_classifier_class>  (1025) 
Aromadendrane sesquiterpenoids

>  <np_classifier_is_glycoside>  (1025) 
False

>  <organisms>  (1025) 
Aberia caffra|Abrus pulchellus|Achillea abrotanoides|Achillea aspleniifolia|Achillea millefolium|Achillea pannonica|Achillea virescens|Acorus calamus|Actinobole uliginosum|Actinodaphne pruinosa|Actinodium cunninghamii|Aeschynanthus parvifolius|Agastache foeniculum|Agastache rugosa|Agathis dammara|Agathosma betulina|Agelas longissima|Ageratina ixiocladon|Ageratina ligustrina|Ageratina lingustrina|Ageratum conyzoides|Aglaia forbesii|Aglaia foveolata|Aglaia lawii|Agrimonia pilosa|Aiouea costaricensis|Aldama aspilioides|Aldama atacamensis|Aldama linearis|Alisma orientale|Aloysia chamaedryfolia|Aloysia citriodora|Aloysia citrodora|Aloysia gratissima|Aloysia triphylla|Alpinia pulcherrima|Amaioua guianensis|Ambrosia artemisioides|Angelica acutiloba|Angelica archangelica|Angelica gigas|Angelica sinensis|Angostura trifoliata|Aniba puchury-minor|Annona squamosa|Annonaceae|Antidesma laciniatum|Aphyllocladus denticulatus|Arctotis aspera|Aristeguietia buddleaefolia|Aristeguietia salvia|Aristolochia chamissonis|Aristolochia elegans|Aristolochia littoralis|Aristolochia mollissima|Arnica sachalinensis|Artabotrys Uncinatus|Artabotrys hexapetalus|Artemisia Annua|Artemisia Dracunculus|Artemisia Vulgaris|Artemisia annua L.|Artemisia apiacea|Artemisia campestris|Artemisia capillaris|Artemisia chamaemelifolia|Artemisia glauca|Artemisia gmelinii|Artemisia herba-alba|Artemisia iwayomogi|Artemisia monosperma|Artemisia phaeolepis|Artemisia reptans|Artemisia salsoloides|Artemisia scoparia|Artemisia verlotiorum|Artemisia verlotorum|Artemisia xanthochloa|Artocarpus altilis|Aspilia eenii|Aster tataricus|Asterolasia drummondii|Asterolasia squamuligera|Atalantia buxifolia|Athamanta macedonica|Atractylodes lancea|Atractylodes macrocephala|Austrobaileya scandens|Austrobrickellia patens|Austromyrtus dulcis|Austromyrtus tenuifolia|Baccharis concava|Baccharis darwinii|Baccharis dracunculifolia|Baccharis gaudichaudiana|Baccharis grandicapitulata|Baccharis heterophylla|Baccharis intermedia|Baccharis linearis|Baccharis microcephala|Baccharis phylicoides|Baccharis polifolia|Baccharis santelicis|Baccharis thesioides|Baccharis uncinella|Balantiopsis rosea|Bazzania praerupta|Bazzania tridens|Beilschmiedia pendula|Bejaranoa semistriata|Berchemia floribunda|Betula maximowicziana|Betula papyrifera|Biancaea decapetala|Bidens cynapiifolia|Bignonia unguiscati|Bitter bush|Blepharispermum zanguebaricum|Blumea malcolmii|Boenninghausenia albiflora|Boronia alata|Boronia gracilipes|Boronia inornata|Bosistoa brassii|Bouchardatia neurococca|Brickellia californica|Brickellia laciniata|Bubon macedonicum|Bufo bankorensis|Bugula neritina|Bupleurum|Bupleurum chinense|Bupleurum falcatum|Bupleurum scorzonerifolium|Caesalpinia Decapetala|Caesalpinia Pulcherrima|Caesalpinia pulcherrima|Calamintha incana|Calanthe arisanensis|Calea jamaicensis|Calea prunifolia|Callicarpa japonica|Callistemon linearis|Cantinoa americana|Cantinoa mutabilis|Carapichea ipecacuanha|Cardopatium corymbosum|Carex aridula|Cassinia aculeata|Cassinia laevis|Cassinia subtropica|Casuarina equisetifolia|Chaetanthera chilensis|Chamomilla recutita|Channa argus|Choisya arizonica|Chromodoris cavae|Chromolaena laevigata|Chromolaena pulchella|Chrysanthemum indicum|Chrysanthemum x morifolium|Chrysanthemum zawadskii|Chrysocephalum ambiguum|Chrysosplenium oppositifolium|Chuquiraga spinosa|Cinamomum cassia|Cineraria britteniae|Cineraria erodioides|Cineraria grandibracteata|Cinnamomum aromaticum|Cinnamomum parthenoxylon|Cinnamomum philippinense|Cinnamomum sieboldii|Citrus maxima|Citrus medica|Citrus medica var. sarcodactylis|Cladogynos orientalis|Cladosiphon okamuranus|Cleistopholis patens|Clinopodium brevifolium|Clinopodium carolinianum|Clinopodium chinense|Clinopodium congestum|Clinopodium gilliesii|Clinopodium grandiflorum|Clinopodium insulare|Clinopodium odorum|Cnidium officinale|Conyza sumatrensis|Coptis chinensis|Coptis deltoidea|Coptis japonica|Coptis teeta|Coreocarpus arizonicus|Coronilla hyrcana|Corymbia citriodora|Corymbia maculata|Creolophus cirrhatus|Croton flavens|Croton jimenezii|Croton nepetifolius|Croton ovalifolius|Cryptocarya agathophylla|Cryptocarya cunninghamii|Cryptocarya lividula|Culcitium albifolium|Culcitium canescens|Curcuma kwangsiensis|Curcuma longa|Curcuma phaeocaulis|Curcuma wenyujin|Curcuma zedoaria|Cyathus intermedius|Cyclotrichium niveum|Cylindrocolea recurvifolia|Cyperus Rotundus|Cyperus capitatus|Cyperus rotundus|Dacryodes normandii|Daucus carota|Delphinium tricorne|Dendrophorbium dolichodoryium|Dimerostemma brasilianum|Dimerostemma lippioides|Dipterocarpus kerrii|Disynaphia multicrenulata|Dolichos kilimandscharicus|Drummondita calida|Drummondita hassellii|Drymosiphon pamphylicus|Duguetia confinis|Duguetia flagellaris|Duguetia glabriuscula|Echinocardium cordatum|Echinocereus merkeri|Eleutherococcus senticosus|Elsholtzia ciliata|Ephedra altissima|Epimedium sagittatum|Eremophila cuneifolia|Eria siamensis|Erica cinerea|Erigeron sumatrensis|Eriogonum nudum|Eriostemon brucei|Erythrina sandwicensis|Esenbeckia conspecta|Etlingera cevuga|Eucalyptus angulosa|Eucalyptus apodophylla|Eucalyptus behriana|Eucalyptus botryoides|Eucalyptus brassiana|Eucalyptus bridgesiana|Eucalyptus camaldulensis|Eucalyptus ceratocorys|Eucalyptus citriodora|Eucalyptus cloeziana|Eucalyptus cuprea|Eucalyptus dealbata|Eucalyptus dolichorhyncha|Eucalyptus fasciculosa|Eucalyptus forrestiana|Eucalyptus grandis|Eucalyptus incrassata|Eucalyptus intertexta|Eucalyptus jensenii|Eucalyptus lansdowneana|Eucalyptus leucoxylon|Eucalyptus melanophloia|Eucalyptus moluccana|Eucalyptus nova-anglica|Eucalyptus occidentalis|Eucalyptus ochrophloia|Eucalyptus odorata|Eucalyptus paniculata|Eucalyptus populnea|Eucalyptus porosa|Eucalyptus siderophloia|Eucalyptus sparsa|Eucalyptus spathulata|Eucalyptus stoatei|Eucalyptus tereticornis|Eucalyptus tetraptera|Eucalyptus viridis|Eugenia uniflora|Eupatorium capillifolium|Euphorbia balsamifera|Euryops algoensis|Glehnia littoralis|Glycosmis lucida|Gnidia subcordata|Grindelia scorzonerifolia|Guarea kunthiana|Guarea macrophylla|Guatteria blepharophylla|Guatteria hirsuta|Guatteria juruensis|Gutierrezia gilliesii|Gutierrezia solbrigii|Gutierrezia spathulata|Gynoxys acostae|Gynoxys nitida|Haemanthus albiflos|Halocarpus bidwillii|Hedychium coronarium|Hedychium spicatum|Hedyosmum arborescens|Hedyosmum bonplandianum|Hedyosmum costaricense|Hedyosmum mexicanum|Helichrysum ambiguum|Helichrysum dasyanthum|Helichrysum petiolare|Helichrysum revolutum|Helichrysum stoechas|Helleborus viridis|Hepialus hecta|Heteranthemis viscidehirta|Heteroscyphus coalitus|Hexalobus crispiflorus|Hilliardiella aristata|Hoffmannia strigillosa|Hordeum bulbosum|Houttuynia cordata|Humulus lupulus|Hyacinthoides hispanica|Hygrophila polysperma|Hymenothrix wislizeni|Hymenothrix wislizenii|Hypericum coris|Hypericum dyeri|Hypericum hyssopifolium|Hypericum lysimachioides|Hypericum perforatum|Hyptis mutabilis|Hyptis spicigera|Hyptis suaveolens|Hyssopus officinalis|Ilex microdonta|Illicium verum|Incarvillea emodi|Indocypraea montana|Iris sibirica|Isolona pilosa|Isotrema mollissimum|Jamesoniella autumnalis|Jatropha gossypiifolia|Keyserlingia koreensis|Kunzea salina|Lactarius blennius|Lactarius torminosus|Laggera pterodonta|Lanice conchilega|Lantana xenica|Laurencia dendroidea|Laurus|Lecanora sulphurata|Leiocarpa semicalva|Leonotis leonurus|Leonurus heterophyllus|Lepechinia chamaedryoides|Lepechinia chilensis|Lepechinia floribunda|Lepidozia borneensis|Lepidozia fauriana|Lepidozia vitrea|Lessingianthus mollissimus|Ligularia veitchiana|Ligusticum jeholense|Ligusticum sinense|Ligusticum tenuissimum|Linochilus floribundus|Lippia Myriocephala|Lippia dulcis|Lippia integrifolia|Litogyne gariepina|Litsea nitida|Lobelia langeana|Locusta migratoria|Lonchocarpus yucatanensis|Lophocolea heterophylla|Lophostemon suaveolens|Magnolia biondii|Magnolia denudata|Magnolia henryi|Magnolia kobus|Magnolia salicifolia|Magnolia sprengeri|Makinoa crispata|Marrubium parviflorum|Matricaria chamomilla|Maytenus emarginata|Mcneillia graminifolia|Melaleuca alternifolia|Melaleuca styphelioides|Melampodium divaricatum|Melanthera prostrata|Melia dubia|Mentha|Mentha arvensis|Mentha cablin|Mentha canadensis|Mentha piperita|Mentha pulegium|Mesosphaerum suaveolens|Micromelum falcatum|Micromeria biflora|Micromeria myrtifolia|Mikania grazielae|Mikania hookeriana|Mikania houstoniana|Minthostachys mollis|Mocis latipes|Mollugo pentaphylla|Mosla chinensis|Mucuna sloanei|Mulguraea tridens|Murraya exotica|Murraya microphylla|Murraya paniculata|Mycale laxissima|Mycale tenuis|Mycosphaerella nawae|Myelochroa rhytidodes|Myrcia tricona|Nardostachys jatamansi|Nassauvia aculeata|Naucleopsis mello-barretoi|Nectandra salicina|Neolitsea hiiranensis|Nepeta nuda|Nepeta racemosa|Nepeta trachonitica|Nervilia fordii|Notholaena peninsularis|Ochrocarpos odoratus|Ocimum gratissimum|Ocotea catharinensis|Ocotea gomezii|Ocotea morae|Ocotea pulchella|Odocoileus hemionus|Olearia lepidophylla|Olearia phlogopappa|Olearia teretifolia|Oligonychus bessardi|Ophryosporus floribundus|Origanum acutidens|Origanum adanense|Origanum hypericifolium|Origanum onites|Origanum vulgare|Orthosiphon aristatus|Orthosiphon grandiflorus|Oxandra asbeckii|Ozothamnus adnatus|Ozothamnus bilobus|Ozothamnus diosmifolius|Ozothamnus retusus|Paederia foetida|Pallavicinia subciliata|Panax ginseng|Panax notoginseng|Pelargonium citronellum|Pelargonium endlicherianum|Pelargonium ternifolium|Pellia epiphylla|Peltophorum dubium|Penicilliopsis clavariiformis|Perilla frutescens|Phakellia dendyi|Phebalium filifolium|Phebalium tuberculosum|Philodendron radiatum|Phoenix hanceana|Phoma asparagi|Phyla dulcis|Pilocarpus trachylophus|Pimenta racemosa|Pinus radiata|Pinus sitchensis|Piper aduncum|Piper arboreum|Piper augustum|Piper auritum|Piper cernuum|Piper fimbriulatum|Piper gaudichaudianum|Piper lhotzkyanum|Piper obliquum|Piper regnellii|Piper rusbyi|Piptostigma fugax|Pittosporum viridiflorum|Plagiochila pulcherrima|Plagiochila rutilans|Plagiochila rutilans var. moritziana|Plagiochila rutilans var. standleyi|Plagiochila stephensoniana|Plexaurella grisea|Pogostemon Cablin|Pogostemon cablin|Porcelia macrocarpa|Prangos pabularia|Prangos tschimganica|Prangos uechtritzii|Prangos uloptera|Prunus pseudocerasus|Pseudoalteromonas tunicata|Pseudobrickellia brasiliensis|Pseudocedrela kotschyi|Pseudotaxus chienii|Psidium friedrichsthalianum|Psidium guineense|Psidium guyanense|Pteronia camphorata|Pteronia paniculata|Punctelia microsticta|Pycnanthemum floridanum|Pycnothymus rigidus|Rhanterium epapposum|Rhizophagus intraradices|Rhytisma fulvum|Riccia fluitans|Roldana barba-johannis|Rothmannia urcelliformis|Salmea scandens|Salvia absconditiflora|Salvia broussoneti|Salvia caespitosa|Salvia candidissima|Salvia cinnabarina|Salvia coccinea|Salvia cyanescens|Salvia hydrangea|Salvia iodantha|Salvia limbata|Salvia miniata|Salvia mirzayanii|Salvia nemorosa|Salvia sahendica|Salvia sclarea|Salvia staminea|Salvia syriaca|Salvia vermifolia|Salvia virgata|Salvia yosgadensis|Salvia × sylvestris|Santol|Santolina chamaecyparissus|Santolina rosmarinifolia|Sarcandra glabra|Satureja spicigera|Satureja wiedemanniana|Saussurea lappa|Scapania javanica|Schinus molle|Schistochila acuminata|Schistochila aligera|Schistostephium crataegifolium|Scopolia tangutica|Scutellaria barbata|Senecio brasiliensis|Senecio canchahuinganquensis|Senecio coahuilensis|Senecio dryophyllus|Senecio glastifolius|Senecio magnificus|Senecio nemorensis|Senecio othonniformis|Senecio subumbellatus|Senecio variabilis|Seriphium plumosum|Serratula xeranthemoides|Sibiraea angustata|Sidastrum tehuacanum|Sideritis athoa|Sideritis brevidens|Sideritis condensata|Sideritis curvidens|Sideritis dichotoma|Sideritis hispida|Sideritis lanata|Sideritis lyciae|Sideritis montana|Silene dioica|Sinularia erecta|Sinularia kavarattiensis|Sinularia manaarensis|Siparuna macrotepala|Siparuna thecaphora|Smallanthus maculatus|Solidago canadensis|Solidago leavenworthii|Sorgum bicolor|Sphaeria biglobosa|Sphaeria doliolum|Spiranthera odoratissima|Stachys annua|Stockwellia|Stoebe plumosa|Stoebe vulgaris|Streptomyces jumonjinensis|Streptomyces ribosidificus|Streptomyces sakaiensis|Sundacarpus amarus|Swertia decora|Symphyogyna brongniartii|Syzygiella autumnalis|Tagetes minuta|Tamarix dioica|Taonia lacheana|Telanthophora grandifolia|Teucrium asiaticum|Teucrium cyprium|Teucrium kotschyanum|Teucrium leucocladum|Teucrium micropodioides|Teucrium oxylepis|Teucrium pestalozzae|Teucrium pseudoscorodonia|Teucrium salviastrum|Teucrium scorodonia|Thelepus setosus|Theonella cupola|Thymbra spicata|Thymus broussonetii|Thymus camphoratus|Thymus funkii|Thymus longicaulis|Thymus longiflorus|Thymus quinquecostatus|Thymus thracicus|Thymus vulgaris|Thymus zygis|Tithonia diversifolia|Toona ciliata|Trichilia lepidota|Trifolium alpestre|Trilophozia quinquedentata|Tripleurospermum inodorum|Tripterygium wilfordii|Tritomaria quinquedentata|Tsuga sieboldii|Tuta absoluta|Ursinia abrotanifolia|Ursinia speciosa|Uvaria chamae|Valeriana officinalis|Venidium hirsutum|Veratrum eschscholtzii|Verbesina persicifolia|Verbesina subcordata|Verbesina virginica|Vernonia aurea|Vernonia mollissima|Viburnum tinus|Vicoa vestita|Viguiera dentata|Virola surinamensis|Vitex agnus-castus|Vitex negundo|Vittadinia gracilis|Waitzia acuminata|Wedelia hookeriana|Wedelia laevissima|Wedelia regis|West African Pepper|Wollastonia biflora|Wollastonia dentata|Xanthium canadense|Xanthium strumarium|Xylopia aethiopica|Xylopia aromatica|Xylopia emarginata|Xylopia phloiodora|Xylopia sericea|Zanthoxylum ailanthoides|Zanthoxylum bungeanum|Zanthoxylum nitidum|Zanthoxylum piperitum|Zanthoxylum schinifolium|Zanthoxylum simulans|Zanthoxylum tetraspermum|Zingiber officinale|basil|candyleaf|croton arboreous|tarragon|water mint

>  <collections>  (1025) 
ANPDB|Australian natural products|CMAUP (cCollective molecular activities of useful plants)|ChEBI NPs|Latin America dataset|NANPDB (Natural Products from Northern African Sources)|NAPRORE-CR|NPACT|NPASS|NPDBEjeCol|NPEdia|NuBBEDB|Phyto4Health|Super Natural II|TCMDB-Taiwan (Traditional Chinese Medicine database)|VietHerb|WikiData Natural Products|ZINC NP

>  <dois>  (1025) 
10.1002/(SICI)1097-0231(199608)10:11<1345::AID-RCM631>3.0.CO;2-4|10.1002/(SICI)1099-1026(199601)11:1<15::AID-FFJ541>3.0.CO;2-H|10.1002/(SICI)1099-1026(199607)11:4<215::AID-FFJ574>3.0.CO;2-L|10.1002/(SICI)1099-1026(199609)11:5<265::AID-FFJ592>3.0.CO;2-F|10.1002/(SICI)1099-1026(1998070)13:4<233::AID-FFJ730>3.0.CO;2-7|10.1002/(SICI)1099-1026(199901/02)14:1<45::AID-FFJ774>3.0.CO;2-S|10.1002/(SICI)1099-1573(199702)11:1<67::AID-PTR29>3.0.CO;2-I|10.1002/(SICI)1099-1573(1998)12:1+<S117::AID-PTR269>3.0.CO;2-2|10.1002/1099-1026(200005/06)15:3<144::AID-FFJ882>3.0.CO;2-C|10.1002/1099-1026(200005/06)15:3<201::AID-FFJ893>3.0.CO;2-I|10.1002/BSCB.19860950903|10.1002/CBDV.201000247|10.1002/CBDV.201400275|10.1002/CBDV.201500501|10.1002/CBDV.201600089|10.1002/CHIN.200334174|10.1002/CHIN.200412183|10.1002/CHIN.200539166|10.1002/FFJ.1128|10.1002/FFJ.2730010103|10.1002/FFJ.2730020106|10.1002/FFJ.2730050210|10.1002/FFJ.2730070109|10.1002/FFJ.2730070603|10.1002/FFJ.2730090305|10.1002/FFJ.2730100203|10.1002/FFJ.2730100310|10.1002/FFJ.2730100311|10.1002/FFJ.2730100605|10.1002/FFJ.2730100609|10.1002/FFJ.998|10.1002/JCCS.199200045|10.1002/JCCS.199900029|10.1002/JCCS.200000047|10.1002/MRC.1260280207|10.1002/PCA.594|10.1002/PTR.3289|10.1002/PTR.3346|10.1002/RCM.1290091307|10.1002/cbdv.201400275|10.1002/cbdv.201500501|10.1002/cbdv.201600089|10.1002/ptr.3289|10.1006/JFCA.2000.0968|10.1007/BF00629814|10.1007/BF01014715|10.1007/BF02238211|10.1007/BF02269705|10.1007/BF02536610|10.1007/S002170050405|10.1016/0031-9422(75)85073-4|10.1016/0031-9422(81)85192-8|10.1016/0031-9422(82)80139-8|10.1016/0031-9422(82)85189-3|10.1016/0031-9422(82)85199-6|10.1016/0031-9422(83)80100-9|10.1016/0031-9422(83)80171-X|10.1016/0031-9422(83)80242-8|10.1016/0031-9422(86)80022-X|10.1016/0031-9422(88)80026-8|10.1016/0031-9422(88)80049-9|10.1016/0031-9422(88)80136-5|10.1016/0031-9422(88)80209-7|10.1016/0031-9422(88)80446-1|10.1016/0031-9422(88)80452-7|10.1016/0031-9422(88)80683-6|10.1016/0031-9422(88)80765-9|10.1016/0031-9422(88)80767-2|10.1016/0031-9422(88)80790-8|10.1016/0031-9422(88)83027-9|10.1016/0031-9422(89)80048-2|10.1016/0031-9422(89)80195-5|10.1016/0031-9422(89)80287-0|10.1016/0031-9422(89)85025-3|10.1016/0031-9422(90)80178-J|10.1016/0031-9422(90)80185-J|10.1016/0031-9422(90)80193-K|10.1016/0031-9422(90)83037-2|10.1016/0031-9422(90)83041-X|10.1016/0031-9422(90)83066-A|10.1016/0031-9422(90)85106-P|10.1016/0031-9422(90)85281-J|10.1016/0031-9422(90)85307-2|10.1016/0031-9422(90)85367-O|10.1016/0031-9422(90)85421-B|10.1016/0031-9422(90)85434-H|10.1016/0031-9422(90)89036-9|10.1016/0031-9422(90)89062-E|10.1016/0031-9422(90)89063-F|10.1016/0031-9422(91)83037-L|10.1016/0031-9422(91)83038-M|10.1016/0031-9422(91)83064-R|10.1016/0031-9422(91)83197-S|10.1016/0031-9422(91)83456-U|10.1016/0031-9422(91)83663-6|10.1016/0031-9422(91)84214-D|10.1016/0031-9422(91)84215-E|10.1016/0031-9422(91)85124-I|10.1016/0031-9422(91)85274-4|10.1016/0031-9422(91)85275-5|10.1016/0031-9422(92)80176-F|10.1016/0031-9422(92)80396-V|10.1016/0031-9422(92)83132-I|10.1016/0031-9422(94)00567-D|10.1016/0031-9422(94)00675-J|10.1016/0031-9422(95)00245-3|10.1016/0031-9422(95)00347-A|10.1016/0031-9422(95)00357-D|10.1016/0031-9422(95)00543-G|10.1016/0031-9422(95)00601-X|10.1016/0031-9422(95)00702-4|10.1016/0031-9422(95)00806-3|10.1016/0031-9422(95)00938-8|10.1016/0031-9422(96)00041-6|10.1016/0031-9422(96)00248-8|10.1016/0305-1978(91)90113-E|10.1016/0305-1978(92)90070-T|10.1016/0305-1978(93)90031-L|10.1016/0305-1978(96)00057-9|10.1016/0378-8741(91)90062-I|10.1016/J.ARABJC.2012.04.042|10.1016/J.BMC.2005.07.050|10.1016/J.BSE.2003.12.009|10.1016/J.FITOTE.2005.06.006|10.1016/J.FITOTE.2005.08.019|10.1016/J.FITOTE.2006.01.013|10.1016/J.PHYMED.2010.03.020|10.1016/J.PHYMED.2011.12.003|10.1016/J.PHYTOCHEM.2003.08.004|10.1016/J.PHYTOCHEM.2004.11.010|10.1016/J.PHYTOCHEM.2007.06.016|10.1016/J.PHYTOCHEM.2011.01.006|10.1016/J.PHYTOCHEM.2011.01.021|10.1016/J.PHYTOCHEM.2011.09.002|10.1016/J.PHYTOL.2014.03.007|10.1016/S0021-9673(01)90672-7|10.1016/S0024-3205(00)00542-7|10.1016/S0024-3205(99)00578-0|10.1016/S0031-9422(00)00302-2|10.1016/S0031-9422(00)00402-7|10.1016/S0031-9422(00)00407-6|10.1016/S0031-9422(00)80411-2|10.1016/S0031-9422(00)80481-1|10.1016/S0031-9422(00)80758-X|10.1016/S0031-9422(00)80774-8|10.1016/S0031-9422(00)81099-7|10.1016/S0031-9422(00)81166-8|10.1016/S0031-9422(00)81176-0|10.1016/S0031-9422(00)81286-8|10.1016/S0031-9422(00)81571-X|10.1016/S0031-9422(00)82445-0|10.1016/S0031-9422(00)83114-3|10.1016/S0031-9422(00)83171-4|10.1016/S0031-9422(00)83466-4|10.1016/S0031-9422(00)83498-6|10.1016/S0031-9422(00)83754-1|10.1016/S0031-9422(00)83872-8|10.1016/S0031-9422(00)84505-7|10.1016/S0031-9422(00)84791-3|10.1016/S0031-9422(00)86883-1|10.1016/S0031-9422(00)89536-9|10.1016/S0031-9422(00)90356-X|10.1016/S0031-9422(00)90474-6|10.1016/S0031-9422(00)90616-2|10.1016/S0031-9422(00)91034-3|10.1016/S0031-9422(00)95204-X|10.1016/S0031-9422(00)97558-7|10.1016/S0031-9422(00)97577-0|10.1016/S0031-9422(00)97891-9|10.1016/S0031-9422(00)98080-4|10.1016/S0031-9422(00)98238-4|10.1016/S0031-9422(00)98249-9|10.1016/S0031-9422(01)00056-5|10.1016/S0031-9422(01)00322-3|10.1016/S0031-9422(02)00023-7|10.1016/S0031-9422(02)00207-8|10.1016/S0031-9422(96)00691-7|10.1016/S0031-9422(96)00746-7|10.1016/S0031-9422(97)00117-9|10.1016/S0031-9422(97)00172-6|10.1016/S0031-9422(97)00312-9|10.1016/S0031-9422(97)00324-5|10.1016/S0031-9422(97)00343-9|10.1016/S0031-9422(97)00400-7|10.1016/S0031-9422(97)00414-7|10.1016/S0031-9422(97)00762-0|10.1016/S0031-9422(97)00795-4|10.1016/S0031-9422(98)00067-3|10.1016/S0031-9422(98)00305-7|10.1016/S0031-9422(98)00583-4|10.1016/S0031-9422(99)00047-3|10.1016/S0031-9422(99)00050-3|10.1016/S0031-9422(99)00053-9|10.1016/S0031-9422(99)00383-0|10.1016/S0031-9422(99)00601-9|10.1016/S0040-4020(01)82348-6|10.1016/S0040-4020(01)96789-4|10.1016/S0305-1978(00)00062-4|10.1016/S0305-1978(01)00090-4|10.1016/S0305-1978(01)00094-1|10.1016/S0305-1978(01)00096-5|10.1016/S0305-1978(02)00164-3|10.1016/S0305-1978(02)00180-1|10.1016/S0305-1978(03)00039-5|10.1016/S0305-1978(03)00061-9|10.1016/S0305-1978(97)84854-5|10.1016/S0367-326X(00)00154-4|10.1016/S0367-326X(01)00325-2|10.1016/S0367-326X(02)00171-5|10.1016/S0367-326X(98)00016-1|10.1016/S0378-8741(01)00211-2|10.1016/j.foodchem.2016.01.111|10.1021/JF00034A020|10.1021/JF00037A027|10.1021/JF00039A035|10.1021/JF00046A030|10.1021/JF00083A001|10.1021/JF00118A056|10.1021/JF0509308|10.1021/JF301835V|10.1021/JF60201A021|10.1021/JF950577D|10.1021/NP0002886|10.1021/NP0003746|10.1021/NP040174K.S001|10.1021/NP049877S|10.1021/NP049877S.S001|10.1021/NP050081I|10.1021/NP060515P|10.1021/NP400872M|10.1021/NP50035A008|10.1021/NP50038A021|10.1021/NP50038A026|10.1021/NP50045A025|10.1021/NP50057A010|10.1021/NP50083A016|10.1021/NP50084A001|10.1021/NP50093A010|10.1021/NP50108A017|10.1021/NP50109A010|10.1021/NP50118A025|10.1021/NP9006469|10.1021/jf011456i|10.1021/np030485f|10.1021/np400872m|10.1021/np50118a025|10.1055/S-1999-14025|10.1055/S-2000-8627|10.1055/S-2001-18363|10.1055/S-2002-33803|10.1055/S-2003-39704|10.1055/S-2003-39705|10.1055/S-2006-957433|10.1055/S-2006-957641|10.1055/S-2006-957814|10.1055/S-2006-957896|10.1055/S-2006-959580|10.1055/S-2006-959673|10.1055/S-2006-959674|10.1055/S-2006-959714|10.1055/S-2006-960148|10.1055/S-2006-960872|10.1055/S-2006-961452|10.1055/S-2006-961743|10.1055/S-2006-962016|10.1055/S-2006-962450|10.1055/S-2006-962685|10.1055/S-2007-967123|10.1055/S-2007-969136|10.1071/CH9840635|10.1076/1388-0209(200004)3821-1FT106|10.1076/PHBI.35.1.66.13267|10.1076/PHBI.35.3.218.13295|10.1076/PHBI.40.1.67.5852|10.1080/10286020108041397|10.1080/10412905.1990.9697829|10.1080/10412905.1990.9697840|10.1080/10412905.1991.9697906|10.1080/10412905.1991.9697921|10.1080/10412905.1991.9697947|10.1080/10412905.1991.9697952|10.1080/10412905.1991.9697971|10.1080/10412905.1991.9697973|10.1080/10412905.1991.9697984|10.1080/10412905.1991.9697985|10.1080/10412905.1992.9698006|10.1080/10412905.1992.9698015|10.1080/10412905.1992.9698054|10.1080/10412905.1992.9698059|10.1080/10412905.1992.9698070|10.1080/10412905.1992.9698129|10.1080/10412905.1992.9698135|10.1080/10412905.1992.9698139|10.1080/10412905.1992.9698144|10.1080/10412905.1992.9698149|10.1080/10412905.1993.9698170|10.1080/10412905.1993.9698184|10.1080/10412905.1993.9698205|10.1080/10412905.1993.9698206|10.1080/10412905.1993.9698214|10.1080/10412905.1993.9698222|10.1080/10412905.1993.9698243|10.1080/10412905.1993.9698250|10.1080/10412905.1993.9698253|10.1080/10412905.1993.9698276|10.1080/10412905.1993.9698303|10.1080/10412905.1994.9698316|10.1080/10412905.1994.9698327|10.1080/10412905.1994.9698380|10.1080/10412905.1994.9698395|10.1080/10412905.1994.9698400|10.1080/10412905.1994.9698408|10.1080/10412905.1994.9698409|10.1080/10412905.1994.9698418|10.1080/10412905.1994.9698427|10.1080/10412905.1994.9698428|10.1080/10412905.1994.9698435|10.1080/10412905.1994.9698440|10.1080/10412905.1994.9698442|10.1080/10412905.1994.9698446|10.1080/10412905.1994.9699348|10.1080/10412905.1994.9699355|10.1080/10412905.1994.9699358|10.1080/10412905.1995.9698462|10.1080/10412905.1995.9698469|10.1080/10412905.1995.9698473|10.1080/10412905.1995.9698479|10.1080/10412905.1995.9698496|10.1080/10412905.1995.9698501|10.1080/10412905.1995.9698503|10.1080/10412905.1995.9698508|10.1080/10412905.1995.9698530|10.1080/10412905.1995.9698532|10.1080/10412905.1995.9700523|10.1080/10412905.1995.9700529|10.1080/10412905.1996.9700547|10.1080/10412905.1996.9700554|10.1080/10412905.1996.9700559|10.1080/10412905.1996.9701048|10.1080/10412905.1997.10554265|10.1080/10412905.1997.9700708|10.1080/10412905.1997.9700709|10.1080/10412905.1997.9700721|10.1080/10412905.1997.9700774|10.1080/10412905.1997.9700787|10.1080/10412905.1997.9700820|10.1080/10412905.1998.9700842|10.1080/10412905.1998.9700844|10.1080/10412905.1999.9701059|10.1080/10412905.1999.9701135|10.1080/10412905.1999.9701138|10.1080/10412905.1999.9701146|10.1080/10412905.1999.9701152|10.1080/10412905.2000.9699482|10.1080/10412905.2000.9699524|10.1080/10412905.2000.9699554|10.1080/10412905.2000.9699569|10.1080/10412905.2000.9712185|10.1080/10412905.2000.9712207|10.1080/10412905.2001.9699592|10.1080/10412905.2002.9699883|10.1080/10412905.2004.9698688|10.1080/10412905.2004.9698740|10.1080/10412905.2010.9700320|10.1080/10412905.2010.9700338|10.1080/10412905.2010.9700389|10.1080/10412905.2018.1431966|10.1080/10575639308043814|10.1080/14786410701848154|10.1080/14786419.2015.1038260|10.1080/14786419.2016.1226825|10.1135/CCCC19811048|10.1139/V10-085|10.1248/CPB.37.509|10.1248/CPB.51.1208|10.1248/CPB.53.428|10.1248/CPB.54.1465|10.1248/CPB.55.1597|10.1248/YAKUSHI1947.106.1_17|10.1515/ZNC-1991-3-404|10.1515/ZNC-2003-5-601|10.1590/0001-3765201520140223|10.1590/S0100-40422009000200028|10.1590/S0100-46702002000100009|10.1590/S0103-50532000000600012|10.1590/S0103-50532002000300014|10.1590/S0103-50532003000100004|10.1590/S0103-50532004000500025|10.1590/S0103-50532010000500012|10.1590/S0103-50532011000400018|10.1590/S0103-50532011000600016|10.21608/BFSA.1998.67842|10.3390/12030389|10.3390/50300571|10.3390/MOLECULES18044170|10.4314/BCSE.V11I1.21012|10.4315/0362-028X.JFP-15-089|10.5650/jos.ess15176|10.5694/J.1326-5377.1998.TB126732.X

>  <synonyms>  (1025) 
(+)-Spathulenol|(1aR,4aR,7S,7aR,7bR)-1,1,7-trimethyl-4-methylidene-1a,2,3,4a,5,6,7a,7b-octahydrocyclopropa[h]azulen-7-ol|(1aR,4aR,7S,7aR,7bR)-1,1,7-trimethyl-4-methylidenedecahydro-1H-cyclopropa(e)azulen-7-ol|1H-CYCLOPROP(E)AZULEN-7-OL, DECAHYDRO-1,1,7-TRIMETHYL-4-METHYLENE-|1H-CYCLOPROP(E)AZULEN-7-OL, DECAHYDRO-1,1,7-TRIMETHYL-4-METHYLENE-, (1AR,4AR,7S,7AR,7BR)-|1H-Cycloprop(e)azulen-7-ol, decahydro-1,1,7-trimethyl-4-methylene-, (1aR-(1aalpha,4aalpha,7beta,7abeta,7balpha))-|6750-60-3|7XV9L96SJJ|AKOS037515399|CHEBI:132824|CHEMBL518542|CS-0016592|F82083|HY-N1205|MS-23227|Q1376658|SCHEMBL309962|Spatulenol|UNII-7XV9L96SJJ|espatulenol|spathulenol,(+)-spathulenol,espatulenol

>  <cas>  (1025) 
6750-60-3

$$$$

     RDKit          2D

 16 18  0  0  0  0  0  0  0  0999 V2000
    4.5033    0.5602    0.0000 C   0  0  0  0  0  0  0  0  0  0  0  0
    3.0778    1.0270    0.0000 C   0  0  0  0  0  0  0  0  0  0  0  0
    2.7693    2.4949    0.0000 C   0  0  0  0  0  0  0  0  0  0  0  0
    1.9608    0.0259    0.0000 C   0  0  0  0  0  0  0  0  0  0  0  0
    2.2693   -1.4421    0.0000 C   0  0  0  0  0  0  0  0  0  0  0  0
    1.1523   -2.4432    0.0000 C   0  0  0  0  0  0  0  0  0  0  0  0
   -0.2732   -1.9764    0.0000 C   0  0  0  0  0  0  0  0  0  0  0  0
   -1.3903   -2.9775    0.0000 C   0  0  0  0  0  0  0  0  0  0  0  0
   -0.5817   -0.5085    0.0000 C   0  0  0  0  0  0  0  0  0  0  0  0
   -1.8825   -1.2555    0.0000 C   0  0  0  0  0  0  0  0  0  0  0  0
   -2.9949   -0.2492    0.0000 C   0  0  0  0  0  0  0  0  0  0  0  0
   -2.3817    1.1197    0.0000 C   0  0  0  0  0  0  0  0  0  0  0  0
   -3.8072    1.5865    0.0000 C   0  0  0  0  0  0  0  0  0  0  0  0
   -2.0664    2.5862    0.0000 O   0  0  0  0  0  0  0  0  0  0  0  0
   -0.8902    0.9595    0.0000 C   0  0  0  0  0  0  0  0  0  0  0  0
    0.5353    0.4927    0.0000 C   0  0  0  0  0  0  0  0  0  0  0  0
  1  2  1  0
  2  3  1  0
  4  2  1  6
  4  5  1  0
  5  6  1  0
  6  7  1  0
  7  8  1  1
  7  9  1  0
  9 10  1  6
 10 11  1  0
 11 12  1  0
 12 13  1  1
 12 14  1  0
 15 12  1  6
 15 16  1  0
 16  4  1  1
 15  9  1  0
 16  9  1  0
M  END
>  <identifier>  (1026) 
CNP0193202.1

>  <canonical_smiles>  (1026) 
CC(C)[C@@H]1CC[C@@H](C)[C@@]23CC[C@](C)(O)[C@@H]2[C@@H]13

>  <standard_inchi>  (1026) 
InChI=1S/C15H26O/c1-9(2)11-6-5-10(3)15-8-7-14(4,16)13(15)12(11)15/h9-13,16H,5-8H2,1-4H3/t10-,11+,12-,13+,14+,15-/m1/s1

>  <standard_inchi_key>  (1026) 
KONGRWVLXLWGDV-BYGOPZEFSA-N

>  <name>  (1026) 
cubebol

>  <iupac_name>  (1026) 
(1~{R},4~{S},5~{R},6~{R},7~{S},10~{R})-7-isopropyl-4,10-dimethyl-tricyclo[4.4.0.0^{1,5}]decan-4-ol

>  <annotation_level>  (1026) 
5

>  <total_atom_count>  (1026) 
42

>  <heavy_atom_count>  (1026) 
16

>  <molecular_weight>  (1026) 
222.37

>  <exact_molecular_weight>  (1026) 
222.19837

>  <molecular_formula>  (1026) 
C15H26O

>  <alogp>  (1026) 
3.47

>  <topological_polar_surface_area>  (1026) 
20.23

>  <rotatable_bond_count>  (1026) 
1

>  <hydrogen_bond_acceptors>  (1026) 
1

>  <hydrogen_bond_donors>  (1026) 
1

>  <hydrogen_bond_acceptors_lipinski>  (1026) 
1

>  <hydrogen_bond_donors_lipinski>  (1026) 
1

>  <lipinski_rule_of_five_violations>  (1026) 
0

>  <aromatic_rings_count>  (1026) 
0

>  <qed_drug_likeliness>  (1026) 
0.72

>  <formal_charge>  (1026) 
0

>  <fractioncsp3>  (1026) 
1.00

>  <number_of_minimal_rings>  (1026) 
3

>  <van_der_walls_volume>  (1026) 
238.81

>  <contains_sugar>  (1026) 
False

>  <contains_ring_sugars>  (1026) 
False

>  <contains_linear_sugars>  (1026) 
False

>  <murcko_framework>  (1026) 
C1CCC23CCCC3C2C1

>  <np_likeness>  (1026) 
3.22

>  <chemical_class>  (1026) 
Prenol lipids

>  <chemical_sub_class>  (1026) 
Sesquiterpenoids

>  <chemical_super_class>  (1026) 
Lipids and lipid-like molecules

>  <direct_parent_classification>  (1026) 
Sesquiterpenoids

>  <np_classifier_pathway>  (1026) 
Terpenoids

>  <np_classifier_superclass>  (1026) 
Sesquiterpenoids

>  <np_classifier_class>  (1026) 
Cubebane sesquiterpenoids

>  <np_classifier_is_glycoside>  (1026) 
False

>  <organisms>  (1026) 
Acritopappus confertus|Ageratina viscosa|Ajuga chamaepitys|Artemisia klotzchiana|Bombina maxima|Breonia chinensis|Campylotropis hirtella|Ceropegia dichotoma|Cespitularia|Coelogyne corymbosa|Crinum moorei|Crotalaria candicans|Croton jimenezii|Cryptomeria japonica|Dendrobium loddigesii|Diospyros iturensis|Distephanus angulifolius|Ekimia bornmuelleri|Eria japonica|Erythrina bidwillii|Eucalyptus apodophylla|Eucalyptus globulus subsp. bicostata|Gaillardia amblyodon|Glycosmis macrophylla|Gypsophila perfoliata|Helminthosporium velutinum|Heteroxenia|Hypericum polyanthemum|Idiospermum australiense|Juniperus drupacea|Ligularia stenocephala|Lippia alba|Litsea aurata|Lobelia salicifolia|Lophozia attenuata|Martensia denticulata|Mentha cardiaca|Ocotea morae|Ononis spinosa|Pentaclethra macrophylla|Peperomia circinnata|Periploca sepium|Picea glehnii|Picea koraiensis|Pinus densiflora|Piper aduncum|Piper nigrum|Plantago psyllium|Plectranthus myrianthus|Podachaenium eminens|Pteris dispar|Pterocaulon virgatum|Rhodiola semenovii|Salvia sessei|Sideritis brevidens|Sideritis rubriflora|Sonneratia caseolaris|Stephania zippeliana|Talaromyces variabilis|Taonia atomaria|Teucrium leucocladum|Teucrium sandrasicum|Toona ciliata|Tristania conferta|Verbesina persicifolia|Vernonia cistifolia|Veronica polita

>  <collections>  (1026) 
Australian natural products|CMAUP (cCollective molecular activities of useful plants)|Latin America dataset|NAPRORE-CR|NPASS|NuBBEDB|WikiData Natural Products|ZINC NP

>  <dois>  (1026) 
10.1002/(SICI)1099-1026(199909/10)14:5<312::AID-FFJ835>3.0.CO;2-B|10.1002/ffj.2730070206|10.1007/BF00574326|10.1007/BF00579987|10.1007/BF00713346|10.1007/BF02238211|10.1016/0031-9422(95)00357-D|10.1016/0305-0491(91)90141-Y|10.1016/J.BSE.2003.12.009|10.1016/S0031-9422(00)80155-7|10.1016/S0031-9422(00)90407-2|10.1016/S0031-9422(00)91034-3|10.1071/CH9830211|10.1080/10412905.1997.9700774|10.1080/10412905.1999.9701096|10.1080/10412905.1999.9701111|10.1080/10412905.2002.9699883|10.1080/10412905.2004.9698744|10.1080/10412905.2018.1431966|10.1080/10575639308043814|10.1248/CPB.52.354|10.1271/BBB.65.1434|10.1271/BBB.70610|10.1590/S0103-50532000000600012|10.1590/S0103-50532011000400018

>  <synonyms>  (1026) 
(-)-(1R,4S,5R,6R,7S,10R)-7-isopropyl-4,10-dimethyl-tricyclo[4.4.0.0(1,5)]decan-4-ol|(-)-cubebol|(1R,4S,5R,6R,7S,10R)-4,10-dimethyl-7-propan-2-yltricyclo[4.4.0.01,5]decan-4-ol|(3S,3aR,3bR,4S,7R,7aR)-3,7-dimethyl-4-(propan-2-yl)octahydro-1H-cyclopenta[1,3]cyclopropa[1,2]benzen-3-ol|1H-CYCLOPENTA(1,3)CYCLOPROPA(1,2)BENZEN-3-OL, 2,3,3A.ALPHA.,3B.ALPHA.,4,5,6,7-OCTAHYDRO-4.ALPHA.-ISOPROPYL-3.BETA.,7.BETA-DIMETHYL-, (-)-|1H-CYCLOPENTA(1,3)CYCLOPROPA(1,2)BENZEN-3-OL, OCTAHYDRO-3,7-DIMETHYL-4-(1-METHYLETHYL)-, (3S-(3.ALPHA.,3A.BETA.,3B.ALPHA.,4.ALPHA.,7.BETA.,7AS*))-|1H-Cyclopenta(1,3)cyclopropa(1,2)benzen-3-ol, 2,3,3aalpha,3balpha,4,5,6,7-octahydro-4alpha-isopropyl-3beta,7betadimethyl-, (-)-|1H-Cyclopenta(1,3)cyclopropa(1,2)benzen-3-ol, octahydro-3,7-dimethyl-4-(1-methylethyl)-, (3S,3aR,3bR,4S,7R,7aR)-|1H-Cyclopenta(1,3)cyclopropa(1,2)benzen-3-ol, octahydro-3,7-dimethyl-4-(1-methylethyl)-, (3S-(3alpha,3abeta,3balpha,4alpha,7beta,7aS*))-|23445-02-5|9C9ZTS2B3U|CHEBI:63446|Cubebol|DTXSID90177997|FEMA No. 4497|Q726875|SCHEMBL246610|UNII-9C9ZTS2B3U|cubeb camphor|cubebol

>  <cas>  (1026) 
23445-02-5

$$$$

     RDKit          2D

 15 17  0  0  0  0  0  0  0  0999 V2000
    3.0383   -2.8589    0.0000 C   0  0  0  0  0  0  0  0  0  0  0  0
    2.4266   -1.4893    0.0000 C   0  0  0  0  0  0  0  0  0  0  0  0
    3.1750   -0.1894    0.0000 C   0  0  0  0  0  0  0  0  0  0  0  0
    2.1700    0.9241    0.0000 C   0  0  0  0  0  0  0  0  0  0  0  0
    0.8004    0.3124    0.0000 C   0  0  0  0  0  0  0  0  0  0  0  0
   -0.4121   -0.5708    0.0000 C   0  0  0  0  0  0  0  0  0  0  0  0
    0.9590   -1.1792    0.0000 C   0  0  0  0  0  0  0  0  0  0  0  0
   -1.7831    0.0377    0.0000 C   0  0  0  0  0  0  0  0  0  0  0  0
   -2.9956   -0.8454    0.0000 C   0  0  0  0  0  0  0  0  0  0  0  0
   -4.3666   -0.2369    0.0000 C   0  0  0  0  0  0  0  0  0  0  0  0
   -2.8370   -2.3370    0.0000 C   0  0  0  0  0  0  0  0  0  0  0  0
   -1.9417    1.5293    0.0000 C   0  0  0  0  0  0  0  0  0  0  0  0
   -0.7292    2.4124    0.0000 C   0  0  0  0  0  0  0  0  0  0  0  0
    0.6418    1.8040    0.0000 C   0  0  0  0  0  0  0  0  0  0  0  0
    1.8543    2.6871    0.0000 C   0  0  0  0  0  0  0  0  0  0  0  0
  1  2  2  0
  2  3  1  0
  3  4  1  0
  5  4  1  6
  5  6  1  0
  6  7  1  0
  6  8  1  1
  8  9  1  6
  9 10  1  0
  9 11  1  0
  8 12  1  0
 12 13  1  0
 13 14  1  0
 14 15  1  1
  7  2  1  6
  7  5  1  0
 14  5  1  0
M  END
>  <identifier>  (1027) 
CNP0198091.1

>  <canonical_smiles>  (1027) 
C=C1CC[C@@]23[C@@H]([C@@H]12)[C@H](C(C)C)CC[C@H]3C

>  <standard_inchi>  (1027) 
InChI=1S/C15H24/c1-9(2)12-6-5-11(4)15-8-7-10(3)13(15)14(12)15/h9,11-14H,3,5-8H2,1-2,4H3/t11-,12+,13-,14-,15+/m1/s1

>  <standard_inchi_key>  (1027) 
FSRZGYRCMPZNJF-KHMAMNHCSA-N

>  <name>  (1027) 
beta-Cubebene

>  <iupac_name>  (1027) 
(1~{R},5~{S},6~{R},7~{S},10~{R})-7-isopropyl-10-methyl-4-methylene-tricyclo[4.4.0.0^{1,5}]decane

>  <annotation_level>  (1027) 
5

>  <total_atom_count>  (1027) 
39

>  <heavy_atom_count>  (1027) 
15

>  <molecular_weight>  (1027) 
204.36

>  <exact_molecular_weight>  (1027) 
204.1878

>  <molecular_formula>  (1027) 
C15H24

>  <alogp>  (1027) 
4.27

>  <topological_polar_surface_area>  (1027) 
0.00

>  <rotatable_bond_count>  (1027) 
1

>  <hydrogen_bond_acceptors>  (1027) 
0

>  <hydrogen_bond_donors>  (1027) 
0

>  <hydrogen_bond_acceptors_lipinski>  (1027) 
0

>  <hydrogen_bond_donors_lipinski>  (1027) 
0

>  <lipinski_rule_of_five_violations>  (1027) 
0

>  <aromatic_rings_count>  (1027) 
0

>  <qed_drug_likeliness>  (1027) 
0.56

>  <formal_charge>  (1027) 
0

>  <fractioncsp3>  (1027) 
0.87

>  <number_of_minimal_rings>  (1027) 
3

>  <van_der_walls_volume>  (1027) 
225.32

>  <contains_sugar>  (1027) 
False

>  <contains_ring_sugars>  (1027) 
False

>  <contains_linear_sugars>  (1027) 
False

>  <murcko_framework>  (1027) 
C1CCC23CCCC3C2C1

>  <np_likeness>  (1027) 
3.08

>  <chemical_class>  (1027) 
Prenol lipids

>  <chemical_sub_class>  (1027) 
Sesquiterpenoids

>  <chemical_super_class>  (1027) 
Lipids and lipid-like molecules

>  <direct_parent_classification>  (1027) 
Sesquiterpenoids

>  <np_classifier_pathway>  (1027) 
Terpenoids

>  <np_classifier_superclass>  (1027) 
Sesquiterpenoids

>  <np_classifier_class>  (1027) 
Cubebane sesquiterpenoids

>  <np_classifier_is_glycoside>  (1027) 
False

>  <organisms>  (1027) 
Acca sellowiana|Achillea abrotanoides|Achillea crithmifolia|Achillea millefolium|Achyrospermum africanum|Ageratum conyzoides|Aguacate|Aiouea costaricensis|Ajuga chamaepitys|Aloysia citriodora|Aloysia citrodora|Aloysia triphylla|Angostura trifoliata|Aniba puchury-minor|Apium graveolens|Apopellia endiviifolia|Araucaria bidwillii|Artemisia annua|Artemisia arborescens|Artemisia herba-alba|Artemisia thuscula|Artemisia vulgaris|Asarum celsum|Atalantia buxifolia|Baccharis rufescens|Bitter bush|Cananga odorata|Casimiroa greggii|Centratherum punctatum|Chromolaena laevigata|Cistus albidus|Citrus Sinensis|Citrus medica var. sarcodactylis|Citrus sinensis|Citrus sinensis L.|Citrus × paradisi|Clausena excavata|Cleistopholis patens|Commiphora quadricincta|Conyza incana|Croton eluteria|Croton jimenezii|Cryptomeria japonica|Culcitium canescens|Curcuma amada|Curcuma trichosantha|Cymbopogon flexuosus|Cymbopogon martinii|Dictyopteris divaricata|Eremanthus arboreus|Eucalyptus angulosa|Eucalyptus behriana|Eucalyptus ceratocorys|Eucalyptus cuprea|Eucalyptus dolichorhyncha|Eucalyptus fasciculosa|Eucalyptus forrestiana|Eucalyptus incrassata|Eucalyptus intertexta|Eucalyptus lansdowneana|Eucalyptus leucoxylon|Eucalyptus melanophloia|Eucalyptus ochrophloia|Eucalyptus odorata|Eucalyptus populnea|Eucalyptus porosa|Eucalyptus sparsa|Eucalyptus stoatei|Eucalyptus tetraptera|Eucalyptus viridis|Foeniculum vulgare|Grindelia hirsutula|Haplostichanthus johnsonii|Homo sapiens|Humulus lupulus|Isodon rugosus|Jugo|Lantana ukambensis|Leonotis leonurus|Lepechinia chamaedryoides|Lepechinia chilensis|Lippia alba|Lippia carviodora|Lippia dulcis|Lippia gracilis|Lippia grata|Liquidambar styraciflua|Melaleuca alternifolia|Melissa officinalis|Mentha aquatica|Mentha longifolia|Mentha piperita|Mentha spicata|Micromeria myrtifolia|Micromeria sinaica|Mikania banisteriae|Mikania congesta|Mikania cordifolia|Mikania parviflora|Monodora tenuifolia|Montanoa tomentosa|Mosla cavaleriei|Nepeta racemosa|Nidorella resedifolia|Ocimum campechianum|Ocimum gratissimum|Ocotea gomezii|Ocotea morae|Origanum onites|Origanum sipyleum|Origanum vulgare|Pelargonium endlicherianum|Pellia endiviifolia|Pellia neesiana|Persea tolimanensis|Petasites albus|Petasites hybridus|Pinus halepensis|Piper Cubeba|Piper cubeba|Piper nigrum|Pittosporum tobira|Platostoma africanum|Podachaenium eminens|Porophyllum gracile|Prangos uloptera|Prumnopitys ferruginoides|Psidium friedrichsthalianum|Rosmarinus officinalis|Salvia absconditiflora|Salvia ianthina|Salvia officinalis|Salvia sclarea|Salvia syriaca|Scaligeria lazica|Sequoiadendron giganteum|Sideritis lyciae|Smallanthus maculatus|Spondias mombin|Symphyogyna brongniartii|Synedrella nodiflora|Tessaria fastigiata|Teucrium cyprium|Teucrium kotschyanum|Teucrium leucocladum|Teucrium micropodioides|Thymus broussonetii|Thymus camphoratus|Thymus maroccanus|Thymus vulgaris|Thymus willkommii|Toona ciliata|Torilis arvensis|Uvaria chamae|Uvaria narum|Valeriana officinalis|Varronia curassavica|Warburgia stuhlmannii|Warburgia ugandensis|Widdringtonia whytei|Xylopia sericea|Zanthoxylum zanthoxyloides|basil|bellis perennis|candyleaf|common sunflower|potato|tomato|water mint

>  <collections>  (1027) 
ANPDB|Australian natural products|ChEBI NPs|ETM (Ethiopian Traditional Medicine) DB|FooDB|KNApSaCK|Latin America dataset|NANPDB (Natural Products from Northern African Sources)|NAPRORE-CR|NPASS|NPEdia|NuBBEDB|Super Natural II|VietHerb|WikiData Natural Products|ZINC NP

>  <dois>  (1027) 
10.1002/(SICI)1099-1565(200003/04)11:2<99::AID-PCA494>3.0.CO;2-9|10.1002/(SICI)1099-1573(1998)12:1+<S117::AID-PTR269>3.0.CO;2-2|10.1002/CBDV.201700436|10.1002/CBDV.201800531|10.1002/ECE3.5390|10.1002/FFJ.2730010103|10.1002/FFJ.2730030204|10.1002/FFJ.2730030303|10.1002/FFJ.2730030406|10.1002/FFJ.2730050210|10.1002/FFJ.2730060206|10.1002/FFJ.2730060307|10.1002/FFJ.2730060311|10.1002/FFJ.2730080504|10.1002/FFJ.2730090305|10.1002/FFJ.2730100605|10.1002/HLCA.201200359|10.1002/JSFA.8889|10.1002/PCA.594|10.1007/BF00580907|10.1007/BF02907824|10.1016/0031-6865(94)00053-X|10.1016/0031-9422(88)83114-5|10.1016/0031-9422(89)80285-7|10.1016/0031-9422(90)85270-P|10.1016/0031-9422(91)83632-U|10.1016/0031-9422(91)85039-3|10.1016/0031-9422(92)80270-O|10.1016/0031-9422(94)85021-6|10.1016/0031-9422(95)00183-8|10.1016/0305-1978(89)90100-2|10.1016/0305-1978(92)90070-T|10.1016/0378-8741(91)90062-I|10.1016/J.BSE.2003.12.009|10.1016/J.BSE.2010.01.009|10.1016/J.FOODRES.2018.12.054|10.1016/J.INDCROP.2009.02.010|10.1016/J.INDCROP.2012.12.022|10.1016/J.PHYMED.2008.04.018|10.1016/J.PHYMED.2010.03.020|10.1016/J.PHYMED.2011.12.003|10.1016/S0031-9422(00)80558-0|10.1016/S0031-9422(00)81692-1|10.1016/S0031-9422(00)83061-7|10.1016/S0031-9422(00)97558-7|10.1016/S0031-9422(96)00559-6|10.1016/S0031-9422(96)00691-7|10.1016/S0031-9422(97)00117-9|10.1016/S0031-9422(97)00172-6|10.1016/S0031-9422(98)00189-7|10.1016/S0926-6690(03)00076-1|10.1016/S0944-7113(11)80031-0|10.1021/JF00035A029|10.1021/JF00069A028|10.1021/JF00073A015|10.1021/JF00098A007|10.1021/JF00118A056|10.1021/JF040437G|10.1021/JF60155A014|10.1021/JF981170M|10.1021/JF9911850|10.1021/JO040272A|10.1021/NP030475E|10.1021/NP50020A013|10.1021/NP50034A042|10.1021/NP50046A035|10.1021/NP50048A039|10.1021/NP50058A023|10.1021/jf011456i|10.1055/S-2003-39704|10.1055/S-2006-957378|10.1055/S-2006-957488|10.1055/S-2006-959674|10.1055/S-2006-960032|10.1055/S-2006-960128|10.1055/S-2006-960356|10.1055/S-2006-960872|10.1055/S-2006-961452|10.1055/S-2006-962016|10.1055/S-2006-962093|10.1055/S-2006-962450|10.1055/S-2006-962781|10.1055/S-2007-969897|10.1055/S-2007-969948|10.1055/S-2008-1074841|10.1076/PHBI.35.3.218.13295|10.1080/10412905.1989.9697769|10.1080/10412905.1989.9697801|10.1080/10412905.1990.9697816|10.1080/10412905.1990.9697864|10.1080/10412905.1991.9697930|10.1080/10412905.1991.9697985|10.1080/10412905.1992.9698015|10.1080/10412905.1992.9698035|10.1080/10412905.1992.9698043|10.1080/10412905.1992.9698054|10.1080/10412905.1992.9698069|10.1080/10412905.1992.9698072|10.1080/10412905.1992.9698079|10.1080/10412905.1992.9698101|10.1080/10412905.1992.9698109|10.1080/10412905.1992.9698112|10.1080/10412905.1992.9698127|10.1080/10412905.1993.9698205|10.1080/10412905.1993.9698242|10.1080/10412905.1993.9698248|10.1080/10412905.1993.9698253|10.1080/10412905.1993.9698261|10.1080/10412905.1994.9698332|10.1080/10412905.1994.9698337|10.1080/10412905.1994.9698361|10.1080/10412905.1994.9698400|10.1080/10412905.1994.9698414|10.1080/10412905.1994.9698440|10.1080/10412905.1994.9699344|10.1080/10412905.1995.9698478|10.1080/10412905.1995.9698479|10.1080/10412905.1995.9698496|10.1080/10412905.1995.9698501|10.1080/10412905.1996.9700559|10.1080/10412905.1996.9700568|10.1080/10412905.1996.9701048|10.1080/10412905.1999.9701056|10.1080/10412905.1999.9701111|10.1080/10412905.2000.9712167|10.1080/10412905.2001.9699620|10.1080/10412905.2002.9699883|10.1080/10412905.2004.9698740|10.1080/10412905.2004.9698744|10.1080/10412905.2010.9700389|10.1080/10412905.2012.747271|10.1080/17429140600968177|10.1088/1752-7155/8/1/014001|10.1177/1934578X0800301225|10.1246/BCSJ.54.2366|10.1271/BBB1961.45.1493|10.1271/BBB1961.55.2571|10.1271/NOGEIKAGAKU1924.67.1417|10.1515/ZNC-1984-7-803|10.1515/ZNC-1991-3-404|10.1590/S0103-50532000000600012|10.1590/S0103-50532011000400018|10.3109/13880209109082876|10.3109/13880209109082877|10.3390/MOLECULES24112053|10.3390/MOLECULES24234244|10.4315/0362-028X-68.4.790|10.5897/JMPR10.078

>  <synonyms>  (1027) 
(-)-b-Cubebene|(-)-beta-cubebene|(1R,5S,6R,7S,10R)-10-methyl-4-methylidene-7-propan-2-yltricyclo[4.4.0.01,5]decane|(3aS,3bR,4S,7R,7aR)-4-Isopropyl-7-methyl-3-methyleneoctahydro-1H-cyclopenta[1,3]cyclopropa[1,2]benzene|(3aS-(3aalpha,3bbata,4beta,7alpha,7aS*))-octahydro-7-methyl-3-methylene-4-(1-methylethyl)-1Hcyclopenta(1,3)cyclopropa(1,2)benzene|(3as,3br,4s,7r,7ar)-7-methyl-3-methylidene-4-(propan-2-yl)octahydro-1h-cyclopenta[1,3]cyclopropa[1,2]benzene|13744-15-5|1H-Cyclopenta(1,3)cyclopropa(1,2)benzene, octahydro-7-methyl-3-methylene-4-(1-methylethyl)-, (3aS-(3aalpha,3bbata,4beta,7alpha,7aS*))-|C09648|CHEBI:10363|DTXSID201017555|FSRZGYRCMPZNJF-KHMAMNHCSA-N|NS00121420|Q27108624|\u03b2-cubebene|\u221a\u00e9\u00ac\u2264-cubebene|_-cubebene|b-Cubebene|beta-Cubebene

>  <cas>  (1027) 
13744-15-5

$$$$

     RDKit          2D

 27 28  0  0  0  0  0  0  0  0999 V2000
   -8.0445    1.5483    0.0000 C   0  0  0  0  0  0  0  0  0  0  0  0
   -6.7272    0.8309    0.0000 C   0  0  0  0  0  0  0  0  0  0  0  0
   -6.6898   -0.6686    0.0000 C   0  0  0  0  0  0  0  0  0  0  0  0
   -5.4472    1.6130    0.0000 C   0  0  0  0  0  0  0  0  0  0  0  0
   -4.1299    0.8956    0.0000 C   0  0  0  0  0  0  0  0  0  0  0  0
   -2.8499    1.6777    0.0000 C   0  0  0  0  0  0  0  0  0  0  0  0
   -1.5326    0.9603    0.0000 C   0  0  0  0  0  0  0  0  0  0  0  0
   -2.4679   -0.2124    0.0000 C   0  0  0  0  0  0  0  0  0  0  0  0
   -1.0549    2.3822    0.0000 C   0  0  0  0  0  0  0  0  0  0  0  0
    0.4154    2.6793    0.0000 C   0  0  0  0  0  0  0  0  0  0  0  0
    1.4079    1.5546    0.0000 C   0  0  0  0  0  0  0  0  0  0  0  0
    2.8782    1.8518    0.0000 C   0  0  0  0  0  0  0  0  0  0  0  0
    3.3560    3.2737    0.0000 O   0  0  0  0  0  0  0  0  0  0  0  0
    3.8707    0.7271    0.0000 C   0  0  0  0  0  0  0  0  0  0  0  0
    5.3409    1.0242    0.0000 C   0  0  0  0  0  0  0  0  0  0  0  0
    6.3334   -0.1005    0.0000 O   0  0  0  0  0  0  0  0  0  0  0  0
    5.8187    2.4461    0.0000 O   0  0  0  0  0  0  0  0  0  0  0  0
    3.3929   -0.6948    0.0000 C   0  0  0  0  0  0  0  0  0  0  0  0
    4.3854   -1.8195    0.0000 C   0  0  0  0  0  0  0  0  0  0  0  0
    1.9226   -0.9920    0.0000 C   0  0  0  0  0  0  0  0  0  0  0  0
    1.4448   -2.4138    0.0000 C   0  0  0  0  0  0  0  0  0  0  0  0
   -0.0254   -2.7110    0.0000 C   0  0  0  0  0  0  0  0  0  0  0  0
   -0.5032   -4.1329    0.0000 C   0  0  0  0  0  0  0  0  0  0  0  0
   -1.9735   -4.4301    0.0000 C   0  0  0  0  0  0  0  0  0  0  0  0
    0.4893   -5.2576    0.0000 C   0  0  0  0  0  0  0  0  0  0  0  0
    0.9301    0.1327    0.0000 C   0  0  0  0  0  0  0  0  0  0  0  0
   -0.5401   -0.1644    0.0000 O   0  0  0  0  0  0  0  0  0  0  0  0
  1  2  1  0
  2  3  1  0
  2  4  2  0
  4  5  1  0
  5  6  2  0
  6  7  1  0
  7  8  1  6
  7  9  1  0
  9 10  1  0
 10 11  1  0
 11 12  2  0
 12 13  1  0
 12 14  1  0
 14 15  1  0
 15 16  2  0
 15 17  1  0
 14 18  2  0
 18 19  1  0
 18 20  1  0
 20 21  1  0
 21 22  1  0
 22 23  2  0
 23 24  1  0
 23 25  1  0
 20 26  2  0
 26 27  1  0
 27  7  1  0
 26 11  1  0
M  END
>  <identifier>  (1028) 
CNP0137659.1

>  <canonical_smiles>  (1028) 
CC(C)=C/C=C/[C@@]1(C)CCC2=C(O)C(C(=O)O)=C(C)C(CC=C(C)C)=C2O1

>  <standard_inchi>  (1028) 
InChI=1S/C23H30O4/c1-14(2)8-7-12-23(6)13-11-18-20(24)19(22(25)26)16(5)17(21(18)27-23)10-9-15(3)4/h7-9,12,24H,10-11,13H2,1-6H3,(H,25,26)/b12-7+/t23-/m0/s1

>  <standard_inchi_key>  (1028) 
LJFBYGPHKHZLQD-LZMFZKJZSA-N

>  <name>  (1028) 
nan

>  <iupac_name>  (1028) 
(2~{R})-5-hydroxy-2,7-dimethyl-8-(3-methylbut-2-enyl)-2-[(1~{E})-4-methylpenta-1,3-dienyl]chromane-6-carboxylic acid

>  <annotation_level>  (1028) 
5

>  <total_atom_count>  (1028) 
57

>  <heavy_atom_count>  (1028) 
27

>  <molecular_weight>  (1028) 
370.49

>  <exact_molecular_weight>  (1028) 
370.21441

>  <molecular_formula>  (1028) 
C23H30O4

>  <alogp>  (1028) 
5.51

>  <topological_polar_surface_area>  (1028) 
66.76

>  <rotatable_bond_count>  (1028) 
5

>  <hydrogen_bond_acceptors>  (1028) 
3

>  <hydrogen_bond_donors>  (1028) 
2

>  <hydrogen_bond_acceptors_lipinski>  (1028) 
3

>  <hydrogen_bond_donors_lipinski>  (1028) 
2

>  <lipinski_rule_of_five_violations>  (1028) 
1

>  <aromatic_rings_count>  (1028) 
1

>  <qed_drug_likeliness>  (1028) 
0.53

>  <formal_charge>  (1028) 
0

>  <fractioncsp3>  (1028) 
0.44

>  <number_of_minimal_rings>  (1028) 
2

>  <van_der_walls_volume>  (1028) 
361.40

>  <contains_sugar>  (1028) 
False

>  <contains_ring_sugars>  (1028) 
False

>  <contains_linear_sugars>  (1028) 
False

>  <murcko_framework>  (1028) 
O1c2ccccc2CCC1

>  <np_likeness>  (1028) 
2.48

>  <chemical_class>  (1028) 
Benzene and substituted derivatives

>  <chemical_sub_class>  (1028) 
Benzoic acids and derivatives

>  <chemical_super_class>  (1028) 
Benzenoids

>  <direct_parent_classification>  (1028) 
Salicylic acid and derivatives

>  <np_classifier_pathway>  (1028) 
Polyketides

>  <np_classifier_superclass>  (1028) 
Diterpenoids

>  <np_classifier_class>  (1028) 
nan

>  <np_classifier_is_glycoside>  (1028) 
False

>  <organisms>  (1028) 
Peperomia obtusifolia

>  <collections>  (1028) 
ChemSpider NPs|Latin America dataset|NuBBEDB|Super Natural II|WikiData Natural Products|ZINC NP

>  <dois>  (1028) 
10.1016/J.TETASY.2010.09.004|10.1055/s-0029-1185364

>  <synonyms>  (1028) 
34-dihydro-5-hydroxy-27-dimethyl-8-(2''-methyl-2''-butenyl)-2-(4'-methyl-1'3'-pentadienyl)-2H-1-benzopyran-6-carboxylic acid

>  <cas>  (1028) 
nan

$$$$

     RDKit          2D

 31 34  0  0  0  0  0  0  0  0999 V2000
   -7.4428    2.9010    0.0000 C   0  0  0  0  0  0  0  0  0  0  0  0
   -6.9917    1.4704    0.0000 C   0  0  0  0  0  0  0  0  0  0  0  0
   -5.5272    1.1457    0.0000 C   0  0  0  0  0  0  0  0  0  0  0  0
   -5.0762   -0.2848    0.0000 C   0  0  0  0  0  0  0  0  0  0  0  0
   -3.6117   -0.6095    0.0000 C   0  0  0  0  0  0  0  0  0  0  0  0
   -3.1607   -2.0401    0.0000 C   0  0  0  0  0  0  0  0  0  0  0  0
   -4.1740   -3.1460    0.0000 C   0  0  0  0  0  0  0  0  0  0  0  0
   -1.6962   -2.3647    0.0000 C   0  0  0  0  0  0  0  0  0  0  0  0
   -1.0981   -3.7403    0.0000 C   0  0  0  0  0  0  0  0  0  0  0  0
    0.3950   -3.5965    0.0000 C   0  0  0  0  0  0  0  0  0  0  0  0
    0.7197   -2.1321    0.0000 C   0  0  0  0  0  0  0  0  0  0  0  0
    2.0252   -1.3934    0.0000 C   0  0  0  0  0  0  0  0  0  0  0  0
    3.3176   -2.1547    0.0000 C   0  0  0  0  0  0  0  0  0  0  0  0
    3.3046   -3.6546    0.0000 O   0  0  0  0  0  0  0  0  0  0  0  0
    4.6232   -1.4161    0.0000 C   0  0  0  0  0  0  0  0  0  0  0  0
    4.6362    0.0839    0.0000 C   0  0  0  0  0  0  0  0  0  0  0  0
    5.9418    0.8225    0.0000 C   0  0  0  0  0  0  0  0  0  0  0  0
    5.9548    2.3225    0.0000 C   0  0  0  0  0  0  0  0  0  0  0  0
    7.2604    3.0611    0.0000 O   0  0  0  0  0  0  0  0  0  0  0  0
    4.6624    3.0838    0.0000 C   0  0  0  0  0  0  0  0  0  0  0  0
    3.3569    2.3451    0.0000 C   0  0  0  0  0  0  0  0  0  0  0  0
    3.3438    0.8452    0.0000 C   0  0  0  0  0  0  0  0  0  0  0  0
    2.0513    1.6065    0.0000 C   0  0  0  0  0  0  0  0  0  0  0  0
    2.0383    0.1065    0.0000 C   0  0  0  0  0  0  0  0  0  0  0  0
    0.7458    0.8678    0.0000 C   0  0  0  0  0  0  0  0  0  0  0  0
   -0.5597    0.1292    0.0000 C   0  0  0  0  0  0  0  0  0  0  0  0
   -0.5728   -1.3708    0.0000 C   0  0  0  0  0  0  0  0  0  0  0  0
   -1.9377   -0.7487    0.0000 C   0  0  0  0  0  0  0  0  0  0  0  0
   -4.5139    2.2517    0.0000 C   0  0  0  0  0  0  0  0  0  0  0  0
   -4.9649    3.6822    0.0000 C   0  0  0  0  0  0  0  0  0  0  0  0
   -3.0494    1.9270    0.0000 C   0  0  0  0  0  0  0  0  0  0  0  0
  1  2  1  0
  3  2  1  6
  3  4  1  0
  4  5  1  0
  5  6  1  0
  6  7  1  6
  6  8  1  0
  8  9  1  6
  9 10  1  0
 11 10  1  6
 11 12  1  0
 12 13  1  1
 13 14  2  0
 13 15  1  0
 15 16  2  0
 16 17  1  0
 17 18  1  0
 18 19  1  6
 18 20  1  0
 20 21  1  0
 21 22  1  0
 22 23  1  6
 22 24  1  0
 24 25  1  6
 25 26  1  0
 26 27  1  0
 27 28  1  6
  3 29  1  0
 29 30  1  0
 29 31  1  0
 27  8  1  0
 27 11  1  0
 24 12  1  0
 22 16  1  0
M  END
>  <identifier>  (1029) 
CNP0130819.5

>  <canonical_smiles>  (1029) 
CC[C@@H](CC[C@@H](C)[C@H]1CC[C@H]2[C@@H]3C(=O)C=C4C[C@@H](O)CC[C@]4(C)[C@H]3CC[C@]12C)C(C)C

>  <standard_inchi>  (1029) 
InChI=1S/C29H48O2/c1-7-20(18(2)3)9-8-19(4)23-10-11-24-27-25(13-15-29(23,24)6)28(5)14-12-22(30)16-21(28)17-26(27)31/h17-20,22-25,27,30H,7-16H2,1-6H3/t19-,20+,22+,23-,24+,25+,27+,28+,29-/m1/s1

>  <standard_inchi_key>  (1029) 
ICFXJOAKQGDRCT-HPYBIPJLSA-N

>  <name>  (1029) 
3beta-Hydroxyporiferast-5-en-7-one

>  <iupac_name>  (1029) 
(3~{S},8~{S},9~{S},10~{R},13~{R},14~{S},17~{R})-17-[(1~{R},4~{S})-4-ethyl-1,5-dimethyl-hexyl]-3-hydroxy-10,13-dimethyl-1,2,3,4,8,9,11,12,14,15,16,17-dodecahydrocyclopenta[a]phenanthren-7-one

>  <annotation_level>  (1029) 
5

>  <total_atom_count>  (1029) 
79

>  <heavy_atom_count>  (1029) 
31

>  <molecular_weight>  (1029) 
428.7

>  <exact_molecular_weight>  (1029) 
428.36543

>  <molecular_formula>  (1029) 
C29H48O2

>  <alogp>  (1029) 
7.20

>  <topological_polar_surface_area>  (1029) 
37.30

>  <rotatable_bond_count>  (1029) 
6

>  <hydrogen_bond_acceptors>  (1029) 
2

>  <hydrogen_bond_donors>  (1029) 
1

>  <hydrogen_bond_acceptors_lipinski>  (1029) 
2

>  <hydrogen_bond_donors_lipinski>  (1029) 
1

>  <lipinski_rule_of_five_violations>  (1029) 
1

>  <aromatic_rings_count>  (1029) 
0

>  <qed_drug_likeliness>  (1029) 
0.49

>  <formal_charge>  (1029) 
0

>  <fractioncsp3>  (1029) 
0.90

>  <number_of_minimal_rings>  (1029) 
4

>  <van_der_walls_volume>  (1029) 
447.46

>  <contains_sugar>  (1029) 
False

>  <contains_ring_sugars>  (1029) 
False

>  <contains_linear_sugars>  (1029) 
False

>  <murcko_framework>  (1029) 
C1=C2CCCCC2C3CCC4CCCC4C3C1

>  <np_likeness>  (1029) 
2.76

>  <chemical_class>  (1029) 
Steroids and steroid derivatives

>  <chemical_sub_class>  (1029) 
Stigmastanes and derivatives

>  <chemical_super_class>  (1029) 
Lipids and lipid-like molecules

>  <direct_parent_classification>  (1029) 
Stigmastanes and derivatives

>  <np_classifier_pathway>  (1029) 
Terpenoids

>  <np_classifier_superclass>  (1029) 
Steroids

>  <np_classifier_class>  (1029) 
Stigmastane steroids

>  <np_classifier_is_glycoside>  (1029) 
False

>  <organisms>  (1029) 
Aria edulis|Beilschmiedia erythrophloia|Gracilaria edulis|Hydropuntia edulis|Melilotus messanensis|Melilotus siculus|Trichilia|Trichilia estipulata

>  <collections>  (1029) 
KNApSaCK|Latin America dataset|NuBBEDB|Super Natural II|TIPdb (database of Taiwan indigenous plants)|WikiData Natural Products

>  <dois>  (1029) 
10.1016/0031-9422(92)83292-7|10.1016/S0031-9422(00)00298-3|10.1021/NP800504W|10.1023/B:JOEC.0000006451.19649.A0

>  <synonyms>  (1029) 
(3|(3S,8S,9S,10R,13R,14S,17R)-17-[(2R,5S)-5-ethyl-6-methylheptan-2-yl]-3-hydroxy-10,13-dimethyl-1,2,3,4,8,9,11,12,14,15,16,17-dodecahydrocyclopenta[a]phenanthren-7-one|145163-97-9|24-\u221a\u00e9\u00ac\u00b1-7-oxositosterol|3??-Hydroxyporiferast-5-en-7-one|A,24S)-3-Hydroxystigmast-5-en-7-one|AKOS022184604|CS-0928313|FS-10373|HY-N12521|Stigmast-5-en-7-one, 3-hydroxy-, (3beta,24S)-

>  <cas>  (1029) 
145163-97-9

$$$$

     RDKit          2D

 24 26  0  0  0  0  0  0  0  0999 V2000
   -7.0380    2.3356    0.0000 C   0  0  0  0  0  0  0  0  0  0  0  0
   -6.5345    0.9227    0.0000 O   0  0  0  0  0  0  0  0  0  0  0  0
   -5.0591    0.6522    0.0000 C   0  0  0  0  0  0  0  0  0  0  0  0
   -4.0871    1.7947    0.0000 C   0  0  0  0  0  0  0  0  0  0  0  0
   -2.6117    1.5243    0.0000 C   0  0  0  0  0  0  0  0  0  0  0  0
   -2.1082    0.1113    0.0000 C   0  0  0  0  0  0  0  0  0  0  0  0
   -0.6328   -0.1591    0.0000 C   0  0  0  0  0  0  0  0  0  0  0  0
   -0.1293   -1.5721    0.0000 C   0  0  0  0  0  0  0  0  0  0  0  0
   -1.1013   -2.7146    0.0000 O   0  0  0  0  0  0  0  0  0  0  0  0
   -2.5767   -2.4442    0.0000 C   0  0  0  0  0  0  0  0  0  0  0  0
    1.3461   -1.8426    0.0000 C   0  0  0  0  0  0  0  0  0  0  0  0
    1.8496   -3.2555    0.0000 O   0  0  0  0  0  0  0  0  0  0  0  0
    2.3180   -0.7001    0.0000 C   0  0  0  0  0  0  0  0  0  0  0  0
    3.7934   -0.9705    0.0000 C   0  0  0  0  0  0  0  0  0  0  0  0
    4.2969   -2.3835    0.0000 O   0  0  0  0  0  0  0  0  0  0  0  0
    4.7654    0.1720    0.0000 C   0  0  0  0  0  0  0  0  0  0  0  0
    4.2619    1.5850    0.0000 C   0  0  0  0  0  0  0  0  0  0  0  0
    5.2338    2.7275    0.0000 O   0  0  0  0  0  0  0  0  0  0  0  0
    6.7092    2.4571    0.0000 C   0  0  0  0  0  0  0  0  0  0  0  0
    2.7865    1.8554    0.0000 C   0  0  0  0  0  0  0  0  0  0  0  0
    1.8145    0.7129    0.0000 C   0  0  0  0  0  0  0  0  0  0  0  0
    0.3391    0.9834    0.0000 O   0  0  0  0  0  0  0  0  0  0  0  0
   -3.0802   -1.0312    0.0000 C   0  0  0  0  0  0  0  0  0  0  0  0
   -4.5556   -0.7608    0.0000 C   0  0  0  0  0  0  0  0  0  0  0  0
  1  2  1  0
  2  3  1  0
  3  4  2  0
  4  5  1  0
  5  6  2  0
  6  7  1  0
  7  8  2  0
  8  9  1  0
  9 10  1  0
  8 11  1  0
 11 12  2  0
 11 13  1  0
 13 14  2  0
 14 15  1  0
 14 16  1  0
 16 17  2  0
 17 18  1  0
 18 19  1  0
 17 20  1  0
 20 21  2  0
 21 22  1  0
  6 23  1  0
 23 24  2  0
 24  3  1  0
 22  7  1  0
 21 13  1  0
M  END
>  <identifier>  (1030) 
CNP0115683.0

>  <canonical_smiles>  (1030) 
COC1=CC=C(C2=C(OC)C(=O)C3=C(O)C=C(OC)C=C3O2)C=C1

>  <standard_inchi>  (1030) 
InChI=1S/C18H16O6/c1-21-11-6-4-10(5-7-11)17-18(23-3)16(20)15-13(19)8-12(22-2)9-14(15)24-17/h4-9,19H,1-3H3

>  <standard_inchi_key>  (1030) 
WSQWAMGRHJQANC-UHFFFAOYSA-N

>  <name>  (1030) 
15486-34-7

>  <iupac_name>  (1030) 
5-hydroxy-3,7-dimethoxy-2-(4-methoxyphenyl)chromen-4-one

>  <annotation_level>  (1030) 
5

>  <total_atom_count>  (1030) 
40

>  <heavy_atom_count>  (1030) 
24

>  <molecular_weight>  (1030) 
328.32

>  <exact_molecular_weight>  (1030) 
328.09469

>  <molecular_formula>  (1030) 
C18H16O6

>  <alogp>  (1030) 
3.19

>  <topological_polar_surface_area>  (1030) 
78.13

>  <rotatable_bond_count>  (1030) 
4

>  <hydrogen_bond_acceptors>  (1030) 
6

>  <hydrogen_bond_donors>  (1030) 
1

>  <hydrogen_bond_acceptors_lipinski>  (1030) 
6

>  <hydrogen_bond_donors_lipinski>  (1030) 
1

>  <lipinski_rule_of_five_violations>  (1030) 
0

>  <aromatic_rings_count>  (1030) 
3

>  <qed_drug_likeliness>  (1030) 
0.79

>  <formal_charge>  (1030) 
0

>  <fractioncsp3>  (1030) 
0.17

>  <number_of_minimal_rings>  (1030) 
3

>  <van_der_walls_volume>  (1030) 
281.23

>  <contains_sugar>  (1030) 
False

>  <contains_ring_sugars>  (1030) 
False

>  <contains_linear_sugars>  (1030) 
False

>  <murcko_framework>  (1030) 
O1c2ccccc2CC=C1c3ccccc3

>  <np_likeness>  (1030) 
1.00

>  <chemical_class>  (1030) 
Flavonoids

>  <chemical_sub_class>  (1030) 
O-methylated flavonoids

>  <chemical_super_class>  (1030) 
Phenylpropanoids and polyketides

>  <direct_parent_classification>  (1030) 
3-O-methylated flavonoids

>  <np_classifier_pathway>  (1030) 
Shikimates and Phenylpropanoids

>  <np_classifier_superclass>  (1030) 
Flavonoids

>  <np_classifier_class>  (1030) 
Flavonols

>  <np_classifier_is_glycoside>  (1030) 
False

>  <organisms>  (1030) 
Acacia linarioides|Acalypha australis|Aconitum variegatum|Aeonium goochiae|Aeonium lindleyi|Aframomum giganteum|Aglaia andamanica|Aglaia formosana|Aglaia rubiginosa|Aleuritopteris farinosa|Aleuritopteris formosana|Alpinia flabellata|Amomum koenigii|Amorphophallus konjac|Andromeda polifolia|Aniba santalodora|Aniba spp.|Aphis graminum|Aphis pini|Aquilegia viridiflora|Argyrochosma pilifera|Artemisia absinthium|Artemisia annua|Artemisia annua L.|Artemisia apiacea|Artemisia campestris|Artemisia carvifolia|Artemisia rehan|Artemisia rupestris|Aspergillus desertorum|Aspergillus pseudodeflectus|Asplenium adiantum-nigrum|Asterias forbesi|Asterococcus muratae|Astragalus circassicus|Astragalus kabadianus|Aulosira fertilissima|Avrainvillea longicaulis|Baccharis pilularis|Baccharis scandens|Beilschmiedia madang|Bethencourtia palmensis|Betula nigra|Boesenbergia pandurata|Boesenbergia rotunda|Bombax anceps|Boswellia ovalifoliolata|Breonia chinensis|Brombya platynema|Bryum argenteum|Calamus strictus|Calceolaria chelidonioides|Calceolaria tripartita|Callicarpa japonica|Campanula choziatowskyi|Campylotropis hirtella|Celastrus dispermus|Centaurea deflexa|Centaurea scoparia|Centaurea sonchifolia|Cerbera odollam|Ceropegia dichotoma|Cetraria pinastri|Cheilanthes farinosa|Cheilanthes fragrans|Cheilanthes grisea|Chondria californica|Cichorium endivia|Cistus spp.|Cladonia amaurocraea|Cladrastis platycarpa|Clausena anisata|Clausena dunniana|Cleome spinosa|Clinopodium gracile|Clione antarctica|Coelogyne flavida|Colchicum filifolium|Coprosma areolata|Cortinarius orellanus|Corydalis claviculata|Crinum moorei|Crotalaria candicans|Cryptomeria japonica|Currania robertiana|Cylindrospermum muscicola|Cynoglossum macrostylum|Daphne arisanensis|Dendrobium loddigesii|Dialium excelsum|Digitalis viridiflora|Diplodia natalensis|Distemonanthus benthamianus|Distephanus angulifolius|Dodonaea Viscosa|Dodonaea angustifolia|Dodonaea viscosa|Dorystoechas hastata|Drymaria cordata|Dysidea fragilis|Echinops niveus|Elephantopus hirtiflorus|Entada phaseoloides|Eremanthus seidelii|Eria japonica|Erythrina hypaphorus|Esox lucius|Etmopterus spinax|Eucalyptus apodophylla|Eucalyptus globulus subsp. bicostata|Eucryphia|Eucryphia lucida|Eucryphia milliganii|Euphorbia amygdaloides|Euphorbia hylonoma|Fadogia agrestis|Gaertnera morindoides|Gambierdiscus toxicus|Gardenia oudiepe|Genista lydia|Glycosmis macrophylla|Gmelina asiatica|Grindelia nana|Grindelia tenella|Guadua angustifolia|Guettarda noumeana|Gymnocarpium robertianum|Gymnopetalum integrifolium|Gypsophila perfoliata|Gyrostroma missouriense|Haplopappus hirtellus|Haplopappus sonorensis|Hardenbergia violacea|Hedychium Coronarium|Hedychium coronarium|Helichrysum cephaloideum|Heliotropium pycnophyllum|Heliotropium scabrum|Helleborus macranthus|Hemionitis japonica|Hesperis matronalis|Hexagonia speciosa|Homalium longifolium|Houttuynia cordata|Hypericum balearicum|Hypericum polyanthemum|Hyrtios eubamma|Iris kashmiriana|Isoplexis chalcantha|Jaborosa leucotricha|Jackiella javanica|Jatropha macrorhiza|Juniperus drupacea|Kaempferia parviflora|Kiggelaria africana|Lactarius mitissimus|Lemonia spectabilis|Lepechinia urbanii|Ligularia cymbulifera|Lilium umbellatum|Lippia adoensis|Lobophytum laevigatum|Lonchocarpus chiricanus|Lucilia caesar|Lupinus luteus|Lycium bridgesii|Maclura cochinchinensis|Macrosiphum liriodendri|Magnolia montana|Martensia denticulata|Matricaria sabulosa|Matsucoccus josephi|Meistera koenigii|Mentha cardiaca|Mentzelia decapetala|Methanobrevibacter arboriphilus|Mimosa pigra|Mirabilis viscosa|Montanoa leucantha|Mucuna holtonii|Nematolepis phebalioides|Nepytia freemani|Nothofagus cunninghamii|Ononis spinosa|Oreopteris quelpaertensis|Orgyia pseudotsugata|Ormosia elata|Ostrya carpinifolia|Ozothamnus scutellifolius|Pangium edule|Parmelia tinctina|Parmotrema nilgherrense|Passiflora foetida|Pecten irradians|Pentaclethra macrophylla|Periploca sepium|Perymenium jelskii|Pestalotiopsis virgatula|Petunia axillaris subsp. parodii|Phenax angustifolius|Phora velutina|Phrodus bridgesii|Phyllanthus emblica|Piper kwashoense|Piper philippinum|Piptadenia colubrina|Plectranthus myrianthus|Podocarpus dacrydioides|Pogostemon cablin|Polyzonium rosalbum|Ponera metallica|Potentilla candicans|Preussia terricola|Prunus mahaleb|Pteris bella|Pterocaulon serrulatum|Pterocaulon virgatum|Pulsatilla chinensis|Pyrobaculum organotrophum|Quercus marilandica|Reneilmia cincinnata|Rhamnus cathartica|Rhamnus formosana|Rhizobium leguminosarum|Rhodiola semenovii|Rhus vulgaris|Rubia akane|Salix rosmarinifolia|Salvia lavanduloides|Salvia patens|Salvia sessei|Salvia virgata|Sarcophyton elegans|Scapania bolanderi|Sedum obtuso-lineare|Senecio adenophyllus|Senecio platyphylloides|Senecio roseiflorus|Senecio ruwenzoriensis|Senecio viscosus|Senna didymobotrya|Sideritis kuegleriana|Sideritis lotsyi|Sideritis marmorea|Siparuna apiosyce|Siparuna brasiliensis|Solanum pubescens|Solidago flexicaulis|Sonneratia caseolaris|Sparuna apiosyce|Sphaeria rousseliana|Spiraea formosana|Spongionella gracilis|Stenolobium stans|Stephania dielsiana|Stephania zippeliana|Sterculia foetida|Stevia subpubescens|Stizolobium deeringianum|Streptomyces pseudovenezuelae|Strychnos elaeocarpa|Strychnos wallichiana|Talaromyces variabilis|Thalassiosira weissflogii|Trachyrhamphus serratus|Trichilia havanensis|Trichilia heudelotii|Trichophyton mentagrophytes|Tripterospermum lanceolatum|Tristania conferta|Trollius chinensis|Umbilicaria esculenta|Vachellia leucophloea|Vernonia cistifolia|Veronica liwanensis|Veronica polita|Viburnum betulifolium|Vigna mungo|Viguiera linearis|Vincetoxicum forrestii|Vitex polygama|Waltheria indica|Xanthocephalum gymnospermoides|Zingiber officinale|Zingiber ottensii|gardenia oudiepe

>  <collections>  (1030) 
ANPDB|Australian natural products|CMAUP (cCollective molecular activities of useful plants)|ConMedNP|GNPS (Global Natural Products Social Molecular Networking)|KNApSaCK|Latin America dataset|Mitishamba database|NANPDB (Natural Products from Northern African Sources)|NPASS|NPEdia|NuBBEDB|Phyto4Health|Super Natural II|TCMDB-Taiwan (Traditional Chinese Medicine database)|TCMID (Traditional Chinese Medicine Integrated Database)|TIPdb (database of Taiwan indigenous plants)|UNPD (Universal Natural Products Database)|VietHerb|WikiData Natural Products|ZINC NP

>  <dois>  (1030) 
10.1002/CBDV.201100002|10.1002/HLCA.200390259|10.1007/BF00595086|10.1007/S00217-018-3188-Z|10.1016/0031-9422(83)83075-1|10.1016/0031-9422(86)88035-9|10.1016/0031-9422(91)84215-E|10.1016/0031-9422(93)00074-P|10.1016/0031-9422(95)00269-D|10.1016/J.EJMECH.2011.03.011|10.1016/J.EJMECH.2017.11.071|10.1016/J.EJPHAR.2007.04.001|10.1016/J.PHYTOCHEM.2007.05.003|10.1016/J.PHYTOCHEM.2008.09.001|10.1016/J.PHYTOCHEM.2009.05.011|10.1016/J.PHYTOL.2010.08.001|10.1016/S0031-9422(00)00222-3|10.1016/S0031-9422(00)86815-6|10.1016/S0031-9422(00)86851-X|10.1016/S0031-9422(00)89739-3|10.1016/S0031-9422(00)97427-2|10.1016/S0031-9422(00)97950-0|10.1016/S0031-9422(01)00451-4|10.1016/S0031-9422(02)00666-0|10.1016/S0031-9422(96)00745-5|10.1016/S0031-9422(97)00075-7|10.1016/S0031-9422(97)00738-3|10.1016/S0031-9422(97)01003-0|10.1016/S0031-9422(98)00622-0|10.1016/S0040-4020(01)82170-0|10.1016/S0305-1978(02)00178-3|10.1016/S0305-1978(96)00081-6|10.1016/S0305-1978(99)00045-9|10.1016/S0367-326X(03)00033-9|10.1016/S0968-0896(02)00121-9|10.1016/j.phytol.2010.08.001|10.1016/j.sajb.2013.11.012|10.1016/s0305-1978(99)00045-9|10.1021/ACS.JNATPROD.5B00896|10.1021/JF990160Y|10.1021/NP0105228|10.1021/NP0304417|10.1021/NP0603119|10.1055/S-0030-1250144|10.1055/S-2000-9901|10.1248/CPB.60.62|10.1515/ZNC-2008-5-611|10.1515/znc-2008-5-611|10.4067/S0717-97072010000300010

>  <synonyms>  (1030) 
3,7,4'-Tri-O-methylkaempferol|374-O-trimethylkaempferol|4H-1-Benzopyran-4-one, 5-hydroxy-3,7-dimethoxy-2-(4-methoxyphenyl)-|5-Hydroxy-3,7,4'-trimethoxyflavone|5-Hydroxy-3,7-dimethoxy-2-(4-methoxyphenyl)-4H-1-benzopyran-4-one|5-hydroxy-3, 4',7-trimethoxyflavone|5-hydroxy-3,7-dimethoxy-2-(4-methoxyphenyl)chromen-4-one|7-Trimethylkaempferol|ACon1_000906|AKOS025287552|BDBM50464569|CHEMBL77686|CS-0024223|DB-043246|DTXSID30165752|EINECS 239-514-7|G12069|HY-N3434|KAEMPFEROL-3,7,4-TRIMETHYLETHER|Kaempferol 3,7,4'-trimethyl ether|Kaempferol trimethylether|LMPK12112698|MEGxp0_001028|MFCD00017439|MS-24913|NCGC00169243-01|NS00025031|NSC675951|Q63395673|SCHEMBL4649968|WSQWAMGRHJQANC-UHFFFAOYSA-N

>  <cas>  (1030) 
nan

$$$$

     RDKit          2D

 28 32  0  0  0  0  0  0  0  0999 V2000
   -4.5477   -4.8247    0.0000 C   0  0  0  0  0  0  0  0  0  0  0  0
   -4.8471   -3.3549    0.0000 O   0  0  0  0  0  0  0  0  0  0  0  0
   -3.7239   -2.3607    0.0000 C   0  0  0  0  0  0  0  0  0  0  0  0
   -2.3013   -2.8363    0.0000 O   0  0  0  0  0  0  0  0  0  0  0  0
   -4.0233   -0.8909    0.0000 C   0  0  0  0  0  0  0  0  0  0  0  0
   -5.4459   -0.4153    0.0000 C   0  0  0  0  0  0  0  0  0  0  0  0
   -5.7452    1.0545    0.0000 O   0  0  0  0  0  0  0  0  0  0  0  0
   -4.6220    2.0487    0.0000 C   0  0  0  0  0  0  0  0  0  0  0  0
   -4.9214    3.5186    0.0000 C   0  0  0  0  0  0  0  0  0  0  0  0
   -3.1994    1.5731    0.0000 C   0  0  0  0  0  0  0  0  0  0  0  0
   -2.0762    2.5673    0.0000 C   0  0  0  0  0  0  0  0  0  0  0  0
   -0.6536    2.0917    0.0000 N   0  0  0  0  0  0  0  0  0  0  0  0
    0.4696    3.0859    0.0000 C   0  0  0  0  0  0  0  0  0  0  0  0
    1.8921    2.6102    0.0000 C   0  0  0  0  0  0  0  0  0  0  0  0
    2.1915    1.1404    0.0000 C   0  0  0  0  0  0  0  0  0  0  0  0
    1.0683    0.1462    0.0000 C   0  0  0  0  0  0  0  0  0  0  0  0
    1.6668   -1.2292    0.0000 N   0  0  0  0  0  0  0  0  0  0  0  0
    3.1598   -1.0851    0.0000 C   0  0  0  0  0  0  0  0  0  0  0  0
    4.2660   -2.0982    0.0000 C   0  0  0  0  0  0  0  0  0  0  0  0
    5.6965   -1.6469    0.0000 C   0  0  0  0  0  0  0  0  0  0  0  0
    6.0208   -0.1823    0.0000 C   0  0  0  0  0  0  0  0  0  0  0  0
    7.4513    0.2691    0.0000 O   0  0  0  0  0  0  0  0  0  0  0  0
    8.5574   -0.7441    0.0000 C   0  0  0  0  0  0  0  0  0  0  0  0
    4.9146    0.8308    0.0000 C   0  0  0  0  0  0  0  0  0  0  0  0
    3.4842    0.3794    0.0000 C   0  0  0  0  0  0  0  0  0  0  0  0
   -0.3543    0.6219    0.0000 C   0  0  0  0  0  0  0  0  0  0  0  0
   -1.4775   -0.3723    0.0000 C   0  0  0  0  0  0  0  0  0  0  0  0
   -2.9001    0.1033    0.0000 C   0  0  0  0  0  0  0  0  0  0  0  0
  1  2  1  0
  2  3  1  0
  3  4  2  0
  3  5  1  0
  5  6  2  0
  6  7  1  0
  7  8  1  0
  8  9  1  1
  8 10  1  0
 10 11  1  6
 11 12  1  0
 12 13  1  0
 13 14  1  0
 14 15  1  0
 15 16  2  0
 16 17  1  0
 17 18  1  0
 18 19  2  0
 19 20  1  0
 20 21  2  0
 21 22  1  0
 22 23  1  0
 21 24  1  0
 24 25  2  0
 16 26  1  0
 26 27  1  6
 28 27  1  6
 28  5  1  0
 28 10  1  0
 26 12  1  0
 25 15  1  0
 25 18  1  0
M  END
>  <identifier>  (1031) 
CNP0162173.2

>  <canonical_smiles>  (1031) 
COC(=O)C1=CO[C@@H](C)[C@@H]2CN3CCC4=C(NC5=CC=C(OC)C=C45)[C@@H]3C[C@H]12

>  <standard_inchi>  (1031) 
InChI=1S/C22H26N2O4/c1-12-17-10-24-7-6-14-16-8-13(26-2)4-5-19(16)23-21(14)20(24)9-15(17)18(11-28-12)22(25)27-3/h4-5,8,11-12,15,17,20,23H,6-7,9-10H2,1-3H3/t12-,15-,17-,20-/m0/s1

>  <standard_inchi_key>  (1031) 
DTDADHMBRZKXSC-GKASHWOUSA-N

>  <name>  (1031) 
Aricine

>  <iupac_name>  (1031) 
methyl (1~{S},15~{S},16~{S},20~{S})-7-methoxy-16-methyl-17-oxa-3,13-diazapentacyclo[11.8.0.0^{2,10}.0^{4,9}.0^{15,20}]henicosa-2(10),4,6,8,18-pentaene-19-carboxylate

>  <annotation_level>  (1031) 
5

>  <total_atom_count>  (1031) 
54

>  <heavy_atom_count>  (1031) 
28

>  <molecular_weight>  (1031) 
382.46

>  <exact_molecular_weight>  (1031) 
382.18926

>  <molecular_formula>  (1031) 
C22H26N2O4

>  <alogp>  (1031) 
3.19

>  <topological_polar_surface_area>  (1031) 
63.79

>  <rotatable_bond_count>  (1031) 
2

>  <hydrogen_bond_acceptors>  (1031) 
5

>  <hydrogen_bond_donors>  (1031) 
1

>  <hydrogen_bond_acceptors_lipinski>  (1031) 
5

>  <hydrogen_bond_donors_lipinski>  (1031) 
1

>  <lipinski_rule_of_five_violations>  (1031) 
0

>  <aromatic_rings_count>  (1031) 
2

>  <qed_drug_likeliness>  (1031) 
0.81

>  <formal_charge>  (1031) 
0

>  <fractioncsp3>  (1031) 
0.50

>  <number_of_minimal_rings>  (1031) 
5

>  <van_der_walls_volume>  (1031) 
346.51

>  <contains_sugar>  (1031) 
False

>  <contains_ring_sugars>  (1031) 
False

>  <contains_linear_sugars>  (1031) 
False

>  <murcko_framework>  (1031) 
O1C=CC2CC3c4[nH]c5ccccc5c4CCN3CC2C1

>  <np_likeness>  (1031) 
1.27

>  <chemical_class>  (1031) 
Yohimbine alkaloids

>  <chemical_sub_class>  (1031) 
Yohimbine alkaloids

>  <chemical_super_class>  (1031) 
Alkaloids and derivatives

>  <direct_parent_classification>  (1031) 
Yohimbine alkaloids

>  <np_classifier_pathway>  (1031) 
Alkaloids

>  <np_classifier_superclass>  (1031) 
Tryptophan alkaloids

>  <np_classifier_class>  (1031) 
Corynanthe type

>  <np_classifier_is_glycoside>  (1031) 
False

>  <organisms>  (1031) 
Artocarpus integer|Aspidosperma excelsum|Aspidosperma marcgravianum|Cinchona calisaya|Cinchona pelletierana|Hamelia Patens|Hamelia patens|Ochrosia moorei|Petchia madagascariensis|Rauvolfia canescens|Rauvolfia cubana|Rauvolfia mannii|Rauvolfia tetraphylla|Rauvolfia volkensii|Rauwolfia canescens|breadfruit

>  <collections>  (1031) 
Australian natural products|ChEBI NPs|KNApSaCK|Latin America dataset|NPEdia|Nat-UV DB|NuBBEDB|WikiData Natural Products

>  <dois>  (1031) 
10.1007/S11418-006-0048-0|10.1007/S11418-007-0153-8|10.1016/0031-9422(75)85372-6|10.1016/0031-9422(95)00442-A|10.1016/0378-8741(81)90022-2|10.1016/S0031-9422(00)82898-8|10.1016/S0031-9422(00)91046-X|10.1021/NP50014A009|10.1021/NP50029A018|10.1021/NP500734T|10.1021/np50014a009|10.1055/S-0028-1097272|10.1055/S-0028-1097468|10.1055/S-0028-1097576|10.1055/S-2006-962005|10.1076/PHBI.39.3.239.5923|10.1177/1934578X1200701109|10.1177/1934578X1200701110|10.3987/COM-89-5019

>  <synonyms>  (1031) 
(19.ALPHA.,20.ALPHA.)-16,17-DIDEHYDRO-10-METHOXY-19-METHYLOXAYOHIMBAN-16-CARBOXYLIC ACID METHYL ESTER|482-91-7|AC1L5K58|AKOS032948537|ARICINE [MI]|Aricin|BDBM50480269|C09037|CHEBI:2821|CHEMBL525626|CS-0148970|FS-9922|HY-N8720|Heterophylline|Heterophylline (Rauwolfia)|NSC72136|Oxayohimban-16-carboxylic acid, 16, 17-didehydro-10-methoxy-19-methyl-, methyl ester, (19.alpha., 20.alpha.)-|Q27105835|SCHEMBL17089219|aricine|methyl (1S,15S,16S,20S)-7-methoxy-16-methyl-17-oxa-3,13-diazapentacyclo[11.8.0.02,10.04,9.015,20]henicosa-2(10),4(9),5,7,18-pentaene-19-carboxylate

>  <cas>  (1031) 
482-91-7

$$$$

     RDKit          2D

 27 30  0  0  0  0  0  0  0  0999 V2000
    4.9414   -4.5955    0.0000 C   0  0  0  0  0  0  0  0  0  0  0  0
    4.7845   -3.1037    0.0000 C   0  0  0  0  0  0  0  0  0  0  0  0
    3.4141   -2.4938    0.0000 C   0  0  0  0  0  0  0  0  0  0  0  0
    3.2572   -1.0020    0.0000 C   0  0  0  0  0  0  0  0  0  0  0  0
    4.4706   -0.1202    0.0000 C   0  0  0  0  0  0  0  0  0  0  0  0
    5.8410   -0.7302    0.0000 O   0  0  0  0  0  0  0  0  0  0  0  0
    4.3137    1.3716    0.0000 C   0  0  0  0  0  0  0  0  0  0  0  0
    5.5271    2.2533    0.0000 O   0  0  0  0  0  0  0  0  0  0  0  0
    5.3702    3.7451    0.0000 C   0  0  0  0  0  0  0  0  0  0  0  0
    2.9433    1.9815    0.0000 C   0  0  0  0  0  0  0  0  0  0  0  0
    1.7299    1.0998    0.0000 C   0  0  0  0  0  0  0  0  0  0  0  0
    1.8868   -0.3920    0.0000 C   0  0  0  0  0  0  0  0  0  0  0  0
    0.5165   -1.0022    0.0000 O   0  0  0  0  0  0  0  0  0  0  0  0
   -0.4873    0.1124    0.0000 C   0  0  0  0  0  0  0  0  0  0  0  0
   -1.9790   -0.0445    0.0000 C   0  0  0  0  0  0  0  0  0  0  0  0
   -2.8608    1.1689    0.0000 C   0  0  0  0  0  0  0  0  0  0  0  0
   -4.3526    1.0120    0.0000 C   0  0  0  0  0  0  0  0  0  0  0  0
   -5.2344    2.2254    0.0000 O   0  0  0  0  0  0  0  0  0  0  0  0
   -4.6244    3.5958    0.0000 C   0  0  0  0  0  0  0  0  0  0  0  0
   -4.9626   -0.3584    0.0000 C   0  0  0  0  0  0  0  0  0  0  0  0
   -6.3891   -0.8221    0.0000 O   0  0  0  0  0  0  0  0  0  0  0  0
   -6.3890   -2.3221    0.0000 C   0  0  0  0  0  0  0  0  0  0  0  0
   -4.9624   -2.7855    0.0000 O   0  0  0  0  0  0  0  0  0  0  0  0
   -4.0808   -1.5718    0.0000 C   0  0  0  0  0  0  0  0  0  0  0  0
   -2.5890   -1.4149    0.0000 C   0  0  0  0  0  0  0  0  0  0  0  0
    0.2626    1.4115    0.0000 C   0  0  0  0  0  0  0  0  0  0  0  0
   -0.3476    2.7817    0.0000 C   0  0  0  0  0  0  0  0  0  0  0  0
  1  2  2  0
  2  3  1  0
  3  4  1  0
  4  5  2  0
  5  6  1  0
  5  7  1  0
  7  8  1  0
  8  9  1  0
  7 10  2  0
 10 11  1  0
 11 12  2  0
 12 13  1  0
 13 14  1  0
 14 15  1  1
 15 16  2  0
 16 17  1  0
 17 18  1  0
 18 19  1  0
 17 20  2  0
 20 21  1  0
 21 22  1  0
 22 23  1  0
 23 24  1  0
 24 25  2  0
 14 26  1  0
 26 27  1  1
 12  4  1  0
 25 15  1  0
 26 11  1  0
 24 20  1  0
M  END
>  <identifier>  (1032) 
CNP0176004.2

>  <canonical_smiles>  (1032) 
C=CCC1=C(O)C(OC)=CC2=C1O[C@@H](C1=CC(OC)=C3OCOC3=C1)[C@H]2C

>  <standard_inchi>  (1032) 
InChI=1S/C21H22O6/c1-5-6-13-18(22)15(23-3)9-14-11(2)19(27-20(13)14)12-7-16(24-4)21-17(8-12)25-10-26-21/h5,7-9,11,19,22H,1,6,10H2,2-4H3/t11-,19+/m0/s1

>  <standard_inchi_key>  (1032) 
CUHMKTJOBOYMIQ-JEOXALJRSA-N

>  <name>  (1032) 
nan

>  <iupac_name>  (1032) 
(2~{R},3~{S})-7-allyl-5-methoxy-2-(7-methoxy-1,3-benzodioxol-5-yl)-3-methyl-2,3-dihydrobenzofuran-6-ol

>  <annotation_level>  (1032) 
4

>  <total_atom_count>  (1032) 
49

>  <heavy_atom_count>  (1032) 
27

>  <molecular_weight>  (1032) 
370.4

>  <exact_molecular_weight>  (1032) 
370.14164

>  <molecular_formula>  (1032) 
C21H22O6

>  <alogp>  (1032) 
4.10

>  <topological_polar_surface_area>  (1032) 
66.38

>  <rotatable_bond_count>  (1032) 
5

>  <hydrogen_bond_acceptors>  (1032) 
6

>  <hydrogen_bond_donors>  (1032) 
1

>  <hydrogen_bond_acceptors_lipinski>  (1032) 
6

>  <hydrogen_bond_donors_lipinski>  (1032) 
1

>  <lipinski_rule_of_five_violations>  (1032) 
0

>  <aromatic_rings_count>  (1032) 
2

>  <qed_drug_likeliness>  (1032) 
0.80

>  <formal_charge>  (1032) 
0

>  <fractioncsp3>  (1032) 
0.33

>  <number_of_minimal_rings>  (1032) 
4

>  <van_der_walls_volume>  (1032) 
nan

>  <contains_sugar>  (1032) 
False

>  <contains_ring_sugars>  (1032) 
False

>  <contains_linear_sugars>  (1032) 
False

>  <murcko_framework>  (1032) 
O1c2ccc(cc2OC1)C3Oc4ccccc4C3

>  <np_likeness>  (1032) 
1.90

>  <chemical_class>  (1032) 
2-arylbenzofuran flavonoids

>  <chemical_sub_class>  (1032) 
2-arylbenzofuran flavonoids

>  <chemical_super_class>  (1032) 
Phenylpropanoids and polyketides

>  <direct_parent_classification>  (1032) 
2-arylbenzofuran flavonoids

>  <np_classifier_pathway>  (1032) 
Shikimates and Phenylpropanoids

>  <np_classifier_superclass>  (1032) 
Lignans

>  <np_classifier_class>  (1032) 
Neolignans

>  <np_classifier_is_glycoside>  (1032) 
False

>  <organisms>  (1032) 
Aniba|Aniba simulans

>  <collections>  (1032) 
Latin America dataset|NuBBEDB|WikiData Natural Products|ZINC NP

>  <dois>  (1032) 
10.1016/S0031-9422(00)89244-4

>  <synonyms>  (1032) 
(2R3S)-7-allyl-5-methoxy-2-(7-methoxybenzo[d][13]dioxol-5-yl)-3-methyl-23-dihydrobenzofuran-6-ol

>  <cas>  (1032) 
nan

$$$$

     RDKit          2D

 29 33  0  0  0  0  0  0  0  0999 V2000
   -7.3459   -2.4251    0.0000 C   0  0  0  0  0  0  0  0  0  0  0  0
   -7.2591   -0.9276    0.0000 C   0  0  0  0  0  0  0  0  0  0  0  0
   -8.5126   -0.1037    0.0000 C   0  0  0  0  0  0  0  0  0  0  0  0
   -5.9189   -0.2540    0.0000 C   0  0  0  0  0  0  0  0  0  0  0  0
   -4.5861   -0.9423    0.0000 C   0  0  0  0  0  0  0  0  0  0  0  0
   -3.5196    0.1125    0.0000 C   0  0  0  0  0  0  0  0  0  0  0  0
   -4.1932    1.4527    0.0000 C   0  0  0  0  0  0  0  0  0  0  0  0
   -3.3693    2.7062    0.0000 C   0  0  0  0  0  0  0  0  0  0  0  0
   -1.8718    2.6194    0.0000 C   0  0  0  0  0  0  0  0  0  0  0  0
   -1.1982    1.2792    0.0000 C   0  0  0  0  0  0  0  0  0  0  0  0
   -2.0221    0.0257    0.0000 C   0  0  0  0  0  0  0  0  0  0  0  0
   -1.3485   -1.3146    0.0000 O   0  0  0  0  0  0  0  0  0  0  0  0
    0.1490   -1.4013    0.0000 C   0  0  0  0  0  0  0  0  0  0  0  0
    0.8226   -2.7416    0.0000 C   0  0  0  0  0  0  0  0  0  0  0  0
    2.3200   -2.8283    0.0000 O   0  0  0  0  0  0  0  0  0  0  0  0
    3.1439   -1.5749    0.0000 C   0  0  0  0  0  0  0  0  0  0  0  0
    4.6414   -1.6616    0.0000 C   0  0  0  0  0  0  0  0  0  0  0  0
    5.4653   -0.4081    0.0000 C   0  0  0  0  0  0  0  0  0  0  0  0
    6.9628   -0.4949    0.0000 O   0  0  0  0  0  0  0  0  0  0  0  0
    7.6364   -1.8352    0.0000 C   0  0  0  0  0  0  0  0  0  0  0  0
    4.7917    0.9321    0.0000 C   0  0  0  0  0  0  0  0  0  0  0  0
    5.6156    2.1856    0.0000 O   0  0  0  0  0  0  0  0  0  0  0  0
    7.1131    2.0988    0.0000 C   0  0  0  0  0  0  0  0  0  0  0  0
    3.2942    1.0189    0.0000 C   0  0  0  0  0  0  0  0  0  0  0  0
    2.4703   -0.2346    0.0000 C   0  0  0  0  0  0  0  0  0  0  0  0
    0.9728   -0.1478    0.0000 C   0  0  0  0  0  0  0  0  0  0  0  0
    0.2992    1.1924    0.0000 C   0  0  0  0  0  0  0  0  0  0  0  0
    1.1231    2.4459    0.0000 O   0  0  0  0  0  0  0  0  0  0  0  0
   -5.6760    1.2262    0.0000 O   0  0  0  0  0  0  0  0  0  0  0  0
  1  2  2  0
  2  3  1  0
  4  2  1  6
  4  5  1  0
  5  6  1  0
  6  7  2  0
  7  8  1  0
  8  9  2  0
  9 10  1  0
 10 11  2  0
 11 12  1  0
 12 13  1  0
 13 14  1  1
 14 15  1  0
 15 16  1  0
 16 17  2  0
 17 18  1  0
 18 19  1  0
 19 20  1  0
 18 21  2  0
 21 22  1  0
 22 23  1  0
 21 24  1  0
 24 25  2  0
 25 26  1  0
 26 27  1  1
 27 28  2  0
  7 29  1  0
 29  4  1  0
 11  6  1  0
 26 13  1  0
 27 10  1  0
 25 16  1  0
M  END
>  <identifier>  (1033) 
CNP0370102.2

>  <canonical_smiles>  (1033) 
C=C(C)[C@H]1CC2=C(C=CC3=C2O[C@@H]2COC4=CC(OC)=C(OC)C=C4[C@@H]2C3=O)O1

>  <standard_inchi>  (1033) 
InChI=1S/C23H22O6/c1-11(2)16-8-14-15(28-16)6-5-12-22(24)21-13-7-18(25-3)19(26-4)9-17(13)27-10-20(21)29-23(12)14/h5-7,9,16,20-21H,1,8,10H2,2-4H3/t16-,20-,21+/m1/s1

>  <standard_inchi_key>  (1033) 
JUVIOZPCNVVQFO-HBGVWJBISA-N

>  <name>  (1033) 
rotenone

>  <iupac_name>  (1033) 
(1~{S},6~{R},13~{S})-6-isopropenyl-16,17-dimethoxy-2,7,20-trioxapentacyclo[11.8.0.0^{3,11}.0^{4,8}.0^{14,19}]henicosa-3(11),4(8),9,14,16,18-hexaen-12-one

>  <annotation_level>  (1033) 
5

>  <total_atom_count>  (1033) 
51

>  <heavy_atom_count>  (1033) 
29

>  <molecular_weight>  (1033) 
394.42

>  <exact_molecular_weight>  (1033) 
394.14164

>  <molecular_formula>  (1033) 
C23H22O6

>  <alogp>  (1033) 
3.70

>  <topological_polar_surface_area>  (1033) 
63.22

>  <rotatable_bond_count>  (1033) 
3

>  <hydrogen_bond_acceptors>  (1033) 
6

>  <hydrogen_bond_donors>  (1033) 
0

>  <hydrogen_bond_acceptors_lipinski>  (1033) 
6

>  <hydrogen_bond_donors_lipinski>  (1033) 
0

>  <lipinski_rule_of_five_violations>  (1033) 
0

>  <aromatic_rings_count>  (1033) 
2

>  <qed_drug_likeliness>  (1033) 
0.74

>  <formal_charge>  (1033) 
0

>  <fractioncsp3>  (1033) 
0.35

>  <number_of_minimal_rings>  (1033) 
5

>  <van_der_walls_volume>  (1033) 
346.08

>  <contains_sugar>  (1033) 
False

>  <contains_ring_sugars>  (1033) 
False

>  <contains_linear_sugars>  (1033) 
False

>  <murcko_framework>  (1033) 
O1c2ccc3c(OC4COc5ccccc5C4C3)c2CC1

>  <np_likeness>  (1033) 
1.84

>  <chemical_class>  (1033) 
Isoflavonoids

>  <chemical_sub_class>  (1033) 
Rotenoids

>  <chemical_super_class>  (1033) 
Phenylpropanoids and polyketides

>  <direct_parent_classification>  (1033) 
Rotenones

>  <np_classifier_pathway>  (1033) 
Shikimates and Phenylpropanoids

>  <np_classifier_superclass>  (1033) 
Isoflavonoids

>  <np_classifier_class>  (1033) 
Rotenoids

>  <np_classifier_is_glycoside>  (1033) 
False

>  <organisms>  (1033) 
Achillea cretica|Agaricus campestris|Allium macrostemon|Amorpha fruticosa|Antheroporum pierrei|Arabidopsis thaliana|Artabotrys hexapetalus|Artemisia igniaria|Calophyllum macrocarpum|Celsia roripifolia|Coelogyne elata|Cordia americana|Crotalaria paniculata|Cussonia bojeri|Dacus cucumis|Deguelia negrensis|Deguelia urucu|Derris|Derris Elliptica|Derris Trifoliata|Derris brevipes|Derris eclipta|Derris elliptica|Derris malaccensis|Derris montana|Derris trifoliata|Derris urucu|Didemnum moseleyi|Diplorhynchus condylocarpon|Enantia polycarpa|Erycibe expansa|Eupatorium riparium|Fascaplysinopsis reticulata|Geijera parviflora|Glycosmis montana|Goniothalamus giganteus|Hapalopilus rutilans|Hydrangea arborescens|Indigofera spicata|Isodon rubescens|Jatropha multifida|Leguminosae|Lemaireocereus thurberi|Lonchocarpus|Lonchocarpus chiricanus|Lonchocarpus heptaphyllus|Lonchocarpus nicou|Lonchocarpus salvadorensis|Lonchocarpus spp.|Lonchocarpus utilis|Lophostemon confertus|Milletia pachycarpa|Millettia|Millettia ferruginea|Millettia pachycarpa|Millettia pachyloba|Millettia pervilleana|Millettia reticulata|Millettia rubiginosa|Millettia spp.|Moneses uniflora|Mundulea chapelieri|Neorautanenia mitis|Oxalis corniculata|Pachyrhizus erosus|Pachyrhizus tuberosus|Pachyrrhizus erosus|Papilionoideae|Patrinia scabra|Pedicularis semitorta|Penicillium brevicompactum|Persea americana|Piscidia erythrina|Piscidia piscipula|Pogonolepis muelleriana|Psychotria rostrata|Sarcococca wallichii|Scopolia japonica|Scutellaria planipes|Siparuna apiosyce|Spatholobus parviflorus|Spiraea japonica|Swartzia schomburgkii|Tephrosia Purpurea|Tephrosia candida|Tephrosia cinerea|Tephrosia interrupta|Tephrosia interrupta Engl.|Tephrosia leiocarpa|Tephrosia linearis|Tephrosia linearis (Willd.) Pers.|Tephrosia macropoda|Tephrosia pentaphylla|Tephrosia procumbens|Tephrosia purpurea|Tephrosia spp.|Tephrosia strigosa|Tephrosia villosa|Tephrosia vogelii|Tricholoma panaeolum|Valeriana officinalis|Verbascum thapsus|Vincetoxicum nigrum|Xylopia aromatica|derris malaccensis plain

>  <collections>  (1033) 
ANPDB|AnalytiCon Discovery NPs|Australian natural products|CMAUP (cCollective molecular activities of useful plants)|ChEBI NPs|DrugBankNP|FooDB|KNApSaCK|Latin America dataset|Mitishamba database|NANPDB (Natural Products from Northern African Sources)|NCI DTP data|NPACT|NPASS|NPEdia|NuBBEDB|Super Natural II|TIPdb (database of Taiwan indigenous plants)|VietHerb|WikiData Natural Products

>  <dois>  (1033) 
10.1002/(SICI)1521-4168(19980901)21:9<513::AID-JHRC513>3.0.CO;2-F|10.1002/(sici)1521-4168(19980901)21:9<513::aid-jhrc513>3.0.co;2-f|10.1002/ARDP.19112490408|10.1002/HLCA.19570400604|10.1002/PTR.889|10.1007/BF03046638|10.1016/0031-9422(82)80103-9|10.1016/0031-9422(84)83047-2|10.1016/0031-9422(85)80019-4|10.1016/0031-9422(89)80308-5|10.1016/0031-9422(90)85212-X|10.1016/0031-9422(91)80129-O|10.1016/0031-9422(92)83161-Q|10.1016/0031-9422(92)83754-M|10.1016/J.NEURO.2013.04.006|10.1016/J.PHYTOCHEM.2005.02.005|10.1016/J.PHYTOCHEM.2006.01.002|10.1016/S0031-9422(00)80597-X|10.1016/S0031-9422(00)90838-0|10.1016/S0031-9422(00)98664-3|10.1016/S0031-9422(02)00078-X|10.1016/S0031-9422(02)00489-2|10.1016/S0031-9422(99)00098-9|10.1016/S0040-4020(01)93394-0|10.1016/S0040-4020(01)99121-5|10.1016/S0040-4039(01)83698-4|10.1016/j.bmc.2006.09.024|10.1016/j.phytochem.2012.02.025|10.1021/JA01225A061|10.1021/JA01232A015|10.1021/JA01331A506|10.1021/JA01583A039|10.1021/JF981188X|10.1021/NP000597W|10.1021/NP010126P|10.1021/NP0303815|10.1021/NP0303815.S001|10.1021/NP058070C|10.1021/NP100763P|10.1021/NP50044A013|10.1021/acs.jnatprod.6b00809|10.1021/jf058075f|10.1021/np000597w|10.1021/np010126p|10.1021/np0303815|10.1021/np058070c|10.1021/np100763p|10.1021/np400567c|10.1021/np50118a008|10.1021/np970438l|10.1021/np9800304|10.1038/1371075A0|10.1039/C39880001085|10.1039/P19870002723|10.1039/P19920000851|10.1055/S-0030-1249834|10.1055/S-2004-815447|10.1055/S-2006-962679|10.1073/PNAS.95.7.3380|10.1080/00021369.1980.10864439|10.1080/14786419.2014.939081|10.1111/PCE.12248|10.1139/V07-120|10.1248/CPB.54.1530|10.1248/YAKUSHI1881.1923.491_10|10.1248/cpb.54.1530|10.1515/ZNC-1989-11-1205|10.1515/ZNC-1990-3-403|10.1590/1809-43921976061059

>  <synonyms>  (1033) 
(-)-Rotenone|(-)-cis-Rotenone|(1)Benzopyrano(3,4-b)furo(2,3-h)(1)benzopyran-6(6aH)-one, 1,2,12,12a-tetrahydro-2-alpha-isopropenyl-8,9-dimethoxy-|(1)Benzopyrano(3,4-b)furo(2,3-h)(1)benzopyran-6(6aH)-one, 1,2,12,12a-tetrahydro-8,9-dimethoxy-2-(1-methylethenyl)-, (2R-(2alpha,6aalpha,12aalpha))-|(12aS,6aS,2R)-8,9-dimethoxy-2-(1-methylvinyl)-1,2-dihydrochromano[3,4-b]furano [2,3-h]chroman-6-one|(19R,20S,21S)-19-isopropenyl-15,16-dimethoxy-25,26,27-trioxapentacyclo|(1S,6R,13S)-16,17-dimethoxy-6-prop-1-en-2-yl-2,7,20-trioxapentacyclo[11.8.0.03,11.04,8.014,19]henicosa-3(11),4(8),9,14,16,18-hexaen-12-one|(2R,6AS,12AS)-1,2,12,12A-TETRAHYDRO-8,9-DIMETHOXY-2-(1-METHYLETHENYL)(1)BENZOPYRANO(3,4-B)FURO(2,3-H)(1)BENZOPYRAN-6(6AH)-ONE|(2R,6aS,12aS)-1,2,12,12a-Tetrahydro-8,9-dimethoxy-2-(1-methylethenyl)-[1]benzopyrano[3,4-b]furo[2,3-h][1]benzopyran-6(6aH)-one|(2R,6aS,12aS)-1,2,6,6a,12,12a-hexahydro-2-isopropenyl-8,9-dimethoxychromeno(3,4-b)furo(2,3-h)chromen-6-one|(2R,6aS,12aS)-2-isopropenyl-8,9-dimethoxy-1,2,12,12a-tetrahydrochromeno[3,4-b]furo[2,3-h]chromen-6(6aH)-one|(2R,6aS,12aS)-8,9-Dimethoxy-2-(prop-1-en-2-yl)-1,2,12,12a-tetrahydrofuro[2',3':7,8][1]benzopyrano[2,3-c][1]benzopyran-6(6aH)-one|(2R,6aS,12aS)-8,9-dimethoxy-2-(prop-1-en-2-yl)-1,2,12,12a-tetrahydrochromeno[3,4-b]furo[2,3-h]chromen-6(6aH)-one|(2R-(2alpha,6aalpha,12aalpha))-1,2,12,12a-Tetrahydro-8,9-dimethoxy-2-(1-methylethenyl)(1)benzopyrano(3,4-b)furo(2,3-h)benzopyran-6(6aH)-one|(2R-(6aalpha,12aalpha)-1,2-Dihydro-2-isopropenyl-8,9-dimethoxychromano(3,4-b)furo(2,3-h)chroman-6-on|03L9OT429T|1,2,12,12a-Tetrahydro-8,9-dimethoxy-2-(1-methylethenyl)-(1)benzopyrano(3,4-b)furo(2,3-h)(1)benzopyran-6(6aH)-one|1,2,12,12aalpha-Tetrahydro-2a-isopropenyl-8,9-dimethoxy(1)benzopyrano(3,4-b)furo(2,3-h)(1)benzopyran-6(6aH)-one|5''beta-rotenone|5'-beta-Rotenone|5'b-Rotenone|83-79-4|AC-31290|AI3-00133|AKOS004910398|AS-10183|BCP07278|BDBM50135527|BRD-K08316444-001-01-9|BSPBio_001896|Barbasco|C07593|C23H22O6|CAS-83-79-4|CCG-39886|CCRIS 895|CHEBI:28201|CHEMBL429023|CS-6067|CUBE|Canex|Caswell No. 725|Cenol garden dust|Chem-Mite|Cube-Pulver|Cubor|Curex flea duster|DB11457|DTXCID901248|DTXSID6021248|Dactinol|Deril|Derrin|Derris|Derris (insecticide)|Derris resins|Derris, JMAF|DivK1c_000947|Dri-Kil|EINECS 201-501-9|ENT 133|EPA Pesticide Chemical Code 071003|EU-0101112|Extrax|Foliafume E.C.|Gerane|Green Cross Warble Powder|HB5398|HMS3263O06|HMS502P09|HSDB 1762|HY-B1756|Haiari|IDI1_000947|KBio1_000947|KBio2_000465|KBio2_003033|KBio2_005601|KBio3_001116|KBioGR_002075|KBioSS_000465|LMPK12060007|LP01112|Liquid Derris|Lopac0_001112|MFCD09025614|MLS000738056|Mexide|NCGC00017358-05|NCGC00017358-11|NCGC00017358-22|NCGC00094382-01|NCGC00254603-01|NCGC00259453-01|NCGC00261797-01|NCI-C55210|NCI60_002093|NINDS_000947|NS00007117|NSC26258|NSC8505|Nekoe|Nicouline|Noxfire|Paraderil|Pb-nox|Prentox|Prestwick_542|Protax|Q412388|R 8875|R0090|ROTENONE [GREEN BOOK]|ROTENONE [HSDB]|ROTENONE [ISO]|ROTENONE [MART.]|ROTENONE [MI]|Ro-Ko|Ronone|Rotacide E.C.|Rotefive|Rotefour|Rotenoid|Rotenon|Rotenona [Spanish]|Rotenone (7CI)|Rotenone 100 microg\/mL in Acetonitrile|Rotenone [BSI:ISO]|Rotenone, >=95%|Rotenone, PESTANAL(R), analytical standard|Rotenone, commercial|Rotenone, dehydro|Rotenox|Rotenox 5EC|Roteonone|Rotessenol|Rotocide|SCHEMBL42253|SDCCGMLS-0066415.P001|SDCCGSBI-0051081.P003|SMR000393729|SPBio_000534|SPECTRUM200013|SR-01000076110|Spectrum2_000457|Spectrum3_000158|Spectrum4_001638|Spectrum5_000455|Spectrum_000065|Synpren|TNP00301|Tox21_110819|Tox21_201904|Tox21_300695|Tox21_501112|Tubatoxin|Tubotoxin|UNII-03L9OT429T|W-104134|WLN: T G5 D6 B666 CV HO MO POT&TT&J IY1&U1 SO1 TO1|[1]Benzopyrano[3,3-h][1]benzopyran-6(6a.alpha.H)-one, 1,2,12,12a.alpha.-tetrahydro-2.alpha.-isopropenyl-8,9-dimethoxy-|[1]Benzopyrano[3,3-h][1]benzopyran-6(6aH)-one, 1,2,12,12a-tetrahydro-8,9-dimethoxy-2-(1-methylethenyl)-, [2R-(2.alpha.,6a.alpha.,12a.alpha.)]-|[1]Benzopyrano[3,4-b]furo[2,3-h][1]benzopyran-6(6aH)-one, 1,2,12,12a-tetrahydro-8,9-dimethoxy-2-(1-methylethenyl)-, (2R,6aS,12aS)-|inhibits NADH2 oxidation to NAD|isopropenyl(dimethoxy)[?]one|rotenone

>  <cas>  (1033) 
83-79-4

$$$$

     RDKit          2D

 17 17  0  0  0  0  0  0  0  0999 V2000
    2.2360   -3.6432    0.0000 C   0  0  0  0  0  0  0  0  0  0  0  0
    2.6776   -2.2096    0.0000 O   0  0  0  0  0  0  0  0  0  0  0  0
    1.6569   -1.1105    0.0000 C   0  0  0  0  0  0  0  0  0  0  0  0
    0.1946   -1.4448    0.0000 C   0  0  0  0  0  0  0  0  0  0  0  0
   -0.8261   -0.3457    0.0000 C   0  0  0  0  0  0  0  0  0  0  0  0
   -2.2883   -0.6800    0.0000 C   0  0  0  0  0  0  0  0  0  0  0  0
   -3.3090    0.4191    0.0000 C   0  0  0  0  0  0  0  0  0  0  0  0
   -4.7713    0.0848    0.0000 C   0  0  0  0  0  0  0  0  0  0  0  0
   -5.2129   -1.3488    0.0000 O   0  0  0  0  0  0  0  0  0  0  0  0
   -5.7920    1.1839    0.0000 O   0  0  0  0  0  0  0  0  0  0  0  0
   -0.3845    1.0879    0.0000 C   0  0  0  0  0  0  0  0  0  0  0  0
    1.0777    1.4222    0.0000 C   0  0  0  0  0  0  0  0  0  0  0  0
    1.5193    2.8558    0.0000 O   0  0  0  0  0  0  0  0  0  0  0  0
    2.9815    3.1901    0.0000 C   0  0  0  0  0  0  0  0  0  0  0  0
    2.0984    0.3231    0.0000 C   0  0  0  0  0  0  0  0  0  0  0  0
    3.5607    0.6574    0.0000 O   0  0  0  0  0  0  0  0  0  0  0  0
    4.5814   -0.4417    0.0000 C   0  0  0  0  0  0  0  0  0  0  0  0
  1  2  1  0
  2  3  1  0
  3  4  2  0
  4  5  1  0
  5  6  1  0
  6  7  1  0
  7  8  1  0
  8  9  2  0
  8 10  1  0
  5 11  2  0
 11 12  1  0
 12 13  1  0
 13 14  1  0
 12 15  2  0
 15 16  1  0
 16 17  1  0
 15  3  1  0
M  END
>  <identifier>  (1034) 
CNP0423577.0

>  <canonical_smiles>  (1034) 
COC1=CC(CCC(=O)O)=CC(OC)=C1OC

>  <standard_inchi>  (1034) 
InChI=1S/C12H16O5/c1-15-9-6-8(4-5-11(13)14)7-10(16-2)12(9)17-3/h6-7H,4-5H2,1-3H3,(H,13,14)

>  <standard_inchi_key>  (1034) 
ZCYXGVJUZBKJAI-UHFFFAOYSA-N

>  <name>  (1034) 
25173-72-2

>  <iupac_name>  (1034) 
3-(3,4,5-trimethoxyphenyl)propanoic acid

>  <annotation_level>  (1034) 
5

>  <total_atom_count>  (1034) 
33

>  <heavy_atom_count>  (1034) 
17

>  <molecular_weight>  (1034) 
240.25

>  <exact_molecular_weight>  (1034) 
240.09977

>  <molecular_formula>  (1034) 
C12H16O5

>  <alogp>  (1034) 
1.73

>  <topological_polar_surface_area>  (1034) 
64.99

>  <rotatable_bond_count>  (1034) 
6

>  <hydrogen_bond_acceptors>  (1034) 
4

>  <hydrogen_bond_donors>  (1034) 
1

>  <hydrogen_bond_acceptors_lipinski>  (1034) 
4

>  <hydrogen_bond_donors_lipinski>  (1034) 
1

>  <lipinski_rule_of_five_violations>  (1034) 
0

>  <aromatic_rings_count>  (1034) 
1

>  <qed_drug_likeliness>  (1034) 
0.82

>  <formal_charge>  (1034) 
0

>  <fractioncsp3>  (1034) 
0.42

>  <number_of_minimal_rings>  (1034) 
1

>  <van_der_walls_volume>  (1034) 
222.08

>  <contains_sugar>  (1034) 
False

>  <contains_ring_sugars>  (1034) 
False

>  <contains_linear_sugars>  (1034) 
False

>  <murcko_framework>  (1034) 
c1ccccc1

>  <np_likeness>  (1034) 
0.49

>  <chemical_class>  (1034) 
Phenylpropanoic acids

>  <chemical_sub_class>  (1034) 
Phenylpropanoic acids

>  <chemical_super_class>  (1034) 
Phenylpropanoids and polyketides

>  <direct_parent_classification>  (1034) 
Phenylpropanoic acids

>  <np_classifier_pathway>  (1034) 
nan

>  <np_classifier_superclass>  (1034) 
nan

>  <np_classifier_class>  (1034) 
nan

>  <np_classifier_is_glycoside>  (1034) 
False

>  <organisms>  (1034) 
Homo sapiens|Piper crassinervium|Piper longum|Piper retrofractum|piper sp.

>  <collections>  (1034) 
AnalytiCon Discovery NPs|ChemSpider NPs|HIM (Herbal Ingredients in-vivo Metabolism database)|InterBioScreen Ltd|Latin America dataset|NPASS|NuBBEDB|Super Natural II|TCMDB-Taiwan (Traditional Chinese Medicine database)|TCMID (Traditional Chinese Medicine Integrated Database)|UNPD (Universal Natural Products Database)|WikiData Natural Products

>  <dois>  (1034) 
10.1016/S0031-9422(01)00364-8|10.1021/NP030530J|10.1021/np030530j|10.1055/S-2006-957982

>  <synonyms>  (1034) 
3,4,5-Trimethoxyphenylpropionic acid|3,4,5-trimethoxy-benzenepropanoic acid|3,4,5-trimethoxydihydrocinnamic acid|3-(3',4',5'-trimethoxyphenyl)propionic acid|3-(3,4,5-Trimethoxyphenyl)propanoic acid|3-(3,4,5-Trimethoxyphenyl)propionic acid, >=98%|A817683|ACon1_001226|AI3-38431|AKOS000119417|BBL003400|BRD-K95734889-001-01-9|Benzenepropanoic acid, 3,4,5-trimethoxy-|CCG-52269|CHEBI:583580|CHEMBL484645|CS-0041622|D78077|DB-021607|DS-6653|DTXSID60179842|EINECS 246-706-4|EN300-17346|HMS558G18|HY-W022390|InChI=1\/C12H16O5\/c1-15-9-6-8(4-5-11(13)14)7-10(16-2)12(9)17-3\/h6-7H,4-5H2,1-3H3,(H,13,14|J-015850|MEGxp0_002067|MFCD00002775|Maybridge1_005958|NCGC00169556-01|NCGC00169556-02!3-(3,4,5-trimethoxyphenyl)propanoic acid|NS00027824|NSC169988|Oprea1_083965|PD099450|Q27225779|SCHEMBL429622|SR-01000641513-1|STK803112|SY109418|Z56922108|beta -(3,4,5-Trimethoxy phenyl)propionic acid

>  <cas>  (1034) 
25173-72-2

$$$$

     RDKit          2D

 26 30  0  0  0  0  0  0  0  0999 V2000
   -4.3588    3.2623    0.0000 C   0  0  0  0  0  0  0  0  0  0  0  0
   -4.0147    1.8023    0.0000 C   0  0  0  0  0  0  0  0  0  0  0  0
   -5.1070    0.7743    0.0000 O   0  0  0  0  0  0  0  0  0  0  0  0
   -4.7629   -0.6857    0.0000 C   0  0  0  0  0  0  0  0  0  0  0  0
   -3.3264   -1.1177    0.0000 C   0  0  0  0  0  0  0  0  0  0  0  0
   -2.9823   -2.5777    0.0000 C   0  0  0  0  0  0  0  0  0  0  0  0
   -1.5458   -3.0096    0.0000 O   0  0  0  0  0  0  0  0  0  0  0  0
   -4.0746   -3.6057    0.0000 O   0  0  0  0  0  0  0  0  0  0  0  0
   -2.2341   -0.0897    0.0000 C   0  0  0  0  0  0  0  0  0  0  0  0
   -0.7976   -0.5216    0.0000 C   0  0  0  0  0  0  0  0  0  0  0  0
    0.2947    0.5064    0.0000 C   0  0  0  0  0  0  0  0  0  0  0  0
   -0.0494    1.9664    0.0000 N   0  0  0  0  0  0  0  0  0  0  0  0
    1.2328    2.7448    0.0000 C   0  0  0  0  0  0  0  0  0  0  0  0
    2.3693    1.7659    0.0000 C   0  0  0  0  0  0  0  0  0  0  0  0
    1.7896    0.3825    0.0000 C   0  0  0  0  0  0  0  0  0  0  0  0
    1.2098   -1.0009    0.0000 C   0  0  0  0  0  0  0  0  0  0  0  0
   -0.2502   -1.3451    0.0000 O   0  0  0  0  0  0  0  0  0  0  0  0
    2.3464   -1.9798    0.0000 N   0  0  0  0  0  0  0  0  0  0  0  0
    3.6286   -1.2014    0.0000 C   0  0  0  0  0  0  0  0  0  0  0  0
    5.0650   -1.6333    0.0000 C   0  0  0  0  0  0  0  0  0  0  0  0
    6.1574   -0.6053    0.0000 C   0  0  0  0  0  0  0  0  0  0  0  0
    5.8132    0.8547    0.0000 C   0  0  0  0  0  0  0  0  0  0  0  0
    4.3768    1.2866    0.0000 C   0  0  0  0  0  0  0  0  0  0  0  0
    3.2844    0.2586    0.0000 C   0  0  0  0  0  0  0  0  0  0  0  0
   -1.4859    2.3983    0.0000 C   0  0  0  0  0  0  0  0  0  0  0  0
   -2.5782    1.3703    0.0000 C   0  0  0  0  0  0  0  0  0  0  0  0
  2  1  1  1
  2  3  1  0
  3  4  1  0
  4  5  2  0
  5  6  1  0
  6  7  2  0
  6  8  1  0
  5  9  1  0
  9 10  1  6
 11 10  1  6
 11 12  1  0
 12 13  1  0
 13 14  1  0
 15 14  1  1
 15 16  1  0
 16 17  2  0
 16 18  1  0
 18 19  1  0
 19 20  2  0
 20 21  1  0
 21 22  2  0
 22 23  1  0
 23 24  2  0
 12 25  1  0
 26 25  1  1
 26  2  1  0
 26  9  1  0
 15 11  1  0
 24 19  1  0
 24 15  1  0
M  END
>  <identifier>  (1035) 
CNP0184005.1

>  <canonical_smiles>  (1035) 
C[C@@H]1OC=C(C(=O)O)[C@H]2C[C@@H]3N(CC[C@@]34C(=O)NC3=CC=CC=C34)C[C@H]12

>  <standard_inchi>  (1035) 
InChI=1S/C20H22N2O4/c1-11-13-9-22-7-6-20(15-4-2-3-5-16(15)21-19(20)25)17(22)8-12(13)14(10-26-11)18(23)24/h2-5,10-13,17H,6-9H2,1H3,(H,21,25)(H,23,24)/t11-,12-,13+,17-,20-/m0/s1

>  <standard_inchi_key>  (1035) 
BLXUPISDXRFTCK-KXJMRVCNSA-N

>  <name>  (1035) 
nan

>  <iupac_name>  (1035) 
(1~{S},4~{a}~{S},5~{a}~{S},6~{S},10~{a}~{R})-1-methyl-2'-oxo-spiro[1,4~{a},5,5~{a},7,8,10,10~{a}-octahydropyrano[3,4-f]indolizine-6,3'-indoline]-4-carboxylic acid

>  <annotation_level>  (1035) 
5

>  <total_atom_count>  (1035) 
48

>  <heavy_atom_count>  (1035) 
26

>  <molecular_weight>  (1035) 
354.41

>  <exact_molecular_weight>  (1035) 
354.15796

>  <molecular_formula>  (1035) 
C20H22N2O4

>  <alogp>  (1035) 
1.97

>  <topological_polar_surface_area>  (1035) 
78.87

>  <rotatable_bond_count>  (1035) 
1

>  <hydrogen_bond_acceptors>  (1035) 
4

>  <hydrogen_bond_donors>  (1035) 
2

>  <hydrogen_bond_acceptors_lipinski>  (1035) 
4

>  <hydrogen_bond_donors_lipinski>  (1035) 
2

>  <lipinski_rule_of_five_violations>  (1035) 
0

>  <aromatic_rings_count>  (1035) 
1

>  <qed_drug_likeliness>  (1035) 
0.81

>  <formal_charge>  (1035) 
0

>  <fractioncsp3>  (1035) 
0.50

>  <number_of_minimal_rings>  (1035) 
5

>  <van_der_walls_volume>  (1035) 
313.76

>  <contains_sugar>  (1035) 
False

>  <contains_ring_sugars>  (1035) 
False

>  <contains_linear_sugars>  (1035) 
False

>  <murcko_framework>  (1035) 
O1C=CC2CC3N(CCC43c5ccccc5NC4)CC2C1

>  <np_likeness>  (1035) 
2.03

>  <chemical_class>  (1035) 
Indoles and derivatives

>  <chemical_sub_class>  (1035) 
Indoles

>  <chemical_super_class>  (1035) 
Organoheterocyclic compounds

>  <direct_parent_classification>  (1035) 
Indoles

>  <np_classifier_pathway>  (1035) 
Alkaloids

>  <np_classifier_superclass>  (1035) 
Tryptophan alkaloids

>  <np_classifier_class>  (1035) 
Corynanthe type

>  <np_classifier_is_glycoside>  (1035) 
False

>  <organisms>  (1035) 
Uncaria guianensis|Uncaria sinensis

>  <collections>  (1035) 
ChemSpider NPs|Latin America dataset|NuBBEDB|Super Natural II|TCMDB-Taiwan (Traditional Chinese Medicine database)|WikiData Natural Products|ZINC NP

>  <dois>  (1035) 
10.1016/0031-9422(93)85478-A|10.1590/S0100-40422004000600007

>  <synonyms>  (1035) 
Isomitraphylinic acid

>  <cas>  (1035) 
nan

$$$$

     RDKit          2D

 30 33  0  0  0  0  0  0  0  0999 V2000
    2.6048    5.6981    0.0000 C   0  0  0  0  0  0  0  0  0  0  0  0
    2.8588    4.2197    0.0000 C   0  0  0  0  0  0  0  0  0  0  0  0
    1.7054    3.2606    0.0000 C   0  0  0  0  0  0  0  0  0  0  0  0
    1.9594    1.7823    0.0000 C   0  0  0  0  0  0  0  0  0  0  0  0
    3.3667    1.2631    0.0000 C   0  0  0  0  0  0  0  0  0  0  0  0
    3.6206   -0.2153    0.0000 C   0  0  0  0  0  0  0  0  0  0  0  0
    5.0279   -0.7345    0.0000 O   0  0  0  0  0  0  0  0  0  0  0  0
    5.2819   -2.2129    0.0000 C   0  0  0  0  0  0  0  0  0  0  0  0
    2.4673   -1.1744    0.0000 C   0  0  0  0  0  0  0  0  0  0  0  0
    2.7213   -2.6527    0.0000 O   0  0  0  0  0  0  0  0  0  0  0  0
    1.5680   -3.6119    0.0000 C   0  0  0  0  0  0  0  0  0  0  0  0
    1.8220   -5.0902    0.0000 C   0  0  0  0  0  0  0  0  0  0  0  0
    0.1607   -3.0926    0.0000 O   0  0  0  0  0  0  0  0  0  0  0  0
    1.0601   -0.6552    0.0000 C   0  0  0  0  0  0  0  0  0  0  0  0
   -0.0932   -1.6143    0.0000 O   0  0  0  0  0  0  0  0  0  0  0  0
   -1.0715   -1.5072    0.0000 C   0  0  0  0  0  0  0  0  0  0  0  0
    0.8061    0.8232    0.0000 C   0  0  0  0  0  0  0  0  0  0  0  0
   -0.6012    1.3424    0.0000 O   0  0  0  0  0  0  0  0  0  0  0  0
   -0.0587    0.4340    0.0000 C   0  0  0  0  0  0  0  0  0  0  0  0
   -1.5024    0.0269    0.0000 C   0  0  0  0  0  0  0  0  0  0  0  0
   -1.8717   -1.4270    0.0000 C   0  0  0  0  0  0  0  0  0  0  0  0
   -3.3154   -1.8341    0.0000 C   0  0  0  0  0  0  0  0  0  0  0  0
   -4.3898   -0.7873    0.0000 C   0  0  0  0  0  0  0  0  0  0  0  0
   -5.8866   -0.8854    0.0000 O   0  0  0  0  0  0  0  0  0  0  0  0
   -6.4423    0.5079    0.0000 C   0  0  0  0  0  0  0  0  0  0  0  0
   -5.2890    1.4670    0.0000 O   0  0  0  0  0  0  0  0  0  0  0  0
   -4.0205    0.6665    0.0000 C   0  0  0  0  0  0  0  0  0  0  0  0
   -2.5768    1.0736    0.0000 C   0  0  0  0  0  0  0  0  0  0  0  0
    0.4606    1.8412    0.0000 C   0  0  0  0  0  0  0  0  0  0  0  0
   -0.3727    3.0885    0.0000 C   0  0  0  0  0  0  0  0  0  0  0  0
  1  2  2  0
  2  3  1  0
  4  3  1  1
  4  5  1  0
  5  6  2  0
  6  7  1  0
  7  8  1  0
  6  9  1  0
  9 10  1  6
 10 11  1  0
 11 12  1  0
 11 13  2  0
  9 14  1  0
 14 15  1  1
 15 16  1  0
 14 17  1  0
 17 18  1  0
 14 19  1  0
 19 20  1  1
 20 21  2  0
 21 22  1  0
 22 23  2  0
 23 24  1  0
 24 25  1  0
 25 26  1  0
 26 27  1  0
 27 28  2  0
 19 29  1  0
 29 30  1  6
 17  4  1  0
 28 20  1  0
 29  4  1  0
 27 23  1  0
M  END
>  <identifier>  (1036) 
CNP0398174.1

>  <canonical_smiles>  (1036) 
C=CC[C@@]12C=C(OC)[C@H](OC(C)=O)[C@@](OC)(C1O)[C@@H](C1=CC=C3OCOC3=C1)[C@@H]2C

>  <standard_inchi>  (1036) 
InChI=1S/C23H28O7/c1-6-9-22-11-18(26-4)20(30-14(3)24)23(27-5,21(22)25)19(13(22)2)15-7-8-16-17(10-15)29-12-28-16/h6-8,10-11,13,19-21,25H,1,9,12H2,2-5H3/t13-,19+,20-,21?,22-,23+/m0/s1

>  <standard_inchi_key>  (1036) 
ONMNNFHHDGPQPH-YECKTGRQSA-N

>  <name>  (1036) 
nan

>  <iupac_name>  (1036) 
[(1~{S},2~{S},5~{R},6~{S},7~{R})-5-allyl-7-(1,3-benzodioxol-5-yl)-8-hydroxy-1,3-dimethoxy-6-methyl-2-bicyclo[3.2.1]oct-3-enyl] acetate

>  <annotation_level>  (1036) 
4

>  <total_atom_count>  (1036) 
58

>  <heavy_atom_count>  (1036) 
30

>  <molecular_weight>  (1036) 
416.47

>  <exact_molecular_weight>  (1036) 
416.1835

>  <molecular_formula>  (1036) 
C23H28O7

>  <alogp>  (1036) 
2.93

>  <topological_polar_surface_area>  (1036) 
83.45

>  <rotatable_bond_count>  (1036) 
6

>  <hydrogen_bond_acceptors>  (1036) 
7

>  <hydrogen_bond_donors>  (1036) 
1

>  <hydrogen_bond_acceptors_lipinski>  (1036) 
7

>  <hydrogen_bond_donors_lipinski>  (1036) 
1

>  <lipinski_rule_of_five_violations>  (1036) 
0

>  <aromatic_rings_count>  (1036) 
1

>  <qed_drug_likeliness>  (1036) 
0.56

>  <formal_charge>  (1036) 
0

>  <fractioncsp3>  (1036) 
0.52

>  <number_of_minimal_rings>  (1036) 
4

>  <van_der_walls_volume>  (1036) 
nan

>  <contains_sugar>  (1036) 
False

>  <contains_ring_sugars>  (1036) 
False

>  <contains_linear_sugars>  (1036) 
False

>  <murcko_framework>  (1036) 
O1c2ccc(cc2OC1)C3CC4C=CCC3C4

>  <np_likeness>  (1036) 
1.97

>  <chemical_class>  (1036) 
Benzodioxoles

>  <chemical_sub_class>  (1036) 
Benzodioxoles

>  <chemical_super_class>  (1036) 
Organoheterocyclic compounds

>  <direct_parent_classification>  (1036) 
Benzodioxoles

>  <np_classifier_pathway>  (1036) 
Shikimates and Phenylpropanoids

>  <np_classifier_superclass>  (1036) 
Lignans

>  <np_classifier_class>  (1036) 
Neolignans

>  <np_classifier_is_glycoside>  (1036) 
False

>  <organisms>  (1036) 
Ocotea catharinensis

>  <collections>  (1036) 
Latin America dataset|NuBBEDB|WikiData Natural Products

>  <dois>  (1036) 
10.1016/0031-9422(83)83046-5|10.1016/0031-9422(91)83479-5

>  <synonyms>  (1036) 
rel-(7R8S1'R2'R3'S4'S)-D-2'-Dihydroxy-4'-acetate-3'5'-dimethoxy-34-methylenedioxy-1'2'3'4'-tetrahydro-73'81'-neolignan

>  <cas>  (1036) 
nan

$$$$

     RDKit          2D

 25 28  0  0  0  0  0  0  0  0999 V2000
    3.7530   -1.4354    0.0000 C   0  0  0  0  0  0  0  0  0  0  0  0
    3.8058    0.0637    0.0000 C   0  0  0  0  0  0  0  0  0  0  0  0
    5.2730   -0.2487    0.0000 C   0  0  0  0  0  0  0  0  0  0  0  0
    4.3682    1.4543    0.0000 C   0  0  0  0  0  0  0  0  0  0  0  0
    3.4452    2.6366    0.0000 C   0  0  0  0  0  0  0  0  0  0  0  0
    1.9597    2.4284    0.0000 C   0  0  0  0  0  0  0  0  0  0  0  0
    1.3973    1.0378    0.0000 C   0  0  0  0  0  0  0  0  0  0  0  0
    0.4742    2.2201    0.0000 C   0  0  0  0  0  0  0  0  0  0  0  0
   -0.0882    0.8295    0.0000 C   0  0  0  0  0  0  0  0  0  0  0  0
   -1.0113    2.0119    0.0000 C   0  0  0  0  0  0  0  0  0  0  0  0
   -2.4967    1.8036    0.0000 C   0  0  0  0  0  0  0  0  0  0  0  0
   -3.0591    0.4131    0.0000 C   0  0  0  0  0  0  0  0  0  0  0  0
   -4.5554    0.5182    0.0000 C   0  0  0  0  0  0  0  0  0  0  0  0
   -4.9178    1.9738    0.0000 C   0  0  0  0  0  0  0  0  0  0  0  0
   -3.6455    2.7682    0.0000 O   0  0  0  0  0  0  0  0  0  0  0  0
   -2.1361   -0.7693    0.0000 C   0  0  0  0  0  0  0  0  0  0  0  0
   -2.6985   -2.1599    0.0000 C   0  0  0  0  0  0  0  0  0  0  0  0
   -1.7754   -3.3422    0.0000 O   0  0  0  0  0  0  0  0  0  0  0  0
   -4.1839   -2.3681    0.0000 O   0  0  0  0  0  0  0  0  0  0  0  0
   -0.6506   -0.5610    0.0000 C   0  0  0  0  0  0  0  0  0  0  0  0
    0.2725   -1.7434    0.0000 C   0  0  0  0  0  0  0  0  0  0  0  0
   -0.2899   -3.1340    0.0000 O   0  0  0  0  0  0  0  0  0  0  0  0
    1.7580   -1.5351    0.0000 C   0  0  0  0  0  0  0  0  0  0  0  0
    2.6811   -2.7175    0.0000 O   0  0  0  0  0  0  0  0  0  0  0  0
    2.3204   -0.1446    0.0000 C   0  0  0  0  0  0  0  0  0  0  0  0
  1  2  1  0
  2  3  1  0
  2  4  1  0
  4  5  1  0
  5  6  1  0
  6  7  1  0
  7  8  1  6
  7  9  1  0
  9 10  1  6
 10 11  1  0
 11 12  2  0
 12 13  1  0
 13 14  2  0
 14 15  1  0
 12 16  1  0
 16 17  1  6
 17 18  2  0
 17 19  1  0
 20 16  1  1
 20 21  1  0
 21 22  1  6
 21 23  1  0
 23 24  1  1
 23 25  1  0
 25  2  1  6
 25  7  1  0
 20  9  1  0
 15 11  1  0
M  END
>  <identifier>  (1037) 
CNP0249589.1

>  <canonical_smiles>  (1037) 
CC1(C)CCC[C@]2(C)[C@H]3CC4=C(C=CO4)[C@@H](C(=O)O)[C@@H]3[C@@H](O)[C@H](O)[C@@H]12

>  <standard_inchi>  (1037) 
InChI=1S/C20H28O5/c1-19(2)6-4-7-20(3)11-9-12-10(5-8-25-12)13(18(23)24)14(11)15(21)16(22)17(19)20/h5,8,11,13-17,21-22H,4,6-7,9H2,1-3H3,(H,23,24)/t11-,13+,14+,15+,16-,17-,20+/m0/s1

>  <standard_inchi_key>  (1037) 
GHQBUKANOGSFQS-WENPLGDPSA-N

>  <name>  (1037) 
40819-81-6

>  <iupac_name>  (1037) 
(4~{a}~{S},5~{R},6~{R},6~{a}~{R},7~{S},11~{a}~{S},11~{b}~{R})-5,6-dihydroxy-4,4,11~{b}-trimethyl-1,2,3,4~{a},5,6,6~{a},7,11,11~{a}-decahydronaphtho[2,1-f]benzofuran-7-carboxylic acid

>  <annotation_level>  (1037) 
5

>  <total_atom_count>  (1037) 
53

>  <heavy_atom_count>  (1037) 
25

>  <molecular_weight>  (1037) 
348.44

>  <exact_molecular_weight>  (1037) 
348.19367

>  <molecular_formula>  (1037) 
C20H28O5

>  <alogp>  (1037) 
2.80

>  <topological_polar_surface_area>  (1037) 
90.90

>  <rotatable_bond_count>  (1037) 
1

>  <hydrogen_bond_acceptors>  (1037) 
4

>  <hydrogen_bond_donors>  (1037) 
3

>  <hydrogen_bond_acceptors_lipinski>  (1037) 
4

>  <hydrogen_bond_donors_lipinski>  (1037) 
3

>  <lipinski_rule_of_five_violations>  (1037) 
0

>  <aromatic_rings_count>  (1037) 
1

>  <qed_drug_likeliness>  (1037) 
0.73

>  <formal_charge>  (1037) 
0

>  <fractioncsp3>  (1037) 
0.75

>  <number_of_minimal_rings>  (1037) 
4

>  <van_der_walls_volume>  (1037) 
nan

>  <contains_sugar>  (1037) 
False

>  <contains_ring_sugars>  (1037) 
False

>  <contains_linear_sugars>  (1037) 
False

>  <murcko_framework>  (1037) 
o1ccc2c1CC3C(C2)CCC4CCCCC43

>  <np_likeness>  (1037) 
2.67

>  <chemical_class>  (1037) 
Prenol lipids

>  <chemical_sub_class>  (1037) 
Diterpenoids

>  <chemical_super_class>  (1037) 
Lipids and lipid-like molecules

>  <direct_parent_classification>  (1037) 
Diterpenoids

>  <np_classifier_pathway>  (1037) 
Terpenoids

>  <np_classifier_superclass>  (1037) 
Diterpenoids

>  <np_classifier_class>  (1037) 
Cassane diterpenoids

>  <np_classifier_is_glycoside>  (1037) 
False

>  <organisms>  (1037) 
Pterodon emarginatus|Pterodon polygalaeflorus

>  <collections>  (1037) 
Latin America dataset|NuBBEDB|Super Natural II|WikiData Natural Products

>  <dois>  (1037) 
10.1016/0024-3205(92)90208-7|10.1016/S0031-9422(00)89084-6|10.1016/S0031-9422(00)97084-5

>  <synonyms>  (1037) 
(4aS,5R,6R,6aR,7S,11aS,11bR)-5,6-dihydroxy-4,4,11b-trimethyl-1,2,3,4a,5,6,6a,7,11,11a-decahydronaphtho[2,1-f][1]benzofuran-7-carboxylic acid|5,6-Dihydroxy-4,4,11b-trimethyl-1,2,3,4,4a,5,6,6a,7,11,11a,11b-dodecahydrophenanthro[3,2-b]furan-7-carboxylic acid|6-alpha-7beta-Dihydroxyvouacapan-17-beta-oate|6\u221a\u00e9\u00ac\u00b17\u221a\u00e9\u00ac\u2264-Dihydroxyvouacapan-17\u221a\u00e9\u00ac\u2264-oic acid|CHEMBL517445|DTXSID30961231|Phenanthro(3,2-b)furan-7-carboxylic acid, 1,2,3,4,4a,5,6,6a,7,11,11a,11b-dodecahydro-5,6-dihydroxy-4,4,11b-trimethyl-, (4aS-(4aalpha,5alpha,6beta,6abeta,7beta,11aalpha,11bbeta))-|Vouacapan

>  <cas>  (1037) 
nan

$$$$

     RDKit          2D

 23 26  0  0  0  0  0  0  0  0999 V2000
    6.2668   -2.5294    0.0000 C   0  0  0  0  0  0  0  0  0  0  0  0
    6.1014   -1.0386    0.0000 O   0  0  0  0  0  0  0  0  0  0  0  0
    4.7276   -0.4364    0.0000 C   0  0  0  0  0  0  0  0  0  0  0  0
    3.5192   -1.3251    0.0000 C   0  0  0  0  0  0  0  0  0  0  0  0
    2.1453   -0.7229    0.0000 C   0  0  0  0  0  0  0  0  0  0  0  0
    1.9799    0.7679    0.0000 C   0  0  0  0  0  0  0  0  0  0  0  0
    3.1883    1.6566    0.0000 C   0  0  0  0  0  0  0  0  0  0  0  0
    4.5621    1.0544    0.0000 C   0  0  0  0  0  0  0  0  0  0  0  0
    5.7706    1.9431    0.0000 O   0  0  0  0  0  0  0  0  0  0  0  0
    0.5109    1.0713    0.0000 C   0  0  0  0  0  0  0  0  0  0  0  0
   -0.2466    2.3660    0.0000 C   0  0  0  0  0  0  0  0  0  0  0  0
   -1.7466    2.3573    0.0000 O   0  0  0  0  0  0  0  0  0  0  0  0
   -2.4890    1.0540    0.0000 C   0  0  0  0  0  0  0  0  0  0  0  0
   -3.9890    1.0453    0.0000 C   0  0  0  0  0  0  0  0  0  0  0  0
   -4.7315   -0.2581    0.0000 C   0  0  0  0  0  0  0  0  0  0  0  0
   -6.2315   -0.2667    0.0000 O   0  0  0  0  0  0  0  0  0  0  0  0
   -6.9890    1.0280    0.0000 C   0  0  0  0  0  0  0  0  0  0  0  0
   -3.9740   -1.5527    0.0000 C   0  0  0  0  0  0  0  0  0  0  0  0
   -4.7165   -2.8561    0.0000 O   0  0  0  0  0  0  0  0  0  0  0  0
   -2.4740   -1.5441    0.0000 C   0  0  0  0  0  0  0  0  0  0  0  0
   -1.7315   -0.2407    0.0000 C   0  0  0  0  0  0  0  0  0  0  0  0
   -0.2316   -0.2320    0.0000 C   0  0  0  0  0  0  0  0  0  0  0  0
    0.7786   -1.3409    0.0000 O   0  0  0  0  0  0  0  0  0  0  0  0
  1  2  1  0
  2  3  1  0
  3  4  2  0
  4  5  1  0
  5  6  2  0
  6  7  1  0
  7  8  2  0
  8  9  1  0
  6 10  1  0
 10 11  1  1
 11 12  1  0
 12 13  1  0
 13 14  2  0
 14 15  1  0
 15 16  1  0
 16 17  1  0
 15 18  2  0
 18 19  1  0
 18 20  1  0
 20 21  2  0
 21 22  1  0
 22 23  1  1
  8  3  1  0
 22 10  1  0
 23  5  1  0
 21 13  1  0
M  END
>  <identifier>  (1038) 
CNP0135577.2

>  <canonical_smiles>  (1038) 
COC1=CC2=C(C=C1O)[C@@H]1COC3=CC(OC)=C(O)C=C3[C@@H]1O2

>  <standard_inchi>  (1038) 
InChI=1S/C17H16O6/c1-20-15-5-13-9(4-12(15)19)17-10(7-22-13)8-3-11(18)16(21-2)6-14(8)23-17/h3-6,10,17-19H,7H2,1-2H3/t10-,17-/m0/s1

>  <standard_inchi_key>  (1038) 
RIVCVLWKSXZCKZ-BTDLBPIBSA-N

>  <name>  (1038) 
nan

>  <iupac_name>  (1038) 
(6~{a}~{R},11~{a}~{R})-3,9-dimethoxy-6~{a},11~{a}-dihydro-6~{H}-benzofuro[3,2-c]chromene-2,8-diol

>  <annotation_level>  (1038) 
4

>  <total_atom_count>  (1038) 
39

>  <heavy_atom_count>  (1038) 
23

>  <molecular_weight>  (1038) 
316.31

>  <exact_molecular_weight>  (1038) 
316.09469

>  <molecular_formula>  (1038) 
C17H16O6

>  <alogp>  (1038) 
2.72

>  <topological_polar_surface_area>  (1038) 
77.38

>  <rotatable_bond_count>  (1038) 
2

>  <hydrogen_bond_acceptors>  (1038) 
6

>  <hydrogen_bond_donors>  (1038) 
2

>  <hydrogen_bond_acceptors_lipinski>  (1038) 
6

>  <hydrogen_bond_donors_lipinski>  (1038) 
2

>  <lipinski_rule_of_five_violations>  (1038) 
0

>  <aromatic_rings_count>  (1038) 
2

>  <qed_drug_likeliness>  (1038) 
0.89

>  <formal_charge>  (1038) 
0

>  <fractioncsp3>  (1038) 
0.29

>  <number_of_minimal_rings>  (1038) 
4

>  <van_der_walls_volume>  (1038) 
nan

>  <contains_sugar>  (1038) 
False

>  <contains_ring_sugars>  (1038) 
False

>  <contains_linear_sugars>  (1038) 
False

>  <murcko_framework>  (1038) 
O1c2ccccc2C3Oc4ccccc4C3C1

>  <np_likeness>  (1038) 
1.84

>  <chemical_class>  (1038) 
Isoflavonoids

>  <chemical_sub_class>  (1038) 
Furanoisoflavonoids

>  <chemical_super_class>  (1038) 
Phenylpropanoids and polyketides

>  <direct_parent_classification>  (1038) 
Pterocarpans

>  <np_classifier_pathway>  (1038) 
Shikimates and Phenylpropanoids

>  <np_classifier_superclass>  (1038) 
Isoflavonoids

>  <np_classifier_class>  (1038) 
Pterocarpan

>  <np_classifier_is_glycoside>  (1038) 
False

>  <organisms>  (1038) 
Swartzia laevicarpa

>  <collections>  (1038) 
Latin America dataset|NuBBEDB|Super Natural II|WikiData Natural Products|ZINC NP

>  <dois>  (1038) 
10.1016/0031-9422(80)83022-6

>  <synonyms>  (1038) 
(6aR11aR)-28-Dihydroxy-39-dimehtoxypterocarpan

>  <cas>  (1038) 
nan

$$$$

     RDKit          2D

 23 25  0  0  0  0  0  0  0  0999 V2000
   -4.9947    1.9679    0.0000 C   0  0  0  0  0  0  0  0  0  0  0  0
   -4.8860    0.4718    0.0000 C   0  0  0  0  0  0  0  0  0  0  0  0
   -3.5360   -0.1821    0.0000 C   0  0  0  0  0  0  0  0  0  0  0  0
   -4.4144   -1.3980    0.0000 C   0  0  0  0  0  0  0  0  0  0  0  0
   -3.1265    1.2609    0.0000 C   0  0  0  0  0  0  0  0  0  0  0  0
   -1.6720    1.6278    0.0000 C   0  0  0  0  0  0  0  0  0  0  0  0
   -0.6271    0.5516    0.0000 C   0  0  0  0  0  0  0  0  0  0  0  0
    0.8274    0.9184    0.0000 C   0  0  0  0  0  0  0  0  0  0  0  0
   -0.2175    1.9946    0.0000 C   0  0  0  0  0  0  0  0  0  0  0  0
    1.2369    2.3614    0.0000 C   0  0  0  0  0  0  0  0  0  0  0  0
    2.6914    2.7283    0.0000 C   0  0  0  0  0  0  0  0  0  0  0  0
    3.7363    1.6521    0.0000 C   0  0  0  0  0  0  0  0  0  0  0  0
    3.3267    0.2091    0.0000 C   0  0  0  0  0  0  0  0  0  0  0  0
    3.4354   -1.2870    0.0000 C   0  0  0  0  0  0  0  0  0  0  0  0
    4.8189    0.0564    0.0000 C   0  0  0  0  0  0  0  0  0  0  0  0
    5.4328   -1.3123    0.0000 O   0  0  0  0  0  0  0  0  0  0  0  0
    1.8723   -0.1577    0.0000 C   0  0  0  0  0  0  0  0  0  0  0  0
    1.4628   -1.6008    0.0000 C   0  0  0  0  0  0  0  0  0  0  0  0
    0.0083   -1.9676    0.0000 C   0  0  0  0  0  0  0  0  0  0  0  0
   -0.4012   -3.4106    0.0000 O   0  0  0  0  0  0  0  0  0  0  0  0
   -1.0366   -0.8914    0.0000 C   0  0  0  0  0  0  0  0  0  0  0  0
   -1.4462   -2.3344    0.0000 O   0  0  0  0  0  0  0  0  0  0  0  0
   -2.4911   -1.2583    0.0000 C   0  0  0  0  0  0  0  0  0  0  0  0
  1  2  2  0
  2  3  1  0
  3  4  1  6
  3  5  1  0
  5  6  1  0
  7  6  1  6
  7  8  1  0
  8  9  1  6
  8 10  1  0
 10 11  1  0
 11 12  1  0
 12 13  1  0
 13 14  1  6
 13 15  1  0
 15 16  1  0
 13 17  1  0
 17 18  1  6
 18 19  1  0
 19 20  1  6
 19 21  1  0
 21 22  1  6
 21 23  1  0
 23  3  1  0
 21  7  1  0
 17  8  1  0
M  END
>  <identifier>  (1039) 
CNP0199530.1

>  <canonical_smiles>  (1039) 
C=C[C@@]1(C)CC[C@@H]2[C@@]3(C)CCC[C@@](C)(CO)[C@@H]3C[C@H](O)[C@@]2(O)C1

>  <standard_inchi>  (1039) 
InChI=1S/C20H34O3/c1-5-17(2)10-7-14-19(4)9-6-8-18(3,13-21)15(19)11-16(22)20(14,23)12-17/h5,14-16,21-23H,1,6-13H2,2-4H3/t14-,15+,16+,17+,18+,19-,20-/m1/s1

>  <standard_inchi_key>  (1039) 
BMDMNNSUERKJDK-WLWSEXLFSA-N

>  <name>  (1039) 
nan

>  <iupac_name>  (1039) 
(1~{R},4~{a}~{S},4~{b}~{R},7~{S},8~{a}~{R},9~{S},10~{a}~{R})-1-(hydroxymethyl)-1,4~{a},7-trimethyl-7-vinyl-2,3,4,4~{b},5,6,8,9,10,10~{a}-decahydrophenanthrene-8~{a},9-diol

>  <annotation_level>  (1039) 
4

>  <total_atom_count>  (1039) 
57

>  <heavy_atom_count>  (1039) 
23

>  <molecular_weight>  (1039) 
322.49

>  <exact_molecular_weight>  (1039) 
322.25079

>  <molecular_formula>  (1039) 
C20H34O3

>  <alogp>  (1039) 
3.28

>  <topological_polar_surface_area>  (1039) 
60.69

>  <rotatable_bond_count>  (1039) 
2

>  <hydrogen_bond_acceptors>  (1039) 
3

>  <hydrogen_bond_donors>  (1039) 
3

>  <hydrogen_bond_acceptors_lipinski>  (1039) 
3

>  <hydrogen_bond_donors_lipinski>  (1039) 
3

>  <lipinski_rule_of_five_violations>  (1039) 
0

>  <aromatic_rings_count>  (1039) 
0

>  <qed_drug_likeliness>  (1039) 
0.68

>  <formal_charge>  (1039) 
0

>  <fractioncsp3>  (1039) 
0.90

>  <number_of_minimal_rings>  (1039) 
3

>  <van_der_walls_volume>  (1039) 
nan

>  <contains_sugar>  (1039) 
False

>  <contains_ring_sugars>  (1039) 
False

>  <contains_linear_sugars>  (1039) 
False

>  <murcko_framework>  (1039) 
C1CCC2C(C1)CCC3CCCCC32

>  <np_likeness>  (1039) 
3.53

>  <chemical_class>  (1039) 
Prenol lipids

>  <chemical_sub_class>  (1039) 
Diterpenoids

>  <chemical_super_class>  (1039) 
Lipids and lipid-like molecules

>  <direct_parent_classification>  (1039) 
Diterpenoids

>  <np_classifier_pathway>  (1039) 
Terpenoids

>  <np_classifier_superclass>  (1039) 
Diterpenoids

>  <np_classifier_class>  (1039) 
Pimarane and Isopimarane diterpenoids

>  <np_classifier_is_glycoside>  (1039) 
False

>  <organisms>  (1039) 
Vellozia alutacea|Vellozia compacta|Vellozia variabilis

>  <collections>  (1039) 
Latin America dataset|NuBBEDB|Super Natural II|WikiData Natural Products

>  <dois>  (1039) 
10.1016/0031-9422(83)80034-X|10.1016/0031-9422(92)83127-K

>  <synonyms>  (1039) 
Compactotriol

>  <cas>  (1039) 
nan

$$$$

     RDKit          2D

 54 59  0  0  0  0  0  0  0  0999 V2000
   -9.5145   -4.6057    0.0000 C   0  0  0  0  0  0  0  0  0  0  0  0
   -8.4631   -3.5359    0.0000 C   0  0  0  0  0  0  0  0  0  0  0  0
   -8.8639   -2.0904    0.0000 C   0  0  0  0  0  0  0  0  0  0  0  0
   -7.8125   -1.0206    0.0000 C   0  0  0  0  0  0  0  0  0  0  0  0
   -8.2133    0.4249    0.0000 C   0  0  0  0  0  0  0  0  0  0  0  0
   -9.6655    0.8005    0.0000 C   0  0  0  0  0  0  0  0  0  0  0  0
   -7.1619    1.4947    0.0000 C   0  0  0  0  0  0  0  0  0  0  0  0
   -7.4094    2.9742    0.0000 C   0  0  0  0  0  0  0  0  0  0  0  0
   -6.0788    3.6667    0.0000 C   0  0  0  0  0  0  0  0  0  0  0  0
   -5.0090    2.6153    0.0000 C   0  0  0  0  0  0  0  0  0  0  0  0
   -4.4836    4.0203    0.0000 C   0  0  0  0  0  0  0  0  0  0  0  0
   -3.5118    2.7069    0.0000 C   0  0  0  0  0  0  0  0  0  0  0  0
   -2.8424    4.0492    0.0000 C   0  0  0  0  0  0  0  0  0  0  0  0
   -1.3452    4.1407    0.0000 C   0  0  0  0  0  0  0  0  0  0  0  0
   -0.5174    2.8899    0.0000 C   0  0  0  0  0  0  0  0  0  0  0  0
    0.9798    2.9814    0.0000 C   0  0  0  0  0  0  0  0  0  0  0  0
    1.6492    4.3238    0.0000 C   0  0  0  0  0  0  0  0  0  0  0  0
    1.8077    1.7305    0.0000 C   0  0  0  0  0  0  0  0  0  0  0  0
    3.3049    1.8220    0.0000 O   0  0  0  0  0  0  0  0  0  0  0  0
    4.1328    0.5712    0.0000 C   0  0  0  0  0  0  0  0  0  0  0  0
    3.4634   -0.7712    0.0000 O   0  0  0  0  0  0  0  0  0  0  0  0
    4.2913   -2.0221    0.0000 C   0  0  0  0  0  0  0  0  0  0  0  0
    3.6219   -3.3644    0.0000 C   0  0  0  0  0  0  0  0  0  0  0  0
    2.1247   -3.4559    0.0000 O   0  0  0  0  0  0  0  0  0  0  0  0
    1.4554   -4.7983    0.0000 C   0  0  0  0  0  0  0  0  0  0  0  0
   -0.0418   -4.8898    0.0000 C   0  0  0  0  0  0  0  0  0  0  0  0
    2.2832   -6.0492    0.0000 O   0  0  0  0  0  0  0  0  0  0  0  0
    5.7885   -1.9305    0.0000 C   0  0  0  0  0  0  0  0  0  0  0  0
    6.6163   -3.1814    0.0000 O   0  0  0  0  0  0  0  0  0  0  0  0
    8.1135   -3.0899    0.0000 C   0  0  0  0  0  0  0  0  0  0  0  0
    8.9414   -4.3407    0.0000 C   0  0  0  0  0  0  0  0  0  0  0  0
    8.7829   -1.7475    0.0000 O   0  0  0  0  0  0  0  0  0  0  0  0
    6.4578   -0.5882    0.0000 C   0  0  0  0  0  0  0  0  0  0  0  0
    7.9550   -0.4966    0.0000 O   0  0  0  0  0  0  0  0  0  0  0  0
    8.6244    0.8457    0.0000 C   0  0  0  0  0  0  0  0  0  0  0  0
   10.1216    0.9372    0.0000 C   0  0  0  0  0  0  0  0  0  0  0  0
    7.7965    2.0966    0.0000 O   0  0  0  0  0  0  0  0  0  0  0  0
    5.6300    0.6627    0.0000 C   0  0  0  0  0  0  0  0  0  0  0  0
    6.2993    2.0051    0.0000 O   0  0  0  0  0  0  0  0  0  0  0  0
    5.4715    3.2559    0.0000 C   0  0  0  0  0  0  0  0  0  0  0  0
    6.1408    4.5983    0.0000 C   0  0  0  0  0  0  0  0  0  0  0  0
    3.9742    3.1644    0.0000 O   0  0  0  0  0  0  0  0  0  0  0  0
    1.1383    0.3882    0.0000 C   0  0  0  0  0  0  0  0  0  0  0  0
   -0.3589    0.2966    0.0000 C   0  0  0  0  0  0  0  0  0  0  0  0
   -1.1867    1.5475    0.0000 C   0  0  0  0  0  0  0  0  0  0  0  0
   -1.8561    0.2051    0.0000 C   0  0  0  0  0  0  0  0  0  0  0  0
   -2.6839    1.4560    0.0000 C   0  0  0  0  0  0  0  0  0  0  0  0
   -3.3533    0.1136    0.0000 C   0  0  0  0  0  0  0  0  0  0  0  0
   -4.8505    0.0221    0.0000 C   0  0  0  0  0  0  0  0  0  0  0  0
   -5.6783    1.2730    0.0000 C   0  0  0  0  0  0  0  0  0  0  0  0
   -6.4843    0.0079    0.0000 C   0  0  0  0  0  0  0  0  0  0  0  0
   -7.0109   -3.9115    0.0000 C   0  0  0  0  0  0  0  0  0  0  0  0
   -6.6101   -5.3569    0.0000 C   0  0  0  0  0  0  0  0  0  0  0  0
   -5.9594   -2.8416    0.0000 C   0  0  0  0  0  0  0  0  0  0  0  0
  1  2  2  0
  2  3  1  0
  3  4  1  0
  4  5  1  0
  5  6  1  1
  5  7  1  0
  7  8  1  1
  8  9  1  0
  9 10  1  0
 10 11  1  6
 10 12  1  0
 12 13  1  6
 13 14  1  0
 15 14  1  1
 15 16  1  0
 16 17  1  6
 16 18  1  0
 18 19  1  1
 20 19  1  1
 20 21  1  0
 21 22  1  0
 22 23  1  1
 23 24  1  0
 24 25  1  0
 25 26  1  0
 25 27  2  0
 22 28  1  0
 28 29  1  6
 29 30  1  0
 30 31  1  0
 30 32  2  0
 28 33  1  0
 33 34  1  1
 34 35  1  0
 35 36  1  0
 35 37  2  0
 33 38  1  0
 38 39  1  6
 39 40  1  0
 40 41  1  0
 40 42  2  0
 18 43  1  0
 43 44  1  0
 45 44  1  6
 45 46  1  0
 47 46  1  1
 47 48  1  0
 48 49  1  0
 49 50  1  0
 50 51  1  1
  2 52  1  0
 52 53  1  0
 52 54  1  0
 50  7  1  0
 50 10  1  0
 47 12  1  0
 45 15  1  0
 38 20  1  0
 47 45  1  0
M  END
>  <identifier>  (1040) 
CNP0080346.1

>  <canonical_smiles>  (1040) 
C=C(CC[C@@H](C)[C@H]1CC[C@@]2(C)[C@@H]3CC[C@H]4[C@H](C)[C@@H](O[C@@H]5O[C@H](COC(C)=O)[C@@H](OC(C)=O)[C@H](OC(C)=O)[C@H]5OC(C)=O)CC[C@@]45C[C@@]35CC[C@]12C)C(C)C

>  <standard_inchi>  (1040) 
InChI=1S/C44H68O10/c1-24(2)25(3)12-13-26(4)32-16-18-42(11)36-15-14-33-27(5)34(17-19-43(33)23-44(36,43)21-20-41(32,42)10)53-40-39(52-31(9)48)38(51-30(8)47)37(50-29(7)46)35(54-40)22-49-28(6)45/h24,26-27,32-40H,3,12-23H2,1-2,4-11H3/t26-,27+,32-,33+,34+,35-,36+,37-,38+,39-,40-,41-,42+,43-,44+/m1/s1

>  <standard_inchi_key>  (1040) 
LAVUZVQCPJCUEF-IYZCGXTQSA-N

>  <name>  (1040) 
nan

>  <iupac_name>  (1040) 
[(2~{R},3~{R},4~{S},5~{R},6~{R})-3,4,5-triacetoxy-6-[[(1~{S},3~{R},6~{S},7~{S},8~{S},11~{S},12~{S},15~{R},16~{R})-15-[(1~{R})-1,5-dimethyl-4-methylene-hexyl]-7,12,16-trimethyl-6-pentacyclo[9.7.0.0^{1,3}.0^{3,8}.0^{12,16}]octadecanyl]oxy]tetrahydropyran-2-yl]methyl acetate

>  <annotation_level>  (1040) 
4

>  <total_atom_count>  (1040) 
122

>  <heavy_atom_count>  (1040) 
54

>  <molecular_weight>  (1040) 
757.02

>  <exact_molecular_weight>  (1040) 
756.48125

>  <molecular_formula>  (1040) 
C44H68O10

>  <alogp>  (1040) 
8.13

>  <topological_polar_surface_area>  (1040) 
123.66

>  <rotatable_bond_count>  (1040) 
12

>  <hydrogen_bond_acceptors>  (1040) 
10

>  <hydrogen_bond_donors>  (1040) 
0

>  <hydrogen_bond_acceptors_lipinski>  (1040) 
10

>  <hydrogen_bond_donors_lipinski>  (1040) 
0

>  <lipinski_rule_of_five_violations>  (1040) 
2

>  <aromatic_rings_count>  (1040) 
0

>  <qed_drug_likeliness>  (1040) 
0.08

>  <formal_charge>  (1040) 
0

>  <fractioncsp3>  (1040) 
0.86

>  <number_of_minimal_rings>  (1040) 
6

>  <van_der_walls_volume>  (1040) 
nan

>  <contains_sugar>  (1040) 
True

>  <contains_ring_sugars>  (1040) 
True

>  <contains_linear_sugars>  (1040) 
False

>  <murcko_framework>  (1040) 
O1CCCCC1OC2CCC34CC54CCC6CCCC6C5CCC3C2

>  <np_likeness>  (1040) 
2.65

>  <chemical_class>  (1040) 
Prenol lipids

>  <chemical_sub_class>  (1040) 
Terpene glycosides

>  <chemical_super_class>  (1040) 
Lipids and lipid-like molecules

>  <direct_parent_classification>  (1040) 
Triterpene saponins

>  <np_classifier_pathway>  (1040) 
Terpenoids

>  <np_classifier_superclass>  (1040) 
Steroids

>  <np_classifier_class>  (1040) 
Cycloartane triterpenoids

>  <np_classifier_is_glycoside>  (1040) 
True

>  <organisms>  (1040) 
Cedrela odorata

>  <collections>  (1040) 
Latin America dataset|NuBBEDB|WikiData Natural Products

>  <dois>  (1040) 
10.1016/S0031-9422(96)00747-9

>  <synonyms>  (1040) 
3\u221a\u00e9\u00ac\u2264-O-(2'3'4'6'-tetra-O-acetyl-\u221a\u00e9\u00ac\u2264-D-glucopyranosyl)cycloeucalenol

>  <cas>  (1040) 
nan

$$$$

     RDKit          2D

 39 43  0  0  0  0  0  0  0  0999 V2000
  -10.3450    1.1934    0.0000 C   0  0  0  0  0  0  0  0  0  0  0  0
   -8.8466    1.2621    0.0000 C   0  0  0  0  0  0  0  0  0  0  0  0
   -8.1569    2.5941    0.0000 O   0  0  0  0  0  0  0  0  0  0  0  0
   -8.0380   -0.0013    0.0000 O   0  0  0  0  0  0  0  0  0  0  0  0
   -6.5395    0.0674    0.0000 C   0  0  0  0  0  0  0  0  0  0  0  0
   -5.8498    1.3994    0.0000 C   0  0  0  0  0  0  0  0  0  0  0  0
   -4.3513    1.4680    0.0000 C   0  0  0  0  0  0  0  0  0  0  0  0
   -3.5427    0.2047    0.0000 C   0  0  0  0  0  0  0  0  0  0  0  0
   -2.8529    1.5367    0.0000 C   0  0  0  0  0  0  0  0  0  0  0  0
   -2.0442    0.2733    0.0000 C   0  0  0  0  0  0  0  0  0  0  0  0
   -1.3545    1.6053    0.0000 C   0  0  0  0  0  0  0  0  0  0  0  0
    0.1439    1.6740    0.0000 C   0  0  0  0  0  0  0  0  0  0  0  0
    0.9526    0.4106    0.0000 C   0  0  0  0  0  0  0  0  0  0  0  0
    2.4326    0.1662    0.0000 C   0  0  0  0  0  0  0  0  0  0  0  0
    3.5002    1.2199    0.0000 C   0  0  0  0  0  0  0  0  0  0  0  0
    2.3407    2.1715    0.0000 C   0  0  0  0  0  0  0  0  0  0  0  0
    4.3254    2.4725    0.0000 C   0  0  0  0  0  0  0  0  0  0  0  0
    5.7717    2.0748    0.0000 C   0  0  0  0  0  0  0  0  0  0  0  0
    5.8404    0.5763    0.0000 C   0  0  0  0  0  0  0  0  0  0  0  0
    7.0930   -0.2489    0.0000 C   0  0  0  0  0  0  0  0  0  0  0  0
    7.9182    1.0037    0.0000 C   0  0  0  0  0  0  0  0  0  0  0  0
    6.2677   -1.5015    0.0000 C   0  0  0  0  0  0  0  0  0  0  0  0
    8.3456   -1.0741    0.0000 O   0  0  0  0  0  0  0  0  0  0  0  0
    9.6865   -0.4019    0.0000 C   0  0  0  0  0  0  0  0  0  0  0  0
   10.9391   -1.2271    0.0000 C   0  0  0  0  0  0  0  0  0  0  0  0
    9.7749    1.0955    0.0000 O   0  0  0  0  0  0  0  0  0  0  0  0
    4.4365    0.0480    0.0000 O   0  0  0  0  0  0  0  0  0  0  0  0
    2.6575   -1.3168    0.0000 C   0  0  0  0  0  0  0  0  0  0  0  0
    1.3165   -1.9890    0.0000 C   0  0  0  0  0  0  0  0  0  0  0  0
    0.2629   -0.9214    0.0000 C   0  0  0  0  0  0  0  0  0  0  0  0
   -0.2839   -2.3182    0.0000 C   0  0  0  0  0  0  0  0  0  0  0  0
   -1.2356   -0.9900    0.0000 C   0  0  0  0  0  0  0  0  0  0  0  0
   -2.7340   -1.0587    0.0000 C   0  0  0  0  0  0  0  0  0  0  0  0
   -1.9253   -2.3220    0.0000 C   0  0  0  0  0  0  0  0  0  0  0  0
   -3.4238   -2.3907    0.0000 C   0  0  0  0  0  0  0  0  0  0  0  0
   -4.2324   -1.1273    0.0000 C   0  0  0  0  0  0  0  0  0  0  0  0
   -5.7309   -1.1960    0.0000 C   0  0  0  0  0  0  0  0  0  0  0  0
   -5.4031   -2.6597    0.0000 C   0  0  0  0  0  0  0  0  0  0  0  0
   -7.1154   -1.7730    0.0000 C   0  0  0  0  0  0  0  0  0  0  0  0
  1  2  1  0
  2  3  2  0
  2  4  1  0
  5  4  1  6
  5  6  1  0
  6  7  1  0
  7  8  1  0
  8  9  1  1
  8 10  1  0
 10 11  1  1
 11 12  1  0
 13 12  1  6
 13 14  1  0
 14 15  1  0
 15 16  1  1
 15 17  1  0
 17 18  1  0
 18 19  1  0
 19 20  1  1
 20 21  1  0
 20 22  1  0
 20 23  1  0
 23 24  1  0
 24 25  1  0
 24 26  2  0
 19 27  1  0
 14 28  1  1
 28 29  1  0
 29 30  1  0
 30 31  1  6
 30 32  1  0
 32 33  1  1
 32 34  1  0
 34 35  1  0
 36 35  1  1
 36 37  1  0
 37 38  1  0
 37 39  1  0
 37  5  1  0
 36  8  1  0
 32 10  1  0
 30 13  1  0
 27 15  1  0
M  END
>  <identifier>  (1041) 
CNP0155781.1

>  <canonical_smiles>  (1041) 
CC(=O)O[C@@H]1CC[C@]2(C)[C@H]3CC[C@@H]4[C@@H]([C@]5(C)CC[C@@H](C(C)(C)OC(C)=O)O5)CC[C@@]4(C)[C@]3(C)CC[C@H]2C1(C)C

>  <standard_inchi>  (1041) 
InChI=1S/C34H56O5/c1-21(35)37-27-15-17-31(7)25(29(27,3)4)14-19-33(9)26(31)12-11-23-24(13-18-32(23,33)8)34(10)20-16-28(39-34)30(5,6)38-22(2)36/h23-28H,11-20H2,1-10H3/t23-,24+,25+,26-,27-,28+,31+,32-,33-,34+/m1/s1

>  <standard_inchi_key>  (1041) 
RBQLECJYZFCFKA-RDPOROLXSA-N

>  <name>  (1041) 
nan

>  <iupac_name>  (1041) 
[(3~{R},5~{R},8~{R},9~{R},10~{R},13~{R},14~{R},17~{S})-17-[(2~{S},5~{S})-5-(1-acetoxy-1-methyl-ethyl)-2-methyl-tetrahydrofuran-2-yl]-4,4,8,10,14-pentamethyl-2,3,5,6,7,9,11,12,13,15,16,17-dodecahydro-1~{H}-cyclopenta[a]phenanthren-3-yl] acetate

>  <annotation_level>  (1041) 
4

>  <total_atom_count>  (1041) 
95

>  <heavy_atom_count>  (1041) 
39

>  <molecular_weight>  (1041) 
544.82

>  <exact_molecular_weight>  (1041) 
544.41277

>  <molecular_formula>  (1041) 
C34H56O5

>  <alogp>  (1041) 
7.88

>  <topological_polar_surface_area>  (1041) 
61.83

>  <rotatable_bond_count>  (1041) 
4

>  <hydrogen_bond_acceptors>  (1041) 
5

>  <hydrogen_bond_donors>  (1041) 
0

>  <hydrogen_bond_acceptors_lipinski>  (1041) 
5

>  <hydrogen_bond_donors_lipinski>  (1041) 
0

>  <lipinski_rule_of_five_violations>  (1041) 
2

>  <aromatic_rings_count>  (1041) 
0

>  <qed_drug_likeliness>  (1041) 
0.34

>  <formal_charge>  (1041) 
0

>  <fractioncsp3>  (1041) 
0.94

>  <number_of_minimal_rings>  (1041) 
5

>  <van_der_walls_volume>  (1041) 
nan

>  <contains_sugar>  (1041) 
False

>  <contains_ring_sugars>  (1041) 
False

>  <contains_linear_sugars>  (1041) 
False

>  <murcko_framework>  (1041) 
O1CCCC1C2CCC3C2CCC4C5CCCCC5CCC43

>  <np_likeness>  (1041) 
2.76

>  <chemical_class>  (1041) 
Prenol lipids

>  <chemical_sub_class>  (1041) 
Terpene glycosides

>  <chemical_super_class>  (1041) 
Lipids and lipid-like molecules

>  <direct_parent_classification>  (1041) 
Triterpene saponins

>  <np_classifier_pathway>  (1041) 
Terpenoids

>  <np_classifier_superclass>  (1041) 
Triterpenoids

>  <np_classifier_class>  (1041) 
Dammarane and Protostane triterpenoids

>  <np_classifier_is_glycoside>  (1041) 
False

>  <organisms>  (1041) 
Cabralea polytricha

>  <collections>  (1041) 
Latin America dataset|NuBBEDB

>  <dois>  (1041) 
10.1016/0040-4020(72)80138-8

>  <synonyms>  (1041) 
Cabraleadiol diacetate

>  <cas>  (1041) 
nan

$$$$

     RDKit          2D

 16 17  0  0  0  0  0  0  0  0999 V2000
   -4.4989    1.0858    0.0000 C   0  0  0  0  0  0  0  0  0  0  0  0
   -3.0645    1.5247    0.0000 O   0  0  0  0  0  0  0  0  0  0  0  0
   -1.9673    0.5019    0.0000 C   0  0  0  0  0  0  0  0  0  0  0  0
   -2.3044   -0.9597    0.0000 C   0  0  0  0  0  0  0  0  0  0  0  0
   -1.2072   -1.9825    0.0000 C   0  0  0  0  0  0  0  0  0  0  0  0
   -1.5443   -3.4441    0.0000 O   0  0  0  0  0  0  0  0  0  0  0  0
    0.2272   -1.5437    0.0000 N   0  0  0  0  0  0  0  0  0  0  0  0
    1.3244   -2.5665    0.0000 C   0  0  0  0  0  0  0  0  0  0  0  0
    0.5643   -0.0821    0.0000 C   0  0  0  0  0  0  0  0  0  0  0  0
    1.9987    0.3568    0.0000 C   0  0  0  0  0  0  0  0  0  0  0  0
    3.0959   -0.6660    0.0000 O   0  0  0  0  0  0  0  0  0  0  0  0
    4.5303   -0.2272    0.0000 C   0  0  0  0  0  0  0  0  0  0  0  0
    2.3358    1.8184    0.0000 C   0  0  0  0  0  0  0  0  0  0  0  0
    1.2386    2.8412    0.0000 C   0  0  0  0  0  0  0  0  0  0  0  0
   -0.1958    2.4023    0.0000 C   0  0  0  0  0  0  0  0  0  0  0  0
   -0.5329    0.9407    0.0000 C   0  0  0  0  0  0  0  0  0  0  0  0
  1  2  1  0
  2  3  1  0
  3  4  2  0
  4  5  1  0
  5  6  2  0
  5  7  1  0
  7  8  1  0
  7  9  1  0
  9 10  2  0
 10 11  1  0
 11 12  1  0
 10 13  1  0
 13 14  2  0
 14 15  1  0
 15 16  2  0
 16  3  1  0
 16  9  1  0
M  END
>  <identifier>  (1042) 
CNP0254130.0

>  <canonical_smiles>  (1042) 
COC1=CC(=O)N(C)C2=C(OC)C=CC=C12

>  <standard_inchi>  (1042) 
InChI=1S/C12H13NO3/c1-13-11(14)7-10(16-3)8-5-4-6-9(15-2)12(8)13/h4-7H,1-3H3

>  <standard_inchi_key>  (1042) 
XFXPKEVQMIUIEY-UHFFFAOYSA-N

>  <name>  (1042) 
4,8-dimethoxy-1-methylquinolin-2-one

>  <iupac_name>  (1042) 
4,8-dimethoxy-1-methyl-quinolin-2-one

>  <annotation_level>  (1042) 
5

>  <total_atom_count>  (1042) 
29

>  <heavy_atom_count>  (1042) 
16

>  <molecular_weight>  (1042) 
219.24

>  <exact_molecular_weight>  (1042) 
219.08954

>  <molecular_formula>  (1042) 
C12H13NO3

>  <alogp>  (1042) 
1.56

>  <topological_polar_surface_area>  (1042) 
40.46

>  <rotatable_bond_count>  (1042) 
2

>  <hydrogen_bond_acceptors>  (1042) 
4

>  <hydrogen_bond_donors>  (1042) 
0

>  <hydrogen_bond_acceptors_lipinski>  (1042) 
4

>  <hydrogen_bond_donors_lipinski>  (1042) 
0

>  <lipinski_rule_of_five_violations>  (1042) 
0

>  <aromatic_rings_count>  (1042) 
2

>  <qed_drug_likeliness>  (1042) 
0.77

>  <formal_charge>  (1042) 
0

>  <fractioncsp3>  (1042) 
0.25

>  <number_of_minimal_rings>  (1042) 
2

>  <van_der_walls_volume>  (1042) 
nan

>  <contains_sugar>  (1042) 
False

>  <contains_ring_sugars>  (1042) 
False

>  <contains_linear_sugars>  (1042) 
False

>  <murcko_framework>  (1042) 
c1ccc2NCC=Cc2c1

>  <np_likeness>  (1042) 
0.14

>  <chemical_class>  (1042) 
Quinolines and derivatives

>  <chemical_sub_class>  (1042) 
Quinolones and derivatives

>  <chemical_super_class>  (1042) 
Organoheterocyclic compounds

>  <direct_parent_classification>  (1042) 
Hydroquinolones

>  <np_classifier_pathway>  (1042) 
Alkaloids

>  <np_classifier_superclass>  (1042) 
Tryptophan alkaloids

>  <np_classifier_class>  (1042) 
Quinoline alkaloids

>  <np_classifier_is_glycoside>  (1042) 
False

>  <organisms>  (1042) 
Almeidea rubra|Boronia|Boronia pinnata|Haplophyllum bungei|Haplophyllum dauricum|Haplophyllum griffithianum|Haplophyllum obtusifolium

>  <collections>  (1042) 
Australian natural products|Latin America dataset|NuBBEDB|Super Natural II|UNPD (Universal Natural Products Database)|WikiData Natural Products|ZINC NP

>  <dois>  (1042) 
10.1007/BF00564475|10.1007/BF00568641|10.1007/BF00574794|10.1007/BF00580074|10.1007/BF00596686|10.1021/NP0000318|10.1021/np0000318|10.1590/S0103-50531998000100007|10.4314/NJNPM.V1I1.11800

>  <synonyms>  (1042) 
4,8-dimethoxy-N-methyl-2-quinolone|CHEMBL506638|folimine|folinine

>  <cas>  (1042) 
nan

$$$$

     RDKit          2D

 27 29  0  0  0  0  0  0  0  0999 V2000
   -6.9704    2.7638    0.0000 C   0  0  0  0  0  0  0  0  0  0  0  0
   -6.6290    1.3032    0.0000 O   0  0  0  0  0  0  0  0  0  0  0  0
   -5.1934    0.8686    0.0000 C   0  0  0  0  0  0  0  0  0  0  0  0
   -4.0991    1.8945    0.0000 C   0  0  0  0  0  0  0  0  0  0  0  0
   -2.6635    1.4599    0.0000 C   0  0  0  0  0  0  0  0  0  0  0  0
   -2.3221   -0.0007    0.0000 C   0  0  0  0  0  0  0  0  0  0  0  0
   -0.8864   -0.4354    0.0000 C   0  0  0  0  0  0  0  0  0  0  0  0
   -0.5450   -1.8960    0.0000 C   0  0  0  0  0  0  0  0  0  0  0  0
    0.8906   -2.3307    0.0000 C   0  0  0  0  0  0  0  0  0  0  0  0
    1.2320   -3.7913    0.0000 O   0  0  0  0  0  0  0  0  0  0  0  0
    1.9849   -1.3047    0.0000 C   0  0  0  0  0  0  0  0  0  0  0  0
    3.4205   -1.7394    0.0000 C   0  0  0  0  0  0  0  0  0  0  0  0
    4.5148   -0.7134    0.0000 C   0  0  0  0  0  0  0  0  0  0  0  0
    5.9504   -1.1480    0.0000 O   0  0  0  0  0  0  0  0  0  0  0  0
    6.2918   -2.6087    0.0000 C   0  0  0  0  0  0  0  0  0  0  0  0
    4.1734    0.7473    0.0000 C   0  0  0  0  0  0  0  0  0  0  0  0
    5.2676    1.7732    0.0000 O   0  0  0  0  0  0  0  0  0  0  0  0
    4.9262    3.2339    0.0000 C   0  0  0  0  0  0  0  0  0  0  0  0
    2.7377    1.1819    0.0000 C   0  0  0  0  0  0  0  0  0  0  0  0
    2.3963    2.6425    0.0000 O   0  0  0  0  0  0  0  0  0  0  0  0
    3.4906    3.6685    0.0000 C   0  0  0  0  0  0  0  0  0  0  0  0
    1.6435    0.1559    0.0000 C   0  0  0  0  0  0  0  0  0  0  0  0
    0.2078    0.5906    0.0000 O   0  0  0  0  0  0  0  0  0  0  0  0
   -3.4163   -1.0267    0.0000 C   0  0  0  0  0  0  0  0  0  0  0  0
   -4.8520   -0.5921    0.0000 C   0  0  0  0  0  0  0  0  0  0  0  0
   -5.9462   -1.6181    0.0000 O   0  0  0  0  0  0  0  0  0  0  0  0
   -5.6048   -3.0787    0.0000 C   0  0  0  0  0  0  0  0  0  0  0  0
  1  2  1  0
  2  3  1  0
  3  4  2  0
  4  5  1  0
  5  6  2  0
  6  7  1  0
  7  8  2  0
  8  9  1  0
  9 10  2  0
  9 11  1  0
 11 12  2  0
 12 13  1  0
 13 14  1  0
 14 15  1  0
 13 16  2  0
 16 17  1  0
 17 18  1  0
 16 19  1  0
 19 20  1  0
 20 21  1  0
 19 22  2  0
 22 23  1  0
  6 24  1  0
 24 25  2  0
 25 26  1  0
 26 27  1  0
 25  3  1  0
 23  7  1  0
 22 11  1  0
M  END
>  <identifier>  (1043) 
CNP0388881.0

>  <canonical_smiles>  (1043) 
COC1=CC=C(C2=CC(=O)C3=CC(OC)=C(OC)C(OC)=C3O2)C=C1OC

>  <standard_inchi>  (1043) 
InChI=1S/C20H20O7/c1-22-14-7-6-11(8-16(14)23-2)15-10-13(21)12-9-17(24-3)19(25-4)20(26-5)18(12)27-15/h6-10H,1-5H3

>  <standard_inchi_key>  (1043) 
MNQMRHVEXBTNRO-UHFFFAOYSA-N

>  <name>  (1043) 
42206-91-7

>  <iupac_name>  (1043) 
2-(3,4-dimethoxyphenyl)-6,7,8-trimethoxy-chromen-4-one

>  <annotation_level>  (1043) 
5

>  <total_atom_count>  (1043) 
47

>  <heavy_atom_count>  (1043) 
27

>  <molecular_weight>  (1043) 
372.37

>  <exact_molecular_weight>  (1043) 
372.1209

>  <molecular_formula>  (1043) 
C20H20O7

>  <alogp>  (1043) 
3.50

>  <topological_polar_surface_area>  (1043) 
76.36

>  <rotatable_bond_count>  (1043) 
6

>  <hydrogen_bond_acceptors>  (1043) 
7

>  <hydrogen_bond_donors>  (1043) 
0

>  <hydrogen_bond_acceptors_lipinski>  (1043) 
7

>  <hydrogen_bond_donors_lipinski>  (1043) 
0

>  <lipinski_rule_of_five_violations>  (1043) 
0

>  <aromatic_rings_count>  (1043) 
3

>  <qed_drug_likeliness>  (1043) 
0.66

>  <formal_charge>  (1043) 
0

>  <fractioncsp3>  (1043) 
0.25

>  <number_of_minimal_rings>  (1043) 
3

>  <van_der_walls_volume>  (1043) 
325.86

>  <contains_sugar>  (1043) 
False

>  <contains_ring_sugars>  (1043) 
False

>  <contains_linear_sugars>  (1043) 
False

>  <murcko_framework>  (1043) 
O1c2ccccc2CC=C1c3ccccc3

>  <np_likeness>  (1043) 
0.63

>  <chemical_class>  (1043) 
Flavonoids

>  <chemical_sub_class>  (1043) 
O-methylated flavonoids

>  <chemical_super_class>  (1043) 
Phenylpropanoids and polyketides

>  <direct_parent_classification>  (1043) 
6-O-methylated flavonoids

>  <np_classifier_pathway>  (1043) 
Shikimates and Phenylpropanoids

>  <np_classifier_superclass>  (1043) 
Flavonoids

>  <np_classifier_class>  (1043) 
Flavones

>  <np_classifier_is_glycoside>  (1043) 
False

>  <organisms>  (1043) 
Aceriphyllum rossii|Agnorhiza bolanderi|Alligator mississippiensis|Anaxagorea clavata|Angelica ursina|Araujia sericifera|Ardisia macrocarpa|Aria pallescens|Arnica nevadensis|Artemisia monogyna|Asplenium nidus|Asterias rubens|Astragalus inopinatus|Bassia butyracea|Beyeria brevifolia|Bursaria spinosa|Celmisia petriei|Chloranthus tianmushanensis|Chlorophytum malayense|Chromolaena odorata|Chromolaena pulchella|Chroogomphus rutilus|Cirsium helenioides|Citrus reticulata|Citrus sinensis|Cladonia evansii|Clausena indica|Clonostachys rosea|Clusia torresii|Coccus fagi|Dendrosenecio kilimanjari|Dipterocarpus alatus|Drosera peltata|Echinops amplexicaulis|Empetrum nigrum|Enterococcus faecalis|Epaltes gariepina|Ephedra lomatolepis|Eriogaster lanestris|Euonymus maackii|Ferula assa-foetida|Ficus formosana|Fusarium gibbosum|Gardenia fosbergii|Gentiana olivieri|Gnetum cleistostachyum|Handroanthus guayacan|Igernella notabilis|Ilex affinis|Ircinia aruensis|Isodon kameba|Jateorhiza palmata|Kaempferia pulchra|Lactarius scrobiculatus|Laurencia mariannensis|Lindera umbellata|Maytenus guianensis|Melibe leonina|Morus yunnanensis|Nicotiana gossei|Oceanapia phillipensis|Odixia angusta|Ophioplocus japonicus|Orthosiphon aristatus|Orthosiphon stamineus|Oryza sativa|Pheidole pallidula|Phleum africanum|Picradeniopsis oppositifolia|Pinus halepensis|Pinus thunbergii|Populus tremula|Primula veris|Prosopis glandulosa|Prunus laurocerasus|Pseudopterogorgia kallos|Pteris prolifera|Pterocarpus grandiflorus|Pterocaulon rugosum|Pyrosoma giganteum|Quercus aegilops|Rauvolfia tetraphylla|Rhizobium phaseoli|Salvia officinalis|Salvia prionitis|Satureja montana|Saussurea triangulata|Securidaca inappendiculata|Senecio grandiflorus|Senecio integerrimus|Senecio squalidus|Seriphidium cinum|Sesbania punicea|Simira eliezeriana|Stenostomum lucidum|Stephania succifera|Stevia salicifolia|Streptomyces althioticus|Taxodium mucronatum|Tetraria capillaris|Teucrium alyssifolium|Ulmus laciniata|Vernonia serratuloides|Vitex madiensis|Zephyranthes carinata

>  <collections>  (1043) 
CMAUP (cCollective molecular activities of useful plants)|FooDB|Latin America dataset|NPASS|NuBBEDB|Phyto4Health|Super Natural II|TCMDB-Taiwan (Traditional Chinese Medicine database)|TCMID (Traditional Chinese Medicine Integrated Database)|ZINC NP

>  <dois>  (1043) 
10.1021/jf801103p|10.1021/np000607t

>  <synonyms>  (1043) 
2-(3,4-Dimethoxyphenyl)-6,7,8-trimethoxy-4H-1-benzopyran-4-one|2-(3,4-Dimethoxyphenyl)-6,7,8-trimethoxy-4H-chromen-4-one|3',4',6,7,8-Pentamethoxyflavone|4H-1-Benzopyran-4-one, 2-(3,4-dimethoxyphenyl)-6,7,8-trimethoxy-|5-Demethoxynobiletin|5-demethoxynobiletin, 3'4'678-pentamethoxyflavone|CHEMBL478762|DTXSID80659575|FS-7304|SCHEMBL16894651

>  <cas>  (1043) 
nan

$$$$

     RDKit          2D

 29 32  0  0  0  0  0  0  0  0999 V2000
   -4.7033    4.1635    0.0000 C   0  0  0  0  0  0  0  0  0  0  0  0
   -4.4022    2.6941    0.0000 C   0  0  0  0  0  0  0  0  0  0  0  0
   -2.9790    2.2201    0.0000 C   0  0  0  0  0  0  0  0  0  0  0  0
   -5.5242    1.6986    0.0000 C   0  0  0  0  0  0  0  0  0  0  0  0
   -6.9474    2.1725    0.0000 C   0  0  0  0  0  0  0  0  0  0  0  0
   -5.2231    0.2291    0.0000 C   0  0  0  0  0  0  0  0  0  0  0  0
   -3.7999   -0.2448    0.0000 C   0  0  0  0  0  0  0  0  0  0  0  0
   -3.4988   -1.7143    0.0000 C   0  0  0  0  0  0  0  0  0  0  0  0
   -4.6209   -2.7098    0.0000 C   0  0  0  0  0  0  0  0  0  0  0  0
   -2.0757   -2.1883    0.0000 C   0  0  0  0  0  0  0  0  0  0  0  0
   -1.6226   -3.6182    0.0000 C   0  0  0  0  0  0  0  0  0  0  0  0
   -0.1226   -3.6292    0.0000 C   0  0  0  0  0  0  0  0  0  0  0  0
    0.3513   -2.2060    0.0000 C   0  0  0  0  0  0  0  0  0  0  0  0
    1.7261   -1.6060    0.0000 C   0  0  0  0  0  0  0  0  0  0  0  0
    2.9331   -2.4965    0.0000 C   0  0  0  0  0  0  0  0  0  0  0  0
    4.3078   -1.8965    0.0000 C   0  0  0  0  0  0  0  0  0  0  0  0
    4.4756   -0.4059    0.0000 C   0  0  0  0  0  0  0  0  0  0  0  0
    5.8503    0.1942    0.0000 C   0  0  0  0  0  0  0  0  0  0  0  0
    6.0180    1.6848    0.0000 C   0  0  0  0  0  0  0  0  0  0  0  0
    7.3928    2.2848    0.0000 O   0  0  0  0  0  0  0  0  0  0  0  0
    4.8110    2.5753    0.0000 C   0  0  0  0  0  0  0  0  0  0  0  0
    3.4362    1.9753    0.0000 C   0  0  0  0  0  0  0  0  0  0  0  0
    3.2685    0.4847    0.0000 C   0  0  0  0  0  0  0  0  0  0  0  0
    2.0615    1.3752    0.0000 C   0  0  0  0  0  0  0  0  0  0  0  0
    1.8938   -0.1154    0.0000 C   0  0  0  0  0  0  0  0  0  0  0  0
    0.6867    0.7751    0.0000 C   0  0  0  0  0  0  0  0  0  0  0  0
   -0.6880    0.1751    0.0000 C   0  0  0  0  0  0  0  0  0  0  0  0
   -0.8557   -1.3155    0.0000 C   0  0  0  0  0  0  0  0  0  0  0  0
   -2.1492   -0.5560    0.0000 C   0  0  0  0  0  0  0  0  0  0  0  0
  1  2  1  0
  2  3  1  0
  2  4  1  0
  4  5  1  1
  4  6  1  0
  6  7  1  0
  7  8  1  0
  8  9  1  6
  8 10  1  0
 10 11  1  6
 11 12  1  0
 13 12  1  6
 13 14  1  0
 14 15  1  1
 15 16  1  0
 16 17  2  0
 17 18  1  0
 18 19  1  0
 19 20  1  6
 19 21  1  0
 21 22  1  0
 22 23  1  0
 23 24  1  6
 23 25  1  0
 25 26  1  6
 26 27  1  0
 27 28  1  0
 28 29  1  6
 28 10  1  0
 28 13  1  0
 25 14  1  0
 23 17  1  0
M  END
>  <identifier>  (1044) 
CNP0291093.5

>  <canonical_smiles>  (1044) 
CC(C)[C@H](C)CC[C@@H](C)[C@H]1CC[C@H]2[C@@H]3CC=C4C[C@@H](O)CC[C@]4(C)[C@H]3CC[C@]12C

>  <standard_inchi>  (1044) 
InChI=1S/C28H48O/c1-18(2)19(3)7-8-20(4)24-11-12-25-23-10-9-21-17-22(29)13-15-27(21,5)26(23)14-16-28(24,25)6/h9,18-20,22-26,29H,7-8,10-17H2,1-6H3/t19-,20-,22+,23+,24-,25+,26+,27+,28-/m1/s1

>  <standard_inchi_key>  (1044) 
SGNBVLSWZMBQTH-PODYLUTMSA-N

>  <name>  (1044) 
CAMPESTEROL

>  <iupac_name>  (1044) 
(3~{S},8~{S},9~{S},10~{R},13~{R},14~{S},17~{R})-10,13-dimethyl-17-[(1~{R},4~{R})-1,4,5-trimethylhexyl]-2,3,4,7,8,9,11,12,14,15,16,17-dodecahydro-1~{H}-cyclopenta[a]phenanthren-3-ol

>  <annotation_level>  (1044) 
5

>  <total_atom_count>  (1044) 
77

>  <heavy_atom_count>  (1044) 
29

>  <molecular_weight>  (1044) 
400.69

>  <exact_molecular_weight>  (1044) 
400.37052

>  <molecular_formula>  (1044) 
C28H48O

>  <alogp>  (1044) 
7.63

>  <topological_polar_surface_area>  (1044) 
20.23

>  <rotatable_bond_count>  (1044) 
5

>  <hydrogen_bond_acceptors>  (1044) 
1

>  <hydrogen_bond_donors>  (1044) 
1

>  <hydrogen_bond_acceptors_lipinski>  (1044) 
1

>  <hydrogen_bond_donors_lipinski>  (1044) 
1

>  <lipinski_rule_of_five_violations>  (1044) 
1

>  <aromatic_rings_count>  (1044) 
0

>  <qed_drug_likeliness>  (1044) 
0.47

>  <formal_charge>  (1044) 
0

>  <fractioncsp3>  (1044) 
0.93

>  <number_of_minimal_rings>  (1044) 
4

>  <van_der_walls_volume>  (1044) 
430.54

>  <contains_sugar>  (1044) 
False

>  <contains_ring_sugars>  (1044) 
False

>  <contains_linear_sugars>  (1044) 
False

>  <murcko_framework>  (1044) 
C1=C2CCCCC2C3CCC4CCCC4C3C1

>  <np_likeness>  (1044) 
2.68

>  <chemical_class>  (1044) 
Steroids and steroid derivatives

>  <chemical_sub_class>  (1044) 
Ergostane steroids

>  <chemical_super_class>  (1044) 
Lipids and lipid-like molecules

>  <direct_parent_classification>  (1044) 
Ergosterols and derivatives

>  <np_classifier_pathway>  (1044) 
Terpenoids

>  <np_classifier_superclass>  (1044) 
Steroids

>  <np_classifier_class>  (1044) 
Cholestane steroids

>  <np_classifier_is_glycoside>  (1044) 
False

>  <organisms>  (1044) 
Abies balsamea|Abies firma|Abies sp.|Acacia leptostachya|Acanthaster planci|Acanthosyris spinescens|Acanthus ilicifolius|Acaulospora laevis|Achillea arabica|Achillea aspleniifolia|Achillea biebersteinii|Achillea clypeolata|Achillea micrantha|Achillea millefolium|Achillea virescens|Acinos thymoides|Aconitum koreanum|Aconitum leucostomum|Adiantum caudatum|Aegiceras corniculatum|Aesculus hippocastanum|Aesculus sp.|Aframomum cereum|Aframomum sceptrum|Agaricus bisporus|Agaricus hortensis|Agaricus integer|Agaricus silvaticus|Agelas sceptrum|Aglaia odorata|Agrimonia eupatoria|Ajuga bracteosa|Aleurites fordii Hemsl.|Aleurites moluccanus|Aleurites sp.|Alitta succinea|Allanblackia gabonensis|Allium monspessulanum|Allium neapolitanum|Allomyces macrogynus|Alluaudia humbertii|Aloe africana|Aloe rubroviolacea|Alpinia zerumbet|Alsophila spinulosa|Alstonia lanceolifera|Alstroemeria aurantiaca|Alstroemeria aurea|Amaranthus blitum|Amaranthus caudatus|Amaranthus cruentus|Amaranthus graecizans|Amaranthus hybridus|Amaranthus hypochondriacus|Amaranthus leucocarpus|Amaranthus lividus|Amaranthus retroflexus|Amaranthus tricolor|Amelanchier canadensis|American ginseng|Amphilectus digitatus|Amphilectus fucorum|Amsonia elliptica|Anacyclus sp.|Anaphalis margaritacea|Anarsia lineatella|Anastatica hierochuntica|Andrographis paniculata|Angelica atropurpurea|Annona cherimola|Annona coriacea|Annona squamosa|Anoectochilus koshunensis|Anthopleura xanthogrammica|Antitrogus consanguineus|Apis mellifera|Apium graveolens|Apollonias barbujana|Aquilegia ecalcarata|Arabidopsis thaliana|Arabis purpurea|Arachis hypogaea|Aralia hispida|Aralia nudicaulis|Arbutus menziesii|Arctium sp.|Aristolochia indica|Arnica foliosa|Artemisia annua|Artemisia annua L.|Artemisia apiacea|Artemisia caerulescens|Artemisia hanseniana|Artemisia keiskeana|Artemisia monosperma|Artemisia taurica|Arundo donax|Asclepias speciosa|Asclepias syriaca|Aspergillus japonicus|Asphodelus albus|Asphodelus sp.|Aster acuminatus|Asterias forbesi|Astragalus glycyphyllos|Athanasia crithmifolia|Aureococcus anophagefferens|Aureoumbra lagunensis|Avena byzantina|Avena sativa|Avicennia officinalis|Axinella aruensis|Axinella cannabina|Azadirachta indica|Azolla nilotica|Baccharis crispa|Baccharoides anthelmintica|Bauhinia candicans|Bauhinia vahlii L.|Bazzania spiralis|Benzoin praecox|Berberis aquifolium|Berberis julianae|Biancaea sappan|Blumea mollis|Blutaparon portulacoides|Boehmeria excelsa|Boehmeria holosericea|Boehmeria japonica tenera|Boehmeria tricuspis|Boerhavia diffusa|Bombax ceiba|Bombax malabaricum|Bombyx mori|Bossiella orbigniana|Brassica campestris|Brassica campestris L.|Brassica napa|Brassica napus|Brassica oleracea|Brassica oleracea var. sabauda|Brassica rapa|Brassica rapa L.|Brassica rapa subsp. oleifera|Brassica sp.|Bredia tuberculata|Bridelia ferruginea|Bridelia ovata|Bruguiera gymnorhiza|Bruguiera gymnorrhiza|Bryum rutilans|Buccinum undatum|Buchenavia tetraphylla|Bugula neritina|Burkholderia pyrrocinia|Byssothecium obiones|Bystropogon origanifolius|Cabralea canjerana|Cachonina hallii|Cailliea cinerea|Calendula sp.|Campanula medium|Canarium schweinfurthii|Canavalia ensiformis|Canistrocarpus cervicornis|Canna sp.|Cannabis sativa|Cantharellus cibarius|Capparis masaikai|Capsella bursa-pastoris|Capsicum annuum|Cardamine pinnata|Cardiospermum sp.|Carthamus tinctorius|Carya illinoinensis|Cassia sp.|Casuarina sp.|Catharanthus roseus|Ceanothus velutinus|Cedrela odorata|Celosia argentea|Celtis australis|Cenchrus americanus|Centaurea napifolia|Centaurea nigra|Centaurium|Centaurium sp.|Centella asiatica|Ceramium botryocarpum|Cerbera dilatata|Cereus chrysacanthus|Ceriops decandra|Cetraria pinastri|Chamaecyparis obtusa|Chamaecyparis pisifera|Cheilanthes tenuifolia|Cheiropleuria bicuspis|Chenopodium rubrum|Chlorophytum borivilianum|Choisya ternata|Chorisia insignis|Chorisia speciosa|Chromodoris obsoleta|Chrysobalanus icaco|Cichorium intybus|Cichorium spinosum|Cinnamosma madagascariensis|Cissus rheifolia|Citrus karna|Citrus medica|Citrus medica var. sarcodactylis|Citrus reticulata|Citrus sp.|Citrus unshiu|Citrus × deliciosa|Citrus × paradisi|Cladocroce incurvata|Cladonia amaurocraea|Clerodendrum chinense|Clerodendrum infortunatum|Clintonia borealis|Cneorum pulverulentum|Cocos nucifera|Codonocarpus australis|Coeloseira pacifica|Coix lacryma-jobi|Commelina undulata|Commiphora sp.|Convolvulus arvensis|Coptis trifolia|Cordia rothii|Cornus canadensis|Corydalis caucasica|Corydalis claviculata|Corydendrium parasiticum|Corylus avellana|Corylus maxima|Costus spiralis|Costus tonkinensis|Crateva nurvala|Crepis pulchra|Crotalaria podocarpa|Crotalaria trichotoma|Croton hieronymi|Croton urucurana|Croton urucurana Baill.|Crotone hieronymi|Cucurbita|Cucurbita maxima|Cucurbita pepo|Cucurbita sp.|Culicinomyces clavisporus|Curcuma kwangsiensis|Curcuma phaeocaulis|Curcuma wenyujin|Curcuma zedoaria|Cuscuta campestris|Cuscuta pentagona|Cyanthillium cinereum|Cyathus helenae|Cycas armstrongii|Cycas revoluta|Cymbopogon citratus|Cymodocea nodosa|Cynara humilis|Cynomorium songaricum|Cypripedium acaule|Cystofilobasidium infirmominiatum|Cystoseira barbata|Daldinia concentrica|Dasiphora fruticosa|Dasystenella acanthina|Daucus carota|Delphinium staphisagria|Dendranthema sp.|Dermocybe cinnabarina|Derris trifoliata|Dianthus armeria|Dictyopteris delicatula|Dictyopteris plagiogramma|Dictyota cervicornis|Dictyota dichotoma|Digitalis lanata|Digitalis lanata Ehrh.|Dimorphotheca ecklonis|Dioscorea bartlettii|Dioscorea communis|Dioscorea convolvulacea|Dioscorea cyphocarpa|Dioscorea dumetorum|Dioscorea floribunda|Dioscorea hondurensis|Dioscorea nelsonii|Diospyros kaki|Diospyros verrucosa|Diplopteraster multipes|Diplopterygium glaucum|Diploschistes cretaceus|Dipterocarpus dyeri|Doellingeria umbellata var. umbellata|Dolichospermum viguieri|Dracaena cinnabari|Dragmacidon lunaecharta|Dryopteris crassirhizoma|Duguetia hadrantha|Dysidea fragilis|Echinometra lucunter|Echinops niveus|Echinops spinosissimus|Echiochilon pauciflorum|Ecteinascidia thurstoni|Eleocharis acutangula|Eleocharis sellowiana|Ellisella paraplexauroides|Emilia coccinea|Endiandra palmerstoni|Ephedra aphylla|Ephedra equisetina|Epidendrum fulgens|Erimacrus isenbeckii|Eruca vesicaria subsp. sativa|Eryngium foetidum|Erysimum carniolicum|Erythrina arborescens Roxb.|Etlingera elatior|Eucalyptus bakeri|Eucalyptus exserta|Eunicella labiata|Euonymus japonicus|Euonymus nanoides|Eupatorium perfoliatum|Euphorbia bivonae|Euphorbia characias|Euphorbia indica|Euphorbia lathyris|Euphorbia milii|Euphorbia nivulia|Euphorbia sp.|Euphorbia tirucalli|Euphrasia nemorosa|Euthamia graminifolia|Eutreptia viridis|Fagara tessmannii Engl.|Fagopyrum esculentum|Festuca argentina|Festuca hieronymi|Ficus pumila|Flammulina velutipes|Formica polyctena|Fragaria vesca|Fraxinus chinensis subsp. rhynchophylla|Fraxinus sp.|Fritillaria pallidiflora|Frullania falciloba|Frullania monocera|Fumaria kraliki|Fusarium sporotrichioides|Galega officinalis|Garcinia|Garcinia scortechinii|Gardenia tubifera|Gaultheria procumbens|Gentiana lutea L.|Ginkgo sp.|Glebionis coronaria|Glebionis coronarium|Gleditsia triacanthos|Gleichenia japonica|Glenodinium halli|Gloiopeltis furcata|Glomus mosseae|Glycine ma|Glycine max|Glycine sp.|Gmelina arborea|Gmelina leichhardtii|Gomphrena celosioides|Goniophlebium formosanum|Goniophlebium mengtzeense|Gossypium sturtianum|Gouania ulmifolia|Great yellow gentian|Grewia bicolor|Grewia damine|Grifola frondosa|Gryllotalpa orientalis|Haplophyllum bucharicum|Harrisonia abyssinica|Hedera canariensis|Hedera sp.|Hedyotis lawsoniae|Hedysarum multijugum|Hedysarum setigerum|Helianthus annuus|Helianthus sp.|Helichrysum nudifolium|Heliotropium indicum|Helipterum venustum|Hermidium alipes|Herrania albiflora|Heterotheca inuloides|Hibiscus cannabinus|Hieracium canadense|Hieracium kalmii|Hippophae rhamnoides|Homalolepis cuneata|Hornschuchia citriodora|Hoslundia opposita|Humboldtia laurifolia|Hunteria corymbosa|Hydnocarpus octandra|Hyella caespitosa|Hypericum carinatum|Hypericum perforatum|Hyphochytrium catenoides|Hypopitys monotropa|Hypotrachyna immaculata|Hypoxis nyasica|Hyrtios eubamma|Ilex macropoda|Ilex sp.|Illicium sp.|Inga paterno|Ipheion uniflorum|Ipomoea cairica|Iris pallida|Iris versicolor|Isoberlinia angolensis|Isodon lophanthoides|Isodon umbrosus|Isoplexis chalcantha|Jacobaea arnautorum|Jacobaea pancicii|Jacobaea subalpina|Jatropha sp.|Juglans regia|Justicia trinervia|Kalanchoe daigremontiana|Kalanchoe deficiens|Kalanchoe integra|Kalanchoe lanceolata|Kalanchoe marmorata|Kalanchoe petitiana|Kalanchoe pinnata|Kalanchoe spathulata|Kali collinum|Kalmia angustifolia|Khaya anthotheca|Khaya ivorensis|Khaya senegalensis|Khaya senegalensis L.|Kielmeyera variabilis|Knema attenuata|Koelreuteria paniculata|Kopsia grandifolia|Lactobacillus casei|Lactuca sp.|Lagenaria siceraria|Lantana camara|Lantana strigocamara|Lappula intermedia|Larix gmelinii|Larix sibirica|Larix sp.|Laserpitium siler|Lasianthus fordii|Lecidea lithophila|Ledebouria socialis|Lens culinaris|Lentinus edodes|Lepidium meyenii|Lepista irina|Leptogorgia piccola|Leptogorgia ruberrima|Leptogorgia rubroflavescens|Leptogorgia viminalis|Leptogorgia violetta|Leucas aspera|Libanotis intermedia|Licaria armeniaca|Lindera sp.|Linum usitatissimum|Lithodora fruticosa|Lobatiriccardia lobata|Lonicera japonica|Lupinus albus|Lupinus sp.|Lycium cestroides|Lycium sp.|Lycopodium sp.|Lycopus europaeus|Macaranga sampsonii|Macaranga sinensis|Macrotyloma uniflorum|Magnolia salicifolia|Maianthemum canadense|Mallotus sp.|Mammillaria magnimamma|Mangifera indica|Mannia fragrans|Marchantia palmata|Marchantia polymorpha|Marchantia sp.|Markhamia zanzibarica|Matteuccia struthiopteris|Maytenus salicifolia|Melicope latifolia|Melicope semecarpifolia|Melicope sessiliflora|Melissa officinalis|Mikania campanulata|Mikania decora|Mikania hoehnei|Mikania stipulacea|Mirabilis jalapa|Mitchella repens|Monanchora pulchra|Monoblepharella sp.|Monostroma fuscum|Monotropa hypopitys|Monotropa uniflora|Monteverdia aquifolium|Monteverdia ilioppjfeowneviufheiuwfew fgr|Monteverdia truncata|Mortierella elongata|Munronia delavayi|Muricea californica|Mus musculus|Musa sp.|Mycobacterium tuberculosis|Myristica sp.|Nabalus trifoliolatus|Narcissus tazetta|Nauclea diderrichii|Neanthes succinea|Nectandra pichurim|Nelumbo nucifera|Neoesperiopsis digitata|Neonectria candida|Nepeta tenuifolia|Nicotiana benthamiana|Nicotiana debneyi|Nicotiana forsteri|Nicotiana fragrans|Nicotiana paniculata|Nicotiana tabacum|Nigella sativa|Nothoscordum bivalve var. bivalve|Nothoscordum gracile|Nothoscordum montevidense|Nymphaea odorata|Ocimum spicatum|Oclemena acuminata|Oenothera biennis|Oeosporangium kuhnii|Olea europaea|Olea sp.|Oleandra wallichii|Ononis sp.|Ophiocordyceps sinensis|Ormosia discolor|Ormosia elata|Oryza coarctata|Oryza sativa|Osmia laevigata|Otostegia fruticosa|Oxybasis rubra|Oxyceros horridus|Pachycereus tehuantepecanus|Padina gymnospora|Padina vickersiae|Paederia foetida|Paeonia emodi|Paeonia lactiflora|Paeonia rockii|Paeonia × suffruticosa|Paepalanthus hilairei|Palhinhaea cernua|Panax ginseng|Panax innovans|Panicum miliaceum|Papaver rhoeas|Papaver somniferum|Paranephelius uniflorus|Parasenecio auriculata|Parasenecio auriculatus|Pardachirus pavoninus|Pavlova gyrans|Penicillium cinerascens|Pentaphalangium solomonse Warb.|Peperomia pellucida|Perilla frutescens|Periploca forrestii|Perovskia abrotanoides|Persea americana|Persea mexicana|Persea sp.|Pestalotiopsis virgatula|Petalostemon purpureum|Petrosia ficiformis|Petrosia weinbergi|Peucedanum alsaticum|Phallusia nigra|Phascolosoma vulgare|Phegopteris subaurita|Phlomis regelii|Phoenix dactylifera|Phoenix theophrasti|Phyllanthus flexuosus|Phyllidiella pustulosa|Physalis peruviana|Physarum polycephalum|Picea obovata|Picrolemma|Pieris formosa|Pinellia ternata|Pinus armandi|Pinus sibirica|Pistacia vera|Pisum sativum|Pityrogramma tartarea|Placopecten magellanicus|Plagiochila acanthophylla|Plakinastrella clathrata|Plantago asiatica|Plantago major|Plectocephalus chilensis|Pleogyne cunninghami|Pleogyne cunninghamii|Pleurotus ostreatus|Pleurozia gigantea|Plumbago indica|Plumeria|Podocarpus amarus|Podophyllum hexandrum|Polygala amara|Pontederia cordata|Portulaca oleracea|Posidonia australis|Posidonia oceanica|Potebniamyces gallicola|Potentilla fruticosa|Prosopis cineraria|Prosopis glandulosa|Prosopis spicigera|Protohermes grandis|Prunus africana|Prunus armeniaca|Prunus dulcis|Pseudallescheria boydii|Pseudanabaena persicina|Pseudomonas aeruginosa|Pseudomonas chlororaphis|Psilotum nudum|Psophocarpus tetragonolobus|Pterocaulon alopecuroides|Pterocaulon polystachyum|Ptilota pectinata|Punica granatum|Pyrola decorata|Quercus ilex|Quercus rotundifolia|Quercus serrata|Quercus sp.|Quercus suber|Radula kojana|Rehmannia sp.|Rhabdodendron amazonicum|Rheum hotaoense|Rhinella arenarum|Rhizidiomyces apophysatus|Rhizophora apiculata|Rhizophora mucronata|Rhizopogon pumilionus|Rhodobacter sphaeroides|Rhododendron aureum|Rhododendron groenlandicum|Rhododendron makinoi|Rollinia laurifolia|Rothmannia macrophylla|Rubus allegheniensis|Rubus rosa|Rubus rosaefolius|Rubus rosifolius|Rudbeckia hirta var. pulcherrima|Ruellia tuberosa|Rumex paulsenianus|Ruppia cirrhosa|Ruppia maritima|Ruscus sp.|Russian comfrey|Saccharomyces cerevisiae|Saccharopolyspora erythraea|Saccharothrix mutabilis|Salsola collina|Salvia fruticosa|Salvia hispanica|Salvia officinalis|Salvia triloba|Sambucus canadensis|Sambucus nigra|Sambucus sp.|Sanguinaria canadensis|Sanicula epipactis|Sarcophyton crassocaule|Sarracenia purpurea|Sauromatum giganteum|Sauropus quadrangularis|Saussurea controversa|Scarlet firethorn|Schefflera rhododendrifolia|Schizonepeta multifida|Schleichera oleosa|Schleichera trijuga|Schottera nicaeensis|Scorzonera hispanica|Scorzoneroides atlantica|Scorzoneroides autumnalis|Scutellaria baicalensis|Sea peach|Searsia thyrsiflora|Selaginella uncinata|Senecio viravira|Senecio viscosus|Senna petersiana|Senna siamea|Senna singueana|Septoria pistaciarum|Sesamum alatum|Sesamum angustifolium|Sesamum orientale|Sesamum radiatum|Sesamum sp.|Seseli campestre|Setaria glauca|Setaria italica|Shorea sp.|Sideritis arborescens|Sideritis argosphacelus|Sideritis argosphacelus var. spicata|Sideritis candicans var.eriocephala|Sideritis discolor|Sideritis kuegleriana|Sideritis lasiantha|Sideritis lotsyi|Sideritis lotsyi var. mascaensis|Sideritis soluta|Sideritis syriaca|Sideritis taurica|Sideritis tenoi|Siler montanum|Silybum sp.|Simplicillium lanosoniveum|Sinapis sp.|Sindora sumatrana|Sinopodophyllum hexandrum|Sinularia molesta|Siphocampylus verticillatus|Sipunculus nudus|Sloanea zuliaensis|Smilax glabra|Smilax macrophylla|Solanum americanum|Solanum argentinum|Solanum arundo|Solanum aviculare|Solanum chacoense Bitt.|Solanum dulcamara|Solanum lanceolatum|Solanum lycopersicum|Solanum mammosum|Solanum melongena|Solanum nigrum|Solanum palitans|Solanum pseudocapsicum|Solanum ptychanthum|Solanum torvum|Solanum tuberosum|Solanum virginianum|Solidago puberula|Solidago rugosa|Sonchus arvensis|Sonchus mauritanicus|Sonneratia alba|Sophora viciifolia|Sordaria araneosa|Sorghum bicolor|Spilanthes ocymifolia|Spizellomyces punctatum|Stanhopea lietzei|Staphisagria macrosperma|Stauntonia hexaphylla|Stephania sutchuenensis|Stichopus horrens|Strachybotrys alternans|Streptomyces atratus|Streptomyces caelestis|Streptomyces fumanus|Streptomyces lavendofoliae|Streptomyces mutabilis|Streptomyces odorifer|Streptomyces roseoviolaceus|Streptomyces sclerotialus|Streptomyces violaceusniger|Strychnos dolichothyrsa|Strychnos dolychothyrsa|Suaeda maritima|Suillus bovinus|Swamp dewberry|Swertia japonica|Symphoricarpos albus|Symphyotrichum novi-belgii var. novi-belgii|Symphyotrichum subulatum var. squamatum|Symphytum asperum|Symphytum officinale|Symplocarpus foetidus|Syzygium aromaticum|Syzygium sp.|Tabernaemontana catharinensis|Tabernaemontana divaricata|Tabernaemontana pachysiphon|Tamus communis|Tamus communis L.|Tanacetum sp.|Tanacetum vulgare|Taraxacum hallaisanense|Taraxacum sp.|Taxus cuspidata|Tephroseris integrifolia|Tetracera rosiflora|Tetragonia tetragonoides|Tetraneuris acaulis|Teucrium montanum|Teucrium orientale|Teucrium pilosum|Thamnolia vermicularis|Theobroma speciosum|Thomandersia laurifolia|Thujopsis dolabrata|Tillandsia brachycaulos|Tillandsia fasciculata|Tillandsia fragrans|Tillandsia streptocarpa|Toona ciliata|Trichilia hirta|Trichoderma citrinum|Trichosanthes kirilowii|Trifoliate orange|Tripterospermum japonicum|Triticum sp.|Triticum spp|Triticum spp.|Tsuga chinensis|Turbo argyrostoma|Tussilago farfara|Tussilago sp.|Typha capensis|Typha domingensis|Typha latifolia|Udotea cyathiformis|Ulmus sp.|Ulva prolifera|Umbilicaria cinereorufescens|Umbilicaria indica|Unonopsis glaucopetala|Urginea sp.|Urtica dioica|Uruparia pilosa|Uvariopsis tripetala|Vanilla planifolia|Vellozia declinans|Vellozia stipitata|Veltheimia viridifolia|Verbascum thapsus|Vernicia fordii|Vernonia echitifolia|Vigna angularis|Virola peruviana|Vitis vinifera|Water net|West African Pepper|Wettsteinia inversa|Xanthium strumarium|Xanthomonas citri|Xylopia aethiopica|Yucca gloriosa|Zantedeschia aethiopica|Zanthoxylum petiolare|Zanthoxylum wutaiense|Zieria smithii|Ziziphora pedicellata|clove|common sunflower|green bristle-grass|maize|pomegranate|potato|sesame|soybean|sweet potato|tomato

>  <collections>  (1044) 
Australian natural products|CMAUP (cCollective molecular activities of useful plants)|ChEBI NPs|EMNPD|KNApSaCK|Latin America dataset|NPASS|NPEdia|NuBBEDB|Phyto4Health|PhytoLab phyproof® Reference Substances|Super Natural II|TCMDB-Taiwan (Traditional Chinese Medicine database)|TIPdb (database of Taiwan indigenous plants)|WikiData Natural Products

>  <dois>  (1044) 
10.1002/(SICI)1099-1573(199805)12:3<209::AID-PTR215>3.0.CO;2-P|10.1002/(SICI)1099-1573(199902)13:1<78::AID-PTR384>3.0.CO;2-F|10.1002/1099-1565(200011/12)11:6<345::AID-PCA540>3.0.CO;2-T|10.1002/ARDP.19873200503|10.1002/CHIN.200340213|10.1002/JCCS.198500075|10.1002/JCCS.200000051|10.1002/JHRC.1240090210|10.1002/JPS.2600620431|10.1002/JPS.2600620945|10.1002/JPS.2600710621|10.1002/JSFA.2740580210|10.1002/JSFA.2740590309|10.1002/PCA.757|10.1002/PTR.2189|10.1002/PTR.2650080603|10.1006/BIOO.1993.1007|10.1007/BF00267653|10.1007/BF00269298|10.1007/BF00565153|10.1007/BF00574357|10.1007/BF00574580|10.1007/BF00575174|10.1007/BF00575732|10.1007/BF00579631|10.1007/BF00579640|10.1007/BF00598098|10.1007/BF00598781|10.1007/BF00601276|10.1007/BF00629775|10.1007/BF00630021|10.1007/BF00630093|10.1007/BF00630226|10.1007/BF00630230|10.1007/BF00630431|10.1007/BF00630448|10.1007/BF00630587|10.1007/BF00633411|10.1007/BF00633412|10.1007/BF00986610|10.1007/BF01196983|10.1007/BF01952468|10.1007/BF02236284|10.1007/BF02238348|10.1007/BF02249626|10.1007/BF02249629|10.1007/BF02535183|10.1007/BF02536431|10.1007/BF02536432|10.1007/BF02537347|10.1007/BF02540460|10.1007/BF02540958|10.1007/BF02541498|10.1007/BF02541591|10.1007/BF02541638|10.1007/BF02637687|10.1007/BF02660305|10.1007/BF02679791|10.1007/BF02855699|10.1007/BF02856537|10.1007/BF02857191|10.1007/BF02986008|10.1007/BF02986020|10.1007/S10600-008-9141-9|10.1007/S10600-010-9670-X|10.1007/S10600-010-9690-6|10.1007/S10600-011-0026-Y|10.1007/S10600-011-9953-X|10.1007/S10600-014-1165-8|10.1007/S11745-997-0026-Z|10.1007/S11746-004-1019-Z|10.1007/S11746-998-0009-8|10.1007/S13765-017-0340-6|10.1007/s003940050048|10.1016/0031-9422(73)80027-5|10.1016/0031-9422(74)80221-9|10.1016/0031-9422(75)80399-2|10.1016/0031-9422(75)85316-7|10.1016/0031-9422(77)84040-5|10.1016/0031-9422(80)83085-8|10.1016/0031-9422(82)83143-9|10.1016/0031-9422(82)85264-3|10.1016/0031-9422(83)80054-5|10.1016/0031-9422(83)85034-1|10.1016/0031-9422(84)83043-5|10.1016/0031-9422(84)83081-2|10.1016/0031-9422(84)83084-8|10.1016/0031-9422(85)80030-3|10.1016/0031-9422(86)88046-3|10.1016/0031-9422(88)80141-9|10.1016/0031-9422(88)80204-8|10.1016/0031-9422(88)80296-6|10.1016/0031-9422(88)80603-4|10.1016/0031-9422(88)80623-X|10.1016/0031-9422(88)80693-9|10.1016/0031-9422(88)83098-X|10.1016/0031-9422(90)80125-Z|10.1016/0031-9422(90)80150-F|10.1016/0031-9422(90)80154-9|10.1016/0031-9422(90)80196-N|10.1016/0031-9422(90)83037-2|10.1016/0031-9422(90)85028-E|10.1016/0031-9422(90)85196-M|10.1016/0031-9422(90)85251-A|10.1016/0031-9422(90)85406-6|10.1016/0031-9422(91)80015-S|10.1016/0031-9422(91)80079-G|10.1016/0031-9422(91)83027-I|10.1016/0031-9422(91)84129-G|10.1016/0031-9422(91)85148-S|10.1016/0031-9422(92)80279-N|10.1016/0031-9422(92)80289-Q|10.1016/0031-9422(92)80374-N|10.1016/0031-9422(92)80451-J|10.1016/0031-9422(92)83108-B|10.1016/0031-9422(92)83142-L|10.1016/0031-9422(92)83750-S|10.1016/0031-9422(93)80053-U|10.1016/0031-9422(93)85036-Q|10.1016/0031-9422(93)85451-V|10.1016/0031-9422(94)00743-D|10.1016/0031-9422(94)00930-R|10.1016/0031-9422(95)00093-3|10.1016/0031-9422(95)00907-8|10.1016/0031-9422(96)00063-5|10.1016/0039-128X(80)90068-9|10.1016/0039-128X(80)90095-1|10.1016/0039-128X(81)90070-2|10.1016/0039-128X(81)90072-6|10.1016/0039-128X(82)90021-6|10.1016/0039-128X(83)90093-4|10.1016/0039-128X(86)90008-5|10.1016/0039-128X(89)90015-9|10.1016/0039-128X(89)90036-6|10.1016/0039-128X(94)90124-4|10.1016/0039-128X(95)00055-U|10.1016/0168-9452(91)90045-A|10.1016/0305-0491(92)90235-J|10.1016/0305-1978(87)90052-4|10.1016/0305-1978(91)90009-O|10.1016/0305-1978(96)00011-7|10.1016/0378-8741(83)90070-3|10.1016/0378-8741(84)90002-3|10.1016/0378-8741(86)90109-1|10.1016/0960-8524(92)90053-Z|10.1016/J.BIOPHA.2018.10.171|10.1016/J.BSE.2020.104014|10.1016/J.FOODCHEM.2019.125649|10.1016/J.FOODRES.2020.109416|10.1016/J.JEP.2004.07.022|10.1016/J.JFMA.2013.08.003|10.1016/J.PHYMED.2007.03.018|10.1016/J.PHYTOCHEM.2004.06.021|10.1016/J.PHYTOCHEM.2009.05.011|10.1016/J.PHYTOL.2011.04.006|10.1016/S0021-9673(01)81925-7|10.1016/S0021-9673(98)00049-1|10.1016/S0021-9673(98)00084-3|10.1016/S0024-3205(99)00652-9|10.1016/S0031-9422(00)00108-4|10.1016/S0031-9422(00)80073-4|10.1016/S0031-9422(00)80074-6|10.1016/S0031-9422(00)80080-1|10.1016/S0031-9422(00)80787-6|10.1016/S0031-9422(00)81167-X|10.1016/S0031-9422(00)81516-2|10.1016/S0031-9422(00)81558-7|10.1016/S0031-9422(00)81735-5|10.1016/S0031-9422(00)82294-3|10.1016/S0031-9422(00)82341-9|10.1016/S0031-9422(00)82541-8|10.1016/S0031-9422(00)83075-7|10.1016/S0031-9422(00)83488-3|10.1016/S0031-9422(00)83533-5|10.1016/S0031-9422(00)84109-6|10.1016/S0031-9422(00)84127-8|10.1016/S0031-9422(00)84516-1|10.1016/S0031-9422(00)84605-1|10.1016/S0031-9422(00)85067-0|10.1016/S0031-9422(00)86810-7|10.1016/S0031-9422(00)88402-2|10.1016/S0031-9422(00)88806-8|10.1016/S0031-9422(00)88867-6|10.1016/S0031-9422(00)88875-5|10.1016/S0031-9422(00)89105-0|10.1016/S0031-9422(00)89523-0|10.1016/S0031-9422(00)89743-5|10.1016/S0031-9422(00)90430-8|10.1016/S0031-9422(00)90433-3|10.1016/S0031-9422(00)90526-0|10.1016/S0031-9422(00)91131-2|10.1016/S0031-9422(00)94818-0|10.1016/S0031-9422(00)95112-4|10.1016/S0031-9422(01)00135-2|10.1016/S0031-9422(02)00542-3|10.1016/S0031-9422(03)00202-4|10.1016/S0031-9422(05)80098-6|10.1016/S0031-9422(96)00588-2|10.1016/S0031-9422(96)00747-9|10.1016/S0031-9422(96)00818-7|10.1016/S0031-9422(97)00090-3|10.1016/S0031-9422(97)00101-5|10.1016/S0031-9422(97)00860-1|10.1016/S0031-9422(97)00872-8|10.1016/S0031-9422(97)01020-0|10.1016/S0031-9422(97)01126-6|10.1016/S0031-9422(98)00092-2|10.1016/S0031-9422(98)00555-X|10.1016/S0031-9422(99)00390-8|10.1016/S0039-128X(02)00033-8|10.1016/S0039-128X(99)00068-9|10.1016/S0040-4020(01)85914-7|10.1016/S0090-4295(99)00549-X|10.1016/S0367-326X(00)00155-6|10.1016/S0367-326X(00)00239-2|10.1016/S0367-326X(01)00327-6|10.1016/S0367-326X(99)00005-2|10.1016/S0378-8741(02)00172-1|10.1016/S0378-8741(97)00039-1|10.1016/S0944-7113(98)80006-8|10.1016/j.bse.2005.10.012|10.1016/j.foodres.2020.109416|10.1016/s0031-9422(98)00092-2|10.1021/JA01857A615|10.1021/JF00048A018|10.1021/JF010701V|10.1021/JF010813M|10.1021/JF071110T|10.1021/JF60213A026|10.1021/JF60232A043|10.1021/NP000148W|10.1021/NP0100744|10.1021/NP010122K|10.1021/NP0301083|10.1021/NP040149E|10.1021/NP040219H|10.1021/NP0496845|10.1021/NP070154T|10.1021/NP50008A001|10.1021/NP50030A021|10.1021/NP50032A017|10.1021/NP50032A024|10.1021/NP50032A029|10.1021/NP50033A005|10.1021/NP50034A043|10.1021/NP50035A020|10.1021/NP50041A017|10.1021/NP50042A027|10.1021/NP50050A057|10.1021/NP50051A034|10.1021/NP50063A024|10.1021/NP50078A010|10.1021/NP50081A004|10.1021/NP50090A007|10.1021/NP700719E|10.1021/NP9804740|10.1021/NP9901480|10.1021/NP990205P|10.1021/acs.jnatprod.5b00858|10.1021/jf071801p|10.1023/B:CONC.0000025478.84294.5B|10.1038/NPLANTS.2016.205|10.1038/s41598-022-14381-w|10.1039/C39840001174|10.1039/C39850000148|10.1039/C39940000773|10.1039/J39670000329|10.1039/P19740002423|10.1039/P19830000147|10.1039/P19920000569|10.1042/BJ0990735|10.1051/CTV/20163101031|10.1055/S-0028-1097375|10.1055/S-0028-1097490|10.1055/S-0028-1097580|10.1055/S-0028-1097595|10.1055/S-0028-1097836|10.1055/S-0028-1099512|10.1055/S-2000-11120|10.1055/S-2001-11496|10.1055/S-2001-15813|10.1055/S-2006-957481|10.1055/S-2006-957741|10.1055/S-2006-959402|10.1055/S-2006-960945|10.1055/S-2007-969208|10.1055/S-2007-969451|10.1080/00021369.1977.10862472|10.1080/10412905.1991.9697919|10.1080/10575630108041267|10.1080/14786419.2010.518146|10.1093/JXB/ERG184|10.1104/PP.84.3.643|10.1111/J.1365-2621.1990.TB06074.X|10.1111/J.1399-3054.1987.TB04313.X|10.1135/CCCC19773487|10.1135/CCCC19820664|10.1135/CCCC19840852|10.1155/2017/2840718|10.1186/1472-6882-12-263|10.1201/9780203022320.CH4|10.1246/NIKKASHI.1994.493|10.1248/BPB.24.470|10.1248/BPB.30.999|10.1248/CPB.22.971|10.1248/CPB.31.1366|10.1248/CPB.32.3003|10.1248/CPB.34.1672|10.1248/CPB.35.1610|10.1248/CPB.36.3147|10.1248/CPB.37.3214|10.1248/CPB.38.2130|10.1248/CPB.38.342|10.1248/CPB.41.624|10.1248/CPB.42.138|10.1248/CPB.42.228|10.1248/CPB.46.1408|10.1248/CPB.51.885|10.1248/CPB.55.784|10.1248/CPB.57.532|10.1248/YAKUSHI1947.103.1_43|10.1248/YAKUSHI1947.106.12_1092|10.1248/YAKUSHI1947.111.2_120|10.1248/YAKUSHI1947.94.12_1593|10.1248/YAKUSHI1947.95.1_108|10.1271/BBB.59.1543|10.1271/BBB.63.1800|10.1271/BBB1961.48.2523|10.1271/NOGEIKAGAKU1924.59.895|10.1371/JOURNAL.PONE.0214193|10.14233/AJCHEM.2014.16935|10.1515/ZNC-1983-5-628|10.1515/ZNC-2002-1-214|10.1515/ZNC-2003-9-1009|10.1515/ZNC-2017-0140|10.1590/S0100-40422012001100004|10.1590/S0102-695X2011005000107|10.1590/S0103-50531999000600017|10.1590/S0103-50532001000400019|10.1590/S0103-50532003000500006|10.21608/BFSA.1984.89869|10.21608/BFSA.1985.75707|10.21608/BFSA.1995.69697|10.22159/AJPCR.2016.V9S2.13678|10.3109/08958378.2013.878005|10.3109/10915819309140647|10.3109/13880208509070678|10.3109/13880209309082963|10.3390/MOLECULES22101606|10.3390/MOLECULES24234322|10.3390/foods9060770|10.3390/molecules23123219|10.3390/molecules27020483|10.3989/GYA.1999.V50.I5.678|10.5650/JOS.50.259|10.5650/JOS1956.44.1012|10.5650/JOS1996.46.1499|10.5650/JOS1996.46.687|10.5650/JOS1996.47.605|10.5650/JOS1996.49.719|10.5650/JOS1996.49.727|10.5650/jos.ess19091|10.5650/jos.ess20128|10.5650/jos.ess21076

>  <synonyms>  (1044) 
nan

>  <cas>  (1044) 
474-62-4|290299-12-6

$$$$

     RDKit          2D

 22 25  0  0  0  0  0  0  0  0999 V2000
   -5.5624   -2.8140    0.0000 O   0  0  0  0  0  0  0  0  0  0  0  0
   -4.6158   -1.6504    0.0000 C   0  0  0  0  0  0  0  0  0  0  0  0
   -5.1502   -0.2489    0.0000 C   0  0  0  0  0  0  0  0  0  0  0  0
   -4.2036    0.9147    0.0000 C   0  0  0  0  0  0  0  0  0  0  0  0
   -2.7226    0.6767    0.0000 C   0  0  0  0  0  0  0  0  0  0  0  0
   -2.1882   -0.7249    0.0000 C   0  0  0  0  0  0  0  0  0  0  0  0
   -3.1348   -1.8884    0.0000 C   0  0  0  0  0  0  0  0  0  0  0  0
   -0.7072   -0.9628    0.0000 O   0  0  0  0  0  0  0  0  0  0  0  0
    0.2394    0.2007    0.0000 C   0  0  0  0  0  0  0  0  0  0  0  0
    1.7204   -0.0372    0.0000 C   0  0  0  0  0  0  0  0  0  0  0  0
    2.2548   -1.4388    0.0000 C   0  0  0  0  0  0  0  0  0  0  0  0
    3.7358   -1.6768    0.0000 C   0  0  0  0  0  0  0  0  0  0  0  0
    4.2702   -3.0784    0.0000 O   0  0  0  0  0  0  0  0  0  0  0  0
    4.6824   -0.5132    0.0000 C   0  0  0  0  0  0  0  0  0  0  0  0
    6.1634   -0.7512    0.0000 O   0  0  0  0  0  0  0  0  0  0  0  0
    4.1480    0.8883    0.0000 C   0  0  0  0  0  0  0  0  0  0  0  0
    2.6670    1.1263    0.0000 C   0  0  0  0  0  0  0  0  0  0  0  0
    2.1326    2.5279    0.0000 C   0  0  0  0  0  0  0  0  0  0  0  0
    0.6516    2.7659    0.0000 O   0  0  0  0  0  0  0  0  0  0  0  0
   -0.2950    1.6023    0.0000 C   0  0  0  0  0  0  0  0  0  0  0  0
   -1.7760    1.8403    0.0000 C   0  0  0  0  0  0  0  0  0  0  0  0
   -2.3104    3.2419    0.0000 O   0  0  0  0  0  0  0  0  0  0  0  0
  1  2  1  0
  2  3  2  0
  3  4  1  0
  4  5  2  0
  5  6  1  0
  6  7  2  0
  6  8  1  0
  9  8  1  1
  9 10  1  0
 10 11  2  0
 11 12  1  0
 12 13  1  0
 12 14  2  0
 14 15  1  0
 14 16  1  0
 16 17  2  0
 17 18  1  0
 18 19  1  0
 20 19  1  6
 20 21  1  0
 21 22  1  1
  7  2  1  0
 20  9  1  0
 21  5  1  0
 17 10  1  0
M  END
>  <identifier>  (1045) 
CNP0229991.2

>  <canonical_smiles>  (1045) 
OC1=CC=C2C(=C1)O[C@@H]1C3=CC(O)=C(O)C=C3CO[C@H]1[C@@H]2O

>  <standard_inchi>  (1045) 
InChI=1S/C16H14O6/c17-8-1-2-9-13(4-8)22-15-10-5-12(19)11(18)3-7(10)6-21-16(15)14(9)20/h1-5,14-20H,6H2/t14-,15-,16+/m1/s1

>  <standard_inchi_key>  (1045) 
OPWUVOPHCMWWGJ-OAGGEKHMSA-N

>  <name>  (1045) 
Peltogynan-4-alpha-ol

>  <iupac_name>  (1045) 
(6~{a}~{S},7~{R},12~{a}~{R})-5,6~{a},7,12~{a}-tetrahydroisochromeno[4,3-b]chromene-2,3,7,10-tetrol

>  <annotation_level>  (1045) 
5

>  <total_atom_count>  (1045) 
36

>  <heavy_atom_count>  (1045) 
22

>  <molecular_weight>  (1045) 
302.28

>  <exact_molecular_weight>  (1045) 
302.07904

>  <molecular_formula>  (1045) 
C16H14O6

>  <alogp>  (1045) 
1.87

>  <topological_polar_surface_area>  (1045) 
99.38

>  <rotatable_bond_count>  (1045) 
0

>  <hydrogen_bond_acceptors>  (1045) 
6

>  <hydrogen_bond_donors>  (1045) 
4

>  <hydrogen_bond_acceptors_lipinski>  (1045) 
6

>  <hydrogen_bond_donors_lipinski>  (1045) 
4

>  <lipinski_rule_of_five_violations>  (1045) 
0

>  <aromatic_rings_count>  (1045) 
2

>  <qed_drug_likeliness>  (1045) 
0.55

>  <formal_charge>  (1045) 
0

>  <fractioncsp3>  (1045) 
0.25

>  <number_of_minimal_rings>  (1045) 
4

>  <van_der_walls_volume>  (1045) 
nan

>  <contains_sugar>  (1045) 
False

>  <contains_ring_sugars>  (1045) 
False

>  <contains_linear_sugars>  (1045) 
False

>  <murcko_framework>  (1045) 
O1c2ccccc2CC3OCc4ccccc4C13

>  <np_likeness>  (1045) 
2.10

>  <chemical_class>  (1045) 
Flavonoids

>  <chemical_sub_class>  (1045) 
Pyranoflavonoids

>  <chemical_super_class>  (1045) 
Phenylpropanoids and polyketides

>  <direct_parent_classification>  (1045) 
Pyranoflavonoids

>  <np_classifier_pathway>  (1045) 
Shikimates and Phenylpropanoids

>  <np_classifier_superclass>  (1045) 
Flavonoids

>  <np_classifier_class>  (1045) 
Flavandiols (Leucoanthocyanidins)

>  <np_classifier_is_glycoside>  (1045) 
False

>  <organisms>  (1045) 
Acacia carneorum|Acacia peuce|Millettia stuhlmannii|Peltogyne catingae|Peltogyne confertiflora|Talaromyces luteus|Umtiza listeriana

>  <collections>  (1045) 
Australian natural products|Latin America dataset|NPASS|NPEdia|NuBBEDB|Super Natural II|WikiData Natural Products

>  <dois>  (1045) 
10.1016/0031-9422(74)80105-6|10.1016/s0031-9422(00)91147-6|10.1039/P19810000514

>  <synonyms>  (1045) 
LMPK12020221|Peltogynan-4-alpha-ol|peltogynol

>  <cas>  (1045) 
nan

$$$$

     RDKit          2D

 20 22  0  0  0  0  0  0  0  0999 V2000
   -0.6141    3.2031    0.0000 C   0  0  0  0  0  0  0  0  0  0  0  0
    0.4673    2.1636    0.0000 C   0  0  0  0  0  0  0  0  0  0  0  0
    0.1077    0.7073    0.0000 C   0  0  0  0  0  0  0  0  0  0  0  0
   -1.3332    0.2905    0.0000 C   0  0  0  0  0  0  0  0  0  0  0  0
   -2.4146    1.3300    0.0000 C   0  0  0  0  0  0  0  0  0  0  0  0
   -3.8556    0.9133    0.0000 C   0  0  0  0  0  0  0  0  0  0  0  0
   -4.2151   -0.5430    0.0000 C   0  0  0  0  0  0  0  0  0  0  0  0
   -5.6560   -0.9598    0.0000 O   0  0  0  0  0  0  0  0  0  0  0  0
   -3.1337   -1.5825    0.0000 C   0  0  0  0  0  0  0  0  0  0  0  0
   -1.6928   -1.1657    0.0000 C   0  0  0  0  0  0  0  0  0  0  0  0
    1.1891   -0.3322    0.0000 C   0  0  0  0  0  0  0  0  0  0  0  0
    0.8296   -1.7885    0.0000 C   0  0  0  0  0  0  0  0  0  0  0  0
    1.9110   -2.8280    0.0000 C   0  0  0  0  0  0  0  0  0  0  0  0
    1.5514   -4.2843    0.0000 O   0  0  0  0  0  0  0  0  0  0  0  0
    3.3519   -2.4112    0.0000 C   0  0  0  0  0  0  0  0  0  0  0  0
    3.7115   -0.9550    0.0000 C   0  0  0  0  0  0  0  0  0  0  0  0
    2.6301    0.0846    0.0000 C   0  0  0  0  0  0  0  0  0  0  0  0
    2.9896    1.5408    0.0000 C   0  0  0  0  0  0  0  0  0  0  0  0
    1.9082    2.5803    0.0000 C   0  0  0  0  0  0  0  0  0  0  0  0
    2.2677    4.0366    0.0000 C   0  0  0  0  0  0  0  0  0  0  0  0
  2  1  1  1
  2  3  1  0
  3  4  1  6
  4  5  2  0
  5  6  1  0
  6  7  2  0
  7  8  1  0
  7  9  1  0
  9 10  2  0
  3 11  1  0
 11 12  2  0
 12 13  1  0
 13 14  1  0
 13 15  2  0
 15 16  1  0
 16 17  2  0
 17 18  1  0
 18 19  1  0
 19 20  1  6
 19  2  1  0
 10  4  1  0
 17 11  1  0
M  END
>  <identifier>  (1046) 
CNP0168579.1

>  <canonical_smiles>  (1046) 
C[C@@H]1[C@@H](C2=CC=C(O)C=C2)C2=CC(O)=CC=C2C[C@H]1C

>  <standard_inchi>  (1046) 
InChI=1S/C18H20O2/c1-11-9-14-5-8-16(20)10-17(14)18(12(11)2)13-3-6-15(19)7-4-13/h3-8,10-12,18-20H,9H2,1-2H3/t11-,12+,18+/m1/s1

>  <standard_inchi_key>  (1046) 
SFHVHQMPRGEUDC-SOZUMNATSA-N

>  <name>  (1046) 
(6R,7S,8S)-8-(4-hydroxyphenyl)-6,7-dimethyl-5,6,7,8-tetrahydronaphthalen-2-ol

>  <iupac_name>  (1046) 
(2~{R},3~{S},4~{S})-4-(4-hydroxyphenyl)-2,3-dimethyl-tetralin-6-ol

>  <annotation_level>  (1046) 
5

>  <total_atom_count>  (1046) 
40

>  <heavy_atom_count>  (1046) 
20

>  <molecular_weight>  (1046) 
268.36

>  <exact_molecular_weight>  (1046) 
268.14633

>  <molecular_formula>  (1046) 
C18H20O2

>  <alogp>  (1046) 
4.06

>  <topological_polar_surface_area>  (1046) 
40.46

>  <rotatable_bond_count>  (1046) 
1

>  <hydrogen_bond_acceptors>  (1046) 
2

>  <hydrogen_bond_donors>  (1046) 
2

>  <hydrogen_bond_acceptors_lipinski>  (1046) 
2

>  <hydrogen_bond_donors_lipinski>  (1046) 
2

>  <lipinski_rule_of_five_violations>  (1046) 
0

>  <aromatic_rings_count>  (1046) 
2

>  <qed_drug_likeliness>  (1046) 
0.82

>  <formal_charge>  (1046) 
0

>  <fractioncsp3>  (1046) 
0.33

>  <number_of_minimal_rings>  (1046) 
3

>  <van_der_walls_volume>  (1046) 
258.23

>  <contains_sugar>  (1046) 
False

>  <contains_ring_sugars>  (1046) 
False

>  <contains_linear_sugars>  (1046) 
False

>  <murcko_framework>  (1046) 
c1ccc(cc1)C2c3ccccc3CCC2

>  <np_likeness>  (1046) 
1.52

>  <chemical_class>  (1046) 
Aryltetralin lignans

>  <chemical_sub_class>  (1046) 
Aryltetralin lignans

>  <chemical_super_class>  (1046) 
Lignans, neolignans and related compounds

>  <direct_parent_classification>  (1046) 
Aryltetralin lignans

>  <np_classifier_pathway>  (1046) 
Shikimates and Phenylpropanoids

>  <np_classifier_superclass>  (1046) 
Lignans

>  <np_classifier_class>  (1046) 
Arylnaphthalene and aryltetralin lignans

>  <np_classifier_is_glycoside>  (1046) 
False

>  <organisms>  (1046) 
Iryanthera grandis|Iryanthera lancifolia

>  <collections>  (1046) 
CMAUP (cCollective molecular activities of useful plants)|Latin America dataset|NPASS|NuBBEDB|Super Natural II|WikiData Natural Products|ZINC NP

>  <dois>  (1046) 
10.1016/J.BMC.2007.12.003|10.1016/S0031-9422(00)80162-4|10.1016/j.bmc.2007.12.003

>  <synonyms>  (1046) 
(2R3R4S)-23-Dimethyl-4-(p-hydroxyphenyl-6-hydroxytetralin|CHEMBL259174

>  <cas>  (1046) 
nan

$$$$

     RDKit          2D

 40 44  0  0  0  0  0  0  0  0999 V2000
   -0.3762    3.8854    0.0000 C   0  0  0  0  0  0  0  0  0  0  0  0
   -0.5327    2.3936    0.0000 C   0  0  0  0  0  0  0  0  0  0  0  0
    0.6811    1.5122    0.0000 O   0  0  0  0  0  0  0  0  0  0  0  0
    0.5246    0.0204    0.0000 C   0  0  0  0  0  0  0  0  0  0  0  0
    1.7383   -0.8610    0.0000 O   0  0  0  0  0  0  0  0  0  0  0  0
    3.1085   -0.2506    0.0000 C   0  0  0  0  0  0  0  0  0  0  0  0
    3.2650    1.2412    0.0000 C   0  0  0  0  0  0  0  0  0  0  0  0
    4.6351    1.8516    0.0000 C   0  0  0  0  0  0  0  0  0  0  0  0
    4.7916    3.3434    0.0000 C   0  0  0  0  0  0  0  0  0  0  0  0
    3.5779    4.2249    0.0000 O   0  0  0  0  0  0  0  0  0  0  0  0
    6.1618    3.9539    0.0000 C   0  0  0  0  0  0  0  0  0  0  0  0
    7.3755    3.0725    0.0000 C   0  0  0  0  0  0  0  0  0  0  0  0
    8.7457    3.6829    0.0000 O   0  0  0  0  0  0  0  0  0  0  0  0
    7.2191    1.5806    0.0000 C   0  0  0  0  0  0  0  0  0  0  0  0
    5.8489    0.9702    0.0000 C   0  0  0  0  0  0  0  0  0  0  0  0
    5.6924   -0.5216    0.0000 O   0  0  0  0  0  0  0  0  0  0  0  0
    4.3222   -1.1320    0.0000 C   0  0  0  0  0  0  0  0  0  0  0  0
    4.1658   -2.6238    0.0000 C   0  0  0  0  0  0  0  0  0  0  0  0
    5.3795   -3.5052    0.0000 C   0  0  0  0  0  0  0  0  0  0  0  0
    5.2230   -4.9970    0.0000 C   0  0  0  0  0  0  0  0  0  0  0  0
    3.8529   -5.6075    0.0000 C   0  0  0  0  0  0  0  0  0  0  0  0
    3.6964   -7.0993    0.0000 O   0  0  0  0  0  0  0  0  0  0  0  0
    2.6391   -4.7261    0.0000 C   0  0  0  0  0  0  0  0  0  0  0  0
    2.7956   -3.2342    0.0000 C   0  0  0  0  0  0  0  0  0  0  0  0
   -0.8456   -0.5900    0.0000 C   0  0  0  0  0  0  0  0  0  0  0  0
   -1.0020   -2.0818    0.0000 O   0  0  0  0  0  0  0  0  0  0  0  0
   -2.0593    0.2914    0.0000 C   0  0  0  0  0  0  0  0  0  0  0  0
   -3.4295   -0.3190    0.0000 O   0  0  0  0  0  0  0  0  0  0  0  0
   -4.6432    0.5624    0.0000 C   0  0  0  0  0  0  0  0  0  0  0  0
   -4.4867    2.0542    0.0000 O   0  0  0  0  0  0  0  0  0  0  0  0
   -6.0134   -0.0480    0.0000 C   0  0  0  0  0  0  0  0  0  0  0  0
   -7.2271    0.8334    0.0000 C   0  0  0  0  0  0  0  0  0  0  0  0
   -8.5973    0.2230    0.0000 C   0  0  0  0  0  0  0  0  0  0  0  0
   -9.8110    1.1044    0.0000 C   0  0  0  0  0  0  0  0  0  0  0  0
  -11.1812    0.4940    0.0000 C   0  0  0  0  0  0  0  0  0  0  0  0
  -11.3377   -0.9979    0.0000 C   0  0  0  0  0  0  0  0  0  0  0  0
  -10.1239   -1.8793    0.0000 C   0  0  0  0  0  0  0  0  0  0  0  0
   -8.7537   -1.2689    0.0000 C   0  0  0  0  0  0  0  0  0  0  0  0
   -1.9028    1.7832    0.0000 C   0  0  0  0  0  0  0  0  0  0  0  0
   -3.1166    2.6646    0.0000 O   0  0  0  0  0  0  0  0  0  0  0  0
  2  1  1  1
  2  3  1  0
  3  4  1  0
  4  5  1  6
  6  5  1  1
  6  7  1  0
  7  8  1  0
  8  9  2  0
  9 10  1  0
  9 11  1  0
 11 12  2  0
 12 13  1  0
 12 14  1  0
 14 15  2  0
 15 16  1  0
 16 17  1  0
 17 18  1  6
 18 19  2  0
 19 20  1  0
 20 21  2  0
 21 22  1  0
 21 23  1  0
 23 24  2  0
  4 25  1  0
 25 26  1  1
 25 27  1  0
 27 28  1  1
 28 29  1  0
 29 30  2  0
 29 31  1  0
 31 32  2  0
 32 33  1  0
 33 34  2  0
 34 35  1  0
 35 36  2  0
 36 37  1  0
 37 38  2  0
 27 39  1  0
 39 40  1  6
 39  2  1  0
 17  6  1  0
 24 18  1  0
 38 33  1  0
 15  8  1  0
M  END
>  <identifier>  (1047) 
CNP0208512.1

>  <canonical_smiles>  (1047) 
C[C@H]1O[C@H](O[C@H]2CC3=C(O)C=C(O)C=C3O[C@@H]2C2=CC=C(O)C=C2)[C@@H](O)[C@@H](OC(=O)/C=C/C2=CC=CC=C2)[C@@H]1O

>  <standard_inchi>  (1047) 
InChI=1S/C30H30O10/c1-16-26(35)29(40-25(34)12-7-17-5-3-2-4-6-17)27(36)30(37-16)39-24-15-21-22(33)13-20(32)14-23(21)38-28(24)18-8-10-19(31)11-9-18/h2-14,16,24,26-33,35-36H,15H2,1H3/b12-7+/t16-,24+,26-,27+,28-,29+,30-/m1/s1

>  <standard_inchi_key>  (1047) 
SYQQOOAPNXKIKF-AGRNNFEDSA-N

>  <name>  (1047) 
nan

>  <iupac_name>  (1047) 
[(2~{R},3~{S},4~{S},5~{R},6~{R})-2-[(2~{R},3~{S})-5,7-dihydroxy-2-(4-hydroxyphenyl)chroman-3-yl]oxy-3,5-dihydroxy-6-methyl-tetrahydropyran-4-yl] (~{E})-3-phenylprop-2-enoate

>  <annotation_level>  (1047) 
4

>  <total_atom_count>  (1047) 
70

>  <heavy_atom_count>  (1047) 
40

>  <molecular_weight>  (1047) 
550.56

>  <exact_molecular_weight>  (1047) 
550.1839

>  <molecular_formula>  (1047) 
C30H30O10

>  <alogp>  (1047) 
2.96

>  <topological_polar_surface_area>  (1047) 
155.14

>  <rotatable_bond_count>  (1047) 
6

>  <hydrogen_bond_acceptors>  (1047) 
10

>  <hydrogen_bond_donors>  (1047) 
5

>  <hydrogen_bond_acceptors_lipinski>  (1047) 
10

>  <hydrogen_bond_donors_lipinski>  (1047) 
5

>  <lipinski_rule_of_five_violations>  (1047) 
1

>  <aromatic_rings_count>  (1047) 
3

>  <qed_drug_likeliness>  (1047) 
0.23

>  <formal_charge>  (1047) 
0

>  <fractioncsp3>  (1047) 
0.30

>  <number_of_minimal_rings>  (1047) 
5

>  <van_der_walls_volume>  (1047) 
nan

>  <contains_sugar>  (1047) 
True

>  <contains_ring_sugars>  (1047) 
True

>  <contains_linear_sugars>  (1047) 
False

>  <murcko_framework>  (1047) 
O1c2ccccc2CC(OC3OCCC(OCC=Cc4ccccc4)C3)C1c5ccccc5

>  <np_likeness>  (1047) 
1.96

>  <chemical_class>  (1047) 
Flavonoids

>  <chemical_sub_class>  (1047) 
Flavonoid glycosides

>  <chemical_super_class>  (1047) 
Phenylpropanoids and polyketides

>  <direct_parent_classification>  (1047) 
Flavonoid-3-O-glycosides

>  <np_classifier_pathway>  (1047) 
Shikimates and Phenylpropanoids

>  <np_classifier_superclass>  (1047) 
Flavonoids

>  <np_classifier_class>  (1047) 
Flavan-3-ols

>  <np_classifier_is_glycoside>  (1047) 
True

>  <organisms>  (1047) 
Vochysia thyrsoidea

>  <collections>  (1047) 
Latin America dataset|NuBBEDB|WikiData Natural Products|ZINC NP

>  <dois>  (1047) 
10.5935/0100-4042.20140049

>  <synonyms>  (1047) 
Catechin-3-O-(3''-O-trans-cinnamoyl)-\u221a\u00e9\u00ac\u00b1-rhamnopyranoside

>  <cas>  (1047) 
nan

$$$$

     RDKit          2D

 23 24  0  0  0  0  0  0  0  0999 V2000
   -3.4882   -1.8131    0.0000 C   0  0  0  0  0  0  0  0  0  0  0  0
   -3.4535   -0.3135    0.0000 C   0  0  0  0  0  0  0  0  0  0  0  0
   -4.7348    0.4664    0.0000 C   0  0  0  0  0  0  0  0  0  0  0  0
   -6.0508   -0.2532    0.0000 C   0  0  0  0  0  0  0  0  0  0  0  0
   -6.0856   -1.7528    0.0000 O   0  0  0  0  0  0  0  0  0  0  0  0
   -7.3322    0.5267    0.0000 O   0  0  0  0  0  0  0  0  0  0  0  0
   -2.1374    0.4062    0.0000 C   0  0  0  0  0  0  0  0  0  0  0  0
   -0.8561   -0.3737    0.0000 C   0  0  0  0  0  0  0  0  0  0  0  0
    0.4600    0.3460    0.0000 C   0  0  0  0  0  0  0  0  0  0  0  0
    1.7413   -0.4339    0.0000 C   0  0  0  0  0  0  0  0  0  0  0  0
    0.4252   -1.1536    0.0000 C   0  0  0  0  0  0  0  0  0  0  0  0
    1.7065   -1.9335    0.0000 C   0  0  0  0  0  0  0  0  0  0  0  0
    2.9878   -2.7134    0.0000 C   0  0  0  0  0  0  0  0  0  0  0  0
    4.3039   -1.9937    0.0000 C   0  0  0  0  0  0  0  0  0  0  0  0
    4.3387   -0.4941    0.0000 C   0  0  0  0  0  0  0  0  0  0  0  0
    4.8842    0.9032    0.0000 C   0  0  0  0  0  0  0  0  0  0  0  0
    5.8094   -0.7887    0.0000 C   0  0  0  0  0  0  0  0  0  0  0  0
    3.0574    0.2858    0.0000 C   0  0  0  0  0  0  0  0  0  0  0  0
    3.0921    1.7854    0.0000 C   0  0  0  0  0  0  0  0  0  0  0  0
    1.8108    2.5653    0.0000 C   0  0  0  0  0  0  0  0  0  0  0  0
    0.4947    1.8456    0.0000 C   0  0  0  0  0  0  0  0  0  0  0  0
    0.0145    3.2667    0.0000 C   0  0  0  0  0  0  0  0  0  0  0  0
   -0.9881    1.6195    0.0000 O   0  0  0  0  0  0  0  0  0  0  0  0
  1  2  1  0
  2  3  2  0
  3  4  1  0
  4  5  2  0
  4  6  1  0
  2  7  1  0
  7  8  1  0
  9  8  1  6
  9 10  1  0
 10 11  1  6
 10 12  1  0
 12 13  1  0
 13 14  1  0
 14 15  1  0
 15 16  1  0
 15 17  1  0
 15 18  1  0
 18 19  1  6
 19 20  1  0
 20 21  1  0
 21 22  1  1
 21 23  1  0
 21  9  1  0
 18 10  1  0
M  END
>  <identifier>  (1048) 
CNP0210686.2

>  <canonical_smiles>  (1048) 
C/C(=C\C(=O)O)CC[C@H]1[C@]2(C)CCCC(C)(C)[C@H]2CC[C@@]1(C)O

>  <standard_inchi>  (1048) 
InChI=1S/C20H34O3/c1-14(13-17(21)22)7-8-16-19(4)11-6-10-18(2,3)15(19)9-12-20(16,5)23/h13,15-16,23H,6-12H2,1-5H3,(H,21,22)/b14-13+/t15-,16+,19-,20-/m1/s1

>  <standard_inchi_key>  (1048) 
IYXKFHZDYXAAFO-JEGIHWEWSA-N

>  <name>  (1048) 
(2E)-5-[(1S,2R,4aR,8aR)-2-hydroxy-2,5,5,8a-tetramethyl-decahydronaphthalen-1-yl]-3-methylpent-2-enoic acid

>  <iupac_name>  (1048) 
(~{E})-5-[(1~{S},2~{R},4~{a}~{R},8~{a}~{R})-2-hydroxy-2,5,5,8~{a}-tetramethyl-decalin-1-yl]-3-methyl-pent-2-enoic acid

>  <annotation_level>  (1048) 
5

>  <total_atom_count>  (1048) 
57

>  <heavy_atom_count>  (1048) 
23

>  <molecular_weight>  (1048) 
322.49

>  <exact_molecular_weight>  (1048) 
322.25079

>  <molecular_formula>  (1048) 
C20H34O3

>  <alogp>  (1048) 
4.79

>  <topological_polar_surface_area>  (1048) 
57.53

>  <rotatable_bond_count>  (1048) 
4

>  <hydrogen_bond_acceptors>  (1048) 
2

>  <hydrogen_bond_donors>  (1048) 
2

>  <hydrogen_bond_acceptors_lipinski>  (1048) 
2

>  <hydrogen_bond_donors_lipinski>  (1048) 
2

>  <lipinski_rule_of_five_violations>  (1048) 
0

>  <aromatic_rings_count>  (1048) 
0

>  <qed_drug_likeliness>  (1048) 
0.73

>  <formal_charge>  (1048) 
0

>  <fractioncsp3>  (1048) 
0.85

>  <number_of_minimal_rings>  (1048) 
2

>  <van_der_walls_volume>  (1048) 
nan

>  <contains_sugar>  (1048) 
False

>  <contains_ring_sugars>  (1048) 
False

>  <contains_linear_sugars>  (1048) 
False

>  <murcko_framework>  (1048) 
C1CCC2CCCCC2C1

>  <np_likeness>  (1048) 
2.83

>  <chemical_class>  (1048) 
Prenol lipids

>  <chemical_sub_class>  (1048) 
Diterpenoids

>  <chemical_super_class>  (1048) 
Lipids and lipid-like molecules

>  <direct_parent_classification>  (1048) 
Diterpenoids

>  <np_classifier_pathway>  (1048) 
Terpenoids

>  <np_classifier_superclass>  (1048) 
Diterpenoids

>  <np_classifier_class>  (1048) 
Labdane diterpenoids

>  <np_classifier_is_glycoside>  (1048) 
False

>  <organisms>  (1048) 
Hymenea coubaril

>  <collections>  (1048) 
Latin America dataset|NuBBEDB|ZINC NP

>  <dois>  (1048) 
10.1016/0031-9422(75)85324-6

>  <synonyms>  (1048) 
Lab-13-en-8\u221a\u00e9\u00ac\u2264-ol-15-oic acid|SCHEMBL10524433

>  <cas>  (1048) 
nan

$$$$

     RDKit          2D

 29 31  0  0  0  0  0  0  0  0999 V2000
   -7.5417    2.1154    0.0000 C   0  0  0  0  0  0  0  0  0  0  0  0
   -6.9744    0.7268    0.0000 O   0  0  0  0  0  0  0  0  0  0  0  0
   -5.4882    0.5238    0.0000 C   0  0  0  0  0  0  0  0  0  0  0  0
   -4.5693    1.7093    0.0000 C   0  0  0  0  0  0  0  0  0  0  0  0
   -3.0831    1.5063    0.0000 C   0  0  0  0  0  0  0  0  0  0  0  0
   -2.1642    2.6918    0.0000 O   0  0  0  0  0  0  0  0  0  0  0  0
   -2.5158    0.1177    0.0000 C   0  0  0  0  0  0  0  0  0  0  0  0
   -1.0297   -0.0854    0.0000 C   0  0  0  0  0  0  0  0  0  0  0  0
   -0.4624   -1.4740    0.0000 C   0  0  0  0  0  0  0  0  0  0  0  0
   -1.3813   -2.6595    0.0000 O   0  0  0  0  0  0  0  0  0  0  0  0
   -2.8675   -2.4565    0.0000 C   0  0  0  0  0  0  0  0  0  0  0  0
    1.0238   -1.6770    0.0000 C   0  0  0  0  0  0  0  0  0  0  0  0
    1.5910   -3.0656    0.0000 O   0  0  0  0  0  0  0  0  0  0  0  0
    1.9427   -0.4915    0.0000 C   0  0  0  0  0  0  0  0  0  0  0  0
    3.4289   -0.6945    0.0000 C   0  0  0  0  0  0  0  0  0  0  0  0
    3.9962   -2.0831    0.0000 O   0  0  0  0  0  0  0  0  0  0  0  0
    5.4824   -2.2862    0.0000 C   0  0  0  0  0  0  0  0  0  0  0  0
    4.3479    0.4910    0.0000 C   0  0  0  0  0  0  0  0  0  0  0  0
    5.8341    0.2880    0.0000 O   0  0  0  0  0  0  0  0  0  0  0  0
    6.4013   -1.1006    0.0000 C   0  0  0  0  0  0  0  0  0  0  0  0
    3.7806    1.8796    0.0000 C   0  0  0  0  0  0  0  0  0  0  0  0
    4.6996    3.0652    0.0000 O   0  0  0  0  0  0  0  0  0  0  0  0
    6.1857    2.8622    0.0000 C   0  0  0  0  0  0  0  0  0  0  0  0
    2.2944    2.0827    0.0000 C   0  0  0  0  0  0  0  0  0  0  0  0
    1.3755    0.8971    0.0000 C   0  0  0  0  0  0  0  0  0  0  0  0
   -0.1107    1.1002    0.0000 O   0  0  0  0  0  0  0  0  0  0  0  0
   -3.4348   -1.0679    0.0000 C   0  0  0  0  0  0  0  0  0  0  0  0
   -4.9210   -0.8649    0.0000 C   0  0  0  0  0  0  0  0  0  0  0  0
   -5.8399   -2.0504    0.0000 O   0  0  0  0  0  0  0  0  0  0  0  0
  1  2  1  0
  2  3  1  0
  3  4  2  0
  4  5  1  0
  5  6  1  0
  5  7  2  0
  7  8  1  0
  8  9  2  0
  9 10  1  0
 10 11  1  0
  9 12  1  0
 12 13  2  0
 12 14  1  0
 14 15  2  0
 15 16  1  0
 16 17  1  0
 15 18  1  0
 18 19  1  0
 19 20  1  0
 18 21  2  0
 21 22  1  0
 22 23  1  0
 21 24  1  0
 24 25  2  0
 25 26  1  0
  7 27  1  0
 27 28  2  0
 28 29  1  0
 28  3  1  0
 26  8  1  0
 25 14  1  0
M  END
>  <identifier>  (1049) 
CNP0115492.0

>  <canonical_smiles>  (1049) 
COC1=CC(O)=C(C2=C(OC)C(=O)C3=C(OC)C(OC)=C(OC)C=C3O2)C=C1O

>  <standard_inchi>  (1049) 
InChI=1S/C20H20O9/c1-24-12-7-10(21)9(6-11(12)22)17-20(28-5)16(23)15-13(29-17)8-14(25-2)18(26-3)19(15)27-4/h6-8,21-22H,1-5H3

>  <standard_inchi_key>  (1049) 
GSDPDMPAMXKDMZ-UHFFFAOYSA-N

>  <name>  (1049) 
Apulein

>  <iupac_name>  (1049) 
2-(2,5-dihydroxy-4-methoxy-phenyl)-3,5,6,7-tetramethoxy-chromen-4-one

>  <annotation_level>  (1049) 
5

>  <total_atom_count>  (1049) 
49

>  <heavy_atom_count>  (1049) 
29

>  <molecular_weight>  (1049) 
404.37

>  <exact_molecular_weight>  (1049) 
404.11073

>  <molecular_formula>  (1049) 
C20H20O9

>  <alogp>  (1049) 
2.91

>  <topological_polar_surface_area>  (1049) 
116.82

>  <rotatable_bond_count>  (1049) 
6

>  <hydrogen_bond_acceptors>  (1049) 
9

>  <hydrogen_bond_donors>  (1049) 
2

>  <hydrogen_bond_acceptors_lipinski>  (1049) 
9

>  <hydrogen_bond_donors_lipinski>  (1049) 
2

>  <lipinski_rule_of_five_violations>  (1049) 
0

>  <aromatic_rings_count>  (1049) 
3

>  <qed_drug_likeliness>  (1049) 
0.60

>  <formal_charge>  (1049) 
0

>  <fractioncsp3>  (1049) 
0.25

>  <number_of_minimal_rings>  (1049) 
3

>  <van_der_walls_volume>  (1049) 
341.73

>  <contains_sugar>  (1049) 
False

>  <contains_ring_sugars>  (1049) 
False

>  <contains_linear_sugars>  (1049) 
False

>  <murcko_framework>  (1049) 
O1c2ccccc2CC=C1c3ccccc3

>  <np_likeness>  (1049) 
1.32

>  <chemical_class>  (1049) 
Flavonoids

>  <chemical_sub_class>  (1049) 
O-methylated flavonoids

>  <chemical_super_class>  (1049) 
Phenylpropanoids and polyketides

>  <direct_parent_classification>  (1049) 
6-O-methylated flavonoids

>  <np_classifier_pathway>  (1049) 
Shikimates and Phenylpropanoids

>  <np_classifier_superclass>  (1049) 
Flavonoids

>  <np_classifier_class>  (1049) 
Flavonols

>  <np_classifier_is_glycoside>  (1049) 
False

>  <organisms>  (1049) 
Adiantum monochlamys|Apuleia leiocarpa|Baileya pauciradiata|Becium grandiflorum|Centaurea webbiana|Commiphora erythraea|Crinum yemense|Lissoclinum bistratum|Pachyphragma macrophyllum|Spilanthes mauritiana|Vernonanthura chamaedrys|Vicia faba

>  <collections>  (1049) 
CMAUP (cCollective molecular activities of useful plants)|KNApSaCK|Latin America dataset|NPASS|NPEdia|NuBBEDB|Super Natural II|UNPD (Universal Natural Products Database)|WikiData Natural Products|ZINC NP

>  <dois>  (1049) 
10.1016/S0031-9422(00)89891-X

>  <synonyms>  (1049) 
2',5'-dihydroxy-3,5,6,7,4'-pentamethoxyflavone|2-(2,5-Dihydroxy-4-methoxyphenyl)-3,5,6,7-tetramethoxy-4h-1-benzopyran-4-one|20362-24-7|Apulein|DB-345960|LMPK12113058

>  <cas>  (1049) 
20362-24-7

$$$$

     RDKit          2D

 42 46  0  0  0  0  0  0  0  0999 V2000
   -0.8063    2.1789    0.0000 C   0  0  0  0  0  0  0  0  0  0  0  0
   -0.0031    0.9121    0.0000 C   0  0  0  0  0  0  0  0  0  0  0  0
   -0.6986   -0.4169    0.0000 C   0  0  0  0  0  0  0  0  0  0  0  0
    0.1046   -1.6837    0.0000 C   0  0  0  0  0  0  0  0  0  0  0  0
    1.6033   -1.6216    0.0000 C   0  0  0  0  0  0  0  0  0  0  0  0
    2.2988   -0.2926    0.0000 C   0  0  0  0  0  0  0  0  0  0  0  0
    1.4956    0.9743    0.0000 N   0  0  0  0  0  0  0  0  0  0  0  0
    2.1911    2.3033    0.0000 C   0  0  0  0  0  0  0  0  0  0  0  0
    1.3879    3.5701    0.0000 C   0  0  0  0  0  0  0  0  0  0  0  0
   -0.1108    3.5080    0.0000 O   0  0  0  0  0  0  0  0  0  0  0  0
    2.0834    4.8991    0.0000 O   0  0  0  0  0  0  0  0  0  0  0  0
    3.6898    2.3655    0.0000 C   0  0  0  0  0  0  0  0  0  0  0  0
    4.4930    1.0986    0.0000 C   0  0  0  0  0  0  0  0  0  0  0  0
    3.7975   -0.2304    0.0000 C   0  0  0  0  0  0  0  0  0  0  0  0
    4.8465   -1.3026    0.0000 N   0  0  0  0  0  0  0  0  0  0  0  0
    6.1904   -0.6362    0.0000 C   0  0  0  0  0  0  0  0  0  0  0  0
    7.5848   -1.1890    0.0000 C   0  0  0  0  0  0  0  0  0  0  0  0
    8.7607   -0.2577    0.0000 C   0  0  0  0  0  0  0  0  0  0  0  0
    8.5423    1.2263    0.0000 C   0  0  0  0  0  0  0  0  0  0  0  0
    9.7182    2.1575    0.0000 O   0  0  0  0  0  0  0  0  0  0  0  0
    7.1478    1.7790    0.0000 C   0  0  0  0  0  0  0  0  0  0  0  0
    5.9719    0.8478    0.0000 C   0  0  0  0  0  0  0  0  0  0  0  0
   -0.5910   -3.0127    0.0000 C   0  0  0  0  0  0  0  0  0  0  0  0
    0.2122   -4.2796    0.0000 C   0  0  0  0  0  0  0  0  0  0  0  0
    1.7109   -4.2174    0.0000 O   0  0  0  0  0  0  0  0  0  0  0  0
   -0.4833   -5.6086    0.0000 O   0  0  0  0  0  0  0  0  0  0  0  0
    0.3199   -6.8754    0.0000 C   0  0  0  0  0  0  0  0  0  0  0  0
   -2.0897   -3.0749    0.0000 C   0  0  0  0  0  0  0  0  0  0  0  0
   -2.8929   -1.8081    0.0000 O   0  0  0  0  0  0  0  0  0  0  0  0
   -2.1974   -0.4791    0.0000 C   0  0  0  0  0  0  0  0  0  0  0  0
   -3.0006    0.7878    0.0000 O   0  0  0  0  0  0  0  0  0  0  0  0
   -4.4993    0.7256    0.0000 C   0  0  0  0  0  0  0  0  0  0  0  0
   -5.3025    1.9924    0.0000 O   0  0  0  0  0  0  0  0  0  0  0  0
   -6.8012    1.9303    0.0000 C   0  0  0  0  0  0  0  0  0  0  0  0
   -7.6044    3.1971    0.0000 C   0  0  0  0  0  0  0  0  0  0  0  0
   -6.9088    4.5261    0.0000 O   0  0  0  0  0  0  0  0  0  0  0  0
   -7.4967    0.6013    0.0000 C   0  0  0  0  0  0  0  0  0  0  0  0
   -8.9954    0.5391    0.0000 O   0  0  0  0  0  0  0  0  0  0  0  0
   -6.6935   -0.6656    0.0000 C   0  0  0  0  0  0  0  0  0  0  0  0
   -7.3890   -1.9946    0.0000 O   0  0  0  0  0  0  0  0  0  0  0  0
   -5.1948   -0.6034    0.0000 C   0  0  0  0  0  0  0  0  0  0  0  0
   -4.3916   -1.8702    0.0000 O   0  0  0  0  0  0  0  0  0  0  0  0
  1  2  2  0
  2  3  1  0
  3  4  1  0
  4  5  1  0
  5  6  1  0
  6  7  2  0
  7  8  1  0
  8  9  1  0
  9 10  2  0
  9 11  1  0
  8 12  2  0
 12 13  1  0
 13 14  2  0
 14 15  1  0
 15 16  1  0
 16 17  2  0
 17 18  1  0
 18 19  2  0
 19 20  1  0
 19 21  1  0
 21 22  2  0
  4 23  1  0
 23 24  1  0
 24 25  2  0
 24 26  1  0
 26 27  1  0
 23 28  2  0
 28 29  1  0
 29 30  1  0
 30 31  1  1
 32 31  1  1
 32 33  1  0
 33 34  1  0
 34 35  1  1
 35 36  1  0
 34 37  1  0
 37 38  1  6
 37 39  1  0
 39 40  1  1
 39 41  1  0
 41 42  1  6
 30  3  1  0
 41 32  1  0
 14  6  1  0
 22 16  1  0
 22 13  1  0
M  END
>  <identifier>  (1050) 
CNP0266046.2

>  <canonical_smiles>  (1050) 
C=CC1C(CC2=NC(C(=O)O)=CC3=C2NC2=CC=C(O)C=C23)C(C(=O)OC)=CO[C@H]1O[C@@H]1O[C@H](CO)[C@@H](O)[C@H](O)[C@H]1O

>  <standard_inchi>  (1050) 
InChI=1S/C28H30N2O12/c1-3-12-13(7-18-21-15(8-19(29-18)25(36)37)14-6-11(32)4-5-17(14)30-21)16(26(38)39-2)10-40-27(12)42-28-24(35)23(34)22(33)20(9-31)41-28/h3-6,8,10,12-13,20,22-24,27-28,30-35H,1,7,9H2,2H3,(H,36,37)/t12?,13?,20-,22-,23+,24-,27+,28+/m1/s1

>  <standard_inchi_key>  (1050) 
HFPKTEZZZRPDQU-XNKVVINBSA-N

>  <name>  (1050) 
cordifoline

>  <iupac_name>  (1050) 
6-hydroxy-1-[[(2~{S})-5-methoxycarbonyl-2-[(2~{S},3~{R},4~{S},5~{S},6~{R})-3,4,5-trihydroxy-6-(hydroxymethyl)tetrahydropyran-2-yl]oxy-3-vinyl-3,4-dihydro-2~{H}-pyran-4-yl]methyl]-9~{H}-pyrido[3,4-b]indole-3-carboxylic acid

>  <annotation_level>  (1050) 
5

>  <total_atom_count>  (1050) 
72

>  <heavy_atom_count>  (1050) 
42

>  <molecular_weight>  (1050) 
586.55

>  <exact_molecular_weight>  (1050) 
586.17987

>  <molecular_formula>  (1050) 
C28H30N2O12

>  <alogp>  (1050) 
0.31

>  <topological_polar_surface_area>  (1050) 
221.12

>  <rotatable_bond_count>  (1050) 
8

>  <hydrogen_bond_acceptors>  (1050) 
12

>  <hydrogen_bond_donors>  (1050) 
7

>  <hydrogen_bond_acceptors_lipinski>  (1050) 
12

>  <hydrogen_bond_donors_lipinski>  (1050) 
7

>  <lipinski_rule_of_five_violations>  (1050) 
3

>  <aromatic_rings_count>  (1050) 
3

>  <qed_drug_likeliness>  (1050) 
0.14

>  <formal_charge>  (1050) 
0

>  <fractioncsp3>  (1050) 
0.39

>  <number_of_minimal_rings>  (1050) 
5

>  <van_der_walls_volume>  (1050) 
nan

>  <contains_sugar>  (1050) 
True

>  <contains_ring_sugars>  (1050) 
True

>  <contains_linear_sugars>  (1050) 
False

>  <murcko_framework>  (1050) 
n1ccc2c3ccccc3[nH]c2c1CC4C=COC(OC5OCCCC5)C4

>  <np_likeness>  (1050) 
1.99

>  <chemical_class>  (1050) 
Harmala alkaloids

>  <chemical_sub_class>  (1050) 
Harmala alkaloids

>  <chemical_super_class>  (1050) 
Alkaloids and derivatives

>  <direct_parent_classification>  (1050) 
Harmala alkaloids

>  <np_classifier_pathway>  (1050) 
Alkaloids

>  <np_classifier_superclass>  (1050) 
Tryptophan alkaloids

>  <np_classifier_class>  (1050) 
Carboline alkaloids

>  <np_classifier_is_glycoside>  (1050) 
True

>  <organisms>  (1050) 
Chimarrhis turbinata

>  <collections>  (1050) 
Latin America dataset|NPASS|NuBBEDB

>  <dois>  (1050) 
10.1021/np049863m|10.1590/S0102-695X2008000100007

>  <synonyms>  (1050) 
CHEMBL452188|Cordifoline

>  <cas>  (1050) 
nan

$$$$

     RDKit          2D

 22 24  0  0  0  0  0  0  0  0999 V2000
    2.2453    3.0860    0.0000 O   0  0  0  0  0  0  0  0  0  0  0  0
    1.6033    1.7303    0.0000 C   0  0  0  0  0  0  0  0  0  0  0  0
    0.1083    1.6084    0.0000 C   0  0  0  0  0  0  0  0  0  0  0  0
   -0.7448    2.8422    0.0000 O   0  0  0  0  0  0  0  0  0  0  0  0
   -0.5337    0.2527    0.0000 C   0  0  0  0  0  0  0  0  0  0  0  0
   -2.0287    0.1308    0.0000 C   0  0  0  0  0  0  0  0  0  0  0  0
   -2.8818    1.3646    0.0000 C   0  0  0  0  0  0  0  0  0  0  0  0
   -4.3768    1.2427    0.0000 C   0  0  0  0  0  0  0  0  0  0  0  0
   -5.0188   -0.1130    0.0000 C   0  0  0  0  0  0  0  0  0  0  0  0
   -6.5138   -0.2349    0.0000 O   0  0  0  0  0  0  0  0  0  0  0  0
   -4.1657   -1.3468    0.0000 C   0  0  0  0  0  0  0  0  0  0  0  0
   -4.8076   -2.7025    0.0000 O   0  0  0  0  0  0  0  0  0  0  0  0
   -2.6707   -1.2249    0.0000 C   0  0  0  0  0  0  0  0  0  0  0  0
    0.3194   -0.9811    0.0000 O   0  0  0  0  0  0  0  0  0  0  0  0
    1.8145   -0.8592    0.0000 C   0  0  0  0  0  0  0  0  0  0  0  0
    2.6676   -2.0930    0.0000 C   0  0  0  0  0  0  0  0  0  0  0  0
    4.1626   -1.9711    0.0000 C   0  0  0  0  0  0  0  0  0  0  0  0
    5.0157   -3.2049    0.0000 O   0  0  0  0  0  0  0  0  0  0  0  0
    4.8045   -0.6154    0.0000 C   0  0  0  0  0  0  0  0  0  0  0  0
    3.9514    0.6184    0.0000 C   0  0  0  0  0  0  0  0  0  0  0  0
    4.5934    1.9741    0.0000 O   0  0  0  0  0  0  0  0  0  0  0  0
    2.4564    0.4965    0.0000 C   0  0  0  0  0  0  0  0  0  0  0  0
  1  2  2  0
  2  3  1  0
  3  4  1  0
  3  5  2  0
  5  6  1  0
  6  7  2  0
  7  8  1  0
  8  9  2  0
  9 10  1  0
  9 11  1  0
 11 12  1  0
 11 13  2  0
  5 14  1  0
 14 15  1  0
 15 16  2  0
 16 17  1  0
 17 18  1  0
 17 19  2  0
 19 20  1  0
 20 21  1  0
 20 22  2  0
 22  2  1  0
 13  6  1  0
 22 15  1  0
M  END
>  <identifier>  (1051) 
CNP0103504.0

>  <canonical_smiles>  (1051) 
O=C1C(O)=C(C2=CC=C(O)C(O)=C2)OC2=CC(O)=CC(O)=C12

>  <standard_inchi>  (1051) 
InChI=1S/C15H10O7/c16-7-4-10(19)12-11(5-7)22-15(14(21)13(12)20)6-1-2-8(17)9(18)3-6/h1-5,16-19,21H

>  <standard_inchi_key>  (1051) 
REFJWTPEDVJJIY-UHFFFAOYSA-N

>  <name>  (1051) 
quercetin

>  <iupac_name>  (1051) 
2-(3,4-dihydroxyphenyl)-3,5,7-trihydroxy-chromen-4-one

>  <annotation_level>  (1051) 
5

>  <total_atom_count>  (1051) 
32

>  <heavy_atom_count>  (1051) 
22

>  <molecular_weight>  (1051) 
302.24

>  <exact_molecular_weight>  (1051) 
302.04265

>  <molecular_formula>  (1051) 
C15H10O7

>  <alogp>  (1051) 
1.99

>  <topological_polar_surface_area>  (1051) 
131.36

>  <rotatable_bond_count>  (1051) 
1

>  <hydrogen_bond_acceptors>  (1051) 
7

>  <hydrogen_bond_donors>  (1051) 
5

>  <hydrogen_bond_acceptors_lipinski>  (1051) 
7

>  <hydrogen_bond_donors_lipinski>  (1051) 
5

>  <lipinski_rule_of_five_violations>  (1051) 
0

>  <aromatic_rings_count>  (1051) 
3

>  <qed_drug_likeliness>  (1051) 
0.43

>  <formal_charge>  (1051) 
0

>  <fractioncsp3>  (1051) 
0.00

>  <number_of_minimal_rings>  (1051) 
3

>  <van_der_walls_volume>  (1051) 
239.07

>  <contains_sugar>  (1051) 
False

>  <contains_ring_sugars>  (1051) 
False

>  <contains_linear_sugars>  (1051) 
False

>  <murcko_framework>  (1051) 
O1c2ccccc2CC=C1c3ccccc3

>  <np_likeness>  (1051) 
1.70

>  <chemical_class>  (1051) 
Flavonoids

>  <chemical_sub_class>  (1051) 
Flavones

>  <chemical_super_class>  (1051) 
Phenylpropanoids and polyketides

>  <direct_parent_classification>  (1051) 
Flavonols

>  <np_classifier_pathway>  (1051) 
Shikimates and Phenylpropanoids

>  <np_classifier_superclass>  (1051) 
Flavonoids

>  <np_classifier_class>  (1051) 
Flavonols

>  <np_classifier_is_glycoside>  (1051) 
False

>  <organisms>  (1051) 
A new engineered strain of Saccharomyces cerevisiae INVSc1 [tHMG1 IDI1 ERG20 ERG9 ERG10 ERG13 ERG12 ERG8 MVD1]|Aaptos ciliata|Abelia chinensis|Abelmoschus esculentus|Abelmoschus manihot|Abies bifolia|Abies excelsa|Abies pindrow|Abies pinsapo var. marocana|Abronia latifolia|Abutilon theophrasti|Acacia adunca|Acacia arabica|Acacia armata|Acacia sp.|Acaena magellanica|Acanthopanax senticosus|Acanthophora spicifera|Acanthospermum australe|Acer carpinifolium|Acer negundo|Acer oblongum|Acer truncatum|Achillea arabica|Achillea biebersteinii|Achillea cartilaginea|Achillea clypeolata|Achillea cretica|Achillea holosericea|Achillea millefolium|Achillea pseudopectinata|Achillea santolina|Achillea spinulifolia|Achillea tenuifolia|Achillea tuzsonii|Achlys triphylla|Achyrocline alata|Achyrocline flaccida|Achyrocline sp.|Acnistus breviflorus|Aconitum gigas|Aconitum kamtschaticum|Aconitum nevadense|Aconitum tasiromontanum|Aconitum violaceum|Acremonium|Acremonium sp.|Acripeza reticulata|Acritopappus longifolius|Acrotrema uniflorum|Actinidia chinensis|Actinidia chinensis var. deliciosa|Actinidia chinensis var. hispida|Actinidia kolomikta|Adansonia grandidieri|Adenia fruticosa|Adenocarpus viscosus|Adiantum malesianum|Adina sessilifolia|Adonis sutchuenensis|Aeonium decorum|Aeonium glutinosum|Aeromonas hydrophila|Aesculus chinensis|Aesculus sp.|Afrocarpus falcatus|Aganosma heynei|Agapanthus inapertus|Agaricus campestris|Agaricus hortensis|Agarum cribrosum|Agathis microstachya|Agelas linnaei|Agelas nakamurai|Ageratina areolaris|Ageratina calophylla|Ageratina saltillensis|Aglaia elaeagnoidea|Aglaia formosana|Aglaia ignea|Agrimonia eupatoria|Agrimonia pilosa|Aguacate|Ailanthus altissima|Ailanthus altissima (Mill.) Swingle|Ailanthus sp.|Aiouea tonduzii|Ajuga genevensis|Alangium kurzii|Alangium premnifolium|Alangium vitiense|Alaria esculenta|Albertisia papuana|Albizia julibrissin|Albizzia lebbeck|Alchemilla monticola|Alchemilla sp.|Alchemilla tianschanica|Alchemilla vulgaris|Alchemilla xanthochlora|Alchornea cordifolia|Alchornea glandulosa|Alchornea sp.|Alectoria divergens|Alectra parasitica|Alexandrian laurel|Alexandrium hiranoi|Alhagi maurorum|Alhagi persarum|Alhagi pseudalhagi|Allagopappus viscosissimus|Allium Cepa|Allium ampeloprasum|Allium ascalonicum|Allium cepa|Allium ericetorum|Allium myrianthum|Allium neapolitanum|Allium odorum|Allium ramosum|Allium rotundum|Allium sativum|Allium schoenoprasum|Allium sp.|Allium tuberosum|Allium victorialis|Allium waldsteinii|Alnus incana|Alnus sieboldiana|Aloe africana|Aloe castellorum|Aloe deltoideodonta|Aloe ferox|Aloe vera|Aloe vulgaris|Alphitonia macrocarpa|Alpinia allughas|Alpinia officinarum|Alpinia tonkinensis|Alstonia spathulata|Alternaria japonica|Alternaria kikuchiana|Alternaria macrospora|Alyxia reinwardtii|Amaranthus caudatus|Amaranthus cruentus|Amaranthus hybridus|Amaranthus hypochondriacus|Amaranthus retroflexus|Amaranthus viridis|Amathia pinnata|Ambrosia hispida|Ambrosia salsola|Ambrosia tenuifolia|Amelanchier alnifolia|Amelanchier bartramiana|Amelanchier humilis|Amelanchier oligocarpa|Amelanchier sanguinea|Amelanchier spicata|Amomum villosum|Amoora cucullata|Ampelocera edentula|Ampelopsis japonica|Amphilophis odorata|Amyris marshii|Amyris texana|Anacyclus tomentosus|Anacystis montana|Ananas comosus|Anaphalis contorta|Anaphalis lactea|Anaphalis margaritacea|Anaphalis sinica|Anastatica hierochuntica|Anaxagorea luzonensis|Anaxagorea luzonensis A.GRAY|Ancistrocladus guineensis|Andrographis echioides|Andrographis paniculata|Andropogon jwarancusa|Androsace septentrionalis|Anethum graveolens|Angelica acutiloba|Angelica keiskei|Angelica lucida|Angelica sp.|Angelica taiwaniana|Angelica tarokoensis|Anigozanthos rufus|Annona ambotay|Annona cherimola|Annona cornifolia|Annona impressivenia|Annona muricata|Annulohypoxylon squamulosum|Anolis lineatopus|Anthemis altissima|Anthemis auriculata|Anthemis cotula|Anthemis sp.|Anthopleura xanthogrammica|Anthoxanthum nitens|Anthriscus sylvestris|Anthyllis onobrychioides|Anthyllis sp.|Anthyllis vulneraria|Aphis graminum|Aphis pini|Aphyllocladus denticulatus|Apis mellifera|Apium graveolens|Apium graveolens var. dulce|Aplidium orthium|Aplophyllum alberti-regelii|Apocynum cannabinum|Apocynum venetum|Apterostigma dentigerum|Arabidopsis thaliana|Aralia leschenaultii|Arbutus unedo|Arctium lappa|Arctostaphylos columbiana|Arctostaphylos patula|Arctostaphylos sp.|Ardisia Colorata|Ardisia colorata|Ardisia japonica|Arisarum vulgare|Aristea alata|Aristea compressa|Aristea ensifolia|Aristea lugens|Aristea singularis|Aristotelia australasica|Armeria maritima|Armillaria tabescens|Armoracia rusticana|Arnica acaulis|Arnica amplexicaulis|Arnica chamissonis|Arnica longifolia|Arnica mollis|Arnica montana|Arnica nevadensis|Arnica parryi|Arnica sachalinensis|Arnica sp.|Arnica viscosa|Aronia arbutifolia|Aronia melanocarpa|Artabotrys blumei|Artabotrys hexapetalus|Artemisia afra|Artemisia alba|Artemisia annua|Artemisia annua L.|Artemisia apiacea|Artemisia argyi|Artemisia assoana|Artemisia capillaries|Artemisia capillaris|Artemisia caucasica|Artemisia cina|Artemisia dentata|Artemisia diffusa|Artemisia dracunculus|Artemisia herba-alba|Artemisia lactiflora|Artemisia ludoviciana|Artemisia ludoviciana subsp. mexicana|Artemisia maritima|Artemisia mesatlantica|Artemisia monosperma|Artemisia montana|Artemisia nova|Artemisia princeps|Artemisia rehan|Artemisia rupestris|Artemisia sieversiana|Artemisia tournefortiana|Artemisia transiliensis|Artemisia tridentata|Artemisia vestita|Artemisia vulgaris|Arthrophytum leptocladum|Artocarpus altilis|Arum alpinum|Asanthus solidaginifolius|Asanthus thyrsiflorus|Asarum heterotropoides|Ascidia ahodori|Asclepias sp.|Asimina parviflora|Askidiosperma andreaeanum|Askidiosperma chartaceum|Askidiosperma paniculatum|Aspalathus linearis|Asparagus officinalis|Aspergillus|Aspergillus candidus|Aspergillus desertorum|Aspergillus fischeri|Aspergillus mutabilis|Aspergillus unguis|Asplenium septentrionale|Asplenium sp.|Aster ageratoides|Aster batangensis|Aster indicus|Aster oharai|Aster ptarmicoides|Aster sedifolius|Aster tataricus|Aster yomena|Asteraceae|Asterias glacialis|Asteriscus graveolens|Asterogyne martiana|Asterospicularia laurae|Astilbe myriantha|Astragalus aegobromus|Astragalus angustifolius|Astragalus asper|Astragalus babatagi|Astragalus bornmuellerianus|Astragalus brachycarpus|Astragalus captiosus|Astragalus cicer|Astragalus ciceroides|Astragalus coluteocarpus|Astragalus ernestii|Astragalus eupeplus|Astragalus eximius|Astragalus floccosifolius|Astragalus gummifer|Astragalus kabadianus|Astragalus levieri|Astragalus macropterus|Astragalus membranaceus|Astragalus mongholicus|Astragalus mongolicus|Astragalus onobrychis|Astragalus pycnanthus|Astragalus quisqualis|Astragalus robustus|Astragalus saganlugensis|Astragalus sempervirens|Astragalus sieberi|Astragalus spinosus|Astragalus trimestris|Astragalus varius|Astrantia sp.|Atalantia racemosa|Athanasia crithmifolia|Atractylis carduus|Atraphaxis spinosa|Atta cephalotes|Attalea excelsa|Atuna racemosa|Aucuba chinensis|Audouinia tentaculata|Aulacocephalus temmincki|Aulacomnium androgynum|Aulosira fertilissima|Avena sativa|Avrainvillea longicaulis|Axinyssa variabilis|Azadirachta indica|Baccharis bigelovii|Baccharis magellanica|Baccharis neglecta|Baccharis pteronioides|Baccharis rosmarinifolia|Baccharis salicifolia|Baccharis thesioides|Baccharis trimera|Bacillus megaterium CGMCC 1.1741|Bacopa monnieri|Baeckea crenulata|Baeckea frutescens|Bahiopsis laciniata|Balanophora involucrata|Baptisia sp.|Bartramia pomiformis|Bassia muricata|Bauhinia forficata|Bauhinia glauca|Bauhinia purpurea|Beauveria felina|Begonia fagifolia|Begonia malabarica|Beilschmiedia anacardioides|Beilschmiedia volckii|Bellida graminea|Bellium bellidioides|Benzoin praecox|Berberis julianae|Berberis repens|Berchemia floribunda|Berchemia formosana|Berchemia racemosa|Bergenia cordifolia|Bergenia crassifolia|Berkheya zeyheri|Berlinia tomentosa|Berneuxia thibetica|Bersama yangambiensis|Berteroa incana|Bertholletia excelsa|Beta vulgaris|Betula alnoides|Betula exilis|Biancaea decapetala|Biancaea sappan|Bidens parviflora|Bidens pilosa|Bidens sulphureus|Bischofia javanica|Bishovia boliviensis|Bistorta officinalis|Bistorta vivipara|Bitis gabonica|Bitter bush|Blastochloris viridis|Bleekeria vitiensis|Blumea Balsamifera|Blumea balsamifera|Boehmeria nivea|Boehmeria pannosa|Bombax ceiba|Bombax malabaricum|Bombyx mori|Bongardia chrysogonum|Boronella koniambiensis|Boronia pinnata|Botrydium granulatum|Botryosphaeria berengeriana|Botrytis cinerea|Bougainvillea spectabilis|Brachyspira hyodysenteriae|Bragantia wallichii|Brassica campestris|Brassica carinata|Brassica carinata Y line|Brassica juncea|Brassica napus|Brassica oleracea|Brassica oleracea var. botrytis|Brassica oleracea var. sabauda|Brassica oleracea var. viridis|Brassica rapa|Brassica rapa subsp. chinensis|Brassica ruvo|Breea segeta|Brenneria rubrifaciens|Breonia chinensis|Brevibacillus laterosporus|Brickellia cavanillesii|Brickellia coulteri|Brickellia glutinosa|Brickellia vernicosa|Brickelliastrum fendleri|Bridelia ferruginea|Broussonetia papyrifera|Brownea ariza|Bryonia alba|Bryopteris filicina|Bryum argenteum|Buchanania cochinchinensis|Buchanania lanzan|Buddleia coriacea|Buddleja asiatica|Buddleja cordata|Buddleja fallowiana|Buddleja salviifolia|Bugula dentata|Bulbostylis barbata|Bunias orientalis|Bunodosoma caissarum|Buphane fischeri|Bupleurum chinense|Bupleurum montanum|Bupleurum rotundifolium|Bupleurum salicifolium|Bupleurum sp.|Burkholderia cepacia|Burkholderia pyrrocinia|Byrsonima coccolobifolia|Byrsonima crassifolia|Byssochlamys fulva|Byssothecium obiones|Bystropogon origanifolius|Cacalia floridana|Cacalia pilgeriana|Caesalpinia tinctoria|Calea rupicola|Calendula officinalis|Calendula sp.|Calliandra eriophylla|Callicarpa japonica|Callicarpa nudiflora|Calligonum leucocladum|Calliphora vicina|Callisia fragrans|Callitris columellaris|Callitris sp.|Calluna sp.|Calluna vulgaris|Calonectria cylindrospora|Calycanthus chinensis|Calycanthus praecox|Camarops|Camarops sp.|Camellia japonica|Camellia oleifera|Camellia sinensis|Camonea bifida|Camonea pilosa|Camonea umbellata|Campanula alata|Campanula zangezura|Camptotheca acuminata|Campylotropis hirtella|Canarium album|Canarium commune|Canarium strictum|Canella winterana|Capnoides sempervirens|Capparicordis tweediana|Capparis decidua|Capparis himalayensis|Capparis masaikai|Capparis spinosa|Capsella bursa-pastoris|Capsicum annuum|Capsicum tetragonum|Caragana arborescens|Caragana aurantiaca|Caragana frutex|Caragana pygmaea|Caragana sinica|Caragana spinosa|Cardamine pinnata|Cardiospermum halicacabum|Carex folliculata|Carica dodecaphylla|Carlina acaulis|Carolina Locust|Carpinus orientalis|Carrichtera annua|Carthamus lanatus|Carthamus tinctorius|Carum carvi|Carum sp.|Carya illinoinensis|Caryopteris glutinosa|Cashew|Cassia fistula|Cassia javanica|Cassinia subtropica|Cassipourea gerrardii|Castanea crenata|Castanea sativa|Castanea sp.|Castanea vesca|Castanopsis sclerophylla|Casuarina sp.|Catalpa ovata|Catananche caerulea|Catha edulis|Cathormion altissimum|Caucasalia pontica|Caulerpa serrulata|Caulocystis cephalornithos|Caustis dioica|Caustis flexuosa|Ceanothus sanguineus|Cedronella canariensis|Cedrus libani|Celtis australis|Centaurea alexandrina|Centaurea aspera|Centaurea calcitrapa|Centaurea cyanus|Centaurea glomerata|Centaurea horrida|Centaurea huber-morathii|Centaurea hyalolepis|Centaurea linifolia|Centaurea maculosa|Centaurea napifolia|Centaurea pallescens|Centella asiatica|Centipeda minima|Centromadia fitchii|Cephalaria gigantea|Cephalaria grossheimii|Cephalaria procera|Ceramium rubrum|Ceratostigma willmottianum|Cerbera dilatata|Cercidiphyllum japonicum|Cercis chinensis|Cereus blanckii|Cereus dumortieri|Cereus polyrhizus|Cerinthe minor|Ceriops tagal|Ceropegia dichotoma|Cestrum parqui|Chaenomeles sinensis|Chaenomeles speciosa|Chaerophyllum sp.|Chaetomium globosum|Chaetomium subaffine|Chamaecyparis formosensis|Chamaecyparis obtusa|Chamaemelum nobile|Chamomilla recutita|Chamomilla sp.|Chamomilla suaveolens|Chelonia japonica|Cheniella glauca|Chenopodium ambrosioides|Chenopodium botrys|Chenopodium hybridum|Chenopodium murale|Chenopodium quinoa|Chenopodium simplex|Chimaphila sp.|Chlorociboria aeruginascens|Chondrodendron tomentosum|Chorizanthe diffusa|Chromolaena arnottiana|Chrysanthemum indicum|Chrysanthemum morifolium|Chrysanthemum x morifolium|Chrysophyllum cainito|Chrysosplenium echinus|Chrysosporum ovalisporum|Chrysothamnus viscidiflorus|Chuquiraga parviflora|Chuquiraga straminea|Cicer arietinum|Cicer baldshuanicum|Cicer flexuosum|Cicer kopetdaghense|Cicer pungens|Cicer tragacanthoides|Cicerbita plumieri|Cichorium endivia|Cichorium intybus|Cicuta sp.|Cinchona tucujensis|Cinnamomum kotoense|Cinnamomum philippinense|Cinnamomum tamala|Cinnamon|Cirsium carolinianum|Cirsium japonicum|Cirsium oleraceum|Cirsium oligophyllum|Cirsium tanakae|Cirsium wallichii|Cissus discolor|Cissus sicyoides|Cistus creticus|Cistus ladanifer|Cistus laurifolius|Cistus monspeliensis|Citrullus lanatus|Citrus aurantium|Citrus grandis|Citrus hassaku|Citrus latifolia|Citrus limon|Citrus maxima|Citrus medica|Citrus natsudaidai|Citrus paradisi|Citrus reticulata|Citrus rugulosa|Citrus sinensis|Citrus tangerina|Citrus trifoliata|Citrus × deliciosa|Citrus × paradisi|Cladiella australis|Cladogynos orientalis|Cladosporium tenuissimum|Clathrotropis brachypetala|Clausena lansium|Clavariopsis aquatica|Cleistopholis glauca|Cleistopholis staudtii|Clerodendrum bungei|Clethra macrophylla|Clibadium mexiae|Clione antarctica|Clusia ellipticifolia|Cneoridium dumosum|Cneorum pulverulentum|Cnidium dahuricum|Cnidium officinale|Coccus ilicis|Cocos nucifera|Codonocarpus australis|Codonopsis pilosula|Coelogorgia palmosa|Coffea arabica|Coffea canephora|Colchicum laetum|Coleophoma empetri|Colletotrichum gloeosporioides|Colliguaja salicifolia|Colobocentrotus atratus|Colocasia esculenta|Combretum cacoucia|Commelina communis|Conocephalum japonicum|Consolida hohenackeri|Consolida oliveriana|Conus mus|Conyza aegyptica|Conyza blinii|Conyza canadensis|Conyza pallidiflora|Coprinellus flocculosus|Coprinopsis cinerea|Coprosma areolata|Corchorus olitorius|Cordia curassavica|Cordia leucocephala|Cordia myxa|Cordylanthus kingii|Coreopsis fasciculata|Coreopsis grandiflora|Coriandrum sativum|Coriaria ruscifolia|Corispermum marschallii|Cornus controversa|Cornus florida|Cornus officinalis|Corticium simplex|Cortinarius orellanus|Corydalis bungeana|Corydalis calliantha|Corydalis gigantea|Corydalis ochotensis|Corydalis thalictrifolia|Corylus|Corylus avellana|Cosmos bipinnatus|Cosmos pringlei|Costus spicatus|Cota altissima|Cota palaestina|Cotula cinerea|Cotyledon secunda|Couepia paraensis|Coutarea latifolia|Cowania mexicana|Craibiodendron henryi|Crambe tatarica|Crangon vulgaris|Craspedia pleiocephala|Craspidospermum verticillatum|Crassocephalum mannii|Crataegus|Crataegus curvisepala|Crataegus laciniata|Crataegus laevigata|Crataegus microphylla|Crataegus monogyna|Crataegus orientalis|Crataegus oxyacantha L. (1753)|Crataegus pinnatifida|Crataegus rhipidophylla|Crataegus sanguinea|Crataegus stevenii|Crataegus tanacetifolia|Crateva nurvala|Cremastra appendiculata|Crepidiastrum sonchifolium|Crepis divaricata|Crepis foetida|Crepis pygmaea|Crescentia cujete|Crinipellis scabella|Crinum defixum|Crinum latifolium|Crinum moorei|Crocus corsicus|Crocus etruscus|Crocus gargaricus|Crocus korolkowii|Crocus laevigatus|Crocus minimus|Crocus sativus|Crocus versicolor|Crosslandia setifolia|Crotalaria anagyroides|Crotalaria candicans|Crotalaria lachnophora|Crotalaria nitens|Crotalaria novae-hollandiae|Croton Tonkinensis|Croton aromaticus|Croton cascarilloides|Croton cumingii|Croton gratissimus|Croton kongensis|Croton laccifer|Croton lacciferus|Croton poilanei|Croton sp.|Croton steenkampianus|Croton tonkinensis GAGNEP|Crucianella maritima|Cruciata taurica|Cryptocarya alba|Cryptocarya lividula|Cryptocarya oblata|Cryptolestes ferrugineus|Cryptomeria japonica|Cryptotaenia japonica|Cucumis melo|Cucumis sativus|Cucurbita maxima|Cucurbita moschata|Cucurbita pepo|Cuminum cyminum|Cunninghamella blakesleeana|Cuphea carthagenensis|Cupressus sempervirens|Curarea candicans|Curcuma longa|Curvularia coicis|Cuscuta australis|Cuscuta campestris|Cuscuta chinensis|Cuscuta europea|Cuscuta gronovii|Cuscuta lupuliformis|Cuscuta odorata|Cuscuta pedicellata|Cuscuta platyloba|Cuscuta reflexa|Cyamopsis sp.|Cyanostegia angustifolia|Cyathochaeta avenacea|Cycas armstrongii|Cyclamen purpurascens|Cydonia|Cydonia oblonga|Cydonia vulgaris|Cylindrospermum muscicola|Cymodocea nodosa|Cynara cornigera|Cynara humilis|Cynometra lujae|Cynomorium songaricum|Cyperus iria|Cyperus leptocarpus|Cyperus sesquiflorus|Cyperus sphaeroideus|Cyrtomium falcatum|Cystophora scalaris|Cystoseira crinita|Cystoseira jabukae|Cytisus caramanicus|Cytophaga hutchinsoni|Dactylorhiza maculata|Dactylorhiza viridis|Daedalea juniperina|Dalbergia nigra|Daldorfia horrida|Daphnandra aromatica|Daphne giraldii|Daphne gnidium|Daphne lancifolia|Daphne laureola|Daphne oleoides|Daphniphyllum paxianum|Dasiphora fruticosa|Dasymaschalon sootepense|Dasystenella acanthina|Datura ferox|Daucus carota|Debregeasia orientalis|Decachaeta thieleana|Deinandra arida|Deinandra corymbosa|Deinandra fasciculata|Deinandra greeneana|Deinandra halliana|Deinandra kelloggii|Deinandra lobbii|Deinandra minthornii|Deinandra pallida|Deinandra paniculata|Deinandra pentactis|Deinandra streetsii|Delphinium andersoni|Delphinium freynii|Delphinium honanense|Delphinium oliverianum|Delphinium schmalhausenii|Delphinium shawurense|Dendranthema morifolium|Dendranthema sp.|Dendriopoterium menendezii|Dendrobium loddigesii|Dendrobium officinale|Dendrobium tosaense|Dendrodoris krebsii|Dendronephthya griffini|Dendrospora tenella|Dermatophyllum secundiflorum|Derris uliginosa|Descurainia sophia|Desmodium styracifolium|Dianthus caryophyllus|Dichotomaria marginata|Dichotomophthora lutea|Dicoma tomentosa|Dicranopteris linearis|Dictamnus albus|Dictamnus dasycarpus|Dictyochaeta simplex|Dictyoloma incanescens|Dictyopteris acrostichoides|Dictyopteris australis|Dictyopteris undulata|Dictyota binghamiae|Didemnum solidum|Didymium bahiense|Dimerostemma brasilianum|Dinophysis fortii|Dioscorea althaeoides|Dioscorea antaly|Dioscorea bulbifera|Dioscorea japonica|Dioscorea tokoro|Diosma pilosa|Diospyros assimilis|Diospyros eriantha|Diospyros japonica|Diospyros kaki|Diospyros lotus|Diospyros zombensis|Diotis maritima|Dipentodon sinicus|Diphasia angolensis|Diphasiastrum thyoides|Diplacus longiflorus|Diplodia natalensis|Diploknema butyracea|Diplopterygium glaucum|Diplotaxis acris|Diplotaxis muralis|Diplotaxis simplex|Diplotaxis tenuifolia|Diplotaxis viminea|Dipsacus asper|Dipteronia dyeriana|Dipteryx odorata|Dischidia formosana|Distylium racemosum|Dodonaea polyandra|Dodonaea viscosa|Dolabella californica|Dolichandra unguis-cati|Dolichopentas longiflora|Doodia picta|Doronicum austriacum|Doronicum grandiflorum|Doronicum macrophyllum|Dorstenia lindeniana|Draba nemorosa|Dracaena ombet|Drechslera avenae|Drosera madagascariensis|Drosera rotundifolia|Dryas sp.|Dryocosmus kuriphilus|Dryopteris crassirhizoma|Duguetia calycina|Dumoria heckeli|Dumortiera hirsuta|Dunalia solanacea|Dysidea amblia|Dysosma aurantiocaulis|Dysosma delavayi|Dysosma versipellis|Dysoxylum cumingianum|Dysphania ambrosioides|Dysphania botrys|Echinacea pallida|Echinacea sp.|Echinarachnius mirabilis|Echinochloa esculenta|Echinopepon bigelovii|Echinops ritro|Echinosophora koreensis|Echinus auritus|Eclipta alba|Eclipta prostrata|Ectropis bicolor|Ehretia dicksonii|Elaeagnus umbellata|Elatophilus hebraicus|Elegia deusta|Elegia microcarpa|Eleocharis cylindrostachys|Eleocharis dietrichiana|Eleocharis pallens|Eleocharis sphacelata|Elephantopus hirtiflorus|Eleutherococcus senticosus|Elizabethkingia meningoseptica|Elliottia paniculata|Elmerrillia papuana|Elsholtzia ciliata|Elsholtzia cristata|Elymus repens|Embelia barbeyana|Embelia keniensis|Embelia parviflora|Embelia schimperi|Empetrum nigrum|Encelia stenophylla|Encelia ventorum|Encelia virginensis|Enceliopsis argophylla|Endosamara racemosa|Entada phaseoloides|Entada rheedei|Ephedra campylopoda|Ephedra foeminea|Ephedra sinica|Ephydatia syriaca|Epichloe festucae var. lolii|Epilobium hirsutum|Epilobium sp.|Epimedium acuminatum|Epimedium brevicornu|Epimedium brevicornum|Epimedium coactum|Epimedium davidii|Epimedium dolichostemen|Epimedium dolichostemon|Epimedium fargesii|Epimedium franchetii|Epimedium grandiflorum|Epimedium hunanense|Epimedium koreanum|Epimedium leishanense|Epimedium leptorrhizum|Epimedium membranaceum|Epimedium myrianthum|Epimedium pauciflorum|Epimedium pubescens|Epimedium sagittatum|Epimedium sempervirens|Epimedium stellatum|Epimedium truncatum|Epimedium wushanense|Epimedium zhenbaense|Epimedium zhushanense|Epipactis palustris|Epipolasis reiswigi|Epirrhoe sperryi|Equisetum arvense|Equisetum hiemale|Eragrostis curvula|Eremanthus seidelii|Eremostachys glabra|Eria anomala|Eria japonica|Eria mollis|Erica glauca|Erica manipuliflora|Erica verticillata|Ericameria diffusa|Ericameria laricifolia|Erigeron annuus|Erigeron apiculatus|Erigeron canadensis|Erinaceus europaeus|Eriobotrya Japonica|Eriobotrya japonica|Eriocapitella tomentosa|Eriocephalus pauperrimus|Eriocheir sinensis|Eriogonum umbellatum|Eriostemon spicatus|Eriostemon thryptomenoides|Eriostemon tomentellus|Erodium moschatum|Erodium stephanianum|Eruca vesicaria|Erylus trisphaerus|Eryngium campestre|Erysimum leptophyllum|Erysimum odoratum|Erythrina pallida|Erythrina sacleuxii|Erythrophleum couminga|Erythrospermum zeylanicum|Erythroxylum passerinum|Eschenbachia blinii|Esenbeckia hartmanii|Eskemukerjea megacarpum|Esox saurus|Espeletia moritziana|Etlingera elatior|Eucalyptus alba|Eucalyptus amygdalina|Eucalyptus apodophylla|Eucalyptus australiana|Eucalyptus camaldulensis|Eucalyptus globulus|Eucalyptus globulus subsp. bicostata|Eucalyptus maideni|Eucalyptus maidenii|Eucalyptus melliodora|Eucalyptus resinifera|Eucalyptus sieberiana|Eucalyptus sp.|Euchresta formosana|Eucommia ulmoides|Eudistoma bituminis|Eugenia brasiliensis|Eugenia choapamensis|Eugenia doubledayi|Eugenia hirta|Eugenia hyemalis|Eugenia myrcianthes|Eugenia prasina|Eugenia selloi|Eugenia uniflora|Eumorphia sericea|Eunicella cavolinii|Euodia officinalis|Euodia ruticarpa|Euonymus alatus|Euonymus nanoides|Euonymus sachalinensis|Eupatorium adenophorum|Eupatorium album|Eupatorium areolare|Eupatorium birmanicum|Eupatorium cannabinum|Eupatorium chinense|Eupatorium hyssopifolium|Eupatorium japonicum|Eupatorium lindleyanum|Eupatorium petiolare|Eupatorium rotundifolium|Eupatorium serotinum|Eupatorium sessilifolium|Eupatorium villosum|Euphorbia|Euphorbia amygdaloides|Euphorbia chamaesyce|Euphorbia condylocarpa|Euphorbia dracunculoides|Euphorbia ferganensis|Euphorbia franchetii|Euphorbia granulata|Euphorbia hirta|Euphorbia humifusa|Euphorbia hyssopifolia|Euphorbia lunulata|Euphorbia maculata|Euphorbia myrsinites|Euphorbia nematocypha|Euphorbia nicaeensis|Euphorbia officinarum|Euphorbia pannonica|Euphorbia pekinensis|Euphorbia sapinii|Euphorbia segetalis|Euphorbia smirnovii|Euphorbia sp.|Euphorbia tinctoria|Euphrasia genargentea|Euphydryas cynthia|Eupolyphaga sinensis|Eurya japonica|Eurycoma harmandiana|Euscaphis japonica|Eutreptia viridis|Eutrochium fistulosum|Evernia vulpina|Evodia rutaecarpa|Excoecaria acerifolia|Exobasidium vaccinii|Fabaceae|Fagonia mollis|Fagopyrum acutatum|Fagopyrum cymosum|Fagopyrum dibotrys|Fagopyrum esculentum|Fagopyrum tataricum|Fagraea gracilipes|Falconeria insignis|Fallopia cilinode|Fallopia convolvulus|Fallopia dumetorum|Fallopia multiflora|Fallopia multiflora var. ciliinervis|Fallopia scandens|Fallopia sp.|Faramea salicifolia|Felicia erigeroides|Ferulago sylvatica|Ficus carica|Ficus cordata subsp. salicifolia|Ficus pandurata|Ficus sarmentosa var. thunbergii|Filicium decipiens|Filipendula sp.|Filipendula ulmaria|Fimbristylis bisumbellata|Fimbristylis eremophila|Fimbristylis tetragona|Flacourtia jangomas|Flemingia chappar|Flemingia grahamiana|Flueggea virosa|Foeniculum sp.|Foeniculum vulgare|Fomes robiniae|Fomitopsis insularis|Fouquieria splendens|Fragaria|Fragaria chiloensis|Fragaria indica|Fragaria x ananassa|Fraxinus insularis|Fridericia chica|Fritillaria cirrhosa|Fritillaria meleagris|Fritillaria monantha|Fritillaria ningguoensis|Fritillaria raddeana|Frullania brittoniae|Frullania tamarisci|Fuirena ciliaris|Fuirena incrassata|Fumaria micrantha|Fusarium oxysporum|Gadus morhua callarias|Gahnia sieberiana|Gaillardia aristata|Galenia africana|Galium album|Galium dasypodum|Galphimia glauca|Gambeya africana|Gambierdiscus toxicus|Gamochaeta malvinensis|Ganoderma sinense|Garcinia cowa|Garcinia dulcis|Garcinia hombroniana|Garcinia intermedia|Garcinia macrophylla|Garcinia nervosa|Garcinia pseudoguttifera|Garcinia pyrifera|Garcinia xipshuanbannaensis|Gardenia jasminoides|Gardenia sootepensis|Gardenia thailandica|Gardenia turgida|Gardneria insularis|Gaylussacia baccata|Genista cinerea|Gentiana arisanensis|Gentiana germanica|Gentiana manshurica|Gentiana rigescens|Gentiana scabra|Gentiana triflora|Geranium carolinianum|Geranium collinum|Geranium lambertii|Geranium platyanthum|Geranium pusillum|Geranium rectum|Geranium robertianum|Geranium sanguineum|Geranium sp.|Geranium thunbergii|Geranium wilfordii|Geum rivale|Ginkgo biloba|Ginkgo sp.|Glebionis coronaria|Glebionis coronarium|Glechoma grandis|Gleditsia caspica|Gleditsia japonica|Gleditsia sinensis|Glehnia littoralis|Glinus lotoides|Globba malaccensis|Globularia davisiana|Glochidion sphaerogynum|Gloiopeltis furcata|Glossocalyx brevipes|Glycine max|Glycine tabacina|Glycosmis macrophylla|Glycyrrhiza lepidota|Glycyrrhiza sp.|Gmelina asiatica|Gnaphalium cheiranthifolium|Gnaphalium gracile|Gnetum latifolium|Gnidia lamprantha|Gomphostemma crinitum|Goniothalamus tamirensis|Goodenia ovata|Gossypium|Gossypium hirsutum|Gouania leptostachya|Gouania microcarpa|Gracilaria textorii|Graphis cognata|Grataegus pinnatifida|Grazielia serrata|Grewia mollis|Grewia villosa|Grindelia camporum|Grindelia hirsutula|Grindelia sp.|Guiera senegalensis|Gutierrezia alamanii|Gutierrezia grandis|Gutierrezia lucida|Gutierrezia microcephala|Gutierrezia sphaerocephala|Gutierrezia wrightii|Gymnanthemum amygdalinum|Gymnema sylvestre|Gymnocalycium schickendantzii|Gymnocarpium robertianum|Gymnothorax javanicus|Gynoxys nitida|Gypsophila perfoliata|Haematoxylum campechianum|Halimodendron halodendron|Halobacterium salinarum|Halostachys belangeriana|Halostachys caspica|Hamamelis sp.|Hamamelis virginiana|Hamamelistes betulae|Haplopappus multifolius|Haplopappus schumannii|Haplopappus scrobiculatus|Haplopappus sp.|Haplophyllum ramosissimum|Harpalyce brasiliana|Harpephyllum afrum|Harungana madagascariensis|Havardia albicans|Hazardia squarrosa|Hedera helix|Hedychium villosum|Hedysarum alpinum|Hedysarum caucasicum|Hedysarum connatum|Hedysarum coronarium|Hedysarum inundatum|Hedysarum setigerum|Helenium atacamense|Helianthopsis microphylla|Helianthus annuus|Helianthus ciliaris|Helianthus divaricatus|Helichrysum|Helichrysum arenarium|Helichrysum armenium|Helichrysum cephaloideum|Helichrysum graveolens|Helichrysum lepidissimum|Helichrysum melanacme|Helichrysum mixtum|Helichrysum stoechas|Helichrysum tenuifolium|Helicoverpa zea|Helietta longifoliata|Heliotropium bovei|Heliotropium eichwaldii|Heliotropium floridum|Helipterum roseum|Helleborus atrorubens|Helleborus multifidus|Helminthostachys zeylanica|Hemionitis japonica|Herniaria mauritanica|Herniaria polygama|Hesperis matronalis|Heterophyllaea pustulata|Heteropolygonatum alte-lobatum|Heterotheca|Heterotheca grandiflora|Heterotheca inuloides|Heterotheca sp.|Hibiscus Sabdariffa|Hibiscus sabdariffa|Hibiscus sabdariffa L.|Hippophae rhamnoides|Hippophae sp.|Hippospongia communis|Hoffmannia strigillosa|Holboellia fargesi|Holomelina lamae|Homo sapiens|Hopea brevipetiolaris|Hopea utilis|Houttuynia cordata|Hovenia acerba|Humata pectinata|Humulus lupulus|Hydrangea anomala|Hydrangea arborescens|Hydrangea aspera|Hydrangea heteromalla|Hydrangea integrifolia|Hydrangea paniculata|Hydrangea quercifolia|Hydrangea seemannii|Hydrangea serrata|Hydrophyllum sp.|Hydrophyllum tenuipes|Hydrophyllum virginianum|Hygrophorus chrysodon|Hylotelephium caucasicum|Hylotelephium ewersii|Hymenopappus scabiosaeus|Hymenothrix wislizenii|Hymenoxys insignis|Hymenoxys integrifolia|Hyoseris radiata|Hypericum Sampsonii|Hypericum adenotrichum|Hypericum androsaemum|Hypericum ascyron|Hypericum attenuatum|Hypericum aucheri|Hypericum balearicum|Hypericum bithynicum|Hypericum brasiliense|Hypericum canariense|Hypericum carinatum|Hypericum chinense|Hypericum elegans|Hypericum erectum|Hypericum ericoides|Hypericum glandulosum|Hypericum graveolens|Hypericum henryi|Hypericum hircinum|Hypericum hirsutum|Hypericum humifusum|Hypericum japonicum|Hypericum kamtschaticum|Hypericum laricifolium|Hypericum maculatum|Hypericum monogynum|Hypericum montanum|Hypericum montbretii|Hypericum oblongifolium|Hypericum patulum|Hypericum perforatum|Hypericum perforatum var.angustifolium|Hypericum polyanthemum|Hypericum pseudomaculatum|Hypericum pseudopetiolatum|Hypericum punctatum|Hypericum reflexum|Hypericum revolutum|Hypericum richeri|Hypericum sampsonii|Hypericum scabrum|Hypericum sikokumontanum|Hypericum sp.|Hypericum styphelioides|Hypericum tetrapterum|Hypericum thasium|Hypericum triquetrifolium|Hypericum undulatum|Hypericum venustum|Hyphear tanakae|Hypolepis punctata|Hypomyces semitranslucens|Hypoxis multiceps|Hyptis brevipes|Hyssopus officinalis|Iberis amara|Ichthyothere terminalis|Ifloga spicata|Ilex affinis|Ilex amara|Ilex amelanchier|Ilex argentina|Ilex belizensis|Ilex boliviana|Ilex brasiliensis|Ilex brevicuspis|Ilex canariensis|Ilex cassine|Ilex chamaedryfolia|Ilex colchica|Ilex conocarpa|Ilex coriacea|Ilex crenata|Ilex cymosa|Ilex decidua|Ilex discolor|Ilex diuretica|Ilex dumosa|Ilex dunniana|Ilex ficoidea|Ilex geniculata|Ilex glabra|Ilex guianensis|Ilex hainanensis|Ilex krugiana|Ilex laevigata|Ilex leucoclada|Ilex longipes|Ilex macfadyenii|Ilex macropoda|Ilex martiniana|Ilex micrococca|Ilex microdonta|Ilex mitis|Ilex montana|Ilex myrtifolia|Ilex nitida|Ilex ovalis|Ilex pseudobuxus|Ilex pseudovaccinium|Ilex quercetorum|Ilex sideroxyloides|Ilex sp.|Ilex taubertiana|Ilex tectonica|Ilex teratopis|Ilex theezans|Ilex uraiensis|Illicium verum|Impatiens balsamina|Incarvillea delavayi|Incarvillea mairei|Incarvillea mairei var. grandiflora|Indigofera linnaei|Inga velutina|Inocybe geophylla|Inula britannica|Inula japonica|Inula sp.|Iochroma gesnerioides|Ipomoea batatas|Ipomoea digitata|Ipomoea reptans|Ips confusus|Ips paraconfusus|Ircinia dendroides|Iryanthera paraensis|Isaria felina|Isaria fumosorosea|Isodon excisus|Isodon japonicus|Isodon sculponeatus|Isophysis tasmanica|Ixeris debilis|Ixeris stolonifera|Ixeris tamagawaensis|Jaborosa kurtzii|Jacaranda chelonia|Jackiella javanica|Jacobaea vulgaris|Jamesoniella colorata|Jatropha macrorhiza|Jnula britannica|Juglans mandshurica|Juglans nigra|Juglans nigra L.|Juglans regia L.|Jugo|Juncus effusus|Juniperus chinensis|Juniperus communis|Juniperus drupacea|Juniperus phoenicea|Juniperus rigida var. conferta|Juniperus sp.|Juniperus utahensis|Justicia ciliata|Justicia hayatai|Justicia paniculata|Justicia secunda|Kadsura Heteroclita|Kadsura heteroclita|Kaempferia marginata|Kalanchoe ceratophylla|Kalanchoe laciniata|Kalanchoe pinnata|Kali turgidum|Kalmia latifolia|Karwinskia spp.|Khaya ivorensis|Khaya senegalensis|Kielmeyera albopunctata|Kielmeyera coriacea|Kielmeyera corymbosa|Klattia partita|Knautia montana|Knightia excelsa|Koanophyllon simillimum|Koelpinia linearis|Koelreuteria henryi|Koenigia coriaria|Koenigia polystachya|Koompassia malaccensis|Kopsia hainanensis|Krascheninnikovia ceratoides|Kummerowia striata|Lactarius vellereus|Lactobacillus casei|Lactobacillus delbrueckii subsp. bulgaricus|Lactuca acanthifolia|Lactuca aculeata|Lactuca altaica|Lactuca indica|Lactuca perennis|Lactuca saligna|Lactuca sativa|Lactuca serriola|Lactuca tatarica|Lactuca tenerrima|Lactuca triquetra|Lactuca viminea|Lactuca virosa|Laennecia filaginoides|Laetiporus versisporus|Lafoensia glyptocarpa|Lagerstroemia indica|Lagerstroemia speciosa|Lagochilus leiacanthus|Lamellodysidea herbacea|Lamyropsis cynaroides|Lanxangia tsao-ko|Larix gmelinii var. gmelinii|Larix sibirica|Larix sp.|Larrea divaricata|Larrea sp.|Larrea tridentata|Lasiocephalus ovatus|Lasiosiphon burchellii|Lathyrus amphicarpos|Lathyrus angulatus|Lathyrus annuus|Lathyrus aphaca|Lathyrus articulatus|Lathyrus cicera|Lathyrus clymenum|Lathyrus digitatus|Lathyrus filiformis|Lathyrus gmelinii|Lathyrus grandiflorus|Lathyrus heterophyllus|Lathyrus hierosolymitanus|Lathyrus hirsutus|Lathyrus incurvus|Lathyrus japonicus|Lathyrus latifolius|Lathyrus laxiflorus|Lathyrus niger|Lathyrus nissolia|Lathyrus ochrus|Lathyrus palustris|Lathyrus pseudocicera|Lathyrus sativus|Lathyrus setifolius|Lathyrus sphaericus|Lathyrus sylvestris|Lathyrus tingitanus|Lathyrus transsilvanicus|Lathyrus tremolsianus|Lathyrus tuberosus|Lathyrus venosus|Lathyrus vernus|Latrunculia magnifica|Latua pubiflora|Laurencia distichophylla|Laurencia spectabilis|Laurentia longiflora|Laurus nobilis|Lavandula pedunculata|Lavandula vera|Lawsonia inermis|Leandra lacunosa|Leathesia nana|Lecanora nipponica|Leea guineense|Leea guineensis|Leishmania major|Leitneria floridana|Lemaireocereus griseus|Lemaireocereus longispinus|Leonurus cardiaca|Leonurus glaucescens|Leonurus heterophyllus|Leonurus japonicus|Leonurus persicus|Lepidium apetalum|Lepidium draba|Lepidium sativum|Lepidosperma costale|Lepidosperma effusum|Lepidosperma filiforme|Lepidosperma flexuosum|Lepidosperma laterale|Lepidosperma lineare|Lepidosperma pruinosum|Lepidosperma tenue|Lepidosperma ustulatum|Lepisorus thunbergianus|Lepisorus ussuriensis|Lepraria citrina|Lespedeza bicolor|Lespedeza virgata|Leucanthemum vulgare|Leucas neufliseana|Leucopaxillus giganteus|Leuzea centauroides|Levisticum officinale|Liatris gracilis|Libocedrus plumosa|Licania pittieri|Licaria armeniaca|Ligaria cuneifolia|Ligularia cymbulifera|Ligularia kanaitzensis|Ligularia lamarum|Ligustrum lucidum|Ligustrum obtusifolium|Lilium brownii|Lilium lancifolium|Lilium pumilum|Lilium umbellatum|Limnocharis flava|Limonium aureum|Limonium gmelini|Limonium gmelinii|Limonium popovii|Limonium sinense|Linaria macroura|Lindera aggregata|Lindera glauca|Lindera strichnifolia|Liparophyllum gunnii|Lipocarpha microcephala|Lippia citriodora|Lippia graveolens|Lippia mexicana|Lippia origanoides|Lippia sidoides|Lithospermum officinale|Litsea ceylanica|Litsea glutinosa|Litsea pedunculata|Litsea rubescens|Litsea salicifolia|Livistona australis|Lobelia chinensis|Lobelia st|Lobophytum chevalieri|Lobophytum durum|Lobophytum laevigatum|Lomatia hirsuta|Lonchocarpus laxiflorus|Lonchocarpus orotinus|Lonicera caerulea|Lonicera confusa|Lonicera confuse|Lonicera dasystyla|Lonicera fulvotomentosa|Lonicera hypoglauca|Lonicera japonica|Lonicera microphylla|Lonicera tatarica var. morrowii|Lophozia floerkei|Lorandersonia pulchella|Lotus corniculatus|Lotus japonicus|Lotus pedunculatus|Lotus polyphyllos|Lotus ucrainicus|Lotus uliginosus|Luetkea pectinata|Luffa aegyptiaca|Lunularia cruciata|Lupinus luteus|Lupinus verbasciformis|Lychnophora ericoides|Lycium barbarum|Lycium sp.|Lycopodium flabelliforme|Lycopus asper|Lycopus lucidus|Lygodium flexuosum|Lyonia ovalifolia|Lysiana subfalcata|Lysimachia christinae|Lysimachia congestiflora|Lysimachia fordiana|Lysimachia heterogenea|Lysimachia japonica|Lysimachia mauritiana|Lysimachia thyrsiflora|Macadamia|Macadamia ternifolia|Macaranga peltata|Macaranga tanarius|Machilus macrantha|Machilus thunbergii|Maclura pomifera|Macrothele gigas|Macrothelypteris torresiana|Macrozamia macdonnellii|Madia gracilis|Madia sativa|Maesa lanceolata|Magnolia denudata|Magnolia liliiflora|Magnolia montana|Magnolia sieboldii|Magnolia sprengeri|Magnolia yunnanensis|Maharanga bicolor|Malus domestica|Malus doumeri|Malus doumeri varl formosana|Malus pumila|Malus sieversii|Malus sp.|Mammillaria magnimamma|Mangifera indica|Mangifera persiciformis|Manihot esculenta|Manilkara hexandra|Manilkara kauki|Mantella aurantiaca|Marasmiellus troyanus|Marine actinobacterium|Markhamia stipulata|Marrubium anisodon|Marrubium cylleneum|Martensia denticulata|Matricaria chamomilla|Matricaria discoidea|Matricaria matricarioides|Maytenus buxifolia|Maytenus chuchuhuasha|Maytenus loeseneri|Maytenus retusa|Maytenus serrata|Medicago arabica|Medicago blancheana|Medicago cancellata|Medicago cretacea|Medicago falcata|Medicago glutinosa|Medicago hybrida|Medicago intertexta|Medicago laciniata|Medicago lupulina|Medicago monantha|Medicago monspeliaca|Medicago murex|Medicago nigra|Medicago orbicularis|Medicago orthoceras|Medicago polyceratia|Medicago polymorpha|Medicago radiata|Medicago rotata|Medicago sativa|Medicago scutellata|Medicago truncatula|Medicago turbinata|Melaleuca ericifolia|Melaleuca leucadendra|Melaleuca quinquenervia|Melaleuca rhaphiophylla|Melaleuca sp.|Melanelixia fuliginosa subsp. glabratula|Melastoma candidum|Melastoma malabathricum|Melastoma septemnervium|Melia azedarach|Melia azedarach var. toosendan|Melia volkensii|Melilotus altus|Melilotus indicus|Melilotus italicus|Melilotus messanensis|Melilotus officinalis|Melilotus siculus|Melilotus sulcatus|Melilotus tauricus|Melilotus wolgicus|Melissa officinalis|Menegazzia asahinae|Mentha cardiaca|Mentha spicata|Mentzelia cordifolia|Menyanthes sp.|Menyanthes trifoliata|Mesembryanthemum expansum|Mesomelaena preissii|Mesomelaena pseudostygia|Mesomelaena stygia|Mespilus germanica|Metanarthecium luteoviride|Metapenaeus bennettae|Metasequoia glyptostroboides|Methylobacterium rhodinum|Micarea austroternaria|Miconia lacunosa|Microciona eurypa|Microglossa pyrrhopappa|Microliabum candidum|Microliabum polymnioides|Micromeria pineolens|Microtropis fokienensis|Miliusa horsfieldii|Miliusa velutina|Millettia erythrocalyx|Millettia ferruginea|Millettia rubiginosa|Mimosa diplotricha|Mimosa invisa|Mimosa rubicaulis|Mimusops caffra|Mitragyna speciosa|Modiolus demissus|Mollinedia costaricensis|Mollugo spergula|Momordica charantia|Monascus pilosus|Monochaetia compta|Monodora brevipes|Monomorium floricola|Monsonia senegalensis|Moquilea licaniaeflora|Moquilea pyrifolia|Morella rubra|Morinda citrifolia|Morinda morindoides|Moringa concanensis|Mortierella elongata|Morus alba|Morus australis|Morus bombycis|Morus indica|Morus nigra|Mosla chinensis|Mosla japonica|Munronia delavayi|Muntingia calabura|Murraya exotica|Murraya kwangsiensis|Murraya paniculata|Musa|Mutisia acuminata|Mutisia orbignyana|Mycobacterium leprae|Mycobacterium tuberculosis|Myosotis sylvatica|Myrcia neoglabra|Myrica rubra|Myriophyllum aquaticum|Myristica fragrans|Myrsine africana|Myrsine capitellata|Myxococcus stipitatus|Nama hispidum|Narcissus concolor|Narcissus obesus|Nardostachys jatamansi|Nassauvia cumingii|Nasturtium officinale|Nasutitermes ephratae|Nauclea officinalis|Naucleopsis ternstroemiiflora|Nectandra gardneri|Nectandra hihua|Nectandra pichurim|Nelumbo nucifera|Nemalion vermiculare|Nematolepis phebalioides|Neobalanocarpus heimii|Neobellieria bullata|Neonectria candida|Neonotonia wightii|Neophaeosphaeria quadriseptata|Neoshirakia japonica|Nepenthes gracilis|Nepenthes thorelii|Nephelium lappaceum|Nerine bowdenii|Neurolaena lobata|Nicotiana affinis|Nicotiana debneyi|Nidula candida|Nigella arvensis|Nivenia fruticosa|Nostoc spongiaeforme|Notholaena aschenborniana|Nuxia oppositifolia|Nymphaea alba L.|Nymphoides cordata|Nymphoides crenata|Nymphoides cristata|Nymphoides fallax|Nymphoides geminata|Nymphoides grayana|Nymphoides grayanum|Nymphoides indica|Nymphoides peltata|Oceanapia ramsayi|Ochradenus baccatus|Ocimum pilosum|Ocotea holdridgeiana|Ocotea pulchella|Odontites rubra|Odontocline hollickii|Oenanthe javanica|Oenothera affinis|Oenothera biennis|Oenothera glazioviana|Oenothera speciosa|Oldenlandia diffusa|Olea sp.|Oncoba echinata|Ongokea klaineana|Onobrychis biebersteinii|Onobrychis bobrovii|Onobrychis cyri|Onobrychis kachetica|Onobrychis viciifolia|Ononis sp.|Ononis speciosa|Ononis spinosa|Ononis vaginalis|Onopordum acanthium|Onosma heterophylla|Oophaga pumilio|Ophiocoma scolopendrina|Ophioglossum costatum|Ophioglossum pedunculosum|Ophioglossum petiolatum|Ophiolepis superba|Ophioparma ventosa|Ophiopogon chekiangensis|Ophiorrhiza blumeana|Ophryosporus floribundus|Opuntia chlorotica|Opuntia ficus-indica|Opuntia humifusa|Opuntia littoralis|Opuntia phaeacantha|Orbivestus leopoldii|Oreobolus pumilio|Oreoherzogia fallax|Oreopteris quelpaertensis|Origanum dictamnus|Origanum vulgare|Ormosia nobilis|Ornduffia reniformis|Orostachys japonica|Orthosiphon spicatus|Oryza Sativa|Oryza aristata|Oryza sativa|Oryza sativa cv. Heugjinjubyeo|Osbeckia chinensis|Oscillatoria princeps|Oscillochloris trichoides|Osmanthus fragrans|Osmanthus heterophyllus|Osmanthus ilicifolius|Osmanthus × fortunei|Osmorhiza aristata|Osteophloeum platyspermum|Osteospermum fruticosum|Osteospermum hyoseroides|Osteospermum muricatum|Ovatus malisuctus|Oxalis purpurea|Oxytropis falcata|Oxytropis oxyphylla|Oxytropis strobilacea|Ozoroa insignis|Paeonia lactiflora|Paeonia rockii|Paeonia sp.|Paeonia suffruticosa|Paeonia × suffruticosa|Pallenis hierochuntica|Panax ginseng|Pancratium sickenbergeri|Pangium edule|Panzerina lanata|Papaver hybridum|Papaver rhoeas|Papaver tatricum|Papularia sphaerosperma|Parabenzoin trilobum|Parablechnum minus|Paraburkholderia caryophylli|Paracalyx scariosus|Paralemnalia clavata|Paranomus|Parastrephia lepidophylla|Parinari capensis|Parinari oblongifolia|Parinari occidentalis|Parinari parilis|Parinari parvifolia|Parinari rodolphii|Parmelia subrudecta|Passiflora incarnata|Passiflora palmeri|Passifloraceae|Pastinaca sativa|Patersonia fragilis|Patersonia occidentalis|Patersonia sericea|Patrinia scabiosifolia|Patrinia scabra|Patrinia villosa|Paulownia tomentosa|Pavetta indica|Payena lucida|Peganum harmala|Pelargonium graveolens|Pelargonium reniforme|Pelargonium roseum|Pelargonium sidoides|Peltogyne pubescens|Peltostigma guatemalense|Penicillium citreonigrum|Penicillium herquei|Penicillium paxilli|Penicillium puberulum|Penicillium thymicola|Penstemon gentianoides|Penstemon mucronatus|Penstemon secundiflorus|Pentaclethra macrophylla|Peperomia vulcanica|Pereskia aculeata|Pericome caudata|Periploca calophylla|Periploca sepium|Perovskia abrotanoides|Persicaria amphibia|Persicaria chinensis|Persicaria glabra|Persicaria hydropiper|Persicaria lapathifolia|Persicaria orientalis|Persicaria pensylvanica|Persicaria pubescens|Persicaria senegalensis|Persicaria senticosa|Persicaria sp.|Persicaria tinctoria|Persicaria viscosa|Petasites hybridus|Petasites japonicus|Petriella sordida|Petroselinum crispum|Petrosimonia monandra|Peucedanum morisonii|Peucedanum palustre|Peucedanum praeruptorum|Phaeolus schweinitzii|Phalaenopsis aphrodite|Phalaris canariensis|Phanera japonica|Phaseolus vulgaris|Phebalium gracile|Phebalium stenophyllum|Phebalium whitei|Phedimus aizoon|Phedimus kamtschaticus|Phelline lucida|Phellodendron Amurense|Phellodendron amurense|Phellodendron amurense var. wilsonii|Phellodendron chinense var. glabriusculum|Phellodendron japonicum MAXIM|Phellodendron wilsonii|Phillyrea latifolia|Phlogacanthus thyrsiflorus|Phlomoides hamosa|Phoebe pittieri|Phoenix dactylifera|Phomopsis leptostromiformis|Phora velutina|Phormia regina|Phyfnnvik eyyfn|Phyllanthus Emblica|Phyllanthus acuminatus|Phyllanthus discoideus|Phyllanthus emblica|Phyllanthus klotzschianus|Phyllanthus niruri|Phyllanthus sellowianus|Phyllanthus sp.|Phyllanthus urinaria|Phyllanthus virgatus|Physalis alkekengi|Physalis edulis|Physalis philadelphica var. immaculata|Phytolacca acinosa|Phytolacca americana|Phytolacca thyrsiflora|Phytophthora sojae|Picea abies|Picea jezoensis|Picea jezoensis var. jezoensis|Picea neoveitchii|Picradeniopsis pringlei|Picris conyzoides|Picrorhiza kurrooa|Pieris napi|Piliostigma thonningii|Pimenta dioica|Pimpinella anisum|Pimpinella sp.|Pinguicula vulgaris|Pinus|Pinus brutia|Pinus brutia var. eldarica|Pinus contorta|Pinus densiflora var. densiflora|Pinus halepensis|Pinus ponderosa|Pinus sp.|Pinus sylvestris|Pinus uncinata|Piper arboreum|Piper heterophyllum|Piper lanceifolium|Piper nigrum|Piper regnellii|Piper taboganum|Piper umbellatum|Piptocarpha oblonga|Piptostigma fugax|Pistacia sp.|Pistacia vera|Pisum sativum|Pitavia punctata|Pityrogramma tartarea|Plagiomnium undulatum|Plantago lanceolata|Plantago lundborgii|Plantago major|Platanus sp.|Plathymenia reticulata|Platycarya strobilacea|Platycladus orientalis|Plectranthus myrianthus|Pleiogynium timorense|Pleiogynium timoriense|Pleione bulbocodioides|Pleione yunnanensis|Plenodomus tracheiphilus|Pleogyne cunninghami|Pleogyne cunninghamii|Pleurotus japonicus|Plinia cauliflora|Plinia edulis|Pluchea indica|Plumbagella micrantha|Poacynum venetum|Podocarpus fasciculus|Podocarpus macrophyllus|Podocarpus salignus|Podolepis longipedata|Podophyllum hexandrum|Podophyllum peltatum|Podophyllum versipelle|Pogostemon cablin|Pojarkovia stenocephala|Polyalthia longifolia|Polycephalomyces nipponicus|Polygala amara|Polygala caudata|Polygala reinii|Polygala sabulosa|Polygala sellowiana|Polygonaceae|Polygonatum|Polygonatum glaberrimum|Polygonatum orientale|Polygonum aviculare|Polygonum cuspidatum|Polygonum equisetiforme|Polygonum glaucum|Polygonum maritimum|Polygonum orientale|Polygonum senticosum|Polylepis besseri|Polylepis incana|Polypodiodes formosana|Polyporus dryadeus|Polyzonium rosalbum|Pongamia pinnata|Pongamiopsis pervilleana|Popillia japonica|Populus deltoides|Populus nigra|Porophyllum obscurum|Porophyllum ruderale|Portulaca oleracea|Potentilla|Potentilla chinensis|Potentilla fruticosa|Potentilla sp.|Poupartia borbonica|Pouzolzia occidentalis|Premna odorata|Premna resinosa|Premna schimperi|Premna tomentosa|Primula integrifolia|Primula sp.|Prorocentrum micans|Prosopis farcta|Prosopis ruscifolia|Protea obtusifolia|Prumnopitys ferruginoides|Prunella vulgaris|Prunus armeniaca|Prunus avium|Prunus cerasus|Prunus domestica|Prunus dulcis|Prunus mume|Prunus persica|Prunus salicina|Prunus spinosa|Pseudaegle trifoliata|Pseudeurotium zonatum|Pseudoalteromonas luteoviolacea|Pseudoceratina arabica|Pseudodistoma arborescens|Pseudognaphalium affine|Pseudognaphalium pellitum|Pseudognaphalium schraderi|Psidium Guajava|Psidium friedrichsthalianum|Psidium guajava|Psoroma pallidum|Psorospermum androsaemifolium|Psorospermum androsaemifolium BAKER|Psychotria bahiensis|Psychotria klugii|Psychotria stachyoides|Pteridium aquilinum|Pteridium esculentum|Pteris dactylina|Pteris fauriei|Pteris semipinnata|Pterocaulon purpurascens|Pterocaulon virgatum|Pterodon emarginatus|Pterogyne nitens|Pterospermum lanceaefolium|Pueraria montana var. lobata|Pulicaria crispa|Pulicaria gnaphalodes|Pulicaria incisa|Pulsatilla campanella|Punica Granatum|Punica granatum|Punica granatum L.|Purpura aperta|Purshia mexicana|Pycnandra acuminata|Pyrola calliantha|Pyrola decorata|Pyrola japonica|Pyrrosia lingua|Pyrus communis|Quercus dentata|Quercus gilva|Quercus ilex|Quercus salicina|Quercus serrata|Quercus sessiliflora|Quercus sp.|Quercus suber|Quillaja brasiliensis|Rabdosia excisa|Radermachera xylocarpa|Ramalina sayreana|Rana amurensis|Ranunculus asiaticus|Rapanea lancifolia|Raphanus sativus|Raphanus sativus subsp. niger|Raphanus sativus var. sativus|Ratibida mexicana|Rauvolfia vomitoria|Reaumuria hirtella|Reaumuria mucronata|Reaumuria vermiculata|Reedia spathacea|Remijia pedunculata|Remirea maritima|Reseda muricata|Retama duriaei|Retama raetam|Reynoutria sachalinensis|Rhagadiolus stellatus|Rhamnaceae|Rhamnus|Rhamnus cathartica|Rhamnus disperma|Rhamnus lotus|Rhamnus lycioides|Rhamnus nakaharae|Rhamnus pallasii|Rhamnus prinoides|Rhamnus sp.|Rhamnus taquetii (H.Lév. & Vaniot) H.Lév.|Rheum maximowiczii|Rhinella marina|Rhizobium leguminosarum|Rhizophagus intraradices|Rhizopus stolonifer|Rhodiola coccinea|Rhodiola heterodonta|Rhodiola quadrifida|Rhodiola rosea|Rhodiola semenovii|Rhododendron abietifolium|Rhododendron acuminatum|Rhododendron aurigeranum|Rhododendron bagobonum|Rhododendron beyerinckianum|Rhododendron brachycarpum|Rhododendron brookeanum|Rhododendron buxifolium|Rhododendron christi|Rhododendron christianae|Rhododendron crassifolium|Rhododendron culminicola|Rhododendron culminicolum|Rhododendron dahuricum|Rhododendron dauricum|Rhododendron decorum|Rhododendron dianthosmum|Rhododendron durionifolium|Rhododendron ellipticum|Rhododendron falconeri|Rhododendron farrerae|Rhododendron gracilentum|Rhododendron groenlandicum|Rhododendron hooglandii|Rhododendron inconspicuum|Rhododendron intranervatum|Rhododendron irroratum|Rhododendron jasminiflorum|Rhododendron javanicum|Rhododendron kawakamii|Rhododendron konori|Rhododendron laetum|Rhododendron lanceolatum|Rhododendron latoucheae|Rhododendron ledebourii|Rhododendron leptanthum|Rhododendron leucogigas|Rhododendron macgregoriae|Rhododendron meijeri|Rhododendron micranthum|Rhododendron micromalayanum|Rhododendron mucronatum|Rhododendron mucronulatum|Rhododendron nervulosum|Rhododendron nieuwenhuisii|Rhododendron obtusum|Rhododendron orbiculatum|Rhododendron ovatum|Rhododendron phaeochitum|Rhododendron planecostatum|Rhododendron pneumonanthum|Rhododendron polyanthemum|Rhododendron ponticum|Rhododendron praetervisum|Rhododendron rarum|Rhododendron retusum|Rhododendron robinsonii|Rhododendron rugosum|Rhododendron searleanum|Rhododendron sichotense|Rhododendron sp.|Rhododendron spinuliferum|Rhododendron stapfianum|Rhododendron stenophyllum|Rhododendron suaveolens|Rhododendron superbum|Rhododendron tomentosum|Rhododendron ungerni|Rhododendron vandeursenii|Rhododendron womersleyi|Rhododendron wrightianum|Rhododendron yelliottii|Rhododendron zoelleri|Rhodomicrobium vannielii|Rhodopseudomonas palustris|Rhus chinensis|Rhus coriaria|Rhus sp.|Rhus vulgaris|Rhytidoponera metallica|Ribes alpinum|Ribes nigrum|Ribes rubrum|Ribes uva-crispa|Rivina humilis|Rivularia firma|Robinsonia evenia|Robinsonia gayana|Robinsonia macrocephala|Robinsonia thurifera|Roboastra tigris|Rodgersia podophylla|Rodgersia sambucifolia|Rohdea aurantiaca|Rosa agrestis|Rosa bella|Rosa canina|Rosa chinensis|Rosa davidii|Rosa davurica|Rosa gallica|Rosa hybrida|Rosa laevigata|Rosa multiflora|Rosa rugosa|Rosa sericea|Rosa sp.|Rosa taiwanensis|Rosa × damascena|Roscoea purpurea|Rosmarinus officinalis|Rosulabryum capillare|Rotala verticillaris|Rothmaleria granatensis|Rubia schumanniana|Rubrivivax gelatinosus|Rubus|Rubus arcticus|Rubus chamaemorus|Rubus chingii|Rubus corchorifolius|Rubus coreanus|Rubus idaeus|Rubus phoenicolasius|Rubus rosa|Rubus ulmifolius|Rudbeckia hirta|Ruellia rosea|Rumex bucephalophorus|Rumex chalepensis|Rumex maritimus|Rumex nepalensis|Rumex obtusifolius|Rusavskia elegans|Russowia sogdiana|Russula japonica|Ruta angustifolia|Ruta chalepensis|Ruta graveolens|Ruta microcarpa|Ruta montana|Ruta oreojasme|Ruta pinnata|Sabina sargentii|Saccharomyces cerevisiae|Saccharopolyspora hirsuta|Saccharum spontaneum|Sagittaria sagittifolia|Salacia beddomei|Salacia elliptica|Salix acutifolia|Salix arbusculoides|Salix caprea|Salix pantosericea|Salix purpurea|Salix sachalinensis|Salsola collina|Salta triflora|Salvia clinopodioides|Salvia digitaloides|Salvia dorrii|Salvia hispanica|Salvia miltiorrhiza|Salvia munzii|Salvia officinalis|Salvia polystachya|Salvia sessei|Salvia syriaca|Salvia urolepis|Salvia xalapensis|Samadera indica|Samanea saman|Sambucus canadensis|Sambucus nigra|Sambucus sp.|Sanguisorba minor|Sanguisorba sp.|Sanicula graveolens|Sapindus emarginatus|Sapium sebiferum|Saprospira grandis|Saracha viscosa|Sarcandra glabra|Sarcococca vagans|Sarcodon aspratus|Sarcophyton elegans|Sarcopoterium spinosum|Sargassum muticum|Sarothra gentianoides|Saururus chinensis|Saussurea amara|Saussurea controversa|Saussurea gossypiphora|Saussurea involucrata|Saussurea laniceps|Saussurea medusa|Saussurea parviflora|Saussurea pulchella|Savoy cabbage|Saxifraga stolonifera|Scabiosa succisa|Scaevola taccada|Scarlet firethorn|Scheelea princeps|Schenkia spicata|Schinus molle|Schisandra chinensis|Schisandra lancifolia|Schistostephium rotundifolium|Schizonepeta multifida|Schizophyllum lobatum|Schoenia cassiniana|Schoenoplectus tabernaemontani|Schoenus apogon|Schoenus bifidus|Schoenus clandestinus|Schoenus subflavus|Schouwia purpurea|Schouwia thebaica|Scilla maritima|Scleria mackaviensis|Scleria tricuspidata|Scleromitrion diffusum|Scolymus hispanicus|Scolymus maculatus|Scorzonera austriaca|Scorzonera graminifolia|Scorzonera hirsuta|Scorzonera hispanica|Scorzonera humilis|Scorzonera laciniata|Scorzonera mollis|Scorzonera pseudodivaricata|Scorzonera pseudolanata|Scorzonera pusilla|Scurrula ferruginea|Scutellaria amoena|Scutellaria baicalensis|Scutellaria comosa|Searsia dregeana|Searsia lancea|Securigera coronilla|Securinega melanthesoides|Sedum acre|Sedum album|Sedum alpestre|Sedum anglicum|Sedum annuum|Sedum apoleipon|Sedum borissovae|Sedum brissemoreti|Sedum cepaea|Sedum crassularia|Sedum euxinum|Sedum farinosum|Sedum forsterianum|Sedum fusiforme|Sedum grisebachii|Sedum laconicum|Sedum litoreum|Sedum lydium|Sedum melanantherum|Sedum meyeri-johannis|Sedum montanum|Sedum multiceps|Sedum obtuso-lineare|Sedum ochroleucum|Sedum rupestre|Sedum samium|Sedum sarmentosum|Sedum sediforme|Sedum sexangulare|Sedum takesimense|Sedum takesimense Nakai|Sedum tuberosum|Sedum ursi|Sedum urvillei|Sempervivum altum|Sempervivum arachnoideum|Sempervivum armenum|Sempervivum atlanticum|Sempervivum borissovae|Sempervivum cantabricum|Sempervivum caucasicum|Sempervivum ciliosum|Sempervivum dzhavachischvilii|Sempervivum furseorum|Sempervivum grandiflorum|Sempervivum ingwersenii|Sempervivum kindingeri|Sempervivum kosaninii|Sempervivum leucanthum|Sempervivum macedonicum|Sempervivum marmoreum|Sempervivum montanum|Sempervivum ossetiense|Sempervivum ruthenicum|Sempervivum tectorum|Sempervivum thompsonianum|Sempervivum transcaucasicum|Senecio adenophyllus|Senecio densiflorus|Senecio dolichodoryius|Senecio mairetianus|Senecio renardii|Senecio sandersonii|Senecio sp.|Senecio stabianus|Senecio subdentatus|Senecio viravira|Senecio viscosus|Senegalia catechu|Senna alexandrina|Senna didymobotrya|Senna italica|Senna siamea|Senna skinneri|Senna sophera|Septoria pistaciarum|Serratula inermis|Serratula wolffii|Sesbania bispinosa|Sextonia rubra|Shigella dysenteriae|Sia ferox|Sicana odorifera|Sida cordata|Sida veronicaefolia|Sidastrum acuminatum|Sidastrum paniculatum|Sideritis euboea|Sideritis foetens|Sideritis kuegleriana|Sideritis soluta|Sideritis syriaca|Sideritis trojana|Siegesbeckia pubescens|Sigesbeckia glabrescens|Silphium perfoliatum|Silphium perfoliatum L.|Silybum marianum|Silybum sp.|Simarouba glauca|Simsia foetida|Sinapis alba|Sindora wallichii|Sinoadina racemosa|Sinocrassula indica|Sinopodophyllum emodi|Sinularia depressa|Sinularia molesta|Siphocampylus verticillatus|Siphonaria capensis|Siphoneugena densiflora|Sisymbrium sp.|Sisyrinchium californicum|Smallanthus sonchifolius|Smilax Bracteata|Smilax Riparia|Smilax bockii|Smilax bracteata|Smilax china|Smilax corbularia|Smilax glabra|Smilax riparia|Smyrnium creticum|Solanaceae|Solanum acaule|Solanum dulcamara|Solanum giganteum|Solanum incanum|Solanum lanceolatum|Solanum laxum|Solanum lycopersicum|Solanum melongena|Solanum nigrum|Solanum pseudoquina|Solanum pubescens|Solanum transcaucasicum|Solanum tuberosum|Solenopsis punctaticeps|Solenostemma argel|Solenostemma oleifolium|Solidago canadensis|Solidago canadensis L.|Solidago gigantea Aiton|Solidago serotina|Solidago sp.|Solidago virgaurea|Sonchus arvensis|Sonchus maritimus|Sonchus oleraceus|Sonchus pustulatus|Sonneratia caseolaris|Sophora Japonica|Sophora angustifolia|Sophora exigua|Sophora flavescens|Sophora japonica|Sophora lehmanni|Sophora lehmannii|Sophora pachycarpa|Sophora tometosa|Sophora tonkinensis|Sorbaria sorbifolia|Sorbus aucuparia|Sorbus intermedia|Sorbus sp.|Sorbus tianschanica|Spathodea campanulata|Spermacoce pusilla|Sphaerella laricina|Sphagnum rubellum|Spheciospongia vagabunda|Spinacia oleracea|Spinulum annotinum|Spiraea formosa|Spiraea formosana|Spirotropis longifolia|Spongia australis|Spongia bilamellata|Sporobolus cynosuroides|Stauranthus perforatus|Stelletta inconspicua|Stemona saxorum|Stephania elegans|Stephania epigaea|Stephania sutchuenensis|Stephania zippeliana|Sterculia foetida|Stereospermum cylindricum|Stevia aristata|Stevia polycephala|Stifftia chrysantha|Stilpnopappus pickelii|Stipa vaseyi|Stiretrus anchorago|Streptomyces|Streptomyces albidoflavus|Streptomyces albus|Streptomyces avermectinius|Streptomyces caespitosus|Streptomyces cellulosae|Streptomyces cellulosae TES17|Streptomyces chattanoogensis|Streptomyces chryseus|Streptomyces coelicolor|Streptomyces ehimensis|Streptomyces fervens|Streptomyces fumanus|Streptomyces griseochromogenes|Streptomyces griseovariabilis|Streptomyces heteromorphus|Streptomyces lavendofoliae|Streptomyces lavendulae|Streptomyces odorifer|Streptomyces olivaceus|Streptomyces parvisporogenes|Streptomyces paulus|Streptomyces sp.|Streptomyces sp. KCTC 0041BP|Streptomyces sp. MUM256|Streptomyces sparsogenes|Streptomyces viridogenes|Strongylocentrotus droebachiensis|Strophanthus kombe|Strychnos dinklagei|Strychnos ligustrina|Strychnos staudtii|Strychnos tomentosa|Strychnos tricalysioides|Styphnolobium japonicum|Suillus bovinus|Sulla coronaria|Swertia decussata|Swertia delavayi|Swertia franchetiana|Swertia japonica|Swertia swertopsis|Symplocos oblongifolia|Syncarpia hillii|Syneilesis aconitifolia|Synoicum pulmonaria|Syphonota geographica|Syringa reticulata|Syringa vulgaris|Syringodium isoetifolium|Syzygium Cumini|Syzygium aromaticum|Syzygium cumini|Syzygium grande|Syzygium jambos|Syzygium nervosum|Syzygium polycephaloides|Syzygium samarangense|Syzygium sp.|Tabebuia aurea|Tabebuia sp.|Tagetes dianthiflora|Tagetes elliptica|Tagetes erecta|Tagetes lucida|Tagetes minuta|Tagetes tenuifolia|Tagetes zypaquinensis|Taiwanofungus camphoratus|Talaromyces variabilis|Tamarix aphylla|Tamarix chinensis|Tamarix nilotica|Tamarix senegalensis|Tanacetum argenteum|Tanacetum parthenifolium|Tanacetum sp.|Tanacetum vulgare|Tapeinosperma pseudojambosa|Taraxacum borealisinense|Taraxacum coreanum|Taraxacum mongolicum|Taraxacum officinale|Taraxacum platycarpum|Tarenaya spinosa|Targionia hypophylla|Taxus brevifolia|Tecoma pentaphylla|Tecoma sp.|Tephrosia elata|Tephrosia major|Terminalia chebula|Terminalia sp.|Tessaria integrifolia|Tethya amamensis|Tetragonia tetragonioides|Tetrahymena pyriformis|Tetraneuris acaulis|Tetraria capillaris|Tetraria octandra|Teucrium asiaticum|Teucrium depressum|Teucrium yemense|Thalictrum cultratum|Thalictrum filamentosum|Thelephora palmata|Theobroma cacao|Theobroma grandiflorum|Theonella conica|Thermoplasma acidophilum|Thermopsis mollis|Thevetia peruviana|Thorecta marginalis|Thuja plicata|Thymus|Thymus piperella|Thymus quinquecostatus|Thymus vulgaris|Tiarella trifoliata|Tibouchina semidecandra|Tilia cordata|Tilia mandshurica|Tilia sp.|Tilia tomentosa|Tipuana tipu|Toddalia floribunda|Toona sinensis|Torreya jackii|Torricellia tiliifolia|Toxicodendron vernicifluum|Toxicodendron wallichii|Trachelospermum asiaticum|Trachelospermum jasminoides|Trachelospermum lucidum|Tragopogon crocifolius|Tragopogon hybridus|Tragopogon longirostris|Tragopogon orientalis|Tragopogon porrifolius|Tragopogon pratensis|Triadenum japonicum|Triadica sebifera|Triaenophora rupestris|Trichia favoginea|Trichilia hirta|Trichoderma koningi|Trichoderma longibrachiatum|Trichoderma polysporum|Trichodesma incanum|Tricholoma columbetta|Trichosanthes rosthornii|Trichosurus vulpecula|Trichothecium sympodiale|Tridachia crispata|Trididemnum cyanophorum|Trifolium aureum|Trifolium hybridum|Trifolium incarnatum|Trifolium montanum|Trifolium polyphyllum|Trifolium pratense|Trifolium repens|Triglochin maritima|Trigonella balansae|Trigonella caerulea|Trigonella calliceras|Trigonella corniculata|Trigonella cretica|Trigonella foenum-graecum|Trigonella sp.|Trikentrion flabelliforme|Trillium|Tripetaleia paniculata|Tripterygium wilfordii|Tristania conferta|Triticum aestivum|Triumfetta rhomboidea|Trixis michuacana|Trogoderma granarium|Trollius chinensis|Tsuga chinensis|Tsuga mertensiana|Turbinaria ornata|Turraea nilotica|Turricula parryi|Tussilago farfara|Tussilago sp.|Typha domingensis|Udotea petiolata|Ulmus americana|Umbelliferae|Umbelliferaen,|Umbilicaria crustulosa|Umbilicaria esculenta|Uncaria gambir|Uncaria laevigata|Ungnadia speciosa|Unonopsis glaucopetala|Urbanodendron verrucosum|Urena lobata|Urochloa decumbens|Urospermum picroides|Urtica dioica|Urtica triangularis|Usnea florida|Usnea undulata|Utricularia australis|Uvaria acuminata|Uvaria littoralis|Uvaria macrophylla|Vaccaria hispanica|Vaccinium alaskaense|Vaccinium angustifolium|Vaccinium axillare|Vaccinium corymbosum|Vaccinium deliciosum|Vaccinium hirtum var. koreanum|Vaccinium macrocarpon|Vaccinium myrtillus|Vaccinium ovalifolium|Vaccinium ovatum|Vaccinium oxycoccos|Vaccinium parvifolium|Vaccinium sp.|Vaccinium vitis-idaea|Vachellia nilotica|Vachellia tortilis|Vahlia capensis|Valeriana amurensis|Valeriana cardamines|Valeriana chionophila|Valeriana eriophylla|Valeriana fedtschenkoi|Valeriana ficariifolia|Valeriana officinalis|Valeriana rossica|Valeriana stolonifera|Vallota purpurea|Vateria copallifera|Vatica albiramis|Vellozia candida|Vellozia nanuzae|Venus casina|Venus mercenaria|Veratrum stenophyllum|Veratrum viride|Verbascum fruticulosum|Verbascum phlomoides|Verbascum songaricum|Verbascum sp.|Vernonia anisochaetoides|Vernonia cistifolia|Vernonia fagifolia|Vernonia leopoldi|Veronica arvensis|Veronica longifolia|Veronica polita|Vibrio parahaemolyticus|Viburnum betulifolium|Viburnum buddleifolium|Viburnum carlesii|Viburnum chingii|Viburnum cinnamomifolium|Viburnum corylifolium|Viburnum cotinifolium|Viburnum cylindricum|Viburnum davidii|Viburnum dentatum|Viburnum dilatatum|Viburnum erubescens|Viburnum farreri|Viburnum foetens|Viburnum foetidum|Viburnum fragrans|Viburnum grandiflorum|Viburnum henryi|Viburnum lantana|Viburnum lantana L.|Viburnum lantanoides|Viburnum lentago|Viburnum lobophyllum|Viburnum macrocephalum|Viburnum mongolicum|Viburnum opulus|Viburnum opulus L.|Viburnum plicatum|Viburnum plicatum Thunb.|Viburnum rafinesqueanum|Viburnum rhytidophyllum|Viburnum rhytidophyllum Hemsl.|Viburnum sympodiale|Viburnum tinus|Viburnum tinus L.|Viburnum x bodnantense Aberc.|Vicia articulata|Vicia cracca|Vicia dumetorum|Vicia faba|Vicia hirsuta|Vicia monantha|Vicia monanthos|Vicia peregrina|Vicia picta|Vicia pisiformis|Vicia sativa|Vicia subvillosa|Vicia tenuifolia|Vicia tetrasperma|Vicia villosa|Vidalia volubilis|Vigna mungo|Vigna radiata|Vigna umbeuata|Vigna unguiculata|Viguiera incana|Viguiera linearis|Viguiera procumbens|Viguiera stenoloba|Villarsia capensis|Vinca minor|Vincetoxicum scandens|Vincetoxicum sp.|Viola sp.|Virgilia divaricata|Viscaria viscosa|Viscum sp.|Vismia parviflora|Visnea mocanera|Vitellaria paradoxa|Vitex negundo|Vitex polygama|Vitex quinata|Vitis aestivalis|Vitis betulifolia|Vitis cinerea|Vitis riparia|Vitis vinifera|Vitis vulpina|Waltheria americana|Waltheria indica|Warburgia stuhlmannii|Warburgia ugandensis|Wattakaka volubilis|Wedelia prostrata|Welsh onion|Wikstroemia canescens|Wikstroemia chamaedaphne|Wikstroemia retusa|Wikstroemia viridiflora|Wilcoxia viperina|Withania somnifera|Witsenia maura|Wrightia tinctoria|Wurfbainia villosa|Wyethia mollis|Xanthium pungens|Xanthocephalum gymnospermoides|Xanthoceras sorbifolia|Xanthoceras sorbifolia Bunge|Xanthoceras sorbifolium|Xanthorhiza simplicissima|Xanthoria aureola|Xanthorrhoea resinosa|Xenia florida|Xenia obscuronata|Xenoacremonium recifei|Xenorhabdus szentirmaii|Xyris pterygoblephara|Xyris pteygoblephara|Yarrowia lipolytica ST5204 [crtYB crtI]|Zanthoxylum ailanthoides|Zanthoxylum bungeanum|Zanthoxylum chiriquinum|Zanthoxylum fagara|Zanthoxylum fraxineum|Zanthoxylum monophyllum|Zanthoxylum piperitum|Zanthoxylum sp.|Zanthoxylum tetraspermum|Zieria smithii|Zingiber|Ziziphus jujuba|Ziziphus mauritiana|Ziziphus spina-christi|Ziziphus zizyphus|acer mono|asparagus|basil|bog bilberry|borage|brickellia cavanillesii|broad bean|broccoli|byrsonima coccolobifolia|cacao|candyleaf|chia|clove|common myrtle|croton crassifolius|denseflower mullein|gai lan|garlic|kohlrabi|lettuce|mountain clover|parsley|peanut|pomegranate|pomelo|potato|rooibos|siegesbeckia glabrescens|soybean|sweet pea|tarragon|tomato|yerba mate

>  <collections>  (1051) 
ANPDB|AfroCancer|AfroDB|AnalytiCon Discovery NPs|Australian natural products|BIOFACQUIM|BitterDB|CMAUP (cCollective molecular activities of useful plants)|ChEBI NPs|ChemSpider NPs|ConMedNP|DrugBankNP|EMNPD|ETM (Ethiopian Traditional Medicine) DB|Exposome-explorer|FooDB|GNPS (Global Natural Products Social Molecular Networking)|HIM (Herbal Ingredients in-vivo Metabolism database)|HIT (Herbal Ingredients Targets)|InPACdb|InterBioScreen Ltd|KNApSaCK|Latin America dataset|Mitishamba database|NANPDB (Natural Products from Northern African Sources)|NAPRORE-CR|NPACT|NPASS|NPCARE|NPEdia|NuBBEDB|PeruNPDB|Phenol-explorer|Phyto4Health|PhytoLab phyproof® Reference Substances|PubChem NPs|ReSpect|SANCDB|Specs Natural Products|StreptomeDB|Super Natural II|TCMDB-Taiwan (Traditional Chinese Medicine database)|TCMID (Traditional Chinese Medicine Integrated Database)|TIPdb (database of Taiwan indigenous plants)|TPPT (Toxic Plants–PhytoToxins)|UEFS (Natural Products Databse of the UEFS)|UNPD (Universal Natural Products Database)|VietHerb|Watermelon|WikiData Natural Products|p-ANAPL

>  <dois>  (1051) 
10.1002/(SICI)1096-9888(199706)32:6<645::AID-JMS518>3.0.CO;2-P|10.1002/(SICI)1097-0010(200004)80:5<561::AID-JSFA574>3.0.CO;2-|10.1002/(SICI)1097-0231(20000130)14:2<95::AID-RCM843>3.0.CO;2-6|10.1002/(SICI)1099-1565(199603)7:2<97::AID-PCA286>3.0.CO;2-M|10.1002/(SICI)1099-1565(199707)8:4<176::AID-PCA351>3.0.CO;2-K|10.1002/(SICI)1099-1565(199903/04)10:2<69::AID-PCA447>3.0.CO;2-4|10.1002/(SICI)1099-1573(199605)10:3<202::AID-PTR805>3.0.CO;2-0|10.1002/(SICI)1099-1573(199605)10:3<260::AID-PTR811>3.0.CO;2-B|10.1002/(SICI)1099-1573(199702)11:1<22::AID-PTR951>3.0.CO;2-3|10.1002/(SICI)1099-1573(199812)12:8<562::AID-PTR356>3.0.CO;2-6|10.1002/(SICI)1099-1573(199908/09)13:5<371::AID-PTR453>3.0.CO;2-L|10.1002/(SICI)1099-1573(199908/09)13:5<422::AID-PTR462>3.0.CO;2-M|10.1002/(SICI)1099-1573(199909)13:6<521::AID-PTR535>3.0.CO;2-A|10.1002/1099-1573(200011)14:7<561::AID-PTR651>3.0.CO;2-H|10.1002/9780470744307.gat218|10.1002/ARDP.19552880708|10.1002/ARDP.19552881102|10.1002/ARDP.19632961009|10.1002/ARDP.19662990705|10.1002/ARDP.19843170808|10.1002/BMC.4601|10.1002/CBDV.200690093|10.1002/CBDV.200900009|10.1002/CBDV.201000279|10.1002/CBDV.201100002|10.1002/CBDV.201100219|10.1002/CHIN.200052210|10.1002/CHIN.200117207|10.1002/CHIN.200317212|10.1002/CHIN.200322218|10.1002/CHIN.200329185|10.1002/CHIN.200342212|10.1002/CHIN.200352233|10.1002/CHIN.200451186|10.1002/CHIN.200539166|10.1002/CHIN.200624175|10.1002/CHIN.200828176|10.1002/CHIN.200833179|10.1002/CHIN.200846211|10.1002/CJOC.20010191116|10.1002/CJOC.201090191|10.1002/CJOC.201180280|10.1002/ELPS.200390159|10.1002/ELPS.201300646|10.1002/HLCA.200890115|10.1002/HLCA.200890199|10.1002/HLCA.200890227|10.1002/HLCA.201000385|10.1002/J.1537-2197.1978.TB06138.X|10.1002/J.1537-2197.1979.TB06321.X|10.1002/J.1537-2197.1985.TB08343.X|10.1002/J.1537-2197.1986.TB08521.X|10.1002/JCCS.199300015|10.1002/JCCS.199500016|10.1002/JCCS.199500018|10.1002/JCCS.199500076|10.1002/JCCS.199700056|10.1002/JCCS.200000029|10.1002/JCCS.200000050|10.1002/JCCS.200200042|10.1002/JCCS.200300178|10.1002/JCCS.200400063|10.1002/JCCS.200700013|10.1002/JCCS.201190020|10.1002/JMS.395|10.1002/JPS.10057|10.1002/JPS.2600551210|10.1002/JPS.2600570641|10.1002/JPS.2600610534|10.1002/JPS.3080110306|10.1002/JSFA.1035|10.1002/JSFA.1820|10.1002/JSFA.2740500306|10.1002/JSFA.6627|10.1002/JSFA.914|10.1002/JSFA.955|10.1002/JSSC.200500003|10.1002/JSSC.200900348|10.1002/MCS.1047|10.1002/MNFR.200500064|10.1002/PCA.638|10.1002/PTR.1062|10.1002/PTR.1200|10.1002/PTR.1513|10.1002/PTR.1628|10.1002/PTR.2290|10.1002/PTR.2373|10.1002/PTR.2529|10.1002/PTR.2650040508|10.1002/PTR.2650060509|10.1002/PTR.2913|10.1002/PTR.3439|10.1002/PTR.883|10.1002/RCM.574|10.1002/RCM.7014|10.1002/biuz.19840140514|10.1002/food.19880321030|10.1002/fsn3.3317|10.1006/BBRC.1996.1759|10.1006/JFCA.2002.1071|10.1006/MCHJ.1995.1079|10.1007/0-387-28822-8_5|10.1007/0-387-28822-8_8|10.1007/978-1-4020-4585-1_2243|10.1007/978-1-4020-4585-1_2670|10.1007/978-1-4614-0541-2_1005|10.1007/978-1-4899-1783-6_3|10.1007/978-3-642-73686-5_3|10.1007/978-3-7091-1084-3_5|10.1007/BF00381261|10.1007/BF00411143|10.1007/BF00487242|10.1007/BF00563466|10.1007/BF00563468|10.1007/BF00563488|10.1007/BF00563635|10.1007/BF00563636|10.1007/BF00563641|10.1007/BF00563760|10.1007/BF00563831|10.1007/BF00563908|10.1007/BF00564010|10.1007/BF00564017|10.1007/BF00564126|10.1007/BF00564127|10.1007/BF00564130|10.1007/BF00564349|10.1007/BF00564467|10.1007/BF00564585|10.1007/BF00564820|10.1007/BF00564822|10.1007/BF00564825|10.1007/BF00564977|10.1007/BF00565058|10.1007/BF00565261|10.1007/BF00565263|10.1007/BF00565316|10.1007/BF00565806|10.1007/BF00565890|10.1007/BF00566073|10.1007/BF00566097|10.1007/BF00566809|10.1007/BF00566810|10.1007/BF00566816|10.1007/BF00567713|10.1007/BF00567786|10.1007/BF00567817|10.1007/BF00567881|10.1007/BF00567886|10.1007/BF00567887|10.1007/BF00567953|10.1007/BF00567999|10.1007/BF00568230|10.1007/BF00568240|10.1007/BF00568248|10.1007/BF00568359|10.1007/BF00568431|10.1007/BF00568545|10.1007/BF00568705|10.1007/BF00569015|10.1007/BF00569016|10.1007/BF00569821|10.1007/BF00570687|10.1007/BF00570868|10.1007/BF00571238|10.1007/BF00571239|10.1007/BF00573562|10.1007/BF00573563|10.1007/BF00574220|10.1007/BF00574226|10.1007/BF00574348|10.1007/BF00574349|10.1007/BF00574351|10.1007/BF00574360|10.1007/BF00574809|10.1007/BF00575061|10.1007/BF00575191|10.1007/BF00575192|10.1007/BF00575722|10.1007/BF00575724|10.1007/BF00575725|10.1007/BF00575726|10.1007/BF00576104|10.1007/BF00576105|10.1007/BF00576107|10.1007/BF00577206|10.1007/BF00577211|10.1007/BF00577212|10.1007/BF00577214|10.1007/BF00579160|10.1007/BF00579161|10.1007/BF00579445|10.1007/BF00579494|10.1007/BF00579496|10.1007/BF00579515|10.1007/BF00579657|10.1007/BF00579786|10.1007/BF00579788|10.1007/BF00579838|10.1007/BF00579979|10.1007/BF00579982|10.1007/BF00579983|10.1007/BF00580044|10.1007/BF00580083|10.1007/BF00580088|10.1007/BF00580092|10.1007/BF00580571|10.1007/BF00580573|10.1007/BF00596666|10.1007/BF00597817|10.1007/BF00598180|10.1007/BF00598181|10.1007/BF00598183|10.1007/BF00598202|10.1007/BF00598319|10.1007/BF00598321|10.1007/BF00598324|10.1007/BF00598325|10.1007/BF00598367|10.1007/BF00598370|10.1007/BF00598371|10.1007/BF00598372|10.1007/BF00598374|10.1007/BF00598596|10.1007/BF00598599|10.1007/BF00598601|10.1007/BF00598778|10.1007/BF00599013|10.1007/BF00600851|10.1007/BF00600854|10.1007/BF00600855|10.1007/BF00602480|10.1007/BF00605215|10.1007/BF00605216|10.1007/BF00605218|10.1007/BF00607554|10.1007/BF00607556|10.1007/BF00629662|10.1007/BF00629810|10.1007/BF00629813|10.1007/BF00629947|10.1007/BF00630091|10.1007/BF00630230|10.1007/BF00630331|10.1007/BF00630377|10.1007/BF00630415|10.1007/BF00630448|10.1007/BF00630668|10.1007/BF00631362|10.1007/BF00633294|10.1007/BF00636588|10.1007/BF00638415|10.1007/BF00638770|10.1007/BF00683859|10.1007/BF00713335|10.1007/BF00713340|10.1007/BF00713341|10.1007/BF00714926|10.1007/BF01012523|10.1007/BF01100201|10.1007/BF01134639|10.1007/BF01374037|10.1007/BF01923349|10.1007/BF02234915|10.1007/BF02234938|10.1007/BF02234939|10.1007/BF02236305|10.1007/BF02249145|10.1007/BF02257318|10.1007/BF02273936|10.1007/BF02275745|10.1007/BF02291545|10.1007/BF02311521|10.1007/BF02323285|10.1007/BF02323302|10.1007/BF02323304|10.1007/BF02329610|10.1007/BF02491797|10.1007/BF02492150|10.1007/BF02517954|10.1007/BF02856358|10.1007/BF02856638|10.1007/BF02859211|10.1007/BF02892023|10.1007/BF02908196|10.1007/BF02974114|10.1007/BF02975189|10.1007/BF02975503|10.1007/BF02976372|10.1007/BF02976442|10.1007/BF02976598|10.1007/BF02976600|10.1007/BF02976632|10.1007/BF02976779|10.1007/BF02977667|10.1007/BF02984882|10.1007/BF03045974|10.1007/S002160100898|10.1007/S00217-018-3201-6|10.1007/S002170000220|10.1007/S002170100354|10.1007/S00280-006-0228-3|10.1007/S006040170028|10.1007/S10529-015-1825-1|10.1007/S10600-005-0012-3|10.1007/S10600-005-0087-X|10.1007/S10600-005-0117-8|10.1007/S10600-005-0148-1|10.1007/S10600-006-0064-Z|10.1007/S10600-006-0089-3|10.1007/S10600-006-0250-Z|10.1007/S10600-006-0267-3|10.1007/S10600-007-0058-5|10.1007/S10600-007-0133-Y|10.1007/S10600-007-0209-8|10.1007/S10600-007-0222-Y|10.1007/S10600-008-0028-6|10.1007/S10600-008-0029-5|10.1007/S10600-008-9067-2|10.1007/S10600-009-9174-8|10.1007/S10600-009-9245-X|10.1007/S10600-009-9246-9|10.1007/S10600-009-9247-8|10.1007/S10600-009-9287-0|10.1007/S10600-009-9291-4|10.1007/S10600-009-9328-8|10.1007/S10600-009-9362-6|10.1007/S10600-009-9409-8|10.1007/S10600-009-9410-2|10.1007/S10600-009-9411-1|10.1007/S10600-010-9540-6|10.1007/S10600-010-9543-3|10.1007/S10600-010-9597-2|10.1007/S10600-010-9598-1|10.1007/S10600-010-9645-Y|10.1007/S10600-010-9646-X|10.1007/S10600-010-9649-7|10.1007/S10600-010-9697-Z|10.1007/S10600-010-9747-6|10.1007/S10600-010-9753-8|10.1007/S10600-011-0025-Z|10.1007/S10600-011-0065-4|10.1007/S10600-011-0072-5|10.1007/S10600-011-9799-2|10.1007/S10600-011-9800-0|10.1007/S10600-011-9801-Z|10.1007/S10600-011-9846-Z|10.1007/S10600-011-9896-2|10.1007/S10600-011-9904-6|10.1007/S10600-011-9907-3|10.1007/S10600-011-9908-2|10.1007/S10600-011-9952-Y|10.1007/S10600-012-0124-5|10.1007/S10600-012-0125-4|10.1007/S10600-013-0618-9|10.1007/S10600-014-0994-9|10.1007/S10600-015-1336-2|10.1007/S10600-016-1684-6|10.1007/S10600-017-1933-3|10.1007/S10600-017-2124-Y|10.1007/S10600-019-02925-Y|10.1007/S11130-009-0133-0|10.1007/S11130-011-0236-2|10.1007/S11418-006-0122-7|10.1007/S11418-007-0152-9|10.1007/S11418-008-0256-X|10.1007/S11418-010-0431-8|10.1007/S11746-003-0652-X|10.1007/S11947-012-0877-7|10.1007/S12272-010-0806-0|10.1007/SPRINGERREFERENCE_68290|10.1007/SPRINGERREFERENCE_68586|10.1007/SPRINGERREFERENCE_69374|10.1016/0003-9861(53)90127-1|10.1016/0021-9673(92)85026-P|10.1016/0021-9673(93)80301-N|10.1016/0021-9673(93)83449-3|10.1016/0026-265X(82)90102-3|10.1016/0031-6865(94)90049-3|10.1016/0031-6865(95)00027-7|10.1016/0031-6865(96)00009-X|10.1016/0031-9422(73)80048-2|10.1016/0031-9422(73)80417-0|10.1016/0031-9422(73)85143-X|10.1016/0031-9422(81)85229-6|10.1016/0031-9422(82)80042-3|10.1016/0031-9422(82)80150-7|10.1016/0031-9422(82)83062-8|10.1016/0031-9422(82)83122-1|10.1016/0031-9422(82)83123-3|10.1016/0031-9422(82)83200-7|10.1016/0031-9422(83)80110-1|10.1016/0031-9422(86)80029-2|10.1016/0031-9422(88)80244-9|10.1016/0031-9422(88)83027-9|10.1016/0031-9422(88)83030-9|10.1016/0031-9422(88)83050-4|10.1016/0031-9422(88)83068-1|10.1016/0031-9422(88)83128-5|10.1016/0031-9422(88)84114-1|10.1016/0031-9422(88)87039-0|10.1016/0031-9422(89)80048-2|10.1016/0031-9422(89)80141-4|10.1016/0031-9422(89)85030-7|10.1016/0031-9422(89)85049-6|10.1016/0031-9422(90)80042-F|10.1016/0031-9422(90)80075-R|10.1016/0031-9422(90)80180-O|10.1016/0031-9422(90)80181-F|10.1016/0031-9422(90)85128-3|10.1016/0031-9422(90)85187-K|10.1016/0031-9422(90)85193-J|10.1016/0031-9422(90)85389-W|10.1016/0031-9422(91)83058-S|10.1016/0031-9422(91)83676-C|10.1016/0031-9422(91)84145-I|10.1016/0031-9422(91)85027-W|10.1016/0031-9422(92)80355-I|10.1016/0031-9422(92)80400-9|10.1016/0031-9422(92)80489-2|10.1016/0031-9422(92)83334-U|10.1016/0031-9422(92)83667-N|10.1016/0031-9422(93)00074-P|10.1016/0031-9422(93)85092-6|10.1016/0031-9422(93)85108-4|10.1016/0031-9422(93)85134-D|10.1016/0031-9422(93)85359-Y|10.1016/0031-9422(93)85448-Z|10.1016/0031-9422(94)00591-G|10.1016/0031-9422(94)00689-Q|10.1016/0031-9422(94)00784-Q|10.1016/0031-9422(94)00905-9|10.1016/0031-9422(94)00965-V|10.1016/0031-9422(94)85023-2|10.1016/0031-9422(95)00202-I|10.1016/0031-9422(95)00269-D|10.1016/0031-9422(95)00383-I|10.1016/0031-9422(95)00507-4|10.1016/0031-9422(95)00526-9|10.1016/0031-9422(95)00573-0|10.1016/0031-9422(95)00603-6|10.1016/0031-9422(95)00648-6|10.1016/0031-9422(95)00924-8|10.1016/0031-9422(95)93530-S|10.1016/0031-9422(96)00187-2|10.1016/0031-9422(96)00367-6|10.1016/0098-8472(86)90054-7|10.1016/0165-1218(88)90161-9|10.1016/0305-1978(82)90020-5|10.1016/0305-1978(84)90033-4|10.1016/0305-1978(86)90060-8|10.1016/0305-1978(86)90088-8|10.1016/0305-1978(87)90085-8|10.1016/0305-1978(87)90101-3|10.1016/0305-1978(88)90032-4|10.1016/0305-1978(88)90048-8|10.1016/0305-1978(88)90072-5|10.1016/0305-1978(88)90094-4|10.1016/0305-1978(89)90096-3|10.1016/0305-1978(90)90026-C|10.1016/0305-1978(90)90119-Z|10.1016/0305-1978(91)90068-B|10.1016/0305-1978(91)90082-B|10.1016/0305-1978(91)90084-D|10.1016/0305-1978(92)90027-B|10.1016/0305-1978(92)90062-I|10.1016/0305-1978(92)90072-L|10.1016/0305-1978(93)90051-R|10.1016/0305-1978(93)90061-U|10.1016/0305-1978(93)90062-V|10.1016/0305-1978(93)90077-5|10.1016/0305-1978(94)00093-V|10.1016/0305-1978(94)90049-3|10.1016/0305-1978(94)90063-9|10.1016/0305-1978(94)90094-9|10.1016/0305-1978(95)00044-U|10.1016/0305-1978(95)00045-V|10.1016/0305-1978(95)00070-4|10.1016/0305-1978(95)00080-1|10.1016/0305-1978(95)93663-N|10.1016/0305-1978(95)93846-U|10.1016/0305-1978(95)97456-7|10.1016/0378-8741(84)90075-8|10.1016/0378-8741(86)90156-X|10.1016/0378-8741(87)90128-0|10.1016/0378-8741(89)90030-5|10.1016/0378-8741(93)90067-F|10.1016/0378-8741(94)90098-1|10.1016/0734-9750(93)90042-L|10.1016/0952-3278(94)90141-4|10.1016/0960-894X(94)80015-4|10.1016/B978-0-08-028853-6.50009-7|10.1016/B978-0-12-397934-6.00012-7|10.1016/B978-0-12-804678-4.00006-3|10.1016/J.ARABJC.2013.12.011|10.1016/J.ARABJC.2014.11.059|10.1016/J.BMC.2005.07.050|10.1016/J.BMC.2007.01.035|10.1016/J.BMC.2007.10.072|10.1016/J.BMC.2009.07.016|10.1016/J.BMC.2009.08.036|10.1016/J.BMC.2010.01.046|10.1016/J.BMC.2011.03.055|10.1016/J.BMCL.2006.06.011|10.1016/J.BMCL.2011.01.066|10.1016/J.BMCL.2011.10.003|10.1016/J.BMCL.2013.04.013|10.1016/J.BMCL.2014.03.014|10.1016/J.BMCL.2015.04.052|10.1016/J.BMCL.2015.05.089|10.1016/J.BSE.2007.03.023|10.1016/J.BSE.2013.04.001|10.1016/J.BSE.2014.05.015|10.1016/J.BSE.2016.02.030|10.1016/J.BSE.2019.103959|10.1016/J.CCLET.2009.12.019|10.1016/J.CCLET.2010.02.022|10.1016/J.CES.2016.06.014|10.1016/J.CHROMA.2005.11.056|10.1016/J.FBIO.2018.07.004|10.1016/J.FCT.2004.01.008|10.1016/J.FCT.2007.07.003|10.1016/J.FITOTE.2003.12.010|10.1016/J.FITOTE.2004.01.011|10.1016/J.FITOTE.2004.05.004|10.1016/J.FITOTE.2006.01.007|10.1016/J.FITOTE.2006.03.016|10.1016/J.FITOTE.2007.04.005|10.1016/J.FITOTE.2007.11.012|10.1016/J.FITOTE.2008.03.005|10.1016/J.FITOTE.2008.04.002|10.1016/J.FITOTE.2009.09.013|10.1016/J.FITOTE.2009.11.003|10.1016/J.FITOTE.2010.04.012|10.1016/J.FITOTE.2011.08.014|10.1016/J.FITOTE.2012.06.007|10.1016/J.FITOTE.2014.01.007|10.1016/J.FOODCHEM.2003.09.037|10.1016/J.FOODCHEM.2005.02.007|10.1016/J.FOODCHEM.2007.06.037|10.1016/J.FOODCHEM.2007.08.038|10.1016/J.FOODCHEM.2008.11.094|10.1016/J.FOODCHEM.2009.04.098|10.1016/J.FOODCHEM.2011.09.040|10.1016/J.FOODCHEM.2011.09.063|10.1016/J.FOODCHEM.2020.128444|10.1016/J.FOODRES.2004.10.005|10.1016/J.FOODRES.2010.09.027|10.1016/J.FOODRES.2017.06.052|10.1016/J.IFSET.2018.01.008|10.1016/J.INDCROP.2012.12.022|10.1016/J.JEP.2004.02.004|10.1016/J.JEP.2004.03.042|10.1016/J.JEP.2006.02.010|10.1016/J.JEP.2006.09.006|10.1016/J.JEP.2009.11.018|10.1016/J.JEP.2010.05.051|10.1016/J.JEP.2013.04.047|10.1016/J.JFCA.2003.09.010|10.1016/J.JFCA.2004.11.003|10.1016/J.JFCA.2006.09.005|10.1016/J.JFF.2015.12.019|10.1016/J.JPBA.2017.08.019|10.1016/J.LFS.2007.12.021|10.1016/J.LWT.2018.02.024|10.1016/J.NEURO.2013.04.006|10.1016/J.NUTRES.2019.10.010|10.1016/J.PHYMED.2004.12.001|10.1016/J.PHYMED.2006.08.005|10.1016/J.PHYMED.2006.11.021|10.1016/J.PHYMED.2010.10.005|10.1016/J.PHYTOCHEM.2004.06.005|10.1016/J.PHYTOCHEM.2004.09.009|10.1016/J.PHYTOCHEM.2005.02.025|10.1016/J.PHYTOCHEM.2006.03.016|10.1016/J.PHYTOCHEM.2006.04.009|10.1016/J.PHYTOCHEM.2006.05.043|10.1016/J.PHYTOCHEM.2006.06.030|10.1016/J.PHYTOCHEM.2006.11.026|10.1016/J.PHYTOCHEM.2007.02.015|10.1016/J.PHYTOCHEM.2007.03.001|10.1016/J.PHYTOCHEM.2007.03.004|10.1016/J.PHYTOCHEM.2007.03.010|10.1016/J.PHYTOCHEM.2007.05.027|10.1016/J.PHYTOCHEM.2007.05.031|10.1016/J.PHYTOCHEM.2007.05.035|10.1016/J.PHYTOCHEM.2007.06.017|10.1016/J.PHYTOCHEM.2007.08.002|10.1016/J.PHYTOCHEM.2007.11.019|10.1016/J.PHYTOCHEM.2008.01.002|10.1016/J.PHYTOCHEM.2008.01.006|10.1016/J.PHYTOCHEM.2008.02.018|10.1016/J.PHYTOCHEM.2008.06.010|10.1016/J.PHYTOCHEM.2008.10.006|10.1016/J.PHYTOCHEM.2008.11.006|10.1016/J.PHYTOCHEM.2009.04.003|10.1016/J.PHYTOCHEM.2010.03.014|10.1016/J.PHYTOCHEM.2010.08.007|10.1016/J.PHYTOCHEM.2010.12.018|10.1016/J.PHYTOCHEM.2011.01.018|10.1016/J.PHYTOL.2011.02.011|10.1016/J.PHYTOL.2011.07.004|10.1016/J.PHYTOL.2011.12.012|10.1016/J.PHYTOL.2012.10.004|10.1016/J.PLAPHY.2015.04.008|10.1016/J.SUPFLU.2017.09.008|10.1016/J.TETLET.2009.01.158|10.1016/J.TETLET.2010.11.040|10.1016/S0003-2670(97)00668-5|10.1016/S0014-827X(01)01068-0|10.1016/S0015-3796(86)80050-6|10.1016/S0021-9258(20)65194-8|10.1016/S0021-9673(00)00555-0|10.1016/S0021-9673(00)01030-X|10.1016/S0021-9673(01)00598-2|10.1016/S0021-9673(01)00913-X|10.1016/S0021-9673(01)01294-8|10.1016/S0021-9673(01)01434-0|10.1016/S0021-9673(01)81355-8|10.1016/S0021-9673(01)84521-0|10.1016/S0021-9673(01)87655-X|10.1016/S0021-9673(01)88918-4|10.1016/S0021-9673(01)97678-2|10.1016/S0021-9673(96)00578-X|10.1016/S0021-9673(97)01061-3|10.1016/S0021-9673(99)01225-X|10.1016/S0024-3205(03)00013-4|10.1016/S0031-9422(00)00479-9|10.1016/S0031-9422(00)80080-1|10.1016/S0031-9422(00)80124-7|10.1016/S0031-9422(00)80406-9|10.1016/S0031-9422(00)80549-X|10.1016/S0031-9422(00)80559-2|10.1016/S0031-9422(00)80845-6|10.1016/S0031-9422(00)81139-5|10.1016/S0031-9422(00)81226-1|10.1016/S0031-9422(00)81696-9|10.1016/S0031-9422(00)81782-3|10.1016/S0031-9422(00)82170-6|10.1016/S0031-9422(00)82298-0|10.1016/S0031-9422(00)82391-2|10.1016/S0031-9422(00)82480-2|10.1016/S0031-9422(00)82558-3|10.1016/S0031-9422(00)82906-4|10.1016/S0031-9422(00)83176-3|10.1016/S0031-9422(00)83207-0|10.1016/S0031-9422(00)83456-1|10.1016/S0031-9422(00)83536-0|10.1016/S0031-9422(00)83767-X|10.1016/S0031-9422(00)83832-7|10.1016/S0031-9422(00)83864-9|10.1016/S0031-9422(00)83902-3|10.1016/S0031-9422(00)84545-8|10.1016/S0031-9422(00)84889-X|10.1016/S0031-9422(00)85282-6|10.1016/S0031-9422(00)85693-9|10.1016/S0031-9422(00)85821-5|10.1016/S0031-9422(00)86150-6|10.1016/S0031-9422(00)86538-3|10.1016/S0031-9422(00)86728-X|10.1016/S0031-9422(00)86894-6|10.1016/S0031-9422(00)88397-1|10.1016/S0031-9422(00)89563-1|10.1016/S0031-9422(00)89605-3|10.1016/S0031-9422(00)89780-0|10.1016/S0031-9422(00)90131-6|10.1016/S0031-9422(00)90144-4|10.1016/S0031-9422(00)91129-4|10.1016/S0031-9422(00)94161-X|10.1016/S0031-9422(00)94535-7|10.1016/S0031-9422(00)97242-X|10.1016/S0031-9422(00)97305-9|10.1016/S0031-9422(00)97383-7|10.1016/S0031-9422(00)97572-1|10.1016/S0031-9422(00)97906-8|10.1016/S0031-9422(00)97941-X|10.1016/S0031-9422(00)98014-2|10.1016/S0031-9422(01)00415-0|10.1016/S0031-9422(01)00471-X|10.1016/S0031-9422(02)00133-4|10.1016/S0031-9422(02)00230-3|10.1016/S0031-9422(02)00260-1|10.1016/S0031-9422(02)00488-0|10.1016/S0031-9422(02)00504-6|10.1016/S0031-9422(02)00758-6|10.1016/S0031-9422(03)00105-5|10.1016/S0031-9422(03)00198-5|10.1016/S0031-9422(03)00374-1|10.1016/S0031-9422(03)00437-0|10.1016/S0031-9422(96)00329-9|10.1016/S0031-9422(96)00652-8|10.1016/S0031-9422(96)00706-6|10.1016/S0031-9422(96)00800-X|10.1016/S0031-9422(97)00370-1|10.1016/S0031-9422(97)00423-8|10.1016/S0031-9422(97)00511-6|10.1016/S0031-9422(97)00738-3|10.1016/S0031-9422(97)01025-X|10.1016/S0031-9422(98)00106-X|10.1016/S0031-9422(98)00416-6|10.1016/S0031-9422(98)80097-6|10.1016/S0031-9422(99)00038-2|10.1016/S0031-9422(99)00059-X|10.1016/S0031-9422(99)00074-6|10.1016/S0031-9422(99)00110-7|10.1016/S0031-9422(99)00262-9|10.1016/S0031-9422(99)00412-4|10.1016/S0031-9422(99)00441-0|10.1016/S0031-9422(99)00502-6|10.1016/S0039-9140(00)00514-2|10.1016/S0040-4039(01)96737-1|10.1016/S0176-1617(11)80953-3|10.1016/S0304-4165(02)00196-4|10.1016/S0305-1978(00)00089-2|10.1016/S0305-1978(00)00094-6|10.1016/S0305-1978(00)00115-0|10.1016/S0305-1978(01)00098-9|10.1016/S0305-1978(02)00060-1|10.1016/S0305-1978(97)00015-X|10.1016/S0305-1978(97)00049-5|10.1016/S0305-1978(97)00054-9|10.1016/S0305-1978(97)00061-6|10.1016/S0305-1978(97)00069-0|10.1016/S0305-1978(97)00092-6|10.1016/S0305-1978(97)00122-1|10.1016/S0305-1978(98)00004-0|10.1016/S0305-1978(98)00019-2|10.1016/S0305-1978(99)00084-8|10.1016/S0305-1978(99)00117-9|10.1016/S0305-1978(99)00121-0|10.1016/S0308-8146(00)00091-1|10.1016/S0308-8146(01)00114-5|10.1016/S0308-8146(01)00305-3|10.1016/S0367-326X(00)00185-4|10.1016/S0367-326X(00)00189-1|10.1016/S0367-326X(00)00201-X|10.1016/S0367-326X(00)00229-X|10.1016/S0367-326X(01)00331-8|10.1016/S0367-326X(02)00009-6|10.1016/S0367-326X(02)00113-2|10.1016/S0367-326X(02)00126-0|10.1016/S0367-326X(99)00131-8|10.1016/S0378-4347(01)00404-2|10.1016/S0378-5173(00)00660-8|10.1016/S0378-8741(00)00304-4|10.1016/S0378-8741(01)00352-X|10.1016/S0378-8741(01)00363-4|10.1016/S0378-8741(01)00379-8|10.1016/S0378-8741(01)00413-5|10.1016/S0378-8741(97)00048-2|10.1016/S0731-7085(00)00455-6|10.1016/S0731-7085(00)00539-2|10.1016/S0889-1575(02)91071-9|10.1016/S0960-894X(02)00757-6|10.1016/S0960-894X(03)00088-X|10.1016/S0963-9969(00)00086-7|10.1016/S0963-9969(00)00156-3|10.1016/S0963-9969(00)00174-5|10.1016/S0963-9969(99)00095-2|10.1016/S0968-0896(00)00102-4|10.1016/S0968-0896(00)00225-X|10.1016/S0968-0896(02)00470-4|10.1016/S0968-0896(97)00029-1|10.1016/S1001-0742(14)60648-3|10.1016/S1875-5364(11)60016-2|10.1016/S1875-5364(12)60009-0|10.1016/S2221-1691(12)60050-1|10.1016/j.arabjc.2011.01.001|10.1016/j.bmc.2009.08.036|10.1016/j.enzmictec.2018.02.007|10.1016/j.fct.2007.06.004|10.1016/j.freeradbiomed.2004.04.034|10.1016/j.jep.2006.09.006|10.1016/j.jep.2007.10.011|10.1016/j.jfca.2018.09.012|10.1017/S0007114511004272|10.1017/S1742758400023456|10.1021/AC990598X|10.1021/ACS.JNATPROD.5B00571|10.1021/ACS.JNATPROD.5B01035|10.1021/ACS.JNATPROD.5B01103|10.1021/ACS.JNATPROD.6B00839|10.1021/JA01113A529|10.1021/JA01138A033|10.1021/JA01143A027|10.1021/JF00020A011|10.1021/JF00024A011|10.1021/JF00032A015|10.1021/JF00035A025|10.1021/JF000388H|10.1021/JF00050A028|10.1021/JF00052A008|10.1021/JF00062A017|10.1021/JF000661F|10.1021/JF00070A001|10.1021/JF0010228|10.1021/JF00110A049|10.1021/JF001497Z|10.1021/JF010622J|10.1021/JF011178N|10.1021/JF011682S|10.1021/JF020396T|10.1021/JF020661A|10.1021/JF025781X|10.1021/JF030218F|10.1021/JF0307595|10.1021/JF034543E|10.1021/JF0346298|10.1021/JF0347721|10.1021/JF040017R|10.1021/JF040083T|10.1021/JF048404O|10.1021/JF049317Z|10.1021/JF049847V|10.1021/JF051513Y|10.1021/JF052431C|10.1021/JF053071W|10.1021/JF060185E|10.1021/JF060251C|10.1021/JF061058L|10.1021/JF061477I|10.1021/JF061478A|10.1021/JF0620968|10.1021/JF0734727|10.1021/JF102231H|10.1021/JF102871G|10.1021/JF2014759|10.1021/JF800059R|10.1021/JF802152Z|10.1021/JF900950Z|10.1021/JF901716J|10.1021/JF903337F|10.1021/JF904596M|10.1021/JF950310E|10.1021/JF9505335|10.1021/JF9601628|10.1021/JF960339Y|10.1021/JF9605557|10.1021/JF9800211|10.1021/JF9801264|10.1021/JF980294W|10.1021/JF980784O|10.1021/JF990916T|10.1021/JF9909757|10.1021/JF991002+|10.1021/JF991086M|10.1021/JF991274C|10.1021/JO01054A505|10.1021/NP000061A|10.1021/NP0005107|10.1021/NP0005917|10.1021/NP010035S|10.1021/NP010419I|10.1021/NP010465I|10.1021/NP0105578|10.1021/NP0203335|10.1021/NP020472M|10.1021/NP0205349|10.1021/NP030034V|10.1021/NP030217H|10.1021/NP030440E|10.1021/NP034002J|10.1021/NP040024+|10.1021/NP0401819|10.1021/NP0500272|10.1021/NP050181O|10.1021/NP050447R|10.1021/NP0580210|10.1021/NP060015W|10.1021/NP060015W.S001|10.1021/NP0600999|10.1021/NP060307X|10.1021/NP060430O|10.1021/NP0605539|10.1021/NP0605539.S001|10.1021/NP070489A|10.1021/NP0705615|10.1021/NP100745Z|10.1021/NP200307R|10.1021/NP3001464|10.1021/NP300204P|10.1021/NP300443P|10.1021/NP400717M|10.1021/NP400825S|10.1021/NP50010A017|10.1021/NP50012A008|10.1021/NP50018A004|10.1021/NP50020A005|10.1021/NP50020A014|10.1021/NP50022A030|10.1021/NP50025A019|10.1021/NP50027A025|10.1021/NP50028A007|10.1021/NP50030A024|10.1021/NP50032A022|10.1021/NP50032A028|10.1021/NP50034A026|10.1021/NP50037A030|10.1021/NP50037A036|10.1021/NP50043A039|10.1021/NP50043A042|10.1021/NP50044A034|10.1021/NP50045A034|10.1021/NP50045A042|10.1021/NP50046A053|10.1021/NP50048A063|10.1021/NP50051A032|10.1021/NP50051A033|10.1021/NP50052A045|10.1021/NP50054A027|10.1021/NP50057A037|10.1021/NP50065A009|10.1021/NP50066A004|10.1021/NP50076A027|10.1021/NP50077A014|10.1021/NP50082A008|10.1021/NP50086A021|10.1021/NP50096A023|10.1021/NP50101A022|10.1021/NP50103A006|10.1021/NP50117A005|10.1021/NP50121A012|10.1021/NP800016E|10.1021/NP8002518|10.1021/NP800333R|10.1021/NP800762X|10.1021/NP8008122|10.1021/NP900117V|10.1021/NP900148A|10.1021/NP900290S|10.1021/NP9004129|10.1021/NP900530N|10.1021/NP960037Q|10.1021/NP9601925|10.1021/NP970011E|10.1021/NP970044U|10.1021/NP970186O|10.1021/NP970336V|10.1021/NP9704258|10.1021/NP9901478|10.1021/NP9902237|10.1021/NP990579I|10.1021/acs.jnatprod.8b00952|10.1021/np300204p|10.1021/np300443p|10.1021/np800333r|10.1023/A:1008069422202|10.1023/A:1026029609500|10.1023/B:CONC.0000003425.70068.85|10.1023/B:CONC.0000011131.34049.E6|10.1023/B:CONC.0000018119.19021.18|10.1023/B:CONC.0000025456.09089.84|10.1023/B:CONC.0000025477.18086.8B|10.1023/B:CONC.0000025478.84294.5B|10.1023/B:CONC.0000033925.00693.7B|10.1034/J.1399-3054.1999.100301.X|10.1038/018153A0|10.1039/C9FO00799G|10.1039/CT9109700001|10.1039/JR9580003320|10.1046/J.1432-1033.2003.03729.X|10.1055/S-0028-1097462|10.1055/S-0028-1097486|10.1055/S-0028-1097913|10.1055/S-0028-1099417|10.1055/S-0028-1099426|10.1055/S-0028-1099447|10.1055/S-0028-1099548|10.1055/S-0028-1099567|10.1055/S-0028-1099931|10.1055/S-0029-1240864|10.1055/S-0031-1300225|10.1055/S-0033-1352389|10.1055/S-0034-1382449|10.1055/S-0035-1545201|10.1055/S-2000-11135|10.1055/S-2000-8544|10.1055/S-2000-8547|10.1055/S-2000-9779|10.1055/S-2001-18339|10.1055/S-2002-20053|10.1055/S-2002-20248|10.1055/S-2002-33804|10.1055/S-2002-34416|10.1055/S-2002-35657|10.1055/S-2003-43207|10.1055/S-2003-45114|10.1055/S-2003-45150|10.1055/S-2003-818009|10.1055/S-2004-818956|10.1055/S-2004-835854|10.1055/S-2004-835859|10.1055/S-2006-957475|10.1055/S-2006-957598|10.1055/S-2006-957620|10.1055/S-2006-957627|10.1055/S-2006-957639|10.1055/S-2006-957671|10.1055/S-2006-957738|10.1055/S-2006-957796|10.1055/S-2006-957860|10.1055/S-2006-957919|10.1055/S-2006-958024|10.1055/S-2006-959501|10.1055/S-2006-959756|10.1055/S-2006-960028|10.1055/S-2006-960798|10.1055/S-2006-960867|10.1055/S-2006-960977|10.1055/S-2006-961483|10.1055/S-2006-961488|10.1055/S-2006-961661|10.1055/S-2006-961904|10.1055/S-2006-962330|10.1055/S-2006-962334|10.1055/S-2006-962517|10.1055/S-2006-962543|10.1055/S-2006-962613|10.1055/S-2007-969296|10.1055/S-2007-969351|10.1055/S-2007-969559|10.1055/S-2007-969797|10.1055/S-2007-971500|10.1055/S-2007-979339|10.1055/S-2007-979340|10.1055/S-2007-981551|10.1055/S-2007-981565|10.1055/S-2007-990223|10.1055/S-2008-1034278|10.1055/S-2008-1074547|10.1071/CH9720843|10.1071/CH9781375|10.1071/ch9781375|10.1076/PHBI.36.2.131.4604|10.1076/PHBI.37.1.28.6327|10.1076/PHBI.39.2.155.6254|10.1076/PHBI.41.4.291.15669|10.1078/0944-7113-00031|10.1080/00021369.1975.10861937|10.1080/00021369.1987.10868448|10.1080/01635581.2013.748924|10.1080/01811797.1985.10824657|10.1080/09637480500524299|10.1080/09637486.2017.1418845|10.1080/10286020.2010.541156|10.1080/10286020.2019.1642330|10.1080/10286020290019622|10.1080/1028602031000105867|10.1080/10286020310001595953|10.1080/10286020310001653291|10.1080/10286020701273627|10.1080/10408390802145377|10.1080/10575639308043848|10.1080/10575639508043206|10.1080/10575639908048789|10.1080/10826079808001950|10.1080/13102818.2006.10817302|10.1080/13880200490505663|10.1080/13880200902988645|10.1080/13880209.2016.1254251|10.1080/14620316.1995.11515338|10.1080/1478641031000103669|10.1080/14786410310001608055|10.1080/14786410310001620574|10.1080/14786410310001620673|10.1080/14786410410001715596|10.1080/14786410601130307|10.1080/14786410802044885|10.1080/14786410802214009|10.1080/14786410802242851|10.1080/14786410802278327|10.1080/14786410802401390|10.1080/14786410802447294|10.1080/14786410902757899|10.1080/14786410903075507|10.1080/14786411003754306|10.1080/14786411003766888|10.1080/14786419.2010.488625|10.1080/14786419.2010.490214|10.1080/14786419.2010.518146|10.1080/14786419.2011.587188|10.1080/14786419.2011.606219|10.1080/14786419.2015.1110702|10.1080/14786419.2016.1226831|10.1081/JLC-100100418|10.1081/JLC-100101645|10.1081/JLC-100101655|10.1081/JLC-100102074|10.1081/JLC-120014270|10.1081/JLC-120027086|10.1089/JMF.2007.531|10.1093/AJCN/68.1.60|10.1093/CHROMSCI/35.3.117|10.1093/CHROMSCI/BMY030|10.1093/JN/132.7.1825|10.1093/pcp/pcn183|10.1097/01.FJC.0000232064.64837.67|10.1104/PP.100.1.444|10.1104/PP.106.078428|10.1104/PP.69.2.522|10.1104/PP.97.1.343|10.1111/J.1095-8339.1984.TB02563.X|10.1111/J.1365-2621.1953.TB17705.X|10.1111/J.1365-2621.1967.TB00824.X|10.1111/J.1365-2621.1986.TB11220.X|10.1111/J.1365-2621.1995.TB05668.X|10.1111/J.1365-2621.1995.TB09806.X|10.1111/J.1365-2621.2003.TB12340.X|10.1111/J.1469-8137.1913.TB05680.X|10.1111/J.1469-8137.1995.TB01829.X|10.1111/J.1745-4557.2003.TB00243.X|10.1111/J.1745-4557.2006.00096.X|10.1111/J.1750-3841.2008.00854.X|10.1128/cdli.11.1.63-69.2004|10.1136/JECH.52.12.812|10.1136/STI.71.2.92|10.1139/B88-058|10.1139/B89-200|10.1142/S0192415X89000279|10.1155/2010/759497|10.1158/1535-7163.MCT-07-0001|10.1159/000211505|10.1159/000235378|10.1159/000236088|10.1177/089198879400700118|10.1177/089198879400701S18|10.1177/1934578X0800300227|10.1177/1934578X0900400602|10.1177/1934578X1501000714|10.1177/1934578X1701200337|10.1179/135100099101534800|10.1186/S12906-018-2154-4|10.1186/s12906-018-2154-4|10.1201/9780203734483-2|10.1201/9781420023305-8|10.1211/0022357011775893|10.1211/0022357021779014|10.1211/0022357991777218|10.1211/146080899128735009|10.1211/JPP.60.4.0011|10.1246/NIKKASHI.1987.1853|10.1248/BPB.18.1148|10.1248/BPB.25.1320|10.1248/BPB.26.1031|10.1248/BPB.28.912|10.1248/BPB.29.1271|10.1248/BPB.29.740|10.1248/BPB.30.935|10.1248/BPB.31.1626|10.1248/BPB.31.2321|10.1248/BPB.31.743|10.1248/CPB.14.877|10.1248/CPB.17.124|10.1248/CPB.32.1866|10.1248/CPB.35.1234|10.1248/CPB.35.857|10.1248/CPB.36.807|10.1248/CPB.37.2232|10.1248/CPB.37.2431|10.1248/CPB.39.3276|10.1248/CPB.41.1649|10.1248/CPB.43.1385|10.1248/CPB.45.367|10.1248/CPB.48.1190|10.1248/CPB.48.1219|10.1248/CPB.48.65|10.1248/CPB.48.687|10.1248/CPB.49.1474|10.1248/CPB.49.768|10.1248/CPB.49.845|10.1248/CPB.50.1484|10.1248/CPB.50.630|10.1248/CPB.50.73|10.1248/CPB.50.841|10.1248/CPB.51.1439|10.1248/CPB.52.1227|10.1248/CPB.52.1365|10.1248/CPB.52.767|10.1248/CPB.52.866|10.1248/CPB.53.1118|10.1248/CPB.53.1335|10.1248/CPB.53.1416|10.1248/CPB.53.296|10.1248/CPB.53.305|10.1248/CPB.53.428|10.1248/CPB.53.938|10.1248/CPB.54.1308|10.1248/CPB.54.1451|10.1248/CPB.54.234|10.1248/CPB.54.722|10.1248/CPB.54.9|10.1248/CPB.55.1308|10.1248/CPB.55.571|10.1248/CPB.55.598|10.1248/CPB.56.1047|10.1248/CPB.56.1164|10.1248/CPB.56.1282|10.1248/CPB.56.1428|10.1248/CPB.56.1438|10.1248/CPB.56.1477|10.1248/CPB.56.189|10.1248/CPB.56.585|10.1248/CPB.56.592|10.1248/CPB.56.82|10.1248/CPB.56.97|10.1248/CPB.57.1089|10.1248/CPB.57.1289|10.1248/CPB.57.269|10.1248/CPB.58.336|10.1248/CPB.58.852|10.1248/CPB.58.859|10.1248/CPB.60.129|10.1248/YAKUSHI1881.53.10_1093|10.1248/YAKUSHI1881.55.9_967|10.1248/YAKUSHI1947.104.2_157|10.1248/YAKUSHI1947.104.4_340|10.1248/YAKUSHI1947.104.5_535|10.1248/YAKUSHI1947.105.5_442|10.1248/YAKUSHI1947.105.6_542|10.1248/YAKUSHI1947.107.12_1001|10.1248/YAKUSHI1947.107.1_23|10.1248/YAKUSHI1947.108.7_647|10.1248/YAKUSHI1947.110.5_354|10.1248/YAKUSHI1947.71.11_1281|10.1248/YAKUSHI1947.76.3_343|10.1248/YAKUSHI1947.88.9_1235|10.1248/YAKUSHI1947.94.10_1349|10.1248/YAKUSHI1947.94.12_1634|10.12691/JFNR-2-5-9|10.1271/BBB.59.2018|10.1271/BBB.61.177|10.1271/BBB.66.1396|10.1271/BBB.66.1727|10.1271/BBB.67.2091|10.1271/BBB.68.1984|10.1271/BBB.90181|10.1271/BBB.90895|10.1271/BBB1961.39.2237|10.1271/BBB1961.49.1851|10.1271/BBB1961.51.2801|10.1300/J044V05N02_05|10.1300/J044V09N02_12|10.1300/J044V09N04_12|10.1365/S10337-009-1281-Y|10.1371/JOURNAL.PONE.0207278|10.1371/JOURNAL.PONE.0219973|10.1371/journal.pone.0207278|10.14233/AJCHEM.2014.16143A|10.1515/ZNB-1992-0125|10.1515/ZNC-1983-1-226|10.1515/ZNC-1983-5-614|10.1515/ZNC-1983-7-826|10.1515/ZNC-1984-1-204|10.1515/ZNC-1984-11-1233|10.1515/ZNC-1984-3-418|10.1515/ZNC-1985-5-608|10.1515/ZNC-1986-1-214|10.1515/ZNC-1986-11-1204|10.1515/ZNC-1987-9-1004|10.1515/ZNC-1990-0604|10.1515/ZNC-1991-1-207|10.1515/ZNC-1992-1-204|10.1515/ZNC-1992-7-807|10.1515/ZNC-1992-7-811|10.1515/ZNC-1992-9-1025|10.1515/ZNC-1994-9-1022|10.1515/ZNC-1995-11-1223|10.1515/ZNC-1995-5-604|10.1515/ZNC-1996-11-1219|10.1515/ZNC-1996-5-606|10.1515/ZNC-1997-3-401|10.1515/ZNC-1998-11-1202|10.1515/ZNC-1999-7-808|10.1515/ZNC-2001-9-1012|10.1515/ZNC-2002-11-1224|10.1515/ZNC-2002-7-805|10.1515/ZNC-2003-3-401|10.1515/ZNC-2003-7-826|10.1515/ZNC-2003-9-1019|10.15406/MOJFPT.2016.02.00030|10.1556/AALIM.29.2000.4.4|10.1556/AALIM.31.2002.1.7|10.15625/0866-708X/55/2/8608|10.1590/S0100-40421999000200006|10.1590/S0102-695X2008000200006|10.1590/S0102-695X2010000100002|10.1590/S0102-695X2011005000107|10.1590/S0103-50531997000500011|10.1590/S0103-50531999000600003|10.1590/S0103-50532006000200010|10.1787/9789264253421-7-EN|10.18535/IJETST/V2I8.18|10.18845/tm.v37i7.7298|10.20959/WJPR20177-8876|10.21273/JASHS.120.6.909|10.21548/25-2-2143|10.21608/BFSA.1984.89566|10.21608/BFSA.1984.89568|10.21608/BFSA.1985.75705|10.21608/BFSA.1995.69671|10.21608/BFSA.1999.66080|10.21608/BFSA.1999.66114|10.21608/BFSA.2000.66324|10.21608/BFSA.2002.65511|10.21608/EJAPS.2011.186256|10.21608/ZJPS.1993.188983|10.21608/ZJPS.1994.186618|10.21608/ZJPS.1994.186742|10.2174/2210289201304010153|10.2298/HEMIND0704272R|10.2307/2806097|10.2307/3754908|10.2307/J.CTT22728B6.4|10.23986/AFSCI.5652|10.26459/JNS.V116I2.3763|10.3109/13880208309070608|10.3109/13880208909053932|10.3109/13880209.2015.1008144|10.3109/13880209109082884|10.3109/13880209409083024|10.3109/13880209509088143|10.3109/13880209509088152|10.3136/FSTR.6.106|10.3136/NSKKK.42.1027|10.3136/NSKKK.42.892|10.3177/JNSV.46.199|10.3184/030823402103171960|10.32861/JBR.66.57.61|10.3329/JSR.V4I3.7725|10.3390/11090661|10.3390/12010043|10.3390/12092130|10.3390/IJMS160715625|10.3390/MOLECULES13081931|10.3390/MOLECULES13112796|10.3390/MOLECULES14041456|10.3390/MOLECULES15042178|10.3390/MOLECULES15095998|10.3390/MOLECULES15106722|10.3390/MOLECULES15117933|10.3390/MOLECULES15118241|10.3390/MOLECULES15118507|10.3390/MOLECULES16031917|10.3390/MOLECULES16098076|10.3390/MOLECULES16108305|10.3390/MOLECULES23020469|10.3390/MOLECULES23030580|10.3390/MOLECULES23071558|10.3390/NU11020402|10.3390/NU11061377|10.3390/PLANTS10071330|10.3390/cancers11111742|10.3390/molecules26216493|10.3724/SP.J.1009.2010.00257|10.3724/SP.J.1009.2012.00084|10.3746/JKFN.2011.40.4.517|10.3797/SCIPHARM.1409-12|10.3797/SCIPHARM.2007.75.179|10.38212/2224-6614.2825|10.38212/2224-6614.2935|10.3945/AN.113.004473|10.3987/COM-02-9593|10.3987/COM-03-9882|10.3987/COM-10-12082|10.3987/COM-11-12354|10.3987/COM-89-5087|10.3987/COM-90-5425|10.3987/COM-96-7497|10.3998/ARK.5550190.0012.214|10.4067/S0717-97072006000100002|10.4268/CJCMM20100712|10.4268/CJCMM20100813|10.4268/CJCMM20101114|10.4268/CJCMM20120222|10.4268/CJCMM20120313|10.4268/CJCMM20121613|10.4268/CJCMM20121914|10.4268/CJCMM20130315|10.4268/CJCMM20141227|10.4268/CJCMM20142015|10.4268/CJCMM20142423|10.4268/CJCMM20150722|10.4268/CJCMM20150818|10.4268/CJCMM20162420|10.4324/9780203304310_CHAPTER_3|10.4327/JSNFS.44.123|10.5012/BKCS.2010.31.8.2392|10.5040/9781474215718.CH-010|10.5109/22646|10.5344/AJEV.1996.47.2.186|10.5344/AJEV.1998.49.2.142|10.5530/phrev.2020.14.7|10.5586/ASBP.1988.009|10.5586/ASBP.1991.010

>  <synonyms>  (1051) 
nan

>  <cas>  (1051) 
117-39-5|74893-81-5|BRD-K97399794-335-03-1

$$$$

     RDKit          2D

 17 18  0  0  0  0  0  0  0  0999 V2000
    1.6244   -3.4559    0.0000 C   0  0  0  0  0  0  0  0  0  0  0  0
    1.4546   -1.9656    0.0000 C   0  0  0  0  0  0  0  0  0  0  0  0
    0.0789   -1.3675    0.0000 C   0  0  0  0  0  0  0  0  0  0  0  0
   -0.0909    0.1228    0.0000 C   0  0  0  0  0  0  0  0  0  0  0  0
    1.1148    1.0151    0.0000 C   0  0  0  0  0  0  0  0  0  0  0  0
    2.4905    0.4170    0.0000 C   0  0  0  0  0  0  0  0  0  0  0  0
    2.6603   -1.0733    0.0000 C   0  0  0  0  0  0  0  0  0  0  0  0
    4.0359   -1.6714    0.0000 O   0  0  0  0  0  0  0  0  0  0  0  0
    0.9450    2.5055    0.0000 C   0  0  0  0  0  0  0  0  0  0  0  0
    2.1507    3.3978    0.0000 C   0  0  0  0  0  0  0  0  0  0  0  0
   -0.4306    3.1036    0.0000 C   0  0  0  0  0  0  0  0  0  0  0  0
   -1.6364    2.2113    0.0000 C   0  0  0  0  0  0  0  0  0  0  0  0
   -1.4665    0.7209    0.0000 C   0  0  0  0  0  0  0  0  0  0  0  0
   -2.6723   -0.1713    0.0000 C   0  0  0  0  0  0  0  0  0  0  0  0
   -4.0479    0.4267    0.0000 C   0  0  0  0  0  0  0  0  0  0  0  0
   -2.5024   -1.6617    0.0000 C   0  0  0  0  0  0  0  0  0  0  0  0
   -3.7082   -2.5540    0.0000 O   0  0  0  0  0  0  0  0  0  0  0  0
  1  2  1  0
  2  3  2  0
  3  4  1  0
  4  5  2  0
  5  6  1  0
  6  7  2  0
  7  8  1  0
  5  9  1  0
  9 10  1  6
  9 11  1  0
 11 12  1  0
 13 12  1  6
 13 14  1  0
 14 15  1  6
 14 16  1  0
 16 17  1  0
  7  2  1  0
 13  4  1  0
M  END
>  <identifier>  (1052) 
CNP0280431.1

>  <canonical_smiles>  (1052) 
CC1=CC2=C(C=C1O)[C@@H](C)CC[C@H]2[C@@H](C)CO

>  <standard_inchi>  (1052) 
InChI=1S/C15H22O2/c1-9-4-5-12(11(3)8-16)14-6-10(2)15(17)7-13(9)14/h6-7,9,11-12,16-17H,4-5,8H2,1-3H3/t9-,11-,12-/m0/s1

>  <standard_inchi_key>  (1052) 
JZRBLGYAAXGCNI-DLOVCJGASA-N

>  <name>  (1052) 
nan

>  <iupac_name>  (1052) 
(1~{S},4~{S})-1-[(1~{R})-2-hydroxy-1-methyl-ethyl]-4,7-dimethyl-tetralin-6-ol

>  <annotation_level>  (1052) 
5

>  <total_atom_count>  (1052) 
39

>  <heavy_atom_count>  (1052) 
17

>  <molecular_weight>  (1052) 
234.34

>  <exact_molecular_weight>  (1052) 
234.16198

>  <molecular_formula>  (1052) 
C15H22O2

>  <alogp>  (1052) 
3.31

>  <topological_polar_surface_area>  (1052) 
40.46

>  <rotatable_bond_count>  (1052) 
2

>  <hydrogen_bond_acceptors>  (1052) 
2

>  <hydrogen_bond_donors>  (1052) 
2

>  <hydrogen_bond_acceptors_lipinski>  (1052) 
2

>  <hydrogen_bond_donors_lipinski>  (1052) 
2

>  <lipinski_rule_of_five_violations>  (1052) 
0

>  <aromatic_rings_count>  (1052) 
1

>  <qed_drug_likeliness>  (1052) 
0.82

>  <formal_charge>  (1052) 
0

>  <fractioncsp3>  (1052) 
0.60

>  <number_of_minimal_rings>  (1052) 
2

>  <van_der_walls_volume>  (1052) 
236.22

>  <contains_sugar>  (1052) 
False

>  <contains_ring_sugars>  (1052) 
False

>  <contains_linear_sugars>  (1052) 
False

>  <murcko_framework>  (1052) 
c1ccc2c(c1)CCCC2

>  <np_likeness>  (1052) 
2.11

>  <chemical_class>  (1052) 
Prenol lipids

>  <chemical_sub_class>  (1052) 
Sesquiterpenoids

>  <chemical_super_class>  (1052) 
Lipids and lipid-like molecules

>  <direct_parent_classification>  (1052) 
Sesquiterpenoids

>  <np_classifier_pathway>  (1052) 
Terpenoids

>  <np_classifier_superclass>  (1052) 
Sesquiterpenoids

>  <np_classifier_class>  (1052) 
Cadinane sesquiterpenoids

>  <np_classifier_is_glycoside>  (1052) 
False

>  <organisms>  (1052) 
Phomopsis cassiae

>  <collections>  (1052) 
ChemSpider NPs|Latin America dataset|NuBBEDB|Super Natural II|WikiData Natural Products|ZINC NP

>  <dois>  (1052) 
10.1016/J.PHYTOCHEM.2006.06.004|10.1016/j.phytochem.2006.06.004

>  <synonyms>  (1052) 
Rel. (+)-(7S10S) 312-dihydroxycalamenene

>  <cas>  (1052) 
nan

$$$$

     RDKit          2D

 24 27  0  0  0  0  0  0  0  0999 V2000
   -0.6339   -4.8301    0.0000 C   0  0  0  0  0  0  0  0  0  0  0  0
    0.2869   -3.6459    0.0000 O   0  0  0  0  0  0  0  0  0  0  0  0
   -0.2783   -2.2565    0.0000 C   0  0  0  0  0  0  0  0  0  0  0  0
   -1.7641   -2.0511    0.0000 C   0  0  0  0  0  0  0  0  0  0  0  0
   -2.3292   -0.6617    0.0000 C   0  0  0  0  0  0  0  0  0  0  0  0
   -1.4085    0.5225    0.0000 C   0  0  0  0  0  0  0  0  0  0  0  0
   -1.9736    1.9120    0.0000 C   0  0  0  0  0  0  0  0  0  0  0  0
   -3.4595    2.1173    0.0000 C   0  0  0  0  0  0  0  0  0  0  0  0
   -4.3802    0.9332    0.0000 C   0  0  0  0  0  0  0  0  0  0  0  0
   -5.6505    0.1354    0.0000 C   0  0  0  0  0  0  0  0  0  0  0  0
   -5.3865    2.0456    0.0000 C   0  0  0  0  0  0  0  0  0  0  0  0
   -3.8151   -0.4563    0.0000 O   0  0  0  0  0  0  0  0  0  0  0  0
    0.0774    0.3171    0.0000 C   0  0  0  0  0  0  0  0  0  0  0  0
    0.6425   -1.0723    0.0000 C   0  0  0  0  0  0  0  0  0  0  0  0
    2.1284   -1.2777    0.0000 C   0  0  0  0  0  0  0  0  0  0  0  0
    2.6935   -2.6671    0.0000 O   0  0  0  0  0  0  0  0  0  0  0  0
    3.0492   -0.0935    0.0000 C   0  0  0  0  0  0  0  0  0  0  0  0
    4.5350   -0.2989    0.0000 C   0  0  0  0  0  0  0  0  0  0  0  0
    5.4558    0.8853    0.0000 C   0  0  0  0  0  0  0  0  0  0  0  0
    4.8907    2.2748    0.0000 C   0  0  0  0  0  0  0  0  0  0  0  0
    3.4048    2.4801    0.0000 C   0  0  0  0  0  0  0  0  0  0  0  0
    2.4840    1.2960    0.0000 C   0  0  0  0  0  0  0  0  0  0  0  0
    0.9982    1.5013    0.0000 N   0  0  0  0  0  0  0  0  0  0  0  0
    0.4331    2.8908    0.0000 C   0  0  0  0  0  0  0  0  0  0  0  0
  1  2  1  0
  2  3  1  0
  3  4  2  0
  4  5  1  0
  5  6  2  0
  6  7  1  0
  7  8  2  0
  8  9  1  0
  9 10  1  0
  9 11  1  0
  9 12  1  0
  6 13  1  0
 13 14  2  0
 14 15  1  0
 15 16  2  0
 15 17  1  0
 17 18  2  0
 18 19  1  0
 19 20  2  0
 20 21  1  0
 21 22  2  0
 22 23  1  0
 23 24  1  0
 14  3  1  0
 22 17  1  0
 12  5  1  0
 23 13  1  0
M  END
>  <identifier>  (1053) 
CNP0125900.0

>  <canonical_smiles>  (1053) 
COC1=CC2=C(C=CC(C)(C)O2)C2=C1C(=O)C1=CC=CC=C1N2C

>  <standard_inchi>  (1053) 
InChI=1S/C20H19NO3/c1-20(2)10-9-13-15(24-20)11-16(23-4)17-18(13)21(3)14-8-6-5-7-12(14)19(17)22/h5-11H,1-4H3

>  <standard_inchi_key>  (1053) 
SMPZPKRDRQOOHT-UHFFFAOYSA-N

>  <name>  (1053) 
Acronine

>  <iupac_name>  (1053) 
6-methoxy-3,3,12-trimethyl-pyrano[2,3-c]acridin-7-one

>  <annotation_level>  (1053) 
5

>  <total_atom_count>  (1053) 
43

>  <heavy_atom_count>  (1053) 
24

>  <molecular_weight>  (1053) 
321.38

>  <exact_molecular_weight>  (1053) 
321.13649

>  <molecular_formula>  (1053) 
C20H19NO3

>  <alogp>  (1053) 
3.88

>  <topological_polar_surface_area>  (1053) 
40.46

>  <rotatable_bond_count>  (1053) 
1

>  <hydrogen_bond_acceptors>  (1053) 
4

>  <hydrogen_bond_donors>  (1053) 
0

>  <hydrogen_bond_acceptors_lipinski>  (1053) 
4

>  <hydrogen_bond_donors_lipinski>  (1053) 
0

>  <lipinski_rule_of_five_violations>  (1053) 
0

>  <aromatic_rings_count>  (1053) 
3

>  <qed_drug_likeliness>  (1053) 
0.64

>  <formal_charge>  (1053) 
0

>  <fractioncsp3>  (1053) 
0.25

>  <number_of_minimal_rings>  (1053) 
4

>  <van_der_walls_volume>  (1053) 
285.82

>  <contains_sugar>  (1053) 
False

>  <contains_ring_sugars>  (1053) 
False

>  <contains_linear_sugars>  (1053) 
False

>  <murcko_framework>  (1053) 
O1c2ccc3c(Nc4ccccc4C3)c2C=CC1

>  <np_likeness>  (1053) 
1.66

>  <chemical_class>  (1053) 
Quinolines and derivatives

>  <chemical_sub_class>  (1053) 
Benzoquinolines

>  <chemical_super_class>  (1053) 
Organoheterocyclic compounds

>  <direct_parent_classification>  (1053) 
Acridones

>  <np_classifier_pathway>  (1053) 
Alkaloids

>  <np_classifier_superclass>  (1053) 
Anthranilic acid alkaloids

>  <np_classifier_class>  (1053) 
Acridone alkaloids

>  <np_classifier_is_glycoside>  (1053) 
False

>  <organisms>  (1053) 
Acronychia baueri|Acronychia haplophylla|Acronychia pedunculata|Chrysosplenium tosaense|Cordyceps militaris|Dipteris conjugata|Limonium bicolor|Medicosma subsessilis|Melicope leptococca|Murraya paniculata|Sarcomelicope argyrophylla|Sarcomelicope dogniensis|Sarcomelicope megistophylla|Sarcomelicope simplicifolia|Swinglea glutinosa

>  <collections>  (1053) 
Australian natural products|CMAUP (cCollective molecular activities of useful plants)|ChEBI NPs|ConMedNP|KNApSaCK|Latin America dataset|NCI DTP data|NPASS|NPEdia|NuBBEDB|PubChem NPs|Specs Natural Products|Super Natural II|TCMDB-Taiwan (Traditional Chinese Medicine database)|TCMID (Traditional Chinese Medicine Integrated Database)|UNPD (Universal Natural Products Database)|WikiData Natural Products|ZINC NP

>  <dois>  (1053) 
10.1016/J.FITOTE.2006.10.003|10.1021/NP800644Y|10.1021/NP9904096|10.1021/np800644y|10.1055/S-2007-969594|10.1071/ch9490622|10.1080/14786410600907002|10.1515/ZNB-2003-1213|10.3987/R-1987-08-2057

>  <synonyms>  (1053) 
3,12-Dihydro-6-methoxy-3,3,12-trimethyl-7H-pyrano(2,3-c)acridin-7-one|3,3,12-trimethyl-6-(methyloxy)-3,12-dihydro-7H-pyrano[2,3-c]acridin-7-one|3,3,12-trimethyl-7H-pyrano[2,3-c]acridin-7-one|4-27-00-03622 (Beilstein Handbook Reference)|6-Methoxy-3,3,12-trimethyl-3,12-dihydro-7H-pyrano[2,3-c]acridin-7-one|6-methoxy-3,3,12-trimethylpyrano[2,3-c]acridin-7-one|7008-42-6|7H-Pyrano(2,3-c)acridin-7-one, 3,12-dihydro-6-methoxy-3,3,12-trimethyl-|7H-Pyrano[2, 3,12-dihydro-6-methoxy-3,3,12-trimethyl-|ACRONINE [HSDB]|ACRONINE [INN]|ACRONINE [USAN]|ACRONYCINE|AKOS040740281|Acromycine|Acronina|Acronina [INN-Spanish]|Acronine|Acronine (TN)|Acronine (USAN\/INN)|Acronine [USAN:INN]|Acroninum|Acroninum [INN-Latin]|Acronycine (Acronine)|BDBM50480253|BRN 0312954|CCRIS 6|CHEBI:2437|CHEMBL285852|COMPOUND-42339|Compound 42339|D02378|DTXSID0020026|HSDB 7073|MLS003171532|NCI-C01536|NCI60_003795|NS00125353|NSC 403169|Q15633955|QE0G097358|SCHEMBL11499|SMPZPKRDRQOOHT-UHFFFAOYSA-N|SMR001875415|UNII-QE0G097358|acridone acronycine|acronine|acronycine

>  <cas>  (1053) 
7008-42-6

$$$$

     RDKit          2D

 45 49  0  0  0  0  0  0  0  0999 V2000
   -5.0910   -1.9480    0.0000 O   0  0  0  0  0  0  0  0  0  0  0  0
   -5.6587   -0.5595    0.0000 C   0  0  0  0  0  0  0  0  0  0  0  0
   -4.7401    0.6263    0.0000 O   0  0  0  0  0  0  0  0  0  0  0  0
   -3.2538    0.4237    0.0000 C   0  0  0  0  0  0  0  0  0  0  0  0
   -2.6862   -0.9647    0.0000 O   0  0  0  0  0  0  0  0  0  0  0  0
   -1.1999   -1.1673    0.0000 C   0  0  0  0  0  0  0  0  0  0  0  0
   -0.3327   -2.6584    0.0000 C   0  0  0  0  0  0  0  0  0  0  0  0
    1.0505   -3.2388    0.0000 O   0  0  0  0  0  0  0  0  0  0  0  0
    2.5386   -3.0498    0.0000 C   0  0  0  0  0  0  0  0  0  0  0  0
    3.1063   -4.4382    0.0000 O   0  0  0  0  0  0  0  0  0  0  0  0
    3.7327   -2.1421    0.0000 C   0  0  0  0  0  0  0  0  0  0  0  0
    4.6404   -3.3362    0.0000 C   0  0  0  0  0  0  0  0  0  0  0  0
    6.1285   -3.1472    0.0000 C   0  0  0  0  0  0  0  0  0  0  0  0
    7.0362   -4.3414    0.0000 O   0  0  0  0  0  0  0  0  0  0  0  0
    6.7088   -1.7641    0.0000 C   0  0  0  0  0  0  0  0  0  0  0  0
    8.1969   -1.5751    0.0000 O   0  0  0  0  0  0  0  0  0  0  0  0
    5.8011   -0.5699    0.0000 C   0  0  0  0  0  0  0  0  0  0  0  0
    6.2783    0.0687    0.0000 O   0  0  0  0  0  0  0  0  0  0  0  0
    4.3131   -0.7589    0.0000 C   0  0  0  0  0  0  0  0  0  0  0  0
    4.1241    0.7292    0.0000 C   0  0  0  0  0  0  0  0  0  0  0  0
    3.2164    1.9234    0.0000 C   0  0  0  0  0  0  0  0  0  0  0  0
    3.7967    3.3065    0.0000 C   0  0  0  0  0  0  0  0  0  0  0  0
    5.2848    3.4955    0.0000 C   0  0  0  0  0  0  0  0  0  0  0  0
    5.8651    4.8787    0.0000 O   0  0  0  0  0  0  0  0  0  0  0  0
    6.1925    2.3014    0.0000 C   0  0  0  0  0  0  0  0  0  0  0  0
    7.6805    2.4904    0.0000 O   0  0  0  0  0  0  0  0  0  0  0  0
    5.6121    0.9182    0.0000 C   0  0  0  0  0  0  0  0  0  0  0  0
    6.2338    0.4191    0.0000 O   0  0  0  0  0  0  0  0  0  0  0  0
    1.8332    2.5037    0.0000 C   0  0  0  0  0  0  0  0  0  0  0  0
    2.0358    3.9900    0.0000 O   0  0  0  0  0  0  0  0  0  0  0  0
    0.3452    2.3147    0.0000 O   0  0  0  0  0  0  0  0  0  0  0  0
   -0.8490    1.4070    0.0000 C   0  0  0  0  0  0  0  0  0  0  0  0
   -2.3353    1.6096    0.0000 C   0  0  0  0  0  0  0  0  0  0  0  0
   -2.9030    2.9980    0.0000 O   0  0  0  0  0  0  0  0  0  0  0  0
   -0.2813    0.0186    0.0000 C   0  0  0  0  0  0  0  0  0  0  0  0
    1.2049   -0.1840    0.0000 O   0  0  0  0  0  0  0  0  0  0  0  0
   -7.1449   -0.3570    0.0000 C   0  0  0  0  0  0  0  0  0  0  0  0
   -7.7126    1.0315    0.0000 C   0  0  0  0  0  0  0  0  0  0  0  0
   -9.1989    1.2340    0.0000 C   0  0  0  0  0  0  0  0  0  0  0  0
   -9.7666    2.6225    0.0000 O   0  0  0  0  0  0  0  0  0  0  0  0
  -10.1174    0.0482    0.0000 C   0  0  0  0  0  0  0  0  0  0  0  0
  -11.6037    0.2508    0.0000 O   0  0  0  0  0  0  0  0  0  0  0  0
   -9.5497   -1.3402    0.0000 C   0  0  0  0  0  0  0  0  0  0  0  0
  -10.4683   -2.5261    0.0000 O   0  0  0  0  0  0  0  0  0  0  0  0
   -8.0635   -1.5428    0.0000 C   0  0  0  0  0  0  0  0  0  0  0  0
  1  2  2  0
  2  3  1  0
  4  3  1  1
  4  5  1  0
  5  6  1  0
  6  7  1  1
  7  8  1  0
  8  9  1  0
  9 10  2  0
  9 11  1  0
 11 12  2  0
 12 13  1  0
 13 14  1  0
 13 15  2  0
 15 16  1  0
 15 17  1  0
 17 18  1  0
 17 19  2  0
 19 20  1  0
 20 21  2  0
 21 22  1  0
 22 23  2  0
 23 24  1  0
 23 25  1  0
 25 26  1  0
 25 27  2  0
 27 28  1  0
 21 29  1  0
 29 30  2  0
 29 31  1  0
 32 31  1  1
 32 33  1  0
 33 34  1  0
 32 35  1  0
 35 36  1  6
  2 37  1  0
 37 38  2  0
 38 39  1  0
 39 40  1  0
 39 41  2  0
 41 42  1  0
 41 43  1  0
 43 44  1  0
 43 45  2  0
 33  4  1  0
 45 37  1  0
 35  6  1  0
 19 11  1  0
 27 20  1  0
M  END
>  <identifier>  (1054) 
CNP0154709.1

>  <canonical_smiles>  (1054) 
O=C(O[C@@H]1O[C@@H]2COC(=O)C3=CC(O)=C(O)C(O)=C3C3=C(C=C(O)C(O)=C3O)C(=O)O[C@H](C1O)[C@@H]2O)C1=CC(O)=C(O)C(O)=C1

>  <standard_inchi>  (1054) 
InChI=1S/C27H22O18/c28-9-1-6(2-10(29)16(9)32)24(39)45-27-22(38)23-19(35)13(43-27)5-42-25(40)7-3-11(30)17(33)20(36)14(7)15-8(26(41)44-23)4-12(31)18(34)21(15)37/h1-4,13,19,22-23,27-38H,5H2/t13-,19-,22?,23+,27+/m1/s1

>  <standard_inchi_key>  (1054) 
TUSDEZXZIZRFGC-PSURYOONSA-N

>  <name>  (1054) 
Corilagin

>  <iupac_name>  (1054) 
[(1~{S},19~{R},21~{S},23~{R})-6,7,8,11,12,13,22,23-octahydroxy-3,16-dioxo-2,17,20-trioxatetracyclo[17.3.1.0^{4,9}.0^{10,15}]tricosa-4(9),5,7,10,12,14-hexaen-21-yl] 3,4,5-trihydroxybenzoate

>  <annotation_level>  (1054) 
5

>  <total_atom_count>  (1054) 
67

>  <heavy_atom_count>  (1054) 
45

>  <molecular_weight>  (1054) 
634.46

>  <exact_molecular_weight>  (1054) 
634.08061

>  <molecular_formula>  (1054) 
C27H22O18

>  <alogp>  (1054) 
-0.30

>  <topological_polar_surface_area>  (1054) 
310.66

>  <rotatable_bond_count>  (1054) 
2

>  <hydrogen_bond_acceptors>  (1054) 
18

>  <hydrogen_bond_donors>  (1054) 
11

>  <hydrogen_bond_acceptors_lipinski>  (1054) 
18

>  <hydrogen_bond_donors_lipinski>  (1054) 
11

>  <lipinski_rule_of_five_violations>  (1054) 
3

>  <aromatic_rings_count>  (1054) 
3

>  <qed_drug_likeliness>  (1054) 
0.10

>  <formal_charge>  (1054) 
0

>  <fractioncsp3>  (1054) 
0.22

>  <number_of_minimal_rings>  (1054) 
5

>  <van_der_walls_volume>  (1054) 
488.59

>  <contains_sugar>  (1054) 
False

>  <contains_ring_sugars>  (1054) 
False

>  <contains_linear_sugars>  (1054) 
False

>  <murcko_framework>  (1054) 
O1Cc2ccccc2-c3ccccc3COC4CC(OCc5ccccc5)OC(C1)C4

>  <np_likeness>  (1054) 
1.58

>  <chemical_class>  (1054) 
Tannins

>  <chemical_sub_class>  (1054) 
Hydrolyzable tannins

>  <chemical_super_class>  (1054) 
Phenylpropanoids and polyketides

>  <direct_parent_classification>  (1054) 
Hydrolyzable tannins

>  <np_classifier_pathway>  (1054) 
Shikimates and Phenylpropanoids

>  <np_classifier_superclass>  (1054) 
Phenolic acids (C6-C1)

>  <np_classifier_class>  (1054) 
Gallotannins

>  <np_classifier_is_glycoside>  (1054) 
True

>  <organisms>  (1054) 
Acacia glaucescens|Acalypha australis|Acalypha hispida|Acalypha indica|Acridocarpus vivy|Aframomum amaniense|Agave utahensis|Aglaia elaeagnoidea|Alectoria divergens|Aplidium orthium|Apterostigma dentigerum|Aristolochia elegans|Aristolochia zollingeriana|Artemisia bigelovii|Aspergillus candidus|Astragalus gummifer|Balanophora involucrata|Bartramia pomiformis|Beauveria felina|Beilschmiedia anacardioides|Bipolaris zeicola|Bischofia javanica|Blainvillea rhomboidea|Botryosphaeria berengeriana|Brenneria rubrifaciens|Canarium album|Cardiospermum halicacabum|Carpinus laxiflora|Caryocar villosum|Cedrus libani|Centaurea cadmea|Centaurea nigrescens|Cephalaria grossheimii|Cercidiphyllum japonicum|Cerinthe minor|Choerospondias axillaris|Cirsium japonicum|Cladiella krempfi|Cladonia macilenta|Clematis angustifolia|Coccus ilicis|Colubrina elliptica|Conyza canadensis|Coreopsis fasciculata|Craspidospermum verticillatum|Crepis foetida|Crinum defixum|Cunonia macrophylla|Cuphea carthagenensis|Cyathocline purpurea|Dictyopteris acrostichoides|Dimocarpus longan|Dinophysis acuminata|Dioscorea japonica|Dioscoreophyllum cumminsii|Dorstenia lindeniana|Ehretia dicksonii|Epipolasis kushimotoensis|Erodium cicutarium|Erodium moschatum|Erodium stephanianum|Eskemukerjea megacarpum|Eucalyptus sieberiana|Euphorbia fischeriana|Euphorbia helioscopia|Euphorbia humifusa|Euphorbia hyssopifolia|Euphorbia jolkinii|Euphorbia maculata|Euphorbia makinoi|Euphorbia prostrata|Euphorbia segetalis|Euphorbia thymifolia|Euphorbia watanabei|Excoecaria agallocha|Excoecaria kawakamii|Fagara zanthoxyloides|Falconeria insignis|Faramea cyanea|Garcinia hombroniana|Geranium carolinianum|Geranium rectum|Geranium sibiricum|Geranium thunbergii|Geranium wilfordii|Glycyrrhiza squamulosa|Hypericum ascyron|Ilex hainanensis|Isaria felina|Ixeris stolonifera|Justicia paniculata|Kelletia kelletii|Khaya ivorensis|Khaya senegalensis|Larix cajanderi|Lotus japonicus|Lumnitzera racemosa|Lupinus verbasciformis|Macaranga sinensis|Macaranga tanarius|Mallotus japonicus|Mallotus philippinensis|Mallotus repandus|Matricaria parthenium|Melaleuca rhaphiophylla|Melicope sarcococca|Micromonospora inositola|Mnium hornum|Modiolus demissus|Morus rubra|Nama hispidum|Nephelium lappaceum|Nyssa sinensis|Oscillatoria princeps|Ozoroa insignis|Parastrephia lepidophylla|Pelargonium reniforme|Penicillium paxilli|Penstemon secundiflorus|Perilla acuta|Phedimus kamtschaticus|Phlogacanthus thyrsiflorus|Phormia regina|Phyfnnvik eyyfn|Phyllanthus Emblica|Phyllanthus amarus|Phyllanthus emblica|Phyllanthus flexuosus|Phyllanthus myrtifolius|Phyllanthus niruri|Phyllanthus tenellus|Phyllanthus urinaria|Phyllanthus virgatus|Phytolacca acinosa|Pieris napi|Piper arboreum|Plantago alpina|Plinia cauliflora|Pouzolzia occidentalis|Pteris australis|Pulicaria wightiana|Punica Granatum|Punica granatum|Rhipocephalus phoenix|Ricinus Communis|Ricinus communis|Ruta microcarpa|Sapium Sebiferum|Selinum carvifolium|Senecio chinensis|Senecio renardii|Senna siamea|Sextonia rubra|Sidastrum acuminatum|Sideritis nutans|Stenomesson miniatum|Stevia porphyrea|Streptomyces blastmyceticus|Streptomyces paulus|Syncolostemon parviflorus|Syneilesis palmata|Terminalia Chebula|Terminalia bellirica|Terminalia catappa|Terminalia chebula|Terminalia citrina|Terminalia species|Tetradium glabrifolium|Thermopsis lanceolata|Thuja plicata|Toxicodendron succedaneum|Toxicodendron sylvestre|Triadica sebifera|Triaenophora rupestris|Triglochin maritima|Uncaria donisii|Uncaria guianensis|Urtica triangularis|Valeriana hardwickii|Vernicia cordata|Vernicia fordii|Vernicia montana|Virola multinervia|Xanthoparmelia subincerta|Xylopia brasiliensis|Yucca flexilis|Zanthoxylum monophyllum|pomegranate

>  <collections>  (1054) 
ANPDB|Australian natural products|CMAUP (cCollective molecular activities of useful plants)|ChEBI NPs|ChemSpider NPs|FooDB|Latin America dataset|NANPDB (Natural Products from Northern African Sources)|NPASS|NuBBEDB|Phyto4Health|Super Natural II|TIPdb (database of Taiwan indigenous plants)|VietHerb|WikiData Natural Products

>  <dois>  (1054) 
10.1002/(SICI)1099-1573(199702)11:1<22::AID-PTR951>3.0.CO;2-3|10.1002/1099-1573(200008)14:5<371::AID-PTR625>3.0.CO;2-F|10.1002/BMC.1155|10.1002/JCCS.199500128|10.1002/JCCS.199700075|10.1002/JCCS.199900085|10.1002/bmc.1155|10.1007/BF00574360|10.1007/BF02273936|10.1007/S10600-005-0011-4|10.1007/S10600-012-0285-2|10.1016/0031-9422(90)85288-Q|10.1016/0031-9422(91)85260-7|10.1016/0031-9422(93)85545-3|10.1016/0031-9422(94)00670-O|10.1016/J.BMCL.2011.11.109|10.1016/J.FITOTE.2006.04.007|10.1016/J.PHYMED.2006.12.012|10.1016/J.PHYTOCHEM.2004.11.016|10.1016/J.PHYTOCHEM.2010.03.018|10.1016/S0031-9422(00)00176-X|10.1016/S0031-9422(00)82451-6|10.1016/S0031-9422(00)83125-8|10.1016/S0031-9422(00)89820-9|10.1016/S0031-9422(00)95211-7|10.1016/S0031-9422(02)00435-1|10.1016/S0166-3542(02)00213-9|10.1016/j.phytochem.2010.03.018|10.1021/JF904593N|10.1021/JO00028A002|10.1021/NP000135I|10.1021/NP010370G|10.1021/NP0400297|10.1021/NP50040A016|10.1021/NP50082A001|10.1021/NP50094A030|10.1021/NP800015P|10.1021/NP970336V|10.1021/NP970428K|10.1055/S-0030-1251818|10.1055/S-1999-13960|10.1055/S-2006-958103|10.1248/BPB.16.787|10.1248/CPB.14.877|10.1248/CPB.32.1866|10.1248/CPB.34.1039|10.1248/CPB.34.941|10.1248/CPB.37.2063|10.1248/CPB.37.2531|10.1248/CPB.37.2624|10.1248/CPB.37.2940|10.1248/CPB.37.50|10.1248/CPB.38.1218|10.1248/CPB.38.1518|10.1248/CPB.38.1844|10.1248/CPB.38.2162|10.1248/CPB.38.3004|10.1248/CPB.38.3296|10.1248/CPB.38.861|10.1248/CPB.39.630|10.1248/CPB.39.881|10.1248/CPB.40.53|10.1248/CPB.42.1803|10.1248/CPB.42.2005|10.1248/CPB.44.1293|10.1248/CPB.47.1148|10.1248/CPB.57.1289|10.1515/ZNB-2005-0513|10.1515/ZNB-2006-0111|10.1515/hfsg.1958.12.5.136|10.3390/MOLECULES15031453|10.38212/2224-6614.2935|10.3987/COM-91-S49|10.5897/AJPP10.363

>  <synonyms>  (1054) 
Corilagin|corilagin

>  <cas>  (1054) 
nan

$$$$

     RDKit          2D

 35 38  0  0  0  0  0  0  0  0999 V2000
   -6.0147   -2.7136    0.0000 C   0  0  0  0  0  0  0  0  0  0  0  0
   -5.3534   -1.3672    0.0000 C   0  0  0  0  0  0  0  0  0  0  0  0
   -6.1887   -0.1213    0.0000 C   0  0  0  0  0  0  0  0  0  0  0  0
   -3.8568   -1.2668    0.0000 C   0  0  0  0  0  0  0  0  0  0  0  0
   -3.0214   -2.5126    0.0000 C   0  0  0  0  0  0  0  0  0  0  0  0
   -1.5248   -2.4122    0.0000 C   0  0  0  0  0  0  0  0  0  0  0  0
   -0.6895   -3.6581    0.0000 O   0  0  0  0  0  0  0  0  0  0  0  0
   -0.8635   -1.0658    0.0000 C   0  0  0  0  0  0  0  0  0  0  0  0
   -2.3601   -1.1663    0.0000 C   0  0  0  0  0  0  0  0  0  0  0  0
   -1.6988    0.1801    0.0000 C   0  0  0  0  0  0  0  0  0  0  0  0
   -1.0375    1.5264    0.0000 C   0  0  0  0  0  0  0  0  0  0  0  0
    0.4591    1.6269    0.0000 C   0  0  0  0  0  0  0  0  0  0  0  0
    1.2945    0.3810    0.0000 C   0  0  0  0  0  0  0  0  0  0  0  0
    2.7793    0.1681    0.0000 C   0  0  0  0  0  0  0  0  0  0  0  0
    3.8243    1.2442    0.0000 C   0  0  0  0  0  0  0  0  0  0  0  0
    2.6448    2.1710    0.0000 C   0  0  0  0  0  0  0  0  0  0  0  0
    4.6227    2.5140    0.0000 C   0  0  0  0  0  0  0  0  0  0  0  0
    6.0771    2.1471    0.0000 C   0  0  0  0  0  0  0  0  0  0  0  0
    6.1776    0.6505    0.0000 C   0  0  0  0  0  0  0  0  0  0  0  0
    7.4474   -0.1480    0.0000 C   0  0  0  0  0  0  0  0  0  0  0  0
    8.2458    1.1219    0.0000 C   0  0  0  0  0  0  0  0  0  0  0  0
    6.6490   -1.4178    0.0000 C   0  0  0  0  0  0  0  0  0  0  0  0
    8.7173   -0.9464    0.0000 O   0  0  0  0  0  0  0  0  0  0  0  0
    4.7852    0.0924    0.0000 O   0  0  0  0  0  0  0  0  0  0  0  0
    3.0356   -1.3099    0.0000 C   0  0  0  0  0  0  0  0  0  0  0  0
    1.7092   -2.0104    0.0000 C   0  0  0  0  0  0  0  0  0  0  0  0
    0.6331   -0.9654    0.0000 C   0  0  0  0  0  0  0  0  0  0  0  0
    0.1162   -2.3735    0.0000 C   0  0  0  0  0  0  0  0  0  0  0  0
   -3.1954    0.0796    0.0000 C   0  0  0  0  0  0  0  0  0  0  0  0
   -3.0345    1.5709    0.0000 C   0  0  0  0  0  0  0  0  0  0  0  0
   -4.6362    0.4971    0.0000 C   0  0  0  0  0  0  0  0  0  0  0  0
   -4.9950    1.9535    0.0000 C   0  0  0  0  0  0  0  0  0  0  0  0
   -6.4357    2.3710    0.0000 C   0  0  0  0  0  0  0  0  0  0  0  0
   -7.5176    1.3320    0.0000 O   0  0  0  0  0  0  0  0  0  0  0  0
   -6.7946    3.8275    0.0000 O   0  0  0  0  0  0  0  0  0  0  0  0
  1  2  2  0
  2  3  1  0
  2  4  1  0
  4  5  1  0
  5  6  1  0
  6  7  1  1
  6  8  1  0
  8  9  1  1
  8 10  1  0
 10 11  1  0
 11 12  1  0
 12 13  1  0
 13 14  1  0
 14 15  1  0
 15 16  1  1
 15 17  1  0
 17 18  1  0
 18 19  1  0
 19 20  1  1
 20 21  1  0
 20 22  1  0
 20 23  1  0
 19 24  1  0
 14 25  1  1
 25 26  1  0
 26 27  1  0
 27 28  1  6
 10 29  1  0
 29 30  1  1
 29 31  1  0
 31 32  1  0
 32 33  1  0
 33 34  2  0
 33 35  1  0
 29  4  1  0
 27  8  1  0
 27 13  1  0
 24 15  1  0
M  END
>  <identifier>  (1055) 
CNP0286579.1

>  <canonical_smiles>  (1055) 
C=C(C)C1C[C@H](O)[C@]2(C)C(CCC3[C@@H]([C@]4(C)CC[C@@H](C(C)(C)O)O4)CC[C@]32C)[C@@]1(C)CCC(=O)O

>  <standard_inchi>  (1055) 
InChI=1S/C30H50O5/c1-18(2)21-17-23(31)30(8)22(27(21,5)14-13-25(32)33)10-9-19-20(11-15-28(19,30)6)29(7)16-12-24(35-29)26(3,4)34/h19-24,31,34H,1,9-17H2,2-8H3,(H,32,33)/t19?,20-,21?,22?,23-,24-,27-,28+,29-,30-/m0/s1

>  <standard_inchi_key>  (1055) 
XPSITCZZNYQRQF-MTRHHSTLSA-N

>  <name>  (1055) 
nan

>  <iupac_name>  (1055) 
3-[(3~{S},6~{S},9~{S},9~{a}~{R},9~{b}~{R})-9-hydroxy-3-[(2~{S},5~{S})-5-(1-hydroxy-1-methyl-ethyl)-2-methyl-tetrahydrofuran-2-yl]-7-isopropenyl-6,9~{a},9~{b}-trimethyl-1,2,3,3~{a},4,5,5~{a},7,8,9-decahydrocyclopenta[a]naphthalen-6-yl]propanoic acid

>  <annotation_level>  (1055) 
4

>  <total_atom_count>  (1055) 
85

>  <heavy_atom_count>  (1055) 
35

>  <molecular_weight>  (1055) 
490.73

>  <exact_molecular_weight>  (1055) 
490.36582

>  <molecular_formula>  (1055) 
C30H50O5

>  <alogp>  (1055) 
5.97

>  <topological_polar_surface_area>  (1055) 
86.99

>  <rotatable_bond_count>  (1055) 
6

>  <hydrogen_bond_acceptors>  (1055) 
4

>  <hydrogen_bond_donors>  (1055) 
3

>  <hydrogen_bond_acceptors_lipinski>  (1055) 
4

>  <hydrogen_bond_donors_lipinski>  (1055) 
3

>  <lipinski_rule_of_five_violations>  (1055) 
1

>  <aromatic_rings_count>  (1055) 
0

>  <qed_drug_likeliness>  (1055) 
0.40

>  <formal_charge>  (1055) 
0

>  <fractioncsp3>  (1055) 
0.90

>  <number_of_minimal_rings>  (1055) 
4

>  <van_der_walls_volume>  (1055) 
nan

>  <contains_sugar>  (1055) 
False

>  <contains_ring_sugars>  (1055) 
False

>  <contains_linear_sugars>  (1055) 
False

>  <murcko_framework>  (1055) 
O1CCCC1C2CCC3C4CCCCC4CCC23

>  <np_likeness>  (1055) 
3.13

>  <chemical_class>  (1055) 
Prenol lipids

>  <chemical_sub_class>  (1055) 
Terpene glycosides

>  <chemical_super_class>  (1055) 
Lipids and lipid-like molecules

>  <direct_parent_classification>  (1055) 
Diterpene glycosides

>  <np_classifier_pathway>  (1055) 
Terpenoids

>  <np_classifier_superclass>  (1055) 
Triterpenoids

>  <np_classifier_class>  (1055) 
Dammarane and Protostane triterpenoids

>  <np_classifier_is_glycoside>  (1055) 
False

>  <organisms>  (1055) 
Cabralea canjerana

>  <collections>  (1055) 
Latin America dataset|NuBBEDB|WikiData Natural Products

>  <dois>  (1055) 
10.1016/J.BSE.2005.10.012|10.1016/j.bse.2005.10.012

>  <synonyms>  (1055) 
20S24S-epoxy-7b25-dihydroxy-34-secodammar-4(28)-en-3-oic acid

>  <cas>  (1055) 
nan

$$$$

     RDKit          2D

 25 27  0  0  0  0  0  0  0  0999 V2000
    0.2581   -3.2233    0.0000 C   0  0  0  0  0  0  0  0  0  0  0  0
    1.6083   -2.5698    0.0000 O   0  0  0  0  0  0  0  0  0  0  0  0
    1.7174   -1.0738    0.0000 C   0  0  0  0  0  0  0  0  0  0  0  0
    0.4764   -0.2312    0.0000 C   0  0  0  0  0  0  0  0  0  0  0  0
   -0.8738   -0.8847    0.0000 C   0  0  0  0  0  0  0  0  0  0  0  0
   -0.9829   -2.3807    0.0000 O   0  0  0  0  0  0  0  0  0  0  0  0
   -2.1148   -0.0422    0.0000 C   0  0  0  0  0  0  0  0  0  0  0  0
   -3.4650   -0.6957    0.0000 C   0  0  0  0  0  0  0  0  0  0  0  0
   -3.5741   -2.1917    0.0000 O   0  0  0  0  0  0  0  0  0  0  0  0
   -4.7060    0.1469    0.0000 C   0  0  0  0  0  0  0  0  0  0  0  0
   -4.5968    1.6429    0.0000 C   0  0  0  0  0  0  0  0  0  0  0  0
   -5.8378    2.4855    0.0000 C   0  0  0  0  0  0  0  0  0  0  0  0
   -7.1880    1.8320    0.0000 C   0  0  0  0  0  0  0  0  0  0  0  0
   -7.2972    0.3360    0.0000 C   0  0  0  0  0  0  0  0  0  0  0  0
   -6.0561   -0.5066    0.0000 C   0  0  0  0  0  0  0  0  0  0  0  0
    0.5856    1.2648    0.0000 C   0  0  0  0  0  0  0  0  0  0  0  0
    1.9357    1.9183    0.0000 C   0  0  0  0  0  0  0  0  0  0  0  0
    3.1767    1.0757    0.0000 C   0  0  0  0  0  0  0  0  0  0  0  0
    3.0676   -0.4203    0.0000 C   0  0  0  0  0  0  0  0  0  0  0  0
    4.3086   -1.2629    0.0000 C   0  0  0  0  0  0  0  0  0  0  0  0
    5.6588   -0.6094    0.0000 C   0  0  0  0  0  0  0  0  0  0  0  0
    5.7679    0.8866    0.0000 C   0  0  0  0  0  0  0  0  0  0  0  0
    6.3822    2.2551    0.0000 C   0  0  0  0  0  0  0  0  0  0  0  0
    7.2223    0.5194    0.0000 C   0  0  0  0  0  0  0  0  0  0  0  0
    4.5269    1.7292    0.0000 O   0  0  0  0  0  0  0  0  0  0  0  0
  1  2  1  0
  2  3  1  0
  3  4  2  0
  4  5  1  0
  5  6  2  0
  5  7  1  0
  7  8  1  0
  8  9  2  0
  8 10  1  0
 10 11  2  0
 11 12  1  0
 12 13  2  0
 13 14  1  0
 14 15  2  0
  4 16  1  0
 16 17  2  0
 17 18  1  0
 18 19  2  0
 19 20  1  0
 20 21  2  0
 21 22  1  0
 22 23  1  0
 22 24  1  0
 22 25  1  0
 19  3  1  0
 15 10  1  0
 25 18  1  0
M  END
>  <identifier>  (1056) 
CNP0254906.0

>  <canonical_smiles>  (1056) 
COC1=C(C(=O)CC(=O)C2=CC=CC=C2)C=CC2=C1C=CC(C)(C)O2

>  <standard_inchi>  (1056) 
InChI=1S/C21H20O4/c1-21(2)12-11-16-19(25-21)10-9-15(20(16)24-3)18(23)13-17(22)14-7-5-4-6-8-14/h4-12H,13H2,1-3H3

>  <standard_inchi_key>  (1056) 
QFTWSMLVOZYJPP-UHFFFAOYSA-N

>  <name>  (1056) 
nan

>  <iupac_name>  (1056) 
1-(5-methoxy-2,2-dimethyl-chromen-6-yl)-3-phenyl-propane-1,3-dione

>  <annotation_level>  (1056) 
4

>  <total_atom_count>  (1056) 
45

>  <heavy_atom_count>  (1056) 
25

>  <molecular_weight>  (1056) 
336.39

>  <exact_molecular_weight>  (1056) 
336.13616

>  <molecular_formula>  (1056) 
C21H20O4

>  <alogp>  (1056) 
4.34

>  <topological_polar_surface_area>  (1056) 
52.60

>  <rotatable_bond_count>  (1056) 
5

>  <hydrogen_bond_acceptors>  (1056) 
4

>  <hydrogen_bond_donors>  (1056) 
0

>  <hydrogen_bond_acceptors_lipinski>  (1056) 
4

>  <hydrogen_bond_donors_lipinski>  (1056) 
0

>  <lipinski_rule_of_five_violations>  (1056) 
0

>  <aromatic_rings_count>  (1056) 
2

>  <qed_drug_likeliness>  (1056) 
0.60

>  <formal_charge>  (1056) 
0

>  <fractioncsp3>  (1056) 
0.24

>  <number_of_minimal_rings>  (1056) 
3

>  <van_der_walls_volume>  (1056) 
nan

>  <contains_sugar>  (1056) 
False

>  <contains_ring_sugars>  (1056) 
False

>  <contains_linear_sugars>  (1056) 
False

>  <murcko_framework>  (1056) 
O1c2ccc(cc2C=CC1)CCCc3ccccc3

>  <np_likeness>  (1056) 
1.31

>  <chemical_class>  (1056) 
Linear 1,3-diarylpropanoids

>  <chemical_sub_class>  (1056) 
Chalcones and dihydrochalcones

>  <chemical_super_class>  (1056) 
Phenylpropanoids and polyketides

>  <direct_parent_classification>  (1056) 
Retro-dihydrochalcones

>  <np_classifier_pathway>  (1056) 
Shikimates and Phenylpropanoids

>  <np_classifier_superclass>  (1056) 
Flavonoids

>  <np_classifier_class>  (1056) 
Chalcones

>  <np_classifier_is_glycoside>  (1056) 
False

>  <organisms>  (1056) 
Lonchocarpus subglaucescens|Millettia erythrocalyx|Tephrosia purpurea

>  <collections>  (1056) 
Latin America dataset|NuBBEDB|Super Natural II|UNPD (Universal Natural Products Database)|WikiData Natural Products|ZINC NP

>  <dois>  (1056) 
10.1016/0031-9422(96)00134-3|10.1016/S0031-9422(00)80547-6|10.1016/S0031-9422(02)00337-0|10.1211/JPP.61.02.0017|10.1211/jpp/61.02.0017

>  <synonyms>  (1056) 
2'-methoxy-6''6''-dimethylchromeno[2''3'':4'3']-\u221a\u00e9\u00ac\u2264-oxochalcone

>  <cas>  (1056) 
nan

$$$$

     RDKit          2D

 25 28  0  0  0  0  0  0  0  0999 V2000
    3.6083    4.6577    0.0000 C   0  0  0  0  0  0  0  0  0  0  0  0
    3.6318    3.1579    0.0000 C   0  0  0  0  0  0  0  0  0  0  0  0
    2.3447    2.3876    0.0000 C   0  0  0  0  0  0  0  0  0  0  0  0
    2.3682    0.8878    0.0000 C   0  0  0  0  0  0  0  0  0  0  0  0
    3.6788    0.1583    0.0000 C   0  0  0  0  0  0  0  0  0  0  0  0
    3.7023   -1.3416    0.0000 C   0  0  0  0  0  0  0  0  0  0  0  0
    5.0129   -2.0711    0.0000 O   0  0  0  0  0  0  0  0  0  0  0  0
    2.4152   -2.1118    0.0000 C   0  0  0  0  0  0  0  0  0  0  0  0
    2.4387   -3.6116    0.0000 O   0  0  0  0  0  0  0  0  0  0  0  0
    1.1515   -4.3819    0.0000 C   0  0  0  0  0  0  0  0  0  0  0  0
    1.1046   -1.3823    0.0000 C   0  0  0  0  0  0  0  0  0  0  0  0
    1.0811    0.1176    0.0000 C   0  0  0  0  0  0  0  0  0  0  0  0
   -0.2296    0.8471    0.0000 O   0  0  0  0  0  0  0  0  0  0  0  0
    0.1667   -0.1340    0.0000 C   0  0  0  0  0  0  0  0  0  0  0  0
   -1.3224   -0.3141    0.0000 C   0  0  0  0  0  0  0  0  0  0  0  0
   -1.9110   -1.6938    0.0000 C   0  0  0  0  0  0  0  0  0  0  0  0
   -3.4002   -1.8739    0.0000 C   0  0  0  0  0  0  0  0  0  0  0  0
   -4.3007   -0.6744    0.0000 C   0  0  0  0  0  0  0  0  0  0  0  0
   -5.7948   -0.5410    0.0000 O   0  0  0  0  0  0  0  0  0  0  0  0
   -6.1296    0.9212    0.0000 C   0  0  0  0  0  0  0  0  0  0  0  0
   -4.8425    1.6915    0.0000 O   0  0  0  0  0  0  0  0  0  0  0  0
   -3.7122    0.7053    0.0000 C   0  0  0  0  0  0  0  0  0  0  0  0
   -2.2230    0.8855    0.0000 C   0  0  0  0  0  0  0  0  0  0  0  0
    0.8963    1.1767    0.0000 C   0  0  0  0  0  0  0  0  0  0  0  0
    0.2648    2.5373    0.0000 C   0  0  0  0  0  0  0  0  0  0  0  0
  1  2  2  0
  2  3  1  0
  4  3  1  6
  4  5  1  0
  5  6  1  0
  6  7  2  0
  6  8  1  0
  8  9  1  1
  9 10  1  0
  8 11  1  0
 11 12  1  6
 12 13  1  0
 11 14  1  0
 14 15  1  6
 15 16  2  0
 16 17  1  0
 17 18  2  0
 18 19  1  0
 19 20  1  0
 20 21  1  0
 21 22  1  0
 22 23  2  0
 14 24  1  0
 24 25  1  1
 12  4  1  0
 23 15  1  0
 24  4  1  0
 22 18  1  0
M  END
>  <identifier>  (1057) 
CNP0177595.1

>  <canonical_smiles>  (1057) 
C=CC[C@]12CC(=O)[C@@H](OC)[C@H](C1O)[C@H](C1=CC=C3OCOC3=C1)[C@H]2C

>  <standard_inchi>  (1057) 
InChI=1S/C20H24O5/c1-4-7-20-9-13(21)18(23-3)17(19(20)22)16(11(20)2)12-5-6-14-15(8-12)25-10-24-14/h4-6,8,11,16-19,22H,1,7,9-10H2,2-3H3/t11-,16+,17-,18-,19?,20-/m1/s1

>  <standard_inchi_key>  (1057) 
ATQYAMMIMBVFCS-RMEFEBDASA-N

>  <name>  (1057) 
nan

>  <iupac_name>  (1057) 
(1~{R},4~{S},5~{S},6~{R},7~{R})-1-allyl-6-(1,3-benzodioxol-5-yl)-8-hydroxy-4-methoxy-7-methyl-bicyclo[3.2.1]octan-3-one

>  <annotation_level>  (1057) 
4

>  <total_atom_count>  (1057) 
49

>  <heavy_atom_count>  (1057) 
25

>  <molecular_weight>  (1057) 
344.41

>  <exact_molecular_weight>  (1057) 
344.16237

>  <molecular_formula>  (1057) 
C20H24O5

>  <alogp>  (1057) 
2.68

>  <topological_polar_surface_area>  (1057) 
64.99

>  <rotatable_bond_count>  (1057) 
4

>  <hydrogen_bond_acceptors>  (1057) 
5

>  <hydrogen_bond_donors>  (1057) 
1

>  <hydrogen_bond_acceptors_lipinski>  (1057) 
5

>  <hydrogen_bond_donors_lipinski>  (1057) 
1

>  <lipinski_rule_of_five_violations>  (1057) 
0

>  <aromatic_rings_count>  (1057) 
1

>  <qed_drug_likeliness>  (1057) 
0.85

>  <formal_charge>  (1057) 
0

>  <fractioncsp3>  (1057) 
0.55

>  <number_of_minimal_rings>  (1057) 
4

>  <van_der_walls_volume>  (1057) 
nan

>  <contains_sugar>  (1057) 
False

>  <contains_ring_sugars>  (1057) 
False

>  <contains_linear_sugars>  (1057) 
False

>  <murcko_framework>  (1057) 
O1c2ccc(cc2OC1)C3CC4CCCC3C4

>  <np_likeness>  (1057) 
1.52

>  <chemical_class>  (1057) 
Benzodioxoles

>  <chemical_sub_class>  (1057) 
Benzodioxoles

>  <chemical_super_class>  (1057) 
Organoheterocyclic compounds

>  <direct_parent_classification>  (1057) 
Benzodioxoles

>  <np_classifier_pathway>  (1057) 
Shikimates and Phenylpropanoids

>  <np_classifier_superclass>  (1057) 
Lignans

>  <np_classifier_class>  (1057) 
Neolignans

>  <np_classifier_is_glycoside>  (1057) 
False

>  <organisms>  (1057) 
Aniba|Aniba sp.

>  <collections>  (1057) 
Latin America dataset|NuBBEDB|WikiData Natural Products

>  <dois>  (1057) 
10.1016/0031-9422(80)83208-0

>  <synonyms>  (1057) 
(7R8R1'R2'R3'S4'S)-(\u221a\u00e9\u201a\u00c4\u00f98')-2'-Hydroxy-4'-methoxy-34-methylenedioxy-1'2'3'4'5'6'-hexahydro-5'-oxoneolignan

>  <cas>  (1057) 
nan

$$$$

     RDKit          2D

 21 21  0  0  0  0  0  0  0  0999 V2000
  -11.0329    0.9392    0.0000 C   0  0  0  0  0  0  0  0  0  0  0  0
   -9.7994    0.0857    0.0000 C   0  0  0  0  0  0  0  0  0  0  0  0
   -8.4435    0.7272    0.0000 C   0  0  0  0  0  0  0  0  0  0  0  0
   -7.2100   -0.1263    0.0000 C   0  0  0  0  0  0  0  0  0  0  0  0
   -5.8541    0.5152    0.0000 C   0  0  0  0  0  0  0  0  0  0  0  0
   -4.6206   -0.3383    0.0000 C   0  0  0  0  0  0  0  0  0  0  0  0
   -4.7430   -1.8333    0.0000 O   0  0  0  0  0  0  0  0  0  0  0  0
   -3.2647    0.3031    0.0000 C   0  0  0  0  0  0  0  0  0  0  0  0
   -2.0312   -0.5504    0.0000 C   0  0  0  0  0  0  0  0  0  0  0  0
   -0.6753    0.0911    0.0000 C   0  0  0  0  0  0  0  0  0  0  0  0
    0.5582   -0.7624    0.0000 C   0  0  0  0  0  0  0  0  0  0  0  0
    1.9141   -0.1209    0.0000 C   0  0  0  0  0  0  0  0  0  0  0  0
    3.1476   -0.9744    0.0000 C   0  0  0  0  0  0  0  0  0  0  0  0
    4.5036   -0.3329    0.0000 C   0  0  0  0  0  0  0  0  0  0  0  0
    4.6260    1.1621    0.0000 C   0  0  0  0  0  0  0  0  0  0  0  0
    5.9819    1.8036    0.0000 C   0  0  0  0  0  0  0  0  0  0  0  0
    7.2154    0.9501    0.0000 C   0  0  0  0  0  0  0  0  0  0  0  0
    8.5713    1.5915    0.0000 O   0  0  0  0  0  0  0  0  0  0  0  0
    7.0930   -0.5449    0.0000 C   0  0  0  0  0  0  0  0  0  0  0  0
    8.3265   -1.3984    0.0000 C   0  0  0  0  0  0  0  0  0  0  0  0
    5.7371   -1.1864    0.0000 N   0  0  0  0  0  0  0  0  0  0  0  0
  1  2  1  0
  2  3  1  0
  3  4  1  0
  4  5  1  0
  5  6  1  0
  6  7  2  0
  6  8  1  0
  8  9  1  0
  9 10  1  0
 10 11  1  0
 11 12  1  0
 12 13  1  0
 13 14  1  0
 14 15  2  0
 15 16  1  0
 16 17  2  0
 17 18  1  0
 17 19  1  0
 19 20  1  0
 19 21  2  0
 21 14  1  0
M  END
>  <identifier>  (1058) 
CNP0102841.0

>  <canonical_smiles>  (1058) 
CCCCCC(=O)CCCCCCC1=CC=C(O)C(C)=N1

>  <standard_inchi>  (1058) 
InChI=1S/C18H29NO2/c1-3-4-7-11-17(20)12-9-6-5-8-10-16-13-14-18(21)15(2)19-16/h13-14,21H,3-12H2,1-2H3

>  <standard_inchi_key>  (1058) 
PNDONWACGNWBOR-UHFFFAOYSA-N

>  <name>  (1058) 
7'-multijuguinone

>  <iupac_name>  (1058) 
12-(5-hydroxy-6-methyl-2-pyridyl)dodecan-6-one

>  <annotation_level>  (1058) 
5

>  <total_atom_count>  (1058) 
50

>  <heavy_atom_count>  (1058) 
21

>  <molecular_weight>  (1058) 
291.44

>  <exact_molecular_weight>  (1058) 
291.21983

>  <molecular_formula>  (1058) 
C18H29NO2

>  <alogp>  (1058) 
4.74

>  <topological_polar_surface_area>  (1058) 
50.19

>  <rotatable_bond_count>  (1058) 
11

>  <hydrogen_bond_acceptors>  (1058) 
3

>  <hydrogen_bond_donors>  (1058) 
1

>  <hydrogen_bond_acceptors_lipinski>  (1058) 
3

>  <hydrogen_bond_donors_lipinski>  (1058) 
1

>  <lipinski_rule_of_five_violations>  (1058) 
0

>  <aromatic_rings_count>  (1058) 
1

>  <qed_drug_likeliness>  (1058) 
0.60

>  <formal_charge>  (1058) 
0

>  <fractioncsp3>  (1058) 
0.67

>  <number_of_minimal_rings>  (1058) 
1

>  <van_der_walls_volume>  (1058) 
306.76

>  <contains_sugar>  (1058) 
False

>  <contains_ring_sugars>  (1058) 
False

>  <contains_linear_sugars>  (1058) 
False

>  <murcko_framework>  (1058) 
n1ccccc1

>  <np_likeness>  (1058) 
0.75

>  <chemical_class>  (1058) 
Pyridines and derivatives

>  <chemical_sub_class>  (1058) 
Halopyridines

>  <chemical_super_class>  (1058) 
Organoheterocyclic compounds

>  <direct_parent_classification>  (1058) 
Polyhalopyridines

>  <np_classifier_pathway>  (1058) 
Alkaloids

>  <np_classifier_superclass>  (1058) 
Nicotinic acid alkaloids

>  <np_classifier_class>  (1058) 
Pyridine alkaloids

>  <np_classifier_is_glycoside>  (1058) 
False

>  <organisms>  (1058) 
Senna multijuga

>  <collections>  (1058) 
ChemSpider NPs|Latin America dataset|NPASS|NuBBEDB|Super Natural II|UNPD (Universal Natural Products Database)|WikiData Natural Products|ZINC NP

>  <dois>  (1058) 
10.1021/NP900644X|10.1021/np900644x

>  <synonyms>  (1058) 
7'-multijuguinone|CHEMBL1087642

>  <cas>  (1058) 
nan

$$$$

     RDKit          2D

 30 32  0  0  0  0  0  0  0  0999 V2000
    8.0124    0.9164    0.0000 C   0  0  0  0  0  0  0  0  0  0  0  0
    6.5510    1.2546    0.0000 C   0  0  0  0  0  0  0  0  0  0  0  0
    5.5274    0.1582    0.0000 C   0  0  0  0  0  0  0  0  0  0  0  0
    4.0661    0.4964    0.0000 C   0  0  0  0  0  0  0  0  0  0  0  0
    4.6529    1.8768    0.0000 O   0  0  0  0  0  0  0  0  0  0  0  0
    6.1419    2.0588    0.0000 C   0  0  0  0  0  0  0  0  0  0  0  0
    2.8085    1.3141    0.0000 C   0  0  0  0  0  0  0  0  0  0  0  0
    1.4716    0.6338    0.0000 C   0  0  0  0  0  0  0  0  0  0  0  0
    1.3923   -0.8641    0.0000 C   0  0  0  0  0  0  0  0  0  0  0  0
    2.6498   -1.6817    0.0000 C   0  0  0  0  0  0  0  0  0  0  0  0
    2.5705   -3.1796    0.0000 O   0  0  0  0  0  0  0  0  0  0  0  0
    3.8281   -3.9973    0.0000 C   0  0  0  0  0  0  0  0  0  0  0  0
    3.9867   -1.0015    0.0000 C   0  0  0  0  0  0  0  0  0  0  0  0
    5.2443   -1.8191    0.0000 O   0  0  0  0  0  0  0  0  0  0  0  0
   -0.0568   -1.2515    0.0000 O   0  0  0  0  0  0  0  0  0  0  0  0
   -0.8731    0.0070    0.0000 C   0  0  0  0  0  0  0  0  0  0  0  0
   -2.3710    0.0863    0.0000 C   0  0  0  0  0  0  0  0  0  0  0  0
   -3.0512    1.4232    0.0000 C   0  0  0  0  0  0  0  0  0  0  0  0
   -4.5491    1.5025    0.0000 C   0  0  0  0  0  0  0  0  0  0  0  0
   -5.2294    2.8394    0.0000 O   0  0  0  0  0  0  0  0  0  0  0  0
   -4.4117    4.0970    0.0000 C   0  0  0  0  0  0  0  0  0  0  0  0
   -5.3668    0.2450    0.0000 C   0  0  0  0  0  0  0  0  0  0  0  0
   -6.8647    0.3243    0.0000 O   0  0  0  0  0  0  0  0  0  0  0  0
   -7.6823   -0.9333    0.0000 C   0  0  0  0  0  0  0  0  0  0  0  0
   -4.6865   -1.0919    0.0000 C   0  0  0  0  0  0  0  0  0  0  0  0
   -5.5042   -2.3495    0.0000 O   0  0  0  0  0  0  0  0  0  0  0  0
   -4.8239   -3.6864    0.0000 C   0  0  0  0  0  0  0  0  0  0  0  0
   -3.1886   -1.1713    0.0000 C   0  0  0  0  0  0  0  0  0  0  0  0
    0.0716    1.1722    0.0000 C   0  0  0  0  0  0  0  0  0  0  0  0
   -0.3159    2.6213    0.0000 C   0  0  0  0  0  0  0  0  0  0  0  0
  1  2  2  0
  2  3  1  0
  4  3  1  6
  4  5  1  0
  5  6  1  0
  4  7  1  0
  7  8  2  0
  8  9  1  0
  9 10  2  0
 10 11  1  0
 11 12  1  0
 10 13  1  0
 13 14  2  0
  9 15  1  0
 15 16  1  0
 16 17  1  6
 17 18  2  0
 18 19  1  0
 19 20  1  0
 20 21  1  0
 19 22  2  0
 22 23  1  0
 23 24  1  0
 22 25  1  0
 25 26  1  0
 26 27  1  0
 25 28  2  0
 16 29  1  0
 29 30  1  1
 13  4  1  0
 28 17  1  0
 29  8  1  0
M  END
>  <identifier>  (1059) 
CNP0080458.1

>  <canonical_smiles>  (1059) 
C=CC[C@@]1(OC)C=C2C(=C(OC)C1=O)O[C@H](C1=CC(OC)=C(OC)C(OC)=C1)[C@H]2C

>  <standard_inchi>  (1059) 
InChI=1S/C23H28O7/c1-8-9-23(29-7)12-15-13(2)18(30-19(15)21(28-6)22(23)24)14-10-16(25-3)20(27-5)17(11-14)26-4/h8,10-13,18H,1,9H2,2-7H3/t13-,18-,23+/m0/s1

>  <standard_inchi_key>  (1059) 
LSGHMLLFSPCSIR-PUMRXTBWSA-N

>  <name>  (1059) 
nan

>  <iupac_name>  (1059) 
(2~{S},3~{S},5~{R})-5-allyl-5,7-dimethoxy-3-methyl-2-(3,4,5-trimethoxyphenyl)-2,3-dihydrobenzofuran-6-one

>  <annotation_level>  (1059) 
4

>  <total_atom_count>  (1059) 
58

>  <heavy_atom_count>  (1059) 
30

>  <molecular_weight>  (1059) 
416.47

>  <exact_molecular_weight>  (1059) 
416.1835

>  <molecular_formula>  (1059) 
C23H28O7

>  <alogp>  (1059) 
3.75

>  <topological_polar_surface_area>  (1059) 
72.45

>  <rotatable_bond_count>  (1059) 
8

>  <hydrogen_bond_acceptors>  (1059) 
7

>  <hydrogen_bond_donors>  (1059) 
0

>  <hydrogen_bond_acceptors_lipinski>  (1059) 
7

>  <hydrogen_bond_donors_lipinski>  (1059) 
0

>  <lipinski_rule_of_five_violations>  (1059) 
0

>  <aromatic_rings_count>  (1059) 
1

>  <qed_drug_likeliness>  (1059) 
0.60

>  <formal_charge>  (1059) 
0

>  <fractioncsp3>  (1059) 
0.44

>  <number_of_minimal_rings>  (1059) 
3

>  <van_der_walls_volume>  (1059) 
nan

>  <contains_sugar>  (1059) 
False

>  <contains_ring_sugars>  (1059) 
False

>  <contains_linear_sugars>  (1059) 
False

>  <murcko_framework>  (1059) 
O1C2=CCCC=C2CC1c3ccccc3

>  <np_likeness>  (1059) 
1.72

>  <chemical_class>  (1059) 
Phenol ethers

>  <chemical_sub_class>  (1059) 
Anisoles

>  <chemical_super_class>  (1059) 
Benzenoids

>  <direct_parent_classification>  (1059) 
Anisoles

>  <np_classifier_pathway>  (1059) 
Shikimates and Phenylpropanoids

>  <np_classifier_superclass>  (1059) 
Lignans

>  <np_classifier_class>  (1059) 
Neolignans

>  <np_classifier_is_glycoside>  (1059) 
False

>  <organisms>  (1059) 
Aniba simulans|Aniba taubertiana

>  <collections>  (1059) 
Latin America dataset|NuBBEDB|WikiData Natural Products|ZINC NP

>  <dois>  (1059) 
10.1016/S0031-9422(00)89244-4

>  <synonyms>  (1059) 
(2S3S5R)-5-Allyl-57-dimethoxy-2-(3'4'5'-trimethoxyphenyl-3-methy-2356-tetrahydro-6-oxobenzofuran

>  <cas>  (1059) 
nan

$$$$

     RDKit          2D

 24 26  0  0  0  0  0  0  0  0999 V2000
   -5.5676    1.4836    0.0000 C   0  0  0  0  0  0  0  0  0  0  0  0
   -5.3572   -0.0015    0.0000 O   0  0  0  0  0  0  0  0  0  0  0  0
   -3.9658   -0.5619    0.0000 C   0  0  0  0  0  0  0  0  0  0  0  0
   -2.7848    0.3629    0.0000 C   0  0  0  0  0  0  0  0  0  0  0  0
   -1.3934   -0.1974    0.0000 C   0  0  0  0  0  0  0  0  0  0  0  0
   -0.2124    0.7274    0.0000 C   0  0  0  0  0  0  0  0  0  0  0  0
    1.1790    0.1670    0.0000 C   0  0  0  0  0  0  0  0  0  0  0  0
    1.3894   -1.3181    0.0000 C   0  0  0  0  0  0  0  0  0  0  0  0
    2.7808   -1.8785    0.0000 C   0  0  0  0  0  0  0  0  0  0  0  0
    2.9913   -3.3636    0.0000 O   0  0  0  0  0  0  0  0  0  0  0  0
    3.9618   -0.9536    0.0000 C   0  0  0  0  0  0  0  0  0  0  0  0
    5.3532   -1.5140    0.0000 O   0  0  0  0  0  0  0  0  0  0  0  0
    6.5342   -0.5892    0.0000 C   0  0  0  0  0  0  0  0  0  0  0  0
    3.7514    0.5315    0.0000 C   0  0  0  0  0  0  0  0  0  0  0  0
    2.3600    1.0919    0.0000 C   0  0  0  0  0  0  0  0  0  0  0  0
    2.1496    2.5770    0.0000 C   0  0  0  0  0  0  0  0  0  0  0  0
    0.7582    3.1374    0.0000 C   0  0  0  0  0  0  0  0  0  0  0  0
    0.5477    4.6225    0.0000 C   0  0  0  0  0  0  0  0  0  0  0  0
   -0.4228    2.2126    0.0000 C   0  0  0  0  0  0  0  0  0  0  0  0
   -1.8142    2.7729    0.0000 C   0  0  0  0  0  0  0  0  0  0  0  0
   -1.1829   -1.6826    0.0000 C   0  0  0  0  0  0  0  0  0  0  0  0
   -2.3639   -2.6074    0.0000 C   0  0  0  0  0  0  0  0  0  0  0  0
   -3.7553   -2.0471    0.0000 C   0  0  0  0  0  0  0  0  0  0  0  0
   -4.9363   -2.9719    0.0000 O   0  0  0  0  0  0  0  0  0  0  0  0
  1  2  1  0
  2  3  1  0
  3  4  2  0
  4  5  1  0
  6  5  1  6
  6  7  1  0
  7  8  2  0
  8  9  1  0
  9 10  1  0
  9 11  2  0
 11 12  1  0
 12 13  1  0
 11 14  1  0
 14 15  2  0
 15 16  1  0
 16 17  1  0
 17 18  1  6
 17 19  1  0
 19 20  1  1
  5 21  2  0
 21 22  1  0
 22 23  2  0
 23 24  1  0
 23  3  1  0
 19  6  1  0
 15  7  1  0
M  END
>  <identifier>  (1060) 
CNP0251505.1

>  <canonical_smiles>  (1060) 
COC1=CC([C@H]2C3=CC(O)=C(OC)C=C3C[C@@H](C)[C@@H]2C)=CC=C1O

>  <standard_inchi>  (1060) 
InChI=1S/C20H24O4/c1-11-7-14-9-19(24-4)17(22)10-15(14)20(12(11)2)13-5-6-16(21)18(8-13)23-3/h5-6,8-12,20-22H,7H2,1-4H3/t11-,12+,20+/m1/s1

>  <standard_inchi_key>  (1060) 
TZAAYUCUPIYQBR-JGRMJRGVSA-N

>  <name>  (1060) 
Guaiacin

>  <iupac_name>  (1060) 
(2~{R},3~{S},4~{S})-4-(4-hydroxy-3-methoxy-phenyl)-7-methoxy-2,3-dimethyl-tetralin-6-ol

>  <annotation_level>  (1060) 
5

>  <total_atom_count>  (1060) 
48

>  <heavy_atom_count>  (1060) 
24

>  <molecular_weight>  (1060) 
328.41

>  <exact_molecular_weight>  (1060) 
328.16746

>  <molecular_formula>  (1060) 
C20H24O4

>  <alogp>  (1060) 
4.08

>  <topological_polar_surface_area>  (1060) 
58.92

>  <rotatable_bond_count>  (1060) 
3

>  <hydrogen_bond_acceptors>  (1060) 
4

>  <hydrogen_bond_donors>  (1060) 
2

>  <hydrogen_bond_acceptors_lipinski>  (1060) 
4

>  <hydrogen_bond_donors_lipinski>  (1060) 
2

>  <lipinski_rule_of_five_violations>  (1060) 
0

>  <aromatic_rings_count>  (1060) 
2

>  <qed_drug_likeliness>  (1060) 
0.89

>  <formal_charge>  (1060) 
0

>  <fractioncsp3>  (1060) 
0.40

>  <number_of_minimal_rings>  (1060) 
3

>  <van_der_walls_volume>  (1060) 
308.86

>  <contains_sugar>  (1060) 
False

>  <contains_ring_sugars>  (1060) 
False

>  <contains_linear_sugars>  (1060) 
False

>  <murcko_framework>  (1060) 
c1ccc(cc1)C2c3ccccc3CCC2

>  <np_likeness>  (1060) 
1.60

>  <chemical_class>  (1060) 
Aryltetralin lignans

>  <chemical_sub_class>  (1060) 
Aryltetralin lignans

>  <chemical_super_class>  (1060) 
Lignans, neolignans and related compounds

>  <direct_parent_classification>  (1060) 
Aryltetralin lignans

>  <np_classifier_pathway>  (1060) 
Shikimates and Phenylpropanoids

>  <np_classifier_superclass>  (1060) 
Lignans

>  <np_classifier_class>  (1060) 
Arylnaphthalene and aryltetralin lignans

>  <np_classifier_is_glycoside>  (1060) 
False

>  <organisms>  (1060) 
Andinobates fulguritus|Boenninghausenia japonica|Catalpa bignonioides|Cephalonoplos segetum|Chaenorhinum origanifolium|Cinnamomum philippinense|Comaster multifida|Esenbeckia nesiotica|Helipterum tenellum|Hyptis tomentosa|Ipomoea cristulata|Iryanthera juruensis|Lachnoanaerobaculum saburreum|Lens phaseoloides|Lophozonia menziesii|Machilus edulis|Machilus robusta|Machilus thunbergii|Machilus wangchiana|Magnolia kachirachirai|Murraya koenigii|Myristica fragrans|Pancratium trianthum|Piper murrayanum|Piper pedicellosum|Rhodotypos scandens|Saururus cernuus|Spatangus purpureus|Suillus luteus|Virola carinata|Virola surinamensis|Xanthostemon oppositifolius

>  <collections>  (1060) 
CMAUP (cCollective molecular activities of useful plants)|ChEBI NPs|ChemSpider NPs|KNApSaCK|Latin America dataset|NPASS|NuBBEDB|Super Natural II|WikiData Natural Products|ZINC NP

>  <dois>  (1060) 
10.1016/0031-9422(72)80053-0|10.1016/S0031-9422(00)00477-5|10.1016/S0031-9422(00)84117-5|10.1016/S0031-9422(00)89818-0|10.1016/S0031-9422(00)94440-6|10.1016/S0031-9422(98)00709-2|10.1021/JF063451X|10.1021/NP2001896|10.1021/NP50022A005|10.1021/NP900504A|10.1080/10826079708000478|10.1248/CPB.34.3885|10.5012/BKCS.2011.32.11.4059

>  <synonyms>  (1060) 
(+)-guaiacin|(6R,7S,8S)-5,6,7,8-Tetrahydro-8-(4-hydroxy-3-methoxyphenyl)-3-methoxy-6,7-dimethyl-2-naphthalenol|(6R,7S,8S)-8-(4-hydroxy-3-methoxyphenyl)-3-methoxy-6,7-dimethyl-5,6,7,8-tetrahydronaphthalen-2-ol|2-Naphthalenol, 5,6,7,8-tetrahydro-8-(4-hydroxy-3-methoxyphenyl)-3-methoxy-6,7-dimethyl-, (6R,7S,8S)-|36531-08-5|88547-66-4|A929375|AKOS037515111|CHEBI:68173|CHEMBL1080351|CS-0019570|DTXSID201319141|Guaiacin-|HY-N2247|MS-24926|O8S88V2539|Q27136665|SCHEMBL25046257|UNII-O8S88V2539|s9491

>  <cas>  (1060) 
36531-08-5|88547-66-4

$$$$

     RDKit          2D

 23 25  0  0  0  0  0  0  0  0999 V2000
    5.4168    3.3856    0.0000 C   0  0  0  0  0  0  0  0  0  0  0  0
    4.0948    2.6768    0.0000 O   0  0  0  0  0  0  0  0  0  0  0  0
    4.0476    1.1776    0.0000 C   0  0  0  0  0  0  0  0  0  0  0  0
    5.3224    0.3871    0.0000 C   0  0  0  0  0  0  0  0  0  0  0  0
    5.2752   -1.1122    0.0000 C   0  0  0  0  0  0  0  0  0  0  0  0
    6.5500   -1.9027    0.0000 O   0  0  0  0  0  0  0  0  0  0  0  0
    3.9532   -1.8209    0.0000 C   0  0  0  0  0  0  0  0  0  0  0  0
    3.9060   -3.3202    0.0000 C   0  0  0  0  0  0  0  0  0  0  0  0
    2.6784   -1.0304    0.0000 C   0  0  0  0  0  0  0  0  0  0  0  0
    2.7256    0.4688    0.0000 C   0  0  0  0  0  0  0  0  0  0  0  0
    1.4508    1.2593    0.0000 C   0  0  0  0  0  0  0  0  0  0  0  0
    0.1288    0.5506    0.0000 C   0  0  0  0  0  0  0  0  0  0  0  0
   -1.1460    1.3411    0.0000 C   0  0  0  0  0  0  0  0  0  0  0  0
   -2.4680    0.6323    0.0000 C   0  0  0  0  0  0  0  0  0  0  0  0
   -3.7427    1.4228    0.0000 C   0  0  0  0  0  0  0  0  0  0  0  0
   -5.0647    0.7141    0.0000 C   0  0  0  0  0  0  0  0  0  0  0  0
   -5.1119   -0.7852    0.0000 C   0  0  0  0  0  0  0  0  0  0  0  0
   -3.8371   -1.5757    0.0000 C   0  0  0  0  0  0  0  0  0  0  0  0
   -2.5151   -0.8669    0.0000 C   0  0  0  0  0  0  0  0  0  0  0  0
   -1.2404   -1.6574    0.0000 O   0  0  0  0  0  0  0  0  0  0  0  0
   -6.5524   -1.2036    0.0000 O   0  0  0  0  0  0  0  0  0  0  0  0
   -7.3955    0.0371    0.0000 C   0  0  0  0  0  0  0  0  0  0  0  0
   -6.4760    1.2222    0.0000 O   0  0  0  0  0  0  0  0  0  0  0  0
  1  2  1  0
  2  3  1  0
  3  4  2  0
  4  5  1  0
  5  6  1  0
  5  7  2  0
  7  8  1  0
  7  9  1  0
  9 10  2  0
 10 11  1  0
 11 12  1  0
 12 13  1  0
 13 14  1  0
 14 15  2  0
 15 16  1  0
 16 17  2  0
 17 18  1  0
 18 19  2  0
 19 20  1  0
 17 21  1  0
 21 22  1  0
 22 23  1  0
 10  3  1  0
 19 14  1  0
 23 16  1  0
M  END
>  <identifier>  (1061) 
CNP0109792.0

>  <canonical_smiles>  (1061) 
COC1=CC(O)=C(C)C=C1CCCC1=CC2=C(C=C1O)OCO2

>  <standard_inchi>  (1061) 
InChI=1S/C18H20O5/c1-11-6-13(16(21-2)8-14(11)19)5-3-4-12-7-17-18(9-15(12)20)23-10-22-17/h6-9,19-20H,3-5,10H2,1-2H3

>  <standard_inchi_key>  (1061) 
DBMRXJCQGMLFET-UHFFFAOYSA-N

>  <name>  (1061) 
6-[3-(4-hydroxy-2-methoxy-5-methylphenyl)propyl]-2H-1,3-benzodioxol-5-ol

>  <iupac_name>  (1061) 
6-[3-(4-hydroxy-2-methoxy-5-methyl-phenyl)propyl]-1,3-benzodioxol-5-ol

>  <annotation_level>  (1061) 
5

>  <total_atom_count>  (1061) 
43

>  <heavy_atom_count>  (1061) 
23

>  <molecular_weight>  (1061) 
316.35

>  <exact_molecular_weight>  (1061) 
316.13107

>  <molecular_formula>  (1061) 
C18H20O5

>  <alogp>  (1061) 
3.32

>  <topological_polar_surface_area>  (1061) 
68.15

>  <rotatable_bond_count>  (1061) 
5

>  <hydrogen_bond_acceptors>  (1061) 
5

>  <hydrogen_bond_donors>  (1061) 
2

>  <hydrogen_bond_acceptors_lipinski>  (1061) 
5

>  <hydrogen_bond_donors_lipinski>  (1061) 
2

>  <lipinski_rule_of_five_violations>  (1061) 
0

>  <aromatic_rings_count>  (1061) 
2

>  <qed_drug_likeliness>  (1061) 
0.89

>  <formal_charge>  (1061) 
0

>  <fractioncsp3>  (1061) 
0.33

>  <number_of_minimal_rings>  (1061) 
3

>  <van_der_walls_volume>  (1061) 
nan

>  <contains_sugar>  (1061) 
False

>  <contains_ring_sugars>  (1061) 
False

>  <contains_linear_sugars>  (1061) 
False

>  <murcko_framework>  (1061) 
O1c2ccc(cc2OC1)CCCc3ccccc3

>  <np_likeness>  (1061) 
0.79

>  <chemical_class>  (1061) 
Phenols

>  <chemical_sub_class>  (1061) 
Methoxyphenols

>  <chemical_super_class>  (1061) 
Benzenoids

>  <direct_parent_classification>  (1061) 
Methoxyphenols

>  <np_classifier_pathway>  (1061) 
Polyketides

>  <np_classifier_superclass>  (1061) 
Aromatic polyketides

>  <np_classifier_class>  (1061) 
Catechols with side chains

>  <np_classifier_is_glycoside>  (1061) 
False

>  <organisms>  (1061) 
Iryanthera hostmannii|Iryanthera laevis|Iryanthera ulei

>  <collections>  (1061) 
Latin America dataset|NuBBEDB|UNPD (Universal Natural Products Database)|WikiData Natural Products|ZINC NP

>  <dois>  (1061) 
10.1016/0031-9422(80)83082-2|10.1016/0031-9422(90)85388-V

>  <synonyms>  (1061) 
1-(2'-Hydroxy-4'-methoxy-5'-methylphenyl)-3-(2''-hydroxy-4''5''-methylenedioxyphenyl)-propane|SCHEMBL14284016

>  <cas>  (1061) 
nan

$$$$

     RDKit          2D

 33 37  0  0  0  0  0  0  0  0999 V2000
   -4.9247   -3.3018    0.0000 C   0  0  0  0  0  0  0  0  0  0  0  0
   -5.1536   -1.8194    0.0000 C   0  0  0  0  0  0  0  0  0  0  0  0
   -6.5738   -2.3023    0.0000 C   0  0  0  0  0  0  0  0  0  0  0  0
   -5.8757   -0.5047    0.0000 C   0  0  0  0  0  0  0  0  0  0  0  0
   -5.0982    0.7781    0.0000 C   0  0  0  0  0  0  0  0  0  0  0  0
   -3.5985    0.7461    0.0000 C   0  0  0  0  0  0  0  0  0  0  0  0
   -4.3207    2.0608    0.0000 C   0  0  0  0  0  0  0  0  0  0  0  0
   -5.8203    2.0928    0.0000 O   0  0  0  0  0  0  0  0  0  0  0  0
   -3.5432    3.3436    0.0000 O   0  0  0  0  0  0  0  0  0  0  0  0
   -2.8210    2.0288    0.0000 C   0  0  0  0  0  0  0  0  0  0  0  0
   -1.3214    1.9969    0.0000 C   0  0  0  0  0  0  0  0  0  0  0  0
   -0.5992    0.6821    0.0000 C   0  0  0  0  0  0  0  0  0  0  0  0
    0.1229   -0.6326    0.0000 C   0  0  0  0  0  0  0  0  0  0  0  0
   -1.3768   -0.6006    0.0000 C   0  0  0  0  0  0  0  0  0  0  0  0
   -0.6546   -1.9154    0.0000 C   0  0  0  0  0  0  0  0  0  0  0  0
    0.8450   -1.9473    0.0000 C   0  0  0  0  0  0  0  0  0  0  0  0
    1.6226   -0.6646    0.0000 C   0  0  0  0  0  0  0  0  0  0  0  0
    3.1222   -0.6966    0.0000 C   0  0  0  0  0  0  0  0  0  0  0  0
    2.3447   -1.9793    0.0000 C   0  0  0  0  0  0  0  0  0  0  0  0
    3.8444   -2.0113    0.0000 C   0  0  0  0  0  0  0  0  0  0  0  0
    5.3440   -2.0433    0.0000 C   0  0  0  0  0  0  0  0  0  0  0  0
    6.1215   -0.7605    0.0000 C   0  0  0  0  0  0  0  0  0  0  0  0
    7.6212   -0.7925    0.0000 O   0  0  0  0  0  0  0  0  0  0  0  0
    5.3994    0.5542    0.0000 C   0  0  0  0  0  0  0  0  0  0  0  0
    5.1705    2.0366    0.0000 C   0  0  0  0  0  0  0  0  0  0  0  0
    6.8196    1.0371    0.0000 C   0  0  0  0  0  0  0  0  0  0  0  0
    3.8997    0.5862    0.0000 C   0  0  0  0  0  0  0  0  0  0  0  0
    3.1776    1.9009    0.0000 C   0  0  0  0  0  0  0  0  0  0  0  0
    1.6780    1.9329    0.0000 C   0  0  0  0  0  0  0  0  0  0  0  0
    0.9004    0.6502    0.0000 C   0  0  0  0  0  0  0  0  0  0  0  0
    0.1783    1.9649    0.0000 C   0  0  0  0  0  0  0  0  0  0  0  0
   -2.8764   -0.5686    0.0000 C   0  0  0  0  0  0  0  0  0  0  0  0
   -3.6539   -1.8514    0.0000 C   0  0  0  0  0  0  0  0  0  0  0  0
  1  2  1  0
  2  3  1  0
  2  4  1  0
  4  5  1  0
  5  6  1  0
  6  7  1  1
  7  8  2  0
  7  9  1  0
  6 10  1  0
 10 11  1  0
 11 12  1  0
 12 13  1  6
 12 14  1  0
 14 15  2  0
 15 16  1  0
 17 16  1  1
 17 18  1  0
 18 19  1  1
 18 20  1  0
 20 21  1  0
 21 22  1  0
 22 23  2  0
 22 24  1  0
 24 25  1  0
 24 26  1  0
 24 27  1  0
 27 28  1  1
 28 29  1  0
 29 30  1  0
 30 31  1  1
 14 32  1  0
 32 33  1  6
 33  2  1  0
 32  6  1  0
 30 12  1  0
 30 17  1  0
 27 18  1  0
M  END
>  <identifier>  (1062) 
CNP0197339.2

>  <canonical_smiles>  (1062) 
CC1(C)CC[C@]2(C(=O)O)CC[C@]3(C)C(=CC[C@@H]4[C@@]5(C)CCC(=O)C(C)(C)[C@@H]5CC[C@]43C)[C@@H]2C1

>  <standard_inchi>  (1062) 
InChI=1S/C30H46O3/c1-25(2)14-16-30(24(32)33)17-15-28(6)19(20(30)18-25)8-9-22-27(5)12-11-23(31)26(3,4)21(27)10-13-29(22,28)7/h8,20-22H,9-18H2,1-7H3,(H,32,33)/t20-,21-,22+,27-,28+,29+,30-/m0/s1

>  <standard_inchi_key>  (1062) 
FMIMFCRXYXVFTA-FUAOEXFOSA-N

>  <name>  (1062) 
oleanonic acid

>  <iupac_name>  (1062) 
(4~{a}~{S},6~{a}~{R},6~{a}~{S},6~{b}~{R},8~{a}~{R},12~{a}~{R},14~{b}~{S})-2,2,6~{a},6~{b},9,9,12~{a}-heptamethyl-10-oxo-3,4,5,6,6~{a},7,8,8~{a},11,12,13,14~{b}-dodecahydro-1~{H}-picene-4~{a}-carboxylic acid

>  <annotation_level>  (1062) 
5

>  <total_atom_count>  (1062) 
79

>  <heavy_atom_count>  (1062) 
33

>  <molecular_weight>  (1062) 
454.7

>  <exact_molecular_weight>  (1062) 
454.3447

>  <molecular_formula>  (1062) 
C30H46O3

>  <alogp>  (1062) 
7.44

>  <topological_polar_surface_area>  (1062) 
54.37

>  <rotatable_bond_count>  (1062) 
1

>  <hydrogen_bond_acceptors>  (1062) 
2

>  <hydrogen_bond_donors>  (1062) 
1

>  <hydrogen_bond_acceptors_lipinski>  (1062) 
2

>  <hydrogen_bond_donors_lipinski>  (1062) 
1

>  <lipinski_rule_of_five_violations>  (1062) 
1

>  <aromatic_rings_count>  (1062) 
0

>  <qed_drug_likeliness>  (1062) 
0.42

>  <formal_charge>  (1062) 
0

>  <fractioncsp3>  (1062) 
0.87

>  <number_of_minimal_rings>  (1062) 
5

>  <van_der_walls_volume>  (1062) 
454.88

>  <contains_sugar>  (1062) 
False

>  <contains_ring_sugars>  (1062) 
False

>  <contains_linear_sugars>  (1062) 
False

>  <murcko_framework>  (1062) 
C1=C2C3CCCCC3CCC2C4CCC5CCCCC5C4C1

>  <np_likeness>  (1062) 
3.31

>  <chemical_class>  (1062) 
Prenol lipids

>  <chemical_sub_class>  (1062) 
Triterpenoids

>  <chemical_super_class>  (1062) 
Lipids and lipid-like molecules

>  <direct_parent_classification>  (1062) 
Oleanane triterpenoids

>  <np_classifier_pathway>  (1062) 
Terpenoids

>  <np_classifier_superclass>  (1062) 
Triterpenoids

>  <np_classifier_class>  (1062) 
Oleanane triterpenoids

>  <np_classifier_is_glycoside>  (1062) 
False

>  <organisms>  (1062) 
Amphipterygium adstringens|Andropogon laniger|Baccharis sarothroides|Balanocarpus zeylanicus|Bidens frondosa|Boronia gracilipes|Brucea javanica|Capparis flavicans|Cedrela fissilis|Cedrela montana|Cedrela odorata|Croton betulaster|Curio talinoides|Cyclolepis genistoides|Daedalea dickinsii|Diospyros dendo|Diphylleia grayi|Ekebergia benguelensis|Ekebergia capensis|Ekebergia pterophylla|Eriocapitella tomentosa|Erythrina crista-galli|Ficus Microcarpa|Ficus microcarpa|Gustavia longifolia|Halictus sexcinctus|Halorosellinia oceanica|Hedyotis lawsoniae|Hedysarum alpinum|Heptapleurum heptaphyllum|Hertia pallens|Hibiscus taiwanensis|Ilex latifolia|Ipomoea hederacea|Ixora coccinea|Junellia seriphioides|Junellia spissa|Junellia tridens|Lantana camara|Lantana montevidensis|Lantana tiliaefolia|Lasioderma serricorne|Liquidambar formosana|Liquidambar orientalis|Ludwigia octovalvis|Malus sieboldii|Maytenus canariensis|Mentha javanica|Micranthes stellaris|Mulguraea tridens|Myrcia guianensis|Myristica dactyloides|Narcissus cantabricus|Narcissus tazetta|Oleum storax|Orontium japonicum|Orthopterygium|Osteospermum ilicifolium|Oxytropis pseudoglandulosa|Patrinia rupestris|Pedicularis plicata|Peltigera venosa|Pistacia terebinthus|Plumeria obtusa|Primnoa resedaeformis|Primula veris|Rabdosia flexicaulis|Resina liquidambaris|Rubia yunnanensis|Salvia caespitosa|Salvia palaefolia|Salvia sclarea|Scaphechinus mirabilis|Schefflera heptaphylla|Schefflera venulosa|Scrophularia ningpoensis|Solanum tuberosum|Sonchus gummifer|Stauntonia hexaphylla|Stephania hispidula|Styrax benzoin|Styrax tonkinensis|Umbilicaria spodochroa|Uncaria macrophylla|Uncaria rhynchophylla|Uncaria sinensis|Vaccaria hispanica|Viburnum erubescens|Vitis vinifera|Ximenia americana|Xylosalsola richteri|Xyris semifuscata|Zanthoxylum zanthoxyloides|Ziziphus jujuba|Ziziphus mauritiana|junellia tridens

>  <collections>  (1062) 
ANPDB|Australian natural products|CMAUP (cCollective molecular activities of useful plants)|FooDB|KNApSaCK|Latin America dataset|NANPDB (Natural Products from Northern African Sources)|NPACT|NPASS|NuBBEDB|Phyto4Health|Super Natural II|TCMDB-Taiwan (Traditional Chinese Medicine database)|TIPdb (database of Taiwan indigenous plants)|VietHerb|WikiData Natural Products|ZINC NP

>  <dois>  (1062) 
10.1002/CBDV.201400065|10.1002/CHIN.200533256|10.1002/JCCS.200200146|10.1002/JCCS.200500117|10.1002/JCCS.200700064|10.1007/S10600-017-2003-6|10.1007/bf01920764|10.1016/0031-9422(73)80709-5|10.1016/0031-9422(88)80681-2|10.1016/0031-9422(89)80314-0|10.1016/0031-9422(90)85280-S|10.1016/0031-9422(91)80097-K|10.1016/0031-9422(91)83669-C|10.1016/0031-9422(92)80365-L|10.1016/0031-9422(92)80458-Q|10.1016/0031-9422(94)00567-D|10.1016/J.BMCL.2010.10.058|10.1016/J.FITOTE.2011.05.003|10.1016/J.JEP.2008.06.025|10.1016/J.PHYTOCHEM.2003.12.012|10.1016/J.PHYTOCHEM.2004.12.026|10.1016/J.PHYTOCHEM.2005.03.023|10.1016/S0014-2999(01)01290-0|10.1016/S0031-9422(00)00131-X|10.1016/S0031-9422(00)83830-3|10.1016/S0031-9422(00)84982-1|10.1016/S0031-9422(00)91382-7|10.1016/S0031-9422(00)95206-3|10.1016/S0031-9422(00)98571-6|10.1016/S0031-9422(96)00709-1|10.1016/S0031-9422(97)00021-6|10.1016/S0031-9422(97)00783-8|10.1016/S0305-1978(02)00145-X|10.1016/S0731-7085(00)00404-0|10.1016/S1875-5364(13)60057-6|10.1016/j.bmcl.2010.10.058|10.1021/NP0002233|10.1021/NP030267M|10.1021/NP0497548|10.1021/NP50054A024|10.1021/NP50063A024|10.1021/NP50066A019|10.1021/NP50074A036|10.1021/NP50124A014|10.1021/np0002233|10.1021/np0780093|10.1055/S-0028-1088323|10.1055/S-0035-1545209|10.1055/S-2003-45155|10.1055/S-2006-957780|10.1055/s-0028-1088323|10.1055/s-0035-1545209|10.1071/CH9832537|10.1076/PHBI.40.8.564.14654|10.1080/10286020.2011.566562|10.1080/10575630108041297|10.1080/10575639708043736|10.1111/J.2042-7158.2010.01151.X|10.1177/1934578x0800300605|10.1248/CPB.26.3075|10.1248/CPB.32.3906|10.1248/CPB.53.56|10.14233/AJCHEM.2014.16935|10.1515/ZNC-2002-7-804|10.3987/COM-99-8762

>  <synonyms>  (1062) 
(4AS,6AS,6BR,8AR,12AR,12BR,14BS)-2,2,6A,6B,9,9,12A-HEPTAMETHYL-10-OXO-3,4,5,6,7,8,8A,11,12,12B,13,14B-DODECAHYDRO-1H-PICENE-4A-CARBOXYLIC ACID|(4aS,6aR,6aS,6bR,8aR,12aR,14bS)-2,2,6a,6b,9,9,12a-heptamethyl-10-oxo-3,4,5,6,6a,7,8,8a,11,12,13,14b-dodecahydro-1H-picene-4a-carboxylic acid|17990-42-0|1ST183267|3-OXOOLEANOLIC ACID|3-Oxo-olean-12-en-28-oic acidOlean-12-en-28-oic acid, 3-oxo-; 3-oxo-olean-12-en-28-oic acid; 3-Oxoolean-12-en-28-oic Acid|3-Oxo-olean-12-en28-saure|3-Oxooleanolicacid|3-oxo-olean-12-en-28-oic acid|3-oxooleanolic acid, Oleanonic acid|AC-33969|AKOS032948921|AS-76428|BDBM50346613|CHEMBL470029|CS-5795|DTXSID90939279|F16163|HY-N1487|MFCD09752411|Olean-12-en-28-oic acid, 3-oxo-|Oleanonic acid|Oleoside 11-methylester|Q-100212|SCHEMBL246220|oleanonicacid|s9505

>  <cas>  (1062) 
17990-42-0

$$$$

     RDKit          2D

 19 20  0  0  0  0  0  0  0  0999 V2000
    3.4256   -3.9909    0.0000 C   0  0  0  0  0  0  0  0  0  0  0  0
    3.2990   -2.4962    0.0000 O   0  0  0  0  0  0  0  0  0  0  0  0
    1.9414   -1.8585    0.0000 C   0  0  0  0  0  0  0  0  0  0  0  0
    0.7102   -2.7154    0.0000 C   0  0  0  0  0  0  0  0  0  0  0  0
   -0.6474   -2.0777    0.0000 C   0  0  0  0  0  0  0  0  0  0  0  0
   -0.7740   -0.5831    0.0000 C   0  0  0  0  0  0  0  0  0  0  0  0
   -2.1317    0.0546    0.0000 C   0  0  0  0  0  0  0  0  0  0  0  0
   -3.3628   -0.8023    0.0000 C   0  0  0  0  0  0  0  0  0  0  0  0
   -4.7205   -0.1646    0.0000 C   0  0  0  0  0  0  0  0  0  0  0  0
   -4.8471    1.3301    0.0000 O   0  0  0  0  0  0  0  0  0  0  0  0
   -5.9516   -1.0215    0.0000 O   0  0  0  0  0  0  0  0  0  0  0  0
    0.4571    0.2739    0.0000 C   0  0  0  0  0  0  0  0  0  0  0  0
    1.8148   -0.3639    0.0000 C   0  0  0  0  0  0  0  0  0  0  0  0
    3.0459    0.4931    0.0000 C   0  0  0  0  0  0  0  0  0  0  0  0
    2.9194    1.9877    0.0000 C   0  0  0  0  0  0  0  0  0  0  0  0
    1.5617    2.6254    0.0000 C   0  0  0  0  0  0  0  0  0  0  0  0
    0.5040    3.6891    0.0000 C   0  0  0  0  0  0  0  0  0  0  0  0
    2.4255    3.8518    0.0000 C   0  0  0  0  0  0  0  0  0  0  0  0
    0.3306    1.7685    0.0000 O   0  0  0  0  0  0  0  0  0  0  0  0
  1  2  1  0
  2  3  1  0
  3  4  2  0
  4  5  1  0
  5  6  2  0
  6  7  1  0
  7  8  1  0
  8  9  1  0
  9 10  2  0
  9 11  1  0
  6 12  1  0
 12 13  2  0
 13 14  1  0
 14 15  2  0
 15 16  1  0
 16 17  1  0
 16 18  1  0
 16 19  1  0
 13  3  1  0
 19 12  1  0
M  END
>  <identifier>  (1063) 
CNP0397584.0

>  <canonical_smiles>  (1063) 
COC1=CC=C(CCC(=O)O)C2=C1C=CC(C)(C)O2

>  <standard_inchi>  (1063) 
InChI=1S/C15H18O4/c1-15(2)9-8-11-12(18-3)6-4-10(14(11)19-15)5-7-13(16)17/h4,6,8-9H,5,7H2,1-3H3,(H,16,17)

>  <standard_inchi_key>  (1063) 
GAOYLDLXEGGPHT-UHFFFAOYSA-N

>  <name>  (1063) 
nan

>  <iupac_name>  (1063) 
3-(5-methoxy-2,2-dimethyl-chromen-8-yl)propanoic acid

>  <annotation_level>  (1063) 
4

>  <total_atom_count>  (1063) 
37

>  <heavy_atom_count>  (1063) 
19

>  <molecular_weight>  (1063) 
262.31

>  <exact_molecular_weight>  (1063) 
262.12051

>  <molecular_formula>  (1063) 
C15H18O4

>  <alogp>  (1063) 
2.90

>  <topological_polar_surface_area>  (1063) 
55.76

>  <rotatable_bond_count>  (1063) 
4

>  <hydrogen_bond_acceptors>  (1063) 
3

>  <hydrogen_bond_donors>  (1063) 
1

>  <hydrogen_bond_acceptors_lipinski>  (1063) 
3

>  <hydrogen_bond_donors_lipinski>  (1063) 
1

>  <lipinski_rule_of_five_violations>  (1063) 
0

>  <aromatic_rings_count>  (1063) 
1

>  <qed_drug_likeliness>  (1063) 
0.91

>  <formal_charge>  (1063) 
0

>  <fractioncsp3>  (1063) 
0.40

>  <number_of_minimal_rings>  (1063) 
2

>  <van_der_walls_volume>  (1063) 
nan

>  <contains_sugar>  (1063) 
False

>  <contains_ring_sugars>  (1063) 
False

>  <contains_linear_sugars>  (1063) 
False

>  <murcko_framework>  (1063) 
O1c2ccccc2C=CC1

>  <np_likeness>  (1063) 
1.97

>  <chemical_class>  (1063) 
Benzopyrans

>  <chemical_sub_class>  (1063) 
1-benzopyrans

>  <chemical_super_class>  (1063) 
Organoheterocyclic compounds

>  <direct_parent_classification>  (1063) 
2,2-dimethyl-1-benzopyrans

>  <np_classifier_pathway>  (1063) 
Terpenoids

>  <np_classifier_superclass>  (1063) 
Meroterpenoids

>  <np_classifier_class>  (1063) 
Merohemiterpenoids

>  <np_classifier_is_glycoside>  (1063) 
False

>  <organisms>  (1063) 
Hortia brasiliana

>  <collections>  (1063) 
Latin America dataset|NuBBEDB|WikiData Natural Products|ZINC NP

>  <dois>  (1063) 
10.1016/J.BSE.2012.03.005|10.1016/j.bse.2012.03.005

>  <synonyms>  (1063) 
5-methoxy-22-dimethyl-2H-1-benzopyran-8-propanoic acid

>  <cas>  (1063) 
nan

$$$$

     RDKit          2D

 10 10  0  0  0  0  0  0  0  0999 V2000
    3.0000    1.2990    0.0000 O   0  0  0  0  0  0  0  0  0  0  0  0
    2.2500    0.0000    0.0000 C   0  0  0  0  0  0  0  0  0  0  0  0
    3.0000   -1.2990    0.0000 O   0  0  0  0  0  0  0  0  0  0  0  0
    0.7500   -0.0000    0.0000 C   0  0  0  0  0  0  0  0  0  0  0  0
   -0.0000   -1.2990    0.0000 C   0  0  0  0  0  0  0  0  0  0  0  0
   -1.5000   -1.2990    0.0000 C   0  0  0  0  0  0  0  0  0  0  0  0
   -2.2500    0.0000    0.0000 C   0  0  0  0  0  0  0  0  0  0  0  0
   -3.7500    0.0000    0.0000 O   0  0  0  0  0  0  0  0  0  0  0  0
   -1.5000    1.2990    0.0000 C   0  0  0  0  0  0  0  0  0  0  0  0
    0.0000    1.2990    0.0000 C   0  0  0  0  0  0  0  0  0  0  0  0
  1  2  2  0
  2  3  1  0
  2  4  1  0
  4  5  2  0
  5  6  1  0
  6  7  2  0
  7  8  1  0
  7  9  1  0
  9 10  2  0
 10  4  1  0
M  END
>  <identifier>  (1064) 
CNP0253685.0

>  <canonical_smiles>  (1064) 
O=C(O)C1=CC=C(O)C=C1

>  <standard_inchi>  (1064) 
InChI=1S/C7H6O3/c8-6-3-1-5(2-4-6)7(9)10/h1-4,8H,(H,9,10)

>  <standard_inchi_key>  (1064) 
FJKROLUGYXJWQN-UHFFFAOYSA-N

>  <name>  (1064) 
4-HYDROXYBENZOIC ACID

>  <iupac_name>  (1064) 
4-hydroxybenzoic acid

>  <annotation_level>  (1064) 
5

>  <total_atom_count>  (1064) 
16

>  <heavy_atom_count>  (1064) 
10

>  <molecular_weight>  (1064) 
138.12

>  <exact_molecular_weight>  (1064) 
138.03169

>  <molecular_formula>  (1064) 
C7H6O3

>  <alogp>  (1064) 
1.09

>  <topological_polar_surface_area>  (1064) 
57.53

>  <rotatable_bond_count>  (1064) 
1

>  <hydrogen_bond_acceptors>  (1064) 
2

>  <hydrogen_bond_donors>  (1064) 
2

>  <hydrogen_bond_acceptors_lipinski>  (1064) 
2

>  <hydrogen_bond_donors_lipinski>  (1064) 
2

>  <lipinski_rule_of_five_violations>  (1064) 
0

>  <aromatic_rings_count>  (1064) 
1

>  <qed_drug_likeliness>  (1064) 
0.61

>  <formal_charge>  (1064) 
0

>  <fractioncsp3>  (1064) 
0.00

>  <number_of_minimal_rings>  (1064) 
1

>  <van_der_walls_volume>  (1064) 
120.52

>  <contains_sugar>  (1064) 
False

>  <contains_ring_sugars>  (1064) 
False

>  <contains_linear_sugars>  (1064) 
False

>  <murcko_framework>  (1064) 
c1ccccc1

>  <np_likeness>  (1064) 
0.38

>  <chemical_class>  (1064) 
Benzene and substituted derivatives

>  <chemical_sub_class>  (1064) 
Benzoic acids and derivatives

>  <chemical_super_class>  (1064) 
Benzenoids

>  <direct_parent_classification>  (1064) 
Hydroxybenzoic acid derivatives

>  <np_classifier_pathway>  (1064) 
Shikimates and Phenylpropanoids

>  <np_classifier_superclass>  (1064) 
Phenolic acids (C6-C1)

>  <np_classifier_class>  (1064) 
Simple phenolic acids

>  <np_classifier_is_glycoside>  (1064) 
False

>  <organisms>  (1064) 
Abeliophyllum distichum|Abies nobilis|Abutilon indicum|Acacia adunca|Acacia lasiopetala|Acacia sp.|Acer caudatifolium|Achillea biebersteinii|Achlys triphylla|Acinetobacter baumannii|Acinetobacter calcoaceticus|Aconitum heterophyllum|Aconitum japonicum|Acrisione denticulata|Acrocomia sclerocarpa|Actinidia arguta|Actinidia chinensis|Actinidia polygama|Adansonia digitata|Adenostoma fasciculatum|Adenostoma sparsifolium|Adesmia boronioides|Adiantum lunulatum|Aeschynanthus bracteatus|Aesculus hippocastanum|Agarum cribrosum|Agathis lanceolata|Aglaia elliptica|Aguacate|Ailanthus altissima|Ajuga australis|Akebia quinata|Alangium platanifolium|Albertisia papuana|Albizia procera|Alcea rosea|Alchornea cordifolia|Alectoria ochroleuca|Alexandrium excavatum|Alkanna cappadocica|Alkanna hirsutissima|Allium cepa|Allium chinense|Allium fistulosum|Allium sativum|Allium stipitatum|Aloe africana|Aloe barbadensis|Aloe ferox|Aloe microstigma|Aloe sp.|Aloe spicata|Aloe vera|Alstonia angustiloba|Alstonia pittieri|Alstonia spathulata|Alstonia undulifolia|Althaea armeniaca|Althaea broussonetiifolia|Althaea cannabina|Althaea narbonensis|Althaea officinalis|Amanita caesarea|Amathia pinnata|Amomum daniellii|Amsinckia menziesii|Amsinckia tessellata|Anabaena laxa|Anacardium Occidentale|Anacardium occidentale|Anacystis montana|Anadenanthera colubrina|Anaphalis lactea|Anastatica hierochuntica|Andrographis paniculata|Andrographis stenophylla|Andrographis viscosula|Anemarrhena asphodeloides|Anethum graveolens|Angelica acutiloba|Angelica gigas|Angelica sinensis|Angiopteris evecta|Anigozanthos preissii|Anisomeles Indica|Anisomeles indica|Annona cherimola|Annona cornifolia|Anolis lineatopus|Anthocercis albicans|Aplidium multiplicatum|Aquilegia vulgaris|Arabidopsis thaliana|Arachis hypogaea|Aralidium pinnatifidum|Arbutus unedo|Archidendron ellipticum|Ardisia virens|Arenaria oreophila|Aristolochia cucurbitifolia|Aristolochia elegans|Aristolochia gehrtii|Aristolochia heterophylla|Aristolochia kaempferi|Aristolochia littoralis|Aristolochia manshuriensis|Armoracia rusticana|Artemisia absinthium|Artemisia argentea|Artemisia assoana|Artemisia biennis|Artemisia caruifolia|Artemisia carvifolia|Artemisia dentata|Artemisia dracunculus|Artemisia giraldii|Artemisia jacutica|Artemisia juncea|Artemisia minor|Artemisia pectinata|Artemisia porrecta|Artemisia siversiana|Artemisia tournefortiana|Artocarpus heterophyllus|Asarum heterotropoides|Asarum sieboldii|Asiasarum heterotropoides|Asiasarum sieboldii|Aspalathus linearis|Aspergillus chevalieri|Aspergillus microcysticus|Aspergillus mutabilis|Asperula odora|Asphodeline damascena|Aspidixia articulata|Aster indicus|Aster multiradiatus|Asteracantha longifolia|Asteraceae|Asteriscus aquaticus|Asterospicularia laurae|Astragalus arguricus|Astragalus asper|Astragalus bungeanus|Astragalus captiosus|Astragalus caspicus|Astragalus circassicus|Astragalus floccosifolius|Astragalus goktschaicus|Astragalus levieri|Astragalus onobrychis|Astragalus sempervirens|Astragalus sevangensis|Astragalus sinicus|Astragalus wagneri|Atalantia racemosa|Atalantia wightii|Athyrium yokoscense|Atriplex parvifolia|Attalea princeps|Aucuba chinensis|Aulacomnium androgynum|Aurelia aurita|Auricularia auricula-judae|Avena fatua|Avena sativa|Avrainvillea nigricans|Axinella agnata|Azotobacter agilis|Baccharis dracunculifolia|Baccharis grandicapitulata|Baccharis macraei|Bacopa monnieri|Bacterium from|Balanophora japonica|Ballota sp.|Baphia bancoensis|Beesia calthifolia|Begonia nantoensis|Berberis orthobotrys|Berchemia floribunda|Berchemia racemosa|Bersama swinnyi|Beta sp.|Beta vulgaris|Betula pendula|Betula platyphylla|Betula pubescens|Bishovia boliviensis|Bistorta manshuriensis|Bistorta officinalis|Bistorta vivipara|Blainvillea latifolia|Blastochloris viridis|Bletilla striata|Blumea eriantha|Boletinus paluster|Bombus pascuorum|Boschniakia rossica|Botrychium ternatum|Botrydium granulatum|Brassica napus|Brassica rapa|Briareum violacea|Brickellia vernicosa|Brodiaea californica|Buddleia coriacea|Buddleja cordata|Buddleja variabilis|Bulbinella floribunda|Bulbophyllum protractum|Buphane fischeri|Bursera kerberi|Bursera tonkinensis|Caenorhabditis elegans|Cajanus cajan|Calcarisporium thermophilum|Calea harleyi|Calea megacephala|Calliandra haematocephala|Calostephane divaricata|Calycotome villosa|Calystegia pubescens|Camellia japonica|Camellia sinensis|Campanula lactiflora|Canarium schweinfurthii|Cannabis sativa|Capparis ovata|Capsicum annuum|Caragana aurantiaca|Caragana sinica|Carduus tenuiflorus|Carex sp.|Carica dodecaphylla|Carthamus tinctorius|Carum sp.|Carya cathayensis|Carya ovata|Caryocar villosum|Cashew|Cassine papillosa|Castanea dentata|Castanea mollissima|Castanea sativa|Casuarina equisetifolia|Catananche caerulea|Cedronella canariensis|Centaurea amanicola|Centaurea aspera|Centaurea huber-morathii|Centaurea hyalolepis|Centaurea pallescens|Centaurea polypodiifolia|Centaurea regia|Ceriops decandra|Cestrum nocturnum|Cestrum parqui|Chaenomeles sinensis|Chaenomeles speciosa|Chaetomella raphigera|Chamomilla recutita|Charpentiera obovata|Cheilanthes marantae|Cheiranthus sp.|Chelidonium majus|Chelonanthus albus|Chenopodium formosanum|Chenopodium rubrum|Chiton tuberculatus|Chlamydomonas reinhardtii|Choriaster granulatus|Chrozophora prostrata|Chrysanthemum indicum|Chrysanthemum leptophyllum|Chrysanthemum naktongense|Chrysanthemum x morifolium|Cicer arietinum|Cichorium intybus|Cimicifuga sp.|Cinnamomum Subavenium|Cinnamomum insulari-montanum|Cinnamomum reticulatum|Cinnamomum sp.|Cinnamomum subavenium|Cinnamomum subavenium MIQ.|Cinnamomum yabunikkei|Cipadessa fruticosa|Cirsium setosum|Cirsium wallichii|Cissus discolor|Cissus sicyoides|Cistanche deserticola|Cistanche tubulosa|Citrullus lanatus|Citrus paradisi|Citrus reticulata|Citrus tangerina|Citrus unshiu|Citrus × paradisi|Cladonia impexa|Cladosporium cucumerinum|Clathria prolifera|Clausena excavata|Clerodendrum trichotomum|Clinacanthus nutans|Coccinia sp.|Cocculus laurifolius|Codiaeum variegatum|Codium dwarkense|Codonopsis pilosula|Codonopsis pilosula subsp. tangshen|Coffea|Coffea arabica|Coffea canephora|Coffea liberica var. dewevrei|Colchicum bornmuelleri|Colchicum kotschyi|Colchicum speciosum|Colladonia triquetra|Colubrina faralaotra|Colubrina faralaotra subsp.trichocarpa.|Commelina communis|Compositae|Conocybe siliginea|Conus pulicarius|Conyza Canadensis|Conyza canadensis|Coprosma lucida|Corchorus capsularis|Corchorus olitorius|Cordia curassavica|Cordyceps sinensis|Cordyline indivisa|Coriandrum sativum|Cornus sp.|Coronophora gregaria|Cortex lycii radicis|Corydalis calliantha|Corydalis cornuta|Corydalis persica|Corylus americana|Corynanthe pachyceras|Corynascus setosus|Cosmos pringlei|Costasiella ocellifera|Cota tinctoria|Cotyledon secunda|Cotylelobium melanoxylon|Cowania mexicana|Crambe tataria|Crambe tatarica|Crataegus laevigata|Crataegus monogyna|Crataegus oxyacantha L. (1753)|Crataegus pinnatifida|Creosphaeria sassafras|Crepidotus fulvotomentosus|Crepis bocconi|Crinum asiaticum|Crocus minimus|Crocus sativus|Crotalaria crispata|Crotalaria stolzii|Croton montevidensis|Croton penduliflorus|Croton ruizianus|Cryptocarya infectoria|Cryptolestes ferrugineus|Cryptosporium pinicola|Cucumis sativus|Cucurbita maxima|Cucurbita moschata|Cullen corylifolia|Cullen corylifolium|Cunonia macrophylla|Curculigo pilosa|Curcuma aeruginosa|Curcuma domestica|Curcuma longa|Cyamopsis sp.|Cyathula tomentosa|Cyberlindnera jadinii|Cymbastela coralliophila|Cynoglossum amabile|Cynoglossum formosanum|Cynometra lujae|Cynomorium songaricum|Cyperus Rotundus|Cyperus rotundus|Cyperus rotundus L.|Cypripedium calceolus|Cytospora ceratosperma|Dacrydium biforme|Daemonorops draco|Dahlstedtia araripensis|Dalbergia ecastaphyllum|Daphne lancifolia|Daphne odora|Daphne pedunculata|Datisca glomerata|Daucus carota|Delavay's tree peony|Delisea elegans|Delphinium campylocentrum|Delphinium elatum|Delphinium fangshanense|Delphinium giraldii|Delphinium venulosum|Dendranthema zawadzkii|Dendrobium falconeri|Dendrobium nobile|Dendrobium officinale|Dermocybe cardinalis|Derris uliginosa|Dianthus Superbus|Dianthus longicalyx|Dianthus superbus|Dianthus superbus var.longicalycinus (MAXIM.) WILL|Dichotomaria marginata|Didemnum inarmatum|Dioscorea althaeoides|Dioscorea gracillima|Dioscorea nipponica|Dioscorea olfersiana|Diospyros canaliculata|Diospyros eriantha|Diospyros glaucifolia|Diospyros lotus|Diotis maritima|Diplazium esculentum|Dipteryx odorata|Discula|Disepalum plagioneurum|Dittrichia graveolens|Dorema sp.|Dracaena concinna|Drechslera avenae|Drymaria Diandra|Drymaria cordata|Drymaria diandra|Drynaria fortunei|Dryocosmus kuriphilus|Drypetes roxburghii|Duhaldea cappa|Dumortiera hirsuta|Durio oxleyanus|Dytiscus marginalis|Ecballium elaterium|Echinacea angustifolia|Echinacea purpurea|Echinus microtuberculatus|Echium rubrum|Eichhornia crassipes|Elaeagnus pungens|Eleusine coracana|Eleutherococcus senticosus|Eleutherococcus sessiliflorus|Elsholtzia ciliata|Elymnias thryallis|Emericellopsis minima|Entada africana|Entada polystachya|Entada rheedei|Ephedra aphylla|Ephedra equisetina|Epichloe typhina|Epimedium brevicornu|Epimedium grandiflorum|Epimedium koreanum|Epimedium pubescens|Epimedium sagittatum|Epimedium sempervirens|Epimedium wushanense|Equisetum arvense|Equisetum debile|Equisetum hiemale|Equisetum hyemale|Equsetum arvense|Eremophila serrulata|Erigeron breviscapus|Erigeron canadensis|Eriobotrya japonica|Eriosema tuberosum|Eriostemon crowei|Erylus trisphaerus|Erythrina sacleuxii|Erythrina sigmoidea|Escherichia coli|Eucalyptus albens|Eucalyptus camaldulensis|Eucalyptus kitsoniana|Eucalyptus melliodora|Euchresta formosana|Euclea crispa|Eugenia sandwicensis|Euonymus alatus|Euonymus fortunei|Euonymus laxiflorus|Eupatorium areolare|Eupatorium laevigatum|Euphorbia aleppica|Euphorbia antiquorum|Euphorbia formosana|Euphorbia jolkinii|Euphorbia lagascae|Euphorbia resinifera|Euphrasia rubra|Euploca racemosa|Eurycoma longifolia|Eurycoma sp.|Euterpe precatoria|Euthamia graminifolia|Excoecaria acerifolia|Excoecaria cochinchinensis|Exochorda giraldii|FOOD SAKE|Fagara macrophylla|Fagopyrum cymosum|Fagus fusca|Falcaria vulgaris|Fallopia convolvulus|Felimida luteorosea|Ferula hezarlalehzarica|Festuca arundinacea|Festuca ovina|Festuca pratensis|Festuca rubra|Ficus cordata subsp. salicifolia|Ficus sarmentosa var. thunbergii|Ficus septica|Flavoparmelia euplecta|Fleischmannia deborabellae|Flemingia rhodocarpa|Formica fusca|Forsythia suspensa|Forsythia viridissima|Fragaria|Fragaria sp.|Fragaria x ananassa|Fritillaria cirrhosa|Fritillaria ningguoensis|Fritillaria persica|Fructus galangae|Fructus mori|Fuligo candida|Fumaria indica|Fusarium avenaceum|Fusarium sacchari|Galinsoga ciliata|Galinsoga quadriradiata|Galium sp.|Ganoderma lucidum|Ganoderma sinense|Gardneria insularis|Garrya laurifolia|Gastrodia elata|Gaultheria borneensis|Gaultheria itoana|Gaultheria procumbens|Gaultheria sp.|Gaylussacia baccata|Geigeria schinzii|Genista anglica|Ginkgo biloba|Glebionis coronaria|Glebionis segetum|Gleditsia caspica|Gliricidia sepium|Globicephala melas|Globularia sp.|Glochidion philippicum|Gloriosa sp.|Glycine|Glycine max|Glycosmis pseudoracemosa|Glycyrrhiza glabra|Glycyrrhiza inflata|Glycyrrhiza lepidota|Glycyrrhiza uralensis|Gnaphalium cheiranthifolium|Gnetum latifolium|Gnetum parvifolium|Gomphrena Celosioides|Gomphrena celosioides|Goniothalamus malayanus|Goniothalamus undulatus|Goupia glabra|Gracilaria textorii|Grangea maderaspatana|Grateloupia livida|Grindelia nana|Grosmannia crassivaginata|Guanomyces polythrix|Gutierrezia dracunculoides|Gymnadenia conopsea|Gymnadenia conopsea R.BR.|Gymnopus androsaceus|Gymnosporia diversifolia|Gynura japonica|Hagenia abyssinica|Hakea saligna|Halimodendron halodendron|Halopitys incurvus|Haloxylon salicornicum|Handroanthus impetiginosum|Handroanthus impetiginosus|Haplopappus deserticola|Haplophyllum ramosissimum|Haplopteris anguste-elongata|Harungana madagascariensis|Hedgehog-shaped lip Bulbophyllum|Hedysarum connatum|Hedysarum gmelini|Hedysarum setigerum|Helenium integrifolium|Helichrysum angustifolium|Helichrysum auriceps|Helichrysum mixtum|Helichrysum sutherlandii|Helipterum gnaphaloides|Helipterum roseum|Hendersonula toruloidea|Herba acalyphae|Herba dracocephali tangutici|Herba ecliptae prostratae|Herniaria|Hesperocyparis arizonica|Heterosigma akashiwo|Hibiscus sabdariffa|Hibiscus taiwanensis|Himalaiella deltoidea|Himantoglossum hircinum|Himatanthus articulatus|Himatanthus sucuuba|Hippophae rhamnoides|Hoffmannia strigillosa|Homalomena occulta|Homo sapiens|Hordeum vulgare|Hordeum vulgare var. distichon|Hornstedtia reticulata|Hortonia floribunda|Houttuynia cordata|Hubertia tomentosa|Humata pectinata|Humulus japonicus|Humulus lupulus|Hyacinthus sp.|Hydnellum zonatum|Hydrangea chinensis|Hygrophorus eburneus|Hymenidium lindleyanum|Hypericum hirsutum|Hypericum laricifolium|Hypericum_laricifolium_Juss|Hyssopus officinalis|Iberis sempervirens|Idea leuconoe|Ilex brevicuspis|Ilex dunniana|Illicium verum|Impatiens balsamina|Imperata cylindrica|Inula grantioides|Inula salsoloides|Iotrochota birotulata|Iotrochota purpurea|Ipomoea digitata|Iris domestica|Iris ensata|Iris lactea|Iris sp.|Iris triflora|Isatis tinctoria|Islaya minor|Isodon amethystoides|Jasminum grandiflorum|Juglans cinerea|Juglans nigra|Juniperus horizontalis|Juniperus rigida var. conferta|Juniperus scopulorum|Kalanchoe daigremontiana|Kalanchoe deficiens|Kalanchoe delagoensis|Kalanchoe hybrida|Kalanchoe integra|Kalanchoe lanceolata|Kalanchoe pinnata|Kalanchoe spathulata|Kalanchoe tubiflora|Kali turgidum|Kopsia longiflora|Lactarius sanguifluus|Lactuca laciniata|Lafoensia glyptocarpa|Lagenaria breviflora|Lagerstroemia speciosa|Laggera alata|Lampranthus sociorum|Lantana trifolia|Lanxangia tsao-ko|Larix laricina|Larix sibirica|Lasianthaea podocephala|Lasiosiphon kraussianus|Lathyrus tingitanus|Laurencia pacifica|Laurencia saitoi|Laurencia spectabilis|Lavandula pedunculata|Leathesia nana|Lecanora lividocinerea|Lemaireocereus griseus|Lens culinaris|Lentinus tigrinus|Lentzea albida|Leontice kiangnanensis|Lepidophorum repandum|Lepisorus ussuriensis|Leptothorax acervorum|Lethasterias fusca|Leucanthemum maximum|Ligustrum obtusifolium|Lindera glauca|Lindera obtusiloba|Lindera sericea|Liparis keitaoensis|Lipschitziella deltoidea|Liriodendron tulipifera|Lithospermum erythrorhizon|Lithothamnion corallioides|Litsea hypophaea|Litsea konishii|Littorina littorea|Lobelia chinensis|Lonchocarpus orotinus|Lonicera microphylla|Lonicera sp.|Lophiostoma vaginatispora|Lophocereus marginatus|Lotus ucrainicus|Lupinus angustifolius|Lupinus cosentinii|Lychnophora columnaris|Lycium sp.|Lycopus europaeus|Lysiana subfalcata|Lysimachia mauritiana|Macaranga peltata|Maclura cochinchinensis|Magnolia compressa|Magnolia denudata|Magnolia liliiflora|Magnolia sprengeri|Maianthemum canadense|Malus domestica|Malus pumila|Malva pucheina|Malva silvestris|Marasmiellus ramealis|Marrubium anisodon|Marshallia graminifolia|Matricaria chamomilla|Matricaria recutita|Matteuccia struthiopteris|Maytenus loevis|Medicago sp.|Medinilla magnifica|Medium grandiflorum|Melaleuca ericifolia|Melaleuca uncinata|Melampodium leucanthum|Melanargia galathea|Melia azedarach|Melia azedarach var. toosendan|Melilotus messanensis|Melilotus siculus|Melilotus sp.|Melissa officinalis|Mentha pulegiformis|Mentha spicata|Menyanthes trifoliata|Mesua ferrea|Methanosarcina barkeri|Metridium senile|Microcos paniculata|Micromonospora echinospora|Microtropis fokienensis|Mikania goyazensis|Millettia erythrocalyx|Millettia pinnata|Mitracarpus scaber|Momordica charantia|Monanchora unguiculata|Monascus pilosus|Monascus pilosus BCRC38072|Monascus purpureus|Monochaetia compta|Monomeria barbata|Monopteryx uaucu|Monteverdia laevis|Morella pensylvanica|Morinda morindoides|Moringa oleifera|Moringa pterygosperma|Morus alba|Murraya euchrestifolia|Murraya paniculata|Mycobacterium leprae|Myelobia smerintha|Myoporum platycarpum|Myristica cagayanensis|Myristica malabarica|Nasutitermes ephratae|Nauclea rhynchophylla|Naucleopsis ternstroemiiflora|Negombata magnifica|Nelumbo nucifera|Nemuaron humboldtii|Neolitsea pulchella|Neopallasia pectinata|Nephroma australe|Nostoc spongiaeforme|Notholaena lemmonii|Nymphaea alba|Ocimum basilicum|Ocimum gratissimum|Ocimum kilimandscharicum|Ocimum tenuiflorum|Oenothera biennis|Oenothera erythrosepala|Oenothera glazioviana|Oenothera grandiflora|Oenothera lamarckiana|Olea europaea|Oligomeris linifolia|Ongokea gore|Onobrychis bobrovii|Onobrychis tanaitica|Ononis speciosa|Ononis vaginalis|Onopordum macrocanthum|Onosma hispida|Ophelia bicornis|Ophidiaster ophidianus|Ophiocordyceps sinensis|Ophiorrhiza kuroiwae|Ophryosporus charua|Opunitia dillenii HAW.|Origanum majorana|Origanum vulgare|Ormosia dasycarpa|Orthantha lutea|Oryza aristata|Oryza sativa|Osmundaria colensoi|Osteophloeum platyspermum|Osteospermum muricatum|Osyris alba|Oxalis pes-caprae|Oxytropis muricata|Oxytropis ochrocephala|Pachycereus pringlei|Paeonia emodi|Paeonia lactiflora|Paeonia obovata|Paeonia peregrina|Paeonia rockii|Paeonia suffruticosa|Paeonia veitchii|Palaquium canaliculatum|Pandanus amaryllifolius|Pandanus odorus|Papaver persicum|Papaver pseudocanescens|Papaver radicatum|Papaver rhoeas|Papaver somniferum|Parablechnum minus|Paracoccus denitrificans|Paratecoma peroba|Parmentiera cereifera|Pastinaca sativa|Pelargonium reniforme|Pellacalyx axillaris|Peltostigma guatemalense|Penicillium alutaceum|Penicillium chrysogenum|Penicillium cyclopium|Penicillium javanicum|Peperomia heyneana|Peperomia vulcanica|Perilla frutescens|Persea indica|Persicaria amphibia|Persicaria hydropiper|Persicaria hydropiperoides|Persicaria mitis|Pertusaria amara|Perymenium mendezii|Pestalotiopsis oenotherae|Petasites formosanus|Petiveria alliaceae|Petriella sordida|Petroselinum crispum|Petteria ramentacea|Peucedanum oroselinum|Phaeolus schweinitzii|Phalaenopsis cornu-cervi|Phaseolus lunatus|Phaseolus vulgaris|Phebalium dentatum|Phebalium whitei|Phegopteris bukoensis|Phellodendron Amurense|Phellodendron amurense|Phellodendron japonicum MAXIM|Phlojodicarpus sibiricus|Phlomis crinita|Phlomis umbrosa|Phlomoides rotata|Phoebe pittieri|Phoenix dactylifera|Phycomyces blakesleeanus|Phyllanthus niruri|Phyllanthus oligospermus|Phyllanthus sp.|Physalis edulis|Physalis sordida|Phyteuma orbiculare|Picea abies|Picea ajanensis|Picea glauca|Picea koraiensis|Picea obovata|Picris radicata|Pimpinella anisum|Pinus densiflora|Pinus edulis|Pinus glauca|Pinus picea|Pinus radiata|Pinus sibirica|Pinus sylvestris|Piper aequale|Piper brachystachyum|Pisum sativum|Pithecellobium racemosum|Plagiomnium cuspidatum|Plantago asiatica|Plantago lanceolata|Plantago major|Plantago media|Platostoma palustre|Platycarya strobilacea|Plectosphaerella cucumerina|Plectranthus caninus|Plectranthus lanuginosus|Plectranthus nummularius|Podocarpus neriifolius|Podospora curvicolla|Pogostemon cablin|Polyalthia longifolia var.pendula|Polyalthia nemoralis|Polygala caudata|Polygonum aviculare|Polygonum cognatum|Polygonum flaccidum|Polyphaga sinensis|Polypodium sp.|Polyporus anthracophilus|Polyporus tumulosus|Polysaccharidum versicolor|Polytrichum commune|Populus angustifolia|Populus deltoides|Populus euphratica|Populus pseudosimonii|Populus tomentosa|Populus tremuloides|Populus yunnanensis|Posidonia oceanica|Premna fulva|Premna odorata|Premna tomentosa|Primula hirsuta|Prorocentrum micans|Prosopis kuntzei|Protea obtusifolia|Prunus amygdalus|Prunus avium|Prunus cerasus|Prunus domestica|Prunus dulcis|Prunus sp.|Psephellus huber-morathii|Pseudoalteromonas luteoviolacea|Pseudoalteromonas rubra|Pseudocyphellaria australiensis|Pseudocyphellaria hirsuta|Pseudocyphellaria rubella|Pseudomonas|Pseudomonas putida|Pseudostellaria heterophylla|Pseudowintera colorata|Pseuduvaria indochinensis|Psidium acutangulum|Psidium friedrichsthalianum|Pteranthus dichotomus|Pteris semipinnata|Pteris setuloso-costulata|Pteris spinulosa|Pterocarpus santalinus|Pulicaria burchardii|Pulveroboletus retipes|Punica granatum|Purshia mexicana|Pyrus calleryana|Quercus imbricaria|Quercus serra|Radix zanthoxyli|Ranunculus baudotii|Ranunculus cantoniensis|Ranunculus chinensis|Ranunculus ternatus|Rapanea lancifolia|Raphanus sativus|Rauvolfia salicifolia|Rauvolfia vomitoria|Rehmannia glutinosa|Relhania acerosa|Renealmia alpinia|Reseda muricata|Reseda muricata C.Presl.|Reseda sp.|Rhamnus thymifolia|Rhamnus thymifolius|Rhaponticum carthamoides|Rheum maximowiczii|Rhizochalina incrustata|Rhizoctonia repens|Rhizoma curcumae|Rhizoma homalomenae occultae|Rhizoplaca baranowii|Rhizopus stolonifer|Rhodanthe maryonii|Rhodiola crenulata|Rhodiola sacra|Rhododendron campylocarpum|Rhododendron dauricum|Rhododendron ferrugineum|Rhododendron mucronulatum|Ribes nigrum|Richardia brasiliensis|Richardia grandiflora|Rodgersia podophylla|Rodgersia sambucifolia|Roemeria carica|Rorippa indica|Rorippa sylvestris|Rosa agrestis|Rosa chinensis|Rosa rugosa|Rosa sp.|Rosmarinus officinalis|Rubus chingii|Rubus coreanus|Rubus idaeus|Rumex chalepensis|Rumex japonicus|Rumex maritimus|Rumex nepalensis|Rumohra adiantiformis|Russula sardonia|Sabina sargentii|Saccharomyces cerevisiae|Sagittaria sagittifolia|Salacia cordata|Salix atrocinerea|Salmonella enterica subsp. enterica serovar bovismorbificans|Salsola collina|Salvia divaricata|Salvia hispanica|Salvia moorcroftiana|Salvia nubicola|Salvia officinalis|Salvia syriaca|Salvia urolepis|Samadera indica|Sanicula epipactis|Sarcolaeana multiflora|Sarcophyton buitendijki|Sarcophyton flexuosum|Sargentodoxa cuneata|Sasa paniculata|Satureja sp.|Saussurea amara|Saussurea muliensis|Saussurea triangulata|Scabiosa comosa|Scapania aequiloba|Scapania nemorea|Scheelea princeps|Schisandra chinensis|Schoenocaulon sp.|Schumanniophyton magnificum|Scilla maritima|Scopolia atropoides|Scorzonera pseudodivaricata|Scrophularia frutescens|Scrophularia koelzii|Scrophularia nodosa|Scutellaria amoena|Sea lettuce|Secale cereale|Secamone afzelii|Sedum forsteri|Selinum libanotis|Senecio cathcartensis|Senecio congestus|Senecio heliopsis|Senecio scandens|Senecio viscosissimus|Senegalia catechu|Senna reticulata|Senna spectabilis|Sequoia sempervirens|Serratula strangulata|Sesamoides canescens|Seseli mucronatum|Shigella flexneri|Sia ferox|Sideritis dasygnaphala|Sideritis euboea|Sidnyum turbinatum|Silphium perfoliatum|Sinapis alba|Sinularia depressa|Sinularia molesta|Sisyrinchium californicum|Skimmia japonica|Smenospongia echina|Solanderia secunda|Solanum americanum|Solanum andigena|Solanum laxum|Solanum lycopersicum|Solanum melongena|Solanum nigrum|Solanum pseudopersicum|Solidago canadensis|Solidago gigantea|Solidago petiolaris|Solidago virgaurea|Sophora lehmanni|Sophora lehmannii|Sophora pachycarpa|Sorbus tianschanica|Sorghum halepense|Soymida febrifuga|Sparganium stoloniferum|Spartium junceum|Spathodea campanulata|Spatholobus suberectus|Spergula japonica|Spiracantha cornifolia|Spiraea formosa|Spiraea formosana|Stellaria media|Stenocereus thurberi|Stephania aculeata|Stephania elegans|Stigma croci|Stiretrus anchorago|Streptomyces avermectinius|Streptomyces clavifer|Streptomyces erythrochromogenes|Streptomyces goshikiensis|Streptomyces melanogenes|Streptomyces misawanensis|Streptomyces noursei|Streptomyces parvisporogenes|Streptomyces platensis|Streptomyces purpurogeneiscleroticus|Streptomyces roseoverticillatus|Streptomyces xanthophaeus|Strychnos ligustrina|Strychnos spinosa|Styrax benzoin|Styrax tonkinensis|Sweet Woodruff|Swertia franchetiana|Swertia swertopsis|Syagrus romanzoffiana|Syncarpia hillii|Synsepalum dulcificum|Tabebuia avellanedae|Tabebuia impetiginosa|Tabernaemontana divaricata|Tadehagi triquetrum|Talipariti tiliaceum|Taonia australasica|Tapinella panuoides|Taraxacum bicorne|Taraxacum borealisinense|Taraxacum coreanum|Taraxacum formosanum|Taraxacum mongolicum|Taraxacum officinale|Taraxacum platycarpum|Tarchonanthus camphoratus|Tarenna attenuata|Taxus baccata|Taxus brevifolia|Taxus drupacea|Tephroseris kirilowii|Tetradium glabrifolium|Teucrium barbeyanum|Teucrium pernyi|Thea sasanqua|Thelephora aurantiotincta|Thiocystis gelatinosa|Thymus|Thymus quinquecostatus|Thymus sp.|Thymus vulgaris|Tilia mandshurica|Tilia tomentosa|Tiliacora racemosa|Toddalia aculeata|Toddalia asiatica|Trachycarpus fortunei|Tragopogon orientalis|Tragopogon pratensis|Trametes feei|Trema orientale|Tribulus Terrestris|Tribulus terrestris|Trichilia heudelotii|Trichilia monadelpha|Trichoderma koningi|Trichosurus vulpecula|Trifolium strepens|Trigonella stellata|Trinia scabra|Tristaniopsis calobuxus|Triticum aestivum|Triticum durum|Trivalvaria costata|Tsuga chinensis|Turbinaria ornata|Tussilago farfara|Tylophora tanakae|Ulva lactuca|Uncaria tomentosa|Uruparia lanosa|Usnea undulata|Utricularia australis|Uvaria chamae|Vaccinium alaskaense|Vaccinium angustifolium|Vaccinium corymbosum|Vaccinium deliciosum|Vaccinium macrocarpon|Vaccinium myrtillus|Vaccinium ovalifolium|Vaccinium ovatum|Vaccinium oxycoccos|Vaccinium pahalae|Vaccinium parvifolium|Vaccinium sp.|Vaccinium uliginosum|Valeriana amurensis|Valeriana fedtschenkoi|Valeriana rossica|Vallaris solanacea|Vanilla planifolia|Vanilla pompona|Vanilla tahitensis|Vasconcellea cundinamarcensis|Vepris louisii|Verbascum laxum|Vernonia megapotamica|Veronica kellereri|Veronica persica|Viburnum cylindricum|Viburnum dilatatum|Viburnum lantana|Vigna angularis|Vigna radiata|Vigna unguiculata|Viguiera incana|Viola sp.|Virgilia divaricata|Virola multinervia|Viscum articulactum|Viscum articulatum|Viscum coloratum|Visnea mocanera|Vitex agnus-castus|Vitex limonifolia|Vitex negundo|Vitex negundo var. cannabifolia|Vitex polygama|Vitex rotundifolia|Vitex trifolia|Vitis Vinifera|Vitis betulifolia|Vitis vinifera|Vittaria anguste-elongata|Viviparus japonicus|Waitea circinata|Welsh onion|Wikstroemia lanceolata|Wikstroemia retusa|Xanthophylum rubescens|Xenoacremonium recifei|Xylocarpus Granatum|Xylocarpus granatum|Zaluzania grayana|Zanthoxylum acutifolium|Zanthoxylum ailanthoides|Zanthoxylum asiaticum|Zanthoxylum beecheyanum|Zanthoxylum gilletii|Zanthoxylum lemairei|Zanthoxylum leprieurii|Zanthoxylum nitidum|Zanthoxylum rhoifolium|Zanthoxylum tetraspermum|Zanthoxylum zanthoxyloides|Zataria multiflora|Zea mays|Zephyranthes flava|Ziziphus jujuba|Ziziphus mauritiana|Zostera marina|Zyzzya fuliginosa|artocarpus rigida|basil|bog bilberry|broad bean|cacao|chia|common dandelion|delphinium x cultorum cv. magic fountains|garlic|maize|moringa|parsley|pomegranate|rooibos|soybean|tomato

>  <collections>  (1064) 
ANPDB|Australian natural products|BIOFACQUIM|CMAUP (cCollective molecular activities of useful plants)|ChEBI NPs|ChemSpider NPs|ConMedNP|DrugBankNP|EMNPD|ETM (Ethiopian Traditional Medicine) DB|Exposome-explorer|FooDB|HIM (Herbal Ingredients in-vivo Metabolism database)|InflamNat|InterBioScreen Ltd|KNApSaCK|Latin America dataset|NANPDB (Natural Products from Northern African Sources)|NAPRORE-CR|NPACT|NPASS|NPEdia|NuBBEDB|PeruNPDB|Phenol-explorer|Phyto4Health|PhytoLab phyproof® Reference Substances|ReSpect|SANCDB|StreptomeDB|Super Natural II|TCMDB-Taiwan (Traditional Chinese Medicine database)|TCMID (Traditional Chinese Medicine Integrated Database)|TIPdb (database of Taiwan indigenous plants)|UNPD (Universal Natural Products Database)|VietHerb|Watermelon|WikiData Natural Products

>  <dois>  (1064) 
10.1002/(SICI)1099-1565(199603)7:2<97::AID-PCA286>3.0.CO;2-M|10.1002/(SICI)1099-1565(199909/10)10:5<268::AID-PCA467>3.0.CO;2-Z|10.1002/1099-1565(200009/10)11:5<327::AID-PCA523>3.0.CO;2-0|10.1002/1099-1565(200011/12)11:6<375::AID-PCA539>3.0.CO;2-0|10.1002/BMC.1207|10.1002/CBDV.200800179|10.1002/CBDV.200800270|10.1002/CBDV.200800273|10.1002/CBDV.201000166|10.1002/CBDV.201000324|10.1002/CBDV.201100219|10.1002/CBER.19610941204|10.1002/CHIN.200313168|10.1002/CHIN.200337190|10.1002/CHIN.200349210|10.1002/CHIN.200434239|10.1002/CHIN.200503195|10.1002/CHIN.200505221|10.1002/CHIN.200533256|10.1002/CHIN.200537185|10.1002/HLCA.194502801103|10.1002/HLCA.19890720406|10.1002/HLCA.200390159|10.1002/HLCA.200800391|10.1002/HLCA.200800420|10.1002/HLCA.201000164|10.1002/HLCA.201000195|10.1002/HLCA.201000385|10.1002/JCCS.198500075|10.1002/JCCS.199400032|10.1002/JCCS.199500128|10.1002/JCCS.199900010|10.1002/JCCS.200000050|10.1002/JCCS.200100177|10.1002/JCCS.200200019|10.1002/JCCS.200200066|10.1002/JCCS.200300178|10.1002/JCCS.200400159|10.1002/JCCS.200400211|10.1002/JCCS.200700013|10.1002/JPS.2600601135|10.1002/JPS.2600601232|10.1002/JSFA.2740420206|10.1002/JSFA.2740500106|10.1002/JSSC.200390053|10.1002/JSSC.200390054|10.1002/JSSC.200500003|10.1002/PCA.585|10.1002/PCA.924|10.1002/PTR.1088|10.1002/PTR.2639|10.1002/ptr.6000|10.1006/JFCA.1999.0868|10.1007/978-3-642-73686-5_3|10.1007/BF00197054|10.1007/BF00197956|10.1007/BF00487242|10.1007/BF00563959|10.1007/BF00564022|10.1007/BF00564480|10.1007/BF00565263|10.1007/BF00565598|10.1007/BF00566073|10.1007/BF00566097|10.1007/BF00568226|10.1007/BF00571226|10.1007/BF00571236|10.1007/BF00574347|10.1007/BF00574351|10.1007/BF00574353|10.1007/BF00575055|10.1007/BF00575192|10.1007/BF00575719|10.1007/BF00575727|10.1007/BF00579083|10.1007/BF00579165|10.1007/BF00597593|10.1007/BF00597867|10.1007/BF00598278|10.1007/BF00602476|10.1007/BF00629948|10.1007/BF00630225|10.1007/BF00630446|10.1007/BF00982301|10.1007/BF00993699|10.1007/BF00994606|10.1007/BF02065988|10.1007/BF02114110|10.1007/BF02467553|10.1007/BF02671339|10.1007/BF02976631|10.1007/S00217-002-0603-1|10.1007/S00709-019-01372-4|10.1007/S10600-005-0055-5|10.1007/S10600-007-0133-Y|10.1007/S10600-007-0232-9|10.1007/S10600-008-0003-2|10.1007/S10600-008-0043-7|10.1007/S10600-008-9041-Z|10.1007/S10600-009-9330-1|10.1007/S10600-009-9379-X|10.1007/S10600-009-9389-8|10.1007/S10600-010-9463-2|10.1007/S10600-010-9515-7|10.1007/S10600-010-9537-1|10.1007/S10600-010-9595-4|10.1007/S10600-010-9639-9|10.1007/S10600-010-9649-7|10.1007/S10600-011-9826-3|10.1007/S10600-011-9885-5|10.1007/S10600-011-9887-3|10.1007/S10600-011-9896-2|10.1007/S10600-011-9915-3|10.1007/S10600-012-0141-4|10.1007/S10600-015-1519-X|10.1007/S11101-023-09858-Z|10.1007/S11130-010-0156-6|10.1007/S11130-011-0236-2|10.1007/S11130-020-00822-2|10.1007/S11306-015-0840-5|10.1007/S11306-016-1051-4|10.1007/S11627-000-0088-1|10.1007/S11746-000-0107-4|10.1007/s11130-020-00822-2|10.1016/0014-5793(88)80192-3|10.1016/0021-9673(95)00585-B|10.1016/0021-9673(95)00877-2|10.1016/0021-9673(95)01335-0|10.1016/0031-9422(73)80048-2|10.1016/0031-9422(81)80056-8|10.1016/0031-9422(83)85044-4|10.1016/0031-9422(88)80188-2|10.1016/0031-9422(88)80235-8|10.1016/0031-9422(88)83055-3|10.1016/0031-9422(89)85030-7|10.1016/0031-9422(90)85309-4|10.1016/0031-9422(90)87143-I|10.1016/0031-9422(91)83034-I|10.1016/0031-9422(91)83503-D|10.1016/0031-9422(91)83614-Q|10.1016/0031-9422(91)83620-Z|10.1016/0031-9422(91)83643-Y|10.1016/0031-9422(91)85032-U|10.1016/0031-9422(92)80087-U|10.1016/0031-9422(92)80233-5|10.1016/0031-9422(92)90050-Z|10.1016/0031-9422(94)00630-C|10.1016/0031-9422(95)00005-R|10.1016/0031-9422(95)00248-6|10.1016/0031-9422(95)00633-8|10.1016/0031-9422(95)00790-3|10.1016/0031-9422(95)00889-6|10.1016/0031-9422(95)00930-2|10.1016/0031-9422(96)00122-7|10.1016/0031-9422(96)00146-X|10.1016/0098-8472(86)90054-7|10.1016/0304-3770(86)90119-1|10.1016/0304-3770(95)00504-8|10.1016/0305-1978(94)00092-U|10.1016/0308-8146(93)90137-5|10.1016/0378-5173(89)90326-8|10.1016/0378-8741(90)90043-S|10.1016/0378-8741(95)01328-8|10.1016/0378-8741(96)01419-5|10.1016/0731-7085(90)80133-A|10.1016/0731-7085(91)80211-Q|10.1016/B978-0-12-374420-3.00099-1|10.1016/B978-0-12-397934-6.00012-7|10.1016/B978-0-12-675407-0.50017-8|10.1016/J.BMC.2010.01.046|10.1016/J.BMCL.2012.01.062|10.1016/J.BMCL.2015.01.034|10.1016/J.BSE.2013.03.020|10.1016/J.BSE.2013.04.001|10.1016/J.CARRES.2010.11.007|10.1016/J.FITOTE.2010.12.003|10.1016/J.FITOTE.2017.12.024|10.1016/J.FOODCHEM.2005.07.053|10.1016/J.FOODCHEM.2005.11.053|10.1016/J.FOODCHEM.2012.08.018|10.1016/J.JCHROMB.2004.06.048|10.1016/J.JFF.2012.04.008|10.1016/J.LWT.2006.07.003|10.1016/J.PHYMED.2006.11.021|10.1016/J.PHYTOCHEM.2003.10.012|10.1016/J.PHYTOCHEM.2005.01.005|10.1016/J.PHYTOCHEM.2005.08.019|10.1016/J.PHYTOCHEM.2005.11.023|10.1016/J.PHYTOCHEM.2007.03.010|10.1016/J.PHYTOCHEM.2007.05.027|10.1016/J.PHYTOCHEM.2007.05.032|10.1016/J.PHYTOCHEM.2007.12.004|10.1016/J.PHYTOCHEM.2008.05.012|10.1016/J.PHYTOCHEM.2009.04.008|10.1016/J.PHYTOCHEM.2009.09.006|10.1016/J.PHYTOCHEM.2009.10.007|10.1016/J.PHYTOL.2014.04.013|10.1016/J.TET.2008.01.090|10.1016/S0021-9673(00)91379-7|10.1016/S0021-9673(01)01434-0|10.1016/S0021-9673(01)87655-X|10.1016/S0031-9422(00)00249-1|10.1016/S0031-9422(00)00479-9|10.1016/S0031-9422(00)80569-5|10.1016/S0031-9422(00)80599-3|10.1016/S0031-9422(00)81223-6|10.1016/S0031-9422(00)84956-0|10.1016/S0031-9422(00)86043-4|10.1016/S0031-9422(00)86894-6|10.1016/S0031-9422(00)88025-5|10.1016/S0031-9422(00)88104-2|10.1016/S0031-9422(00)90786-6|10.1016/S0031-9422(00)95013-1|10.1016/S0031-9422(00)97017-1|10.1016/S0031-9422(00)97569-1|10.1016/S0031-9422(00)98058-0|10.1016/S0031-9422(01)00278-3|10.1016/S0031-9422(01)00415-0|10.1016/S0031-9422(02)00133-4|10.1016/S0031-9422(02)00403-X|10.1016/S0031-9422(03)00220-6|10.1016/S0031-9422(82)85089-9|10.1016/S0031-9422(96)00388-3|10.1016/S0031-9422(97)00092-7|10.1016/S0031-9422(97)00683-3|10.1016/S0031-9422(97)01086-8|10.1016/S0031-9422(97)01118-7|10.1016/S0031-9422(97)01134-5|10.1016/S0031-9422(98)00416-6|10.1016/S0031-9422(98)00453-1|10.1016/S0031-9422(98)00754-7|10.1016/S0031-9422(99)00059-X|10.1016/S0031-9422(99)00070-9|10.1016/S0031-9422(99)00116-8|10.1016/S0031-9422(99)00180-6|10.1016/S0031-9422(99)00259-9|10.1016/S0031-9422(99)00388-X|10.1016/S0040-4020(01)90699-4|10.1016/S0040-4020(01)98186-4|10.1016/S0305-1978(00)00114-9|10.1016/S0305-1978(02)00044-3|10.1016/S0305-1978(99)00122-2|10.1016/S0308-8146(00)00322-8|10.1016/S0308-8146(02)00590-3|10.1016/S0308-8146(03)00127-4|10.1016/S0308-8146(98)00146-0|10.1016/S0367-326X(01)00299-4|10.1016/S0367-326X(01)00327-6|10.1016/S0367-326X(99)00143-4|10.1016/S0378-4347(99)00473-9|10.1016/S0378-8741(98)00061-0|10.1016/S0378-8741(98)00245-1|10.1016/S0731-7085(00)00272-7|10.1016/S0731-7085(00)00541-0|10.1016/S0928-0987(97)86374-9|10.1016/S0960-894X(03)00088-X|10.1016/S0963-9969(00)00072-7|10.1016/S0963-9969(99)00095-2|10.1016/j.bmc.2010.01.046|10.1016/j.bmc.2017.12.011|10.1016/j.bmcl.2015.01.034|10.1016/j.fitote.2017.12.024|10.1016/s0031-9422(00)88199-6|10.1021/ACS.JNATPROD.5B01035|10.1021/JF00002A039|10.1021/JF00021A005|10.1021/JF00042A006|10.1021/JF00044A027|10.1021/JF0006473|10.1021/JF00078A018|10.1021/JF00110A030|10.1021/JF00111A051|10.1021/JF00118A016|10.1021/JF00118A035|10.1021/JF00121A033|10.1021/JF00123A028|10.1021/JF011454Y|10.1021/JF011533+|10.1021/JF020028P|10.1021/JF020055F|10.1021/JF0201327|10.1021/JF025651O|10.1021/JF0258712|10.1021/JF0307595|10.1021/JF040083T|10.1021/JF049847V|10.1021/JF050579Q|10.1021/JF050579Q.S001|10.1021/JF060251C|10.1021/JF061058L|10.1021/JF0615247|10.1021/JF071110T|10.1021/JF0734727|10.1021/JF204660C|10.1021/JF802152Z|10.1021/JF900695S|10.1021/JF9014685|10.1021/JF9505335|10.1021/JF9606971|10.1021/JF960741C|10.1021/JF990354D|10.1021/JF990530I|10.1021/JF990761P|10.1021/JF990972U|10.1021/JF991266W|10.1021/JO01054A538|10.1021/NP0000320|10.1021/NP000176E|10.1021/NP000306J|10.1021/NP020264U|10.1021/NP030034V|10.1021/NP0301238|10.1021/NP0302394|10.1021/NP030247K|10.1021/NP030247K.S001|10.1021/NP030256T|10.1021/NP0302854|10.1021/NP0400196|10.1021/NP040036V|10.1021/NP040177X|10.1021/NP0496035|10.1021/NP050060O|10.1021/NP050154Y|10.1021/NP050545C|10.1021/NP058067T|10.1021/NP060091Z|10.1021/NP060500R|10.1021/NP070186G|10.1021/NP0703489|10.1021/NP0704452|10.1021/NP070594K|10.1021/NP070618N|10.1021/NP100022S|10.1021/NP100902F|10.1021/NP50008A001|10.1021/NP50077A009|10.1021/NP50088A020|10.1021/NP50099A032|10.1021/NP50119A013|10.1021/NP50126A008|10.1021/NP800147Z|10.1021/NP800643N|10.1021/NP800830V|10.1021/NP9003323|10.1021/NP980470V|10.1021/NP9902237|10.1021/NP990483O|10.1021/OL200047V|10.1021/acs.jnatprod.0c00756|10.1021/acs.jnatprod.7b00453|10.1021/acs.jnatprod.7b00707|10.1021/acs.jnatprod.9b01109|10.1021/jf1017143|10.1021/jf990354d|10.1021/np060500r|10.1021/np100902f|10.1021/np300576w|10.1021/np50119a013|10.1021/np9003323|10.1034/J.1399-3054.2003.00068.X|10.1038/NBT.2488|10.1038/nbt.2488|10.1039/C9FO00799G|10.1039/J39670002100|10.1039/J39680000854|10.1039/P19830001719|10.1055/S-0028-1097628|10.1055/S-0028-1097714|10.1055/S-0028-1097904|10.1055/S-0028-1099426|10.1055/S-0028-1099839|10.1055/S-2004-815540|10.1055/S-2004-818920|10.1055/S-2004-818956|10.1055/S-2005-873196|10.1055/S-2006-931604|10.1055/S-2006-957414|10.1055/S-2006-958019|10.1055/S-2006-959552|10.1055/S-2006-959608|10.1055/S-2006-960092|10.1055/S-2006-961475|10.1055/S-2006-961558|10.1055/S-2006-962790|10.1055/S-2006-962793|10.1055/S-2007-967165|10.1055/S-2007-969319|10.1071/ch9610475|10.1076/PHBI.39.3.202.5930|10.1080/00021369.1984.10866543|10.1080/01483918808076763|10.1080/01483919008049590|10.1080/0957126032000114982|10.1080/10286020.2010.502892|10.1080/10286020.2010.546352|10.1080/10286020.2011.586343|10.1080/10286020.2011.596829|10.1080/10286020008039908|10.1080/10286020903451757|10.1080/10408390802145377|10.1080/10412905.1997.9700743|10.1080/10575639808048868|10.1080/10826079808003594|10.1080/14786411003746476|10.1080/14786411003757929|10.1080/14786419.2013.869693|10.1080/14786419.2016.1269100|10.1081/JLC-100101744|10.1086/325089|10.1089/ind.2013.0013|10.1093/ACPROF:OSO/9780199662685.003.0001|10.1093/jn/133.6.1806|10.1093/pcp/pcn183|10.1111/1750-3841.12404|10.1111/1750-3841.15164|10.1111/J.1365-2621.1983.TB14902.X|10.1111/J.1365-2621.1987.TB14056.X|10.1111/J.1399-3054.1967.TB07158.X|10.1111/J.1745-4522.2007.00107.X|10.1111/J.1745-4557.2006.00096.X|10.1111/TPJ.12747|10.1111/tpj.12747|10.1128/JB.118.1.41-45.1974|10.1155/2017/7436259|10.1177/1934578X0900400602|10.1246/BCSJ.60.981|10.1248/BPB.22.157|10.1248/BPB.23.1216|10.1248/BPB.25.1101|10.1248/BPB.25.505|10.1248/BPB.25.658|10.1248/BPB.29.1271|10.1248/BPB.33.267|10.1248/CPB.24.1668|10.1248/CPB.31.577|10.1248/CPB.33.3811|10.1248/CPB.33.4132|10.1248/CPB.34.4829|10.1248/CPB.35.2668|10.1248/CPB.38.225|10.1248/CPB.41.1743|10.1248/CPB.42.1198|10.1248/CPB.45.1485|10.1248/CPB.46.1624|10.1248/CPB.47.375|10.1248/CPB.47.571|10.1248/CPB.47.887|10.1248/CPB.48.1006|10.1248/CPB.48.201|10.1248/CPB.49.1036|10.1248/CPB.50.115|10.1248/CPB.50.1305|10.1248/CPB.50.1558|10.1248/CPB.51.1439|10.1248/CPB.52.1227|10.1248/CPB.52.345|10.1248/CPB.52.858|10.1248/CPB.53.1065|10.1248/CPB.53.1118|10.1248/CPB.53.1600|10.1248/CPB.53.336|10.1248/CPB.53.56|10.1248/CPB.53.710|10.1248/CPB.53.853|10.1248/CPB.54.1063|10.1248/CPB.54.1308|10.1248/CPB.54.506|10.1248/CPB.55.492|10.1248/CPB.56.394|10.1248/CPB.56.97|10.1248/CPB.57.1089|10.1248/CPB.57.1227|10.1248/CPB.57.397|10.1248/CPB.57.487|10.1248/CPB.60.306|10.1248/YAKUSHI1947.104.2_157|10.1248/YAKUSHI1947.110.5_354|10.1248/YAKUSHI1947.74.1_109|10.1248/YAKUSHI1947.85.5_469|10.1254/JJP.78.395|10.1271/BBB.58.380|10.1271/BBB.61.1674|10.1271/BBB.61.1995|10.1271/BBB.62.2273|10.1271/BBB1961.44.205|10.1271/BBB1961.46.2101|10.1271/BBB1961.48.2565|10.1271/BBB1961.48.389|10.1271/BBB1961.52.2625|10.1365/S10337-005-0622-8|10.1371/JOURNAL.PONE.0156319|10.1515/ZNB-1964-0902|10.1515/ZNC-1997-7-805|10.1515/ZNC-1998-11-1225|10.1515/ZNC-2001-9-1012|10.1515/ZNC-2008-5-611|10.1515/znc-2008-5-611|10.1590/S0102-695X2008000100011|10.1590/S0102-695X2008000300010|10.1590/S0103-50532001000400004|10.17660/ACTAHORTIC.2003.597.15|10.21273/HORTSCI.29.4.313|10.21577/0103-5053.20190018|10.3186/JJPHYTOPATH.54.453|10.3186/JJPHYTOPATH.61.103|10.3389/FMOLB.2018.00096|10.3390/12102270|10.3390/METABO4030599|10.3390/MOLECULES15095998|10.3390/MOLECULES16031917|10.3390/MOLECULES21111576|10.3390/MOLECULES23020469|10.3390/MOLECULES23071558|10.3390/NU11061377|10.3390/foods9060770|10.3390/molecules22010011|10.3390/molecules22030402|10.3390/molecules24162945|10.3390/molecules24183212|10.3390/molecules27061860|10.3390/plants6040050|10.3906/KIM-0805-46|10.3987/COM-03-9777|10.3987/COM-06-10804|10.3987/COM-92-6050|10.3998/ARK.5550190.0011.213|10.4268/CJCMM20121914|10.4268/CJCMM20141334|10.4314/BCSE.V14I2.71972|10.4314/NJNPM.V3I1.11761|10.5586/ASBP.1988.009|10.5586/ASBP.1991.011|10.5586/ASBP.1995.007|10.5586/ASBP.1998.029|10.5586/ASBP.1999.040|10.5586/ASBP.2000.003|10.7164/ANTIBIOTICS.39.606|10.9734/EJMP/2013/4976

>  <synonyms>  (1064) 
nan

>  <cas>  (1064) 
99-96-7|30729-36-3

$$$$

     RDKit          2D

 35 41  0  0  0  0  0  0  0  0999 V2000
   -9.9282    0.5914    0.0000 C   0  0  0  0  0  0  0  0  0  0  0  0
   -8.4743    0.2224    0.0000 C   0  0  0  0  0  0  0  0  0  0  0  0
   -7.8584    1.5901    0.0000 C   0  0  0  0  0  0  0  0  0  0  0  0
   -8.5853   -1.2735    0.0000 O   0  0  0  0  0  0  0  0  0  0  0  0
   -7.2343   -0.6216    0.0000 C   0  0  0  0  0  0  0  0  0  0  0  0
   -5.7384   -0.7326    0.0000 C   0  0  0  0  0  0  0  0  0  0  0  0
   -4.7694    0.4124    0.0000 C   0  0  0  0  0  0  0  0  0  0  0  0
   -3.3810   -0.1554    0.0000 C   0  0  0  0  0  0  0  0  0  0  0  0
   -2.1056    0.6341    0.0000 C   0  0  0  0  0  0  0  0  0  0  0  0
   -1.9946    2.1300    0.0000 C   0  0  0  0  0  0  0  0  0  0  0  0
   -0.5377    2.4868    0.0000 C   0  0  0  0  0  0  0  0  0  0  0  0
    0.2518    1.2113    0.0000 C   0  0  0  0  0  0  0  0  0  0  0  0
    0.7589   -0.2004    0.0000 C   0  0  0  0  0  0  0  0  0  0  0  0
   -0.7172    0.0663    0.0000 C   0  0  0  0  0  0  0  0  0  0  0  0
   -0.2101   -1.3453    0.0000 C   0  0  0  0  0  0  0  0  0  0  0  0
    1.2660   -1.6120    0.0000 C   0  0  0  0  0  0  0  0  0  0  0  0
    2.2350   -0.4671    0.0000 C   0  0  0  0  0  0  0  0  0  0  0  0
    3.7111   -0.7338    0.0000 C   0  0  0  0  0  0  0  0  0  0  0  0
    2.7421   -1.8788    0.0000 C   0  0  0  0  0  0  0  0  0  0  0  0
    4.2182   -2.1455    0.0000 C   0  0  0  0  0  0  0  0  0  0  0  0
    5.6943   -2.4122    0.0000 C   0  0  0  0  0  0  0  0  0  0  0  0
    6.6633   -1.2672    0.0000 C   0  0  0  0  0  0  0  0  0  0  0  0
    8.1394   -1.5339    0.0000 O   0  0  0  0  0  0  0  0  0  0  0  0
    6.1562    0.1445    0.0000 C   0  0  0  0  0  0  0  0  0  0  0  0
    6.1626    1.6445    0.0000 C   0  0  0  0  0  0  0  0  0  0  0  0
    7.6345    0.3988    0.0000 C   0  0  0  0  0  0  0  0  0  0  0  0
    4.6801    0.4112    0.0000 C   0  0  0  0  0  0  0  0  0  0  0  0
    4.1731    1.8229    0.0000 C   0  0  0  0  0  0  0  0  0  0  0  0
    2.6970    2.0896    0.0000 C   0  0  0  0  0  0  0  0  0  0  0  0
    2.1899    3.5013    0.0000 O   0  0  0  0  0  0  0  0  0  0  0  0
    1.7279    0.9446    0.0000 C   0  0  0  0  0  0  0  0  0  0  0  0
    1.2209    2.3563    0.0000 C   0  0  0  0  0  0  0  0  0  0  0  0
   -3.4919   -1.6513    0.0000 C   0  0  0  0  0  0  0  0  0  0  0  0
   -2.3470   -2.6203    0.0000 O   0  0  0  0  0  0  0  0  0  0  0  0
   -4.9489   -2.0080    0.0000 O   0  0  0  0  0  0  0  0  0  0  0  0
  1  2  1  0
  2  3  1  0
  2  4  1  0
  5  4  1  6
  5  6  1  0
  6  7  1  1
  8  7  1  1
  8  9  1  0
  9 10  1  6
 10 11  1  0
 12 11  1  6
 12 13  1  0
 14 13  1  6
 14 15  1  0
 15 16  1  0
 17 16  1  1
 17 18  1  0
 18 19  1  1
 18 20  1  0
 20 21  1  0
 21 22  1  0
 22 23  2  0
 22 24  1  0
 24 25  1  0
 24 26  1  0
 24 27  1  0
 27 28  1  1
 28 29  1  0
 29 30  1  6
 29 31  1  0
 31 32  1  1
  8 33  1  0
 33 34  1  0
 33 35  1  0
  5  2  1  0
 35  6  1  0
 14  9  1  0
 31 17  1  0
 14 12  1  0
 27 18  1  0
 31 12  1  0
M  END
>  <identifier>  (1065) 
CNP0187755.1

>  <canonical_smiles>  (1065) 
CC1(C)O[C@H]1[C@H]1C[C@@H]([C@@H]2CC[C@]34C[C@]23CC[C@@H]2[C@@]3(C)CCC(=O)C(C)(C)[C@@H]3C[C@@H](O)[C@]24C)C(O)O1

>  <standard_inchi>  (1065) 
InChI=1S/C30H46O5/c1-25(2)20-14-22(32)28(6)19(27(20,5)10-9-21(25)31)8-11-29-15-30(28,29)12-7-17(29)16-13-18(34-24(16)33)23-26(3,4)35-23/h16-20,22-24,32-33H,7-15H2,1-6H3/t16-,17-,18+,19+,20-,22+,23-,24?,27+,28-,29+,30+/m0/s1

>  <standard_inchi_key>  (1065) 
MGLJZVUEWDJWMY-KDQXKTOQSA-N

>  <name>  (1065) 
nan

>  <iupac_name>  (1065) 
(1~{S},2~{R},3~{R},5~{R},10~{R},11~{R},14~{R},15~{S})-15-[(3~{S},5~{R})-5-[(2~{S})-3,3-dimethyloxiran-2-yl]-2-hydroxy-tetrahydrofuran-3-yl]-3-hydroxy-2,6,6,10-tetramethyl-pentacyclo[12.3.1.0^{1,14}.0^{2,11}.0^{5,10}]octadecan-7-one

>  <annotation_level>  (1065) 
4

>  <total_atom_count>  (1065) 
81

>  <heavy_atom_count>  (1065) 
35

>  <molecular_weight>  (1065) 
486.69

>  <exact_molecular_weight>  (1065) 
486.33452

>  <molecular_formula>  (1065) 
C30H46O5

>  <alogp>  (1065) 
4.87

>  <topological_polar_surface_area>  (1065) 
79.29

>  <rotatable_bond_count>  (1065) 
2

>  <hydrogen_bond_acceptors>  (1065) 
5

>  <hydrogen_bond_donors>  (1065) 
2

>  <hydrogen_bond_acceptors_lipinski>  (1065) 
5

>  <hydrogen_bond_donors_lipinski>  (1065) 
2

>  <lipinski_rule_of_five_violations>  (1065) 
0

>  <aromatic_rings_count>  (1065) 
0

>  <qed_drug_likeliness>  (1065) 
0.54

>  <formal_charge>  (1065) 
0

>  <fractioncsp3>  (1065) 
0.97

>  <number_of_minimal_rings>  (1065) 
7

>  <van_der_walls_volume>  (1065) 
nan

>  <contains_sugar>  (1065) 
False

>  <contains_ring_sugars>  (1065) 
False

>  <contains_linear_sugars>  (1065) 
False

>  <murcko_framework>  (1065) 
O1CC1C2OCC(C2)C3CCC45CC35CCC6C7CCCCC7CCC64

>  <np_likeness>  (1065) 
3.64

>  <chemical_class>  (1065) 
Prenol lipids

>  <chemical_sub_class>  (1065) 
Terpene glycosides

>  <chemical_super_class>  (1065) 
Lipids and lipid-like molecules

>  <direct_parent_classification>  (1065) 
Triterpene glycosides

>  <np_classifier_pathway>  (1065) 
Terpenoids

>  <np_classifier_superclass>  (1065) 
Triterpenoids

>  <np_classifier_class>  (1065) 
Limonoids

>  <np_classifier_is_glycoside>  (1065) 
True

>  <organisms>  (1065) 
Zanthoxylum petiolare

>  <collections>  (1065) 
Latin America dataset|NuBBEDB

>  <dois>  (1065) 
10.1016/S0031-9422(00)89656-9

>  <synonyms>  (1065) 
3-oxo-skimmiarepin

>  <cas>  (1065) 
nan

$$$$

     RDKit          2D

 23 25  0  0  0  0  0  0  0  0999 V2000
   -9.6392   -0.7026    0.0000 C   0  0  0  0  0  0  0  0  0  0  0  0
   -8.2657   -1.3056    0.0000 C   0  0  0  0  0  0  0  0  0  0  0  0
   -7.0567   -0.4177    0.0000 C   0  0  0  0  0  0  0  0  0  0  0  0
   -5.6833   -1.0207    0.0000 C   0  0  0  0  0  0  0  0  0  0  0  0
   -4.4743   -0.1328    0.0000 C   0  0  0  0  0  0  0  0  0  0  0  0
   -3.1009   -0.7358    0.0000 C   0  0  0  0  0  0  0  0  0  0  0  0
   -1.8919    0.1521    0.0000 C   0  0  0  0  0  0  0  0  0  0  0  0
   -2.0564    1.6431    0.0000 C   0  0  0  0  0  0  0  0  0  0  0  0
   -0.8475    2.5310    0.0000 C   0  0  0  0  0  0  0  0  0  0  0  0
    0.5260    1.9280    0.0000 C   0  0  0  0  0  0  0  0  0  0  0  0
    1.7349    2.8159    0.0000 C   0  0  0  0  0  0  0  0  0  0  0  0
    3.1084    2.2129    0.0000 C   0  0  0  0  0  0  0  0  0  0  0  0
    4.3173    3.1009    0.0000 O   0  0  0  0  0  0  0  0  0  0  0  0
    3.2729    0.7220    0.0000 C   0  0  0  0  0  0  0  0  0  0  0  0
    4.6463    0.1190    0.0000 C   0  0  0  0  0  0  0  0  0  0  0  0
    4.8108   -1.3720    0.0000 C   0  0  0  0  0  0  0  0  0  0  0  0
    6.1843   -1.9750    0.0000 O   0  0  0  0  0  0  0  0  0  0  0  0
    6.3488   -3.4660    0.0000 C   0  0  0  0  0  0  0  0  0  0  0  0
    3.6019   -2.2599    0.0000 C   0  0  0  0  0  0  0  0  0  0  0  0
    2.2284   -1.6569    0.0000 C   0  0  0  0  0  0  0  0  0  0  0  0
    2.0639   -0.1660    0.0000 C   0  0  0  0  0  0  0  0  0  0  0  0
    0.6905    0.4371    0.0000 N   0  0  0  0  0  0  0  0  0  0  0  0
   -0.5185   -0.4509    0.0000 C   0  0  0  0  0  0  0  0  0  0  0  0
  1  2  1  0
  2  3  1  0
  3  4  2  3
  4  5  1  0
  5  6  1  0
  7  6  1  1
  7  8  1  0
  8  9  1  0
  9 10  1  0
 10 11  2  0
 11 12  1  0
 12 13  2  0
 12 14  1  0
 14 15  2  0
 15 16  1  0
 16 17  1  0
 17 18  1  0
 16 19  2  0
 19 20  1  0
 20 21  2  0
 21 22  1  0
 22 23  1  0
 23  7  1  0
 22 10  1  0
 21 14  1  0
M  END
>  <identifier>  (1066) 
CNP0262903.2

>  <canonical_smiles>  (1066) 
CCC=CCC[C@H]1CCC2=CC(=O)C3=CC(OC)=CC=C3N2C1

>  <standard_inchi>  (1066) 
InChI=1S/C20H25NO2/c1-3-4-5-6-7-15-8-9-16-12-20(22)18-13-17(23-2)10-11-19(18)21(16)14-15/h4-5,10-13,15H,3,6-9,14H2,1-2H3/t15-/m0/s1

>  <standard_inchi_key>  (1066) 
BRAQVHKZUKAFMR-HNNXBMFYSA-N

>  <name>  (1066) 
nan

>  <iupac_name>  (1066) 
(2~{S})-2-hex-3-enyl-8-methoxy-1,2,3,4-tetrahydrobenzo[c]quinolizin-6-one

>  <annotation_level>  (1066) 
4

>  <total_atom_count>  (1066) 
48

>  <heavy_atom_count>  (1066) 
23

>  <molecular_weight>  (1066) 
311.43

>  <exact_molecular_weight>  (1066) 
311.18853

>  <molecular_formula>  (1066) 
C20H25NO2

>  <alogp>  (1066) 
4.32

>  <topological_polar_surface_area>  (1066) 
31.23

>  <rotatable_bond_count>  (1066) 
5

>  <hydrogen_bond_acceptors>  (1066) 
3

>  <hydrogen_bond_donors>  (1066) 
0

>  <hydrogen_bond_acceptors_lipinski>  (1066) 
3

>  <hydrogen_bond_donors_lipinski>  (1066) 
0

>  <lipinski_rule_of_five_violations>  (1066) 
0

>  <aromatic_rings_count>  (1066) 
2

>  <qed_drug_likeliness>  (1066) 
0.77

>  <formal_charge>  (1066) 
0

>  <fractioncsp3>  (1066) 
0.45

>  <number_of_minimal_rings>  (1066) 
3

>  <van_der_walls_volume>  (1066) 
nan

>  <contains_sugar>  (1066) 
False

>  <contains_ring_sugars>  (1066) 
False

>  <contains_linear_sugars>  (1066) 
False

>  <murcko_framework>  (1066) 
c1ccc2c(c1)N3C(=CC2)CCCC3

>  <np_likeness>  (1066) 
0.99

>  <chemical_class>  (1066) 
Quinolines and derivatives

>  <chemical_sub_class>  (1066) 
Quinolones and derivatives

>  <chemical_super_class>  (1066) 
Organoheterocyclic compounds

>  <direct_parent_classification>  (1066) 
Hydroquinolones

>  <np_classifier_pathway>  (1066) 
Alkaloids

>  <np_classifier_superclass>  (1066) 
Anthranilic acid alkaloids

>  <np_classifier_class>  (1066) 
Acridone alkaloids

>  <np_classifier_is_glycoside>  (1066) 
False

>  <organisms>  (1066) 
Dictyoloma vandellianum

>  <collections>  (1066) 
Latin America dataset|NuBBEDB

>  <dois>  (1066) 
10.1016/S0031-9422(03)00006-2

>  <synonyms>  (1066) 
6-methoxydictyolomide A

>  <cas>  (1066) 
nan

$$$$

     RDKit          2D

 32 36  0  0  0  0  0  0  0  0999 V2000
   -6.2006   -2.1402    0.0000 C   0  0  0  0  0  0  0  0  0  0  0  0
   -5.4098   -0.8656    0.0000 C   0  0  0  0  0  0  0  0  0  0  0  0
   -6.1183    0.4566    0.0000 C   0  0  0  0  0  0  0  0  0  0  0  0
   -7.6175    0.5041    0.0000 O   0  0  0  0  0  0  0  0  0  0  0  0
   -5.3275    1.7312    0.0000 C   0  0  0  0  0  0  0  0  0  0  0  0
   -6.0360    3.0533    0.0000 O   0  0  0  0  0  0  0  0  0  0  0  0
   -3.8283    1.6837    0.0000 C   0  0  0  0  0  0  0  0  0  0  0  0
   -3.1198    0.3616    0.0000 C   0  0  0  0  0  0  0  0  0  0  0  0
   -3.9105   -0.9131    0.0000 C   0  0  0  0  0  0  0  0  0  0  0  0
   -3.2021   -2.2352    0.0000 C   0  0  0  0  0  0  0  0  0  0  0  0
   -1.7028   -2.2827    0.0000 C   0  0  0  0  0  0  0  0  0  0  0  0
   -0.9120   -1.0081    0.0000 C   0  0  0  0  0  0  0  0  0  0  0  0
   -1.6205    0.3140    0.0000 C   0  0  0  0  0  0  0  0  0  0  0  0
   -2.3290    1.6362    0.0000 C   0  0  0  0  0  0  0  0  0  0  0  0
   -0.8298    1.5887    0.0000 C   0  0  0  0  0  0  0  0  0  0  0  0
    0.6695    1.5412    0.0000 C   0  0  0  0  0  0  0  0  0  0  0  0
    1.3780    0.2190    0.0000 C   0  0  0  0  0  0  0  0  0  0  0  0
    2.1687    1.4937    0.0000 C   0  0  0  0  0  0  0  0  0  0  0  0
    2.8772    0.1715    0.0000 C   0  0  0  0  0  0  0  0  0  0  0  0
    3.6680    1.4462    0.0000 C   0  0  0  0  0  0  0  0  0  0  0  0
    5.1672    1.3987    0.0000 C   0  0  0  0  0  0  0  0  0  0  0  0
    6.5923    1.8668    0.0000 C   0  0  0  0  0  0  0  0  0  0  0  0
    4.9537    2.8834    0.0000 O   0  0  0  0  0  0  0  0  0  0  0  0
    5.8757    0.0765    0.0000 C   0  0  0  0  0  0  0  0  0  0  0  0
    7.3750    0.0290    0.0000 O   0  0  0  0  0  0  0  0  0  0  0  0
    5.0849   -1.1981    0.0000 C   0  0  0  0  0  0  0  0  0  0  0  0
    3.5857   -1.1506    0.0000 C   0  0  0  0  0  0  0  0  0  0  0  0
    4.2942   -2.4728    0.0000 C   0  0  0  0  0  0  0  0  0  0  0  0
    2.7949   -2.4252    0.0000 C   0  0  0  0  0  0  0  0  0  0  0  0
    1.2957   -2.3777    0.0000 C   0  0  0  0  0  0  0  0  0  0  0  0
    0.5872   -1.0556    0.0000 C   0  0  0  0  0  0  0  0  0  0  0  0
   -0.2036   -2.3302    0.0000 C   0  0  0  0  0  0  0  0  0  0  0  0
  1  2  1  0
  2  3  2  0
  3  4  1  0
  3  5  1  0
  5  6  2  0
  5  7  1  0
  7  8  2  0
  8  9  1  0
  9 10  2  0
 10 11  1  0
 11 12  2  0
 12 13  1  0
 13 14  1  1
 13 15  1  0
 15 16  1  0
 16 17  1  0
 17 18  1  6
 17 19  1  0
 19 20  1  6
 20 21  1  0
 21 22  1  1
 21 23  1  0
 21 24  1  0
 24 25  2  0
 24 26  1  0
 26 27  1  0
 27 28  1  1
 27 29  1  0
 29 30  1  0
 30 31  1  0
 31 32  1  1
  9  2  1  0
 31 12  1  0
 13  8  1  0
 31 17  1  0
 27 19  1  0
M  END
>  <identifier>  (1067) 
CNP0190499.1

>  <canonical_smiles>  (1067) 
CC1=C(O)C(=O)C=C2C1=CC=C1[C@@]2(C)CC[C@@]2(C)[C@@H]3C[C@](C)(O)C(=O)C[C@]3(C)CC[C@]12C

>  <standard_inchi>  (1067) 
InChI=1S/C28H36O4/c1-16-17-7-8-20-25(3,18(17)13-19(29)23(16)31)10-12-27(5)21-14-28(6,32)22(30)15-24(21,2)9-11-26(20,27)4/h7-8,13,21,31-32H,9-12,14-15H2,1-6H3/t21-,24+,25+,26-,27+,28+/m1/s1

>  <standard_inchi_key>  (1067) 
LLINHWDEBZOLGN-UNQYGWCUSA-N

>  <name>  (1067) 
20alpha-hydroxytingenone

>  <iupac_name>  (1067) 
(6~{a}~{S},6~{b}~{S},8~{a}~{S},11~{S},12~{a}~{R},14~{a}~{R})-3,11-dihydroxy-4,6~{a},6~{b},8~{a},11,14~{a}-hexamethyl-8,9,12,12~{a},13,14-hexahydro-7~{H}-picene-2,10-dione

>  <annotation_level>  (1067) 
5

>  <total_atom_count>  (1067) 
68

>  <heavy_atom_count>  (1067) 
32

>  <molecular_weight>  (1067) 
436.59

>  <exact_molecular_weight>  (1067) 
436.26136

>  <molecular_formula>  (1067) 
C28H36O4

>  <alogp>  (1067) 
5.54

>  <topological_polar_surface_area>  (1067) 
74.60

>  <rotatable_bond_count>  (1067) 
0

>  <hydrogen_bond_acceptors>  (1067) 
4

>  <hydrogen_bond_donors>  (1067) 
2

>  <hydrogen_bond_acceptors_lipinski>  (1067) 
4

>  <hydrogen_bond_donors_lipinski>  (1067) 
2

>  <lipinski_rule_of_five_violations>  (1067) 
1

>  <aromatic_rings_count>  (1067) 
0

>  <qed_drug_likeliness>  (1067) 
0.52

>  <formal_charge>  (1067) 
0

>  <fractioncsp3>  (1067) 
0.64

>  <number_of_minimal_rings>  (1067) 
5

>  <van_der_walls_volume>  (1067) 
411.50

>  <contains_sugar>  (1067) 
False

>  <contains_ring_sugars>  (1067) 
False

>  <contains_linear_sugars>  (1067) 
False

>  <murcko_framework>  (1067) 
C=1C=C2C(C3=CCC=CC13)CCC4C2CCC5CCCCC54

>  <np_likeness>  (1067) 
3.43

>  <chemical_class>  (1067) 
Organooxygen compounds

>  <chemical_sub_class>  (1067) 
Carbonyl compounds

>  <chemical_super_class>  (1067) 
Organic oxygen compounds

>  <direct_parent_classification>  (1067) 
Acyloins

>  <np_classifier_pathway>  (1067) 
Terpenoids

>  <np_classifier_superclass>  (1067) 
Triterpenoids

>  <np_classifier_class>  (1067) 
nan

>  <np_classifier_is_glycoside>  (1067) 
False

>  <organisms>  (1067) 
Argemone munita|Ariocarpus retusus|Berberis lambertii|Cheiloclinium cognatum|Cladiella kashmani|Echinochloa crus-galli|Elaeodendron balae|Euonymus tingens|Glyptopetalum sclerocarpum|Kokoona zeylanica|Lathyrus hirsutus|Lobelia davidii|Maytenus ilicifolia|Maytenus retusa|Maytenus sp.|Monteverdia catingarum|Monteverdia horrida|Monteverdia retusa|Peritassa campestris|Polycitorella mariae|Sclerotinia homoeocarpa|Tenodera aridifolia|Thunbergia grandiflora|Zanthoxylum syncarpum

>  <collections>  (1067) 
CMAUP (cCollective molecular activities of useful plants)|ChemSpider NPs|KNApSaCK|Latin America dataset|NPASS|NuBBEDB|Super Natural II|WikiData Natural Products|ZINC NP

>  <dois>  (1067) 
10.1002/CBDV.200590016|10.1002/CHIN.199004272|10.1016/J.PHYTOCHEM.2004.03.039|10.1016/S0031-9422(00)00285-5|10.1016/S0031-9422(00)83591-8|10.1016/S0031-9422(98)00290-8|10.1016/S0040-4020(01)89113-4|10.1021/NP010123C|10.1021/NP100517U|10.1021/NP980359P|10.1021/jf990008w|10.1021/np010123c|10.1021/np100517u|10.1039/P19730002721|10.1590/S0100-46702002000200033

>  <synonyms>  (1067) 
20-Hydroxytingenone|20\u221a\u00e9\u00ac\u00b1-Hydroxymaytenin, 20-hydroxy-20-epi-tingenone|CHEMBL1651342

>  <cas>  (1067) 
nan

$$$$

     RDKit          2D

 42 47  0  0  0  0  0  0  0  0999 V2000
    6.5402   -6.3934    0.0000 C   0  0  0  0  0  0  0  0  0  0  0  0
    7.3815   -5.1515    0.0000 O   0  0  0  0  0  0  0  0  0  0  0  0
    6.7266   -3.8020    0.0000 C   0  0  0  0  0  0  0  0  0  0  0  0
    5.2305   -3.6944    0.0000 C   0  0  0  0  0  0  0  0  0  0  0  0
    4.5757   -2.3448    0.0000 C   0  0  0  0  0  0  0  0  0  0  0  0
    5.4170   -1.1030    0.0000 C   0  0  0  0  0  0  0  0  0  0  0  0
    4.7621    0.2465    0.0000 C   0  0  0  0  0  0  0  0  0  0  0  0
    5.6034    1.4884    0.0000 C   0  0  0  0  0  0  0  0  0  0  0  0
    4.9486    2.8379    0.0000 C   0  0  0  0  0  0  0  0  0  0  0  0
    5.7899    4.0798    0.0000 O   0  0  0  0  0  0  0  0  0  0  0  0
    3.4524    2.9456    0.0000 C   0  0  0  0  0  0  0  0  0  0  0  0
    2.7976    4.2951    0.0000 C   0  0  0  0  0  0  0  0  0  0  0  0
    3.6389    5.5369    0.0000 O   0  0  0  0  0  0  0  0  0  0  0  0
    1.3015    4.4027    0.0000 C   0  0  0  0  0  0  0  0  0  0  0  0
    0.4602    3.1609    0.0000 C   0  0  0  0  0  0  0  0  0  0  0  0
   -1.0360    3.2685    0.0000 O   0  0  0  0  0  0  0  0  0  0  0  0
   -1.6908    4.6180    0.0000 C   0  0  0  0  0  0  0  0  0  0  0  0
    1.1150    1.8113    0.0000 C   0  0  0  0  0  0  0  0  0  0  0  0
    0.2737    0.5695    0.0000 C   0  0  0  0  0  0  0  0  0  0  0  0
   -1.2224    0.6771    0.0000 C   0  0  0  0  0  0  0  0  0  0  0  0
   -2.0637   -0.5647    0.0000 C   0  0  0  0  0  0  0  0  0  0  0  0
   -3.5598   -0.4571    0.0000 C   0  0  0  0  0  0  0  0  0  0  0  0
   -4.2147    0.8924    0.0000 C   0  0  0  0  0  0  0  0  0  0  0  0
   -5.7108    1.0001    0.0000 C   0  0  0  0  0  0  0  0  0  0  0  0
   -6.3656    2.3496    0.0000 O   0  0  0  0  0  0  0  0  0  0  0  0
   -6.5521   -0.2418    0.0000 C   0  0  0  0  0  0  0  0  0  0  0  0
   -8.0482   -0.1341    0.0000 C   0  0  0  0  0  0  0  0  0  0  0  0
   -8.7031    1.2154    0.0000 O   0  0  0  0  0  0  0  0  0  0  0  0
   -8.8895   -1.3760    0.0000 C   0  0  0  0  0  0  0  0  0  0  0  0
   -8.2347   -2.7255    0.0000 C   0  0  0  0  0  0  0  0  0  0  0  0
   -9.0760   -3.9674    0.0000 O   0  0  0  0  0  0  0  0  0  0  0  0
   -6.7386   -2.8332    0.0000 C   0  0  0  0  0  0  0  0  0  0  0  0
   -5.8973   -1.5913    0.0000 C   0  0  0  0  0  0  0  0  0  0  0  0
   -4.4011   -1.6989    0.0000 O   0  0  0  0  0  0  0  0  0  0  0  0
   -1.4089   -1.9142    0.0000 C   0  0  0  0  0  0  0  0  0  0  0  0
    0.0873   -2.0219    0.0000 C   0  0  0  0  0  0  0  0  0  0  0  0
    0.9286   -0.7800    0.0000 C   0  0  0  0  0  0  0  0  0  0  0  0
    2.4247   -0.8877    0.0000 O   0  0  0  0  0  0  0  0  0  0  0  0
    2.6111    1.7037    0.0000 C   0  0  0  0  0  0  0  0  0  0  0  0
    3.2660    0.3542    0.0000 O   0  0  0  0  0  0  0  0  0  0  0  0
    6.9131   -1.2106    0.0000 C   0  0  0  0  0  0  0  0  0  0  0  0
    7.5679   -2.5601    0.0000 C   0  0  0  0  0  0  0  0  0  0  0  0
  1  2  1  0
  2  3  1  0
  3  4  2  0
  4  5  1  0
  5  6  2  0
  6  7  1  0
  7  8  2  0
  8  9  1  0
  9 10  2  0
  9 11  1  0
 11 12  2  0
 12 13  1  0
 12 14  1  0
 14 15  2  0
 15 16  1  0
 16 17  1  0
 15 18  1  0
 18 19  1  0
 19 20  2  0
 20 21  1  0
 21 22  1  0
 22 23  2  0
 23 24  1  0
 24 25  2  0
 24 26  1  0
 26 27  2  0
 27 28  1  0
 27 29  1  0
 29 30  2  0
 30 31  1  0
 30 32  1  0
 32 33  2  0
 33 34  1  0
 21 35  2  0
 35 36  1  0
 36 37  2  0
 37 38  1  0
 18 39  2  0
 39 40  1  0
  6 41  1  0
 41 42  2  0
 42  3  1  0
 40  7  1  0
 39 11  1  0
 37 19  1  0
 34 22  1  0
 33 26  1  0
M  END
>  <identifier>  (1068) 
CNP0331454.0

>  <canonical_smiles>  (1068) 
COC1=CC=C(C2=CC(=O)C3=C(O)C=C(OC)C(C4=CC(C5=CC(=O)C6=C(O)C=C(O)C=C6O5)=CC=C4O)=C3O2)C=C1

>  <standard_inchi>  (1068) 
InChI=1S/C32H22O10/c1-39-18-6-3-15(4-7-18)25-13-23(37)31-24(38)14-27(40-2)29(32(31)42-25)19-9-16(5-8-20(19)34)26-12-22(36)30-21(35)10-17(33)11-28(30)41-26/h3-14,33-35,38H,1-2H3

>  <standard_inchi_key>  (1068) 
SQGLUEWZRKIEGS-UHFFFAOYSA-N

>  <name>  (1068) 
Di-O-methylamentoflavone

>  <iupac_name>  (1068) 
8-[5-(5,7-dihydroxy-4-oxo-chromen-2-yl)-2-hydroxy-phenyl]-5-hydroxy-7-methoxy-2-(4-methoxyphenyl)chromen-4-one

>  <annotation_level>  (1068) 
5

>  <total_atom_count>  (1068) 
64

>  <heavy_atom_count>  (1068) 
42

>  <molecular_weight>  (1068) 
566.52

>  <exact_molecular_weight>  (1068) 
566.1213

>  <molecular_formula>  (1068) 
C32H22O10

>  <alogp>  (1068) 
5.74

>  <topological_polar_surface_area>  (1068) 
159.80

>  <rotatable_bond_count>  (1068) 
5

>  <hydrogen_bond_acceptors>  (1068) 
10

>  <hydrogen_bond_donors>  (1068) 
4

>  <hydrogen_bond_acceptors_lipinski>  (1068) 
10

>  <hydrogen_bond_donors_lipinski>  (1068) 
4

>  <lipinski_rule_of_five_violations>  (1068) 
2

>  <aromatic_rings_count>  (1068) 
6

>  <qed_drug_likeliness>  (1068) 
0.20

>  <formal_charge>  (1068) 
0

>  <fractioncsp3>  (1068) 
0.06

>  <number_of_minimal_rings>  (1068) 
6

>  <van_der_walls_volume>  (1068) 
466.64

>  <contains_sugar>  (1068) 
False

>  <contains_ring_sugars>  (1068) 
False

>  <contains_linear_sugars>  (1068) 
False

>  <murcko_framework>  (1068) 
O1c2ccccc2CC=C1c3cccc(c3)-c4cccc5c4OC(=CC5)c6ccccc6

>  <np_likeness>  (1068) 
1.09

>  <chemical_class>  (1068) 
Flavonoids

>  <chemical_sub_class>  (1068) 
Biflavonoids and polyflavonoids

>  <chemical_super_class>  (1068) 
Phenylpropanoids and polyketides

>  <direct_parent_classification>  (1068) 
Biflavonoids and polyflavonoids

>  <np_classifier_pathway>  (1068) 
Shikimates and Phenylpropanoids

>  <np_classifier_superclass>  (1068) 
Flavonoids

>  <np_classifier_class>  (1068) 
Flavones

>  <np_classifier_is_glycoside>  (1068) 
False

>  <organisms>  (1068) 
Araucaria angustifolia|Callitris columellaris|Dacrydium spp.|Lagarostrobos spp.|Metasequoia glyptostroboides|Ouratea multiflora|Podocarpus latifolius|Taxodium distichum

>  <collections>  (1068) 
Australian natural products|ChemSpider NPs|KNApSaCK|Latin America dataset|NPEdia|NuBBEDB|Super Natural II|TCMDB-Taiwan (Traditional Chinese Medicine database)|TCMID (Traditional Chinese Medicine Integrated Database)|UNPD (Universal Natural Products Database)|WikiData Natural Products|ZINC NP

>  <dois>  (1068) 
10.1016/0031-9422(73)80042-1|10.1016/0031-9422(82)80065-4|10.1016/J.PHYTOCHEM.2009.03.003|10.1016/S0031-9422(00)89893-3|10.1590/S0102-695X2007000300003

>  <synonyms>  (1068) 
41583-84-0|4H-1-Benzopyran-4-one, 8-(5-(5,7-dihydroxy-4-oxo-4H-1-benzopyran-2-yl)-2-hydroxyphenyl)-5,7-dihydroxy-2-(4-hydroxyphenyl)-, dimethyl ether|7'',4'''-dimethylamentoflavone|8-[5-(5,7-Dihydroxy-4-oxo-4H-1-benzopyran-2-yl)-2-hydroxyphenyl]-5-hydroxy-7-methoxy-2-(4-methoxyphenyl)-4H-1-benzopyran-4-one|8-[5-(5,7-dihydroxy-4-oxochromen-2-yl)-2-hydroxyphenyl]-5-hydroxy-7-methoxy-2-(4-methoxyphenyl)chromen-4-one|AKOS040735044|Amentoflavone 7'',4'''-dimethyl ether|Amentoflavone dimethyl ether|Amentoflavone dimethyl ether, Di-O-methylamentoflavone|DTXSID00961824

>  <cas>  (1068) 
41583-84-0

$$$$

     RDKit          2D

 27 29  0  0  0  0  0  0  0  0999 V2000
   -5.6706   -1.5215    0.0000 O   0  0  0  0  0  0  0  0  0  0  0  0
   -4.3095   -2.1520    0.0000 C   0  0  0  0  0  0  0  0  0  0  0  0
   -4.1750   -3.6459    0.0000 O   0  0  0  0  0  0  0  0  0  0  0  0
   -3.0830   -1.2885    0.0000 C   0  0  0  0  0  0  0  0  0  0  0  0
   -3.2175    0.2055    0.0000 C   0  0  0  0  0  0  0  0  0  0  0  0
   -4.4177    1.1052    0.0000 C   0  0  0  0  0  0  0  0  0  0  0  0
   -3.9329    2.5247    0.0000 C   0  0  0  0  0  0  0  0  0  0  0  0
   -2.4331    2.5023    0.0000 C   0  0  0  0  0  0  0  0  0  0  0  0
   -1.5334    3.7025    0.0000 C   0  0  0  0  0  0  0  0  0  0  0  0
   -2.1230    5.0818    0.0000 O   0  0  0  0  0  0  0  0  0  0  0  0
   -1.9909    1.0689    0.0000 C   0  0  0  0  0  0  0  0  0  0  0  0
   -0.6299    0.4384    0.0000 C   0  0  0  0  0  0  0  0  0  0  0  0
    0.5967    1.3019    0.0000 O   0  0  0  0  0  0  0  0  0  0  0  0
    1.9577    0.6714    0.0000 C   0  0  0  0  0  0  0  0  0  0  0  0
    2.0922   -0.8226    0.0000 O   0  0  0  0  0  0  0  0  0  0  0  0
    3.4533   -1.4531    0.0000 C   0  0  0  0  0  0  0  0  0  0  0  0
    3.5878   -2.9470    0.0000 C   0  0  0  0  0  0  0  0  0  0  0  0
    2.3612   -3.8105    0.0000 O   0  0  0  0  0  0  0  0  0  0  0  0
    4.6799   -0.5896    0.0000 C   0  0  0  0  0  0  0  0  0  0  0  0
    6.0409   -1.2201    0.0000 O   0  0  0  0  0  0  0  0  0  0  0  0
    4.5454    0.9043    0.0000 C   0  0  0  0  0  0  0  0  0  0  0  0
    5.7719    1.7678    0.0000 O   0  0  0  0  0  0  0  0  0  0  0  0
    3.1843    1.5348    0.0000 C   0  0  0  0  0  0  0  0  0  0  0  0
    3.0498    3.0288    0.0000 O   0  0  0  0  0  0  0  0  0  0  0  0
   -0.4954   -1.0555    0.0000 O   0  0  0  0  0  0  0  0  0  0  0  0
   -1.7219   -1.9190    0.0000 C   0  0  0  0  0  0  0  0  0  0  0  0
   -1.5874   -3.4130    0.0000 O   0  0  0  0  0  0  0  0  0  0  0  0
  1  2  2  0
  2  3  1  0
  4  2  1  1
  4  5  1  0
  5  6  1  1
  6  7  2  0
  7  8  1  0
  8  9  1  6
  9 10  1  0
 11  8  1  1
 11 12  1  0
 12 13  1  6
 14 13  1  1
 14 15  1  0
 15 16  1  0
 16 17  1  1
 17 18  1  0
 16 19  1  0
 19 20  1  6
 19 21  1  0
 21 22  1  1
 21 23  1  0
 23 24  1  6
 12 25  1  0
 25 26  1  0
 26 27  1  6
 26  4  1  0
 11  5  1  0
 23 14  1  0
M  END
>  <identifier>  (1069) 
CNP0215902.1

>  <canonical_smiles>  (1069) 
O=C(O)[C@H]1[C@H]2C=C[C@H](CO)[C@H]2[C@H](O[C@@H]2O[C@H](CO)[C@@H](O)[C@H](O)[C@H]2O)O[C@@H]1O

>  <standard_inchi>  (1069) 
InChI=1S/C16H24O11/c17-3-5-1-2-6-8(5)15(26-14(24)9(6)13(22)23)27-16-12(21)11(20)10(19)7(4-18)25-16/h1-2,5-12,14-21,24H,3-4H2,(H,22,23)/t5-,6+,7-,8-,9-,10-,11+,12-,14+,15+,16+/m1/s1

>  <standard_inchi_key>  (1069) 
ICBIUHGRYOEHGD-MIVMOHNNSA-N

>  <name>  (1069) 
nan

>  <iupac_name>  (1069) 
(1~{S},3~{S},4~{S},4~{a}~{S},7~{S},7~{a}~{S})-3-hydroxy-7-(hydroxymethyl)-1-[(2~{S},3~{R},4~{S},5~{S},6~{R})-3,4,5-trihydroxy-6-(hydroxymethyl)tetrahydropyran-2-yl]oxy-1,3,4,4~{a},7,7~{a}-hexahydrocyclopenta[c]pyran-4-carboxylic acid

>  <annotation_level>  (1069) 
5

>  <total_atom_count>  (1069) 
51

>  <heavy_atom_count>  (1069) 
27

>  <molecular_weight>  (1069) 
392.36

>  <exact_molecular_weight>  (1069) 
392.13186

>  <molecular_formula>  (1069) 
C16H24O11

>  <alogp>  (1069) 
-3.41

>  <topological_polar_surface_area>  (1069) 
186.37

>  <rotatable_bond_count>  (1069) 
5

>  <hydrogen_bond_acceptors>  (1069) 
10

>  <hydrogen_bond_donors>  (1069) 
7

>  <hydrogen_bond_acceptors_lipinski>  (1069) 
10

>  <hydrogen_bond_donors_lipinski>  (1069) 
7

>  <lipinski_rule_of_five_violations>  (1069) 
1

>  <aromatic_rings_count>  (1069) 
0

>  <qed_drug_likeliness>  (1069) 
0.23

>  <formal_charge>  (1069) 
0

>  <fractioncsp3>  (1069) 
0.81

>  <number_of_minimal_rings>  (1069) 
3

>  <van_der_walls_volume>  (1069) 
327.15

>  <contains_sugar>  (1069) 
True

>  <contains_ring_sugars>  (1069) 
True

>  <contains_linear_sugars>  (1069) 
False

>  <murcko_framework>  (1069) 
O1CCCCC1OC2OCCC3C=CCC23

>  <np_likeness>  (1069) 
2.45

>  <chemical_class>  (1069) 
Prenol lipids

>  <chemical_sub_class>  (1069) 
Terpene glycosides

>  <chemical_super_class>  (1069) 
Lipids and lipid-like molecules

>  <direct_parent_classification>  (1069) 
Iridoid O-glycosides

>  <np_classifier_pathway>  (1069) 
Terpenoids

>  <np_classifier_superclass>  (1069) 
Monoterpenoids

>  <np_classifier_class>  (1069) 
Iridoids monoterpenoids

>  <np_classifier_is_glycoside>  (1069) 
True

>  <organisms>  (1069) 
Tocoyena formosa

>  <collections>  (1069) 
ChemSpider NPs|Latin America dataset|NuBBEDB|Super Natural II|WikiData Natural Products|ZINC NP

>  <dois>  (1069) 
10.1016/S0031-9422(97)00238-0

>  <synonyms>  (1069) 
Formosinoside

>  <cas>  (1069) 
nan

$$$$

     RDKit          2D

 28 29  0  0  0  0  0  0  0  0999 V2000
    3.3857    3.0279    0.0000 C   0  0  0  0  0  0  0  0  0  0  0  0
    3.2758    1.5320    0.0000 O   0  0  0  0  0  0  0  0  0  0  0  0
    4.5164    0.6888    0.0000 C   0  0  0  0  0  0  0  0  0  0  0  0
    4.4066   -0.8072    0.0000 C   0  0  0  0  0  0  0  0  0  0  0  0
    3.0561   -1.4600    0.0000 C   0  0  0  0  0  0  0  0  0  0  0  0
    1.8155   -0.6168    0.0000 C   0  0  0  0  0  0  0  0  0  0  0  0
    0.4650   -1.2696    0.0000 C   0  0  0  0  0  0  0  0  0  0  0  0
   -0.7756   -0.4265    0.0000 C   0  0  0  0  0  0  0  0  0  0  0  0
   -2.1261   -1.0793    0.0000 C   0  0  0  0  0  0  0  0  0  0  0  0
   -3.3667   -0.2361    0.0000 C   0  0  0  0  0  0  0  0  0  0  0  0
   -4.7172   -0.8889    0.0000 C   0  0  0  0  0  0  0  0  0  0  0  0
   -5.9578   -0.0458    0.0000 C   0  0  0  0  0  0  0  0  0  0  0  0
   -7.3083   -0.6986    0.0000 C   0  0  0  0  0  0  0  0  0  0  0  0
   -8.5489    0.1446    0.0000 C   0  0  0  0  0  0  0  0  0  0  0  0
   -9.8994   -0.5082    0.0000 C   0  0  0  0  0  0  0  0  0  0  0  0
  -11.1400    0.3349    0.0000 C   0  0  0  0  0  0  0  0  0  0  0  0
  -10.2969    1.5755    0.0000 C   0  0  0  0  0  0  0  0  0  0  0  0
  -11.9832   -0.9057    0.0000 C   0  0  0  0  0  0  0  0  0  0  0  0
  -12.3806    1.1781    0.0000 O   0  0  0  0  0  0  0  0  0  0  0  0
    5.6472   -1.6503    0.0000 N   0  0  0  0  0  0  0  0  0  0  0  0
    6.9976   -0.9975    0.0000 C   0  0  0  0  0  0  0  0  0  0  0  0
    8.2382   -1.8407    0.0000 C   0  0  0  0  0  0  0  0  0  0  0  0
    9.5887   -1.1878    0.0000 C   0  0  0  0  0  0  0  0  0  0  0  0
    9.6986    0.3081    0.0000 C   0  0  0  0  0  0  0  0  0  0  0  0
    8.4580    1.1513    0.0000 C   0  0  0  0  0  0  0  0  0  0  0  0
    7.1075    0.4985    0.0000 C   0  0  0  0  0  0  0  0  0  0  0  0
    5.8669    1.3416    0.0000 C   0  0  0  0  0  0  0  0  0  0  0  0
    5.9768    2.8376    0.0000 O   0  0  0  0  0  0  0  0  0  0  0  0
  1  2  1  0
  2  3  1  0
  3  4  2  0
  4  5  1  0
  5  6  1  0
  6  7  1  0
  7  8  1  0
  8  9  1  0
  9 10  1  0
 10 11  1  0
 11 12  1  0
 12 13  1  0
 13 14  1  0
 14 15  1  0
 15 16  1  0
 16 17  1  0
 16 18  1  0
 16 19  1  0
  4 20  1  0
 20 21  1  0
 21 22  2  0
 22 23  1  0
 23 24  2  0
 24 25  1  0
 25 26  2  0
 26 27  1  0
 27 28  2  0
 27  3  1  0
 26 21  1  0
M  END
>  <identifier>  (1070) 
CNP0141984.0

>  <canonical_smiles>  (1070) 
COC1=C(CCCCCCCCCCCC(C)(C)O)NC2=CC=CC=C2C1=O

>  <standard_inchi>  (1070) 
InChI=1S/C24H37NO3/c1-24(2,27)18-14-10-8-6-4-5-7-9-11-17-21-23(28-3)22(26)19-15-12-13-16-20(19)25-21/h12-13,15-16,27H,4-11,14,17-18H2,1-3H3,(H,25,26)

>  <standard_inchi_key>  (1070) 
YGBLPMULYMDIGU-UHFFFAOYSA-N

>  <name>  (1070) 
571203-44-6

>  <iupac_name>  (1070) 
2-(12-hydroxy-12-methyl-tridecyl)-3-methoxy-1~{H}-quinolin-4-one

>  <annotation_level>  (1070) 
5

>  <total_atom_count>  (1070) 
65

>  <heavy_atom_count>  (1070) 
28

>  <molecular_weight>  (1070) 
387.56

>  <exact_molecular_weight>  (1070) 
387.27734

>  <molecular_formula>  (1070) 
C24H37NO3

>  <alogp>  (1070) 
5.75

>  <topological_polar_surface_area>  (1070) 
62.32

>  <rotatable_bond_count>  (1070) 
13

>  <hydrogen_bond_acceptors>  (1070) 
3

>  <hydrogen_bond_donors>  (1070) 
2

>  <hydrogen_bond_acceptors_lipinski>  (1070) 
3

>  <hydrogen_bond_donors_lipinski>  (1070) 
2

>  <lipinski_rule_of_five_violations>  (1070) 
1

>  <aromatic_rings_count>  (1070) 
2

>  <qed_drug_likeliness>  (1070) 
0.43

>  <formal_charge>  (1070) 
0

>  <fractioncsp3>  (1070) 
0.63

>  <number_of_minimal_rings>  (1070) 
2

>  <van_der_walls_volume>  (1070) 
nan

>  <contains_sugar>  (1070) 
False

>  <contains_ring_sugars>  (1070) 
False

>  <contains_linear_sugars>  (1070) 
False

>  <murcko_framework>  (1070) 
c1ccc2c(c1)NC=CC2

>  <np_likeness>  (1070) 
0.71

>  <chemical_class>  (1070) 
Quinolines and derivatives

>  <chemical_sub_class>  (1070) 
Quinolones and derivatives

>  <chemical_super_class>  (1070) 
Organoheterocyclic compounds

>  <direct_parent_classification>  (1070) 
Hydroquinolones

>  <np_classifier_pathway>  (1070) 
Alkaloids

>  <np_classifier_superclass>  (1070) 
Tryptophan alkaloids

>  <np_classifier_class>  (1070) 
Quinoline alkaloids

>  <np_classifier_is_glycoside>  (1070) 
False

>  <organisms>  (1070) 
Dictyoloma vandellianum

>  <collections>  (1070) 
Latin America dataset|NuBBEDB|UNPD (Universal Natural Products Database)|WikiData Natural Products

>  <dois>  (1070) 
10.1016/S0031-9422(03)00006-2

>  <synonyms>  (1070) 
2-(12'-hydroxy-12'-methyltridecanyl)-3-methoxy-4-quinolone|2-(12-Hydroxy-12-methyltridecyl)-3-methoxyquinolin-4(1H)-one|DTXSID00850067

>  <cas>  (1070) 
nan

$$$$

     RDKit          2D

 38 42  0  0  0  0  0  0  0  0999 V2000
   -9.3422    0.6796    0.0000 C   0  0  0  0  0  0  0  0  0  0  0  0
   -7.8599    0.9095    0.0000 C   0  0  0  0  0  0  0  0  0  0  0  0
   -7.3179    2.3082    0.0000 O   0  0  0  0  0  0  0  0  0  0  0  0
   -6.9197   -0.2592    0.0000 O   0  0  0  0  0  0  0  0  0  0  0  0
   -5.4374   -0.0293    0.0000 C   0  0  0  0  0  0  0  0  0  0  0  0
   -4.8954    1.3693    0.0000 C   0  0  0  0  0  0  0  0  0  0  0  0
   -3.4131    1.5993    0.0000 C   0  0  0  0  0  0  0  0  0  0  0  0
   -2.4729    0.4305    0.0000 C   0  0  0  0  0  0  0  0  0  0  0  0
   -1.9308    1.8292    0.0000 C   0  0  0  0  0  0  0  0  0  0  0  0
   -0.9906    0.6604    0.0000 C   0  0  0  0  0  0  0  0  0  0  0  0
   -0.4486    2.0591    0.0000 C   0  0  0  0  0  0  0  0  0  0  0  0
    1.0337    2.2890    0.0000 C   0  0  0  0  0  0  0  0  0  0  0  0
    1.9740    1.1202    0.0000 C   0  0  0  0  0  0  0  0  0  0  0  0
    3.4562    1.3501    0.0000 C   0  0  0  0  0  0  0  0  0  0  0  0
    3.9983    2.7488    0.0000 C   0  0  0  0  0  0  0  0  0  0  0  0
    3.0580    3.9175    0.0000 C   0  0  0  0  0  0  0  0  0  0  0  0
    5.4806    2.9787    0.0000 C   0  0  0  0  0  0  0  0  0  0  0  0
    6.0226    4.3773    0.0000 C   0  0  0  0  0  0  0  0  0  0  0  0
    6.4208    1.8100    0.0000 C   0  0  0  0  0  0  0  0  0  0  0  0
    5.8788    0.4113    0.0000 C   0  0  0  0  0  0  0  0  0  0  0  0
    4.3965    0.1814    0.0000 C   0  0  0  0  0  0  0  0  0  0  0  0
    5.3367   -0.9873    0.0000 C   0  0  0  0  0  0  0  0  0  0  0  0
    3.8545   -1.2172    0.0000 C   0  0  0  0  0  0  0  0  0  0  0  0
    4.7947   -2.3860    0.0000 O   0  0  0  0  0  0  0  0  0  0  0  0
    4.2527   -3.7846    0.0000 C   0  0  0  0  0  0  0  0  0  0  0  0
    5.1929   -4.9533    0.0000 C   0  0  0  0  0  0  0  0  0  0  0  0
    2.7704   -4.0145    0.0000 O   0  0  0  0  0  0  0  0  0  0  0  0
    2.3722   -1.4471    0.0000 C   0  0  0  0  0  0  0  0  0  0  0  0
    1.4319   -0.2784    0.0000 C   0  0  0  0  0  0  0  0  0  0  0  0
    0.8899   -1.6770    0.0000 C   0  0  0  0  0  0  0  0  0  0  0  0
   -0.0503   -0.5083    0.0000 C   0  0  0  0  0  0  0  0  0  0  0  0
   -1.5326   -0.7382    0.0000 C   0  0  0  0  0  0  0  0  0  0  0  0
   -0.5924   -1.9070    0.0000 C   0  0  0  0  0  0  0  0  0  0  0  0
   -2.0747   -2.1369    0.0000 C   0  0  0  0  0  0  0  0  0  0  0  0
   -3.0149   -0.9681    0.0000 C   0  0  0  0  0  0  0  0  0  0  0  0
   -4.4972   -1.1980    0.0000 C   0  0  0  0  0  0  0  0  0  0  0  0
   -4.0134   -2.6179    0.0000 C   0  0  0  0  0  0  0  0  0  0  0  0
   -5.8114   -1.9210    0.0000 C   0  0  0  0  0  0  0  0  0  0  0  0
  1  2  1  0
  2  3  2  0
  2  4  1  0
  5  4  1  1
  5  6  1  0
  6  7  1  0
  7  8  1  0
  8  9  1  1
  8 10  1  0
 10 11  2  0
 11 12  1  0
 12 13  2  0
 13 14  1  0
 14 15  1  0
 15 16  1  1
 15 17  1  0
 17 18  1  6
 17 19  1  0
 19 20  1  0
 20 21  1  0
 21 22  1  1
 21 23  1  0
 23 24  1  1
 24 25  1  0
 25 26  1  0
 25 27  2  0
 23 28  1  0
 28 29  1  0
 29 30  1  6
 29 31  1  0
 31 32  1  1
 31 33  1  0
 33 34  1  0
 34 35  1  0
 35 36  1  0
 36 37  1  0
 36 38  1  0
 36  5  1  0
 35  8  1  0
 31 10  1  0
 29 13  1  0
 21 14  1  0
M  END
>  <identifier>  (1071) 
CNP0185029.1

>  <canonical_smiles>  (1071) 
CC(=O)O[C@H]1CC[C@]2(C)C3=CC=C4C5[C@@H](C)[C@H](C)CC[C@]5(C)[C@@H](OC(C)=O)C[C@@]4(C)[C@]3(C)CCC2C1(C)C

>  <standard_inchi>  (1071) 
InChI=1S/C34H52O4/c1-20-13-16-32(8)28(38-23(4)36)19-34(10)24(29(32)21(20)2)11-12-26-31(7)17-15-27(37-22(3)35)30(5,6)25(31)14-18-33(26,34)9/h11-12,20-21,25,27-29H,13-19H2,1-10H3/t20-,21+,25?,27+,28+,29?,31+,32-,33-,34-/m1/s1

>  <standard_inchi_key>  (1071) 
UWSPZPAUHRUHAW-YKSZGKEWSA-N

>  <name>  (1071) 
nan

>  <iupac_name>  (1071) 
[(3~{S},6~{a}~{S},6~{b}~{R},8~{S},8~{a}~{S},11~{R},12~{S},14~{b}~{S})-8-acetoxy-4,4,6~{a},6~{b},8~{a},11,12,14~{b}-octamethyl-2,3,4~{a},5,6,7,8,9,10,11,12,12~{a}-dodecahydro-1~{H}-picen-3-yl] acetate

>  <annotation_level>  (1071) 
4

>  <total_atom_count>  (1071) 
90

>  <heavy_atom_count>  (1071) 
38

>  <molecular_weight>  (1071) 
524.79

>  <exact_molecular_weight>  (1071) 
524.38656

>  <molecular_formula>  (1071) 
C34H52O4

>  <alogp>  (1071) 
8.06

>  <topological_polar_surface_area>  (1071) 
52.60

>  <rotatable_bond_count>  (1071) 
2

>  <hydrogen_bond_acceptors>  (1071) 
4

>  <hydrogen_bond_donors>  (1071) 
0

>  <hydrogen_bond_acceptors_lipinski>  (1071) 
4

>  <hydrogen_bond_donors_lipinski>  (1071) 
0

>  <lipinski_rule_of_five_violations>  (1071) 
2

>  <aromatic_rings_count>  (1071) 
0

>  <qed_drug_likeliness>  (1071) 
0.34

>  <formal_charge>  (1071) 
0

>  <fractioncsp3>  (1071) 
0.82

>  <number_of_minimal_rings>  (1071) 
5

>  <van_der_walls_volume>  (1071) 
nan

>  <contains_sugar>  (1071) 
False

>  <contains_ring_sugars>  (1071) 
False

>  <contains_linear_sugars>  (1071) 
False

>  <murcko_framework>  (1071) 
C=1C=C2C(CCC3CCCCC23)C4C1C5CCCCC5CC4

>  <np_likeness>  (1071) 
2.67

>  <chemical_class>  (1071) 
Prenol lipids

>  <chemical_sub_class>  (1071) 
Triterpenoids

>  <chemical_super_class>  (1071) 
Lipids and lipid-like molecules

>  <direct_parent_classification>  (1071) 
Taraxastane, ursane, and bauerane triterpenoids

>  <np_classifier_pathway>  (1071) 
Terpenoids

>  <np_classifier_superclass>  (1071) 
Triterpenoids

>  <np_classifier_class>  (1071) 
Ursane and Taraxastane triterpenoids

>  <np_classifier_is_glycoside>  (1071) 
False

>  <organisms>  (1071) 
Trattinnickia burserifolia

>  <collections>  (1071) 
Latin America dataset|NuBBEDB|WikiData Natural Products

>  <dois>  (1071) 
10.1590/S0103-50532004000300008

>  <synonyms>  (1071) 
3\u221a\u00e9\u00ac\u226416\u221a\u00e9\u00ac\u2264- diacetoxyurs-9(11)12-diene

>  <cas>  (1071) 
nan

$$$$

     RDKit          2D

 33 36  0  0  0  0  0  0  0  0999 V2000
    2.2572    5.6192    0.0000 C   0  0  0  0  0  0  0  0  0  0  0  0
    2.6259    4.1652    0.0000 C   0  0  0  0  0  0  0  0  0  0  0  0
    1.5511    3.1189    0.0000 C   0  0  0  0  0  0  0  0  0  0  0  0
    1.9199    1.6649    0.0000 C   0  0  0  0  0  0  0  0  0  0  0  0
    3.3634    1.2572    0.0000 C   0  0  0  0  0  0  0  0  0  0  0  0
    3.7322   -0.1967    0.0000 C   0  0  0  0  0  0  0  0  0  0  0  0
    5.1757   -0.6044    0.0000 O   0  0  0  0  0  0  0  0  0  0  0  0
    5.5444   -2.0584    0.0000 C   0  0  0  0  0  0  0  0  0  0  0  0
    2.6573   -1.2431    0.0000 C   0  0  0  0  0  0  0  0  0  0  0  0
    3.0261   -2.6970    0.0000 O   0  0  0  0  0  0  0  0  0  0  0  0
    1.9513   -3.7433    0.0000 C   0  0  0  0  0  0  0  0  0  0  0  0
    2.3200   -5.1973    0.0000 C   0  0  0  0  0  0  0  0  0  0  0  0
    0.5077   -3.3357    0.0000 O   0  0  0  0  0  0  0  0  0  0  0  0
    1.2138   -0.8354    0.0000 C   0  0  0  0  0  0  0  0  0  0  0  0
    0.1390   -1.8817    0.0000 O   0  0  0  0  0  0  0  0  0  0  0  0
   -0.8447   -1.8514    0.0000 C   0  0  0  0  0  0  0  0  0  0  0  0
    0.8451    0.6186    0.0000 C   0  0  0  0  0  0  0  0  0  0  0  0
   -0.5985    1.0262    0.0000 O   0  0  0  0  0  0  0  0  0  0  0  0
   -0.9672    2.4802    0.0000 C   0  0  0  0  0  0  0  0  0  0  0  0
   -2.4108    2.8878    0.0000 C   0  0  0  0  0  0  0  0  0  0  0  0
   -0.3960    3.0362    0.0000 O   0  0  0  0  0  0  0  0  0  0  0  0
    0.0134    0.1630    0.0000 C   0  0  0  0  0  0  0  0  0  0  0  0
   -1.3941   -0.3557    0.0000 C   0  0  0  0  0  0  0  0  0  0  0  0
   -1.6486   -1.8340    0.0000 C   0  0  0  0  0  0  0  0  0  0  0  0
   -3.0561   -2.3527    0.0000 C   0  0  0  0  0  0  0  0  0  0  0  0
   -4.2090   -1.3931    0.0000 C   0  0  0  0  0  0  0  0  0  0  0  0
   -5.6936   -1.6079    0.0000 O   0  0  0  0  0  0  0  0  0  0  0  0
   -6.3566   -0.2623    0.0000 C   0  0  0  0  0  0  0  0  0  0  0  0
   -5.2817    0.7840    0.0000 O   0  0  0  0  0  0  0  0  0  0  0  0
   -3.9545    0.0851    0.0000 C   0  0  0  0  0  0  0  0  0  0  0  0
   -2.5470    0.6038    0.0000 C   0  0  0  0  0  0  0  0  0  0  0  0
    0.4210    1.6065    0.0000 C   0  0  0  0  0  0  0  0  0  0  0  0
    0.0939    2.3335    0.0000 C   0  0  0  0  0  0  0  0  0  0  0  0
  1  2  2  0
  2  3  1  0
  4  3  1  1
  4  5  1  0
  5  6  2  0
  6  7  1  0
  7  8  1  0
  6  9  1  0
  9 10  1  6
 10 11  1  0
 11 12  1  0
 11 13  2  0
  9 14  1  0
 14 15  1  1
 15 16  1  0
 14 17  1  0
 17 18  1  0
 18 19  1  0
 19 20  1  0
 19 21  2  0
 14 22  1  0
 22 23  1  1
 23 24  2  0
 24 25  1  0
 25 26  2  0
 26 27  1  0
 27 28  1  0
 28 29  1  0
 29 30  1  0
 30 31  2  0
 22 32  1  0
 32 33  1  6
 17  4  1  0
 31 23  1  0
 32  4  1  0
 30 26  1  0
M  END
>  <identifier>  (1072) 
CNP0080465.2

>  <canonical_smiles>  (1072) 
C=CC[C@@]12C=C(OC)[C@H](OC(C)=O)[C@@](OC)(C1OC(C)=O)[C@@H](C1=CC=C3OCOC3=C1)[C@@H]2C

>  <standard_inchi>  (1072) 
InChI=1S/C25H30O8/c1-7-10-24-12-20(28-5)22(32-15(3)26)25(29-6,23(24)33-16(4)27)21(14(24)2)17-8-9-18-19(11-17)31-13-30-18/h7-9,11-12,14,21-23H,1,10,13H2,2-6H3/t14-,21+,22-,23?,24-,25+/m0/s1

>  <standard_inchi_key>  (1072) 
CWNJRIFALHNITA-OFKLOCHFSA-N

>  <name>  (1072) 
nan

>  <iupac_name>  (1072) 
[(1~{S},2~{S},5~{R},6~{S},7~{R})-8-acetoxy-5-allyl-7-(1,3-benzodioxol-5-yl)-1,3-dimethoxy-6-methyl-2-bicyclo[3.2.1]oct-3-enyl] acetate

>  <annotation_level>  (1072) 
4

>  <total_atom_count>  (1072) 
63

>  <heavy_atom_count>  (1072) 
33

>  <molecular_weight>  (1072) 
458.51

>  <exact_molecular_weight>  (1072) 
458.19407

>  <molecular_formula>  (1072) 
C25H30O8

>  <alogp>  (1072) 
3.50

>  <topological_polar_surface_area>  (1072) 
89.52

>  <rotatable_bond_count>  (1072) 
7

>  <hydrogen_bond_acceptors>  (1072) 
8

>  <hydrogen_bond_donors>  (1072) 
0

>  <hydrogen_bond_acceptors_lipinski>  (1072) 
8

>  <hydrogen_bond_donors_lipinski>  (1072) 
0

>  <lipinski_rule_of_five_violations>  (1072) 
0

>  <aromatic_rings_count>  (1072) 
1

>  <qed_drug_likeliness>  (1072) 
0.45

>  <formal_charge>  (1072) 
0

>  <fractioncsp3>  (1072) 
0.52

>  <number_of_minimal_rings>  (1072) 
4

>  <van_der_walls_volume>  (1072) 
nan

>  <contains_sugar>  (1072) 
False

>  <contains_ring_sugars>  (1072) 
False

>  <contains_linear_sugars>  (1072) 
False

>  <murcko_framework>  (1072) 
O1c2ccc(cc2OC1)C3CC4C=CCC3C4

>  <np_likeness>  (1072) 
1.72

>  <chemical_class>  (1072) 
Benzodioxoles

>  <chemical_sub_class>  (1072) 
Benzodioxoles

>  <chemical_super_class>  (1072) 
Organoheterocyclic compounds

>  <direct_parent_classification>  (1072) 
Benzodioxoles

>  <np_classifier_pathway>  (1072) 
Shikimates and Phenylpropanoids

>  <np_classifier_superclass>  (1072) 
Lignans

>  <np_classifier_class>  (1072) 
Neolignans

>  <np_classifier_is_glycoside>  (1072) 
False

>  <organisms>  (1072) 
Ocotea catharinensis

>  <collections>  (1072) 
Latin America dataset|NuBBEDB|WikiData Natural Products

>  <dois>  (1072) 
10.1016/0031-9422(83)83046-5|10.1016/0031-9422(91)83479-5

>  <synonyms>  (1072) 
rel-(7R8S1'R2'R3'S4'S)-D-2'4'-Diacetate-3'5'-dimethoxy-34-methylenedioxy-1'2'3'4'-tetrahydro-73'81'-neolignan

>  <cas>  (1072) 
nan

$$$$

     RDKit          2D

 28 30  0  0  0  0  0  0  0  0999 V2000
   -7.7977   -1.3183    0.0000 C   0  0  0  0  0  0  0  0  0  0  0  0
   -6.4580   -0.6435    0.0000 C   0  0  0  0  0  0  0  0  0  0  0  0
   -5.2039   -1.4663    0.0000 C   0  0  0  0  0  0  0  0  0  0  0  0
   -3.8642   -0.7915    0.0000 C   0  0  0  0  0  0  0  0  0  0  0  0
   -3.7787    0.7060    0.0000 C   0  0  0  0  0  0  0  0  0  0  0  0
   -2.4391    1.3808    0.0000 C   0  0  0  0  0  0  0  0  0  0  0  0
   -2.3536    2.8784    0.0000 O   0  0  0  0  0  0  0  0  0  0  0  0
   -3.6078    3.7012    0.0000 C   0  0  0  0  0  0  0  0  0  0  0  0
   -1.1849    0.5580    0.0000 C   0  0  0  0  0  0  0  0  0  0  0  0
    0.1548    1.2328    0.0000 O   0  0  0  0  0  0  0  0  0  0  0  0
   -1.2703   -0.9396    0.0000 C   0  0  0  0  0  0  0  0  0  0  0  0
   -2.6100   -1.6143    0.0000 C   0  0  0  0  0  0  0  0  0  0  0  0
   -2.6955   -3.1119    0.0000 O   0  0  0  0  0  0  0  0  0  0  0  0
   -0.2048    0.1161    0.0000 C   0  0  0  0  0  0  0  0  0  0  0  0
    1.2757   -0.1254    0.0000 C   0  0  0  0  0  0  0  0  0  0  0  0
    1.8067   -1.5283    0.0000 C   0  0  0  0  0  0  0  0  0  0  0  0
    3.2871   -1.7698    0.0000 C   0  0  0  0  0  0  0  0  0  0  0  0
    3.8182   -3.1726    0.0000 O   0  0  0  0  0  0  0  0  0  0  0  0
    2.8688   -4.3340    0.0000 C   0  0  0  0  0  0  0  0  0  0  0  0
    4.2365   -0.6085    0.0000 C   0  0  0  0  0  0  0  0  0  0  0  0
    5.7169   -0.8500    0.0000 O   0  0  0  0  0  0  0  0  0  0  0  0
    6.6663    0.3113    0.0000 C   0  0  0  0  0  0  0  0  0  0  0  0
    3.7055    0.7944    0.0000 C   0  0  0  0  0  0  0  0  0  0  0  0
    4.6549    1.9557    0.0000 O   0  0  0  0  0  0  0  0  0  0  0  0
    4.1238    3.3586    0.0000 C   0  0  0  0  0  0  0  0  0  0  0  0
    2.2251    1.0359    0.0000 C   0  0  0  0  0  0  0  0  0  0  0  0
   -0.8795    1.4558    0.0000 C   0  0  0  0  0  0  0  0  0  0  0  0
   -0.1923    2.7891    0.0000 C   0  0  0  0  0  0  0  0  0  0  0  0
  1  2  2  0
  2  3  1  0
  3  4  1  0
  4  5  2  0
  5  6  1  0
  6  7  1  6
  7  8  1  0
  6  9  1  0
  9 10  2  0
  9 11  1  0
 11 12  1  6
 12 13  2  0
 11 14  1  0
 14 15  1  1
 15 16  2  0
 16 17  1  0
 17 18  1  0
 18 19  1  0
 17 20  2  0
 20 21  1  0
 21 22  1  0
 20 23  1  0
 23 24  1  0
 24 25  1  0
 23 26  2  0
 14 27  1  0
 27 28  1  6
 12  4  1  0
 26 15  1  0
 27  6  1  0
M  END
>  <identifier>  (1073) 
CNP0307126.1

>  <canonical_smiles>  (1073) 
C=CCC1=C[C@]2(OC)C(=O)[C@@H](C1=O)[C@H](C1=CC(OC)=C(OC)C(OC)=C1)[C@H]2C

>  <standard_inchi>  (1073) 
InChI=1S/C22H26O6/c1-7-8-13-11-22(28-6)12(2)17(18(19(13)23)21(22)24)14-9-15(25-3)20(27-5)16(10-14)26-4/h7,9-12,17-18H,1,8H2,2-6H3/t12-,17+,18-,22-/m1/s1

>  <standard_inchi_key>  (1073) 
FLIHMBQDBZWUAD-LTALHYLXSA-N

>  <name>  (1073) 
nan

>  <iupac_name>  (1073) 
(1~{R},5~{S},6~{R},7~{R})-3-allyl-5-methoxy-6-methyl-7-(3,4,5-trimethoxyphenyl)bicyclo[3.2.1]oct-3-ene-2,8-dione

>  <annotation_level>  (1073) 
3

>  <total_atom_count>  (1073) 
54

>  <heavy_atom_count>  (1073) 
28

>  <molecular_weight>  (1073) 
386.44

>  <exact_molecular_weight>  (1073) 
386.17294

>  <molecular_formula>  (1073) 
C22H26O6

>  <alogp>  (1073) 
3.10

>  <topological_polar_surface_area>  (1073) 
71.06

>  <rotatable_bond_count>  (1073) 
7

>  <hydrogen_bond_acceptors>  (1073) 
6

>  <hydrogen_bond_donors>  (1073) 
0

>  <hydrogen_bond_acceptors_lipinski>  (1073) 
6

>  <hydrogen_bond_donors_lipinski>  (1073) 
0

>  <lipinski_rule_of_five_violations>  (1073) 
0

>  <aromatic_rings_count>  (1073) 
1

>  <qed_drug_likeliness>  (1073) 
0.53

>  <formal_charge>  (1073) 
0

>  <fractioncsp3>  (1073) 
0.46

>  <number_of_minimal_rings>  (1073) 
3

>  <van_der_walls_volume>  (1073) 
nan

>  <contains_sugar>  (1073) 
False

>  <contains_ring_sugars>  (1073) 
False

>  <contains_linear_sugars>  (1073) 
False

>  <murcko_framework>  (1073) 
c1ccc(cc1)C2CC3C=CCC2C3

>  <np_likeness>  (1073) 
1.86

>  <chemical_class>  (1073) 
Phenol ethers

>  <chemical_sub_class>  (1073) 
Anisoles

>  <chemical_super_class>  (1073) 
Benzenoids

>  <direct_parent_classification>  (1073) 
Anisoles

>  <np_classifier_pathway>  (1073) 
Shikimates and Phenylpropanoids

>  <np_classifier_superclass>  (1073) 
Lignans

>  <np_classifier_class>  (1073) 
Neolignans

>  <np_classifier_is_glycoside>  (1073) 
False

>  <organisms>  (1073) 
Nectandra|Nectandra sp.

>  <collections>  (1073) 
Latin America dataset|NuBBEDB|WikiData Natural Products

>  <dois>  (1073) 
10.1016/0031-9422(80)87033-6

>  <synonyms>  (1073) 
nan

>  <cas>  (1073) 
nan

$$$$

     RDKit          2D

 21 23  0  0  0  0  0  0  0  0999 V2000
   -5.7523   -0.1331    0.0000 C   0  0  0  0  0  0  0  0  0  0  0  0
   -4.2668   -0.3407    0.0000 C   0  0  0  0  0  0  0  0  0  0  0  0
   -3.7038   -1.7310    0.0000 C   0  0  0  0  0  0  0  0  0  0  0  0
   -4.6263   -2.9138    0.0000 O   0  0  0  0  0  0  0  0  0  0  0  0
   -2.2182   -1.9386    0.0000 C   0  0  0  0  0  0  0  0  0  0  0  0
   -1.2956   -0.7559    0.0000 C   0  0  0  0  0  0  0  0  0  0  0  0
    0.1899   -0.9634    0.0000 O   0  0  0  0  0  0  0  0  0  0  0  0
    1.1125    0.2193    0.0000 C   0  0  0  0  0  0  0  0  0  0  0  0
    2.5980    0.0117    0.0000 C   0  0  0  0  0  0  0  0  0  0  0  0
    3.1611   -1.3786    0.0000 C   0  0  0  0  0  0  0  0  0  0  0  0
    4.6466   -1.5862    0.0000 C   0  0  0  0  0  0  0  0  0  0  0  0
    5.5692   -0.4034    0.0000 C   0  0  0  0  0  0  0  0  0  0  0  0
    7.0548   -0.6110    0.0000 O   0  0  0  0  0  0  0  0  0  0  0  0
    5.0062    0.9869    0.0000 C   0  0  0  0  0  0  0  0  0  0  0  0
    3.5206    1.1945    0.0000 C   0  0  0  0  0  0  0  0  0  0  0  0
    0.5495    1.6096    0.0000 C   0  0  0  0  0  0  0  0  0  0  0  0
   -0.9361    1.8172    0.0000 C   0  0  0  0  0  0  0  0  0  0  0  0
   -1.4991    3.2075    0.0000 O   0  0  0  0  0  0  0  0  0  0  0  0
   -1.8587    0.6345    0.0000 C   0  0  0  0  0  0  0  0  0  0  0  0
   -3.3442    0.8420    0.0000 C   0  0  0  0  0  0  0  0  0  0  0  0
   -3.9072    2.2324    0.0000 O   0  0  0  0  0  0  0  0  0  0  0  0
  1  2  1  0
  2  3  2  0
  3  4  1  0
  3  5  1  0
  5  6  2  0
  6  7  1  0
  7  8  1  0
  8  9  1  6
  9 10  2  0
 10 11  1  0
 11 12  2  0
 12 13  1  0
 12 14  1  0
 14 15  2  0
  8 16  1  0
 16 17  1  0
 17 18  2  0
 17 19  1  0
 19 20  2  0
 20 21  1  0
 20  2  1  0
 19  6  1  0
 15  9  1  0
M  END
>  <identifier>  (1074) 
CNP0247452.1

>  <canonical_smiles>  (1074) 
CC1=C(O)C=C2O[C@@H](C3=CC=C(O)C=C3)CC(=O)C2=C1O

>  <standard_inchi>  (1074) 
InChI=1S/C16H14O5/c1-8-11(18)6-14-15(16(8)20)12(19)7-13(21-14)9-2-4-10(17)5-3-9/h2-6,13,17-18,20H,7H2,1H3/t13-/m1/s1

>  <standard_inchi_key>  (1074) 
SLFZBNOERHGNMI-CYBMUJFWSA-N

>  <name>  (1074) 
DTXSID801133583

>  <iupac_name>  (1074) 
(2~{R})-5,7-dihydroxy-2-(4-hydroxyphenyl)-6-methyl-chroman-4-one

>  <annotation_level>  (1074) 
5

>  <total_atom_count>  (1074) 
35

>  <heavy_atom_count>  (1074) 
21

>  <molecular_weight>  (1074) 
286.28

>  <exact_molecular_weight>  (1074) 
286.08412

>  <molecular_formula>  (1074) 
C16H14O5

>  <alogp>  (1074) 
2.82

>  <topological_polar_surface_area>  (1074) 
86.99

>  <rotatable_bond_count>  (1074) 
1

>  <hydrogen_bond_acceptors>  (1074) 
5

>  <hydrogen_bond_donors>  (1074) 
3

>  <hydrogen_bond_acceptors_lipinski>  (1074) 
5

>  <hydrogen_bond_donors_lipinski>  (1074) 
3

>  <lipinski_rule_of_five_violations>  (1074) 
0

>  <aromatic_rings_count>  (1074) 
2

>  <qed_drug_likeliness>  (1074) 
0.75

>  <formal_charge>  (1074) 
0

>  <fractioncsp3>  (1074) 
0.19

>  <number_of_minimal_rings>  (1074) 
3

>  <van_der_walls_volume>  (1074) 
245.82

>  <contains_sugar>  (1074) 
False

>  <contains_ring_sugars>  (1074) 
False

>  <contains_linear_sugars>  (1074) 
False

>  <murcko_framework>  (1074) 
O1c2ccccc2CCC1c3ccccc3

>  <np_likeness>  (1074) 
1.90

>  <chemical_class>  (1074) 
Flavonoids

>  <chemical_sub_class>  (1074) 
Flavans

>  <chemical_super_class>  (1074) 
Phenylpropanoids and polyketides

>  <direct_parent_classification>  (1074) 
Flavanones

>  <np_classifier_pathway>  (1074) 
Shikimates and Phenylpropanoids

>  <np_classifier_superclass>  (1074) 
Flavonoids

>  <np_classifier_class>  (1074) 
Flavanones

>  <np_classifier_is_glycoside>  (1074) 
False

>  <organisms>  (1074) 
Bonnemaisonia asparagoides|Lepechinia caulescens|Maprounea guianensis|Peritassa campestris|Pseudomonas fluorescens|Pseudotsuga sinensis var. sinensis|Pseudotsuga sinensis var. wilsoniana|Qualea labouriauana

>  <collections>  (1074) 
CMAUP (cCollective molecular activities of useful plants)|Latin America dataset|NPASS|NuBBEDB|Super Natural II|TCMDB-Taiwan (Traditional Chinese Medicine database)|WikiData Natural Products|ZINC NP

>  <dois>  (1074) 
10.1016/0031-9422(81)85112-6|10.1016/S0031-9422(97)00671-7

>  <synonyms>  (1074) 
(2R)-2,3-Dihydro-5,7-dihydroxy-2-(4-hydroxyphenyl)-6-methyl-4H-1-benzopyran-4-one|(2r)-5,7,4'-trihydroxy-6-methylflavanone|206560-98-7

>  <cas>  (1074) 
206560-98-7

$$$$

     RDKit          2D

 18 19  0  0  0  0  0  0  0  0999 V2000
   -1.1286   -3.1087    0.0000 C   0  0  0  0  0  0  0  0  0  0  0  0
   -1.1064   -1.6088    0.0000 O   0  0  0  0  0  0  0  0  0  0  0  0
   -2.3942   -0.8397    0.0000 C   0  0  0  0  0  0  0  0  0  0  0  0
   -3.7042   -1.5704    0.0000 C   0  0  0  0  0  0  0  0  0  0  0  0
   -4.9920   -0.8013    0.0000 C   0  0  0  0  0  0  0  0  0  0  0  0
   -4.9699    0.6985    0.0000 C   0  0  0  0  0  0  0  0  0  0  0  0
   -3.6599    1.4292    0.0000 C   0  0  0  0  0  0  0  0  0  0  0  0
   -2.3721    0.6601    0.0000 C   0  0  0  0  0  0  0  0  0  0  0  0
   -1.0621    1.3908    0.0000 C   0  0  0  0  0  0  0  0  0  0  0  0
   -1.0399    2.8907    0.0000 O   0  0  0  0  0  0  0  0  0  0  0  0
    0.2257    0.6217    0.0000 O   0  0  0  0  0  0  0  0  0  0  0  0
    1.5357    1.3525    0.0000 C   0  0  0  0  0  0  0  0  0  0  0  0
    2.8235    0.5833    0.0000 C   0  0  0  0  0  0  0  0  0  0  0  0
    2.8013   -0.9165    0.0000 C   0  0  0  0  0  0  0  0  0  0  0  0
    4.0892   -1.6856    0.0000 C   0  0  0  0  0  0  0  0  0  0  0  0
    5.3991   -0.9549    0.0000 C   0  0  0  0  0  0  0  0  0  0  0  0
    5.4213    0.5450    0.0000 C   0  0  0  0  0  0  0  0  0  0  0  0
    4.1335    1.3141    0.0000 C   0  0  0  0  0  0  0  0  0  0  0  0
  1  2  1  0
  2  3  1  0
  3  4  2  0
  4  5  1  0
  5  6  2  0
  6  7  1  0
  7  8  2  0
  8  9  1  0
  9 10  2  0
  9 11  1  0
 11 12  1  0
 12 13  1  0
 13 14  2  0
 14 15  1  0
 15 16  2  0
 16 17  1  0
 17 18  2  0
  8  3  1  0
 18 13  1  0
M  END
>  <identifier>  (1075) 
CNP0301603.0

>  <canonical_smiles>  (1075) 
COC1=CC=CC=C1C(=O)OCC1=CC=CC=C1

>  <standard_inchi>  (1075) 
InChI=1S/C15H14O3/c1-17-14-10-6-5-9-13(14)15(16)18-11-12-7-3-2-4-8-12/h2-10H,11H2,1H3

>  <standard_inchi_key>  (1075) 
QEQSUVJMTPTKRW-UHFFFAOYSA-N

>  <name>  (1075) 
Benzyl 2-methoxybenzoate

>  <iupac_name>  (1075) 
benzyl 2-methoxybenzoate

>  <annotation_level>  (1075) 
5

>  <total_atom_count>  (1075) 
32

>  <heavy_atom_count>  (1075) 
18

>  <molecular_weight>  (1075) 
242.27

>  <exact_molecular_weight>  (1075) 
242.09429

>  <molecular_formula>  (1075) 
C15H14O3

>  <alogp>  (1075) 
3.05

>  <topological_polar_surface_area>  (1075) 
35.53

>  <rotatable_bond_count>  (1075) 
4

>  <hydrogen_bond_acceptors>  (1075) 
3

>  <hydrogen_bond_donors>  (1075) 
0

>  <hydrogen_bond_acceptors_lipinski>  (1075) 
3

>  <hydrogen_bond_donors_lipinski>  (1075) 
0

>  <lipinski_rule_of_five_violations>  (1075) 
0

>  <aromatic_rings_count>  (1075) 
2

>  <qed_drug_likeliness>  (1075) 
0.77

>  <formal_charge>  (1075) 
0

>  <fractioncsp3>  (1075) 
0.13

>  <number_of_minimal_rings>  (1075) 
2

>  <van_der_walls_volume>  (1075) 
223.84

>  <contains_sugar>  (1075) 
False

>  <contains_ring_sugars>  (1075) 
False

>  <contains_linear_sugars>  (1075) 
False

>  <murcko_framework>  (1075) 
O(Cc1ccccc1)Cc2ccccc2

>  <np_likeness>  (1075) 
-0.53

>  <chemical_class>  (1075) 
Benzene and substituted derivatives

>  <chemical_sub_class>  (1075) 
Benzoic acids and derivatives

>  <chemical_super_class>  (1075) 
Benzenoids

>  <direct_parent_classification>  (1075) 
O-methoxybenzoic acids and derivatives

>  <np_classifier_pathway>  (1075) 
Shikimates and Phenylpropanoids

>  <np_classifier_superclass>  (1075) 
Phenolic acids (C6-C1)

>  <np_classifier_class>  (1075) 
Simple phenolic acids

>  <np_classifier_is_glycoside>  (1075) 
False

>  <organisms>  (1075) 
Ageratina anisochroma|Anemone coronaria|Aniba ferrea|Asplenium ruprechtii|Astroloma humifusum|Bassia longifolia|Desmos chinensis|Eugenia exsucca|Friesodielsia velutina|Uvaria grandiflora|Uvaria kirkii

>  <collections>  (1075) 
CMAUP (cCollective molecular activities of useful plants)|Latin America dataset|NAPRORE-CR|NPASS|NuBBEDB|UNPD (Universal Natural Products Database)|WikiData Natural Products|ZINC NP

>  <dois>  (1075) 
10.1016/0031-9422(80)83081-0|10.1016/0031-9422(84)83114-3|10.1016/0031-9422(88)80683-6|10.1016/J.TET.2011.05.070|10.1016/S0031-9422(00)95214-2|10.1021/NP50042A028

>  <synonyms>  (1075) 
2-Methoxybenzoic acid, benzyl ester|75679-47-9|AKOS003503245|Benzoic acid, 2-methoxy-, phenylmethyl ester|Benzyl 2-methoxybenzoate #|DTXSID30342829|QEQSUVJMTPTKRW-UHFFFAOYSA-N|SCHEMBL8432905

>  <cas>  (1075) 
75679-47-9

$$$$

     RDKit          2D

 40 45  0  0  0  0  0  0  0  0999 V2000
    6.0938   -2.6781    0.0000 O   0  0  0  0  0  0  0  0  0  0  0  0
    5.5217   -1.2915    0.0000 C   0  0  0  0  0  0  0  0  0  0  0  0
    4.0348   -1.0937    0.0000 C   0  0  0  0  0  0  0  0  0  0  0  0
    3.4626    0.2929    0.0000 C   0  0  0  0  0  0  0  0  0  0  0  0
    1.9757    0.4907    0.0000 C   0  0  0  0  0  0  0  0  0  0  0  0
    1.4036    1.8773    0.0000 C   0  0  0  0  0  0  0  0  0  0  0  0
   -0.0833    2.0751    0.0000 C   0  0  0  0  0  0  0  0  0  0  0  0
   -0.9981    0.8863    0.0000 C   0  0  0  0  0  0  0  0  0  0  0  0
   -2.4850    1.0841    0.0000 O   0  0  0  0  0  0  0  0  0  0  0  0
   -0.4259   -0.5003    0.0000 C   0  0  0  0  0  0  0  0  0  0  0  0
   -1.3407   -1.6891    0.0000 C   0  0  0  0  0  0  0  0  0  0  0  0
   -0.7686   -3.0757    0.0000 C   0  0  0  0  0  0  0  0  0  0  0  0
    0.7183   -3.2735    0.0000 O   0  0  0  0  0  0  0  0  0  0  0  0
   -1.6833   -4.2645    0.0000 C   0  0  0  0  0  0  0  0  0  0  0  0
   -3.1702   -4.0667    0.0000 C   0  0  0  0  0  0  0  0  0  0  0  0
   -4.0850   -5.2555    0.0000 O   0  0  0  0  0  0  0  0  0  0  0  0
   -3.7424   -2.6801    0.0000 C   0  0  0  0  0  0  0  0  0  0  0  0
   -2.8276   -1.4913    0.0000 C   0  0  0  0  0  0  0  0  0  0  0  0
   -3.3997   -0.1047    0.0000 O   0  0  0  0  0  0  0  0  0  0  0  0
   -4.8866    0.0931    0.0000 C   0  0  0  0  0  0  0  0  0  0  0  0
   -5.4588    1.4797    0.0000 C   0  0  0  0  0  0  0  0  0  0  0  0
   -4.5440    2.6685    0.0000 C   0  0  0  0  0  0  0  0  0  0  0  0
   -5.1162    4.0551    0.0000 C   0  0  0  0  0  0  0  0  0  0  0  0
   -6.6031    4.2529    0.0000 C   0  0  0  0  0  0  0  0  0  0  0  0
   -7.1752    5.6395    0.0000 O   0  0  0  0  0  0  0  0  0  0  0  0
   -7.5178    3.0641    0.0000 C   0  0  0  0  0  0  0  0  0  0  0  0
   -6.9457    1.6775    0.0000 C   0  0  0  0  0  0  0  0  0  0  0  0
   -5.8014   -1.0957    0.0000 C   0  0  0  0  0  0  0  0  0  0  0  0
   -5.2293   -2.4823    0.0000 C   0  0  0  0  0  0  0  0  0  0  0  0
   -6.1440   -3.6710    0.0000 O   0  0  0  0  0  0  0  0  0  0  0  0
    1.0610   -0.6981    0.0000 C   0  0  0  0  0  0  0  0  0  0  0  0
    4.3774    1.4817    0.0000 O   0  0  0  0  0  0  0  0  0  0  0  0
    5.8643    1.2839    0.0000 C   0  0  0  0  0  0  0  0  0  0  0  0
    6.7790    2.4727    0.0000 C   0  0  0  0  0  0  0  0  0  0  0  0
    8.2659    2.2749    0.0000 C   0  0  0  0  0  0  0  0  0  0  0  0
    9.1807    3.4636    0.0000 O   0  0  0  0  0  0  0  0  0  0  0  0
    8.8381    0.8883    0.0000 C   0  0  0  0  0  0  0  0  0  0  0  0
    7.9233   -0.3005    0.0000 C   0  0  0  0  0  0  0  0  0  0  0  0
    8.4955   -1.6871    0.0000 O   0  0  0  0  0  0  0  0  0  0  0  0
    6.4364   -0.1027    0.0000 C   0  0  0  0  0  0  0  0  0  0  0  0
  1  2  2  0
  2  3  1  0
  3  4  2  0
  4  5  1  0
  5  6  2  0
  6  7  1  0
  7  8  2  0
  8  9  1  0
  8 10  1  0
 10 11  1  0
 11 12  2  0
 12 13  1  0
 12 14  1  0
 14 15  2  0
 15 16  1  0
 15 17  1  0
 17 18  2  0
 18 19  1  0
 19 20  1  0
 20 21  1  0
 21 22  2  0
 22 23  1  0
 23 24  2  0
 24 25  1  0
 24 26  1  0
 26 27  2  0
 20 28  2  0
 28 29  1  0
 29 30  2  0
 10 31  2  0
  4 32  1  0
 32 33  1  0
 33 34  2  0
 34 35  1  0
 35 36  1  0
 35 37  2  0
 37 38  1  0
 38 39  1  0
 38 40  2  0
 40  2  1  0
 31  5  1  0
 40 33  1  0
 18 11  1  0
 27 21  1  0
 29 17  1  0
M  END
>  <identifier>  (1076) 
CNP0311925.0

>  <canonical_smiles>  (1076) 
O=C1C=C(C2=CC=C(O)C(C3=C(O)C=C(O)C4=C3OC(C3=CC=C(O)C=C3)=CC4=O)=C2)OC2=CC(O)=CC(O)=C12

>  <standard_inchi>  (1076) 
InChI=1S/C30H18O10/c31-15-4-1-13(2-5-15)24-12-23(38)29-21(36)10-20(35)27(30(29)40-24)17-7-14(3-6-18(17)33)25-11-22(37)28-19(34)8-16(32)9-26(28)39-25/h1-12,31-36H

>  <standard_inchi_key>  (1076) 
YUSWMAULDXZHPY-UHFFFAOYSA-N

>  <name>  (1076) 
Amentoflavone

>  <iupac_name>  (1076) 
8-[5-(5,7-dihydroxy-4-oxo-chromen-2-yl)-2-hydroxy-phenyl]-5,7-dihydroxy-2-(4-hydroxyphenyl)chromen-4-one

>  <annotation_level>  (1076) 
5

>  <total_atom_count>  (1076) 
58

>  <heavy_atom_count>  (1076) 
40

>  <molecular_weight>  (1076) 
538.46

>  <exact_molecular_weight>  (1076) 
538.09

>  <molecular_formula>  (1076) 
C30H18O10

>  <alogp>  (1076) 
5.13

>  <topological_polar_surface_area>  (1076) 
181.80

>  <rotatable_bond_count>  (1076) 
3

>  <hydrogen_bond_acceptors>  (1076) 
10

>  <hydrogen_bond_donors>  (1076) 
6

>  <hydrogen_bond_acceptors_lipinski>  (1076) 
10

>  <hydrogen_bond_donors_lipinski>  (1076) 
6

>  <lipinski_rule_of_five_violations>  (1076) 
3

>  <aromatic_rings_count>  (1076) 
6

>  <qed_drug_likeliness>  (1076) 
0.18

>  <formal_charge>  (1076) 
0

>  <fractioncsp3>  (1076) 
0.00

>  <number_of_minimal_rings>  (1076) 
6

>  <van_der_walls_volume>  (1076) 
432.90

>  <contains_sugar>  (1076) 
False

>  <contains_ring_sugars>  (1076) 
False

>  <contains_linear_sugars>  (1076) 
False

>  <murcko_framework>  (1076) 
O1c2ccccc2CC=C1c3cccc(c3)-c4cccc5c4OC(=CC5)c6ccccc6

>  <np_likeness>  (1076) 
1.23

>  <chemical_class>  (1076) 
Flavonoids

>  <chemical_sub_class>  (1076) 
Biflavonoids and polyflavonoids

>  <chemical_super_class>  (1076) 
Phenylpropanoids and polyketides

>  <direct_parent_classification>  (1076) 
Biflavonoids and polyflavonoids

>  <np_classifier_pathway>  (1076) 
Shikimates and Phenylpropanoids

>  <np_classifier_superclass>  (1076) 
Flavonoids

>  <np_classifier_class>  (1076) 
Flavones

>  <np_classifier_is_glycoside>  (1076) 
False

>  <organisms>  (1076) 
Actinobacillus equuli|Actinostrobus acuminatus|Actinostrobus pyramidalis|Afrocarpus gracilior|Agathis spp.|Aglaia forbesii|Albizia julibrissin|Alexandrian laurel|Amentotaxus yunnanensis|Apocynum venetum|Araucaria cunninghamii|Araucaria spp.|Artabotrys hexapetalus|Austrocedrus chilensis|Biophytum sensitivum|Biota orientalis|Brassica oleracea var. sabauda|Breonia chinensis|Broussonetia papyrifera|Buxus sempervirens|Callitris macleayana|Callitris neocaledonica|Callitris oblonga|Callitris sp.|Callitris sulcata|Callitropsis nootkatensis|Calocedrus decurrens|Calocedrus formosana|Calocedrus microlepic var. formosana|Calophyllum Inophyllum|Calophyllum brasiliense|Calophyllum calaba|Calophyllum inophyllum|Calophyllum pinetorum|Calophyllum venulosum|Caloplaca murorum|Campylospermum flavum|Campylospermum glaucum|Campylospermum sulcatum|Campylotropis hirtella|Canarium schweinfurthii|Casearia clarkei|Cephalotaxus fortunei|Cephalotaxus harringtonia|Cephalotaxus harringtonii|Cephalotaxus harringtonii harringtonii|Ceropegia dichotoma|Chamaecyparis formosensis|Chamaecyparis lawsoniana|Chamaecyparis thyoides|Chrozophora brocchiana|Chrozophora obliqua|Chrozophora plicata|Chrozophora rottleri|Chrozophora tinctoria|Chrozophora verbascifolia|Cissus rheifolia|Complex-toothed flying squirrel|Coprinellus heptemerus|Cremastra appendiculata|Crinum moorei|Crotalaria candicans|Cryptomeria japonica|Cunninghamia lanceolata|Cupressaceae|Cupressus cashmeriana|Cupressus funebris|Cupressus sempervirens|Cupressus spp.|Cupressus torulosa|Cycas Revoluta|Cycas beddomei|Cycas circinalis|Cycas revoluta|Cytisus uniflorus|Daniellia ogea|Dendrobium chrysotoxum|Dendrobium loddigesii|Dietes bicolor|Dioon spp.|Diselma archeri|Distephanus angulifolius|Ectatosoma tiaratum|Elateriospermum tapos|Eria japonica|Erucastrum gallicum|Etlingera elatior|Eucalyptus apodophylla|Eucalyptus globulus subsp. bicostata|Eurybia divaricata|Eusynstyela latericius|Fitzroya cupressoides|Fokienia hodginsii|Garcinia cowa|Garcinia dulcis|Garcinia intermedia|Garcinia kola|Garcinia livingstonei|Garcinia prainiana|Garcinia sp.|Garcinia xanthochymus|Ginkgo biloba|Ginkgo sp.|Glycosmis macrophylla|Gypsophila perfoliata|Haplopteris anguste-elongata|Herba selaginellae doederleinii|Himalayan honeysuckle|Hippobromus pauciflorus|Hydnocarpus hainanensis|Hymenoxys lemmoni|Hypericum balearicum|Hypericum bithynicum|Hypericum elegans|Hypericum glandulosum|Hypericum hirsutum|Hypericum maculatum|Hypericum montanum|Hypericum olympicum|Hypericum perforatum|Hypericum polyanthemum|Hypericum sp.|Hypericum tetrapterum|Hypericum thasium|Hypericum tomentosum|Isophysis tasmanica|Juniperus bermudiana|Juniperus communis|Juniperus drupacea|Juniperus excelsa|Juniperus occidentalis|Juniperus occidentalis HOOK.|Juniperus oxycedrus|Juniperus phoenicea|Juniperus procera|Juniperus rigida|Juniperus scopulorum|Juniperus sp.|Juniperus spp.|Juniperus virginiana|Lanaria lanata|Libocedrus bidwillii|Libocedrus chevalieri|Libocedrus plumosa|Libocedrus yateensis|Luxemburgia nobilis|Mammea siamensis|Mangifera indica|Manihot esculenta|Manihot sp.|Martensia denticulata|Mentha cardiaca|Metasequoia glyptostroboides|Microbiota decussata|Mycobacterium liflandii|Nageia nagi|Nandina domestica|Nanuza plicata|Neatostema apulum|Neocallitropsis pancheri|Ononis spinosa|Orthopterygium huaucui|Ouratea castaneifolia|Ouratea multiflora|Ouratea semiserrata|Ouratea sulcata|Panax stipuleanatus|Papuacedrus papuana|Passalora fulva|Patersonia fragilis|Patersonia glabrata|Pentaclethra macrophylla|Periploca sepium|Phyllosma capensis|Physocarpus capitatus|Picea smithiana|Pilgerodendron uviferum|Pinus longifolia|Pinus palustris|Piranhea mexicana|Platycladus orientalis|Plectranthus myrianthus|Pleione bulbocodioides|Pleione yunnanensis|Podocarpus elongatus|Podocarpus fasciculus|Podocarpus latifolius|Podocarpus macrophyllus|Podocarpus montanus|Podocarpus neriifolius|Podocarpus spp.|Polyporus ciliatus|Proustia ilicifolia|Prumnopitys montana|Psidium araca|Psidium friedrichsthalianum|Psilotum complanatum|Psilotum nudum|Psilotum triquetrum|Pterocaulon virgatum|Putranjiva Roxburghii|Putranjiva roxburghii|Putranjiva sp.|Quercus canariensis|Quercus infectoria|Quercus pubescens|Retrophyllum rospigliosii|Rhodiola semenovii|Rhodococcus jostii|Rhus Succedanea|Rhus coriaria|Rhus punjabensis|Rhus sp.|Rhus succedanea|Rubritalea squalenifaciens|Sabina chinensis|Salix sp.|Salix spp.|Salvia sessei|Schinus areira|Schinus sp.|Schinus terebinthifolius|Schinus_molle DT 403|Schizaphis graminum|Schnabelia tetradonta|Sciadopitys verticillata|Sciadotenia toxifera|Selaginella Delicatula|Selaginella Doederleinii|Selaginella Involvens|Selaginella Uncinata|Selaginella braunii|Selaginella davidii|Selaginella delicatula|Selaginella denticulata|Selaginella doederleinii|Selaginella involvens|Selaginella kraussiana|Selaginella labordei|Selaginella moellendorffii|Selaginella moellendorfii|Selaginella nothohybrida|Selaginella omeiensis|Selaginella pulvinata|Selaginella sanguinolenta|Selaginella selaginoides|Selaginella sinensis|Selaginella spp.|Selaginella stauntoniana|Selaginella tamariscina|Selaginella uncinata|Selaginella willdenowii|Sequoiadendron giganteum|Smilax bockii|Smyrnium olusatrum|Sobina chinensis|Sonneratia caseolaris|Soulamea pancheri|Spermatochnus paradoxus|Stephania zippeliana|Struthiola argentea|Taiwania cryptomerioides|Talaromyces variabilis|Taxodium Distichum|Taxodium distichum|Taxodium mucronatum|Taxus Wallichiana|Taxus baccata|Taxus wallichiana|Tetraclinis articulata|Tetraclinis sp.|Thuja koraiensis|Thuja occidentalis|Thuja orientalis|Thuja plicata|Thuja sp.|Thuja spp.|Thuja standishii|Thujopsis dolabrata|Tilia tomentosa|Tmesipteris lanceolata|Tmesipteris ovata|Torreya fargesii var. yunnanensis|Torreya grandis|Torreya nucifera|Torreya nuncifera|Torreya yunnanensis|Toxicodendron succedaneum|Tristania conferta|Valeriana microphylla|Vellozia compacta|Vernonia cistifolia|Veronica polita|Viburnum betulifolium|Viburnum buddleifolium|Viburnum burejaeticum|Viburnum carlesii|Viburnum cinnamomifolium|Viburnum coriaceum|Viburnum cotinifolium|Viburnum cylindricum|Viburnum davidii|Viburnum dentatum|Viburnum farreri|Viburnum foetens|Viburnum glomeratum|Viburnum grandiflorum|Viburnum henryi|Viburnum hillieri|Viburnum jucundum|Viburnum lantana|Viburnum lentago|Viburnum nudum|Viburnum odoratissimum|Viburnum opulus|Viburnum orientale|Viburnum pichinchense|Viburnum plicatum|Viburnum propinquum|Viburnum prunifolium|Viburnum rhytidophyllum|Viburnum setigerum|Viburnum sieboldii|Viburnum sp.|Viburnum suspensum|Viburnum tinus|Viburnum utile|Vittaria anguste-elongata|Widdringtonia nodiflora|Widdringtonia whytei|Xylaria telfairii|Zamia spp.|cacao|mammea siamensis|rhus succedanea

>  <collections>  (1076) 
ANPDB|AnalytiCon Discovery NPs|Australian natural products|BIOFACQUIM|CMAUP (cCollective molecular activities of useful plants)|ChEBI NPs|ChemSpider NPs|ConMedNP|GNPS (Global Natural Products Social Molecular Networking)|KNApSaCK|Latin America dataset|Mitishamba database|NANPDB (Natural Products from Northern African Sources)|NAPRORE-CR|NPACT|NPASS|NPCARE|NPEdia|NuBBEDB|PeruNPDB|Phyto4Health|PhytoLab phyproof® Reference Substances|PubChem NPs|SANCDB|Super Natural II|TCMDB-Taiwan (Traditional Chinese Medicine database)|TCMID (Traditional Chinese Medicine Integrated Database)|TIPdb (database of Taiwan indigenous plants)|UNPD (Universal Natural Products Database)|VietHerb|WikiData Natural Products|p-ANAPL

>  <dois>  (1076) 
10.1002/CHIN.200315207|10.1002/CHIN.200352191|10.1002/CHIN.200415199|10.1002/CHIN.200607219|10.1002/JMS.395|10.1002/PCA.656|10.1007/978-1-4419-9242-0_35|10.1007/978-1-4615-3476-1_53|10.1007/978-4-431-68416-9_22|10.1007/978-94-007-4053-2_3|10.1007/978-94-007-4053-2_38|10.1007/978-94-015-9572-8_3|10.1007/BF00980060|10.1007/BF02311521|10.1007/S10600-011-0013-3|10.1007/S10600-015-1336-2|10.1016/0021-9673(92)85026-P|10.1016/0031-9422(73)80042-1|10.1016/0031-9422(73)80593-X|10.1016/0031-9422(73)85143-X|10.1016/0031-9422(74)85132-0|10.1016/0031-9422(83)85032-8|10.1016/0031-9422(88)80019-0|10.1016/0031-9422(90)85105-O|10.1016/0031-9422(95)00212-P|10.1016/0305-1978(85)90066-3|10.1016/0305-1978(90)90024-A|10.1016/0305-1978(90)90051-G|10.1016/0378-8741(94)90098-1|10.1016/0734-9750(93)90042-L|10.1016/J.BMC.2007.10.036|10.1016/J.BMC.2010.09.035|10.1016/J.BMCL.2012.10.127|10.1016/J.FITOTE.2009.09.007|10.1016/J.FOODCHEM.2014.02.116|10.1016/J.JEP.2015.01.031|10.1016/J.LFS.2004.03.017|10.1016/J.PHYTOCHEM.2005.02.025|10.1016/J.PHYTOCHEM.2005.06.017|10.1016/J.PHYTOCHEM.2006.11.026|10.1016/J.PHYTOCHEM.2007.08.003|10.1016/J.PHYTOCHEM.2008.04.013|10.1016/J.PHYTOCHEM.2008.06.010|10.1016/J.PHYTOCHEM.2008.10.006|10.1016/J.PHYTOCHEM.2010.08.006|10.1016/J.PHYTOL.2015.05.008|10.1016/S0014-2999(99)00144-2|10.1016/S0031-9422(00)80326-X|10.1016/S0031-9422(00)81743-4|10.1016/S0031-9422(00)82372-9|10.1016/S0031-9422(00)83042-3|10.1016/S0031-9422(00)83535-9|10.1016/S0031-9422(00)83874-1|10.1016/S0031-9422(00)83875-3|10.1016/S0031-9422(00)85693-9|10.1016/S0031-9422(00)86465-1|10.1016/S0031-9422(00)86949-6|10.1016/S0031-9422(00)89893-3|10.1016/S0031-9422(00)91236-6|10.1016/S0031-9422(00)97392-8|10.1016/S0031-9422(97)00417-2|10.1016/S0031-9422(98)00681-5|10.1016/S0031-9422(99)00074-6|10.1016/S0305-1978(02)00078-9|10.1016/S0367-326X(00)00286-0|10.1016/j.bmcl.2012.10.127|10.1016/j.jep.2015.01.031|10.1016/j.jfca.2018.09.012|10.1016/j.phytochem.2007.08.003|10.1016/j.phytol.2015.05.008|10.1021/AC990598X|10.1021/ACS.JNATPROD.7B00476|10.1021/JF011682S|10.1021/JF9012295|10.1021/JF9046094|10.1021/NP030117B|10.1021/NP0497595|10.1021/NP050060O|10.1021/NP050084V|10.1021/NP070629G|10.1021/NP50023A026|10.1021/NP50042A024|10.1021/NP50050A061|10.1021/NP50051A032|10.1021/NP50075A007|10.1021/NP50088A005|10.1021/NP50108A006|10.1021/NP800079C|10.1021/NP8005259|10.1021/NP800564Z|10.1021/NP960608E|10.1021/NP9700275|10.1021/NP970303F|10.1021/NP990538M|10.1021/acs.jafc.7b00480|10.1021/acs.jnatprod.5b00874|10.1021/acs.jnatprod.7b00476|10.1021/np0497595|10.1021/np070629g|10.1021/np960608e|10.1021/np9700275|10.1021/np970569m|10.1021/np990538m|10.1039/P19810000553|10.1039/P19810001389|10.1055/S-0029-1240743|10.1055/S-1999-13971|10.1055/S-2000-8598|10.1055/S-2001-17357|10.1055/S-2002-20053|10.1055/S-2004-827201|10.1055/S-2006-957455|10.1055/S-2006-957475|10.1055/S-2006-957796|10.1055/S-2006-957887|10.1055/S-2006-959443|10.1055/S-2006-959791|10.1055/S-2006-960798|10.1055/S-2006-961839|10.1055/S-2006-962549|10.1055/S-2007-990218|10.1080/10575630108041295|10.1080/13880200802055818|10.1080/13880200902988645|10.1080/14786410802228736|10.1080/14786410802278327|10.1080/14786419.2010.482057|10.1081/JLC-100101655|10.1089/JMF.2010.0053|10.1139/V10-168|10.1177/1934578X1701200337|10.1186/S12870-018-1412-4|10.1248/BPB.24.311|10.1248/BPB.27.141|10.1248/BPB.27.1471|10.1248/BPB.32.1427|10.1248/CPB.28.1894|10.1248/CPB.31.919|10.1248/CPB.50.1358|10.1248/CPB.51.1264|10.1248/CPB.56.585|10.1248/CPB.56.982|10.1248/CPB.58.549|10.1248/CPB.60.129|10.1248/YAKUSHI1947.88.11_1489|10.1300/J044V09N02_12|10.1515/ZNB-1986-1125|10.1515/ZNC-1985-5-608|10.1515/ZNC-1988-1-202|10.1515/ZNC-1994-3-416|10.1515/ZNC-1994-3-417|10.1515/ZNC-1998-11-1202|10.1515/ZNC-2002-11-1208|10.1515/znc-1985-5-608|10.1590/S0100-879X2002000700009|10.1590/S0102-695X2007000300003|10.1590/S0102-695X2009000600004|10.1590/S0103-50532002000100020|10.1590/S0103-50532010001000005|10.3184/030823402103170655|10.3390/MOLECULES16086206|10.3987/COM-96-7497|10.3987/COM-98-S(H)40|10.4103/0974-8490.94735|10.4314/BCSE.V14I2.71972

>  <synonyms>  (1076) 
nan

>  <cas>  (1076) 
1617-53-4

$$$$

     RDKit          2D

 21 22  0  0  0  0  0  0  0  0999 V2000
   -7.3407   -1.5139    0.0000 C   0  0  0  0  0  0  0  0  0  0  0  0
   -5.8942   -1.9108    0.0000 O   0  0  0  0  0  0  0  0  0  0  0  0
   -4.8272   -0.8565    0.0000 C   0  0  0  0  0  0  0  0  0  0  0  0
   -5.2068    0.5947    0.0000 C   0  0  0  0  0  0  0  0  0  0  0  0
   -4.1398    1.6490    0.0000 C   0  0  0  0  0  0  0  0  0  0  0  0
   -4.5194    3.1002    0.0000 O   0  0  0  0  0  0  0  0  0  0  0  0
   -2.6933    1.2521    0.0000 O   0  0  0  0  0  0  0  0  0  0  0  0
   -2.3137   -0.1991    0.0000 C   0  0  0  0  0  0  0  0  0  0  0  0
   -0.8672   -0.5960    0.0000 C   0  0  0  0  0  0  0  0  0  0  0  0
    0.1998    0.4583    0.0000 C   0  0  0  0  0  0  0  0  0  0  0  0
    1.6464    0.0615    0.0000 C   0  0  0  0  0  0  0  0  0  0  0  0
    2.0259   -1.3897    0.0000 C   0  0  0  0  0  0  0  0  0  0  0  0
    3.4725   -1.7866    0.0000 C   0  0  0  0  0  0  0  0  0  0  0  0
    4.5394   -0.7323    0.0000 C   0  0  0  0  0  0  0  0  0  0  0  0
    5.9860   -1.1292    0.0000 O   0  0  0  0  0  0  0  0  0  0  0  0
    6.3656   -2.5804    0.0000 C   0  0  0  0  0  0  0  0  0  0  0  0
    4.1599    0.7189    0.0000 C   0  0  0  0  0  0  0  0  0  0  0  0
    5.2269    1.7732    0.0000 O   0  0  0  0  0  0  0  0  0  0  0  0
    4.8473    3.2244    0.0000 C   0  0  0  0  0  0  0  0  0  0  0  0
    2.7133    1.1158    0.0000 C   0  0  0  0  0  0  0  0  0  0  0  0
   -3.3807   -1.2534    0.0000 C   0  0  0  0  0  0  0  0  0  0  0  0
  1  2  1  0
  2  3  1  0
  3  4  2  0
  4  5  1  0
  5  6  2  0
  5  7  1  0
  7  8  1  0
  8  9  1  0
  9 10  2  0
 10 11  1  0
 11 12  2  0
 12 13  1  0
 13 14  2  0
 14 15  1  0
 15 16  1  0
 14 17  1  0
 17 18  1  0
 18 19  1  0
 17 20  2  0
  8 21  2  0
 21  3  1  0
 20 11  1  0
M  END
>  <identifier>  (1077) 
CNP0189188.1

>  <canonical_smiles>  (1077) 
COC1=CC(=O)OC(/C=C/C2=CC=C(OC)C(OC)=C2)=C1

>  <standard_inchi>  (1077) 
InChI=1S/C16H16O5/c1-18-13-9-12(21-16(17)10-13)6-4-11-5-7-14(19-2)15(8-11)20-3/h4-10H,1-3H3/b6-4+

>  <standard_inchi_key>  (1077) 
GBJRDULCMRSYSL-GQCTYLIASA-N

>  <name>  (1077) 
nan

>  <iupac_name>  (1077) 
nan

>  <annotation_level>  (1077) 
0

>  <total_atom_count>  (1077) 
37

>  <heavy_atom_count>  (1077) 
21

>  <molecular_weight>  (1077) 
288.3

>  <exact_molecular_weight>  (1077) 
288.09977

>  <molecular_formula>  (1077) 
C16H16O5

>  <alogp>  (1077) 
2.84

>  <topological_polar_surface_area>  (1077) 
57.90

>  <rotatable_bond_count>  (1077) 
5

>  <hydrogen_bond_acceptors>  (1077) 
5

>  <hydrogen_bond_donors>  (1077) 
0

>  <hydrogen_bond_acceptors_lipinski>  (1077) 
5

>  <hydrogen_bond_donors_lipinski>  (1077) 
0

>  <lipinski_rule_of_five_violations>  (1077) 
0

>  <aromatic_rings_count>  (1077) 
2

>  <qed_drug_likeliness>  (1077) 
0.85

>  <formal_charge>  (1077) 
0

>  <fractioncsp3>  (1077) 
0.19

>  <number_of_minimal_rings>  (1077) 
2

>  <van_der_walls_volume>  (1077) 
258.68

>  <contains_sugar>  (1077) 
False

>  <contains_ring_sugars>  (1077) 
False

>  <contains_linear_sugars>  (1077) 
False

>  <murcko_framework>  (1077) 
O1C(=CC=CC1)C=Cc2ccccc2

>  <np_likeness>  (1077) 
0.56

>  <chemical_class>  (1077) 
nan

>  <chemical_sub_class>  (1077) 
nan

>  <chemical_super_class>  (1077) 
nan

>  <direct_parent_classification>  (1077) 
nan

>  <np_classifier_pathway>  (1077) 
Shikimates and Phenylpropanoids

>  <np_classifier_superclass>  (1077) 
Styrylpyrones

>  <np_classifier_class>  (1077) 
Kavalactones and derivatives

>  <np_classifier_is_glycoside>  (1077) 
False

>  <organisms>  (1077) 
Aniba kappleri|Aniba permollis|Aniba riparia|Polygala sabulosa|Polygala sellowiana

>  <collections>  (1077) 
Latin America dataset|NuBBEDB|Super Natural II|WikiData Natural Products|ZINC NP

>  <dois>  (1077) 
10.1016/S0031-9422(00)00301-0|10.1016/S0031-9422(00)83890-X|10.1016/S0031-9422(00)97370-9|10.1590/1809-43921982123668

>  <synonyms>  (1077) 
nan

>  <cas>  (1077) 
nan

$$$$

     RDKit          2D

 24 25  0  0  0  0  0  0  0  0999 V2000
    0.4134   -2.8341    0.0000 O   0  0  0  0  0  0  0  0  0  0  0  0
    0.4813   -1.3356    0.0000 C   0  0  0  0  0  0  0  0  0  0  0  0
    1.8130   -0.6452    0.0000 C   0  0  0  0  0  0  0  0  0  0  0  0
    3.0767   -1.4532    0.0000 C   0  0  0  0  0  0  0  0  0  0  0  0
    4.4084   -0.7628    0.0000 C   0  0  0  0  0  0  0  0  0  0  0  0
    5.6721   -1.5708    0.0000 C   0  0  0  0  0  0  0  0  0  0  0  0
    7.0038   -0.8803    0.0000 C   0  0  0  0  0  0  0  0  0  0  0  0
    7.0717    0.6181    0.0000 C   0  0  0  0  0  0  0  0  0  0  0  0
    8.4033    1.3086    0.0000 O   0  0  0  0  0  0  0  0  0  0  0  0
    5.8079    1.4261    0.0000 C   0  0  0  0  0  0  0  0  0  0  0  0
    5.8758    2.9246    0.0000 O   0  0  0  0  0  0  0  0  0  0  0  0
    4.4763    0.7357    0.0000 C   0  0  0  0  0  0  0  0  0  0  0  0
   -0.7825   -0.5276    0.0000 O   0  0  0  0  0  0  0  0  0  0  0  0
   -2.1141   -1.2181    0.0000 C   0  0  0  0  0  0  0  0  0  0  0  0
   -3.3779   -0.4101    0.0000 C   0  0  0  0  0  0  0  0  0  0  0  0
   -3.3100    1.0884    0.0000 O   0  0  0  0  0  0  0  0  0  0  0  0
   -4.5738    1.8964    0.0000 C   0  0  0  0  0  0  0  0  0  0  0  0
   -4.5059    3.3949    0.0000 O   0  0  0  0  0  0  0  0  0  0  0  0
   -5.9054    1.2060    0.0000 C   0  0  0  0  0  0  0  0  0  0  0  0
   -7.1692    2.0140    0.0000 O   0  0  0  0  0  0  0  0  0  0  0  0
   -5.9733   -0.2925    0.0000 C   0  0  0  0  0  0  0  0  0  0  0  0
   -7.3049   -0.9829    0.0000 O   0  0  0  0  0  0  0  0  0  0  0  0
   -4.7095   -1.1005    0.0000 C   0  0  0  0  0  0  0  0  0  0  0  0
   -4.7774   -2.5990    0.0000 O   0  0  0  0  0  0  0  0  0  0  0  0
  1  2  2  0
  2  3  1  0
  3  4  2  0
  4  5  1  0
  5  6  2  0
  6  7  1  0
  7  8  2  0
  8  9  1  0
  8 10  1  0
 10 11  1  0
 10 12  2  0
  2 13  1  0
 13 14  1  0
 15 14  1  6
 15 16  1  0
 16 17  1  0
 17 18  1  1
 17 19  1  0
 19 20  1  1
 19 21  1  0
 21 22  1  6
 21 23  1  0
 23 24  1  1
 12  5  1  0
 23 15  1  0
M  END
>  <identifier>  (1078) 
CNP0218166.2

>  <canonical_smiles>  (1078) 
O=C(/C=C/C1=CC=C(O)C(O)=C1)OC[C@H]1O[C@H](O)[C@H](O)[C@@H](O)[C@@H]1O

>  <standard_inchi>  (1078) 
InChI=1S/C15H18O9/c16-8-3-1-7(5-9(8)17)2-4-11(18)23-6-10-12(19)13(20)14(21)15(22)24-10/h1-5,10,12-17,19-22H,6H2/b4-2+/t10-,12-,13+,14-,15+/m1/s1

>  <standard_inchi_key>  (1078) 
JVVFTHAOTNXPOZ-VBQORRLJSA-N

>  <name>  (1078) 
nan

>  <iupac_name>  (1078) 
[(2~{R},3~{S},4~{S},5~{R},6~{S})-3,4,5,6-tetrahydroxytetrahydropyran-2-yl]methyl (~{E})-3-(3,4-dihydroxyphenyl)prop-2-enoate

>  <annotation_level>  (1078) 
4

>  <total_atom_count>  (1078) 
42

>  <heavy_atom_count>  (1078) 
24

>  <molecular_weight>  (1078) 
342.3

>  <exact_molecular_weight>  (1078) 
342.09508

>  <molecular_formula>  (1078) 
C15H18O9

>  <alogp>  (1078) 
-1.55

>  <topological_polar_surface_area>  (1078) 
156.91

>  <rotatable_bond_count>  (1078) 
4

>  <hydrogen_bond_acceptors>  (1078) 
9

>  <hydrogen_bond_donors>  (1078) 
6

>  <hydrogen_bond_acceptors_lipinski>  (1078) 
9

>  <hydrogen_bond_donors_lipinski>  (1078) 
6

>  <lipinski_rule_of_five_violations>  (1078) 
1

>  <aromatic_rings_count>  (1078) 
1

>  <qed_drug_likeliness>  (1078) 
0.22

>  <formal_charge>  (1078) 
0

>  <fractioncsp3>  (1078) 
0.40

>  <number_of_minimal_rings>  (1078) 
2

>  <van_der_walls_volume>  (1078) 
nan

>  <contains_sugar>  (1078) 
True

>  <contains_ring_sugars>  (1078) 
True

>  <contains_linear_sugars>  (1078) 
False

>  <murcko_framework>  (1078) 
O(CC=Cc1ccccc1)CC2OCCCC2

>  <np_likeness>  (1078) 
1.85

>  <chemical_class>  (1078) 
Cinnamic acids and derivatives

>  <chemical_sub_class>  (1078) 
Hydroxycinnamic acids and derivatives

>  <chemical_super_class>  (1078) 
Phenylpropanoids and polyketides

>  <direct_parent_classification>  (1078) 
Hydroxycinnamic acids

>  <np_classifier_pathway>  (1078) 
Shikimates and Phenylpropanoids

>  <np_classifier_superclass>  (1078) 
Phenylpropanoids (C6-C3)

>  <np_classifier_class>  (1078) 
Cinnamic acids and derivatives

>  <np_classifier_is_glycoside>  (1078) 
True

>  <organisms>  (1078) 
Vitex polygama

>  <collections>  (1078) 
Latin America dataset|NuBBEDB|WikiData Natural Products|ZINC NP

>  <dois>  (1078) 
10.1002/ps.1278|10.1016/J.JEP.2007.09.020

>  <synonyms>  (1078) 
caffeoyl 6-O-\u221a\u00e9\u00ac\u00b1-D-glucopyranoside

>  <cas>  (1078) 
nan

$$$$

     RDKit          2D

 29 33  0  0  0  0  0  0  0  0999 V2000
    6.7244    3.2259    0.0000 C   0  0  0  0  0  0  0  0  0  0  0  0
    5.2865    2.7986    0.0000 C   0  0  0  0  0  0  0  0  0  0  0  0
    4.1976    3.8301    0.0000 C   0  0  0  0  0  0  0  0  0  0  0  0
    4.9377    1.3397    0.0000 C   0  0  0  0  0  0  0  0  0  0  0  0
    3.4998    0.9124    0.0000 C   0  0  0  0  0  0  0  0  0  0  0  0
    2.3090    1.8245    0.0000 C   0  0  0  0  0  0  0  0  0  0  0  0
    1.0736    0.9737    0.0000 C   0  0  0  0  0  0  0  0  0  0  0  0
   -0.3118    0.3985    0.0000 C   0  0  0  0  0  0  0  0  0  0  0  0
   -1.5026    1.3106    0.0000 C   0  0  0  0  0  0  0  0  0  0  0  0
   -2.8879    0.7353    0.0000 C   0  0  0  0  0  0  0  0  0  0  0  0
   -3.0824   -0.7520    0.0000 C   0  0  0  0  0  0  0  0  0  0  0  0
   -4.4677   -1.3273    0.0000 C   0  0  0  0  0  0  0  0  0  0  0  0
   -5.6585   -0.4152    0.0000 C   0  0  0  0  0  0  0  0  0  0  0  0
   -7.1332   -0.6899    0.0000 N   0  0  0  0  0  0  0  0  0  0  0  0
   -7.8501    0.6277    0.0000 C   0  0  0  0  0  0  0  0  0  0  0  0
   -6.8185    1.7167    0.0000 C   0  0  0  0  0  0  0  0  0  0  0  0
   -5.4641    1.0721    0.0000 C   0  0  0  0  0  0  0  0  0  0  0  0
   -4.0788    1.6474    0.0000 C   0  0  0  0  0  0  0  0  0  0  0  0
    0.3566    2.2913    0.0000 C   0  0  0  0  0  0  0  0  0  0  0  0
    1.1392    3.5710    0.0000 O   0  0  0  0  0  0  0  0  0  0  0  0
    1.5009   -0.4641    0.0000 C   0  0  0  0  0  0  0  0  0  0  0  0
    0.7183   -1.7438    0.0000 C   0  0  0  0  0  0  0  0  0  0  0  0
    1.4352   -3.0613    0.0000 C   0  0  0  0  0  0  0  0  0  0  0  0
    2.9347   -3.0993    0.0000 C   0  0  0  0  0  0  0  0  0  0  0  0
    3.7173   -1.8196    0.0000 C   0  0  0  0  0  0  0  0  0  0  0  0
    3.0004   -0.5020    0.0000 C   0  0  0  0  0  0  0  0  0  0  0  0
    3.3620   -4.5371    0.0000 N   0  0  0  0  0  0  0  0  0  0  0  0
    2.1266   -5.3878    0.0000 C   0  0  0  0  0  0  0  0  0  0  0  0
    0.9357   -4.4758    0.0000 C   0  0  0  0  0  0  0  0  0  0  0  0
  1  2  1  0
  2  3  1  0
  2  4  2  0
  5  4  1  1
  5  6  1  0
  6  7  1  0
  7  8  1  0
  8  9  2  0
  9 10  1  0
 10 11  2  0
 11 12  1  0
 12 13  2  0
 13 14  1  0
 14 15  1  0
 15 16  2  0
 16 17  1  0
 17 18  2  0
  7 19  1  1
 19 20  1  0
  7 21  1  0
 21 22  2  0
 22 23  1  0
 23 24  2  0
 24 25  1  0
 25 26  2  0
 24 27  1  0
 27 28  1  0
 28 29  2  0
 26  5  1  0
 18 10  1  0
 26 21  1  0
 17 13  1  0
 29 23  1  0
M  END
>  <identifier>  (1079) 
CNP0080577.1

>  <canonical_smiles>  (1079) 
CC(C)=C[C@@H]1C[C@](/C=C/C2=CC=C3NC=CC3=C2)(CO)C2=CC3=C(C=C21)NC=C3

>  <standard_inchi>  (1079) 
InChI=1S/C26H26N2O/c1-17(2)11-21-15-26(16-29,23-13-20-7-10-28-25(20)14-22(21)23)8-5-18-3-4-24-19(12-18)6-9-27-24/h3-14,21,27-29H,15-16H2,1-2H3/b8-5+/t21-,26-/m1/s1

>  <standard_inchi_key>  (1079) 
DQRITVWCETVLHO-KJMHIALPSA-N

>  <name>  (1079) 
nan

>  <iupac_name>  (1079) 
[(5~{R},7~{S})-5-[(~{E})-2-(1~{H}-indol-5-yl)vinyl]-7-(2-methylprop-1-enyl)-6,7-dihydro-1~{H}-cyclopenta[f]indol-5-yl]methanol

>  <annotation_level>  (1079) 
4

>  <total_atom_count>  (1079) 
55

>  <heavy_atom_count>  (1079) 
29

>  <molecular_weight>  (1079) 
382.51

>  <exact_molecular_weight>  (1079) 
382.20451

>  <molecular_formula>  (1079) 
C26H26N2O

>  <alogp>  (1079) 
6.05

>  <topological_polar_surface_area>  (1079) 
51.81

>  <rotatable_bond_count>  (1079) 
4

>  <hydrogen_bond_acceptors>  (1079) 
1

>  <hydrogen_bond_donors>  (1079) 
3

>  <hydrogen_bond_acceptors_lipinski>  (1079) 
1

>  <hydrogen_bond_donors_lipinski>  (1079) 
3

>  <lipinski_rule_of_five_violations>  (1079) 
1

>  <aromatic_rings_count>  (1079) 
4

>  <qed_drug_likeliness>  (1079) 
0.37

>  <formal_charge>  (1079) 
0

>  <fractioncsp3>  (1079) 
0.23

>  <number_of_minimal_rings>  (1079) 
5

>  <van_der_walls_volume>  (1079) 
nan

>  <contains_sugar>  (1079) 
False

>  <contains_ring_sugars>  (1079) 
False

>  <contains_linear_sugars>  (1079) 
False

>  <murcko_framework>  (1079) 
c1cc2cc(ccc2[nH]1)C=CC3c4cc5cc[nH]c5cc4CC3

>  <np_likeness>  (1079) 
0.95

>  <chemical_class>  (1079) 
Indoles and derivatives

>  <chemical_sub_class>  (1079) 
Indoles

>  <chemical_super_class>  (1079) 
Organoheterocyclic compounds

>  <direct_parent_classification>  (1079) 
Indoles

>  <np_classifier_pathway>  (1079) 
Alkaloids

>  <np_classifier_superclass>  (1079) 
Tryptophan alkaloids

>  <np_classifier_class>  (1079) 
Simple indole alkaloids

>  <np_classifier_is_glycoside>  (1079) 
False

>  <organisms>  (1079) 
Raputia megalantha|Raputia simulans

>  <collections>  (1079) 
Latin America dataset|NuBBEDB|WikiData Natural Products|ZINC NP

>  <dois>  (1079) 
10.1590/S0103-50532011000700021

>  <synonyms>  (1079) 
Raputindole D

>  <cas>  (1079) 
nan

$$$$

     RDKit          2D

 18 20  0  0  0  0  0  0  0  0999 V2000
   -3.8838   -2.2865    0.0000 C   0  0  0  0  0  0  0  0  0  0  0  0
   -2.4463   -1.8583    0.0000 O   0  0  0  0  0  0  0  0  0  0  0  0
   -2.0984   -0.3992    0.0000 C   0  0  0  0  0  0  0  0  0  0  0  0
   -3.1880    0.6317    0.0000 C   0  0  0  0  0  0  0  0  0  0  0  0
   -4.6256    0.2034    0.0000 O   0  0  0  0  0  0  0  0  0  0  0  0
   -2.8401    2.0907    0.0000 C   0  0  0  0  0  0  0  0  0  0  0  0
   -1.4026    2.5190    0.0000 C   0  0  0  0  0  0  0  0  0  0  0  0
   -0.3129    1.4882    0.0000 C   0  0  0  0  0  0  0  0  0  0  0  0
   -0.6608    0.0291    0.0000 C   0  0  0  0  0  0  0  0  0  0  0  0
    0.4289   -1.0018    0.0000 C   0  0  0  0  0  0  0  0  0  0  0  0
    0.0810   -2.4609    0.0000 O   0  0  0  0  0  0  0  0  0  0  0  0
    1.8664   -0.5735    0.0000 C   0  0  0  0  0  0  0  0  0  0  0  0
    2.9561   -1.6044    0.0000 C   0  0  0  0  0  0  0  0  0  0  0  0
    4.3937   -1.1761    0.0000 C   0  0  0  0  0  0  0  0  0  0  0  0
    4.7416    0.2830    0.0000 C   0  0  0  0  0  0  0  0  0  0  0  0
    3.6519    1.3138    0.0000 C   0  0  0  0  0  0  0  0  0  0  0  0
    2.2143    0.8856    0.0000 C   0  0  0  0  0  0  0  0  0  0  0  0
    1.1247    1.9164    0.0000 O   0  0  0  0  0  0  0  0  0  0  0  0
  1  2  1  0
  2  3  1  0
  3  4  2  0
  4  5  1  0
  4  6  1  0
  6  7  2  0
  7  8  1  0
  8  9  2  0
  9 10  1  0
 10 11  2  0
 10 12  1  0
 12 13  2  0
 13 14  1  0
 14 15  2  0
 15 16  1  0
 16 17  2  0
 17 18  1  0
  9  3  1  0
 17 12  1  0
 18  8  1  0
M  END
>  <identifier>  (1080) 
CNP0227071.0

>  <canonical_smiles>  (1080) 
COC1=C(O)C=CC2=C1C(=O)C1=CC=CC=C1O2

>  <standard_inchi>  (1080) 
InChI=1S/C14H10O4/c1-17-14-9(15)6-7-11-12(14)13(16)8-4-2-3-5-10(8)18-11/h2-7,15H,1H3

>  <standard_inchi_key>  (1080) 
ATPZBKJDXXSOFC-UHFFFAOYSA-N

>  <name>  (1080) 
2-Hydroxy-1-methoxyxanthone

>  <iupac_name>  (1080) 
2-hydroxy-1-methoxy-xanthen-9-one

>  <annotation_level>  (1080) 
5

>  <total_atom_count>  (1080) 
28

>  <heavy_atom_count>  (1080) 
18

>  <molecular_weight>  (1080) 
242.23

>  <exact_molecular_weight>  (1080) 
242.05791

>  <molecular_formula>  (1080) 
C14H10O4

>  <alogp>  (1080) 
2.66

>  <topological_polar_surface_area>  (1080) 
59.67

>  <rotatable_bond_count>  (1080) 
1

>  <hydrogen_bond_acceptors>  (1080) 
4

>  <hydrogen_bond_donors>  (1080) 
1

>  <hydrogen_bond_acceptors_lipinski>  (1080) 
4

>  <hydrogen_bond_donors_lipinski>  (1080) 
1

>  <lipinski_rule_of_five_violations>  (1080) 
0

>  <aromatic_rings_count>  (1080) 
3

>  <qed_drug_likeliness>  (1080) 
0.67

>  <formal_charge>  (1080) 
0

>  <fractioncsp3>  (1080) 
0.07

>  <number_of_minimal_rings>  (1080) 
3

>  <van_der_walls_volume>  (1080) 
202.98

>  <contains_sugar>  (1080) 
False

>  <contains_ring_sugars>  (1080) 
False

>  <contains_linear_sugars>  (1080) 
False

>  <murcko_framework>  (1080) 
O1c2ccccc2Cc3ccccc13

>  <np_likeness>  (1080) 
1.11

>  <chemical_class>  (1080) 
Benzopyrans

>  <chemical_sub_class>  (1080) 
1-benzopyrans

>  <chemical_super_class>  (1080) 
Organoheterocyclic compounds

>  <direct_parent_classification>  (1080) 
Xanthones

>  <np_classifier_pathway>  (1080) 
Shikimates and Phenylpropanoids

>  <np_classifier_superclass>  (1080) 
Xanthones

>  <np_classifier_class>  (1080) 
Plant xanthones

>  <np_classifier_is_glycoside>  (1080) 
False

>  <organisms>  (1080) 
Alexandrian laurel|Calophyllum caledonicum|Calophyllum teysmannii|Garcinia kola|Hypericum chinense|Hypericum japonicum|Iphigenia indica|Kielmeyera coriacea|Kielmeyera excelsa|Kielmeyera rupestris|Kielmeyera speciosa|Kielmeyera variabilis|Mangifera odorata|Peliosanthes sinica|Vismia guianensis

>  <collections>  (1080) 
KNApSaCK|Latin America dataset|NPASS|NuBBEDB|Super Natural II|TCMDB-Taiwan (Traditional Chinese Medicine database)|UNPD (Universal Natural Products Database)|WikiData Natural Products|ZINC NP

>  <dois>  (1080) 
10.1002/CHIN.200632228|10.1016/J.PHYTOCHEM.2006.05.043|10.1016/J.PHYTOCHEM.2009.08.015|10.1016/S0031-9422(00)00289-2|10.1016/S0031-9422(00)80095-3|10.1016/S0031-9422(00)85160-2|10.1016/S0031-9422(00)85161-4|10.1016/S0031-9422(00)85774-X|10.1016/S0031-9422(97)00731-0|10.1016/S0031-9422(99)00520-8|10.1021/NP000215M|10.1021/acs.jnatprod.5b00858|10.1055/S-2002-19867|10.1080/10575639908041215|10.3987/COM-93-S70

>  <synonyms>  (1080) 
1-methoxy-2-hydroxyxanthone|16302-46-8|2-Hydroxy-1-methoxyxanthone|2-hydroxy-1-methoxy-xanthen-9-one|7-hydroxy-8-methoxyxanthone|9H-Xanthen-9-one, 2-hydroxy-1-methoxy-|AKOS040763029|CHEMBL1923834

>  <cas>  (1080) 
16302-46-8

$$$$

     RDKit          2D

 24 23  0  0  0  0  0  0  0  0999 V2000
   -6.4952   -4.6875    0.0000 C   0  0  0  0  0  0  0  0  0  0  0  0
   -6.4952   -3.1875    0.0000 C   0  0  0  0  0  0  0  0  0  0  0  0
   -7.7942   -2.4375    0.0000 C   0  0  0  0  0  0  0  0  0  0  0  0
   -5.1962   -2.4375    0.0000 C   0  0  0  0  0  0  0  0  0  0  0  0
   -5.1962   -0.9375    0.0000 C   0  0  0  0  0  0  0  0  0  0  0  0
   -3.8971   -0.1875    0.0000 C   0  0  0  0  0  0  0  0  0  0  0  0
   -3.8971    1.3125    0.0000 C   0  0  0  0  0  0  0  0  0  0  0  0
   -5.1962    2.0625    0.0000 C   0  0  0  0  0  0  0  0  0  0  0  0
   -2.5981    2.0625    0.0000 C   0  0  0  0  0  0  0  0  0  0  0  0
   -1.2990    1.3125    0.0000 C   0  0  0  0  0  0  0  0  0  0  0  0
   -0.0000    2.0625    0.0000 N   0  0  0  0  0  0  0  0  0  0  0  0
    1.2990    1.3125    0.0000 C   0  0  0  0  0  0  0  0  0  0  0  0
    2.5981    2.0625    0.0000 C   0  0  0  0  0  0  0  0  0  0  0  0
    3.8971    1.3125    0.0000 C   0  0  0  0  0  0  0  0  0  0  0  0
    5.1962    2.0625    0.0000 C   0  0  0  0  0  0  0  0  0  0  0  0
    3.8971   -0.1875    0.0000 C   0  0  0  0  0  0  0  0  0  0  0  0
    5.1962   -0.9375    0.0000 C   0  0  0  0  0  0  0  0  0  0  0  0
    5.1962   -2.4375    0.0000 C   0  0  0  0  0  0  0  0  0  0  0  0
    6.4952   -3.1875    0.0000 C   0  0  0  0  0  0  0  0  0  0  0  0
    6.4952   -4.6875    0.0000 C   0  0  0  0  0  0  0  0  0  0  0  0
    7.7942   -2.4375    0.0000 C   0  0  0  0  0  0  0  0  0  0  0  0
   -0.0000    3.5625    0.0000 C   0  0  0  0  0  0  0  0  0  0  0  0
    1.2990    4.3125    0.0000 N   0  0  0  0  0  0  0  0  0  0  0  0
   -1.2990    4.3125    0.0000 N   0  0  0  0  0  0  0  0  0  0  0  0
  1  2  1  0
  2  3  1  0
  2  4  2  0
  4  5  1  0
  5  6  1  0
  6  7  1  0
  7  8  1  0
  7  9  2  3
  9 10  1  0
 10 11  1  0
 11 12  1  0
 12 13  1  0
 13 14  2  0
 14 15  1  0
 14 16  1  0
 16 17  1  0
 17 18  1  0
 18 19  2  0
 19 20  1  0
 19 21  1  0
 11 22  1  0
 22 23  2  0
 22 24  1  0
M  END
>  <identifier>  (1081) 
CNP0080413.2

>  <canonical_smiles>  (1081) 
CC(C)=CCCC(C)=CCN(C/C=C(/C)CCC=C(C)C)C(=N)N

>  <standard_inchi>  (1081) 
InChI=1S/C21H37N3/c1-17(2)9-7-11-19(5)13-15-24(21(22)23)16-14-20(6)12-8-10-18(3)4/h9-10,13-14H,7-8,11-12,15-16H2,1-6H3,(H3,22,23)/b19-13-,20-14?

>  <standard_inchi_key>  (1081) 
ZEAAMJFQDIQIDJ-CFPKWIFWSA-N

>  <name>  (1081) 
nan

>  <iupac_name>  (1081) 
nan

>  <annotation_level>  (1081) 
0

>  <total_atom_count>  (1081) 
61

>  <heavy_atom_count>  (1081) 
24

>  <molecular_weight>  (1081) 
331.55

>  <exact_molecular_weight>  (1081) 
331.29875

>  <molecular_formula>  (1081) 
C21H37N3

>  <alogp>  (1081) 
5.57

>  <topological_polar_surface_area>  (1081) 
53.11

>  <rotatable_bond_count>  (1081) 
10

>  <hydrogen_bond_acceptors>  (1081) 
1

>  <hydrogen_bond_donors>  (1081) 
2

>  <hydrogen_bond_acceptors_lipinski>  (1081) 
1

>  <hydrogen_bond_donors_lipinski>  (1081) 
2

>  <lipinski_rule_of_five_violations>  (1081) 
1

>  <aromatic_rings_count>  (1081) 
0

>  <qed_drug_likeliness>  (1081) 
0.31

>  <formal_charge>  (1081) 
0

>  <fractioncsp3>  (1081) 
0.57

>  <number_of_minimal_rings>  (1081) 
0

>  <van_der_walls_volume>  (1081) 
369.12

>  <contains_sugar>  (1081) 
False

>  <contains_ring_sugars>  (1081) 
False

>  <contains_linear_sugars>  (1081) 
False

>  <murcko_framework>  (1081) 
nan

>  <np_likeness>  (1081) 
1.25

>  <chemical_class>  (1081) 
nan

>  <chemical_sub_class>  (1081) 
nan

>  <chemical_super_class>  (1081) 
nan

>  <direct_parent_classification>  (1081) 
nan

>  <np_classifier_pathway>  (1081) 
Terpenoids

>  <np_classifier_superclass>  (1081) 
Sesquiterpenoids

>  <np_classifier_class>  (1081) 
Farnesane sesquiterpenoids

>  <np_classifier_is_glycoside>  (1081) 
False

>  <organisms>  (1081) 
Pterogyne nitens

>  <collections>  (1081) 
Latin America dataset|NuBBEDB

>  <dois>  (1081) 
10.1590/S0102-695X2010005000017

>  <synonyms>  (1081) 
nan

>  <cas>  (1081) 
nan

$$$$

     RDKit          2D

 18 19  0  0  0  0  0  0  0  0999 V2000
   -1.4423    3.3926    0.0000 C   0  0  0  0  0  0  0  0  0  0  0  0
   -1.7082    1.9164    0.0000 O   0  0  0  0  0  0  0  0  0  0  0  0
   -0.5626    0.9480    0.0000 C   0  0  0  0  0  0  0  0  0  0  0  0
    0.8488    1.4560    0.0000 C   0  0  0  0  0  0  0  0  0  0  0  0
    1.9944    0.4876    0.0000 C   0  0  0  0  0  0  0  0  0  0  0  0
    1.7285   -0.9886    0.0000 C   0  0  0  0  0  0  0  0  0  0  0  0
    2.8741   -1.9570    0.0000 C   0  0  0  0  0  0  0  0  0  0  0  0
    4.2855   -1.4491    0.0000 C   0  0  0  0  0  0  0  0  0  0  0  0
    4.5513    0.0272    0.0000 C   0  0  0  0  0  0  0  0  0  0  0  0
    5.9627    0.5351    0.0000 O   0  0  0  0  0  0  0  0  0  0  0  0
    3.4058    0.9955    0.0000 O   0  0  0  0  0  0  0  0  0  0  0  0
    0.3172   -1.4966    0.0000 C   0  0  0  0  0  0  0  0  0  0  0  0
   -0.8284   -0.5282    0.0000 C   0  0  0  0  0  0  0  0  0  0  0  0
   -2.2398   -1.0361    0.0000 C   0  0  0  0  0  0  0  0  0  0  0  0
   -3.3854   -0.0678    0.0000 C   0  0  0  0  0  0  0  0  0  0  0  0
   -4.7968   -0.5757    0.0000 C   0  0  0  0  0  0  0  0  0  0  0  0
   -5.9423    0.3926    0.0000 C   0  0  0  0  0  0  0  0  0  0  0  0
   -5.0626   -2.0520    0.0000 C   0  0  0  0  0  0  0  0  0  0  0  0
  1  2  1  0
  2  3  1  0
  3  4  2  0
  4  5  1  0
  5  6  2  0
  6  7  1  0
  7  8  2  0
  8  9  1  0
  9 10  2  0
  9 11  1  0
  6 12  1  0
 12 13  2  0
 13 14  1  0
 14 15  1  0
 15 16  2  0
 16 17  1  0
 16 18  1  0
 13  3  1  0
 11  5  1  0
M  END
>  <identifier>  (1082) 
CNP0261891.0

>  <canonical_smiles>  (1082) 
COC1=CC2=C(C=CC(=O)O2)C=C1CC=C(C)C

>  <standard_inchi>  (1082) 
InChI=1S/C15H16O3/c1-10(2)4-5-11-8-12-6-7-15(16)18-14(12)9-13(11)17-3/h4,6-9H,5H2,1-3H3

>  <standard_inchi_key>  (1082) 
RSZDAYHEZSRVHS-UHFFFAOYSA-N

>  <name>  (1082) 
Suberosin

>  <iupac_name>  (1082) 
7-methoxy-6-(3-methylbut-2-enyl)chromen-2-one

>  <annotation_level>  (1082) 
5

>  <total_atom_count>  (1082) 
34

>  <heavy_atom_count>  (1082) 
18

>  <molecular_weight>  (1082) 
244.29

>  <exact_molecular_weight>  (1082) 
244.10994

>  <molecular_formula>  (1082) 
C15H16O3

>  <alogp>  (1082) 
3.31

>  <topological_polar_surface_area>  (1082) 
39.44

>  <rotatable_bond_count>  (1082) 
3

>  <hydrogen_bond_acceptors>  (1082) 
3

>  <hydrogen_bond_donors>  (1082) 
0

>  <hydrogen_bond_acceptors_lipinski>  (1082) 
3

>  <hydrogen_bond_donors_lipinski>  (1082) 
0

>  <lipinski_rule_of_five_violations>  (1082) 
0

>  <aromatic_rings_count>  (1082) 
2

>  <qed_drug_likeliness>  (1082) 
0.61

>  <formal_charge>  (1082) 
0

>  <fractioncsp3>  (1082) 
0.27

>  <number_of_minimal_rings>  (1082) 
2

>  <van_der_walls_volume>  (1082) 
228.72

>  <contains_sugar>  (1082) 
False

>  <contains_ring_sugars>  (1082) 
False

>  <contains_linear_sugars>  (1082) 
False

>  <murcko_framework>  (1082) 
O1c2ccccc2C=CC1

>  <np_likeness>  (1082) 
1.34

>  <chemical_class>  (1082) 
Coumarins and derivatives

>  <chemical_sub_class>  (1082) 
Coumarins and derivatives

>  <chemical_super_class>  (1082) 
Phenylpropanoids and polyketides

>  <direct_parent_classification>  (1082) 
Coumarins and derivatives

>  <np_classifier_pathway>  (1082) 
Shikimates and Phenylpropanoids

>  <np_classifier_superclass>  (1082) 
Coumarins

>  <np_classifier_class>  (1082) 
Simple coumarins

>  <np_classifier_is_glycoside>  (1082) 
False

>  <organisms>  (1082) 
Amaracus dictamnus|Angelica dahurica|Ardisia floribunda|Artemisia gmelini|Cachrys cristata|Campanula patula|Caragana conferta|Citropsis articulata|Citrus canariculata|Citrus depressa|Citrus grandis|Citrus japonica|Citrus nobilis|Citrus reticulata|Citrus sinensis|Citrus × deliciosa|Citrus × paradisi|Grewia asiatica|Hesperethusa crenulata|Juniperus cedrus|Kumquat|Luvunga Sarmentosa|Luvunga angustifolia|Luvunga sarmentosa|Luvunga sarmentosa (Bl.) Kurz.|Michelia alba|Naringi crenulata|Plantitenia absinthifolia|Platytaenia dasycarpa|Plumbago Zeylanica|Plumbago zeylanica|Prangos bucharica|Prangos lipskyi|Prangos lophoptera|Prangos pabularia Lindl.|Prangos uloptera|Semenovia dasycarpa|Seseli foliosum|Taenitis|Tellina nitida|Tephrosia nitens|Thladiantha dubia|Toddalia asiatica|Zanthoxylum asiaticum|Zanthoxylum ovalifolium|Zanthoxylum suberosum|pomelo

>  <collections>  (1082) 
AnalytiCon Discovery NPs|Australian natural products|CMAUP (cCollective molecular activities of useful plants)|ChEBI NPs|ETM (Ethiopian Traditional Medicine) DB|FooDB|HIT (Herbal Ingredients Targets)|KNApSaCK|Latin America dataset|NPASS|NuBBEDB|Super Natural II|TCMDB-Taiwan (Traditional Chinese Medicine database)|TCMID (Traditional Chinese Medicine Integrated Database)|TIPdb (database of Taiwan indigenous plants)|UNPD (Universal Natural Products Database)|VietHerb|WikiData Natural Products|ZINC NP

>  <dois>  (1082) 
10.1002/CHIN.200324150|10.1007/BF00563632|10.1007/BF00563983|10.1007/BF00564139|10.1007/BF00565846|10.1007/BF00565847|10.1007/BF00570686|10.1007/BF00598313|10.1016/0031-9422(88)80815-X|10.1016/S0031-9422(00)84608-7|10.1016/S0031-9422(00)86402-X|10.1016/S0031-9422(00)97306-0|10.1016/S0031-9422(02)00156-5|10.1016/S0031-9422(02)00519-8|10.1016/j.chroma.2009.02.066|10.1021/NP2004825|10.1021/NP50087A013|10.1021/np2004825|10.1071/CH9672429|10.1071/ch9500342|10.1248/CPB.31.895|10.1248/CPB.38.1230|10.1248/CPB.41.1657|10.1248/YAKUSHI1947.111.7_376|10.3987/R-1982-02-0273

>  <synonyms>  (1082) 
2H-1-Benzopyran-2-one, 7-methoxy-6-(3-methyl-2-butenyl)-|581-31-7|7-Methoxy-6-(3-methyl-2-butenyl)-2H-chromen-2-one #|7-methoxy-6-(3-methylbut-2-enyl)chromen-2-one|7-methoxy-6-prenylcoumarin|AC-34687|ACon1_000574|AKOS028108564|BDBM50361375|CHEBI:69041|CHEMBL1928409|CS-0016488|Coumarin, 7-methoxy-6-(3-methyl-2-butenyl)-|DTXSID20206820|G12485|HY-N1196|MEGxp0_001424|MS-23456|NCI60_002737|NS00067891|NSC31869|Q27137382|RSZDAYHEZSRVHS-UHFFFAOYSA-N|SCHEMBL6273982|Suberosin|suberosin

>  <cas>  (1082) 
581-31-7

$$$$

     RDKit          2D

  9  9  0  0  0  0  0  0  0  0999 V2000
   -3.4653    0.6606    0.0000 C   0  0  0  0  0  0  0  0  0  0  0  0
   -2.5353   -0.5163    0.0000 C   0  0  0  0  0  0  0  0  0  0  0  0
   -1.0511   -0.2995    0.0000 C   0  0  0  0  0  0  0  0  0  0  0  0
   -0.4968    1.0944    0.0000 C   0  0  0  0  0  0  0  0  0  0  0  0
    0.9874    1.3113    0.0000 C   0  0  0  0  0  0  0  0  0  0  0  0
    1.9174    0.1343    0.0000 C   0  0  0  0  0  0  0  0  0  0  0  0
    3.4016    0.3512    0.0000 O   0  0  0  0  0  0  0  0  0  0  0  0
    1.3631   -1.2595    0.0000 C   0  0  0  0  0  0  0  0  0  0  0  0
   -0.1211   -1.4764    0.0000 C   0  0  0  0  0  0  0  0  0  0  0  0
  1  2  1  0
  3  2  1  1
  3  4  1  0
  4  5  1  0
  5  6  1  0
  6  7  1  1
  6  8  1  0
  8  9  1  0
  9  3  1  0
M  END
>  <identifier>  (1083) 
CNP0167936.2

>  <canonical_smiles>  (1083) 
CC[C@H]1CC[C@@H](O)CC1

>  <standard_inchi>  (1083) 
InChI=1S/C8H16O/c1-2-7-3-5-8(9)6-4-7/h7-9H,2-6H2,1H3/t7-,8+

>  <standard_inchi_key>  (1083) 
RVTKUJWGFBADIN-OCAPTIKFSA-N

>  <name>  (1083) 
Cis-4-ethylcyclohexanol

>  <iupac_name>  (1083) 
cis-4-ethylcyclohexanol

>  <annotation_level>  (1083) 
5

>  <total_atom_count>  (1083) 
25

>  <heavy_atom_count>  (1083) 
9

>  <molecular_weight>  (1083) 
128.21

>  <exact_molecular_weight>  (1083) 
128.12012

>  <molecular_formula>  (1083) 
C8H16O

>  <alogp>  (1083) 
1.95

>  <topological_polar_surface_area>  (1083) 
20.23

>  <rotatable_bond_count>  (1083) 
1

>  <hydrogen_bond_acceptors>  (1083) 
1

>  <hydrogen_bond_donors>  (1083) 
1

>  <hydrogen_bond_acceptors_lipinski>  (1083) 
1

>  <hydrogen_bond_donors_lipinski>  (1083) 
1

>  <lipinski_rule_of_five_violations>  (1083) 
0

>  <aromatic_rings_count>  (1083) 
0

>  <qed_drug_likeliness>  (1083) 
0.57

>  <formal_charge>  (1083) 
0

>  <fractioncsp3>  (1083) 
1.00

>  <number_of_minimal_rings>  (1083) 
1

>  <van_der_walls_volume>  (1083) 
141.45

>  <contains_sugar>  (1083) 
False

>  <contains_ring_sugars>  (1083) 
False

>  <contains_linear_sugars>  (1083) 
False

>  <murcko_framework>  (1083) 
C1CCCCC1

>  <np_likeness>  (1083) 
0.67

>  <chemical_class>  (1083) 
Organooxygen compounds

>  <chemical_sub_class>  (1083) 
Alcohols and polyols

>  <chemical_super_class>  (1083) 
Organic oxygen compounds

>  <direct_parent_classification>  (1083) 
Cyclohexanols

>  <np_classifier_pathway>  (1083) 
nan

>  <np_classifier_superclass>  (1083) 
nan

>  <np_classifier_class>  (1083) 
nan

>  <np_classifier_is_glycoside>  (1083) 
False

>  <organisms>  (1083) 
Colletotrichum crassipes

>  <collections>  (1083) 
ChemSpider NPs|Latin America dataset|NuBBEDB|Super Natural II|WikiData Natural Products|ZINC NP

>  <dois>  (1083) 
10.1016/J.TETASY.2009.11.001|10.1016/j.tetasy.2009.11.001

>  <synonyms>  (1083) 
Cis-4-ethylcyclohexanol

>  <cas>  (1083) 
nan

$$$$

     RDKit          2D

 26 28  0  0  0  0  0  0  0  0999 V2000
   -7.6017    2.1852    0.0000 C   0  0  0  0  0  0  0  0  0  0  0  0
   -7.0588    0.7869    0.0000 O   0  0  0  0  0  0  0  0  0  0  0  0
   -5.5763    0.5579    0.0000 C   0  0  0  0  0  0  0  0  0  0  0  0
   -4.6368    1.7273    0.0000 C   0  0  0  0  0  0  0  0  0  0  0  0
   -3.1544    1.4983    0.0000 C   0  0  0  0  0  0  0  0  0  0  0  0
   -2.6115    0.1000    0.0000 C   0  0  0  0  0  0  0  0  0  0  0  0
   -1.1291   -0.1290    0.0000 C   0  0  0  0  0  0  0  0  0  0  0  0
   -0.5861   -1.5272    0.0000 C   0  0  0  0  0  0  0  0  0  0  0  0
   -1.5256   -2.6966    0.0000 O   0  0  0  0  0  0  0  0  0  0  0  0
   -3.0081   -2.4676    0.0000 C   0  0  0  0  0  0  0  0  0  0  0  0
    0.8963   -1.7562    0.0000 C   0  0  0  0  0  0  0  0  0  0  0  0
    1.4392   -3.1545    0.0000 O   0  0  0  0  0  0  0  0  0  0  0  0
    1.8358   -0.5869    0.0000 C   0  0  0  0  0  0  0  0  0  0  0  0
    3.3182   -0.8158    0.0000 C   0  0  0  0  0  0  0  0  0  0  0  0
    3.8611   -2.2141    0.0000 O   0  0  0  0  0  0  0  0  0  0  0  0
    4.2577    0.3535    0.0000 C   0  0  0  0  0  0  0  0  0  0  0  0
    5.7401    0.1246    0.0000 O   0  0  0  0  0  0  0  0  0  0  0  0
    6.2831   -1.2737    0.0000 C   0  0  0  0  0  0  0  0  0  0  0  0
    3.7148    1.7518    0.0000 C   0  0  0  0  0  0  0  0  0  0  0  0
    4.6543    2.9212    0.0000 O   0  0  0  0  0  0  0  0  0  0  0  0
    6.1367    2.6922    0.0000 C   0  0  0  0  0  0  0  0  0  0  0  0
    2.2323    1.9808    0.0000 C   0  0  0  0  0  0  0  0  0  0  0  0
    1.2928    0.8114    0.0000 C   0  0  0  0  0  0  0  0  0  0  0  0
   -0.1896    1.0404    0.0000 O   0  0  0  0  0  0  0  0  0  0  0  0
   -3.5510   -1.0693    0.0000 C   0  0  0  0  0  0  0  0  0  0  0  0
   -5.0334   -0.8404    0.0000 C   0  0  0  0  0  0  0  0  0  0  0  0
  1  2  1  0
  2  3  1  0
  3  4  2  0
  4  5  1  0
  5  6  2  0
  6  7  1  0
  7  8  2  0
  8  9  1  0
  9 10  1  0
  8 11  1  0
 11 12  2  0
 11 13  1  0
 13 14  2  0
 14 15  1  0
 14 16  1  0
 16 17  1  0
 17 18  1  0
 16 19  2  0
 19 20  1  0
 20 21  1  0
 19 22  1  0
 22 23  2  0
 23 24  1  0
  6 25  1  0
 25 26  2  0
 26  3  1  0
 24  7  1  0
 23 13  1  0
M  END
>  <identifier>  (1084) 
CNP0294939.0

>  <canonical_smiles>  (1084) 
COC1=CC=C(C2=C(OC)C(=O)C3=C(O)C(OC)=C(OC)C=C3O2)C=C1

>  <standard_inchi>  (1084) 
InChI=1S/C19H18O7/c1-22-11-7-5-10(6-8-11)17-19(25-4)16(21)14-12(26-17)9-13(23-2)18(24-3)15(14)20/h5-9,20H,1-4H3

>  <standard_inchi_key>  (1084) 
ADNCDMHZHONBRR-UHFFFAOYSA-N

>  <name>  (1084) 
5-Hydroxy-3,6,7,4'-tetramethoxyflavone

>  <iupac_name>  (1084) 
5-hydroxy-3,6,7-trimethoxy-2-(4-methoxyphenyl)chromen-4-one

>  <annotation_level>  (1084) 
5

>  <total_atom_count>  (1084) 
44

>  <heavy_atom_count>  (1084) 
26

>  <molecular_weight>  (1084) 
358.35

>  <exact_molecular_weight>  (1084) 
358.10525

>  <molecular_formula>  (1084) 
C19H18O7

>  <alogp>  (1084) 
3.20

>  <topological_polar_surface_area>  (1084) 
87.36

>  <rotatable_bond_count>  (1084) 
5

>  <hydrogen_bond_acceptors>  (1084) 
7

>  <hydrogen_bond_donors>  (1084) 
1

>  <hydrogen_bond_acceptors_lipinski>  (1084) 
7

>  <hydrogen_bond_donors_lipinski>  (1084) 
1

>  <lipinski_rule_of_five_violations>  (1084) 
0

>  <aromatic_rings_count>  (1084) 
3

>  <qed_drug_likeliness>  (1084) 
0.75

>  <formal_charge>  (1084) 
0

>  <fractioncsp3>  (1084) 
0.21

>  <number_of_minimal_rings>  (1084) 
3

>  <van_der_walls_volume>  (1084) 
307.42

>  <contains_sugar>  (1084) 
False

>  <contains_ring_sugars>  (1084) 
False

>  <contains_linear_sugars>  (1084) 
False

>  <murcko_framework>  (1084) 
O1c2ccccc2CC=C1c3ccccc3

>  <np_likeness>  (1084) 
1.02

>  <chemical_class>  (1084) 
Flavonoids

>  <chemical_sub_class>  (1084) 
O-methylated flavonoids

>  <chemical_super_class>  (1084) 
Phenylpropanoids and polyketides

>  <direct_parent_classification>  (1084) 
6-O-methylated flavonoids

>  <np_classifier_pathway>  (1084) 
Shikimates and Phenylpropanoids

>  <np_classifier_superclass>  (1084) 
Flavonoids

>  <np_classifier_class>  (1084) 
Flavonols

>  <np_classifier_is_glycoside>  (1084) 
False

>  <organisms>  (1084) 
Achillea Millefolium|Achillea collina|Achillea millefolium|Achillea millefolium L.|Achillea nobilis|Achillea sibirica|Achillea sibirica subsp.mongolica|Actinidia polygama|Actinobacillus pleuropneumoniae|Aeonium|Aeonium spp.|Ageratina espinosara|Aglaia edulis|Amoora yunnanensis|Annona rensoniana|Arachniodes dimorphophylla|Aristolochia maxima|Artemisia Annua|Artemisia annua|Artemisia annua L.|Artemisia vachanica|Baccharis tricuneata|Berberis insignis|Bergenia purpurascens|Betula mandshurica|Bischofia trifoliata|Blumea malcolmii|Blumea malcomii|Brickellia eupatorioides|Callicarpa dolichophylla|Callicarpa longissima|Caragana tibetica|Chrysolina fastuosa|Clavularia frankliniana|Cotoneaster orbicularis|Crataegus sinaica|Discaria crenata|Dodonaea Viscosa|Dodonaea angustifolia|Dodonaea lobulata|Dodonaea viscosa|Dolichospermum affine|Drummondita hassellii|Duranta Repens|Duranta erecta|Duranta repens|Euonymus tanakae|Euphorbia ferganensis|Ganoderma australe|Gardenia jasminoides|Gardenia oudiepe|Grindelia glutinosa|Heliopsis helianthoides|Heritiera littoralis|Heterotheca grandiflora|Iphiona scabra|Isodon rubescens|Jasminum officinale|Julocroton camporum|Laggera crispata|Laggera pterodonta|Lasiocephalus ovatus|Lecocarpus lecocarpoides|Ligularia platyglossa|Macrotyloma axillare|Magnolia ovata|Malus asiatica|Maytenus macrocarpa|Melanoleuca grammopodia|Mikania obtusata|Mola mola|Montrouziera sphaeroidea|Nephroma antarcticum|Ophiostoma minus|Oreosolen wattii|Parthenium incanum|Penicillium corylophilum|Pentapora fascialis|Perityle vaseyi|Phalium undulatum|Phomopsis archeri|Phyllanthus niruri|Phyllospongia madagascarensis|Pimpinella saxifraga|Pithecellobium clypearia|Pluchea odorata|Polygala myrtifolia|Psiadia punctulata|Pulicaria odora|Rapanea myricoides|Rhodiola krylovii|Rosa polyantha|Sarcomelicope argyrophylla|Senecio roseiflorus|Sideritis nutans|Solanum bahamense|Stevia jujuyensis|Streptomyces purpeofuscus|Tanacetum artemisioides|Taxus cuspidata|Teucrium barbeyanum|Tillandsia utriculata|Tinospora smilacina|Tridacna gigas|Trigonostemon reidioides|Tropaeolum speciosum|Tropiometra afra|Uncaria callophylla|Vatica diospyroides|Veronica cinerea|Vitex agnus-castus|Vitex polygama|Wallago attu|callicarpa longissima|gardenia oudiepe

>  <collections>  (1084) 
ANPDB|Australian natural products|CMAUP (cCollective molecular activities of useful plants)|KNApSaCK|Latin America dataset|Mitishamba database|NANPDB (Natural Products from Northern African Sources)|NPASS|NPEdia|NuBBEDB|Phyto4Health|Super Natural II|TCMDB-Taiwan (Traditional Chinese Medicine database)|TCMID (Traditional Chinese Medicine Integrated Database)|TIPdb (database of Taiwan indigenous plants)|TerPenoids database embedded with Content information (TPCN)|UNPD (Universal Natural Products Database)|VietHerb|WikiData Natural Products|ZINC NP

>  <dois>  (1084) 
10.1002/CHIN.200547198|10.1002/JPS.2600641119|10.1002/jps.2600641119|10.1007/S10600-007-0082-5|10.1016/0031-9422(83)80234-9|10.1016/0031-9422(89)85047-2|10.1016/0031-9422(92)80117-W|10.1016/0031-9422(92)80274-I|10.1016/0031-9422(92)80274-i|10.1016/0031-9422(92)83156-S|10.1016/0031-9422(93)00074-P|10.1016/B978-1-4831-9886-6.50032-2|10.1016/J.EJMECH.2017.11.071|10.1016/J.PHYTOCHEM.2007.04.013|10.1016/J.PHYTOL.2010.08.001|10.1016/J.PHYTOL.2013.12.008|10.1016/S0031-9422(00)81848-8|10.1016/S0031-9422(00)84507-0|10.1016/S0031-9422(03)00207-3|10.1016/S0031-9422(96)00521-3|10.1016/S0305-1978(98)00112-4|10.1016/j.ejmech.2017.11.071|10.1016/j.phytol.2010.08.001|10.1016/s0031-9422(00)83141-6|10.1021/NP050447R|10.1021/NP060428X|10.1021/NP070076+|10.1021/NP200932K|10.1021/np060428x|10.1021/np200932k|10.1055/S-2006-958010|10.1055/s-2006-958010|10.1071/CH9662133|10.1248/CPB.50.515|10.1248/CPB.57.1132|10.1515/ZNC-1985-5-607|10.1515/ZNC-1994-5-618|10.1515/ZNC-2008-5-611|10.1515/znc-2008-5-611

>  <synonyms>  (1084) 
14787-34-9|4'-methylpenduletin|5-Hydroxy-3,6,7,4'-tetramethoxyflavone|5-Hydroxy-3,6,7-trimethoxy-2-(4-methoxyphenyl)-4H-1-benzopyran-4-one|5-Hydroxy-3,6,7-trimethoxy-2-(4-methoxyphenyl)chromen-4-one|5-hydroxy-3,4',6,7-tetramethoxyflavone|6-Hydroxykaempferol-3,6,7,4'-tetramethyl ether|AKOS040763199|BDBM50464573|CHEMBL521934|CS-0890187|DTXSID20163823|E8M39S7GDC|FS-7305|HY-N11958|HYDROXY-3-4'-6-7-TETRAMETHOXYFLAVONE, 5-|LMPK12112877|NCI60_030815|NSC-685704|Penduletin 4'-methyl ether|SCHEMBL5073336|UNII-E8M39S7GDC

>  <cas>  (1084) 
14787-34-9

$$$$

     RDKit          2D

 32 33  0  0  0  0  0  0  0  0999 V2000
   -2.7289   -4.4341    0.0000 C   0  0  0  0  0  0  0  0  0  0  0  0
   -4.0534   -3.7299    0.0000 C   0  0  0  0  0  0  0  0  0  0  0  0
   -5.3254   -4.5249    0.0000 O   0  0  0  0  0  0  0  0  0  0  0  0
   -4.1058   -2.2308    0.0000 O   0  0  0  0  0  0  0  0  0  0  0  0
   -5.4303   -1.5267    0.0000 C   0  0  0  0  0  0  0  0  0  0  0  0
   -6.7023   -2.3217    0.0000 C   0  0  0  0  0  0  0  0  0  0  0  0
   -8.0267   -1.6176    0.0000 C   0  0  0  0  0  0  0  0  0  0  0  0
   -8.0792   -0.1185    0.0000 C   0  0  0  0  0  0  0  0  0  0  0  0
   -6.8072    0.6765    0.0000 C   0  0  0  0  0  0  0  0  0  0  0  0
   -6.8596    2.1756    0.0000 O   0  0  0  0  0  0  0  0  0  0  0  0
   -8.1841    2.8797    0.0000 C   0  0  0  0  0  0  0  0  0  0  0  0
   -8.2365    4.3788    0.0000 C   0  0  0  0  0  0  0  0  0  0  0  0
   -9.4561    2.0847    0.0000 O   0  0  0  0  0  0  0  0  0  0  0  0
   -5.4827   -0.0276    0.0000 C   0  0  0  0  0  0  0  0  0  0  0  0
   -4.2107    0.7673    0.0000 C   0  0  0  0  0  0  0  0  0  0  0  0
   -4.2631    2.2664    0.0000 O   0  0  0  0  0  0  0  0  0  0  0  0
   -2.8862    0.0632    0.0000 C   0  0  0  0  0  0  0  0  0  0  0  0
   -1.6142    0.8582    0.0000 C   0  0  0  0  0  0  0  0  0  0  0  0
   -0.2897    0.1540    0.0000 C   0  0  0  0  0  0  0  0  0  0  0  0
    0.9823    0.9490    0.0000 C   0  0  0  0  0  0  0  0  0  0  0  0
    2.3068    0.2449    0.0000 C   0  0  0  0  0  0  0  0  0  0  0  0
    3.5788    1.0398    0.0000 C   0  0  0  0  0  0  0  0  0  0  0  0
    4.9032    0.3357    0.0000 C   0  0  0  0  0  0  0  0  0  0  0  0
    6.1753    1.1307    0.0000 C   0  0  0  0  0  0  0  0  0  0  0  0
    7.4997    0.4265    0.0000 C   0  0  0  0  0  0  0  0  0  0  0  0
    8.7718    1.2215    0.0000 C   0  0  0  0  0  0  0  0  0  0  0  0
   10.0962    0.5174    0.0000 C   0  0  0  0  0  0  0  0  0  0  0  0
   10.1487   -0.9817    0.0000 C   0  0  0  0  0  0  0  0  0  0  0  0
   11.4731   -1.6858    0.0000 C   0  0  0  0  0  0  0  0  0  0  0  0
   12.7452   -0.8909    0.0000 C   0  0  0  0  0  0  0  0  0  0  0  0
   12.6927    0.6082    0.0000 C   0  0  0  0  0  0  0  0  0  0  0  0
   11.3682    1.3123    0.0000 C   0  0  0  0  0  0  0  0  0  0  0  0
  1  2  1  0
  2  3  2  0
  2  4  1  0
  4  5  1  0
  5  6  2  0
  6  7  1  0
  7  8  2  0
  8  9  1  0
  9 10  1  0
 10 11  1  0
 11 12  1  0
 11 13  2  0
  9 14  2  0
 14 15  1  0
 15 16  2  0
 15 17  1  0
 17 18  1  0
 18 19  1  0
 19 20  1  0
 20 21  1  0
 21 22  1  0
 22 23  1  0
 23 24  1  0
 24 25  1  0
 25 26  1  0
 26 27  1  0
 27 28  2  0
 28 29  1  0
 29 30  2  0
 30 31  1  0
 31 32  2  0
 14  5  1  0
 32 27  1  0
M  END
>  <identifier>  (1085) 
CNP0080351.0

>  <canonical_smiles>  (1085) 
CC(=O)OC1=CC=CC(OC(C)=O)=C1C(=O)CCCCCCCCCCC1=CC=CC=C1

>  <standard_inchi>  (1085) 
InChI=1S/C27H34O5/c1-21(28)31-25-19-14-20-26(32-22(2)29)27(25)24(30)18-13-8-6-4-3-5-7-10-15-23-16-11-9-12-17-23/h9,11-12,14,16-17,19-20H,3-8,10,13,15,18H2,1-2H3

>  <standard_inchi_key>  (1085) 
WPUWHXGORWKYIZ-UHFFFAOYSA-N

>  <name>  (1085) 
nan

>  <iupac_name>  (1085) 
[3-acetoxy-2-(11-phenylundecanoyl)phenyl] acetate

>  <annotation_level>  (1085) 
3

>  <total_atom_count>  (1085) 
66

>  <heavy_atom_count>  (1085) 
32

>  <molecular_weight>  (1085) 
438.56

>  <exact_molecular_weight>  (1085) 
438.24062

>  <molecular_formula>  (1085) 
C27H34O5

>  <alogp>  (1085) 
6.47

>  <topological_polar_surface_area>  (1085) 
69.67

>  <rotatable_bond_count>  (1085) 
14

>  <hydrogen_bond_acceptors>  (1085) 
5

>  <hydrogen_bond_donors>  (1085) 
0

>  <hydrogen_bond_acceptors_lipinski>  (1085) 
5

>  <hydrogen_bond_donors_lipinski>  (1085) 
0

>  <lipinski_rule_of_five_violations>  (1085) 
1

>  <aromatic_rings_count>  (1085) 
2

>  <qed_drug_likeliness>  (1085) 
0.15

>  <formal_charge>  (1085) 
0

>  <fractioncsp3>  (1085) 
0.44

>  <number_of_minimal_rings>  (1085) 
2

>  <van_der_walls_volume>  (1085) 
nan

>  <contains_sugar>  (1085) 
False

>  <contains_ring_sugars>  (1085) 
False

>  <contains_linear_sugars>  (1085) 
False

>  <murcko_framework>  (1085) 
c1ccc(cc1)CCCCCCCCCCCc2ccccc2

>  <np_likeness>  (1085) 
0.31

>  <chemical_class>  (1085) 
Organooxygen compounds

>  <chemical_sub_class>  (1085) 
Carbonyl compounds

>  <chemical_super_class>  (1085) 
Organic oxygen compounds

>  <direct_parent_classification>  (1085) 
Alkyl-phenylketones

>  <np_classifier_pathway>  (1085) 
Polyketides

>  <np_classifier_superclass>  (1085) 
Aromatic polyketides

>  <np_classifier_class>  (1085) 
Catechols with side chains

>  <np_classifier_is_glycoside>  (1085) 
False

>  <organisms>  (1085) 
Virola sebifera

>  <collections>  (1085) 
Latin America dataset|NuBBEDB|WikiData Natural Products|ZINC NP

>  <dois>  (1085) 
10.1016/0031-9422(82)83181-6

>  <synonyms>  (1085) 
nan

>  <cas>  (1085) 
nan

$$$$

     RDKit          2D

 28 30  0  0  0  0  0  0  0  0999 V2000
   -6.7236    0.3676    0.0000 C   0  0  0  0  0  0  0  0  0  0  0  0
   -5.6262   -0.6550    0.0000 O   0  0  0  0  0  0  0  0  0  0  0  0
   -4.1919   -0.2159    0.0000 C   0  0  0  0  0  0  0  0  0  0  0  0
   -3.8550    1.2458    0.0000 C   0  0  0  0  0  0  0  0  0  0  0  0
   -2.4207    1.6849    0.0000 C   0  0  0  0  0  0  0  0  0  0  0  0
   -1.3233    0.6623    0.0000 C   0  0  0  0  0  0  0  0  0  0  0  0
    0.1110    1.1014    0.0000 C   0  0  0  0  0  0  0  0  0  0  0  0
    1.2084    0.0788    0.0000 C   0  0  0  0  0  0  0  0  0  0  0  0
    0.8716   -1.3828    0.0000 C   0  0  0  0  0  0  0  0  0  0  0  0
    1.9690   -2.4054    0.0000 C   0  0  0  0  0  0  0  0  0  0  0  0
    1.6321   -3.8671    0.0000 O   0  0  0  0  0  0  0  0  0  0  0  0
    0.1978   -4.3062    0.0000 C   0  0  0  0  0  0  0  0  0  0  0  0
    3.4033   -1.9663    0.0000 C   0  0  0  0  0  0  0  0  0  0  0  0
    4.5007   -2.9889    0.0000 O   0  0  0  0  0  0  0  0  0  0  0  0
    4.1638   -4.4506    0.0000 C   0  0  0  0  0  0  0  0  0  0  0  0
    3.7401   -0.5047    0.0000 C   0  0  0  0  0  0  0  0  0  0  0  0
    2.6427    0.5179    0.0000 C   0  0  0  0  0  0  0  0  0  0  0  0
    2.9796    1.9796    0.0000 C   0  0  0  0  0  0  0  0  0  0  0  0
    1.8822    3.0022    0.0000 C   0  0  0  0  0  0  0  0  0  0  0  0
    2.2191    4.4639    0.0000 C   0  0  0  0  0  0  0  0  0  0  0  0
    3.6534    4.9030    0.0000 O   0  0  0  0  0  0  0  0  0  0  0  0
    0.4479    2.5631    0.0000 C   0  0  0  0  0  0  0  0  0  0  0  0
   -0.6495    3.5857    0.0000 C   0  0  0  0  0  0  0  0  0  0  0  0
   -0.3126    5.0474    0.0000 O   0  0  0  0  0  0  0  0  0  0  0  0
   -1.6602   -0.7994    0.0000 C   0  0  0  0  0  0  0  0  0  0  0  0
   -3.0944   -1.2385    0.0000 C   0  0  0  0  0  0  0  0  0  0  0  0
   -3.4313   -2.7001    0.0000 O   0  0  0  0  0  0  0  0  0  0  0  0
   -2.3339   -3.7227    0.0000 C   0  0  0  0  0  0  0  0  0  0  0  0
  1  2  1  0
  2  3  1  0
  3  4  2  0
  4  5  1  0
  5  6  2  0
  7  6  1  6
  7  8  1  0
  8  9  2  0
  9 10  1  0
 10 11  1  0
 11 12  1  0
 10 13  2  0
 13 14  1  0
 14 15  1  0
 13 16  1  0
 16 17  2  0
 17 18  1  0
 18 19  1  0
 19 20  1  6
 20 21  1  0
 19 22  1  0
 22 23  1  1
 23 24  1  0
  6 25  1  0
 25 26  2  0
 26 27  1  0
 27 28  1  0
 26  3  1  0
 22  7  1  0
 17  8  1  0
M  END
>  <identifier>  (1086) 
CNP0080480.1

>  <canonical_smiles>  (1086) 
COC1=CC=C([C@H]2C3=CC(OC)=C(OC)C=C3C[C@@H](CO)[C@@H]2CO)C=C1OC

>  <standard_inchi>  (1086) 
InChI=1S/C22H28O6/c1-25-18-6-5-13(8-19(18)26-2)22-16-10-21(28-4)20(27-3)9-14(16)7-15(11-23)17(22)12-24/h5-6,8-10,15,17,22-24H,7,11-12H2,1-4H3/t15-,17-,22-/m0/s1

>  <standard_inchi_key>  (1086) 
LTMZRNBMJLXRNY-YHEJKZAPSA-N

>  <name>  (1086) 
nan

>  <iupac_name>  (1086) 
[(2~{R},3~{R},4~{S})-4-(3,4-dimethoxyphenyl)-3-(hydroxymethyl)-6,7-dimethoxy-tetralin-2-yl]methanol

>  <annotation_level>  (1086) 
4

>  <total_atom_count>  (1086) 
56

>  <heavy_atom_count>  (1086) 
28

>  <molecular_weight>  (1086) 
388.46

>  <exact_molecular_weight>  (1086) 
388.18859

>  <molecular_formula>  (1086) 
C22H28O6

>  <alogp>  (1086) 
2.63

>  <topological_polar_surface_area>  (1086) 
77.38

>  <rotatable_bond_count>  (1086) 
7

>  <hydrogen_bond_acceptors>  (1086) 
6

>  <hydrogen_bond_donors>  (1086) 
2

>  <hydrogen_bond_acceptors_lipinski>  (1086) 
6

>  <hydrogen_bond_donors_lipinski>  (1086) 
2

>  <lipinski_rule_of_five_violations>  (1086) 
0

>  <aromatic_rings_count>  (1086) 
2

>  <qed_drug_likeliness>  (1086) 
0.76

>  <formal_charge>  (1086) 
0

>  <fractioncsp3>  (1086) 
0.46

>  <number_of_minimal_rings>  (1086) 
3

>  <van_der_walls_volume>  (1086) 
nan

>  <contains_sugar>  (1086) 
False

>  <contains_ring_sugars>  (1086) 
False

>  <contains_linear_sugars>  (1086) 
False

>  <murcko_framework>  (1086) 
c1ccc(cc1)C2c3ccccc3CCC2

>  <np_likeness>  (1086) 
1.31

>  <chemical_class>  (1086) 
Aryltetralin lignans

>  <chemical_sub_class>  (1086) 
9,9p-dihydroxyaryltetralin lignans

>  <chemical_super_class>  (1086) 
Lignans, neolignans and related compounds

>  <direct_parent_classification>  (1086) 
9,9p-dihydroxyaryltetralin lignans

>  <np_classifier_pathway>  (1086) 
Shikimates and Phenylpropanoids

>  <np_classifier_superclass>  (1086) 
Lignans

>  <np_classifier_class>  (1086) 
Arylnaphthalene and aryltetralin lignans

>  <np_classifier_is_glycoside>  (1086) 
False

>  <organisms>  (1086) 
Araucaria angustifolia

>  <collections>  (1086) 
Latin America dataset|NuBBEDB|WikiData Natural Products|ZINC NP

>  <dois>  (1086) 
10.1016/S0031-9422(00)89347-4

>  <synonyms>  (1086) 
isolariciresinol dimethylether

>  <cas>  (1086) 
nan

$$$$

     RDKit          2D

 37 42  0  0  0  0  0  0  0  0999 V2000
   -2.3724   -5.3397    0.0000 C   0  0  0  0  0  0  0  0  0  0  0  0
   -2.6412   -3.8640    0.0000 C   0  0  0  0  0  0  0  0  0  0  0  0
   -4.0537   -3.3589    0.0000 O   0  0  0  0  0  0  0  0  0  0  0  0
   -1.4976   -2.8933    0.0000 O   0  0  0  0  0  0  0  0  0  0  0  0
   -1.7665   -1.4176    0.0000 C   0  0  0  0  0  0  0  0  0  0  0  0
   -3.1789   -0.9126    0.0000 C   0  0  0  0  0  0  0  0  0  0  0  0
   -3.4477    0.5632    0.0000 C   0  0  0  0  0  0  0  0  0  0  0  0
   -4.8602    1.0682    0.0000 C   0  0  0  0  0  0  0  0  0  0  0  0
   -6.3601    1.0597    0.0000 C   0  0  0  0  0  0  0  0  0  0  0  0
   -5.1123   -0.4105    0.0000 C   0  0  0  0  0  0  0  0  0  0  0  0
   -5.1290    2.5439    0.0000 C   0  0  0  0  0  0  0  0  0  0  0  0
   -6.5414    3.0489    0.0000 O   0  0  0  0  0  0  0  0  0  0  0  0
   -3.9854    3.5146    0.0000 C   0  0  0  0  0  0  0  0  0  0  0  0
   -2.5730    3.0095    0.0000 C   0  0  0  0  0  0  0  0  0  0  0  0
   -2.3042    1.5338    0.0000 C   0  0  0  0  0  0  0  0  0  0  0  0
   -1.1606    2.5045    0.0000 C   0  0  0  0  0  0  0  0  0  0  0  0
   -0.8917    1.0288    0.0000 C   0  0  0  0  0  0  0  0  0  0  0  0
    0.2518    1.9995    0.0000 C   0  0  0  0  0  0  0  0  0  0  0  0
    1.6643    1.4944    0.0000 C   0  0  0  0  0  0  0  0  0  0  0  0
    1.9331    0.0187    0.0000 C   0  0  0  0  0  0  0  0  0  0  0  0
    3.0767    0.9894    0.0000 C   0  0  0  0  0  0  0  0  0  0  0  0
    3.3455   -0.4863    0.0000 C   0  0  0  0  0  0  0  0  0  0  0  0
    4.4891    0.4844    0.0000 C   0  0  0  0  0  0  0  0  0  0  0  0
    4.3760    1.9801    0.0000 C   0  0  0  0  0  0  0  0  0  0  0  0
    5.7636    2.5499    0.0000 C   0  0  0  0  0  0  0  0  0  0  0  0
    6.1182    4.0074    0.0000 O   0  0  0  0  0  0  0  0  0  0  0  0
    6.7343    1.4063    0.0000 O   0  0  0  0  0  0  0  0  0  0  0  0
    5.9466    0.1297    0.0000 C   0  0  0  0  0  0  0  0  0  0  0  0
    6.5164   -1.2578    0.0000 O   0  0  0  0  0  0  0  0  0  0  0  0
    3.6144   -1.9620    0.0000 O   0  0  0  0  0  0  0  0  0  0  0  0
    2.4708   -2.9327    0.0000 C   0  0  0  0  0  0  0  0  0  0  0  0
    2.7396   -4.4084    0.0000 O   0  0  0  0  0  0  0  0  0  0  0  0
    1.0584   -2.4277    0.0000 C   0  0  0  0  0  0  0  0  0  0  0  0
   -0.3541   -1.9226    0.0000 O   0  0  0  0  0  0  0  0  0  0  0  0
    0.7895   -0.9520    0.0000 C   0  0  0  0  0  0  0  0  0  0  0  0
   -0.6229   -0.4469    0.0000 C   0  0  0  0  0  0  0  0  0  0  0  0
   -2.0353    0.0581    0.0000 C   0  0  0  0  0  0  0  0  0  0  0  0
  1  2  1  0
  2  3  2  0
  2  4  1  0
  5  4  1  6
  5  6  1  0
  6  7  1  0
  7  8  1  0
  8  9  1  0
  8 10  1  0
  8 11  1  0
 11 12  2  0
 11 13  1  0
 13 14  2  0
 14 15  1  0
 15 16  1  1
 15 17  1  0
 17 18  1  0
 18 19  1  0
 19 20  1  0
 20 21  1  1
 20 22  1  0
 22 23  1  6
 23 24  2  0
 24 25  1  0
 25 26  1  0
 25 27  1  0
 27 28  1  0
 28 29  2  0
 22 30  1  0
 30 31  1  0
 31 32  2  0
 31 33  1  0
 33 34  1  1
 35 34  1  1
 35 36  1  0
 36 37  1  1
 36  5  1  0
 15  7  1  0
 36 17  1  0
 35 20  1  0
 28 23  1  0
 35 33  1  0
M  END
>  <identifier>  (1087) 
CNP0179992.2

>  <canonical_smiles>  (1087) 
CC(=O)O[C@@H]1CC2C(C)(C)C(=O)C=C[C@]2(C)C2CC[C@]3(C)[C@H](C4=CC(O)OC4=O)OC(=O)[C@H]4O[C@]43[C@@]21C

>  <standard_inchi>  (1087) 
InChI=1S/C28H34O9/c1-13(29)34-18-12-16-24(2,3)17(30)8-9-25(16,4)15-7-10-26(5)20(14-11-19(31)35-22(14)32)36-23(33)21-28(26,37-21)27(15,18)6/h8-9,11,15-16,18-21,31H,7,10,12H2,1-6H3/t15?,16?,18-,19?,20+,21-,25-,26-,27+,28-/m1/s1

>  <standard_inchi_key>  (1087) 
RNDCBBAMBNUYHC-NFORPDTKSA-N

>  <name>  (1087) 
nan

>  <iupac_name>  (1087) 
[(1~{S},2~{R},4~{S},7~{R},8~{R},12~{R},19~{R})-7-(2-hydroxy-5-oxo-2~{H}-furan-4-yl)-1,8,12,16,16-pentamethyl-5,15-dioxo-3,6-dioxapentacyclo[9.8.0.0^{2,4}.0^{2,8}.0^{12,17}]nonadec-13-en-19-yl] acetate

>  <annotation_level>  (1087) 
4

>  <total_atom_count>  (1087) 
71

>  <heavy_atom_count>  (1087) 
37

>  <molecular_weight>  (1087) 
514.57

>  <exact_molecular_weight>  (1087) 
514.22028

>  <molecular_formula>  (1087) 
C28H34O9

>  <alogp>  (1087) 
2.40

>  <topological_polar_surface_area>  (1087) 
128.73

>  <rotatable_bond_count>  (1087) 
2

>  <hydrogen_bond_acceptors>  (1087) 
9

>  <hydrogen_bond_donors>  (1087) 
1

>  <hydrogen_bond_acceptors_lipinski>  (1087) 
9

>  <hydrogen_bond_donors_lipinski>  (1087) 
1

>  <lipinski_rule_of_five_violations>  (1087) 
1

>  <aromatic_rings_count>  (1087) 
0

>  <qed_drug_likeliness>  (1087) 
0.34

>  <formal_charge>  (1087) 
0

>  <fractioncsp3>  (1087) 
0.71

>  <number_of_minimal_rings>  (1087) 
6

>  <van_der_walls_volume>  (1087) 
nan

>  <contains_sugar>  (1087) 
False

>  <contains_ring_sugars>  (1087) 
False

>  <contains_linear_sugars>  (1087) 
False

>  <murcko_framework>  (1087) 
O1CC=C(C1)C2OCC3OC34C2CCC5C6C=CCCC6CCC54

>  <np_likeness>  (1087) 
3.54

>  <chemical_class>  (1087) 
Prenol lipids

>  <chemical_sub_class>  (1087) 
Triterpenoids

>  <chemical_super_class>  (1087) 
Lipids and lipid-like molecules

>  <direct_parent_classification>  (1087) 
Limonoids

>  <np_classifier_pathway>  (1087) 
Terpenoids

>  <np_classifier_superclass>  (1087) 
Triterpenoids

>  <np_classifier_class>  (1087) 
Limonoids

>  <np_classifier_is_glycoside>  (1087) 
True

>  <organisms>  (1087) 
Carapa guianensis

>  <collections>  (1087) 
Latin America dataset|NuBBEDB|WikiData Natural Products

>  <dois>  (1087) 
10.1515/ZNC-2011-5-607|10.1515/znc-2011-5-607

>  <synonyms>  (1087) 
\u221a\u00e9\u00ac\u2264-photogedunin

>  <cas>  (1087) 
nan

$$$$

     RDKit          2D

 24 26  0  0  0  0  0  0  0  0999 V2000
    8.2320   -2.6303    0.0000 C   0  0  0  0  0  0  0  0  0  0  0  0
    7.8218   -1.1875    0.0000 O   0  0  0  0  0  0  0  0  0  0  0  0
    6.3671   -0.8213    0.0000 C   0  0  0  0  0  0  0  0  0  0  0  0
    5.3227   -1.8980    0.0000 C   0  0  0  0  0  0  0  0  0  0  0  0
    3.8681   -1.5318    0.0000 C   0  0  0  0  0  0  0  0  0  0  0  0
    3.4579   -0.0890    0.0000 C   0  0  0  0  0  0  0  0  0  0  0  0
    2.0033    0.2772    0.0000 C   0  0  0  0  0  0  0  0  0  0  0  0
    1.5930    1.7200    0.0000 C   0  0  0  0  0  0  0  0  0  0  0  0
    0.1384    2.0861    0.0000 C   0  0  0  0  0  0  0  0  0  0  0  0
   -0.2718    3.5289    0.0000 C   0  0  0  0  0  0  0  0  0  0  0  0
   -1.7264    3.8951    0.0000 C   0  0  0  0  0  0  0  0  0  0  0  0
   -2.7708    2.8184    0.0000 C   0  0  0  0  0  0  0  0  0  0  0  0
   -2.3606    1.3756    0.0000 C   0  0  0  0  0  0  0  0  0  0  0  0
   -3.4050    0.2990    0.0000 C   0  0  0  0  0  0  0  0  0  0  0  0
   -4.8597    0.6651    0.0000 C   0  0  0  0  0  0  0  0  0  0  0  0
   -5.9041   -0.4116    0.0000 C   0  0  0  0  0  0  0  0  0  0  0  0
   -5.4938   -1.8544    0.0000 C   0  0  0  0  0  0  0  0  0  0  0  0
   -6.5383   -2.9310    0.0000 O   0  0  0  0  0  0  0  0  0  0  0  0
   -7.9929   -2.5649    0.0000 C   0  0  0  0  0  0  0  0  0  0  0  0
   -4.0392   -2.2205    0.0000 C   0  0  0  0  0  0  0  0  0  0  0  0
   -2.9948   -1.1439    0.0000 C   0  0  0  0  0  0  0  0  0  0  0  0
   -0.9060    1.0095    0.0000 O   0  0  0  0  0  0  0  0  0  0  0  0
    4.5023    0.9877    0.0000 C   0  0  0  0  0  0  0  0  0  0  0  0
    5.9569    0.6215    0.0000 C   0  0  0  0  0  0  0  0  0  0  0  0
  1  2  1  0
  2  3  1  0
  3  4  2  0
  4  5  1  0
  5  6  2  0
  6  7  1  0
  7  8  1  0
  9  8  1  6
  9 10  1  0
 10 11  1  0
 11 12  1  0
 12 13  1  0
 13 14  1  6
 14 15  2  0
 15 16  1  0
 16 17  2  0
 17 18  1  0
 18 19  1  0
 17 20  1  0
 20 21  2  0
 13 22  1  0
  6 23  1  0
 23 24  2  0
 24  3  1  0
 22  9  1  0
 21 14  1  0
M  END
>  <identifier>  (1088) 
CNP0080460.1

>  <canonical_smiles>  (1088) 
COC1=CC=C(CC[C@H]2CCC[C@@H](C3=CC=C(OC)C=C3)O2)C=C1

>  <standard_inchi>  (1088) 
InChI=1S/C21H26O3/c1-22-18-11-6-16(7-12-18)8-13-20-4-3-5-21(24-20)17-9-14-19(23-2)15-10-17/h6-7,9-12,14-15,20-21H,3-5,8,13H2,1-2H3/t20-,21+/m1/s1

>  <standard_inchi_key>  (1088) 
SXKCFMYNSDVGSD-RTWAWAEBSA-N

>  <name>  (1088) 
nan

>  <iupac_name>  (1088) 
(2~{S},6~{R})-2-(4-methoxyphenyl)-6-[2-(4-methoxyphenyl)ethyl]tetrahydropyran

>  <annotation_level>  (1088) 
4

>  <total_atom_count>  (1088) 
50

>  <heavy_atom_count>  (1088) 
24

>  <molecular_weight>  (1088) 
326.44

>  <exact_molecular_weight>  (1088) 
326.18819

>  <molecular_formula>  (1088) 
C21H26O3

>  <alogp>  (1088) 
4.95

>  <topological_polar_surface_area>  (1088) 
27.69

>  <rotatable_bond_count>  (1088) 
6

>  <hydrogen_bond_acceptors>  (1088) 
3

>  <hydrogen_bond_donors>  (1088) 
0

>  <hydrogen_bond_acceptors_lipinski>  (1088) 
3

>  <hydrogen_bond_donors_lipinski>  (1088) 
0

>  <lipinski_rule_of_five_violations>  (1088) 
0

>  <aromatic_rings_count>  (1088) 
2

>  <qed_drug_likeliness>  (1088) 
0.75

>  <formal_charge>  (1088) 
0

>  <fractioncsp3>  (1088) 
0.43

>  <number_of_minimal_rings>  (1088) 
3

>  <van_der_walls_volume>  (1088) 
nan

>  <contains_sugar>  (1088) 
False

>  <contains_ring_sugars>  (1088) 
False

>  <contains_linear_sugars>  (1088) 
False

>  <murcko_framework>  (1088) 
O1C(c2ccccc2)CCCC1CCc3ccccc3

>  <np_likeness>  (1088) 
0.47

>  <chemical_class>  (1088) 
Diarylheptanoids

>  <chemical_sub_class>  (1088) 
Linear diarylheptanoids

>  <chemical_super_class>  (1088) 
Phenylpropanoids and polyketides

>  <direct_parent_classification>  (1088) 
Linear diarylheptanoids

>  <np_classifier_pathway>  (1088) 
Shikimates and Phenylpropanoids

>  <np_classifier_superclass>  (1088) 
Diarylheptanoids

>  <np_classifier_class>  (1088) 
Linear diarylheptanoids

>  <np_classifier_is_glycoside>  (1088) 
False

>  <organisms>  (1088) 
Centrolobium robustum

>  <collections>  (1088) 
Latin America dataset|NuBBEDB|WikiData Natural Products|ZINC NP

>  <dois>  (1088) 
10.1016/S0031-9422(00)85606-X

>  <synonyms>  (1088) 
(-)-O-methylcentrolobine

>  <cas>  (1088) 
nan

$$$$

     RDKit          2D

 19 21  0  0  0  0  0  0  0  0999 V2000
   -4.9357    1.8671    0.0000 C   0  0  0  0  0  0  0  0  0  0  0  0
   -3.6952    1.0238    0.0000 C   0  0  0  0  0  0  0  0  0  0  0  0
   -3.8053   -0.4721    0.0000 C   0  0  0  0  0  0  0  0  0  0  0  0
   -2.5647   -1.3154    0.0000 C   0  0  0  0  0  0  0  0  0  0  0  0
   -2.6748   -2.8114    0.0000 O   0  0  0  0  0  0  0  0  0  0  0  0
   -1.2142   -0.6627    0.0000 C   0  0  0  0  0  0  0  0  0  0  0  0
    0.0263   -1.5060    0.0000 C   0  0  0  0  0  0  0  0  0  0  0  0
   -0.0837   -3.0019    0.0000 O   0  0  0  0  0  0  0  0  0  0  0  0
    1.3769   -0.8533    0.0000 C   0  0  0  0  0  0  0  0  0  0  0  0
    2.6174   -1.6966    0.0000 C   0  0  0  0  0  0  0  0  0  0  0  0
    3.9680   -1.0439    0.0000 C   0  0  0  0  0  0  0  0  0  0  0  0
    4.0780    0.4521    0.0000 C   0  0  0  0  0  0  0  0  0  0  0  0
    5.4286    1.1048    0.0000 O   0  0  0  0  0  0  0  0  0  0  0  0
    2.8375    1.2953    0.0000 C   0  0  0  0  0  0  0  0  0  0  0  0
    1.4869    0.6427    0.0000 C   0  0  0  0  0  0  0  0  0  0  0  0
    0.2464    1.4859    0.0000 C   0  0  0  0  0  0  0  0  0  0  0  0
    0.3564    2.9819    0.0000 O   0  0  0  0  0  0  0  0  0  0  0  0
   -1.1042    0.8332    0.0000 C   0  0  0  0  0  0  0  0  0  0  0  0
   -2.3447    1.6765    0.0000 C   0  0  0  0  0  0  0  0  0  0  0  0
  1  2  1  0
  2  3  2  0
  3  4  1  0
  4  5  1  0
  4  6  2  0
  6  7  1  0
  7  8  2  0
  7  9  1  0
  9 10  2  0
 10 11  1  0
 11 12  2  0
 12 13  1  0
 12 14  1  0
 14 15  2  0
 15 16  1  0
 16 17  2  0
 16 18  1  0
 18 19  2  0
 19  2  1  0
 18  6  1  0
 15  9  1  0
M  END
>  <identifier>  (1089) 
CNP0405524.0

>  <canonical_smiles>  (1089) 
CC1=CC(O)=C2C(=O)C3=CC=C(O)C=C3C(=O)C2=C1

>  <standard_inchi>  (1089) 
InChI=1S/C15H10O4/c1-7-4-11-13(12(17)5-7)15(19)9-3-2-8(16)6-10(9)14(11)18/h2-6,16-17H,1H3

>  <standard_inchi_key>  (1089) 
CABAPJGWBVFEQH-UHFFFAOYSA-N

>  <name>  (1089) 
Phomarin

>  <iupac_name>  (1089) 
1,6-dihydroxy-3-methyl-anthracene-9,10-dione

>  <annotation_level>  (1089) 
5

>  <total_atom_count>  (1089) 
29

>  <heavy_atom_count>  (1089) 
19

>  <molecular_weight>  (1089) 
254.24

>  <exact_molecular_weight>  (1089) 
254.05791

>  <molecular_formula>  (1089) 
C15H10O4

>  <alogp>  (1089) 
2.18

>  <topological_polar_surface_area>  (1089) 
74.60

>  <rotatable_bond_count>  (1089) 
0

>  <hydrogen_bond_acceptors>  (1089) 
4

>  <hydrogen_bond_donors>  (1089) 
2

>  <hydrogen_bond_acceptors_lipinski>  (1089) 
4

>  <hydrogen_bond_donors_lipinski>  (1089) 
2

>  <lipinski_rule_of_five_violations>  (1089) 
0

>  <aromatic_rings_count>  (1089) 
2

>  <qed_drug_likeliness>  (1089) 
0.64

>  <formal_charge>  (1089) 
0

>  <fractioncsp3>  (1089) 
0.07

>  <number_of_minimal_rings>  (1089) 
3

>  <van_der_walls_volume>  (1089) 
nan

>  <contains_sugar>  (1089) 
False

>  <contains_ring_sugars>  (1089) 
False

>  <contains_linear_sugars>  (1089) 
False

>  <murcko_framework>  (1089) 
c1ccc2c(c1)Cc3ccccc3C2

>  <np_likeness>  (1089) 
1.23

>  <chemical_class>  (1089) 
Anthracenes

>  <chemical_sub_class>  (1089) 
Anthraquinones

>  <chemical_super_class>  (1089) 
Benzenoids

>  <direct_parent_classification>  (1089) 
Hydroxyanthraquinones

>  <np_classifier_pathway>  (1089) 
Polyketides

>  <np_classifier_superclass>  (1089) 
Polycyclic aromatic polyketides

>  <np_classifier_class>  (1089) 
Anthraquinones and anthrones

>  <np_classifier_is_glycoside>  (1089) 
False

>  <organisms>  (1089) 
Boeremia foveata|Digitalis isabelliana|Digitalis purpurea|Digitalis viridiflora|Epicoccum sorghinum|Isoplexis isabelliana|Phoma foveata|Phoma sorghina

>  <collections>  (1089) 
Australian natural products|Latin America dataset|NPEdia|NuBBEDB|Super Natural II|UNPD (Universal Natural Products Database)|WikiData Natural Products

>  <dois>  (1089) 
10.1016/S0031-9422(00)85831-8|10.1016/S0031-9422(00)85939-7|10.1016/S0031-9422(99)00450-1|10.1039/J39710002007|10.1042/BJ0980112|10.1042/bj0980112|10.1590/S0103-50532006000500017

>  <synonyms>  (1089) 
1,6-DIHYDROXY-3-METHYLANTHRACENE-9,10-DIONE|1,6-Dihydroxy-3-methyl-9,10-anthracenedione|1,6-Dihydroxy-3-methylanthraquinone|3-METHYL-1,6-BIS(OXIDANYL)ANTHRACENE-9,10-DIONE|3-methyl-1,6-dihydroxy-anthraquinone|6866-87-1|9,10-Anthracenedione, 1,6-dihydroxy-3-methyl-|Anthraquinone, 1,6-dihydroxy-3-methyl-|CHEBI:174349|DTXSID601260847|Digitoemodin|P8SXQ8DG6J|Phomarin|Phomarin 16-dihydroxy-3-methyl-910- anthraquinone|SCHEMBL2455238|phomarin

>  <cas>  (1089) 
6866-87-1

$$$$

     RDKit          2D

 19 20  0  0  0  0  0  0  0  0999 V2000
    5.5487    0.3802    0.0000 C   0  0  0  0  0  0  0  0  0  0  0  0
    4.5928   -0.7758    0.0000 C   0  0  0  0  0  0  0  0  0  0  0  0
    3.1138   -0.5259    0.0000 C   0  0  0  0  0  0  0  0  0  0  0  0
    2.8640   -2.0050    0.0000 C   0  0  0  0  0  0  0  0  0  0  0  0
    3.3636    0.9531    0.0000 C   0  0  0  0  0  0  0  0  0  0  0  0
    1.6347   -0.2761    0.0000 C   0  0  0  0  0  0  0  0  0  0  0  0
    0.6789   -1.4321    0.0000 C   0  0  0  0  0  0  0  0  0  0  0  0
   -0.8002   -1.1823    0.0000 C   0  0  0  0  0  0  0  0  0  0  0  0
   -1.7561   -2.3383    0.0000 C   0  0  0  0  0  0  0  0  0  0  0  0
   -3.2351   -2.0884    0.0000 C   0  0  0  0  0  0  0  0  0  0  0  0
   -3.7583   -0.6826    0.0000 C   0  0  0  0  0  0  0  0  0  0  0  0
   -5.2373   -0.4328    0.0000 O   0  0  0  0  0  0  0  0  0  0  0  0
   -2.8024    0.4734    0.0000 C   0  0  0  0  0  0  0  0  0  0  0  0
   -3.3256    1.8792    0.0000 O   0  0  0  0  0  0  0  0  0  0  0  0
   -2.3697    3.0351    0.0000 C   0  0  0  0  0  0  0  0  0  0  0  0
   -1.3234    0.2235    0.0000 C   0  0  0  0  0  0  0  0  0  0  0  0
   -0.3675    1.3795    0.0000 O   0  0  0  0  0  0  0  0  0  0  0  0
    1.1116    1.1297    0.0000 C   0  0  0  0  0  0  0  0  0  0  0  0
    2.0675    2.2857    0.0000 O   0  0  0  0  0  0  0  0  0  0  0  0
  1  2  2  0
  2  3  1  0
  3  4  1  0
  3  5  1  0
  3  6  1  0
  6  7  2  0
  7  8  1  0
  8  9  2  0
  9 10  1  0
 10 11  2  0
 11 12  1  0
 11 13  1  0
 13 14  1  0
 14 15  1  0
 13 16  2  0
 16 17  1  0
 17 18  1  0
 18 19  2  0
 18  6  1  0
 16  8  1  0
M  END
>  <identifier>  (1090) 
CNP0145713.0

>  <canonical_smiles>  (1090) 
C=CC(C)(C)C1=CC2=CC=C(O)C(OC)=C2OC1=O

>  <standard_inchi>  (1090) 
InChI=1S/C15H16O4/c1-5-15(2,3)10-8-9-6-7-11(16)13(18-4)12(9)19-14(10)17/h5-8,16H,1H2,2-4H3

>  <standard_inchi_key>  (1090) 
JJIFPBFUGHXSGM-UHFFFAOYSA-N

>  <name>  (1090) 
3-(1,1-dimethylallyl)-7-hydroxy-8-methoxycoumarin

>  <iupac_name>  (1090) 
3-(1,1-dimethylallyl)-7-hydroxy-8-methoxy-chromen-2-one

>  <annotation_level>  (1090) 
5

>  <total_atom_count>  (1090) 
35

>  <heavy_atom_count>  (1090) 
19

>  <molecular_weight>  (1090) 
260.29

>  <exact_molecular_weight>  (1090) 
260.10486

>  <molecular_formula>  (1090) 
C15H16O4

>  <alogp>  (1090) 
2.97

>  <topological_polar_surface_area>  (1090) 
59.67

>  <rotatable_bond_count>  (1090) 
3

>  <hydrogen_bond_acceptors>  (1090) 
4

>  <hydrogen_bond_donors>  (1090) 
1

>  <hydrogen_bond_acceptors_lipinski>  (1090) 
4

>  <hydrogen_bond_donors_lipinski>  (1090) 
1

>  <lipinski_rule_of_five_violations>  (1090) 
0

>  <aromatic_rings_count>  (1090) 
2

>  <qed_drug_likeliness>  (1090) 
0.68

>  <formal_charge>  (1090) 
0

>  <fractioncsp3>  (1090) 
0.27

>  <number_of_minimal_rings>  (1090) 
2

>  <van_der_walls_volume>  (1090) 
nan

>  <contains_sugar>  (1090) 
False

>  <contains_ring_sugars>  (1090) 
False

>  <contains_linear_sugars>  (1090) 
False

>  <murcko_framework>  (1090) 
O1c2ccccc2C=CC1

>  <np_likeness>  (1090) 
1.87

>  <chemical_class>  (1090) 
Coumarins and derivatives

>  <chemical_sub_class>  (1090) 
Hydroxycoumarins

>  <chemical_super_class>  (1090) 
Phenylpropanoids and polyketides

>  <direct_parent_classification>  (1090) 
7-hydroxycoumarins

>  <np_classifier_pathway>  (1090) 
Shikimates and Phenylpropanoids

>  <np_classifier_superclass>  (1090) 
Coumarins

>  <np_classifier_class>  (1090) 
Simple coumarins

>  <np_classifier_is_glycoside>  (1090) 
False

>  <organisms>  (1090) 
Pilocarpus riedelianus

>  <collections>  (1090) 
Latin America dataset|NuBBEDB|UNPD (Universal Natural Products Database)|WikiData Natural Products|ZINC NP

>  <dois>  (1090) 
10.1590/S0103-50532005000400031

>  <synonyms>  (1090) 
3-(1,1-dimethylallyl)-7-hydroxy-8-methoxy-chromen-2-one|7-hydroxy-3- (11-dimethylallyl)-8-methoxycoumarin

>  <cas>  (1090) 
nan

$$$$

     RDKit          2D

 24 27  0  0  0  0  0  0  0  0999 V2000
   -5.1396    2.0268    0.0000 C   0  0  0  0  0  0  0  0  0  0  0  0
   -4.6651    0.6039    0.0000 C   0  0  0  0  0  0  0  0  0  0  0  0
   -5.6602   -0.5186    0.0000 C   0  0  0  0  0  0  0  0  0  0  0  0
   -3.1955    0.3033    0.0000 C   0  0  0  0  0  0  0  0  0  0  0  0
   -2.2004    1.4257    0.0000 C   0  0  0  0  0  0  0  0  0  0  0  0
   -0.7309    1.1252    0.0000 C   0  0  0  0  0  0  0  0  0  0  0  0
   -0.2564   -0.2978    0.0000 C   0  0  0  0  0  0  0  0  0  0  0  0
   -1.2514   -1.4202    0.0000 C   0  0  0  0  0  0  0  0  0  0  0  0
   -0.7769   -2.8432    0.0000 O   0  0  0  0  0  0  0  0  0  0  0  0
   -2.7210   -1.1197    0.0000 C   0  0  0  0  0  0  0  0  0  0  0  0
   -3.7161   -2.2421    0.0000 O   0  0  0  0  0  0  0  0  0  0  0  0
    1.2132   -0.5984    0.0000 C   0  0  0  0  0  0  0  0  0  0  0  0
    1.6877   -2.0213    0.0000 C   0  0  0  0  0  0  0  0  0  0  0  0
    3.1573   -2.3219    0.0000 C   0  0  0  0  0  0  0  0  0  0  0  0
    4.1524   -1.1995    0.0000 C   0  0  0  0  0  0  0  0  0  0  0  0
    3.6779    0.2235    0.0000 C   0  0  0  0  0  0  0  0  0  0  0  0
    3.7187    1.7230    0.0000 C   0  0  0  0  0  0  0  0  0  0  0  0
    5.1616    0.4437    0.0000 C   0  0  0  0  0  0  0  0  0  0  0  0
    2.2083    0.5241    0.0000 C   0  0  0  0  0  0  0  0  0  0  0  0
    1.7338    1.9470    0.0000 C   0  0  0  0  0  0  0  0  0  0  0  0
    0.2642    2.2476    0.0000 C   0  0  0  0  0  0  0  0  0  0  0  0
    0.5721    1.4839    0.0000 O   0  0  0  0  0  0  0  0  0  0  0  0
    1.0011    0.1973    0.0000 C   0  0  0  0  0  0  0  0  0  0  0  0
    1.7653    0.3076    0.0000 O   0  0  0  0  0  0  0  0  0  0  0  0
  1  2  1  0
  2  3  1  0
  2  4  1  0
  4  5  2  0
  5  6  1  0
  6  7  2  0
  7  8  1  0
  8  9  1  0
  8 10  2  0
 10 11  1  0
  7 12  1  0
 12 13  1  1
 13 14  1  0
 14 15  1  0
 15 16  1  0
 16 17  1  0
 16 18  1  0
 16 19  1  0
 19 20  1  0
 21 20  1  6
 21 22  1  0
 22 23  1  0
 23 24  2  0
 10  4  1  0
 19 12  1  0
 21  6  1  0
 23 12  1  0
M  END
>  <identifier>  (1091) 
CNP0240895.4

>  <canonical_smiles>  (1091) 
CC(C)C1=CC2=C(C(O)=C1O)[C@@]13CCCC(C)(C)C1C[C@@H]2OC3=O

>  <standard_inchi>  (1091) 
InChI=1S/C20H26O4/c1-10(2)11-8-12-13-9-14-19(3,4)6-5-7-20(14,18(23)24-13)15(12)17(22)16(11)21/h8,10,13-14,21-22H,5-7,9H2,1-4H3/t13-,14?,20+/m0/s1

>  <standard_inchi_key>  (1091) 
XUSYGBPHQBWGAD-YFCRFVGBSA-N

>  <name>  (1091) 
dihydroxy-isopropyl-dimethyl-[?]one

>  <iupac_name>  (1091) 
(1~{R},8~{S})-3,4-dihydroxy-5-isopropyl-11,11-dimethyl-16-oxatetracyclo[6.6.2.0^{1,10}.0^{2,7}]hexadeca-2(7),3,5-trien-15-one

>  <annotation_level>  (1091) 
5

>  <total_atom_count>  (1091) 
50

>  <heavy_atom_count>  (1091) 
24

>  <molecular_weight>  (1091) 
330.42

>  <exact_molecular_weight>  (1091) 
330.18311

>  <molecular_formula>  (1091) 
C20H26O4

>  <alogp>  (1091) 
4.29

>  <topological_polar_surface_area>  (1091) 
66.76

>  <rotatable_bond_count>  (1091) 
1

>  <hydrogen_bond_acceptors>  (1091) 
4

>  <hydrogen_bond_donors>  (1091) 
2

>  <hydrogen_bond_acceptors_lipinski>  (1091) 
4

>  <hydrogen_bond_donors_lipinski>  (1091) 
2

>  <lipinski_rule_of_five_violations>  (1091) 
0

>  <aromatic_rings_count>  (1091) 
1

>  <qed_drug_likeliness>  (1091) 
0.60

>  <formal_charge>  (1091) 
0

>  <fractioncsp3>  (1091) 
0.65

>  <number_of_minimal_rings>  (1091) 
5

>  <van_der_walls_volume>  (1091) 
307.54

>  <contains_sugar>  (1091) 
False

>  <contains_ring_sugars>  (1091) 
False

>  <contains_linear_sugars>  (1091) 
False

>  <murcko_framework>  (1091) 
O1CC23c4ccccc4C1CC3CCCC2

>  <np_likeness>  (1091) 
2.67

>  <chemical_class>  (1091) 
Prenol lipids

>  <chemical_sub_class>  (1091) 
Terpene lactones

>  <chemical_super_class>  (1091) 
Lipids and lipid-like molecules

>  <direct_parent_classification>  (1091) 
Diterpene lactones

>  <np_classifier_pathway>  (1091) 
Terpenoids

>  <np_classifier_superclass>  (1091) 
Diterpenoids

>  <np_classifier_class>  (1091) 
Abietane diterpenoids

>  <np_classifier_is_glycoside>  (1091) 
False

>  <organisms>  (1091) 
Agaricus campestris|Anguilla japonica|Bos taurus|Canis familiaris|Canis lupus familiaris|Pelophylax nigromaculatus|Pelophylax plancyi|Rana nigromaculata|Rosmarinus officinalis|Salvia miltiorrhiza|Salvia przewalskii

>  <collections>  (1091) 
CMAUP (cCollective molecular activities of useful plants)|Latin America dataset|NPASS|NuBBEDB

>  <dois>  (1091) 
10.1016/S0040-4020(01)88671-3

>  <synonyms>  (1091) 
SCHEMBL14542042|carnosol

>  <cas>  (1091) 
nan

$$$$

     RDKit          2D

 34 35  0  0  0  0  0  0  0  0999 V2000
   11.9995   -2.4889    0.0000 C   0  0  0  0  0  0  0  0  0  0  0  0
   12.2030   -1.0027    0.0000 O   0  0  0  0  0  0  0  0  0  0  0  0
   11.0177   -0.0835    0.0000 C   0  0  0  0  0  0  0  0  0  0  0  0
    9.6289   -0.6503    0.0000 C   0  0  0  0  0  0  0  0  0  0  0  0
    8.4436    0.2689    0.0000 C   0  0  0  0  0  0  0  0  0  0  0  0
    7.0549   -0.2979    0.0000 C   0  0  0  0  0  0  0  0  0  0  0  0
    5.8696    0.6213    0.0000 C   0  0  0  0  0  0  0  0  0  0  0  0
    4.4808    0.0545    0.0000 C   0  0  0  0  0  0  0  0  0  0  0  0
    4.2774   -1.4317    0.0000 O   0  0  0  0  0  0  0  0  0  0  0  0
    3.2955    0.9738    0.0000 O   0  0  0  0  0  0  0  0  0  0  0  0
    1.9068    0.4069    0.0000 C   0  0  0  0  0  0  0  0  0  0  0  0
    0.7214    1.3262    0.0000 C   0  0  0  0  0  0  0  0  0  0  0  0
   -0.6673    0.7593    0.0000 C   0  0  0  0  0  0  0  0  0  0  0  0
   -0.8708   -0.7268    0.0000 C   0  0  0  0  0  0  0  0  0  0  0  0
   -2.2595   -1.2937    0.0000 C   0  0  0  0  0  0  0  0  0  0  0  0
   -3.4448   -0.3744    0.0000 C   0  0  0  0  0  0  0  0  0  0  0  0
   -4.8336   -0.9413    0.0000 C   0  0  0  0  0  0  0  0  0  0  0  0
   -6.0189   -0.0220    0.0000 C   0  0  0  0  0  0  0  0  0  0  0  0
   -7.4077   -0.5889    0.0000 C   0  0  0  0  0  0  0  0  0  0  0  0
   -8.5930    0.3304    0.0000 C   0  0  0  0  0  0  0  0  0  0  0  0
   -9.9817   -0.2365    0.0000 C   0  0  0  0  0  0  0  0  0  0  0  0
  -11.1670    0.6828    0.0000 C   0  0  0  0  0  0  0  0  0  0  0  0
  -12.5558    0.1159    0.0000 C   0  0  0  0  0  0  0  0  0  0  0  0
  -13.7411    1.0352    0.0000 C   0  0  0  0  0  0  0  0  0  0  0  0
  -15.1299    0.4683    0.0000 C   0  0  0  0  0  0  0  0  0  0  0  0
  -16.3152    1.3876    0.0000 C   0  0  0  0  0  0  0  0  0  0  0  0
  -15.3333   -1.0178    0.0000 O   0  0  0  0  0  0  0  0  0  0  0  0
    0.3145   -1.6461    0.0000 N   0  0  0  0  0  0  0  0  0  0  0  0
    1.7033   -1.0792    0.0000 C   0  0  0  0  0  0  0  0  0  0  0  0
    2.8886   -1.9985    0.0000 C   0  0  0  0  0  0  0  0  0  0  0  0
    8.6471    1.7551    0.0000 C   0  0  0  0  0  0  0  0  0  0  0  0
   10.0359    2.3219    0.0000 C   0  0  0  0  0  0  0  0  0  0  0  0
   11.2212    1.4027    0.0000 C   0  0  0  0  0  0  0  0  0  0  0  0
   12.6099    1.9695    0.0000 O   0  0  0  0  0  0  0  0  0  0  0  0
  1  2  1  0
  2  3  1  0
  3  4  2  0
  4  5  1  0
  5  6  1  0
  6  7  2  0
  7  8  1  0
  8  9  2  0
  8 10  1  0
 11 10  1  1
 11 12  1  0
 12 13  1  0
 13 14  1  0
 14 15  1  1
 15 16  1  0
 16 17  1  0
 17 18  1  0
 18 19  1  0
 19 20  1  0
 20 21  1  0
 21 22  1  0
 22 23  1  0
 23 24  1  0
 24 25  1  0
 25 26  1  0
 25 27  2  0
 14 28  1  0
 28 29  1  0
 29 30  1  1
  5 31  2  0
 31 32  1  0
 32 33  2  0
 33 34  1  0
 33  3  1  0
 29 11  1  0
M  END
>  <identifier>  (1092) 
CNP0114953.1

>  <canonical_smiles>  (1092) 
COC1=CC(/C=C/C(=O)O[C@@H]2CC[C@H](CCCCCCCCCCC(C)=O)N[C@@H]2C)=CC=C1O

>  <standard_inchi>  (1092) 
InChI=1S/C28H43NO5/c1-21(30)12-10-8-6-4-5-7-9-11-13-24-16-18-26(22(2)29-24)34-28(32)19-15-23-14-17-25(31)27(20-23)33-3/h14-15,17,19-20,22,24,26,29,31H,4-13,16,18H2,1-3H3/b19-15+/t22-,24+,26-/m1/s1

>  <standard_inchi_key>  (1092) 
STSLNURRVKPSHZ-VQQILSIJSA-N

>  <name>  (1092) 
(+)-3-O-feruloylcassine

>  <iupac_name>  (1092) 
[(2~{R},3~{R},6~{S})-2-methyl-6-(11-oxododecyl)-3-piperidyl] (~{E})-3-(4-hydroxy-3-methoxy-phenyl)prop-2-enoate

>  <annotation_level>  (1092) 
5

>  <total_atom_count>  (1092) 
77

>  <heavy_atom_count>  (1092) 
34

>  <molecular_weight>  (1092) 
473.65

>  <exact_molecular_weight>  (1092) 
473.31412

>  <molecular_formula>  (1092) 
C28H43NO5

>  <alogp>  (1092) 
5.96

>  <topological_polar_surface_area>  (1092) 
84.86

>  <rotatable_bond_count>  (1092) 
15

>  <hydrogen_bond_acceptors>  (1092) 
6

>  <hydrogen_bond_donors>  (1092) 
2

>  <hydrogen_bond_acceptors_lipinski>  (1092) 
6

>  <hydrogen_bond_donors_lipinski>  (1092) 
2

>  <lipinski_rule_of_five_violations>  (1092) 
1

>  <aromatic_rings_count>  (1092) 
1

>  <qed_drug_likeliness>  (1092) 
0.19

>  <formal_charge>  (1092) 
0

>  <fractioncsp3>  (1092) 
0.64

>  <number_of_minimal_rings>  (1092) 
2

>  <van_der_walls_volume>  (1092) 
475.15

>  <contains_sugar>  (1092) 
False

>  <contains_ring_sugars>  (1092) 
False

>  <contains_linear_sugars>  (1092) 
False

>  <murcko_framework>  (1092) 
O(CC=Cc1ccccc1)C2CNCCC2

>  <np_likeness>  (1092) 
1.61

>  <chemical_class>  (1092) 
Cinnamic acids and derivatives

>  <chemical_sub_class>  (1092) 
Hydroxycinnamic acids and derivatives

>  <chemical_super_class>  (1092) 
Phenylpropanoids and polyketides

>  <direct_parent_classification>  (1092) 
Hydroxycinnamic acids

>  <np_classifier_pathway>  (1092) 
Alkaloids

>  <np_classifier_superclass>  (1092) 
Lysine alkaloids

>  <np_classifier_class>  (1092) 
Piperidine alkaloids

>  <np_classifier_is_glycoside>  (1092) 
False

>  <organisms>  (1092) 
Senna spectabilis|cassia spectabilis

>  <collections>  (1092) 
ChemSpider NPs|KNApSaCK|Latin America dataset|NPASS|NuBBEDB|Super Natural II|WikiData Natural Products|ZINC NP

>  <dois>  (1092) 
10.1021/NP070312G|10.1021/np070312g

>  <synonyms>  (1092) 
(+)-3-O-Feruloylcassine|CHEBI:188824|CHEMBL249463|[(2R,3R,6S)-2-methyl-6-(11-oxododecyl)piperidin-3-yl] (E)-3-(4-hydroxy-3-methoxyphenyl)prop-2-enoate

>  <cas>  (1092) 
nan

$$$$

     RDKit          2D

 15 16  0  0  0  0  0  0  0  0999 V2000
    3.0000   -2.7713    0.0000 C   0  0  0  0  0  0  0  0  0  0  0  0
    2.2500   -1.4722    0.0000 C   0  0  0  0  0  0  0  0  0  0  0  0
    0.7500   -1.4722    0.0000 C   0  0  0  0  0  0  0  0  0  0  0  0
    0.0000   -0.1732    0.0000 C   0  0  0  0  0  0  0  0  0  0  0  0
    0.7500    1.1258    0.0000 C   0  0  0  0  0  0  0  0  0  0  0  0
    2.2500    1.1258    0.0000 C   0  0  0  0  0  0  0  0  0  0  0  0
    3.0000   -0.1732    0.0000 C   0  0  0  0  0  0  0  0  0  0  0  0
   -0.0000    2.4249    0.0000 C   0  0  0  0  0  0  0  0  0  0  0  0
    0.7500    3.7239    0.0000 C   0  0  0  0  0  0  0  0  0  0  0  0
   -1.5000    2.4249    0.0000 C   0  0  0  0  0  0  0  0  0  0  0  0
   -2.2500    1.1258    0.0000 C   0  0  0  0  0  0  0  0  0  0  0  0
   -1.5000   -0.1732    0.0000 C   0  0  0  0  0  0  0  0  0  0  0  0
   -2.2500   -1.4722    0.0000 C   0  0  0  0  0  0  0  0  0  0  0  0
   -3.7500   -1.4722    0.0000 C   0  0  0  0  0  0  0  0  0  0  0  0
   -1.5000   -2.7713    0.0000 C   0  0  0  0  0  0  0  0  0  0  0  0
  1  2  2  0
  2  3  1  0
  3  4  2  0
  4  5  1  0
  5  6  1  6
  6  7  1  0
  5  8  1  0
  8  9  1  1
  8 10  1  0
 10 11  1  0
 11 12  1  0
 12 13  1  1
 13 14  1  0
 13 15  1  0
  7  2  1  0
 12  4  1  0
M  END
>  <identifier>  (1093) 
CNP0144185.4

>  <canonical_smiles>  (1093) 
C=C1C=C2[C@@H](CC1)[C@H](C)CC[C@@H]2C(C)C

>  <standard_inchi>  (1093) 
InChI=1S/C15H24/c1-10(2)13-8-6-12(4)14-7-5-11(3)9-15(13)14/h9-10,12-14H,3,5-8H2,1-2,4H3/t12-,13-,14+/m1/s1

>  <standard_inchi_key>  (1093) 
RNDFUOKDULDZPR-MCIONIFRSA-N

>  <name>  (1093) 
cis-Muurola-4(14),5-diene

>  <iupac_name>  (1093) 
(1~{R},4~{R},4~{a}~{S})-1-isopropyl-4-methyl-7-methylene-2,3,4,4~{a},5,6-hexahydro-1~{H}-naphthalene

>  <annotation_level>  (1093) 
5

>  <total_atom_count>  (1093) 
39

>  <heavy_atom_count>  (1093) 
15

>  <molecular_weight>  (1093) 
204.36

>  <exact_molecular_weight>  (1093) 
204.1878

>  <molecular_formula>  (1093) 
C15H24

>  <alogp>  (1093) 
4.58

>  <topological_polar_surface_area>  (1093) 
0.00

>  <rotatable_bond_count>  (1093) 
1

>  <hydrogen_bond_acceptors>  (1093) 
0

>  <hydrogen_bond_donors>  (1093) 
0

>  <hydrogen_bond_acceptors_lipinski>  (1093) 
0

>  <hydrogen_bond_donors_lipinski>  (1093) 
0

>  <lipinski_rule_of_five_violations>  (1093) 
0

>  <aromatic_rings_count>  (1093) 
0

>  <qed_drug_likeliness>  (1093) 
0.59

>  <formal_charge>  (1093) 
0

>  <fractioncsp3>  (1093) 
0.73

>  <number_of_minimal_rings>  (1093) 
2

>  <van_der_walls_volume>  (1093) 
225.37

>  <contains_sugar>  (1093) 
False

>  <contains_ring_sugars>  (1093) 
False

>  <contains_linear_sugars>  (1093) 
False

>  <murcko_framework>  (1093) 
C1=C2CCCCC2CCC1

>  <np_likeness>  (1093) 
2.84

>  <chemical_class>  (1093) 
Prenol lipids

>  <chemical_sub_class>  (1093) 
Sesquiterpenoids

>  <chemical_super_class>  (1093) 
Lipids and lipid-like molecules

>  <direct_parent_classification>  (1093) 
Sesquiterpenoids

>  <np_classifier_pathway>  (1093) 
Terpenoids

>  <np_classifier_superclass>  (1093) 
Sesquiterpenoids

>  <np_classifier_class>  (1093) 
Cadinane sesquiterpenoids

>  <np_classifier_is_glycoside>  (1093) 
False

>  <organisms>  (1093) 
Cedrela fissilis|Daucus carota|Ocotea austinii|Ocotea gomezii|Teucrium leucocladum

>  <collections>  (1093) 
CMAUP (cCollective molecular activities of useful plants)|Latin America dataset|NAPRORE-CR|NPASS|NuBBEDB|WikiData Natural Products

>  <dois>  (1093) 
10.1016/J.BSE.2003.12.009|10.1080/10412905.2007.9699946|10.1590/S0103-50532000000600012|10.1590/S0103-50532011000400018

>  <synonyms>  (1093) 
(1R,4R,4aS)-4-methyl-7-methylidene-1-(propan-2-yl)-1,2,3,4,4a,5,6,7-octahydronaphthalene|CHEBI:61688|Q27131290|RNDFUOKDULDZPR-MCIONIFRSA-N|cis-4(14)5-muuroladiene|trans-Muurola-4(14),4-diene

>  <cas>  (1093) 
nan

$$$$

     RDKit          2D

 17 18  0  0  0  0  0  0  0  0999 V2000
    5.4855   -0.4018    0.0000 C   0  0  0  0  0  0  0  0  0  0  0  0
    4.1802    0.3374    0.0000 O   0  0  0  0  0  0  0  0  0  0  0  0
    2.8875   -0.4234    0.0000 C   0  0  0  0  0  0  0  0  0  0  0  0
    2.9000   -1.9234    0.0000 O   0  0  0  0  0  0  0  0  0  0  0  0
    1.5822    0.3157    0.0000 C   0  0  0  0  0  0  0  0  0  0  0  0
    1.5697    1.8156    0.0000 C   0  0  0  0  0  0  0  0  0  0  0  0
    0.2645    2.5548    0.0000 O   0  0  0  0  0  0  0  0  0  0  0  0
   -1.0283    1.7940    0.0000 C   0  0  0  0  0  0  0  0  0  0  0  0
   -2.3335    2.5331    0.0000 O   0  0  0  0  0  0  0  0  0  0  0  0
   -1.0158    0.2940    0.0000 C   0  0  0  0  0  0  0  0  0  0  0  0
    0.2895   -0.4451    0.0000 C   0  0  0  0  0  0  0  0  0  0  0  0
   -0.0101   -1.9149    0.0000 C   0  0  0  0  0  0  0  0  0  0  0  0
   -1.5006   -2.0841    0.0000 C   0  0  0  0  0  0  0  0  0  0  0  0
   -2.1221   -0.7189    0.0000 C   0  0  0  0  0  0  0  0  0  0  0  0
   -3.0138    0.4872    0.0000 O   0  0  0  0  0  0  0  0  0  0  0  0
   -3.4148   -1.4797    0.0000 C   0  0  0  0  0  0  0  0  0  0  0  0
   -4.7201   -0.7406    0.0000 O   0  0  0  0  0  0  0  0  0  0  0  0
  1  2  1  0
  2  3  1  0
  3  4  2  0
  3  5  1  0
  5  6  2  0
  6  7  1  0
  7  8  1  0
  8  9  1  6
 10  8  1  1
 10 11  1  0
 11 12  1  1
 12 13  2  0
 13 14  1  0
 14 15  1  1
 14 16  1  0
 16 17  1  0
 11  5  1  0
 14 10  1  0
M  END
>  <identifier>  (1094) 
CNP0131648.1

>  <canonical_smiles>  (1094) 
COC(=O)C1=CO[C@@H](O)[C@H]2[C@@H]1C=C[C@]2(O)CO

>  <standard_inchi>  (1094) 
InChI=1S/C11H14O6/c1-16-9(13)7-4-17-10(14)8-6(7)2-3-11(8,15)5-12/h2-4,6,8,10,12,14-15H,5H2,1H3/t6-,8-,10-,11+/m1/s1

>  <standard_inchi_key>  (1094) 
CYFGAUDUKUUIEV-IALJFVCMSA-N

>  <name>  (1094) 
94992-54-8

>  <iupac_name>  (1094) 
methyl (1~{R},4~{a}~{S},7~{R},7~{a}~{S})-1,7-dihydroxy-7-(hydroxymethyl)-4~{a},7~{a}-dihydro-1~{H}-cyclopenta[c]pyran-4-carboxylate

>  <annotation_level>  (1094) 
5

>  <total_atom_count>  (1094) 
31

>  <heavy_atom_count>  (1094) 
17

>  <molecular_weight>  (1094) 
242.23

>  <exact_molecular_weight>  (1094) 
242.07904

>  <molecular_formula>  (1094) 
C11H14O6

>  <alogp>  (1094) 
-1.08

>  <topological_polar_surface_area>  (1094) 
96.22

>  <rotatable_bond_count>  (1094) 
2

>  <hydrogen_bond_acceptors>  (1094) 
6

>  <hydrogen_bond_donors>  (1094) 
3

>  <hydrogen_bond_acceptors_lipinski>  (1094) 
6

>  <hydrogen_bond_donors_lipinski>  (1094) 
3

>  <lipinski_rule_of_five_violations>  (1094) 
0

>  <aromatic_rings_count>  (1094) 
0

>  <qed_drug_likeliness>  (1094) 
0.42

>  <formal_charge>  (1094) 
0

>  <fractioncsp3>  (1094) 
0.55

>  <number_of_minimal_rings>  (1094) 
2

>  <van_der_walls_volume>  (1094) 
206.97

>  <contains_sugar>  (1094) 
False

>  <contains_ring_sugars>  (1094) 
False

>  <contains_linear_sugars>  (1094) 
False

>  <murcko_framework>  (1094) 
O1C=CC2C=CCC2C1

>  <np_likeness>  (1094) 
2.92

>  <chemical_class>  (1094) 
Prenol lipids

>  <chemical_sub_class>  (1094) 
Monoterpenoids

>  <chemical_super_class>  (1094) 
Lipids and lipid-like molecules

>  <direct_parent_classification>  (1094) 
Iridoids and derivatives

>  <np_classifier_pathway>  (1094) 
Terpenoids

>  <np_classifier_superclass>  (1094) 
Monoterpenoids

>  <np_classifier_class>  (1094) 
Iridoids monoterpenoids

>  <np_classifier_is_glycoside>  (1094) 
True

>  <organisms>  (1094) 
Tocoyena formosa

>  <collections>  (1094) 
ChemSpider NPs|Latin America dataset|NuBBEDB|Super Natural II|WikiData Natural Products|ZINC NP

>  <dois>  (1094) 
10.5935/0103-5053.19960024

>  <synonyms>  (1094) 
CHEMBL521209|Cyclopenta(c)pyran-4-carboxylic acid, 1,4a,7,7a-tetrahydro-1,7-dihydroxy-7-(hydroxymethyl)-, methyl ester, (1R-(1alpha,4aalpha,7alpha,7aalpha))-|DTXSID90915194|Galioside aglicone|Methyl 1,7-dihydroxy-7-(hydroxymethyl)-1,4a,7,7a-tetrahydrocyclopenta[c]pyran-4-carboxylate

>  <cas>  (1094) 
nan

$$$$

     RDKit          2D

 24 26  0  0  0  0  0  0  0  0999 V2000
   -3.4970    3.8081    0.0000 C   0  0  0  0  0  0  0  0  0  0  0  0
   -3.8404    2.3480    0.0000 O   0  0  0  0  0  0  0  0  0  0  0  0
   -2.7476    1.3204    0.0000 C   0  0  0  0  0  0  0  0  0  0  0  0
   -1.3114    1.7531    0.0000 C   0  0  0  0  0  0  0  0  0  0  0  0
   -0.2186    0.7256    0.0000 C   0  0  0  0  0  0  0  0  0  0  0  0
   -0.5620   -0.7346    0.0000 C   0  0  0  0  0  0  0  0  0  0  0  0
   -1.9983   -1.1672    0.0000 C   0  0  0  0  0  0  0  0  0  0  0  0
   -2.3417   -2.6274    0.0000 O   0  0  0  0  0  0  0  0  0  0  0  0
   -3.7780   -3.0600    0.0000 C   0  0  0  0  0  0  0  0  0  0  0  0
   -3.0911   -0.1397    0.0000 C   0  0  0  0  0  0  0  0  0  0  0  0
   -4.5273   -0.5723    0.0000 O   0  0  0  0  0  0  0  0  0  0  0  0
   -5.6201    0.4552    0.0000 C   0  0  0  0  0  0  0  0  0  0  0  0
    0.5308   -1.7621    0.0000 C   0  0  0  0  0  0  0  0  0  0  0  0
    0.1873   -3.2222    0.0000 O   0  0  0  0  0  0  0  0  0  0  0  0
    1.9670   -1.3295    0.0000 C   0  0  0  0  0  0  0  0  0  0  0  0
    3.0598   -2.3570    0.0000 C   0  0  0  0  0  0  0  0  0  0  0  0
    4.4961   -1.9243    0.0000 C   0  0  0  0  0  0  0  0  0  0  0  0
    4.8396   -0.4642    0.0000 C   0  0  0  0  0  0  0  0  0  0  0  0
    3.7467    0.5633    0.0000 C   0  0  0  0  0  0  0  0  0  0  0  0
    4.0902    2.0235    0.0000 O   0  0  0  0  0  0  0  0  0  0  0  0
    5.5265    2.4561    0.0000 C   0  0  0  0  0  0  0  0  0  0  0  0
    2.3105    0.1307    0.0000 C   0  0  0  0  0  0  0  0  0  0  0  0
    1.2177    1.1582    0.0000 N   0  0  0  0  0  0  0  0  0  0  0  0
    1.5611    2.6184    0.0000 C   0  0  0  0  0  0  0  0  0  0  0  0
  1  2  1  0
  2  3  1  0
  3  4  2  0
  4  5  1  0
  5  6  2  0
  6  7  1  0
  7  8  1  0
  8  9  1  0
  7 10  2  0
 10 11  1  0
 11 12  1  0
  6 13  1  0
 13 14  2  0
 13 15  1  0
 15 16  2  0
 16 17  1  0
 17 18  2  0
 18 19  1  0
 19 20  1  0
 20 21  1  0
 19 22  2  0
 22 23  1  0
 23 24  1  0
 10  3  1  0
 22 15  1  0
 23  5  1  0
M  END
>  <identifier>  (1095) 
CNP0301489.0

>  <canonical_smiles>  (1095) 
COC1=CC2=C(C(OC)=C1OC)C(=O)C1=CC=CC(OC)=C1N2C

>  <standard_inchi>  (1095) 
InChI=1S/C18H19NO5/c1-19-11-9-13(22-3)17(23-4)18(24-5)14(11)16(20)10-7-6-8-12(21-2)15(10)19/h6-9H,1-5H3

>  <standard_inchi_key>  (1095) 
IXTCHBCVPPPCRE-UHFFFAOYSA-N

>  <name>  (1095) 
nan

>  <iupac_name>  (1095) 
1,2,3,5-tetramethoxy-10-methyl-acridin-9-one

>  <annotation_level>  (1095) 
4

>  <total_atom_count>  (1095) 
43

>  <heavy_atom_count>  (1095) 
24

>  <molecular_weight>  (1095) 
329.35

>  <exact_molecular_weight>  (1095) 
329.12632

>  <molecular_formula>  (1095) 
C18H19NO5

>  <alogp>  (1095) 
2.73

>  <topological_polar_surface_area>  (1095) 
58.92

>  <rotatable_bond_count>  (1095) 
4

>  <hydrogen_bond_acceptors>  (1095) 
6

>  <hydrogen_bond_donors>  (1095) 
0

>  <hydrogen_bond_acceptors_lipinski>  (1095) 
6

>  <hydrogen_bond_donors_lipinski>  (1095) 
0

>  <lipinski_rule_of_five_violations>  (1095) 
0

>  <aromatic_rings_count>  (1095) 
3

>  <qed_drug_likeliness>  (1095) 
0.69

>  <formal_charge>  (1095) 
0

>  <fractioncsp3>  (1095) 
0.28

>  <number_of_minimal_rings>  (1095) 
3

>  <van_der_walls_volume>  (1095) 
nan

>  <contains_sugar>  (1095) 
False

>  <contains_ring_sugars>  (1095) 
False

>  <contains_linear_sugars>  (1095) 
False

>  <murcko_framework>  (1095) 
c1ccc2c(c1)Nc3ccccc3C2

>  <np_likeness>  (1095) 
0.51

>  <chemical_class>  (1095) 
Quinolines and derivatives

>  <chemical_sub_class>  (1095) 
Benzoquinolines

>  <chemical_super_class>  (1095) 
Organoheterocyclic compounds

>  <direct_parent_classification>  (1095) 
Acridones

>  <np_classifier_pathway>  (1095) 
Alkaloids

>  <np_classifier_superclass>  (1095) 
Anthranilic acid alkaloids

>  <np_classifier_class>  (1095) 
Acridone alkaloids

>  <np_classifier_is_glycoside>  (1095) 
False

>  <organisms>  (1095) 
Conchocarpus inopinatus

>  <collections>  (1095) 
Latin America dataset|NuBBEDB|WikiData Natural Products

>  <dois>  (1095) 
10.1590/S0100-40422012001100006

>  <synonyms>  (1095) 
1235-tetramethoxy-N-methylacridone

>  <cas>  (1095) 
nan

$$$$

     RDKit          2D

 31 34  0  0  0  0  0  0  0  0999 V2000
   -8.5573    0.8147    0.0000 C   0  0  0  0  0  0  0  0  0  0  0  0
   -7.5705   -0.3149    0.0000 O   0  0  0  0  0  0  0  0  0  0  0  0
   -6.0987   -0.0251    0.0000 C   0  0  0  0  0  0  0  0  0  0  0  0
   -5.6139    1.3944    0.0000 C   0  0  0  0  0  0  0  0  0  0  0  0
   -4.1421    1.6842    0.0000 C   0  0  0  0  0  0  0  0  0  0  0  0
   -3.1553    0.5545    0.0000 C   0  0  0  0  0  0  0  0  0  0  0  0
   -1.6835    0.8443    0.0000 C   0  0  0  0  0  0  0  0  0  0  0  0
   -1.1987    2.2638    0.0000 C   0  0  0  0  0  0  0  0  0  0  0  0
    0.2731    2.5536    0.0000 C   0  0  0  0  0  0  0  0  0  0  0  0
    0.7580    3.9731    0.0000 O   0  0  0  0  0  0  0  0  0  0  0  0
    1.2599    1.4240    0.0000 C   0  0  0  0  0  0  0  0  0  0  0  0
    2.7317    1.7138    0.0000 C   0  0  0  0  0  0  0  0  0  0  0  0
    3.2165    3.1333    0.0000 O   0  0  0  0  0  0  0  0  0  0  0  0
    4.6883    3.4231    0.0000 C   0  0  0  0  0  0  0  0  0  0  0  0
    3.7185    0.5841    0.0000 C   0  0  0  0  0  0  0  0  0  0  0  0
    3.2336   -0.8353    0.0000 C   0  0  0  0  0  0  0  0  0  0  0  0
    4.2205   -1.9650    0.0000 O   0  0  0  0  0  0  0  0  0  0  0  0
    5.6922   -1.6752    0.0000 C   0  0  0  0  0  0  0  0  0  0  0  0
    7.1743   -1.9062    0.0000 C   0  0  0  0  0  0  0  0  0  0  0  0
    5.7221   -3.1749    0.0000 C   0  0  0  0  0  0  0  0  0  0  0  0
    6.1771   -0.2557    0.0000 C   0  0  0  0  0  0  0  0  0  0  0  0
    5.1903    0.8740    0.0000 C   0  0  0  0  0  0  0  0  0  0  0  0
    1.7619   -1.1251    0.0000 C   0  0  0  0  0  0  0  0  0  0  0  0
    1.2770   -2.5446    0.0000 O   0  0  0  0  0  0  0  0  0  0  0  0
   -0.1947   -2.8344    0.0000 C   0  0  0  0  0  0  0  0  0  0  0  0
    0.7751    0.0045    0.0000 C   0  0  0  0  0  0  0  0  0  0  0  0
   -0.6967   -0.2853    0.0000 O   0  0  0  0  0  0  0  0  0  0  0  0
   -3.6402   -0.8649    0.0000 C   0  0  0  0  0  0  0  0  0  0  0  0
   -5.1119   -1.1548    0.0000 C   0  0  0  0  0  0  0  0  0  0  0  0
   -5.5968   -2.5742    0.0000 O   0  0  0  0  0  0  0  0  0  0  0  0
   -4.6099   -3.7039    0.0000 C   0  0  0  0  0  0  0  0  0  0  0  0
  1  2  1  0
  2  3  1  0
  3  4  2  0
  4  5  1  0
  5  6  2  0
  6  7  1  0
  7  8  2  0
  8  9  1  0
  9 10  2  0
  9 11  1  0
 11 12  2  0
 12 13  1  0
 13 14  1  0
 12 15  1  0
 15 16  2  0
 16 17  1  0
 17 18  1  0
 18 19  1  0
 18 20  1  0
 18 21  1  0
 21 22  2  0
 16 23  1  0
 23 24  1  0
 24 25  1  0
 23 26  2  0
 26 27  1  0
  6 28  1  0
 28 29  2  0
 29 30  1  0
 30 31  1  0
 29  3  1  0
 27  7  1  0
 26 11  1  0
 22 15  1  0
M  END
>  <identifier>  (1096) 
CNP0322669.0

>  <canonical_smiles>  (1096) 
COC1=CC=C(C2=CC(=O)C3=C(OC)C4=C(OC(C)(C)C=C4)C(OC)=C3O2)C=C1OC

>  <standard_inchi>  (1096) 
InChI=1S/C24H24O7/c1-24(2)10-9-14-20(28-5)19-15(25)12-17(30-22(19)23(29-6)21(14)31-24)13-7-8-16(26-3)18(11-13)27-4/h7-12H,1-6H3

>  <standard_inchi_key>  (1096) 
HPVAIHLRTFXJMD-UHFFFAOYSA-N

>  <name>  (1096) 
nan

>  <iupac_name>  (1096) 
8-(3,4-dimethoxyphenyl)-5,10-dimethoxy-2,2-dimethyl-pyrano[3,2-g]chromen-6-one

>  <annotation_level>  (1096) 
3

>  <total_atom_count>  (1096) 
55

>  <heavy_atom_count>  (1096) 
31

>  <molecular_weight>  (1096) 
424.45

>  <exact_molecular_weight>  (1096) 
424.1522

>  <molecular_formula>  (1096) 
C24H24O7

>  <alogp>  (1096) 
4.68

>  <topological_polar_surface_area>  (1096) 
76.36

>  <rotatable_bond_count>  (1096) 
5

>  <hydrogen_bond_acceptors>  (1096) 
7

>  <hydrogen_bond_donors>  (1096) 
0

>  <hydrogen_bond_acceptors_lipinski>  (1096) 
7

>  <hydrogen_bond_donors_lipinski>  (1096) 
0

>  <lipinski_rule_of_five_violations>  (1096) 
0

>  <aromatic_rings_count>  (1096) 
3

>  <qed_drug_likeliness>  (1096) 
0.59

>  <formal_charge>  (1096) 
0

>  <fractioncsp3>  (1096) 
0.29

>  <number_of_minimal_rings>  (1096) 
4

>  <van_der_walls_volume>  (1096) 
nan

>  <contains_sugar>  (1096) 
False

>  <contains_ring_sugars>  (1096) 
False

>  <contains_linear_sugars>  (1096) 
False

>  <murcko_framework>  (1096) 
O1c2cc3OCC=Cc3cc2CC=C1c4ccccc4

>  <np_likeness>  (1096) 
1.70

>  <chemical_class>  (1096) 
Flavonoids

>  <chemical_sub_class>  (1096) 
Pyranoflavonoids

>  <chemical_super_class>  (1096) 
Phenylpropanoids and polyketides

>  <direct_parent_classification>  (1096) 
Pyranoflavonoids

>  <np_classifier_pathway>  (1096) 
Shikimates and Phenylpropanoids

>  <np_classifier_superclass>  (1096) 
Flavonoids

>  <np_classifier_class>  (1096) 
Flavones

>  <np_classifier_is_glycoside>  (1096) 
False

>  <organisms>  (1096) 
Neoraputia alba

>  <collections>  (1096) 
Latin America dataset|NuBBEDB|WikiData Natural Products|ZINC NP

>  <dois>  (1096) 
10.5935/0103-5053.19930018

>  <synonyms>  (1096) 
nan

>  <cas>  (1096) 
nan

$$$$

     RDKit          2D

 39 44  0  0  0  0  0  0  0  0999 V2000
   -3.8528    4.5741    0.0000 C   0  0  0  0  0  0  0  0  0  0  0  0
   -2.7693    3.5369    0.0000 O   0  0  0  0  0  0  0  0  0  0  0  0
   -3.1258    2.0799    0.0000 C   0  0  0  0  0  0  0  0  0  0  0  0
   -4.5659    1.6601    0.0000 O   0  0  0  0  0  0  0  0  0  0  0  0
   -2.0423    1.0426    0.0000 C   0  0  0  0  0  0  0  0  0  0  0  0
   -0.6022    1.4623    0.0000 O   0  0  0  0  0  0  0  0  0  0  0  0
   -2.3988   -0.4144    0.0000 C   0  0  0  0  0  0  0  0  0  0  0  0
   -3.8389   -0.8342    0.0000 C   0  0  0  0  0  0  0  0  0  0  0  0
   -4.0022    0.6569    0.0000 C   0  0  0  0  0  0  0  0  0  0  0  0
   -5.3357   -0.7360    0.0000 C   0  0  0  0  0  0  0  0  0  0  0  0
   -4.1955   -2.2912    0.0000 C   0  0  0  0  0  0  0  0  0  0  0  0
   -5.6356   -2.7109    0.0000 O   0  0  0  0  0  0  0  0  0  0  0  0
   -3.1119   -3.3285    0.0000 C   0  0  0  0  0  0  0  0  0  0  0  0
   -1.6719   -2.9087    0.0000 C   0  0  0  0  0  0  0  0  0  0  0  0
   -0.3963   -3.6981    0.0000 O   0  0  0  0  0  0  0  0  0  0  0  0
    0.7485   -2.7289    0.0000 C   0  0  0  0  0  0  0  0  0  0  0  0
    1.8320   -3.7662    0.0000 C   0  0  0  0  0  0  0  0  0  0  0  0
    1.6669   -1.5429    0.0000 C   0  0  0  0  0  0  0  0  0  0  0  0
    2.5110   -2.7828    0.0000 C   0  0  0  0  0  0  0  0  0  0  0  0
    4.0069   -2.6716    0.0000 C   0  0  0  0  0  0  0  0  0  0  0  0
    4.8511   -3.9115    0.0000 O   0  0  0  0  0  0  0  0  0  0  0  0
    4.6586   -1.3206    0.0000 O   0  0  0  0  0  0  0  0  0  0  0  0
    3.8144   -0.0807    0.0000 C   0  0  0  0  0  0  0  0  0  0  0  0
    4.4661    1.2703    0.0000 C   0  0  0  0  0  0  0  0  0  0  0  0
    3.7562    2.5917    0.0000 C   0  0  0  0  0  0  0  0  0  0  0  0
    4.7934    3.6752    0.0000 O   0  0  0  0  0  0  0  0  0  0  0  0
    6.1445    3.0235    0.0000 C   0  0  0  0  0  0  0  0  0  0  0  0
    5.9422    1.5372    0.0000 C   0  0  0  0  0  0  0  0  0  0  0  0
    2.3185   -0.1918    0.0000 C   0  0  0  0  0  0  0  0  0  0  0  0
    2.8254    1.2199    0.0000 C   0  0  0  0  0  0  0  0  0  0  0  0
    1.2350    0.8454    0.0000 C   0  0  0  0  0  0  0  0  0  0  0  0
   -0.0863    0.1355    0.0000 C   0  0  0  0  0  0  0  0  0  0  0  0
   -1.4374    0.7872    0.0000 O   0  0  0  0  0  0  0  0  0  0  0  0
   -1.5485    2.2830    0.0000 C   0  0  0  0  0  0  0  0  0  0  0  0
   -2.7017    3.2423    0.0000 C   0  0  0  0  0  0  0  0  0  0  0  0
   -0.3086    3.1272    0.0000 O   0  0  0  0  0  0  0  0  0  0  0  0
    0.1806   -1.3406    0.0000 C   0  0  0  0  0  0  0  0  0  0  0  0
   -1.3153   -1.4517    0.0000 C   0  0  0  0  0  0  0  0  0  0  0  0
   -0.8084   -0.0400    0.0000 C   0  0  0  0  0  0  0  0  0  0  0  0
  1  2  1  0
  2  3  1  0
  3  4  2  0
  3  5  1  0
  5  6  1  6
  5  7  1  0
  7  8  1  6
  8  9  1  0
  8 10  1  0
  8 11  1  0
 11 12  2  0
 11 13  1  0
 13 14  2  0
 14 15  1  0
 15 16  1  0
 16 17  1  6
 16 18  1  0
 18 19  1  1
 19 20  1  0
 20 21  2  0
 20 22  1  0
 22 23  1  0
 23 24  1  6
 24 25  2  0
 25 26  1  0
 26 27  1  0
 27 28  2  0
 23 29  1  0
 29 30  1  6
 29 31  1  0
 31 32  1  0
 32 33  1  6
 33 34  1  0
 34 35  1  0
 34 36  2  0
 37 32  1  6
 37 38  1  0
 38 39  1  6
 38  7  1  0
 38 14  1  0
 37 16  1  0
 29 18  1  0
 37 18  1  0
 28 24  1  0
M  END
>  <identifier>  (1097) 
CNP0143442.1

>  <canonical_smiles>  (1097) 
COC(=O)[C@H](O)[C@H]1C(C)(C)C(=O)C=C2O[C@]3(C)[C@@]45CC(=O)O[C@@H](C6=COC=C6)[C@]4(C)C[C@@H](OC(C)=O)[C@@]35[C@@]21C

>  <standard_inchi>  (1097) 
InChI=1S/C29H34O10/c1-14(30)37-18-11-25(4)22(15-8-9-36-13-15)38-19(32)12-28(25)27(6)29(18,28)26(5)17(39-27)10-16(31)24(2,3)21(26)20(33)23(34)35-7/h8-10,13,18,20-22,33H,11-12H2,1-7H3/t18-,20-,21+,22+,25+,26+,27-,28-,29-/m1/s1

>  <standard_inchi_key>  (1097) 
QSOWHBLLXFEPLD-FIEZJLHRSA-N

>  <name>  (1097) 
nan

>  <iupac_name>  (1097) 
methyl (2~{R})-2-[(1~{S},2~{R},8~{R},9~{S},10~{S},11~{R},13~{R},14~{R})-11-acetoxy-14-(3-furyl)-2,7,7,9,13-pentamethyl-6,16-dioxo-3,15-dioxapentacyclo[8.7.0.0^{1,13}.0^{2,10}.0^{4,9}]heptadec-4-en-8-yl]-2-hydroxy-acetate

>  <annotation_level>  (1097) 
4

>  <total_atom_count>  (1097) 
73

>  <heavy_atom_count>  (1097) 
39

>  <molecular_weight>  (1097) 
542.58

>  <exact_molecular_weight>  (1097) 
542.2152

>  <molecular_formula>  (1097) 
C29H34O10

>  <alogp>  (1097) 
3.03

>  <topological_polar_surface_area>  (1097) 
138.57

>  <rotatable_bond_count>  (1097) 
4

>  <hydrogen_bond_acceptors>  (1097) 
10

>  <hydrogen_bond_donors>  (1097) 
1

>  <hydrogen_bond_acceptors_lipinski>  (1097) 
10

>  <hydrogen_bond_donors_lipinski>  (1097) 
1

>  <lipinski_rule_of_five_violations>  (1097) 
1

>  <aromatic_rings_count>  (1097) 
1

>  <qed_drug_likeliness>  (1097) 
0.45

>  <formal_charge>  (1097) 
0

>  <fractioncsp3>  (1097) 
0.66

>  <number_of_minimal_rings>  (1097) 
6

>  <van_der_walls_volume>  (1097) 
nan

>  <contains_sugar>  (1097) 
False

>  <contains_ring_sugars>  (1097) 
False

>  <contains_linear_sugars>  (1097) 
False

>  <murcko_framework>  (1097) 
o1ccc(c1)C2OCCC34C5OC6=CCCCC6C54CCC23

>  <np_likeness>  (1097) 
2.24

>  <chemical_class>  (1097) 
Carboxylic acids and derivatives

>  <chemical_sub_class>  (1097) 
Tricarboxylic acids and derivatives

>  <chemical_super_class>  (1097) 
Organic acids and derivatives

>  <direct_parent_classification>  (1097) 
Tricarboxylic acids and derivatives

>  <np_classifier_pathway>  (1097) 
Terpenoids

>  <np_classifier_superclass>  (1097) 
Triterpenoids

>  <np_classifier_class>  (1097) 
Limonoids

>  <np_classifier_is_glycoside>  (1097) 
False

>  <organisms>  (1097) 
Hortia oreadica

>  <collections>  (1097) 
Latin America dataset|NuBBEDB|WikiData Natural Products|ZINC NP

>  <dois>  (1097) 
10.1016/J.PHYTOCHEM.2011.12.016|10.1016/j.phytochem.2011.12.016

>  <synonyms>  (1097) 
11\u221a\u00e9\u00ac\u00b1-acetoxy-15-deoxy-6-hydroxyhortiolide C

>  <cas>  (1097) 
nan

$$$$

     RDKit          2D

 23 25  0  0  0  0  0  0  0  0999 V2000
   -7.3244    1.8653    0.0000 C   0  0  0  0  0  0  0  0  0  0  0  0
   -6.8009    0.4596    0.0000 O   0  0  0  0  0  0  0  0  0  0  0  0
   -5.3218    0.2102    0.0000 C   0  0  0  0  0  0  0  0  0  0  0  0
   -4.3662    1.3664    0.0000 C   0  0  0  0  0  0  0  0  0  0  0  0
   -2.8871    1.1170    0.0000 C   0  0  0  0  0  0  0  0  0  0  0  0
   -2.3635   -0.2887    0.0000 C   0  0  0  0  0  0  0  0  0  0  0  0
   -0.8844   -0.5382    0.0000 C   0  0  0  0  0  0  0  0  0  0  0  0
   -0.3609   -1.9438    0.0000 C   0  0  0  0  0  0  0  0  0  0  0  0
    1.1182   -2.1933    0.0000 C   0  0  0  0  0  0  0  0  0  0  0  0
    1.6417   -3.5990    0.0000 O   0  0  0  0  0  0  0  0  0  0  0  0
    2.0738   -1.0371    0.0000 C   0  0  0  0  0  0  0  0  0  0  0  0
    3.5529   -1.2865    0.0000 C   0  0  0  0  0  0  0  0  0  0  0  0
    4.0764   -2.6922    0.0000 O   0  0  0  0  0  0  0  0  0  0  0  0
    4.5085   -0.1303    0.0000 C   0  0  0  0  0  0  0  0  0  0  0  0
    3.9850    1.2754    0.0000 C   0  0  0  0  0  0  0  0  0  0  0  0
    4.9406    2.4316    0.0000 O   0  0  0  0  0  0  0  0  0  0  0  0
    6.4197    2.1821    0.0000 C   0  0  0  0  0  0  0  0  0  0  0  0
    2.5059    1.5248    0.0000 C   0  0  0  0  0  0  0  0  0  0  0  0
    1.9823    2.9305    0.0000 C   0  0  0  0  0  0  0  0  0  0  0  0
    1.5503    0.3686    0.0000 C   0  0  0  0  0  0  0  0  0  0  0  0
    0.0712    0.6181    0.0000 O   0  0  0  0  0  0  0  0  0  0  0  0
   -3.3191   -1.4449    0.0000 C   0  0  0  0  0  0  0  0  0  0  0  0
   -4.7982   -1.1955    0.0000 C   0  0  0  0  0  0  0  0  0  0  0  0
  1  2  1  0
  2  3  1  0
  3  4  2  0
  4  5  1  0
  5  6  2  0
  7  6  1  6
  7  8  1  0
  8  9  1  0
  9 10  2  0
  9 11  1  0
 11 12  2  0
 12 13  1  0
 12 14  1  0
 14 15  2  0
 15 16  1  0
 16 17  1  0
 15 18  1  0
 18 19  1  0
 18 20  2  0
 20 21  1  0
  6 22  1  0
 22 23  2  0
 23  3  1  0
 21  7  1  0
 20 11  1  0
M  END
>  <identifier>  (1098) 
CNP0096051.1

>  <canonical_smiles>  (1098) 
COC1=CC=C([C@H]2CC(=O)C3=C(O)C=C(OC)C(C)=C3O2)C=C1

>  <standard_inchi>  (1098) 
InChI=1S/C18H18O5/c1-10-15(22-3)8-13(19)17-14(20)9-16(23-18(10)17)11-4-6-12(21-2)7-5-11/h4-8,16,19H,9H2,1-3H3/t16-/m1/s1

>  <standard_inchi_key>  (1098) 
RCZWQZKJIGXABV-MRXNPFEDSA-N

>  <name>  (1098) 
nan

>  <iupac_name>  (1098) 
(2~{R})-5-hydroxy-7-methoxy-2-(4-methoxyphenyl)-8-methyl-chroman-4-one

>  <annotation_level>  (1098) 
4

>  <total_atom_count>  (1098) 
41

>  <heavy_atom_count>  (1098) 
23

>  <molecular_weight>  (1098) 
314.34

>  <exact_molecular_weight>  (1098) 
314.11542

>  <molecular_formula>  (1098) 
C18H18O5

>  <alogp>  (1098) 
3.42

>  <topological_polar_surface_area>  (1098) 
64.99

>  <rotatable_bond_count>  (1098) 
3

>  <hydrogen_bond_acceptors>  (1098) 
5

>  <hydrogen_bond_donors>  (1098) 
1

>  <hydrogen_bond_acceptors_lipinski>  (1098) 
5

>  <hydrogen_bond_donors_lipinski>  (1098) 
1

>  <lipinski_rule_of_five_violations>  (1098) 
0

>  <aromatic_rings_count>  (1098) 
2

>  <qed_drug_likeliness>  (1098) 
0.94

>  <formal_charge>  (1098) 
0

>  <fractioncsp3>  (1098) 
0.28

>  <number_of_minimal_rings>  (1098) 
3

>  <van_der_walls_volume>  (1098) 
nan

>  <contains_sugar>  (1098) 
False

>  <contains_ring_sugars>  (1098) 
False

>  <contains_linear_sugars>  (1098) 
False

>  <murcko_framework>  (1098) 
O1c2ccccc2CCC1c3ccccc3

>  <np_likeness>  (1098) 
1.32

>  <chemical_class>  (1098) 
Flavonoids

>  <chemical_sub_class>  (1098) 
O-methylated flavonoids

>  <chemical_super_class>  (1098) 
Phenylpropanoids and polyketides

>  <direct_parent_classification>  (1098) 
4'-O-methylated flavonoids

>  <np_classifier_pathway>  (1098) 
Shikimates and Phenylpropanoids

>  <np_classifier_superclass>  (1098) 
Flavonoids

>  <np_classifier_class>  (1098) 
Flavanones

>  <np_classifier_is_glycoside>  (1098) 
False

>  <organisms>  (1098) 
Qualea labouriauana

>  <collections>  (1098) 
Latin America dataset|NuBBEDB|WikiData Natural Products|ZINC NP

>  <dois>  (1098) 
10.1016/0031-9422(81)85112-6

>  <synonyms>  (1098) 
(2R)-5-Hydroxy-74'-dimethoxy-8-methylflavanone

>  <cas>  (1098) 
nan

$$$$

     RDKit          2D

 27 30  0  0  0  0  0  0  0  0999 V2000
    3.3236    5.0400    0.0000 C   0  0  0  0  0  0  0  0  0  0  0  0
    3.4045    3.5422    0.0000 C   0  0  0  0  0  0  0  0  0  0  0  0
    2.1478    2.7232    0.0000 C   0  0  0  0  0  0  0  0  0  0  0  0
    2.2287    1.2254    0.0000 C   0  0  0  0  0  0  0  0  0  0  0  0
    3.5662    0.5466    0.0000 C   0  0  0  0  0  0  0  0  0  0  0  0
    3.6471   -0.9513    0.0000 C   0  0  0  0  0  0  0  0  0  0  0  0
    4.9847   -1.6301    0.0000 O   0  0  0  0  0  0  0  0  0  0  0  0
    5.0656   -3.1279    0.0000 C   0  0  0  0  0  0  0  0  0  0  0  0
    2.3904   -1.7702    0.0000 C   0  0  0  0  0  0  0  0  0  0  0  0
    2.4713   -3.2680    0.0000 O   0  0  0  0  0  0  0  0  0  0  0  0
    1.0528   -1.0914    0.0000 C   0  0  0  0  0  0  0  0  0  0  0  0
   -0.2039   -1.9103    0.0000 O   0  0  0  0  0  0  0  0  0  0  0  0
   -0.1230   -3.4082    0.0000 C   0  0  0  0  0  0  0  0  0  0  0  0
   -0.0095   -0.0324    0.0000 C   0  0  0  0  0  0  0  0  0  0  0  0
   -1.4907   -0.2694    0.0000 C   0  0  0  0  0  0  0  0  0  0  0  0
   -2.0260   -1.6706    0.0000 C   0  0  0  0  0  0  0  0  0  0  0  0
   -3.5071   -1.9077    0.0000 C   0  0  0  0  0  0  0  0  0  0  0  0
   -4.4530   -0.7434    0.0000 C   0  0  0  0  0  0  0  0  0  0  0  0
   -5.9510   -0.6673    0.0000 O   0  0  0  0  0  0  0  0  0  0  0  0
   -6.3416    0.7809    0.0000 C   0  0  0  0  0  0  0  0  0  0  0  0
   -5.0849    1.5999    0.0000 O   0  0  0  0  0  0  0  0  0  0  0  0
   -3.9177    0.6578    0.0000 C   0  0  0  0  0  0  0  0  0  0  0  0
   -2.4365    0.8948    0.0000 C   0  0  0  0  0  0  0  0  0  0  0  0
    0.6694    1.3052    0.0000 C   0  0  0  0  0  0  0  0  0  0  0  0
   -0.0138    2.6406    0.0000 C   0  0  0  0  0  0  0  0  0  0  0  0
    0.9720    0.4064    0.0000 C   0  0  0  0  0  0  0  0  0  0  0  0
   -0.3656    1.0853    0.0000 O   0  0  0  0  0  0  0  0  0  0  0  0
  1  2  2  0
  2  3  1  0
  4  3  1  1
  4  5  1  0
  5  6  2  0
  6  7  1  0
  7  8  1  0
  6  9  1  0
  9 10  1  6
  9 11  1  0
 11 12  1  1
 12 13  1  0
 11 14  1  0
 14 15  1  1
 15 16  2  0
 16 17  1  0
 17 18  2  0
 18 19  1  0
 19 20  1  0
 20 21  1  0
 21 22  1  0
 22 23  2  0
 14 24  1  0
 24 25  1  6
 11 26  1  0
 26 27  1  1
 24  4  1  0
 26  4  1  0
 23 15  1  0
 22 18  1  0
M  END
>  <identifier>  (1099) 
CNP0189154.4

>  <canonical_smiles>  (1099) 
C=CC[C@]12C=C(OC)[C@H](O)[C@](OC)([C@@H](C3=CC=C4OCOC4=C3)[C@@H]1C)[C@H]2O

>  <standard_inchi>  (1099) 
InChI=1S/C21H26O6/c1-5-8-20-10-16(24-3)18(22)21(25-4,19(20)23)17(12(20)2)13-6-7-14-15(9-13)27-11-26-14/h5-7,9-10,12,17-19,22-23H,1,8,11H2,2-4H3/t12-,17+,18-,19-,20-,21+/m0/s1

>  <standard_inchi_key>  (1099) 
UIDBVRIGTICCQN-JZJTYXTBSA-N

>  <name>  (1099) 
nan

>  <iupac_name>  (1099) 
(1~{S},2~{S},5~{R},6~{S},7~{R},8~{S})-5-allyl-7-(1,3-benzodioxol-5-yl)-1,3-dimethoxy-6-methyl-bicyclo[3.2.1]oct-3-ene-2,8-diol

>  <annotation_level>  (1099) 
3

>  <total_atom_count>  (1099) 
53

>  <heavy_atom_count>  (1099) 
27

>  <molecular_weight>  (1099) 
374.43

>  <exact_molecular_weight>  (1099) 
374.17294

>  <molecular_formula>  (1099) 
C21H26O6

>  <alogp>  (1099) 
2.36

>  <topological_polar_surface_area>  (1099) 
77.38

>  <rotatable_bond_count>  (1099) 
5

>  <hydrogen_bond_acceptors>  (1099) 
6

>  <hydrogen_bond_donors>  (1099) 
2

>  <hydrogen_bond_acceptors_lipinski>  (1099) 
6

>  <hydrogen_bond_donors_lipinski>  (1099) 
2

>  <lipinski_rule_of_five_violations>  (1099) 
0

>  <aromatic_rings_count>  (1099) 
1

>  <qed_drug_likeliness>  (1099) 
0.77

>  <formal_charge>  (1099) 
0

>  <fractioncsp3>  (1099) 
0.52

>  <number_of_minimal_rings>  (1099) 
4

>  <van_der_walls_volume>  (1099) 
nan

>  <contains_sugar>  (1099) 
False

>  <contains_ring_sugars>  (1099) 
False

>  <contains_linear_sugars>  (1099) 
False

>  <murcko_framework>  (1099) 
O1c2ccc(cc2OC1)C3CC4C=CCC3C4

>  <np_likeness>  (1099) 
1.99

>  <chemical_class>  (1099) 
Benzodioxoles

>  <chemical_sub_class>  (1099) 
Benzodioxoles

>  <chemical_super_class>  (1099) 
Organoheterocyclic compounds

>  <direct_parent_classification>  (1099) 
Benzodioxoles

>  <np_classifier_pathway>  (1099) 
Shikimates and Phenylpropanoids

>  <np_classifier_superclass>  (1099) 
Lignans

>  <np_classifier_class>  (1099) 
Neolignans

>  <np_classifier_is_glycoside>  (1099) 
False

>  <organisms>  (1099) 
Ocotea aciphylla

>  <collections>  (1099) 
Latin America dataset|NuBBEDB|WikiData Natural Products|ZINC NP

>  <dois>  (1099) 
10.1016/S0031-9422(00)84995-X

>  <synonyms>  (1099) 
nan

>  <cas>  (1099) 
nan

$$$$

     RDKit          2D

 32 34  0  0  0  0  0  0  0  0999 V2000
   -6.5465   -3.2725    0.0000 C   0  0  0  0  0  0  0  0  0  0  0  0
   -5.1617   -3.8489    0.0000 C   0  0  0  0  0  0  0  0  0  0  0  0
   -3.9700   -2.9379    0.0000 C   0  0  0  0  0  0  0  0  0  0  0  0
   -3.2797   -4.2696    0.0000 C   0  0  0  0  0  0  0  0  0  0  0  0
   -5.0742   -1.9226    0.0000 C   0  0  0  0  0  0  0  0  0  0  0  0
   -4.7469   -0.4587    0.0000 C   0  0  0  0  0  0  0  0  0  0  0  0
   -3.3156   -0.0101    0.0000 C   0  0  0  0  0  0  0  0  0  0  0  0
   -2.2114   -1.0255    0.0000 C   0  0  0  0  0  0  0  0  0  0  0  0
   -1.1073   -2.0408    0.0000 C   0  0  0  0  0  0  0  0  0  0  0  0
   -0.7801   -0.5769    0.0000 C   0  0  0  0  0  0  0  0  0  0  0  0
   -0.4528    0.8870    0.0000 C   0  0  0  0  0  0  0  0  0  0  0  0
    0.9785    1.3355    0.0000 O   0  0  0  0  0  0  0  0  0  0  0  0
    2.0827    0.3202    0.0000 C   0  0  0  0  0  0  0  0  0  0  0  0
    1.7554   -1.1437    0.0000 O   0  0  0  0  0  0  0  0  0  0  0  0
    3.5140    0.7687    0.0000 C   0  0  0  0  0  0  0  0  0  0  0  0
    4.6182   -0.2466    0.0000 C   0  0  0  0  0  0  0  0  0  0  0  0
    4.2909   -1.7105    0.0000 O   0  0  0  0  0  0  0  0  0  0  0  0
    6.0495    0.2019    0.0000 O   0  0  0  0  0  0  0  0  0  0  0  0
    7.1537   -0.8134    0.0000 C   0  0  0  0  0  0  0  0  0  0  0  0
    8.5850   -0.3648    0.0000 C   0  0  0  0  0  0  0  0  0  0  0  0
    9.6892   -1.3802    0.0000 C   0  0  0  0  0  0  0  0  0  0  0  0
   11.1205   -0.9316    0.0000 C   0  0  0  0  0  0  0  0  0  0  0  0
   -1.5570    1.9023    0.0000 C   0  0  0  0  0  0  0  0  0  0  0  0
   -1.2297    3.3661    0.0000 C   0  0  0  0  0  0  0  0  0  0  0  0
   -0.4216    4.6298    0.0000 C   0  0  0  0  0  0  0  0  0  0  0  0
    0.1551    2.7897    0.0000 C   0  0  0  0  0  0  0  0  0  0  0  0
   -2.3339    4.3815    0.0000 C   0  0  0  0  0  0  0  0  0  0  0  0
   -3.7652    3.9329    0.0000 C   0  0  0  0  0  0  0  0  0  0  0  0
   -4.0925    2.4691    0.0000 C   0  0  0  0  0  0  0  0  0  0  0  0
   -2.9883    1.4537    0.0000 C   0  0  0  0  0  0  0  0  0  0  0  0
   -4.4197    1.0052    0.0000 C   0  0  0  0  0  0  0  0  0  0  0  0
   -2.5387   -2.4893    0.0000 O   0  0  0  0  0  0  0  0  0  0  0  0
  1  2  2  0
  2  3  1  0
  3  4  1  6
  3  5  1  0
  5  6  1  0
  6  7  1  0
  7  8  1  0
  8  9  1  6
  8 10  1  0
 10 11  1  0
 11 12  1  1
 12 13  1  0
 13 14  2  0
 13 15  1  0
 15 16  1  0
 16 17  2  0
 16 18  1  0
 18 19  1  0
 19 20  1  0
 20 21  1  0
 21 22  1  0
 11 23  1  0
 23 24  1  6
 24 25  1  0
 24 26  1  0
 24 27  1  0
 27 28  1  0
 28 29  1  0
 29 30  1  0
 30 31  1  6
  8 32  1  0
 32  3  1  0
 30  7  1  0
 30 23  1  0
M  END
>  <identifier>  (1100) 
CNP0295541.1

>  <canonical_smiles>  (1100) 
C=C[C@@]1(C)CCC2[C@@](C)(C[C@H](OC(=O)CC(=O)OCCCC)[C@H]3C(C)(C)CCC[C@]23C)O1

>  <standard_inchi>  (1100) 
InChI=1S/C27H44O5/c1-8-10-16-30-21(28)17-22(29)31-19-18-27(7)20(12-15-25(5,9-2)32-27)26(6)14-11-13-24(3,4)23(19)26/h9,19-20,23H,2,8,10-18H2,1,3-7H3/t19-,20?,23-,25-,26+,27+/m0/s1

>  <standard_inchi_key>  (1100) 
FLQJTWRILTVLCE-XRYUCQDSSA-N

>  <name>  (1100) 
nan

>  <iupac_name>  (1100) 
~{O}3-[(3~{R},4~{a}~{R},6~{S},6~{a}~{S},10~{a}~{S})-3,4~{a},7,7,10~{a}-pentamethyl-3-vinyl-2,5,6,6~{a},8,9,10,10~{b}-octahydro-1~{H}-benzo[f]chromen-6-yl] ~{O}1-butyl propanedioate

>  <annotation_level>  (1100) 
4

>  <total_atom_count>  (1100) 
76

>  <heavy_atom_count>  (1100) 
32

>  <molecular_weight>  (1100) 
448.64

>  <exact_molecular_weight>  (1100) 
448.31887

>  <molecular_formula>  (1100) 
C27H44O5

>  <alogp>  (1100) 
6.00

>  <topological_polar_surface_area>  (1100) 
61.83

>  <rotatable_bond_count>  (1100) 
7

>  <hydrogen_bond_acceptors>  (1100) 
5

>  <hydrogen_bond_donors>  (1100) 
0

>  <hydrogen_bond_acceptors_lipinski>  (1100) 
5

>  <hydrogen_bond_donors_lipinski>  (1100) 
0

>  <lipinski_rule_of_five_violations>  (1100) 
1

>  <aromatic_rings_count>  (1100) 
0

>  <qed_drug_likeliness>  (1100) 
0.21

>  <formal_charge>  (1100) 
0

>  <fractioncsp3>  (1100) 
0.85

>  <number_of_minimal_rings>  (1100) 
3

>  <van_der_walls_volume>  (1100) 
nan

>  <contains_sugar>  (1100) 
False

>  <contains_ring_sugars>  (1100) 
False

>  <contains_linear_sugars>  (1100) 
False

>  <murcko_framework>  (1100) 
O1CCCC2C1CCC3CCCCC32

>  <np_likeness>  (1100) 
2.62

>  <chemical_class>  (1100) 
Prenol lipids

>  <chemical_sub_class>  (1100) 
Triterpenoids

>  <chemical_super_class>  (1100) 
Lipids and lipid-like molecules

>  <direct_parent_classification>  (1100) 
Triterpenoids

>  <np_classifier_pathway>  (1100) 
Terpenoids

>  <np_classifier_superclass>  (1100) 
Diterpenoids

>  <np_classifier_class>  (1100) 
Labdane diterpenoids

>  <np_classifier_is_glycoside>  (1100) 
False

>  <organisms>  (1100) 
Stemodia foliosa

>  <collections>  (1100) 
Latin America dataset|NuBBEDB

>  <dois>  (1100) 
10.1021/np800106x

>  <synonyms>  (1100) 
6\u221a\u00e9\u00ac\u00b1-malonyloxy-n-butyl ester manoyl oxide

>  <cas>  (1100) 
nan

$$$$

     RDKit          2D

 26 30  0  0  0  0  0  0  0  0999 V2000
   -4.0250   -4.7659    0.0000 C   0  0  0  0  0  0  0  0  0  0  0  0
   -4.2959   -3.2906    0.0000 O   0  0  0  0  0  0  0  0  0  0  0  0
   -3.1536   -2.3183    0.0000 C   0  0  0  0  0  0  0  0  0  0  0  0
   -1.7405   -2.8214    0.0000 O   0  0  0  0  0  0  0  0  0  0  0  0
   -3.4245   -0.8430    0.0000 C   0  0  0  0  0  0  0  0  0  0  0  0
   -4.8376   -0.3399    0.0000 C   0  0  0  0  0  0  0  0  0  0  0  0
   -5.1085    1.1354    0.0000 O   0  0  0  0  0  0  0  0  0  0  0  0
   -3.9662    2.1077    0.0000 C   0  0  0  0  0  0  0  0  0  0  0  0
   -4.2371    3.5830    0.0000 C   0  0  0  0  0  0  0  0  0  0  0  0
   -2.5531    1.6046    0.0000 C   0  0  0  0  0  0  0  0  0  0  0  0
   -1.4109    2.5768    0.0000 C   0  0  0  0  0  0  0  0  0  0  0  0
    0.0022    2.0737    0.0000 N   0  0  0  0  0  0  0  0  0  0  0  0
    1.1445    3.0460    0.0000 C   0  0  0  0  0  0  0  0  0  0  0  0
    2.5576    2.5429    0.0000 C   0  0  0  0  0  0  0  0  0  0  0  0
    2.8285    1.0676    0.0000 C   0  0  0  0  0  0  0  0  0  0  0  0
    1.6862    0.0953    0.0000 C   0  0  0  0  0  0  0  0  0  0  0  0
    2.2579   -1.2915    0.0000 N   0  0  0  0  0  0  0  0  0  0  0  0
    3.7535   -1.1763    0.0000 C   0  0  0  0  0  0  0  0  0  0  0  0
    4.8398   -2.2107    0.0000 C   0  0  0  0  0  0  0  0  0  0  0  0
    6.2787   -1.7871    0.0000 C   0  0  0  0  0  0  0  0  0  0  0  0
    6.6314   -0.3291    0.0000 C   0  0  0  0  0  0  0  0  0  0  0  0
    5.5450    0.7053    0.0000 C   0  0  0  0  0  0  0  0  0  0  0  0
    4.1061    0.2817    0.0000 C   0  0  0  0  0  0  0  0  0  0  0  0
    0.2731    0.5984    0.0000 C   0  0  0  0  0  0  0  0  0  0  0  0
   -0.8691   -0.3738    0.0000 C   0  0  0  0  0  0  0  0  0  0  0  0
   -2.2823    0.1293    0.0000 C   0  0  0  0  0  0  0  0  0  0  0  0
  1  2  1  0
  2  3  1  0
  3  4  2  0
  3  5  1  0
  5  6  2  0
  6  7  1  0
  7  8  1  0
  8  9  1  1
  8 10  1  0
 10 11  1  1
 11 12  1  0
 12 13  1  0
 13 14  1  0
 14 15  1  0
 15 16  2  0
 16 17  1  0
 17 18  1  0
 18 19  2  0
 19 20  1  0
 20 21  2  0
 21 22  1  0
 22 23  2  0
 16 24  1  0
 24 25  1  1
 26 25  1  6
 26  5  1  0
 26 10  1  0
 24 12  1  0
 23 15  1  0
 23 18  1  0
M  END
>  <identifier>  (1101) 
CNP0266139.2

>  <canonical_smiles>  (1101) 
COC(=O)C1=CO[C@@H](C)[C@H]2CN3CCC4=C(NC5=CC=CC=C45)[C@H]3C[C@H]12

>  <standard_inchi>  (1101) 
InChI=1S/C21H24N2O3/c1-12-16-10-23-8-7-14-13-5-3-4-6-18(13)22-20(14)19(23)9-15(16)17(11-26-12)21(24)25-2/h3-6,11-12,15-16,19,22H,7-10H2,1-2H3/t12-,15-,16+,19+/m0/s1

>  <standard_inchi_key>  (1101) 
GRTOGORTSDXSFK-NALNUFGESA-N

>  <name>  (1101) 
3-Isoajmalicine

>  <iupac_name>  (1101) 
methyl (1~{R},15~{R},16~{S},20~{S})-16-methyl-17-oxa-3,13-diazapentacyclo[11.8.0.0^{2,10}.0^{4,9}.0^{15,20}]henicosa-2(10),4,6,8,18-pentaene-19-carboxylate

>  <annotation_level>  (1101) 
5

>  <total_atom_count>  (1101) 
50

>  <heavy_atom_count>  (1101) 
26

>  <molecular_weight>  (1101) 
352.43

>  <exact_molecular_weight>  (1101) 
352.17869

>  <molecular_formula>  (1101) 
C21H24N2O3

>  <alogp>  (1101) 
3.18

>  <topological_polar_surface_area>  (1101) 
54.56

>  <rotatable_bond_count>  (1101) 
1

>  <hydrogen_bond_acceptors>  (1101) 
4

>  <hydrogen_bond_donors>  (1101) 
1

>  <hydrogen_bond_acceptors_lipinski>  (1101) 
4

>  <hydrogen_bond_donors_lipinski>  (1101) 
1

>  <lipinski_rule_of_five_violations>  (1101) 
0

>  <aromatic_rings_count>  (1101) 
2

>  <qed_drug_likeliness>  (1101) 
0.80

>  <formal_charge>  (1101) 
0

>  <fractioncsp3>  (1101) 
0.48

>  <number_of_minimal_rings>  (1101) 
5

>  <van_der_walls_volume>  (1101) 
319.83

>  <contains_sugar>  (1101) 
False

>  <contains_ring_sugars>  (1101) 
False

>  <contains_linear_sugars>  (1101) 
False

>  <murcko_framework>  (1101) 
O1C=CC2CC3c4[nH]c5ccccc5c4CCN3CC2C1

>  <np_likeness>  (1101) 
1.41

>  <chemical_class>  (1101) 
Yohimbine alkaloids

>  <chemical_sub_class>  (1101) 
Yohimbine alkaloids

>  <chemical_super_class>  (1101) 
Alkaloids and derivatives

>  <direct_parent_classification>  (1101) 
Yohimbine alkaloids

>  <np_classifier_pathway>  (1101) 
Alkaloids

>  <np_classifier_superclass>  (1101) 
Tryptophan alkaloids

>  <np_classifier_class>  (1101) 
Corynanthe type

>  <np_classifier_is_glycoside>  (1101) 
False

>  <organisms>  (1101) 
Catharanthus roseus|Mitragyna Speciosa|Mitragyna parvifolia|Mitragyna rotundifolia|Mitragyna speciosa|Mitragyna speciosa Korth.|Rauvolfia serpentina|Uncaria attenuata|Uncaria attenuata Korth.|Uncaria elliptica|Uncaria elliptica R.Br.ex G.Don.|Uncaria guianensis

>  <collections>  (1101) 
ChemSpider NPs|KNApSaCK|Latin America dataset|NuBBEDB|VietHerb|WikiData Natural Products

>  <dois>  (1101) 
10.1007/BF00267656|10.1016/S0031-9422(00)80276-9|10.1055/S-0028-1097410|10.1055/S-0028-1097976|10.1055/S-0028-1099932|10.1055/S-2008-1074973|10.1515/ZNB-1981-0919|10.1590/S0100-40422004000600007

>  <synonyms>  (1101) 
3-Isoajmalicine|483-03-4|DTXSID10197475|Oxayohimban-16-carboxylic acid, 16,17-didehydro-19-methyl-, methyl ester, (3beta,19alpha)-|SCHEMBL17088327

>  <cas>  (1101) 
483-03-4

$$$$

     RDKit          2D

 23 25  0  0  0  0  0  0  0  0999 V2000
   -7.8180    0.9861    0.0000 C   0  0  0  0  0  0  0  0  0  0  0  0
   -6.8906   -0.1929    0.0000 O   0  0  0  0  0  0  0  0  0  0  0  0
   -5.4059    0.0208    0.0000 C   0  0  0  0  0  0  0  0  0  0  0  0
   -4.8486    1.4135    0.0000 C   0  0  0  0  0  0  0  0  0  0  0  0
   -3.3639    1.6271    0.0000 C   0  0  0  0  0  0  0  0  0  0  0  0
   -2.4365    0.4482    0.0000 C   0  0  0  0  0  0  0  0  0  0  0  0
   -0.9518    0.6619    0.0000 C   0  0  0  0  0  0  0  0  0  0  0  0
   -0.0244   -0.5171    0.0000 C   0  0  0  0  0  0  0  0  0  0  0  0
   -0.5817   -1.9097    0.0000 N   0  0  0  0  0  0  0  0  0  0  0  0
    0.3457   -3.0887    0.0000 C   0  0  0  0  0  0  0  0  0  0  0  0
    1.8304   -2.8750    0.0000 C   0  0  0  0  0  0  0  0  0  0  0  0
    2.3877   -1.4823    0.0000 C   0  0  0  0  0  0  0  0  0  0  0  0
    3.8724   -1.2687    0.0000 C   0  0  0  0  0  0  0  0  0  0  0  0
    4.4297    0.1240    0.0000 C   0  0  0  0  0  0  0  0  0  0  0  0
    5.9144    0.3377    0.0000 O   0  0  0  0  0  0  0  0  0  0  0  0
    6.8418   -0.8413    0.0000 C   0  0  0  0  0  0  0  0  0  0  0  0
    3.5023    1.3029    0.0000 C   0  0  0  0  0  0  0  0  0  0  0  0
    4.0596    2.6956    0.0000 O   0  0  0  0  0  0  0  0  0  0  0  0
    3.1322    3.8745    0.0000 C   0  0  0  0  0  0  0  0  0  0  0  0
    2.0176    1.0892    0.0000 C   0  0  0  0  0  0  0  0  0  0  0  0
    1.4603   -0.3034    0.0000 C   0  0  0  0  0  0  0  0  0  0  0  0
   -2.9938   -0.9444    0.0000 C   0  0  0  0  0  0  0  0  0  0  0  0
   -4.4785   -1.1581    0.0000 C   0  0  0  0  0  0  0  0  0  0  0  0
  1  2  1  0
  2  3  1  0
  3  4  2  0
  4  5  1  0
  5  6  2  0
  6  7  1  0
  7  8  1  0
  8  9  2  0
  9 10  1  0
 10 11  2  0
 11 12  1  0
 12 13  2  0
 13 14  1  0
 14 15  1  0
 15 16  1  0
 14 17  2  0
 17 18  1  0
 18 19  1  0
 17 20  1  0
 20 21  2  0
  6 22  1  0
 22 23  2  0
 23  3  1  0
 21  8  1  0
 21 12  1  0
M  END
>  <identifier>  (1102) 
CNP0306628.0

>  <canonical_smiles>  (1102) 
COC1=CC=C(CC2=NC=CC3=CC(OC)=C(OC)C=C23)C=C1

>  <standard_inchi>  (1102) 
InChI=1S/C19H19NO3/c1-21-15-6-4-13(5-7-15)10-17-16-12-19(23-3)18(22-2)11-14(16)8-9-20-17/h4-9,11-12H,10H2,1-3H3

>  <standard_inchi_key>  (1102) 
RVTQRSDLGBOKCF-UHFFFAOYSA-N

>  <name>  (1102) 
NIOSH/NW8180000

>  <iupac_name>  (1102) 
6,7-dimethoxy-1-[(4-methoxyphenyl)methyl]isoquinoline

>  <annotation_level>  (1102) 
5

>  <total_atom_count>  (1102) 
42

>  <heavy_atom_count>  (1102) 
23

>  <molecular_weight>  (1102) 
309.37

>  <exact_molecular_weight>  (1102) 
309.13649

>  <molecular_formula>  (1102) 
C19H19NO3

>  <alogp>  (1102) 
3.85

>  <topological_polar_surface_area>  (1102) 
40.58

>  <rotatable_bond_count>  (1102) 
5

>  <hydrogen_bond_acceptors>  (1102) 
4

>  <hydrogen_bond_donors>  (1102) 
0

>  <hydrogen_bond_acceptors_lipinski>  (1102) 
4

>  <hydrogen_bond_donors_lipinski>  (1102) 
0

>  <lipinski_rule_of_five_violations>  (1102) 
0

>  <aromatic_rings_count>  (1102) 
3

>  <qed_drug_likeliness>  (1102) 
0.72

>  <formal_charge>  (1102) 
0

>  <fractioncsp3>  (1102) 
0.21

>  <number_of_minimal_rings>  (1102) 
3

>  <van_der_walls_volume>  (1102) 
nan

>  <contains_sugar>  (1102) 
False

>  <contains_ring_sugars>  (1102) 
False

>  <contains_linear_sugars>  (1102) 
False

>  <murcko_framework>  (1102) 
n1ccc2ccccc2c1Cc3ccccc3

>  <np_likeness>  (1102) 
0.03

>  <chemical_class>  (1102) 
Isoquinolines and derivatives

>  <chemical_sub_class>  (1102) 
Benzylisoquinolines

>  <chemical_super_class>  (1102) 
Organoheterocyclic compounds

>  <direct_parent_classification>  (1102) 
Benzylisoquinolines

>  <np_classifier_pathway>  (1102) 
Alkaloids

>  <np_classifier_superclass>  (1102) 
Tyrosine alkaloids

>  <np_classifier_class>  (1102) 
Isoquinoline alkaloids

>  <np_classifier_is_glycoside>  (1102) 
False

>  <organisms>  (1102) 
Ocotea|Ocotea sp

>  <collections>  (1102) 
Latin America dataset|NuBBEDB|Super Natural II|UNPD (Universal Natural Products Database)|WikiData Natural Products|ZINC NP

>  <dois>  (1102) 
10.1016/0031-9422(75)85390-8

>  <synonyms>  (1102) 
1-(p-Methoxybenzyl)-67-dimethoxyisoquinoline|6,7-Dimethoxy-1-(4-methoxybenzyl)isoquinoline hydrochloride|6,7-Dimethoxy-1-(p-methoxybenzyl)isoquinoline|6,7-dimethoxy-1-[(4-methoxyphenyl)methyl]isoquinoline|BDBM50351892|CHEMBL1821791|CHEMBL94954|Isoquinoline, 6,7-dimethoxy-1-(p-methoxybenzyl)-|NCI60_015393|NSC645240|NW81800000|SCHEMBL1445574

>  <cas>  (1102) 
nan

$$$$

     RDKit          2D

 35 40  0  0  0  0  0  0  0  0999 V2000
    5.1048   -4.7701    0.0000 C   0  0  0  0  0  0  0  0  0  0  0  0
    5.4982   -3.3226    0.0000 O   0  0  0  0  0  0  0  0  0  0  0  0
    4.4413   -2.2582    0.0000 C   0  0  0  0  0  0  0  0  0  0  0  0
    2.9910   -2.6413    0.0000 O   0  0  0  0  0  0  0  0  0  0  0  0
    4.8346   -0.8107    0.0000 C   0  0  0  0  0  0  0  0  0  0  0  0
    3.7777    0.2538    0.0000 C   0  0  0  0  0  0  0  0  0  0  0  0
    2.3275   -0.1293    0.0000 C   0  0  0  0  0  0  0  0  0  0  0  0
    2.9566   -1.4910    0.0000 C   0  0  0  0  0  0  0  0  0  0  0  0
    1.0957   -0.9854    0.0000 C   0  0  0  0  0  0  0  0  0  0  0  0
    1.2706    0.9351    0.0000 C   0  0  0  0  0  0  0  0  0  0  0  0
   -0.2276    0.8619    0.0000 O   0  0  0  0  0  0  0  0  0  0  0  0
   -0.7602    2.2641    0.0000 C   0  0  0  0  0  0  0  0  0  0  0  0
    0.4088    3.2040    0.0000 C   0  0  0  0  0  0  0  0  0  0  0  0
    1.6639    2.3826    0.0000 C   0  0  0  0  0  0  0  0  0  0  0  0
    3.1142    2.7657    0.0000 C   0  0  0  0  0  0  0  0  0  0  0  0
    3.5075    4.2132    0.0000 O   0  0  0  0  0  0  0  0  0  0  0  0
    4.1711    1.7013    0.0000 C   0  0  0  0  0  0  0  0  0  0  0  0
    5.6213    2.0844    0.0000 C   0  0  0  0  0  0  0  0  0  0  0  0
    0.4454    1.3716    0.0000 C   0  0  0  0  0  0  0  0  0  0  0  0
    0.2753   -0.1187    0.0000 C   0  0  0  0  0  0  0  0  0  0  0  0
   -1.1004   -0.7165    0.0000 C   0  0  0  0  0  0  0  0  0  0  0  0
   -2.3060    0.1759    0.0000 C   0  0  0  0  0  0  0  0  0  0  0  0
   -2.4761   -1.3144    0.0000 C   0  0  0  0  0  0  0  0  0  0  0  0
   -3.6817   -0.4219    0.0000 C   0  0  0  0  0  0  0  0  0  0  0  0
   -3.8519   -1.9122    0.0000 C   0  0  0  0  0  0  0  0  0  0  0  0
   -2.7461   -2.9258    0.0000 C   0  0  0  0  0  0  0  0  0  0  0  0
   -3.3685   -4.2906    0.0000 O   0  0  0  0  0  0  0  0  0  0  0  0
   -4.8588   -4.1205    0.0000 C   0  0  0  0  0  0  0  0  0  0  0  0
   -5.1575   -2.6506    0.0000 C   0  0  0  0  0  0  0  0  0  0  0  0
   -4.8874    0.4706    0.0000 O   0  0  0  0  0  0  0  0  0  0  0  0
   -4.7172    1.9609    0.0000 C   0  0  0  0  0  0  0  0  0  0  0  0
   -5.9229    2.8534    0.0000 O   0  0  0  0  0  0  0  0  0  0  0  0
   -3.3415    2.5587    0.0000 C   0  0  0  0  0  0  0  0  0  0  0  0
   -2.1359    1.6663    0.0000 C   0  0  0  0  0  0  0  0  0  0  0  0
   -1.9658    3.1566    0.0000 O   0  0  0  0  0  0  0  0  0  0  0  0
  1  2  1  0
  2  3  1  0
  3  4  2  0
  3  5  1  0
  6  5  1  1
  6  7  1  0
  7  8  1  0
  7  9  1  0
  7 10  1  0
 10 11  1  6
 12 11  1  1
 12 13  1  0
 14 13  1  6
 14 15  1  0
 15 16  2  0
 15 17  1  0
 17 18  1  6
 17 19  1  0
 19 20  1  6
 20 21  1  0
 21 22  1  0
 22 23  1  6
 22 24  1  0
 24 25  1  6
 25 26  2  0
 26 27  1  0
 27 28  1  0
 28 29  2  0
 24 30  1  0
 30 31  1  0
 31 32  2  0
 31 33  1  0
 33 34  1  0
 34 35  1  6
 17  6  1  0
 34 22  1  0
 14 10  1  0
 29 25  1  0
 19 12  1  0
 34 12  1  0
M  END
>  <identifier>  (1103) 
CNP0408392.2

>  <canonical_smiles>  (1103) 
COC(=O)C[C@H]1C(C)(C)[C@@H]2O[C@@]34C[C@@H]2C(=O)[C@]1(C)[C@@H]3CC[C@@]1(C)[C@H](C2=COC=C2)OC(=O)C[C@]14O

>  <standard_inchi>  (1103) 
InChI=1S/C27H34O8/c1-23(2)17(10-18(28)32-5)25(4)16-6-8-24(3)21(14-7-9-33-13-14)34-19(29)12-27(24,31)26(16)11-15(20(25)30)22(23)35-26/h7,9,13,15-17,21-22,31H,6,8,10-12H2,1-5H3/t15-,16+,17+,21+,22-,24+,25-,26+,27+/m1/s1

>  <standard_inchi_key>  (1103) 
OQQDWKJSAQRSAX-FNBFTTOZSA-N

>  <name>  (1103) 
nan

>  <iupac_name>  (1103) 
methyl 2-[(1~{S},2~{S},5~{S},6~{S},10~{S},11~{S},13~{S},14~{R},16~{S})-6-(3-furyl)-10-hydroxy-1,5,15,15-tetramethyl-8,17-dioxo-7,18-dioxapentacyclo[11.3.1.1^{11,14}.0^{2,11}.0^{5,10}]octadecan-16-yl]acetate

>  <annotation_level>  (1103) 
4

>  <total_atom_count>  (1103) 
69

>  <heavy_atom_count>  (1103) 
35

>  <molecular_weight>  (1103) 
486.56

>  <exact_molecular_weight>  (1103) 
486.22537

>  <molecular_formula>  (1103) 
C27H34O8

>  <alogp>  (1103) 
3.37

>  <topological_polar_surface_area>  (1103) 
112.27

>  <rotatable_bond_count>  (1103) 
3

>  <hydrogen_bond_acceptors>  (1103) 
8

>  <hydrogen_bond_donors>  (1103) 
1

>  <hydrogen_bond_acceptors_lipinski>  (1103) 
8

>  <hydrogen_bond_donors_lipinski>  (1103) 
1

>  <lipinski_rule_of_five_violations>  (1103) 
0

>  <aromatic_rings_count>  (1103) 
1

>  <qed_drug_likeliness>  (1103) 
0.65

>  <formal_charge>  (1103) 
0

>  <fractioncsp3>  (1103) 
0.74

>  <number_of_minimal_rings>  (1103) 
6

>  <van_der_walls_volume>  (1103) 
nan

>  <contains_sugar>  (1103) 
False

>  <contains_ring_sugars>  (1103) 
False

>  <contains_linear_sugars>  (1103) 
False

>  <murcko_framework>  (1103) 
o1ccc(c1)C2OCCC3C2CCC4C5CCC6OC43CC6C5

>  <np_likeness>  (1103) 
2.97

>  <chemical_class>  (1103) 
Prenol lipids

>  <chemical_sub_class>  (1103) 
Triterpenoids

>  <chemical_super_class>  (1103) 
Lipids and lipid-like molecules

>  <direct_parent_classification>  (1103) 
Limonoids

>  <np_classifier_pathway>  (1103) 
Terpenoids

>  <np_classifier_superclass>  (1103) 
Triterpenoids

>  <np_classifier_class>  (1103) 
Limonoids

>  <np_classifier_is_glycoside>  (1103) 
False

>  <organisms>  (1103) 
Carapa guianensis

>  <collections>  (1103) 
Latin America dataset|NuBBEDB|WikiData Natural Products

>  <dois>  (1103) 
10.1590/S0103-50532006000300017

>  <synonyms>  (1103) 
Xyloccensin k

>  <cas>  (1103) 
nan

$$$$

     RDKit          2D

 27 29  0  0  0  0  0  0  0  0999 V2000
   -8.4019    1.8471    0.0000 C   0  0  0  0  0  0  0  0  0  0  0  0
   -8.0737    0.3835    0.0000 O   0  0  0  0  0  0  0  0  0  0  0  0
   -6.6421   -0.0641    0.0000 C   0  0  0  0  0  0  0  0  0  0  0  0
   -5.5386    0.9519    0.0000 C   0  0  0  0  0  0  0  0  0  0  0  0
   -4.1070    0.5043    0.0000 C   0  0  0  0  0  0  0  0  0  0  0  0
   -3.7788   -0.9594    0.0000 C   0  0  0  0  0  0  0  0  0  0  0  0
   -2.3471   -1.4070    0.0000 C   0  0  0  0  0  0  0  0  0  0  0  0
   -1.2436   -0.3909    0.0000 C   0  0  0  0  0  0  0  0  0  0  0  0
    0.1880   -0.8385    0.0000 C   0  0  0  0  0  0  0  0  0  0  0  0
    0.5162   -2.3022    0.0000 O   0  0  0  0  0  0  0  0  0  0  0  0
    1.2915    0.1775    0.0000 C   0  0  0  0  0  0  0  0  0  0  0  0
    0.9633    1.6412    0.0000 C   0  0  0  0  0  0  0  0  0  0  0  0
   -0.4684    2.0888    0.0000 O   0  0  0  0  0  0  0  0  0  0  0  0
    2.0668    2.6573    0.0000 C   0  0  0  0  0  0  0  0  0  0  0  0
    3.4984    2.2096    0.0000 C   0  0  0  0  0  0  0  0  0  0  0  0
    4.6019    3.2257    0.0000 O   0  0  0  0  0  0  0  0  0  0  0  0
    4.2737    4.6894    0.0000 C   0  0  0  0  0  0  0  0  0  0  0  0
    3.8266    0.7460    0.0000 C   0  0  0  0  0  0  0  0  0  0  0  0
    2.7231   -0.2701    0.0000 C   0  0  0  0  0  0  0  0  0  0  0  0
    3.0513   -1.7337    0.0000 O   0  0  0  0  0  0  0  0  0  0  0  0
    4.4830   -2.1813    0.0000 C   0  0  0  0  0  0  0  0  0  0  0  0
    5.6752   -3.0916    0.0000 C   0  0  0  0  0  0  0  0  0  0  0  0
    3.7936   -3.5135    0.0000 C   0  0  0  0  0  0  0  0  0  0  0  0
    5.5865   -1.1653    0.0000 C   0  0  0  0  0  0  0  0  0  0  0  0
    5.2583    0.2984    0.0000 C   0  0  0  0  0  0  0  0  0  0  0  0
   -4.8822   -1.9754    0.0000 C   0  0  0  0  0  0  0  0  0  0  0  0
   -6.3139   -1.5278    0.0000 C   0  0  0  0  0  0  0  0  0  0  0  0
  1  2  1  0
  2  3  1  0
  3  4  2  0
  4  5  1  0
  5  6  2  0
  6  7  1  0
  7  8  2  0
  8  9  1  0
  9 10  2  0
  9 11  1  0
 11 12  2  0
 12 13  1  0
 12 14  1  0
 14 15  2  0
 15 16  1  0
 16 17  1  0
 15 18  1  0
 18 19  2  0
 19 20  1  0
 20 21  1  0
 21 22  1  0
 21 23  1  0
 21 24  1  0
 24 25  2  0
  6 26  1  0
 26 27  2  0
 27  3  1  0
 19 11  1  0
 25 18  1  0
M  END
>  <identifier>  (1104) 
CNP0167150.1

>  <canonical_smiles>  (1104) 
COC1=CC=C(/C=C/C(=O)C2=C(O)C=C(OC)C3=C2OC(C)(C)C=C3)C=C1

>  <standard_inchi>  (1104) 
InChI=1S/C22H22O5/c1-22(2)12-11-16-19(26-4)13-18(24)20(21(16)27-22)17(23)10-7-14-5-8-15(25-3)9-6-14/h5-13,24H,1-4H3/b10-7+

>  <standard_inchi_key>  (1104) 
VETSXWXDHHAXNB-JXMROGBWSA-N

>  <name>  (1104) 
nan

>  <iupac_name>  (1104) 
nan

>  <annotation_level>  (1104) 
0

>  <total_atom_count>  (1104) 
49

>  <heavy_atom_count>  (1104) 
27

>  <molecular_weight>  (1104) 
366.41

>  <exact_molecular_weight>  (1104) 
366.14672

>  <molecular_formula>  (1104) 
C22H22O5

>  <alogp>  (1104) 
4.49

>  <topological_polar_surface_area>  (1104) 
64.99

>  <rotatable_bond_count>  (1104) 
5

>  <hydrogen_bond_acceptors>  (1104) 
5

>  <hydrogen_bond_donors>  (1104) 
1

>  <hydrogen_bond_acceptors_lipinski>  (1104) 
5

>  <hydrogen_bond_donors_lipinski>  (1104) 
1

>  <lipinski_rule_of_five_violations>  (1104) 
0

>  <aromatic_rings_count>  (1104) 
2

>  <qed_drug_likeliness>  (1104) 
0.62

>  <formal_charge>  (1104) 
0

>  <fractioncsp3>  (1104) 
0.23

>  <number_of_minimal_rings>  (1104) 
3

>  <van_der_walls_volume>  (1104) 
333.60

>  <contains_sugar>  (1104) 
False

>  <contains_ring_sugars>  (1104) 
False

>  <contains_linear_sugars>  (1104) 
False

>  <murcko_framework>  (1104) 
O1c2c(cccc2CC=Cc3ccccc3)C=CC1

>  <np_likeness>  (1104) 
1.76

>  <chemical_class>  (1104) 
nan

>  <chemical_sub_class>  (1104) 
nan

>  <chemical_super_class>  (1104) 
nan

>  <direct_parent_classification>  (1104) 
nan

>  <np_classifier_pathway>  (1104) 
Shikimates and Phenylpropanoids

>  <np_classifier_superclass>  (1104) 
Flavonoids

>  <np_classifier_class>  (1104) 
Chalcones

>  <np_classifier_is_glycoside>  (1104) 
False

>  <organisms>  (1104) 
Neoraputia magnifica

>  <collections>  (1104) 
KNApSaCK|Latin America dataset|NPEdia|NuBBEDB|Super Natural II|WikiData Natural Products|ZINC NP

>  <dois>  (1104) 
10.1016/S0031-9422(00)00248-X|10.1211/JPP.61.02.0017

>  <synonyms>  (1104) 
nan

>  <cas>  (1104) 
nan

$$$$

     RDKit          2D

 26 30  0  0  0  0  0  0  0  0999 V2000
    4.8747    2.1491    0.0000 C   0  0  0  0  0  0  0  0  0  0  0  0
    3.6326    1.3082    0.0000 C   0  0  0  0  0  0  0  0  0  0  0  0
    3.7397   -0.1880    0.0000 C   0  0  0  0  0  0  0  0  0  0  0  0
    5.0890   -0.8433    0.0000 O   0  0  0  0  0  0  0  0  0  0  0  0
    2.4976   -1.0288    0.0000 C   0  0  0  0  0  0  0  0  0  0  0  0
    2.6047   -2.5250    0.0000 C   0  0  0  0  0  0  0  0  0  0  0  0
    1.3625   -3.3659    0.0000 C   0  0  0  0  0  0  0  0  0  0  0  0
    0.0132   -2.7106    0.0000 C   0  0  0  0  0  0  0  0  0  0  0  0
   -1.3766   -3.2748    0.0000 O   0  0  0  0  0  0  0  0  0  0  0  0
   -2.3427   -2.1273    0.0000 C   0  0  0  0  0  0  0  0  0  0  0  0
   -1.5499   -0.8539    0.0000 O   0  0  0  0  0  0  0  0  0  0  0  0
   -0.0939   -1.2144    0.0000 C   0  0  0  0  0  0  0  0  0  0  0  0
    1.1483   -0.3735    0.0000 C   0  0  0  0  0  0  0  0  0  0  0  0
    1.0411    1.1226    0.0000 C   0  0  0  0  0  0  0  0  0  0  0  0
    0.4288    2.4919    0.0000 O   0  0  0  0  0  0  0  0  0  0  0  0
   -0.4137    0.7573    0.0000 C   0  0  0  0  0  0  0  0  0  0  0  0
   -0.8247   -0.6853    0.0000 C   0  0  0  0  0  0  0  0  0  0  0  0
   -2.2796   -1.0506    0.0000 C   0  0  0  0  0  0  0  0  0  0  0  0
   -3.3234    0.0267    0.0000 C   0  0  0  0  0  0  0  0  0  0  0  0
   -4.8224   -0.0281    0.0000 O   0  0  0  0  0  0  0  0  0  0  0  0
   -5.3377    1.3805    0.0000 C   0  0  0  0  0  0  0  0  0  0  0  0
   -4.1573    2.3060    0.0000 O   0  0  0  0  0  0  0  0  0  0  0  0
   -2.9123    1.4693    0.0000 C   0  0  0  0  0  0  0  0  0  0  0  0
   -1.4575    1.8346    0.0000 C   0  0  0  0  0  0  0  0  0  0  0  0
    2.2833    1.9635    0.0000 C   0  0  0  0  0  0  0  0  0  0  0  0
    2.1762    3.4597    0.0000 C   0  0  0  0  0  0  0  0  0  0  0  0
  2  1  1  1
  2  3  1  0
  3  4  2  0
  3  5  1  0
  5  6  2  0
  6  7  1  0
  7  8  2  0
  8  9  1  0
  9 10  1  0
 10 11  1  0
 11 12  1  0
 12 13  2  0
 13 14  1  0
 14 15  1  1
 14 16  1  0
 16 17  2  0
 17 18  1  0
 18 19  2  0
 19 20  1  0
 20 21  1  0
 21 22  1  0
 22 23  1  0
 23 24  2  0
 14 25  1  0
 25 26  1  1
 25  2  1  0
 13  5  1  0
 24 16  1  0
 12  8  1  0
 23 19  1  0
M  END
>  <identifier>  (1105) 
CNP0231106.2

>  <canonical_smiles>  (1105) 
C[C@H]1C(=O)C2=CC=C3OCOC3=C2[C@](O)(C2=CC=C3OCOC3=C2)[C@H]1C

>  <standard_inchi>  (1105) 
InChI=1S/C20H18O6/c1-10-11(2)20(22,12-3-5-14-16(7-12)25-8-23-14)17-13(18(10)21)4-6-15-19(17)26-9-24-15/h3-7,10-11,22H,8-9H2,1-2H3/t10-,11+,20-/m1/s1

>  <standard_inchi_key>  (1105) 
YQLKOOGRXMGOOT-QZXWKGOOSA-N

>  <name>  (1105) 
nan

>  <iupac_name>  (1105) 
(7~{R},8~{S},9~{R})-9-(1,3-benzodioxol-5-yl)-9-hydroxy-7,8-dimethyl-7,8-dihydrobenzo[e][1,3]benzodioxol-6-one

>  <annotation_level>  (1105) 
4

>  <total_atom_count>  (1105) 
44

>  <heavy_atom_count>  (1105) 
26

>  <molecular_weight>  (1105) 
354.36

>  <exact_molecular_weight>  (1105) 
354.11034

>  <molecular_formula>  (1105) 
C20H18O6

>  <alogp>  (1105) 
2.85

>  <topological_polar_surface_area>  (1105) 
74.22

>  <rotatable_bond_count>  (1105) 
1

>  <hydrogen_bond_acceptors>  (1105) 
6

>  <hydrogen_bond_donors>  (1105) 
1

>  <hydrogen_bond_acceptors_lipinski>  (1105) 
6

>  <hydrogen_bond_donors_lipinski>  (1105) 
1

>  <lipinski_rule_of_five_violations>  (1105) 
0

>  <aromatic_rings_count>  (1105) 
2

>  <qed_drug_likeliness>  (1105) 
0.85

>  <formal_charge>  (1105) 
0

>  <fractioncsp3>  (1105) 
0.35

>  <number_of_minimal_rings>  (1105) 
5

>  <van_der_walls_volume>  (1105) 
nan

>  <contains_sugar>  (1105) 
False

>  <contains_ring_sugars>  (1105) 
False

>  <contains_linear_sugars>  (1105) 
False

>  <murcko_framework>  (1105) 
O1c2ccc(cc2OC1)C3c4c5OCOc5ccc4CCC3

>  <np_likeness>  (1105) 
1.28

>  <chemical_class>  (1105) 
Aryltetralin lignans

>  <chemical_sub_class>  (1105) 
Aryltetralin lignans

>  <chemical_super_class>  (1105) 
Lignans, neolignans and related compounds

>  <direct_parent_classification>  (1105) 
Aryltetralin lignans

>  <np_classifier_pathway>  (1105) 
Shikimates and Phenylpropanoids

>  <np_classifier_superclass>  (1105) 
Lignans

>  <np_classifier_class>  (1105) 
Arylnaphthalene and aryltetralin lignans

>  <np_classifier_is_glycoside>  (1105) 
False

>  <organisms>  (1105) 
Virola elongata|Virola sebifera

>  <collections>  (1105) 
NuBBEDB|WikiData Natural Products|ZINC NP

>  <dois>  (1105) 
10.1016/0031-9422(82)83181-6|10.1016/0031-9422(90)85020-G

>  <synonyms>  (1105) 
(2R3S4R)-4-Hydroxy-23-dimethyl-56-methylenedioxy-4-piperonyl-1-tetralone

>  <cas>  (1105) 
nan

$$$$

     RDKit          2D

 40 44  0  0  0  0  0  0  0  0999 V2000
   -3.3475    2.8922    0.0000 O   0  0  0  0  0  0  0  0  0  0  0  0
   -1.9700    2.2987    0.0000 C   0  0  0  0  0  0  0  0  0  0  0  0
   -0.7671    3.1949    0.0000 C   0  0  0  0  0  0  0  0  0  0  0  0
   -0.9419    4.6847    0.0000 C   0  0  0  0  0  0  0  0  0  0  0  0
    0.2609    5.5809    0.0000 C   0  0  0  0  0  0  0  0  0  0  0  0
    1.6385    4.9873    0.0000 C   0  0  0  0  0  0  0  0  0  0  0  0
    2.8413    5.8836    0.0000 C   0  0  0  0  0  0  0  0  0  0  0  0
    2.6666    7.3734    0.0000 C   0  0  0  0  0  0  0  0  0  0  0  0
    1.2890    7.9669    0.0000 C   0  0  0  0  0  0  0  0  0  0  0  0
    0.0862    7.0707    0.0000 C   0  0  0  0  0  0  0  0  0  0  0  0
   -1.7952    0.8089    0.0000 O   0  0  0  0  0  0  0  0  0  0  0  0
   -2.9980   -0.0874    0.0000 C   0  0  0  0  0  0  0  0  0  0  0  0
   -4.3756    0.5062    0.0000 C   0  0  0  0  0  0  0  0  0  0  0  0
   -4.5503    1.9960    0.0000 O   0  0  0  0  0  0  0  0  0  0  0  0
   -5.5784   -0.3900    0.0000 C   0  0  0  0  0  0  0  0  0  0  0  0
   -6.9560    0.2035    0.0000 O   0  0  0  0  0  0  0  0  0  0  0  0
   -5.4037   -1.8798    0.0000 C   0  0  0  0  0  0  0  0  0  0  0  0
   -6.6065   -2.7760    0.0000 C   0  0  0  0  0  0  0  0  0  0  0  0
   -6.4317   -4.2658    0.0000 O   0  0  0  0  0  0  0  0  0  0  0  0
   -4.0261   -2.4734    0.0000 O   0  0  0  0  0  0  0  0  0  0  0  0
   -2.8233   -1.5771    0.0000 C   0  0  0  0  0  0  0  0  0  0  0  0
   -1.4457   -2.1707    0.0000 C   0  0  0  0  0  0  0  0  0  0  0  0
   -1.2710   -3.6605    0.0000 C   0  0  0  0  0  0  0  0  0  0  0  0
   -2.4738   -4.5567    0.0000 O   0  0  0  0  0  0  0  0  0  0  0  0
    0.1066   -4.2540    0.0000 C   0  0  0  0  0  0  0  0  0  0  0  0
    1.3094   -3.3578    0.0000 C   0  0  0  0  0  0  0  0  0  0  0  0
    2.6870   -3.9514    0.0000 O   0  0  0  0  0  0  0  0  0  0  0  0
    3.8898   -3.0551    0.0000 C   0  0  0  0  0  0  0  0  0  0  0  0
    5.2674   -3.6487    0.0000 C   0  0  0  0  0  0  0  0  0  0  0  0
    6.4702   -2.7525    0.0000 C   0  0  0  0  0  0  0  0  0  0  0  0
    7.8478   -3.3460    0.0000 O   0  0  0  0  0  0  0  0  0  0  0  0
    6.2954   -1.2627    0.0000 C   0  0  0  0  0  0  0  0  0  0  0  0
    7.4983   -0.3665    0.0000 O   0  0  0  0  0  0  0  0  0  0  0  0
    4.9179   -0.6691    0.0000 C   0  0  0  0  0  0  0  0  0  0  0  0
    3.7151   -1.5654    0.0000 C   0  0  0  0  0  0  0  0  0  0  0  0
    2.3375   -0.9718    0.0000 C   0  0  0  0  0  0  0  0  0  0  0  0
    2.1627    0.5180    0.0000 O   0  0  0  0  0  0  0  0  0  0  0  0
    1.1347   -1.8680    0.0000 C   0  0  0  0  0  0  0  0  0  0  0  0
   -0.2429   -1.2745    0.0000 C   0  0  0  0  0  0  0  0  0  0  0  0
   -0.4176    0.2153    0.0000 O   0  0  0  0  0  0  0  0  0  0  0  0
  1  2  2  0
  2  3  1  0
  3  4  2  0
  4  5  1  0
  5  6  2  0
  6  7  1  0
  7  8  2  0
  8  9  1  0
  9 10  2  0
  2 11  1  0
 12 11  1  1
 12 13  1  0
 13 14  1  6
 13 15  1  0
 15 16  1  1
 15 17  1  0
 17 18  1  6
 18 19  1  0
 17 20  1  0
 20 21  1  0
 21 22  1  6
 22 23  2  0
 23 24  1  0
 23 25  1  0
 25 26  2  0
 26 27  1  0
 27 28  1  0
 28 29  2  0
 29 30  1  0
 30 31  1  0
 30 32  2  0
 32 33  1  0
 32 34  1  0
 34 35  2  0
 35 36  1  0
 36 37  2  0
 36 38  1  0
 38 39  2  0
 39 40  1  0
 10  5  1  0
 21 12  1  0
 39 22  1  0
 38 26  1  0
 35 28  1  0
M  END
>  <identifier>  (1106) 
CNP0261452.1

>  <canonical_smiles>  (1106) 
O=C(/C=C/C1=CC=CC=C1)O[C@@H]1[C@@H](O)[C@H](O)[C@@H](CO)O[C@H]1C1=C(O)C=C2OC3=CC(O)=C(O)C=C3C(=O)C2=C1O

>  <standard_inchi>  (1106) 
InChI=1S/C28H24O12/c29-11-19-24(35)26(37)28(40-20(33)7-6-12-4-2-1-3-5-12)27(39-19)21-16(32)10-18-22(25(21)36)23(34)13-8-14(30)15(31)9-17(13)38-18/h1-10,19,24,26-32,35-37H,11H2/b7-6+/t19-,24-,26+,27+,28-/m1/s1

>  <standard_inchi_key>  (1106) 
WSTDGCUXRJQNCC-WLAZBUHESA-N

>  <name>  (1106) 
[(2S,3R,4S,5S,6R)-4,5-dihydroxy-6-(hydroxymethyl)-2-(1,3,6,7-tetrahydroxy-9-oxoxanthen-2-yl)oxan-3-yl] (E)-3-phenylprop-2-enoate

>  <iupac_name>  (1106) 
[(2~{S},3~{R},4~{S},5~{S},6~{R})-4,5-dihydroxy-6-(hydroxymethyl)-2-(1,3,6,7-tetrahydroxy-9-oxo-xanthen-2-yl)tetrahydropyran-3-yl] (~{E})-3-phenylprop-2-enoate

>  <annotation_level>  (1106) 
5

>  <total_atom_count>  (1106) 
64

>  <heavy_atom_count>  (1106) 
40

>  <molecular_weight>  (1106) 
552.49

>  <exact_molecular_weight>  (1106) 
552.12678

>  <molecular_formula>  (1106) 
C28H24O12

>  <alogp>  (1106) 
1.55

>  <topological_polar_surface_area>  (1106) 
207.35

>  <rotatable_bond_count>  (1106) 
5

>  <hydrogen_bond_acceptors>  (1106) 
12

>  <hydrogen_bond_donors>  (1106) 
7

>  <hydrogen_bond_acceptors_lipinski>  (1106) 
12

>  <hydrogen_bond_donors_lipinski>  (1106) 
7

>  <lipinski_rule_of_five_violations>  (1106) 
3

>  <aromatic_rings_count>  (1106) 
4

>  <qed_drug_likeliness>  (1106) 
0.08

>  <formal_charge>  (1106) 
0

>  <fractioncsp3>  (1106) 
0.21

>  <number_of_minimal_rings>  (1106) 
5

>  <van_der_walls_volume>  (1106) 
451.30

>  <contains_sugar>  (1106) 
True

>  <contains_ring_sugars>  (1106) 
True

>  <contains_linear_sugars>  (1106) 
False

>  <murcko_framework>  (1106) 
O1c2ccccc2Cc3cc(ccc13)C4OCCCC4OCC=Cc5ccccc5

>  <np_likeness>  (1106) 
1.83

>  <chemical_class>  (1106) 
Benzopyrans

>  <chemical_sub_class>  (1106) 
1-benzopyrans

>  <chemical_super_class>  (1106) 
Organoheterocyclic compounds

>  <direct_parent_classification>  (1106) 
Xanthones

>  <np_classifier_pathway>  (1106) 
Shikimates and Phenylpropanoids

>  <np_classifier_superclass>  (1106) 
Xanthones

>  <np_classifier_class>  (1106) 
Plant xanthones

>  <np_classifier_is_glycoside>  (1106) 
False

>  <organisms>  (1106) 
Arrabidaea samydoides|Fridericia samydoides

>  <collections>  (1106) 
ChemSpider NPs|Latin America dataset|NPASS|NuBBEDB|Super Natural II|WikiData Natural Products

>  <dois>  (1106) 
10.1021/NP030100T|10.1021/np030100t

>  <synonyms>  (1106) 
2-(2'-O-trans-cinnamoyl)-C-\u221a\u00e9\u00ac\u2264-D-glucopyranosyl-1367-tetrahydroxyxanthone|CHEMBL466788

>  <cas>  (1106) 
nan

$$$$

     RDKit          2D

 28 30  0  0  0  0  0  0  0  0999 V2000
   -7.7977   -1.3183    0.0000 C   0  0  0  0  0  0  0  0  0  0  0  0
   -6.4580   -0.6435    0.0000 C   0  0  0  0  0  0  0  0  0  0  0  0
   -5.2039   -1.4663    0.0000 C   0  0  0  0  0  0  0  0  0  0  0  0
   -3.8642   -0.7915    0.0000 C   0  0  0  0  0  0  0  0  0  0  0  0
   -3.7787    0.7060    0.0000 C   0  0  0  0  0  0  0  0  0  0  0  0
   -2.4391    1.3808    0.0000 C   0  0  0  0  0  0  0  0  0  0  0  0
   -2.3536    2.8784    0.0000 O   0  0  0  0  0  0  0  0  0  0  0  0
   -3.6078    3.7012    0.0000 C   0  0  0  0  0  0  0  0  0  0  0  0
   -1.1849    0.5580    0.0000 C   0  0  0  0  0  0  0  0  0  0  0  0
    0.1548    1.2328    0.0000 O   0  0  0  0  0  0  0  0  0  0  0  0
   -1.2703   -0.9396    0.0000 C   0  0  0  0  0  0  0  0  0  0  0  0
   -0.2048    0.1161    0.0000 C   0  0  0  0  0  0  0  0  0  0  0  0
    1.2757   -0.1254    0.0000 C   0  0  0  0  0  0  0  0  0  0  0  0
    1.8067   -1.5283    0.0000 C   0  0  0  0  0  0  0  0  0  0  0  0
    3.2871   -1.7698    0.0000 C   0  0  0  0  0  0  0  0  0  0  0  0
    3.8182   -3.1726    0.0000 O   0  0  0  0  0  0  0  0  0  0  0  0
    2.8688   -4.3340    0.0000 C   0  0  0  0  0  0  0  0  0  0  0  0
    4.2365   -0.6085    0.0000 C   0  0  0  0  0  0  0  0  0  0  0  0
    5.7169   -0.8500    0.0000 O   0  0  0  0  0  0  0  0  0  0  0  0
    6.6663    0.3113    0.0000 C   0  0  0  0  0  0  0  0  0  0  0  0
    3.7055    0.7944    0.0000 C   0  0  0  0  0  0  0  0  0  0  0  0
    4.6549    1.9557    0.0000 O   0  0  0  0  0  0  0  0  0  0  0  0
    4.1238    3.3586    0.0000 C   0  0  0  0  0  0  0  0  0  0  0  0
    2.2251    1.0359    0.0000 C   0  0  0  0  0  0  0  0  0  0  0  0
   -0.8795    1.4558    0.0000 C   0  0  0  0  0  0  0  0  0  0  0  0
   -0.1923    2.7891    0.0000 C   0  0  0  0  0  0  0  0  0  0  0  0
   -2.6100   -1.6143    0.0000 C   0  0  0  0  0  0  0  0  0  0  0  0
   -2.6955   -3.1119    0.0000 O   0  0  0  0  0  0  0  0  0  0  0  0
  1  2  2  0
  2  3  1  0
  3  4  1  0
  4  5  2  0
  5  6  1  0
  6  7  1  6
  7  8  1  0
  6  9  1  0
  9 10  2  0
 11  9  1  1
 11 12  1  0
 12 13  1  1
 13 14  2  0
 14 15  1  0
 15 16  1  0
 16 17  1  0
 15 18  2  0
 18 19  1  0
 19 20  1  0
 18 21  1  0
 21 22  1  0
 22 23  1  0
 21 24  2  0
 12 25  1  0
 25 26  1  6
 11 27  1  0
 27 28  1  1
 27  4  1  0
 25  6  1  0
 24 13  1  0
M  END
>  <identifier>  (1107) 
CNP0238930.2

>  <canonical_smiles>  (1107) 
C=CCC1=C[C@]2(OC)C(=O)[C@H]([C@H](C3=CC(OC)=C(OC)C(OC)=C3)[C@H]2C)[C@H]1O

>  <standard_inchi>  (1107) 
InChI=1S/C22H28O6/c1-7-8-13-11-22(28-6)12(2)17(18(19(13)23)21(22)24)14-9-15(25-3)20(27-5)16(10-14)26-4/h7,9-12,17-19,23H,1,8H2,2-6H3/t12-,17+,18-,19+,22-/m1/s1

>  <standard_inchi_key>  (1107) 
NWXSUVZITFIXOL-PBRIZDQGSA-N

>  <name>  (1107) 
nan

>  <iupac_name>  (1107) 
(1~{S},4~{R},5~{R},6~{R},7~{R})-3-allyl-4-hydroxy-1-methoxy-7-methyl-6-(3,4,5-trimethoxyphenyl)bicyclo[3.2.1]oct-2-en-8-one

>  <annotation_level>  (1107) 
4

>  <total_atom_count>  (1107) 
56

>  <heavy_atom_count>  (1107) 
28

>  <molecular_weight>  (1107) 
388.46

>  <exact_molecular_weight>  (1107) 
388.18859

>  <molecular_formula>  (1107) 
C22H28O6

>  <alogp>  (1107) 
2.89

>  <topological_polar_surface_area>  (1107) 
74.22

>  <rotatable_bond_count>  (1107) 
7

>  <hydrogen_bond_acceptors>  (1107) 
6

>  <hydrogen_bond_donors>  (1107) 
1

>  <hydrogen_bond_acceptors_lipinski>  (1107) 
6

>  <hydrogen_bond_donors_lipinski>  (1107) 
1

>  <lipinski_rule_of_five_violations>  (1107) 
0

>  <aromatic_rings_count>  (1107) 
1

>  <qed_drug_likeliness>  (1107) 
0.72

>  <formal_charge>  (1107) 
0

>  <fractioncsp3>  (1107) 
0.50

>  <number_of_minimal_rings>  (1107) 
3

>  <van_der_walls_volume>  (1107) 
nan

>  <contains_sugar>  (1107) 
False

>  <contains_ring_sugars>  (1107) 
False

>  <contains_linear_sugars>  (1107) 
False

>  <murcko_framework>  (1107) 
c1ccc(cc1)C2CC3C=CCC2C3

>  <np_likeness>  (1107) 
1.79

>  <chemical_class>  (1107) 
Phenol ethers

>  <chemical_sub_class>  (1107) 
Anisoles

>  <chemical_super_class>  (1107) 
Benzenoids

>  <direct_parent_classification>  (1107) 
Anisoles

>  <np_classifier_pathway>  (1107) 
Shikimates and Phenylpropanoids

>  <np_classifier_superclass>  (1107) 
Lignans

>  <np_classifier_class>  (1107) 
Neolignans

>  <np_classifier_is_glycoside>  (1107) 
False

>  <organisms>  (1107) 
Nectandra|Nectandra sp.

>  <collections>  (1107) 
Latin America dataset|NuBBEDB|WikiData Natural Products

>  <dois>  (1107) 
10.1016/0031-9422(80)87033-6

>  <synonyms>  (1107) 
Macrophyllin B

>  <cas>  (1107) 
nan

$$$$

     RDKit          2D

 27 29  0  0  0  0  0  0  0  0999 V2000
   -1.6225    2.8289    0.0000 C   0  0  0  0  0  0  0  0  0  0  0  0
   -0.1240    2.7615    0.0000 C   0  0  0  0  0  0  0  0  0  0  0  0
    0.8113    3.9342    0.0000 C   0  0  0  0  0  0  0  0  0  0  0  0
    0.4124    5.3801    0.0000 O   0  0  0  0  0  0  0  0  0  0  0  0
    2.2157    3.4070    0.0000 O   0  0  0  0  0  0  0  0  0  0  0  0
    2.1483    1.9085    0.0000 C   0  0  0  0  0  0  0  0  0  0  0  0
    3.5124    1.2847    0.0000 C   0  0  0  0  0  0  0  0  0  0  0  0
    4.1564   -0.0700    0.0000 C   0  0  0  0  0  0  0  0  0  0  0  0
    5.6497    0.0718    0.0000 C   0  0  0  0  0  0  0  0  0  0  0  0
    3.4010   -1.6260    0.0000 C   0  0  0  0  0  0  0  0  0  0  0  0
    3.3336   -3.1245    0.0000 C   0  0  0  0  0  0  0  0  0  0  0  0
    1.8876   -3.5235    0.0000 C   0  0  0  0  0  0  0  0  0  0  0  0
    1.3605   -4.9278    0.0000 O   0  0  0  0  0  0  0  0  0  0  0  0
    1.0614   -2.2716    0.0000 C   0  0  0  0  0  0  0  0  0  0  0  0
   -0.4371   -2.2042    0.0000 C   0  0  0  0  0  0  0  0  0  0  0  0
   -0.0071   -1.2188    0.0000 C   0  0  0  0  0  0  0  0  0  0  0  0
   -0.1489    0.2745    0.0000 C   0  0  0  0  0  0  0  0  0  0  0  0
   -1.6007    0.6520    0.0000 O   0  0  0  0  0  0  0  0  0  0  0  0
   -2.6534   -0.4165    0.0000 C   0  0  0  0  0  0  0  0  0  0  0  0
   -2.2545   -1.8625    0.0000 O   0  0  0  0  0  0  0  0  0  0  0  0
   -4.1052   -0.0391    0.0000 C   0  0  0  0  0  0  0  0  0  0  0  0
   -3.7277    1.4127    0.0000 C   0  0  0  0  0  0  0  0  0  0  0  0
   -5.5569    0.3384    0.0000 O   0  0  0  0  0  0  0  0  0  0  0  0
   -4.4826   -1.4908    0.0000 C   0  0  0  0  0  0  0  0  0  0  0  0
   -5.9286   -1.8897    0.0000 O   0  0  0  0  0  0  0  0  0  0  0  0
    0.7023    1.5096    0.0000 C   0  0  0  0  0  0  0  0  0  0  0  0
    1.9967   -1.0989    0.0000 O   0  0  0  0  0  0  0  0  0  0  0  0
  1  2  2  0
  2  3  1  0
  3  4  2  0
  3  5  1  0
  5  6  1  0
  6  7  1  6
  7  8  1  0
  8  9  1  6
  8 10  1  0
 10 11  2  0
 11 12  1  0
 12 13  2  0
 12 14  1  0
 14 15  1  6
 14 16  1  0
 16 17  1  0
 17 18  1  6
 18 19  1  0
 19 20  2  0
 19 21  1  0
 21 22  1  0
 21 23  1  0
 21 24  1  0
 24 25  1  0
 17 26  1  0
 14 27  1  0
 26  2  1  1
 26  6  1  0
 27 10  1  0
M  END
>  <identifier>  (1108) 
CNP0263764.1

>  <canonical_smiles>  (1108) 
C=C1C(=O)O[C@@H]2C[C@H](C)C3=CC(=O)[C@@](C)(C[C@H](OC(=O)C(C)(O)CO)[C@@H]12)O3

>  <standard_inchi>  (1108) 
InChI=1S/C19H24O8/c1-9-5-12-15(10(2)16(22)25-12)13(26-17(23)18(3,24)8-20)7-19(4)14(21)6-11(9)27-19/h6,9,12-13,15,20,24H,2,5,7-8H2,1,3-4H3/t9-,12+,13-,15-,18?,19+/m0/s1

>  <standard_inchi_key>  (1108) 
YPLCCQMLBSLPHF-LVXGHRJKSA-N

>  <name>  (1108) 
nan

>  <iupac_name>  (1108) 
[(2~{S},4~{R},8~{S},9~{S},11~{R})-2,11-dimethyl-7-methylene-6,12-dioxo-5,14-dioxatricyclo[9.2.1.0^{4,8}]tetradec-1(13)-en-9-yl] 2,3-dihydroxy-2-methyl-propanoate

>  <annotation_level>  (1108) 
4

>  <total_atom_count>  (1108) 
51

>  <heavy_atom_count>  (1108) 
27

>  <molecular_weight>  (1108) 
380.39

>  <exact_molecular_weight>  (1108) 
380.14712

>  <molecular_formula>  (1108) 
C19H24O8

>  <alogp>  (1108) 
0.41

>  <topological_polar_surface_area>  (1108) 
119.36

>  <rotatable_bond_count>  (1108) 
3

>  <hydrogen_bond_acceptors>  (1108) 
8

>  <hydrogen_bond_donors>  (1108) 
2

>  <hydrogen_bond_acceptors_lipinski>  (1108) 
8

>  <hydrogen_bond_donors_lipinski>  (1108) 
2

>  <lipinski_rule_of_five_violations>  (1108) 
0

>  <aromatic_rings_count>  (1108) 
0

>  <qed_drug_likeliness>  (1108) 
0.53

>  <formal_charge>  (1108) 
0

>  <fractioncsp3>  (1108) 
0.63

>  <number_of_minimal_rings>  (1108) 
3

>  <van_der_walls_volume>  (1108) 
nan

>  <contains_sugar>  (1108) 
False

>  <contains_ring_sugars>  (1108) 
False

>  <contains_linear_sugars>  (1108) 
False

>  <murcko_framework>  (1108) 
O1C2=CCC1CCC3CCOC3CC2

>  <np_likeness>  (1108) 
3.28

>  <chemical_class>  (1108) 
Hydroxy acids and derivatives

>  <chemical_sub_class>  (1108) 
Beta hydroxy acids and derivatives

>  <chemical_super_class>  (1108) 
Organic acids and derivatives

>  <direct_parent_classification>  (1108) 
Beta hydroxy acids and derivatives

>  <np_classifier_pathway>  (1108) 
Terpenoids

>  <np_classifier_superclass>  (1108) 
Sesquiterpenoids

>  <np_classifier_class>  (1108) 
Germacrane sesquiterpenoids

>  <np_classifier_is_glycoside>  (1108) 
False

>  <organisms>  (1108) 
Eremanthus seidelii

>  <collections>  (1108) 
Latin America dataset|NuBBEDB|WikiData Natural Products

>  <dois>  (1108) 
10.1590/S0103-50532005000800016

>  <synonyms>  (1108) 
4\u221a\u00e9\u00ac\u22645-Dihydro-2'3'-dihydroxy-15-desoxy-goyazensolide

>  <cas>  (1108) 
nan

$$$$

     RDKit          2D

 15 15  0  0  0  0  0  0  0  0999 V2000
    4.1228   -1.2803    0.0000 C   0  0  0  0  0  0  0  0  0  0  0  0
    2.7083   -0.7814    0.0000 C   0  0  0  0  0  0  0  0  0  0  0  0
    2.7885    0.7165    0.0000 C   0  0  0  0  0  0  0  0  0  0  0  0
    2.0462    2.0199    0.0000 C   0  0  0  0  0  0  0  0  0  0  0  0
    0.7170    2.7151    0.0000 C   0  0  0  0  0  0  0  0  0  0  0  0
   -0.7770    2.5814    0.0000 C   0  0  0  0  0  0  0  0  0  0  0  0
   -1.3263    3.9772    0.0000 C   0  0  0  0  0  0  0  0  0  0  0  0
   -1.9616    1.6612    0.0000 C   0  0  0  0  0  0  0  0  0  0  0  0
   -2.4605    0.2466    0.0000 C   0  0  0  0  0  0  0  0  0  0  0  0
   -2.1155   -1.2132    0.0000 C   0  0  0  0  0  0  0  0  0  0  0  0
   -1.9108   -2.6992    0.0000 C   0  0  0  0  0  0  0  0  0  0  0  0
   -3.4528   -1.8926    0.0000 C   0  0  0  0  0  0  0  0  0  0  0  0
   -0.6443   -1.5058    0.0000 C   0  0  0  0  0  0  0  0  0  0  0  0
    0.4351   -2.5473    0.0000 C   0  0  0  0  0  0  0  0  0  0  0  0
    1.8310   -1.9981    0.0000 C   0  0  0  0  0  0  0  0  0  0  0  0
  1  2  1  0
  2  3  2  0
  3  4  1  0
  4  5  1  0
  5  6  1  0
  6  7  1  0
  6  8  2  0
  8  9  1  0
  9 10  1  0
 10 11  1  0
 10 12  1  0
 10 13  1  0
 13 14  2  0
 14 15  1  0
 15  2  1  0
M  END
>  <identifier>  (1109) 
CNP0263112.5

>  <canonical_smiles>  (1109) 
C/C1=C/CC/C(C)=C\CC(C)(C)/C=C/C1

>  <standard_inchi>  (1109) 
InChI=1S/C15H24/c1-13-7-5-8-14(2)10-12-15(3,4)11-6-9-13/h6-7,10-11H,5,8-9,12H2,1-4H3/b11-6+,13-7-,14-10-

>  <standard_inchi_key>  (1109) 
FAMPSKZZVDUYOS-PGPZXUPKSA-N

>  <name>  (1109) 
nan

>  <iupac_name>  (1109) 
nan

>  <annotation_level>  (1109) 
0

>  <total_atom_count>  (1109) 
39

>  <heavy_atom_count>  (1109) 
15

>  <molecular_weight>  (1109) 
204.36

>  <exact_molecular_weight>  (1109) 
204.1878

>  <molecular_formula>  (1109) 
C15H24

>  <alogp>  (1109) 
5.04

>  <topological_polar_surface_area>  (1109) 
0.00

>  <rotatable_bond_count>  (1109) 
0

>  <hydrogen_bond_acceptors>  (1109) 
0

>  <hydrogen_bond_donors>  (1109) 
0

>  <hydrogen_bond_acceptors_lipinski>  (1109) 
0

>  <hydrogen_bond_donors_lipinski>  (1109) 
0

>  <lipinski_rule_of_five_violations>  (1109) 
1

>  <aromatic_rings_count>  (1109) 
0

>  <qed_drug_likeliness>  (1109) 
0.49

>  <formal_charge>  (1109) 
0

>  <fractioncsp3>  (1109) 
0.60

>  <number_of_minimal_rings>  (1109) 
1

>  <van_der_walls_volume>  (1109) 
228.78

>  <contains_sugar>  (1109) 
False

>  <contains_ring_sugars>  (1109) 
False

>  <contains_linear_sugars>  (1109) 
False

>  <murcko_framework>  (1109) 
C1=CCCC=CCCC=CC1

>  <np_likeness>  (1109) 
3.18

>  <chemical_class>  (1109) 
nan

>  <chemical_sub_class>  (1109) 
nan

>  <chemical_super_class>  (1109) 
nan

>  <direct_parent_classification>  (1109) 
nan

>  <np_classifier_pathway>  (1109) 
Terpenoids

>  <np_classifier_superclass>  (1109) 
Sesquiterpenoids

>  <np_classifier_class>  (1109) 
Humulane sesquiterpenoids

>  <np_classifier_is_glycoside>  (1109) 
False

>  <organisms>  (1109) 
Lippia alba|Pilocarpus

>  <collections>  (1109) 
HIT (Herbal Ingredients Targets)|Latin America dataset|NuBBEDB|Super Natural II|WikiData Natural Products|ZINC NP

>  <dois>  (1109) 
10.1021/np50017a018|10.1590/S0103-50532000000600012

>  <synonyms>  (1109) 
nan

>  <cas>  (1109) 
nan

$$$$

     RDKit          2D

 18 19  0  0  0  0  0  0  0  0999 V2000
    7.6296    0.1484    0.0000 C   0  0  0  0  0  0  0  0  0  0  0  0
    6.2616   -0.4668    0.0000 C   0  0  0  0  0  0  0  0  0  0  0  0
    6.1104   -1.9592    0.0000 C   0  0  0  0  0  0  0  0  0  0  0  0
    5.0448    0.4103    0.0000 C   0  0  0  0  0  0  0  0  0  0  0  0
    3.6767   -0.2050    0.0000 N   0  0  0  0  0  0  0  0  0  0  0  0
    2.4599    0.6722    0.0000 C   0  0  0  0  0  0  0  0  0  0  0  0
    2.6111    2.1645    0.0000 O   0  0  0  0  0  0  0  0  0  0  0  0
    1.0919    0.0569    0.0000 C   0  0  0  0  0  0  0  0  0  0  0  0
   -0.1249    0.9340    0.0000 C   0  0  0  0  0  0  0  0  0  0  0  0
   -1.4929    0.3188    0.0000 C   0  0  0  0  0  0  0  0  0  0  0  0
   -1.6441   -1.1736    0.0000 C   0  0  0  0  0  0  0  0  0  0  0  0
   -3.0121   -1.7889    0.0000 C   0  0  0  0  0  0  0  0  0  0  0  0
   -4.2290   -0.9117    0.0000 C   0  0  0  0  0  0  0  0  0  0  0  0
   -5.6950   -1.2291    0.0000 O   0  0  0  0  0  0  0  0  0  0  0  0
   -6.4499    0.0671    0.0000 C   0  0  0  0  0  0  0  0  0  0  0  0
   -5.4504    1.1856    0.0000 O   0  0  0  0  0  0  0  0  0  0  0  0
   -4.0778    0.5806    0.0000 C   0  0  0  0  0  0  0  0  0  0  0  0
   -2.7098    1.1959    0.0000 C   0  0  0  0  0  0  0  0  0  0  0  0
  1  2  1  0
  2  3  1  0
  2  4  1  0
  4  5  1  0
  5  6  1  0
  6  7  2  0
  6  8  1  0
  8  9  2  0
  9 10  1  0
 10 11  2  0
 11 12  1  0
 12 13  2  0
 13 14  1  0
 14 15  1  0
 15 16  1  0
 16 17  1  0
 17 18  2  0
 18 10  1  0
 17 13  1  0
M  END
>  <identifier>  (1110) 
CNP0404565.1

>  <canonical_smiles>  (1110) 
CC(C)CNC(=O)/C=C/C1=CC=C2OCOC2=C1

>  <standard_inchi>  (1110) 
InChI=1S/C14H17NO3/c1-10(2)8-15-14(16)6-4-11-3-5-12-13(7-11)18-9-17-12/h3-7,10H,8-9H2,1-2H3,(H,15,16)/b6-4+

>  <standard_inchi_key>  (1110) 
WKWYNAMJWDRHBP-GQCTYLIASA-N

>  <name>  (1110) 
nan

>  <iupac_name>  (1110) 
nan

>  <annotation_level>  (1110) 
0

>  <total_atom_count>  (1110) 
35

>  <heavy_atom_count>  (1110) 
18

>  <molecular_weight>  (1110) 
247.29

>  <exact_molecular_weight>  (1110) 
247.12084

>  <molecular_formula>  (1110) 
C14H17NO3

>  <alogp>  (1110) 
2.20

>  <topological_polar_surface_area>  (1110) 
47.56

>  <rotatable_bond_count>  (1110) 
4

>  <hydrogen_bond_acceptors>  (1110) 
3

>  <hydrogen_bond_donors>  (1110) 
1

>  <hydrogen_bond_acceptors_lipinski>  (1110) 
3

>  <hydrogen_bond_donors_lipinski>  (1110) 
1

>  <lipinski_rule_of_five_violations>  (1110) 
0

>  <aromatic_rings_count>  (1110) 
1

>  <qed_drug_likeliness>  (1110) 
0.83

>  <formal_charge>  (1110) 
0

>  <fractioncsp3>  (1110) 
0.36

>  <number_of_minimal_rings>  (1110) 
2

>  <van_der_walls_volume>  (1110) 
233.78

>  <contains_sugar>  (1110) 
False

>  <contains_ring_sugars>  (1110) 
False

>  <contains_linear_sugars>  (1110) 
False

>  <murcko_framework>  (1110) 
O1c2ccccc2OC1

>  <np_likeness>  (1110) 
0.06

>  <chemical_class>  (1110) 
nan

>  <chemical_sub_class>  (1110) 
nan

>  <chemical_super_class>  (1110) 
nan

>  <direct_parent_classification>  (1110) 
nan

>  <np_classifier_pathway>  (1110) 
Shikimates and Phenylpropanoids

>  <np_classifier_superclass>  (1110) 
Phenylpropanoids (C6-C3)

>  <np_classifier_class>  (1110) 
Cinnamic acid amides

>  <np_classifier_is_glycoside>  (1110) 
False

>  <organisms>  (1110) 
Anthocleista djalonensis|Anthocleista vogelii|Artemisia austriaca|Asarum sagittarioides|Chrysolaena propinqua|Daphne blagayana|Digitalis obscura|Erythrina orientalis|Fagara heitzii|Fagara macrophylla|Fagara tessmannii|Fagara xanthoxyloides|Lotus villosus|Macropiper|Mesua elegans|Michelia rajaniana|Onychopetalum amazonicum|Phora atra|Piper amalago|Piper chaba|Piper hederaceum|Piper nigrum|Piper novae-hollandiae|Piper retrofractum|Piper swartzianum|Piper tuberculatum|Piper tuberculatum Jacq.|Russula subnigricans|Sarcomyxa serotina|Stevia serrata|Umbelopsis vinacea|Vernonia tufnellae|West African Pepper|Zanthoxylum armatum|Zanthoxylum gilletii|Zanthoxylum heitzii|Zanthoxylum rubescens|Zanthoxylum zanthoxyloides|dinosperma erythrococca

>  <collections>  (1110) 
ANPDB|AfroCancer|Australian natural products|CMAUP (cCollective molecular activities of useful plants)|ChEBI NPs|ChemSpider NPs|ConMedNP|KNApSaCK|Latin America dataset|NANPDB (Natural Products from Northern African Sources)|NPASS|NPEdia|NuBBEDB|Super Natural II|WikiData Natural Products|ZINC NP

>  <dois>  (1110) 
10.1002/CHIN.200340213|10.1002/JHRC.1240090712|10.1007/BF01952540|10.1007/S00044-008-9161-9|10.1007/s00044-008-9161-9|10.1016/J.BMC.2009.08.050|10.1016/J.PHYTOCHEM.2009.08.007|10.1016/S0031-9422(00)90373-X|10.1016/S0031-9422(01)00431-9|10.1021/NP030475E|10.1021/NP50046A035|10.1021/NP50057A031|10.1021/NP980224J|10.1021/np9705569|10.1042/BJ0150123|10.1055/S-0035-1546106|10.1055/S-2003-38877|10.1055/S-2006-941504|10.1055/S-2006-960985|10.1055/S-2007-969054|10.1055/S-2007-969634|10.1071/CH9691531|10.1071/ch9691531|10.1248/CPB.35.2437|10.1271/BBB.58.936|10.2307/4117899

>  <synonyms>  (1110) 
nan

>  <cas>  (1110) 
495-86-3

$$$$

     RDKit          2D

 20 22  0  0  0  0  0  0  0  0999 V2000
   -6.0840   -2.3531    0.0000 C   0  0  0  0  0  0  0  0  0  0  0  0
   -4.9940   -1.3225    0.0000 C   0  0  0  0  0  0  0  0  0  0  0  0
   -5.3415    0.1367    0.0000 C   0  0  0  0  0  0  0  0  0  0  0  0
   -3.5566   -1.7512    0.0000 C   0  0  0  0  0  0  0  0  0  0  0  0
   -2.4666   -0.7207    0.0000 C   0  0  0  0  0  0  0  0  0  0  0  0
   -1.0292   -1.1494    0.0000 O   0  0  0  0  0  0  0  0  0  0  0  0
    0.0608   -0.1189    0.0000 C   0  0  0  0  0  0  0  0  0  0  0  0
   -0.2867    1.3403    0.0000 C   0  0  0  0  0  0  0  0  0  0  0  0
   -1.6036    2.0585    0.0000 C   0  0  0  0  0  0  0  0  0  0  0  0
   -1.3275    3.5329    0.0000 C   0  0  0  0  0  0  0  0  0  0  0  0
    0.1601    3.7259    0.0000 O   0  0  0  0  0  0  0  0  0  0  0  0
    0.8033    2.3708    0.0000 C   0  0  0  0  0  0  0  0  0  0  0  0
    2.2407    1.9421    0.0000 C   0  0  0  0  0  0  0  0  0  0  0  0
    2.5882    0.4829    0.0000 C   0  0  0  0  0  0  0  0  0  0  0  0
    1.4982   -0.5476    0.0000 C   0  0  0  0  0  0  0  0  0  0  0  0
    1.8457   -2.0068    0.0000 C   0  0  0  0  0  0  0  0  0  0  0  0
    3.2831   -2.4355    0.0000 C   0  0  0  0  0  0  0  0  0  0  0  0
    4.3731   -1.4050    0.0000 C   0  0  0  0  0  0  0  0  0  0  0  0
    5.8106   -1.8336    0.0000 O   0  0  0  0  0  0  0  0  0  0  0  0
    4.0257    0.0542    0.0000 O   0  0  0  0  0  0  0  0  0  0  0  0
  1  2  1  0
  2  3  1  0
  2  4  2  0
  4  5  1  0
  5  6  1  0
  6  7  1  0
  7  8  2  0
  8  9  1  0
  9 10  2  0
 10 11  1  0
 11 12  1  0
 12 13  2  0
 13 14  1  0
 14 15  2  0
 15 16  1  0
 16 17  2  0
 17 18  1  0
 18 19  2  0
 18 20  1  0
 15  7  1  0
 12  8  1  0
 20 14  1  0
M  END
>  <identifier>  (1111) 
CNP0187563.0

>  <canonical_smiles>  (1111) 
CC(C)=CCOC1=C2C=COC2=CC2=C1C=CC(=O)O2

>  <standard_inchi>  (1111) 
InChI=1S/C16H14O4/c1-10(2)5-7-19-16-11-3-4-15(17)20-14(11)9-13-12(16)6-8-18-13/h3-6,8-9H,7H2,1-2H3

>  <standard_inchi_key>  (1111) 
IGWDEVSBEKYORK-UHFFFAOYSA-N

>  <name>  (1111) 
Isoimperatorin

>  <iupac_name>  (1111) 
4-(3-methylbut-2-enoxy)furo[3,2-g]chromen-7-one

>  <annotation_level>  (1111) 
5

>  <total_atom_count>  (1111) 
34

>  <heavy_atom_count>  (1111) 
20

>  <molecular_weight>  (1111) 
270.28

>  <exact_molecular_weight>  (1111) 
270.08921

>  <molecular_formula>  (1111) 
C16H14O4

>  <alogp>  (1111) 
3.88

>  <topological_polar_surface_area>  (1111) 
52.58

>  <rotatable_bond_count>  (1111) 
3

>  <hydrogen_bond_acceptors>  (1111) 
4

>  <hydrogen_bond_donors>  (1111) 
0

>  <hydrogen_bond_acceptors_lipinski>  (1111) 
4

>  <hydrogen_bond_donors_lipinski>  (1111) 
0

>  <lipinski_rule_of_five_violations>  (1111) 
0

>  <aromatic_rings_count>  (1111) 
3

>  <qed_drug_likeliness>  (1111) 
0.53

>  <formal_charge>  (1111) 
0

>  <fractioncsp3>  (1111) 
0.19

>  <number_of_minimal_rings>  (1111) 
3

>  <van_der_walls_volume>  (1111) 
237.73

>  <contains_sugar>  (1111) 
False

>  <contains_ring_sugars>  (1111) 
False

>  <contains_linear_sugars>  (1111) 
False

>  <murcko_framework>  (1111) 
o1ccc2cc3C=CCOc3cc12

>  <np_likeness>  (1111) 
1.43

>  <chemical_class>  (1111) 
Coumarins and derivatives

>  <chemical_sub_class>  (1111) 
Furanocoumarins

>  <chemical_super_class>  (1111) 
Phenylpropanoids and polyketides

>  <direct_parent_classification>  (1111) 
Psoralens

>  <np_classifier_pathway>  (1111) 
Shikimates and Phenylpropanoids

>  <np_classifier_superclass>  (1111) 
Coumarins

>  <np_classifier_class>  (1111) 
Furocoumarins

>  <np_classifier_is_glycoside>  (1111) 
False

>  <organisms>  (1111) 
Actaea elata|Ammi majus|Ammi majus L.|Amyris texana|Angelica Dahurica|Angelica Pubescens|Angelica acutiloba|Angelica archangelica|Angelica archangelica L.|Angelica dahurica|Angelica decurrens|Angelica decursiva|Angelica furcijuga|Angelica genuflexa|Angelica gigas|Angelica gmelinii|Angelica japonica|Angelica komarovii|Angelica koreana|Angelica lucida|Angelica officinalis|Angelica pachycarpa|Angelica pubescens|Angelica pubescens f.biserrata|Angelica saxatilis|Angelica sinensis|Angelica sp.|Angelica sylvestris L.|Angelica taiwaniana|Angelica talwaniana|Apium graveolens|Apium graveolens L.|Apium sp.|Aralia continentalis|Arracacia tolucensis|Aspergillus albus|Atalantia buxifolia|Atroxima liberica|Bergenia crassifolia|Brachyclados megalanthus|Cachrys sicula|Catharanthus roseus|Changium smyrnioides|Christisonia bicolor|Cicerbita alpina|Citropsis articulata|Citrus depressa|Citrus hystrix|Citrus maxima|Citrus medica|Citrus reticulata|Citrus sp.|Citrus wilsonii|Citrus × deliciosa|Clausena anisata|Clausena lansium|Cnidium monnieri|Convallaria majalis|Crotalaria orixensis|Cudrania tricuspidata|Deverra tortuosa|Dictamnus albus|Dictamnus sp.|Dorstenia gigas|Feroniella lucida|Ferulago capillaris|Ferulago lutea|Ferulago sylvatica|Ferulago turcomanica|Gardenia jasminoides|Glehnia Littoralis|Glehnia littoralis|Hansenia forbesii|Hansenia weberbaueriana|Heracleum maximum|Kitagawia baicalensis|Komarovia anisosperma|Komarovia anisospermum|Lawsonia inermis|Leptothyrsa sprucei|Leutea turcomanica|Licaria brasiliensis|Linum crispum|Linum salsoloides|Maclura tricuspidata|Macrococculus pomiferus|Melicope stipitata|Metrodorea nigra|Niphogeton ternata|Notopterygium forbesii|Notopterygium incisum|Octopus vulgaris|Ostericum grosseserratum|Pachychalina alcaloidifera|Palafoxia texana|Pastinaca sativa L.|Petroselinum crispum|Peucedanum austriacum (Jacq.) W. D. J. Koch s.l.|Peucedanum baicalense|Peucedanum carvifolia Vill.|Peucedanum cervaria (L.) Lapeyr.|Peucedanum dhana|Peucedanum japonicum|Peucedanum officinale|Peucedanum oreoselinum (L.) Moench|Peucedanum ostruthium|Peucedanum ostruthium (L.) W. D. J. Koch|Peucedanum palustre|Peucedanum palustre (L.) Moench|Peucedanum ruthenicum|Peucedanum venetum (Spreng.) W. D. J. Koch|Peucedanum verticillare (L.) Mert. & W. D. J. Koch|Phlojodicarpus sibiricus|Pituranthos triradiatus|Platytaenia lasiocarpa|Pleurospermum angelicoides|Poncirus trifoliata|Prangos|Prangos bucharica|Prangos didyma|Prangos ferulacea|Prangos haussknechtii|Prangos latiloba|Prangos lipskyi|Prangos lophoptera|Prangos pabularia|Prangos platychlaena|Prangos trifida|Prangos tschimganica|Prangos uloptera|Pseudocinchona pachyceras|Rabdosia angustifolia|Rhododendron dauricum|Ruta corsica|Ruta graveolens|Ruta graveolens L.|Ruta sp.|Salvia miltiorrhiza|Sanguisorba officinalis|Saposhnikovia divaricata|Saposhnikovia divaricata Schischkin|Scutellaria sieberi|Seseli|Seseli abolinii|Seseli elatum|Seseli eriocephalum|Seseli gouanii|Seseli kochii|Seseli longifolium|Seseli webbii Cosson.|Skimmia japonica|Smilax bracteata|Teclea nobilis|Tenebrio obscurus|Tordylium apulum|Trichocline caulescens|Trichocline sinuata|Trifoliate orange|Tynanthus panurensis|Veronicastrum japonicum|Xenia blumi|Zanthoxylum americanum|Zanthoxylum sp.|Zanthoxylum spinosum|parsley

>  <collections>  (1111) 
ANPDB|AnalytiCon Discovery NPs|Australian natural products|BIOFACQUIM|CMAUP (cCollective molecular activities of useful plants)|ChEBI NPs|ETM (Ethiopian Traditional Medicine) DB|FooDB|GNPS (Global Natural Products Social Molecular Networking)|HIT (Herbal Ingredients Targets)|InterBioScreen Ltd|KNApSaCK|Latin America dataset|NANPDB (Natural Products from Northern African Sources)|NPASS|NPEdia|NuBBEDB|Phyto4Health|PhytoLab phyproof® Reference Substances|PubChem NPs|Super Natural II|TCMDB-Taiwan (Traditional Chinese Medicine database)|TCMID (Traditional Chinese Medicine Integrated Database)|TIPdb (database of Taiwan indigenous plants)|TPPT (Toxic Plants–PhytoToxins)|UNPD (Universal Natural Products Database)|VietHerb|WikiData Natural Products|ZINC NP

>  <dois>  (1111) 
10.1002/(SICI)1099-1565(199811/12)9:6<283::AID-PCA419>3.0.CO;2-9|10.1002/CHIN.201034210|10.1002/JCCS.198400042|10.1002/JSSC.201300523|10.1002/PCA.2800030108|10.1002/PTR.2650040604|10.1002/RECL.19680870808|10.1002/biuz.19840140514|10.1002/food.19880321030|10.1007/BF00563826|10.1007/BF00563962|10.1007/BF00563983|10.1007/BF00564007|10.1007/BF00565847|10.1007/BF00566333|10.1007/BF00566803|10.1007/BF00566806|10.1007/BF00567813|10.1007/BF00568603|10.1007/BF00570197|10.1007/BF00570198|10.1007/BF00570686|10.1007/BF00570861|10.1007/BF00570862|10.1007/BF00571232|10.1007/BF00574597|10.1007/BF00574598|10.1007/BF00575774|10.1007/BF00579494|10.1007/BF00579654|10.1007/BF00595082|10.1007/BF00778181|10.1007/BF00781092|10.1007/BF02066241|10.1007/BF02974073|10.1007/BF02974172|10.1007/BF02975883|10.1007/BF02976681|10.1007/BF02977004|10.1016/0031-9422(73)85135-0|10.1016/0031-9422(83)80174-5|10.1016/0031-9422(88)80276-0|10.1016/0031-9422(89)80056-1|10.1016/0031-9422(91)85122-G|10.1016/0031-9422(94)85101-8|10.1016/0031-9422(95)00504-Z|10.1016/0031-9422(95)00625-7|10.1016/0040-4020(94)01015-R|10.1016/0378-8741(94)01215-L|10.1016/J.BMC.2007.12.021|10.1016/J.FITOTE.2003.12.014|10.1016/J.FITOTE.2007.04.004|10.1016/J.JEP.2004.03.054|10.1016/J.JEP.2007.05.015|10.1016/S0021-9673(00)00321-6|10.1016/S0021-9673(00)00359-9|10.1016/S0021-9673(01)84214-X|10.1016/S0031-9422(00)00419-2|10.1016/S0031-9422(00)81503-4|10.1016/S0031-9422(00)85511-9|10.1016/S0031-9422(00)85512-0|10.1016/S0031-9422(00)90453-9|10.1016/S0031-9422(00)95225-7|10.1016/S0031-9422(00)98112-3|10.1016/S0031-9422(00)98508-X|10.1016/S0031-9422(01)00248-5|10.1016/S0031-9422(02)00023-7|10.1016/S0031-9422(96)00634-6|10.1016/S0031-9422(97)00528-1|10.1016/S0031-9422(99)00524-5|10.1016/S0039-9140(01)00327-7|10.1016/S0305-1978(01)00104-1|10.1016/j.jep.2007.05.015|10.1016/s0031-9422(00)81503-4|10.1021/ACS.JNATPROD.6B00204|10.1021/JF60220A023|10.1021/NP000441W|10.1021/NP100531X|10.1021/NP200072A|10.1021/NP990522W|10.1021/acs.jnatprod.6b00204|10.1021/acs.jnatprod.7b00322|10.1021/acs.jnatprod.7b00938|10.1021/acs.jnatprod.9b00547|10.1021/np100531x|10.1021/np200072a|10.1021/np500088u|10.1055/S-0028-1088397|10.1055/S-0028-1097274|10.1055/S-2001-11509|10.1055/S-2002-20258|10.1055/S-2002-32075|10.1055/S-2003-39702|10.1055/S-2006-957398|10.1055/S-2006-957507|10.1055/S-2006-957653|10.1055/S-2006-957985|10.1055/S-2006-957987|10.1055/S-2006-961919|10.1055/S-2006-961931|10.1055/S-2006-962141|10.1055/S-2006-962542|10.1055/S-2007-969990|10.1055/s-2006-962158.pdf|10.1080/10286020.2011.572878|10.1186/2191-2858-2-1|10.1211/0022357011776432|10.1248/BPB.25.260|10.1248/BPB.28.380|10.1248/CPB.28.1847|10.1248/CPB.29.2565|10.1248/CPB.31.2712|10.1248/CPB.31.64|10.1248/CPB.38.1084|10.1248/CPB.38.2498|10.1248/CPB.41.926|10.1248/CPB.46.1939|10.1248/CPB.47.96|10.1248/CPB.48.1039|10.1248/CPB.49.154|10.1248/CPB.49.877|10.1248/CPB.50.115|10.1248/CPB.50.73|10.1248/CPB.56.839|10.1248/YAKUSHI1947.85.2_173|10.1371/journal.pone.0019825|10.2210/PDB5YLW/PDB|10.3390/MOLECULES14082729|10.3390/MOLECULES16086339|10.3891/ACTA.CHEM.SCAND.18-1379|10.3987/R-1986-02-0437

>  <synonyms>  (1111) 
0ZMV066080|4-(3-methylbut-2-enoxy)furo[3,2-g]chromen-7-one|4-PRENYLOXYPSORALEN|4-[(3-Methyl-2-buten-1-yl)oxy]-7H-Furo[3,2-g][1]benzopyran-7-one; 7H-Furo[3,2-g][1]benzopyran-7-one, 4-[(3-methyl-2-butenyl)oxy]- (8CI,9CI); Isoimperatorin (6CI); 4-[(3-Methyl-2-buten-1-yl)oxy]-7H-furo[3,2-g][1]benzopyran-7-one|4-[(3-Methyl-2-butenyl)oxy]-7H-furo[3,2-g]chromen-7-one #|4-[(3-methylbut-2-en-1-yl)oxy]-7h-furo[3,2-g]chromen-7-one|482-45-1|7,4-[(3-methyl-2-butenyl)oxy]-7H-furo[3,2-g]-1-benzopyran-7-one|7H-Furo(3,2-g)(1)benzopyran-7-one, 4-((3-methyl-2-butenyl)oxy)-|A871937|AC-8047|ACon1_000176|AKOS015895143|Auraptin|BCP10721|BDBM50242377|BRD-K40367461-001-01-0|BS-17328|C16976|CCG-267156|CHEBI:66071|CHEMBL448060|CS-5801|Cnidin|DB-050314|DTXCID70119951|DTXSID60197460|HMS2268M21|HSDB 8496|HY-N0286|Iso Imperatorin|Iso-imperatorin|Isoimperatorin|Isoimperatorin, analytical standard|MEGxp0_000090|MFCD00272155|MLS000574919|MLS001048978|NCGC00180809-01|NS00094752|Oprea1_630212|Oprea1_655950|Q-100533|Q1552561|SCHEMBL15090959|SMR000156243|STL564896|UNII-0ZMV066080|isoimperatorin|s3904

>  <cas>  (1111) 
482-45-1

$$$$

     RDKit          2D

 40 42  0  0  0  0  0  0  0  0999 V2000
   -7.2640   -2.8516    0.0000 C   0  0  0  0  0  0  0  0  0  0  0  0
   -6.5486   -1.5332    0.0000 C   0  0  0  0  0  0  0  0  0  0  0  0
   -7.3326   -0.2544    0.0000 C   0  0  0  0  0  0  0  0  0  0  0  0
   -5.0491   -1.4936    0.0000 C   0  0  0  0  0  0  0  0  0  0  0  0
   -4.0168   -0.4053    0.0000 C   0  0  0  0  0  0  0  0  0  0  0  0
   -2.9285   -1.4376    0.0000 C   0  0  0  0  0  0  0  0  0  0  0  0
   -1.4291   -1.3980    0.0000 C   0  0  0  0  0  0  0  0  0  0  0  0
   -0.7136   -0.0796    0.0000 C   0  0  0  0  0  0  0  0  0  0  0  0
   -2.1362    0.3960    0.0000 C   0  0  0  0  0  0  0  0  0  0  0  0
   -2.4356    1.8658    0.0000 C   0  0  0  0  0  0  0  0  0  0  0  0
   -3.8582    2.3415    0.0000 C   0  0  0  0  0  0  0  0  0  0  0  0
   -4.1576    3.8113    0.0000 C   0  0  0  0  0  0  0  0  0  0  0  0
   -4.9814    1.3473    0.0000 C   0  0  0  0  0  0  0  0  0  0  0  0
    0.4605   -1.0131    0.0000 C   0  0  0  0  0  0  0  0  0  0  0  0
    0.2391   -2.4967    0.0000 O   0  0  0  0  0  0  0  0  0  0  0  0
    1.8560   -0.4631    0.0000 C   0  0  0  0  0  0  0  0  0  0  0  0
    3.0301   -1.3966    0.0000 C   0  0  0  0  0  0  0  0  0  0  0  0
    2.8087   -2.8801    0.0000 C   0  0  0  0  0  0  0  0  0  0  0  0
    3.9829   -3.8136    0.0000 C   0  0  0  0  0  0  0  0  0  0  0  0
    3.7615   -5.2972    0.0000 C   0  0  0  0  0  0  0  0  0  0  0  0
    4.4256   -0.8465    0.0000 C   0  0  0  0  0  0  0  0  0  0  0  0
    5.5997   -1.7800    0.0000 C   0  0  0  0  0  0  0  0  0  0  0  0
    5.3784   -3.2636    0.0000 O   0  0  0  0  0  0  0  0  0  0  0  0
    6.9953   -1.2299    0.0000 O   0  0  0  0  0  0  0  0  0  0  0  0
    8.1694   -2.1634    0.0000 C   0  0  0  0  0  0  0  0  0  0  0  0
    2.0774    1.0205    0.0000 C   0  0  0  0  0  0  0  0  0  0  0  0
    3.4729    1.5706    0.0000 O   0  0  0  0  0  0  0  0  0  0  0  0
    3.6943    3.0542    0.0000 C   0  0  0  0  0  0  0  0  0  0  0  0
    5.0898    3.6042    0.0000 C   0  0  0  0  0  0  0  0  0  0  0  0
    2.5201    3.9877    0.0000 C   0  0  0  0  0  0  0  0  0  0  0  0
    2.7415    5.4712    0.0000 C   0  0  0  0  0  0  0  0  0  0  0  0
    1.1246    3.4376    0.0000 C   0  0  0  0  0  0  0  0  0  0  0  0
   -0.0495    4.3711    0.0000 O   0  0  0  0  0  0  0  0  0  0  0  0
    0.9033    1.9540    0.0000 C   0  0  0  0  0  0  0  0  0  0  0  0
   -0.4922    1.4040    0.0000 C   0  0  0  0  0  0  0  0  0  0  0  0
   -1.6664    2.3375    0.0000 O   0  0  0  0  0  0  0  0  0  0  0  0
   -1.4450    3.8210    0.0000 C   0  0  0  0  0  0  0  0  0  0  0  0
   -3.9608   -2.5259    0.0000 C   0  0  0  0  0  0  0  0  0  0  0  0
   -2.8725   -3.5582    0.0000 C   0  0  0  0  0  0  0  0  0  0  0  0
   -4.9931   -3.6142    0.0000 C   0  0  0  0  0  0  0  0  0  0  0  0
  1  2  2  0
  2  3  1  0
  2  4  1  0
  4  5  1  0
  5  6  1  0
  6  7  1  0
  7  8  1  0
  8  9  1  0
  9 10  1  0
 10 11  2  0
 11 12  1  0
 11 13  1  0
  8 14  1  0
 14 15  2  0
 14 16  1  0
 16 17  1  0
 17 18  1  0
 18 19  1  0
 19 20  1  0
 17 21  1  0
 21 22  1  0
 22 23  2  0
 22 24  1  0
 24 25  1  0
 16 26  2  0
 26 27  1  0
 27 28  1  0
 28 29  1  1
 28 30  1  0
 30 31  1  6
 30 32  1  0
 32 33  2  0
 32 34  1  0
 34 35  2  0
 35 36  1  0
 36 37  1  0
  6 38  1  0
 38 39  1  0
 38 40  1  0
 38  4  1  0
 35  8  1  0
 34 26  1  0
M  END
>  <identifier>  (1112) 
CNP0080384.1

>  <canonical_smiles>  (1112) 
C=C(C)C1CC(CC2(CC=C(C)C)C(=O)C(C(CCC)CC(=O)OC)=C3O[C@H](C)[C@@H](C)C(=O)C3=C2OC)C1(C)C

>  <standard_inchi>  (1112) 
InChI=1S/C34H50O6/c1-12-13-23(16-26(35)38-10)27-30-28(29(36)21(6)22(7)40-30)32(39-11)34(31(27)37,15-14-19(2)3)18-24-17-25(20(4)5)33(24,8)9/h14,21-25H,4,12-13,15-18H2,1-3,5-11H3/t21-,22-,23?,24?,25?,34?/m1/s1

>  <standard_inchi_key>  (1112) 
VBLVXMWELLTNAI-XSXDNLPQSA-N

>  <name>  (1112) 
nan

>  <iupac_name>  (1112) 
methyl 3-[(2~{R},3~{R})-6-[(3-isopropenyl-2,2-dimethyl-cyclobutyl)methyl]-5-methoxy-2,3-dimethyl-6-(3-methylbut-2-enyl)-4,7-dioxo-2,3-dihydrochromen-8-yl]hexanoate

>  <annotation_level>  (1112) 
4

>  <total_atom_count>  (1112) 
90

>  <heavy_atom_count>  (1112) 
40

>  <molecular_weight>  (1112) 
554.77

>  <exact_molecular_weight>  (1112) 
554.36074

>  <molecular_formula>  (1112) 
C34H50O6

>  <alogp>  (1112) 
7.30

>  <topological_polar_surface_area>  (1112) 
78.90

>  <rotatable_bond_count>  (1112) 
11

>  <hydrogen_bond_acceptors>  (1112) 
6

>  <hydrogen_bond_donors>  (1112) 
0

>  <hydrogen_bond_acceptors_lipinski>  (1112) 
6

>  <hydrogen_bond_donors_lipinski>  (1112) 
0

>  <lipinski_rule_of_five_violations>  (1112) 
2

>  <aromatic_rings_count>  (1112) 
0

>  <qed_drug_likeliness>  (1112) 
0.20

>  <formal_charge>  (1112) 
0

>  <fractioncsp3>  (1112) 
0.68

>  <number_of_minimal_rings>  (1112) 
3

>  <van_der_walls_volume>  (1112) 
nan

>  <contains_sugar>  (1112) 
False

>  <contains_ring_sugars>  (1112) 
False

>  <contains_linear_sugars>  (1112) 
False

>  <murcko_framework>  (1112) 
O1C2=CCC(C=C2CCC1)CC3CCC3

>  <np_likeness>  (1112) 
2.35

>  <chemical_class>  (1112) 
Fatty Acyls

>  <chemical_sub_class>  (1112) 
Fatty acid esters

>  <chemical_super_class>  (1112) 
Lipids and lipid-like molecules

>  <direct_parent_classification>  (1112) 
Fatty acid methyl esters

>  <np_classifier_pathway>  (1112) 
Polyketides

>  <np_classifier_superclass>  (1112) 
Meroterpenoids

>  <np_classifier_class>  (1112) 
Polyprenylated cyclic polyketides (Hop meroterpenoids)

>  <np_classifier_is_glycoside>  (1112) 
False

>  <organisms>  (1112) 
Calophyllum brasiliense

>  <collections>  (1112) 
Latin America dataset|NuBBEDB|WikiData Natural Products

>  <dois>  (1112) 
10.1080/14786410701582282

>  <synonyms>  (1112) 
6-O-methyl inophylloidic acid methyl ester

>  <cas>  (1112) 
nan

$$$$

     RDKit          2D

 21 24  0  0  0  0  0  0  0  0999 V2000
   -2.9096   -2.3583    0.0000 C   0  0  0  0  0  0  0  0  0  0  0  0
   -3.3814   -0.9344    0.0000 C   0  0  0  0  0  0  0  0  0  0  0  0
   -4.7017   -1.6464    0.0000 C   0  0  0  0  0  0  0  0  0  0  0  0
   -4.3118    0.2422    0.0000 C   0  0  0  0  0  0  0  0  0  0  0  0
   -3.7581    1.6362    0.0000 C   0  0  0  0  0  0  0  0  0  0  0  0
   -2.2739    1.8537    0.0000 C   0  0  0  0  0  0  0  0  0  0  0  0
   -1.3435    0.6771    0.0000 C   0  0  0  0  0  0  0  0  0  0  0  0
   -0.7897    2.0711    0.0000 C   0  0  0  0  0  0  0  0  0  0  0  0
   -1.8973   -0.7170    0.0000 C   0  0  0  0  0  0  0  0  0  0  0  0
   -0.9669   -1.8936    0.0000 C   0  0  0  0  0  0  0  0  0  0  0  0
    0.5173   -1.6761    0.0000 C   0  0  0  0  0  0  0  0  0  0  0  0
    1.0710   -0.2821    0.0000 C   0  0  0  0  0  0  0  0  0  0  0  0
    2.3195   -1.1136    0.0000 C   0  0  0  0  0  0  0  0  0  0  0  0
    3.4961   -0.1832    0.0000 C   0  0  0  0  0  0  0  0  0  0  0  0
    4.9404   -0.5882    0.0000 C   0  0  0  0  0  0  0  0  0  0  0  0
    5.3118   -2.0415    0.0000 O   0  0  0  0  0  0  0  0  0  0  0  0
    3.1090    1.3294    0.0000 C   0  0  0  0  0  0  0  0  0  0  0  0
    2.1786    2.5060    0.0000 C   0  0  0  0  0  0  0  0  0  0  0  0
    0.6944    2.2886    0.0000 C   0  0  0  0  0  0  0  0  0  0  0  0
    0.1406    0.8945    0.0000 C   0  0  0  0  0  0  0  0  0  0  0  0
    2.5552   -0.0646    0.0000 C   0  0  0  0  0  0  0  0  0  0  0  0
  1  2  1  0
  2  3  1  0
  2  4  1  0
  4  5  1  0
  5  6  1  0
  6  7  1  0
  7  8  1  1
  7  9  1  0
  9 10  1  1
 10 11  1  0
 12 11  1  6
 12 13  1  0
 13 14  2  0
 14 15  1  0
 15 16  1  0
 14 17  1  0
 17 18  1  1
 18 19  1  0
 20 19  1  1
 17 21  1  0
  9  2  1  0
 20 12  1  0
 20  7  1  0
 21 12  1  0
M  END
>  <identifier>  (1113) 
CNP0211502.4

>  <canonical_smiles>  (1113) 
CC1(C)CCC[C@@]2(C)[C@H]1CC[C@]13C=C(CO)[C@H](CC[C@@H]12)C3

>  <standard_inchi>  (1113) 
InChI=1S/C20H32O/c1-18(2)8-4-9-19(3)16(18)7-10-20-11-14(5-6-17(19)20)15(12-20)13-21/h12,14,16-17,21H,4-11,13H2,1-3H3/t14-,16+,17-,19+,20+/m1/s1

>  <standard_inchi_key>  (1113) 
BYNLGAZDLCEGRX-XUMBOQAASA-N

>  <name>  (1113) 
nan

>  <iupac_name>  (1113) 
[(1~{S},4~{S},9~{S},10~{R},13~{R})-5,5,9-trimethyl-14-tetracyclo[11.2.1.0^{1,10}.0^{4,9}]hexadec-14-enyl]methanol

>  <annotation_level>  (1113) 
4

>  <total_atom_count>  (1113) 
53

>  <heavy_atom_count>  (1113) 
21

>  <molecular_weight>  (1113) 
288.48

>  <exact_molecular_weight>  (1113) 
288.24532

>  <molecular_formula>  (1113) 
C20H32O

>  <alogp>  (1113) 
4.95

>  <topological_polar_surface_area>  (1113) 
20.23

>  <rotatable_bond_count>  (1113) 
1

>  <hydrogen_bond_acceptors>  (1113) 
1

>  <hydrogen_bond_donors>  (1113) 
1

>  <hydrogen_bond_acceptors_lipinski>  (1113) 
1

>  <hydrogen_bond_donors_lipinski>  (1113) 
1

>  <lipinski_rule_of_five_violations>  (1113) 
0

>  <aromatic_rings_count>  (1113) 
0

>  <qed_drug_likeliness>  (1113) 
0.68

>  <formal_charge>  (1113) 
0

>  <fractioncsp3>  (1113) 
0.90

>  <number_of_minimal_rings>  (1113) 
4

>  <van_der_walls_volume>  (1113) 
nan

>  <contains_sugar>  (1113) 
False

>  <contains_ring_sugars>  (1113) 
False

>  <contains_linear_sugars>  (1113) 
False

>  <murcko_framework>  (1113) 
C1=CC23CCC4CCCCC4C3CCC1C2

>  <np_likeness>  (1113) 
3.07

>  <chemical_class>  (1113) 
Prenol lipids

>  <chemical_sub_class>  (1113) 
Diterpenoids

>  <chemical_super_class>  (1113) 
Lipids and lipid-like molecules

>  <direct_parent_classification>  (1113) 
Kaurane diterpenoids

>  <np_classifier_pathway>  (1113) 
Terpenoids

>  <np_classifier_superclass>  (1113) 
Diterpenoids

>  <np_classifier_class>  (1113) 
Kaurane and Phyllocladane diterpenoids

>  <np_classifier_is_glycoside>  (1113) 
False

>  <organisms>  (1113) 
Podocarpus lambereis

>  <collections>  (1113) 
Latin America dataset|NuBBEDB|Super Natural II

>  <dois>  (1113) 
10.1016/0031-9422(75)85047-3

>  <synonyms>  (1113) 
17-Isophyllocladenol

>  <cas>  (1113) 
nan

$$$$

     RDKit          2D

 26 27  0  0  0  0  0  0  0  0999 V2000
   -4.4235   -4.3714    0.0000 C   0  0  0  0  0  0  0  0  0  0  0  0
   -4.8705   -2.9396    0.0000 O   0  0  0  0  0  0  0  0  0  0  0  0
   -3.8540   -1.8365    0.0000 C   0  0  0  0  0  0  0  0  0  0  0  0
   -2.3905   -2.1654    0.0000 O   0  0  0  0  0  0  0  0  0  0  0  0
   -4.3010   -0.4047    0.0000 C   0  0  0  0  0  0  0  0  0  0  0  0
   -5.6335   -1.0935    0.0000 O   0  0  0  0  0  0  0  0  0  0  0  0
   -5.2108    0.7879    0.0000 C   0  0  0  0  0  0  0  0  0  0  0  0
   -4.6328    2.1721    0.0000 C   0  0  0  0  0  0  0  0  0  0  0  0
   -5.5426    3.3647    0.0000 O   0  0  0  0  0  0  0  0  0  0  0  0
   -3.1451    2.3637    0.0000 C   0  0  0  0  0  0  0  0  0  0  0  0
   -2.5671    3.7479    0.0000 O   0  0  0  0  0  0  0  0  0  0  0  0
   -2.2353    1.1711    0.0000 C   0  0  0  0  0  0  0  0  0  0  0  0
   -0.7476    1.3626    0.0000 O   0  0  0  0  0  0  0  0  0  0  0  0
    0.1621    0.1700    0.0000 C   0  0  0  0  0  0  0  0  0  0  0  0
   -0.4158   -1.2142    0.0000 O   0  0  0  0  0  0  0  0  0  0  0  0
    1.6499    0.3616    0.0000 C   0  0  0  0  0  0  0  0  0  0  0  0
    2.5596   -0.8311    0.0000 C   0  0  0  0  0  0  0  0  0  0  0  0
    4.0473   -0.6395    0.0000 C   0  0  0  0  0  0  0  0  0  0  0  0
    4.9571   -1.8321    0.0000 C   0  0  0  0  0  0  0  0  0  0  0  0
    6.4448   -1.6406    0.0000 C   0  0  0  0  0  0  0  0  0  0  0  0
    7.0228   -0.2564    0.0000 C   0  0  0  0  0  0  0  0  0  0  0  0
    8.5105   -0.0648    0.0000 O   0  0  0  0  0  0  0  0  0  0  0  0
    6.1130    0.9362    0.0000 C   0  0  0  0  0  0  0  0  0  0  0  0
    6.6910    2.3204    0.0000 O   0  0  0  0  0  0  0  0  0  0  0  0
    4.6253    0.7447    0.0000 C   0  0  0  0  0  0  0  0  0  0  0  0
   -2.8133   -0.2131    0.0000 C   0  0  0  0  0  0  0  0  0  0  0  0
  1  2  1  0
  2  3  1  0
  3  4  2  0
  3  5  1  0
  5  6  1  1
  5  7  1  0
  7  8  1  0
  8  9  1  1
  8 10  1  0
 10 11  1  1
 10 12  1  0
 12 13  1  6
 13 14  1  0
 14 15  2  0
 14 16  1  0
 16 17  2  3
 17 18  1  0
 18 19  2  0
 19 20  1  0
 20 21  2  0
 21 22  1  0
 21 23  1  0
 23 24  1  0
 23 25  2  0
 12 26  1  0
 26  5  1  0
 25 18  1  0
M  END
>  <identifier>  (1114) 
CNP0261619.4

>  <canonical_smiles>  (1114) 
COC(=O)[C@]1(O)C[C@@H](O)[C@@H](O)[C@H](OC(=O)C=CC2=CC=C(O)C(O)=C2)C1

>  <standard_inchi>  (1114) 
InChI=1S/C17H20O9/c1-25-16(23)17(24)7-12(20)15(22)13(8-17)26-14(21)5-3-9-2-4-10(18)11(19)6-9/h2-6,12-13,15,18-20,22,24H,7-8H2,1H3/t12-,13-,15-,17+/m1/s1

>  <standard_inchi_key>  (1114) 
MZNIJRAPCCELQX-SMKXDYDZSA-N

>  <name>  (1114) 
29708-87-0

>  <iupac_name>  (1114) 
methyl (1~{S},3~{R},4~{R},5~{R})-3-[3-(3,4-dihydroxyphenyl)prop-2-enoyloxy]-1,4,5-trihydroxy-cyclohexanecarboxylate

>  <annotation_level>  (1114) 
5

>  <total_atom_count>  (1114) 
46

>  <heavy_atom_count>  (1114) 
26

>  <molecular_weight>  (1114) 
368.34

>  <exact_molecular_weight>  (1114) 
368.11073

>  <molecular_formula>  (1114) 
C17H20O9

>  <alogp>  (1114) 
-0.56

>  <topological_polar_surface_area>  (1114) 
153.75

>  <rotatable_bond_count>  (1114) 
4

>  <hydrogen_bond_acceptors>  (1114) 
9

>  <hydrogen_bond_donors>  (1114) 
5

>  <hydrogen_bond_acceptors_lipinski>  (1114) 
9

>  <hydrogen_bond_donors_lipinski>  (1114) 
5

>  <lipinski_rule_of_five_violations>  (1114) 
0

>  <aromatic_rings_count>  (1114) 
1

>  <qed_drug_likeliness>  (1114) 
0.27

>  <formal_charge>  (1114) 
0

>  <fractioncsp3>  (1114) 
0.41

>  <number_of_minimal_rings>  (1114) 
2

>  <van_der_walls_volume>  (1114) 
314.74

>  <contains_sugar>  (1114) 
False

>  <contains_ring_sugars>  (1114) 
False

>  <contains_linear_sugars>  (1114) 
False

>  <murcko_framework>  (1114) 
O(CC=Cc1ccccc1)C2CCCCC2

>  <np_likeness>  (1114) 
2.13

>  <chemical_class>  (1114) 
Organooxygen compounds

>  <chemical_sub_class>  (1114) 
Alcohols and polyols

>  <chemical_super_class>  (1114) 
Organic oxygen compounds

>  <direct_parent_classification>  (1114) 
Quinic acids and derivatives

>  <np_classifier_pathway>  (1114) 
Shikimates and Phenylpropanoids

>  <np_classifier_superclass>  (1114) 
Phenylpropanoids (C6-C3)

>  <np_classifier_class>  (1114) 
Cinnamic acids and derivatives

>  <np_classifier_is_glycoside>  (1114) 
False

>  <organisms>  (1114) 
Acacia aulacocarpa|Adenia globosa|Aglaia grandis|Anaphalis araneosa|Anemone flaccida|Ardisia neriifolia|Artemisia kurramensis|Aspidosperma subincanum|Bhesa nitidissima|Calycanthus floridus|Catunaregam tomentosa|Chimarrhis turbinata|Chrysanthemum sinense|Cis punctifer|Colletotrichum gloeosporioides|Coprinopsis atramentaria|Croton tiglium|Cryptocarya aschersoniana|Daphne feddei|Digitalis viridiflora|Episcia cupreata|Eucommia Ulmoides|Eupatorium argentinum|Guatteria boliviana|Hydrocotyle sibthorpioides|Hypericum sikokumontanum|Ilyonectria destructans|Impatiens edgeworthii|Jasonia candicans|Juniperus brevifolia|Liriodendron tulipifera|Lonicera japonica|Manilkara Zapota|Neolentinus lepideus|Ostryopsis davidiana|Osyris abyssinica|Othonna sedifolia|Pajanelia multijuga|Panorpa japonica|Peritassa compta|Polymnia uvedalia|Psiadia dentata|Pterocarpus officinalis|Ranzania japonica|Rhabdonia verticillata|Rheedia acuminata|Rothmannia wittii|Saccharopolyspora spinosa|Solanum aculeatissimum|Spuriopimpinella brachycarpa|Spuriopimpinella calycina|Streptomyces setonensis|Symphyocladia latiuscula|Tetrapanax papyrifer|Thymus bashkiriensis|Tolypothrix tenuis|Vernonia lanuginosa|Zanthoxylum myriacanthum

>  <collections>  (1114) 
Australian natural products|CMAUP (cCollective molecular activities of useful plants)|Latin America dataset|NPASS|NuBBEDB|VietHerb|WikiData Natural Products

>  <dois>  (1114) 
10.1016/J.BMCL.2013.01.115|10.1021/np050522y|10.1021/np4005773

>  <synonyms>  (1114) 
Cis-chlorogenic acid|Methyl (1S,3R,4R,5R)-3-[3-(3,4-dihydroxyphenyl)prop-2-enoyloxy]-1,4,5-trihydroxycyclohexane-1-carboxylate

>  <cas>  (1114) 
nan

$$$$

     RDKit          2D

 26 28  0  0  0  0  0  0  0  0999 V2000
   -2.2071    4.0318    0.0000 C   0  0  0  0  0  0  0  0  0  0  0  0
   -3.1160    2.8385    0.0000 C   0  0  0  0  0  0  0  0  0  0  0  0
   -2.5370    1.4547    0.0000 C   0  0  0  0  0  0  0  0  0  0  0  0
   -4.0003    1.1248    0.0000 C   0  0  0  0  0  0  0  0  0  0  0  0
   -1.2748    2.2652    0.0000 C   0  0  0  0  0  0  0  0  0  0  0  0
    0.0582    1.5773    0.0000 C   0  0  0  0  0  0  0  0  0  0  0  0
    0.1290    0.0790    0.0000 C   0  0  0  0  0  0  0  0  0  0  0  0
   -1.1332   -0.7315    0.0000 C   0  0  0  0  0  0  0  0  0  0  0  0
   -1.0625   -2.2298    0.0000 O   0  0  0  0  0  0  0  0  0  0  0  0
   -2.4662   -0.0436    0.0000 C   0  0  0  0  0  0  0  0  0  0  0  0
   -3.7284   -0.8541    0.0000 O   0  0  0  0  0  0  0  0  0  0  0  0
   -3.6577   -2.3524    0.0000 C   0  0  0  0  0  0  0  0  0  0  0  0
   -4.9199   -3.1628    0.0000 C   0  0  0  0  0  0  0  0  0  0  0  0
   -2.3247   -3.0403    0.0000 O   0  0  0  0  0  0  0  0  0  0  0  0
    1.4619   -0.6089    0.0000 C   0  0  0  0  0  0  0  0  0  0  0  0
    0.1997   -1.4193    0.0000 C   0  0  0  0  0  0  0  0  0  0  0  0
    1.5327   -2.1072    0.0000 C   0  0  0  0  0  0  0  0  0  0  0  0
    2.8657   -2.7951    0.0000 C   0  0  0  0  0  0  0  0  0  0  0  0
    4.1279   -1.9846    0.0000 C   0  0  0  0  0  0  0  0  0  0  0  0
    4.0571   -0.4863    0.0000 C   0  0  0  0  0  0  0  0  0  0  0  0
    4.5031    0.9459    0.0000 C   0  0  0  0  0  0  0  0  0  0  0  0
    5.5450   -0.6768    0.0000 C   0  0  0  0  0  0  0  0  0  0  0  0
    2.7241    0.2016    0.0000 C   0  0  0  0  0  0  0  0  0  0  0  0
    2.6534    1.6999    0.0000 C   0  0  0  0  0  0  0  0  0  0  0  0
    1.3204    2.3878    0.0000 C   0  0  0  0  0  0  0  0  0  0  0  0
    1.2496    3.8861    0.0000 O   0  0  0  0  0  0  0  0  0  0  0  0
  1  2  2  0
  2  3  1  0
  3  4  1  1
  3  5  1  0
  5  6  1  0
  6  7  2  0
  7  8  1  0
  8  9  2  0
  8 10  1  0
 10 11  1  1
 11 12  1  0
 12 13  1  0
 12 14  2  0
  7 15  1  0
 15 16  1  1
 15 17  1  0
 17 18  1  0
 18 19  1  0
 19 20  1  0
 20 21  1  0
 20 22  1  0
 20 23  1  0
 23 24  1  1
 24 25  1  0
 25 26  2  0
 10  3  1  0
 23 15  1  0
 25  6  1  0
M  END
>  <identifier>  (1115) 
CNP0080605.1

>  <canonical_smiles>  (1115) 
C=C[C@]1(C)CC2=C(C(=O)[C@H]1OC(C)=O)[C@@]1(C)CCCC(C)(C)[C@@H]1CC2=O

>  <standard_inchi>  (1115) 
InChI=1S/C22H30O4/c1-7-21(5)12-14-15(24)11-16-20(3,4)9-8-10-22(16,6)17(14)18(25)19(21)26-13(2)23/h7,16,19H,1,8-12H2,2-6H3/t16-,19+,21+,22-/m0/s1

>  <standard_inchi_key>  (1115) 
XAYVLUVWBBOCRT-MQYXYMALSA-N

>  <name>  (1115) 
nan

>  <iupac_name>  (1115) 
[(2~{S},3~{S},4~{b}~{S},8~{a}~{S})-2,4~{b},8,8-tetramethyl-4,10-dioxo-2-vinyl-3,5,6,7,8~{a},9-hexahydro-1~{H}-phenanthren-3-yl] acetate

>  <annotation_level>  (1115) 
3

>  <total_atom_count>  (1115) 
56

>  <heavy_atom_count>  (1115) 
26

>  <molecular_weight>  (1115) 
358.48

>  <exact_molecular_weight>  (1115) 
358.21441

>  <molecular_formula>  (1115) 
C22H30O4

>  <alogp>  (1115) 
4.19

>  <topological_polar_surface_area>  (1115) 
60.44

>  <rotatable_bond_count>  (1115) 
2

>  <hydrogen_bond_acceptors>  (1115) 
4

>  <hydrogen_bond_donors>  (1115) 
0

>  <hydrogen_bond_acceptors_lipinski>  (1115) 
4

>  <hydrogen_bond_donors_lipinski>  (1115) 
0

>  <lipinski_rule_of_five_violations>  (1115) 
0

>  <aromatic_rings_count>  (1115) 
0

>  <qed_drug_likeliness>  (1115) 
0.55

>  <formal_charge>  (1115) 
0

>  <fractioncsp3>  (1115) 
0.68

>  <number_of_minimal_rings>  (1115) 
3

>  <van_der_walls_volume>  (1115) 
nan

>  <contains_sugar>  (1115) 
False

>  <contains_ring_sugars>  (1115) 
False

>  <contains_linear_sugars>  (1115) 
False

>  <murcko_framework>  (1115) 
C12=C(CCCC1)C3CCCCC3CC2

>  <np_likeness>  (1115) 
2.87

>  <chemical_class>  (1115) 
Prenol lipids

>  <chemical_sub_class>  (1115) 
Diterpenoids

>  <chemical_super_class>  (1115) 
Lipids and lipid-like molecules

>  <direct_parent_classification>  (1115) 
Diterpenoids

>  <np_classifier_pathway>  (1115) 
Terpenoids

>  <np_classifier_superclass>  (1115) 
Diterpenoids

>  <np_classifier_class>  (1115) 
Pimarane and Isopimarane diterpenoids

>  <np_classifier_is_glycoside>  (1115) 
False

>  <organisms>  (1115) 
Vellozia compacta

>  <collections>  (1115) 
Latin America dataset|NuBBEDB|WikiData Natural Products|ZINC NP

>  <dois>  (1115) 
10.1016/0031-9422(83)80034-X

>  <synonyms>  (1115) 
nan

>  <cas>  (1115) 
nan

$$$$

     RDKit          2D

  8  7  0  0  0  0  0  0  0  0999 V2000
   -4.5553   -0.2480    0.0000 C   0  0  0  0  0  0  0  0  0  0  0  0
   -3.2359    0.4655    0.0000 C   0  0  0  0  0  0  0  0  0  0  0  0
   -1.9583   -0.3205    0.0000 C   0  0  0  0  0  0  0  0  0  0  0  0
   -0.6388    0.3930    0.0000 S   0  0  0  0  0  0  0  0  0  0  0  0
    0.6388   -0.3930    0.0000 S   0  0  0  0  0  0  0  0  0  0  0  0
    1.9583    0.3205    0.0000 S   0  0  0  0  0  0  0  0  0  0  0  0
    3.2359   -0.4655    0.0000 S   0  0  0  0  0  0  0  0  0  0  0  0
    4.5553    0.2480    0.0000 C   0  0  0  0  0  0  0  0  0  0  0  0
  1  2  2  0
  2  3  1  0
  3  4  1  0
  4  5  1  0
  5  6  1  0
  6  7  1  0
  7  8  1  0
M  END
>  <identifier>  (1116) 
CNP0120884.0

>  <canonical_smiles>  (1116) 
C=CCSSSSC

>  <standard_inchi>  (1116) 
InChI=1S/C4H8S4/c1-3-4-6-8-7-5-2/h3H,1,4H2,2H3

>  <standard_inchi_key>  (1116) 
BHIKXWJMZCALEK-UHFFFAOYSA-N

>  <name>  (1116) 
allyl methyl tetrasulfide

>  <iupac_name>  (1116) 
3-(methyltetrasulfanyl)prop-1-ene

>  <annotation_level>  (1116) 
5

>  <total_atom_count>  (1116) 
16

>  <heavy_atom_count>  (1116) 
8

>  <molecular_weight>  (1116) 
184.38

>  <exact_molecular_weight>  (1116) 
183.95088

>  <molecular_formula>  (1116) 
C4H8S4

>  <alogp>  (1116) 
3.48

>  <topological_polar_surface_area>  (1116) 
0.00

>  <rotatable_bond_count>  (1116) 
5

>  <hydrogen_bond_acceptors>  (1116) 
4

>  <hydrogen_bond_donors>  (1116) 
0

>  <hydrogen_bond_acceptors_lipinski>  (1116) 
4

>  <hydrogen_bond_donors_lipinski>  (1116) 
0

>  <lipinski_rule_of_five_violations>  (1116) 
0

>  <aromatic_rings_count>  (1116) 
0

>  <qed_drug_likeliness>  (1116) 
0.36

>  <formal_charge>  (1116) 
0

>  <fractioncsp3>  (1116) 
0.50

>  <number_of_minimal_rings>  (1116) 
0

>  <van_der_walls_volume>  (1116) 
148.87

>  <contains_sugar>  (1116) 
False

>  <contains_ring_sugars>  (1116) 
False

>  <contains_linear_sugars>  (1116) 
False

>  <murcko_framework>  (1116) 
nan

>  <np_likeness>  (1116) 
2.36

>  <chemical_class>  (1116) 
Allyl sulfur compounds

>  <chemical_sub_class>  (1116) 
Allyl sulfur compounds

>  <chemical_super_class>  (1116) 
Organosulfur compounds

>  <direct_parent_classification>  (1116) 
Allyl sulfur compounds

>  <np_classifier_pathway>  (1116) 
nan

>  <np_classifier_superclass>  (1116) 
nan

>  <np_classifier_class>  (1116) 
nan

>  <np_classifier_is_glycoside>  (1116) 
False

>  <organisms>  (1116) 
Adenocalymma alliaceum|Allium chinense|Allium macrostemon|Allium sativum|Aniba megaphylla|Berberis integerrima|Elephantopus angustifolius|Herbertus sakuraii|Isoplexis sceptrum|Libocedrus decurrens|Loranthus parasiticus|Mansoa alliacea|Nauclea latifolia|Ovibos moschatus|Rhodospirillum rubrum

>  <collections>  (1116) 
CMAUP (cCollective molecular activities of useful plants)|FooDB|Latin America dataset|NPASS|NuBBEDB|Super Natural II|TCMDB-Taiwan (Traditional Chinese Medicine database)|TCMID (Traditional Chinese Medicine Integrated Database)|UNPD (Universal Natural Products Database)|WikiData Natural Products|ZINC NP

>  <dois>  (1116) 
10.1021/JF00125A014|10.1021/jf00125a014|10.1186/1756-3305-7-184

>  <synonyms>  (1116) 
1-methyl-4-(prop-2-en-1-yl)tetrasulfane|3-(methyltetrasulfanyl)prop-1-ene|90195-83-8|Allyl methyl tetrasulfide|CHEBI:184594|DTXSID10335471|Methyl 2-propenyl tetrasulfide|NS00120393|SCHEMBL2931131

>  <cas>  (1116) 
90195-83-8

$$$$

     RDKit          2D

 47 53  0  0  0  0  0  0  0  0999 V2000
   -9.3476   -1.9359    0.0000 C   0  0  0  0  0  0  0  0  0  0  0  0
   -8.4457   -0.7373    0.0000 N   0  0  0  0  0  0  0  0  0  0  0  0
   -9.0327    0.6430    0.0000 C   0  0  0  0  0  0  0  0  0  0  0  0
  -10.5216    0.8249    0.0000 C   0  0  0  0  0  0  0  0  0  0  0  0
  -11.1086    2.2053    0.0000 C   0  0  0  0  0  0  0  0  0  0  0  0
  -10.2067    3.4038    0.0000 C   0  0  0  0  0  0  0  0  0  0  0  0
   -8.7177    3.2220    0.0000 C   0  0  0  0  0  0  0  0  0  0  0  0
   -8.1307    1.8416    0.0000 C   0  0  0  0  0  0  0  0  0  0  0  0
   -6.6418    1.6598    0.0000 C   0  0  0  0  0  0  0  0  0  0  0  0
   -5.7399    2.8583    0.0000 O   0  0  0  0  0  0  0  0  0  0  0  0
   -6.0548    0.2794    0.0000 O   0  0  0  0  0  0  0  0  0  0  0  0
   -4.5659    0.0975    0.0000 C   0  0  0  0  0  0  0  0  0  0  0  0
   -3.6639    1.2961    0.0000 C   0  0  0  0  0  0  0  0  0  0  0  0
   -2.1750    1.1143    0.0000 C   0  0  0  0  0  0  0  0  0  0  0  0
   -1.5880   -0.2661    0.0000 C   0  0  0  0  0  0  0  0  0  0  0  0
   -0.6861    0.9324    0.0000 C   0  0  0  0  0  0  0  0  0  0  0  0
   -0.0991   -0.4480    0.0000 C   0  0  0  0  0  0  0  0  0  0  0  0
    0.8029    0.7506    0.0000 C   0  0  0  0  0  0  0  0  0  0  0  0
    2.2918    0.5688    0.0000 C   0  0  0  0  0  0  0  0  0  0  0  0
    2.8788   -0.8116    0.0000 C   0  0  0  0  0  0  0  0  0  0  0  0
    3.4658   -2.1920    0.0000 C   0  0  0  0  0  0  0  0  0  0  0  0
    1.9769   -2.0102    0.0000 C   0  0  0  0  0  0  0  0  0  0  0  0
    2.8380   -3.2383    0.0000 C   0  0  0  0  0  0  0  0  0  0  0  0
    4.2722   -2.7988    0.0000 C   0  0  0  0  0  0  0  0  0  0  0  0
    4.2974   -1.2990    0.0000 C   0  0  0  0  0  0  0  0  0  0  0  0
    5.5256   -0.4379    0.0000 C   0  0  0  0  0  0  0  0  0  0  0  0
    5.5508    1.0619    0.0000 C   0  0  0  0  0  0  0  0  0  0  0  0
    6.9850    1.5014    0.0000 C   0  0  0  0  0  0  0  0  0  0  0  0
    7.4724    2.9200    0.0000 C   0  0  0  0  0  0  0  0  0  0  0  0
    6.4876    4.0514    0.0000 O   0  0  0  0  0  0  0  0  0  0  0  0
    8.9446    3.2072    0.0000 C   0  0  0  0  0  0  0  0  0  0  0  0
    9.2318    1.7349    0.0000 C   0  0  0  0  0  0  0  0  0  0  0  0
    8.6575    4.6794    0.0000 C   0  0  0  0  0  0  0  0  0  0  0  0
   10.4169    3.4943    0.0000 O   0  0  0  0  0  0  0  0  0  0  0  0
    7.8461    0.2732    0.0000 O   0  0  0  0  0  0  0  0  0  0  0  0
    6.9442   -0.9253    0.0000 C   0  0  0  0  0  0  0  0  0  0  0  0
    7.3837   -2.3595    0.0000 O   0  0  0  0  0  0  0  0  0  0  0  0
    8.8454   -2.6959    0.0000 C   0  0  0  0  0  0  0  0  0  0  0  0
    0.4879   -1.8283    0.0000 C   0  0  0  0  0  0  0  0  0  0  0  0
    1.0749   -3.2087    0.0000 C   0  0  0  0  0  0  0  0  0  0  0  0
   -0.4140   -3.0269    0.0000 C   0  0  0  0  0  0  0  0  0  0  0  0
    0.1730   -4.4072    0.0000 O   0  0  0  0  0  0  0  0  0  0  0  0
   -1.9029   -2.8450    0.0000 C   0  0  0  0  0  0  0  0  0  0  0  0
   -2.4899   -1.4647    0.0000 C   0  0  0  0  0  0  0  0  0  0  0  0
   -3.9789   -1.2828    0.0000 C   0  0  0  0  0  0  0  0  0  0  0  0
   -5.4402   -1.6212    0.0000 C   0  0  0  0  0  0  0  0  0  0  0  0
   -3.8994   -2.7807    0.0000 C   0  0  0  0  0  0  0  0  0  0  0  0
  1  2  1  0
  2  3  1  0
  3  4  2  0
  4  5  1  0
  5  6  2  0
  6  7  1  0
  7  8  2  0
  8  9  1  0
  9 10  2  0
  9 11  1  0
 12 11  1  1
 12 13  1  0
 13 14  1  0
 14 15  1  0
 15 16  1  1
 15 17  1  0
 17 18  1  1
 18 19  1  0
 20 19  1  6
 20 21  1  0
 22 21  1  6
 22 23  1  0
 23 24  1  0
 25 24  1  6
 25 26  1  0
 26 27  1  6
 28 27  1  6
 28 29  1  0
 29 30  1  6
 29 31  1  0
 31 32  1  0
 31 33  1  0
 31 34  1  0
 28 35  1  0
 35 36  1  0
 36 37  1  6
 37 38  1  0
 22 39  1  0
 39 40  1  1
 39 41  1  0
 41 42  1  6
 41 43  1  0
 44 43  1  1
 44 45  1  0
 45 46  1  0
 45 47  1  0
  8  3  1  0
 45 12  1  0
 44 15  1  0
 39 17  1  0
 22 20  1  0
 36 26  1  0
 25 20  1  0
M  END
>  <identifier>  (1117) 
CNP0113714.1

>  <canonical_smiles>  (1117) 
CNC1=CC=CC=C1C(=O)O[C@H]1CC[C@]2(C)[C@H]3CC[C@]45C[C@]4(CC[C@H]5[C@@H]4C[C@H]([C@H](O)C(C)(C)O)O[C@@H]4OC)[C@]3(C)[C@H](O)C[C@H]2C1(C)C

>  <standard_inchi>  (1117) 
InChI=1S/C39H59NO7/c1-34(2)28-20-29(41)37(6)27(36(28,5)16-15-30(34)47-32(43)22-11-9-10-12-25(22)40-7)14-17-38-21-39(37,38)18-13-24(38)23-19-26(46-33(23)45-8)31(42)35(3,4)44/h9-12,23-24,26-31,33,40-42,44H,13-21H2,1-8H3/t23-,24-,26+,27+,28-,29+,30-,31-,33-,36+,37-,38+,39+/m0/s1

>  <standard_inchi_key>  (1117) 
YERUMUXLLQMXCB-BCIUBUCBSA-N

>  <name>  (1117) 
[(1S,2R,3R,5R,7S,10S,11R,14R,15S)-15-[(2S,3S,5R)-5-[(1S)-1,2-dihydroxy-2-methylpropyl]-2-methoxyoxolan-3-yl]-3-hydroxy-2,6,6,10-tetramethyl-7-pentacyclo[12.3.1.01,14.02,11.05,10]octadecanyl] 2-(methylamino)benzoate

>  <iupac_name>  (1117) 
[(1~{S},2~{R},3~{R},5~{R},7~{S},10~{S},11~{R},14~{R},15~{S})-15-[(2~{S},3~{S},5~{R})-5-[(1~{S})-1,2-dihydroxy-2-methyl-propyl]-2-methoxy-tetrahydrofuran-3-yl]-3-hydroxy-2,6,6,10-tetramethyl-7-pentacyclo[12.3.1.0^{1,14}.0^{2,11}.0^{5,10}]octadecanyl] 2-(methylamino)benzoate

>  <annotation_level>  (1117) 
5

>  <total_atom_count>  (1117) 
106

>  <heavy_atom_count>  (1117) 
47

>  <molecular_weight>  (1117) 
653.9

>  <exact_molecular_weight>  (1117) 
653.42915

>  <molecular_formula>  (1117) 
C39H59NO7

>  <alogp>  (1117) 
6.17

>  <topological_polar_surface_area>  (1117) 
117.48

>  <rotatable_bond_count>  (1117) 
7

>  <hydrogen_bond_acceptors>  (1117) 
8

>  <hydrogen_bond_donors>  (1117) 
4

>  <hydrogen_bond_acceptors_lipinski>  (1117) 
8

>  <hydrogen_bond_donors_lipinski>  (1117) 
4

>  <lipinski_rule_of_five_violations>  (1117) 
2

>  <aromatic_rings_count>  (1117) 
1

>  <qed_drug_likeliness>  (1117) 
0.26

>  <formal_charge>  (1117) 
0

>  <fractioncsp3>  (1117) 
0.82

>  <number_of_minimal_rings>  (1117) 
7

>  <van_der_walls_volume>  (1117) 
nan

>  <contains_sugar>  (1117) 
False

>  <contains_ring_sugars>  (1117) 
False

>  <contains_linear_sugars>  (1117) 
False

>  <murcko_framework>  (1117) 
O1CCC(C1)C2CCC34CC24CCC5C6CCC(OCc7ccccc7)CC6CCC53

>  <np_likeness>  (1117) 
2.73

>  <chemical_class>  (1117) 
Steroids and steroid derivatives

>  <chemical_sub_class>  (1117) 
Hydroxysteroids

>  <chemical_super_class>  (1117) 
Lipids and lipid-like molecules

>  <direct_parent_classification>  (1117) 
Hydroxysteroids

>  <np_classifier_pathway>  (1117) 
Terpenoids

>  <np_classifier_superclass>  (1117) 
Steroids

>  <np_classifier_class>  (1117) 
Apotirucallane triterpenoids

>  <np_classifier_is_glycoside>  (1117) 
True

>  <organisms>  (1117) 
Raulinoa echinata

>  <collections>  (1117) 
Latin America dataset|NuBBEDB|WikiData Natural Products|ZINC NP

>  <dois>  (1117) 
10.1021/NP0103970|10.1021/np0103970

>  <synonyms>  (1117) 
321-Di-epi-feroniellide B|CHEMBL505849

>  <cas>  (1117) 
nan

$$$$

     RDKit          2D

 27 29  0  0  0  0  0  0  0  0999 V2000
    4.8915   -3.9565    0.0000 C   0  0  0  0  0  0  0  0  0  0  0  0
    4.8110   -2.4587    0.0000 C   0  0  0  0  0  0  0  0  0  0  0  0
    3.4736   -1.7795    0.0000 C   0  0  0  0  0  0  0  0  0  0  0  0
    3.3930   -0.2817    0.0000 C   0  0  0  0  0  0  0  0  0  0  0  0
    4.7941   -0.8173    0.0000 C   0  0  0  0  0  0  0  0  0  0  0  0
    5.9586    0.1282    0.0000 C   0  0  0  0  0  0  0  0  0  0  0  0
    5.7219    1.6094    0.0000 C   0  0  0  0  0  0  0  0  0  0  0  0
    4.3208    2.1451    0.0000 C   0  0  0  0  0  0  0  0  0  0  0  0
    4.0841    3.6263    0.0000 O   0  0  0  0  0  0  0  0  0  0  0  0
    3.1564    1.1995    0.0000 C   0  0  0  0  0  0  0  0  0  0  0  0
    2.7662    2.6479    0.0000 O   0  0  0  0  0  0  0  0  0  0  0  0
    1.6745    1.4322    0.0000 O   0  0  0  0  0  0  0  0  0  0  0  0
    0.9953    0.0947    0.0000 C   0  0  0  0  0  0  0  0  0  0  0  0
   -0.4859   -0.1419    0.0000 O   0  0  0  0  0  0  0  0  0  0  0  0
   -1.4314    1.0225    0.0000 C   0  0  0  0  0  0  0  0  0  0  0  0
   -2.9126    0.7858    0.0000 C   0  0  0  0  0  0  0  0  0  0  0  0
   -3.8582    1.9503    0.0000 C   0  0  0  0  0  0  0  0  0  0  0  0
   -5.3394    1.7136    0.0000 C   0  0  0  0  0  0  0  0  0  0  0  0
   -5.8751    0.3125    0.0000 C   0  0  0  0  0  0  0  0  0  0  0  0
   -7.3563    0.0758    0.0000 O   0  0  0  0  0  0  0  0  0  0  0  0
   -8.3018    1.2403    0.0000 C   0  0  0  0  0  0  0  0  0  0  0  0
   -4.9295   -0.8519    0.0000 C   0  0  0  0  0  0  0  0  0  0  0  0
   -5.4652   -2.2530    0.0000 O   0  0  0  0  0  0  0  0  0  0  0  0
   -4.5196   -3.4175    0.0000 C   0  0  0  0  0  0  0  0  0  0  0  0
   -3.4483   -0.6153    0.0000 C   0  0  0  0  0  0  0  0  0  0  0  0
    2.0574   -0.9645    0.0000 C   0  0  0  0  0  0  0  0  0  0  0  0
    1.8248   -2.4463    0.0000 C   0  0  0  0  0  0  0  0  0  0  0  0
  1  2  2  0
  2  3  1  0
  4  3  1  1
  4  5  1  0
  5  6  1  0
  6  7  2  0
  7  8  1  0
  8  9  2  0
  8 10  1  0
 10 11  1  1
 10 12  1  0
 12 13  1  0
 13 14  1  6
 14 15  1  0
 15 16  1  0
 16 17  2  0
 17 18  1  0
 18 19  2  0
 19 20  1  0
 20 21  1  0
 19 22  1  0
 22 23  1  0
 23 24  1  0
 22 25  2  0
 13 26  1  0
 26 27  1  6
 10  4  1  0
 25 16  1  0
 26  4  1  0
M  END
>  <identifier>  (1118) 
CNP0080482.1

>  <canonical_smiles>  (1118) 
C=CC[C@]12CC=CC(=O)[C@@]1(O)O[C@@H](OCC1=CC=C(OC)C(OC)=C1)[C@H]2C

>  <standard_inchi>  (1118) 
InChI=1S/C21H26O6/c1-5-10-20-11-6-7-18(22)21(20,23)27-19(14(20)2)26-13-15-8-9-16(24-3)17(12-15)25-4/h5-9,12,14,19,23H,1,10-11,13H2,2-4H3/t14-,19-,20-,21-/m1/s1

>  <standard_inchi_key>  (1118) 
IKWFDJISWLAXKD-AVQSHMDHSA-N

>  <name>  (1118) 
nan

>  <iupac_name>  (1118) 
(2~{R},3~{S},3~{a}~{R},7~{a}~{S})-3~{a}-allyl-2-[(3,4-dimethoxyphenyl)methoxy]-7~{a}-hydroxy-3-methyl-3,4-dihydro-2~{H}-benzofuran-7-one

>  <annotation_level>  (1118) 
4

>  <total_atom_count>  (1118) 
53

>  <heavy_atom_count>  (1118) 
27

>  <molecular_weight>  (1118) 
374.43

>  <exact_molecular_weight>  (1118) 
374.17294

>  <molecular_formula>  (1118) 
C21H26O6

>  <alogp>  (1118) 
2.99

>  <topological_polar_surface_area>  (1118) 
74.22

>  <rotatable_bond_count>  (1118) 
7

>  <hydrogen_bond_acceptors>  (1118) 
6

>  <hydrogen_bond_donors>  (1118) 
1

>  <hydrogen_bond_acceptors_lipinski>  (1118) 
6

>  <hydrogen_bond_donors_lipinski>  (1118) 
1

>  <lipinski_rule_of_five_violations>  (1118) 
0

>  <aromatic_rings_count>  (1118) 
1

>  <qed_drug_likeliness>  (1118) 
0.74

>  <formal_charge>  (1118) 
0

>  <fractioncsp3>  (1118) 
0.48

>  <number_of_minimal_rings>  (1118) 
3

>  <van_der_walls_volume>  (1118) 
nan

>  <contains_sugar>  (1118) 
False

>  <contains_ring_sugars>  (1118) 
False

>  <contains_linear_sugars>  (1118) 
False

>  <murcko_framework>  (1118) 
O(Cc1ccccc1)C2OC3CC=CCC3C2

>  <np_likeness>  (1118) 
1.45

>  <chemical_class>  (1118) 
Benzene and substituted derivatives

>  <chemical_sub_class>  (1118) 
Methoxybenzenes

>  <chemical_super_class>  (1118) 
Benzenoids

>  <direct_parent_classification>  (1118) 
Dimethoxybenzenes

>  <np_classifier_pathway>  (1118) 
nan

>  <np_classifier_superclass>  (1118) 
nan

>  <np_classifier_class>  (1118) 
nan

>  <np_classifier_is_glycoside>  (1118) 
True

>  <organisms>  (1118) 
Ocotea catharinensis

>  <collections>  (1118) 
Latin America dataset|NuBBEDB|WikiData Natural Products|ZINC NP

>  <dois>  (1118) 
10.1016/0031-9422(91)83479-5

>  <synonyms>  (1118) 
rel-(7R8S1'R2'S)-D4'8'-2'-Hydroxy-34-methylenedioxy-3'-oxo-8.1'7.O2'-neolignan

>  <cas>  (1118) 
nan

$$$$

     RDKit          2D

 26 29  0  0  0  0  0  0  0  0999 V2000
   -4.8150    3.5770    0.0000 C   0  0  0  0  0  0  0  0  0  0  0  0
   -5.2150    2.1313    0.0000 O   0  0  0  0  0  0  0  0  0  0  0  0
   -4.1630    1.0620    0.0000 C   0  0  0  0  0  0  0  0  0  0  0  0
   -4.5630   -0.3836    0.0000 C   0  0  0  0  0  0  0  0  0  0  0  0
   -3.5110   -1.4529    0.0000 C   0  0  0  0  0  0  0  0  0  0  0  0
   -3.9110   -2.8986    0.0000 O   0  0  0  0  0  0  0  0  0  0  0  0
   -5.3630   -3.2750    0.0000 C   0  0  0  0  0  0  0  0  0  0  0  0
   -2.0590   -1.0765    0.0000 C   0  0  0  0  0  0  0  0  0  0  0  0
   -1.0070   -2.1457    0.0000 C   0  0  0  0  0  0  0  0  0  0  0  0
   -1.4070   -3.5914    0.0000 O   0  0  0  0  0  0  0  0  0  0  0  0
    0.4450   -1.7693    0.0000 C   0  0  0  0  0  0  0  0  0  0  0  0
    0.8450   -0.3236    0.0000 C   0  0  0  0  0  0  0  0  0  0  0  0
    2.2970    0.0529    0.0000 C   0  0  0  0  0  0  0  0  0  0  0  0
    2.6970    1.4985    0.0000 C   0  0  0  0  0  0  0  0  0  0  0  0
    4.1490    1.8750    0.0000 C   0  0  0  0  0  0  0  0  0  0  0  0
    5.2010    0.8057    0.0000 C   0  0  0  0  0  0  0  0  0  0  0  0
    6.6995    0.8721    0.0000 O   0  0  0  0  0  0  0  0  0  0  0  0
    7.2257   -0.5326    0.0000 C   0  0  0  0  0  0  0  0  0  0  0  0
    6.0523   -1.4671    0.0000 O   0  0  0  0  0  0  0  0  0  0  0  0
    4.8010   -0.6400    0.0000 C   0  0  0  0  0  0  0  0  0  0  0  0
    3.3490   -1.0164    0.0000 C   0  0  0  0  0  0  0  0  0  0  0  0
   -0.2070    0.7457    0.0000 O   0  0  0  0  0  0  0  0  0  0  0  0
   -1.6590    0.3692    0.0000 C   0  0  0  0  0  0  0  0  0  0  0  0
   -2.7110    1.4385    0.0000 C   0  0  0  0  0  0  0  0  0  0  0  0
   -2.3110    2.8842    0.0000 O   0  0  0  0  0  0  0  0  0  0  0  0
   -0.8590    3.2606    0.0000 C   0  0  0  0  0  0  0  0  0  0  0  0
  1  2  1  0
  2  3  1  0
  3  4  2  0
  4  5  1  0
  5  6  1  0
  6  7  1  0
  5  8  2  0
  8  9  1  0
  9 10  2  0
  9 11  1  0
 11 12  2  0
 12 13  1  0
 13 14  2  0
 14 15  1  0
 15 16  2  0
 16 17  1  0
 17 18  1  0
 18 19  1  0
 19 20  1  0
 20 21  2  0
 12 22  1  0
 22 23  1  0
 23 24  2  0
 24 25  1  0
 25 26  1  0
 24  3  1  0
 23  8  1  0
 21 13  1  0
 20 16  1  0
M  END
>  <identifier>  (1119) 
CNP0080580.0

>  <canonical_smiles>  (1119) 
COC1=CC(OC)=C2C(=O)C=C(C3=CC=C4OCOC4=C3)OC2=C1OC

>  <standard_inchi>  (1119) 
InChI=1S/C19H16O7/c1-21-15-8-16(22-2)18(23-3)19-17(15)11(20)7-13(26-19)10-4-5-12-14(6-10)25-9-24-12/h4-8H,9H2,1-3H3

>  <standard_inchi_key>  (1119) 
GDJHJQDNVRPLKB-UHFFFAOYSA-N

>  <name>  (1119) 
nan

>  <iupac_name>  (1119) 
2-(1,3-benzodioxol-5-yl)-5,7,8-trimethoxy-chromen-4-one

>  <annotation_level>  (1119) 
4

>  <total_atom_count>  (1119) 
42

>  <heavy_atom_count>  (1119) 
26

>  <molecular_weight>  (1119) 
356.33

>  <exact_molecular_weight>  (1119) 
356.0896

>  <molecular_formula>  (1119) 
C19H16O7

>  <alogp>  (1119) 
3.21

>  <topological_polar_surface_area>  (1119) 
76.36

>  <rotatable_bond_count>  (1119) 
4

>  <hydrogen_bond_acceptors>  (1119) 
7

>  <hydrogen_bond_donors>  (1119) 
0

>  <hydrogen_bond_acceptors_lipinski>  (1119) 
7

>  <hydrogen_bond_donors_lipinski>  (1119) 
0

>  <lipinski_rule_of_five_violations>  (1119) 
0

>  <aromatic_rings_count>  (1119) 
3

>  <qed_drug_likeliness>  (1119) 
0.71

>  <formal_charge>  (1119) 
0

>  <fractioncsp3>  (1119) 
0.21

>  <number_of_minimal_rings>  (1119) 
4

>  <van_der_walls_volume>  (1119) 
nan

>  <contains_sugar>  (1119) 
False

>  <contains_ring_sugars>  (1119) 
False

>  <contains_linear_sugars>  (1119) 
False

>  <murcko_framework>  (1119) 
O1c2ccccc2CC=C1c3ccc4OCOc4c3

>  <np_likeness>  (1119) 
0.89

>  <chemical_class>  (1119) 
Flavonoids

>  <chemical_sub_class>  (1119) 
O-methylated flavonoids

>  <chemical_super_class>  (1119) 
Phenylpropanoids and polyketides

>  <direct_parent_classification>  (1119) 
5-O-methylated flavonoids

>  <np_classifier_pathway>  (1119) 
Shikimates and Phenylpropanoids

>  <np_classifier_superclass>  (1119) 
Flavonoids

>  <np_classifier_class>  (1119) 
Flavones

>  <np_classifier_is_glycoside>  (1119) 
False

>  <organisms>  (1119) 
Neoraputia alba

>  <collections>  (1119) 
Latin America dataset|NuBBEDB|WikiData Natural Products|ZINC NP

>  <dois>  (1119) 
10.5935/0103-5053.19930018

>  <synonyms>  (1119) 
3'4'-methylenedioxy-578-trimethoxyflavone

>  <cas>  (1119) 
nan

$$$$

     RDKit          2D

 40 45  0  0  0  0  0  0  0  0999 V2000
    0.0565    6.7219    0.0000 C   0  0  0  0  0  0  0  0  0  0  0  0
   -1.2042    5.9092    0.0000 O   0  0  0  0  0  0  0  0  0  0  0  0
   -1.1308    4.4110    0.0000 C   0  0  0  0  0  0  0  0  0  0  0  0
    0.2034    3.7255    0.0000 O   0  0  0  0  0  0  0  0  0  0  0  0
   -2.3916    3.5983    0.0000 C   0  0  0  0  0  0  0  0  0  0  0  0
   -2.3182    2.1001    0.0000 C   0  0  0  0  0  0  0  0  0  0  0  0
   -3.5790    1.2874    0.0000 C   0  0  0  0  0  0  0  0  0  0  0  0
   -4.1604    2.6702    0.0000 C   0  0  0  0  0  0  0  0  0  0  0  0
   -5.0417    0.9550    0.0000 C   0  0  0  0  0  0  0  0  0  0  0  0
   -3.5056   -0.2108    0.0000 C   0  0  0  0  0  0  0  0  0  0  0  0
   -4.7663   -1.0235    0.0000 O   0  0  0  0  0  0  0  0  0  0  0  0
   -4.6929   -2.5217    0.0000 C   0  0  0  0  0  0  0  0  0  0  0  0
   -3.3587   -3.2072    0.0000 O   0  0  0  0  0  0  0  0  0  0  0  0
   -5.9537   -3.3343    0.0000 C   0  0  0  0  0  0  0  0  0  0  0  0
   -5.8803   -4.8326    0.0000 C   0  0  0  0  0  0  0  0  0  0  0  0
   -7.2879   -2.6488    0.0000 C   0  0  0  0  0  0  0  0  0  0  0  0
   -2.1714   -0.8963    0.0000 C   0  0  0  0  0  0  0  0  0  0  0  0
   -2.2448    0.6019    0.0000 C   0  0  0  0  0  0  0  0  0  0  0  0
   -3.0209    0.7838    0.0000 O   0  0  0  0  0  0  0  0  0  0  0  0
   -0.9840    1.4146    0.0000 C   0  0  0  0  0  0  0  0  0  0  0  0
   -1.0574    2.9128    0.0000 C   0  0  0  0  0  0  0  0  0  0  0  0
    0.3502    0.7290    0.0000 C   0  0  0  0  0  0  0  0  0  0  0  0
    1.6110    1.5417    0.0000 C   0  0  0  0  0  0  0  0  0  0  0  0
    2.9451    0.8562    0.0000 C   0  0  0  0  0  0  0  0  0  0  0  0
    3.0186   -0.6420    0.0000 C   0  0  0  0  0  0  0  0  0  0  0  0
    4.2793    0.1707    0.0000 C   0  0  0  0  0  0  0  0  0  0  0  0
    1.7578   -1.4547    0.0000 C   0  0  0  0  0  0  0  0  0  0  0  0
    1.8312   -2.9529    0.0000 C   0  0  0  0  0  0  0  0  0  0  0  0
    3.1654   -3.6384    0.0000 C   0  0  0  0  0  0  0  0  0  0  0  0
    3.2388   -5.1366    0.0000 O   0  0  0  0  0  0  0  0  0  0  0  0
    4.4262   -2.8257    0.0000 O   0  0  0  0  0  0  0  0  0  0  0  0
    4.3528   -1.3275    0.0000 C   0  0  0  0  0  0  0  0  0  0  0  0
    5.6135   -0.5148    0.0000 C   0  0  0  0  0  0  0  0  0  0  0  0
    5.6971    0.9828    0.0000 C   0  0  0  0  0  0  0  0  0  0  0  0
    7.1473    1.3661    0.0000 O   0  0  0  0  0  0  0  0  0  0  0  0
    7.9600    0.1053    0.0000 C   0  0  0  0  0  0  0  0  0  0  0  0
    7.0121   -1.0572    0.0000 C   0  0  0  0  0  0  0  0  0  0  0  0
    0.4236   -0.7692    0.0000 C   0  0  0  0  0  0  0  0  0  0  0  0
    0.4970   -2.2674    0.0000 O   0  0  0  0  0  0  0  0  0  0  0  0
   -0.8372   -1.5818    0.0000 C   0  0  0  0  0  0  0  0  0  0  0  0
  1  2  1  0
  2  3  1  0
  3  4  2  0
  3  5  1  0
  6  5  1  6
  6  7  1  0
  7  8  1  0
  7  9  1  0
  7 10  1  0
 10 11  1  1
 11 12  1  0
 12 13  2  0
 12 14  1  0
 14 15  1  0
 14 16  1  0
 10 17  1  0
 17 18  1  0
 18 19  2  0
 18 20  1  0
 20 21  1  6
 20 22  1  0
 22 23  1  1
 23 24  1  0
 24 25  1  0
 25 26  1  6
 25 27  1  0
 27 28  1  1
 28 29  1  0
 29 30  2  0
 29 31  1  0
 31 32  1  0
 32 33  1  6
 33 34  2  0
 34 35  1  0
 35 36  1  0
 36 37  2  0
 27 38  1  0
 38 39  1  6
 40 39  1  6
 20  6  1  0
 38 22  1  0
 40 17  1  0
 32 25  1  0
 37 33  1  0
 40 38  1  0
M  END
>  <identifier>  (1120) 
CNP0281942.1

>  <canonical_smiles>  (1120) 
COC(=O)C[C@H]1C(C)(C)[C@H](OC(=O)C(C)C)C2C(=O)[C@]1(C)[C@H]1CC[C@]3(C)[C@@H](CC(=O)O[C@H]3C3=COC=C3)[C@]13O[C@H]23

>  <standard_inchi>  (1120) 
InChI=1S/C31H40O9/c1-15(2)27(35)39-25-22-23(34)30(6,18(28(25,3)4)12-20(32)36-7)17-8-10-29(5)19(31(17)26(22)40-31)13-21(33)38-24(29)16-9-11-37-14-16/h9,11,14-15,17-19,22,24-26H,8,10,12-13H2,1-7H3/t17-,18+,19-,22?,24+,25-,26-,29-,30-,31-/m1/s1

>  <standard_inchi_key>  (1120) 
NRXNVWXPDDCBRT-APHYROKNSA-N

>  <name>  (1120) 
nan

>  <iupac_name>  (1120) 
[(2~{R},4~{S},5~{R},9~{R},10~{R},13~{R},14~{S},15~{S},17~{R})-9-(3-furyl)-15-(2-methoxy-2-oxo-ethyl)-10,14,16,16-tetramethyl-7,18-dioxo-3,8-dioxapentacyclo[12.3.1.0^{2,4}.0^{4,13}.0^{5,10}]octadecan-17-yl] 2-methylpropanoate

>  <annotation_level>  (1120) 
4

>  <total_atom_count>  (1120) 
80

>  <heavy_atom_count>  (1120) 
40

>  <molecular_weight>  (1120) 
556.65

>  <exact_molecular_weight>  (1120) 
556.26723

>  <molecular_formula>  (1120) 
C31H40O9

>  <alogp>  (1120) 
4.43

>  <topological_polar_surface_area>  (1120) 
121.64

>  <rotatable_bond_count>  (1120) 
5

>  <hydrogen_bond_acceptors>  (1120) 
9

>  <hydrogen_bond_donors>  (1120) 
0

>  <hydrogen_bond_acceptors_lipinski>  (1120) 
9

>  <hydrogen_bond_donors_lipinski>  (1120) 
0

>  <lipinski_rule_of_five_violations>  (1120) 
1

>  <aromatic_rings_count>  (1120) 
1

>  <qed_drug_likeliness>  (1120) 
0.29

>  <formal_charge>  (1120) 
0

>  <fractioncsp3>  (1120) 
0.74

>  <number_of_minimal_rings>  (1120) 
6

>  <van_der_walls_volume>  (1120) 
nan

>  <contains_sugar>  (1120) 
False

>  <contains_ring_sugars>  (1120) 
False

>  <contains_linear_sugars>  (1120) 
False

>  <murcko_framework>  (1120) 
o1ccc(c1)C2OCCC3C2CCC4C5CCCC(C5)C6OC643

>  <np_likeness>  (1120) 
2.89

>  <chemical_class>  (1120) 
Prenol lipids

>  <chemical_sub_class>  (1120) 
Triterpenoids

>  <chemical_super_class>  (1120) 
Lipids and lipid-like molecules

>  <direct_parent_classification>  (1120) 
Limonoids

>  <np_classifier_pathway>  (1120) 
Terpenoids

>  <np_classifier_superclass>  (1120) 
Triterpenoids

>  <np_classifier_class>  (1120) 
Limonoids

>  <np_classifier_is_glycoside>  (1120) 
False

>  <organisms>  (1120) 
Cipadessa baccifera|Cipadessa fruticosa

>  <collections>  (1120) 
Latin America dataset|NuBBEDB|WikiData Natural Products

>  <dois>  (1120) 
10.1515/ZNC-2009-5-623|10.1515/znc-2009-5-623

>  <synonyms>  (1120) 
ruageanin A

>  <cas>  (1120) 
nan

$$$$

     RDKit          2D

 20 22  0  0  0  0  0  0  0  0999 V2000
    1.7994   -3.1938    0.0000 O   0  0  0  0  0  0  0  0  0  0  0  0
    1.2309   -1.8057    0.0000 C   0  0  0  0  0  0  0  0  0  0  0  0
   -0.2555   -1.6040    0.0000 C   0  0  0  0  0  0  0  0  0  0  0  0
   -0.8240   -0.2159    0.0000 C   0  0  0  0  0  0  0  0  0  0  0  0
   -2.3104   -0.0142    0.0000 C   0  0  0  0  0  0  0  0  0  0  0  0
   -2.8789    1.3738    0.0000 C   0  0  0  0  0  0  0  0  0  0  0  0
   -4.3653    1.5755    0.0000 C   0  0  0  0  0  0  0  0  0  0  0  0
   -5.2832    0.3891    0.0000 C   0  0  0  0  0  0  0  0  0  0  0  0
   -6.7695    0.5908    0.0000 O   0  0  0  0  0  0  0  0  0  0  0  0
   -4.7146   -0.9989    0.0000 C   0  0  0  0  0  0  0  0  0  0  0  0
   -3.2282   -1.2006    0.0000 C   0  0  0  0  0  0  0  0  0  0  0  0
    0.0938    0.9705    0.0000 O   0  0  0  0  0  0  0  0  0  0  0  0
    1.5802    0.7688    0.0000 C   0  0  0  0  0  0  0  0  0  0  0  0
    2.4981    1.9552    0.0000 C   0  0  0  0  0  0  0  0  0  0  0  0
    3.9845    1.7535    0.0000 C   0  0  0  0  0  0  0  0  0  0  0  0
    4.9023    2.9399    0.0000 O   0  0  0  0  0  0  0  0  0  0  0  0
    4.5530    0.3654    0.0000 C   0  0  0  0  0  0  0  0  0  0  0  0
    3.6351   -0.8210    0.0000 C   0  0  0  0  0  0  0  0  0  0  0  0
    4.2036   -2.2091    0.0000 O   0  0  0  0  0  0  0  0  0  0  0  0
    2.1487   -0.6193    0.0000 C   0  0  0  0  0  0  0  0  0  0  0  0
  1  2  2  0
  2  3  1  0
  3  4  2  0
  4  5  1  0
  5  6  2  0
  6  7  1  0
  7  8  2  0
  8  9  1  0
  8 10  1  0
 10 11  2  0
  4 12  1  0
 12 13  1  0
 13 14  2  0
 14 15  1  0
 15 16  1  0
 15 17  2  0
 17 18  1  0
 18 19  1  0
 18 20  2  0
 20  2  1  0
 11  5  1  0
 20 13  1  0
M  END
>  <identifier>  (1121) 
CNP0251015.0

>  <canonical_smiles>  (1121) 
O=C1C=C(C2=CC=C(O)C=C2)OC2=CC(O)=CC(O)=C12

>  <standard_inchi>  (1121) 
InChI=1S/C15H10O5/c16-9-3-1-8(2-4-9)13-7-12(19)15-11(18)5-10(17)6-14(15)20-13/h1-7,16-18H

>  <standard_inchi_key>  (1121) 
KZNIFHPLKGYRTM-UHFFFAOYSA-N

>  <name>  (1121) 
apigenin

>  <iupac_name>  (1121) 
5,7-dihydroxy-2-(4-hydroxyphenyl)chromen-4-one

>  <annotation_level>  (1121) 
5

>  <total_atom_count>  (1121) 
30

>  <heavy_atom_count>  (1121) 
20

>  <molecular_weight>  (1121) 
270.24

>  <exact_molecular_weight>  (1121) 
270.05282

>  <molecular_formula>  (1121) 
C15H10O5

>  <alogp>  (1121) 
2.58

>  <topological_polar_surface_area>  (1121) 
90.90

>  <rotatable_bond_count>  (1121) 
1

>  <hydrogen_bond_acceptors>  (1121) 
5

>  <hydrogen_bond_donors>  (1121) 
3

>  <hydrogen_bond_acceptors_lipinski>  (1121) 
5

>  <hydrogen_bond_donors_lipinski>  (1121) 
3

>  <lipinski_rule_of_five_violations>  (1121) 
0

>  <aromatic_rings_count>  (1121) 
3

>  <qed_drug_likeliness>  (1121) 
0.63

>  <formal_charge>  (1121) 
0

>  <fractioncsp3>  (1121) 
0.00

>  <number_of_minimal_rings>  (1121) 
3

>  <van_der_walls_volume>  (1121) 
222.35

>  <contains_sugar>  (1121) 
False

>  <contains_ring_sugars>  (1121) 
False

>  <contains_linear_sugars>  (1121) 
False

>  <murcko_framework>  (1121) 
O1c2ccccc2CC=C1c3ccccc3

>  <np_likeness>  (1121) 
1.36

>  <chemical_class>  (1121) 
Flavonoids

>  <chemical_sub_class>  (1121) 
Hydroxyflavonoids

>  <chemical_super_class>  (1121) 
Phenylpropanoids and polyketides

>  <direct_parent_classification>  (1121) 
5-hydroxyflavonoids

>  <np_classifier_pathway>  (1121) 
Shikimates and Phenylpropanoids

>  <np_classifier_superclass>  (1121) 
Flavonoids

>  <np_classifier_class>  (1121) 
Flavones

>  <np_classifier_is_glycoside>  (1121) 
False

>  <organisms>  (1121) 
A new engineered strain of Escherichia coli [MetJ]|Aaptos ciliata|Abelia chinensis|Abies excelsa|Abies pindrow|Abies pinsapo var. marocana|Abies spectabilis|Abies veitchii|Acacia aroma|Acanthus Ilicifolius|Acanthus ilicifolius|Acer carpinifolium|Acer oblongum|Acer pycnanthum|Acer triflorum|Achillea Millefolium|Achillea atrata|Achillea atrata L.ssp.multifida|Achillea atrata subsp. multifida|Achillea biebersteinii|Achillea clavennae|Achillea fragrantissima|Achillea ligustica|Achillea millefolium|Achillea millefolium var. millefolium|Achillea nana|Achillea pannonica|Achillea sp.|Achillea umbellata|Achlya heterosexualis|Achlys triphylla|Achyrocline alata|Achyrocline sp.|Acia oblonga|Aconitum kirinense|Aconitum leucostomum|Aconitum napellus|Aconitum seravschanicum|Aconitum tasiromontanum|Acrisione denticulata|Acrocarpia paniculata|Actinidia chinensis|Actinoplanes awajinensis|Actinopyga echinites|Adansonia grandidieri|Adenia globosa|Adenia volkensii|Adina sessilifolia|Aechmea glomerata|Aeginetia indica|Aegiphila obducta|African blue basil|Agarum cribrosum|Agastache rugosa|Agave salmiana|Aglaia cucullata|Aglaia elliptica|Aglaia formosana|Aglaia foveolata|Aglaia grandis|Agrimonia pilosa|Agrimonia sp.|Aguacate|Ailanthus altissima|Ailanthus sp.|Ainsliaea macrocephala|Ajuga decumbens|Alangium longiflorum|Alangium ridleyi|Albizia julibrissin|Allium cepa|Allium fistulosum|Allium myrianthum|Allium rotundum|Allium schoenoprasum|Aloe africana|Aloe ferox|Aloe nobilis|Aloe spicata|Aloe vera|Aloysia citrodora|Alpinia officinarum|Alternaria kikuchiana|Alternaria macrospora|Alyssum lenense|Amaranthus cruentus|Amberboa ramosa|Ambrosia artemisiifolia|Ambrosia artemisioides|Ambrosia maritima|Ambrosia salsola|Ammopiptanthus mongolicus|Ampelocera edentula|Amyris texana|Anadenanthera colubrina|Anaphalis araneosa|Anaphalis contorta|Anaphalis lactea|Anaphalis margaritacea|Anarrhinum|Anarsia lineatella|Andrographis paniculata|Andropogon jwarancusa|Anethum graveolens|Angelica acutiloba|Angelica lucida|Angylocalyx braunii|Anisomeles Indica|Anisomeles indica|Anodendron affine|Antennaria dioica|Antennaria sp.|Anthemis altissima|Anthemis auriculata|Anthemis pseudocotula|Anthomastus bathyproctus|Anthriscus sylvestris|Antirrhinum majus|Antirrhinum spp.|Aphis graminum|Aphis pini|Aphis sambuci|Aphyllocladus denticulatus|Apis|Apis mellifera|Apis mellifera ligustica|Apium Graveolens|Apium graveolens|Apium graveolens L.|Apium graveolens var. dulce|Aplophyllum alberti-regelii|Aplysia vaccaria|Apollonias barbujana|Aquilegia ecalcarata|Aquilegia oxysepala|Arabidopsis thaliana|Archidendron ellipticum|Archidendron lucidum|Arenaria kumaonensis|Argyrochosma nivea|Aria edulis|Aristolochia cucurbitifolia|Armoracia rusticana|Arnica acaulis|Arnica amplexicaulis|Arnica chamissonis|Arnica fulgens|Arnica longifolia|Arnica mollis|Arnica parryi|Arnica sororia|Aronia arbutifolia|Artabotrys Uncinatus|Artabotrys hexapetalus|Artabotrys uncinatus|Artemisia aethiopica|Artemisia afra|Artemisia alpina|Artemisia annua|Artemisia annua L.|Artemisia apiacea|Artemisia arborescens|Artemisia argyi|Artemisia assoana|Artemisia austriaca|Artemisia biennis|Artemisia carvifolia|Artemisia caucasica|Artemisia diffusa|Artemisia frigida|Artemisia hanseniana|Artemisia herba-alba|Artemisia hispanica|Artemisia judaica|Artemisia klotzchiana|Artemisia kurramensis|Artemisia lactiflora|Artemisia ludoviciana|Artemisia ludoviciana subsp. mexicana|Artemisia mesatlantica|Artemisia minor|Artemisia monosperma|Artemisia montana|Artemisia nova|Artemisia oliveriana|Artemisia princeps|Artemisia rehan|Artemisia santolina|Artemisia tridentata|Artemisia vestita|Artemisia vulgaris|Arthrobotrys oligospora|Arum maculatum|Arum maximum|Arum sp.|Arundina chinensis|Asarina procumbens|Asimina parviflora|Asparagus gonoclados|Aspergillus desertorum|Aspergillus fumisynnematus|Aspergillus phoenicis|Asphodeline damascena|Asphodeline globifera|Asphodelus sp.|Aspicilia caesiocinerea|Aster koraiensis|Aster sedifolius|Aster souliei|Asteraceae|Astragalus bisulcatus|Astragalus bungeanus|Astragalus floccosifolius|Astragalus lagurus|Astragalus macropterus|Astragalus membranaceus|Astragalus mongholicus|Astragalus onobrychis|Astragalus peregrinus|Astragalus sieberi|Astragalus verrucosus|Asyneuma argutum|Asyneuma campanuloides|Athrotaxis selaginoides|Atractylodes macrocephala|Atraphaxis spinosa|Attalea excelsa|Aulosira fertilissima|Aureolaria virginica|Avrainvillea longicaulis|Axinyssa variabilis|Baccharis angustifolia|Baccharis bigelovii|Baccharis dracunculifolia|Baccharis gaudichaudiana|Baccharis genistelloides|Baccharis heterophylla|Baccharis neglecta|Baccharis pteronioides|Baccharis sagittalis|Baccharis salicifolia|Baccharis sp.|Baccharis thesioides|Baccharis trimera|Baccharis vaccinioides|Baccharis venosa|Baccharoides filigera|Baccharoides lasiopus|Bacopa crenata|Bacopa monniera|Bacopa monnieri|Bahiopsis deltoidea|Bahiopsis lanata|Bahiopsis parishii|Bahiopsis reticulata|Bahiopsis triangularis|Balbisia calycina|Ballota acetabulosa|Ballota limbata|Ballota nigra|Ballota rupestris|Ballota sp.|Baptisia sp.|Barleria acanthoides|Bassia muricata|Bellis perennis|Berberis orthobotrys|Berlinia grandiflora|Bertholletia excelsa|Beta vulgaris|Betonica officinalis|Betula nigra|Betula pendula|Betula platyphylla|Beyeria latifolia|Bhesa nitidissima|Biancaea decapetala|Bidens Tripartita|Bidens frondosa|Bidens pilosa|Bidens tripartita|Biebersteinia orphanidis|Bitis gabonica|Blandfordia punicea|Blepharis linariifolia|Blepharis linearifolia|Blepharis scindica|Blepharis sindica|Bletilla formosana|Blighia laurentii|Blumea densiflora|Blumea eriantha|Blumea mollis|Blumea obliqua|Boehmeria Nivea|Boehmeria nivea|Boenninghausenia albiflora|Bolboschoenus caldwellii|Boletus fomentarius|Boltonia asteroides|Bombax ceiba|Bombax malabaricum|Bonnetia dinizii|Boronia ternata|Boswellia carterii|Bothriocline ripensis|Botrytis cinerea|Brachychiton populneum|Brachyglottis bidwillii|Bracteantha viscosa|Brassica alba|Brassica carinata|Brassica napus|Brassica oleracea|Brassica oleracea var. botrytis|Brassica oleracea var. sabauda|Brassica oleracea var. viridis|Brassica rapa|Brassica rapa subsp. chinensis|Breea segeta|Breonia chinensis|Broussonetia papyrifera|Brownea ariza|Brya ebenus|Bryonia alba|Bryum argenteum|Bryum pseudotriquetrum|Bryum weigelii|Buddleja officinalis|Bugula dentata|Bulbine capitata|Bulbinella floribunda|Bunias orientalis|Buxus hyrcana|Buxus microphylla|Cadia purpurea|Caesalpinia crista|Caesalpinia tinctoria|Cajanus cajan|Calceolaria petiolaris|Calea divaricata|Calea lantanoides|Calea urticifolia|Calibrachoa parviflora|Calicotome villosa|Calliandra eriophylla|Callicarpa japonica|Callicarpa nudiflora|Callistephus chinensis|Calophyllum pinetorum|Calycanthus floridus|Calycotome villosa|Camchaya loloana|Camellia sinensis|Campanula armena|Campanula pendula|Campsis Grandiflora|Campsis grandiflora|Campylotropis hirtella|Candida albicans|Capparis himalayensis|Capsicum annuum|Capsicum sp.|Caragana spinosa|Carallia brachiata|Carduus nutans|Carduus tenuiflorus|Carex fraseriana|Carpha glomerata|Carthamus tinctorius|Carya illinoinensis|Caryocar villosum|Casearia corymbulosa|Casearia ilicifolia|Casearia membranacea|Cashew|Cassia fistula|Cassia javanica|Castanea sativa|Castanea vesca|Castanopsis eyrei|Catalpa ovata|Catananche caerulea|Catunaregam tomentosa|Caulocystis cephalornithos|Caustis dioica|Ceanothus velutinus|Cedrela salvadorensis|Celtis australis|Centaurea alexandrina|Centaurea amanicola|Centaurea arenaria|Centaurea aspera|Centaurea calcitrapa|Centaurea collina|Centaurea cyanus|Centaurea dealbata|Centaurea derventana|Centaurea furfuracea|Centaurea glomerata|Centaurea horrida|Centaurea hyalolepis|Centaurea inermis|Centaurea kernerana|Centaurea kilaea|Centaurea maculosa|Centaurea nicaeensis|Centaurea orphanidea|Centaurea pallescens|Centaurea phrygia|Centaurea pseudomaculosa|Centaurea raphanina|Centaurea scoparia|Centaurea sp.|Centaurea sphaerocephala|Centaurea tougourensis|Centaurea urvillei|Centaurea virgata|Centella asiatica|Centipeda minima|Centipedaminima|Cephalaria ambrosioides|Cephalaria kotschyi|Cephalaria procera|Cephalotaxus fortunei|Cephalotaxus harringtonia|Cephalotaxus harringtonii|Cephalotaxus harringtonii var. harringtonii|Cephalotaxus harringtonii var. wilsoniana|Cephalotaxus koreana|Cephalotaxus sinensis|Cephalotaxus wilsoniana|Ceriops decandra|Ceropegia dichotoma|Chaenomeles sinensis|Chamaecrista glandulosa var. glandulosa|Chamaecrista nictitans|Chamaecyparis pisifera|Chamaemelum nobile|Chamaemelum sp.|Chamaemespilus alpina|Chamomilla recutita|Chamomilla recutita (L.) Rauschert|Chamomilla sp.|Chavica betle|Cheilanthes bullosa|Chiococca alba|Chiton tuberculatus|Chlorociboria aeruginascens|Chlorophytum borivilianum|Chondrilla nucula|Chondrococcus hornemanni|Chondrodendron tomentosum|Choriaster granulatus|Chromolaena odorata|Chroogomphus helveticus|Chrozophora brocchiana|Chrozophora obliqua|Chrozophora plicata|Chrozophora rottleri|Chrozophora tinctoria|Chrozophora verbascifolia|Chrysanthemum boreale|Chrysanthemum cineraiaefolium|Chrysanthemum indicum|Chrysanthemum lavandulifolium|Chrysanthemum morifolium|Chrysanthemum naktongense|Chrysanthemum sinense|Chrysanthemum uliginosum|Chrysanthemum x morifolium|Chrysocoma peduncularis|Chrysolaena verbascifolia|Chrysomela tremula|Chrysosporum ovalisporum|Chrysothamnus nauseosus|Chrysotila lamellosa|Cibotium barometz|Cicerbita plumieri|Cichorium intybus|Cinnamomum kotoense|Cipadessa fruticosa|Cirsium arvense|Cirsium arvense var. integrifolium|Cirsium carolinianum|Cirsium japonicum|Cirsium japonicum var. australe|Cirsium oleraceum|Cirsium rhinoceros|Cirsium setosum|Cirsium sp.|Cirsium wallichii|Cis punctifer|Cistus creticus|Cistus ladanifer|Cistus laurifolius|Cistus psilosepalus|Citrullus lanatus|Citrus aurantium|Citrus garrawayi|Citrus grandis|Citrus hassaku|Citrus maxima|Citrus reticulata|Citrus unshiu|Citrus × deliciosa|Citrus × paradisi|Cladiella elongata|Cladogynos orientalis|Cladonia impexa|Cladosporium cucumerinum|Cladrastis platycarpa|Clathria basilana|Clathrotropis brachypetala|Cleistopholis staudtii|Clerodendrum bungei|Clibadium mexiae|Climacoptera transoxana|Clinopodium laxiflorum|Clione antarctica|Clostridium butyricum|Cnidium officinale|Cochlospermum gillivraei|Cocos nucifera|Codium dwarkense|Codonopsis clematidea|Codonopsis ovata|Coffea|Colchicum autumnale|Colchicum robustum|Colchicum speciosum|Colladonia triquetra|Colletotrichum gloeosporioides|Comanthosphace stellipila|Commelina communis|Coniochaeta saccardoi|Conioselinum anthriscoides|Conospermum teretifolium|Conus mus|Convallaria sp.|Conyza bonariensis|Conyza japonica|Coprinopsis atramentaria|Coprosma areolata|Corallina rubens|Corchorus depressus|Cordia elaeagnoides|Cordia leucocephala|Coriandrum sativum|Coronilla cretica|Cortinarius orellanus|Corydalis calliantha|Corydalis taliensis|Corydalis thalictrifolia|Corylus|Corynascus setosus|Cota altissima|Cota palaestina|Cotula cinerea|Coutarea latifolia|Cowania mexicana|Craibiodendron henryi|Crataegus laciniata|Crataegus laevigata|Crataegus microphylla|Crataegus monogyna|Crataegus orientalis|Crataegus oxyacantha L. (1753)|Crataegus sanguinea|Crataegus stevenii|Crataegus tanacetifolia|Cratoxylum formosum|Crepidiastrum sonchifolium|Crepidomanes minutum|Crepis divaricata|Crepis pygmaea|Crinum moorei|Crocus sativus|Crotalaria assamica|Crotalaria candicans|Crotalaria pallida|Crotalaria pallida var. obovata|Crotalus atrox|Croton cascarilloides|Croton gratissimus|Crudia amazonica|Cryptocodon monocephalus|Cryptolepis nigrescens|Cryptomeria japonica|Cucumis melo|Cucumis myriocarpus|Cucumis sativus|Cucurbita moschata|Cudrania tricuspidata|Cupressus sempervirens|Cupressus torulosa|Curculigo capitulata|Cuscuta australis|Cuscuta chinensis|Cyanostegia angustifolia|Cyclotrichium niveum|Cydonia|Cylindrospermum muscicola|Cymbastela coralliophila|Cynara cardunculus|Cynara cardunculus var. scolymus|Cynara cornigera|Cynara humilis|Cyperus enervis|Cyperus leptocarpus|Cyperus scariosus|Cyphostemma digitatum|Cyphus niveus|Cyrtocymura scorpioides|Cystoclonium purpureum|Cytisus ratisbonensis|Cytophaga hutchinsoni|Dacryodes normandii|Dactylorhiza viridis|Dalbergia ecastaphyllum|Dalbergia hupeana|Dalbergia nigra|Dalbergia paniculata|Dalea elegans|Dalea purpurea|Daphne aurantiaca|Daphne feddei|Daphne genkwa|Daphne genkwa Sieb.et Zucc.|Daphne gnidium|Daphne holosericea|Daphne laureola|Daphne mucronata|Daphne oleoides|Daphne pedunculata|Daphne sericea|Daphne sp.|Daphniphyllum angustifolium|Daphniphyllum paxianum|Daucus carota|Delphinium brownii|Delphinus globiceps|Deltocyathus magnificus|Dendranthema morifolium|Dendranthema sp.|Dendranthema zawadzkii|Dendriopoterium menendezii|Dendroaspis angusticeps|Dendrobium candidum|Dendrobium crystallinum|Dendrobium loddigesii|Dendrobium moniliforme|Dendrobium williamsonii|Dendronephthya griffini|Dermatophyllum secundiflorum|Desmodium styracifolium|Dianthus caryophyllus|Dichilus reflexus|Dicliptera roxburghiana|Dicoma anomala|Dicranopteris linearis|Dictyopteris australis|Dictyostelium mucoroides|Didemnum solidum|Digitalis chalcantha|Digitalis ciliata|Digitalis grandiflora|Digitalis lanata|Digitalis trojana|Dioscorea gracillima|Dioscorea oppositifolia|Dioscorea tokoro|Diospyros assimilis|Diplazium esculentum|Diplodia natalensis|Diplopterygium glaucum|Dipsacus asper|Dipterocarpus dyeri|Dipteryx odorata|Discaria serratifolia|Distephanus angulifolius|Dodecadenia grandiflora|Dodonaea viscosa|Dolabella californica|Dolichospermum viguieri|Doronicum austriacum|Doronicum macrophyllum|Dracocephalum multicaule|Dracocephalum peregrinum|Drimia sanguinea|Drosera indica|Drummondita hassellii|Dryocosmus kuriphilus|Dubautia arborea|Duguetia calycina|Duhaldea cappa|Dysidea tupha|Dysophylla stellata|Dysosma pleianthum|Dysoxylum cumingianum|Dystaenia takesimana|Dytiscus marginalis|Echinacea pallida|Echinop ritro|Echinops echinatus|Echinops ritro|Echium rubrum|Eclipta alba|Eclipta prostrata|Eclipta sp.|Edgeworthia chrysantha|Ehretia ovalifolia|Eichhornia crassipes|Elaeodendron alluaudianum|Elephantopus hirtiflorus|Elsholtzia bodinieri|Elsholtzia ciliata|Elsholtzia rugulosa|Embelia parviflora|Embelia schimperi|Enceliopsis argophylla|Engleromyces goetzei|Enrichment culture|Entada africana|Entada phaseoloides|Entada polystachya|Enterococcus faecalis|Ephedra Sinica|Ephedra distachya|Ephedra sinica|Epichloe festucae var. lolii|Epidendrum rigidum|Epilobium hirsutum|Epimedium acuminatum|Epimedium brevicornu|Epimedium brevicornum|Epimedium davidii|Epimedium dolichostemen|Epimedium dolichostemon|Epimedium fargesii|Epimedium franchetii|Epimedium koreanum|Epimedium leishanense|Epimedium leptorrhizum|Epimedium membranaceum|Epimedium myrianthum|Epimedium pauciflorum|Epimedium pubescens|Epimedium sagittatum|Epimedium stellatum|Epimedium wushanense|Epimedium zhenbaense|Epimedium zhushanense|Epirrhoe sperryi|Episcia cupreata|Equisetum hyemale|Equisetum sp.|Eremanthus seidelii|Eremanthus veadeiroensis|Eria anomala|Eria japonica|Eria mollis|Erica cinerea|Erica sp.|Ericameria laricifolia|Ericameria nauseosa var. nauseosa|Erigeron annuus|Erigeron bonariensis|Erigeron breviscapus|Erigeron canadensis|Eriocephalus scariosus|Eriocheir sinensis|Erioderma tomentosum|Eriodictyon sessilifolium|Eriodictyon sp.|Eriostemon spicatus|Erysimum leptophyllum|Erysimum siliculosum|Erythranthe cardinalis|Erythrina melanacantha|Eschenbachia japonica|Esenbeckia leiocarpa|Espeletia lutescens|Ethulia vernonioides|Etlingera elatior|Eucalyptus apodophylla|Eucalyptus decorticans|Eucalyptus globulus subsp. bicostata|Eucalyptus resinifera|Euodia lunu-ankenda|Euonymus alatus|Euonymus grandiflorus|Euonymus laxiflorus|Eupatorium leucolepis|Euphorbia|Euphorbia amygdaloides|Euphorbia clarkeana|Euphorbia formosana|Euphorbia humifusa|Euphorbia lunulata|Euphorbia maculata|Euphorbia nematocypha|Euphorbia sapinii|Euphorbia sieboldiana|Euphrasia genargentea|Euphrasia sp.|Euphrasia stricta|Eurycoma harmandiana|Euryops rupestris|Euterpe oleracea|Eutrema scapiflorum|Evandra aristata|Evernia vulpina|Exostema mexicanum|Fagara chiloperone|Fagara naranjillo|Fallopia multiflora|Faramea salicifolia|Farlowia mollis|Farsetia aegyptia|Ficus Hirta|Ficus carica|Ficus formosana|Ficus hirta|Ficus mucuso|Ficus nervosa|Ficus pumila|Ficus subcuneata|Filipendula ulmaria|Flacourtia jangomas|Flindersia xanthoxyla|Foeniculum vulgare|Fouquieria splendens|Fragaria|Fragaria vesca|Fragaria x ananassa|Fridericia platyphylla|Fritillaria cirrhosa|Fritillaria thunbergii|Fuligo candida|Fumaria indica|Gadus morhua callarias|Gaillardia aristata|Gaillardia aristata Pursh.|Galatella sedifolia|Galeopsis bifida|Galeopsis tetrahit|Galium dasypodum|Galium mollugo|Galium sp.|Gambierdiscus toxicus|Ganoderma lucidum|Garcinia acuminata|Garcinia cambogia|Garcinia dulcis|Garcinia elliptica|Garcinia multiflora|Garcinia nervosa|Garcinia ovalifolia|Garcinia pyrifera|Garcinia scortechinii|Gardenia imperialis|Gardenia resinifera|Gardenia tubifera|Gastrophysa cyanea|Genista ephedroides|Genista pichisermolliana|Gibberella lateritium|Ginkgo biloba|Glaucium vitellinum|Glebionis coronaria|Glebionis coronarium|Glechoma grandis|Glechoma hederacea|Glechoma longituba|Gleditsia horrida|Globularia alypum|Globularia bisnagarica|Globularia davisiana|Globularia punctata|Glochidion philippicum|Glycine max|Glycosmis macrophylla|Glycosmis ovoidea|Glycyrrhiza echinata|Glycyrrhiza uralensis|Gmelina asiatica|Gnaphalium Affine|Gnaphalium affine|Gnaphalium sylvaticum|Gnetum montanum|Gomesa radicans|Gomphostemma microdon|Gonocaryum calleryanum|Gonospermum ferulaceum|Gonospermum revolutum|Goyazianthus tetrastichus|Gratiola officinalis|Greenwayodendron oliveri|Grewia rothii|Grindelia scorzonerifolia|Gutierrezia sarothrae|Gymnocalycium schickendantzii|Gymnocarpium robertianum|Gymnocolea inflata|Gypsophila perfoliata|Halenia elliptica|Haliclona cribricutis|Halobacillus litoralis|Halophila johnsonii|Haplopappus rengifoanus|Haplophyllum obtusifolium|Haplopteris anguste-elongata|Hazardia squarrosa|Hedysarum denticulatum|Helichrysum arenarium|Helichrysum armenium|Helichrysum cephaloideum|Helichrysum graveolen|Helichrysum lepidissimum|Helichrysum nitens|Helichrysum sp.|Helichrysum tenuifolium|Heliotropium hirsutissimum|Helleborus multifidus|Hemionitis japonica|Hendersonula toruloidea|Hertia cheirifolia|Hesperis matronalis|Heterocentrotus mammillatus|Heterochordaria abietina|Hexalobus crispiflorus|Hibiscus sabdariffa|Hieracium rotundatum|Himalaiella deltoidea|Holarrhena febrifuga|Holocarpha heermannii|Homo sapiens|Hopea utilis|Hoya carnosa|Humboldtia laurifolia|Humulus japonicus|Humulus scandens|Hydnocarpus pentandrus|Hydnocarpus setumpul|Hydrocotyle ranunculoides|Hygrophila erecta|Hymenidium lindleyanum|Hymenocallis arenicola|Hymenothrix wislizenii|Hymenoxys insignis|Hyoseris radiata|Hypericum balearicum|Hypericum carinatum|Hypericum henryi|Hypericum perforatum|Hypericum polyanthemum|Hypericum reflexum|Hypericum revolutum|Hypericum styphelioides|Hyssopus officinalis|Iberis sempervirens|Ibicella lutea|Iboza riparia|Ideopsis similis|Ilex belizensis|Ilex brevicuspis|Ilex leucoclada|Ilyonectria destructans|Impatiens edgeworthii|Impatiens siculifer|Indigofera tetrantha|Indo-Pacific sponge (Unclassified)|Inocybe geophylla|Inula britannica|Inula salsoloides|Inulanthera calva|Ipomoea aquatica|Ipomoea cairica|Ipomoea muricata|Iris pallasii|Iris pseudacorus|Isaria fumosorosea|Isocoma acradenia|Isodon coetsa|Isodon leucophyllus|Isodon lophanthoides|Isodon oresbius|Isodon phyllostachys|Isoplexis chalcantha|Itea parviflora|Itoa orientalis|Ixeridium laevigatum|Ixeris debilis|Jacaranda chelonia|Jackiella javanica|Jasonia candicans|Jatropha macrorhiza|Jatropha sp.|Jugo|Juniperus communis|Juniperus drupacea|Juniperus sabina|Justicia ciliata|Justicia hayatai|Justicia secunda|Kaempferia rotunda|Kalmia angustifolia|Kalmia latifolia|Kloeckera brevis|Knautia montana|Knautia tatarica|Kniphofia pumila|Koelpinia linearis|Koelreuteria henryi|Kopsia albiflora|Kopsia grandifolia|Kopsia hainanensis|Kummerowia Striata|Kummerowia striata|Lactarius sanguifluus|Lactarius spinosulus|Lactuca acanthifolia|Lactuca aculeata|Lactuca altaica|Lactuca formosana|Lactuca indica|Lactuca perennis|Lactuca quercina|Lactuca saligna|Lactuca sativa|Lactuca serriola|Lactuca tatarica|Lactuca tenerrima|Lactuca triquetra|Lactuca viminea|Lactuca virosa|Laennecia sophiifolia|Laennecia sophiifolia (Kunth) G.L.Nesom|Laetia corymbulosa|Lagerstroemia indica|Laggera pterodonta|Lagochilus leiacanthus|Lagotis brevituba|Lagotis yunnanensis|Laguncularia racemosa|Lamyropsis cynaroides|Lantana montevidensis|Larrea divaricata|Larrea tridentata|Lasianthus fordii|Latrunculia magnifica|Launaea aspleniifolia|Launaea resedifolia|Laurencia composita|Laurencia thyrsifera|Lavandula dentata|Lavandula dentata var. dentata|Lavandula vera|Layia hieracioides|Lecanicillium muscarium|Ledebouria floribunda|Ledebouria socialis|Leiothrix curvifolia|Lemaireocereus longispinus|Lemna sp.|Lentinus tigrinus|Leonotis leonurus|Leontodon taraxacoides|Leonurus heterophyllus|Leonurus japonicus|Lepidium graminifolium|Lepidium sativum|Lespedeza bicolor|Lespedeza virgata|Leucanthemella serotina|Leucanthemum sp.|Leucas Aspera|Leucas aspera|Leucopaxillus cerealis|Leucophyllum ambiguum|Leucosceptrum|Leuzea centauroides|Levisticum officinale|Libocedrus formosana|Libocedrus plumosa|Licaria chrysophylla|Ligularia cymbulifera|Ligularia songarica|Ligusticum officinale|Ligusticum sinense|Ligustrum japonicum|Ligustrum lucidum|Ligustrum robustum|Ligustrum vulgare|Lilium umbellatum|Limonium axillare|Limonium bicolor|Limonium sinense|Linaria macroura|Lipocarpha microcephala|Lippia sp.|Liriodendron tulipifera|Litsea salicifolia|Litsea verticillata|Littorina littorea|Livistona australis|Lobelia chinensis|Lobophytum durum|Lobophytum laevigatum|Lomatium nuttallii|Lomelosia caucasica|Lonchocarpus atropurpureus|Lonicera japonica|Lophanthus chinensis|Lorandersonia pulchella|Lotus pedunculatus|Lotus uliginosus|Luculia pinceana|Luetkea pectinata|Luma chequen|Lupinus luteus|Lychnis flos-cuculi L.|Lychnophora salicifolia|Lycium barbarum|Lycium chinense|Lycogala epidendrum|Lycopodium contiguum|Lycopus asper|Lycopus europaeus|Lycopus lucidus|Lycopus sp.|Lycopus virginicus|Lysimachia christinae|Lysimachia fordiana|Lythrum salicaria|Macadamia|Macfadyena cynanchoides|Maclura pomifera|Macrothelypteris torresiana|Madia sativa|Magnolia montana|Maianthemum atropurpureum|Malagasy connaraceous|Mallotus discolor|Malus baccata|Malus domestica|Malus pumila|Mangifera indica|Marasmiellus troyanus|Marchantia polymorpha|Marchantia sp.|Marine actinobacterium|Markhamia stipulata|Marrubium cylleneum|Marrubium globosum|Marrubium sp.|Marrubium velutinum|Marrubium vulgare|Martensia denticulata|Matricaria chamomilla|Maytenus chuchuhuasha|Meehania urticifolia|Melanargia galathea|Melandrium album|Melissa officinalis|Menisporopsis theobromae|Mentha Aquatica|Mentha aquatica L.|Mentha arvensis|Mentha canadensis|Mentha cardiaca|Mentha piperita|Mentha pulegium|Mentha sp.|Mentha spicata|Mentha suaveolens|Mentha x piperita|Meridiastra calcar|Mesembryanthemum expansum|Mesomelaena tetragona|Mexican propolis|Micromeria cristata|Micromeria croatica|Micromeria graeca|Micromeria juliana|Micromeria parviflora|Micromeria pseudocroatica|Microtea debilis|Microtoena prainiana|Miliusa velutina|Millettia zechiana|Mimosa hostilis|Mimosa tenuiflora|Mimulus cardinalis|Mimulus pilosus|Mimusops caffra|Mirabilis viscosa|Mitracarpus scaber|Mollugo spergula|Monascus pilosus|Monomeria barbata|Monsonia senegalensis|Moraea sisyrinchium|Morella rubra|Morinda morindoides|Mosla chinensis|Mosla scabra|Mulguraea tridens|Mundulea striata|Mus striatus|Musa|Mycena fagetorum|Myoporum platycarpum|Myoporum tenuifolium|Myrica rubra|Myrsine capitellata|Myrtopsis novae-caledoniae|Myxococcus stipitatus|Nannoglottis ravida|Narthecium asiaticum|Nasturtium officinale|Nectandra rubra|Nematolepis phebalioides|Neobalanocarpus heimii|Neopetrosia exigua|Nepeta cataria|Nepeta teydea|Nepeta velutina|Nerine bowdenii|Newbouldia laevis|Nicotiana affinis|Nicotiana raimondii|Notholaena candida|Notholaena greggii|Notholaena rigida|Notholaena rosei|Notobasis syriaca|Ochradenus baccatus|Ocimum Sanctum|Ocimum americanum|Ocimum americanum L.var.pilosum (Willd.) Paton|Ocimum gratissimum|Ocimum kilimandscharicum L.|Ocimum minimum L.|Ocimum sanctum|Ocimum sp.|Ocimum tenuiflorum|Ocimum tenuiflorum L.|Ocimum x citriodorum Vis.|Odontites viscosus|Odontocline hollickii|Oenanthe pimpinelloides|Olea europaea|Olea sp.|Oligochaeta divaricata|Omalotheca sylvatica|Ongokea gore|Onobrychis arenaria|Ononis sp.|Ononis spinosa|Onopordum acanthium|Onopordum acaulon|Onopordum corymbosum|Onopordum laconicum|Onopordum macrocanthum|Onopordum myriacanthum|Onosma heterophylla|Onosma hispida|Oophaga pumilio|Ophiocordyceps sinensis|Ophryosporus floribundus|Oreopteris quelpaertensis|Origanum dictamnus|Origanum majorana|Origanum majoricum|Origanum sp.|Origanum vulgare|Origanum x majoricum|Ormosia henryi|Ormosia hosiei|Ornithogalum tenuifolium|Ornithoglossum viride|Ornithopus sativus|Oroxylum indicum|Orthosiphon spicatus|Oryza sativa|Osmanthus fragrans|Osmanthus heterophyllus|Osmanthus ilicifolius|Osmanthus × fortunei|Osmorhiza aristata|Osteospermum fruticosum|Othonna coronopifolia|Othonna sedifolia|Oxytropis falcata|Oxytropis ochrocephala|Pachyrhizus tuberosus|Paeonia lactiflora|Paeonia rockii|Paeonia suffruticosa|Pajanelia multijuga|Palaquium canaliculatum|Pallenis hierochuntica|Panax innovans|Pancratium sickenbergeri|Panda oleosa|Pangium edule|Panzeria canescens|Papaver strigosum|Paraburkholderia caryophylli|Paracoccus denitrificans|Parkinsonia aculeata|Parnassius phoebus|Passiflora edulis|Passiflora foetida|Passiflora incarnata|Passiflora sp.|Pastinaca sativa|Patrinia scabiosifolia|Patrinia villosa|Paulownia coreana|Paulownia tomentosa|Payena lucida|Pecten islandicus|Pedicularis longiflora|Pedicularis rex|Peltophorum dasyrachis|Penicillium cinerascens|Penicillium herquei|Penicillium meleagrinum|Penicillium puberulum|Penstemon serrulatus|Pentaclethra macrophylla|Perilla frutescens|Perilla frutescens var. crispa|Perilla sp.|Periploca sepium|Perknaster fuscus|Persea mexicana|Pertusaria truncata|Petasites laevigatus|Petroselinum crispum|Petrosimonia monandra|Phalaris canariensis|Phaseolus vulgaris|Phebalium ambiens|Phebalium whitei|Phellinus igniarius|Phillyrea latifolia|Philotheca myoporoides|Phlojodicarpus sibiricus|Phlomis bovei|Phlomis herba-venti|Phlomis nissolii|Phlomis purpurea|Phlomis samia|Phlomoides rotata|Phlomoides tuberosa|Phoenix dactylifera|Phoma medicaginis|Phomopsis leptostromiformis|Phora velutina|Phoradendron tomentosum|Phyllanthus discoides|Phyllanthus emblica|Phyllanthus virgatus|Physalis alkekengi|Physalis sordida|Physocarpus capitatus|Phytolacca thyrsiflora|Picea neoveitchii|Picris cyanocarpa|Picris kamtschatica|Pimpinella anisum|Pimpinella sp.|Pinguicula sp.|Pinus|Pinus armandi|Pinus flexilis|Pinus morrisonicola|Pinus mugo|Piper regnellii|Pisaster giganteus|Pistacia vera|Pisum sativum|Pithecellobium racemosum|Pityrogramma ebenea|Plagiomnium affine|Plagiomnium ciliare|Plagiomnium cuspidatum|Planchonia grandis|Plantago Major|Plantago albicans|Plantago asiatica|Plantago cornuti|Plantago depressa|Plantago major|Platanus sp.|Plathymenia reticulata|Platycladus orientalis|Platycodon grandiflorum|Platycodon grandiflorus|Plectranthus forsteri|Plectranthus myrianthus|Plectranthus nummularius|Plectranthus sylvestris|Pluchea chingoyo|Plumbagella micrantha|Plumbago zeylanica|Pocillopora eydouxi|Podocarpus fasciculus|Podocarpus macrophyllus|Pogostemon Cablin|Pogostemon cablin|Pogostemon stellatus|Polyalthia acuminata|Polygala arillata|Polygala sabulosa|Polygala sellowiana|Polygonum Cuspidatum|Polygonum cuspidatum|Polygonum mite|Polylepis besseri|Polylepis incana|Polypodium decumanum|Polysiphonia urceolata|Polyzonium rosalbum|Populus alba|Populus balsamifera|Populus candicans|Populus deltoides|Populus grandidentata|Populus nigra|Populus tremula|Porophyllum ruderale|Portulaca oleracea|Pourouma guianensis|Premna fulva|Primula sp.|Procambarus clarkii|Prostanthera melissifolia|Prunus armeniaca|Prunus avium|Prunus cerasoides|Prunus cerasus|Prunus domestica|Prunus dulcis|Prunus persica|Psephellus dealbatus|Psephellus schischkinii|Pseudodictamnus hirsutus|Pseudodistoma arborescens|Pseudognaphalium affine|Pseudomonas mendocina|Pseudonocardia compacta|Pseudostifftia kingii|Pseuduvaria indochinensis|Psidium guajava|Psilotum nudum|Psychotria serpens|Psychotria stachyoides|Ptelea viscosa|Pteraster multipes|Pteridium aquilinum|Pteridium esculentum|Pteris dactylina|Pteris multifida|Pteris setuloso-costulata|Pterocarpus officinalis|Pterocaulon polystachyum|Pterocaulon virgatum|Pterogyne nitens|Pterolobium hexapetalum|Ptilocaulis walpersi|Pueraria montana var. lobata|Punica Granatum|Punica granatum|Punica granatum L.|Purshia mexicana|Pycnandra acuminata|Pyrenophora lolii|Pyrostegia venusta|Pyrrhopappus carolinianus|Pyrus communis|Pyrus pyrifolia|Rabdosia loxothyrsa|Rabdosia macrocalyx|Radianthus kuekenthali|Rana amurensis|Ranunculus asiaticus|Ranzania japonica|Raphanus sativus|Raphanus sativus subsp. niger|Raphanus sativus var. sativus|Raputia praetermissa|Rathayibacter rathayi|Rattus rattus|Raukaua simplex|Relhania corymbosa|Relicina samoensis|Remirea maritima|Reseda muricata|Reseda muricata C.Presl.|Retama raetam|Retiboletus ornatipes|Rhabdonia verticillata|Rhagadiolus stellatus|Rhapis excelsa|Rhaponticum carthamoides|Rheum tataricum|Rhinella marina|Rhizobium leguminosarum|Rhizoctonia repens|Rhodiola rosea|Rhodiola semenovii|Rhodobacter sphaeroides|Rhodococcus erythropolis|Rhododendron dauricum|Rhus vulgaris|Rhynchosia beddomei|Ribes nigrum|Ribes rubrum|Ribes sanguineum|Ribes uva-crispa|Riccia fluitans|Rivina humilis|Rivularia firma|Robinsonia gracilis|Roccella fucoides|Roemeria carica|Roldana sessilifolia|Rosa agrestis|Rosa americana|Rosa rugosa|Rosmarinus officinalis|Rothmaleria granatensis|Rothmannia wittii|Rubia tetragona|Rubus|Rubus idaeus|Rumex nepalensis|Rumex pictus|Rumex vesicarius|Sabadilla officinalis|Sabina Chinensis|Sabina chinensis|Saccharomyces cerevisiae SPO810 [aro8 aro10]|Salacia elliptica|Salix acutifolia|Salix arbusculoides|Salix lindleyana|Salix sp.|Salvia aegyptiaca|Salvia albimaculata|Salvia atropatana|Salvia bucharica|Salvia candelabrum|Salvia compressa|Salvia dorrii|Salvia fruticosa|Salvia glutinosa|Salvia hispanica|Salvia horminum|Salvia hypoleuca|Salvia kopolnovii|Salvia lavandulaefolia|Salvia lavandulifolia|Salvia limbata|Salvia macrosiphon|Salvia mirzayanii|Salvia montbretii|Salvia moorcroftiana|Salvia nemorosa|Salvia officinalis|Salvia palaestina|Salvia pedicellata|Salvia pinnata|Salvia pratensis|Salvia sahendica|Salvia sclarea|Salvia sessei|Salvia sp.|Salvia staminea|Salvia stenophylla|Salvia trijuga|Salvia triloba|Salvia urolepis|Salvia verbenaca|Salvia yosgadensis|Salvia × sylvestris|Samadera indica|Sanicula epipactis|Santolina chamaecyparissus|Santolina chamaecyperissus|Santolina pinnata|Sapindus mukorossi|Sarcophyton buitendijki|Sarcophyton elegans|Satureja cuneifolia|Saussurea gossypiphora|Saussurea involucrata|Saussurea laniceps|Saussurea medusa|Savoy cabbage|Scabiosa succisa|Scapholeberis mucronata|Schizanthus tricolor|Schizonepeta tenuifolia|Schizonepeta tenuisfolia|Schizophyllum lobatum|Schnabelia tetradonta|Schnella guianensis|Schoenia cassiniana|Schoenus fluitans|Schumanniophyton magnificum|Scleria tricuspidata|Scolopia chinensis|Scolopia spinosa|Scolymus hispanicus|Scolymus maculatus|Scoparia dulcis|Scopolia atropoides|Scorzonera austriaca|Scorzonera divaricata|Scorzonera graminifolia|Scorzonera hirsuta|Scorzonera hispanica|Scorzonera humilis|Scorzonera laciniata|Scorzonera mollis|Scorzonera pseudolanata|Scorzonera pusilla|Scorzonera virgata|Scutellaria Barbata|Scutellaria adenostegia|Scutellaria adsurgens|Scutellaria albida|Scutellaria alpina|Scutellaria baicalensis|Scutellaria barbata|Scutellaria chaematochlora|Scutellaria comosa|Scutellaria discolor|Scutellaria galericulata|Scutellaria haematochlora|Scutellaria immaculata|Scutellaria indica|Scutellaria iskanderi|Scutellaria karjagini|Scutellaria karjaginii|Scutellaria orientalis|Scutellaria ovata|Scutellaria rivularis|Scutellaria schachristanica|Scutellaria strigillosa|Sedum obtuso-lineare|Selaginella tamariscina|Senecio adenophyllus|Senecio deltoideus|Senecio heliopsis|Senecio kaempferi|Senecio nemorensis|Senecio sandersonii|Senecio speciosus|Senecio subdentatus|Senegalia mellifera|Senna didymobotrya|Senna italica|Senna siamea|Sepia officinalis|Serratula cichoracea|Sesbania bispinosa|Shigella dysenteriae|Sideritis argosphacelus|Sideritis argosphacelus var. spicata|Sideritis leucantha|Sideritis raeseri|Sideritis soluta|Sideritis stachydioides|Sideritis syriaca|Sideritis taurica|Sideritis trojana|Siegesbeckia pubescens|Sigesbeckia glabrescens|Silene baccifera|Silene saxatilis|Silybum marianum|Silybum sp.|Simarouba glauca|Sinapis alba|Sinningia cardinalis|Siphonaria capensis|Skimmia reevesiana|Smilax perfoliata|Solanderia secunda|Solanum aculeatissimum|Solanum aculeatum|Solanum chenopodioides|Solanum lanceolatum|Solanum lycopersicum|Solanum melongena|Solanum nigrum|Solanum tuberosum|Solidago flexicaulis|Solidago petiolaris|Solidago serotina|Solidago spathulata|Sonchus Arvensis|Sonchus arvensis|Sonchus asper|Sonchus maritimus|Sonchus pustulatus|Sonneratia caseolaris|Sophora flavescens|Sorbaria sorbifolia|Sordaria araneosa|Sorghum bicolor|Sphaeranthus confertifolius|Sphaerella laricina|Sphaeria maculans|Sphagneticola trilobata|Spinacia oleracea|Spiraea hypericifolia|Spirodela polyrhiza|Spongia agaricina|Spongia officinalis|Stachys aegyptiaca|Stachys chinensis|Stachys ocymastrum|Stachys officinalis|Stachyurus himalaicus|Stellaria media|Stephania zippeliana|Sterculia foetida|Stereospermum acuminatissimum|Stipa vaseyi|Stiretrus anchorago|Stizolobium deeringianum|Streptomyces|Streptomyces cyaneofuscatus|Streptomyces filamentosus|Streptomyces incarnatus|Streptomyces lucensis|Streptomyces matensis|Streptomyces parvulus|Streptomyces purpurogeneiscleroticus|Streptomyces roseoverticillatus|Streptomyces venezuelae|Streptomyces yokosukanensis|Striga asiatica|Striga barthlottii|Striga gesnerioides|Striga lutea|Strombus gigas|Strophanthus kombe|Strychnos camptoneura|Strychnos ligustrina|Styphnolobium japonicum|Sugarcane|Swertia tetrapetala|Symphyotrichum bracteolatum|Symphyotrichum eatonii|Syzygium jambos|Syzygium polycephaloides|Tabernaemontana divaricata|Talaromyces avellaneus|Talaromyces pinophilus|Talaromyces variabilis|Tamarindus indica|Tamarix dioica|Tanacetum parthenifolium|Tanacetum partheniifolium|Tanacetum parthenium|Tanacetum parthenium (L.) Schulz Bip.|Tanacetum polycephalum|Tanacetum sp.|Tanacetum vulgare|Tanacetum vulgare L.|Taonia australasica|Taraxacum officinale|Taxodium distichum|Taxus drupacea|Taxus sinensis|Taxus wallichiana var. chinensis|Tecoma capensis|Tephrosia egregia|Tephrosia elata|Tephrosia fulvinervis|Tephrosia linearis|Tetrapanax papyrifer|Teucrium chamaedrys|Teucrium divaricatum|Teucrium gnaphalodes|Teucrium japonicum|Teucrium lancifolium|Teucrium polium|Teucrium sp.|Teucrium vincentinum|Teucrium yemense|Theobroma Cacao|Theobroma cacao L.|Theonella conica|Thiocystis gelatinosa|Thunnus orientalis|Thymus|Thymus bashkiriensis|Thymus guberlinensis|Thymus herba-barona|Thymus hirtus|Thymus numidicus|Thymus piperella|Thymus quinquecostatus|Thymus serpyllum|Thymus sp.|Thymus vulgaris|Tilia mandshurica|Tilia tomentosa|Tinospora crispa|Tinus mamillata|Tolypothrix tenuis|Trachelospermum asiaticum|Trachelospermum jasminoides|Tragopogon crocifolius|Tragopogon hybridus|Tragopogon longirostris|Tragopogon orientalis|Tragopogon porrifolius|Tragopogon pratensis|Trichocereus peruvianus|Trichoderma vinosum|Trichoderma viride|Tricholoma acerbum|Tricholoma columbetta|Trichomanes reniforme|Trichophyton megnini|Trichophyton mentagrophytes|Trichosanthes kirilowii|Trichosanthes rosthornii|Trichostema lanatum|Trichosurus vulpecula|Trididemnum cyanophorum|Triopha carpenteri|Tripterygium regelii|Tristania conferta|Triticum aestivum|Triticum estivum|Trollius chinensis|Trollius europaeus|Tsuga diversifolia|Tsuga heterophylla|Tulipa sylvestris|Turnera diffusa|Typha latifolia|Umbilicaria esculenta|Uncaria sessilifructus|Uncaria sterrophylla|Urospermum picroides|Usnea japonica|Ustilago sphaerogena|Uvaria acuminata|Uvaria cherrevensis|Uvaria scheffleri|Vaccinium ashei|Vaccinium vitis-idaea|Vachellia tortilis|Valeriana amurensis|Valeriana cardamines|Valeriana chionophila|Valeriana eriophylla|Valeriana fedtschenkoi|Valeriana ficariifolia|Valeriana rossica|Varthemia iphionoides|Vatica cinerea|Vellozia nanuzae|Vellozia nivea|Venus mercenaria|Verbascum eremobium|Verbascum fruticulosum|Verbascum lychnitis|Verbascum phlomoides|Verbascum songaricum|Verbascum sp.|Verbena officinalis|Verbena × hybrida|Vernonanthura amplexicaulis|Vernonanthura montevidensis|Vernonanthura nudiflora|Vernonanthura pinguis|Vernonia anisochaetoides|Vernonia cistifolia|Vernonia fagifolia|Vernonia lanuginosa|Veronica arvensis|Veronica chamaedrys|Veronica kellereri|Veronica longifolia|Veronica officinalis|Veronica persica|Veronica polita|Veronica sp.|Veronica spicata|Veronica spuria|Veronica teucrium|Viburnum coriaceum|Viburnum cylindricum|Viburnum erubescens|Vicia amoena|Vicia cracca|Vicia dumetorum|Vicia hirsuta|Vicia peregrina|Vicia pisiformis|Vicia sativa|Vicia subvillosa|Vicia tenuifolia|Vigna mungo|Vigna unguiculata|Viguiera linearis|Viguiera stenoloba|Vinca minor|Viola arvensis|Viscaria viscosa|Vismia orientalis|Vitex agnus-castus|Vitex limonifolia|Vitis betulifolia|Vitis cinerea|Vitis vinifera|Vittaria anguste-elongata|Volkameria inermis|Volutaria crupinoides|Walsura chrysogyne|Wardomyces inflatus|Wedelia scaberrima|Wedelia triloba|Welsh onion|Werneria nubigena|Widely distributed in plant|Wikstroemia canescens|Wikstroemia viridiflora|Wisteria sinensis|Xanthorhiza simplicissima|Xiphidium caeruleum|Xylaria cubensis|Xylopia columbiana|Xylosma longifolia|Zaluzania grayana|Zaluzianskya capensis|Zanthoxylum acutifolium|Zanthoxylum ailanthoides|Zanthoxylum arborescens|Zanthoxylum myriacanthum|Zanthoxylum rhoifolium|Zanthoxylum scandens|Ziziphora clinopodioides|Ziziphora tenuior|asparagus|basil|bellis perennis|breadfruit|broad bean|broccoli|cacao|chinese propolis|corn mint|denseflower mullein|gai lan|garlic|kohlrabi|lettuce|marjoram|meadow clary|microtea debilis|parsley|peanut|pomegranate|pomelo|potato|tomato|water mint

>  <collections>  (1121) 
ANPDB|AfroCancer|AfroDB|AnalytiCon Discovery NPs|Australian natural products|BIOFACQUIM|BitterDB|CMAUP (cCollective molecular activities of useful plants)|ChEBI NPs|ChemSpider NPs|ConMedNP|DrugBankNP|EMNPD|ETM (Ethiopian Traditional Medicine) DB|Exposome-explorer|FooDB|GNPS (Global Natural Products Social Molecular Networking)|HIM (Herbal Ingredients in-vivo Metabolism database)|HIT (Herbal Ingredients Targets)|InPACdb|InflamNat|KNApSaCK|Latin America dataset|Mitishamba database|NANPDB (Natural Products from Northern African Sources)|NAPRORE-CR|NPACT|NPASS|NPCARE|NPEdia|NuBBEDB|Phenol-explorer|Phyto4Health|PhytoLab phyproof® Reference Substances|PubChem NPs|ReSpect|SANCDB|StreptomeDB|Super Natural II|TCMDB-Taiwan (Traditional Chinese Medicine database)|TCMID (Traditional Chinese Medicine Integrated Database)|TIPdb (database of Taiwan indigenous plants)|TPPT (Toxic Plants–PhytoToxins)|TerPenoids database embedded with Content information (TPCN)|UNPD (Universal Natural Products Database)|VietHerb|Watermelon|WikiData Natural Products|ZINC NP|p-ANAPL

>  <dois>  (1121) 
10.1002/(SICI)1097-0010(200004)80:5<561::AID-JSFA574>3.0.CO;2-|10.1002/(SICI)1099-1565(199707)8:4<176::AID-PCA351>3.0.CO;2-K|10.1002/(SICI)1099-1573(200003)14:2<93::AID-PTR558>3.0.CO;2-X|10.1002/1521-4184(20008)333:8<275::AID-ARDP275>3.0.CO;2-4|10.1002/9780470744307.gat218|10.1002/CBDV.200900227|10.1002/CBDV.201100002|10.1002/CBDV.201100219|10.1002/CBER.19691020319|10.1002/CBER.19691020338|10.1002/CBER.19691020532|10.1002/CBER.19691020536|10.1002/CBER.19691021008|10.1002/CBER.19691021230|10.1002/CHIN.200322218|10.1002/CHIN.200438214|10.1002/CHIN.200510237|10.1002/CJOC.201090191|10.1002/EJLT.200500227|10.1002/ELPS.201300646|10.1002/HLCA.200800420|10.1002/HLCA.201000195|10.1002/HLCA.201000301|10.1002/J.1537-2197.1996.TB13914.X|10.1002/JCCS.199300015|10.1002/JCCS.199500018|10.1002/JCCS.200000028|10.1002/JCCS.200400094|10.1002/JCCS.200400210|10.1002/JMS.395|10.1002/JSFA.1820|10.1002/JSFA.2384|10.1002/JSFA.955|10.1002/JSSC.200500003|10.1002/MCS.1047|10.1002/PCA.2521|10.1002/PCA.744|10.1002/PTR.1066|10.1002/PTR.3187|10.1002/RECL.19000191104|10.1002/biuz.19840140514|10.1002/food.19880321030|10.1007/978-94-007-1088-7|10.1007/BF00381261|10.1007/BF00563331|10.1007/BF00563834|10.1007/BF00564015|10.1007/BF00564148|10.1007/BF00564349|10.1007/BF00564480|10.1007/BF00564825|10.1007/BF00564828|10.1007/BF00564831|10.1007/BF00564976|10.1007/BF00564980|10.1007/BF00566097|10.1007/BF00566356|10.1007/BF00566810|10.1007/BF00566811|10.1007/BF00567050|10.1007/BF00567051|10.1007/BF00567325|10.1007/BF00567716|10.1007/BF00567884|10.1007/BF00568241|10.1007/BF00568248|10.1007/BF00568250|10.1007/BF00568605|10.1007/BF00569015|10.1007/BF00569020|10.1007/BF00569605|10.1007/BF00570237|10.1007/BF00570687|10.1007/BF00570866|10.1007/BF00570867|10.1007/BF00570868|10.1007/BF00571237|10.1007/BF00574222|10.1007/BF00574346|10.1007/BF00574349|10.1007/BF00574351|10.1007/BF00574390|10.1007/BF00574750|10.1007/BF00574751|10.1007/BF00577211|10.1007/BF00579161|10.1007/BF00579496|10.1007/BF00579515|10.1007/BF00579788|10.1007/BF00579838|10.1007/BF00579981|10.1007/BF00580916|10.1007/BF00595086|10.1007/BF00598180|10.1007/BF00598367|10.1007/BF00598549|10.1007/BF00598598|10.1007/BF00599013|10.1007/BF00599014|10.1007/BF00599274|10.1007/BF00600848|10.1007/BF00605217|10.1007/BF00607554|10.1007/BF00629812|10.1007/BF00630019|10.1007/BF00630092|10.1007/BF00630447|10.1007/BF00630667|10.1007/BF00631041|10.1007/BF00633407|10.1007/BF00636016|10.1007/BF00683867|10.1007/BF00713339|10.1007/BF00985673|10.1007/BF01032047|10.1007/BF01100682|10.1007/BF01165218|10.1007/BF01372624|10.1007/BF01374037|10.1007/BF02002621|10.1007/BF02275745|10.1007/BF02291547|10.1007/BF02323285|10.1007/BF02490607|10.1007/BF02517954|10.1007/BF02542580|10.1007/BF02857780|10.1007/BF02861317|10.1007/BF02903720|10.1007/BF02908196|10.1007/BF02968244|10.1007/BF02976451|10.1007/BF02978247|10.1007/BF02979135|10.1007/S00217-005-0160-5|10.1007/S00580-015-2192-Y|10.1007/S10600-005-0050-X|10.1007/S10600-005-0068-0|10.1007/S10600-005-0087-X|10.1007/S10600-006-0088-4|10.1007/S10600-006-0265-5|10.1007/S10600-007-0058-5|10.1007/S10600-007-0133-Y|10.1007/S10600-007-0208-9|10.1007/S10600-007-0222-Y|10.1007/S10600-007-0232-9|10.1007/S10600-007-0236-5|10.1007/S10600-008-9024-0|10.1007/S10600-008-9108-X|10.1007/S10600-008-9119-7|10.1007/S10600-009-9230-4|10.1007/S10600-009-9246-9|10.1007/S10600-009-9291-4|10.1007/S10600-009-9328-8|10.1007/S10600-009-9330-1|10.1007/S10600-009-9359-1|10.1007/S10600-009-9402-2|10.1007/S10600-009-9411-1|10.1007/S10600-010-9461-4|10.1007/S10600-010-9481-0|10.1007/S10600-010-9595-4|10.1007/S10600-010-9596-3|10.1007/S10600-010-9642-1|10.1007/S10600-010-9647-9|10.1007/S10600-011-0071-6|10.1007/S10600-011-9795-6|10.1007/S10600-011-9797-4|10.1007/S10600-011-9811-X|10.1007/S10600-011-9846-Z|10.1007/S10600-011-9849-9|10.1007/S10600-011-9906-4|10.1007/S10600-011-9920-6|10.1007/S10600-011-9954-9|10.1007/S10600-012-0124-5|10.1007/S10600-012-0125-4|10.1007/S10600-013-0652-7|10.1007/S10600-015-1519-X|10.1007/S11094-005-0104-1|10.1007/S11130-011-0236-2|10.1007/S11130-015-0503-8|10.1007/S11130-020-00822-2|10.1007/S11418-005-0023-1|10.1007/S11418-006-0122-7|10.1007/S11418-007-0144-9|10.1007/S11418-010-0501-Y|10.1007/S11746-003-0652-X|10.1007/S12272-001-1242-1|10.1007/S12272-010-0610-X|10.1007/SPRINGERREFERENCE_69384|10.1007/s00216-014-7982-6|10.1007/s00284-015-0785-y|10.1007/s11130-012-0286-0|10.1007/s11130-020-00822-2|10.1016/0021-9673(92)85026-P|10.1016/0021-9673(93)80317-2|10.1016/0021-9673(94)89051-X|10.1016/0027-5107(92)90201-C|10.1016/0031-9422(73)80042-1|10.1016/0031-9422(73)80477-7|10.1016/0031-9422(73)85046-0|10.1016/0031-9422(73)85143-X|10.1016/0031-9422(75)80380-3|10.1016/0031-9422(75)85069-2|10.1016/0031-9422(75)85315-5|10.1016/0031-9422(81)80046-5|10.1016/0031-9422(81)85199-0|10.1016/0031-9422(82)80045-9|10.1016/0031-9422(82)80098-8|10.1016/0031-9422(82)83199-3|10.1016/0031-9422(82)83200-7|10.1016/0031-9422(83)83035-0|10.1016/0031-9422(83)83047-7|10.1016/0031-9422(85)80028-5|10.1016/0031-9422(88)80018-9|10.1016/0031-9422(88)80201-2|10.1016/0031-9422(88)80455-2|10.1016/0031-9422(88)80626-5|10.1016/0031-9422(88)80674-5|10.1016/0031-9422(88)80708-8|10.1016/0031-9422(88)80767-2|10.1016/0031-9422(88)80811-2|10.1016/0031-9422(88)83030-9|10.1016/0031-9422(88)83068-1|10.1016/0031-9422(88)84093-7|10.1016/0031-9422(88)87036-5|10.1016/0031-9422(88)87045-6|10.1016/0031-9422(89)80307-3|10.1016/0031-9422(89)80396-6|10.1016/0031-9422(90)80181-F|10.1016/0031-9422(90)83068-C|10.1016/0031-9422(90)85105-O|10.1016/0031-9422(90)85128-3|10.1016/0031-9422(90)85131-X|10.1016/0031-9422(90)85149-A|10.1016/0031-9422(90)85302-V|10.1016/0031-9422(90)85371-L|10.1016/0031-9422(91)80120-P|10.1016/0031-9422(91)80131-J|10.1016/0031-9422(91)83058-S|10.1016/0031-9422(91)83195-Q|10.1016/0031-9422(91)83494-6|10.1016/0031-9422(91)83613-P|10.1016/0031-9422(91)83679-F|10.1016/0031-9422(91)85027-W|10.1016/0031-9422(91)85048-5|10.1016/0031-9422(91)85053-3|10.1016/0031-9422(91)85119-K|10.1016/0031-9422(91)85128-M|10.1016/0031-9422(92)80400-9|10.1016/0031-9422(92)83157-T|10.1016/0031-9422(92)83268-4|10.1016/0031-9422(92)83305-I|10.1016/0031-9422(92)83452-5|10.1016/0031-9422(92)83742-H|10.1016/0031-9422(92)90045-R|10.1016/0031-9422(93)85092-6|10.1016/0031-9422(93)85192-T|10.1016/0031-9422(93)85293-Z|10.1016/0031-9422(93)85457-3|10.1016/0031-9422(94)00578-H|10.1016/0031-9422(94)00591-G|10.1016/0031-9422(94)00884-V|10.1016/0031-9422(94)00971-U|10.1016/0031-9422(94)85023-2|10.1016/0031-9422(95)00217-U|10.1016/0031-9422(95)00494-R|10.1016/0031-9422(95)00776-8|10.1016/0031-9422(96)00041-6|10.1016/0031-9422(96)00084-2|10.1016/0305-1978(87)90085-8|10.1016/0305-1978(88)90032-4|10.1016/0305-1978(88)90045-2|10.1016/0305-1978(88)90048-8|10.1016/0305-1978(88)90056-7|10.1016/0305-1978(88)90085-3|10.1016/0305-1978(88)90086-5|10.1016/0305-1978(89)90096-3|10.1016/0305-1978(90)90049-L|10.1016/0305-1978(90)90051-G|10.1016/0305-1978(90)90119-Z|10.1016/0305-1978(91)90084-D|10.1016/0305-1978(91)90088-H|10.1016/0305-1978(93)90049-W|10.1016/0305-1978(93)90051-R|10.1016/0305-1978(93)90060-5|10.1016/0305-1978(93)90061-U|10.1016/0305-1978(93)90062-V|10.1016/0305-1978(94)90058-2|10.1016/0305-1978(94)90062-0|10.1016/0305-1978(94)90092-2|10.1016/0305-1978(94)90119-8|10.1016/0305-1978(95)00017-O|10.1016/0305-1978(95)00044-U|10.1016/0305-1978(95)93663-N|10.1016/0305-1978(96)88877-6|10.1016/0378-8741(85)90026-1|10.1016/0378-8741(94)90098-1|10.1016/0734-9750(93)90042-L|10.1016/0960-894X(94)80015-4|10.1016/B978-0-12-818162-1.00043-2|10.1016/J.ARABJC.2011.05.013|10.1016/J.ARABJC.2013.12.011|10.1016/J.BMC.2007.01.035|10.1016/J.BMC.2009.02.057|10.1016/J.BMC.2009.08.036|10.1016/J.BMC.2015.04.053|10.1016/J.BMCL.2003.11.074|10.1016/J.BMCL.2007.10.054|10.1016/J.BMCL.2010.07.110|10.1016/J.BMCL.2011.03.078|10.1016/J.BSE.2012.10.013|10.1016/J.BSE.2014.02.015|10.1016/J.BSE.2014.05.015|10.1016/J.BSE.2015.01.015|10.1016/J.CARRES.2010.09.002|10.1016/J.CCLET.2009.10.028|10.1016/J.CHROMA.2004.11.030|10.1016/J.FITOTE.2004.09.019|10.1016/J.FITOTE.2009.06.006|10.1016/J.FITOTE.2009.07.004|10.1016/J.FITOTE.2009.12.005|10.1016/J.FITOTE.2010.01.011|10.1016/J.FITOTE.2010.05.012|10.1016/J.FITOTE.2010.12.003|10.1016/J.FITOTE.2011.10.007|10.1016/J.FITOTE.2011.11.023|10.1016/J.FOODCHEM.2006.08.014|10.1016/J.FOODCHEM.2009.03.042|10.1016/J.FOODCHEM.2020.128444|10.1016/J.HELIYON.2020.E04150|10.1016/J.INDCROP.2012.12.022|10.1016/J.JEP.2006.02.010|10.1016/J.JEP.2006.09.006|10.1016/J.JEP.2008.06.025|10.1016/J.JEP.2016.04.005|10.1016/J.JFCA.2003.09.010|10.1016/J.JFF.2015.12.019|10.1016/J.JHAZMAT.2018.11.065|10.1016/J.JPBA.2010.11.019|10.1016/J.JPBA.2019.03.056|10.1016/J.LWT.2018.02.024|10.1016/J.MATURITAS.2006.06.014|10.1016/J.PHYTOCHEM.2004.07.009|10.1016/J.PHYTOCHEM.2004.08.031|10.1016/J.PHYTOCHEM.2005.06.025|10.1016/J.PHYTOCHEM.2005.12.019|10.1016/J.PHYTOCHEM.2006.01.016|10.1016/J.PHYTOCHEM.2006.02.026|10.1016/J.PHYTOCHEM.2006.05.002|10.1016/J.PHYTOCHEM.2006.10.027|10.1016/J.PHYTOCHEM.2007.03.001|10.1016/J.PHYTOCHEM.2007.04.014|10.1016/J.PHYTOCHEM.2007.05.035|10.1016/J.PHYTOCHEM.2008.07.007|10.1016/J.PHYTOCHEM.2009.04.008|10.1016/J.PHYTOCHEM.2009.05.011|10.1016/J.PHYTOCHEM.2009.11.008|10.1016/J.PHYTOCHEM.2010.06.007|10.1016/J.PHYTOCHEM.2011.01.018|10.1016/J.PHYTOCHEM.2012.07.005|10.1016/J.PHYTOCHEM.2013.07.003|10.1016/J.PHYTOL.2011.07.005|10.1016/J.PHYTOL.2018.07.030|10.1016/J.PLAPHY.2015.04.008|10.1016/J.TET.2005.07.047|10.1016/S0003-2670(01)01241-7|10.1016/S0008-6215(02)00008-3|10.1016/S0014-2999(99)00723-2|10.1016/S0021-9673(01)88918-4|10.1016/S0021-9673(01)97678-2|10.1016/S0021-9673(97)00900-X|10.1016/S0021-9673(97)01042-X|10.1016/S0021-9673(97)01061-3|10.1016/S0031-9422(00)00290-9|10.1016/S0031-9422(00)00355-1|10.1016/S0031-9422(00)00439-8|10.1016/S0031-9422(00)00479-9|10.1016/S0031-9422(00)00480-5|10.1016/S0031-9422(00)80120-X|10.1016/S0031-9422(00)80359-3|10.1016/S0031-9422(00)81116-4|10.1016/S0031-9422(00)81143-7|10.1016/S0031-9422(00)81304-7|10.1016/S0031-9422(00)81506-X|10.1016/S0031-9422(00)81835-X|10.1016/S0031-9422(00)82372-9|10.1016/S0031-9422(00)82434-6|10.1016/S0031-9422(00)82535-2|10.1016/S0031-9422(00)83010-1|10.1016/S0031-9422(00)83207-0|10.1016/S0031-9422(00)83563-3|10.1016/S0031-9422(00)83767-X|10.1016/S0031-9422(00)83877-7|10.1016/S0031-9422(00)83891-1|10.1016/S0031-9422(00)84593-8|10.1016/S0031-9422(00)84889-X|10.1016/S0031-9422(00)84956-0|10.1016/S0031-9422(00)85282-6|10.1016/S0031-9422(00)85781-7|10.1016/S0031-9422(00)86815-6|10.1016/S0031-9422(00)86851-X|10.1016/S0031-9422(00)89581-3|10.1016/S0031-9422(00)89780-0|10.1016/S0031-9422(00)89801-5|10.1016/S0031-9422(00)90379-0|10.1016/S0031-9422(00)90415-1|10.1016/S0031-9422(00)90474-6|10.1016/S0031-9422(00)90483-7|10.1016/S0031-9422(00)90522-3|10.1016/S0031-9422(00)90672-1|10.1016/S0031-9422(00)90741-6|10.1016/S0031-9422(00)90814-8|10.1016/S0031-9422(00)91129-4|10.1016/S0031-9422(00)91410-9|10.1016/S0031-9422(00)95197-5|10.1016/S0031-9422(00)97033-X|10.1016/S0031-9422(00)97086-9|10.1016/S0031-9422(00)97104-8|10.1016/S0031-9422(00)97569-1|10.1016/S0031-9422(00)97572-1|10.1016/S0031-9422(00)97764-1|10.1016/S0031-9422(00)97993-7|10.1016/S0031-9422(00)98555-8|10.1016/S0031-9422(01)00176-5|10.1016/S0031-9422(02)00355-2|10.1016/S0031-9422(96)00430-X|10.1016/S0031-9422(96)00800-X|10.1016/S0031-9422(96)00801-1|10.1016/S0031-9422(97)00472-X|10.1016/S0031-9422(97)00555-4|10.1016/S0031-9422(97)00738-3|10.1016/S0031-9422(97)01003-0|10.1016/S0031-9422(97)01042-X|10.1016/S0031-9422(97)01053-4|10.1016/S0031-9422(97)01055-8|10.1016/S0031-9422(98)00048-X|10.1016/S0031-9422(99)00021-7|10.1016/S0031-9422(99)00110-7|10.1016/S0031-9422(99)00167-3|10.1016/S0031-9422(99)00286-1|10.1016/S0031-9422(99)00474-4|10.1016/S0176-1617(84)80075-9|10.1016/S0305-1978(00)00013-2|10.1016/S0305-1978(01)00023-0|10.1016/S0305-1978(01)00117-X|10.1016/S0305-1978(02)00027-3|10.1016/S0305-1978(02)00055-8|10.1016/S0305-1978(02)00162-X|10.1016/S0305-1978(02)00219-3|10.1016/S0305-1978(96)00081-6|10.1016/S0305-1978(97)00054-9|10.1016/S0305-1978(98)00077-5|10.1016/S0305-1978(98)00128-8|10.1016/S0305-1978(99)00015-0|10.1016/S0305-1978(99)00064-2|10.1016/S0305-1978(99)00121-0|10.1016/S0308-8146(00)00091-1|10.1016/S0308-8146(01)00114-5|10.1016/S0308-8146(98)00146-0|10.1016/S0367-326X(00)00155-6|10.1016/S0367-326X(00)00182-9|10.1016/S0367-326X(00)00185-4|10.1016/S0367-326X(01)00299-4|10.1016/S0367-326X(01)00327-6|10.1016/S0367-326X(02)00087-4|10.1016/S0367-326X(03)00056-X|10.1016/S0367-326X(03)00061-3|10.1016/S0367-326X(99)00010-6|10.1016/S0367-326X(99)00091-X|10.1016/S0367-326X(99)00108-2|10.1016/S0367-326X(99)00109-4|10.1016/S0367-326X(99)00112-4|10.1016/S0367-326X(99)00131-8|10.1016/S0378-8741(00)00265-8|10.1016/S0378-8741(00)00304-4|10.1016/S0378-8741(02)00172-1|10.1016/S0378-8741(99)00169-5|10.1016/S0731-7085(99)00152-1|10.1016/S0944-7113(00)80015-X|10.1016/S0963-9969(01)00083-7|10.1016/S0968-0896(02)00470-4|10.1016/S0969-2126(98)00029-X|10.1016/S1875-5364(11)60016-2|10.1016/j.bmc.2007.01.035|10.1016/j.bmc.2009.08.036|10.1016/j.bmc.2015.04.053|10.1016/j.bmc.2017.12.011|10.1016/j.bmcl.2003.11.074|10.1016/j.bmcl.2009.07.098|10.1016/j.bmcl.2011.03.078|10.1016/j.foodchem.2009.03.042|10.1016/j.foodchem.2020.128444|10.1016/j.freeradbiomed.2004.04.034|10.1016/j.jep.2006.09.006|10.1016/j.jep.2007.10.011|10.1016/j.jep.2016.04.005|10.1017/CBO9781139095655.005|10.1017/S0007114511004272|10.1021/ACS.JNATPROD.6B00839|10.1021/ACS.JNATPROD.9B00697.S001|10.1021/ACS.JNATPROD.9B00759|10.1021/JF00024A011|10.1021/JF00032A015|10.1021/JF000661F|10.1021/JF00108A021|10.1021/JF010697N|10.1021/JF011682S|10.1021/JF035300P|10.1021/JF040083T|10.1021/JF0508044|10.1021/JF0602267|10.1021/JF061477I|10.1021/JF061478A|10.1021/JF0617925|10.1021/JF400779W|10.1021/JF801792N|10.1021/JF9012295|10.1021/JF904596M|10.1021/JF960339Y|10.1021/JF9711045|10.1021/JF9801264|10.1021/JF9906679|10.1021/NP000256I|10.1021/NP010128+|10.1021/NP020135D|10.1021/NP020233Z|10.1021/NP020238W|10.1021/NP020346I|10.1021/NP020472M|10.1021/NP0205349|10.1021/NP030273I|10.1021/NP0498657|10.1021/NP0500272|10.1021/NP050060O|10.1021/NP050084V|10.1021/NP0580210|10.1021/NP058084I|10.1021/NP070013R|10.1021/NP0700164|10.1021/NP070327E|10.1021/NP0704452|10.1021/NP070489A|10.1021/NP070594K|10.1021/NP1002516|10.1021/NP100896W|10.1021/NP500150F|10.1021/NP50015A010|10.1021/NP50019A012|10.1021/NP50020A005|10.1021/NP50021A025|10.1021/NP50022A009|10.1021/NP50028A034|10.1021/NP50030A007|10.1021/NP50030A026|10.1021/NP50035A034|10.1021/NP50036A047|10.1021/NP50038A017|10.1021/NP50039A027|10.1021/NP50041A040|10.1021/NP50043A029|10.1021/NP50044A034|10.1021/NP50045A043|10.1021/NP50048A050|10.1021/NP50050A009|10.1021/NP50077A010|10.1021/NP50096A023|10.1021/NP50108A017|10.1021/NP50114A013|10.1021/NP50125A006|10.1021/NP800002Z|10.1021/NP800014S|10.1021/NP800016E|10.1021/NP800079C|10.1021/NP800147Z|10.1021/NP8005259|10.1021/NP800564Z|10.1021/NP800643N|10.1021/NP900026Q|10.1021/NP900117V|10.1021/NP9004129|10.1021/NP9601925|10.1021/NP970025K|10.1021/NP980112S|10.1021/NP980536M|10.1021/NP990033W|10.1021/acs.jnatprod.0c00756|10.1021/acs.jnatprod.6b00440|10.1021/acs.jnatprod.7b00325|10.1021/acs.jnatprod.9b00577|10.1021/acs.jnatprod.9b00697|10.1021/acs.jnatprod.9b00922|10.1021/jf0508044|10.1021/np010486c|10.1021/np020472m|10.1021/np030020p|10.1021/np070327e|10.1021/np070489a|10.1021/np100896w|10.1021/np400674t|10.1021/np500150f|10.1021/np500233t|10.1021/np50035a034|10.1021/np50096a027|10.1021/np50103a006|10.1021/np900117v|10.1021/np900772m|10.1021/np970025k|10.1021/np980536m|10.1021/np990033w|10.1023/B:CONC.0000018105.23722.7D|10.1023/B:CONC.0000025456.09089.84|10.1023/B:CONC.0000033944.13290.EF|10.1034/J.1399-3054.1999.100301.X|10.1039/CT9140501829|10.1042/BJ0070087|10.1042/BJ0070441|10.1042/BJ0080204|10.1046/J.1432-1033.2003.03729.X|10.1055/S-0028-1097371|10.1055/S-0028-1097462|10.1055/S-0028-1097486|10.1055/S-0028-1097749|10.1055/S-0028-1097913|10.1055/S-0029-1240814|10.1055/S-0033-1352160|10.1055/S-0035-1545201|10.1055/S-2000-5957|10.1055/S-2000-8547|10.1055/S-2003-37712|10.1055/S-2003-39705|10.1055/S-2003-43207|10.1055/S-2003-45105|10.1055/S-2004-815494|10.1055/S-2004-818920|10.1055/S-2005-873163|10.1055/S-2005-873181|10.1055/S-2006-957470|10.1055/S-2006-957497|10.1055/S-2006-957738|10.1055/S-2006-957782|10.1055/S-2006-957855|10.1055/S-2006-958058|10.1055/S-2006-958064|10.1055/S-2006-958121|10.1055/S-2006-958150|10.1055/S-2006-959378|10.1055/S-2006-959387|10.1055/S-2006-959423|10.1055/S-2006-959727|10.1055/S-2006-959756|10.1055/S-2006-959763|10.1055/S-2006-960835|10.1055/S-2006-960920|10.1055/S-2006-960936|10.1055/S-2006-961182|10.1055/S-2006-961706|10.1055/S-2006-962089|10.1055/S-2006-962330|10.1055/S-2006-962463|10.1055/S-2006-962505|10.1055/S-2006-962613|10.1055/S-2006-962617|10.1055/S-2006-962750|10.1055/S-2006-962790|10.1055/S-2006-962793|10.1055/S-2007-969188|10.1055/S-2007-969311|10.1055/S-2007-969314|10.1055/S-2007-969379|10.1055/S-2007-969549|10.1055/S-2007-969735|10.1055/S-2007-987153|10.1055/S-2008-1074547|10.1055/S-2008-1074558|10.1055/S-2008-1074990|10.1071/ch9640428|10.1071/ch9681311|10.1076/PHBI.36.5.362.4654|10.1076/PHBI.40.4.245.8472|10.1076/PHBI.41.5.375.15938|10.1078/0944-7113-00342|10.1078/0944-7113-00381|10.1078/094471102321621386|10.1080/00021369.1975.10861937|10.1080/00021369.1981.10864793|10.1080/01635580802100851|10.1080/03758397.1934.10857086|10.1080/10286020.2010.533120|10.1080/10286020.2010.544254|10.1080/10286020.2011.644714|10.1080/1028602021000000053|10.1080/1028602042000324826|10.1080/10286020701273627|10.1080/10286020903128942|10.1080/10412905.1993.9698204|10.1080/10412905.2000.9712049|10.1080/13880200600591758|10.1080/14786410310001620574|10.1080/14786410310001620673|10.1080/14786410601130646|10.1080/14786410903313106|10.1080/14786411003754306|10.1080/14786411003766888|10.1080/14786419.2010.518146|10.1080/14786419.2010.534995|10.1080/14786419.2011.587188|10.1080/14786419.2011.606219|10.1081/JLC-100100511|10.1081/JLC-100101655|10.1081/JLC-100102074|10.1081/JLC-100103396|10.1086/325089|10.1089/JMF.2006.9.55|10.1093/CHROMSCI/BMY030|10.1093/carcin/bgn244|10.1093/pcp/pcn183|10.1097/MPA.0b013e3181735ccb|10.1097/MPA.0b013e318193a074|10.1104/PP.100.1.444|10.1104/PP.69.2.522|10.1111/1750-3841.12404|10.1111/1750-3841.15164|10.1111/1750-3841.15463|10.1111/J.1095-8339.1984.TB02563.X|10.1111/J.1745-4557.2006.00096.X|10.1111/JIPB.12204|10.1111/j.1750-3841.2008.00716.x|10.1135/CCCC19540805|10.1135/CCCC19883193|10.1139/B88-260|10.1155/2016/9521349|10.1155/2019/7010467|10.1158/1535-7163.MCT-05-0370|10.1159/000090736|10.1186/s12906-015-0838-6|10.1186/s12906-015-0873-3|10.1186/s12934-016-0623-3|10.1211/146080899128735009|10.1246/NIKKASHI.1992.423|10.1248/BPB.17.1029|10.1248/BPB.18.463|10.1248/BPB.25.875|10.1248/BPB.26.1031|10.1248/BPB.30.1123|10.1248/BPB.34.160|10.1248/CPB.17.124|10.1248/CPB.26.1437|10.1248/CPB.28.1894|10.1248/CPB.29.254|10.1248/CPB.31.3984|10.1248/CPB.31.919|10.1248/CPB.33.4091|10.1248/CPB.33.5075|10.1248/CPB.36.3654|10.1248/CPB.37.2136|10.1248/CPB.37.794|10.1248/CPB.38.3488|10.1248/CPB.39.199|10.1248/CPB.39.3272|10.1248/CPB.40.689|10.1248/CPB.47.571|10.1248/CPB.49.1479|10.1248/CPB.51.595|10.1248/CPB.53.1111|10.1248/CPB.53.1416|10.1248/CPB.53.86|10.1248/CPB.53.907|10.1248/CPB.54.1728|10.1248/CPB.55.1532|10.1248/CPB.55.1597|10.1248/CPB.56.1047|10.1248/CPB.56.1477|10.1248/CPB.56.189|10.1248/CPB.56.559|10.1248/CPB.56.585|10.1248/CPB.56.592|10.1248/CPB.56.695|10.1248/CPB.56.97|10.1248/CPB.57.245|10.1248/CPB.58.1116|10.1248/CPB.58.1646|10.1248/CPB.58.394|10.1248/CPB.58.859|10.1248/CPB.59.1535|10.1248/CPB.59.653|10.1248/CPB.60.129|10.1248/CPB.60.306|10.1248/CPB.60.397|10.1248/YAKUSHI1881.52.8_83|10.1248/YAKUSHI1947.103.9_997|10.1248/YAKUSHI1947.104.4_418|10.1248/YAKUSHI1947.104.5_529|10.1248/YAKUSHI1947.104.5_535|10.1248/YAKUSHI1947.105.5_442|10.1248/YAKUSHI1947.105.6_542|10.1248/YAKUSHI1947.109.3_175|10.1271/BBB.67.2091|10.1271/BBB1961.39.2237|10.1371/JOURNAL.PONE.0219973|10.1371/journal.pone.0107072|10.14233/AJCHEM.2019.21530|10.1515/ZNB-2003-0713|10.1515/ZNB-2005-0316|10.1515/ZNB-2007-1117|10.1515/ZNB-2009-0415|10.1515/ZNB-2010-1117|10.1515/ZNC-1983-7-826|10.1515/ZNC-1984-11-1233|10.1515/ZNC-1984-3-418|10.1515/ZNC-1986-1-214|10.1515/ZNC-1987-1-212|10.1515/ZNC-1987-9-1004|10.1515/ZNC-1988-5-603|10.1515/ZNC-1991-1-207|10.1515/ZNC-1992-1-204|10.1515/ZNC-1992-9-1025|10.1515/ZNC-1994-9-1022|10.1515/ZNC-1995-5-604|10.1515/ZNC-1996-5-606|10.1515/ZNC-1997-3-401|10.1515/ZNC-1997-7-803|10.1515/ZNC-1998-11-1202|10.1515/ZNC-2000-1-203|10.1515/ZNC-2001-9-1012|10.1515/ZNC-2002-11-1203|10.1515/ZNC-2003-3-401|10.15228/2012.V02.I01.P04|10.1556/AALIM.29.2000.4.4|10.1556/AALIM.31.2002.1.7|10.1590/S0102-695X2008000200006|10.1590/S0103-50532004000400004|10.21608/BFSA.1985.75705|10.21608/BFSA.1995.69671|10.21608/BFSA.1997.68756|10.21608/BFSA.1998.67958|10.21608/BFSA.2002.65511|10.21608/BFSA.2003.65472|10.21608/ZJPS.1994.186742|10.21608/ZJPS.1996.185015|10.2298/HEMIND0704272R|10.2307/3243844|10.3109/13880208709055202|10.3109/13880208709060924|10.3109/13880208909053946|10.3109/13880209109082898|10.3109/13880209309082934|10.3109/13880209409083017|10.3184/030823402103171960|10.3390/50300605|10.3390/IJMS19041049|10.3390/MOLECULES14104190|10.3390/MOLECULES16054020|10.3390/MOLECULES16108305|10.3390/MOLECULES21111576|10.3390/NU11020402|10.3390/plants11030377|10.3724/SP.J.1009.2008.00251|10.3724/SP.J.1009.2012.00084|10.3724/SP.J.1009.2013.00260|10.3724/SP.J.1145.2011.00350|10.3746/JFN.2003.8.4.330|10.3746/JKFN.2006.35.6.713|10.3797/SCIPHARM.AUT-00-39|10.38212/2224-6614.2810|10.3987/COM-01-9190|10.3998/ARK.5550190.0011.213|10.4014/JMB.1108.08012|10.4014/jmb.1108.08012|10.4268/CJCMM20111611|10.4268/CJCMM20120313|10.4268/CJCMM20121914|10.4268/CJCMM20131021|10.4268/CJCMM20150818|10.4268/CJCMM20160315|10.4268/CJCMM20160518|10.4314/NJNPM.V6I1.11694|10.5012/BKCS.2010.31.01.227|10.5424/SJAR/2005031-130|10.5530/PJ.2014.3.6|10.5586/AM.1968.006|10.5586/ASBP.1988.009|10.5586/ASBP.1998.030|10.5772/INTECHOPEN.75648|10.5897/JMPR.9000078|10.5962/BHL.TITLE.156477

>  <synonyms>  (1121) 
nan

>  <cas>  (1121) 
520-36-5|8002-66-2

$$$$

     RDKit          2D

 17 18  0  0  0  0  0  0  0  0999 V2000
   -5.1962   -0.1765    0.0000 C   0  0  0  0  0  0  0  0  0  0  0  0
   -3.8971    0.5735    0.0000 O   0  0  0  0  0  0  0  0  0  0  0  0
   -2.5981   -0.1765    0.0000 C   0  0  0  0  0  0  0  0  0  0  0  0
   -2.5981   -1.6765    0.0000 O   0  0  0  0  0  0  0  0  0  0  0  0
   -1.2990    0.5735    0.0000 C   0  0  0  0  0  0  0  0  0  0  0  0
   -1.2990    2.0735    0.0000 C   0  0  0  0  0  0  0  0  0  0  0  0
    0.0000    2.8235    0.0000 O   0  0  0  0  0  0  0  0  0  0  0  0
    1.2990    2.0735    0.0000 C   0  0  0  0  0  0  0  0  0  0  0  0
    2.5981    2.8235    0.0000 O   0  0  0  0  0  0  0  0  0  0  0  0
    1.2990    0.5735    0.0000 C   0  0  0  0  0  0  0  0  0  0  0  0
    2.5981   -0.1765    0.0000 C   0  0  0  0  0  0  0  0  0  0  0  0
    3.8971    0.5735    0.0000 C   0  0  0  0  0  0  0  0  0  0  0  0
    2.5981   -1.6765    0.0000 O   0  0  0  0  0  0  0  0  0  0  0  0
    1.2990   -2.4265    0.0000 C   0  0  0  0  0  0  0  0  0  0  0  0
    1.2990   -3.9265    0.0000 O   0  0  0  0  0  0  0  0  0  0  0  0
   -0.0000   -1.6765    0.0000 C   0  0  0  0  0  0  0  0  0  0  0  0
   -0.0000   -0.1765    0.0000 C   0  0  0  0  0  0  0  0  0  0  0  0
  1  2  1  0
  2  3  1  0
  3  4  2  0
  3  5  1  0
  5  6  2  0
  6  7  1  0
  7  8  1  0
  8  9  1  0
 10  8  1  6
 10 11  1  0
 11 12  1  6
 11 13  1  0
 13 14  1  0
 14 15  2  0
 14 16  1  0
 17 16  1  6
 17  5  1  0
 17 10  1  0
M  END
>  <identifier>  (1122) 
CNP0269326.1

>  <canonical_smiles>  (1122) 
COC(=O)C1=COC(O)[C@@H]2[C@H](C)OC(=O)C[C@H]12

>  <standard_inchi>  (1122) 
InChI=1S/C11H14O6/c1-5-9-6(3-8(12)17-5)7(10(13)15-2)4-16-11(9)14/h4-6,9,11,14H,3H2,1-2H3/t5-,6+,9+,11?/m0/s1

>  <standard_inchi_key>  (1122) 
COZKAJSKOQAWLF-SRANZBGRSA-N

>  <name>  (1122) 
nan

>  <iupac_name>  (1122) 
methyl (1~{S},4~{a}~{S},8~{a}~{S})-8-hydroxy-1-methyl-3-oxo-4,4~{a},8,8~{a}-tetrahydro-1~{H}-pyrano[3,4-c]pyran-5-carboxylate

>  <annotation_level>  (1122) 
4

>  <total_atom_count>  (1122) 
31

>  <heavy_atom_count>  (1122) 
17

>  <molecular_weight>  (1122) 
242.23

>  <exact_molecular_weight>  (1122) 
242.07904

>  <molecular_formula>  (1122) 
C11H14O6

>  <alogp>  (1122) 
-0.04

>  <topological_polar_surface_area>  (1122) 
82.06

>  <rotatable_bond_count>  (1122) 
1

>  <hydrogen_bond_acceptors>  (1122) 
6

>  <hydrogen_bond_donors>  (1122) 
1

>  <hydrogen_bond_acceptors_lipinski>  (1122) 
6

>  <hydrogen_bond_donors_lipinski>  (1122) 
1

>  <lipinski_rule_of_five_violations>  (1122) 
0

>  <aromatic_rings_count>  (1122) 
0

>  <qed_drug_likeliness>  (1122) 
0.65

>  <formal_charge>  (1122) 
0

>  <fractioncsp3>  (1122) 
0.64

>  <number_of_minimal_rings>  (1122) 
2

>  <van_der_walls_volume>  (1122) 
nan

>  <contains_sugar>  (1122) 
False

>  <contains_ring_sugars>  (1122) 
False

>  <contains_linear_sugars>  (1122) 
False

>  <murcko_framework>  (1122) 
O1C=CC2CCOCC2C1

>  <np_likeness>  (1122) 
2.63

>  <chemical_class>  (1122) 
Lactones

>  <chemical_sub_class>  (1122) 
Delta valerolactones

>  <chemical_super_class>  (1122) 
Organoheterocyclic compounds

>  <direct_parent_classification>  (1122) 
Delta valerolactones

>  <np_classifier_pathway>  (1122) 
Terpenoids

>  <np_classifier_superclass>  (1122) 
Monoterpenoids

>  <np_classifier_class>  (1122) 
Secoiridoid monoterpenoids

>  <np_classifier_is_glycoside>  (1122) 
True

>  <organisms>  (1122) 
Calycophyllum spruceanum

>  <collections>  (1122) 
Latin America dataset|NuBBEDB|WikiData Natural Products

>  <dois>  (1122) 
10.1016/S0031-9422(03)00153-5

>  <synonyms>  (1122) 
Kingiside

>  <cas>  (1122) 
nan

$$$$

     RDKit          2D

 30 33  0  0  0  0  0  0  0  0999 V2000
    7.0171    3.1724    0.0000 C   0  0  0  0  0  0  0  0  0  0  0  0
    5.5493    2.8635    0.0000 O   0  0  0  0  0  0  0  0  0  0  0  0
    5.0828    1.4379    0.0000 C   0  0  0  0  0  0  0  0  0  0  0  0
    6.0842    0.3211    0.0000 C   0  0  0  0  0  0  0  0  0  0  0  0
    7.5521    0.6300    0.0000 O   0  0  0  0  0  0  0  0  0  0  0  0
    5.6177   -1.1045    0.0000 C   0  0  0  0  0  0  0  0  0  0  0  0
    6.6191   -2.2213    0.0000 O   0  0  0  0  0  0  0  0  0  0  0  0
    6.1527   -3.6469    0.0000 C   0  0  0  0  0  0  0  0  0  0  0  0
    4.1499   -1.4133    0.0000 C   0  0  0  0  0  0  0  0  0  0  0  0
    3.1485   -0.2966    0.0000 C   0  0  0  0  0  0  0  0  0  0  0  0
    1.6806   -0.6054    0.0000 C   0  0  0  0  0  0  0  0  0  0  0  0
    1.0677   -1.9745    0.0000 O   0  0  0  0  0  0  0  0  0  0  0  0
   -0.4238   -1.8146    0.0000 C   0  0  0  0  0  0  0  0  0  0  0  0
   -0.7326   -0.3467    0.0000 C   0  0  0  0  0  0  0  0  0  0  0  0
    0.5680    0.4006    0.0000 C   0  0  0  0  0  0  0  0  0  0  0  0
    0.2591    1.8685    0.0000 C   0  0  0  0  0  0  0  0  0  0  0  0
   -1.2323    2.0283    0.0000 O   0  0  0  0  0  0  0  0  0  0  0  0
   -1.8452    0.6593    0.0000 C   0  0  0  0  0  0  0  0  0  0  0  0
   -3.3131    0.3504    0.0000 C   0  0  0  0  0  0  0  0  0  0  0  0
   -4.3145    1.4672    0.0000 C   0  0  0  0  0  0  0  0  0  0  0  0
   -5.7824    1.1584    0.0000 C   0  0  0  0  0  0  0  0  0  0  0  0
   -6.7838    2.2751    0.0000 O   0  0  0  0  0  0  0  0  0  0  0  0
   -6.3173    3.7008    0.0000 C   0  0  0  0  0  0  0  0  0  0  0  0
   -6.2488   -0.2673    0.0000 C   0  0  0  0  0  0  0  0  0  0  0  0
   -7.7167   -0.5761    0.0000 O   0  0  0  0  0  0  0  0  0  0  0  0
   -5.2474   -1.3841    0.0000 C   0  0  0  0  0  0  0  0  0  0  0  0
   -5.7139   -2.8097    0.0000 O   0  0  0  0  0  0  0  0  0  0  0  0
   -4.7125   -3.9265    0.0000 C   0  0  0  0  0  0  0  0  0  0  0  0
   -3.7796   -1.0752    0.0000 C   0  0  0  0  0  0  0  0  0  0  0  0
    3.6150    1.1291    0.0000 C   0  0  0  0  0  0  0  0  0  0  0  0
  1  2  1  0
  2  3  1  0
  3  4  2  0
  4  5  1  0
  4  6  1  0
  6  7  1  0
  7  8  1  0
  6  9  2  0
  9 10  1  0
 11 10  1  1
 11 12  1  0
 12 13  1  0
 13 14  1  0
 14 15  1  0
 15 16  1  0
 16 17  1  0
 17 18  1  0
 18 19  1  1
 19 20  2  0
 20 21  1  0
 21 22  1  0
 22 23  1  0
 21 24  2  0
 24 25  1  0
 24 26  1  0
 26 27  1  0
 27 28  1  0
 26 29  2  0
 10 30  2  0
 30  3  1  0
 15 11  1  0
 29 19  1  0
 18 14  1  0
M  END
>  <identifier>  (1123) 
CNP0249408.10

>  <canonical_smiles>  (1123) 
COC1=C(O)C(OC)=CC([C@H]2OCC3C2CO[C@@H]3C2=CC(OC)=C(O)C(OC)=C2)=C1

>  <standard_inchi>  (1123) 
InChI=1S/C22H26O8/c1-25-15-5-11(6-16(26-2)19(15)23)21-13-9-30-22(14(13)10-29-21)12-7-17(27-3)20(24)18(8-12)28-4/h5-8,13-14,21-24H,9-10H2,1-4H3/t13?,14?,21-,22-/m1/s1

>  <standard_inchi_key>  (1123) 
KOWMJRJXZMEZLD-HICDVDAHSA-N

>  <name>  (1123) 
nan

>  <iupac_name>  (1123) 
4-[(3~{S},6~{S})-6-(4-hydroxy-3,5-dimethoxy-phenyl)-1,3,3~{a},4,6,6~{a}-hexahydrofuro[3,4-c]furan-3-yl]-2,6-dimethoxy-phenol

>  <annotation_level>  (1123) 
4

>  <total_atom_count>  (1123) 
56

>  <heavy_atom_count>  (1123) 
30

>  <molecular_weight>  (1123) 
418.44

>  <exact_molecular_weight>  (1123) 
418.16277

>  <molecular_formula>  (1123) 
C22H26O8

>  <alogp>  (1123) 
3.21

>  <topological_polar_surface_area>  (1123) 
95.84

>  <rotatable_bond_count>  (1123) 
6

>  <hydrogen_bond_acceptors>  (1123) 
8

>  <hydrogen_bond_donors>  (1123) 
2

>  <hydrogen_bond_acceptors_lipinski>  (1123) 
8

>  <hydrogen_bond_donors_lipinski>  (1123) 
2

>  <lipinski_rule_of_five_violations>  (1123) 
0

>  <aromatic_rings_count>  (1123) 
2

>  <qed_drug_likeliness>  (1123) 
0.74

>  <formal_charge>  (1123) 
0

>  <fractioncsp3>  (1123) 
0.46

>  <number_of_minimal_rings>  (1123) 
4

>  <van_der_walls_volume>  (1123) 
nan

>  <contains_sugar>  (1123) 
False

>  <contains_ring_sugars>  (1123) 
False

>  <contains_linear_sugars>  (1123) 
False

>  <murcko_framework>  (1123) 
O1CC2C(OCC2C1c3ccccc3)c4ccccc4

>  <np_likeness>  (1123) 
0.84

>  <chemical_class>  (1123) 
Furanoid lignans

>  <chemical_sub_class>  (1123) 
Furan lignans

>  <chemical_super_class>  (1123) 
Lignans, neolignans and related compounds

>  <direct_parent_classification>  (1123) 
Furan lignans

>  <np_classifier_pathway>  (1123) 
Shikimates and Phenylpropanoids

>  <np_classifier_superclass>  (1123) 
Lignans

>  <np_classifier_class>  (1123) 
Furofuranoid lignans

>  <np_classifier_is_glycoside>  (1123) 
False

>  <organisms>  (1123) 
Styrax camporum

>  <collections>  (1123) 
Latin America dataset|NuBBEDB|WikiData Natural Products

>  <dois>  (1123) 
10.1080/14786410412331271979

>  <synonyms>  (1123) 
Syringaresinol

>  <cas>  (1123) 
nan

$$$$

     RDKit          2D

 29 33  0  0  0  0  0  0  0  0999 V2000
    4.0795   -3.0286    0.0000 C   0  0  0  0  0  0  0  0  0  0  0  0
    2.5856   -3.1637    0.0000 C   0  0  0  0  0  0  0  0  0  0  0  0
    2.9780   -4.6114    0.0000 C   0  0  0  0  0  0  0  0  0  0  0  0
    1.2279   -3.8015    0.0000 C   0  0  0  0  0  0  0  0  0  0  0  0
   -0.0033   -2.9447    0.0000 C   0  0  0  0  0  0  0  0  0  0  0  0
    0.1232   -1.4501    0.0000 C   0  0  0  0  0  0  0  0  0  0  0  0
    1.4808   -0.8122    0.0000 C   0  0  0  0  0  0  0  0  0  0  0  0
    2.7120   -1.6690    0.0000 O   0  0  0  0  0  0  0  0  0  0  0  0
    1.6072    0.6825    0.0000 C   0  0  0  0  0  0  0  0  0  0  0  0
    2.9648    1.3203    0.0000 C   0  0  0  0  0  0  0  0  0  0  0  0
    4.1960    0.4635    0.0000 C   0  0  0  0  0  0  0  0  0  0  0  0
    5.5537    1.1013    0.0000 C   0  0  0  0  0  0  0  0  0  0  0  0
    5.6801    2.5960    0.0000 C   0  0  0  0  0  0  0  0  0  0  0  0
    4.4489    3.4528    0.0000 C   0  0  0  0  0  0  0  0  0  0  0  0
    3.0913    2.8150    0.0000 C   0  0  0  0  0  0  0  0  0  0  0  0
    0.3760    1.5393    0.0000 C   0  0  0  0  0  0  0  0  0  0  0  0
    0.5024    3.0339    0.0000 O   0  0  0  0  0  0  0  0  0  0  0  0
   -0.9816    0.9014    0.0000 C   0  0  0  0  0  0  0  0  0  0  0  0
   -1.1080   -0.5932    0.0000 C   0  0  0  0  0  0  0  0  0  0  0  0
   -2.4657   -1.2311    0.0000 N   0  0  0  0  0  0  0  0  0  0  0  0
   -3.6969   -0.3743    0.0000 C   0  0  0  0  0  0  0  0  0  0  0  0
   -5.0545   -1.0121    0.0000 C   0  0  0  0  0  0  0  0  0  0  0  0
   -5.1809   -2.5068    0.0000 O   0  0  0  0  0  0  0  0  0  0  0  0
   -6.2857   -0.1553    0.0000 C   0  0  0  0  0  0  0  0  0  0  0  0
   -6.1593    1.3394    0.0000 C   0  0  0  0  0  0  0  0  0  0  0  0
   -4.8017    1.9772    0.0000 C   0  0  0  0  0  0  0  0  0  0  0  0
   -3.5705    1.1204    0.0000 C   0  0  0  0  0  0  0  0  0  0  0  0
   -2.2128    1.7582    0.0000 C   0  0  0  0  0  0  0  0  0  0  0  0
   -2.0864    3.2529    0.0000 O   0  0  0  0  0  0  0  0  0  0  0  0
  1  2  1  0
  2  3  1  0
  2  4  1  0
  4  5  2  0
  5  6  1  0
  6  7  2  0
  7  8  1  0
  7  9  1  0
  9 10  1  0
 10 11  2  0
 11 12  1  0
 12 13  2  0
 13 14  1  0
 14 15  2  0
  9 16  2  0
 16 17  1  0
 16 18  1  0
 18 19  2  0
 19 20  1  0
 20 21  1  0
 21 22  2  0
 22 23  1  0
 22 24  1  0
 24 25  2  0
 25 26  1  0
 26 27  2  0
 27 28  1  0
 28 29  2  0
  8  2  1  0
 15 10  1  0
 28 18  1  0
 19  6  1  0
 27 21  1  0
M  END
>  <identifier>  (1124) 
CNP0419866.0

>  <canonical_smiles>  (1124) 
CC1(C)C=CC2=C(O1)C(C1=CC=CC=C1)=C(O)C1=C2NC2=C(O)C=CC=C2C1=O

>  <standard_inchi>  (1124) 
InChI=1S/C24H19NO4/c1-24(2)12-11-15-20-18(21(27)14-9-6-10-16(26)19(14)25-20)22(28)17(23(15)29-24)13-7-4-3-5-8-13/h3-12,26,28H,1-2H3,(H,25,27)

>  <standard_inchi_key>  (1124) 
OKQCZZWIGHSNHJ-UHFFFAOYSA-N

>  <name>  (1124) 
nan

>  <iupac_name>  (1124) 
6,11-dihydroxy-3,3-dimethyl-5-phenyl-12~{H}-pyrano[2,3-c]acridin-7-one

>  <annotation_level>  (1124) 
4

>  <total_atom_count>  (1124) 
48

>  <heavy_atom_count>  (1124) 
29

>  <molecular_weight>  (1124) 
385.42

>  <exact_molecular_weight>  (1124) 
385.13141

>  <molecular_formula>  (1124) 
C24H19NO4

>  <alogp>  (1124) 
4.94

>  <topological_polar_surface_area>  (1124) 
82.55

>  <rotatable_bond_count>  (1124) 
1

>  <hydrogen_bond_acceptors>  (1124) 
4

>  <hydrogen_bond_donors>  (1124) 
3

>  <hydrogen_bond_acceptors_lipinski>  (1124) 
4

>  <hydrogen_bond_donors_lipinski>  (1124) 
3

>  <lipinski_rule_of_five_violations>  (1124) 
0

>  <aromatic_rings_count>  (1124) 
4

>  <qed_drug_likeliness>  (1124) 
0.41

>  <formal_charge>  (1124) 
0

>  <fractioncsp3>  (1124) 
0.13

>  <number_of_minimal_rings>  (1124) 
5

>  <van_der_walls_volume>  (1124) 
nan

>  <contains_sugar>  (1124) 
False

>  <contains_ring_sugars>  (1124) 
False

>  <contains_linear_sugars>  (1124) 
False

>  <murcko_framework>  (1124) 
O1c2c(C=CC1)c3Nc4ccccc4Cc3cc2-c5ccccc5

>  <np_likeness>  (1124) 
1.82

>  <chemical_class>  (1124) 
Quinolines and derivatives

>  <chemical_sub_class>  (1124) 
Phenylquinolines

>  <chemical_super_class>  (1124) 
Organoheterocyclic compounds

>  <direct_parent_classification>  (1124) 
Phenylquinolines

>  <np_classifier_pathway>  (1124) 
Alkaloids

>  <np_classifier_superclass>  (1124) 
Anthranilic acid alkaloids

>  <np_classifier_class>  (1124) 
Acridone alkaloids

>  <np_classifier_is_glycoside>  (1124) 
False

>  <organisms>  (1124) 
Swinglea glutinosa

>  <collections>  (1124) 
Latin America dataset|NuBBEDB|WikiData Natural Products

>  <dois>  (1124) 
10.1080/14786410600907002

>  <synonyms>  (1124) 
atalaphyllinine

>  <cas>  (1124) 
nan

$$$$

     RDKit          2D

 18 20  0  0  0  0  0  0  0  0999 V2000
    4.6421   -2.1858    0.0000 C   0  0  0  0  0  0  0  0  0  0  0  0
    4.3603   -0.7126    0.0000 O   0  0  0  0  0  0  0  0  0  0  0  0
    2.9435   -0.2200    0.0000 C   0  0  0  0  0  0  0  0  0  0  0  0
    1.8085   -1.2007    0.0000 C   0  0  0  0  0  0  0  0  0  0  0  0
    0.3917   -0.7082    0.0000 C   0  0  0  0  0  0  0  0  0  0  0  0
   -0.7433   -1.6889    0.0000 C   0  0  0  0  0  0  0  0  0  0  0  0
   -2.1601   -1.1964    0.0000 C   0  0  0  0  0  0  0  0  0  0  0  0
   -3.2951   -2.1771    0.0000 O   0  0  0  0  0  0  0  0  0  0  0  0
   -3.0133   -3.6504    0.0000 C   0  0  0  0  0  0  0  0  0  0  0  0
   -2.4420    0.2769    0.0000 C   0  0  0  0  0  0  0  0  0  0  0  0
   -3.7254    1.0533    0.0000 O   0  0  0  0  0  0  0  0  0  0  0  0
   -3.3837    2.5138    0.0000 C   0  0  0  0  0  0  0  0  0  0  0  0
   -1.8890    2.6401    0.0000 C   0  0  0  0  0  0  0  0  0  0  0  0
   -1.3070    1.2577    0.0000 C   0  0  0  0  0  0  0  0  0  0  0  0
    0.1098    0.7651    0.0000 C   0  0  0  0  0  0  0  0  0  0  0  0
    1.2448    1.7458    0.0000 O   0  0  0  0  0  0  0  0  0  0  0  0
    2.6616    1.2533    0.0000 C   0  0  0  0  0  0  0  0  0  0  0  0
    3.7966    2.2340    0.0000 O   0  0  0  0  0  0  0  0  0  0  0  0
  1  2  1  0
  2  3  1  0
  3  4  2  0
  4  5  1  0
  5  6  2  0
  6  7  1  0
  7  8  1  0
  8  9  1  0
  7 10  2  0
 10 11  1  0
 11 12  1  0
 12 13  2  0
 13 14  1  0
 14 15  2  0
 15 16  1  0
 16 17  1  0
 17 18  2  0
 17  3  1  0
 15  5  1  0
 14 10  1  0
M  END
>  <identifier>  (1125) 
CNP0297148.0

>  <canonical_smiles>  (1125) 
COC1=CC2=CC(OC)=C3OC=CC3=C2OC1=O

>  <standard_inchi>  (1125) 
InChI=1S/C13H10O5/c1-15-9-5-7-6-10(16-2)13(14)18-11(7)8-3-4-17-12(8)9/h3-6H,1-2H3

>  <standard_inchi_key>  (1125) 
YKWJIXYVRWNDRX-UHFFFAOYSA-N

>  <name>  (1125) 
nan

>  <iupac_name>  (1125) 
3,6-dimethoxyfuro[2,3-h]chromen-2-one

>  <annotation_level>  (1125) 
4

>  <total_atom_count>  (1125) 
28

>  <heavy_atom_count>  (1125) 
18

>  <molecular_weight>  (1125) 
246.22

>  <exact_molecular_weight>  (1125) 
246.05282

>  <molecular_formula>  (1125) 
C13H10O5

>  <alogp>  (1125) 
2.56

>  <topological_polar_surface_area>  (1125) 
61.81

>  <rotatable_bond_count>  (1125) 
2

>  <hydrogen_bond_acceptors>  (1125) 
5

>  <hydrogen_bond_donors>  (1125) 
0

>  <hydrogen_bond_acceptors_lipinski>  (1125) 
5

>  <hydrogen_bond_donors_lipinski>  (1125) 
0

>  <lipinski_rule_of_five_violations>  (1125) 
0

>  <aromatic_rings_count>  (1125) 
3

>  <qed_drug_likeliness>  (1125) 
0.65

>  <formal_charge>  (1125) 
0

>  <fractioncsp3>  (1125) 
0.15

>  <number_of_minimal_rings>  (1125) 
3

>  <van_der_walls_volume>  (1125) 
nan

>  <contains_sugar>  (1125) 
False

>  <contains_ring_sugars>  (1125) 
False

>  <contains_linear_sugars>  (1125) 
False

>  <murcko_framework>  (1125) 
o1ccc2c1ccc3C=CCOc32

>  <np_likeness>  (1125) 
1.22

>  <chemical_class>  (1125) 
Coumarins and derivatives

>  <chemical_sub_class>  (1125) 
Furanocoumarins

>  <chemical_super_class>  (1125) 
Phenylpropanoids and polyketides

>  <direct_parent_classification>  (1125) 
Angular furanocoumarins

>  <np_classifier_pathway>  (1125) 
Shikimates and Phenylpropanoids

>  <np_classifier_superclass>  (1125) 
Coumarins

>  <np_classifier_class>  (1125) 
Furocoumarins

>  <np_classifier_is_glycoside>  (1125) 
False

>  <organisms>  (1125) 
Pilocarpus riedelianus

>  <collections>  (1125) 
Latin America dataset|NuBBEDB|Super Natural II|UNPD (Universal Natural Products Database)|WikiData Natural Products|ZINC NP

>  <dois>  (1125) 
10.1016/0031-9422(93)80055-W

>  <synonyms>  (1125) 
36-dimethoxyangelicin

>  <cas>  (1125) 
nan

$$$$

     RDKit          2D

 18 18  0  0  0  0  0  0  0  0999 V2000
   -2.8701   -2.5681    0.0000 C   0  0  0  0  0  0  0  0  0  0  0  0
   -2.0618   -1.3046    0.0000 C   0  0  0  0  0  0  0  0  0  0  0  0
   -3.0138   -0.1453    0.0000 C   0  0  0  0  0  0  0  0  0  0  0  0
   -3.1025    1.3520    0.0000 C   0  0  0  0  0  0  0  0  0  0  0  0
   -2.2942    2.6156    0.0000 C   0  0  0  0  0  0  0  0  0  0  0  0
   -0.8427    2.2373    0.0000 C   0  0  0  0  0  0  0  0  0  0  0  0
   -0.7539    0.7399    0.0000 C   0  0  0  0  0  0  0  0  0  0  0  0
   -2.0063   -0.0856    0.0000 O   0  0  0  0  0  0  0  0  0  0  0  0
    0.5540    2.7845    0.0000 C   0  0  0  0  0  0  0  0  0  0  0  0
    1.5059    1.6252    0.0000 C   0  0  0  0  0  0  0  0  0  0  0  0
    1.5947    0.1279    0.0000 C   0  0  0  0  0  0  0  0  0  0  0  0
    3.0462   -0.2504    0.0000 C   0  0  0  0  0  0  0  0  0  0  0  0
    3.4245    1.2011    0.0000 C   0  0  0  0  0  0  0  0  0  0  0  0
    2.6679   -1.7019    0.0000 C   0  0  0  0  0  0  0  0  0  0  0  0
    4.4977   -0.6287    0.0000 O   0  0  0  0  0  0  0  0  0  0  0  0
    0.7864   -1.1357    0.0000 C   0  0  0  0  0  0  0  0  0  0  0  0
   -0.6103   -1.6829    0.0000 C   0  0  0  0  0  0  0  0  0  0  0  0
   -0.5215   -3.1802    0.0000 O   0  0  0  0  0  0  0  0  0  0  0  0
  1  2  2  0
  2  3  1  0
  3  4  1  0
  4  5  1  0
  5  6  2  0
  6  7  1  0
  7  8  2  0
  6  9  1  0
  9 10  1  0
 10 11  1  0
 11 12  1  6
 12 13  1  0
 12 14  1  0
 12 15  1  0
 11 16  1  0
 16 17  1  0
 17 18  1  0
 17  2  1  0
M  END
>  <identifier>  (1126) 
CNP0080642.1

>  <canonical_smiles>  (1126) 
C=C1CC/C=C(\C=O)CC[C@H](C(C)(C)O)CC1O

>  <standard_inchi>  (1126) 
InChI=1S/C15H24O3/c1-11-5-4-6-12(10-16)7-8-13(9-14(11)17)15(2,3)18/h6,10,13-14,17-18H,1,4-5,7-9H2,2-3H3/b12-6-/t13-,14?/m0/s1

>  <standard_inchi_key>  (1126) 
SPWHPOOEWJVFFY-LIJQMJBRSA-N

>  <name>  (1126) 
Germacra-310(14)-dien-911-diol-4-carbaldehyde

>  <iupac_name>  (1126) 
(1~{Z},8~{S})-6-hydroxy-8-(1-hydroxy-1-methyl-ethyl)-5-methylene-cyclodecene-1-carbaldehyde

>  <annotation_level>  (1126) 
5

>  <total_atom_count>  (1126) 
42

>  <heavy_atom_count>  (1126) 
18

>  <molecular_weight>  (1126) 
252.35

>  <exact_molecular_weight>  (1126) 
252.17254

>  <molecular_formula>  (1126) 
C15H24O3

>  <alogp>  (1126) 
2.38

>  <topological_polar_surface_area>  (1126) 
57.53

>  <rotatable_bond_count>  (1126) 
2

>  <hydrogen_bond_acceptors>  (1126) 
3

>  <hydrogen_bond_donors>  (1126) 
2

>  <hydrogen_bond_acceptors_lipinski>  (1126) 
3

>  <hydrogen_bond_donors_lipinski>  (1126) 
2

>  <lipinski_rule_of_five_violations>  (1126) 
0

>  <aromatic_rings_count>  (1126) 
0

>  <qed_drug_likeliness>  (1126) 
0.59

>  <formal_charge>  (1126) 
0

>  <fractioncsp3>  (1126) 
0.67

>  <number_of_minimal_rings>  (1126) 
1

>  <van_der_walls_volume>  (1126) 
nan

>  <contains_sugar>  (1126) 
False

>  <contains_ring_sugars>  (1126) 
False

>  <contains_linear_sugars>  (1126) 
False

>  <murcko_framework>  (1126) 
C1=CCCCCCCCC1

>  <np_likeness>  (1126) 
2.86

>  <chemical_class>  (1126) 
Prenol lipids

>  <chemical_sub_class>  (1126) 
Sesquiterpenoids

>  <chemical_super_class>  (1126) 
Lipids and lipid-like molecules

>  <direct_parent_classification>  (1126) 
Germacrane sesquiterpenoids

>  <np_classifier_pathway>  (1126) 
Terpenoids

>  <np_classifier_superclass>  (1126) 
Sesquiterpenoids

>  <np_classifier_class>  (1126) 
Germacrane sesquiterpenoids

>  <np_classifier_is_glycoside>  (1126) 
False

>  <organisms>  (1126) 
Trichilia claussenii

>  <collections>  (1126) 
Latin America dataset|NuBBEDB

>  <dois>  (1126) 
10.1590/S0103-50532002000300014

>  <synonyms>  (1126) 
Germacra-310(14)-dien-911-diol-4-carbaldehyde

>  <cas>  (1126) 
nan

$$$$

     RDKit          2D

 22 25  0  0  0  0  0  0  0  0999 V2000
   -4.9638   -1.5335    0.0000 C   0  0  0  0  0  0  0  0  0  0  0  0
   -3.5829   -0.9479    0.0000 C   0  0  0  0  0  0  0  0  0  0  0  0
   -2.2974   -1.7209    0.0000 C   0  0  0  0  0  0  0  0  0  0  0  0
   -1.1650   -0.7372    0.0000 C   0  0  0  0  0  0  0  0  0  0  0  0
   -0.4382   -2.0494    0.0000 C   0  0  0  0  0  0  0  0  0  0  0  0
    1.0615   -2.0761    0.0000 C   0  0  0  0  0  0  0  0  0  0  0  0
    1.8345   -0.7907    0.0000 C   0  0  0  0  0  0  0  0  0  0  0  0
    3.3343   -0.8174    0.0000 C   0  0  0  0  0  0  0  0  0  0  0  0
    4.7345   -1.3554    0.0000 C   0  0  0  0  0  0  0  0  0  0  0  0
    3.0476   -2.2897    0.0000 C   0  0  0  0  0  0  0  0  0  0  0  0
    4.1073    0.4681    0.0000 C   0  0  0  0  0  0  0  0  0  0  0  0
    3.3806    1.7803    0.0000 C   0  0  0  0  0  0  0  0  0  0  0  0
    1.8808    1.8070    0.0000 C   0  0  0  0  0  0  0  0  0  0  0  0
    1.1078    0.5215    0.0000 C   0  0  0  0  0  0  0  0  0  0  0  0
    0.3811    1.8337    0.0000 C   0  0  0  0  0  0  0  0  0  0  0  0
   -0.3920    0.5482    0.0000 C   0  0  0  0  0  0  0  0  0  0  0  0
   -1.8917    0.5749    0.0000 O   0  0  0  0  0  0  0  0  0  0  0  0
   -1.1187    1.8604    0.0000 C   0  0  0  0  0  0  0  0  0  0  0  0
   -0.3457    3.1459    0.0000 O   0  0  0  0  0  0  0  0  0  0  0  0
   -2.6185    1.8871    0.0000 C   0  0  0  0  0  0  0  0  0  0  0  0
   -3.3915    0.6017    0.0000 C   0  0  0  0  0  0  0  0  0  0  0  0
   -2.6647   -0.7105    0.0000 C   0  0  0  0  0  0  0  0  0  0  0  0
  1  2  2  0
  2  3  1  0
  4  3  1  6
  4  5  1  0
  5  6  1  0
  7  6  1  1
  7  8  1  0
  8  9  1  0
  8 10  1  0
  8 11  1  0
 11 12  1  0
 12 13  1  0
 13 14  1  0
 14 15  1  1
 14 16  1  0
 16 17  1  6
 16 18  1  0
 18 19  2  0
 18 20  1  0
 21 20  1  6
 21 22  1  0
 21  2  1  0
 16  4  1  0
 22  4  1  0
 14  7  1  0
M  END
>  <identifier>  (1127) 
CNP0080682.1

>  <canonical_smiles>  (1127) 
C=C1C[C@@]23CC[C@@H]4C(C)(C)CCC[C@@]4(C)[C@]2(O)C(=O)C[C@@H]1C3

>  <standard_inchi>  (1127) 
InChI=1S/C20H30O2/c1-13-11-19-9-6-15-17(2,3)7-5-8-18(15,4)20(19,22)16(21)10-14(13)12-19/h14-15,22H,1,5-12H2,2-4H3/t14-,15-,18-,19-,20-/m1/s1

>  <standard_inchi_key>  (1127) 
JMVMXZRSLBAMEV-UYUBTLJZSA-N

>  <name>  (1127) 
nan

>  <iupac_name>  (1127) 
(1~{S},4~{R},9~{R},10~{S},13~{S})-10-hydroxy-5,5,9-trimethyl-14-methylene-tetracyclo[11.2.1.0^{1,10}.0^{4,9}]hexadecan-11-one

>  <annotation_level>  (1127) 
3

>  <total_atom_count>  (1127) 
52

>  <heavy_atom_count>  (1127) 
22

>  <molecular_weight>  (1127) 
302.46

>  <exact_molecular_weight>  (1127) 
302.22458

>  <molecular_formula>  (1127) 
C20H30O2

>  <alogp>  (1127) 
4.27

>  <topological_polar_surface_area>  (1127) 
37.30

>  <rotatable_bond_count>  (1127) 
0

>  <hydrogen_bond_acceptors>  (1127) 
2

>  <hydrogen_bond_donors>  (1127) 
1

>  <hydrogen_bond_acceptors_lipinski>  (1127) 
2

>  <hydrogen_bond_donors_lipinski>  (1127) 
1

>  <lipinski_rule_of_five_violations>  (1127) 
0

>  <aromatic_rings_count>  (1127) 
0

>  <qed_drug_likeliness>  (1127) 
0.68

>  <formal_charge>  (1127) 
0

>  <fractioncsp3>  (1127) 
0.85

>  <number_of_minimal_rings>  (1127) 
4

>  <van_der_walls_volume>  (1127) 
nan

>  <contains_sugar>  (1127) 
False

>  <contains_ring_sugars>  (1127) 
False

>  <contains_linear_sugars>  (1127) 
False

>  <murcko_framework>  (1127) 
C1CCC2C(C1)CCC34CCC(CCC23)C4

>  <np_likeness>  (1127) 
2.85

>  <chemical_class>  (1127) 
Prenol lipids

>  <chemical_sub_class>  (1127) 
Diterpenoids

>  <chemical_super_class>  (1127) 
Lipids and lipid-like molecules

>  <direct_parent_classification>  (1127) 
Kaurane diterpenoids

>  <np_classifier_pathway>  (1127) 
Terpenoids

>  <np_classifier_superclass>  (1127) 
Diterpenoids

>  <np_classifier_class>  (1127) 
Kaurane and Phyllocladane diterpenoids

>  <np_classifier_is_glycoside>  (1127) 
False

>  <organisms>  (1127) 
Vellozia caput-ardeae

>  <collections>  (1127) 
Latin America dataset|NuBBEDB|WikiData Natural Products

>  <dois>  (1127) 
10.1016/0031-9422(83)80035-1

>  <synonyms>  (1127) 
nan

>  <cas>  (1127) 
nan

$$$$

     RDKit          2D

 24 27  0  0  0  0  0  0  0  0999 V2000
   -5.8552    2.3833    0.0000 C   0  0  0  0  0  0  0  0  0  0  0  0
   -5.3829    0.9596    0.0000 C   0  0  0  0  0  0  0  0  0  0  0  0
   -3.9137    0.6569    0.0000 C   0  0  0  0  0  0  0  0  0  0  0  0
   -2.9170    1.7778    0.0000 C   0  0  0  0  0  0  0  0  0  0  0  0
   -1.4478    1.4750    0.0000 N   0  0  0  0  0  0  0  0  0  0  0  0
   -0.4511    2.5959    0.0000 C   0  0  0  0  0  0  0  0  0  0  0  0
    1.0181    2.2931    0.0000 C   0  0  0  0  0  0  0  0  0  0  0  0
    1.4904    0.8695    0.0000 C   0  0  0  0  0  0  0  0  0  0  0  0
    0.4936   -0.2515    0.0000 C   0  0  0  0  0  0  0  0  0  0  0  0
    1.2517   -1.5458    0.0000 N   0  0  0  0  0  0  0  0  0  0  0  0
    2.7169   -1.2249    0.0000 C   0  0  0  0  0  0  0  0  0  0  0  0
    3.9359   -2.0990    0.0000 C   0  0  0  0  0  0  0  0  0  0  0  0
    5.3024   -1.4804    0.0000 C   0  0  0  0  0  0  0  0  0  0  0  0
    5.4500    0.0123    0.0000 C   0  0  0  0  0  0  0  0  0  0  0  0
    6.8165    0.6309    0.0000 O   0  0  0  0  0  0  0  0  0  0  0  0
    8.0354   -0.2433    0.0000 C   0  0  0  0  0  0  0  0  0  0  0  0
    4.2310    0.8864    0.0000 C   0  0  0  0  0  0  0  0  0  0  0  0
    2.8645    0.2679    0.0000 C   0  0  0  0  0  0  0  0  0  0  0  0
   -0.9755    0.0513    0.0000 C   0  0  0  0  0  0  0  0  0  0  0  0
   -1.9723   -1.0696    0.0000 C   0  0  0  0  0  0  0  0  0  0  0  0
   -3.4414   -0.7668    0.0000 C   0  0  0  0  0  0  0  0  0  0  0  0
   -4.4382   -1.8877    0.0000 C   0  0  0  0  0  0  0  0  0  0  0  0
   -5.9073   -1.5850    0.0000 C   0  0  0  0  0  0  0  0  0  0  0  0
   -6.9041   -2.7059    0.0000 O   0  0  0  0  0  0  0  0  0  0  0  0
  1  2  1  0
  3  2  1  1
  3  4  1  0
  4  5  1  0
  5  6  1  0
  6  7  1  0
  7  8  1  0
  8  9  2  0
  9 10  1  0
 10 11  1  0
 11 12  2  0
 12 13  1  0
 13 14  2  0
 14 15  1  0
 15 16  1  0
 14 17  1  0
 17 18  2  0
  9 19  1  0
 19 20  1  6
 20 21  1  0
 21 22  1  6
 22 23  1  0
 23 24  1  0
 21  3  1  0
 19  5  1  0
 18  8  1  0
 18 11  1  0
M  END
>  <identifier>  (1128) 
CNP0154910.1

>  <canonical_smiles>  (1128) 
CC[C@H]1CN2CCC3=C(NC4=CC=C(OC)C=C34)[C@@H]2C[C@@H]1CCO

>  <standard_inchi>  (1128) 
InChI=1S/C20H28N2O2/c1-3-13-12-22-8-6-16-17-11-15(24-2)4-5-18(17)21-20(16)19(22)10-14(13)7-9-23/h4-5,11,13-14,19,21,23H,3,6-10,12H2,1-2H3/t13-,14-,19-/m0/s1

>  <standard_inchi_key>  (1128) 
UWSNHYUOZVVHPS-NJSLBKSFSA-N

>  <name>  (1128) 
15266-55-4

>  <iupac_name>  (1128) 
2-[(2~{R},3~{R},12~{b}~{S})-3-ethyl-9-methoxy-1,2,3,4,6,7,12,12~{b}-octahydroindolo[2,3-a]quinolizin-2-yl]ethanol

>  <annotation_level>  (1128) 
5

>  <total_atom_count>  (1128) 
52

>  <heavy_atom_count>  (1128) 
24

>  <molecular_weight>  (1128) 
328.46

>  <exact_molecular_weight>  (1128) 
328.21508

>  <molecular_formula>  (1128) 
C20H28N2O2

>  <alogp>  (1128) 
3.50

>  <topological_polar_surface_area>  (1128) 
48.49

>  <rotatable_bond_count>  (1128) 
4

>  <hydrogen_bond_acceptors>  (1128) 
3

>  <hydrogen_bond_donors>  (1128) 
2

>  <hydrogen_bond_acceptors_lipinski>  (1128) 
3

>  <hydrogen_bond_donors_lipinski>  (1128) 
2

>  <lipinski_rule_of_five_violations>  (1128) 
0

>  <aromatic_rings_count>  (1128) 
2

>  <qed_drug_likeliness>  (1128) 
0.90

>  <formal_charge>  (1128) 
0

>  <fractioncsp3>  (1128) 
0.60

>  <number_of_minimal_rings>  (1128) 
4

>  <van_der_walls_volume>  (1128) 
nan

>  <contains_sugar>  (1128) 
False

>  <contains_ring_sugars>  (1128) 
False

>  <contains_linear_sugars>  (1128) 
False

>  <murcko_framework>  (1128) 
c1ccc2c(c1)[nH]c3c2CCN4CCCCC34

>  <np_likeness>  (1128) 
1.03

>  <chemical_class>  (1128) 
Indoles and derivatives

>  <chemical_sub_class>  (1128) 
Pyridoindoles

>  <chemical_super_class>  (1128) 
Organoheterocyclic compounds

>  <direct_parent_classification>  (1128) 
Beta carbolines

>  <np_classifier_pathway>  (1128) 
Alkaloids

>  <np_classifier_superclass>  (1128) 
Tryptophan alkaloids

>  <np_classifier_class>  (1128) 
Corynanthe type

>  <np_classifier_is_glycoside>  (1128) 
False

>  <organisms>  (1128) 
Aspidosperma excelsum|Aspidosperma nitidum|Ochrosia moorei

>  <collections>  (1128) 
Australian natural products|Latin America dataset|NuBBEDB|WikiData Natural Products

>  <dois>  (1128) 
10.1016/S0031-9422(00)82898-8|10.1021/NP50014A009|10.1021/np50014a009

>  <synonyms>  (1128) 
10-Methoxycorynan-17-ol|10-Methoxydihydrocorynantheol|2-[(2R,3R,12bS)-3-ethyl-9-methoxy-1,2,3,4,6,7,12,12b-octahydroindolo[2,3-a]quinolizin-2-yl]ethanol

>  <cas>  (1128) 
nan

$$$$

     RDKit          2D

 21 23  0  0  0  0  0  0  0  0999 V2000
   -6.4093    2.2147    0.0000 C   0  0  0  0  0  0  0  0  0  0  0  0
   -5.8738    0.8136    0.0000 O   0  0  0  0  0  0  0  0  0  0  0  0
   -4.3926    0.5768    0.0000 C   0  0  0  0  0  0  0  0  0  0  0  0
   -3.4470    1.7412    0.0000 C   0  0  0  0  0  0  0  0  0  0  0  0
   -1.9658    1.5044    0.0000 C   0  0  0  0  0  0  0  0  0  0  0  0
   -1.4302    0.1033    0.0000 C   0  0  0  0  0  0  0  0  0  0  0  0
    0.0510   -0.1334    0.0000 C   0  0  0  0  0  0  0  0  0  0  0  0
    0.5866   -1.5346    0.0000 C   0  0  0  0  0  0  0  0  0  0  0  0
    2.0678   -1.7713    0.0000 O   0  0  0  0  0  0  0  0  0  0  0  0
    3.0134   -0.6070    0.0000 C   0  0  0  0  0  0  0  0  0  0  0  0
    4.4946   -0.8437    0.0000 C   0  0  0  0  0  0  0  0  0  0  0  0
    5.4402    0.3207    0.0000 C   0  0  0  0  0  0  0  0  0  0  0  0
    6.9214    0.0839    0.0000 O   0  0  0  0  0  0  0  0  0  0  0  0
    4.9047    1.7218    0.0000 C   0  0  0  0  0  0  0  0  0  0  0  0
    3.4235    1.9586    0.0000 C   0  0  0  0  0  0  0  0  0  0  0  0
    2.4778    0.7942    0.0000 C   0  0  0  0  0  0  0  0  0  0  0  0
    0.9966    1.0309    0.0000 C   0  0  0  0  0  0  0  0  0  0  0  0
   -2.3758   -1.0611    0.0000 C   0  0  0  0  0  0  0  0  0  0  0  0
   -1.8403   -2.4622    0.0000 O   0  0  0  0  0  0  0  0  0  0  0  0
   -2.7859   -3.6266    0.0000 C   0  0  0  0  0  0  0  0  0  0  0  0
   -3.8570   -0.8243    0.0000 C   0  0  0  0  0  0  0  0  0  0  0  0
  1  2  1  0
  2  3  1  0
  3  4  2  0
  4  5  1  0
  5  6  2  0
  7  6  1  6
  7  8  1  0
  8  9  1  0
  9 10  1  0
 10 11  2  0
 11 12  1  0
 12 13  1  0
 12 14  2  0
 14 15  1  0
 15 16  2  0
 16 17  1  0
  6 18  1  0
 18 19  1  0
 19 20  1  0
 18 21  2  0
 21  3  1  0
 17  7  1  0
 16 10  1  0
M  END
>  <identifier>  (1129) 
CNP0337238.2

>  <canonical_smiles>  (1129) 
COC1=CC=C([C@H]2COC3=CC(O)=CC=C3C2)C(OC)=C1

>  <standard_inchi>  (1129) 
InChI=1S/C17H18O4/c1-19-14-5-6-15(17(9-14)20-2)12-7-11-3-4-13(18)8-16(11)21-10-12/h3-6,8-9,12,18H,7,10H2,1-2H3/t12-/m1/s1

>  <standard_inchi_key>  (1129) 
TUXCLJQCYVCGDW-GFCCVEGCSA-N

>  <name>  (1129) 
(3R)-3-(2,4-dimethoxyphenyl)chroman-7-ol

>  <iupac_name>  (1129) 
(3~{S})-3-(2,4-dimethoxyphenyl)chroman-7-ol

>  <annotation_level>  (1129) 
5

>  <total_atom_count>  (1129) 
39

>  <heavy_atom_count>  (1129) 
21

>  <molecular_weight>  (1129) 
286.33

>  <exact_molecular_weight>  (1129) 
286.12051

>  <molecular_formula>  (1129) 
C17H18O4

>  <alogp>  (1129) 
3.13

>  <topological_polar_surface_area>  (1129) 
47.92

>  <rotatable_bond_count>  (1129) 
3

>  <hydrogen_bond_acceptors>  (1129) 
4

>  <hydrogen_bond_donors>  (1129) 
1

>  <hydrogen_bond_acceptors_lipinski>  (1129) 
4

>  <hydrogen_bond_donors_lipinski>  (1129) 
1

>  <lipinski_rule_of_five_violations>  (1129) 
0

>  <aromatic_rings_count>  (1129) 
2

>  <qed_drug_likeliness>  (1129) 
0.94

>  <formal_charge>  (1129) 
0

>  <fractioncsp3>  (1129) 
0.29

>  <number_of_minimal_rings>  (1129) 
3

>  <van_der_walls_volume>  (1129) 
nan

>  <contains_sugar>  (1129) 
False

>  <contains_ring_sugars>  (1129) 
False

>  <contains_linear_sugars>  (1129) 
False

>  <murcko_framework>  (1129) 
O1c2ccccc2CC(c3ccccc3)C1

>  <np_likeness>  (1129) 
0.97

>  <chemical_class>  (1129) 
Isoflavonoids

>  <chemical_sub_class>  (1129) 
O-methylated isoflavonoids

>  <chemical_super_class>  (1129) 
Phenylpropanoids and polyketides

>  <direct_parent_classification>  (1129) 
4'-O-methylated isoflavonoids

>  <np_classifier_pathway>  (1129) 
Shikimates and Phenylpropanoids

>  <np_classifier_superclass>  (1129) 
Isoflavonoids

>  <np_classifier_class>  (1129) 
Isoflavanones

>  <np_classifier_is_glycoside>  (1129) 
False

>  <organisms>  (1129) 
Deguelia amazonica|Derris amazonica|Gliricidia sepium

>  <collections>  (1129) 
Latin America dataset|NuBBEDB|Super Natural II|TCMDB-Taiwan (Traditional Chinese Medicine database)|WikiData Natural Products

>  <dois>  (1129) 
10.1016/S0031-9422(00)98664-3|10.1021/NP980002L

>  <synonyms>  (1129) 
(3S)-2'-O-Methylvestitol

>  <cas>  (1129) 
nan

$$$$

     RDKit          2D

 21 23  0  0  0  0  0  0  0  0999 V2000
   -5.5618   -2.5364    0.0000 O   0  0  0  0  0  0  0  0  0  0  0  0
   -4.5413   -1.4371    0.0000 C   0  0  0  0  0  0  0  0  0  0  0  0
   -4.9831   -0.0036    0.0000 C   0  0  0  0  0  0  0  0  0  0  0  0
   -3.9626    1.0957    0.0000 C   0  0  0  0  0  0  0  0  0  0  0  0
   -4.4044    2.5292    0.0000 O   0  0  0  0  0  0  0  0  0  0  0  0
   -2.5003    0.7616    0.0000 C   0  0  0  0  0  0  0  0  0  0  0  0
   -1.4798    1.8610    0.0000 C   0  0  0  0  0  0  0  0  0  0  0  0
   -0.0175    1.5269    0.0000 C   0  0  0  0  0  0  0  0  0  0  0  0
    1.0030    2.6262    0.0000 O   0  0  0  0  0  0  0  0  0  0  0  0
    0.4243    0.0934    0.0000 C   0  0  0  0  0  0  0  0  0  0  0  0
    1.8866   -0.2407    0.0000 C   0  0  0  0  0  0  0  0  0  0  0  0
    2.3285   -1.6741    0.0000 C   0  0  0  0  0  0  0  0  0  0  0  0
    3.7908   -2.0083    0.0000 C   0  0  0  0  0  0  0  0  0  0  0  0
    4.8113   -0.9089    0.0000 C   0  0  0  0  0  0  0  0  0  0  0  0
    6.2736   -1.2430    0.0000 O   0  0  0  0  0  0  0  0  0  0  0  0
    4.3695    0.5246    0.0000 C   0  0  0  0  0  0  0  0  0  0  0  0
    5.3900    1.6239    0.0000 O   0  0  0  0  0  0  0  0  0  0  0  0
    2.9071    0.8587    0.0000 C   0  0  0  0  0  0  0  0  0  0  0  0
   -0.5962   -1.0059    0.0000 O   0  0  0  0  0  0  0  0  0  0  0  0
   -2.0585   -0.6718    0.0000 C   0  0  0  0  0  0  0  0  0  0  0  0
   -3.0790   -1.7712    0.0000 C   0  0  0  0  0  0  0  0  0  0  0  0
  1  2  1  0
  2  3  2  0
  3  4  1  0
  4  5  1  0
  4  6  2  0
  6  7  1  0
  7  8  1  0
  8  9  1  6
  8 10  1  0
 10 11  1  1
 11 12  2  0
 12 13  1  0
 13 14  2  0
 14 15  1  0
 14 16  1  0
 16 17  1  0
 16 18  2  0
 10 19  1  0
 19 20  1  0
 20 21  2  0
 21  2  1  0
 20  6  1  0
 18 11  1  0
M  END
>  <identifier>  (1130) 
CNP0293352.3

>  <canonical_smiles>  (1130) 
OC1=CC(O)=C2C[C@H](O)[C@@H](C3=CC=C(O)C(O)=C3)OC2=C1

>  <standard_inchi>  (1130) 
InChI=1S/C15H14O6/c16-8-4-11(18)9-6-13(20)15(21-14(9)5-8)7-1-2-10(17)12(19)3-7/h1-5,13,15-20H,6H2/t13-,15+/m0/s1

>  <standard_inchi_key>  (1130) 
PFTAWBLQPZVEMU-DZGCQCFKSA-N

>  <name>  (1130) 
Cianidanol

>  <iupac_name>  (1130) 
(2~{R},3~{S})-2-(3,4-dihydroxyphenyl)chromane-3,5,7-triol

>  <annotation_level>  (1130) 
5

>  <total_atom_count>  (1130) 
35

>  <heavy_atom_count>  (1130) 
21

>  <molecular_weight>  (1130) 
290.27

>  <exact_molecular_weight>  (1130) 
290.07904

>  <molecular_formula>  (1130) 
C15H14O6

>  <alogp>  (1130) 
1.55

>  <topological_polar_surface_area>  (1130) 
110.38

>  <rotatable_bond_count>  (1130) 
1

>  <hydrogen_bond_acceptors>  (1130) 
6

>  <hydrogen_bond_donors>  (1130) 
5

>  <hydrogen_bond_acceptors_lipinski>  (1130) 
6

>  <hydrogen_bond_donors_lipinski>  (1130) 
5

>  <lipinski_rule_of_five_violations>  (1130) 
0

>  <aromatic_rings_count>  (1130) 
2

>  <qed_drug_likeliness>  (1130) 
0.51

>  <formal_charge>  (1130) 
0

>  <fractioncsp3>  (1130) 
0.20

>  <number_of_minimal_rings>  (1130) 
3

>  <van_der_walls_volume>  (1130) 
244.42

>  <contains_sugar>  (1130) 
False

>  <contains_ring_sugars>  (1130) 
False

>  <contains_linear_sugars>  (1130) 
False

>  <murcko_framework>  (1130) 
O1c2ccccc2CCC1c3ccccc3

>  <np_likeness>  (1130) 
2.30

>  <chemical_class>  (1130) 
Flavonoids

>  <chemical_sub_class>  (1130) 
Flavans

>  <chemical_super_class>  (1130) 
Phenylpropanoids and polyketides

>  <direct_parent_classification>  (1130) 
Catechins

>  <np_classifier_pathway>  (1130) 
Shikimates and Phenylpropanoids

>  <np_classifier_superclass>  (1130) 
Flavonoids

>  <np_classifier_class>  (1130) 
Flavan-3-ols

>  <np_classifier_is_glycoside>  (1130) 
False

>  <organisms>  (1130) 
Aaptos aaptos|Abedus herberti|Abies nephrolepis|Abies sp.|Abrus melanospermus|Abrus pulchellus subsp. cantoniensis|Abutilon theophrasti|Acacia Catechu|Acacia Nilotica|Acacia adunca|Acacia aneura|Acacia arabica|Acacia aulacocarpa|Acacia baileyana|Acacia binervata|Acacia burrowii|Acacia calamifolia|Acacia cambagei|Acacia cardiophylla|Acacia catechu|Acacia cheelii|Acacia chrysotricha|Acacia clunies-rossiae|Acacia concurrens|Acacia confusa|Acacia constablei|Acacia cultriformis|Acacia dealbata|Acacia deanei|Acacia decurrens|Acacia doratoxylon|Acacia elata|Acacia erioloba|Acacia falciformis|Acacia filicifolia|Acacia fimbriata|Acacia floribunda|Acacia holosericea|Acacia homalophylla|Acacia implexa|Acacia irrorata|Acacia ixiophylla|Acacia kettlewelliae|Acacia lanigera|Acacia leucoclada|Acacia longifolia|Acacia mabellae|Acacia mearnsii|Acacia melanoxylon|Acacia mollifolia|Acacia neriifolia|Acacia nilotica|Acacia obtusifolia|Acacia omalophylla|Acacia oshanesii|Acacia oswaldii|Acacia parramattensis|Acacia pendula|Acacia planifrons|Acacia pubifolia|Acacia pycnantha|Acacia retinodes|Acacia rigens|Acacia silvestris|Acacia sp.|Acacia species|Acacia speckii|Acacia terminalis|Acacia trachyphloia|Acacia trineura|Acacia verniciflua|Acacia vestita|Acaena magellanica|Acaena pinnatifida|Acanthophyllum elatius|Acanthospermum glabratum|Acer barbinerve|Acer griseum|Acer nikoense|Aconitum nevadense|Aconitum pseudohuiliense|Aconitum sachalinense|Aconitum seravschanicum|Aconitum subcuneatum|Aconitum tasiromontanum|Actinida arguta|Actinidia arguta|Actinidia chinensis|Actinidia chinensis var. deliciosa|Actinidia chinensis var. hispida|Actinopyga agassizi|Adansonia grandidieri|Adenia volkensii|Adenopeltis colliguaya|Adiantum lunulatum|Aesculus sp.|Aframomum amaniense|Agaricus arvensis|Ageratina dendroides|Aglaia formosana|Aglaia laxiflora|Agrimonia Pilosa|Agrimonia pilosa|Agrimonia pilosa var.japonica|Agrimonia sp.|Agrobacterium rhizogenes|Agrobacterium tumefaciens|Aguacate|Ailanthus giraldii|Aiouea hammeliana|Aiouea tonduzii|Ajania gracilis|Ajuga reptans|Alangium grisolleoides|Alcea rosea|Alchemilla speciosa|Alcyonium molle|Alcyonium utinomii|Aldisa sanguinea|Alectoria divergens|Alhagi kirghisorum|Alhagi maurorum|Alhagi pseudalhagi|Alhagi sparsifolia|Alkanna cappadocica|Aloe africana|Aloe ferox|Aloe spicata|Aloe vera|Alpinia blepharocalyx|Alpinia katsumadai|Alpinia zerumbet|Alseodaphne corneri|Alstonia deplanchei|Alstonia spathulata|Alstonia undulifolia|Amanita cokeri|Amaranthus hypochondriacus|Amathia pinnata|Ampelopsis Japonica|Ampelopsis japonica|Amsinckia tessellata|Anacardium humile|Anacystis montana|Anchomanes difformis|Andropogon polyneuros|Anethum graveolens|Anguilla japonica|Annella reticulata|Annona ambotay|Annona cornifolia|Annona impressivenia|Annona muricata|Annona reticulata|Anolis lineatopus|Aonidiella aurantii|Aphis graminum|Aphis pini|Aphyllocladus denticulatus|Apium graveolens|Aplidium tabascum|Aplophyllum popovii|Aplysia parvula|Aplysina archeri|Apocynum cannabinum|Apocynum venetum|Arabidopsis thaliana|Arachis Hypogaea|Arachis hypogaea|Araiostegiella perdurans|Arbutus andrachne|Arbutus unedo|Archidendron bubalinum|Archidendron jiringa|Arctostaphylos sp.|Arcyria denudata|Areca Catechu|Areca catechu|Aristolochia zollingeriana|Arnica viscosa|Aromadendron elegans|Artabotrys Uncinatus|Artabotrys hexapetalus|Artabotrys modestus ssp. macranthus|Artabotrys uncinatus|Artemisia assoana|Artemisia carvifolia|Artemisia dentata|Artemisia incanescens|Artemisia rehan|Artemisia schimperi|Artocarpus dadah|Artocarpus lacucha|Artocarpus tonkinensis|Arum alpinum|Aspalathus linearis|Aspergillus arenarius|Aspergillus carneus|Aspergillus desertorum|Aspergillus mutabilis|Aspergillus quadrilineatus|Aspergillus striatus|Aspergillus unguis|Aspicilia caesiocinerea|Aspidosperma olivaceum|Aster alpinus|Aster bellidiastrum|Aster sedifolius|Asteracantha longifolia|Asteriscus aquaticus|Asteriscus graveolens|Asterospicularia laurae|Astragalus floccosifolius|Astragalus kabadianus|Astragalus sempervirens|Atalantia racemosa|Athanasia dregeana|Atylosia trinervia|Aucuba chinensis|Aulacocephalus temmincki|Aulosira fertilissima|Aurelia aurita|Avrainvillea longicaulis|Azadirachta indica|Baccharis angustifolia|Baccharis megapotamica|Baccharis solieri|Bacillus subtilis|Balanophora involucrata|Balanops australiana|Bartramia pomiformis|Bassia muricata|Bauhinia glauca|Begonia sp.|Beilschmiedia anacardioides|Berberis crataegina|Berchemia floribunda|Berchemia formosana|Berchemia racemosa|Bergenia ligulata|Bergenia pacumbis|Bergenia purpurascens|Berneuxia thibetica|Bersama yangambiensis|Bertholletia excelsa|Betula|Betula dahurica|Betula fruticosa|Betula maximowicziana|Betula ovalifolia|Betula papyrifera|Betula pendula|Betula platyphylla|Betula pubescens|Betula schmidtii|Betula sp.|Biancaea decapetala|Bidens sulphureus|Bishovia boliviensis|Bistorta manshuriensis|Bistorta officinalis|Bistorta vivipara|Bituminaria bituminosa|Blastochloris viridis|Boehmeria nivea|Boletus pini|Bombus hortorum|Bombus muscorum|Boronia coerulescens|Boswellia sp.|Brassica juncea|Brassica oleracea|Brevibacterium linens|Brickellia vernicosa|Bromelia plumieri|Bryum argenteum|Buddleja cordata|Bugula dentata|Buphane fischeri|Burkea africana|Byrsonima crassifolia|Cacalia bicolor|Caiman crocodilus|Calceolaria thyrsiflora|Callicarpa japonica|Callicarpa maingayi|Callistemon citrinus|Callistemon speciosus|Calluna sp.|Calluna vulgaris|Caloboletus calopus|Caloncoba glauca|Calophyllum thwaitesii|Calostephane divaricata|Camellia Sinensis|Camellia japonica|Camellia sinensis|Camellia sp.|Canthium berberidifolium|Capnoides sempervirens|Capparis ovata|Capsicum annuum|Caragana aurantiaca|Carallia brachiata|Cardiospermum sp.|Carica dodecaphylla|Carpinus cordata|Carpobrotus edulis|Carum carvi|Carya illinoinensis|Casearia clarkei|Cashew|Casimiroa tetrameria|Cassia fistula|Cassia grandis|Cassia kleinii|Cassia roxburghii|Cassia sp.|Cassine papillosa|Castanea|Castanea dentata|Castanea sativa|Castanea sp.|Castanopsis sclerophylla|Casuarina Equisetifolia|Casuarina equisetifolia L.|Casuarina sp.|Catha sp.|Caulocystis cephalornithos|Ceanothus sp.|Cecropia glaziovii|Cecropia pachystachya|Cedrela odorata|Cedronella canariensis|Cedrus libani|Ceiba Pentandra|Ceiba pentandra|Celastrus angulatus|Celastrus flagellaris|Centaurea huber-morathii|Centaurea seridis|Centella asiatica|Centrosema pascuorum|Cephalaria grossheimii|Cephalaria paphlagonica|Cephalaria uralensis|Cephalotaxus harringtonii var. harringtonii|Ceratiola ericoides|Ceratocystis clavigera|Ceratonia sp.|Ceratozamia fuscoviridis|Cereus candicans|Cereus weberi|Cerinthe minor|Chaenomeles sinensis|Chaenomeles sp.|Chaenomeles speciosa|Chamaecyparis formosensis|Chamaerops humilis|Chamomilla recutita|Changium smyrnioides|Charpentiera obovata|Cheniella glauca|Chimarrhis turbinata|Chromatium okenii|Chromodoris lochi|Chrozophora obliqua|Chrysanthemum morifolium|Chrysophyllum cainito|Chrysosplenium flagelliferum|Chrysothamnus parryi|Cicer arietinum|Cinamomum cassia|Cinchona tucujensis|Cinnamomum Subavenium|Cinnamomum aromaticum|Cinnamomum bejolghota|Cinnamomum burmanni|Cinnamomum cassia|Cinnamomum kotoense|Cinnamomum sieboldii|Cinnamomum sp.|Cinnamomum subavenium|Cinnamomum tenuifolium|Cinnamon|Cissus quinquefolia|Cistus creticus|Cistus salviifolius|Citrullus lanatus|Citrus glauca|Citrus tangerina|Cladonia fallax|Cladrastis platycarpa|Clathria prolifera|Cleome chrysantha|Clione antarctica|Clusia multiflora|Clutia richardiana|Cneorum pulverulentum|Coccus ilicis|Cocos nucifera|Codium decorticatum|Coffea|Cola Acuminata|Cola acuminata|Cola nitida|Cola sp.|Colchicum speciosum|Coleogyne ramosissima|Coleogyne ramosissima Torr.|Coleus garckeanus|Colophospermum mopane|Combretum quadrangulare|Commiphora socotrana|Conocephalum japonicum|Conoideocrella luteorostrata|Consolida ajacis|Conus pulicarius|Coprosma areolata|Coptis trifolia subsp. groenlandica|Cordylanthus kingii|Cornus kousa|Cortinarius odoratus|Cortinarius orellanus|Corylus|Corylus avellana|Cotoneaster orbicularis|Cotoneaster simonsii|Cotyledon secunda|Craibiodendron henryi|Crambe tatarica|Craspidospermum verticillatum|Crataegus|Crataegus laevigata|Crataegus monogyna|Crataegus monogyna calli|Crataegus oxyacantha L. (1753)|Crataegus pinnatifida|Crataegus pontica|Crataegus sp.|Crataegus tanacetifolia|Crinipellis scabella|Critonia quadrangularis|Crocus minimus|Crotalaria aegyptiaca|Croton cascarilloides|Croton celtidifolius|Croton cumingii|Croton insularis|Croton lechleri|Croton montevidensis|Croton sp.|Croton urucurana|Cryptocarya alba|Cryptomeria japonica|Cryptotermes cynocephalus|Cucumis sativus|Cucurbita maxima|Cucurbita pepo|Cuminum cyminum|Cunonia macrophylla|Curculigo pilosa|Cydonia|Cydonia oblonga|Cylindrospermopsis raciborskii|Cylindrospermum muscicola|Cynara cardunculus var. scolymus|Cynometra lujae|Cynomorium songaricum|Cynthia savignyi|Cyperus longus|Cyperus papyrus|Cystophora scalaris|Cytophaga hutchinsoni|Dacrydium fonki|Dalbergia stipulacea|Dasiphora fruticosa|Datisca glomerata|Daucus Carota|Daucus carota|Davallia orientalis|Delphinium fangshanense|Dendriopoterium menendezii|Dendrodoris tuberculosa|Dermolepida albohirtum|Desmoncus polyacanthos|Detarium microcarpum|Dicoma capensis|Dicranopteris linearis|Dictyopteris acrostichoides|Dictyopteris australis|Didemnum solidum|Digitalis isabelliana|Dimorphotheca aurantiaca|Dinemasporium strigosum|Dioscorea alata|Dioscorea antaly|Dioscorea bulbifera|Dioscorea cirrhosa|Dioscorea japonica|Dioscorea olfersiana|Diospyros eriantha|Diospyros kaki|Diplodia natalensis|Dipodium punctatum|Disynaphia halimifolia|Dodonaea viscosa|Dolomiaea souliei|Doodia picta|Dorstenia contrajerva|Dorycnium hirsutum|Drechslera avenae|Drynaria fortunei|Dryopteris polylepis|Dumortiera hirsuta|Dysoxylum cumingianum|Ecballium elaterium|Echinocystis lobata|Echinus auritus|Echinus microtuberculatus|Ectyoplasia ferox|Ehretia dicksonii|Elaeagnus angustifolia|Elaeagnus commutata|Elaphoglossum lindbergii|Elephantopus hirtiflorus|Elephantopus tomentosus|Elephantorrhiza goetzei|Eleutherobia albiflora|Elsholtzia ciliata|Elysia ornata|Embelia Ribes|Embelia ribes|Embelia ribes Burm.|Enceliopsis argophylla|Encyothalia cliftonii|Entada pervillei|Entada phaseoloides|Entada rheedei|Ephedra sp.|Epichloe festucae var. lolii|Epimedium brevicornu|Epimedium grandiflorum|Epimedium koreanum|Epimedium pubescens|Epimedium sagittatum|Epimedium sempervirens|Epimedium wushanense|Eragrostis viscosa|Eremanthus seidelii|Eria mollis|Erica sp.|Erigeron crispus|Eriocheir sinensis|Eriosema chinense|Erodium cicutarium|Erylus trisphaerus|Erythroxylum cambodianum|Erythroxylum novogranatense|Etlingera elatior|Eucalyptus Camaldulensis|Eucalyptus alba|Eucalyptus camaldulensis|Eucalyptus flocktoniae|Eucalyptus globulus|Eucalyptus jenseni|Eucalyptus melliodora|Eucalyptus nitens|Eucalyptus ovata|Eucalyptus sp.|Eucalyptus tereticornis|Euclea crispa|Euclea divinorum|Eucommia Ulmoides|Eucommia ulmoides|Eucommia ulmoides Oliver|Eugenia brasiliensis|Eunicea mammosa|Eunicella cavolinii|Euodia Meliaefolia|Euodia meliaefolia|Euonymus alatus|Euonymus tingens|Eupatorium areolare|Eupatorium gracile|Euphorbia amygdaloides|Euphorbia clarkeana|Euphorbia cornigera|Euphorbia hirta|Euphorbia turczaninowii|Euptelea polyandra|Euryops algoensis|Excoecaria agallocha|Eysenhardtia subcoriacea|Eysenhardtia subcoriacea Pennell|FOOD SAKE|Fagara rubescens|Fagopyrum esculentum|Fagus fusca|Fagus grandifolia|Fagus sylvatica|Fallopia multiflora|Fallopia sp.|Felicia amelloides|Felicia wrightii|Felimida luteorosea|Ferula ammoniacum|Ferula sp.|Ficus carica|Ficus microcarpa|Ficus simplicissima|Flacourtia jangomas|Flemingia congesta|Flindersia brayleyana|Fomes cajanderi|Forsteronia refracta|Fragaria|Fragaria sp.|Fragaria vesca|Fragaria x ananassa|Fraxinus excelsior|Fridericia chica|Fritillaria ningguoensis|Fugopyrum esculentum calli|Fusarium caucasicum|Gadus morhua callarias|Gambier|Gambierdiscus toxicus|Ganoderma lucidum|Ganoderma sinense|Garcinia mangostana|Gardenia jasminoides|Gardenia turgida|Gemmingia chinensis|Geranium sanguineum|Geranium sp.|Geranium sylvaticum|Geranium thunbergii|Gerbera piloselloides|Ginkgo biloba|Gleditsia caspica|Gleditsia japonica|Gleditsia sinensis|Gleditsia triacanthos|Gmelina asiatica|Gnetum latifolium|Gomortega keule|Goniothalamus amuyon|Goniothalamus malayanus|Gossypium hirsutum|Gossypium sp.|Gracilaria textorii|Grazielia serrata|Grewia mollis|Gymnocarpium robertianum|Gymnopus confluens|Gymnosporia pyria|Gymnosporia trigyna|Haemanthus toxicarius|Haliclona mucosa|Halimodendron halodendron|Hamamelis sp.|Hamamelis virginiana|Haplophyllum dauricum|Haplophyllum ferganicum|Haplophyllum ramosissimum|Harungana madagascariensis|Hedysarum connatum|Heisteria nitida|Helenium quadridentatum|Helianthus maximiliani|Helichrysum auriceps|Helichrysum cephaloideum|Helichrysum cymosum|Helichrysum mixtum|Heliomeris multiflora|Heliotropium floridum|Helipterum roseum|Hemerocallis fulva|Hemionitis japonica|Heracleum sphondylium|Hesperis matronalis|Heterotheca|Heterotheca grandiflora|Hibiscus cannabinus|Hibiscus sabdariffa|Hippophae rhamnoides|Hoffmannia strigillosa|Holomelina lamae|Homo sapiens|Honorius nutans|Hordeum vulgare|Hovenia acerba|Hovenia dulcis|Hubertia tomentosa|Humata pectinata|Humulus lupulus|Hylocomium splendens|Hypericum ascyron|Hypericum balearicum|Hypericum hirsutum|Hypericum laricifolium|Hypericum maculatum|Hypericum montbretii|Hypericum perforatum|Hypericum sp.|Hypoxylon tinctor|Ibacus peronii|Ichthyothere latifolia|Ilex purpurea|Illicium anisatum|Illicium sp.|Illicium verum|Iotrochota purpurea|Ipomoea digitata|Ircinia spinosula|Iris ensata|Iris pallasii|Iryanthera coriacea|Isaria felina|Isaria fumosorosea|Isodon japonicus|Isodon pharicus|Ixeris stolonifera|Ixeris tamagawaensis|Ixora coccinea|Jackiella javanica|Jatropha macrorhiza|Juglans nigra|Jugo|Jungermannia obovata|Juniperus rigida var. conferta|Juniperus sp.|Justicia ciliata|Justicia paniculata|Justicia secunda|Kaempferia marginata|Kali turgidum|Kalmia latifolia|Kandelia candel|Kaunia saltensis|Keiferia lycopersicella|Khaya grandifoliola|Khaya ivorensis|Khaya senegalensis|Koelreuteria paniculata|Kokoona reflexa|Krameria lappacea|Kummerowia stipulacea|Kummerowia striata|Lachnophyllum gossypinum|Lactuca sativa|Larix cajanderi|Larix decidua Miller.|Larix gmelinii|Larix sibirica|Larix sp.|Laurencia caraibica|Laurencia spectabilis|Laurus Nobilis|Laurus nobilis|Lavandula vera|Leathesia nana|Lecanora planaica|Lecanora straminea|Lemaireocereus griseus|Lens culinaris|Lepisorus ussuriensis|Leptarrhena pyrolifolia|Leptogorgia sarmentosa|Lespedeza bicolor|Lesquerella auriculata|Leucocarpus perfoliatus|Leucopaxillus gentianeus|Licania pittieri|Ligaria cuneifolia|Ligularia cymbulifera|Ligularia dentata|Ligustrum obtusifolium|Lilium brownii|Lilium lancifolium|Lilium pumilum|Lilium umbellatum|Limoniastrum guyonianum|Lindera aggregata|Lindera umbellata|Liquidambar styraciflua|Lithospermum sp.|Litsea lancifolia|Litsea pungens|Lobophora variegata|Lobophytum laevigatum|Lonicera hypoleuca|Loranthus kaoi|Loranthus sp.|Lotus corniculatus|Lotus hirsutus|Lotus japonicus|Lotus pedunculatus|Lotus tenuis|Lotus ucrainicus|Lotus uliginosus|Lupinus verbasciformis|Lyophyllum shimeji|Lysiana subfalcata|Lysimachia mauritiana|Macadamia|Macaranga peltata|Machilus Thunbergii|Machilus thunbergii|Macrolepiota neomastoidea|Macrosolen globosus|Macrothele gigas|Maesa ramentacea|Magnolia biloba|Magnolia montana|Mallotus japonicus|Mallotus nudiflorus|Mallotus villosus|Malus|Malus domestica|Malus pumila|Malus sp.|Mammea americana|Mangifera indica|Manihot esculenta|Manilkara Zapota|Manilkara zapota|Manilkara zapota cv.Tikal|Margaretta rosea|Margyricarpus pinnatus|Margyricarpus setosus|Marrubium anisodon|Marrubium supinum|Mascarenhasia arborescens|Matricaria chamomilla|Maytenus chubutensis|Maytenus retusa|Meconopsis napaulensis|Medicago sativa|Melaleuca decora|Melaleuca rhaphiophylla|Melaleuca squarrosa|Melia Azedarach|Melia azedarach l. var. japonica mak.|Melia azedarach var.japonica|Melochia tomentosa|Melolontha melolontha|Mentha X piperita|Mentha gattefossei|Mentha piperita piperita|Merremia umbellata|Meryta lanceolata|Mespilus germanica|Metalasia bolusii|Metasequoia glyptostroboides|Metridium senile|Micarea austroternaria|Microcos paniculata|Miliusa velutina|Millettia conraui|Millettia erythrocalyx|Millettia laurentii|Mitragyna inermis|Mitrella kentii|Momordica charantia|Monodora tenuifolia|Morus alba|Morus bombycis|Mosla chinensis|Muehlenbeckia platyclada|Murraya exotica|Murraya paniculata|Musa|Musa acuminata|Musanga cecropioides|Mycobacterium leprae|Myelobia smerintha|Myelochroa aurulenta|Myrcia multiflora|Myristica cagayanensis|Myristica fragrans|Myrtopsis sellingii|Naja kaouthia|Nama hispidum|Narcissus concolor|Nasutitermes ephratae|Nauclea officinalis|Naucleopsis ternstroemiiflora|Negombata magnifica|Nelia pillansii|Nelumbo nucifera|Nematolepis phebalioides|Neobalanocarpus heimii|Neorautanenia ficifolia|Nicotiana sylvestris|Nostoc spongiaeforme|Nototodarus sloanii|Nuphar lutea|Ochna calodendron|Ocimum tenuiflorum|Ocotea holdridgeiana|Oenothera biennis|Okoubaka aubrevillei|Oncoba echinata|Oncoba glauca|Onobrychis arenaria|Onobrychis cyri|Onobrychis viciifolia|Ononis vaginalis|Ophidiaster ophidianus|Ophiolepis superba|Ophiopogon chekiangensis|Oreopteris quelpaertensis|Ormosia panamensis|Ornithorhynchus anatinus|Orostachys fimbriata|Orostachys japonicus|Orthosphenia mexicana|Osmerus mordax|Osteospermum muricatum|Osyris alba|Othonna dentata|Oxyanthus speciosus|Paeonia albiflora|Paeonia lactiflora|Paeonia obovata|Paeonia rockii|Paeonia suffruticosa|Paeonia veitchii|Palafoxia rosea|Panax japonicus|Pangium edule|Papaver hybridum|Papilio phorcas|Parabenzoin trilobum|Parablechnum minus|Paraburkholderia caryophylli|Paramecium tetraurelia|Paramignya griffithii|Parkia biglobosa|Parthenocissus tricuspidata|Pastinaca sativa|Pavetta owariensis|Pedicularis condensata|Pelargonium reniforme|Pelargonium sidoides|Peltophorum africanum|Peltostigma guatemalense|Penicillium abidjanum|Penicillium alutaceum|Penicillium janczewskii|Penicillium kapuscinskii|Penicillium kewense|Penicillium paxilli|Peperomia vulcanica|Perenniporia subacida|Perezia carpholepis|Periconia atropurpurea|Perityle vaseyi|Perriera orientalis|Persea sp.|Persicaria hydropiper|Persicaria orientalis|Persicaria perfoliata|Persicaria salicifolia|Persicaria sp.|Petasites georgicus|Phaeolus schweinitzii|Phaseolus vulgaris|Phebalium dentatum|Philotheca rhomboidea|Phlomoides medicinalis|Phoebe formosana|Phoebe pittieri|Phoenix dactylifera|Phoenix hanceana var. formosana|Phoenix loureiroi|Phoenix loureiroi var. loureiroi|Phoma medicaginis|Phora velutina|Phyfnnvik eyyfn|Phyllanthus Emblica|Phyllanthus emblica|Phyllanthus klotzschianus|Phyllanthus niruri|Phyllanthus oligospermus|Phyllocladus trichomanoides|Phyllocladus trichomanoides var. alpinus|Phyllopsora haemophaea|Physalis alkekengi|Physalis edulis|Picea abies|Picea mariana|Picea rubens|Picea sp.|Pieris napi|Pinus|Pinus massoniana|Pinus sibirica L.|Pinus sp.|Pinus strobus|Pinus sylvestris|Pinus sylvestris L.|Pinus taeda|Piper nigrum|Piptocarpha oblonga|Pistacia atlantica|Pistacia lentiscus|Pistacia vera|Pistacia weinmannifolia|Pisum sativum|Plantanus orientalis|Platycarya strobilacea|Pluchea odorata|Poacynum venetum|Podocarpus fasciculus|Podocarpus montanus|Polycephalomyces nipponicus|Polygonum Cuspidatum|Polygonum Hydropiper|Polygonum bistorta|Polygonum cuspidatum|Polygonum flaccidum|Polygonum glaucum|Polygonum hydropiper|Polygonum maritimum|Polygonum weyrichii|Polylepis besseri|Polylepis incana|Polyporus anthracophilus|Polysiphonia elongata|Polytolypa hystricis|Polyzonium rosalbum|Populus lasiocarpa|Populus szechuanica|Populus tremuloides|Populus violascens|Porella swartziana|Poria selecta|Potentilla anserina|Potentilla chrysantha|Potentilla erecta|Potentilla fruticosa|Potentilla longifolia|Potentilla sp.|Potentilla tormentilla|Premna odorata|Premna tomentosa|Primula sp.|Prorocentrum micans|Prosopis juliflora|Prosopis nigra|Prosopis torquata|Prunus Persica|Prunus armeniaca|Prunus avium|Prunus davidiana|Prunus domestica|Prunus dulcis|Prunus mume|Prunus padus|Prunus persica|Prunus prostrata|Prunus salicina|Prunus spinosa|Prunus ssiori|Prunus tomentosa|Pseudoalteromonas luteoviolacea|Pseudoalteromonas rubra|Pseudocyphellaria impressa|Pseudofumaria lutea|Pseudoparmelia sphaerospora|Pseudoplexaura flagellosa|Pseudotsuga menziesii|Pseudowintera colorata|Psidium cattleyanum|Psidium friedrichsthalianum|Psidium guajava|Psittacanthus cucullaris|Psora corallina|Psoroma pallidum|Psychotria stachyoides|Pteris cretica var. nervosa|Pteris inaequalis|Pteris radiata|Pteris semipinnata|Pterocarpus sp.|Punica granatum|Pyrola incarnata|Pyrus communis|Quercus acutissima|Quercus cerris L.|Quercus coccifera|Quercus dentata|Quercus glauca|Quercus ilex|Quercus ilex L.|Quercus imbricaria|Quercus marilandica|Quercus miyagii|Quercus mongolica|Quercus palustris Muencch.|Quercus petraea|Quercus petraea Liebl.|Quercus pubescens Willd.|Quercus robur|Quercus robur L.|Quercus rubra L.|Quercus sp.|Radix glycyrrhizae|Radix paeoniae rubra|Rapanea lancifolia|Rapanea neurophylla|Raphanus sativus|Rattus rattus|Rauvolfia vomitoria|Relbunium atherodes|Relhania pumila|Rhaponticum uniflorum|Rhei rhizoma|Rheum|Rheum Palmatum|Rheum australe|Rheum coreanum|Rheum emodi|Rheum maximowiczii|Rheum officinale|Rheum palmatum|Rheum rhabarbarum|Rheum sp.|Rheum tanguticum|Rheum webbianum|Rhinoceros sondaicus|Rhizobium leguminosarum|Rhizobium rhizogenes|Rhizochalina incrustata|Rhizoma codonopsis pilosulae|Rhizophora apiculata|Rhizophora stylosa|Rhodiola crenulata|Rhodiola semenovii|Rhodococcus fascians|Rhododendron dauricum|Rhododendron decorum|Rhododendron micranthum|Rhododendron mucronatum|Rhododendron sp.|Rhododendron spinuliferum|Rhodoglossum japonicum|Rhus glabra|Rhus typhina|Rhus vulgaris|Ribes fasciculatum var.chinense|Ribes nigrum|Ribes rubrum|Ribes sp.|Ribes uva-crispa|Rivularia firma|Roccellaria mollis|Rodgersia sambucifolia|Rogeria adenophylla|Rosa amblyotis|Rosa canina|Rosa cymosa|Rosa henryi|Rosa laevigata|Rosa maximowicziana|Rosa roxburghii|Rosa rugosa|Rosa sp.|Rosa taiwanensis|Rosa transmorrisonensis|Rosmarinus officinalis|Rubia cordifolia|Rubia oncotricha|Rubrivivax gelatinosus|Rubus|Rubus chamaemorus|Rubus chingii|Rubus coreanus|Rubus idaeus|Rubus irenaeus|Rumex acetosa|Rumex chalepensis|Rumex maritimus|Rumex patientia|Ruta pinnata|Sabal blackburniana|Sabina sargentii|Saccharomyces cerevisiae strain pah1 [n.a.]|Sagenomella striatispora|Sagittaria sagittifolia|Salacia chinensis|Salacia elliptica|Salacia lehmbachii|Salacia prinoides|Salix|Salix caprea|Salix denticulata|Salix gilgiana|Salix myrsinifolia|Salix sachalinensis|Salix sieboldiana|Salix sp.|Salmonella enterica subsp. enterica serovar typhimurium|Salvia coulteri|Salvia dorrii|Salvia hispanica|Salvia miltiorrhiza|Salvia officinalis|Salvia parryi|Salvia syriaca|Salvia yosgadensis|Sanguisorba alpina|Sanguisorba officinalis|Sapindus emarginatus|Sarcophyton elegans|Sargentodoxa cuneata|Satureja cuneifolia|Saussurea amara|Saxifraga cuneifolia|Schinus molle|Schisandra arisanensis|Schisandra plena|Schisandra propinqua|Schotia brachypetala|Schotia latifolia|Sciadopitys verticillata|Scleronephthya pallida|Sclerotinia fructigena|Scolopia spinosa|Scopolia hladnikiana|Scorzonera pseudodivaricata|Scrophularia buergeriana|Scrophularia koelzii|Scrophularia umbrosa|Scurrula atropurpurea|Scurrura atropurpurea|Scutellaria amoena|Sedum obtuso-lineare|Senecio adenophyllus|Senecio callosus|Senecio flavus|Senecio latifolius|Senecio polyodon|Senecio renardii|Senecio rivularis|Senecio sinuatus|Senecio subdentatus|Senecio vellereus|Senegalia catechu|Senegalia pennata|Senna reticulata|Senna siamea|Senna sophera|Sequoia sempervirens|Sequoiadendron giganteum|Serpocaulon triseriale|Sesamoides canescens|Seseli montanum|Sextonia rubra|Sia ferox|Sida cordifolia|Sideritis brevibracteata|Sideritis euboea|Sideroxylon cubense|Sinapis alba|Sinularia depressa|Sinularia facile|Sinularia maxima|Sisyrinchium californicum|Smilax china|Smilax glabra|Solanum andigena|Solanum elaeagnifolium|Solanum giganteum|Solanum laxum|Solanum melongena|Solanum nigrum|Solanum sisymbriifolium|Solanum sublobatum|Solenopsis invicta|Solidago flexicaulis|Sonchus ortunoi|Sophora angustifolia|Sophora japonica|Sorbus decora|Sorbus tianschanica|Sorghum bicolor|Spatholobus suberectus|Sphaerella laricina|Sphaerella rubella|Spiracantha cornifolia|Spiraea hypericifolia|Spirographis spallanzani|Spodoptera littoralis|Stauranthus perforatus|Stemodia maritima|Stephania elegans|Sterculia foetida|Stereospermum cylindricum|Stevia mercedensis|Stevia polycephala|Stizolobium deeringianum|Stocksia brahuica|Streptoalloteichus hindustanus|Streptomyces PM9|Streptomyces alboniger|Streptomyces avermectinius|Streptomyces caespitosus|Streptomyces cellulosae|Streptomyces cellulosae TES17|Streptomyces diastatochromogenes|Streptomyces fradiae|Streptomyces goshikiensis|Streptomyces hachijoensis|Streptomyces libani|Streptomyces mobaraensis|Streptomyces parvisporogenes|Streptomyces paulus|Streptomyces platensis|Streptomyces prunicolor|Streptomyces thermoviolaceus|Streptomyces xanthochromogenes|Streptomyces xantholiticus|Strychnos cathayensis|Strychnos erichsonii|Strychnos tabascana|Strychnos tomentosa|Styrax ferrugineus|Styrax perkinsiae|Swertia franchetiana|Swertia pseudochinensis|Swertia swertopsis|Swinglea glutinosa|Symploca hydnoides|Syncarpia hillii|Syzygium corynocarpum|Syzygium malaccense|Tachardia acaciae|Talaromyces pinophilus|Tanacetum argenteum|Taxillus kaempferi|Taxillus liquidambaricola|Taxodium distichum|Taxodium distichum var. imbricarium|Taxus brevifolia|Taxus cuspidata|Terminalia brachystemma|Tetracentron sinense|Tetraclinis articulata|Tetradium glabrifolium|Teucrium depressum|Teucrium yemense|Thalictrum longistylum|Thamnosma rhodesica|Theobroma Cacao|Theobroma cacao|Theobroma cacao L.|Theobroma grandiflorum|Theobroma sp.|Thuja standishii|Thujopsis dolabrata|Thymbra spicata|Thymus piperella|Thymus quinquecostatus|Thymus vulgaris|Toona sinensis|Trachycarpus Fortunei|Trachycarpus fortunei|Trametes cinnabarina|Triadenum japonicum|Triaenophora rupestris|Trichia floriformis|Trichilia rubescens|Trichocolea tomentella|Trichoderma koningi|Tricholoma batschii|Trichophyton mentagrophytes|Trichothecium sympodiale|Trifolium hybridum|Tripterospermum chinense|Tripterygium hypoglaucum|Triticum aestivum|Trollius chinensis|Tsuga chinensis|Turpinia ternata|Turraeanthus mannii|Tylophora tanakae|Typha capensis|Typha capensis (Rohrb.) N. E. Br|Typha latifolia|Ulmus davidiana|Ulmus laevis|Ulmus sp.|Umbilicaria esculenta|Uncaria gambir|Uncaria guianensis|Uncaria lanosa|Uncaria macrophylla|Uncaria rhynchophylla|Uncaria sinensis|Uncaria tomentosa|Usnea undulata|Utricularia australis|Uvaria griffithii|Vaccinium angustifolium|Vaccinium macrocarpon|Vaccinium oxycoccos|Vaccinium pahalae|Vaccinium sp.|Vaccinium vitis-idaea|Vachellia erioloba|Vachellia gerrardii|Vachellia nilotica|Vachellia pennatula|Vasconcellea cundinamarcensis|Vateria indica|Verbesina rupestris|Veronica austriaca|Viburnum cylindricum|Viburnum opulus|Viburnum rhytidophyllum|Viburnum sp.|Viburnum urceolatum|Vicia faba|Vigna Angularis|Vigna angularis|Vigna mungo|Vigna umbellata|Vigna umbeuata|Viguiera decurrens|Viguiera incana|Viguiera linearis|Viguiera oblongifolia|Vincetoxicum hirundinaria|Virgilia divaricata|Virola multinervia|Viscum rotundifolium|Visnea mocanera|Vitex negundo|Vitis Vinifera|Vitis labrusca|Vitis rotundifolia|Vitis sp.|Vitis vinifera|Viviparus japonicus|Wibelia divaricata|Wikstroemia retusa|Wisteria floribunda|Wisteria sinensis|Woodfordia uniflora|Woodwardia orientalis|Xanthoceras sorbifolia Bunge|Xanthoparmelia pokornyi|Xenoacremonium recifei|Xylocarpus Granatum|Xylocarpus granatum|Xyris pterygoblephara|Zanthoxylum bungeanum|Zanthoxylum piperitum|Zanthoxylum schinifolium|Zanthoxylum tetraspermum|Zephyranthes sulphurea|Zingiber|Zingiber officinale|Ziziphus jujuba|[polyangium] brachysporum|broad bean|byrsonima coccolobifolia|cacao|clove|garlic|guarana|lettuce|peanut|pomegranate|soybean|tomato

>  <collections>  (1130) 
ANPDB|AfroCancer|AfroDB|AnalytiCon Discovery NPs|Australian natural products|BitterDB|CMAUP (cCollective molecular activities of useful plants)|ChEBI NPs|ChemSpider NPs|ConMedNP|DrugBankNP|EMNPD|ETM (Ethiopian Traditional Medicine) DB|FooDB|GNPS (Global Natural Products Social Molecular Networking)|KNApSaCK|Latin America dataset|Mitishamba database|NANPDB (Natural Products from Northern African Sources)|NAPRORE-CR|NPACT|NPASS|NPEdia|NuBBEDB|Phenol-explorer|Phyto4Health|PhytoLab phyproof® Reference Substances|SANCDB|StreptomeDB|Super Natural II|TCMDB-Taiwan (Traditional Chinese Medicine database)|TIPdb (database of Taiwan indigenous plants)|TPPT (Toxic Plants–PhytoToxins)|UEFS (Natural Products Databse of the UEFS)|VietHerb|Watermelon|WikiData Natural Products

>  <dois>  (1130) 
10.1002/(SICI)1097-0142(19960415)77:8+<1662::AID-CNCR12>3.0.CO;2-W|10.1002/(SICI)1097-458X(199611)34:11<887::AID-OMR995>3.0.CO;2-U|10.1002/(SICI)1099-1565(199601)7:1<42::AID-PCA282>3.0.CO;2-K|10.1002/(SICI)1099-1565(200003/04)11:2<106::AID-PCA496>3.0.CO;2-O|10.1002/(SICI)1099-1573(1998)12:1+<S138::AID-PTR276>3.0.CO;2-5|10.1002/(SICI)1099-1573(199805)12:3<209::AID-PTR215>3.0.CO;2-P|10.1002/(SICI)1099-1573(199809)12:6<442::AID-PTR320>3.0.CO;2-Y|10.1002/(SICI)1521-4168(19990401)22:4<225::AID-JHRC225>3.0.CO;2-V|10.1002/1099-1573(200011)14:7<501::AID-PTR655>3.0.CO;2-B|10.1002/9780470744307.gat218|10.1002/CBDV.201000279|10.1002/CBDV.201000373|10.1002/CBDV.201100002|10.1002/CHIN.200317197|10.1002/CHIN.200407160|10.1002/CHIN.200543206|10.1002/ELPS.200390159|10.1002/ELPS.201300646|10.1002/HLCA.200590178|10.1002/HLCA.200890115|10.1002/J.1537-2197.1986.TB10906.X|10.1002/JCCS.199300096|10.1002/JCCS.199500018|10.1002/JCCS.199500076|10.1002/JCCS.199600013|10.1002/JCCS.200000178|10.1002/JCCS.200200020|10.1002/JCCS.200700013|10.1002/JLAC.19545870304|10.1002/JMS.3818|10.1002/JMS.395|10.1002/JSFA.6627|10.1002/JSFA.7075|10.1002/JSSC.200500003|10.1002/MNFR.200400064|10.1002/MNFR.200500064|10.1002/PCA.548|10.1002/PCA.583|10.1002/PCA.627|10.1002/PTR.1513|10.1002/PTR.1834|10.1002/PTR.2650030406|10.1002/PTR.2650040505|10.1002/PTR.2650050512|10.1002/PTR.785|10.1002/PTR.936|10.1002/food.19880321030|10.1006/FSTL.2001.0843|10.1006/JFCA.2002.1071|10.1007/978-1-4899-1783-6_3|10.1007/BF00381261|10.1007/BF00563836|10.1007/BF00563963|10.1007/BF00564020|10.1007/BF00564031|10.1007/BF00564830|10.1007/BF00570721|10.1007/BF00574349|10.1007/BF00574353|10.1007/BF00574392|10.1007/BF00575060|10.1007/BF00575195|10.1007/BF00597729|10.1007/BF00598322|10.1007/BF00598324|10.1007/BF00598596|10.1007/BF00598597|10.1007/BF00599015|10.1007/BF00633406|10.1007/BF00638416|10.1007/BF00713343|10.1007/BF00766794|10.1007/BF00833411|10.1007/BF01012523|10.1007/BF01134639|10.1007/BF01201768|10.1007/BF01202512|10.1007/BF02249631|10.1007/BF02262390|10.1007/BF02291535|10.1007/BF02291536|10.1007/BF02291537|10.1007/BF02291539|10.1007/BF02323304|10.1007/BF02490693|10.1007/BF02490789|10.1007/BF02855558|10.1007/BF02858178|10.1007/BF02896679|10.1007/BF02975503|10.1007/BF02975848|10.1007/BF02977346|10.1007/S00217-002-0603-1|10.1007/S00217-003-0762-8|10.1007/S00217-004-0918-1|10.1007/S00217-004-0938-X|10.1007/S002170000265|10.1007/S002170100354|10.1007/S00425-015-2460-8|10.1007/S00580-015-2192-Y|10.1007/S006040170028|10.1007/S10529-015-1825-1|10.1007/S10600-005-0133-8|10.1007/S10600-006-0099-1|10.1007/S10600-008-9113-0|10.1007/S10600-009-9245-X|10.1007/S10600-009-9410-2|10.1007/S10600-010-9599-0|10.1007/S10600-010-9649-7|10.1007/S10600-010-9753-8|10.1007/S10600-011-0015-1|10.1007/S10600-011-0016-0|10.1007/S10600-011-9935-Z|10.1007/S10600-012-0138-Z|10.1007/S11094-007-0019-0|10.1007/S11418-005-0026-Y|10.1007/S11418-006-0119-2|10.1007/S11627-000-0088-1|10.1007/S11947-012-0877-7|10.1007/S12272-011-0205-1|10.1007/s00425-015-2460-8|10.1016/0021-9673(95)00755-5|10.1016/0021-9673(95)00765-2|10.1016/0021-9673(96)00456-6|10.1016/0031-6865(95)00027-7|10.1016/0031-9422(75)85306-4|10.1016/0031-9422(77)80016-2|10.1016/0031-9422(80)85076-X|10.1016/0031-9422(82)80150-7|10.1016/0031-9422(84)83041-1|10.1016/0031-9422(88)80042-6|10.1016/0031-9422(88)80753-2|10.1016/0031-9422(88)80758-1|10.1016/0031-9422(88)84101-3|10.1016/0031-9422(88)84117-7|10.1016/0031-9422(89)80060-3|10.1016/0031-9422(89)80370-X|10.1016/0031-9422(90)80054-K|10.1016/0031-9422(90)85341-C|10.1016/0031-9422(91)83469-2|10.1016/0031-9422(91)83714-V|10.1016/0031-9422(91)84145-I|10.1016/0031-9422(91)84150-Q|10.1016/0031-9422(91)84228-K|10.1016/0031-9422(91)85063-6|10.1016/0031-9422(91)85260-7|10.1016/0031-9422(92)80123-V|10.1016/0031-9422(92)80196-L|10.1016/0031-9422(92)80267-I|10.1016/0031-9422(92)80317-8|10.1016/0031-9422(92)80352-F|10.1016/0031-9422(92)80375-O|10.1016/0031-9422(92)83158-U|10.1016/0031-9422(92)83300-N|10.1016/0031-9422(92)83658-L|10.1016/0031-9422(93)85116-9|10.1016/0031-9422(93)85229-K|10.1016/0031-9422(93)85231-F|10.1016/0031-9422(93)85250-U|10.1016/0031-9422(93)85370-7|10.1016/0031-9422(93)85433-R|10.1016/0031-9422(94)00934-L|10.1016/0031-9422(95)00023-2|10.1016/0031-9422(95)00057-E|10.1016/0031-9422(95)00144-V|10.1016/0031-9422(95)00269-D|10.1016/0031-9422(95)00378-K|10.1016/0031-9422(95)00602-8|10.1016/0031-9422(95)00884-5|10.1016/0031-9422(96)00122-7|10.1016/0031-9422(96)00203-8|10.1016/0031-9422(96)00291-9|10.1016/0031-9422(96)00301-9|10.1016/0031-9422(96)00926-0|10.1016/0091-3057(87)90619-8|10.1016/0166-3542(93)90095-Z|10.1016/0305-1978(94)00092-U|10.1016/0305-1978(95)93663-N|10.1016/0308-8146(92)90223-O|10.1016/0731-7085(91)80128-V|10.1016/0952-3278(94)90141-4|10.1016/0963-9969(94)00046-B|10.1016/J.BMCL.2010.10.058|10.1016/J.BMCL.2010.12.025|10.1016/J.BMCL.2011.04.041|10.1016/J.BMCL.2011.11.109|10.1016/J.BMCL.2013.12.098|10.1016/J.BMCL.2015.02.048|10.1016/J.BMCL.2015.05.089|10.1016/J.BSE.2016.02.030|10.1016/J.FCT.2004.01.008|10.1016/J.FITOTE.2004.09.019|10.1016/J.FITOTE.2009.01.006|10.1016/J.FITOTE.2009.05.001|10.1016/J.FITOTE.2009.05.006|10.1016/J.FITOTE.2009.08.015|10.1016/J.FITOTE.2011.08.020|10.1016/J.FOODCHEM.2005.02.007|10.1016/J.FOODCHEM.2005.11.053|10.1016/J.FOODCHEM.2006.11.008|10.1016/J.FOODCHEM.2008.11.094|10.1016/J.FOODCHEM.2010.11.034|10.1016/J.FOODCHEM.2015.01.054|10.1016/J.FOODCHEM.2019.125629|10.1016/J.FOODCHEM.2020.128444|10.1016/J.FOODCONT.2014.02.001|10.1016/J.FOODRES.2004.10.005|10.1016/J.FOODRES.2010.09.027|10.1016/J.FOODRES.2014.04.046|10.1016/J.FOODRES.2017.03.019|10.1016/J.FOODRES.2017.06.052|10.1016/J.IFSET.2018.01.008|10.1016/J.INDCROP.2013.06.011|10.1016/J.INDCROP.2018.08.004|10.1016/J.JEP.2005.01.056|10.1016/J.JEP.2005.03.017|10.1016/J.LWT.2014.11.023|10.1016/J.LWT.2018.02.024|10.1016/J.PHYMED.2006.08.005|10.1016/J.PHYMED.2006.11.021|10.1016/J.PHYMED.2008.08.006|10.1016/J.PHYTOCHEM.2007.05.018|10.1016/J.PHYTOCHEM.2007.07.019|10.1016/J.PHYTOCHEM.2008.01.020|10.1016/J.PHYTOCHEM.2008.04.004|10.1016/J.PHYTOCHEM.2009.06.006|10.1016/J.PHYTOCHEM.2009.08.018|10.1016/J.PHYTOCHEM.2010.03.014|10.1016/J.PLAPHY.2015.04.008|10.1016/J.TETLET.2009.01.158|10.1016/S0003-2670(01)01498-2|10.1016/S0003-2670(97)00668-5|10.1016/S0021-9673(00)00269-7|10.1016/S0021-9673(00)01030-X|10.1016/S0021-9673(01)00598-2|10.1016/S0021-9673(01)87172-7|10.1016/S0021-9673(01)87655-X|10.1016/S0021-9673(97)00900-X|10.1016/S0021-9673(97)00906-0|10.1016/S0021-9673(98)00294-5|10.1016/S0021-9673(99)00281-2|10.1016/S0021-9673(99)00569-5|10.1016/S0021-9673(99)00684-6|10.1016/S0024-3205(97)00883-7|10.1016/S0031-9422(00)00192-8|10.1016/S0031-9422(00)80327-1|10.1016/S0031-9422(00)80826-2|10.1016/S0031-9422(00)81052-3|10.1016/S0031-9422(00)81304-7|10.1016/S0031-9422(00)81446-6|10.1016/S0031-9422(00)81505-8|10.1016/S0031-9422(00)81524-1|10.1016/S0031-9422(00)81581-2|10.1016/S0031-9422(00)81756-2|10.1016/S0031-9422(00)82297-9|10.1016/S0031-9422(00)82371-7|10.1016/S0031-9422(00)82468-1|10.1016/S0031-9422(00)83128-3|10.1016/S0031-9422(00)83483-4|10.1016/S0031-9422(00)83598-0|10.1016/S0031-9422(00)83902-3|10.1016/S0031-9422(00)84524-0|10.1016/S0031-9422(00)85959-2|10.1016/S0031-9422(00)89817-9|10.1016/S0031-9422(00)90483-7|10.1016/S0031-9422(00)94508-4|10.1016/S0031-9422(00)94532-1|10.1016/S0031-9422(00)94785-X|10.1016/S0031-9422(00)95090-8|10.1016/S0031-9422(00)95117-3|10.1016/S0031-9422(00)95212-9|10.1016/S0031-9422(00)95213-0|10.1016/S0031-9422(00)97017-1|10.1016/S0031-9422(00)97746-X|10.1016/S0031-9422(00)98001-4|10.1016/S0031-9422(00)98234-7|10.1016/S0031-9422(01)00154-6|10.1016/S0031-9422(01)00172-8|10.1016/S0031-9422(01)00337-5|10.1016/S0031-9422(02)00051-1|10.1016/S0031-9422(02)00439-9|10.1016/S0031-9422(03)00104-3|10.1016/S0031-9422(96)00747-9|10.1016/S0031-9422(96)00771-6|10.1016/S0031-9422(96)00842-4|10.1016/S0031-9422(97)00198-2|10.1016/S0031-9422(97)00398-1|10.1016/S0031-9422(97)00525-6|10.1016/S0031-9422(97)00628-6|10.1016/S0031-9422(97)00873-X|10.1016/S0031-9422(98)00075-2|10.1016/S0031-9422(98)00107-1|10.1016/S0031-9422(98)00426-9|10.1016/S0031-9422(99)00074-6|10.1016/S0031-9422(99)00183-1|10.1016/S0031-9422(99)00338-6|10.1016/S0031-9422(99)00457-4|10.1016/S0031-9422(99)00598-1|10.1016/S0254-6299(15)30298-2|10.1016/S0278-6915(01)00076-X|10.1016/S0304-3835(99)00160-3|10.1016/S0304-4165(99)00102-6|10.1016/S0304-4238(02)00127-9|10.1016/S0305-1978(97)00032-X|10.1016/S0305-1978(97)00061-6|10.1016/S0308-8146(02)00112-7|10.1016/S0308-8146(02)00415-6|10.1016/S0308-8146(02)00590-3|10.1016/S0308-8146(99)00179-X|10.1016/S0367-326X(00)00298-7|10.1016/S0367-326X(00)00328-2|10.1016/S0367-326X(01)00269-6|10.1016/S0367-326X(01)00295-7|10.1016/S0367-326X(03)00041-8|10.1016/S0367-326X(99)00068-4|10.1016/S0367-326X(99)00161-6|10.1016/S0378-8741(01)00197-0|10.1016/S0378-8741(97)00039-1|10.1016/S0378-8741(99)00117-8|10.1016/S0889-1575(02)91071-9|10.1016/S0928-3420(99)80023-8|10.1016/S0960-894X(98)00528-9|10.1016/S0963-9969(00)00070-3|10.1016/S0968-0896(00)00102-4|10.1016/S1383-5718(99)00040-6|10.1016/S1875-5364(09)60015-7|10.1016/j.bmc.2012.02.002|10.1016/j.bmcl.2010.10.058|10.1016/j.bmcl.2010.12.025|10.1016/j.bmcl.2011.04.041|10.1016/j.bmcl.2011.11.109|10.1016/j.bmcl.2013.12.098|10.1016/j.bmcl.2015.02.048|10.1016/j.bmcl.2015.05.089|10.1016/j.bmcl.2016.08.094|10.1016/j.bmcl.2017.01.083|10.1016/j.foodchem.2006.11.048|10.1016/j.foodchem.2020.128444|10.1016/j.foodcont.2014.02.001|10.1016/j.foodres.2019.108899|10.1016/j.indcrop.2013.06.011|10.1016/j.jep.2005.01.056|10.1016/j.jfca.2018.09.012|10.1016/j.lwt.2014.11.023|10.1016/j.ymben.2017.02.007|10.1016/s1570-0232(02)00967-4|10.1017/CBO9781107252806.053|10.1021/ACS.JNATPROD.5B01035|10.1021/JF000026+|10.1021/JF000050N|10.1021/JF00017A016|10.1021/JF00022A013|10.1021/JF00028A012|10.1021/JF000316Q|10.1021/JF00031A010|10.1021/JF00035A032|10.1021/JF00048A016|10.1021/JF00052A008|10.1021/JF000549H|10.1021/JF000670O|10.1021/JF00074A022|10.1021/JF00088A050|10.1021/JF00091A019|10.1021/JF0009347|10.1021/JF0009753|10.1021/JF00097A031|10.1021/JF010153L|10.1021/JF0104681|10.1021/JF010526I|10.1021/JF010758H|10.1021/JF0110194|10.1021/JF011064B|10.1021/JF011178N|10.1021/JF011533+|10.1021/JF0116202|10.1021/JF025993U|10.1021/JF0301798|10.1021/JF030595S|10.1021/JF0346298|10.1021/JF035416L|10.1021/JF049317Z|10.1021/JF049450R|10.1021/JF051513Y|10.1021/JF0531499|10.1021/JF060395R|10.1021/JF061478A|10.1021/JF0721038|10.1021/JF2011535|10.1021/JF403644R|10.1021/JF60228A061|10.1021/JF900695S|10.1021/JF900950Z|10.1021/JF9505335|10.1021/JF950611O|10.1021/JF950652K|10.1021/JF9601628|10.1021/JF960168X|10.1021/JF970468U|10.1021/JF970753D|10.1021/JF9707546|10.1021/JF970831X|10.1021/JF970889B|10.1021/JF980223X|10.1021/JF980760H|10.1021/JF981114L|10.1021/JF981380Z|10.1021/JF990019P|10.1021/JF990563Y|10.1021/JF990665O|10.1021/JF9909757|10.1021/JF991171U|10.1021/JF9912506|10.1021/JO01085A036|10.1021/NP000061A|10.1021/NP000084P|10.1021/NP000135I|10.1021/NP000486X|10.1021/NP010035S|10.1021/NP010451C|10.1021/NP010465I|10.1021/NP0105578|10.1021/NP010566G|10.1021/NP020003K|10.1021/NP020048L|10.1021/NP020351M|10.1021/NP020576X|10.1021/NP0301442|10.1021/NP0301543|10.1021/NP030423P|10.1021/NP034002J|10.1021/NP0501031|10.1021/NP050545C|10.1021/NP0580210|10.1021/NP060107L|10.1021/NP060217S|10.1021/NP060284M|10.1021/NP060284M.S001|10.1021/NP060425K|10.1021/NP070327E|10.1021/NP1003005|10.1021/NP100372T|10.1021/NP400717M|10.1021/NP50012A008|10.1021/NP50040A007|10.1021/NP50040A042|10.1021/NP50073A022|10.1021/NP50082A008|10.1021/NP50103A006|10.1021/NP50108A006|10.1021/NP800762X|10.1021/NP900225P|10.1021/NP960037Q|10.1021/NP9700331|10.1021/NP970198+|10.1021/acs.jnatprod.0c00330|10.1021/acs.jnatprod.0c00395|10.1021/jf803911n|10.1021/np010451c|10.1021/np020048l|10.1021/np0301543|10.1021/np049743e|10.1021/np060284m|10.1021/np100372t|10.1021/np400717m|10.1021/np50052a004|10.1021/np50073a022|10.1021/np50103a006|10.1021/np970198+|10.1023/B:CONC.0000003414.46129.15|10.1023/B:CONC.0000018119.19021.18|10.1023/B:CONC.0000025479.07578.5D|10.1023/B:CONC.0000025480.17399.66|10.1034/J.1399-3054.1999.100301.X|10.1038/SCIENTIFICAMERICAN08131892-13860DSUPP|10.1038/sj.ejcn.1601471|10.1039/A909219F|10.1039/B100437I|10.1039/J39660001644|10.1039/P19740000961|10.1039/P19810001148|10.1039/P19880000219|10.1039/P19930002467|10.1039/jr9570003586|10.1055/S-0028-1088324|10.1055/S-0031-1299862|10.1055/S-2000-11135|10.1055/S-2000-8633|10.1055/S-2003-38886|10.1055/S-2003-43208|10.1055/S-2005-871225|10.1055/S-2005-871257|10.1055/S-2006-957506|10.1055/S-2006-957847|10.1055/S-2006-958086|10.1055/S-2006-958146|10.1055/S-2006-959567|10.1055/S-2006-959666|10.1055/S-2006-960021|10.1055/S-2006-960845|10.1055/S-2006-961394|10.1055/S-2006-961642|10.1055/S-2006-962032|10.1055/S-2006-962094|10.1055/S-2006-962183|10.1055/S-2007-969386|10.1055/S-2007-969532|10.1055/S-2007-969797|10.1055/S-2007-979339|10.1055/S-2007-979340|10.1055/S-2007-990223|10.1055/S-2008-1034328|10.1071/CH9680425|10.1076/1388-0209(200007)3831-SFT222|10.1076/PHBI.35.2.141.13285|10.1076/PHBI.36.1.29.4626|10.1076/PHBI.36.2.131.4604|10.1078/0944-7113-00003|10.1078/0944-7113-00117|10.1080/00021369.1988.10868657|10.1080/00021369.1991.10870770|10.1080/01483918808076763|10.1080/09637486.2017.1418845|10.1080/10286020.2010.485932|10.1080/10286020.2010.502892|10.1080/10286020.2011.603306|10.1080/10286020.2011.641535|10.1080/1028602021000049087|10.1080/1028602042000204045|10.1080/10408398.2015.1078276|10.1080/10575630108041254|10.1080/1071576021000006707|10.1080/10826079208018822|10.1080/13102818.2006.10817302|10.1080/13880200490510856|10.1080/14786410801940968|10.1080/14786419.2012.725397|10.1081/JLC-100103434|10.1081/JLC-120003036|10.1081/JLC-120008754|10.1093/CARCIN/BGI347|10.1093/JAOAC/81.4.691|10.1104/PP.100.1.444|10.1104/PP.69.2.522|10.1104/PP.93.1.20|10.1111/1750-3841.12781|10.1111/J.1365-2621.1983.TB10787.X|10.1111/J.1365-2621.2005.TB08304.X|10.1111/J.1745-4557.2003.TB00243.X|10.1111/J.1745-4557.2006.00096.X|10.1111/J.1755-0238.2000.TB00185.X|10.1142/S0192415X01000198|10.1142/S0192415X97000342|10.1159/000261407|10.1177/1934578X0800300227|10.1177/1934578X1000500721|10.1177/1934578X1501001229|10.1186/1752-153X-7-118|10.1186/S12906-018-2154-4|10.1186/s12906-015-0873-3|10.1186/s12906-018-2154-4|10.1207/S15327914NC402_14|10.1211/0022357021779014|10.1211/JPP.60.4.0011|10.1248/BPB.17.1613|10.1248/BPB.18.683|10.1248/BPB.23.1328|10.1248/BPB.25.1241|10.1248/CPB.29.2862|10.1248/CPB.31.3906|10.1248/CPB.32.2011|10.1248/CPB.33.1503|10.1248/CPB.33.2281|10.1248/CPB.33.3142|10.1248/CPB.33.3293|10.1248/CPB.33.4338|10.1248/CPB.34.3208|10.1248/CPB.34.4083|10.1248/CPB.35.1105|10.1248/CPB.35.1817|10.1248/CPB.35.611|10.1248/CPB.36.1545|10.1248/CPB.36.33|10.1248/CPB.36.828|10.1248/CPB.37.3301|10.1248/CPB.38.1506|10.1248/CPB.38.888|10.1248/CPB.39.803|10.1248/CPB.40.1383|10.1248/CPB.40.1750|10.1248/CPB.40.1997|10.1248/CPB.40.2092|10.1248/CPB.40.851|10.1248/CPB.41.1708|10.1248/CPB.41.1803|10.1248/CPB.44.1033|10.1248/CPB.44.1748|10.1248/CPB.46.1051|10.1248/CPB.46.113|10.1248/CPB.46.166|10.1248/CPB.46.169|10.1248/CPB.47.1049|10.1248/CPB.47.141|10.1248/CPB.48.1114|10.1248/CPB.48.201|10.1248/CPB.51.1051|10.1248/CPB.51.343|10.1248/CPB.51.62|10.1248/CPB.54.735|10.1248/CPB.55.1597|10.1248/CPB.55.268|10.1248/CPB.55.606|10.1248/CPB.56.585|10.1248/CPB.56.97|10.1248/CPB.57.280|10.1248/CPB.57.397|10.1248/CPB.58.1379|10.1248/YAKUSHI1947.116.2_148|10.1271/BBB.50669|10.1271/BBB.57.2122|10.1271/BBB.59.1780|10.1271/BBB.59.2134|10.1271/BBB.61.1099|10.1271/BBB.61.1901|10.1271/BBB.61.332|10.1271/BBB.62.1535|10.1271/BBB.80065|10.1271/BBB.80897|10.1271/BBB.90181|10.1271/BBB1961.46.1079|10.1271/BBB1961.47.421|10.1271/BBB1961.52.149|10.1271/BBB1961.52.595|10.1271/BBB1961.53.2307|10.1271/BBB1961.55.1425|10.1271/NOGEIKAGAKU1924.58.1131|10.1371/JOURNAL.PONE.0142777|10.1371/JOURNAL.PONE.0214193|10.1515/PJFNS-2017-0005|10.1515/ZNC-1992-0602|10.1515/ZNC-1992-9-1022|10.1515/ZNC-1994-11-1225|10.1515/ZNC-1994-9-1013|10.1515/ZNC-1997-3-420|10.1515/ZNC-1998-9-1004|10.1515/ZNC-1999-1-223|10.1515/ZNC-1999-1114|10.1590/S0103-50532005000800008|10.17660/ACTAHORTIC.1980.96.44|10.21548/25-2-2143|10.21608/BFSA.1995.69674|10.25258/IJPAPR.V9I1.8041|10.30574/GSCBPS.2018.5.1.0105|10.3109/13880209109082884|10.3109/13880209409083024|10.3109/13880209509088143|10.3136/NSKKK.50.180|10.3177/JNSV.46.199|10.3390/12051163|10.3390/12081950|10.3390/IJMS160715625|10.3390/MOLECULES13061219|10.3390/MOLECULES15074599|10.3390/MOLECULES15085547|10.3390/MOLECULES15107153|10.3390/MOLECULES21111586|10.3390/MOLECULES22101606|10.3390/MOLECULES23020469|10.3390/MOLECULES23030604|10.3390/NU11061377|10.3390/molecules22010011|10.3390/plants6040050|10.3797/SCIPHARM.AUT-05-10|10.38212/2224-6614.2870|10.3987/COM-01-9284|10.3987/COM-02-9596|10.3987/COM-90-5425|10.4236/FNS.2012.33050|10.5012/BKCS.2011.32.6.2079|10.5344/AJEV.1987.38.4.277|10.5344/AJEV.1998.49.1.23|10.5539/JPS.V1N2P61|10.5539/jps.v1n2p61

>  <synonyms>  (1130) 
nan

>  <cas>  (1130) 
154-23-4|7295-85-4|100786-01-4|8001-48-7|154-23-4 | anhydride|321-01-7

$$$$

     RDKit          2D

 35 36  0  0  0  0  0  0  0  0999 V2000
    7.0729   -4.5230    0.0000 C   0  0  0  0  0  0  0  0  0  0  0  0
    5.5786   -4.3923    0.0000 C   0  0  0  0  0  0  0  0  0  0  0  0
    4.9447   -3.0328    0.0000 C   0  0  0  0  0  0  0  0  0  0  0  0
    5.8051   -1.8041    0.0000 C   0  0  0  0  0  0  0  0  0  0  0  0
    3.4504   -2.9021    0.0000 C   0  0  0  0  0  0  0  0  0  0  0  0
    2.5900   -4.1308    0.0000 O   0  0  0  0  0  0  0  0  0  0  0  0
    2.8165   -1.5426    0.0000 O   0  0  0  0  0  0  0  0  0  0  0  0
    1.3222   -1.4118    0.0000 C   0  0  0  0  0  0  0  0  0  0  0  0
    0.4618   -2.6406    0.0000 C   0  0  0  0  0  0  0  0  0  0  0  0
    0.6883   -0.0524    0.0000 C   0  0  0  0  0  0  0  0  0  0  0  0
   -0.8060    0.0784    0.0000 C   0  0  0  0  0  0  0  0  0  0  0  0
   -1.6664   -1.1504    0.0000 O   0  0  0  0  0  0  0  0  0  0  0  0
   -3.1607   -1.0196    0.0000 C   0  0  0  0  0  0  0  0  0  0  0  0
   -3.7946    0.3398    0.0000 O   0  0  0  0  0  0  0  0  0  0  0  0
   -5.2889    0.4706    0.0000 C   0  0  0  0  0  0  0  0  0  0  0  0
   -5.9228    1.8300    0.0000 C   0  0  0  0  0  0  0  0  0  0  0  0
   -5.0624    3.0588    0.0000 O   0  0  0  0  0  0  0  0  0  0  0  0
   -6.1493   -0.7581    0.0000 C   0  0  0  0  0  0  0  0  0  0  0  0
   -7.6436   -0.6274    0.0000 O   0  0  0  0  0  0  0  0  0  0  0  0
   -5.5153   -2.1176    0.0000 C   0  0  0  0  0  0  0  0  0  0  0  0
   -6.3757   -3.3463    0.0000 O   0  0  0  0  0  0  0  0  0  0  0  0
   -4.0210   -2.2484    0.0000 C   0  0  0  0  0  0  0  0  0  0  0  0
   -3.3871   -3.6078    0.0000 O   0  0  0  0  0  0  0  0  0  0  0  0
   -1.4399    1.4378    0.0000 O   0  0  0  0  0  0  0  0  0  0  0  0
   -0.5796    2.6665    0.0000 C   0  0  0  0  0  0  0  0  0  0  0  0
    0.9147    2.5358    0.0000 C   0  0  0  0  0  0  0  0  0  0  0  0
    1.7751    3.7645    0.0000 C   0  0  0  0  0  0  0  0  0  0  0  0
    2.7586    3.7989    0.0000 O   0  0  0  0  0  0  0  0  0  0  0  0
    1.1412    5.1240    0.0000 O   0  0  0  0  0  0  0  0  0  0  0  0
    2.0015    6.3527    0.0000 C   0  0  0  0  0  0  0  0  0  0  0  0
    1.5486    1.1763    0.0000 C   0  0  0  0  0  0  0  0  0  0  0  0
    3.0429    1.0456    0.0000 C   0  0  0  0  0  0  0  0  0  0  0  0
    3.9033    2.2743    0.0000 C   0  0  0  0  0  0  0  0  0  0  0  0
    5.3976    2.1436    0.0000 O   0  0  0  0  0  0  0  0  0  0  0  0
    3.5992    3.2103    0.0000 O   0  0  0  0  0  0  0  0  0  0  0  0
  1  2  1  0
  2  3  2  0
  3  4  1  0
  3  5  1  0
  5  6  2  0
  5  7  1  0
  7  8  1  0
  8  9  1  6
 10  8  1  1
 10 11  1  0
 11 12  1  6
 13 12  1  1
 13 14  1  0
 14 15  1  0
 15 16  1  1
 16 17  1  0
 15 18  1  0
 18 19  1  6
 18 20  1  0
 20 21  1  1
 20 22  1  0
 22 23  1  6
 11 24  1  0
 24 25  1  0
 25 26  2  0
 26 27  1  0
 27 28  2  0
 27 29  1  0
 29 30  1  0
 26 31  1  0
 31 32  1  1
 32 33  1  0
 33 34  2  0
 33 35  1  0
 31 10  1  0
 22 13  1  0
M  END
>  <identifier>  (1131) 
CNP0173331.1

>  <canonical_smiles>  (1131) 
C/C=C(\C)C(=O)O[C@H](C)[C@H]1[C@H](O[C@@H]2O[C@H](CO)[C@@H](O)[C@H](O)[C@H]2O)OC=C(C(=O)OC)[C@H]1CC(=O)O

>  <standard_inchi>  (1131) 
InChI=1S/C22H32O13/c1-5-9(2)19(29)33-10(3)15-11(6-14(24)25)12(20(30)31-4)8-32-21(15)35-22-18(28)17(27)16(26)13(7-23)34-22/h5,8,10-11,13,15-18,21-23,26-28H,6-7H2,1-4H3,(H,24,25)/b9-5+/t10-,11-,13-,15-,16-,17+,18-,21+,22+/m1/s1

>  <standard_inchi_key>  (1131) 
JVEXRQAKPOSWCW-WGOFRKARSA-N

>  <name>  (1131) 
nan

>  <iupac_name>  (1131) 
2-[(2~{S},3~{S},4~{S})-5-methoxycarbonyl-3-[(1~{R})-1-[(~{E})-2-methylbut-2-enoyl]oxyethyl]-2-[(2~{S},3~{R},4~{S},5~{S},6~{R})-3,4,5-trihydroxy-6-(hydroxymethyl)tetrahydropyran-2-yl]oxy-3,4-dihydro-2~{H}-pyran-4-yl]acetic acid

>  <annotation_level>  (1131) 
2

>  <total_atom_count>  (1131) 
67

>  <heavy_atom_count>  (1131) 
35

>  <molecular_weight>  (1131) 
504.49

>  <exact_molecular_weight>  (1131) 
504.18429

>  <molecular_formula>  (1131) 
C22H32O13

>  <alogp>  (1131) 
-1.18

>  <topological_polar_surface_area>  (1131) 
198.51

>  <rotatable_bond_count>  (1131) 
9

>  <hydrogen_bond_acceptors>  (1131) 
12

>  <hydrogen_bond_donors>  (1131) 
5

>  <hydrogen_bond_acceptors_lipinski>  (1131) 
12

>  <hydrogen_bond_donors_lipinski>  (1131) 
5

>  <lipinski_rule_of_five_violations>  (1131) 
2

>  <aromatic_rings_count>  (1131) 
0

>  <qed_drug_likeliness>  (1131) 
0.19

>  <formal_charge>  (1131) 
0

>  <fractioncsp3>  (1131) 
0.68

>  <number_of_minimal_rings>  (1131) 
2

>  <van_der_walls_volume>  (1131) 
439.58

>  <contains_sugar>  (1131) 
True

>  <contains_ring_sugars>  (1131) 
True

>  <contains_linear_sugars>  (1131) 
False

>  <murcko_framework>  (1131) 
O1C=CCCC1OC2OCCCC2

>  <np_likeness>  (1131) 
2.43

>  <chemical_class>  (1131) 
Prenol lipids

>  <chemical_sub_class>  (1131) 
Monoterpenoids

>  <chemical_super_class>  (1131) 
Lipids and lipid-like molecules

>  <direct_parent_classification>  (1131) 
Iridoids and derivatives

>  <np_classifier_pathway>  (1131) 
Terpenoids

>  <np_classifier_superclass>  (1131) 
Monoterpenoids

>  <np_classifier_class>  (1131) 
Secoiridoid monoterpenoids

>  <np_classifier_is_glycoside>  (1131) 
True

>  <organisms>  (1131) 
Calycophyllum spruceanum

>  <collections>  (1131) 
ChemSpider NPs|Latin America dataset|NuBBEDB|Super Natural II|WikiData Natural Products|ZINC NP

>  <dois>  (1131) 
10.1016/S0031-9422(03)00153-5

>  <synonyms>  (1131) 
nan

>  <cas>  (1131) 
nan

$$$$

     RDKit          2D

 26 27  0  0  0  0  0  0  0  0999 V2000
   -4.4235   -4.3714    0.0000 C   0  0  0  0  0  0  0  0  0  0  0  0
   -4.8705   -2.9396    0.0000 O   0  0  0  0  0  0  0  0  0  0  0  0
   -3.8540   -1.8365    0.0000 C   0  0  0  0  0  0  0  0  0  0  0  0
   -2.3905   -2.1654    0.0000 O   0  0  0  0  0  0  0  0  0  0  0  0
   -4.3010   -0.4047    0.0000 C   0  0  0  0  0  0  0  0  0  0  0  0
   -5.6335   -1.0935    0.0000 O   0  0  0  0  0  0  0  0  0  0  0  0
   -5.2108    0.7879    0.0000 C   0  0  0  0  0  0  0  0  0  0  0  0
   -4.6328    2.1721    0.0000 C   0  0  0  0  0  0  0  0  0  0  0  0
   -5.5426    3.3647    0.0000 O   0  0  0  0  0  0  0  0  0  0  0  0
   -3.1451    2.3637    0.0000 C   0  0  0  0  0  0  0  0  0  0  0  0
   -2.5671    3.7479    0.0000 O   0  0  0  0  0  0  0  0  0  0  0  0
   -2.2353    1.1711    0.0000 C   0  0  0  0  0  0  0  0  0  0  0  0
   -0.7476    1.3626    0.0000 O   0  0  0  0  0  0  0  0  0  0  0  0
    0.1621    0.1700    0.0000 C   0  0  0  0  0  0  0  0  0  0  0  0
   -0.4158   -1.2142    0.0000 O   0  0  0  0  0  0  0  0  0  0  0  0
    1.6499    0.3616    0.0000 C   0  0  0  0  0  0  0  0  0  0  0  0
    2.5596   -0.8311    0.0000 C   0  0  0  0  0  0  0  0  0  0  0  0
    4.0473   -0.6395    0.0000 C   0  0  0  0  0  0  0  0  0  0  0  0
    4.9571   -1.8321    0.0000 C   0  0  0  0  0  0  0  0  0  0  0  0
    6.4448   -1.6406    0.0000 C   0  0  0  0  0  0  0  0  0  0  0  0
    7.0228   -0.2564    0.0000 C   0  0  0  0  0  0  0  0  0  0  0  0
    8.5105   -0.0648    0.0000 O   0  0  0  0  0  0  0  0  0  0  0  0
    6.1130    0.9362    0.0000 C   0  0  0  0  0  0  0  0  0  0  0  0
    6.6910    2.3204    0.0000 O   0  0  0  0  0  0  0  0  0  0  0  0
    4.6253    0.7447    0.0000 C   0  0  0  0  0  0  0  0  0  0  0  0
   -2.8133   -0.2131    0.0000 C   0  0  0  0  0  0  0  0  0  0  0  0
  1  2  1  0
  2  3  1  0
  3  4  2  0
  3  5  1  0
  5  6  1  1
  5  7  1  0
  7  8  1  0
  8  9  1  1
  8 10  1  0
 10 11  1  1
 10 12  1  0
 12 13  1  6
 13 14  1  0
 14 15  2  0
 14 16  1  0
 16 17  2  0
 17 18  1  0
 18 19  2  0
 19 20  1  0
 20 21  2  0
 21 22  1  0
 21 23  1  0
 23 24  1  0
 23 25  2  0
 12 26  1  0
 26  5  1  0
 25 18  1  0
M  END
>  <identifier>  (1132) 
CNP0261619.2

>  <canonical_smiles>  (1132) 
COC(=O)[C@]1(O)C[C@@H](O)[C@@H](O)[C@H](OC(=O)/C=C/C2=CC=C(O)C(O)=C2)C1

>  <standard_inchi>  (1132) 
InChI=1S/C17H20O9/c1-25-16(23)17(24)7-12(20)15(22)13(8-17)26-14(21)5-3-9-2-4-10(18)11(19)6-9/h2-6,12-13,15,18-20,22,24H,7-8H2,1H3/b5-3+/t12-,13-,15-,17+/m1/s1

>  <standard_inchi_key>  (1132) 
MZNIJRAPCCELQX-AWOKGZDASA-N

>  <name>  (1132) 
Methyl chlorogenate

>  <iupac_name>  (1132) 
methyl (1~{S},3~{R},4~{R},5~{R})-3-[(~{E})-3-(3,4-dihydroxyphenyl)prop-2-enoyl]oxy-1,4,5-trihydroxy-cyclohexanecarboxylate

>  <annotation_level>  (1132) 
5

>  <total_atom_count>  (1132) 
46

>  <heavy_atom_count>  (1132) 
26

>  <molecular_weight>  (1132) 
368.34

>  <exact_molecular_weight>  (1132) 
368.11073

>  <molecular_formula>  (1132) 
C17H20O9

>  <alogp>  (1132) 
-0.56

>  <topological_polar_surface_area>  (1132) 
153.75

>  <rotatable_bond_count>  (1132) 
4

>  <hydrogen_bond_acceptors>  (1132) 
9

>  <hydrogen_bond_donors>  (1132) 
5

>  <hydrogen_bond_acceptors_lipinski>  (1132) 
9

>  <hydrogen_bond_donors_lipinski>  (1132) 
5

>  <lipinski_rule_of_five_violations>  (1132) 
0

>  <aromatic_rings_count>  (1132) 
1

>  <qed_drug_likeliness>  (1132) 
0.27

>  <formal_charge>  (1132) 
0

>  <fractioncsp3>  (1132) 
0.41

>  <number_of_minimal_rings>  (1132) 
2

>  <van_der_walls_volume>  (1132) 
316.12

>  <contains_sugar>  (1132) 
False

>  <contains_ring_sugars>  (1132) 
False

>  <contains_linear_sugars>  (1132) 
False

>  <murcko_framework>  (1132) 
O(CC=Cc1ccccc1)C2CCCCC2

>  <np_likeness>  (1132) 
2.13

>  <chemical_class>  (1132) 
Organooxygen compounds

>  <chemical_sub_class>  (1132) 
Alcohols and polyols

>  <chemical_super_class>  (1132) 
Organic oxygen compounds

>  <direct_parent_classification>  (1132) 
Quinic acids and derivatives

>  <np_classifier_pathway>  (1132) 
Shikimates and Phenylpropanoids

>  <np_classifier_superclass>  (1132) 
Phenylpropanoids (C6-C3)

>  <np_classifier_class>  (1132) 
Cinnamic acids and derivatives

>  <np_classifier_is_glycoside>  (1132) 
False

>  <organisms>  (1132) 
Adina racemosa|Akebia quinata|Akebia trifoliata|Alangium grisolleoides|Alchornea cordifolia|Alexandrium excavatum|Amomum daniellii|Annella reticulata|Antonia ovata|Aplysia parvula|Arctium lappa|Artemisia capillaris|Artemisia montana|Aster indicus|Atalantia wightii|Balanophora japonica|Bos taurus domesticus GMELIN|Brevibacterium linens|Calcarisporium thermophilum|Centaurea bracteata|Centaurea bracteata Scop.|Chimarrhis turbinata|Chromodoris lochi|Chrysanthemum morifolium|Corydalis persica|Corynanthe pachyceras|Cota tinctoria|Cryptocarya alba|Cynoglossum amabile|Distylium racemosum|Embelia schimperi|Eremochloa ophiuroides|Eriobotrya japonica|Erycibe hainanensis|Eucommia ulmoides|Flacourtia inermis|Fructus mori|Glycosmis pseudoracemosa|Goniothalamus amuyon|Haplopteris anguste-elongata|Hydrangea macrophylla|Hygrophorus eburneus|Hypericum hircinum|Hypericum sikokumontanum|Inula grantioides|Isertia haenkeana|Juniperus horizontalis|Lathyrus tingitanus|Lonicera bournei|Lonicera confusa|Lonicera fulvotomentosa|Lonicera hypoglauca|Lonicera japonica|Lonicera macranthoides|Manilkara zapota|Manilkara zapota cv.Tikal|Morus alba|Myroides sp. SM1|Nanuza plicata|Nardostachys jatamansi|Oenothera speciosa|Ophiorrhiza pumila|Penicillium sp. SA29|Peucedanum oroselinum|Phlomis brunneogaleata|Plectosphaerella cucumerina|Plectranthus caninus|Prunus cerasus|Prunus domestica|Pulicaria wightiana|Rauvolfia salicifolia|Rhizoplaca baranowii|Salmonella enterica subsp. enterica serovar bovismorbificans|Sargentodoxa cuneata|Saussurea medusa|Saussurea triangulata|Scorzonera latifolia|Scorzonera veratrifolia|Sinoadina Racemosa|Sinoadina racemosa|Spina gleditsiae|Spuriopimpinella brachycarpa|Spuriopimpinella calycina|Streptomyces thermoviolaceus|Strychnos spinosa|Takhtajaniantha austriaca|Tetradium glabrifolium|Trachelospermum asiaticum|Trachelospermum asiaticum var.intermedium|Urceola rosea|Uvaria griffithii|Viburnum cylindricum|Vittaria anguste-elongata|Zephyranthes sulphurea|erycibe hainanesis|pimpinella brachycarpa

>  <collections>  (1132) 
AnalytiCon Discovery NPs|Australian natural products|CMAUP (cCollective molecular activities of useful plants)|ChemSpider NPs|GNPS (Global Natural Products Social Molecular Networking)|KNApSaCK|NPACT|NPASS|NuBBEDB|Phyto4Health|Super Natural II|TCMDB-Taiwan (Traditional Chinese Medicine database)|TIPdb (database of Taiwan indigenous plants)|WikiData Natural Products|ZINC NP

>  <dois>  (1132) 
10.1002/1099-1573(200011)14:7<510::AID-PTR646>3.0.CO;2-B|10.1002/HLCA.200590017|10.1002/JCCS.199500128|10.1007/BF02976549|10.1007/S11418-008-0232-5|10.1007/S13659-014-0041-3|10.1016/0031-9422(91)84144-H|10.1016/J.BMCL.2011.03.091|10.1016/J.BMCL.2013.01.115|10.1016/J.FOODCHEM.2014.08.101|10.1016/J.JPBA.2008.09.037|10.1016/J.PHYTOCHEM.2007.05.027|10.1016/J.PHYTOCHEM.2008.11.006|10.1016/J.PHYTOCHEM.2009.11.007|10.1016/S0031-9422(01)00345-4|10.1016/S0040-4039(97)10404-X|10.1016/S0367-326X(00)00189-1|10.1016/j.bmcl.2011.03.091|10.1016/j.bmcl.2013.01.115|10.1016/j.phytochem.2020.112432|10.1021/NP020576X|10.1021/NP030217H|10.1021/NP050060O|10.1021/NP050522Y|10.1021/NP900593Q|10.1021/NP980268S|10.1021/np4005773|10.1021/np900593q|10.1021/np980268s|10.1055/S-2001-14337|10.1055/S-2004-827200|10.1055/S-2005-873181|10.1080/14786410902800699|10.1080/14786419.2010.533666|10.1080/14786419.2011.586638|10.1248/CPB.33.690|10.1248/CPB.35.1785|10.1248/CPB.45.367|10.1248/CPB.53.1416|10.1271/BBB.68.942|10.1590/S0103-50532003000500012|10.1590/S0103-50532010001000005|10.3390/12102270|10.3390/MOLECULES14041456|10.3390/MOLECULES15118251|10.3987/COM-03-9777|10.3987/COM-98-S(H)76

>  <synonyms>  (1132) 
(1S,3R,4R,5R)-3-[(E)-3-(3,4-Dihydroxy-phenyl)-acryloyloxy]-1,4,5-trihydroxy-cyclohexanecarboxylic acid methyl ester|123483-19-2|29708-87-0|3-O-Caffeoylquinic acid methyl ester|AKOS037514511|AKOS040763658|BDBM50343049|CHEBI:145094|CHEMBL416955|CS-0032297|CS-0618388|CYCLOHEXANECARBOXYLIC ACID, 3-((3-(3,4-DIHYDROXYPHENYL)-1-OXO-2-PROPENYL)OXY)-1,4,5-TRIHYDROXY-, METHYL ESTER, (1S-(1.ALPHA.,3.BETA.,4.ALPHA.,5.ALPHA.))-|Chlorogenic acid methyl ester|Chlorogenic acid methyl ester Methyl (1S3R4R5R)-3-{[(2E)-3-(34-dihydroxyphenyl)-2-propenoyl]oxy}-145-trihydroxycyclohexanecarboxylate|Cyclohexanecarboxylic acid, 3-(((2E)-3-(3,4-dihydroxyphenyl)-1-oxo-2-propen-1-yl)oxy)-1,4,5-trihydroxy-, methyl ester, (1S,3R,4R,5R)-|Cyclohexanecarboxylic acid, 3-((3-(3,4-dihydroxyphenyl)-1-oxo-2-propenyl)oxy)-1,4,5-trihydroxy-, methyl ester, (1S-(1alpha,3beta,4alpha,5alpha))-|DTXSID501289036|E6GC3KV7JK|E80658|FS-7815|G14242|HY-N4168B|InChI=1\/C17H20O9\/c1-25-16(23)17(24)7-12(20)15(22)13(8-17)26-14(21)5-3-9-2-4-10(18)11(19)6-9\/h2-6,12-13,15,18-20,22,24H,7-8H2,1H3\/b5-3+\/t12-,13-,15-,17+\/m1\/s1|MZNIJRAPCCELQX-AWOKGZDASA-|Methyl (1S,3R,4R,5R)-3-((3-(3,4-dihydroxyphenyl)acryloyl)oxy)-1,4,5-trihydroxycyclohexane-1-carboxylate|Methyl 5-o-caffeoylquinate|Methyl Chlorogenic Acid|NSC741645|Q27276938|UNII-E6GC3KV7JK|methyl (1S,3R,4R,5R)-3-[(E)-3-(3,4-dihydroxyphenyl)prop-2-enoyl]oxy-1,4,5-trihydroxycyclohexane-1-carboxylate

>  <cas>  (1132) 
123483-19-2|29708-87-0

$$$$

     RDKit          2D

  9  9  0  0  0  0  0  0  0  0999 V2000
    3.0000    0.0000    0.0000 C   0  0  0  0  0  0  0  0  0  0  0  0
    1.5000   -0.0000    0.0000 C   0  0  0  0  0  0  0  0  0  0  0  0
    0.7500   -1.2990    0.0000 C   0  0  0  0  0  0  0  0  0  0  0  0
   -0.7500   -1.2990    0.0000 C   0  0  0  0  0  0  0  0  0  0  0  0
   -1.5000   -2.5981    0.0000 O   0  0  0  0  0  0  0  0  0  0  0  0
   -1.5000    0.0000    0.0000 C   0  0  0  0  0  0  0  0  0  0  0  0
   -0.7500    1.2990    0.0000 C   0  0  0  0  0  0  0  0  0  0  0  0
   -1.5000    2.5981    0.0000 O   0  0  0  0  0  0  0  0  0  0  0  0
    0.7500    1.2990    0.0000 C   0  0  0  0  0  0  0  0  0  0  0  0
  1  2  1  0
  2  3  2  0
  3  4  1  0
  4  5  1  0
  4  6  2  0
  6  7  1  0
  7  8  1  0
  7  9  2  0
  9  2  1  0
M  END
>  <identifier>  (1133) 
CNP0300146.0

>  <canonical_smiles>  (1133) 
CC1=CC(O)=CC(O)=C1

>  <standard_inchi>  (1133) 
InChI=1S/C7H8O2/c1-5-2-6(8)4-7(9)3-5/h2-4,8-9H,1H3

>  <standard_inchi_key>  (1133) 
OIPPWFOQEKKFEE-UHFFFAOYSA-N

>  <name>  (1133) 
Orcinol

>  <iupac_name>  (1133) 
5-methylbenzene-1,3-diol

>  <annotation_level>  (1133) 
5

>  <total_atom_count>  (1133) 
17

>  <heavy_atom_count>  (1133) 
9

>  <molecular_weight>  (1133) 
124.14

>  <exact_molecular_weight>  (1133) 
124.05243

>  <molecular_formula>  (1133) 
C7H8O2

>  <alogp>  (1133) 
1.41

>  <topological_polar_surface_area>  (1133) 
40.46

>  <rotatable_bond_count>  (1133) 
0

>  <hydrogen_bond_acceptors>  (1133) 
2

>  <hydrogen_bond_donors>  (1133) 
2

>  <hydrogen_bond_acceptors_lipinski>  (1133) 
2

>  <hydrogen_bond_donors_lipinski>  (1133) 
2

>  <lipinski_rule_of_five_violations>  (1133) 
0

>  <aromatic_rings_count>  (1133) 
1

>  <qed_drug_likeliness>  (1133) 
0.55

>  <formal_charge>  (1133) 
0

>  <fractioncsp3>  (1133) 
0.14

>  <number_of_minimal_rings>  (1133) 
1

>  <van_der_walls_volume>  (1133) 
117.74

>  <contains_sugar>  (1133) 
False

>  <contains_ring_sugars>  (1133) 
False

>  <contains_linear_sugars>  (1133) 
False

>  <murcko_framework>  (1133) 
c1ccccc1

>  <np_likeness>  (1133) 
0.87

>  <chemical_class>  (1133) 
Phenols

>  <chemical_sub_class>  (1133) 
Benzenediols

>  <chemical_super_class>  (1133) 
Benzenoids

>  <direct_parent_classification>  (1133) 
Resorcinols

>  <np_classifier_pathway>  (1133) 
nan

>  <np_classifier_superclass>  (1133) 
nan

>  <np_classifier_class>  (1133) 
nan

>  <np_classifier_is_glycoside>  (1133) 
False

>  <organisms>  (1133) 
Acacia confusa|Acanthella acuta|Amaranthus hypochondriacus|Asarum curvistigma|Asarum fauriei takaoi|Asarum nipponicum|Asarum savatieri|Aspergillus fumigatus|Aspergillus sydowii|Astragalus pectinatus|Brucea javanica|Calluna vulgaris|Calypogeia integristipula|Castanea sativa|Cetraria islandica|Chaetomium globosum|Cirsium brevistylum|Cleyera japonica|Coffea pseudozanguebariae|Colletotrichum gloeosporioides|Curculigo orchioides|Dactylorhiza viridis|Davallia mariesii|Desmodium oxyphyllum|Dittrichia viscosa|Erica arborea|Erica umbellata|Fleischmannia hymenophylla|Fusarium graminearum|Gentiana dahurica|Ginkgo biloba|Gymnadenia albida|Hemerocallis fulva|Heterotropa|Isodon lihsienensis|Johnius belangerii|Lilium leichtlinii var. maximowiczii|Lilium maximowiczii|Parmelia tinctorum|Parmotrema tinctorum|Penicillium|Penicillium citrinum|Penicillium sp.|Penicillium sp. HN29-3B1|Phaseolus vulgaris|Phoebe clemensii|Pilosella officinarum|Psydrax subcordatus|Punctelia subrudecta|Putterlickia verrucosa|Rhododendron dauricum|Roystonea regia|Rumex patientia|Siphula decumbens|Solanum coccineum|Usnea longissima|Vernonia condensata|Verticicladiella

>  <collections>  (1133) 
Australian natural products|BIOFACQUIM|CMAUP (cCollective molecular activities of useful plants)|ChEBI NPs|ChemSpider NPs|EMNPD|KNApSaCK|Latin America dataset|NPASS|NPAtlas|NPEdia|NuBBEDB|Super Natural II|TCMDB-Taiwan (Traditional Chinese Medicine database)|TCMID (Traditional Chinese Medicine Integrated Database)|UNPD (Universal Natural Products Database)|WikiData Natural Products|ZINC NP

>  <dois>  (1133) 
10.1002/JCCS.200500117|10.1002/JCCS.200800033|10.1016/0031-9422(82)80150-7|10.1016/J.BMCL.2010.06.119|10.1016/J.FGB.2014.06.008|10.1016/S0031-9422(00)80159-4|10.1016/S0031-9422(00)86043-4|10.1016/S0031-9422(01)00337-5|10.1021/NP0001326|10.1021/NP0303916|10.1021/NP058014B|10.1021/NP0704708|10.1021/NP200374J|10.1021/NP500885F|10.1021/NP980062R|10.1021/np0001326|10.1021/np0303916|10.1021/np0704708|10.1021/np200374j|10.1021/np500885f|10.1021/np970367q|10.1021/np980062r|10.1080/10826068.2010.525432|10.1080/13693780802307720|10.1080/14786419.2017.1385020|10.1248/CPB.49.1498|10.1351/PAC198658050653|10.1515/ZNC-1984-7-803|10.1515/ZNC-2009-11-1212|10.1515/znc-2009-11-1212|10.3390/IJMS19041049

>  <synonyms>  (1133) 
1,3-Benzenediol, 5-methyl-|1,3-Dihydroxy-5-methylbenzene|1,3-Dihydroxy-5-methylbenzene; 3,5-Dihydroxytoluene; 5-Methylresorcinol|1,5-DIHYDROXY-3-METHYLBENZENE|3,5-Dihydroxytoluene|3,5-Dihydroxytoluene Anhydrous|3,5-Toluenediol|3-Hydroxy-5-methylphenol|4-06-00-05892 (Beilstein Handbook Reference)|5-METHYLRESORCINOL|5-Methyl Resorcinol|5-Methyl-1,3-benzenediol|5-Methyl-1,3-dihydroxybenzene|5-Methylresorcin|5-Methylresorcinol anhydrous|5-methyl-resorcinol|5-methylbenzene-1,3-diol|5-methylbenzene-1,3-diol;Orcinol|504-15-4|534PMB3438|A828110|AC-10290|AI3-23954|AKOS000280922|AS-14515|BBL027377|BDBM50104667|BRN 1071903|C00727|CCG-266088|CHEBI:16536|CHEMBL110059|CS-W008652|DB-022064|DTXSID2060123|EINECS 207-984-2|EN300-67390|F0001-1314|H11838|HY-D0168|InChI=1\/C7H8O2\/c1-5-2-6(8)4-7(9)3-5\/h2-4,8-9H,1H|M0426|M1235|MFCD00002291|NS00032059|NSC 12441|NSC-12441|O-2990|ORCINOL [MI]|Orcin|Orcinol anhydrous|Orcinol, 5-methylresorcinol|Orcinol, 97%|Oricinol|Q412476|Resorcinol, 5-methyl-|SCHEMBL68497|STL146540|SY002780|UNII-534PMB3438|WLN: QR CQ E1|Z1079442080|c0155|orcinol|resorcinol monohydrate|s9329

>  <cas>  (1133) 
504-15-4

$$$$

     RDKit          2D

 21 20  0  0  0  0  0  0  0  0999 V2000
   -7.0426   -3.1067    0.0000 C   0  0  0  0  0  0  0  0  0  0  0  0
   -6.6549   -1.6577    0.0000 C   0  0  0  0  0  0  0  0  0  0  0  0
   -7.7160   -0.5974    0.0000 O   0  0  0  0  0  0  0  0  0  0  0  0
   -5.2062   -1.2689    0.0000 C   0  0  0  0  0  0  0  0  0  0  0  0
   -4.8185    0.1801    0.0000 C   0  0  0  0  0  0  0  0  0  0  0  0
   -3.3697    0.5689    0.0000 C   0  0  0  0  0  0  0  0  0  0  0  0
   -2.9820    2.0179    0.0000 C   0  0  0  0  0  0  0  0  0  0  0  0
   -4.0431    3.0782    0.0000 C   0  0  0  0  0  0  0  0  0  0  0  0
   -1.5333    2.4066    0.0000 C   0  0  0  0  0  0  0  0  0  0  0  0
   -0.4722    1.3464    0.0000 C   0  0  0  0  0  0  0  0  0  0  0  0
    0.9765    1.7351    0.0000 C   0  0  0  0  0  0  0  0  0  0  0  0
    2.0376    0.6749    0.0000 C   0  0  0  0  0  0  0  0  0  0  0  0
    3.4863    1.0636    0.0000 C   0  0  0  0  0  0  0  0  0  0  0  0
    4.5474    0.0033    0.0000 C   0  0  0  0  0  0  0  0  0  0  0  0
    5.9961    0.3921    0.0000 C   0  0  0  0  0  0  0  0  0  0  0  0
    7.0572   -0.6682    0.0000 C   0  0  0  0  0  0  0  0  0  0  0  0
    8.5059   -0.2794    0.0000 C   0  0  0  0  0  0  0  0  0  0  0  0
    6.6695   -2.1172    0.0000 C   0  0  0  0  0  0  0  0  0  0  0  0
    1.6499   -0.7742    0.0000 C   0  0  0  0  0  0  0  0  0  0  0  0
    0.2011   -1.1629    0.0000 O   0  0  0  0  0  0  0  0  0  0  0  0
    2.7109   -1.8345    0.0000 O   0  0  0  0  0  0  0  0  0  0  0  0
  1  2  1  0
  2  3  2  0
  2  4  1  0
  4  5  1  0
  5  6  1  0
  6  7  2  3
  7  8  1  0
  7  9  1  0
  9 10  1  0
 10 11  1  0
 11 12  2  0
 12 13  1  0
 13 14  1  0
 14 15  1  0
 15 16  2  0
 16 17  1  0
 16 18  1  0
 12 19  1  0
 19 20  2  0
 19 21  1  0
M  END
>  <identifier>  (1134) 
CNP0194072.3

>  <canonical_smiles>  (1134) 
CC(=O)CCC=C(C)CC/C=C(/CCC=C(C)C)C(=O)O

>  <standard_inchi>  (1134) 
InChI=1S/C18H28O3/c1-14(2)8-5-12-17(18(20)21)13-7-10-15(3)9-6-11-16(4)19/h8-9,13H,5-7,10-12H2,1-4H3,(H,20,21)/b15-9?,17-13-

>  <standard_inchi_key>  (1134) 
QIMVLWYRLMXOML-BSTABTRSSA-N

>  <name>  (1134) 
nan

>  <iupac_name>  (1134) 
nan

>  <annotation_level>  (1134) 
0

>  <total_atom_count>  (1134) 
49

>  <heavy_atom_count>  (1134) 
21

>  <molecular_weight>  (1134) 
292.42

>  <exact_molecular_weight>  (1134) 
292.20384

>  <molecular_formula>  (1134) 
C18H28O3

>  <alogp>  (1134) 
4.84

>  <topological_polar_surface_area>  (1134) 
54.37

>  <rotatable_bond_count>  (1134) 
10

>  <hydrogen_bond_acceptors>  (1134) 
2

>  <hydrogen_bond_donors>  (1134) 
1

>  <hydrogen_bond_acceptors_lipinski>  (1134) 
2

>  <hydrogen_bond_donors_lipinski>  (1134) 
1

>  <lipinski_rule_of_five_violations>  (1134) 
0

>  <aromatic_rings_count>  (1134) 
0

>  <qed_drug_likeliness>  (1134) 
0.46

>  <formal_charge>  (1134) 
0

>  <fractioncsp3>  (1134) 
0.56

>  <number_of_minimal_rings>  (1134) 
0

>  <van_der_walls_volume>  (1134) 
307.48

>  <contains_sugar>  (1134) 
False

>  <contains_ring_sugars>  (1134) 
False

>  <contains_linear_sugars>  (1134) 
False

>  <murcko_framework>  (1134) 
nan

>  <np_likeness>  (1134) 
2.07

>  <chemical_class>  (1134) 
nan

>  <chemical_sub_class>  (1134) 
nan

>  <chemical_super_class>  (1134) 
nan

>  <direct_parent_classification>  (1134) 
nan

>  <np_classifier_pathway>  (1134) 
Terpenoids

>  <np_classifier_superclass>  (1134) 
nan

>  <np_classifier_class>  (1134) 
nan

>  <np_classifier_is_glycoside>  (1134) 
False

>  <organisms>  (1134) 
Iryanthera juruensis

>  <collections>  (1134) 
Latin America dataset|NuBBEDB

>  <dois>  (1134) 
10.1021/jf063451x

>  <synonyms>  (1134) 
nan

>  <cas>  (1134) 
nan

$$$$

     RDKit          2D

 14 16  0  0  0  0  0  0  0  0999 V2000
    3.8754    1.8677    0.0000 O   0  0  0  0  0  0  0  0  0  0  0  0
    2.8068    0.8149    0.0000 C   0  0  0  0  0  0  0  0  0  0  0  0
    3.1843   -0.6368    0.0000 C   0  0  0  0  0  0  0  0  0  0  0  0
    2.1157   -1.6895    0.0000 C   0  0  0  0  0  0  0  0  0  0  0  0
    0.6698   -1.2905    0.0000 C   0  0  0  0  0  0  0  0  0  0  0  0
   -0.3988   -2.3432    0.0000 C   0  0  0  0  0  0  0  0  0  0  0  0
   -1.8447   -1.9442    0.0000 C   0  0  0  0  0  0  0  0  0  0  0  0
   -2.2221   -0.4924    0.0000 C   0  0  0  0  0  0  0  0  0  0  0  0
   -3.5535    0.1985    0.0000 O   0  0  0  0  0  0  0  0  0  0  0  0
   -3.3078    1.6782    0.0000 C   0  0  0  0  0  0  0  0  0  0  0  0
   -1.8246    1.9018    0.0000 C   0  0  0  0  0  0  0  0  0  0  0  0
   -1.1536    0.5603    0.0000 C   0  0  0  0  0  0  0  0  0  0  0  0
    0.2924    0.1612    0.0000 C   0  0  0  0  0  0  0  0  0  0  0  0
    1.3609    1.2140    0.0000 O   0  0  0  0  0  0  0  0  0  0  0  0
  1  2  2  0
  2  3  1  0
  3  4  2  0
  4  5  1  0
  5  6  2  0
  6  7  1  0
  7  8  2  0
  8  9  1  0
  9 10  1  0
 10 11  2  0
 11 12  1  0
 12 13  2  0
 13 14  1  0
 14  2  1  0
 13  5  1  0
 12  8  1  0
M  END
>  <identifier>  (1135) 
CNP0192500.0

>  <canonical_smiles>  (1135) 
O=C1C=CC2=CC=C3OC=CC3=C2O1

>  <standard_inchi>  (1135) 
InChI=1S/C11H6O3/c12-10-4-2-7-1-3-9-8(5-6-13-9)11(7)14-10/h1-6H

>  <standard_inchi_key>  (1135) 
XDROKJSWHURZGO-UHFFFAOYSA-N

>  <name>  (1135) 
Angelicin

>  <iupac_name>  (1135) 
furo[2,3-h]chromen-2-one

>  <annotation_level>  (1135) 
5

>  <total_atom_count>  (1135) 
20

>  <heavy_atom_count>  (1135) 
14

>  <molecular_weight>  (1135) 
186.17

>  <exact_molecular_weight>  (1135) 
186.03169

>  <molecular_formula>  (1135) 
C11H6O3

>  <alogp>  (1135) 
2.54

>  <topological_polar_surface_area>  (1135) 
43.35

>  <rotatable_bond_count>  (1135) 
0

>  <hydrogen_bond_acceptors>  (1135) 
3

>  <hydrogen_bond_donors>  (1135) 
0

>  <hydrogen_bond_acceptors_lipinski>  (1135) 
3

>  <hydrogen_bond_donors_lipinski>  (1135) 
0

>  <lipinski_rule_of_five_violations>  (1135) 
0

>  <aromatic_rings_count>  (1135) 
3

>  <qed_drug_likeliness>  (1135) 
0.51

>  <formal_charge>  (1135) 
0

>  <fractioncsp3>  (1135) 
0.00

>  <number_of_minimal_rings>  (1135) 
3

>  <van_der_walls_volume>  (1135) 
152.36

>  <contains_sugar>  (1135) 
False

>  <contains_ring_sugars>  (1135) 
False

>  <contains_linear_sugars>  (1135) 
False

>  <murcko_framework>  (1135) 
o1ccc2c1ccc3C=CCOc32

>  <np_likeness>  (1135) 
1.24

>  <chemical_class>  (1135) 
Coumarins and derivatives

>  <chemical_sub_class>  (1135) 
Furanocoumarins

>  <chemical_super_class>  (1135) 
Phenylpropanoids and polyketides

>  <direct_parent_classification>  (1135) 
Angular furanocoumarins

>  <np_classifier_pathway>  (1135) 
Shikimates and Phenylpropanoids

>  <np_classifier_superclass>  (1135) 
Coumarins

>  <np_classifier_class>  (1135) 
Furocoumarins

>  <np_classifier_is_glycoside>  (1135) 
False

>  <organisms>  (1135) 
Angelica acutiloba|Angelica archangelica|Angelica dahurica|Angelica gigas|Angelica pubescens|Angelica sinensis|Angelica sp.|Apium graveolens|Aralia continentalis|Bituminaria bituminosa|Bituminaria morisiana|Bituminaria plumosa|Capparis spinosa|Castanopsis indica|Citrus limonia|Cullen cinereum|Cullen corylifolia|Cullen corylifolium|Cullen drupaceum|Cullen lachnostachys|Cullen obtusifolium|Cullen plicatum|Cullen pustulatum|Cullen tomentosum|Diplotaenia damavandica|Ficus carica|Ficus carica L.|Ficus elastica Roxb.|Ficus nitida|Fructus psoraleae corylifoliae|Hansenia weberbaueriana|Haplophyllum patavinum|Heracleum candicans|Heracleum dissectum|Heracleum lehmannianum|Heracleum leskovii|Heracleum mantegazzianum Sommier & Levier|Heracleum persicum (Fisch.) Desf.|Heracleum sosnowskyi Manden.|Heracleum sp.|Heracleum sphondylium L. s.l. (H. sphondylium L. s.str., H. sphondylium subsp. alpinum (L.) Bonnier & Layens, H. sphondylium subsp. elegans (Crantz) Schuebl. & G. Martens and H. sphondylium  subsp. pyrenaicum (Lam.) Bonnier & Layens)|Heracleum spp.|Heracleum yungningense|Hoita macrostachya|Humulus scandens|Indian beech tree|Kitagawia praeruptora|Kopsia albiflora|Ligusticum multivittatum|Mandragora autumnalis|Mandragora officinarum|Melicope semecarpifolia|Nardostachys jatamansi|Nardostachys jatamsi|Orbexilum lupinellum|Orbexilum lupinellus|Orbexilum onobrychis|Otholobium bolusii|Otholobium foliosum|Otholobium glandulosum|Otholobium hirtum|Otholobium obliquum|Otholobium parviflorum|Otholobium rotundifolium|Otholobium sericeum|Otholobium stachyerum|Otholobium zeyheri|Pastinaca sativa|Pastinaca sativa L.|Pastinaca sp.|Pediomelum canescens|Pimpinella nigra Mill.|Pimpinella peregrina L.|Pimpinella saxifraga L.|Pimpinella sp.|Psoralea Corylifolia|Psoralea affinis|Psoralea arborea|Psoralea cinerea|Psoralea corylifolia|Psoralea effusa|Psoralea exile|Psoralea fascicularis|Psoralea glabra|Psoralea lachnostachys|Psoralea leucantha|Psoralea martinii|Psoralea oreopolum|Psoralea papillosa|Psoralea plumosa|Psoralea pullata|Psoralea pustulata|Psoralea ramulosa|Psoralea speciosa|Ribes sanguineum|Schizonepeta tenuifolia|Selinum vaginatum|Semenovia thomsonii|Stachys chinensis|Talaromyces avellaneus|Zizia aptera

>  <collections>  (1135) 
Australian natural products|CMAUP (cCollective molecular activities of useful plants)|ChEBI NPs|ETM (Ethiopian Traditional Medicine) DB|FooDB|HIT (Herbal Ingredients Targets)|KNApSaCK|Latin America dataset|NPACT|NPASS|NPEdia|NuBBEDB|PhytoLab phyproof® Reference Substances|Specs Natural Products|Super Natural II|TCMDB-Taiwan (Traditional Chinese Medicine database)|TCMID (Traditional Chinese Medicine Integrated Database)|TIPdb (database of Taiwan indigenous plants)|TPPT (Toxic Plants–PhytoToxins)|UNPD (Universal Natural Products Database)|VietHerb|WikiData Natural Products

>  <dois>  (1135) 
10.1002/9780470744307.gat218|10.1002/CBER.19360690509|10.1002/PCA.2800050308|10.1002/PCA.2800050609|10.1002/food.19880321030|10.1006/PMPP.1993.1014|10.1007/BF00570685|10.1007/BF00630133|10.1007/BF00993733|10.1007/BF01134615|10.1007/BF01374036|10.1007/BF01946434|10.1007/BF03051221|10.1007/S11418-010-0408-7|10.1016/0031-9422(74)85117-4|10.1016/0031-9422(80)83035-4|10.1016/0031-9422(95)00125-Q|10.1016/0031-9422(96)00144-6|10.1016/0040-4020(65)80067-9|10.1016/J.FITOTE.2003.12.018|10.1016/J.JCHROMB.2005.04.008|10.1016/J.PHYMED.2009.05.015|10.1016/J.PHYTOCHEM.2005.07.016|10.1016/S0021-9673(01)84214-X|10.1016/S0031-9422(97)00292-6|10.1016/S0031-9422(98)00356-2|10.1016/S0040-4020(01)82304-8|10.1016/S0378-8741(01)00309-9|10.1016/s0031-9422(00)81503-4|10.1021/NP50064A013|10.1021/NP500834D|10.1021/np500834d|10.1039/c7md00388a|10.1055/S-0036-1596440|10.1055/S-2001-18347|10.1055/S-2005-871295|10.1055/S-2006-962799|10.1071/ch9640975|10.1076/PHBI.35.4.232.13305|10.1076/PHBI.37.2.161.6080|10.1080/09251619708951289|10.1080/10412905.1993.9698257|10.1093/JAOAC/84.4.1135|10.1094/PHYTO-79-170|10.1135/CCCC19622714|10.1155/2013/974256|10.1211/146080800128735502|10.1248/CPB.53.701|10.1248/CPB.54.714|10.1248/CPB.55.106|10.1590/S0103-50532005000400031|10.3109/13880208409070659|10.3109/13880209109082905|10.3987/COM-92-6050

>  <synonyms>  (1135) 
2-Oxo-(2H)-furo(2,3-h)-1-benzopyran|2-Propenoic acid, 3-(4-hydroxy-5-benzofuranyl)-, delta-lactone|2-furo[2,3-h][1]benzopyranone|2H-Furo(2,3-h)(1)benzopyran-2-one|2H-Furo(2,3-h)(1)benzopyran-2-one, plus ultraviolet A radiation|2H-Furo[2,3-H]-1-benzopyran-2-one|2H-Furo[2,3-H]chromen-2-one|2H-furo(2,3-h)chromen-2-one|3-(4-Hydroxy-5-benzofuranyl)-2-propenoic acid gamma-lactone|4-Hydroxy-5-benzofuranacrylic acid gamma-lactone|5-19-04-00447 (Beilstein Handbook Reference)|523-50-2|A829042|AC-33978|AKOS006281380|AS-35334|Angecin|Angelecin|Angelicin|Angelicin (Isopsoralen)|Angelicin (coumarin derivative)|Angelicin plus ultraviolet A radiation|Angelicin, analytical standard|BCP29934|BDBM50331545|BRN 0153970|C09060|CCG-266471|CCRIS 4276|CHEBI:28928|CHEMBL53569|CS-3754|CZZ080D7BD|DTXCID00122812|DTXSID00200321|EN300-6730963|Furo(2,3-h)coumarin|Furo(5',4':7,8)coumarin|Furo[2,3-h]benzopyran-2-one|Furo[2,3-h]chromen-2-one(angelicin)|Furo[2,3-h]coumarin|Furo[5',8]coumarin|HMS1645D18|HSDB 3554|HY-N0763|ISOPSORALEN|ISOPSORALEN [HSDB]|InChI=1\/C11H6O3\/c12-10-4-2-7-1-3-9-8(5-6-13-9)11(7)14-10\/h1-6|Isopsoralen|Isopsoralen pound>>2-Oxo-(2H)-furo(2,3-h)-1-benzopyran|Isopsoralen,(S)|Isopsoralin|LV09401000|MFCD00064930|NCGC00388372-01|NIOSH\/LV0940100|NP944|NS00094600|NSC 404563|Oprea1_022970|Q-100592|Q2849857|SCHEMBL376379|STL564561|UNII-CZZ080D7BD|XDROKJSWHURZGO-UHFFFAOYSA-N|angelicin|furo[2,3-h]chromen-2-one|isopsoralen|pyrano[6,5-e]benzofuran-2-one|s3892

>  <cas>  (1135) 
523-50-2

$$$$

     RDKit          2D

 33 36  0  0  0  0  0  0  0  0999 V2000
    9.9986    0.6521    0.0000 C   0  0  0  0  0  0  0  0  0  0  0  0
    8.6837   -0.0697    0.0000 C   0  0  0  0  0  0  0  0  0  0  0  0
    8.6513   -1.5693    0.0000 C   0  0  0  0  0  0  0  0  0  0  0  0
    7.4012    0.7082    0.0000 C   0  0  0  0  0  0  0  0  0  0  0  0
    6.0862   -0.0135    0.0000 C   0  0  0  0  0  0  0  0  0  0  0  0
    4.8037    0.7644    0.0000 C   0  0  0  0  0  0  0  0  0  0  0  0
    3.4887    0.0426    0.0000 C   0  0  0  0  0  0  0  0  0  0  0  0
    3.4563   -1.4570    0.0000 C   0  0  0  0  0  0  0  0  0  0  0  0
    2.1414   -2.1788    0.0000 O   0  0  0  0  0  0  0  0  0  0  0  0
    4.7389   -2.2349    0.0000 O   0  0  0  0  0  0  0  0  0  0  0  0
    2.2062    0.8205    0.0000 C   0  0  0  0  0  0  0  0  0  0  0  0
    2.0817    2.3153    0.0000 C   0  0  0  0  0  0  0  0  0  0  0  0
    0.6216    2.6588    0.0000 C   0  0  0  0  0  0  0  0  0  0  0  0
   -0.1563    1.3763    0.0000 C   0  0  0  0  0  0  0  0  0  0  0  0
   -1.0116    2.6086    0.0000 C   0  0  0  0  0  0  0  0  0  0  0  0
   -1.6300    1.0962    0.0000 C   0  0  0  0  0  0  0  0  0  0  0  0
   -2.1242   -0.3200    0.0000 C   0  0  0  0  0  0  0  0  0  0  0  0
   -1.1448   -1.4562    0.0000 C   0  0  0  0  0  0  0  0  0  0  0  0
    0.3288   -1.1761    0.0000 C   0  0  0  0  0  0  0  0  0  0  0  0
    0.8230    0.2402    0.0000 C   0  0  0  0  0  0  0  0  0  0  0  0
    1.9158   -0.7874    0.0000 C   0  0  0  0  0  0  0  0  0  0  0  0
   -3.5978   -0.6001    0.0000 C   0  0  0  0  0  0  0  0  0  0  0  0
   -2.6184   -1.7362    0.0000 C   0  0  0  0  0  0  0  0  0  0  0  0
   -4.0921   -2.0163    0.0000 C   0  0  0  0  0  0  0  0  0  0  0  0
   -5.5657   -2.2964    0.0000 C   0  0  0  0  0  0  0  0  0  0  0  0
   -6.5451   -1.1603    0.0000 C   0  0  0  0  0  0  0  0  0  0  0  0
   -8.0187   -1.4404    0.0000 O   0  0  0  0  0  0  0  0  0  0  0  0
   -6.0508    0.2560    0.0000 C   0  0  0  0  0  0  0  0  0  0  0  0
   -6.0708    1.7558    0.0000 C   0  0  0  0  0  0  0  0  0  0  0  0
   -7.5314    0.4968    0.0000 C   0  0  0  0  0  0  0  0  0  0  0  0
   -4.5772    0.5360    0.0000 C   0  0  0  0  0  0  0  0  0  0  0  0
   -4.0829    1.9523    0.0000 C   0  0  0  0  0  0  0  0  0  0  0  0
   -2.6093    2.2324    0.0000 C   0  0  0  0  0  0  0  0  0  0  0  0
  1  2  1  0
  2  3  1  0
  2  4  2  0
  4  5  1  0
  5  6  1  0
  7  6  1  6
  7  8  1  0
  8  9  2  0
  8 10  1  0
  7 11  1  0
 11 12  1  1
 12 13  1  0
 13 14  1  0
 14 15  1  6
 14 16  1  0
 16 17  2  0
 17 18  1  0
 18 19  1  0
 19 20  1  0
 20 21  1  1
 17 22  1  0
 22 23  1  6
 22 24  1  0
 24 25  1  0
 25 26  1  0
 26 27  2  0
 26 28  1  0
 28 29  1  0
 28 30  1  0
 28 31  1  0
 31 32  1  6
 32 33  1  0
 20 11  1  0
 31 22  1  0
 20 14  1  0
 33 16  1  0
M  END
>  <identifier>  (1136) 
CNP0190059.1

>  <canonical_smiles>  (1136) 
CC(C)=CCC[C@H](C(=O)O)[C@@H]1CC[C@]2(C)C3=C(CC[C@@]12C)[C@@]1(C)CCC(=O)C(C)(C)[C@@H]1CC3

>  <standard_inchi>  (1136) 
InChI=1S/C30H46O3/c1-19(2)9-8-10-20(26(32)33)21-13-17-30(7)23-11-12-24-27(3,4)25(31)15-16-28(24,5)22(23)14-18-29(21,30)6/h9,20-21,24H,8,10-18H2,1-7H3,(H,32,33)/t20-,21-,24-,28+,29-,30+/m0/s1

>  <standard_inchi_key>  (1136) 
XLPAINGDLCDYQV-SDTWUMECSA-N

>  <name>  (1136) 
Elemonic acid

>  <iupac_name>  (1136) 
(2~{S})-6-methyl-2-[(5~{R},10~{S},13~{S},14~{S},17~{S})-4,4,10,13,14-pentamethyl-3-oxo-1,2,5,6,7,11,12,15,16,17-decahydrocyclopenta[a]phenanthren-17-yl]hept-5-enoic acid

>  <annotation_level>  (1136) 
5

>  <total_atom_count>  (1136) 
79

>  <heavy_atom_count>  (1136) 
33

>  <molecular_weight>  (1136) 
454.7

>  <exact_molecular_weight>  (1136) 
454.3447

>  <molecular_formula>  (1136) 
C30H46O3

>  <alogp>  (1136) 
7.75

>  <topological_polar_surface_area>  (1136) 
54.37

>  <rotatable_bond_count>  (1136) 
5

>  <hydrogen_bond_acceptors>  (1136) 
2

>  <hydrogen_bond_donors>  (1136) 
1

>  <hydrogen_bond_acceptors_lipinski>  (1136) 
2

>  <hydrogen_bond_donors_lipinski>  (1136) 
1

>  <lipinski_rule_of_five_violations>  (1136) 
1

>  <aromatic_rings_count>  (1136) 
0

>  <qed_drug_likeliness>  (1136) 
0.43

>  <formal_charge>  (1136) 
0

>  <fractioncsp3>  (1136) 
0.80

>  <number_of_minimal_rings>  (1136) 
4

>  <van_der_walls_volume>  (1136) 
460.20

>  <contains_sugar>  (1136) 
False

>  <contains_ring_sugars>  (1136) 
False

>  <contains_linear_sugars>  (1136) 
False

>  <murcko_framework>  (1136) 
C12=C(CCC3CCCCC13)C4CCCC4CC2

>  <np_likeness>  (1136) 
3.37

>  <chemical_class>  (1136) 
Steroids and steroid derivatives

>  <chemical_sub_class>  (1136) 
Oxosteroids

>  <chemical_super_class>  (1136) 
Lipids and lipid-like molecules

>  <direct_parent_classification>  (1136) 
Oxosteroids

>  <np_classifier_pathway>  (1136) 
Terpenoids

>  <np_classifier_superclass>  (1136) 
Triterpenoids

>  <np_classifier_class>  (1136) 
Lanostane, Tirucallane and Euphane triterpenoids

>  <np_classifier_is_glycoside>  (1136) 
False

>  <organisms>  (1136) 
Boswellia carteri|Boswellia papyrifera|Boswellia sacra|Boswellia sp.|Trattinnickia burserifolia

>  <collections>  (1136) 
ConMedNP|KNApSaCK|Latin America dataset|NuBBEDB|PhytoLab phyproof® Reference Substances|Super Natural II|WikiData Natural Products

>  <dois>  (1136) 
10.1016/J.FITOTE.2020.104694|10.1021/NP040142X|10.1080/10286020.2010.548808|10.1590/S0103-50532004000300008

>  <synonyms>  (1136) 
(2S)-2-[(1S,3aS,5aR,9aS,11aS)-3a,6,6,9a,11a-pentamethyl-7-oxo-1H,2H,3H,4H,5H,5aH,8H,9H,10H,11H-cyclopenta[a]phenanthren-1-yl]-6-methylhept-5-enoic acid|(2S)-6-methyl-2-[(5R,10S,13S,14S,17S)-4,4,10,13,14-pentamethyl-3-oxo-1,2,5,6,7,11,12,15,16,17-decahydrocyclopenta[a]phenanthren-17-yl]hept-5-enoic acid|28282-25-9|3-Oxotirucallic acid|3-oxotirucalla-824-dien-21-oic acid|AKOS016036180|AS-76965|BDBM50039667|BETA-ELEMONICACID|CCG-269281|CHEMBL479910|CS-0022682|DTXSID40590814|Elemadienonic acid|HMS3887E03|HY-N2454|SCHEMBL5605727|beta-Elemonic acid|beta-elemonic|s9408

>  <cas>  (1136) 
28282-25-9

$$$$

     RDKit          2D

 18 20  0  0  0  0  0  0  0  0999 V2000
   -5.9915   -0.2594    0.0000 C   0  0  0  0  0  0  0  0  0  0  0  0
   -4.6965   -1.0164    0.0000 O   0  0  0  0  0  0  0  0  0  0  0  0
   -3.3935   -0.2734    0.0000 C   0  0  0  0  0  0  0  0  0  0  0  0
   -3.3854    1.2266    0.0000 C   0  0  0  0  0  0  0  0  0  0  0  0
   -2.0823    1.9696    0.0000 C   0  0  0  0  0  0  0  0  0  0  0  0
   -0.7873    1.2126    0.0000 C   0  0  0  0  0  0  0  0  0  0  0  0
    0.5157    1.9556    0.0000 O   0  0  0  0  0  0  0  0  0  0  0  0
    1.8107    1.1986    0.0000 C   0  0  0  0  0  0  0  0  0  0  0  0
    3.1137    1.9416    0.0000 C   0  0  0  0  0  0  0  0  0  0  0  0
    4.4087    1.1846    0.0000 C   0  0  0  0  0  0  0  0  0  0  0  0
    4.4007   -0.3153    0.0000 C   0  0  0  0  0  0  0  0  0  0  0  0
    3.0976   -1.0583    0.0000 C   0  0  0  0  0  0  0  0  0  0  0  0
    3.0895   -2.5583    0.0000 O   0  0  0  0  0  0  0  0  0  0  0  0
    1.8026   -0.3014    0.0000 C   0  0  0  0  0  0  0  0  0  0  0  0
    0.4996   -1.0444    0.0000 C   0  0  0  0  0  0  0  0  0  0  0  0
    0.4915   -2.5443    0.0000 O   0  0  0  0  0  0  0  0  0  0  0  0
   -0.7954   -0.2874    0.0000 C   0  0  0  0  0  0  0  0  0  0  0  0
   -2.0985   -1.0304    0.0000 C   0  0  0  0  0  0  0  0  0  0  0  0
  1  2  1  0
  2  3  1  0
  3  4  2  0
  4  5  1  0
  5  6  2  0
  6  7  1  0
  7  8  1  0
  8  9  2  0
  9 10  1  0
 10 11  2  0
 11 12  1  0
 12 13  1  0
 12 14  2  0
 14 15  1  0
 15 16  2  0
 15 17  1  0
 17 18  2  0
 18  3  1  0
 17  6  1  0
 14  8  1  0
M  END
>  <identifier>  (1137) 
CNP0275524.0

>  <canonical_smiles>  (1137) 
COC1=CC=C2OC3=CC=CC(O)=C3C(=O)C2=C1

>  <standard_inchi>  (1137) 
InChI=1S/C14H10O4/c1-17-8-5-6-11-9(7-8)14(16)13-10(15)3-2-4-12(13)18-11/h2-7,15H,1H3

>  <standard_inchi_key>  (1137) 
YYEBGEJSHOBJIB-UHFFFAOYSA-N

>  <name>  (1137) 
1-Hydroxy-7-methoxyxanthone

>  <iupac_name>  (1137) 
1-hydroxy-7-methoxy-xanthen-9-one

>  <annotation_level>  (1137) 
5

>  <total_atom_count>  (1137) 
28

>  <heavy_atom_count>  (1137) 
18

>  <molecular_weight>  (1137) 
242.23

>  <exact_molecular_weight>  (1137) 
242.05791

>  <molecular_formula>  (1137) 
C14H10O4

>  <alogp>  (1137) 
2.66

>  <topological_polar_surface_area>  (1137) 
59.67

>  <rotatable_bond_count>  (1137) 
1

>  <hydrogen_bond_acceptors>  (1137) 
4

>  <hydrogen_bond_donors>  (1137) 
1

>  <hydrogen_bond_acceptors_lipinski>  (1137) 
4

>  <hydrogen_bond_donors_lipinski>  (1137) 
1

>  <lipinski_rule_of_five_violations>  (1137) 
0

>  <aromatic_rings_count>  (1137) 
3

>  <qed_drug_likeliness>  (1137) 
0.67

>  <formal_charge>  (1137) 
0

>  <fractioncsp3>  (1137) 
0.07

>  <number_of_minimal_rings>  (1137) 
3

>  <van_der_walls_volume>  (1137) 
201.86

>  <contains_sugar>  (1137) 
False

>  <contains_ring_sugars>  (1137) 
False

>  <contains_linear_sugars>  (1137) 
False

>  <murcko_framework>  (1137) 
O1c2ccccc2Cc3ccccc13

>  <np_likeness>  (1137) 
0.72

>  <chemical_class>  (1137) 
Benzopyrans

>  <chemical_sub_class>  (1137) 
1-benzopyrans

>  <chemical_super_class>  (1137) 
Organoheterocyclic compounds

>  <direct_parent_classification>  (1137) 
Xanthones

>  <np_classifier_pathway>  (1137) 
Shikimates and Phenylpropanoids

>  <np_classifier_superclass>  (1137) 
Xanthones

>  <np_classifier_class>  (1137) 
Plant xanthones

>  <np_classifier_is_glycoside>  (1137) 
False

>  <organisms>  (1137) 
Agasthiyamalaia pauciflora|Calophyllum austroindicum|Calophyllum thwaitesii|Haploclathra paniculata|Hypericum Ascyron|Hypericum ascyron|Hypericum mysorense|Iphigenia indica|Kielmeyera corymbosa|Kielmeyera excelsa|Mangifera odorata|Mesua ferrea|Peliosanthes sinica|Securidaca longepedunculata|Vismia guianensis

>  <collections>  (1137) 
ChemSpider NPs|KNApSaCK|Latin America dataset|NPASS|NuBBEDB|Super Natural II|TIPdb (database of Taiwan indigenous plants)|UNPD (Universal Natural Products Database)|VietHerb|WikiData Natural Products|ZINC NP

>  <dois>  (1137) 
10.1016/0031-9422(96)00323-8|10.1016/S0031-9422(00)80095-3|10.1016/S0031-9422(00)83507-4|10.1016/S0031-9422(00)84543-4|10.1016/S0031-9422(00)85161-4|10.1016/S0031-9422(82)85053-X|10.1016/S0031-9422(96)00856-4|10.1016/S0031-9422(99)00412-4|10.1016/j.bmc.2013.10.027|10.1080/14786410600899118

>  <synonyms>  (1137) 
1-Hydroxy-7-methoxyxanthone|CHEMBL3093490|SCHEMBL20356594

>  <cas>  (1137) 
nan

$$$$

     RDKit          2D

 25 27  0  0  0  0  0  0  0  0999 V2000
   -3.1602    2.8638    0.0000 C   0  0  0  0  0  0  0  0  0  0  0  0
   -3.5301    1.4102    0.0000 O   0  0  0  0  0  0  0  0  0  0  0  0
   -2.4562    0.3630    0.0000 C   0  0  0  0  0  0  0  0  0  0  0  0
   -2.8262   -1.0907    0.0000 C   0  0  0  0  0  0  0  0  0  0  0  0
   -4.2700   -1.4971    0.0000 C   0  0  0  0  0  0  0  0  0  0  0  0
   -5.3440   -0.4499    0.0000 C   0  0  0  0  0  0  0  0  0  0  0  0
   -4.6400   -2.9508    0.0000 C   0  0  0  0  0  0  0  0  0  0  0  0
   -1.7522   -2.1379    0.0000 C   0  0  0  0  0  0  0  0  0  0  0  0
   -0.3083   -1.7315    0.0000 C   0  0  0  0  0  0  0  0  0  0  0  0
    0.7656   -2.7787    0.0000 C   0  0  0  0  0  0  0  0  0  0  0  0
    2.2095   -2.3723    0.0000 C   0  0  0  0  0  0  0  0  0  0  0  0
    2.5794   -0.9186    0.0000 C   0  0  0  0  0  0  0  0  0  0  0  0
    4.0233   -0.5122    0.0000 C   0  0  0  0  0  0  0  0  0  0  0  0
    5.5191   -0.6241    0.0000 C   0  0  0  0  0  0  0  0  0  0  0  0
    4.1729   -2.0047    0.0000 C   0  0  0  0  0  0  0  0  0  0  0  0
    4.3933    0.9415    0.0000 C   0  0  0  0  0  0  0  0  0  0  0  0
    3.3193    1.9887    0.0000 C   0  0  0  0  0  0  0  0  0  0  0  0
    1.8755    1.5823    0.0000 C   0  0  0  0  0  0  0  0  0  0  0  0
    1.5055    0.1286    0.0000 C   0  0  0  0  0  0  0  0  0  0  0  0
    0.4316    1.1758    0.0000 C   0  0  0  0  0  0  0  0  0  0  0  0
    0.8015    2.6295    0.0000 O   0  0  0  0  0  0  0  0  0  0  0  0
    0.0616   -0.2778    0.0000 C   0  0  0  0  0  0  0  0  0  0  0  0
   -1.0123    0.7694    0.0000 C   0  0  0  0  0  0  0  0  0  0  0  0
   -0.6424    2.2231    0.0000 O   0  0  0  0  0  0  0  0  0  0  0  0
   -1.7163    3.2703    0.0000 C   0  0  0  0  0  0  0  0  0  0  0  0
  1  2  1  0
  2  3  1  0
  3  4  2  0
  4  5  1  0
  5  6  1  0
  5  7  1  0
  4  8  1  0
  8  9  2  0
  9 10  1  0
 10 11  1  0
 11 12  1  0
 12 13  1  0
 13 14  1  0
 13 15  1  0
 13 16  1  0
 16 17  1  0
 17 18  1  0
 18 19  1  0
 19 20  1  6
 20 21  1  0
 19 22  1  0
 22 23  2  0
 23 24  1  0
 24 25  1  0
 23  3  1  0
 22  9  1  0
 19 12  1  0
M  END
>  <identifier>  (1138) 
CNP0113781.1

>  <canonical_smiles>  (1138) 
COC1=C(C(C)C)C=C2CCC3C(C)(C)CCC[C@]3(CO)C2=C1OC

>  <standard_inchi>  (1138) 
InChI=1S/C22H34O3/c1-14(2)16-12-15-8-9-17-21(3,4)10-7-11-22(17,13-23)18(15)20(25-6)19(16)24-5/h12,14,17,23H,7-11,13H2,1-6H3/t17?,22-/m1/s1

>  <standard_inchi_key>  (1138) 
AMUGBOYFFMANGK-IVAFLUGOSA-N

>  <name>  (1138) 
nan

>  <iupac_name>  (1138) 
[(4~{a}~{R})-7-isopropyl-5,6-dimethoxy-1,1-dimethyl-2,3,4,9,10,10~{a}-hexahydrophenanthren-4~{a}-yl]methanol

>  <annotation_level>  (1138) 
4

>  <total_atom_count>  (1138) 
59

>  <heavy_atom_count>  (1138) 
25

>  <molecular_weight>  (1138) 
346.51

>  <exact_molecular_weight>  (1138) 
346.25079

>  <molecular_formula>  (1138) 
C22H34O3

>  <alogp>  (1138) 
4.83

>  <topological_polar_surface_area>  (1138) 
38.69

>  <rotatable_bond_count>  (1138) 
4

>  <hydrogen_bond_acceptors>  (1138) 
3

>  <hydrogen_bond_donors>  (1138) 
1

>  <hydrogen_bond_acceptors_lipinski>  (1138) 
3

>  <hydrogen_bond_donors_lipinski>  (1138) 
1

>  <lipinski_rule_of_five_violations>  (1138) 
0

>  <aromatic_rings_count>  (1138) 
1

>  <qed_drug_likeliness>  (1138) 
0.85

>  <formal_charge>  (1138) 
0

>  <fractioncsp3>  (1138) 
0.73

>  <number_of_minimal_rings>  (1138) 
3

>  <van_der_walls_volume>  (1138) 
nan

>  <contains_sugar>  (1138) 
False

>  <contains_ring_sugars>  (1138) 
False

>  <contains_linear_sugars>  (1138) 
False

>  <murcko_framework>  (1138) 
c1ccc2c(c1)CCC3CCCCC23

>  <np_likeness>  (1138) 
2.06

>  <chemical_class>  (1138) 
Prenol lipids

>  <chemical_sub_class>  (1138) 
Diterpenoids

>  <chemical_super_class>  (1138) 
Lipids and lipid-like molecules

>  <direct_parent_classification>  (1138) 
Diterpenoids

>  <np_classifier_pathway>  (1138) 
Terpenoids

>  <np_classifier_superclass>  (1138) 
Diterpenoids

>  <np_classifier_class>  (1138) 
Abietane diterpenoids

>  <np_classifier_is_glycoside>  (1138) 
False

>  <organisms>  (1138) 
Rosmarinus officinalis

>  <collections>  (1138) 
Latin America dataset|NuBBEDB|WikiData Natural Products

>  <dois>  (1138) 
10.1016/S0040-4020(01)88671-3

>  <synonyms>  (1138) 
carnosol derivative

>  <cas>  (1138) 
nan

$$$$

     RDKit          2D

 46 48  0  0  0  0  0  0  0  0999 V2000
   -3.3081    6.7877    0.0000 C   0  0  0  0  0  0  0  0  0  0  0  0
   -3.9542    5.4340    0.0000 C   0  0  0  0  0  0  0  0  0  0  0  0
   -5.4496    5.3166    0.0000 O   0  0  0  0  0  0  0  0  0  0  0  0
   -3.1048    4.1976    0.0000 O   0  0  0  0  0  0  0  0  0  0  0  0
   -3.7508    2.8439    0.0000 C   0  0  0  0  0  0  0  0  0  0  0  0
   -2.9014    1.6075    0.0000 C   0  0  0  0  0  0  0  0  0  0  0  0
   -1.4060    1.7249    0.0000 O   0  0  0  0  0  0  0  0  0  0  0  0
   -0.5566    0.4886    0.0000 C   0  0  0  0  0  0  0  0  0  0  0  0
    0.9388    0.6060    0.0000 O   0  0  0  0  0  0  0  0  0  0  0  0
    1.7881   -0.6303    0.0000 C   0  0  0  0  0  0  0  0  0  0  0  0
    1.1421   -1.9841    0.0000 C   0  0  0  0  0  0  0  0  0  0  0  0
    1.9915   -3.2205    0.0000 C   0  0  0  0  0  0  0  0  0  0  0  0
    1.3455   -4.5742    0.0000 O   0  0  0  0  0  0  0  0  0  0  0  0
   -0.1499   -4.6916    0.0000 C   0  0  0  0  0  0  0  0  0  0  0  0
   -0.7959   -6.0454    0.0000 C   0  0  0  0  0  0  0  0  0  0  0  0
   -0.7469   -4.1633    0.0000 O   0  0  0  0  0  0  0  0  0  0  0  0
    3.4869   -3.1030    0.0000 C   0  0  0  0  0  0  0  0  0  0  0  0
    4.1329   -1.7493    0.0000 C   0  0  0  0  0  0  0  0  0  0  0  0
    5.6283   -1.6319    0.0000 C   0  0  0  0  0  0  0  0  0  0  0  0
    6.2743   -0.2781    0.0000 C   0  0  0  0  0  0  0  0  0  0  0  0
    7.7697   -0.1607    0.0000 C   0  0  0  0  0  0  0  0  0  0  0  0
    5.4250    0.9582    0.0000 C   0  0  0  0  0  0  0  0  0  0  0  0
    6.0710    2.3120    0.0000 C   0  0  0  0  0  0  0  0  0  0  0  0
    5.5663    3.2820    0.0000 C   0  0  0  0  0  0  0  0  0  0  0  0
    7.5664    2.4294    0.0000 O   0  0  0  0  0  0  0  0  0  0  0  0
    3.9296    0.8408    0.0000 C   0  0  0  0  0  0  0  0  0  0  0  0
    3.0802    2.0772    0.0000 O   0  0  0  0  0  0  0  0  0  0  0  0
    3.7262    3.4309    0.0000 C   0  0  0  0  0  0  0  0  0  0  0  0
    2.8768    4.6673    0.0000 C   0  0  0  0  0  0  0  0  0  0  0  0
    4.7978    3.6488    0.0000 O   0  0  0  0  0  0  0  0  0  0  0  0
    3.2835   -0.5129    0.0000 C   0  0  0  0  0  0  0  0  0  0  0  0
   -1.2027   -0.8652    0.0000 C   0  0  0  0  0  0  0  0  0  0  0  0
   -0.3533   -2.1015    0.0000 O   0  0  0  0  0  0  0  0  0  0  0  0
   -0.9993   -3.4553    0.0000 C   0  0  0  0  0  0  0  0  0  0  0  0
   -0.4743   -4.8604    0.0000 C   0  0  0  0  0  0  0  0  0  0  0  0
   -2.4947   -3.5727    0.0000 O   0  0  0  0  0  0  0  0  0  0  0  0
   -2.6981   -0.9826    0.0000 C   0  0  0  0  0  0  0  0  0  0  0  0
   -3.3441   -2.3363    0.0000 O   0  0  0  0  0  0  0  0  0  0  0  0
   -4.8395   -2.4538    0.0000 C   0  0  0  0  0  0  0  0  0  0  0  0
   -5.4855   -3.8075    0.0000 C   0  0  0  0  0  0  0  0  0  0  0  0
   -5.6889   -1.2174    0.0000 O   0  0  0  0  0  0  0  0  0  0  0  0
   -3.5474    0.2538    0.0000 C   0  0  0  0  0  0  0  0  0  0  0  0
   -5.0428    0.1364    0.0000 O   0  0  0  0  0  0  0  0  0  0  0  0
   -5.8922    1.3727    0.0000 C   0  0  0  0  0  0  0  0  0  0  0  0
   -7.3876    1.2553    0.0000 C   0  0  0  0  0  0  0  0  0  0  0  0
   -5.2462    2.7265    0.0000 O   0  0  0  0  0  0  0  0  0  0  0  0
  1  2  1  0
  2  3  2  0
  2  4  1  0
  4  5  1  0
  6  5  1  1
  6  7  1  0
  7  8  1  0
  8  9  1  1
  9 10  1  0
 10 11  2  0
 11 12  1  0
 12 13  1  0
 13 14  1  0
 14 15  1  0
 14 16  2  0
 12 17  2  0
 17 18  1  0
 18 19  2  0
 19 20  1  0
 20 21  1  0
 20 22  2  0
 22 23  1  0
 23 24  1  0
 23 25  2  0
 22 26  1  0
 26 27  1  0
 27 28  1  0
 28 29  1  0
 28 30  2  0
 26 31  2  0
  8 32  1  0
 32 33  1  6
 33 34  1  0
 34 35  1  0
 34 36  2  0
 32 37  1  0
 37 38  1  1
 38 39  1  0
 39 40  1  0
 39 41  2  0
 37 42  1  0
 42 43  1  6
 43 44  1  0
 44 45  1  0
 44 46  2  0
 42  6  1  0
 31 10  1  0
 31 18  1  0
M  END
>  <identifier>  (1139) 
CNP0117250.1

>  <canonical_smiles>  (1139) 
CC(=O)OC[C@H]1O[C@@H](OC2=CC(OC(C)=O)=CC3=CC(C)=C(C(C)=O)C(OC(C)=O)=C23)[C@H](OC(C)=O)[C@@H](OC(C)=O)[C@@H]1OC(C)=O

>  <standard_inchi>  (1139) 
InChI=1S/C31H34O15/c1-13-9-21-10-22(40-16(4)34)11-23(26(21)28(42-18(6)36)25(13)14(2)32)45-31-30(44-20(8)38)29(43-19(7)37)27(41-17(5)35)24(46-31)12-39-15(3)33/h9-11,24,27,29-31H,12H2,1-8H3/t24-,27-,29+,30-,31-/m1/s1

>  <standard_inchi_key>  (1139) 
LZQGSGSTTIOONH-XFADWOMRSA-N

>  <name>  (1139) 
nan

>  <iupac_name>  (1139) 
[(2~{R},3~{R},4~{S},5~{R},6~{S})-3,4,5-triacetoxy-6-[(3,8-diacetoxy-7-acetyl-6-methyl-1-naphthyl)oxy]tetrahydropyran-2-yl]methyl acetate

>  <annotation_level>  (1139) 
4

>  <total_atom_count>  (1139) 
80

>  <heavy_atom_count>  (1139) 
46

>  <molecular_weight>  (1139) 
646.6

>  <exact_molecular_weight>  (1139) 
646.18977

>  <molecular_formula>  (1139) 
C31H34O15

>  <alogp>  (1139) 
2.66

>  <topological_polar_surface_area>  (1139) 
193.33

>  <rotatable_bond_count>  (1139) 
10

>  <hydrogen_bond_acceptors>  (1139) 
15

>  <hydrogen_bond_donors>  (1139) 
0

>  <hydrogen_bond_acceptors_lipinski>  (1139) 
15

>  <hydrogen_bond_donors_lipinski>  (1139) 
0

>  <lipinski_rule_of_five_violations>  (1139) 
2

>  <aromatic_rings_count>  (1139) 
2

>  <qed_drug_likeliness>  (1139) 
0.16

>  <formal_charge>  (1139) 
0

>  <fractioncsp3>  (1139) 
0.45

>  <number_of_minimal_rings>  (1139) 
3

>  <van_der_walls_volume>  (1139) 
nan

>  <contains_sugar>  (1139) 
True

>  <contains_ring_sugars>  (1139) 
True

>  <contains_linear_sugars>  (1139) 
False

>  <murcko_framework>  (1139) 
O(c1cccc2ccccc12)C3OCCCC3

>  <np_likeness>  (1139) 
1.28

>  <chemical_class>  (1139) 
Carboxylic acids and derivatives

>  <chemical_sub_class>  (1139) 
Hexacarboxylic acids and derivatives

>  <chemical_super_class>  (1139) 
Organic acids and derivatives

>  <direct_parent_classification>  (1139) 
Hexacarboxylic acids and derivatives

>  <np_classifier_pathway>  (1139) 
Shikimates and Phenylpropanoids

>  <np_classifier_superclass>  (1139) 
nan

>  <np_classifier_class>  (1139) 
nan

>  <np_classifier_is_glycoside>  (1139) 
True

>  <organisms>  (1139) 
Aphis nerii

>  <collections>  (1139) 
Latin America dataset|NuBBEDB|WikiData Natural Products|ZINC NP

>  <dois>  (1139) 
10.1016/S0040-4039(01)97216-8

>  <synonyms>  (1139) 
6-hydroxymusizin-8-O-B-D-glucoside peracetate

>  <cas>  (1139) 
nan

$$$$

     RDKit          2D

 25 28  0  0  0  0  0  0  0  0999 V2000
    1.3241   -5.3191    0.0000 C   0  0  0  0  0  0  0  0  0  0  0  0
    1.4869   -3.8280    0.0000 C   0  0  0  0  0  0  0  0  0  0  0  0
    2.8597   -3.2234    0.0000 O   0  0  0  0  0  0  0  0  0  0  0  0
    0.2769   -2.9415    0.0000 O   0  0  0  0  0  0  0  0  0  0  0  0
    0.4397   -1.4503    0.0000 C   0  0  0  0  0  0  0  0  0  0  0  0
    1.8125   -0.8457    0.0000 C   0  0  0  0  0  0  0  0  0  0  0  0
    1.9752    0.6454    0.0000 C   0  0  0  0  0  0  0  0  0  0  0  0
    3.3480    1.2500    0.0000 C   0  0  0  0  0  0  0  0  0  0  0  0
    4.8448    1.3487    0.0000 C   0  0  0  0  0  0  0  0  0  0  0  0
    3.7050   -0.2069    0.0000 C   0  0  0  0  0  0  0  0  0  0  0  0
    3.5108    2.7412    0.0000 C   0  0  0  0  0  0  0  0  0  0  0  0
    2.3008    3.6277    0.0000 C   0  0  0  0  0  0  0  0  0  0  0  0
    0.9280    3.0231    0.0000 C   0  0  0  0  0  0  0  0  0  0  0  0
    0.7653    1.5320    0.0000 C   0  0  0  0  0  0  0  0  0  0  0  0
   -0.4447    2.4185    0.0000 C   0  0  0  0  0  0  0  0  0  0  0  0
   -0.6075    0.9274    0.0000 C   0  0  0  0  0  0  0  0  0  0  0  0
   -1.8175    1.8139    0.0000 C   0  0  0  0  0  0  0  0  0  0  0  0
   -3.1902    1.2093    0.0000 C   0  0  0  0  0  0  0  0  0  0  0  0
   -3.3530   -0.2818    0.0000 C   0  0  0  0  0  0  0  0  0  0  0  0
   -4.8215   -0.5878    0.0000 C   0  0  0  0  0  0  0  0  0  0  0  0
   -5.5662    0.7142    0.0000 C   0  0  0  0  0  0  0  0  0  0  0  0
   -4.5581    1.8249    0.0000 O   0  0  0  0  0  0  0  0  0  0  0  0
   -2.1430   -1.1684    0.0000 C   0  0  0  0  0  0  0  0  0  0  0  0
   -2.3058   -2.6595    0.0000 C   0  0  0  0  0  0  0  0  0  0  0  0
   -0.7703   -0.5638    0.0000 C   0  0  0  0  0  0  0  0  0  0  0  0
  1  2  1  0
  2  3  2  0
  2  4  1  0
  5  4  1  6
  5  6  1  0
  7  6  1  6
  7  8  1  0
  8  9  1  0
  8 10  1  0
  8 11  1  0
 11 12  1  0
 12 13  1  0
 13 14  1  0
 14 15  1  6
 14 16  1  0
 16 17  1  6
 17 18  1  0
 18 19  2  0
 19 20  1  0
 20 21  2  0
 21 22  1  0
 19 23  1  0
 23 24  1  1
 25 23  1  1
 25  5  1  0
 14  7  1  0
 25 16  1  0
 22 18  1  0
M  END
>  <identifier>  (1140) 
CNP0104545.1

>  <canonical_smiles>  (1140) 
CC(=O)O[C@H]1C[C@H]2C(C)(C)CCC[C@]2(C)[C@H]2CC3=C(C=CO3)[C@H](C)[C@H]12

>  <standard_inchi>  (1140) 
InChI=1S/C22H32O3/c1-13-15-7-10-24-17(15)11-16-20(13)18(25-14(2)23)12-19-21(3,4)8-6-9-22(16,19)5/h7,10,13,16,18-20H,6,8-9,11-12H2,1-5H3/t13-,16-,18-,19-,20-,22+/m0/s1

>  <standard_inchi_key>  (1140) 
RINKJBMSKXPWBE-LLZKTCIHSA-N

>  <name>  (1140) 
nan

>  <iupac_name>  (1140) 
[(4~{a}~{S},6~{S},6~{a}~{S},7~{R},11~{a}~{S},11~{b}~{R})-4,4,7,11~{b}-tetramethyl-1,2,3,4~{a},5,6,6~{a},7,11,11~{a}-decahydronaphtho[2,1-f]benzofuran-6-yl] acetate

>  <annotation_level>  (1140) 
4

>  <total_atom_count>  (1140) 
57

>  <heavy_atom_count>  (1140) 
25

>  <molecular_weight>  (1140) 
344.5

>  <exact_molecular_weight>  (1140) 
344.23514

>  <molecular_formula>  (1140) 
C22H32O3

>  <alogp>  (1140) 
5.34

>  <topological_polar_surface_area>  (1140) 
39.44

>  <rotatable_bond_count>  (1140) 
1

>  <hydrogen_bond_acceptors>  (1140) 
3

>  <hydrogen_bond_donors>  (1140) 
0

>  <hydrogen_bond_acceptors_lipinski>  (1140) 
3

>  <hydrogen_bond_donors_lipinski>  (1140) 
0

>  <lipinski_rule_of_five_violations>  (1140) 
1

>  <aromatic_rings_count>  (1140) 
1

>  <qed_drug_likeliness>  (1140) 
0.65

>  <formal_charge>  (1140) 
0

>  <fractioncsp3>  (1140) 
0.77

>  <number_of_minimal_rings>  (1140) 
4

>  <van_der_walls_volume>  (1140) 
nan

>  <contains_sugar>  (1140) 
False

>  <contains_ring_sugars>  (1140) 
False

>  <contains_linear_sugars>  (1140) 
False

>  <murcko_framework>  (1140) 
o1ccc2c1CC3C(C2)CCC4CCCCC43

>  <np_likeness>  (1140) 
2.94

>  <chemical_class>  (1140) 
Prenol lipids

>  <chemical_sub_class>  (1140) 
Diterpenoids

>  <chemical_super_class>  (1140) 
Lipids and lipid-like molecules

>  <direct_parent_classification>  (1140) 
Diterpenoids

>  <np_classifier_pathway>  (1140) 
Terpenoids

>  <np_classifier_superclass>  (1140) 
Diterpenoids

>  <np_classifier_class>  (1140) 
Cassane diterpenoids

>  <np_classifier_is_glycoside>  (1140) 
False

>  <organisms>  (1140) 
Neoraputia magnifica|Pterodon apparicioi

>  <collections>  (1140) 
Latin America dataset|NuBBEDB|Super Natural II|WikiData Natural Products

>  <dois>  (1140) 
10.1016/S0031-9422(97)00140-4

>  <synonyms>  (1140) 
7\u221a\u00e9\u00ac\u2264-Acetoxyvouacapane

>  <cas>  (1140) 
nan

$$$$

     RDKit          2D

 24 26  0  0  0  0  0  0  0  0999 V2000
   -5.5676    1.4836    0.0000 C   0  0  0  0  0  0  0  0  0  0  0  0
   -5.3572   -0.0015    0.0000 O   0  0  0  0  0  0  0  0  0  0  0  0
   -3.9658   -0.5619    0.0000 C   0  0  0  0  0  0  0  0  0  0  0  0
   -2.7848    0.3629    0.0000 C   0  0  0  0  0  0  0  0  0  0  0  0
   -1.3934   -0.1974    0.0000 C   0  0  0  0  0  0  0  0  0  0  0  0
   -0.2124    0.7274    0.0000 C   0  0  0  0  0  0  0  0  0  0  0  0
    1.1790    0.1670    0.0000 C   0  0  0  0  0  0  0  0  0  0  0  0
    1.3894   -1.3181    0.0000 C   0  0  0  0  0  0  0  0  0  0  0  0
    2.7808   -1.8785    0.0000 C   0  0  0  0  0  0  0  0  0  0  0  0
    2.9913   -3.3636    0.0000 O   0  0  0  0  0  0  0  0  0  0  0  0
    3.9618   -0.9536    0.0000 C   0  0  0  0  0  0  0  0  0  0  0  0
    5.3532   -1.5140    0.0000 O   0  0  0  0  0  0  0  0  0  0  0  0
    6.5342   -0.5892    0.0000 C   0  0  0  0  0  0  0  0  0  0  0  0
    3.7514    0.5315    0.0000 C   0  0  0  0  0  0  0  0  0  0  0  0
    2.3600    1.0919    0.0000 C   0  0  0  0  0  0  0  0  0  0  0  0
    2.1496    2.5770    0.0000 C   0  0  0  0  0  0  0  0  0  0  0  0
    0.7582    3.1374    0.0000 C   0  0  0  0  0  0  0  0  0  0  0  0
    0.5477    4.6225    0.0000 C   0  0  0  0  0  0  0  0  0  0  0  0
   -0.4228    2.2126    0.0000 C   0  0  0  0  0  0  0  0  0  0  0  0
   -1.8142    2.7729    0.0000 C   0  0  0  0  0  0  0  0  0  0  0  0
   -1.1829   -1.6826    0.0000 C   0  0  0  0  0  0  0  0  0  0  0  0
   -2.3639   -2.6074    0.0000 C   0  0  0  0  0  0  0  0  0  0  0  0
   -3.7553   -2.0471    0.0000 C   0  0  0  0  0  0  0  0  0  0  0  0
   -4.9363   -2.9719    0.0000 O   0  0  0  0  0  0  0  0  0  0  0  0
  1  2  1  0
  2  3  1  0
  3  4  2  0
  4  5  1  0
  6  5  1  6
  6  7  1  0
  7  8  2  0
  8  9  1  0
  9 10  1  0
  9 11  2  0
 11 12  1  0
 12 13  1  0
 11 14  1  0
 14 15  2  0
 15 16  1  0
 16 17  1  0
 17 18  1  6
 17 19  1  0
 19 20  1  6
  5 21  2  0
 21 22  1  0
 22 23  2  0
 23 24  1  0
 23  3  1  0
 19  6  1  0
 15  7  1  0
M  END
>  <identifier>  (1141) 
CNP0251505.2

>  <canonical_smiles>  (1141) 
COC1=CC([C@H]2C3=CC(O)=C(OC)C=C3C[C@@H](C)[C@H]2C)=CC=C1O

>  <standard_inchi>  (1141) 
InChI=1S/C20H24O4/c1-11-7-14-9-19(24-4)17(22)10-15(14)20(12(11)2)13-5-6-16(21)18(8-13)23-3/h5-6,8-12,20-22H,7H2,1-4H3/t11-,12-,20+/m1/s1

>  <standard_inchi_key>  (1141) 
TZAAYUCUPIYQBR-HTGLOVNISA-N

>  <name>  (1141) 
nan

>  <iupac_name>  (1141) 
(2~{R},3~{R},4~{S})-4-(4-hydroxy-3-methoxy-phenyl)-7-methoxy-2,3-dimethyl-tetralin-6-ol

>  <annotation_level>  (1141) 
5

>  <total_atom_count>  (1141) 
48

>  <heavy_atom_count>  (1141) 
24

>  <molecular_weight>  (1141) 
328.41

>  <exact_molecular_weight>  (1141) 
328.16746

>  <molecular_formula>  (1141) 
C20H24O4

>  <alogp>  (1141) 
4.08

>  <topological_polar_surface_area>  (1141) 
58.92

>  <rotatable_bond_count>  (1141) 
3

>  <hydrogen_bond_acceptors>  (1141) 
4

>  <hydrogen_bond_donors>  (1141) 
2

>  <hydrogen_bond_acceptors_lipinski>  (1141) 
4

>  <hydrogen_bond_donors_lipinski>  (1141) 
2

>  <lipinski_rule_of_five_violations>  (1141) 
0

>  <aromatic_rings_count>  (1141) 
2

>  <qed_drug_likeliness>  (1141) 
0.89

>  <formal_charge>  (1141) 
0

>  <fractioncsp3>  (1141) 
0.40

>  <number_of_minimal_rings>  (1141) 
3

>  <van_der_walls_volume>  (1141) 
308.66

>  <contains_sugar>  (1141) 
False

>  <contains_ring_sugars>  (1141) 
False

>  <contains_linear_sugars>  (1141) 
False

>  <murcko_framework>  (1141) 
c1ccc(cc1)C2c3ccccc3CCC2

>  <np_likeness>  (1141) 
1.60

>  <chemical_class>  (1141) 
Aryltetralin lignans

>  <chemical_sub_class>  (1141) 
Aryltetralin lignans

>  <chemical_super_class>  (1141) 
Lignans, neolignans and related compounds

>  <direct_parent_classification>  (1141) 
Aryltetralin lignans

>  <np_classifier_pathway>  (1141) 
Shikimates and Phenylpropanoids

>  <np_classifier_superclass>  (1141) 
Lignans

>  <np_classifier_class>  (1141) 
Arylnaphthalene and aryltetralin lignans

>  <np_classifier_is_glycoside>  (1141) 
False

>  <organisms>  (1141) 
Iryanthera juruensis

>  <collections>  (1141) 
ChemSpider NPs|KNApSaCK|Latin America dataset|NuBBEDB|Super Natural II|WikiData Natural Products|ZINC NP

>  <dois>  (1141) 
10.1016/S0031-9422(00)00477-5

>  <synonyms>  (1141) 
Epi-guaiacin|epi-Guaiacin

>  <cas>  (1141) 
nan

$$$$

     RDKit          2D

 18 20  0  0  0  0  0  0  0  0999 V2000
   -4.7762    1.5435    0.0000 C   0  0  0  0  0  0  0  0  0  0  0  0
   -3.4709    0.8044    0.0000 C   0  0  0  0  0  0  0  0  0  0  0  0
   -3.4584   -0.6956    0.0000 C   0  0  0  0  0  0  0  0  0  0  0  0
   -2.1532   -1.4347    0.0000 C   0  0  0  0  0  0  0  0  0  0  0  0
   -2.1406   -2.9346    0.0000 O   0  0  0  0  0  0  0  0  0  0  0  0
   -0.8604   -0.6739    0.0000 C   0  0  0  0  0  0  0  0  0  0  0  0
    0.4448   -1.4130    0.0000 C   0  0  0  0  0  0  0  0  0  0  0  0
    0.4574   -2.9129    0.0000 O   0  0  0  0  0  0  0  0  0  0  0  0
    1.7376   -0.6522    0.0000 C   0  0  0  0  0  0  0  0  0  0  0  0
    3.0428   -1.3913    0.0000 C   0  0  0  0  0  0  0  0  0  0  0  0
    4.3355   -0.6305    0.0000 C   0  0  0  0  0  0  0  0  0  0  0  0
    4.3230    0.8695    0.0000 C   0  0  0  0  0  0  0  0  0  0  0  0
    3.0178    1.6086    0.0000 C   0  0  0  0  0  0  0  0  0  0  0  0
    1.7250    0.8478    0.0000 C   0  0  0  0  0  0  0  0  0  0  0  0
    0.4198    1.5869    0.0000 C   0  0  0  0  0  0  0  0  0  0  0  0
    0.4072    3.0868    0.0000 O   0  0  0  0  0  0  0  0  0  0  0  0
   -0.8730    0.8261    0.0000 C   0  0  0  0  0  0  0  0  0  0  0  0
   -2.1782    1.5652    0.0000 C   0  0  0  0  0  0  0  0  0  0  0  0
  1  2  1  0
  2  3  2  0
  3  4  1  0
  4  5  1  0
  4  6  2  0
  6  7  1  0
  7  8  2  0
  7  9  1  0
  9 10  2  0
 10 11  1  0
 11 12  2  0
 12 13  1  0
 13 14  2  0
 14 15  1  0
 15 16  2  0
 15 17  1  0
 17 18  2  0
 18  2  1  0
 17  6  1  0
 14  9  1  0
M  END
>  <identifier>  (1142) 
CNP0112288.0

>  <canonical_smiles>  (1142) 
CC1=CC(O)=C2C(=O)C3=CC=CC=C3C(=O)C2=C1

>  <standard_inchi>  (1142) 
InChI=1S/C15H10O3/c1-8-6-11-13(12(16)7-8)15(18)10-5-3-2-4-9(10)14(11)17/h2-7,16H,1H3

>  <standard_inchi_key>  (1142) 
AFHWNNJNTNLCQF-UHFFFAOYSA-N

>  <name>  (1142) 
PACHYBASIN

>  <iupac_name>  (1142) 
1-hydroxy-3-methyl-anthracene-9,10-dione

>  <annotation_level>  (1142) 
5

>  <total_atom_count>  (1142) 
28

>  <heavy_atom_count>  (1142) 
18

>  <molecular_weight>  (1142) 
238.24

>  <exact_molecular_weight>  (1142) 
238.06299

>  <molecular_formula>  (1142) 
C15H10O3

>  <alogp>  (1142) 
2.48

>  <topological_polar_surface_area>  (1142) 
54.37

>  <rotatable_bond_count>  (1142) 
0

>  <hydrogen_bond_acceptors>  (1142) 
3

>  <hydrogen_bond_donors>  (1142) 
1

>  <hydrogen_bond_acceptors_lipinski>  (1142) 
3

>  <hydrogen_bond_donors_lipinski>  (1142) 
1

>  <lipinski_rule_of_five_violations>  (1142) 
0

>  <aromatic_rings_count>  (1142) 
2

>  <qed_drug_likeliness>  (1142) 
0.65

>  <formal_charge>  (1142) 
0

>  <fractioncsp3>  (1142) 
0.07

>  <number_of_minimal_rings>  (1142) 
3

>  <van_der_walls_volume>  (1142) 
206.40

>  <contains_sugar>  (1142) 
False

>  <contains_ring_sugars>  (1142) 
False

>  <contains_linear_sugars>  (1142) 
False

>  <murcko_framework>  (1142) 
c1ccc2c(c1)Cc3ccccc3C2

>  <np_likeness>  (1142) 
0.83

>  <chemical_class>  (1142) 
Anthracenes

>  <chemical_sub_class>  (1142) 
Anthraquinones

>  <chemical_super_class>  (1142) 
Benzenoids

>  <direct_parent_classification>  (1142) 
Anthraquinones

>  <np_classifier_pathway>  (1142) 
Polyketides

>  <np_classifier_superclass>  (1142) 
Polycyclic aromatic polyketides

>  <np_classifier_class>  (1142) 
Anthraquinones and anthrones

>  <np_classifier_is_glycoside>  (1142) 
False

>  <organisms>  (1142) 
Boeremia foveata|Digitalis lanata|Epicoccum sorghinum|Monodictys|Monodictys sp.|Pachybasium candidum|Pachybasium candidum saccardo|Phoma sorghina|Trichoderma harzianum|Trichoderma polysporum

>  <collections>  (1142) 
AnalytiCon Discovery NPs|Australian natural products|KNApSaCK|Latin America dataset|NPAtlas|NPEdia|NuBBEDB|UNPD (Universal Natural Products Database)|WikiData Natural Products|ZINC NP

>  <dois>  (1142) 
10.1007/S100520000449|10.1007/s100520000449|10.1016/S0031-9422(00)81684-2|10.1016/S0031-9422(00)88455-1|10.1021/JF901405C|10.1021/NP900548P|10.1042/BJ0980112|10.1248/CPB.55.1097|10.1248/CPB1953.3.156|10.1590/S0103-50532006000500017

>  <synonyms>  (1142) 
1-Hydroxy-3-methyl-9,10-anthracenedione|1-Hydroxy-3-methylanthraquinone|1-hydroxy-3-methyl-9,10-dihydroanthracene-9,10-dione|1-hydroxy-3-methylanthracene-9,10-dione|2549-78-2|9,10-Anthracenedione, 1-hydroxy-3-methyl-|AKOS022660296|BS-1311|CHEBI:202083|CHEMBL2229888|CS-0113230|DB-291432|DTXSID80180177|EN300-25893672|HY-N7307|Pachybasin|Pachybasin 1-hydroxy-3-methyl-910- anthraquinone|SCHEMBL7624909|UNII-W9FS8QF9ZX|W9FS8QF9ZX

>  <cas>  (1142) 
2549-78-2

$$$$

     RDKit          2D

 16 18  0  0  0  0  0  0  0  0999 V2000
   -1.0927   -3.2855    0.0000 C   0  0  0  0  0  0  0  0  0  0  0  0
    0.0760   -2.3453    0.0000 C   0  0  0  0  0  0  0  0  0  0  0  0
    1.5236   -2.7382    0.0000 C   0  0  0  0  0  0  0  0  0  0  0  0
    2.3446   -1.4828    0.0000 C   0  0  0  0  0  0  0  0  0  0  0  0
    1.4044   -0.3140    0.0000 C   0  0  0  0  0  0  0  0  0  0  0  0
    0.0023   -0.8471    0.0000 C   0  0  0  0  0  0  0  0  0  0  0  0
   -1.2887   -0.0833    0.0000 C   0  0  0  0  0  0  0  0  0  0  0  0
   -1.4964    1.4023    0.0000 C   0  0  0  0  0  0  0  0  0  0  0  0
   -0.4644    2.4909    0.0000 C   0  0  0  0  0  0  0  0  0  0  0  0
    1.0301    2.3628    0.0000 C   0  0  0  0  0  0  0  0  0  0  0  0
    1.8618    1.1145    0.0000 C   0  0  0  0  0  0  0  0  0  0  0  0
    2.8937    2.2031    0.0000 C   0  0  0  0  0  0  0  0  0  0  0  0
    3.1527    0.3507    0.0000 O   0  0  0  0  0  0  0  0  0  0  0  0
   -2.6791    0.4796    0.0000 C   0  0  0  0  0  0  0  0  0  0  0  0
   -3.7931    1.4841    0.0000 C   0  0  0  0  0  0  0  0  0  0  0  0
   -3.4748   -0.7919    0.0000 C   0  0  0  0  0  0  0  0  0  0  0  0
  2  1  1  1
  2  3  1  0
  3  4  1  0
  5  4  1  6
  5  6  1  0
  6  7  1  0
  7  8  1  0
  8  9  1  6
  9 10  1  0
 10 11  1  0
 11 12  1  6
 11 13  1  0
  8 14  1  0
 14 15  1  0
 14 16  1  0
  6  2  1  1
  7 14  1  6
 11  5  1  0
M  END
>  <identifier>  (1143) 
CNP0210398.13

>  <canonical_smiles>  (1143) 
C[C@@H]1CC[C@@H]2[C@@H]1[C@H]1[C@@H](CC[C@@]2(C)O)C1(C)C

>  <standard_inchi>  (1143) 
InChI=1S/C15H26O/c1-9-5-6-10-12(9)13-11(14(13,2)3)7-8-15(10,4)16/h9-13,16H,5-8H2,1-4H3/t9-,10-,11-,12-,13-,15-/m1/s1

>  <standard_inchi_key>  (1143) 
AYXPYQRXGNDJFU-QTPLKFIXSA-N

>  <name>  (1143) 
(-)-Globulol

>  <iupac_name>  (1143) 
(1~{a}~{R},4~{R},4~{a}~{R},7~{R},7~{a}~{S},7~{b}~{S})-1,1,4,7-tetramethyl-2,3,4~{a},5,6,7,7~{a},7~{b}-octahydro-1~{a}~{H}-cyclopropa[e]azulen-4-ol

>  <annotation_level>  (1143) 
5

>  <total_atom_count>  (1143) 
42

>  <heavy_atom_count>  (1143) 
16

>  <molecular_weight>  (1143) 
222.37

>  <exact_molecular_weight>  (1143) 
222.19837

>  <molecular_formula>  (1143) 
C15H26O

>  <alogp>  (1143) 
3.47

>  <topological_polar_surface_area>  (1143) 
20.23

>  <rotatable_bond_count>  (1143) 
0

>  <hydrogen_bond_acceptors>  (1143) 
1

>  <hydrogen_bond_donors>  (1143) 
1

>  <hydrogen_bond_acceptors_lipinski>  (1143) 
1

>  <hydrogen_bond_donors_lipinski>  (1143) 
1

>  <lipinski_rule_of_five_violations>  (1143) 
0

>  <aromatic_rings_count>  (1143) 
0

>  <qed_drug_likeliness>  (1143) 
0.67

>  <formal_charge>  (1143) 
0

>  <fractioncsp3>  (1143) 
1.00

>  <number_of_minimal_rings>  (1143) 
3

>  <van_der_walls_volume>  (1143) 
236.72

>  <contains_sugar>  (1143) 
False

>  <contains_ring_sugars>  (1143) 
False

>  <contains_linear_sugars>  (1143) 
False

>  <murcko_framework>  (1143) 
C1CC2CCCC2C3CC3C1

>  <np_likeness>  (1143) 
3.13

>  <chemical_class>  (1143) 
Prenol lipids

>  <chemical_sub_class>  (1143) 
Sesquiterpenoids

>  <chemical_super_class>  (1143) 
Lipids and lipid-like molecules

>  <direct_parent_classification>  (1143) 
Guaianes

>  <np_classifier_pathway>  (1143) 
Terpenoids

>  <np_classifier_superclass>  (1143) 
Sesquiterpenoids

>  <np_classifier_class>  (1143) 
Aromadendrane sesquiterpenoids

>  <np_classifier_is_glycoside>  (1143) 
False

>  <organisms>  (1143) 
Achillea grandifolia|Actinodium cunninghamii|Aguacate|Aiouea costaricensis|Aloysia chamaedryfolia|Aloysia gratissima|Alpinia oxyphylla|Angelica acutiloba|Angelica gigas|Angelica sinensis|Aristolochia elegans|Aristolochia littoralis|Artemisia annua L.|Artemisia apiacea|Artemisia argyi|Artemisia capillaris|Artemisia caruifolia|Artemisia carvifolia|Artemisia montana|Artemisia princeps|Atalantia buxifolia|Austrobaileya scandens|Austromyrtus dulcis|Austromyrtus tenuifolia|Baccharis dracunculifolia|Baccharis uncinella|Bazzania trilobata|Beilschmiedia pendula|Bitter bush|Bouchardatia neurococca|Callicarpa japonica|Callistemon linearis|Cinnamomum parthenoxylon|Cistus creticus|Citrus maxima|Citrus reticulata|Citrus unshiu|Cnidium officinale|Commiphora quadricincta|Conioselinum anthriscoides|Corymbia citriodora|Curcuma kwangsiensis|Curcuma phaeocaulis|Curcuma wenyujin|Curcuma zedoaria|Cyperus Rotundus|Cyperus rotundus|Drimys brasiliensis|Duguetia confinis|Elsholtzia ciliata|Eucalyptus Globulus|Eucalyptus albens|Eucalyptus angulosa|Eucalyptus apodophylla|Eucalyptus astringens|Eucalyptus behriana|Eucalyptus bosistoana|Eucalyptus botryoides|Eucalyptus brassiana|Eucalyptus bridgesiana|Eucalyptus caesia|Eucalyptus camaldulensis|Eucalyptus ceratocorys|Eucalyptus citriodora|Eucalyptus cladocalyx|Eucalyptus cloeziana|Eucalyptus cuprea|Eucalyptus dealbata|Eucalyptus dolichorhyncha|Eucalyptus exserta|Eucalyptus fasciculosa|Eucalyptus forrestiana|Eucalyptus globulus|Eucalyptus grandis|Eucalyptus incrassata|Eucalyptus intertexta|Eucalyptus jensenii|Eucalyptus lansdowneana|Eucalyptus leucoxylon|Eucalyptus maidenii|Eucalyptus melanophloia|Eucalyptus moluccana|Eucalyptus nova-anglica|Eucalyptus occidentalis|Eucalyptus ochrophloia|Eucalyptus odorata|Eucalyptus oviformis|Eucalyptus paniculata|Eucalyptus polyanthemos|Eucalyptus populnea|Eucalyptus porosa|Eucalyptus pulverulenta|Eucalyptus punctata|Eucalyptus radiata|Eucalyptus saligna|Eucalyptus siderophloia|Eucalyptus sideroxylon|Eucalyptus sparsa|Eucalyptus stoatei|Eucalyptus tereticornis|Eucalyptus tetraptera|Eucalyptus viridis|Eugenia dysenterica|Flourensia cernua|Foeniculum vulgare|Frullania tamarisci|Hedeoma mandoniana|Hedychium spicatum|Helenium arizonicum|Helichrysum stoechas|Humulus lupulus|Hypericum perforatum|Hyptis suaveolens|Kunzea ambigua|Kunzea salina|Lactarius lilacinus|Lavandula stoechas|Lepechinia chamaedryoides|Lepechinia chilensis|Lepechinia floribunda|Lepidozia fauriana|Leplaea cedrata|Ligusticum chuanxiong|Ligusticum sinense|Ligusticum striatum|Lindera aggregata|Lindera strichnifolia|Lippia dulcis|Marsypianthes glomerata|Melaleuca Leucadendra|Melaleuca alternifolia|Melaleuca leucadendra|Melaleuca linariifolia|Melaleuca quinquenervia|Mesosphaerum suaveolens|Metrosideros perforata|Minthostachys andina|Mosla chinensis|Murraya koenigii|Myrcia tricona|Nardostachys jatamansi|Neoscopelus microchir|Ocotea gomezii|Ocotea morae|Oocephalus oppositiflorus|Oreocome striata|Osbornia octodonta|Panax ginseng|Pelargonium endlicherianum|Pellia epiphylla|Persea tolimanensis|Phyla dulcis|Pimenta racemosa|Piper cernuum|Piper fimbriulatum|Piper gaudichaudianum|Piper obliquum|Piper regnellii|Pittosporum phillyraeoides|Placida dendritica|Porcelia macrocarpa|Prangos tschimganica|Prangos uloptera|Psiadia altissima|Psidium friedrichsthalianum|Psidium guayava|Psidium larueotteanum|Psidium rufum|Psidium salutare|Salvia coccinea|Salvia vermifolia|Schinus molle|Scutellaria barbata|Shorea robusta|Sideritis lyciae|Stockwellia|Sundacarpus amarus|Tagetes lucida|Tagetes minuta|Thryptomene saxicola|Thymus funkii|Thymus longiflorus|Thymus vulgaris|Toona ciliata|Trilophozia quinquedentata|Triticum aestivum|Tritomaria quinquedentata|Virola surinamensis|Vitex agnus-castus|Vitex negundo|Xylopia phloiodora|Zea mays|Zingiber officinale

>  <collections>  (1143) 
ANPDB|Australian natural products|CMAUP (cCollective molecular activities of useful plants)|EMNPD|Latin America dataset|NANPDB (Natural Products from Northern African Sources)|NAPRORE-CR|NPASS|NuBBEDB|Phyto4Health|Super Natural II|VietHerb|WikiData Natural Products|ZINC NP

>  <dois>  (1143) 
10.1002/(SICI)1097-0231(199608)10:11<1345::AID-RCM631>3.0.CO;2-4|10.1002/(SICI)1099-1026(199601)11:1<15::AID-FFJ541>3.0.CO;2-H|10.1002/(SICI)1099-1026(199701)12:1<47::AID-FFJ610>3.0.CO;2-7|10.1002/(SICI)1099-1573(199702)11:1<67::AID-PTR29>3.0.CO;2-I|10.1002/FFJ.2730050210|10.1002/FFJ.2730060408|10.1002/FFJ.2730090203|10.1002/FFJ.2730090305|10.1002/FFJ.2730100203|10.1002/FFJ.2730100310|10.1002/FFJ.2730100605|10.1002/FFJ.2730100609|10.1002/FFJ.998|10.1002/RCM.1290091307|10.1007/BF02269705|10.1016/0031-9422(89)80388-7|10.1016/0031-9422(90)85269-L|10.1016/0031-9422(91)83064-R|10.1016/0031-9422(92)80396-V|10.1016/0305-1978(94)90116-3|10.1016/0305-1978(96)00023-3|10.1016/J.JEP.2012.10.010|10.1016/J.PHYTOCHEM.2003.08.004|10.1016/J.TET.2004.08.027|10.1016/S0003-2670(01)01307-1|10.1016/S0031-9422(00)00407-6|10.1016/S0031-9422(00)81286-8|10.1016/S0031-9422(01)00018-8|10.1016/S0031-9422(01)00322-3|10.1016/S0031-9422(02)00207-8|10.1016/S0031-9422(96)00559-6|10.1016/S0031-9422(96)00691-7|10.1016/S0031-9422(97)00324-5|10.1016/S0031-9422(97)00400-7|10.1016/S0031-9422(97)00414-7|10.1016/S0031-9422(97)00762-0|10.1016/S0031-9422(97)00795-4|10.1016/S0031-9422(99)00050-3|10.1016/S0031-9422(99)00123-5|10.1016/S0031-9422(99)00383-0|10.1016/S0031-9422(99)00601-9|10.1016/S0040-4039(01)99416-X|10.1016/S0378-8741(00)00214-2|10.1016/S0378-8741(01)00211-2|10.1016/s0040-4039(01)99416-x|10.1021/JF00034A020|10.1021/JF00035A029|10.1021/JF00118A056|10.1021/JF0116303|10.1021/JF60222A026|10.1021/JM3007454|10.1021/NP400872M|10.1021/jf011456i|10.1021/jm3007454|10.1021/np400872m|10.1055/S-2001-18363|10.1055/S-2001-18857|10.1055/S-2006-957433|10.1055/S-2006-957641|10.1055/S-2006-957814|10.1055/S-2006-958052|10.1055/S-2006-959580|10.1055/S-2006-959674|10.1055/S-2006-960872|10.1055/S-2006-961401|10.1055/S-2006-961452|10.1055/S-2007-969442|10.1071/CH9590442|10.1076/PHBI.40.1.67.5852|10.1080/10412905.1990.9697824|10.1080/10412905.1990.9697829|10.1080/10412905.1991.9697906|10.1080/10412905.1991.9697921|10.1080/10412905.1991.9697952|10.1080/10412905.1991.9697984|10.1080/10412905.1992.9698006|10.1080/10412905.1992.9698059|10.1080/10412905.1992.9698129|10.1080/10412905.1993.9698162|10.1080/10412905.1994.9698322|10.1080/10412905.1994.9698327|10.1080/10412905.1994.9698380|10.1080/10412905.1994.9698395|10.1080/10412905.1994.9698400|10.1080/10412905.1994.9698408|10.1080/10412905.1994.9698428|10.1080/10412905.1994.9698435|10.1080/10412905.1994.9698446|10.1080/10412905.1994.9699347|10.1080/10412905.1994.9699348|10.1080/10412905.1994.9699358|10.1080/10412905.1994.9699365|10.1080/10412905.1995.9698462|10.1080/10412905.1995.9698496|10.1080/10412905.1995.9698502|10.1080/10412905.2000.9699530|10.1080/10412905.2000.9699554|10.1080/10412905.2000.9712201|10.1080/10412905.2010.9700320|10.1080/10412905.2010.9700389|10.1080/14786410701848154|10.1248/CPB.39.3276|10.1590/S0103-50532000000600012|10.1590/S0103-50532003000100004|10.1590/S0103-50532010000900024|10.1590/S0103-50532011000400018|10.3389/FMICB.2014.00626

>  <synonyms>  (1143) 
(-)-Globulol, >=98.5% (sum of enantiomers, GC)|(-)-globulol|(1AR-(1A.ALPHA.,4.ALPHA.,4A.ALPHA.,7.ALPHA.,7A.BETA.,7B.ALPHA.))-DECAHYDRO-1,1,4,7-TETRAMETHYL-1H-CYCLOPROP(E)AZULEN-4-OL|(1AR-(1aalpha,4alpha,4aalpha,7alpha,7abeta,7balpha))-decahydro-1,1,4,7-tetramethyl-1H-cycloprop(e)azulen-4-ol|(1aR,4R,4aR,7R,7aS,7bS)-1,1,4,7-tetramethyl-2,3,4a,5,6,7,7a,7b-octahydro-1aH-cyclopropa[e]azulen-4-ol|1H-CYCLOPROP(E)AZULEN-4-OL, DECAHYDRO-1,1,4,7-TETRAMETHYL-, (1AR,4R,4AR,7R,7AS,7BS)-|1H-CYCLOPROP(E)AZULEN-4-OL, DECAHYDRO-1,1,4,7-TETRAMETHYL-, (1AR-(1A.ALPHA.,4.ALPHA.,4A.ALPHA.,7.ALPHA.,7A.BETA.,7B.ALPHA.))-|489-41-8|AKOS040760425|AYXPYQRXGNDJFU-QTPLKFIXSA-N|CHEBI:167415|CHEMBL2171207|CS-0143849|DTXSID801318741|EINECS 207-696-7|G66H9XM0JK|GLOBULOL, (-)-|Globulol|HY-N8389|MFCD00042615|NS00042446|NSC-152470|Q27278826|SCHEMBL60792|UNII-G66H9XM0JK|globulol

>  <cas>  (1143) 
489-41-8

$$$$

     RDKit          2D

 22 24  0  0  0  0  0  0  0  0999 V2000
   -6.4919    0.2175    0.0000 C   0  0  0  0  0  0  0  0  0  0  0  0
   -5.2271   -0.5889    0.0000 O   0  0  0  0  0  0  0  0  0  0  0  0
   -3.8963    0.1033    0.0000 C   0  0  0  0  0  0  0  0  0  0  0  0
   -3.8304    1.6018    0.0000 C   0  0  0  0  0  0  0  0  0  0  0  0
   -2.4996    2.2940    0.0000 C   0  0  0  0  0  0  0  0  0  0  0  0
   -1.2348    1.4876    0.0000 C   0  0  0  0  0  0  0  0  0  0  0  0
    0.0959    2.1797    0.0000 O   0  0  0  0  0  0  0  0  0  0  0  0
    1.3607    1.3733    0.0000 C   0  0  0  0  0  0  0  0  0  0  0  0
    2.6915    2.0655    0.0000 C   0  0  0  0  0  0  0  0  0  0  0  0
    3.9563    1.2591    0.0000 C   0  0  0  0  0  0  0  0  0  0  0  0
    5.2871    1.9512    0.0000 O   0  0  0  0  0  0  0  0  0  0  0  0
    3.8903   -0.2395    0.0000 C   0  0  0  0  0  0  0  0  0  0  0  0
    5.1551   -1.0459    0.0000 O   0  0  0  0  0  0  0  0  0  0  0  0
    2.5596   -0.9316    0.0000 C   0  0  0  0  0  0  0  0  0  0  0  0
    2.4936   -2.4302    0.0000 O   0  0  0  0  0  0  0  0  0  0  0  0
    1.1629   -3.1223    0.0000 C   0  0  0  0  0  0  0  0  0  0  0  0
    1.2948   -0.1252    0.0000 C   0  0  0  0  0  0  0  0  0  0  0  0
   -0.0360   -0.8174    0.0000 C   0  0  0  0  0  0  0  0  0  0  0  0
   -0.1019   -2.3159    0.0000 O   0  0  0  0  0  0  0  0  0  0  0  0
   -1.3008   -0.0110    0.0000 C   0  0  0  0  0  0  0  0  0  0  0  0
   -2.6315   -0.7031    0.0000 C   0  0  0  0  0  0  0  0  0  0  0  0
   -2.6975   -2.2017    0.0000 O   0  0  0  0  0  0  0  0  0  0  0  0
  1  2  1  0
  2  3  1  0
  3  4  2  0
  4  5  1  0
  5  6  2  0
  6  7  1  0
  7  8  1  0
  8  9  2  0
  9 10  1  0
 10 11  1  0
 10 12  2  0
 12 13  1  0
 12 14  1  0
 14 15  1  0
 15 16  1  0
 14 17  2  0
 17 18  1  0
 18 19  2  0
 18 20  1  0
 20 21  2  0
 21 22  1  0
 21  3  1  0
 20  6  1  0
 17  8  1  0
M  END
>  <identifier>  (1144) 
CNP0114496.0

>  <canonical_smiles>  (1144) 
COC1=CC=C2OC3=CC(O)=C(O)C(OC)=C3C(=O)C2=C1O

>  <standard_inchi>  (1144) 
InChI=1S/C15H12O7/c1-20-8-4-3-7-10(13(8)18)14(19)11-9(22-7)5-6(16)12(17)15(11)21-2/h3-5,16-18H,1-2H3

>  <standard_inchi_key>  (1144) 
JXTRONMGACAEHH-UHFFFAOYSA-N

>  <name>  (1144) 
nan

>  <iupac_name>  (1144) 
2,3,8-trihydroxy-1,7-dimethoxy-xanthen-9-one

>  <annotation_level>  (1144) 
4

>  <total_atom_count>  (1144) 
34

>  <heavy_atom_count>  (1144) 
22

>  <molecular_weight>  (1144) 
304.25

>  <exact_molecular_weight>  (1144) 
304.0583

>  <molecular_formula>  (1144) 
C15H12O7

>  <alogp>  (1144) 
2.08

>  <topological_polar_surface_area>  (1144) 
109.36

>  <rotatable_bond_count>  (1144) 
2

>  <hydrogen_bond_acceptors>  (1144) 
7

>  <hydrogen_bond_donors>  (1144) 
3

>  <hydrogen_bond_acceptors_lipinski>  (1144) 
7

>  <hydrogen_bond_donors_lipinski>  (1144) 
3

>  <lipinski_rule_of_five_violations>  (1144) 
0

>  <aromatic_rings_count>  (1144) 
3

>  <qed_drug_likeliness>  (1144) 
0.49

>  <formal_charge>  (1144) 
0

>  <fractioncsp3>  (1144) 
0.13

>  <number_of_minimal_rings>  (1144) 
3

>  <van_der_walls_volume>  (1144) 
nan

>  <contains_sugar>  (1144) 
False

>  <contains_ring_sugars>  (1144) 
False

>  <contains_linear_sugars>  (1144) 
False

>  <murcko_framework>  (1144) 
O1c2ccccc2Cc3ccccc13

>  <np_likeness>  (1144) 
1.58

>  <chemical_class>  (1144) 
Benzopyrans

>  <chemical_sub_class>  (1144) 
1-benzopyrans

>  <chemical_super_class>  (1144) 
Organoheterocyclic compounds

>  <direct_parent_classification>  (1144) 
Xanthones

>  <np_classifier_pathway>  (1144) 
Shikimates and Phenylpropanoids

>  <np_classifier_superclass>  (1144) 
Xanthones

>  <np_classifier_class>  (1144) 
Plant xanthones

>  <np_classifier_is_glycoside>  (1144) 
False

>  <organisms>  (1144) 
Kielmeyera rubriflora

>  <collections>  (1144) 
Latin America dataset|NuBBEDB|UNPD (Universal Natural Products Database)|WikiData Natural Products|ZINC NP

>  <dois>  (1144) 
10.1016/S0031-9422(00)97240-6

>  <synonyms>  (1144) 
17-dimethoxy-238-trihydroxyxanthone

>  <cas>  (1144) 
nan

$$$$

     RDKit          2D

 28 30  0  0  0  0  0  0  0  0999 V2000
    4.9375   -4.6406    0.0000 C   0  0  0  0  0  0  0  0  0  0  0  0
    4.8320   -3.1443    0.0000 C   0  0  0  0  0  0  0  0  0  0  0  0
    3.4834   -2.4876    0.0000 C   0  0  0  0  0  0  0  0  0  0  0  0
    3.3779   -0.9913    0.0000 C   0  0  0  0  0  0  0  0  0  0  0  0
    4.6209   -0.1518    0.0000 C   0  0  0  0  0  0  0  0  0  0  0  0
    5.9695   -0.8085    0.0000 O   0  0  0  0  0  0  0  0  0  0  0  0
    4.5154    1.3445    0.0000 C   0  0  0  0  0  0  0  0  0  0  0  0
    5.7584    2.1841    0.0000 O   0  0  0  0  0  0  0  0  0  0  0  0
    5.6529    3.6803    0.0000 C   0  0  0  0  0  0  0  0  0  0  0  0
    3.1668    2.0013    0.0000 C   0  0  0  0  0  0  0  0  0  0  0  0
    1.9237    1.1617    0.0000 C   0  0  0  0  0  0  0  0  0  0  0  0
    2.0293   -0.3345    0.0000 C   0  0  0  0  0  0  0  0  0  0  0  0
    0.6388   -0.8973    0.0000 O   0  0  0  0  0  0  0  0  0  0  0  0
   -0.3260    0.2512    0.0000 C   0  0  0  0  0  0  0  0  0  0  0  0
   -1.8223    0.1457    0.0000 C   0  0  0  0  0  0  0  0  0  0  0  0
   -2.6618    1.3887    0.0000 C   0  0  0  0  0  0  0  0  0  0  0  0
   -4.1581    1.2832    0.0000 C   0  0  0  0  0  0  0  0  0  0  0  0
   -4.9977    2.5263    0.0000 O   0  0  0  0  0  0  0  0  0  0  0  0
   -4.3409    3.8749    0.0000 C   0  0  0  0  0  0  0  0  0  0  0  0
   -4.8149   -0.0654    0.0000 C   0  0  0  0  0  0  0  0  0  0  0  0
   -6.3112   -0.1709    0.0000 O   0  0  0  0  0  0  0  0  0  0  0  0
   -6.9679   -1.5195    0.0000 C   0  0  0  0  0  0  0  0  0  0  0  0
   -3.9754   -1.3084    0.0000 C   0  0  0  0  0  0  0  0  0  0  0  0
   -4.6321   -2.6570    0.0000 O   0  0  0  0  0  0  0  0  0  0  0  0
   -3.7926   -3.9001    0.0000 C   0  0  0  0  0  0  0  0  0  0  0  0
   -2.4791   -1.2029    0.0000 C   0  0  0  0  0  0  0  0  0  0  0  0
    0.4681    1.5238    0.0000 C   0  0  0  0  0  0  0  0  0  0  0  0
   -0.0946    2.9142    0.0000 C   0  0  0  0  0  0  0  0  0  0  0  0
  1  2  2  0
  2  3  1  0
  3  4  1  0
  4  5  2  0
  5  6  1  0
  5  7  1  0
  7  8  1  0
  8  9  1  0
  7 10  2  0
 10 11  1  0
 11 12  2  0
 12 13  1  0
 13 14  1  0
 14 15  1  0
 15 16  2  0
 16 17  1  0
 17 18  1  0
 18 19  1  0
 17 20  2  0
 20 21  1  0
 21 22  1  0
 20 23  1  0
 23 24  1  0
 24 25  1  0
 23 26  2  0
 14 27  2  0
 27 28  1  0
 12  4  1  0
 26 15  1  0
 27 11  1  0
M  END
>  <identifier>  (1145) 
CNP0110777.0

>  <canonical_smiles>  (1145) 
C=CCC1=C(O)C(OC)=CC2=C1OC(C1=CC(OC)=C(OC)C(OC)=C1)=C2C

>  <standard_inchi>  (1145) 
InChI=1S/C22H24O6/c1-7-8-14-19(23)16(24-3)11-15-12(2)20(28-21(14)15)13-9-17(25-4)22(27-6)18(10-13)26-5/h7,9-11,23H,1,8H2,2-6H3

>  <standard_inchi_key>  (1145) 
DGKDCYBFRAMIID-UHFFFAOYSA-N

>  <name>  (1145) 
nan

>  <iupac_name>  (1145) 
7-allyl-5-methoxy-3-methyl-2-(3,4,5-trimethoxyphenyl)benzofuran-6-ol

>  <annotation_level>  (1145) 
4

>  <total_atom_count>  (1145) 
52

>  <heavy_atom_count>  (1145) 
28

>  <molecular_weight>  (1145) 
384.43

>  <exact_molecular_weight>  (1145) 
384.15729

>  <molecular_formula>  (1145) 
C22H24O6

>  <alogp>  (1145) 
4.88

>  <topological_polar_surface_area>  (1145) 
70.29

>  <rotatable_bond_count>  (1145) 
7

>  <hydrogen_bond_acceptors>  (1145) 
6

>  <hydrogen_bond_donors>  (1145) 
1

>  <hydrogen_bond_acceptors_lipinski>  (1145) 
6

>  <hydrogen_bond_donors_lipinski>  (1145) 
1

>  <lipinski_rule_of_five_violations>  (1145) 
0

>  <aromatic_rings_count>  (1145) 
3

>  <qed_drug_likeliness>  (1145) 
0.59

>  <formal_charge>  (1145) 
0

>  <fractioncsp3>  (1145) 
0.27

>  <number_of_minimal_rings>  (1145) 
3

>  <van_der_walls_volume>  (1145) 
nan

>  <contains_sugar>  (1145) 
False

>  <contains_ring_sugars>  (1145) 
False

>  <contains_linear_sugars>  (1145) 
False

>  <murcko_framework>  (1145) 
o1c2ccccc2cc1-c3ccccc3

>  <np_likeness>  (1145) 
0.95

>  <chemical_class>  (1145) 
2-arylbenzofuran flavonoids

>  <chemical_sub_class>  (1145) 
2-arylbenzofuran flavonoids

>  <chemical_super_class>  (1145) 
Phenylpropanoids and polyketides

>  <direct_parent_classification>  (1145) 
2-arylbenzofuran flavonoids

>  <np_classifier_pathway>  (1145) 
Shikimates and Phenylpropanoids

>  <np_classifier_superclass>  (1145) 
Lignans

>  <np_classifier_class>  (1145) 
Minor lignans

>  <np_classifier_is_glycoside>  (1145) 
False

>  <organisms>  (1145) 
Nectandra miranda|Rhodostemonodaphne miranda

>  <collections>  (1145) 
Latin America dataset|NuBBEDB|UNPD (Universal Natural Products Database)|WikiData Natural Products|ZINC NP

>  <dois>  (1145) 
10.1016/S0031-9422(00)89245-6

>  <synonyms>  (1145) 
7-Allyl-6-hydroxy-5-methoxy-2-(3' 4' 5'-trimethoxyphenyl)-3- methylbenzofuran

>  <cas>  (1145) 
nan

$$$$

     RDKit          2D

 21 21  0  0  0  0  0  0  0  0999 V2000
    4.0383   -3.1127    0.0000 C   0  0  0  0  0  0  0  0  0  0  0  0
    2.8005   -2.2655    0.0000 C   0  0  0  0  0  0  0  0  0  0  0  0
    1.6122   -3.1810    0.0000 C   0  0  0  0  0  0  0  0  0  0  0  0
    0.1128   -3.2232    0.0000 C   0  0  0  0  0  0  0  0  0  0  0  0
   -1.1250   -2.3760    0.0000 C   0  0  0  0  0  0  0  0  0  0  0  0
   -1.6285   -0.9631    0.0000 C   0  0  0  0  0  0  0  0  0  0  0  0
   -3.1279   -1.0053    0.0000 C   0  0  0  0  0  0  0  0  0  0  0  0
   -3.9142    0.2721    0.0000 O   0  0  0  0  0  0  0  0  0  0  0  0
   -5.4136    0.2299    0.0000 C   0  0  0  0  0  0  0  0  0  0  0  0
   -6.1999    1.5074    0.0000 C   0  0  0  0  0  0  0  0  0  0  0  0
   -6.1267   -1.0897    0.0000 O   0  0  0  0  0  0  0  0  0  0  0  0
   -1.2053    0.4760    0.0000 C   0  0  0  0  0  0  0  0  0  0  0  0
   -0.0171    1.3915    0.0000 C   0  0  0  0  0  0  0  0  0  0  0  0
    1.4823    1.4337    0.0000 C   0  0  0  0  0  0  0  0  0  0  0  0
    1.9055    2.8728    0.0000 C   0  0  0  0  0  0  0  0  0  0  0  0
    0.4664    3.2960    0.0000 C   0  0  0  0  0  0  0  0  0  0  0  0
    3.3446    2.4496    0.0000 C   0  0  0  0  0  0  0  0  0  0  0  0
    2.3287    4.3118    0.0000 O   0  0  0  0  0  0  0  0  0  0  0  0
    2.7202    0.5865    0.0000 C   0  0  0  0  0  0  0  0  0  0  0  0
    3.2237   -0.8265    0.0000 C   0  0  0  0  0  0  0  0  0  0  0  0
    4.7231   -0.7843    0.0000 O   0  0  0  0  0  0  0  0  0  0  0  0
  1  2  2  0
  2  3  1  0
  3  4  1  0
  4  5  1  0
  5  6  1  0
  6  7  1  0
  7  8  1  0
  8  9  1  0
  9 10  1  0
  9 11  2  0
  6 12  1  0
 12 13  1  0
 13 14  1  0
 14 15  1  6
 15 16  1  0
 15 17  1  0
 15 18  1  0
 14 19  1  0
 19 20  1  0
 20 21  1  0
 20  2  1  0
M  END
>  <identifier>  (1146) 
CNP0080556.1

>  <canonical_smiles>  (1146) 
C=C1CCCC(COC(C)=O)CC[C@H](C(C)(C)O)CC1O

>  <standard_inchi>  (1146) 
InChI=1S/C17H30O4/c1-12-6-5-7-14(11-21-13(2)18)8-9-15(10-16(12)19)17(3,4)20/h14-16,19-20H,1,5-11H2,2-4H3/t14?,15-,16?/m0/s1

>  <standard_inchi_key>  (1146) 
UIGMOELBQHXNBD-PCKAHOCUSA-N

>  <name>  (1146) 
nan

>  <iupac_name>  (1146) 
[(4~{S})-6-hydroxy-4-(1-hydroxy-1-methyl-ethyl)-7-methylene-cyclodecyl]methyl acetate

>  <annotation_level>  (1146) 
4

>  <total_atom_count>  (1146) 
51

>  <heavy_atom_count>  (1146) 
21

>  <molecular_weight>  (1146) 
298.42

>  <exact_molecular_weight>  (1146) 
298.21441

>  <molecular_formula>  (1146) 
C17H30O4

>  <alogp>  (1146) 
2.82

>  <topological_polar_surface_area>  (1146) 
66.76

>  <rotatable_bond_count>  (1146) 
3

>  <hydrogen_bond_acceptors>  (1146) 
4

>  <hydrogen_bond_donors>  (1146) 
2

>  <hydrogen_bond_acceptors_lipinski>  (1146) 
4

>  <hydrogen_bond_donors_lipinski>  (1146) 
2

>  <lipinski_rule_of_five_violations>  (1146) 
0

>  <aromatic_rings_count>  (1146) 
0

>  <qed_drug_likeliness>  (1146) 
0.62

>  <formal_charge>  (1146) 
0

>  <fractioncsp3>  (1146) 
0.82

>  <number_of_minimal_rings>  (1146) 
1

>  <van_der_walls_volume>  (1146) 
nan

>  <contains_sugar>  (1146) 
False

>  <contains_ring_sugars>  (1146) 
False

>  <contains_linear_sugars>  (1146) 
False

>  <murcko_framework>  (1146) 
C1CCCCCCCCC1

>  <np_likeness>  (1146) 
1.81

>  <chemical_class>  (1146) 
Prenol lipids

>  <chemical_sub_class>  (1146) 
Sesquiterpenoids

>  <chemical_super_class>  (1146) 
Lipids and lipid-like molecules

>  <direct_parent_classification>  (1146) 
Germacrane sesquiterpenoids

>  <np_classifier_pathway>  (1146) 
Terpenoids

>  <np_classifier_superclass>  (1146) 
Sesquiterpenoids

>  <np_classifier_class>  (1146) 
Germacrane sesquiterpenoids

>  <np_classifier_is_glycoside>  (1146) 
False

>  <organisms>  (1146) 
Trichilia claussenii

>  <collections>  (1146) 
Latin America dataset|NuBBEDB|WikiData Natural Products

>  <dois>  (1146) 
10.1590/S0103-50532002000300014

>  <synonyms>  (1146) 
Germacra-10(14)-en-15-acetate-911-diol

>  <cas>  (1146) 
nan

$$$$

     RDKit          2D

 45 47  0  0  0  0  0  0  0  0999 V2000
    3.4051   -7.1643    0.0000 C   0  0  0  0  0  0  0  0  0  0  0  0
    2.7218   -5.8290    0.0000 C   0  0  0  0  0  0  0  0  0  0  0  0
    1.2237   -5.7531    0.0000 O   0  0  0  0  0  0  0  0  0  0  0  0
    3.5365   -4.5696    0.0000 O   0  0  0  0  0  0  0  0  0  0  0  0
    2.8532   -3.2343    0.0000 C   0  0  0  0  0  0  0  0  0  0  0  0
    3.6680   -1.9748    0.0000 C   0  0  0  0  0  0  0  0  0  0  0  0
    5.1658   -1.8937    0.0000 C   0  0  0  0  0  0  0  0  0  0  0  0
    5.5515   -0.4442    0.0000 C   0  0  0  0  0  0  0  0  0  0  0  0
    4.2920    0.3706    0.0000 C   0  0  0  0  0  0  0  0  0  0  0  0
    4.0548    1.8517    0.0000 C   0  0  0  0  0  0  0  0  0  0  0  0
    5.2189    2.7977    0.0000 C   0  0  0  0  0  0  0  0  0  0  0  0
    6.6202    2.2626    0.0000 O   0  0  0  0  0  0  0  0  0  0  0  0
    4.9816    4.2789    0.0000 O   0  0  0  0  0  0  0  0  0  0  0  0
    2.6535    2.3868    0.0000 C   0  0  0  0  0  0  0  0  0  0  0  0
    2.4162    3.8679    0.0000 O   0  0  0  0  0  0  0  0  0  0  0  0
    1.0149    4.4031    0.0000 C   0  0  0  0  0  0  0  0  0  0  0  0
    0.7777    5.8842    0.0000 C   0  0  0  0  0  0  0  0  0  0  0  0
   -0.1491    3.4570    0.0000 O   0  0  0  0  0  0  0  0  0  0  0  0
    1.4894    1.4408    0.0000 O   0  0  0  0  0  0  0  0  0  0  0  0
    1.7267   -0.0403    0.0000 C   0  0  0  0  0  0  0  0  0  0  0  0
    0.5626   -0.9863    0.0000 O   0  0  0  0  0  0  0  0  0  0  0  0
   -0.8387   -0.4512    0.0000 C   0  0  0  0  0  0  0  0  0  0  0  0
   -1.0760    1.0299    0.0000 O   0  0  0  0  0  0  0  0  0  0  0  0
   -2.4773    1.5650    0.0000 C   0  0  0  0  0  0  0  0  0  0  0  0
   -2.7145    3.0461    0.0000 C   0  0  0  0  0  0  0  0  0  0  0  0
   -1.5504    3.9921    0.0000 O   0  0  0  0  0  0  0  0  0  0  0  0
   -1.7877    5.4733    0.0000 C   0  0  0  0  0  0  0  0  0  0  0  0
   -0.6236    6.4193    0.0000 C   0  0  0  0  0  0  0  0  0  0  0  0
   -3.1890    6.0084    0.0000 O   0  0  0  0  0  0  0  0  0  0  0  0
   -3.6413    0.6190    0.0000 C   0  0  0  0  0  0  0  0  0  0  0  0
   -5.0426    1.1541    0.0000 O   0  0  0  0  0  0  0  0  0  0  0  0
   -6.2067    0.2081    0.0000 C   0  0  0  0  0  0  0  0  0  0  0  0
   -7.6080    0.7432    0.0000 C   0  0  0  0  0  0  0  0  0  0  0  0
   -5.9695   -1.2731    0.0000 O   0  0  0  0  0  0  0  0  0  0  0  0
   -3.4041   -0.8621    0.0000 C   0  0  0  0  0  0  0  0  0  0  0  0
   -4.5682   -1.8082    0.0000 O   0  0  0  0  0  0  0  0  0  0  0  0
   -4.3309   -3.2893    0.0000 C   0  0  0  0  0  0  0  0  0  0  0  0
   -5.4950   -4.2353    0.0000 C   0  0  0  0  0  0  0  0  0  0  0  0
   -2.9296   -3.8244    0.0000 O   0  0  0  0  0  0  0  0  0  0  0  0
   -2.0028   -1.3972    0.0000 C   0  0  0  0  0  0  0  0  0  0  0  0
   -1.7655   -2.8784    0.0000 O   0  0  0  0  0  0  0  0  0  0  0  0
   -0.3642   -3.4135    0.0000 C   0  0  0  0  0  0  0  0  0  0  0  0
   -0.1270   -4.8946    0.0000 C   0  0  0  0  0  0  0  0  0  0  0  0
    0.7998   -2.4674    0.0000 O   0  0  0  0  0  0  0  0  0  0  0  0
    3.1280   -0.5754    0.0000 C   0  0  0  0  0  0  0  0  0  0  0  0
  1  2  1  0
  2  3  2  0
  2  4  1  0
  4  5  1  0
  6  5  1  6
  6  7  1  0
  7  8  2  0
  9  8  1  1
  9 10  1  0
 10 11  1  1
 11 12  2  0
 11 13  1  0
 10 14  1  0
 14 15  1  6
 15 16  1  0
 16 17  1  0
 16 18  2  0
 14 19  1  0
 19 20  1  0
 20 21  1  6
 22 21  1  1
 22 23  1  0
 23 24  1  0
 24 25  1  1
 25 26  1  0
 26 27  1  0
 27 28  1  0
 27 29  2  0
 24 30  1  0
 30 31  1  6
 31 32  1  0
 32 33  1  0
 32 34  2  0
 30 35  1  0
 35 36  1  1
 36 37  1  0
 37 38  1  0
 37 39  2  0
 35 40  1  0
 40 41  1  6
 41 42  1  0
 42 43  1  0
 42 44  2  0
 45 20  1  1
 45  6  1  0
 45  9  1  0
 40 22  1  0
M  END
>  <identifier>  (1147) 
CNP0080342.1

>  <canonical_smiles>  (1147) 
CC(=O)OC[C@H]1C=C[C@@H]2[C@H](C(=O)O)[C@@H](OC(C)=O)O[C@@H](O[C@@H]3O[C@H](COC(C)=O)[C@@H](OC(C)=O)[C@H](OC(C)=O)[C@H]3OC(C)=O)[C@@H]21

>  <standard_inchi>  (1147) 
InChI=1S/C28H36O17/c1-11(29)37-9-17-7-8-18-20(17)26(44-27(42-16(6)34)21(18)25(35)36)45-28-24(41-15(5)33)23(40-14(4)32)22(39-13(3)31)19(43-28)10-38-12(2)30/h7-8,17-24,26-28H,9-10H2,1-6H3,(H,35,36)/t17-,18+,19-,20-,21-,22-,23+,24-,26+,27+,28+/m1/s1

>  <standard_inchi_key>  (1147) 
JHEWUXPDJRGIHP-OGNDBQOMSA-N

>  <name>  (1147) 
nan

>  <iupac_name>  (1147) 
(1~{S},3~{R},4~{S},4~{a}~{S},7~{S},7~{a}~{S})-3-acetoxy-7-(acetoxymethyl)-1-[(2~{S},3~{R},4~{S},5~{R},6~{R})-3,4,5-triacetoxy-6-(acetoxymethyl)tetrahydropyran-2-yl]oxy-1,3,4,4~{a},7,7~{a}-hexahydrocyclopenta[c]pyran-4-carboxylic acid

>  <annotation_level>  (1147) 
5

>  <total_atom_count>  (1147) 
81

>  <heavy_atom_count>  (1147) 
45

>  <molecular_weight>  (1147) 
644.58

>  <exact_molecular_weight>  (1147) 
644.19525

>  <molecular_formula>  (1147) 
C28H36O17

>  <alogp>  (1147) 
0.01

>  <topological_polar_surface_area>  (1147) 
222.79

>  <rotatable_bond_count>  (1147) 
11

>  <hydrogen_bond_acceptors>  (1147) 
16

>  <hydrogen_bond_donors>  (1147) 
1

>  <hydrogen_bond_acceptors_lipinski>  (1147) 
16

>  <hydrogen_bond_donors_lipinski>  (1147) 
1

>  <lipinski_rule_of_five_violations>  (1147) 
2

>  <aromatic_rings_count>  (1147) 
0

>  <qed_drug_likeliness>  (1147) 
0.18

>  <formal_charge>  (1147) 
0

>  <fractioncsp3>  (1147) 
0.68

>  <number_of_minimal_rings>  (1147) 
3

>  <van_der_walls_volume>  (1147) 
550.64

>  <contains_sugar>  (1147) 
True

>  <contains_ring_sugars>  (1147) 
True

>  <contains_linear_sugars>  (1147) 
False

>  <murcko_framework>  (1147) 
O1CCCCC1OC2OCCC3C=CCC23

>  <np_likeness>  (1147) 
1.61

>  <chemical_class>  (1147) 
Prenol lipids

>  <chemical_sub_class>  (1147) 
Terpene glycosides

>  <chemical_super_class>  (1147) 
Lipids and lipid-like molecules

>  <direct_parent_classification>  (1147) 
Iridoid O-glycosides

>  <np_classifier_pathway>  (1147) 
Terpenoids

>  <np_classifier_superclass>  (1147) 
Monoterpenoids

>  <np_classifier_class>  (1147) 
Iridoids monoterpenoids

>  <np_classifier_is_glycoside>  (1147) 
True

>  <organisms>  (1147) 
Tocoyena formosa

>  <collections>  (1147) 
ChemSpider NPs|Latin America dataset|NuBBEDB|Super Natural II|WikiData Natural Products|ZINC NP

>  <dois>  (1147) 
10.1016/S0031-9422(97)00238-0

>  <synonyms>  (1147) 
Hexaacetate formosinoside derivative

>  <cas>  (1147) 
nan

$$$$

     RDKit          2D

 35 39  0  0  0  0  0  0  0  0999 V2000
    7.2061    0.1232    0.0000 C   0  0  0  0  0  0  0  0  0  0  0  0
    7.2837    1.6212    0.0000 C   0  0  0  0  0  0  0  0  0  0  0  0
    7.3613    3.1192    0.0000 C   0  0  0  0  0  0  0  0  0  0  0  0
    8.7817    1.5436    0.0000 O   0  0  0  0  0  0  0  0  0  0  0  0
    5.7857    1.6988    0.0000 C   0  0  0  0  0  0  0  0  0  0  0  0
    5.1039    3.0349    0.0000 O   0  0  0  0  0  0  0  0  0  0  0  0
    4.9695    0.4403    0.0000 C   0  0  0  0  0  0  0  0  0  0  0  0
    3.4716    0.3609    0.0000 C   0  0  0  0  0  0  0  0  0  0  0  0
    3.0842   -1.0882    0.0000 C   0  0  0  0  0  0  0  0  0  0  0  0
    1.6842   -1.6266    0.0000 C   0  0  0  0  0  0  0  0  0  0  0  0
    1.2968   -3.0757    0.0000 C   0  0  0  0  0  0  0  0  0  0  0  0
   -0.2011   -3.1551    0.0000 C   0  0  0  0  0  0  0  0  0  0  0  0
   -0.7395   -1.7550    0.0000 C   0  0  0  0  0  0  0  0  0  0  0  0
   -1.7995   -2.8163    0.0000 C   0  0  0  0  0  0  0  0  0  0  0  0
   -2.1402   -1.2183    0.0000 C   0  0  0  0  0  0  0  0  0  0  0  0
   -3.3053   -2.1630    0.0000 C   0  0  0  0  0  0  0  0  0  0  0  0
   -4.7060   -1.6263    0.0000 C   0  0  0  0  0  0  0  0  0  0  0  0
   -4.9416   -0.1449    0.0000 C   0  0  0  0  0  0  0  0  0  0  0  0
   -6.3423    0.3918    0.0000 C   0  0  0  0  0  0  0  0  0  0  0  0
   -7.8420    0.4171    0.0000 C   0  0  0  0  0  0  0  0  0  0  0  0
   -6.6276   -1.0808    0.0000 C   0  0  0  0  0  0  0  0  0  0  0  0
   -6.5778    1.8732    0.0000 C   0  0  0  0  0  0  0  0  0  0  0  0
   -7.9785    2.4099    0.0000 O   0  0  0  0  0  0  0  0  0  0  0  0
   -5.4126    2.8179    0.0000 C   0  0  0  0  0  0  0  0  0  0  0  0
   -4.0119    2.2812    0.0000 C   0  0  0  0  0  0  0  0  0  0  0  0
   -3.7764    0.7998    0.0000 C   0  0  0  0  0  0  0  0  0  0  0  0
   -2.6113    1.7445    0.0000 C   0  0  0  0  0  0  0  0  0  0  0  0
   -2.3757    0.2631    0.0000 C   0  0  0  0  0  0  0  0  0  0  0  0
   -1.2106    1.2077    0.0000 C   0  0  0  0  0  0  0  0  0  0  0  0
    0.1901    0.6710    0.0000 C   0  0  0  0  0  0  0  0  0  0  0  0
    0.4257   -0.8104    0.0000 C   0  0  0  0  0  0  0  0  0  0  0  0
    1.6832    0.0073    0.0000 C   0  0  0  0  0  0  0  0  0  0  0  0
    4.3427   -1.9044    0.0000 C   0  0  0  0  0  0  0  0  0  0  0  0
    4.4221   -3.4023    0.0000 O   0  0  0  0  0  0  0  0  0  0  0  0
    5.5079   -0.9597    0.0000 O   0  0  0  0  0  0  0  0  0  0  0  0
  1  2  1  0
  2  3  1  0
  2  4  1  0
  2  5  1  0
  5  6  1  0
  5  7  1  0
  7  8  1  0
  9  8  1  6
  9 10  1  0
 10 11  1  6
 11 12  1  0
 12 13  1  0
 13 14  1  1
 13 15  1  0
 15 16  2  0
 16 17  1  0
 18 17  1  1
 18 19  1  0
 19 20  1  0
 19 21  1  0
 19 22  1  0
 22 23  2  0
 22 24  1  0
 24 25  1  0
 25 26  1  0
 26 27  1  1
 26 28  1  0
 28 29  1  1
 29 30  1  0
 30 31  1  0
 31 32  1  6
  9 33  1  0
 33 34  1  1
 33 35  1  0
 35  7  1  0
 31 10  1  0
 31 13  1  0
 28 15  1  0
 26 18  1  0
M  END
>  <identifier>  (1148) 
CNP0281180.2

>  <canonical_smiles>  (1148) 
CC(C)(O)C(O)C1C[C@@H]([C@@H]2CC[C@]3(C)C4=CC[C@H]5C(C)(C)C(=O)CC[C@]5(C)[C@H]4CC[C@@]23C)[C@H](O)O1

>  <standard_inchi>  (1148) 
InChI=1S/C30H48O5/c1-26(2)22-9-8-20-19(28(22,5)13-12-23(26)31)11-15-29(6)18(10-14-30(20,29)7)17-16-21(35-25(17)33)24(32)27(3,4)34/h8,17-19,21-22,24-25,32-34H,9-16H2,1-7H3/t17-,18-,19-,21?,22-,24?,25+,28+,29-,30+/m0/s1

>  <standard_inchi_key>  (1148) 
AOVNJUKMQOLLCG-GRTZSQHXSA-N

>  <name>  (1148) 
nan

>  <iupac_name>  (1148) 
(5~{R},9~{R},10~{R},13~{S},14~{S},17~{S})-17-[(2~{R},3~{S})-5-(1,2-dihydroxy-2-methyl-propyl)-2-hydroxy-tetrahydrofuran-3-yl]-4,4,10,13,14-pentamethyl-1,2,5,6,9,11,12,15,16,17-decahydrocyclopenta[a]phenanthren-3-one

>  <annotation_level>  (1148) 
4

>  <total_atom_count>  (1148) 
83

>  <heavy_atom_count>  (1148) 
35

>  <molecular_weight>  (1148) 
488.71

>  <exact_molecular_weight>  (1148) 
488.35017

>  <molecular_formula>  (1148) 
C30H48O5

>  <alogp>  (1148) 
5.02

>  <topological_polar_surface_area>  (1148) 
86.99

>  <rotatable_bond_count>  (1148) 
3

>  <hydrogen_bond_acceptors>  (1148) 
5

>  <hydrogen_bond_donors>  (1148) 
3

>  <hydrogen_bond_acceptors_lipinski>  (1148) 
5

>  <hydrogen_bond_donors_lipinski>  (1148) 
3

>  <lipinski_rule_of_five_violations>  (1148) 
1

>  <aromatic_rings_count>  (1148) 
0

>  <qed_drug_likeliness>  (1148) 
0.49

>  <formal_charge>  (1148) 
0

>  <fractioncsp3>  (1148) 
0.90

>  <number_of_minimal_rings>  (1148) 
5

>  <van_der_walls_volume>  (1148) 
nan

>  <contains_sugar>  (1148) 
False

>  <contains_ring_sugars>  (1148) 
False

>  <contains_linear_sugars>  (1148) 
False

>  <murcko_framework>  (1148) 
O1CCC(C1)C2CCC3C4=CCC5CCCCC5C4CCC32

>  <np_likeness>  (1148) 
3.55

>  <chemical_class>  (1148) 
Steroids and steroid derivatives

>  <chemical_sub_class>  (1148) 
Bile acids, alcohols and derivatives

>  <chemical_super_class>  (1148) 
Lipids and lipid-like molecules

>  <direct_parent_classification>  (1148) 
Bile acids, alcohols and derivatives

>  <np_classifier_pathway>  (1148) 
Terpenoids

>  <np_classifier_superclass>  (1148) 
Triterpenoids

>  <np_classifier_class>  (1148) 
Lanostane, Tirucallane and Euphane triterpenoids

>  <np_classifier_is_glycoside>  (1148) 
True

>  <organisms>  (1148) 
Trichilia hirta

>  <collections>  (1148) 
Latin America dataset|NuBBEDB

>  <dois>  (1148) 
10.1016/0031-9422(92)90048-U

>  <synonyms>  (1148) 
melianodiol

>  <cas>  (1148) 
nan

$$$$

     RDKit          2D

 36 39  0  0  0  0  0  0  0  0999 V2000
   10.4997   -0.0164    0.0000 C   0  0  0  0  0  0  0  0  0  0  0  0
    9.1987   -0.7629    0.0000 C   0  0  0  0  0  0  0  0  0  0  0  0
    9.1947   -2.2629    0.0000 O   0  0  0  0  0  0  0  0  0  0  0  0
    7.9017   -0.0094    0.0000 O   0  0  0  0  0  0  0  0  0  0  0  0
    6.6006   -0.7559    0.0000 C   0  0  0  0  0  0  0  0  0  0  0  0
    5.3036   -0.0025    0.0000 C   0  0  0  0  0  0  0  0  0  0  0  0
    5.3076    1.4975    0.0000 O   0  0  0  0  0  0  0  0  0  0  0  0
    4.0026   -0.7490    0.0000 C   0  0  0  0  0  0  0  0  0  0  0  0
    2.7055    0.0045    0.0000 C   0  0  0  0  0  0  0  0  0  0  0  0
    2.5528    1.4967    0.0000 C   0  0  0  0  0  0  0  0  0  0  0  0
    1.0864    1.8125    0.0000 C   0  0  0  0  0  0  0  0  0  0  0  0
    0.4799    3.1845    0.0000 O   0  0  0  0  0  0  0  0  0  0  0  0
    0.3329    0.5155    0.0000 C   0  0  0  0  0  0  0  0  0  0  0  0
   -1.1352    0.2076    0.0000 C   0  0  0  0  0  0  0  0  0  0  0  0
   -0.6678    1.6329    0.0000 C   0  0  0  0  0  0  0  0  0  0  0  0
   -1.6025   -1.2178    0.0000 C   0  0  0  0  0  0  0  0  0  0  0  0
   -0.6018   -2.3352    0.0000 C   0  0  0  0  0  0  0  0  0  0  0  0
    0.8662   -2.0272    0.0000 C   0  0  0  0  0  0  0  0  0  0  0  0
    1.3336   -0.6019    0.0000 C   0  0  0  0  0  0  0  0  0  0  0  0
    2.4456   -1.6086    0.0000 C   0  0  0  0  0  0  0  0  0  0  0  0
   -3.0706   -1.5257    0.0000 C   0  0  0  0  0  0  0  0  0  0  0  0
   -2.0699   -2.6431    0.0000 C   0  0  0  0  0  0  0  0  0  0  0  0
   -3.5379   -2.9510    0.0000 C   0  0  0  0  0  0  0  0  0  0  0  0
   -5.0060   -3.2590    0.0000 C   0  0  0  0  0  0  0  0  0  0  0  0
   -6.0067   -2.1416    0.0000 C   0  0  0  0  0  0  0  0  0  0  0  0
   -7.4747   -2.4495    0.0000 O   0  0  0  0  0  0  0  0  0  0  0  0
   -5.5393   -0.7162    0.0000 C   0  0  0  0  0  0  0  0  0  0  0  0
   -5.5877    0.7830    0.0000 C   0  0  0  0  0  0  0  0  0  0  0  0
   -7.0242   -0.5035    0.0000 C   0  0  0  0  0  0  0  0  0  0  0  0
   -4.0713   -0.4083    0.0000 C   0  0  0  0  0  0  0  0  0  0  0  0
   -3.6039    1.0170    0.0000 C   0  0  0  0  0  0  0  0  0  0  0  0
   -2.1359    1.3250    0.0000 C   0  0  0  0  0  0  0  0  0  0  0  0
   -1.6685    2.7503    0.0000 O   0  0  0  0  0  0  0  0  0  0  0  0
   -2.6692    3.8677    0.0000 C   0  0  0  0  0  0  0  0  0  0  0  0
   -2.2019    5.2931    0.0000 C   0  0  0  0  0  0  0  0  0  0  0  0
   -4.1373    3.5598    0.0000 O   0  0  0  0  0  0  0  0  0  0  0  0
  1  2  1  0
  2  3  2  0
  2  4  1  0
  4  5  1  0
  5  6  1  0
  6  7  2  0
  6  8  1  0
  9  8  1  1
  9 10  1  0
 10 11  1  0
 11 12  2  0
 11 13  1  0
 13 14  1  0
 14 15  1  6
 14 16  1  0
 16 17  1  0
 17 18  1  0
 18 19  1  0
 19 20  1  1
 16 21  1  0
 21 22  1  6
 21 23  1  0
 23 24  2  0
 24 25  1  0
 25 26  2  0
 25 27  1  0
 27 28  1  0
 27 29  1  0
 27 30  1  0
 30 31  1  0
 31 32  1  0
 32 33  1  1
 33 34  1  0
 34 35  1  0
 34 36  2  0
 19  9  1  0
 30 21  1  0
 19 13  1  0
 32 14  1  0
M  END
>  <identifier>  (1149) 
CNP0385683.1

>  <canonical_smiles>  (1149) 
CC(=O)OCC(=O)C[C@@H]1CC(=O)C2[C@@]3(C)C(CC[C@]21C)[C@@]1(C)C=CC(=O)C(C)(C)C1C[C@H]3OC(C)=O

>  <standard_inchi>  (1149) 
InChI=1S/C29H40O7/c1-16(30)35-15-19(32)12-18-13-20(33)25-27(18,5)10-8-21-28(6)11-9-23(34)26(3,4)22(28)14-24(29(21,25)7)36-17(2)31/h9,11,18,21-22,24-25H,8,10,12-15H2,1-7H3/t18-,21?,22?,24-,25?,27+,28-,29+/m1/s1

>  <standard_inchi_key>  (1149) 
MBWZKRSAIUMOQI-VVGYIZNOSA-N

>  <name>  (1149) 
nan

>  <iupac_name>  (1149) 
[3-[(7~{R},8~{R},10~{R},13~{S},17~{S})-7-acetoxy-4,4,8,10,13-pentamethyl-3,15-dioxo-6,7,9,11,12,14,16,17-octahydro-5~{H}-cyclopenta[a]phenanthren-17-yl]-2-oxo-propyl] acetate

>  <annotation_level>  (1149) 
4

>  <total_atom_count>  (1149) 
76

>  <heavy_atom_count>  (1149) 
36

>  <molecular_weight>  (1149) 
500.63

>  <exact_molecular_weight>  (1149) 
500.2774

>  <molecular_formula>  (1149) 
C29H40O7

>  <alogp>  (1149) 
4.26

>  <topological_polar_surface_area>  (1149) 
103.81

>  <rotatable_bond_count>  (1149) 
5

>  <hydrogen_bond_acceptors>  (1149) 
7

>  <hydrogen_bond_donors>  (1149) 
0

>  <hydrogen_bond_acceptors_lipinski>  (1149) 
7

>  <hydrogen_bond_donors_lipinski>  (1149) 
0

>  <lipinski_rule_of_five_violations>  (1149) 
1

>  <aromatic_rings_count>  (1149) 
0

>  <qed_drug_likeliness>  (1149) 
0.52

>  <formal_charge>  (1149) 
0

>  <fractioncsp3>  (1149) 
0.76

>  <number_of_minimal_rings>  (1149) 
4

>  <van_der_walls_volume>  (1149) 
nan

>  <contains_sugar>  (1149) 
False

>  <contains_ring_sugars>  (1149) 
False

>  <contains_linear_sugars>  (1149) 
False

>  <murcko_framework>  (1149) 
C1=CC2C(CC1)CCC3C4CCCC4CCC23

>  <np_likeness>  (1149) 
2.58

>  <chemical_class>  (1149) 
Steroids and steroid derivatives

>  <chemical_sub_class>  (1149) 
Steroid esters

>  <chemical_super_class>  (1149) 
Lipids and lipid-like molecules

>  <direct_parent_classification>  (1149) 
Steroid esters

>  <np_classifier_pathway>  (1149) 
Terpenoids

>  <np_classifier_superclass>  (1149) 
Triterpenoids

>  <np_classifier_class>  (1149) 
Apotirucallane triterpenoids

>  <np_classifier_is_glycoside>  (1149) 
False

>  <organisms>  (1149) 
Trichilia|Trichilia estipulata

>  <collections>  (1149) 
Latin America dataset|NuBBEDB|WikiData Natural Products

>  <dois>  (1149) 
10.1016/S0031-9422(00)00298-3

>  <synonyms>  (1149) 
2124252627-pentanor-1522-oxo-7\u221a\u00e9\u00ac\u00b123-diacetate-apotirucalla(eupha)-1-en-3-one

>  <cas>  (1149) 
nan

$$$$

     RDKit          2D

 14 15  0  0  0  0  0  0  0  0999 V2000
   -4.0405    0.1006    0.0000 C   0  0  0  0  0  0  0  0  0  0  0  0
   -2.5801    0.4432    0.0000 C   0  0  0  0  0  0  0  0  0  0  0  0
   -2.1466    1.8792    0.0000 C   0  0  0  0  0  0  0  0  0  0  0  0
   -0.6862    2.2217    0.0000 C   0  0  0  0  0  0  0  0  0  0  0  0
    0.3406    1.1283    0.0000 C   0  0  0  0  0  0  0  0  0  0  0  0
    1.8010    1.4708    0.0000 C   0  0  0  0  0  0  0  0  0  0  0  0
    2.8278    0.3774    0.0000 C   0  0  0  0  0  0  0  0  0  0  0  0
    4.2882    0.7199    0.0000 C   0  0  0  0  0  0  0  0  0  0  0  0
    2.3943   -1.0586    0.0000 O   0  0  0  0  0  0  0  0  0  0  0  0
    0.9339   -1.4011    0.0000 C   0  0  0  0  0  0  0  0  0  0  0  0
    0.5004   -2.8371    0.0000 O   0  0  0  0  0  0  0  0  0  0  0  0
   -0.0929   -0.3077    0.0000 C   0  0  0  0  0  0  0  0  0  0  0  0
   -1.5533   -0.6503    0.0000 C   0  0  0  0  0  0  0  0  0  0  0  0
   -1.9868   -2.0862    0.0000 O   0  0  0  0  0  0  0  0  0  0  0  0
  1  2  1  0
  2  3  2  0
  3  4  1  0
  4  5  2  0
  5  6  1  0
  6  7  1  0
  7  8  1  1
  7  9  1  0
  9 10  1  0
 10 11  2  0
 10 12  1  0
 12 13  2  0
 13 14  1  0
 13  2  1  0
 12  5  1  0
M  END
>  <identifier>  (1150) 
CNP0295513.1

>  <canonical_smiles>  (1150) 
CC1=CC=C2C[C@@H](C)OC(=O)C2=C1O

>  <standard_inchi>  (1150) 
InChI=1S/C11H12O3/c1-6-3-4-8-5-7(2)14-11(13)9(8)10(6)12/h3-4,7,12H,5H2,1-2H3/t7-/m1/s1

>  <standard_inchi_key>  (1150) 
SLYRNFYMGDTQEZ-SSDOTTSWSA-N

>  <name>  (1150) 
(3R)-8-hydroxy-3,7-dimethyl-3,4-dihydroisochromen-1-one

>  <iupac_name>  (1150) 
(3~{R})-8-hydroxy-3,7-dimethyl-isochroman-1-one

>  <annotation_level>  (1150) 
5

>  <total_atom_count>  (1150) 
26

>  <heavy_atom_count>  (1150) 
14

>  <molecular_weight>  (1150) 
192.21

>  <exact_molecular_weight>  (1150) 
192.07864

>  <molecular_formula>  (1150) 
C11H12O3

>  <alogp>  (1150) 
1.80

>  <topological_polar_surface_area>  (1150) 
46.53

>  <rotatable_bond_count>  (1150) 
0

>  <hydrogen_bond_acceptors>  (1150) 
3

>  <hydrogen_bond_donors>  (1150) 
1

>  <hydrogen_bond_acceptors_lipinski>  (1150) 
3

>  <hydrogen_bond_donors_lipinski>  (1150) 
1

>  <lipinski_rule_of_five_violations>  (1150) 
0

>  <aromatic_rings_count>  (1150) 
1

>  <qed_drug_likeliness>  (1150) 
0.64

>  <formal_charge>  (1150) 
0

>  <fractioncsp3>  (1150) 
0.36

>  <number_of_minimal_rings>  (1150) 
2

>  <van_der_walls_volume>  (1150) 
nan

>  <contains_sugar>  (1150) 
False

>  <contains_ring_sugars>  (1150) 
False

>  <contains_linear_sugars>  (1150) 
False

>  <murcko_framework>  (1150) 
O1Cc2ccccc2CC1

>  <np_likeness>  (1150) 
1.46

>  <chemical_class>  (1150) 
Benzopyrans

>  <chemical_sub_class>  (1150) 
2-benzopyrans

>  <chemical_super_class>  (1150) 
Organoheterocyclic compounds

>  <direct_parent_classification>  (1150) 
2-benzopyrans

>  <np_classifier_pathway>  (1150) 
Shikimates and Phenylpropanoids

>  <np_classifier_superclass>  (1150) 
Coumarins

>  <np_classifier_class>  (1150) 
Isocoumarins

>  <np_classifier_is_glycoside>  (1150) 
False

>  <organisms>  (1150) 
Annulohypoxylon truncatum|Endlicheria sericea

>  <collections>  (1150) 
Latin America dataset|NPASS|NuBBEDB|WikiData Natural Products

>  <dois>  (1150) 
10.1016/S0031-9422(00)89350-4|10.1021/ACS.JNATPROD.6B00698|10.1021/acs.jnatprod.6b00698

>  <synonyms>  (1150) 
(3R)-8-Hydroxy-37-dimethyl-34-dihydroisocoumarin|CHEMBL4063100|SCHEMBL16870458

>  <cas>  (1150) 
nan

$$$$

     RDKit          2D

 32 35  0  0  0  0  0  0  0  0999 V2000
   -7.7427    2.7856    0.0000 C   0  0  0  0  0  0  0  0  0  0  0  0
   -7.2750    1.3604    0.0000 C   0  0  0  0  0  0  0  0  0  0  0  0
   -5.8068    1.0529    0.0000 C   0  0  0  0  0  0  0  0  0  0  0  0
   -5.3391   -0.3723    0.0000 C   0  0  0  0  0  0  0  0  0  0  0  0
   -3.8709   -0.6798    0.0000 C   0  0  0  0  0  0  0  0  0  0  0  0
   -3.4031   -2.1050    0.0000 C   0  0  0  0  0  0  0  0  0  0  0  0
   -4.4035   -3.2227    0.0000 C   0  0  0  0  0  0  0  0  0  0  0  0
   -1.9350   -2.4125    0.0000 C   0  0  0  0  0  0  0  0  0  0  0  0
   -1.3208   -3.7810    0.0000 C   0  0  0  0  0  0  0  0  0  0  0  0
    0.1705   -3.6197    0.0000 C   0  0  0  0  0  0  0  0  0  0  0  0
    0.4780   -2.1516    0.0000 C   0  0  0  0  0  0  0  0  0  0  0  0
    1.7748   -1.3977    0.0000 C   0  0  0  0  0  0  0  0  0  0  0  0
    3.0761   -2.1439    0.0000 C   0  0  0  0  0  0  0  0  0  0  0  0
    4.3729   -1.3900    0.0000 C   0  0  0  0  0  0  0  0  0  0  0  0
    5.6741   -2.1362    0.0000 O   0  0  0  0  0  0  0  0  0  0  0  0
    4.3684    0.1100    0.0000 C   0  0  0  0  0  0  0  0  0  0  0  0
    5.6697   -0.6362    0.0000 O   0  0  0  0  0  0  0  0  0  0  0  0
    5.6652    0.8638    0.0000 C   0  0  0  0  0  0  0  0  0  0  0  0
    5.6607    2.3638    0.0000 C   0  0  0  0  0  0  0  0  0  0  0  0
    6.9575    3.1177    0.0000 O   0  0  0  0  0  0  0  0  0  0  0  0
    4.3595    3.1100    0.0000 C   0  0  0  0  0  0  0  0  0  0  0  0
    3.0627    2.3561    0.0000 C   0  0  0  0  0  0  0  0  0  0  0  0
    3.0671    0.8561    0.0000 C   0  0  0  0  0  0  0  0  0  0  0  0
    1.7659    1.6022    0.0000 C   0  0  0  0  0  0  0  0  0  0  0  0
    1.7703    0.1022    0.0000 C   0  0  0  0  0  0  0  0  0  0  0  0
    0.4691    0.8484    0.0000 C   0  0  0  0  0  0  0  0  0  0  0  0
   -0.8277    0.0945    0.0000 C   0  0  0  0  0  0  0  0  0  0  0  0
   -0.8233   -1.4055    0.0000 C   0  0  0  0  0  0  0  0  0  0  0  0
   -2.1954   -0.7994    0.0000 C   0  0  0  0  0  0  0  0  0  0  0  0
   -4.8064    2.1706    0.0000 C   0  0  0  0  0  0  0  0  0  0  0  0
   -5.2742    3.5958    0.0000 C   0  0  0  0  0  0  0  0  0  0  0  0
   -3.3383    1.8631    0.0000 C   0  0  0  0  0  0  0  0  0  0  0  0
  1  2  1  0
  2  3  1  0
  3  4  1  0
  4  5  1  0
  5  6  1  0
  6  7  1  6
  6  8  1  0
  8  9  1  6
  9 10  1  0
 11 10  1  6
 11 12  1  0
 12 13  1  0
 13 14  1  0
 14 15  2  0
 14 16  1  0
 16 17  1  1
 16 18  1  0
 18 19  1  0
 19 20  1  0
 19 21  1  0
 21 22  1  0
 22 23  1  0
 23 24  1  6
 23 25  1  0
 25 26  1  6
 26 27  1  0
 27 28  1  0
 28 29  1  6
  3 30  1  0
 30 31  1  0
 30 32  1  0
 28  8  1  0
 28 11  1  0
 25 12  1  0
 23 16  1  0
M  END
>  <identifier>  (1151) 
CNP0274551.1

>  <canonical_smiles>  (1151) 
CCC(CC[C@@H](C)[C@H]1CC[C@H]2C3CC(=O)[C@@]4(O)CC(O)CC[C@]4(C)[C@H]3CC[C@]12C)C(C)C

>  <standard_inchi>  (1151) 
InChI=1S/C29H50O3/c1-7-20(18(2)3)9-8-19(4)23-10-11-24-22-16-26(31)29(32)17-21(30)12-15-28(29,6)25(22)13-14-27(23,24)5/h18-25,30,32H,7-17H2,1-6H3/t19-,20?,21?,22?,23-,24+,25+,27-,28-,29+/m1/s1

>  <standard_inchi_key>  (1151) 
PMNNRRLMGLZYLF-ZDGLOXDVSA-N

>  <name>  (1151) 
nan

>  <iupac_name>  (1151) 
(5~{R},9~{S},10~{R},13~{R},14~{S},17~{R})-17-[(1~{R})-4-ethyl-1,5-dimethyl-hexyl]-3,5-dihydroxy-10,13-dimethyl-2,3,4,7,8,9,11,12,14,15,16,17-dodecahydro-1~{H}-cyclopenta[a]phenanthren-6-one

>  <annotation_level>  (1151) 
4

>  <total_atom_count>  (1151) 
82

>  <heavy_atom_count>  (1151) 
32

>  <molecular_weight>  (1151) 
446.72

>  <exact_molecular_weight>  (1151) 
446.376

>  <molecular_formula>  (1151) 
C29H50O3

>  <alogp>  (1151) 
6.40

>  <topological_polar_surface_area>  (1151) 
57.53

>  <rotatable_bond_count>  (1151) 
6

>  <hydrogen_bond_acceptors>  (1151) 
3

>  <hydrogen_bond_donors>  (1151) 
2

>  <hydrogen_bond_acceptors_lipinski>  (1151) 
3

>  <hydrogen_bond_donors_lipinski>  (1151) 
2

>  <lipinski_rule_of_five_violations>  (1151) 
1

>  <aromatic_rings_count>  (1151) 
0

>  <qed_drug_likeliness>  (1151) 
0.50

>  <formal_charge>  (1151) 
0

>  <fractioncsp3>  (1151) 
0.97

>  <number_of_minimal_rings>  (1151) 
4

>  <van_der_walls_volume>  (1151) 
nan

>  <contains_sugar>  (1151) 
False

>  <contains_ring_sugars>  (1151) 
False

>  <contains_linear_sugars>  (1151) 
False

>  <murcko_framework>  (1151) 
C1CCC2C(C1)CCC3C4CCCC4CCC23

>  <np_likeness>  (1151) 
2.76

>  <chemical_class>  (1151) 
Steroids and steroid derivatives

>  <chemical_sub_class>  (1151) 
Stigmastanes and derivatives

>  <chemical_super_class>  (1151) 
Lipids and lipid-like molecules

>  <direct_parent_classification>  (1151) 
Stigmastanes and derivatives

>  <np_classifier_pathway>  (1151) 
Terpenoids

>  <np_classifier_superclass>  (1151) 
Steroids

>  <np_classifier_class>  (1151) 
Cholestane steroids

>  <np_classifier_is_glycoside>  (1151) 
False

>  <organisms>  (1151) 
Podocarpus lambereis

>  <collections>  (1151) 
Latin America dataset|NuBBEDB

>  <dois>  (1151) 
10.1016/0031-9422(75)85047-3

>  <synonyms>  (1151) 
3\u221a\u00e9\u00ac\u22645\u221a\u00e9\u00ac\u00b1-dihydroxy-6-stigmastanone

>  <cas>  (1151) 
nan

$$$$

     RDKit          2D

 27 30  0  0  0  0  0  0  0  0999 V2000
    3.1379    5.0690    0.0000 C   0  0  0  0  0  0  0  0  0  0  0  0
    3.2639    3.5743    0.0000 C   0  0  0  0  0  0  0  0  0  0  0  0
    2.0324    2.7179    0.0000 C   0  0  0  0  0  0  0  0  0  0  0  0
    2.1584    1.2232    0.0000 C   0  0  0  0  0  0  0  0  0  0  0  0
    3.5158    0.5849    0.0000 C   0  0  0  0  0  0  0  0  0  0  0  0
    3.6418   -0.9098    0.0000 C   0  0  0  0  0  0  0  0  0  0  0  0
    4.9992   -1.5480    0.0000 O   0  0  0  0  0  0  0  0  0  0  0  0
    5.1252   -3.0427    0.0000 C   0  0  0  0  0  0  0  0  0  0  0  0
    2.4103   -1.7662    0.0000 C   0  0  0  0  0  0  0  0  0  0  0  0
    2.5363   -3.2609    0.0000 O   0  0  0  0  0  0  0  0  0  0  0  0
    1.0529   -1.1280    0.0000 C   0  0  0  0  0  0  0  0  0  0  0  0
   -0.1786   -1.9844    0.0000 O   0  0  0  0  0  0  0  0  0  0  0  0
   -0.0526   -3.4791    0.0000 C   0  0  0  0  0  0  0  0  0  0  0  0
    0.9269    0.3667    0.0000 C   0  0  0  0  0  0  0  0  0  0  0  0
   -0.4305    1.0050    0.0000 O   0  0  0  0  0  0  0  0  0  0  0  0
    0.0319    0.0533    0.0000 C   0  0  0  0  0  0  0  0  0  0  0  0
   -1.4414   -0.2282    0.0000 C   0  0  0  0  0  0  0  0  0  0  0  0
   -1.9343   -1.6449    0.0000 C   0  0  0  0  0  0  0  0  0  0  0  0
   -3.4077   -1.9264    0.0000 C   0  0  0  0  0  0  0  0  0  0  0  0
   -4.3881   -0.7912    0.0000 C   0  0  0  0  0  0  0  0  0  0  0  0
   -5.8878   -0.7603    0.0000 O   0  0  0  0  0  0  0  0  0  0  0  0
   -6.3218    0.6756    0.0000 C   0  0  0  0  0  0  0  0  0  0  0  0
   -5.0903    1.5320    0.0000 O   0  0  0  0  0  0  0  0  0  0  0  0
   -3.8953    0.6255    0.0000 C   0  0  0  0  0  0  0  0  0  0  0  0
   -2.4219    0.9070    0.0000 C   0  0  0  0  0  0  0  0  0  0  0  0
    0.6702    1.4107    0.0000 C   0  0  0  0  0  0  0  0  0  0  0  0
   -0.0529    2.7250    0.0000 C   0  0  0  0  0  0  0  0  0  0  0  0
  1  2  2  0
  2  3  1  0
  4  3  1  1
  4  5  1  0
  5  6  2  0
  6  7  1  0
  7  8  1  0
  6  9  1  0
  9 10  1  1
  9 11  1  0
 11 12  1  1
 12 13  1  0
 11 14  1  0
 14 15  1  0
 11 16  1  0
 16 17  1  1
 17 18  2  0
 18 19  1  0
 19 20  2  0
 20 21  1  0
 21 22  1  0
 22 23  1  0
 23 24  1  0
 24 25  2  0
 16 26  1  0
 26 27  1  6
 14  4  1  0
 25 17  1  0
 26  4  1  0
 24 20  1  0
M  END
>  <identifier>  (1152) 
CNP0189154.2

>  <canonical_smiles>  (1152) 
C=CC[C@@]12C=C(OC)[C@@H](O)[C@@](OC)(C1O)[C@@H](C1=CC=C3OCOC3=C1)[C@@H]2C

>  <standard_inchi>  (1152) 
InChI=1S/C21H26O6/c1-5-8-20-10-16(24-3)18(22)21(25-4,19(20)23)17(12(20)2)13-6-7-14-15(9-13)27-11-26-14/h5-7,9-10,12,17-19,22-23H,1,8,11H2,2-4H3/t12-,17+,18+,19?,20-,21+/m0/s1

>  <standard_inchi_key>  (1152) 
UIDBVRIGTICCQN-QPRJAGOOSA-N

>  <name>  (1152) 
nan

>  <iupac_name>  (1152) 
(1~{S},2~{R},5~{R},6~{S},7~{R})-5-allyl-7-(1,3-benzodioxol-5-yl)-1,3-dimethoxy-6-methyl-bicyclo[3.2.1]oct-3-ene-2,8-diol

>  <annotation_level>  (1152) 
4

>  <total_atom_count>  (1152) 
53

>  <heavy_atom_count>  (1152) 
27

>  <molecular_weight>  (1152) 
374.43

>  <exact_molecular_weight>  (1152) 
374.17294

>  <molecular_formula>  (1152) 
C21H26O6

>  <alogp>  (1152) 
2.36

>  <topological_polar_surface_area>  (1152) 
77.38

>  <rotatable_bond_count>  (1152) 
5

>  <hydrogen_bond_acceptors>  (1152) 
6

>  <hydrogen_bond_donors>  (1152) 
2

>  <hydrogen_bond_acceptors_lipinski>  (1152) 
6

>  <hydrogen_bond_donors_lipinski>  (1152) 
2

>  <lipinski_rule_of_five_violations>  (1152) 
0

>  <aromatic_rings_count>  (1152) 
1

>  <qed_drug_likeliness>  (1152) 
0.77

>  <formal_charge>  (1152) 
0

>  <fractioncsp3>  (1152) 
0.52

>  <number_of_minimal_rings>  (1152) 
4

>  <van_der_walls_volume>  (1152) 
nan

>  <contains_sugar>  (1152) 
False

>  <contains_ring_sugars>  (1152) 
False

>  <contains_linear_sugars>  (1152) 
False

>  <murcko_framework>  (1152) 
O1c2ccc(cc2OC1)C3CC4C=CCC3C4

>  <np_likeness>  (1152) 
1.99

>  <chemical_class>  (1152) 
Benzodioxoles

>  <chemical_sub_class>  (1152) 
Benzodioxoles

>  <chemical_super_class>  (1152) 
Organoheterocyclic compounds

>  <direct_parent_classification>  (1152) 
Benzodioxoles

>  <np_classifier_pathway>  (1152) 
Shikimates and Phenylpropanoids

>  <np_classifier_superclass>  (1152) 
Lignans

>  <np_classifier_class>  (1152) 
Neolignans

>  <np_classifier_is_glycoside>  (1152) 
False

>  <organisms>  (1152) 
Ocotea catharinensis

>  <collections>  (1152) 
Latin America dataset|NuBBEDB|WikiData Natural Products

>  <dois>  (1152) 
10.1016/0031-9422(83)83046-5

>  <synonyms>  (1152) 
rel-(7R8S1'R2'R3'S4'R)-D-2'4'-Dihydroxy-3'5'-dimethoxy-34-methylenedioxy-1'2'3'4'-tetrahydro-73'81'-neolignan

>  <cas>  (1152) 
nan

$$$$

     RDKit          2D

 23 27  0  0  0  0  0  0  0  0999 V2000
   -3.6169    2.2343    0.0000 C   0  0  0  0  0  0  0  0  0  0  0  0
   -2.9977    0.8681    0.0000 C   0  0  0  0  0  0  0  0  0  0  0  0
   -2.0014    1.9894    0.0000 C   0  0  0  0  0  0  0  0  0  0  0  0
   -0.5322    1.6872    0.0000 C   0  0  0  0  0  0  0  0  0  0  0  0
   -0.0592    0.2637    0.0000 C   0  0  0  0  0  0  0  0  0  0  0  0
   -1.0556   -0.8576    0.0000 C   0  0  0  0  0  0  0  0  0  0  0  0
   -0.5826   -2.2811    0.0000 C   0  0  0  0  0  0  0  0  0  0  0  0
    0.8866   -2.5833    0.0000 C   0  0  0  0  0  0  0  0  0  0  0  0
    1.8829   -1.4620    0.0000 C   0  0  0  0  0  0  0  0  0  0  0  0
    3.3770   -1.5958    0.0000 C   0  0  0  0  0  0  0  0  0  0  0  0
    4.2398   -0.3688    0.0000 C   0  0  0  0  0  0  0  0  0  0  0  0
    5.7339   -0.5026    0.0000 O   0  0  0  0  0  0  0  0  0  0  0  0
    3.6087    0.9919    0.0000 C   0  0  0  0  0  0  0  0  0  0  0  0
    5.0979    1.1717    0.0000 O   0  0  0  0  0  0  0  0  0  0  0  0
    2.8788   -0.3185    0.0000 C   0  0  0  0  0  0  0  0  0  0  0  0
    1.4069   -0.0293    0.0000 C   0  0  0  0  0  0  0  0  0  0  0  0
    1.2272    1.4599    0.0000 C   0  0  0  0  0  0  0  0  0  0  0  0
    2.5880    2.0911    0.0000 O   0  0  0  0  0  0  0  0  0  0  0  0
   -2.5248   -0.5554    0.0000 C   0  0  0  0  0  0  0  0  0  0  0  0
   -3.7325   -1.4451    0.0000 C   0  0  0  0  0  0  0  0  0  0  0  0
   -4.9518   -0.5714    0.0000 C   0  0  0  0  0  0  0  0  0  0  0  0
   -6.3753   -1.0444    0.0000 O   0  0  0  0  0  0  0  0  0  0  0  0
   -4.4977    0.8582    0.0000 C   0  0  0  0  0  0  0  0  0  0  0  0
  2  1  1  6
  2  3  1  0
  3  4  1  0
  5  4  1  6
  5  6  1  0
  6  7  1  1
  7  8  1  0
  9  8  1  6
  9 10  1  0
 10 11  1  0
 11 12  1  1
 11 13  1  0
 13 14  1  1
 13 15  1  0
 15 16  1  0
 16 17  1  6
 17 18  1  0
  6 19  1  0
 19 20  1  6
 20 21  1  0
 21 22  2  0
 21 23  1  0
 19  2  1  0
 23  2  1  0
 16  5  1  0
 16  9  1  0
 18 13  1  0
M  END
>  <identifier>  (1153) 
CNP0198571.1

>  <canonical_smiles>  (1153) 
C[C@]12CC[C@H]3[C@@H](CC[C@H]4C[C@H](O)[C@]5(O)C[C@@]43CO5)[C@@H]1CC(=O)C2

>  <standard_inchi>  (1153) 
InChI=1S/C19H28O4/c1-17-5-4-14-13(15(17)7-12(20)8-17)3-2-11-6-16(21)19(22)9-18(11,14)10-23-19/h11,13-16,21-22H,2-10H2,1H3/t11-,13+,14-,15-,16-,17+,18+,19-/m0/s1

>  <standard_inchi_key>  (1153) 
ONICYSBMOZSVKS-DBZSEJJRSA-N

>  <name>  (1153) 
2a,3a-Dihydroxyandrostan-16-one

>  <iupac_name>  (1153) 
(1~{R},2~{S},5~{R},9~{S},10~{S},13~{S},15~{S},16~{S})-15,16-dihydroxy-5-methyl-17-oxapentacyclo[14.2.1.0^{1,13}.0^{2,10}.0^{5,9}]nonadecan-7-one

>  <annotation_level>  (1153) 
5

>  <total_atom_count>  (1153) 
51

>  <heavy_atom_count>  (1153) 
23

>  <molecular_weight>  (1153) 
320.43

>  <exact_molecular_weight>  (1153) 
320.19876

>  <molecular_formula>  (1153) 
C19H28O4

>  <alogp>  (1153) 
2.27

>  <topological_polar_surface_area>  (1153) 
66.76

>  <rotatable_bond_count>  (1153) 
0

>  <hydrogen_bond_acceptors>  (1153) 
4

>  <hydrogen_bond_donors>  (1153) 
2

>  <hydrogen_bond_acceptors_lipinski>  (1153) 
4

>  <hydrogen_bond_donors_lipinski>  (1153) 
2

>  <lipinski_rule_of_five_violations>  (1153) 
0

>  <aromatic_rings_count>  (1153) 
0

>  <qed_drug_likeliness>  (1153) 
0.72

>  <formal_charge>  (1153) 
0

>  <fractioncsp3>  (1153) 
0.95

>  <number_of_minimal_rings>  (1153) 
5

>  <van_der_walls_volume>  (1153) 
296.82

>  <contains_sugar>  (1153) 
False

>  <contains_ring_sugars>  (1153) 
False

>  <contains_linear_sugars>  (1153) 
False

>  <murcko_framework>  (1153) 
O1CC23CC1CCC3CCC4C5CCCC5CCC42

>  <np_likeness>  (1153) 
3.07

>  <chemical_class>  (1153) 
Steroids and steroid derivatives

>  <chemical_sub_class>  (1153) 
Oxosteroids

>  <chemical_super_class>  (1153) 
Lipids and lipid-like molecules

>  <direct_parent_classification>  (1153) 
16-oxosteroids

>  <np_classifier_pathway>  (1153) 
Terpenoids

>  <np_classifier_superclass>  (1153) 
Steroids

>  <np_classifier_class>  (1153) 
Androstane steroids

>  <np_classifier_is_glycoside>  (1153) 
True

>  <organisms>  (1153) 
Acer spicatum|Cephalaria procera|Citrus paradisi|Cytisus ciliatus|Diospyros maritima|Domohinea perrieri|Dracaena mannii|Helipterum propinquum|Limnodynastes interioris|Lobophytum denticulatum|Mannia fragrans|Mesua beccariana|Millettia pinnata|Nephthea armata|Parthenium bipinnatifidum|Pittosporum undulatum|Stephanitis rhododendri|Streptomyces luteosporeus|Trichilia claussenii

>  <collections>  (1153) 
CMAUP (cCollective molecular activities of useful plants)|Latin America dataset|NPASS|NuBBEDB|Super Natural II|WikiData Natural Products

>  <dois>  (1153) 
10.1016/S0031-9422(97)00167-2

>  <synonyms>  (1153) 
2\u221a\u00e9\u00ac\u00b13\u221a\u00e9\u00ac\u00b1-Dihydroxyandrostan-16-one 2\u221a\u00e9\u00ac\u226419-hemiketal

>  <cas>  (1153) 
nan

$$$$

     RDKit          2D

 22 25  0  0  0  0  0  0  0  0999 V2000
    7.6086   -1.2104    0.0000 C   0  0  0  0  0  0  0  0  0  0  0  0
    6.7110   -0.0086    0.0000 O   0  0  0  0  0  0  0  0  0  0  0  0
    5.2214   -0.1850    0.0000 C   0  0  0  0  0  0  0  0  0  0  0  0
    4.6294   -1.5632    0.0000 C   0  0  0  0  0  0  0  0  0  0  0  0
    3.1398   -1.7397    0.0000 C   0  0  0  0  0  0  0  0  0  0  0  0
    2.2422   -0.5379    0.0000 C   0  0  0  0  0  0  0  0  0  0  0  0
    0.7527   -0.7143    0.0000 C   0  0  0  0  0  0  0  0  0  0  0  0
   -0.1449    0.4874    0.0000 C   0  0  0  0  0  0  0  0  0  0  0  0
    0.4470    1.8657    0.0000 N   0  0  0  0  0  0  0  0  0  0  0  0
   -0.4506    3.0675    0.0000 C   0  0  0  0  0  0  0  0  0  0  0  0
   -1.9401    2.8910    0.0000 C   0  0  0  0  0  0  0  0  0  0  0  0
   -2.5321    1.5128    0.0000 C   0  0  0  0  0  0  0  0  0  0  0  0
   -4.0217    1.3363    0.0000 C   0  0  0  0  0  0  0  0  0  0  0  0
   -4.6137   -0.0419    0.0000 C   0  0  0  0  0  0  0  0  0  0  0  0
   -3.7161   -1.2437    0.0000 C   0  0  0  0  0  0  0  0  0  0  0  0
   -2.2265   -1.0672    0.0000 C   0  0  0  0  0  0  0  0  0  0  0  0
   -1.6345    0.3110    0.0000 C   0  0  0  0  0  0  0  0  0  0  0  0
   -4.5817   -2.4687    0.0000 O   0  0  0  0  0  0  0  0  0  0  0  0
   -6.0143   -2.0241    0.0000 C   0  0  0  0  0  0  0  0  0  0  0  0
   -6.0340   -0.5242    0.0000 O   0  0  0  0  0  0  0  0  0  0  0  0
    2.8342    0.8403    0.0000 C   0  0  0  0  0  0  0  0  0  0  0  0
    4.3238    1.0168    0.0000 C   0  0  0  0  0  0  0  0  0  0  0  0
  1  2  1  0
  2  3  1  0
  3  4  2  0
  4  5  1  0
  5  6  2  0
  6  7  1  0
  7  8  1  0
  8  9  2  0
  9 10  1  0
 10 11  2  0
 11 12  1  0
 12 13  2  0
 13 14  1  0
 14 15  2  0
 15 16  1  0
 16 17  2  0
 15 18  1  0
 18 19  1  0
 19 20  1  0
  6 21  1  0
 21 22  2  0
 22  3  1  0
 17  8  1  0
 17 12  1  0
 20 14  1  0
M  END
>  <identifier>  (1154) 
CNP0232323.0

>  <canonical_smiles>  (1154) 
COC1=CC=C(CC2=NC=CC3=CC4=C(C=C23)OCO4)C=C1

>  <standard_inchi>  (1154) 
InChI=1S/C18H15NO3/c1-20-14-4-2-12(3-5-14)8-16-15-10-18-17(21-11-22-18)9-13(15)6-7-19-16/h2-7,9-10H,8,11H2,1H3

>  <standard_inchi_key>  (1154) 
SJQUHHVDBQGYPL-UHFFFAOYSA-N

>  <name>  (1154) 
55857-56-2

>  <iupac_name>  (1154) 
5-[(4-methoxyphenyl)methyl]-[1,3]dioxolo[4,5-g]isoquinoline

>  <annotation_level>  (1154) 
5

>  <total_atom_count>  (1154) 
37

>  <heavy_atom_count>  (1154) 
22

>  <molecular_weight>  (1154) 
293.32

>  <exact_molecular_weight>  (1154) 
293.10519

>  <molecular_formula>  (1154) 
C18H15NO3

>  <alogp>  (1154) 
3.56

>  <topological_polar_surface_area>  (1154) 
40.58

>  <rotatable_bond_count>  (1154) 
3

>  <hydrogen_bond_acceptors>  (1154) 
4

>  <hydrogen_bond_donors>  (1154) 
0

>  <hydrogen_bond_acceptors_lipinski>  (1154) 
4

>  <hydrogen_bond_donors_lipinski>  (1154) 
0

>  <lipinski_rule_of_five_violations>  (1154) 
0

>  <aromatic_rings_count>  (1154) 
3

>  <qed_drug_likeliness>  (1154) 
0.74

>  <formal_charge>  (1154) 
0

>  <fractioncsp3>  (1154) 
0.17

>  <number_of_minimal_rings>  (1154) 
4

>  <van_der_walls_volume>  (1154) 
nan

>  <contains_sugar>  (1154) 
False

>  <contains_ring_sugars>  (1154) 
False

>  <contains_linear_sugars>  (1154) 
False

>  <murcko_framework>  (1154) 
n1ccc2cc3OCOc3cc2c1Cc4ccccc4

>  <np_likeness>  (1154) 
0.12

>  <chemical_class>  (1154) 
Isoquinolines and derivatives

>  <chemical_sub_class>  (1154) 
Benzylisoquinolines

>  <chemical_super_class>  (1154) 
Organoheterocyclic compounds

>  <direct_parent_classification>  (1154) 
Benzylisoquinolines

>  <np_classifier_pathway>  (1154) 
Alkaloids

>  <np_classifier_superclass>  (1154) 
Tyrosine alkaloids

>  <np_classifier_class>  (1154) 
Isoquinoline alkaloids

>  <np_classifier_is_glycoside>  (1154) 
False

>  <organisms>  (1154) 
Ocotea|Ocotea sp

>  <collections>  (1154) 
Latin America dataset|NuBBEDB|Super Natural II|UNPD (Universal Natural Products Database)|WikiData Natural Products|ZINC NP

>  <dois>  (1154) 
10.1016/0031-9422(75)85390-8

>  <synonyms>  (1154) 
1,3-Dioxolo(4,5-g)isoquinoline, 5-((4-methoxyphenyl)methyl)-|1-(4-Methoxybenzyl)-6,7-methylenedioxyisoquinoline|5-(4-Methoxybenzyl)-[1,3]dioxolo[4,5-g]isoquinoline|5-[(4-methoxyphenyl)methyl]-[1,3]dioxolo[4,5-g]isoquinoline|DTXSID30204453|InChI=1\/C18H15NO3\/c1-20-14-4-2-12(3-5-14)8-16-15-10-18-17(21-11-22-18)9-13(15)6-7-19-16\/h2-7,9-10H,8,11H2,1H|SCHEMBL1445581

>  <cas>  (1154) 
nan

$$$$

     RDKit          2D

 20 22  0  0  0  0  0  0  0  0999 V2000
    4.1436   -2.1657    0.0000 C   0  0  0  0  0  0  0  0  0  0  0  0
    4.4985   -0.7083    0.0000 C   0  0  0  0  0  0  0  0  0  0  0  0
    3.4137    0.3277    0.0000 C   0  0  0  0  0  0  0  0  0  0  0  0
    4.6224    1.2161    0.0000 C   0  0  0  0  0  0  0  0  0  0  0  0
    2.5818   -0.9205    0.0000 C   0  0  0  0  0  0  0  0  0  0  0  0
    1.0849   -0.8241    0.0000 C   0  0  0  0  0  0  0  0  0  0  0  0
    0.2530   -2.0723    0.0000 C   0  0  0  0  0  0  0  0  0  0  0  0
   -1.2439   -1.9759    0.0000 C   0  0  0  0  0  0  0  0  0  0  0  0
   -1.9089   -0.6314    0.0000 C   0  0  0  0  0  0  0  0  0  0  0  0
   -3.4058   -0.5350    0.0000 C   0  0  0  0  0  0  0  0  0  0  0  0
   -4.8454   -0.9564    0.0000 C   0  0  0  0  0  0  0  0  0  0  0  0
   -3.2408   -2.0259    0.0000 C   0  0  0  0  0  0  0  0  0  0  0  0
   -4.0708    0.8096    0.0000 C   0  0  0  0  0  0  0  0  0  0  0  0
   -3.2389    2.0577    0.0000 C   0  0  0  0  0  0  0  0  0  0  0  0
   -1.7420    1.9613    0.0000 C   0  0  0  0  0  0  0  0  0  0  0  0
   -1.0770    0.6168    0.0000 C   0  0  0  0  0  0  0  0  0  0  0  0
   -0.2451    1.8650    0.0000 C   0  0  0  0  0  0  0  0  0  0  0  0
    0.4199    0.5204    0.0000 C   0  0  0  0  0  0  0  0  0  0  0  0
    1.2518    1.7686    0.0000 C   0  0  0  0  0  0  0  0  0  0  0  0
    2.7487    1.6722    0.0000 C   0  0  0  0  0  0  0  0  0  0  0  0
  1  2  2  0
  2  3  1  0
  3  4  1  1
  3  5  1  0
  5  6  2  0
  6  7  1  0
  7  8  1  0
  9  8  1  1
  9 10  1  0
 10 11  1  0
 10 12  1  0
 10 13  1  0
 13 14  1  0
 14 15  1  0
 15 16  1  0
 16 17  1  1
 16 18  1  0
 18 19  1  1
 19 20  1  0
 20  3  1  0
 18  6  1  0
 16  9  1  0
M  END
>  <identifier>  (1155) 
CNP0176003.2

>  <canonical_smiles>  (1155) 
C=C[C@]1(C)C=C2CC[C@H]3C(C)(C)CCC[C@]3(C)[C@H]2CC1

>  <standard_inchi>  (1155) 
InChI=1S/C20H32/c1-6-19(4)13-10-16-15(14-19)8-9-17-18(2,3)11-7-12-20(16,17)5/h6,14,16-17H,1,7-13H2,2-5H3/t16-,17-,19-,20+/m0/s1

>  <standard_inchi_key>  (1155) 
XDSYKASBVOZOAG-QGZVKYPTSA-N

>  <name>  (1155) 
Sandaracopimaradiene

>  <iupac_name>  (1155) 
(4~{a}~{S},4~{b}~{S},7~{R},10~{a}~{S})-1,1,4~{a},7-tetramethyl-7-vinyl-3,4,4~{b},5,6,9,10,10~{a}-octahydro-2~{H}-phenanthrene

>  <annotation_level>  (1155) 
5

>  <total_atom_count>  (1155) 
52

>  <heavy_atom_count>  (1155) 
20

>  <molecular_weight>  (1155) 
272.48

>  <exact_molecular_weight>  (1155) 
272.2504

>  <molecular_formula>  (1155) 
C20H32

>  <alogp>  (1155) 
6.14

>  <topological_polar_surface_area>  (1155) 
0.00

>  <rotatable_bond_count>  (1155) 
1

>  <hydrogen_bond_acceptors>  (1155) 
0

>  <hydrogen_bond_donors>  (1155) 
0

>  <hydrogen_bond_acceptors_lipinski>  (1155) 
0

>  <hydrogen_bond_donors_lipinski>  (1155) 
0

>  <lipinski_rule_of_five_violations>  (1155) 
1

>  <aromatic_rings_count>  (1155) 
0

>  <qed_drug_likeliness>  (1155) 
0.50

>  <formal_charge>  (1155) 
0

>  <fractioncsp3>  (1155) 
0.80

>  <number_of_minimal_rings>  (1155) 
3

>  <van_der_walls_volume>  (1155) 
293.35

>  <contains_sugar>  (1155) 
False

>  <contains_ring_sugars>  (1155) 
False

>  <contains_linear_sugars>  (1155) 
False

>  <murcko_framework>  (1155) 
C1=C2CCC3CCCCC3C2CCC1

>  <np_likeness>  (1155) 
3.42

>  <chemical_class>  (1155) 
Prenol lipids

>  <chemical_sub_class>  (1155) 
Diterpenoids

>  <chemical_super_class>  (1155) 
Lipids and lipid-like molecules

>  <direct_parent_classification>  (1155) 
Diterpenoids

>  <np_classifier_pathway>  (1155) 
Terpenoids

>  <np_classifier_superclass>  (1155) 
Diterpenoids

>  <np_classifier_class>  (1155) 
Pimarane and Isopimarane diterpenoids

>  <np_classifier_is_glycoside>  (1155) 
False

>  <organisms>  (1155) 
Acronychia haplophylla|Alligator sinensis|Amauris niavius|Ammodendron karelinii|Amphibolis antarctica|Anacyclus pyrethrum|Aplysilla pallida|Araucaria columnaris|Araucaria excelsa|Arnica chamissonis|Artemisia annua|Ascotricha chartarum|Aster tataricus|Brachylaena perrieri|Buglossoides arvensis|Cetraria komarovii|Cinnamomum sieboldii|Cistus creticus|Crinum giganteum|Croton cortesianus|Culcitium canescens|Cuscuta australis|Cutaneotrichosporon cutaneum|Dendrobium officinale|Dendrodoris limbata|Diaporthe amygdali|Diplotropis ferruginea|Diselma archeri|Elettaria cardamomum|Erigeron sumatrensis|Eucalyptus viminalis|Euphrasia regelii|Halocarpus biformis|Hortonia angustifolia|Humicola grisea|Julbernardia globifera|Juniperus brevifolia|Kaempferia galanga|Kaempferia marginata|Lagarostrobos franklinii|Laggera pterodonta|Lemmaphyllum microphyllum|Leonurus heterophyllus|Litsea laurifolia|Macaranga indica|Manoao colensoi|Medicosma fareana|Mentha sylvestris|Microcachrys tetragona|Miliusa balansae|Mimusops laurifolia|Myrrhis odorata|Ophiomastix mixta|Oryza sativa|Oscillatoria raoi|Othonna macrophylla|Pentachondra pumila|Phagnalon rupestre|Phaseolus atropurpureus|Phlomis ostrowskiana|Phlox decussata|Pholiota nameko|Phoma linga|Phyllocladus aspleniifolius|Piliostigma thonningii|Pilocarpus jaborandi|Pilocarpus pauciflorus|Pimpinella peregrina|Pinus monticola|Pinus nigra|Pinus pallasiana|Pinus sylvestris var. hamata|Podocarpus dispermus|Podocarpus drouynianus|Podocarpus elatus|Podocarpus grayae|Podocarpus lawrencei|Podocarpus smithii|Podocarpus spinulosus|Premna schimperi|Prumnopitys andina|Prumnopitys ferruginoides|Prumnopitys taxifolia|Salix petiolaris|Salvia lanigera|Salvia mellifera|Salvia parryi|Salvia pisidica|Sarcococca coriacea|Scutellaria baicalensis|Scymnorhinus lichia|Senecio subrubriflorus|Sequoiadendron giganteum|Solanum crinitum|Spongia zimocca|Stemodia viscosa|Thujopsis dolabrata|Tubifera ferruginosa|Tubocapsicum anomalum|Uncaria longiflora|Uperoleia inundata|Ursinia speciosa|Vitis heyneana|Xylia xylocarpa

>  <collections>  (1155) 
Australian natural products|CMAUP (cCollective molecular activities of useful plants)|CMNPD|FooDB|KNApSaCK|Latin America dataset|NPASS|NuBBEDB|Super Natural II|WikiData Natural Products

>  <dois>  (1155) 
10.1002/(SICI)1099-1565(200003/04)11:2<99::AID-PCA494>3.0.CO;2-9|10.1002/FFJ.2730030204|10.1007/BF00570687|10.1007/BF00581596|10.1007/S11418-006-0112-9|10.1016/0031-9422(86)88017-7|10.1016/0031-9422(90)80178-J|10.1016/0305-1978(95)00104-2|10.1016/J.PHYTOCHEM.2007.07.026|10.1016/J.PHYTOCHEM.2009.06.013|10.1016/J.PHYTOL.2010.04.002|10.1016/S0031-9422(00)82471-1|10.1016/S0031-9422(00)83165-9|10.1016/S0031-9422(00)97558-7|10.1016/S0031-9422(82)85042-5|10.1016/S0031-9422(96)00807-2|10.1016/S0040-4020(01)80415-4|10.1016/s0031-9422(00)82471-1|10.1021/NP050186L|10.1021/NP50006A014|10.1021/np50006a014|10.1039/J39670000300|10.1039/JR9630000644|10.1039/np9860300001|10.1042/BJ20101429|10.1080/10412905.1994.9699344|10.1080/10412905.2003.9712124|10.1080/10412905.2004.9698737|10.1155/2017/7436259|10.1248/CPB.37.1140|10.1248/YAKUSHI1947.106.1_17|10.1271/BBB.68.1574

>  <synonyms>  (1155) 
(+)-isopimara-8,15-diene|(-)-8(14),15-isopimaradiene|(-)-sandaracopimaradiene|(13alpha)-pimara-8(14),15-diene|(4aS,4bS,7R,10aS)-1,1,4a,7-tetramethyl-7-vinyl-1,2,3,4,4a,4b,5,6,7,9,10,10a-dodecahydrophenanthrene|(4aS,4bS,7R,10aS)-7-Ethenyl-1,2,3,4,4a,4b,5,6,7,9,10,10a-dodecahydro-1,1,4a,7-tetramethylphenanthrene|(4aS,4bS,7R,10aS)-7-ethenyl-1,1,4a,7-tetramethyl-3,4,4b,5,6,9,10,10a-octahydro-2H-phenanthrene|15-isopimaradiene|1686-56-2|8(14),15-Isopimaradiene|BDBM50576413|CHEBI:63708|CHEMBL4863718|DTXSID101315308|LMPR0104080001|Phenanthrene, 7-ethenyl-1,2,3,4,4a,4b,5,6,7,9,10,10a-dodecahydro-1,1,4a,7-tetramethyl-, (4aS,4bS,7R,10aS)|Podocarp-8(14)-ene, 13beta-methyl-13-vinyl-|Q27132746|SANDARACOPIMARADIENE,(-)|Sandaracopimaradiene, (-)|UNII-YAV5JM7M39|YAV5JM7M39|ent-Sandaracopimaradiene|isopimara-8(14)15-diene|sandaracopimara-8(14),15-diene

>  <cas>  (1155) 
1686-56-2

$$$$

     RDKit          2D

 33 37  0  0  0  0  0  0  0  0999 V2000
    2.0552   -5.4194    0.0000 C   0  0  0  0  0  0  0  0  0  0  0  0
    2.3486   -3.9484    0.0000 C   0  0  0  0  0  0  0  0  0  0  0  0
    3.7692   -3.4670    0.0000 O   0  0  0  0  0  0  0  0  0  0  0  0
    1.2213   -2.9588    0.0000 O   0  0  0  0  0  0  0  0  0  0  0  0
    1.5148   -1.4878    0.0000 C   0  0  0  0  0  0  0  0  0  0  0  0
    2.9354   -1.0064    0.0000 C   0  0  0  0  0  0  0  0  0  0  0  0
    3.2288    0.4647    0.0000 C   0  0  0  0  0  0  0  0  0  0  0  0
    4.6495    0.9461    0.0000 C   0  0  0  0  0  0  0  0  0  0  0  0
    6.1491    0.9126    0.0000 C   0  0  0  0  0  0  0  0  0  0  0  0
    4.8769   -0.5366    0.0000 C   0  0  0  0  0  0  0  0  0  0  0  0
    4.9429    2.4171    0.0000 C   0  0  0  0  0  0  0  0  0  0  0  0
    6.3635    2.8985    0.0000 O   0  0  0  0  0  0  0  0  0  0  0  0
    3.8157    3.4067    0.0000 C   0  0  0  0  0  0  0  0  0  0  0  0
    2.3950    2.9253    0.0000 C   0  0  0  0  0  0  0  0  0  0  0  0
    2.1016    1.4543    0.0000 C   0  0  0  0  0  0  0  0  0  0  0  0
    0.9743    2.4439    0.0000 C   0  0  0  0  0  0  0  0  0  0  0  0
    0.6809    0.9729    0.0000 C   0  0  0  0  0  0  0  0  0  0  0  0
   -0.4463    1.9625    0.0000 C   0  0  0  0  0  0  0  0  0  0  0  0
   -1.8670    1.4811    0.0000 C   0  0  0  0  0  0  0  0  0  0  0  0
   -2.1604    0.0101    0.0000 C   0  0  0  0  0  0  0  0  0  0  0  0
   -3.3849    0.8764    0.0000 C   0  0  0  0  0  0  0  0  0  0  0  0
   -1.0331   -0.9796    0.0000 C   0  0  0  0  0  0  0  0  0  0  0  0
   -1.6260   -2.3574    0.0000 C   0  0  0  0  0  0  0  0  0  0  0  0
   -3.1196   -2.2194    0.0000 C   0  0  0  0  0  0  0  0  0  0  0  0
   -3.4499   -0.7562    0.0000 C   0  0  0  0  0  0  0  0  0  0  0  0
   -4.8278   -0.1633    0.0000 C   0  0  0  0  0  0  0  0  0  0  0  0
   -6.1173   -0.9296    0.0000 C   0  0  0  0  0  0  0  0  0  0  0  0
   -7.2445    0.0600    0.0000 O   0  0  0  0  0  0  0  0  0  0  0  0
   -6.6517    1.4379    0.0000 C   0  0  0  0  0  0  0  0  0  0  0  0
   -7.4179    2.7274    0.0000 O   0  0  0  0  0  0  0  0  0  0  0  0
   -5.1580    1.2998    0.0000 C   0  0  0  0  0  0  0  0  0  0  0  0
    0.3875   -0.4981    0.0000 C   0  0  0  0  0  0  0  0  0  0  0  0
    0.0941   -1.9692    0.0000 C   0  0  0  0  0  0  0  0  0  0  0  0
  1  2  1  0
  2  3  2  0
  2  4  1  0
  5  4  1  1
  5  6  1  0
  7  6  1  6
  7  8  1  0
  8  9  1  0
  8 10  1  0
  8 11  1  0
 11 12  2  0
 11 13  1  0
 13 14  2  0
 14 15  1  0
 15 16  1  6
 15 17  1  0
 17 18  1  6
 18 19  1  0
 19 20  1  0
 20 21  1  1
 20 22  1  0
 22 23  2  0
 23 24  1  0
 25 24  1  1
 25 26  1  0
 26 27  1  1
 27 28  1  0
 28 29  1  0
 29 30  2  0
 29 31  1  0
 22 32  1  0
 32 33  1  6
 32  5  1  0
 15  7  1  0
 32 17  1  0
 25 20  1  0
 31 26  1  0
M  END
>  <identifier>  (1156) 
CNP0143905.1

>  <canonical_smiles>  (1156) 
CC(=O)O[C@@H]1C[C@H]2C(C)(C)C(=O)C=C[C@]2(C)[C@H]2CC[C@]3(C)C(=CC[C@H]3[C@H]3COC(=O)C3)[C@@]21C

>  <standard_inchi>  (1156) 
InChI=1S/C28H38O5/c1-16(29)33-23-14-21-25(2,3)22(30)10-12-27(21,5)20-9-11-26(4)18(17-13-24(31)32-15-17)7-8-19(26)28(20,23)6/h8,10,12,17-18,20-21,23H,7,9,11,13-15H2,1-6H3/t17-,18+,20-,21+,23-,26+,27-,28+/m1/s1

>  <standard_inchi_key>  (1156) 
LXNMRBHGHQWYSQ-PLNCUQKMSA-N

>  <name>  (1156) 
Chisocheton compound F

>  <iupac_name>  (1156) 
[(5~{R},7~{R},8~{R},9~{R},10~{R},13~{S},17~{S})-4,4,8,10,13-pentamethyl-3-oxo-17-[(3~{S})-5-oxotetrahydrofuran-3-yl]-5,6,7,9,11,12,16,17-octahydrocyclopenta[a]phenanthren-7-yl] acetate

>  <annotation_level>  (1156) 
5

>  <total_atom_count>  (1156) 
71

>  <heavy_atom_count>  (1156) 
33

>  <molecular_weight>  (1156) 
454.61

>  <exact_molecular_weight>  (1156) 
454.27192

>  <molecular_formula>  (1156) 
C28H38O5

>  <alogp>  (1156) 
5.04

>  <topological_polar_surface_area>  (1156) 
69.67

>  <rotatable_bond_count>  (1156) 
2

>  <hydrogen_bond_acceptors>  (1156) 
5

>  <hydrogen_bond_donors>  (1156) 
0

>  <hydrogen_bond_acceptors_lipinski>  (1156) 
5

>  <hydrogen_bond_donors_lipinski>  (1156) 
0

>  <lipinski_rule_of_five_violations>  (1156) 
1

>  <aromatic_rings_count>  (1156) 
0

>  <qed_drug_likeliness>  (1156) 
0.43

>  <formal_charge>  (1156) 
0

>  <fractioncsp3>  (1156) 
0.75

>  <number_of_minimal_rings>  (1156) 
5

>  <van_der_walls_volume>  (1156) 
431.15

>  <contains_sugar>  (1156) 
False

>  <contains_ring_sugars>  (1156) 
False

>  <contains_linear_sugars>  (1156) 
False

>  <murcko_framework>  (1156) 
O1CCC(C1)C2CC=C3C2CCC4C3CCC5CCC=CC54

>  <np_likeness>  (1156) 
3.49

>  <chemical_class>  (1156) 
Steroids and steroid derivatives

>  <chemical_sub_class>  (1156) 
Oxosteroids

>  <chemical_super_class>  (1156) 
Lipids and lipid-like molecules

>  <direct_parent_classification>  (1156) 
Oxosteroids

>  <np_classifier_pathway>  (1156) 
Terpenoids

>  <np_classifier_superclass>  (1156) 
Triterpenoids

>  <np_classifier_class>  (1156) 
Apotirucallane triterpenoids

>  <np_classifier_is_glycoside>  (1156) 
False

>  <organisms>  (1156) 
Azadirachta indica|Cedrela fissilis|Cedrela odorata|Chisocheton pentandrus|Eurycoma longifolia|Xylocarpus Granatum|Xylocarpus granatum

>  <collections>  (1156) 
CMAUP (cCollective molecular activities of useful plants)|ChEBI NPs|KNApSaCK|Latin America dataset|NPASS|NuBBEDB|Super Natural II|VietHerb|WikiData Natural Products

>  <dois>  (1156) 
10.1016/S0031-9422(00)89645-4|10.1016/S0031-9422(96)00747-9|10.1021/NP100783K|10.1021/NP900640U|10.1021/acs.jnatprod.5b00153|10.1021/np100783k|10.1055/S-0028-1088323|10.1055/s-0028-1088323

>  <synonyms>  (1156) 
(5I+\/-,7I+\/-,13I+\/-,17I+\/-,20S)-7-(Acetyloxy)-4,4,8-trimethyl-3-oxocarda-1,14-dienolide|(5alpha,7alpha,13alpha,17alpha,20S)-7-(acetyloxy)-4,4,8-trimethyl-3-oxocarda-1,14-dienolide|157376-71-1|20,21,22,23-Tetrahydro-23-oxoazadirone|BDBM50090908|CHEBI:67291|CHEMBL1774404|CS-0637256|Chisocheton F|DTXSID701142921|HY-N10858|Q27135750

>  <cas>  (1156) 
157376-71-1

$$$$

     RDKit          2D

 32 34  0  0  0  0  0  0  0  0999 V2000
   -5.1462   -2.9662    0.0000 C   0  0  0  0  0  0  0  0  0  0  0  0
   -3.9871   -2.0141    0.0000 C   0  0  0  0  0  0  0  0  0  0  0  0
   -4.2320   -0.5343    0.0000 O   0  0  0  0  0  0  0  0  0  0  0  0
   -2.5830   -2.5419    0.0000 O   0  0  0  0  0  0  0  0  0  0  0  0
   -1.4239   -1.5898    0.0000 C   0  0  0  0  0  0  0  0  0  0  0  0
   -1.6688   -0.1100    0.0000 C   0  0  0  0  0  0  0  0  0  0  0  0
   -3.0729    0.4178    0.0000 C   0  0  0  0  0  0  0  0  0  0  0  0
   -3.3179    1.8977    0.0000 C   0  0  0  0  0  0  0  0  0  0  0  0
   -4.7220    2.4254    0.0000 C   0  0  0  0  0  0  0  0  0  0  0  0
   -4.9670    3.9053    0.0000 C   0  0  0  0  0  0  0  0  0  0  0  0
   -6.3711    4.4331    0.0000 C   0  0  0  0  0  0  0  0  0  0  0  0
   -7.5302    3.4810    0.0000 C   0  0  0  0  0  0  0  0  0  0  0  0
   -7.2852    2.0011    0.0000 C   0  0  0  0  0  0  0  0  0  0  0  0
   -5.8811    1.4733    0.0000 C   0  0  0  0  0  0  0  0  0  0  0  0
   -0.5097    0.8421    0.0000 O   0  0  0  0  0  0  0  0  0  0  0  0
    0.8944    0.3143    0.0000 C   0  0  0  0  0  0  0  0  0  0  0  0
    2.0535    1.2664    0.0000 C   0  0  0  0  0  0  0  0  0  0  0  0
    3.4575    0.7387    0.0000 C   0  0  0  0  0  0  0  0  0  0  0  0
    4.6167    1.6908    0.0000 C   0  0  0  0  0  0  0  0  0  0  0  0
    6.0207    1.1630    0.0000 C   0  0  0  0  0  0  0  0  0  0  0  0
    6.2657   -0.3169    0.0000 C   0  0  0  0  0  0  0  0  0  0  0  0
    7.6698   -0.8447    0.0000 C   0  0  0  0  0  0  0  0  0  0  0  0
    8.8289    0.1074    0.0000 C   0  0  0  0  0  0  0  0  0  0  0  0
    8.5839    1.5873    0.0000 C   0  0  0  0  0  0  0  0  0  0  0  0
    9.7430    2.5394    0.0000 O   0  0  0  0  0  0  0  0  0  0  0  0
    7.1798    2.1151    0.0000 O   0  0  0  0  0  0  0  0  0  0  0  0
    1.1393   -1.1655    0.0000 C   0  0  0  0  0  0  0  0  0  0  0  0
   -0.0198   -2.1176    0.0000 C   0  0  0  0  0  0  0  0  0  0  0  0
    0.2252   -3.5975    0.0000 O   0  0  0  0  0  0  0  0  0  0  0  0
   -0.9339   -4.5495    0.0000 C   0  0  0  0  0  0  0  0  0  0  0  0
   -0.6889   -6.0294    0.0000 C   0  0  0  0  0  0  0  0  0  0  0  0
   -2.3380   -4.0218    0.0000 O   0  0  0  0  0  0  0  0  0  0  0  0
  1  2  1  0
  2  3  2  0
  2  4  1  0
  5  4  1  6
  5  6  1  0
  6  7  1  1
  7  8  2  0
  8  9  1  0
  9 10  2  0
 10 11  1  0
 11 12  2  0
 12 13  1  0
 13 14  2  0
  6 15  1  0
 15 16  1  0
 16 17  1  1
 17 18  1  0
 18 19  2  0
 20 19  1  6
 20 21  1  0
 21 22  1  0
 22 23  2  0
 23 24  1  0
 24 25  2  0
 24 26  1  0
 16 27  1  0
 27 28  1  0
 28 29  1  1
 29 30  1  0
 30 31  1  0
 30 32  2  0
 28  5  1  0
 14  9  1  0
 26 20  1  0
M  END
>  <identifier>  (1157) 
CNP0080433.1

>  <canonical_smiles>  (1157) 
CC(=O)O[C@@H]1[C@@H](/C=C/C2=CC=CC=C2)O[C@@H](C/C=C/[C@H]2CC=CC(=O)O2)C[C@H]1OC(C)=O

>  <standard_inchi>  (1157) 
InChI=1S/C25H28O7/c1-17(26)29-23-16-21(12-6-10-20-11-7-13-24(28)32-20)31-22(25(23)30-18(2)27)15-14-19-8-4-3-5-9-19/h3-10,13-15,20-23,25H,11-12,16H2,1-2H3/b10-6+,15-14+/t20-,21-,22+,23+,25+/m0/s1

>  <standard_inchi_key>  (1157) 
BZDVLYSISKBBJQ-AIZKODKSSA-N

>  <name>  (1157) 
nan

>  <iupac_name>  (1157) 
[(2~{R},3~{S},4~{R},6~{S})-3-acetoxy-6-[(~{E})-3-[(2~{R})-6-oxo-2,3-dihydropyran-2-yl]allyl]-2-[(~{E})-styryl]tetrahydropyran-4-yl] acetate

>  <annotation_level>  (1157) 
5

>  <total_atom_count>  (1157) 
60

>  <heavy_atom_count>  (1157) 
32

>  <molecular_weight>  (1157) 
440.49

>  <exact_molecular_weight>  (1157) 
440.1835

>  <molecular_formula>  (1157) 
C25H28O7

>  <alogp>  (1157) 
3.54

>  <topological_polar_surface_area>  (1157) 
88.13

>  <rotatable_bond_count>  (1157) 
7

>  <hydrogen_bond_acceptors>  (1157) 
7

>  <hydrogen_bond_donors>  (1157) 
0

>  <hydrogen_bond_acceptors_lipinski>  (1157) 
7

>  <hydrogen_bond_donors_lipinski>  (1157) 
0

>  <lipinski_rule_of_five_violations>  (1157) 
0

>  <aromatic_rings_count>  (1157) 
1

>  <qed_drug_likeliness>  (1157) 
0.36

>  <formal_charge>  (1157) 
0

>  <fractioncsp3>  (1157) 
0.40

>  <number_of_minimal_rings>  (1157) 
3

>  <van_der_walls_volume>  (1157) 
404.82

>  <contains_sugar>  (1157) 
False

>  <contains_ring_sugars>  (1157) 
False

>  <contains_linear_sugars>  (1157) 
False

>  <murcko_framework>  (1157) 
O1CC=CCC1C=CCC2OC(C=Cc3ccccc3)CCC2

>  <np_likeness>  (1157) 
2.54

>  <chemical_class>  (1157) 
Carboxylic acids and derivatives

>  <chemical_sub_class>  (1157) 
Tricarboxylic acids and derivatives

>  <chemical_super_class>  (1157) 
Organic acids and derivatives

>  <direct_parent_classification>  (1157) 
Tricarboxylic acids and derivatives

>  <np_classifier_pathway>  (1157) 
Shikimates and Phenylpropanoids

>  <np_classifier_superclass>  (1157) 
Styrylpyrones

>  <np_classifier_class>  (1157) 
Kavalactones and derivatives

>  <np_classifier_is_glycoside>  (1157) 
False

>  <organisms>  (1157) 
Cryptocarya moschata

>  <collections>  (1157) 
ChemSpider NPs|Latin America dataset|NuBBEDB|WikiData Natural Products

>  <dois>  (1157) 
10.1016/S0031-9422(99)00532-4

>  <synonyms>  (1157) 
Cryptopyranmoscatone B1 diacetate

>  <cas>  (1157) 
nan

$$$$

     RDKit          2D

 23 25  0  0  0  0  0  0  0  0999 V2000
   -6.7844    0.3407    0.0000 C   0  0  0  0  0  0  0  0  0  0  0  0
   -5.8182   -0.8067    0.0000 O   0  0  0  0  0  0  0  0  0  0  0  0
   -4.3415   -0.5437    0.0000 C   0  0  0  0  0  0  0  0  0  0  0  0
   -3.8309    0.8667    0.0000 C   0  0  0  0  0  0  0  0  0  0  0  0
   -4.7970    2.0141    0.0000 O   0  0  0  0  0  0  0  0  0  0  0  0
   -2.3541    1.1297    0.0000 C   0  0  0  0  0  0  0  0  0  0  0  0
   -1.3880   -0.0177    0.0000 C   0  0  0  0  0  0  0  0  0  0  0  0
    0.0888    0.2453    0.0000 C   0  0  0  0  0  0  0  0  0  0  0  0
    1.0550   -0.9021    0.0000 O   0  0  0  0  0  0  0  0  0  0  0  0
    2.5317   -0.6391    0.0000 C   0  0  0  0  0  0  0  0  0  0  0  0
    3.4979   -1.7865    0.0000 C   0  0  0  0  0  0  0  0  0  0  0  0
    4.9746   -1.5235    0.0000 C   0  0  0  0  0  0  0  0  0  0  0  0
    5.9408   -2.6709    0.0000 O   0  0  0  0  0  0  0  0  0  0  0  0
    5.4852   -0.1131    0.0000 C   0  0  0  0  0  0  0  0  0  0  0  0
    4.5191    1.0343    0.0000 C   0  0  0  0  0  0  0  0  0  0  0  0
    5.0297    2.4447    0.0000 O   0  0  0  0  0  0  0  0  0  0  0  0
    3.0423    0.7713    0.0000 C   0  0  0  0  0  0  0  0  0  0  0  0
    2.0762    1.9187    0.0000 C   0  0  0  0  0  0  0  0  0  0  0  0
    0.5994    1.6557    0.0000 C   0  0  0  0  0  0  0  0  0  0  0  0
   -0.3667    2.8031    0.0000 O   0  0  0  0  0  0  0  0  0  0  0  0
   -1.8986   -1.4281    0.0000 C   0  0  0  0  0  0  0  0  0  0  0  0
   -3.3753   -1.6911    0.0000 C   0  0  0  0  0  0  0  0  0  0  0  0
   -3.8859   -3.1016    0.0000 O   0  0  0  0  0  0  0  0  0  0  0  0
  1  2  1  0
  2  3  1  0
  3  4  2  0
  4  5  1  0
  4  6  1  0
  6  7  2  0
  8  7  1  6
  8  9  1  0
  9 10  1  0
 10 11  2  0
 11 12  1  0
 12 13  1  0
 12 14  2  0
 14 15  1  0
 15 16  1  0
 15 17  2  0
 17 18  1  0
 18 19  1  0
 19 20  1  6
  7 21  1  0
 21 22  2  0
 22 23  1  0
 22  3  1  0
 19  8  1  0
 17 10  1  0
M  END
>  <identifier>  (1158) 
CNP0164561.1

>  <canonical_smiles>  (1158) 
COC1=C(O)C=C([C@H]2OC3=CC(O)=CC(O)=C3C[C@H]2O)C=C1O

>  <standard_inchi>  (1158) 
InChI=1S/C16H16O7/c1-22-16-11(19)2-7(3-12(16)20)15-13(21)6-9-10(18)4-8(17)5-14(9)23-15/h2-5,13,15,17-21H,6H2,1H3/t13-,15-/m1/s1

>  <standard_inchi_key>  (1158) 
ITDYPNOEEHONAH-UKRRQHHQSA-N

>  <name>  (1158) 
4'-Methyl-epigallocatechin

>  <iupac_name>  (1158) 
(2~{R},3~{R})-2-(3,5-dihydroxy-4-methoxy-phenyl)chromane-3,5,7-triol

>  <annotation_level>  (1158) 
5

>  <total_atom_count>  (1158) 
39

>  <heavy_atom_count>  (1158) 
23

>  <molecular_weight>  (1158) 
320.3

>  <exact_molecular_weight>  (1158) 
320.0896

>  <molecular_formula>  (1158) 
C16H16O7

>  <alogp>  (1158) 
1.55

>  <topological_polar_surface_area>  (1158) 
119.61

>  <rotatable_bond_count>  (1158) 
2

>  <hydrogen_bond_acceptors>  (1158) 
7

>  <hydrogen_bond_donors>  (1158) 
5

>  <hydrogen_bond_acceptors_lipinski>  (1158) 
7

>  <hydrogen_bond_donors_lipinski>  (1158) 
5

>  <lipinski_rule_of_five_violations>  (1158) 
0

>  <aromatic_rings_count>  (1158) 
2

>  <qed_drug_likeliness>  (1158) 
0.57

>  <formal_charge>  (1158) 
0

>  <fractioncsp3>  (1158) 
0.25

>  <number_of_minimal_rings>  (1158) 
3

>  <van_der_walls_volume>  (1158) 
270.23

>  <contains_sugar>  (1158) 
False

>  <contains_ring_sugars>  (1158) 
False

>  <contains_linear_sugars>  (1158) 
False

>  <murcko_framework>  (1158) 
O1c2ccccc2CCC1c3ccccc3

>  <np_likeness>  (1158) 
2.23

>  <chemical_class>  (1158) 
Flavonoids

>  <chemical_sub_class>  (1158) 
Flavans

>  <chemical_super_class>  (1158) 
Phenylpropanoids and polyketides

>  <direct_parent_classification>  (1158) 
Epigallocatechins

>  <np_classifier_pathway>  (1158) 
Shikimates and Phenylpropanoids

>  <np_classifier_superclass>  (1158) 
Flavonoids

>  <np_classifier_class>  (1158) 
Flavan-3-ols

>  <np_classifier_is_glycoside>  (1158) 
False

>  <organisms>  (1158) 
Arabidopsis thaliana|Crossopetalum gaumeri|Elaeodendron balae|Elaeodendron croceum|Elaeodendron glaucum|Elaeodendron schlechteranum|Flemingia macrophylla|Gymnosporia heterophylla|Heisteria pallida|Helionides oblonga|Kokoona zeylanica|Lepidium sativum|Maytenus heterophylla|Maytenus laevis|Maytenus rigida|Monteverdia aquifolium|Monteverdia laevis|Monteverdia rigida|Ouratea sp.|Ovophis okinavensis|Parapiptadenia rigida|Prionostemma aspera|Pterogyne nitens|Ramalina stenospora|Salacia oblonga|Vantanea peruviana

>  <collections>  (1158) 
ANPDB|AfroCancer|Australian natural products|CMAUP (cCollective molecular activities of useful plants)|ChEBI NPs|ChemSpider NPs|ConMedNP|FooDB|KNApSaCK|Latin America dataset|NANPDB (Natural Products from Northern African Sources)|NAPRORE-CR|NPASS|NPEdia|NuBBEDB|Phenol-explorer|Super Natural II|WikiData Natural Products|ZINC NP

>  <dois>  (1158) 
10.1007/s13197-017-3031-8|10.1016/0031-9422(93)85252-M|10.1016/J.FITOTE.2007.02.017|10.1016/J.JHAZMAT.2018.11.065|10.1016/S0031-9422(00)00144-8|10.1016/S0031-9422(00)83129-5|10.1016/S0031-9422(00)88977-3|10.1016/S0031-9422(01)00277-1|10.1016/S0031-9422(97)00243-4|10.1016/j.jep.2010.03.034|10.1021/NP040006S|10.1021/NP100523S|10.1021/np040006s|10.1021/np100523s|10.1055/S-2006-957506|10.1248/CPB.47.1725|10.1590/S0100-40422008000400018

>  <synonyms>  (1158) 
(-)-4'-Methylepigallocatechin|(2R,3R)-2-(3,5-dihydroxy-4-methoxyphenyl)-3,4-dihydro-2H-chromene-3,5,7-triol|17291-05-3|2-(3,5-Dihydroxy-4-methoxyphenyl)-3,4-dihydro-2H-1-benzopyran-3,5,7-triol|2H-1-Benzopyran-3,5,7-triol, 2-(3,5-dihydroxy-4-methoxyphenyl)-3,4-dihydro-, (2R,3R)-|3,3',5,5',7-Flavanpentol, 4'-methoxy-, (-)-|4'-Methyl-(-)-epigallocatechin|4'-O-Methyl-(-)-Epi-Gallocatechin|4'-O-Methyl-epi-gallocatechin|BDBM50260057|CHEBI:70253|CHEMBL485460|DTXSID00938238|LMPK12020134|Ouratea catechin|Ouratea-Catechin|Q27138593|SCHEMBL13099972|UNII-WM87TQ077U|WM87TQ077U

>  <cas>  (1158) 
17291-05-3

$$$$

     RDKit          2D

 22 25  0  0  0  0  0  0  0  0999 V2000
    4.5260   -2.2853    0.0000 C   0  0  0  0  0  0  0  0  0  0  0  0
    3.9724   -0.8912    0.0000 O   0  0  0  0  0  0  0  0  0  0  0  0
    2.4883   -0.6735    0.0000 C   0  0  0  0  0  0  0  0  0  0  0  0
    1.5577   -1.8500    0.0000 C   0  0  0  0  0  0  0  0  0  0  0  0
    0.0736   -1.6324    0.0000 C   0  0  0  0  0  0  0  0  0  0  0  0
   -0.4800   -0.2382    0.0000 C   0  0  0  0  0  0  0  0  0  0  0  0
    0.4506    0.9382    0.0000 C   0  0  0  0  0  0  0  0  0  0  0  0
    1.9347    0.7206    0.0000 C   0  0  0  0  0  0  0  0  0  0  0  0
    2.8653    1.8971    0.0000 O   0  0  0  0  0  0  0  0  0  0  0  0
    4.3494    1.6794    0.0000 C   0  0  0  0  0  0  0  0  0  0  0  0
   -1.9641   -0.0206    0.0000 C   0  0  0  0  0  0  0  0  0  0  0  0
   -0.8551    0.6577    0.0000 C   0  0  0  0  0  0  0  0  0  0  0  0
   -0.5001    1.3747    0.0000 C   0  0  0  0  0  0  0  0  0  0  0  0
    1.6954    1.5150    0.0000 O   0  0  0  0  0  0  0  0  0  0  0  0
   -0.9435    2.0406    0.0000 C   0  0  0  0  0  0  0  0  0  0  0  0
   -1.7419    1.9895    0.0000 C   0  0  0  0  0  0  0  0  0  0  0  0
   -2.7954    1.2279    0.0000 C   0  0  0  0  0  0  0  0  0  0  0  0
   -4.2398    0.8231    0.0000 C   0  0  0  0  0  0  0  0  0  0  0  0
   -4.3011   -0.6756    0.0000 C   0  0  0  0  0  0  0  0  0  0  0  0
   -2.8946   -1.1971    0.0000 N   0  0  0  0  0  0  0  0  0  0  0  0
   -2.3411   -2.5912    0.0000 C   0  0  0  0  0  0  0  0  0  0  0  0
   -0.8569   -2.8088    0.0000 C   0  0  0  0  0  0  0  0  0  0  0  0
  1  2  1  0
  2  3  1  0
  3  4  2  0
  4  5  1  0
  5  6  2  0
  6  7  1  0
  7  8  2  0
  8  9  1  0
  9 10  1  0
  6 11  1  0
 11 12  1  6
 12 13  1  0
 13 14  1  6
 13 15  1  0
 15 16  2  0
 16 17  1  0
 17 18  2  0
 18 19  1  0
 19 20  1  0
 20 21  1  0
 21 22  1  0
  8  3  1  0
 17 11  1  0
 22  5  1  0
 20 11  1  0
M  END
>  <identifier>  (1159) 
CNP0330944.1

>  <canonical_smiles>  (1159) 
COC1=CC2=C(C=C1OC)[C@]13C[C@@H](O)C=CC1=CCN3CC2

>  <standard_inchi>  (1159) 
InChI=1S/C18H21NO3/c1-21-16-9-12-5-7-19-8-6-13-3-4-14(20)11-18(13,19)15(12)10-17(16)22-2/h3-4,6,9-10,14,20H,5,7-8,11H2,1-2H3/t14-,18-/m0/s1

>  <standard_inchi_key>  (1159) 
JEBFJSHKHYDVNP-KSSFIOAISA-N

>  <name>  (1159) 
Erythravine

>  <iupac_name>  (1159) 
(2~{R},13~{b}~{S})-11,12-dimethoxy-2,6,8,9-tetrahydro-1~{H}-indolo[7~{a},1-a]isoquinolin-2-ol

>  <annotation_level>  (1159) 
5

>  <total_atom_count>  (1159) 
43

>  <heavy_atom_count>  (1159) 
22

>  <molecular_weight>  (1159) 
299.37

>  <exact_molecular_weight>  (1159) 
299.15214

>  <molecular_formula>  (1159) 
C18H21NO3

>  <alogp>  (1159) 
2.02

>  <topological_polar_surface_area>  (1159) 
41.93

>  <rotatable_bond_count>  (1159) 
2

>  <hydrogen_bond_acceptors>  (1159) 
4

>  <hydrogen_bond_donors>  (1159) 
1

>  <hydrogen_bond_acceptors_lipinski>  (1159) 
4

>  <hydrogen_bond_donors_lipinski>  (1159) 
1

>  <lipinski_rule_of_five_violations>  (1159) 
0

>  <aromatic_rings_count>  (1159) 
1

>  <qed_drug_likeliness>  (1159) 
0.91

>  <formal_charge>  (1159) 
0

>  <fractioncsp3>  (1159) 
0.44

>  <number_of_minimal_rings>  (1159) 
4

>  <van_der_walls_volume>  (1159) 
275.83

>  <contains_sugar>  (1159) 
False

>  <contains_ring_sugars>  (1159) 
False

>  <contains_linear_sugars>  (1159) 
False

>  <murcko_framework>  (1159) 
c1ccc2c(c1)CCN3CC=C4C=CCCC423

>  <np_likeness>  (1159) 
2.43

>  <chemical_class>  (1159) 
Erythrina alkaloids

>  <chemical_sub_class>  (1159) 
Erythrinanes

>  <chemical_super_class>  (1159) 
Alkaloids and derivatives

>  <direct_parent_classification>  (1159) 
Erythrinanes

>  <np_classifier_pathway>  (1159) 
Alkaloids

>  <np_classifier_superclass>  (1159) 
Lysine alkaloids

>  <np_classifier_class>  (1159) 
Indolizidine alkaloids

>  <np_classifier_is_glycoside>  (1159) 
False

>  <organisms>  (1159) 
Erythrina cochleata|Erythrina folkersii|Erythrina lysistemon|Erythrina mulungu|Erythrina variegata

>  <collections>  (1159) 
ChemSpider NPs|KNApSaCK|Latin America dataset|NPASS|NuBBEDB|Super Natural II|WikiData Natural Products

>  <dois>  (1159) 
10.1002/OMR.1270210110|10.1016/S0031-9422(00)82559-5|10.1021/NP060254J|10.1021/NP50073A014|10.1021/np060254j

>  <synonyms>  (1159) 
(+)-erythravine|(2R,13bS)-11,12-dimethoxy-2,6,8,9-tetrahydro-1H-indolo[7a,1-a]isoquinolin-2-ol|(3alpha)-15,16-Dimethoxy-1,2,6,7-tetradehydroerythrinan-3-ol|(9bS,11R)-4,5,10,11-Tetrahydro-7,8-dimethoxy-2H-indolo(7a,1-a)isoquinolin-11-ol|19373-79-6|1H-Indolo(7a,1-a)isoquinoline, erythrinan-3-ol deriv.|CHEMBL218381|DTXSID301027523|ERYTHRINAN-3-OL, 1,2,6,7-TETRADEHYDRO-15,16-DIMETHOXY-, (3.BETA.)-|Erythrinan-3-ol, 1,2,6,7-tetradehydro-15,16-dimethoxy-, (3beta)-|HMX9ZLU64X|Q5396402|SCHEMBL14071720|UNII-HMX9ZLU64X

>  <cas>  (1159) 
19373-79-6

$$$$

     RDKit          2D

 22 23  0  0  0  0  0  0  0  0999 V2000
   -6.8751    1.6128    0.0000 C   0  0  0  0  0  0  0  0  0  0  0  0
   -5.3758    1.6605    0.0000 O   0  0  0  0  0  0  0  0  0  0  0  0
   -4.5849    0.3859    0.0000 C   0  0  0  0  0  0  0  0  0  0  0  0
   -5.2933   -0.9363    0.0000 O   0  0  0  0  0  0  0  0  0  0  0  0
   -3.0857    0.4336    0.0000 C   0  0  0  0  0  0  0  0  0  0  0  0
   -2.2948   -0.8410    0.0000 C   0  0  0  0  0  0  0  0  0  0  0  0
   -0.7956   -0.7933    0.0000 C   0  0  0  0  0  0  0  0  0  0  0  0
   -0.0047   -2.0678    0.0000 C   0  0  0  0  0  0  0  0  0  0  0  0
   -0.7130   -3.3901    0.0000 O   0  0  0  0  0  0  0  0  0  0  0  0
    0.0779   -4.6646    0.0000 C   0  0  0  0  0  0  0  0  0  0  0  0
    1.4946   -2.0202    0.0000 C   0  0  0  0  0  0  0  0  0  0  0  0
    2.2029   -0.6980    0.0000 C   0  0  0  0  0  0  0  0  0  0  0  0
    3.7022   -0.6503    0.0000 O   0  0  0  0  0  0  0  0  0  0  0  0
    4.4105    0.6719    0.0000 C   0  0  0  0  0  0  0  0  0  0  0  0
    5.5284    1.6721    0.0000 C   0  0  0  0  0  0  0  0  0  0  0  0
    5.5896   -0.2553    0.0000 C   0  0  0  0  0  0  0  0  0  0  0  0
    3.6196    1.9465    0.0000 C   0  0  0  0  0  0  0  0  0  0  0  0
    2.1204    1.8988    0.0000 C   0  0  0  0  0  0  0  0  0  0  0  0
    1.4120    0.5766    0.0000 C   0  0  0  0  0  0  0  0  0  0  0  0
   -0.0872    0.5289    0.0000 C   0  0  0  0  0  0  0  0  0  0  0  0
   -0.8781    1.8035    0.0000 O   0  0  0  0  0  0  0  0  0  0  0  0
   -0.1698    3.1257    0.0000 C   0  0  0  0  0  0  0  0  0  0  0  0
  1  2  1  0
  2  3  1  0
  3  4  2  0
  3  5  1  0
  5  6  1  0
  6  7  1  0
  7  8  2  0
  8  9  1  0
  9 10  1  0
  8 11  1  0
 11 12  2  0
 12 13  1  0
 13 14  1  0
 14 15  1  0
 14 16  1  0
 14 17  1  0
 17 18  2  0
 18 19  1  0
 19 20  2  0
 20 21  1  0
 21 22  1  0
 20  7  1  0
 19 12  1  0
M  END
>  <identifier>  (1160) 
CNP0389206.0

>  <canonical_smiles>  (1160) 
COC(=O)CCC1=C(OC)C=C2OC(C)(C)C=CC2=C1OC

>  <standard_inchi>  (1160) 
InChI=1S/C17H22O5/c1-17(2)9-8-12-14(22-17)10-13(19-3)11(16(12)21-5)6-7-15(18)20-4/h8-10H,6-7H2,1-5H3

>  <standard_inchi_key>  (1160) 
HNPFJHNNDJDAOU-UHFFFAOYSA-N

>  <name>  (1160) 
methyl 5,7-dimethoxy-2,2-dimethyl-2h-1-benzopyran-6-propanoate

>  <iupac_name>  (1160) 
methyl 3-(5,7-dimethoxy-2,2-dimethyl-chromen-6-yl)propanoate

>  <annotation_level>  (1160) 
5

>  <total_atom_count>  (1160) 
44

>  <heavy_atom_count>  (1160) 
22

>  <molecular_weight>  (1160) 
306.36

>  <exact_molecular_weight>  (1160) 
306.14672

>  <molecular_formula>  (1160) 
C17H22O5

>  <alogp>  (1160) 
2.99

>  <topological_polar_surface_area>  (1160) 
53.99

>  <rotatable_bond_count>  (1160) 
5

>  <hydrogen_bond_acceptors>  (1160) 
5

>  <hydrogen_bond_donors>  (1160) 
0

>  <hydrogen_bond_acceptors_lipinski>  (1160) 
5

>  <hydrogen_bond_donors_lipinski>  (1160) 
0

>  <lipinski_rule_of_five_violations>  (1160) 
0

>  <aromatic_rings_count>  (1160) 
1

>  <qed_drug_likeliness>  (1160) 
0.78

>  <formal_charge>  (1160) 
0

>  <fractioncsp3>  (1160) 
0.47

>  <number_of_minimal_rings>  (1160) 
2

>  <van_der_walls_volume>  (1160) 
nan

>  <contains_sugar>  (1160) 
False

>  <contains_ring_sugars>  (1160) 
False

>  <contains_linear_sugars>  (1160) 
False

>  <murcko_framework>  (1160) 
O1c2ccccc2C=CC1

>  <np_likeness>  (1160) 
1.89

>  <chemical_class>  (1160) 
Benzopyrans

>  <chemical_sub_class>  (1160) 
1-benzopyrans

>  <chemical_super_class>  (1160) 
Organoheterocyclic compounds

>  <direct_parent_classification>  (1160) 
2,2-dimethyl-1-benzopyrans

>  <np_classifier_pathway>  (1160) 
Terpenoids

>  <np_classifier_superclass>  (1160) 
Meroterpenoids

>  <np_classifier_class>  (1160) 
Merohemiterpenoids

>  <np_classifier_is_glycoside>  (1160) 
False

>  <organisms>  (1160) 
Adiscanthus fusciflorus|Hortia oreadica

>  <collections>  (1160) 
Latin America dataset|NuBBEDB|Super Natural II|UNPD (Universal Natural Products Database)|WikiData Natural Products|ZINC NP

>  <dois>  (1160) 
10.1016/0031-9422(80)83207-9|10.1016/J.BSE.2012.03.005|10.1016/j.bse.2012.03.005

>  <synonyms>  (1160) 
57-dimethoxy-22-dimethyl-2H-1-benzopyran-6-propanoate

>  <cas>  (1160) 
nan

$$$$

     RDKit          2D

 20 22  0  0  0  0  0  0  0  0999 V2000
   -2.6582   -1.5316    0.0000 C   0  0  0  0  0  0  0  0  0  0  0  0
   -2.4516   -0.0459    0.0000 C   0  0  0  0  0  0  0  0  0  0  0  0
   -3.9506   -0.1004    0.0000 C   0  0  0  0  0  0  0  0  0  0  0  0
   -4.6529   -1.4259    0.0000 O   0  0  0  0  0  0  0  0  0  0  0  0
   -4.7474    1.1705    0.0000 O   0  0  0  0  0  0  0  0  0  0  0  0
   -2.7656    1.4209    0.0000 C   0  0  0  0  0  0  0  0  0  0  0  0
   -1.6524    2.4262    0.0000 C   0  0  0  0  0  0  0  0  0  0  0  0
   -0.2251    1.9648    0.0000 C   0  0  0  0  0  0  0  0  0  0  0  0
    0.0889    0.4980    0.0000 C   0  0  0  0  0  0  0  0  0  0  0  0
    1.2021    1.5034    0.0000 C   0  0  0  0  0  0  0  0  0  0  0  0
    1.5162    0.0366    0.0000 C   0  0  0  0  0  0  0  0  0  0  0  0
    2.6294    1.0419    0.0000 C   0  0  0  0  0  0  0  0  0  0  0  0
    4.0567    0.5805    0.0000 C   0  0  0  0  0  0  0  0  0  0  0  0
    5.1699    1.5858    0.0000 O   0  0  0  0  0  0  0  0  0  0  0  0
    4.3707   -0.8863    0.0000 C   0  0  0  0  0  0  0  0  0  0  0  0
    3.2574   -1.8916    0.0000 C   0  0  0  0  0  0  0  0  0  0  0  0
    1.8302   -1.4302    0.0000 C   0  0  0  0  0  0  0  0  0  0  0  0
    0.7169   -2.4355    0.0000 C   0  0  0  0  0  0  0  0  0  0  0  0
   -0.7103   -1.9741    0.0000 C   0  0  0  0  0  0  0  0  0  0  0  0
   -1.0243   -0.5073    0.0000 C   0  0  0  0  0  0  0  0  0  0  0  0
  2  1  1  6
  2  3  1  0
  3  4  2  0
  3  5  1  0
  2  6  1  0
  6  7  1  0
  7  8  1  0
  8  9  1  0
  9 10  1  1
  9 11  1  0
 11 12  2  0
 12 13  1  0
 13 14  1  0
 13 15  2  0
 15 16  1  0
 16 17  2  0
 17 18  1  0
 18 19  1  0
 20 19  1  1
 20  2  1  0
 20  9  1  0
 17 11  1  0
M  END
>  <identifier>  (1161) 
CNP0217137.1

>  <canonical_smiles>  (1161) 
C[C@]1(C(=O)O)CCC[C@]2(C)C3=CC(O)=CC=C3CC[C@@H]12

>  <standard_inchi>  (1161) 
InChI=1S/C17H22O3/c1-16-8-3-9-17(2,15(19)20)14(16)7-5-11-4-6-12(18)10-13(11)16/h4,6,10,14,18H,3,5,7-9H2,1-2H3,(H,19,20)/t14-,16-,17+/m1/s1

>  <standard_inchi_key>  (1161) 
VJILEYKNALCDDV-OIISXLGYSA-N

>  <name>  (1161) 
Podocarpic acid

>  <iupac_name>  (1161) 
(1~{S},4~{a}~{S},10~{a}~{R})-6-hydroxy-1,4~{a}-dimethyl-2,3,4,9,10,10~{a}-hexahydrophenanthrene-1-carboxylic acid

>  <annotation_level>  (1161) 
5

>  <total_atom_count>  (1161) 
42

>  <heavy_atom_count>  (1161) 
20

>  <molecular_weight>  (1161) 
274.36

>  <exact_molecular_weight>  (1161) 
274.15689

>  <molecular_formula>  (1161) 
C17H22O3

>  <alogp>  (1161) 
3.49

>  <topological_polar_surface_area>  (1161) 
57.53

>  <rotatable_bond_count>  (1161) 
1

>  <hydrogen_bond_acceptors>  (1161) 
2

>  <hydrogen_bond_donors>  (1161) 
2

>  <hydrogen_bond_acceptors_lipinski>  (1161) 
2

>  <hydrogen_bond_donors_lipinski>  (1161) 
2

>  <lipinski_rule_of_five_violations>  (1161) 
0

>  <aromatic_rings_count>  (1161) 
1

>  <qed_drug_likeliness>  (1161) 
0.82

>  <formal_charge>  (1161) 
0

>  <fractioncsp3>  (1161) 
0.59

>  <number_of_minimal_rings>  (1161) 
3

>  <van_der_walls_volume>  (1161) 
260.43

>  <contains_sugar>  (1161) 
False

>  <contains_ring_sugars>  (1161) 
False

>  <contains_linear_sugars>  (1161) 
False

>  <murcko_framework>  (1161) 
c1ccc2c(c1)CCC3CCCCC23

>  <np_likeness>  (1161) 
2.29

>  <chemical_class>  (1161) 
Prenol lipids

>  <chemical_sub_class>  (1161) 
Diterpenoids

>  <chemical_super_class>  (1161) 
Lipids and lipid-like molecules

>  <direct_parent_classification>  (1161) 
Diterpenoids

>  <np_classifier_pathway>  (1161) 
Terpenoids

>  <np_classifier_superclass>  (1161) 
Diterpenoids

>  <np_classifier_class>  (1161) 
Podocarpane diterpenoids

>  <np_classifier_is_glycoside>  (1161) 
False

>  <organisms>  (1161) 
Banisteriopsis argentea|Dacrycarpus dacrydioides|Dacrydium cupressinum|Dianthus barbatus|Falcatifolium taxoides|Ferula pseudooreoselinum|Nageia wallichiana|Podocarpus cupressina|Podocarpus dacrydiodes|Podocarpus dacrydioides|Podocarpus fasciculus|Podocarpus lambereis|Podocarpus totara

>  <collections>  (1161) 
Australian natural products|ChEBI NPs|KNApSaCK|Latin America dataset|NPASS|NPEdia|NuBBEDB|Super Natural II|TIPdb (database of Taiwan indigenous plants)|WikiData Natural Products|ZINC NP

>  <dois>  (1161) 
10.1016/0031-9422(75)85047-3|10.1016/J.PHYMED.2008.02.020|10.1016/S0031-9422(00)80328-3|10.1021/NP50033A041|10.1248/CPB.56.585|10.1515/hfsg.1977.31.1.1

>  <synonyms>  (1161) 
(1S,4AS,10aR)-1,2,3,4,4a,9,10,10a-octahydro-6-hydroxy-1,4a-dimethylphenanthrene-1-carboxylic acid|(1S,4aS,10aR)-6-hydroxy-1,4a-dimethyl-1,2,3,4,4a,9,10,10a-octahydrophenanthrene-1-carboxylic acid|1-Phenanthrenecarboxylic acid, 1,2,3,4,4a,9,10,10a-octahydro-6-hydroxy-1,4a-dimethyl-, (1S-(1alpha,4aalpha,10abeta))-|1-Phenanthrenecarboxylic acid,1,2,3,4,4a,9,10,10a-octahydro-6-hydroxy-1,4a-dimethyl-,(1S,4aS,10aR)-|12-hydroxypodocarpa-8,11,13-trien-16-oic acid|5947-49-9|7K80G5Z96Y|ACon0_000057|ACon1_002112|AKOS015893995|BDBM50167696|BRD-K22269939-001-01-4|C09171|CCG-208490|CHEBI:8277|CHEMBL421115|CS-6114|DTXSID30878214|EINECS 227-706-3|F85483|HMS1538M01|HY-N2318|LMPR0104120002|MEGxp0_001903|MFCD00074825|MS-23898|NCGC00142360-01|NS00047429|NSC 231784|PODOCARPIC ACID [MI]|Podocaric Acid|Podocarpa-8,11,13-trien-16-oic acid, 12-hydroxy- (VAN)|Podocarpic acid, 98%|Podocarpicacid|Q27108028|SCHEMBL160062|TimTec1_001673|UNII-7K80G5Z96Y|VJILEYKNALCDDV-OIISXLGYSA-N|podo-carpic acid

>  <cas>  (1161) 
5947-49-9

$$$$

     RDKit          2D

 32 36  0  0  0  0  0  0  0  0999 V2000
   -3.2653   -3.0064    0.0000 C   0  0  0  0  0  0  0  0  0  0  0  0
   -3.9573   -1.6756    0.0000 C   0  0  0  0  0  0  0  0  0  0  0  0
   -5.4559   -1.6095    0.0000 C   0  0  0  0  0  0  0  0  0  0  0  0
   -6.2624   -2.8742    0.0000 C   0  0  0  0  0  0  0  0  0  0  0  0
   -6.1479   -0.2787    0.0000 C   0  0  0  0  0  0  0  0  0  0  0  0
   -5.3414    0.9860    0.0000 C   0  0  0  0  0  0  0  0  0  0  0  0
   -3.8429    0.9199    0.0000 C   0  0  0  0  0  0  0  0  0  0  0  0
   -4.5349    2.2508    0.0000 C   0  0  0  0  0  0  0  0  0  0  0  0
   -3.7284    3.5155    0.0000 O   0  0  0  0  0  0  0  0  0  0  0  0
   -3.0363    2.1847    0.0000 C   0  0  0  0  0  0  0  0  0  0  0  0
   -1.5378    2.1186    0.0000 C   0  0  0  0  0  0  0  0  0  0  0  0
   -0.8458    0.7877    0.0000 C   0  0  0  0  0  0  0  0  0  0  0  0
   -0.1537   -0.5431    0.0000 C   0  0  0  0  0  0  0  0  0  0  0  0
   -1.6523   -0.4770    0.0000 C   0  0  0  0  0  0  0  0  0  0  0  0
   -0.9603   -1.8078    0.0000 C   0  0  0  0  0  0  0  0  0  0  0  0
    0.5383   -1.8739    0.0000 C   0  0  0  0  0  0  0  0  0  0  0  0
    1.3448   -0.6092    0.0000 C   0  0  0  0  0  0  0  0  0  0  0  0
    2.8433   -0.6753    0.0000 C   0  0  0  0  0  0  0  0  0  0  0  0
    2.0368   -1.9400    0.0000 C   0  0  0  0  0  0  0  0  0  0  0  0
    3.5354   -2.0061    0.0000 C   0  0  0  0  0  0  0  0  0  0  0  0
    5.0339   -2.0722    0.0000 C   0  0  0  0  0  0  0  0  0  0  0  0
    5.8404   -0.8075    0.0000 C   0  0  0  0  0  0  0  0  0  0  0  0
    7.3390   -0.8736    0.0000 O   0  0  0  0  0  0  0  0  0  0  0  0
    5.1484    0.5233    0.0000 C   0  0  0  0  0  0  0  0  0  0  0  0
    4.9533    2.0106    0.0000 C   0  0  0  0  0  0  0  0  0  0  0  0
    6.5792    0.9737    0.0000 C   0  0  0  0  0  0  0  0  0  0  0  0
    3.6499    0.5894    0.0000 C   0  0  0  0  0  0  0  0  0  0  0  0
    2.9578    1.9203    0.0000 C   0  0  0  0  0  0  0  0  0  0  0  0
    1.4593    1.9864    0.0000 C   0  0  0  0  0  0  0  0  0  0  0  0
    0.6528    0.7216    0.0000 C   0  0  0  0  0  0  0  0  0  0  0  0
   -0.0392    2.0525    0.0000 C   0  0  0  0  0  0  0  0  0  0  0  0
   -3.1508   -0.4109    0.0000 C   0  0  0  0  0  0  0  0  0  0  0  0
  2  1  1  1
  2  3  1  0
  3  4  1  6
  3  5  1  0
  5  6  1  0
  6  7  1  0
  7  8  1  1
  8  9  1  0
  7 10  1  0
 10 11  1  0
 11 12  1  0
 12 13  1  6
 12 14  1  0
 14 15  2  0
 15 16  1  0
 17 16  1  1
 17 18  1  0
 18 19  1  1
 18 20  1  0
 20 21  1  0
 21 22  1  0
 22 23  1  1
 22 24  1  0
 24 25  1  0
 24 26  1  0
 24 27  1  0
 27 28  1  1
 28 29  1  0
 29 30  1  0
 30 31  1  1
 32 14  1  6
 32  2  1  0
 32  7  1  0
 30 12  1  0
 30 17  1  0
 27 18  1  0
M  END
>  <identifier>  (1162) 
CNP0249388.1

>  <canonical_smiles>  (1162) 
C[C@H]1[C@H](C)CC[C@]2(CO)CC[C@]3(C)C(=CC[C@@H]4[C@@]5(C)CC[C@H](O)C(C)(C)[C@@H]5CC[C@]43C)[C@H]12

>  <standard_inchi>  (1162) 
InChI=1S/C30H50O2/c1-19-10-15-30(18-31)17-16-28(6)21(25(30)20(19)2)8-9-23-27(5)13-12-24(32)26(3,4)22(27)11-14-29(23,28)7/h8,19-20,22-25,31-32H,9-18H2,1-7H3/t19-,20+,22+,23-,24+,25+,27+,28-,29-,30-/m1/s1

>  <standard_inchi_key>  (1162) 
XUARCIYIVXVTAE-ZAPOICBTSA-N

>  <name>  (1162) 
Uvaol

>  <iupac_name>  (1162) 
(3~{S},4~{a}~{R},6~{a}~{R},6~{b}~{S},8~{a}~{S},11~{R},12~{S},12~{a}~{S},14~{a}~{R},14~{b}~{R})-8~{a}-(hydroxymethyl)-4,4,6~{a},6~{b},11,12,14~{b}-heptamethyl-2,3,4~{a},5,6,7,8,9,10,11,12,12~{a},14,14~{a}-tetradecahydro-1~{H}-picen-3-ol

>  <annotation_level>  (1162) 
5

>  <total_atom_count>  (1162) 
82

>  <heavy_atom_count>  (1162) 
32

>  <molecular_weight>  (1162) 
442.73

>  <exact_molecular_weight>  (1162) 
442.38108

>  <molecular_formula>  (1162) 
C30H50O2

>  <alogp>  (1162) 
7.00

>  <topological_polar_surface_area>  (1162) 
40.46

>  <rotatable_bond_count>  (1162) 
1

>  <hydrogen_bond_acceptors>  (1162) 
2

>  <hydrogen_bond_donors>  (1162) 
2

>  <hydrogen_bond_acceptors_lipinski>  (1162) 
2

>  <hydrogen_bond_donors_lipinski>  (1162) 
2

>  <lipinski_rule_of_five_violations>  (1162) 
1

>  <aromatic_rings_count>  (1162) 
0

>  <qed_drug_likeliness>  (1162) 
0.43

>  <formal_charge>  (1162) 
0

>  <fractioncsp3>  (1162) 
0.93

>  <number_of_minimal_rings>  (1162) 
5

>  <van_der_walls_volume>  (1162) 
454.66

>  <contains_sugar>  (1162) 
False

>  <contains_ring_sugars>  (1162) 
False

>  <contains_linear_sugars>  (1162) 
False

>  <murcko_framework>  (1162) 
C1=C2C3CCCCC3CCC2C4CCC5CCCCC5C4C1

>  <np_likeness>  (1162) 
3.28

>  <chemical_class>  (1162) 
Prenol lipids

>  <chemical_sub_class>  (1162) 
Triterpenoids

>  <chemical_super_class>  (1162) 
Lipids and lipid-like molecules

>  <direct_parent_classification>  (1162) 
Taraxastane, ursane, and bauerane triterpenoids

>  <np_classifier_pathway>  (1162) 
Terpenoids

>  <np_classifier_superclass>  (1162) 
Triterpenoids

>  <np_classifier_class>  (1162) 
Ursane and Taraxastane triterpenoids

>  <np_classifier_is_glycoside>  (1162) 
False

>  <organisms>  (1162) 
Aconitum brevicalcaratum|Adenopeltis colliguaya|Alibertia edulis|Amaracus pampanini|Ammodendron conollyi|Arctostaphylos columbiana|Arctostaphylos patula|Arrabidaea samydoides|Aspergillus arenarius|Aspergillus quadrilineatus|Baccharis coridifolia|Baccharis dracunculifolia|Bituminaria bituminosa|Bombus hortorum|Callistemon citrinus|Callistemon lanceolatus|Calluna vulgaris|Centaurea seridis|Ceratocystis clavigera|Cereus weberi|Chrozophora obliqua|Cirsium dipsacolepis|Cneorum pulverulentum|Cocculus diversifolius|Coleus garckeanus|Consolida ajacis|Crataegus monogyna|Crataegus pinnatifida|Crinum kirkii|Croton rhamnifolius|Cydonia oblonga|Cydonia vulgaris|Cylicodiscus gabunensis|Cytisus scoparius|Dalbergia stipulacea|Debregeasia saeneb|Debregeasia salicifolia|Dinemasporium strigosum|Diospyros Kaki|Diospyros Lotus|Diospyros argentea|Diospyros blancoi|Diospyros ismailii|Diospyros kaki|Diospyros lotus|Diospyros maingayi|Diospyros melanoxylon|Diospyros siamang|Diospyros singaporensis|Diospyros sumatrana|Diospyros wallichii|Elaeagnus commutata|Empetrum nigrum|Englerophytum magalismontanum|Eria subsessilis|Eriobotrya japonica|Eucalyptus flocktoniae|Eucalyptus globulus|Eucalyptus robusta|Eucalyptus saligna|Euonymus alatus|Euphorbia micractina|Euphorbia paralias|Euphorbia retusa|Euphorbia sulcata|Flindersia brayleyana|Fucus spiralis|Gentiana davidii var. formosana|Gerbera piloselloides|Heracleum sphondylium|Hippophae rhamnoides|Hypericum triquetrifolium|Ilex|Ilex latifolia|Isodon coetsa|Isodon japonicus|Jungermannia obovata|Knightia deplanchei|Kummerowia striata|Leptospermum scoparium|Leucothoe keiskei|Lyophyllum shimeji|Maclura pomifera|Mactra chinensis|Malmea depressa|Malva sylvestris|Mascarenhasia arborescens|Meconopsis napaulensis|Merremia umbellata|Mesembryanthemum anatomicum|Microtropis fokienensis|Millettia conraui|Moquilea pyrifolia|Morus alba|Morus alba var. multicaulis|Myrica multiflora|Nerium Oleander|Nerium oleander|Nierembergia hippomanica|Nierembergia linariifolia|Nuxia sphaerocephala|Olea Europaea|Olea europaea|Ophiarthrum elegans|Origanum dictamnus|Origanum pampaninii|Ormosia panamensis|Osmanthus fragrans|Osmerus mordax|Palafoxia rosea|Parerythropodium fulvum|Pedicularis condensata|Perityle vaseyi|Phoebe formosana|Plantago lanceolata|Polylepis incana|Porella swartziana|Prunus avium|Prunus serotina|Psidium guajava|Ptilidium ciliare|Quercus mongolica|Rhaphiolepis loquata|Rheum webbianum|Rhododendron ellipticum|Rhododendron ferrugineum|Rhododendron groenlandicum|Rhododendron kotschyi|Rhododendron latoucheae|Rhododendron myrtifolium|Rhododendron tomentosum|Rhynchosporium orthosporum|Rubus idaeus|Salacia chinensis|Salvia aethiopis|Salvia cana|Salvia canariensis|Salvia coulteri|Salvia lanata|Salvia officinalis|Salvia tomentosa|Satureja cuneifolia|Saussurea muliensis|Scarlet firethorn|Scutellaria seleriana|Senecio flavus|Shorea robusta|Sida cordifolia|Solanum racemigerum|Solanum sisymbriifolium|Solenopsis invicta|Sorbus decora|Spodoptera littoralis|Stigmatella aurantiaca|Streptomyces eurythermus|Streptomyces fradiae|Streptomyces mobaraensis|Strychnos mitscherlichii|Strychnos spinosa|Syzygium corticosum|Syzygium formosanum|Teucrium pestalozzae|Thymbra spicata|Trichia floriformis|Trifolium apertum|Tripodanthus acutifolius|Turraeanthus mannii|Veronica pectinata|Verpa digitaliformis|Viguiera annua|Vitex cauliflora|Vladimiria muliensis|Vochysia ferruginea|Woodwardia radicans|ilex sp.

>  <collections>  (1162) 
ANPDB|BIOFACQUIM|CMAUP (cCollective molecular activities of useful plants)|ChEBI NPs|ChemSpider NPs|KNApSaCK|Latin America dataset|NANPDB (Natural Products from Northern African Sources)|NPASS|NuBBEDB|Phyto4Health|Super Natural II|TCMDB-Taiwan (Traditional Chinese Medicine database)|TIPdb (database of Taiwan indigenous plants)|VietHerb|WikiData Natural Products

>  <dois>  (1162) 
10.1002/ARDP.19963291005|10.1002/CJOC.19860040110|10.1002/JPS.2600551210|10.1007/BF00564187|10.1007/BF00565890|10.1007/BF00579142|10.1007/BF00580456|10.1007/BF00598555|10.1007/S10600-011-0024-0|10.1007/S10600-012-0104-9|10.1007/S10600-015-1220-0|10.1007/SPRINGERREFERENCE_69355|10.1016/0031-9422(90)85462-O|10.1016/0031-9422(93)80051-S|10.1016/0031-9422(94)00905-9|10.1016/0031-9422(94)85026-7|10.1016/0031-9422(95)00731-8|10.1016/0040-4039(95)01286-Q|10.1016/J.BMC.2010.01.010|10.1016/J.FITOTE.2009.06.007|10.1016/J.FITOTE.2009.07.007|10.1016/J.FOODCHEM.2009.04.098|10.1016/J.PHYTOCHEM.2005.11.024|10.1016/J.TET.2008.05.054|10.1016/S0009-8981(02)00021-9|10.1016/S0031-9422(00)00250-8|10.1016/S0031-9422(00)80490-2|10.1016/S0031-9422(00)82286-4|10.1016/S0031-9422(00)85522-3|10.1016/S0031-9422(00)89654-5|10.1016/S0031-9422(96)00680-2|10.1016/S0031-9422(97)00004-6|10.1016/S0031-9422(97)01020-0|10.1016/S0040-4020(01)90428-4|10.1016/S0305-1978(03)00134-0|10.1016/S0305-1978(99)00085-X|10.1016/j.bmc.2010.01.010|10.1016/j.bmc.2018.07.025|10.1021/NP040059+|10.1021/NP040072U|10.1021/NP050458K|10.1021/NP060369N|10.1021/NP070038Q|10.1021/NP070483L|10.1021/NP1003005|10.1021/NP100778K|10.1021/NP50017A014|10.1021/NP50035A027|10.1021/NP50048A019|10.1021/NP50096A031|10.1021/NP900305J|10.1021/NP960134J|10.1021/NP980313W|10.1021/np040059+|10.1021/np040072u|10.1021/np060369n|10.1021/np070038q|10.1021/np070483l|10.1021/np100778k|10.1021/np50035a027|10.1021/np900305j|10.1039/A708239H|10.1055/S-0028-1097667|10.1055/S-2006-957706|10.1055/S-2006-960474|10.1055/S-2006-960792|10.1055/S-2007-969601|10.1076/PHBI.39.1.20.5941|10.1078/0944-7113-00329|10.1080/10575630290033088|10.1080/10575639708043746|10.1080/14786410310001608019|10.1248/CPB.55.784|10.1248/CPB.57.532|10.1248/CPB.58.1100|10.1248/YAKUSHI1881.59.9_619|10.1590/S0100-40422003000500003|10.1590/S0103-50532000000300007|10.3329/DUJPS.V3I1.189|10.3390/MOLECULES16076010|10.3390/MOLECULES21010078|10.3390/molecules21010078|10.4103/0974-8490.65510

>  <synonyms>  (1162) 
(3S,4aR,6aR,6bS,8aS,11R,12S,12aS,14aR,14bR)-8a-(hydroxymethyl)-4,4,6a,6b,11,12,14b-heptamethyl-2,3,4a,5,6,7,8,9,10,11,12,12a,14,14a-tetradecahydro-1H-picen-3-ol|(3S,4aR,6aR,6bS,8aS,11R,12S,12aS,14bR)-8a-Hydroxymethyl-4,4,6a,6b,11,12,14b-heptamethyl-1,2,3,4,4a,5,6,6a,6b,7,8,8a,9,10,11,12,12a,14,14a,14b-eicosahydro-picen-3-ol|(3beta)-Urs-12-ene-3,28-diol|1ST001408|3,28-DIHYDROXYURS-12-ENE|3-beta,28-Dihydroxy-urs-12-ene|3.BETA.,28-DIHYDROXYURS-12-ENE|545-46-0|AKOS016036269|AS-84026|BCBcMAP01_000233|BDBM50218196|CHEBI:67894|CHEMBL399873|CS-0016397|EINECS 208-888-3|HY-N1109|MFCD00009620|NS00043850|NSC-159627|Q27136369|SCHEMBL337913|SMP1_000309|SR-05000002219|UNII-W599R31ROT|URS-12-EN-3.BETA.,28-DIOL|UVALOL|Urs-12-ene-3,28-diol, (3.beta.)|Urs-12-ene-3,28-diol, (3b)-|Urs-12-ene-3beta,28-diol|Uvaol|Uvaol (AS)|Uvaol, >=95%|W599R31ROT|XUARCIYIVXVTAE-ZAPOICBTSA-N|s9551|uvaol

>  <cas>  (1162) 
545-46-0

$$$$

     RDKit          2D

 77 85  0  0  0  0  0  0  0  0999 V2000
  -12.1974    4.9992    0.0000 C   0  0  0  0  0  0  0  0  0  0  0  0
  -10.7037    4.8621    0.0000 C   0  0  0  0  0  0  0  0  0  0  0  0
  -10.0755    3.4999    0.0000 O   0  0  0  0  0  0  0  0  0  0  0  0
   -8.5818    3.3628    0.0000 C   0  0  0  0  0  0  0  0  0  0  0  0
   -7.9537    2.0007    0.0000 O   0  0  0  0  0  0  0  0  0  0  0  0
   -8.8193    0.7756    0.0000 C   0  0  0  0  0  0  0  0  0  0  0  0
   -8.1912   -0.5865    0.0000 C   0  0  0  0  0  0  0  0  0  0  0  0
   -6.6974   -0.7236    0.0000 O   0  0  0  0  0  0  0  0  0  0  0  0
   -6.0693   -2.0858    0.0000 C   0  0  0  0  0  0  0  0  0  0  0  0
   -4.5756   -2.2229    0.0000 C   0  0  0  0  0  0  0  0  0  0  0  0
   -3.7100   -0.9979    0.0000 O   0  0  0  0  0  0  0  0  0  0  0  0
   -2.2163   -1.1350    0.0000 C   0  0  0  0  0  0  0  0  0  0  0  0
   -1.5882   -2.4971    0.0000 C   0  0  0  0  0  0  0  0  0  0  0  0
   -0.0944   -2.6342    0.0000 C   0  0  0  0  0  0  0  0  0  0  0  0
    0.7712   -1.4092    0.0000 C   0  0  0  0  0  0  0  0  0  0  0  0
    1.3993   -2.7713    0.0000 C   0  0  0  0  0  0  0  0  0  0  0  0
    0.1430   -0.0470    0.0000 C   0  0  0  0  0  0  0  0  0  0  0  0
    1.0086    1.1780    0.0000 C   0  0  0  0  0  0  0  0  0  0  0  0
    2.5023    1.0409    0.0000 C   0  0  0  0  0  0  0  0  0  0  0  0
    3.1305   -0.3212    0.0000 C   0  0  0  0  0  0  0  0  0  0  0  0
    3.9961    0.9038    0.0000 C   0  0  0  0  0  0  0  0  0  0  0  0
    2.2649   -1.5463    0.0000 C   0  0  0  0  0  0  0  0  0  0  0  0
    2.8930   -2.9084    0.0000 C   0  0  0  0  0  0  0  0  0  0  0  0
    4.3867   -3.0455    0.0000 C   0  0  0  0  0  0  0  0  0  0  0  0
    5.2523   -1.8205    0.0000 C   0  0  0  0  0  0  0  0  0  0  0  0
    6.7460   -1.9576    0.0000 C   0  0  0  0  0  0  0  0  0  0  0  0
    7.6116   -0.7325    0.0000 C   0  0  0  0  0  0  0  0  0  0  0  0
    8.4772    0.4925    0.0000 C   0  0  0  0  0  0  0  0  0  0  0  0
    7.8491    1.8547    0.0000 O   0  0  0  0  0  0  0  0  0  0  0  0
    9.9710    0.3554    0.0000 O   0  0  0  0  0  0  0  0  0  0  0  0
   10.8365    1.5805    0.0000 C   0  0  0  0  0  0  0  0  0  0  0  0
   12.3303    1.4434    0.0000 O   0  0  0  0  0  0  0  0  0  0  0  0
   13.1959    2.6684    0.0000 C   0  0  0  0  0  0  0  0  0  0  0  0
   14.6896    2.5313    0.0000 C   0  0  0  0  0  0  0  0  0  0  0  0
   15.3177    1.1692    0.0000 O   0  0  0  0  0  0  0  0  0  0  0  0
   12.5677    4.0306    0.0000 C   0  0  0  0  0  0  0  0  0  0  0  0
   13.4333    5.2556    0.0000 O   0  0  0  0  0  0  0  0  0  0  0  0
   11.0740    4.1677    0.0000 C   0  0  0  0  0  0  0  0  0  0  0  0
   10.4459    5.5298    0.0000 O   0  0  0  0  0  0  0  0  0  0  0  0
   10.2084    2.9426    0.0000 C   0  0  0  0  0  0  0  0  0  0  0  0
    8.7147    3.0797    0.0000 O   0  0  0  0  0  0  0  0  0  0  0  0
    9.1054   -0.8696    0.0000 C   0  0  0  0  0  0  0  0  0  0  0  0
    9.7335   -2.2318    0.0000 C   0  0  0  0  0  0  0  0  0  0  0  0
    8.8679   -3.4568    0.0000 C   0  0  0  0  0  0  0  0  0  0  0  0
    9.4960   -4.8190    0.0000 C   0  0  0  0  0  0  0  0  0  0  0  0
    7.3742   -3.3197    0.0000 C   0  0  0  0  0  0  0  0  0  0  0  0
    5.9236   -3.7018    0.0000 C   0  0  0  0  0  0  0  0  0  0  0  0
    7.4985   -4.8146    0.0000 O   0  0  0  0  0  0  0  0  0  0  0  0
    6.9835    0.6296    0.0000 C   0  0  0  0  0  0  0  0  0  0  0  0
    5.4898    0.7667    0.0000 C   0  0  0  0  0  0  0  0  0  0  0  0
    4.6242   -0.4583    0.0000 C   0  0  0  0  0  0  0  0  0  0  0  0
    3.7586   -1.6834    0.0000 C   0  0  0  0  0  0  0  0  0  0  0  0
   -1.3507    0.0901    0.0000 C   0  0  0  0  0  0  0  0  0  0  0  0
   -2.7074    0.7298    0.0000 C   0  0  0  0  0  0  0  0  0  0  0  0
   -0.9563    1.5373    0.0000 C   0  0  0  0  0  0  0  0  0  0  0  0
   -3.9475   -3.5851    0.0000 O   0  0  0  0  0  0  0  0  0  0  0  0
   -4.8131   -4.8101    0.0000 C   0  0  0  0  0  0  0  0  0  0  0  0
   -4.1849   -6.1723    0.0000 C   0  0  0  0  0  0  0  0  0  0  0  0
   -2.6912   -6.3094    0.0000 O   0  0  0  0  0  0  0  0  0  0  0  0
   -6.3068   -4.6730    0.0000 C   0  0  0  0  0  0  0  0  0  0  0  0
   -7.1724   -5.8981    0.0000 O   0  0  0  0  0  0  0  0  0  0  0  0
   -6.9349   -3.3109    0.0000 C   0  0  0  0  0  0  0  0  0  0  0  0
   -8.4286   -3.1737    0.0000 O   0  0  0  0  0  0  0  0  0  0  0  0
   -9.0568   -1.8116    0.0000 O   0  0  0  0  0  0  0  0  0  0  0  0
  -10.5505   -1.6745    0.0000 C   0  0  0  0  0  0  0  0  0  0  0  0
  -11.4161   -2.8995    0.0000 C   0  0  0  0  0  0  0  0  0  0  0  0
  -12.9098   -2.7624    0.0000 O   0  0  0  0  0  0  0  0  0  0  0  0
  -11.1786   -0.3123    0.0000 C   0  0  0  0  0  0  0  0  0  0  0  0
  -12.6723   -0.1752    0.0000 O   0  0  0  0  0  0  0  0  0  0  0  0
  -10.3130    0.9127    0.0000 C   0  0  0  0  0  0  0  0  0  0  0  0
  -10.9411    2.2749    0.0000 O   0  0  0  0  0  0  0  0  0  0  0  0
   -7.7162    4.5879    0.0000 C   0  0  0  0  0  0  0  0  0  0  0  0
   -6.2225    4.4508    0.0000 O   0  0  0  0  0  0  0  0  0  0  0  0
   -8.3444    5.9500    0.0000 C   0  0  0  0  0  0  0  0  0  0  0  0
   -7.4788    7.1751    0.0000 O   0  0  0  0  0  0  0  0  0  0  0  0
   -9.8381    6.0871    0.0000 C   0  0  0  0  0  0  0  0  0  0  0  0
  -10.4662    7.4493    0.0000 O   0  0  0  0  0  0  0  0  0  0  0  0
  2  1  1  1
  2  3  1  0
  3  4  1  0
  4  5  1  6
  6  5  1  1
  6  7  1  0
  7  8  1  6
  9  8  1  1
  9 10  1  0
 10 11  1  6
 12 11  1  6
 12 13  1  0
 13 14  1  0
 14 15  1  0
 15 16  1  6
 15 17  1  0
 17 18  1  0
 18 19  1  0
 19 20  1  0
 20 21  1  6
 20 22  1  0
 22 23  1  0
 23 24  1  0
 24 25  2  0
 25 26  1  0
 26 27  1  0
 27 28  1  6
 28 29  2  0
 28 30  1  0
 31 30  1  1
 31 32  1  0
 32 33  1  0
 33 34  1  1
 34 35  1  0
 33 36  1  0
 36 37  1  6
 36 38  1  0
 38 39  1  1
 38 40  1  0
 40 41  1  6
 27 42  1  0
 42 43  1  0
 43 44  1  0
 44 45  1  1
 44 46  1  0
 46 47  1  6
 46 48  1  0
 27 49  1  0
 49 50  1  0
 50 51  1  0
 51 52  1  1
 17 53  1  0
 53 54  1  0
 53 55  1  0
 10 56  1  0
 56 57  1  0
 57 58  1  6
 58 59  1  0
 57 60  1  0
 60 61  1  1
 60 62  1  0
 62 63  1  6
  7 64  1  0
 64 65  1  0
 65 66  1  6
 66 67  1  0
 65 68  1  0
 68 69  1  1
 68 70  1  0
 70 71  1  6
  4 72  1  0
 72 73  1  1
 72 74  1  0
 74 75  1  1
 74 76  1  0
 76 77  1  6
 76  2  1  0
 70  6  1  0
 62  9  1  0
 53 12  1  0
 22 15  1  0
 51 25  1  0
 51 20  1  0
 46 26  1  0
 40 31  1  0
M  END
>  <identifier>  (1163) 
CNP0332432.1

>  <canonical_smiles>  (1163) 
C[C@@H]1O[C@@H](O[C@H]2[C@H](O[C@H]3[C@H](O[C@H]4CC[C@@]5(C)C(CC[C@]6(C)C5CC=C5C7[C@](C(=O)O[C@@H]8O[C@H](CO)[C@@H](O)[C@H](O)[C@H]8O)(CC[C@@H](C)[C@@]7(C)O)CC[C@]56C)C4(C)C)O[C@H](CO)[C@@H](O)[C@@H]3O)O[C@H](CO)[C@@H](O)[C@@H]2O)[C@H](O)[C@H](O)[C@H]1O

>  <standard_inchi>  (1163) 
InChI=1S/C54H88O23/c1-22-11-16-54(48(68)77-45-40(67)36(63)32(59)25(19-55)71-45)18-17-51(6)24(43(54)53(22,8)69)9-10-29-50(5)14-13-30(49(3,4)28(50)12-15-52(29,51)7)74-46-41(37(64)33(60)26(20-56)72-46)76-47-42(38(65)34(61)27(21-57)73-47)75-44-39(66)35(62)31(58)23(2)70-44/h9,22-23,25-47,55-67,69H,10-21H2,1-8H3/t22-,23+,25-,26-,27-,28?,29?,30+,31+,32-,33-,34-,35-,36+,37+,38+,39-,40-,41-,42-,43?,44+,45+,46+,47+,50+,51-,52-,53-,54+/m1/s1

>  <standard_inchi_key>  (1163) 
SAXVJIIJZQMTIR-AIGURIOESA-N

>  <name>  (1163) 
nan

>  <iupac_name>  (1163) 
[(2~{S},3~{R},4~{S},5~{S},6~{R})-3,4,5-trihydroxy-6-(hydroxymethyl)tetrahydropyran-2-yl] (1~{R},2~{R},4~{a}~{S},6~{a}~{S},6~{b}~{R},10~{S},12~{a}~{R})-10-[(2~{R},3~{R},4~{S},5~{S},6~{R})-3-[(2~{S},3~{R},4~{S},5~{S},6~{R})-4,5-dihydroxy-6-(hydroxymethyl)-3-[(2~{S},3~{R},4~{R},5~{R},6~{S})-3,4,5-trihydroxy-6-methyl-tetrahydropyran-2-yl]oxy-tetrahydropyran-2-yl]oxy-4,5-dihydroxy-6-(hydroxymethyl)tetrahydropyran-2-yl]oxy-1-hydroxy-1,2,6~{a},6~{b},9,9,12~{a}-heptamethyl-2,3,4,5,6,6~{a},7,8,8~{a},10,11,12,13,14~{b}-tetradecahydropicene-4~{a}-carboxylate

>  <annotation_level>  (1163) 
4

>  <total_atom_count>  (1163) 
165

>  <heavy_atom_count>  (1163) 
77

>  <molecular_weight>  (1163) 
1105.28

>  <exact_molecular_weight>  (1163) 
1104.57164

>  <molecular_formula>  (1163) 
C54H88O23

>  <alogp>  (1163) 
-2.04

>  <topological_polar_surface_area>  (1163) 
374.13

>  <rotatable_bond_count>  (1163) 
11

>  <hydrogen_bond_acceptors>  (1163) 
23

>  <hydrogen_bond_donors>  (1163) 
14

>  <hydrogen_bond_acceptors_lipinski>  (1163) 
23

>  <hydrogen_bond_donors_lipinski>  (1163) 
14

>  <lipinski_rule_of_five_violations>  (1163) 
3

>  <aromatic_rings_count>  (1163) 
0

>  <qed_drug_likeliness>  (1163) 
0.06

>  <formal_charge>  (1163) 
0

>  <fractioncsp3>  (1163) 
0.94

>  <number_of_minimal_rings>  (1163) 
9

>  <van_der_walls_volume>  (1163) 
nan

>  <contains_sugar>  (1163) 
True

>  <contains_ring_sugars>  (1163) 
True

>  <contains_linear_sugars>  (1163) 
False

>  <murcko_framework>  (1163) 
O1CCCCC1OCC23CCCCC3C4=CCC5C(CCC6CC(OC7OCCCC7OC8OCCCC8OC9OCCCC9)CCC65)C4CC2

>  <np_likeness>  (1163) 
2.15

>  <chemical_class>  (1163) 
Prenol lipids

>  <chemical_sub_class>  (1163) 
Terpene glycosides

>  <chemical_super_class>  (1163) 
Lipids and lipid-like molecules

>  <direct_parent_classification>  (1163) 
Triterpene saponins

>  <np_classifier_pathway>  (1163) 
Terpenoids

>  <np_classifier_superclass>  (1163) 
Triterpenoids

>  <np_classifier_class>  (1163) 
Oleanane triterpenoids

>  <np_classifier_is_glycoside>  (1163) 
True

>  <organisms>  (1163) 
Alibertia edulis

>  <collections>  (1163) 
Latin America dataset|NuBBEDB|WikiData Natural Products

>  <dois>  (1163) 
10.1002/HLCA.200890147|10.1002/hlca.200890147

>  <synonyms>  (1163) 
3\u221a\u00e9\u00ac\u2264-O-[\u221a\u00e9\u00ac\u00b1-L-rhamnopyranosyl-(1\u221a\u00a2\u201a\u00c4\u2020\u201a\u00c4\u00f42)-O-\u221a\u00e9\u00ac\u2264-D-glucopyranosyl-(1\u221a\u00a2\u201a\u00c4\u2020\u201a\u00c4\u00f42)-O-\u221a\u00e9\u00ac\u2264-D-glucopyranosyl]-28-O-\u221a\u00e9\u00ac\u2264-D-glucopyranoside pomolate

>  <cas>  (1163) 
nan

$$$$

     RDKit          2D

 27 30  0  0  0  0  0  0  0  0999 V2000
    2.6535    4.3092    0.0000 C   0  0  0  0  0  0  0  0  0  0  0  0
    2.6706    2.8093    0.0000 C   0  0  0  0  0  0  0  0  0  0  0  0
    1.3801    2.0446    0.0000 C   0  0  0  0  0  0  0  0  0  0  0  0
    1.3972    0.5447    0.0000 C   0  0  0  0  0  0  0  0  0  0  0  0
    2.7605    1.1703    0.0000 C   0  0  0  0  0  0  0  0  0  0  0  0
    3.9840    0.3025    0.0000 C   0  0  0  0  0  0  0  0  0  0  0  0
    5.3472    0.9282    0.0000 O   0  0  0  0  0  0  0  0  0  0  0  0
    6.5707    0.0604    0.0000 C   0  0  0  0  0  0  0  0  0  0  0  0
    3.8441   -1.1909    0.0000 C   0  0  0  0  0  0  0  0  0  0  0  0
    5.0676   -2.0588    0.0000 O   0  0  0  0  0  0  0  0  0  0  0  0
    2.4809   -1.8166    0.0000 C   0  0  0  0  0  0  0  0  0  0  0  0
    2.3410   -3.3101    0.0000 O   0  0  0  0  0  0  0  0  0  0  0  0
    3.5645   -4.1779    0.0000 C   0  0  0  0  0  0  0  0  0  0  0  0
    1.2574   -0.9488    0.0000 C   0  0  0  0  0  0  0  0  0  0  0  0
   -0.2062   -1.2773    0.0000 O   0  0  0  0  0  0  0  0  0  0  0  0
   -0.9709    0.0131    0.0000 C   0  0  0  0  0  0  0  0  0  0  0  0
   -2.4644    0.1529    0.0000 C   0  0  0  0  0  0  0  0  0  0  0  0
   -3.0901    1.5162    0.0000 C   0  0  0  0  0  0  0  0  0  0  0  0
   -4.5835    1.6560    0.0000 C   0  0  0  0  0  0  0  0  0  0  0  0
   -5.4513    0.4325    0.0000 C   0  0  0  0  0  0  0  0  0  0  0  0
   -6.9412    0.2588    0.0000 O   0  0  0  0  0  0  0  0  0  0  0  0
   -7.2364   -1.2119    0.0000 C   0  0  0  0  0  0  0  0  0  0  0  0
   -5.9289   -1.9471    0.0000 O   0  0  0  0  0  0  0  0  0  0  0  0
   -4.8257   -0.9308    0.0000 C   0  0  0  0  0  0  0  0  0  0  0  0
   -3.3322   -1.0706    0.0000 C   0  0  0  0  0  0  0  0  0  0  0  0
    0.0200    1.1392    0.0000 C   0  0  0  0  0  0  0  0  0  0  0  0
   -0.3085    2.6027    0.0000 C   0  0  0  0  0  0  0  0  0  0  0  0
  1  2  2  0
  2  3  1  0
  4  3  1  6
  4  5  1  0
  5  6  1  0
  6  7  1  1
  7  8  1  0
  6  9  1  0
  9 10  2  0
  9 11  1  0
 11 12  1  0
 12 13  1  0
 11 14  2  0
 14 15  1  0
 15 16  1  0
 16 17  1  1
 17 18  2  0
 18 19  1  0
 19 20  2  0
 20 21  1  0
 21 22  1  0
 22 23  1  0
 23 24  1  0
 24 25  2  0
 16 26  1  0
 26 27  1  6
 14  4  1  0
 25 17  1  0
 26  4  1  0
 24 20  1  0
M  END
>  <identifier>  (1164) 
CNP0263795.2

>  <canonical_smiles>  (1164) 
C=CC[C@]12C[C@@H](OC)C(=O)C(OC)=C1O[C@@H](C1=CC=C3OCOC3=C1)[C@@H]2C

>  <standard_inchi>  (1164) 
InChI=1S/C21H24O6/c1-5-8-21-10-16(23-3)17(22)19(24-4)20(21)27-18(12(21)2)13-6-7-14-15(9-13)26-11-25-14/h5-7,9,12,16,18H,1,8,10-11H2,2-4H3/t12-,16+,18+,21+/m0/s1

>  <standard_inchi_key>  (1164) 
SSPDVRMNHFFRCE-VBYZDEBFSA-N

>  <name>  (1164) 
nan

>  <iupac_name>  (1164) 
(2~{R},3~{R},3~{a}~{R},5~{R})-3~{a}-allyl-2-(1,3-benzodioxol-5-yl)-5,7-dimethoxy-3-methyl-2,3,4,5-tetrahydrobenzofuran-6-one

>  <annotation_level>  (1164) 
4

>  <total_atom_count>  (1164) 
51

>  <heavy_atom_count>  (1164) 
27

>  <molecular_weight>  (1164) 
372.42

>  <exact_molecular_weight>  (1164) 
372.15729

>  <molecular_formula>  (1164) 
C21H24O6

>  <alogp>  (1164) 
3.53

>  <topological_polar_surface_area>  (1164) 
63.22

>  <rotatable_bond_count>  (1164) 
5

>  <hydrogen_bond_acceptors>  (1164) 
6

>  <hydrogen_bond_donors>  (1164) 
0

>  <hydrogen_bond_acceptors_lipinski>  (1164) 
6

>  <hydrogen_bond_donors_lipinski>  (1164) 
0

>  <lipinski_rule_of_five_violations>  (1164) 
0

>  <aromatic_rings_count>  (1164) 
1

>  <qed_drug_likeliness>  (1164) 
0.74

>  <formal_charge>  (1164) 
0

>  <fractioncsp3>  (1164) 
0.48

>  <number_of_minimal_rings>  (1164) 
4

>  <van_der_walls_volume>  (1164) 
nan

>  <contains_sugar>  (1164) 
False

>  <contains_ring_sugars>  (1164) 
False

>  <contains_linear_sugars>  (1164) 
False

>  <murcko_framework>  (1164) 
O1c2ccc(cc2OC1)C3OC4=CCCCC4C3

>  <np_likeness>  (1164) 
2.20

>  <chemical_class>  (1164) 
Benzodioxoles

>  <chemical_sub_class>  (1164) 
Benzodioxoles

>  <chemical_super_class>  (1164) 
Organoheterocyclic compounds

>  <direct_parent_classification>  (1164) 
Benzodioxoles

>  <np_classifier_pathway>  (1164) 
Shikimates and Phenylpropanoids

>  <np_classifier_superclass>  (1164) 
Lignans

>  <np_classifier_class>  (1164) 
Neolignans

>  <np_classifier_is_glycoside>  (1164) 
False

>  <organisms>  (1164) 
Aniba ferrea|Licaria canella|Ocotea catharinensis

>  <collections>  (1164) 
Latin America dataset|NuBBEDB|WikiData Natural Products

>  <dois>  (1164) 
10.1016/0031-9422(80)83081-0|10.1016/0031-9422(91)83052-M|10.1016/0031-9422(91)83479-5|10.1016/S0031-9422(97)00343-9

>  <synonyms>  (1164) 
canellin B, (7R8R1'R3'R)-D5'8'-3'5'Dimethoxy-34-methylenedioxy-4'-oxo-8.1'7.O.6'-neolignan

>  <cas>  (1164) 
nan

$$$$

     RDKit          2D

 16 18  0  0  0  0  0  0  0  0999 V2000
    4.7297   -1.4755    0.0000 C   0  0  0  0  0  0  0  0  0  0  0  0
    4.1081   -0.1104    0.0000 O   0  0  0  0  0  0  0  0  0  0  0  0
    2.6151    0.0339    0.0000 C   0  0  0  0  0  0  0  0  0  0  0  0
    1.7436   -1.1870    0.0000 C   0  0  0  0  0  0  0  0  0  0  0  0
    0.2506   -1.0427    0.0000 C   0  0  0  0  0  0  0  0  0  0  0  0
   -0.6209   -2.2636    0.0000 C   0  0  0  0  0  0  0  0  0  0  0  0
   -2.1139   -2.1193    0.0000 C   0  0  0  0  0  0  0  0  0  0  0  0
   -2.7355   -0.7542    0.0000 C   0  0  0  0  0  0  0  0  0  0  0  0
   -4.1660   -0.3027    0.0000 O   0  0  0  0  0  0  0  0  0  0  0  0
   -4.1786    1.1973    0.0000 C   0  0  0  0  0  0  0  0  0  0  0  0
   -2.7559    1.6728    0.0000 C   0  0  0  0  0  0  0  0  0  0  0  0
   -1.8641    0.4667    0.0000 C   0  0  0  0  0  0  0  0  0  0  0  0
   -0.3710    0.3224    0.0000 C   0  0  0  0  0  0  0  0  0  0  0  0
    0.5004    1.5433    0.0000 O   0  0  0  0  0  0  0  0  0  0  0  0
    1.9935    1.3990    0.0000 C   0  0  0  0  0  0  0  0  0  0  0  0
    2.8649    2.6199    0.0000 O   0  0  0  0  0  0  0  0  0  0  0  0
  1  2  1  0
  2  3  1  0
  3  4  2  0
  4  5  1  0
  5  6  2  0
  6  7  1  0
  7  8  2  0
  8  9  1  0
  9 10  1  0
 10 11  2  0
 11 12  1  0
 12 13  2  0
 13 14  1  0
 14 15  1  0
 15 16  2  0
 15  3  1  0
 13  5  1  0
 12  8  1  0
M  END
>  <identifier>  (1165) 
CNP0150632.0

>  <canonical_smiles>  (1165) 
COC1=CC2=CC=C3OC=CC3=C2OC1=O

>  <standard_inchi>  (1165) 
InChI=1S/C12H8O4/c1-14-10-6-7-2-3-9-8(4-5-15-9)11(7)16-12(10)13/h2-6H,1H3

>  <standard_inchi_key>  (1165) 
TWFNIHHXHBZIFK-UHFFFAOYSA-N

>  <name>  (1165) 
nan

>  <iupac_name>  (1165) 
3-methoxyfuro[2,3-h]chromen-2-one

>  <annotation_level>  (1165) 
4

>  <total_atom_count>  (1165) 
24

>  <heavy_atom_count>  (1165) 
16

>  <molecular_weight>  (1165) 
216.19

>  <exact_molecular_weight>  (1165) 
216.04226

>  <molecular_formula>  (1165) 
C12H8O4

>  <alogp>  (1165) 
2.55

>  <topological_polar_surface_area>  (1165) 
52.58

>  <rotatable_bond_count>  (1165) 
1

>  <hydrogen_bond_acceptors>  (1165) 
4

>  <hydrogen_bond_donors>  (1165) 
0

>  <hydrogen_bond_acceptors_lipinski>  (1165) 
4

>  <hydrogen_bond_donors_lipinski>  (1165) 
0

>  <lipinski_rule_of_five_violations>  (1165) 
0

>  <aromatic_rings_count>  (1165) 
3

>  <qed_drug_likeliness>  (1165) 
0.59

>  <formal_charge>  (1165) 
0

>  <fractioncsp3>  (1165) 
0.08

>  <number_of_minimal_rings>  (1165) 
3

>  <van_der_walls_volume>  (1165) 
nan

>  <contains_sugar>  (1165) 
False

>  <contains_ring_sugars>  (1165) 
False

>  <contains_linear_sugars>  (1165) 
False

>  <murcko_framework>  (1165) 
o1ccc2c1ccc3C=CCOc32

>  <np_likeness>  (1165) 
1.09

>  <chemical_class>  (1165) 
Coumarins and derivatives

>  <chemical_sub_class>  (1165) 
Furanocoumarins

>  <chemical_super_class>  (1165) 
Phenylpropanoids and polyketides

>  <direct_parent_classification>  (1165) 
Angular furanocoumarins

>  <np_classifier_pathway>  (1165) 
Shikimates and Phenylpropanoids

>  <np_classifier_superclass>  (1165) 
Coumarins

>  <np_classifier_class>  (1165) 
Furocoumarins

>  <np_classifier_is_glycoside>  (1165) 
False

>  <organisms>  (1165) 
Pilocarpus riedelianus

>  <collections>  (1165) 
Latin America dataset|NuBBEDB|Super Natural II|UNPD (Universal Natural Products Database)|WikiData Natural Products|ZINC NP

>  <dois>  (1165) 
10.1016/0031-9422(93)80055-W

>  <synonyms>  (1165) 
3-methoxyangelicin

>  <cas>  (1165) 
nan

$$$$

     RDKit          2D

 27 30  0  0  0  0  0  0  0  0999 V2000
    7.5061    0.6919    0.0000 C   0  0  0  0  0  0  0  0  0  0  0  0
    6.0632    1.1017    0.0000 C   0  0  0  0  0  0  0  0  0  0  0  0
    4.9868    0.0570    0.0000 C   0  0  0  0  0  0  0  0  0  0  0  0
    3.5439    0.4669    0.0000 C   0  0  0  0  0  0  0  0  0  0  0  0
    4.1981    1.8167    0.0000 O   0  0  0  0  0  0  0  0  0  0  0  0
    5.6942    1.9251    0.0000 C   0  0  0  0  0  0  0  0  0  0  0  0
    2.3282    1.3455    0.0000 C   0  0  0  0  0  0  0  0  0  0  0  0
    0.9594    0.7320    0.0000 C   0  0  0  0  0  0  0  0  0  0  0  0
    0.8063   -0.7602    0.0000 C   0  0  0  0  0  0  0  0  0  0  0  0
    2.0221   -1.6388    0.0000 C   0  0  0  0  0  0  0  0  0  0  0  0
    1.8690   -3.1310    0.0000 O   0  0  0  0  0  0  0  0  0  0  0  0
    3.0847   -4.0096    0.0000 C   0  0  0  0  0  0  0  0  0  0  0  0
    3.3908   -1.0253    0.0000 C   0  0  0  0  0  0  0  0  0  0  0  0
    4.6066   -1.9039    0.0000 O   0  0  0  0  0  0  0  0  0  0  0  0
   -0.6601   -1.0757    0.0000 O   0  0  0  0  0  0  0  0  0  0  0  0
   -1.4134    0.2214    0.0000 C   0  0  0  0  0  0  0  0  0  0  0  0
   -2.9055    0.3745    0.0000 C   0  0  0  0  0  0  0  0  0  0  0  0
   -3.5191    1.7433    0.0000 C   0  0  0  0  0  0  0  0  0  0  0  0
   -5.0112    1.8963    0.0000 C   0  0  0  0  0  0  0  0  0  0  0  0
   -5.8899    0.6806    0.0000 C   0  0  0  0  0  0  0  0  0  0  0  0
   -7.3813    0.5201    0.0000 O   0  0  0  0  0  0  0  0  0  0  0  0
   -7.6895   -0.9479    0.0000 C   0  0  0  0  0  0  0  0  0  0  0  0
   -6.3885   -1.6947    0.0000 O   0  0  0  0  0  0  0  0  0  0  0  0
   -5.2763   -0.6882    0.0000 C   0  0  0  0  0  0  0  0  0  0  0  0
   -3.7842   -0.8412    0.0000 C   0  0  0  0  0  0  0  0  0  0  0  0
   -0.4125    1.3387    0.0000 C   0  0  0  0  0  0  0  0  0  0  0  0
   -0.7280    2.8051    0.0000 C   0  0  0  0  0  0  0  0  0  0  0  0
  1  2  2  0
  2  3  1  0
  4  3  1  6
  4  5  1  0
  5  6  1  0
  4  7  1  0
  7  8  2  0
  8  9  1  0
  9 10  2  0
 10 11  1  0
 11 12  1  0
 10 13  1  0
 13 14  2  0
  9 15  1  0
 15 16  1  0
 16 17  1  6
 17 18  2  0
 18 19  1  0
 19 20  2  0
 20 21  1  0
 21 22  1  0
 22 23  1  0
 23 24  1  0
 24 25  2  0
 16 26  1  0
 26 27  1  1
 13  4  1  0
 25 17  1  0
 26  8  1  0
 24 20  1  0
M  END
>  <identifier>  (1166) 
CNP0310068.1

>  <canonical_smiles>  (1166) 
C=CC[C@@]1(OC)C=C2C(=C(OC)C1=O)O[C@H](C1=CC=C3OCOC3=C1)[C@H]2C

>  <standard_inchi>  (1166) 
InChI=1S/C21H22O6/c1-5-8-21(24-4)10-14-12(2)17(27-18(14)19(23-3)20(21)22)13-6-7-15-16(9-13)26-11-25-15/h5-7,9-10,12,17H,1,8,11H2,2-4H3/t12-,17-,21+/m0/s1

>  <standard_inchi_key>  (1166) 
UYSCLBYXRATPGF-ODLKPZKQSA-N

>  <name>  (1166) 
nan

>  <iupac_name>  (1166) 
(2~{S},3~{S},5~{R})-5-allyl-2-(1,3-benzodioxol-5-yl)-5,7-dimethoxy-3-methyl-2,3-dihydrobenzofuran-6-one

>  <annotation_level>  (1166) 
4

>  <total_atom_count>  (1166) 
49

>  <heavy_atom_count>  (1166) 
27

>  <molecular_weight>  (1166) 
370.4

>  <exact_molecular_weight>  (1166) 
370.14164

>  <molecular_formula>  (1166) 
C21H22O6

>  <alogp>  (1166) 
3.45

>  <topological_polar_surface_area>  (1166) 
63.22

>  <rotatable_bond_count>  (1166) 
5

>  <hydrogen_bond_acceptors>  (1166) 
6

>  <hydrogen_bond_donors>  (1166) 
0

>  <hydrogen_bond_acceptors_lipinski>  (1166) 
6

>  <hydrogen_bond_donors_lipinski>  (1166) 
0

>  <lipinski_rule_of_five_violations>  (1166) 
0

>  <aromatic_rings_count>  (1166) 
1

>  <qed_drug_likeliness>  (1166) 
0.74

>  <formal_charge>  (1166) 
0

>  <fractioncsp3>  (1166) 
0.38

>  <number_of_minimal_rings>  (1166) 
4

>  <van_der_walls_volume>  (1166) 
nan

>  <contains_sugar>  (1166) 
False

>  <contains_ring_sugars>  (1166) 
False

>  <contains_linear_sugars>  (1166) 
False

>  <murcko_framework>  (1166) 
O1c2ccc(cc2OC1)C3OC4=CCCC=C4C3

>  <np_likeness>  (1166) 
1.85

>  <chemical_class>  (1166) 
Benzodioxoles

>  <chemical_sub_class>  (1166) 
Benzodioxoles

>  <chemical_super_class>  (1166) 
Organoheterocyclic compounds

>  <direct_parent_classification>  (1166) 
Benzodioxoles

>  <np_classifier_pathway>  (1166) 
Shikimates and Phenylpropanoids

>  <np_classifier_superclass>  (1166) 
Lignans

>  <np_classifier_class>  (1166) 
Neolignans

>  <np_classifier_is_glycoside>  (1166) 
False

>  <organisms>  (1166) 
Ocotea catharinensis

>  <collections>  (1166) 
Latin America dataset|NuBBEDB|WikiData Natural Products|ZINC NP

>  <dois>  (1166) 
10.1016/0031-9422(83)83046-5|10.1016/0031-9422(91)83479-5

>  <synonyms>  (1166) 
(7S8S1'R)-D-1'5'-dimethoxy-34-methylenedioxy-1'6'-dihydro-6'-oxo-7.O.4' 8.3'-neolignan, , (2S3S5R)-5-allyl-57-dimethoxy-3-methyl-2-piperonyl-2356-tetrahydro-6-oxobenzofuran

>  <cas>  (1166) 
nan

$$$$

     RDKit          2D

 20 22  0  0  0  0  0  0  0  0999 V2000
    0.1597   -3.1415    0.0000 O   0  0  0  0  0  0  0  0  0  0  0  0
    0.3009   -1.6481    0.0000 C   0  0  0  0  0  0  0  0  0  0  0  0
    1.6647   -1.0237    0.0000 C   0  0  0  0  0  0  0  0  0  0  0  0
    2.8874   -1.8927    0.0000 C   0  0  0  0  0  0  0  0  0  0  0  0
    4.2513   -1.2683    0.0000 C   0  0  0  0  0  0  0  0  0  0  0  0
    4.3925    0.2251    0.0000 C   0  0  0  0  0  0  0  0  0  0  0  0
    5.7563    0.8495    0.0000 O   0  0  0  0  0  0  0  0  0  0  0  0
    3.1698    1.0940    0.0000 C   0  0  0  0  0  0  0  0  0  0  0  0
    1.8059    0.4696    0.0000 C   0  0  0  0  0  0  0  0  0  0  0  0
    0.5832    1.3385    0.0000 C   0  0  0  0  0  0  0  0  0  0  0  0
    0.7244    2.8319    0.0000 O   0  0  0  0  0  0  0  0  0  0  0  0
   -0.7806    0.7141    0.0000 C   0  0  0  0  0  0  0  0  0  0  0  0
   -2.0033    1.5831    0.0000 C   0  0  0  0  0  0  0  0  0  0  0  0
   -1.8621    3.0764    0.0000 O   0  0  0  0  0  0  0  0  0  0  0  0
   -3.3672    0.9587    0.0000 C   0  0  0  0  0  0  0  0  0  0  0  0
   -3.5083   -0.5347    0.0000 C   0  0  0  0  0  0  0  0  0  0  0  0
   -4.8722   -1.1591    0.0000 C   0  0  0  0  0  0  0  0  0  0  0  0
   -6.0949   -0.2901    0.0000 O   0  0  0  0  0  0  0  0  0  0  0  0
   -2.2857   -1.4036    0.0000 C   0  0  0  0  0  0  0  0  0  0  0  0
   -0.9218   -0.7792    0.0000 C   0  0  0  0  0  0  0  0  0  0  0  0
  1  2  2  0
  2  3  1  0
  3  4  2  0
  4  5  1  0
  5  6  2  0
  6  7  1  0
  6  8  1  0
  8  9  2  0
  9 10  1  0
 10 11  2  0
 10 12  1  0
 12 13  2  0
 13 14  1  0
 13 15  1  0
 15 16  2  0
 16 17  1  0
 17 18  1  0
 16 19  1  0
 19 20  2  0
 20  2  1  0
  9  3  1  0
 20 12  1  0
M  END
>  <identifier>  (1167) 
CNP0302049.0

>  <canonical_smiles>  (1167) 
O=C1C2=CC=C(O)C=C2C(=O)C2=C(O)C=C(CO)C=C12

>  <standard_inchi>  (1167) 
InChI=1S/C15H10O5/c16-6-7-3-11-13(12(18)4-7)15(20)10-5-8(17)1-2-9(10)14(11)19/h1-5,16-18H,6H2

>  <standard_inchi_key>  (1167) 
NWPULPMOTUPXPI-UHFFFAOYSA-N

>  <name>  (1167) 
1,7-dihydroxy-3-hydroxymethyl-9,10-anthraquinone

>  <iupac_name>  (1167) 
1,7-dihydroxy-3-(hydroxymethyl)anthracene-9,10-dione

>  <annotation_level>  (1167) 
5

>  <total_atom_count>  (1167) 
30

>  <heavy_atom_count>  (1167) 
20

>  <molecular_weight>  (1167) 
270.24

>  <exact_molecular_weight>  (1167) 
270.05282

>  <molecular_formula>  (1167) 
C15H10O5

>  <alogp>  (1167) 
1.37

>  <topological_polar_surface_area>  (1167) 
94.83

>  <rotatable_bond_count>  (1167) 
1

>  <hydrogen_bond_acceptors>  (1167) 
5

>  <hydrogen_bond_donors>  (1167) 
3

>  <hydrogen_bond_acceptors_lipinski>  (1167) 
5

>  <hydrogen_bond_donors_lipinski>  (1167) 
3

>  <lipinski_rule_of_five_violations>  (1167) 
0

>  <aromatic_rings_count>  (1167) 
2

>  <qed_drug_likeliness>  (1167) 
0.62

>  <formal_charge>  (1167) 
0

>  <fractioncsp3>  (1167) 
0.07

>  <number_of_minimal_rings>  (1167) 
3

>  <van_der_walls_volume>  (1167) 
nan

>  <contains_sugar>  (1167) 
False

>  <contains_ring_sugars>  (1167) 
False

>  <contains_linear_sugars>  (1167) 
False

>  <murcko_framework>  (1167) 
c1ccc2c(c1)Cc3ccccc3C2

>  <np_likeness>  (1167) 
1.54

>  <chemical_class>  (1167) 
Anthracenes

>  <chemical_sub_class>  (1167) 
Anthraquinones

>  <chemical_super_class>  (1167) 
Benzenoids

>  <direct_parent_classification>  (1167) 
Hydroxyanthraquinones

>  <np_classifier_pathway>  (1167) 
Polyketides

>  <np_classifier_superclass>  (1167) 
Polycyclic aromatic polyketides

>  <np_classifier_class>  (1167) 
Anthraquinones and anthrones

>  <np_classifier_is_glycoside>  (1167) 
False

>  <organisms>  (1167) 
Epicoccum sorghinum|Phoma sorghina|Trichoderma harzianum|trichoderma harzianum strain th-r16

>  <collections>  (1167) 
Latin America dataset|NPASS|NPAtlas|NuBBEDB|UNPD (Universal Natural Products Database)|WikiData Natural Products|ZINC NP

>  <dois>  (1167) 
10.1021/JF901405C|10.1021/jf901405c|10.1590/S0103-50532006000500017|10.1590/s0103-50532006000500017

>  <synonyms>  (1167) 
1,7-dihydroxy-3-(hydroxymethyl)anthracene-9,10-dione|17-dihydroxy-3-hydroxymethyl-910- anthraquinone|CHEBI:200922|CHEMBL2229891|Not named

>  <cas>  (1167) 
nan

$$$$

     RDKit          2D

 29 32  0  0  0  0  0  0  0  0999 V2000
    2.5969    4.3159    0.0000 C   0  0  0  0  0  0  0  0  0  0  0  0
    2.7518    2.8239    0.0000 C   0  0  0  0  0  0  0  0  0  0  0  0
    1.5372    1.9438    0.0000 C   0  0  0  0  0  0  0  0  0  0  0  0
    1.6921    0.4518    0.0000 C   0  0  0  0  0  0  0  0  0  0  0  0
    2.9921    1.2002    0.0000 C   0  0  0  0  0  0  0  0  0  0  0  0
    4.2902    0.4486    0.0000 C   0  0  0  0  0  0  0  0  0  0  0  0
    5.5902    1.1970    0.0000 O   0  0  0  0  0  0  0  0  0  0  0  0
    6.8883    0.4453    0.0000 C   0  0  0  0  0  0  0  0  0  0  0  0
    4.2883   -1.0514    0.0000 C   0  0  0  0  0  0  0  0  0  0  0  0
    5.5865   -1.8030    0.0000 O   0  0  0  0  0  0  0  0  0  0  0  0
    2.9884   -1.7998    0.0000 C   0  0  0  0  0  0  0  0  0  0  0  0
    2.9865   -3.2998    0.0000 O   0  0  0  0  0  0  0  0  0  0  0  0
    4.2846   -4.0514    0.0000 C   0  0  0  0  0  0  0  0  0  0  0  0
    1.6903   -1.0482    0.0000 C   0  0  0  0  0  0  0  0  0  0  0  0
    0.2631   -1.5099    0.0000 O   0  0  0  0  0  0  0  0  0  0  0  0
   -0.6171   -0.2953    0.0000 C   0  0  0  0  0  0  0  0  0  0  0  0
   -2.1171   -0.2934    0.0000 C   0  0  0  0  0  0  0  0  0  0  0  0
   -2.8654    1.0065    0.0000 C   0  0  0  0  0  0  0  0  0  0  0  0
   -4.3654    1.0084    0.0000 C   0  0  0  0  0  0  0  0  0  0  0  0
   -5.1138    2.3084    0.0000 O   0  0  0  0  0  0  0  0  0  0  0  0
   -4.3622    3.6065    0.0000 C   0  0  0  0  0  0  0  0  0  0  0  0
   -5.1170   -0.2897    0.0000 C   0  0  0  0  0  0  0  0  0  0  0  0
   -6.5847   -0.5998    0.0000 O   0  0  0  0  0  0  0  0  0  0  0  0
   -6.7433   -2.0913    0.0000 C   0  0  0  0  0  0  0  0  0  0  0  0
   -5.3738   -2.7032    0.0000 O   0  0  0  0  0  0  0  0  0  0  0  0
   -4.3687   -1.5897    0.0000 C   0  0  0  0  0  0  0  0  0  0  0  0
   -2.8687   -1.5916    0.0000 C   0  0  0  0  0  0  0  0  0  0  0  0
    0.2661    0.9171    0.0000 C   0  0  0  0  0  0  0  0  0  0  0  0
   -0.1956    2.3443    0.0000 C   0  0  0  0  0  0  0  0  0  0  0  0
  1  2  2  0
  2  3  1  0
  4  3  1  1
  4  5  1  0
  5  6  1  0
  6  7  1  6
  7  8  1  0
  6  9  1  0
  9 10  2  0
  9 11  1  0
 11 12  1  0
 12 13  1  0
 11 14  2  0
 14 15  1  0
 15 16  1  0
 16 17  1  6
 17 18  2  0
 18 19  1  0
 19 20  1  0
 20 21  1  0
 19 22  2  0
 22 23  1  0
 23 24  1  0
 24 25  1  0
 25 26  1  0
 26 27  2  0
 16 28  1  0
 28 29  1  6
 14  4  1  0
 27 17  1  0
 28  4  1  0
 26 22  1  0
M  END
>  <identifier>  (1168) 
CNP0140178.2

>  <canonical_smiles>  (1168) 
C=CC[C@@]12C[C@H](OC)C(=O)C(OC)=C1O[C@H](C1=CC(OC)=C3OCOC3=C1)[C@@H]2C

>  <standard_inchi>  (1168) 
InChI=1S/C22H26O7/c1-6-7-22-10-16(25-4)17(23)20(26-5)21(22)29-18(12(22)2)13-8-14(24-3)19-15(9-13)27-11-28-19/h6,8-9,12,16,18H,1,7,10-11H2,2-5H3/t12-,16-,18-,22-/m0/s1

>  <standard_inchi_key>  (1168) 
HUPGTAGQEXENPN-WYXRQVMRSA-N

>  <name>  (1168) 
nan

>  <iupac_name>  (1168) 
(2~{S},3~{R},3~{a}~{S},5~{S})-3~{a}-allyl-5,7-dimethoxy-2-(7-methoxy-1,3-benzodioxol-5-yl)-3-methyl-2,3,4,5-tetrahydrobenzofuran-6-one

>  <annotation_level>  (1168) 
4

>  <total_atom_count>  (1168) 
55

>  <heavy_atom_count>  (1168) 
29

>  <molecular_weight>  (1168) 
402.44

>  <exact_molecular_weight>  (1168) 
402.16785

>  <molecular_formula>  (1168) 
C22H26O7

>  <alogp>  (1168) 
3.54

>  <topological_polar_surface_area>  (1168) 
72.45

>  <rotatable_bond_count>  (1168) 
6

>  <hydrogen_bond_acceptors>  (1168) 
7

>  <hydrogen_bond_donors>  (1168) 
0

>  <hydrogen_bond_acceptors_lipinski>  (1168) 
7

>  <hydrogen_bond_donors_lipinski>  (1168) 
0

>  <lipinski_rule_of_five_violations>  (1168) 
0

>  <aromatic_rings_count>  (1168) 
1

>  <qed_drug_likeliness>  (1168) 
0.67

>  <formal_charge>  (1168) 
0

>  <fractioncsp3>  (1168) 
0.50

>  <number_of_minimal_rings>  (1168) 
4

>  <van_der_walls_volume>  (1168) 
nan

>  <contains_sugar>  (1168) 
False

>  <contains_ring_sugars>  (1168) 
False

>  <contains_linear_sugars>  (1168) 
False

>  <murcko_framework>  (1168) 
O1c2ccc(cc2OC1)C3OC4=CCCCC4C3

>  <np_likeness>  (1168) 
2.28

>  <chemical_class>  (1168) 
Benzodioxoles

>  <chemical_sub_class>  (1168) 
Benzodioxoles

>  <chemical_super_class>  (1168) 
Organoheterocyclic compounds

>  <direct_parent_classification>  (1168) 
Benzodioxoles

>  <np_classifier_pathway>  (1168) 
Shikimates and Phenylpropanoids

>  <np_classifier_superclass>  (1168) 
Lignans

>  <np_classifier_class>  (1168) 
Neolignans

>  <np_classifier_is_glycoside>  (1168) 
False

>  <organisms>  (1168) 
Aniba ferrea

>  <collections>  (1168) 
Latin America dataset|NuBBEDB|Super Natural II|WikiData Natural Products|ZINC NP

>  <dois>  (1168) 
10.1016/0031-9422(80)83081-0

>  <synonyms>  (1168) 
(\u221a\u00e9\u201a\u00c4\u00f98')-33'5'-Trimethoxy-45-methylenedioxy-1'4'5'6'-tetrahydro-4'-oxo-7.O.2'81'-neolignan

>  <cas>  (1168) 
nan

$$$$

     RDKit          2D

 32 36  0  0  0  0  0  0  0  0999 V2000
   -6.0949   -2.3162    0.0000 C   0  0  0  0  0  0  0  0  0  0  0  0
   -5.3714   -1.0022    0.0000 C   0  0  0  0  0  0  0  0  0  0  0  0
   -6.1476    0.2813    0.0000 C   0  0  0  0  0  0  0  0  0  0  0  0
   -7.6473    0.2509    0.0000 O   0  0  0  0  0  0  0  0  0  0  0  0
   -5.4241    1.5953    0.0000 C   0  0  0  0  0  0  0  0  0  0  0  0
   -6.2003    2.8789    0.0000 O   0  0  0  0  0  0  0  0  0  0  0  0
   -3.9244    1.6257    0.0000 C   0  0  0  0  0  0  0  0  0  0  0  0
   -3.1482    0.3422    0.0000 C   0  0  0  0  0  0  0  0  0  0  0  0
   -3.8717   -0.9718    0.0000 C   0  0  0  0  0  0  0  0  0  0  0  0
   -3.0955   -2.2554    0.0000 C   0  0  0  0  0  0  0  0  0  0  0  0
   -1.5958   -2.2249    0.0000 C   0  0  0  0  0  0  0  0  0  0  0  0
   -0.8723   -0.9110    0.0000 C   0  0  0  0  0  0  0  0  0  0  0  0
   -1.6485    0.3726    0.0000 C   0  0  0  0  0  0  0  0  0  0  0  0
   -2.4247    1.6562    0.0000 C   0  0  0  0  0  0  0  0  0  0  0  0
   -0.9250    1.6866    0.0000 C   0  0  0  0  0  0  0  0  0  0  0  0
    0.5747    1.7170    0.0000 C   0  0  0  0  0  0  0  0  0  0  0  0
    1.3509    0.4334    0.0000 C   0  0  0  0  0  0  0  0  0  0  0  0
    2.0744    1.7474    0.0000 C   0  0  0  0  0  0  0  0  0  0  0  0
    2.8506    0.4639    0.0000 C   0  0  0  0  0  0  0  0  0  0  0  0
    3.5741    1.7778    0.0000 C   0  0  0  0  0  0  0  0  0  0  0  0
    5.0737    1.8083    0.0000 C   0  0  0  0  0  0  0  0  0  0  0  0
    5.7973    3.1222    0.0000 C   0  0  0  0  0  0  0  0  0  0  0  0
    5.8499    0.5247    0.0000 C   0  0  0  0  0  0  0  0  0  0  0  0
    7.3496    0.5551    0.0000 O   0  0  0  0  0  0  0  0  0  0  0  0
    5.1264   -0.7893    0.0000 C   0  0  0  0  0  0  0  0  0  0  0  0
    5.9026   -2.0729    0.0000 O   0  0  0  0  0  0  0  0  0  0  0  0
    3.6267   -0.8197    0.0000 C   0  0  0  0  0  0  0  0  0  0  0  0
    4.4029   -2.1033    0.0000 C   0  0  0  0  0  0  0  0  0  0  0  0
    2.9032   -2.1337    0.0000 C   0  0  0  0  0  0  0  0  0  0  0  0
    1.4035   -2.1641    0.0000 C   0  0  0  0  0  0  0  0  0  0  0  0
    0.6274   -0.8805    0.0000 C   0  0  0  0  0  0  0  0  0  0  0  0
   -0.0961   -2.1945    0.0000 C   0  0  0  0  0  0  0  0  0  0  0  0
  1  2  1  0
  2  3  2  0
  3  4  1  0
  3  5  1  0
  5  6  2  0
  5  7  1  0
  7  8  2  0
  8  9  1  0
  9 10  2  0
 10 11  1  0
 11 12  2  0
 12 13  1  0
 13 14  1  1
 13 15  1  0
 15 16  1  0
 16 17  1  0
 17 18  1  6
 17 19  1  0
 19 20  1  6
 20 21  1  0
 21 22  1  6
 21 23  1  0
 23 24  1  6
 23 25  1  0
 25 26  1  1
 25 27  1  0
 27 28  1  1
 27 29  1  0
 29 30  1  0
 30 31  1  0
 31 32  1  1
  9  2  1  0
 31 12  1  0
 13  8  1  0
 31 17  1  0
 27 19  1  0
M  END
>  <identifier>  (1169) 
CNP0080679.1

>  <canonical_smiles>  (1169) 
CC1=C(O)C(=O)C=C2C1=CC=C1[C@@]2(C)CC[C@@]2(C)[C@@H]3C[C@H](C)[C@H](O)[C@@H](O)[C@]3(C)CC[C@]12C

>  <standard_inchi>  (1169) 
InChI=1S/C28H38O4/c1-15-13-21-26(4,24(32)22(15)30)10-12-27(5)20-8-7-17-16(2)23(31)19(29)14-18(17)25(20,3)9-11-28(21,27)6/h7-8,14-15,21-22,24,30-32H,9-13H2,1-6H3/t15-,21+,22-,24+,25-,26+,27+,28-/m0/s1

>  <standard_inchi_key>  (1169) 
QFOURIXAMIJRTI-KAGCPUOFSA-N

>  <name>  (1169) 
nan

>  <iupac_name>  (1169) 
(6~{a}~{S},6~{b}~{S},8~{a}~{R},9~{S},10~{S},11~{S},12~{a}~{S},14~{a}~{R})-3,9,10-trihydroxy-4,6~{a},6~{b},8~{a},11,14~{a}-hexamethyl-8,9,10,11,12,12~{a},13,14-octahydro-7~{H}-picen-2-one

>  <annotation_level>  (1169) 
5

>  <total_atom_count>  (1169) 
70

>  <heavy_atom_count>  (1169) 
32

>  <molecular_weight>  (1169) 
438.61

>  <exact_molecular_weight>  (1169) 
438.27701

>  <molecular_formula>  (1169) 
C28H38O4

>  <alogp>  (1169) 
5.18

>  <topological_polar_surface_area>  (1169) 
77.76

>  <rotatable_bond_count>  (1169) 
0

>  <hydrogen_bond_acceptors>  (1169) 
4

>  <hydrogen_bond_donors>  (1169) 
3

>  <hydrogen_bond_acceptors_lipinski>  (1169) 
4

>  <hydrogen_bond_donors_lipinski>  (1169) 
3

>  <lipinski_rule_of_five_violations>  (1169) 
1

>  <aromatic_rings_count>  (1169) 
0

>  <qed_drug_likeliness>  (1169) 
0.49

>  <formal_charge>  (1169) 
0

>  <fractioncsp3>  (1169) 
0.68

>  <number_of_minimal_rings>  (1169) 
5

>  <van_der_walls_volume>  (1169) 
417.30

>  <contains_sugar>  (1169) 
False

>  <contains_ring_sugars>  (1169) 
False

>  <contains_linear_sugars>  (1169) 
False

>  <murcko_framework>  (1169) 
C=1C=C2C(C3=CCC=CC13)CCC4C2CCC5CCCCC54

>  <np_likeness>  (1169) 
3.42

>  <chemical_class>  (1169) 
Organooxygen compounds

>  <chemical_sub_class>  (1169) 
Alcohols and polyols

>  <chemical_super_class>  (1169) 
Organic oxygen compounds

>  <direct_parent_classification>  (1169) 
Cyclic alcohols and derivatives

>  <np_classifier_pathway>  (1169) 
Terpenoids

>  <np_classifier_superclass>  (1169) 
Triterpenoids

>  <np_classifier_class>  (1169) 
nan

>  <np_classifier_is_glycoside>  (1169) 
False

>  <organisms>  (1169) 
Peritassa campestris|Salacia campestris

>  <collections>  (1169) 
ChemSpider NPs|Latin America dataset|NuBBEDB|Super Natural II|WikiData Natural Products|ZINC NP

>  <dois>  (1169) 
10.1002/CBDV.200590016|10.1002/cbdv.200590016

>  <synonyms>  (1169) 
Salacin

>  <cas>  (1169) 
nan

$$$$

     RDKit          2D

 34 38  0  0  0  0  0  0  0  0999 V2000
   -4.9355   -3.2600    0.0000 C   0  0  0  0  0  0  0  0  0  0  0  0
   -5.1806   -1.7801    0.0000 C   0  0  0  0  0  0  0  0  0  0  0  0
   -6.5954   -2.2785    0.0000 C   0  0  0  0  0  0  0  0  0  0  0  0
   -5.9170   -0.4733    0.0000 C   0  0  0  0  0  0  0  0  0  0  0  0
   -5.1535    0.8178    0.0000 C   0  0  0  0  0  0  0  0  0  0  0  0
   -3.6536    0.8022    0.0000 C   0  0  0  0  0  0  0  0  0  0  0  0
   -4.3901    2.1090    0.0000 C   0  0  0  0  0  0  0  0  0  0  0  0
   -5.8900    2.1246    0.0000 O   0  0  0  0  0  0  0  0  0  0  0  0
   -3.6266    3.4001    0.0000 O   0  0  0  0  0  0  0  0  0  0  0  0
   -2.8901    2.0934    0.0000 C   0  0  0  0  0  0  0  0  0  0  0  0
   -1.3902    2.0778    0.0000 C   0  0  0  0  0  0  0  0  0  0  0  0
   -0.6538    0.7710    0.0000 C   0  0  0  0  0  0  0  0  0  0  0  0
    0.0827   -0.5358    0.0000 C   0  0  0  0  0  0  0  0  0  0  0  0
   -1.4173   -0.5202    0.0000 C   0  0  0  0  0  0  0  0  0  0  0  0
   -0.6808   -1.8270    0.0000 C   0  0  0  0  0  0  0  0  0  0  0  0
    0.8191   -1.8426    0.0000 C   0  0  0  0  0  0  0  0  0  0  0  0
    1.5555   -3.1493    0.0000 O   0  0  0  0  0  0  0  0  0  0  0  0
    1.5826   -0.5514    0.0000 C   0  0  0  0  0  0  0  0  0  0  0  0
    3.0825   -0.5670    0.0000 C   0  0  0  0  0  0  0  0  0  0  0  0
    2.3190   -1.8582    0.0000 C   0  0  0  0  0  0  0  0  0  0  0  0
    3.8189   -1.8738    0.0000 C   0  0  0  0  0  0  0  0  0  0  0  0
    5.3189   -1.8894    0.0000 C   0  0  0  0  0  0  0  0  0  0  0  0
    6.0823   -0.5982    0.0000 C   0  0  0  0  0  0  0  0  0  0  0  0
    7.5823   -0.6138    0.0000 O   0  0  0  0  0  0  0  0  0  0  0  0
    5.3459    0.7085    0.0000 C   0  0  0  0  0  0  0  0  0  0  0  0
    5.1008    2.1884    0.0000 C   0  0  0  0  0  0  0  0  0  0  0  0
    6.7607    1.2069    0.0000 C   0  0  0  0  0  0  0  0  0  0  0  0
    3.8460    0.7242    0.0000 C   0  0  0  0  0  0  0  0  0  0  0  0
    3.1095    2.0309    0.0000 C   0  0  0  0  0  0  0  0  0  0  0  0
    1.6096    2.0465    0.0000 C   0  0  0  0  0  0  0  0  0  0  0  0
    0.8461    0.7554    0.0000 C   0  0  0  0  0  0  0  0  0  0  0  0
    0.1097    2.0621    0.0000 C   0  0  0  0  0  0  0  0  0  0  0  0
   -2.9172   -0.5046    0.0000 C   0  0  0  0  0  0  0  0  0  0  0  0
   -3.6807   -1.7957    0.0000 C   0  0  0  0  0  0  0  0  0  0  0  0
  1  2  1  0
  2  3  1  0
  2  4  1  0
  4  5  1  0
  5  6  1  0
  6  7  1  1
  7  8  2  0
  7  9  1  0
  6 10  1  0
 10 11  1  0
 11 12  1  0
 12 13  1  6
 12 14  1  0
 14 15  2  0
 15 16  1  0
 16 17  2  0
 16 18  1  0
 18 19  1  0
 19 20  1  1
 19 21  1  0
 21 22  1  0
 22 23  1  0
 23 24  2  0
 23 25  1  0
 25 26  1  0
 25 27  1  0
 25 28  1  0
 28 29  1  0
 29 30  1  0
 30 31  1  0
 31 32  1  1
 14 33  1  0
 33 34  1  0
 34  2  1  0
 33  6  1  0
 31 12  1  0
 31 18  1  0
 28 19  1  0
M  END
>  <identifier>  (1170) 
CNP0315028.2

>  <canonical_smiles>  (1170) 
CC1(C)CC[C@]2(C(=O)O)CC[C@]3(C)C(=CC(=O)C4[C@@]5(C)CCC(=O)C(C)(C)C5CC[C@]43C)C2C1

>  <standard_inchi>  (1170) 
InChI=1S/C30H44O4/c1-25(2)12-14-30(24(33)34)15-13-28(6)18(19(30)17-25)16-20(31)23-27(5)10-9-22(32)26(3,4)21(27)8-11-29(23,28)7/h16,19,21,23H,8-15,17H2,1-7H3,(H,33,34)/t19?,21?,23?,27-,28+,29+,30-/m0/s1

>  <standard_inchi_key>  (1170) 
VDDPQVQCXWFZJM-LNHGTTLOSA-N

>  <name>  (1170) 
nan

>  <iupac_name>  (1170) 
(4~{a}~{S},6~{a}~{S},6~{b}~{R},12~{a}~{S})-2,2,6~{a},6~{b},9,9,12~{a}-heptamethyl-10,13-dioxo-1,3,4,5,6,6~{a},7,8,8~{a},11,12,14~{b}-dodecahydropicene-4~{a}-carboxylic acid

>  <annotation_level>  (1170) 
4

>  <total_atom_count>  (1170) 
78

>  <heavy_atom_count>  (1170) 
34

>  <molecular_weight>  (1170) 
468.68

>  <exact_molecular_weight>  (1170) 
468.32396

>  <molecular_formula>  (1170) 
C30H44O4

>  <alogp>  (1170) 
6.62

>  <topological_polar_surface_area>  (1170) 
71.44

>  <rotatable_bond_count>  (1170) 
1

>  <hydrogen_bond_acceptors>  (1170) 
3

>  <hydrogen_bond_donors>  (1170) 
1

>  <hydrogen_bond_acceptors_lipinski>  (1170) 
3

>  <hydrogen_bond_donors_lipinski>  (1170) 
1

>  <lipinski_rule_of_five_violations>  (1170) 
1

>  <aromatic_rings_count>  (1170) 
0

>  <qed_drug_likeliness>  (1170) 
0.47

>  <formal_charge>  (1170) 
0

>  <fractioncsp3>  (1170) 
0.83

>  <number_of_minimal_rings>  (1170) 
5

>  <van_der_walls_volume>  (1170) 
nan

>  <contains_sugar>  (1170) 
False

>  <contains_ring_sugars>  (1170) 
False

>  <contains_linear_sugars>  (1170) 
False

>  <murcko_framework>  (1170) 
C1=C2C3CCCCC3CCC2C4CCC5CCCCC5C4C1

>  <np_likeness>  (1170) 
3.25

>  <chemical_class>  (1170) 
Prenol lipids

>  <chemical_sub_class>  (1170) 
Triterpenoids

>  <chemical_super_class>  (1170) 
Lipids and lipid-like molecules

>  <direct_parent_classification>  (1170) 
Oleanane triterpenoids

>  <np_classifier_pathway>  (1170) 
Terpenoids

>  <np_classifier_superclass>  (1170) 
Triterpenoids

>  <np_classifier_class>  (1170) 
Oleanane triterpenoids

>  <np_classifier_is_glycoside>  (1170) 
False

>  <organisms>  (1170) 
Cedrela fissilis

>  <collections>  (1170) 
Latin America dataset|NuBBEDB|WikiData Natural Products

>  <dois>  (1170) 
10.1055/S-0028-1088323|10.1055/s-0028-1088323

>  <synonyms>  (1170) 
311-dioxoolean-12-en-28- onic acid

>  <cas>  (1170) 
nan

$$$$

     RDKit          2D

 31 34  0  0  0  0  0  0  0  0999 V2000
   -7.3117   -2.8043    0.0000 C   0  0  0  0  0  0  0  0  0  0  0  0
   -6.6308   -1.4678    0.0000 C   0  0  0  0  0  0  0  0  0  0  0  0
   -5.1328   -1.3892    0.0000 C   0  0  0  0  0  0  0  0  0  0  0  0
   -4.4519   -0.0527    0.0000 C   0  0  0  0  0  0  0  0  0  0  0  0
   -2.9539    0.0258    0.0000 C   0  0  0  0  0  0  0  0  0  0  0  0
   -2.2730    1.3623    0.0000 C   0  0  0  0  0  0  0  0  0  0  0  0
   -0.7750    1.4409    0.0000 C   0  0  0  0  0  0  0  0  0  0  0  0
   -0.0941    2.7774    0.0000 C   0  0  0  0  0  0  0  0  0  0  0  0
   -0.9110    4.0354    0.0000 Cl  0  0  0  0  0  0  0  0  0  0  0  0
    1.4039    2.8559    0.0000 C   0  0  0  0  0  0  0  0  0  0  0  0
    2.0848    4.1925    0.0000 O   0  0  0  0  0  0  0  0  0  0  0  0
    2.2209    1.5979    0.0000 C   0  0  0  0  0  0  0  0  0  0  0  0
    3.0378    2.8560    0.0000 C   0  0  0  0  0  0  0  0  0  0  0  0
    3.7024    1.3633    0.0000 O   0  0  0  0  0  0  0  0  0  0  0  0
    3.9371   -0.1182    0.0000 C   0  0  0  0  0  0  0  0  0  0  0  0
    5.1951    0.6988    0.0000 O   0  0  0  0  0  0  0  0  0  0  0  0
    5.1951   -0.9351    0.0000 C   0  0  0  0  0  0  0  0  0  0  0  0
    6.5316   -0.2541    0.0000 C   0  0  0  0  0  0  0  0  0  0  0  0
    5.1166   -2.4331    0.0000 C   0  0  0  0  0  0  0  0  0  0  0  0
    6.3747   -3.2500    0.0000 C   0  0  0  0  0  0  0  0  0  0  0  0
    3.7801   -3.1141    0.0000 O   0  0  0  0  0  0  0  0  0  0  0  0
    2.5221   -2.2972    0.0000 C   0  0  0  0  0  0  0  0  0  0  0  0
    1.1856   -2.9782    0.0000 O   0  0  0  0  0  0  0  0  0  0  0  0
    2.6006   -0.7992    0.0000 C   0  0  0  0  0  0  0  0  0  0  0  0
    1.5399    0.2614    0.0000 C   0  0  0  0  0  0  0  0  0  0  0  0
    0.0420    0.1829    0.0000 C   0  0  0  0  0  0  0  0  0  0  0  0
   -0.6390   -1.1536    0.0000 C   0  0  0  0  0  0  0  0  0  0  0  0
   -2.1369   -1.2322    0.0000 O   0  0  0  0  0  0  0  0  0  0  0  0
   -7.4477   -0.2098    0.0000 C   0  0  0  0  0  0  0  0  0  0  0  0
   -8.9457   -0.2883    0.0000 C   0  0  0  0  0  0  0  0  0  0  0  0
   -6.7668    1.1267    0.0000 O   0  0  0  0  0  0  0  0  0  0  0  0
  2  1  1  1
  2  3  1  0
  3  4  2  0
  4  5  1  0
  5  6  2  0
  6  7  1  0
  7  8  2  0
  8  9  1  0
  8 10  1  0
 10 11  2  0
 10 12  1  0
 12 13  1  6
 12 14  1  0
 14 15  1  0
 15 16  1  1
 15 17  1  0
 17 18  1  6
 17 19  1  0
 19 20  1  1
 19 21  1  0
 21 22  1  0
 22 23  2  0
 24 22  1  6
 24 25  1  0
 25 26  1  1
 26 27  2  0
 27 28  1  0
  2 29  1  0
 29 30  1  1
 29 31  1  0
 28  5  1  0
 26  7  1  0
 25 12  1  0
 24 15  1  0
M  END
>  <identifier>  (1171) 
CNP0223440.1

>  <canonical_smiles>  (1171) 
C[C@H](/C=C/C1=CC2=C(Cl)C(=O)[C@@]3(C)O[C@]4(O)[C@H](C)[C@@H](C)OC(=O)[C@@H]4[C@H]3C2=CO1)[C@@H](C)O

>  <standard_inchi>  (1171) 
InChI=1S/C23H27ClO7/c1-10(12(3)25)6-7-14-8-15-16(9-29-14)17-18-21(27)30-13(4)11(2)23(18,28)31-22(17,5)20(26)19(15)24/h6-13,17-18,25,28H,1-5H3/b7-6+/t10-,11-,12-,13-,17-,18+,22+,23-/m1/s1

>  <standard_inchi_key>  (1171) 
LNHWUFUMZSBRBY-YELMBXGASA-N

>  <name>  (1171) 
chaetomugilin A

>  <iupac_name>  (1171) 
(1~{S},10~{S},12~{R},13~{R},14~{R},17~{R})-8-chloro-12-hydroxy-5-[(~{E},3~{R},4~{R})-4-hydroxy-3-methyl-pent-1-enyl]-10,13,14-trimethyl-4,11,15-trioxatetracyclo[8.7.0.0^{2,7}.0^{12,17}]heptadeca-2,5,7-triene-9,16-dione

>  <annotation_level>  (1171) 
5

>  <total_atom_count>  (1171) 
58

>  <heavy_atom_count>  (1171) 
31

>  <molecular_weight>  (1171) 
450.92

>  <exact_molecular_weight>  (1171) 
450.14453

>  <molecular_formula>  (1171) 
C23H27ClO7

>  <alogp>  (1171) 
2.72

>  <topological_polar_surface_area>  (1171) 
102.29

>  <rotatable_bond_count>  (1171) 
3

>  <hydrogen_bond_acceptors>  (1171) 
7

>  <hydrogen_bond_donors>  (1171) 
2

>  <hydrogen_bond_acceptors_lipinski>  (1171) 
7

>  <hydrogen_bond_donors_lipinski>  (1171) 
2

>  <lipinski_rule_of_five_violations>  (1171) 
0

>  <aromatic_rings_count>  (1171) 
0

>  <qed_drug_likeliness>  (1171) 
0.64

>  <formal_charge>  (1171) 
0

>  <fractioncsp3>  (1171) 
0.57

>  <number_of_minimal_rings>  (1171) 
4

>  <van_der_walls_volume>  (1171) 
388.66

>  <contains_sugar>  (1171) 
False

>  <contains_ring_sugars>  (1171) 
False

>  <contains_linear_sugars>  (1171) 
False

>  <murcko_framework>  (1171) 
O1C=CC2=CCC3OC4CCOCC4C3C2=C1

>  <np_likeness>  (1171) 
2.69

>  <chemical_class>  (1171) 
Lactones

>  <chemical_sub_class>  (1171) 
Delta valerolactones

>  <chemical_super_class>  (1171) 
Organoheterocyclic compounds

>  <direct_parent_classification>  (1171) 
Delta valerolactones

>  <np_classifier_pathway>  (1171) 
Polyketides

>  <np_classifier_superclass>  (1171) 
Chromanes

>  <np_classifier_class>  (1171) 
Azaphilones

>  <np_classifier_is_glycoside>  (1171) 
True

>  <organisms>  (1171) 
Chaetomium globosum|flathead mullet

>  <collections>  (1171) 
CMNPD|ChEBI NPs|EMNPD|KNApSaCK|Latin America dataset|NPASS|NuBBEDB|Super Natural II|WikiData Natural Products

>  <dois>  (1171) 
10.1016/J.BMCL.2009.02.025|10.1016/J.TET.2009.06.125|10.1016/J.TETLET.2008.04.060|10.1016/j.bmcl.2009.02.025|10.1021/NP200556P|10.1021/np200556p|10.1039/b906091j

>  <synonyms>  (1171) 
(1S,10S,12R,13R,14R,17R)-8-chloro-12-hydroxy-5-[(E,3R,4R)-4-hydroxy-3-methylpent-1-enyl]-10,13,14-trimethyl-4,11,15-trioxatetracyclo[8.7.0.02,7.012,17]heptadeca-2,5,7-triene-9,16-dione|(6aS,7aR,8R,9R,11aR,11bS)-5-Chloro-6a,7a,8,9,11a,11b-hexahydro-7a-hydroxy-3-[(1E,3R,4R)-4-hydroxy-3-methyl-1-penten-1-yl]-6a,8,9-trimethyl-6H,11H-pyrano[3a(2),4a(2):4,5]furo[2,3-h]-2-benzopyran-6,11-dione|(6aS,7aR,8R,9R,11aR,11bS)-5-chloro-7a-hydroxy-3-[(1E,3R,4R)-4-hydroxy-3-methylpent-1-en-1-yl]-6a,8,9-trimethyl-6a,7a,8,9,11a,11b-hexahydro-6H,11H-pyrano[3',4':4,5]furo[2,3-h]isochromene-6,11-dione|1041640-66-7|CHEBI:68805|CHEMBL494746|Chaetomugilin A|DTXSID201098406|Q27137189|chaetoviridin D

>  <cas>  (1171) 
nan

$$$$

     RDKit          2D

 26 27  0  0  0  0  0  0  0  0999 V2000
    0.4841   -2.8296    0.0000 C   0  0  0  0  0  0  0  0  0  0  0  0
    0.4923   -1.3296    0.0000 O   0  0  0  0  0  0  0  0  0  0  0  0
   -0.8026   -0.5725    0.0000 C   0  0  0  0  0  0  0  0  0  0  0  0
   -2.1057   -1.3154    0.0000 C   0  0  0  0  0  0  0  0  0  0  0  0
   -3.4006   -0.5583    0.0000 C   0  0  0  0  0  0  0  0  0  0  0  0
   -4.7037   -1.3011    0.0000 C   0  0  0  0  0  0  0  0  0  0  0  0
   -5.9986   -0.5440    0.0000 C   0  0  0  0  0  0  0  0  0  0  0  0
   -7.3018   -1.2869    0.0000 C   0  0  0  0  0  0  0  0  0  0  0  0
   -8.5967   -0.5297    0.0000 O   0  0  0  0  0  0  0  0  0  0  0  0
   -3.3924    0.9417    0.0000 C   0  0  0  0  0  0  0  0  0  0  0  0
   -2.0892    1.6846    0.0000 C   0  0  0  0  0  0  0  0  0  0  0  0
   -2.0810    3.1846    0.0000 O   0  0  0  0  0  0  0  0  0  0  0  0
   -0.7779    3.9274    0.0000 C   0  0  0  0  0  0  0  0  0  0  0  0
   -0.7943    0.9275    0.0000 C   0  0  0  0  0  0  0  0  0  0  0  0
    0.5088    1.6703    0.0000 O   0  0  0  0  0  0  0  0  0  0  0  0
    1.8037    0.9132    0.0000 C   0  0  0  0  0  0  0  0  0  0  0  0
    1.7955   -0.5868    0.0000 O   0  0  0  0  0  0  0  0  0  0  0  0
    3.0904   -1.3439    0.0000 C   0  0  0  0  0  0  0  0  0  0  0  0
    3.0821   -2.8439    0.0000 C   0  0  0  0  0  0  0  0  0  0  0  0
    4.3770   -3.6010    0.0000 O   0  0  0  0  0  0  0  0  0  0  0  0
    4.3935   -0.6011    0.0000 C   0  0  0  0  0  0  0  0  0  0  0  0
    5.6884   -1.3582    0.0000 O   0  0  0  0  0  0  0  0  0  0  0  0
    4.4017    0.8989    0.0000 C   0  0  0  0  0  0  0  0  0  0  0  0
    5.7049    1.6418    0.0000 O   0  0  0  0  0  0  0  0  0  0  0  0
    3.1068    1.6560    0.0000 C   0  0  0  0  0  0  0  0  0  0  0  0
    3.1151    3.1560    0.0000 O   0  0  0  0  0  0  0  0  0  0  0  0
  1  2  1  0
  2  3  1  0
  3  4  2  0
  4  5  1  0
  5  6  1  0
  6  7  2  0
  7  8  1  0
  8  9  2  0
  5 10  2  0
 10 11  1  0
 11 12  1  0
 12 13  1  0
 11 14  2  0
 14 15  1  0
 16 15  1  1
 16 17  1  0
 17 18  1  0
 18 19  1  1
 19 20  1  0
 18 21  1  0
 21 22  1  6
 21 23  1  0
 23 24  1  1
 23 25  1  0
 25 26  1  6
 14  3  1  0
 25 16  1  0
M  END
>  <identifier>  (1172) 
CNP0294781.1

>  <canonical_smiles>  (1172) 
COC1=CC(/C=C/C=O)=CC(OC)=C1O[C@@H]1O[C@H](CO)[C@@H](O)[C@H](O)[C@H]1O

>  <standard_inchi>  (1172) 
InChI=1S/C17H22O9/c1-23-10-6-9(4-3-5-18)7-11(24-2)16(10)26-17-15(22)14(21)13(20)12(8-19)25-17/h3-7,12-15,17,19-22H,8H2,1-2H3/b4-3+/t12-,13-,14+,15-,17+/m1/s1

>  <standard_inchi_key>  (1172) 
OYTCTPHTVUEGCL-GCPOEHJPSA-N

>  <name>  (1172) 
sinapaldehyde glucoside

>  <iupac_name>  (1172) 
(~{E})-3-[3,5-dimethoxy-4-[(2~{S},3~{R},4~{S},5~{S},6~{R})-3,4,5-trihydroxy-6-(hydroxymethyl)tetrahydropyran-2-yl]oxy-phenyl]prop-2-enal

>  <annotation_level>  (1172) 
5

>  <total_atom_count>  (1172) 
48

>  <heavy_atom_count>  (1172) 
26

>  <molecular_weight>  (1172) 
370.35

>  <exact_molecular_weight>  (1172) 
370.12638

>  <molecular_formula>  (1172) 
C17H22O9

>  <alogp>  (1172) 
-0.91

>  <topological_polar_surface_area>  (1172) 
134.91

>  <rotatable_bond_count>  (1172) 
7

>  <hydrogen_bond_acceptors>  (1172) 
9

>  <hydrogen_bond_donors>  (1172) 
4

>  <hydrogen_bond_acceptors_lipinski>  (1172) 
9

>  <hydrogen_bond_donors_lipinski>  (1172) 
4

>  <lipinski_rule_of_five_violations>  (1172) 
0

>  <aromatic_rings_count>  (1172) 
1

>  <qed_drug_likeliness>  (1172) 
0.36

>  <formal_charge>  (1172) 
0

>  <fractioncsp3>  (1172) 
0.47

>  <number_of_minimal_rings>  (1172) 
2

>  <van_der_walls_volume>  (1172) 
320.50

>  <contains_sugar>  (1172) 
True

>  <contains_ring_sugars>  (1172) 
True

>  <contains_linear_sugars>  (1172) 
False

>  <murcko_framework>  (1172) 
O(c1ccccc1)C2OCCCC2

>  <np_likeness>  (1172) 
1.86

>  <chemical_class>  (1172) 
Cinnamaldehydes

>  <chemical_sub_class>  (1172) 
Cinnamaldehydes

>  <chemical_super_class>  (1172) 
Phenylpropanoids and polyketides

>  <direct_parent_classification>  (1172) 
Cinnamaldehydes

>  <np_classifier_pathway>  (1172) 
Shikimates and Phenylpropanoids

>  <np_classifier_superclass>  (1172) 
nan

>  <np_classifier_class>  (1172) 
nan

>  <np_classifier_is_glycoside>  (1172) 
True

>  <organisms>  (1172) 
Cistanche phelypaea|Cistanche tubulosa|Eleutherococcus senticosus|Ilex rotunda|Magnolia champaca|Magnolia officinalis|Michelia champaca|Phellodendron amurense|Syringa reticulata

>  <collections>  (1172) 
AnalytiCon Discovery NPs|CMAUP (cCollective molecular activities of useful plants)|ChEBI NPs|ChemSpider NPs|Latin America dataset|NPASS|NuBBEDB|Super Natural II|TCMDB-Taiwan (Traditional Chinese Medicine database)|WikiData Natural Products|ZINC NP

>  <dois>  (1172) 
10.1002/PCA.2800020310|10.1007/S10600-011-9773-Z|10.1016/0031-9422(95)00499-8|10.1016/J.BMCL.2011.08.089|10.1016/S0031-9422(00)90536-3|10.1016/j.bmcl.2011.08.089|10.1021/NP070388C|10.1021/np070388c|10.1080/10826076.2013.832297|10.1248/CPB.58.1403|10.1590/S0100-46702007000300002

>  <synonyms>  (1172) 
(2E)-3-[4-(I(2)-D-Glucopyranosyloxy)-3,5-dimethoxyphenyl]-2-propenal|(E)-3-[3,5-dimethoxy-4-[(2S,3R,4S,5S,6R)-3,4,5-trihydroxy-6-(hydroxymethyl)oxan-2-yl]oxyphenyl]prop-2-enal|(E)-sinapaldehyde 4-O-beta-D-glucopyranoside|(E)-sinapaldehyde glucopyranoside|154461-65-1|2,6-dimethoxy-4-[(1E)-3-oxoprop-1-en-1-yl]phenyl beta-D-glucopyranoside|4-O-(beta-D-glucosyl)-trans-sinapyl aldehyde|AKOS040762351|CHEBI:142126|CHEMBL251059|DTXSID701169886|FS-10417|NCGC00385983-01|NCGC00385983-01_C17H22O9_2,6-Dimethoxy-4-[(1E)-3-oxo-1-propen-1-yl]phenyl beta-D-glucopyranoside|Sinapyl 4-O-\u221a\u00e9\u00ac\u2264-D-glucopyranoside aldehyde|sinapaldehydeglucoside|sinapyl aldehyde-4-O-beta-D-glucopyranoside|trans-4-O-(beta-D-glucosyl)-sinapoyl aldehyde|trans-sinapaldehyde beta-D-glucoside|trans-sinapaldehyde glucoside|trans-sinapic aldehyde 4-O-beta-D-glucopyranoside

>  <cas>  (1172) 
154461-65-1

$$$$

     RDKit          2D

 41 45  0  0  0  0  0  0  0  0999 V2000
    8.2654    4.7917    0.0000 C   0  0  0  0  0  0  0  0  0  0  0  0
    7.9348    3.3286    0.0000 C   0  0  0  0  0  0  0  0  0  0  0  0
    6.5025    2.8833    0.0000 C   0  0  0  0  0  0  0  0  0  0  0  0
    5.4006    3.9011    0.0000 C   0  0  0  0  0  0  0  0  0  0  0  0
    6.1719    1.4202    0.0000 C   0  0  0  0  0  0  0  0  0  0  0  0
    7.2738    0.4024    0.0000 O   0  0  0  0  0  0  0  0  0  0  0  0
    4.7396    0.9749    0.0000 C   0  0  0  0  0  0  0  0  0  0  0  0
    4.4090   -0.4883    0.0000 O   0  0  0  0  0  0  0  0  0  0  0  0
    2.9766   -0.9336    0.0000 C   0  0  0  0  0  0  0  0  0  0  0  0
    1.8748    0.0843    0.0000 C   0  0  0  0  0  0  0  0  0  0  0  0
    0.7730    1.1021    0.0000 C   0  0  0  0  0  0  0  0  0  0  0  0
   -0.6594    0.6568    0.0000 C   0  0  0  0  0  0  0  0  0  0  0  0
   -1.7612    1.6746    0.0000 C   0  0  0  0  0  0  0  0  0  0  0  0
   -1.4307    3.1377    0.0000 C   0  0  0  0  0  0  0  0  0  0  0  0
   -2.5325    4.1556    0.0000 C   0  0  0  0  0  0  0  0  0  0  0  0
   -2.2020    5.6187    0.0000 O   0  0  0  0  0  0  0  0  0  0  0  0
   -3.9649    3.7103    0.0000 O   0  0  0  0  0  0  0  0  0  0  0  0
   -4.2955    2.2471    0.0000 C   0  0  0  0  0  0  0  0  0  0  0  0
   -5.7278    1.8018    0.0000 C   0  0  0  0  0  0  0  0  0  0  0  0
   -6.2095    0.3813    0.0000 C   0  0  0  0  0  0  0  0  0  0  0  0
   -7.7094    0.4004    0.0000 O   0  0  0  0  0  0  0  0  0  0  0  0
   -8.1547    1.8328    0.0000 C   0  0  0  0  0  0  0  0  0  0  0  0
   -6.9300    2.6989    0.0000 C   0  0  0  0  0  0  0  0  0  0  0  0
   -3.1936    1.2293    0.0000 C   0  0  0  0  0  0  0  0  0  0  0  0
   -4.6260    0.7840    0.0000 C   0  0  0  0  0  0  0  0  0  0  0  0
   -3.5242   -0.2338    0.0000 C   0  0  0  0  0  0  0  0  0  0  0  0
   -2.4223   -1.2516    0.0000 C   0  0  0  0  0  0  0  0  0  0  0  0
   -0.9900   -0.8063    0.0000 C   0  0  0  0  0  0  0  0  0  0  0  0
    0.1119   -1.8242    0.0000 C   0  0  0  0  0  0  0  0  0  0  0  0
   -0.2187   -3.2873    0.0000 C   0  0  0  0  0  0  0  0  0  0  0  0
    1.5443   -1.3789    0.0000 C   0  0  0  0  0  0  0  0  0  0  0  0
    2.2433   -1.7620    0.0000 O   0  0  0  0  0  0  0  0  0  0  0  0
    1.2137   -2.8420    0.0000 C   0  0  0  0  0  0  0  0  0  0  0  0
    0.8832   -4.3051    0.0000 C   0  0  0  0  0  0  0  0  0  0  0  0
   -0.5492   -4.7504    0.0000 C   0  0  0  0  0  0  0  0  0  0  0  0
   -1.6510   -3.7326    0.0000 O   0  0  0  0  0  0  0  0  0  0  0  0
   -0.8798   -6.2135    0.0000 O   0  0  0  0  0  0  0  0  0  0  0  0
   -2.3121   -6.6588    0.0000 C   0  0  0  0  0  0  0  0  0  0  0  0
    2.6461   -2.3967    0.0000 C   0  0  0  0  0  0  0  0  0  0  0  0
    2.8359   -3.8846    0.0000 C   0  0  0  0  0  0  0  0  0  0  0  0
    4.1444   -2.4681    0.0000 C   0  0  0  0  0  0  0  0  0  0  0  0
  1  2  1  0
  2  3  2  0
  3  4  1  0
  3  5  1  0
  5  6  2  0
  5  7  1  0
  7  8  1  0
  9  8  1  1
  9 10  1  0
 10 11  1  1
 11 12  1  0
 12 13  2  0
 13 14  1  0
 14 15  1  0
 15 16  2  0
 15 17  1  0
 17 18  1  0
 18 19  1  6
 19 20  2  0
 20 21  1  0
 21 22  1  0
 22 23  2  0
 18 24  1  0
 24 25  1  6
 24 26  1  0
 26 27  1  0
 28 27  1  1
 28 29  1  0
 29 30  1  6
 29 31  1  0
 31 32  2  0
 29 33  1  0
 33 34  1  6
 34 35  1  0
 35 36  2  0
 35 37  1  0
 37 38  1  0
 33 39  1  0
 39 40  1  0
 39 41  1  0
 39  9  1  0
 31 10  1  0
 28 12  1  0
 24 13  1  0
 23 19  1  0
M  END
>  <identifier>  (1173) 
CNP0080449.1

>  <canonical_smiles>  (1173) 
C/C=C(\C)C(=O)CO[C@@H]1[C@@H]2CC3=C4CC(=O)O[C@@H](C5=COC=C5)[C@]4(C)CC[C@@H]3[C@@](C)(C2=O)[C@@H](CC(=O)OC)C1(C)C

>  <standard_inchi>  (1173) 
InChI=1S/C33H42O8/c1-8-18(2)24(34)17-40-30-21-13-20-22(33(6,28(21)37)25(31(30,3)4)15-26(35)38-7)9-11-32(5)23(20)14-27(36)41-29(32)19-10-12-39-16-19/h8,10,12,16,21-22,25,29-30H,9,11,13-15,17H2,1-7H3/b18-8+/t21-,22+,25+,29+,30-,32-,33-/m1/s1

>  <standard_inchi_key>  (1173) 
AQGPNYISVMVMTQ-LRKSHPCESA-N

>  <name>  (1173) 
nan

>  <iupac_name>  (1173) 
methyl 2-[(1~{R},2~{S},5~{R},6~{R},13~{S},14~{R},16~{S})-6-(3-furyl)-1,5,15,15-tetramethyl-14-[(~{E})-3-methyl-2-oxo-pent-3-enoxy]-8,17-dioxo-7-oxatetracyclo[11.3.1.0^{2,11}.0^{5,10}]heptadec-10-en-16-yl]acetate

>  <annotation_level>  (1173) 
4

>  <total_atom_count>  (1173) 
83

>  <heavy_atom_count>  (1173) 
41

>  <molecular_weight>  (1173) 
566.69

>  <exact_molecular_weight>  (1173) 
566.28797

>  <molecular_formula>  (1173) 
C33H42O8

>  <alogp>  (1173) 
5.72

>  <topological_polar_surface_area>  (1173) 
109.11

>  <rotatable_bond_count>  (1173) 
7

>  <hydrogen_bond_acceptors>  (1173) 
8

>  <hydrogen_bond_donors>  (1173) 
0

>  <hydrogen_bond_acceptors_lipinski>  (1173) 
8

>  <hydrogen_bond_donors_lipinski>  (1173) 
0

>  <lipinski_rule_of_five_violations>  (1173) 
2

>  <aromatic_rings_count>  (1173) 
1

>  <qed_drug_likeliness>  (1173) 
0.23

>  <formal_charge>  (1173) 
0

>  <fractioncsp3>  (1173) 
0.64

>  <number_of_minimal_rings>  (1173) 
5

>  <van_der_walls_volume>  (1173) 
nan

>  <contains_sugar>  (1173) 
False

>  <contains_ring_sugars>  (1173) 
False

>  <contains_linear_sugars>  (1173) 
False

>  <murcko_framework>  (1173) 
o1ccc(c1)C2OCCC3=C4CC5CCCC(C5)C4CCC32

>  <np_likeness>  (1173) 
2.65

>  <chemical_class>  (1173) 
Prenol lipids

>  <chemical_sub_class>  (1173) 
Triterpenoids

>  <chemical_super_class>  (1173) 
Lipids and lipid-like molecules

>  <direct_parent_classification>  (1173) 
Limonoids

>  <np_classifier_pathway>  (1173) 
Terpenoids

>  <np_classifier_superclass>  (1173) 
Triterpenoids

>  <np_classifier_class>  (1173) 
Limonoids

>  <np_classifier_is_glycoside>  (1173) 
False

>  <organisms>  (1173) 
Cipadessa baccifera|Cipadessa fruticosa

>  <collections>  (1173) 
Latin America dataset|NuBBEDB|WikiData Natural Products

>  <dois>  (1173) 
10.1515/ZNC-2009-5-623|10.1515/znc-2009-5-623

>  <synonyms>  (1173) 
khayasin T

>  <cas>  (1173) 
nan

$$$$

     RDKit          2D

 20 21  0  0  0  0  0  0  0  0999 V2000
    6.1463    0.3094    0.0000 C   0  0  0  0  0  0  0  0  0  0  0  0
    4.6496    0.4084    0.0000 C   0  0  0  0  0  0  0  0  0  0  0  0
    3.9870    1.7541    0.0000 O   0  0  0  0  0  0  0  0  0  0  0  0
    3.8155   -0.8383    0.0000 O   0  0  0  0  0  0  0  0  0  0  0  0
    2.3188   -0.7393    0.0000 C   0  0  0  0  0  0  0  0  0  0  0  0
    2.4178    0.7575    0.0000 C   0  0  0  0  0  0  0  0  0  0  0  0
    2.2197   -2.2360    0.0000 C   0  0  0  0  0  0  0  0  0  0  0  0
    0.8220   -0.6402    0.0000 C   0  0  0  0  0  0  0  0  0  0  0  0
   -0.0121   -1.8869    0.0000 C   0  0  0  0  0  0  0  0  0  0  0  0
   -1.5088   -1.7879    0.0000 C   0  0  0  0  0  0  0  0  0  0  0  0
   -2.3429   -3.0346    0.0000 O   0  0  0  0  0  0  0  0  0  0  0  0
   -2.1714   -0.4422    0.0000 C   0  0  0  0  0  0  0  0  0  0  0  0
   -3.6682   -0.3432    0.0000 C   0  0  0  0  0  0  0  0  0  0  0  0
   -4.5023   -1.5898    0.0000 C   0  0  0  0  0  0  0  0  0  0  0  0
   -4.3308    1.0026    0.0000 C   0  0  0  0  0  0  0  0  0  0  0  0
   -3.4966    2.2493    0.0000 C   0  0  0  0  0  0  0  0  0  0  0  0
   -1.9999    2.1502    0.0000 C   0  0  0  0  0  0  0  0  0  0  0  0
   -1.1658    3.3969    0.0000 C   0  0  0  0  0  0  0  0  0  0  0  0
   -1.3373    0.8045    0.0000 C   0  0  0  0  0  0  0  0  0  0  0  0
    0.1594    0.7055    0.0000 C   0  0  0  0  0  0  0  0  0  0  0  0
  1  2  1  0
  2  3  2  0
  2  4  1  0
  4  5  1  0
  5  6  1  0
  5  7  1  0
  8  5  1  6
  8  9  1  0
  9 10  1  0
 10 11  2  0
 10 12  1  0
 12 13  2  0
 13 14  1  0
 13 15  1  0
 15 16  2  0
 16 17  1  0
 17 18  1  0
 17 19  2  0
 19 20  1  0
 20  8  1  0
 19 12  1  0
M  END
>  <identifier>  (1174) 
CNP0080630.1

>  <canonical_smiles>  (1174) 
CC(=O)OC(C)(C)[C@@H]1CC(=O)C2=C(C)C=CC(C)=C2C1

>  <standard_inchi>  (1174) 
InChI=1S/C17H22O3/c1-10-6-7-11(2)16-14(10)8-13(9-15(16)19)17(4,5)20-12(3)18/h6-7,13H,8-9H2,1-5H3/t13-/m0/s1

>  <standard_inchi_key>  (1174) 
HDUJYXMXPYZQBB-ZDUSSCGKSA-N

>  <name>  (1174) 
nan

>  <iupac_name>  (1174) 
[1-[(2~{S})-5,8-dimethyl-4-oxo-tetralin-2-yl]-1-methyl-ethyl] acetate

>  <annotation_level>  (1174) 
4

>  <total_atom_count>  (1174) 
42

>  <heavy_atom_count>  (1174) 
20

>  <molecular_weight>  (1174) 
274.36

>  <exact_molecular_weight>  (1174) 
274.15689

>  <molecular_formula>  (1174) 
C17H22O3

>  <alogp>  (1174) 
3.39

>  <topological_polar_surface_area>  (1174) 
43.37

>  <rotatable_bond_count>  (1174) 
2

>  <hydrogen_bond_acceptors>  (1174) 
3

>  <hydrogen_bond_donors>  (1174) 
0

>  <hydrogen_bond_acceptors_lipinski>  (1174) 
3

>  <hydrogen_bond_donors_lipinski>  (1174) 
0

>  <lipinski_rule_of_five_violations>  (1174) 
0

>  <aromatic_rings_count>  (1174) 
1

>  <qed_drug_likeliness>  (1174) 
0.78

>  <formal_charge>  (1174) 
0

>  <fractioncsp3>  (1174) 
0.53

>  <number_of_minimal_rings>  (1174) 
2

>  <van_der_walls_volume>  (1174) 
nan

>  <contains_sugar>  (1174) 
False

>  <contains_ring_sugars>  (1174) 
False

>  <contains_linear_sugars>  (1174) 
False

>  <murcko_framework>  (1174) 
c1ccc2c(c1)CCCC2

>  <np_likeness>  (1174) 
1.16

>  <chemical_class>  (1174) 
Tetralins

>  <chemical_sub_class>  (1174) 
Tetralins

>  <chemical_super_class>  (1174) 
Benzenoids

>  <direct_parent_classification>  (1174) 
Tetralins

>  <np_classifier_pathway>  (1174) 
Terpenoids

>  <np_classifier_superclass>  (1174) 
nan

>  <np_classifier_class>  (1174) 
nan

>  <np_classifier_is_glycoside>  (1174) 
False

>  <organisms>  (1174) 
Emmotum nitens

>  <collections>  (1174) 
Latin America dataset|NuBBEDB|WikiData Natural Products

>  <dois>  (1174) 
10.1016/0031-9422(76)85091-1

>  <synonyms>  (1174) 
2-dehydroxyemmotin-F acetate

>  <cas>  (1174) 
nan

$$$$

     RDKit          2D

 19 21  0  0  0  0  0  0  0  0999 V2000
    1.3568   -3.2007    0.0000 O   0  0  0  0  0  0  0  0  0  0  0  0
    0.8261   -1.7977    0.0000 C   0  0  0  0  0  0  0  0  0  0  0  0
   -0.6542   -1.5557    0.0000 C   0  0  0  0  0  0  0  0  0  0  0  0
   -1.1849   -0.1527    0.0000 C   0  0  0  0  0  0  0  0  0  0  0  0
   -2.6652    0.0892    0.0000 C   0  0  0  0  0  0  0  0  0  0  0  0
   -3.1959    1.4922    0.0000 C   0  0  0  0  0  0  0  0  0  0  0  0
   -4.6763    1.7341    0.0000 C   0  0  0  0  0  0  0  0  0  0  0  0
   -5.6260    0.5730    0.0000 C   0  0  0  0  0  0  0  0  0  0  0  0
   -5.0953   -0.8300    0.0000 C   0  0  0  0  0  0  0  0  0  0  0  0
   -3.6149   -1.0719    0.0000 C   0  0  0  0  0  0  0  0  0  0  0  0
   -0.2352    1.0083    0.0000 O   0  0  0  0  0  0  0  0  0  0  0  0
    1.2452    0.7664    0.0000 C   0  0  0  0  0  0  0  0  0  0  0  0
    2.1949    1.9275    0.0000 C   0  0  0  0  0  0  0  0  0  0  0  0
    3.6752    1.6855    0.0000 C   0  0  0  0  0  0  0  0  0  0  0  0
    4.6249    2.8466    0.0000 O   0  0  0  0  0  0  0  0  0  0  0  0
    4.2059    0.2825    0.0000 C   0  0  0  0  0  0  0  0  0  0  0  0
    3.2562   -0.8785    0.0000 C   0  0  0  0  0  0  0  0  0  0  0  0
    3.7869   -2.2815    0.0000 O   0  0  0  0  0  0  0  0  0  0  0  0
    1.7758   -0.6366    0.0000 C   0  0  0  0  0  0  0  0  0  0  0  0
  1  2  2  0
  2  3  1  0
  3  4  1  0
  4  5  1  1
  5  6  2  0
  6  7  1  0
  7  8  2  0
  8  9  1  0
  9 10  2  0
  4 11  1  0
 11 12  1  0
 12 13  2  0
 13 14  1  0
 14 15  1  0
 14 16  2  0
 16 17  1  0
 17 18  1  0
 17 19  2  0
 19  2  1  0
 10  5  1  0
 19 12  1  0
M  END
>  <identifier>  (1175) 
CNP0175595.1

>  <canonical_smiles>  (1175) 
O=C1C[C@@H](C2=CC=CC=C2)OC2=CC(O)=CC(O)=C12

>  <standard_inchi>  (1175) 
InChI=1S/C15H12O4/c16-10-6-11(17)15-12(18)8-13(19-14(15)7-10)9-4-2-1-3-5-9/h1-7,13,16-17H,8H2/t13-/m0/s1

>  <standard_inchi_key>  (1175) 
URFCJEUYXNAHFI-ZDUSSCGKSA-N

>  <name>  (1175) 
Pinocembrin

>  <iupac_name>  (1175) 
(2~{S})-5,7-dihydroxy-2-phenyl-chroman-4-one

>  <annotation_level>  (1175) 
5

>  <total_atom_count>  (1175) 
31

>  <heavy_atom_count>  (1175) 
19

>  <molecular_weight>  (1175) 
256.26

>  <exact_molecular_weight>  (1175) 
256.07356

>  <molecular_formula>  (1175) 
C15H12O4

>  <alogp>  (1175) 
2.80

>  <topological_polar_surface_area>  (1175) 
66.76

>  <rotatable_bond_count>  (1175) 
1

>  <hydrogen_bond_acceptors>  (1175) 
4

>  <hydrogen_bond_donors>  (1175) 
2

>  <hydrogen_bond_acceptors_lipinski>  (1175) 
4

>  <hydrogen_bond_donors_lipinski>  (1175) 
2

>  <lipinski_rule_of_five_violations>  (1175) 
0

>  <aromatic_rings_count>  (1175) 
2

>  <qed_drug_likeliness>  (1175) 
0.82

>  <formal_charge>  (1175) 
0

>  <fractioncsp3>  (1175) 
0.13

>  <number_of_minimal_rings>  (1175) 
3

>  <van_der_walls_volume>  (1175) 
220.86

>  <contains_sugar>  (1175) 
False

>  <contains_ring_sugars>  (1175) 
False

>  <contains_linear_sugars>  (1175) 
False

>  <murcko_framework>  (1175) 
O1c2ccccc2CCC1c3ccccc3

>  <np_likeness>  (1175) 
1.65

>  <chemical_class>  (1175) 
Flavonoids

>  <chemical_sub_class>  (1175) 
Flavans

>  <chemical_super_class>  (1175) 
Phenylpropanoids and polyketides

>  <direct_parent_classification>  (1175) 
Flavanones

>  <np_classifier_pathway>  (1175) 
Shikimates and Phenylpropanoids

>  <np_classifier_superclass>  (1175) 
Flavonoids

>  <np_classifier_class>  (1175) 
Flavanones

>  <np_classifier_is_glycoside>  (1175) 
False

>  <organisms>  (1175) 
A new engineered strain of Saccharomyces cerevisiae BY-OA [CaCYP716C49]|Aaptos ciliata|Abies excelsa|Abies pinsapo var. marocana|Acanthosyris paulo-alvinii|Acer saccharum|Achlya heterosexualis|Aconitum contortum|Acritopappus confertus|Acrocarpia paniculata|Adenostoma sparsifolium|Adina trichotoma|Aethalium septicum|Afraegle paniculata|Afrocarpus gracilior|Agardhiella tenera|Agave xylonacantha|Ageratum mexicanum|Aglaia perviridis|Alnus maximowiczii|Alnus sieboldiana|Alnus spp.|Alpinia hainanensis|Alpinia katsumadai|Alpinia mutica|Alpinia oxyphylla|Alpinia rafflesiana|Alpinia zerumbet|Alstonia spectabilis|Alternaria macrospora|Ambrosia monogyra|Amentotaxus argotaenia|American licorice|Amomum krervanh|Amorphophallus konjac|Ampelocera edentula|Angelica acutiloba|Angelica pancicii|Aniba santalodora|Anodendron affine|Anomianthus Dulcis|Anomianthus dulcis|Anthemis cretica|Antiphiona pinnatisecta|Apis|Apis mellifera|Arabidopsis thaliana|Arachniodes exilis|Ardisia japonica|Argemone aenea|Armina maculata|Arnica mollis|Arnica parryi|Artemisia argyi|Artemisia campestris|Aspergillus ruber|Astragalus circassicus|Astragalus glycyphyllos|Athrixia elata|Baccharis aliena|Baccharis bigelovii|Baccharis salicifolia|Baccharis vaccinioides|Bacillus litoralis|Beilschmiedia madang|Bethencourtia palmensis|Betula alnoides|Boesenbergia Rotunda|Boesenbergia pandurata|Boesenbergia rotunda|Boesenbergia rotunda (LINN.) MANSF.|Bombus terrestris|Boswellia ovalifoliolata|Botryotrichum murorum|Botrytis cinerea|Bracteantha viscosa|Brassica carinata|Broussonetia Papyrifera|Broussonetia papyrifera|Bryonia alba|Bursaphelenchus mucronatus|Bursaphelenchus xylophilus|Buxus hildebrandtii|Callicarpa acuminata|Callistemon coccineus|Calophyllum inophyllum|Campanula choziatowskyi|Canthium schimperianum|Carpha glomerata|Cassinia arcuata|Cassinia subtropica|Castanea mollissima|Cedrela salvadorensis|Celastrus kusanoi|Centaurea cheiranthifolia|Centaurea scoparia|Centaurea sonchifolia|Ceratiomyxa fruticulosa|Chrysosporum ovalisporum|Cistus laurifolius|Citrus spp.|Cladanthus arabicus|Clathria basilana|Cleome droserifolia|Colchicum arenarium|Colchicum filifolium|Combretum albopunctatum|Combretum albopunctatum Suesseng|Combretum apiculatum|Cortinellus berkeleyanus|Cotinus coggygria|Cratoxylum pruniflorum|Cressa cretica|Croton geayi|Croton gratissimus|Cryptocarya concinna|Cryptocarya obovata|Cryptocarya strictifolia|Cryptostylis fulva|Cyanostegia angustifolia|Cynoglossum macrostylum|Dactylorhiza viridis|Dalbergia louvelii|Dalbergia nitidula|Dalbergia odorifera|Dalbergia parviflora|Dalbergia sissoo|Daphnandra johnsonii|Delesseria sanguinea|Dennstaedtia scabra|Dennstaedtia zeylanica|Desmos cochinchinensis|Dialium excelsum|Dianella revoluta|Diplopterygium glaucum|Diploschistes violarius|Dodonaea angustifolia|Dodonaea viscosa|Dolichlasium lagascae|Drymaria cordata|Drypetes tessmanniana|Dysidea fragilis|Dysphania graveolens|Echinacea simulata|Echinus auritus|Enicosanthum cupulare|Erechtites quadridentata|Eremophila flaccida|Eremurus chinensis|Eria linearifolia|Eriodictyon californicum|Erodendrum neriifolium|Erythrina burttii|Erythrina hypaphorus|Erythrina subumbrans|Escontria chiotilla|Esox lucius|Etmopterus spinax|Eucalyptus resinifera|Eucalyptus sieberi|Eucalyptus spp.|Eucryphia cordifolia|Euphorbia hirta|Euphorbia hylonoma|Euphrasia genargentea|Eurycoma harmandiana|Flourensia hirsuta|Flourensia ilicifolia|Flourensia retinophylla|Gaillardia coahuilensis|Garcinia cambogia|Glycyrrhiza astragalina|Glycyrrhiza glabra|Glycyrrhiza inflata|Glycyrrhiza uralensis|Goniothalamus borneensis|Goniothalamus griffithii|Gratiola officinalis|Grazielia serrata|Greyia flanaganii|Grindelia discoidea|Gymnoascus reesii|Gymnosperma glutinosum|Gyrothyra underwoodiana|Halobacillus litoralis|Hardenbergia violacea|Hardwickia pinnata|Helichrysum cymosum|Helichrysum formosissimum|Helichrysum forskahlii|Helichrysum italicum|Helichrysum oreophilum|Helichrysum spp.|Helichrysum trilineatum|Helichrysum zeyheri|Helicoverpa armigera|Heliotropium scabrum|Helleborus macranthus|Hemiselmis virescens|Hertia cheirifolia|Hippeastrum aulicum|Holothuria atra|Hura crepitans|Hylotrupes bajulus|Hypericum reptans|Iris kashmiriana|Iryanthera polyneura|Ixeris debilis|Jacobaea argunensis|Justicia betonica|Kaempferia pandurata|Kalanchoe spathulata|Kniphofia foliosa|Kokoona ochracea|Lactarius mitissimus|Laggera aurita|Lagochilus leiacanthus|Lamprolobium fruticosum|Laurencia decumbens|Lemonia spectabilis|Lentinus tigrinus|Lepechinia urbanii|Leuconostoc mesenteroides|Licaria chrysophylla|Lindera umbellata|Lippia graveolens|Lippia origanoides|Litsea glaucescens|Litsea rubescens|Lobophytum durum|Lonchocarpus chiricanus|Lophopappus tarapacanus|Lychnophora diamantinana|Lychnophora markgravii|Lychnophora pohlii|Lychnophora staavioides|Lycopodium japonicum|Lysimachia fordiana|Maackia tashiroi|Maclura cochinchinensis|Marasmiellus troyanus|Marasmius graminum|Maschalostachys markgrafii|Matricaria sabulosa|Matsucoccus josephi|Maytenus chuchuhuasha|Melaleuca cuticularis|Melodorum fruticosum|Mentha pulegium|Mentzelia decapetala|Methanosarcina barkeri|Mexican Brown Propolis|Mexican propolis|Mikania grazielae|Mimosa pigra|Mitracarpus scaber|Moschus moschiferus|Mucuna holtonii|Muntingia calabura|Nannizzia gypsea|Neolitsea villosa|Neonauclea zeylanica|Nepytia freemani|Nonomuraea dietziae|Ononis natrix|Oocystis polymorpha|Ophiocordyceps heteropoda|Orgyia pseudotsugata|Oricia gabonensis|Ormosia hosiei|Ornithoglossum viride|Oroxylum indicum|Orthosiphon spicatus|Oxytropis falcata|Ozothamnus stirlingii|Pachygone dasycarpa|Parkia clappertoniana|Parmotrema nilgherrense|Pelargonium x hortorum|Pericopsis angolensis|Persea obovatifolia|Pertusaria truncata|Petasites laevigatus|Petunia axillaris subsp. parodii|Petunia nyctaginiflora|Phoebe grandis|Phonus arborescens|Picea abies|Pinna muricata|Pinus aristata|Pinus armandi|Pinus banksiana|Pinus cembra|Pinus clausa|Pinus contorta|Pinus excelsa|Pinus jeffreyi|Pinus montana|Pinus morrisonicola|Pinus mugo|Pinus parviflora|Pinus pinaster|Pinus pinea|Pinus ponderosa|Pinus pumila|Pinus pungens|Pinus radiata|Pinus sibirica|Pinus spp.|Pinus strobus|Pinus sylvestris|Pinus taeda|Pinus virginiana|Pinus wallichiana|Piper callosum|Piper gaudichaudianum|Piper hispidum|Piper hostmannianum|Piper lanceaefolium|Piper rugosum|Piper sarmentosum|Piptothrix areolare|Pisum sativum|Pittocaulon bombycophole|Pocillopora eydouxi|Podocarpus dacrydioides|Polyachyrus sphaerocephalus|Polypodiodes niponica|Polypodium decumanum|Populus alba|Populus balsamifera|Populus candicans|Populus cathayana|Populus deltoides|Populus koreana|Populus laurifolia|Populus maximowiczii|Populus nigra|Populus simonii|Populus spp.|Populus suaveolens|Populus szechuanica|Populus tremuloides|Populus trichocarpa|Populus tristis|Populus violascens|Populus yunnanensis|Poterium sanguisorba|Preussia terricola|Propolis|Prunus avium|Prunus leveilleana|Prunus serrulata var. pubescens|Prunus spp.|Prunus verecunda|Pseudocyclosorus subochthodes|Pseudognaphalium robustum|Pseudotsuga menziesii|Pseudotsuga sinensis var. sinensis|Pseudotsuga wilsoniana|Psychotria leiocarpa|Pterocaulon serrulatum|Pterolobium hexapetalum|Pteryxia terebinthina|Pulsatilla chinensis|Punica granatum|Quercus marilandica|Ranunculus asiaticus|Ratibida columnifera|Remirea maritima|Rhizophora tagal|Rhizopus microsporus var. chinensis|Rhododendron dauricum|Roemeria hybrida|Rubia akane|Rubia tetragona|Rubus laciniatus|Rubus pileatus|Rubus pungens|Russula queletii|Salix rosmarinifolia|Salvia dichroa|Salvia lavandulifolia|Salvia lavanduloides|Salvia patens|Salvia virgata|Saussurea salicifolia|Scarlet firethorn|Schizanthus tricolor|Schizophyllum lobatum|Scutellaria discolor|Scutellaria lateriflora|Scutellaria spp.|Scutia buxifolia|Scytalidium uredinicola|Senecio canchahuinganquensis|Senecio platyphylloides|Sideritis lanata|Sinapis alba|Siphula roccellaeformis|Solanum lanceolatum|Soymida febrifuga|Sphaeranthus confertifolius|Sphaeria rousseliana|Sphaerocoryne gracilis ssp. gracilis|Sporidesmium bakeri|Stellaria dichotoma|Stenocarpella maydis|Stephania discolor|Streptomyces ambofaciens|Streptomyces bobili|Streptomyces corchorusii|Streptomyces matensis|Streptomyces ramocissimus|Streptomyces venezuelae|Strychnos amazonica|Strychnos tomentosa|Suillus granulatus|Swartzia apetala|Syzygium Samarangense|Syzygium cumini|Syzygium samarangense|Tamarix gallica|Tephrosia elata|Thalassiosira weissflogii|Trichothecium sympodiale|Trididemnum cyanophorum|Tripterygium wilfordii|Tsitsikamma favus|Turnera diffusa|Umbilicaria pustulata|Uncaria africana|Uvaria chamae|Uvaria lucida|Vachellia constricta|Vachellia pennatula|Vachellia vernicosa|Viburnum erubescens|Viguiera arenaria|Viguiera pinnatilobata|Viola hondoensis|Viscum coloratum|Vladimiria muliensis|Walsura yunnanensis|Wikstroemia viridiflora|Xanthorhiza simplicissima|Xylopia emarginata|Zebrina pendula|Zuccagnia punctata|broad bean|chinese propolis|liquorice|piper sp.|pomegranate|tarragon

>  <collections>  (1175) 
ANPDB|Australian natural products|BIOFACQUIM|BitterDB|CMAUP (cCollective molecular activities of useful plants)|ChEBI NPs|ChemSpider NPs|FooDB|InterBioScreen Ltd|KNApSaCK|Latin America dataset|Mitishamba database|NANPDB (Natural Products from Northern African Sources)|NPACT|NPASS|NPEdia|NuBBEDB|Phenol-explorer|Phyto4Health|StreptomeDB|Super Natural II|TCMDB-Taiwan (Traditional Chinese Medicine database)|TIPdb (database of Taiwan indigenous plants)|VietHerb|WikiData Natural Products

>  <dois>  (1175) 
10.1002/BMC.2970|10.1002/BSCB.19860950903|10.1002/CHIN.198844339|10.1002/ELPS.201300646|10.1002/JCCS.200700218|10.1002/JPS.3080110306|10.1002/PCA.730|10.1002/RCM.1936|10.1007/BF00381261|10.1007/BF00568245|10.1007/BF00569825|10.1007/BF00574601|10.1007/BF00599013|10.1007/BF00607554|10.1007/BF00629990|10.1007/BF00630627|10.1007/BF02236417|10.1007/BF02273921|10.1007/BF02329609|10.1007/BF02759632|10.1007/S10600-009-9291-4|10.1007/S11418-009-0368-Y|10.1016/0031-9422(83)80234-9|10.1016/0031-9422(83)83049-0|10.1016/0031-9422(88)80201-2|10.1016/0031-9422(88)80479-5|10.1016/0031-9422(88)83049-8|10.1016/0031-9422(89)80195-5|10.1016/0031-9422(89)80302-4|10.1016/0031-9422(90)80127-3|10.1016/0031-9422(90)80142-4|10.1016/0031-9422(90)85186-J|10.1016/0031-9422(90)89060-M|10.1016/0031-9422(91)84213-C|10.1016/0031-9422(91)85114-F|10.1016/0031-9422(91)85123-H|10.1016/0031-9422(93)80020-S|10.1016/0031-9422(93)85108-4|10.1016/0031-9422(93)85293-Z|10.1016/0031-9422(95)00439-E|10.1016/0031-9422(95)00559-5|10.1016/0031-9422(96)00018-0|10.1016/0031-9422(96)89776-7|10.1016/0168-9452(96)04387-7|10.1016/0378-8741(91)90022-6|10.1016/J.BMC.2009.07.041|10.1016/J.BMCL.2005.12.075|10.1016/J.BMCL.2011.10.003|10.1016/J.BMCL.2013.04.032|10.1016/J.FITOTE.2004.10.013|10.1016/J.FITOTE.2009.06.002|10.1016/J.JBIOTEC.2009.03.013|10.1016/J.JCHROMB.2004.06.048|10.1016/J.JCHROMB.2005.09.025|10.1016/J.JFCA.2006.09.005|10.1016/J.PHYMED.2007.08.002|10.1016/J.PHYMED.2011.03.013|10.1016/J.PHYTOCHEM.2003.09.014|10.1016/J.PHYTOCHEM.2008.03.025|10.1016/J.PHYTOCHEM.2011.07.002|10.1016/J.PHYTOL.2011.08.001|10.1016/J.PHYTOL.2013.12.008|10.1016/J.PLAPHY.2015.04.008|10.1016/J.SAJB.2011.10.004|10.1016/S0021-9673(00)94139-6|10.1016/S0031-9422(00)00077-7|10.1016/S0031-9422(00)00514-8|10.1016/S0031-9422(00)80155-7|10.1016/S0031-9422(00)80599-3|10.1016/S0031-9422(00)81502-2|10.1016/S0031-9422(00)81509-5|10.1016/S0031-9422(00)81569-1|10.1016/S0031-9422(00)82416-4|10.1016/S0031-9422(00)83758-9|10.1016/S0031-9422(00)83877-7|10.1016/S0031-9422(00)84791-3|10.1016/S0031-9422(00)84792-5|10.1016/S0031-9422(00)86885-5|10.1016/S0031-9422(00)90815-X|10.1016/S0031-9422(00)90867-7|10.1016/S0031-9422(00)91467-5|10.1016/S0031-9422(00)94395-4|10.1016/S0031-9422(01)00451-4|10.1016/S0031-9422(03)00112-2|10.1016/S0031-9422(97)00245-8|10.1016/S0031-9422(97)00671-7|10.1016/S0031-9422(98)00460-9|10.1016/S0031-9422(98)00646-3|10.1016/S0031-9422(98)80083-6|10.1016/S0040-4020(97)10422-7|10.1016/S0305-1978(01)00127-2|10.1016/S0305-1978(97)00117-8|10.1016/S1875-5364(12)60009-0|10.1016/j.bmc.2012.02.039|10.1016/j.bmcl.2013.04.032|10.1016/j.jbiotec.2009.03.013|10.1016/j.sajb.2013.11.012|10.1016/j.ymben.2018.10.001|10.1021/JA01559A059|10.1021/JF010016O|10.1021/JF902991T|10.1021/JO00428A006|10.1021/NP010410G|10.1021/NP020365S|10.1021/NP030008X|10.1021/NP030510H|10.1021/NP030530J|10.1021/NP040080A|10.1021/NP060253R|10.1021/NP070286M|10.1021/NP070478H|10.1021/NP200557E|10.1021/NP50028A007|10.1021/NP50043A019|10.1021/NP50043A035|10.1021/NP50081A012|10.1021/NP900068T|10.1021/NP9003323|10.1021/NP900676Y|10.1021/NP960402D|10.1021/NP970122D|10.1021/acs.jnatprod.8b00581|10.1021/acs.jnatprod.9b00721|10.1021/np010486c|10.1021/np030530j|10.1021/np070286m|10.1021/np200557e|10.1021/np50081a012|10.1021/np900068t|10.1021/np9003323|10.1021/np900676y|10.1021/np900772m|10.1039/C6RA16251G|10.1039/C9FO00799G|10.1055/S-2003-43219|10.1055/S-2004-835859|10.1055/S-2006-957585|10.1055/S-2006-957857|10.1055/S-2006-958054|10.1055/S-2006-961937|10.1071/CH9720449|10.1071/ch9640428|10.1078/094471103322331430|10.1080/10286020.2019.1642330|10.1080/13880200500385194|10.1080/14786410903292433|10.1104/PP.69.2.522|10.1246/BCSJ.44.2761|10.1248/CPB.31.1544|10.1248/CPB.34.406|10.1248/CPB.36.4174|10.1248/CPB.37.3128|10.1248/CPB.51.1147|10.1248/CPB.51.1338|10.1248/CPB.54.1063|10.1248/CPB.56.956|10.1248/CPB.57.1123|10.1248/CPB.59.1535|10.1515/ZNC-1984-3-418|10.1515/ZNC-1986-1-214|10.1515/ZNC-1987-9-1004|10.1515/ZNC-1989-5-603|10.1515/ZNC-1990-0604|10.1515/ZNC-1991-1-207|10.1515/ZNC-1992-0602|10.1515/ZNC-1992-0624|10.1515/ZNC-1992-3-423|10.1515/ZNC-1992-3-424|10.1515/ZNC-1992-7-804|10.1515/ZNC-1992-9-1022|10.1515/ZNC-1992-9-1023|10.1515/ZNC-1996-5-606|10.1590/S0102-695X2009000300005|10.3390/MOLECULES22101606|10.3390/MOLECULES23040852|10.3390/molecules23040852|10.3891/ACTA.CHEM.SCAND.03-0763|10.3891/ACTA.CHEM.SCAND.03-1375|10.3891/ACTA.CHEM.SCAND.04-0055|10.3891/ACTA.CHEM.SCAND.05-0121|10.3987/COM-89-5282|10.4103/0971-4065.82131|10.4268/CJCMM20101114

>  <synonyms>  (1175) 
(+)-Pinocembrin|(2S)-5,7-dihydroxy-2-phenyl-3,4-dihydro-2H-1-benzopyran-4-one|(2S)-pinocembrin|(2s)-5,7-dihydroxy-2-phenyl-2,3-dihydro-4h-chromen-4-one|(2~{S})-5,7-bis(oxidanyl)-2-phenyl-2,3-dihydrochromen-4-one|(S)-2,3-Dihydro-5,7-dihydroxy-2-phenyl-4H-1-benzopyran-4-one|(S)-5,7-dihydroxy-2-phenylchroman-4-one|(S)-5,7-dihydroxyflavanone|480-39-7|4H-1-Benzopyran-4-one, 2,3-dihydro-5,7-dihydroxy-2-phenyl-, (2S)-|8T7C8CH791|AC-34601|AKOS004111068|AS-56293|BDBM26667|BRD-K94689771-001-02-5|BSPBio_003329|C09827|CCG-39668|CHEBI:28157|CHEMBL399910|CS-0009111|DTXSID3075412|Dihydrochrysin|DivK1c_006992|Galangin flavanone|HMS2205J20|HY-N0575|KBio1_001936|KBio2_002401|KBio2_004969|KBio2_007537|KBio3_002549|KBioGR_002249|KBioSS_002406|LMPK12140214|MLS000697595|MLS000728654|NCGC00178137-01|NSC 43318|NSC 661207|NSC-279005|NSC-43318|Oprea1_508274|Pinocembrin|Pinocembrin (6CI)|Pinocembrin, analytical standard, 95% (TLC), solid|SCHEMBL10026578|SDCCGMLS-0066749.P001|SMR000232372|SPBio_001859|SR-01000762561|STL578139|SpecPlus_000896|Spectrum2_001670|Spectrum3_001635|Spectrum4_001765|Spectrum5_000349|Spectrum_001879|UNII-8T7C8CH791|XP162085|pinocembrine|s3941

>  <cas>  (1175) 
480-39-7

$$$$

     RDKit          2D

 14 15  0  0  0  0  0  0  0  0999 V2000
   -2.9500    2.8245    0.0000 C   0  0  0  0  0  0  0  0  0  0  0  0
   -1.4841    2.5062    0.0000 O   0  0  0  0  0  0  0  0  0  0  0  0
   -1.0269    1.0775    0.0000 C   0  0  0  0  0  0  0  0  0  0  0  0
   -2.0355   -0.0327    0.0000 C   0  0  0  0  0  0  0  0  0  0  0  0
   -1.5782   -1.4614    0.0000 C   0  0  0  0  0  0  0  0  0  0  0  0
   -2.5868   -2.5717    0.0000 O   0  0  0  0  0  0  0  0  0  0  0  0
   -0.1124   -1.7797    0.0000 N   0  0  0  0  0  0  0  0  0  0  0  0
    0.3449   -3.2083    0.0000 C   0  0  0  0  0  0  0  0  0  0  0  0
    0.8962   -0.6694    0.0000 C   0  0  0  0  0  0  0  0  0  0  0  0
    2.3621   -0.9877    0.0000 C   0  0  0  0  0  0  0  0  0  0  0  0
    3.3706    0.1226    0.0000 C   0  0  0  0  0  0  0  0  0  0  0  0
    2.9134    1.5512    0.0000 C   0  0  0  0  0  0  0  0  0  0  0  0
    1.4476    1.8695    0.0000 C   0  0  0  0  0  0  0  0  0  0  0  0
    0.4390    0.7592    0.0000 C   0  0  0  0  0  0  0  0  0  0  0  0
  1  2  1  0
  2  3  1  0
  3  4  2  0
  4  5  1  0
  5  6  2  0
  5  7  1  0
  7  8  1  0
  7  9  1  0
  9 10  2  0
 10 11  1  0
 11 12  2  0
 12 13  1  0
 13 14  2  0
 14  3  1  0
 14  9  1  0
M  END
>  <identifier>  (1176) 
CNP0413350.0

>  <canonical_smiles>  (1176) 
COC1=CC(=O)N(C)C2=CC=CC=C12

>  <standard_inchi>  (1176) 
InChI=1S/C11H11NO2/c1-12-9-6-4-3-5-8(9)10(14-2)7-11(12)13/h3-7H,1-2H3

>  <standard_inchi_key>  (1176) 
SPBLFONLHXBBQE-UHFFFAOYSA-N

>  <name>  (1176) 
4-methoxy-1-methylquinolin-2-one

>  <iupac_name>  (1176) 
4-methoxy-1-methyl-quinolin-2-one

>  <annotation_level>  (1176) 
5

>  <total_atom_count>  (1176) 
25

>  <heavy_atom_count>  (1176) 
14

>  <molecular_weight>  (1176) 
189.21

>  <exact_molecular_weight>  (1176) 
189.07898

>  <molecular_formula>  (1176) 
C11H11NO2

>  <alogp>  (1176) 
1.55

>  <topological_polar_surface_area>  (1176) 
31.23

>  <rotatable_bond_count>  (1176) 
1

>  <hydrogen_bond_acceptors>  (1176) 
3

>  <hydrogen_bond_donors>  (1176) 
0

>  <hydrogen_bond_acceptors_lipinski>  (1176) 
3

>  <hydrogen_bond_donors_lipinski>  (1176) 
0

>  <lipinski_rule_of_five_violations>  (1176) 
0

>  <aromatic_rings_count>  (1176) 
2

>  <qed_drug_likeliness>  (1176) 
0.68

>  <formal_charge>  (1176) 
0

>  <fractioncsp3>  (1176) 
0.18

>  <number_of_minimal_rings>  (1176) 
2

>  <van_der_walls_volume>  (1176) 
170.46

>  <contains_sugar>  (1176) 
False

>  <contains_ring_sugars>  (1176) 
False

>  <contains_linear_sugars>  (1176) 
False

>  <murcko_framework>  (1176) 
c1ccc2NCC=Cc2c1

>  <np_likeness>  (1176) 
-0.36

>  <chemical_class>  (1176) 
Quinolines and derivatives

>  <chemical_sub_class>  (1176) 
Quinolones and derivatives

>  <chemical_super_class>  (1176) 
Organoheterocyclic compounds

>  <direct_parent_classification>  (1176) 
Hydroquinolones

>  <np_classifier_pathway>  (1176) 
Alkaloids

>  <np_classifier_superclass>  (1176) 
Tryptophan alkaloids

>  <np_classifier_class>  (1176) 
Quinoline alkaloids

>  <np_classifier_is_glycoside>  (1176) 
False

>  <organisms>  (1176) 
Acronychia laurifolia|Adiscanthus fusciflorus|Agave deserti|Aglaia pyramidata|Alchornea cordifolia|Alexandrium excavatum|Alpinia officinarum|Amomum daniellii|Amomum reticulatum|Andreadoxa flava|Arachniodes mutica|Asclepias subulata|Ascodesmis sphaerospora|Atalantia wightii|Balanophora japonica|Calcarisporium thermophilum|Caralluma russeliana|Casimiroa edulis|Celastrus monospermus|Clausena Lansium|Clausena anisata|Clausena lansium|Clausena vestita|Conium maculatum|Corydalis persica|Corynanthe pachyceras|Cota tinctoria|Cynoglossum amabile|Cystoseira caespitosa|Dalbergia monetaria|Dendrobates abditus|Drummondita calida|Drummondita hassellii|Dysidea villosa|Espeletiopsis purpurascens|Euodia|Eutrochium purpureum|Fagara nitida|Flavoparmelia caperata|Flueggea microcarpa|Geijera balansae|Gentiana strictiflora|Glinus oppositifolius|Glycosmis pseudoracemosa|Grosvenoria rimbachii|Haplophyllum dauricum|Helianthus californicus|Helminthosporium victoriae|Hesperethusa crenulata|Hortia longifolia|Hortonia floribunda|Hosta sieboldiana|Hygrophorus eburneus|Hypholoma capnoides|Imperata cylindrica|Inula grantioides|Inula salsoloides|Jacobaea cannabifolia|Jasione montana|Juniperus horizontalis|Jurinea maxima|Lactarius deliciosus var. deterrimus|Lactarius fuliginosus|Lactarius subpiperatus|Lathyrus tingitanus|Limonia acidissima|Machilus odoratissima|Machilus zuihoensis|Melicope lunu-ankenda|Morinda coreia|Mycetia nutans|Myrtopsis sellingii|Naja naja|Naringi crenulata|Notechis scutatus|Notonia grandiflora|Ophiopholis aculeata|Parmelia zollingeri|Passiflora morifolia|Peucedanum oroselinum|Pilocarpus grandiflorus|Plakortis simplex|Plectosphaerella cucumerina|Plectranthus caninus|Plectranthus hereroensis|Polypodium aureum|Psiadia anchusifolia|Pyrenula japonica|Raputia praetermissa|Rauvolfia salicifolia|Rhizoplaca baranowii|Rosa transmorrisonensis|Ruta chalepensis|Ruta graveolens|Ruta montana|Salmonella enterica subsp. enterica serovar bovismorbificans|Schrebera swietenoides|Senecio gilliesi|Sideritis perfoliata|Solanum spirale|Sophora leachiana|Spiraea prunifolia|Streptomyces globisporus|Streptomyces griseocarneus|Streptomyces sulfonofaciens|Streptomyces tateyamensis|Strychnos spinosa|Takifugu rubripes|Talipariti tiliaceum|Tephrosia bidwilli|Tetradium glabrifolium|Thielavia terricola|Ticorea longiflora|Toddalia Asiatica|Toddalia asiatica|Ursinia anthemoides|Vernonia lilacina|White sapote|Xanthoria parietina|Zanthoxylum ailanthoides|Zanthoxylum asiaticum|Zanthoxylum avicennae|Zanthoxylum chiloperone|Zanthoxylum decaryi|Zanthoxylum integrifoliolum|Zanthoxylum nitidum|Zanthoxylum schinifolium|Zanthoxylum simulans|Zanthoxylum wutaiense

>  <collections>  (1176) 
ANPDB|Australian natural products|BIOFACQUIM|CMAUP (cCollective molecular activities of useful plants)|ETM (Ethiopian Traditional Medicine) DB|KNApSaCK|Latin America dataset|Mitishamba database|NANPDB (Natural Products from Northern African Sources)|NPASS|NuBBEDB|Phyto4Health|PubChem NPs|Super Natural II|TCMDB-Taiwan (Traditional Chinese Medicine database)|TCMID (Traditional Chinese Medicine Integrated Database)|TIPdb (database of Taiwan indigenous plants)|UNPD (Universal Natural Products Database)|VietHerb|WikiData Natural Products|ZINC NP

>  <dois>  (1176) 
10.1002/CBDV.200800107|10.1002/CBDV.201000127|10.1002/HLCA.200900337|10.1002/JCCS.200300178|10.1002/JCCS.200700112|10.1007/BF00574794|10.1016/0031-9422(74)80113-5|10.1016/0031-9422(80)83207-9|10.1016/0031-9422(92)80274-I|10.1016/0031-9422(92)80274-i|10.1016/0031-9422(95)00248-6|10.1016/J.BMC.2005.07.050|10.1016/J.BSE.2003.09.006|10.1016/J.EJMECH.2011.10.047|10.1016/S0031-9422(00)80844-4|10.1016/S0031-9422(00)97039-0|10.1016/S0031-9422(00)97306-0|10.1016/S0031-9422(96)00877-1|10.1016/S0031-9422(97)00678-X|10.1016/S0031-9422(97)89023-1|10.1016/S0031-9422(99)00235-6|10.1016/S0031-9422(99)00486-0|10.1016/j.ejmech.2011.10.047|10.1021/JF9802373|10.1021/JO00829A053|10.1021/NP000012Y|10.1021/NP070594K|10.1021/NP50039A034|10.1021/NP50041A009|10.1021/NP50047A022|10.1021/np070594k|10.1055/S-0028-1097674|10.1055/S-2000-8648|10.1248/CPB.43.2014|10.1248/YAKUSHI1947.111.7_365|10.1515/ZNB-2005-0715|10.1590/S0100-40422010001000024|10.1590/S0103-50532011000700021|10.3390/molecules23102693

>  <synonyms>  (1176) 
1-Methyl-4-methoxy-2-quinolone|1-methyl-4-methoxy-2-quinolone, 4-Methoxy-N-methylquinolone, N-methyl-4-methoxy-2-quinolone|2(1H)-Quinolinone, 4-methoxy-1-methyl-|32262-18-3|4-Methoxy-1-methyl-2-quinolone|4-Methoxy-1-methylquinolin-2-one; 4-Methoxy-N-methyl-2-quinolone; N-Methyl-4-methoxy-2-quinolone|4-Methoxy-N-Methyl-quinol-2-one|4-methoxy-1-methyl-2(1H)-quinolinone|4-methoxy-1-methyl-quinolin-2-one|AKOS006281157|CHEBI:229016|CHEMBL402069|Cambridge id 5192550|Carbostyril, 4-methoxy-1-methyl-|DB-332412|DTXSID80186013|FS-9480|HMS2473B12|MLS000532185|N-Methyl-4-methoxycarbostyril|NCGC00245725-01|Opera_ID_952|Oprea1_633116|SCHEMBL11379787|SMR000137126|SPBLFONLHXBBQE-UHFFFAOYSA-N

>  <cas>  (1176) 
32262-18-3

$$$$

     RDKit          2D

  7  6  0  0  0  0  0  0  0  0999 V2000
   -3.8971   -0.3214    0.0000 C   0  0  0  0  0  0  0  0  0  0  0  0
   -2.5981    0.4286    0.0000 C   0  0  0  0  0  0  0  0  0  0  0  0
   -1.2990   -0.3214    0.0000 C   0  0  0  0  0  0  0  0  0  0  0  0
    0.0000    0.4286    0.0000 S   0  0  0  0  0  0  0  0  0  0  0  0
    1.2990   -0.3214    0.0000 C   0  0  0  0  0  0  0  0  0  0  0  0
    2.5981    0.4286    0.0000 C   0  0  0  0  0  0  0  0  0  0  0  0
    3.8971   -0.3214    0.0000 C   0  0  0  0  0  0  0  0  0  0  0  0
  1  2  2  0
  2  3  1  0
  3  4  1  0
  4  5  1  0
  5  6  1  0
  6  7  2  0
M  END
>  <identifier>  (1177) 
CNP0303954.0

>  <canonical_smiles>  (1177) 
C=CCSCC=C

>  <standard_inchi>  (1177) 
InChI=1S/C6H10S/c1-3-5-7-6-4-2/h3-4H,1-2,5-6H2

>  <standard_inchi_key>  (1177) 
UBJVUCKUDDKUJF-UHFFFAOYSA-N

>  <name>  (1177) 
DIALLYL SULFIDE

>  <iupac_name>  (1177) 
3-allylsulfanylprop-1-ene

>  <annotation_level>  (1177) 
5

>  <total_atom_count>  (1177) 
17

>  <heavy_atom_count>  (1177) 
7

>  <molecular_weight>  (1177) 
114.21

>  <exact_molecular_weight>  (1177) 
114.05032

>  <molecular_formula>  (1177) 
C6H10S

>  <alogp>  (1177) 
2.09

>  <topological_polar_surface_area>  (1177) 
0.00

>  <rotatable_bond_count>  (1177) 
4

>  <hydrogen_bond_acceptors>  (1177) 
1

>  <hydrogen_bond_donors>  (1177) 
0

>  <hydrogen_bond_acceptors_lipinski>  (1177) 
1

>  <hydrogen_bond_donors_lipinski>  (1177) 
0

>  <lipinski_rule_of_five_violations>  (1177) 
0

>  <aromatic_rings_count>  (1177) 
0

>  <qed_drug_likeliness>  (1177) 
0.40

>  <formal_charge>  (1177) 
0

>  <fractioncsp3>  (1177) 
0.33

>  <number_of_minimal_rings>  (1177) 
0

>  <van_der_walls_volume>  (1177) 
119.78

>  <contains_sugar>  (1177) 
False

>  <contains_ring_sugars>  (1177) 
False

>  <contains_linear_sugars>  (1177) 
False

>  <murcko_framework>  (1177) 
nan

>  <np_likeness>  (1177) 
0.05

>  <chemical_class>  (1177) 
Allyl sulfur compounds

>  <chemical_sub_class>  (1177) 
Allyl sulfur compounds

>  <chemical_super_class>  (1177) 
Organosulfur compounds

>  <direct_parent_classification>  (1177) 
Allyl sulfur compounds

>  <np_classifier_pathway>  (1177) 
nan

>  <np_classifier_superclass>  (1177) 
nan

>  <np_classifier_class>  (1177) 
nan

>  <np_classifier_is_glycoside>  (1177) 
False

>  <organisms>  (1177) 
Adenocalymma alliaceum|Alliaria petiolata|Allium Sativum|Allium cepa|Allium chinense|Allium ericetorum|Allium fistulosum|Allium macrochaetum|Allium macrostemon|Allium odorum|Allium ramosum|Allium sativum|Allium spp|Allium spp.|Anemone tomentosa|Aniba megaphylla|Aplophyllum pedicellatum|Berberis integerrima|Bohadschia vitiensis|Brassica nigra|Bulbus allii fistulosi|Chrysosplenium americanum|Colpomenia sinuosa|Elephantopus angustifolius|Eritrichium sericeum|Herbertus sakuraii|Homo sapiens|Isoplexis sceptrum|Libocedrus decurrens|Lobophytum schoedei|Loranthus parasiticus|Mansoa alliacea|Nauclea latifolia|Olea europaea|Ovibos moschatus|Phlogacanthus tubiflorus|Rhodospirillum rubrum|Sabia japonica|Streptomyces argenteolus|Streptomyces pentaticus|Wasabia japonica|Woodsia manchuriensis|garlic

>  <collections>  (1177) 
CMAUP (cCollective molecular activities of useful plants)|ChEBI NPs|ETM (Ethiopian Traditional Medicine) DB|FooDB|KNApSaCK|Latin America dataset|NPACT|NPASS|NPCARE|NPEdia|NuBBEDB|PeruNPDB|Super Natural II|TCMDB-Taiwan (Traditional Chinese Medicine database)|TCMID (Traditional Chinese Medicine Integrated Database)|UNPD (Universal Natural Products Database)|VietHerb|WikiData Natural Products

>  <dois>  (1177) 
10.1002/ARDP.18922300603|10.1002/ARDP.18922300604|10.1002/CNCR.22888|10.1002/TOX.20737|10.1007/BF00416666|10.1007/S10495-006-0024-X|10.1016/0021-9673(94)80162-2|10.1016/0378-4274(92)90288-U|10.1016/J.FCT.2003.08.015|10.1016/S0021-9673(00)91342-6|10.1021/JF00025A008|10.1021/JF00059A033|10.1021/JF00125A014|10.1021/JF9803076|10.1021/jf00125a014|10.1021/np3005248|10.1055/S-2007-969089|10.1080/01635589109514116|10.1080/10412905.1997.9700732|10.1099/0022-1317-50-7-646|10.1186/1756-3305-7-184|10.3390/mol2net-03-04617

>  <synonyms>  (1177) 
(CH2=CHCH2)2S|1-Propene, 3,3'-thiobis-|2-Propenyl sulphide|3,3'-Thiobis-1-propene, 9CI|3,3'-thiobis(prop-1-ene)|3,3-Thiobis(1-propene)|3-(Allylsulfanyl)-1-propene #|3-Allylsulfanyl-propene|3-allylsulfanylprop-1-ene|3-prop-2-enylsulfanylprop-1-ene|4-01-00-02097 (Beilstein Handbook Reference)|4-Thia-1,6-heptadiene|592-88-1|60G7CF7CWZ|A0235|AI3-18865|AKOS015897442|ALLYL SULFIDE [FHFI]|ALLYL SULFIDE [HSDB]|ALLYL SULFIDE [MI]|ALLYL SULFIDE [USP-RS]|Allyl monosulfide|Allyl sulfide|Allyl sulfide, 97%|Allyl sulfide, >=97%, FG|Allyl sulfide, United States Pharmacopeia (USP) Reference Standard|Allyl sulfide, analytical standard|Allyl sulphide|BDBM50318452|BRN 1736016|BSPBio_003591|C08370|CCG-40295|CCRIS 3252|CHEBI:4489|CHEMBL170458|DB-053358|DI(2-PROPENYL) SULPHIDE|DTXSID6060470|Di(2-propenyl) sulfide|Di-2-propenyl-sulfane|Diallyl monosulfide|Diallyl sulphide|Diallyl thioether|Diallysulfide|EINECS 209-775-1|EN300-220520|FEMA 2042|FEMA No. 2042|HSDB 7333|InChI=1\/C6H10S\/c1-3-5-7-6-4-2\/h3-4H,1-2,5-6H|KBio3_003027|LS-13159|MFCD00008658|NCGC00095345-01|NS00012208|NSC 20947|NSC-20947|Prop-1-ene-3,3'-thiobis|Q-100687|Q11587666|SCHEMBL45800|SDCCGMLS-0066835.P001|SPBio_000793|SPECTRUM1505293|SR-05000002373|STL453662|Spectrum2_000837|Spectrum3_001991|Thioallyl ether|UNII-60G7CF7CWZ|WLN: 1U2S2U1|Z1208219429|di-2-Propenyl sulfide|diallyl monosulphide|diallylsulfane|diallylsulfide

>  <cas>  (1177) 
592-88-1

$$$$

     RDKit          2D

 11 11  0  0  0  0  0  0  0  0999 V2000
   -2.3345    1.5423    0.0000 O   0  0  0  0  0  0  0  0  0  0  0  0
   -2.4879    0.0502    0.0000 C   0  0  0  0  0  0  0  0  0  0  0  0
   -3.8568   -0.5630    0.0000 O   0  0  0  0  0  0  0  0  0  0  0  0
   -1.2724   -0.8287    0.0000 C   0  0  0  0  0  0  0  0  0  0  0  0
    0.0966   -0.2156    0.0000 C   0  0  0  0  0  0  0  0  0  0  0  0
    0.2500    1.2766    0.0000 C   0  0  0  0  0  0  0  0  0  0  0  0
    1.6189    1.8898    0.0000 C   0  0  0  0  0  0  0  0  0  0  0  0
    2.8344    1.0108    0.0000 C   0  0  0  0  0  0  0  0  0  0  0  0
    2.6810   -0.4813    0.0000 C   0  0  0  0  0  0  0  0  0  0  0  0
    1.3121   -1.0945    0.0000 C   0  0  0  0  0  0  0  0  0  0  0  0
    1.1586   -2.5866    0.0000 O   0  0  0  0  0  0  0  0  0  0  0  0
  1  2  2  0
  2  3  1  0
  2  4  1  0
  4  5  1  0
  5  6  2  0
  6  7  1  0
  7  8  2  0
  8  9  1  0
  9 10  2  0
 10 11  1  0
 10  5  1  0
M  END
>  <identifier>  (1178) 
CNP0298923.0

>  <canonical_smiles>  (1178) 
O=C(O)CC1=CC=CC=C1O

>  <standard_inchi>  (1178) 
InChI=1S/C8H8O3/c9-7-4-2-1-3-6(7)5-8(10)11/h1-4,9H,5H2,(H,10,11)

>  <standard_inchi_key>  (1178) 
CCVYRRGZDBSHFU-UHFFFAOYSA-N

>  <name>  (1178) 
2-Hydroxyphenylacetic acid

>  <iupac_name>  (1178) 
2-(2-hydroxyphenyl)acetic acid

>  <annotation_level>  (1178) 
5

>  <total_atom_count>  (1178) 
19

>  <heavy_atom_count>  (1178) 
11

>  <molecular_weight>  (1178) 
152.15

>  <exact_molecular_weight>  (1178) 
152.04734

>  <molecular_formula>  (1178) 
C8H8O3

>  <alogp>  (1178) 
1.02

>  <topological_polar_surface_area>  (1178) 
57.53

>  <rotatable_bond_count>  (1178) 
2

>  <hydrogen_bond_acceptors>  (1178) 
2

>  <hydrogen_bond_donors>  (1178) 
2

>  <hydrogen_bond_acceptors_lipinski>  (1178) 
2

>  <hydrogen_bond_donors_lipinski>  (1178) 
2

>  <lipinski_rule_of_five_violations>  (1178) 
0

>  <aromatic_rings_count>  (1178) 
1

>  <qed_drug_likeliness>  (1178) 
0.66

>  <formal_charge>  (1178) 
0

>  <fractioncsp3>  (1178) 
0.13

>  <number_of_minimal_rings>  (1178) 
1

>  <van_der_walls_volume>  (1178) 
136.86

>  <contains_sugar>  (1178) 
False

>  <contains_ring_sugars>  (1178) 
False

>  <contains_linear_sugars>  (1178) 
False

>  <murcko_framework>  (1178) 
c1ccccc1

>  <np_likeness>  (1178) 
0.35

>  <chemical_class>  (1178) 
Benzene and substituted derivatives

>  <chemical_sub_class>  (1178) 
Phenylacetic acids

>  <chemical_super_class>  (1178) 
Benzenoids

>  <direct_parent_classification>  (1178) 
2(hydroxyphenyl)acetic acids

>  <np_classifier_pathway>  (1178) 
Shikimates and Phenylpropanoids

>  <np_classifier_superclass>  (1178) 
Phenolic acids (C6-C1)

>  <np_classifier_class>  (1178) 
Simple phenolic acids

>  <np_classifier_is_glycoside>  (1178) 
False

>  <organisms>  (1178) 
Aloe africana|Aloe ferox|Aloe spicata|Aloe vera|Astilbe chinensis|Astilbe rubra|Capparis spinosa|Echium vulgare|Grosmannia crassivaginata|Homo sapiens|Mus musculus|Oenothera biennis|Oenothera suaveolens|Penicillium chrysogenum|Phomopsis cassiae|Pinus mugo|Rhaponticum carthamoides|Secamone afzelii|Thermoactinomyces|Tragopogon orientalis|Tragopogon pratensis

>  <collections>  (1178) 
Australian natural products|CMAUP (cCollective molecular activities of useful plants)|ChEBI NPs|ChemSpider NPs|EMNPD|Exposome-explorer|FooDB|Latin America dataset|Marine Natural Products|NPASS|NPEdia|NuBBEDB|Phenol-explorer|ReSpect|Super Natural II|TCMDB-Taiwan (Traditional Chinese Medicine database)|TCMID (Traditional Chinese Medicine Integrated Database)|UNPD (Universal Natural Products Database)|WikiData Natural Products

>  <dois>  (1178) 
10.1007/S11306-016-1051-4|10.1016/0031-9422(94)00630-C|10.1016/j.indcrop.2015.07.040|10.1021/NP1008976|10.1021/np1008976|10.1080/10286020.2010.546355|10.1093/pcp/pcn183|10.1099/jmm.0.028126-0|10.1126/science.129.3362.1553|10.1371/journal.pone.0073076|10.1590/S0103-50532005000800029|10.17660/ACTAHORTIC.2003.597.15|10.3945/jn.109.113613|10.5586/ASBP.1985.037|10.5586/ASBP.1988.009|10.5586/ASBP.1995.007|10.5586/ASBP.1998.029|10.7164/ANTIBIOTICS.48.1345

>  <synonyms>  (1178) 
(o-Hydroxyphenyl)acetic acid|(o-hydroxyphenyl)-Acetate|2-(2-hydroxyphenyl)acetic acid|2-HPAA|2-Hydroxybenzeneacetate|2-Hydroxybenzeneacetic acid|2-Hydroxyphenylacetate|2-Hydroxyphenylacetic acid, ReagentPlus(R), 99%|2-Hydroxyphenylacetic acid, Vetec(TM) reagent grade, 98%|2-hydroxy-benzeneaceticaci;2-hydroxyphenylacetate|614-75-5|7C10F5F6-7BF6-48EE-85EE-22D3FA4D62B1|A26509|AC-2695|AKOS004909470|AM20060692|Acetic acid, (o-hydroxyphenyl)-|BDBM16426|BP-13099|Benzeneacetic acid, 2-hydroxy-|C05852|CHEBI:28478|CHEMBL240714|CS-W016306|DB-013545|DTXSID1060633|EINECS 210-393-2|EN300-50865|FS-2587|H-7080|H0340|HY-W015590|HYDROXYPHENYLACETIC ACID, O-|InChI=1\/C8H8O3\/c9-7-4-2-1-3-6(7)5-8(10)11\/h1-4,9H,5H2,(H,10,11|MFCD00004323|NS00014664|NSC 62000|NSC-62000|O-HYDROXYPHENYLACETIC ACID|OHP|PD099467|Q27103728|SCHEMBL72309|STL301502|UK3R9Q59AV|UNII-UK3R9Q59AV|Z608061328|bmse000715|ortho-Hydroxyphenylacetic acid|s6154

>  <cas>  (1178) 
614-75-5

$$$$

     RDKit          2D

 34 37  0  0  0  0  0  0  0  0999 V2000
    8.1933   -1.0544    0.0000 C   0  0  0  0  0  0  0  0  0  0  0  0
    6.7257   -1.3646    0.0000 C   0  0  0  0  0  0  0  0  0  0  0  0
    5.7233   -0.2487    0.0000 C   0  0  0  0  0  0  0  0  0  0  0  0
    6.0368    1.2181    0.0000 C   0  0  0  0  0  0  0  0  0  0  0  0
    7.4078    1.8267    0.0000 O   0  0  0  0  0  0  0  0  0  0  0  0
    4.7386    1.9696    0.0000 C   0  0  0  0  0  0  0  0  0  0  0  0
    3.6227    0.9672    0.0000 C   0  0  0  0  0  0  0  0  0  0  0  0
    2.1311    1.1256    0.0000 C   0  0  0  0  0  0  0  0  0  0  0  0
    1.5226    2.4967    0.0000 C   0  0  0  0  0  0  0  0  0  0  0  0
    0.0310    2.6551    0.0000 C   0  0  0  0  0  0  0  0  0  0  0  0
   -0.8521    1.4426    0.0000 C   0  0  0  0  0  0  0  0  0  0  0  0
   -2.3437    1.6011    0.0000 C   0  0  0  0  0  0  0  0  0  0  0  0
   -2.9522    2.9721    0.0000 O   0  0  0  0  0  0  0  0  0  0  0  0
   -4.4438    3.1306    0.0000 C   0  0  0  0  0  0  0  0  0  0  0  0
   -5.0524    4.5016    0.0000 C   0  0  0  0  0  0  0  0  0  0  0  0
   -5.3269    1.9180    0.0000 O   0  0  0  0  0  0  0  0  0  0  0  0
   -3.2267    0.3886    0.0000 C   0  0  0  0  0  0  0  0  0  0  0  0
   -4.7183    0.5470    0.0000 O   0  0  0  0  0  0  0  0  0  0  0  0
   -5.6014   -0.6655    0.0000 C   0  0  0  0  0  0  0  0  0  0  0  0
   -7.0930   -0.5070    0.0000 C   0  0  0  0  0  0  0  0  0  0  0  0
   -4.9928   -2.0365    0.0000 O   0  0  0  0  0  0  0  0  0  0  0  0
   -2.6182   -0.9825    0.0000 C   0  0  0  0  0  0  0  0  0  0  0  0
   -3.5012   -2.1950    0.0000 O   0  0  0  0  0  0  0  0  0  0  0  0
   -2.8927   -3.5660    0.0000 C   0  0  0  0  0  0  0  0  0  0  0  0
   -3.7757   -4.7785    0.0000 C   0  0  0  0  0  0  0  0  0  0  0  0
   -1.4010   -3.7245    0.0000 O   0  0  0  0  0  0  0  0  0  0  0  0
   -1.1266   -1.1409    0.0000 C   0  0  0  0  0  0  0  0  0  0  0  0
   -0.2435    0.0716    0.0000 C   0  0  0  0  0  0  0  0  0  0  0  0
    0.3650   -1.2994    0.0000 C   0  0  0  0  0  0  0  0  0  0  0  0
    1.2481   -0.0869    0.0000 C   0  0  0  0  0  0  0  0  0  0  0  0
    1.8567   -1.4579    0.0000 C   0  0  0  0  0  0  0  0  0  0  0  0
    3.3483   -1.6164    0.0000 C   0  0  0  0  0  0  0  0  0  0  0  0
    4.2313   -0.4038    0.0000 C   0  0  0  0  0  0  0  0  0  0  0  0
    4.9798   -1.7037    0.0000 C   0  0  0  0  0  0  0  0  0  0  0  0
  1  2  1  0
  3  2  1  6
  3  4  1  0
  4  5  2  0
  4  6  1  0
  6  7  1  0
  7  8  1  0
  8  9  1  0
  9 10  1  0
 10 11  1  0
 11 12  1  0
 12 13  1  6
 13 14  1  0
 14 15  1  0
 14 16  2  0
 12 17  1  0
 17 18  1  6
 18 19  1  0
 19 20  1  0
 19 21  2  0
 17 22  1  0
 22 23  1  6
 23 24  1  0
 24 25  1  0
 24 26  2  0
 22 27  1  0
 27 28  1  0
 28 29  1  6
 28 30  1  0
 30 31  1  0
 31 32  1  0
 32 33  1  0
 33 34  1  6
 33  3  1  0
 33  7  1  0
 30  8  1  0
 28 11  1  0
M  END
>  <identifier>  (1179) 
CNP0080468.2

>  <canonical_smiles>  (1179) 
CC[C@H]1C(=O)CC2C3CCC4[C@@H](OC(C)=O)[C@@H](OC(C)=O)[C@@H](OC(C)=O)C[C@]4(C)C3CC[C@@]21C

>  <standard_inchi>  (1179) 
InChI=1S/C27H40O7/c1-7-18-22(31)12-21-17-8-9-20-24(33-15(3)29)25(34-16(4)30)23(32-14(2)28)13-27(20,6)19(17)10-11-26(18,21)5/h17-21,23-25H,7-13H2,1-6H3/t17?,18-,19?,20?,21?,23-,24+,25-,26+,27+/m0/s1

>  <standard_inchi_key>  (1179) 
PLZPNDBFLGCZTJ-UHRGIHEZSA-N

>  <name>  (1179) 
nan

>  <iupac_name>  (1179) 
[(2~{S},3~{S},4~{R},10~{R},13~{S},17~{R})-3,4-diacetoxy-17-ethyl-10,13-dimethyl-16-oxo-1,2,3,4,5,6,7,8,9,11,12,14,15,17-tetradecahydrocyclopenta[a]phenanthren-2-yl] acetate

>  <annotation_level>  (1179) 
4

>  <total_atom_count>  (1179) 
74

>  <heavy_atom_count>  (1179) 
34

>  <molecular_weight>  (1179) 
476.61

>  <exact_molecular_weight>  (1179) 
476.2774

>  <molecular_formula>  (1179) 
C27H40O7

>  <alogp>  (1179) 
4.25

>  <topological_polar_surface_area>  (1179) 
95.97

>  <rotatable_bond_count>  (1179) 
4

>  <hydrogen_bond_acceptors>  (1179) 
7

>  <hydrogen_bond_donors>  (1179) 
0

>  <hydrogen_bond_acceptors_lipinski>  (1179) 
7

>  <hydrogen_bond_donors_lipinski>  (1179) 
0

>  <lipinski_rule_of_five_violations>  (1179) 
0

>  <aromatic_rings_count>  (1179) 
0

>  <qed_drug_likeliness>  (1179) 
0.44

>  <formal_charge>  (1179) 
0

>  <fractioncsp3>  (1179) 
0.85

>  <number_of_minimal_rings>  (1179) 
4

>  <van_der_walls_volume>  (1179) 
nan

>  <contains_sugar>  (1179) 
False

>  <contains_ring_sugars>  (1179) 
False

>  <contains_linear_sugars>  (1179) 
False

>  <murcko_framework>  (1179) 
C1CCC2C(C1)CCC3C4CCCC4CCC23

>  <np_likeness>  (1179) 
2.23

>  <chemical_class>  (1179) 
Steroids and steroid derivatives

>  <chemical_sub_class>  (1179) 
Steroid esters

>  <chemical_super_class>  (1179) 
Lipids and lipid-like molecules

>  <direct_parent_classification>  (1179) 
Steroid esters

>  <np_classifier_pathway>  (1179) 
Terpenoids

>  <np_classifier_superclass>  (1179) 
Steroids

>  <np_classifier_class>  (1179) 
Pregnane steroids

>  <np_classifier_is_glycoside>  (1179) 
False

>  <organisms>  (1179) 
Trichilia claussenii

>  <collections>  (1179) 
Latin America dataset|NuBBEDB

>  <dois>  (1179) 
10.1016/S0031-9422(97)00167-2

>  <synonyms>  (1179) 
2\u221a\u00e9\u00ac\u22643\u221a\u00e9\u00ac\u22644\u221a\u00e9\u00ac\u2264-Triacetoxypregnan-16-one

>  <cas>  (1179) 
nan

$$$$

     RDKit          2D

 40 45  0  0  0  0  0  0  0  0999 V2000
   -9.6233    0.4912    0.0000 C   0  0  0  0  0  0  0  0  0  0  0  0
   -8.1266    0.5907    0.0000 O   0  0  0  0  0  0  0  0  0  0  0  0
   -7.2921   -0.6558    0.0000 C   0  0  0  0  0  0  0  0  0  0  0  0
   -7.9543   -2.0017    0.0000 O   0  0  0  0  0  0  0  0  0  0  0  0
   -5.7954   -0.5564    0.0000 C   0  0  0  0  0  0  0  0  0  0  0  0
   -5.9574   -2.0476    0.0000 C   0  0  0  0  0  0  0  0  0  0  0  0
   -6.1532    0.9003    0.0000 C   0  0  0  0  0  0  0  0  0  0  0  0
   -5.0706    1.9386    0.0000 C   0  0  0  0  0  0  0  0  0  0  0  0
   -3.6302    1.5201    0.0000 C   0  0  0  0  0  0  0  0  0  0  0  0
   -3.9880    2.9768    0.0000 C   0  0  0  0  0  0  0  0  0  0  0  0
   -2.5475    2.5583    0.0000 C   0  0  0  0  0  0  0  0  0  0  0  0
   -1.1071    2.1399    0.0000 C   0  0  0  0  0  0  0  0  0  0  0  0
   -0.7493    0.6832    0.0000 C   0  0  0  0  0  0  0  0  0  0  0  0
    0.3334    1.7214    0.0000 C   0  0  0  0  0  0  0  0  0  0  0  0
    0.6912    0.2647    0.0000 C   0  0  0  0  0  0  0  0  0  0  0  0
    1.7738    1.3029    0.0000 C   0  0  0  0  0  0  0  0  0  0  0  0
    3.2143    0.8845    0.0000 C   0  0  0  0  0  0  0  0  0  0  0  0
    4.2969    1.9227    0.0000 C   0  0  0  0  0  0  0  0  0  0  0  0
    3.9391    3.3794    0.0000 C   0  0  0  0  0  0  0  0  0  0  0  0
    3.5812    4.8361    0.0000 N   0  0  0  0  0  0  0  0  0  0  0  0
    5.7373    1.5042    0.0000 C   0  0  0  0  0  0  0  0  0  0  0  0
    6.8200    2.5425    0.0000 C   0  0  0  0  0  0  0  0  0  0  0  0
    7.9026    3.5807    0.0000 N   0  0  0  0  0  0  0  0  0  0  0  0
    6.0951    0.0475    0.0000 C   0  0  0  0  0  0  0  0  0  0  0  0
    5.0125   -0.9907    0.0000 C   0  0  0  0  0  0  0  0  0  0  0  0
    3.5721   -0.5722    0.0000 C   0  0  0  0  0  0  0  0  0  0  0  0
    2.4895   -1.6105    0.0000 C   0  0  0  0  0  0  0  0  0  0  0  0
    2.8473   -3.0672    0.0000 C   0  0  0  0  0  0  0  0  0  0  0  0
    4.2877   -3.4856    0.0000 C   0  0  0  0  0  0  0  0  0  0  0  0
    4.6455   -4.9423    0.0000 O   0  0  0  0  0  0  0  0  0  0  0  0
    5.3703   -2.4474    0.0000 C   0  0  0  0  0  0  0  0  0  0  0  0
    6.8108   -2.8659    0.0000 O   0  0  0  0  0  0  0  0  0  0  0  0
    1.0490   -1.1920    0.0000 C   0  0  0  0  0  0  0  0  0  0  0  0
    1.4068   -2.6487    0.0000 C   0  0  0  0  0  0  0  0  0  0  0  0
   -0.0336   -2.2302    0.0000 C   0  0  0  0  0  0  0  0  0  0  0  0
   -1.4741   -1.8118    0.0000 C   0  0  0  0  0  0  0  0  0  0  0  0
   -1.8319   -0.3551    0.0000 C   0  0  0  0  0  0  0  0  0  0  0  0
   -2.9145   -1.3933    0.0000 C   0  0  0  0  0  0  0  0  0  0  0  0
   -3.2723    0.0634    0.0000 C   0  0  0  0  0  0  0  0  0  0  0  0
   -4.3550   -0.9748    0.0000 C   0  0  0  0  0  0  0  0  0  0  0  0
  1  2  1  0
  2  3  1  0
  3  4  2  0
  3  5  1  0
  5  6  1  1
  5  7  1  0
  7  8  1  0
  8  9  1  0
  9 10  1  1
  9 11  1  0
 11 12  1  0
 12 13  1  0
 13 14  1  1
 13 15  1  0
 15 16  2  0
 16 17  1  0
 17 18  2  0
 18 19  1  0
 19 20  3  0
 18 21  1  0
 21 22  1  0
 22 23  3  0
 21 24  2  0
 24 25  1  0
 25 26  2  0
 26 27  1  0
 27 28  2  0
 28 29  1  0
 29 30  2  0
 29 31  1  0
 31 32  2  0
 27 33  1  0
 33 34  1  1
 33 35  1  0
 35 36  1  0
 36 37  1  0
 37 38  1  6
 37 39  1  0
 39 40  1  6
 40  5  1  0
 39  9  1  0
 37 13  1  0
 33 15  1  0
 26 17  1  0
 31 25  1  0
M  END
>  <identifier>  (1180) 
CNP0212425.1

>  <canonical_smiles>  (1180) 
COC(=O)[C@]1(C)CC[C@]2(C)CC[C@]3(C)C4=CC5=C(C#N)C(C#N)=CC6=C5C(=CC(=O)C6=O)[C@]4(C)CC[C@@]3(C)[C@@H]2C1

>  <standard_inchi>  (1180) 
InChI=1S/C34H36N2O4/c1-30-7-8-31(2,29(39)40-6)16-26(30)34(5)12-10-32(3)23-15-24(37)28(38)21-13-19(17-35)22(18-36)20(27(21)23)14-25(32)33(34,4)11-9-30/h13-15,26H,7-12,16H2,1-6H3/t26-,30-,31-,32+,33-,34+/m1/s1

>  <standard_inchi_key>  (1180) 
MNPBSJIEXFKPDL-ZIMIRHEFSA-N

>  <name>  (1180) 
nan

>  <iupac_name>  (1180) 
methyl (2~{R},5~{S},6~{R},8~{R},11~{S},14~{S})-18,19-dicyano-2,5,8,11,14-pentamethyl-22,23-dioxo-hexacyclo[15.7.1.0^{2,15}.0^{5,14}.0^{6,11}.0^{21,25}]pentacosa-1(24),15,17,19,21(25)-pentaene-8-carboxylate

>  <annotation_level>  (1180) 
4

>  <total_atom_count>  (1180) 
76

>  <heavy_atom_count>  (1180) 
40

>  <molecular_weight>  (1180) 
536.67

>  <exact_molecular_weight>  (1180) 
536.26751

>  <molecular_formula>  (1180) 
C34H36N2O4

>  <alogp>  (1180) 
6.57

>  <topological_polar_surface_area>  (1180) 
108.02

>  <rotatable_bond_count>  (1180) 
1

>  <hydrogen_bond_acceptors>  (1180) 
6

>  <hydrogen_bond_donors>  (1180) 
0

>  <hydrogen_bond_acceptors_lipinski>  (1180) 
6

>  <hydrogen_bond_donors_lipinski>  (1180) 
0

>  <lipinski_rule_of_five_violations>  (1180) 
2

>  <aromatic_rings_count>  (1180) 
1

>  <qed_drug_likeliness>  (1180) 
0.30

>  <formal_charge>  (1180) 
0

>  <fractioncsp3>  (1180) 
0.56

>  <number_of_minimal_rings>  (1180) 
6

>  <van_der_walls_volume>  (1180) 
491.66

>  <contains_sugar>  (1180) 
False

>  <contains_ring_sugars>  (1180) 
False

>  <contains_linear_sugars>  (1180) 
False

>  <murcko_framework>  (1180) 
c1cc2C=C3C(C4=CCCc(c1)c24)CCC5C3CCC6CCCCC65

>  <np_likeness>  (1180) 
2.20

>  <chemical_class>  (1180) 
Naphthalenes

>  <chemical_sub_class>  (1180) 
Naphthoquinones

>  <chemical_super_class>  (1180) 
Benzenoids

>  <direct_parent_classification>  (1180) 
Naphthoquinones

>  <np_classifier_pathway>  (1180) 
Terpenoids

>  <np_classifier_superclass>  (1180) 
Triterpenoids

>  <np_classifier_class>  (1180) 
nan

>  <np_classifier_is_glycoside>  (1180) 
False

>  <organisms>  (1180) 
nan

>  <collections>  (1180) 
ChemSpider NPs|Latin America dataset|NuBBEDB|Super Natural II|ZINC NP

>  <dois>  (1180) 
10.1016/j.bmc.2007.11.008

>  <synonyms>  (1180) 
Pristimerin dicyanophenalenedione

>  <cas>  (1180) 
nan

$$$$

     RDKit          2D

 19 22  0  0  0  0  0  0  0  0999 V2000
   -5.9648    0.1172    0.0000 C   0  0  0  0  0  0  0  0  0  0  0  0
   -4.7483   -0.7603    0.0000 O   0  0  0  0  0  0  0  0  0  0  0  0
   -3.3801   -0.1455    0.0000 C   0  0  0  0  0  0  0  0  0  0  0  0
   -3.2284    1.3468    0.0000 C   0  0  0  0  0  0  0  0  0  0  0  0
   -1.8602    1.9617    0.0000 C   0  0  0  0  0  0  0  0  0  0  0  0
   -0.6437    1.0841    0.0000 C   0  0  0  0  0  0  0  0  0  0  0  0
    0.8225    1.4011    0.0000 C   0  0  0  0  0  0  0  0  0  0  0  0
    1.5680    2.7027    0.0000 C   0  0  0  0  0  0  0  0  0  0  0  0
    3.0680    2.7078    0.0000 C   0  0  0  0  0  0  0  0  0  0  0  0
    3.8225    1.4114    0.0000 N   0  0  0  0  0  0  0  0  0  0  0  0
    3.0769    0.1098    0.0000 C   0  0  0  0  0  0  0  0  0  0  0  0
    1.5769    0.1046    0.0000 C   0  0  0  0  0  0  0  0  0  0  0  0
    0.5771   -1.0136    0.0000 N   0  0  0  0  0  0  0  0  0  0  0  0
    1.3219   -2.3233    0.0000 C   0  0  0  0  0  0  0  0  0  0  0  0
    0.4444   -3.5399    0.0000 O   0  0  0  0  0  0  0  0  0  0  0  0
    2.8142   -2.4750    0.0000 C   0  0  0  0  0  0  0  0  0  0  0  0
    3.6917   -1.2585    0.0000 C   0  0  0  0  0  0  0  0  0  0  0  0
   -0.7953   -0.4082    0.0000 C   0  0  0  0  0  0  0  0  0  0  0  0
   -2.1635   -1.0230    0.0000 C   0  0  0  0  0  0  0  0  0  0  0  0
  1  2  1  0
  2  3  1  0
  3  4  2  0
  4  5  1  0
  5  6  2  0
  6  7  1  0
  7  8  2  0
  8  9  1  0
  9 10  2  0
 10 11  1  0
 11 12  2  0
 12 13  1  0
 13 14  1  0
 14 15  2  0
 14 16  1  0
 16 17  2  0
 13 18  1  0
 18 19  2  0
 19  3  1  0
 18  6  1  0
 12  7  1  0
 17 11  1  0
M  END
>  <identifier>  (1181) 
CNP0191969.0

>  <canonical_smiles>  (1181) 
COC1=CC=C2C3=CC=NC4=C3N(C(=O)C=C4)C2=C1

>  <standard_inchi>  (1181) 
InChI=1S/C15H10N2O2/c1-19-9-2-3-10-11-6-7-16-12-4-5-14(18)17(15(11)12)13(10)8-9/h2-8H,1H3

>  <standard_inchi_key>  (1181) 
OWCRARVHWCCRAG-UHFFFAOYSA-N

>  <name>  (1181) 
9-Methoxycanthin-6-one

>  <iupac_name>  (1181) 
13-methoxy-1,6-diazatetracyclo[7.6.1.0^{5,16}.0^{10,15}]hexadeca-3,5(16),6,8,10,12,14-heptaen-2-one

>  <annotation_level>  (1181) 
5

>  <total_atom_count>  (1181) 
29

>  <heavy_atom_count>  (1181) 
19

>  <molecular_weight>  (1181) 
250.26

>  <exact_molecular_weight>  (1181) 
250.07423

>  <molecular_formula>  (1181) 
C15H10N2O2

>  <alogp>  (1181) 
2.45

>  <topological_polar_surface_area>  (1181) 
43.60

>  <rotatable_bond_count>  (1181) 
1

>  <hydrogen_bond_acceptors>  (1181) 
4

>  <hydrogen_bond_donors>  (1181) 
0

>  <hydrogen_bond_acceptors_lipinski>  (1181) 
4

>  <hydrogen_bond_donors_lipinski>  (1181) 
0

>  <lipinski_rule_of_five_violations>  (1181) 
0

>  <aromatic_rings_count>  (1181) 
4

>  <qed_drug_likeliness>  (1181) 
0.52

>  <formal_charge>  (1181) 
0

>  <fractioncsp3>  (1181) 
0.07

>  <number_of_minimal_rings>  (1181) 
4

>  <van_der_walls_volume>  (1181) 
210.53

>  <contains_sugar>  (1181) 
False

>  <contains_ring_sugars>  (1181) 
False

>  <contains_linear_sugars>  (1181) 
False

>  <murcko_framework>  (1181) 
n1ccc2c3ccccc3n4c2c1C=CC4

>  <np_likeness>  (1181) 
0.27

>  <chemical_class>  (1181) 
Indolonaphthyridine alkaloids

>  <chemical_sub_class>  (1181) 
Indolonaphthyridine alkaloids

>  <chemical_super_class>  (1181) 
Alkaloids and derivatives

>  <direct_parent_classification>  (1181) 
Indolonaphthyridine alkaloids

>  <np_classifier_pathway>  (1181) 
Alkaloids

>  <np_classifier_superclass>  (1181) 
Tryptophan alkaloids

>  <np_classifier_class>  (1181) 
Carboline alkaloids

>  <np_classifier_is_glycoside>  (1181) 
False

>  <organisms>  (1181) 
Acinetobacter baumannii|Acinetobacter calcoaceticus|Aralidium pinnatifidum|Bersama swinnyi|Blainvillea latifolia|Boletinus paluster|Cheilanthes marantae|Dermocybe cardinalis|Euphorbia resinifera|Eurycoma Longifolia|Eurycoma harmandiana|Eurycoma longifolia|Geigeria schinzii|Goniothalamus undulatus|Helichrysum angustifolium|Helichrysum sutherlandii|Heterosigma akashiwo|Leontice kiangnanensis|Lophiostoma vaginatispora|Lophocereus marginatus|Medium grandiflorum|Monanchora unguiculata|Nemuaron humboldtii|Ophryosporus charua|Pachycereus pringlei|Papaver radicatum|Penicillium alutaceum|Picrolemma|Pinus glauca|Prosopis kuntzei|Pteris spinulosa|Russula sardonia|Simaba cuspidata|Simaba multiflora|Simaba orinocensis|Simarouba glauca|Stenocereus thurberi|Vitex negundo

>  <collections>  (1181) 
AnalytiCon Discovery NPs|CMAUP (cCollective molecular activities of useful plants)|ChEBI NPs|KNApSaCK|Latin America dataset|NPACT|NPASS|NuBBEDB|Super Natural II|TCMDB-Taiwan (Traditional Chinese Medicine database)|TCMID (Traditional Chinese Medicine Integrated Database)|UNPD (Universal Natural Products Database)|VietHerb|WikiData Natural Products|ZINC NP

>  <dois>  (1181) 
10.1002/CHIN.200422186|10.1002/PTR.1642|10.1007/978-1-60327-287-2_29|10.1016/0031-9422(92)83309-M|10.1016/J.BMC.2003.11.017|10.1016/J.JEP.2004.02.025|10.1016/S0031-9422(00)00363-0|10.1016/S0031-9422(00)81981-0|10.1016/S0031-9422(00)90609-5|10.1016/S0040-4039(00)86970-1|10.1021/NP030277N|10.1021/NP400701K|10.1021/NP50026A016|10.1021/NP50077A020|10.1021/np030277n|10.1021/np400701k|10.1021/np50077a020|10.1055/S-2002-26745|10.1055/S-2002-26751|10.1080/14786419.2015.1056187|10.1248/CPB.51.1301

>  <synonyms>  (1181) 
13-METHOXY-1,6-DIAZATETRACYCLO[7.6.1.0?,(1)?.0(1)?,(1)?]HEXADECA-3,5,7,9(16),10(15),11,13-HEPTAEN-2-ONE|13-methoxy-1,6-diazatetracyclo[7.6.1.05,16.010,15]hexadeca-3,5(16),6,8,10,12,14-heptaen-2-one|74991-91-6|8-Methoxycanthin-6-one|9-methoxy-6H-indolo[3,2,1-de][1,5]naphthyridin-6-one|AKOS037515610|AS-57655|BCP33217|C15H10N2O2|CHEBI:66699|CHEMBL504978|CS-0058761|D93564|DB-229744|DTXSID90432290|HY-112642|NCGC00385518-01|PD098532|Q27135320|ZCA99191

>  <cas>  (1181) 
74991-91-6

$$$$

     RDKit          2D

 16 17  0  0  0  0  0  0  0  0999 V2000
   -1.2667   -2.5545    0.0000 O   0  0  0  0  0  0  0  0  0  0  0  0
   -1.2381   -1.0548    0.0000 C   0  0  0  0  0  0  0  0  0  0  0  0
    0.0749   -0.3296    0.0000 O   0  0  0  0  0  0  0  0  0  0  0  0
    1.3595   -1.1042    0.0000 C   0  0  0  0  0  0  0  0  0  0  0  0
    2.6725   -0.3790    0.0000 C   0  0  0  0  0  0  0  0  0  0  0  0
    3.9571   -1.1536    0.0000 C   0  0  0  0  0  0  0  0  0  0  0  0
    5.2701   -0.4284    0.0000 C   0  0  0  0  0  0  0  0  0  0  0  0
    5.2987    1.0713    0.0000 C   0  0  0  0  0  0  0  0  0  0  0  0
    4.0141    1.8459    0.0000 C   0  0  0  0  0  0  0  0  0  0  0  0
    2.7011    1.1207    0.0000 C   0  0  0  0  0  0  0  0  0  0  0  0
   -2.5227   -0.2802    0.0000 C   0  0  0  0  0  0  0  0  0  0  0  0
   -2.4941    1.2195    0.0000 C   0  0  0  0  0  0  0  0  0  0  0  0
   -3.7787    1.9941    0.0000 C   0  0  0  0  0  0  0  0  0  0  0  0
   -5.0917    1.2689    0.0000 C   0  0  0  0  0  0  0  0  0  0  0  0
   -5.1203   -0.2308    0.0000 C   0  0  0  0  0  0  0  0  0  0  0  0
   -3.8357   -1.0054    0.0000 C   0  0  0  0  0  0  0  0  0  0  0  0
  1  2  2  0
  2  3  1  0
  3  4  1  0
  4  5  1  0
  5  6  2  0
  6  7  1  0
  7  8  2  0
  8  9  1  0
  9 10  2  0
  2 11  1  0
 11 12  2  0
 12 13  1  0
 13 14  2  0
 14 15  1  0
 15 16  2  0
 10  5  1  0
 16 11  1  0
M  END
>  <identifier>  (1182) 
CNP0203743.0

>  <canonical_smiles>  (1182) 
O=C(OCC1=CC=CC=C1)C1=CC=CC=C1

>  <standard_inchi>  (1182) 
InChI=1S/C14H12O2/c15-14(13-9-5-2-6-10-13)16-11-12-7-3-1-4-8-12/h1-10H,11H2

>  <standard_inchi_key>  (1182) 
SESFRYSPDFLNCH-UHFFFAOYSA-N

>  <name>  (1182) 
BENZYL BENZOATE

>  <iupac_name>  (1182) 
benzyl benzoate

>  <annotation_level>  (1182) 
5

>  <total_atom_count>  (1182) 
28

>  <heavy_atom_count>  (1182) 
16

>  <molecular_weight>  (1182) 
212.25

>  <exact_molecular_weight>  (1182) 
212.08373

>  <molecular_formula>  (1182) 
C14H12O2

>  <alogp>  (1182) 
3.04

>  <topological_polar_surface_area>  (1182) 
26.30

>  <rotatable_bond_count>  (1182) 
3

>  <hydrogen_bond_acceptors>  (1182) 
2

>  <hydrogen_bond_donors>  (1182) 
0

>  <hydrogen_bond_acceptors_lipinski>  (1182) 
2

>  <hydrogen_bond_donors_lipinski>  (1182) 
0

>  <lipinski_rule_of_five_violations>  (1182) 
0

>  <aromatic_rings_count>  (1182) 
2

>  <qed_drug_likeliness>  (1182) 
0.73

>  <formal_charge>  (1182) 
0

>  <fractioncsp3>  (1182) 
0.07

>  <number_of_minimal_rings>  (1182) 
2

>  <van_der_walls_volume>  (1182) 
199.35

>  <contains_sugar>  (1182) 
False

>  <contains_ring_sugars>  (1182) 
False

>  <contains_linear_sugars>  (1182) 
False

>  <murcko_framework>  (1182) 
O(Cc1ccccc1)Cc2ccccc2

>  <np_likeness>  (1182) 
-0.35

>  <chemical_class>  (1182) 
Benzene and substituted derivatives

>  <chemical_sub_class>  (1182) 
Benzoic acids and derivatives

>  <chemical_super_class>  (1182) 
Benzenoids

>  <direct_parent_classification>  (1182) 
Benzoic acid esters

>  <np_classifier_pathway>  (1182) 
Shikimates and Phenylpropanoids

>  <np_classifier_superclass>  (1182) 
Phenolic acids (C6-C1)

>  <np_classifier_class>  (1182) 
Simple phenolic acids

>  <np_classifier_is_glycoside>  (1182) 
False

>  <organisms>  (1182) 
Acacia aulacocarpa|Acca sellowiana|Aconitum fischeri|Aconitum sajanense|Andinobates bombetes|Anemone flaccida|Aniba|Aniba affinis|Aniba muca|Aniba riparia|Aniba santalodora|Aniba sp.|Annonaceae|Anthocleista grandiflora|Antidesma laciniatum|Apocynum androsaemifolium|Ardisia neriifolia|Artemisia annua|Artemisia jacutica|Artemisia ludoviciana|Aspidosperma subincanum|Astragalus eupeplus|Astragalus microcephalus|Australostichopus mollis|Austromatthaea elegans|Avrainvillea rawsonii|Baccharis leptocephala|Baeckea frutescens|Baeckea frutescens L.|Balantiopsis rosea|Bersama abyssinica|Camellia sinensis|Cananga odorata|Cassia jahnii|Chamaemelum nobile|Chrysanthemum x morifolium|Cichorium endivia|Cinamomum cassia|Cinnamomum aromaticum|Cinnamomum burmanni|Cinnamomum cassia|Cinnamomum parthenoxylon|Cinnamomum verum|Cinnamomum zeylanicum|Cinnamon|Cistus creticus|Citrullus lanatus|Clausena excavata|Cryptocarya aschersoniana|Cryptomeria japonica|Cyclamen africanum|Cynomorium songaricum|Cyphelium chrysocephalum|Daedaleopsis confragosa|Damnacanthus major|Daphne odora|Desmos chinensis|Dianthus caryophyllus L.|Dianthus superbus|Epicoccum nigrum|Espeletia grandiflora|Eupatorium argentinum|Flos lonicerae|Flos mume|Friesodielsia enghiana|Galeocerdo arcticus|Gallus domesticus|Gallus gallus|Guatteria boliviana|Hamamelis virginiana|Hansenia weberbaueriana|Helichrysum stoechas|Helleborus caucasicus|Hesperis matronalis|Hyacinthus orientalis|Hypericum coris|Hypericum perforatum|Hypoestes serpens|Isotachis japonica|Jasminum spp|Jasminum spp.|Juniperus brevifolia|Juniperus chinensis|Kaempferia rotunda|Lactifluus subvellereus|Lagascea mollis|Leonurus heterophyllus|Lespedeza homoloba|Libocedrus bidwillii|Liquidambar orientalis|Lithocolletis coryli|Lolium perenne|Lonicera japonica|Mandragora autumnalis|Mandragora officinarum|Mangifera indica|Melodorum fruticosum|Mimusops elengi|Monanthotaxis trichocarpa|Murraya exotica|Murraya paniculata|Myroxylon pereirae|Narcissus tazetta|Neolentinus lepideus|Nicotiana alata|Nicotiana bonariensis|Nicotiana cavicola|Nicotiana langsdorffii|Notopterygium incisum|Orgyia australis postica|Paeonia lactiflora|Parmelia latissima|Pellicularia sasakii|Peritassa compta|Petiveria alliacea|Petunia axillaris|Phlegmariurus yunnanensis|Phyllospongia papyracea|Piper attenuatum|Piper cubeba|Piper kadsura|Pisolithus arhizus|Plumeria obtusa|Plumeria rubra|Plutella xylostella|Polyalthia|Polygala senega|Populus tremula|Populus tremuloides|Primula farinosa|Psiadia dentata|Puccinia lagenophorae|Pulmonaria mollis|Rheedia acuminata|Rhodiola rosea|Rhodiola rosea L.|Rosa multiflora|Rosa rugosa|Rubus sanctus|Ruta graveolens|Schkuhria multiflora|Senecio morrisonensis|Senegalia berlandieri|Siphonaria australis|Solanum incisum|Solanum stuckertii|Solidago decurrens|Spondias mombin|Stauntonia hexaphylla|Strychnos triplinervia|Styrax benzoin|Styrax tonkinensis|Sus scrofa|Swertia cincta|Symphyocladia latiuscula|Syzygium aromaticum|Talaromyces islandicus|Tephrosia sinapou|Tephrosia toxicaria|Tetracera alnifolia|Tilia mandshurica|Tilia tomentosa|Tilletia laevis|Trichodesma zeylanicum|Ursinia speciosa|Uvaria acuminata|Uvaria angolensis|Uvaria chamae|Uvaria dulcis|Uvaria ferruginea|Uvaria grandiflora|Uvaria kirkii|Uvaria klaineana|Uvaria narum|Uvaria rufa|Uvaria scheffleri|Uvaria versicolor|Vaccinium macrocarpon|Valeriana officinalis|clove

>  <collections>  (1182) 
ANPDB|AnalytiCon Discovery NPs|Australian natural products|CMAUP (cCollective molecular activities of useful plants)|ChEBI NPs|DrugBankNP|EMNPD|FooDB|KNApSaCK|Latin America dataset|NANPDB (Natural Products from Northern African Sources)|NPASS|NPEdia|NuBBEDB|Phyto4Health|PubChem NPs|Super Natural II|TCMDB-Taiwan (Traditional Chinese Medicine database)|TCMID (Traditional Chinese Medicine Integrated Database)|TIPdb (database of Taiwan indigenous plants)|UNPD (Universal Natural Products Database)|Watermelon|WikiData Natural Products|ZINC NP

>  <dois>  (1182) 
10.1002/(SICI)1099-1026(1998070)13:4<245::AID-FFJ736>3.0.CO;2-J|10.1002/(SICI)1099-1026(199907/08)14:4<237::AID-FFJ817>3.0.CO;2-Y|10.1002/BIO.1209|10.1002/CBDV.201400340|10.1002/FFJ.2730070108|10.1002/FFJ.2730100408|10.1002/JCCS.200100158|10.1002/PTR.1158|10.1007/S10600-011-9970-9|10.1007/S11418-009-0358-0|10.1016/0031-9422(75)85358-1|10.1016/0031-9422(81)84033-2|10.1016/0031-9422(84)83114-3|10.1016/0031-9422(85)80065-0|10.1016/0031-9422(90)80142-4|10.1016/0031-9422(90)85438-L|10.1016/0031-9422(91)83652-2|10.1016/0031-9422(92)80176-F|10.1016/0031-9422(95)00454-8|10.1016/0031-9422(95)00492-P|10.1016/J.CHROMA.2014.10.058|10.1016/J.JPBA.2009.01.038|10.1016/J.PHYTOCHEM.2003.08.004|10.1016/J.PHYTOCHEM.2005.07.016|10.1016/J.PHYTOCHEM.2006.05.038|10.1016/J.PHYTOCHEM.2006.12.009|10.1016/J.PHYTOCHEM.2009.06.013|10.1016/J.TET.2011.05.070|10.1016/S0031-9422(00)81055-9|10.1016/S0031-9422(00)83834-0|10.1016/S0031-9422(00)83890-X|10.1016/S0031-9422(00)84505-7|10.1016/S0031-9422(00)94541-2|10.1016/S0031-9422(00)97370-9|10.1016/S0031-9422(01)00304-1|10.1016/S0031-9422(02)00004-3|10.1016/S0031-9422(02)00027-4|10.1016/S0031-9422(96)00527-4|10.1016/S0031-9422(97)00075-7|10.1016/S0031-9422(97)00283-5|10.1016/S0031-9422(99)00477-X|10.1016/S0165-022X(00)00079-8|10.1016/S0367-326X(02)00171-5|10.1021/JF00008A025|10.1021/JF00068A014|10.1021/JF00069A028|10.1021/JF00120A008|10.1021/JF0402633|10.1021/JF60218A031|10.1021/JF950275B|10.1021/JF991395C|10.1021/NP0302100|10.1021/NP50040A009|10.1021/NP50042A028|10.1021/acs.jnatprod.9b00363|10.1055/S-0028-1097286|10.1055/S-2006-957420|10.1055/S-2006-957641|10.1055/S-2006-962016|10.1076/PHBI.40.4.263.8465|10.1080/10412905.1991.9697930|10.1080/10412905.1994.9698337|10.1080/10412905.1994.9698425|10.1080/10412905.1995.9698462|10.1080/10412905.1995.9700510|10.1080/10412905.1997.9700728|10.1080/10412905.1999.9701158|10.1080/14786419.2014.886209|10.1111/J.1600-0536.1997.TB02476.X|10.1139/B91-288|10.1248/CPB.52.138|10.1271/BBB.60507|10.1271/BBB1961.47.483|10.1271/BBB1961.49.1583|10.1515/ZNC-2002-11-1206|10.1590/1809-43921977071041|10.3109/13880209409083015|10.3109/14756366.2010.496363|10.3390/MOLECULES24112053|10.3891/ACTA.CHEM.SCAND.21-2076

>  <synonyms>  (1182) 
120-51-4|1dzm|347840-01-1|4-09-00-00307 (Beilstein Handbook Reference)|A19449|AB00052298_07|AC-17033|AI3-00523|AKOS003495939|Acarobenzyl|Acarosan|Antiscabiosum|Ascabin|Ascabiol|B0064|BDBM50134035|BENZOIC ACID PHENYLMETHYLESTER|BENZOIC ACID,BENZYL ESTER|BENZYL BENZOATE (EP IMPURITY)|BENZYL BENZOATE (EP MONOGRAPH)|BENZYL BENZOATE (II)|BENZYL BENZOATE (MART.)|BENZYL BENZOATE (USP-RS)|BENZYL BENZOATE [FCC]|BENZYL BENZOATE [HSDB]|BENZYL BENZOATE [JAN]|BENZYL BENZOATE [MI]|BENZYL BENZOATE [ORANGE BOOK]|BENZYL BENZOATE [USP IMPURITY]|BENZYL BENZOATE [USP MONOGRAPH]|BENZYL BENZOATE [WHO-DD]|BENZYL-D5 BENZOATE|BENZYLIS BENZOAS [WHO-IP LATIN]|BENZYLOXY PHENYL KETONE|BRD-K52072429-001-06-1|BRN 2049280|BSPBio_003494|BZM|Bengal|Benylate|Benylate (TN)|Benzevan|Benzoate de benzyle|Benzoesaeurebenzylester|Benzoic acid benzyl ester|Benzoic acid benzyl ester; Benzoic acid phenylmethyl ester|Benzoic acid, phenylmethyl ester|Benzoic acid-benzyl ester 100 microg\/mL in Acetonitrile|Benzoic acid-benzyl ester 5000 microg\/mL in Hexane|Benzyl alcohol benzoic ester|Benzyl benzenecarboxylate|Benzyl benzoat|Benzyl benzoate (JP17\/USP)|Benzyl benzoate (natural)|Benzyl benzoate [USP:JAN]|Benzyl benzoate, >=99%|Benzyl benzoate, >=99%, FCC, FG|Benzyl benzoate, Pharmaceutical Secondary Standard; Certified Reference Material|Benzyl benzoate, ReagentPlus(R), >=99.0%|Benzyl benzoate, SAJ first grade, >=98.0%|Benzyl benzoate, SAJ special grade, >=99.0%|Benzyl benzoate, United States Pharmacopeia (USP) Reference Standard|Benzyl benzoate, Vetec(TM) reagent grade, 98%|Benzyl benzoate, analytical standard|Benzyl benzoate, certified reference material, TraceCERT(R)|Benzyl benzoate, for synthesis, 99.0%|Benzyl benzoate, meets USP testing specifications|Benzyl benzoate, natural, >=99%, FCC, FG|Benzyl benzoate, tested according to Ph.Eur.|Benzyl phenylformate|Benzylester kyseliny benzoove|Benzylester kyseliny benzoove [Czech]|Benzylets|Benzylis benzoas|Benzylum benzoicum|CAS-120-51-4|CCG-39578|CHEBI:41237|CHEMBL1239|Caswell No. 082|Colebenz|D01138|DB-041563|DB00676|DTXCID809153|DTXSID8029153|DivK1c_000204|EC 204-402-9|EINECS 204-402-9|EN300-7323193|EPA Pesticide Chemical Code 009501|FEMA No. 2138|FEMA Number 2138|G73904|HMS1921P16|HMS2092F20|HMS2269D24|HMS500K06|HSDB 208|HY-B0935|IDI1_000204|InChI=1\/C14H12O2\/c15-14(13-9-5-2-6-10-13)16-11-12-7-3-1-4-8-12\/h1-10H,11H|KBio1_000204|KBio2_001720|KBio2_004288|KBio2_006856|KBio3_002714|KBioGR_001186|KBioSS_001720|LS-14279|MFCD00003075|MLS001066412|MLS001336003|N863NB338G|NCGC00094981-03|NCGC00257502-01|NCGC00258889-01|NINDS_000204|NS00006239|NSC 8081|NSC-8081|NSC758204|Novoscabin|Peruscabin|Pharmakon1600-01503002|Phenylmethyl benzoate|Q-200696|Q413755|SBI-0051748.P002|SCHEMBL3038|SMR000471875|SPBio_000543|SPECTRUM1503002|SR-01000763773|STL183088|Scabagen|Scabanca|Scabide|Scabiozon|Scabitox|Scobenol|Spectrum2_000532|Spectrum3_001757|Spectrum4_000773|Spectrum5_001128|Spectrum_001240|Tox21_111372|Tox21_201337|Tox21_303418|UNII-N863NB338G|Vanzoate|Venzonate|WLN: RVO1R|Z19825582|benzylbenzoate|inverted exclamation markY99%, refined grade|s4599

>  <cas>  (1182) 
120-51-4|347840-01-1

$$$$

     RDKit          2D

 49 52  0  0  0  0  0  0  0  0999 V2000
   -3.7321    6.8354    0.0000 C   0  0  0  0  0  0  0  0  0  0  0  0
   -4.4031    5.4939    0.0000 C   0  0  0  0  0  0  0  0  0  0  0  0
   -5.9004    5.4042    0.0000 O   0  0  0  0  0  0  0  0  0  0  0  0
   -3.5767    4.2420    0.0000 O   0  0  0  0  0  0  0  0  0  0  0  0
   -4.2477    2.9005    0.0000 C   0  0  0  0  0  0  0  0  0  0  0  0
   -3.4214    1.6486    0.0000 C   0  0  0  0  0  0  0  0  0  0  0  0
   -1.9241    1.7383    0.0000 O   0  0  0  0  0  0  0  0  0  0  0  0
   -1.0977    0.4864    0.0000 C   0  0  0  0  0  0  0  0  0  0  0  0
    0.3996    0.5761    0.0000 O   0  0  0  0  0  0  0  0  0  0  0  0
    1.2259   -0.6757    0.0000 C   0  0  0  0  0  0  0  0  0  0  0  0
    0.5549   -2.0173    0.0000 C   0  0  0  0  0  0  0  0  0  0  0  0
    1.3813   -3.2692    0.0000 C   0  0  0  0  0  0  0  0  0  0  0  0
    0.7103   -4.6107    0.0000 O   0  0  0  0  0  0  0  0  0  0  0  0
   -0.7870   -4.7004    0.0000 C   0  0  0  0  0  0  0  0  0  0  0  0
   -1.4580   -6.0420    0.0000 C   0  0  0  0  0  0  0  0  0  0  0  0
   -1.3741   -4.1612    0.0000 O   0  0  0  0  0  0  0  0  0  0  0  0
    2.8786   -3.1795    0.0000 C   0  0  0  0  0  0  0  0  0  0  0  0
    3.5496   -1.8379    0.0000 C   0  0  0  0  0  0  0  0  0  0  0  0
    5.0469   -1.7482    0.0000 C   0  0  0  0  0  0  0  0  0  0  0  0
    5.7179   -0.4067    0.0000 C   0  0  0  0  0  0  0  0  0  0  0  0
    4.8915    0.8452    0.0000 C   0  0  0  0  0  0  0  0  0  0  0  0
    3.3942    0.7555    0.0000 C   0  0  0  0  0  0  0  0  0  0  0  0
    2.5679    2.0074    0.0000 O   0  0  0  0  0  0  0  0  0  0  0  0
    3.2389    3.3489    0.0000 C   0  0  0  0  0  0  0  0  0  0  0  0
    2.4125    4.6008    0.0000 C   0  0  0  0  0  0  0  0  0  0  0  0
    4.3143    3.5469    0.0000 O   0  0  0  0  0  0  0  0  0  0  0  0
    2.7232   -0.5861    0.0000 C   0  0  0  0  0  0  0  0  0  0  0  0
    5.5625    2.1868    0.0000 C   0  0  0  0  0  0  0  0  0  0  0  0
    5.0758    3.1660    0.0000 C   0  0  0  0  0  0  0  0  0  0  0  0
    7.0598    2.2765    0.0000 O   0  0  0  0  0  0  0  0  0  0  0  0
    7.8862    1.0246    0.0000 C   0  0  0  0  0  0  0  0  0  0  0  0
    9.3835    1.1143    0.0000 C   0  0  0  0  0  0  0  0  0  0  0  0
    7.2152   -0.3170    0.0000 C   0  0  0  0  0  0  0  0  0  0  0  0
    8.0415   -1.5688    0.0000 O   0  0  0  0  0  0  0  0  0  0  0  0
   -1.7687   -0.8551    0.0000 C   0  0  0  0  0  0  0  0  0  0  0  0
   -0.9424   -2.1070    0.0000 O   0  0  0  0  0  0  0  0  0  0  0  0
   -1.6134   -3.4486    0.0000 C   0  0  0  0  0  0  0  0  0  0  0  0
   -1.1145   -4.8632    0.0000 C   0  0  0  0  0  0  0  0  0  0  0  0
   -3.1107   -3.5383    0.0000 O   0  0  0  0  0  0  0  0  0  0  0  0
   -3.2660   -0.9448    0.0000 C   0  0  0  0  0  0  0  0  0  0  0  0
   -3.9370   -2.2864    0.0000 O   0  0  0  0  0  0  0  0  0  0  0  0
   -5.4343   -2.3761    0.0000 C   0  0  0  0  0  0  0  0  0  0  0  0
   -6.1053   -3.7176    0.0000 C   0  0  0  0  0  0  0  0  0  0  0  0
   -6.2607   -1.1242    0.0000 O   0  0  0  0  0  0  0  0  0  0  0  0
   -4.0924    0.3070    0.0000 C   0  0  0  0  0  0  0  0  0  0  0  0
   -5.5897    0.2173    0.0000 O   0  0  0  0  0  0  0  0  0  0  0  0
   -6.4160    1.4692    0.0000 C   0  0  0  0  0  0  0  0  0  0  0  0
   -7.9133    1.3795    0.0000 C   0  0  0  0  0  0  0  0  0  0  0  0
   -5.7450    2.8108    0.0000 O   0  0  0  0  0  0  0  0  0  0  0  0
  1  2  1  0
  2  3  2  0
  2  4  1  0
  4  5  1  0
  6  5  1  1
  6  7  1  0
  7  8  1  0
  8  9  1  1
  9 10  1  0
 10 11  2  0
 11 12  1  0
 12 13  1  0
 13 14  1  0
 14 15  1  0
 14 16  2  0
 12 17  2  0
 17 18  1  0
 18 19  2  0
 19 20  1  0
 20 21  2  0
 21 22  1  0
 22 23  1  0
 23 24  1  0
 24 25  1  0
 24 26  2  0
 22 27  2  0
 21 28  1  0
 28 29  1  0
 28 30  1  0
 30 31  1  0
 31 32  1  6
 31 33  1  0
 33 34  1  0
  8 35  1  0
 35 36  1  6
 36 37  1  0
 37 38  1  0
 37 39  2  0
 35 40  1  0
 40 41  1  1
 41 42  1  0
 42 43  1  0
 42 44  2  0
 40 45  1  0
 45 46  1  6
 46 47  1  0
 47 48  1  0
 47 49  2  0
 45  6  1  0
 27 10  1  0
 27 18  1  0
 33 20  1  0
M  END
>  <identifier>  (1183) 
CNP0080352.1

>  <canonical_smiles>  (1183) 
CC(=O)OC[C@H]1O[C@@H](OC2=CC(OC(C)=O)=CC3=CC4=C(C(OC(C)=O)=C23)C(C)O[C@H](C)C4O)[C@H](OC(C)=O)[C@@H](OC(C)=O)[C@@H]1OC(C)=O

>  <standard_inchi>  (1183) 
InChI=1S/C33H38O16/c1-13-26-23(28(40)14(2)42-13)10-21-9-22(43-16(4)35)11-24(27(21)30(26)45-18(6)37)48-33-32(47-20(8)39)31(46-19(7)38)29(44-17(5)36)25(49-33)12-41-15(3)34/h9-11,13-14,25,28-29,31-33,40H,12H2,1-8H3/t13?,14-,25-,28?,29-,31+,32-,33-/m1/s1

>  <standard_inchi_key>  (1183) 
NJXKGDNOKAFTMD-IAHRQPBNSA-N

>  <name>  (1183) 
nan

>  <iupac_name>  (1183) 
[(2~{R},3~{R},4~{S},5~{R},6~{S})-3,4,5-triacetoxy-6-[[(3~{R})-7,10-diacetoxy-4-hydroxy-1,3-dimethyl-3,4-dihydro-1~{H}-benzo[g]isochromen-9-yl]oxy]tetrahydropyran-2-yl]methyl acetate

>  <annotation_level>  (1183) 
4

>  <total_atom_count>  (1183) 
87

>  <heavy_atom_count>  (1183) 
49

>  <molecular_weight>  (1183) 
690.65

>  <exact_molecular_weight>  (1183) 
690.21599

>  <molecular_formula>  (1183) 
C33H38O16

>  <alogp>  (1183) 
2.67

>  <topological_polar_surface_area>  (1183) 
205.72

>  <rotatable_bond_count>  (1183) 
9

>  <hydrogen_bond_acceptors>  (1183) 
16

>  <hydrogen_bond_donors>  (1183) 
1

>  <hydrogen_bond_acceptors_lipinski>  (1183) 
16

>  <hydrogen_bond_donors_lipinski>  (1183) 
1

>  <lipinski_rule_of_five_violations>  (1183) 
2

>  <aromatic_rings_count>  (1183) 
2

>  <qed_drug_likeliness>  (1183) 
0.23

>  <formal_charge>  (1183) 
0

>  <fractioncsp3>  (1183) 
0.52

>  <number_of_minimal_rings>  (1183) 
4

>  <van_der_walls_volume>  (1183) 
nan

>  <contains_sugar>  (1183) 
True

>  <contains_ring_sugars>  (1183) 
True

>  <contains_linear_sugars>  (1183) 
False

>  <murcko_framework>  (1183) 
O1Cc2cc3c(OC4OCCCC4)cccc3cc2CC1

>  <np_likeness>  (1183) 
1.48

>  <chemical_class>  (1183) 
Carboxylic acids and derivatives

>  <chemical_sub_class>  (1183) 
Hexacarboxylic acids and derivatives

>  <chemical_super_class>  (1183) 
Organic acids and derivatives

>  <direct_parent_classification>  (1183) 
Hexacarboxylic acids and derivatives

>  <np_classifier_pathway>  (1183) 
nan

>  <np_classifier_superclass>  (1183) 
nan

>  <np_classifier_class>  (1183) 
nan

>  <np_classifier_is_glycoside>  (1183) 
True

>  <organisms>  (1183) 
Aphis nerii|Homalolepis cuneata

>  <collections>  (1183) 
Latin America dataset|NuBBEDB|WikiData Natural Products

>  <dois>  (1183) 
10.1016/0031-9422(92)80374-N|10.1016/S0040-4039(01)97216-8

>  <synonyms>  (1183) 
glucoside B peracetate

>  <cas>  (1183) 
nan

$$$$

     RDKit          2D

 18 17  0  0  0  0  0  0  0  0999 V2000
  -11.0437   -0.3156    0.0000 C   0  0  0  0  0  0  0  0  0  0  0  0
   -9.7406    0.4274    0.0000 C   0  0  0  0  0  0  0  0  0  0  0  0
   -8.4456   -0.3296    0.0000 C   0  0  0  0  0  0  0  0  0  0  0  0
   -7.1426    0.4134    0.0000 C   0  0  0  0  0  0  0  0  0  0  0  0
   -5.8476   -0.3436    0.0000 C   0  0  0  0  0  0  0  0  0  0  0  0
   -4.5446    0.3995    0.0000 C   0  0  0  0  0  0  0  0  0  0  0  0
   -3.2496   -0.3575    0.0000 C   0  0  0  0  0  0  0  0  0  0  0  0
   -1.9465    0.3855    0.0000 C   0  0  0  0  0  0  0  0  0  0  0  0
   -0.6515   -0.3715    0.0000 C   0  0  0  0  0  0  0  0  0  0  0  0
    0.6515    0.3715    0.0000 C   0  0  0  0  0  0  0  0  0  0  0  0
    1.9465   -0.3855    0.0000 C   0  0  0  0  0  0  0  0  0  0  0  0
    3.2496    0.3575    0.0000 C   0  0  0  0  0  0  0  0  0  0  0  0
    4.5446   -0.3995    0.0000 C   0  0  0  0  0  0  0  0  0  0  0  0
    5.8476    0.3436    0.0000 C   0  0  0  0  0  0  0  0  0  0  0  0
    7.1426   -0.4134    0.0000 C   0  0  0  0  0  0  0  0  0  0  0  0
    8.4456    0.3296    0.0000 C   0  0  0  0  0  0  0  0  0  0  0  0
    9.7406   -0.4274    0.0000 C   0  0  0  0  0  0  0  0  0  0  0  0
   11.0437    0.3156    0.0000 C   0  0  0  0  0  0  0  0  0  0  0  0
  1  2  1  0
  2  3  1  0
  3  4  1  0
  4  5  1  0
  5  6  1  0
  6  7  1  0
  7  8  1  0
  8  9  1  0
  9 10  1  0
 10 11  1  0
 11 12  1  0
 12 13  1  0
 13 14  1  0
 14 15  1  0
 15 16  1  0
 16 17  1  0
 17 18  1  0
M  END
>  <identifier>  (1184) 
CNP0316858.0

>  <canonical_smiles>  (1184) 
CCCCCCCCCCCCCCCCCC

>  <standard_inchi>  (1184) 
InChI=1S/C18H38/c1-3-5-7-9-11-13-15-17-18-16-14-12-10-8-6-4-2/h3-18H2,1-2H3

>  <standard_inchi_key>  (1184) 
RZJRJXONCZWCBN-UHFFFAOYSA-N

>  <name>  (1184) 
OCTADECANE

>  <iupac_name>  (1184) 
octadecane

>  <annotation_level>  (1184) 
5

>  <total_atom_count>  (1184) 
56

>  <heavy_atom_count>  (1184) 
18

>  <molecular_weight>  (1184) 
254.5

>  <exact_molecular_weight>  (1184) 
254.29735

>  <molecular_formula>  (1184) 
C18H38

>  <alogp>  (1184) 
7.27

>  <topological_polar_surface_area>  (1184) 
0.00

>  <rotatable_bond_count>  (1184) 
15

>  <hydrogen_bond_acceptors>  (1184) 
0

>  <hydrogen_bond_donors>  (1184) 
0

>  <hydrogen_bond_acceptors_lipinski>  (1184) 
0

>  <hydrogen_bond_donors_lipinski>  (1184) 
0

>  <lipinski_rule_of_five_violations>  (1184) 
1

>  <aromatic_rings_count>  (1184) 
0

>  <qed_drug_likeliness>  (1184) 
0.27

>  <formal_charge>  (1184) 
0

>  <fractioncsp3>  (1184) 
1.00

>  <number_of_minimal_rings>  (1184) 
0

>  <van_der_walls_volume>  (1184) 
312.18

>  <contains_sugar>  (1184) 
False

>  <contains_ring_sugars>  (1184) 
False

>  <contains_linear_sugars>  (1184) 
False

>  <murcko_framework>  (1184) 
nan

>  <np_likeness>  (1184) 
0.14

>  <chemical_class>  (1184) 
Saturated hydrocarbons

>  <chemical_sub_class>  (1184) 
Alkanes

>  <chemical_super_class>  (1184) 
Hydrocarbons

>  <direct_parent_classification>  (1184) 
Alkanes

>  <np_classifier_pathway>  (1184) 
Fatty acids

>  <np_classifier_superclass>  (1184) 
Fatty acyls

>  <np_classifier_class>  (1184) 
Hydrocarbons

>  <np_classifier_is_glycoside>  (1184) 
False

>  <organisms>  (1184) 
Ageratina altissima|Aiouea costaricensis|Albatrellus cristatus|Aloe vera|Alphinia galanga|Alpinia galanga|Annona squamosa|Apium graveolens|Arabidopsis thaliana|Armoracia rusticana|Artemisia Annua|Artemisia annua|Artemisia annua L.|Aster scaber|Bistorta manshuriensis|Bistorta officinalis|Camellia sinensis|Camptotheca acuminata|Cannabis sativa|Capsicum annuum|Caryocar coriaceum|Ceratophyllum demersum|Cestrum nocturnum|Cirsium dipsacolepis|Cistus creticus|Cistus ladanifer|Cistus laurifolius|Cistus monspeliensis|Citrullus lanatus|Citrullus lanatus subsp. vulgaris|Codonopsis pilosula|Crocus sativus|Curcuma amada|Curcuma amanda Roxb|Cymbopogon citratus|Cynanchum stauntoni|Cynanchum stauntonii|Cynomorium songaricum|Daphne odora|Digitalis purpurea|Echinops grijsii|Erucaria microcarpa|Eucalyptus leucoxylon|Eucalyptus melliodora|Fragaria|Fragaria x ananassa|Fructus hippophae|Ginkgo biloba|Gymnodinium nagasakiense|Hamamelis virginiana|Homo sapiens|Houttuynia cordata|Jerusalem artichoke|Karenia mikimotoi|Lantana camara|Lavandula angustifolia|Leonurus heterophyllus|Magnolia obovata|Magnolia officinalis|Mangifera indica|Manilkara bidentata|Melaleuca quinquenervia|Meliosma simplicifolia|Melissa officinalis|Microcystis aeruginosa|Murraya paniculata|Nelumbo lutea|Nelumbo nucifera|Nicotiana tabacum|Nymphaea alba|Orthosiphon aristatus|Orthosiphon grandiflorus|Oryza sativa|Persicaria hydropiperoides|Persicaria minor|Petasites hybridus|Piper longum|Piper nigrum|Plantago ovata|Pogostemon cablin|Polygonum Minus|Polygonum minus|Porphyra tenera|Prunus laurocerasus|Quercus myrsinifolia|Rhaponticum uniflorum|Rhizoprionodon acutus|Rosa gallica|Rosa × centifolia|Ruta graveolens|Salia triloba|Salvia fruticosa|Salvia triloba|Sauromatum venosum|Saussurea involucrata|Scutellaria baicalensis|Senna alexandrina|Sideritis syriaca|Sideritis taurica|Stoebe plumosa|Stoebe vulgaris|Tamarindus indica|Tetrapanax papyrifer|Trametes lilacinogilva|Trichosanthes kirilowii|Typhonium flagelliforme|Vanilla madagascariensis|Vanilla planifolia|Vanilla tahitensis|Vincetoxicum glaucescens|Vincetoxicum stauntonii|Zanthoxylum bungeanum|Zanthoxylum piperitum|Zanthoxylum schinifolium|bellis perennis|liquorice|watermelon

>  <collections>  (1184) 
ANPDB|Australian natural products|CMAUP (cCollective molecular activities of useful plants)|ChEBI NPs|EMNPD|ETM (Ethiopian Traditional Medicine) DB|FooDB|KNApSaCK|Latin America dataset|NANPDB (Natural Products from Northern African Sources)|NAPRORE-CR|NPASS|NuBBEDB|Super Natural II|TCMDB-Taiwan (Traditional Chinese Medicine database)|TCMID (Traditional Chinese Medicine Integrated Database)|TIPdb (database of Taiwan indigenous plants)|UNPD (Universal Natural Products Database)|VietHerb|Watermelon|WikiData Natural Products

>  <dois>  (1184) 
10.1002/(SICI)1099-1026(199901/02)14:1<15::AID-FFJ777>3.0.CO;2-M|10.1002/(SICI)1099-1573(199906)13:4<329::AID-PTR458>3.0.CO;2-U|10.1002/CBDV.201800531|10.1002/FFJ.1053|10.1002/FFJ.1105|10.1002/FFJ.1547|10.1002/FFJ.1588|10.1002/FFJ.1804|10.1002/FFJ.2730050305|10.1002/PTR.2137|10.1002/PTR.2212|10.1007/S11418-006-0112-9|10.1007/S11418-007-0175-2|10.1016/0031-9422(90)83036-Z|10.1016/0031-9422(92)80160-G|10.1016/0031-9422(95)00183-8|10.1016/0031-9422(96)00241-5|10.1016/J.ACA.2004.09.082|10.1016/J.BSE.2016.02.030|10.1016/J.CHROMA.2004.03.057|10.1016/J.CHROMA.2014.10.058|10.1016/J.FOODCHEM.2008.09.107|10.1016/J.FOODCHEM.2012.09.111|10.1016/J.FOODCHEM.2016.04.071|10.1016/J.JPBA.2009.01.038|10.1016/J.RENENE.2017.12.012|10.1016/S0031-9422(00)81427-2|10.1016/S0031-9422(00)88097-8|10.1016/S0031-9422(00)94756-3|10.1016/S0031-9422(82)85033-4|10.1016/S0031-9422(97)00943-6|10.1016/S0165-022X(00)00079-8|10.1016/S0367-326X(01)00327-6|10.1016/S0378-8741(01)00274-4|10.1016/S0378-8741(02)00172-1|10.1016/s0031-9422(97)00943-6|10.1021/JF00034A033|10.1021/JF00087A036|10.1021/JF00120A031|10.1021/JF960625+|10.1021/JF960927B|10.1021/NP000159P|10.1021/NP50008A001|10.1021/NP800631T|10.1021/NP970146K|10.1021/jf00120a031|10.1021/jf960625+|10.1039/JR9630000677|10.1055/S-0028-1099475|10.1055/S-2006-957420|10.1055/S-2007-969136|10.1071/bi9810115|10.1076/PHBI.35.1.66.13267|10.1080/03081080802049013|10.1080/10412905.1991.9697919|10.1080/10412905.1991.9697932|10.1080/10412905.1992.9698080|10.1080/10412905.1994.9698449|10.1080/10412905.1995.9698472|10.1080/10412905.1997.9700727|10.1080/10412905.2010.9700389|10.1080/14786410903246868|10.1088/1752-7155/8/1/014001|10.1105/TPC.15.01033|10.1186/S12906-017-1561-2|10.1271/BBB.57.1350|10.1271/BBB1961.47.483|10.1271/BBB1961.49.3145|10.1271/BBB1961.51.1449|10.1271/NOGEIKAGAKU1924.61.1119|10.1300/J044V05N02_05|10.1515/ZNB-2005-0916|10.1515/ZNC-1984-7-802|10.1631/JZUS.B1200086|10.17660/ACTAHORTIC.2005.677.9|10.21608/ZJPS.1997.169710|10.3390/MOLECULES191119220|10.3724/SP.J.1238.2012.00106|10.5650/jos.ess21076|10.7235/HORT.2013.12200

>  <synonyms>  (1184) 
1-(4-Chlorophenyl)-1,3-dihydro-2H-indol-2-one|128271-18-1|379E5588-B955-4C35-88E0-21E7DF38DE0E|593-45-3|AI3-06523|AKOS015903064|AS-56224|CACTUS NORMAL PARAFFIN TS 8|CCRIS 681|CH3-(CH2)16-CH3|CH3-[CH2]16-CH3|CHEBI:32926|CS-0034329|DTXCID7027172|DTXSID9047172|EC 209-790-3|EINECS 209-790-3|HSDB 8348|HY-N6600|InChI=1\/C18H38\/c1-3-5-7-9-11-13-15-17-18-16-14-12-10-8-6-4-2\/h3-18H2,1-2H|LMFA11000581|MFCD00009007|N102P6HAIU|NS00010781|NSC 4201|NSC-4201|O0003|OCTADECANE [INCI]|Octadecan|Octadecane, 99%|Octadecane, analytical standard|Octadecane, n-|Octadecane, purum, >=97.0% (GC)|Oktadekan|Q150900|TS Paraffin TS 8|UNII-N102P6HAIU|n-Octadecane|octadecane

>  <cas>  (1184) 
593-45-3|128271-18-1

$$$$

     RDKit          2D

 18 20  0  0  0  0  0  0  0  0999 V2000
   -4.3279   -1.6130    0.0000 C   0  0  0  0  0  0  0  0  0  0  0  0
   -4.3954   -0.1145    0.0000 C   0  0  0  0  0  0  0  0  0  0  0  0
   -4.4629    1.3839    0.0000 C   0  0  0  0  0  0  0  0  0  0  0  0
   -5.8939   -0.1820    0.0000 O   0  0  0  0  0  0  0  0  0  0  0  0
   -2.8969   -0.0470    0.0000 C   0  0  0  0  0  0  0  0  0  0  0  0
   -2.0708    1.2049    0.0000 C   0  0  0  0  0  0  0  0  0  0  0  0
   -0.6248    0.8060    0.0000 C   0  0  0  0  0  0  0  0  0  0  0  0
    0.6392    1.6137    0.0000 C   0  0  0  0  0  0  0  0  0  0  0  0
    1.9707    0.9229    0.0000 C   0  0  0  0  0  0  0  0  0  0  0  0
    2.0382   -0.5756    0.0000 C   0  0  0  0  0  0  0  0  0  0  0  0
    0.7742   -1.3832    0.0000 C   0  0  0  0  0  0  0  0  0  0  0  0
   -0.5573   -0.6924    0.0000 C   0  0  0  0  0  0  0  0  0  0  0  0
   -1.9616   -1.2197    0.0000 O   0  0  0  0  0  0  0  0  0  0  0  0
    3.3696   -1.2663    0.0000 O   0  0  0  0  0  0  0  0  0  0  0  0
    4.6336   -0.4587    0.0000 C   0  0  0  0  0  0  0  0  0  0  0  0
    5.9651   -1.1495    0.0000 O   0  0  0  0  0  0  0  0  0  0  0  0
    4.5661    1.0398    0.0000 C   0  0  0  0  0  0  0  0  0  0  0  0
    3.2347    1.7306    0.0000 C   0  0  0  0  0  0  0  0  0  0  0  0
  1  2  1  0
  2  3  1  0
  2  4  1  0
  5  2  1  6
  5  6  1  0
  6  7  1  0
  7  8  2  0
  8  9  1  0
  9 10  2  0
 10 11  1  0
 11 12  2  0
 12 13  1  0
 10 14  1  0
 14 15  1  0
 15 16  2  0
 15 17  1  0
 17 18  2  0
 13  5  1  0
 12  7  1  0
 18  9  1  0
M  END
>  <identifier>  (1185) 
CNP0155202.1

>  <canonical_smiles>  (1185) 
CC(C)(O)[C@@H]1CC2=CC3=C(C=C2O1)OC(=O)C=C3

>  <standard_inchi>  (1185) 
InChI=1S/C14H14O4/c1-14(2,16)12-6-9-5-8-3-4-13(15)18-10(8)7-11(9)17-12/h3-5,7,12,16H,6H2,1-2H3/t12-/m0/s1

>  <standard_inchi_key>  (1185) 
FWYSBEAFFPBAQU-LBPRGKRZSA-N

>  <name>  (1185) 
Marmesin

>  <iupac_name>  (1185) 
(2~{S})-2-(1-hydroxy-1-methyl-ethyl)-2,3-dihydrofuro[3,2-g]chromen-7-one

>  <annotation_level>  (1185) 
5

>  <total_atom_count>  (1185) 
32

>  <heavy_atom_count>  (1185) 
18

>  <molecular_weight>  (1185) 
246.26

>  <exact_molecular_weight>  (1185) 
246.08921

>  <molecular_formula>  (1185) 
C14H14O4

>  <alogp>  (1185) 
1.87

>  <topological_polar_surface_area>  (1185) 
59.67

>  <rotatable_bond_count>  (1185) 
1

>  <hydrogen_bond_acceptors>  (1185) 
4

>  <hydrogen_bond_donors>  (1185) 
1

>  <hydrogen_bond_acceptors_lipinski>  (1185) 
4

>  <hydrogen_bond_donors_lipinski>  (1185) 
1

>  <lipinski_rule_of_five_violations>  (1185) 
0

>  <aromatic_rings_count>  (1185) 
2

>  <qed_drug_likeliness>  (1185) 
0.78

>  <formal_charge>  (1185) 
0

>  <fractioncsp3>  (1185) 
0.36

>  <number_of_minimal_rings>  (1185) 
3

>  <van_der_walls_volume>  (1185) 
216.51

>  <contains_sugar>  (1185) 
False

>  <contains_ring_sugars>  (1185) 
False

>  <contains_linear_sugars>  (1185) 
False

>  <murcko_framework>  (1185) 
O1c2cc3OCCc3cc2C=CC1

>  <np_likeness>  (1185) 
1.99

>  <chemical_class>  (1185) 
Coumarins and derivatives

>  <chemical_sub_class>  (1185) 
Furanocoumarins

>  <chemical_super_class>  (1185) 
Phenylpropanoids and polyketides

>  <direct_parent_classification>  (1185) 
Psoralens

>  <np_classifier_pathway>  (1185) 
Shikimates and Phenylpropanoids

>  <np_classifier_superclass>  (1185) 
Coumarins

>  <np_classifier_class>  (1185) 
Furocoumarins

>  <np_classifier_is_glycoside>  (1185) 
False

>  <organisms>  (1185) 
Aegle Marmelos|Aegle marmelos|Afraegle paniculata|Ammi majus|Ammi majus L.|Ammi sp.|Amyris brenesii|Amyris diatrypa|Amyris lineata|Anemarrhena asphodeloides|Angelica Dahurica|Angelica acutiloba|Angelica biserrata|Angelica dahurica|Angelica decursiva|Angelica gigas|Angelica japonica|Angelica pachycarpa|Angelica pubescens|Angelica sinensis|Angelica sp.|Annona pittieri|Antiaris toxicaria|Arracacia xanthorrhiza|Ashitaba|Asterolasia phebalioides|Balanites aegyptiaca|Balanites aegyptiacus|Boronia algida|Brosimum gaudichaudii|Broussonetia Papyrifera|Broussonetia papyrifera|Broussonetia papyrigera|Broussonetia sp.|Cachrys buchorica|Chorilaena quercifolia|Clausena anisata|Clausena dunniana|Conchocarpus inopinatus|Coronilla scorpioides|Coronilla vaginalis|Coronilla viminalis|Croton joufra|Cynometra hankei|Cystoseira caespitosa|Dystaenia takesimana|Esenbeckia leiocarpa|Eucalyptus laevopinea|Euodia|Fatoua pilosa|Fatoua villosa|Feronia sp.|Feroniella lucida|Ferulago capillaries|Ferulago capillaris|Ficus Carica|Ficus carica|Ficus carica L.|Ficus cunninghamii|Ficus eriobotryoides|Ficus glumosa|Ficus nervosa|Ficus sp.|Ficus sycomorus|Fucus serratus|Glehnia littoralis|Halosciastrum melanotilingia|Hansenia weberbaueriana|Haplophyllum|Heracleum candicans|Heracleum candicans WALL.|Heracleum grandiflorum|Heracleum rapula|Hunteria eburnea|Hymenidium lindleyanum|Hypholoma capnoides|Lactarius deliciosus var. deterrimus|Laurus camphora|Leionema ambiens|Lepechinia hastata|Limonia acidissima|Maquira calophylla|Notopterygium incisum|Notopterygium sp.|Opopanax chironium|Pelargonium crispum|Petroselinum Crispum|Petroselinum crispum|Peucedanum japonicum|Peucedanum mashanense|Peucedanum rubricaule|Peucedanum sp.|Peucedanum terebinthaceum|Phebalium squamulosum|Phebalium whitei|Pituranthos triradiatus|Pleurospermum rivulorum|Poncirus trifoliata|Prangos|Prangos bucharica|Prangos latiloba|Prangos lipskyi|Prangos tschimganica|Prangos uloptera|Rhadinothamnus anceps|Rhadinothamnus rudis|Rosa transmorrisonensis|Rutaceae|Saposhnikovia divaricata|Saposhnikovia sp.|Scaevola spinescens|Seseli asperulum|Solidago missouriensis|Tephrosia sinapou|Tephrosia toxicaria|Thamnosma rhodesica|Trifoliate orange|Zanthoxylum ailanthoides|Zanthoxylum arnottianum|Zanthoxylum belizense|Zanthoxylum ekmanii|Zanthoxylum piasezkii|Zanthoxylum sp.|Zanthoxylum spinosum|Zanthoxylum syncarpum|Zanthoxylum wutaiense|Zanthoxylum zanthoxyloides|parsley|tomato

>  <collections>  (1185) 
ANPDB|AnalytiCon Discovery NPs|Australian natural products|CMAUP (cCollective molecular activities of useful plants)|ChEBI NPs|GNPS (Global Natural Products Social Molecular Networking)|KNApSaCK|Latin America dataset|NANPDB (Natural Products from Northern African Sources)|NAPRORE-CR|NPASS|NPEdia|NuBBEDB|PhytoLab phyproof® Reference Substances|SANCDB|Super Natural II|TCMDB-Taiwan (Traditional Chinese Medicine database)|TIPdb (database of Taiwan indigenous plants)|TPPT (Toxic Plants–PhytoToxins)|VietHerb|WikiData Natural Products

>  <dois>  (1185) 
10.1002/9780470744307.gat218|10.1002/CBDV.200900227|10.1002/CBDV.200900326|10.1002/CBDV.201000127|10.1002/CHIN.199005299|10.1002/HLCA.200390259|10.1002/RECL.19680870808|10.1002/biuz.19840140514|10.1002/food.19880321030|10.1007/BF00563962|10.1007/BF00564008|10.1007/BF00565847|10.1007/BF00567813|10.1007/BF00570198|10.1007/BF00570686|10.1007/BF00570861|10.1007/BF00781092|10.1007/BF02249699|10.1007/BF02968244|10.1007/S10600-018-2544-3|10.1007/S11418-008-0266-8|10.1007/S12272-015-0629-0|10.1016/0031-9422(89)80215-8|10.1016/0031-9422(90)85357-L|10.1016/0031-9422(90)85418-F|10.1016/0031-9422(92)83450-D|10.1016/0031-9422(94)00956-T|10.1016/0031-9422(95)00625-7|10.1016/0031-9422(96)00355-X|10.1016/0031-9422(96)00355-x|10.1016/0305-1978(94)90036-1|10.1016/J.BMC.2005.07.050|10.1016/J.BMC.2014.01.052|10.1016/J.BSE.2004.12.020|10.1016/J.CHROMA.2010.04.076|10.1016/J.JEP.2008.06.025|10.1016/J.JEP.2014.07.033|10.1016/J.PHYMED.2016.06.015|10.1016/J.PHYTOCHEM.2003.12.020|10.1016/J.PHYTOCHEM.2011.11.018|10.1016/J.SAJB.2019.01.015|10.1016/S0031-9422(00)81200-5|10.1016/S0031-9422(00)91132-4|10.1016/S0031-9422(97)00123-4|10.1016/S0031-9422(99)00072-2|10.1016/j.bmc.2014.01.052|10.1016/j.sajb.2019.01.015|10.1021/JA01170A062|10.1021/JO01060A039|10.1021/NP000441W|10.1021/NP010288L|10.1021/NP0302100|10.1021/NP030417T|10.1021/NP0340652|10.1021/NP50033A036|10.1021/NP50039A034|10.1021/NP50046A035|10.1021/NP50048A044|10.1021/NP50050A015|10.1021/NP50058A035|10.1021/NP50087A013|10.1021/np010288l|10.1039/JR9590001922|10.1055/S-0030-1264773|10.1055/S-0036-1596440|10.1055/S-2006-957961|10.1055/S-2006-957985|10.1055/S-2006-961611|10.1055/S-2007-969587|10.1055/S-2007-969641|10.1055/S-2007-971481|10.1055/s-2006-962158.pdf|10.1076/PHBI.34.2.114.13188|10.1080/10286020.2011.572878|10.1080/10286020701273759|10.1080/15287398409530517|10.1111/J.1432-1033.1988.TB13800.X|10.1139/B71-295|10.1186/2191-2858-2-1|10.1248/CPB.28.1847|10.1248/CPB.29.2565|10.1248/CPB.49.877|10.1515/ZNB-2005-0514|10.15517/rbt.v56i3.5691|10.1590/S0100-40422012001100006|10.1590/S0103-50532002000200023|10.4067/S0717-97072021000105047

>  <synonyms>  (1185) 
(+)-2,3-dihydro-2-(1-hydroxy-1-methylethyl)-7H-furo[3,2-g][1]benzopyran-7-one|(+)-Marmesin|(+)-Marmesin;(S)-Marmesin|(2S)-2-(1-hydroxy-1-methylethyl)-2,3-dihydro-7H-furo[3,2-g]chromen-7-one|(7S)-marmesin|(S)-2-(2-Hydroxypropan-2-yl)-2H-furo[3,2-g]chromen-7(3H)-one|(S)-2-(2-hydroxypropan-2-yl)-2,3-dihydro-7H-furo[3,2-g]chromen-7-one|13849-08-6|2-(2-HYDROXYPROPAN-2-YL)-2H,3H,7H-FURO[3,2-G]CHROMEN-7-ONE|7H-FURO(3,2-G)(1)BENZOPYRAN-7-ONE, 2,3-DIHYDRO-2-(1-HYDROXY-1-METHYLETHYL)-, (2S)-|7H-Furo[3, 2,3-dihydro-2-(1-hydroxy-1-methylethyl)-, (+)-|7H-Furo[3,2-g][1]benzopyran-7-one, 2,3-dihydro-2-(1-hydroxy-1-methylethyl)-, (2S)-|AB00053150-02|AC-35105|AKOS021983162|BDBM50250917|BRD-K36377456-001-02-0|BSPBio_003363|C09276|CCG-40145|CCRIS 5728|CHEBI:6695|CHEMBL442813|CS-7901|DTXSID001030448|DivK1c_007014|FWYSBEAFFPBAQU-LBPRGKRZSA-N|H5D33D6K5D|HSDB 8478|HY-N2176|KBio1_001958|KBio2_001996|KBio2_004564|KBio2_007132|KBio3_002583|KBioGR_002022|KBioSS_001996|MARMESIN, (+)-|MEGxp0_001933|MFCD01725701|MS-23486|Marmesin|Marmesin ((+)-Marmesin)|Marmesina|NCGC00178117-02!(2S)-2-(2-hydroxypropan-2-yl)-2,3-dihydrofuro[3,2-g]chromen-7-one|NS00094519|NSC-340840|NSC796156|Q13847605|SCHEMBL12062107|SDCCGMLS-0066759.P001|SPBio_000694|SpecPlus_000918|Spectrum2_000737|Spectrum3_001642|Spectrum4_001701|Spectrum5_000402|Spectrum_001516|UNII-H5D33D6K5D|marmesin|s3283

>  <cas>  (1185) 
13849-08-6

$$$$

     RDKit          2D

 23 24  0  0  0  0  0  0  0  0999 V2000
   -6.6498   -2.6942    0.0000 C   0  0  0  0  0  0  0  0  0  0  0  0
   -5.1595   -2.5235    0.0000 C   0  0  0  0  0  0  0  0  0  0  0  0
   -4.2666   -3.7288    0.0000 C   0  0  0  0  0  0  0  0  0  0  0  0
   -4.5621   -1.1476    0.0000 C   0  0  0  0  0  0  0  0  0  0  0  0
   -3.0719   -0.9770    0.0000 C   0  0  0  0  0  0  0  0  0  0  0  0
   -2.4745    0.3989    0.0000 C   0  0  0  0  0  0  0  0  0  0  0  0
   -3.3674    1.6042    0.0000 C   0  0  0  0  0  0  0  0  0  0  0  0
   -4.8576    1.4336    0.0000 O   0  0  0  0  0  0  0  0  0  0  0  0
   -2.7700    2.9801    0.0000 C   0  0  0  0  0  0  0  0  0  0  0  0
   -1.2797    3.1507    0.0000 C   0  0  0  0  0  0  0  0  0  0  0  0
   -0.3868    1.9454    0.0000 C   0  0  0  0  0  0  0  0  0  0  0  0
    1.1034    2.1160    0.0000 C   0  0  0  0  0  0  0  0  0  0  0  0
    1.7008    3.4920    0.0000 O   0  0  0  0  0  0  0  0  0  0  0  0
    1.9963    0.9107    0.0000 C   0  0  0  0  0  0  0  0  0  0  0  0
    3.4866    1.0813    0.0000 C   0  0  0  0  0  0  0  0  0  0  0  0
    4.3795   -0.1240    0.0000 C   0  0  0  0  0  0  0  0  0  0  0  0
    3.7821   -1.4999    0.0000 C   0  0  0  0  0  0  0  0  0  0  0  0
    4.6750   -2.7052    0.0000 C   0  0  0  0  0  0  0  0  0  0  0  0
    6.1653   -2.5346    0.0000 C   0  0  0  0  0  0  0  0  0  0  0  0
    6.7626   -1.1586    0.0000 C   0  0  0  0  0  0  0  0  0  0  0  0
    5.8697    0.0467    0.0000 C   0  0  0  0  0  0  0  0  0  0  0  0
   -0.9842    0.5695    0.0000 C   0  0  0  0  0  0  0  0  0  0  0  0
   -0.0913   -0.6358    0.0000 O   0  0  0  0  0  0  0  0  0  0  0  0
  1  2  1  0
  2  3  1  0
  2  4  2  0
  4  5  1  0
  5  6  1  0
  6  7  2  0
  7  8  1  0
  7  9  1  0
  9 10  2  0
 10 11  1  0
 11 12  1  0
 12 13  2  0
 12 14  1  0
 14 15  2  0
 15 16  1  0
 16 17  2  0
 17 18  1  0
 18 19  2  0
 19 20  1  0
 20 21  2  0
 11 22  2  0
 22 23  1  0
 22  6  1  0
 21 16  1  0
M  END
>  <identifier>  (1186) 
CNP0327128.1

>  <canonical_smiles>  (1186) 
CC(C)=CCC1=C(O)C=CC(C(=O)/C=C/C2=CC=CC=C2)=C1O

>  <standard_inchi>  (1186) 
InChI=1S/C20H20O3/c1-14(2)8-10-16-19(22)13-11-17(20(16)23)18(21)12-9-15-6-4-3-5-7-15/h3-9,11-13,22-23H,10H2,1-2H3/b12-9+

>  <standard_inchi_key>  (1186) 
CHWWSUSAPRACBZ-FMIVXFBMSA-N

>  <name>  (1186) 
nan

>  <iupac_name>  (1186) 
nan

>  <annotation_level>  (1186) 
0

>  <total_atom_count>  (1186) 
43

>  <heavy_atom_count>  (1186) 
23

>  <molecular_weight>  (1186) 
308.38

>  <exact_molecular_weight>  (1186) 
308.14124

>  <molecular_formula>  (1186) 
C20H20O3

>  <alogp>  (1186) 
4.50

>  <topological_polar_surface_area>  (1186) 
57.53

>  <rotatable_bond_count>  (1186) 
5

>  <hydrogen_bond_acceptors>  (1186) 
3

>  <hydrogen_bond_donors>  (1186) 
2

>  <hydrogen_bond_acceptors_lipinski>  (1186) 
3

>  <hydrogen_bond_donors_lipinski>  (1186) 
2

>  <lipinski_rule_of_five_violations>  (1186) 
0

>  <aromatic_rings_count>  (1186) 
2

>  <qed_drug_likeliness>  (1186) 
0.49

>  <formal_charge>  (1186) 
0

>  <fractioncsp3>  (1186) 
0.15

>  <number_of_minimal_rings>  (1186) 
2

>  <van_der_walls_volume>  (1186) 
293.93

>  <contains_sugar>  (1186) 
False

>  <contains_ring_sugars>  (1186) 
False

>  <contains_linear_sugars>  (1186) 
False

>  <murcko_framework>  (1186) 
c1ccc(cc1)C=CCc2ccccc2

>  <np_likeness>  (1186) 
1.27

>  <chemical_class>  (1186) 
nan

>  <chemical_sub_class>  (1186) 
nan

>  <chemical_super_class>  (1186) 
nan

>  <direct_parent_classification>  (1186) 
nan

>  <np_classifier_pathway>  (1186) 
Shikimates and Phenylpropanoids

>  <np_classifier_superclass>  (1186) 
Flavonoids

>  <np_classifier_class>  (1186) 
Chalcones

>  <np_classifier_is_glycoside>  (1186) 
False

>  <organisms>  (1186) 
Agelas dispar|Agrobacterium tumefaciens|Artemisia schischkinii|Coccinella transversoguttata|Derris floribunda|Derris trifoliata|Drimys winteri|Ecklonia arborea|Eugenia hyemalis|Flemingia Stricta|Flemingia stricta|Helichrysum arenarium subsp. aucheri|Hygrocybe punicea|Leguminosae|Lonchocarpus Sericeus|Lonchocarpus guatemalensis|Lonchocarpus neuroscapha|Lonchocarpus sericeus|Morus nigra|Phora affinis|Phyllospongia lamellosa|Pongamia pinnata|Rabdosia ternifolia|Rubus chroosepalus|Scalesia baurii|Sophora flavescens|Tephrosia spinosa|Tephrosia viridiflora|Ventilago leiocarpa

>  <collections>  (1186) 
Australian natural products|CMAUP (cCollective molecular activities of useful plants)|InflamNat|KNApSaCK|Latin America dataset|NPASS|NPEdia|NuBBEDB|Super Natural II|TCMDB-Taiwan (Traditional Chinese Medicine database)|VietHerb|WikiData Natural Products|ZINC NP

>  <dois>  (1186) 
10.1016/0031-9422(92)80376-P|10.1016/J.PHYTOCHEM.2018.02.005|10.1016/S0031-9422(00)98664-3|10.1016/S0031-9422(02)00131-0|10.1016/j.phytochem.2018.02.005|10.1021/NP50048A064|10.1055/S-2001-15814

>  <synonyms>  (1186) 
nan

>  <cas>  (1186) 
nan

$$$$

     RDKit          2D

 40 42  0  0  0  0  0  0  0  0999 V2000
   -5.7445    4.6947    0.0000 C   0  0  0  0  0  0  0  0  0  0  0  0
   -4.4683    3.9065    0.0000 C   0  0  0  0  0  0  0  0  0  0  0  0
   -3.1476    4.6177    0.0000 C   0  0  0  0  0  0  0  0  0  0  0  0
   -3.1031    6.1170    0.0000 C   0  0  0  0  0  0  0  0  0  0  0  0
   -1.8713    3.8295    0.0000 C   0  0  0  0  0  0  0  0  0  0  0  0
   -1.9158    2.3301    0.0000 C   0  0  0  0  0  0  0  0  0  0  0  0
   -0.6396    1.5420    0.0000 C   0  0  0  0  0  0  0  0  0  0  0  0
   -0.0850    2.9357    0.0000 C   0  0  0  0  0  0  0  0  0  0  0  0
   -1.6374    0.4220    0.0000 C   0  0  0  0  0  0  0  0  0  0  0  0
   -3.1062    0.7261    0.0000 C   0  0  0  0  0  0  0  0  0  0  0  0
   -1.1664   -1.0021    0.0000 C   0  0  0  0  0  0  0  0  0  0  0  0
   -2.1642   -2.1221    0.0000 O   0  0  0  0  0  0  0  0  0  0  0  0
   -3.6331   -1.8180    0.0000 C   0  0  0  0  0  0  0  0  0  0  0  0
   -4.1041   -0.3938    0.0000 O   0  0  0  0  0  0  0  0  0  0  0  0
   -4.6309   -2.9379    0.0000 C   0  0  0  0  0  0  0  0  0  0  0  0
   -6.0997   -2.6338    0.0000 C   0  0  0  0  0  0  0  0  0  0  0  0
   -7.0975   -3.7537    0.0000 C   0  0  0  0  0  0  0  0  0  0  0  0
    0.3025   -1.3063    0.0000 C   0  0  0  0  0  0  0  0  0  0  0  0
    0.4149   -2.8021    0.0000 O   0  0  0  0  0  0  0  0  0  0  0  0
    1.3003   -0.1863    0.0000 C   0  0  0  0  0  0  0  0  0  0  0  0
    2.7691   -0.4905    0.0000 C   0  0  0  0  0  0  0  0  0  0  0  0
    3.7669    0.6295    0.0000 C   0  0  0  0  0  0  0  0  0  0  0  0
    3.2959    2.0536    0.0000 C   0  0  0  0  0  0  0  0  0  0  0  0
    4.2938    3.1736    0.0000 O   0  0  0  0  0  0  0  0  0  0  0  0
    5.7626    2.8694    0.0000 C   0  0  0  0  0  0  0  0  0  0  0  0
    6.7604    3.9894    0.0000 C   0  0  0  0  0  0  0  0  0  0  0  0
    6.2336    1.4453    0.0000 O   0  0  0  0  0  0  0  0  0  0  0  0
    1.8271    2.3578    0.0000 C   0  0  0  0  0  0  0  0  0  0  0  0
    0.8293    1.2378    0.0000 C   0  0  0  0  0  0  0  0  0  0  0  0
    2.4843   -0.0164    0.0000 C   0  0  0  0  0  0  0  0  0  0  0  0
    4.2367   -2.7246    0.0000 O   0  0  0  0  0  0  0  0  0  0  0  0
    4.2446   -4.2246    0.0000 C   0  0  0  0  0  0  0  0  0  0  0  0
    5.5475   -4.9677    0.0000 C   0  0  0  0  0  0  0  0  0  0  0  0
    2.9495   -4.9814    0.0000 O   0  0  0  0  0  0  0  0  0  0  0  0
    1.9925   -0.5423    0.0000 O   0  0  0  0  0  0  0  0  0  0  0  0
    1.7499    0.1357    0.0000 C   0  0  0  0  0  0  0  0  0  0  0  0
   -0.9338   -1.6539    0.0000 O   0  0  0  0  0  0  0  0  0  0  0  0
   -1.5367   -3.0274    0.0000 C   0  0  0  0  0  0  0  0  0  0  0  0
   -3.0277   -3.1920    0.0000 C   0  0  0  0  0  0  0  0  0  0  0  0
   -0.6487   -4.2363    0.0000 O   0  0  0  0  0  0  0  0  0  0  0  0
  1  2  2  0
  2  3  1  0
  3  4  1  0
  3  5  2  0
  5  6  1  0
  6  7  1  0
  7  8  1  6
  7  9  1  0
  9 10  1  1
  9 11  1  0
 11 12  1  6
 12 13  1  0
 13 14  2  0
 13 15  1  0
 15 16  1  0
 16 17  1  0
 11 18  1  0
 18 19  1  1
 18 20  1  0
 20 21  1  6
 21 22  2  0
 22 23  1  0
 23 24  1  1
 24 25  1  0
 25 26  1  0
 25 27  2  0
 23 28  1  0
 29 28  1  6
 21 30  1  0
 30 31  1  6
 31 32  1  0
 32 33  1  0
 32 34  2  0
 30 35  1  0
 35 36  1  0
 36 37  1  6
 37 38  1  0
 38 39  1  0
 38 40  2  0
 29  7  1  0
 29 20  1  0
 36 20  1  0
M  END
>  <identifier>  (1187) 
CNP0349875.1

>  <canonical_smiles>  (1187) 
C=C/C(C)=C\C[C@]1(C)[C@H](C)[C@@H](OC(=O)CCC)[C@H](O)[C@@]23C(=C[C@H](OC(C)=O)C[C@@H]12)[C@@H](OC(C)=O)O[C@H]3OC(C)=O

>  <standard_inchi>  (1187) 
InChI=1S/C30H42O10/c1-9-11-24(34)39-25-17(4)29(8,13-12-16(3)10-2)23-15-21(36-18(5)31)14-22-27(37-19(6)32)40-28(38-20(7)33)30(22,23)26(25)35/h10,12,14,17,21,23,25-28,35H,2,9,11,13,15H2,1,3-8H3/b16-12-/t17-,21+,23+,25-,26+,27+,28-,29-,30-/m1/s1

>  <standard_inchi_key>  (1187) 
AHLOBMCYQWEIMH-XCQGBTKVSA-N

>  <name>  (1187) 
nan

>  <iupac_name>  (1187) 
[(1~{S},3~{R},5~{R},6~{a}~{S},7~{S},8~{S},9~{R},10~{R},10~{a}~{S})-1,3,5-triacetoxy-10-hydroxy-7,8-dimethyl-7-[(2~{Z})-3-methylpenta-2,4-dienyl]-1,3,5,6,6~{a},8,9,10-octahydrobenzo[d]isobenzofuran-9-yl] butanoate

>  <annotation_level>  (1187) 
5

>  <total_atom_count>  (1187) 
82

>  <heavy_atom_count>  (1187) 
40

>  <molecular_weight>  (1187) 
562.66

>  <exact_molecular_weight>  (1187) 
562.2778

>  <molecular_formula>  (1187) 
C30H42O10

>  <alogp>  (1187) 
3.91

>  <topological_polar_surface_area>  (1187) 
134.66

>  <rotatable_bond_count>  (1187) 
9

>  <hydrogen_bond_acceptors>  (1187) 
10

>  <hydrogen_bond_donors>  (1187) 
1

>  <hydrogen_bond_acceptors_lipinski>  (1187) 
10

>  <hydrogen_bond_donors_lipinski>  (1187) 
1

>  <lipinski_rule_of_five_violations>  (1187) 
1

>  <aromatic_rings_count>  (1187) 
0

>  <qed_drug_likeliness>  (1187) 
0.19

>  <formal_charge>  (1187) 
0

>  <fractioncsp3>  (1187) 
0.67

>  <number_of_minimal_rings>  (1187) 
3

>  <van_der_walls_volume>  (1187) 
519.52

>  <contains_sugar>  (1187) 
False

>  <contains_ring_sugars>  (1187) 
False

>  <contains_linear_sugars>  (1187) 
False

>  <murcko_framework>  (1187) 
O1CC2=CCCC3CCCCC23C1

>  <np_likeness>  (1187) 
3.20

>  <chemical_class>  (1187) 
Prenol lipids

>  <chemical_sub_class>  (1187) 
Diterpenoids

>  <chemical_super_class>  (1187) 
Lipids and lipid-like molecules

>  <direct_parent_classification>  (1187) 
Colensane and clerodane diterpenoids

>  <np_classifier_pathway>  (1187) 
Terpenoids

>  <np_classifier_superclass>  (1187) 
Diterpenoids

>  <np_classifier_class>  (1187) 
Colensane and Clerodane diterpenoids

>  <np_classifier_is_glycoside>  (1187) 
True

>  <organisms>  (1187) 
Casearia sylvestris

>  <collections>  (1187) 
ChemSpider NPs|Latin America dataset|NuBBEDB|Super Natural II|WikiData Natural Products|ZINC NP

>  <dois>  (1187) 
10.1002/PCA.902|10.1002/pca.902|10.1248/CPB.39.693

>  <synonyms>  (1187) 
Casearin K

>  <cas>  (1187) 
nan

$$$$

     RDKit          2D

 25 28  0  0  0  0  0  0  0  0999 V2000
    3.6083    4.6577    0.0000 C   0  0  0  0  0  0  0  0  0  0  0  0
    3.6318    3.1579    0.0000 C   0  0  0  0  0  0  0  0  0  0  0  0
    2.3447    2.3876    0.0000 C   0  0  0  0  0  0  0  0  0  0  0  0
    2.3682    0.8878    0.0000 C   0  0  0  0  0  0  0  0  0  0  0  0
    3.6788    0.1583    0.0000 C   0  0  0  0  0  0  0  0  0  0  0  0
    3.7023   -1.3416    0.0000 C   0  0  0  0  0  0  0  0  0  0  0  0
    5.0129   -2.0711    0.0000 O   0  0  0  0  0  0  0  0  0  0  0  0
    2.4152   -2.1118    0.0000 C   0  0  0  0  0  0  0  0  0  0  0  0
    2.4387   -3.6116    0.0000 O   0  0  0  0  0  0  0  0  0  0  0  0
    1.1515   -4.3819    0.0000 C   0  0  0  0  0  0  0  0  0  0  0  0
    1.1046   -1.3823    0.0000 C   0  0  0  0  0  0  0  0  0  0  0  0
    1.0811    0.1176    0.0000 C   0  0  0  0  0  0  0  0  0  0  0  0
   -0.2296    0.8471    0.0000 O   0  0  0  0  0  0  0  0  0  0  0  0
    0.1667   -0.1340    0.0000 C   0  0  0  0  0  0  0  0  0  0  0  0
   -1.3224   -0.3141    0.0000 C   0  0  0  0  0  0  0  0  0  0  0  0
   -1.9110   -1.6938    0.0000 C   0  0  0  0  0  0  0  0  0  0  0  0
   -3.4002   -1.8739    0.0000 C   0  0  0  0  0  0  0  0  0  0  0  0
   -4.3007   -0.6744    0.0000 C   0  0  0  0  0  0  0  0  0  0  0  0
   -5.7948   -0.5410    0.0000 O   0  0  0  0  0  0  0  0  0  0  0  0
   -6.1296    0.9212    0.0000 C   0  0  0  0  0  0  0  0  0  0  0  0
   -4.8425    1.6915    0.0000 O   0  0  0  0  0  0  0  0  0  0  0  0
   -3.7122    0.7053    0.0000 C   0  0  0  0  0  0  0  0  0  0  0  0
   -2.2230    0.8855    0.0000 C   0  0  0  0  0  0  0  0  0  0  0  0
    0.8963    1.1767    0.0000 C   0  0  0  0  0  0  0  0  0  0  0  0
    0.2648    2.5373    0.0000 C   0  0  0  0  0  0  0  0  0  0  0  0
  1  2  2  0
  2  3  1  0
  4  3  1  6
  4  5  1  0
  5  6  1  0
  6  7  2  0
  6  8  1  0
  8  9  1  6
  9 10  1  0
  8 11  1  0
 11 12  1  6
 12 13  1  0
 11 14  1  0
 14 15  1  6
 15 16  2  0
 16 17  1  0
 17 18  2  0
 18 19  1  0
 19 20  1  0
 20 21  1  0
 21 22  1  0
 22 23  2  0
 14 24  1  0
 24 25  1  1
 12  4  1  0
 23 15  1  0
 24  4  1  0
 22 18  1  0
M  END
>  <identifier>  (1188) 
CNP0177595.5

>  <canonical_smiles>  (1188) 
C=CC[C@]12CC(=O)[C@H](OC)[C@H](C1O)[C@H](C1=CC=C3OCOC3=C1)[C@H]2C

>  <standard_inchi>  (1188) 
InChI=1S/C20H24O5/c1-4-7-20-9-13(21)18(23-3)17(19(20)22)16(11(20)2)12-5-6-14-15(8-12)25-10-24-14/h4-6,8,11,16-19,22H,1,7,9-10H2,2-3H3/t11-,16+,17-,18+,19?,20-/m1/s1

>  <standard_inchi_key>  (1188) 
ATQYAMMIMBVFCS-FPHDGLKNSA-N

>  <name>  (1188) 
nan

>  <iupac_name>  (1188) 
(1~{R},4~{R},5~{S},6~{R},7~{R})-1-allyl-6-(1,3-benzodioxol-5-yl)-8-hydroxy-4-methoxy-7-methyl-bicyclo[3.2.1]octan-3-one

>  <annotation_level>  (1188) 
5

>  <total_atom_count>  (1188) 
49

>  <heavy_atom_count>  (1188) 
25

>  <molecular_weight>  (1188) 
344.41

>  <exact_molecular_weight>  (1188) 
344.16237

>  <molecular_formula>  (1188) 
C20H24O5

>  <alogp>  (1188) 
2.68

>  <topological_polar_surface_area>  (1188) 
64.99

>  <rotatable_bond_count>  (1188) 
4

>  <hydrogen_bond_acceptors>  (1188) 
5

>  <hydrogen_bond_donors>  (1188) 
1

>  <hydrogen_bond_acceptors_lipinski>  (1188) 
5

>  <hydrogen_bond_donors_lipinski>  (1188) 
1

>  <lipinski_rule_of_five_violations>  (1188) 
0

>  <aromatic_rings_count>  (1188) 
1

>  <qed_drug_likeliness>  (1188) 
0.85

>  <formal_charge>  (1188) 
0

>  <fractioncsp3>  (1188) 
0.55

>  <number_of_minimal_rings>  (1188) 
4

>  <van_der_walls_volume>  (1188) 
nan

>  <contains_sugar>  (1188) 
False

>  <contains_ring_sugars>  (1188) 
False

>  <contains_linear_sugars>  (1188) 
False

>  <murcko_framework>  (1188) 
O1c2ccc(cc2OC1)C3CC4CCCC3C4

>  <np_likeness>  (1188) 
1.52

>  <chemical_class>  (1188) 
Benzodioxoles

>  <chemical_sub_class>  (1188) 
Benzodioxoles

>  <chemical_super_class>  (1188) 
Organoheterocyclic compounds

>  <direct_parent_classification>  (1188) 
Benzodioxoles

>  <np_classifier_pathway>  (1188) 
Shikimates and Phenylpropanoids

>  <np_classifier_superclass>  (1188) 
Lignans

>  <np_classifier_class>  (1188) 
Neolignans

>  <np_classifier_is_glycoside>  (1188) 
False

>  <organisms>  (1188) 
Aniba|Aniba sp.

>  <collections>  (1188) 
NuBBEDB|WikiData Natural Products

>  <dois>  (1188) 
10.1016/0031-9422(80)83208-0

>  <synonyms>  (1188) 
(7R8R1'R2'R3'S4'S)-(\u221a\u00e9\u201a\u00c4\u00f98')-2'-Hydroxy-4'-methoxy-34-methylenedioxy-1'2'3'4'5'6'-hexahydro-5'-oxo-7.3'8.1'-neolignan

>  <cas>  (1188) 
nan

$$$$

     RDKit          2D

 20 19  0  0  0  0  0  0  0  0999 V2000
  -12.3424   -0.3213    0.0000 C   0  0  0  0  0  0  0  0  0  0  0  0
  -11.0401    0.4230    0.0000 C   0  0  0  0  0  0  0  0  0  0  0  0
   -9.7443   -0.3326    0.0000 C   0  0  0  0  0  0  0  0  0  0  0  0
   -8.4420    0.4117    0.0000 C   0  0  0  0  0  0  0  0  0  0  0  0
   -7.1463   -0.3439    0.0000 C   0  0  0  0  0  0  0  0  0  0  0  0
   -5.8440    0.4004    0.0000 C   0  0  0  0  0  0  0  0  0  0  0  0
   -4.5482   -0.3552    0.0000 C   0  0  0  0  0  0  0  0  0  0  0  0
   -3.2459    0.3891    0.0000 C   0  0  0  0  0  0  0  0  0  0  0  0
   -1.9502   -0.3665    0.0000 C   0  0  0  0  0  0  0  0  0  0  0  0
   -0.6479    0.3778    0.0000 C   0  0  0  0  0  0  0  0  0  0  0  0
    0.6479   -0.3778    0.0000 C   0  0  0  0  0  0  0  0  0  0  0  0
    1.9502    0.3665    0.0000 C   0  0  0  0  0  0  0  0  0  0  0  0
    3.2459   -0.3891    0.0000 C   0  0  0  0  0  0  0  0  0  0  0  0
    4.5482    0.3552    0.0000 C   0  0  0  0  0  0  0  0  0  0  0  0
    5.8440   -0.4004    0.0000 C   0  0  0  0  0  0  0  0  0  0  0  0
    7.1463    0.3439    0.0000 C   0  0  0  0  0  0  0  0  0  0  0  0
    8.4420   -0.4117    0.0000 C   0  0  0  0  0  0  0  0  0  0  0  0
    9.7443    0.3326    0.0000 C   0  0  0  0  0  0  0  0  0  0  0  0
   11.0401   -0.4230    0.0000 C   0  0  0  0  0  0  0  0  0  0  0  0
   12.3424    0.3213    0.0000 C   0  0  0  0  0  0  0  0  0  0  0  0
  1  2  1  0
  2  3  1  0
  3  4  1  0
  4  5  1  0
  5  6  1  0
  6  7  1  0
  7  8  1  0
  8  9  1  0
  9 10  1  0
 10 11  1  0
 11 12  1  0
 12 13  1  0
 13 14  1  0
 14 15  1  0
 15 16  1  0
 16 17  1  0
 17 18  1  0
 18 19  1  0
 19 20  1  0
M  END
>  <identifier>  (1189) 
CNP0228467.0

>  <canonical_smiles>  (1189) 
CCCCCCCCCCCCCCCCCCCC

>  <standard_inchi>  (1189) 
InChI=1S/C20H42/c1-3-5-7-9-11-13-15-17-19-20-18-16-14-12-10-8-6-4-2/h3-20H2,1-2H3

>  <standard_inchi_key>  (1189) 
CBFCDTFDPHXCNY-UHFFFAOYSA-N

>  <name>  (1189) 
EICOSANE

>  <iupac_name>  (1189) 
icosane

>  <annotation_level>  (1189) 
5

>  <total_atom_count>  (1189) 
62

>  <heavy_atom_count>  (1189) 
20

>  <molecular_weight>  (1189) 
282.56

>  <exact_molecular_weight>  (1189) 
282.32865

>  <molecular_formula>  (1189) 
C20H42

>  <alogp>  (1189) 
8.05

>  <topological_polar_surface_area>  (1189) 
0.00

>  <rotatable_bond_count>  (1189) 
17

>  <hydrogen_bond_acceptors>  (1189) 
0

>  <hydrogen_bond_donors>  (1189) 
0

>  <hydrogen_bond_acceptors_lipinski>  (1189) 
0

>  <hydrogen_bond_donors_lipinski>  (1189) 
0

>  <lipinski_rule_of_five_violations>  (1189) 
1

>  <aromatic_rings_count>  (1189) 
0

>  <qed_drug_likeliness>  (1189) 
0.24

>  <formal_charge>  (1189) 
0

>  <fractioncsp3>  (1189) 
1.00

>  <number_of_minimal_rings>  (1189) 
0

>  <van_der_walls_volume>  (1189) 
344.24

>  <contains_sugar>  (1189) 
False

>  <contains_ring_sugars>  (1189) 
False

>  <contains_linear_sugars>  (1189) 
False

>  <murcko_framework>  (1189) 
nan

>  <np_likeness>  (1189) 
0.12

>  <chemical_class>  (1189) 
Saturated hydrocarbons

>  <chemical_sub_class>  (1189) 
Alkanes

>  <chemical_super_class>  (1189) 
Hydrocarbons

>  <direct_parent_classification>  (1189) 
Alkanes

>  <np_classifier_pathway>  (1189) 
Fatty acids

>  <np_classifier_superclass>  (1189) 
Fatty acyls

>  <np_classifier_class>  (1189) 
Hydrocarbons

>  <np_classifier_is_glycoside>  (1189) 
False

>  <organisms>  (1189) 
Ageratum conyzoides|Albatrellus cristatus|Aloe vera|Alstonia muelleriana|Annona squamosa|Aquilaria agallochum|Aquilaria sinensis|Arabidopsis thaliana|Armoracia rusticana|Arnica montana|Artemisia Annua|Artemisia annua|Artemisia cina|Artemisia maritima|Aster scaber|Azadirachta indica|Bistorta manshuriensis|Bistorta officinalis|Cannabis sativa|Castanopsis cuspidata|Cestrum nocturnum|Chrysanthemum macrocarpum|Cirsium dipsacolepis|Cistus creticus|Cistus ladanifer|Cistus laurifolius|Cistus monspeliensis|Citrullus lanatus subsp. vulgaris|Citrus aurantium|Citrus medica|Clusia spiritu-sanctensis|Cordyceps sinensis|Coreopsis nodosa|Coriandrum sativum|Cornus officinalis|Croton grewioides|Croton zehntneri|Cynanchum stauntoni|Cynanchum stauntonii|Cynomorium songaricum|Dacrydium cupressinum|Digitalis purpurea|Diplotaxis harra|Echinacea angustifolia|Erucaria microcarpa|Eucalyptus globulus|Eucalyptus leucoxylon|Eucalyptus melliodora|Glycine tomentella|Gymnodinium nagasakiense|Haematococcus lacustris|Hamamelis virginiana|Hansenia forbesii|Hansenia weberbaueriana|Holotrichia diomphalia|Homo sapiens|Hypoxylon rubiginosum|Hyssopus officinalis|Jerusalem artichoke|Karenia mikimotoi|Litchi chinensis|Magnolia obovata|Magnolia officinalis|Mandragora autumnalis|Mandragora officinarum|Mangifera indica|Manilkara bidentata|Melaleuca quinquenervia|Meliosma simplicifolia|Melissa officinalis|Mentha longifolia|Mentha spicata|Microcystis aeruginosa|Mikania monagasensis|Mkilua fragrans|Murraya paniculata|Nelumbo lutea|Nelumbo nucifera|Nepeta hindostana|Nicotiana tabacum|Nicotiana undulata|Oryza sativa|Ostericum grosseserratum|Panax ginseng|Panax notoginseng|Panax schinseng|Passiflora incarnata|Persicaria hydropiperoides|Persicaria minor|Piper nigrum|Plantago ovata|Polygonatum odoratum|Polygonum Minus|Polygonum minus|Porphyra tenera|Prunus laurocerasus|Pterocladiella tenuis|Quercus myrsinifolia|Rehmannia glutinosa|Rhaponticum uniflorum|Rhizoprionodon acutus|Rosa gallica|Rosa multiflora|Rosa × centifolia|Saccharomyces pastori|Salvia aethiopis|Salvia fruticosa|Salvia triloba|Saussurea involucrata|Saxifraga stolonifera|Scutellaria baicalensis|Senecio paludaffinis|Senna alexandrina|Sideritis syriaca|Sideritis taurica|Solanum incisum|Solanum stuckertii|Streptomyces|Streptomyces flocculus|Streptomyces sp. KX852461|Tachigalia paniculata|Taraxacum borealisinense|Taraxacum coreanum|Taraxacum mongolicum|Taraxacum officinale|Taraxacum platycarpum|Tetrapanax papyrifer|Trigonella grandiflora|Tripolium pannonicum|Typhonium flagelliforme|Uvaria calamistrata|Vaccinium ashei|Vaccinium corymbosum|Vaccinium virgatum|Vanilla madagascariensis|Vanilla planifolia|Vanilla tahitensis|Vincetoxicum glaucescens|Vincetoxicum stauntonii|Zootermopsis angusticollis|potato

>  <collections>  (1189) 
ANPDB|Australian natural products|CMAUP (cCollective molecular activities of useful plants)|ChEBI NPs|EMNPD|FooDB|KNApSaCK|Latin America dataset|NANPDB (Natural Products from Northern African Sources)|NPASS|NuBBEDB|StreptomeDB|Super Natural II|TCMDB-Taiwan (Traditional Chinese Medicine database)|TCMID (Traditional Chinese Medicine Integrated Database)|TIPdb (database of Taiwan indigenous plants)|UNPD (Universal Natural Products Database)|VietHerb|WikiData Natural Products|ZINC NP

>  <dois>  (1189) 
10.1002/(SICI)1099-1573(199906)13:4<329::AID-PTR458>3.0.CO;2-U|10.1002/ARDP.19552880708|10.1002/CBDV.201100326|10.1002/CHIN.200504233|10.1002/FFJ.1547|10.1002/FFJ.2730080504|10.1007/BF01018791|10.1007/S10600-011-9848-X|10.1007/S11306-007-0058-2|10.1007/S11418-007-0175-2|10.1007/s10600-009-9209-1|10.1007/s10886-010-9846-7|10.1016/0031-9422(90)83036-Z|10.1016/0031-9422(92)80160-G|10.1016/0031-9422(96)00241-5|10.1016/J.CHROMA.2004.03.057|10.1016/J.FOODCHEM.2004.05.018|10.1016/J.FOODCHEM.2012.09.111|10.1016/J.INDCROP.2012.02.029|10.1016/J.JPBA.2009.01.038|10.1016/J.PHYTOCHEM.2005.07.016|10.1016/J.PHYTOCHEM.2009.03.021|10.1016/J.RENENE.2017.12.012|10.1016/S0031-9422(00)00292-2|10.1016/S0031-9422(00)81318-7|10.1016/S0031-9422(00)81427-2|10.1016/S0031-9422(00)88097-8|10.1016/S0031-9422(82)85033-4|10.1016/S0031-9422(97)00943-6|10.1016/S0367-326X(01)00327-6|10.1016/S0378-8741(01)00274-4|10.1016/S0378-8741(02)00172-1|10.1016/j.foodchem.2004.05.018|10.1021/JF00029A021|10.1021/JF00034A033|10.1021/JF00039A035|10.1021/JF60217A066|10.1021/JF60224A025|10.1021/JF60230A021|10.1021/JF960625+|10.1021/JF960927B|10.1021/NP000159P|10.1021/NP50008A001|10.1021/NP50081A005|10.1021/NP800631T|10.1021/NP970146K|10.1021/jf60217a066|10.1021/jf960625+|10.1039/JR9630000677|10.1055/S-0028-1097532|10.1055/S-0028-1097659|10.1055/S-0028-1097670|10.1055/S-0028-1099475|10.1055/S-0028-1099547|10.1055/S-2003-39704|10.1055/S-2006-957420|10.1080/00021369.1989.10869813|10.1080/03081080802049013|10.1080/10412905.1991.9697919|10.1080/10412905.1991.9697932|10.1080/10412905.1992.9698080|10.1080/10412905.1994.9699345|10.1080/10412905.1995.9698472|10.1080/10412905.1997.9700728|10.1080/14786410500045960|10.1080/14786410903246868|10.1096/fj.06-6927com|10.1111/J.1365-2621.1985.TB13419.X|10.1186/S13568-017-0351-Z|10.1186/s13568-017-0351-z|10.1271/BBB.57.1350|10.1271/BBB1961.51.1449|10.1300/J044V05N02_05|10.1515/ZNC-1984-7-802|10.21608/ZJPS.1997.169710|10.3390/MOLECULES191119220|10.3390/ijms13056440|10.5650/JOS1956.23.246

>  <synonyms>  (1189) 
112-95-8|3AYA9KEC48|AI3-28404|AKOS015843175|AS-56022|C4A12DC5-1A2F-4399-88BF-8A6222A7DF7E|CCRIS 663|CH3-(CH2)18-CH3|CHEBI:43619|CS-0146759|DB-041142|DIDECYL|DTXCID305227|DTXSID1025227|E0003|EC 204-018-1|EICOSANE [INCI]|EINECS 204-018-1|Eicosane|Eicosane, 99%|Eicosane, analytical standard|Eicosane; MPCM 37; NSC 62789; Parafol 20Z; n-Eicosane|HSDB 8350|Icosane|Icosane #|InChI=1\/C20H42\/c1-3-5-7-9-11-13-15-17-19-20-18-16-14-12-10-8-6-4-2\/h3-20H2,1-2H|J-002883|LMFA11000571|MFCD00009344|NCIOpen2_003284|NS00010719|NSC 62789|NSC-62789|Nonadecane, methyl-|PARAFOL 20Z|Q150925|QSPL 044|QSPL 050|QSPL 140|SY009966|UNII-3AYA9KEC48|eicosane|n-Eicosane|octyldodecane

>  <cas>  (1189) 
112-95-8

$$$$

     RDKit          2D

 23 25  0  0  0  0  0  0  0  0999 V2000
    7.3945   -3.1827    0.0000 C   0  0  0  0  0  0  0  0  0  0  0  0
    7.3452   -1.6835    0.0000 O   0  0  0  0  0  0  0  0  0  0  0  0
    6.0222   -0.9766    0.0000 C   0  0  0  0  0  0  0  0  0  0  0  0
    4.7485   -1.7689    0.0000 C   0  0  0  0  0  0  0  0  0  0  0  0
    3.4255   -1.0620    0.0000 C   0  0  0  0  0  0  0  0  0  0  0  0
    3.3763    0.4372    0.0000 C   0  0  0  0  0  0  0  0  0  0  0  0
    2.0533    1.1442    0.0000 C   0  0  0  0  0  0  0  0  0  0  0  0
    2.0040    2.6433    0.0000 C   0  0  0  0  0  0  0  0  0  0  0  0
    0.6810    3.3503    0.0000 C   0  0  0  0  0  0  0  0  0  0  0  0
   -0.5927    2.5580    0.0000 C   0  0  0  0  0  0  0  0  0  0  0  0
   -0.5434    1.0588    0.0000 C   0  0  0  0  0  0  0  0  0  0  0  0
   -1.8171    0.2665    0.0000 C   0  0  0  0  0  0  0  0  0  0  0  0
   -3.1401    0.9735    0.0000 C   0  0  0  0  0  0  0  0  0  0  0  0
   -4.4138    0.1812    0.0000 C   0  0  0  0  0  0  0  0  0  0  0  0
   -5.7367    0.8881    0.0000 C   0  0  0  0  0  0  0  0  0  0  0  0
   -7.0104    0.0958    0.0000 C   0  0  0  0  0  0  0  0  0  0  0  0
   -6.9612   -1.4034    0.0000 C   0  0  0  0  0  0  0  0  0  0  0  0
   -8.2349   -2.1956    0.0000 O   0  0  0  0  0  0  0  0  0  0  0  0
   -5.6382   -2.1103    0.0000 C   0  0  0  0  0  0  0  0  0  0  0  0
   -4.3645   -1.3180    0.0000 C   0  0  0  0  0  0  0  0  0  0  0  0
    0.7796    0.3519    0.0000 O   0  0  0  0  0  0  0  0  0  0  0  0
    4.6500    1.2295    0.0000 C   0  0  0  0  0  0  0  0  0  0  0  0
    5.9729    0.5226    0.0000 C   0  0  0  0  0  0  0  0  0  0  0  0
  1  2  1  0
  2  3  1  0
  3  4  2  0
  4  5  1  0
  5  6  2  0
  7  6  1  6
  7  8  1  0
  8  9  1  0
  9 10  1  0
 10 11  1  0
 11 12  1  6
 12 13  1  0
 13 14  1  0
 14 15  2  0
 15 16  1  0
 16 17  2  0
 17 18  1  0
 17 19  1  0
 19 20  2  0
 11 21  1  0
  6 22  1  0
 22 23  2  0
 23  3  1  0
 21  7  1  0
 20 14  1  0
M  END
>  <identifier>  (1190) 
CNP0207518.2

>  <canonical_smiles>  (1190) 
COC1=CC=C([C@H]2CCC[C@@H](CCC3=CC=C(O)C=C3)O2)C=C1

>  <standard_inchi>  (1190) 
InChI=1S/C20H24O3/c1-22-18-13-8-16(9-14-18)20-4-2-3-19(23-20)12-7-15-5-10-17(21)11-6-15/h5-6,8-11,13-14,19-21H,2-4,7,12H2,1H3/t19-,20+/m0/s1

>  <standard_inchi_key>  (1190) 
VKLGDLFSGNHXAV-VQTJNVASSA-N

>  <name>  (1190) 
nan

>  <iupac_name>  (1190) 
4-[2-[(2~{S},6~{R})-6-(4-methoxyphenyl)tetrahydropyran-2-yl]ethyl]phenol

>  <annotation_level>  (1190) 
4

>  <total_atom_count>  (1190) 
47

>  <heavy_atom_count>  (1190) 
23

>  <molecular_weight>  (1190) 
312.41

>  <exact_molecular_weight>  (1190) 
312.17254

>  <molecular_formula>  (1190) 
C20H24O3

>  <alogp>  (1190) 
4.64

>  <topological_polar_surface_area>  (1190) 
38.69

>  <rotatable_bond_count>  (1190) 
5

>  <hydrogen_bond_acceptors>  (1190) 
3

>  <hydrogen_bond_donors>  (1190) 
1

>  <hydrogen_bond_acceptors_lipinski>  (1190) 
3

>  <hydrogen_bond_donors_lipinski>  (1190) 
1

>  <lipinski_rule_of_five_violations>  (1190) 
0

>  <aromatic_rings_count>  (1190) 
2

>  <qed_drug_likeliness>  (1190) 
0.87

>  <formal_charge>  (1190) 
0

>  <fractioncsp3>  (1190) 
0.40

>  <number_of_minimal_rings>  (1190) 
3

>  <van_der_walls_volume>  (1190) 
nan

>  <contains_sugar>  (1190) 
False

>  <contains_ring_sugars>  (1190) 
False

>  <contains_linear_sugars>  (1190) 
False

>  <murcko_framework>  (1190) 
O1C(c2ccccc2)CCCC1CCc3ccccc3

>  <np_likeness>  (1190) 
0.71

>  <chemical_class>  (1190) 
Diarylheptanoids

>  <chemical_sub_class>  (1190) 
Linear diarylheptanoids

>  <chemical_super_class>  (1190) 
Phenylpropanoids and polyketides

>  <direct_parent_classification>  (1190) 
Linear diarylheptanoids

>  <np_classifier_pathway>  (1190) 
Shikimates and Phenylpropanoids

>  <np_classifier_superclass>  (1190) 
Diarylheptanoids

>  <np_classifier_class>  (1190) 
Linear diarylheptanoids

>  <np_classifier_is_glycoside>  (1190) 
False

>  <organisms>  (1190) 
Centrolobium tomentosum

>  <collections>  (1190) 
Latin America dataset|NuBBEDB|Super Natural II|WikiData Natural Products|ZINC NP

>  <dois>  (1190) 
10.1016/S0031-9422(00)85606-X|10.1016/S0031-9422(00)97984-6|10.1071/CH9841127

>  <synonyms>  (1190) 
(+)-centrolobine

>  <cas>  (1190) 
nan

$$$$

     RDKit          2D

 12 11  0  0  0  0  0  0  0  0999 V2000
   -7.1488   -0.2878    0.0000 C   0  0  0  0  0  0  0  0  0  0  0  0
   -5.8407    0.4463    0.0000 C   0  0  0  0  0  0  0  0  0  0  0  0
   -4.5509   -0.3195    0.0000 C   0  0  0  0  0  0  0  0  0  0  0  0
   -3.2428    0.4146    0.0000 C   0  0  0  0  0  0  0  0  0  0  0  0
   -1.9530   -0.3512    0.0000 C   0  0  0  0  0  0  0  0  0  0  0  0
   -0.6449    0.3829    0.0000 C   0  0  0  0  0  0  0  0  0  0  0  0
    0.6449   -0.3829    0.0000 C   0  0  0  0  0  0  0  0  0  0  0  0
    1.9530    0.3512    0.0000 C   0  0  0  0  0  0  0  0  0  0  0  0
    3.2428   -0.4146    0.0000 C   0  0  0  0  0  0  0  0  0  0  0  0
    4.5509    0.3195    0.0000 C   0  0  0  0  0  0  0  0  0  0  0  0
    5.8407   -0.4463    0.0000 C   0  0  0  0  0  0  0  0  0  0  0  0
    7.1488    0.2878    0.0000 C   0  0  0  0  0  0  0  0  0  0  0  0
  1  2  1  0
  2  3  1  0
  3  4  1  0
  4  5  1  0
  5  6  1  0
  6  7  1  0
  7  8  1  0
  8  9  1  0
  9 10  1  0
 10 11  1  0
 11 12  1  0
M  END
>  <identifier>  (1191) 
CNP0299960.0

>  <canonical_smiles>  (1191) 
CCCCCCCCCCCC

>  <standard_inchi>  (1191) 
InChI=1S/C12H26/c1-3-5-7-9-11-12-10-8-6-4-2/h3-12H2,1-2H3

>  <standard_inchi_key>  (1191) 
SNRUBQQJIBEYMU-UHFFFAOYSA-N

>  <name>  (1191) 
DODECANE

>  <iupac_name>  (1191) 
dodecane

>  <annotation_level>  (1191) 
5

>  <total_atom_count>  (1191) 
38

>  <heavy_atom_count>  (1191) 
12

>  <molecular_weight>  (1191) 
170.34

>  <exact_molecular_weight>  (1191) 
170.20345

>  <molecular_formula>  (1191) 
C12H26

>  <alogp>  (1191) 
4.93

>  <topological_polar_surface_area>  (1191) 
0.00

>  <rotatable_bond_count>  (1191) 
9

>  <hydrogen_bond_acceptors>  (1191) 
0

>  <hydrogen_bond_donors>  (1191) 
0

>  <hydrogen_bond_acceptors_lipinski>  (1191) 
0

>  <hydrogen_bond_donors_lipinski>  (1191) 
0

>  <lipinski_rule_of_five_violations>  (1191) 
0

>  <aromatic_rings_count>  (1191) 
0

>  <qed_drug_likeliness>  (1191) 
0.43

>  <formal_charge>  (1191) 
0

>  <fractioncsp3>  (1191) 
1.00

>  <number_of_minimal_rings>  (1191) 
0

>  <van_der_walls_volume>  (1191) 
211.38

>  <contains_sugar>  (1191) 
False

>  <contains_ring_sugars>  (1191) 
False

>  <contains_linear_sugars>  (1191) 
False

>  <murcko_framework>  (1191) 
nan

>  <np_likeness>  (1191) 
0.20

>  <chemical_class>  (1191) 
Saturated hydrocarbons

>  <chemical_sub_class>  (1191) 
Alkanes

>  <chemical_super_class>  (1191) 
Hydrocarbons

>  <direct_parent_classification>  (1191) 
Alkanes

>  <np_classifier_pathway>  (1191) 
Fatty acids

>  <np_classifier_superclass>  (1191) 
Fatty acyls

>  <np_classifier_class>  (1191) 
Hydrocarbons

>  <np_classifier_is_glycoside>  (1191) 
False

>  <organisms>  (1191) 
Actaea spicata|Aethus indicus|Akebia quinata|Akebia trifoliata|Alkanna cappadocica|Allium ampeloprasum|Alstonia muelleriana|Alternaria botrytis|Angelica acutiloba|Angelica gigas|Angelica sinensis|Aristolochia birostris|Aristolochia brevipes|Aristolochia coryi|Aristolochia cymbifera|Aristolochia didyma|Aristolochia gigantea|Aristolochia macroura|Aristolochia triangularis|Artemisia cina|Artemisia dentata|Aspergillus candidus|Aster scaber|Atalantia racemosa|Bistorta manshuriensis|Bistorta officinalis|Brassica napus|Buddleja cordata|Buphane fischeri|Camellia sinensis|Cannabis sativa|Caryocar coriaceum|Centaurea benedicta|Ceratophyllum demersum|Chrysanthemum macrocarpum|Chrysanthemum x morifolium|Cirsium dipsacolepis|Cistus creticus|Cistus ladanifer|Cistus laurifolius|Cistus monspeliensis|Cnicus benedictus|Cnidium officinale|Conioselinum anthriscoides|Coreopsis nodosa|Crambe tatarica|Dacrydium cupressinum|Daucus carota|Dendrobium officinale|Digitalis purpurea|Diospyros eriantha|Erucaria microcarpa|Escherichia coli|Fritillaria ningguoensis|Glycine tomentella|Gossypium hirsutum|Gymnodinium nagasakiense|Haematococcus lacustris|Hamamelis virginiana|Hoffmannia strigillosa|Homo sapiens|Homo sapiens (Skin)|Houttuynia cordata|Houttuynia emeiensis|Humulus lupulus|Hypoxylon rubiginosum|Inula salsoloides|Juglans nigra|Juniperus rigida var. conferta|Karenia mikimotoi|Lagarostrobos franklinii|Lantana camara|Lemaireocereus griseus|Leonurus heterophyllus|Leonurus japonicus|Ligusticum chuanxiong|Ligusticum sinense|Ligusticum striatum|Lycium barbarum|Lycium chinense|Lycopersicon Esculentum|Lycopersicon esculentum Mill.|Malus domestica|Malus pumila|Mangifera indica|Meiogyne virgata|Millettia erythrocalyx|Mimusops elengi|Mosla chinensis|Mycobacterium leprae|Negombata magnifica|Nicotiana tabacum|Nicotiana undulata|Oecophylla smaragdina|Ononis vaginalis|Ophrys spp.|Orbignya martiana|Orthosiphon aristatus|Orthosiphon grandiflorus|Oryza sativa|Osmanthus Fragrans|Osmanthus fragrans|Panax ginseng|Panax quinquefolium|Panax schinseng|Passiflora incarnata|Pelargonium endlicherianum|Perilla frutescens|Plakortis lita|Platynereis dumerilii|Prorocentrum micans|Pseudomonas aeruginosa|Pteris semipinnata|Pterocladiella tenuis|Punica granatum|Rapanea lancifolia|Rhaponticum uniflorum|Rosa Chinensis|Rosa chinensis|Rosa multiflora|Saccharomyces pastori|Salvia hispanica|Sauromatum venosum|Scorzonera pseudodivaricata|Scutellaria baicalensis|Senecio isatideus|Senecio nemorensis|Senecio paludaffinis|Simicratea welwitschii|Solanum incisum|Solanum stuckertii|Stellera chamaejasme|Streptomyces flocculus|Streptomyces sp. WD5 (MK491056)|Syncarpia hillii|Tachigalia paniculata|Trigonella foenum-graecum|Trigonella grandiflora|Tripolium pannonicum|Typhonium flagelliforme|Uvaria calamistrata|Vanilla tahitensis|Xenoacremonium recifei|bellis perennis|liquorice|potato

>  <collections>  (1191) 
ANPDB|Australian natural products|CMAUP (cCollective molecular activities of useful plants)|ChEBI NPs|EMNPD|FooDB|KNApSaCK|Latin America dataset|NANPDB (Natural Products from Northern African Sources)|NPASS|NPAtlas|NPEdia|NuBBEDB|Phyto4Health|StreptomeDB|Super Natural II|TCMDB-Taiwan (Traditional Chinese Medicine database)|TCMID (Traditional Chinese Medicine Integrated Database)|TIPdb (database of Taiwan indigenous plants)|UNPD (Universal Natural Products Database)|VietHerb|WikiData Natural Products

>  <dois>  (1191) 
10.1002/(SICI)1099-1026(199711/12)12:6<401::AID-FFJ673>3.0.CO;2-D|10.1002/(SICI)1099-1026(199901/02)14:1<15::AID-FFJ777>3.0.CO;2-M|10.1002/(SICI)1099-1573(199906)13:4<329::AID-PTR458>3.0.CO;2-U|10.1002/CJOC.201180379|10.1002/FFJ.1588|10.1002/HLCA.201000195|10.1002/JEZ.1402460308|10.1002/JSFA.8889|10.1006/JFCA.1999.0841|10.1007/S10886-013-0311-2|10.1007/s10600-009-9209-1|10.1016/0031-9422(92)80160-G|10.1016/0031-9422(95)00183-8|10.1016/J.CHROMA.2004.03.057|10.1016/J.CHROMA.2014.10.058|10.1016/J.FOODCHEM.2008.09.107|10.1016/J.FOODCHEM.2012.09.111|10.1016/J.INDCROP.2014.04.048|10.1016/J.JPBA.2007.01.024|10.1016/J.PHYTOCHEM.2009.06.013|10.1016/J.RENENE.2017.12.012|10.1016/S0031-9422(00)81427-2|10.1016/S0031-9422(00)81449-1|10.1016/S0031-9422(00)90341-8|10.1016/S0031-9422(00)94756-3|10.1016/S0045-6535(99)00015-6|10.1016/S0378-8741(01)00274-4|10.1016/s0045-6535(99)00015-6|10.1021/JF00025A025|10.1021/JF00034A033|10.1021/JF00120A031|10.1021/JF60200A011|10.1021/JF902669D|10.1021/JF960927B|10.1021/NP50008A001|10.1021/NP50045A037|10.1021/jf00120a031|10.1055/S-0028-1099475|10.1055/S-0028-1099484|10.1055/S-2006-957420|10.1055/S-2006-960872|10.1055/S-2007-969136|10.1055/S-2007-969591|10.1080/00021369.1990.10870456|10.1080/10286020290028992|10.1080/10412905.1991.9697935|10.1080/10412905.1991.9697974|10.1080/10412905.1992.9698128|10.1080/10412905.1994.9698425|10.1080/10412905.1995.9698546|10.1080/10412905.1997.9700728|10.1096/fj.06-6927com|10.1126/SCIENCE.1191652|10.1135/CCCC19811048|10.1155/2017/7436259|10.1186/1465-9921-13-87|10.1248/CPB.30.4518|10.1248/CPB.54.725|10.1248/CPB.54.936|10.1271/BBB1961.51.1449|10.1271/BBB1961.54.3335|10.1271/NOGEIKAGAKU1924.61.1119|10.1515/ZNC-1982-1-202|10.1515/ZNC-1984-3-422|10.1515/ZNC-1984-7-802|10.1515/hfsg.1990.44.5.335|10.1631/JZUS.B1200086|10.17660/ACTAHORTIC.1999.500.11|10.2166/wst.2019.231|10.3109/13880209109082869|10.3390/MOLECULES18010963

>  <synonyms>  (1191) 
1-DODECANE|112-40-3|11A386X1QH|129813-67-8|1310FACD-F2BF-4FD7-BC20-B21DF06EDE79|4-01-00-00498 (Beilstein Handbook Reference)|93685-81-5|93924-07-3|AKOS015904160|Adakane 12|Alkane C(12)|BRN 1697175|Ba 51-090453|Bihexyl|C08374|C12-N-ALKANE|CAS-112-40-3|CCRIS 661|CH3-(CH2)10-CH3|CH3-[CH2]10-CH3|CHEBI:28817|CHEMBL30959|CS-0152244|D0968|D12|D5580 n-Dodecane, 1.5% w\/w in Isooctane|DA-16704|DODECANE [HSDB]|DODECANE [INCI]|DTXCID906913|DTXSID0026913|Density Standard 749 kg\/m3|Density Standard 749 kg\/m3, H&D Fitzgerald Ltd. Quality|Dihexyl|Dodecane(mixture of isomers)|Dodecane, 99%|Dodecane, ReagentPlus(R), >=99%|Dodecane, analytical standard|Dodecane, anhydrous, >=99%|Dodecane, certified reference material, TraceCERT(R)|Dodecane, technical, >=90% (GC)|Dodecene|Dodekan|Duodecane|EC 203-967-9|EC 300-199-7|EINECS 203-967-9|EINECS 297-629-8|EINECS 300-199-7|F0001-0259|HSDB 5133|Hydrocarbons, C4,1,3-butadiene-free, polymd., triisobutylene fraction, hydrogenated|InChI=1\/C12H26\/c1-3-5-7-9-11-12-10-8-6-4-2\/h3-12H2,1-2H|J-002767|LMFA11000004|LS-14163|MFCD00008969|N-Dodecan|NCGC00166012-01|NCGC00257481-01|NS00009666|NSC 8714|NSC-8714|Normal Paraffin M|Norpar 13|Q150744|STL280320|Tox21_303615|UNII-11A386X1QH|Undecane, methyl-|WLN: 12H|dodecan|n-Dodecan [German]|n-Dodecane|normal dodecane

>  <cas>  (1191) 
112-40-3|93685-81-5|93924-07-3|129813-67-8

$$$$

     RDKit          2D

 33 37  0  0  0  0  0  0  0  0999 V2000
   -7.4284   -1.9055    0.0000 C   0  0  0  0  0  0  0  0  0  0  0  0
   -5.9874   -1.4891    0.0000 C   0  0  0  0  0  0  0  0  0  0  0  0
   -5.6275   -0.0329    0.0000 C   0  0  0  0  0  0  0  0  0  0  0  0
   -4.1865    0.3836    0.0000 C   0  0  0  0  0  0  0  0  0  0  0  0
   -3.8266    1.8398    0.0000 C   0  0  0  0  0  0  0  0  0  0  0  0
   -4.9078    2.8795    0.0000 C   0  0  0  0  0  0  0  0  0  0  0  0
   -2.3856    2.2562    0.0000 C   0  0  0  0  0  0  0  0  0  0  0  0
   -1.8754    3.6668    0.0000 C   0  0  0  0  0  0  0  0  0  0  0  0
   -0.3763    3.6176    0.0000 C   0  0  0  0  0  0  0  0  0  0  0  0
    0.0402    2.1765    0.0000 C   0  0  0  0  0  0  0  0  0  0  0  0
    1.1873    3.1431    0.0000 C   0  0  0  0  0  0  0  0  0  0  0  0
    1.3897    1.5218    0.0000 C   0  0  0  0  0  0  0  0  0  0  0  0
    2.6316    2.3631    0.0000 C   0  0  0  0  0  0  0  0  0  0  0  0
    3.9811    1.7084    0.0000 C   0  0  0  0  0  0  0  0  0  0  0  0
    4.0888    0.2123    0.0000 C   0  0  0  0  0  0  0  0  0  0  0  0
    5.4384   -0.4425    0.0000 C   0  0  0  0  0  0  0  0  0  0  0  0
    6.9305   -0.5962    0.0000 C   0  0  0  0  0  0  0  0  0  0  0  0
    5.8489    1.0002    0.0000 C   0  0  0  0  0  0  0  0  0  0  0  0
    5.5461   -1.9386    0.0000 C   0  0  0  0  0  0  0  0  0  0  0  0
    6.8957   -2.5934    0.0000 O   0  0  0  0  0  0  0  0  0  0  0  0
    4.3043   -2.7800    0.0000 C   0  0  0  0  0  0  0  0  0  0  0  0
    2.9548   -2.1252    0.0000 C   0  0  0  0  0  0  0  0  0  0  0  0
    2.8470   -0.6291    0.0000 C   0  0  0  0  0  0  0  0  0  0  0  0
    1.6052   -1.4705    0.0000 C   0  0  0  0  0  0  0  0  0  0  0  0
    1.4975    0.0256    0.0000 C   0  0  0  0  0  0  0  0  0  0  0  0
    0.2557   -0.8157    0.0000 C   0  0  0  0  0  0  0  0  0  0  0  0
   -1.0939   -0.1610    0.0000 C   0  0  0  0  0  0  0  0  0  0  0  0
   -1.2016    1.3352    0.0000 C   0  0  0  0  0  0  0  0  0  0  0  0
   -2.5246    0.6282    0.0000 C   0  0  0  0  0  0  0  0  0  0  0  0
   -4.9062   -2.5288    0.0000 C   0  0  0  0  0  0  0  0  0  0  0  0
   -5.2661   -3.9850    0.0000 C   0  0  0  0  0  0  0  0  0  0  0  0
   -3.4652   -2.1124    0.0000 C   0  0  0  0  0  0  0  0  0  0  0  0
   -2.3840   -3.1521    0.0000 O   0  0  0  0  0  0  0  0  0  0  0  0
  1  2  2  0
  2  3  1  0
  3  4  1  0
  4  5  1  0
  5  6  1  1
  5  7  1  0
  7  8  1  1
  8  9  1  0
  9 10  1  0
 10 11  1  6
 10 12  1  0
 12 13  1  0
 13 14  1  0
 14 15  1  0
 15 16  1  0
 16 17  1  0
 16 18  1  0
 16 19  1  0
 19 20  1  1
 19 21  1  0
 21 22  1  0
 23 22  1  6
 23 24  1  0
 25 24  1  1
 25 26  1  0
 26 27  1  0
 27 28  1  0
 28 29  1  1
  2 30  1  0
 30 31  1  0
 30 32  1  0
 32 33  1  0
 28  7  1  0
 28 10  1  0
 25 12  1  0
 23 15  1  0
 25 23  1  0
M  END
>  <identifier>  (1192) 
CNP0142451.4

>  <canonical_smiles>  (1192) 
C=C(CC[C@@H](C)[C@H]1CC[C@@]2(C)C3CCC4C(C)(C)[C@@H](O)CC[C@@]45C[C@@]35CC[C@]12C)C(C)CO

>  <standard_inchi>  (1192) 
InChI=1S/C31H52O2/c1-20(22(3)18-32)8-9-21(2)23-12-14-29(7)25-11-10-24-27(4,5)26(33)13-15-30(24)19-31(25,30)17-16-28(23,29)6/h21-26,32-33H,1,8-19H2,2-7H3/t21-,22?,23-,24?,25?,26+,28-,29+,30-,31+/m1/s1

>  <standard_inchi_key>  (1192) 
ONNNLYSDSXGHFE-OGANXIJSSA-N

>  <name>  (1192) 
nan

>  <iupac_name>  (1192) 
(1~{S},3~{R},6~{S},12~{S},15~{R},16~{R})-15-[(1~{R})-6-hydroxy-1,5-dimethyl-4-methylene-hexyl]-7,7,12,16-tetramethyl-pentacyclo[9.7.0.0^{1,3}.0^{3,8}.0^{12,16}]octadecan-6-ol

>  <annotation_level>  (1192) 
4

>  <total_atom_count>  (1192) 
85

>  <heavy_atom_count>  (1192) 
33

>  <molecular_weight>  (1192) 
456.76

>  <exact_molecular_weight>  (1192) 
456.39673

>  <molecular_formula>  (1192) 
C31H52O2

>  <alogp>  (1192) 
7.39

>  <topological_polar_surface_area>  (1192) 
40.46

>  <rotatable_bond_count>  (1192) 
6

>  <hydrogen_bond_acceptors>  (1192) 
2

>  <hydrogen_bond_donors>  (1192) 
2

>  <hydrogen_bond_acceptors_lipinski>  (1192) 
2

>  <hydrogen_bond_donors_lipinski>  (1192) 
2

>  <lipinski_rule_of_five_violations>  (1192) 
1

>  <aromatic_rings_count>  (1192) 
0

>  <qed_drug_likeliness>  (1192) 
0.41

>  <formal_charge>  (1192) 
0

>  <fractioncsp3>  (1192) 
0.94

>  <number_of_minimal_rings>  (1192) 
5

>  <van_der_walls_volume>  (1192) 
nan

>  <contains_sugar>  (1192) 
False

>  <contains_ring_sugars>  (1192) 
False

>  <contains_linear_sugars>  (1192) 
False

>  <murcko_framework>  (1192) 
C1CCC23CC43CCC5CCCC5C4CCC2C1

>  <np_likeness>  (1192) 
3.26

>  <chemical_class>  (1192) 
Steroids and steroid derivatives

>  <chemical_sub_class>  (1192) 
Cycloartanols and derivatives

>  <chemical_super_class>  (1192) 
Lipids and lipid-like molecules

>  <direct_parent_classification>  (1192) 
Cycloartanols and derivatives

>  <np_classifier_pathway>  (1192) 
Terpenoids

>  <np_classifier_superclass>  (1192) 
Triterpenoids

>  <np_classifier_class>  (1192) 
Cycloartane triterpenoids

>  <np_classifier_is_glycoside>  (1192) 
False

>  <organisms>  (1192) 
Trichilia pallida

>  <collections>  (1192) 
Latin America dataset|NuBBEDB|WikiData Natural Products

>  <dois>  (1192) 
10.1590/S1519-566X2008000600013

>  <synonyms>  (1192) 
24-methylenecycloarta-3\u221a\u00e9\u00ac\u2264-26-diol

>  <cas>  (1192) 
nan

$$$$

     RDKit          2D

 33 36  0  0  0  0  0  0  0  0999 V2000
   -2.0318    2.4130    0.0000 C   0  0  0  0  0  0  0  0  0  0  0  0
   -2.2505    0.9290    0.0000 O   0  0  0  0  0  0  0  0  0  0  0  0
   -1.0747   -0.0024    0.0000 C   0  0  0  0  0  0  0  0  0  0  0  0
   -1.2934   -1.4864    0.0000 C   0  0  0  0  0  0  0  0  0  0  0  0
   -2.6879   -2.0389    0.0000 O   0  0  0  0  0  0  0  0  0  0  0  0
   -3.8637   -1.1075    0.0000 C   0  0  0  0  0  0  0  0  0  0  0  0
   -3.6450    0.3764    0.0000 O   0  0  0  0  0  0  0  0  0  0  0  0
   -4.8208    1.3078    0.0000 C   0  0  0  0  0  0  0  0  0  0  0  0
   -4.6021    2.7918    0.0000 C   0  0  0  0  0  0  0  0  0  0  0  0
   -5.7779    3.7232    0.0000 O   0  0  0  0  0  0  0  0  0  0  0  0
   -6.2153    0.7553    0.0000 C   0  0  0  0  0  0  0  0  0  0  0  0
   -7.3911    1.6867    0.0000 O   0  0  0  0  0  0  0  0  0  0  0  0
   -6.4340   -0.7287    0.0000 C   0  0  0  0  0  0  0  0  0  0  0  0
   -7.8285   -1.2813    0.0000 O   0  0  0  0  0  0  0  0  0  0  0  0
   -5.2582   -1.6601    0.0000 C   0  0  0  0  0  0  0  0  0  0  0  0
   -5.4770   -3.1441    0.0000 O   0  0  0  0  0  0  0  0  0  0  0  0
   -0.1176   -2.4178    0.0000 C   0  0  0  0  0  0  0  0  0  0  0  0
    1.2769   -1.8652    0.0000 C   0  0  0  0  0  0  0  0  0  0  0  0
    2.4527   -2.7966    0.0000 O   0  0  0  0  0  0  0  0  0  0  0  0
    3.8472   -2.2441    0.0000 C   0  0  0  0  0  0  0  0  0  0  0  0
    4.0659   -0.7601    0.0000 C   0  0  0  0  0  0  0  0  0  0  0  0
    5.4604   -0.2075    0.0000 C   0  0  0  0  0  0  0  0  0  0  0  0
    6.6362   -1.1389    0.0000 C   0  0  0  0  0  0  0  0  0  0  0  0
    8.0307   -0.5864    0.0000 C   0  0  0  0  0  0  0  0  0  0  0  0
    8.2495    0.8976    0.0000 C   0  0  0  0  0  0  0  0  0  0  0  0
    9.6440    1.4502    0.0000 O   0  0  0  0  0  0  0  0  0  0  0  0
    7.0737    1.8290    0.0000 C   0  0  0  0  0  0  0  0  0  0  0  0
    5.6792    1.2764    0.0000 C   0  0  0  0  0  0  0  0  0  0  0  0
    2.8901    0.1713    0.0000 C   0  0  0  0  0  0  0  0  0  0  0  0
    3.1089    1.6553    0.0000 O   0  0  0  0  0  0  0  0  0  0  0  0
    1.4956   -0.3813    0.0000 C   0  0  0  0  0  0  0  0  0  0  0  0
    0.3198    0.5502    0.0000 C   0  0  0  0  0  0  0  0  0  0  0  0
    0.5386    2.0341    0.0000 O   0  0  0  0  0  0  0  0  0  0  0  0
  1  2  1  0
  2  3  1  0
  3  4  2  0
  4  5  1  0
  6  5  1  1
  6  7  1  0
  7  8  1  0
  8  9  1  1
  9 10  1  0
  8 11  1  0
 11 12  1  6
 11 13  1  0
 13 14  1  1
 13 15  1  0
 15 16  1  6
  4 17  1  0
 17 18  2  0
 18 19  1  0
 19 20  1  0
 20 21  2  0
 21 22  1  0
 22 23  2  0
 23 24  1  0
 24 25  2  0
 25 26  1  0
 25 27  1  0
 27 28  2  0
 21 29  1  0
 29 30  2  0
 29 31  1  0
 31 32  2  0
 32 33  1  0
 32  3  1  0
 15  6  1  0
 31 18  1  0
 28 22  1  0
M  END
>  <identifier>  (1193) 
CNP0337666.1

>  <canonical_smiles>  (1193) 
COC1=C(O[C@@H]2O[C@H](CO)[C@@H](O)[C@H](O)[C@H]2O)C=C2OC=C(C3=CC=C(O)C=C3)C(=O)C2=C1O

>  <standard_inchi>  (1193) 
InChI=1S/C22H22O11/c1-30-21-13(32-22-20(29)19(28)17(26)14(7-23)33-22)6-12-15(18(21)27)16(25)11(8-31-12)9-2-4-10(24)5-3-9/h2-6,8,14,17,19-20,22-24,26-29H,7H2,1H3/t14-,17-,19+,20-,22-/m1/s1

>  <standard_inchi_key>  (1193) 
CNOURESJATUGPN-UDEBZQQRSA-N

>  <name>  (1193) 
Tectoridin

>  <iupac_name>  (1193) 
5-hydroxy-3-(4-hydroxyphenyl)-6-methoxy-7-[(2~{S},3~{R},4~{S},5~{S},6~{R})-3,4,5-trihydroxy-6-(hydroxymethyl)tetrahydropyran-2-yl]oxy-chromen-4-one

>  <annotation_level>  (1193) 
5

>  <total_atom_count>  (1193) 
55

>  <heavy_atom_count>  (1193) 
33

>  <molecular_weight>  (1193) 
462.41

>  <exact_molecular_weight>  (1193) 
462.11621

>  <molecular_formula>  (1193) 
C22H22O11

>  <alogp>  (1193) 
0.06

>  <topological_polar_surface_area>  (1193) 
179.28

>  <rotatable_bond_count>  (1193) 
5

>  <hydrogen_bond_acceptors>  (1193) 
11

>  <hydrogen_bond_donors>  (1193) 
6

>  <hydrogen_bond_acceptors_lipinski>  (1193) 
11

>  <hydrogen_bond_donors_lipinski>  (1193) 
6

>  <lipinski_rule_of_five_violations>  (1193) 
2

>  <aromatic_rings_count>  (1193) 
3

>  <qed_drug_likeliness>  (1193) 
0.30

>  <formal_charge>  (1193) 
0

>  <fractioncsp3>  (1193) 
0.32

>  <number_of_minimal_rings>  (1193) 
4

>  <van_der_walls_volume>  (1193) 
380.78

>  <contains_sugar>  (1193) 
True

>  <contains_ring_sugars>  (1193) 
True

>  <contains_linear_sugars>  (1193) 
False

>  <murcko_framework>  (1193) 
O1C=C(c2ccccc2)Cc3ccc(OC4OCCCC4)cc13

>  <np_likeness>  (1193) 
1.96

>  <chemical_class>  (1193) 
Isoflavonoids

>  <chemical_sub_class>  (1193) 
Isoflavonoid O-glycosides

>  <chemical_super_class>  (1193) 
Phenylpropanoids and polyketides

>  <direct_parent_classification>  (1193) 
Isoflavonoid O-glycosides

>  <np_classifier_pathway>  (1193) 
Shikimates and Phenylpropanoids

>  <np_classifier_superclass>  (1193) 
Isoflavonoids

>  <np_classifier_class>  (1193) 
Isoflavones

>  <np_classifier_is_glycoside>  (1193) 
True

>  <organisms>  (1193) 
Amorphinopsis foetida|Asterias rathbuni|Astragalus wiedemannianus|Baptisia sp.|Belamcanda Chinensis|Belamcanda chinensis|Bertya dimerostigma|Cochlospermum tinctorium|Dalbergia Volubilis|Dalbergia riparia|Delphinium barbeyi|Fomes fastuosus|Griffitharia vestita|Iris dichotoma|Iris domestica|Iris leptophylla|Iris milesii|Iris sp.|Iris spuria|Iris tectorum|Iris x germanica|Maackia amurensis|Platycladus|Polygonatum odoratum|Psammosilene tunicoides|Pueraria montana var. lobata|Pueraria montana var. thomsonii|Pueraria sp.|Sophora Japonica|Sorbus cuspidata|Styphnolobium japonicum

>  <collections>  (1193) 
CMAUP (cCollective molecular activities of useful plants)|ChEBI NPs|ChemSpider NPs|FooDB|Latin America dataset|NPACT|NPASS|NuBBEDB|Phenol-explorer|PhytoLab phyproof® Reference Substances|Super Natural II|TCMDB-Taiwan (Traditional Chinese Medicine database)|VietHerb|WikiData Natural Products|ZINC NP

>  <dois>  (1193) 
10.1002/JPS.2600640504|10.1007/BF02975425|10.1007/BF02976631|10.1007/BF02976832|10.1007/S11418-010-0411-Z|10.1016/0031-9422(73)85048-4|10.1016/0031-9422(92)80300-4|10.1016/J.PHYMED.2013.10.022|10.1016/S0031-9422(00)80460-4|10.1016/S0031-9422(00)84998-5|10.1016/S0031-9422(02)00757-4|10.1016/S0031-9422(98)00729-8|10.1016/j.phymed.2013.10.022|10.1021/NP040175C|10.1021/NP900588Q|10.1021/np040175c|10.1021/np900588q|10.1055/S-2003-41125|10.1055/S-2006-960868|10.1080/10286020008039908|10.1080/10286029808039845|10.1111/J.1744-7909.2005.00142.X|10.1124/DMD.109.028555|10.1248/BPB.24.1117|10.1248/CPB.49.1229|10.1248/YAKUSHI1881.1927.543_380|10.21608/BFSA.1993.70202

>  <synonyms>  (1193) 
nan

>  <cas>  (1193) 
611-40-5

$$$$

     RDKit          2D

 57 63  0  0  0  0  0  0  0  0999 V2000
   -1.6264   -4.9714    0.0000 C   0  0  0  0  0  0  0  0  0  0  0  0
   -2.8859   -4.1567    0.0000 C   0  0  0  0  0  0  0  0  0  0  0  0
   -4.2212   -4.8402    0.0000 C   0  0  0  0  0  0  0  0  0  0  0  0
   -4.2969   -6.3383    0.0000 C   0  0  0  0  0  0  0  0  0  0  0  0
   -5.4807   -4.0255    0.0000 C   0  0  0  0  0  0  0  0  0  0  0  0
   -5.4049   -2.5274    0.0000 C   0  0  0  0  0  0  0  0  0  0  0  0
   -4.0697   -1.8440    0.0000 C   0  0  0  0  0  0  0  0  0  0  0  0
   -5.3292   -1.0294    0.0000 C   0  0  0  0  0  0  0  0  0  0  0  0
   -6.6644   -1.7128    0.0000 O   0  0  0  0  0  0  0  0  0  0  0  0
   -5.2534    0.4687    0.0000 O   0  0  0  0  0  0  0  0  0  0  0  0
   -6.5130    1.2834    0.0000 C   0  0  0  0  0  0  0  0  0  0  0  0
   -6.4372    2.7815    0.0000 O   0  0  0  0  0  0  0  0  0  0  0  0
   -7.6967    3.5961    0.0000 C   0  0  0  0  0  0  0  0  0  0  0  0
   -7.6210    5.0942    0.0000 C   0  0  0  0  0  0  0  0  0  0  0  0
   -6.2857    5.7776    0.0000 O   0  0  0  0  0  0  0  0  0  0  0  0
   -9.0320    2.9127    0.0000 C   0  0  0  0  0  0  0  0  0  0  0  0
  -10.2915    3.7273    0.0000 O   0  0  0  0  0  0  0  0  0  0  0  0
   -9.1077    1.4146    0.0000 C   0  0  0  0  0  0  0  0  0  0  0  0
  -10.4430    0.7311    0.0000 O   0  0  0  0  0  0  0  0  0  0  0  0
   -7.8482    0.5999    0.0000 C   0  0  0  0  0  0  0  0  0  0  0  0
   -7.9240   -0.8982    0.0000 O   0  0  0  0  0  0  0  0  0  0  0  0
   -3.9939   -0.3459    0.0000 C   0  0  0  0  0  0  0  0  0  0  0  0
   -2.6587    0.3375    0.0000 C   0  0  0  0  0  0  0  0  0  0  0  0
   -1.3992   -0.4771    0.0000 C   0  0  0  0  0  0  0  0  0  0  0  0
   -0.1397   -1.2918    0.0000 C   0  0  0  0  0  0  0  0  0  0  0  0
    1.3213   -0.9517    0.0000 O   0  0  0  0  0  0  0  0  0  0  0  0
    0.0139   -2.0740    0.0000 O   0  0  0  0  0  0  0  0  0  0  0  0
   -1.4749   -1.9752    0.0000 C   0  0  0  0  0  0  0  0  0  0  0  0
   -0.2154   -2.7898    0.0000 C   0  0  0  0  0  0  0  0  0  0  0  0
    1.1198   -2.1064    0.0000 C   0  0  0  0  0  0  0  0  0  0  0  0
    1.1956   -0.6083    0.0000 C   0  0  0  0  0  0  0  0  0  0  0  0
    2.5308    0.0751    0.0000 C   0  0  0  0  0  0  0  0  0  0  0  0
    2.4551   -1.4230    0.0000 C   0  0  0  0  0  0  0  0  0  0  0  0
    3.7903   -0.7395    0.0000 C   0  0  0  0  0  0  0  0  0  0  0  0
    5.1256   -0.0561    0.0000 C   0  0  0  0  0  0  0  0  0  0  0  0
    5.2013    1.4420    0.0000 C   0  0  0  0  0  0  0  0  0  0  0  0
    6.5366    2.1255    0.0000 O   0  0  0  0  0  0  0  0  0  0  0  0
    7.7961    1.3108    0.0000 C   0  0  0  0  0  0  0  0  0  0  0  0
    7.7204   -0.1873    0.0000 O   0  0  0  0  0  0  0  0  0  0  0  0
    8.9799   -1.0019    0.0000 C   0  0  0  0  0  0  0  0  0  0  0  0
    8.9041   -2.5000    0.0000 C   0  0  0  0  0  0  0  0  0  0  0  0
    7.5689   -3.1834    0.0000 O   0  0  0  0  0  0  0  0  0  0  0  0
   10.3151   -0.3185    0.0000 C   0  0  0  0  0  0  0  0  0  0  0  0
   11.5746   -1.1331    0.0000 O   0  0  0  0  0  0  0  0  0  0  0  0
   10.3909    1.1796    0.0000 C   0  0  0  0  0  0  0  0  0  0  0  0
   11.7261    1.8631    0.0000 O   0  0  0  0  0  0  0  0  0  0  0  0
    9.1314    1.9943    0.0000 C   0  0  0  0  0  0  0  0  0  0  0  0
    9.2071    3.4924    0.0000 O   0  0  0  0  0  0  0  0  0  0  0  0
    3.9418    2.2567    0.0000 C   0  0  0  0  0  0  0  0  0  0  0  0
    3.0369    3.4530    0.0000 C   0  0  0  0  0  0  0  0  0  0  0  0
    4.9628    3.3556    0.0000 C   0  0  0  0  0  0  0  0  0  0  0  0
    2.6066    1.5732    0.0000 C   0  0  0  0  0  0  0  0  0  0  0  0
    1.3471    2.3879    0.0000 C   0  0  0  0  0  0  0  0  0  0  0  0
    0.0118    1.7044    0.0000 C   0  0  0  0  0  0  0  0  0  0  0  0
   -0.0639    0.2063    0.0000 C   0  0  0  0  0  0  0  0  0  0  0  0
   -1.3234    1.0210    0.0000 C   0  0  0  0  0  0  0  0  0  0  0  0
   -2.8102   -2.6586    0.0000 C   0  0  0  0  0  0  0  0  0  0  0  0
  2  1  1  1
  2  3  1  0
  3  4  1  6
  3  5  1  0
  5  6  1  0
  6  7  1  0
  7  8  1  1
  8  9  2  0
  8 10  1  0
 11 10  1  1
 11 12  1  0
 12 13  1  0
 13 14  1  1
 14 15  1  0
 13 16  1  0
 16 17  1  6
 16 18  1  0
 18 19  1  1
 18 20  1  0
 20 21  1  6
  7 22  1  0
 22 23  1  0
 23 24  1  0
 24 25  1  6
 25 26  2  0
 25 27  1  0
 24 28  1  0
 28 29  2  0
 29 30  1  0
 31 30  1  1
 31 32  1  0
 32 33  1  1
 32 34  1  0
 34 35  1  0
 35 36  1  0
 36 37  1  1
 38 37  1  1
 38 39  1  0
 39 40  1  0
 40 41  1  1
 41 42  1  0
 40 43  1  0
 43 44  1  6
 43 45  1  0
 45 46  1  1
 45 47  1  0
 47 48  1  6
 36 49  1  0
 49 50  1  0
 49 51  1  0
 49 52  1  0
 52 53  1  1
 53 54  1  0
 54 55  1  0
 55 56  1  1
 57 28  1  6
 57  2  1  0
 57  7  1  0
 20 11  1  0
 55 24  1  0
 55 31  1  0
 52 32  1  0
 47 38  1  0
M  END
>  <identifier>  (1194) 
CNP0216542.1

>  <canonical_smiles>  (1194) 
C[C@H]1[C@H](C)CC[C@]2(C(=O)O[C@@H]3O[C@H](CO)[C@@H](O)[C@H](O)[C@H]3O)CC[C@]3(C(=O)O)C(=CC[C@@H]4[C@@]5(C)CC[C@H](O[C@@H]6O[C@H](CO)[C@@H](O)[C@H](O)[C@H]6O)C(C)(C)[C@@H]5CC[C@]43C)[C@H]12

>  <standard_inchi>  (1194) 
InChI=1S/C42H66O15/c1-19-9-14-41(37(53)57-35-33(50)31(48)29(46)23(18-44)55-35)15-16-42(36(51)52)21(27(41)20(19)2)7-8-25-39(5)12-11-26(38(3,4)24(39)10-13-40(25,42)6)56-34-32(49)30(47)28(45)22(17-43)54-34/h7,19-20,22-35,43-50H,8-18H2,1-6H3,(H,51,52)/t19-,20+,22-,23-,24+,25-,26+,27+,28-,29-,30+,31+,32-,33-,34+,35+,39+,40-,41+,42-/m1/s1

>  <standard_inchi_key>  (1194) 
LDCLXZSKVDYDBF-DTJUAWDLSA-N

>  <name>  (1194) 
(1S,2R,4aS,6aR,6aR,6bR,8aR,10S,12aR,14bS)-1,2,6b,9,9,12a-hexamethyl-10-[(2S,3R,4S,5S,6R)-3,4,5-trihydroxy-6-(hydroxymethyl)oxan-2-yl]oxy-4a-[(2S,3R,4S,5S,6R)-3,4,5-trihydroxy-6-(hydroxymethyl)oxan-2-yl]oxycarbonyl-2,3,4,5,6,6a,7,8,8a,10,11,12,13,14b-tetradecahydro-1H-picene-6a-carboxylic acid

>  <iupac_name>  (1194) 
(1~{S},2~{R},4~{a}~{S},6~{a}~{R},6~{a}~{R},6~{b}~{R},8~{a}~{R},10~{S},12~{a}~{R},14~{b}~{S})-1,2,6~{b},9,9,12~{a}-hexamethyl-10-[(2~{S},3~{R},4~{S},5~{S},6~{R})-3,4,5-trihydroxy-6-(hydroxymethyl)tetrahydropyran-2-yl]oxy-4~{a}-[(2~{S},3~{R},4~{S},5~{S},6~{R})-3,4,5-trihydroxy-6-(hydroxymethyl)tetrahydropyran-2-yl]oxycarbonyl-2,3,4,5,6,6~{a},7,8,8~{a},10,11,12,13,14~{b}-tetradecahydro-1~{H}-picene-6~{a}-carboxylic acid

>  <annotation_level>  (1194) 
5

>  <total_atom_count>  (1194) 
123

>  <heavy_atom_count>  (1194) 
57

>  <molecular_weight>  (1194) 
810.98

>  <exact_molecular_weight>  (1194) 
810.44017

>  <molecular_formula>  (1194) 
C42H66O15

>  <alogp>  (1194) 
1.24

>  <topological_polar_surface_area>  (1194) 
253.13

>  <rotatable_bond_count>  (1194) 
7

>  <hydrogen_bond_acceptors>  (1194) 
14

>  <hydrogen_bond_donors>  (1194) 
9

>  <hydrogen_bond_acceptors_lipinski>  (1194) 
14

>  <hydrogen_bond_donors_lipinski>  (1194) 
9

>  <lipinski_rule_of_five_violations>  (1194) 
3

>  <aromatic_rings_count>  (1194) 
0

>  <qed_drug_likeliness>  (1194) 
0.10

>  <formal_charge>  (1194) 
0

>  <fractioncsp3>  (1194) 
0.91

>  <number_of_minimal_rings>  (1194) 
7

>  <van_der_walls_volume>  (1194) 
732.05

>  <contains_sugar>  (1194) 
True

>  <contains_ring_sugars>  (1194) 
True

>  <contains_linear_sugars>  (1194) 
False

>  <murcko_framework>  (1194) 
O1CCCCC1OCC23CCCCC3C4=CCC5C(CCC6CC(OC7OCCCC7)CCC65)C4CC2

>  <np_likeness>  (1194) 
2.41

>  <chemical_class>  (1194) 
Steroids and steroid derivatives

>  <chemical_sub_class>  (1194) 
Oxosteroids

>  <chemical_super_class>  (1194) 
Lipids and lipid-like molecules

>  <direct_parent_classification>  (1194) 
Oxosteroids

>  <np_classifier_pathway>  (1194) 
Terpenoids

>  <np_classifier_superclass>  (1194) 
Triterpenoids

>  <np_classifier_class>  (1194) 
Ursane and Taraxastane triterpenoids

>  <np_classifier_is_glycoside>  (1194) 
True

>  <organisms>  (1194) 
Acritopappus confertus|Adina trichotoma|Brachylaena discolor var. rotundata|Cephalanthus occidentalis|Guettarda platypoda|Isertia haenkeana|Metadina trichotoma|Mitragyna inermis|Mussaenda pubescens|Nauclea diderrichii|Neolamarckia cadamba|Neonauclea sessilifolia|Pulicaria uliginosa|Strychnos parvifolia|Tetraena coccinea|Tetraena dumosa|Tetraena gaetula|Tocoyena formosa|Uncaria tomentosa|Zygophyllum fabago

>  <collections>  (1194) 
CMAUP (cCollective molecular activities of useful plants)|ChemSpider NPs|Latin America dataset|NPASS|NuBBEDB|Super Natural II|WikiData Natural Products|ZINC NP

>  <dois>  (1194) 
10.1002/HLCA.200900477|10.1016/0031-9422(90)89038-B|10.1016/0031-9422(93)85538-3|10.1016/0031-9422(96)00086-6|10.1016/S0031-9422(00)00415-5|10.1016/S0031-9422(02)00244-3|10.1016/S0031-9422(02)00541-1|10.1016/S0031-9422(96)00552-3|10.1021/NP50064A002|10.1021/NP970245Y|10.1055/S-0031-1273569|10.1055/S-2005-864103|10.1055/S-2006-958075|10.1076/PHBI.36.5.320.4645|10.1515/ZNB-2007-0521|10.3184/030823400103165536|10.5935/0103-5053.19960024

>  <synonyms>  (1194) 
(1S,2R,4aS,6aR,6bR,8aR,10S,12aR,12bR,14bS)-1,2,6b,9,9,12a-hexamethyl-10-((2R,3R,4S,5S,6R)-3,4,5-trihydroxy-6-(hydroxymethyl)tetrahydro-2H-pyran-2-yloxy)-4a-(((2S,3R,4S,5S,6R)-3,4,5-trihydroxy-6-(hydroxymethyl)tetrahydro-2H-pyran-2-yloxy)carbonyl)-1,2,3,4,4a,5,6,6a,6b,7,8,8a,9,10,11,12,12a,12b,13,14b-icosahydropicene-6a-carboxylic acid|104055-77-8|3-O-I(2)-D-Glucopyranosyl quinovic acid 28-I(2)-D-glucopyranosyl ester|3-O-\u221a\u00e9\u00ac\u2264-D-glucopyranosyl-28-O-\u221a\u00e9\u00ac\u2264-D-glucopyranosyl quinovic acid|3-O-beta-D-glucopyranosyl quinovic acid28-O-beta-D-glucopyranosyl ester|BDBM50317552|CHEMBL501302|DTXSID601171323

>  <cas>  (1194) 
104055-77-8

$$$$

     RDKit          2D

 37 41  0  0  0  0  0  0  0  0999 V2000
   -0.5566    2.3513    0.0000 C   0  0  0  0  0  0  0  0  0  0  0  0
    0.3059    1.1241    0.0000 C   0  0  0  0  0  0  0  0  0  0  0  0
   -0.3256   -0.2364    0.0000 C   0  0  0  0  0  0  0  0  0  0  0  0
    0.5369   -1.4637    0.0000 C   0  0  0  0  0  0  0  0  0  0  0  0
    2.0309   -1.3303    0.0000 C   0  0  0  0  0  0  0  0  0  0  0  0
    2.6625    0.0302    0.0000 C   0  0  0  0  0  0  0  0  0  0  0  0
    1.8000    1.2575    0.0000 N   0  0  0  0  0  0  0  0  0  0  0  0
    2.4315    2.6180    0.0000 C   0  0  0  0  0  0  0  0  0  0  0  0
    3.9256    2.7514    0.0000 C   0  0  0  0  0  0  0  0  0  0  0  0
    4.7881    1.5241    0.0000 C   0  0  0  0  0  0  0  0  0  0  0  0
    4.1565    0.1636    0.0000 C   0  0  0  0  0  0  0  0  0  0  0  0
    5.2554   -0.8575    0.0000 N   0  0  0  0  0  0  0  0  0  0  0  0
    6.5660   -0.1280    0.0000 C   0  0  0  0  0  0  0  0  0  0  0  0
    7.9851   -0.6139    0.0000 C   0  0  0  0  0  0  0  0  0  0  0  0
    9.1155    0.3722    0.0000 C   0  0  0  0  0  0  0  0  0  0  0  0
    8.8267    1.8441    0.0000 C   0  0  0  0  0  0  0  0  0  0  0  0
    7.4076    2.3300    0.0000 C   0  0  0  0  0  0  0  0  0  0  0  0
    6.2772    1.3439    0.0000 C   0  0  0  0  0  0  0  0  0  0  0  0
   -0.0947   -2.8242    0.0000 C   0  0  0  0  0  0  0  0  0  0  0  0
    0.7678   -4.0515    0.0000 C   0  0  0  0  0  0  0  0  0  0  0  0
    2.2619   -3.9181    0.0000 O   0  0  0  0  0  0  0  0  0  0  0  0
    0.1363   -5.4120    0.0000 O   0  0  0  0  0  0  0  0  0  0  0  0
   -1.5888   -2.9576    0.0000 C   0  0  0  0  0  0  0  0  0  0  0  0
   -2.4513   -1.7304    0.0000 O   0  0  0  0  0  0  0  0  0  0  0  0
   -1.8197   -0.3698    0.0000 C   0  0  0  0  0  0  0  0  0  0  0  0
   -2.6822    0.8574    0.0000 O   0  0  0  0  0  0  0  0  0  0  0  0
   -4.1763    0.7241    0.0000 C   0  0  0  0  0  0  0  0  0  0  0  0
   -5.0388    1.9513    0.0000 O   0  0  0  0  0  0  0  0  0  0  0  0
   -6.5328    1.8180    0.0000 C   0  0  0  0  0  0  0  0  0  0  0  0
   -7.3954    3.0452    0.0000 C   0  0  0  0  0  0  0  0  0  0  0  0
   -6.7638    4.4058    0.0000 O   0  0  0  0  0  0  0  0  0  0  0  0
   -7.1644    0.4574    0.0000 C   0  0  0  0  0  0  0  0  0  0  0  0
   -8.6585    0.3241    0.0000 O   0  0  0  0  0  0  0  0  0  0  0  0
   -6.3019   -0.7698    0.0000 C   0  0  0  0  0  0  0  0  0  0  0  0
   -6.9334   -2.1304    0.0000 O   0  0  0  0  0  0  0  0  0  0  0  0
   -4.8078   -0.6365    0.0000 C   0  0  0  0  0  0  0  0  0  0  0  0
   -3.9453   -1.8637    0.0000 O   0  0  0  0  0  0  0  0  0  0  0  0
  1  2  2  0
  2  3  1  0
  3  4  1  0
  4  5  1  0
  5  6  1  0
  6  7  2  0
  7  8  1  0
  8  9  1  0
  9 10  1  0
 10 11  2  0
 11 12  1  0
 12 13  1  0
 13 14  2  0
 14 15  1  0
 15 16  2  0
 16 17  1  0
 17 18  2  0
  4 19  1  0
 19 20  1  0
 20 21  2  0
 20 22  1  0
 19 23  2  0
 23 24  1  0
 24 25  1  0
 25 26  1  1
 27 26  1  1
 27 28  1  0
 28 29  1  0
 29 30  1  1
 30 31  1  0
 29 32  1  0
 32 33  1  6
 32 34  1  0
 34 35  1  1
 34 36  1  0
 36 37  1  6
 25  3  1  0
 36 27  1  0
 11  6  1  0
 18 13  1  0
 18 10  1  0
M  END
>  <identifier>  (1195) 
CNP0156883.2

>  <canonical_smiles>  (1195) 
C=CC1C(CC2=NCCC3=C2NC2=CC=CC=C32)C(C(=O)O)=CO[C@H]1O[C@@H]1O[C@H](CO)[C@@H](O)[C@H](O)[C@H]1O

>  <standard_inchi>  (1195) 
InChI=1S/C26H30N2O9/c1-2-12-15(9-18-20-14(7-8-27-18)13-5-3-4-6-17(13)28-20)16(24(33)34)11-35-25(12)37-26-23(32)22(31)21(30)19(10-29)36-26/h2-6,11-12,15,19,21-23,25-26,28-32H,1,7-10H2,(H,33,34)/t12?,15?,19-,21-,22+,23-,25+,26+/m1/s1

>  <standard_inchi_key>  (1195) 
QNVNXPBFKQJAIB-SZXRKYFWSA-N

>  <name>  (1195) 
(2S)-4-(4,9-dihydro-3H-pyrido[3,4-b]indol-1-ylmethyl)-3-ethenyl-2-[(2S,3R,4S,5S,6R)-3,4,5-trihydroxy-6-(hydroxymethyl)oxan-2-yl]oxy-3,4-dihydro-2H-pyran-5-carboxylic acid

>  <iupac_name>  (1195) 
(2~{S})-4-(4,9-dihydro-3~{H}-pyrido[3,4-b]indol-1-ylmethyl)-2-[(2~{S},3~{R},4~{S},5~{S},6~{R})-3,4,5-trihydroxy-6-(hydroxymethyl)tetrahydropyran-2-yl]oxy-3-vinyl-3,4-dihydro-2~{H}-pyran-5-carboxylic acid

>  <annotation_level>  (1195) 
5

>  <total_atom_count>  (1195) 
67

>  <heavy_atom_count>  (1195) 
37

>  <molecular_weight>  (1195) 
514.53

>  <exact_molecular_weight>  (1195) 
514.19513

>  <molecular_formula>  (1195) 
C26H30N2O9

>  <alogp>  (1195) 
0.46

>  <topological_polar_surface_area>  (1195) 
174.06

>  <rotatable_bond_count>  (1195) 
7

>  <hydrogen_bond_acceptors>  (1195) 
9

>  <hydrogen_bond_donors>  (1195) 
6

>  <hydrogen_bond_acceptors_lipinski>  (1195) 
9

>  <hydrogen_bond_donors_lipinski>  (1195) 
6

>  <lipinski_rule_of_five_violations>  (1195) 
2

>  <aromatic_rings_count>  (1195) 
2

>  <qed_drug_likeliness>  (1195) 
0.29

>  <formal_charge>  (1195) 
0

>  <fractioncsp3>  (1195) 
0.46

>  <number_of_minimal_rings>  (1195) 
5

>  <van_der_walls_volume>  (1195) 
nan

>  <contains_sugar>  (1195) 
True

>  <contains_ring_sugars>  (1195) 
True

>  <contains_linear_sugars>  (1195) 
False

>  <murcko_framework>  (1195) 
N1=C(c2[nH]c3ccccc3c2CC1)CC4C=COC(OC5OCCCC5)C4

>  <np_likeness>  (1195) 
2.22

>  <chemical_class>  (1195) 
Harmala alkaloids

>  <chemical_sub_class>  (1195) 
Harmala alkaloids

>  <chemical_super_class>  (1195) 
Alkaloids and derivatives

>  <direct_parent_classification>  (1195) 
Harmala alkaloids

>  <np_classifier_pathway>  (1195) 
Alkaloids

>  <np_classifier_superclass>  (1195) 
Tryptophan alkaloids

>  <np_classifier_class>  (1195) 
Carboline alkaloids

>  <np_classifier_is_glycoside>  (1195) 
True

>  <organisms>  (1195) 
Chimarrhis turbinata

>  <collections>  (1195) 
Latin America dataset|NPASS|NuBBEDB|WikiData Natural Products

>  <dois>  (1195) 
10.1021/np049863m|10.1590/S0102-695X2008000100007

>  <synonyms>  (1195) 
3,4-dehydro-strictosidinic acid|CHEMBL528769

>  <cas>  (1195) 
nan

$$$$

     RDKit          2D

 30 33  0  0  0  0  0  0  0  0999 V2000
    7.5610   -1.0056    0.0000 C   0  0  0  0  0  0  0  0  0  0  0  0
    6.0924   -1.3111    0.0000 C   0  0  0  0  0  0  0  0  0  0  0  0
    5.0936   -0.1921    0.0000 C   0  0  0  0  0  0  0  0  0  0  0  0
    5.4118    1.2738    0.0000 C   0  0  0  0  0  0  0  0  0  0  0  0
    6.7847    1.8779    0.0000 O   0  0  0  0  0  0  0  0  0  0  0  0
    4.1160    2.0294    0.0000 C   0  0  0  0  0  0  0  0  0  0  0  0
    2.9970    1.0305    0.0000 C   0  0  0  0  0  0  0  0  0  0  0  0
    1.5059    1.1938    0.0000 C   0  0  0  0  0  0  0  0  0  0  0  0
    0.9017    2.5667    0.0000 C   0  0  0  0  0  0  0  0  0  0  0  0
   -0.5894    2.7300    0.0000 C   0  0  0  0  0  0  0  0  0  0  0  0
   -1.4763    1.5203    0.0000 C   0  0  0  0  0  0  0  0  0  0  0  0
   -2.9674    1.6835    0.0000 C   0  0  0  0  0  0  0  0  0  0  0  0
   -3.8543    0.4738    0.0000 C   0  0  0  0  0  0  0  0  0  0  0  0
   -5.3454    0.6371    0.0000 O   0  0  0  0  0  0  0  0  0  0  0  0
   -5.9496    2.0100    0.0000 C   0  0  0  0  0  0  0  0  0  0  0  0
   -7.4407    2.1733    0.0000 C   0  0  0  0  0  0  0  0  0  0  0  0
   -5.0627    3.2197    0.0000 O   0  0  0  0  0  0  0  0  0  0  0  0
   -3.2502   -0.8991    0.0000 C   0  0  0  0  0  0  0  0  0  0  0  0
   -4.1371   -2.1088    0.0000 O   0  0  0  0  0  0  0  0  0  0  0  0
   -3.5329   -3.4818    0.0000 C   0  0  0  0  0  0  0  0  0  0  0  0
   -4.4198   -4.6915    0.0000 C   0  0  0  0  0  0  0  0  0  0  0  0
   -2.0418   -3.6450    0.0000 O   0  0  0  0  0  0  0  0  0  0  0  0
   -1.7591   -1.0624    0.0000 C   0  0  0  0  0  0  0  0  0  0  0  0
   -0.8722    0.1473    0.0000 C   0  0  0  0  0  0  0  0  0  0  0  0
   -0.2680   -1.2256    0.0000 C   0  0  0  0  0  0  0  0  0  0  0  0
    0.6189   -0.0159    0.0000 C   0  0  0  0  0  0  0  0  0  0  0  0
    1.2231   -1.3889    0.0000 C   0  0  0  0  0  0  0  0  0  0  0  0
    2.7142   -1.5521    0.0000 C   0  0  0  0  0  0  0  0  0  0  0  0
    3.6011   -0.3424    0.0000 C   0  0  0  0  0  0  0  0  0  0  0  0
    4.3455   -1.6447    0.0000 C   0  0  0  0  0  0  0  0  0  0  0  0
  1  2  1  0
  3  2  1  6
  3  4  1  0
  4  5  2  0
  4  6  1  0
  6  7  1  0
  7  8  1  0
  8  9  1  0
  9 10  1  0
 10 11  1  0
 11 12  1  0
 12 13  1  0
 13 14  1  6
 14 15  1  0
 15 16  1  0
 15 17  2  0
 13 18  1  0
 18 19  1  6
 19 20  1  0
 20 21  1  0
 20 22  2  0
 18 23  1  0
 23 24  1  0
 24 25  1  6
 24 26  1  0
 26 27  1  0
 27 28  1  0
 28 29  1  0
 29 30  1  6
 29  3  1  0
 29  7  1  0
 26  8  1  0
 24 11  1  0
M  END
>  <identifier>  (1196) 
CNP0080785.1

>  <canonical_smiles>  (1196) 
CC[C@H]1C(=O)CC2C3CCC4C[C@@H](OC(C)=O)[C@@H](OC(C)=O)C[C@]4(C)C3CC[C@@]21C

>  <standard_inchi>  (1196) 
InChI=1S/C25H38O5/c1-6-18-21(28)12-20-17-8-7-16-11-22(29-14(2)26)23(30-15(3)27)13-25(16,5)19(17)9-10-24(18,20)4/h16-20,22-23H,6-13H2,1-5H3/t16?,17?,18-,19?,20?,22+,23-,24+,25-/m0/s1

>  <standard_inchi_key>  (1196) 
MLTYJMYPDLQLJF-GHXCZSROSA-N

>  <name>  (1196) 
nan

>  <iupac_name>  (1196) 
[(2~{S},3~{R},10~{S},13~{S},17~{R})-2-acetoxy-17-ethyl-10,13-dimethyl-16-oxo-1,2,3,4,5,6,7,8,9,11,12,14,15,17-tetradecahydrocyclopenta[a]phenanthren-3-yl] acetate

>  <annotation_level>  (1196) 
4

>  <total_atom_count>  (1196) 
68

>  <heavy_atom_count>  (1196) 
30

>  <molecular_weight>  (1196) 
418.57

>  <exact_molecular_weight>  (1196) 
418.27192

>  <molecular_formula>  (1196) 
C25H38O5

>  <alogp>  (1196) 
4.71

>  <topological_polar_surface_area>  (1196) 
69.67

>  <rotatable_bond_count>  (1196) 
3

>  <hydrogen_bond_acceptors>  (1196) 
5

>  <hydrogen_bond_donors>  (1196) 
0

>  <hydrogen_bond_acceptors_lipinski>  (1196) 
5

>  <hydrogen_bond_donors_lipinski>  (1196) 
0

>  <lipinski_rule_of_five_violations>  (1196) 
0

>  <aromatic_rings_count>  (1196) 
0

>  <qed_drug_likeliness>  (1196) 
0.62

>  <formal_charge>  (1196) 
0

>  <fractioncsp3>  (1196) 
0.88

>  <number_of_minimal_rings>  (1196) 
4

>  <van_der_walls_volume>  (1196) 
nan

>  <contains_sugar>  (1196) 
False

>  <contains_ring_sugars>  (1196) 
False

>  <contains_linear_sugars>  (1196) 
False

>  <murcko_framework>  (1196) 
C1CCC2C(C1)CCC3C4CCCC4CCC23

>  <np_likeness>  (1196) 
2.35

>  <chemical_class>  (1196) 
Steroids and steroid derivatives

>  <chemical_sub_class>  (1196) 
Steroid esters

>  <chemical_super_class>  (1196) 
Lipids and lipid-like molecules

>  <direct_parent_classification>  (1196) 
Steroid esters

>  <np_classifier_pathway>  (1196) 
Terpenoids

>  <np_classifier_superclass>  (1196) 
Steroids

>  <np_classifier_class>  (1196) 
Pregnane steroids

>  <np_classifier_is_glycoside>  (1196) 
False

>  <organisms>  (1196) 
Trichilia claussenii

>  <collections>  (1196) 
Latin America dataset|NuBBEDB

>  <dois>  (1196) 
10.1016/S0031-9422(97)00167-2

>  <synonyms>  (1196) 
2\u221a\u00e9\u00ac\u22643\u221a\u00e9\u00ac\u2264-Diacetoxypregnan-16-one

>  <cas>  (1196) 
nan

$$$$

     RDKit          2D

 17 17  0  0  0  0  0  0  0  0999 V2000
    3.8107   -0.5701    0.0000 C   0  0  0  0  0  0  0  0  0  0  0  0
    2.4989    0.1572    0.0000 C   0  0  0  0  0  0  0  0  0  0  0  0
    1.2130   -0.6153    0.0000 C   0  0  0  0  0  0  0  0  0  0  0  0
    2.1971   -1.7474    0.0000 C   0  0  0  0  0  0  0  0  0  0  0  0
    1.7086   -3.1656    0.0000 O   0  0  0  0  0  0  0  0  0  0  0  0
    0.2690   -1.7809    0.0000 C   0  0  0  0  0  0  0  0  0  0  0  0
   -1.2125   -1.5461    0.0000 C   0  0  0  0  0  0  0  0  0  0  0  0
   -1.7500   -0.1457    0.0000 C   0  0  0  0  0  0  0  0  0  0  0  0
   -3.2315    0.0890    0.0000 C   0  0  0  0  0  0  0  0  0  0  0  0
   -3.4663   -1.3925    0.0000 C   0  0  0  0  0  0  0  0  0  0  0  0
   -2.9967    1.5705    0.0000 C   0  0  0  0  0  0  0  0  0  0  0  0
   -4.7130    0.3238    0.0000 O   0  0  0  0  0  0  0  0  0  0  0  0
   -0.8059    1.0199    0.0000 C   0  0  0  0  0  0  0  0  0  0  0  0
    0.6756    0.7852    0.0000 C   0  0  0  0  0  0  0  0  0  0  0  0
    1.6197    1.9508    0.0000 C   0  0  0  0  0  0  0  0  0  0  0  0
    1.0822    3.3512    0.0000 C   0  0  0  0  0  0  0  0  0  0  0  0
    3.1012    1.7160    0.0000 C   0  0  0  0  0  0  0  0  0  0  0  0
  1  2  2  0
  2  3  1  0
  3  4  1  1
  4  5  1  0
  3  6  1  0
  6  7  1  0
  7  8  1  0
  8  9  1  1
  9 10  1  0
  9 11  1  0
  9 12  1  0
  8 13  1  0
 13 14  1  0
 14 15  1  1
 15 16  2  0
 15 17  1  0
 14  3  1  0
M  END
>  <identifier>  (1197) 
CNP0382977.1

>  <canonical_smiles>  (1197) 
C=C[C@]1(CO)CC[C@@H](C(C)(C)O)C[C@H]1C(=C)C

>  <standard_inchi>  (1197) 
InChI=1S/C15H26O2/c1-6-15(10-16)8-7-12(14(4,5)17)9-13(15)11(2)3/h6,12-13,16-17H,1-2,7-10H2,3-5H3/t12-,13+,15-/m1/s1

>  <standard_inchi_key>  (1197) 
USJQEHIEUGYOFY-VNHYZAJKSA-N

>  <name>  (1197) 
nan

>  <iupac_name>  (1197) 
2-[(1~{R},3~{S},4~{R})-4-(hydroxymethyl)-3-isopropenyl-4-vinyl-cyclohexyl]propan-2-ol

>  <annotation_level>  (1197) 
4

>  <total_atom_count>  (1197) 
43

>  <heavy_atom_count>  (1197) 
17

>  <molecular_weight>  (1197) 
238.37

>  <exact_molecular_weight>  (1197) 
238.19328

>  <molecular_formula>  (1197) 
C15H26O2

>  <alogp>  (1197) 
2.91

>  <topological_polar_surface_area>  (1197) 
40.46

>  <rotatable_bond_count>  (1197) 
4

>  <hydrogen_bond_acceptors>  (1197) 
2

>  <hydrogen_bond_donors>  (1197) 
2

>  <hydrogen_bond_acceptors_lipinski>  (1197) 
2

>  <hydrogen_bond_donors_lipinski>  (1197) 
2

>  <lipinski_rule_of_five_violations>  (1197) 
0

>  <aromatic_rings_count>  (1197) 
0

>  <qed_drug_likeliness>  (1197) 
0.74

>  <formal_charge>  (1197) 
0

>  <fractioncsp3>  (1197) 
0.73

>  <number_of_minimal_rings>  (1197) 
1

>  <van_der_walls_volume>  (1197) 
nan

>  <contains_sugar>  (1197) 
False

>  <contains_ring_sugars>  (1197) 
False

>  <contains_linear_sugars>  (1197) 
False

>  <murcko_framework>  (1197) 
C1CCCCC1

>  <np_likeness>  (1197) 
2.29

>  <chemical_class>  (1197) 
Prenol lipids

>  <chemical_sub_class>  (1197) 
Sesquiterpenoids

>  <chemical_super_class>  (1197) 
Lipids and lipid-like molecules

>  <direct_parent_classification>  (1197) 
Elemane sesquiterpenoids

>  <np_classifier_pathway>  (1197) 
Terpenoids

>  <np_classifier_superclass>  (1197) 
Sesquiterpenoids

>  <np_classifier_class>  (1197) 
Elemane sesquiterpenoids

>  <np_classifier_is_glycoside>  (1197) 
False

>  <organisms>  (1197) 
Trichilia claussenii

>  <collections>  (1197) 
Latin America dataset|NuBBEDB|WikiData Natural Products|ZINC NP

>  <dois>  (1197) 
10.1590/S0103-50532002000300014

>  <synonyms>  (1197) 
14-Hydroxyelemol

>  <cas>  (1197) 
nan

$$$$

     RDKit          2D

 23 27  0  0  0  0  0  0  0  0999 V2000
    3.7789    0.3148    0.0000 C   0  0  0  0  0  0  0  0  0  0  0  0
    2.2814    0.2293    0.0000 C   0  0  0  0  0  0  0  0  0  0  0  0
    2.8124    1.6322    0.0000 C   0  0  0  0  0  0  0  0  0  0  0  0
    4.2595    2.0271    0.0000 O   0  0  0  0  0  0  0  0  0  0  0  0
    1.6423    2.5707    0.0000 O   0  0  0  0  0  0  0  0  0  0  0  0
    0.3881    1.7479    0.0000 C   0  0  0  0  0  0  0  0  0  0  0  0
   -1.1161    1.8347    0.0000 C   0  0  0  0  0  0  0  0  0  0  0  0
   -2.0547    0.6646    0.0000 C   0  0  0  0  0  0  0  0  0  0  0  0
   -3.5373    0.8924    0.0000 C   0  0  0  0  0  0  0  0  0  0  0  0
   -4.0814    2.2902    0.0000 O   0  0  0  0  0  0  0  0  0  0  0  0
   -4.4758   -0.2777    0.0000 C   0  0  0  0  0  0  0  0  0  0  0  0
   -5.9584   -0.0500    0.0000 O   0  0  0  0  0  0  0  0  0  0  0  0
   -3.9318   -1.6756    0.0000 C   0  0  0  0  0  0  0  0  0  0  0  0
   -2.4491   -1.9033    0.0000 C   0  0  0  0  0  0  0  0  0  0  0  0
   -1.5106   -0.7332    0.0000 C   0  0  0  0  0  0  0  0  0  0  0  0
   -0.0280   -0.9610    0.0000 C   0  0  0  0  0  0  0  0  0  0  0  0
    0.6592   -2.2943    0.0000 C   0  0  0  0  0  0  0  0  0  0  0  0
    2.1575   -2.3658    0.0000 C   0  0  0  0  0  0  0  0  0  0  0  0
    2.9686   -1.1040    0.0000 C   0  0  0  0  0  0  0  0  0  0  0  0
    4.4669   -1.1755    0.0000 O   0  0  0  0  0  0  0  0  0  0  0  0
    2.1501   -1.0144    0.0000 O   0  0  0  0  0  0  0  0  0  0  0  0
    0.7953   -0.9498    0.0000 C   0  0  0  0  0  0  0  0  0  0  0  0
    0.7831    0.3008    0.0000 C   0  0  0  0  0  0  0  0  0  0  0  0
  2  1  1  6
  2  3  1  0
  3  4  2  0
  3  5  1  0
  5  6  1  0
  6  7  1  1
  7  8  1  0
  8  9  2  0
  9 10  1  0
  9 11  1  0
 11 12  2  0
 11 13  1  0
 13 14  1  0
 14 15  1  0
 16 15  1  1
 16 17  1  0
 17 18  1  0
 18 19  1  0
 19 20  1  6
 19 21  1  0
 21 22  1  0
 16 23  1  0
 19  2  1  0
 23  2  1  0
 23  6  1  0
 15  8  1  0
 22 16  1  0
M  END
>  <identifier>  (1198) 
CNP0298918.1

>  <canonical_smiles>  (1198) 
C[C@]12C(=O)O[C@@H]3CC4=C(O)C(=O)CCC4[C@@]4(CC[C@@]1(O)OC4)C32

>  <standard_inchi>  (1198) 
InChI=1S/C17H20O6/c1-15-13-11(23-14(15)20)6-8-9(2-3-10(18)12(8)19)16(13)4-5-17(15,21)22-7-16/h9,11,13,19,21H,2-7H2,1H3/t9?,11-,13?,15+,16+,17-/m1/s1

>  <standard_inchi_key>  (1198) 
XKFGFBDRKMTSMF-CGSQVOLDSA-N

>  <name>  (1198) 
nan

>  <iupac_name>  (1198) 
(1~{S},9~{R},12~{R},13~{R})-6,13-dihydroxy-12-methyl-10,14-dioxapentacyclo[11.2.2.1^{1,9}.0^{2,7}.0^{12,18}]octadec-6-ene-5,11-dione

>  <annotation_level>  (1198) 
4

>  <total_atom_count>  (1198) 
43

>  <heavy_atom_count>  (1198) 
23

>  <molecular_weight>  (1198) 
320.34

>  <exact_molecular_weight>  (1198) 
320.12599

>  <molecular_formula>  (1198) 
C17H20O6

>  <alogp>  (1198) 
1.23

>  <topological_polar_surface_area>  (1198) 
93.06

>  <rotatable_bond_count>  (1198) 
0

>  <hydrogen_bond_acceptors>  (1198) 
6

>  <hydrogen_bond_donors>  (1198) 
2

>  <hydrogen_bond_acceptors_lipinski>  (1198) 
6

>  <hydrogen_bond_donors_lipinski>  (1198) 
2

>  <lipinski_rule_of_five_violations>  (1198) 
0

>  <aromatic_rings_count>  (1198) 
0

>  <qed_drug_likeliness>  (1198) 
0.65

>  <formal_charge>  (1198) 
0

>  <fractioncsp3>  (1198) 
0.77

>  <number_of_minimal_rings>  (1198) 
6

>  <van_der_walls_volume>  (1198) 
nan

>  <contains_sugar>  (1198) 
False

>  <contains_ring_sugars>  (1198) 
False

>  <contains_linear_sugars>  (1198) 
False

>  <murcko_framework>  (1198) 
O1CC2C3OCC4(CC3)C5C(=CCCC5)CC1C24

>  <np_likeness>  (1198) 
2.92

>  <chemical_class>  (1198) 
Naphthopyrans

>  <chemical_sub_class>  (1198) 
Naphthopyrans

>  <chemical_super_class>  (1198) 
Organoheterocyclic compounds

>  <direct_parent_classification>  (1198) 
Naphthopyrans

>  <np_classifier_pathway>  (1198) 
Terpenoids

>  <np_classifier_superclass>  (1198) 
Diterpenoids

>  <np_classifier_class>  (1198) 
Norpimarane and Norisopimarane diterpenoids

>  <np_classifier_is_glycoside>  (1198) 
True

>  <organisms>  (1198) 
Casimirella rupestris|Humirianthera rupestris

>  <collections>  (1198) 
Latin America dataset|NuBBEDB|WikiData Natural Products

>  <dois>  (1198) 
10.1016/S0031-9422(00)98552-2

>  <synonyms>  (1198) 
Humirianthenolide D

>  <cas>  (1198) 
nan

$$$$

     RDKit          2D

 34 37  0  0  0  0  0  0  0  0999 V2000
    8.1933   -1.0544    0.0000 C   0  0  0  0  0  0  0  0  0  0  0  0
    6.7257   -1.3646    0.0000 C   0  0  0  0  0  0  0  0  0  0  0  0
    5.7233   -0.2487    0.0000 C   0  0  0  0  0  0  0  0  0  0  0  0
    6.0368    1.2181    0.0000 C   0  0  0  0  0  0  0  0  0  0  0  0
    7.4078    1.8267    0.0000 O   0  0  0  0  0  0  0  0  0  0  0  0
    4.7386    1.9696    0.0000 C   0  0  0  0  0  0  0  0  0  0  0  0
    3.6227    0.9672    0.0000 C   0  0  0  0  0  0  0  0  0  0  0  0
    2.1311    1.1256    0.0000 C   0  0  0  0  0  0  0  0  0  0  0  0
    1.5226    2.4967    0.0000 C   0  0  0  0  0  0  0  0  0  0  0  0
    0.0310    2.6551    0.0000 C   0  0  0  0  0  0  0  0  0  0  0  0
   -0.8521    1.4426    0.0000 C   0  0  0  0  0  0  0  0  0  0  0  0
   -2.3437    1.6011    0.0000 C   0  0  0  0  0  0  0  0  0  0  0  0
   -2.9522    2.9721    0.0000 O   0  0  0  0  0  0  0  0  0  0  0  0
   -4.4438    3.1306    0.0000 C   0  0  0  0  0  0  0  0  0  0  0  0
   -5.0524    4.5016    0.0000 C   0  0  0  0  0  0  0  0  0  0  0  0
   -5.3269    1.9180    0.0000 O   0  0  0  0  0  0  0  0  0  0  0  0
   -3.2267    0.3886    0.0000 C   0  0  0  0  0  0  0  0  0  0  0  0
   -4.7183    0.5470    0.0000 O   0  0  0  0  0  0  0  0  0  0  0  0
   -5.6014   -0.6655    0.0000 C   0  0  0  0  0  0  0  0  0  0  0  0
   -7.0930   -0.5070    0.0000 C   0  0  0  0  0  0  0  0  0  0  0  0
   -4.9928   -2.0365    0.0000 O   0  0  0  0  0  0  0  0  0  0  0  0
   -2.6182   -0.9825    0.0000 C   0  0  0  0  0  0  0  0  0  0  0  0
   -3.5012   -2.1950    0.0000 O   0  0  0  0  0  0  0  0  0  0  0  0
   -2.8927   -3.5660    0.0000 C   0  0  0  0  0  0  0  0  0  0  0  0
   -3.7757   -4.7785    0.0000 C   0  0  0  0  0  0  0  0  0  0  0  0
   -1.4010   -3.7245    0.0000 O   0  0  0  0  0  0  0  0  0  0  0  0
   -1.1266   -1.1409    0.0000 C   0  0  0  0  0  0  0  0  0  0  0  0
   -0.2435    0.0716    0.0000 C   0  0  0  0  0  0  0  0  0  0  0  0
    0.3650   -1.2994    0.0000 C   0  0  0  0  0  0  0  0  0  0  0  0
    1.2481   -0.0869    0.0000 C   0  0  0  0  0  0  0  0  0  0  0  0
    1.8567   -1.4579    0.0000 C   0  0  0  0  0  0  0  0  0  0  0  0
    3.3483   -1.6164    0.0000 C   0  0  0  0  0  0  0  0  0  0  0  0
    4.2313   -0.4038    0.0000 C   0  0  0  0  0  0  0  0  0  0  0  0
    4.9798   -1.7037    0.0000 C   0  0  0  0  0  0  0  0  0  0  0  0
  1  2  1  0
  3  2  1  6
  3  4  1  0
  4  5  2  0
  4  6  1  0
  7  6  1  6
  7  8  1  0
  8  9  1  1
  9 10  1  0
 11 10  1  6
 11 12  1  0
 12 13  1  6
 13 14  1  0
 14 15  1  0
 14 16  2  0
 12 17  1  0
 17 18  1  6
 18 19  1  0
 19 20  1  0
 19 21  2  0
 17 22  1  0
 22 23  1  6
 23 24  1  0
 24 25  1  0
 24 26  2  0
 22 27  1  0
 27 28  1  0
 28 29  1  6
 28 30  1  0
 30 31  1  6
 31 32  1  0
 32 33  1  0
 33 34  1  6
 33  3  1  0
 33  7  1  0
 30  8  1  0
 28 11  1  0
M  END
>  <identifier>  (1199) 
CNP0080468.4

>  <canonical_smiles>  (1199) 
CC[C@H]1C(=O)C[C@H]2[C@@H]3CC[C@H]4[C@@H](OC(C)=O)[C@@H](OC(C)=O)[C@@H](OC(C)=O)C[C@]4(C)[C@H]3CC[C@]12C

>  <standard_inchi>  (1199) 
InChI=1S/C27H40O7/c1-7-18-22(31)12-21-17-8-9-20-24(33-15(3)29)25(34-16(4)30)23(32-14(2)28)13-27(20,6)19(17)10-11-26(18,21)5/h17-21,23-25H,7-13H2,1-6H3/t17-,18+,19+,20+,21+,23+,24-,25+,26-,27-/m1/s1

>  <standard_inchi_key>  (1199) 
PLZPNDBFLGCZTJ-NDFYPCRZSA-N

>  <name>  (1199) 
nan

>  <iupac_name>  (1199) 
[(2~{S},3~{S},4~{R},5~{R},8~{R},9~{S},10~{R},13~{S},14~{S},17~{R})-3,4-diacetoxy-17-ethyl-10,13-dimethyl-16-oxo-1,2,3,4,5,6,7,8,9,11,12,14,15,17-tetradecahydrocyclopenta[a]phenanthren-2-yl] acetate

>  <annotation_level>  (1199) 
4

>  <total_atom_count>  (1199) 
74

>  <heavy_atom_count>  (1199) 
34

>  <molecular_weight>  (1199) 
476.61

>  <exact_molecular_weight>  (1199) 
476.2774

>  <molecular_formula>  (1199) 
C27H40O7

>  <alogp>  (1199) 
4.25

>  <topological_polar_surface_area>  (1199) 
95.97

>  <rotatable_bond_count>  (1199) 
4

>  <hydrogen_bond_acceptors>  (1199) 
7

>  <hydrogen_bond_donors>  (1199) 
0

>  <hydrogen_bond_acceptors_lipinski>  (1199) 
7

>  <hydrogen_bond_donors_lipinski>  (1199) 
0

>  <lipinski_rule_of_five_violations>  (1199) 
0

>  <aromatic_rings_count>  (1199) 
0

>  <qed_drug_likeliness>  (1199) 
0.44

>  <formal_charge>  (1199) 
0

>  <fractioncsp3>  (1199) 
0.85

>  <number_of_minimal_rings>  (1199) 
4

>  <van_der_walls_volume>  (1199) 
nan

>  <contains_sugar>  (1199) 
False

>  <contains_ring_sugars>  (1199) 
False

>  <contains_linear_sugars>  (1199) 
False

>  <murcko_framework>  (1199) 
C1CCC2C(C1)CCC3C4CCCC4CCC23

>  <np_likeness>  (1199) 
2.23

>  <chemical_class>  (1199) 
Steroids and steroid derivatives

>  <chemical_sub_class>  (1199) 
Steroid esters

>  <chemical_super_class>  (1199) 
Lipids and lipid-like molecules

>  <direct_parent_classification>  (1199) 
Steroid esters

>  <np_classifier_pathway>  (1199) 
Terpenoids

>  <np_classifier_superclass>  (1199) 
Steroids

>  <np_classifier_class>  (1199) 
Pregnane steroids

>  <np_classifier_is_glycoside>  (1199) 
False

>  <organisms>  (1199) 
Trichilia claussenii

>  <collections>  (1199) 
Latin America dataset|NuBBEDB|WikiData Natural Products

>  <dois>  (1199) 
10.1016/S0031-9422(97)00167-2

>  <synonyms>  (1199) 
2\u221a\u00e9\u00ac\u22643\u221a\u00e9\u00ac\u22644\u221a\u00e9\u00ac\u2264-Triacetoxypregnan-16-one

>  <cas>  (1199) 
nan

$$$$

     RDKit          2D

 26 27  0  0  0  0  0  0  0  0999 V2000
    5.7084   -4.6257    0.0000 C   0  0  0  0  0  0  0  0  0  0  0  0
    4.7205   -3.4970    0.0000 C   0  0  0  0  0  0  0  0  0  0  0  0
    5.2041   -2.0770    0.0000 C   0  0  0  0  0  0  0  0  0  0  0  0
    4.2162   -0.9483    0.0000 C   0  0  0  0  0  0  0  0  0  0  0  0
    2.7447   -1.2395    0.0000 C   0  0  0  0  0  0  0  0  0  0  0  0
    1.7568   -0.1107    0.0000 C   0  0  0  0  0  0  0  0  0  0  0  0
    2.2404    1.3092    0.0000 C   0  0  0  0  0  0  0  0  0  0  0  0
    1.2525    2.4379    0.0000 O   0  0  0  0  0  0  0  0  0  0  0  0
   -0.2190    2.1467    0.0000 C   0  0  0  0  0  0  0  0  0  0  0  0
   -1.2069    3.2755    0.0000 C   0  0  0  0  0  0  0  0  0  0  0  0
   -0.7025    0.7268    0.0000 C   0  0  0  0  0  0  0  0  0  0  0  0
    0.2854   -0.4019    0.0000 O   0  0  0  0  0  0  0  0  0  0  0  0
   -2.1740    0.4356    0.0000 C   0  0  0  0  0  0  0  0  0  0  0  0
   -3.1619    1.5644    0.0000 C   0  0  0  0  0  0  0  0  0  0  0  0
   -4.6334    1.2732    0.0000 C   0  0  0  0  0  0  0  0  0  0  0  0
   -5.1169   -0.1467    0.0000 C   0  0  0  0  0  0  0  0  0  0  0  0
   -6.5884   -0.4379    0.0000 O   0  0  0  0  0  0  0  0  0  0  0  0
   -7.5763    0.6908    0.0000 C   0  0  0  0  0  0  0  0  0  0  0  0
   -4.1290   -1.2755    0.0000 C   0  0  0  0  0  0  0  0  0  0  0  0
   -4.6126   -2.6954    0.0000 O   0  0  0  0  0  0  0  0  0  0  0  0
   -3.6247   -3.8241    0.0000 C   0  0  0  0  0  0  0  0  0  0  0  0
   -2.6576   -0.9843    0.0000 C   0  0  0  0  0  0  0  0  0  0  0  0
    3.7119    1.6004    0.0000 C   0  0  0  0  0  0  0  0  0  0  0  0
    4.1954    3.0203    0.0000 O   0  0  0  0  0  0  0  0  0  0  0  0
    5.6669    3.3115    0.0000 C   0  0  0  0  0  0  0  0  0  0  0  0
    4.6998    0.4716    0.0000 C   0  0  0  0  0  0  0  0  0  0  0  0
  1  2  1  0
  2  3  2  0
  3  4  1  0
  4  5  2  0
  5  6  1  0
  6  7  2  0
  7  8  1  0
  8  9  1  0
  9 10  1  1
  9 11  1  0
 11 12  1  1
 11 13  1  0
 13 14  2  0
 14 15  1  0
 15 16  2  0
 16 17  1  0
 17 18  1  0
 16 19  1  0
 19 20  1  0
 20 21  1  0
 19 22  2  0
  7 23  1  0
 23 24  1  0
 24 25  1  0
 23 26  2  0
 26  4  1  0
 22 13  1  0
M  END
>  <identifier>  (1200) 
CNP0137166.3

>  <canonical_smiles>  (1200) 
C/C=C/C1=CC=C(O[C@H](C)[C@@H](O)C2=CC=C(OC)C(OC)=C2)C(OC)=C1

>  <standard_inchi>  (1200) 
InChI=1S/C21H26O5/c1-6-7-15-8-10-18(19(12-15)24-4)26-14(2)21(22)16-9-11-17(23-3)20(13-16)25-5/h6-14,21-22H,1-5H3/b7-6+/t14-,21-/m1/s1

>  <standard_inchi_key>  (1200) 
NUDWCJJMQATDKB-MWSVELABSA-N

>  <name>  (1200) 
7-Epi-Virolin

>  <iupac_name>  (1200) 
(1~{S},2~{R})-1-(3,4-dimethoxyphenyl)-2-[2-methoxy-4-[(~{E})-prop-1-enyl]phenoxy]propan-1-ol

>  <annotation_level>  (1200) 
5

>  <total_atom_count>  (1200) 
52

>  <heavy_atom_count>  (1200) 
26

>  <molecular_weight>  (1200) 
358.43

>  <exact_molecular_weight>  (1200) 
358.17802

>  <molecular_formula>  (1200) 
C21H26O5

>  <alogp>  (1200) 
4.25

>  <topological_polar_surface_area>  (1200) 
57.15

>  <rotatable_bond_count>  (1200) 
8

>  <hydrogen_bond_acceptors>  (1200) 
5

>  <hydrogen_bond_donors>  (1200) 
1

>  <hydrogen_bond_acceptors_lipinski>  (1200) 
5

>  <hydrogen_bond_donors_lipinski>  (1200) 
1

>  <lipinski_rule_of_five_violations>  (1200) 
0

>  <aromatic_rings_count>  (1200) 
2

>  <qed_drug_likeliness>  (1200) 
0.76

>  <formal_charge>  (1200) 
0

>  <fractioncsp3>  (1200) 
0.33

>  <number_of_minimal_rings>  (1200) 
2

>  <van_der_walls_volume>  (1200) 
nan

>  <contains_sugar>  (1200) 
False

>  <contains_ring_sugars>  (1200) 
False

>  <contains_linear_sugars>  (1200) 
False

>  <murcko_framework>  (1200) 
O(c1ccccc1)CCc2ccccc2

>  <np_likeness>  (1200) 
0.74

>  <chemical_class>  (1200) 
nan

>  <chemical_sub_class>  (1200) 
Lignans, neolignans and related compounds

>  <chemical_super_class>  (1200) 
Lignans, neolignans and related compounds

>  <direct_parent_classification>  (1200) 
Lignans, neolignans and related compounds

>  <np_classifier_pathway>  (1200) 
Shikimates and Phenylpropanoids

>  <np_classifier_superclass>  (1200) 
Lignans

>  <np_classifier_class>  (1200) 
Neolignans

>  <np_classifier_is_glycoside>  (1200) 
False

>  <organisms>  (1200) 
Virola surinamensis

>  <collections>  (1200) 
Latin America dataset|NuBBEDB|Super Natural II|WikiData Natural Products

>  <dois>  (1200) 
10.1016/S0031-9422(00)94227-4

>  <synonyms>  (1200) 
CHEMBL463080|virolin

>  <cas>  (1200) 
nan

$$$$

     RDKit          2D

 29 32  0  0  0  0  0  0  0  0999 V2000
    7.3025   -3.3605    0.0000 C   0  0  0  0  0  0  0  0  0  0  0  0
    6.9946   -1.8925    0.0000 C   0  0  0  0  0  0  0  0  0  0  0  0
    5.5692   -1.4251    0.0000 C   0  0  0  0  0  0  0  0  0  0  0  0
    5.2613    0.0429    0.0000 O   0  0  0  0  0  0  0  0  0  0  0  0
    3.8359    0.5102    0.0000 C   0  0  0  0  0  0  0  0  0  0  0  0
    3.5280    1.9783    0.0000 C   0  0  0  0  0  0  0  0  0  0  0  0
    4.6454    2.9790    0.0000 O   0  0  0  0  0  0  0  0  0  0  0  0
    6.0707    2.5117    0.0000 C   0  0  0  0  0  0  0  0  0  0  0  0
    2.1026    2.4456    0.0000 C   0  0  0  0  0  0  0  0  0  0  0  0
    0.9853    1.4449    0.0000 C   0  0  0  0  0  0  0  0  0  0  0  0
    1.2932   -0.0231    0.0000 C   0  0  0  0  0  0  0  0  0  0  0  0
    2.7185   -0.4905    0.0000 C   0  0  0  0  0  0  0  0  0  0  0  0
    3.0265   -1.9585    0.0000 O   0  0  0  0  0  0  0  0  0  0  0  0
    4.4518   -2.4259    0.0000 C   0  0  0  0  0  0  0  0  0  0  0  0
   -0.0078   -0.7697    0.0000 O   0  0  0  0  0  0  0  0  0  0  0  0
   -1.1199    0.2370    0.0000 C   0  0  0  0  0  0  0  0  0  0  0  0
   -2.5879   -0.0709    0.0000 C   0  0  0  0  0  0  0  0  0  0  0  0
   -3.5886    1.0464    0.0000 C   0  0  0  0  0  0  0  0  0  0  0  0
   -5.0567    0.7385    0.0000 C   0  0  0  0  0  0  0  0  0  0  0  0
   -6.0574    1.8559    0.0000 O   0  0  0  0  0  0  0  0  0  0  0  0
   -5.5901    3.2812    0.0000 C   0  0  0  0  0  0  0  0  0  0  0  0
   -5.5240   -0.6868    0.0000 C   0  0  0  0  0  0  0  0  0  0  0  0
   -6.8960   -1.2933    0.0000 O   0  0  0  0  0  0  0  0  0  0  0  0
   -6.7431   -2.7855    0.0000 C   0  0  0  0  0  0  0  0  0  0  0  0
   -5.2768   -3.1013    0.0000 O   0  0  0  0  0  0  0  0  0  0  0  0
   -4.5233   -1.8042    0.0000 C   0  0  0  0  0  0  0  0  0  0  0  0
   -3.0552   -1.4963    0.0000 C   0  0  0  0  0  0  0  0  0  0  0  0
   -0.5061    1.6057    0.0000 C   0  0  0  0  0  0  0  0  0  0  0  0
   -1.2526    2.9067    0.0000 C   0  0  0  0  0  0  0  0  0  0  0  0
  1  2  2  0
  2  3  1  0
  3  4  1  0
  4  5  1  0
  5  6  2  0
  6  7  1  0
  7  8  1  0
  6  9  1  0
  9 10  2  0
 10 11  1  0
 11 12  2  0
 12 13  1  0
 13 14  1  0
 11 15  1  0
 15 16  1  0
 16 17  1  6
 17 18  2  0
 18 19  1  0
 19 20  1  0
 20 21  1  0
 19 22  2  0
 22 23  1  0
 23 24  1  0
 24 25  1  0
 25 26  1  0
 26 27  2  0
 16 28  1  0
 28 29  1  1
 12  5  1  0
 27 17  1  0
 28 10  1  0
 26 22  1  0
M  END
>  <identifier>  (1201) 
CNP0176714.1

>  <canonical_smiles>  (1201) 
C=CCOC1=C(OC)C=C2C(=C1OC)O[C@H](C1=CC(OC)=C3OCOC3=C1)[C@H]2C

>  <standard_inchi>  (1201) 
InChI=1S/C22H24O7/c1-6-7-26-21-16(24-4)10-14-12(2)18(29-19(14)22(21)25-5)13-8-15(23-3)20-17(9-13)27-11-28-20/h6,8-10,12,18H,1,7,11H2,2-5H3/t12-,18-/m0/s1

>  <standard_inchi_key>  (1201) 
AYTYMCIIRBKYNI-SGTLLEGYSA-N

>  <name>  (1201) 
nan

>  <iupac_name>  (1201) 
6-[(2~{S},3~{S})-6-allyloxy-5,7-dimethoxy-3-methyl-2,3-dihydrobenzofuran-2-yl]-4-methoxy-1,3-benzodioxole

>  <annotation_level>  (1201) 
4

>  <total_atom_count>  (1201) 
53

>  <heavy_atom_count>  (1201) 
29

>  <molecular_weight>  (1201) 
400.43

>  <exact_molecular_weight>  (1201) 
400.1522

>  <molecular_formula>  (1201) 
C22H24O7

>  <alogp>  (1201) 
4.24

>  <topological_polar_surface_area>  (1201) 
64.61

>  <rotatable_bond_count>  (1201) 
7

>  <hydrogen_bond_acceptors>  (1201) 
7

>  <hydrogen_bond_donors>  (1201) 
0

>  <hydrogen_bond_acceptors_lipinski>  (1201) 
7

>  <hydrogen_bond_donors_lipinski>  (1201) 
0

>  <lipinski_rule_of_five_violations>  (1201) 
0

>  <aromatic_rings_count>  (1201) 
2

>  <qed_drug_likeliness>  (1201) 
0.64

>  <formal_charge>  (1201) 
0

>  <fractioncsp3>  (1201) 
0.36

>  <number_of_minimal_rings>  (1201) 
4

>  <van_der_walls_volume>  (1201) 
nan

>  <contains_sugar>  (1201) 
False

>  <contains_ring_sugars>  (1201) 
False

>  <contains_linear_sugars>  (1201) 
False

>  <murcko_framework>  (1201) 
O1c2ccc(cc2OC1)C3Oc4ccccc4C3

>  <np_likeness>  (1201) 
1.45

>  <chemical_class>  (1201) 
2-arylbenzofuran flavonoids

>  <chemical_sub_class>  (1201) 
2-arylbenzofuran flavonoids

>  <chemical_super_class>  (1201) 
Phenylpropanoids and polyketides

>  <direct_parent_classification>  (1201) 
2-arylbenzofuran flavonoids

>  <np_classifier_pathway>  (1201) 
Shikimates and Phenylpropanoids

>  <np_classifier_superclass>  (1201) 
Lignans

>  <np_classifier_class>  (1201) 
Neolignans

>  <np_classifier_is_glycoside>  (1201) 
False

>  <organisms>  (1201) 
Ocotea catharinensis

>  <collections>  (1201) 
Latin America dataset|NuBBEDB|Super Natural II|WikiData Natural Products

>  <dois>  (1201) 
10.1016/0031-9422(91)83479-5

>  <synonyms>  (1201) 
(7S8S)-D-53'5'-Trimethoxy-34-methylenedioxy-8.1'7.O.6'4'.O.7'-neolignan

>  <cas>  (1201) 
nan

$$$$

     RDKit          2D

 26 29  0  0  0  0  0  0  0  0999 V2000
   -4.0673   -3.1898    0.0000 C   0  0  0  0  0  0  0  0  0  0  0  0
   -4.2743   -1.7042    0.0000 C   0  0  0  0  0  0  0  0  0  0  0  0
   -3.0913   -0.7820    0.0000 C   0  0  0  0  0  0  0  0  0  0  0  0
   -3.2983    0.7036    0.0000 C   0  0  0  0  0  0  0  0  0  0  0  0
   -2.1152    1.6257    0.0000 N   0  0  0  0  0  0  0  0  0  0  0  0
   -2.3222    3.1114    0.0000 C   0  0  0  0  0  0  0  0  0  0  0  0
   -0.6599    1.2231    0.0000 C   0  0  0  0  0  0  0  0  0  0  0  0
    0.8401    1.2344    0.0000 C   0  0  0  0  0  0  0  0  0  0  0  0
    1.9087    0.1818    0.0000 C   0  0  0  0  0  0  0  0  0  0  0  0
    1.9201   -1.3182    0.0000 C   0  0  0  0  0  0  0  0  0  0  0  0
    3.3501   -1.7709    0.0000 N   0  0  0  0  0  0  0  0  0  0  0  0
    4.2226   -0.5507    0.0000 C   0  0  0  0  0  0  0  0  0  0  0  0
    5.7132   -0.3826    0.0000 C   0  0  0  0  0  0  0  0  0  0  0  0
    6.3129    0.9922    0.0000 C   0  0  0  0  0  0  0  0  0  0  0  0
    5.4220    2.1991    0.0000 C   0  0  0  0  0  0  0  0  0  0  0  0
    3.9315    2.0310    0.0000 C   0  0  0  0  0  0  0  0  0  0  0  0
    3.3318    0.6561    0.0000 C   0  0  0  0  0  0  0  0  0  0  0  0
    0.8675   -2.3868    0.0000 C   0  0  0  0  0  0  0  0  0  0  0  0
    1.4520   -3.7683    0.0000 O   0  0  0  0  0  0  0  0  0  0  0  0
   -0.6325   -2.3982    0.0000 C   0  0  0  0  0  0  0  0  0  0  0  0
   -1.7011   -1.3456    0.0000 C   0  0  0  0  0  0  0  0  0  0  0  0
   -1.7125    0.1544    0.0000 C   0  0  0  0  0  0  0  0  0  0  0  0
   -3.1026    0.7179    0.0000 C   0  0  0  0  0  0  0  0  0  0  0  0
   -4.2857   -0.2042    0.0000 O   0  0  0  0  0  0  0  0  0  0  0  0
   -3.3096    2.2036    0.0000 O   0  0  0  0  0  0  0  0  0  0  0  0
   -4.6998    2.7671    0.0000 C   0  0  0  0  0  0  0  0  0  0  0  0
  1  2  1  0
  2  3  2  3
  3  4  1  0
  4  5  1  0
  5  6  1  0
  5  7  1  0
  7  8  1  1
  8  9  1  0
  9 10  2  0
 10 11  1  0
 11 12  1  0
 12 13  2  0
 13 14  1  0
 14 15  2  0
 15 16  1  0
 16 17  2  0
 10 18  1  0
 18 19  2  0
 18 20  1  0
 20 21  1  0
 21 22  1  0
 22 23  1  6
 23 24  2  0
 23 25  1  0
 25 26  1  0
 21  3  1  0
 22  7  1  0
 17  9  1  0
 17 12  1  0
M  END
>  <identifier>  (1202) 
CNP0126303.5

>  <canonical_smiles>  (1202) 
CC=C1CN(C)[C@H]2CC3=C(NC4=CC=CC=C34)C(=O)CC1[C@@H]2C(=O)OC

>  <standard_inchi>  (1202) 
InChI=1S/C21H24N2O3/c1-4-12-11-23(2)17-9-15-13-7-5-6-8-16(13)22-20(15)18(24)10-14(12)19(17)21(25)26-3/h4-8,14,17,19,22H,9-11H2,1-3H3/t14?,17-,19-/m0/s1

>  <standard_inchi_key>  (1202) 
TYPMTMPLTVSOBU-WGAGKFISSA-N

>  <name>  (1202) 
nan

>  <iupac_name>  (1202) 
methyl (1~{S},18~{S})-15-ethylidene-17-methyl-12-oxo-10,17-diazatetracyclo[12.3.1.0^{3,11}.0^{4,9}]octadeca-3(11),4,6,8-tetraene-18-carboxylate

>  <annotation_level>  (1202) 
4

>  <total_atom_count>  (1202) 
50

>  <heavy_atom_count>  (1202) 
26

>  <molecular_weight>  (1202) 
352.43

>  <exact_molecular_weight>  (1202) 
352.17869

>  <molecular_formula>  (1202) 
C21H24N2O3

>  <alogp>  (1202) 
2.96

>  <topological_polar_surface_area>  (1202) 
62.40

>  <rotatable_bond_count>  (1202) 
1

>  <hydrogen_bond_acceptors>  (1202) 
4

>  <hydrogen_bond_donors>  (1202) 
1

>  <hydrogen_bond_acceptors_lipinski>  (1202) 
4

>  <hydrogen_bond_donors_lipinski>  (1202) 
1

>  <lipinski_rule_of_five_violations>  (1202) 
0

>  <aromatic_rings_count>  (1202) 
2

>  <qed_drug_likeliness>  (1202) 
0.63

>  <formal_charge>  (1202) 
0

>  <fractioncsp3>  (1202) 
0.43

>  <number_of_minimal_rings>  (1202) 
4

>  <van_der_walls_volume>  (1202) 
nan

>  <contains_sugar>  (1202) 
False

>  <contains_ring_sugars>  (1202) 
False

>  <contains_linear_sugars>  (1202) 
False

>  <murcko_framework>  (1202) 
c1ccc2c(c1)[nH]c3c2CC4NCCC(CC3)C4

>  <np_likeness>  (1202) 
1.66

>  <chemical_class>  (1202) 
Vobasan alkaloids

>  <chemical_sub_class>  (1202) 
Vobasan alkaloids

>  <chemical_super_class>  (1202) 
Alkaloids and derivatives

>  <direct_parent_classification>  (1202) 
Vobasan alkaloids

>  <np_classifier_pathway>  (1202) 
Alkaloids

>  <np_classifier_superclass>  (1202) 
Tryptophan alkaloids

>  <np_classifier_class>  (1202) 
Corynanthe type

>  <np_classifier_is_glycoside>  (1202) 
False

>  <organisms>  (1202) 
Tabernaemontana heterophylla

>  <collections>  (1202) 
Latin America dataset|NuBBEDB

>  <dois>  (1202) 
10.1590/1809-43921983132409

>  <synonyms>  (1202) 
Vobasine

>  <cas>  (1202) 
nan

$$$$

     RDKit          2D

 31 31  0  0  0  0  0  0  0  0999 V2000
    0.6566    3.8160    0.0000 C   0  0  0  0  0  0  0  0  0  0  0  0
    0.5319    2.3212    0.0000 O   0  0  0  0  0  0  0  0  0  0  0  0
    1.7640    1.4658    0.0000 C   0  0  0  0  0  0  0  0  0  0  0  0
    3.1210    2.1051    0.0000 O   0  0  0  0  0  0  0  0  0  0  0  0
    1.6393   -0.0290    0.0000 C   0  0  0  0  0  0  0  0  0  0  0  0
    2.8715   -0.8845    0.0000 C   0  0  0  0  0  0  0  0  0  0  0  0
    1.8151   -1.9494    0.0000 C   0  0  0  0  0  0  0  0  0  0  0  0
    0.3646   -1.5670    0.0000 C   0  0  0  0  0  0  0  0  0  0  0  0
   -0.6918   -2.6319    0.0000 C   0  0  0  0  0  0  0  0  0  0  0  0
   -0.2977   -4.0792    0.0000 C   0  0  0  0  0  0  0  0  0  0  0  0
   -2.1422   -2.2494    0.0000 C   0  0  0  0  0  0  0  0  0  0  0  0
   -2.5362   -0.8021    0.0000 C   0  0  0  0  0  0  0  0  0  0  0  0
   -3.9867   -0.4197    0.0000 C   0  0  0  0  0  0  0  0  0  0  0  0
   -5.0431   -1.4846    0.0000 C   0  0  0  0  0  0  0  0  0  0  0  0
   -4.6490   -2.9319    0.0000 C   0  0  0  0  0  0  0  0  0  0  0  0
   -6.4935   -1.1022    0.0000 C   0  0  0  0  0  0  0  0  0  0  0  0
   -6.8875    0.3451    0.0000 C   0  0  0  0  0  0  0  0  0  0  0  0
   -8.3380    0.7276    0.0000 C   0  0  0  0  0  0  0  0  0  0  0  0
   -8.7320    2.1749    0.0000 C   0  0  0  0  0  0  0  0  0  0  0  0
  -10.1824    2.5573    0.0000 C   0  0  0  0  0  0  0  0  0  0  0  0
   -7.6756    3.2398    0.0000 C   0  0  0  0  0  0  0  0  0  0  0  0
    3.4999    0.4775    0.0000 C   0  0  0  0  0  0  0  0  0  0  0  0
    4.9937    0.6142    0.0000 C   0  0  0  0  0  0  0  0  0  0  0  0
    5.6222    1.9762    0.0000 O   0  0  0  0  0  0  0  0  0  0  0  0
    7.1159    2.1130    0.0000 C   0  0  0  0  0  0  0  0  0  0  0  0
    7.7444    3.4749    0.0000 C   0  0  0  0  0  0  0  0  0  0  0  0
    7.9812    0.8877    0.0000 O   0  0  0  0  0  0  0  0  0  0  0  0
    5.8590   -0.6110    0.0000 C   0  0  0  0  0  0  0  0  0  0  0  0
    5.2305   -1.9730    0.0000 C   0  0  0  0  0  0  0  0  0  0  0  0
    3.7367   -2.1097    0.0000 C   0  0  0  0  0  0  0  0  0  0  0  0
    3.1083   -3.4717    0.0000 O   0  0  0  0  0  0  0  0  0  0  0  0
  1  2  1  0
  2  3  1  0
  3  4  2  0
  3  5  1  0
  6  5  1  1
  6  7  1  0
  7  8  1  0
  8  9  2  0
  9 10  1  0
  9 11  1  0
 11 12  1  0
 12 13  1  0
 13 14  2  0
 14 15  1  0
 14 16  1  0
 16 17  1  0
 17 18  1  0
 18 19  2  0
 19 20  1  0
 19 21  1  0
  6 22  1  0
 22 23  1  0
 23 24  1  1
 24 25  1  0
 25 26  1  0
 25 27  2  0
 23 28  1  0
 28 29  2  0
 29 30  1  0
 30 31  2  0
 30  6  1  0
M  END
>  <identifier>  (1203) 
CNP0346545.1

>  <canonical_smiles>  (1203) 
COC(=O)C[C@@]1(C/C=C(\C)CC/C=C(\C)CCC=C(C)C)C[C@@H](OC(C)=O)C=CC1=O

>  <standard_inchi>  (1203) 
InChI=1S/C26H38O5/c1-19(2)9-7-10-20(3)11-8-12-21(4)15-16-26(18-25(29)30-6)17-23(31-22(5)27)13-14-24(26)28/h9,11,13-15,23H,7-8,10,12,16-18H2,1-6H3/b20-11+,21-15+/t23-,26+/m0/s1

>  <standard_inchi_key>  (1203) 
QGSGXSGJCAHWTQ-XWGCGMIVSA-N

>  <name>  (1203) 
nan

>  <iupac_name>  (1203) 
methyl 2-[(1~{R},5~{R})-5-acetoxy-2-oxo-1-[(2~{E},6~{E})-3,7,11-trimethyldodeca-2,6,10-trienyl]cyclohex-3-en-1-yl]acetate

>  <annotation_level>  (1203) 
4

>  <total_atom_count>  (1203) 
69

>  <heavy_atom_count>  (1203) 
31

>  <molecular_weight>  (1203) 
430.59

>  <exact_molecular_weight>  (1203) 
430.27192

>  <molecular_formula>  (1203) 
C26H38O5

>  <alogp>  (1203) 
5.81

>  <topological_polar_surface_area>  (1203) 
69.67

>  <rotatable_bond_count>  (1203) 
11

>  <hydrogen_bond_acceptors>  (1203) 
5

>  <hydrogen_bond_donors>  (1203) 
0

>  <hydrogen_bond_acceptors_lipinski>  (1203) 
5

>  <hydrogen_bond_donors_lipinski>  (1203) 
0

>  <lipinski_rule_of_five_violations>  (1203) 
1

>  <aromatic_rings_count>  (1203) 
0

>  <qed_drug_likeliness>  (1203) 
0.31

>  <formal_charge>  (1203) 
0

>  <fractioncsp3>  (1203) 
0.58

>  <number_of_minimal_rings>  (1203) 
1

>  <van_der_walls_volume>  (1203) 
nan

>  <contains_sugar>  (1203) 
False

>  <contains_ring_sugars>  (1203) 
False

>  <contains_linear_sugars>  (1203) 
False

>  <murcko_framework>  (1203) 
C1=CCCCC1

>  <np_likeness>  (1203) 
2.29

>  <chemical_class>  (1203) 
Prenol lipids

>  <chemical_sub_class>  (1203) 
Sesquiterpenoids

>  <chemical_super_class>  (1203) 
Lipids and lipid-like molecules

>  <direct_parent_classification>  (1203) 
Sesquiterpenoids

>  <np_classifier_pathway>  (1203) 
Terpenoids

>  <np_classifier_superclass>  (1203) 
Meroterpenoids

>  <np_classifier_class>  (1203) 
Merosesquiterpenoids

>  <np_classifier_is_glycoside>  (1203) 
False

>  <organisms>  (1203) 
Otoba parvifolia

>  <collections>  (1203) 
Latin America dataset|NuBBEDB|Super Natural II|WikiData Natural Products|ZINC NP

>  <dois>  (1203) 
10.1016/0031-9422(95)00368-H

>  <synonyms>  (1203) 
Rel-(1'R5'R)-2-(1'-Farnesyl-5'-acetoxy-2'-oxocyclohex-3'-en-1'-yl)-acetic acid methyl ester

>  <cas>  (1203) 
nan

$$$$

     RDKit          2D

 16 17  0  0  0  0  0  0  0  0999 V2000
   -2.4450    3.2891    0.0000 C   0  0  0  0  0  0  0  0  0  0  0  0
   -2.6349    1.8011    0.0000 O   0  0  0  0  0  0  0  0  0  0  0  0
   -1.4412    0.8927    0.0000 C   0  0  0  0  0  0  0  0  0  0  0  0
   -0.0577    1.4723    0.0000 C   0  0  0  0  0  0  0  0  0  0  0  0
    1.1360    0.5639    0.0000 C   0  0  0  0  0  0  0  0  0  0  0  0
    0.9461   -0.9241    0.0000 C   0  0  0  0  0  0  0  0  0  0  0  0
    2.1398   -1.8325    0.0000 C   0  0  0  0  0  0  0  0  0  0  0  0
    3.5233   -1.2529    0.0000 C   0  0  0  0  0  0  0  0  0  0  0  0
    3.7132    0.2350    0.0000 C   0  0  0  0  0  0  0  0  0  0  0  0
    5.0967    0.8145    0.0000 O   0  0  0  0  0  0  0  0  0  0  0  0
    2.5195    1.1434    0.0000 O   0  0  0  0  0  0  0  0  0  0  0  0
   -0.4374   -1.5036    0.0000 C   0  0  0  0  0  0  0  0  0  0  0  0
   -1.6311   -0.5952    0.0000 C   0  0  0  0  0  0  0  0  0  0  0  0
   -3.0146   -1.1747    0.0000 C   0  0  0  0  0  0  0  0  0  0  0  0
   -3.2045   -2.6627    0.0000 O   0  0  0  0  0  0  0  0  0  0  0  0
   -4.2082   -0.2663    0.0000 O   0  0  0  0  0  0  0  0  0  0  0  0
  1  2  1  0
  2  3  1  0
  3  4  2  0
  4  5  1  0
  5  6  2  0
  6  7  1  0
  7  8  2  0
  8  9  1  0
  9 10  2  0
  9 11  1  0
  6 12  1  0
 12 13  2  0
 13 14  1  0
 14 15  2  0
 14 16  1  0
 13  3  1  0
 11  5  1  0
M  END
>  <identifier>  (1204) 
CNP0306739.0

>  <canonical_smiles>  (1204) 
COC1=CC2=C(C=CC(=O)O2)C=C1C(=O)O

>  <standard_inchi>  (1204) 
InChI=1S/C11H8O5/c1-15-9-5-8-6(2-3-10(12)16-8)4-7(9)11(13)14/h2-5H,1H3,(H,13,14)

>  <standard_inchi_key>  (1204) 
GQYZDAIERJIQDI-UHFFFAOYSA-N

>  <name>  (1204) 
Buntansin A

>  <iupac_name>  (1204) 
7-methoxy-2-oxo-chromene-6-carboxylic acid

>  <annotation_level>  (1204) 
5

>  <total_atom_count>  (1204) 
24

>  <heavy_atom_count>  (1204) 
16

>  <molecular_weight>  (1204) 
220.18

>  <exact_molecular_weight>  (1204) 
220.03717

>  <molecular_formula>  (1204) 
C11H8O5

>  <alogp>  (1204) 
1.50

>  <topological_polar_surface_area>  (1204) 
76.74

>  <rotatable_bond_count>  (1204) 
2

>  <hydrogen_bond_acceptors>  (1204) 
4

>  <hydrogen_bond_donors>  (1204) 
1

>  <hydrogen_bond_acceptors_lipinski>  (1204) 
4

>  <hydrogen_bond_donors_lipinski>  (1204) 
1

>  <lipinski_rule_of_five_violations>  (1204) 
0

>  <aromatic_rings_count>  (1204) 
2

>  <qed_drug_likeliness>  (1204) 
0.78

>  <formal_charge>  (1204) 
0

>  <fractioncsp3>  (1204) 
0.09

>  <number_of_minimal_rings>  (1204) 
2

>  <van_der_walls_volume>  (1204) 
180.38

>  <contains_sugar>  (1204) 
False

>  <contains_ring_sugars>  (1204) 
False

>  <contains_linear_sugars>  (1204) 
False

>  <murcko_framework>  (1204) 
O1c2ccccc2C=CC1

>  <np_likeness>  (1204) 
0.42

>  <chemical_class>  (1204) 
Coumarins and derivatives

>  <chemical_sub_class>  (1204) 
Coumarins and derivatives

>  <chemical_super_class>  (1204) 
Phenylpropanoids and polyketides

>  <direct_parent_classification>  (1204) 
Coumarins and derivatives

>  <np_classifier_pathway>  (1204) 
Shikimates and Phenylpropanoids

>  <np_classifier_superclass>  (1204) 
Coumarins

>  <np_classifier_class>  (1204) 
Simple coumarins

>  <np_classifier_is_glycoside>  (1204) 
False

>  <organisms>  (1204) 
Citrus Grandis|Citrus grandis|Citrus grandis buntan|Citrus sinensis|pomelo

>  <collections>  (1204) 
FooDB|KNApSaCK|Latin America dataset|NuBBEDB|Super Natural II|TIPdb (database of Taiwan indigenous plants)|UNPD (Universal Natural Products Database)|VietHerb|WikiData Natural Products

>  <dois>  (1204) 
10.1016/0031-9422(89)80402-9|10.1016/S0031-9422(00)97040-7|10.1021/jf801103p

>  <synonyms>  (1204) 
52525-63-0|7-Methoxy-2-oxo-2H-1-benzopyran-6-carboxylic acid|7-methoxy-2-oxochromene-6-carboxylic acid|7-methoxycoumarin-6-carboxylic acid|Buntansin|CHEBI:178384|DTXSID001235208

>  <cas>  (1204) 
52525-63-0

$$$$

     RDKit          2D

 24 26  0  0  0  0  0  0  0  0999 V2000
   -4.2996    3.3257    0.0000 C   0  0  0  0  0  0  0  0  0  0  0  0
   -5.1043    2.0598    0.0000 O   0  0  0  0  0  0  0  0  0  0  0  0
   -4.4104    0.7300    0.0000 C   0  0  0  0  0  0  0  0  0  0  0  0
   -2.9117    0.6660    0.0000 C   0  0  0  0  0  0  0  0  0  0  0  0
   -2.2178   -0.6638    0.0000 C   0  0  0  0  0  0  0  0  0  0  0  0
   -0.7192   -0.7278    0.0000 C   0  0  0  0  0  0  0  0  0  0  0  0
   -0.0253   -2.0576    0.0000 C   0  0  0  0  0  0  0  0  0  0  0  0
    1.4734   -2.1216    0.0000 C   0  0  0  0  0  0  0  0  0  0  0  0
    2.1673   -3.4514    0.0000 O   0  0  0  0  0  0  0  0  0  0  0  0
    2.2781   -0.8557    0.0000 C   0  0  0  0  0  0  0  0  0  0  0  0
    3.7767   -0.9197    0.0000 C   0  0  0  0  0  0  0  0  0  0  0  0
    4.4706   -2.2495    0.0000 O   0  0  0  0  0  0  0  0  0  0  0  0
    4.5814    0.3462    0.0000 C   0  0  0  0  0  0  0  0  0  0  0  0
    6.0801    0.2823    0.0000 C   0  0  0  0  0  0  0  0  0  0  0  0
    3.8875    1.6761    0.0000 C   0  0  0  0  0  0  0  0  0  0  0  0
    4.6922    2.9419    0.0000 O   0  0  0  0  0  0  0  0  0  0  0  0
    2.3889    1.7400    0.0000 C   0  0  0  0  0  0  0  0  0  0  0  0
    1.6949    3.0699    0.0000 C   0  0  0  0  0  0  0  0  0  0  0  0
    1.5842    0.4741    0.0000 C   0  0  0  0  0  0  0  0  0  0  0  0
    0.0855    0.5381    0.0000 O   0  0  0  0  0  0  0  0  0  0  0  0
   -3.0225   -1.9297    0.0000 C   0  0  0  0  0  0  0  0  0  0  0  0
   -4.5212   -1.8657    0.0000 C   0  0  0  0  0  0  0  0  0  0  0  0
   -5.2151   -0.5359    0.0000 C   0  0  0  0  0  0  0  0  0  0  0  0
   -6.7137   -0.4719    0.0000 O   0  0  0  0  0  0  0  0  0  0  0  0
  1  2  1  0
  2  3  1  0
  3  4  2  0
  4  5  1  0
  6  5  1  6
  6  7  1  0
  7  8  1  0
  8  9  2  0
  8 10  1  0
 10 11  2  0
 11 12  1  0
 11 13  1  0
 13 14  1  0
 13 15  2  0
 15 16  1  0
 15 17  1  0
 17 18  1  0
 17 19  2  0
 19 20  1  0
  5 21  2  0
 21 22  1  0
 22 23  2  0
 23 24  1  0
 23  3  1  0
 20  6  1  0
 19 10  1  0
M  END
>  <identifier>  (1205) 
CNP0222613.1

>  <canonical_smiles>  (1205) 
COC1=CC([C@H]2CC(=O)C3=C(O)C(C)=C(O)C(C)=C3O2)=CC=C1O

>  <standard_inchi>  (1205) 
InChI=1S/C18H18O6/c1-8-16(21)9(2)18-15(17(8)22)12(20)7-13(24-18)10-4-5-11(19)14(6-10)23-3/h4-6,13,19,21-22H,7H2,1-3H3/t13-/m1/s1

>  <standard_inchi_key>  (1205) 
QVDZTDYQDZOHRM-CYBMUJFWSA-N

>  <name>  (1205) 
(2r)-5,7,4'-trihydroxy-3'-methoxy-6,8-dimethylflavanone

>  <iupac_name>  (1205) 
(2~{R})-5,7-dihydroxy-2-(4-hydroxy-3-methoxy-phenyl)-6,8-dimethyl-chroman-4-one

>  <annotation_level>  (1205) 
5

>  <total_atom_count>  (1205) 
42

>  <heavy_atom_count>  (1205) 
24

>  <molecular_weight>  (1205) 
330.34

>  <exact_molecular_weight>  (1205) 
330.11034

>  <molecular_formula>  (1205) 
C18H18O6

>  <alogp>  (1205) 
3.14

>  <topological_polar_surface_area>  (1205) 
96.22

>  <rotatable_bond_count>  (1205) 
2

>  <hydrogen_bond_acceptors>  (1205) 
6

>  <hydrogen_bond_donors>  (1205) 
3

>  <hydrogen_bond_acceptors_lipinski>  (1205) 
6

>  <hydrogen_bond_donors_lipinski>  (1205) 
3

>  <lipinski_rule_of_five_violations>  (1205) 
0

>  <aromatic_rings_count>  (1205) 
2

>  <qed_drug_likeliness>  (1205) 
0.78

>  <formal_charge>  (1205) 
0

>  <fractioncsp3>  (1205) 
0.28

>  <number_of_minimal_rings>  (1205) 
3

>  <van_der_walls_volume>  (1205) 
287.65

>  <contains_sugar>  (1205) 
False

>  <contains_ring_sugars>  (1205) 
False

>  <contains_linear_sugars>  (1205) 
False

>  <murcko_framework>  (1205) 
O1c2ccccc2CCC1c3ccccc3

>  <np_likeness>  (1205) 
1.86

>  <chemical_class>  (1205) 
Flavonoids

>  <chemical_sub_class>  (1205) 
O-methylated flavonoids

>  <chemical_super_class>  (1205) 
Phenylpropanoids and polyketides

>  <direct_parent_classification>  (1205) 
3'-O-methylated flavonoids

>  <np_classifier_pathway>  (1205) 
Shikimates and Phenylpropanoids

>  <np_classifier_superclass>  (1205) 
Flavonoids

>  <np_classifier_class>  (1205) 
Flavanones

>  <np_classifier_is_glycoside>  (1205) 
False

>  <organisms>  (1205) 
Qualea laboriauana|Qualea labouriauana|Qualea paraensis

>  <collections>  (1205) 
KNApSaCK|Latin America dataset|NuBBEDB|Super Natural II|WikiData Natural Products|ZINC NP

>  <dois>  (1205) 
10.1016/0031-9422(81)85112-6

>  <synonyms>  (1205) 
(2R)-572'-Trihydroxy-3'-methoxy-68-dimethylflavanone|5,7,4'-Trihydroxy-3'-methoxy-6,8-di-C-methylflavanone

>  <cas>  (1205) 
nan

$$$$

     RDKit          2D

 15 16  0  0  0  0  0  0  0  0999 V2000
   -3.6581   -1.7603    0.0000 C   0  0  0  0  0  0  0  0  0  0  0  0
   -3.2919   -0.3056    0.0000 C   0  0  0  0  0  0  0  0  0  0  0  0
   -4.3685    0.7388    0.0000 C   0  0  0  0  0  0  0  0  0  0  0  0
   -1.8491    0.1046    0.0000 C   0  0  0  0  0  0  0  0  0  0  0  0
   -1.4829    1.5592    0.0000 C   0  0  0  0  0  0  0  0  0  0  0  0
   -0.0401    1.9694    0.0000 C   0  0  0  0  0  0  0  0  0  0  0  0
    1.0366    0.9249    0.0000 C   0  0  0  0  0  0  0  0  0  0  0  0
    1.4028    2.3796    0.0000 C   0  0  0  0  0  0  0  0  0  0  0  0
    2.4794    1.3351    0.0000 C   0  0  0  0  0  0  0  0  0  0  0  0
    3.5561    0.2907    0.0000 C   0  0  0  0  0  0  0  0  0  0  0  0
    3.1899   -1.1639    0.0000 C   0  0  0  0  0  0  0  0  0  0  0  0
    1.7470   -1.5741    0.0000 C   0  0  0  0  0  0  0  0  0  0  0  0
    1.3809   -3.0287    0.0000 C   0  0  0  0  0  0  0  0  0  0  0  0
    0.6704   -0.5297    0.0000 C   0  0  0  0  0  0  0  0  0  0  0  0
   -0.7724   -0.9399    0.0000 C   0  0  0  0  0  0  0  0  0  0  0  0
  1  2  2  0
  2  3  1  0
  4  2  1  6
  4  5  1  0
  5  6  1  0
  6  7  1  0
  7  8  1  6
  7  9  1  0
  9 10  1  0
 10 11  1  0
 11 12  1  0
 12 13  2  0
 12 14  1  0
 14 15  1  6
 15  4  1  0
 14  7  1  0
M  END
>  <identifier>  (1206) 
CNP0178641.5

>  <canonical_smiles>  (1206) 
C=C(C)[C@@H]1CC[C@@]2(C)CCCC(=C)[C@@H]2C1

>  <standard_inchi>  (1206) 
InChI=1S/C15H24/c1-11(2)13-7-9-15(4)8-5-6-12(3)14(15)10-13/h13-14H,1,3,5-10H2,2,4H3/t13-,14+,15-/m1/s1

>  <standard_inchi_key>  (1206) 
YOVSPTNQHMDJAG-QLFBSQMISA-N

>  <name>  (1206) 
BETA-SELINENE

>  <iupac_name>  (1206) 
(4~{a}~{R},7~{R},8~{a}~{S})-7-isopropenyl-4~{a}-methyl-1-methylene-decalin

>  <annotation_level>  (1206) 
5

>  <total_atom_count>  (1206) 
39

>  <heavy_atom_count>  (1206) 
15

>  <molecular_weight>  (1206) 
204.36

>  <exact_molecular_weight>  (1206) 
204.1878

>  <molecular_formula>  (1206) 
C15H24

>  <alogp>  (1206) 
4.73

>  <topological_polar_surface_area>  (1206) 
0.00

>  <rotatable_bond_count>  (1206) 
1

>  <hydrogen_bond_acceptors>  (1206) 
0

>  <hydrogen_bond_donors>  (1206) 
0

>  <hydrogen_bond_acceptors_lipinski>  (1206) 
0

>  <hydrogen_bond_donors_lipinski>  (1206) 
0

>  <lipinski_rule_of_five_violations>  (1206) 
0

>  <aromatic_rings_count>  (1206) 
0

>  <qed_drug_likeliness>  (1206) 
0.54

>  <formal_charge>  (1206) 
0

>  <fractioncsp3>  (1206) 
0.73

>  <number_of_minimal_rings>  (1206) 
2

>  <van_der_walls_volume>  (1206) 
225.96

>  <contains_sugar>  (1206) 
False

>  <contains_ring_sugars>  (1206) 
False

>  <contains_linear_sugars>  (1206) 
False

>  <murcko_framework>  (1206) 
C1CCC2CCCCC2C1

>  <np_likeness>  (1206) 
2.93

>  <chemical_class>  (1206) 
Prenol lipids

>  <chemical_sub_class>  (1206) 
Sesquiterpenoids

>  <chemical_super_class>  (1206) 
Lipids and lipid-like molecules

>  <direct_parent_classification>  (1206) 
Eudesmane, isoeudesmane or cycloeudesmane sesquiterpenoids

>  <np_classifier_pathway>  (1206) 
Terpenoids

>  <np_classifier_superclass>  (1206) 
Sesquiterpenoids

>  <np_classifier_class>  (1206) 
Eudesmane sesquiterpenoids

>  <np_classifier_is_glycoside>  (1206) 
False

>  <organisms>  (1206) 
Abies firma|Acca sellowiana|Acorus calamus|Acorus calanus L.|Acorus gramineus|Acorus tatarinowii|Adenocarpus foliolosus|Aframomum angustifolium|Aframomum sulcatum|Ageratina viscosa|Ageratum conyzoides|Agrimonia pilosa|Akebia quinata|Akebia trifoliata|Alkanna cappadocica|Alpinia chinensis|Alpinia hainanensis|Alpinia intermedia|Alpinia katsumadai|Alpinia latilabris|Alpinia zerumbet|Angelica archangelica|Anthoxanthum nitens|Antillogorgia elisabethae|Apium Graveolens|Apium graveolens|Arctium lappa|Aristolochia birostris|Aristolochia cymbifera|Aristolochia didyma|Aristolochia gigantea|Aristolochia macroura|Aristolochia triangularis|Arnebia euchroma|Arnebia guttata|Artabotrys lastoursvillensis|Artemisia Annua|Artemisia absinthium|Artemisia ammaniana|Artemisia annua|Artemisia annua L.|Artemisia apiacea|Artemisia arborescens|Artemisia capillaris|Artemisia dentata|Artemisia gilvescens|Artemisia klotzchiana|Artemisia sericea|Asarum asperum|Aster scaber|Atalantia racemosa|Atractylodes Lancea|Atractylodes chinensis|Atractylodes lancea|Atractylodes macrocephala|Austrobaileya scandens|Baccharis coridifolia|Balsamorhiza sagittata|Beilschmiedia pendula|Betula exilis|Bombina maxima|Bouchardatia neurococca|Bryophyllum calycinum|Buddleja cordata|Buphane fischeri|Callicarpa americana|Callicarpa macrophylla|Callitris columellaris|Callitris intratropica|Calycolpus warszewiczianus|Canarium luzonicum|Canella winterana|Cannabis sativa|Cedrela odorata|Ceratocystis fimbriata|Cereus dumortieri|Chamaecyparis formosensis|Cheilanthes chusana|Chromolaena arnottiana|Chrysanthemum indicum|Chrysanthemum x morifolium|Chrysanthemum zawadskii|Chrysocoma ciliata|Cichorium glandulosum|Cichorium intybus|Cinnamomum camphora|Cinnamomum parthenoxylon|Cinnamomum zeylanicum|Cinnamon|Cirsium arvense|Cistus creticus|Citrus reticulata|Citrus unshiu|Citrus × deliciosa|Clethra macrophylla|Cnidium officinale|Coelogyne corymbosa|Commiphora africana|Commiphora gurreh|Commiphora holtziana|Commiphora kataf|Copaifera duckei|Copaifera guianensis|Copaifera langsdorffii|Copaifera langsdorfii|Coptis chinensis|Coptis deltoidea|Coptis japonica|Coptis teeta|Corallocarpus epigaeus|Corymbia citriodora|Craibiodendron yunnanese|Crambe tatarica|Craspedia glauca|Croton eluteria|Cryptocarya agathophylla|Culcitium canescens|Cupressus dupreziana|Curcuma amada|Curcuma amanda Roxb|Curcuma kwangsiensis|Curcuma longa|Curcuma phaeocaulis|Curcuma wenyujin|Curcuma zedoaria|Cyathocline purpurea|Cymbopogon martinii|Cymbopogon nervatus|Cynara cardunculus|Cynara scolymus|Cyperus Rotundus|Cyperus alopecuroides|Cyperus erectus|Cyperus rotundus|Cyperus scariosus|Dacrydium cupressinum|Daldinia eschscholtzii|Datura stramonium|Daucus Carota|Daucus carota|Dendropanax trifidus|Diospyros eriantha|Diospyros iturensis|Eclipta prostrata|Elettaria cardamomum|Elsholtzia ciliata|Elsholtzia fruticosa|Erythrina bidwillii|Etlingera elatior|Eucalyptus angulosa|Eucalyptus behriana|Eucalyptus ceratocorys|Eucalyptus citriodora|Eucalyptus cuprea|Eucalyptus dolichorhyncha|Eucalyptus fasciculosa|Eucalyptus forrestiana|Eucalyptus incrassata|Eucalyptus intertexta|Eucalyptus lansdowneana|Eucalyptus leucoxylon|Eucalyptus maidenii|Eucalyptus melanophloia|Eucalyptus nova-anglica|Eucalyptus ochrophloia|Eucalyptus odorata|Eucalyptus populnea|Eucalyptus porosa|Eucalyptus sparsa|Eucalyptus stoatei|Eucalyptus tereticornis|Eucalyptus tetraptera|Eucalyptus viridis|Eugenia uniflora|Fitchia speciosa|Fritillaria ningguoensis|Frullania serrata|Gaillardia amblyodon|Glehnia littoralis|Gossypium hirsutum|Grindelia hirsutula|Guarea guidonia|Guatteriopsis blepharophylla|Guatteriopsis hispida|Gutierrezia spathulata|Hansenia forbesii|Hansenia weberbaueriana|Hedychium spicatum|Helenium autumnale|Helichrysum amorginum|Helichrysum bracteiferum|Helichrysum harveyanum|Helichrysum italicum|Helichrysum stoechas|Helipterum charsleyae|Helminthosporium velutinum|Heracleum antasiaticum|Herba ecliptae prostratae|Heterotropa|Hexalobus crispiflorus|Hexalobus monopetalus|Hoffmannia strigillosa|Houttuynia cordata|Humulus Lupulus|Humulus lupulus|Hypericum lysimachioides|Hypericum perforatum|Hypericum rumeliacum|Hyptis pectinata|Ichthyothere terminalis|Inula helenium|Ipomoea reptans|Juniperus communis|Juniperus oxycedrus|Juniperus rigida var. conferta|Kumquat|Laggera Alata|Laggera alata|Laggera alata var.alata|Laggera pterodonta|Larix gmelinii var. olgensis|Larix kaempferi|Lemaireocereus griseus|Leptospermum scoparium|Ligularia stenocephala|Ligusticum chuanxiong|Ligusticum sinense|Limnophila repens|Lindera aggregata|Lindera strichnifolia|Linzia glabra|Lithospermum erythrorhizon|Litsea aurata|Lobelia salicifolia|Lophozia attenuata|Lycoseris triplinervia|Magnolia obovata|Magnolia officinalis|Manekia naranjoana|Mangifera indica|Marchantia palmata|Marchantia polymorpha|Melaleuca Leucadendra|Melaleuca acacioides|Melaleuca leucadendra L.|Melaleuca leucadendron|Melaleuca quinquenervia|Mesosphaerum pectinatum|Microglossa pyrrhopappa|Millettia erythrocalyx|Mosla chinensis|Murraya exotica|Murraya gleniei|Murraya paniculata|Mutisia spinosa|Mycobacterium leprae|Nasutitermes gracilirostris|Nasutitermes novarumhebridarum|Nectandra salicina|Negombata magnifica|Notopterygium forbesii|Ocimum americanum|Ocimum campechianum|Ocimum gratissimum|Ocimum micranthum|Ocotea gomezii|Ocotea morae|Oenanthe fistulosa|Ononis vaginalis|Oreoherzogia fallax|Orthosiphon aristatus|Orthosiphon grandiflorus|Osbornia octodonta|Ostericum grosseserratum|Otostegia fruticosa|Panax ginseng|Panax notoginseng|Panax quinquefolius|Pelargonium quercifolium|Perezia carthamoides|Perezia pilifera|Perezia recurvata|Perilla frutescens|Perovskia atriplicifolia|Petasites albus|Petasites hybridus|Peucedanum paniculatum|Peucedanum paniculatum L.|Picris evae|Pilocarpus jaborandi|Pilocarpus pauciflorus|Pimenta racemosa|Pinellia ternata|Pinus halepensis|Piper aduncum|Piper angustifolium|Piper augustum|Piper fimbriulatum|Piper gaudichaudianum|Piper nigrum|Piper sylvestre|Piper taboganum|Plantago psyllium|Platostoma africanum|Plenodomus tracheiphilus|Pogostemon cablin|Polygala reinii|Polygala senega|Prangos uloptera|Prorocentrum micans|Prumnopitys ferruginoides|Psiadia altissima|Psidium friedrichsthalianum|Psidium guajava|Psidium salutare|Psorospermum febrifugum|Pteris dispar|Pteris semipinnata|Rapanea lancifolia|Retama duriaei|Rhaponticum carthamoides|Rhizoma anemones raddeanae|Rhizoma cyperi preparata|Riccardia crassa|Rubia schumanniana|Rudbeckia mollis|Rudbeckia subtomentosa|Sabal causiarum|Salvia hispanica|Sargentodoxa cuneata|Saussurea Lappa|Saussurea lappa|Schisandra chinensis|Scorzonera pseudodivaricata|Senecio duriaei|Senecio filaginoides|Senecio lividus|Senecio nebrodensis|Seseli spp.|Solanum agrimoniifolium|Solanum habrochaites|Solanum incisum|Solanum stuckertii|Solidago canadensis|Spondias mombin|Stachys atherocalyx|Stockwellia|Stoebe plumosa|Stoebe vulgaris|Sundacarpus amarus|Syncarpia hillii|Syzygium aromaticum|Syzygium nervosum|Tagetes lucida|Taiwania cryptomerioides|Tanacetum vulgare|Tessaria integrifolia|Teucrium leucocladum|Trachyspermum ammi|Trigonella foenum-graecum|Uvaria narum|Valeriana officinalis|Vidalia volubilis|Virola surinamensis|Vismia cayennensis|Vismia japurensis|Vitex negundo|Xanthium indicum|Xanthium orientale|Xanthium strumarium|Xenoacremonium recifei|Zanthoxylum bungeanum|Zanthoxylum petiolare|Zanthoxylum piperitum|Zanthoxylum schinifolium|Zingiber officinale|bellis perennis|cicely|clove|sweet potato|water mint

>  <collections>  (1206) 
ANPDB|Australian natural products|CMAUP (cCollective molecular activities of useful plants)|ChEBI NPs|EMNPD|KNApSaCK|Latin America dataset|NANPDB (Natural Products from Northern African Sources)|NAPRORE-CR|NPASS|NPEdia|NuBBEDB|Phyto4Health|Super Natural II|TCMDB-Taiwan (Traditional Chinese Medicine database)|TIPdb (database of Taiwan indigenous plants)|VietHerb|WikiData Natural Products

>  <dois>  (1206) 
10.1002/(SICI)1099-1026(199701)12:1<47::AID-FFJ610>3.0.CO;2-7|10.1002/(SICI)1099-1026(199901/02)14:1<12::AID-FFJ763>3.0.CO;2-7|10.1002/(SICI)1099-1573(199611)10:7<600::AID-PTR918>3.0.CO;2-7|10.1002/BSCB.19860950903|10.1002/CBDV.201800531|10.1002/CHIN.198734320|10.1002/ECE3.5390|10.1002/FFJ.2730060304|10.1002/FFJ.2730060307|10.1002/FFJ.2730060314|10.1002/FFJ.2730090305|10.1002/FFJ.2730100310|10.1002/FFJ.2730100408|10.1002/FFJ.2730100605|10.1002/JLAC.198519850708|10.1002/PTR.1093|10.1006/JFCA.1999.0841|10.1007/BF00576230|10.1007/BF00579988|10.1007/BF00580068|10.1007/BF00580907|10.1007/BF00980588|10.1007/BF01959201|10.1007/BF01959202|10.1007/S10086-018-1773-1|10.1007/S11418-007-0175-2|10.1007/s100860300029|10.1016/0031-9422(75)85347-7|10.1016/0031-9422(80)83071-8|10.1016/0031-9422(81)80025-8|10.1016/0031-9422(82)80162-3|10.1016/0031-9422(82)85198-4|10.1016/0031-9422(83)80212-X|10.1016/0031-9422(83)83041-6|10.1016/0031-9422(88)80300-5|10.1016/0031-9422(88)83101-7|10.1016/0031-9422(88)87022-5|10.1016/0031-9422(89)80045-7|10.1016/0031-9422(89)80048-2|10.1016/0031-9422(90)85117-X|10.1016/0031-9422(91)83064-R|10.1016/0031-9422(91)83456-U|10.1016/0031-9422(91)83735-4|10.1016/0031-9422(91)84207-9|10.1016/0031-9422(92)80119-Y|10.1016/0031-9422(92)80361-H|10.1016/0031-9422(95)00183-8|10.1016/0031-9422(95)00577-T|10.1016/0305-1978(89)90098-7|10.1016/J.ACA.2004.09.082|10.1016/J.APJTM.2016.06.009|10.1016/J.BSE.2003.12.009|10.1016/J.CHROMA.2007.12.011|10.1016/J.FITOTE.2005.08.019|10.1016/J.FOODCHEM.2008.09.107|10.1016/J.FOODCHEM.2015.11.033|10.1016/J.INDCROP.2013.06.023|10.1016/J.INDCROP.2014.04.048|10.1016/J.JEP.2012.11.045|10.1016/J.PHYTOCHEM.2003.08.004|10.1016/J.PHYTOCHEM.2004.03.019|10.1016/J.PHYTOCHEM.2005.01.007|10.1016/J.PHYTOCHEM.2005.07.001|10.1016/J.PHYTOCHEM.2008.02.017|10.1016/J.PHYTOCHEM.2008.12.018|10.1016/J.PHYTOCHEM.2009.06.013|10.1016/J.PHYTOCHEM.2018.06.006|10.1016/S0031-9422(00)00284-3|10.1016/S0031-9422(00)00374-5|10.1016/S0031-9422(00)80600-7|10.1016/S0031-9422(00)80635-4|10.1016/S0031-9422(00)80837-7|10.1016/S0031-9422(00)81166-8|10.1016/S0031-9422(00)81445-4|10.1016/S0031-9422(00)81569-1|10.1016/S0031-9422(00)82294-3|10.1016/S0031-9422(00)83116-7|10.1016/S0031-9422(00)83481-0|10.1016/S0031-9422(00)85512-0|10.1016/S0031-9422(00)97558-7|10.1016/S0031-9422(00)97880-4|10.1016/S0031-9422(02)00006-7|10.1016/S0031-9422(02)00089-4|10.1016/S0031-9422(02)00207-8|10.1016/S0031-9422(82)85033-4|10.1016/S0031-9422(96)00749-2|10.1016/S0031-9422(97)00154-4|10.1016/S0031-9422(97)00324-5|10.1016/S0031-9422(97)00762-0|10.1016/S0031-9422(98)00158-7|10.1016/S0031-9422(98)80077-0|10.1016/S0031-9422(98)80083-6|10.1016/S0308-8146(03)00014-1|10.1016/S0367-326X(01)00367-7|10.1016/S0378-8741(99)00072-0|10.1016/S0944-7113(11)80031-0|10.1016/j.tetasy.2004.03.030|10.1021/JF00008A025|10.1021/JF00026A027|10.1021/JF00034A033|10.1021/JF00046A030|10.1021/JF00048A056|10.1021/JF00073A015|10.1021/JF00087A036|10.1021/JF00091A025|10.1021/JF00118A056|10.1021/JF0116303|10.1021/JF0402633|10.1021/JF60218A031|10.1021/JF9911850|10.1021/JF991383R|10.1021/JO040272A|10.1021/NP030475E|10.1021/NP400872M|10.1021/NP50006A014|10.1021/NP50008A001|10.1021/NP50018A028|10.1021/NP50031A024|10.1021/NP50121A011|10.1021/acsomega.3c03865|10.1021/jf011456i|10.1021/np400872m|10.1039/C39830000353|10.1055/S-2003-39704|10.1055/S-2006-957488|10.1055/S-2006-957489|10.1055/S-2006-957641|10.1055/S-2006-957911|10.1055/S-2006-957914|10.1055/S-2006-959506|10.1055/S-2006-959548|10.1055/S-2006-959580|10.1055/S-2006-959673|10.1055/S-2006-960930|10.1055/S-2006-960985|10.1055/S-2006-961490|10.1055/S-2006-962093|10.1055/S-2006-962540|10.1055/S-2007-969136|10.1055/S-2007-969160|10.1055/S-2007-969591|10.1076/PHBI.35.1.66.13267|10.1080/0972060X.2007.10643581|10.1080/10412905.1989.9697769|10.1080/10412905.1990.9697808|10.1080/10412905.1991.9697952|10.1080/10412905.1991.9697953|10.1080/10412905.1991.9697974|10.1080/10412905.1992.9698006|10.1080/10412905.1992.9698068|10.1080/10412905.1992.9698112|10.1080/10412905.1992.9698125|10.1080/10412905.1992.9698155|10.1080/10412905.1993.9698162|10.1080/10412905.1993.9698181|10.1080/10412905.1993.9698208|10.1080/10412905.1993.9698215|10.1080/10412905.1993.9698218|10.1080/10412905.1993.9698232|10.1080/10412905.1993.9698251|10.1080/10412905.1993.9698279|10.1080/10412905.1994.9698380|10.1080/10412905.1994.9698395|10.1080/10412905.1994.9698405|10.1080/10412905.1994.9698407|10.1080/10412905.1994.9698428|10.1080/10412905.1994.9698435|10.1080/10412905.1994.9698447|10.1080/10412905.1994.9699344|10.1080/10412905.1994.9699347|10.1080/10412905.1994.9699366|10.1080/10412905.1995.9698462|10.1080/10412905.1995.9698522|10.1080/10412905.1995.9698530|10.1080/10412905.1995.9698562|10.1080/10412905.1997.9700724|10.1080/10412905.1997.9700725|10.1080/10412905.1997.9700728|10.1080/10412905.1997.9700808|10.1080/10412905.1997.9700822|10.1080/10412905.1998.9700852|10.1080/10412905.1999.9701056|10.1080/10412905.1999.9701070|10.1080/10412905.2000.9699554|10.1080/10412905.2001.9699593|10.1080/10412905.2001.9699608|10.1080/10412905.2001.9699620|10.1080/10412905.2003.9698598|10.1080/10412905.2008.9699963|10.1080/10412905.2010.9700320|10.1080/10412905.2018.1431966|10.1080/10575639608043580|10.1080/14786410902941063|10.1135/CCCC19641675|10.1177/1934578X1100600135|10.1201/B22102-8|10.1246/BCSJ.51.3395|10.1248/BPB.25.128|10.1248/CPB.35.2860|10.1248/YAKUSHI1947.107.3_209|10.1248/YAKUSHI1947.107.3_219|10.1248/YAKUSHI1947.116.9_728|10.1271/BBB1961.49.1583|10.1271/BBB1961.52.2961|10.1590/S0100-40422009000200028|10.1590/S0103-50532000000600012|10.1590/S0103-50532010000500012|10.1590/S0103-50532011000400018|10.17660/ACTAHORTIC.1999.500.11|10.3109/13880209109082868|10.3136/FSTR.7.200|10.3390/MOLECULES21060814|10.3390/MOLECULES24112053|10.3390/MOLECULES24234244|10.3719/WEED.22.14|10.3719/WEED.25.42|10.5650/JOS1956.31.151

>  <synonyms>  (1206) 
(+)-_-selinene|(+)-beta-Selinene|(4aR,7R,8aS)-4a-methyl-1-methylidene-7-(prop-1-en-2-yl)-decahydronaphthalene|(4aR,7R,8aS)-4a-methyl-1-methylidene-7-(prop-1-en-2-yl)decahydronaphthalene eudesma-4(14),11-diene|(4aR,7R,8aS)-7-isopropenyl-4a-methyl-1-methylenedecahydronaphthalene|(4ar,7r,8as)-decahydro-4a-methyl-1-methylene-7-(1-methylethenyl)-naphthalene|.beta.-Selinene|17066-67-0|7-Isopropenyl-4a-methyl-1-methylenedecahydronaphthalene-, (4aR-(4a.alpha.,7.alpha.,8a.beta.))-|C09723|CHEBI:10443|CHEMBL2287242|DTXSID201020829|Eudesma-4(14),11-diene|LMPR0103190014|NS00113988|Naphthalene, decahydro-4a-methyl-1-methylene-7-(1-methylethenyl)-, [4aR-(4a.alpha.,7.alpha.,8a.beta.)]-|Q27108640|YOVSPTNQHMDJAG-QLFBSQMISA-N|[4aR-(4aalpha,7alpha,8abeta)]-decahydro-4a-methyl-1-methylene-7-(1-methylethenyl)-naphthalene|\u03b1-selinene|\u221a\u00e9\u00ac\u2264-Selinene|_-eudesmene|_-selinene|b-Selinene, (~90%)|beta-Eudesmene|beta-selinene|selinene

>  <cas>  (1206) 
nan

$$$$

     RDKit          2D

 14 14  0  0  0  0  0  0  0  0999 V2000
    3.3336   -2.7795    0.0000 C   0  0  0  0  0  0  0  0  0  0  0  0
    3.5577   -1.2963    0.0000 O   0  0  0  0  0  0  0  0  0  0  0  0
    2.3854   -0.3606    0.0000 C   0  0  0  0  0  0  0  0  0  0  0  0
    0.9889   -0.9080    0.0000 C   0  0  0  0  0  0  0  0  0  0  0  0
   -0.1835    0.0277    0.0000 C   0  0  0  0  0  0  0  0  0  0  0  0
   -1.5800   -0.5197    0.0000 C   0  0  0  0  0  0  0  0  0  0  0  0
   -2.7524    0.4161    0.0000 C   0  0  0  0  0  0  0  0  0  0  0  0
   -4.1489   -0.1314    0.0000 C   0  0  0  0  0  0  0  0  0  0  0  0
   -4.3731   -1.6145    0.0000 O   0  0  0  0  0  0  0  0  0  0  0  0
   -5.3213    0.8044    0.0000 O   0  0  0  0  0  0  0  0  0  0  0  0
    0.0407    1.5109    0.0000 C   0  0  0  0  0  0  0  0  0  0  0  0
    1.4372    2.0583    0.0000 C   0  0  0  0  0  0  0  0  0  0  0  0
    2.6096    1.1226    0.0000 C   0  0  0  0  0  0  0  0  0  0  0  0
    4.0061    1.6700    0.0000 O   0  0  0  0  0  0  0  0  0  0  0  0
  1  2  1  0
  2  3  1  0
  3  4  2  0
  4  5  1  0
  5  6  1  0
  6  7  2  0
  7  8  1  0
  8  9  2  0
  8 10  1  0
  5 11  2  0
 11 12  1  0
 12 13  2  0
 13 14  1  0
 13  3  1  0
M  END
>  <identifier>  (1207) 
CNP0304940.1

>  <canonical_smiles>  (1207) 
COC1=CC(/C=C/C(=O)O)=CC=C1O

>  <standard_inchi>  (1207) 
InChI=1S/C10H10O4/c1-14-9-6-7(2-4-8(9)11)3-5-10(12)13/h2-6,11H,1H3,(H,12,13)/b5-3+

>  <standard_inchi_key>  (1207) 
KSEBMYQBYZTDHS-HWKANZROSA-N

>  <name>  (1207) 
nan

>  <iupac_name>  (1207) 
nan

>  <annotation_level>  (1207) 
0

>  <total_atom_count>  (1207) 
24

>  <heavy_atom_count>  (1207) 
14

>  <molecular_weight>  (1207) 
194.19

>  <exact_molecular_weight>  (1207) 
194.05791

>  <molecular_formula>  (1207) 
C10H10O4

>  <alogp>  (1207) 
1.50

>  <topological_polar_surface_area>  (1207) 
66.76

>  <rotatable_bond_count>  (1207) 
3

>  <hydrogen_bond_acceptors>  (1207) 
3

>  <hydrogen_bond_donors>  (1207) 
2

>  <hydrogen_bond_acceptors_lipinski>  (1207) 
3

>  <hydrogen_bond_donors_lipinski>  (1207) 
2

>  <lipinski_rule_of_five_violations>  (1207) 
0

>  <aromatic_rings_count>  (1207) 
1

>  <qed_drug_likeliness>  (1207) 
0.72

>  <formal_charge>  (1207) 
0

>  <fractioncsp3>  (1207) 
0.10

>  <number_of_minimal_rings>  (1207) 
1

>  <van_der_walls_volume>  (1207) 
172.86

>  <contains_sugar>  (1207) 
False

>  <contains_ring_sugars>  (1207) 
False

>  <contains_linear_sugars>  (1207) 
False

>  <murcko_framework>  (1207) 
c1ccccc1

>  <np_likeness>  (1207) 
0.93

>  <chemical_class>  (1207) 
nan

>  <chemical_sub_class>  (1207) 
nan

>  <chemical_super_class>  (1207) 
nan

>  <direct_parent_classification>  (1207) 
nan

>  <np_classifier_pathway>  (1207) 
Shikimates and Phenylpropanoids

>  <np_classifier_superclass>  (1207) 
Phenylpropanoids (C6-C3)

>  <np_classifier_class>  (1207) 
Cinnamic acids and derivatives

>  <np_classifier_is_glycoside>  (1207) 
False

>  <organisms>  (1207) 
Abeliophyllum distichum|Abies nephrolepis|Abies sp.|Abies spectabilis|Achillea millefolium|Achlys triphylla|Aconitum burnatii|Aconitum koreanum|Acrocarpia paniculata|Actaea|Actaea dahurica|Actaea elata|Actaea heracleifolia|Actaea japonica|Actaea racemosa|Actaea simplex|Adenostoma sparsifolium|Aerva lanata|Aeschynanthus bracteatus|Aesculus hippocastanum|Aganosma caryophyllata|Agave salmiana|Aglaia foveolata|Aguacate|Ailanthus altissima|Ailanthus integrifolia|Ainsliaea uniflora|Ajuga iva|Ajuga pyramidalis|Albizia procera|Alcea rosea|Alcyonium utinomii|Aldisa sanguinea|Alectoria ochroleuca|Allium Cepa|Allium cepa|Allium sativum|Allium sp.|Allium tuberosum|Aloe africana|Aloe barbadensis|Aloe castellorum|Aloe ferox|Aloe spicata|Aloe vera|Alpinia blepharocalyx|Alsidium triquetrum|Alstonia angustiloba|Alstonia undulifolia|Althaea armeniaca|Althaea broussonetiifolia|Althaea cannabina|Althaea narbonensis|Althaea officinalis|Amaranthus hypochondriacus|Amelanchier sanguinea|Amsinckia tessellata|Anagallis sp.|Anaphalis|Anastatica hierochuntica|Andrographis Paniculata|Andrographis elongata|Andrographis paniculata|Andrographis viscosula|Anemone tomentosa|Anethum graveolens|Angelica Sinensis|Angelica acutiloba|Angelica acutiloba (Hokkado)|Angelica acutiloba (Toyama)|Angelica archangelica|Angelica dahurica|Angelica furcijuga KITAGAWA|Angelica gigas|Angelica pubescens|Angelica sinensis|Angelica sp.|Anguilla japonica|Anigozanthos preissii|Annona cherimola|Anodendron affine|Anolis lineatopus|Anthemis nobilis|Anthocercis albicans|Antitoxicum scanden|Aonidiella aurantii|Apiaceae|Apis mellifera|Apis mellifera ligustica|Apium graveolens|Apium sp.|Aplophyllum pedicellatum|Aplysia dactylomela|Aplysina archeri|Aquilaria malaccensis|Arabidopsis thaliana|Araiostegiella perdurans|Aralia continentalis|Araucaria angustifolia|Arenaria kansuensis var.ovatipeatala|Aristolochia clematitis|Aristolochia cucurbitifolia|Aristolochia heterophylla|Aristolochia heterophylla Hemsl|Aristolochia kaempferi|Aristolochia manshuriensis|Arnebia euchroma|Artemisia absinthium|Artemisia capillaris|Artemisia giraldii|Artemisia jacutica|Artemisia pectinata|Artemisia porrecta|Artemisia siversiana|Arum italicum|Aruncus diocus|Aruncus dioicus|Aspalathus linearis|Asparagus Officinalis|Asparagus cochinchinensis|Asparagus officinalis|Aspergillus carneus|Aspergillus microcysticus|Aspergillus mutabilis|Aspergillus striatus|Aspergillus unilateralis|Aspidixia articulata|Aster indicus|Asteriscus aquaticus|Astragalus arguricus|Astragalus bungeanus|Astragalus captiosus|Astragalus circassicus|Astragalus eximius|Astragalus floccosifolius|Astragalus goktschaicus|Astragalus levieri|Astragalus membranaceus|Astragalus mongholicus|Astragalus onobrychis|Astragalus sevangensis|Astragalus trimestris|Astragalus wagneri|Aucuba chinensis|Aurelia aurita|Avena sativa|Avena sp.|Axinella agnata|Baccharis grandicapitulata|Baccharis linearis|Bacterium from|Balanops australiana|Balbisia calycina|Bassia scoparia|Beesia calthifolia|Begonia nantoensis|Berberis darwinii|Beta Vulgaris|Beta vulgaris|Betula platyphylla|Betula pubescens|Bishopanthus soliceps|Bistorta vivipara|Bitter bush|Blainvillea acmella|Bohadschia vitiensis|Boltonia asteroides|Boschniakia rossica|Botrychium ternatum|Brachanthemum gobicum|Brassica napus|Brassica oleracea|Brassica rapa|Brassica sp.|Breonia chinensis|Brettanomyces anomalus|Brickellia vernicosa|Broussonetia papyrifera|Bryothamnion triquetrum|Buddleja asiatica|Buddleja fallowiana|Bulbophyllum protractum|Bulbophyllum vaginatum|Bupleurum acutifolium|Bupleurum sibiricum|Bupleurum sp.|Bursera kerberi|Bursera tonkinensis|Cajanus cajan|Calendula sp.|Calligonum leucocladum|Calluna vulgaris|Callyspongia siphonella|Calycanthus chinensis|Calystegia pubescens|Camellia reticulata|Campanula persicifolia|Campanula rotundifolia|Campylotropis hirtella|Cannabis sativa|Capparis ovata|Capparis spinosa|Capsicum annuum|Capsicum annuum var. annuum|Caragana spinosa|Carica dodecaphylla|Carpobrotus edulis|Carthamus tinctorius|Carya ovata|Cassine papillosa|Castanea dentata|Catalpa ovata|Catalpa sp.|Cedrela salvadorensis|Cedronella canariensis|Centaurea africana|Centaurea huber-morathii|Centaurea hyalolepis|Centaurea pallescens|Centaurium erythraea|Centella asiatica|Centipeda minima|Ceratozamia kuesteriana|Ceropegia dichotoma|Chaerophyllum hirsutum|Chamaecrista greggii|Chamaecyparis formosensis|Chamaemelum sp.|Chamerion dodonaei|Chamomilla recutita|Charpentiera obovata|Chelidonium majus|Chenopodium formosanum|Chrysanthemum x morifolium|Chrysosplenium americanum|Cicer arietinum|Cichorium sp.|Cicuta sp.|Cimicifuga dahurica|Cimicifuga foetida|Cimicifuga heracleifolia|Cimicifuga simplex|Cimicifuga sp.|Cinnamomum Subavenium|Cinnamomum kotoense|Cinnamomum reticulatum|Cinnamomum sp.|Cinnamomum subavenium|Cinnamomum tenuifolium|Citrus Limonia|Citrus aurantium|Citrus japonica|Citrus limon|Citrus limonia|Citrus medica|Citrus paradisi|Citrus reticulata|Citrus sp.|Citrus sudachi|Citrus tangerina|Citrus tankan|Citrus unshiu|Citrus wilsonii|Citrus × deliciosa|Clathria basilana|Clathria prolifera|Clematis terniflora var. mandshurica|Clerodendrum trichotomum|Clinacanthus nutans|Cnidium monnieri|Cnidium officinale|Cochlospermum planchoni|Cocos nucifera|Cocos sp.|Codiaeum variegatum|Codonopsis pilosula|Coffea|Coffea arabica|Coffea canephora|Coffea liberica var. dewevrei|Colchicum bornmuelleri|Colchicum kotschyi|Colchicum speciosum|Colobanthus quitensis|Colpomenia sinuosa|Colubrina faralaotra|Colubrina faralaotra subsp.trichocarpa.|Commelina communis|Conioselinum anthriscoides|Conioselium vaginatum|Consolida sp.|Conus pulicarius|Conus tessulatus|Conyza schimperi|Coptis Chinensis|Coptis chinensis|Coptis deltoidea|Coptis japonica|Coptis teeta|Corchorus capsularis|Corchorus olitorius|Coriandrum sativum|Cornus sp.|Cortex lycii radicis|Cortinarius odoratus|Corydalis cheilanthifolia|Corydalis decumbens|Costasiella ocellifera|Crataegus laevigata|Crataegus monogyna|Crataegus oxyacantha L. (1753)|Cremastra appendiculata|Creosphaeria sassafras|Crepidotus fulvotomentosus|Crinum moorei|Crocus minimus|Crotalaria candicans|Crotalaria stolzii|Croton megalocarpus|Croton montevidensis|Cryptocarya infectoria|Cryptomeria japonica|Cucurbita maxima|Cucurbita moschata|Cuminum cyminum|Cunonia macrophylla|Curculigo pilosa|Curcuma aeruginosa|Curcuma domestica|Curcuma longa|Cymbopogon citratus|Cynanchum thesioides|Cynometra lujae|Cyperus Rotundus|Cyperus rotundus|Cyperus rotundus L.|Cypripedium calceolus|Dactylorhiza maculata|Daemonorops draco|Dasiphora fruticosa|Datisca glomerata|Dekkera anomala|Delisea elegans|Delphinium crassifolium|Delphinium giraldii|Dendrobium loddigesii|Dendrobium officinale|Dendrobium secundum|Dendrophorbium pericaule|Deschampsia antarctica|Desmodium styracifolium|Digitalis ferruginea|Dioscorea olfersiana|Diospyros canaliculata|Diospyros glaucifolia|Diospyros kaki|Dipteryx odorata|Distephanus angulifolius|Dracocephalum moldavicum|Dracocephalum ruyschiana|Drynaria fortunei|Durio oxleyanus|Dysoxylum schiffneri|Ecballium elaterium|Echinacea angustifolia|Echinacea purpurea|Echinaster echinophorus|Echinus microtuberculatus|Elaeis sp.|Eleutherobia albiflora|Eleutherococcus senticosus|Elymnias thryallis|Emericellopsis minima|Entada rheedei|Epilobium dodonaei|Equisetum arvense|Equisetum giganteum|Equisetum hiemale|Equisetum hyemale|Equisetum pratense|Equisetum ramosissimum|Equisetum telmateia|Equsetum arvense|Eria japonica|Erigeron canadensis|Eriobotrya japonica|Eriocaulon buergerianum|Eriostemon crowei|Eritrichium sericeum|Erylus trisphaerus|Erythrina americana|Erythrina latissima|Erythrina senegalensis|Eucalyptus|Eucalyptus albens|Eucalyptus apodophylla|Eucalyptus coccifera|Eucalyptus globulus|Eucalyptus globulus subsp. bicostata|Eucalyptus jenseni|Euclea crispa|Eucomis autumnalis|Eucommia ulmoides|Euonymus fortunei|Euonymus tingens|Eupatorium areolare|Euphorbia cornigera|Euphorbia hylonoma|Euphorbia sikkimensis|Euphorbia sp.|Euphorbia tithymaloides|Euphrasia officinalis|Euphrasia sp.|Euphrasia stricta|Euploca racemosa|Euthamia graminifolia|Eutrema japonicum|Excoecaria acerifolia|FOOD SAKE|Fagopyrum esculentum|Fagus fusca|Falcaria vulgaris|Fallopia convolvulus|Fallopia multiflora|Felimida luteorosea|Ferula assa-foetida|Ferula assafoetida|Ferula foetida|Ferula sp.|Festuca arundinacea|Festuca ovina|Festuca pratensis|Festuca rubra|Filipendula ulmaria|Flemingia rhodocarpa|Foeniculum Vulgare|Foeniculum sp.|Foeniculum vulgare|Forsythia suspensa|Forsythia viridissima|Fumaria agraria|Fumaria capreolata|Fumaria officinalis|Fumaria parviflora|Fusarium avenaceum|Fusarium sacchari|Galinsoga ciliata|Galinsoga quadriradiata|Garcinia andamanica|Garcinia cambogia|Garrya laurifolia|Gaylussacia baccata|Geranium sp.|Ginkgo biloba|Glebionis coronaria|Glebionis segetum|Glechoma grandis|Glechoma hederacea|Glechoma longituba|Gleditsia caspica|Glehnia Littoralis|Glehnia littoralis|Gliricidia sepium|Glycine|Glycine max|Glycosmis macrophylla|Glycyrrhiza uralensis|Gnetum pendulum|Gossypium hirsutum|Goupia glabra|Gracilaria textorii|Greigia sphacelata|Gutierrezia dracunculoides|Gymnadenia conopsea|Gymnadenia conopsea R.BR.|Gymnanthemum myrianthum|Gymnopus confluens|Gynerium sagittatum|Gypsophila perfoliata|Haematoxylum campechianum|Haematoxylum sp.|Halimodendron halodendron|Halocharis hispida|Hansenia forbesii|Hansenia weberbaueriana|Haplophyllum griffithianum|Haplophyllum ramosissimum|Haplopteris anguste-elongata|Hedera sp.|Hedychium coronarium|Hedysarum gmelini|Helenium integrifolium|Helichrysum auriceps|Helichrysum italicum|Helichrysum mixtum|Helipterum gnaphaloides|Helleborus atrorubens|Helleborus serbicus|Helminthotheca echioides|Heracleum maximum|Heracleum sphondylium|Heracleum yungningense|Herba nerviliae|Herniaria|Hertia cheirifolia|Heteroplexis microcephala|Hibiscus taiwanensis|Hippophae rhamnoides|Hoffmannia strigillosa|Homo sapiens|Hordeum vulgare|Hornstedtia reticulata|Hortonia floribunda|Hovenia dulcis|Hubertia tomentosa|Humata pectinata|Humbertacalia tomentosa|Humulus lupulus|Humulus sp.|Huperzia selago|Hydrangea macrophylla|Hylocereus undatus|Hylocomium splendens|Hypericum laricifolium|Hypericum perforatum|Hypericum polyanthemum|Hyrtios erecta|Hyssopus officinalis|Illicium sp.|Impatiens balsamina|Imperata cylindrica|Inula britannica|Iotrochota birotulata|Iotrochota purpurea|Ipomoea nil|Ipomoea purpurea|Iris ensata|Iris lactea|Iris nigricans|Iris sp.|Iris triflora|Isatis quadrialata|Isatis tinctoria|Isodon japonicus|Isodon oresbius|Ixora javanica|Jacaranda sp.|Jateorhiza columba|Jatropha multifida|Juglans nigra|Jugo|Juniperus chinensis|Juniperus drupacea|Juniperus rigida|Juniperus scopulorum|Kalanchoe pinnata|Kali turgidum|Kalmia angustifolia|Kokoona reflexa|Krascheninnikovia ceratoides|Kumquat|Lactuca laciniata|Lactuca viminea|Laggera alata|Lampranthus sociorum|Larix sibirica|Lasianthaea podocephala|Launaea arborescens|Launaea resedifolia|Laurencia pinnatifida|Lavandula pedunculata|Lecania gerlachei|Leiocarpa leptolepis|Lens culinaris|Lens esculenta|Leonurus heterophyllus|Levisticum officinale|Licaria chrysophylla|Ligularia dentata|Ligularia nelumbifolia|Ligularia pleurocaulis|Ligularia veitchiana|Ligusticum Sinense|Ligusticum brachylobum|Ligusticum chuanxiong|Ligusticum chuanxiong HORT.|Ligusticum jeholense|Ligusticum multivittatum|Ligusticum porteri|Ligusticum sinense|Ligusticum sinense cv.chaxiong|Ligusticum striatum|Ligusticum tenuissimum|Ligustrum japonicum|Ligustrum lucidum|Ligustrum obtusifolium|Lindera obtusiloba|Linum sp.|Linum usitatissimum|Lithospermum erythrorhizon|Lithothamnion corallioides|Lobophytum schoedei|Lolium multiflorum|Lonicera japonica|Lotus ucrainicus|Lupinus angustifolius|Lupinus cosentinii|Lycium barbarum|Lycium chinense|Lycopodium erythraeum|Lycopodium japonicum|Lycopodium japonium|Lycopodium sp.|Lycopus europaeus|Lycopus sp.|Lysiana subfalcata|Lysimachia christinae|Macaranga Triloba|Macaranga peltata|Macaranga triloba|Macrolepiota neomastoidea|Maesa ramentacea|Magnolia compressa|Maize bran|Mallotus metcalfianus|Malus domestica|Malus pumila|Malva pucheina|Malva silvestris|Manihot sp.|Marrubium cylleneum|Marrubium velutinum|Martensia denticulata|Matricaria chamomilla|Matricaria recutita|Matteuccia struthiopteris|Matthiola incana|Maytenus sp.|Medicago sativa|Medinilla magnifica|Melampodium leucanthum|Melanargia galathea|Melia azedarach|Melia azedarach var. toosendan|Melissa officinalis|Melissa sp.|Melolontha melolontha|Mentha cardiaca|Mentha sp.|Mentha spicata|Mentzelia cordifolia|Mentzelia sp.|Menyanthes trifoliata|Mesua ferrea|Metridium senile|Mexican propolis|Microcos paniculata|Micromonospora echinospora|Millettia ichthyochtona|Millettia laurentii|Millettia pinnata|Momordica charantia|Monodora tenuifolia|Monopteryx uaucu|Morella pensylvanica|Moringa oleifera|Morus alba|Murraya paniculata|Musa sp.|Myelobia smerintha|Myristica cagayanensis|Myristica fragrans|Nardostachys jatamansi|Nauclea rhynchophylla|Nelumbo nucifera|Neomirandea parasitica|Neopetrosia exigua|Neurospora sitophila|Nicotiana tabacum|Nostoc spongiaeforme|Notholirion hyacinthinum|Notopterygium incisum|Nototodarus sloanii|Nymphaea alba|Ocimum basilicum|Ocimum tenuiflorum|Oenanthe javanica|Oenothera biennis|Oenothera suaveolens|Oldenlandia diffusa|Olea europaea|Olea sp.|Onobrychis bobrovii|Ononis sp.|Ononis spinosa|Ophidiaster ophidianus|Opopanax chironicum|Opuntia dellenii|Opuntia ficus-indica|Opuntia ficus-indica var.saboten|Oreocome striata|Origanum vulgare|Ormosia dasycarpa|Ormosia hosiei|Ornithoglossum viride|Oryza Sativa|Oryza aristata|Oryza sativa|Osmanthus fragrans|Osmanthus heterophyllus|Osmanthus ilicifolius|Osmanthus × fortunei|Osteospermum muricatum|Ostericum grosseserratum|Packera tomentosa|Paeonia lactiflora|Paeonia rockii|Paeonia suffruticosa|Papaver persicum|Papaver pseudocanescens|Parablechnum minus|Parmelia caraccensis|Pavetta owariensis|Pelargonium reniforme|Pellacalyx axillaris|Penicillium cyclopium|Penicillium janczewskii|Pentaclethra macrophylla|Peperomia duclouxii C. DC.|Peperomia heyneana|Peperomia vulcanica|Perilla frutescens|Periploca graeca|Periploca sepium|Persicaria amphibia|Persicaria hydropiper|Persicaria hydropiperoides|Persicaria mitis|Pertusaria amara|Pertusaria truncata|Perymenium mendezii|Pestalotiopsis oenotherae|Petasites formosanus|Petasites laevigatus|Petteria ramentacea|Petunia axillaris|Phaeolus schweinitzii|Pharbitis nil|Phascolion strombus|Phaseolus lunatus|Phaseolus vulgaris|Phebalium dentatum|Phebalium drummondii|Phedimus kamtschaticus|Phellodendron Amurense|Phellodendron amurense|Phellodendron chinense|Phellodendron chinese|Phleum pratense|Phlogacanthus tubiflorus|Phlomis crinita|Phoenix canariensis|Phragmites australis|Phragmites communis|Phyllanthus oligospermus|Phyllostachys edulis|Physalis alkekengi|Physalis edulis|Picea abies|Picea ajanensis|Picea glauca|Picea koraiensis|Picea neoveitchii|Picea obovata|Picris echioides|Picrorhiza kurrooa|Picrorhiza scrophulariiflora|Pimpinella anisum|Pinellia ternata|Pinus edulis|Pinus laricio|Pinus pinaster|Pinus sibirica|Pinus strobus|Pinus sylvestris|Piper auritum|Piper brachystachyum|Piper sp.|Pisum sativum|Plantago Major|Plantago arborescens|Plantago lanceolata|Plantago major|Plantago media|Platycarya strobilacea|Platycladus orientalis|Plectranthus myrianthus|Pleione bulbocodioides|Pleione yunnanensis|Pluchea odorata|Poa huecu|Pocillopora eydouxi|Podospora curvicolla|Polygonum aviculare|Polygonum cuspidatum|Polygonum flaccidum|Polypodium decumanum|Populus ciliata|Populus deltoides|Populus euphratica|Populus grandidentata|Populus nigra|Populus pseudosimonii|Populus simonii|Populus szechuanica|Populus tremuloides|Populus violascens|Populus yunnanensis|Portulaca oleracea|Posidonia oceanica|Potentilla erecta|Potentilla fruticosa|Potentilla sp.|Potentilla tormentilla|Premna tomentosa|Prunella vulgaris|Prunus africana|Prunus armeniaca|Prunus avium|Prunus cerasus|Prunus domestica|Prunus persica|Prunus persica var. nucipersica|Pseudocyphellaria australiensis|Pseudomonas pseudoalcaligenes|Pseudoplexaura flagellosa|Pseudostellaria heterophylla|Pseudowintera colorata|Psidium acutangulum|Psidium guajava|Pteris altissima|Pteris multifida|Pterocarpus sp.|Pterocaulon virgatum|Pterogyne nitens|Pulicaria wightiana|Pulsatilla cernua|Pulsatilla koreana|Punica granatum|Pyrus communis|Quercus faginea|Quercus ilex|Quercus imbricaria|Quercus petraea|Quercus pyrenaica|Quercus robur|Quercus suber|Ranunculus baudotii|Ranunculus sieboldii|Raphanus Sativus|Raphanus sativus|Rehmannia glutinosa|Reissantia buchananii|Renealmia alpinia|Reseda muricata|Reseda muricata C.Presl.|Rhaponticoides africana|Rhaponticum carthamoides|Rheum coreanum|Rheum officinale|Rheum palmatum|Rheum tanguticum|Rhizoma fagopyri cymosi|Rhizomnium magnifolium|Rhodiola heterodonta|Rhodiola semenovii|Rhododendron dauricum|Rhododendron mucronulatum|Rhododendron sp.|Rhodotorula mucilaginosa|Rhodotorula rubra|Ribes nigrum|Ricinodendron heudelotii|Ricinus sp.|Roldana sundbergii|Rorippa indica|Rosmarinus officinalis|Rosmarinus sp.|Rostellularia procumbens|Rubia tetragona|Rubus chamaemorus|Rubus chingii|Rubus coreanus|Rubus idaeus|Rubus ulmifolius|Rumex chalepensis|Rumex japonicus|Sabia japonica|Sagittaria sagittifolia|Salacia lehmbachii|Salvia fruticosa|Salvia miltiorrhiza|Salvia officinalis|Salvia sessei|Salvia sp.|Salvia trijuga|Salvia triloba|Salvia yosgadensis|Sambucus sp.|Sarcophyton flexuosum|Sargentodoxa cuneata|Sauromatum giganteum|Saussurea amara|Saussurea involucrata|Schizanthus tricolor|Scrophularia buergeriana|Scrophularia frutescens|Scrophularia koelzii|Scrophularia ningpoensis|Scrophularia nodosa|Scrophularia sambucifolia|Scrophularia scorodonia|Scrophularia sp.|Scutellaria albida|Scutellaria albida subsp.albida|Scutellaria baicalensis|Secale cereale|Secale sp.|Secamone afzelii|Securidaca inappendiculata|Sedum takesimense|Sedum takesimense Nakai|Selaginella pulvinata|Selaginella tamariscina|Selenicereus undatus|Selinum libanotis|Senecio cathcartensis|Senecio congestus|Senna spectabilis|Sequoia sempervirens|Sesamum orientale|Sesamum sp.|Seseli mucronatum|Sia ferox|Sida acuta|Sideritis brevibracteata|Sideritis dasygnaphala|Sideritis euboea|Sideroxylon cubense|Siegesbeckia orientalis var.glabrescens|Sigesbeckia glabrescens|Silphium perfoliatum|Sinapis alba|Sinapis sp.|Sisyrinchium californicum|Smilax china|Smilax glabra|Solanum|Solanum andigena|Solanum dasyphyllum|Solanum lycopersicum|Solanum melongena|Solanum nigrum|Solidago canadensis|Solidago gigantea|Solidago virgaurea|Sonneratia caseolaris|Sophora alopecuroides|Sophora lehmanni|Sophora lehmannii|Sophora pachycarpa|Sorbus tianschanica|Sparganium stoloniferum|Spathodea campanulata|Sphaeranthus confertifolius|Spilanthes acmella|Spinacia oleracea|Spiracantha cornifolia|Stellaria media|Stephania elegans|Stephania zippeliana|Stereospermum kunthianum|Streptomyces|Streptomyces GT5/020|Streptomyces argenteolus|Streptomyces hebeiensis|Streptomyces melanogenes|Streptomyces microflavus|Streptomyces mutabilis|Streptomyces mutabilis sp. MII|Streptomyces parvisporogenes|Streptomyces pentaticus|Streptomyces platensis|Styphnolobium japonicum|Swertia angustifolia|Swertia swertopsis|Syringa pinnafolia|Syringa reticulata|Syzygium sp.|Talaromyces variabilis|Tamarix aphylla|Tamarix chinensis|Tanacetum sp.|Taraxacum borealisinense|Taraxacum coreanum|Taraxacum formosanum|Taraxacum mongolicum|Taraxacum officinale|Taraxacum platycarpum|Taraxacum sinicum|Tarchonanthus camphoratus|Taxus baccata|Taxus brevifolia|Tecoma stans|Tephroseris kirilowii|Tetragonia tetragonoides|Teucrium divaricatum|Teucrium lusitanicum|Teucrium pernyi|Teucrium salviastrum|Thea sasanqua|Theobroma cacao|Thonningia sanguinea|Thymus|Thymus quinquecostatus|Thymus sp.|Thymus vulgaris|Tilia tomentosa|Tiliacora racemosa|Tocoyena formosa|Torilis radiata|Trachylobium verrucosum|Tragopogon orientalis|Tragopogon pratensis|Tribulus Terrestris|Tribulus terrestris|Trichoderma koningi|Trichoderma virens|Trifolium strepens|Trigonella foenum-graecum|Tristania conferta|Triticum|Triticum aestivum|Triticum durum|Tropaeolum majus|Tsuga chinensis|Tsuga heterophylla|Tussilago farfara|Tylophora tanakae|Urospermum dalechampii|Urospermum picroides|Urtica dioica|Urtica sp.|Uruparia lanosa|Usnea undulata|Utricularia australis|Vaccinium angustifolium|Vaccinium corymbosum|Vaccinium deliciosum|Vaccinium macrocarpon|Vaccinium myrtillus|Vaccinium ovalifolium|Vaccinium ovatum|Vaccinium oxycoccos|Vaccinium parvifolium|Vaccinium uliginosum|Valeriana laxiflora|Valeriana officinalis|Vanilla planifolia|Varronia linnaei|Verbascum laxum|Verbascum sp.|Verbesina gigantea|Verbesina myriocephala|Vernonia cistifolia|Veronica polita|Veronica sp.|Viburnum dilatatum|Vigna angularis|Vigna radiata|Vigna radiata var. radiata|Vigna umbellata|Vigna umbeuata|Vigna unguiculata|Viguiera decurrens|Vincetoxicum scandens|Viola arvensis|Virgilia divaricata|Virola michelii|Virola sebifera|Virola sp.|Virola surinamensis|Viscum album|Viscum coloratum|Viscum sp.|Visnea mocanera|Vitex agnus-castus|Vitex rotundifolia|Vitis heyneana|Vitis thunbergii|Vitis vinifera|Vittaria anguste-elongata|Viviparus japonicus|Wasabia japonica|Woodsia manchuriensis|Xanthium sibiricum|Xanthium strumarium|Xanthorhiza simplicissima|Zea mays|Zephyranthes flava|Zingiber officinale|Zingiber sp.|Ziziphus jujuba|Ziziphus jujuba mill. var. inermis (bge.) rehd.|Ziziphus jujuba var. spinosa|Ziziphus jujuba var.spinosa|Zostera marina|asparagus|basil|bog bilberry|borage|broad bean|cacao|common sunflower|dracocephalum ruyschiana|garlic|maize|parsley|peanut|pomegranate|potato|rooibos|sesame|soybean|tomato

>  <collections>  (1207) 
ANPDB|Australian natural products|BIOFACQUIM|CMAUP (cCollective molecular activities of useful plants)|ChEBI NPs|ChemSpider NPs|DrugBankNP|EMNPD|ETM (Ethiopian Traditional Medicine) DB|Exposome-explorer|FooDB|HIM (Herbal Ingredients in-vivo Metabolism database)|InterBioScreen Ltd|KNApSaCK|Latin America dataset|Mitishamba database|NANPDB (Natural Products from Northern African Sources)|NPACT|NPASS|NPEdia|NuBBEDB|Phyto4Health|PhytoLab phyproof® Reference Substances|PubChem NPs|SANCDB|StreptomeDB|Super Natural II|TCMDB-Taiwan (Traditional Chinese Medicine database)|TIPdb (database of Taiwan indigenous plants)|VietHerb|WikiData Natural Products

>  <dois>  (1207) 
10.1002/(SICI)1099-0801(199908)13:5<333::AID-BMC834>3.0.CO;2-P|10.1002/(SICI)1099-1565(199603)7:2<97::AID-PCA286>3.0.CO;2-M|10.1002/(SICI)1099-1565(199901/02)10:1<6::AID-PCA431>3.0.CO;2-0|10.1002/(SICI)1099-1565(199909/10)10:5<268::AID-PCA467>3.0.CO;2-Z|10.1002/1099-1565(200011/12)11:6<375::AID-PCA539>3.0.CO;2-0|10.1002/1099-1565(200101/02)12:1<43::AID-PCA546>3.0.CO;2-Z|10.1002/ARDP.18511180224|10.1002/BMS.1200200504|10.1002/CBDV.201000373|10.1002/CBDV.201100219|10.1002/CHIN.200307176|10.1002/CHIN.200342212|10.1002/CHIN.200410182|10.1002/CHIN.200434239|10.1002/CHIN.200438214|10.1002/CHIN.200523199|10.1002/CHIN.200533256|10.1002/CHIN.200612217|10.1002/CHIN.200937206|10.1002/ELPS.201300646|10.1002/HLCA.200690079|10.1002/HLCA.200890141|10.1002/HLCA.200890142|10.1002/HLCA.201000250|10.1002/JCCS.198500015|10.1002/JCCS.199400032|10.1002/JCCS.199500136|10.1002/JCCS.199900010|10.1002/JCCS.199900110|10.1002/JCCS.200100158|10.1002/JHRC.1240090210|10.1002/JMS.395|10.1002/JPS.3080110306|10.1002/JSFA.2740420206|10.1002/JSFA.2740500106|10.1002/JSSC.200390053|10.1002/JSSC.200390054|10.1002/JSSC.200500003|10.1002/MRC.2767|10.1006/JCRS.1996.0058|10.1006/JCRS.1996.0090|10.1006/JCRS.2002.0464|10.1006/JFCA.2002.1071|10.1007/978-0-85729-323-7_1230|10.1007/BF00367119|10.1007/BF00381261|10.1007/BF00564022|10.1007/BF00564480|10.1007/BF00564822|10.1007/BF00564862|10.1007/BF00565058|10.1007/BF00565160|10.1007/BF00565598|10.1007/BF00566073|10.1007/BF00568226|10.1007/BF00570871|10.1007/BF00571226|10.1007/BF00571239|10.1007/BF00573563|10.1007/BF00574353|10.1007/BF00575055|10.1007/BF00575192|10.1007/BF00575726|10.1007/BF00575737|10.1007/BF00577216|10.1007/BF00579165|10.1007/BF00579785|10.1007/BF00579831|10.1007/BF00595084|10.1007/BF00596761|10.1007/BF00597724|10.1007/BF00597729|10.1007/BF00597867|10.1007/BF00597869|10.1007/BF00602476|10.1007/BF00629813|10.1007/BF00629850|10.1007/BF00629948|10.1007/BF00630191|10.1007/BF00630225|10.1007/BF00630226|10.1007/BF00630446|10.1007/BF00982301|10.1007/BF00993699|10.1007/BF02064447|10.1007/BF02467553|10.1007/BF02523530|10.1007/BF02671339|10.1007/BF02855697|10.1007/BF02908196|10.1007/BF02976704|10.1007/BF02977346|10.1007/S00216-007-1298-8|10.1007/S00217-002-0603-1|10.1007/S00217-004-0938-X|10.1007/S002170050544|10.1007/S00394-019-01987-6|10.1007/S00425-015-2256-X|10.1007/S00580-015-2192-Y|10.1007/S10600-006-0215-2|10.1007/S10600-006-0228-X|10.1007/S10600-008-9041-Z|10.1007/S10600-009-9360-8|10.1007/S10600-010-9463-2|10.1007/S10600-011-9810-Y|10.1007/S10600-011-9826-3|10.1007/S10600-011-9915-3|10.1007/S10600-012-0124-5|10.1007/S10600-012-0377-Z|10.1007/S11094-005-0104-1|10.1007/S11130-011-0236-2|10.1007/S11130-020-00822-2|10.1007/S11418-007-0156-5|10.1007/S11746-002-0484-8|10.1007/S11947-012-0877-7|10.1007/S12272-010-0404-1|10.1007/s11130-020-00822-2|10.1016/0014-5793(91)81261-6|10.1016/0021-9673(95)00585-B|10.1016/0021-9673(95)00877-2|10.1016/0021-9673(96)00169-0|10.1016/0031-9422(81)85100-X|10.1016/0031-9422(82)80142-8|10.1016/0031-9422(82)80150-7|10.1016/0031-9422(82)85180-7|10.1016/0031-9422(82)85189-3|10.1016/0031-9422(83)83029-5|10.1016/0031-9422(88)80709-X|10.1016/0031-9422(88)83095-4|10.1016/0031-9422(89)80149-9|10.1016/0031-9422(89)80199-2|10.1016/0031-9422(90)80180-O|10.1016/0031-9422(90)85281-J|10.1016/0031-9422(90)85371-L|10.1016/0031-9422(90)87143-I|10.1016/0031-9422(91)83010-I|10.1016/0031-9422(91)83035-J|10.1016/0031-9422(91)83738-7|10.1016/0031-9422(91)85032-U|10.1016/0031-9422(91)85033-V|10.1016/0031-9422(91)85302-G|10.1016/0031-9422(92)80362-I|10.1016/0031-9422(92)83630-H|10.1016/0031-9422(94)00689-Q|10.1016/0031-9422(95)00790-3|10.1016/0031-9422(95)00810-1|10.1016/0031-9422(95)00930-2|10.1016/0098-8472(86)90054-7|10.1016/0304-3770(86)90119-1|10.1016/0304-3770(95)00504-8|10.1016/0304-3835(90)90147-P|10.1016/0305-1978(91)90071-7|10.1016/0305-1978(92)90106-N|10.1016/0305-1978(93)90061-U|10.1016/0305-1978(94)00092-U|10.1016/0305-1978(94)90063-9|10.1016/0308-8146(93)90137-5|10.1016/0378-8741(84)90075-8|10.1016/0378-8741(90)90043-S|10.1016/0378-8741(96)01419-5|10.1016/B978-0-12-374420-3.00099-1|10.1016/B978-0-12-397934-6.00012-7|10.1016/B978-0-12-675407-0.50017-8|10.1016/J.ARABJC.2013.12.011|10.1016/J.BMC.2007.01.035|10.1016/J.BMC.2010.01.046|10.1016/J.BMC.2011.03.055|10.1016/J.BMCL.2013.12.006|10.1016/J.BMCL.2015.01.034|10.1016/J.BSE.2006.02.004|10.1016/J.CHROMA.2007.01.090|10.1016/J.FBIO.2018.07.004|10.1016/J.FITOTE.2004.05.007|10.1016/J.FITOTE.2005.08.020|10.1016/J.FITOTE.2006.09.019|10.1016/J.FITOTE.2008.01.002|10.1016/J.FITOTE.2010.12.003|10.1016/J.FITOTE.2019.104271|10.1016/J.FOODCHEM.2005.02.007|10.1016/J.FOODCHEM.2005.07.053|10.1016/J.FOODCHEM.2005.11.053|10.1016/J.FOODCHEM.2006.08.014|10.1016/J.FOODCHEM.2007.08.038|10.1016/J.FOODCHEM.2008.12.074|10.1016/J.FOODCHEM.2020.128444|10.1016/J.FOODRES.2014.04.036|10.1016/J.FOODRES.2017.06.052|10.1016/J.IFSET.2018.01.008|10.1016/J.JEP.2004.09.049|10.1016/J.JFCA.2005.09.003|10.1016/J.JFF.2015.04.049|10.1016/J.JFF.2015.12.019|10.1016/J.JPBA.2011.02.029|10.1016/J.LWT.2006.07.003|10.1016/J.LWT.2018.02.024|10.1016/J.PHYMED.2003.10.009|10.1016/J.PHYMED.2005.06.007|10.1016/J.PHYMED.2006.11.021|10.1016/J.PHYTOCHEM.2003.10.026|10.1016/J.PHYTOCHEM.2003.12.009|10.1016/J.PHYTOCHEM.2004.05.008|10.1016/J.PHYTOCHEM.2005.08.011|10.1016/J.PHYTOCHEM.2005.11.023|10.1016/J.PHYTOCHEM.2006.04.009|10.1016/J.PHYTOCHEM.2007.03.007|10.1016/J.PHYTOCHEM.2007.04.014|10.1016/J.PHYTOCHEM.2007.05.027|10.1016/J.PHYTOCHEM.2007.05.031|10.1016/J.PHYTOCHEM.2007.06.020|10.1016/J.PHYTOCHEM.2007.08.021|10.1016/J.PHYTOCHEM.2007.11.014|10.1016/J.PHYTOCHEM.2008.05.012|10.1016/J.PHYTOCHEM.2008.10.008|10.1016/J.PHYTOCHEM.2009.04.008|10.1016/J.PHYTOCHEM.2009.04.019|10.1016/J.PHYTOCHEM.2011.01.018|10.1016/J.PHYTOCHEM.2015.07.017|10.1016/J.PHYTOCHEM.2016.12.003|10.1016/J.PHYTOL.2011.06.004|10.1016/J.PLAPHY.2015.04.008|10.1016/J.TET.2010.01.016|10.1016/S0003-2670(01)01241-7|10.1016/S0003-2670(02)00776-6|10.1016/S0021-9258(20)80477-3|10.1016/S0021-9673(01)00598-2|10.1016/S0021-9673(01)86974-0|10.1016/S0021-9673(01)87655-X|10.1016/S0021-9673(01)93959-7|10.1016/S0021-9673(02)00172-3|10.1016/S0021-9673(97)01259-4|10.1016/S0021-9673(98)00201-5|10.1016/S0031-9422(00)00110-2|10.1016/S0031-9422(00)00239-9|10.1016/S0031-9422(00)00479-9|10.1016/S0031-9422(00)80460-4|10.1016/S0031-9422(00)80599-3|10.1016/S0031-9422(00)81727-6|10.1016/S0031-9422(00)83133-7|10.1016/S0031-9422(00)84778-0|10.1016/S0031-9422(00)85038-4|10.1016/S0031-9422(00)85114-6|10.1016/S0031-9422(00)85977-4|10.1016/S0031-9422(00)86894-6|10.1016/S0031-9422(00)88025-5|10.1016/S0031-9422(00)89547-3|10.1016/S0031-9422(00)89801-5|10.1016/S0031-9422(00)90367-4|10.1016/S0031-9422(00)90415-1|10.1016/S0031-9422(00)90521-1|10.1016/S0031-9422(00)90664-2|10.1016/S0031-9422(00)90786-6|10.1016/S0031-9422(00)91326-8|10.1016/S0031-9422(01)00246-1|10.1016/S0031-9422(01)00415-0|10.1016/S0031-9422(02)00133-4|10.1016/S0031-9422(02)00209-1|10.1016/S0031-9422(03)00297-8|10.1016/S0031-9422(03)00422-9|10.1016/S0031-9422(96)00388-3|10.1016/S0031-9422(96)00634-6|10.1016/S0031-9422(97)01086-8|10.1016/S0031-9422(97)01118-7|10.1016/S0031-9422(97)01134-5|10.1016/S0031-9422(98)00687-6|10.1016/S0031-9422(99)00074-6|10.1016/S0031-9422(99)00116-8|10.1016/S0031-9422(99)00333-7|10.1016/S0040-4020(01)98186-4|10.1016/S0308-8146(00)00322-8|10.1016/S0308-8146(98)00146-0|10.1016/S0367-326X(00)00142-8|10.1016/S0367-326X(01)00327-6|10.1016/S0367-326X(02)00237-X|10.1016/S0378-5122(02)00343-2|10.1016/S0378-8741(01)00197-0|10.1016/S0378-8741(01)00363-4|10.1016/S0731-7085(00)00455-6|10.1016/S0731-7085(00)00541-0|10.1016/S0733-5210(98)90005-4|10.1016/S0889-1575(02)91071-9|10.1016/S0928-0987(97)86374-9|10.1016/S0960-894X(03)00088-X|10.1016/S0963-9969(00)00072-7|10.1016/S0963-9969(00)00086-7|10.1016/S0968-0896(00)00225-X|10.1016/S0981-9428(00)00774-9|10.1016/S1466-8564(01)00040-6|10.1016/S1570-0232(02)00403-8|10.1016/j.ab.2009.06.036|10.1016/j.bmc.2007.01.035|10.1016/j.bmc.2010.01.046|10.1016/j.bmc.2010.01.088|10.1016/j.bmcl.2013.12.006|10.1016/j.bmcl.2015.01.034|10.1016/j.foodchem.2020.128444|10.1016/j.foodres.2019.108899|10.1016/j.jfca.2006.05.007|10.1021/ACS.JAFC.8B03600|10.1021/ACS.JNATPROD.6B00582|10.1021/JF00017A016|10.1021/JF00021A005|10.1021/JF00024A024|10.1021/JF00035A076|10.1021/JF00042A006|10.1021/JF0006473|10.1021/JF00067A013|10.1021/JF00078A018|10.1021/JF00110A030|10.1021/JF00111A051|10.1021/JF001145S|10.1021/JF00118A035|10.1021/JF00121A033|10.1021/JF00123A028|10.1021/JF0013407|10.1021/JF010609Z|10.1021/JF020055F|10.1021/JF0201327|10.1021/JF0205099|10.1021/JF0205211|10.1021/JF020725H|10.1021/JF020957G|10.1021/JF0257547|10.1021/JF026178H|10.1021/JF030123D|10.1021/JF0305229|10.1021/JF0307595|10.1021/JF034791A|10.1021/JF040083T|10.1021/JF049450R|10.1021/JF050721N|10.1021/JF060460X|10.1021/JF0615247|10.1021/JF062785J|10.1021/JF0636014|10.1021/JF2011535|10.1021/JF501330H|10.1021/JF800574S|10.1021/JF900695S|10.1021/JF9502461|10.1021/JF9505335|10.1021/JF9601628|10.1021/JF960486W|10.1021/JF9607831|10.1021/JF9704221|10.1021/JF9708103|10.1021/JF970863K|10.1021/JF980049C|10.1021/JF990530I|10.1021/JF991266W|10.1021/NP0003387|10.1021/NP0301238|10.1021/NP030241V.S001|10.1021/NP050060O|10.1021/NP050066D|10.1021/NP050066D.S001|10.1021/NP0501031|10.1021/NP0501031.S001|10.1021/NP050301S|10.1021/NP0580210|10.1021/NP060107L|10.1021/NP060217S|10.1021/NP060425K|10.1021/NP0604533|10.1021/NP100447A|10.1021/NP300609U|10.1021/NP50008A001|10.1021/NP50013A020|10.1021/NP50017A010|10.1021/NP50037A033|10.1021/NP50052A040|10.1021/NP50072A004|10.1021/NP50104A001|10.1021/NP900213W|10.1021/NP900225P|10.1021/NP900752T|10.1021/NP960430W|10.1021/NP9702953|10.1021/NP980445P|10.1021/NP980566P|10.1021/acs.jnatprod.5b01012|10.1021/acs.jnatprod.6b00582|10.1021/acs.jnatprod.6b00823|10.1021/acs.jnatprod.8b00670|10.1021/jf101029a|10.1021/np050301s|10.1021/np100447a|10.1021/np300609u|10.1021/np900772m|10.1034/J.1399-3054.1994.920222.X|10.1034/J.1399-3054.2000.100304.X|10.1055/S-0028-1097628|10.1055/S-0028-1097904|10.1055/S-0028-1099426|10.1055/S-0028-1099453|10.1055/S-0028-1099839|10.1055/S-2000-9563|10.1055/S-2003-39709|10.1055/S-2004-827149|10.1055/S-2005-864148|10.1055/S-2005-873169|10.1055/S-2006-946638|10.1055/S-2006-958019|10.1055/S-2006-959608|10.1055/S-2006-959880|10.1055/S-2006-960092|10.1055/S-2006-960862|10.1055/S-2006-961555|10.1055/S-2006-961663|10.1055/S-2006-962742|10.1055/S-2006-962790|10.1055/S-2007-969178|10.1055/S-2007-969319|10.1055/S-2007-969488|10.1076/PHBI.36.5.362.4654|10.1080/00021369.1978.10863028|10.1080/01483918808067200|10.1080/01483918808076763|10.1080/01483919008049590|10.1080/0957126032000114982|10.1080/09637480500524299|10.1080/10286020.2010.481260|10.1080/10286020.2011.586944|10.1080/10286020.2011.596829|10.1080/10408390802145377|10.1080/10826079408013763|10.1080/10826079708005561|10.1080/10826079808003594|10.1080/14786410802242851|10.1080/14786419.2010.534735|10.1080/14786419.2011.587422|10.1080/15592324.2016.1249080|10.1081/JLC-100101676|10.1081/JLC-100101744|10.1081/JLC-100104443|10.1081/JLC-200051475|10.1086/325089|10.1093/CHROMSCI/45.6.354|10.1093/CHROMSCI/BMY030|10.1093/JXB/27.4.827|10.1093/PCP/PCM173|10.1094/PHYTO-83-949|10.1104/PP.101.3.847|10.1104/PP.106.078428|10.1104/PP.69.2.522|10.1111/1750-3841.12295|10.1111/1750-3841.12404|10.1111/J.0893-5785.2000.130830.X|10.1111/J.1365-2621.1983.TB14902.X|10.1111/J.1365-2621.1987.TB14056.X|10.1111/J.1744-7909.2006.00279.X|10.1111/J.1745-4514.2007.00107.X|10.1111/J.1745-4522.2007.00107.X|10.1111/J.1745-4557.2006.00096.X|10.1111/J.2042-7158.1998.TB03332.X|10.1139/B82-307|10.1139/B91-288|10.1139/M92-210|10.1139/V09-112|10.1139/V09-151|10.1139/Y09-091|10.1142/S0192415X87000151|10.1155/2014/304830|10.1155/2017/7436259|10.1177/1934578X0800300925|10.1177/1934578X0900400602|10.1186/1471-2180-12-164|10.1186/s12906-015-0873-3|10.1201/B13959-20|10.1201/B14669-29|10.1248/BPB.23.1216|10.1248/BPB.24.1373|10.1248/BPB.25.505|10.1248/CPB.28.717|10.1248/CPB.31.919|10.1248/CPB.32.578|10.1248/CPB.35.1427|10.1248/CPB.36.807|10.1248/CPB.38.2498|10.1248/CPB.41.926|10.1248/CPB.42.1669|10.1248/CPB.46.1624|10.1248/CPB.46.362|10.1248/CPB.47.1305|10.1248/CPB.47.375|10.1248/CPB.48.1006|10.1248/CPB.48.357|10.1248/CPB.50.73|10.1248/CPB.51.1439|10.1248/CPB.51.599|10.1248/CPB.53.56|10.1248/CPB.53.701|10.1248/CPB.54.1063|10.1248/CPB.54.1308|10.1248/CPB.54.506|10.1248/CPB.55.140|10.1248/CPB.56.1704|10.1248/CPB.56.97|10.1248/CPB.58.1646|10.1248/CPB.59.1425|10.1248/YAKUSHI1947.103.9_997|10.1248/YAKUSHI1947.104.5_535|10.1248/YAKUSHI1947.105.5_442|10.1248/YAKUSHI1947.105.6_542|10.1248/YAKUSHI1947.107.1_23|10.1248/YAKUSHI1947.108.7_647|10.1248/YAKUSHI1947.110.10_746|10.1271/BBB.58.1087|10.1271/BBB.58.1141|10.1271/BBB.59.1780|10.1271/BBB.59.526|10.1271/BBB.60314|10.1271/BBB.60507|10.1271/BBB.61.1674|10.1271/BBB1961.49.301|10.1365/S10337-005-0622-8|10.1365/S10337-009-1222-9|10.1371/journal.pone.0073076|10.14233/AJCHEM.2014.16143A|10.1515/HF-2014-0342|10.1515/HF.1999.096|10.1515/ZNC-1988-1-210|10.1515/ZNC-1990-0604|10.1515/ZNC-1992-0624|10.1515/ZNC-1992-1-204|10.1515/ZNC-1992-7-807|10.1515/ZNC-1992-9-1022|10.1515/ZNC-1998-11-1225|10.1515/ZNC-2001-5-604|10.1515/ZNC-2001-9-1012|10.1515/ZNC-2003-7-826|10.1515/ZNC-2011-5-602|10.1515/ZNC-2017-0140|10.1515/hf.2002.024|10.1515/znc-2017-0140|10.1590/S0100-40422008000400018|10.17221/6598-CJFS|10.17660/ACTAHORTIC.2003.597.15|10.21273/HORTSCI.29.4.313|10.2307/3869512|10.3390/IJMS15022327|10.3390/MOLECULES14020850|10.3390/MOLECULES16010251|10.3390/MOLECULES16031917|10.3390/MOLECULES22101606|10.3390/MOLECULES23020469|10.3390/NU11061377|10.3390/PLANTS10071330|10.3390/foods9060770|10.3390/molecules24162945|10.3390/molecules24183212|10.3390/molecules27020483|10.3746/JKFN.2006.35.6.713|10.3923/JBS.2001.843.845|10.3945/jn.109.113613|10.3987/COM-03-9777|10.3987/COM-03-9991|10.3987/COM-93-6424|10.4268/CJCMM20111013|10.4268/CJCMM20121914|10.4268/CJCMM20150722|10.5586/ASBP.1977.015|10.5586/ASBP.1988.009|10.5586/ASBP.1991.011|10.5586/ASBP.1995.007|10.5586/ASBP.1998.029|10.5586/ASBP.1999.040|10.5586/ASBP.2000.003|10.5650/JOS1996.46.1399|10.5935/0103-5053.20130184|10.9734/EJMP/2013/4976

>  <synonyms>  (1207) 
4-Hydroxy 3-methoxy trans-cinnamic acid|Coniferic acid

>  <cas>  (1207) 
537-98-4

$$$$

     RDKit          2D

 42 46  0  0  0  0  0  0  0  0999 V2000
   -3.8646   -2.6555    0.0000 C   0  0  0  0  0  0  0  0  0  0  0  0
   -4.0391   -1.1657    0.0000 O   0  0  0  0  0  0  0  0  0  0  0  0
   -5.4166   -0.5719    0.0000 C   0  0  0  0  0  0  0  0  0  0  0  0
   -5.5911    0.9179    0.0000 C   0  0  0  0  0  0  0  0  0  0  0  0
   -6.9685    1.5117    0.0000 O   0  0  0  0  0  0  0  0  0  0  0  0
   -4.3881    1.8139    0.0000 O   0  0  0  0  0  0  0  0  0  0  0  0
   -4.5626    3.3038    0.0000 C   0  0  0  0  0  0  0  0  0  0  0  0
   -5.9401    3.8975    0.0000 C   0  0  0  0  0  0  0  0  0  0  0  0
   -3.3596    4.1998    0.0000 C   0  0  0  0  0  0  0  0  0  0  0  0
   -3.5341    5.6896    0.0000 C   0  0  0  0  0  0  0  0  0  0  0  0
   -1.9822    3.6060    0.0000 C   0  0  0  0  0  0  0  0  0  0  0  0
   -1.8077    2.1162    0.0000 C   0  0  0  0  0  0  0  0  0  0  0  0
   -0.4302    1.5224    0.0000 C   0  0  0  0  0  0  0  0  0  0  0  0
   -0.2557    0.0326    0.0000 C   0  0  0  0  0  0  0  0  0  0  0  0
    1.1218   -0.5612    0.0000 C   0  0  0  0  0  0  0  0  0  0  0  0
    1.2962   -2.0510    0.0000 C   0  0  0  0  0  0  0  0  0  0  0  0
    0.0933   -2.9471    0.0000 Cl  0  0  0  0  0  0  0  0  0  0  0  0
    2.6737   -2.6448    0.0000 C   0  0  0  0  0  0  0  0  0  0  0  0
    2.8482   -4.1346    0.0000 O   0  0  0  0  0  0  0  0  0  0  0  0
    3.8767   -1.7488    0.0000 C   0  0  0  0  0  0  0  0  0  0  0  0
    4.2060   -3.2122    0.0000 C   0  0  0  0  0  0  0  0  0  0  0  0
    5.3475   -2.0432    0.0000 O   0  0  0  0  0  0  0  0  0  0  0  0
    6.0820   -0.7354    0.0000 C   0  0  0  0  0  0  0  0  0  0  0  0
    6.9781   -1.9383    0.0000 O   0  0  0  0  0  0  0  0  0  0  0  0
    7.5454   -0.4061    0.0000 C   0  0  0  0  0  0  0  0  0  0  0  0
    8.5623   -1.5088    0.0000 C   0  0  0  0  0  0  0  0  0  0  0  0
    7.9920    1.0259    0.0000 C   0  0  0  0  0  0  0  0  0  0  0  0
    9.4554    1.3551    0.0000 C   0  0  0  0  0  0  0  0  0  0  0  0
    6.9751    2.1286    0.0000 O   0  0  0  0  0  0  0  0  0  0  0  0
    5.5117    1.7993    0.0000 C   0  0  0  0  0  0  0  0  0  0  0  0
    4.4949    2.9021    0.0000 O   0  0  0  0  0  0  0  0  0  0  0  0
    5.0652    0.3673    0.0000 C   0  0  0  0  0  0  0  0  0  0  0  0
    3.7022   -0.2590    0.0000 C   0  0  0  0  0  0  0  0  0  0  0  0
    2.3247    0.3348    0.0000 C   0  0  0  0  0  0  0  0  0  0  0  0
    2.1502    1.8246    0.0000 C   0  0  0  0  0  0  0  0  0  0  0  0
    0.7728    2.4184    0.0000 O   0  0  0  0  0  0  0  0  0  0  0  0
   -6.6196   -1.4679    0.0000 C   0  0  0  0  0  0  0  0  0  0  0  0
   -7.9970   -0.8741    0.0000 C   0  0  0  0  0  0  0  0  0  0  0  0
   -9.2000   -1.7702    0.0000 C   0  0  0  0  0  0  0  0  0  0  0  0
   -9.0255   -3.2600    0.0000 C   0  0  0  0  0  0  0  0  0  0  0  0
   -7.6480   -3.8538    0.0000 C   0  0  0  0  0  0  0  0  0  0  0  0
   -6.4451   -2.9577    0.0000 C   0  0  0  0  0  0  0  0  0  0  0  0
  1  2  1  0
  3  2  1  1
  3  4  1  0
  4  5  2  0
  4  6  1  0
  6  7  1  0
  7  8  1  6
  7  9  1  0
  9 10  1  6
  9 11  1  0
 11 12  2  0
 12 13  1  0
 13 14  2  0
 14 15  1  0
 15 16  2  0
 16 17  1  0
 16 18  1  0
 18 19  2  0
 18 20  1  0
 20 21  1  1
 20 22  1  0
 22 23  1  0
 23 24  1  6
 23 25  1  0
 25 26  1  1
 25 27  1  0
 27 28  1  6
 27 29  1  0
 29 30  1  0
 30 31  2  0
 32 30  1  1
 32 33  1  0
 33 34  1  6
 34 35  2  0
 35 36  1  0
  3 37  1  0
 37 38  2  0
 38 39  1  0
 39 40  2  0
 40 41  1  0
 41 42  2  0
 36 13  1  0
 42 37  1  0
 34 15  1  0
 33 20  1  0
 32 23  1  0
M  END
>  <identifier>  (1208) 
CNP0182987.4

>  <canonical_smiles>  (1208) 
CO[C@H](C(=O)O[C@H](C)[C@H](C)/C=C/C1=CC2=C(Cl)C(=O)[C@@]3(C)O[C@]4(O)[C@H](C)[C@@H](C)OC(=O)[C@@H]4[C@H]3C2=CO1)C1=CC=CC=C1

>  <standard_inchi>  (1208) 
InChI=1S/C32H35ClO9/c1-16(18(3)40-30(36)27(38-6)20-10-8-7-9-11-20)12-13-21-14-22-23(15-39-21)24-25-29(35)41-19(4)17(2)32(25,37)42-31(24,5)28(34)26(22)33/h7-19,24-25,27,37H,1-6H3/b13-12+/t16-,17-,18-,19-,24-,25+,27+,31+,32-/m1/s1

>  <standard_inchi_key>  (1208) 
YGYZBXBBPDYHSJ-DERQYMCZSA-N

>  <name>  (1208) 
nan

>  <iupac_name>  (1208) 
[(~{E},1~{R},2~{R})-4-[(1~{S},10~{S},12~{R},13~{R},14~{R},17~{R})-8-chloro-12-hydroxy-10,13,14-trimethyl-9,16-dioxo-4,11,15-trioxatetracyclo[8.7.0.0^{2,7}.0^{12,17}]heptadeca-2,5,7-trien-5-yl]-1,2-dimethyl-but-3-enyl] (2~{S})-2-methoxy-2-phenyl-acetate

>  <annotation_level>  (1208) 
5

>  <total_atom_count>  (1208) 
77

>  <heavy_atom_count>  (1208) 
42

>  <molecular_weight>  (1208) 
599.08

>  <exact_molecular_weight>  (1208) 
598.19696

>  <molecular_formula>  (1208) 
C32H35ClO9

>  <alogp>  (1208) 
4.66

>  <topological_polar_surface_area>  (1208) 
117.59

>  <rotatable_bond_count>  (1208) 
7

>  <hydrogen_bond_acceptors>  (1208) 
9

>  <hydrogen_bond_donors>  (1208) 
1

>  <hydrogen_bond_acceptors_lipinski>  (1208) 
9

>  <hydrogen_bond_donors_lipinski>  (1208) 
1

>  <lipinski_rule_of_five_violations>  (1208) 
1

>  <aromatic_rings_count>  (1208) 
1

>  <qed_drug_likeliness>  (1208) 
0.45

>  <formal_charge>  (1208) 
0

>  <fractioncsp3>  (1208) 
0.47

>  <number_of_minimal_rings>  (1208) 
5

>  <van_der_walls_volume>  (1208) 
nan

>  <contains_sugar>  (1208) 
False

>  <contains_ring_sugars>  (1208) 
False

>  <contains_linear_sugars>  (1208) 
False

>  <murcko_framework>  (1208) 
O1C=C2C(C=C1C=CCCOCCc3ccccc3)=CCC4OC5CCOCC5C24

>  <np_likeness>  (1208) 
1.84

>  <chemical_class>  (1208) 
Benzene and substituted derivatives

>  <chemical_sub_class>  (1208) 
Benzylethers

>  <chemical_super_class>  (1208) 
Benzenoids

>  <direct_parent_classification>  (1208) 
Benzylethers

>  <np_classifier_pathway>  (1208) 
Polyketides

>  <np_classifier_superclass>  (1208) 
Chromanes

>  <np_classifier_class>  (1208) 
Azaphilones

>  <np_classifier_is_glycoside>  (1208) 
True

>  <organisms>  (1208) 
Chaetomium globosum

>  <collections>  (1208) 
NuBBEDB|WikiData Natural Products

>  <dois>  (1208) 
10.1021/NP200556P|10.1021/np200556p

>  <synonyms>  (1208) 
(S)-MPA-chaetoviridin D

>  <cas>  (1208) 
nan

$$$$

     RDKit          2D

 29 30  0  0  0  0  0  0  0  0999 V2000
   -3.8820   -3.8666    0.0000 C   0  0  0  0  0  0  0  0  0  0  0  0
   -5.1576   -3.0775    0.0000 C   0  0  0  0  0  0  0  0  0  0  0  0
   -6.4788   -3.7877    0.0000 O   0  0  0  0  0  0  0  0  0  0  0  0
   -5.1121   -1.5782    0.0000 O   0  0  0  0  0  0  0  0  0  0  0  0
   -6.3877   -0.7891    0.0000 C   0  0  0  0  0  0  0  0  0  0  0  0
   -7.7089   -1.4993    0.0000 C   0  0  0  0  0  0  0  0  0  0  0  0
   -8.9846   -0.7102    0.0000 C   0  0  0  0  0  0  0  0  0  0  0  0
   -8.9390    0.7891    0.0000 C   0  0  0  0  0  0  0  0  0  0  0  0
   -7.6178    1.4993    0.0000 C   0  0  0  0  0  0  0  0  0  0  0  0
   -7.5723    2.9986    0.0000 O   0  0  0  0  0  0  0  0  0  0  0  0
   -6.3422    0.7102    0.0000 C   0  0  0  0  0  0  0  0  0  0  0  0
   -5.0209    1.4204    0.0000 C   0  0  0  0  0  0  0  0  0  0  0  0
   -4.9754    2.9197    0.0000 O   0  0  0  0  0  0  0  0  0  0  0  0
   -3.7453    0.6313    0.0000 C   0  0  0  0  0  0  0  0  0  0  0  0
   -2.4241    1.3415    0.0000 C   0  0  0  0  0  0  0  0  0  0  0  0
   -1.1484    0.5524    0.0000 C   0  0  0  0  0  0  0  0  0  0  0  0
    0.1728    1.2626    0.0000 C   0  0  0  0  0  0  0  0  0  0  0  0
    1.4485    0.4735    0.0000 C   0  0  0  0  0  0  0  0  0  0  0  0
    2.7697    1.1837    0.0000 C   0  0  0  0  0  0  0  0  0  0  0  0
    4.0453    0.3946    0.0000 C   0  0  0  0  0  0  0  0  0  0  0  0
    5.3666    1.1048    0.0000 C   0  0  0  0  0  0  0  0  0  0  0  0
    6.6422    0.3156    0.0000 C   0  0  0  0  0  0  0  0  0  0  0  0
    7.9634    1.0258    0.0000 C   0  0  0  0  0  0  0  0  0  0  0  0
    9.2391    0.2367    0.0000 C   0  0  0  0  0  0  0  0  0  0  0  0
    9.1935   -1.2626    0.0000 C   0  0  0  0  0  0  0  0  0  0  0  0
   10.4692   -2.0517    0.0000 C   0  0  0  0  0  0  0  0  0  0  0  0
   11.7904   -1.3415    0.0000 C   0  0  0  0  0  0  0  0  0  0  0  0
   11.8360    0.1578    0.0000 C   0  0  0  0  0  0  0  0  0  0  0  0
   10.5603    0.9469    0.0000 C   0  0  0  0  0  0  0  0  0  0  0  0
  1  2  1  0
  2  3  2  0
  2  4  1  0
  4  5  1  0
  5  6  2  0
  6  7  1  0
  7  8  2  0
  8  9  1  0
  9 10  1  0
  9 11  2  0
 11 12  1  0
 12 13  2  0
 12 14  1  0
 14 15  1  0
 15 16  1  0
 16 17  1  0
 17 18  1  0
 18 19  1  0
 19 20  1  0
 20 21  1  0
 21 22  1  0
 22 23  1  0
 23 24  1  0
 24 25  2  0
 25 26  1  0
 26 27  2  0
 27 28  1  0
 28 29  2  0
 11  5  1  0
 29 24  1  0
M  END
>  <identifier>  (1209) 
CNP0080368.0

>  <canonical_smiles>  (1209) 
CC(=O)OC1=CC=CC(O)=C1C(=O)CCCCCCCCCCC1=CC=CC=C1

>  <standard_inchi>  (1209) 
InChI=1S/C25H32O4/c1-20(26)29-24-19-13-18-23(28)25(24)22(27)17-12-7-5-3-2-4-6-9-14-21-15-10-8-11-16-21/h8,10-11,13,15-16,18-19,28H,2-7,9,12,14,17H2,1H3

>  <standard_inchi_key>  (1209) 
BTXOOLBNFSRLHY-UHFFFAOYSA-N

>  <name>  (1209) 
nan

>  <iupac_name>  (1209) 
[3-hydroxy-2-(11-phenylundecanoyl)phenyl] acetate

>  <annotation_level>  (1209) 
3

>  <total_atom_count>  (1209) 
61

>  <heavy_atom_count>  (1209) 
29

>  <molecular_weight>  (1209) 
396.53

>  <exact_molecular_weight>  (1209) 
396.23006

>  <molecular_formula>  (1209) 
C25H32O4

>  <alogp>  (1209) 
6.25

>  <topological_polar_surface_area>  (1209) 
63.60

>  <rotatable_bond_count>  (1209) 
13

>  <hydrogen_bond_acceptors>  (1209) 
4

>  <hydrogen_bond_donors>  (1209) 
1

>  <hydrogen_bond_acceptors_lipinski>  (1209) 
4

>  <hydrogen_bond_donors_lipinski>  (1209) 
1

>  <lipinski_rule_of_five_violations>  (1209) 
1

>  <aromatic_rings_count>  (1209) 
2

>  <qed_drug_likeliness>  (1209) 
0.19

>  <formal_charge>  (1209) 
0

>  <fractioncsp3>  (1209) 
0.44

>  <number_of_minimal_rings>  (1209) 
2

>  <van_der_walls_volume>  (1209) 
nan

>  <contains_sugar>  (1209) 
False

>  <contains_ring_sugars>  (1209) 
False

>  <contains_linear_sugars>  (1209) 
False

>  <murcko_framework>  (1209) 
c1ccc(cc1)CCCCCCCCCCCc2ccccc2

>  <np_likeness>  (1209) 
0.50

>  <chemical_class>  (1209) 
Organooxygen compounds

>  <chemical_sub_class>  (1209) 
Carbonyl compounds

>  <chemical_super_class>  (1209) 
Organic oxygen compounds

>  <direct_parent_classification>  (1209) 
Alkyl-phenylketones

>  <np_classifier_pathway>  (1209) 
Polyketides

>  <np_classifier_superclass>  (1209) 
Aromatic polyketides

>  <np_classifier_class>  (1209) 
Catechols with side chains

>  <np_classifier_is_glycoside>  (1209) 
False

>  <organisms>  (1209) 
Virola sebifera

>  <collections>  (1209) 
Latin America dataset|NuBBEDB|WikiData Natural Products|ZINC NP

>  <dois>  (1209) 
10.1016/0031-9422(82)83181-6

>  <synonyms>  (1209) 
nan

>  <cas>  (1209) 
nan

$$$$

     RDKit          2D

 46 51  0  0  0  0  0  0  0  0999 V2000
    5.5530    4.3822    0.0000 C   0  0  0  0  0  0  0  0  0  0  0  0
    4.2388    3.6590    0.0000 O   0  0  0  0  0  0  0  0  0  0  0  0
    4.2081    2.1593    0.0000 C   0  0  0  0  0  0  0  0  0  0  0  0
    2.8939    1.4361    0.0000 C   0  0  0  0  0  0  0  0  0  0  0  0
    1.6105    2.2126    0.0000 C   0  0  0  0  0  0  0  0  0  0  0  0
    1.6413    3.7123    0.0000 C   0  0  0  0  0  0  0  0  0  0  0  0
    0.3579    4.4888    0.0000 C   0  0  0  0  0  0  0  0  0  0  0  0
   -0.9562    3.7656    0.0000 C   0  0  0  0  0  0  0  0  0  0  0  0
   -2.2396    4.5421    0.0000 O   0  0  0  0  0  0  0  0  0  0  0  0
   -0.9870    2.2660    0.0000 C   0  0  0  0  0  0  0  0  0  0  0  0
   -2.3012    1.5428    0.0000 O   0  0  0  0  0  0  0  0  0  0  0  0
    0.2964    1.4895    0.0000 C   0  0  0  0  0  0  0  0  0  0  0  0
    0.2656   -0.0102    0.0000 C   0  0  0  0  0  0  0  0  0  0  0  0
    1.5490   -0.7867    0.0000 C   0  0  0  0  0  0  0  0  0  0  0  0
    2.3196   -0.5828    0.0000 O   0  0  0  0  0  0  0  0  0  0  0  0
    1.5182   -2.2864    0.0000 C   0  0  0  0  0  0  0  0  0  0  0  0
    0.2040   -3.0096    0.0000 C   0  0  0  0  0  0  0  0  0  0  0  0
    0.1732   -4.5093    0.0000 O   0  0  0  0  0  0  0  0  0  0  0  0
   -1.0794   -2.2331    0.0000 C   0  0  0  0  0  0  0  0  0  0  0  0
   -1.0486   -0.7334    0.0000 C   0  0  0  0  0  0  0  0  0  0  0  0
   -2.3319    0.0431    0.0000 O   0  0  0  0  0  0  0  0  0  0  0  0
   -3.6461   -0.6801    0.0000 C   0  0  0  0  0  0  0  0  0  0  0  0
   -4.9295    0.0964    0.0000 C   0  0  0  0  0  0  0  0  0  0  0  0
   -4.8987    1.5961    0.0000 C   0  0  0  0  0  0  0  0  0  0  0  0
   -6.1821    2.3726    0.0000 C   0  0  0  0  0  0  0  0  0  0  0  0
   -7.4962    1.6494    0.0000 C   0  0  0  0  0  0  0  0  0  0  0  0
   -8.7796    2.4259    0.0000 O   0  0  0  0  0  0  0  0  0  0  0  0
   -7.5270    0.1497    0.0000 C   0  0  0  0  0  0  0  0  0  0  0  0
   -8.8412   -0.5734    0.0000 O   0  0  0  0  0  0  0  0  0  0  0  0
   -6.2436   -0.6268    0.0000 C   0  0  0  0  0  0  0  0  0  0  0  0
   -3.6769   -2.1798    0.0000 C   0  0  0  0  0  0  0  0  0  0  0  0
   -4.9910   -2.9030    0.0000 O   0  0  0  0  0  0  0  0  0  0  0  0
   -5.0218   -4.4026    0.0000 C   0  0  0  0  0  0  0  0  0  0  0  0
   -2.3935   -2.9563    0.0000 C   0  0  0  0  0  0  0  0  0  0  0  0
   -2.4243   -4.4560    0.0000 O   0  0  0  0  0  0  0  0  0  0  0  0
    2.8631   -0.0636    0.0000 O   0  0  0  0  0  0  0  0  0  0  0  0
    4.1465   -0.8401    0.0000 C   0  0  0  0  0  0  0  0  0  0  0  0
    4.1157   -2.3397    0.0000 C   0  0  0  0  0  0  0  0  0  0  0  0
    5.3991   -3.1162    0.0000 C   0  0  0  0  0  0  0  0  0  0  0  0
    5.3683   -4.6159    0.0000 O   0  0  0  0  0  0  0  0  0  0  0  0
    6.7132   -2.3931    0.0000 C   0  0  0  0  0  0  0  0  0  0  0  0
    6.7440   -0.8934    0.0000 C   0  0  0  0  0  0  0  0  0  0  0  0
    8.0582   -0.1702    0.0000 O   0  0  0  0  0  0  0  0  0  0  0  0
    5.4606   -0.1169    0.0000 C   0  0  0  0  0  0  0  0  0  0  0  0
    5.4914    1.3828    0.0000 C   0  0  0  0  0  0  0  0  0  0  0  0
    6.8056    2.1060    0.0000 O   0  0  0  0  0  0  0  0  0  0  0  0
  1  2  1  0
  2  3  1  0
  3  4  2  0
  4  5  1  0
  5  6  2  0
  6  7  1  0
  7  8  2  0
  8  9  1  0
  8 10  1  0
 10 11  1  0
 10 12  2  0
 12 13  1  0
 13 14  2  0
 14 15  1  0
 14 16  1  0
 16 17  2  0
 17 18  1  0
 17 19  1  0
 19 20  2  0
 20 21  1  0
 21 22  1  0
 22 23  1  0
 23 24  2  0
 24 25  1  0
 25 26  2  0
 26 27  1  0
 26 28  1  0
 28 29  1  0
 28 30  2  0
 22 31  2  0
 31 32  1  0
 32 33  1  0
 31 34  1  0
 34 35  2  0
  4 36  1  0
 36 37  1  0
 37 38  2  0
 38 39  1  0
 39 40  1  0
 39 41  2  0
 41 42  1  0
 42 43  1  0
 42 44  2  0
 44 45  1  0
 45 46  2  0
 45  3  1  0
 12  5  1  0
 20 13  1  0
 30 23  1  0
 44 37  1  0
 34 19  1  0
M  END
>  <identifier>  (1210) 
CNP0215687.0

>  <canonical_smiles>  (1210) 
COC1=C(C2=CC=C(O)C(O)=C2C2=C(O)C=C(O)C3=C2OC(C2=CC=C(O)C(O)=C2)=C(OC)C3=O)OC2=CC(O)=CC(O)=C2C1=O

>  <standard_inchi>  (1210) 
InChI=1S/C32H22O14/c1-43-31-27(42)24-19(39)10-18(38)23(30(24)46-28(31)11-3-5-14(34)16(36)7-11)21-13(4-6-15(35)25(21)40)29-32(44-2)26(41)22-17(37)8-12(33)9-20(22)45-29/h3-10,33-40H,1-2H3

>  <standard_inchi_key>  (1210) 
HCKBBCZNQQSLQT-UHFFFAOYSA-N

>  <name>  (1210) 
Strychnobiflavone

>  <iupac_name>  (1210) 
8-[6-(5,7-dihydroxy-3-methoxy-4-oxo-chromen-2-yl)-2,3-dihydroxy-phenyl]-2-(3,4-dihydroxyphenyl)-5,7-dihydroxy-3-methoxy-chromen-4-one

>  <annotation_level>  (1210) 
5

>  <total_atom_count>  (1210) 
68

>  <heavy_atom_count>  (1210) 
46

>  <molecular_weight>  (1210) 
630.51

>  <exact_molecular_weight>  (1210) 
630.10096

>  <molecular_formula>  (1210) 
C32H22O14

>  <alogp>  (1210) 
4.56

>  <topological_polar_surface_area>  (1210) 
240.72

>  <rotatable_bond_count>  (1210) 
5

>  <hydrogen_bond_acceptors>  (1210) 
14

>  <hydrogen_bond_donors>  (1210) 
8

>  <hydrogen_bond_acceptors_lipinski>  (1210) 
14

>  <hydrogen_bond_donors_lipinski>  (1210) 
8

>  <lipinski_rule_of_five_violations>  (1210) 
3

>  <aromatic_rings_count>  (1210) 
6

>  <qed_drug_likeliness>  (1210) 
0.12

>  <formal_charge>  (1210) 
0

>  <fractioncsp3>  (1210) 
0.06

>  <number_of_minimal_rings>  (1210) 
6

>  <van_der_walls_volume>  (1210) 
501.40

>  <contains_sugar>  (1210) 
False

>  <contains_ring_sugars>  (1210) 
False

>  <contains_linear_sugars>  (1210) 
False

>  <murcko_framework>  (1210) 
O1c2ccccc2CC=C1c3ccccc3-c4cccc5c4OC(=CC5)c6ccccc6

>  <np_likeness>  (1210) 
1.45

>  <chemical_class>  (1210) 
Flavonoids

>  <chemical_sub_class>  (1210) 
O-methylated flavonoids

>  <chemical_super_class>  (1210) 
Phenylpropanoids and polyketides

>  <direct_parent_classification>  (1210) 
3-O-methylated flavonoids

>  <np_classifier_pathway>  (1210) 
Shikimates and Phenylpropanoids

>  <np_classifier_superclass>  (1210) 
Flavonoids

>  <np_classifier_class>  (1210) 
Flavonols

>  <np_classifier_is_glycoside>  (1210) 
False

>  <organisms>  (1210) 
Attagenus elongatulus|Phora gregaria|Pulicaria mauritanica|Spiranthes sinensis|Strychnos pseudoquina|Trianthema portulacastrum|Vatica oblongifolia|Verbena stricta|Vernonia fasciculata

>  <collections>  (1210) 
KNApSaCK|Latin America dataset|NPASS|NPEdia|NuBBEDB|UNPD (Universal Natural Products Database)|WikiData Natural Products|ZINC NP

>  <dois>  (1210) 
10.1021/NP50036A007|10.1021/np50036a007

>  <synonyms>  (1210) 
8-[6-(5,7-dihydroxy-3-methoxy-4-oxochromen-2-yl)-2,3-dihydroxyphenyl]-2-(3,4-dihydroxyphenyl)-5,7-dihydroxy-3-methoxychromen-4-one|96253-81-5|DTXSID40242184|Strychnobiflavone

>  <cas>  (1210) 
96253-81-5

$$$$

     RDKit          2D

 34 34  0  0  0  0  0  0  0  0999 V2000
  -19.8154    0.2697    0.0000 C   0  0  0  0  0  0  0  0  0  0  0  0
  -18.4705    0.9340    0.0000 C   0  0  0  0  0  0  0  0  0  0  0  0
  -17.2228    0.1014    0.0000 C   0  0  0  0  0  0  0  0  0  0  0  0
  -15.8779    0.7656    0.0000 C   0  0  0  0  0  0  0  0  0  0  0  0
  -14.6302   -0.0670    0.0000 C   0  0  0  0  0  0  0  0  0  0  0  0
  -13.2853    0.5973    0.0000 C   0  0  0  0  0  0  0  0  0  0  0  0
  -12.0375   -0.2353    0.0000 C   0  0  0  0  0  0  0  0  0  0  0  0
  -10.6926    0.4290    0.0000 C   0  0  0  0  0  0  0  0  0  0  0  0
   -9.4449   -0.4036    0.0000 C   0  0  0  0  0  0  0  0  0  0  0  0
   -8.1000    0.2606    0.0000 C   0  0  0  0  0  0  0  0  0  0  0  0
   -6.8523   -0.5719    0.0000 C   0  0  0  0  0  0  0  0  0  0  0  0
   -5.5074    0.0923    0.0000 C   0  0  0  0  0  0  0  0  0  0  0  0
   -4.2597   -0.7403    0.0000 C   0  0  0  0  0  0  0  0  0  0  0  0
   -2.9148   -0.0760    0.0000 C   0  0  0  0  0  0  0  0  0  0  0  0
   -1.6671   -0.9086    0.0000 C   0  0  0  0  0  0  0  0  0  0  0  0
   -0.3222   -0.2443    0.0000 C   0  0  0  0  0  0  0  0  0  0  0  0
    0.9256   -1.0769    0.0000 C   0  0  0  0  0  0  0  0  0  0  0  0
    2.2705   -0.4127    0.0000 C   0  0  0  0  0  0  0  0  0  0  0  0
    2.3676    1.0842    0.0000 O   0  0  0  0  0  0  0  0  0  0  0  0
    3.5182   -1.2453    0.0000 O   0  0  0  0  0  0  0  0  0  0  0  0
    4.8631   -0.5810    0.0000 C   0  0  0  0  0  0  0  0  0  0  0  0
    6.1108   -1.4136    0.0000 C   0  0  0  0  0  0  0  0  0  0  0  0
    7.4557   -0.7493    0.0000 C   0  0  0  0  0  0  0  0  0  0  0  0
    7.5529    0.7475    0.0000 C   0  0  0  0  0  0  0  0  0  0  0  0
    8.8978    1.4118    0.0000 C   0  0  0  0  0  0  0  0  0  0  0  0
   10.1455    0.5792    0.0000 C   0  0  0  0  0  0  0  0  0  0  0  0
   11.4904    1.2434    0.0000 O   0  0  0  0  0  0  0  0  0  0  0  0
   12.7381    0.4109    0.0000 C   0  0  0  0  0  0  0  0  0  0  0  0
   14.0830    1.0751    0.0000 C   0  0  0  0  0  0  0  0  0  0  0  0
   15.3307    0.2425    0.0000 C   0  0  0  0  0  0  0  0  0  0  0  0
   16.6756    0.9068    0.0000 C   0  0  0  0  0  0  0  0  0  0  0  0
   17.9233    0.0742    0.0000 C   0  0  0  0  0  0  0  0  0  0  0  0
   10.0483   -0.9177    0.0000 C   0  0  0  0  0  0  0  0  0  0  0  0
    8.7034   -1.5819    0.0000 C   0  0  0  0  0  0  0  0  0  0  0  0
  1  2  1  0
  2  3  1  0
  3  4  1  0
  4  5  1  0
  5  6  1  0
  6  7  1  0
  7  8  1  0
  8  9  1  0
  9 10  1  0
 10 11  1  0
 11 12  1  0
 12 13  1  0
 13 14  1  0
 14 15  1  0
 15 16  1  0
 16 17  1  0
 17 18  1  0
 18 19  2  0
 18 20  1  0
 20 21  1  0
 21 22  1  0
 22 23  1  0
 23 24  2  0
 24 25  1  0
 25 26  2  0
 26 27  1  0
 27 28  1  0
 28 29  1  0
 29 30  1  0
 30 31  1  0
 31 32  1  0
 26 33  1  0
 33 34  2  0
 34 23  1  0
M  END
>  <identifier>  (1211) 
CNP0080335.0

>  <canonical_smiles>  (1211) 
CCCCCCCCCCCCCCCCCC(=O)OCCC1=CC=C(OCCCCC)C=C1

>  <standard_inchi>  (1211) 
InChI=1S/C31H54O3/c1-3-5-7-8-9-10-11-12-13-14-15-16-17-18-19-21-31(32)34-28-26-29-22-24-30(25-23-29)33-27-20-6-4-2/h22-25H,3-21,26-28H2,1-2H3

>  <standard_inchi_key>  (1211) 
YGBGLFDDABDVMD-UHFFFAOYSA-N

>  <name>  (1211) 
nan

>  <iupac_name>  (1211) 
2-(4-pentoxyphenyl)ethyl octadecanoate

>  <annotation_level>  (1211) 
5

>  <total_atom_count>  (1211) 
88

>  <heavy_atom_count>  (1211) 
34

>  <molecular_weight>  (1211) 
474.77

>  <exact_molecular_weight>  (1211) 
474.4073

>  <molecular_formula>  (1211) 
C31H54O3

>  <alogp>  (1211) 
9.60

>  <topological_polar_surface_area>  (1211) 
35.53

>  <rotatable_bond_count>  (1211) 
24

>  <hydrogen_bond_acceptors>  (1211) 
3

>  <hydrogen_bond_donors>  (1211) 
0

>  <hydrogen_bond_acceptors_lipinski>  (1211) 
3

>  <hydrogen_bond_donors_lipinski>  (1211) 
0

>  <lipinski_rule_of_five_violations>  (1211) 
1

>  <aromatic_rings_count>  (1211) 
1

>  <qed_drug_likeliness>  (1211) 
0.11

>  <formal_charge>  (1211) 
0

>  <fractioncsp3>  (1211) 
0.77

>  <number_of_minimal_rings>  (1211) 
1

>  <van_der_walls_volume>  (1211) 
519.27

>  <contains_sugar>  (1211) 
False

>  <contains_ring_sugars>  (1211) 
False

>  <contains_linear_sugars>  (1211) 
False

>  <murcko_framework>  (1211) 
c1ccccc1

>  <np_likeness>  (1211) 
-0.04

>  <chemical_class>  (1211) 
Phenols

>  <chemical_sub_class>  (1211) 
Tyrosols and derivatives

>  <chemical_super_class>  (1211) 
Benzenoids

>  <direct_parent_classification>  (1211) 
Tyrosols and derivatives

>  <np_classifier_pathway>  (1211) 
nan

>  <np_classifier_superclass>  (1211) 
nan

>  <np_classifier_class>  (1211) 
nan

>  <np_classifier_is_glycoside>  (1211) 
False

>  <organisms>  (1211) 
Stemodia foliosa

>  <collections>  (1211) 
ChemSpider NPs|Latin America dataset|NuBBEDB|Super Natural II|WikiData Natural Products|ZINC NP

>  <dois>  (1211) 
10.1055/S-2002-36346|10.1055/s-2002-36346

>  <synonyms>  (1211) 
Stearic acid 4-pentoyloxyphenethyl ester

>  <cas>  (1211) 
nan

$$$$

     RDKit          2D

 18 19  0  0  0  0  0  0  0  0999 V2000
   -4.5866   -1.0377    0.0000 C   0  0  0  0  0  0  0  0  0  0  0  0
   -4.6476    0.4611    0.0000 C   0  0  0  0  0  0  0  0  0  0  0  0
   -4.7085    1.9599    0.0000 C   0  0  0  0  0  0  0  0  0  0  0  0
   -6.1463    0.4002    0.0000 O   0  0  0  0  0  0  0  0  0  0  0  0
   -3.1488    0.5220    0.0000 C   0  0  0  0  0  0  0  0  0  0  0  0
   -2.3467   -0.7455    0.0000 C   0  0  0  0  0  0  0  0  0  0  0  0
   -0.8479   -0.6845    0.0000 C   0  0  0  0  0  0  0  0  0  0  0  0
   -0.0457   -1.9520    0.0000 C   0  0  0  0  0  0  0  0  0  0  0  0
    1.4530   -1.8911    0.0000 C   0  0  0  0  0  0  0  0  0  0  0  0
    2.2552   -3.1586    0.0000 O   0  0  0  0  0  0  0  0  0  0  0  0
    2.1496   -0.5627    0.0000 C   0  0  0  0  0  0  0  0  0  0  0  0
    3.6484   -0.5017    0.0000 C   0  0  0  0  0  0  0  0  0  0  0  0
    4.3450    0.8267    0.0000 C   0  0  0  0  0  0  0  0  0  0  0  0
    5.8438    0.8876    0.0000 O   0  0  0  0  0  0  0  0  0  0  0  0
    3.5429    2.0942    0.0000 C   0  0  0  0  0  0  0  0  0  0  0  0
    2.0441    2.0333    0.0000 C   0  0  0  0  0  0  0  0  0  0  0  0
    1.3475    0.7048    0.0000 C   0  0  0  0  0  0  0  0  0  0  0  0
   -0.1513    0.6439    0.0000 N   0  0  0  0  0  0  0  0  0  0  0  0
  1  2  1  0
  2  3  1  0
  2  4  1  0
  2  5  1  0
  5  6  1  0
  6  7  1  0
  7  8  2  0
  8  9  1  0
  9 10  2  0
  9 11  1  0
 11 12  2  0
 12 13  1  0
 13 14  1  0
 13 15  2  0
 15 16  1  0
 16 17  2  0
 17 18  1  0
 18  7  1  0
 17 11  1  0
M  END
>  <identifier>  (1212) 
CNP0412866.0

>  <canonical_smiles>  (1212) 
CC(C)(O)CCC1=CC(=O)C2=CC(O)=CC=C2N1

>  <standard_inchi>  (1212) 
InChI=1S/C14H17NO3/c1-14(2,18)6-5-9-7-13(17)11-8-10(16)3-4-12(11)15-9/h3-4,7-8,16,18H,5-6H2,1-2H3,(H,15,17)

>  <standard_inchi_key>  (1212) 
ZMLVZOLWYXOOAB-UHFFFAOYSA-N

>  <name>  (1212) 
nan

>  <iupac_name>  (1212) 
6-hydroxy-2-(3-hydroxy-3-methyl-butyl)-1~{H}-quinolin-4-one

>  <annotation_level>  (1212) 
4

>  <total_atom_count>  (1212) 
35

>  <heavy_atom_count>  (1212) 
18

>  <molecular_weight>  (1212) 
247.29

>  <exact_molecular_weight>  (1212) 
247.12084

>  <molecular_formula>  (1212) 
C14H17NO3

>  <alogp>  (1212) 
1.94

>  <topological_polar_surface_area>  (1212) 
73.32

>  <rotatable_bond_count>  (1212) 
3

>  <hydrogen_bond_acceptors>  (1212) 
3

>  <hydrogen_bond_donors>  (1212) 
3

>  <hydrogen_bond_acceptors_lipinski>  (1212) 
3

>  <hydrogen_bond_donors_lipinski>  (1212) 
3

>  <lipinski_rule_of_five_violations>  (1212) 
0

>  <aromatic_rings_count>  (1212) 
2

>  <qed_drug_likeliness>  (1212) 
0.78

>  <formal_charge>  (1212) 
0

>  <fractioncsp3>  (1212) 
0.36

>  <number_of_minimal_rings>  (1212) 
2

>  <van_der_walls_volume>  (1212) 
nan

>  <contains_sugar>  (1212) 
False

>  <contains_ring_sugars>  (1212) 
False

>  <contains_linear_sugars>  (1212) 
False

>  <murcko_framework>  (1212) 
c1ccc2c(c1)NC=CC2

>  <np_likeness>  (1212) 
1.01

>  <chemical_class>  (1212) 
Quinolines and derivatives

>  <chemical_sub_class>  (1212) 
Hydroxyquinolines

>  <chemical_super_class>  (1212) 
Organoheterocyclic compounds

>  <direct_parent_classification>  (1212) 
Hydroxyquinolines

>  <np_classifier_pathway>  (1212) 
Alkaloids

>  <np_classifier_superclass>  (1212) 
Tryptophan alkaloids

>  <np_classifier_class>  (1212) 
Acridone alkaloids

>  <np_classifier_is_glycoside>  (1212) 
False

>  <organisms>  (1212) 
Sohnreyia excelsa|Spathelia excelsa

>  <collections>  (1212) 
Latin America dataset|NuBBEDB|TCMDB-Taiwan (Traditional Chinese Medicine database)|TCMID (Traditional Chinese Medicine Integrated Database)|UNPD (Universal Natural Products Database)|WikiData Natural Products|ZINC NP

>  <dois>  (1212) 
10.1016/J.PHYTOCHEM.2005.05.019|10.1016/j.phytochem.2005.05.019

>  <synonyms>  (1212) 
6-hydroxy-2-(3-hydroxy-3- methylbutyl)-4-quinolone

>  <cas>  (1212) 
nan

$$$$

     RDKit          2D

 24 27  0  0  0  0  0  0  0  0999 V2000
    0.3929   -2.5142    0.0000 C   0  0  0  0  0  0  0  0  0  0  0  0
    0.8999   -1.1025    0.0000 N   0  0  0  0  0  0  0  0  0  0  0  0
    2.3760   -0.8357    0.0000 C   0  0  0  0  0  0  0  0  0  0  0  0
    3.3450   -1.9807    0.0000 C   0  0  0  0  0  0  0  0  0  0  0  0
    2.8380   -3.3924    0.0000 O   0  0  0  0  0  0  0  0  0  0  0  0
    4.8211   -1.7139    0.0000 C   0  0  0  0  0  0  0  0  0  0  0  0
    5.3282   -0.3022    0.0000 C   0  0  0  0  0  0  0  0  0  0  0  0
    4.3591    0.8427    0.0000 C   0  0  0  0  0  0  0  0  0  0  0  0
    2.8830    0.5760    0.0000 C   0  0  0  0  0  0  0  0  0  0  0  0
    1.9140    1.7210    0.0000 C   0  0  0  0  0  0  0  0  0  0  0  0
    2.4210    3.1327    0.0000 O   0  0  0  0  0  0  0  0  0  0  0  0
    0.4379    1.4542    0.0000 C   0  0  0  0  0  0  0  0  0  0  0  0
   -0.5312    2.5992    0.0000 C   0  0  0  0  0  0  0  0  0  0  0  0
   -0.0241    4.0109    0.0000 O   0  0  0  0  0  0  0  0  0  0  0  0
   -2.0073    2.3324    0.0000 C   0  0  0  0  0  0  0  0  0  0  0  0
   -2.5143    0.9207    0.0000 C   0  0  0  0  0  0  0  0  0  0  0  0
   -3.9904    0.6540    0.0000 O   0  0  0  0  0  0  0  0  0  0  0  0
   -4.4974   -0.7577    0.0000 C   0  0  0  0  0  0  0  0  0  0  0  0
   -5.4567   -1.9109    0.0000 C   0  0  0  0  0  0  0  0  0  0  0  0
   -5.7996   -0.0133    0.0000 C   0  0  0  0  0  0  0  0  0  0  0  0
   -3.5284   -1.9027    0.0000 C   0  0  0  0  0  0  0  0  0  0  0  0
   -2.0523   -1.6359    0.0000 C   0  0  0  0  0  0  0  0  0  0  0  0
   -1.5452   -0.2242    0.0000 C   0  0  0  0  0  0  0  0  0  0  0  0
   -0.0692    0.0425    0.0000 C   0  0  0  0  0  0  0  0  0  0  0  0
  1  2  1  0
  2  3  1  0
  3  4  2  0
  4  5  1  0
  4  6  1  0
  6  7  2  0
  7  8  1  0
  8  9  2  0
  9 10  1  0
 10 11  2  0
 10 12  1  0
 12 13  2  0
 13 14  1  0
 13 15  1  0
 15 16  2  0
 16 17  1  0
 17 18  1  0
 18 19  1  0
 18 20  1  0
 18 21  1  0
 21 22  2  0
 22 23  1  0
 23 24  2  0
 24  2  1  0
  9  3  1  0
 24 12  1  0
 23 16  1  0
M  END
>  <identifier>  (1213) 
CNP0359913.0

>  <canonical_smiles>  (1213) 
CN1C2=C(O)C=CC=C2C(=O)C2=C(O)C=C3OC(C)(C)C=CC3=C21

>  <standard_inchi>  (1213) 
InChI=1S/C19H17NO4/c1-19(2)8-7-10-14(24-19)9-13(22)15-17(10)20(3)16-11(18(15)23)5-4-6-12(16)21/h4-9,21-22H,1-3H3

>  <standard_inchi_key>  (1213) 
JZQDCDLYNFZBIG-UHFFFAOYSA-N

>  <name>  (1213) 
11-Hydroxynoracronycine

>  <iupac_name>  (1213) 
6,11-dihydroxy-3,3,12-trimethyl-pyrano[2,3-c]acridin-7-one

>  <annotation_level>  (1213) 
5

>  <total_atom_count>  (1213) 
41

>  <heavy_atom_count>  (1213) 
24

>  <molecular_weight>  (1213) 
323.35

>  <exact_molecular_weight>  (1213) 
323.11576

>  <molecular_formula>  (1213) 
C19H17NO4

>  <alogp>  (1213) 
3.29

>  <topological_polar_surface_area>  (1213) 
71.69

>  <rotatable_bond_count>  (1213) 
0

>  <hydrogen_bond_acceptors>  (1213) 
5

>  <hydrogen_bond_donors>  (1213) 
2

>  <hydrogen_bond_acceptors_lipinski>  (1213) 
5

>  <hydrogen_bond_donors_lipinski>  (1213) 
2

>  <lipinski_rule_of_five_violations>  (1213) 
0

>  <aromatic_rings_count>  (1213) 
3

>  <qed_drug_likeliness>  (1213) 
0.62

>  <formal_charge>  (1213) 
0

>  <fractioncsp3>  (1213) 
0.21

>  <number_of_minimal_rings>  (1213) 
4

>  <van_der_walls_volume>  (1213) 
276.94

>  <contains_sugar>  (1213) 
False

>  <contains_ring_sugars>  (1213) 
False

>  <contains_linear_sugars>  (1213) 
False

>  <murcko_framework>  (1213) 
O1c2ccc3c(Nc4ccccc4C3)c2C=CC1

>  <np_likeness>  (1213) 
2.26

>  <chemical_class>  (1213) 
Quinolines and derivatives

>  <chemical_sub_class>  (1213) 
Benzoquinolines

>  <chemical_super_class>  (1213) 
Organoheterocyclic compounds

>  <direct_parent_classification>  (1213) 
Acridones

>  <np_classifier_pathway>  (1213) 
Alkaloids

>  <np_classifier_superclass>  (1213) 
Anthranilic acid alkaloids

>  <np_classifier_class>  (1213) 
Acridone alkaloids

>  <np_classifier_is_glycoside>  (1213) 
False

>  <organisms>  (1213) 
Atalantia ceylanica|Citropsis articulata|Citrus depressa|Citrus funadoko|Citrus grandis|Citrus nobilis|Citrus reticulata|Citrus sulcata|Citrus × deliciosa|Clematis flammula|Gentiana lactea|Glycosmis citrifolia|Glycosmis parviflora|Hortia arborea|Korolkowia sewerzowi|Pleiospermium alatum|Swinglea glutinosa|pomelo

>  <collections>  (1213) 
CMAUP (cCollective molecular activities of useful plants)|ChEBI NPs|Latin America dataset|NPASS|NuBBEDB|Super Natural II|UNPD (Universal Natural Products Database)|WikiData Natural Products

>  <dois>  (1213) 
10.1002/JCCS.200500180|10.1016/0031-9422(90)89054-D|10.1016/J.BMC.2010.12.056|10.1016/S0031-9422(00)84044-3|10.1016/S0031-9422(00)84608-7|10.1021/JF902561C|10.1021/NP0005762|10.1021/NP2004825|10.1039/P19730001173|10.1039/P19830001681|10.1055/S-2005-837758|10.1080/14786410600907002|10.1248/CPB.39.2509|10.3987/R-1982-02-0273

>  <synonyms>  (1213) 
11-Hydroxy-O-demethylacronine|27067-70-5|3,12-DIHYDRO-6,11-DIHYDROXY-3,3,12-TRIMETHYL-7H-PYRANO(2,3-C)ACRIDIN-7-ONE|3,12-Dihydro-6,11-dihydroxy-3,312-trimethyl-7H-pyrano(2,3-c)acridin-7-one|5-HYDROXYNORACRONYCIN|5-Hydroxyacronine|5-Hydroxynoracronycine|5-hydroxynoracronycine, Atalaphyllidine|54E45U4Q3N|6,11-Dihydroxy-3,3,12-trimethyl-3,12-dihydro-7H-pyrano[2,3-c]acridin-7-one #|6,11-dihydroxy-3,3,12-trimethylpyrano[2,3-c]acridin-7-one|7H-Pyrano[2, 3,12-dihydro-6,11-dihydroxy-3,3,12-trimethyl-|7H-Pyrano[2,3-c]acridin-7-one, 3,12-dihydro-6,11-dihydroxy-3,3,12-trimethyl-|Alkaloid A from Atalantia ceylanica|BDBM50336483|CHEBI:69044|CHEMBL447169|DTXSID50181535|JZQDCDLYNFZBIG-UHFFFAOYSA-N|NSC-162687|Q27137385|UNII-54E45U4Q3N

>  <cas>  (1213) 
27067-70-5

$$$$

     RDKit          2D

 34 36  0  0  0  0  0  0  0  0999 V2000
    3.0691   -6.2637    0.0000 C   0  0  0  0  0  0  0  0  0  0  0  0
    3.6668   -4.8879    0.0000 O   0  0  0  0  0  0  0  0  0  0  0  0
    2.7742   -3.6824    0.0000 C   0  0  0  0  0  0  0  0  0  0  0  0
    1.2838   -3.8527    0.0000 C   0  0  0  0  0  0  0  0  0  0  0  0
    0.3912   -2.6472    0.0000 C   0  0  0  0  0  0  0  0  0  0  0  0
    0.9889   -1.2714    0.0000 C   0  0  0  0  0  0  0  0  0  0  0  0
    0.0963   -0.0659    0.0000 C   0  0  0  0  0  0  0  0  0  0  0  0
    0.6940    1.3099    0.0000 C   0  0  0  0  0  0  0  0  0  0  0  0
    2.1843    1.4801    0.0000 C   0  0  0  0  0  0  0  0  0  0  0  0
    2.7820    2.8559    0.0000 C   0  0  0  0  0  0  0  0  0  0  0  0
    4.2724    3.0262    0.0000 O   0  0  0  0  0  0  0  0  0  0  0  0
    5.1650    1.8207    0.0000 C   0  0  0  0  0  0  0  0  0  0  0  0
    1.8894    4.0614    0.0000 C   0  0  0  0  0  0  0  0  0  0  0  0
    2.4871    5.4372    0.0000 O   0  0  0  0  0  0  0  0  0  0  0  0
    3.9774    5.6075    0.0000 C   0  0  0  0  0  0  0  0  0  0  0  0
    0.3991    3.8912    0.0000 C   0  0  0  0  0  0  0  0  0  0  0  0
   -0.1986    2.5154    0.0000 C   0  0  0  0  0  0  0  0  0  0  0  0
   -1.6889    2.3451    0.0000 C   0  0  0  0  0  0  0  0  0  0  0  0
   -2.2866    0.9693    0.0000 C   0  0  0  0  0  0  0  0  0  0  0  0
   -3.7769    0.7991    0.0000 C   0  0  0  0  0  0  0  0  0  0  0  0
   -4.6695    2.0046    0.0000 O   0  0  0  0  0  0  0  0  0  0  0  0
   -6.1598    1.8343    0.0000 C   0  0  0  0  0  0  0  0  0  0  0  0
   -7.0524    3.0398    0.0000 C   0  0  0  0  0  0  0  0  0  0  0  0
   -6.7575    0.4586    0.0000 O   0  0  0  0  0  0  0  0  0  0  0  0
   -1.3940   -0.2362    0.0000 C   0  0  0  0  0  0  0  0  0  0  0  0
   -1.9917   -1.6119    0.0000 C   0  0  0  0  0  0  0  0  0  0  0  0
   -3.4820   -1.7822    0.0000 O   0  0  0  0  0  0  0  0  0  0  0  0
   -4.0797   -3.1580    0.0000 C   0  0  0  0  0  0  0  0  0  0  0  0
   -5.5700   -3.3282    0.0000 C   0  0  0  0  0  0  0  0  0  0  0  0
   -3.1871   -4.3635    0.0000 O   0  0  0  0  0  0  0  0  0  0  0  0
    2.4792   -1.1012    0.0000 C   0  0  0  0  0  0  0  0  0  0  0  0
    3.3719   -2.3067    0.0000 C   0  0  0  0  0  0  0  0  0  0  0  0
    4.8622   -2.1364    0.0000 O   0  0  0  0  0  0  0  0  0  0  0  0
    5.4599   -0.7606    0.0000 C   0  0  0  0  0  0  0  0  0  0  0  0
  1  2  1  0
  2  3  1  0
  3  4  2  0
  4  5  1  0
  5  6  2  0
  7  6  1  6
  7  8  1  0
  8  9  2  0
  9 10  1  0
 10 11  1  0
 11 12  1  0
 10 13  2  0
 13 14  1  0
 14 15  1  0
 13 16  1  0
 16 17  2  0
 17 18  1  0
 18 19  1  0
 19 20  1  6
 20 21  1  0
 21 22  1  0
 22 23  1  0
 22 24  2  0
 19 25  1  0
 25 26  1  1
 26 27  1  0
 27 28  1  0
 28 29  1  0
 28 30  2  0
  6 31  1  0
 31 32  2  0
 32 33  1  0
 33 34  1  0
 32  3  1  0
 25  7  1  0
 17  8  1  0
M  END
>  <identifier>  (1214) 
CNP0080407.1

>  <canonical_smiles>  (1214) 
COC1=CC=C([C@H]2C3=CC(OC)=C(OC)C=C3C[C@@H](COC(C)=O)[C@@H]2COC(C)=O)C=C1OC

>  <standard_inchi>  (1214) 
InChI=1S/C26H32O8/c1-15(27)33-13-19-9-18-11-24(31-5)25(32-6)12-20(18)26(21(19)14-34-16(2)28)17-7-8-22(29-3)23(10-17)30-4/h7-8,10-12,19,21,26H,9,13-14H2,1-6H3/t19-,21-,26-/m0/s1

>  <standard_inchi_key>  (1214) 
CUOAFOYIZBYIOI-ZVOVDXHFSA-N

>  <name>  (1214) 
nan

>  <iupac_name>  (1214) 
[(2~{R},3~{R},4~{S})-3-(acetoxymethyl)-4-(3,4-dimethoxyphenyl)-6,7-dimethoxy-tetralin-2-yl]methyl acetate

>  <annotation_level>  (1214) 
4

>  <total_atom_count>  (1214) 
66

>  <heavy_atom_count>  (1214) 
34

>  <molecular_weight>  (1214) 
472.53

>  <exact_molecular_weight>  (1214) 
472.20972

>  <molecular_formula>  (1214) 
C26H32O8

>  <alogp>  (1214) 
3.77

>  <topological_polar_surface_area>  (1214) 
89.52

>  <rotatable_bond_count>  (1214) 
9

>  <hydrogen_bond_acceptors>  (1214) 
8

>  <hydrogen_bond_donors>  (1214) 
0

>  <hydrogen_bond_acceptors_lipinski>  (1214) 
8

>  <hydrogen_bond_donors_lipinski>  (1214) 
0

>  <lipinski_rule_of_five_violations>  (1214) 
0

>  <aromatic_rings_count>  (1214) 
2

>  <qed_drug_likeliness>  (1214) 
0.51

>  <formal_charge>  (1214) 
0

>  <fractioncsp3>  (1214) 
0.46

>  <number_of_minimal_rings>  (1214) 
3

>  <van_der_walls_volume>  (1214) 
nan

>  <contains_sugar>  (1214) 
False

>  <contains_ring_sugars>  (1214) 
False

>  <contains_linear_sugars>  (1214) 
False

>  <murcko_framework>  (1214) 
c1ccc(cc1)C2c3ccccc3CCC2

>  <np_likeness>  (1214) 
1.11

>  <chemical_class>  (1214) 
Aryltetralin lignans

>  <chemical_sub_class>  (1214) 
Aryltetralin lignans

>  <chemical_super_class>  (1214) 
Lignans, neolignans and related compounds

>  <direct_parent_classification>  (1214) 
Aryltetralin lignans

>  <np_classifier_pathway>  (1214) 
Shikimates and Phenylpropanoids

>  <np_classifier_superclass>  (1214) 
Lignans

>  <np_classifier_class>  (1214) 
Arylnaphthalene and aryltetralin lignans

>  <np_classifier_is_glycoside>  (1214) 
False

>  <organisms>  (1214) 
Araucaria angustifolia

>  <collections>  (1214) 
Latin America dataset|NuBBEDB|WikiData Natural Products|ZINC NP

>  <dois>  (1214) 
10.1016/S0031-9422(00)89347-4

>  <synonyms>  (1214) 
isolariciresinol dimethylether diacetate

>  <cas>  (1214) 
nan

$$$$

     RDKit          2D

 17 18  0  0  0  0  0  0  0  0999 V2000
   -5.4960    1.5562    0.0000 C   0  0  0  0  0  0  0  0  0  0  0  0
   -4.0083    1.3644    0.0000 O   0  0  0  0  0  0  0  0  0  0  0  0
   -3.4306   -0.0199    0.0000 C   0  0  0  0  0  0  0  0  0  0  0  0
   -4.3406   -1.2123    0.0000 O   0  0  0  0  0  0  0  0  0  0  0  0
   -1.9429   -0.2117    0.0000 C   0  0  0  0  0  0  0  0  0  0  0  0
   -1.3652   -1.5960    0.0000 C   0  0  0  0  0  0  0  0  0  0  0  0
    0.1225   -1.7879    0.0000 C   0  0  0  0  0  0  0  0  0  0  0  0
    0.7002   -3.1722    0.0000 O   0  0  0  0  0  0  0  0  0  0  0  0
    1.0324   -0.5954    0.0000 C   0  0  0  0  0  0  0  0  0  0  0  0
    2.5201   -0.7873    0.0000 O   0  0  0  0  0  0  0  0  0  0  0  0
    3.4301    0.4052    0.0000 C   0  0  0  0  0  0  0  0  0  0  0  0
    4.6930    1.2145    0.0000 C   0  0  0  0  0  0  0  0  0  0  0  0
    4.4464   -0.6980    0.0000 C   0  0  0  0  0  0  0  0  0  0  0  0
    2.8524    1.7895    0.0000 C   0  0  0  0  0  0  0  0  0  0  0  0
    1.3647    1.9813    0.0000 C   0  0  0  0  0  0  0  0  0  0  0  0
    0.4547    0.7889    0.0000 C   0  0  0  0  0  0  0  0  0  0  0  0
   -1.0329    0.9807    0.0000 C   0  0  0  0  0  0  0  0  0  0  0  0
  1  2  1  0
  2  3  1  0
  3  4  2  0
  3  5  1  0
  5  6  2  0
  6  7  1  0
  7  8  1  0
  7  9  2  0
  9 10  1  0
 10 11  1  0
 11 12  1  0
 11 13  1  0
 11 14  1  0
 14 15  2  0
 15 16  1  0
 16 17  2  0
 17  5  1  0
 16  9  1  0
M  END
>  <identifier>  (1215) 
CNP0301501.0

>  <canonical_smiles>  (1215) 
COC(=O)C1=CC(O)=C2OC(C)(C)C=CC2=C1

>  <standard_inchi>  (1215) 
InChI=1S/C13H14O4/c1-13(2)5-4-8-6-9(12(15)16-3)7-10(14)11(8)17-13/h4-7,14H,1-3H3

>  <standard_inchi_key>  (1215) 
AJGXTMLYNUPYFX-UHFFFAOYSA-N

>  <name>  (1215) 
methyl 8-hydroxy-2,2-dimethylchromene-6-carboxylate

>  <iupac_name>  (1215) 
methyl 8-hydroxy-2,2-dimethyl-chromene-6-carboxylate

>  <annotation_level>  (1215) 
5

>  <total_atom_count>  (1215) 
31

>  <heavy_atom_count>  (1215) 
17

>  <molecular_weight>  (1215) 
234.25

>  <exact_molecular_weight>  (1215) 
234.08921

>  <molecular_formula>  (1215) 
C13H14O4

>  <alogp>  (1215) 
2.36

>  <topological_polar_surface_area>  (1215) 
55.76

>  <rotatable_bond_count>  (1215) 
1

>  <hydrogen_bond_acceptors>  (1215) 
4

>  <hydrogen_bond_donors>  (1215) 
1

>  <hydrogen_bond_acceptors_lipinski>  (1215) 
4

>  <hydrogen_bond_donors_lipinski>  (1215) 
1

>  <lipinski_rule_of_five_violations>  (1215) 
0

>  <aromatic_rings_count>  (1215) 
1

>  <qed_drug_likeliness>  (1215) 
0.76

>  <formal_charge>  (1215) 
0

>  <fractioncsp3>  (1215) 
0.31

>  <number_of_minimal_rings>  (1215) 
2

>  <van_der_walls_volume>  (1215) 
212.45

>  <contains_sugar>  (1215) 
False

>  <contains_ring_sugars>  (1215) 
False

>  <contains_linear_sugars>  (1215) 
False

>  <murcko_framework>  (1215) 
O1c2ccccc2C=CC1

>  <np_likeness>  (1215) 
2.03

>  <chemical_class>  (1215) 
Benzopyrans

>  <chemical_sub_class>  (1215) 
1-benzopyrans

>  <chemical_super_class>  (1215) 
Organoheterocyclic compounds

>  <direct_parent_classification>  (1215) 
2,2-dimethyl-1-benzopyrans

>  <np_classifier_pathway>  (1215) 
Terpenoids

>  <np_classifier_superclass>  (1215) 
Meroterpenoids

>  <np_classifier_class>  (1215) 
Merohemiterpenoids

>  <np_classifier_is_glycoside>  (1215) 
False

>  <organisms>  (1215) 
Pedinophyllum interruptum|Piper aduncum|piper sp.

>  <collections>  (1215) 
ChemSpider NPs|Latin America dataset|NPASS|NuBBEDB|Super Natural II|UNPD (Universal Natural Products Database)|WikiData Natural Products|ZINC NP

>  <dois>  (1215) 
10.1016/0031-9422(93)85364-W|10.1016/S0031-9422(99)00132-6|10.1021/NP030530J|10.1021/np030530j|10.1080/14786410802243271|10.1248/BPB.31.538|10.1248/bpb.31.538|10.1515/ZNB-2004-0713

>  <synonyms>  (1215) 
CHEMBL489133|methyl 8-hydroxy-2,2-dimethyl-2h-chromene-6-carboxylate

>  <cas>  (1215) 
nan

$$$$

     RDKit          2D

 31 36  0  0  0  0  0  0  0  0999 V2000
   -4.5868   -1.3633    0.0000 C   0  0  0  0  0  0  0  0  0  0  0  0
   -4.5428    0.1361    0.0000 C   0  0  0  0  0  0  0  0  0  0  0  0
   -6.0270   -0.0810    0.0000 C   0  0  0  0  0  0  0  0  0  0  0  0
   -5.0143    1.5601    0.0000 C   0  0  0  0  0  0  0  0  0  0  0  0
   -6.4832    1.8637    0.0000 O   0  0  0  0  0  0  0  0  0  0  0  0
   -4.0168    2.6804    0.0000 C   0  0  0  0  0  0  0  0  0  0  0  0
   -2.5479    2.3767    0.0000 C   0  0  0  0  0  0  0  0  0  0  0  0
   -2.0764    0.9527    0.0000 C   0  0  0  0  0  0  0  0  0  0  0  0
   -1.0789    2.0730    0.0000 C   0  0  0  0  0  0  0  0  0  0  0  0
   -3.0739   -0.1676    0.0000 C   0  0  0  0  0  0  0  0  0  0  0  0
   -2.6024   -1.5915    0.0000 C   0  0  0  0  0  0  0  0  0  0  0  0
   -3.5998   -2.7118    0.0000 O   0  0  0  0  0  0  0  0  0  0  0  0
   -1.1334   -1.8952    0.0000 C   0  0  0  0  0  0  0  0  0  0  0  0
   -0.6620   -3.3192    0.0000 O   0  0  0  0  0  0  0  0  0  0  0  0
   -0.1360   -0.7749    0.0000 C   0  0  0  0  0  0  0  0  0  0  0  0
   -1.6049   -0.4712    0.0000 C   0  0  0  0  0  0  0  0  0  0  0  0
   -0.6075    0.6491    0.0000 C   0  0  0  0  0  0  0  0  0  0  0  0
    0.3900    1.7694    0.0000 C   0  0  0  0  0  0  0  0  0  0  0  0
    1.8589    1.4657    0.0000 C   0  0  0  0  0  0  0  0  0  0  0  0
    2.3304    0.0417    0.0000 C   0  0  0  0  0  0  0  0  0  0  0  0
    3.4395    1.0516    0.0000 C   0  0  0  0  0  0  0  0  0  0  0  0
    3.7041   -0.5607    0.0000 C   0  0  0  0  0  0  0  0  0  0  0  0
    4.9989    0.1965    0.0000 C   0  0  0  0  0  0  0  0  0  0  0  0
    5.1474    1.6892    0.0000 C   0  0  0  0  0  0  0  0  0  0  0  0
    6.6129    2.0092    0.0000 O   0  0  0  0  0  0  0  0  0  0  0  0
    7.3701    0.7144    0.0000 C   0  0  0  0  0  0  0  0  0  0  0  0
    6.3727   -0.4059    0.0000 C   0  0  0  0  0  0  0  0  0  0  0  0
    3.5557   -2.0534    0.0000 C   0  0  0  0  0  0  0  0  0  0  0  0
    2.0902   -2.3734    0.0000 C   0  0  0  0  0  0  0  0  0  0  0  0
    0.5902   -2.3818    0.0000 O   0  0  0  0  0  0  0  0  0  0  0  0
    1.3330   -1.0786    0.0000 C   0  0  0  0  0  0  0  0  0  0  0  0
  1  2  1  0
  2  3  1  0
  2  4  1  0
  4  5  2  0
  4  6  1  0
  6  7  2  0
  7  8  1  0
  8  9  1  1
  8 10  1  0
 10 11  2  0
 11 12  1  0
 11 13  1  0
 13 14  2  0
 13 15  1  0
 15 16  1  1
 15 17  1  0
 17 18  1  1
 18 19  1  0
 19 20  1  0
 20 21  1  6
 20 22  1  0
 22 23  1  1
 23 24  2  0
 24 25  1  0
 25 26  1  0
 26 27  2  0
 22 28  1  0
 29 28  1  1
 29 30  1  0
 31 30  1  1
 10  2  1  0
 31 15  1  0
 17  8  1  0
 31 20  1  0
 27 23  1  0
 31 29  1  0
M  END
>  <identifier>  (1216) 
CNP0119210.2

>  <canonical_smiles>  (1216) 
CC1(C)C(=O)C=C[C@@]2(C)C1=C(O)C(=O)[C@]1(C)[C@@H]2CC[C@@]2(C)[C@@H](C3=COC=C3)C[C@H]3O[C@]321

>  <standard_inchi>  (1216) 
InChI=1S/C26H30O5/c1-22(2)17(27)7-9-23(3)16-6-10-24(4)15(14-8-11-30-13-14)12-18-26(24,31-18)25(16,5)21(29)19(28)20(22)23/h7-9,11,13,15-16,18,28H,6,10,12H2,1-5H3/t15-,16-,18-,23-,24+,25+,26-/m1/s1

>  <standard_inchi_key>  (1216) 
OQMUOVSEPOBWMK-GBDPRCSPSA-N

>  <name>  (1216) 
nan

>  <iupac_name>  (1216) 
(1~{R},2~{R},4~{R},6~{R},7~{S},10~{R},11~{R})-6-(3-furyl)-17-hydroxy-1,7,11,15,15-pentamethyl-3-oxapentacyclo[8.8.0.0^{2,4}.0^{2,7}.0^{11,16}]octadeca-12,16-diene-14,18-dione

>  <annotation_level>  (1216) 
4

>  <total_atom_count>  (1216) 
61

>  <heavy_atom_count>  (1216) 
31

>  <molecular_weight>  (1216) 
422.52

>  <exact_molecular_weight>  (1216) 
422.20932

>  <molecular_formula>  (1216) 
C26H30O5

>  <alogp>  (1216) 
4.89

>  <topological_polar_surface_area>  (1216) 
80.04

>  <rotatable_bond_count>  (1216) 
1

>  <hydrogen_bond_acceptors>  (1216) 
5

>  <hydrogen_bond_donors>  (1216) 
1

>  <hydrogen_bond_acceptors_lipinski>  (1216) 
5

>  <hydrogen_bond_donors_lipinski>  (1216) 
1

>  <lipinski_rule_of_five_violations>  (1216) 
0

>  <aromatic_rings_count>  (1216) 
1

>  <qed_drug_likeliness>  (1216) 
0.65

>  <formal_charge>  (1216) 
0

>  <fractioncsp3>  (1216) 
0.62

>  <number_of_minimal_rings>  (1216) 
6

>  <van_der_walls_volume>  (1216) 
nan

>  <contains_sugar>  (1216) 
False

>  <contains_ring_sugars>  (1216) 
False

>  <contains_linear_sugars>  (1216) 
False

>  <murcko_framework>  (1216) 
o1ccc(c1)C2CC3OC34C5CC=C6CCC=CC6C5CCC24

>  <np_likeness>  (1216) 
3.22

>  <chemical_class>  (1216) 
Prenol lipids

>  <chemical_sub_class>  (1216) 
Triterpenoids

>  <chemical_super_class>  (1216) 
Lipids and lipid-like molecules

>  <direct_parent_classification>  (1216) 
Limonoids

>  <np_classifier_pathway>  (1216) 
Terpenoids

>  <np_classifier_superclass>  (1216) 
Triterpenoids

>  <np_classifier_class>  (1216) 
Limonoids

>  <np_classifier_is_glycoside>  (1216) 
False

>  <organisms>  (1216) 
Toona ciliata|Trichilia catigua

>  <collections>  (1216) 
Latin America dataset|NuBBEDB|WikiData Natural Products

>  <dois>  (1216) 
10.1590/S0100-40422009000600037|10.3998/ARK.5550190.0005.606

>  <synonyms>  (1216) 
Cedrelone

>  <cas>  (1216) 
nan

$$$$

     RDKit          2D

 26 28  0  0  0  0  0  0  0  0999 V2000
   -3.1541    2.8106    0.0000 C   0  0  0  0  0  0  0  0  0  0  0  0
   -3.5199    1.3559    0.0000 O   0  0  0  0  0  0  0  0  0  0  0  0
   -2.4430    0.3118    0.0000 C   0  0  0  0  0  0  0  0  0  0  0  0
   -2.8089   -1.1429    0.0000 C   0  0  0  0  0  0  0  0  0  0  0  0
   -4.2516   -1.5535    0.0000 C   0  0  0  0  0  0  0  0  0  0  0  0
   -5.3285   -0.5093    0.0000 C   0  0  0  0  0  0  0  0  0  0  0  0
   -4.6175   -3.0082    0.0000 C   0  0  0  0  0  0  0  0  0  0  0  0
   -1.7320   -2.1871    0.0000 C   0  0  0  0  0  0  0  0  0  0  0  0
   -0.2893   -1.7766    0.0000 C   0  0  0  0  0  0  0  0  0  0  0  0
    0.7876   -2.8208    0.0000 C   0  0  0  0  0  0  0  0  0  0  0  0
    2.2303   -2.4103    0.0000 C   0  0  0  0  0  0  0  0  0  0  0  0
    2.5962   -0.9556    0.0000 C   0  0  0  0  0  0  0  0  0  0  0  0
    4.0389   -0.5451    0.0000 C   0  0  0  0  0  0  0  0  0  0  0  0
    5.5351   -0.6527    0.0000 C   0  0  0  0  0  0  0  0  0  0  0  0
    4.1927   -2.0372    0.0000 C   0  0  0  0  0  0  0  0  0  0  0  0
    4.4048    0.9096    0.0000 C   0  0  0  0  0  0  0  0  0  0  0  0
    3.3279    1.9538    0.0000 C   0  0  0  0  0  0  0  0  0  0  0  0
    1.8852    1.5433    0.0000 C   0  0  0  0  0  0  0  0  0  0  0  0
    1.5193    0.0886    0.0000 C   0  0  0  0  0  0  0  0  0  0  0  0
    0.4424    1.1328    0.0000 C   0  0  0  0  0  0  0  0  0  0  0  0
    0.8083    2.5875    0.0000 O   0  0  0  0  0  0  0  0  0  0  0  0
   -0.3543    1.1066    0.0000 O   0  0  0  0  0  0  0  0  0  0  0  0
    0.0766   -0.3219    0.0000 C   0  0  0  0  0  0  0  0  0  0  0  0
   -1.0003    0.7223    0.0000 C   0  0  0  0  0  0  0  0  0  0  0  0
   -0.6345    2.1770    0.0000 O   0  0  0  0  0  0  0  0  0  0  0  0
   -1.7113    3.2212    0.0000 C   0  0  0  0  0  0  0  0  0  0  0  0
  1  2  1  0
  2  3  1  0
  3  4  2  0
  4  5  1  0
  5  6  1  0
  5  7  1  0
  4  8  1  0
  8  9  2  0
  9 10  1  0
 10 11  1  0
 11 12  1  0
 12 13  1  0
 13 14  1  0
 13 15  1  0
 13 16  1  0
 16 17  1  0
 17 18  1  0
 18 19  1  0
 19 20  1  6
 20 21  1  0
 20 22  1  0
 19 23  1  0
 23 24  2  0
 24 25  1  0
 25 26  1  0
 24  3  1  0
 23  9  1  0
 19 12  1  0
M  END
>  <identifier>  (1217) 
CNP0092285.1

>  <canonical_smiles>  (1217) 
COC1=C(C(C)C)C=C2CCC3C(C)(C)CCC[C@]3(C(O)O)C2=C1OC

>  <standard_inchi>  (1217) 
InChI=1S/C22H34O4/c1-13(2)15-12-14-8-9-16-21(3,4)10-7-11-22(16,20(23)24)17(14)19(26-6)18(15)25-5/h12-13,16,20,23-24H,7-11H2,1-6H3/t16?,22-/m1/s1

>  <standard_inchi_key>  (1217) 
FKPCESAYUWEVSC-VXNXSFHZSA-N

>  <name>  (1217) 
nan

>  <iupac_name>  (1217) 
[(4~{a}~{R})-7-isopropyl-5,6-dimethoxy-1,1-dimethyl-2,3,4,9,10,10~{a}-hexahydrophenanthren-4~{a}-yl]methanediol

>  <annotation_level>  (1217) 
4

>  <total_atom_count>  (1217) 
60

>  <heavy_atom_count>  (1217) 
26

>  <molecular_weight>  (1217) 
362.51

>  <exact_molecular_weight>  (1217) 
362.24571

>  <molecular_formula>  (1217) 
C22H34O4

>  <alogp>  (1217) 
4.15

>  <topological_polar_surface_area>  (1217) 
58.92

>  <rotatable_bond_count>  (1217) 
4

>  <hydrogen_bond_acceptors>  (1217) 
4

>  <hydrogen_bond_donors>  (1217) 
2

>  <hydrogen_bond_acceptors_lipinski>  (1217) 
4

>  <hydrogen_bond_donors_lipinski>  (1217) 
2

>  <lipinski_rule_of_five_violations>  (1217) 
0

>  <aromatic_rings_count>  (1217) 
1

>  <qed_drug_likeliness>  (1217) 
0.79

>  <formal_charge>  (1217) 
0

>  <fractioncsp3>  (1217) 
0.73

>  <number_of_minimal_rings>  (1217) 
3

>  <van_der_walls_volume>  (1217) 
nan

>  <contains_sugar>  (1217) 
False

>  <contains_ring_sugars>  (1217) 
False

>  <contains_linear_sugars>  (1217) 
False

>  <murcko_framework>  (1217) 
c1ccc2c(c1)CCC3CCCCC23

>  <np_likeness>  (1217) 
1.64

>  <chemical_class>  (1217) 
Prenol lipids

>  <chemical_sub_class>  (1217) 
Diterpenoids

>  <chemical_super_class>  (1217) 
Lipids and lipid-like molecules

>  <direct_parent_classification>  (1217) 
Diterpenoids

>  <np_classifier_pathway>  (1217) 
Terpenoids

>  <np_classifier_superclass>  (1217) 
Diterpenoids

>  <np_classifier_class>  (1217) 
Abietane diterpenoids

>  <np_classifier_is_glycoside>  (1217) 
False

>  <organisms>  (1217) 
Rosmarinus officinalis

>  <collections>  (1217) 
Latin America dataset|NuBBEDB|WikiData Natural Products

>  <dois>  (1217) 
10.1016/S0040-4020(01)88671-3

>  <synonyms>  (1217) 
carnosol derivative

>  <cas>  (1217) 
nan

$$$$

     RDKit          2D

 24 25  0  0  0  0  0  0  0  0999 V2000
    0.4134   -2.8341    0.0000 O   0  0  0  0  0  0  0  0  0  0  0  0
    0.4813   -1.3356    0.0000 C   0  0  0  0  0  0  0  0  0  0  0  0
    1.8130   -0.6452    0.0000 C   0  0  0  0  0  0  0  0  0  0  0  0
    3.0767   -1.4532    0.0000 C   0  0  0  0  0  0  0  0  0  0  0  0
    4.4084   -0.7628    0.0000 C   0  0  0  0  0  0  0  0  0  0  0  0
    5.6721   -1.5708    0.0000 C   0  0  0  0  0  0  0  0  0  0  0  0
    7.0038   -0.8803    0.0000 C   0  0  0  0  0  0  0  0  0  0  0  0
    7.0717    0.6181    0.0000 C   0  0  0  0  0  0  0  0  0  0  0  0
    8.4033    1.3086    0.0000 O   0  0  0  0  0  0  0  0  0  0  0  0
    5.8079    1.4261    0.0000 C   0  0  0  0  0  0  0  0  0  0  0  0
    5.8758    2.9246    0.0000 O   0  0  0  0  0  0  0  0  0  0  0  0
    4.4763    0.7357    0.0000 C   0  0  0  0  0  0  0  0  0  0  0  0
   -0.7825   -0.5276    0.0000 O   0  0  0  0  0  0  0  0  0  0  0  0
   -2.1141   -1.2181    0.0000 C   0  0  0  0  0  0  0  0  0  0  0  0
   -3.3779   -0.4101    0.0000 C   0  0  0  0  0  0  0  0  0  0  0  0
   -3.3100    1.0884    0.0000 O   0  0  0  0  0  0  0  0  0  0  0  0
   -4.5738    1.8964    0.0000 C   0  0  0  0  0  0  0  0  0  0  0  0
   -4.5059    3.3949    0.0000 O   0  0  0  0  0  0  0  0  0  0  0  0
   -5.9054    1.2060    0.0000 C   0  0  0  0  0  0  0  0  0  0  0  0
   -7.1692    2.0140    0.0000 O   0  0  0  0  0  0  0  0  0  0  0  0
   -5.9733   -0.2925    0.0000 C   0  0  0  0  0  0  0  0  0  0  0  0
   -7.3049   -0.9829    0.0000 O   0  0  0  0  0  0  0  0  0  0  0  0
   -4.7095   -1.1005    0.0000 C   0  0  0  0  0  0  0  0  0  0  0  0
   -4.7774   -2.5990    0.0000 O   0  0  0  0  0  0  0  0  0  0  0  0
  1  2  2  0
  2  3  1  0
  3  4  2  0
  4  5  1  0
  5  6  2  0
  6  7  1  0
  7  8  2  0
  8  9  1  0
  8 10  1  0
 10 11  1  0
 10 12  2  0
  2 13  1  0
 13 14  1  0
 15 14  1  6
 15 16  1  0
 16 17  1  0
 17 18  1  6
 17 19  1  0
 19 20  1  1
 19 21  1  0
 21 22  1  6
 21 23  1  0
 23 24  1  1
 12  5  1  0
 23 15  1  0
M  END
>  <identifier>  (1218) 
CNP0218166.1

>  <canonical_smiles>  (1218) 
O=C(/C=C/C1=CC=C(O)C(O)=C1)OC[C@H]1O[C@@H](O)[C@H](O)[C@@H](O)[C@@H]1O

>  <standard_inchi>  (1218) 
InChI=1S/C15H18O9/c16-8-3-1-7(5-9(8)17)2-4-11(18)23-6-10-12(19)13(20)14(21)15(22)24-10/h1-5,10,12-17,19-22H,6H2/b4-2+/t10-,12-,13+,14-,15-/m1/s1

>  <standard_inchi_key>  (1218) 
JVVFTHAOTNXPOZ-VHCZEJTMSA-N

>  <name>  (1218) 
6-O-(E)-Caffeoylglucopyranose

>  <iupac_name>  (1218) 
[(2~{R},3~{S},4~{S},5~{R},6~{R})-3,4,5,6-tetrahydroxytetrahydropyran-2-yl]methyl (~{E})-3-(3,4-dihydroxyphenyl)prop-2-enoate

>  <annotation_level>  (1218) 
5

>  <total_atom_count>  (1218) 
42

>  <heavy_atom_count>  (1218) 
24

>  <molecular_weight>  (1218) 
342.3

>  <exact_molecular_weight>  (1218) 
342.09508

>  <molecular_formula>  (1218) 
C15H18O9

>  <alogp>  (1218) 
-1.55

>  <topological_polar_surface_area>  (1218) 
156.91

>  <rotatable_bond_count>  (1218) 
4

>  <hydrogen_bond_acceptors>  (1218) 
9

>  <hydrogen_bond_donors>  (1218) 
6

>  <hydrogen_bond_acceptors_lipinski>  (1218) 
9

>  <hydrogen_bond_donors_lipinski>  (1218) 
6

>  <lipinski_rule_of_five_violations>  (1218) 
1

>  <aromatic_rings_count>  (1218) 
1

>  <qed_drug_likeliness>  (1218) 
0.22

>  <formal_charge>  (1218) 
0

>  <fractioncsp3>  (1218) 
0.40

>  <number_of_minimal_rings>  (1218) 
2

>  <van_der_walls_volume>  (1218) 
288.26

>  <contains_sugar>  (1218) 
True

>  <contains_ring_sugars>  (1218) 
True

>  <contains_linear_sugars>  (1218) 
False

>  <murcko_framework>  (1218) 
O(CC=Cc1ccccc1)CC2OCCCC2

>  <np_likeness>  (1218) 
1.85

>  <chemical_class>  (1218) 
Cinnamic acids and derivatives

>  <chemical_sub_class>  (1218) 
Hydroxycinnamic acids and derivatives

>  <chemical_super_class>  (1218) 
Phenylpropanoids and polyketides

>  <direct_parent_classification>  (1218) 
Hydroxycinnamic acids

>  <np_classifier_pathway>  (1218) 
Shikimates and Phenylpropanoids

>  <np_classifier_superclass>  (1218) 
Phenylpropanoids (C6-C3)

>  <np_classifier_class>  (1218) 
Cinnamic acids and derivatives

>  <np_classifier_is_glycoside>  (1218) 
True

>  <organisms>  (1218) 
Armillaria tabescens|Caryopteris incana|Fraxinus oxycarba|Hyphear tanakae|Lygodium japonicum|Petrorhagia dubia|Polypodiodes formosana|Prunus buergeri|Prunus buergeriana|Prunus grayana|Prunus ssiori|Tagetes lucida|Vaccinium dunalianum|Vitex polygama

>  <collections>  (1218) 
ANPDB|Australian natural products|CMAUP (cCollective molecular activities of useful plants)|Latin America dataset|NANPDB (Natural Products from Northern African Sources)|NPASS|NuBBEDB|Super Natural II|WikiData Natural Products|ZINC NP

>  <dois>  (1218) 
10.1002/ps.1278|10.1016/0031-9422(88)83165-0|10.1016/J.JEP.2007.09.020|10.1016/J.PHYTOCHEM.2008.06.001|10.1016/J.PHYTOL.2009.11.001|10.1016/S0031-9422(00)84720-2|10.1016/S0031-9422(00)89593-X|10.1016/S0031-9422(97)00790-5|10.1021/NP020018I|10.1271/BBB.63.983

>  <synonyms>  (1218) 
209797-79-5|6-O-caffeoyl-beta-glucose|6-O-trans-caffeoyl-beta-D-glucopyranoside|AKOS040763438|Caffeoyl 6-O-\u221a\u00e9\u00ac\u2264-D-glucopyranoside

>  <cas>  (1218) 
209797-79-5

$$$$

     RDKit          2D

 30 33  0  0  0  0  0  0  0  0999 V2000
   -7.2343    3.0259    0.0000 C   0  0  0  0  0  0  0  0  0  0  0  0
   -6.8319    1.5809    0.0000 C   0  0  0  0  0  0  0  0  0  0  0  0
   -5.3793    1.2068    0.0000 C   0  0  0  0  0  0  0  0  0  0  0  0
   -4.9769   -0.2382    0.0000 C   0  0  0  0  0  0  0  0  0  0  0  0
   -3.5243   -0.6123    0.0000 C   0  0  0  0  0  0  0  0  0  0  0  0
   -3.1220   -2.0573    0.0000 C   0  0  0  0  0  0  0  0  0  0  0  0
   -4.1722   -3.1283    0.0000 C   0  0  0  0  0  0  0  0  0  0  0  0
   -1.6694   -2.4314    0.0000 C   0  0  0  0  0  0  0  0  0  0  0  0
   -1.1182   -3.8264    0.0000 C   0  0  0  0  0  0  0  0  0  0  0  0
    0.3789   -3.7333    0.0000 C   0  0  0  0  0  0  0  0  0  0  0  0
    0.7530   -2.2807    0.0000 C   0  0  0  0  0  0  0  0  0  0  0  0
    2.0828   -1.5867    0.0000 C   0  0  0  0  0  0  0  0  0  0  0  0
    3.3487   -2.3913    0.0000 C   0  0  0  0  0  0  0  0  0  0  0  0
    4.6785   -1.6973    0.0000 C   0  0  0  0  0  0  0  0  0  0  0  0
    4.7424   -0.1987    0.0000 C   0  0  0  0  0  0  0  0  0  0  0  0
    6.0722    0.4953    0.0000 C   0  0  0  0  0  0  0  0  0  0  0  0
    6.1361    1.9940    0.0000 C   0  0  0  0  0  0  0  0  0  0  0  0
    7.4659    2.6880    0.0000 O   0  0  0  0  0  0  0  0  0  0  0  0
    4.8701    2.7986    0.0000 C   0  0  0  0  0  0  0  0  0  0  0  0
    3.5403    2.1046    0.0000 C   0  0  0  0  0  0  0  0  0  0  0  0
    3.4765    0.6060    0.0000 C   0  0  0  0  0  0  0  0  0  0  0  0
    2.2105    1.4106    0.0000 C   0  0  0  0  0  0  0  0  0  0  0  0
    2.1467   -0.0880    0.0000 C   0  0  0  0  0  0  0  0  0  0  0  0
    0.8807    0.7166    0.0000 C   0  0  0  0  0  0  0  0  0  0  0  0
   -0.4490    0.0226    0.0000 C   0  0  0  0  0  0  0  0  0  0  0  0
   -0.5129   -1.4761    0.0000 C   0  0  0  0  0  0  0  0  0  0  0  0
   -1.8560   -0.8081    0.0000 C   0  0  0  0  0  0  0  0  0  0  0  0
   -4.3291    2.2778    0.0000 C   0  0  0  0  0  0  0  0  0  0  0  0
   -4.7314    3.7228    0.0000 C   0  0  0  0  0  0  0  0  0  0  0  0
   -2.8764    1.9037    0.0000 C   0  0  0  0  0  0  0  0  0  0  0  0
  1  2  1  0
  3  2  1  1
  3  4  1  0
  4  5  2  0
  5  6  1  0
  6  7  1  6
  6  8  1  0
  8  9  1  6
  9 10  1  0
 11 10  1  6
 11 12  1  0
 12 13  1  1
 13 14  1  0
 14 15  2  0
 15 16  1  0
 16 17  1  0
 17 18  1  6
 17 19  1  0
 19 20  1  0
 20 21  1  0
 21 22  1  6
 21 23  1  0
 23 24  1  6
 24 25  1  0
 25 26  1  0
 26 27  1  6
  3 28  1  0
 28 29  1  0
 28 30  1  0
 26  8  1  0
 26 11  1  0
 23 12  1  0
 21 15  1  0
M  END
>  <identifier>  (1219) 
CNP0389131.15

>  <canonical_smiles>  (1219) 
CC[C@H](/C=C/[C@@H](C)[C@H]1CC[C@H]2[C@@H]3CC=C4C[C@@H](O)CC[C@]4(C)[C@H]3CC[C@]12C)C(C)C

>  <standard_inchi>  (1219) 
InChI=1S/C29H48O/c1-7-21(19(2)3)9-8-20(4)25-12-13-26-24-11-10-22-18-23(30)14-16-28(22,5)27(24)15-17-29(25,26)6/h8-10,19-21,23-27,30H,7,11-18H2,1-6H3/b9-8+/t20-,21-,23+,24+,25-,26+,27+,28+,29-/m1/s1

>  <standard_inchi_key>  (1219) 
HCXVJBMSMIARIN-PHZDYDNGSA-N

>  <name>  (1219) 
STIGMASTEROL

>  <iupac_name>  (1219) 
(3~{S},8~{S},9~{S},10~{R},13~{R},14~{S},17~{R})-17-[(~{E},1~{R},4~{S})-4-ethyl-1,5-dimethyl-hex-2-enyl]-10,13-dimethyl-2,3,4,7,8,9,11,12,14,15,16,17-dodecahydro-1~{H}-cyclopenta[a]phenanthren-3-ol

>  <annotation_level>  (1219) 
5

>  <total_atom_count>  (1219) 
78

>  <heavy_atom_count>  (1219) 
30

>  <molecular_weight>  (1219) 
412.7

>  <exact_molecular_weight>  (1219) 
412.37052

>  <molecular_formula>  (1219) 
C29H48O

>  <alogp>  (1219) 
7.80

>  <topological_polar_surface_area>  (1219) 
20.23

>  <rotatable_bond_count>  (1219) 
5

>  <hydrogen_bond_acceptors>  (1219) 
1

>  <hydrogen_bond_donors>  (1219) 
1

>  <hydrogen_bond_acceptors_lipinski>  (1219) 
1

>  <hydrogen_bond_donors_lipinski>  (1219) 
1

>  <lipinski_rule_of_five_violations>  (1219) 
1

>  <aromatic_rings_count>  (1219) 
0

>  <qed_drug_likeliness>  (1219) 
0.46

>  <formal_charge>  (1219) 
0

>  <fractioncsp3>  (1219) 
0.86

>  <number_of_minimal_rings>  (1219) 
4

>  <van_der_walls_volume>  (1219) 
439.76

>  <contains_sugar>  (1219) 
False

>  <contains_ring_sugars>  (1219) 
False

>  <contains_linear_sugars>  (1219) 
False

>  <murcko_framework>  (1219) 
C1=C2CCCCC2C3CCC4CCCC4C3C1

>  <np_likeness>  (1219) 
2.80

>  <chemical_class>  (1219) 
Steroids and steroid derivatives

>  <chemical_sub_class>  (1219) 
Stigmastanes and derivatives

>  <chemical_super_class>  (1219) 
Lipids and lipid-like molecules

>  <direct_parent_classification>  (1219) 
Stigmastanes and derivatives

>  <np_classifier_pathway>  (1219) 
Terpenoids

>  <np_classifier_superclass>  (1219) 
Steroids

>  <np_classifier_class>  (1219) 
Cholestane steroids

>  <np_classifier_is_glycoside>  (1219) 
False

>  <organisms>  (1219) 
Abies balsamea|Abies rubra|Abrus Precatorius|Acacia lasiopetala|Acacia leptostachya|Acacia linarioides|Acacia pulchella|Acalypha spiciflora|Acanthochlamys bracteata|Acanthodoris nanaimoensis|Acanthopanax gracilistylus|Acanthopanax sessiliflorum|Acanthosyris paulo-alvinii|Acanthus ilicifolius|Acca sellowiana|Acer campestre|Achillea Millefolium|Achillea ageratifolia|Achillea ageratum|Achillea clypeolata|Achillea cretica|Achillea millefolium|Achillea santolina|Achillea sintenisii|Achillea tenuifolia|Acmella alba|Acmella radicans|Aconitum brevicalcaratum|Aconitum fauriei|Aconitum leucostomum|Aconitum lycoctonum|Aconitum polyschistum|Aconitum septentrionale|Acritopappus prunifolius|Actinidia chinensis var. deliciosa|Actinidia chinensis var. hispida|Adiantum caudatum|Adiantum malesianum|Adina Pilulifera|Aegiceras corniculatum|Aegiphila obducta|Aegiphila verticillata|Aegle marmelos|Aeollanthus rydingianus|Aeonium cuneatum|Aerva tomentosa|Aesculus hippocastanum|Aframomum alboviolaceum|Aframomum cereum|Aframomum sceptrum|Agaricus integer|Agaricus silvaticus|Agathis dammara|Agathis macrophylla|Agathosma scaberula|Agave decipiens|Ageratina viscosa|Ageratum Conyzoides|Ageratum conyzoides|Aglaia elaeagnoidea|Aglaia lawii|Aglaia odorata|Aglaia perviridis|Aglaophenia pluma|Agnorhiza reticulata|Ajuga bracteosa|Ajuga integrifolia|Ajuga parviflora|Ajuga taiwanensis|Akebia quinata|Alangium platanifolium|Aldama latibracteata|Alectoria rigida|Alectra parasitica|Aleurites moluccanus|Alexandrian laurel|Alhagi sparsifolia|Allagopappus dichotomus|Allanblackia floribunda|Allanblackia gabonensis|Allanblackia monticola|Allium monspessulanum|Allium neapolitanum|Allium stipitatum|Allophylus laevigatus|Alnus cordata|Aloe africana|Aloe deltoideodonta|Aloe ferox|Aloe rubroviolacea|Aloe spicata|Aloe vera|Alpinia hainanensis|Alpinia katsumadai|Alpinia mutica|Alpinia pinnanensis|Alpinia zerumbet|Alsophila spinulosa|Alstonia Scholaris|Alstonia angustiloba|Alstonia pittieri|Alstonia rostrata|Alstonia scholaris|Alstonia undulifolia|Alstonia venenata|Alstroemeria aurea|Alysicarpus monilifer|Amanita caesarea|Amaranthus blitum|Amaranthus caudatus|Amaranthus cruentus|Amaranthus dubius|Amaranthus hybr|Amaranthus hybridus|Amaranthus hypochondriacus|Amaranthus leucocarpus|Amaranthus lividus|Amaranthus retroflexus|Amaranthus spinosus|Amaranthus tricolor|Ambrosia artemisioides|Ambrosia chamissonis|Ambrosia confertiflora|Ambrosia tenuifolia|Ambrosia trifida|Amelanchier canadensis|American ginseng|Ammodendron conollyi|Ampelopsis japonica|Amphilectus fucorum|Amphora coffeaeformis|Anabaena cylindrica|Anabaena viguieri|Anadenanthera colubrina|Anaphalis araneosa|Anaphalis busua|Anaphalis margaritacea|Anarsia lineatella|Anastatica hierochuntica|Andira inermis|Andrographis paniculata|Anemone narcissiflora|Angelica Sinensis|Angelica acutiloba|Angelica decursiva|Angelica gigas|Angelica japonica|Angelica pubescens|Angelica sinensis|Angiopteris evecta|Anisocycla cymosa|Anisomeles Indica|Annona cherimola|Annona coriacea|Annona glabra|Annona purpurea|Annona reticulata|Annona squamosa|Anoectochilus koshunensis|Anthemis cotula|Anthemis fuscata|Anthocleista djalonensis|Anthyllis hermanniae|Aphanamixis Polystachya|Apis mellifera|Apium graveolens|Aplidium orthium|Aplophyllum dubium|Aplysilla spinifera|Aplysina fistularis|Apollonias barbujana|Apterostigma dentigerum|Aquarius grandiflorus|Aquilegia ecalcarata|Aquilegia viridiflora|Arabidopsis thaliana|Arabis purpurea|Arachis Hypogaea|Arachis hypogaea|Aralia continentalis|Aralia hispida|Aralia nudicaulis|Arbutus menziesii|Archidendron chevalieri|Arcopilus aureus|Arctotis arctotoides|Ardisia japonica|Ardisia virens|Argyreia populifolia|Aristolochia elegans|Aristolochia heterophylla|Aristolochia indica|Aristolochia kaempferi|Aristolochia mollissima|Aristolochia zollingeriana|Aristolochiaceae|Arnebia decumbens|Arnica acaulis|Arnica amplexicaulis|Arnica foliosa|Arnica lanceolata|Arnica mollis|Arracacia nelsonii|Artabotrys Uncinatus|Artabotrys hexapetalus|Artemisia Annua|Artemisia Vulgaris|Artemisia annua|Artemisia annua L.|Artemisia apiacea|Artemisia arbuscula|Artemisia argentea|Artemisia argyi|Artemisia austriaca|Artemisia feddei|Artemisia giraldii|Artemisia hanseniana|Artemisia herba-alba|Artemisia igniaria|Artemisia kaschgarica|Artemisia keiskeana|Artemisia lancea|Artemisia monosperma|Artemisia pectinata|Artemisia rutifolia|Artemisia santolina|Artemisia sieversiana|Artemisia taurica|Artemisia vestita|Artocarpus heterophyllus|Arundo Donax|Arundo donax|Asclepias curassavica|Asclepias speciosa|Asclepias syriaca|Aspergillus candidus|Aspergillus chevalieri|Aspergillus japonicus|Aspergillus microcysticus|Asperula tinctoria|Asphodeline damascena|Asphodeline tenuior|Aspilia paludosa|Aster acuminatus|Aster altaicus|Aster tataricus|Asterias forbesi|Asterias glacialis|Asteriscus aquaticus|Asterococcus muratae|Astilbe myriantha|Astragalus caprinus|Astragalus caspicus|Astragalus coluteocarpus|Astragalus gummifer|Astragalus kabadianus|Atalantia buxifolia|Atractylodes lancea|Atractylodes macrocephala|Atriplex stocksii|Atrophaneura polyeuctes|Aureoumbra lagunensis|Austrobrickellia patens|Auxarthron reticulatum|Avena sativa|Avicennia officinalis|Axinella aruensis|Axinella cannabina|Axinella damicornis|Axinellidae|Axinyssa|Azadirachta indica|Azolla nilotica|Baccaurea courtallensis|Baccharis crispa|Baccharis gnidiifolia|Baccharis grandicapitulata|Baccharis linearis|Baccharis neaei|Baccharis nitida|Baccharis rhomboidalis|Baccharoides anthelmintica|Bacillus subtilis|Bahia xylopoda|Balanophora harlandii|Ballota undulata|Banisteriopsis caapi|Barbula unguiculata|Barringtonia Racemosa|Barringtonia racemosa|Bassia scoparia|Bauhinia divaricata|Bauhinia purpurea|Bazzania spiralis|Beauveria felina|Beesia calthifolia|Begonia heracleifolia|Begonia nantoensis|Beltrania rhombica|Berberis vulgaris|Beta vulgaris|Betula alnoides|Betula platyphylla|Biancaea decapetala|Biancaea sappan|Bidens pilosa|Bidens subalternans|Bipolaris sorokiniana|Bishopanthus soliceps|Bitter bush|Blainvillea acmella|Blepharispermum zanguebaricum|Blumea arfakiana|Blumea malcolmii|Blumea mollis|Blutaparon portulacoides|Boehmeria excelsa|Boerhavia diffusa|Bombax ceiba|Bombax malabaricum|Bombus pascuorum|Bombyx mori|Bonnetia paniculata|Boraginaceae|Boschniakia rossica|Bosistoa brassii|Bosistoa selwynii|Bothriocline longipes|Botrychium ternatum|Botryocladia leptopoda|Botryosphaeria berengeriana|Brachythecium buchananii|Brackenridgea nitida|Brassica oleracea var. sabauda|Brenneria rubrifaciens|Bridelia ferruginea|Bridelia ovata|Brodiaea californica|Brombya platynema|Brosimum acutifolium|Brotherella henonii|Bruguiera gymnorhiza|Bruguiera gymnorrhiza|Bryopteris filicina|Bryum rutilans|Buchenavia tetraphylla|Buddleja asiatica|Buddleja cordata|Buddleja lindleyana|Buddleja madagascariensis|Bulbophyllum protractum|Bulbophyllum wendlandianum|Bursera kerberi|Butea Monosperma|Butea monosperma|Caesalpinia Decapetala|Caesalpinia Minax|Caesalpinia bonducella|Caesalpinia minax|Caesalpinia volkensii|Calea crocinervosa|Calea harleyi|Calea jamaicensis|Calea pinnatifida|Calea prunifolia|Calendula Officinalis|Calendula officinalis|Callicarpa pilosissima|Callilepis salicifolia|Callophyllis flabellata|Callophyllis laciniata|Calophyllum gracilipes|Calophyllum macrocarpum|Calophyllum soulattri|Calophyllum teysmannii|Calophyllum tomentosum|Caloplaca ferruginea|Calotropis procera|Camarops microspora|Campanula kolenatiana|Campanula medium|Campylopus japonicus|Campylopus richardii|Campylospermum flavum|Campylospermum sulcatum|Cananga odorata|Canavalia ensiformis|Cannabis sativa|Capparis ovata|Capsicum annuum|Caragana microphylla|Cardiospermum halicacabum|Carex aridula|Carpesium Abrotanoides|Carthamus mareoticus|Carthamus tinctorius|Carya illinoinensis|Cashew|Cassia fistula|Cassia roxburghii|Cassine papillosa|Catharanthus roseus|Cayratia japonica|Ceanothus velutinus|Cedrela montana|Cedrela odorata|Celastrus dispermus|Celosia argentea|Celtis australis|Centaurea aegyptiaca|Centaurea aspera|Centaurea calcitrapa|Centaurea horrida|Centaurea iberica|Centaurea nicolai|Centaurea nigra|Centaurea nigrescens|Centaurea paniculata|Centaurea rothmalerana|Centaurea sinaica|Centella asiatica|Centipeda Minima|Centipeda minima|Centrosema pubescens|Ceramium botryocarpum|Cerbera odollam|Cereus chrysacanthus|Cereus ocamponis|Ceriops decandra|Ceriops tagal|Cetraria pinastri|Chaetomella raphigera|Chamaecyparis formosensis|Chamaecyparis obtusa|Chamaecyparis pisifera|Chamerion dodonaei|Chamomilla recutita|Chara australis|Chara buckellii|Charpentiera obovata|Cheilanthes mysurensis|Cheiropleuria bicuspis|Chelonanthus albus|Chengiopanax sciadophylloides|Chenopodium ficifolium|Chenopodium rubrum|Chilocorus cacti|Chlorophytum arundinaceum|Chlorophytum borivilianum|Choisya ternata|Chondria californica|Chromodoris obsoleta|Chromolaena arnottiana|Chromolaena pulchella|Chrozophora obliqua|Chrozophora plicata|Chrozophora tinctoria|Chrozophora verbascifolia|Chrysobalanus icaco|Chrysolaena cognata|Chrysolaena platensis|Chrysolaena propinqua|Chrysotila carterae|Chuquiraga ulicina|Cichorium endivia|Cichorium intybus|Cichorium spinosum|Cinachyrella alloclada|Cinachyrella schulzei|Cineraria atriplicifolia|Cineraria grandibracteata|Cineraria parvifolia|Cinnamomum Subavenium|Cinnamomum kotoense|Cinnamomum subavenium|Cinnamomum tenuifolium|Cinnamosma madagascariensis|Cirsium Japonicum|Cirsium dipsacolepis|Cirsium japonicum|Cissus rheifolia|Citropsis articulata|Citrullus colocynthis|Citrus karna|Citrus medica|Citrus medica var. sarcodactylis|Citrus reshni|Citrus reticulata|Citrus tankan|Citrus unshiu|Citrus × deliciosa|Citrus × paradisi|Cladiella krempfi|Cladonia amaurocraea|Claoxylon parviflorum|Clathria prolifera|Clathrina clathrus|Clausena dunniana|Clausena euchrestifolia|Cleidion Spiciflorum|Clematis drummondii|Cleome amblyocarpa|Clerodendrum brachyanthum|Clerodendrum chinense|Clerodendrum fragrans|Clerodendrum infortunatum|Clerodendrum japonicum|Clerodendrum nutans|Clerodendrum scandens|Clerodendrum trichotomum|Clerodendrum umbellatum|Climacoptera lanata|Clinacanthus nutans|Clinopodium gracile|Clinopodium umbrosum|Clintonia borealis|Cocculus diversifolius|Cocos Nucifera|Codiaeum variegatum|Coelogyne flavida|Coeloseira pacifica|Coffea liberica var. dewevrei|Colletotrichum dematium|Columba livia|Conium maculatum|Conocephalum conicum|Conocephalum japonicum|Conocephalum supradecompositum|Conus pulicarius|Convolvulus arvensis|Conyza canadensis|Coprosma australis|Coptis trifolia|Corchorus depressus|Cordiera macrophylla|Cordyceps sinensis|Cordyla africana|Coreopsis fasciculata|Corethrodendron multijugum|Coriandrum sativum|Cornus canadensis|Corydalis caucasica|Corydalis claviculata|Corylus avellana|Coryphantha vivipara|Coscinium fenestratum|Costasiella ocellifera|Costus tonkinensis|Couepia polyandra|Coussarea brevicaulis|Crataegus maximowiczii|Crataegus pinnatifida|Cratoxylum maingayi|Cratoxylum sumatranum|Cratystylis conocephala|Cremanthodium arnicoides|Creosphaeria sassafras|Crepis foetida|Crepis pulchra|Cribricellina cribraria|Crinodendron patagua|Crinum defixum|Crinum firmifolium|Crinum kirkii|Crinum latifolium|Critonia quadrangularis|Crocus sativus|Crocus sieberi|Cronartium fusiforme|Cronquistianthus bishopii|Crotalaria barbata|Crotalaria podocarpa|Crotalaria sericea|Crotalaria stolzii|Crotalaria trichotoma|Croton cajucara|Croton gratissimus var. gratissimus|Croton hieronymi|Croton membranaceus|Croton montevidensis|Croton rhamnifolius|Croton sublyratus|Croton urucurana|Cryptolepis nigrescens|Cryptonemia angustata|Cryptosphaeria eunomia|Ctenodiscus crispatus|Cucumis melo|Cucumis sativus|Cucurbita maxima|Cucurbita pepo|Culcitium canescens|Cullen corylifolia|Cullen corylifolium|Cullen plicatum|Cunninghamella echinulata|Cuphea appendiculata|Cuphea carthagenensis|Cuphea infundibulum|Curculigo orchioides|Curcuma aeruginosa|Curcuma heyneana|Curcuma kwangsiensis|Curcuma longa|Curcuma ochrorhiza|Curcuma phaeocaulis|Curcuma wenyujin|Curcuma zedoaria|Cuscuta campestris|Cuscuta reflexa|Cussonia bancoensis|Cussonia zimmermannii|Cyanthillium cinereum|Cyathula tomentosa|Cyathus helenae|Cyberlindnera jadinii|Cybister confusus|Cyclolobium clausseni|Cylas formicarius|Cymbidium aloifolium|Cymbopogon citratus|Cymbopogon parkeri|Cymodocea nodosa|Cynanchum sibiricum|Cynanchum viminale|Cynara cornigera|Cynara humilis|Cynara sibthorpiana|Cynoctonum wilfordii|Cyperus conglomeratus|Cyperus rotundus|Cypripedium acaule|Cystoseira barbata|Cystoseira caespitosa|Cystoseira crinita|Cytisus scoparius|Dacrycarpus imbricatus|Dactynotus rudbeckiae|Daiswa dunniana|Dalbergia monetaria|Dalbergia odorifera|Dalbergia ovalis|Dalbergia sissoo|Dalbergia volubilis|Daldinia concentrica|Daphne arisanensis|Daphne blagayana|Daphne oleoides|Daphne sericea|Dasiphora fruticosa|Datisca glomerata|Daucus carota|Debregeasia saeneb|Debregeasia salicifolia|Decaneuropsis cumingiana|Delia coronariae|Delisea elegans|Delphinium dictyocarpum|Delphinium giraldii|Delphinium staphisagria|Dendrobates tinctorius|Dendrobium brymerianum|Dendrobium cariniferum|Dendrobium loddigesii|Dendrobium nobile|Dendrobium thyrsiflorum|Dendrodoris krebsii|Dendroviguiera quinqueradiata|Derris trifoliata|Desmos chinensis|Desmostachya bipinnata|Dianthus armeria|Diaphus suborbitalis|Dicliptera japonica|Dicranum japonicum|Dicranum majus|Dictyopteris delicatula|Dictyota dichotoma|Dictyota linearis|Digitalis obscura|Dimerostemma brasilianum|Dimetia scandens|Dioscorea bartlettii|Dioscorea communis|Dioscorea convolvulacea|Dioscorea dregeana|Dioscorea dumetorum|Dioscorea floribunda|Dioscorea hondurensis|Dioscorea membranacea|Dioscorea nelsonii|Dioscorea olfersiana|Dioscorea parviflora|Dioscorea polystachya|Dioscorea saxatilis|Dioscorea sinoparviflora|Dioscoreophyllum cumminsii|Diospyros Castanea|Diospyros Ebenum|Diospyros Kaki|Diospyros Montana|Diospyros crassiflora|Diospyros ebenum|Diospyros japonica|Diospyros maritima|Diospyros mcphersonii|Diospyros paniculata|Diospyros rhodocalyx|Diploclisia glaucescens|Diplopterygium glaucum|Diploschistes cretaceus|Diplotaxis harra|Dipterocarpus dyeri|Distimake tuberosus|Dodonaea Viscosa|Dodonaea viscosa|Doellingeria umbellata var. umbellata|Dolichopentas longiflora|Dolichospermum solitarium|Dolichospermum viguieri|Doris montereyensis|Doris petechialis|Dorstenia brasiliensis|Dorstenia lindeniana|Dovyalis abyssinica|Dracaena cinnabari|Dracaena hanningtonii|Dracocephalum thymiflorum|Dragmacidon lunaecharta|Drimia indica|Drimia sanguinea|Drynaria Fortunei|Dryopteris crenata|Drypetes gossweileri|Drypetes inaequalis|Drypetes indica|Duddingtonia flagrans|Duguetia hadrantha|Duhaldea cappa|Duhaldea nervosa|Dumortiera hirsuta|Durio zibethinus|Duttaphrynus melanostictus|Dysidea avara|Dysidea fragilis|Dysoxylum macranthum|Dysphania graveolens|Ecballium elaterium|Echinometra lucunter|Echinops kebericho|Echinops niveus|Echinus microtuberculatus|Echiochilon pauciflorum|Echium italicum|Eclipta alba|Eclipta prostrata|Ectyoplasia ferox|Egregia menziesii|Electranthera mutica|Eleocharis acutangula|Eleocharis dulcis|Eleocharis sellowiana|Elephantopus Scaber|Elephantopus mollis|Elephantopus scaber|Elephantopus tomentosus|Eleutherococcus senticosus|Eleutherococcus sessiliflorus|Eleutherococcus trichodon|Elmerrillia papuana|Embelia schimperi|Emericellopsis minima|Emilia coccinea|Emilia sonchifolia|Endiandra palmerstoni|Endiandra xanthocarpa|Endosamara racemosa|Entandrophragma angolense|Enteromorpha linza|Epaltes brasiliensis|Epaltes mexicana|Ephedra equisetina|Epidendrum fulgens|Epigaea repens|Epilobium dodonaei|Epiphyllum|Eremanthus crotonoides|Eremanthus glomerulatus|Eremanthus veadeiroensis|Eria elegans|Eria subsessilis|Erigeron canadensis|Eriocapitella tomentosa|Erioderma wrightii|Erucaria microcarpa|Eryngium foetidum|Erythrina indica|Erythrina mildbraedii|Erythrina orientalis|Erythrina sigmoidea|Erythrina stricta|Erythrina variegata|Erythrophleum fordii|Eskemukerjea megacarpum|Espeletia killipii|Ethulia conyzoides|Etlingera elatior|Eucalyptus albens|Eucalyptus bakeri|Eucalyptus cordata|Eucalyptus exserta|Eucalyptus kitsoniana|Eucalyptus tereticornis|Euchresta horsfieldii|Eudendrium glomeratum|Eugenia myrcianthes|Euonymus fortunei|Euonymus japonicus|Eupatorium altissimum|Eupatorium aschenbornianum|Eupatorium cannabinum|Eupatorium perfoliatum|Eupatorium serotinum|Euphorbia Sessiliflora|Euphorbia antiquorum|Euphorbia biglandulosa|Euphorbia bivonae|Euphorbia bungei|Euphorbia ebracteolata|Euphorbia erythraeae|Euphorbia fischeri|Euphorbia fischeriana|Euphorbia humifusa|Euphorbia kaleniczenkii|Euphorbia lathyris|Euphorbia milii|Euphorbia plumerioides|Euphorbia prostrata|Euphorbia pseudocactus|Euphorbia sancta|Euphorbia segetalis|Euphorbia sessiliflora|Euphorbia tirucalli|Euphrasia nemorosa|Euphrasia rubra|Euphydryas cynthia|Euploca racemosa|Euploca scabra|Euplotes vannus|Eurhynchium polystictum|Eurycoma longifolia|Euthamia graminifolia|Evolvulus nummularius|Exochorda giraldii|Eysenhardtia polystachya|Fagara heitzii|Fagonia cretica|Fagopyrum esculentum|Fagraea fragrans|Fagus fusca|Falcaria vulgaris|Fannia femoralis|Farfugium hiberniflorum|Fatsia japonica|Feijoa sellowiana|Ferula arrigonii|Ferulago lutea|Festuca argentina|Festuca hieronymi|Fibraurea tinctoria|Ficus Hirta|Ficus auriculata|Ficus pandurata|Ficus polita|Ficus pumila|Ficus racemosa|Ficus septica|Ficus virens|Flemingia strobilifera|Foeniculum Vulgare|Foeniculum vulgare|Forsythia suspensa|Forsythia viridissima|Foxtail stonewort|Fragaria vesca|Fraxinus chinensis subsp. rhynchophylla|Fritillaria pallidiflora|Fritillaria ussuriensis|Fromia milleporella|Frullania brasiliensis|Frullania falciloba|Fucus spiralis|Fumaria indica|Fumaria kraliki|Fusarium fujikuroi|Gadus brandti|Gaertnera morindoides|Galactites tomentosus|Galeana pratensis|Galega officinalis|Galphimia glauca|Garcinia acuminata|Garcinia afzelii|Garcinia bancana|Garcinia celebica|Garcinia dulcis|Garcinia elliptica|Garcinia hombroniana|Garcinia huillensis|Garcinia lancilimba|Garcinia lateriflora|Garcinia multiflora|Garcinia ovalifolia|Garcinia pyrifera|Garcinia scortechinii|Garcinia speciosa|Garcinia staudtii|Gardenia gordoni|Gardenia tubifera|Gaultheria borneensis|Gaultheria itoana|Gaultheria procumbens|Geigeria burkei|Geigeria burkei var. burkei|Genista anglica|Genista cinerea|Gentiana algida|Gentiana macrophylla|Gentiana tibetica|Ginkgo biloba|Gladiolus italicus|Glebionis coronaria|Glebionis coronarium|Gleditsia sinensis|Glehnia Littoralis|Gleichenia japonica|Glossocardia bidens|Glossogyne tenuifolia|Glycine Max|Glycine max|Glycyrrhiza triphylla|Gmelina leichhardtii|Gnaphalium liebmannii|Gnaphalium oxyphyllum|Gnidia polycephala|Gnidia subcordata|Goldfussia yunnanensis|Gomphrena Celosioides|Goniophlebium formosanum|Goniophlebium mengtzeense|Goniothalamus amuyon|Goniothalamus borneensis|Goniothalamus cardiopetalus|Goniothalamus sesquipedalis|Gonospermum canariense|Gonospermum fruticosum|Gonzalezia hypargyrea|Gossypium hirsutum|Great yellow gentian|Grewia bicolor|Grewia damine|Grewia tenax|Gryllotalpa orientalis|Guadua angustifolia|Guarea glabra|Guarea guidonia|Guarea rhopalocarpa|Guatteria blepharophylla|Guatteria dumetorum|Guettarda noumeana|Guilandina bonduc|Gundelia tournefortii|Gustavia longifolia|Gutierrezia dracunculoides|Gutierrezia gilliesii|Gutierrezia gymnospermoides|Gymnanthemum myrianthum|Gymnopus androsaceus|Gymnotheca involucrata|Gynochthodes officinalis|Gynoxys nitida|Gynura Segetum|Gynura japonica|Gyrostroma missouriense|Haematopus ostralegus|Halidrys siliquosa|Haloxylon salicornicum|Haminoea cymbalum|Haplocarpha lyrata|Haplophyllum bucharicum|Harpullia pendula|Harrisonia abyssinica|Hebanthe erianthos|Hedera canariensis|Hedychium coronarium|Hedychium yunnanense|Hedyotis Corymbosa|Hedysarum gmelini|Hedysarum multijugum|Hedysarum setigerum|Heisteria nitida|Helenium integrifolium|Helianthus annuus|Helianthus porteri|Helianthus radula|Helianthus simulans|Helichrysum auriceps|Helichrysum graveolens|Helichrysum nudifolium|Helichrysum subulifolium|Heliotropium Indicum|Heliotropium ellipticum|Heliotropium marifolium|Hemsleya graciliflora|Hepialus californicus|Heptapleurum arboricola|Herrania albiflora|Hertia cheirifolia|Heterocoma ekmaniana|Heteromorpha arborescens var. abyssinica|Heteropolygonatum alte-lobatum|Heterotheca inuloides|Hexagonia speciosa|Hibiscus cannabinus|Hibiscus taiwanensis|Hieracium canadense|Hieracium kalmii|Hieronyma alchorneoides|Hilliardiella aristata|Himantoglossum hircinum|Himatanthus articulatus|Hippophae rhamnoides|Homalium longifolium|Homalolepis cuneata|Homo sapiens|Hordeum Vulgare|Hordeum vulgare var. distichon|Hoslundia opposita|Hovea acutifolia|Hubertia tomentosa|Hultholia mimosoides|Hyalis argentea|Hyella caespitosa|Hygrophila auriculata|Hygrophila schulli|Hylocereus undatus|Hymeniacidon perleve|Hymeniacidon sanguinea|Hymenopappus scabiosaeus|Hymenothrix glandulopubescens|Hymenoxys hoopesii|Hyperbaena columbica|Hypericum brasiliense|Hypericum jovis|Hypericum laricifolium|Hypericum perforatum|Hypericum prolificum|Hypericum triquetrifolium|Hyphear tanakae|Hypholoma capnoides|Hypnum plumaeforme|Hypolepis punctata|Hypopitys monotropa|Hypoxis nyasica|Hypoxylon deustum|Hyptis capitata|Hyrtios eubamma|Ifloga spicata|Ilex oldhami|Inga paterno|Inula Cappa|Inula anatolica|Inula britannica|Inula japonica|Inula linariifolia|Inula multicaulis|Inula salsoloides|Inula thapsoides|Iophon|Iostephane heterophylla|Iotrochota baculifera|Iotrochota purpurea|Ipheion uniflorum|Ipomoea cairica|Iresine diffusa|Iris hoogiana|Iris pallida|Iris sofarana|Iris versicolor|Isoberlinia angolensis|Isodon japonicus|Isodon lophanthoides|Isodon scoparius|Isodon serra|Isodon umbrosus|Isodon yuennanensis|Isolona congolana|Isolona maitlandii|Isoplexis chalcantha|Isoplexis isabelliana|Isotachis japonica|Ixeridium gracile|Ixeris sonchifolia|Ixora chinensis|Ixora coccinea|Jaborosa leucotricha|Jacobaea pancicii|Jacobaea persoonii|Jacobaea vulgaris|Jasonia montana|Juglans regia|Jungia polita|Juniperus scopulorum|Juniperus serawschanica|Justicia tranquebariensis|Justicia trinervia|Kaempferia rotunda|Kalanchoe Spathulata|Kalanchoe daigremontiana|Kalanchoe petitiana|Kalanchoe pinnata|Kallstroemia maxima|Kallstroemia tribuloides|Kalmia angustifolia|Karelinia|Kaunia lasiophthalma|Kermadecia elliptica|Khaya Senegalensis|Khaya anthotheca|Khaya senegalensis|Kickxia elatine|Kielmeyera variabilis|Kiggelaria africana|Klebsiella pneumoniae subsp. ozaenae|Knightia deplanchei|Koelreuteria paniculata|Koompassia malaccensis|Kopsia grandifolia|Kopsia longiflora|Krameria tomentosa|Lactarius deliciosus var. deterrimus|Lactarius quietus|Lactarius uvidus|Ladeania juncea|Laetiporus versisporus|Lagenaria breviflora|Lagenaria siceraria|Laggera alata|Lamium amplexicaule|Lanaria lanata|Lanice conchilega|Lantana camara|Lantana ukambensis|Laserpitium siler|Lasianthaea podocephala|Lasianthus fordii|Lasiolaena morii|Launaea arborescens|Launaea aspleniifolia|Laurencia dendroidea|Laurencia obtusa|Laurencia pacifica|Laurentia longiflora|Lawrencella rosea|Lawsonia inermis|Leandra lacunosa|Lecanora rupicola|Lechevalieria flava|Ledebouria socialis|Leitneria floridana|Lens culinaris|Leonurus persicus|Lepechinia caulescens|Lepidaploa lilacina|Lepidium meyenii|Lepidophorum repandum|Lepidozia reptans|Lepisanthes tetraphylla|Lepisorus thunbergianus|Lepista irina|Leplaea mayombensis|Lepraria citrina|Lessingia glandulifera|Lessingianthus rubricaulis|Lethasterias fusca|Leucas aspera|Leucas cephalotes|Leucas nutans|Leucobryum scabrum|Leuzea longifolia|Liabum floribundum|Liabum solidagineum|Liatris graminifolia|Liatris spicata|Libocedrus plumosa|Ligularia amplexicaulis|Ligularia atroviolacea|Ligularia duciformis|Ligularia macrophylla|Ligularia nelumbifolia|Ligularia tongolensis|Ligularia veitchiana|Ligusticum porteri|Ligustrum obtusifolium|Lilium Brownii|Limnodynastes terraereginae|Limonia acidissima|Limonium aureum|Limonium axillare|Linaria genistifolia|Lindera sericea|Linostoma pauciflorum|Linum usitatissimum|Lippia adoensis|Liriodendron tulipifera|Litchi chinensis|Lithodora fruticosa|Lithospermum canescens|Litsea glutinosa|Litsea umbellata|Lobatiriccardia lobata|Locusta migratoria|Lonchocarpus minimiflorus|Lonchocarpus urucu|Lonicera Japonica|Lophanthera lactescens|Loranthus tanakae|Lotus ucrainicus|Lotus villosus|Loxocalyx urticifolius|Lubomirskia baicalensis|Lucilia caesar|Luffa aegyptiaca|Lupinus cosentinii|Lupinus luteus|Lupinus macounii|Luvunga Sarmentosa|Luvunga angustifolia|Luxemburgia nobilis|Luxemburgia octandra|Lychnophora columnaris|Lychnophora ericoides|Lychnophora hakeaefolia|Lychnophora markgravii|Lychnophora pseudovillosissima|Lychnophora salicifolia|Lycium Chinense|Lycopus europaeus|Lysimachia fordiana|Lysimachia heterogenea|Lysimachia patungensis|Macaranga sampsonii|Macaranga sinensis|Machilus japonica|Machilus zuihoensis|Maclura pomifera|Macoma balthica|Madhuca longifolia|Madia sativa|Maerua oblongifolia|Magnolia compressa|Magnolia kachirachirai|Maianthemum canadense|Malleastrum boivinianum|Mallotus resinosus|Malus orientalis|Malus pumila|Malus sylvestris|Malva sylvestris|Mangifera indica|Manihot Esculenta|Manihot esculenta|Mannia fragrans|Mansoa alliacea|Marasmius prasiosmus|Marchantia palmata|Marchantia polymorpha|Markhamia lutea|Markhamia platycalyx|Marsdenia rostrata|Marsypianthes chamaedrys|Maschalostachys markgrafii|Mastigophora diclados|Matricaria chamomilla|Matteuccia struthiopteris|Matthiola fruticulosa|Matthiola incana|Mauremys reevesii|Mayetiola destructor|Maytenus buxifolia|Maytenus laevis|Maytenus salicifolia|Medicago monspeliaca|Melaleuca quinquenervia|Melampodium leucanthum|Melia azedarach|Melia azedarach var. toosendan|Melicope indica|Melicope latifolia|Melicope semecarpifolia|Melicope sessiliflora|Melicope triphylla|Melilotus indicus|Melochia tomentosa|Melodorum fruticosum|Melodorum oldhamii|Mentha spicata|Mesembryanthemum anatomicum|Mesua beccariana|Mesua elegans|Mesua ferrea|Metanarthecium luteoviride|Methanosarcina barkeri|Methysticodendron amesianum|Metridium senile|Metrodorea nigra|Metzgeria pubescens|Michelia rajaniana|Microglossa pyrifolia|Micromelum minutum|Micromonospora echinospora|Microtropis fokienensis|Mikania campanulata|Mikania cordata|Mikania decora|Mikania glomerata|Mikania goyazensis|Mikania grazielae|Mikania haenkeana|Mikania hoehnei|Mikania micrantha|Mikania microptera|Mikania minima|Mikania pohlii|Mikania rimachii|Mikania saltensis|Mikania stipulacea|Mikania triangularis|Millettia pinnata|Millettia vatkei|Mirabilis jalapa|Mitchella repens|Mitrephora vulpina|Modiolus demissus|Mollinedia costaricensis|Mollinedia marliae|Momordica charantia|Monanthotaxis trichocarpa|Monocyclanthus vignei|Monomorium pharaonis|Monosis parishii|Monotropa hypopitys|Monotropa uniflora|Montanoa karwinskii|Montanoa leucantha|Montanoa tomentosa|Monteverdia aquifolium|Monteverdia ilioppjfeowneviufheiuwfew fgr|Monteverdia truncata|Moraceae|Morella pensylvanica|Morinda Umbellata|Morinda citrifolia|Morinda elliptica|Morus alba|Mosla dianthera|Mucuna membranacea|Mulinia lateralis|Muricea californica|Murraya gleniei|Murraya koenigii|Murraya paniculata|Musella lasiocarpa|Mussaenda Pubescens|Myelobia smerintha|Myrianthus arboreus|Myrica multiflora|Myristica argentea|Myristica cagayanensis|Myristica malabarica|Myrovernix scaber|Myrsine africana|Nabalus trifoliolatus|Narcissus tazetta|Nauclea diderrichii|Nectandra amazonum|Nelumbo nucifera|Nematochrysopsis marina|Neobeguea mahafalensis|Neobeguea mahafaliensis|Neolamarckia cadamba|Neolitsea acuminatissima|Neonauclea purpurea|Neoraputia magnifica|Nepeta caesarea|Nepeta suavis|Nephelium mutabile|Nephroma cellulosum|Nerium oleander|Nervilia aragoana|Nervilia concolor|Nervilia plicata|Nicotiana debneyi|Nicotiana forsteri|Nicotiana fragrans|Nicotiana paniculata|Nicotiana tabacum|Nidorella aegyptiaca|Nigella glandulifera|Nigella sativa|Nocardia alba|Nodularia harveyana|Nostoc carneum|Nostoc commune|Notholaena aschenborniana|Notholaena lemmonii|Nothoscordum montevidense|Nuphar lutea|Nymphaea odorata|Ocimum gratissimum|Ocimum kilimandscharicum|Ocimum spicatum|Ocimum tenuiflorum|Oclemena acuminata|Ocotea acutangula|Ocotea corymbosa|Odocoileus hemionus|Odontites vernus|Oenanthe javanica|Oenothera biennis|Oeosporangium kuhnii|Olea europaea|Onopordum ambiguum|Onopordum cyrenaicum|Onopordum macrocanthum|Onopordum nervosum|Onoseris gnaphalioides|Onoseris onoseroides|Onychopetalum amazonicum|Oocystis polymorpha|Ophiarthrum elegans|Ophidiaster ophidianus|Ophiocordyceps sinensis|Ophiopogon Japonicus|Opuntia humifusa humifusa|Opuntia humifusa var. humifusa|Orbexilum onobrychis|Orbivestus leopoldii|Oriciopsis glaberrima|Ormosia dasycarpa|Ormosia elata|Ornithopus sativus|Orthosiphon grandiflorus|Oryza Sativa|Oryza coarctata|Oryza sativa|Oscillatoria princeps|Osmanthus armatus|Osteospermum corymbosum|Ostrea edulis|Otostegia fruticosa|Ouratea semiserrata|Oxybasis rubra|Ozoroa insignis|Ozothamnus adnatus|Ozothamnus bilobus|Pachycereus tehuantepecanus|Padina gymnospora|Padina vickersiae|Paederia Foetida|Paeonia lactiflora|Paliurus hemsleyanus|Panax ginseng|Panax innovans|Panicum miliaceum|Papaver pseudocanescens|Papaver rhoeas|Papaver somniferum|Paracribricellina cribraria|Paranephelius uniflorus|Parasenecio auriculata|Parasenecio auriculatus|Parasenecio pilgerianus|Parastrephia lepidophylla|Pardachirus pavoninus|Parerythropodium fulvum|Paris polyphylla var. chinensis|Parmelia barbata|Parmelia springtonensis|Parmelia tinctina|Parmentiera cereifera|Paspalum scrobiculatum|Patiria miniata|Patrinia intermedia|Pecten irradians|Pellacalyx axillaris|Penicillium chrysogenum|Penicillium cinerascens|Penicillium decumbens|Penicillium leucopus|Penstemon secundiflorus|Peperomia humilis|Peperomia leptostachya|Peperomia pellucida|Pereskia aculeata|Perezia multiflora|Pericallis cruenta|Periconia byssoides|Perilla frutescens|Periploca forrestii|Perovskia atriplicifolia|Perrottetia arisanensis|Persea americana|Persea mexicana|Persicaria filiformis|Persicaria hydropiper|Persicaria pubescens|Perymenium jelskii|Peschiera affinis|Pestalotiopsis oenotherae|Pestalotiopsis virgatula|Petalostemon purpureum|Peteravenia malvaefolia|Petersianthus macrocarpus|Petrosia ficiformis|Petrosia hebes|Petunia hybr|Peucedanum graveolens|Peucedanum praeruptorum|Phagnalon purpurascens|Phanera retusa|Phaseolus Vulgaris|Phaseolus vulgaris|Phebalium dentatum|Phedimus kamtschaticus|Phegopteris subaurita|Phenax angustifolius|Phialophora cyclaminis|Philodendron radiatum|Phlegmariurus squarrosus|Phlogacanthus thyrsiflorus|Phlomis crinita|Phlomis regelii|Phlomoides hamosa|Phoebe grandis|Phoenix canariensis|Phoenix dactylifera|Phoenix hanceana|Phora atra|Phormia regina|Phryxe caudata|Phyllanthus flexuosus|Phyllanthus oligospermus|Phyllanthus sellowianus|Phyllanthus urinaria|Phyllanthus velutinus|Physalis coztomatl|Physalis sordida|Phytolacca acinosa|Picradeniopsis pringlei|Picradeniopsis schaffneri|Picradeniopsis xylopoda|Picramnia teapensis|Picrolemma|Pilocarpus goudotianus|Pinellia ternata|Pinus elliottii|Pinus radiata|Piper Nigrum|Piper aduncum|Piper arboreum|Piper betle|Piper brachystachyum|Piper dilatatum|Piper guayranum|Piper kadsura|Piper lolot|Piper nigrum|Piper pedicellatum|Piper sarmentosum|Piptadenia colubrina|Piptocarpha chontalensis|Piptocarpha opaca|Piptostigma fugax|Pisonia aculeata|Pistacia vera|Pittosporum illicioides|Plagiochasma rupestre|Plagiochila acanthophylla|Plagiochila asplenioides|Plagiochila pulcherrima|Plagiomnium cuspidatum|Plakinastrella clathrata|Planaltoa lychnophoroides|Plantago Asiatica|Plantago Major|Plantago asiatica|Plantago lanceolata|Plantago major|Platanus occidentalis|Platostoma palustre|Platycladus orientalis|Platypodium elegans|Plectranthus|Plectranthus lanuginosus|Pleiospermium alatum|Pleurozia gigantea|Pluchea Indica|Pluchea chingoyo|Pluchea dioscoridis|Pluchea indica|Pluchea lanceolata|Pluchea odorata|Pluchea sagittalis|Plumbago indica|Plumeria|Pneumocystis carinii|Podachaenium eminens|Podocarpus amarus|Podolepis longipedata|Pogonatum otaruense|Polemonium caeruleum|Polyanthina nemorosa|Polygala Arillata|Polygala caudata|Polygonum flaccidum|Polypodium barometz|Polyscias bracteata|Polystictus versicolor|Polytrichum formosum|Ponera metallica|Pongamia pinnata|Pontederia cordata|Populus alba|Populus yunnanensis|Porella platyphylla|Porella swartziana|Portulaca oleracea|Posidonia oceanica|Postia guttulata|Potamogeton malaianus|Potamogeton nodosus|Potebniamyces gallicola|Potentilla candicans|Potentilla fruticosa|Pourouma guianensis|Pouzolzia occidentalis|Prenanthes trifoliolata|Prismatomeris tetrandra|Prosopis glandulosa|Protium heptaphyllum|Protohermes grandis|Prunella vulgaris|Prunus armeniaca|Prunus avium|Prunus cerasoides|Prunus dulcis|Prunus laurocerasus|Prunus mahaleb|Prunus zippeliana|Psacalium megaphyllum|Pseudallescheria boydii|Pseudelephantopus spicatus|Pseudocyphellaria australiensis|Pseudocyphellaria rubella|Pseudodictamnus undulatus|Pseudognaphalium cheiranthifolium|Pseudognaphalium gaudichaudianum|Pseudognaphalium pellitum|Pseudognaphalium schraderi|Pseudognaphalium viscosum|Pseudogymnoascus pannorum|Pseudomonas chlororaphis|Pseudomonas viridiflava|Pseudowintera colorata|Psidium acutangulum|Psilotum nudum|Psophocarpus tetragonolobus|Psoralea Corylifolia|Psychotria Serpens|Psychotria calocarpa|Pteris japonica|Pterocarpus marsupium|Pterocaulon polystachyum|Ptilidium ciliare|Ptilidium pulcherrimum|Ptilota pectinata|Pueraria montana var. lobata|Pulicaria angustifolia|Pulicaria arabica|Pulicaria canariensis|Pulicaria crispa|Pulicaria dysenterica|Pulicaria paludosa|Pulicaria scabra|Pulicaria wightiana|Punica Granatum|Punica granatum|Purpura aperta|Pygeum acuminatum|Pyrobaculum organotrophum|Quercus agrifolia|Quercus ilex|Quercus imbricaria|Quercus rotundifolia|Quercus serra|Ramalina|Ramalina paludosa|Randia siamensis|Ranunculus sceleratus|Ranunculus silerifolius|Raputia praetermissa|Ratibida columnifera|Rauvolfia mattfeldiana|Rauvolfia serpentina|Rauvolfia vomitoria|Ravenia spectabilis|Reboulia hemisphaerica|Rehmannia Glutinosa|Relbunium hypocarpium|Relhania acerosa|Renealmia alpinia|Rhagoletis cerasi|Rhamnus cathartica|Rhamnus formosana|Rheum hotaoense|Rhinacanthus nasutus|Rhinella arenarum|Rhizogonium dozyanum|Rhizophora apiculata|Rhizophora mucronata|Rhodanthe maryonii|Rhodobacter sphaeroides|Rhodobryum roseum|Rhododendron aureum|Rhododendron campylocarpum|Rhododendron fulgens|Rhododendron groenlandicum|Rhododendron mucronulatum|Rhododendron ponticum|Rhodopentas bussei|Rhynchosia minima|Rhynchosporium orthosporum|Ricciocarpos natans|Ricciocarpus natans|Richardia grandiflora|Ricinus communis|Robinsonecio gerberifolius|Rolandra fruticosa|Rosa sericea|Rosa transmorrisonensis|Rotheca serrata|Rothmannia macrophylla|Rubia wallichiana|Rubus allegheniensis|Rubus crataegifolius|Rubus pileatus|Rubus rosa|Rubus rosaefolius|Rubus rosifolius|Rudbeckia hirta var. pulcherrima|Rudbeckia mollis|Rudbeckia subtomentosa|Rudgea jasminoides|Ruellia Tuberosa|Ruellia rosea|Rumex paulsenianus|Ruprechtia tangarana|Ruscus aculeatus|Ruscus sp.|Russula subnigricans|Ruta microcarpa|Rydingia integrifolia|Saccharomyces cerevisiae|Saccharothrix mutabilis|Saccharum Sinensis|Salix matsudana|Salmea scandens|Salpa thompsoni|Salsola collina|Salvadora oleoides|Salvia aegyptiaca|Salvia amplexicaulis|Salvia bucharica|Salvia fruticosa|Salvia glutinosa|Salvia hispanica|Salvia jaminiana|Salvia limbata|Salvia miltiorrhiza|Salvia officinalis|Salvia oxyodon|Salvia tchihatcheffii|Salvia triloba|Samanea saman|Sanango racemosum|Sanguinaria canadensis|Sanicula epipactis|Sapium rigidifolium|Saracha punctata|Sarcomyxa serotina|Sarcophyton flexuosum|Sargassum filipendula|Sargassum furcatum|Sarracenia purpurea|Satureja douglasii|Sauropus quadrangularis|Saussurea Lappa|Saussurea controversa|Saussurea japonica|Scabiosa comosa|Scaevola spinescens|Scapania aequiloba|Scapania undulata|Scarlet firethorn|Schefflera arboricola|Schefflera rhododendrifolia|Schistochila glaucescens|Schizonepeta annua|Schkuhria schkuhrioides|Schnella guianensis|Schotia brachypetala|Schottera nicaeensis|Sciadotenia toxifera|Scleropyrum Wallichianum|Scleropyrum pentandrum|Scleropyrum wallichianum|Scolytus multistriatus|Scorzonera hispanica|Scorzoneroides autumnalis|Scrophularia koelzii|Scutellaria Baicalensis|Scutellaria glabra|Scutellaria seleriana|Sebastiania schottiana|Selaginella labordei|Selenicereus undatus|Selinum carvifolium|Selinum libanotis|Semen torreyae|Senecio congestus|Senecio glastifolius|Senecio glutinosus|Senecio kilimanjari|Senecio madagascariensis|Senecio ruwenzoriensis|Senecio viscosus|Senegalia catechu|Senna corymbosa|Senna didymobotrya|Senna italica|Senna lindheimeriana|Senna obtusifolia|Senna occidentalis|Senna petersiana|Senna racemosa|Senna singueana|Septomyxa affinis|Serenoa sp.|Sertularella crassicaulis|Sesamum alatum|Sesamum angustifolium|Sesamum orientale|Sesamum radiatum|Setaria glauca|Setaria italica|Sidastrum acuminatum|Sideritis arborescens|Sideritis argosphacelus|Sideritis candicans|Sideritis dasygnaphala|Sideritis discolor|Sideritis kuegleriana|Sideritis lasiantha|Sideritis lotsyi|Sideritis soluta|Sideritis syriaca|Sideritis taurica|Siegesbeckia pubescens|Sigesbeckia glabrescens|Simplicillium lanosoniveum|Simsia cronquistii|Sinapis alba|Sindora sumatrana|Sindora wallichii|Sinularia gyrosa|Siparuna apiosyce|Siparuna brasiliensis|Siphocampylus verticillatus|Sipunculus nudus|Skimmia japonica|Smallanthus maculatus|Smenospongia aurea|Smilax glabra|Smilax macrophylla|Smooth hawksbeard|Smyrnium cordifolium|Smyrnium galaticum|Smyrnium perfoliatum|Solanum aethiopicum|Solanum andigena|Solanum argentinum|Solanum arundo|Solanum aviculare|Solanum dulcamara|Solanum lanceolatum|Solanum lasiocarpum|Solanum lycopersicum|Solanum mammosum|Solanum melongena|Solanum nigrum|Solanum palitans|Solanum pseudocapsicum|Solanum pseudopersicum|Solanum racemigerum|Solanum torvum|Solanum tuberosum|Solanum violaceum|Solanum virginianum|Solidago canadensis|Solidago leavenworthii|Solidago puberula|Solidago rugosa|Sonchus arvensis|Sonchus neriifolius|Sonneratia alba|Sophora moorcroftiana|Sophora viciifolia|Sordaria araneosa|Sorghum bicolor|Sorgum bicolor|Spartium junceum|Spatholobus roxburghii|Spergula japonica|Sphaeranthus confertifolius|Sphaeranthus suaveolens|Sphaeria herpotrichoides|Sphagneticola trilobata|Spilanthes ocymifolia|Spilanthes paniculata|Spiracantha cornifolia|Spiraea formosana|Spongia equina|Spongionella gracilis|Stangeria eriopus|Stanhopea lietzei|Staphisagria macrosperma|Staphylea bumalda|Stauntonia hexaphylla|Stellaria dichotoma|Stellaria media|Stemodia foliosa|Stemona Collinsae|Stemona collinsae|Stemona curtisii|Stenolobium stans|Stephania aculeata|Stephania epigaea|Sterculia balanghas|Stevia connata|Stevia jujuyensis|Stevia lemmoni|Stevia monardifolia|Stevia porphyrea|Stevia serrata|Stichopus horrens|Stilpnopappus tomentosus|Streptomyces anandii|Streptomyces atratus|Streptomyces caelestis|Streptomyces erythrochromogenes|Streptomyces eurythermus|Streptomyces flavoviridis|Streptomyces jumonjinensis|Streptomyces melanogenes|Streptomyces noursei|Streptomyces parvisporogenes|Streptomyces platensis|Streptomyces pseudovenezuelae|Streptomyces ribosidificus|Streptomyces rochei|Streptomyces sclerotialus|Streptomyces xanthocidicus|Strychnos decussata|Strychnos elaeocarpa|Strychnos ledermannii|Strychnos spinosa|Strychnos wallichiana|Stylotrichium rotundifolium|Styrax hookeri|Styrax obassia|Suaeda aegyptiaca|Suaeda maritima|Suberites domuncula|Swamp dewberry|Swartzia apetala|Swartzia arborescens|Symphonia globulifera|Symphoricarpos albus|Symphyotrichum novi-belgii var. novi-belgii|Symphyotrichum subulatum var. squamatum|Symplocarpus foetidus|Syncolostemon parviflorus|Synedra acus|Synedrellopsis grisebachii|Synoicum pulmonaria|Synsepalum dulcificum|Syphonota geographica|Tabernaemontana catharinensis|Tabernaemontana divaricata|Tabernaemontana markgrafiana|Tabernaemontana pachysiphon|Tachypleus tridentatus|Tadehagi triquetrum|Tagetes erecta|Tagetes patula|Tamarix aphylla|Tamus communis|Tanacetum sinaicum|Tanacetum vulgare|Tanaecium bilabiatum|Tapinella panuoides|Taraxacum borealisinense|Taraxacum coreanum|Taraxacum formosanum|Taraxacum hallaisanense|Taraxacum mongolicum|Taraxacum officinale|Taraxacum platycarpum|Targionia hypophylla|Tedania anhelans|Telekia speciosa|Tephroseris integrifolia|Tephroseris kirilowii|Tephrosia apollinea|Tephrosia carrollii|Tephrosia crassifolia|Tephrosia leiocarpa|Tephrosia madrensis|Tephrosia major|Tephrosia purpurea|Tephrosia uniflora|Tephrosia villosa|Tephrosia viridiflora|Tephrosia watsoniana|Terminalia superba|Ternstroemia Gymnanthera|Tersonia brevipes|Tessaria absinthioides|Tethya deformis|Tetragonia tetragonoides|Tetraneuris linearifolia|Tetrapanax papyrifer|Teucrium divaricatum|Teucrium orientale|Teucrium pestalozzae|Teucrium pilosum|Thalia multiflora|Thalictrum pubescens|Thamnolia vermicularis|Theobroma speciosum|Thermopsis mollis|Thomandersia laurifolia|Thuidium tamariscinum|Thuja plicata|Thujopsis dolabrata|Thymelaea hirsuta|Thyrsanthera suborbicularis|Ticorea longiflora|Tillandsia brachycaulos|Tillandsia fasciculata|Tillandsia streptocarpa|Tithonia longiradiata|Todaroa aurea|Toddalia aculeata|Toddalia asiatica|Toddalia floribunda|Tolpis webbii|Tolypothrix tjipanasensis|Tomophagus colossus|Toona ciliata|Toona sinensis|Torenia anagallis|Tornabea scutellifera|Torrubiella hemipterigena|Tovomita brasiliensis|Tovomita choisyana|Tovomita excelsa|Tovomita fructipendula|Trachyrhamphus serratus|Tragopogon orientalis|Tragopogon pratensis|Trametes sanguinea|Triadica sebifera|Trianthema portulacastrum|Tribulus terrestris|Trichilia claussenii|Trichilia connaroides|Trichilia havanensis|Trichilia lepidota|Trichilia schomburgkii|Trichocolea tomentella|Trichoderma citrinum|Trichogonia santosii|Trichosanthes Kirilowi|Trichosanthes kirilowii|Trichosanthes rosthornii|Trifoliate orange|Trifolium alpestre|Trifolium apertum|Trifolium pannonicum|Trifolium repens|Triglochin maritima|Trigonella balansae|Trigonella caerulea|Trigonella calliceras|Trigonella corniculata|Trigonella cretica|Trigonella foenum-graecum|Trigonostemon Reidioides|Trigonostemon heterophyllus|Trigonostemon reidioides|Trilophozia quinquedentata|Triphasia trifolia|Tripodanthus acutifolius|Tripterospermum lanceolatum|Tripterygium regelii|Tripterygium wilfordii|Triticum aestivum|Tritomaria quinquedentata|Triumfetta cordifolia|Trixis grisebachii|Trixis praestans|Turbinellus kauffmanii|Turraeanthus africanus|Tussilago farfara|Tylophora indica|Tylophora tanakae|Typha latifolia|Uga sinensis|Ulmus laevis|Ulmus uyematsui|Ulnaria acus|Ulva linza|Ulva prolifera|Ulva rigida|Umbelopsis vinacea|Umbilicaria cinereorufescens|Umtiza listeriana|Ungernia minor|Unonopsis guatterioides|Urolepis hecatantha|Urospermum dalechampii|Ursinia nana|Urtica triangularis|Usnea magellanica|Uvaria kirkii|Uvaria mocoli|Uvaria puguensis|Uvaria scheffleri|Vachellia leucophloea|Vanilla planifolia|Vanilla tahitensis|Vellozia declinans|Vellozia nanuzae|Vellozia piresiana|Vellozia pusilla|Vellozia stipitata|Veltheimia viridifolia|Ventilago Leiocarpa|Ventilago leiocarpa|Vepris glaberrima|Verbascum thapsus|Verbena bonariensis|Verbesina turbacensis|Vernonanthura chamaedrys|Vernonanthura divaricata|Vernonanthura fagifolia|Vernonanthura montevidensis|Vernonanthura nudiflora|Vernonanthura squamulosa|Vernonia echitifolia|Vernonia elaeagnifolia|Vernonia galamensis|Vernonia incana|Vernonia mollissima|Vernonia tufnellae|Verongula gigantea|Veronica liwanensis|Veronica pectinata|Verpa digitaliformis|Viburnum betulifolium|Viburnum davidii|Viburnum grandifolium|Viburnum opulus|Viburnum tinus|Vigna angularis|Vigna radiata|Vigna unguiculata|Viguiera annua|Vincetoxicum indicum|Viola formosana|Virola peruviana|Virola surinamensis|Viscum album|Vitex quinata|Vitis vinifera|Viviparus japonicus|Volkameria inermis|Vouacapoua macropetala|Water net|Wedelia acapulcensis var. hispida|Wedelia hookeriana|Wedelia montevidensis|Wedelia triloba|West African Pepper|Wettsteinia inversa|Wikstroemia lanceolata|Withania somnifera|Wollastonia biflora|Xanthium strumarium|Xestospongia testudinaria|Xylocarpus moluccensis|Xylopia aethiopica|Xylopia aromatica|Xylopia frutescens|Yucca gloriosa|Zantedeschia aethiopica|Zanthoxylum ailanthoides|Zanthoxylum asiaticum|Zanthoxylum avicennae|Zanthoxylum caudatum|Zanthoxylum heitzii|Zanthoxylum integrifoliolum|Zanthoxylum monophyllum|Zanthoxylum zanthoxyloides|Zataria multiflora|Zea Mays|Zephyranthes flava|Zinnia citrea|Ziziphora pedicellata|Ziziphus mauritiana|basil|caesalpinia volkensii|common sunflower|crumb-of-bread sponge|green bristle-grass|jungermannia turcata|liquorice|maize|rhubarb|sesame|soybean|sweet potato|tomato|watermelon

>  <collections>  (1219) 
ANPDB|Australian natural products|CMAUP (cCollective molecular activities of useful plants)|ChEBI NPs|EMNPD|FooDB|Latin America dataset|Mitishamba database|NANPDB (Natural Products from Northern African Sources)|NAPRORE-CR|NPACT|NPASS|NPEdia|NuBBEDB|Phyto4Health|PhytoLab phyproof® Reference Substances|SANCDB|Super Natural II|TCMDB-Taiwan (Traditional Chinese Medicine database)|VietHerb|WikiData Natural Products

>  <dois>  (1219) 
10.1002/(SICI)1099-1573(1998)12:1+<S74::AID-PTR255>3.0.CO;2-V|10.1002/(SICI)1099-1573(199805)12:3<209::AID-PTR215>3.0.CO;2-P|10.1002/(SICI)1099-1573(199902)13:1<78::AID-PTR384>3.0.CO;2-F|10.1002/(SICI)1099-1573(199903)13:2<175::AID-PTR395>3.0.CO;2-N|10.1002/(SICI)1099-1573(199906)13:4<329::AID-PTR458>3.0.CO;2-U|10.1002/(SICI)1099-1573(199908/09)13:5<433::AID-PTR457>3.0.CO;2-4|10.1002/1099-1565(200011/12)11:6<345::AID-PCA540>3.0.CO;2-T|10.1002/1521-4184(20008)333:8<275::AID-ARDP275>3.0.CO;2-4|10.1002/1521-4184(200208)335:6<267::AID-ARDP267>3.0.CO;2-E|10.1002/9780470330319.CH61|10.1002/CBDV.200800128|10.1002/CBDV.200800270|10.1002/CBDV.200900172|10.1002/CHIN.198414320|10.1002/CHIN.198932308|10.1002/CHIN.199517179|10.1002/CHIN.199841193|10.1002/CHIN.199908196|10.1002/CHIN.200052207|10.1002/CHIN.200307137|10.1002/CHIN.200340213|10.1002/CHIN.200342212|10.1002/CHIN.200343156|10.1002/CHIN.200352219|10.1002/CHIN.200401162|10.1002/CHIN.200401163|10.1002/CHIN.200403232|10.1002/CHIN.200421200|10.1002/CHIN.200434239|10.1002/CHIN.200445191|10.1002/CHIN.200447158|10.1002/CHIN.200517223|10.1002/CHIN.200533256|10.1002/CHIN.200537209|10.1002/CHIN.200539166|10.1002/CHIN.200549164|10.1002/CHIN.200550175|10.1002/CHIN.200607219|10.1002/CHIN.200610214|10.1002/CHIN.200612184|10.1002/CHIN.200612191|10.1002/CHIN.200640213|10.1002/CHIN.200652188|10.1002/CHIN.200729163|10.1002/CHIN.201034210|10.1002/HLCA.200490257|10.1002/HLCA.200790187|10.1002/HLCA.200890222|10.1002/HLCA.201000289|10.1002/HLCA.201000301|10.1002/JCCS.196100012|10.1002/JCCS.197600017|10.1002/JCCS.198200006|10.1002/JCCS.198500015|10.1002/JCCS.199200061|10.1002/JCCS.199300014|10.1002/JCCS.199700056|10.1002/JCCS.199800016|10.1002/JCCS.199800035|10.1002/JCCS.199900084|10.1002/JCCS.200000075|10.1002/JCCS.200000124|10.1002/JCCS.200000152|10.1002/JCCS.200100154|10.1002/JCCS.200100177|10.1002/JCCS.200200019|10.1002/JCCS.200400094|10.1002/JCCS.200400131|10.1002/JCCS.200700112|10.1002/JPS.2600620431|10.1002/JPS.2600620945|10.1002/JPS.2600641019|10.1002/JPS.2600690917|10.1002/JPS.2600710621|10.1002/JPS.2600770620|10.1002/JSFA.2740580210|10.1002/JSFA.2740590309|10.1002/MRC.1550|10.1002/MRC.2050|10.1002/PCA.656|10.1002/PCA.757|10.1002/PTR.1003|10.1002/PTR.1731|10.1002/PTR.2650080603|10.1002/PTR.759|10.1002/PTR.837|10.1002/fsn3.3317|10.1006/ABBI.1998.0666|10.1006/BIOO.1993.1007|10.1006/FSTL.2001.0775|10.1007/978-1-4020-6955-0_40|10.1007/978-3-319-26065-5_19|10.1007/978-3-7091-1084-3_4|10.1007/978-81-322-3912-3_507|10.1007/978-94-007-7395-0_12|10.1007/BF00267653|10.1007/BF00269127|10.1007/BF00269298|10.1007/BF00564927|10.1007/BF00567726|10.1007/BF00569611|10.1007/BF00574222|10.1007/BF00574357|10.1007/BF00575732|10.1007/BF00576204|10.1007/BF00579640|10.1007/BF00598098|10.1007/BF00601276|10.1007/BF00629775|10.1007/BF00630230|10.1007/BF00630417|10.1007/BF00630448|10.1007/BF00630587|10.1007/BF00633411|10.1007/BF00633412|10.1007/BF00633415|10.1007/BF01196983|10.1007/BF01952468|10.1007/BF02236284|10.1007/BF02238348|10.1007/BF02249626|10.1007/BF02249629|10.1007/BF02282420|10.1007/BF02534547|10.1007/BF02534857|10.1007/BF02535143|10.1007/BF02535183|10.1007/BF02536024|10.1007/BF02536432|10.1007/BF02536605|10.1007/BF02537347|10.1007/BF02540460|10.1007/BF02540958|10.1007/BF02541498|10.1007/BF02541591|10.1007/BF02541638|10.1007/BF02637687|10.1007/BF02660305|10.1007/BF02856537|10.1007/BF02857191|10.1007/BF02986020|10.1007/BF03046638|10.1007/S10600-005-0010-5|10.1007/S10600-006-0002-0|10.1007/S10600-006-0193-4|10.1007/S10600-007-0071-8|10.1007/S10600-007-0083-4|10.1007/S10600-007-0232-9|10.1007/S10600-008-0043-7|10.1007/S10600-008-9063-6|10.1007/S10600-008-9064-5|10.1007/S10600-008-9078-Z|10.1007/S10600-008-9090-3|10.1007/S10600-009-9196-2|10.1007/S10600-009-9290-5|10.1007/S10600-009-9403-1|10.1007/S10600-010-9463-2|10.1007/S10600-010-9538-0|10.1007/S10600-010-9645-Y|10.1007/S10600-010-9658-6|10.1007/S10600-010-9690-6|10.1007/S10600-010-9698-Y|10.1007/S10600-011-0026-Y|10.1007/S10600-011-0083-2|10.1007/S10600-011-9810-Y|10.1007/S10600-011-9902-8|10.1007/S10600-011-9944-Y|10.1007/S10600-011-9953-X|10.1007/S10600-011-9959-4|10.1007/S10600-012-0141-4|10.1007/S10600-012-0194-4|10.1007/S10600-014-0947-3|10.1007/S10600-014-1165-8|10.1007/S10600-017-2003-6|10.1007/S10600-017-2124-Y|10.1007/S10600-018-2437-5|10.1007/S10600-019-02635-5|10.1007/S10600-020-02963-X|10.1007/S11101-023-09858-Z|10.1007/S11172-010-0068-5|10.1007/S11745-997-0026-Z|10.1007/S11746-010-1584-Z|10.1007/S11746-998-0009-8|10.1007/S13369-010-0015-7|10.1007/S40278-014-1868-4|10.1007/SPRINGERREFERENCE_68783|10.1007/s003940050048|10.1016/0031-9422(73)80027-5|10.1016/0031-9422(73)80043-3|10.1016/0031-9422(74)80345-6|10.1016/0031-9422(74)85043-0|10.1016/0031-9422(75)85354-4|10.1016/0031-9422(77)84040-5|10.1016/0031-9422(80)80200-7|10.1016/0031-9422(81)80026-X|10.1016/0031-9422(81)80055-6|10.1016/0031-9422(81)80057-X|10.1016/0031-9422(81)80065-9|10.1016/0031-9422(81)83087-7|10.1016/0031-9422(81)83102-0|10.1016/0031-9422(82)80030-7|10.1016/0031-9422(82)80032-0|10.1016/0031-9422(82)80035-6|10.1016/0031-9422(82)80062-9|10.1016/0031-9422(82)80131-3|10.1016/0031-9422(82)80139-8|10.1016/0031-9422(82)80140-4|10.1016/0031-9422(82)80164-7|10.1016/0031-9422(82)83143-9|10.1016/0031-9422(82)85189-3|10.1016/0031-9422(82)85199-6|10.1016/0031-9422(82)85251-5|10.1016/0031-9422(83)80016-8|10.1016/0031-9422(83)80036-3|10.1016/0031-9422(83)80054-5|10.1016/0031-9422(83)80160-5|10.1016/0031-9422(83)80234-9|10.1016/0031-9422(83)80245-3|10.1016/0031-9422(83)80255-6|10.1016/0031-9422(83)83043-X|10.1016/0031-9422(83)85034-1|10.1016/0031-9422(84)83024-1|10.1016/0031-9422(84)83043-5|10.1016/0031-9422(84)83056-3|10.1016/0031-9422(84)83081-2|10.1016/0031-9422(84)83094-0|10.1016/0031-9422(85)80024-8|10.1016/0031-9422(85)80026-1|10.1016/0031-9422(85)80030-3|10.1016/0031-9422(86)80087-5|10.1016/0031-9422(86)88046-3|10.1016/0031-9422(88)80026-8|10.1016/0031-9422(88)80126-2|10.1016/0031-9422(88)80141-9|10.1016/0031-9422(88)80157-2|10.1016/0031-9422(88)80158-4|10.1016/0031-9422(88)80204-8|10.1016/0031-9422(88)80209-7|10.1016/0031-9422(88)80296-6|10.1016/0031-9422(88)80434-5|10.1016/0031-9422(88)80605-8|10.1016/0031-9422(88)80612-5|10.1016/0031-9422(88)80613-7|10.1016/0031-9422(88)80681-2|10.1016/0031-9422(88)80706-4|10.1016/0031-9422(88)80767-2|10.1016/0031-9422(88)80771-4|10.1016/0031-9422(88)80797-0|10.1016/0031-9422(88)83017-6|10.1016/0031-9422(88)83042-5|10.1016/0031-9422(88)83043-7|10.1016/0031-9422(88)83098-X|10.1016/0031-9422(88)83152-2|10.1016/0031-9422(88)83160-1|10.1016/0031-9422(88)84108-6|10.1016/0031-9422(88)87045-6|10.1016/0031-9422(89)80048-2|10.1016/0031-9422(89)80057-3|10.1016/0031-9422(89)80130-X|10.1016/0031-9422(89)80185-2|10.1016/0031-9422(89)80227-4|10.1016/0031-9422(89)80294-8|10.1016/0031-9422(89)80344-9|10.1016/0031-9422(89)80376-0|10.1016/0031-9422(89)80383-8|10.1016/0031-9422(89)85035-6|10.1016/0031-9422(89)85055-1|10.1016/0031-9422(90)80042-F|10.1016/0031-9422(90)80125-Z|10.1016/0031-9422(90)80134-3|10.1016/0031-9422(90)80142-4|10.1016/0031-9422(90)80150-F|10.1016/0031-9422(90)80154-9|10.1016/0031-9422(90)83037-2|10.1016/0031-9422(90)83048-6|10.1016/0031-9422(90)85035-E|10.1016/0031-9422(90)85117-X|10.1016/0031-9422(90)85193-J|10.1016/0031-9422(90)85196-M|10.1016/0031-9422(90)85251-A|10.1016/0031-9422(90)85299-U|10.1016/0031-9422(90)85367-O|10.1016/0031-9422(90)85431-E|10.1016/0031-9422(90)85432-F|10.1016/0031-9422(90)87130-M|10.1016/0031-9422(90)89054-D|10.1016/0031-9422(90)89056-F|10.1016/0031-9422(90)89059-I|10.1016/0031-9422(91)80015-S|10.1016/0031-9422(91)80026-W|10.1016/0031-9422(91)80079-G|10.1016/0031-9422(91)80129-O|10.1016/0031-9422(91)83027-I|10.1016/0031-9422(91)83035-J|10.1016/0031-9422(91)83197-S|10.1016/0031-9422(91)83497-9|10.1016/0031-9422(91)83500-K|10.1016/0031-9422(91)83634-W|10.1016/0031-9422(91)83635-X|10.1016/0031-9422(91)83651-Z|10.1016/0031-9422(91)84139-J|10.1016/0031-9422(91)85137-O|10.1016/0031-9422(91)85279-9|10.1016/0031-9422(91)85298-E|10.1016/0031-9422(92)80203-Q|10.1016/0031-9422(92)80279-N|10.1016/0031-9422(92)80289-Q|10.1016/0031-9422(92)80304-W|10.1016/0031-9422(92)80361-H|10.1016/0031-9422(92)80374-N|10.1016/0031-9422(92)80386-S|10.1016/0031-9422(92)80448-N|10.1016/0031-9422(92)80451-J|10.1016/0031-9422(92)80452-K|10.1016/0031-9422(92)80456-O|10.1016/0031-9422(92)80483-U|10.1016/0031-9422(92)83142-L|10.1016/0031-9422(92)83156-S|10.1016/0031-9422(92)83289-B|10.1016/0031-9422(92)83315-P|10.1016/0031-9422(92)83460-G|10.1016/0031-9422(92)83637-E|10.1016/0031-9422(92)83653-G|10.1016/0031-9422(92)83709-8|10.1016/0031-9422(92)83720-J|10.1016/0031-9422(92)83741-G|10.1016/0031-9422(92)83750-S|10.1016/0031-9422(92)90044-Q|10.1016/0031-9422(92)90045-R|10.1016/0031-9422(93)80053-U|10.1016/0031-9422(93)85036-Q|10.1016/0031-9422(93)85095-9|10.1016/0031-9422(93)85112-5|10.1016/0031-9422(93)85364-W|10.1016/0031-9422(93)85405-G|10.1016/0031-9422(93)85451-V|10.1016/0031-9422(93)85461-Y|10.1016/0031-9422(93)85550-B|10.1016/0031-9422(94)00675-J|10.1016/0031-9422(94)00743-D|10.1016/0031-9422(94)00791-Q|10.1016/0031-9422(94)00793-S|10.1016/0031-9422(94)00848-N|10.1016/0031-9422(94)00930-R|10.1016/0031-9422(94)00977-2|10.1016/0031-9422(94)85021-6|10.1016/0031-9422(94)85023-2|10.1016/0031-9422(94)85074-7|10.1016/0031-9422(95)00026-4|10.1016/0031-9422(95)00038-9|10.1016/0031-9422(95)00091-K|10.1016/0031-9422(95)00093-3|10.1016/0031-9422(95)00121-M|10.1016/0031-9422(95)00122-N|10.1016/0031-9422(95)00261-5|10.1016/0031-9422(95)00297-K|10.1016/0031-9422(95)00333-3|10.1016/0031-9422(95)00427-9|10.1016/0031-9422(95)00435-A|10.1016/0031-9422(95)00494-R|10.1016/0031-9422(95)00504-Z|10.1016/0031-9422(95)00507-4|10.1016/0031-9422(95)00548-X|10.1016/0031-9422(95)00599-4|10.1016/0031-9422(95)00658-3|10.1016/0031-9422(95)00754-7|10.1016/0031-9422(95)00776-8|10.1016/0031-9422(95)00807-1|10.1016/0031-9422(95)00907-8|10.1016/0031-9422(95)00942-6|10.1016/0031-9422(95)00969-8|10.1016/0031-9422(95)98170-L|10.1016/0031-9422(96)00084-2|10.1016/0031-9422(96)00105-7|10.1016/0031-9422(96)00149-5|10.1016/0031-9422(96)00229-4|10.1016/0031-9422(96)00271-3|10.1016/0039-128X(80)90095-1|10.1016/0039-128X(81)90070-2|10.1016/0039-128X(83)90093-4|10.1016/0039-128X(86)90008-5|10.1016/0039-128X(89)90015-9|10.1016/0039-128X(95)00055-U|10.1016/0041-0101(89)90151-7|10.1016/0041-0101(94)90207-0|10.1016/0168-9452(91)90045-A|10.1016/0305-0491(87)90117-9|10.1016/0305-0491(87)90448-2|10.1016/0305-0491(90)90149-N|10.1016/0305-0491(92)90236-K|10.1016/0305-1978(84)90026-7|10.1016/0305-1978(85)90074-2|10.1016/0305-1978(87)90052-4|10.1016/0305-1978(88)90009-9|10.1016/0305-1978(88)90013-0|10.1016/0305-1978(88)90014-2|10.1016/0305-1978(88)90078-6|10.1016/0305-1978(89)90010-0|10.1016/0305-1978(91)90009-O|10.1016/0305-1978(93)90069-4|10.1016/0305-1978(95)00010-R|10.1016/0305-1978(95)00011-I|10.1016/0305-1978(95)00105-0|10.1016/0305-1978(96)00011-7|10.1016/0305-1978(96)00018-X|10.1016/0378-8741(79)90007-2|10.1016/0378-8741(83)90042-9|10.1016/0378-8741(83)90070-3|10.1016/0378-8741(84)90002-3|10.1016/0378-8741(84)90075-8|10.1016/0378-8741(86)90109-1|10.1016/0378-8741(87)90096-1|10.1016/0378-8741(94)90005-1|10.1016/B978-0-12-803138-4.00012-5|10.1016/C2016-0-02191-5|10.1016/J.ARABJC.2011.03.011|10.1016/J.BMC.2004.08.048|10.1016/J.BMC.2005.07.050|10.1016/J.BMC.2006.08.012|10.1016/J.BMC.2008.09.021|10.1016/J.BMC.2008.09.023|10.1016/J.BMC.2009.06.009|10.1016/J.BMCL.2010.05.061|10.1016/J.BMCL.2010.10.058|10.1016/J.BMCL.2011.09.129|10.1016/J.BMCL.2013.03.007|10.1016/J.BMCL.2013.04.081|10.1016/J.BSE.2007.03.008|10.1016/J.BSE.2013.03.005|10.1016/J.BSE.2014.08.027|10.1016/J.BSE.2014.12.019|10.1016/J.BSE.2016.07.005|10.1016/J.BSE.2019.103923|10.1016/J.BSE.2020.104014|10.1016/J.BSE.2021.104264|10.1016/J.FCT.2004.01.008|10.1016/J.FITOTE.2003.12.006|10.1016/J.FITOTE.2004.03.008|10.1016/J.FITOTE.2004.09.018|10.1016/J.FITOTE.2005.03.011|10.1016/J.FITOTE.2007.01.001|10.1016/J.FITOTE.2008.12.002|10.1016/J.FITOTE.2009.06.001|10.1016/J.FITOTE.2010.05.011|10.1016/J.FOODCHEM.2008.11.094|10.1016/J.JEP.2004.01.022|10.1016/J.JEP.2004.07.022|10.1016/J.LFS.2004.08.017|10.1016/J.PHYMED.2006.12.020|10.1016/J.PHYMED.2007.03.018|10.1016/J.PHYMED.2009.03.012|10.1016/J.PHYTOCHEM.2003.10.011|10.1016/J.PHYTOCHEM.2003.10.024|10.1016/J.PHYTOCHEM.2004.02.023|10.1016/J.PHYTOCHEM.2004.03.012|10.1016/J.PHYTOCHEM.2004.06.021|10.1016/J.PHYTOCHEM.2004.06.038|10.1016/J.PHYTOCHEM.2004.07.027|10.1016/J.PHYTOCHEM.2005.02.016|10.1016/J.PHYTOCHEM.2005.05.001|10.1016/J.PHYTOCHEM.2005.06.017|10.1016/J.PHYTOCHEM.2005.07.017|10.1016/J.PHYTOCHEM.2006.03.012|10.1016/J.PHYTOCHEM.2006.03.024|10.1016/J.PHYTOCHEM.2006.07.025|10.1016/J.PHYTOCHEM.2007.02.020|10.1016/J.PHYTOCHEM.2007.10.024|10.1016/J.PHYTOCHEM.2008.09.025|10.1016/J.PHYTOCHEM.2008.12.008|10.1016/J.PHYTOCHEM.2008.12.017|10.1016/J.PHYTOCHEM.2009.05.011|10.1016/J.PHYTOCHEM.2009.06.008|10.1016/J.PHYTOCHEM.2009.08.007|10.1016/J.PHYTOCHEM.2009.09.006|10.1016/J.PHYTOCHEM.2009.10.013|10.1016/J.PHYTOCHEM.2009.12.013|10.1016/J.PHYTOCHEM.2009.12.016|10.1016/J.PHYTOCHEM.2011.01.021|10.1016/J.PHYTOL.2011.04.006|10.1016/J.PHYTOL.2011.08.009|10.1016/J.PHYTOL.2014.04.013|10.1016/J.STEROIDS.2006.03.001|10.1016/J.TET.2008.05.125|10.1016/S0014-2999(03)01664-9|10.1016/S0021-9673(01)81925-7|10.1016/S0021-9673(98)00049-1|10.1016/S0021-9673(98)00084-3|10.1016/S0024-3205(99)00652-9|10.1016/S0031-9422(00)00136-9|10.1016/S0031-9422(00)00220-X|10.1016/S0031-9422(00)00294-6|10.1016/S0031-9422(00)00296-X|10.1016/S0031-9422(00)00310-1|10.1016/S0031-9422(00)00402-7|10.1016/S0031-9422(00)00463-5|10.1016/S0031-9422(00)00486-6|10.1016/S0031-9422(00)80073-4|10.1016/S0031-9422(00)80074-6|10.1016/S0031-9422(00)80080-1|10.1016/S0031-9422(00)80087-4|10.1016/S0031-9422(00)80160-0|10.1016/S0031-9422(00)80343-X|10.1016/S0031-9422(00)80405-7|10.1016/S0031-9422(00)80444-6|10.1016/S0031-9422(00)80533-6|10.1016/S0031-9422(00)80565-8|10.1016/S0031-9422(00)80604-4|10.1016/S0031-9422(00)80608-1|10.1016/S0031-9422(00)80616-0|10.1016/S0031-9422(00)80785-2|10.1016/S0031-9422(00)80787-6|10.1016/S0031-9422(00)80830-4|10.1016/S0031-9422(00)80840-7|10.1016/S0031-9422(00)81055-9|10.1016/S0031-9422(00)81138-3|10.1016/S0031-9422(00)81144-9|10.1016/S0031-9422(00)81146-2|10.1016/S0031-9422(00)81167-X|10.1016/S0031-9422(00)81176-0|10.1016/S0031-9422(00)81222-4|10.1016/S0031-9422(00)81232-7|10.1016/S0031-9422(00)81251-0|10.1016/S0031-9422(00)81419-3|10.1016/S0031-9422(00)81431-4|10.1016/S0031-9422(00)81445-4|10.1016/S0031-9422(00)81462-4|10.1016/S0031-9422(00)81502-2|10.1016/S0031-9422(00)81509-5|10.1016/S0031-9422(00)81516-2|10.1016/S0031-9422(00)81558-7|10.1016/S0031-9422(00)81593-9|10.1016/S0031-9422(00)81694-5|10.1016/S0031-9422(00)81735-5|10.1016/S0031-9422(00)81835-X|10.1016/S0031-9422(00)81855-5|10.1016/S0031-9422(00)82230-X|10.1016/S0031-9422(00)82294-3|10.1016/S0031-9422(00)82341-9|10.1016/S0031-9422(00)82365-1|10.1016/S0031-9422(00)82414-0|10.1016/S0031-9422(00)82422-X|10.1016/S0031-9422(00)82425-5|10.1016/S0031-9422(00)82437-1|10.1016/S0031-9422(00)82439-5|10.1016/S0031-9422(00)82445-0|10.1016/S0031-9422(00)82447-4|10.1016/S0031-9422(00)82509-1|10.1016/S0031-9422(00)82541-8|10.1016/S0031-9422(00)82558-3|10.1016/S0031-9422(00)82620-5|10.1016/S0031-9422(00)83075-7|10.1016/S0031-9422(00)83106-4|10.1016/S0031-9422(00)83115-5|10.1016/S0031-9422(00)83133-7|10.1016/S0031-9422(00)83182-9|10.1016/S0031-9422(00)83194-5|10.1016/S0031-9422(00)83209-4|10.1016/S0031-9422(00)83488-3|10.1016/S0031-9422(00)83499-8|10.1016/S0031-9422(00)83507-4|10.1016/S0031-9422(00)83533-5|10.1016/S0031-9422(00)83740-1|10.1016/S0031-9422(00)83762-0|10.1016/S0031-9422(00)83883-2|10.1016/S0031-9422(00)84079-0|10.1016/S0031-9422(00)84080-7|10.1016/S0031-9422(00)84109-6|10.1016/S0031-9422(00)84123-0|10.1016/S0031-9422(00)84127-8|10.1016/S0031-9422(00)84169-2|10.1016/S0031-9422(00)84516-1|10.1016/S0031-9422(00)84521-5|10.1016/S0031-9422(00)84605-1|10.1016/S0031-9422(00)84703-2|10.1016/S0031-9422(00)84722-6|10.1016/S0031-9422(00)84774-3|10.1016/S0031-9422(00)84953-5|10.1016/S0031-9422(00)85174-2|10.1016/S0031-9422(00)85517-X|10.1016/S0031-9422(00)85837-9|10.1016/S0031-9422(00)86537-1|10.1016/S0031-9422(00)86542-5|10.1016/S0031-9422(00)88402-2|10.1016/S0031-9422(00)88491-5|10.1016/S0031-9422(00)88495-2|10.1016/S0031-9422(00)88544-1|10.1016/S0031-9422(00)88936-0|10.1016/S0031-9422(00)89523-0|10.1016/S0031-9422(00)89540-0|10.1016/S0031-9422(00)89541-2|10.1016/S0031-9422(00)89547-3|10.1016/S0031-9422(00)89601-6|10.1016/S0031-9422(00)89739-3|10.1016/S0031-9422(00)89743-5|10.1016/S0031-9422(00)89812-X|10.1016/S0031-9422(00)90062-1|10.1016/S0031-9422(00)90406-0|10.1016/S0031-9422(00)90415-1|10.1016/S0031-9422(00)90430-8|10.1016/S0031-9422(00)90433-3|10.1016/S0031-9422(00)90468-0|10.1016/S0031-9422(00)90497-7|10.1016/S0031-9422(00)90526-0|10.1016/S0031-9422(00)90717-9|10.1016/S0031-9422(00)90803-3|10.1016/S0031-9422(00)90814-8|10.1016/S0031-9422(00)94818-0|10.1016/S0031-9422(00)95112-4|10.1016/S0031-9422(00)95203-8|10.1016/S0031-9422(00)95289-0|10.1016/S0031-9422(00)95294-4|10.1016/S0031-9422(00)97034-1|10.1016/S0031-9422(00)97041-9|10.1016/S0031-9422(00)97553-8|10.1016/S0031-9422(00)97558-7|10.1016/S0031-9422(00)97583-6|10.1016/S0031-9422(00)97846-4|10.1016/S0031-9422(00)97890-7|10.1016/S0031-9422(00)97897-X|10.1016/S0031-9422(00)97903-2|10.1016/S0031-9422(00)97906-8|10.1016/S0031-9422(00)97910-X|10.1016/S0031-9422(00)97935-4|10.1016/S0031-9422(00)98014-2|10.1016/S0031-9422(00)98078-6|10.1016/S0031-9422(00)98241-4|10.1016/S0031-9422(00)98279-7|10.1016/S0031-9422(01)00002-4|10.1016/S0031-9422(01)00006-1|10.1016/S0031-9422(01)00135-2|10.1016/S0031-9422(01)00341-7|10.1016/S0031-9422(01)00368-5|10.1016/S0031-9422(01)00452-6|10.1016/S0031-9422(02)00036-5|10.1016/S0031-9422(02)00089-4|10.1016/S0031-9422(02)00283-2|10.1016/S0031-9422(02)00385-0|10.1016/S0031-9422(02)00555-1|10.1016/S0031-9422(02)00611-8|10.1016/S0031-9422(02)00630-1|10.1016/S0031-9422(03)00183-3|10.1016/S0031-9422(03)00202-4|10.1016/S0031-9422(03)00268-1|10.1016/S0031-9422(03)00294-2|10.1016/S0031-9422(03)00371-6|10.1016/S0031-9422(05)80098-6|10.1016/S0031-9422(82)85035-8|10.1016/S0031-9422(82)85038-3|10.1016/S0031-9422(82)85040-1|10.1016/S0031-9422(82)85067-X|10.1016/S0031-9422(96)00402-5|10.1016/S0031-9422(96)00479-7|10.1016/S0031-9422(96)00517-1|10.1016/S0031-9422(96)00560-2|10.1016/S0031-9422(96)00588-2|10.1016/S0031-9422(96)00652-8|10.1016/S0031-9422(96)00709-1|10.1016/S0031-9422(96)00747-9|10.1016/S0031-9422(96)00818-7|10.1016/S0031-9422(96)00877-1|10.1016/S0031-9422(97)00042-3|10.1016/S0031-9422(97)00090-3|10.1016/S0031-9422(97)00097-6|10.1016/S0031-9422(97)00101-5|10.1016/S0031-9422(97)00105-2|10.1016/S0031-9422(97)00140-4|10.1016/S0031-9422(97)00235-5|10.1016/S0031-9422(97)00250-1|10.1016/S0031-9422(97)00313-0|10.1016/S0031-9422(97)00399-3|10.1016/S0031-9422(97)00493-7|10.1016/S0031-9422(97)00828-5|10.1016/S0031-9422(97)00872-8|10.1016/S0031-9422(97)00889-3|10.1016/S0031-9422(97)01126-6|10.1016/S0031-9422(97)80032-5|10.1016/S0031-9422(98)00092-2|10.1016/S0031-9422(98)00325-2|10.1016/S0031-9422(98)00555-X|10.1016/S0031-9422(98)00709-2|10.1016/S0031-9422(98)00771-7|10.1016/S0031-9422(98)00772-9|10.1016/S0031-9422(98)80009-5|10.1016/S0031-9422(98)80083-6|10.1016/S0031-9422(99)00054-0|10.1016/S0031-9422(99)00059-X|10.1016/S0031-9422(99)00074-6|10.1016/S0031-9422(99)00097-7|10.1016/S0031-9422(99)00183-1|10.1016/S0031-9422(99)00207-1|10.1016/S0031-9422(99)00217-4|10.1016/S0031-9422(99)00290-3|10.1016/S0031-9422(99)00291-5|10.1016/S0031-9422(99)00336-2|10.1016/S0031-9422(99)00390-8|10.1016/S0031-9422(99)00452-5|10.1016/S0031-9422(99)00606-8|10.1016/S0031-9422(99)00608-1|10.1016/S0040-4020(00)00778-X|10.1016/S0040-4020(00)00948-0|10.1016/S0040-4020(01)85914-7|10.1016/S0040-4020(01)86856-3|10.1016/S0040-4020(01)98382-6|10.1016/S0040-4020(03)00914-1|10.1016/S0040-4020(97)10422-7|10.1016/S0040-4039(00)81493-8|10.1016/S0040-4039(97)01032-0|10.1016/S0090-4295(99)00549-X|10.1016/S0305-1978(01)00072-2|10.1016/S0305-1978(01)00095-3|10.1016/S0305-1978(01)00127-2|10.1016/S0305-1978(01)00130-2|10.1016/S0305-1978(02)00027-3|10.1016/S0305-1978(02)00250-8|10.1016/S0305-1978(98)00004-0|10.1016/S0305-1978(98)00055-6|10.1016/S0305-1978(98)00079-9|10.1016/S0305-1978(99)00026-5|10.1016/S0367-326X(00)00155-6|10.1016/S0367-326X(00)00239-2|10.1016/S0367-326X(00)00279-3|10.1016/S0367-326X(00)00338-5|10.1016/S0367-326X(01)00267-2|10.1016/S0367-326X(01)00290-8|10.1016/S0367-326X(01)00303-3|10.1016/S0367-326X(01)00327-6|10.1016/S0367-326X(01)00366-5|10.1016/S0367-326X(02)00069-2|10.1016/S0367-326X(03)00152-7|10.1016/S0367-326X(98)00032-X|10.1016/S0367-326X(99)00010-6|10.1016/S0367-326X(99)00019-2|10.1016/S0367-326X(99)00021-0|10.1016/S0367-326X(99)00051-9|10.1016/S0367-326X(99)00057-X|10.1016/S0378-8741(02)00172-1|10.1016/S0378-8741(97)00039-1|10.1016/S0378-8741(99)00159-2|10.1016/S0944-7113(98)80006-8|10.1016/S0944-7113(99)80033-6|10.1016/j.bmcl.2010.05.061|10.1016/j.bmcl.2013.03.007|10.1016/j.jep.2013.07.023|10.1016/s0031-9422(98)00092-2|10.1021/JF00043A032|10.1021/JF00048A018|10.1021/JF00097A034|10.1021/JF010701V|10.1021/JF020660I|10.1021/JF025848G|10.1021/JF0483117|10.1021/JF071963L|10.1021/JF60213A026|10.1021/JF903629J|10.1021/NP000257A|10.1021/NP0002886|10.1021/NP0005107|10.1021/NP0005309|10.1021/NP000569D|10.1021/NP0100744|10.1021/NP010122K|10.1021/NP010174+|10.1021/NP010236W|10.1021/NP010419I|10.1021/NP010478W|10.1021/NP0105073|10.1021/NP020038K|10.1021/NP0203739|10.1021/NP020412G|10.1021/NP0205856|10.1021/NP030074Z|10.1021/NP030176P|10.1021/NP0301893|10.1021/NP030235Z|10.1021/NP0496183|10.1021/NP0496183.S001|10.1021/NP0496183.S002|10.1021/NP0496845|10.1021/NP0497548|10.1021/NP0501740|10.1021/NP050301S|10.1021/NP0505521|10.1021/NP0580210|10.1021/NP060107L|10.1021/NP0601354|10.1021/NP0601354.S001|10.1021/NP0601354.S002|10.1021/NP060425K|10.1021/NP070038Q|10.1021/NP070154T|10.1021/NP0702133|10.1021/NP070474C|10.1021/NP100127K|10.1021/NP100474Y|10.1021/NP1008575|10.1021/NP100902F|10.1021/NP100923Z|10.1021/NP200789S|10.1021/NP50008A001|10.1021/NP50013A020|10.1021/NP50015A012|10.1021/NP50017A002|10.1021/NP50020A013|10.1021/NP50027A028|10.1021/NP50030A021|10.1021/NP50030A023|10.1021/NP50031A033|10.1021/NP50032A017|10.1021/NP50032A024|10.1021/NP50032A029|10.1021/NP50033A005|10.1021/NP50034A015|10.1021/NP50034A043|10.1021/NP50035A008|10.1021/NP50037A031|10.1021/NP50040A039|10.1021/NP50042A034|10.1021/NP50044A031|10.1021/NP50044A033|10.1021/NP50045A025|10.1021/NP50046A035|10.1021/NP50048A054|10.1021/NP50050A017|10.1021/NP50050A057|10.1021/NP50053A049|10.1021/NP50054A027|10.1021/NP50055A011|10.1021/NP50057A040|10.1021/NP50062A037|10.1021/NP50063A024|10.1021/NP50069A024|10.1021/NP50076A008|10.1021/NP50076A023|10.1021/NP50076A041|10.1021/NP50076A047|10.1021/NP50077A012|10.1021/NP50078A010|10.1021/NP50081A004|10.1021/NP50087A013|10.1021/NP50090A007|10.1021/NP50091A003|10.1021/NP50117A014|10.1021/NP50121A013|10.1021/NP800001V|10.1021/NP800093A|10.1021/NP800106X|10.1021/NP8004503|10.1021/NP8006364|10.1021/NP8007396|10.1021/NP9601824|10.1021/NP960349T|10.1021/NP9603941|10.1021/NP9700782|10.1021/NP9702244|10.1021/NP970586B|10.1021/NP990029K|10.1021/NP990210T|10.1021/NP990523O|10.1021/NP990548N|10.1021/acs.jnatprod.5b00858|10.1021/acs.jnatprod.7b00210|10.1021/acs.jnatprod.8b00079|10.1021/acs.jnatprod.9b00363|10.1021/jf071801p|10.1021/np000569d|10.1021/np010174+|10.1021/np0300986|10.1021/np050301s|10.1021/np070038q|10.1021/np100474y|10.1021/np1008575|10.1021/np100902f|10.1021/np100923z|10.1021/np800001v|10.1021/np8007396|10.1023/B:CONC.0000025476.80448.69|10.1023/B:CONC.0000025478.84294.5B|10.1023/B:CONC.0000033929.60336.BB|10.1036/1097-8542.252900|10.1039/C39850000148|10.1039/C39940000773|10.1039/P19830000147|10.1039/P19860000033|10.1039/P19900002213|10.1051/CTV/20163101031|10.1055/S-0028-1097297|10.1055/S-0028-1097595|10.1055/S-0028-1099512|10.1055/S-0028-1099670|10.1055/S-0029-1186038|10.1055/S-0029-1234987|10.1055/S-0029-1234988|10.1055/S-0031-1282668|10.1055/S-0032-1307594|10.1055/S-0036-1596440|10.1055/S-1999-13965|10.1055/S-2000-11120|10.1055/S-2000-8538|10.1055/S-2000-8632|10.1055/S-2001-11496|10.1055/S-2001-18359|10.1055/S-2003-38488|10.1055/S-2003-42796|10.1055/S-2004-815540|10.1055/S-2004-818920|10.1055/S-2004-827189|10.1055/S-2005-873169|10.1055/S-2006-957356|10.1055/S-2006-957375|10.1055/S-2006-957406|10.1055/S-2006-957441|10.1055/S-2006-957460|10.1055/S-2006-957481|10.1055/S-2006-957544|10.1055/S-2006-957586|10.1055/S-2006-957644|10.1055/S-2006-957683|10.1055/S-2006-957703|10.1055/S-2006-957741|10.1055/S-2006-957793|10.1055/S-2006-957841|10.1055/S-2006-957846|10.1055/S-2006-957857|10.1055/S-2006-957987|10.1055/S-2006-958085|10.1055/S-2006-959392|10.1055/S-2006-959408|10.1055/S-2006-959472|10.1055/S-2006-959482|10.1055/S-2006-959585|10.1055/S-2006-959734|10.1055/S-2006-959766|10.1055/S-2006-960012|10.1055/S-2006-960090|10.1055/S-2006-960187|10.1055/S-2006-960781|10.1055/S-2006-960850|10.1055/S-2006-960942|10.1055/S-2006-960945|10.1055/S-2006-961486|10.1055/S-2006-961488|10.1055/S-2006-962397|10.1055/S-2006-962647|10.1055/S-2006-962793|10.1055/S-2007-967132|10.1055/S-2007-969060|10.1055/S-2007-969091|10.1055/S-2007-969186|10.1055/S-2007-969208|10.1055/S-2007-969393|10.1055/S-2007-969440|10.1055/S-2007-969445|10.1055/S-2007-969590|10.1055/S-2007-969764|10.1055/S-2007-971248|10.1055/S-2007-971441|10.1055/S-2008-1081295|10.1055/s-2006-957961|10.1071/C97195|10.1071/CH9620314|10.1071/CH9761351|10.1071/CH9771397|10.1071/ch9771397|10.1076/1388-0209(200009)3841-AFT287|10.1076/PHBI.35.2.121.13280|10.1076/PHBI.37.1.54.6310|10.1078/0944-7113-00381|10.1079/9781845934057.0227|10.1080/00021369.1977.10862472|10.1080/00021369.1980.10864214|10.1080/00021369.1989.10869818|10.1080/0005772X.2004.11099634|10.1080/00387019108021770|10.1080/02652030701216727|10.1080/10286020.2010.543130|10.1080/10286020.2011.600248|10.1080/10286020.2011.606812|10.1080/10286020.2011.622719|10.1080/10286020.2019.1670646|10.1080/1028602021000000053|10.1080/10575630008043783|10.1080/10575630108041299|10.1080/10575630290020578|10.1080/10575630290020604|10.1080/10575630290034258|10.1080/10575639308043851|10.1080/10575639508043204|10.1080/10575639608044930|10.1080/10575639708043696|10.1080/10575639708043746|10.1080/10575639808048865|10.1080/10575639908041220|10.1080/13880200490511873|10.1080/13880200500220268|10.1080/14786410310001608136|10.1080/14786410310001643894|10.1080/14786410802401432|10.1080/14786410802689713|10.1080/14786410902757899|10.1080/14786410903052951|10.1080/14786419.2010.506181|10.1080/14786419.2010.518146|10.1080/14786419.2010.534735|10.1086/331761|10.1111/1750-3841.15463|10.1111/J.1365-2621.1990.TB06074.X|10.1111/J.1399-3054.1987.TB04313.X|10.1111/J.1744-7909.2005.00127.X|10.1111/J.2042-7158.1965.TB07741.X|10.1128/AAC.38.11.2534|10.1135/CCCC19610890|10.1135/CCCC19820664|10.1135/CCCC19840852|10.1135/CCCC19842661|10.1139/V67-161|10.1177/1934578X1100600801|10.1177/1934578X1801301030|10.1201/9780203022320.CH4|10.1246/BCSJ.45.930|10.1246/NIKKASHI.1994.493|10.1248/BPB.24.470|10.1248/BPB.30.999|10.1248/CPB.18.1276|10.1248/CPB.29.2073|10.1248/CPB.30.1496|10.1248/CPB.31.1366|10.1248/CPB.32.3003|10.1248/CPB.33.2235|10.1248/CPB.34.1672|10.1248/CPB.34.4562|10.1248/CPB.35.1610|10.1248/CPB.35.3292|10.1248/CPB.36.1180|10.1248/CPB.37.3214|10.1248/CPB.38.2130|10.1248/CPB.38.342|10.1248/CPB.41.2007|10.1248/CPB.41.624|10.1248/CPB.42.138|10.1248/CPB.42.228|10.1248/CPB.46.1408|10.1248/CPB.47.1152|10.1248/CPB.47.1448|10.1248/CPB.47.887|10.1248/CPB.47.96|10.1248/CPB.48.357|10.1248/CPB.49.151|10.1248/CPB.51.1439|10.1248/CPB.51.599|10.1248/CPB.51.885|10.1248/CPB.51.948|10.1248/CPB.52.1349|10.1248/CPB.52.1382|10.1248/CPB.53.1321|10.1248/CPB.53.1327|10.1248/CPB.53.1335|10.1248/CPB.53.1338|10.1248/CPB.53.342|10.1248/CPB.53.561|10.1248/CPB.53.836|10.1248/CPB.54.1370|10.1248/CPB.54.292|10.1248/CPB.54.448|10.1248/CPB.55.1258|10.1248/CPB.55.153|10.1248/CPB.55.1597|10.1248/CPB.56.97|10.1248/CPB.57.245|10.1248/CPB.58.628|10.1248/CPB.58.971|10.1248/YAKUSHI1947.103.1_43|10.1248/YAKUSHI1947.103.6_612|10.1248/YAKUSHI1947.106.12_1092|10.1248/YAKUSHI1947.109.3_188|10.1248/YAKUSHI1947.87.9_1153|10.1248/YAKUSHI1947.94.12_1593|10.1262/JRD.49.175|10.1271/BBB.59.526|10.1271/BBB.63.1800|10.1271/BBB.90701|10.1271/BBB1961.43.2297|10.1271/BBB1961.44.1817|10.1271/BBB1961.46.2877|10.1271/BBB1961.48.1367|10.1271/BBB1961.48.2523|10.1271/BBB1961.50.1651|10.1271/BBB1961.53.3363|10.1271/NOGEIKAGAKU1924.59.895|10.1300/J044V05N02_05|10.14233/AJCHEM.2014.16935|10.1515/BOTM.1998.41.1-6.389|10.1515/ZNB-1984-1020|10.1515/ZNB-1989-1219|10.1515/ZNB-1999-0616|10.1515/ZNB-2005-0212|10.1515/ZNB-2005-0418|10.1515/ZNB-2005-0916|10.1515/ZNB-2006-0914|10.1515/ZNB-2008-0518|10.1515/ZNC-1983-5-628|10.1515/ZNC-1985-5-607|10.1515/ZNC-1999-1113|10.1515/ZNC-2000-7-802|10.1515/ZNC-2001-11-1210|10.1515/ZNC-2002-1-214|10.1515/ZNC-2002-7-804|10.1515/ZNC-2002-7-805|10.1515/ZNC-2002-7-808|10.1515/ZNC-2002-9-1003|10.1515/ZNC-2003-9-1009|10.1590/S0074-02761991000600044|10.1590/S0100-40422001000100006|10.1590/S0102-695X2008000100011|10.1590/S0102-695X2009000300005|10.1590/S0103-50531998000100016|10.1590/S0103-50531998000500004|10.1590/S0103-50531999000200009|10.1590/S0103-50531999000200015|10.1590/S0103-50531999000600017|10.1590/S0103-50532000000300005|10.1590/S0103-50532001000300010|10.1590/S0103-50532001000400019|10.1590/S0103-50532002000300010|10.1590/S0103-50532002000300014|10.1590/S0103-50532003000500006|10.1590/S0103-50532004000100023|10.1590/S0103-50532011000600016|10.1590/S0103-50532011000700021|10.21608/BFSA.1984.89869|10.21608/BFSA.1985.75707|10.21608/BFSA.1995.69697|10.21608/BFSA.2000.66312|10.21608/BFSA.2001.65755|10.21608/BFSA.2003.65484|10.21608/ZJPS.1993.187357|10.21608/ZJPS.1994.186612|10.21608/ZJPS.1997.169710|10.2174/1381612825666190313121608|10.2174/157017811796064430|10.2298/JSC110206128R|10.3109/10915819309140647|10.3109/13880208509070678|10.3109/13880208609083309|10.3109/13880209.2010.547206|10.3109/13880209009082799|10.3109/13880209209054017|10.3109/13880209309082963|10.3109/13880209409083017|10.3109/14756369309040765|10.3184/030823401103169315|10.3390/11100786|10.3390/MOLECULES13020212|10.3390/MOLECULES14020850|10.3390/MOLECULES15106733|10.3390/MOLECULES15117840|10.3390/MOLECULES16043146|10.3390/MOLECULES16053999|10.3390/MOLECULES16098076|10.3390/MOLECULES190812031|10.3390/molecules23123219|10.3390/molecules27020483|10.3724/SP.J.1145.2011.00350|10.3797/SCIPHARM.AUT-00-39|10.3987/COM-02-9470|10.3987/COM-02-9615|10.3987/COM-08-11630|10.3987/COM-88-S2|10.3987/COM-89-5267|10.3987/COM-95-7249|10.3987/COM-99-8621|10.3987/R-1984-04-0813|10.3989/GYA.1999.V50.I5.678|10.3998/ARK.5550190.0011.227|10.4103/0250-474X.113546|10.4197/SCI.16-1.4|10.4268/CJCMM20100712|10.4268/CJCMM20111013|10.4268/CJCMM20111611|10.4268/CJCMM20141019|10.4268/CJCMM20141617|10.4268/CJCMM20142423|10.48141/SBJCHEM.V7.N8.1999.52_1999.PDF|10.5040/9781350363595.ART-706|10.5586/ASBP.1988.008|10.5650/JOS.50.259|10.5650/JOS1956.44.1012|10.5650/JOS1996.46.1499|10.5650/JOS1996.46.687|10.5650/JOS1996.47.605|10.5650/JOS1996.49.719|10.5650/JOS1996.49.727|10.5650/jos.ess19091|10.5650/jos.ess20128|10.5650/jos.ess21076

>  <synonyms>  (1219) 
nan

>  <cas>  (1219) 
83-48-7

$$$$

     RDKit          2D

 25 26  0  0  0  0  0  0  0  0999 V2000
    7.0848   -2.7126    0.0000 C   0  0  0  0  0  0  0  0  0  0  0  0
    7.3277   -1.2324    0.0000 O   0  0  0  0  0  0  0  0  0  0  0  0
    6.1671   -0.2820    0.0000 C   0  0  0  0  0  0  0  0  0  0  0  0
    4.7638   -0.8118    0.0000 C   0  0  0  0  0  0  0  0  0  0  0  0
    3.6033    0.1386    0.0000 C   0  0  0  0  0  0  0  0  0  0  0  0
    2.2000   -0.3913    0.0000 C   0  0  0  0  0  0  0  0  0  0  0  0
    1.0395    0.5591    0.0000 C   0  0  0  0  0  0  0  0  0  0  0  0
   -0.3638    0.0293    0.0000 C   0  0  0  0  0  0  0  0  0  0  0  0
   -0.6066   -1.4509    0.0000 O   0  0  0  0  0  0  0  0  0  0  0  0
   -1.5243    0.9797    0.0000 O   0  0  0  0  0  0  0  0  0  0  0  0
   -2.9276    0.4498    0.0000 C   0  0  0  0  0  0  0  0  0  0  0  0
   -4.0881    1.4002    0.0000 O   0  0  0  0  0  0  0  0  0  0  0  0
   -5.4914    0.8704    0.0000 C   0  0  0  0  0  0  0  0  0  0  0  0
   -6.6519    1.8207    0.0000 C   0  0  0  0  0  0  0  0  0  0  0  0
   -6.4091    3.3010    0.0000 O   0  0  0  0  0  0  0  0  0  0  0  0
   -5.7342   -0.6099    0.0000 C   0  0  0  0  0  0  0  0  0  0  0  0
   -7.1375   -1.1397    0.0000 O   0  0  0  0  0  0  0  0  0  0  0  0
   -4.5737   -1.5602    0.0000 C   0  0  0  0  0  0  0  0  0  0  0  0
   -4.8165   -3.0405    0.0000 O   0  0  0  0  0  0  0  0  0  0  0  0
   -3.1704   -1.0304    0.0000 C   0  0  0  0  0  0  0  0  0  0  0  0
   -2.0099   -1.9808    0.0000 O   0  0  0  0  0  0  0  0  0  0  0  0
    3.8461    1.6188    0.0000 C   0  0  0  0  0  0  0  0  0  0  0  0
    5.2494    2.1486    0.0000 C   0  0  0  0  0  0  0  0  0  0  0  0
    6.4099    1.1982    0.0000 C   0  0  0  0  0  0  0  0  0  0  0  0
    7.8133    1.7281    0.0000 O   0  0  0  0  0  0  0  0  0  0  0  0
  1  2  1  0
  2  3  1  0
  3  4  2  0
  4  5  1  0
  5  6  1  0
  6  7  2  0
  7  8  1  0
  8  9  2  0
  8 10  1  0
 11 10  1  1
 11 12  1  0
 12 13  1  0
 13 14  1  1
 14 15  1  0
 13 16  1  0
 16 17  1  6
 16 18  1  0
 18 19  1  1
 18 20  1  0
 20 21  1  6
  5 22  2  0
 22 23  1  0
 23 24  2  0
 24 25  1  0
 24  3  1  0
 20 11  1  0
M  END
>  <identifier>  (1220) 
CNP0267184.1

>  <canonical_smiles>  (1220) 
COC1=CC(/C=C/C(=O)O[C@@H]2O[C@H](CO)[C@@H](O)[C@H](O)[C@H]2O)=CC=C1O

>  <standard_inchi>  (1220) 
InChI=1S/C16H20O9/c1-23-10-6-8(2-4-9(10)18)3-5-12(19)25-16-15(22)14(21)13(20)11(7-17)24-16/h2-6,11,13-18,20-22H,7H2,1H3/b5-3+/t11-,13-,14+,15-,16+/m1/s1

>  <standard_inchi_key>  (1220) 
JWRQVQWBNRGGPK-PMQCXRHVSA-N

>  <name>  (1220) 
7196-71-6

>  <iupac_name>  (1220) 
[(2~{S},3~{R},4~{S},5~{S},6~{R})-3,4,5-trihydroxy-6-(hydroxymethyl)tetrahydropyran-2-yl] (~{E})-3-(4-hydroxy-3-methoxy-phenyl)prop-2-enoate

>  <annotation_level>  (1220) 
5

>  <total_atom_count>  (1220) 
45

>  <heavy_atom_count>  (1220) 
25

>  <molecular_weight>  (1220) 
356.33

>  <exact_molecular_weight>  (1220) 
356.11073

>  <molecular_formula>  (1220) 
C16H20O9

>  <alogp>  (1220) 
-1.24

>  <topological_polar_surface_area>  (1220) 
145.91

>  <rotatable_bond_count>  (1220) 
5

>  <hydrogen_bond_acceptors>  (1220) 
9

>  <hydrogen_bond_donors>  (1220) 
5

>  <hydrogen_bond_acceptors_lipinski>  (1220) 
9

>  <hydrogen_bond_donors_lipinski>  (1220) 
5

>  <lipinski_rule_of_five_violations>  (1220) 
0

>  <aromatic_rings_count>  (1220) 
1

>  <qed_drug_likeliness>  (1220) 
0.32

>  <formal_charge>  (1220) 
0

>  <fractioncsp3>  (1220) 
0.44

>  <number_of_minimal_rings>  (1220) 
2

>  <van_der_walls_volume>  (1220) 
303.03

>  <contains_sugar>  (1220) 
True

>  <contains_ring_sugars>  (1220) 
True

>  <contains_linear_sugars>  (1220) 
False

>  <murcko_framework>  (1220) 
O(CC=Cc1ccccc1)C2OCCCC2

>  <np_likeness>  (1220) 
1.97

>  <chemical_class>  (1220) 
Cinnamic acids and derivatives

>  <chemical_sub_class>  (1220) 
Hydroxycinnamic acids and derivatives

>  <chemical_super_class>  (1220) 
Phenylpropanoids and polyketides

>  <direct_parent_classification>  (1220) 
Hydroxycinnamic acids

>  <np_classifier_pathway>  (1220) 
Shikimates and Phenylpropanoids

>  <np_classifier_superclass>  (1220) 
Phenylpropanoids (C6-C3)

>  <np_classifier_class>  (1220) 
Cinnamic acids and derivatives

>  <np_classifier_is_glycoside>  (1220) 
True

>  <organisms>  (1220) 
Alniaria japonica|Aruncus dioicus|Baccharis dracunculifolia|Bacopa monnieri|Balanophora fungosa|Balanophora japonica|Beta vulgaris|Bontia bontioides|Brassica rapa|Camellia sinensis|Capsicum annum L.|Capsicum annuum|Chamomilla suaveolens|Coussarea hydrangeifolia|Digitalis lanata|Ligustrum obtusifolium|Linaria japonica|Luffa cylindrica|Micromeles japonica|Opuntia ficus-indica|Opuntia humifusa|Raphanus sativus|Rheum rhaponticum|Salix cheilophila|Salvia|Salvia officinalis|Sinoadina racemosa|rhubarb

>  <collections>  (1220) 
AnalytiCon Discovery NPs|Australian natural products|CMAUP (cCollective molecular activities of useful plants)|ChEBI NPs|ChemSpider NPs|ETM (Ethiopian Traditional Medicine) DB|FooDB|KNApSaCK|Latin America dataset|NPASS|NuBBEDB|Super Natural II|TCMDB-Taiwan (Traditional Chinese Medicine database)|WikiData Natural Products|ZINC NP

>  <dois>  (1220) 
10.1002/HLCA.200900049|10.1002/JCCS.200800059|10.1007/S10600-007-0133-Y|10.1016/0031-9422(91)83189-R|10.1016/0031-9422(93)85459-5|10.1016/J.BMCL.2011.04.043|10.1016/J.PHYTOCHEM.2005.06.019|10.1016/J.PHYTOCHEM.2007.10.019|10.1016/J.PHYTOCHEM.2008.07.002|10.1016/S0031-9422(00)85297-8|10.1016/S0031-9422(03)00282-6|10.1016/S0031-9422(97)00362-2|10.1016/j.phytochem.2005.06.019|10.1021/JF0346206|10.1021/JF100332W|10.1021/NP030217H|10.1021/jf0604790|10.1177/1934578x1100600814|10.1248/CPB.45.367|10.1248/CPB.49.1388|10.1248/CPB.49.887|10.1248/CPB.56.1297|10.1248/CPB.57.1352|10.1248/YAKUSHI1947.108.7_647|10.20307/nps.2016.22.2.117

>  <synonyms>  (1220) 
(2S,3R,4S,5S,6R)-3,4,5-Trihydroxy-6-(hydroxymethyl)tetrahydro-2H-pyran-2-yl 3-(4-hydroxy-3-methoxyphenyl)acrylate|(E)-1-O-feruloyl-beta-D-glucopyranose|(E)-4'-hydroxy-3'-methoxycinnamoyl-beta-D-glucopyranose|1-Feruloyl-D-glucose|1-O-(E)-Feruloyl-beta-D-glucopyranose|1-O-(E)-feruloyl-\u221a\u00e9\u00ac\u2264-D-glucopyranoside|1-O-[(2E)-3-(4-hydroxy-3-methoxyphenyl)prop-2-enoyl]-beta-D-glucopyranose|1-O-feruloyl-beta-D-glucose|1-[3-(4-Hydroxy-3-Methoxyphenyl)-2-propenoate] beta-D-Glucopyranose|64625-37-2|A-D-glucoside|AKOS040758313|AS-78421|C17759|CHEBI:81321|CHEMBL1778418|CS-0135611|D93553|DTXSID501289981|Ferulic Acid Acyl-beta-D-glucoside|Ferulic acid acyl-|Ferulic acid acyl-??-D-glucoside|HY-N7715|NCGC00385766-01|Q27155259|SCHEMBL20944781|[(2S,3R,4S,5S,6R)-3,4,5-trihydroxy-6-(hydroxymethyl)oxan-2-yl] (E)-3-(4-hydroxy-3-methoxyphenyl)prop-2-enoate|ferulic acid beta-D-glucopyranosyl ester|trans-p-Feruloyl I(2)-D-glucopyranoside|trans-p-feruloyl-beta-D-glucopyranoside

>  <cas>  (1220) 
64625-37-2

$$$$

     RDKit          2D

 37 40  0  0  0  0  0  0  0  0999 V2000
    0.0311    5.7854    0.0000 C   0  0  0  0  0  0  0  0  0  0  0  0
   -0.1515    4.2966    0.0000 C   0  0  0  0  0  0  0  0  0  0  0  0
    1.0466    3.3940    0.0000 C   0  0  0  0  0  0  0  0  0  0  0  0
    2.4272    3.9802    0.0000 C   0  0  0  0  0  0  0  0  0  0  0  0
    0.8639    1.9051    0.0000 C   0  0  0  0  0  0  0  0  0  0  0  0
    1.8481    0.7732    0.0000 C   0  0  0  0  0  0  0  0  0  0  0  0
    3.3424    0.9041    0.0000 C   0  0  0  0  0  0  0  0  0  0  0  0
    4.2029   -0.3245    0.0000 C   0  0  0  0  0  0  0  0  0  0  0  0
    3.5692   -1.6841    0.0000 C   0  0  0  0  0  0  0  0  0  0  0  0
    4.4297   -2.9127    0.0000 C   0  0  0  0  0  0  0  0  0  0  0  0
    5.9239   -2.7818    0.0000 C   0  0  0  0  0  0  0  0  0  0  0  0
    6.5577   -1.4223    0.0000 C   0  0  0  0  0  0  0  0  0  0  0  0
    5.6972   -0.1936    0.0000 C   0  0  0  0  0  0  0  0  0  0  0  0
    1.0757   -0.5126    0.0000 N   0  0  0  0  0  0  0  0  0  0  0  0
   -0.3859   -0.1754    0.0000 C   0  0  0  0  0  0  0  0  0  0  0  0
   -1.5178   -1.1596    0.0000 O   0  0  0  0  0  0  0  0  0  0  0  0
   -0.5168    1.3189    0.0000 C   0  0  0  0  0  0  0  0  0  0  0  0
   -0.8055    0.5553    0.0000 C   0  0  0  0  0  0  0  0  0  0  0  0
    1.4996    0.0143    0.0000 O   0  0  0  0  0  0  0  0  0  0  0  0
    2.3366   -1.2305    0.0000 C   0  0  0  0  0  0  0  0  0  0  0  0
    3.8134   -1.4932    0.0000 C   0  0  0  0  0  0  0  0  0  0  0  0
    1.6770   -2.5777    0.0000 O   0  0  0  0  0  0  0  0  0  0  0  0
   -1.5469   -0.8782    0.0000 C   0  0  0  0  0  0  0  0  0  0  0  0
   -2.0513   -1.3795    0.0000 C   0  0  0  0  0  0  0  0  0  0  0  0
   -2.7466   -1.5285    0.0000 C   0  0  0  0  0  0  0  0  0  0  0  0
   -2.0740   -4.2079    0.0000 C   0  0  0  0  0  0  0  0  0  0  0  0
   -3.8094   -4.0784    0.0000 O   0  0  0  0  0  0  0  0  0  0  0  0
   -3.4122   -1.2780    0.0000 C   0  0  0  0  0  0  0  0  0  0  0  0
   -5.1572   -3.5942    0.0000 O   0  0  0  0  0  0  0  0  0  0  0  0
   -3.8366   -0.7074    0.0000 C   0  0  0  0  0  0  0  0  0  0  0  0
   -6.5569   -1.7125    0.0000 C   0  0  0  0  0  0  0  0  0  0  0  0
   -3.8852    0.0021    0.0000 C   0  0  0  0  0  0  0  0  0  0  0  0
   -3.5425    0.6252    0.0000 C   0  0  0  0  0  0  0  0  0  0  0  0
   -2.3691    1.7333    0.0000 C   0  0  0  0  0  0  0  0  0  0  0  0
   -1.7148    2.2215    0.0000 C   0  0  0  0  0  0  0  0  0  0  0  0
   -1.5322    3.7103    0.0000 C   0  0  0  0  0  0  0  0  0  0  0  0
   -2.7302    4.6129    0.0000 O   0  0  0  0  0  0  0  0  0  0  0  0
  1  2  2  0
  2  3  1  0
  3  4  1  1
  3  5  1  0
  5  6  1  0
  6  7  1  6
  7  8  1  0
  8  9  2  0
  9 10  1  0
 10 11  2  0
 11 12  1  0
 12 13  2  0
  6 14  1  0
 14 15  1  0
 15 16  2  0
 15 17  1  0
 17 18  1  0
 18 19  1  6
 19 20  1  0
 20 21  1  0
 20 22  2  0
 18 23  1  0
 23 24  2  0
 24 25  1  0
 25 26  1  6
 25 27  1  0
 25 28  1  0
 28 29  2  0
 28 30  1  0
 30 31  1  1
 30 32  1  0
 32 33  1  0
 33 34  2  0
 35 34  1  1
 35 36  1  0
 36 37  1  6
 36  2  1  0
  5 17  1  1
 13  8  1  0
 35 17  1  0
M  END
>  <identifier>  (1221) 
CNP0402226.3

>  <canonical_smiles>  (1221) 
C=C1[C@@H](C)[C@H]2[C@H](CC3=CC=CC=C3)NC(=O)C23[C@H](OC(C)=O)/C=C\[C@@](C)(O)C(=O)[C@@H](C)C/C=C\[C@H]3[C@@H]1O

>  <standard_inchi>  (1221) 
InChI=1S/C30H37NO6/c1-17-10-9-13-22-26(33)19(3)18(2)25-23(16-21-11-7-6-8-12-21)31-28(35)30(22,25)24(37-20(4)32)14-15-29(5,36)27(17)34/h6-9,11-15,17-18,22-26,33,36H,3,10,16H2,1-2,4-5H3,(H,31,35)/b13-9-,15-14-/t17-,18+,22-,23-,24+,25-,26+,29+,30?/m0/s1

>  <standard_inchi_key>  (1221) 
SDZRWUKZFQQKKV-VPKLLCIOSA-N

>  <name>  (1221) 
nan

>  <iupac_name>  (1221) 
[(2~{R},3~{Z},5~{R},7~{S},9~{Z},11~{R},12~{S},14~{S},15~{R},16~{S})-16-benzyl-5,12-dihydroxy-5,7,14-trimethyl-13-methylene-6,18-dioxo-17-azatricyclo[9.7.0.0^{1,15}]octadeca-3,9-dien-2-yl] acetate

>  <annotation_level>  (1221) 
4

>  <total_atom_count>  (1221) 
74

>  <heavy_atom_count>  (1221) 
37

>  <molecular_weight>  (1221) 
507.63

>  <exact_molecular_weight>  (1221) 
507.26209

>  <molecular_formula>  (1221) 
C30H37NO6

>  <alogp>  (1221) 
2.92

>  <topological_polar_surface_area>  (1221) 
112.93

>  <rotatable_bond_count>  (1221) 
3

>  <hydrogen_bond_acceptors>  (1221) 
6

>  <hydrogen_bond_donors>  (1221) 
3

>  <hydrogen_bond_acceptors_lipinski>  (1221) 
6

>  <hydrogen_bond_donors_lipinski>  (1221) 
3

>  <lipinski_rule_of_five_violations>  (1221) 
1

>  <aromatic_rings_count>  (1221) 
1

>  <qed_drug_likeliness>  (1221) 
0.43

>  <formal_charge>  (1221) 
0

>  <fractioncsp3>  (1221) 
0.50

>  <number_of_minimal_rings>  (1221) 
4

>  <van_der_walls_volume>  (1221) 
nan

>  <contains_sugar>  (1221) 
False

>  <contains_ring_sugars>  (1221) 
False

>  <contains_linear_sugars>  (1221) 
False

>  <murcko_framework>  (1221) 
c1ccc(cc1)CC2NCC34CC=CCCCCC=CC4CCCC23

>  <np_likeness>  (1221) 
2.91

>  <chemical_class>  (1221) 
Cytochalasans

>  <chemical_sub_class>  (1221) 
Cytochalasans

>  <chemical_super_class>  (1221) 
Alkaloids and derivatives

>  <direct_parent_classification>  (1221) 
Cytochalasans

>  <np_classifier_pathway>  (1221) 
Alkaloids

>  <np_classifier_superclass>  (1221) 
Pseudoalkaloids

>  <np_classifier_class>  (1221) 
Cytochalasan alkaloids

>  <np_classifier_is_glycoside>  (1221) 
False

>  <organisms>  (1221) 
Xylaria|Xylaria sp.

>  <collections>  (1221) 
Latin America dataset|NuBBEDB|WikiData Natural Products

>  <dois>  (1221) 
10.1590/S0100-40422005000600011

>  <synonyms>  (1221) 
Cytochalasin D

>  <cas>  (1221) 
nan

$$$$

     RDKit          2D

 22 23  0  0  0  0  0  0  0  0999 V2000
   -9.1613   -1.8304    0.0000 O   0  0  0  0  0  0  0  0  0  0  0  0
   -7.8587   -1.0867    0.0000 C   0  0  0  0  0  0  0  0  0  0  0  0
   -7.8514    0.4133    0.0000 C   0  0  0  0  0  0  0  0  0  0  0  0
   -6.5487    1.1569    0.0000 C   0  0  0  0  0  0  0  0  0  0  0  0
   -5.2533    0.4006    0.0000 C   0  0  0  0  0  0  0  0  0  0  0  0
   -3.9506    1.1443    0.0000 C   0  0  0  0  0  0  0  0  0  0  0  0
   -2.6553    0.3880    0.0000 C   0  0  0  0  0  0  0  0  0  0  0  0
   -1.3526    1.1316    0.0000 C   0  0  0  0  0  0  0  0  0  0  0  0
   -0.0572    0.3753    0.0000 C   0  0  0  0  0  0  0  0  0  0  0  0
    1.2455    1.1189    0.0000 C   0  0  0  0  0  0  0  0  0  0  0  0
    1.2528    2.6189    0.0000 O   0  0  0  0  0  0  0  0  0  0  0  0
    2.5408    0.3626    0.0000 C   0  0  0  0  0  0  0  0  0  0  0  0
    3.8435    1.1063    0.0000 C   0  0  0  0  0  0  0  0  0  0  0  0
    5.1389    0.3499    0.0000 C   0  0  0  0  0  0  0  0  0  0  0  0
    5.1316   -1.1500    0.0000 C   0  0  0  0  0  0  0  0  0  0  0  0
    6.4269   -1.9064    0.0000 C   0  0  0  0  0  0  0  0  0  0  0  0
    7.7296   -1.1627    0.0000 C   0  0  0  0  0  0  0  0  0  0  0  0
    9.0250   -1.9190    0.0000 O   0  0  0  0  0  0  0  0  0  0  0  0
    7.7369    0.3373    0.0000 C   0  0  0  0  0  0  0  0  0  0  0  0
    6.4416    1.0936    0.0000 C   0  0  0  0  0  0  0  0  0  0  0  0
   -5.2606   -1.0994    0.0000 C   0  0  0  0  0  0  0  0  0  0  0  0
   -6.5633   -1.8430    0.0000 C   0  0  0  0  0  0  0  0  0  0  0  0
  1  2  1  0
  2  3  2  0
  3  4  1  0
  4  5  2  0
  5  6  1  0
  6  7  1  0
  7  8  1  0
  8  9  1  0
  9 10  1  0
 10 11  1  1
 10 12  1  0
 12 13  1  0
 13 14  1  0
 14 15  2  0
 15 16  1  0
 16 17  2  0
 17 18  1  0
 17 19  1  0
 19 20  2  0
  5 21  1  0
 21 22  2  0
 22  2  1  0
 20 14  1  0
M  END
>  <identifier>  (1222) 
CNP0260993.1

>  <canonical_smiles>  (1222) 
OC1=CC=C(CCCC[C@@H](O)CCC2=CC=C(O)C=C2)C=C1

>  <standard_inchi>  (1222) 
InChI=1S/C19H24O3/c20-17(10-7-16-8-13-19(22)14-9-16)4-2-1-3-15-5-11-18(21)12-6-15/h5-6,8-9,11-14,17,20-22H,1-4,7,10H2/t17-/m1/s1

>  <standard_inchi_key>  (1222) 
UYJAYWZGEZOHRU-QGZVFWFLSA-N

>  <name>  (1222) 
Centrolobol

>  <iupac_name>  (1222) 
4-[(5~{R})-5-hydroxy-7-(4-hydroxyphenyl)heptyl]phenol

>  <annotation_level>  (1222) 
5

>  <total_atom_count>  (1222) 
46

>  <heavy_atom_count>  (1222) 
22

>  <molecular_weight>  (1222) 
300.4

>  <exact_molecular_weight>  (1222) 
300.17254

>  <molecular_formula>  (1222) 
C19H24O3

>  <alogp>  (1222) 
3.80

>  <topological_polar_surface_area>  (1222) 
60.69

>  <rotatable_bond_count>  (1222) 
8

>  <hydrogen_bond_acceptors>  (1222) 
3

>  <hydrogen_bond_donors>  (1222) 
3

>  <hydrogen_bond_acceptors_lipinski>  (1222) 
3

>  <hydrogen_bond_donors_lipinski>  (1222) 
3

>  <lipinski_rule_of_five_violations>  (1222) 
0

>  <aromatic_rings_count>  (1222) 
2

>  <qed_drug_likeliness>  (1222) 
0.65

>  <formal_charge>  (1222) 
0

>  <fractioncsp3>  (1222) 
0.37

>  <number_of_minimal_rings>  (1222) 
2

>  <van_der_walls_volume>  (1222) 
295.40

>  <contains_sugar>  (1222) 
False

>  <contains_ring_sugars>  (1222) 
False

>  <contains_linear_sugars>  (1222) 
False

>  <murcko_framework>  (1222) 
c1ccc(cc1)CCCCCCCc2ccccc2

>  <np_likeness>  (1222) 
0.86

>  <chemical_class>  (1222) 
Diarylheptanoids

>  <chemical_sub_class>  (1222) 
Linear diarylheptanoids

>  <chemical_super_class>  (1222) 
Phenylpropanoids and polyketides

>  <direct_parent_classification>  (1222) 
Linear diarylheptanoids

>  <np_classifier_pathway>  (1222) 
Shikimates and Phenylpropanoids

>  <np_classifier_superclass>  (1222) 
Diarylheptanoids

>  <np_classifier_class>  (1222) 
Linear diarylheptanoids

>  <np_classifier_is_glycoside>  (1222) 
False

>  <organisms>  (1222) 
Acer nikoense|Alnus formosana|Alnus nepalensis|Betula platyphylla|Centrolobium paraense|Centrolobium robustum|Centrolobium sclerophyllum|Centrolobium tomentosum|Parthenocissus tricuspidata

>  <collections>  (1222) 
CMAUP (cCollective molecular activities of useful plants)|KNApSaCK|Latin America dataset|NPASS|NuBBEDB|Super Natural II|TCMDB-Taiwan (Traditional Chinese Medicine database)|WikiData Natural Products|ZINC NP

>  <dois>  (1222) 
10.1002/CBDV.201200024|10.1007/S10600-011-0046-7|10.1016/J.BMCL.2010.03.053|10.1016/J.BMCL.2011.04.041|10.1016/J.PHYTOCHEM.2011.02.008|10.1016/S0031-9422(00)85606-X|10.1016/S0031-9422(00)97984-6|10.1016/S0031-9422(97)00976-X|10.1016/j.bmcl.2010.03.053|10.1016/j.bmcl.2011.04.041|10.1021/NP020351M|10.1021/np020351m|10.1071/CH9841127|10.1248/CPB.51.62|10.1248/CPB.54.735

>  <synonyms>  (1222) 
(-)-centrolobol|3-Heptanol, 1,7-bis(p-hydroxyphenyl)-, (R)-(-)-|30359-01-4|4-[(5R)-5-Hydroxy-7-(4-hydroxyphenyl)heptyl]phenol|4-chloro-3-chlorosulfonylbenzoci acid|AKOS032962419|Benzenepentanol, 4-hydroxy--[2-(4-hydroxyphenyl)ethyl]-, (R)-; (R)-4-Hydroxy--[2-(4-hydroxyphenyl)ethyl]benzenepentanol; (-)-Centrolobol; Centrolobol, (-)-|CHEMBL462922|CS-0023850|DTXSID40873755|FS-9733|HY-N3564|SCHEMBL13698042

>  <cas>  (1222) 
30359-01-4

$$$$

     RDKit          2D

 31 35  0  0  0  0  0  0  0  0999 V2000
   -8.1974    0.1901    0.0000 C   0  0  0  0  0  0  0  0  0  0  0  0
   -6.9769   -0.6819    0.0000 C   0  0  0  0  0  0  0  0  0  0  0  0
   -7.1218   -2.1749    0.0000 C   0  0  0  0  0  0  0  0  0  0  0  0
   -8.4872   -2.7959    0.0000 O   0  0  0  0  0  0  0  0  0  0  0  0
   -5.6115   -0.0609    0.0000 C   0  0  0  0  0  0  0  0  0  0  0  0
   -4.3065   -0.8005    0.0000 C   0  0  0  0  0  0  0  0  0  0  0  0
   -3.1998    0.2120    0.0000 C   0  0  0  0  0  0  0  0  0  0  0  0
   -3.8208    1.5774    0.0000 C   0  0  0  0  0  0  0  0  0  0  0  0
   -2.9488    2.7979    0.0000 C   0  0  0  0  0  0  0  0  0  0  0  0
   -1.4558    2.6530    0.0000 C   0  0  0  0  0  0  0  0  0  0  0  0
   -0.5839    3.8735    0.0000 O   0  0  0  0  0  0  0  0  0  0  0  0
   -0.8348    1.2876    0.0000 C   0  0  0  0  0  0  0  0  0  0  0  0
   -1.7068    0.0671    0.0000 C   0  0  0  0  0  0  0  0  0  0  0  0
   -1.0858   -1.2983    0.0000 O   0  0  0  0  0  0  0  0  0  0  0  0
    0.4072   -1.4432    0.0000 C   0  0  0  0  0  0  0  0  0  0  0  0
    1.0282   -2.8086    0.0000 C   0  0  0  0  0  0  0  0  0  0  0  0
    2.5212   -2.9535    0.0000 O   0  0  0  0  0  0  0  0  0  0  0  0
    3.3931   -1.7330    0.0000 C   0  0  0  0  0  0  0  0  0  0  0  0
    4.8861   -1.8779    0.0000 C   0  0  0  0  0  0  0  0  0  0  0  0
    5.7581   -0.6574    0.0000 C   0  0  0  0  0  0  0  0  0  0  0  0
    7.2511   -0.8023    0.0000 O   0  0  0  0  0  0  0  0  0  0  0  0
    7.8721   -2.1677    0.0000 C   0  0  0  0  0  0  0  0  0  0  0  0
    5.1371    0.7080    0.0000 C   0  0  0  0  0  0  0  0  0  0  0  0
    6.0091    1.9285    0.0000 O   0  0  0  0  0  0  0  0  0  0  0  0
    7.5021    1.7836    0.0000 C   0  0  0  0  0  0  0  0  0  0  0  0
    3.6441    0.8529    0.0000 C   0  0  0  0  0  0  0  0  0  0  0  0
    2.7721   -0.3676    0.0000 C   0  0  0  0  0  0  0  0  0  0  0  0
    1.2792   -0.2227    0.0000 C   0  0  0  0  0  0  0  0  0  0  0  0
    0.6581    1.1427    0.0000 C   0  0  0  0  0  0  0  0  0  0  0  0
    1.5301    2.3632    0.0000 O   0  0  0  0  0  0  0  0  0  0  0  0
   -5.3113    1.4087    0.0000 O   0  0  0  0  0  0  0  0  0  0  0  0
  1  2  2  0
  2  3  1  0
  3  4  1  0
  5  2  1  6
  5  6  1  0
  6  7  1  0
  7  8  2  0
  8  9  1  0
  9 10  2  0
 10 11  1  0
 10 12  1  0
 12 13  2  0
 13 14  1  0
 14 15  1  0
 15 16  1  1
 16 17  1  0
 17 18  1  0
 18 19  2  0
 19 20  1  0
 20 21  1  0
 21 22  1  0
 20 23  2  0
 23 24  1  0
 24 25  1  0
 23 26  1  0
 26 27  2  0
 27 28  1  0
 28 29  1  1
 29 30  2  0
  8 31  1  0
 31  5  1  0
 13  7  1  0
 28 15  1  0
 29 12  1  0
 27 18  1  0
M  END
>  <identifier>  (1223) 
CNP0296417.1

>  <canonical_smiles>  (1223) 
C=C(CO)[C@H]1CC2=C(C=C(O)C3=C2O[C@@H]2COC4=CC(OC)=C(OC)C=C4[C@@H]2C3=O)O1

>  <standard_inchi>  (1223) 
InChI=1S/C23H22O8/c1-10(8-24)14-5-12-16(30-14)6-13(25)21-22(26)20-11-4-17(27-2)18(28-3)7-15(11)29-9-19(20)31-23(12)21/h4,6-7,14,19-20,24-25H,1,5,8-9H2,2-3H3/t14-,19-,20+/m1/s1

>  <standard_inchi_key>  (1223) 
GVNDEQNZOKSGFM-XMCHAPAWSA-N

>  <name>  (1223) 
nan

>  <iupac_name>  (1223) 
(1~{S},6~{R},13~{S})-10-hydroxy-6-[1-(hydroxymethyl)vinyl]-16,17-dimethoxy-2,7,20-trioxapentacyclo[11.8.0.0^{3,11}.0^{4,8}.0^{14,19}]henicosa-3(11),4(8),9,14,16,18-hexaen-12-one

>  <annotation_level>  (1223) 
4

>  <total_atom_count>  (1223) 
53

>  <heavy_atom_count>  (1223) 
31

>  <molecular_weight>  (1223) 
426.42

>  <exact_molecular_weight>  (1223) 
426.13147

>  <molecular_formula>  (1223) 
C23H22O8

>  <alogp>  (1223) 
2.38

>  <topological_polar_surface_area>  (1223) 
103.68

>  <rotatable_bond_count>  (1223) 
4

>  <hydrogen_bond_acceptors>  (1223) 
8

>  <hydrogen_bond_donors>  (1223) 
2

>  <hydrogen_bond_acceptors_lipinski>  (1223) 
8

>  <hydrogen_bond_donors_lipinski>  (1223) 
2

>  <lipinski_rule_of_five_violations>  (1223) 
0

>  <aromatic_rings_count>  (1223) 
2

>  <qed_drug_likeliness>  (1223) 
0.72

>  <formal_charge>  (1223) 
0

>  <fractioncsp3>  (1223) 
0.35

>  <number_of_minimal_rings>  (1223) 
5

>  <van_der_walls_volume>  (1223) 
nan

>  <contains_sugar>  (1223) 
False

>  <contains_ring_sugars>  (1223) 
False

>  <contains_linear_sugars>  (1223) 
False

>  <murcko_framework>  (1223) 
O1c2ccc3c(OC4COc5ccccc5C4C3)c2CC1

>  <np_likeness>  (1223) 
2.28

>  <chemical_class>  (1223) 
Isoflavonoids

>  <chemical_sub_class>  (1223) 
Rotenoids

>  <chemical_super_class>  (1223) 
Phenylpropanoids and polyketides

>  <direct_parent_classification>  (1223) 
Rotenones

>  <np_classifier_pathway>  (1223) 
Shikimates and Phenylpropanoids

>  <np_classifier_superclass>  (1223) 
Isoflavonoids

>  <np_classifier_class>  (1223) 
Isoflavanones

>  <np_classifier_is_glycoside>  (1223) 
False

>  <organisms>  (1223) 
Tephrosia candida

>  <collections>  (1223) 
Latin America dataset|NuBBEDB|ZINC NP

>  <dois>  (1223) 
10.1002/(SICI)1521-4168(19980901)21:9<513::AID-JHRC513>3.0.CO,2-F

>  <synonyms>  (1223) 
1189-dihydroxy-rotenone

>  <cas>  (1223) 
nan

$$$$

     RDKit          2D

 32 37  0  0  0  0  0  0  0  0999 V2000
   -5.3477   -2.7145    0.0000 C   0  0  0  0  0  0  0  0  0  0  0  0
   -5.4749   -1.2199    0.0000 C   0  0  0  0  0  0  0  0  0  0  0  0
   -6.9247   -1.6047    0.0000 C   0  0  0  0  0  0  0  0  0  0  0  0
   -6.1056    0.1410    0.0000 C   0  0  0  0  0  0  0  0  0  0  0  0
   -5.2424    1.3678    0.0000 C   0  0  0  0  0  0  0  0  0  0  0  0
   -3.7484    1.2335    0.0000 C   0  0  0  0  0  0  0  0  0  0  0  0
   -4.3791    2.5945    0.0000 C   0  0  0  0  0  0  0  0  0  0  0  0
   -2.8851    2.4602    0.0000 C   0  0  0  0  0  0  0  0  0  0  0  0
   -1.3912    2.3260    0.0000 C   0  0  0  0  0  0  0  0  0  0  0  0
   -0.7604    0.9650    0.0000 C   0  0  0  0  0  0  0  0  0  0  0  0
   -0.1297   -0.3959    0.0000 C   0  0  0  0  0  0  0  0  0  0  0  0
    0.7335    0.8308    0.0000 C   0  0  0  0  0  0  0  0  0  0  0  0
    0.1028    2.1917    0.0000 C   0  0  0  0  0  0  0  0  0  0  0  0
    1.5968    2.0575    0.0000 C   0  0  0  0  0  0  0  0  0  0  0  0
    3.0908    1.9232    0.0000 C   0  0  0  0  0  0  0  0  0  0  0  0
    3.7215    0.5623    0.0000 C   0  0  0  0  0  0  0  0  0  0  0  0
    5.2155    0.4280    0.0000 C   0  0  0  0  0  0  0  0  0  0  0  0
    6.6653    0.8129    0.0000 C   0  0  0  0  0  0  0  0  0  0  0  0
    5.0883    1.9226    0.0000 C   0  0  0  0  0  0  0  0  0  0  0  0
    5.8462   -0.9329    0.0000 C   0  0  0  0  0  0  0  0  0  0  0  0
    7.3402   -1.0672    0.0000 O   0  0  0  0  0  0  0  0  0  0  0  0
    4.9830   -2.1596    0.0000 C   0  0  0  0  0  0  0  0  0  0  0  0
    3.4890   -2.0254    0.0000 C   0  0  0  0  0  0  0  0  0  0  0  0
    2.8583   -0.6644    0.0000 C   0  0  0  0  0  0  0  0  0  0  0  0
    1.9950   -1.8911    0.0000 C   0  0  0  0  0  0  0  0  0  0  0  0
    1.3643   -0.5302    0.0000 C   0  0  0  0  0  0  0  0  0  0  0  0
    0.5010   -1.7569    0.0000 C   0  0  0  0  0  0  0  0  0  0  0  0
   -0.9930   -1.6226    0.0000 C   0  0  0  0  0  0  0  0  0  0  0  0
   -2.4869   -1.4884    0.0000 O   0  0  0  0  0  0  0  0  0  0  0  0
   -1.6237   -0.2617    0.0000 C   0  0  0  0  0  0  0  0  0  0  0  0
   -3.1177   -0.1274    0.0000 C   0  0  0  0  0  0  0  0  0  0  0  0
   -3.9809   -1.3541    0.0000 C   0  0  0  0  0  0  0  0  0  0  0  0
  1  2  1  0
  2  3  1  0
  2  4  1  0
  4  5  1  0
  5  6  1  0
  6  7  1  1
  6  8  1  0
  8  9  1  0
  9 10  1  0
 10 11  1  6
 10 12  1  0
 12 13  1  1
 12 14  1  0
 14 15  1  0
 15 16  1  0
 16 17  1  0
 17 18  1  0
 17 19  1  0
 17 20  1  0
 20 21  1  1
 20 22  1  0
 22 23  1  0
 23 24  1  0
 24 25  1  1
 24 26  1  0
 26 27  1  0
 28 27  1  6
 28 29  1  0
 30 29  1  6
 30 31  1  0
 31 32  1  0
 32  2  1  0
 31  6  1  0
 30 10  1  0
 26 12  1  0
 30 28  1  0
 24 16  1  0
M  END
>  <identifier>  (1224) 
CNP0237530.1

>  <canonical_smiles>  (1224) 
CC1(C)CC[C@]2(C)CC[C@@]3(C)[C@]4(C)CCC5C(C)(C)[C@@H](O)CC[C@]5(C)C4C[C@@H]4O[C@@]43C2C1

>  <standard_inchi>  (1224) 
InChI=1S/C30H50O2/c1-24(2)13-14-26(5)15-16-29(8)28(7)12-9-19-25(3,4)22(31)10-11-27(19,6)20(28)17-23-30(29,32-23)21(26)18-24/h19-23,31H,9-18H2,1-8H3/t19?,20?,21?,22-,23-,26+,27-,28+,29-,30-/m0/s1

>  <standard_inchi_key>  (1224) 
FEICVHTUVUPNSC-UDRZHNQKSA-N

>  <name>  (1224) 
nan

>  <iupac_name>  (1224) 
(1~{R},3~{S},6~{R},9~{S},14~{R},15~{S},18~{R})-6,10,10,14,15,18,21,21-octamethyl-2-oxahexacyclo[13.8.0.0^{1,3}.0^{5,14}.0^{6,11}.0^{18,23}]tricosan-9-ol

>  <annotation_level>  (1224) 
4

>  <total_atom_count>  (1224) 
82

>  <heavy_atom_count>  (1224) 
32

>  <molecular_weight>  (1224) 
442.73

>  <exact_molecular_weight>  (1224) 
442.38108

>  <molecular_formula>  (1224) 
C30H50O2

>  <alogp>  (1224) 
7.38

>  <topological_polar_surface_area>  (1224) 
32.76

>  <rotatable_bond_count>  (1224) 
0

>  <hydrogen_bond_acceptors>  (1224) 
2

>  <hydrogen_bond_donors>  (1224) 
1

>  <hydrogen_bond_acceptors_lipinski>  (1224) 
2

>  <hydrogen_bond_donors_lipinski>  (1224) 
1

>  <lipinski_rule_of_five_violations>  (1224) 
1

>  <aromatic_rings_count>  (1224) 
0

>  <qed_drug_likeliness>  (1224) 
0.40

>  <formal_charge>  (1224) 
0

>  <fractioncsp3>  (1224) 
1.00

>  <number_of_minimal_rings>  (1224) 
6

>  <van_der_walls_volume>  (1224) 
nan

>  <contains_sugar>  (1224) 
False

>  <contains_ring_sugars>  (1224) 
False

>  <contains_linear_sugars>  (1224) 
False

>  <murcko_framework>  (1224) 
O1C2CC3C4CCCCC4CCC3C5CCC6CCCCC6C125

>  <np_likeness>  (1224) 
3.23

>  <chemical_class>  (1224) 
Prenol lipids

>  <chemical_sub_class>  (1224) 
Triterpenoids

>  <chemical_super_class>  (1224) 
Lipids and lipid-like molecules

>  <direct_parent_classification>  (1224) 
Oleanane triterpenoids

>  <np_classifier_pathway>  (1224) 
Terpenoids

>  <np_classifier_superclass>  (1224) 
Triterpenoids

>  <np_classifier_class>  (1224) 
Oleanane triterpenoids

>  <np_classifier_is_glycoside>  (1224) 
False

>  <organisms>  (1224) 
Esenbeckia grandiflora

>  <collections>  (1224) 
Latin America dataset|NuBBEDB|WikiData Natural Products

>  <dois>  (1224) 
10.1590/S0100-40422009000800010

>  <synonyms>  (1224) 
3\u221a\u00e9\u00ac\u00b1-hydroxy-1213-epoxy-oleanane

>  <cas>  (1224) 
nan

$$$$

     RDKit          2D

 15 16  0  0  0  0  0  0  0  0999 V2000
    4.1703   -0.5520    0.0000 C   0  0  0  0  0  0  0  0  0  0  0  0
    2.7653   -0.0267    0.0000 C   0  0  0  0  0  0  0  0  0  0  0  0
    1.6078   -0.9808    0.0000 C   0  0  0  0  0  0  0  0  0  0  0  0
    0.2028   -0.4555    0.0000 C   0  0  0  0  0  0  0  0  0  0  0  0
   -0.0447    1.0240    0.0000 C   0  0  0  0  0  0  0  0  0  0  0  0
    1.1127    1.9781    0.0000 C   0  0  0  0  0  0  0  0  0  0  0  0
    2.5177    1.4527    0.0000 C   0  0  0  0  0  0  0  0  0  0  0  0
   -1.3558    1.7528    0.0000 C   0  0  0  0  0  0  0  0  0  0  0  0
   -1.2679    3.2502    0.0000 C   0  0  0  0  0  0  0  0  0  0  0  0
   -2.7430    1.1823    0.0000 C   0  0  0  0  0  0  0  0  0  0  0  0
   -3.1619   -0.2581    0.0000 C   0  0  0  0  0  0  0  0  0  0  0  0
   -2.2969   -1.4836    0.0000 C   0  0  0  0  0  0  0  0  0  0  0  0
   -0.7995   -1.5714    0.0000 C   0  0  0  0  0  0  0  0  0  0  0  0
   -1.2184   -3.0118    0.0000 C   0  0  0  0  0  0  0  0  0  0  0  0
    0.5115   -2.3003    0.0000 C   0  0  0  0  0  0  0  0  0  0  0  0
  1  2  1  0
  2  3  2  0
  3  4  1  0
  4  5  1  0
  5  6  1  6
  6  7  1  0
  5  8  1  0
  8  9  1  0
  8 10  2  0
 10 11  1  0
 11 12  1  0
 12 13  1  0
 13 14  1  0
 13 15  1  0
  7  2  1  0
  4 13  1  6
M  END
>  <identifier>  (1225) 
CNP0176873.1

>  <canonical_smiles>  (1225) 
CC1=C[C@H]2[C@@H](CC1)C(C)=CCCC2(C)C

>  <standard_inchi>  (1225) 
InChI=1S/C15H24/c1-11-7-8-13-12(2)6-5-9-15(3,4)14(13)10-11/h6,10,13-14H,5,7-9H2,1-4H3/t13-,14-/m0/s1

>  <standard_inchi_key>  (1225) 
PUWNTRHCKNHSAT-KBPBESRZSA-N

>  <name>  (1225) 
(1R,6S)-gamma-himachalene

>  <iupac_name>  (1225) 
(4~{a}~{R},9~{a}~{S})-2,5,9,9-tetramethyl-3,4,4~{a},7,8,9~{a}-hexahydrobenzo[7]annulene

>  <annotation_level>  (1225) 
5

>  <total_atom_count>  (1225) 
39

>  <heavy_atom_count>  (1225) 
15

>  <molecular_weight>  (1225) 
204.36

>  <exact_molecular_weight>  (1225) 
204.1878

>  <molecular_formula>  (1225) 
C15H24

>  <alogp>  (1225) 
4.73

>  <topological_polar_surface_area>  (1225) 
0.00

>  <rotatable_bond_count>  (1225) 
0

>  <hydrogen_bond_acceptors>  (1225) 
0

>  <hydrogen_bond_donors>  (1225) 
0

>  <hydrogen_bond_acceptors_lipinski>  (1225) 
0

>  <hydrogen_bond_donors_lipinski>  (1225) 
0

>  <lipinski_rule_of_five_violations>  (1225) 
0

>  <aromatic_rings_count>  (1225) 
0

>  <qed_drug_likeliness>  (1225) 
0.50

>  <formal_charge>  (1225) 
0

>  <fractioncsp3>  (1225) 
0.73

>  <number_of_minimal_rings>  (1225) 
2

>  <van_der_walls_volume>  (1225) 
224.34

>  <contains_sugar>  (1225) 
False

>  <contains_ring_sugars>  (1225) 
False

>  <contains_linear_sugars>  (1225) 
False

>  <murcko_framework>  (1225) 
C1=CC2CCC=CC2CCC1

>  <np_likeness>  (1225) 
2.86

>  <chemical_class>  (1225) 
Prenol lipids

>  <chemical_sub_class>  (1225) 
Sesquiterpenoids

>  <chemical_super_class>  (1225) 
Lipids and lipid-like molecules

>  <direct_parent_classification>  (1225) 
Himachalane and lippifoliane sesquiterpenoids

>  <np_classifier_pathway>  (1225) 
Terpenoids

>  <np_classifier_superclass>  (1225) 
Sesquiterpenoids

>  <np_classifier_class>  (1225) 
Himachalane sesquiterpenoids

>  <np_classifier_is_glycoside>  (1225) 
False

>  <organisms>  (1225) 
Melaleuca armillaris|Toona ciliata

>  <collections>  (1225) 
Australian natural products|CMAUP (cCollective molecular activities of useful plants)|Latin America dataset|NuBBEDB|Super Natural II

>  <dois>  (1225) 
10.1590/S0103-50532000000600012|10.3390/ijms131216580

>  <synonyms>  (1225) 
(-)-.GAMMA.-HIMACHALENE|(-)-gamma-himachalene|(4aR,9aS)-2,5,9,9-tetramethyl-3,4,4a,7,8,9a-hexahydrobenzo[7]annulene|(4aS,9aR)-3,5,5,9-tetramethyl-2,4a,5,6,7,9a-hexahydro-1H-benzo[7]annulene|(4aS,9aR)-3,5,5,9-tetramethyl-2,4a,5,6,7,9a-hexahydro-1H-benzo[7]annulene himachal-4,10-diene|.GAMMA.-CIS-HIMACHALENE|.GAMMA.-HIMACHALENE, (-)-|.gamma.-HIMACHALENE|1H-BENZOCYCLOHEPTENE, 2,4A,5,6,7,9A-HEXAHYDRO-3,5,5,9-TETRAMETHYL-, (4AS,9AR)-|1H-Benzocycloheptene, 2,4a,5,6,7,9a-hexahydro-3,5,5,9-tetramethyl-, (4aS-cis)-|2M8UNY276Q|5-Hydroxy-6-methoxy-8-[(4-amino-1-methylbutyl)amino]quinoline trihydrobromide|53111-25-4|CHEBI:49228|DTXSID00967644|LMPR0103480009|PUWNTRHCKNHSAT-KBPBESRZSA-N|Q27121546|UNII-2M8UNY276Q|\u221a\u00e9\u00ac\u2265-Himachalene|gamma-Himachalene, (-)-|himachal-4,10-diene|y-himachalene

>  <cas>  (1225) 
53111-25-4

$$$$

     RDKit          2D

 27 30  0  0  0  0  0  0  0  0999 V2000
   -6.5467    0.0293    0.0000 C   0  0  0  0  0  0  0  0  0  0  0  0
   -5.5205   -1.0647    0.0000 O   0  0  0  0  0  0  0  0  0  0  0  0
   -4.0600   -0.7231    0.0000 C   0  0  0  0  0  0  0  0  0  0  0  0
   -3.6256    0.7127    0.0000 C   0  0  0  0  0  0  0  0  0  0  0  0
   -2.1650    1.0543    0.0000 C   0  0  0  0  0  0  0  0  0  0  0  0
   -1.1388   -0.0397    0.0000 C   0  0  0  0  0  0  0  0  0  0  0  0
   -1.5732   -1.4754    0.0000 C   0  0  0  0  0  0  0  0  0  0  0  0
   -3.0338   -1.8171    0.0000 C   0  0  0  0  0  0  0  0  0  0  0  0
   -3.4682   -3.2528    0.0000 O   0  0  0  0  0  0  0  0  0  0  0  0
   -4.9287   -3.5945    0.0000 C   0  0  0  0  0  0  0  0  0  0  0  0
    0.3218    0.3020    0.0000 C   0  0  0  0  0  0  0  0  0  0  0  0
    0.4046   -1.1958    0.0000 O   0  0  0  0  0  0  0  0  0  0  0  0
    1.8111    0.1235    0.0000 C   0  0  0  0  0  0  0  0  0  0  0  0
    2.7103    1.3241    0.0000 C   0  0  0  0  0  0  0  0  0  0  0  0
    4.1997    1.1456    0.0000 C   0  0  0  0  0  0  0  0  0  0  0  0
    4.7898   -0.2335    0.0000 C   0  0  0  0  0  0  0  0  0  0  0  0
    6.2095   -0.7177    0.0000 O   0  0  0  0  0  0  0  0  0  0  0  0
    6.1877   -2.2175    0.0000 C   0  0  0  0  0  0  0  0  0  0  0  0
    4.7545   -2.6603    0.0000 O   0  0  0  0  0  0  0  0  0  0  0  0
    3.8905   -1.4340    0.0000 C   0  0  0  0  0  0  0  0  0  0  0  0
    2.4012   -1.2556    0.0000 C   0  0  0  0  0  0  0  0  0  0  0  0
    0.7561    1.7377    0.0000 C   0  0  0  0  0  0  0  0  0  0  0  0
    2.2167    2.0794    0.0000 C   0  0  0  0  0  0  0  0  0  0  0  0
   -0.2700    2.8317    0.0000 C   0  0  0  0  0  0  0  0  0  0  0  0
    0.1643    4.2675    0.0000 C   0  0  0  0  0  0  0  0  0  0  0  0
   -1.7306    2.4901    0.0000 C   0  0  0  0  0  0  0  0  0  0  0  0
   -2.7568    3.5841    0.0000 O   0  0  0  0  0  0  0  0  0  0  0  0
  1  2  1  0
  2  3  1  0
  3  4  2  0
  4  5  1  0
  5  6  2  0
  6  7  1  0
  7  8  2  0
  8  9  1  0
  9 10  1  0
  6 11  1  0
 11 12  1  6
 11 13  1  0
 13 14  2  0
 14 15  1  0
 15 16  2  0
 16 17  1  0
 17 18  1  0
 18 19  1  0
 19 20  1  0
 20 21  2  0
 11 22  1  0
 22 23  1  6
 22 24  1  0
 24 25  1  1
 24 26  1  0
 26 27  2  0
  8  3  1  0
 21 13  1  0
 26  5  1  0
 20 16  1  0
M  END
>  <identifier>  (1226) 
CNP0315287.1

>  <canonical_smiles>  (1226) 
COC1=CC2=C(C=C1OC)[C@](O)(C1=CC=C3OCOC3=C1)[C@@H](C)[C@H](C)C2=O

>  <standard_inchi>  (1226) 
InChI=1S/C21H22O6/c1-11-12(2)21(23,13-5-6-16-19(7-13)27-10-26-16)15-9-18(25-4)17(24-3)8-14(15)20(11)22/h5-9,11-12,23H,10H2,1-4H3/t11-,12-,21+/m0/s1

>  <standard_inchi_key>  (1226) 
NDCKQHZMIZHJRH-QSRBQVKKSA-N

>  <name>  (1226) 
nan

>  <iupac_name>  (1226) 
(2~{S},3~{S},4~{R})-4-(1,3-benzodioxol-5-yl)-4-hydroxy-6,7-dimethoxy-2,3-dimethyl-tetralin-1-one

>  <annotation_level>  (1226) 
3

>  <total_atom_count>  (1226) 
49

>  <heavy_atom_count>  (1226) 
27

>  <molecular_weight>  (1226) 
370.4

>  <exact_molecular_weight>  (1226) 
370.14164

>  <molecular_formula>  (1226) 
C21H22O6

>  <alogp>  (1226) 
3.14

>  <topological_polar_surface_area>  (1226) 
74.22

>  <rotatable_bond_count>  (1226) 
3

>  <hydrogen_bond_acceptors>  (1226) 
6

>  <hydrogen_bond_donors>  (1226) 
1

>  <hydrogen_bond_acceptors_lipinski>  (1226) 
6

>  <hydrogen_bond_donors_lipinski>  (1226) 
1

>  <lipinski_rule_of_five_violations>  (1226) 
0

>  <aromatic_rings_count>  (1226) 
2

>  <qed_drug_likeliness>  (1226) 
0.89

>  <formal_charge>  (1226) 
0

>  <fractioncsp3>  (1226) 
0.38

>  <number_of_minimal_rings>  (1226) 
4

>  <van_der_walls_volume>  (1226) 
326.34

>  <contains_sugar>  (1226) 
False

>  <contains_ring_sugars>  (1226) 
False

>  <contains_linear_sugars>  (1226) 
False

>  <murcko_framework>  (1226) 
O1c2ccc(cc2OC1)C3c4ccccc4CCC3

>  <np_likeness>  (1226) 
1.24

>  <chemical_class>  (1226) 
Aryltetralin lignans

>  <chemical_sub_class>  (1226) 
Aryltetralin lignans

>  <chemical_super_class>  (1226) 
Lignans, neolignans and related compounds

>  <direct_parent_classification>  (1226) 
Aryltetralin lignans

>  <np_classifier_pathway>  (1226) 
Shikimates and Phenylpropanoids

>  <np_classifier_superclass>  (1226) 
Lignans

>  <np_classifier_class>  (1226) 
Arylnaphthalene and aryltetralin lignans

>  <np_classifier_is_glycoside>  (1226) 
False

>  <organisms>  (1226) 
Virola sebifera

>  <collections>  (1226) 
ChemSpider NPs|Latin America dataset|NuBBEDB|Super Natural II|ZINC NP

>  <dois>  (1226) 
10.1002/1099-1565(200011/12)11:6<383::AID-PCA543>3.0.CO,2-M

>  <synonyms>  (1226) 
nan

>  <cas>  (1226) 
nan

$$$$

     RDKit          2D

 38 42  0  0  0  0  0  0  0  0999 V2000
   -5.0875    4.9596    0.0000 C   0  0  0  0  0  0  0  0  0  0  0  0
   -4.1445    3.7931    0.0000 C   0  0  0  0  0  0  0  0  0  0  0  0
   -2.6628    4.0264    0.0000 O   0  0  0  0  0  0  0  0  0  0  0  0
   -4.6833    2.3932    0.0000 O   0  0  0  0  0  0  0  0  0  0  0  0
   -3.7403    1.2266    0.0000 C   0  0  0  0  0  0  0  0  0  0  0  0
   -2.2586    1.4600    0.0000 C   0  0  0  0  0  0  0  0  0  0  0  0
   -1.3156    0.2935    0.0000 C   0  0  0  0  0  0  0  0  0  0  0  0
   -2.7973    0.0601    0.0000 C   0  0  0  0  0  0  0  0  0  0  0  0
   -1.8544   -1.1064    0.0000 C   0  0  0  0  0  0  0  0  0  0  0  0
   -0.9114   -2.2730    0.0000 C   0  0  0  0  0  0  0  0  0  0  0  0
    0.5703   -2.0396    0.0000 C   0  0  0  0  0  0  0  0  0  0  0  0
    1.1091   -0.6397    0.0000 C   0  0  0  0  0  0  0  0  0  0  0  0
    2.5908   -0.4063    0.0000 C   0  0  0  0  0  0  0  0  0  0  0  0
    2.0521   -1.8062    0.0000 C   0  0  0  0  0  0  0  0  0  0  0  0
    3.5338   -1.5728    0.0000 C   0  0  0  0  0  0  0  0  0  0  0  0
    5.0156   -1.3395    0.0000 C   0  0  0  0  0  0  0  0  0  0  0  0
    5.5543    0.0604    0.0000 C   0  0  0  0  0  0  0  0  0  0  0  0
    7.0360    0.2938    0.0000 O   0  0  0  0  0  0  0  0  0  0  0  0
    7.9790   -0.8727    0.0000 C   0  0  0  0  0  0  0  0  0  0  0  0
    9.4608   -0.6393    0.0000 C   0  0  0  0  0  0  0  0  0  0  0  0
    7.4403   -2.2726    0.0000 O   0  0  0  0  0  0  0  0  0  0  0  0
    4.6113    1.2270    0.0000 C   0  0  0  0  0  0  0  0  0  0  0  0
    4.1242    2.6457    0.0000 C   0  0  0  0  0  0  0  0  0  0  0  0
    5.9239    1.9531    0.0000 C   0  0  0  0  0  0  0  0  0  0  0  0
    3.1296    0.9936    0.0000 C   0  0  0  0  0  0  0  0  0  0  0  0
    2.1866    2.1601    0.0000 C   0  0  0  0  0  0  0  0  0  0  0  0
    0.7049    1.9268    0.0000 C   0  0  0  0  0  0  0  0  0  0  0  0
    0.1661    0.5269    0.0000 C   0  0  0  0  0  0  0  0  0  0  0  0
   -0.7768    1.6934    0.0000 C   0  0  0  0  0  0  0  0  0  0  0  0
   -3.3361   -1.3398    0.0000 C   0  0  0  0  0  0  0  0  0  0  0  0
   -3.8749   -2.7397    0.0000 C   0  0  0  0  0  0  0  0  0  0  0  0
   -2.9319   -3.9062    0.0000 C   0  0  0  0  0  0  0  0  0  0  0  0
   -5.3566   -2.9731    0.0000 C   0  0  0  0  0  0  0  0  0  0  0  0
   -5.8953   -4.3730    0.0000 C   0  0  0  0  0  0  0  0  0  0  0  0
   -6.2996   -1.8066    0.0000 C   0  0  0  0  0  0  0  0  0  0  0  0
   -5.7608   -0.4067    0.0000 C   0  0  0  0  0  0  0  0  0  0  0  0
   -4.2791   -0.1733    0.0000 C   0  0  0  0  0  0  0  0  0  0  0  0
   -5.2220    0.9933    0.0000 C   0  0  0  0  0  0  0  0  0  0  0  0
  1  2  1  0
  2  3  2  0
  2  4  1  0
  5  4  1  1
  5  6  1  0
  6  7  1  0
  7  8  1  6
  7  9  1  0
  9 10  2  0
 10 11  1  0
 11 12  1  0
 12 13  1  0
 13 14  1  1
 13 15  1  0
 15 16  1  0
 16 17  1  0
 17 18  1  6
 18 19  1  0
 19 20  1  0
 19 21  2  0
 17 22  1  0
 22 23  1  0
 22 24  1  0
 22 25  1  0
 25 26  1  0
 26 27  1  0
 27 28  1  0
 28 29  1  1
  9 30  1  0
 30 31  1  0
 31 32  1  1
 31 33  1  0
 33 34  1  6
 33 35  1  0
 35 36  1  0
 36 37  1  0
 37 38  1  1
 37  5  1  0
 28  7  1  0
 37 30  1  0
 28 12  1  0
 25 13  1  0
M  END
>  <identifier>  (1227) 
CNP0240810.1

>  <canonical_smiles>  (1227) 
CC(=O)O[C@H]1C[C@]2(C)C(=CCC3[C@@]4(C)CC[C@@H](OC(C)=O)C(C)(C)C4CC[C@]32C)C2[C@@H](C)[C@H](C)CC[C@@]21C

>  <standard_inchi>  (1227) 
InChI=1S/C34H54O4/c1-20-13-16-32(8)28(38-23(4)36)19-34(10)24(29(32)21(20)2)11-12-26-31(7)17-15-27(37-22(3)35)30(5,6)25(31)14-18-33(26,34)9/h11,20-21,25-29H,12-19H2,1-10H3/t20-,21+,25?,26?,27-,28+,29?,31+,32-,33-,34-/m1/s1

>  <standard_inchi_key>  (1227) 
LAGMPADXFMSUEN-JVFQULIKSA-N

>  <name>  (1227) 
nan

>  <iupac_name>  (1227) 
[(3~{R},6~{a}~{R},6~{b}~{S},8~{S},8~{a}~{S},11~{R},12~{S},14~{b}~{R})-8-acetoxy-4,4,6~{a},6~{b},8~{a},11,12,14~{b}-octamethyl-2,3,4~{a},5,6,7,8,9,10,11,12,12~{a},14,14~{a}-tetradecahydro-1~{H}-picen-3-yl] acetate

>  <annotation_level>  (1227) 
4

>  <total_atom_count>  (1227) 
92

>  <heavy_atom_count>  (1227) 
38

>  <molecular_weight>  (1227) 
526.8

>  <exact_molecular_weight>  (1227) 
526.40221

>  <molecular_formula>  (1227) 
C34H54O4

>  <alogp>  (1227) 
8.14

>  <topological_polar_surface_area>  (1227) 
52.60

>  <rotatable_bond_count>  (1227) 
2

>  <hydrogen_bond_acceptors>  (1227) 
4

>  <hydrogen_bond_donors>  (1227) 
0

>  <hydrogen_bond_acceptors_lipinski>  (1227) 
4

>  <hydrogen_bond_donors_lipinski>  (1227) 
0

>  <lipinski_rule_of_five_violations>  (1227) 
2

>  <aromatic_rings_count>  (1227) 
0

>  <qed_drug_likeliness>  (1227) 
0.27

>  <formal_charge>  (1227) 
0

>  <fractioncsp3>  (1227) 
0.88

>  <number_of_minimal_rings>  (1227) 
5

>  <van_der_walls_volume>  (1227) 
nan

>  <contains_sugar>  (1227) 
False

>  <contains_ring_sugars>  (1227) 
False

>  <contains_linear_sugars>  (1227) 
False

>  <murcko_framework>  (1227) 
C1=C2C3CCCCC3CCC2C4CCC5CCCCC5C4C1

>  <np_likeness>  (1227) 
2.68

>  <chemical_class>  (1227) 
Prenol lipids

>  <chemical_sub_class>  (1227) 
Triterpenoids

>  <chemical_super_class>  (1227) 
Lipids and lipid-like molecules

>  <direct_parent_classification>  (1227) 
Taraxastane, ursane, and bauerane triterpenoids

>  <np_classifier_pathway>  (1227) 
Terpenoids

>  <np_classifier_superclass>  (1227) 
Triterpenoids

>  <np_classifier_class>  (1227) 
Ursane and Taraxastane triterpenoids

>  <np_classifier_is_glycoside>  (1227) 
False

>  <organisms>  (1227) 
Trattinnickia burserifolia

>  <collections>  (1227) 
Latin America dataset|NuBBEDB|WikiData Natural Products

>  <dois>  (1227) 
10.1590/S0103-50532004000300008

>  <synonyms>  (1227) 
3\u221a\u00e9\u00ac\u00b116\u221a\u00e9\u00ac\u2264-diacetoxyurs-12-ene

>  <cas>  (1227) 
nan

$$$$

     RDKit          2D

 15 15  0  0  0  0  0  0  0  0999 V2000
   -8.3520    0.0578    0.0000 C   0  0  0  0  0  0  0  0  0  0  0  0
   -6.9829    0.6704    0.0000 C   0  0  0  0  0  0  0  0  0  0  0  0
   -5.7677   -0.2090    0.0000 C   0  0  0  0  0  0  0  0  0  0  0  0
   -4.3985    0.4037    0.0000 C   0  0  0  0  0  0  0  0  0  0  0  0
   -3.1833   -0.4757    0.0000 C   0  0  0  0  0  0  0  0  0  0  0  0
   -1.8142    0.1370    0.0000 C   0  0  0  0  0  0  0  0  0  0  0  0
   -0.5990   -0.7424    0.0000 C   0  0  0  0  0  0  0  0  0  0  0  0
    0.7702   -0.1298    0.0000 C   0  0  0  0  0  0  0  0  0  0  0  0
    1.9853   -1.0092    0.0000 C   0  0  0  0  0  0  0  0  0  0  0  0
    3.3545   -0.3965    0.0000 C   0  0  0  0  0  0  0  0  0  0  0  0
    3.5085    1.0956    0.0000 C   0  0  0  0  0  0  0  0  0  0  0  0
    4.8777    1.7083    0.0000 C   0  0  0  0  0  0  0  0  0  0  0  0
    6.0929    0.8289    0.0000 C   0  0  0  0  0  0  0  0  0  0  0  0
    5.9389   -0.6632    0.0000 C   0  0  0  0  0  0  0  0  0  0  0  0
    4.5697   -1.2759    0.0000 C   0  0  0  0  0  0  0  0  0  0  0  0
  1  2  1  0
  2  3  1  0
  3  4  1  0
  4  5  1  0
  5  6  1  0
  6  7  1  0
  7  8  1  0
  8  9  1  0
  9 10  1  0
 10 11  1  0
 11 12  1  0
 12 13  1  0
 13 14  1  0
 14 15  1  0
 15 10  1  0
M  END
>  <identifier>  (1228) 
CNP0080463.0

>  <canonical_smiles>  (1228) 
CCCCCCCCCC1CCCCC1

>  <standard_inchi>  (1228) 
InChI=1S/C15H30/c1-2-3-4-5-6-7-9-12-15-13-10-8-11-14-15/h15H,2-14H2,1H3

>  <standard_inchi_key>  (1228) 
CLMFECCMAVQYQA-UHFFFAOYSA-N

>  <name>  (1228) 
Nonylcyclohexane

>  <iupac_name>  (1228) 
nonylcyclohexane

>  <annotation_level>  (1228) 
5

>  <total_atom_count>  (1228) 
45

>  <heavy_atom_count>  (1228) 
15

>  <molecular_weight>  (1228) 
210.4

>  <exact_molecular_weight>  (1228) 
210.23475

>  <molecular_formula>  (1228) 
C15H30

>  <alogp>  (1228) 
5.71

>  <topological_polar_surface_area>  (1228) 
0.00

>  <rotatable_bond_count>  (1228) 
8

>  <hydrogen_bond_acceptors>  (1228) 
0

>  <hydrogen_bond_donors>  (1228) 
0

>  <hydrogen_bond_acceptors_lipinski>  (1228) 
0

>  <hydrogen_bond_donors_lipinski>  (1228) 
0

>  <lipinski_rule_of_five_violations>  (1228) 
1

>  <aromatic_rings_count>  (1228) 
0

>  <qed_drug_likeliness>  (1228) 
0.45

>  <formal_charge>  (1228) 
0

>  <fractioncsp3>  (1228) 
1.00

>  <number_of_minimal_rings>  (1228) 
1

>  <van_der_walls_volume>  (1228) 
nan

>  <contains_sugar>  (1228) 
False

>  <contains_ring_sugars>  (1228) 
False

>  <contains_linear_sugars>  (1228) 
False

>  <murcko_framework>  (1228) 
C1CCCCC1

>  <np_likeness>  (1228) 
0.41

>  <chemical_class>  (1228) 
Saturated hydrocarbons

>  <chemical_sub_class>  (1228) 
Cycloalkanes

>  <chemical_super_class>  (1228) 
Hydrocarbons

>  <direct_parent_classification>  (1228) 
Cycloalkanes

>  <np_classifier_pathway>  (1228) 
Fatty acids

>  <np_classifier_superclass>  (1228) 
Fatty acyls

>  <np_classifier_class>  (1228) 
Hydrocarbons

>  <np_classifier_is_glycoside>  (1228) 
False

>  <organisms>  (1228) 
Capsicum annuum|Caryocar coriaceum|Oryza sativa

>  <collections>  (1228) 
Latin America dataset|NuBBEDB|WikiData Natural Products|ZINC NP

>  <dois>  (1228) 
10.1016/J.RENENE.2017.12.012|10.1021/JF00120A031|10.1021/jf00120a031|10.3724/SP.J.1238.2012.00106

>  <synonyms>  (1228) 
1-Cyclohexylnonane|2883-02-5|BS-22214|CAA88302|CLMFECCMAVQYQA-UHFFFAOYSA-|CS-0205097|Cyclohexane, nonyl-|D91693|DTXSID5062685|EINECS 220-739-4|InChI=1\/C15H30\/c1-2-3-4-5-6-7-9-12-15-13-10-8-11-14-15\/h15H,2-14H2,1H3|MFCD00058955|N-NONYLCYCLOHEXANE|N0379|NS00028563|n-nonylcyclohexane

>  <cas>  (1228) 
2883-02-5

$$$$

     RDKit          2D

 26 28  0  0  0  0  0  0  0  0999 V2000
   -3.3067    3.5806    0.0000 C   0  0  0  0  0  0  0  0  0  0  0  0
   -3.4334    2.0860    0.0000 O   0  0  0  0  0  0  0  0  0  0  0  0
   -2.2024    1.2289    0.0000 C   0  0  0  0  0  0  0  0  0  0  0  0
   -0.8446    1.8665    0.0000 C   0  0  0  0  0  0  0  0  0  0  0  0
    0.3864    1.0094    0.0000 C   0  0  0  0  0  0  0  0  0  0  0  0
    0.2597   -0.4852    0.0000 C   0  0  0  0  0  0  0  0  0  0  0  0
    1.4908   -1.3423    0.0000 C   0  0  0  0  0  0  0  0  0  0  0  0
    1.3640   -2.8369    0.0000 O   0  0  0  0  0  0  0  0  0  0  0  0
    2.8485   -0.7047    0.0000 C   0  0  0  0  0  0  0  0  0  0  0  0
    4.0795   -1.5617    0.0000 C   0  0  0  0  0  0  0  0  0  0  0  0
    3.9528   -3.0564    0.0000 O   0  0  0  0  0  0  0  0  0  0  0  0
    5.4373   -0.9242    0.0000 C   0  0  0  0  0  0  0  0  0  0  0  0
    5.5640    0.5705    0.0000 C   0  0  0  0  0  0  0  0  0  0  0  0
    6.9218    1.2081    0.0000 C   0  0  0  0  0  0  0  0  0  0  0  0
    4.3330    1.4275    0.0000 C   0  0  0  0  0  0  0  0  0  0  0  0
    2.9752    0.7900    0.0000 C   0  0  0  0  0  0  0  0  0  0  0  0
    1.7442    1.6470    0.0000 C   0  0  0  0  0  0  0  0  0  0  0  0
    1.8709    3.1416    0.0000 O   0  0  0  0  0  0  0  0  0  0  0  0
   -1.0980   -1.1228    0.0000 C   0  0  0  0  0  0  0  0  0  0  0  0
   -1.2247   -2.6174    0.0000 O   0  0  0  0  0  0  0  0  0  0  0  0
   -2.3291   -0.2657    0.0000 C   0  0  0  0  0  0  0  0  0  0  0  0
   -3.6868   -0.9033    0.0000 C   0  0  0  0  0  0  0  0  0  0  0  0
   -4.9179   -0.0463    0.0000 C   0  0  0  0  0  0  0  0  0  0  0  0
   -6.2756   -0.6838    0.0000 C   0  0  0  0  0  0  0  0  0  0  0  0
   -7.5067    0.1732    0.0000 C   0  0  0  0  0  0  0  0  0  0  0  0
   -6.4023   -2.1785    0.0000 C   0  0  0  0  0  0  0  0  0  0  0  0
  1  2  1  0
  2  3  1  0
  3  4  2  0
  4  5  1  0
  5  6  2  0
  6  7  1  0
  7  8  2  0
  7  9  1  0
  9 10  2  0
 10 11  1  0
 10 12  1  0
 12 13  2  0
 13 14  1  0
 13 15  1  0
 15 16  2  0
 16 17  1  0
 17 18  2  0
  6 19  1  0
 19 20  1  0
 19 21  2  0
 21 22  1  0
 22 23  2  0
 23 24  1  0
 24 25  1  0
 24 26  1  0
 21  3  1  0
 17  5  1  0
 16  9  1  0
M  END
>  <identifier>  (1229) 
CNP0375014.1

>  <canonical_smiles>  (1229) 
COC1=CC2=C(C(=O)C3=C(O)C=C(C)C=C3C2=O)C(O)=C1/C=C/C(C)C

>  <standard_inchi>  (1229) 
InChI=1S/C21H20O5/c1-10(2)5-6-12-16(26-4)9-14-18(20(12)24)21(25)17-13(19(14)23)7-11(3)8-15(17)22/h5-10,22,24H,1-4H3/b6-5+

>  <standard_inchi_key>  (1229) 
FMUNWYQUOSZHBF-AATRIKPKSA-N

>  <name>  (1229) 
nan

>  <iupac_name>  (1229) 
nan

>  <annotation_level>  (1229) 
0

>  <total_atom_count>  (1229) 
46

>  <heavy_atom_count>  (1229) 
26

>  <molecular_weight>  (1229) 
352.39

>  <exact_molecular_weight>  (1229) 
352.13107

>  <molecular_formula>  (1229) 
C21H20O5

>  <alogp>  (1229) 
3.86

>  <topological_polar_surface_area>  (1229) 
83.83

>  <rotatable_bond_count>  (1229) 
3

>  <hydrogen_bond_acceptors>  (1229) 
5

>  <hydrogen_bond_donors>  (1229) 
2

>  <hydrogen_bond_acceptors_lipinski>  (1229) 
5

>  <hydrogen_bond_donors_lipinski>  (1229) 
2

>  <lipinski_rule_of_five_violations>  (1229) 
0

>  <aromatic_rings_count>  (1229) 
2

>  <qed_drug_likeliness>  (1229) 
0.75

>  <formal_charge>  (1229) 
0

>  <fractioncsp3>  (1229) 
0.24

>  <number_of_minimal_rings>  (1229) 
3

>  <van_der_walls_volume>  (1229) 
316.66

>  <contains_sugar>  (1229) 
False

>  <contains_ring_sugars>  (1229) 
False

>  <contains_linear_sugars>  (1229) 
False

>  <murcko_framework>  (1229) 
c1ccc2c(c1)Cc3ccccc3C2

>  <np_likeness>  (1229) 
1.57

>  <chemical_class>  (1229) 
nan

>  <chemical_sub_class>  (1229) 
nan

>  <chemical_super_class>  (1229) 
nan

>  <direct_parent_classification>  (1229) 
nan

>  <np_classifier_pathway>  (1229) 
Polyketides

>  <np_classifier_superclass>  (1229) 
Polycyclic aromatic polyketides

>  <np_classifier_class>  (1229) 
Anthraquinones and anthrones

>  <np_classifier_is_glycoside>  (1229) 
False

>  <organisms>  (1229) 
Clinopodium chinense|Cratoxylum formosum|Harungana madagascariensis|Psorospermum androsaemifolium|Psorospermum androsaemifolium BAKER|Psorospermum laurentii|Sorbus aucuparia|Streptomyces olivoreticuli|Vismia baccifera|Vismia guianensis|Vismia japurensis|Vismia laurentii|Vismia martiana|Vismia micrantha|Vismia sp.

>  <collections>  (1229) 
Australian natural products|CMAUP (cCollective molecular activities of useful plants)|KNApSaCK|Latin America dataset|NPASS|NuBBEDB|Super Natural II|WikiData Natural Products|ZINC NP

>  <dois>  (1229) 
10.1002/CJOC.201190065|10.1007/978-3-319-73900-7_2|10.1016/0031-9422(81)84041-1|10.1016/0031-9422(81)84067-8|10.1016/0031-9422(90)80218-6|10.1016/0031-9422(95)00202-I|10.1016/J.PHYTOCHEM.2006.01.007|10.1016/J.PHYTOCHEM.2006.03.018|10.1016/J.TET.2006.06.003|10.1016/S0031-9422(00)88243-6|10.1016/j.bse.2005.08.004|10.1021/NP020566W|10.1021/NP050407N|10.1021/np020566w|10.1021/np050407n|10.1139/V07-031|10.1248/CPB.56.1428

>  <synonyms>  (1229) 
nan

>  <cas>  (1229) 
nan

$$$$

     RDKit          2D

 40 45  0  0  0  0  0  0  0  0999 V2000
   -2.5330    5.7667    0.0000 C   0  0  0  0  0  0  0  0  0  0  0  0
   -3.0885    4.3733    0.0000 O   0  0  0  0  0  0  0  0  0  0  0  0
   -2.1595    3.1956    0.0000 C   0  0  0  0  0  0  0  0  0  0  0  0
   -1.4218    3.4976    0.0000 O   0  0  0  0  0  0  0  0  0  0  0  0
   -2.7150    1.8022    0.0000 C   0  0  0  0  0  0  0  0  0  0  0  0
   -1.7860    0.6245    0.0000 C   0  0  0  0  0  0  0  0  0  0  0  0
   -2.3415   -0.7689    0.0000 C   0  0  0  0  0  0  0  0  0  0  0  0
   -3.3885    0.3053    0.0000 C   0  0  0  0  0  0  0  0  0  0  0  0
   -3.4789    1.5169    0.0000 O   0  0  0  0  0  0  0  0  0  0  0  0
   -4.7336   -0.3585    0.0000 O   0  0  0  0  0  0  0  0  0  0  0  0
   -4.5180   -1.8429    0.0000 C   0  0  0  0  0  0  0  0  0  0  0  0
   -6.0168   -1.9022    0.0000 C   0  0  0  0  0  0  0  0  0  0  0  0
   -4.6157   -3.3397    0.0000 C   0  0  0  0  0  0  0  0  0  0  0  0
   -3.0396   -2.0965    0.0000 C   0  0  0  0  0  0  0  0  0  0  0  0
   -2.2389   -3.3649    0.0000 C   0  0  0  0  0  0  0  0  0  0  0  0
   -0.7400   -3.3057    0.0000 C   0  0  0  0  0  0  0  0  0  0  0  0
    0.0607   -4.5740    0.0000 O   0  0  0  0  0  0  0  0  0  0  0  0
   -0.0420   -1.9780    0.0000 C   0  0  0  0  0  0  0  0  0  0  0  0
   -1.5408   -2.0373    0.0000 C   0  0  0  0  0  0  0  0  0  0  0  0
   -0.8427   -0.7096    0.0000 C   0  0  0  0  0  0  0  0  0  0  0  0
   -0.1446    0.6181    0.0000 C   0  0  0  0  0  0  0  0  0  0  0  0
   -0.9454    1.8864    0.0000 O   0  0  0  0  0  0  0  0  0  0  0  0
   -0.2473    3.2141    0.0000 C   0  0  0  0  0  0  0  0  0  0  0  0
   -0.7201    3.9631    0.0000 C   0  0  0  0  0  0  0  0  0  0  0  0
    1.2515    3.2734    0.0000 O   0  0  0  0  0  0  0  0  0  0  0  0
    1.3542    0.6773    0.0000 C   0  0  0  0  0  0  0  0  0  0  0  0
    2.1550   -0.5911    0.0000 C   0  0  0  0  0  0  0  0  0  0  0  0
    2.8530    0.7366    0.0000 C   0  0  0  0  0  0  0  0  0  0  0  0
    3.6538   -0.5318    0.0000 C   0  0  0  0  0  0  0  0  0  0  0  0
    4.3519    0.7959    0.0000 C   0  0  0  0  0  0  0  0  0  0  0  0
    3.6881    2.1410    0.0000 C   0  0  0  0  0  0  0  0  0  0  0  0
    4.7623    3.1880    0.0000 O   0  0  0  0  0  0  0  0  0  0  0  0
    6.0899    2.4899    0.0000 C   0  0  0  0  0  0  0  0  0  0  0  0
    5.8363    1.0115    0.0000 C   0  0  0  0  0  0  0  0  0  0  0  0
    4.4545   -1.8002    0.0000 O   0  0  0  0  0  0  0  0  0  0  0  0
    3.7565   -3.1278    0.0000 C   0  0  0  0  0  0  0  0  0  0  0  0
    4.5572   -4.3962    0.0000 O   0  0  0  0  0  0  0  0  0  0  0  0
    2.2576   -3.1871    0.0000 C   0  0  0  0  0  0  0  0  0  0  0  0
    0.7588   -3.2464    0.0000 O   0  0  0  0  0  0  0  0  0  0  0  0
    1.4569   -1.9187    0.0000 C   0  0  0  0  0  0  0  0  0  0  0  0
  1  2  1  0
  2  3  1  0
  3  4  2  0
  3  5  1  0
  5  6  2  3
  7  6  1  1
  7  8  1  0
  8  9  2  0
  8 10  1  0
 10 11  1  0
 11 12  1  0
 11 13  1  0
 11 14  1  0
 14 15  1  0
 15 16  1  0
 16 17  2  0
 16 18  1  0
 18 19  1  1
 18 20  1  0
 20 21  1  0
 21 22  1  6
 22 23  1  0
 23 24  1  0
 23 25  2  0
 21 26  1  0
 26 27  1  0
 27 28  1  6
 27 29  1  0
 29 30  1  6
 30 31  2  0
 31 32  1  0
 32 33  1  0
 33 34  2  0
 29 35  1  0
 35 36  1  0
 36 37  2  0
 36 38  1  0
 38 39  1  1
 40 39  1  1
 14  7  1  0
 40 18  1  0
 20  7  1  0
 40 27  1  0
 34 30  1  0
 40 38  1  0
M  END
>  <identifier>  (1230) 
CNP0080503.1

>  <canonical_smiles>  (1230) 
COC(=O)C=C[C@]12C(=O)OC(C)(C)C1CC(=O)[C@]1(C)C2[C@H](OC(C)=O)C[C@@]2(C)[C@H](C3=COC=C3)OC(=O)[C@H]3O[C@]321

>  <standard_inchi>  (1230) 
InChI=1S/C29H32O11/c1-14(30)37-16-12-26(4)21(15-8-10-36-13-15)38-23(33)22-29(26,39-22)27(5)18(31)11-17-25(2,3)40-24(34)28(17,20(16)27)9-7-19(32)35-6/h7-10,13,16-17,20-22H,11-12H2,1-6H3/t16-,17?,20?,21+,22-,26+,27-,28+,29-/m1/s1

>  <standard_inchi_key>  (1230) 
YFJHOHXKIHVYSX-LTEKXOPWSA-N

>  <name>  (1230) 
nan

>  <iupac_name>  (1230) 
methyl 3-[(1~{R},2~{R},4~{S},7~{S},8~{S},10~{R},12~{R})-10-acetoxy-7-(3-furyl)-1,8,15,15-tetramethyl-5,13,18-trioxo-3,6,14-trioxapentacyclo[9.7.0.0^{2,4}.0^{2,8}.0^{12,16}]octadecan-12-yl]prop-2-enoate

>  <annotation_level>  (1230) 
3

>  <total_atom_count>  (1230) 
72

>  <heavy_atom_count>  (1230) 
40

>  <molecular_weight>  (1230) 
556.56

>  <exact_molecular_weight>  (1230) 
556.19446

>  <molecular_formula>  (1230) 
C29H32O11

>  <alogp>  (1230) 
2.62

>  <topological_polar_surface_area>  (1230) 
147.94

>  <rotatable_bond_count>  (1230) 
4

>  <hydrogen_bond_acceptors>  (1230) 
11

>  <hydrogen_bond_donors>  (1230) 
0

>  <hydrogen_bond_acceptors_lipinski>  (1230) 
11

>  <hydrogen_bond_donors_lipinski>  (1230) 
0

>  <lipinski_rule_of_five_violations>  (1230) 
2

>  <aromatic_rings_count>  (1230) 
1

>  <qed_drug_likeliness>  (1230) 
0.23

>  <formal_charge>  (1230) 
0

>  <fractioncsp3>  (1230) 
0.62

>  <number_of_minimal_rings>  (1230) 
6

>  <van_der_walls_volume>  (1230) 
nan

>  <contains_sugar>  (1230) 
False

>  <contains_ring_sugars>  (1230) 
False

>  <contains_linear_sugars>  (1230) 
False

>  <murcko_framework>  (1230) 
o1ccc(c1)C2OCC3OC34C2CCC5C6COCC6CCC54

>  <np_likeness>  (1230) 
2.73

>  <chemical_class>  (1230) 
Steroids and steroid derivatives

>  <chemical_sub_class>  (1230) 
Steroid lactones

>  <chemical_super_class>  (1230) 
Lipids and lipid-like molecules

>  <direct_parent_classification>  (1230) 
Steroid lactones

>  <np_classifier_pathway>  (1230) 
Terpenoids

>  <np_classifier_superclass>  (1230) 
Triterpenoids

>  <np_classifier_class>  (1230) 
Limonoids

>  <np_classifier_is_glycoside>  (1230) 
False

>  <organisms>  (1230) 
Spiranthera odoratissima St. odoratissima

>  <collections>  (1230) 
Latin America dataset|NuBBEDB

>  <dois>  (1230) 
10.1590/S0103-50532005000800007

>  <synonyms>  (1230) 
nan

>  <cas>  (1230) 
nan

$$$$

     RDKit          2D

 37 39  0  0  0  0  0  0  0  0999 V2000
    6.9408   -1.8588    0.0000 C   0  0  0  0  0  0  0  0  0  0  0  0
    5.4436   -1.7675    0.0000 C   0  0  0  0  0  0  0  0  0  0  0  0
    4.6160   -3.0186    0.0000 C   0  0  0  0  0  0  0  0  0  0  0  0
    5.2856   -4.3608    0.0000 C   0  0  0  0  0  0  0  0  0  0  0  0
    3.1188   -2.9273    0.0000 C   0  0  0  0  0  0  0  0  0  0  0  0
    2.4491   -1.5851    0.0000 C   0  0  0  0  0  0  0  0  0  0  0  0
    0.9519   -1.4939    0.0000 C   0  0  0  0  0  0  0  0  0  0  0  0
    1.1221   -2.9842    0.0000 C   0  0  0  0  0  0  0  0  0  0  0  0
    1.3018   -0.0352    0.0000 C   0  0  0  0  0  0  0  0  0  0  0  0
    2.7399    0.3911    0.0000 C   0  0  0  0  0  0  0  0  0  0  0  0
    0.2135    0.9971    0.0000 C   0  0  0  0  0  0  0  0  0  0  0  0
    0.5633    2.4557    0.0000 O   0  0  0  0  0  0  0  0  0  0  0  0
    2.0014    2.8821    0.0000 C   0  0  0  0  0  0  0  0  0  0  0  0
    3.0897    1.8498    0.0000 O   0  0  0  0  0  0  0  0  0  0  0  0
    2.3513    4.3407    0.0000 C   0  0  0  0  0  0  0  0  0  0  0  0
    3.7894    4.7670    0.0000 C   0  0  0  0  0  0  0  0  0  0  0  0
    4.1392    6.2257    0.0000 C   0  0  0  0  0  0  0  0  0  0  0  0
   -1.2247    0.5707    0.0000 C   0  0  0  0  0  0  0  0  0  0  0  0
   -2.0308    1.8357    0.0000 O   0  0  0  0  0  0  0  0  0  0  0  0
   -1.5745   -0.8879    0.0000 C   0  0  0  0  0  0  0  0  0  0  0  0
   -3.0126   -1.3143    0.0000 C   0  0  0  0  0  0  0  0  0  0  0  0
   -3.3625   -2.7729    0.0000 C   0  0  0  0  0  0  0  0  0  0  0  0
   -2.2742   -3.8052    0.0000 C   0  0  0  0  0  0  0  0  0  0  0  0
   -2.6240   -5.2638    0.0000 O   0  0  0  0  0  0  0  0  0  0  0  0
   -0.8360   -3.3788    0.0000 C   0  0  0  0  0  0  0  0  0  0  0  0
   -0.4862   -1.9202    0.0000 C   0  0  0  0  0  0  0  0  0  0  0  0
   -2.5376   -1.5974    0.0000 C   0  0  0  0  0  0  0  0  0  0  0  0
   -5.3620   -0.0394    0.0000 O   0  0  0  0  0  0  0  0  0  0  0  0
   -6.0781    1.2787    0.0000 C   0  0  0  0  0  0  0  0  0  0  0  0
   -7.5776    1.3176    0.0000 C   0  0  0  0  0  0  0  0  0  0  0  0
   -5.2946    2.5578    0.0000 O   0  0  0  0  0  0  0  0  0  0  0  0
   -2.3528   -0.9014    0.0000 O   0  0  0  0  0  0  0  0  0  0  0  0
   -1.8185   -1.3842    0.0000 C   0  0  0  0  0  0  0  0  0  0  0  0
   -0.2996    1.4615    0.0000 O   0  0  0  0  0  0  0  0  0  0  0  0
   -0.4176    2.9568    0.0000 C   0  0  0  0  0  0  0  0  0  0  0  0
    0.8184    3.8067    0.0000 C   0  0  0  0  0  0  0  0  0  0  0  0
   -1.7717    3.6023    0.0000 O   0  0  0  0  0  0  0  0  0  0  0  0
  1  2  2  0
  2  3  1  0
  3  4  1  0
  3  5  2  0
  5  6  1  0
  6  7  1  0
  7  8  1  6
  7  9  1  0
  9 10  1  1
  9 11  1  0
 11 12  1  6
 12 13  1  0
 13 14  2  0
 13 15  1  0
 15 16  1  0
 16 17  1  0
 11 18  1  0
 18 19  1  1
 18 20  1  0
 20 21  1  6
 21 22  2  0
 22 23  1  0
 23 24  2  0
 23 25  1  0
 26 25  1  6
 21 27  1  0
 27 28  1  6
 28 29  1  0
 29 30  1  0
 29 31  2  0
 27 32  1  0
 32 33  1  0
 33 34  1  6
 34 35  1  0
 35 36  1  0
 35 37  2  0
 26  7  1  0
 26 20  1  0
 33 20  1  0
M  END
>  <identifier>  (1231) 
CNP0312183.1

>  <canonical_smiles>  (1231) 
C=C/C(C)=C\C[C@]1(C)[C@H](C)[C@@H](OC(=O)CCC)[C@H](O)[C@@]23C(=CC(=O)C[C@@H]12)[C@@H](OC(C)=O)O[C@H]3OC(C)=O

>  <standard_inchi>  (1231) 
InChI=1S/C28H38O9/c1-8-10-22(32)36-23-16(4)27(7,12-11-15(3)9-2)21-14-19(31)13-20-25(34-17(5)29)37-26(35-18(6)30)28(20,21)24(23)33/h9,11,13,16,21,23-26,33H,2,8,10,12,14H2,1,3-7H3/b15-11-/t16-,21+,23-,24+,25+,26-,27-,28-/m1/s1

>  <standard_inchi_key>  (1231) 
OZXHOALOEFPAKA-JOBYXUAKSA-N

>  <name>  (1231) 
nan

>  <iupac_name>  (1231) 
[(1~{S},3~{R},6~{a}~{S},7~{S},8~{S},9~{R},10~{R},10~{a}~{S})-1,3-diacetoxy-10-hydroxy-7,8-dimethyl-7-[(2~{Z})-3-methylpenta-2,4-dienyl]-5-oxo-3,6,6~{a},8,9,10-hexahydro-1~{H}-benzo[d]isobenzofuran-9-yl] butanoate

>  <annotation_level>  (1231) 
5

>  <total_atom_count>  (1231) 
75

>  <heavy_atom_count>  (1231) 
37

>  <molecular_weight>  (1231) 
518.6

>  <exact_molecular_weight>  (1231) 
518.25158

>  <molecular_formula>  (1231) 
C28H38O9

>  <alogp>  (1231) 
3.55

>  <topological_polar_surface_area>  (1231) 
125.43

>  <rotatable_bond_count>  (1231) 
8

>  <hydrogen_bond_acceptors>  (1231) 
9

>  <hydrogen_bond_donors>  (1231) 
1

>  <hydrogen_bond_acceptors_lipinski>  (1231) 
9

>  <hydrogen_bond_donors_lipinski>  (1231) 
1

>  <lipinski_rule_of_five_violations>  (1231) 
1

>  <aromatic_rings_count>  (1231) 
0

>  <qed_drug_likeliness>  (1231) 
0.29

>  <formal_charge>  (1231) 
0

>  <fractioncsp3>  (1231) 
0.64

>  <number_of_minimal_rings>  (1231) 
3

>  <van_der_walls_volume>  (1231) 
476.85

>  <contains_sugar>  (1231) 
False

>  <contains_ring_sugars>  (1231) 
False

>  <contains_linear_sugars>  (1231) 
False

>  <murcko_framework>  (1231) 
O1CC2=CCCC3CCCCC23C1

>  <np_likeness>  (1231) 
3.16

>  <chemical_class>  (1231) 
Prenol lipids

>  <chemical_sub_class>  (1231) 
Diterpenoids

>  <chemical_super_class>  (1231) 
Lipids and lipid-like molecules

>  <direct_parent_classification>  (1231) 
Colensane and clerodane diterpenoids

>  <np_classifier_pathway>  (1231) 
Terpenoids

>  <np_classifier_superclass>  (1231) 
Diterpenoids

>  <np_classifier_class>  (1231) 
Colensane and Clerodane diterpenoids

>  <np_classifier_is_glycoside>  (1231) 
True

>  <organisms>  (1231) 
Casearia sylvestris

>  <collections>  (1231) 
ChemSpider NPs|Latin America dataset|NuBBEDB|Super Natural II|WikiData Natural Products|ZINC NP

>  <dois>  (1231) 
10.1002/PCA.902|10.1002/pca.902|10.1248/CPB.39.693

>  <synonyms>  (1231) 
Casearin R

>  <cas>  (1231) 
nan

$$$$

     RDKit          2D

 25 26  0  0  0  0  0  0  0  0999 V2000
    2.5228    2.1384    0.0000 C   0  0  0  0  0  0  0  0  0  0  0  0
    1.0392    2.3597    0.0000 C   0  0  0  0  0  0  0  0  0  0  0  0
    0.3462    3.6900    0.0000 C   0  0  0  0  0  0  0  0  0  0  0  0
    1.0150    5.0326    0.0000 O   0  0  0  0  0  0  0  0  0  0  0  0
   -1.1332    3.4419    0.0000 O   0  0  0  0  0  0  0  0  0  0  0  0
   -1.3544    1.9583    0.0000 C   0  0  0  0  0  0  0  0  0  0  0  0
   -2.8337    1.7103    0.0000 C   0  0  0  0  0  0  0  0  0  0  0  0
   -3.8848    0.6400    0.0000 C   0  0  0  0  0  0  0  0  0  0  0  0
   -5.2274    1.3089    0.0000 C   0  0  0  0  0  0  0  0  0  0  0  0
   -4.1060   -0.8436    0.0000 C   0  0  0  0  0  0  0  0  0  0  0  0
   -5.1570   -1.9138    0.0000 O   0  0  0  0  0  0  0  0  0  0  0  0
   -2.7634   -1.5124    0.0000 C   0  0  0  0  0  0  0  0  0  0  0  0
   -2.0703   -2.8427    0.0000 C   0  0  0  0  0  0  0  0  0  0  0  0
   -0.5910   -2.5947    0.0000 C   0  0  0  0  0  0  0  0  0  0  0  0
    0.7517   -3.2635    0.0000 C   0  0  0  0  0  0  0  0  0  0  0  0
   -0.8122   -4.0783    0.0000 O   0  0  0  0  0  0  0  0  0  0  0  0
    0.4600   -1.5244    0.0000 C   0  0  0  0  0  0  0  0  0  0  0  0
    0.6813   -0.0408    0.0000 C   0  0  0  0  0  0  0  0  0  0  0  0
    2.1606    0.2072    0.0000 O   0  0  0  0  0  0  0  0  0  0  0  0
    3.1151   -0.9499    0.0000 C   0  0  0  0  0  0  0  0  0  0  0  0
    2.5903   -2.3551    0.0000 O   0  0  0  0  0  0  0  0  0  0  0  0
    4.5945   -0.7019    0.0000 C   0  0  0  0  0  0  0  0  0  0  0  0
    5.5490   -1.8590    0.0000 C   0  0  0  0  0  0  0  0  0  0  0  0
    5.1193    0.7033    0.0000 C   0  0  0  0  0  0  0  0  0  0  0  0
   -0.0118    1.2894    0.0000 C   0  0  0  0  0  0  0  0  0  0  0  0
  1  2  2  0
  2  3  1  0
  3  4  2  0
  3  5  1  0
  6  5  1  6
  6  7  1  0
  7  8  2  0
  8  9  1  0
  8 10  1  0
 10 11  2  0
 10 12  1  0
 12 13  2  0
 13 14  1  0
 14 15  1  6
 14 16  1  0
 14 17  1  0
 17 18  1  0
 18 19  1  6
 19 20  1  0
 20 21  2  0
 20 22  1  0
 22 23  1  0
 22 24  1  0
 18 25  1  0
 25  2  1  6
 25  6  1  0
M  END
>  <identifier>  (1232) 
CNP0208534.5

>  <canonical_smiles>  (1232) 
C=C1C(=O)O[C@H]2/C=C(/C)C(=O)/C=C/[C@](C)(O)C[C@@H](OC(=O)C(C)C)[C@@H]12

>  <standard_inchi>  (1232) 
InChI=1S/C19H24O6/c1-10(2)17(21)25-15-9-19(5,23)7-6-13(20)11(3)8-14-16(15)12(4)18(22)24-14/h6-8,10,14-16,23H,4,9H2,1-3,5H3/b7-6+,11-8-/t14-,15+,16-,19-/m0/s1

>  <standard_inchi_key>  (1232) 
DUQSSEQKLJQACA-OKCQBWCOSA-N

>  <name>  (1232) 
nan

>  <iupac_name>  (1232) 
[(3~{a}~{R},4~{R},6~{R},7~{E},10~{Z},11~{a}~{S})-6-hydroxy-6,10-dimethyl-3-methylene-2,9-dioxo-3~{a},4,5,11~{a}-tetrahydrocyclodeca[b]furan-4-yl] 2-methylpropanoate

>  <annotation_level>  (1232) 
5

>  <total_atom_count>  (1232) 
49

>  <heavy_atom_count>  (1232) 
25

>  <molecular_weight>  (1232) 
348.4

>  <exact_molecular_weight>  (1232) 
348.15729

>  <molecular_formula>  (1232) 
C19H24O6

>  <alogp>  (1232) 
1.88

>  <topological_polar_surface_area>  (1232) 
89.90

>  <rotatable_bond_count>  (1232) 
2

>  <hydrogen_bond_acceptors>  (1232) 
6

>  <hydrogen_bond_donors>  (1232) 
1

>  <hydrogen_bond_acceptors_lipinski>  (1232) 
6

>  <hydrogen_bond_donors_lipinski>  (1232) 
1

>  <lipinski_rule_of_five_violations>  (1232) 
0

>  <aromatic_rings_count>  (1232) 
0

>  <qed_drug_likeliness>  (1232) 
0.61

>  <formal_charge>  (1232) 
0

>  <fractioncsp3>  (1232) 
0.53

>  <number_of_minimal_rings>  (1232) 
2

>  <van_der_walls_volume>  (1232) 
320.98

>  <contains_sugar>  (1232) 
False

>  <contains_ring_sugars>  (1232) 
False

>  <contains_linear_sugars>  (1232) 
False

>  <murcko_framework>  (1232) 
O1CCC2CCCC=CCC=CC12

>  <np_likeness>  (1232) 
3.05

>  <chemical_class>  (1232) 
Prenol lipids

>  <chemical_sub_class>  (1232) 
Terpene lactones

>  <chemical_super_class>  (1232) 
Lipids and lipid-like molecules

>  <direct_parent_classification>  (1232) 
Germacranolides and derivatives

>  <np_classifier_pathway>  (1232) 
Terpenoids

>  <np_classifier_superclass>  (1232) 
Sesquiterpenoids

>  <np_classifier_class>  (1232) 
Germacrane sesquiterpenoids

>  <np_classifier_is_glycoside>  (1232) 
False

>  <organisms>  (1232) 
Tithonia diversifolia

>  <collections>  (1232) 
KNApSaCK|Latin America dataset|NuBBEDB|Super Natural II|TIPdb (database of Taiwan indigenous plants)|WikiData Natural Products|ZINC NP

>  <dois>  (1232) 
10.1007/S10295-012-1165-2|10.1007/s10295-012-1165-2

>  <synonyms>  (1232) 
Tagitinin C

>  <cas>  (1232) 
nan

$$$$

     RDKit          2D

 29 30  0  0  0  0  0  0  0  0999 V2000
    1.7007    5.4041    0.0000 C   0  0  0  0  0  0  0  0  0  0  0  0
    0.8617    4.1606    0.0000 C   0  0  0  0  0  0  0  0  0  0  0  0
   -0.6346    4.2654    0.0000 O   0  0  0  0  0  0  0  0  0  0  0  0
    1.5192    2.8124    0.0000 O   0  0  0  0  0  0  0  0  0  0  0  0
    0.6802    1.5689    0.0000 C   0  0  0  0  0  0  0  0  0  0  0  0
    1.3376    0.2206    0.0000 C   0  0  0  0  0  0  0  0  0  0  0  0
    2.8340    0.1159    0.0000 C   0  0  0  0  0  0  0  0  0  0  0  0
    3.4914   -1.2324    0.0000 C   0  0  0  0  0  0  0  0  0  0  0  0
    4.9877   -1.3372    0.0000 C   0  0  0  0  0  0  0  0  0  0  0  0
    5.6451   -2.6855    0.0000 C   0  0  0  0  0  0  0  0  0  0  0  0
    7.1415   -2.7903    0.0000 C   0  0  0  0  0  0  0  0  0  0  0  0
    7.9804   -1.5468    0.0000 C   0  0  0  0  0  0  0  0  0  0  0  0
    7.3230   -0.1985    0.0000 C   0  0  0  0  0  0  0  0  0  0  0  0
    8.1619    1.0449    0.0000 O   0  0  0  0  0  0  0  0  0  0  0  0
    5.8267   -0.0937    0.0000 O   0  0  0  0  0  0  0  0  0  0  0  0
   -0.8161    1.6737    0.0000 C   0  0  0  0  0  0  0  0  0  0  0  0
   -1.6550    0.4302    0.0000 C   0  0  0  0  0  0  0  0  0  0  0  0
   -3.1514    0.5350    0.0000 C   0  0  0  0  0  0  0  0  0  0  0  0
   -3.9903   -0.7084    0.0000 C   0  0  0  0  0  0  0  0  0  0  0  0
   -5.4866   -0.6036    0.0000 C   0  0  0  0  0  0  0  0  0  0  0  0
   -6.3255   -1.8471    0.0000 C   0  0  0  0  0  0  0  0  0  0  0  0
   -7.8219   -1.7423    0.0000 C   0  0  0  0  0  0  0  0  0  0  0  0
   -8.4793   -0.3941    0.0000 C   0  0  0  0  0  0  0  0  0  0  0  0
   -7.6404    0.8494    0.0000 C   0  0  0  0  0  0  0  0  0  0  0  0
   -6.1440    0.7446    0.0000 C   0  0  0  0  0  0  0  0  0  0  0  0
   -0.9976   -0.9180    0.0000 O   0  0  0  0  0  0  0  0  0  0  0  0
   -1.8365   -2.1615    0.0000 C   0  0  0  0  0  0  0  0  0  0  0  0
   -1.1791   -3.5098    0.0000 C   0  0  0  0  0  0  0  0  0  0  0  0
   -3.3329   -2.0567    0.0000 O   0  0  0  0  0  0  0  0  0  0  0  0
  1  2  1  0
  2  3  2  0
  2  4  1  0
  4  5  1  0
  5  6  1  1
  6  7  1  0
  7  8  2  0
  9  8  1  6
  9 10  1  0
 10 11  1  0
 11 12  2  0
 12 13  1  0
 13 14  2  0
 13 15  1  0
  5 16  1  0
 17 16  1  1
 17 18  1  0
 18 19  2  0
 19 20  1  0
 20 21  2  0
 21 22  1  0
 22 23  2  0
 23 24  1  0
 24 25  2  0
 17 26  1  0
 26 27  1  0
 27 28  1  0
 27 29  2  0
 15  9  1  0
 25 20  1  0
M  END
>  <identifier>  (1233) 
CNP0080412.2

>  <canonical_smiles>  (1233) 
CC(=O)O[C@@H](C/C=C/[C@H]1CC=CC(=O)O1)C[C@H](/C=C/C1=CC=CC=C1)OC(C)=O

>  <standard_inchi>  (1233) 
InChI=1S/C23H26O6/c1-17(24)27-21(12-6-10-20-11-7-13-23(26)29-20)16-22(28-18(2)25)15-14-19-8-4-3-5-9-19/h3-10,13-15,20-22H,11-12,16H2,1-2H3/b10-6+,15-14+/t20-,21-,22-/m0/s1

>  <standard_inchi_key>  (1233) 
PQFQACSEOSBOSI-IMANAEQHSA-N

>  <name>  (1233) 
nan

>  <iupac_name>  (1233) 
[(~{E},1~{S},3~{R})-3-acetoxy-1-[(~{E})-3-[(2~{R})-6-oxo-2,3-dihydropyran-2-yl]allyl]-5-phenyl-pent-4-enyl] acetate

>  <annotation_level>  (1233) 
4

>  <total_atom_count>  (1233) 
55

>  <heavy_atom_count>  (1233) 
29

>  <molecular_weight>  (1233) 
398.46

>  <exact_molecular_weight>  (1233) 
398.17294

>  <molecular_formula>  (1233) 
C23H26O6

>  <alogp>  (1233) 
3.77

>  <topological_polar_surface_area>  (1233) 
78.90

>  <rotatable_bond_count>  (1233) 
9

>  <hydrogen_bond_acceptors>  (1233) 
6

>  <hydrogen_bond_donors>  (1233) 
0

>  <hydrogen_bond_acceptors_lipinski>  (1233) 
6

>  <hydrogen_bond_donors_lipinski>  (1233) 
0

>  <lipinski_rule_of_five_violations>  (1233) 
0

>  <aromatic_rings_count>  (1233) 
1

>  <qed_drug_likeliness>  (1233) 
0.36

>  <formal_charge>  (1233) 
0

>  <fractioncsp3>  (1233) 
0.35

>  <number_of_minimal_rings>  (1233) 
2

>  <van_der_walls_volume>  (1233) 
nan

>  <contains_sugar>  (1233) 
False

>  <contains_ring_sugars>  (1233) 
False

>  <contains_linear_sugars>  (1233) 
False

>  <murcko_framework>  (1233) 
O1CC=CCC1C=CCCCCC=Cc2ccccc2

>  <np_likeness>  (1233) 
2.41

>  <chemical_class>  (1233) 
Carboxylic acids and derivatives

>  <chemical_sub_class>  (1233) 
Tricarboxylic acids and derivatives

>  <chemical_super_class>  (1233) 
Organic acids and derivatives

>  <direct_parent_classification>  (1233) 
Tricarboxylic acids and derivatives

>  <np_classifier_pathway>  (1233) 
Shikimates and Phenylpropanoids

>  <np_classifier_superclass>  (1233) 
Styrylpyrones

>  <np_classifier_class>  (1233) 
Kavalactones and derivatives

>  <np_classifier_is_glycoside>  (1233) 
False

>  <organisms>  (1233) 
Cryptocarya moschata

>  <collections>  (1233) 
Latin America dataset|NuBBEDB|Super Natural II|WikiData Natural Products|ZINC NP

>  <dois>  (1233) 
10.1016/S0031-9422(99)00532-4

>  <synonyms>  (1233) 
Cryptomoscatone E2 diacetate

>  <cas>  (1233) 
nan

$$$$

     RDKit          2D

 23 23  0  0  0  0  0  0  0  0999 V2000
  -12.6456    0.3876    0.0000 C   0  0  0  0  0  0  0  0  0  0  0  0
  -11.3701   -0.4019    0.0000 O   0  0  0  0  0  0  0  0  0  0  0  0
  -10.0487    0.3080    0.0000 C   0  0  0  0  0  0  0  0  0  0  0  0
  -10.0028    1.8073    0.0000 O   0  0  0  0  0  0  0  0  0  0  0  0
   -8.7733   -0.4815    0.0000 C   0  0  0  0  0  0  0  0  0  0  0  0
   -7.4518    0.2284    0.0000 C   0  0  0  0  0  0  0  0  0  0  0  0
   -6.1764   -0.5611    0.0000 C   0  0  0  0  0  0  0  0  0  0  0  0
   -4.8550    0.1488    0.0000 C   0  0  0  0  0  0  0  0  0  0  0  0
   -3.5795   -0.6406    0.0000 C   0  0  0  0  0  0  0  0  0  0  0  0
   -2.2581    0.0692    0.0000 C   0  0  0  0  0  0  0  0  0  0  0  0
   -0.9827   -0.7202    0.0000 C   0  0  0  0  0  0  0  0  0  0  0  0
    0.3387   -0.0104    0.0000 C   0  0  0  0  0  0  0  0  0  0  0  0
    1.6142   -0.7998    0.0000 C   0  0  0  0  0  0  0  0  0  0  0  0
    2.9356   -0.0900    0.0000 C   0  0  0  0  0  0  0  0  0  0  0  0
    4.2110   -0.8794    0.0000 C   0  0  0  0  0  0  0  0  0  0  0  0
    5.5324   -0.1696    0.0000 C   0  0  0  0  0  0  0  0  0  0  0  0
    6.8079   -0.9590    0.0000 C   0  0  0  0  0  0  0  0  0  0  0  0
    8.1293   -0.2492    0.0000 C   0  0  0  0  0  0  0  0  0  0  0  0
    8.1752    1.2501    0.0000 C   0  0  0  0  0  0  0  0  0  0  0  0
    9.4966    1.9600    0.0000 C   0  0  0  0  0  0  0  0  0  0  0  0
   10.7721    1.1706    0.0000 C   0  0  0  0  0  0  0  0  0  0  0  0
   10.7261   -0.3287    0.0000 C   0  0  0  0  0  0  0  0  0  0  0  0
    9.4047   -1.0386    0.0000 C   0  0  0  0  0  0  0  0  0  0  0  0
  1  2  1  0
  2  3  1  0
  3  4  2  0
  3  5  1  0
  5  6  1  0
  6  7  1  0
  7  8  1  0
  8  9  1  0
  9 10  1  0
 10 11  1  0
 11 12  1  0
 12 13  1  0
 13 14  1  0
 14 15  1  0
 15 16  1  0
 16 17  1  0
 17 18  1  0
 18 19  2  0
 19 20  1  0
 20 21  2  0
 21 22  1  0
 22 23  2  0
 23 18  1  0
M  END
>  <identifier>  (1234) 
CNP0080363.0

>  <canonical_smiles>  (1234) 
COC(=O)CCCCCCCCCCCCCC1=CC=CC=C1

>  <standard_inchi>  (1234) 
InChI=1S/C21H34O2/c1-23-21(22)19-15-10-8-6-4-2-3-5-7-9-12-16-20-17-13-11-14-18-20/h11,13-14,17-18H,2-10,12,15-16,19H2,1H3

>  <standard_inchi_key>  (1234) 
DFQIEWAIVQDQOB-UHFFFAOYSA-N

>  <name>  (1234) 
nan

>  <iupac_name>  (1234) 
methyl 14-phenyltetradecanoate

>  <annotation_level>  (1234) 
4

>  <total_atom_count>  (1234) 
57

>  <heavy_atom_count>  (1234) 
23

>  <molecular_weight>  (1234) 
318.5

>  <exact_molecular_weight>  (1234) 
318.25588

>  <molecular_formula>  (1234) 
C21H34O2

>  <alogp>  (1234) 
6.08

>  <topological_polar_surface_area>  (1234) 
26.30

>  <rotatable_bond_count>  (1234) 
14

>  <hydrogen_bond_acceptors>  (1234) 
2

>  <hydrogen_bond_donors>  (1234) 
0

>  <hydrogen_bond_acceptors_lipinski>  (1234) 
2

>  <hydrogen_bond_donors_lipinski>  (1234) 
0

>  <lipinski_rule_of_five_violations>  (1234) 
1

>  <aromatic_rings_count>  (1234) 
1

>  <qed_drug_likeliness>  (1234) 
0.31

>  <formal_charge>  (1234) 
0

>  <fractioncsp3>  (1234) 
0.67

>  <number_of_minimal_rings>  (1234) 
1

>  <van_der_walls_volume>  (1234) 
nan

>  <contains_sugar>  (1234) 
False

>  <contains_ring_sugars>  (1234) 
False

>  <contains_linear_sugars>  (1234) 
False

>  <murcko_framework>  (1234) 
c1ccccc1

>  <np_likeness>  (1234) 
0.11

>  <chemical_class>  (1234) 
Fatty Acyls

>  <chemical_sub_class>  (1234) 
Fatty acid esters

>  <chemical_super_class>  (1234) 
Lipids and lipid-like molecules

>  <direct_parent_classification>  (1234) 
Fatty acid methyl esters

>  <np_classifier_pathway>  (1234) 
Fatty acids

>  <np_classifier_superclass>  (1234) 
Fatty Acids and Conjugates

>  <np_classifier_class>  (1234) 
Carbocyclic fatty acids

>  <np_classifier_is_glycoside>  (1234) 
False

>  <organisms>  (1234) 
Trichilia claussenii

>  <collections>  (1234) 
Latin America dataset|NuBBEDB|WikiData Natural Products|ZINC NP

>  <dois>  (1234) 
10.1016/0031-9422(95)00969-8

>  <synonyms>  (1234) 
phenyl tetradecanoic acid methyl ester

>  <cas>  (1234) 
nan

$$$$

     RDKit          2D

 16 18  0  0  0  0  0  0  0  0999 V2000
   -3.5020   -2.9021    0.0000 C   0  0  0  0  0  0  0  0  0  0  0  0
   -3.3213   -1.4130    0.0000 O   0  0  0  0  0  0  0  0  0  0  0  0
   -1.9414   -0.8250    0.0000 C   0  0  0  0  0  0  0  0  0  0  0  0
   -0.7421   -1.7260    0.0000 C   0  0  0  0  0  0  0  0  0  0  0  0
    0.6378   -1.1379    0.0000 C   0  0  0  0  0  0  0  0  0  0  0  0
    0.8185    0.3512    0.0000 C   0  0  0  0  0  0  0  0  0  0  0  0
    2.1984    0.9392    0.0000 O   0  0  0  0  0  0  0  0  0  0  0  0
    3.3976    0.0382    0.0000 C   0  0  0  0  0  0  0  0  0  0  0  0
    4.7776    0.6263    0.0000 O   0  0  0  0  0  0  0  0  0  0  0  0
    3.2170   -1.4509    0.0000 C   0  0  0  0  0  0  0  0  0  0  0  0
    1.8370   -2.0389    0.0000 C   0  0  0  0  0  0  0  0  0  0  0  0
   -0.3808    1.2522    0.0000 C   0  0  0  0  0  0  0  0  0  0  0  0
   -1.7607    0.6641    0.0000 C   0  0  0  0  0  0  0  0  0  0  0  0
   -2.7464    1.7948    0.0000 O   0  0  0  0  0  0  0  0  0  0  0  0
   -1.9757    3.0816    0.0000 C   0  0  0  0  0  0  0  0  0  0  0  0
   -0.5136    2.7463    0.0000 C   0  0  0  0  0  0  0  0  0  0  0  0
  1  2  1  0
  2  3  1  0
  3  4  2  0
  4  5  1  0
  5  6  2  0
  6  7  1  0
  7  8  1  0
  8  9  2  0
  8 10  1  0
 10 11  2  0
  6 12  1  0
 12 13  2  0
 13 14  1  0
 14 15  1  0
 15 16  2  0
 13  3  1  0
 11  5  1  0
 16 12  1  0
M  END
>  <identifier>  (1235) 
CNP0120434.0

>  <canonical_smiles>  (1235) 
COC1=CC2=C(OC(=O)C=C2)C2=C1OC=C2

>  <standard_inchi>  (1235) 
InChI=1S/C12H8O4/c1-14-9-6-7-2-3-10(13)16-11(7)8-4-5-15-12(8)9/h2-6H,1H3

>  <standard_inchi_key>  (1235) 
DLCJNIBLOSKIQW-UHFFFAOYSA-N

>  <name>  (1235) 
Sphondin

>  <iupac_name>  (1235) 
6-methoxyfuro[2,3-h]chromen-2-one

>  <annotation_level>  (1235) 
5

>  <total_atom_count>  (1235) 
24

>  <heavy_atom_count>  (1235) 
16

>  <molecular_weight>  (1235) 
216.19

>  <exact_molecular_weight>  (1235) 
216.04226

>  <molecular_formula>  (1235) 
C12H8O4

>  <alogp>  (1235) 
2.55

>  <topological_polar_surface_area>  (1235) 
52.58

>  <rotatable_bond_count>  (1235) 
1

>  <hydrogen_bond_acceptors>  (1235) 
4

>  <hydrogen_bond_donors>  (1235) 
0

>  <hydrogen_bond_acceptors_lipinski>  (1235) 
4

>  <hydrogen_bond_donors_lipinski>  (1235) 
0

>  <lipinski_rule_of_five_violations>  (1235) 
0

>  <aromatic_rings_count>  (1235) 
3

>  <qed_drug_likeliness>  (1235) 
0.59

>  <formal_charge>  (1235) 
0

>  <fractioncsp3>  (1235) 
0.08

>  <number_of_minimal_rings>  (1235) 
3

>  <van_der_walls_volume>  (1235) 
176.80

>  <contains_sugar>  (1235) 
False

>  <contains_ring_sugars>  (1235) 
False

>  <contains_linear_sugars>  (1235) 
False

>  <murcko_framework>  (1235) 
o1ccc2c1ccc3C=CCOc32

>  <np_likeness>  (1235) 
1.32

>  <chemical_class>  (1235) 
Coumarins and derivatives

>  <chemical_sub_class>  (1235) 
Furanocoumarins

>  <chemical_super_class>  (1235) 
Phenylpropanoids and polyketides

>  <direct_parent_classification>  (1235) 
Angular furanocoumarins

>  <np_classifier_pathway>  (1235) 
Shikimates and Phenylpropanoids

>  <np_classifier_superclass>  (1235) 
Coumarins

>  <np_classifier_class>  (1235) 
Furocoumarins

>  <np_classifier_is_glycoside>  (1235) 
False

>  <organisms>  (1235) 
Acanthus montanus|Angelica pubescens|Antidesma membranaceum|Apium graveolens|Auricularia auricula|Auricularia auricula-judae|Cornicularia normoerica|Cullen drupaceum|Garcinia parvifolia|Hansenia weberbaueriana|Heracleum aconitifolium|Heracleum asperum|Heracleum dissectum|Heracleum grandiflorum|Heracleum laciniatum|Heracleum lehmannianum|Heracleum leskovii|Heracleum mantegazzianum Sommier & Levier|Heracleum maximum|Heracleum persicum (Fisch.) Desf.|Heracleum rapula|Heracleum sosnowskyi Manden.|Heracleum sphondylium|Heracleum sphondylium L. s.l. (H. sphondylium L. s.str., H. sphondylium subsp. alpinum (L.) Bonnier & Layens, H. sphondylium subsp. elegans (Crantz) Schuebl. & G. Martens and H. sphondylium  subsp. pyrenaicum (Lam.) Bonnier & Layens)|Heracleum stevenii|Heracleum vicinum|Heracleum wolongense|Heracleum yungningense|Hypoxylon sclerophaeum|Indian beech tree|Kniphofia tuckii|Octopus vulgaris|Pastinaca sativa|Pastinaca sativa L.|Patrinia villosa|Peucedanum govanianum (wall) benth ex c. b. clarke var. bicolo wolff|Peucedanum govanianum var. bicolo|Pilocarpus riedelianus|Pimpinella major (L.) Huds.|Pimpinella nigra Mill.|Pimpinella peregrina L.|Pimpinella saxifraga|Pimpinella saxifraga L.|Pinus krempfii|Quercus sessilis|Schenkia spicata|Seseli elatum|Stellera chamaejasme|Trixis inula|Ulosa spongia|Zanthoxylum echinocarpum

>  <collections>  (1235) 
CMAUP (cCollective molecular activities of useful plants)|FooDB|Latin America dataset|NPASS|NPEdia|NuBBEDB|PubChem NPs|Super Natural II|TCMDB-Taiwan (Traditional Chinese Medicine database)|TCMID (Traditional Chinese Medicine Integrated Database)|TPPT (Toxic Plants–PhytoToxins)|UNPD (Universal Natural Products Database)|WikiData Natural Products|ZINC NP

>  <dois>  (1235) 
10.1002/JHRC.1240080305|10.1002/biuz.19840140514|10.1002/food.19880321030|10.1006/PMPP.1993.1014|10.1007/BF00570685|10.1007/BF00577207|10.1007/BF00580082|10.1007/BF00630133|10.1007/BF00899143|10.1007/BF01134615|10.1016/0031-9422(86)88019-0|10.1016/0031-9422(88)80276-0|10.1016/0031-9422(93)80055-W|10.1016/S0031-9422(00)81503-4|10.1016/S0031-9422(00)83503-7|10.1016/s0031-9422(00)81503-4|10.1021/NP50047A020|10.1039/c7md00388a|10.1080/10286020290019677|10.1111/J.1600-0536.1983.TB04386.X|10.1135/CCCC19622714|10.1248/CPB.53.701

>  <synonyms>  (1235) 
2H-Furo(2,3-h)-1-benzopyran-2-one, 6-methoxy-|483-66-9|6-Methoxy-2H-furo(2,3-h)-1-benzopyran-2-one|6-Methoxy-2H-furo[2,3-H]chromen-2-one #|6-Methoxyangelicin|6-Methoxyfuro[2,3-h]chromen-2-one|AC-34341|AKOS000277842|BRD-K33260002-001-02-0|BS-17366|BSPBio_002716|C18081|CCG-38810|CHEBI:81486|CHEMBL1452868|CS-0022643|D70767|DLCJNIBLOSKIQW-UHFFFAOYSA-N|DTXSID20197481|DivK1c_006240|HMS2218E05|HMS3340O03|HSDB 8482|HY-N2429|JL77897DL4|KBio1_001184|KBio2_001078|KBio2_003646|KBio2_006214|KBio3_002216|KBioGR_002220|KBioSS_001078|MLS000574845|NCGC00095567-01|NCGC00178511-01|NS00094651|Q27155414|SCHEMBL9794931|SDCCGMLS-0066509.P001|SMR000156215|SPBio_001898|SPECTRUM300005|SR-01000711830|STK691970|Sfondin|SpecPlus_000144|Spectrum2_001759|Spectrum3_001238|Spectrum4_001600|Spectrum5_000320|Spectrum_000598|Sphondin|VU0243951-5|sphondin

>  <cas>  (1235) 
483-66-9

$$$$

     RDKit          2D

 16 17  0  0  0  0  0  0  0  0999 V2000
   -3.7782   -1.8287    0.0000 C   0  0  0  0  0  0  0  0  0  0  0  0
   -2.5322   -0.9937    0.0000 C   0  0  0  0  0  0  0  0  0  0  0  0
   -2.6323    0.5030    0.0000 C   0  0  0  0  0  0  0  0  0  0  0  0
   -1.3862    1.3380    0.0000 C   0  0  0  0  0  0  0  0  0  0  0  0
   -0.0400    0.6764    0.0000 C   0  0  0  0  0  0  0  0  0  0  0  0
    0.0601   -0.8202    0.0000 C   0  0  0  0  0  0  0  0  0  0  0  0
   -1.1860   -1.6553    0.0000 C   0  0  0  0  0  0  0  0  0  0  0  0
    0.0168    2.1753    0.0000 C   0  0  0  0  0  0  0  0  0  0  0  0
   -1.1624    3.1024    0.0000 C   0  0  0  0  0  0  0  0  0  0  0  0
    1.4600    2.5845    0.0000 C   0  0  0  0  0  0  0  0  0  0  0  0
    2.2950    1.3384    0.0000 C   0  0  0  0  0  0  0  0  0  0  0  0
    1.3680    0.1591    0.0000 C   0  0  0  0  0  0  0  0  0  0  0  0
    1.7771   -1.2840    0.0000 C   0  0  0  0  0  0  0  0  0  0  0  0
    0.3340   -1.6931    0.0000 C   0  0  0  0  0  0  0  0  0  0  0  0
    3.2202   -0.8749    0.0000 C   0  0  0  0  0  0  0  0  0  0  0  0
    2.1862   -2.7271    0.0000 O   0  0  0  0  0  0  0  0  0  0  0  0
  1  2  1  0
  2  3  2  0
  3  4  1  0
  5  4  1  6
  5  6  1  0
  6  7  1  0
  5  8  1  0
  8  9  1  6
  8 10  1  0
 10 11  1  0
 11 12  1  0
 12 13  1  1
 13 14  1  0
 13 15  1  0
 13 16  1  0
  7  2  1  0
 12  5  1  0
M  END
>  <identifier>  (1236) 
CNP0238227.2

>  <canonical_smiles>  (1236) 
CC1=CC[C@]2(CC1)[C@H](C)CC[C@H]2C(C)(C)O

>  <standard_inchi>  (1236) 
InChI=1S/C15H26O/c1-11-7-9-15(10-8-11)12(2)5-6-13(15)14(3,4)16/h7,12-13,16H,5-6,8-10H2,1-4H3/t12-,13+,15+/m1/s1

>  <standard_inchi_key>  (1236) 
XDVDHFJMCJWDPI-IPYPFGDCSA-N

>  <name>  (1236) 
beta-Acorenol

>  <iupac_name>  (1236) 
2-[(1~{R},4~{R},5~{R})-1,8-dimethylspiro[4.5]dec-8-en-4-yl]propan-2-ol

>  <annotation_level>  (1236) 
5

>  <total_atom_count>  (1236) 
42

>  <heavy_atom_count>  (1236) 
16

>  <molecular_weight>  (1236) 
222.37

>  <exact_molecular_weight>  (1236) 
222.19837

>  <molecular_formula>  (1236) 
C15H26O

>  <alogp>  (1236) 
3.92

>  <topological_polar_surface_area>  (1236) 
20.23

>  <rotatable_bond_count>  (1236) 
1

>  <hydrogen_bond_acceptors>  (1236) 
1

>  <hydrogen_bond_donors>  (1236) 
1

>  <hydrogen_bond_acceptors_lipinski>  (1236) 
1

>  <hydrogen_bond_donors_lipinski>  (1236) 
1

>  <lipinski_rule_of_five_violations>  (1236) 
0

>  <aromatic_rings_count>  (1236) 
0

>  <qed_drug_likeliness>  (1236) 
0.67

>  <formal_charge>  (1236) 
0

>  <fractioncsp3>  (1236) 
0.87

>  <number_of_minimal_rings>  (1236) 
2

>  <van_der_walls_volume>  (1236) 
238.65

>  <contains_sugar>  (1236) 
False

>  <contains_ring_sugars>  (1236) 
False

>  <contains_linear_sugars>  (1236) 
False

>  <murcko_framework>  (1236) 
C1=CCC2(CC1)CCCC2

>  <np_likeness>  (1236) 
3.32

>  <chemical_class>  (1236) 
Organooxygen compounds

>  <chemical_sub_class>  (1236) 
Alcohols and polyols

>  <chemical_super_class>  (1236) 
Organic oxygen compounds

>  <direct_parent_classification>  (1236) 
Tertiary alcohols

>  <np_classifier_pathway>  (1236) 
Terpenoids

>  <np_classifier_superclass>  (1236) 
Sesquiterpenoids

>  <np_classifier_class>  (1236) 
Acorane sesquiterpenoids

>  <np_classifier_is_glycoside>  (1236) 
False

>  <organisms>  (1236) 
Artemisia annua|Athrotaxis|Athrotaxis cupressoides|Athrotaxis laxifolia|Athrotaxis selaginoides|Cupressus bakeri|Juniperus phoenicea L.|Juniperus rigida|Tetraclinis articulata|Toona ciliata

>  <collections>  (1236) 
ANPDB|Australian natural products|KNApSaCK|Latin America dataset|NANPDB (Natural Products from Northern African Sources)|NPASS|NuBBEDB|Super Natural II|TCMDB-Taiwan (Traditional Chinese Medicine database)|WikiData Natural Products|ZINC NP

>  <dois>  (1236) 
10.1016/0305-1978(94)90030-2|10.1016/S0031-9422(00)89652-1|10.1021/NP0204949|10.1080/10412905.2002.9699787|10.1177/1934578X0800301225|10.1590/S0103-50532000000600012

>  <synonyms>  (1236) 
28400-11-5|DTXSID101027939|\u221a\u00e9\u00ac\u2264-Acorenol|_-acorenol|beta-Acorenol

>  <cas>  (1236) 
28400-11-5

$$$$

     RDKit          2D

 20 21  0  0  0  0  0  0  0  0999 V2000
   -0.2073   -3.5045    0.0000 C   0  0  0  0  0  0  0  0  0  0  0  0
   -0.3973   -2.0166    0.0000 O   0  0  0  0  0  0  0  0  0  0  0  0
   -1.7808   -1.4372    0.0000 C   0  0  0  0  0  0  0  0  0  0  0  0
   -2.9744   -2.3457    0.0000 C   0  0  0  0  0  0  0  0  0  0  0  0
   -4.3580   -1.7663    0.0000 C   0  0  0  0  0  0  0  0  0  0  0  0
   -4.5480   -0.2784    0.0000 C   0  0  0  0  0  0  0  0  0  0  0  0
   -3.3544    0.6301    0.0000 C   0  0  0  0  0  0  0  0  0  0  0  0
   -3.5445    2.1181    0.0000 O   0  0  0  0  0  0  0  0  0  0  0  0
   -4.9280    2.6975    0.0000 C   0  0  0  0  0  0  0  0  0  0  0  0
   -1.9709    0.0507    0.0000 C   0  0  0  0  0  0  0  0  0  0  0  0
   -0.7773    0.9593    0.0000 C   0  0  0  0  0  0  0  0  0  0  0  0
   -0.9673    2.4472    0.0000 O   0  0  0  0  0  0  0  0  0  0  0  0
    0.6063    0.3799    0.0000 O   0  0  0  0  0  0  0  0  0  0  0  0
    1.7998    1.2884    0.0000 C   0  0  0  0  0  0  0  0  0  0  0  0
    3.1834    0.7090    0.0000 C   0  0  0  0  0  0  0  0  0  0  0  0
    3.3734   -0.7789    0.0000 C   0  0  0  0  0  0  0  0  0  0  0  0
    4.7570   -1.3583    0.0000 C   0  0  0  0  0  0  0  0  0  0  0  0
    5.9506   -0.4498    0.0000 C   0  0  0  0  0  0  0  0  0  0  0  0
    5.7606    1.0381    0.0000 C   0  0  0  0  0  0  0  0  0  0  0  0
    4.3770    1.6175    0.0000 C   0  0  0  0  0  0  0  0  0  0  0  0
  1  2  1  0
  2  3  1  0
  3  4  2  0
  4  5  1  0
  5  6  2  0
  6  7  1  0
  7  8  1  0
  8  9  1  0
  7 10  2  0
 10 11  1  0
 11 12  2  0
 11 13  1  0
 13 14  1  0
 14 15  1  0
 15 16  2  0
 16 17  1  0
 17 18  2  0
 18 19  1  0
 19 20  2  0
 10  3  1  0
 20 15  1  0
M  END
>  <identifier>  (1237) 
CNP0284375.0

>  <canonical_smiles>  (1237) 
COC1=CC=CC(OC)=C1C(=O)OCC1=CC=CC=C1

>  <standard_inchi>  (1237) 
InChI=1S/C16H16O4/c1-18-13-9-6-10-14(19-2)15(13)16(17)20-11-12-7-4-3-5-8-12/h3-10H,11H2,1-2H3

>  <standard_inchi_key>  (1237) 
PKIYLOACOOWBCU-UHFFFAOYSA-N

>  <name>  (1237) 
Benzyl 2,6-dimethoxybenzoate

>  <iupac_name>  (1237) 
benzyl 2,6-dimethoxybenzoate

>  <annotation_level>  (1237) 
5

>  <total_atom_count>  (1237) 
36

>  <heavy_atom_count>  (1237) 
20

>  <molecular_weight>  (1237) 
272.3

>  <exact_molecular_weight>  (1237) 
272.10486

>  <molecular_formula>  (1237) 
C16H16O4

>  <alogp>  (1237) 
3.06

>  <topological_polar_surface_area>  (1237) 
44.76

>  <rotatable_bond_count>  (1237) 
5

>  <hydrogen_bond_acceptors>  (1237) 
4

>  <hydrogen_bond_donors>  (1237) 
0

>  <hydrogen_bond_acceptors_lipinski>  (1237) 
4

>  <hydrogen_bond_donors_lipinski>  (1237) 
0

>  <lipinski_rule_of_five_violations>  (1237) 
0

>  <aromatic_rings_count>  (1237) 
2

>  <qed_drug_likeliness>  (1237) 
0.78

>  <formal_charge>  (1237) 
0

>  <fractioncsp3>  (1237) 
0.19

>  <number_of_minimal_rings>  (1237) 
2

>  <van_der_walls_volume>  (1237) 
249.77

>  <contains_sugar>  (1237) 
False

>  <contains_ring_sugars>  (1237) 
False

>  <contains_linear_sugars>  (1237) 
False

>  <murcko_framework>  (1237) 
O(Cc1ccccc1)Cc2ccccc2

>  <np_likeness>  (1237) 
-0.26

>  <chemical_class>  (1237) 
Benzene and substituted derivatives

>  <chemical_sub_class>  (1237) 
Benzoic acids and derivatives

>  <chemical_super_class>  (1237) 
Benzenoids

>  <direct_parent_classification>  (1237) 
O-methoxybenzoic acids and derivatives

>  <np_classifier_pathway>  (1237) 
Shikimates and Phenylpropanoids

>  <np_classifier_superclass>  (1237) 
Phenolic acids (C6-C1)

>  <np_classifier_class>  (1237) 
Simple phenolic acids

>  <np_classifier_is_glycoside>  (1237) 
False

>  <organisms>  (1237) 
Aeschynanthus parvifolius|Agelas gracilis|Agelas longissima|Ageratina anisochroma|Ageratina ligustrina|Alpinia pulcherrima|Aniba ferrea|Arnica acaulis|Betula papyrifera|Bignonia unguiscati|Blainvillea latifolia|Boronia alata|Brickellia veronicaefolia|Brickellia veronicifolia|Brintonia discoidea|Bufo bankorensis|Caesalpinia Pulcherrima|Caesalpinia pulcherrima|Chelonanthus alatus|Chromodoris cavae|Cinnamomum philippinense|Cladosiphon okamuranus|Clostridium perfringens|Coronilla hyrcana|Cyathus intermedius|Cyperus capitatus|Cyttaria harioti|Dehaasia longipedicellata|Delphinium tricorne|Echinocardium cordatum|Ephedra altissima|Eria siamensis|Erica cinerea|Escherichia coli|Forsythia europaea|Goodyera discolor|Haemanthus albiflos|Helleborus viridis|Hintonia latiflora|Hordeum bulbosum|Iris sibirica|Isolona pilosa|Jatropha gossypiifolia|Keyserlingia koreensis|Kumara disticha|Lactarius torminosus|Lecanora sulphurata|Litsea nitida|Lobelia langeana|Magnolia henryi|Malus trilobata|Maytenus emarginata|Micromelum falcatum|Mocis latipes|Mycale tenuis|Mycosphaerella nawae|Peltophorum dubium|Penicilliopsis clavariiformis|Phoma asparagi|Pityrodia jamesii|Prunus pseudocerasus|Pycnothymus rigidus|Rhizophagus intraradices|Salvia breviflora|Salvia miniata|Securidaca diversifolia|Sibiraea angustata|Solidago decurrens|Solidago virgaurea l. var. leiocarpa (benth.) a. gray|Solidago virgaurea var. leiocarpa|Stachys tomentosa|Streptomyces aurantiogriseus|Streptomyces sakaiensis|Tamarix dioica|Thelepus setosus|Tripterygium wilfordii|Uncaria homomalla|Uvaria grandiflora|Valeriana officinalis|Vernonia aurea|Xanthium canadense

>  <collections>  (1237) 
Australian natural products|BIOFACQUIM|CMAUP (cCollective molecular activities of useful plants)|Latin America dataset|NAPRORE-CR|NPASS|NuBBEDB|Phyto4Health|Super Natural II|TCMDB-Taiwan (Traditional Chinese Medicine database)|TCMID (Traditional Chinese Medicine Integrated Database)|UNPD (Universal Natural Products Database)|VietHerb|WikiData Natural Products|ZINC NP

>  <dois>  (1237) 
10.1016/0031-9422(80)83081-0|10.1016/0031-9422(81)83109-3|10.1016/0031-9422(84)83114-3|10.1016/0031-9422(88)80683-6|10.1016/0031-9422(93)85163-L|10.1016/0031-9422(93)85350-Z|10.1016/J.PHYTOL.2010.08.005|10.1021/NP0201523|10.1021/NP060180B|10.1021/np060180b|10.1055/S-2005-864097|10.1055/s-2005-864097

>  <synonyms>  (1237) 
34328-54-6|AKOS002351529|Benzyl 2,6-methoxybenzoate|CHEMBL491794|DTXSID00327305|FS-7990|NCI60_015130|NSC644650|benzyl 2 6-dimethoxybenzoate

>  <cas>  (1237) 
34328-54-6

$$$$

     RDKit          2D

 20 22  0  0  0  0  0  0  0  0999 V2000
    2.3066    3.4190    0.0000 O   0  0  0  0  0  0  0  0  0  0  0  0
    1.7178    2.0394    0.0000 C   0  0  0  0  0  0  0  0  0  0  0  0
    0.2286    1.8595    0.0000 C   0  0  0  0  0  0  0  0  0  0  0  0
   -0.3602    0.4799    0.0000 C   0  0  0  0  0  0  0  0  0  0  0  0
   -1.8493    0.3000    0.0000 C   0  0  0  0  0  0  0  0  0  0  0  0
   -2.7497    1.4997    0.0000 C   0  0  0  0  0  0  0  0  0  0  0  0
   -4.2389    1.3198    0.0000 C   0  0  0  0  0  0  0  0  0  0  0  0
   -4.8277   -0.0598    0.0000 C   0  0  0  0  0  0  0  0  0  0  0  0
   -6.3168   -0.2397    0.0000 O   0  0  0  0  0  0  0  0  0  0  0  0
   -3.9273   -1.2595    0.0000 C   0  0  0  0  0  0  0  0  0  0  0  0
   -4.5161   -2.6391    0.0000 O   0  0  0  0  0  0  0  0  0  0  0  0
   -2.4381   -1.0796    0.0000 C   0  0  0  0  0  0  0  0  0  0  0  0
    0.5402   -0.7198    0.0000 O   0  0  0  0  0  0  0  0  0  0  0  0
    2.0294   -0.5399    0.0000 C   0  0  0  0  0  0  0  0  0  0  0  0
    2.9298   -1.7397    0.0000 C   0  0  0  0  0  0  0  0  0  0  0  0
    4.4190   -1.5598    0.0000 C   0  0  0  0  0  0  0  0  0  0  0  0
    5.3193   -2.7595    0.0000 O   0  0  0  0  0  0  0  0  0  0  0  0
    5.0077   -0.1802    0.0000 C   0  0  0  0  0  0  0  0  0  0  0  0
    4.1074    1.0196    0.0000 C   0  0  0  0  0  0  0  0  0  0  0  0
    2.6182    0.8397    0.0000 C   0  0  0  0  0  0  0  0  0  0  0  0
  1  2  2  0
  2  3  1  0
  3  4  2  0
  4  5  1  0
  5  6  2  0
  6  7  1  0
  7  8  2  0
  8  9  1  0
  8 10  1  0
 10 11  1  0
 10 12  2  0
  4 13  1  0
 13 14  1  0
 14 15  2  0
 15 16  1  0
 16 17  1  0
 16 18  2  0
 18 19  1  0
 19 20  2  0
 20  2  1  0
 12  5  1  0
 20 14  1  0
M  END
>  <identifier>  (1238) 
CNP0232047.0

>  <canonical_smiles>  (1238) 
O=C1C=C(C2=CC=C(O)C(O)=C2)OC2=CC(O)=CC=C12

>  <standard_inchi>  (1238) 
InChI=1S/C15H10O5/c16-9-2-3-10-12(18)7-14(20-15(10)6-9)8-1-4-11(17)13(19)5-8/h1-7,16-17,19H

>  <standard_inchi_key>  (1238) 
PVFGJHYLIHMCQD-UHFFFAOYSA-N

>  <name>  (1238) 
7,3',4'-Trihydroxyflavone

>  <iupac_name>  (1238) 
2-(3,4-dihydroxyphenyl)-7-hydroxy-chromen-4-one

>  <annotation_level>  (1238) 
5

>  <total_atom_count>  (1238) 
30

>  <heavy_atom_count>  (1238) 
20

>  <molecular_weight>  (1238) 
270.24

>  <exact_molecular_weight>  (1238) 
270.05282

>  <molecular_formula>  (1238) 
C15H10O5

>  <alogp>  (1238) 
2.58

>  <topological_polar_surface_area>  (1238) 
90.90

>  <rotatable_bond_count>  (1238) 
1

>  <hydrogen_bond_acceptors>  (1238) 
5

>  <hydrogen_bond_donors>  (1238) 
3

>  <hydrogen_bond_acceptors_lipinski>  (1238) 
5

>  <hydrogen_bond_donors_lipinski>  (1238) 
3

>  <lipinski_rule_of_five_violations>  (1238) 
0

>  <aromatic_rings_count>  (1238) 
3

>  <qed_drug_likeliness>  (1238) 
0.59

>  <formal_charge>  (1238) 
0

>  <fractioncsp3>  (1238) 
0.00

>  <number_of_minimal_rings>  (1238) 
3

>  <van_der_walls_volume>  (1238) 
224.33

>  <contains_sugar>  (1238) 
False

>  <contains_ring_sugars>  (1238) 
False

>  <contains_linear_sugars>  (1238) 
False

>  <murcko_framework>  (1238) 
O1c2ccccc2CC=C1c3ccccc3

>  <np_likeness>  (1238) 
1.14

>  <chemical_class>  (1238) 
Flavonoids

>  <chemical_sub_class>  (1238) 
Hydroxyflavonoids

>  <chemical_super_class>  (1238) 
Phenylpropanoids and polyketides

>  <direct_parent_classification>  (1238) 
3'-hydroxyflavonoids

>  <np_classifier_pathway>  (1238) 
Shikimates and Phenylpropanoids

>  <np_classifier_superclass>  (1238) 
Flavonoids

>  <np_classifier_class>  (1238) 
Flavones

>  <np_classifier_is_glycoside>  (1238) 
False

>  <organisms>  (1238) 
Acacia confusa|Acacia fasciculifera|Aeschrion excelsa|Albizia Julibrissin|Albizia julibrissin|Baptisia arachnifera|Baptisia australis|Baptisia bracteata|Baptisia calycosa|Baptisia cinerea|Baptisia lanceolata|Baptisia lecontei|Baptisia megacarpa|Baptisia nuttalliana|Baptisia perfoliata|Baptisia simplicifolia|Bauhinia glauca|Brachymeris montana|Brucea javanica|Bryocaulon pseudosatoanum|Butea monosperma|Cacia confusa|Callistemon lanceolatus|Carex longebrachiata|Cheniella glauca|Cissus discolor|Cissus sicyoides|Croton zehntneri|Cyclopia intermedia|Cyclopia subternata|Dipteryx lacunifera|Dorstenia dinklagei|Glycine soja|Glycyrrhiza Uralensis|Glycyrrhiza glabra|Glycyrrhiza inflata|Glycyrrhiza uralensis|Hypolytrum nemorum|Junceella gemmacea|Juncus trifidus|Lentinus tigrinus|Luzula purpurea|Medicago Sativa|Medicago coronata|Medicago littoralis|Medicago monspeliaca|Medicago orbicularis|Medicago polymorpha|Medicago sativa|Mitracarpus scaber|Neurymenia fraxinifolia|Sapium haematospermum|Scutellaria baicalensis|Sophora alopecuroides|Sophora davidii|Sophora microphylla|Sophora mollis|Sophora prostrata|Sophora viciifolia|Sophora vicllfolia|Spatholobus suberectus|Spatholobus suberectus Dunn|Thermopsis macrophylla|Thermopsis mollis|Thermopsis rhombifolia|Thermopsis villosa|Trifolium Repens|Trifolium repens|Trifolium subterraneum|Trigonella anguina|Trigonella coerulescens|Trigonella foenum-graecum|Trigonella laciniata|Trigonella maritima|Trigonella spicata|Vicia Faba|Vicia faba|broad bean

>  <collections>  (1238) 
Australian natural products|BitterDB|CMAUP (cCollective molecular activities of useful plants)|ChemSpider NPs|ConMedNP|FooDB|GNPS (Global Natural Products Social Molecular Networking)|KNApSaCK|Latin America dataset|NPASS|NPEdia|NuBBEDB|Phenol-explorer|Phyto4Health|Super Natural II|TCMDB-Taiwan (Traditional Chinese Medicine database)|TCMID (Traditional Chinese Medicine Integrated Database)|TIPdb (database of Taiwan indigenous plants)|UNPD (Universal Natural Products Database)|VietHerb|WikiData Natural Products|ZINC NP|p-ANAPL

>  <dois>  (1238) 
10.1002/ELPS.201300646|10.1002/HLCA.200890233|10.1002/JCCS.200800033|10.1002/hlca.200890233|10.1007/BF00381261|10.1007/S10600-009-9360-8|10.1016/0031-9422(73)85021-6|10.1016/0305-1978(82)90048-5|10.1016/J.BMCL.2015.05.089|10.1016/J.PHYTOCHEM.2006.05.008|10.1016/J.PHYTOCHEM.2007.05.016|10.1016/J.PLAPHY.2015.04.008|10.1016/S0031-9422(00)84834-7|10.1016/S0031-9422(00)85740-4|10.1016/S0031-9422(00)88458-7|10.1016/S0031-9422(01)00273-4|10.1016/j.bmcl.2015.05.089|10.1016/s0031-9422(00)84889-x|10.1021/JF00002A006|10.1021/JF0210730|10.1021/JF040097Z|10.1021/JF901498Q|10.1021/NP900144C|10.1021/np900144c|10.1039/P19810002483|10.1104/PP.69.2.522|10.1248/CPB.57.1089|10.1248/CPB.57.428

>  <synonyms>  (1238) 
104666-14-0|15Z|2-(3,4-Bis(oxidanyl)phenyl)-7-oxidanyl-chromen-4-one|2-(3,4-Dihydroxyphenyl)-7-hydroxy-4H-1-benzopyran-4-one|2-(3,4-dihydroxyphenyl)-7-hydroxy-4H-chromen-4-one|2150-11-0|3 inverted exclamation marka,4 inverted exclamation marka,7-Trihydroxyflavone|3',4',7- TRIHYDROXY FLAVONE|3',4',7-Trihydroxyflavone|3'4'7-Trihydroxyflavone, 2-(34-dihydroxyphenyl)-7-hydroxy-4H-chromen-4-one|4H-1-Benzopyran-4-one, 2-(3,4-dihydroxyphenyl)-7-hydroxy-|4hlf|5-18-04-00590 (Beilstein Handbook Reference)|7,3'',4''-Trihydroxyflavone|AKOS016009456|BDBM50077325|BRN 0253031|BS-49064|CHEBI:196247|CHEMBL301624|CS-0023236|D81760|DB-045596|DTXSID30175836|Flavone, 3',4',7-trihydroxy- (6CI,7CI,8CI); 2-(3,4-Dihydroxyphenyl)-7-hydroxy-4H-1-benzopyran-4-one; 3',4',7-Trihydroxyflavone; 3',4',7-Trihydroxylflavone; 5-Deoxyluteolin; 7,3',4'-Trihydroxyflavone|Flavone, 7,3',4'-trihydroxy-|HY-N2736|LMPK12110042|MFCD00017434|NS00116328|NS7F7K27CD|PVFGJHYLIHMCQD-UHFFFAOYSA-N|Q-100553|Q23055239|SCHEMBL34405|T 414

>  <cas>  (1238) 
2150-11-0|104666-14-0

$$$$

     RDKit          2D

 33 35  0  0  0  0  0  0  0  0999 V2000
   -6.4850   -3.0866    0.0000 C   0  0  0  0  0  0  0  0  0  0  0  0
   -5.0617   -3.5602    0.0000 O   0  0  0  0  0  0  0  0  0  0  0  0
   -3.9400   -2.5644    0.0000 C   0  0  0  0  0  0  0  0  0  0  0  0
   -4.2415   -1.0950    0.0000 C   0  0  0  0  0  0  0  0  0  0  0  0
   -3.1197   -0.0992    0.0000 C   0  0  0  0  0  0  0  0  0  0  0  0
   -3.4212    1.3702    0.0000 O   0  0  0  0  0  0  0  0  0  0  0  0
   -2.2994    2.3660    0.0000 C   0  0  0  0  0  0  0  0  0  0  0  0
   -0.8761    1.8924    0.0000 O   0  0  0  0  0  0  0  0  0  0  0  0
    0.2456    2.8882    0.0000 C   0  0  0  0  0  0  0  0  0  0  0  0
    1.6689    2.4146    0.0000 C   0  0  0  0  0  0  0  0  0  0  0  0
    1.9704    0.9452    0.0000 O   0  0  0  0  0  0  0  0  0  0  0  0
    3.3937    0.4716    0.0000 C   0  0  0  0  0  0  0  0  0  0  0  0
    4.6134    1.3447    0.0000 O   0  0  0  0  0  0  0  0  0  0  0  0
    5.8207    0.4545    0.0000 C   0  0  0  0  0  0  0  0  0  0  0  0
    5.3471   -0.9688    0.0000 C   0  0  0  0  0  0  0  0  0  0  0  0
    5.1798   -2.4595    0.0000 O   0  0  0  0  0  0  0  0  0  0  0  0
    6.8121   -1.2910    0.0000 C   0  0  0  0  0  0  0  0  0  0  0  0
    7.2655   -2.7209    0.0000 O   0  0  0  0  0  0  0  0  0  0  0  0
    3.8471   -0.9582    0.0000 C   0  0  0  0  0  0  0  0  0  0  0  0
    2.9569   -2.1655    0.0000 O   0  0  0  0  0  0  0  0  0  0  0  0
   -0.0558    4.3576    0.0000 C   0  0  0  0  0  0  0  0  0  0  0  0
    1.0659    5.3533    0.0000 O   0  0  0  0  0  0  0  0  0  0  0  0
   -1.4791    4.8311    0.0000 C   0  0  0  0  0  0  0  0  0  0  0  0
   -1.7806    6.3005    0.0000 O   0  0  0  0  0  0  0  0  0  0  0  0
   -2.6009    3.8353    0.0000 C   0  0  0  0  0  0  0  0  0  0  0  0
   -4.0242    4.3089    0.0000 O   0  0  0  0  0  0  0  0  0  0  0  0
   -1.6964   -0.5728    0.0000 C   0  0  0  0  0  0  0  0  0  0  0  0
   -1.3949   -2.0422    0.0000 C   0  0  0  0  0  0  0  0  0  0  0  0
    0.0284   -2.5158    0.0000 O   0  0  0  0  0  0  0  0  0  0  0  0
    0.3299   -3.9852    0.0000 C   0  0  0  0  0  0  0  0  0  0  0  0
   -2.5167   -3.0380    0.0000 C   0  0  0  0  0  0  0  0  0  0  0  0
   -2.2152   -4.5074    0.0000 O   0  0  0  0  0  0  0  0  0  0  0  0
   -3.3370   -5.5032    0.0000 C   0  0  0  0  0  0  0  0  0  0  0  0
  1  2  1  0
  2  3  1  0
  3  4  2  0
  4  5  1  0
  5  6  1  0
  7  6  1  1
  7  8  1  0
  8  9  1  0
  9 10  1  1
 10 11  1  0
 12 11  1  6
 12 13  1  0
 13 14  1  0
 14 15  1  0
 15 16  1  1
 15 17  1  0
 17 18  1  0
 15 19  1  0
 19 20  1  1
  9 21  1  0
 21 22  1  6
 21 23  1  0
 23 24  1  1
 23 25  1  0
 25 26  1  6
  5 27  2  0
 27 28  1  0
 28 29  1  0
 29 30  1  0
 28 31  2  0
 31 32  1  0
 32 33  1  0
 31  3  1  0
 25  7  1  0
 19 12  1  0
M  END
>  <identifier>  (1239) 
CNP0111688.1

>  <canonical_smiles>  (1239) 
COC1=CC(O[C@@H]2O[C@H](CO[C@@H]3OC[C@](O)(CO)[C@H]3O)[C@@H](O)[C@H](O)[C@H]2O)=CC(OC)=C1OC

>  <standard_inchi>  (1239) 
InChI=1S/C20H30O13/c1-27-10-4-9(5-11(28-2)16(10)29-3)32-18-15(24)14(23)13(22)12(33-18)6-30-19-17(25)20(26,7-21)8-31-19/h4-5,12-15,17-19,21-26H,6-8H2,1-3H3/t12-,13-,14+,15-,17+,18-,19-,20-/m1/s1

>  <standard_inchi_key>  (1239) 
CKGKQISENBKOCA-FHXQZXMCSA-N

>  <name>  (1239) 
Kelampayoside A

>  <iupac_name>  (1239) 
(2~{R},3~{S},4~{S},5~{R},6~{S})-2-[[(2~{R},3~{R},4~{R})-3,4-dihydroxy-4-(hydroxymethyl)tetrahydrofuran-2-yl]oxymethyl]-6-(3,4,5-trimethoxyphenoxy)tetrahydropyran-3,4,5-triol

>  <annotation_level>  (1239) 
5

>  <total_atom_count>  (1239) 
63

>  <heavy_atom_count>  (1239) 
33

>  <molecular_weight>  (1239) 
478.45

>  <exact_molecular_weight>  (1239) 
478.16864

>  <molecular_formula>  (1239) 
C20H30O13

>  <alogp>  (1239) 
-2.64

>  <topological_polar_surface_area>  (1239) 
185.99

>  <rotatable_bond_count>  (1239) 
9

>  <hydrogen_bond_acceptors>  (1239) 
13

>  <hydrogen_bond_donors>  (1239) 
6

>  <hydrogen_bond_acceptors_lipinski>  (1239) 
13

>  <hydrogen_bond_donors_lipinski>  (1239) 
6

>  <lipinski_rule_of_five_violations>  (1239) 
2

>  <aromatic_rings_count>  (1239) 
1

>  <qed_drug_likeliness>  (1239) 
0.22

>  <formal_charge>  (1239) 
0

>  <fractioncsp3>  (1239) 
0.70

>  <number_of_minimal_rings>  (1239) 
3

>  <van_der_walls_volume>  (1239) 
405.44

>  <contains_sugar>  (1239) 
True

>  <contains_ring_sugars>  (1239) 
True

>  <contains_linear_sugars>  (1239) 
False

>  <murcko_framework>  (1239) 
O(c1ccccc1)C2OC(COC3OCCC3)CCC2

>  <np_likeness>  (1239) 
2.06

>  <chemical_class>  (1239) 
Phenol ethers

>  <chemical_sub_class>  (1239) 
Anisoles

>  <chemical_super_class>  (1239) 
Benzenoids

>  <direct_parent_classification>  (1239) 
Anisoles

>  <np_classifier_pathway>  (1239) 
nan

>  <np_classifier_superclass>  (1239) 
nan

>  <np_classifier_class>  (1239) 
nan

>  <np_classifier_is_glycoside>  (1239) 
True

>  <organisms>  (1239) 
Acer nikoense|Acer saccharum|Adenia volkensii|Adina polycephala Benth|Adina trichotoma|Alibertia edulis|Androcymbium palaestinum|Ankistrodesmus braunii|Aphanoascus terreus|Aplidiopsis confluata|Baccharis angustifolia|Banisteriopsis caapi|Betula ermanii|Betula maximowicziana|Bothriocline laxa|Bretschneidera sinensis|Byrsonima crassifolia|Carallia brachiata|Ceroplastes pseudoceriferus|Cinnamomum aromaticum|Cinnamomum burmanni|Cinnamomum cassia|Cinnamomum iners|Cinnamomum pachyphyllum|Cinnamon|Croton insularis|Cryptocarya pleurosperma|Dracaena cambodiana|Epimedium wushanense|Euphorbia clarkeana|Euryops pedunculatus|Garcinia purpurea|Gleichenia japonica|Glossogyne tenuifolia|Gnathotrichus sulcatus|Handroanthus impetiginosum|Handroanthus impetiginosus|Hymenocallis littoralis|Iris pallasii|Lonchocarpus longistylus|Marsypopetalum modestum|Morinda coreia|Morus alba|Nauclea Orientalis|Nauclea orientalis|Neolamarckia cadamba|Neonauclea purpurea|Parthenocissus tricuspidata|Phoma medicaginis|Piptostigma fugax|Plectranthus saccatus|Pyrenula japonica|Quercus ithaburensis subsp. macrolepis|Scopolia parviflora|Senecio oxyodontus|Smilax glabra|Strychnos axillaris|Strychnos cocculoides|Talaromyces pinophilus|Thamnophis sirtalis|Trachelospermum asiaticum|Trachelospermum jasminoides

>  <collections>  (1239) 
ANPDB|Australian natural products|CMAUP (cCollective molecular activities of useful plants)|ChEBI NPs|ChemSpider NPs|KNApSaCK|Latin America dataset|NANPDB (Natural Products from Northern African Sources)|NPASS|NuBBEDB|Super Natural II|VietHerb|WikiData Natural Products|ZINC NP

>  <dois>  (1239) 
10.1002/HLCA.200590206|10.1002/HLCA.200890147|10.1002/HLCA.200900157|10.1002/hlca.200590206|10.1002/hlca.200890147|10.1016/0031-9422(94)00675-J|10.1016/J.FITOTE.2004.09.019|10.1016/J.PHYTOCHEM.2007.12.002|10.1016/S0031-9422(00)80092-8|10.1016/S0031-9422(01)00426-5|10.1021/NP010042G|10.1021/NP0498612|10.1021/NP1002934|10.1021/NP200678N|10.1021/NP700758Q|10.1021/np200678n|10.1080/14786410902750969|10.1080/14786419.2022.2097229|10.1248/CPB.43.1937|10.1248/CPB.44.1162|10.1248/CPB.44.1748|10.1248/CPB.51.62|10.1248/CPB.54.14|10.3987/COM-03-9775

>  <synonyms>  (1239) 
(2R,3S,4S,5R,6S)-2-[[(2R,3R,4R)-3,4-dihydroxy-4-(hydroxymethyl)oxolan-2-yl]oxymethyl]-6-(3,4,5-trimethoxyphenoxy)oxane-3,4,5-triol|3,4,5-Trimethoxyphenyl 6-O-D-apio--D-furanosyl--D-glucopyranoside|3,4,5-trimethoxyphenyl-1-O-beta-D-apiofuranosyl-(1->6)-O-beta-D-glucopyranoside|345-trimethoxyphenyl 1-O-\u221a\u00e9\u00ac\u2264-D-apiofuranosyl-(1\u221a\u00a2\u201a\u00c4\u2020\u201a\u00c4\u00f46)-O-\u221a\u00e9\u00ac\u2264-D-glucopyranoside|87562-76-3|AKOS040761948|CHEBI:68963|CHEMBL1923077|DTXSID101317142|FS-9123|Kelampayoside A|Q27137315

>  <cas>  (1239) 
87562-76-3

$$$$

     RDKit          2D

 53 58  0  0  0  0  0  0  0  0999 V2000
   10.8424   -1.7014    0.0000 C   0  0  0  0  0  0  0  0  0  0  0  0
    9.4918   -1.0488    0.0000 O   0  0  0  0  0  0  0  0  0  0  0  0
    8.2514   -1.8921    0.0000 C   0  0  0  0  0  0  0  0  0  0  0  0
    8.3615   -3.3881    0.0000 O   0  0  0  0  0  0  0  0  0  0  0  0
    6.9008   -1.2396    0.0000 C   0  0  0  0  0  0  0  0  0  0  0  0
    6.7906    0.2564    0.0000 C   0  0  0  0  0  0  0  0  0  0  0  0
    5.4400    0.9090    0.0000 O   0  0  0  0  0  0  0  0  0  0  0  0
    4.1996    0.0656    0.0000 C   0  0  0  0  0  0  0  0  0  0  0  0
    2.8490    0.7182    0.0000 O   0  0  0  0  0  0  0  0  0  0  0  0
    2.7388    2.2141    0.0000 C   0  0  0  0  0  0  0  0  0  0  0  0
    3.9793    3.0575    0.0000 O   0  0  0  0  0  0  0  0  0  0  0  0
    3.8691    4.5535    0.0000 C   0  0  0  0  0  0  0  0  0  0  0  0
    5.1096    5.3968    0.0000 C   0  0  0  0  0  0  0  0  0  0  0  0
    6.4602    4.7442    0.0000 O   0  0  0  0  0  0  0  0  0  0  0  0
    2.5185    5.2060    0.0000 C   0  0  0  0  0  0  0  0  0  0  0  0
    2.4084    6.7020    0.0000 O   0  0  0  0  0  0  0  0  0  0  0  0
    1.2781    4.3627    0.0000 C   0  0  0  0  0  0  0  0  0  0  0  0
   -0.0725    5.0153    0.0000 O   0  0  0  0  0  0  0  0  0  0  0  0
    1.3882    2.8667    0.0000 C   0  0  0  0  0  0  0  0  0  0  0  0
    0.1478    2.0234    0.0000 O   0  0  0  0  0  0  0  0  0  0  0  0
    4.3097   -1.4303    0.0000 C   0  0  0  0  0  0  0  0  0  0  0  0
    5.6603   -2.0829    0.0000 C   0  0  0  0  0  0  0  0  0  0  0  0
    5.4570   -3.5691    0.0000 C   0  0  0  0  0  0  0  0  0  0  0  0
    3.9808   -3.8350    0.0000 C   0  0  0  0  0  0  0  0  0  0  0  0
    3.2717   -2.5132    0.0000 C   0  0  0  0  0  0  0  0  0  0  0  0
    2.3033   -1.3677    0.0000 O   0  0  0  0  0  0  0  0  0  0  0  0
    2.0313   -3.3565    0.0000 C   0  0  0  0  0  0  0  0  0  0  0  0
    0.6807   -2.7040    0.0000 O   0  0  0  0  0  0  0  0  0  0  0  0
   -0.5598   -3.5473    0.0000 C   0  0  0  0  0  0  0  0  0  0  0  0
   -0.4497   -5.0433    0.0000 O   0  0  0  0  0  0  0  0  0  0  0  0
   -1.9104   -2.8947    0.0000 C   0  0  0  0  0  0  0  0  0  0  0  0
   -2.0206   -1.3988    0.0000 C   0  0  0  0  0  0  0  0  0  0  0  0
   -3.3712   -0.7462    0.0000 O   0  0  0  0  0  0  0  0  0  0  0  0
   -4.6116   -1.5896    0.0000 C   0  0  0  0  0  0  0  0  0  0  0  0
   -5.9622   -0.9370    0.0000 O   0  0  0  0  0  0  0  0  0  0  0  0
   -6.0724    0.5590    0.0000 C   0  0  0  0  0  0  0  0  0  0  0  0
   -4.8319    1.4023    0.0000 O   0  0  0  0  0  0  0  0  0  0  0  0
   -4.9421    2.8983    0.0000 C   0  0  0  0  0  0  0  0  0  0  0  0
   -3.7016    3.7416    0.0000 C   0  0  0  0  0  0  0  0  0  0  0  0
   -2.3510    3.0891    0.0000 O   0  0  0  0  0  0  0  0  0  0  0  0
   -6.2927    3.5509    0.0000 C   0  0  0  0  0  0  0  0  0  0  0  0
   -6.4028    5.0468    0.0000 O   0  0  0  0  0  0  0  0  0  0  0  0
   -7.5331    2.7075    0.0000 C   0  0  0  0  0  0  0  0  0  0  0  0
   -8.8837    3.3601    0.0000 O   0  0  0  0  0  0  0  0  0  0  0  0
   -7.4230    1.2115    0.0000 C   0  0  0  0  0  0  0  0  0  0  0  0
   -8.6634    0.3682    0.0000 O   0  0  0  0  0  0  0  0  0  0  0  0
   -4.5015   -3.0855    0.0000 C   0  0  0  0  0  0  0  0  0  0  0  0
   -3.1509   -3.7381    0.0000 C   0  0  0  0  0  0  0  0  0  0  0  0
   -3.3541   -5.2243    0.0000 C   0  0  0  0  0  0  0  0  0  0  0  0
   -4.8304   -5.4902    0.0000 C   0  0  0  0  0  0  0  0  0  0  0  0
   -5.5395   -4.1684    0.0000 C   0  0  0  0  0  0  0  0  0  0  0  0
   -6.7799   -5.0117    0.0000 C   0  0  0  0  0  0  0  0  0  0  0  0
   -6.5079   -3.0229    0.0000 O   0  0  0  0  0  0  0  0  0  0  0  0
  1  2  1  0
  2  3  1  0
  3  4  2  0
  3  5  1  0
  5  6  2  0
  6  7  1  0
  7  8  1  0
  8  9  1  6
 10  9  1  1
 10 11  1  0
 11 12  1  0
 12 13  1  1
 13 14  1  0
 12 15  1  0
 15 16  1  6
 15 17  1  0
 17 18  1  1
 17 19  1  0
 19 20  1  6
 21  8  1  1
 21 22  1  0
 22 23  1  1
 23 24  2  0
 24 25  1  0
 25 26  1  6
 25 27  1  0
 27 28  1  0
 28 29  1  0
 29 30  2  0
 29 31  1  0
 31 32  2  0
 32 33  1  0
 33 34  1  0
 34 35  1  6
 36 35  1  1
 36 37  1  0
 37 38  1  0
 38 39  1  1
 39 40  1  0
 38 41  1  0
 41 42  1  6
 41 43  1  0
 43 44  1  1
 43 45  1  0
 45 46  1  6
 47 34  1  1
 47 48  1  0
 48 49  1  1
 49 50  1  0
 50 51  1  0
 51 52  1  1
 51 53  1  0
 22  5  1  0
 48 31  1  0
 19 10  1  0
 25 21  1  0
 45 36  1  0
 51 47  1  0
M  END
>  <identifier>  (1240) 
CNP0366064.1

>  <canonical_smiles>  (1240) 
COC(=O)C1=CO[C@@H](O[C@@H]2O[C@H](CO)[C@@H](O)[C@H](O)[C@H]2O)[C@H]2[C@@H]1C=C[C@@]2(O)COC(=O)C1=CO[C@@H](O[C@@H]2O[C@H](CO)[C@@H](O)[C@H](O)[C@H]2O)[C@H]2[C@@H]1CC[C@]2(C)O

>  <standard_inchi>  (1240) 
InChI=1S/C33H46O20/c1-32(44)5-3-12-15(10-47-28(18(12)32)52-30-24(40)22(38)20(36)16(7-34)50-30)27(43)49-11-33(45)6-4-13-14(26(42)46-2)9-48-29(19(13)33)53-31-25(41)23(39)21(37)17(8-35)51-31/h4,6,9-10,12-13,16-25,28-31,34-41,44-45H,3,5,7-8,11H2,1-2H3/t12-,13-,16-,17-,18-,19-,20-,21-,22+,23+,24-,25-,28+,29+,30+,31+,32+,33-/m1/s1

>  <standard_inchi_key>  (1240) 
OPUOJUNLPSQCAF-NSVCACQWSA-N

>  <name>  (1240) 
nan

>  <iupac_name>  (1240) 
methyl (1~{S},4~{a}~{S},7~{S},7~{a}~{S})-7-[[(1~{S},4~{a}~{S},7~{S},7~{a}~{S})-7-hydroxy-7-methyl-1-[(2~{S},3~{R},4~{S},5~{S},6~{R})-3,4,5-trihydroxy-6-(hydroxymethyl)tetrahydropyran-2-yl]oxy-4~{a},5,6,7~{a}-tetrahydro-1~{H}-cyclopenta[c]pyran-4-carbonyl]oxymethyl]-7-hydroxy-1-[(2~{S},3~{R},4~{S},5~{S},6~{R})-3,4,5-trihydroxy-6-(hydroxymethyl)tetrahydropyran-2-yl]oxy-4~{a},7~{a}-dihydro-1~{H}-cyclopenta[c]pyran-4-carboxylate

>  <annotation_level>  (1240) 
5

>  <total_atom_count>  (1240) 
99

>  <heavy_atom_count>  (1240) 
53

>  <molecular_weight>  (1240) 
762.71

>  <exact_molecular_weight>  (1240) 
762.25824

>  <molecular_formula>  (1240) 
C33H46O20

>  <alogp>  (1240) 
-4.87

>  <topological_polar_surface_area>  (1240) 
310.28

>  <rotatable_bond_count>  (1240) 
10

>  <hydrogen_bond_acceptors>  (1240) 
20

>  <hydrogen_bond_donors>  (1240) 
10

>  <hydrogen_bond_acceptors_lipinski>  (1240) 
20

>  <hydrogen_bond_donors_lipinski>  (1240) 
10

>  <lipinski_rule_of_five_violations>  (1240) 
3

>  <aromatic_rings_count>  (1240) 
0

>  <qed_drug_likeliness>  (1240) 
0.07

>  <formal_charge>  (1240) 
0

>  <fractioncsp3>  (1240) 
0.76

>  <number_of_minimal_rings>  (1240) 
6

>  <van_der_walls_volume>  (1240) 
636.98

>  <contains_sugar>  (1240) 
True

>  <contains_ring_sugars>  (1240) 
True

>  <contains_linear_sugars>  (1240) 
False

>  <murcko_framework>  (1240) 
O(CC1=COC(OC2OCCCC2)C3CCCC13)CC4C=CC5C=COC(OC6OCCCC6)C54

>  <np_likeness>  (1240) 
1.85

>  <chemical_class>  (1240) 
Prenol lipids

>  <chemical_sub_class>  (1240) 
Terpene glycosides

>  <chemical_super_class>  (1240) 
Lipids and lipid-like molecules

>  <direct_parent_classification>  (1240) 
Iridoid O-glycosides

>  <np_classifier_pathway>  (1240) 
Terpenoids

>  <np_classifier_superclass>  (1240) 
Monoterpenoids

>  <np_classifier_class>  (1240) 
Iridoids monoterpenoids

>  <np_classifier_is_glycoside>  (1240) 
True

>  <organisms>  (1240) 
Catunaregam spinosa|Randia spinosa

>  <collections>  (1240) 
ChemSpider NPs|Latin America dataset|NuBBEDB|Super Natural II|TCMDB-Taiwan (Traditional Chinese Medicine database)|WikiData Natural Products|ZINC NP

>  <dois>  (1240) 
10.1016/S0031-9422(03)00109-2

>  <synonyms>  (1240) 
Randinoside

>  <cas>  (1240) 
nan

$$$$

     RDKit          2D

 18 19  0  0  0  0  0  0  0  0999 V2000
   -4.3230    0.8695    0.0000 C   0  0  0  0  0  0  0  0  0  0  0  0
   -3.0178    1.6086    0.0000 O   0  0  0  0  0  0  0  0  0  0  0  0
   -1.7250    0.8478    0.0000 C   0  0  0  0  0  0  0  0  0  0  0  0
   -0.4198    1.5869    0.0000 C   0  0  0  0  0  0  0  0  0  0  0  0
   -0.4072    3.0868    0.0000 C   0  0  0  0  0  0  0  0  0  0  0  0
    0.8730    0.8261    0.0000 C   0  0  0  0  0  0  0  0  0  0  0  0
    0.8604   -0.6739    0.0000 C   0  0  0  0  0  0  0  0  0  0  0  0
    2.1532   -1.4347    0.0000 C   0  0  0  0  0  0  0  0  0  0  0  0
    2.1406   -2.9346    0.0000 O   0  0  0  0  0  0  0  0  0  0  0  0
    3.4584   -0.6956    0.0000 O   0  0  0  0  0  0  0  0  0  0  0  0
    3.4709    0.8044    0.0000 C   0  0  0  0  0  0  0  0  0  0  0  0
    4.7762    1.5435    0.0000 C   0  0  0  0  0  0  0  0  0  0  0  0
    2.1782    1.5652    0.0000 C   0  0  0  0  0  0  0  0  0  0  0  0
   -0.4448   -1.4130    0.0000 C   0  0  0  0  0  0  0  0  0  0  0  0
   -0.4574   -2.9129    0.0000 O   0  0  0  0  0  0  0  0  0  0  0  0
   -1.7376   -0.6522    0.0000 C   0  0  0  0  0  0  0  0  0  0  0  0
   -3.0428   -1.3913    0.0000 O   0  0  0  0  0  0  0  0  0  0  0  0
   -4.3355   -0.6305    0.0000 C   0  0  0  0  0  0  0  0  0  0  0  0
  1  2  1  0
  2  3  1  0
  3  4  2  0
  4  5  1  0
  4  6  1  0
  6  7  2  0
  7  8  1  0
  8  9  2  0
  8 10  1  0
 10 11  1  0
 11 12  1  1
 11 13  1  0
  7 14  1  0
 14 15  1  0
 14 16  2  0
 16 17  1  0
 17 18  1  0
 16  3  1  0
 13  6  1  0
M  END
>  <identifier>  (1241) 
CNP0080644.1

>  <canonical_smiles>  (1241) 
COC1=C(C)C2=C(C(=O)O[C@H](C)C2)C(O)=C1OC

>  <standard_inchi>  (1241) 
InChI=1S/C13H16O5/c1-6-5-8-7(2)11(16-3)12(17-4)10(14)9(8)13(15)18-6/h6,14H,5H2,1-4H3/t6-/m1/s1

>  <standard_inchi_key>  (1241) 
LVZVMJLTKBFNHU-ZCFIWIBFSA-N

>  <name>  (1241) 
nan

>  <iupac_name>  (1241) 
(3~{R})-8-hydroxy-6,7-dimethoxy-3,5-dimethyl-isochroman-1-one

>  <annotation_level>  (1241) 
4

>  <total_atom_count>  (1241) 
34

>  <heavy_atom_count>  (1241) 
18

>  <molecular_weight>  (1241) 
252.27

>  <exact_molecular_weight>  (1241) 
252.09977

>  <molecular_formula>  (1241) 
C13H16O5

>  <alogp>  (1241) 
1.82

>  <topological_polar_surface_area>  (1241) 
64.99

>  <rotatable_bond_count>  (1241) 
2

>  <hydrogen_bond_acceptors>  (1241) 
5

>  <hydrogen_bond_donors>  (1241) 
1

>  <hydrogen_bond_acceptors_lipinski>  (1241) 
5

>  <hydrogen_bond_donors_lipinski>  (1241) 
1

>  <lipinski_rule_of_five_violations>  (1241) 
0

>  <aromatic_rings_count>  (1241) 
1

>  <qed_drug_likeliness>  (1241) 
0.81

>  <formal_charge>  (1241) 
0

>  <fractioncsp3>  (1241) 
0.46

>  <number_of_minimal_rings>  (1241) 
2

>  <van_der_walls_volume>  (1241) 
nan

>  <contains_sugar>  (1241) 
False

>  <contains_ring_sugars>  (1241) 
False

>  <contains_linear_sugars>  (1241) 
False

>  <murcko_framework>  (1241) 
O1Cc2ccccc2CC1

>  <np_likeness>  (1241) 
1.68

>  <chemical_class>  (1241) 
Benzopyrans

>  <chemical_sub_class>  (1241) 
2-benzopyrans

>  <chemical_super_class>  (1241) 
Organoheterocyclic compounds

>  <direct_parent_classification>  (1241) 
2-benzopyrans

>  <np_classifier_pathway>  (1241) 
Shikimates and Phenylpropanoids

>  <np_classifier_superclass>  (1241) 
Coumarins

>  <np_classifier_class>  (1241) 
Isocoumarins

>  <np_classifier_is_glycoside>  (1241) 
False

>  <organisms>  (1241) 
Theobroma grandiflorum|Theobroma speciosum|Theobroma subincanum|Theobroma sylvestre

>  <collections>  (1241) 
Latin America dataset|NuBBEDB|WikiData Natural Products|ZINC NP

>  <dois>  (1241) 
10.1016/S0031-9422(00)89350-4

>  <synonyms>  (1241) 
(3R)-8-Hydroxy-67-dimethoxy-35-dimethyl-34-dihydroisocoumarin

>  <cas>  (1241) 
nan

$$$$

     RDKit          2D

 29 33  0  0  0  0  0  0  0  0999 V2000
   -7.7538   -1.5997    0.0000 C   0  0  0  0  0  0  0  0  0  0  0  0
   -7.0091   -0.2976    0.0000 O   0  0  0  0  0  0  0  0  0  0  0  0
   -5.5091   -0.2914    0.0000 C   0  0  0  0  0  0  0  0  0  0  0  0
   -4.7538   -1.5873    0.0000 C   0  0  0  0  0  0  0  0  0  0  0  0
   -3.2538   -1.5812    0.0000 C   0  0  0  0  0  0  0  0  0  0  0  0
   -2.5092   -0.2791    0.0000 C   0  0  0  0  0  0  0  0  0  0  0  0
   -3.2645    1.0169    0.0000 C   0  0  0  0  0  0  0  0  0  0  0  0
   -4.7645    1.0107    0.0000 C   0  0  0  0  0  0  0  0  0  0  0  0
   -5.5198    2.3067    0.0000 O   0  0  0  0  0  0  0  0  0  0  0  0
   -4.7751    3.6088    0.0000 C   0  0  0  0  0  0  0  0  0  0  0  0
   -1.0092   -0.2729    0.0000 C   0  0  0  0  0  0  0  0  0  0  0  0
   -0.2538   -1.5689    0.0000 C   0  0  0  0  0  0  0  0  0  0  0  0
   -0.9985   -2.8710    0.0000 C   0  0  0  0  0  0  0  0  0  0  0  0
   -2.4985   -2.8771    0.0000 O   0  0  0  0  0  0  0  0  0  0  0  0
    1.2462   -1.5627    0.0000 O   0  0  0  0  0  0  0  0  0  0  0  0
    1.9908   -0.2606    0.0000 C   0  0  0  0  0  0  0  0  0  0  0  0
    3.4908   -0.2544    0.0000 C   0  0  0  0  0  0  0  0  0  0  0  0
    4.2461   -1.5504    0.0000 C   0  0  0  0  0  0  0  0  0  0  0  0
    5.7461   -1.5442    0.0000 C   0  0  0  0  0  0  0  0  0  0  0  0
    6.4908   -0.2421    0.0000 C   0  0  0  0  0  0  0  0  0  0  0  0
    7.6359    0.7268    0.0000 C   0  0  0  0  0  0  0  0  0  0  0  0
    7.6438   -1.2016    0.0000 C   0  0  0  0  0  0  0  0  0  0  0  0
    5.7354    1.0538    0.0000 O   0  0  0  0  0  0  0  0  0  0  0  0
    4.2355    1.0477    0.0000 C   0  0  0  0  0  0  0  0  0  0  0  0
    3.4801    2.3436    0.0000 C   0  0  0  0  0  0  0  0  0  0  0  0
    1.9801    2.3375    0.0000 C   0  0  0  0  0  0  0  0  0  0  0  0
    1.2355    1.0354    0.0000 C   0  0  0  0  0  0  0  0  0  0  0  0
   -0.2645    1.0292    0.0000 C   0  0  0  0  0  0  0  0  0  0  0  0
   -1.0198    2.3251    0.0000 O   0  0  0  0  0  0  0  0  0  0  0  0
  1  2  1  0
  2  3  1  0
  3  4  2  0
  4  5  1  0
  5  6  2  0
  6  7  1  0
  7  8  2  0
  8  9  1  0
  9 10  1  0
  6 11  1  0
 11 12  2  0
 12 13  1  0
 13 14  1  0
 12 15  1  0
 15 16  1  0
 16 17  2  0
 17 18  1  0
 18 19  2  0
 19 20  1  0
 20 21  1  0
 20 22  1  0
 20 23  1  0
 23 24  1  0
 24 25  2  0
 25 26  1  0
 26 27  2  0
 27 28  1  0
 28 29  2  0
  8  3  1  0
 28 11  1  0
 14  5  1  0
 27 16  1  0
 24 17  1  0
M  END
>  <identifier>  (1242) 
CNP0296914.0

>  <canonical_smiles>  (1242) 
COC1=CC2=C(C=C1OC)C1=C(CO2)OC2=C3C=CC(C)(C)OC3=CC=C2C1=O

>  <standard_inchi>  (1242) 
InChI=1S/C23H20O6/c1-23(2)8-7-12-15(29-23)6-5-13-21(24)20-14-9-17(25-3)18(26-4)10-16(14)27-11-19(20)28-22(12)13/h5-10H,11H2,1-4H3

>  <standard_inchi_key>  (1242) 
NGQVFILFHVPLFE-UHFFFAOYSA-N

>  <name>  (1242) 
Dehydrodeguelin

>  <iupac_name>  (1242) 
17,18-dimethoxy-7,7-dimethyl-2,8,21-trioxapentacyclo[12.8.0.0^{3,12}.0^{4,9}.0^{15,20}]docosa-1(14),3,5,9,11,15(20),16,18-octaen-13-one

>  <annotation_level>  (1242) 
5

>  <total_atom_count>  (1242) 
49

>  <heavy_atom_count>  (1242) 
29

>  <molecular_weight>  (1242) 
392.41

>  <exact_molecular_weight>  (1242) 
392.12599

>  <molecular_formula>  (1242) 
C23H20O6

>  <alogp>  (1242) 
4.55

>  <topological_polar_surface_area>  (1242) 
67.13

>  <rotatable_bond_count>  (1242) 
2

>  <hydrogen_bond_acceptors>  (1242) 
6

>  <hydrogen_bond_donors>  (1242) 
0

>  <hydrogen_bond_acceptors_lipinski>  (1242) 
6

>  <hydrogen_bond_donors_lipinski>  (1242) 
0

>  <lipinski_rule_of_five_violations>  (1242) 
0

>  <aromatic_rings_count>  (1242) 
3

>  <qed_drug_likeliness>  (1242) 
0.64

>  <formal_charge>  (1242) 
0

>  <fractioncsp3>  (1242) 
0.26

>  <number_of_minimal_rings>  (1242) 
5

>  <van_der_walls_volume>  (1242) 
335.60

>  <contains_sugar>  (1242) 
False

>  <contains_ring_sugars>  (1242) 
False

>  <contains_linear_sugars>  (1242) 
False

>  <murcko_framework>  (1242) 
O1c2c3C=CCOc3ccc2CC4=C1COc5ccccc54

>  <np_likeness>  (1242) 
1.89

>  <chemical_class>  (1242) 
Isoflavonoids

>  <chemical_sub_class>  (1242) 
Rotenoids

>  <chemical_super_class>  (1242) 
Phenylpropanoids and polyketides

>  <direct_parent_classification>  (1242) 
Rotenones

>  <np_classifier_pathway>  (1242) 
Shikimates and Phenylpropanoids

>  <np_classifier_superclass>  (1242) 
Isoflavonoids

>  <np_classifier_class>  (1242) 
Rotenoids

>  <np_classifier_is_glycoside>  (1242) 
False

>  <organisms>  (1242) 
Achillea cretica|Allium macrostemon|Amorpha fruticosa|Cordia americana|Crotalaria paniculata|Curcuma longa|Curcuma zedoaria|Derris|Derris Elliptica|Derris canarensis|Derris cuneifolia|Derris elliptica|Derris malaccensis|Derris montana|Derris oblonga|Derris ovalifolia|Derris trifoliata|Eupatorium riparium|Geijera parviflora|Geum japonicum|Glycosmis montana|Indigofera tinctoria|Lndigofera tinctoria|Luffa operculata|Millettia duchesnei|Millettia dura|Pedicularis semitorta|Sarcolobus globosus|Scopolia japonica|Spiraea japonica|Tephrosia Purpurea|Tephrosia candida|Tephrosia purpurea|Tephrosia tinctoria|Tephrosia vogelii|Tricholoma panaeolum|derris malaccensis plain

>  <collections>  (1242) 
ANPDB|Australian natural products|CMAUP (cCollective molecular activities of useful plants)|ETM (Ethiopian Traditional Medicine) DB|KNApSaCK|Latin America dataset|NANPDB (Natural Products from Northern African Sources)|NPASS|NPEdia|NuBBEDB|Super Natural II|TCMDB-Taiwan (Traditional Chinese Medicine database)|TCMID (Traditional Chinese Medicine Integrated Database)|TIPdb (database of Taiwan indigenous plants)|UNPD (Universal Natural Products Database)|VietHerb|WikiData Natural Products|ZINC NP

>  <dois>  (1242) 
10.1002/(SICI)1521-4168(19980901)21:9<513::AID-JHRC513>3.0.CO,2-F|10.1002/ARDP.19352730102|10.1002/CHIN.200725200|10.1016/J.PHYTOCHEM.2006.01.002|10.1016/J.PHYTOCHEM.2007.05.038|10.1016/S0031-9422(97)00405-6|10.1016/s0031-9422(97)00405-6|10.1021/NP010126P|10.1055/S-2005-864182|10.1080/14786410903306126|10.1139/V07-120|10.3987/COM-92-6288|10.3987/COM-95-7069

>  <synonyms>  (1242) 
17,18-dimethoxy-7,7-dimethyl-2,8,21-trioxapentacyclo[12.8.0.0(3),(1)(2).0?,?.0(1)?,(2)?]docosa-1(14),3,5,9,11,15(20),16,18-octaen-13-one|17,18-dimethoxy-7,7-dimethyl-2,8,21-trioxapentacyclo[12.8.0.03,12.04,9.015,20]docosa-1(14),3(12),4(9),5,10,15,17,19-octaen-13-one|3466-23-7|3H-Bis(1)benzopyrano(3,4-b:6',5'-e)pyran-7(13H)-one, 9,10-dimethoxy-3,3-dimethyl-|6a12a-dehydro-deguelin|9,10-Dimethoxy-3,3-dimethyl-3H-chromeno[3,4-b]pyrano[2,3-h]chromen-7-(13H)-one|AKOS032948910|B0005-180586|CHEBI:186773|CHEMBL465673|CS-0024102|DTXSID60188217|Dehydrodeguelin|Dehydrodeguelin,7a,13a-Didehydrodeguelin|FS-9437|HY-N3712|LMPK12060068|NGQVFILFHVPLFE-UHFFFAOYSA-N|NSC793885|SCHEMBL16694597

>  <cas>  (1242) 
3466-23-7

$$$$

     RDKit          2D

 24 26  0  0  0  0  0  0  0  0999 V2000
   -7.1096   -0.1127    0.0000 C   0  0  0  0  0  0  0  0  0  0  0  0
   -5.9603   -1.0766    0.0000 O   0  0  0  0  0  0  0  0  0  0  0  0
   -4.5508   -0.5632    0.0000 C   0  0  0  0  0  0  0  0  0  0  0  0
   -4.2907    0.9141    0.0000 C   0  0  0  0  0  0  0  0  0  0  0  0
   -2.8813    1.4275    0.0000 C   0  0  0  0  0  0  0  0  0  0  0  0
   -2.6212    2.9048    0.0000 C   0  0  0  0  0  0  0  0  0  0  0  0
   -1.7320    0.4636    0.0000 C   0  0  0  0  0  0  0  0  0  0  0  0
   -0.3226    0.9770    0.0000 C   0  0  0  0  0  0  0  0  0  0  0  0
   -0.0625    2.4543    0.0000 O   0  0  0  0  0  0  0  0  0  0  0  0
    0.8267    0.0131    0.0000 C   0  0  0  0  0  0  0  0  0  0  0  0
    2.2361    0.5265    0.0000 C   0  0  0  0  0  0  0  0  0  0  0  0
    2.4962    2.0038    0.0000 O   0  0  0  0  0  0  0  0  0  0  0  0
    3.9056    2.5172    0.0000 C   0  0  0  0  0  0  0  0  0  0  0  0
    4.1657    3.9944    0.0000 C   0  0  0  0  0  0  0  0  0  0  0  0
    5.0549    1.5533    0.0000 O   0  0  0  0  0  0  0  0  0  0  0  0
    3.3854   -0.4374    0.0000 C   0  0  0  0  0  0  0  0  0  0  0  0
    3.1253   -1.9147    0.0000 C   0  0  0  0  0  0  0  0  0  0  0  0
    4.2746   -2.8786    0.0000 O   0  0  0  0  0  0  0  0  0  0  0  0
    4.0145   -4.3558    0.0000 C   0  0  0  0  0  0  0  0  0  0  0  0
    1.7159   -2.4281    0.0000 C   0  0  0  0  0  0  0  0  0  0  0  0
    0.5666   -1.4642    0.0000 C   0  0  0  0  0  0  0  0  0  0  0  0
   -0.8428   -1.9776    0.0000 O   0  0  0  0  0  0  0  0  0  0  0  0
   -1.9921   -1.0137    0.0000 C   0  0  0  0  0  0  0  0  0  0  0  0
   -3.4015   -1.5271    0.0000 C   0  0  0  0  0  0  0  0  0  0  0  0
  1  2  1  0
  2  3  1  0
  3  4  2  0
  4  5  1  0
  5  6  1  0
  5  7  2  0
  7  8  1  0
  8  9  2  0
  8 10  1  0
 10 11  2  0
 11 12  1  0
 12 13  1  0
 13 14  1  0
 13 15  2  0
 11 16  1  0
 16 17  2  0
 17 18  1  0
 18 19  1  0
 17 20  1  0
 20 21  2  0
 21 22  1  0
 22 23  1  0
 23 24  2  0
 24  3  1  0
 23  7  1  0
 21 10  1  0
M  END
>  <identifier>  (1243) 
CNP0080587.0

>  <canonical_smiles>  (1243) 
COC1=CC(C)=C2C(=O)C3=C(OC(C)=O)C=C(OC)C=C3OC2=C1

>  <standard_inchi>  (1243) 
InChI=1S/C18H16O6/c1-9-5-11(21-3)6-13-16(9)18(20)17-14(23-10(2)19)7-12(22-4)8-15(17)24-13/h5-8H,1-4H3

>  <standard_inchi_key>  (1243) 
UYQKCWXNGHXDPJ-UHFFFAOYSA-N

>  <name>  (1243) 
nan

>  <iupac_name>  (1243) 
(3,6-dimethoxy-8-methyl-9-oxo-xanthen-1-yl) acetate

>  <annotation_level>  (1243) 
4

>  <total_atom_count>  (1243) 
40

>  <heavy_atom_count>  (1243) 
24

>  <molecular_weight>  (1243) 
328.32

>  <exact_molecular_weight>  (1243) 
328.09469

>  <molecular_formula>  (1243) 
C18H16O6

>  <alogp>  (1243) 
3.20

>  <topological_polar_surface_area>  (1243) 
74.97

>  <rotatable_bond_count>  (1243) 
3

>  <hydrogen_bond_acceptors>  (1243) 
6

>  <hydrogen_bond_donors>  (1243) 
0

>  <hydrogen_bond_acceptors_lipinski>  (1243) 
6

>  <hydrogen_bond_donors_lipinski>  (1243) 
0

>  <lipinski_rule_of_five_violations>  (1243) 
0

>  <aromatic_rings_count>  (1243) 
3

>  <qed_drug_likeliness>  (1243) 
0.42

>  <formal_charge>  (1243) 
0

>  <fractioncsp3>  (1243) 
0.22

>  <number_of_minimal_rings>  (1243) 
3

>  <van_der_walls_volume>  (1243) 
nan

>  <contains_sugar>  (1243) 
False

>  <contains_ring_sugars>  (1243) 
False

>  <contains_linear_sugars>  (1243) 
False

>  <murcko_framework>  (1243) 
O1c2ccccc2Cc3ccccc13

>  <np_likeness>  (1243) 
0.71

>  <chemical_class>  (1243) 
Benzopyrans

>  <chemical_sub_class>  (1243) 
1-benzopyrans

>  <chemical_super_class>  (1243) 
Organoheterocyclic compounds

>  <direct_parent_classification>  (1243) 
Xanthones

>  <np_classifier_pathway>  (1243) 
Polyketides

>  <np_classifier_superclass>  (1243) 
Xanthones

>  <np_classifier_class>  (1243) 
Methyl xanthones

>  <np_classifier_is_glycoside>  (1243) 
False

>  <organisms>  (1243) 
Aspidosperma formosanum

>  <collections>  (1243) 
Latin America dataset|NuBBEDB|WikiData Natural Products|ZINC NP

>  <dois>  (1243) 
10.1016/S0031-9422(00)84426-X

>  <synonyms>  (1243) 
36-dimethoxy-8-methyl-9-oxo-9H-xanthen-1-yl acetate

>  <cas>  (1243) 
nan

$$$$

     RDKit          2D

 15 16  0  0  0  0  0  0  0  0999 V2000
   -3.6581   -1.7603    0.0000 C   0  0  0  0  0  0  0  0  0  0  0  0
   -3.2919   -0.3056    0.0000 C   0  0  0  0  0  0  0  0  0  0  0  0
   -4.3685    0.7388    0.0000 C   0  0  0  0  0  0  0  0  0  0  0  0
   -1.8491    0.1046    0.0000 C   0  0  0  0  0  0  0  0  0  0  0  0
   -1.4829    1.5592    0.0000 C   0  0  0  0  0  0  0  0  0  0  0  0
   -0.0401    1.9694    0.0000 C   0  0  0  0  0  0  0  0  0  0  0  0
    1.0366    0.9249    0.0000 C   0  0  0  0  0  0  0  0  0  0  0  0
    1.4028    2.3796    0.0000 C   0  0  0  0  0  0  0  0  0  0  0  0
    2.4794    1.3351    0.0000 C   0  0  0  0  0  0  0  0  0  0  0  0
    3.5561    0.2907    0.0000 C   0  0  0  0  0  0  0  0  0  0  0  0
    3.1899   -1.1639    0.0000 C   0  0  0  0  0  0  0  0  0  0  0  0
    1.7470   -1.5741    0.0000 C   0  0  0  0  0  0  0  0  0  0  0  0
    1.3809   -3.0287    0.0000 C   0  0  0  0  0  0  0  0  0  0  0  0
    0.6704   -0.5297    0.0000 C   0  0  0  0  0  0  0  0  0  0  0  0
   -0.7724   -0.9399    0.0000 C   0  0  0  0  0  0  0  0  0  0  0  0
  1  2  2  0
  2  3  1  0
  4  2  1  1
  4  5  1  0
  5  6  1  0
  6  7  1  0
  7  8  1  1
  7  9  1  0
  9 10  1  0
 10 11  1  0
 11 12  2  0
 12 13  1  0
 12 14  1  0
 14 15  1  1
 15  4  1  0
 14  7  1  0
M  END
>  <identifier>  (1244) 
CNP0141319.7

>  <canonical_smiles>  (1244) 
C=C(C)[C@H]1CC[C@]2(C)CCC=C(C)[C@H]2C1

>  <standard_inchi>  (1244) 
InChI=1S/C15H24/c1-11(2)13-7-9-15(4)8-5-6-12(3)14(15)10-13/h6,13-14H,1,5,7-10H2,2-4H3/t13-,14+,15-/m0/s1

>  <standard_inchi_key>  (1244) 
OZQAPQSEYFAMCY-ZNMIVQPWSA-N

>  <name>  (1244) 
nan

>  <iupac_name>  (1244) 
(3~{S},4~{a}~{S},8~{a}~{S})-3-isopropenyl-5,8~{a}-dimethyl-2,3,4,4~{a},7,8-hexahydro-1~{H}-naphthalene

>  <annotation_level>  (1244) 
4

>  <total_atom_count>  (1244) 
39

>  <heavy_atom_count>  (1244) 
15

>  <molecular_weight>  (1244) 
204.36

>  <exact_molecular_weight>  (1244) 
204.1878

>  <molecular_formula>  (1244) 
C15H24

>  <alogp>  (1244) 
4.73

>  <topological_polar_surface_area>  (1244) 
0.00

>  <rotatable_bond_count>  (1244) 
1

>  <hydrogen_bond_acceptors>  (1244) 
0

>  <hydrogen_bond_donors>  (1244) 
0

>  <hydrogen_bond_acceptors_lipinski>  (1244) 
0

>  <hydrogen_bond_donors_lipinski>  (1244) 
0

>  <lipinski_rule_of_five_violations>  (1244) 
0

>  <aromatic_rings_count>  (1244) 
0

>  <qed_drug_likeliness>  (1244) 
0.54

>  <formal_charge>  (1244) 
0

>  <fractioncsp3>  (1244) 
0.73

>  <number_of_minimal_rings>  (1244) 
2

>  <van_der_walls_volume>  (1244) 
225.56

>  <contains_sugar>  (1244) 
False

>  <contains_ring_sugars>  (1244) 
False

>  <contains_linear_sugars>  (1244) 
False

>  <murcko_framework>  (1244) 
C1=CC2CCCCC2CC1

>  <np_likeness>  (1244) 
3.25

>  <chemical_class>  (1244) 
Prenol lipids

>  <chemical_sub_class>  (1244) 
Sesquiterpenoids

>  <chemical_super_class>  (1244) 
Lipids and lipid-like molecules

>  <direct_parent_classification>  (1244) 
Eudesmane, isoeudesmane or cycloeudesmane sesquiterpenoids

>  <np_classifier_pathway>  (1244) 
Terpenoids

>  <np_classifier_superclass>  (1244) 
Sesquiterpenoids

>  <np_classifier_class>  (1244) 
Eudesmane sesquiterpenoids

>  <np_classifier_is_glycoside>  (1244) 
False

>  <organisms>  (1244) 
Cedrela odorata|Coronidium glutinosum|Diplophyllum albicans|Gymnomitrion alpinum|Helichrysum pendulum|Hyalosperma glutinosum|Marsupella alpina|Trilophozia quinquedentata|Tritomaria quinquedentata

>  <collections>  (1244) 
KNApSaCK|Latin America dataset|NuBBEDB|Super Natural II|TCMDB-Taiwan (Traditional Chinese Medicine database)|WikiData Natural Products|ZINC NP

>  <dois>  (1244) 
10.1016/0031-9422(89)80045-7|10.1016/0040-4020(77)80301-3|10.1016/S0031-9422(02)00214-5|10.1016/S0031-9422(99)00383-0|10.1590/S0103-50532000000600012

>  <synonyms>  (1244) 
(+)-alpha-Selinene|\u221a\u00e9\u00ac\u00b1-Selinene

>  <cas>  (1244) 
nan

$$$$

     RDKit          2D

 16 17  0  0  0  0  0  0  0  0999 V2000
   -4.9410    0.4251    0.0000 C   0  0  0  0  0  0  0  0  0  0  0  0
   -3.5425    0.9674    0.0000 O   0  0  0  0  0  0  0  0  0  0  0  0
   -2.3736    0.0274    0.0000 C   0  0  0  0  0  0  0  0  0  0  0  0
   -2.6032   -1.4549    0.0000 O   0  0  0  0  0  0  0  0  0  0  0  0
   -0.9750    0.5697    0.0000 C   0  0  0  0  0  0  0  0  0  0  0  0
   -0.7454    2.0520    0.0000 C   0  0  0  0  0  0  0  0  0  0  0  0
    0.6532    2.5943    0.0000 O   0  0  0  0  0  0  0  0  0  0  0  0
    1.8221    1.6542    0.0000 C   0  0  0  0  0  0  0  0  0  0  0  0
    3.2206    2.1965    0.0000 O   0  0  0  0  0  0  0  0  0  0  0  0
    1.5924    0.1719    0.0000 C   0  0  0  0  0  0  0  0  0  0  0  0
    0.1939   -0.3704    0.0000 C   0  0  0  0  0  0  0  0  0  0  0  0
    0.2775   -1.8681    0.0000 C   0  0  0  0  0  0  0  0  0  0  0  0
   -0.8851   -2.8160    0.0000 O   0  0  0  0  0  0  0  0  0  0  0  0
    1.7277   -2.2514    0.0000 C   0  0  0  0  0  0  0  0  0  0  0  0
    2.5404   -0.9906    0.0000 C   0  0  0  0  0  0  0  0  0  0  0  0
    4.0380   -0.9070    0.0000 C   0  0  0  0  0  0  0  0  0  0  0  0
  1  2  1  0
  2  3  1  0
  3  4  2  0
  3  5  1  0
  5  6  2  0
  6  7  1  0
  7  8  1  0
  8  9  1  6
 10  8  1  6
 10 11  1  0
 11 12  1  0
 12 13  1  1
 12 14  1  0
 14 15  1  0
 15 16  1  1
 11  5  1  6
 15 10  1  0
M  END
>  <identifier>  (1245) 
CNP0111561.2

>  <canonical_smiles>  (1245) 
COC(=O)C1=CO[C@H](O)[C@H]2[C@@H]1[C@H](O)C[C@@H]2C

>  <standard_inchi>  (1245) 
InChI=1S/C11H16O5/c1-5-3-7(12)9-6(10(13)15-2)4-16-11(14)8(5)9/h4-5,7-9,11-12,14H,3H2,1-2H3/t5-,7+,8+,9-,11-/m0/s1

>  <standard_inchi_key>  (1245) 
GDUXCCYSAFZLAH-NEPJANSGSA-N

>  <name>  (1245) 
nan

>  <iupac_name>  (1245) 
methyl (1~{S},4~{a}~{S},5~{R},7~{S},7~{a}~{R})-1,5-dihydroxy-7-methyl-1,4~{a},5,6,7,7~{a}-hexahydrocyclopenta[c]pyran-4-carboxylate

>  <annotation_level>  (1245) 
5

>  <total_atom_count>  (1245) 
32

>  <heavy_atom_count>  (1245) 
16

>  <molecular_weight>  (1245) 
228.24

>  <exact_molecular_weight>  (1245) 
228.09977

>  <molecular_formula>  (1245) 
C11H16O5

>  <alogp>  (1245) 
0.02

>  <topological_polar_surface_area>  (1245) 
75.99

>  <rotatable_bond_count>  (1245) 
1

>  <hydrogen_bond_acceptors>  (1245) 
5

>  <hydrogen_bond_donors>  (1245) 
2

>  <hydrogen_bond_acceptors_lipinski>  (1245) 
5

>  <hydrogen_bond_donors_lipinski>  (1245) 
2

>  <lipinski_rule_of_five_violations>  (1245) 
0

>  <aromatic_rings_count>  (1245) 
0

>  <qed_drug_likeliness>  (1245) 
0.62

>  <formal_charge>  (1245) 
0

>  <fractioncsp3>  (1245) 
0.73

>  <number_of_minimal_rings>  (1245) 
2

>  <van_der_walls_volume>  (1245) 
204.02

>  <contains_sugar>  (1245) 
False

>  <contains_ring_sugars>  (1245) 
False

>  <contains_linear_sugars>  (1245) 
False

>  <murcko_framework>  (1245) 
O1C=CC2CCCC2C1

>  <np_likeness>  (1245) 
2.72

>  <chemical_class>  (1245) 
Prenol lipids

>  <chemical_sub_class>  (1245) 
Monoterpenoids

>  <chemical_super_class>  (1245) 
Lipids and lipid-like molecules

>  <direct_parent_classification>  (1245) 
Iridoids and derivatives

>  <np_classifier_pathway>  (1245) 
Terpenoids

>  <np_classifier_superclass>  (1245) 
Monoterpenoids

>  <np_classifier_class>  (1245) 
Iridoids monoterpenoids

>  <np_classifier_is_glycoside>  (1245) 
True

>  <organisms>  (1245) 
Alibertia macrophylla|Cordiera macrophylla

>  <collections>  (1245) 
ChemSpider NPs|Latin America dataset|NuBBEDB|Super Natural II|WikiData Natural Products|ZINC NP

>  <dois>  (1245) 
10.1016/0031-9422(92)83701-Y

>  <synonyms>  (1245) 
1\u221a\u00e9\u00ac\u00b1-Hydroxydihydrocornin aglycone

>  <cas>  (1245) 
nan

$$$$

     RDKit          2D

 21 22  0  0  0  0  0  0  0  0999 V2000
    2.4857    4.2800    0.0000 C   0  0  0  0  0  0  0  0  0  0  0  0
    1.0658    3.7962    0.0000 O   0  0  0  0  0  0  0  0  0  0  0  0
    0.7749    2.3247    0.0000 C   0  0  0  0  0  0  0  0  0  0  0  0
   -0.6449    1.8409    0.0000 C   0  0  0  0  0  0  0  0  0  0  0  0
   -0.9359    0.3694    0.0000 C   0  0  0  0  0  0  0  0  0  0  0  0
   -2.3557   -0.1144    0.0000 C   0  0  0  0  0  0  0  0  0  0  0  0
   -3.4846    0.8733    0.0000 C   0  0  0  0  0  0  0  0  0  0  0  0
   -4.9044    0.3895    0.0000 C   0  0  0  0  0  0  0  0  0  0  0  0
   -5.1954   -1.0820    0.0000 O   0  0  0  0  0  0  0  0  0  0  0  0
   -6.0334    1.3772    0.0000 O   0  0  0  0  0  0  0  0  0  0  0  0
    0.1930   -0.6183    0.0000 C   0  0  0  0  0  0  0  0  0  0  0  0
   -0.0979   -2.0898    0.0000 O   0  0  0  0  0  0  0  0  0  0  0  0
    1.0310   -3.0775    0.0000 C   0  0  0  0  0  0  0  0  0  0  0  0
    1.7540   -4.3918    0.0000 C   0  0  0  0  0  0  0  0  0  0  0  0
   -0.1377   -4.0178    0.0000 C   0  0  0  0  0  0  0  0  0  0  0  0
    2.4509   -2.5937    0.0000 C   0  0  0  0  0  0  0  0  0  0  0  0
    2.7418   -1.1222    0.0000 C   0  0  0  0  0  0  0  0  0  0  0  0
    1.6129   -0.1345    0.0000 C   0  0  0  0  0  0  0  0  0  0  0  0
    1.9038    1.3370    0.0000 C   0  0  0  0  0  0  0  0  0  0  0  0
    3.3236    1.8208    0.0000 O   0  0  0  0  0  0  0  0  0  0  0  0
    4.4525    0.8331    0.0000 C   0  0  0  0  0  0  0  0  0  0  0  0
  1  2  1  0
  2  3  1  0
  3  4  2  0
  4  5  1  0
  5  6  1  0
  6  7  1  0
  7  8  1  0
  8  9  2  0
  8 10  1  0
  5 11  2  0
 11 12  1  0
 12 13  1  0
 13 14  1  0
 13 15  1  0
 13 16  1  0
 16 17  2  0
 17 18  1  0
 18 19  2  0
 19 20  1  0
 20 21  1  0
 19  3  1  0
 18 11  1  0
M  END
>  <identifier>  (1246) 
CNP0173492.0

>  <canonical_smiles>  (1246) 
COC1=CC(CCC(=O)O)=C2OC(C)(C)C=CC2=C1OC

>  <standard_inchi>  (1246) 
InChI=1S/C16H20O5/c1-16(2)8-7-11-14(21-16)10(5-6-13(17)18)9-12(19-3)15(11)20-4/h7-9H,5-6H2,1-4H3,(H,17,18)

>  <standard_inchi_key>  (1246) 
UHPCEPHAFXEIQV-UHFFFAOYSA-N

>  <name>  (1246) 
3-(5,6-dimethoxy-2,2-dimethyl-chromen-8-yl)propanoic acid

>  <iupac_name>  (1246) 
3-(5,6-dimethoxy-2,2-dimethyl-chromen-8-yl)propanoic acid

>  <annotation_level>  (1246) 
5

>  <total_atom_count>  (1246) 
41

>  <heavy_atom_count>  (1246) 
21

>  <molecular_weight>  (1246) 
292.33

>  <exact_molecular_weight>  (1246) 
292.13107

>  <molecular_formula>  (1246) 
C16H20O5

>  <alogp>  (1246) 
2.91

>  <topological_polar_surface_area>  (1246) 
64.99

>  <rotatable_bond_count>  (1246) 
5

>  <hydrogen_bond_acceptors>  (1246) 
4

>  <hydrogen_bond_donors>  (1246) 
1

>  <hydrogen_bond_acceptors_lipinski>  (1246) 
4

>  <hydrogen_bond_donors_lipinski>  (1246) 
1

>  <lipinski_rule_of_five_violations>  (1246) 
0

>  <aromatic_rings_count>  (1246) 
1

>  <qed_drug_likeliness>  (1246) 
0.90

>  <formal_charge>  (1246) 
0

>  <fractioncsp3>  (1246) 
0.44

>  <number_of_minimal_rings>  (1246) 
2

>  <van_der_walls_volume>  (1246) 
nan

>  <contains_sugar>  (1246) 
False

>  <contains_ring_sugars>  (1246) 
False

>  <contains_linear_sugars>  (1246) 
False

>  <murcko_framework>  (1246) 
O1c2ccccc2C=CC1

>  <np_likeness>  (1246) 
1.89

>  <chemical_class>  (1246) 
Benzopyrans

>  <chemical_sub_class>  (1246) 
1-benzopyrans

>  <chemical_super_class>  (1246) 
Organoheterocyclic compounds

>  <direct_parent_classification>  (1246) 
2,2-dimethyl-1-benzopyrans

>  <np_classifier_pathway>  (1246) 
Terpenoids

>  <np_classifier_superclass>  (1246) 
Meroterpenoids

>  <np_classifier_class>  (1246) 
Merohemiterpenoids

>  <np_classifier_is_glycoside>  (1246) 
False

>  <organisms>  (1246) 
Hortia brasiliana|Hortia oreadica

>  <collections>  (1246) 
Latin America dataset|NuBBEDB|WikiData Natural Products|ZINC NP

>  <dois>  (1246) 
10.1016/J.BSE.2012.03.005|10.1016/j.bse.2012.03.005

>  <synonyms>  (1246) 
56-dimethoxy-22-dimethyl-2H-1-benzopyran-8-propanoic acid

>  <cas>  (1246) 
nan

$$$$

     RDKit          2D

 29 32  0  0  0  0  0  0  0  0999 V2000
   -4.7033    4.1635    0.0000 C   0  0  0  0  0  0  0  0  0  0  0  0
   -4.4022    2.6941    0.0000 C   0  0  0  0  0  0  0  0  0  0  0  0
   -2.9790    2.2201    0.0000 C   0  0  0  0  0  0  0  0  0  0  0  0
   -5.5242    1.6986    0.0000 C   0  0  0  0  0  0  0  0  0  0  0  0
   -6.9474    2.1725    0.0000 C   0  0  0  0  0  0  0  0  0  0  0  0
   -5.2231    0.2291    0.0000 C   0  0  0  0  0  0  0  0  0  0  0  0
   -3.7999   -0.2448    0.0000 C   0  0  0  0  0  0  0  0  0  0  0  0
   -3.4988   -1.7143    0.0000 C   0  0  0  0  0  0  0  0  0  0  0  0
   -4.6209   -2.7098    0.0000 C   0  0  0  0  0  0  0  0  0  0  0  0
   -2.0757   -2.1883    0.0000 C   0  0  0  0  0  0  0  0  0  0  0  0
   -1.6226   -3.6182    0.0000 C   0  0  0  0  0  0  0  0  0  0  0  0
   -0.1226   -3.6292    0.0000 C   0  0  0  0  0  0  0  0  0  0  0  0
    0.3513   -2.2060    0.0000 C   0  0  0  0  0  0  0  0  0  0  0  0
    1.7261   -1.6060    0.0000 C   0  0  0  0  0  0  0  0  0  0  0  0
    2.9331   -2.4965    0.0000 C   0  0  0  0  0  0  0  0  0  0  0  0
    4.3078   -1.8965    0.0000 C   0  0  0  0  0  0  0  0  0  0  0  0
    4.4756   -0.4059    0.0000 C   0  0  0  0  0  0  0  0  0  0  0  0
    5.8503    0.1942    0.0000 C   0  0  0  0  0  0  0  0  0  0  0  0
    6.0180    1.6848    0.0000 C   0  0  0  0  0  0  0  0  0  0  0  0
    7.3928    2.2848    0.0000 O   0  0  0  0  0  0  0  0  0  0  0  0
    4.8110    2.5753    0.0000 C   0  0  0  0  0  0  0  0  0  0  0  0
    3.4362    1.9753    0.0000 C   0  0  0  0  0  0  0  0  0  0  0  0
    3.2685    0.4847    0.0000 C   0  0  0  0  0  0  0  0  0  0  0  0
    2.0615    1.3752    0.0000 C   0  0  0  0  0  0  0  0  0  0  0  0
    1.8938   -0.1154    0.0000 C   0  0  0  0  0  0  0  0  0  0  0  0
    0.6867    0.7751    0.0000 C   0  0  0  0  0  0  0  0  0  0  0  0
   -0.6880    0.1751    0.0000 C   0  0  0  0  0  0  0  0  0  0  0  0
   -0.8557   -1.3155    0.0000 C   0  0  0  0  0  0  0  0  0  0  0  0
   -2.1492   -0.5560    0.0000 C   0  0  0  0  0  0  0  0  0  0  0  0
  1  2  1  0
  2  3  1  0
  2  4  1  0
  4  5  1  6
  4  6  1  0
  6  7  2  0
  7  8  1  0
  8  9  1  6
  8 10  1  0
 10 11  1  6
 11 12  1  0
 13 12  1  6
 13 14  1  0
 14 15  1  1
 15 16  1  0
 16 17  2  0
 17 18  1  0
 18 19  1  0
 19 20  1  6
 19 21  1  0
 21 22  1  0
 22 23  1  0
 23 24  1  6
 23 25  1  0
 25 26  1  6
 26 27  1  0
 27 28  1  0
 28 29  1  6
 28 10  1  0
 28 13  1  0
 25 14  1  0
 23 17  1  0
M  END
>  <identifier>  (1247) 
CNP0215345.5

>  <canonical_smiles>  (1247) 
CC(C)[C@@H](C)/C=C/[C@@H](C)[C@H]1CC[C@H]2[C@@H]3CC=C4C[C@@H](O)CC[C@]4(C)[C@H]3CC[C@]12C

>  <standard_inchi>  (1247) 
InChI=1S/C28H46O/c1-18(2)19(3)7-8-20(4)24-11-12-25-23-10-9-21-17-22(29)13-15-27(21,5)26(23)14-16-28(24,25)6/h7-9,18-20,22-26,29H,10-17H2,1-6H3/b8-7+/t19-,20+,22-,23-,24+,25-,26-,27-,28+/m0/s1

>  <standard_inchi_key>  (1247) 
OILXMJHPFNGGTO-ZAUYPBDWSA-N

>  <name>  (1247) 
BRASSICASTEROL

>  <iupac_name>  (1247) 
(3~{S},8~{S},9~{S},10~{R},13~{R},14~{S},17~{R})-10,13-dimethyl-17-[(~{E},1~{R},4~{R})-1,4,5-trimethylhex-2-enyl]-2,3,4,7,8,9,11,12,14,15,16,17-dodecahydro-1~{H}-cyclopenta[a]phenanthren-3-ol

>  <annotation_level>  (1247) 
5

>  <total_atom_count>  (1247) 
75

>  <heavy_atom_count>  (1247) 
29

>  <molecular_weight>  (1247) 
398.68

>  <exact_molecular_weight>  (1247) 
398.35487

>  <molecular_formula>  (1247) 
C28H46O

>  <alogp>  (1247) 
7.41

>  <topological_polar_surface_area>  (1247) 
20.23

>  <rotatable_bond_count>  (1247) 
4

>  <hydrogen_bond_acceptors>  (1247) 
1

>  <hydrogen_bond_donors>  (1247) 
1

>  <hydrogen_bond_acceptors_lipinski>  (1247) 
1

>  <hydrogen_bond_donors_lipinski>  (1247) 
1

>  <lipinski_rule_of_five_violations>  (1247) 
1

>  <aromatic_rings_count>  (1247) 
0

>  <qed_drug_likeliness>  (1247) 
0.49

>  <formal_charge>  (1247) 
0

>  <fractioncsp3>  (1247) 
0.86

>  <number_of_minimal_rings>  (1247) 
4

>  <van_der_walls_volume>  (1247) 
423.00

>  <contains_sugar>  (1247) 
False

>  <contains_ring_sugars>  (1247) 
False

>  <contains_linear_sugars>  (1247) 
False

>  <murcko_framework>  (1247) 
C1=C2CCCCC2C3CCC4CCCC4C3C1

>  <np_likeness>  (1247) 
2.84

>  <chemical_class>  (1247) 
Steroids and steroid derivatives

>  <chemical_sub_class>  (1247) 
Ergostane steroids

>  <chemical_super_class>  (1247) 
Lipids and lipid-like molecules

>  <direct_parent_classification>  (1247) 
Ergosterols and derivatives

>  <np_classifier_pathway>  (1247) 
Terpenoids

>  <np_classifier_superclass>  (1247) 
Steroids

>  <np_classifier_class>  (1247) 
Cholestane steroids

>  <np_classifier_is_glycoside>  (1247) 
False

>  <organisms>  (1247) 
Aegiphila obducta|Aegiphila verticillata|Alitta succinea|Alstroemeria aurantiaca|Alstroemeria aurea|Amelanchier canadensis|Amphilectus fucorum|Anabaena cylindrica|Anabaena viguieri|Aplysina fistularis|Arabidopsis thaliana|Axinella aruensis|Axinella cannabina|Baccharoides anthelmintica|Boodleopsis pusilla|Brassica juncea|Brassica rapa|Bryopsis plumosa|Bugula neritina|Canistrocarpus cervicornis|Caulerpa prolifera|Caulerpa racemosa|Celtis australis|Choisya ternata|Cinachyrella alloclada|Cinachyrella schulzei|Cladophora vagabunda|Clerodendrum chinense|Cliona celata|Codium dichotomum|Costus tonkinensis|Cymodocea nodosa|Cystoseira barbata|Cystoseira crinita|Cyttaria johowii|Dermonema abbottiae|Dictyopteris delicatula|Dictyopteris plagiogramma|Dictyota cervicornis|Dictyota dichotoma|Diplopterygium glaucum|Dolichospermum solitarium|Dragmacidon lunaecharta|Duttaphrynus melanostictus|Dysidea fragilis|Echinometra lucunter|Ellisella paraplexauroides|Enteromorpha linza|Eryngium foetidum|Euonymus japonicus|Eutreptia viridis|Gleichenia japonica|Gymnodinium lunula|Hymeniacidon perleve|Ihlea racovitzai|Isochrysis|Juglans regia|Justicia tranquebariensis|Kalanchoe petitiana|Lepidium meyenii|Lepidozia reptans|Leptogorgia piccola|Leptogorgia ruberrima|Leptogorgia rubroflavescens|Leptogorgia viminalis|Leptogorgia violetta|Mannia fragrans|Mirabilis jalapa|Monteverdia aquifolium|Monteverdia ilioppjfeowneviufheiuwfew fgr|Monteverdia truncata|Muricea californica|Nematochrysopsis marina|Nervilia aragoana|Nervilia concolor|Nervilia plicata|Nicotiana tabacum|Nodularia harveyana|Nostoc carneum|Nostoc commune|Octospora coccinea|Paeonia lactiflora|Palythoa caribaeorum|Palythoa variabilis|Petrosia ficiformis|Petrosia weinbergi|Peziza cerea|Phallusia nigra|Phyllidiella pustulosa|Posidonia oceanica|Prorocentrum balticum|Prorocentrum micans|Pyrocystis lunula|Quercus ilex|Ramalina|Ramalina africana|Rhodobryum roseum|Rissoella verruculosa|Salpa thompsoni|Sargassum filipendula|Scarlet firethorn|Sea lettuce|Sea peach|Setaria italica|Sinapis alba|Stereocaulon azoreum|Taphrina deformans|Terfezia|Tornabea scutellifera|Tuber|Tuber indicum|Tuber melanosporum|Ulva fasciata|Ulva linza|Ulva popenguinensis|Ulva rigida|Vanilla planifolia|Vanilla tahitensis|Verongula gigantea|Vitis vinifera|Volkameria inermis|Water net|common sunflower|crumb-of-bread sponge|maize|potato

>  <collections>  (1247) 
CMAUP (cCollective molecular activities of useful plants)|ChEBI NPs|EMNPD|Latin America dataset|NPASS|NuBBEDB|Super Natural II|WikiData Natural Products

>  <dois>  (1247) 
10.1002/(SICI)1099-1573(199902)13:1<78::AID-PTR384>3.0.CO;2-F|10.1002/CHIN.199517179|10.1007/BF00565153|10.1007/BF02535649|10.1007/BF02660305|10.1007/S10565-006-0033-0|10.1007/S10600-010-9670-X|10.1007/S11746-998-0009-8|10.1007/SPRINGERREFERENCE_68783|10.1016/0031-9422(82)83189-0|10.1016/0031-9422(83)80230-1|10.1016/0031-9422(84)83024-1|10.1016/0031-9422(84)83081-2|10.1016/0031-9422(88)80204-8|10.1016/0031-9422(88)80434-5|10.1016/0031-9422(91)80079-G|10.1016/0031-9422(91)83027-I|10.1016/0031-9422(92)80435-H|10.1016/0031-9422(92)83142-L|10.1016/0031-9422(92)83637-E|10.1016/0031-9422(93)80053-U|10.1016/0031-9422(93)85095-9|10.1016/0039-128X(80)90095-1|10.1016/0039-128X(81)90070-2|10.1016/0039-128X(82)90018-6|10.1016/0039-128X(82)90021-6|10.1016/0039-128X(82)90042-3|10.1016/0039-128X(83)90093-4|10.1016/0039-128X(89)90015-9|10.1016/0039-128X(89)90036-6|10.1016/0039-128X(94)90124-4|10.1016/0039-128X(95)00055-U|10.1016/0305-0491(82)90526-0|10.1016/0305-0491(89)90334-9|10.1016/0305-0491(90)90149-N|10.1016/0305-0491(92)90235-J|10.1016/0305-0491(92)90236-K|10.1016/0305-1978(89)90010-0|10.1016/0305-1978(91)90009-O|10.1016/0378-8741(79)90007-2|10.1016/J.BSE.2003.08.010|10.1016/J.FOODRES.2020.109416|10.1016/S0021-9673(01)81925-7|10.1016/S0031-9422(00)81251-0|10.1016/S0031-9422(00)81735-5|10.1016/S0031-9422(00)83106-4|10.1016/S0031-9422(00)84080-7|10.1016/S0031-9422(00)84109-6|10.1016/S0031-9422(00)85016-5|10.1016/S0031-9422(00)86991-5|10.1016/S0031-9422(00)90430-8|10.1016/S0031-9422(00)97095-X|10.1016/S0031-9422(96)00588-2|10.1016/S0031-9422(97)00101-5|10.1016/S0031-9422(99)00251-4|10.1016/S0039-128X(01)00105-2|10.1016/S0039-128X(96)00121-3|10.1016/S0039-128X(99)00068-9|10.1016/S0040-4020(01)85914-7|10.1016/S0040-4020(01)88936-5|10.1021/JA01870A045|10.1021/NP9804740|10.1039/P19830000147|10.1051/CTV/20163101031|10.1080/1028602021000000053|10.1086/331761|10.1139/M85-212|10.1139/M96-150|10.1248/CPB.31.1366|10.1248/CPB.34.4562|10.1248/CPB.41.624|10.1248/YAKUSHI1947.106.12_1092|10.1271/BBB.63.1800|10.1515/9783112328101-024|10.1515/BOTM.1991.34.3.215|10.1515/ZNC-1992-7-802|10.1590/S0103-50531999000600017|10.3989/GYA.1999.V50.I5.678|10.4268/CJCMM20111611|10.5650/jos.ess20128

>  <synonyms>  (1247) 
(22E)-ergosta-5,22-dien-3beta-ol|(22E,24R)-24-methylcholesta-5,22-dien-3beta-ol|(3.BETA.,22E)-ERGOSTA-5,22-DIEN-3-OL|(3S,8S,9S,10R,13R,14S,17R)-17-[(E,2R,5R)-5,6-dimethylhept-3-en-2-yl]-10,13-dimethyl-2,3,4,7,8,9,11,12,14,15,16,17-dodecahydro-1H-cyclopenta[a]phenanthren-3-ol|(3beta,22E)-ergosta-5,22-dien-3-ol|24(R)-Methylcholesta-5,22E-dien-3beta-ol|24-METHYL CHOLEST-5,22-DIEN-3.BETA.-OL|24-methyl cholest-5,22-dien-3beta-ol|2B0KG2XFOF|474-67-9|5,22-Cholestadien-24beta-methyl-3beta-ol|5,22-Ergostadien-3beta-ol|5,22-Ergostadienol|AKOS040760305|AS-78829|BRASSICASTEROL [WHO-DD]|Brassicasterin|Brassicasterol|Brassicasterol, from semisynthetic|C08813|CHEBI:3168|CS-0059521|DTXSID80197124|E80559|EINECS 207-486-5|Ergosta-5,22(E)-dien-3beta-ol|Ergosta-5,22-dien-3-ol, (3b,22E)-|HY-113289|LMST01030098|MFCD00201659|NS00031693|Q2700587|SCHEMBL165980|UNII-2B0KG2XFOF

>  <cas>  (1247) 
474-67-9

$$$$

     RDKit          2D

 20 19  0  0  0  0  0  0  0  0999 V2000
  -12.2170   -0.2342    0.0000 C   0  0  0  0  0  0  0  0  0  0  0  0
  -10.9049    0.4927    0.0000 C   0  0  0  0  0  0  0  0  0  0  0  0
   -9.6193   -0.2801    0.0000 C   0  0  0  0  0  0  0  0  0  0  0  0
   -8.3072    0.4468    0.0000 C   0  0  0  0  0  0  0  0  0  0  0  0
   -7.0217   -0.3260    0.0000 C   0  0  0  0  0  0  0  0  0  0  0  0
   -5.7096    0.4009    0.0000 C   0  0  0  0  0  0  0  0  0  0  0  0
   -4.4240   -0.3719    0.0000 C   0  0  0  0  0  0  0  0  0  0  0  0
   -3.1119    0.3550    0.0000 C   0  0  0  0  0  0  0  0  0  0  0  0
   -1.8263   -0.4178    0.0000 C   0  0  0  0  0  0  0  0  0  0  0  0
   -0.5142    0.3091    0.0000 C   0  0  0  0  0  0  0  0  0  0  0  0
    0.7714   -0.4637    0.0000 C   0  0  0  0  0  0  0  0  0  0  0  0
    2.0834    0.2632    0.0000 C   0  0  0  0  0  0  0  0  0  0  0  0
    3.3690   -0.5096    0.0000 C   0  0  0  0  0  0  0  0  0  0  0  0
    4.6811    0.2173    0.0000 C   0  0  0  0  0  0  0  0  0  0  0  0
    5.9667   -0.5555    0.0000 C   0  0  0  0  0  0  0  0  0  0  0  0
    7.2788    0.1714    0.0000 C   0  0  0  0  0  0  0  0  0  0  0  0
    8.5644   -0.6014    0.0000 C   0  0  0  0  0  0  0  0  0  0  0  0
    9.8764    0.1255    0.0000 C   0  0  0  0  0  0  0  0  0  0  0  0
    9.9029    1.6253    0.0000 O   0  0  0  0  0  0  0  0  0  0  0  0
   11.1620   -0.6473    0.0000 O   0  0  0  0  0  0  0  0  0  0  0  0
  1  2  1  0
  2  3  1  0
  3  4  1  0
  4  5  1  0
  5  6  1  0
  6  7  1  0
  7  8  1  0
  8  9  1  0
  9 10  1  0
 10 11  1  0
 11 12  1  0
 12 13  1  0
 13 14  1  0
 14 15  1  0
 15 16  1  0
 16 17  1  0
 17 18  1  0
 18 19  2  0
 18 20  1  0
M  END
>  <identifier>  (1248) 
CNP0396081.0

>  <canonical_smiles>  (1248) 
CCCCCCCCCCCCCCCCCC(=O)O

>  <standard_inchi>  (1248) 
InChI=1S/C18H36O2/c1-2-3-4-5-6-7-8-9-10-11-12-13-14-15-16-17-18(19)20/h2-17H2,1H3,(H,19,20)

>  <standard_inchi_key>  (1248) 
QIQXTHQIDYTFRH-UHFFFAOYSA-N

>  <name>  (1248) 
stearic acid

>  <iupac_name>  (1248) 
stearic acid

>  <annotation_level>  (1248) 
5

>  <total_atom_count>  (1248) 
56

>  <heavy_atom_count>  (1248) 
20

>  <molecular_weight>  (1248) 
284.48

>  <exact_molecular_weight>  (1248) 
284.27153

>  <molecular_formula>  (1248) 
C18H36O2

>  <alogp>  (1248) 
6.33

>  <topological_polar_surface_area>  (1248) 
37.30

>  <rotatable_bond_count>  (1248) 
16

>  <hydrogen_bond_acceptors>  (1248) 
1

>  <hydrogen_bond_donors>  (1248) 
1

>  <hydrogen_bond_acceptors_lipinski>  (1248) 
1

>  <hydrogen_bond_donors_lipinski>  (1248) 
1

>  <lipinski_rule_of_five_violations>  (1248) 
1

>  <aromatic_rings_count>  (1248) 
0

>  <qed_drug_likeliness>  (1248) 
0.34

>  <formal_charge>  (1248) 
0

>  <fractioncsp3>  (1248) 
0.94

>  <number_of_minimal_rings>  (1248) 
0

>  <van_der_walls_volume>  (1248) 
323.04

>  <contains_sugar>  (1248) 
False

>  <contains_ring_sugars>  (1248) 
False

>  <contains_linear_sugars>  (1248) 
False

>  <murcko_framework>  (1248) 
nan

>  <np_likeness>  (1248) 
0.35

>  <chemical_class>  (1248) 
Fatty Acyls

>  <chemical_sub_class>  (1248) 
Fatty acids and conjugates

>  <chemical_super_class>  (1248) 
Lipids and lipid-like molecules

>  <direct_parent_classification>  (1248) 
Long-chain fatty acids

>  <np_classifier_pathway>  (1248) 
Fatty acids

>  <np_classifier_superclass>  (1248) 
Fatty Acids and Conjugates

>  <np_classifier_class>  (1248) 
Unsaturated fatty acids

>  <np_classifier_is_glycoside>  (1248) 
False

>  <organisms>  (1248) 
Aaptos aaptos|Abelmoschus esculentus|Abies nobilis|Abies pinsapo subsp. marocana|Abutilon ramosum|Acacia auriculiformis|Acanthopanax Gracilistylus|Acanthopanax Senticosus|Acanthopanax gracilistylus|Acanthopanax senticosus|Acanthophora spicifera|Aceriphyllum rossii|Achillea biebersteinii|Achillea fragrantissima|Achillea lycaonica|Achillea moschata|Achillea pseudopectinata|Achillea santolinoides|Achyranthes aspera|Acioa longipendula|Acnistus breviflorus|Aconitum campylorrhynchum|Aconitum japonicum|Aconitum kamtschaticum|Aconitum nevadense|Aconitum vilmorinianum|Acorus calamus|Acrisione denticulata|Acrocomia sclerocarpa|Actinidia kolomikta|Adiantum caudatum|Aegiceras corniculatum|Aesculus chinensis|Aesculus hippocastanum|Aesculus hippocastanum L.|Agaricus integer|Agaricus silvaticus|Agathosma mundtii|Agelas conifera|Aglaia australiensis|Agnorhiza bolanderi|Agrimonia pilosa|Ailanthus triphysa|Aiouea montana|Ajuga bracteosa|Albatrellus cristatus|Albizia gummifera|Albizia inundata|Albizia julibrissin|Alchemilla pentaphyllea|Alexandrian laurel|Alkanna froedinii|Alkanna hirsutissima|Alkanna orientalis|Allagopappus viscosissimus|Allamanda cathartica|Alligator mississippiensis|Allium ampeloprasum|Allium cepa|Allium monspessulanum|Allium tuberosum|Aloe Vera|Aloe africana|Aloe ferox|Aloe spicata|Aloe vera|Aloe vera l. var. chinensis (haw.) berger|Aloe vera var.chinensis|Alseodaphne corneri|Alsophila lepifera|Alstonia undulifolia|Althaea armeniaca|Althaea broussonetiifolia|Althaea officinalis|Amaranthus caudatus|Amaranthus cruentus|Amaranthus dubius|Amaranthus hybridus|Amaranthus paniculatus|Amaranthus retroflexus|Amaranthus tricolor|Amentotaxus argotaenia|American ginseng|Amomum krervanh|Amomum longiligulare|Amomum villosum|Amomum xanthioides|Amphimedon complanata|Amphimedon compressa|Amsinckia lunaris|Amsinckia menziesii|Amsinckia menziesii var. intermedia|Amycolatopsis azurea|Amyris marshii|Anaphalis lactea|Anaxagorea clavata|Anchusa strigosa|Androsace helvetica|Anemarrhena asphodeloides|Angelica pubescens|Anisomeles Indica|Anisomeles indica|Anisophyllea laurina|Annona diversifolia|Annona impressivenia|Annona macroprophyllata|Annona squamosa|Antarctic krill|Anthemis fuscata|Aphanamixis polystachya|Apios americana|Aplophyllum dubium|Aplysina cauliformis|Aplysina fistularis|Aplysina lacunosa|Aquilaria sinensis|Arabidopsis thaliana|Arachis hypogaea|Arachniodes exilis|Araujia sericifera|Arbacia punctulata|Arbutus menziesii|Archidendron ellipticum|Areca Catechu|Areca catechu|Argania spinosa|Argyreia cuneata|Aria pallescens|Arisaema tortuosum|Aristeguietia salvia|Armoracia rusticana|Arnica montana|Arnica nevadensis|Artemisia Capillaris|Artemisia annua|Artemisia annua L.|Artemisia apiacea|Artemisia capillaries|Artemisia capillaris|Artemisia coerulescens|Artemisia monogyna|Artemisia monosperma|Artemisia splendens|Artemisia taurica|Artocarpus heterophyllus|Asparagus adscendens|Aspergillus fumigatus + microalgae|Aspergillus multicolor|Aspergillus unguis|Aspergillus violaceus|Asplenium indicum|Asplenium laciniatum|Asplenium normale|Asterias nipon|Asteriscus aquaticus|Astragalus complanatus|Astragalus hamosus|Astragalus pycnanthus|Astragalus spinosus|Attalea colenda|Atuna racemosa|Aulacocephalus temmincki|Avrainvillea nigricans|Azima tetracantha|Baccharis dracunculifolia|Balanophora involucrata|Bambara groundnut|Barbados nut|Bartramia pomiformis|Bassia butyracea|Benincasa hispida|Berberis floribunda|Berberis orthobotrys|Berlinia tomentosa|Bersama yangambiensis|Betula platyphylla|Beyeria brevifolia|Biancaea sappan|Blumea eriantha|Boa constrictor|Bocconia frutescens|Bocconia latisepala|Boehmeria holosericea|Boehmeria japonica tenera|Boehmeria tricuspis|Boerhavia diffusa|Bonamia spectabilis|Bongardia chrysogonum|Boraginaceae|Boronella koniambiensis|Brachyspira hyodysenteriae|Brachystegia nigerica|Brachythecium buchananii|Brassica hirta|Brassica rapa subsp. oleifera|Bredemeyera brevifolia|Brevibacillus laterosporus|Brotherella henonii|Brucea Javanica|Brucea javanica|Bruguiera gymnorhiza|Brunfelsia americana|Brunnera orientalis|Bryonia alba|Bryum rutilans|Buchenavia tetraphylla|Buddleja variabilis|Bulbinella floribunda|Bupleurum chinense|Bupleurum falcatum|Bupleurum scorzonerifolium|Bursaria spinosa|Buthus martensi|Buthus martensii|Caenorhabditis elegans|Caesalpinia sappan|Calea megacephala|Callicarpa pilosissima|Callyspongia fallax|Calodendrum capense|Calophyllum Inophyllum|Calophyllum calaba|Calophyllum inophyllum|Calycotome villosa|Campylopus richardii|Canarium album|Canarium strictum|Canavalia ensiformis|Candida lipolytica|Cannabis sativa|Capparis ovata|Capparis spinosa|Capparis spinosa var. ovata|Capsella bursa-pastoris|Capsicum annuum|Carapax et plastrum testudinis|Carex capillifolia|Carex myosuroides|Carica papaya|Caroxylon tetrandrum|Carpobrotus edulis|Carthamus Tinctorius|Carthamus tinctorius|Caryocar villosum|Cassia Javanica|Cassia fistula|Cassia javanica|Cassia multijuga|Cassine papillosa|Castanea crenata|Castanea mollissima|Castanopsis sclerophylla|Cecropia glaziovii|Cecropia pachystachya|Cedrela odorata|Cedrus atlantica|Celastrus paniculatus|Celosia argentea|Celosia cristada|Celtis australis|Centaurea aspera|Centella asiatica|Centrolobium tomentosum|Cephalonomia gallicola|Cephalotaxus fortunei|Ceramium botryocarpum|Ceratophyllum submersum|Cereus chrysacanthus|Ceriops decandra|Cervicornia cuspidifera|Chalina arbuscula|Chamerion dodonaei|Charpentiera obovata|Chelidonura fulvipunctata|Chelonanthus albus|Chiton tuberculatus|Chlamydomonas reinhardtii|Chloranthus tianmushanensis|Chondrosia reniformis|Chromodoris obsoleta|Chromolaena odorata|Chromolaena pulchella|Cinnamomum Subavenium|Cinnamomum aromaticum|Cinnamomum burmanni|Cinnamomum cassia|Cinnamomum iners|Cinnamomum kotoense|Cinnamomum macrostemon|Cinnamomum pachyphyllum|Cinnamomum subavenium|Cinnamomum subavenium MIQ.|Cinnamomum tenuifolium|Cinnamon|Cinnamosma madagascariensis|Cipadessa fruticosa|Cistanche deserticola|Citrullus colocynthis|Citrullus lanatus|Citrullus lanatus subsp. vulgaris|Citrus maxima|Citrus reticulata|Citrus rugulosa|Citrus unshiu|Citrus × deliciosa|Cladonia evansii|Cladonia impexa|Cladosporium cucumerinum|Clathria prolifera|Clausena anisata|Clausena dunniana|Cleistanthus collinus|Clematis chinensis|Cleome amblyocarpa|Cleome dolichostyla|Cleome quinquenervia|Clerodendrum bungei|Clerodendrum colebrookianum|Clerodendrum glandulosum|Clitoria ternata|Clitoria ternatea|Clonostachys rosea|Coccus fagi|Cocos nucifera|Codiaeum variegatum|Codium dwarkense|Codonopsis pilosula|Codonopsis pilosula var. modesta|Coelogorgia palmosa|Coeloseira pacifica|Coix lacryma- jobi var. ma - yuen|Coix lacryma-jobi|Colladonia triquetra|Colletotrichum Colletotrichum musae|Combretum punctatum|Conocephalum japonicum|Conus pulicarius|Corchorus aestuans|Cordia sinensis|Cordyceps|Cordyceps sinensis|Cordylanthus kingii|Cordyline indivisa|Coreopsis grandiflora|Coriandrum sativum|Coronophora gregaria|Corydalis cornuta|Corylus chinensis|Corynocarpus laevigatus|Cotoneaster simonsii|Crataegus pinnatifida|Cratoneuron filicinum|Cressa cretica|Crinipellis scabella|Crinum augustum|Crotalaria retusa|Croton Tiglium|Croton cajucara|Croton cumingii|Croton montevidensis|Croton penduliflorus|Croton tiglium|Cryptolepis buchananii|Cryptolepis dubia|Cryptostegia grandiflora|Ctenidium percrassum|Cucumis callosus|Cucumis melo|Cucumis sativus|Cucurbita foetidissima|Cucurbita maxima|Cucurbita moschata|Cucurbita pepo|Cupressus bakeri|Curcuma kwangsiensis|Curcuma longa|Curcuma ochrorhiza|Curcuma phaeocaulis|Curcuma wenyujin|Curcuma zedoaria|Curcurbita pepo L.|Curvularia ellisii|Cuscuta campestris|Cyamopsis tetragonoloba|Cyathea lepifera|Cymbastela coralliophila|Cymodocea nodosa|Cynara cornigera|Cynara sibthorpiana|Cynomorium songaricum|Cystophora scalaris|Cystoseira caespitosa|Cytisus caramanicus|Dacrydium biforme|Dalbergia ecastaphyllum|Dalbergia paniculata|Daldinia concentrica|Daphnia magna|Datisca glomerata|Datura stramonium|Decaneuropsis cumingiana|Delesseria sanguinea|Delonix regia|Delphinium campylocentrum|Delphinium consolida|Delphinium staphisagria|Dendrosenecio kilimanjari|Dermonema abbottiae|Descurainia sophia|Desmodium Styracifolium|Desmodium styracifolium|Diascia cordata|Diascia integerrima|Diascia megathura|Diascia purpurea|Diascia vigilis|Dichotomopilus funicola|Dicliptera roxburghiana|Dicranum japonicum|Dictamnus albus|Dictyota binghamiae|Didemnum inarmatum|Digitalis isabelliana|Dinophysis fortii|Dioscorea|Dioscorea olfersiana|Dioscorea species|Diplacus longiflorus|Diplazium esculentum|Diploschistes cretaceus|Diploschistes violarius|Diplotaxis harra|Dipterocarpus alatus|Dipteronia dyeriana|Dipteryx lacunifera|Dipteryx odorata|Disepalum plagioneurum|Disynaphia halimifolia|Dodonaea polyandra|Dolichomitra cymbifolia|Doodia picta|Dorycnium hirsutum|Dovyalis afra|Dracocephalum kotschyi|Drosera peltata|Drymaria cordata|Dryopteris assimilis|Dryopteris carthusiana|Dryopteris crassirhizoma|Dryopteris expansa|Dryopteris filix-mas|Dryopteris spinulosa|Drypetes gossweileri|Drypetes roxburghii|Duhaldea cappa|Dunalia solanacea|Dytiscus marginalis|Ecballium elaterium|Echinops amplexicaulis|Echinus microtuberculatus|Echiochilon pauciflorum|Echium glomeratum|Eclipta alba|Eclipta prostrata|Ectropis bicolor|Elaeagnus angustifolia|Elaeis guineensis|Elettaria cardamomum|Eleutherococcus senticosus|Elsholtzia ciliata|Embelia barbeyana|Epaltes gariepina|Epilobium dodonaei|Epilobium parviflorum|Epimedium brevicornum|Eragrostis viscosa|Eremophila oppositifolia subsp. Angustifolia|Eremophila serrulata|Eria linearifolia|Erigeron alpinus|Erinaceus europaeus|Erucaria microcarpa|Erylus formosus|Erythrina suberosa|Erythroxylum gonoclados|Erythroxylum gonocladum|Escherichia coli|Eschweilera coriacea|Esox saurus|Eucalyptus cladocalyx|Eucalyptus globulus|Eucommia ulmoides|Eulobus californicus|Eunicella cavolinii|Euonymus laxiflorus|Eupatorium petiolare|Euphorbia formosana|Euphorbia hylonoma|Eurhynchium striatum|FOOD SAKE|Fagopyrum esculentum|Fagopyrum tataricum|Fagus fusca|Fallopia multiflora|Fernandoa adenophylla|Festuca arundinacea|Festuca rubra|Ficus carica|Ficus formosana|Firmiana pallens|Fissidens nobilis|Forking Larkspur|Formica fusca|Forsteronia refracta|Forsythia suspensa|Forsythia viridissima|Fridericia chica|Fritillaria unibracteata|Fructus choerospondiatis|Fructus perillae|Fructus perillae preparata|Fructus syzygii|Fructus terminaliae|Fructus terminaliae preparata|Frullania incumbens|Frullania lobulata|Fumaria kraliki|Fumaria micrantha|Fumaria vaillantii|Fusarium fujikuroi|Fusarium gibbosum|Ganoderma applanatum|Ganoderma australe|Ganoderma lucidum|Ganoderma sinense|Garcinia binucao|Garcinia celebica|Garcinia cornea|Garcinia dulcis|Garcinia lancilimba|Garcinia macrophylla|Gardenia fosbergii|Gardenia resinifera|Garrya elliptica|Gaultheria borneensis|Gaultheria itoana|Geum reptans|Gibberella fujikuroi|Gladiolus italicus|Gleditsia triacanthos|Glehnia littoralis|Glinus lotoides|Glochidion philippicum|Glycine max|Gnetum edule|Gnetum montanum|Gnetum parvifolium|Gossypium barbadense|Gossypium hirsutum|Gouania microcarpa|Grewia mollis|Grimmia pilifera|Grindelia nana|Gryllotalpa orientalis|Gustavia longifolia|Gymnanthemum amygdalinum|Gymnoascus reesii|Gymnocarpium robertianum|Gymnodinium nagasakiense|Hackelia floribunda|Hakea saligna|Halichondriidae|Haliclona compressa|Halopitys incurvus|Haloxylon salicornicum|Haminoea templadoi|Hansenia forbesii|Hansenia weberbaueriana|Hedwigia ciliata|Hedysarum multijugum|Helianthus annuus|Helianthus porteri|Helichrysum auriceps|Helichrysum nudifolium|Heliotropium bovei|Heliotropium floridum|Heliotropium glutinosum|Hemsleya amabilis|Heracleum candicans|Heracleum wolongense|Heracleum yungningense|Herba cichorii|Herba cirsii japonici|Herba ecliptae prostratae|Herba seu radix cirsii japonici|Heterotheca grandiflora|Hibiscus|Hibiscus cannabinus|Hibiscus sabdariffa|Hibiscus syriacus|Himalaiella deltoidea|Hippomane mancinella|Hippophae rhamnoides|Homo sapiens|Hordeum vulgare|Houttuynia Cordata|Houttuynia cordata|Hovenia acerba|Hoya australis|Hoya bandaensis|Hoya bella|Hoya cinnamomifolia|Hoya coronaria|Hoya crassipes|Hoya diversifolia|Hoya fraterna|Hoya imperialis|Hoya lacunosa|Hoya latifolia|Hoya longifolia|Hoya macrophylla|Hoya multiflora|Hoya obovata|Hoya ovalifolia|Hoya pseudolanceolata|Hoya shepherdii|Hoya tsangii|Hubertia tomentosa|Hydrangea serrata|Hyella caespitosa|Hyoscyamus niger|Hypera meles|Hypera postica|Hypericum ericoides|Hypericum maculatum|Hypericum olympicum|Hypericum perfoliatum|Hypericum perforatum|Hypericum tomentosum|Hypholoma capnoides|Hypnum fujiyamae|Hypopitys monotropa|Hypoxis nyasica|Iberis umbellata|Ilex affinis|Ilex brevicuspis|Ilex rotunda|Imperata cylindrica|Inula grandis|Inula helenium|Iotrochota purpurea|Ircinia dendroides|Iris|Iris leptophylla|Isatis tinctoria|Isoberlinia angolensis|Isodon kameba|Isodon serra|Isoplexis isabelliana|Ixeris chinensis|Iyengaria stellata|Jagera pseudorhus|Jamesoniella colorata|Jasminum auriculatum|Jasminum grandiflorum|Jaspis stellifera|Jatropha curcas|Jatropha curcus|Jatropha gossypiifolia|Jodina rhombifolia|Johnstonella grayi|Juglans nigra|Juglans regia|Juniperus phoenicea|Justicia heterocarpa|Justicia heterocarpa T.ANDERS|Justicia trinervia|Kaempferia marginata|Kaempferia pulchra|Karenia mikimotoi|Kaunia saltensis|Khaya senegalensis|Lactarius deliciosus var. deterrimus|Lactarius deterrimus|Lactarius sanguifluus|Lactarius scrobiculatus|Lactuca serriola|Lagenaria breviflora|Lagerstroemia speciosa|Lantana Camara|Lantana camara|Lathraea squamaria|Lecanora lividocinerea|Leiocarpa brevicompta|Leontopodium nanum|Lepidaploa myriocephala|Lepidium apetalum|Lepidium meyenii|Lepidosperma ustulatum|Lepista irina|Leptothorax acervorum|Lethariella cladonioides|Leucanthemum maximum|Leucobryum neilgherrense|Leucopaxillus giganteus|Ligularia macrophylla|Ligustrum lucidum|Ligustrum obtusifolium|Limnanthes alba|Linum catharticum|Linum usitatissimum|Lippia carviodora|Lippia origanoides|Lippia sidoides|Lipschitziella deltoidea|Lithodora fruticosa|Litsea acutivena|Littorina littorea|Lobelia chinensis|Loeskeobryum brevirostre|Lotus ucrainicus|Luffa acutangula|Lumbricus terrestris|Lunularia cruciata|Lupinus angustifolius|Lycium barbarum|Lycium chinense|Lycopersicon esculentum var. cerasiforme|Lycopus lucidus|Lygodium japonicum|Lysionotus denticulosus|Macadamia integrifolia|Macadamia ternifolia|Macaranga sinensis|Macrococculus pomiferus|Madhuca longifolia|Maerua oblongifolia|Magnolia compressa|Malva pucheina|Malvaviscus arboreus|Mangifera indica|Manihot catingae|Manilkara bidentata|Marchantia polymorpha|Marsdenia tenacissima|Maytenus loeseneri|Maytenus serrata|Melaleuca quinquenervia|Melaleuca uncinata|Melia azedarach|Melia azedarach var. toosendan|Melia indica|Meliosma simplicifolia|Menegazzia asahinae|Mentha pulegiformis|Mentha spicata|Metridium senile|Microglossa zeylanica|Millettia pinnata|Mirabilis jalapa|Mitracarpus hirtus|Momordica charantia|Monascus purpureus|Monomorium floricola|Monotropa hypopitys|Monotropa uniflora|Mortierella alpina|Mortierella elongata|Mortierella hyalina|Mortierella hygrophila|Mortierella parvispora|Mortierella schmuckeri|Mortierella zychae|Morus alba var. atropurpurea|Morus alba var. multicaulis|Morus cathayana|Mosla chinensis|Mucuna imbricata|Murraya gleniei|Murraya kwangsiensis|Murraya paniculata|Mycale laevis|Mycosphaerella cruenta|Myelobia smerintha|Myoporum platycarpum|Myrica nana|Myristica cagayanensis|Myristica fragrans|Myristica gigantea|Myrmekioderma rea|Myuroclada maximowiczii|Nannochloropsis|Narcissus concolor|Narcissus triandrus|Narthecium ossifragum|Nassauvia cumingii|Nauclea officinalis|Nelumbo nucifera|Neolitsea daibuensis|Neonotonia wightii|Nepeta cataria|Nephroma australe|Nicotiana tabacum|Nigella sativa|Nigrospora oryzae|Nigrospora sphaerica|Nonea macrosperma|Nothofagus pumilio|Notopterygium incisum|Ocimum gratissimum|Odixia angusta|Odontites rubra|Oecophylla smaragdina|Oenothera argillicola|Oenothera biennis|Oenothera clavaeformis|Oenothera depressa|Oenothera drummondii|Oenothera elata|Oenothera erythrosepala|Oenothera glazioviana|Oenothera grandiflora|Oenothera laciniata|Oenothera lamarckiana|Oenothera missouriensis|Oenothera odorata|Oenothera parviflora|Oenothera rhombipetala|Oenothera rosea|Oenothera serrulata|Oenothera striata|Oenothera strigosa|Oenothera tetragona|Olea europaea|Oleandra wallichii|Oncoba echinata|Oncophorus crispifolius|Ongokea gore|Ongokea klaineana|Onobrychis cyri|Ononis natrix|Onychium japonicum|Ophidiaster ophidianus|Ophiocordyceps sinensis|Ophiolepis superba|Ophioparma ventosa|Ophiorrhiza blumeana|Opuntia humifusa humifusa|Opuntia humifusa var. humifusa|Orbignya martiana|Oryza sativa|Osmitopsis osmitoides|Osmunda japonica|Osmundaria colensoi|Ostericum grosseserratum|Otostegia fruticosa|Oxalis purpurea|Paeonia lactiflora|Paeonia rockii|Palaquium canaliculatum|Panax ginseng|Panax notoginseng|Panax pseudoginseng|Panax quinquefolium|Panax quinquefolius|Pandanus conoideus Lam|Papaver bracteatum|Papaver tatricum|Papilio phorcas|Parabenzoin trilobum|Paracoccus denitrificans|Paramacrolobium coeruleum|Paranephelius uniflorus|Pardachirus pavoninus|Parkia clappertoniana|Parmelia metastrigosa|Parmelia subrudecta|Patrinia scabiosifolia|Patrinia villosa|Pectocarya platycarpa|Peltodon longipes|Peltogyne pubescens|Penicillium brocae|Penicillium leucopus|Pentaclethra macrophylla|Pericopsis angolensis|Perilla frutescens|Perilla frutescens var. arguta|Periploca forrestii|Persea indica|Persicaria hydropiperoides|Persicaria minor|Petalostemon purpureum|Petiveria alliacea|Petrosia pellasarca|Peucedanum govanianum (wall) benth ex c. b. clarke var. bicolo wolff|Peucedanum govanianum var.bicolo|Peucedanum palustre|Peucedanum rubricaule|Phalaenopsis aphrodite|Phebalium dentatum|Phegopteris bukoensis|Pheidole pallidula|Philadelphia fleabane|Phlojodicarpus sibiricus|Phlomis regelii|Phonus arborescens|Phycomyces blakesleeanus|Phyllanthus oligospermus|Physalis solanacea|Physalis solanaceus|Physalis sordida|Picris radicata|Picrorhiza kurrooa|Pilocarpus goudotianus|Pinus banksiana|Pinus elliottii|Pinus koraiensis|Pinus picea|Pinus pumila|Pinus radiata|Pinus sibirica|Piper Betle|Piper Nigrum|Piper aequale|Piper betle|Piper marginatum|Piper nigrum|Piper nigrum L.|Piper ribesioides|Pipestela terpenensis|Piptostigma fugax|Pistacia vera|Pithecellobium dulce|Pithecellobium racemosum|Pittosporum illicioides|Plagiomnium maximoviczii|Plagiothecium euryphyllum|Plakinastrella clathrata|Plantago asiatica|Plantago depressa|Plantago major|Plantago ovata|Platycladus orientalis|Plectranthus mollis|Pleuronectes cynoglossus|Pleurotus japonicus|Pleurotus ostreatus|Pneumatospora obcoronata|Podocarpus amarus|Podocarpus elongata|Podocarpus elongatus|Podocarpus salignus|Pogonatum inflexum|Pogostemon cablin|Polycephalomyces nipponicus|Polygala glomerata|Polygala sibirica|Polygala tenuifolia|Polygonum Minus|Polygonum flaccidum|Polygonum minus|Polyphaga sinensis|Polypodiodes niponica|Polysiphonia ferulacea|Pongamia Pinnata|Pongamia pinnata|Populus tremuloides|Porcelia macrocarpa|Portulaca oleracea|Potebniamyces gallicola|Primula hirsuta|Proiphys amboinensis|Prosopis glandulosa|Prosopis ruscifolia|Prunus Armeniaca|Prunus africana|Prunus armeniaca|Prunus avium|Prunus dulcis|Prunus laurocerasus|Pseudoceratina arabica|Pseudomonas chlororaphis|Pseudopterogorgia kallos|Pseudosuberites|Pseudowintera colorata|Psidium friedrichsthalianum|Psilostrophe cooperi|Psophocarpus tetragonolobus|Psoralea Corylifolia|Psoralea corylifolia|Psychotria bahiensis|Pteris japonica|Pteris prolifera|Pterocarpus grandiflorus|Pterodon emarginatus|Ptilota pectinata|Pulsatilla campanella|Punica Granatum|Punica granatum|Putranjiva roxburghii|Pyrosoma giganteum|Pyrrhobryum spiniforme|Quercus aegilops|Quercus agrifolia|Quercus imbricaria|Quercus myrsinifolia|Radix cirsii japonici|Radix codonopsis pilosulae|Radix hedysari|Radix pseudostellariae|Radix smilacis|Ramalina|Ranunculus glacialis|Ranunculus peltatus|Ranunculus silerifolius|Ranunculus ternatus|Raphanus sativus|Rehmannia Glutinosa|Rehmannia glutinosa|Remijia bicolorata|Rhabdophis tigrinus|Rhamnus japonica|Rhizobium phaseoli|Rhizoctonia repens|Rhizomnium tuomikoskii|Rhizophora mucronata|Rhizoprionodon acutus|Rhododendron aureum|Rhododendron ferrugineum|Rhodomicrobium vannielii|Rhodotorula glutinis|Rhytidiadelphus squarrosus|Ribes alpinum|Ribes cereum var. cereum|Ribes montigenum|Ribes orientale|Rodgersia podophylla|Rosa multiflora|Rosa platyacantha|Rosa roxburghii|Rosa transmorrisonensis|Rosulabryum capillare|Rubrivivax gelatinosus|Rubus chingii|Rubus coreanus|Rudbeckia fulgida|Rusavskia elegans|Russula cyanoxantha|Ruta graveolens|Ruta pinnata|Sabal minor|Saccharomyces cerevisiae|Saccharothrix mutabilis|Salix herbacea|Salix reticulata|Salix retusa|Salmea scandens|Salpa thompsoni|Salsola collina|Salvadora persica|Salvia dorrii|Salvia fruticosa|Salvia hispanica|Salvia miltiorrhiza|Salvia mirzayanii|Salvia nubicola|Salvia officinalis|Salvia triloba|Samanea saman|Sambucus adnata|Sanicula epipactis|Saraca indica|Sarcophyton buitendijki|Saussurea depressa|Saussurea medusa|Saxifraga Stolonifera|Saxifraga stolonifera|Saxifraga stolonifera Meerb.|Scapania nemorea|Scaphium lychnophorum|Schistostephium rotundifolium|Schlotheimia grevilleana|Scleroderris canker|Scopelophila cataractae|Scopolia atropoides|Scrophularia canina|Scrophularia grayana|Scrophularia kakudensis|Scrophularia koelzii|Scrophularia koraiensis|Scrophularia lanceolata|Scrophularia marilandica|Scrophularia nodosa|Scrophularia rubricaulis|Scutellaria baicalensis|Scutia buxifolia|Securidaca inappendiculata|Selaginella doederleinii|Semen astragali complanati|Semen torreyae|Senecio heliopsis|Senecio scandens|Senecio squalidus|Senegalia catechu|Senna alexandrina|Senna didymobotrya|Senna multijuga|Senna siamea|Senna villosa|Serenoa repens|Seriphidium cinum|Sesbania punicea|Shigella flexneri|Sideritis syriaca|Sideritis taurica|Sideritis tragoriganum|Siegesbeckia orientalis|Silybum Marianum|Silybum marianum|Simicratea welwitschii|Simira eliezeriana|Sinopodophyllum hexandrum|Siphocampylus verticillatus|Sipunculus nudus|Sirococcus|Smenospongia echina|Smilax glabra|Solanum andigena|Solanum chacoense|Solanum jamaicense|Solidago petiolaris|Sonneratia alba|Sophora angustifolia|Sophora viciifolia|Spathiphyllum cannifolium|Spermacoce pusilla|Sphaerella asteroma|Sphagnum palustre|Spilanthes paniculata|Spinacia oleracea|Spiracantha cornifolia|Sporobolomyces odorus|Sraitia grosvenorii|Stachybotrys chartarum|Stangeria eriopus|Staphisagria macrosperma|Staphylea bumalda|Stellaria dichotoma|Stenostomum lucidum|Sterculia foetida|Sterculia scaphigera|Sterculia setigera|Sterculia tomentosa|Sterculia tragacantha|Stevia polycephala|Stichopus horrens|Stolonica socialis|Streptomyces FX-58|Streptomyces althioticus|Streptomyces atratus|Streptomyces caelestis|Streptomyces fervens|Streptomyces griseochromogenes|Streptomyces lavendulae|Streptomyces misawanensis|Streptomyces parvisporogenes|Streptomyces platensis|Streptomyces purpurogeneiscleroticus|Streptomyces rochei|Streptomyces roseoverticillatus|Streptomyces saraceticus|Streptomyces sclerotialus|Streptomyces sp. NP10|Streptomyces sp. SCA3-4|Streptomyces sp. mNP10|Streptomyces sp. mNP10_C12-2|Streptomyces sundarbansensis|Strophanthus sarmentosus var. senegambiae|Strychnos spinosa|Stuckenia pectinata|Stylocheilus longicaudus|Suaeda aegyptiaca|Suberites massa|Sundacarpus amarus|Swertia decussata|Syagrus romanzoffiana|Symphoricarpos albus|Syringa komarowii|Syzygium aromaticum|Syzygium cumini|Syzygium nervosum|Tabebuia aurea|Tabernaemontana divaricata|Talaromyces coalescens|Talaromyces flavus|Talaromyces vermiculatus|Talaromyces verruculosus|Tanacetum praeteritum|Tanacetum vulgare|Taonia australasica|Taraxacum borealisinense|Taraxacum coreanum|Taraxacum mongolicum|Taraxacum officinale|Taraxacum platycarpum|Taxodium mucronatum|Taxus drupacea|Tectitethya crypta|Tephroseris integrifolia|Tephrosia crassifolia|Tephrosia procumbens|Terminalia chebula|Terminalia pallida|Tetracera asiatica|Tetrapanax papyrifer|Teucrium depressum|Teucrium orientale|Thalictrum revolutum|Thalictrum simplex|Thamnobryum plicatulum|Thuidium glaucinum|Thuidium pristocalyx|Thuidium recognitum|Thuidium tamariscinum|Thymbra capitata|Thymus capitatus|Thymus piperella|Tipuana tipu|Tomophagus colossus|Trachycarpus fortunei|Treculia africana|Trichilia rubescens|Trichoderma citrinum|Trichoderma virens|Trichodesma zeylanicum|Trichosanthes Kirilowi|Trichosanthes kirilowii|Trichosanthes nervifolia|Trichosanthes rosthornii|Trichosanthes tricuspidata|Trifolium alexandrinum|Trifolium pratense|Tripneustes esculentus|Tripterygium wilfordii|Triticum durum|Trogoderma granarium|Turnera ulmifolia|Tylophora tanakae|Typha Angustata|Typha angustata|Ulota crispa|Ulva australis|Ulva pertusa|Ulva prolifera|Umbilicaria cinereorufescens|Usnea florida|Vachellia constricta|Vallaris solanacea|Veltheimia viridifolia|Ventilago calyculata|Ventilago denticulata|Vepris pilosa|Veratrum mengtzeanum|Veratrum stenophyllum|Verbascum fruticulosum|Verbascum thapsus|Vesicularia ferriei|Viburnum chingii|Viburnum opulus|Viburnum orientale|Viscum coloratum|Vitex Trifolia|Vitex madiensis|Vitex negundo|Vitex rotundifolia|Vitex trifolia|Vitis vinifera|Viviparus japonicus|Wedelia acapulcensis var. hispida|Wijkia concavifolia|Wikstroemia lanceolata|Withania somnifera|Xanthium sibiricum|Xanthium strumarium|Xestospongia muta|Xylopia aethiopica|Yarrowia lipolytica|Yponomeuta malinellus|Zaluzania grayana|Zanthoxylum acutifolium|Zanthoxylum beecheyanum|Zanthoxylum chiriquinum|Zingiber officinale|Ziziphora pedicellata|Ziziphus jujuba|Ziziphus spina-christi|Zygosaccharomyces rouxii|bellis perennis|borage|chia|chub mackerel|common dandelion|common sunflower|maize|peanut|persea americana|pomegranate|sesame|snap bean|soybean|watermelon

>  <collections>  (1248) 
ANPDB|Australian natural products|CMAUP (cCollective molecular activities of useful plants)|ChEBI NPs|ChemSpider NPs|DrugBankNP|EMNPD|ETM (Ethiopian Traditional Medicine) DB|Exposome-explorer|FooDB|HIT (Herbal Ingredients Targets)|InterBioScreen Ltd|KNApSaCK|Latin America dataset|Marine Natural Products|NANPDB (Natural Products from Northern African Sources)|NAPRORE-CR|NPASS|NPDBEjeCol|NPEdia|Nat-UV DB|NuBBEDB|PeruNPDB|Phyto4Health|StreptomeDB|Super Natural II|TCMDB-Taiwan (Traditional Chinese Medicine database)|TCMID (Traditional Chinese Medicine Integrated Database)|TIPdb (database of Taiwan indigenous plants)|UNPD (Universal Natural Products Database)|VietHerb|Watermelon|WikiData Natural Products

>  <dois>  (1248) 
10.1002/(SICI)1097-0231(20000415)14:7<608::AID-RCM918>3.0.CO;2-4|10.1002/(SICI)1099-1573(199906)13:4<329::AID-PTR458>3.0.CO;2-U|10.1002/1099-1565(200011/12)11:6<345::AID-PCA540>3.0.CO;2-T|10.1002/ARDP.19803130303|10.1002/CBDV.200800270|10.1002/CHIN.197139400|10.1002/CHIN.199517179|10.1002/CHIN.200331207|10.1002/CHIN.200505221|10.1002/CHIN.200517223|10.1002/CJOC.20030210222|10.1002/EJLT.200900231|10.1002/EJLT.201000080|10.1002/EJLT.201000369|10.1002/EJLT.201100207|10.1002/FFJ.1187|10.1002/FFJ.2730080506|10.1002/HLCA.200390259|10.1002/JCCS.200100154|10.1002/JCCS.200200040|10.1002/JCCS.200400159|10.1002/JCCS.200700071|10.1002/JCTB.280450207|10.1002/JHRC.1240090210|10.1002/JLAC.18701550202|10.1002/JLAC.19636630122|10.1002/JPS.2600601232|10.1002/JSFA.2731|10.1002/JSFA.2740430111|10.1002/JSFA.2740470213|10.1002/JSFA.2740580123|10.1002/JSFA.2740580219|10.1002/LIPI.19820841009|10.1002/LIPI.19830850506|10.1002/LIPI.19840860106|10.1002/LIPI.19850870507|10.1002/LIPI.19850870809|10.1002/LIPI.19860880305|10.1002/LIPI.19870890308|10.1002/LIPI.2700971106|10.1002/PTR.2650030406|10.1002/ejlt.201000080|10.1002/ejlt.201000369|10.1002/ejlt.201100207|10.1002/jsfa.2731|10.1006/JFCA.2000.0968|10.1007/978-0-85729-323-7_1884|10.1007/978-0-85729-323-7_2078|10.1007/978-3-540-71095-0_6175|10.1007/978-3-540-71095-0_9380|10.1007/978-3-642-48618-0_9|10.1007/978-3-7091-1084-3_4|10.1007/978-3-7091-1084-3_5|10.1007/978-81-322-3912-3_507|10.1007/BF00249109|10.1007/BF00252518|10.1007/BF00387457|10.1007/BF00563626|10.1007/BF00563628|10.1007/BF00564338|10.1007/BF00565786|10.1007/BF00565844|10.1007/BF00566112|10.1007/BF00567726|10.1007/BF00568713|10.1007/BF00573559|10.1007/BF00574357|10.1007/BF00579077|10.1007/BF00579976|10.1007/BF00579991|10.1007/BF00580077|10.1007/BF00598098|10.1007/BF00629753|10.1007/BF00629959|10.1007/BF00630128|10.1007/BF00630450|10.1007/BF00711898|10.1007/BF00714911|10.1007/BF00993699|10.1007/BF01165189|10.1007/BF01900356|10.1007/BF01943120|10.1007/BF01959169|10.1007/BF02065988|10.1007/BF02142526|10.1007/BF02236423|10.1007/BF02249627|10.1007/BF02249628|10.1007/BF02249629|10.1007/BF02249647|10.1007/BF02531935|10.1007/BF02533484|10.1007/BF02534700|10.1007/BF02535668|10.1007/BF02536002|10.1007/BF02536024|10.1007/BF02537064|10.1007/BF02540574|10.1007/BF02540958|10.1007/BF02541352|10.1007/BF02541498|10.1007/BF02541590|10.1007/BF02541638|10.1007/BF02542627|10.1007/BF02546067|10.1007/BF02578249|10.1007/BF02636096|10.1007/BF02636360|10.1007/BF02653292|10.1007/BF02657547|10.1007/BF02660163|10.1007/BF02662286|10.1007/BF02662425|10.1007/BF02663074|10.1007/BF02663762|10.1007/BF02663764|10.1007/BF02663826|10.1007/BF02663950|10.1007/BF02666050|10.1007/BF02856441|10.1007/BF02898307|10.1007/BF02899459|10.1007/BF02901546|10.1007/BF03183920|10.1007/S10600-006-0002-0|10.1007/S10600-006-0004-Y|10.1007/S10600-006-0099-1|10.1007/S10600-008-0043-7|10.1007/S10600-009-9387-X|10.1007/S10600-010-9538-0|10.1007/S10600-010-9595-4|10.1007/S10600-010-9606-5|10.1007/S10600-010-9690-6|10.1007/S10600-010-9698-Y|10.1007/S10600-010-9760-9|10.1007/S10600-011-9968-3|10.1007/S10600-012-0139-Y|10.1007/S10600-012-0426-7|10.1007/S10600-016-1831-0|10.1007/S11306-015-0840-5|10.1007/S11306-016-1051-4|10.1007/S11418-007-0175-2|10.1007/S11745-001-0704-X|10.1007/S11746-009-1435-Y|10.1007/S11746-010-1589-7|10.1007/s11745-005-1486-x|10.1007/s11745-010-3483-3|10.1007/s11746-009-1435-y|10.1007/s11746-010-1589-7|10.1016/0031-9422(71)85055-0|10.1016/0031-9422(75)80399-2|10.1016/0031-9422(77)84040-5|10.1016/0031-9422(82)83046-X|10.1016/0031-9422(82)83099-9|10.1016/0031-9422(82)83112-9|10.1016/0031-9422(83)80024-7|10.1016/0031-9422(83)80181-2|10.1016/0031-9422(83)85064-X|10.1016/0031-9422(86)88045-1|10.1016/0031-9422(86)88046-3|10.1016/0031-9422(89)80381-4|10.1016/0031-9422(90)83061-5|10.1016/0031-9422(90)85049-L|10.1016/0031-9422(90)85294-P|10.1016/0031-9422(90)89062-E|10.1016/0031-9422(91)80030-5|10.1016/0031-9422(91)83019-H|10.1016/0031-9422(91)83188-Q|10.1016/0031-9422(91)83625-U|10.1016/0031-9422(91)83659-9|10.1016/0031-9422(91)84185-U|10.1016/0031-9422(91)85024-T|10.1016/0031-9422(92)80160-G|10.1016/0031-9422(93)85164-M|10.1016/0031-9422(93)85552-3|10.1016/0031-9422(94)00675-J|10.1016/0031-9422(94)00848-N|10.1016/0031-9422(95)00183-8|10.1016/0031-9422(95)00499-8|10.1016/0031-9422(95)00557-9|10.1016/0031-9422(96)00146-X|10.1016/0031-9422(96)00236-1|10.1016/0031-9422(96)00241-5|10.1016/0040-4020(68)88069-X|10.1016/0040-4020(69)80025-6|10.1016/0090-6980(85)90142-X|10.1016/0305-1978(88)90009-9|10.1016/0305-1978(92)90068-O|10.1016/0305-1978(96)00016-6|10.1016/0308-8146(84)90014-1|10.1016/0308-8146(93)90137-5|10.1016/0378-8741(88)90005-0|10.1016/0378-8741(89)90058-5|10.1016/0378-8741(93)90057-C|10.1016/0378-8741(94)90005-1|10.1016/B0-12-227055-X/00448-X|10.1016/C2013-0-07663-3|10.1016/J.ARABJC.2013.10.019|10.1016/J.CHROMA.2004.03.057|10.1016/J.ENVINT.2009.12.006|10.1016/J.FITOTE.2006.09.019|10.1016/J.FOODCHEM.2004.05.018|10.1016/J.FOODRES.2020.109416|10.1016/J.JEP.2006.09.006|10.1016/J.PHYMED.2007.03.018|10.1016/J.PHYMED.2009.09.008|10.1016/J.PHYTOCHEM.2003.08.014|10.1016/J.PHYTOCHEM.2004.08.007|10.1016/J.PHYTOCHEM.2005.06.009|10.1016/J.PHYTOCHEM.2007.10.024|10.1016/J.PHYTOCHEM.2007.12.012|10.1016/J.PHYTOCHEM.2009.04.019|10.1016/J.PHYTOCHEM.2009.09.018|10.1016/J.PHYTOL.2013.09.001|10.1016/J.POSTHARVBIO.2013.11.004|10.1016/J.STEROIDS.2006.04.004|10.1016/S0021-9150(97)00239-6|10.1016/S0021-9673(01)95777-2|10.1016/S0021-9673(96)00802-3|10.1016/S0031-9422(00)00286-7|10.1016/S0031-9422(00)80074-6|10.1016/S0031-9422(00)80533-6|10.1016/S0031-9422(00)80813-4|10.1016/S0031-9422(00)80830-4|10.1016/S0031-9422(00)80834-1|10.1016/S0031-9422(00)81445-4|10.1016/S0031-9422(00)81584-8|10.1016/S0031-9422(00)81835-X|10.1016/S0031-9422(00)82606-0|10.1016/S0031-9422(00)83190-8|10.1016/S0031-9422(00)83494-9|10.1016/S0031-9422(00)84600-2|10.1016/S0031-9422(00)85174-2|10.1016/S0031-9422(00)85486-2|10.1016/S0031-9422(00)85489-8|10.1016/S0031-9422(00)86884-3|10.1016/S0031-9422(00)88097-8|10.1016/S0031-9422(00)88402-2|10.1016/S0031-9422(00)88480-0|10.1016/S0031-9422(00)89578-3|10.1016/S0031-9422(00)89914-8|10.1016/S0031-9422(00)94502-3|10.1016/S0031-9422(00)94783-6|10.1016/S0031-9422(00)94835-0|10.1016/S0031-9422(00)95206-3|10.1016/S0031-9422(00)97084-5|10.1016/S0031-9422(00)98267-0|10.1016/S0031-9422(02)00542-3|10.1016/S0031-9422(03)00466-7|10.1016/S0031-9422(97)00205-7|10.1016/S0031-9422(97)00265-3|10.1016/S0031-9422(98)00111-3|10.1016/S0031-9422(98)00208-8|10.1016/S0031-9422(98)00771-7|10.1016/S0040-4020(01)82304-8|10.1016/S0040-4039(00)84550-5|10.1016/S0040-4039(01)98034-7|10.1016/S0090-4295(99)00549-X|10.1016/S0165-022X(00)00079-8|10.1016/S0271-5317(05)80784-5|10.1016/S0305-1978(02)00076-5|10.1016/S0305-1978(02)00079-0|10.1016/S0305-1978(97)00097-5|10.1016/S0308-8146(99)00186-7|10.1016/S0367-326X(00)00155-6|10.1016/S0367-326X(01)00287-8|10.1016/S0367-326X(01)00327-6|10.1016/S0367-326X(01)00370-7|10.1016/S0378-8741(02)00172-1|10.1016/S0896-8446(01)00110-3|10.1016/S0926-6690(99)00036-9|10.1016/S0944-7113(96)80073-0|10.1016/S0952-3278(98)90046-1|10.1016/S0953-7562(09)80038-5|10.1016/S0960-8524(98)00190-4|10.1016/S1572-5995(00)80051-4|10.1016/j.chroma.2010.10.052|10.1016/j.foodchem.2004.05.018|10.1016/j.foodres.2018.04.064|10.1016/j.foodres.2020.109416|10.1016/j.indcrop.2010.04.020|10.1016/j.jep.2014.08.010|10.1016/j.micres.2018.01.003|10.1016/j.renene.2010.10.009|10.1021/AC2001109|10.1021/BK-2002-0803.CH009|10.1021/IE801365K|10.1021/JF00010A013|10.1021/JF00069A008|10.1021/JF00069A012|10.1021/JF00071A034|10.1021/JF00107A004|10.1021/JF00111A021|10.1021/JF00111A051|10.1021/JF00120A031|10.1021/JF00123A022|10.1021/JF00125A035|10.1021/JF010701V|10.1021/JF010711W|10.1021/JF071938F|10.1021/JF60200A011|10.1021/JF60216A022|10.1021/JF60231A019|10.1021/JO00275A032|10.1021/JO00364A024|10.1021/JO01064A066|10.1021/NP000537Q|10.1021/NP010073B|10.1021/NP030207G|10.1021/NP040080A|10.1021/NP0497548|10.1021/NP0580210|10.1021/NP060107L|10.1021/NP100874F|10.1021/NP50008A001|10.1021/NP50009A007|10.1021/NP50031A033|10.1021/NP50033A015|10.1021/NP50034A043|10.1021/NP50035A032|10.1021/NP50040A039|10.1021/NP50042A023|10.1021/NP50044A019|10.1021/NP50061A020|10.1021/NP50064A024|10.1021/NP50070A010|10.1021/NP50073A041|10.1021/NP50073A043|10.1021/NP50075A009|10.1021/NP50081A009|10.1021/NP50090A013|10.1021/NP50100A032|10.1021/NP50102A012|10.1021/NP50107A008|10.1021/NP8004503|10.1021/NP800555Y|10.1021/NP8006364|10.1021/NP800692T|10.1021/NP800721F|10.1021/NP900225P|10.1021/NP970122D|10.1021/ac1006552|10.1021/acs.jnatprod.0c00070|10.1021/acs.jnatprod.8b00890|10.1021/acsfoodscitech.1c00262|10.1021/ie801365k|10.1021/jf00120a031|10.1021/jf034365p|10.1021/jf0706979|10.1021/jf071801p|10.1021/jf101029a|10.1021/jf803627t|10.1021/np000620d|10.1021/np100874f|10.1021/np800721f|10.1023/B:CONC.0000003408.63300.B5|10.1038/NBT.2488|10.1038/S41598-019-56580-Y|10.1038/SCIENTIFICAMERICAN02091918-84ASUPP|10.1038/nbt.2488|10.1039/JR9630000677|10.1042/BJ1170593|10.1051/CTV/20163101031|10.1055/S-0028-1097204|10.1055/S-0028-1097793|10.1055/S-0028-1097819|10.1055/S-0028-1097852|10.1055/S-0028-1099423|10.1055/S-0028-1099467|10.1055/S-0028-1099537|10.1055/S-0028-1099539|10.1055/S-0028-1099547|10.1055/S-0028-1100226|10.1055/S-0029-1241017|10.1055/S-2001-11504|10.1055/S-2002-36354|10.1055/S-2004-815540|10.1055/S-2006-957441|10.1055/S-2006-957645|10.1055/S-2006-957678|10.1055/S-2006-957987|10.1055/S-2006-958019|10.1055/S-2006-959500|10.1055/S-2006-961923|10.1055/S-2006-962459|10.1055/S-2007-969987|10.1055/S-2007-971248|10.1056/NEJM186707250762502|10.1071/ch9680783|10.1080/00021369.1980.10864214|10.1080/09637480410001725175|10.1080/10286020.2011.622719|10.1080/1028602021000000053|10.1080/10286020600782454|10.1080/10408390802544520|10.1080/10412905.1996.9700565|10.1080/10575630290034302|10.1080/14786410600899142|10.1080/14786410902833948|10.1080/14786410903052951|10.1080/14786419.2010.523827|10.1080/14786419.2014.883396|10.1080/15592324.2016.1249080|10.1089/ind.2013.0013|10.1093/ACPROF:OSO/9780199662685.003.0001|10.1093/JAOAC/55.3.645|10.1104/PP.84.3.643|10.1111/J.1365-2621.1985.TB13019.X|10.1111/J.1365-2621.1986.TB13136.X|10.1111/J.1365-2621.1992.TB11286.X|10.1111/J.1744-7909.2005.00127.X|10.1111/TPJ.12747|10.1111/j.1753-4887.2012.00478.x|10.1111/tpj.12747|10.1128/AEM.51.6.1352-1354.1986|10.1135/CCCC19920408|10.1139/M92-210|10.1139/V65-086|10.1139/V87-128|10.1139/V89-325|10.1155/2017/2840718|10.1246/BCSJ.45.930|10.1246/BCSJ.59.3709|10.1248/BPB.21.657|10.1248/BPB.25.622|10.1248/CPB.32.2815|10.1248/CPB.34.4562|10.1248/CPB.37.3214|10.1248/CPB.43.1849|10.1248/CPB.51.134|10.1248/CPB.52.1194|10.1248/CPB.52.1349|10.1248/CPB.52.507|10.1248/CPB.53.1416|10.1248/CPB.53.701|10.1248/CPB.56.1360|10.1248/CPB.56.234|10.1248/CPB.56.585|10.1248/CPB.56.711|10.1248/CPB.56.97|10.1248/CPB.59.1396|10.1248/YAKUSHI1947.103.9_997|10.1248/YAKUSHI1947.111.2_120|10.1248/YAKUSHI1947.85.5_469|10.1271/BBB.57.1350|10.1271/BBB.61.51|10.1271/BBB1961.45.507|10.1271/BBB1961.48.499|10.1271/BBB1961.49.2819|10.1271/BBB1961.51.1449|10.1271/BBB1961.52.1289|10.1271/BBB1961.52.1889|10.1271/BBB1961.52.2379|10.1300/J044V05N02_05|10.1371/journal.pone.0113497|10.14711/THESIS-B519395|10.1515/9783112328101-024|10.1515/BOTM.1986.29.1.49|10.1515/BOTM.1991.34.3.215|10.1515/ZNB-1984-1020|10.1515/znc-2016-0003|10.15517/am.v31i1.37574|10.1590/S0102-695X2011005000107|10.19026/AJFST.11.2408|10.21608/BFSA.1985.75704|10.21608/BFSA.1985.75705|10.21608/BFSA.1985.75707|10.21608/BFSA.1985.75886|10.21608/BFSA.1993.70202|10.21608/ZJPS.1995.185614|10.21608/ZJPS.1997.169710|10.21767/2172-0479.100132|10.2307/30047228|10.26459/JNS.V116I2.3763|10.31003/USPNF_M20430_03_01|10.3109/01480548908999146|10.3109/08958378.2013.878005|10.3109/10915819309140647|10.3109/13880208309070615|10.3109/13880208409070644|10.3109/13880208509070678|10.3109/13880208709060924|10.3109/13880209109082869|10.32388/D0O6OH|10.3389/FMICB.2018.01302|10.3389/FMICB.2019.01390|10.3389/FMOLB.2018.00096|10.3389/fmicb.2018.01302|10.3389/fmicb.2019.01390|10.3390/MOLECULES191119220|10.3390/foods9060770|10.3390/molecules19022684|10.3390/molecules23123219|10.3390/molecules27020483|10.4038/JNSFSR.V10I2.8431|10.4038/JNSFSR.V11I1.8410|10.4103/0973-1296.99287|10.4197/SCI.16-1.4|10.4268/CJCMM20100712|10.4268/CJCMM20101114|10.4268/CJCMM20111611|10.4268/CJCMM20120313|10.4268/CJCMM20131021|10.4314/BCSE.V12I1.21038|10.4314/GJPAS.V6I1.16077|10.5219/332|10.5650/JOS1956.25.561|10.5650/jos.ess17006|10.5650/jos.ess19091|10.5650/jos.ess20128|10.5650/jos.ess21076|10.5962/BHL.TITLE.108605

>  <synonyms>  (1248) 
1-Heptadecanecarboxylate|1-Heptadecanecarboxylic acid|17FA|18639-67-3|1hmr|1hmt|3v2p|4-02-00-01206 (Beilstein Handbook Reference)|400JB9103-88|4ELV7Z65AP|4fnn|57-11-4|68937-76-8|875D|A 1760|AFCO-Chem B 65|AI3-00909|AKOS005716958|Acidum stearinicul|Adeka sa 300|BBL012224|BDBM50240485|BRN 0608585|Barolub FTA|Bassinic acid|C-Lube 10|C01530|C18:0|CAS-57-11-4|CCG-267314|CCRIS 2305|CD7993EA-AD14-452A-A907-33376CC98790|CELLBN FIRST CARE CLEANSER|CELOZOLE|CH3-(CH2)16-COOH|CH3-[CH2]16-COOH|CHEBI:28842|CHEMBL46403|CS-0021598|Caswell No. 801D|Century 1240|Cetylacetic acid|D00119|DB03193|DTXCID301642|DTXSID8021642|Dar-chem 14|Dervacid 3155|Doctor Plus|E570|EC 200-313-4|EC 250-178-0|EINECS 200-313-4|EINECS 250-178-0|EN300-19730|EPA Pesticide Chemical Code 079082|Edenor C 18\/98|Edenor C18|Edenor HT-JG 60|Edenor ST 1|Edenor ST 20|Edenor htict-n|Emersol 110 (Salt\/Mix)|Emersol 120|Emersol 153NF|Emersol 6349|Emersol 871|Emery 400 (Salt\/Mix)|Emery 871|Emery 875D|F 3 (lubricant)|F0001-1489|F70008|FA 1655|FA 18:0|FEMA No. 3035|Formula 300|G 270|GTPL3377|Glycon DP|Glycon S-80|Glycon TP|Groco 54|Groco 55|Groco 58|Groco 59|HSDB 2000|HY-B2219|HY-Phi 1199|HY-Phi 1205|HY-Phi 1303|HY-Phi 1401|Haimaric MKH(R)|Humko Industrene R|Hydrofol 1895|Hydrofol Acid 150|Hydrofol Acid 150 (VAN)|Hydrofol acid 1655|Hyfac 410|Hyfac 420|Hyfac 421|Hyfac 422|Hystrene 4516|Hystrene 7018|Hystrene 7018 FG|Hystrene 80|Hystrene 9718 NF FG|Hystrene 9718NF|Hystrene S-97|Hystrene T-70|InChI=1\/C18H36O2\/c1-2-3-4-5-6-7-8-9-10-11-12-13-14-15-16-17-18(19)20\/h2-17H2,1H3,(H,19,20|Industrene 4518|Industrene 5016|Industrene 7018 FG|Industrene 8718|Industrene 9018|Industrene R|Isostearic acid EX|Jinhwagwangsu Bubble|Jinhwagwangsu Hair|Kam 1000|Kam 2000|Kam 3000|Kiri stearic acid|Kortacid 1895|LMFA01010018|Lactaric acid|Loxiol G 20|Lunac|Lunac 30|Lunac S 40|Lunac S 90KC|Lunac S 98|Lunac YA|MFCD00002752|Melting Point Standard 69-71C, analytical standard|NAA 173|NAA 180|NCGC00091596-02|NCGC00254456-01|NCGC00259436-01|NEO-FAT 18S|NOPCOCERA LU 6418|NORSOREX AP|NS00010335|NSC 25956|NSC-25956|NSC-261168|Nonsoul SK 1|Nonsoul SN 1 (*Sodium salt*)|Obeo Baby Bubble|Octadecanoic acid|Octadecanoic acid (9CI)|Octadecansaeure|Oktadekansaeure|PD 185|PURIFIED STEARIC ACID [NF]|Palmitostearic acid|Pearl stearic|Prifac 2918|Prifac 5905|Prisorine 3501|Pristerene 4900|Pristerene 4916|Pristerene 9429|Pristerene 9559|Pristerine 4989|Promulsin|Purified stearic acid|Q209685|Radiacid 0427|S 300|S 30C|S0163|SA 200|SCHEMBL659|SNA-2000 (*Sodium salt*)|SR-01000944717|STEARIC ACID (CONSTITUENT OF SAW PALMETTO)|STEARIC ACID (EP MONOGRAPH)|STEARIC ACID (II)|STEARIC ACID (MART.)|STEARIC ACID (USP-RS)|STEARIC ACID [DSC]|STEARIC ACID [FHFI]|STEARIC ACID [HSDB]|STEARIC ACID [II]|STEARIC ACID [JAN]|STEARIC ACID [VANDF]|STEARIC ACID [WHO-DD]|STL163565|Selosol 920|Serfax MT 90|Stearate|Stearex|Stearex Beads|Stearic Acid|Stearic Acid Cherry|Stearic Acid, Pharmaceutical Secondary Standard; Certified Reference Material|Stearic acid (18:0)|Stearic acid (8CI)|Stearic acid (JP15\/NF)|Stearic acid (TN)|Stearic acid (reagent grade)|Stearic acid 50|Stearic acid 50, tested according to Ph.Eur.|Stearic acid [JAN:NF]|Stearic acid, >=95%, FCC, FG|Stearic acid, >=98%|Stearic acid, CP|Stearic acid, European Pharmacopoeia (EP) Reference Standard|Stearic acid, Grade I, >=98.5% (capillary GC)|Stearic acid, SAJ first grade, >=90.0%|Stearic acid, SAJ special grade, >=95.0%|Stearic acid, United States Pharmacopeia (USP) Reference Standard|Stearic acid, Vetec(TM) reagent grade, 94%|Stearic acid, analytical standard|Stearic acid, certified reference material, TraceCERT(R)|Stearic acid, pure|Stearic acid, puriss.|Stearic acid, puriss., >=98.5% (GC)|Stearic acid, reagent grade, 95%|Stearic acid_ravikumar|Stearinsaeure|Stearophanate|Stearophanic acid|Sterene 60b|Steric acid|Sunfat 18S|Talgic acid|Tegostearic 254|Tegostearic 272|Tox21_111154|Tox21_201887|Tox21_300562|Tsubaki|UNII-4ELV7Z65AP|UNII-X33R8U0062|Unimac 5680|Unister NAA 180|VLZ 200|VS-03242|Vanicol|Vis-Plus|WLN: QV17|WO 2|X33R8U0062|Z104474964|ZENOL POWERFULX RECOVERYCREAM|acide octadecanoique|acide stearique|bmse000485|fatty acid 18:0|n-Octadecanoate|n-Octadecylic acid|octadecansaure|octadecoic acid|s5733|stearate|stearic acid

>  <cas>  (1248) 
57-11-4|68937-76-8|18639-67-3

$$$$

     RDKit          2D

 19 21  0  0  0  0  0  0  0  0999 V2000
   -3.3493    3.0128    0.0000 O   0  0  0  0  0  0  0  0  0  0  0  0
   -2.2824    1.9584    0.0000 C   0  0  0  0  0  0  0  0  0  0  0  0
   -0.8359    2.3551    0.0000 N   0  0  0  0  0  0  0  0  0  0  0  0
    0.2310    1.3006    0.0000 C   0  0  0  0  0  0  0  0  0  0  0  0
    1.6776    1.6973    0.0000 C   0  0  0  0  0  0  0  0  0  0  0  0
    2.7444    0.6429    0.0000 C   0  0  0  0  0  0  0  0  0  0  0  0
    2.3647   -0.8083    0.0000 C   0  0  0  0  0  0  0  0  0  0  0  0
    3.4315   -1.8627    0.0000 C   0  0  0  0  0  0  0  0  0  0  0  0
    4.8781   -1.4660    0.0000 C   0  0  0  0  0  0  0  0  0  0  0  0
    5.2579   -0.0149    0.0000 C   0  0  0  0  0  0  0  0  0  0  0  0
    4.1910    1.0396    0.0000 C   0  0  0  0  0  0  0  0  0  0  0  0
   -0.1488   -0.1505    0.0000 C   0  0  0  0  0  0  0  0  0  0  0  0
    0.9181   -1.2049    0.0000 O   0  0  0  0  0  0  0  0  0  0  0  0
   -1.5954   -0.5472    0.0000 N   0  0  0  0  0  0  0  0  0  0  0  0
   -2.2685   -1.8877    0.0000 C   0  0  0  0  0  0  0  0  0  0  0  0
   -3.7514   -1.6617    0.0000 C   0  0  0  0  0  0  0  0  0  0  0  0
   -4.8058   -2.7285    0.0000 O   0  0  0  0  0  0  0  0  0  0  0  0
   -3.9947   -0.1816    0.0000 C   0  0  0  0  0  0  0  0  0  0  0  0
   -2.6622    0.5072    0.0000 C   0  0  0  0  0  0  0  0  0  0  0  0
  1  2  2  0
  2  3  1  0
  3  4  1  0
  4  5  1  1
  5  6  1  0
  6  7  2  0
  7  8  1  0
  8  9  2  0
  9 10  1  0
 10 11  2  0
  4 12  1  0
 12 13  2  0
 12 14  1  0
 14 15  1  0
 15 16  1  0
 16 17  1  6
 16 18  1  0
 19 18  1  1
 19  2  1  0
 11  6  1  0
 19 14  1  0
M  END
>  <identifier>  (1249) 
CNP0228223.1

>  <canonical_smiles>  (1249) 
O=C1N[C@@H](CC2=CC=CC=C2)C(=O)N2C[C@H](O)C[C@@H]12

>  <standard_inchi>  (1249) 
InChI=1S/C14H16N2O3/c17-10-7-12-13(18)15-11(14(19)16(12)8-10)6-9-4-2-1-3-5-9/h1-5,10-12,17H,6-8H2,(H,15,18)/t10-,11+,12+/m1/s1

>  <standard_inchi_key>  (1249) 
PYQJYHACQOBZLF-WOPDTQHZSA-N

>  <name>  (1249) 
118477-06-8

>  <iupac_name>  (1249) 
(3~{S},7~{R},8~{a}~{S})-3-benzyl-7-hydroxy-2,3,6,7,8,8~{a}-hexahydropyrrolo[1,2-a]pyrazine-1,4-dione

>  <annotation_level>  (1249) 
5

>  <total_atom_count>  (1249) 
35

>  <heavy_atom_count>  (1249) 
19

>  <molecular_weight>  (1249) 
260.29

>  <exact_molecular_weight>  (1249) 
260.11609

>  <molecular_formula>  (1249) 
C14H16N2O3

>  <alogp>  (1249) 
-0.31

>  <topological_polar_surface_area>  (1249) 
69.64

>  <rotatable_bond_count>  (1249) 
2

>  <hydrogen_bond_acceptors>  (1249) 
3

>  <hydrogen_bond_donors>  (1249) 
2

>  <hydrogen_bond_acceptors_lipinski>  (1249) 
3

>  <hydrogen_bond_donors_lipinski>  (1249) 
2

>  <lipinski_rule_of_five_violations>  (1249) 
0

>  <aromatic_rings_count>  (1249) 
1

>  <qed_drug_likeliness>  (1249) 
0.77

>  <formal_charge>  (1249) 
0

>  <fractioncsp3>  (1249) 
0.43

>  <number_of_minimal_rings>  (1249) 
3

>  <van_der_walls_volume>  (1249) 
234.12

>  <contains_sugar>  (1249) 
False

>  <contains_ring_sugars>  (1249) 
False

>  <contains_linear_sugars>  (1249) 
False

>  <murcko_framework>  (1249) 
c1ccc(cc1)CC2NCC3N(CCC3)C2

>  <np_likeness>  (1249) 
0.89

>  <chemical_class>  (1249) 
Carboxylic acids and derivatives

>  <chemical_sub_class>  (1249) 
Amino acids, peptides, and analogues

>  <chemical_super_class>  (1249) 
Organic acids and derivatives

>  <direct_parent_classification>  (1249) 
Alpha amino acids

>  <np_classifier_pathway>  (1249) 
Amino acids and Peptides

>  <np_classifier_superclass>  (1249) 
Small peptides

>  <np_classifier_class>  (1249) 
Dipeptides

>  <np_classifier_is_glycoside>  (1249) 
False

>  <organisms>  (1249) 
Aspergillus fumigatus|Jaspis digonoxea|Penicillium canescens|Pseudoalteromonas luteoviolacea|Streptomyces|Streptomyces asenjonii|Streptomyces asenjonii strain KNN 42.f|Streptomyces gougerotii GT|Streptomyces sp. Q24|Streptomyces xanthophaeus|unidentified species of Family Jaspidae

>  <collections>  (1249) 
CMNPD|ChemSpider NPs|EMNPD|Latin America dataset|NPAtlas|NuBBEDB|SANCDB|StreptomeDB|Super Natural II|WikiData Natural Products|ZINC NP

>  <dois>  (1249) 
10.1002/CBDV.200800336|10.1016/J.BMCL.2016.09.021|10.1016/j.bmcl.2016.09.021|10.1021/NP50108A023|10.1021/np50108a023|10.1038/S41429-017-0012-0|10.1038/s41429-017-0012-0|10.1039/np9910800097|10.1055/s-0042-112998|10.1080/10575630008043781|10.1080/14786419.2016.1253079|10.1080/14786419.2016.1269100|10.1590/S0103-50532005000800026

>  <synonyms>  (1249) 
(3S,7R,8aS)-3-benzyl-7-hydroxy-2,3,6,7,8,8a-hexahydropyrrolo[1,2-a]pyrazine-1,4-dione|AKOS032948256|BDBM163707|CHEBI:210590|CHEMBL3740025|CS-0927589|Cyclo L-OH-Pro-L-Phe (Fr. 1-4)|Cyclo(L-Phe-trans-4-OH-L-Pro)|Cyclo(L-phenylalanyl-trans-4-hydroxy-L-proline)|Cyclo(L-trans-(4-hydroxyprolinyl)-L-phenylalanine)|FS-8666|HY-N12513|L-Phe-trans-4-hydroxy-L-Pro|SCHEMBL13657922|cyclo (L)-4-OH-Pro-(L)-Phe|cyclo(L-Phe-trans-4-hydroxy-L-Pro)

>  <cas>  (1249) 
nan

$$$$

     RDKit          2D

 33 37  0  0  0  0  0  0  0  0999 V2000
   -2.9851   -3.1712    0.0000 C   0  0  0  0  0  0  0  0  0  0  0  0
   -3.7183   -1.8626    0.0000 C   0  0  0  0  0  0  0  0  0  0  0  0
   -5.2181   -1.8432    0.0000 C   0  0  0  0  0  0  0  0  0  0  0  0
   -5.9849   -3.1325    0.0000 C   0  0  0  0  0  0  0  0  0  0  0  0
   -5.9513   -0.5346    0.0000 C   0  0  0  0  0  0  0  0  0  0  0  0
   -5.1846    0.7546    0.0000 C   0  0  0  0  0  0  0  0  0  0  0  0
   -3.6847    0.7353    0.0000 C   0  0  0  0  0  0  0  0  0  0  0  0
   -4.4179    2.0439    0.0000 C   0  0  0  0  0  0  0  0  0  0  0  0
   -5.9178    2.0632    0.0000 O   0  0  0  0  0  0  0  0  0  0  0  0
   -3.6512    3.3331    0.0000 O   0  0  0  0  0  0  0  0  0  0  0  0
   -2.9180    2.0245    0.0000 C   0  0  0  0  0  0  0  0  0  0  0  0
   -1.4181    2.0051    0.0000 C   0  0  0  0  0  0  0  0  0  0  0  0
   -0.6850    0.6965    0.0000 C   0  0  0  0  0  0  0  0  0  0  0  0
    0.0482   -0.6121    0.0000 C   0  0  0  0  0  0  0  0  0  0  0  0
   -1.4517   -0.5927    0.0000 C   0  0  0  0  0  0  0  0  0  0  0  0
   -0.7185   -1.9013    0.0000 C   0  0  0  0  0  0  0  0  0  0  0  0
    0.7814   -1.9207    0.0000 C   0  0  0  0  0  0  0  0  0  0  0  0
    1.5481   -0.6315    0.0000 C   0  0  0  0  0  0  0  0  0  0  0  0
    3.0479   -0.6508    0.0000 C   0  0  0  0  0  0  0  0  0  0  0  0
    2.2812   -1.9401    0.0000 C   0  0  0  0  0  0  0  0  0  0  0  0
    3.7811   -1.9594    0.0000 C   0  0  0  0  0  0  0  0  0  0  0  0
    5.2810   -1.9788    0.0000 C   0  0  0  0  0  0  0  0  0  0  0  0
    6.0477   -0.6896    0.0000 C   0  0  0  0  0  0  0  0  0  0  0  0
    7.5476   -0.7089    0.0000 O   0  0  0  0  0  0  0  0  0  0  0  0
    5.3145    0.6191    0.0000 C   0  0  0  0  0  0  0  0  0  0  0  0
    5.0731    2.0995    0.0000 C   0  0  0  0  0  0  0  0  0  0  0  0
    6.7306    1.1138    0.0000 C   0  0  0  0  0  0  0  0  0  0  0  0
    3.8146    0.6384    0.0000 C   0  0  0  0  0  0  0  0  0  0  0  0
    3.0815    1.9470    0.0000 C   0  0  0  0  0  0  0  0  0  0  0  0
    1.5816    1.9664    0.0000 C   0  0  0  0  0  0  0  0  0  0  0  0
    0.8149    0.6772    0.0000 C   0  0  0  0  0  0  0  0  0  0  0  0
    0.0817    1.9858    0.0000 C   0  0  0  0  0  0  0  0  0  0  0  0
   -2.9516   -0.5734    0.0000 C   0  0  0  0  0  0  0  0  0  0  0  0
  2  1  1  1
  2  3  1  0
  3  4  1  6
  3  5  1  0
  5  6  1  0
  6  7  1  0
  7  8  1  1
  8  9  2  0
  8 10  1  0
  7 11  1  0
 11 12  1  0
 12 13  1  0
 13 14  1  6
 13 15  1  0
 15 16  2  0
 16 17  1  0
 18 17  1  1
 18 19  1  0
 19 20  1  1
 19 21  1  0
 21 22  1  0
 22 23  1  0
 23 24  2  0
 23 25  1  0
 25 26  1  0
 25 27  1  0
 25 28  1  0
 28 29  1  1
 29 30  1  0
 30 31  1  0
 31 32  1  1
 33 15  1  6
 33  2  1  0
 33  7  1  0
 31 13  1  0
 31 18  1  0
 28 19  1  0
M  END
>  <identifier>  (1250) 
CNP0222102.1

>  <canonical_smiles>  (1250) 
C[C@H]1[C@H](C)CC[C@]2(C(=O)O)CC[C@]3(C)C(=CC[C@@H]4[C@@]5(C)CCC(=O)C(C)(C)[C@@H]5CC[C@]43C)[C@H]12

>  <standard_inchi>  (1250) 
InChI=1S/C30H46O3/c1-18-10-15-30(25(32)33)17-16-28(6)20(24(30)19(18)2)8-9-22-27(5)13-12-23(31)26(3,4)21(27)11-14-29(22,28)7/h8,18-19,21-22,24H,9-17H2,1-7H3,(H,32,33)/t18-,19+,21+,22-,24+,27+,28-,29-,30+/m1/s1

>  <standard_inchi_key>  (1250) 
MUCRYNWJQNHDJH-OADIDDRXSA-N

>  <name>  (1250) 
Ursonic acid

>  <iupac_name>  (1250) 
(1~{S},2~{R},4~{a}~{S},6~{a}~{R},6~{a}~{S},6~{b}~{R},8~{a}~{R},12~{a}~{R},14~{b}~{S})-1,2,6~{a},6~{b},9,9,12~{a}-heptamethyl-10-oxo-1,2,3,4,5,6,6~{a},7,8,8~{a},11,12,13,14~{b}-tetradecahydropicene-4~{a}-carboxylic acid

>  <annotation_level>  (1250) 
5

>  <total_atom_count>  (1250) 
79

>  <heavy_atom_count>  (1250) 
33

>  <molecular_weight>  (1250) 
454.7

>  <exact_molecular_weight>  (1250) 
454.3447

>  <molecular_formula>  (1250) 
C30H46O3

>  <alogp>  (1250) 
7.30

>  <topological_polar_surface_area>  (1250) 
54.37

>  <rotatable_bond_count>  (1250) 
1

>  <hydrogen_bond_acceptors>  (1250) 
2

>  <hydrogen_bond_donors>  (1250) 
1

>  <hydrogen_bond_acceptors_lipinski>  (1250) 
2

>  <hydrogen_bond_donors_lipinski>  (1250) 
1

>  <lipinski_rule_of_five_violations>  (1250) 
1

>  <aromatic_rings_count>  (1250) 
0

>  <qed_drug_likeliness>  (1250) 
0.42

>  <formal_charge>  (1250) 
0

>  <fractioncsp3>  (1250) 
0.87

>  <number_of_minimal_rings>  (1250) 
5

>  <van_der_walls_volume>  (1250) 
450.96

>  <contains_sugar>  (1250) 
False

>  <contains_ring_sugars>  (1250) 
False

>  <contains_linear_sugars>  (1250) 
False

>  <murcko_framework>  (1250) 
C1=C2C3CCCCC3CCC2C4CCC5CCCCC5C4C1

>  <np_likeness>  (1250) 
3.22

>  <chemical_class>  (1250) 
Prenol lipids

>  <chemical_sub_class>  (1250) 
Triterpenoids

>  <chemical_super_class>  (1250) 
Lipids and lipid-like molecules

>  <direct_parent_classification>  (1250) 
Taraxastane, ursane, and bauerane triterpenoids

>  <np_classifier_pathway>  (1250) 
Terpenoids

>  <np_classifier_superclass>  (1250) 
Triterpenoids

>  <np_classifier_class>  (1250) 
Ursane and Taraxastane triterpenoids

>  <np_classifier_is_glycoside>  (1250) 
False

>  <organisms>  (1250) 
Angelica ursina|Angelica ursina Maxim|Bacillus megaterium CGMCC 1.1741|Bursera linanoe|Cercosporina kikuchii|Cordia multispicata|Croton steenkampianus|Daphne aurantiaca|Dracocephalum peregrinum|Eriostemon brucei|Ficus Microcarpa|Ficus microcarpa|Garcinia cantleyana|Geum aleppicum|Geum japonicum|Geum macrophyllum|Hedyotis lawsoniae|Heptapleurum heptaphyllum|Hymenodictyon excelsum|Hymenodictyon orixense|Ilex paraguariensis|Incarvillea arguta|Incarvillea diffusa|Lantana Camara|Lantana camara|Lantana camara LINN.|Lantana tiliaefolia|Lavandula angustifolia|Lavandula latifolia|Lavandula spica|Lonicera korolkovii|Melanothamnus somalensis|Morella rubra|Myrica rubra|Parmelia gigas|Piper betle|Portulaca pilosa|Pseudomonas putida|Pteris aquilina|Rauvolfia vomitoria|Salvia aethiopis|Salvia cana|Salvia canariensis|Salvia lanata|Schefflera heptaphylla|Scrophularia ningpoensis|Talaromyces helicus|Varronia multispicata|Vochysia thyrsoidea|Zerynthia polyxena|Ziziphus jujuba|pomegranate|yerba mate

>  <collections>  (1250) 
CMAUP (cCollective molecular activities of useful plants)|KNApSaCK|Latin America dataset|NPACT|NPASS|NuBBEDB|Super Natural II|TCMDB-Taiwan (Traditional Chinese Medicine database)|TIPdb (database of Taiwan indigenous plants)|VietHerb|WikiData Natural Products|ZINC NP

>  <dois>  (1250) 
10.1002/(SICI)1099-1573(199803)12:2<146::AID-PTR204>3.0.CO;2-5|10.1007/S00044-012-0397-Z|10.1007/S10600-010-9461-4|10.1007/S10600-011-9944-Y|10.1007/SPRINGERREFERENCE_69355|10.1016/0031-9422(91)84158-O|10.1016/0031-9422(92)80309-3|10.1016/J.EJMECH.2007.11.021|10.1016/J.JEP.2008.06.025|10.1016/J.PHYTOCHEM.2004.12.026|10.1016/J.PHYTOCHEM.2005.03.023|10.1016/S0040-4039(00)72373-2|10.1016/S0968-0896(02)00314-0|10.1016/j.bmcl.2017.03.076|10.1016/j.ejmech.2007.11.021|10.1021/NP50124A014|10.1042/BST021462S|10.1071/CH9832537|10.1080/10286020.2011.566562|10.1248/CPB.32.3906|10.1248/CPB.49.954|10.1248/CPB.50.208|10.1248/CPB.56.1317|10.1248/CPB.57.860|10.1515/ZNB-2009-0414|10.3987/COM-99-8762|10.5935/0100-4042.20140049

>  <synonyms>  (1250) 
(1S,2R,4aS,6aR,6aS,6bR,8aR,12aR,14bS)-1,2,6a,6b,9,9,12a-heptamethyl-10-oxo-1,2,3,4,5,6,6a,7,8,8a,11,12,13,14b-tetradecahydropicene-4a-carboxylic acid|(1S,2R,4aS,6aS,6bR,8aR,12aR,12bR,14bS)-1,2,6a,6b,9,9,12a-heptamethyl-10-oxo-1,2,3,4,4a,5,6,6a,6b,7,8,8a,9,10,11,12,12a,12b,13,14b-icosahydropicene-4a-carboxylic acid|(5beta)-3-oxours-12-en-28-oic acid|1ST182777|3-Ketone|3-Ketoursolic acid|3-Oxo-12-ursen-28-oic acid|3-Oxo-12-ursen-28-oic acid (Ursonic acid)3-Oxo-urs-12-en-28-oic acid; (1S,2R,4aS,6aR,6aS,6bR,8aR,12aR,14bS)-1,2,6a,6b,9,9,12a-heptamethyl-10-oxo-1,2,3,4,5,6,6a,7,8,8a,11,12,13,14b-tetradecahydropicene-4a-carboxylic acid|3-Oxours-12-en-28-oic acid|3-Oxoursolic acid|6246-46-4|A868468|AC-33970|AKOS016009365|B8F|BDBM50245647|CCG-269282|CHEBI:172011|CHEMBL487887|CS-5796|DS-5490|F16164|HMS3885G12|HY-N1486|MFCD09752413|O0508|SCHEMBL454577|Ursonic acid|s3902

>  <cas>  (1250) 
6246-46-4

$$$$

     RDKit          2D

 31 35  0  0  0  0  0  0  0  0999 V2000
   -6.1212    1.5751    0.0000 C   0  0  0  0  0  0  0  0  0  0  0  0
   -5.2492    0.3547    0.0000 C   0  0  0  0  0  0  0  0  0  0  0  0
   -5.8701   -1.0108    0.0000 C   0  0  0  0  0  0  0  0  0  0  0  0
   -7.3631   -1.1558    0.0000 O   0  0  0  0  0  0  0  0  0  0  0  0
   -4.9980   -2.2312    0.0000 C   0  0  0  0  0  0  0  0  0  0  0  0
   -3.5051   -2.0863    0.0000 C   0  0  0  0  0  0  0  0  0  0  0  0
   -2.8841   -0.7208    0.0000 C   0  0  0  0  0  0  0  0  0  0  0  0
   -3.7562    0.4997    0.0000 C   0  0  0  0  0  0  0  0  0  0  0  0
   -4.6282    1.7201    0.0000 C   0  0  0  0  0  0  0  0  0  0  0  0
   -3.1353    1.8651    0.0000 C   0  0  0  0  0  0  0  0  0  0  0  0
   -1.6423    2.0101    0.0000 C   0  0  0  0  0  0  0  0  0  0  0  0
   -0.7702    0.7896    0.0000 C   0  0  0  0  0  0  0  0  0  0  0  0
   -1.3911   -0.5758    0.0000 C   0  0  0  0  0  0  0  0  0  0  0  0
   -2.0121   -1.9413    0.0000 C   0  0  0  0  0  0  0  0  0  0  0  0
   -0.5191   -1.7963    0.0000 C   0  0  0  0  0  0  0  0  0  0  0  0
    0.9739   -1.6513    0.0000 C   0  0  0  0  0  0  0  0  0  0  0  0
    1.5948   -0.2858    0.0000 C   0  0  0  0  0  0  0  0  0  0  0  0
    2.4669   -1.5063    0.0000 C   0  0  0  0  0  0  0  0  0  0  0  0
    3.0878   -0.1409    0.0000 C   0  0  0  0  0  0  0  0  0  0  0  0
    3.9598   -1.3613    0.0000 C   0  0  0  0  0  0  0  0  0  0  0  0
    5.4528   -1.2163    0.0000 C   0  0  0  0  0  0  0  0  0  0  0  0
    6.9053   -1.5907    0.0000 C   0  0  0  0  0  0  0  0  0  0  0  0
    5.3363   -2.7118    0.0000 C   0  0  0  0  0  0  0  0  0  0  0  0
    6.0737    0.1491    0.0000 C   0  0  0  0  0  0  0  0  0  0  0  0
    5.2017    1.3696    0.0000 C   0  0  0  0  0  0  0  0  0  0  0  0
    3.7087    1.2246    0.0000 C   0  0  0  0  0  0  0  0  0  0  0  0
    4.3296    2.5900    0.0000 C   0  0  0  0  0  0  0  0  0  0  0  0
    2.8367    2.4451    0.0000 C   0  0  0  0  0  0  0  0  0  0  0  0
    1.3437    2.3001    0.0000 C   0  0  0  0  0  0  0  0  0  0  0  0
    0.7228    0.9346    0.0000 C   0  0  0  0  0  0  0  0  0  0  0  0
   -0.1493    2.1551    0.0000 C   0  0  0  0  0  0  0  0  0  0  0  0
  2  1  1  6
  2  3  1  0
  3  4  1  1
  3  5  1  0
  5  6  1  0
  7  6  1  6
  7  8  1  0
  8  9  1  1
  8 10  1  0
 10 11  1  0
 12 11  1  6
 12 13  1  0
 13 14  1  1
 13 15  1  0
 15 16  1  0
 16 17  1  0
 17 18  1  1
 17 19  1  0
 19 20  1  1
 20 21  1  0
 21 22  1  0
 21 23  1  0
 21 24  1  0
 24 25  1  0
 25 26  1  0
 26 27  1  6
 26 28  1  0
 28 29  1  0
 29 30  1  0
 30 31  1  6
  8  2  1  0
 30 12  1  0
 13  7  1  0
 30 17  1  0
 26 19  1  0
M  END
>  <identifier>  (1251) 
CNP0238564.6

>  <canonical_smiles>  (1251) 
C[C@H]1[C@H](O)CC[C@@H]2[C@@]1(C)CC[C@H]1[C@]2(C)CC[C@@]2(C)[C@@H]3CC(C)(C)CC[C@]3(C)CC[C@]12C

>  <standard_inchi>  (1251) 
InChI=1S/C30H52O/c1-20-21(31)9-10-22-27(20,5)12-11-23-28(22,6)16-18-30(8)24-19-25(2,3)13-14-26(24,4)15-17-29(23,30)7/h20-24,31H,9-19H2,1-8H3/t20-,21+,22+,23-,24+,26+,27-,28+,29+,30-/m0/s1

>  <standard_inchi_key>  (1251) 
XCDQFROEGGNAER-PODLGBGDSA-N

>  <name>  (1251) 
nan

>  <iupac_name>  (1251) 
(3~{R},4~{R},4~{a}~{R},6~{a}~{S},6~{a}~{S},6~{b}~{R},8~{a}~{R},12~{a}~{R},14~{a}~{R},14~{b}~{S})-4,4~{a},6~{a},6~{b},8~{a},11,11,14~{a}-octamethyl-1,2,3,4,5,6,6~{a},7,8,9,10,12,12~{a},13,14,14~{b}-hexadecahydropicen-3-ol

>  <annotation_level>  (1251) 
4

>  <total_atom_count>  (1251) 
83

>  <heavy_atom_count>  (1251) 
31

>  <molecular_weight>  (1251) 
428.75

>  <exact_molecular_weight>  (1251) 
428.40182

>  <molecular_formula>  (1251) 
C30H52O

>  <alogp>  (1251) 
8.25

>  <topological_polar_surface_area>  (1251) 
20.23

>  <rotatable_bond_count>  (1251) 
0

>  <hydrogen_bond_acceptors>  (1251) 
1

>  <hydrogen_bond_donors>  (1251) 
1

>  <hydrogen_bond_acceptors_lipinski>  (1251) 
1

>  <hydrogen_bond_donors_lipinski>  (1251) 
1

>  <lipinski_rule_of_five_violations>  (1251) 
1

>  <aromatic_rings_count>  (1251) 
0

>  <qed_drug_likeliness>  (1251) 
0.41

>  <formal_charge>  (1251) 
0

>  <fractioncsp3>  (1251) 
1.00

>  <number_of_minimal_rings>  (1251) 
5

>  <van_der_walls_volume>  (1251) 
nan

>  <contains_sugar>  (1251) 
False

>  <contains_ring_sugars>  (1251) 
False

>  <contains_linear_sugars>  (1251) 
False

>  <murcko_framework>  (1251) 
C1CCC2C(C1)CCC3C2CCC4C5CCCCC5CCC43

>  <np_likeness>  (1251) 
2.71

>  <chemical_class>  (1251) 
Prenol lipids

>  <chemical_sub_class>  (1251) 
Triterpenoids

>  <chemical_super_class>  (1251) 
Lipids and lipid-like molecules

>  <direct_parent_classification>  (1251) 
Taraxerane, multiflorane, glutinane and friedelane triterpenoids

>  <np_classifier_pathway>  (1251) 
Terpenoids

>  <np_classifier_superclass>  (1251) 
Triterpenoids

>  <np_classifier_class>  (1251) 
Friedelane triterpenoids

>  <np_classifier_is_glycoside>  (1251) 
False

>  <organisms>  (1251) 
Eperua bijuga

>  <collections>  (1251) 
Latin America dataset|NuBBEDB|WikiData Natural Products

>  <dois>  (1251) 
10.1016/0031-9422(73)85046-0

>  <synonyms>  (1251) 
Friedelan-3\u221a\u00e9\u00ac\u00b1-ol

>  <cas>  (1251) 
nan

$$$$

     RDKit          2D

 26 28  0  0  0  0  0  0  0  0999 V2000
   -6.8859    2.6357    0.0000 C   0  0  0  0  0  0  0  0  0  0  0  0
   -6.4415    1.2031    0.0000 O   0  0  0  0  0  0  0  0  0  0  0  0
   -4.9785    0.8717    0.0000 C   0  0  0  0  0  0  0  0  0  0  0  0
   -3.9601    1.9729    0.0000 C   0  0  0  0  0  0  0  0  0  0  0  0
   -2.4971    1.6415    0.0000 C   0  0  0  0  0  0  0  0  0  0  0  0
   -2.0527    0.2089    0.0000 C   0  0  0  0  0  0  0  0  0  0  0  0
   -0.5897   -0.1226    0.0000 C   0  0  0  0  0  0  0  0  0  0  0  0
   -0.1453   -1.5552    0.0000 C   0  0  0  0  0  0  0  0  0  0  0  0
   -1.1637   -2.6564    0.0000 O   0  0  0  0  0  0  0  0  0  0  0  0
   -2.6267   -2.3250    0.0000 C   0  0  0  0  0  0  0  0  0  0  0  0
    1.3177   -1.8866    0.0000 C   0  0  0  0  0  0  0  0  0  0  0  0
    1.7621   -3.3192    0.0000 O   0  0  0  0  0  0  0  0  0  0  0  0
    2.3361   -0.7854    0.0000 C   0  0  0  0  0  0  0  0  0  0  0  0
    3.7991   -1.1168    0.0000 C   0  0  0  0  0  0  0  0  0  0  0  0
    4.2435   -2.5494    0.0000 O   0  0  0  0  0  0  0  0  0  0  0  0
    4.8175   -0.0155    0.0000 C   0  0  0  0  0  0  0  0  0  0  0  0
    6.2805   -0.3469    0.0000 O   0  0  0  0  0  0  0  0  0  0  0  0
    4.3731    1.4171    0.0000 C   0  0  0  0  0  0  0  0  0  0  0  0
    5.3916    2.5183    0.0000 O   0  0  0  0  0  0  0  0  0  0  0  0
    4.9471    3.9510    0.0000 C   0  0  0  0  0  0  0  0  0  0  0  0
    2.9101    1.7485    0.0000 C   0  0  0  0  0  0  0  0  0  0  0  0
    1.8917    0.6473    0.0000 C   0  0  0  0  0  0  0  0  0  0  0  0
    0.4287    0.9787    0.0000 O   0  0  0  0  0  0  0  0  0  0  0  0
   -3.0711   -0.8924    0.0000 C   0  0  0  0  0  0  0  0  0  0  0  0
   -4.5341   -0.5610    0.0000 C   0  0  0  0  0  0  0  0  0  0  0  0
   -5.5525   -1.6622    0.0000 O   0  0  0  0  0  0  0  0  0  0  0  0
  1  2  1  0
  2  3  1  0
  3  4  2  0
  4  5  1  0
  5  6  2  0
  6  7  1  0
  7  8  2  0
  8  9  1  0
  9 10  1  0
  8 11  1  0
 11 12  2  0
 11 13  1  0
 13 14  2  0
 14 15  1  0
 14 16  1  0
 16 17  1  0
 16 18  2  0
 18 19  1  0
 19 20  1  0
 18 21  1  0
 21 22  2  0
 22 23  1  0
  6 24  1  0
 24 25  2  0
 25 26  1  0
 25  3  1  0
 23  7  1  0
 22 13  1  0
M  END
>  <identifier>  (1252) 
CNP0199996.0

>  <canonical_smiles>  (1252) 
COC1=CC=C(C2=C(OC)C(=O)C3=C(O)C(O)=C(OC)C=C3O2)C=C1O

>  <standard_inchi>  (1252) 
InChI=1S/C18H16O8/c1-23-10-5-4-8(6-9(10)19)17-18(25-3)16(22)13-11(26-17)7-12(24-2)14(20)15(13)21/h4-7,19-21H,1-3H3

>  <standard_inchi_key>  (1252) 
UQBUUCDVKDSHCE-UHFFFAOYSA-N

>  <name>  (1252) 
Oxyayanin B

>  <iupac_name>  (1252) 
5,6-dihydroxy-2-(3-hydroxy-4-methoxy-phenyl)-3,7-dimethoxy-chromen-4-one

>  <annotation_level>  (1252) 
5

>  <total_atom_count>  (1252) 
42

>  <heavy_atom_count>  (1252) 
26

>  <molecular_weight>  (1252) 
360.32

>  <exact_molecular_weight>  (1252) 
360.08452

>  <molecular_formula>  (1252) 
C18H16O8

>  <alogp>  (1252) 
2.60

>  <topological_polar_surface_area>  (1252) 
118.59

>  <rotatable_bond_count>  (1252) 
4

>  <hydrogen_bond_acceptors>  (1252) 
8

>  <hydrogen_bond_donors>  (1252) 
3

>  <hydrogen_bond_acceptors_lipinski>  (1252) 
8

>  <hydrogen_bond_donors_lipinski>  (1252) 
3

>  <lipinski_rule_of_five_violations>  (1252) 
0

>  <aromatic_rings_count>  (1252) 
3

>  <qed_drug_likeliness>  (1252) 
0.61

>  <formal_charge>  (1252) 
0

>  <fractioncsp3>  (1252) 
0.17

>  <number_of_minimal_rings>  (1252) 
3

>  <van_der_walls_volume>  (1252) 
298.74

>  <contains_sugar>  (1252) 
False

>  <contains_ring_sugars>  (1252) 
False

>  <contains_linear_sugars>  (1252) 
False

>  <murcko_framework>  (1252) 
O1c2ccccc2CC=C1c3ccccc3

>  <np_likeness>  (1252) 
1.35

>  <chemical_class>  (1252) 
Flavonoids

>  <chemical_sub_class>  (1252) 
O-methylated flavonoids

>  <chemical_super_class>  (1252) 
Phenylpropanoids and polyketides

>  <direct_parent_classification>  (1252) 
3-O-methylated flavonoids

>  <np_classifier_pathway>  (1252) 
Shikimates and Phenylpropanoids

>  <np_classifier_superclass>  (1252) 
Flavonoids

>  <np_classifier_class>  (1252) 
Flavonols

>  <np_classifier_is_glycoside>  (1252) 
False

>  <organisms>  (1252) 
Abrus precatorius|Adiantum monochlamys|Alluaudia dumosa|Ambrosia cordifolia|Apuleia leiocarpa|Argylia radiata|Aster himalaicus|Baileya pauciradiata|Becium grandiflorum|Centaurea webbiana|Commiphora erythraea|Crinum yemense|Cyrtanthus obliquus|Distemonanthus benthamianus|Durio kutejensis|Erythrostemon gilliesii|Fumago vagans|Garcinia multiflora|Gelonium aequoreum|Gnetum montanum|Helichrysum acutatum|Hemizonia congesta|Hyptis brevipes|Laggera tomentosa|Lissoclinum bistratum|Mallotus stenanthus|Odontites vernus subsp. serotinus|Pachyphragma macrophyllum|Pterocaulon purpurascens|Pulicaria dysenterica|Pulicaria wightiana|Rhodiola quadrifida|Scutellaria nepetoides|Spilanthes mauritiana|Stellaria delavayi|Stevia cuzcoensis|Streptomyces inusitatus|Urolepis hecatantha|Vernonanthura chamaedrys|Vernonia arbor|Vicia faba|Westiella intricata

>  <collections>  (1252) 
ANPDB|CMAUP (cCollective molecular activities of useful plants)|ChEBI NPs|KNApSaCK|Latin America dataset|NANPDB (Natural Products from Northern African Sources)|NPASS|NPEdia|NuBBEDB|Super Natural II|TCMDB-Taiwan (Traditional Chinese Medicine database)|TCMID (Traditional Chinese Medicine Integrated Database)|UNPD (Universal Natural Products Database)|WikiData Natural Products|ZINC NP

>  <dois>  (1252) 
10.1002/CBDV.200900007|10.1002/HLCA.200890222|10.1016/0031-9422(95)00091-K|10.1016/J.PHYTOCHEM.2005.02.004|10.1016/S0031-9422(00)89891-X|10.1021/NP9001724|10.1021/np9001724|10.1039/JR9540004587|10.1111/J.1600-0536.1995.TB00680.X|10.4314/BCSE.V24I2.54757

>  <synonyms>  (1252) 
3',5,6-trihydroxy-3,4',7-trimethoxyflavone|3,7,4'-trimethylquercetagetin|4H-1-Benzopyran-4-one, 5,6-dihydroxy-2-(3-hydroxy-4-methoxyphenyl)-3,7-dimethoxy-|5,6,3'-Trihydroxy-3,7,4'-trimethoxyflavone|5,6-dihydroxy-2-(3-hydroxy-4-methoxyphenyl)-3,7-dimethoxy-4H-1-benzopyran-4-one|5,6-dihydroxy-2-(3-hydroxy-4-methoxyphenyl)-3,7-dimethoxychromen-4-one|548-74-3|6-hydroxy-3,7,4'-trimethylquercetin|CHEBI:7855|CHEMBL1085428|DTXSID80331884|Flavone, 3',5,6-trihydroxy-3,4',7-trimethoxy-|LMPK12113001|Oxyanin B|Oxyayanin-B|Q27107599|UQBUUCDVKDSHCE-UHFFFAOYSA-N

>  <cas>  (1252) 
548-74-3

$$$$

     RDKit          2D

 22 24  0  0  0  0  0  0  0  0999 V2000
   -3.7499    3.3757    0.0000 C   0  0  0  0  0  0  0  0  0  0  0  0
   -3.8170    1.8772    0.0000 O   0  0  0  0  0  0  0  0  0  0  0  0
   -2.5528    1.0698    0.0000 C   0  0  0  0  0  0  0  0  0  0  0  0
   -1.2215    1.7609    0.0000 C   0  0  0  0  0  0  0  0  0  0  0  0
    0.0427    0.9536    0.0000 C   0  0  0  0  0  0  0  0  0  0  0  0
   -0.0244   -0.5449    0.0000 C   0  0  0  0  0  0  0  0  0  0  0  0
   -1.3557   -1.2361    0.0000 C   0  0  0  0  0  0  0  0  0  0  0  0
   -1.4228   -2.7346    0.0000 O   0  0  0  0  0  0  0  0  0  0  0  0
   -2.7541   -3.4257    0.0000 C   0  0  0  0  0  0  0  0  0  0  0  0
   -2.6199   -0.4287    0.0000 C   0  0  0  0  0  0  0  0  0  0  0  0
   -3.9512   -1.1198    0.0000 O   0  0  0  0  0  0  0  0  0  0  0  0
   -5.2153   -0.3125    0.0000 C   0  0  0  0  0  0  0  0  0  0  0  0
    1.2398   -1.3523    0.0000 C   0  0  0  0  0  0  0  0  0  0  0  0
    1.1727   -2.8508    0.0000 O   0  0  0  0  0  0  0  0  0  0  0  0
    2.5711   -0.6611    0.0000 C   0  0  0  0  0  0  0  0  0  0  0  0
    3.8353   -1.4685    0.0000 C   0  0  0  0  0  0  0  0  0  0  0  0
    5.1666   -0.7773    0.0000 C   0  0  0  0  0  0  0  0  0  0  0  0
    5.2336    0.7212    0.0000 C   0  0  0  0  0  0  0  0  0  0  0  0
    3.9695    1.5285    0.0000 C   0  0  0  0  0  0  0  0  0  0  0  0
    2.6382    0.8374    0.0000 C   0  0  0  0  0  0  0  0  0  0  0  0
    1.3740    1.6447    0.0000 N   0  0  0  0  0  0  0  0  0  0  0  0
    1.4411    3.1432    0.0000 C   0  0  0  0  0  0  0  0  0  0  0  0
  1  2  1  0
  2  3  1  0
  3  4  2  0
  4  5  1  0
  5  6  2  0
  6  7  1  0
  7  8  1  0
  8  9  1  0
  7 10  2  0
 10 11  1  0
 11 12  1  0
  6 13  1  0
 13 14  2  0
 13 15  1  0
 15 16  2  0
 16 17  1  0
 17 18  2  0
 18 19  1  0
 19 20  2  0
 20 21  1  0
 21 22  1  0
 10  3  1  0
 20 15  1  0
 21  5  1  0
M  END
>  <identifier>  (1253) 
CNP0176427.0

>  <canonical_smiles>  (1253) 
COC1=CC2=C(C(OC)=C1OC)C(=O)C1=CC=CC=C1N2C

>  <standard_inchi>  (1253) 
InChI=1S/C17H17NO4/c1-18-11-8-6-5-7-10(11)15(19)14-12(18)9-13(20-2)16(21-3)17(14)22-4/h5-9H,1-4H3

>  <standard_inchi_key>  (1253) 
JZITVQGPQMLTPJ-UHFFFAOYSA-N

>  <name>  (1253) 
1,2,3-trimethoxy-10-methylacridin-9(10h)-one

>  <iupac_name>  (1253) 
1,2,3-trimethoxy-10-methyl-acridin-9-one

>  <annotation_level>  (1253) 
5

>  <total_atom_count>  (1253) 
39

>  <heavy_atom_count>  (1253) 
22

>  <molecular_weight>  (1253) 
299.33

>  <exact_molecular_weight>  (1253) 
299.11576

>  <molecular_formula>  (1253) 
C17H17NO4

>  <alogp>  (1253) 
2.72

>  <topological_polar_surface_area>  (1253) 
49.69

>  <rotatable_bond_count>  (1253) 
3

>  <hydrogen_bond_acceptors>  (1253) 
5

>  <hydrogen_bond_donors>  (1253) 
0

>  <hydrogen_bond_acceptors_lipinski>  (1253) 
5

>  <hydrogen_bond_donors_lipinski>  (1253) 
0

>  <lipinski_rule_of_five_violations>  (1253) 
0

>  <aromatic_rings_count>  (1253) 
3

>  <qed_drug_likeliness>  (1253) 
0.70

>  <formal_charge>  (1253) 
0

>  <fractioncsp3>  (1253) 
0.24

>  <number_of_minimal_rings>  (1253) 
3

>  <van_der_walls_volume>  (1253) 
nan

>  <contains_sugar>  (1253) 
False

>  <contains_ring_sugars>  (1253) 
False

>  <contains_linear_sugars>  (1253) 
False

>  <murcko_framework>  (1253) 
c1ccc2c(c1)Nc3ccccc3C2

>  <np_likeness>  (1253) 
0.45

>  <chemical_class>  (1253) 
Quinolines and derivatives

>  <chemical_sub_class>  (1253) 
Benzoquinolines

>  <chemical_super_class>  (1253) 
Organoheterocyclic compounds

>  <direct_parent_classification>  (1253) 
Acridones

>  <np_classifier_pathway>  (1253) 
Alkaloids

>  <np_classifier_superclass>  (1253) 
Anthranilic acid alkaloids

>  <np_classifier_class>  (1253) 
Acridone alkaloids

>  <np_classifier_is_glycoside>  (1253) 
False

>  <organisms>  (1253) 
Almeidea rubra|Conchocarpus inopinatus|Euodia alata|Vepris bilocularis

>  <collections>  (1253) 
AfroDB|Australian natural products|Latin America dataset|NuBBEDB|Super Natural II|UNPD (Universal Natural Products Database)|WikiData Natural Products|ZINC NP

>  <dois>  (1253) 
10.1016/0031-9422(95)00922-1|10.1071/ch9671719|10.1590/S0100-40422012001100006|10.1590/S0103-50531998000100007

>  <synonyms>  (1253) 
13082-16-1|9(10H)-Acridinone, 1,2,3-trimethoxy-10-methyl-|ACon1_002306|BRD-K01981601-001-01-6|DS-009295|DTXSID80294127|MEGxp0_000252|NCGC00169970-01|NSC94651|methylarborinine|trimethoxy-10-methylacridone

>  <cas>  (1253) 
13082-16-1

$$$$

     RDKit          2D

 29 31  0  0  0  0  0  0  0  0999 V2000
   -7.4040    2.6531    0.0000 C   0  0  0  0  0  0  0  0  0  0  0  0
   -7.0110    1.2055    0.0000 O   0  0  0  0  0  0  0  0  0  0  0  0
   -5.5609    0.8220    0.0000 C   0  0  0  0  0  0  0  0  0  0  0  0
   -4.5037    1.8861    0.0000 C   0  0  0  0  0  0  0  0  0  0  0  0
   -3.0535    1.5026    0.0000 C   0  0  0  0  0  0  0  0  0  0  0  0
   -2.6606    0.0549    0.0000 C   0  0  0  0  0  0  0  0  0  0  0  0
   -1.2104   -0.3286    0.0000 C   0  0  0  0  0  0  0  0  0  0  0  0
   -0.8175   -1.7762    0.0000 C   0  0  0  0  0  0  0  0  0  0  0  0
    0.6326   -2.1597    0.0000 C   0  0  0  0  0  0  0  0  0  0  0  0
    1.0256   -3.6073    0.0000 O   0  0  0  0  0  0  0  0  0  0  0  0
    1.6898   -1.0956    0.0000 C   0  0  0  0  0  0  0  0  0  0  0  0
    3.1400   -1.4791    0.0000 C   0  0  0  0  0  0  0  0  0  0  0  0
    3.5329   -2.9267    0.0000 O   0  0  0  0  0  0  0  0  0  0  0  0
    4.9831   -3.3102    0.0000 C   0  0  0  0  0  0  0  0  0  0  0  0
    4.1972   -0.4150    0.0000 C   0  0  0  0  0  0  0  0  0  0  0  0
    5.6473   -0.7985    0.0000 O   0  0  0  0  0  0  0  0  0  0  0  0
    6.7045    0.2656    0.0000 C   0  0  0  0  0  0  0  0  0  0  0  0
    3.8042    1.0326    0.0000 C   0  0  0  0  0  0  0  0  0  0  0  0
    4.8614    2.0967    0.0000 O   0  0  0  0  0  0  0  0  0  0  0  0
    4.4685    3.5444    0.0000 C   0  0  0  0  0  0  0  0  0  0  0  0
    2.3541    1.4161    0.0000 C   0  0  0  0  0  0  0  0  0  0  0  0
    1.9612    2.8638    0.0000 O   0  0  0  0  0  0  0  0  0  0  0  0
    3.0184    3.9279    0.0000 C   0  0  0  0  0  0  0  0  0  0  0  0
    1.2969    0.3520    0.0000 C   0  0  0  0  0  0  0  0  0  0  0  0
   -0.1532    0.7355    0.0000 O   0  0  0  0  0  0  0  0  0  0  0  0
   -3.7178   -1.0092    0.0000 C   0  0  0  0  0  0  0  0  0  0  0  0
   -5.1679   -0.6257    0.0000 C   0  0  0  0  0  0  0  0  0  0  0  0
   -6.2251   -1.6898    0.0000 O   0  0  0  0  0  0  0  0  0  0  0  0
   -5.8322   -3.1374    0.0000 C   0  0  0  0  0  0  0  0  0  0  0  0
  1  2  1  0
  2  3  1  0
  3  4  2  0
  4  5  1  0
  5  6  2  0
  6  7  1  0
  7  8  2  0
  8  9  1  0
  9 10  2  0
  9 11  1  0
 11 12  2  0
 12 13  1  0
 13 14  1  0
 12 15  1  0
 15 16  1  0
 16 17  1  0
 15 18  2  0
 18 19  1  0
 19 20  1  0
 18 21  1  0
 21 22  1  0
 22 23  1  0
 21 24  2  0
 24 25  1  0
  6 26  1  0
 26 27  2  0
 27 28  1  0
 28 29  1  0
 27  3  1  0
 25  7  1  0
 24 11  1  0
M  END
>  <identifier>  (1254) 
CNP0209864.0

>  <canonical_smiles>  (1254) 
COC1=CC=C(C2=CC(=O)C3=C(OC)C(OC)=C(OC)C(OC)=C3O2)C=C1OC

>  <standard_inchi>  (1254) 
InChI=1S/C21H22O8/c1-23-13-8-7-11(9-15(13)24-2)14-10-12(22)16-17(25-3)19(26-4)21(28-6)20(27-5)18(16)29-14/h7-10H,1-6H3

>  <standard_inchi_key>  (1254) 
MRIAQLRQZPPODS-UHFFFAOYSA-N

>  <name>  (1254) 
Nobiletin

>  <iupac_name>  (1254) 
2-(3,4-dimethoxyphenyl)-5,6,7,8-tetramethoxy-chromen-4-one

>  <annotation_level>  (1254) 
5

>  <total_atom_count>  (1254) 
51

>  <heavy_atom_count>  (1254) 
29

>  <molecular_weight>  (1254) 
402.4

>  <exact_molecular_weight>  (1254) 
402.13147

>  <molecular_formula>  (1254) 
C21H22O8

>  <alogp>  (1254) 
3.51

>  <topological_polar_surface_area>  (1254) 
85.59

>  <rotatable_bond_count>  (1254) 
7

>  <hydrogen_bond_acceptors>  (1254) 
8

>  <hydrogen_bond_donors>  (1254) 
0

>  <hydrogen_bond_acceptors_lipinski>  (1254) 
8

>  <hydrogen_bond_donors_lipinski>  (1254) 
0

>  <lipinski_rule_of_five_violations>  (1254) 
0

>  <aromatic_rings_count>  (1254) 
3

>  <qed_drug_likeliness>  (1254) 
0.59

>  <formal_charge>  (1254) 
0

>  <fractioncsp3>  (1254) 
0.29

>  <number_of_minimal_rings>  (1254) 
3

>  <van_der_walls_volume>  (1254) 
351.32

>  <contains_sugar>  (1254) 
False

>  <contains_ring_sugars>  (1254) 
False

>  <contains_linear_sugars>  (1254) 
False

>  <murcko_framework>  (1254) 
O1c2ccccc2CC=C1c3ccccc3

>  <np_likeness>  (1254) 
0.84

>  <chemical_class>  (1254) 
Flavonoids

>  <chemical_sub_class>  (1254) 
O-methylated flavonoids

>  <chemical_super_class>  (1254) 
Phenylpropanoids and polyketides

>  <direct_parent_classification>  (1254) 
6-O-methylated flavonoids

>  <np_classifier_pathway>  (1254) 
Shikimates and Phenylpropanoids

>  <np_classifier_superclass>  (1254) 
Flavonoids

>  <np_classifier_class>  (1254) 
Flavones

>  <np_classifier_is_glycoside>  (1254) 
False

>  <organisms>  (1254) 
Aceriphyllum rossii|Ageratum Conyzoides|Ageratum conyzoides|Agnorhiza bolanderi|Alligator mississippiensis|Anaxagorea clavata|Araujia sericifera|Aria pallescens|Arnica nevadensis|Artemisia monogyna|Artocarpus altilis|Barbados nut|Bassia butyracea|Beyeria brevifolia|Blumea fistulosa|Blumea glomerata|Bursaria spinosa|Capsicum annuum|Cherry Orange|Chloranthus tianmushanensis|Chromolaena odorata|Chromolaena pulchella|Citrus|Citrus  aurantium|Citrus Aurantium|Citrus Reticulata|Citrus Sinensis|Citrus aurantium|Citrus aurea|Citrus depressa|Citrus erythrosa|Citrus flavicarpa|Citrus grandis|Citrus hanaju|Citrus hassaku|Citrus intermedia|Citrus japonica|Citrus keraji|Citrus leiocarpa|Citrus madurensis|Citrus maxima|Citrus medica|Citrus mitis|Citrus myrtifolia|Citrus natsudaidai|Citrus nippokoreana|Citrus nobilis|Citrus obovoidea|Citrus otachibana|Citrus oto|Citrus pseudoparadisi|Citrus reticulata|Citrus reticulata tangerine|Citrus reticulate|Citrus shunkokan|Citrus sinensis|Citrus sp.|Citrus spp.|Citrus sudachi|Citrus sulcata|Citrus tachibana|Citrus tankan|Citrus trifoliata|Citrus ujukitsu|Citrus unshiu|Citrus wilsonii|Citrus × deliciosa|Citrus × paradisi|Citrus ×iyo|Cladonia evansii|Clonostachys rosea|Coccus fagi|Conoclinium greggii|Croton caudatus|Dendrosenecio kilimanjari|Deuterophoma tracheiphila|Dipterocarpus alatus|Drosera peltata|Echinops amplexicaulis|Epaltes gariepina|Eupatorium coelestinum|Eupatorium leucolepis|Eupatorium leucolepsis|Ficus formosana|Fortunella Japonica|Fortunella japonica|Fortunella margarita|Fusarium gibbosum|Gardenia fosbergii|Griffitharia pallescens|Gutierrezia spathulata|Ilex affinis|Isodon kameba|Juncus effusus|Kaempferia pulchra|Kumquat|Lactarius scrobiculatus|Lansium domesticum|Laurus Nobilis|Laurus nobilis L.|Merulius incarnatus|Murraya exotica|Murraya paniculata|Odixia angusta|Oxalis pes-caprae|Ozothamnus lycopodioides|Paepalanthus polyanthus|Pheidole pallidula|Plenodomus tracheiphilus|Prosopis glandulosa|Prunus laurocerasus|Pseudopterogorgia kallos|Pteris prolifera|Pterocarpus grandiflorus|Pyrosoma giganteum|Quercus aegilops|Rhizobium phaseoli|Rhus undulata|Salvia officinalis|Securidaca inappendiculata|Senecio squalidus|Seriphidium cinum|Sesbania punicea|Simira eliezeriana|Solanum fraxinifolium|Sorbus pallescens|Stenostomum lucidum|Streptomyces althioticus|Taxodium mucronatum|Tripterygium wilfordii|Vernonia pooleae|Viburnum tinus|Viguiera rosei|Vitex madiensis|Wrightia tomentosa|pomelo

>  <collections>  (1254) 
ANPDB|AnalytiCon Discovery NPs|Australian natural products|BitterDB|CMAUP (cCollective molecular activities of useful plants)|ChEBI NPs|EMNPD|ETM (Ethiopian Traditional Medicine) DB|FooDB|GNPS (Global Natural Products Social Molecular Networking)|HIT (Herbal Ingredients Targets)|InPACdb|Indofine Chemical Company|InterBioScreen Ltd|KNApSaCK|Latin America dataset|NANPDB (Natural Products from Northern African Sources)|NPACT|NPASS|NPCARE|NPEdia|NuBBEDB|Phenol-explorer|Phyto4Health|PhytoLab phyproof® Reference Substances|PubChem NPs|Super Natural II|TCMDB-Taiwan (Traditional Chinese Medicine database)|TIPdb (database of Taiwan indigenous plants)|UNPD (Universal Natural Products Database)|VietHerb|WikiData Natural Products

>  <dois>  (1254) 
10.1002/CBDV.200800179|10.1002/JCCS.198500015|10.1007/BF00599010|10.1007/BF02975340|10.1016/0024-3205(96)00088-4|10.1016/0031-9422(75)85074-6|10.1016/0031-9422(82)85206-0|10.1016/0031-9422(95)00648-6|10.1016/J.BMC.2008.01.058|10.1016/J.BMC.2008.11.039|10.1016/J.CHMED.2022.08.010|10.1016/J.CHROMA.2017.12.022|10.1016/J.EJPHAR.2007.09.028|10.1016/J.FOODCHEM.2009.06.059|10.1016/J.FOODCHEM.2019.125629|10.1016/J.PHYTOCHEM.2005.07.019|10.1016/S0021-9673(97)01131-X|10.1016/S0031-9422(00)84523-9|10.1016/S0031-9422(00)95215-4|10.1016/S0031-9422(00)97261-3|10.1016/S0305-1978(01)00113-2|10.1016/S0367-326X(99)00131-8|10.1016/j.bbrc.2007.11.100|10.1016/j.canlet.2006.11.016|10.1021/JF102730B|10.1021/JF960110I|10.1021/JF970606F|10.1021/JF980229M|10.1021/JF990153+|10.1021/jf801103p|10.1055/S-2004-835847|10.1080/14756360600953876|10.1080/14756360600988989|10.1111/J.1365-2036.2004.02082.X|10.1177/1934578x1200700214|10.1248/BPB.25.806|10.1248/CPB.28.717|10.1248/CPB.35.3025|10.1248/CPB.37.1092|10.1248/CPB.39.945|10.1248/CPB.41.714|10.1248/CPB.49.1356|10.1248/YAKUSHI1947.111.3_193|10.1271/bbb.70088|10.14233/AJCHEM.2014.16432|10.1515/ZNC-2000-1-202|10.1515/ZNC-2000-11-1230|10.1515/ZNC-2000-5-603|10.3390/MOLECULES15031097|10.3892/IJO.2015.2946|10.4161/cbt.7.6.5967

>  <synonyms>  (1254) 
nan

>  <cas>  (1254) 
478-01-3

$$$$

     RDKit          2D

 14 16  0  0  0  0  0  0  0  0999 V2000
    4.6432   -1.0149    0.0000 O   0  0  0  0  0  0  0  0  0  0  0  0
    3.2870   -0.3741    0.0000 C   0  0  0  0  0  0  0  0  0  0  0  0
    3.1637    1.1208    0.0000 C   0  0  0  0  0  0  0  0  0  0  0  0
    1.8075    1.7616    0.0000 C   0  0  0  0  0  0  0  0  0  0  0  0
    0.5744    0.9074    0.0000 C   0  0  0  0  0  0  0  0  0  0  0  0
   -0.7818    1.5482    0.0000 C   0  0  0  0  0  0  0  0  0  0  0  0
   -2.0149    0.6940    0.0000 C   0  0  0  0  0  0  0  0  0  0  0  0
   -1.8916   -0.8010    0.0000 C   0  0  0  0  0  0  0  0  0  0  0  0
   -0.5354   -1.4417    0.0000 C   0  0  0  0  0  0  0  0  0  0  0  0
    0.6977   -0.5875    0.0000 C   0  0  0  0  0  0  0  0  0  0  0  0
    2.0539   -1.2283    0.0000 O   0  0  0  0  0  0  0  0  0  0  0  0
   -3.2753   -1.3801    0.0000 O   0  0  0  0  0  0  0  0  0  0  0  0
   -4.2537   -0.2431    0.0000 C   0  0  0  0  0  0  0  0  0  0  0  0
   -3.4747    1.0387    0.0000 C   0  0  0  0  0  0  0  0  0  0  0  0
  1  2  2  0
  2  3  1  0
  3  4  2  0
  4  5  1  0
  5  6  2  0
  6  7  1  0
  7  8  2  0
  8  9  1  0
  9 10  2  0
 10 11  1  0
  8 12  1  0
 12 13  1  0
 13 14  2  0
 11  2  1  0
 10  5  1  0
 14  7  1  0
M  END
>  <identifier>  (1255) 
CNP0328096.0

>  <canonical_smiles>  (1255) 
O=C1C=CC2=CC3=C(C=C2O1)OC=C3

>  <standard_inchi>  (1255) 
InChI=1S/C11H6O3/c12-11-2-1-7-5-8-3-4-13-9(8)6-10(7)14-11/h1-6H

>  <standard_inchi_key>  (1255) 
ZCCUUQDIBDJBTK-UHFFFAOYSA-N

>  <name>  (1255) 
Psoralen

>  <iupac_name>  (1255) 
furo[3,2-g]chromen-7-one

>  <annotation_level>  (1255) 
5

>  <total_atom_count>  (1255) 
20

>  <heavy_atom_count>  (1255) 
14

>  <molecular_weight>  (1255) 
186.17

>  <exact_molecular_weight>  (1255) 
186.03169

>  <molecular_formula>  (1255) 
C11H6O3

>  <alogp>  (1255) 
2.54

>  <topological_polar_surface_area>  (1255) 
43.35

>  <rotatable_bond_count>  (1255) 
0

>  <hydrogen_bond_acceptors>  (1255) 
3

>  <hydrogen_bond_donors>  (1255) 
0

>  <hydrogen_bond_acceptors_lipinski>  (1255) 
3

>  <hydrogen_bond_donors_lipinski>  (1255) 
0

>  <lipinski_rule_of_five_violations>  (1255) 
0

>  <aromatic_rings_count>  (1255) 
3

>  <qed_drug_likeliness>  (1255) 
0.51

>  <formal_charge>  (1255) 
0

>  <fractioncsp3>  (1255) 
0.00

>  <number_of_minimal_rings>  (1255) 
3

>  <van_der_walls_volume>  (1255) 
152.24

>  <contains_sugar>  (1255) 
False

>  <contains_ring_sugars>  (1255) 
False

>  <contains_linear_sugars>  (1255) 
False

>  <murcko_framework>  (1255) 
o1ccc2cc3C=CCOc3cc12

>  <np_likeness>  (1255) 
0.94

>  <chemical_class>  (1255) 
Coumarins and derivatives

>  <chemical_sub_class>  (1255) 
Furanocoumarins

>  <chemical_super_class>  (1255) 
Phenylpropanoids and polyketides

>  <direct_parent_classification>  (1255) 
Psoralens

>  <np_classifier_pathway>  (1255) 
Shikimates and Phenylpropanoids

>  <np_classifier_superclass>  (1255) 
Coumarins

>  <np_classifier_class>  (1255) 
Furocoumarins

>  <np_classifier_is_glycoside>  (1255) 
False

>  <organisms>  (1255) 
Acanthophyllum sordidum|Aconitum habaense|Aconitum tanguticum|Agathis macrophylla|Aliivibrio fischeri|Aloe castanea|Amaracus dictamnus|Ammi majus|Ammi majus L.|Amyris diatrypa|Amyris lineata|Angelica Pubescens|Angelica acutiloba|Angelica archangelica|Angelica dahurica|Angelica gigas|Angelica gmelinii|Angelica japonica|Angelica lucida|Angelica officinalis|Angelica pubescens|Angelica pubescens f.biserrata|Angelica shikokiana|Angelica sinensis|Angelica sp.|Aphelandra chamissoniana|Apium graveolens|Apium graveolens L.|Aralia continentalis|Arracacia xanthorrhiza|Ashitaba|Bituminaria bituminosa|Bituminaria morisiana|Bituminaria plumosa|Bougainvillea glabra|Brachyclados megalanthus|Brosimum acutifolium|Brosimum gaudichaudii|Brosimum melanopotamicum|Bryopsis pennata|Changium smyrnioides|Citrus medica|Cnidium monieri|Cnidium monnieri|Coronilla coronata|Coronilla glauca|Coronilla juncea|Coronilla minima|Coronilla repanda|Coronilla scorpioides|Coronilla vaginalis|Coronilla valentina|Coronilla viminalis|Cryptocarya obovata|Cryptostegia grandiflora|Cullen cinereum|Cullen corylifolia|Cullen corylifolium|Cullen drupaceum|Cullen lachnostachys|Cullen obtusifolium|Cullen plicatum|Cullen pustulatum|Cullen tomentosum|Cystoseira caespitosa|Daiswa dunniana|Daucus carota|Davallia solida|Decatropis bicolor|Dictamnus albus|Dictamnus albus L.|Dictamnus dasycarpus|Dictamnus hispanicus|Dictamnus sp.|Diplotaenia damavandica|Dorstenia Contrajerva|Dorstenia asaroides|Dorstenia bahiensis|Dorstenia barnimiana|Dorstenia brasiliensis|Dorstenia bryoniaefolia|Dorstenia bryonifolia|Dorstenia cayapiaa|Dorstenia contrajerva|Dorstenia convexa|Dorstenia drakena|Dorstenia elliptica|Dorstenia excentria|Dorstenia excentrica|Dorstenia foetida|Dorstenia heringeri|Dorstenia heringerii|Dorstenia lindeniana|Dorstenia prorepens|Dorstenia psilurus|Dorstenia turbinata|Dystaenia takesimana|Echium italicum|Fagara mayu|Fatoua pilosa|Fatoua villosa|Feronia limonia|Feroniella lucida|Ferula lutea|Ferulago lutea|Ficus Carica|Ficus Hirta|Ficus arica|Ficus beecheyana|Ficus carica|Ficus carica L.|Ficus elastica Roxb.|Ficus erecta var. beecheyana|Ficus hirta|Ficus pumila|Ficus simplicissima|Ficus sp.|Ficus sycomorus|Flammulina velutipes|Foeniculum sp.|Foeniculum vulgare|Fructus psoraleae corylifoliae|Glehnia Littoralis|Glehnia littoralis|Grewia asiatica|Haplophyllum patavinum|Heracleum grandiflorum|Heracleum lanatum|Heracleum lehmannianum|Heracleum leskovii|Heracleum levskovii|Heracleum mantegazzianum|Heracleum maximum|Heracleum persicum|Heracleum sp.|Hijmania turbinata|Hoita macrostachya|Hymenidium densiflorum|Hypholoma capnoides|Indian beech tree|Lactarius deliciosus var. deterrimus|Lecidea carpathica|Leionema ambiens|Levisticum officinale|Levisticum officinale W. D. J. Koch|Levisticum sp.|Ligusticum jeholense|Ligusticum sinense|Ligusticum tenuissimum|Limonia acidissima|Lyophyllum connatum|Macrococculus pomiferus|Melicope barbigera|Melicope borbonica|Michelia alba|Mitracarpus hirtus|Moraceae|Orbexilum lupinellum|Orbexilum lupinellus|Orbexilum onobrychis|Orbexilum pedunculatum|Otholobium bolusii|Otholobium candicans|Otholobium foliosum|Otholobium glandulosum|Otholobium hirtum|Otholobium obliquum|Otholobium parviflorum|Otholobium sericeum|Otholobium stachyerum|Otholobium zeyheri|Panax spinosus|Pastinaca sativa|Pastinaca sp.|Pediomelum canescens|Pediomelum subacaule|Petroselinum Crispum|Petroselinum crispum|Petroselinum crispum (Mill.) Fuss|Petroselinum sp.|Peucedanum japonicum|Peucedanum praeruptorum|Peucedanum ruthenicum|Phebalium argenteum|Phebalium clavatum|Pinus formosana|Platypodium elegans|Polyalthia stenopetala|Prangos lipskyi|Prangos tschimganica|Prangos uloptera|Prionosciadium thapsoides|Pseudotsuga japonica|Psilotum nudum|Psoralea Corylifolia|Psoralea affinis|Psoralea arborea|Psoralea cinerea|Psoralea coryfolia|Psoralea corylifolia|Psoralea effusa|Psoralea exile|Psoralea fascicularis|Psoralea glabra|Psoralea lachnostachys|Psoralea leucantha|Psoralea martinii|Psoralea oreopolum|Psoralea papillosa|Psoralea pinnata|Psoralea plumosa|Psoralea pullata|Psoralea pustulata|Psoralea ramulosa|Psoralea repens|Psoralea sp.|Psoralea speciosa|Psoralea subacaulis|Psoralea verrucosa|Psoraleacorylifolia|Pyropia tenera|Radix glehniae|Rhadinothamnus anceps|Rhadinothamnus rudis|Roemeria refracta|Rosa transmorrisonensis|Ruta Graveolens|Ruta chalepensis|Ruta chalepensis L.|Ruta corsica|Ruta graveolens|Ruta graveolens L.|Ruta pinnata|Ruta sp.|Salvia oxyodon|Saposhnikovia divaricata|Saposhnikovia divaricata Schischkin|Securigera cretica|Securigera orientalis|Seseli asperulum|Silene gallica|Skimmia laureola|Strophanthus hispidus|Strychnos henningsii|Tephrosia nitens|Tetradium daniellii|Thamnosma texana|Tithonia diversifolia|Torilis japonica|Trichocline caulescens|Trichocline sinuata|Vernonia scorpioides|Zanthoxylum americanum|Zanthoxylum beecheyanum|Zanthoxylum flavum|Zanthoxylum mayu|Zanthoxylum sp.|Zanthoxylum spinosum|Zanthoxylum zanthoxyloides|parsley

>  <collections>  (1255) 
ANPDB|AfroDB|AnalytiCon Discovery NPs|Australian natural products|CMAUP (cCollective molecular activities of useful plants)|ChEBI NPs|ConMedNP|ETM (Ethiopian Traditional Medicine) DB|FooDB|GNPS (Global Natural Products Social Molecular Networking)|HIT (Herbal Ingredients Targets)|InPACdb|KNApSaCK|Latin America dataset|NANPDB (Natural Products from Northern African Sources)|NPACT|NPASS|NPEdia|NuBBEDB|Phenol-explorer|Phyto4Health|PhytoLab phyproof® Reference Substances|PubChem NPs|Specs Natural Products|Super Natural II|TCMDB-Taiwan (Traditional Chinese Medicine database)|TCMID (Traditional Chinese Medicine Integrated Database)|TIPdb (database of Taiwan indigenous plants)|TPPT (Toxic Plants–PhytoToxins)|UNPD (Universal Natural Products Database)|VietHerb|WikiData Natural Products|p-ANAPL

>  <dois>  (1255) 
10.1002/(SICI)1521-3773(19990201)38:3<400::AID-ANIE400>3.0.CO;2-K|10.1002/9780470744307.gat218|10.1002/CBDV.200900326|10.1002/CHIN.200047207|10.1002/HLCA.19500330631|10.1002/HLCA.19970800507|10.1002/JCCS.200300024|10.1002/JCCS.200400067|10.1002/JCCS.200400159|10.1002/PCA.2800030108|10.1002/PCA.2800040508|10.1002/PCA.2800050308|10.1002/PCA.2800050609|10.1002/PTR.2650040604|10.1002/biuz.19840140514|10.1002/food.19880321030|10.1006/PMPP.1993.1014|10.1007/BF00564008|10.1007/BF00564125|10.1007/BF00566603|10.1007/BF00567813|10.1007/BF00570685|10.1007/BF00570686|10.1007/BF00575725|10.1007/BF00579069|10.1007/BF00579494|10.1007/BF00579656|10.1007/BF00580082|10.1007/BF00630133|10.1007/BF00636001|10.1007/BF00983948|10.1007/BF00993729|10.1007/BF01021776|10.1007/BF01134615|10.1007/BF01374036|10.1007/BF01946434|10.1007/BF02249699|10.1007/BF02968244|10.1007/BF02975883|10.1007/BF02976373|10.1007/BF02976556|10.1007/BF03051221|10.1007/S11418-010-0408-7|10.1007/S12272-011-0103-6|10.1007/bf02976556|10.1016/0031-9422(73)80384-X|10.1016/0031-9422(80)83035-4|10.1016/0031-9422(83)80173-3|10.1016/0031-9422(90)85357-L|10.1016/0031-9422(92)83450-D|10.1016/0031-9422(95)00125-Q|10.1016/0031-9422(95)00625-7|10.1016/0098-8472(91)90043-N|10.1016/0165-7992(90)90123-2|10.1016/0278-6915(83)90231-4|10.1016/0305-1978(88)90076-2|10.1016/0378-8741(89)90033-0|10.1016/J.BMC.2009.04.023|10.1016/J.BMCL.2010.05.091|10.1016/J.BMCL.2013.04.081|10.1016/J.BSE.2004.12.020|10.1016/J.CHROMA.2010.04.076|10.1016/J.FITOTE.2003.12.014|10.1016/J.FITOTE.2003.12.018|10.1016/J.FOODCHEM.2011.09.099|10.1016/J.JCHROMB.2005.04.008|10.1016/J.JEP.2008.06.025|10.1016/J.PHYMED.2003.12.005|10.1016/J.PHYMED.2009.05.015|10.1016/J.PHYTOCHEM.2003.10.028|10.1016/J.PHYTOCHEM.2006.09.017|10.1016/J.PHYTOCHEM.2011.03.008|10.1016/S0031-9422(00)00419-2|10.1016/S0031-9422(00)80348-9|10.1016/S0031-9422(00)81503-4|10.1016/S0031-9422(00)81759-8|10.1016/S0031-9422(00)81908-1|10.1016/S0031-9422(00)85242-5|10.1016/S0031-9422(00)85512-0|10.1016/S0031-9422(00)89841-6|10.1016/S0031-9422(00)90453-9|10.1016/S0031-9422(00)90663-0|10.1016/S0031-9422(00)94506-0|10.1016/S0031-9422(00)97041-9|10.1016/S0031-9422(00)98112-3|10.1016/S0031-9422(01)00423-X|10.1016/S0031-9422(01)00483-6|10.1016/S0031-9422(02)00180-2|10.1016/S0031-9422(97)00105-2|10.1016/S0031-9422(97)00528-1|10.1016/S0031-9422(98)00017-X|10.1016/S0031-9422(98)00356-2|10.1016/S0031-9422(98)00520-2|10.1016/S0031-9422(98)00650-5|10.1016/S0040-4039(01)99141-5|10.1016/S0304-3835(99)00248-7|10.1016/S0305-1978(01)00104-1|10.1016/S0367-326X(02)00083-7|10.1016/S0367-326X(02)00127-2|10.1016/S0378-8741(01)00309-9|10.1016/S0378-8741(98)00137-8|10.1016/j.bmcl.2010.05.091|10.1016/j.bmcl.2013.04.081|10.1016/s0031-9422(00)81503-4|10.1021/JF00029A027|10.1021/JF00100A013|10.1021/JF00111A001|10.1021/NP0104469|10.1021/NP030135T|10.1021/NP50046A035|10.1021/NP50059A021|10.1021/NP50060A016|10.1021/NP50064A013|10.1021/NP500834D|10.1021/NP50087A013|10.1021/NP50093A015|10.1021/NP800387W|10.1021/NP800509U|10.1021/NP970488Q|10.1021/acs.jnatprod.9b00547|10.1021/np50060a016|10.1021/np500834d|10.1021/np970488q|10.1039/P19740001350|10.1039/c7md00388a|10.1046/J.1472-765X.2000.00692.X|10.1055/S-0028-1099842|10.1055/S-0029-1243137|10.1055/S-2000-14894|10.1055/S-2001-18347|10.1055/S-2006-957872|10.1055/S-2006-957987|10.1055/S-2006-960082|10.1055/S-2006-961611|10.1055/S-2006-962473|10.1055/S-2007-969254|10.1055/S-2007-969587|10.1055/S-2007-969641|10.1071/ch9680537|10.1076/PHBI.34.2.114.13188|10.1076/PHBI.35.4.232.13305|10.1080/00021369.1990.10870237|10.1080/10286020.2011.572878|10.1080/10412905.1989.9697787|10.1080/10575639908048490|10.1080/13880200802055800|10.1080/14786419.2010.551769|10.1093/JAOAC/84.4.1135|10.1104/PP.104.1.67|10.1111/J.1432-1033.1983.TB07277.X|10.1111/J.1600-0536.1984.TB00164.X|10.1111/J.1600-0536.1989.TB04747.X|10.1124/mol.108.051698|10.1139/B00-112|10.1139/B89-120|10.1139/B91-065|10.1139/B91-212|10.1139/B93-109|10.1155/2013/974256|10.1211/146080800128735502|10.1246/BCSJ.11.389|10.1248/CPB.28.1782|10.1248/CPB.28.1847|10.1248/CPB.29.2565|10.1248/CPB.31.64|10.1248/CPB.38.1084|10.1248/CPB.46.1408|10.1248/CPB.49.154|10.1248/CPB.49.877|10.1248/CPB.50.73|10.1248/CPB.54.714|10.1271/BBB1961.54.2141|10.1515/ZNB-2005-0514|10.1515/ZNB-2006-0116|10.1590/S0103-50532002000200023|10.2307/1934130|10.3109/13880208409070659|10.3109/13880208909116901|10.3109/13880209109082905|10.3987/COM-89-5267|10.3987/COM-92-6050|10.3987/COM-99-8782|10.4038/JNSFSR.V17I2.8223|10.4268/CJCMM20101214|10.4315/0362-028X-60.1.72|10.48141/SBJCHEM.V7.N8.1999.52_1999.PDF|10.5586/ASBP.1997.039

>  <synonyms>  (1255) 
nan

>  <cas>  (1255) 
66-97-7

$$$$

     RDKit          2D

 25 28  0  0  0  0  0  0  0  0999 V2000
    3.3759   -3.5405    0.0000 C   0  0  0  0  0  0  0  0  0  0  0  0
    3.2153   -2.0491    0.0000 C   0  0  0  0  0  0  0  0  0  0  0  0
    1.8434   -1.4425    0.0000 C   0  0  0  0  0  0  0  0  0  0  0  0
    1.6828    0.0488    0.0000 C   0  0  0  0  0  0  0  0  0  0  0  0
    3.1106   -0.4110    0.0000 C   0  0  0  0  0  0  0  0  0  0  0  0
    4.2227    0.5955    0.0000 C   0  0  0  0  0  0  0  0  0  0  0  0
    5.6505    0.1356    0.0000 O   0  0  0  0  0  0  0  0  0  0  0  0
    5.9661   -1.3308    0.0000 C   0  0  0  0  0  0  0  0  0  0  0  0
    3.9071    2.0619    0.0000 C   0  0  0  0  0  0  0  0  0  0  0  0
    5.0192    3.0685    0.0000 O   0  0  0  0  0  0  0  0  0  0  0  0
    2.4793    2.5218    0.0000 C   0  0  0  0  0  0  0  0  0  0  0  0
    1.3672    1.5153    0.0000 C   0  0  0  0  0  0  0  0  0  0  0  0
   -0.1250    1.6682    0.0000 O   0  0  0  0  0  0  0  0  0  0  0  0
   -0.7316    0.2964    0.0000 C   0  0  0  0  0  0  0  0  0  0  0  0
   -2.1980   -0.0193    0.0000 C   0  0  0  0  0  0  0  0  0  0  0  0
   -2.6579   -1.4470    0.0000 C   0  0  0  0  0  0  0  0  0  0  0  0
   -4.1243   -1.7627    0.0000 C   0  0  0  0  0  0  0  0  0  0  0  0
   -5.1308   -0.6505    0.0000 C   0  0  0  0  0  0  0  0  0  0  0  0
   -6.6308   -0.6544    0.0000 O   0  0  0  0  0  0  0  0  0  0  0  0
   -7.0980    0.7710    0.0000 C   0  0  0  0  0  0  0  0  0  0  0  0
   -5.8867    1.6558    0.0000 O   0  0  0  0  0  0  0  0  0  0  0  0
   -4.6710    0.7773    0.0000 C   0  0  0  0  0  0  0  0  0  0  0  0
   -3.2045    1.0929    0.0000 C   0  0  0  0  0  0  0  0  0  0  0  0
    0.3857   -0.7045    0.0000 C   0  0  0  0  0  0  0  0  0  0  0  0
    0.2327   -2.1967    0.0000 C   0  0  0  0  0  0  0  0  0  0  0  0
  1  2  2  0
  2  3  1  0
  4  3  1  1
  4  5  1  0
  5  6  2  0
  6  7  1  0
  7  8  1  0
  6  9  1  0
  9 10  2  0
  9 11  1  0
 11 12  2  0
 12 13  1  0
 13 14  1  0
 14 15  1  6
 15 16  2  0
 16 17  1  0
 17 18  2  0
 18 19  1  0
 19 20  1  0
 20 21  1  0
 21 22  1  0
 22 23  2  0
 14 24  1  0
 24 25  1  6
 12  4  1  0
 23 15  1  0
 24  4  1  0
 22 18  1  0
M  END
>  <identifier>  (1256) 
CNP0209305.1

>  <canonical_smiles>  (1256) 
C=CC[C@]12C=C(OC)C(=O)C=C1O[C@@H](C1=CC=C3OCOC3=C1)[C@H]2C

>  <standard_inchi>  (1256) 
InChI=1S/C20H20O5/c1-4-7-20-10-17(22-3)14(21)9-18(20)25-19(12(20)2)13-5-6-15-16(8-13)24-11-23-15/h4-6,8-10,12,19H,1,7,11H2,2-3H3/t12-,19-,20-/m1/s1

>  <standard_inchi_key>  (1256) 
SOLJFAQVSWXZEQ-TVNIXMEMSA-N

>  <name>  (1256) 
2-Epi-3a-epiburchellin

>  <iupac_name>  (1256) 
(2~{R},3~{S},3~{a}~{S})-3~{a}-allyl-2-(1,3-benzodioxol-5-yl)-5-methoxy-3-methyl-2,3-dihydrobenzofuran-6-one

>  <annotation_level>  (1256) 
5

>  <total_atom_count>  (1256) 
45

>  <heavy_atom_count>  (1256) 
25

>  <molecular_weight>  (1256) 
340.38

>  <exact_molecular_weight>  (1256) 
340.13107

>  <molecular_formula>  (1256) 
C20H20O5

>  <alogp>  (1256) 
3.68

>  <topological_polar_surface_area>  (1256) 
53.99

>  <rotatable_bond_count>  (1256) 
4

>  <hydrogen_bond_acceptors>  (1256) 
5

>  <hydrogen_bond_donors>  (1256) 
0

>  <hydrogen_bond_acceptors_lipinski>  (1256) 
5

>  <hydrogen_bond_donors_lipinski>  (1256) 
0

>  <lipinski_rule_of_five_violations>  (1256) 
0

>  <aromatic_rings_count>  (1256) 
1

>  <qed_drug_likeliness>  (1256) 
0.78

>  <formal_charge>  (1256) 
0

>  <fractioncsp3>  (1256) 
0.35

>  <number_of_minimal_rings>  (1256) 
4

>  <van_der_walls_volume>  (1256) 
303.19

>  <contains_sugar>  (1256) 
False

>  <contains_ring_sugars>  (1256) 
False

>  <contains_linear_sugars>  (1256) 
False

>  <murcko_framework>  (1256) 
O1c2ccc(cc2OC1)C3OC4=CCC=CC4C3

>  <np_likeness>  (1256) 
2.28

>  <chemical_class>  (1256) 
2-arylbenzofuran flavonoids

>  <chemical_sub_class>  (1256) 
2-arylbenzofuran flavonoids

>  <chemical_super_class>  (1256) 
Phenylpropanoids and polyketides

>  <direct_parent_classification>  (1256) 
2-arylbenzofuran flavonoids

>  <np_classifier_pathway>  (1256) 
Shikimates and Phenylpropanoids

>  <np_classifier_superclass>  (1256) 
Lignans

>  <np_classifier_class>  (1256) 
Neolignans

>  <np_classifier_is_glycoside>  (1256) 
False

>  <organisms>  (1256) 
Aniba|Aniba terminalis|Iryanthera hostmannii|Iryanthera ulei|Magnolia denudata|Nectandra grandiflora|Piper hymenophyllum|Piper wightii

>  <collections>  (1256) 
ChemSpider NPs|GNPS (Global Natural Products Social Molecular Networking)|Latin America dataset|NuBBEDB|PubChem NPs|Super Natural II|WikiData Natural Products|ZINC NP

>  <dois>  (1256) 
10.1016/0031-9422(75)85303-9|10.1016/0031-9422(90)85388-V|10.1016/S0031-9422(97)00075-7|10.1248/CPB.48.832|10.1590/S0103-50532005000400005|10.3891/ACTA.CHEM.SCAND.48-1007

>  <synonyms>  (1256) 
(2R,3S,3aS)-2-(1,3-Benzodioxol-5-yl)-3,3a-dihydro-5-methoxy-3-methyl-3a-(2-propen-1-yl)-6(2H)-benzofuranone|(2R,3S,3aS)-2-(1,3-benzodioxol-5-yl)-5-methoxy-3-methyl-3a-prop-2-enyl-2,3-dihydro-1-benzofuran-6-one|38276-59-4|57457-99-5|AKOS032962700|Burchellin|CHEMBL3186428|CS-0017403|DTXSID301109826|HMS2268B16|HY-N1726|MLS000697746|NCGC00247513-01|SMR000470992|cis-Burchellin

>  <cas>  (1256) 
57457-99-5|38276-59-4

$$$$

     RDKit          2D

 27 30  0  0  0  0  0  0  0  0999 V2000
    8.1552   -0.3061    0.0000 C   0  0  0  0  0  0  0  0  0  0  0  0
    6.7023   -0.6791    0.0000 C   0  0  0  0  0  0  0  0  0  0  0  0
    5.6528    0.3926    0.0000 C   0  0  0  0  0  0  0  0  0  0  0  0
    4.1999    0.0196    0.0000 C   0  0  0  0  0  0  0  0  0  0  0  0
    4.8196   -1.3464    0.0000 O   0  0  0  0  0  0  0  0  0  0  0  0
    3.9464   -2.5660    0.0000 C   0  0  0  0  0  0  0  0  0  0  0  0
    2.9622   -0.8278    0.0000 C   0  0  0  0  0  0  0  0  0  0  0  0
    1.6095   -0.1797    0.0000 C   0  0  0  0  0  0  0  0  0  0  0  0
    1.4945    1.3159    0.0000 C   0  0  0  0  0  0  0  0  0  0  0  0
    2.7321    2.1634    0.0000 C   0  0  0  0  0  0  0  0  0  0  0  0
    4.0849    1.5152    0.0000 C   0  0  0  0  0  0  0  0  0  0  0  0
    5.3226    2.3626    0.0000 O   0  0  0  0  0  0  0  0  0  0  0  0
    0.0365    1.6687    0.0000 O   0  0  0  0  0  0  0  0  0  0  0  0
   -0.7495    0.3911    0.0000 C   0  0  0  0  0  0  0  0  0  0  0  0
   -2.2451    0.2760    0.0000 C   0  0  0  0  0  0  0  0  0  0  0  0
   -2.8932   -1.0767    0.0000 C   0  0  0  0  0  0  0  0  0  0  0  0
   -4.3888   -1.1918    0.0000 C   0  0  0  0  0  0  0  0  0  0  0  0
   -5.0369   -2.5445    0.0000 O   0  0  0  0  0  0  0  0  0  0  0  0
   -4.1895   -3.7822    0.0000 C   0  0  0  0  0  0  0  0  0  0  0  0
   -5.2362    0.0459    0.0000 C   0  0  0  0  0  0  0  0  0  0  0  0
   -6.7230    0.2443    0.0000 O   0  0  0  0  0  0  0  0  0  0  0  0
   -6.9938    1.7197    0.0000 C   0  0  0  0  0  0  0  0  0  0  0  0
   -5.6743    2.4331    0.0000 O   0  0  0  0  0  0  0  0  0  0  0  0
   -4.5881    1.3987    0.0000 C   0  0  0  0  0  0  0  0  0  0  0  0
   -3.0925    1.5137    0.0000 C   0  0  0  0  0  0  0  0  0  0  0  0
    0.2227   -0.7512    0.0000 C   0  0  0  0  0  0  0  0  0  0  0  0
   -0.1301   -2.2092    0.0000 C   0  0  0  0  0  0  0  0  0  0  0  0
  1  2  2  0
  2  3  1  0
  4  3  1  1
  4  5  1  0
  5  6  1  0
  4  7  1  0
  7  8  2  0
  8  9  1  0
  9 10  2  0
 10 11  1  0
 11 12  2  0
  9 13  1  0
 13 14  1  0
 14 15  1  1
 15 16  2  0
 16 17  1  0
 17 18  1  0
 18 19  1  0
 17 20  2  0
 20 21  1  0
 21 22  1  0
 22 23  1  0
 23 24  1  0
 24 25  2  0
 14 26  1  0
 26 27  1  6
 11  4  1  0
 25 15  1  0
 26  8  1  0
 24 20  1  0
M  END
>  <identifier>  (1257) 
CNP0368260.1

>  <canonical_smiles>  (1257) 
C=CC[C@@]1(OC)C=C2C(=CC1=O)O[C@H](C1=CC(OC)=C3OCOC3=C1)[C@H]2C

>  <standard_inchi>  (1257) 
InChI=1S/C21H22O6/c1-5-6-21(24-4)10-14-12(2)19(27-15(14)9-18(21)22)13-7-16(23-3)20-17(8-13)25-11-26-20/h5,7-10,12,19H,1,6,11H2,2-4H3/t12-,19-,21+/m0/s1

>  <standard_inchi_key>  (1257) 
LXIDLKZYDJVPIV-VTOVKPRRSA-N

>  <name>  (1257) 
nan

>  <iupac_name>  (1257) 
(2~{S},3~{S},5~{R})-5-allyl-5-methoxy-2-(7-methoxy-1,3-benzodioxol-5-yl)-3-methyl-2,3-dihydrobenzofuran-6-one

>  <annotation_level>  (1257) 
4

>  <total_atom_count>  (1257) 
49

>  <heavy_atom_count>  (1257) 
27

>  <molecular_weight>  (1257) 
370.4

>  <exact_molecular_weight>  (1257) 
370.14164

>  <molecular_formula>  (1257) 
C21H22O6

>  <alogp>  (1257) 
3.49

>  <topological_polar_surface_area>  (1257) 
63.22

>  <rotatable_bond_count>  (1257) 
5

>  <hydrogen_bond_acceptors>  (1257) 
6

>  <hydrogen_bond_donors>  (1257) 
0

>  <hydrogen_bond_acceptors_lipinski>  (1257) 
6

>  <hydrogen_bond_donors_lipinski>  (1257) 
0

>  <lipinski_rule_of_five_violations>  (1257) 
0

>  <aromatic_rings_count>  (1257) 
1

>  <qed_drug_likeliness>  (1257) 
0.74

>  <formal_charge>  (1257) 
0

>  <fractioncsp3>  (1257) 
0.38

>  <number_of_minimal_rings>  (1257) 
4

>  <van_der_walls_volume>  (1257) 
nan

>  <contains_sugar>  (1257) 
False

>  <contains_ring_sugars>  (1257) 
False

>  <contains_linear_sugars>  (1257) 
False

>  <murcko_framework>  (1257) 
O1c2ccc(cc2OC1)C3OC4=CCCC=C4C3

>  <np_likeness>  (1257) 
2.37

>  <chemical_class>  (1257) 
Benzodioxoles

>  <chemical_sub_class>  (1257) 
Benzodioxoles

>  <chemical_super_class>  (1257) 
Organoheterocyclic compounds

>  <direct_parent_classification>  (1257) 
Benzodioxoles

>  <np_classifier_pathway>  (1257) 
Shikimates and Phenylpropanoids

>  <np_classifier_superclass>  (1257) 
Lignans

>  <np_classifier_class>  (1257) 
Neolignans

>  <np_classifier_is_glycoside>  (1257) 
False

>  <organisms>  (1257) 
Aniba|Aniba riparia|Aniba sp.

>  <collections>  (1257) 
Latin America dataset|NuBBEDB|Super Natural II|WikiData Natural Products|ZINC NP

>  <dois>  (1257) 
10.1016/0031-9422(75)85358-1|10.1016/S0031-9422(00)83890-X|10.1016/S0031-9422(00)89244-4

>  <synonyms>  (1257) 
(2S3S5R)-5-allyl-5-methoxy-2-(3'-methoxy-4'5'-methylenedioxyphenyl)-3-methyl-2356-tetrahydro-6-oxobenzofuran

>  <cas>  (1257) 
nan

$$$$

     RDKit          2D

 33 35  0  0  0  0  0  0  0  0999 V2000
   -7.5175   -1.9757    0.0000 C   0  0  0  0  0  0  0  0  0  0  0  0
   -6.0179   -2.0120    0.0000 O   0  0  0  0  0  0  0  0  0  0  0  0
   -5.2367   -0.7315    0.0000 C   0  0  0  0  0  0  0  0  0  0  0  0
   -5.9550    0.5853    0.0000 C   0  0  0  0  0  0  0  0  0  0  0  0
   -5.1737    1.8658    0.0000 C   0  0  0  0  0  0  0  0  0  0  0  0
   -3.6742    1.8295    0.0000 C   0  0  0  0  0  0  0  0  0  0  0  0
   -2.8929    3.1100    0.0000 C   0  0  0  0  0  0  0  0  0  0  0  0
   -1.3934    3.0736    0.0000 C   0  0  0  0  0  0  0  0  0  0  0  0
   -0.4826    4.2654    0.0000 C   0  0  0  0  0  0  0  0  0  0  0  0
    0.9324    3.7675    0.0000 O   0  0  0  0  0  0  0  0  0  0  0  0
    0.8961    2.2679    0.0000 C   0  0  0  0  0  0  0  0  0  0  0  0
    2.0879    1.3571    0.0000 C   0  0  0  0  0  0  0  0  0  0  0  0
    1.8950   -0.1304    0.0000 C   0  0  0  0  0  0  0  0  0  0  0  0
    3.0868   -1.0412    0.0000 C   0  0  0  0  0  0  0  0  0  0  0  0
    4.4715   -0.4645    0.0000 C   0  0  0  0  0  0  0  0  0  0  0  0
    5.6633   -1.3753    0.0000 O   0  0  0  0  0  0  0  0  0  0  0  0
    5.4704   -2.8628    0.0000 C   0  0  0  0  0  0  0  0  0  0  0  0
    6.6623   -3.7737    0.0000 C   0  0  0  0  0  0  0  0  0  0  0  0
    4.0857   -3.4396    0.0000 O   0  0  0  0  0  0  0  0  0  0  0  0
    4.6644    1.0231    0.0000 C   0  0  0  0  0  0  0  0  0  0  0  0
    6.0491    1.5998    0.0000 O   0  0  0  0  0  0  0  0  0  0  0  0
    6.2420    3.0873    0.0000 C   0  0  0  0  0  0  0  0  0  0  0  0
    3.4726    1.9339    0.0000 C   0  0  0  0  0  0  0  0  0  0  0  0
   -0.5413    1.8391    0.0000 C   0  0  0  0  0  0  0  0  0  0  0  0
   -1.0393    0.4242    0.0000 C   0  0  0  0  0  0  0  0  0  0  0  0
   -0.0629   -0.7145    0.0000 O   0  0  0  0  0  0  0  0  0  0  0  0
   -0.5608   -2.1295    0.0000 C   0  0  0  0  0  0  0  0  0  0  0  0
    0.4156   -3.2682    0.0000 C   0  0  0  0  0  0  0  0  0  0  0  0
   -2.0352   -2.4057    0.0000 O   0  0  0  0  0  0  0  0  0  0  0  0
   -2.9559    0.5127    0.0000 C   0  0  0  0  0  0  0  0  0  0  0  0
   -3.7371   -0.7678    0.0000 C   0  0  0  0  0  0  0  0  0  0  0  0
   -3.0188   -2.0847    0.0000 O   0  0  0  0  0  0  0  0  0  0  0  0
   -3.8000   -3.3652    0.0000 C   0  0  0  0  0  0  0  0  0  0  0  0
  1  2  1  0
  2  3  1  0
  3  4  2  0
  4  5  1  0
  5  6  2  0
  6  7  1  0
  8  7  1  1
  8  9  1  0
  9 10  1  0
 10 11  1  0
 11 12  1  6
 12 13  2  0
 13 14  1  0
 14 15  2  0
 15 16  1  0
 16 17  1  0
 17 18  1  0
 17 19  2  0
 15 20  1  0
 20 21  1  0
 21 22  1  0
 20 23  2  0
 11 24  1  0
 24 25  1  1
 25 26  1  0
 26 27  1  0
 27 28  1  0
 27 29  2  0
  6 30  1  0
 30 31  2  0
 31 32  1  0
 32 33  1  0
 31  3  1  0
 24  8  1  0
 23 12  1  0
M  END
>  <identifier>  (1258) 
CNP0080408.1

>  <canonical_smiles>  (1258) 
COC1=CC=C(C[C@H]2CO[C@H](C3=CC=C(OC(C)=O)C(OC)=C3)[C@H]2COC(C)=O)C=C1OC

>  <standard_inchi>  (1258) 
InChI=1S/C25H30O8/c1-15(26)31-14-20-19(10-17-6-8-21(28-3)23(11-17)29-4)13-32-25(20)18-7-9-22(33-16(2)27)24(12-18)30-5/h6-9,11-12,19-20,25H,10,13-14H2,1-5H3/t19-,20-,25+/m0/s1

>  <standard_inchi_key>  (1258) 
VZPHBGQRBYHTQG-ZYLNGJIFSA-N

>  <name>  (1258) 
nan

>  <iupac_name>  (1258) 
[(2~{S},3~{R},4~{R})-2-(4-acetoxy-3-methoxy-phenyl)-4-[(3,4-dimethoxyphenyl)methyl]tetrahydrofuran-3-yl]methyl acetate

>  <annotation_level>  (1258) 
4

>  <total_atom_count>  (1258) 
63

>  <heavy_atom_count>  (1258) 
33

>  <molecular_weight>  (1258) 
458.51

>  <exact_molecular_weight>  (1258) 
458.19407

>  <molecular_formula>  (1258) 
C25H30O8

>  <alogp>  (1258) 
3.75

>  <topological_polar_surface_area>  (1258) 
89.52

>  <rotatable_bond_count>  (1258) 
9

>  <hydrogen_bond_acceptors>  (1258) 
8

>  <hydrogen_bond_donors>  (1258) 
0

>  <hydrogen_bond_acceptors_lipinski>  (1258) 
8

>  <hydrogen_bond_donors_lipinski>  (1258) 
0

>  <lipinski_rule_of_five_violations>  (1258) 
0

>  <aromatic_rings_count>  (1258) 
2

>  <qed_drug_likeliness>  (1258) 
0.41

>  <formal_charge>  (1258) 
0

>  <fractioncsp3>  (1258) 
0.44

>  <number_of_minimal_rings>  (1258) 
3

>  <van_der_walls_volume>  (1258) 
nan

>  <contains_sugar>  (1258) 
False

>  <contains_ring_sugars>  (1258) 
False

>  <contains_linear_sugars>  (1258) 
False

>  <murcko_framework>  (1258) 
O1CC(Cc2ccccc2)CC1c3ccccc3

>  <np_likeness>  (1258) 
1.12

>  <chemical_class>  (1258) 
Furanoid lignans

>  <chemical_sub_class>  (1258) 
Tetrahydrofuran lignans

>  <chemical_super_class>  (1258) 
Lignans, neolignans and related compounds

>  <direct_parent_classification>  (1258) 
7,9'-epoxylignans

>  <np_classifier_pathway>  (1258) 
Shikimates and Phenylpropanoids

>  <np_classifier_superclass>  (1258) 
Lignans

>  <np_classifier_class>  (1258) 
Furanoid lignans

>  <np_classifier_is_glycoside>  (1258) 
False

>  <organisms>  (1258) 
Araucaria angustifolia

>  <collections>  (1258) 
Latin America dataset|NuBBEDB|WikiData Natural Products|ZINC NP

>  <dois>  (1258) 
10.1016/0031-9422(79)80188-0

>  <synonyms>  (1258) 
lariciresinol-4-methyl ether diacetate

>  <cas>  (1258) 
nan

$$$$

     RDKit          2D

 23 27  0  0  0  0  0  0  0  0999 V2000
   -5.8388   -2.0273    0.0000 C   0  0  0  0  0  0  0  0  0  0  0  0
   -5.1455   -0.6972    0.0000 C   0  0  0  0  0  0  0  0  0  0  0  0
   -3.6469   -0.6325    0.0000 C   0  0  0  0  0  0  0  0  0  0  0  0
   -2.9535    0.6976    0.0000 C   0  0  0  0  0  0  0  0  0  0  0  0
   -1.4549    0.7622    0.0000 N   0  0  0  0  0  0  0  0  0  0  0  0
   -0.6496   -0.5033    0.0000 C   0  0  0  0  0  0  0  0  0  0  0  0
   -1.3430   -1.8334    0.0000 C   0  0  0  0  0  0  0  0  0  0  0  0
   -2.8416   -1.8981    0.0000 C   0  0  0  0  0  0  0  0  0  0  0  0
   -1.7664   -0.0884    0.0000 C   0  0  0  0  0  0  0  0  0  0  0  0
   -3.3573    1.9804    0.0000 C   0  0  0  0  0  0  0  0  0  0  0  0
   -3.4219    3.4790    0.0000 O   0  0  0  0  0  0  0  0  0  0  0  0
   -0.7616    2.0924    0.0000 C   0  0  0  0  0  0  0  0  0  0  0  0
    0.7370    2.1570    0.0000 C   0  0  0  0  0  0  0  0  0  0  0  0
    1.5423    0.8915    0.0000 C   0  0  0  0  0  0  0  0  0  0  0  0
    0.8490   -0.4386    0.0000 C   0  0  0  0  0  0  0  0  0  0  0  0
    1.8998   -1.5091    0.0000 N   0  0  0  0  0  0  0  0  0  0  0  0
    1.6514   -2.9884    0.0000 C   0  0  0  0  0  0  0  0  0  0  0  0
    3.2425   -0.8405    0.0000 C   0  0  0  0  0  0  0  0  0  0  0  0
    4.6379   -1.3910    0.0000 C   0  0  0  0  0  0  0  0  0  0  0  0
    5.8123   -0.4578    0.0000 C   0  0  0  0  0  0  0  0  0  0  0  0
    5.5913    1.0258    0.0000 C   0  0  0  0  0  0  0  0  0  0  0  0
    4.1960    1.5763    0.0000 C   0  0  0  0  0  0  0  0  0  0  0  0
    3.0216    0.6432    0.0000 C   0  0  0  0  0  0  0  0  0  0  0  0
  1  2  1  0
  2  3  2  3
  3  4  1  0
  4  5  1  0
  5  6  1  0
  6  7  1  0
  7  8  1  0
  8  9  1  0
  9 10  1  6
 10 11  1  0
  9 12  1  0
 12 13  1  0
 13 14  1  0
 14 15  2  0
 15 16  1  0
 16 17  1  0
 16 18  1  0
 18 19  2  0
 19 20  1  0
 20 21  2  0
 21 22  1  0
 22 23  2  0
  8  3  1  0
 23 14  1  0
 12  5  1  0
 23 18  1  0
  6 15  1  6
M  END
>  <identifier>  (1259) 
CNP0325200.4

>  <canonical_smiles>  (1259) 
CC=C1CN2[C@H]3CC1[C@@H](CO)[C@@H]2CC1=C3N(C)C2=CC=CC=C12

>  <standard_inchi>  (1259) 
InChI=1S/C20H24N2O/c1-3-12-10-22-18-9-15-13-6-4-5-7-17(13)21(2)20(15)19(22)8-14(12)16(18)11-23/h3-7,14,16,18-19,23H,8-11H2,1-2H3/t14?,16-,18+,19+/m1/s1

>  <standard_inchi_key>  (1259) 
UVWQYWHKTZABSO-BPCZDRIXSA-N

>  <name>  (1259) 
nan

>  <iupac_name>  (1259) 
[(1~{S},12~{S},13~{R})-15-ethylidene-3-methyl-3,17-diazapentacyclo[12.3.1.0^{2,10}.0^{4,9}.0^{12,17}]octadeca-2(10),4,6,8-tetraen-13-yl]methanol

>  <annotation_level>  (1259) 
4

>  <total_atom_count>  (1259) 
47

>  <heavy_atom_count>  (1259) 
23

>  <molecular_weight>  (1259) 
308.42

>  <exact_molecular_weight>  (1259) 
308.18886

>  <molecular_formula>  (1259) 
C20H24N2O

>  <alogp>  (1259) 
3.03

>  <topological_polar_surface_area>  (1259) 
28.40

>  <rotatable_bond_count>  (1259) 
1

>  <hydrogen_bond_acceptors>  (1259) 
3

>  <hydrogen_bond_donors>  (1259) 
1

>  <hydrogen_bond_acceptors_lipinski>  (1259) 
3

>  <hydrogen_bond_donors_lipinski>  (1259) 
1

>  <lipinski_rule_of_five_violations>  (1259) 
0

>  <aromatic_rings_count>  (1259) 
2

>  <qed_drug_likeliness>  (1259) 
0.82

>  <formal_charge>  (1259) 
0

>  <fractioncsp3>  (1259) 
0.50

>  <number_of_minimal_rings>  (1259) 
6

>  <van_der_walls_volume>  (1259) 
nan

>  <contains_sugar>  (1259) 
False

>  <contains_ring_sugars>  (1259) 
False

>  <contains_linear_sugars>  (1259) 
False

>  <murcko_framework>  (1259) 
c1ccc2c(c1)[nH]c3c2CC4N5CCC(CC35)C4

>  <np_likeness>  (1259) 
2.11

>  <chemical_class>  (1259) 
Macroline alkaloids

>  <chemical_sub_class>  (1259) 
Macroline alkaloids

>  <chemical_super_class>  (1259) 
Alkaloids and derivatives

>  <direct_parent_classification>  (1259) 
Macroline alkaloids

>  <np_classifier_pathway>  (1259) 
Alkaloids

>  <np_classifier_superclass>  (1259) 
Tryptophan alkaloids

>  <np_classifier_class>  (1259) 
Corynanthe type

>  <np_classifier_is_glycoside>  (1259) 
False

>  <organisms>  (1259) 
Tabernaemontana heterophylla

>  <collections>  (1259) 
Latin America dataset|NuBBEDB

>  <dois>  (1259) 
10.1590/1809-43921983132409

>  <synonyms>  (1259) 
Affinisine

>  <cas>  (1259) 
nan

$$$$

     RDKit          2D

 35 39  0  0  0  0  0  0  0  0999 V2000
   -7.0273    3.5088    0.0000 C   0  0  0  0  0  0  0  0  0  0  0  0
   -6.5366    2.0913    0.0000 C   0  0  0  0  0  0  0  0  0  0  0  0
   -7.5189    0.9576    0.0000 O   0  0  0  0  0  0  0  0  0  0  0  0
   -5.0637    1.8074    0.0000 O   0  0  0  0  0  0  0  0  0  0  0  0
   -4.5731    0.3899    0.0000 C   0  0  0  0  0  0  0  0  0  0  0  0
   -3.1002    0.1061    0.0000 C   0  0  0  0  0  0  0  0  0  0  0  0
   -2.1180    1.2397    0.0000 O   0  0  0  0  0  0  0  0  0  0  0  0
   -0.6451    0.9559    0.0000 C   0  0  0  0  0  0  0  0  0  0  0  0
   -0.1544   -0.4616    0.0000 C   0  0  0  0  0  0  0  0  0  0  0  0
    1.3185   -0.7455    0.0000 C   0  0  0  0  0  0  0  0  0  0  0  0
    2.3007    0.3882    0.0000 C   0  0  0  0  0  0  0  0  0  0  0  0
    1.8101    1.8057    0.0000 C   0  0  0  0  0  0  0  0  0  0  0  0
    0.3372    2.0895    0.0000 C   0  0  0  0  0  0  0  0  0  0  0  0
   -0.1534    3.5070    0.0000 O   0  0  0  0  0  0  0  0  0  0  0  0
    2.7924    2.9393    0.0000 O   0  0  0  0  0  0  0  0  0  0  0  0
    4.2653    2.6555    0.0000 C   0  0  0  0  0  0  0  0  0  0  0  0
    5.2476    3.7891    0.0000 O   0  0  0  0  0  0  0  0  0  0  0  0
    4.7559    1.2380    0.0000 C   0  0  0  0  0  0  0  0  0  0  0  0
    6.2288    0.9541    0.0000 C   0  0  0  0  0  0  0  0  0  0  0  0
    6.7194   -0.4634    0.0000 C   0  0  0  0  0  0  0  0  0  0  0  0
    8.1923   -0.7472    0.0000 O   0  0  0  0  0  0  0  0  0  0  0  0
    5.7372   -1.5970    0.0000 C   0  0  0  0  0  0  0  0  0  0  0  0
    6.2278   -3.0145    0.0000 O   0  0  0  0  0  0  0  0  0  0  0  0
    4.2643   -1.3132    0.0000 C   0  0  0  0  0  0  0  0  0  0  0  0
    3.7736    0.1043    0.0000 C   0  0  0  0  0  0  0  0  0  0  0  0
    3.2820   -2.4468    0.0000 O   0  0  0  0  0  0  0  0  0  0  0  0
    1.8091   -2.1630    0.0000 C   0  0  0  0  0  0  0  0  0  0  0  0
    0.8268   -3.2966    0.0000 O   0  0  0  0  0  0  0  0  0  0  0  0
   -2.6096   -1.3114    0.0000 O   0  0  0  0  0  0  0  0  0  0  0  0
   -3.5919   -2.4450    0.0000 C   0  0  0  0  0  0  0  0  0  0  0  0
   -3.1012   -3.8625    0.0000 C   0  0  0  0  0  0  0  0  0  0  0  0
   -5.0648   -2.1612    0.0000 C   0  0  0  0  0  0  0  0  0  0  0  0
   -6.0470   -3.2948    0.0000 O   0  0  0  0  0  0  0  0  0  0  0  0
   -5.5554   -0.7437    0.0000 C   0  0  0  0  0  0  0  0  0  0  0  0
   -7.0283   -0.4598    0.0000 O   0  0  0  0  0  0  0  0  0  0  0  0
  1  2  1  0
  2  3  2  0
  2  4  1  0
  5  4  1  1
  5  6  1  0
  6  7  1  6
  7  8  1  0
  8  9  2  0
  9 10  1  0
 10 11  2  0
 11 12  1  0
 12 13  2  0
 13 14  1  0
 12 15  1  0
 15 16  1  0
 16 17  2  0
 16 18  1  0
 18 19  2  0
 19 20  1  0
 20 21  1  0
 20 22  2  0
 22 23  1  0
 22 24  1  0
 24 25  2  0
 24 26  1  0
 26 27  1  0
 27 28  2  0
  6 29  1  0
 29 30  1  0
 30 31  1  1
 30 32  1  0
 32 33  1  6
 32 34  1  0
 34 35  1  1
 34  5  1  0
 13  8  1  0
 25 18  1  0
 27 10  1  0
 25 11  1  0
M  END
>  <identifier>  (1260) 
CNP0170959.1

>  <canonical_smiles>  (1260) 
CC(=O)O[C@H]1[C@H](OC2=CC3=C4C(=C2O)OC(=O)C2=CC(O)=C(O)C(=C24)OC3=O)O[C@@H](C)[C@H](O)[C@H]1O

>  <standard_inchi>  (1260) 
InChI=1S/C22H18O13/c1-5-13(25)16(28)19(32-6(2)23)22(31-5)33-10-4-8-12-11-7(20(29)35-18(12)15(10)27)3-9(24)14(26)17(11)34-21(8)30/h3-5,13,16,19,22,24-28H,1-2H3/t5-,13-,16+,19+,22-/m0/s1

>  <standard_inchi_key>  (1260) 
GPWDZAKJMGLHSG-BGTADKINSA-N

>  <name>  (1260) 
nan

>  <iupac_name>  (1260) 
[(2~{S},3~{R},4~{R},5~{R},6~{S})-4,5-dihydroxy-6-methyl-2-[(7,13,14-trihydroxy-3,10-dioxo-2,9-dioxatetracyclo[6.6.2.0^{4,16}.0^{11,15}]hexadeca-1(15),4(16),5,7,11,13-hexaen-6-yl)oxy]tetrahydropyran-3-yl] acetate

>  <annotation_level>  (1260) 
4

>  <total_atom_count>  (1260) 
53

>  <heavy_atom_count>  (1260) 
35

>  <molecular_weight>  (1260) 
490.37

>  <exact_molecular_weight>  (1260) 
490.07474

>  <molecular_formula>  (1260) 
C22H18O13

>  <alogp>  (1260) 
0.38

>  <topological_polar_surface_area>  (1260) 
206.33

>  <rotatable_bond_count>  (1260) 
3

>  <hydrogen_bond_acceptors>  (1260) 
13

>  <hydrogen_bond_donors>  (1260) 
5

>  <hydrogen_bond_acceptors_lipinski>  (1260) 
13

>  <hydrogen_bond_donors_lipinski>  (1260) 
5

>  <lipinski_rule_of_five_violations>  (1260) 
1

>  <aromatic_rings_count>  (1260) 
4

>  <qed_drug_likeliness>  (1260) 
0.11

>  <formal_charge>  (1260) 
0

>  <fractioncsp3>  (1260) 
0.32

>  <number_of_minimal_rings>  (1260) 
5

>  <van_der_walls_volume>  (1260) 
nan

>  <contains_sugar>  (1260) 
True

>  <contains_ring_sugars>  (1260) 
True

>  <contains_linear_sugars>  (1260) 
False

>  <murcko_framework>  (1260) 
O1c2cccc3c2-c4c(OC3)cc(OC5OCCCC5)cc4C1

>  <np_likeness>  (1260) 
2.12

>  <chemical_class>  (1260) 
Tannins

>  <chemical_sub_class>  (1260) 
Hydrolyzable tannins

>  <chemical_super_class>  (1260) 
Phenylpropanoids and polyketides

>  <direct_parent_classification>  (1260) 
Hydrolyzable tannins

>  <np_classifier_pathway>  (1260) 
Shikimates and Phenylpropanoids

>  <np_classifier_superclass>  (1260) 
Coumarins

>  <np_classifier_class>  (1260) 
Simple coumarins

>  <np_classifier_is_glycoside>  (1260) 
True

>  <organisms>  (1260) 
Siphoneugena densiflora|Syzygium cumini

>  <collections>  (1260) 
Australian natural products|Latin America dataset|NuBBEDB|WikiData Natural Products|ZINC NP

>  <dois>  (1260) 
10.1002/PS.1278|10.1002/ps.1278|10.1177/1934578X0900401012|10.1177/1934578x0900401012|10.1590/S0103-50532006000200010

>  <synonyms>  (1260) 
Ellagic acid 4-O-\u221a\u00e9\u00ac\u00b1-L-2''-O-acetylrhamnopyranoside

>  <cas>  (1260) 
nan

$$$$

     RDKit          2D

 30 33  0  0  0  0  0  0  0  0999 V2000
   -4.6645    4.1005    0.0000 C   0  0  0  0  0  0  0  0  0  0  0  0
   -4.3547    2.6328    0.0000 C   0  0  0  0  0  0  0  0  0  0  0  0
   -2.9287    2.1673    0.0000 C   0  0  0  0  0  0  0  0  0  0  0  0
   -5.4708    1.6307    0.0000 C   0  0  0  0  0  0  0  0  0  0  0  0
   -6.8967    2.0962    0.0000 C   0  0  0  0  0  0  0  0  0  0  0  0
   -5.1610    0.1630    0.0000 C   0  0  0  0  0  0  0  0  0  0  0  0
   -3.7350   -0.3025    0.0000 C   0  0  0  0  0  0  0  0  0  0  0  0
   -3.4252   -1.7702    0.0000 C   0  0  0  0  0  0  0  0  0  0  0  0
   -4.5413   -2.7723    0.0000 C   0  0  0  0  0  0  0  0  0  0  0  0
   -1.9993   -2.2357    0.0000 C   0  0  0  0  0  0  0  0  0  0  0  0
   -1.5378   -3.6629    0.0000 C   0  0  0  0  0  0  0  0  0  0  0  0
   -0.0378   -3.6650    0.0000 C   0  0  0  0  0  0  0  0  0  0  0  0
    0.4278   -2.2391    0.0000 C   0  0  0  0  0  0  0  0  0  0  0  0
    1.7989   -1.6309    0.0000 C   0  0  0  0  0  0  0  0  0  0  0  0
    3.0112   -2.5142    0.0000 C   0  0  0  0  0  0  0  0  0  0  0  0
    4.3824   -1.9061    0.0000 C   0  0  0  0  0  0  0  0  0  0  0  0
    4.5413   -0.4145    0.0000 C   0  0  0  0  0  0  0  0  0  0  0  0
    5.9124    0.1937    0.0000 C   0  0  0  0  0  0  0  0  0  0  0  0
    6.0713    1.6853    0.0000 C   0  0  0  0  0  0  0  0  0  0  0  0
    7.4425    2.2934    0.0000 O   0  0  0  0  0  0  0  0  0  0  0  0
    4.8590    2.5686    0.0000 C   0  0  0  0  0  0  0  0  0  0  0  0
    3.4878    1.9604    0.0000 C   0  0  0  0  0  0  0  0  0  0  0  0
    3.3290    0.4689    0.0000 C   0  0  0  0  0  0  0  0  0  0  0  0
    2.1167    1.3522    0.0000 C   0  0  0  0  0  0  0  0  0  0  0  0
    1.9578   -0.1393    0.0000 C   0  0  0  0  0  0  0  0  0  0  0  0
    0.7455    0.7441    0.0000 C   0  0  0  0  0  0  0  0  0  0  0  0
   -0.6257    0.1359    0.0000 C   0  0  0  0  0  0  0  0  0  0  0  0
   -1.8380    1.0192    0.0000 O   0  0  0  0  0  0  0  0  0  0  0  0
   -0.7845   -1.3557    0.0000 C   0  0  0  0  0  0  0  0  0  0  0  0
   -2.0825   -0.6039    0.0000 C   0  0  0  0  0  0  0  0  0  0  0  0
  1  2  1  0
  2  3  1  0
  2  4  1  0
  4  5  1  0
  4  6  1  0
  6  7  1  0
  7  8  1  0
  8  9  1  6
  8 10  1  0
 10 11  1  6
 11 12  1  0
 12 13  1  0
 13 14  1  0
 14 15  1  0
 15 16  1  0
 16 17  1  0
 17 18  2  0
 18 19  1  0
 19 20  2  0
 19 21  1  0
 21 22  1  0
 22 23  1  0
 23 24  1  6
 23 25  1  0
 25 26  1  0
 26 27  1  0
 27 28  1  6
 27 29  1  0
 29 30  1  6
 29 10  1  0
 29 13  1  0
 25 14  1  0
 23 17  1  0
M  END
>  <identifier>  (1261) 
CNP0080534.1

>  <canonical_smiles>  (1261) 
CC(C)C(C)CC[C@@H](C)[C@H]1CCC2C3CCC4=CC(=O)CC[C@]4(C)C3C[C@@H](O)[C@@]21C

>  <standard_inchi>  (1261) 
InChI=1S/C28H46O2/c1-17(2)18(3)7-8-19(4)23-11-12-24-22-10-9-20-15-21(29)13-14-27(20,5)25(22)16-26(30)28(23,24)6/h15,17-19,22-26,30H,7-14,16H2,1-6H3/t18?,19-,22?,23-,24?,25?,26-,27+,28-/m1/s1

>  <standard_inchi_key>  (1261) 
IZEARVDHWBTRLQ-ZOEPRMAASA-N

>  <name>  (1261) 
nan

>  <iupac_name>  (1261) 
(10~{R},12~{R},13~{R},17~{R})-12-hydroxy-10,13-dimethyl-17-[(1~{R})-1,4,5-trimethylhexyl]-1,2,6,7,8,9,11,12,14,15,16,17-dodecahydrocyclopenta[a]phenanthren-3-one

>  <annotation_level>  (1261) 
4

>  <total_atom_count>  (1261) 
76

>  <heavy_atom_count>  (1261) 
30

>  <molecular_weight>  (1261) 
414.67

>  <exact_molecular_weight>  (1261) 
414.34978

>  <molecular_formula>  (1261) 
C28H46O2

>  <alogp>  (1261) 
6.81

>  <topological_polar_surface_area>  (1261) 
37.30

>  <rotatable_bond_count>  (1261) 
5

>  <hydrogen_bond_acceptors>  (1261) 
2

>  <hydrogen_bond_donors>  (1261) 
1

>  <hydrogen_bond_acceptors_lipinski>  (1261) 
2

>  <hydrogen_bond_donors_lipinski>  (1261) 
1

>  <lipinski_rule_of_five_violations>  (1261) 
1

>  <aromatic_rings_count>  (1261) 
0

>  <qed_drug_likeliness>  (1261) 
0.54

>  <formal_charge>  (1261) 
0

>  <fractioncsp3>  (1261) 
0.89

>  <number_of_minimal_rings>  (1261) 
4

>  <van_der_walls_volume>  (1261) 
nan

>  <contains_sugar>  (1261) 
False

>  <contains_ring_sugars>  (1261) 
False

>  <contains_linear_sugars>  (1261) 
False

>  <murcko_framework>  (1261) 
C1=C2CCC3C(CCC4CCCC43)C2CCC1

>  <np_likeness>  (1261) 
2.65

>  <chemical_class>  (1261) 
Steroids and steroid derivatives

>  <chemical_sub_class>  (1261) 
Ergostane steroids

>  <chemical_super_class>  (1261) 
Lipids and lipid-like molecules

>  <direct_parent_classification>  (1261) 
Ergosterols and derivatives

>  <np_classifier_pathway>  (1261) 
Terpenoids

>  <np_classifier_superclass>  (1261) 
Steroids

>  <np_classifier_class>  (1261) 
Cholestane steroids

>  <np_classifier_is_glycoside>  (1261) 
False

>  <organisms>  (1261) 
Trichilia lepidota

>  <collections>  (1261) 
Latin America dataset|NuBBEDB

>  <dois>  (1261) 
10.1590/S0103-50532002000300014

>  <synonyms>  (1261) 
24-methyl-12\u221a\u00e9\u00ac\u2264-hydroxycholest-4-en-3-one

>  <cas>  (1261) 
nan

$$$$

     RDKit          2D

 25 27  0  0  0  0  0  0  0  0999 V2000
   -7.2612   -2.0109    0.0000 C   0  0  0  0  0  0  0  0  0  0  0  0
   -6.1216   -1.0355    0.0000 C   0  0  0  0  0  0  0  0  0  0  0  0
   -6.3966    0.4391    0.0000 C   0  0  0  0  0  0  0  0  0  0  0  0
   -4.7072   -1.5347    0.0000 C   0  0  0  0  0  0  0  0  0  0  0  0
   -3.5676   -0.5593    0.0000 C   0  0  0  0  0  0  0  0  0  0  0  0
   -3.8425    0.9153    0.0000 O   0  0  0  0  0  0  0  0  0  0  0  0
   -2.1531   -1.0585    0.0000 O   0  0  0  0  0  0  0  0  0  0  0  0
   -1.0135   -0.0831    0.0000 C   0  0  0  0  0  0  0  0  0  0  0  0
    0.4010   -0.5823    0.0000 C   0  0  0  0  0  0  0  0  0  0  0  0
    0.6759   -2.0569    0.0000 O   0  0  0  0  0  0  0  0  0  0  0  0
    1.5406    0.3931    0.0000 C   0  0  0  0  0  0  0  0  0  0  0  0
    1.2656    1.8676    0.0000 C   0  0  0  0  0  0  0  0  0  0  0  0
    2.4052    2.8430    0.0000 C   0  0  0  0  0  0  0  0  0  0  0  0
    3.8197    2.3438    0.0000 C   0  0  0  0  0  0  0  0  0  0  0  0
    4.0946    0.8692    0.0000 C   0  0  0  0  0  0  0  0  0  0  0  0
    2.9550   -0.1062    0.0000 C   0  0  0  0  0  0  0  0  0  0  0  0
    3.2300   -1.5807    0.0000 O   0  0  0  0  0  0  0  0  0  0  0  0
    4.6445   -2.0799    0.0000 C   0  0  0  0  0  0  0  0  0  0  0  0
    4.9194   -3.5545    0.0000 O   0  0  0  0  0  0  0  0  0  0  0  0
    5.7840   -1.1046    0.0000 C   0  0  0  0  0  0  0  0  0  0  0  0
    5.5091    0.3700    0.0000 C   0  0  0  0  0  0  0  0  0  0  0  0
   -0.1489    2.3668    0.0000 O   0  0  0  0  0  0  0  0  0  0  0  0
   -1.2884    1.3915    0.0000 C   0  0  0  0  0  0  0  0  0  0  0  0
   -2.0511    2.6831    0.0000 C   0  0  0  0  0  0  0  0  0  0  0  0
   -2.6929    0.8647    0.0000 C   0  0  0  0  0  0  0  0  0  0  0  0
  1  2  1  0
  2  3  1  0
  2  4  1  0
  4  5  1  0
  5  6  2  0
  5  7  1  0
  8  7  1  1
  8  9  1  0
  9 10  1  6
  9 11  1  0
 11 12  2  0
 12 13  1  0
 13 14  2  0
 14 15  1  0
 15 16  2  0
 16 17  1  0
 17 18  1  0
 18 19  2  0
 18 20  1  0
 20 21  2  0
 12 22  1  0
 22 23  1  0
 23 24  1  0
 23 25  1  0
 23  8  1  0
 16 11  1  0
 21 15  1  0
M  END
>  <identifier>  (1262) 
CNP0210171.1

>  <canonical_smiles>  (1262) 
CC(C)CC(=O)O[C@@H]1[C@@H](O)C2=C(C=CC3=C2OC(=O)C=C3)OC1(C)C

>  <standard_inchi>  (1262) 
InChI=1S/C19H22O6/c1-10(2)9-14(21)24-18-16(22)15-12(25-19(18,3)4)7-5-11-6-8-13(20)23-17(11)15/h5-8,10,16,18,22H,9H2,1-4H3/t16-,18+/m0/s1

>  <standard_inchi_key>  (1262) 
GWZZKJQYTUFZHD-FUHWJXTLSA-N

>  <name>  (1262) 
S4SHG278QS

>  <iupac_name>  (1262) 
[(9~{R},10~{S})-10-hydroxy-8,8-dimethyl-2-oxo-9,10-dihydropyrano[2,3-f]chromen-9-yl] 3-methylbutanoate

>  <annotation_level>  (1262) 
5

>  <total_atom_count>  (1262) 
47

>  <heavy_atom_count>  (1262) 
25

>  <molecular_weight>  (1262) 
346.38

>  <exact_molecular_weight>  (1262) 
346.14164

>  <molecular_formula>  (1262) 
C19H22O6

>  <alogp>  (1262) 
2.96

>  <topological_polar_surface_area>  (1262) 
85.97

>  <rotatable_bond_count>  (1262) 
3

>  <hydrogen_bond_acceptors>  (1262) 
6

>  <hydrogen_bond_donors>  (1262) 
1

>  <hydrogen_bond_acceptors_lipinski>  (1262) 
6

>  <hydrogen_bond_donors_lipinski>  (1262) 
1

>  <lipinski_rule_of_five_violations>  (1262) 
0

>  <aromatic_rings_count>  (1262) 
2

>  <qed_drug_likeliness>  (1262) 
0.68

>  <formal_charge>  (1262) 
0

>  <fractioncsp3>  (1262) 
0.47

>  <number_of_minimal_rings>  (1262) 
3

>  <van_der_walls_volume>  (1262) 
309.70

>  <contains_sugar>  (1262) 
False

>  <contains_ring_sugars>  (1262) 
False

>  <contains_linear_sugars>  (1262) 
False

>  <murcko_framework>  (1262) 
O1c2ccc3C=CCOc3c2CCC1

>  <np_likeness>  (1262) 
2.12

>  <chemical_class>  (1262) 
Coumarins and derivatives

>  <chemical_sub_class>  (1262) 
Pyranocoumarins

>  <chemical_super_class>  (1262) 
Phenylpropanoids and polyketides

>  <direct_parent_classification>  (1262) 
Angular pyranocoumarins

>  <np_classifier_pathway>  (1262) 
Shikimates and Phenylpropanoids

>  <np_classifier_superclass>  (1262) 
Coumarins

>  <np_classifier_class>  (1262) 
Pyranocoumarins

>  <np_classifier_is_glycoside>  (1262) 
False

>  <organisms>  (1262) 
Asterolasia squamuligera|Catharanthus roseus|Cinnamomum tenuifolium|Citrus junos|Citrus sinensis|Jaspis stellifera|Moringa oleifera|Petriella guttulata|Phyllobates aurotaenia|Pluchea dioscoridis|Pyrola rotundifolia|Stevia alpina|Stoeba extensa|Streptomyces violaceochromogenes|Strophanthus eminii

>  <collections>  (1262) 
CMAUP (cCollective molecular activities of useful plants)|Latin America dataset|NPASS|NuBBEDB|Super Natural II

>  <dois>  (1262) 
10.1021/jf801103p

>  <synonyms>  (1262) 
85165-97-5|BUTANOIC ACID, 3-METHYL-, (9R,10S)-9,10-DIHYDRO-10-HYDROXY-8,8-DIMETHYL-2-OXO-2H,8H-BENZO(1,2-B:3,4-B')DIPYRAN-9-YL ESTER|Butanoic acid, 3-methyl-, 9,10-dihydro-10-hydroxy-8,8-dimethyl-2-oxo-2H,8H-benzo(1,2-b:3,4-b')dipyran-9-yl ester, (9R-trans)-|Junosmarin|UNII-S4SHG278QS

>  <cas>  (1262) 
85165-97-5

$$$$

     RDKit          2D

 23 24  0  0  0  0  0  0  0  0999 V2000
   -7.4174   -2.6020    0.0000 O   0  0  0  0  0  0  0  0  0  0  0  0
   -7.1715   -1.1223    0.0000 C   0  0  0  0  0  0  0  0  0  0  0  0
   -8.3300   -0.1695    0.0000 C   0  0  0  0  0  0  0  0  0  0  0  0
   -8.0842    1.3102    0.0000 C   0  0  0  0  0  0  0  0  0  0  0  0
   -6.6798    1.8371    0.0000 C   0  0  0  0  0  0  0  0  0  0  0  0
   -5.5212    0.8844    0.0000 C   0  0  0  0  0  0  0  0  0  0  0  0
   -4.1168    1.4113    0.0000 C   0  0  0  0  0  0  0  0  0  0  0  0
   -2.9583    0.4585    0.0000 C   0  0  0  0  0  0  0  0  0  0  0  0
   -1.5539    0.9854    0.0000 C   0  0  0  0  0  0  0  0  0  0  0  0
   -0.3954    0.0326    0.0000 C   0  0  0  0  0  0  0  0  0  0  0  0
   -0.6412   -1.4471    0.0000 O   0  0  0  0  0  0  0  0  0  0  0  0
    1.0090    0.5596    0.0000 C   0  0  0  0  0  0  0  0  0  0  0  0
    2.1676   -0.3932    0.0000 C   0  0  0  0  0  0  0  0  0  0  0  0
    1.9217   -1.8729    0.0000 O   0  0  0  0  0  0  0  0  0  0  0  0
    3.5720    0.1337    0.0000 C   0  0  0  0  0  0  0  0  0  0  0  0
    4.7305   -0.8191    0.0000 C   0  0  0  0  0  0  0  0  0  0  0  0
    6.1349   -0.2922    0.0000 C   0  0  0  0  0  0  0  0  0  0  0  0
    7.2935   -1.2449    0.0000 C   0  0  0  0  0  0  0  0  0  0  0  0
    8.6979   -0.7180    0.0000 C   0  0  0  0  0  0  0  0  0  0  0  0
    8.9437    0.7617    0.0000 C   0  0  0  0  0  0  0  0  0  0  0  0
    7.7852    1.7145    0.0000 C   0  0  0  0  0  0  0  0  0  0  0  0
    6.3808    1.1875    0.0000 C   0  0  0  0  0  0  0  0  0  0  0  0
   -5.7671   -0.5953    0.0000 O   0  0  0  0  0  0  0  0  0  0  0  0
  1  2  2  0
  2  3  1  0
  3  4  2  0
  4  5  1  0
  5  6  1  0
  6  7  1  6
  7  8  2  0
  8  9  1  0
  9 10  1  0
 10 11  1  1
 10 12  1  0
 12 13  1  0
 13 14  1  6
 13 15  1  0
 15 16  2  0
 16 17  1  0
 17 18  2  0
 18 19  1  0
 19 20  2  0
 20 21  1  0
 21 22  2  0
  6 23  1  0
 23  2  1  0
 22 17  1  0
M  END
>  <identifier>  (1263) 
CNP0276575.2

>  <canonical_smiles>  (1263) 
O=C1C=CC[C@H](/C=C/C[C@H](O)C[C@@H](O)/C=C/C2=CC=CC=C2)O1

>  <standard_inchi>  (1263) 
InChI=1S/C19H22O4/c20-16(8-4-9-18-10-5-11-19(22)23-18)14-17(21)13-12-15-6-2-1-3-7-15/h1-7,9,11-13,16-18,20-21H,8,10,14H2/b9-4+,13-12+/t16-,17-,18-/m0/s1

>  <standard_inchi_key>  (1263) 
JSKFCRSAYKODTM-RURAAYBUSA-N

>  <name>  (1263) 
Cryptofolione

>  <iupac_name>  (1263) 
(2~{R})-2-[(1~{E},4~{S},6~{R},7~{E})-4,6-dihydroxy-8-phenyl-octa-1,7-dienyl]-2,3-dihydropyran-6-one

>  <annotation_level>  (1263) 
5

>  <total_atom_count>  (1263) 
45

>  <heavy_atom_count>  (1263) 
23

>  <molecular_weight>  (1263) 
314.38

>  <exact_molecular_weight>  (1263) 
314.15181

>  <molecular_formula>  (1263) 
C19H22O4

>  <alogp>  (1263) 
2.63

>  <topological_polar_surface_area>  (1263) 
66.76

>  <rotatable_bond_count>  (1263) 
7

>  <hydrogen_bond_acceptors>  (1263) 
4

>  <hydrogen_bond_donors>  (1263) 
2

>  <hydrogen_bond_acceptors_lipinski>  (1263) 
4

>  <hydrogen_bond_donors_lipinski>  (1263) 
2

>  <lipinski_rule_of_five_violations>  (1263) 
0

>  <aromatic_rings_count>  (1263) 
1

>  <qed_drug_likeliness>  (1263) 
0.60

>  <formal_charge>  (1263) 
0

>  <fractioncsp3>  (1263) 
0.32

>  <number_of_minimal_rings>  (1263) 
2

>  <van_der_walls_volume>  (1263) 
298.96

>  <contains_sugar>  (1263) 
False

>  <contains_ring_sugars>  (1263) 
False

>  <contains_linear_sugars>  (1263) 
False

>  <murcko_framework>  (1263) 
O1CC=CCC1C=CCCCCC=Cc2ccccc2

>  <np_likeness>  (1263) 
2.55

>  <chemical_class>  (1263) 
Cinnamyl alcohols

>  <chemical_sub_class>  (1263) 
Cinnamyl alcohols

>  <chemical_super_class>  (1263) 
Phenylpropanoids and polyketides

>  <direct_parent_classification>  (1263) 
Cinnamyl alcohols

>  <np_classifier_pathway>  (1263) 
Shikimates and Phenylpropanoids

>  <np_classifier_superclass>  (1263) 
Styrylpyrones

>  <np_classifier_class>  (1263) 
Kavalactones and derivatives

>  <np_classifier_is_glycoside>  (1263) 
False

>  <organisms>  (1263) 
Cryptocarya latifolia|Cryptocarya liebertiana|Cryptocarya mandioccana|Cryptocarya moschata|Cryptocarya myrtifolia|Cryptocarya woodii|Cryptocarya wyliei

>  <collections>  (1263) 
ChemSpider NPs|KNApSaCK|Latin America dataset|NuBBEDB|Super Natural II|WikiData Natural Products|ZINC NP

>  <dois>  (1263) 
10.1016/0031-9422(95)92696-6|10.1016/J.BSE.2008.05.001|10.1016/S0031-9422(00)90368-6|10.1016/S0031-9422(96)00464-5|10.1016/S0031-9422(99)00532-4|10.1016/S0305-1978(01)00129-6|10.1016/j.bse.2008.05.001

>  <synonyms>  (1263) 
(2R)-2-[(1E,4S,6R,7E)-4,6-dihydroxy-8-phenylocta-1,7-dienyl]-2,3-dihydropyran-6-one|160098-78-2|AKOS040761542|Cryptomoscatone E1|Cryptomoscatone E2, (6R)-56-dihydro-6-[(4'S6'R1'E7'E)-4'6'-dihydroxy-8'-phenyl-1'7'-octadienyl]-2-pyrone

>  <cas>  (1263) 
160098-78-2

$$$$

     RDKit          2D

 25 29  0  0  0  0  0  0  0  0999 V2000
    1.3445   -4.7556    0.0000 C   0  0  0  0  0  0  0  0  0  0  0  0
    2.4873   -3.7840    0.0000 O   0  0  0  0  0  0  0  0  0  0  0  0
    2.2172   -2.3085    0.0000 C   0  0  0  0  0  0  0  0  0  0  0  0
    3.3600   -1.3369    0.0000 C   0  0  0  0  0  0  0  0  0  0  0  0
    3.0899    0.1386    0.0000 C   0  0  0  0  0  0  0  0  0  0  0  0
    1.6770    0.6425    0.0000 C   0  0  0  0  0  0  0  0  0  0  0  0
    1.4069    2.1179    0.0000 C   0  0  0  0  0  0  0  0  0  0  0  0
   -0.0059    2.6218    0.0000 C   0  0  0  0  0  0  0  0  0  0  0  0
   -1.1487    1.6501    0.0000 C   0  0  0  0  0  0  0  0  0  0  0  0
   -2.5615    2.1540    0.0000 C   0  0  0  0  0  0  0  0  0  0  0  0
   -3.7043    1.1823    0.0000 C   0  0  0  0  0  0  0  0  0  0  0  0
   -3.4342   -0.2931    0.0000 C   0  0  0  0  0  0  0  0  0  0  0  0
   -2.0213   -0.7970    0.0000 C   0  0  0  0  0  0  0  0  0  0  0  0
   -0.8786    0.1747    0.0000 C   0  0  0  0  0  0  0  0  0  0  0  0
    0.5343   -0.3292    0.0000 C   0  0  0  0  0  0  0  0  0  0  0  0
    0.8044   -1.8047    0.0000 C   0  0  0  0  0  0  0  0  0  0  0  0
   -0.3384   -2.7763    0.0000 O   0  0  0  0  0  0  0  0  0  0  0  0
   -0.0683   -4.2518    0.0000 C   0  0  0  0  0  0  0  0  0  0  0  0
   -4.7540   -1.0060    0.0000 O   0  0  0  0  0  0  0  0  0  0  0  0
   -5.8398    0.0290    0.0000 C   0  0  0  0  0  0  0  0  0  0  0  0
   -5.1910    1.3814    0.0000 O   0  0  0  0  0  0  0  0  0  0  0  0
    2.5497    3.0896    0.0000 N   0  0  0  0  0  0  0  0  0  0  0  0
    2.2796    4.5651    0.0000 C   0  0  0  0  0  0  0  0  0  0  0  0
    3.9626    2.5858    0.0000 C   0  0  0  0  0  0  0  0  0  0  0  0
    4.2326    1.1103    0.0000 C   0  0  0  0  0  0  0  0  0  0  0  0
  1  2  1  0
  2  3  1  0
  3  4  2  0
  4  5  1  0
  5  6  2  0
  6  7  1  0
  7  8  2  0
  8  9  1  0
  9 10  2  0
 10 11  1  0
 11 12  2  0
 12 13  1  0
 13 14  2  0
 14 15  1  0
 15 16  2  0
 16 17  1  0
 17 18  1  0
 12 19  1  0
 19 20  1  0
 20 21  1  0
  7 22  1  0
 22 23  1  0
 22 24  1  0
 24 25  1  0
 16  3  1  0
 25  5  1  0
 15  6  1  0
 14  9  1  0
 21 11  1  0
M  END
>  <identifier>  (1264) 
CNP0280268.0

>  <canonical_smiles>  (1264) 
COC1=CC2=C3C(=CC4=CC5=C(C=C4C3=C1OC)OCO5)N(C)CC2

>  <standard_inchi>  (1264) 
InChI=1S/C20H19NO4/c1-21-5-4-11-7-17(22-2)20(23-3)19-13-9-16-15(24-10-25-16)8-12(13)6-14(21)18(11)19/h6-9H,4-5,10H2,1-3H3

>  <standard_inchi_key>  (1264) 
WJGFWJOXVNVISL-UHFFFAOYSA-N

>  <name>  (1264) 
Dehydronantenine

>  <iupac_name>  (1264) 
18,19-dimethoxy-13-methyl-5,7-dioxa-13-azapentacyclo[10.7.1.0^{2,10}.0^{4,8}.0^{16,20}]icosa-1(19),2,4(8),9,11,16(20),17-heptaene

>  <annotation_level>  (1264) 
5

>  <total_atom_count>  (1264) 
44

>  <heavy_atom_count>  (1264) 
25

>  <molecular_weight>  (1264) 
337.38

>  <exact_molecular_weight>  (1264) 
337.13141

>  <molecular_formula>  (1264) 
C20H19NO4

>  <alogp>  (1264) 
3.73

>  <topological_polar_surface_area>  (1264) 
40.16

>  <rotatable_bond_count>  (1264) 
2

>  <hydrogen_bond_acceptors>  (1264) 
5

>  <hydrogen_bond_donors>  (1264) 
0

>  <hydrogen_bond_acceptors_lipinski>  (1264) 
5

>  <hydrogen_bond_donors_lipinski>  (1264) 
0

>  <lipinski_rule_of_five_violations>  (1264) 
0

>  <aromatic_rings_count>  (1264) 
3

>  <qed_drug_likeliness>  (1264) 
0.67

>  <formal_charge>  (1264) 
0

>  <fractioncsp3>  (1264) 
0.30

>  <number_of_minimal_rings>  (1264) 
5

>  <van_der_walls_volume>  (1264) 
293.85

>  <contains_sugar>  (1264) 
False

>  <contains_ring_sugars>  (1264) 
False

>  <contains_linear_sugars>  (1264) 
False

>  <murcko_framework>  (1264) 
O1c2cc3cc4NCCc5cccc(c3cc2OC1)c45

>  <np_likeness>  (1264) 
0.91

>  <chemical_class>  (1264) 
Aporphines

>  <chemical_sub_class>  (1264) 
Aporphines

>  <chemical_super_class>  (1264) 
Alkaloids and derivatives

>  <direct_parent_classification>  (1264) 
Aporphines

>  <np_classifier_pathway>  (1264) 
Alkaloids

>  <np_classifier_superclass>  (1264) 
Tyrosine alkaloids

>  <np_classifier_class>  (1264) 
Aporphine alkaloids

>  <np_classifier_is_glycoside>  (1264) 
False

>  <organisms>  (1264) 
Guatteria goudotiana|Ocotea macrophylla|Platycapnos spicata|Platycapnos spicatus

>  <collections>  (1264) 
CMAUP (cCollective molecular activities of useful plants)|KNApSaCK|Latin America dataset|NuBBEDB|Super Natural II|UNPD (Universal Natural Products Database)|WikiData Natural Products|ZINC NP

>  <dois>  (1264) 
10.1016/0031-9422(75)85390-8|10.1016/0031-9422(91)83200-5|10.1016/0031-9422(91)85144-O|10.1016/0031-9422(93)85255-P|10.3987/COM-90-5356

>  <synonyms>  (1264) 
55898-15-2|CCRIS 3822|DTXSID00204485|Dehydronantenine

>  <cas>  (1264) 
55898-15-2

$$$$

     RDKit          2D

 26 29  0  0  0  0  0  0  0  0999 V2000
    4.7633   -3.1872    0.0000 C   0  0  0  0  0  0  0  0  0  0  0  0
    4.1819   -1.8045    0.0000 C   0  0  0  0  0  0  0  0  0  0  0  0
    2.6937   -1.6166    0.0000 C   0  0  0  0  0  0  0  0  0  0  0  0
    2.1123   -0.2339    0.0000 C   0  0  0  0  0  0  0  0  0  0  0  0
    3.6120   -0.2652    0.0000 C   0  0  0  0  0  0  0  0  0  0  0  0
    4.3889    1.0180    0.0000 C   0  0  0  0  0  0  0  0  0  0  0  0
    5.8886    0.9867    0.0000 O   0  0  0  0  0  0  0  0  0  0  0  0
    6.6113   -0.3277    0.0000 C   0  0  0  0  0  0  0  0  0  0  0  0
    3.6661    2.3323    0.0000 C   0  0  0  0  0  0  0  0  0  0  0  0
    4.4430    3.6155    0.0000 O   0  0  0  0  0  0  0  0  0  0  0  0
    2.1665    2.3636    0.0000 C   0  0  0  0  0  0  0  0  0  0  0  0
    1.3895    1.0805    0.0000 C   0  0  0  0  0  0  0  0  0  0  0  0
   -0.0839    0.7993    0.0000 O   0  0  0  0  0  0  0  0  0  0  0  0
   -0.2717   -0.6889    0.0000 C   0  0  0  0  0  0  0  0  0  0  0  0
   -1.5861   -1.4117    0.0000 C   0  0  0  0  0  0  0  0  0  0  0  0
   -2.8692   -0.6348    0.0000 C   0  0  0  0  0  0  0  0  0  0  0  0
   -2.8380    0.8649    0.0000 C   0  0  0  0  0  0  0  0  0  0  0  0
   -4.1211    1.6418    0.0000 C   0  0  0  0  0  0  0  0  0  0  0  0
   -5.4355    0.9191    0.0000 C   0  0  0  0  0  0  0  0  0  0  0  0
   -6.8521    1.4122    0.0000 O   0  0  0  0  0  0  0  0  0  0  0  0
   -7.7589    0.2173    0.0000 C   0  0  0  0  0  0  0  0  0  0  0  0
   -6.9027   -1.0143    0.0000 O   0  0  0  0  0  0  0  0  0  0  0  0
   -5.4667   -0.5806    0.0000 C   0  0  0  0  0  0  0  0  0  0  0  0
   -4.1836   -1.3575    0.0000 C   0  0  0  0  0  0  0  0  0  0  0  0
    1.0856   -1.3275    0.0000 C   0  0  0  0  0  0  0  0  0  0  0  0
    1.3668   -2.8009    0.0000 C   0  0  0  0  0  0  0  0  0  0  0  0
  1  2  2  0
  2  3  1  0
  4  3  1  6
  4  5  1  0
  5  6  2  0
  6  7  1  0
  7  8  1  0
  6  9  1  0
  9 10  2  0
  9 11  1  0
 11 12  2  0
 12 13  1  0
 13 14  1  0
 14 15  1  1
 15 16  1  0
 16 17  2  0
 17 18  1  0
 18 19  2  0
 19 20  1  0
 20 21  1  0
 21 22  1  0
 22 23  1  0
 23 24  2  0
 14 25  1  0
 25 26  1  1
 12  4  1  0
 24 16  1  0
 25  4  1  0
 23 19  1  0
M  END
>  <identifier>  (1265) 
CNP0136749.2

>  <canonical_smiles>  (1265) 
C=CC[C@@]12C=C(OC)C(=O)C=C1O[C@H](CC1=CC=C3OCOC3=C1)[C@@H]2C

>  <standard_inchi>  (1265) 
InChI=1S/C21H22O5/c1-4-7-21-11-19(23-3)15(22)10-20(21)26-17(13(21)2)8-14-5-6-16-18(9-14)25-12-24-16/h4-6,9-11,13,17H,1,7-8,12H2,2-3H3/t13-,17+,21-/m0/s1

>  <standard_inchi_key>  (1265) 
NCVHFCDNGBVWBR-IFCGJNOESA-N

>  <name>  (1265) 
nan

>  <iupac_name>  (1265) 
(2~{R},3~{R},3~{a}~{R})-3~{a}-allyl-2-(1,3-benzodioxol-5-ylmethyl)-5-methoxy-3-methyl-2,3-dihydrobenzofuran-6-one

>  <annotation_level>  (1265) 
3

>  <total_atom_count>  (1265) 
48

>  <heavy_atom_count>  (1265) 
26

>  <molecular_weight>  (1265) 
354.4

>  <exact_molecular_weight>  (1265) 
354.14672

>  <molecular_formula>  (1265) 
C21H22O5

>  <alogp>  (1265) 
3.55

>  <topological_polar_surface_area>  (1265) 
53.99

>  <rotatable_bond_count>  (1265) 
5

>  <hydrogen_bond_acceptors>  (1265) 
5

>  <hydrogen_bond_donors>  (1265) 
0

>  <hydrogen_bond_acceptors_lipinski>  (1265) 
5

>  <hydrogen_bond_donors_lipinski>  (1265) 
0

>  <lipinski_rule_of_five_violations>  (1265) 
0

>  <aromatic_rings_count>  (1265) 
1

>  <qed_drug_likeliness>  (1265) 
0.76

>  <formal_charge>  (1265) 
0

>  <fractioncsp3>  (1265) 
0.38

>  <number_of_minimal_rings>  (1265) 
4

>  <van_der_walls_volume>  (1265) 
nan

>  <contains_sugar>  (1265) 
False

>  <contains_ring_sugars>  (1265) 
False

>  <contains_linear_sugars>  (1265) 
False

>  <murcko_framework>  (1265) 
O1c2ccc(cc2OC1)CC3OC4=CCC=CC4C3

>  <np_likeness>  (1265) 
1.93

>  <chemical_class>  (1265) 
Benzofurans

>  <chemical_sub_class>  (1265) 
Benzofuranones

>  <chemical_super_class>  (1265) 
Organoheterocyclic compounds

>  <direct_parent_classification>  (1265) 
Benzofuranones

>  <np_classifier_pathway>  (1265) 
Shikimates and Phenylpropanoids

>  <np_classifier_superclass>  (1265) 
Lignans

>  <np_classifier_class>  (1265) 
Neolignans

>  <np_classifier_is_glycoside>  (1265) 
False

>  <organisms>  (1265) 
Aniba|Aniba sp.

>  <collections>  (1265) 
Latin America dataset|NuBBEDB|WikiData Natural Products

>  <dois>  (1265) 
10.1016/0031-9422(80)83208-0

>  <synonyms>  (1265) 
nan

>  <cas>  (1265) 
nan

$$$$

     RDKit          2D

 24 27  0  0  0  0  0  0  0  0999 V2000
   -4.2129    2.1727    0.0000 C   0  0  0  0  0  0  0  0  0  0  0  0
   -4.6102    0.7262    0.0000 C   0  0  0  0  0  0  0  0  0  0  0  0
   -3.5563   -0.3411    0.0000 C   0  0  0  0  0  0  0  0  0  0  0  0
   -4.7904   -1.1937    0.0000 C   0  0  0  0  0  0  0  0  0  0  0  0
   -2.6882    0.8822    0.0000 C   0  0  0  0  0  0  0  0  0  0  0  0
   -1.1947    0.7421    0.0000 C   0  0  0  0  0  0  0  0  0  0  0  0
   -0.3267    1.9654    0.0000 C   0  0  0  0  0  0  0  0  0  0  0  0
   -0.9520    3.3288    0.0000 O   0  0  0  0  0  0  0  0  0  0  0  0
    1.1668    1.8253    0.0000 C   0  0  0  0  0  0  0  0  0  0  0  0
    2.0348    3.0486    0.0000 C   0  0  0  0  0  0  0  0  0  0  0  0
    1.7921    0.4618    0.0000 C   0  0  0  0  0  0  0  0  0  0  0  0
    2.4175   -0.9016    0.0000 O   0  0  0  0  0  0  0  0  0  0  0  0
    0.9241   -0.7614    0.0000 C   0  0  0  0  0  0  0  0  0  0  0  0
    1.5494   -2.1249    0.0000 C   0  0  0  0  0  0  0  0  0  0  0  0
    3.0429   -2.2650    0.0000 C   0  0  0  0  0  0  0  0  0  0  0  0
    3.9109   -1.0417    0.0000 C   0  0  0  0  0  0  0  0  0  0  0  0
    3.2856    0.3217    0.0000 C   0  0  0  0  0  0  0  0  0  0  0  0
    3.1642    1.8168    0.0000 C   0  0  0  0  0  0  0  0  0  0  0  0
    4.7369    0.7008    0.0000 C   0  0  0  0  0  0  0  0  0  0  0  0
   -0.5694   -0.6213    0.0000 C   0  0  0  0  0  0  0  0  0  0  0  0
    0.0560   -1.9847    0.0000 C   0  0  0  0  0  0  0  0  0  0  0  0
   -1.4375   -1.8446    0.0000 C   0  0  0  0  0  0  0  0  0  0  0  0
   -0.8121   -3.2080    0.0000 O   0  0  0  0  0  0  0  0  0  0  0  0
   -2.9309   -1.7045    0.0000 C   0  0  0  0  0  0  0  0  0  0  0  0
  1  2  2  0
  2  3  1  0
  3  4  1  1
  3  5  1  0
  5  6  1  0
  6  7  2  0
  7  8  1  0
  7  9  1  0
  9 10  2  0
  9 11  1  0
 11 12  1  1
 12 13  1  0
 13 14  1  1
 14 15  1  0
 15 16  1  0
 16 17  1  0
 17 18  1  0
 17 19  1  0
 13 20  1  0
 20 21  1  1
 20 22  1  0
 22 23  1  1
 22 24  1  0
 24  3  1  0
 20  6  1  0
 13 11  1  0
 17 11  1  0
M  END
>  <identifier>  (1266) 
CNP0370129.1

>  <canonical_smiles>  (1266) 
C=C[C@]1(C)CC2=C(O)C(=C)[C@@]34O[C@]3(CCCC4(C)C)[C@]2(C)[C@@H](O)C1

>  <standard_inchi>  (1266) 
InChI=1S/C21H30O3/c1-7-18(5)11-14-16(23)13(2)21-17(3,4)9-8-10-20(21,24-21)19(14,6)15(22)12-18/h7,15,22-23H,1-2,8-12H2,3-6H3/t15-,18+,19-,20+,21-/m0/s1

>  <standard_inchi_key>  (1266) 
UDLBJHXKJBZALJ-UYMUPBKUSA-N

>  <name>  (1266) 
Epoxyvellozin

>  <iupac_name>  (1266) 
(1~{R},2~{S},3~{S},5~{R},10~{R})-2,5,11,11-tetramethyl-9-methylene-5-vinyl-15-oxatetracyclo[8.4.1.0^{1,10}.0^{2,7}]pentadec-7-ene-3,8-diol

>  <annotation_level>  (1266) 
5

>  <total_atom_count>  (1266) 
54

>  <heavy_atom_count>  (1266) 
24

>  <molecular_weight>  (1266) 
330.47

>  <exact_molecular_weight>  (1266) 
330.21949

>  <molecular_formula>  (1266) 
C21H30O3

>  <alogp>  (1266) 
4.44

>  <topological_polar_surface_area>  (1266) 
52.99

>  <rotatable_bond_count>  (1266) 
1

>  <hydrogen_bond_acceptors>  (1266) 
3

>  <hydrogen_bond_donors>  (1266) 
2

>  <hydrogen_bond_acceptors_lipinski>  (1266) 
3

>  <hydrogen_bond_donors_lipinski>  (1266) 
2

>  <lipinski_rule_of_five_violations>  (1266) 
0

>  <aromatic_rings_count>  (1266) 
0

>  <qed_drug_likeliness>  (1266) 
0.55

>  <formal_charge>  (1266) 
0

>  <fractioncsp3>  (1266) 
0.71

>  <number_of_minimal_rings>  (1266) 
4

>  <van_der_walls_volume>  (1266) 
nan

>  <contains_sugar>  (1266) 
False

>  <contains_ring_sugars>  (1266) 
False

>  <contains_linear_sugars>  (1266) 
False

>  <murcko_framework>  (1266) 
O1C23CC=C4CCCCC4C13CCCC2

>  <np_likeness>  (1266) 
2.51

>  <chemical_class>  (1266) 
Oxepanes

>  <chemical_sub_class>  (1266) 
Oxepanes

>  <chemical_super_class>  (1266) 
Organoheterocyclic compounds

>  <direct_parent_classification>  (1266) 
Oxepanes

>  <np_classifier_pathway>  (1266) 
Terpenoids

>  <np_classifier_superclass>  (1266) 
Diterpenoids

>  <np_classifier_class>  (1266) 
Pimarane and Isopimarane diterpenoids

>  <np_classifier_is_glycoside>  (1266) 
False

>  <organisms>  (1266) 
Vellozia candida

>  <collections>  (1266) 
Latin America dataset|NuBBEDB|WikiData Natural Products

>  <dois>  (1266) 
10.1016/S0040-4039(00)94036-X

>  <synonyms>  (1266) 
Epoxyvellozin

>  <cas>  (1266) 
nan

$$$$

     RDKit          2D

 31 34  0  0  0  0  0  0  0  0999 V2000
    7.3606   -0.2315    0.0000 C   0  0  0  0  0  0  0  0  0  0  0  0
    5.9257   -0.6685    0.0000 C   0  0  0  0  0  0  0  0  0  0  0  0
    4.8298    0.3558    0.0000 C   0  0  0  0  0  0  0  0  0  0  0  0
    5.0143    1.8444    0.0000 C   0  0  0  0  0  0  0  0  0  0  0  0
    6.3271    2.5701    0.0000 O   0  0  0  0  0  0  0  0  0  0  0  0
    3.6556    2.4799    0.0000 C   0  0  0  0  0  0  0  0  0  0  0  0
    2.6313    1.3840    0.0000 C   0  0  0  0  0  0  0  0  0  0  0  0
    1.1316    1.4119    0.0000 C   0  0  0  0  0  0  0  0  0  0  0  0
    0.4059    2.7247    0.0000 C   0  0  0  0  0  0  0  0  0  0  0  0
   -1.0938    2.7526    0.0000 C   0  0  0  0  0  0  0  0  0  0  0  0
   -1.8679    1.4677    0.0000 C   0  0  0  0  0  0  0  0  0  0  0  0
   -3.3676    1.4956    0.0000 C   0  0  0  0  0  0  0  0  0  0  0  0
   -4.1416    0.2107    0.0000 C   0  0  0  0  0  0  0  0  0  0  0  0
   -5.6414    0.2386    0.0000 O   0  0  0  0  0  0  0  0  0  0  0  0
   -6.3671    1.5514    0.0000 C   0  0  0  0  0  0  0  0  0  0  0  0
   -7.8668    1.5793    0.0000 C   0  0  0  0  0  0  0  0  0  0  0  0
   -5.5931    2.8362    0.0000 O   0  0  0  0  0  0  0  0  0  0  0  0
   -3.4159   -1.1020    0.0000 C   0  0  0  0  0  0  0  0  0  0  0  0
   -4.1899   -2.3869    0.0000 O   0  0  0  0  0  0  0  0  0  0  0  0
   -1.9162   -1.1299    0.0000 C   0  0  0  0  0  0  0  0  0  0  0  0
   -1.1422    0.1549    0.0000 C   0  0  0  0  0  0  0  0  0  0  0  0
   -0.4164   -1.1578    0.0000 C   0  0  0  0  0  0  0  0  0  0  0  0
   -1.1905   -2.4427    0.0000 O   0  0  0  0  0  0  0  0  0  0  0  0
   -0.4648   -3.7554    0.0000 C   0  0  0  0  0  0  0  0  0  0  0  0
   -1.2388   -5.0403    0.0000 C   0  0  0  0  0  0  0  0  0  0  0  0
    1.0350   -3.7833    0.0000 O   0  0  0  0  0  0  0  0  0  0  0  0
    0.3576    0.1271    0.0000 C   0  0  0  0  0  0  0  0  0  0  0  0
    1.0833   -1.1857    0.0000 C   0  0  0  0  0  0  0  0  0  0  0  0
    2.5830   -1.2136    0.0000 C   0  0  0  0  0  0  0  0  0  0  0  0
    3.3571    0.0713    0.0000 C   0  0  0  0  0  0  0  0  0  0  0  0
    4.2160   -1.1584    0.0000 C   0  0  0  0  0  0  0  0  0  0  0  0
  1  2  1  0
  3  2  1  6
  3  4  1  0
  4  5  2  0
  4  6  1  0
  7  6  1  6
  7  8  1  0
  8  9  1  1
  9 10  1  0
 11 10  1  6
 11 12  1  0
 12 13  1  0
 13 14  1  6
 14 15  1  0
 15 16  1  0
 15 17  2  0
 13 18  1  0
 18 19  2  0
 18 20  1  0
 20 21  1  0
 21 22  1  6
 22 23  1  0
 23 24  1  0
 24 25  1  0
 24 26  2  0
 21 27  1  0
 27 28  1  6
 28 29  1  0
 29 30  1  0
 30 31  1  6
 30  3  1  0
 30  7  1  0
 27  8  1  0
 21 11  1  0
M  END
>  <identifier>  (1267) 
CNP0080512.2

>  <canonical_smiles>  (1267) 
CC[C@H]1C(=O)C[C@H]2[C@@H]3CC[C@H]4C[C@@H](OC(C)=O)C(=O)C[C@]4(COC(C)=O)[C@H]3CC[C@]12C

>  <standard_inchi>  (1267) 
InChI=1S/C25H36O6/c1-5-18-21(28)11-20-17-7-6-16-10-23(31-15(3)27)22(29)12-25(16,13-30-14(2)26)19(17)8-9-24(18,20)4/h16-20,23H,5-13H2,1-4H3/t16-,17+,18-,19-,20-,23+,24+,25+/m0/s1

>  <standard_inchi_key>  (1267) 
ZFTUVYVXVWUVOQ-HIMLIXMGSA-N

>  <name>  (1267) 
nan

>  <iupac_name>  (1267) 
[(3~{R},5~{S},8~{S},9~{S},10~{R},13~{S},14~{S},17~{R})-3-acetoxy-17-ethyl-13-methyl-2,16-dioxo-3,4,5,6,7,8,9,11,12,14,15,17-dodecahydro-1~{H}-cyclopenta[a]phenanthren-10-yl]methyl acetate

>  <annotation_level>  (1267) 
4

>  <total_atom_count>  (1267) 
67

>  <heavy_atom_count>  (1267) 
31

>  <molecular_weight>  (1267) 
432.56

>  <exact_molecular_weight>  (1267) 
432.25119

>  <molecular_formula>  (1267) 
C25H36O6

>  <alogp>  (1267) 
3.89

>  <topological_polar_surface_area>  (1267) 
86.74

>  <rotatable_bond_count>  (1267) 
4

>  <hydrogen_bond_acceptors>  (1267) 
6

>  <hydrogen_bond_donors>  (1267) 
0

>  <hydrogen_bond_acceptors_lipinski>  (1267) 
6

>  <hydrogen_bond_donors_lipinski>  (1267) 
0

>  <lipinski_rule_of_five_violations>  (1267) 
0

>  <aromatic_rings_count>  (1267) 
0

>  <qed_drug_likeliness>  (1267) 
0.63

>  <formal_charge>  (1267) 
0

>  <fractioncsp3>  (1267) 
0.84

>  <number_of_minimal_rings>  (1267) 
4

>  <van_der_walls_volume>  (1267) 
nan

>  <contains_sugar>  (1267) 
False

>  <contains_ring_sugars>  (1267) 
False

>  <contains_linear_sugars>  (1267) 
False

>  <murcko_framework>  (1267) 
C1CCC2C(C1)CCC3C4CCCC4CCC23

>  <np_likeness>  (1267) 
2.58

>  <chemical_class>  (1267) 
Steroids and steroid derivatives

>  <chemical_sub_class>  (1267) 
Steroid esters

>  <chemical_super_class>  (1267) 
Lipids and lipid-like molecules

>  <direct_parent_classification>  (1267) 
Steroid esters

>  <np_classifier_pathway>  (1267) 
Terpenoids

>  <np_classifier_superclass>  (1267) 
Steroids

>  <np_classifier_class>  (1267) 
Pregnane steroids

>  <np_classifier_is_glycoside>  (1267) 
False

>  <organisms>  (1267) 
Trichilia claussenii

>  <collections>  (1267) 
Latin America dataset|NuBBEDB|WikiData Natural Products

>  <dois>  (1267) 
10.1016/S0031-9422(97)00167-2

>  <synonyms>  (1267) 
3\u221a\u00e9\u00ac\u226419-Diacetoxypregnan-216-dione

>  <cas>  (1267) 
nan

$$$$

     RDKit          2D

 33 36  0  0  0  0  0  0  0  0999 V2000
   -6.9066   -0.4250    0.0000 C   0  0  0  0  0  0  0  0  0  0  0  0
   -6.3038   -1.7985    0.0000 O   0  0  0  0  0  0  0  0  0  0  0  0
   -4.8129   -1.9633    0.0000 C   0  0  0  0  0  0  0  0  0  0  0  0
   -3.9248   -0.7545    0.0000 C   0  0  0  0  0  0  0  0  0  0  0  0
   -2.4339   -0.9192    0.0000 C   0  0  0  0  0  0  0  0  0  0  0  0
   -1.5457    0.2896    0.0000 C   0  0  0  0  0  0  0  0  0  0  0  0
   -0.0548    0.1249    0.0000 C   0  0  0  0  0  0  0  0  0  0  0  0
    0.5480   -1.2487    0.0000 O   0  0  0  0  0  0  0  0  0  0  0  0
    2.0389   -1.4134    0.0000 C   0  0  0  0  0  0  0  0  0  0  0  0
    2.9271   -0.2046    0.0000 O   0  0  0  0  0  0  0  0  0  0  0  0
    4.4180   -0.3694    0.0000 C   0  0  0  0  0  0  0  0  0  0  0  0
    5.3061    0.8395    0.0000 C   0  0  0  0  0  0  0  0  0  0  0  0
    5.0208   -1.7429    0.0000 C   0  0  0  0  0  0  0  0  0  0  0  0
    6.5117   -1.9076    0.0000 O   0  0  0  0  0  0  0  0  0  0  0  0
    4.1326   -2.9517    0.0000 C   0  0  0  0  0  0  0  0  0  0  0  0
    4.7354   -4.3253    0.0000 O   0  0  0  0  0  0  0  0  0  0  0  0
    2.6417   -2.7870    0.0000 C   0  0  0  0  0  0  0  0  0  0  0  0
    1.7536   -3.9958    0.0000 O   0  0  0  0  0  0  0  0  0  0  0  0
    0.8333    1.3337    0.0000 C   0  0  0  0  0  0  0  0  0  0  0  0
    2.3243    1.1689    0.0000 O   0  0  0  0  0  0  0  0  0  0  0  0
    0.2305    2.7072    0.0000 C   0  0  0  0  0  0  0  0  0  0  0  0
    1.1187    3.9160    0.0000 C   0  0  0  0  0  0  0  0  0  0  0  0
    2.6096    3.7513    0.0000 O   0  0  0  0  0  0  0  0  0  0  0  0
    0.5159    5.2896    0.0000 C   0  0  0  0  0  0  0  0  0  0  0  0
   -0.9750    5.4543    0.0000 C   0  0  0  0  0  0  0  0  0  0  0  0
   -1.5778    6.8279    0.0000 O   0  0  0  0  0  0  0  0  0  0  0  0
   -1.8632    4.2455    0.0000 C   0  0  0  0  0  0  0  0  0  0  0  0
   -1.2604    2.8720    0.0000 C   0  0  0  0  0  0  0  0  0  0  0  0
   -2.1485    1.6632    0.0000 O   0  0  0  0  0  0  0  0  0  0  0  0
   -1.8311   -2.2928    0.0000 C   0  0  0  0  0  0  0  0  0  0  0  0
   -2.7192   -3.5016    0.0000 C   0  0  0  0  0  0  0  0  0  0  0  0
   -4.2101   -3.3368    0.0000 C   0  0  0  0  0  0  0  0  0  0  0  0
   -5.0983   -4.5456    0.0000 O   0  0  0  0  0  0  0  0  0  0  0  0
  1  2  1  0
  2  3  1  0
  3  4  2  0
  4  5  1  0
  5  6  1  0
  6  7  2  0
  7  8  1  0
  9  8  1  6
  9 10  1  0
 10 11  1  0
 11 12  1  6
 11 13  1  0
 13 14  1  1
 13 15  1  0
 15 16  1  6
 15 17  1  0
 17 18  1  6
  7 19  1  0
 19 20  2  0
 19 21  1  0
 21 22  2  0
 22 23  1  0
 22 24  1  0
 24 25  2  0
 25 26  1  0
 25 27  1  0
 27 28  2  0
 28 29  1  0
  5 30  2  0
 30 31  1  0
 31 32  2  0
 32 33  1  0
 32  3  1  0
 29  6  1  0
 17  9  1  0
 28 21  1  0
M  END
>  <identifier>  (1268) 
CNP0229718.1

>  <canonical_smiles>  (1268) 
COC1=CC(C2=C(O[C@@H]3O[C@H](C)[C@@H](O)[C@H](O)[C@@H]3O)C(=O)C3=C(O)C=C(O)C=C3O2)=CC=C1O

>  <standard_inchi>  (1268) 
InChI=1S/C22H22O11/c1-8-16(26)18(28)19(29)22(31-8)33-21-17(27)15-12(25)6-10(23)7-14(15)32-20(21)9-3-4-11(24)13(5-9)30-2/h3-8,16,18-19,22-26,28-29H,1-2H3/t8-,16-,18+,19+,22+/m1/s1

>  <standard_inchi_key>  (1268) 
UXXAEVMOIUAYQT-SHPVQTSASA-N

>  <name>  (1268) 
nan

>  <iupac_name>  (1268) 
5,7-dihydroxy-2-(4-hydroxy-3-methoxy-phenyl)-3-[(2~{S},3~{S},4~{S},5~{S},6~{R})-3,4,5-trihydroxy-6-methyl-tetrahydropyran-2-yl]oxy-chromen-4-one

>  <annotation_level>  (1268) 
5

>  <total_atom_count>  (1268) 
55

>  <heavy_atom_count>  (1268) 
33

>  <molecular_weight>  (1268) 
462.41

>  <exact_molecular_weight>  (1268) 
462.11621

>  <molecular_formula>  (1268) 
C22H22O11

>  <alogp>  (1268) 
0.79

>  <topological_polar_surface_area>  (1268) 
179.28

>  <rotatable_bond_count>  (1268) 
4

>  <hydrogen_bond_acceptors>  (1268) 
11

>  <hydrogen_bond_donors>  (1268) 
6

>  <hydrogen_bond_acceptors_lipinski>  (1268) 
11

>  <hydrogen_bond_donors_lipinski>  (1268) 
6

>  <lipinski_rule_of_five_violations>  (1268) 
2

>  <aromatic_rings_count>  (1268) 
3

>  <qed_drug_likeliness>  (1268) 
0.32

>  <formal_charge>  (1268) 
0

>  <fractioncsp3>  (1268) 
0.32

>  <number_of_minimal_rings>  (1268) 
4

>  <van_der_walls_volume>  (1268) 
378.51

>  <contains_sugar>  (1268) 
True

>  <contains_ring_sugars>  (1268) 
True

>  <contains_linear_sugars>  (1268) 
False

>  <murcko_framework>  (1268) 
O1c2ccccc2CC(OC3OCCCC3)=C1c4ccccc4

>  <np_likeness>  (1268) 
2.05

>  <chemical_class>  (1268) 
Flavonoids

>  <chemical_sub_class>  (1268) 
Flavonoid glycosides

>  <chemical_super_class>  (1268) 
Phenylpropanoids and polyketides

>  <direct_parent_classification>  (1268) 
Flavonoid-3-O-glycosides

>  <np_classifier_pathway>  (1268) 
Shikimates and Phenylpropanoids

>  <np_classifier_superclass>  (1268) 
Flavonoids

>  <np_classifier_class>  (1268) 
Flavonols

>  <np_classifier_is_glycoside>  (1268) 
True

>  <organisms>  (1268) 
Tocoyena formosa

>  <collections>  (1268) 
AfroDB|ChemSpider NPs|ConMedNP|Latin America dataset|NuBBEDB|WikiData Natural Products|ZINC NP

>  <dois>  (1268) 
10.5935/0103-5053.19960024

>  <synonyms>  (1268) 
Quercetin-3'-O-methyl-3-O-\u221a\u00e9\u00ac\u2264-D-rhamnopyranoside

>  <cas>  (1268) 
nan

$$$$

     RDKit          2D

 38 42  0  0  0  0  0  0  0  0999 V2000
   -0.6055    2.5207    0.0000 C   0  0  0  0  0  0  0  0  0  0  0  0
    0.2680    1.3013    0.0000 C   0  0  0  0  0  0  0  0  0  0  0  0
   -0.3514   -0.0649    0.0000 C   0  0  0  0  0  0  0  0  0  0  0  0
    0.5221   -1.2843    0.0000 C   0  0  0  0  0  0  0  0  0  0  0  0
    2.0149   -1.1376    0.0000 C   0  0  0  0  0  0  0  0  0  0  0  0
    2.6342    0.2286    0.0000 C   0  0  0  0  0  0  0  0  0  0  0  0
    1.7608    1.4480    0.0000 N   0  0  0  0  0  0  0  0  0  0  0  0
    2.3801    2.8142    0.0000 C   0  0  0  0  0  0  0  0  0  0  0  0
    3.8729    2.9609    0.0000 C   0  0  0  0  0  0  0  0  0  0  0  0
    4.7464    1.7415    0.0000 C   0  0  0  0  0  0  0  0  0  0  0  0
    4.1271    0.3753    0.0000 C   0  0  0  0  0  0  0  0  0  0  0  0
    5.2350   -0.6359    0.0000 N   0  0  0  0  0  0  0  0  0  0  0  0
    6.5390    0.1054    0.0000 C   0  0  0  0  0  0  0  0  0  0  0  0
    7.9625   -0.3678    0.0000 C   0  0  0  0  0  0  0  0  0  0  0  0
    9.0839    0.6284    0.0000 C   0  0  0  0  0  0  0  0  0  0  0  0
    8.7820    2.0977    0.0000 C   0  0  0  0  0  0  0  0  0  0  0  0
    7.3585    2.5708    0.0000 C   0  0  0  0  0  0  0  0  0  0  0  0
    6.2371    1.5747    0.0000 C   0  0  0  0  0  0  0  0  0  0  0  0
   -0.0972   -2.6505    0.0000 C   0  0  0  0  0  0  0  0  0  0  0  0
    0.7763   -3.8699    0.0000 C   0  0  0  0  0  0  0  0  0  0  0  0
    2.2691   -3.7232    0.0000 O   0  0  0  0  0  0  0  0  0  0  0  0
    0.1570   -5.2361    0.0000 O   0  0  0  0  0  0  0  0  0  0  0  0
    1.0304   -6.4556    0.0000 C   0  0  0  0  0  0  0  0  0  0  0  0
   -1.5900   -2.7972    0.0000 C   0  0  0  0  0  0  0  0  0  0  0  0
   -2.4635   -1.5778    0.0000 O   0  0  0  0  0  0  0  0  0  0  0  0
   -1.8442   -0.2116    0.0000 C   0  0  0  0  0  0  0  0  0  0  0  0
   -2.7176    1.0078    0.0000 O   0  0  0  0  0  0  0  0  0  0  0  0
   -4.2105    0.8611    0.0000 C   0  0  0  0  0  0  0  0  0  0  0  0
   -5.0839    2.0805    0.0000 O   0  0  0  0  0  0  0  0  0  0  0  0
   -6.5767    1.9338    0.0000 C   0  0  0  0  0  0  0  0  0  0  0  0
   -7.4502    3.1532    0.0000 C   0  0  0  0  0  0  0  0  0  0  0  0
   -6.8309    4.5194    0.0000 O   0  0  0  0  0  0  0  0  0  0  0  0
   -7.1961    0.5676    0.0000 C   0  0  0  0  0  0  0  0  0  0  0  0
   -8.6889    0.4209    0.0000 O   0  0  0  0  0  0  0  0  0  0  0  0
   -6.3226   -0.6518    0.0000 C   0  0  0  0  0  0  0  0  0  0  0  0
   -6.9419   -2.0180    0.0000 O   0  0  0  0  0  0  0  0  0  0  0  0
   -4.8298   -0.5051    0.0000 C   0  0  0  0  0  0  0  0  0  0  0  0
   -3.9563   -1.7245    0.0000 O   0  0  0  0  0  0  0  0  0  0  0  0
  1  2  2  0
  2  3  1  0
  3  4  1  0
  4  5  1  0
  6  5  1  6
  6  7  1  0
  7  8  1  0
  8  9  1  0
  9 10  1  0
 10 11  2  0
 11 12  1  0
 12 13  1  0
 13 14  2  0
 14 15  1  0
 15 16  2  0
 16 17  1  0
 17 18  2  0
  4 19  1  0
 19 20  1  0
 20 21  2  0
 20 22  1  0
 22 23  1  0
 19 24  2  0
 24 25  1  0
 25 26  1  0
 26 27  1  1
 28 27  1  1
 28 29  1  0
 29 30  1  0
 30 31  1  1
 31 32  1  0
 30 33  1  0
 33 34  1  6
 33 35  1  0
 35 36  1  1
 35 37  1  0
 37 38  1  6
 26  3  1  0
 37 28  1  0
 11  6  1  0
 18 13  1  0
 18 10  1  0
M  END
>  <identifier>  (1269) 
CNP0187549.3

>  <canonical_smiles>  (1269) 
C=CC1C(C[C@@H]2NCCC3=C2NC2=CC=CC=C32)C(C(=O)OC)=CO[C@H]1O[C@@H]1O[C@H](CO)[C@@H](O)[C@H](O)[C@H]1O

>  <standard_inchi>  (1269) 
InChI=1S/C27H34N2O9/c1-3-13-16(10-19-21-15(8-9-28-19)14-6-4-5-7-18(14)29-21)17(25(34)35-2)12-36-26(13)38-27-24(33)23(32)22(31)20(11-30)37-27/h3-7,12-13,16,19-20,22-24,26-33H,1,8-11H2,2H3/t13?,16?,19-,20+,22+,23-,24+,26-,27-/m0/s1

>  <standard_inchi_key>  (1269) 
XBAMJZTXGWPTRM-VGTIHVKGSA-N

>  <name>  (1269) 
nan

>  <iupac_name>  (1269) 
methyl (2~{S})-4-[[(1~{S})-2,3,4,9-tetrahydro-1~{H}-pyrido[3,4-b]indol-1-yl]methyl]-2-[(2~{S},3~{R},4~{S},5~{S},6~{R})-3,4,5-trihydroxy-6-(hydroxymethyl)tetrahydropyran-2-yl]oxy-3-vinyl-3,4-dihydro-2~{H}-pyran-5-carboxylate

>  <annotation_level>  (1269) 
4

>  <total_atom_count>  (1269) 
72

>  <heavy_atom_count>  (1269) 
38

>  <molecular_weight>  (1269) 
530.57

>  <exact_molecular_weight>  (1269) 
530.22643

>  <molecular_formula>  (1269) 
C27H34N2O9

>  <alogp>  (1269) 
0.39

>  <topological_polar_surface_area>  (1269) 
162.73

>  <rotatable_bond_count>  (1269) 
7

>  <hydrogen_bond_acceptors>  (1269) 
10

>  <hydrogen_bond_donors>  (1269) 
6

>  <hydrogen_bond_acceptors_lipinski>  (1269) 
10

>  <hydrogen_bond_donors_lipinski>  (1269) 
6

>  <lipinski_rule_of_five_violations>  (1269) 
2

>  <aromatic_rings_count>  (1269) 
2

>  <qed_drug_likeliness>  (1269) 
0.22

>  <formal_charge>  (1269) 
0

>  <fractioncsp3>  (1269) 
0.52

>  <number_of_minimal_rings>  (1269) 
5

>  <van_der_walls_volume>  (1269) 
nan

>  <contains_sugar>  (1269) 
True

>  <contains_ring_sugars>  (1269) 
True

>  <contains_linear_sugars>  (1269) 
False

>  <murcko_framework>  (1269) 
O1C=CC(CC1OC2OCCCC2)CC3NCCc4c5ccccc5[nH]c43

>  <np_likeness>  (1269) 
2.19

>  <chemical_class>  (1269) 
Harmala alkaloids

>  <chemical_sub_class>  (1269) 
Harmala alkaloids

>  <chemical_super_class>  (1269) 
Alkaloids and derivatives

>  <direct_parent_classification>  (1269) 
Harmala alkaloids

>  <np_classifier_pathway>  (1269) 
Alkaloids

>  <np_classifier_superclass>  (1269) 
Tryptophan alkaloids

>  <np_classifier_class>  (1269) 
Carboline alkaloids

>  <np_classifier_is_glycoside>  (1269) 
True

>  <organisms>  (1269) 
Chimarrhis turbinata

>  <collections>  (1269) 
Latin America dataset|NuBBEDB

>  <dois>  (1269) 
10.1021/np020547m

>  <synonyms>  (1269) 
Strictosidine

>  <cas>  (1269) 
nan

$$$$

     RDKit          2D

 17 19  0  0  0  0  0  0  0  0999 V2000
   -1.7282   -3.4570    0.0000 C   0  0  0  0  0  0  0  0  0  0  0  0
   -0.4360   -2.6953    0.0000 O   0  0  0  0  0  0  0  0  0  0  0  0
   -0.4497   -1.1953    0.0000 C   0  0  0  0  0  0  0  0  0  0  0  0
   -1.7555   -0.4571    0.0000 C   0  0  0  0  0  0  0  0  0  0  0  0
   -3.1778   -0.9336    0.0000 O   0  0  0  0  0  0  0  0  0  0  0  0
   -4.0705    0.2718    0.0000 C   0  0  0  0  0  0  0  0  0  0  0  0
   -3.1999    1.4933    0.0000 C   0  0  0  0  0  0  0  0  0  0  0  0
   -1.7691    1.0428    0.0000 C   0  0  0  0  0  0  0  0  0  0  0  0
   -0.4769    1.8046    0.0000 C   0  0  0  0  0  0  0  0  0  0  0  0
   -0.4906    3.3045    0.0000 Cl  0  0  0  0  0  0  0  0  0  0  0  0
    0.8289    1.0664    0.0000 C   0  0  0  0  0  0  0  0  0  0  0  0
    0.8425   -0.4335    0.0000 C   0  0  0  0  0  0  0  0  0  0  0  0
    2.1483   -1.1717    0.0000 O   0  0  0  0  0  0  0  0  0  0  0  0
    3.4405   -0.4099    0.0000 C   0  0  0  0  0  0  0  0  0  0  0  0
    4.7463   -1.1481    0.0000 O   0  0  0  0  0  0  0  0  0  0  0  0
    3.4268    1.0900    0.0000 C   0  0  0  0  0  0  0  0  0  0  0  0
    2.1210    1.8282    0.0000 C   0  0  0  0  0  0  0  0  0  0  0  0
  1  2  1  0
  2  3  1  0
  3  4  2  0
  4  5  1  0
  5  6  1  0
  6  7  2  0
  7  8  1  0
  8  9  2  0
  9 10  1  0
  9 11  1  0
 11 12  2  0
 12 13  1  0
 13 14  1  0
 14 15  2  0
 14 16  1  0
 16 17  2  0
 12  3  1  0
  8  4  1  0
 17 11  1  0
M  END
>  <identifier>  (1270) 
CNP0080667.0

>  <canonical_smiles>  (1270) 
COC1=C2OC=CC2=C(Cl)C2=C1OC(=O)C=C2

>  <standard_inchi>  (1270) 
InChI=1S/C12H7ClO4/c1-15-12-10-7(4-5-16-10)9(13)6-2-3-8(14)17-11(6)12/h2-5H,1H3

>  <standard_inchi_key>  (1270) 
KPALAQFALCYBNX-UHFFFAOYSA-N

>  <name>  (1270) 
7471-72-9

>  <iupac_name>  (1270) 
4-chloro-9-methoxy-furo[3,2-g]chromen-7-one

>  <annotation_level>  (1270) 
5

>  <total_atom_count>  (1270) 
24

>  <heavy_atom_count>  (1270) 
17

>  <molecular_weight>  (1270) 
250.64

>  <exact_molecular_weight>  (1270) 
250.00329

>  <molecular_formula>  (1270) 
C12H7ClO4

>  <alogp>  (1270) 
3.20

>  <topological_polar_surface_area>  (1270) 
52.58

>  <rotatable_bond_count>  (1270) 
1

>  <hydrogen_bond_acceptors>  (1270) 
4

>  <hydrogen_bond_donors>  (1270) 
0

>  <hydrogen_bond_acceptors_lipinski>  (1270) 
4

>  <hydrogen_bond_donors_lipinski>  (1270) 
0

>  <lipinski_rule_of_five_violations>  (1270) 
0

>  <aromatic_rings_count>  (1270) 
3

>  <qed_drug_likeliness>  (1270) 
0.62

>  <formal_charge>  (1270) 
0

>  <fractioncsp3>  (1270) 
0.08

>  <number_of_minimal_rings>  (1270) 
3

>  <van_der_walls_volume>  (1270) 
nan

>  <contains_sugar>  (1270) 
False

>  <contains_ring_sugars>  (1270) 
False

>  <contains_linear_sugars>  (1270) 
False

>  <murcko_framework>  (1270) 
o1ccc2cc3C=CCOc3cc12

>  <np_likeness>  (1270) 
0.99

>  <chemical_class>  (1270) 
Coumarins and derivatives

>  <chemical_sub_class>  (1270) 
Furanocoumarins

>  <chemical_super_class>  (1270) 
Phenylpropanoids and polyketides

>  <direct_parent_classification>  (1270) 
8-methoxypsoralens

>  <np_classifier_pathway>  (1270) 
Shikimates and Phenylpropanoids

>  <np_classifier_superclass>  (1270) 
Coumarins

>  <np_classifier_class>  (1270) 
Furocoumarins

>  <np_classifier_is_glycoside>  (1270) 
False

>  <organisms>  (1270) 
Hortia superba

>  <collections>  (1270) 
Latin America dataset|NuBBEDB|WikiData Natural Products|ZINC NP

>  <dois>  (1270) 
10.3390/MOLECULES190812031|10.3390/molecules190812031

>  <synonyms>  (1270) 
4-CHLORO-9-METHOXY-7H-FURO(3,2-G)(1)BENZOPYRAN-7-ONE|4-Chloro-9-methoxy-7H-furo[3,2-g]chromen-7-one|5-chloro-8-methoxy-psoralen|7H-FURO(3,2-G)(1)BENZOPYRAN-7-ONE, 4-CHLORO-9-METHOXY-|AKOS015966794|CHEMBL1289000|DTXSID40225694|J2M35R4GF5|NSC401275|UNII-J2M35R4GF5

>  <cas>  (1270) 
nan

$$$$

     RDKit          2D

 37 39  0  0  0  0  0  0  0  0999 V2000
    6.5092   -3.0513    0.0000 C   0  0  0  0  0  0  0  0  0  0  0  0
    5.0623   -2.6558    0.0000 C   0  0  0  0  0  0  0  0  0  0  0  0
    3.9963   -3.7110    0.0000 C   0  0  0  0  0  0  0  0  0  0  0  0
    4.3772   -5.1619    0.0000 C   0  0  0  0  0  0  0  0  0  0  0  0
    2.5494   -3.3155    0.0000 C   0  0  0  0  0  0  0  0  0  0  0  0
    2.1685   -1.8647    0.0000 C   0  0  0  0  0  0  0  0  0  0  0  0
    0.7216   -1.4691    0.0000 C   0  0  0  0  0  0  0  0  0  0  0  0
    0.5833   -2.9627    0.0000 C   0  0  0  0  0  0  0  0  0  0  0  0
    1.3624   -0.1129    0.0000 C   0  0  0  0  0  0  0  0  0  0  0  0
    2.8573    0.0103    0.0000 C   0  0  0  0  0  0  0  0  0  0  0  0
    0.5082    1.1202    0.0000 C   0  0  0  0  0  0  0  0  0  0  0  0
    1.1490    2.4764    0.0000 O   0  0  0  0  0  0  0  0  0  0  0  0
    2.6440    2.5996    0.0000 C   0  0  0  0  0  0  0  0  0  0  0  0
    3.4981    1.3666    0.0000 O   0  0  0  0  0  0  0  0  0  0  0  0
    3.2847    3.9559    0.0000 C   0  0  0  0  0  0  0  0  0  0  0  0
    4.7797    4.0790    0.0000 C   0  0  0  0  0  0  0  0  0  0  0  0
    5.4205    5.4353    0.0000 C   0  0  0  0  0  0  0  0  0  0  0  0
   -0.9867    0.9970    0.0000 C   0  0  0  0  0  0  0  0  0  0  0  0
   -1.6275   -0.3592    0.0000 C   0  0  0  0  0  0  0  0  0  0  0  0
   -3.1224   -0.4824    0.0000 C   0  0  0  0  0  0  0  0  0  0  0  0
   -3.7632   -1.8386    0.0000 C   0  0  0  0  0  0  0  0  0  0  0  0
   -2.9091   -3.0717    0.0000 C   0  0  0  0  0  0  0  0  0  0  0  0
   -3.5499   -4.4279    0.0000 O   0  0  0  0  0  0  0  0  0  0  0  0
   -5.0448   -4.5511    0.0000 C   0  0  0  0  0  0  0  0  0  0  0  0
   -1.4141   -2.9485    0.0000 C   0  0  0  0  0  0  0  0  0  0  0  0
   -0.7734   -1.5923    0.0000 C   0  0  0  0  0  0  0  0  0  0  0  0
   -2.7153   -0.8567    0.0000 C   0  0  0  0  0  0  0  0  0  0  0  0
   -5.1614    1.2461    0.0000 O   0  0  0  0  0  0  0  0  0  0  0  0
   -5.5927    2.6828    0.0000 C   0  0  0  0  0  0  0  0  0  0  0  0
   -7.0525    3.0276    0.0000 C   0  0  0  0  0  0  0  0  0  0  0  0
   -4.5641    3.7746    0.0000 O   0  0  0  0  0  0  0  0  0  0  0  0
   -2.3921   -0.2133    0.0000 O   0  0  0  0  0  0  0  0  0  0  0  0
   -1.9678   -0.7951    0.0000 C   0  0  0  0  0  0  0  0  0  0  0  0
    0.1010    1.6797    0.0000 O   0  0  0  0  0  0  0  0  0  0  0  0
    0.2913    3.1676    0.0000 C   0  0  0  0  0  0  0  0  0  0  0  0
    1.6750    3.7467    0.0000 C   0  0  0  0  0  0  0  0  0  0  0  0
   -0.9020    4.0764    0.0000 O   0  0  0  0  0  0  0  0  0  0  0  0
  1  2  2  0
  2  3  1  0
  3  4  1  0
  3  5  2  3
  5  6  1  0
  6  7  1  0
  7  8  1  6
  7  9  1  0
  9 10  1  1
  9 11  1  0
 11 12  1  1
 12 13  1  0
 13 14  2  0
 13 15  1  0
 15 16  1  0
 16 17  1  0
 11 18  1  0
 19 18  1  1
 19 20  1  0
 20 21  2  0
 21 22  1  0
 22 23  1  1
 23 24  1  0
 22 25  1  0
 26 25  1  6
 20 27  1  0
 27 28  1  6
 28 29  1  0
 29 30  1  0
 29 31  2  0
 27 32  1  0
 32 33  1  0
 33 34  1  6
 34 35  1  0
 35 36  1  0
 35 37  2  0
 26  7  1  0
 26 19  1  0
 33 19  1  0
M  END
>  <identifier>  (1271) 
CNP0102834.3

>  <canonical_smiles>  (1271) 
C=CC(C)=CC[C@]1(C)[C@H](C)[C@H](OC(=O)CCC)C[C@@]23C(=C[C@H](OC)C[C@@H]12)[C@@H](OC(C)=O)O[C@H]3OC(C)=O

>  <standard_inchi>  (1271) 
InChI=1S/C29H42O8/c1-9-11-25(32)36-23-16-29-22(26(34-19(5)30)37-27(29)35-20(6)31)14-21(33-8)15-24(29)28(7,18(23)4)13-12-17(3)10-2/h10,12,14,18,21,23-24,26-27H,2,9,11,13,15-16H2,1,3-8H3/t18-,21+,23-,24+,26+,27-,28-,29-/m1/s1

>  <standard_inchi_key>  (1271) 
LIVDKPZTNKXCNI-IICLKFBHSA-N

>  <name>  (1271) 
nan

>  <iupac_name>  (1271) 
[(1~{S},3~{R},5~{R},6~{a}~{S},7~{S},8~{S},9~{R},10~{a}~{S})-1,3-diacetoxy-5-methoxy-7,8-dimethyl-7-(3-methylpenta-2,4-dienyl)-1,3,5,6,6~{a},8,9,10-octahydrobenzo[d]isobenzofuran-9-yl] butanoate

>  <annotation_level>  (1271) 
4

>  <total_atom_count>  (1271) 
79

>  <heavy_atom_count>  (1271) 
37

>  <molecular_weight>  (1271) 
518.65

>  <exact_molecular_weight>  (1271) 
518.28797

>  <molecular_formula>  (1271) 
C29H42O8

>  <alogp>  (1271) 
5.02

>  <topological_polar_surface_area>  (1271) 
97.36

>  <rotatable_bond_count>  (1271) 
9

>  <hydrogen_bond_acceptors>  (1271) 
8

>  <hydrogen_bond_donors>  (1271) 
0

>  <hydrogen_bond_acceptors_lipinski>  (1271) 
8

>  <hydrogen_bond_donors_lipinski>  (1271) 
0

>  <lipinski_rule_of_five_violations>  (1271) 
2

>  <aromatic_rings_count>  (1271) 
0

>  <qed_drug_likeliness>  (1271) 
0.18

>  <formal_charge>  (1271) 
0

>  <fractioncsp3>  (1271) 
0.69

>  <number_of_minimal_rings>  (1271) 
3

>  <van_der_walls_volume>  (1271) 
nan

>  <contains_sugar>  (1271) 
False

>  <contains_ring_sugars>  (1271) 
False

>  <contains_linear_sugars>  (1271) 
False

>  <murcko_framework>  (1271) 
O1CC2=CCCC3CCCCC23C1

>  <np_likeness>  (1271) 
3.21

>  <chemical_class>  (1271) 
Prenol lipids

>  <chemical_sub_class>  (1271) 
Diterpenoids

>  <chemical_super_class>  (1271) 
Lipids and lipid-like molecules

>  <direct_parent_classification>  (1271) 
Colensane and clerodane diterpenoids

>  <np_classifier_pathway>  (1271) 
Terpenoids

>  <np_classifier_superclass>  (1271) 
Diterpenoids

>  <np_classifier_class>  (1271) 
Colensane and Clerodane diterpenoids

>  <np_classifier_is_glycoside>  (1271) 
True

>  <organisms>  (1271) 
Casearia sylvestris

>  <collections>  (1271) 
Latin America dataset|NuBBEDB

>  <dois>  (1271) 
10.1016/S0031-9422(98)00249-0

>  <synonyms>  (1271) 
Casearin G

>  <cas>  (1271) 
nan

$$$$

     RDKit          2D

 34 38  0  0  0  0  0  0  0  0999 V2000
    1.0414   -5.1874    0.0000 O   0  0  0  0  0  0  0  0  0  0  0  0
    0.5392   -3.7739    0.0000 C   0  0  0  0  0  0  0  0  0  0  0  0
   -0.9359   -3.5021    0.0000 C   0  0  0  0  0  0  0  0  0  0  0  0
   -1.4381   -2.0886    0.0000 C   0  0  0  0  0  0  0  0  0  0  0  0
   -2.9132   -1.8168    0.0000 C   0  0  0  0  0  0  0  0  0  0  0  0
   -3.4153   -0.4033    0.0000 C   0  0  0  0  0  0  0  0  0  0  0  0
   -4.8905   -0.1314    0.0000 C   0  0  0  0  0  0  0  0  0  0  0  0
   -5.3926    1.2820    0.0000 C   0  0  0  0  0  0  0  0  0  0  0  0
   -6.8678    1.5539    0.0000 C   0  0  0  0  0  0  0  0  0  0  0  0
   -7.8408    0.4123    0.0000 C   0  0  0  0  0  0  0  0  0  0  0  0
   -9.3160    0.6842    0.0000 O   0  0  0  0  0  0  0  0  0  0  0  0
   -7.3387   -1.0012    0.0000 C   0  0  0  0  0  0  0  0  0  0  0  0
   -5.8635   -1.2730    0.0000 C   0  0  0  0  0  0  0  0  0  0  0  0
   -0.4650   -0.9470    0.0000 C   0  0  0  0  0  0  0  0  0  0  0  0
    1.0101   -1.2189    0.0000 C   0  0  0  0  0  0  0  0  0  0  0  0
    1.9831   -0.0773    0.0000 O   0  0  0  0  0  0  0  0  0  0  0  0
    1.5123   -2.6324    0.0000 C   0  0  0  0  0  0  0  0  0  0  0  0
    2.0849   -1.2460    0.0000 C   0  0  0  0  0  0  0  0  0  0  0  0
    3.5431   -0.8943    0.0000 C   0  0  0  0  0  0  0  0  0  0  0  0
    4.5767   -1.9813    0.0000 C   0  0  0  0  0  0  0  0  0  0  0  0
    6.0349   -1.6297    0.0000 C   0  0  0  0  0  0  0  0  0  0  0  0
    6.4595   -0.1911    0.0000 C   0  0  0  0  0  0  0  0  0  0  0  0
    7.9177    0.1606    0.0000 O   0  0  0  0  0  0  0  0  0  0  0  0
    5.4259    0.8960    0.0000 C   0  0  0  0  0  0  0  0  0  0  0  0
    3.9677    0.5443    0.0000 C   0  0  0  0  0  0  0  0  0  0  0  0
    0.9433   -0.2729    0.0000 C   0  0  0  0  0  0  0  0  0  0  0  0
    1.0595    1.2226    0.0000 C   0  0  0  0  0  0  0  0  0  0  0  0
    2.4127    1.8697    0.0000 C   0  0  0  0  0  0  0  0  0  0  0  0
    2.5289    3.3652    0.0000 C   0  0  0  0  0  0  0  0  0  0  0  0
    3.8821    4.0123    0.0000 O   0  0  0  0  0  0  0  0  0  0  0  0
    1.2918    4.2135    0.0000 C   0  0  0  0  0  0  0  0  0  0  0  0
   -0.0614    3.5664    0.0000 C   0  0  0  0  0  0  0  0  0  0  0  0
   -1.2984    4.4148    0.0000 O   0  0  0  0  0  0  0  0  0  0  0  0
   -0.1776    2.0709    0.0000 C   0  0  0  0  0  0  0  0  0  0  0  0
  1  2  2  0
  2  3  1  0
  3  4  2  0
  4  5  1  0
  5  6  2  3
  6  7  1  0
  7  8  2  0
  8  9  1  0
  9 10  2  0
 10 11  1  0
 10 12  1  0
 12 13  2  0
 14  4  1  6
 14 15  1  0
 15 16  2  0
 15 17  1  0
 17 18  1  0
 18 19  1  6
 19 20  2  0
 20 21  1  0
 21 22  2  0
 22 23  1  0
 22 24  1  0
 24 25  2  0
 18 26  1  0
 26 27  1  1
 27 28  2  0
 28 29  1  0
 29 30  1  0
 29 31  2  0
 31 32  1  0
 32 33  1  0
 32 34  2  0
 17  2  1  6
 25 19  1  0
 34 27  1  0
 13  7  1  0
 26 14  1  0
M  END
>  <identifier>  (1272) 
CNP0288448.4

>  <canonical_smiles>  (1272) 
O=C1C=C(C=CC2=CC=C(O)C=C2)[C@H]2C(=O)[C@@H]1[C@@H](C1=CC=C(O)C=C1)[C@@H]2C1=CC(O)=CC(O)=C1

>  <standard_inchi>  (1272) 
InChI=1S/C28H22O6/c29-19-7-2-15(3-8-19)1-4-17-13-23(33)27-24(16-5-9-20(30)10-6-16)25(26(17)28(27)34)18-11-21(31)14-22(32)12-18/h1-14,24-27,29-32H/t24-,25-,26+,27-/m0/s1

>  <standard_inchi_key>  (1272) 
SVSWTEAHRCVGAR-NFGXINMFSA-N

>  <name>  (1272) 
nan

>  <iupac_name>  (1272) 
(1~{R},5~{S},6~{S},7~{S})-6-(3,5-dihydroxyphenyl)-7-(4-hydroxyphenyl)-4-[2-(4-hydroxyphenyl)vinyl]bicyclo[3.2.1]oct-3-ene-2,8-dione

>  <annotation_level>  (1272) 
4

>  <total_atom_count>  (1272) 
56

>  <heavy_atom_count>  (1272) 
34

>  <molecular_weight>  (1272) 
454.48

>  <exact_molecular_weight>  (1272) 
454.14164

>  <molecular_formula>  (1272) 
C28H22O6

>  <alogp>  (1272) 
4.41

>  <topological_polar_surface_area>  (1272) 
115.06

>  <rotatable_bond_count>  (1272) 
4

>  <hydrogen_bond_acceptors>  (1272) 
6

>  <hydrogen_bond_donors>  (1272) 
4

>  <hydrogen_bond_acceptors_lipinski>  (1272) 
6

>  <hydrogen_bond_donors_lipinski>  (1272) 
4

>  <lipinski_rule_of_five_violations>  (1272) 
0

>  <aromatic_rings_count>  (1272) 
3

>  <qed_drug_likeliness>  (1272) 
0.43

>  <formal_charge>  (1272) 
0

>  <fractioncsp3>  (1272) 
0.14

>  <number_of_minimal_rings>  (1272) 
5

>  <van_der_walls_volume>  (1272) 
nan

>  <contains_sugar>  (1272) 
False

>  <contains_ring_sugars>  (1272) 
False

>  <contains_linear_sugars>  (1272) 
False

>  <murcko_framework>  (1272) 
c1ccc(cc1)C=CC2=CCC3CC2C(c4ccccc4)C3c5ccccc5

>  <np_likeness>  (1272) 
1.13

>  <chemical_class>  (1272) 
Diarylheptanoids

>  <chemical_sub_class>  (1272) 
Linear diarylheptanoids

>  <chemical_super_class>  (1272) 
Phenylpropanoids and polyketides

>  <direct_parent_classification>  (1272) 
Linear diarylheptanoids

>  <np_classifier_pathway>  (1272) 
Shikimates and Phenylpropanoids

>  <np_classifier_superclass>  (1272) 
Stilbenoids

>  <np_classifier_class>  (1272) 
Oligomeric stibenes

>  <np_classifier_is_glycoside>  (1272) 
False

>  <organisms>  (1272) 
Gnetum leybodii

>  <collections>  (1272) 
Latin America dataset|NuBBEDB

>  <dois>  (1272) 
10.1021/np50024a022

>  <synonyms>  (1272) 
Gnetin-A

>  <cas>  (1272) 
nan

$$$$

     RDKit          2D

 18 21  0  0  0  0  0  0  0  0999 V2000
   -3.5219   -2.5798    0.0000 C   0  0  0  0  0  0  0  0  0  0  0  0
   -2.0286   -2.4380    0.0000 O   0  0  0  0  0  0  0  0  0  0  0  0
   -1.4048   -1.0739    0.0000 C   0  0  0  0  0  0  0  0  0  0  0  0
   -2.2742    0.1485    0.0000 C   0  0  0  0  0  0  0  0  0  0  0  0
   -3.7643    0.3202    0.0000 C   0  0  0  0  0  0  0  0  0  0  0  0
   -4.0615    1.7905    0.0000 C   0  0  0  0  0  0  0  0  0  0  0  0
   -2.7550    2.5274    0.0000 O   0  0  0  0  0  0  0  0  0  0  0  0
   -1.6504    1.5126    0.0000 C   0  0  0  0  0  0  0  0  0  0  0  0
   -0.1571    1.6544    0.0000 N   0  0  0  0  0  0  0  0  0  0  0  0
    0.7123    0.4320    0.0000 C   0  0  0  0  0  0  0  0  0  0  0  0
    2.2056    0.5738    0.0000 C   0  0  0  0  0  0  0  0  0  0  0  0
    3.0995    1.7784    0.0000 O   0  0  0  0  0  0  0  0  0  0  0  0
    4.5213    1.3006    0.0000 C   0  0  0  0  0  0  0  0  0  0  0  0
    4.5062   -0.1993    0.0000 O   0  0  0  0  0  0  0  0  0  0  0  0
    3.0751   -0.6485    0.0000 C   0  0  0  0  0  0  0  0  0  0  0  0
    2.4512   -2.0126    0.0000 C   0  0  0  0  0  0  0  0  0  0  0  0
    0.9579   -2.1544    0.0000 C   0  0  0  0  0  0  0  0  0  0  0  0
    0.0885   -0.9321    0.0000 C   0  0  0  0  0  0  0  0  0  0  0  0
  1  2  1  0
  2  3  1  0
  3  4  2  0
  4  5  1  0
  5  6  2  0
  6  7  1  0
  7  8  1  0
  8  9  2  0
  9 10  1  0
 10 11  2  0
 11 12  1  0
 12 13  1  0
 13 14  1  0
 14 15  1  0
 15 16  2  0
 16 17  1  0
 17 18  2  0
 18  3  1  0
  8  4  1  0
 18 10  1  0
 15 11  1  0
M  END
>  <identifier>  (1273) 
CNP0128687.0

>  <canonical_smiles>  (1273) 
COC1=C2C=COC2=NC2=C3OCOC3=CC=C12

>  <standard_inchi>  (1273) 
InChI=1S/C13H9NO4/c1-15-11-7-2-3-9-12(18-6-17-9)10(7)14-13-8(11)4-5-16-13/h2-5H,6H2,1H3

>  <standard_inchi_key>  (1273) 
SDPOFOYJCOPMMV-UHFFFAOYSA-N

>  <name>  (1273) 
Kokusagine

>  <iupac_name>  (1273) 
10-methoxy-3,5,14-trioxa-16-azatetracyclo[7.7.0.0^{2,6}.0^{11,15}]hexadeca-1,6,8,10,12,15-hexaene

>  <annotation_level>  (1273) 
5

>  <total_atom_count>  (1273) 
27

>  <heavy_atom_count>  (1273) 
18

>  <molecular_weight>  (1273) 
243.22

>  <exact_molecular_weight>  (1273) 
243.05316

>  <molecular_formula>  (1273) 
C13H9NO4

>  <alogp>  (1273) 
2.72

>  <topological_polar_surface_area>  (1273) 
53.72

>  <rotatable_bond_count>  (1273) 
1

>  <hydrogen_bond_acceptors>  (1273) 
5

>  <hydrogen_bond_donors>  (1273) 
0

>  <hydrogen_bond_acceptors_lipinski>  (1273) 
5

>  <hydrogen_bond_donors_lipinski>  (1273) 
0

>  <lipinski_rule_of_five_violations>  (1273) 
0

>  <aromatic_rings_count>  (1273) 
3

>  <qed_drug_likeliness>  (1273) 
0.66

>  <formal_charge>  (1273) 
0

>  <fractioncsp3>  (1273) 
0.15

>  <number_of_minimal_rings>  (1273) 
4

>  <van_der_walls_volume>  (1273) 
197.75

>  <contains_sugar>  (1273) 
False

>  <contains_ring_sugars>  (1273) 
False

>  <contains_linear_sugars>  (1273) 
False

>  <murcko_framework>  (1273) 
n1c2occc2cc3ccc4OCOc4c13

>  <np_likeness>  (1273) 
1.39

>  <chemical_class>  (1273) 
Quinolines and derivatives

>  <chemical_sub_class>  (1273) 
Furanoquinolines

>  <chemical_super_class>  (1273) 
Organoheterocyclic compounds

>  <direct_parent_classification>  (1273) 
Furanoquinolines

>  <np_classifier_pathway>  (1273) 
Alkaloids

>  <np_classifier_superclass>  (1273) 
Tryptophan alkaloids

>  <np_classifier_class>  (1273) 
Quinoline alkaloids

>  <np_classifier_is_glycoside>  (1273) 
False

>  <organisms>  (1273) 
Almeidea rubra|Esenbeckia pilocarpoides|Euodia lanu-ankenda|Glycine max|Lunasia amara|Orixa japonica|Vepris nobilis

>  <collections>  (1273) 
CMAUP (cCollective molecular activities of useful plants)|KNApSaCK|Latin America dataset|NPASS|NuBBEDB|Super Natural II|TCMDB-Taiwan (Traditional Chinese Medicine database)|TCMID (Traditional Chinese Medicine Integrated Database)|UNPD (Universal Natural Products Database)|WikiData Natural Products|ZINC NP

>  <dois>  (1273) 
10.1002/CHIN.200413167|10.1016/J.IJANTIMICAG.2007.02.004|10.1016/J.PHYTOCHEM.2003.09.013|10.1016/S0031-9422(00)97107-3|10.1021/JA01532A026|10.1021/NP0401462|10.1021/np0401462|10.1039/P19720002116|10.1055/S-2007-969789|10.1080/00021369.1977.10862665|10.1248/CPB1953.2.159|10.1248/YAKUSHI1947.73.7_773|10.1271/BBB1961.41.1263|10.1590/S0103-50531998000100007

>  <synonyms>  (1273) 
482-32-6|6-Methoxy-1,3-dioxolo[4,5-h]furo[2,3-b]quinoline|CHEMBL491782|Kokusagine

>  <cas>  (1273) 
482-32-6

$$$$

     RDKit          2D

 43 46  0  0  0  0  0  0  0  0999 V2000
    7.4652   -3.4658    0.0000 C   0  0  0  0  0  0  0  0  0  0  0  0
    7.6247   -1.9743    0.0000 C   0  0  0  0  0  0  0  0  0  0  0  0
    6.4128   -1.0904    0.0000 C   0  0  0  0  0  0  0  0  0  0  0  0
    6.5724    0.4011    0.0000 C   0  0  0  0  0  0  0  0  0  0  0  0
    5.0414   -1.6980    0.0000 C   0  0  0  0  0  0  0  0  0  0  0  0
    3.8295   -0.8140    0.0000 C   0  0  0  0  0  0  0  0  0  0  0  0
    1.7855   -1.2274    0.0000 C   0  0  0  0  0  0  0  0  0  0  0  0
    3.2945   -2.6667    0.0000 C   0  0  0  0  0  0  0  0  0  0  0  0
    2.0978    0.0345    0.0000 C   0  0  0  0  0  0  0  0  0  0  0  0
    3.1788    1.0745    0.0000 C   0  0  0  0  0  0  0  0  0  0  0  0
    2.8186    2.5306    0.0000 C   0  0  0  0  0  0  0  0  0  0  0  0
    3.8995    3.5706    0.0000 O   0  0  0  0  0  0  0  0  0  0  0  0
    5.3407    3.1545    0.0000 C   0  0  0  0  0  0  0  0  0  0  0  0
    6.4216    4.1945    0.0000 C   0  0  0  0  0  0  0  0  0  0  0  0
    5.7008    1.6984    0.0000 O   0  0  0  0  0  0  0  0  0  0  0  0
    1.3775    2.9467    0.0000 C   0  0  0  0  0  0  0  0  0  0  0  0
    0.2965    1.9068    0.0000 C   0  0  0  0  0  0  0  0  0  0  0  0
   -1.1996    2.0142    0.0000 C   0  0  0  0  0  0  0  0  0  0  0  0
   -1.9921    3.2877    0.0000 O   0  0  0  0  0  0  0  0  0  0  0  0
   -3.4913    3.2381    0.0000 C   0  0  0  0  0  0  0  0  0  0  0  0
   -4.2838    4.5117    0.0000 C   0  0  0  0  0  0  0  0  0  0  0  0
   -4.1980    1.9150    0.0000 O   0  0  0  0  0  0  0  0  0  0  0  0
   -1.7641    0.6244    0.0000 O   0  0  0  0  0  0  0  0  0  0  0  0
   -0.6168   -0.3419    0.0000 C   0  0  0  0  0  0  0  0  0  0  0  0
   -0.7242   -1.8380    0.0000 O   0  0  0  0  0  0  0  0  0  0  0  0
   -2.0736   -2.4931    0.0000 C   0  0  0  0  0  0  0  0  0  0  0  0
   -2.1810   -3.9892    0.0000 C   0  0  0  0  0  0  0  0  0  0  0  0
   -3.4822   -1.9775    0.0000 O   0  0  0  0  0  0  0  0  0  0  0  0
    0.6567    0.4506    0.0000 C   0  0  0  0  0  0  0  0  0  0  0  0
    0.2483   -0.7835    0.0000 C   0  0  0  0  0  0  0  0  0  0  0  0
   -1.8653   -0.1732    0.0000 O   0  0  0  0  0  0  0  0  0  0  0  0
   -2.9463   -1.2132    0.0000 C   0  0  0  0  0  0  0  0  0  0  0  0
   -2.9491   -2.7132    0.0000 O   0  0  0  0  0  0  0  0  0  0  0  0
   -4.3874   -0.7971    0.0000 C   0  0  0  0  0  0  0  0  0  0  0  0
   -4.7476    0.6590    0.0000 C   0  0  0  0  0  0  0  0  0  0  0  0
   -6.1887    1.0752    0.0000 C   0  0  0  0  0  0  0  0  0  0  0  0
   -7.2696    0.0352    0.0000 C   0  0  0  0  0  0  0  0  0  0  0  0
   -8.7108    0.4513    0.0000 O   0  0  0  0  0  0  0  0  0  0  0  0
   -6.9095   -1.4209    0.0000 C   0  0  0  0  0  0  0  0  0  0  0  0
   -5.4683   -1.8371    0.0000 C   0  0  0  0  0  0  0  0  0  0  0  0
    0.4404   -1.5601    0.0000 C   0  0  0  0  0  0  0  0  0  0  0  0
    1.2090   -1.7821    0.0000 C   0  0  0  0  0  0  0  0  0  0  0  0
    1.7373   -3.9177    0.0000 C   0  0  0  0  0  0  0  0  0  0  0  0
  1  2  2  0
  2  3  1  0
  3  4  1  0
  3  5  2  0
  5  6  1  0
  6  7  1  0
  7  8  1  6
  7  9  1  0
  9 10  1  6
 10 11  1  0
 11 12  1  6
 12 13  1  0
 13 14  1  0
 13 15  2  0
 11 16  1  0
 16 17  2  0
 17 18  1  0
 18 19  1  1
 19 20  1  0
 20 21  1  0
 20 22  2  0
 18 23  1  0
 23 24  1  0
 24 25  1  6
 25 26  1  0
 26 27  1  0
 26 28  2  0
 24 29  1  0
 29 30  1  0
 30 31  1  1
 31 32  1  0
 32 33  2  0
 32 34  1  0
 34 35  2  0
 35 36  1  0
 36 37  2  0
 37 38  1  0
 37 39  1  0
 39 40  2  0
 30 41  1  0
 41 42  1  0
 42 43  1  1
 42  7  1  0
 29  9  1  0
 40 34  1  0
 29 17  1  6
M  END
>  <identifier>  (1274) 
CNP0385639.1

>  <canonical_smiles>  (1274) 
C=C/C(C)=C/C[C@]1(C)[C@H]2C[C@@H](OC(C)=O)C=C3[C@H](OC(C)=O)O[C@@H](OC(C)=O)[C@@]32[C@H](OC(=O)C2=CC=C(O)C=C2)C[C@@H]1C

>  <standard_inchi>  (1274) 
InChI=1S/C33H40O10/c1-8-18(2)13-14-32(7)19(3)15-28(42-29(38)23-9-11-24(37)12-10-23)33-26(16-25(17-27(32)33)39-20(4)34)30(40-21(5)35)43-31(33)41-22(6)36/h8-13,16,19,25,27-28,30-31,37H,1,14-15,17H2,2-7H3/b18-13+/t19-,25-,27+,28+,30+,31+,32-,33-/m0/s1

>  <standard_inchi_key>  (1274) 
NVVFTAMNEDAOEH-GRWYDIJISA-N

>  <name>  (1274) 
caseobliquin A

>  <iupac_name>  (1274) 
[(1~{S},3~{S},5~{R},6~{a}~{R},7~{S},8~{S},10~{R},10~{a}~{R})-1,3,5-triacetoxy-7,8-dimethyl-7-[(2~{E})-3-methylpenta-2,4-dienyl]-1,3,5,6,6~{a},8,9,10-octahydrobenzo[d]isobenzofuran-10-yl] 4-hydroxybenzoate

>  <annotation_level>  (1274) 
5

>  <total_atom_count>  (1274) 
83

>  <heavy_atom_count>  (1274) 
43

>  <molecular_weight>  (1274) 
596.67

>  <exact_molecular_weight>  (1274) 
596.26215

>  <molecular_formula>  (1274) 
C33H40O10

>  <alogp>  (1274) 
5.16

>  <topological_polar_surface_area>  (1274) 
134.66

>  <rotatable_bond_count>  (1274) 
8

>  <hydrogen_bond_acceptors>  (1274) 
10

>  <hydrogen_bond_donors>  (1274) 
1

>  <hydrogen_bond_acceptors_lipinski>  (1274) 
10

>  <hydrogen_bond_donors_lipinski>  (1274) 
1

>  <lipinski_rule_of_five_violations>  (1274) 
2

>  <aromatic_rings_count>  (1274) 
1

>  <qed_drug_likeliness>  (1274) 
0.19

>  <formal_charge>  (1274) 
0

>  <fractioncsp3>  (1274) 
0.52

>  <number_of_minimal_rings>  (1274) 
4

>  <van_der_walls_volume>  (1274) 
541.82

>  <contains_sugar>  (1274) 
False

>  <contains_ring_sugars>  (1274) 
False

>  <contains_linear_sugars>  (1274) 
False

>  <murcko_framework>  (1274) 
O1CC2=CCCC3CCCC(OCc4ccccc4)C23C1

>  <np_likeness>  (1274) 
2.93

>  <chemical_class>  (1274) 
Prenol lipids

>  <chemical_sub_class>  (1274) 
Diterpenoids

>  <chemical_super_class>  (1274) 
Lipids and lipid-like molecules

>  <direct_parent_classification>  (1274) 
Colensane and clerodane diterpenoids

>  <np_classifier_pathway>  (1274) 
Terpenoids

>  <np_classifier_superclass>  (1274) 
Diterpenoids

>  <np_classifier_class>  (1274) 
Colensane and Clerodane diterpenoids

>  <np_classifier_is_glycoside>  (1274) 
True

>  <organisms>  (1274) 
Casearia obliqua|casearia obliqua

>  <collections>  (1274) 
ChemSpider NPs|Latin America dataset|NPASS|NuBBEDB|WikiData Natural Products

>  <dois>  (1274) 
10.1016/J.FITOTE.2009.05.013|10.1021/NP9004079|10.1021/np9004079

>  <synonyms>  (1274) 
CHEMBL1077477|Caseobliquin A

>  <cas>  (1274) 
nan

$$$$

     RDKit          2D

 21 25  0  0  0  0  0  0  0  0999 V2000
    3.3293   -2.2520    0.0000 O   0  0  0  0  0  0  0  0  0  0  0  0
    2.1203   -1.3641    0.0000 C   0  0  0  0  0  0  0  0  0  0  0  0
    2.2847    0.1268    0.0000 C   0  0  0  0  0  0  0  0  0  0  0  0
    3.6581    0.7300    0.0000 C   0  0  0  0  0  0  0  0  0  0  0  0
    3.8225    2.2209    0.0000 C   0  0  0  0  0  0  0  0  0  0  0  0
    2.6134    3.1088    0.0000 C   0  0  0  0  0  0  0  0  0  0  0  0
    1.2400    2.5056    0.0000 C   0  0  0  0  0  0  0  0  0  0  0  0
    1.0757    1.0147    0.0000 C   0  0  0  0  0  0  0  0  0  0  0  0
   -0.2977    0.4115    0.0000 C   0  0  0  0  0  0  0  0  0  0  0  0
   -0.4621   -1.0794    0.0000 C   0  0  0  0  0  0  0  0  0  0  0  0
    0.7469   -1.9673    0.0000 C   0  0  0  0  0  0  0  0  0  0  0  0
    0.5825   -3.4582    0.0000 N   0  0  0  0  0  0  0  0  0  0  0  0
   -0.7909   -4.0614    0.0000 C   0  0  0  0  0  0  0  0  0  0  0  0
   -1.9999   -3.1735    0.0000 C   0  0  0  0  0  0  0  0  0  0  0  0
   -1.8355   -1.6826    0.0000 C   0  0  0  0  0  0  0  0  0  0  0  0
   -3.0446   -0.7947    0.0000 C   0  0  0  0  0  0  0  0  0  0  0  0
   -2.8802    0.6962    0.0000 C   0  0  0  0  0  0  0  0  0  0  0  0
   -1.5068    1.2994    0.0000 C   0  0  0  0  0  0  0  0  0  0  0  0
   -1.6560    2.7919    0.0000 O   0  0  0  0  0  0  0  0  0  0  0  0
   -3.1216    3.1113    0.0000 C   0  0  0  0  0  0  0  0  0  0  0  0
   -3.8782    1.8161    0.0000 O   0  0  0  0  0  0  0  0  0  0  0  0
  1  2  2  0
  2  3  1  0
  3  4  2  0
  4  5  1  0
  5  6  2  0
  6  7  1  0
  7  8  2  0
  8  9  1  0
  9 10  1  0
 10 11  2  0
 11 12  1  0
 12 13  2  0
 13 14  1  0
 14 15  2  0
 15 16  1  0
 16 17  2  0
 17 18  1  0
 18 19  1  0
 19 20  1  0
 20 21  1  0
 11  2  1  0
 21 17  1  0
  8  3  1  0
 18  9  2  0
 15 10  1  0
M  END
>  <identifier>  (1275) 
CNP0321376.0

>  <canonical_smiles>  (1275) 
O=C1C2=CC=CC=C2C2=C3C1=NC=CC3=CC1=C2OCO1

>  <standard_inchi>  (1275) 
InChI=1S/C17H9NO3/c19-16-11-4-2-1-3-10(11)14-13-9(5-6-18-15(13)16)7-12-17(14)21-8-20-12/h1-7H,8H2

>  <standard_inchi_key>  (1275) 
MUMCCPUVOAUBAN-UHFFFAOYSA-N

>  <name>  (1275) 
Liriodenine

>  <iupac_name>  (1275) 
3,5-dioxa-11-azapentacyclo[10.7.1.0^{2,6}.0^{8,20}.0^{14,19}]icosa-1(20),2(6),7,9,11,14,16,18-octaen-13-one

>  <annotation_level>  (1275) 
5

>  <total_atom_count>  (1275) 
30

>  <heavy_atom_count>  (1275) 
21

>  <molecular_weight>  (1275) 
275.26

>  <exact_molecular_weight>  (1275) 
275.05824

>  <molecular_formula>  (1275) 
C17H9NO3

>  <alogp>  (1275) 
3.17

>  <topological_polar_surface_area>  (1275) 
48.42

>  <rotatable_bond_count>  (1275) 
0

>  <hydrogen_bond_acceptors>  (1275) 
4

>  <hydrogen_bond_donors>  (1275) 
0

>  <hydrogen_bond_acceptors_lipinski>  (1275) 
4

>  <hydrogen_bond_donors_lipinski>  (1275) 
0

>  <lipinski_rule_of_five_violations>  (1275) 
0

>  <aromatic_rings_count>  (1275) 
3

>  <qed_drug_likeliness>  (1275) 
0.49

>  <formal_charge>  (1275) 
0

>  <fractioncsp3>  (1275) 
0.06

>  <number_of_minimal_rings>  (1275) 
5

>  <van_der_walls_volume>  (1275) 
224.45

>  <contains_sugar>  (1275) 
False

>  <contains_ring_sugars>  (1275) 
False

>  <contains_linear_sugars>  (1275) 
False

>  <murcko_framework>  (1275) 
n1ccc2cc3OCOc3c4-c5ccccc5Cc1c24

>  <np_likeness>  (1275) 
1.11

>  <chemical_class>  (1275) 
Aporphines

>  <chemical_sub_class>  (1275) 
Aporphines

>  <chemical_super_class>  (1275) 
Alkaloids and derivatives

>  <direct_parent_classification>  (1275) 
Aporphines

>  <np_classifier_pathway>  (1275) 
Alkaloids

>  <np_classifier_superclass>  (1275) 
Tyrosine alkaloids

>  <np_classifier_class>  (1275) 
Aporphine alkaloids

>  <np_classifier_is_glycoside>  (1275) 
False

>  <organisms>  (1275) 
Absidia orchidis|Aconitum vilmorini|Aglaia archboldiana|Allium fistulosum|Alphonsea lutea|Alphonsea mollis|Alpinia flabellata|Alstonia angustiloba|Alstonia villosa|Alternaria bataticola|Anagallis monelli|Anemone anhuiensis|Angelica japonica|Anisocycla cymosa|Anisocycla racemosa|Annickia polycarpa|Annona Squamosa|Annona acuminata|Annona ambotay|Annona bullata|Annona cacans|Annona cherimola|Annona cherimolia|Annona cristalensis|Annona dioica|Annona diversifolia|Annona emarginata|Annona foetida|Annona glabra|Annona hayesii|Annona macroprophyllata|Annona montana|Annona mucosa|Annona neosericea|Annona papilionella|Annona pittieri|Annona purpurea|Annona reticulata|Annona senegalensis|Annona spinescens|Annona squamosa|Anthemis cotula|Aquilaria agallocha|Aquilaria agallochum|Ardisia hortorum|Artabotrys Uncinatus|Artabotrys hexapetalus|Artabotrys uncinatus|Artabotrys zeylanicus|Artemisia pectinata|Asimina triloba|Aspergillus microcysticus|Aspergillus subolivaceus|Atherosperma moschatum|Atrabotrys maingayi|Avena fatua|Baccharis grandicapitulata|Baccharis scoparia|Baccharis truncata|Beesia calthifolia|Beilschmiedia alloiophylla|Benincasa hispida|Bipolaris sacchari|Boschniakia rossica|Botrychium ternatum|Briareum asbestinum|Broussonetia papyrifera|Bupleurum gerardi|Bursera kerberi|Callyspongia spinosissima|Camoensia maxima|Cananga brandisiana|Cananga odorata|Cardiopetalum calophyllum|Centaurea benedicta|Cheimophila salicella|Chelonanthus albus|Chloranthus fortunei|Chuquiraga erinacea|Chydenanthus excelsus|Cinchona rosulenta|Cirsium rivulare|Cissampelos sympodialis|Citrus wilsonii|Cleistopholis patens|Clerodendrum trichotomum|Clinacanthus nutans|Clinopodium acinos|Coffea liberica var. dewevrei|Colubrina faralaotra|Combretum griffithii|Conus gladiator|Costasiella ocellifera|Creosphaeria sassafras|Crotalaria stolzii|Cucurbita pepo|Cuphea hyssopifolia|Curcuma aeruginosa|Cystoseira barbatula|Dasymaschalon longiflorum|Delisea elegans|Delphinium giraldii|Desfontainia fulgens|Desfontainia spinosa|Desmos longifolia|Dictyodendrilla cavernosa|Dilophus guineensis|Diospyros consolatae|Disepalum anomalum|Disepalum pulchrum|Doronicum grandiflorum|Doryphora sassafras|Duguetia obovata|Echinoclathria subhispida|Eliokarmos thyrsoides|Elmerrillia papuana|Emericellopsis minima|Eminium lehmannii|Enantia chlorantha|Enicosanthum acuminatum|Enicosanthum cupulare|Epimedium grandiflorum|Eria rigida|Eucalyptus albens|Eucalyptus cneorifolia|Euclea pseudebenus|Euonymus fortunei|Euphorbia characias subsp. wulfenii|Euphorbia palustris|Euphorbia pithyusa|Euphorbia sikkimensis|Euploca racemosa|Eupomatia bennettii|Eupomatia laurina|Farfugium japonicum|Fissistigma Glaucescens|Fissistigma glaucescens|Fissistigma latifolium|Fissistigma punctulatum|Flindersia amboinensis|Fouquieria diguetii|Friesodielsia velutina|Fritillaria hupehensis|Glossocalyx brevipes|Glossocalyx longicuspis|Goniothalamus amuyon|Goniothalamus cheliensis|Goniothalamus scortechinii|Goniothalamus scortephanine|Goniothalamus tapis|Goniothalamus topis|Greenwayodendron oliveri|Guatteria amplifolia|Guatteria blepharophylla|Guatteria friesiana|Guatteria goudotiana|Guatteria guianensis|Guatteria hispida|Guatteria megalophylla|Guatteria modesta|Guatteria multivenia|Guatteria oliviformis|Guatteria punctata|Guatteria sagotiana|Guatteria schomburgkiana|Guatteriopsis friesiana|Gutierrezia dracunculoides|Gymnacranthera paniculata|Gynoxys verrucosa|Hedysarum gmelini|Helenium integrifolium|Helichrysum fulvum|Hexalobus crispiflorus|Hexalobus monopetalus|Holarrhena floribunda|Holothuria squamifera|Hornschuchia obliqua|Hosta sieboldii|Hubera cerasoides|Hubera nitidissima|Hypogymnia vittata|Illigera luzonensis|Indigofera arrecta|Isolona congolana|Isolona maitlandii|Jatropha mahafalensis|Juniperus scopulorum|Karenia mikimotoi|Laserpitium siler|Lasianthaea podocephala|Lathyrus latifolius|Laurelia novae-zelandiae|Laurelia sempervirens|Leibnitzia anandria|Lettowianthus stellatus|Leucanthemum vulgare|Limaciopsis loangensis|Liriodendron tulipfera|Liriodendron tulipifera|Lithocarpus haipinii|Litsea sericea|Lobophytum strictum|Lora quadra|Lupinus cosentinii|Magnolia Coco|Magnolia abovata|Magnolia baillonii|Magnolia cathcartii|Magnolia champaca|Magnolia coco|Magnolia compressa|Magnolia elegans|Magnolia grandiflora|Magnolia kobus|Magnolia lanuginosa|Magnolia liliifera|Magnolia mexicana|Magnolia obovata|Magnolia odora|Magnolia officinalis|Magnolia rajaniana|Magnolia salicifolia|Magnolia × soulangeana|Mamestra brassicae|Meiogyne monosperma|Meiogyne virgata|Melampodium leucanthum|Michelia alba|Michelia champaca|Michelia lanuginosa|Micheliachampaca|Michellia alba|Michellia champaca|Microcos paniculata|Micromonospora echinospora|Miliusa|Miliusa cuneata|Miliusa horsfieldii|Miliusa sinensis|Miliusa velutina|Mitrephora glabra|Mitrephora maingayi|Mitrephora teysmannii|Mitrephora thorelii|Mitrephora tomentosa|Mitrephora vulpina|Moesziomyces antarcticus|Mollinedia gilgiana|Mollinedia glaziovii|Mollinedia marliae|Mollinedia salicifolia|Mollinedia schottiana|Monodora junodii|Monodora tenuifolia|Morella pensylvanica|Mortonia palmeri|Mucor spinosus|Mycale mytilorum|Nelumbo Nucifera|Nelumbo nucifera|Neolitsea acuminatissima|Neolitsea sericea|Niphates rowi|Nonomuraea spiralis|Ocotea|Oncodostigma monosperma|Ononis viscosa|Ormosia dasycarpa|Oxandra asbeckii|Oxandra major|Oxandra xylopioides|Oxytropis lanata|Pachygone ovata|Papaver caucasicum|Papaver pseudocanescens|Parectatosoma mocquerysi|Passiflora hybrid|Pedicularis rex|Pellacalyx axillaris|Pestalotiopsis oenotherae|Phlebia strigosozonata|Phlomis crinita|Phoebe formosana|Phyllobates bicolor|Physalis coztomatl|Pinus edulis|Piper brachystachyum|Piper sylvaticum|Piptostigma fugax|Plectranthus crassus|Podocarpus nubigenus|Polyalthia cerasoides|Polyalthia insignis|Polyalthia longifolia|Polyalthia macropoda|Polyalthia microtus|Polyalthia sinclairiana|Polyalthia stenopetala|Polymastia boletiformis|Populus balsamifera|Porcelia macrocarpa|Posidonia oceanica|Pseudocyphellaria australiensis|Pseudocyphellaria coronata|Pseuduvaria indochinensis|Pseuduvaria rugosa|Psidium acutangulum|Pterocarpus erinaceus|Pyrus bourgaeana|Renealmia alpinia|Rhigiocarya racemifera|Rhododendron mucronulatum|Rumex japonicus|Salvia amplexicaulis|Salvia broussonetii|Sandoricum koetjape|Sapranthus palanga|Sarcophyton flexuosum|Sargassum fulvellum|Sedum sarmentosum|Selinum libanotis|Senecio congestus|Shigella boydii|Sibthorpia europaea|Sideritis dasygnaphala|Sigillina signifera|Sinomenium acutum|Siparuna apiosyce|Siparuna brasiliensis|Siparuna grandiflora|Siparuna guianensis|Siparuna thecaphora|Siparuna tonduziana|Sorbus torminalis|Sphaerophysa salsula|Spongia vaginalis|Stachyurus praecox|Stellaria media|Stemona tuberosa|Stephania cephalantha|Stephania corymbosa|Stephania dinklagei|Stephania merrillii|Stephania sasakii|Stephania sutchuenensis|Stephania venosa|Stevia pilosa|Streptomyces melanogenes|Streptomyces parvisporogenes|Strychnos gossweileri|Suaeda maritima|Syzygium formosanum|Talauma gitigensis|Talauma mexicana Don.|Teclea verdoorniana|Tephroseris kirilowii|Thalictrum javanicum|Thalictrum sessile|Thelephora aurantiotincta|Thioalkalivibrio versutus|Triunia erythrocarpa|Trivalvaria costata|Trivalvaria macrophylla|Tsoomgiodendron odorum|Tsoongiodendron odorum|Unonopsis guatterioides|Unonopsis spectabilis|Ursinia anethoides|Uvaria argentea|Uvaria mocali|Uvaria mocoli|Uvaria rufa|Uvaria versicolor|Verbascum undulatum|Xanthium sibiricum|Xanthorhiza simplicissima|Xylopia aethiopica|Zanthoxylum Cuspi|Zanthoxylum Nitidum|Zanthoxylum caudatum|Zanthoxylum cuspidatum|Zanthoxylum nitidum|Zanthoxylum simulans|Zanthoxylum tetraspermum|Zephyranthes flava|guatteria hispida|guatteria scbmburgkiana|miliusa cf. banacea

>  <collections>  (1275) 
ANPDB|AfroDB|AfroMalariaDB|Australian natural products|CMAUP (cCollective molecular activities of useful plants)|ChEBI NPs|ChemSpider NPs|ConMedNP|FooDB|InPACdb|KNApSaCK|Latin America dataset|NANPDB (Natural Products from Northern African Sources)|NAPRORE-CR|NPACT|NPASS|NPEdia|NuBBEDB|Phyto4Health|Specs Natural Products|Super Natural II|TCMDB-Taiwan (Traditional Chinese Medicine database)|TCMID (Traditional Chinese Medicine Integrated Database)|TIPdb (database of Taiwan indigenous plants)|UEFS (Natural Products Databse of the UEFS)|UNPD (Universal Natural Products Database)|VietHerb|WikiData Natural Products|ZINC NP

>  <dois>  (1275) 
10.1002/(SICI)1099-1573(199903)13:2<175::AID-PTR395>3.0.CO;2-N|10.1002/CBDV.200800107|10.1002/CHIN.200445214|10.1002/HLCA.200490127|10.1002/HLCA.200790080|10.1002/HLCA.200890109|10.1002/JCCS.197300010|10.1002/JCCS.199700047|10.1002/JCCS.199900084|10.1002/JCCS.200000124|10.1002/JCCS.200000172|10.1002/JCCS.200100177|10.1002/JCCS.200400131|10.1002/JLAC.198219820905|10.1002/JPS.2600580533|10.1002/JPS.2600640512|10.1002/PCA.584|10.1002/PTR.1158|10.1002/PTR.1318|10.1002/PTR.1333|10.1002/RCM.3045|10.1007/978-1-4899-1783-6_3|10.1007/978-3-642-22144-6_19|10.1007/978-90-481-8661-7_29|10.1007/BF00566825|10.1007/BF00567902|10.1007/BF00568268|10.1007/BF00568496|10.1007/BF00569619|10.1007/BF01170231|10.1007/BF02234867|10.1007/S10600-007-0042-0|10.1007/S10600-008-0043-7|10.1007/S10600-010-9463-2|10.1007/S10600-010-9606-5|10.1007/S10600-010-9708-0|10.1007/S10600-011-9919-Z|10.1007/S10600-011-9970-9|10.1007/S10600-012-0141-4|10.1007/S10600-013-0683-0|10.1007/S10600-021-03562-0|10.1007/S11418-007-0138-7|10.1016/0031-9422(73)85146-5|10.1016/0031-9422(75)83032-9|10.1016/0031-9422(75)85326-X|10.1016/0031-9422(75)85392-1|10.1016/0031-9422(76)85135-7|10.1016/0031-9422(86)80080-2|10.1016/0031-9422(88)80247-4|10.1016/0031-9422(88)83076-0|10.1016/0031-9422(90)85037-G|10.1016/0031-9422(90)85344-F|10.1016/0031-9422(91)85144-O|10.1016/0031-9422(92)83308-L|10.1016/0031-9422(93)85547-5|10.1016/0031-9422(94)00675-J|10.1016/0031-9422(95)00333-3|10.1016/0031-9422(96)00181-1|10.1016/0040-4020(75)80132-3|10.1016/0040-4039(64)83105-1|10.1016/0305-1978(95)00002-C|10.1016/0305-1978(95)00096-8|10.1016/J.BMCL.2013.04.013|10.1016/J.BSE.2007.01.011|10.1016/J.BSE.2011.03.001|10.1016/J.CCLET.2008.01.007|10.1016/J.FITOTE.2005.08.011|10.1016/J.FITOTE.2011.01.021|10.1016/J.FITOTE.2011.11.009|10.1016/J.PHYTOCHEM.2006.07.011|10.1016/S0031-9422(00)00012-1|10.1016/S0031-9422(00)00222-3|10.1016/S0031-9422(00)00402-7|10.1016/S0031-9422(00)00486-6|10.1016/S0031-9422(00)80760-8|10.1016/S0031-9422(00)81171-1|10.1016/S0031-9422(00)81172-3|10.1016/S0031-9422(00)81237-6|10.1016/S0031-9422(00)81449-1|10.1016/S0031-9422(00)81765-3|10.1016/S0031-9422(00)82561-3|10.1016/S0031-9422(00)83564-5|10.1016/S0031-9422(00)83902-3|10.1016/S0031-9422(00)83953-9|10.1016/S0031-9422(00)86716-3|10.1016/S0031-9422(00)88656-2|10.1016/S0031-9422(00)90547-8|10.1016/S0031-9422(00)91254-8|10.1016/S0031-9422(00)95214-2|10.1016/S0031-9422(00)97942-1|10.1016/S0031-9422(98)80009-5|10.1016/S0040-4020(01)87082-4|10.1016/S0040-4039(97)00051-8|10.1016/S0305-1978(99)00083-6|10.1016/S0367-326X(02)00089-8|10.1016/S0367-326X(02)00248-4|10.1016/S0367-326X(02)00298-8|10.1016/S1607-551X(09)70172-X|10.1016/j.fct.2005.03.002|10.1021/NP000342I|10.1021/NP000373D|10.1021/NP010036K|10.1021/NP010236W|10.1021/NP0200717|10.1021/NP0204343|10.1021/NP020441R|10.1021/NP0302596|10.1021/NP040078J|10.1021/NP050422S|10.1021/NP100013R|10.1021/NP100247R|10.1021/NP3007414|10.1021/NP50004A007|10.1021/NP50007A010|10.1021/NP50019A011|10.1021/NP50022A020|10.1021/NP50022A021|10.1021/NP50027A027|10.1021/NP50027A028|10.1021/NP50027A029|10.1021/NP50031A035|10.1021/NP50032A036|10.1021/NP50033A010|10.1021/NP50033A032|10.1021/NP50037A038|10.1021/NP50040A028|10.1021/NP50041A025|10.1021/NP50044A029|10.1021/NP50046A023|10.1021/NP50048A018|10.1021/NP50050A059|10.1021/NP50051A036|10.1021/NP50052A036|10.1021/NP50052A044|10.1021/NP50053A020|10.1021/NP50057A017|10.1021/NP50060A027|10.1021/NP50062A009|10.1021/NP50063A002|10.1021/NP50067A010|10.1021/NP50068A039|10.1021/NP50070A013|10.1021/NP50071A028|10.1021/NP50072A043|10.1021/NP50084A001|10.1021/NP50096A025|10.1021/NP50103A009|10.1021/NP50111A003|10.1021/NP800788N|10.1021/NP900572G|10.1021/NP960223W|10.1021/NP960414Z|10.1021/NP9700735|10.1021/NP9702042|10.1021/NP990085L|10.1021/NP990548N|10.1055/S-0028-1097180|10.1055/S-0028-1097295|10.1055/S-0028-1097597|10.1055/S-0028-1097904|10.1055/S-1999-13961|10.1055/S-2000-8597|10.1055/S-2000-8654|10.1055/S-2002-33804|10.1055/S-2003-38493|10.1055/S-2003-43224|10.1055/S-2004-818972|10.1055/S-2006-951691|10.1055/S-2006-960213|10.1055/S-2006-960784|10.1055/S-2006-961021|10.1055/S-2006-962020|10.1055/S-2006-962040|10.1055/S-2006-962347|10.1055/S-2006-962386|10.1055/S-2007-967108|10.1055/S-2007-969493|10.1055/S-2007-969768|10.1055/S-2007-986794|10.1055/s-2007-986794|10.1071/CH9560111|10.1071/CH9651997|10.1071/CH9671403|10.1071/CH9700423|10.1071/CH9712187|10.1071/CH9722659|10.1071/CH9762003|10.1071/CH9911615|10.1071/ch9671403|10.1076/PHBI.41.4.277.15671|10.1080/10575639608044938|10.1080/10575639908048834|10.1080/14786410310001617659|10.1080/14786410802497356|10.1080/14786410902906959|10.1080/14786411003774338|10.1080/14786419.2010.533373|10.1080/14786419.2011.569505|10.1086/329604|10.11110/KJPT.1985.15.3.145|10.1128/AAC.34.4.529|10.1159/000139307|10.1248/CPB.35.2717|10.1248/CPB.36.2259|10.1248/CPB.43.2014|10.1248/CPB.54.1040|10.1248/CPB.59.896|10.1248/YAKUSHI1947.104.10_1030|10.1248/YAKUSHI1947.82.6_925|10.1248/YAKUSHI1947.85.1_77|10.1248/YAKUSHI1947.86.2_124|10.1248/YAKUSHI1947.86.2_129|10.1248/YAKUSHI1947.87.9_1134|10.1590/S0100-46702007000300002|10.1590/S0103-50532003000300009|10.1590/S0103-50532011000600016|10.21608/BFSA.1985.75887|10.2307/4117899|10.3109/13880208909053943|10.3109/13880209.2013.826244|10.3389/FNTPR.2023.1279761|10.3390/MOLECULES15074583|10.3390/MOLECULES15117840|10.3987/COM-89-4768|10.3987/R-1984-09-2071|10.4067/S0717-97072021000105047|10.4268/CJCMM20111611

>  <synonyms>  (1275) 
3,5-dioxa-11-azapentacyclo[10.7.1.02,6.08,20.014,19]icosa-1(20),2(6),7,9,11,14,16,18-octaen-13-one|4-27-00-06585 (Beilstein Handbook Reference)|475-75-2|8H-Benzo[g]-1,3-benzodioxolo[6,5,4-de]quinolin-8-one|8H-Benzo[g]-1,5,4-de]quinolin-8-one|8H-[1,3]Benzodioxolo[6,5,4-de]benzo[g]quinolin-8-one|A934851|AKOS028108460|BDBM50202301|BRN 0273167|C09567|CCRIS 1549|CHEBI:70649|CHEMBL37736|CS-0024041|DTXSID40197165|E134R7X4O9|FS-9911|HY-N3376|Hiriodenine|MEGxp0_001521|Micheline B|NCI60_001798|NCI60_042088|NSC215254|NSC93681|Noraporphin-7-one, 4,5,6,6a-tetradehydro-1,2-(methylenedioxy)-|Oxoushinsunine|Q5976903|SCHEMBL165803|Spermatheridin|Spermatheridine; VLT 045|UNII-E134R7X4O9|Ushinsunine, oxo-

>  <cas>  (1275) 
475-75-2

$$$$

     RDKit          2D

 24 24  0  0  0  0  0  0  0  0999 V2000
  -10.4644   -1.4223    0.0000 C   0  0  0  0  0  0  0  0  0  0  0  0
  -10.3587    0.0740    0.0000 C   0  0  0  0  0  0  0  0  0  0  0  0
   -9.0101    0.7306    0.0000 C   0  0  0  0  0  0  0  0  0  0  0  0
   -7.7671   -0.1091    0.0000 C   0  0  0  0  0  0  0  0  0  0  0  0
   -6.4184    0.5475    0.0000 C   0  0  0  0  0  0  0  0  0  0  0  0
   -5.1755   -0.2922    0.0000 C   0  0  0  0  0  0  0  0  0  0  0  0
   -3.8268    0.3644    0.0000 C   0  0  0  0  0  0  0  0  0  0  0  0
   -2.5839   -0.4753    0.0000 C   0  0  0  0  0  0  0  0  0  0  0  0
   -1.2352    0.1813    0.0000 C   0  0  0  0  0  0  0  0  0  0  0  0
    0.0077   -0.6584    0.0000 C   0  0  0  0  0  0  0  0  0  0  0  0
    1.3564   -0.0018    0.0000 C   0  0  0  0  0  0  0  0  0  0  0  0
    2.5994   -0.8415    0.0000 C   0  0  0  0  0  0  0  0  0  0  0  0
    3.9480   -0.1850    0.0000 C   0  0  0  0  0  0  0  0  0  0  0  0
    5.1910   -1.0246    0.0000 C   0  0  0  0  0  0  0  0  0  0  0  0
    6.5396   -0.3681    0.0000 C   0  0  0  0  0  0  0  0  0  0  0  0
    6.6454    1.1282    0.0000 C   0  0  0  0  0  0  0  0  0  0  0  0
    7.9940    1.7848    0.0000 C   0  0  0  0  0  0  0  0  0  0  0  0
    9.2370    0.9451    0.0000 C   0  0  0  0  0  0  0  0  0  0  0  0
   10.5856    1.6017    0.0000 O   0  0  0  0  0  0  0  0  0  0  0  0
    9.1313   -0.5512    0.0000 C   0  0  0  0  0  0  0  0  0  0  0  0
   10.3742   -1.3908    0.0000 C   0  0  0  0  0  0  0  0  0  0  0  0
    7.7826   -1.2077    0.0000 N   0  0  0  0  0  0  0  0  0  0  0  0
  -11.6017    0.9137    0.0000 N   0  0  0  0  0  0  0  0  0  0  0  0
  -12.9503    0.2571    0.0000 O   0  0  0  0  0  0  0  0  0  0  0  0
  1  2  1  0
  2  3  1  0
  3  4  1  0
  4  5  1  0
  5  6  1  0
  6  7  1  0
  7  8  1  0
  8  9  1  0
  9 10  1  0
 10 11  1  0
 11 12  1  0
 12 13  1  0
 13 14  1  0
 15 14  1  1
 15 16  1  0
 16 17  1  0
 17 18  1  0
 18 19  1  1
 18 20  1  0
 20 21  1  1
 20 22  1  0
  2 23  2  0
 23 24  1  0
 22 15  1  0
M  END
>  <identifier>  (1276) 
CNP0234859.1

>  <canonical_smiles>  (1276) 
C/C(CCCCCCCCCCCC[C@H]1CC[C@@H](O)[C@@H](C)N1)=N\O

>  <standard_inchi>  (1276) 
InChI=1S/C20H40N2O2/c1-17(22-24)13-11-9-7-5-3-4-6-8-10-12-14-19-15-16-20(23)18(2)21-19/h18-21,23-24H,3-16H2,1-2H3/b22-17+/t18-,19+,20-/m1/s1

>  <standard_inchi_key>  (1276) 
HHEMYPOKGNDJRD-FKLTYTASSA-N

>  <name>  (1276) 
nan

>  <iupac_name>  (1276) 
(~{E})-14-[(2~{S},5~{R},6~{R})-5-hydroxy-6-methyl-2-piperidyl]tetradecan-2-one oxime

>  <annotation_level>  (1276) 
5

>  <total_atom_count>  (1276) 
64

>  <heavy_atom_count>  (1276) 
24

>  <molecular_weight>  (1276) 
340.55

>  <exact_molecular_weight>  (1276) 
340.30898

>  <molecular_formula>  (1276) 
C20H40N2O2

>  <alogp>  (1276) 
5.02

>  <topological_polar_surface_area>  (1276) 
64.85

>  <rotatable_bond_count>  (1276) 
13

>  <hydrogen_bond_acceptors>  (1276) 
4

>  <hydrogen_bond_donors>  (1276) 
3

>  <hydrogen_bond_acceptors_lipinski>  (1276) 
4

>  <hydrogen_bond_donors_lipinski>  (1276) 
3

>  <lipinski_rule_of_five_violations>  (1276) 
1

>  <aromatic_rings_count>  (1276) 
0

>  <qed_drug_likeliness>  (1276) 
0.19

>  <formal_charge>  (1276) 
0

>  <fractioncsp3>  (1276) 
0.95

>  <number_of_minimal_rings>  (1276) 
1

>  <van_der_walls_volume>  (1276) 
368.10

>  <contains_sugar>  (1276) 
False

>  <contains_ring_sugars>  (1276) 
False

>  <contains_linear_sugars>  (1276) 
False

>  <murcko_framework>  (1276) 
N1CCCCC1

>  <np_likeness>  (1276) 
1.55

>  <chemical_class>  (1276) 
nan

>  <chemical_sub_class>  (1276) 
Alkaloids and derivatives

>  <chemical_super_class>  (1276) 
Alkaloids and derivatives

>  <direct_parent_classification>  (1276) 
Alkaloids and derivatives

>  <np_classifier_pathway>  (1276) 
Alkaloids

>  <np_classifier_superclass>  (1276) 
Lysine alkaloids

>  <np_classifier_class>  (1276) 
Piperidine alkaloids

>  <np_classifier_is_glycoside>  (1276) 
False

>  <organisms>  (1276) 
Senna spectabilis

>  <collections>  (1276) 
ChemSpider NPs|Latin America dataset|NuBBEDB|Super Natural II|WikiData Natural Products|ZINC NP

>  <dois>  (1276) 
10.1248/CPB.56.407|10.1248/cpb.56.407

>  <synonyms>  (1276) 
2-(R)-methyl-6-(S)-(tetradecyl-13'-hydroxime)-piperidin-3-(R)-ol

>  <cas>  (1276) 
nan

$$$$

     RDKit          2D

 23 24  0  0  0  0  0  0  0  0999 V2000
   -1.0097   -2.6987    0.0000 C   0  0  0  0  0  0  0  0  0  0  0  0
    0.2533   -1.8895    0.0000 C   0  0  0  0  0  0  0  0  0  0  0  0
    1.5856   -2.5787    0.0000 C   0  0  0  0  0  0  0  0  0  0  0  0
    2.8486   -1.7695    0.0000 C   0  0  0  0  0  0  0  0  0  0  0  0
    2.7794   -0.2711    0.0000 C   0  0  0  0  0  0  0  0  0  0  0  0
    4.0424    0.5380    0.0000 C   0  0  0  0  0  0  0  0  0  0  0  0
    5.5060    0.8664    0.0000 C   0  0  0  0  0  0  0  0  0  0  0  0
    4.6200   -0.8463    0.0000 C   0  0  0  0  0  0  0  0  0  0  0  0
    6.1076   -1.0383    0.0000 O   0  0  0  0  0  0  0  0  0  0  0  0
    3.9732    2.0364    0.0000 C   0  0  0  0  0  0  0  0  0  0  0  0
    2.6409    2.7257    0.0000 C   0  0  0  0  0  0  0  0  0  0  0  0
    1.3778    1.9165    0.0000 C   0  0  0  0  0  0  0  0  0  0  0  0
    1.4471    0.4181    0.0000 C   0  0  0  0  0  0  0  0  0  0  0  0
    0.1148    1.1073    0.0000 C   0  0  0  0  0  0  0  0  0  0  0  0
    0.1841   -0.3911    0.0000 C   0  0  0  0  0  0  0  0  0  0  0  0
   -1.1482    0.2981    0.0000 C   0  0  0  0  0  0  0  0  0  0  0  0
   -2.4112   -0.5110    0.0000 C   0  0  0  0  0  0  0  0  0  0  0  0
   -3.7435    0.1782    0.0000 C   0  0  0  0  0  0  0  0  0  0  0  0
   -3.8128    1.6766    0.0000 C   0  0  0  0  0  0  0  0  0  0  0  0
   -5.0065   -0.6310    0.0000 C   0  0  0  0  0  0  0  0  0  0  0  0
   -6.3388    0.0583    0.0000 C   0  0  0  0  0  0  0  0  0  0  0  0
   -6.4081    1.5567    0.0000 O   0  0  0  0  0  0  0  0  0  0  0  0
   -7.6019   -0.7509    0.0000 O   0  0  0  0  0  0  0  0  0  0  0  0
  1  2  2  0
  2  3  1  0
  3  4  1  0
  5  4  1  6
  5  6  1  0
  6  7  1  1
  6  8  1  0
  8  9  1  0
  6 10  1  0
 10 11  1  0
 11 12  1  0
 12 13  1  0
 13 14  1  6
 13 15  1  0
 15 16  1  6
 16 17  1  0
 17 18  1  0
 18 19  1  0
 18 20  2  0
 20 21  1  0
 21 22  2  0
 21 23  1  0
 15  2  1  0
 13  5  1  0
M  END
>  <identifier>  (1277) 
CNP0239817.4

>  <canonical_smiles>  (1277) 
C=C1CC[C@H]2[C@@](C)(CO)CCC[C@]2(C)[C@H]1CC/C(C)=C/C(=O)O

>  <standard_inchi>  (1277) 
InChI=1S/C20H32O3/c1-14(12-18(22)23)6-8-16-15(2)7-9-17-19(3,13-21)10-5-11-20(16,17)4/h12,16-17,21H,2,5-11,13H2,1,3-4H3,(H,22,23)/b14-12+/t16-,17-,19+,20+/m0/s1

>  <standard_inchi_key>  (1277) 
YGILXMANNHJYJZ-HFHLTBSCSA-N

>  <name>  (1277) 
nan

>  <iupac_name>  (1277) 
(~{E})-5-[(1~{S},4~{a}~{R},5~{S},8~{a}~{R})-5-(hydroxymethyl)-5,8~{a}-dimethyl-2-methylene-decalin-1-yl]-3-methyl-pent-2-enoic acid

>  <annotation_level>  (1277) 
4

>  <total_atom_count>  (1277) 
55

>  <heavy_atom_count>  (1277) 
23

>  <molecular_weight>  (1277) 
320.47

>  <exact_molecular_weight>  (1277) 
320.23514

>  <molecular_formula>  (1277) 
C20H32O3

>  <alogp>  (1277) 
4.57

>  <topological_polar_surface_area>  (1277) 
57.53

>  <rotatable_bond_count>  (1277) 
5

>  <hydrogen_bond_acceptors>  (1277) 
2

>  <hydrogen_bond_donors>  (1277) 
2

>  <hydrogen_bond_acceptors_lipinski>  (1277) 
2

>  <hydrogen_bond_donors_lipinski>  (1277) 
2

>  <lipinski_rule_of_five_violations>  (1277) 
0

>  <aromatic_rings_count>  (1277) 
0

>  <qed_drug_likeliness>  (1277) 
0.58

>  <formal_charge>  (1277) 
0

>  <fractioncsp3>  (1277) 
0.75

>  <number_of_minimal_rings>  (1277) 
2

>  <van_der_walls_volume>  (1277) 
nan

>  <contains_sugar>  (1277) 
False

>  <contains_ring_sugars>  (1277) 
False

>  <contains_linear_sugars>  (1277) 
False

>  <murcko_framework>  (1277) 
C1CCC2CCCCC2C1

>  <np_likeness>  (1277) 
3.05

>  <chemical_class>  (1277) 
Prenol lipids

>  <chemical_sub_class>  (1277) 
Diterpenoids

>  <chemical_super_class>  (1277) 
Lipids and lipid-like molecules

>  <direct_parent_classification>  (1277) 
Diterpenoids

>  <np_classifier_pathway>  (1277) 
Terpenoids

>  <np_classifier_superclass>  (1277) 
Diterpenoids

>  <np_classifier_class>  (1277) 
Labdane diterpenoids

>  <np_classifier_is_glycoside>  (1277) 
False

>  <organisms>  (1277) 
Agathis robusta|Araucaria angustifolia|Pinus pumila

>  <collections>  (1277) 
Australian natural products|Latin America dataset|NuBBEDB|Super Natural II|WikiData Natural Products|ZINC NP

>  <dois>  (1277) 
10.1007/BF00580548|10.1016/S0031-9422(00)91124-5|10.1071/ch9701457

>  <synonyms>  (1277) 
Agatholic acid

>  <cas>  (1277) 
nan

$$$$

     RDKit          2D

 22 24  0  0  0  0  0  0  0  0999 V2000
   -5.0776    1.7497    0.0000 C   0  0  0  0  0  0  0  0  0  0  0  0
   -4.5611    0.3414    0.0000 C   0  0  0  0  0  0  0  0  0  0  0  0
   -5.5225   -0.8100    0.0000 C   0  0  0  0  0  0  0  0  0  0  0  0
   -3.0833    0.0845    0.0000 C   0  0  0  0  0  0  0  0  0  0  0  0
   -2.1219    1.2359    0.0000 C   0  0  0  0  0  0  0  0  0  0  0  0
   -0.6441    0.9791    0.0000 C   0  0  0  0  0  0  0  0  0  0  0  0
   -0.1276   -0.4292    0.0000 C   0  0  0  0  0  0  0  0  0  0  0  0
   -1.0890   -1.5806    0.0000 C   0  0  0  0  0  0  0  0  0  0  0  0
   -2.5668   -1.3238    0.0000 C   0  0  0  0  0  0  0  0  0  0  0  0
   -3.5282   -2.4752    0.0000 O   0  0  0  0  0  0  0  0  0  0  0  0
    1.3502   -0.6861    0.0000 C   0  0  0  0  0  0  0  0  0  0  0  0
    0.3888   -1.8375    0.0000 C   0  0  0  0  0  0  0  0  0  0  0  0
    1.8667   -2.0944    0.0000 C   0  0  0  0  0  0  0  0  0  0  0  0
    3.3445   -2.3513    0.0000 C   0  0  0  0  0  0  0  0  0  0  0  0
    4.3059   -1.1999    0.0000 C   0  0  0  0  0  0  0  0  0  0  0  0
    3.7894    0.2084    0.0000 C   0  0  0  0  0  0  0  0  0  0  0  0
    3.7858    1.7084    0.0000 C   0  0  0  0  0  0  0  0  0  0  0  0
    5.2660    0.4725    0.0000 C   0  0  0  0  0  0  0  0  0  0  0  0
    2.3116    0.4653    0.0000 C   0  0  0  0  0  0  0  0  0  0  0  0
    1.7951    1.8736    0.0000 C   0  0  0  0  0  0  0  0  0  0  0  0
    0.3173    2.1305    0.0000 C   0  0  0  0  0  0  0  0  0  0  0  0
   -0.1992    3.5387    0.0000 O   0  0  0  0  0  0  0  0  0  0  0  0
  1  2  1  0
  2  3  1  0
  2  4  1  0
  4  5  2  0
  5  6  1  0
  6  7  2  0
  7  8  1  0
  8  9  2  0
  9 10  1  0
  7 11  1  0
 11 12  1  1
 11 13  1  0
 13 14  1  0
 14 15  1  0
 15 16  1  0
 16 17  1  0
 16 18  1  0
 16 19  1  0
 19 20  1  1
 20 21  1  0
 21 22  2  0
  9  4  1  0
 19 11  1  0
 21  6  1  0
M  END
>  <identifier>  (1278) 
CNP0229665.3

>  <canonical_smiles>  (1278) 
CC(C)C1=CC2=C(C=C1O)[C@@]1(C)CCCC(C)(C)[C@@H]1CC2=O

>  <standard_inchi>  (1278) 
InChI=1S/C20H28O2/c1-12(2)13-9-14-15(10-16(13)21)20(5)8-6-7-19(3,4)18(20)11-17(14)22/h9-10,12,18,21H,6-8,11H2,1-5H3/t18-,20+/m0/s1

>  <standard_inchi_key>  (1278) 
IPEHJNRNYPOFII-AZUAARDMSA-N

>  <name>  (1278) 
SUGIOL

>  <iupac_name>  (1278) 
(4~{a}~{S},10~{a}~{S})-6-hydroxy-7-isopropyl-1,1,4~{a}-trimethyl-3,4,10,10~{a}-tetrahydro-2~{H}-phenanthren-9-one

>  <annotation_level>  (1278) 
5

>  <total_atom_count>  (1278) 
50

>  <heavy_atom_count>  (1278) 
22

>  <molecular_weight>  (1278) 
300.44

>  <exact_molecular_weight>  (1278) 
300.20893

>  <molecular_formula>  (1278) 
C20H28O2

>  <alogp>  (1278) 
5.19

>  <topological_polar_surface_area>  (1278) 
37.30

>  <rotatable_bond_count>  (1278) 
1

>  <hydrogen_bond_acceptors>  (1278) 
2

>  <hydrogen_bond_donors>  (1278) 
1

>  <hydrogen_bond_acceptors_lipinski>  (1278) 
2

>  <hydrogen_bond_donors_lipinski>  (1278) 
1

>  <lipinski_rule_of_five_violations>  (1278) 
1

>  <aromatic_rings_count>  (1278) 
1

>  <qed_drug_likeliness>  (1278) 
0.77

>  <formal_charge>  (1278) 
0

>  <fractioncsp3>  (1278) 
0.65

>  <number_of_minimal_rings>  (1278) 
3

>  <van_der_walls_volume>  (1278) 
300.18

>  <contains_sugar>  (1278) 
False

>  <contains_ring_sugars>  (1278) 
False

>  <contains_linear_sugars>  (1278) 
False

>  <murcko_framework>  (1278) 
c1ccc2c(c1)CCC3CCCCC23

>  <np_likeness>  (1278) 
2.44

>  <chemical_class>  (1278) 
Prenol lipids

>  <chemical_sub_class>  (1278) 
Diterpenoids

>  <chemical_super_class>  (1278) 
Lipids and lipid-like molecules

>  <direct_parent_classification>  (1278) 
Diterpenoids

>  <np_classifier_pathway>  (1278) 
Terpenoids

>  <np_classifier_superclass>  (1278) 
Diterpenoids

>  <np_classifier_class>  (1278) 
Abietane diterpenoids

>  <np_classifier_is_glycoside>  (1278) 
False

>  <organisms>  (1278) 
Acacia myrtifolia|Acer pictum subsp. okamotoanum|Achyranthes obtusifolia|Achyrocline bogotensis|Achyrocline tomentosa|Aegiphila lhotskiana|Aegiphila verticillata|Agathosma thymifolia|Alhagi maurorum|Allium angulosum|Allochromatium minutissimum|Alstonia yunnanensis|Amentotaxus formosana|Amentotaxus yunnanensis|Anemone thalictroides|Aplysilla tango|Aralia continentalis|Araucaria angustifolia|Artemisia siversiana|Arthropsis truncata|Aspilia hispida|Austrocedrus chilensis|Azadirachta indica|Banisteriopsis argentea|Beauveria bassiana|Betula divaricata|Blepharisma japonicum|Botryllus leachi|Breonia chinensis|Calocedrus formosana|Camptothecium lutescens|Campylotropis hirtella|Caria ino|Caryopteris incana|Cephalotaxus harringtonia var.drupacea|Cephalotaxus harringtonii var. wilsoniana|Cephalotaxus wilsoniana|Ceropegia dichotoma|Cetraria ciliaris|Chamaecyparis formosensis|Chamaecyparis obtusa|Chamaecyparis pisifera|Chamaemelum fuscatum|Cladonia bellidiflora|Cladonia rangiferina|Clerodendron cyrtophyllum|Clerodendrum bungei|Clerodendrum cyrtophyllum|Clerodendrum eriophyllum|Clusia sandiensis|Coprosma australis|Crepis zacintha|Crinum moorei|Crotalaria candicans|Cryptomeria japonica|Cryptomeria japonica var. sinensis|Ctenodiscus crispatus|Cunninghamia lanceolata|Cylindrocarpon lucidum|Cynanchum auriculatum|Dacrydium cupressinum|Dalea versicolor|Dasymaschalon blumei|Decachaeta ovatifolia|Deguelia hatschbachii|Delphinium cyphoplectrum|Delphinium scabriflorum|Dendrobium loddigesii|Desmodium pulchellu|Dianthus barbatus|Didemnum obscurum|Dioscorea communis|Diploprion bifasciatum|Distephanus angulifolius|Doriopsilla areolata|Echinops kebericho|Edgeworthia chrysantha|Eria japonica|Eria macrophylla|Erucastrum gallicum|Erythrophleum chlorostachys|Eucalyptus apodophylla|Eucalyptus globulus subsp. bicostata|Euphorbia retusa|Felimare midatlantica|Glycine falcata|Glycosmis macrophylla|Goniothalamus dolichocarpus|Guettarda platypoda|Gypsophila perfoliata|Hedyotis acutangula|Helicia nilagirica|Herniaria fontanesii|Hydrolithon reinboldii|Hypericum polyanthemum|Hyptis comaroides|Isodon adenolomus|Juniperus brevifolia|Juniperus chinensis|Juniperus communis|Juniperus drupacea|Juniperus formosana|Juniperus formosana Hay.var.concolor Hay|Juniperus polycarpos var. seravschanica|Juniperus polycarpus var. seravschanica|Juniperus procera|Juniperus rigida|Koelpinia linearis|Lactarius deliciosus|Lecanora sulphurella|Liatris tenuifolia|Libocedrus bidwillii|Lobelia inflata|Lycium chinense|Lysimachia candida|Marasmiellus ramealis|Martensia denticulata|Mentha cardiaca|Moonia heterophylla|Morella nagi|Nageia nagi|Nannocystis exedens|Nicotiana trigonophylla|Notholaena dealbata|Ononis spinosa|Ormosia macrophylla|Osmundaria spiralis|Pachysandra terminalis|Palmaria palmata|Panax stipuleanatus|Peltodon longipes|Penicillium pedemontanum|Pentaclethra macrophylla|Periploca sepium|Persicaria filiformis|Petasites spurius|Phaleria macrocarpa|Phallusia fumigata|Pholiota adiposa|Picea jezoensis var. jezoensis|Picradeniopsis pringlei|Pistacia chinensis|Plectranthus ecklonii|Plectranthus myrianthus|Pleurophycus gardneri|Podocarpus|Premna herbacea|Premna serratifolia|Protoparmeliopsis peltata|Prumnopitys andina|Prumnopitys ferruginea|Psolus eximius|Pterocaulon virgatum|Pulicaria insignis|Rhabdia lycioides|Rhaphiolepis umbellata|Rhodiola semenovii|Ritterella rubra|Salvia aethiopis|Salvia amplexicaulis|Salvia amplexicaulis Lam.|Salvia aspera|Salvia bracteata|Salvia bracteata Banks and Sol.|Salvia broussonetii|Salvia cana|Salvia canariensis|Salvia candelabrum|Salvia coulteri|Salvia lanata|Salvia miltiorrhiza|Salvia napifolia|Salvia officinalis|Salvia pachystachya|Salvia phlomoides|Salvia prionitis|Salvia przewalskii|Salvia recognita|Salvia recognita Fisch.et Mey.|Salvia sessei|Salvia tomentosa|Salvia trijuga|Salvia viridis|Salvia yunnanensis|Salvinia molesta|Sapium indicum|Saussurea candicans|Scutellaria albida|Seiridium cupressi|Senecio fuertesii|Sequoia sempervirens|Sideritis cystosiphon|Sonneratia caseolaris|Sphaerellopsis filum|Stachys tuberifera|Stauntonia obovatifoliola|Stephania zippeliana|Streptomyces lateritius|Stylotrichium rotundifolium|Talaromyces aculeatus|Talaromyces variabilis|Taxodium distichum|Taxus mairei|Tecoma undulata|Thuja occidentalis|Thuja plicata|Thuja standishii|Thujopsis dolabrata|Tripterygium wilfordii|Tristania conferta|Tylophora atrofolliculata|Uvaria klaineana|Vanderbylia fraxinea|Verbesina virgata|Vernonia brevifolia|Vernonia cistifolia|Veronica polita|Viburnum jucundum|Viburnum sieboldi|Vicia sativa|meadow clary

>  <collections>  (1278) 
ANPDB|Australian natural products|CMAUP (cCollective molecular activities of useful plants)|ChEBI NPs|KNApSaCK|Latin America dataset|NANPDB (Natural Products from Northern African Sources)|NPASS|NuBBEDB|Phyto4Health|Super Natural II|TCMDB-Taiwan (Traditional Chinese Medicine database)|TIPdb (database of Taiwan indigenous plants)|WikiData Natural Products

>  <dois>  (1278) 
10.1002/(SICI)1099-1573(199611)10:7<604::AID-PTR922>3.0.CO;2-C|10.1002/CHIN.200303162|10.1002/HLCA.200390214|10.1002/JCCS.197500043|10.1002/JCCS.198200036|10.1002/MRC.1236|10.1016/0031-9422(75)85256-3|10.1016/0031-9422(82)85223-0|10.1016/0031-9422(83)80033-8|10.1016/0031-9422(91)85049-6|10.1016/0031-9422(92)83103-6|10.1016/0031-9422(94)00854-M|10.1016/0031-9422(95)00298-L|10.1016/0031-9422(95)00416-5|10.1016/0031-9422(95)00795-4|10.1016/0031-9422(95)00877-2|10.1016/0040-4020(60)85006-5|10.1016/J.BMC.2011.06.067|10.1016/J.BMCL.2005.02.057|10.1016/J.BMCL.2013.10.040|10.1016/J.CCLET.2010.03.007|10.1016/J.PHYTOCHEM.2005.11.005|10.1016/J.PHYTOCHEM.2006.07.020|10.1016/J.PHYTOCHEM.2007.07.026|10.1016/J.PHYTOCHEM.2010.08.012|10.1016/J.PHYTOL.2010.04.002|10.1016/J.PHYTOL.2010.08.002|10.1016/J.TET.2011.11.058|10.1016/S0031-9422(00)86934-4|10.1016/S0031-9422(00)86989-7|10.1016/S0031-9422(00)89538-2|10.1016/S0031-9422(00)89808-8|10.1016/S0031-9422(00)90849-5|10.1016/S0031-9422(00)91124-5|10.1016/S0031-9422(00)94548-5|10.1016/S0031-9422(00)94837-4|10.1016/S0031-9422(00)97825-7|10.1016/S0031-9422(03)00225-5|10.1016/S0031-9422(96)00609-7|10.1016/S0031-9422(97)01056-X|10.1016/S0031-9422(98)00471-3|10.1016/S0031-9422(99)00074-6|10.1016/S0031-9422(99)00453-7|10.1016/j.bmc.2011.06.067|10.1016/j.bmcl.2013.10.040|10.1021/JF058045C|10.1021/JO00298A029|10.1021/NP050368F|10.1021/NP50038A039|10.1021/NP50060A002|10.1021/NP50063A018|10.1021/NP50072A036|10.1021/NP50121A011|10.1021/NP8002063|10.1021/NP960389X|10.1021/acs.jnatprod.5b01131|10.1039/P19790001774|10.1055/S-2000-8596|10.1055/S-2001-16491|10.1055/S-2001-18359|10.1055/S-2003-37037|10.1055/S-2004-818980|10.1055/S-2005-864094|10.1055/S-2006-957435|10.1055/S-2006-957655|10.1055/S-2007-969854|10.1055/S-2007-990233|10.1071/CH9710217|10.1248/CPB.38.3195|10.1248/CPB.41.1415|10.1248/CPB.45.1306|10.1248/CPB.47.1797|10.1248/CPB.50.1607|10.1248/CPB.52.354|10.1248/CPB.53.1575|10.1248/CPB.56.89|10.1271/BBB1961.48.2523|10.3891/ACTA.CHEM.SCAND.08-1728|10.4067/S0366-16442001000100010

>  <synonyms>  (1278) 
(+)-Sugiol|(4aS,10aS)-6-hydroxy-1,1,4a-trimethyl-7-(propan-2-yl)-1,2,3,4,4a,9,10,10a-octahydrophenanthren-9-one|(4aS,10aS)-6-hydroxy-1,1,4a-trimethyl-7-propan-2-yl-3,4,10,10a-tetrahy dro-2H-phenanthren-9-one|12-Hydroxyabieta-8,11,13-trien-7-one|511-05-7|6-Hydroxy-7-isopropyl-1,1,4a-trimethyl-2,3,4,4a,10,10a-hexahydrophenanthren- 9(1H)-one|9(1H)-Phenanthrenone, 2,3,4,4a,10,10a-hexahydro-6-hydroxy-1,1,4a-trimethyl-7-(1-methylethyl)-, (4aS-trans)-|AKOS040760726|C21822|CHEBI:138961|CHEMBL195296|DTXSID70965374|FS-7573|NSC 122421|Podocarpa-8,11,13-trien-7-one, 12-hydroxy-13-isopropyl-|SCHEMBL1086916|Sugiol|sugiol

>  <cas>  (1278) 
511-05-7

$$$$

     RDKit          2D

 35 37  0  0  0  0  0  0  0  0999 V2000
   -6.8386   -2.9832    0.0000 C   0  0  0  0  0  0  0  0  0  0  0  0
   -5.3506   -3.1726    0.0000 O   0  0  0  0  0  0  0  0  0  0  0  0
   -4.4426   -1.9787    0.0000 C   0  0  0  0  0  0  0  0  0  0  0  0
   -5.0225   -0.5953    0.0000 C   0  0  0  0  0  0  0  0  0  0  0  0
   -4.1145    0.5986    0.0000 C   0  0  0  0  0  0  0  0  0  0  0  0
   -4.6944    1.9820    0.0000 O   0  0  0  0  0  0  0  0  0  0  0  0
   -6.1824    2.1714    0.0000 C   0  0  0  0  0  0  0  0  0  0  0  0
   -6.7624    3.5547    0.0000 C   0  0  0  0  0  0  0  0  0  0  0  0
   -7.0905    0.9775    0.0000 O   0  0  0  0  0  0  0  0  0  0  0  0
   -2.6265    0.4092    0.0000 C   0  0  0  0  0  0  0  0  0  0  0  0
   -1.7185    1.6031    0.0000 C   0  0  0  0  0  0  0  0  0  0  0  0
   -2.2984    2.9865    0.0000 O   0  0  0  0  0  0  0  0  0  0  0  0
   -0.2305    1.4137    0.0000 C   0  0  0  0  0  0  0  0  0  0  0  0
    0.6776    2.6076    0.0000 O   0  0  0  0  0  0  0  0  0  0  0  0
    2.1656    2.4182    0.0000 C   0  0  0  0  0  0  0  0  0  0  0  0
    0.3495    0.0303    0.0000 C   0  0  0  0  0  0  0  0  0  0  0  0
    1.8375   -0.1591    0.0000 C   0  0  0  0  0  0  0  0  0  0  0  0
    2.7455    1.0348    0.0000 C   0  0  0  0  0  0  0  0  0  0  0  0
    4.2335    0.8454    0.0000 C   0  0  0  0  0  0  0  0  0  0  0  0
    5.1416    2.0393    0.0000 O   0  0  0  0  0  0  0  0  0  0  0  0
    4.5616    3.4227    0.0000 C   0  0  0  0  0  0  0  0  0  0  0  0
    5.4696    4.6166    0.0000 C   0  0  0  0  0  0  0  0  0  0  0  0
    3.0736    3.6121    0.0000 O   0  0  0  0  0  0  0  0  0  0  0  0
    4.8135   -0.5379    0.0000 C   0  0  0  0  0  0  0  0  0  0  0  0
    6.3015   -0.7274    0.0000 O   0  0  0  0  0  0  0  0  0  0  0  0
    6.8814   -2.1107    0.0000 C   0  0  0  0  0  0  0  0  0  0  0  0
    3.9054   -1.7319    0.0000 C   0  0  0  0  0  0  0  0  0  0  0  0
    2.4174   -1.5424    0.0000 C   0  0  0  0  0  0  0  0  0  0  0  0
    1.5094   -2.7364    0.0000 O   0  0  0  0  0  0  0  0  0  0  0  0
    2.0893   -4.1197    0.0000 C   0  0  0  0  0  0  0  0  0  0  0  0
    1.1813   -5.3136    0.0000 C   0  0  0  0  0  0  0  0  0  0  0  0
    3.5773   -4.3091    0.0000 O   0  0  0  0  0  0  0  0  0  0  0  0
   -0.5586   -1.1636    0.0000 O   0  0  0  0  0  0  0  0  0  0  0  0
   -2.0465   -0.9742    0.0000 C   0  0  0  0  0  0  0  0  0  0  0  0
   -2.9546   -2.1681    0.0000 C   0  0  0  0  0  0  0  0  0  0  0  0
  1  2  1  0
  2  3  1  0
  3  4  2  0
  4  5  1  0
  5  6  1  0
  6  7  1  0
  7  8  1  0
  7  9  2  0
  5 10  2  0
 10 11  1  0
 11 12  2  0
 11 13  1  0
 13 14  1  0
 14 15  1  0
 13 16  2  0
 16 17  1  0
 17 18  2  0
 18 19  1  0
 19 20  1  0
 20 21  1  0
 21 22  1  0
 21 23  2  0
 19 24  2  0
 24 25  1  0
 25 26  1  0
 24 27  1  0
 27 28  2  0
 28 29  1  0
 29 30  1  0
 30 31  1  0
 30 32  2  0
 16 33  1  0
 33 34  1  0
 34 35  2  0
 35  3  1  0
 34 10  1  0
 28 17  1  0
M  END
>  <identifier>  (1279) 
CNP0080428.0

>  <canonical_smiles>  (1279) 
COC1=CC(OC(C)=O)=C2C(=O)C(OC)=C(C3=CC(OC(C)=O)=C(OC)C=C3OC(C)=O)OC2=C1

>  <standard_inchi>  (1279) 
InChI=1S/C24H22O11/c1-11(25)32-16-10-17(30-5)18(33-12(2)26)9-15(16)23-24(31-6)22(28)21-19(34-13(3)27)7-14(29-4)8-20(21)35-23/h7-10H,1-6H3

>  <standard_inchi_key>  (1279) 
PETNSKJYWTZYKU-UHFFFAOYSA-N

>  <name>  (1279) 
nan

>  <iupac_name>  (1279) 
[2-(2,5-diacetoxy-4-methoxy-phenyl)-3,7-dimethoxy-4-oxo-chromen-5-yl] acetate

>  <annotation_level>  (1279) 
4

>  <total_atom_count>  (1279) 
57

>  <heavy_atom_count>  (1279) 
35

>  <molecular_weight>  (1279) 
486.43

>  <exact_molecular_weight>  (1279) 
486.11621

>  <molecular_formula>  (1279) 
C24H22O11

>  <alogp>  (1279) 
3.26

>  <topological_polar_surface_area>  (1279) 
136.80

>  <rotatable_bond_count>  (1279) 
7

>  <hydrogen_bond_acceptors>  (1279) 
11

>  <hydrogen_bond_donors>  (1279) 
0

>  <hydrogen_bond_acceptors_lipinski>  (1279) 
11

>  <hydrogen_bond_donors_lipinski>  (1279) 
0

>  <lipinski_rule_of_five_violations>  (1279) 
1

>  <aromatic_rings_count>  (1279) 
3

>  <qed_drug_likeliness>  (1279) 
0.36

>  <formal_charge>  (1279) 
0

>  <fractioncsp3>  (1279) 
0.25

>  <number_of_minimal_rings>  (1279) 
3

>  <van_der_walls_volume>  (1279) 
nan

>  <contains_sugar>  (1279) 
False

>  <contains_ring_sugars>  (1279) 
False

>  <contains_linear_sugars>  (1279) 
False

>  <murcko_framework>  (1279) 
O1c2ccccc2CC=C1c3ccccc3

>  <np_likeness>  (1279) 
0.83

>  <chemical_class>  (1279) 
Flavonoids

>  <chemical_sub_class>  (1279) 
O-methylated flavonoids

>  <chemical_super_class>  (1279) 
Phenylpropanoids and polyketides

>  <direct_parent_classification>  (1279) 
3-O-methylated flavonoids

>  <np_classifier_pathway>  (1279) 
Shikimates and Phenylpropanoids

>  <np_classifier_superclass>  (1279) 
Flavonoids

>  <np_classifier_class>  (1279) 
Flavonols

>  <np_classifier_is_glycoside>  (1279) 
False

>  <organisms>  (1279) 
Apuleia leiocarpa

>  <collections>  (1279) 
Latin America dataset|NuBBEDB|WikiData Natural Products|ZINC NP

>  <dois>  (1279) 
10.1016/S0031-9422(00)89891-X

>  <synonyms>  (1279) 
Oxyayanin-A triacetate

>  <cas>  (1279) 
nan

$$$$

     RDKit          2D

 19 20  0  0  0  0  0  0  0  0999 V2000
   -0.1915    3.2079    0.0000 C   0  0  0  0  0  0  0  0  0  0  0  0
   -0.8463    1.8584    0.0000 O   0  0  0  0  0  0  0  0  0  0  0  0
   -0.0048    0.6166    0.0000 C   0  0  0  0  0  0  0  0  0  0  0  0
   -0.6596   -0.7330    0.0000 C   0  0  0  0  0  0  0  0  0  0  0  0
   -2.1557   -0.8408    0.0000 C   0  0  0  0  0  0  0  0  0  0  0  0
   -2.9971    0.4010    0.0000 C   0  0  0  0  0  0  0  0  0  0  0  0
   -4.4932    0.2932    0.0000 C   0  0  0  0  0  0  0  0  0  0  0  0
   -5.3346    1.5350    0.0000 C   0  0  0  0  0  0  0  0  0  0  0  0
   -5.1479   -1.0564    0.0000 C   0  0  0  0  0  0  0  0  0  0  0  0
    0.1819   -1.9748    0.0000 C   0  0  0  0  0  0  0  0  0  0  0  0
   -0.4729   -3.3244    0.0000 O   0  0  0  0  0  0  0  0  0  0  0  0
    1.6780   -1.8670    0.0000 N   0  0  0  0  0  0  0  0  0  0  0  0
    2.5194   -3.1088    0.0000 C   0  0  0  0  0  0  0  0  0  0  0  0
    2.3327   -0.5174    0.0000 C   0  0  0  0  0  0  0  0  0  0  0  0
    3.8288   -0.4096    0.0000 C   0  0  0  0  0  0  0  0  0  0  0  0
    4.4835    0.9400    0.0000 C   0  0  0  0  0  0  0  0  0  0  0  0
    3.6421    2.1817    0.0000 C   0  0  0  0  0  0  0  0  0  0  0  0
    2.1460    2.0739    0.0000 C   0  0  0  0  0  0  0  0  0  0  0  0
    1.4913    0.7244    0.0000 C   0  0  0  0  0  0  0  0  0  0  0  0
  1  2  1  0
  2  3  1  0
  3  4  2  0
  4  5  1  0
  5  6  1  0
  6  7  2  0
  7  8  1  0
  7  9  1  0
  4 10  1  0
 10 11  2  0
 10 12  1  0
 12 13  1  0
 12 14  1  0
 14 15  2  0
 15 16  1  0
 16 17  2  0
 17 18  1  0
 18 19  2  0
 19  3  1  0
 19 14  1  0
M  END
>  <identifier>  (1280) 
CNP0297711.0

>  <canonical_smiles>  (1280) 
COC1=C(CC=C(C)C)C(=O)N(C)C2=CC=CC=C12

>  <standard_inchi>  (1280) 
InChI=1S/C16H19NO2/c1-11(2)9-10-13-15(19-4)12-7-5-6-8-14(12)17(3)16(13)18/h5-9H,10H2,1-4H3

>  <standard_inchi_key>  (1280) 
OGNDPMMWXRHXND-UHFFFAOYSA-N

>  <name>  (1280) 
nan

>  <iupac_name>  (1280) 
4-methoxy-1-methyl-3-(3-methylbut-2-enyl)quinolin-2-one

>  <annotation_level>  (1280) 
5

>  <total_atom_count>  (1280) 
38

>  <heavy_atom_count>  (1280) 
19

>  <molecular_weight>  (1280) 
257.33

>  <exact_molecular_weight>  (1280) 
257.14158

>  <molecular_formula>  (1280) 
C16H19NO2

>  <alogp>  (1280) 
3.06

>  <topological_polar_surface_area>  (1280) 
31.23

>  <rotatable_bond_count>  (1280) 
3

>  <hydrogen_bond_acceptors>  (1280) 
3

>  <hydrogen_bond_donors>  (1280) 
0

>  <hydrogen_bond_acceptors_lipinski>  (1280) 
3

>  <hydrogen_bond_donors_lipinski>  (1280) 
0

>  <lipinski_rule_of_five_violations>  (1280) 
0

>  <aromatic_rings_count>  (1280) 
2

>  <qed_drug_likeliness>  (1280) 
0.79

>  <formal_charge>  (1280) 
0

>  <fractioncsp3>  (1280) 
0.31

>  <number_of_minimal_rings>  (1280) 
2

>  <van_der_walls_volume>  (1280) 
248.46

>  <contains_sugar>  (1280) 
False

>  <contains_ring_sugars>  (1280) 
False

>  <contains_linear_sugars>  (1280) 
False

>  <murcko_framework>  (1280) 
c1ccc2NCC=Cc2c1

>  <np_likeness>  (1280) 
1.03

>  <chemical_class>  (1280) 
Quinolines and derivatives

>  <chemical_sub_class>  (1280) 
Quinolones and derivatives

>  <chemical_super_class>  (1280) 
Organoheterocyclic compounds

>  <direct_parent_classification>  (1280) 
Hydroquinolones

>  <np_classifier_pathway>  (1280) 
Alkaloids

>  <np_classifier_superclass>  (1280) 
Tryptophan alkaloids

>  <np_classifier_class>  (1280) 
Quinoline alkaloids

>  <np_classifier_is_glycoside>  (1280) 
False

>  <organisms>  (1280) 
Citrus grandis|Conchocarpus guyanensis|Drummondita calida|Glycosmis trichanthera|Orixa japonica|Thamnosma africana|Zanthoxylum beecheyanum|Zanthoxylum rigidum|pomelo

>  <collections>  (1280) 
Australian natural products|ChemSpider NPs|KNApSaCK|Latin America dataset|NuBBEDB|UNPD (Universal Natural Products Database)|WikiData Natural Products|ZINC NP

>  <dois>  (1280) 
10.1002/JCCS.200400159|10.1016/0031-9422(83)80059-4|10.1016/S0031-9422(00)84044-3|10.1016/S0031-9422(00)97107-3|10.1055/S-0030-1270963|10.1055/s-0030-1270963|10.1590/S0100-40422009000100025

>  <synonyms>  (1280) 
N-Methylatanine

>  <cas>  (1280) 
nan

$$$$

     RDKit          2D

 20 20  0  0  0  0  0  0  0  0999 V2000
  -10.6654    0.2780    0.0000 C   0  0  0  0  0  0  0  0  0  0  0  0
   -9.3091    0.9186    0.0000 O   0  0  0  0  0  0  0  0  0  0  0  0
   -8.0761    0.0643    0.0000 C   0  0  0  0  0  0  0  0  0  0  0  0
   -8.1994   -1.4306    0.0000 O   0  0  0  0  0  0  0  0  0  0  0  0
   -6.7198    0.7050    0.0000 C   0  0  0  0  0  0  0  0  0  0  0  0
   -5.4868   -0.1493    0.0000 C   0  0  0  0  0  0  0  0  0  0  0  0
   -4.1305    0.4913    0.0000 C   0  0  0  0  0  0  0  0  0  0  0  0
   -2.8975   -0.3630    0.0000 C   0  0  0  0  0  0  0  0  0  0  0  0
   -1.5412    0.2777    0.0000 C   0  0  0  0  0  0  0  0  0  0  0  0
   -0.3083   -0.5766    0.0000 C   0  0  0  0  0  0  0  0  0  0  0  0
    1.0480    0.0640    0.0000 C   0  0  0  0  0  0  0  0  0  0  0  0
    2.2810   -0.7902    0.0000 C   0  0  0  0  0  0  0  0  0  0  0  0
    3.6373   -0.1496    0.0000 C   0  0  0  0  0  0  0  0  0  0  0  0
    4.8703   -1.0039    0.0000 C   0  0  0  0  0  0  0  0  0  0  0  0
    6.2266   -0.3633    0.0000 C   0  0  0  0  0  0  0  0  0  0  0  0
    6.3499    1.1317    0.0000 C   0  0  0  0  0  0  0  0  0  0  0  0
    7.7063    1.7723    0.0000 C   0  0  0  0  0  0  0  0  0  0  0  0
    8.9392    0.9180    0.0000 C   0  0  0  0  0  0  0  0  0  0  0  0
    8.8159   -0.5769    0.0000 C   0  0  0  0  0  0  0  0  0  0  0  0
    7.4596   -1.2175    0.0000 C   0  0  0  0  0  0  0  0  0  0  0  0
  1  2  1  0
  2  3  1  0
  3  4  2  0
  3  5  1  0
  5  6  1  0
  6  7  1  0
  7  8  1  0
  8  9  1  0
  9 10  1  0
 10 11  1  0
 11 12  1  0
 12 13  1  0
 13 14  1  0
 14 15  1  0
 15 16  2  0
 16 17  1  0
 17 18  2  0
 18 19  1  0
 19 20  2  0
 20 15  1  0
M  END
>  <identifier>  (1281) 
CNP0080397.0

>  <canonical_smiles>  (1281) 
COC(=O)CCCCCCCCCCC1=CC=CC=C1

>  <standard_inchi>  (1281) 
InChI=1S/C18H28O2/c1-20-18(19)16-12-7-5-3-2-4-6-9-13-17-14-10-8-11-15-17/h8,10-11,14-15H,2-7,9,12-13,16H2,1H3

>  <standard_inchi_key>  (1281) 
OEYUUCWCJJESQQ-UHFFFAOYSA-N

>  <name>  (1281) 
Methyl 11-phenyl-undecanoate

>  <iupac_name>  (1281) 
methyl 11-phenylundecanoate

>  <annotation_level>  (1281) 
5

>  <total_atom_count>  (1281) 
48

>  <heavy_atom_count>  (1281) 
20

>  <molecular_weight>  (1281) 
276.42

>  <exact_molecular_weight>  (1281) 
276.20893

>  <molecular_formula>  (1281) 
C18H28O2

>  <alogp>  (1281) 
4.91

>  <topological_polar_surface_area>  (1281) 
26.30

>  <rotatable_bond_count>  (1281) 
11

>  <hydrogen_bond_acceptors>  (1281) 
2

>  <hydrogen_bond_donors>  (1281) 
0

>  <hydrogen_bond_acceptors_lipinski>  (1281) 
2

>  <hydrogen_bond_donors_lipinski>  (1281) 
0

>  <lipinski_rule_of_five_violations>  (1281) 
0

>  <aromatic_rings_count>  (1281) 
1

>  <qed_drug_likeliness>  (1281) 
0.42

>  <formal_charge>  (1281) 
0

>  <fractioncsp3>  (1281) 
0.61

>  <number_of_minimal_rings>  (1281) 
1

>  <van_der_walls_volume>  (1281) 
nan

>  <contains_sugar>  (1281) 
False

>  <contains_ring_sugars>  (1281) 
False

>  <contains_linear_sugars>  (1281) 
False

>  <murcko_framework>  (1281) 
c1ccccc1

>  <np_likeness>  (1281) 
0.13

>  <chemical_class>  (1281) 
Fatty Acyls

>  <chemical_sub_class>  (1281) 
Fatty acid esters

>  <chemical_super_class>  (1281) 
Lipids and lipid-like molecules

>  <direct_parent_classification>  (1281) 
Fatty acid methyl esters

>  <np_classifier_pathway>  (1281) 
Fatty acids

>  <np_classifier_superclass>  (1281) 
Fatty Acids and Conjugates

>  <np_classifier_class>  (1281) 
Carbocyclic fatty acids

>  <np_classifier_is_glycoside>  (1281) 
False

>  <organisms>  (1281) 
Trichilia claussenii

>  <collections>  (1281) 
Latin America dataset|NuBBEDB|WikiData Natural Products|ZINC NP

>  <dois>  (1281) 
10.1016/0031-9422(95)00969-8

>  <synonyms>  (1281) 
OEYUUCWCJJESQQ-UHFFFAOYSA-N|SCHEMBL9764517|phenyl undecanoic acid methyl ester, Methyl 11-phenylundecanoate

>  <cas>  (1281) 
nan

$$$$

     RDKit          2D

 17 18  0  0  0  0  0  0  0  0999 V2000
   -5.1770   -2.5089    0.0000 C   0  0  0  0  0  0  0  0  0  0  0  0
   -3.6865   -2.3401    0.0000 O   0  0  0  0  0  0  0  0  0  0  0  0
   -3.0875   -0.9649    0.0000 C   0  0  0  0  0  0  0  0  0  0  0  0
   -3.9789    0.2415    0.0000 C   0  0  0  0  0  0  0  0  0  0  0  0
   -3.3799    1.6167    0.0000 C   0  0  0  0  0  0  0  0  0  0  0  0
   -4.2713    2.8230    0.0000 O   0  0  0  0  0  0  0  0  0  0  0  0
   -1.8894    1.7855    0.0000 O   0  0  0  0  0  0  0  0  0  0  0  0
   -0.9980    0.5791    0.0000 C   0  0  0  0  0  0  0  0  0  0  0  0
    0.4925    0.7479    0.0000 C   0  0  0  0  0  0  0  0  0  0  0  0
    1.3839   -0.4585    0.0000 C   0  0  0  0  0  0  0  0  0  0  0  0
    2.8744   -0.2897    0.0000 C   0  0  0  0  0  0  0  0  0  0  0  0
    3.7658   -1.4961    0.0000 C   0  0  0  0  0  0  0  0  0  0  0  0
    5.2563   -1.3272    0.0000 C   0  0  0  0  0  0  0  0  0  0  0  0
    5.8553    0.0479    0.0000 C   0  0  0  0  0  0  0  0  0  0  0  0
    4.9639    1.2543    0.0000 C   0  0  0  0  0  0  0  0  0  0  0  0
    3.4734    1.0855    0.0000 C   0  0  0  0  0  0  0  0  0  0  0  0
   -1.5970   -0.7961    0.0000 C   0  0  0  0  0  0  0  0  0  0  0  0
  1  2  1  0
  2  3  1  0
  3  4  2  0
  4  5  1  0
  5  6  2  0
  5  7  1  0
  7  8  1  0
  8  9  1  1
  9 10  1  0
 10 11  1  0
 11 12  2  0
 12 13  1  0
 13 14  2  0
 14 15  1  0
 15 16  2  0
  8 17  1  0
 17  3  1  0
 16 11  1  0
M  END
>  <identifier>  (1282) 
CNP0244570.1

>  <canonical_smiles>  (1282) 
COC1=CC(=O)O[C@@H](CCC2=CC=CC=C2)C1

>  <standard_inchi>  (1282) 
InChI=1S/C14H16O3/c1-16-13-9-12(17-14(15)10-13)8-7-11-5-3-2-4-6-11/h2-6,10,12H,7-9H2,1H3/t12-/m0/s1

>  <standard_inchi_key>  (1282) 
VOOYTQRREPYRIW-LBPRGKRZSA-N

>  <name>  (1282) 
Dihydrokavain

>  <iupac_name>  (1282) 
(2~{S})-4-methoxy-2-(2-phenylethyl)-2,3-dihydropyran-6-one

>  <annotation_level>  (1282) 
5

>  <total_atom_count>  (1282) 
33

>  <heavy_atom_count>  (1282) 
17

>  <molecular_weight>  (1282) 
232.28

>  <exact_molecular_weight>  (1282) 
232.10994

>  <molecular_formula>  (1282) 
C14H16O3

>  <alogp>  (1282) 
2.47

>  <topological_polar_surface_area>  (1282) 
35.53

>  <rotatable_bond_count>  (1282) 
4

>  <hydrogen_bond_acceptors>  (1282) 
3

>  <hydrogen_bond_donors>  (1282) 
0

>  <hydrogen_bond_acceptors_lipinski>  (1282) 
3

>  <hydrogen_bond_donors_lipinski>  (1282) 
0

>  <lipinski_rule_of_five_violations>  (1282) 
0

>  <aromatic_rings_count>  (1282) 
1

>  <qed_drug_likeliness>  (1282) 
0.75

>  <formal_charge>  (1282) 
0

>  <fractioncsp3>  (1282) 
0.36

>  <number_of_minimal_rings>  (1282) 
2

>  <van_der_walls_volume>  (1282) 
220.70

>  <contains_sugar>  (1282) 
False

>  <contains_ring_sugars>  (1282) 
False

>  <contains_linear_sugars>  (1282) 
False

>  <murcko_framework>  (1282) 
O1CC=CCC1CCc2ccccc2

>  <np_likeness>  (1282) 
1.61

>  <chemical_class>  (1282) 
Kavalactones

>  <chemical_sub_class>  (1282) 
Kavalactones

>  <chemical_super_class>  (1282) 
Phenylpropanoids and polyketides

>  <direct_parent_classification>  (1282) 
Kavalactones

>  <np_classifier_pathway>  (1282) 
Shikimates and Phenylpropanoids

>  <np_classifier_superclass>  (1282) 
Styrylpyrones

>  <np_classifier_class>  (1282) 
Kavalactones and derivatives

>  <np_classifier_is_glycoside>  (1282) 
False

>  <organisms>  (1282) 
Alnus sieboldiana|Aniba gigantifolia|Aniba hostmanniana|Piper majusculum|Piper methysticum|Piper sp.

>  <collections>  (1282) 
AnalytiCon Discovery NPs|CMAUP (cCollective molecular activities of useful plants)|GNPS (Global Natural Products Social Molecular Networking)|KNApSaCK|Latin America dataset|NPACT|NPASS|NuBBEDB|PhytoLab phyproof® Reference Substances|Super Natural II|WikiData Natural Products

>  <dois>  (1282) 
10.1002/1615-9314(20010101)24:1<35::AID-JSSC35>3.0.CO;2-Q|10.1002/PTR.1107|10.1002/RECL.19390580607|10.1007/BF02866720|10.1016/0031-9422(73)85045-9|10.1016/0031-9422(83)85065-1|10.1016/0031-9422(96)00209-9|10.1016/J.CLPT.2005.01.009|10.1016/J.PHYMED.2010.10.005|10.1016/S0003-2670(96)00424-2|10.1016/S0021-9673(00)96265-4|10.1016/S0021-9673(01)00979-7|10.1016/S0021-9673(98)00699-2|10.1016/S0031-9422(01)00443-5|10.1016/S0378-4347(97)00389-7|10.1021/JF020049J|10.1021/JM50002A007|10.1055/S-2006-957606|10.1055/S-2006-957608|10.1078/0944-7113-00068|10.1078/094471103322004802|10.1078/0944711041495263|10.1081/JLC-120025423|10.1111/J.1440-1681.1990.TB01349.X

>  <synonyms>  (1282) 
nan

>  <cas>  (1282) 
587-63-3

$$$$

     RDKit          2D

 27 29  0  0  0  0  0  0  0  0999 V2000
   -8.0467    1.7330    0.0000 C   0  0  0  0  0  0  0  0  0  0  0  0
   -7.5208    0.3282    0.0000 O   0  0  0  0  0  0  0  0  0  0  0  0
   -6.0412    0.0813    0.0000 C   0  0  0  0  0  0  0  0  0  0  0  0
   -5.0876    1.2392    0.0000 C   0  0  0  0  0  0  0  0  0  0  0  0
   -3.6081    0.9923    0.0000 C   0  0  0  0  0  0  0  0  0  0  0  0
   -3.0821   -0.4125    0.0000 C   0  0  0  0  0  0  0  0  0  0  0  0
   -1.6026   -0.6593    0.0000 C   0  0  0  0  0  0  0  0  0  0  0  0
   -1.0767   -2.0641    0.0000 C   0  0  0  0  0  0  0  0  0  0  0  0
    0.4029   -2.3110    0.0000 C   0  0  0  0  0  0  0  0  0  0  0  0
    0.9288   -3.7158    0.0000 O   0  0  0  0  0  0  0  0  0  0  0  0
    1.3565   -1.1531    0.0000 C   0  0  0  0  0  0  0  0  0  0  0  0
    2.8360   -1.4000    0.0000 C   0  0  0  0  0  0  0  0  0  0  0  0
    3.3620   -2.8048    0.0000 O   0  0  0  0  0  0  0  0  0  0  0  0
    4.8415   -3.0517    0.0000 C   0  0  0  0  0  0  0  0  0  0  0  0
    3.7896   -0.2422    0.0000 C   0  0  0  0  0  0  0  0  0  0  0  0
    5.2691   -0.4891    0.0000 O   0  0  0  0  0  0  0  0  0  0  0  0
    6.2227    0.6688    0.0000 C   0  0  0  0  0  0  0  0  0  0  0  0
    3.2637    1.1626    0.0000 C   0  0  0  0  0  0  0  0  0  0  0  0
    4.2172    2.3205    0.0000 O   0  0  0  0  0  0  0  0  0  0  0  0
    3.6913    3.7252    0.0000 C   0  0  0  0  0  0  0  0  0  0  0  0
    1.7841    1.4095    0.0000 C   0  0  0  0  0  0  0  0  0  0  0  0
    1.2582    2.8143    0.0000 O   0  0  0  0  0  0  0  0  0  0  0  0
    2.2117    3.9721    0.0000 C   0  0  0  0  0  0  0  0  0  0  0  0
    0.8305    0.2516    0.0000 C   0  0  0  0  0  0  0  0  0  0  0  0
   -0.6490    0.4985    0.0000 O   0  0  0  0  0  0  0  0  0  0  0  0
   -4.0357   -1.5703    0.0000 C   0  0  0  0  0  0  0  0  0  0  0  0
   -5.5153   -1.3234    0.0000 C   0  0  0  0  0  0  0  0  0  0  0  0
  1  2  1  0
  2  3  1  0
  3  4  2  0
  4  5  1  0
  5  6  2  0
  6  7  1  0
  7  8  2  0
  8  9  1  0
  9 10  2  0
  9 11  1  0
 11 12  2  0
 12 13  1  0
 13 14  1  0
 12 15  1  0
 15 16  1  0
 16 17  1  0
 15 18  2  0
 18 19  1  0
 19 20  1  0
 18 21  1  0
 21 22  1  0
 22 23  1  0
 21 24  2  0
 24 25  1  0
  6 26  1  0
 26 27  2  0
 27  3  1  0
 25  7  1  0
 24 11  1  0
M  END
>  <identifier>  (1283) 
CNP0234477.0

>  <canonical_smiles>  (1283) 
COC1=CC=C(C2=CC(=O)C3=C(OC)C(OC)=C(OC)C(OC)=C3O2)C=C1

>  <standard_inchi>  (1283) 
InChI=1S/C20H20O7/c1-22-12-8-6-11(7-9-12)14-10-13(21)15-16(23-2)18(24-3)20(26-5)19(25-4)17(15)27-14/h6-10H,1-5H3

>  <standard_inchi_key>  (1283) 
ULSUXBXHSYSGDT-UHFFFAOYSA-N

>  <name>  (1283) 
Tangeretin

>  <iupac_name>  (1283) 
5,6,7,8-tetramethoxy-2-(4-methoxyphenyl)chromen-4-one

>  <annotation_level>  (1283) 
5

>  <total_atom_count>  (1283) 
47

>  <heavy_atom_count>  (1283) 
27

>  <molecular_weight>  (1283) 
372.37

>  <exact_molecular_weight>  (1283) 
372.1209

>  <molecular_formula>  (1283) 
C20H20O7

>  <alogp>  (1283) 
3.50

>  <topological_polar_surface_area>  (1283) 
76.36

>  <rotatable_bond_count>  (1283) 
6

>  <hydrogen_bond_acceptors>  (1283) 
7

>  <hydrogen_bond_donors>  (1283) 
0

>  <hydrogen_bond_acceptors_lipinski>  (1283) 
7

>  <hydrogen_bond_donors_lipinski>  (1283) 
0

>  <lipinski_rule_of_five_violations>  (1283) 
0

>  <aromatic_rings_count>  (1283) 
3

>  <qed_drug_likeliness>  (1283) 
0.66

>  <formal_charge>  (1283) 
0

>  <fractioncsp3>  (1283) 
0.25

>  <number_of_minimal_rings>  (1283) 
3

>  <van_der_walls_volume>  (1283) 
325.42

>  <contains_sugar>  (1283) 
False

>  <contains_ring_sugars>  (1283) 
False

>  <contains_linear_sugars>  (1283) 
False

>  <murcko_framework>  (1283) 
O1c2ccccc2CC=C1c3ccccc3

>  <np_likeness>  (1283) 
0.83

>  <chemical_class>  (1283) 
Flavonoids

>  <chemical_sub_class>  (1283) 
O-methylated flavonoids

>  <chemical_super_class>  (1283) 
Phenylpropanoids and polyketides

>  <direct_parent_classification>  (1283) 
6-O-methylated flavonoids

>  <np_classifier_pathway>  (1283) 
Shikimates and Phenylpropanoids

>  <np_classifier_superclass>  (1283) 
Flavonoids

>  <np_classifier_class>  (1283) 
Flavones

>  <np_classifier_is_glycoside>  (1283) 
False

>  <organisms>  (1283) 
Aceriphyllum rossii|Agnorhiza bolanderi|Alligator mississippiensis|Ambrosia dumosa|Anaxagorea clavata|Annona muricata|Araujia sericifera|Aria pallescens|Arnica nevadensis|Artemisia cina|Artemisia mesatlantica|Artemisia monogyna|Aspergillus niger|Ballota nigra|Bassia butyracea|Beyeria brevifolia|Bursaria spinosa|Camellia sinensis|Capsicum annuum|Cherry Orange|Chloranthus tianmushanensis|Chromolaena odorata|Chromolaena pulchella|Citrus|Citrus Aurantium|Citrus Grandis|Citrus Reticulata|Citrus Sinensis|Citrus aurantium|Citrus aurea|Citrus depressa|Citrus erythrosa|Citrus flavicarpa|Citrus grandis|Citrus grandis var. tomentosa|Citrus grandis var.tomentosa|Citrus hanaju|Citrus hassaku|Citrus intermedia|Citrus jambhiri|Citrus jambhiri Lush.|Citrus japonica|Citrus japonica var. margarita|Citrus keraji|Citrus leiocarpa|Citrus madurensis|Citrus maxima|Citrus medica|Citrus myrtifolia|Citrus natsudaidai|Citrus nippokoreana|Citrus nobilis|Citrus obovoidea|Citrus otachibana|Citrus oto|Citrus pseudoparadisi|Citrus reticulata|Citrus shunkokan|Citrus sinensis|Citrus sp|Citrus sp.|Citrus sudachi|Citrus sulcata|Citrus tachibana|Citrus tangerina|Citrus tankan|Citrus trifoliata|Citrus ujukitsu|Citrus unshiu|Citrus wilsonii|Citrus × deliciosa|Citrus × paradisi|Citrus ×iyo|Cladonia evansii|Clematis hexapetala|Clonostachys rosea|Coccus fagi|Croton caudatus|Dendrosenecio kilimanjari|Dipterocarpus alatus|Drosera peltata|Echinops amplexicaulis|Epaltes gariepina|Ficus beecheyana|Ficus formosana|Folium citri|Folium citri tangerinae|Fortunella Japonica|Fortunella japonica|Fortunella margaria|Fortunella margarita|Fusarium gibbosum|Gardenia fosbergii|Gnaphalium affine|Ilex affinis|Isodon kameba|Kaempferia pulchra|Kumquat|Lactarius scrobiculatus|Laurus Nobilis|Laurus nobilis L.|Malagasy connaraceous|Malus domestica|Malus pumila|Mandarina satsuma|Murraya exotica|Murraya paniculata|Odixia angusta|Oxalis pes-caprae|Pandanus tectorius|Pericarpium citri|Pericarpium citri reticulatae|Pericarpium citri reticulatae viride|Pheidole pallidula|Pisum sativum|Platycodon grandiflorus|Prosopis glandulosa|Prunus laurocerasus|Prunus mume|Pseudognaphalium affine|Pseudopterogorgia kallos|Pteris prolifera|Pterocarpus grandiflorus|Pyrosoma giganteum|Quercus aegilops|Rhizobium phaseoli|Salvia officinalis|Securidaca inappendiculata|Senecio squalidus|Seriphidium cinum|Sesbania punicea|Simira eliezeriana|Stenostomum lucidum|Streptomyces|Streptomyces althioticus|Syzygium jambos|Taxodium mucronatum|Trifoliate orange|Vaccinium vitis-idaea|Vitex madiensis|Vitis vinifera|broccoli|parsley|pomelo

>  <collections>  (1283) 
AnalytiCon Discovery NPs|Australian natural products|BitterDB|CMAUP (cCollective molecular activities of useful plants)|ChEBI NPs|ETM (Ethiopian Traditional Medicine) DB|FooDB|GNPS (Global Natural Products Social Molecular Networking)|HIM (Herbal Ingredients in-vivo Metabolism database)|HIT (Herbal Ingredients Targets)|KNApSaCK|Latin America dataset|NPACT|NPASS|NPCARE|NPEdia|NuBBEDB|Phenol-explorer|Phyto4Health|PhytoLab phyproof® Reference Substances|PubChem NPs|Super Natural II|TCMDB-Taiwan (Traditional Chinese Medicine database)|TCMID (Traditional Chinese Medicine Integrated Database)|TIPdb (database of Taiwan indigenous plants)|UNPD (Universal Natural Products Database)|VietHerb|WikiData Natural Products

>  <dois>  (1283) 
10.1002/(SICI)1099-1565(199707)8:4<176::AID-PCA351>3.0.CO;2-K|10.1002/CBDV.200800179|10.1002/JCCS.198500015|10.1007/978-3-540-71095-0_964|10.1007/BF00599010|10.1007/S13197-014-1289-7|10.1016/0021-9673(94)89051-X|10.1016/0024-3205(96)00088-4|10.1016/0031-9422(75)85074-6|10.1016/J.BMC.2008.11.039|10.1016/J.CHROMA.2017.12.022|10.1016/J.FOODCHEM.2019.125629|10.1016/J.JEP.2008.06.025|10.1016/S0021-9673(97)01131-X|10.1016/S0040-4020(01)98305-X|10.1016/S0367-326X(99)00131-8|10.1021/JF000661F|10.1021/JF00096A028|10.1021/JF102730B|10.1021/JF960110I|10.1021/JF970606F|10.1021/JF990153+|10.1021/JF990282Q|10.1021/NP3003468|10.1021/jf801103p|10.1021/jf990282q|10.1021/np030020p|10.1039/C9FO00799G|10.1055/S-2006-960069|10.1089/JMF.2006.0214|10.1246/NIKKASHI1921.62.1006|10.1248/CPB.28.717|10.1248/CPB.35.3025|10.1248/CPB.37.1092|10.1248/CPB.39.945|10.1248/CPB.41.714|10.1248/CPB.49.1356|10.1248/YAKUSHI1947.111.3_193|10.1515/ZNB-2007-0615|10.1515/ZNC-2000-11-1230|10.3390/MOLECULES15031097|10.5897/jmpr11.1424

>  <synonyms>  (1283) 
nan

>  <cas>  (1283) 
481-53-8

$$$$

     RDKit          2D

 17 19  0  0  0  0  0  0  0  0999 V2000
    4.5967    0.4125    0.0000 C   0  0  0  0  0  0  0  0  0  0  0  0
    3.3680   -0.4479    0.0000 C   0  0  0  0  0  0  0  0  0  0  0  0
    4.4287   -1.5085    0.0000 C   0  0  0  0  0  0  0  0  0  0  0  0
    2.5077   -1.6767    0.0000 C   0  0  0  0  0  0  0  0  0  0  0  0
    1.0134   -1.5460    0.0000 C   0  0  0  0  0  0  0  0  0  0  0  0
    0.3794   -0.1866    0.0000 C   0  0  0  0  0  0  0  0  0  0  0  0
    1.2397    1.0422    0.0000 C   0  0  0  0  0  0  0  0  0  0  0  0
    0.6057    2.4016    0.0000 C   0  0  0  0  0  0  0  0  0  0  0  0
   -0.8886    2.5323    0.0000 C   0  0  0  0  0  0  0  0  0  0  0  0
   -1.7489    1.3035    0.0000 C   0  0  0  0  0  0  0  0  0  0  0  0
   -1.1149   -0.0559    0.0000 C   0  0  0  0  0  0  0  0  0  0  0  0
   -1.9752   -1.2847    0.0000 O   0  0  0  0  0  0  0  0  0  0  0  0
   -3.4695   -1.1540    0.0000 C   0  0  0  0  0  0  0  0  0  0  0  0
   -4.3298   -2.3828    0.0000 O   0  0  0  0  0  0  0  0  0  0  0  0
   -4.1035    0.2054    0.0000 C   0  0  0  0  0  0  0  0  0  0  0  0
   -3.2432    1.4342    0.0000 C   0  0  0  0  0  0  0  0  0  0  0  0
    2.7340    0.9115    0.0000 O   0  0  0  0  0  0  0  0  0  0  0  0
  1  2  1  0
  2  3  1  0
  2  4  1  0
  4  5  2  0
  5  6  1  0
  6  7  2  0
  7  8  1  0
  8  9  2  0
  9 10  1  0
 10 11  2  0
 11 12  1  0
 12 13  1  0
 13 14  2  0
 13 15  1  0
 15 16  2  0
  7 17  1  0
 17  2  1  0
 11  6  1  0
 16 10  1  0
M  END
>  <identifier>  (1284) 
CNP0388303.0

>  <canonical_smiles>  (1284) 
CC1(C)C=CC2=C(C=CC3=C2OC(=O)C=C3)O1

>  <standard_inchi>  (1284) 
InChI=1S/C14H12O3/c1-14(2)8-7-10-11(17-14)5-3-9-4-6-12(15)16-13(9)10/h3-8H,1-2H3

>  <standard_inchi_key>  (1284) 
QUVCQYQEIOLHFZ-UHFFFAOYSA-N

>  <name>  (1284) 
Seselin

>  <iupac_name>  (1284) 
8,8-dimethylpyrano[2,3-f]chromen-2-one

>  <annotation_level>  (1284) 
5

>  <total_atom_count>  (1284) 
29

>  <heavy_atom_count>  (1284) 
17

>  <molecular_weight>  (1284) 
228.25

>  <exact_molecular_weight>  (1284) 
228.07864

>  <molecular_formula>  (1284) 
C14H12O3

>  <alogp>  (1284) 
2.98

>  <topological_polar_surface_area>  (1284) 
39.44

>  <rotatable_bond_count>  (1284) 
0

>  <hydrogen_bond_acceptors>  (1284) 
3

>  <hydrogen_bond_donors>  (1284) 
0

>  <hydrogen_bond_acceptors_lipinski>  (1284) 
3

>  <hydrogen_bond_donors_lipinski>  (1284) 
0

>  <lipinski_rule_of_five_violations>  (1284) 
0

>  <aromatic_rings_count>  (1284) 
2

>  <qed_drug_likeliness>  (1284) 
0.65

>  <formal_charge>  (1284) 
0

>  <fractioncsp3>  (1284) 
0.21

>  <number_of_minimal_rings>  (1284) 
3

>  <van_der_walls_volume>  (1284) 
201.21

>  <contains_sugar>  (1284) 
False

>  <contains_ring_sugars>  (1284) 
False

>  <contains_linear_sugars>  (1284) 
False

>  <murcko_framework>  (1284) 
O1c2ccc3C=CCOc3c2C=CC1

>  <np_likeness>  (1284) 
2.37

>  <chemical_class>  (1284) 
Coumarins and derivatives

>  <chemical_sub_class>  (1284) 
Pyranocoumarins

>  <chemical_super_class>  (1284) 
Phenylpropanoids and polyketides

>  <direct_parent_classification>  (1284) 
Angular pyranocoumarins

>  <np_classifier_pathway>  (1284) 
Shikimates and Phenylpropanoids

>  <np_classifier_superclass>  (1284) 
Coumarins

>  <np_classifier_class>  (1284) 
Pyranocoumarins

>  <np_classifier_is_glycoside>  (1284) 
False

>  <organisms>  (1284) 
Acanthophyllum sordidum|Aconitum habaense|Aconitum tanguticum|Amyris pinnata|Amyris texana|Angelica acutiloba|Angelica gigas|Angelica sinensis|Aphelandra chamissoniana|Apium Graveolens|Apium graveolens|Apium leptophyllum|Artemisia absinthium|Asterolasia squamuligera|Atalantia buxifolia|Bougainvillea glabra|Bryopsis pennata|Carum roxburghianum|Casimiroa greggii|Catharanthus roseus|Cinnamomum tenuifolium|Citropsis articulata|Citrus Aurantium|Citrus aurantium|Citrus canariculata|Citrus funadoko|Citrus hassaku|Citrus japonica|Citrus junos|Citrus medica|Citrus natsudaidai|Citrus reticulata|Citrus rugulosa|Citrus spp.|Citrus sulcata|Citrus tachibana|Citrus trifoliata|Citrus × deliciosa|Citrus × paradisi|Clematis flammula|Decatropis bicolor|Dinosperma stipitatum|Ficus beecheyana|Ficus erecta var. beecheyana|Flammulina velutipes|Flindersia australis|Flindersia bennettiana|Flindersia bennettii|Flindersia pimenteliana|Foeniculum Vulgare|Foeniculum vulgare|Gentiana lactea|Haplophyllum acutifolium|Haplophyllum cappadocicum|Haplophyllum dshungaricum|Haplophyllum dubium|Haplophyllum multicaule|Haplophyllum thesioides|Hortia arborea|Hortia superba|Jaspis stellifera|Korolkowia sewerzowi|Kumquat|Lecidea carpathica|Lyophyllum connatum|Melicope semecarpifolia|Moringa oleifera|Myrtopsis macrocarpa|Nematolepis phebalioides|Panax spinosus|Pentaceras australe|Pentaceras australis|Petriella guttulata|Phellodendron Amurense|Phellodendron amurense var. wilsonii|Phellodendron amurense var.wilsonii|Phellodendron chinense var. glabriusculum|Phyllobates aurotaenia|Pimpinella anisum|Pleiospermium alatum|Pluchea dioscoridis|Plumbago Zeylanica|Plumbago zeylanica|Polyalthia stenopetala|Poncirus trifoliata|Pseudotsuga japonica|Pyrola rotundifolia|Pyropia tenera|Rauvolfia verticillata|Rhadinothamnus anceps|Rhadinothamnus rudis|Roemeria refracta|Rutaceae sp.|Sarcomelicope megistophylla|Seseli diffusum|Seseli elatum|Seseli gouanii|Seseli indicum|Seseli kochii|Seseli longifolium|Seselllndicum|Stevia alpina|Stoeba extensa|Streptomyces violaceochromogenes|Strophanthus eminii|Strophanthus hispidus|Strychnos henningsii|Swinglea glutinosa|Trifoliate orange|Vernonia scorpioides|Zanthoxylum gardneri

>  <collections>  (1284) 
Australian natural products|CMAUP (cCollective molecular activities of useful plants)|ChEBI NPs|ETM (Ethiopian Traditional Medicine) DB|FooDB|KNApSaCK|Latin America dataset|NPASS|NPEdia|NuBBEDB|Phyto4Health|Super Natural II|TCMDB-Taiwan (Traditional Chinese Medicine database)|TCMID (Traditional Chinese Medicine Integrated Database)|TIPdb (database of Taiwan indigenous plants)|UNPD (Universal Natural Products Database)|VietHerb|WikiData Natural Products

>  <dois>  (1284) 
10.1002/(SICI)1099-1573(200005)14:3<187::AID-PTR572>3.0.CO;2-I|10.1002/CHIN.200324150|10.1002/JCCS.200400067|10.1007/BF00563909|10.1007/BF00565534|10.1007/BF00596694|10.1007/BF00598335|10.1007/BF00993733|10.1016/0031-9422(88)80276-0|10.1016/0031-9422(89)80319-X|10.1016/0031-9422(90)89054-D|10.1016/0031-9422(91)85122-G|10.1016/0031-9422(92)83302-F|10.1016/0031-9422(92)83450-D|10.1016/0031-9422(94)85101-8|10.1016/0305-1978(91)90117-I|10.1016/J.BSE.2004.12.020|10.1016/J.JPBA.2007.03.011|10.1016/S0031-9422(00)85575-2|10.1016/S0031-9422(02)00519-8|10.1021/JF902561C|10.1021/NP030034V|10.1021/NP2004825|10.1021/NP50015A016|10.1021/NP50039A034|10.1021/NP50042A012|10.1021/NP50087A013|10.1021/NP50100A030|10.1021/NP9904096|10.1021/acs.jnatprod.7b00938|10.1021/np2004825|10.1021/np50106a013|10.1039/P19900001593|10.1055/S-0029-1243137|10.1055/S-2000-14894|10.1055/S-2005-871295|10.1055/S-2006-962355|10.1071/CH9600427|10.1071/ch9640975|10.1080/10575639308050059|10.1248/CPB.34.3922|10.1248/CPB.38.1230|10.1248/CPB.39.2509|10.1248/CPB.41.1657|10.1248/CPB.58.971|10.1351/pac200173030617|10.1515/ZNB-2005-0514|10.3390/MOLECULES190812031

>  <synonyms>  (1284) 
2',2'-dimethyl-3-pyreno[6'5:7,8]coumarin|2H,8H-Benzo[1,2-b:3,4-b']dipyran-2-one, 8,8-dimethyl-|2H-1-Benzopyran-6-acrylic acid, 5-hydroxy-2,2-dimethyl-, .delta.-lactone|3',4'-Di-O-(-)-Camphanoyl-(+)-cis-khellactone|523-59-1|5634E8957P|8,8-DIMETHYLPYRANO[2,3-H]CHROMEN-2-ONE|8,8-Dimethyl-2H,8H-benzo(1,2-b:3,4-b')dipyran-2-one|8,8-Dimethyl-2H,8H-pyrano[2,3-f]chromen-2-one|8,8-dimethylpyrano[2,3-f]chromen-2-one|AKOS000276897|Amyrolin|BDBM50361397|C09312|CHEBI:69040|CHEMBL71358|CS-0591374|DTXSID60200322|G77042|HMS1648A10|HY-W505771|Oprea1_187929|Pyranocoumarin deriv.|Q27104968|QUVCQYQEIOLHFZ-UHFFFAOYSA-N|SCHEMBL8993385|Sesalin|Seselin, 2'2'-dimethylpyrano-5'6': 87-coumarin|Seseline|UNII-5634E8957P|seselin

>  <cas>  (1284) 
523-59-1

$$$$

     RDKit          2D

 17 17  0  0  0  0  0  0  0  0999 V2000
   -5.5864   -1.5969    0.0000 C   0  0  0  0  0  0  0  0  0  0  0  0
   -4.5112   -0.5509    0.0000 O   0  0  0  0  0  0  0  0  0  0  0  0
   -3.0678   -0.9590    0.0000 C   0  0  0  0  0  0  0  0  0  0  0  0
   -2.6995   -2.4131    0.0000 O   0  0  0  0  0  0  0  0  0  0  0  0
   -1.9927    0.0869    0.0000 C   0  0  0  0  0  0  0  0  0  0  0  0
   -2.3610    1.5410    0.0000 C   0  0  0  0  0  0  0  0  0  0  0  0
   -1.2858    2.5870    0.0000 C   0  0  0  0  0  0  0  0  0  0  0  0
    0.1576    2.1789    0.0000 C   0  0  0  0  0  0  0  0  0  0  0  0
    1.2327    3.2249    0.0000 O   0  0  0  0  0  0  0  0  0  0  0  0
    0.5259    0.7248    0.0000 C   0  0  0  0  0  0  0  0  0  0  0  0
    1.9693    0.3167    0.0000 C   0  0  0  0  0  0  0  0  0  0  0  0
    3.0444    1.3627    0.0000 O   0  0  0  0  0  0  0  0  0  0  0  0
    2.3376   -1.1374    0.0000 C   0  0  0  0  0  0  0  0  0  0  0  0
    3.7810   -1.5455    0.0000 C   0  0  0  0  0  0  0  0  0  0  0  0
    4.1493   -2.9996    0.0000 C   0  0  0  0  0  0  0  0  0  0  0  0
    4.8561   -0.4995    0.0000 C   0  0  0  0  0  0  0  0  0  0  0  0
   -0.5493   -0.3212    0.0000 C   0  0  0  0  0  0  0  0  0  0  0  0
  1  2  1  0
  2  3  1  0
  3  4  2  0
  3  5  1  0
  5  6  2  0
  6  7  1  0
  7  8  2  0
  8  9  1  0
  8 10  1  0
 10 11  1  0
 11 12  2  0
 11 13  1  0
 13 14  2  0
 14 15  1  0
 14 16  1  0
 10 17  2  0
 17  5  1  0
M  END
>  <identifier>  (1285) 
CNP0347835.0

>  <canonical_smiles>  (1285) 
COC(=O)C1=CC=C(O)C(C(=O)C=C(C)C)=C1

>  <standard_inchi>  (1285) 
InChI=1S/C13H14O4/c1-8(2)6-12(15)10-7-9(13(16)17-3)4-5-11(10)14/h4-7,14H,1-3H3

>  <standard_inchi_key>  (1285) 
MYNYNZOFYYKQDQ-UHFFFAOYSA-N

>  <name>  (1285) 
methyl taboganate

>  <iupac_name>  (1285) 
methyl 4-hydroxy-3-(3-methylbut-2-enoyl)benzoate

>  <annotation_level>  (1285) 
5

>  <total_atom_count>  (1285) 
31

>  <heavy_atom_count>  (1285) 
17

>  <molecular_weight>  (1285) 
234.25

>  <exact_molecular_weight>  (1285) 
234.08921

>  <molecular_formula>  (1285) 
C13H14O4

>  <alogp>  (1285) 
2.33

>  <topological_polar_surface_area>  (1285) 
63.60

>  <rotatable_bond_count>  (1285) 
3

>  <hydrogen_bond_acceptors>  (1285) 
4

>  <hydrogen_bond_donors>  (1285) 
1

>  <hydrogen_bond_acceptors_lipinski>  (1285) 
4

>  <hydrogen_bond_donors_lipinski>  (1285) 
1

>  <lipinski_rule_of_five_violations>  (1285) 
0

>  <aromatic_rings_count>  (1285) 
1

>  <qed_drug_likeliness>  (1285) 
0.49

>  <formal_charge>  (1285) 
0

>  <fractioncsp3>  (1285) 
0.23

>  <number_of_minimal_rings>  (1285) 
1

>  <van_der_walls_volume>  (1285) 
215.57

>  <contains_sugar>  (1285) 
False

>  <contains_ring_sugars>  (1285) 
False

>  <contains_linear_sugars>  (1285) 
False

>  <murcko_framework>  (1285) 
c1ccccc1

>  <np_likeness>  (1285) 
0.70

>  <chemical_class>  (1285) 
Benzene and substituted derivatives

>  <chemical_sub_class>  (1285) 
Benzoic acids and derivatives

>  <chemical_super_class>  (1285) 
Benzenoids

>  <direct_parent_classification>  (1285) 
p-Hydroxybenzoic acid alkyl esters

>  <np_classifier_pathway>  (1285) 
Shikimates and Phenylpropanoids

>  <np_classifier_superclass>  (1285) 
Phenolic acids (C6-C1)

>  <np_classifier_class>  (1285) 
nan

>  <np_classifier_is_glycoside>  (1285) 
False

>  <organisms>  (1285) 
Piper dilatatum|Piper gaudichaudianum|Piper pseudofuligineum|Piper taboganum|piper sp.

>  <collections>  (1285) 
ChemSpider NPs|KNApSaCK|Latin America dataset|NPASS|NuBBEDB|Super Natural II|UNPD (Universal Natural Products Database)|WikiData Natural Products|ZINC NP

>  <dois>  (1285) 
10.1016/0031-9422(90)85016-9|10.1016/S0031-9422(98)00197-6|10.1021/NP030530J|10.1021/np030530j

>  <synonyms>  (1285) 
CHEMBL447071|Methyl taboganate|Methyl taboganate, Methyl 4-hydroxy-3-(3'-methyl-1'-oxo-2'-butenyl)benzoate

>  <cas>  (1285) 
nan

$$$$

     RDKit          2D

  8  7  0  0  0  0  0  0  0  0999 V2000
   -4.5553   -0.2480    0.0000 C   0  0  0  0  0  0  0  0  0  0  0  0
   -3.2359    0.4655    0.0000 C   0  0  0  0  0  0  0  0  0  0  0  0
   -1.9583   -0.3205    0.0000 C   0  0  0  0  0  0  0  0  0  0  0  0
   -0.6388    0.3930    0.0000 S   0  0  0  0  0  0  0  0  0  0  0  0
    0.6388   -0.3930    0.0000 S   0  0  0  0  0  0  0  0  0  0  0  0
    1.9583    0.3205    0.0000 C   0  0  0  0  0  0  0  0  0  0  0  0
    3.2359   -0.4655    0.0000 C   0  0  0  0  0  0  0  0  0  0  0  0
    4.5553    0.2480    0.0000 C   0  0  0  0  0  0  0  0  0  0  0  0
  1  2  1  0
  2  3  1  0
  3  4  1  0
  4  5  1  0
  5  6  1  0
  6  7  1  0
  7  8  1  0
M  END
>  <identifier>  (1286) 
CNP0328321.0

>  <canonical_smiles>  (1286) 
CCCSSCCC

>  <standard_inchi>  (1286) 
InChI=1S/C6H14S2/c1-3-5-7-8-6-4-2/h3-6H2,1-2H3

>  <standard_inchi_key>  (1286) 
ALVPFGSHPUPROW-UHFFFAOYSA-N

>  <name>  (1286) 
Dipropyl disulfide

>  <iupac_name>  (1286) 
1-(propyldisulfanyl)propane

>  <annotation_level>  (1286) 
5

>  <total_atom_count>  (1286) 
22

>  <heavy_atom_count>  (1286) 
8

>  <molecular_weight>  (1286) 
150.31

>  <exact_molecular_weight>  (1286) 
150.05369

>  <molecular_formula>  (1286) 
C6H14S2

>  <alogp>  (1286) 
3.19

>  <topological_polar_surface_area>  (1286) 
0.00

>  <rotatable_bond_count>  (1286) 
5

>  <hydrogen_bond_acceptors>  (1286) 
2

>  <hydrogen_bond_donors>  (1286) 
0

>  <hydrogen_bond_acceptors_lipinski>  (1286) 
2

>  <hydrogen_bond_donors_lipinski>  (1286) 
0

>  <lipinski_rule_of_five_violations>  (1286) 
0

>  <aromatic_rings_count>  (1286) 
0

>  <qed_drug_likeliness>  (1286) 
0.44

>  <formal_charge>  (1286) 
0

>  <fractioncsp3>  (1286) 
1.00

>  <number_of_minimal_rings>  (1286) 
0

>  <van_der_walls_volume>  (1286) 
149.89

>  <contains_sugar>  (1286) 
False

>  <contains_ring_sugars>  (1286) 
False

>  <contains_linear_sugars>  (1286) 
False

>  <murcko_framework>  (1286) 
nan

>  <np_likeness>  (1286) 
0.28

>  <chemical_class>  (1286) 
Organic disulfides

>  <chemical_sub_class>  (1286) 
Dialkyldisulfides

>  <chemical_super_class>  (1286) 
Organosulfur compounds

>  <direct_parent_classification>  (1286) 
Dialkyldisulfides

>  <np_classifier_pathway>  (1286) 
nan

>  <np_classifier_superclass>  (1286) 
nan

>  <np_classifier_class>  (1286) 
nan

>  <np_classifier_is_glycoside>  (1286) 
False

>  <organisms>  (1286) 
Allium|Allium Sativum|Allium ampeloprasum|Allium ascalonicum|Allium ascalonicum Auct.|Allium cepa|Allium cepa L.|Allium fistulosum L.|Allium obliquum|Allium porrum|Allium porrum L.|Allium sativum|Allium schoenoprasum|Allium schoenoprasum L.|Allium spp.|Allium ursinum|Allium ursinum L.|Allium vineale|Angelica pubescens|Aniba megaphylla|Azadirachta indica|Berberis integerrima|Bulbus allii fistulosi|Caenorhabditis elegans|Citrullus lanatus|Elephantopus angustifolius|Ferula assafoetida|Ferula fukanensis|Ferula sinkiangensis|Herbertus sakuraii|Homo sapiens|Isoplexis sceptrum|Libocedrus decurrens|Loranthus parasiticus|Nauclea latifolia|Ovibos moschatus|Petiveria allacea|Petiveria alliacea|Rhodospirillum rubrum|Welsh onion|garlic

>  <collections>  (1286) 
CMAUP (cCollective molecular activities of useful plants)|ChEBI NPs|ChemSpider NPs|FooDB|KNApSaCK|Latin America dataset|NPASS|NPEdia|NuBBEDB|Super Natural II|TCMDB-Taiwan (Traditional Chinese Medicine database)|TCMID (Traditional Chinese Medicine Integrated Database)|TPPT (Toxic Plants–PhytoToxins)|UNPD (Universal Natural Products Database)|VietHerb|Watermelon|WikiData Natural Products

>  <dois>  (1286) 
10.1002/PTR.4725|10.1002/biuz.19840140514|10.1002/mnfr.200700072|10.1007/S11101-013-9295-3|10.1016/0010-7824(90)90054-Y|10.1016/0031-9422(90)80213-Z|10.1016/0305-1978(95)00072-0|10.1016/S0031-9422(01)00079-6|10.1016/j.bse.2003.10.001|10.1016/j.chroma.2005.12.016|10.1021/JF00034A054|10.1021/JF00040A033|10.1021/JF00083A035|10.1021/JF00096A017|10.1021/JF00097A029|10.1021/JF061582S|10.1021/JF60231A012|10.1021/JF801220B|10.1021/JF9803076|10.1021/NP0503350|10.1021/jf00024a017|10.1021/jf0504768|10.1080/00021369.1988.10869050|10.1080/10412905.1991.9697935|10.1080/10412905.2000.9712157|10.1096/fj.06-6927com|10.1111/J.1365-2621.1983.TB05101.X|10.1155/2017/6873651|10.1271/BBB.56.1865|10.1271/BBB1961.52.2383|10.17660/ACTAHORTIC.2005.679.1|10.3389/FMOLB.2018.00096|10.4327/JSNFS1949.32.119

>  <synonyms>  (1286) 
(n-C3H7S)2|1,1'-disulfanediyldipropane|1,1'-dithiodipropane|1,2-dipropyldisulfane|1-(Propyldisulfanyl)propane|4,5-DITHIAOCTANE|629-19-6|A834090|AI3-37201|AKOS015897437|AS-56755|C08373|CAS-629-19-6|CHEBI:45758|CS-0259501|D0932|DB-054332|DTXCID302096|DTXSID2022096|Di-n-propyl disulfide|Dipropyl disulfide, 98%|Dipropyl disulphide|Disulfide, dipropyl|E79213|EINECS 211-079-8|EN300-7352631|FEMA 3228|FEMA NO. 4577, DIPROPYL-|FEMA No. 3228|I7K169J70F|InChI=1\/C6H14S2\/c1-3-5-7-8-6-4-2\/h3-6H2,1-2H|MFCD00009378|NCGC00255274-01|NS00021270|NSC 75122|NSC-75122|NSC797350|PROPYL DISULFIDE [FHFI]|Propyl disulfide|Propyl disulfide, >=97%, FG|Propyldithiopropane|Q1227317|SCHEMBL113363|Tox21_301499|UNII-I7K169J70F|n-propyldisulfide

>  <cas>  (1286) 
629-19-6

$$$$

     RDKit          2D

 45 49  0  0  0  0  0  0  0  0999 V2000
    0.4131   -7.6943    0.0000 C   0  0  0  0  0  0  0  0  0  0  0  0
    1.6385   -6.8292    0.0000 O   0  0  0  0  0  0  0  0  0  0  0  0
    1.5020   -5.3355    0.0000 C   0  0  0  0  0  0  0  0  0  0  0  0
    0.1401   -4.7068    0.0000 C   0  0  0  0  0  0  0  0  0  0  0  0
    0.0037   -3.2130    0.0000 C   0  0  0  0  0  0  0  0  0  0  0  0
   -1.3582   -2.5843    0.0000 O   0  0  0  0  0  0  0  0  0  0  0  0
    1.2291   -2.3479    0.0000 C   0  0  0  0  0  0  0  0  0  0  0  0
    1.0926   -0.8541    0.0000 C   0  0  0  0  0  0  0  0  0  0  0  0
   -0.2693   -0.2254    0.0000 O   0  0  0  0  0  0  0  0  0  0  0  0
    2.3180    0.0109    0.0000 C   0  0  0  0  0  0  0  0  0  0  0  0
    2.1815    1.5047    0.0000 O   0  0  0  0  0  0  0  0  0  0  0  0
    0.8197    2.1334    0.0000 C   0  0  0  0  0  0  0  0  0  0  0  0
   -0.4058    1.2683    0.0000 O   0  0  0  0  0  0  0  0  0  0  0  0
   -1.7676    1.8970    0.0000 C   0  0  0  0  0  0  0  0  0  0  0  0
   -2.9931    1.0320    0.0000 C   0  0  0  0  0  0  0  0  0  0  0  0
   -4.3549    1.6607    0.0000 O   0  0  0  0  0  0  0  0  0  0  0  0
   -5.5804    0.7956    0.0000 C   0  0  0  0  0  0  0  0  0  0  0  0
   -5.4439   -0.6982    0.0000 O   0  0  0  0  0  0  0  0  0  0  0  0
   -6.6693   -1.5633    0.0000 C   0  0  0  0  0  0  0  0  0  0  0  0
   -6.5328   -3.0571    0.0000 C   0  0  0  0  0  0  0  0  0  0  0  0
   -8.0312   -0.9346    0.0000 C   0  0  0  0  0  0  0  0  0  0  0  0
   -9.2566   -1.7997    0.0000 O   0  0  0  0  0  0  0  0  0  0  0  0
   -8.1677    0.5592    0.0000 C   0  0  0  0  0  0  0  0  0  0  0  0
   -9.5295    1.1879    0.0000 O   0  0  0  0  0  0  0  0  0  0  0  0
   -6.9422    1.4243    0.0000 C   0  0  0  0  0  0  0  0  0  0  0  0
   -7.0787    2.9181    0.0000 O   0  0  0  0  0  0  0  0  0  0  0  0
   -1.9041    3.3908    0.0000 C   0  0  0  0  0  0  0  0  0  0  0  0
   -3.2660    4.0195    0.0000 O   0  0  0  0  0  0  0  0  0  0  0  0
   -0.6787    4.2559    0.0000 C   0  0  0  0  0  0  0  0  0  0  0  0
   -0.8152    5.7497    0.0000 O   0  0  0  0  0  0  0  0  0  0  0  0
    0.6832    3.6272    0.0000 C   0  0  0  0  0  0  0  0  0  0  0  0
    1.9086    4.4923    0.0000 O   0  0  0  0  0  0  0  0  0  0  0  0
    3.6799   -0.6178    0.0000 C   0  0  0  0  0  0  0  0  0  0  0  0
    4.9053    0.2473    0.0000 C   0  0  0  0  0  0  0  0  0  0  0  0
    4.7688    1.7411    0.0000 C   0  0  0  0  0  0  0  0  0  0  0  0
    5.9943    2.6062    0.0000 C   0  0  0  0  0  0  0  0  0  0  0  0
    7.3561    1.9775    0.0000 C   0  0  0  0  0  0  0  0  0  0  0  0
    8.5816    2.8426    0.0000 O   0  0  0  0  0  0  0  0  0  0  0  0
    7.4926    0.4837    0.0000 C   0  0  0  0  0  0  0  0  0  0  0  0
    8.8545   -0.1450    0.0000 O   0  0  0  0  0  0  0  0  0  0  0  0
   10.0799    0.7201    0.0000 C   0  0  0  0  0  0  0  0  0  0  0  0
    6.2672   -0.3814    0.0000 C   0  0  0  0  0  0  0  0  0  0  0  0
    3.8164   -2.1115    0.0000 O   0  0  0  0  0  0  0  0  0  0  0  0
    2.5910   -2.9766    0.0000 C   0  0  0  0  0  0  0  0  0  0  0  0
    2.7274   -4.4704    0.0000 C   0  0  0  0  0  0  0  0  0  0  0  0
  1  2  1  0
  2  3  1  0
  3  4  2  0
  4  5  1  0
  5  6  1  0
  5  7  2  0
  7  8  1  0
  8  9  2  0
  8 10  1  0
 10 11  1  0
 12 11  1  6
 12 13  1  0
 13 14  1  0
 14 15  1  6
 15 16  1  0
 17 16  1  6
 17 18  1  0
 18 19  1  0
 19 20  1  1
 19 21  1  0
 21 22  1  6
 21 23  1  0
 23 24  1  1
 23 25  1  0
 25 26  1  1
 14 27  1  0
 27 28  1  1
 27 29  1  0
 29 30  1  6
 29 31  1  0
 31 32  1  1
 10 33  2  0
 33 34  1  0
 34 35  2  0
 35 36  1  0
 36 37  2  0
 37 38  1  0
 37 39  1  0
 39 40  1  0
 40 41  1  0
 39 42  2  0
 33 43  1  0
 43 44  1  0
 44 45  2  0
 45  3  1  0
 44  7  1  0
 31 12  1  0
 42 34  1  0
 25 17  1  0
M  END
>  <identifier>  (1287) 
CNP0171424.1

>  <canonical_smiles>  (1287) 
COC1=CC(O)=C2C(=O)C(O[C@@H]3O[C@H](CO[C@@H]4O[C@@H](C)[C@H](O)[C@@H](O)[C@H]4O)[C@@H](O)[C@H](O)[C@H]3O)=C(C3=CC=C(O)C(OC)=C3)OC2=C1

>  <standard_inchi>  (1287) 
InChI=1S/C29H34O16/c1-10-19(32)22(35)24(37)28(42-10)41-9-17-20(33)23(36)25(38)29(44-17)45-27-21(34)18-14(31)7-12(39-2)8-16(18)43-26(27)11-4-5-13(30)15(6-11)40-3/h4-8,10,17,19-20,22-25,28-33,35-38H,9H2,1-3H3/t10-,17+,19-,20+,22+,23-,24+,25+,28+,29-/m0/s1

>  <standard_inchi_key>  (1287) 
JUIYKRQGQJORHH-BDAFLREQSA-N

>  <name>  (1287) 
Rhamnazin 3-rutinoside

>  <iupac_name>  (1287) 
5-hydroxy-2-(4-hydroxy-3-methoxy-phenyl)-7-methoxy-3-[(2~{S},3~{R},4~{S},5~{S},6~{R})-3,4,5-trihydroxy-6-[[(2~{R},3~{R},4~{R},5~{R},6~{S})-3,4,5-trihydroxy-6-methyl-tetrahydropyran-2-yl]oxymethyl]tetrahydropyran-2-yl]oxy-chromen-4-one

>  <annotation_level>  (1287) 
5

>  <total_atom_count>  (1287) 
79

>  <heavy_atom_count>  (1287) 
45

>  <molecular_weight>  (1287) 
638.58

>  <exact_molecular_weight>  (1287) 
638.18469

>  <molecular_formula>  (1287) 
C29H34O16

>  <alogp>  (1287) 
-1.08

>  <topological_polar_surface_area>  (1287) 
247.43

>  <rotatable_bond_count>  (1287) 
8

>  <hydrogen_bond_acceptors>  (1287) 
16

>  <hydrogen_bond_donors>  (1287) 
8

>  <hydrogen_bond_acceptors_lipinski>  (1287) 
16

>  <hydrogen_bond_donors_lipinski>  (1287) 
8

>  <lipinski_rule_of_five_violations>  (1287) 
3

>  <aromatic_rings_count>  (1287) 
3

>  <qed_drug_likeliness>  (1287) 
0.15

>  <formal_charge>  (1287) 
0

>  <fractioncsp3>  (1287) 
0.48

>  <number_of_minimal_rings>  (1287) 
5

>  <van_der_walls_volume>  (1287) 
527.17

>  <contains_sugar>  (1287) 
True

>  <contains_ring_sugars>  (1287) 
True

>  <contains_linear_sugars>  (1287) 
False

>  <murcko_framework>  (1287) 
O1c2ccccc2CC(OC3OC(COC4OCCCC4)CCC3)=C1c5ccccc5

>  <np_likeness>  (1287) 
1.79

>  <chemical_class>  (1287) 
Flavonoids

>  <chemical_sub_class>  (1287) 
Flavonoid glycosides

>  <chemical_super_class>  (1287) 
Phenylpropanoids and polyketides

>  <direct_parent_classification>  (1287) 
Flavonoid-3-O-glycosides

>  <np_classifier_pathway>  (1287) 
Shikimates and Phenylpropanoids

>  <np_classifier_superclass>  (1287) 
Flavonoids

>  <np_classifier_class>  (1287) 
Flavonols

>  <np_classifier_is_glycoside>  (1287) 
True

>  <organisms>  (1287) 
Cucurbita Pepo|Gynostemma pentaphyllum|Tocoyena brasiliensis

>  <collections>  (1287) 
Australian natural products|ChemSpider NPs|Latin America dataset|NuBBEDB|VietHerb|WikiData Natural Products|ZINC NP

>  <dois>  (1287) 
10.1016/s0031-9422(00)82679-5|10.1021/NP0499012.S001|10.1590/S0100-40422005000400009

>  <synonyms>  (1287) 
4H-1-Benzopyran-4-one, 3-((6-O-(6-deoxy-alpha-L-mannopyranosyl)-beta-D-glucopyranosyl)oxy)-5-hydroxy-2-(4-hydroxy-3-methoxyphenyl)-7-methoxy-|5-Hydroxy-2-(4-hydroxy-3-methoxyphenyl)-7-methoxy-4-oxo-4H-1-benzopyran-3-yl 6-O-(6-deoxyhexopyranosyl)hexopyranoside|5-hydroxy-2-(4-hydroxy-3-methoxyphenyl)-7-methoxy-3-[(2S,3R,4S,5S,6R)-3,4,5-trihydroxy-6-[[(2R,3R,4R,5R,6S)-3,4,5-trihydroxy-6-methyloxan-2-yl]oxymethyl]oxan-2-yl]oxychromen-4-one|64527-08-8|AKOS032948987|CHEBI:168233|DTXSID50942249|E80728|Rhamnazin 3-O-rutinoside

>  <cas>  (1287) 
64527-08-8

$$$$

     RDKit          2D

 25 27  0  0  0  0  0  0  0  0999 V2000
    3.5757   -3.8638    0.0000 C   0  0  0  0  0  0  0  0  0  0  0  0
    4.6904   -2.8601    0.0000 O   0  0  0  0  0  0  0  0  0  0  0  0
    4.3786   -1.3929    0.0000 C   0  0  0  0  0  0  0  0  0  0  0  0
    2.9520   -0.9294    0.0000 C   0  0  0  0  0  0  0  0  0  0  0  0
    2.6401    0.5379    0.0000 C   0  0  0  0  0  0  0  0  0  0  0  0
    1.2135    1.0014    0.0000 C   0  0  0  0  0  0  0  0  0  0  0  0
    0.0000    0.1197    0.0000 O   0  0  0  0  0  0  0  0  0  0  0  0
   -1.2135    1.0014    0.0000 C   0  0  0  0  0  0  0  0  0  0  0  0
   -2.6401    0.5379    0.0000 C   0  0  0  0  0  0  0  0  0  0  0  0
   -3.7548    1.5415    0.0000 C   0  0  0  0  0  0  0  0  0  0  0  0
   -5.1814    1.0780    0.0000 C   0  0  0  0  0  0  0  0  0  0  0  0
   -5.4933   -0.3892    0.0000 C   0  0  0  0  0  0  0  0  0  0  0  0
   -6.9199   -0.8527    0.0000 O   0  0  0  0  0  0  0  0  0  0  0  0
   -4.3786   -1.3929    0.0000 C   0  0  0  0  0  0  0  0  0  0  0  0
   -4.6904   -2.8601    0.0000 O   0  0  0  0  0  0  0  0  0  0  0  0
   -3.5757   -3.8638    0.0000 C   0  0  0  0  0  0  0  0  0  0  0  0
   -2.9520   -0.9294    0.0000 C   0  0  0  0  0  0  0  0  0  0  0  0
   -0.7500    2.4280    0.0000 C   0  0  0  0  0  0  0  0  0  0  0  0
   -1.6317    3.6415    0.0000 C   0  0  0  0  0  0  0  0  0  0  0  0
    0.7500    2.4280    0.0000 C   0  0  0  0  0  0  0  0  0  0  0  0
    1.6317    3.6415    0.0000 C   0  0  0  0  0  0  0  0  0  0  0  0
    3.7548    1.5415    0.0000 C   0  0  0  0  0  0  0  0  0  0  0  0
    5.1814    1.0780    0.0000 C   0  0  0  0  0  0  0  0  0  0  0  0
    5.4933   -0.3892    0.0000 C   0  0  0  0  0  0  0  0  0  0  0  0
    6.9199   -0.8527    0.0000 O   0  0  0  0  0  0  0  0  0  0  0  0
  1  2  1  0
  2  3  1  0
  3  4  2  0
  4  5  1  0
  6  5  1  1
  6  7  1  0
  7  8  1  0
  8  9  1  1
  9 10  2  0
 10 11  1  0
 11 12  2  0
 12 13  1  0
 12 14  1  0
 14 15  1  0
 15 16  1  0
 14 17  2  0
  8 18  1  0
 18 19  1  6
 18 20  1  0
 20 21  1  6
  5 22  2  0
 22 23  1  0
 23 24  2  0
 24 25  1  0
 24  3  1  0
 20  6  1  0
 17  9  1  0
M  END
>  <identifier>  (1288) 
CNP0202297.1

>  <canonical_smiles>  (1288) 
COC1=CC([C@H]2O[C@@H](C3=CC=C(O)C(OC)=C3)[C@H](C)[C@@H]2C)=CC=C1O

>  <standard_inchi>  (1288) 
InChI=1S/C20H24O5/c1-11-12(2)20(14-6-8-16(22)18(10-14)24-4)25-19(11)13-5-7-15(21)17(9-13)23-3/h5-12,19-22H,1-4H3/t11-,12+,19-,20+

>  <standard_inchi_key>  (1288) 
GMXMKSFJQLFOSO-JARDSOJUSA-N

>  <name>  (1288) 
Nectandrin B

>  <iupac_name>  (1288) 
4-[(2~{R},3~{R},4~{S},5~{S})-5-(4-hydroxy-3-methoxy-phenyl)-3,4-dimethyl-tetrahydrofuran-2-yl]-2-methoxy-phenol

>  <annotation_level>  (1288) 
5

>  <total_atom_count>  (1288) 
49

>  <heavy_atom_count>  (1288) 
25

>  <molecular_weight>  (1288) 
344.41

>  <exact_molecular_weight>  (1288) 
344.16237

>  <molecular_formula>  (1288) 
C20H24O5

>  <alogp>  (1288) 
4.20

>  <topological_polar_surface_area>  (1288) 
68.15

>  <rotatable_bond_count>  (1288) 
4

>  <hydrogen_bond_acceptors>  (1288) 
5

>  <hydrogen_bond_donors>  (1288) 
2

>  <hydrogen_bond_acceptors_lipinski>  (1288) 
5

>  <hydrogen_bond_donors_lipinski>  (1288) 
2

>  <lipinski_rule_of_five_violations>  (1288) 
0

>  <aromatic_rings_count>  (1288) 
2

>  <qed_drug_likeliness>  (1288) 
0.87

>  <formal_charge>  (1288) 
0

>  <fractioncsp3>  (1288) 
0.40

>  <number_of_minimal_rings>  (1288) 
3

>  <van_der_walls_volume>  (1288) 
318.10

>  <contains_sugar>  (1288) 
False

>  <contains_ring_sugars>  (1288) 
False

>  <contains_linear_sugars>  (1288) 
False

>  <murcko_framework>  (1288) 
O1C(c2ccccc2)CCC1c3ccccc3

>  <np_likeness>  (1288) 
1.03

>  <chemical_class>  (1288) 
Furanoid lignans

>  <chemical_sub_class>  (1288) 
Tetrahydrofuran lignans

>  <chemical_super_class>  (1288) 
Lignans, neolignans and related compounds

>  <direct_parent_classification>  (1288) 
7,7'-epoxylignans

>  <np_classifier_pathway>  (1288) 
Shikimates and Phenylpropanoids

>  <np_classifier_superclass>  (1288) 
Lignans

>  <np_classifier_class>  (1288) 
Furanoid lignans

>  <np_classifier_is_glycoside>  (1288) 
False

>  <organisms>  (1288) 
Andinobates fulguritus|Aristolochia fordiana|Aristolochia pontica|Asclepias vestita|Callistemon citrinus|Callistemon lanceolatus|Catalpa bignonioides|Cephalonoplos segetum|Comaster multifida|Dryobalanops camphora|Endiandra anthropophagorum|Esenbeckia nesiotica|Haplophyllum tuberculatum|Helipterum tenellum|Hyptis tomentosa|Ipomoea cristulata|Iryanthera juruensis|Klasea sogdiana|Lachnoanaerobaculum saburreum|Lens phaseoloides|Leucas Aspera|Leucas aspera|Lophocolea bidentata|Lophozonia menziesii|Machilus odoratissima NEES|Machilus thunbergii|Magnolia sinica|Melaleuca citrina|Melaleuca lutea|Myristica argentea|Myristica dactyloides|Myristica fragrans|Myristica fragrans HOUTT.|Myristica malabarica|Nectandra angustifolia|Nectandra megapotamica|Nectandra oppositifolia|Pancratium trianthum|Piper mullesua|Piper pedicellosum|Rhodotypos scandens|Saururus chinensis|Virola surinamensis|Xanthostemon oppositifolius|aristolochia fordiana

>  <collections>  (1288) 
Australian natural products|CMAUP (cCollective molecular activities of useful plants)|ChemSpider NPs|KNApSaCK|Latin America dataset|NPACT|NPASS|NuBBEDB|Super Natural II|TCMDB-Taiwan (Traditional Chinese Medicine database)|VietHerb|WikiData Natural Products

>  <dois>  (1288) 
10.1002/PTR.2486|10.1007/BF02975429|10.1016/0031-9422(88)83162-5|10.1016/0031-9422(91)83766-E|10.1016/0031-9422(96)00113-6|10.1016/J.BMCL.2010.05.067|10.1016/J.PHYTOL.2011.08.010|10.1016/S0031-9422(00)00477-5|10.1016/S0031-9422(00)81847-6|10.1016/S0031-9422(00)88190-X|10.1016/S0031-9422(96)00408-6|10.1016/S0031-9422(96)00607-3|10.1021/ACS.JNATPROD.5B00220|10.1021/NP0302697|10.1021/NP070073X|10.1021/NP070073X.S001|10.1021/NP50009A006|10.1021/acs.jnatprod.5b00220|10.1021/acs.jnatprod.6b00262|10.1021/np0302697|10.1021/np070073x|10.1055/S-2000-8654|10.1055/S-2001-18349|10.1211/0022357001774949|10.1248/BPB.26.1039|10.1248/BPB.27.1147|10.1248/BPB.31.523|10.1248/CPB.35.3315|10.1248/CPB.51.595|10.3390/MOLECULES25122825

>  <synonyms>  (1288) 
(+)-Verrucosin|4-[(2R,3R,4S,5S)-5-(4-hydroxy-3-methoxyphenyl)-3,4-dimethyloxolan-2-yl]-2-methoxyphenol|74683-16-2|BDBM50216278|CHEMBL228326|Calophyllin|DTXSID50225660|Fragransin A2|Malabaricanol|NectandrinB|Odoratisol C|Phenol, 4,4'-((2R,3R,4S,5S)-tetrahydro-3,4-dimethyl-2,5-furandiyl)bis(2-methoxy-, rel-|Phenol, 4,4'-(tetrahydro-3,4-dimethyl-2,5-furandiyl)bis(2-methoxy-, (2alpha,3beta,4beta,5alpha)-|SCHEMBL893437|nectandrin-B

>  <cas>  (1288) 
74683-16-2

$$$$

     RDKit          2D

 38 43  0  0  0  0  0  0  0  0999 V2000
   -6.3181   -4.5453    0.0000 C   0  0  0  0  0  0  0  0  0  0  0  0
   -4.9091   -4.0309    0.0000 O   0  0  0  0  0  0  0  0  0  0  0  0
   -4.6501   -2.5534    0.0000 C   0  0  0  0  0  0  0  0  0  0  0  0
   -5.8002   -1.5904    0.0000 O   0  0  0  0  0  0  0  0  0  0  0  0
   -3.2411   -2.0389    0.0000 C   0  0  0  0  0  0  0  0  0  0  0  0
   -2.0911   -3.0020    0.0000 O   0  0  0  0  0  0  0  0  0  0  0  0
   -2.9821   -0.5615    0.0000 C   0  0  0  0  0  0  0  0  0  0  0  0
   -4.0252    0.5165    0.0000 C   0  0  0  0  0  0  0  0  0  0  0  0
   -5.5104    0.3062    0.0000 C   0  0  0  0  0  0  0  0  0  0  0  0
   -3.3224    1.8416    0.0000 C   0  0  0  0  0  0  0  0  0  0  0  0
   -1.8449    1.5826    0.0000 C   0  0  0  0  0  0  0  0  0  0  0  0
   -2.1443    2.3214    0.0000 O   0  0  0  0  0  0  0  0  0  0  0  0
   -0.4974    2.2416    0.0000 C   0  0  0  0  0  0  0  0  0  0  0  0
   -2.5746    2.6719    0.0000 C   0  0  0  0  0  0  0  0  0  0  0  0
   -2.4715    4.1683    0.0000 O   0  0  0  0  0  0  0  0  0  0  0  0
   -3.9221    2.0129    0.0000 C   0  0  0  0  0  0  0  0  0  0  0  0
   -5.1665    2.8505    0.0000 O   0  0  0  0  0  0  0  0  0  0  0  0
    0.5457    1.1636    0.0000 C   0  0  0  0  0  0  0  0  0  0  0  0
    1.1062    2.5549    0.0000 O   0  0  0  0  0  0  0  0  0  0  0  0
   -0.1571   -0.1615    0.0000 C   0  0  0  0  0  0  0  0  0  0  0  0
    0.6390   -1.4328    0.0000 C   0  0  0  0  0  0  0  0  0  0  0  0
    2.1381   -1.3789    0.0000 C   0  0  0  0  0  0  0  0  0  0  0  0
    2.8409   -0.0538    0.0000 C   0  0  0  0  0  0  0  0  0  0  0  0
    3.6371   -1.3251    0.0000 C   0  0  0  0  0  0  0  0  0  0  0  0
    4.3400    0.0001    0.0000 C   0  0  0  0  0  0  0  0  0  0  0  0
    5.1361   -1.2712    0.0000 C   0  0  0  0  0  0  0  0  0  0  0  0
    6.6326   -1.3743    0.0000 C   0  0  0  0  0  0  0  0  0  0  0  0
    6.9969   -2.8294    0.0000 O   0  0  0  0  0  0  0  0  0  0  0  0
    5.7257   -3.6256    0.0000 C   0  0  0  0  0  0  0  0  0  0  0  0
    4.5756   -2.6625    0.0000 C   0  0  0  0  0  0  0  0  0  0  0  0
    5.0428    1.3252    0.0000 O   0  0  0  0  0  0  0  0  0  0  0  0
    4.2467    2.5965    0.0000 C   0  0  0  0  0  0  0  0  0  0  0  0
    4.9495    3.9216    0.0000 O   0  0  0  0  0  0  0  0  0  0  0  0
    2.7476    2.5426    0.0000 C   0  0  0  0  0  0  0  0  0  0  0  0
    2.0448    1.2175    0.0000 C   0  0  0  0  0  0  0  0  0  0  0  0
    1.3419   -0.1077    0.0000 O   0  0  0  0  0  0  0  0  0  0  0  0
   -1.6346    0.0974    0.0000 C   0  0  0  0  0  0  0  0  0  0  0  0
   -1.4244   -1.3877    0.0000 C   0  0  0  0  0  0  0  0  0  0  0  0
  1  2  1  0
  2  3  1  0
  3  4  2  0
  3  5  1  0
  5  6  1  1
  7  5  1  1
  7  8  1  0
  8  9  1  6
  8 10  1  0
 10 11  1  0
 11 12  1  1
 11 13  1  0
 13 14  1  1
 14 15  1  6
 14 16  1  0
 16 17  1  1
 13 18  1  0
 18 19  1  1
 18 20  1  0
 20 21  1  0
 21 22  1  0
 22 23  1  0
 23 24  1  1
 23 25  1  0
 25 26  1  1
 26 27  2  0
 27 28  1  0
 28 29  1  0
 29 30  2  0
 25 31  1  0
 31 32  1  0
 32 33  2  0
 32 34  1  0
 34 35  1  0
 35 36  1  6
 20 37  1  0
 37 38  1  1
 37  7  1  0
 16  8  1  0
 35 18  1  0
 37 11  1  0
 35 23  1  0
 30 26  1  0
M  END
>  <identifier>  (1289) 
CNP0202488.1

>  <canonical_smiles>  (1289) 
COC(=O)[C@H](O)[C@H]1[C@]2(C)C[C@]3(O)[C@@H]([C@@H](O)[C@@H]2O)[C@@]2(O)C(CC[C@@]4(C)[C@H](C5=COC=C5)OC(=O)C[C@@]42O)[C@]13C

>  <standard_inchi>  (1289) 
InChI=1S/C27H36O11/c1-22-11-25(33)18(15(29)19(22)31)27(35)13(24(25,3)17(22)16(30)21(32)36-4)5-7-23(2)20(12-6-8-37-10-12)38-14(28)9-26(23,27)34/h6,8,10,13,15-20,29-31,33-35H,5,7,9,11H2,1-4H3/t13?,15-,16-,17+,18-,19+,20+,22+,23+,24-,25+,26-,27+/m1/s1

>  <standard_inchi_key>  (1289) 
ZZECVHGEQSZPJM-XFKNLAOKSA-N

>  <name>  (1289) 
nan

>  <iupac_name>  (1289) 
methyl (2~{R})-2-[(1~{S},5~{S},6~{S},10~{R},11~{S},12~{R},13~{R},14~{R},15~{S},17~{S},18~{S})-6-(3-furyl)-10,11,13,14,17-pentahydroxy-1,5,15-trimethyl-8-oxo-7-oxapentacyclo[13.2.1.0^{2,11}.0^{5,10}.0^{12,17}]octadecan-18-yl]-2-hydroxy-acetate

>  <annotation_level>  (1289) 
4

>  <total_atom_count>  (1289) 
74

>  <heavy_atom_count>  (1289) 
38

>  <molecular_weight>  (1289) 
536.57

>  <exact_molecular_weight>  (1289) 
536.22576

>  <molecular_formula>  (1289) 
C27H36O11

>  <alogp>  (1289) 
-0.19

>  <topological_polar_surface_area>  (1289) 
187.12

>  <rotatable_bond_count>  (1289) 
3

>  <hydrogen_bond_acceptors>  (1289) 
11

>  <hydrogen_bond_donors>  (1289) 
6

>  <hydrogen_bond_acceptors_lipinski>  (1289) 
11

>  <hydrogen_bond_donors_lipinski>  (1289) 
6

>  <lipinski_rule_of_five_violations>  (1289) 
3

>  <aromatic_rings_count>  (1289) 
1

>  <qed_drug_likeliness>  (1289) 
0.28

>  <formal_charge>  (1289) 
0

>  <fractioncsp3>  (1289) 
0.78

>  <number_of_minimal_rings>  (1289) 
6

>  <van_der_walls_volume>  (1289) 
nan

>  <contains_sugar>  (1289) 
False

>  <contains_ring_sugars>  (1289) 
False

>  <contains_linear_sugars>  (1289) 
False

>  <murcko_framework>  (1289) 
o1ccc(c1)C2OCCC3C2CCC4C5CC6CCC(C5C6)C34

>  <np_likeness>  (1289) 
2.69

>  <chemical_class>  (1289) 
Lactones

>  <chemical_sub_class>  (1289) 
Delta valerolactones

>  <chemical_super_class>  (1289) 
Organoheterocyclic compounds

>  <direct_parent_classification>  (1289) 
Delta valerolactones

>  <np_classifier_pathway>  (1289) 
Terpenoids

>  <np_classifier_superclass>  (1289) 
Triterpenoids

>  <np_classifier_class>  (1289) 
Limonoids

>  <np_classifier_is_glycoside>  (1289) 
False

>  <organisms>  (1289) 
Khaya senegalensis

>  <collections>  (1289) 
Latin America dataset|NuBBEDB|WikiData Natural Products

>  <dois>  (1289) 
10.1016/0031-9422(95)00093-3|10.1021/NP0496845

>  <synonyms>  (1289) 
methyl 1\u221a\u00e9\u00ac\u00b12\u221a\u00e9\u00ac\u22643\u221a\u00e9\u00ac\u00b168\u221a\u00e9\u00ac\u00b114\u221a\u00e9\u00ac\u2264-hexahydroxy-[4.2.1(1030).1(14)]-tricyclomeliac-7-oate

>  <cas>  (1289) 
nan

$$$$

     RDKit          2D

 12 12  0  0  0  0  0  0  0  0999 V2000
   -6.1365    0.6731    0.0000 C   0  0  0  0  0  0  0  0  0  0  0  0
   -4.9545   -0.2504    0.0000 C   0  0  0  0  0  0  0  0  0  0  0  0
   -3.5637    0.3115    0.0000 C   0  0  0  0  0  0  0  0  0  0  0  0
   -2.3817   -0.6120    0.0000 C   0  0  0  0  0  0  0  0  0  0  0  0
   -0.9909   -0.0501    0.0000 C   0  0  0  0  0  0  0  0  0  0  0  0
    0.1911   -0.9736    0.0000 C   0  0  0  0  0  0  0  0  0  0  0  0
    1.5819   -0.4117    0.0000 C   0  0  0  0  0  0  0  0  0  0  0  0
    1.7907    1.0737    0.0000 C   0  0  0  0  0  0  0  0  0  0  0  0
    3.1814    1.6356    0.0000 C   0  0  0  0  0  0  0  0  0  0  0  0
    4.3635    0.7121    0.0000 C   0  0  0  0  0  0  0  0  0  0  0  0
    4.1547   -0.7733    0.0000 C   0  0  0  0  0  0  0  0  0  0  0  0
    2.7639   -1.3352    0.0000 C   0  0  0  0  0  0  0  0  0  0  0  0
  1  2  1  0
  2  3  1  0
  3  4  1  0
  4  5  1  0
  5  6  1  0
  6  7  1  0
  7  8  2  0
  8  9  1  0
  9 10  1  0
 10 11  1  0
 11 12  1  0
 12  7  1  0
M  END
>  <identifier>  (1290) 
CNP0080554.0

>  <canonical_smiles>  (1290) 
CCCCCCC1=CCCCC1

>  <standard_inchi>  (1290) 
InChI=1S/C12H22/c1-2-3-4-6-9-12-10-7-5-8-11-12/h10H,2-9,11H2,1H3

>  <standard_inchi_key>  (1290) 
NEFDOOJYBCQHHV-UHFFFAOYSA-N

>  <name>  (1290) 
Cyclohexene, 1-hexyl-

>  <iupac_name>  (1290) 
1-hexylcyclohexene

>  <annotation_level>  (1290) 
5

>  <total_atom_count>  (1290) 
34

>  <heavy_atom_count>  (1290) 
12

>  <molecular_weight>  (1290) 
166.31

>  <exact_molecular_weight>  (1290) 
166.17215

>  <molecular_formula>  (1290) 
C12H22

>  <alogp>  (1290) 
4.46

>  <topological_polar_surface_area>  (1290) 
0.00

>  <rotatable_bond_count>  (1290) 
5

>  <hydrogen_bond_acceptors>  (1290) 
0

>  <hydrogen_bond_donors>  (1290) 
0

>  <hydrogen_bond_acceptors_lipinski>  (1290) 
0

>  <hydrogen_bond_donors_lipinski>  (1290) 
0

>  <lipinski_rule_of_five_violations>  (1290) 
0

>  <aromatic_rings_count>  (1290) 
0

>  <qed_drug_likeliness>  (1290) 
0.42

>  <formal_charge>  (1290) 
0

>  <fractioncsp3>  (1290) 
0.83

>  <number_of_minimal_rings>  (1290) 
1

>  <van_der_walls_volume>  (1290) 
nan

>  <contains_sugar>  (1290) 
False

>  <contains_ring_sugars>  (1290) 
False

>  <contains_linear_sugars>  (1290) 
False

>  <murcko_framework>  (1290) 
C1=CCCCC1

>  <np_likeness>  (1290) 
0.40

>  <chemical_class>  (1290) 
Unsaturated hydrocarbons

>  <chemical_sub_class>  (1290) 
Branched unsaturated hydrocarbons

>  <chemical_super_class>  (1290) 
Hydrocarbons

>  <direct_parent_classification>  (1290) 
Branched unsaturated hydrocarbons

>  <np_classifier_pathway>  (1290) 
nan

>  <np_classifier_superclass>  (1290) 
nan

>  <np_classifier_class>  (1290) 
nan

>  <np_classifier_is_glycoside>  (1290) 
False

>  <organisms>  (1290) 
Caryocar coriaceum

>  <collections>  (1290) 
Latin America dataset|NuBBEDB|WikiData Natural Products|ZINC NP

>  <dois>  (1290) 
10.1021/JF00120A031|10.1021/jf00120a031

>  <synonyms>  (1290) 
1-Hexyl-1-cyclohexene|1-hexylcyclohexene|3964-66-7|Cyclohexene,1-hexyl-|DTXSID10192748|NEFDOOJYBCQHHV-UHFFFAOYSA-N

>  <cas>  (1290) 
3964-66-7

$$$$

     RDKit          2D

 27 30  0  0  0  0  0  0  0  0999 V2000
    7.4366   -3.8153    0.0000 C   0  0  0  0  0  0  0  0  0  0  0  0
    7.1860   -2.3363    0.0000 C   0  0  0  0  0  0  0  0  0  0  0  0
    5.7800   -1.8139    0.0000 C   0  0  0  0  0  0  0  0  0  0  0  0
    5.5294   -0.3350    0.0000 O   0  0  0  0  0  0  0  0  0  0  0  0
    4.1233    0.1875    0.0000 C   0  0  0  0  0  0  0  0  0  0  0  0
    2.9678   -0.7690    0.0000 C   0  0  0  0  0  0  0  0  0  0  0  0
    1.5618   -0.2465    0.0000 C   0  0  0  0  0  0  0  0  0  0  0  0
    1.3112    1.2324    0.0000 C   0  0  0  0  0  0  0  0  0  0  0  0
    2.4667    2.1889    0.0000 C   0  0  0  0  0  0  0  0  0  0  0  0
    3.8728    1.6664    0.0000 C   0  0  0  0  0  0  0  0  0  0  0  0
    5.0283    2.6229    0.0000 O   0  0  0  0  0  0  0  0  0  0  0  0
    6.4343    2.1004    0.0000 C   0  0  0  0  0  0  0  0  0  0  0  0
   -0.1728    1.4511    0.0000 C   0  0  0  0  0  0  0  0  0  0  0  0
   -0.8681    2.7802    0.0000 C   0  0  0  0  0  0  0  0  0  0  0  0
   -0.8394    0.1074    0.0000 C   0  0  0  0  0  0  0  0  0  0  0  0
   -2.3183   -0.1432    0.0000 C   0  0  0  0  0  0  0  0  0  0  0  0
   -3.2747    1.0123    0.0000 C   0  0  0  0  0  0  0  0  0  0  0  0
   -4.7537    0.7617    0.0000 C   0  0  0  0  0  0  0  0  0  0  0  0
   -5.7101    1.9172    0.0000 O   0  0  0  0  0  0  0  0  0  0  0  0
   -5.1877    3.3233    0.0000 C   0  0  0  0  0  0  0  0  0  0  0  0
   -5.2761   -0.6443    0.0000 C   0  0  0  0  0  0  0  0  0  0  0  0
   -6.6706   -1.1969    0.0000 O   0  0  0  0  0  0  0  0  0  0  0  0
   -6.5760   -2.6939    0.0000 C   0  0  0  0  0  0  0  0  0  0  0  0
   -5.1230   -3.0666    0.0000 O   0  0  0  0  0  0  0  0  0  0  0  0
   -4.3197   -1.7998    0.0000 C   0  0  0  0  0  0  0  0  0  0  0  0
   -2.8407   -1.5493    0.0000 C   0  0  0  0  0  0  0  0  0  0  0  0
    0.2327   -0.9418    0.0000 O   0  0  0  0  0  0  0  0  0  0  0  0
  1  2  2  0
  2  3  1  0
  3  4  1  0
  4  5  1  0
  5  6  2  0
  6  7  1  0
  7  8  2  0
  8  9  1  0
  9 10  2  0
 10 11  1  0
 11 12  1  0
  8 13  1  0
 13 14  1  1
 13 15  1  0
 15 16  1  6
 16 17  2  0
 17 18  1  0
 18 19  1  0
 19 20  1  0
 18 21  2  0
 21 22  1  0
 22 23  1  0
 23 24  1  0
 24 25  1  0
 25 26  2  0
 15 27  1  0
 10  5  1  0
 26 16  1  0
 27  7  1  0
 25 21  1  0
M  END
>  <identifier>  (1291) 
CNP0307423.2

>  <canonical_smiles>  (1291) 
C=CCOC1=CC2=C(C=C1OC)[C@H](C)[C@@H](C1=CC(OC)=C3OCOC3=C1)O2

>  <standard_inchi>  (1291) 
InChI=1S/C21H22O6/c1-5-6-24-17-10-15-14(9-16(17)22-3)12(2)20(27-15)13-7-18(23-4)21-19(8-13)25-11-26-21/h5,7-10,12,20H,1,6,11H2,2-4H3/t12-,20-/m0/s1

>  <standard_inchi_key>  (1291) 
YMSMXICTYNQJKX-YUNKPMOVSA-N

>  <name>  (1291) 
nan

>  <iupac_name>  (1291) 
6-[(2~{S},3~{S})-6-allyloxy-5-methoxy-3-methyl-2,3-dihydrobenzofuran-2-yl]-4-methoxy-1,3-benzodioxole

>  <annotation_level>  (1291) 
4

>  <total_atom_count>  (1291) 
49

>  <heavy_atom_count>  (1291) 
27

>  <molecular_weight>  (1291) 
370.4

>  <exact_molecular_weight>  (1291) 
370.14164

>  <molecular_formula>  (1291) 
C21H22O6

>  <alogp>  (1291) 
4.23

>  <topological_polar_surface_area>  (1291) 
55.38

>  <rotatable_bond_count>  (1291) 
6

>  <hydrogen_bond_acceptors>  (1291) 
6

>  <hydrogen_bond_donors>  (1291) 
0

>  <hydrogen_bond_acceptors_lipinski>  (1291) 
6

>  <hydrogen_bond_donors_lipinski>  (1291) 
0

>  <lipinski_rule_of_five_violations>  (1291) 
0

>  <aromatic_rings_count>  (1291) 
2

>  <qed_drug_likeliness>  (1291) 
0.71

>  <formal_charge>  (1291) 
0

>  <fractioncsp3>  (1291) 
0.33

>  <number_of_minimal_rings>  (1291) 
4

>  <van_der_walls_volume>  (1291) 
nan

>  <contains_sugar>  (1291) 
False

>  <contains_ring_sugars>  (1291) 
False

>  <contains_linear_sugars>  (1291) 
False

>  <murcko_framework>  (1291) 
O1c2ccc(cc2OC1)C3Oc4ccccc4C3

>  <np_likeness>  (1291) 
1.28

>  <chemical_class>  (1291) 
2-arylbenzofuran flavonoids

>  <chemical_sub_class>  (1291) 
2-arylbenzofuran flavonoids

>  <chemical_super_class>  (1291) 
Phenylpropanoids and polyketides

>  <direct_parent_classification>  (1291) 
2-arylbenzofuran flavonoids

>  <np_classifier_pathway>  (1291) 
Shikimates and Phenylpropanoids

>  <np_classifier_superclass>  (1291) 
Lignans

>  <np_classifier_class>  (1291) 
Neolignans

>  <np_classifier_is_glycoside>  (1291) 
False

>  <organisms>  (1291) 
Aniba riparia|Aniba simulans|Aniba taubertiana

>  <collections>  (1291) 
Latin America dataset|NuBBEDB|Super Natural II|WikiData Natural Products|ZINC NP

>  <dois>  (1291) 
10.1016/S0031-9422(00)83890-X|10.1016/S0031-9422(00)89244-4

>  <synonyms>  (1291) 
(2S3S)-6-O-Allyl-5-methoxy-2-(3'-methoxy-4'5'-methylenedioxyphenyl)-3-methyl-23-dihydrobenzofuran

>  <cas>  (1291) 
nan

$$$$

     RDKit          2D

 36 40  0  0  0  0  0  0  0  0999 V2000
   -5.4567   -3.2750    0.0000 C   0  0  0  0  0  0  0  0  0  0  0  0
   -5.6605   -1.7889    0.0000 C   0  0  0  0  0  0  0  0  0  0  0  0
   -7.0886   -2.2477    0.0000 C   0  0  0  0  0  0  0  0  0  0  0  0
   -6.3604   -0.4622    0.0000 C   0  0  0  0  0  0  0  0  0  0  0  0
   -5.5613    0.8073    0.0000 C   0  0  0  0  0  0  0  0  0  0  0  0
   -4.0624    0.7500    0.0000 C   0  0  0  0  0  0  0  0  0  0  0  0
   -4.7622    2.0767    0.0000 C   0  0  0  0  0  0  0  0  0  0  0  0
   -6.2611    2.1340    0.0000 O   0  0  0  0  0  0  0  0  0  0  0  0
   -3.9631    3.3462    0.0000 O   0  0  0  0  0  0  0  0  0  0  0  0
   -3.2633    2.0194    0.0000 C   0  0  0  0  0  0  0  0  0  0  0  0
   -1.7644    1.9621    0.0000 C   0  0  0  0  0  0  0  0  0  0  0  0
   -1.0646    0.6354    0.0000 C   0  0  0  0  0  0  0  0  0  0  0  0
   -0.3647   -0.6914    0.0000 C   0  0  0  0  0  0  0  0  0  0  0  0
   -1.8636   -0.6341    0.0000 C   0  0  0  0  0  0  0  0  0  0  0  0
   -1.1638   -1.9608    0.0000 C   0  0  0  0  0  0  0  0  0  0  0  0
    0.3351   -2.0181    0.0000 C   0  0  0  0  0  0  0  0  0  0  0  0
    1.1342   -0.7487    0.0000 C   0  0  0  0  0  0  0  0  0  0  0  0
    2.6331   -0.8060    0.0000 C   0  0  0  0  0  0  0  0  0  0  0  0
    1.8340   -2.0754    0.0000 C   0  0  0  0  0  0  0  0  0  0  0  0
    3.3329   -2.1327    0.0000 C   0  0  0  0  0  0  0  0  0  0  0  0
    4.8318   -2.1900    0.0000 C   0  0  0  0  0  0  0  0  0  0  0  0
    5.5316   -3.5168    0.0000 O   0  0  0  0  0  0  0  0  0  0  0  0
    5.6309   -0.9206    0.0000 C   0  0  0  0  0  0  0  0  0  0  0  0
    7.1298   -0.9779    0.0000 O   0  0  0  0  0  0  0  0  0  0  0  0
    4.9311    0.4062    0.0000 C   0  0  0  0  0  0  0  0  0  0  0  0
    4.7272    1.8922    0.0000 C   0  0  0  0  0  0  0  0  0  0  0  0
    6.3592    0.8650    0.0000 C   0  0  0  0  0  0  0  0  0  0  0  0
    6.6759    2.3311    0.0000 O   0  0  0  0  0  0  0  0  0  0  0  0
    3.4322    0.4635    0.0000 C   0  0  0  0  0  0  0  0  0  0  0  0
    2.7323    1.7902    0.0000 C   0  0  0  0  0  0  0  0  0  0  0  0
    3.5314    3.0596    0.0000 O   0  0  0  0  0  0  0  0  0  0  0  0
    1.2334    1.8475    0.0000 C   0  0  0  0  0  0  0  0  0  0  0  0
    0.4343    0.5781    0.0000 C   0  0  0  0  0  0  0  0  0  0  0  0
   -0.2655    1.9048    0.0000 C   0  0  0  0  0  0  0  0  0  0  0  0
   -3.3625   -0.5768    0.0000 C   0  0  0  0  0  0  0  0  0  0  0  0
   -4.1616   -1.8462    0.0000 C   0  0  0  0  0  0  0  0  0  0  0  0
  1  2  1  0
  2  3  1  0
  2  4  1  0
  4  5  1  0
  5  6  1  0
  6  7  1  1
  7  8  2  0
  7  9  1  0
  6 10  1  0
 10 11  1  0
 11 12  1  0
 12 13  1  6
 12 14  1  0
 14 15  2  0
 15 16  1  0
 16 17  1  0
 17 18  1  0
 18 19  1  1
 18 20  1  0
 20 21  1  0
 21 22  1  6
 21 23  1  0
 23 24  1  1
 23 25  1  0
 25 26  1  1
 25 27  1  0
 27 28  1  0
 25 29  1  0
 29 30  1  0
 30 31  1  1
 30 32  1  0
 32 33  1  0
 33 34  1  1
 14 35  1  0
 35 36  1  0
 36  2  1  0
 35  6  1  0
 33 12  1  0
 33 17  1  0
 29 18  1  0
M  END
>  <identifier>  (1292) 
CNP0162865.5

>  <canonical_smiles>  (1292) 
CC1(C)CC[C@]2(C(=O)O)CC[C@]3(C)C(=CCC4[C@@]5(C)C[C@@H](O)[C@H](O)[C@@](C)(CO)C5[C@H](O)C[C@]43C)C2C1

>  <standard_inchi>  (1292) 
InChI=1S/C30H48O6/c1-25(2)9-11-30(24(35)36)12-10-28(5)17(18(30)13-25)7-8-21-26(3)14-20(33)23(34)27(4,16-31)22(26)19(32)15-29(21,28)6/h7,18-23,31-34H,8-16H2,1-6H3,(H,35,36)/t18?,19-,20-,21?,22?,23+,26-,27+,28-,29-,30+/m1/s1

>  <standard_inchi_key>  (1292) 
IDQVFXZQPGAVAM-VLMPRCOZSA-N

>  <name>  (1292) 
nan

>  <iupac_name>  (1292) 
(4~{a}~{S},6~{a}~{S},6~{b}~{R},8~{R},9~{R},10~{R},11~{R},12~{a}~{R})-8,10,11-trihydroxy-9-(hydroxymethyl)-2,2,6~{a},6~{b},9,12~{a}-hexamethyl-1,3,4,5,6,6~{a},7,8,8~{a},10,11,12,13,14~{b}-tetradecahydropicene-4~{a}-carboxylic acid

>  <annotation_level>  (1292) 
4

>  <total_atom_count>  (1292) 
84

>  <heavy_atom_count>  (1292) 
36

>  <molecular_weight>  (1292) 
504.71

>  <exact_molecular_weight>  (1292) 
504.34509

>  <molecular_formula>  (1292) 
C30H48O6

>  <alogp>  (1292) 
4.15

>  <topological_polar_surface_area>  (1292) 
118.22

>  <rotatable_bond_count>  (1292) 
2

>  <hydrogen_bond_acceptors>  (1292) 
5

>  <hydrogen_bond_donors>  (1292) 
5

>  <hydrogen_bond_acceptors_lipinski>  (1292) 
5

>  <hydrogen_bond_donors_lipinski>  (1292) 
5

>  <lipinski_rule_of_five_violations>  (1292) 
1

>  <aromatic_rings_count>  (1292) 
0

>  <qed_drug_likeliness>  (1292) 
0.36

>  <formal_charge>  (1292) 
0

>  <fractioncsp3>  (1292) 
0.90

>  <number_of_minimal_rings>  (1292) 
5

>  <van_der_walls_volume>  (1292) 
nan

>  <contains_sugar>  (1292) 
False

>  <contains_ring_sugars>  (1292) 
False

>  <contains_linear_sugars>  (1292) 
False

>  <murcko_framework>  (1292) 
C1=C2C3CCCCC3CCC2C4CCC5CCCCC5C4C1

>  <np_likeness>  (1292) 
3.35

>  <chemical_class>  (1292) 
Steroids and steroid derivatives

>  <chemical_sub_class>  (1292) 
Hydroxysteroids

>  <chemical_super_class>  (1292) 
Lipids and lipid-like molecules

>  <direct_parent_classification>  (1292) 
Hydroxysteroids

>  <np_classifier_pathway>  (1292) 
Terpenoids

>  <np_classifier_superclass>  (1292) 
Triterpenoids

>  <np_classifier_class>  (1292) 
Oleanane triterpenoids

>  <np_classifier_is_glycoside>  (1292) 
False

>  <organisms>  (1292) 
Siphoneugena densiflora|Smallanthus sonchifolius

>  <collections>  (1292) 
Latin America dataset|NuBBEDB|WikiData Natural Products

>  <dois>  (1292) 
10.1002/PS.1278|10.1590/S0103-50532006000200010

>  <synonyms>  (1292) 
Terminolic Acid

>  <cas>  (1292) 
nan

$$$$

     RDKit          2D

 31 35  0  0  0  0  0  0  0  0999 V2000
    5.9003   -3.6266    0.0000 C   0  0  0  0  0  0  0  0  0  0  0  0
    6.3847   -2.2070    0.0000 O   0  0  0  0  0  0  0  0  0  0  0  0
    5.3975   -1.0777    0.0000 C   0  0  0  0  0  0  0  0  0  0  0  0
    3.9259   -1.3680    0.0000 C   0  0  0  0  0  0  0  0  0  0  0  0
    2.9387   -0.2386    0.0000 C   0  0  0  0  0  0  0  0  0  0  0  0
    1.4670   -0.5290    0.0000 C   0  0  0  0  0  0  0  0  0  0  0  0
    0.8369   -1.8902    0.0000 O   0  0  0  0  0  0  0  0  0  0  0  0
   -0.6525   -1.7115    0.0000 C   0  0  0  0  0  0  0  0  0  0  0  0
   -0.9428   -0.2399    0.0000 C   0  0  0  0  0  0  0  0  0  0  0  0
    0.3671    0.4910    0.0000 C   0  0  0  0  0  0  0  0  0  0  0  0
    0.0768    1.9626    0.0000 C   0  0  0  0  0  0  0  0  0  0  0  0
   -1.4125    2.1413    0.0000 O   0  0  0  0  0  0  0  0  0  0  0  0
   -2.0426    0.7801    0.0000 C   0  0  0  0  0  0  0  0  0  0  0  0
   -3.5143    0.4898    0.0000 C   0  0  0  0  0  0  0  0  0  0  0  0
   -3.9987   -0.9298    0.0000 C   0  0  0  0  0  0  0  0  0  0  0  0
   -5.4703   -1.2201    0.0000 C   0  0  0  0  0  0  0  0  0  0  0  0
   -5.9547   -2.6398    0.0000 O   0  0  0  0  0  0  0  0  0  0  0  0
   -4.9675   -3.7691    0.0000 C   0  0  0  0  0  0  0  0  0  0  0  0
   -6.4575   -0.0908    0.0000 C   0  0  0  0  0  0  0  0  0  0  0  0
   -7.9574   -0.0688    0.0000 O   0  0  0  0  0  0  0  0  0  0  0  0
   -8.3999    1.3644    0.0000 C   0  0  0  0  0  0  0  0  0  0  0  0
   -7.1736    2.2282    0.0000 O   0  0  0  0  0  0  0  0  0  0  0  0
   -5.9731    1.3288    0.0000 C   0  0  0  0  0  0  0  0  0  0  0  0
   -4.5015    1.6191    0.0000 C   0  0  0  0  0  0  0  0  0  0  0  0
    3.4231    1.1810    0.0000 C   0  0  0  0  0  0  0  0  0  0  0  0
    4.8947    1.4713    0.0000 C   0  0  0  0  0  0  0  0  0  0  0  0
    5.3791    2.8909    0.0000 O   0  0  0  0  0  0  0  0  0  0  0  0
    6.8508    3.1812    0.0000 C   0  0  0  0  0  0  0  0  0  0  0  0
    5.8819    0.3420    0.0000 C   0  0  0  0  0  0  0  0  0  0  0  0
    7.3536    0.6323    0.0000 O   0  0  0  0  0  0  0  0  0  0  0  0
    8.3408   -0.4971    0.0000 C   0  0  0  0  0  0  0  0  0  0  0  0
  1  2  1  0
  2  3  1  0
  3  4  2  0
  4  5  1  0
  6  5  1  1
  6  7  1  0
  7  8  1  0
  9  8  1  6
  9 10  1  0
 10 11  1  6
 11 12  1  0
 12 13  1  0
 13 14  1  6
 14 15  2  0
 15 16  1  0
 16 17  1  0
 17 18  1  0
 16 19  2  0
 19 20  1  0
 20 21  1  0
 21 22  1  0
 22 23  1  0
 23 24  2  0
  5 25  2  0
 25 26  1  0
 26 27  1  0
 27 28  1  0
 26 29  2  0
 29 30  1  0
 30 31  1  0
 29  3  1  0
 10  6  1  0
 24 14  1  0
 13  9  1  0
 23 19  1  0
M  END
>  <identifier>  (1293) 
CNP0203752.2

>  <canonical_smiles>  (1293) 
COC1=CC([C@H]2OC[C@H]3[C@@H]2CO[C@H]3C2=CC(OC)=C3OCOC3=C2)=CC(OC)=C1OC

>  <standard_inchi>  (1293) 
InChI=1S/C23H26O8/c1-24-16-5-12(6-17(25-2)22(16)27-4)20-14-9-29-21(15(14)10-28-20)13-7-18(26-3)23-19(8-13)30-11-31-23/h5-8,14-15,20-21H,9-11H2,1-4H3/t14-,15-,20+,21-/m0/s1

>  <standard_inchi_key>  (1293) 
DHWUVPPRBIJJKS-YJPXFSGGSA-N

>  <name>  (1293) 
EPISESARTEMIN A

>  <iupac_name>  (1293) 
6-[(3~{R},3~{a}~{R},6~{S},6~{a}~{R})-6-(3,4,5-trimethoxyphenyl)-1,3,3~{a},4,6,6~{a}-hexahydrofuro[3,4-c]furan-3-yl]-4-methoxy-1,3-benzodioxole

>  <annotation_level>  (1293) 
5

>  <total_atom_count>  (1293) 
57

>  <heavy_atom_count>  (1293) 
31

>  <molecular_weight>  (1293) 
430.45

>  <exact_molecular_weight>  (1293) 
430.16277

>  <molecular_formula>  (1293) 
C23H26O8

>  <alogp>  (1293) 
3.52

>  <topological_polar_surface_area>  (1293) 
73.84

>  <rotatable_bond_count>  (1293) 
6

>  <hydrogen_bond_acceptors>  (1293) 
8

>  <hydrogen_bond_donors>  (1293) 
0

>  <hydrogen_bond_acceptors_lipinski>  (1293) 
8

>  <hydrogen_bond_donors_lipinski>  (1293) 
0

>  <lipinski_rule_of_five_violations>  (1293) 
0

>  <aromatic_rings_count>  (1293) 
2

>  <qed_drug_likeliness>  (1293) 
0.69

>  <formal_charge>  (1293) 
0

>  <fractioncsp3>  (1293) 
0.48

>  <number_of_minimal_rings>  (1293) 
5

>  <van_der_walls_volume>  (1293) 
377.00

>  <contains_sugar>  (1293) 
False

>  <contains_ring_sugars>  (1293) 
False

>  <contains_linear_sugars>  (1293) 
False

>  <murcko_framework>  (1293) 
O1c2ccc(cc2OC1)C3OCC4C(OCC34)c5ccccc5

>  <np_likeness>  (1293) 
0.93

>  <chemical_class>  (1293) 
Furanoid lignans

>  <chemical_sub_class>  (1293) 
Furan lignans

>  <chemical_super_class>  (1293) 
Lignans, neolignans and related compounds

>  <direct_parent_classification>  (1293) 
Furan lignans

>  <np_classifier_pathway>  (1293) 
Shikimates and Phenylpropanoids

>  <np_classifier_superclass>  (1293) 
Lignans

>  <np_classifier_class>  (1293) 
Furofuranoid lignans

>  <np_classifier_is_glycoside>  (1293) 
False

>  <organisms>  (1293) 
Artemisia absinthium|Peperomia obtusifolia

>  <collections>  (1293) 
Australian natural products|ChemSpider NPs|Latin America dataset|NuBBEDB|Super Natural II|WikiData Natural Products

>  <dois>  (1293) 
10.1016/0040-4020(80)88051-3|10.1055/S-0029-1185364|10.1055/s-0029-1185364

>  <synonyms>  (1293) 
2-Episesalatin|77449-31-1|AKOS040761690|EpisesarteminA|SCHEMBL17385609|episesartemin A

>  <cas>  (1293) 
77449-31-1

$$$$

     RDKit          2D

 27 28  0  0  0  0  0  0  0  0999 V2000
    2.9659    3.0721    0.0000 C   0  0  0  0  0  0  0  0  0  0  0  0
    2.7957    1.5818    0.0000 O   0  0  0  0  0  0  0  0  0  0  0  0
    4.0012    0.6892    0.0000 C   0  0  0  0  0  0  0  0  0  0  0  0
    3.8310   -0.8011    0.0000 C   0  0  0  0  0  0  0  0  0  0  0  0
    2.4552   -1.3988    0.0000 C   0  0  0  0  0  0  0  0  0  0  0  0
    1.2497   -0.5062    0.0000 C   0  0  0  0  0  0  0  0  0  0  0  0
   -0.1261   -1.1039    0.0000 C   0  0  0  0  0  0  0  0  0  0  0  0
   -1.3316   -0.2113    0.0000 C   0  0  0  0  0  0  0  0  0  0  0  0
   -2.7074   -0.8091    0.0000 C   0  0  0  0  0  0  0  0  0  0  0  0
   -3.9129    0.0835    0.0000 C   0  0  0  0  0  0  0  0  0  0  0  0
   -5.2887   -0.5142    0.0000 C   0  0  0  0  0  0  0  0  0  0  0  0
   -6.4942    0.3784    0.0000 C   0  0  0  0  0  0  0  0  0  0  0  0
   -7.8700   -0.2194    0.0000 C   0  0  0  0  0  0  0  0  0  0  0  0
   -9.0755    0.6732    0.0000 C   0  0  0  0  0  0  0  0  0  0  0  0
  -10.4513    0.0755    0.0000 C   0  0  0  0  0  0  0  0  0  0  0  0
   -9.8535   -1.3003    0.0000 C   0  0  0  0  0  0  0  0  0  0  0  0
  -11.0490    1.4513    0.0000 C   0  0  0  0  0  0  0  0  0  0  0  0
  -11.8270   -0.5222    0.0000 O   0  0  0  0  0  0  0  0  0  0  0  0
    5.0365   -1.6936    0.0000 N   0  0  0  0  0  0  0  0  0  0  0  0
    6.4122   -1.0959    0.0000 C   0  0  0  0  0  0  0  0  0  0  0  0
    7.6178   -1.9885    0.0000 C   0  0  0  0  0  0  0  0  0  0  0  0
    8.9935   -1.3908    0.0000 C   0  0  0  0  0  0  0  0  0  0  0  0
    9.1638    0.0995    0.0000 C   0  0  0  0  0  0  0  0  0  0  0  0
    7.9582    0.9921    0.0000 C   0  0  0  0  0  0  0  0  0  0  0  0
    6.5825    0.3944    0.0000 C   0  0  0  0  0  0  0  0  0  0  0  0
    5.3770    1.2870    0.0000 C   0  0  0  0  0  0  0  0  0  0  0  0
    5.5472    2.7773    0.0000 O   0  0  0  0  0  0  0  0  0  0  0  0
  1  2  1  0
  2  3  1  0
  3  4  2  0
  4  5  1  0
  5  6  1  0
  6  7  1  0
  7  8  1  0
  8  9  1  0
  9 10  1  0
 10 11  1  0
 11 12  1  0
 12 13  1  0
 13 14  1  0
 14 15  1  0
 15 16  1  0
 15 17  1  0
 15 18  1  0
  4 19  1  0
 19 20  1  0
 20 21  2  0
 21 22  1  0
 22 23  2  0
 23 24  1  0
 24 25  2  0
 25 26  1  0
 26 27  2  0
 26  3  1  0
 25 20  1  0
M  END
>  <identifier>  (1294) 
CNP0116712.0

>  <canonical_smiles>  (1294) 
COC1=C(CCCCCCCCCCC(C)(C)O)NC2=CC=CC=C2C1=O

>  <standard_inchi>  (1294) 
InChI=1S/C23H35NO3/c1-23(2,26)17-13-9-7-5-4-6-8-10-16-20-22(27-3)21(25)18-14-11-12-15-19(18)24-20/h11-12,14-15,26H,4-10,13,16-17H2,1-3H3,(H,24,25)

>  <standard_inchi_key>  (1294) 
KKVCNRZRXQPCPS-UHFFFAOYSA-N

>  <name>  (1294) 
nan

>  <iupac_name>  (1294) 
2-(11-hydroxy-11-methyl-dodecyl)-3-methoxy-1~{H}-quinolin-4-one

>  <annotation_level>  (1294) 
4

>  <total_atom_count>  (1294) 
62

>  <heavy_atom_count>  (1294) 
27

>  <molecular_weight>  (1294) 
373.54

>  <exact_molecular_weight>  (1294) 
373.26169

>  <molecular_formula>  (1294) 
C23H35NO3

>  <alogp>  (1294) 
5.36

>  <topological_polar_surface_area>  (1294) 
62.32

>  <rotatable_bond_count>  (1294) 
12

>  <hydrogen_bond_acceptors>  (1294) 
3

>  <hydrogen_bond_donors>  (1294) 
2

>  <hydrogen_bond_acceptors_lipinski>  (1294) 
3

>  <hydrogen_bond_donors_lipinski>  (1294) 
2

>  <lipinski_rule_of_five_violations>  (1294) 
1

>  <aromatic_rings_count>  (1294) 
2

>  <qed_drug_likeliness>  (1294) 
0.49

>  <formal_charge>  (1294) 
0

>  <fractioncsp3>  (1294) 
0.61

>  <number_of_minimal_rings>  (1294) 
2

>  <van_der_walls_volume>  (1294) 
nan

>  <contains_sugar>  (1294) 
False

>  <contains_ring_sugars>  (1294) 
False

>  <contains_linear_sugars>  (1294) 
False

>  <murcko_framework>  (1294) 
c1ccc2c(c1)NC=CC2

>  <np_likeness>  (1294) 
0.73

>  <chemical_class>  (1294) 
Quinolines and derivatives

>  <chemical_sub_class>  (1294) 
Quinolones and derivatives

>  <chemical_super_class>  (1294) 
Organoheterocyclic compounds

>  <direct_parent_classification>  (1294) 
Hydroquinolones

>  <np_classifier_pathway>  (1294) 
Alkaloids

>  <np_classifier_superclass>  (1294) 
Tryptophan alkaloids

>  <np_classifier_class>  (1294) 
Quinoline alkaloids

>  <np_classifier_is_glycoside>  (1294) 
False

>  <organisms>  (1294) 
Sohnreyia excelsa|Spathelia excelsa

>  <collections>  (1294) 
Latin America dataset|NuBBEDB|TCMDB-Taiwan (Traditional Chinese Medicine database)|TCMID (Traditional Chinese Medicine Integrated Database)|UNPD (Universal Natural Products Database)|WikiData Natural Products|ZINC NP

>  <dois>  (1294) 
10.1016/J.PHYTOCHEM.2005.05.019|10.1016/j.phytochem.2005.05.019

>  <synonyms>  (1294) 
2-(11-hydroxy-11-methyldodecanyl)-3-methoxy-4-quinolone

>  <cas>  (1294) 
nan

$$$$

     RDKit          2D

 30 35  0  0  0  0  0  0  0  0999 V2000
    2.5355   -4.2412    0.0000 C   0  0  0  0  0  0  0  0  0  0  0  0
    3.3792   -3.0009    0.0000 O   0  0  0  0  0  0  0  0  0  0  0  0
    2.7269   -1.6502    0.0000 C   0  0  0  0  0  0  0  0  0  0  0  0
    1.2310   -1.5396    0.0000 C   0  0  0  0  0  0  0  0  0  0  0  0
    0.5787   -0.1889    0.0000 C   0  0  0  0  0  0  0  0  0  0  0  0
    1.4224    1.0514    0.0000 C   0  0  0  0  0  0  0  0  0  0  0  0
    2.9183    0.9409    0.0000 C   0  0  0  0  0  0  0  0  0  0  0  0
    3.7620    2.1811    0.0000 O   0  0  0  0  0  0  0  0  0  0  0  0
    3.5706   -0.4099    0.0000 C   0  0  0  0  0  0  0  0  0  0  0  0
    5.0665   -0.5204    0.0000 O   0  0  0  0  0  0  0  0  0  0  0  0
    5.7188   -1.8712    0.0000 C   0  0  0  0  0  0  0  0  0  0  0  0
    0.5036    2.2370    0.0000 N   0  0  0  0  0  0  0  0  0  0  0  0
    0.9227    3.6773    0.0000 C   0  0  0  0  0  0  0  0  0  0  0  0
   -0.1151    4.7604    0.0000 C   0  0  0  0  0  0  0  0  0  0  0  0
    2.3795    4.0344    0.0000 O   0  0  0  0  0  0  0  0  0  0  0  0
   -0.9080    1.7295    0.0000 C   0  0  0  0  0  0  0  0  0  0  0  0
   -2.2296    2.4389    0.0000 C   0  0  0  0  0  0  0  0  0  0  0  0
   -3.5048    1.6491    0.0000 C   0  0  0  0  0  0  0  0  0  0  0  0
   -3.4584    0.1498    0.0000 C   0  0  0  0  0  0  0  0  0  0  0  0
   -4.7335   -0.6401    0.0000 C   0  0  0  0  0  0  0  0  0  0  0  0
   -4.6871   -2.1394    0.0000 C   0  0  0  0  0  0  0  0  0  0  0  0
   -3.3654   -2.8488    0.0000 C   0  0  0  0  0  0  0  0  0  0  0  0
   -2.0903   -2.0589    0.0000 N   0  0  0  0  0  0  0  0  0  0  0  0
   -0.6141   -2.3252    0.0000 C   0  0  0  0  0  0  0  0  0  0  0  0
    0.0953   -1.0035    0.0000 C   0  0  0  0  0  0  0  0  0  0  0  0
   -0.8615    0.2302    0.0000 C   0  0  0  0  0  0  0  0  0  0  0  0
   -2.1367   -0.5596    0.0000 C   0  0  0  0  0  0  0  0  0  0  0  0
   -2.2749   -0.0241    0.0000 O   0  0  0  0  0  0  0  0  0  0  0  0
   -2.8960   -0.3884    0.0000 C   0  0  0  0  0  0  0  0  0  0  0  0
   -2.9357    0.3306    0.0000 C   0  0  0  0  0  0  0  0  0  0  0  0
  1  2  1  0
  2  3  1  0
  3  4  2  0
  4  5  1  0
  5  6  2  0
  6  7  1  0
  7  8  1  0
  7  9  2  0
  9 10  1  0
 10 11  1  0
  6 12  1  0
 12 13  1  0
 13 14  1  0
 13 15  2  0
 12 16  1  0
 16 17  1  1
 17 18  1  0
 19 18  1  6
 19 20  1  0
 20 21  1  0
 21 22  1  0
 22 23  1  0
 23 24  1  0
 24 25  1  0
 26 25  1  6
 26 27  1  0
 27 28  1  1
 28 29  1  0
 29 30  1  0
  9  3  1  0
 26 16  1  0
 26  5  1  0
 27 19  1  0
 30 19  1  0
 27 23  1  0
M  END
>  <identifier>  (1295) 
CNP0314326.1

>  <canonical_smiles>  (1295) 
COC1=CC2=C(C(O)=C1OC)N(C(C)=O)[C@@H]1CC[C@@]34CCCN5CC[C@@]21[C@]53OCC4

>  <standard_inchi>  (1295) 
InChI=1S/C23H30N2O5/c1-14(26)25-17-5-7-21-6-4-10-24-11-8-22(17,23(21,24)30-12-9-21)15-13-16(28-2)20(29-3)19(27)18(15)25/h13,17,27H,4-12H2,1-3H3/t17-,21-,22-,23+/m1/s1

>  <standard_inchi_key>  (1295) 
RRBZDBHWSABCEC-LUGPXAIHSA-N

>  <name>  (1295) 
nan

>  <iupac_name>  (1295) 
1-[(1~{R},4~{R},12~{R},16~{S})-7-hydroxy-8,9-dimethoxy-17-oxa-5,15-diazahexacyclo[13.4.3.0^{1,16}.0^{4,12}.0^{6,11}.0^{12,16}]docosa-6(11),7,9-trien-5-yl]ethanone

>  <annotation_level>  (1295) 
4

>  <total_atom_count>  (1295) 
60

>  <heavy_atom_count>  (1295) 
30

>  <molecular_weight>  (1295) 
414.5

>  <exact_molecular_weight>  (1295) 
414.21547

>  <molecular_formula>  (1295) 
C23H30N2O5

>  <alogp>  (1295) 
2.78

>  <topological_polar_surface_area>  (1295) 
71.47

>  <rotatable_bond_count>  (1295) 
2

>  <hydrogen_bond_acceptors>  (1295) 
6

>  <hydrogen_bond_donors>  (1295) 
1

>  <hydrogen_bond_acceptors_lipinski>  (1295) 
6

>  <hydrogen_bond_donors_lipinski>  (1295) 
1

>  <lipinski_rule_of_five_violations>  (1295) 
0

>  <aromatic_rings_count>  (1295) 
1

>  <qed_drug_likeliness>  (1295) 
0.80

>  <formal_charge>  (1295) 
0

>  <fractioncsp3>  (1295) 
0.70

>  <number_of_minimal_rings>  (1295) 
6

>  <van_der_walls_volume>  (1295) 
nan

>  <contains_sugar>  (1295) 
False

>  <contains_ring_sugars>  (1295) 
False

>  <contains_linear_sugars>  (1295) 
False

>  <murcko_framework>  (1295) 
O1CCC23CCCN4CCC5(c6ccccc6NC5CC2)C143

>  <np_likeness>  (1295) 
1.93

>  <chemical_class>  (1295) 
Indoles and derivatives

>  <chemical_sub_class>  (1295) 
Carbazoles

>  <chemical_super_class>  (1295) 
Organoheterocyclic compounds

>  <direct_parent_classification>  (1295) 
Carbazoles

>  <np_classifier_pathway>  (1295) 
Alkaloids

>  <np_classifier_superclass>  (1295) 
Tryptophan alkaloids

>  <np_classifier_class>  (1295) 
Aspidosperma type

>  <np_classifier_is_glycoside>  (1295) 
False

>  <organisms>  (1295) 
Aspidosperma desmanthum

>  <collections>  (1295) 
Latin America dataset|NuBBEDB|WikiData Natural Products

>  <dois>  (1295) 
10.1016/S0031-9422(00)84426-X

>  <synonyms>  (1295) 
1-((3aR3a1S5aR10bR)-7-hydroxy-89-dimethoxy-2355a1112-hexahydro-1H-3a13a-(epoxyethano)indolizino[81-cd]carbazol-6(4H)-yl)ethanone

>  <cas>  (1295) 
nan

$$$$

     RDKit          2D

 28 32  0  0  0  0  0  0  0  0999 V2000
   -8.9736    0.4369    0.0000 C   0  0  0  0  0  0  0  0  0  0  0  0
   -7.7801   -0.4717    0.0000 O   0  0  0  0  0  0  0  0  0  0  0  0
   -6.3965    0.1075    0.0000 C   0  0  0  0  0  0  0  0  0  0  0  0
   -6.2063    1.5954    0.0000 C   0  0  0  0  0  0  0  0  0  0  0  0
   -4.8227    2.1747    0.0000 C   0  0  0  0  0  0  0  0  0  0  0  0
   -3.6292    1.2661    0.0000 C   0  0  0  0  0  0  0  0  0  0  0  0
   -2.1554    1.5450    0.0000 N   0  0  0  0  0  0  0  0  0  0  0  0
   -1.4346    0.2295    0.0000 C   0  0  0  0  0  0  0  0  0  0  0  0
   -2.4630   -0.8625    0.0000 C   0  0  0  0  0  0  0  0  0  0  0  0
   -2.0316   -2.2991    0.0000 C   0  0  0  0  0  0  0  0  0  0  0  0
   -0.5717   -2.6437    0.0000 C   0  0  0  0  0  0  0  0  0  0  0  0
    0.4567   -1.5518    0.0000 N   0  0  0  0  0  0  0  0  0  0  0  0
    0.0252   -0.1152    0.0000 C   0  0  0  0  0  0  0  0  0  0  0  0
    1.0536    0.9768    0.0000 N   0  0  0  0  0  0  0  0  0  0  0  0
    2.5135    0.6322    0.0000 C   0  0  0  0  0  0  0  0  0  0  0  0
    3.5419    1.7241    0.0000 C   0  0  0  0  0  0  0  0  0  0  0  0
    5.0018    1.3795    0.0000 C   0  0  0  0  0  0  0  0  0  0  0  0
    6.0302    2.4714    0.0000 O   0  0  0  0  0  0  0  0  0  0  0  0
    5.5987    3.9080    0.0000 C   0  0  0  0  0  0  0  0  0  0  0  0
    5.4332   -0.0571    0.0000 C   0  0  0  0  0  0  0  0  0  0  0  0
    6.8931   -0.4018    0.0000 O   0  0  0  0  0  0  0  0  0  0  0  0
    7.3246   -1.8384    0.0000 C   0  0  0  0  0  0  0  0  0  0  0  0
    4.4048   -1.1491    0.0000 C   0  0  0  0  0  0  0  0  0  0  0  0
    2.9450   -0.8044    0.0000 C   0  0  0  0  0  0  0  0  0  0  0  0
    1.9166   -1.8964    0.0000 C   0  0  0  0  0  0  0  0  0  0  0  0
    2.3480   -3.3330    0.0000 O   0  0  0  0  0  0  0  0  0  0  0  0
   -3.8194   -0.2218    0.0000 C   0  0  0  0  0  0  0  0  0  0  0  0
   -5.2030   -0.8011    0.0000 C   0  0  0  0  0  0  0  0  0  0  0  0
  1  2  1  0
  2  3  1  0
  3  4  2  0
  4  5  1  0
  5  6  2  0
  6  7  1  0
  7  8  1  0
  8  9  2  0
  9 10  1  0
 10 11  1  0
 11 12  1  0
 12 13  1  0
 13 14  2  0
 14 15  1  0
 15 16  2  0
 16 17  1  0
 17 18  1  0
 18 19  1  0
 17 20  2  0
 20 21  1  0
 21 22  1  0
 20 23  1  0
 23 24  2  0
 24 25  1  0
 25 26  2  0
  9 27  1  0
 27 28  2  0
 28  3  1  0
 27  6  1  0
 13  8  1  0
 24 15  1  0
 25 12  1  0
M  END
>  <identifier>  (1296) 
CNP0319345.0

>  <canonical_smiles>  (1296) 
COC1=CC=C2NC3=C(CCN4C3=NC3=CC(OC)=C(OC)C=C3C4=O)C2=C1

>  <standard_inchi>  (1296) 
InChI=1S/C21H19N3O4/c1-26-11-4-5-15-13(8-11)12-6-7-24-20(19(12)22-15)23-16-10-18(28-3)17(27-2)9-14(16)21(24)25/h4-5,8-10,22H,6-7H2,1-3H3

>  <standard_inchi_key>  (1296) 
IKMLSJDNQBTYKH-UHFFFAOYSA-N

>  <name>  (1296) 
nan

>  <iupac_name>  (1296) 
7,17,18-trimethoxy-3,13,21-triazapentacyclo[11.8.0.0^{2,10}.0^{4,9}.0^{15,20}]henicosa-1(21),2(10),4,6,8,15,17,19-octaen-14-one

>  <annotation_level>  (1296) 
4

>  <total_atom_count>  (1296) 
47

>  <heavy_atom_count>  (1296) 
28

>  <molecular_weight>  (1296) 
377.4

>  <exact_molecular_weight>  (1296) 
377.13756

>  <molecular_formula>  (1296) 
C21H19N3O4

>  <alogp>  (1296) 
3.13

>  <topological_polar_surface_area>  (1296) 
78.37

>  <rotatable_bond_count>  (1296) 
3

>  <hydrogen_bond_acceptors>  (1296) 
6

>  <hydrogen_bond_donors>  (1296) 
1

>  <hydrogen_bond_acceptors_lipinski>  (1296) 
6

>  <hydrogen_bond_donors_lipinski>  (1296) 
1

>  <lipinski_rule_of_five_violations>  (1296) 
0

>  <aromatic_rings_count>  (1296) 
4

>  <qed_drug_likeliness>  (1296) 
0.59

>  <formal_charge>  (1296) 
0

>  <fractioncsp3>  (1296) 
0.24

>  <number_of_minimal_rings>  (1296) 
5

>  <van_der_walls_volume>  (1296) 
nan

>  <contains_sugar>  (1296) 
False

>  <contains_ring_sugars>  (1296) 
False

>  <contains_linear_sugars>  (1296) 
False

>  <murcko_framework>  (1296) 
N=1c2ccccc2CN3C1c4[nH]c5ccccc5c4CC3

>  <np_likeness>  (1296) 
-0.03

>  <chemical_class>  (1296) 
Diazanaphthalenes

>  <chemical_sub_class>  (1296) 
Benzodiazines

>  <chemical_super_class>  (1296) 
Organoheterocyclic compounds

>  <direct_parent_classification>  (1296) 
Indoloquinazolines

>  <np_classifier_pathway>  (1296) 
Alkaloids

>  <np_classifier_superclass>  (1296) 
Tryptophan alkaloids

>  <np_classifier_class>  (1296) 
Carboline alkaloids

>  <np_classifier_is_glycoside>  (1296) 
False

>  <organisms>  (1296) 
Esenbeckia grandiflora|Euxylophora paraensis

>  <collections>  (1296) 
Latin America dataset|NuBBEDB|UNPD (Universal Natural Products Database)|WikiData Natural Products

>  <dois>  (1296) 
10.1016/0031-9422(73)80468-6|10.1590/S0100-40422009000800010

>  <synonyms>  (1296) 
Euxiloforicin D

>  <cas>  (1296) 
nan

$$$$

     RDKit          2D

 15 15  0  0  0  0  0  0  0  0999 V2000
   -4.9765    1.3284    0.0000 C   0  0  0  0  0  0  0  0  0  0  0  0
   -4.0570    0.1433    0.0000 O   0  0  0  0  0  0  0  0  0  0  0  0
   -2.5709    0.3469    0.0000 C   0  0  0  0  0  0  0  0  0  0  0  0
   -2.0043    1.7358    0.0000 C   0  0  0  0  0  0  0  0  0  0  0  0
   -0.5182    1.9395    0.0000 C   0  0  0  0  0  0  0  0  0  0  0  0
    0.4013    0.7543    0.0000 C   0  0  0  0  0  0  0  0  0  0  0  0
    1.8874    0.9580    0.0000 C   0  0  0  0  0  0  0  0  0  0  0  0
    2.8068   -0.2272    0.0000 C   0  0  0  0  0  0  0  0  0  0  0  0
    4.2930   -0.0235    0.0000 C   0  0  0  0  0  0  0  0  0  0  0  0
    4.8596    1.3653    0.0000 O   0  0  0  0  0  0  0  0  0  0  0  0
    5.2124   -1.2087    0.0000 O   0  0  0  0  0  0  0  0  0  0  0  0
   -0.1654   -0.6345    0.0000 C   0  0  0  0  0  0  0  0  0  0  0  0
   -1.6515   -0.8382    0.0000 C   0  0  0  0  0  0  0  0  0  0  0  0
   -2.2181   -2.2271    0.0000 O   0  0  0  0  0  0  0  0  0  0  0  0
   -1.2987   -3.4122    0.0000 C   0  0  0  0  0  0  0  0  0  0  0  0
  1  2  1  0
  2  3  1  0
  3  4  2  0
  4  5  1  0
  5  6  2  0
  6  7  1  0
  7  8  2  0
  8  9  1  0
  9 10  2  0
  9 11  1  0
  6 12  1  0
 12 13  2  0
 13 14  1  0
 14 15  1  0
 13  3  1  0
M  END
>  <identifier>  (1297) 
CNP0235910.1

>  <canonical_smiles>  (1297) 
COC1=CC=C(/C=C/C(=O)O)C=C1OC

>  <standard_inchi>  (1297) 
InChI=1S/C11H12O4/c1-14-9-5-3-8(4-6-11(12)13)7-10(9)15-2/h3-7H,1-2H3,(H,12,13)/b6-4+

>  <standard_inchi_key>  (1297) 
HJBWJAPEBGSQPR-GQCTYLIASA-N

>  <name>  (1297) 
nan

>  <iupac_name>  (1297) 
nan

>  <annotation_level>  (1297) 
0

>  <total_atom_count>  (1297) 
27

>  <heavy_atom_count>  (1297) 
15

>  <molecular_weight>  (1297) 
208.21

>  <exact_molecular_weight>  (1297) 
208.07356

>  <molecular_formula>  (1297) 
C11H12O4

>  <alogp>  (1297) 
1.80

>  <topological_polar_surface_area>  (1297) 
55.76

>  <rotatable_bond_count>  (1297) 
4

>  <hydrogen_bond_acceptors>  (1297) 
3

>  <hydrogen_bond_donors>  (1297) 
1

>  <hydrogen_bond_acceptors_lipinski>  (1297) 
3

>  <hydrogen_bond_donors_lipinski>  (1297) 
1

>  <lipinski_rule_of_five_violations>  (1297) 
0

>  <aromatic_rings_count>  (1297) 
1

>  <qed_drug_likeliness>  (1297) 
0.77

>  <formal_charge>  (1297) 
0

>  <fractioncsp3>  (1297) 
0.18

>  <number_of_minimal_rings>  (1297) 
1

>  <van_der_walls_volume>  (1297) 
190.46

>  <contains_sugar>  (1297) 
False

>  <contains_ring_sugars>  (1297) 
False

>  <contains_linear_sugars>  (1297) 
False

>  <murcko_framework>  (1297) 
c1ccccc1

>  <np_likeness>  (1297) 
0.42

>  <chemical_class>  (1297) 
nan

>  <chemical_sub_class>  (1297) 
nan

>  <chemical_super_class>  (1297) 
nan

>  <direct_parent_classification>  (1297) 
nan

>  <np_classifier_pathway>  (1297) 
Shikimates and Phenylpropanoids

>  <np_classifier_superclass>  (1297) 
Phenylpropanoids (C6-C3)

>  <np_classifier_class>  (1297) 
Cinnamic acids and derivatives

>  <np_classifier_is_glycoside>  (1297) 
False

>  <organisms>  (1297) 
Acorus calamus|Acorus gramineus|Acorus tatarinowii|Acrocarpia paniculata|Actaea simplex|Anemone tomentosa|Anodendron affine|Apis mellifera|Apis mellifera ligustica|Aplophyllum pedicellatum|Bacopa monnieri|Bohadschia vitiensis|Buddleja asiatica|Cedrela salvadorensis|Chrysosplenium americanum|Cimicifuga simplex|Clathria basilana|Colpomenia sinuosa|Eritrichium sericeum|Euphorbia tithymaloides|Eutrema japonicum|Garcinia cambogia|Hertia cheirifolia|Homo sapiens|Hylocereus undatus|Laggera alata|Licaria chrysophylla|Lobophytum schoedei|Mexican propolis|Olea europaea|Ormosia hosiei|Ornithoglossum viride|Pertusaria truncata|Petasites laevigatus|Phlogacanthus tubiflorus|Phlomoides rotata|Piper methysticum|Pocillopora eydouxi|Polygala tenuifolia|Polypodium decumanum|Populus nigra|Rubia tetragona|Rugelia nudicaulis|Sabia japonica|Schizanthus tricolor|Selenicereus undatus|Sibiraea angustata|Sphaeranthus confertifolius|Streptomyces argenteolus|Streptomyces pentaticus|Verbesina gigantea|Wasabia japonica|Woodsia manchuriensis|Zanthoxylum acutifolium|Zanthoxylum rhoifolium|broad bean|chinese propolis

>  <collections>  (1297) 
AnalytiCon Discovery NPs|CMAUP (cCollective molecular activities of useful plants)|FooDB|GNPS (Global Natural Products Social Molecular Networking)|InterBioScreen Ltd|KNApSaCK|Latin America dataset|NPASS|NPEdia|NuBBEDB|Phyto4Health|PubChem NPs|Super Natural II|WikiData Natural Products

>  <dois>  (1297) 
10.1002/ELPS.201300646|10.1002/HLCA.200890141|10.1007/BF00381261|10.1007/S10600-007-0133-Y|10.1007/S11418-009-0362-4|10.1016/0031-9422(81)85100-X|10.1016/0031-9422(92)83738-K|10.1016/J.FITOTE.2005.08.020|10.1016/J.PHYTOCHEM.2007.08.021|10.1016/J.PLAPHY.2015.04.008|10.1016/S0031-9422(82)85037-1|10.1021/np010486c|10.1080/10286020.2011.586944|10.1104/PP.69.2.522|10.1248/CPB.46.362|10.1515/ZNC-1987-9-1004|10.3945/jn.109.113613

>  <synonyms>  (1297) 
nan

>  <cas>  (1297) 
14737-89-4

$$$$

     RDKit          2D

 39 42  0  0  0  0  0  0  0  0999 V2000
    3.4011   -5.8368    0.0000 C   0  0  0  0  0  0  0  0  0  0  0  0
    4.0640   -4.4912    0.0000 C   0  0  0  0  0  0  0  0  0  0  0  0
    3.2302   -3.2443    0.0000 C   0  0  0  0  0  0  0  0  0  0  0  0
    3.8932   -1.8988    0.0000 C   0  0  0  0  0  0  0  0  0  0  0  0
    1.7335   -3.3430    0.0000 C   0  0  0  0  0  0  0  0  0  0  0  0
    0.8997   -2.0961    0.0000 C   0  0  0  0  0  0  0  0  0  0  0  0
   -1.1617   -1.7810    0.0000 C   0  0  0  0  0  0  0  0  0  0  0  0
   -0.2400   -3.6516    0.0000 C   0  0  0  0  0  0  0  0  0  0  0  0
   -0.4343   -0.7036    0.0000 C   0  0  0  0  0  0  0  0  0  0  0  0
    0.9384   -0.0990    0.0000 C   0  0  0  0  0  0  0  0  0  0  0  0
    1.1012    1.3922    0.0000 C   0  0  0  0  0  0  0  0  0  0  0  0
    2.4740    1.9968    0.0000 O   0  0  0  0  0  0  0  0  0  0  0  0
    3.6839    1.1103    0.0000 C   0  0  0  0  0  0  0  0  0  0  0  0
    3.5212   -0.3809    0.0000 O   0  0  0  0  0  0  0  0  0  0  0  0
    5.0567    1.7149    0.0000 C   0  0  0  0  0  0  0  0  0  0  0  0
    6.2667    0.8283    0.0000 C   0  0  0  0  0  0  0  0  0  0  0  0
    7.6394    1.4330    0.0000 C   0  0  0  0  0  0  0  0  0  0  0  0
    7.8022    2.9241    0.0000 C   0  0  0  0  0  0  0  0  0  0  0  0
    6.5922    3.8106    0.0000 C   0  0  0  0  0  0  0  0  0  0  0  0
    5.2195    3.2060    0.0000 C   0  0  0  0  0  0  0  0  0  0  0  0
   -0.1088    2.2787    0.0000 C   0  0  0  0  0  0  0  0  0  0  0  0
   -1.4815    1.6741    0.0000 C   0  0  0  0  0  0  0  0  0  0  0  0
   -2.8494    2.2897    0.0000 C   0  0  0  0  0  0  0  0  0  0  0  0
   -3.1554    3.7582    0.0000 O   0  0  0  0  0  0  0  0  0  0  0  0
   -4.5801    4.2274    0.0000 C   0  0  0  0  0  0  0  0  0  0  0  0
   -4.8861    5.6958    0.0000 C   0  0  0  0  0  0  0  0  0  0  0  0
   -5.6988    3.2282    0.0000 O   0  0  0  0  0  0  0  0  0  0  0  0
   -3.8575    1.1790    0.0000 O   0  0  0  0  0  0  0  0  0  0  0  0
   -3.1127   -0.1230    0.0000 C   0  0  0  0  0  0  0  0  0  0  0  0
   -3.7283   -1.4909    0.0000 O   0  0  0  0  0  0  0  0  0  0  0  0
   -5.2207   -1.6417    0.0000 C   0  0  0  0  0  0  0  0  0  0  0  0
   -5.8363   -3.0096    0.0000 C   0  0  0  0  0  0  0  0  0  0  0  0
   -6.0975   -0.4247    0.0000 O   0  0  0  0  0  0  0  0  0  0  0  0
   -1.6443    0.1830    0.0000 C   0  0  0  0  0  0  0  0  0  0  0  0
   -2.4524   -0.8354    0.0000 C   0  0  0  0  0  0  0  0  0  0  0  0
   -4.4056    0.1458    0.0000 O   0  0  0  0  0  0  0  0  0  0  0  0
   -2.5392   -1.6306    0.0000 C   0  0  0  0  0  0  0  0  0  0  0  0
   -1.8939   -2.1035    0.0000 C   0  0  0  0  0  0  0  0  0  0  0  0
   -2.1326   -4.2905    0.0000 C   0  0  0  0  0  0  0  0  0  0  0  0
  1  2  2  0
  2  3  1  0
  3  4  1  0
  3  5  2  0
  5  6  1  0
  6  7  1  0
  7  8  1  6
  7  9  1  0
  9 10  1  6
 10 11  1  0
 11 12  1  1
 12 13  1  0
 13 14  2  0
 13 15  1  0
 15 16  2  0
 16 17  1  0
 17 18  2  0
 18 19  1  0
 19 20  2  0
 11 21  1  0
 21 22  2  0
 22 23  1  0
 23 24  1  1
 24 25  1  0
 25 26  1  0
 25 27  2  0
 23 28  1  0
 28 29  1  0
 29 30  1  6
 30 31  1  0
 31 32  1  0
 31 33  2  0
 29 34  1  0
 34 35  1  0
 35 36  1  1
 35 37  1  0
 37 38  1  0
 38 39  1  1
 38  7  1  0
 34  9  1  0
 20 15  1  0
 34 22  1  6
M  END
>  <identifier>  (1298) 
CNP0162442.1

>  <canonical_smiles>  (1298) 
C=C/C(C)=C/C[C@]1(C)[C@H]2C[C@H](OC(=O)C3=CC=CC=C3)C=C3[C@H](OC(C)=O)O[C@@H](OC(C)=O)[C@@]32[C@H](O)C[C@@H]1C

>  <standard_inchi>  (1298) 
InChI=1S/C31H38O8/c1-7-18(2)13-14-30(6)19(3)15-26(34)31-24(28(36-20(4)32)39-29(31)37-21(5)33)16-23(17-25(30)31)38-27(35)22-11-9-8-10-12-22/h7-13,16,19,23,25-26,28-29,34H,1,14-15,17H2,2-6H3/b18-13+/t19-,23+,25+,26+,28+,29+,30-,31-/m0/s1

>  <standard_inchi_key>  (1298) 
VTZWGFLNNUDMPY-VNROGJGASA-N

>  <name>  (1298) 
nan

>  <iupac_name>  (1298) 
[(1~{S},3~{S},5~{S},6~{a}~{R},7~{S},8~{S},10~{R},10~{a}~{R})-1,3-diacetoxy-10-hydroxy-7,8-dimethyl-7-[(2~{E})-3-methylpenta-2,4-dienyl]-1,3,5,6,6~{a},8,9,10-octahydrobenzo[d]isobenzofuran-5-yl] benzoate

>  <annotation_level>  (1298) 
5

>  <total_atom_count>  (1298) 
77

>  <heavy_atom_count>  (1298) 
39

>  <molecular_weight>  (1298) 
538.64

>  <exact_molecular_weight>  (1298) 
538.25667

>  <molecular_formula>  (1298) 
C31H38O8

>  <alogp>  (1298) 
4.88

>  <topological_polar_surface_area>  (1298) 
108.36

>  <rotatable_bond_count>  (1298) 
7

>  <hydrogen_bond_acceptors>  (1298) 
8

>  <hydrogen_bond_donors>  (1298) 
1

>  <hydrogen_bond_acceptors_lipinski>  (1298) 
8

>  <hydrogen_bond_donors_lipinski>  (1298) 
1

>  <lipinski_rule_of_five_violations>  (1298) 
1

>  <aromatic_rings_count>  (1298) 
1

>  <qed_drug_likeliness>  (1298) 
0.23

>  <formal_charge>  (1298) 
0

>  <fractioncsp3>  (1298) 
0.52

>  <number_of_minimal_rings>  (1298) 
4

>  <van_der_walls_volume>  (1298) 
496.34

>  <contains_sugar>  (1298) 
False

>  <contains_ring_sugars>  (1298) 
False

>  <contains_linear_sugars>  (1298) 
False

>  <murcko_framework>  (1298) 
O1CC2=CC(OCc3ccccc3)CC4CCCCC24C1

>  <np_likeness>  (1298) 
3.08

>  <chemical_class>  (1298) 
Prenol lipids

>  <chemical_sub_class>  (1298) 
Diterpenoids

>  <chemical_super_class>  (1298) 
Lipids and lipid-like molecules

>  <direct_parent_classification>  (1298) 
Colensane and clerodane diterpenoids

>  <np_classifier_pathway>  (1298) 
Terpenoids

>  <np_classifier_superclass>  (1298) 
Diterpenoids

>  <np_classifier_class>  (1298) 
Colensane and Clerodane diterpenoids

>  <np_classifier_is_glycoside>  (1298) 
True

>  <organisms>  (1298) 
Casearia obliqua

>  <collections>  (1298) 
ChemSpider NPs|Latin America dataset|NuBBEDB|WikiData Natural Products

>  <dois>  (1298) 
10.1021/NP9004079|10.1021/np9004079

>  <synonyms>  (1298) 
Rel-6\u221a\u00e9\u00ac\u2264-hydroxyzuelanin-2\u221a\u00e9\u00ac\u2264-benzoate

>  <cas>  (1298) 
nan

$$$$

     RDKit          2D

 19 21  0  0  0  0  0  0  0  0999 V2000
   -5.6260   -0.2723    0.0000 C   0  0  0  0  0  0  0  0  0  0  0  0
   -4.2076   -0.7602    0.0000 O   0  0  0  0  0  0  0  0  0  0  0  0
   -3.0759    0.2242    0.0000 C   0  0  0  0  0  0  0  0  0  0  0  0
   -3.3625    1.6966    0.0000 C   0  0  0  0  0  0  0  0  0  0  0  0
   -2.2308    2.6810    0.0000 C   0  0  0  0  0  0  0  0  0  0  0  0
   -0.8123    2.1931    0.0000 C   0  0  0  0  0  0  0  0  0  0  0  0
   -0.5257    0.7208    0.0000 C   0  0  0  0  0  0  0  0  0  0  0  0
   -1.6574   -0.2637    0.0000 C   0  0  0  0  0  0  0  0  0  0  0  0
   -1.3708   -1.7360    0.0000 N   0  0  0  0  0  0  0  0  0  0  0  0
    0.0477   -2.2239    0.0000 C   0  0  0  0  0  0  0  0  0  0  0  0
    0.3344   -3.6963    0.0000 O   0  0  0  0  0  0  0  0  0  0  0  0
    1.1794   -1.2395    0.0000 C   0  0  0  0  0  0  0  0  0  0  0  0
    0.8928    0.2329    0.0000 C   0  0  0  0  0  0  0  0  0  0  0  0
    2.0245    1.2173    0.0000 O   0  0  0  0  0  0  0  0  0  0  0  0
    3.4429    0.7294    0.0000 C   0  0  0  0  0  0  0  0  0  0  0  0
    4.9427    0.7560    0.0000 C   0  0  0  0  0  0  0  0  0  0  0  0
    3.6771    2.2110    0.0000 C   0  0  0  0  0  0  0  0  0  0  0  0
    3.7296   -0.7430    0.0000 C   0  0  0  0  0  0  0  0  0  0  0  0
    2.5979   -1.7274    0.0000 C   0  0  0  0  0  0  0  0  0  0  0  0
  1  2  1  0
  2  3  1  0
  3  4  2  0
  4  5  1  0
  5  6  2  0
  6  7  1  0
  7  8  2  0
  8  9  1  0
  9 10  1  0
 10 11  2  0
 10 12  1  0
 12 13  2  0
 13 14  1  0
 14 15  1  0
 15 16  1  0
 15 17  1  0
 15 18  1  0
 18 19  2  0
  8  3  1  0
 19 12  1  0
 13  7  1  0
M  END
>  <identifier>  (1299) 
CNP0347239.0

>  <canonical_smiles>  (1299) 
COC1=CC=CC2=C1NC(=O)C1=C2OC(C)(C)C=C1

>  <standard_inchi>  (1299) 
InChI=1S/C15H15NO3/c1-15(2)8-7-10-13(19-15)9-5-4-6-11(18-3)12(9)16-14(10)17/h4-8H,1-3H3,(H,16,17)

>  <standard_inchi_key>  (1299) 
YBYSRJYNHOVUKM-UHFFFAOYSA-N

>  <name>  (1299) 
35989-00-5

>  <iupac_name>  (1299) 
7-methoxy-2,2-dimethyl-6~{H}-pyrano[3,2-c]quinolin-5-one

>  <annotation_level>  (1299) 
5

>  <total_atom_count>  (1299) 
34

>  <heavy_atom_count>  (1299) 
19

>  <molecular_weight>  (1299) 
257.29

>  <exact_molecular_weight>  (1299) 
257.10519

>  <molecular_formula>  (1299) 
C15H15NO3

>  <alogp>  (1299) 
2.72

>  <topological_polar_surface_area>  (1299) 
51.32

>  <rotatable_bond_count>  (1299) 
1

>  <hydrogen_bond_acceptors>  (1299) 
3

>  <hydrogen_bond_donors>  (1299) 
1

>  <hydrogen_bond_acceptors_lipinski>  (1299) 
3

>  <hydrogen_bond_donors_lipinski>  (1299) 
1

>  <lipinski_rule_of_five_violations>  (1299) 
0

>  <aromatic_rings_count>  (1299) 
2

>  <qed_drug_likeliness>  (1299) 
0.85

>  <formal_charge>  (1299) 
0

>  <fractioncsp3>  (1299) 
0.27

>  <number_of_minimal_rings>  (1299) 
3

>  <van_der_walls_volume>  (1299) 
229.46

>  <contains_sugar>  (1299) 
False

>  <contains_ring_sugars>  (1299) 
False

>  <contains_linear_sugars>  (1299) 
False

>  <murcko_framework>  (1299) 
O1C=2c3ccccc3NCC2C=CC1

>  <np_likeness>  (1299) 
1.68

>  <chemical_class>  (1299) 
Quinolines and derivatives

>  <chemical_sub_class>  (1299) 
Quinolones and derivatives

>  <chemical_super_class>  (1299) 
Organoheterocyclic compounds

>  <direct_parent_classification>  (1299) 
Pyranoquinolines

>  <np_classifier_pathway>  (1299) 
Alkaloids

>  <np_classifier_superclass>  (1299) 
Tryptophan alkaloids

>  <np_classifier_class>  (1299) 
Quinoline alkaloids

>  <np_classifier_is_glycoside>  (1299) 
False

>  <organisms>  (1299) 
Andreadoxa flava|Calycophyllum spruceanum|Dictyoloma vandellianum|Myrtopsis microcarpa|Neoraputia paraensis|Teclea nobilis|Zanthoxylum monophyllum

>  <collections>  (1299) 
KNApSaCK|Latin America dataset|NAPRORE-CR|NuBBEDB|UNPD (Universal Natural Products Database)

>  <dois>  (1299) 
10.1016/S0031-9422(03)00006-2

>  <synonyms>  (1299) 
7-methoxy-2,2-dimethyl-6H-pyrano[3,2-c]quinolin-5-one|8-Methoxyflindersine|8-O-Tigloyldiderroside|CHEMBL3973957|FS-10645

>  <cas>  (1299) 
nan

$$$$

     RDKit          2D

 26 31  0  0  0  0  0  0  0  0999 V2000
   -3.5976    1.3936    0.0000 C   0  0  0  0  0  0  0  0  0  0  0  0
   -5.0361    1.8185    0.0000 C   0  0  0  0  0  0  0  0  0  0  0  0
   -6.1234    0.7852    0.0000 C   0  0  0  0  0  0  0  0  0  0  0  0
   -5.7721   -0.6731    0.0000 C   0  0  0  0  0  0  0  0  0  0  0  0
   -4.3336   -1.0981    0.0000 C   0  0  0  0  0  0  0  0  0  0  0  0
   -3.2463   -0.0647    0.0000 C   0  0  0  0  0  0  0  0  0  0  0  0
   -1.8078   -0.4897    0.0000 C   0  0  0  0  0  0  0  0  0  0  0  0
   -1.3060   -1.9033    0.0000 O   0  0  0  0  0  0  0  0  0  0  0  0
    0.1935   -1.8629    0.0000 C   0  0  0  0  0  0  0  0  0  0  0  0
    0.6184   -0.4243    0.0000 C   0  0  0  0  0  0  0  0  0  0  0  0
   -0.6184    0.4243    0.0000 C   0  0  0  0  0  0  0  0  0  0  0  0
   -0.1935    1.8629    0.0000 C   0  0  0  0  0  0  0  0  0  0  0  0
    1.3060    1.9033    0.0000 O   0  0  0  0  0  0  0  0  0  0  0  0
    1.8078    0.4897    0.0000 C   0  0  0  0  0  0  0  0  0  0  0  0
    3.2463    0.0647    0.0000 C   0  0  0  0  0  0  0  0  0  0  0  0
    3.5976   -1.3936    0.0000 C   0  0  0  0  0  0  0  0  0  0  0  0
    5.0361   -1.8185    0.0000 C   0  0  0  0  0  0  0  0  0  0  0  0
    6.1234   -0.7852    0.0000 C   0  0  0  0  0  0  0  0  0  0  0  0
    7.6189   -0.9017    0.0000 O   0  0  0  0  0  0  0  0  0  0  0  0
    8.1919    0.4845    0.0000 C   0  0  0  0  0  0  0  0  0  0  0  0
    7.0505    1.4578    0.0000 O   0  0  0  0  0  0  0  0  0  0  0  0
    5.7721    0.6731    0.0000 C   0  0  0  0  0  0  0  0  0  0  0  0
    4.3336    1.0981    0.0000 C   0  0  0  0  0  0  0  0  0  0  0  0
   -7.0505   -1.4578    0.0000 O   0  0  0  0  0  0  0  0  0  0  0  0
   -8.1919   -0.4845    0.0000 C   0  0  0  0  0  0  0  0  0  0  0  0
   -7.6189    0.9017    0.0000 O   0  0  0  0  0  0  0  0  0  0  0  0
  1  2  2  0
  2  3  1  0
  3  4  2  0
  4  5  1  0
  5  6  2  0
  7  6  1  6
  7  8  1  0
  8  9  1  0
 10  9  1  1
 10 11  1  0
 11 12  1  1
 12 13  1  0
 13 14  1  0
 14 15  1  1
 15 16  2  0
 16 17  1  0
 17 18  2  0
 18 19  1  0
 19 20  1  0
 20 21  1  0
 21 22  1  0
 22 23  2  0
  4 24  1  0
 24 25  1  0
 25 26  1  0
  6  1  1  0
 11  7  1  0
 23 15  1  0
 26  3  1  0
 14 10  1  0
 22 18  1  0
M  END
>  <identifier>  (1300) 
CNP0123354.4

>  <canonical_smiles>  (1300) 
C1=CC2=C(C=C1[C@H]1OC[C@H]3[C@@H]1CO[C@H]3C1=CC=C3OCOC3=C1)OCO2

>  <standard_inchi>  (1300) 
InChI=1S/C20H18O6/c1-3-15-17(25-9-23-15)5-11(1)19-13-7-22-20(14(13)8-21-19)12-2-4-16-18(6-12)26-10-24-16/h1-6,13-14,19-20H,7-10H2/t13-,14-,19-,20+/m0/s1

>  <standard_inchi_key>  (1300) 
PEYUIKBAABKQKQ-WZBLMQSHSA-N

>  <name>  (1300) 
133-05-1

>  <iupac_name>  (1300) 
5-[(3~{S},3~{a}~{R},6~{R},6~{a}~{R})-3-(1,3-benzodioxol-5-yl)-1,3,3~{a},4,6,6~{a}-hexahydrofuro[3,4-c]furan-6-yl]-1,3-benzodioxole

>  <annotation_level>  (1300) 
5

>  <total_atom_count>  (1300) 
44

>  <heavy_atom_count>  (1300) 
26

>  <molecular_weight>  (1300) 
354.36

>  <exact_molecular_weight>  (1300) 
354.11034

>  <molecular_formula>  (1300) 
C20H18O6

>  <alogp>  (1300) 
3.22

>  <topological_polar_surface_area>  (1300) 
55.38

>  <rotatable_bond_count>  (1300) 
2

>  <hydrogen_bond_acceptors>  (1300) 
6

>  <hydrogen_bond_donors>  (1300) 
0

>  <hydrogen_bond_acceptors_lipinski>  (1300) 
6

>  <hydrogen_bond_donors_lipinski>  (1300) 
0

>  <lipinski_rule_of_five_violations>  (1300) 
0

>  <aromatic_rings_count>  (1300) 
2

>  <qed_drug_likeliness>  (1300) 
0.83

>  <formal_charge>  (1300) 
0

>  <fractioncsp3>  (1300) 
0.40

>  <number_of_minimal_rings>  (1300) 
6

>  <van_der_walls_volume>  (1300) 
298.25

>  <contains_sugar>  (1300) 
False

>  <contains_ring_sugars>  (1300) 
False

>  <contains_linear_sugars>  (1300) 
False

>  <murcko_framework>  (1300) 
O1c2ccc(cc2OC1)C3OCC4C(OCC34)c5ccc6OCOc6c5

>  <np_likeness>  (1300) 
0.75

>  <chemical_class>  (1300) 
Furanoid lignans

>  <chemical_sub_class>  (1300) 
Furan lignans

>  <chemical_super_class>  (1300) 
Lignans, neolignans and related compounds

>  <direct_parent_classification>  (1300) 
Furan lignans

>  <np_classifier_pathway>  (1300) 
Shikimates and Phenylpropanoids

>  <np_classifier_superclass>  (1300) 
Lignans

>  <np_classifier_class>  (1300) 
Furofuranoid lignans

>  <np_classifier_is_glycoside>  (1300) 
False

>  <organisms>  (1300) 
Acanthopanax gracilistylus|Acanthopanax sessiliflorum|Andaliman|Asarum heterotropoides|Asarum heterotropoides var. mandshuricum|Asarum sieboldii|Asiasarum heterotropoides|Asiasarum sieboldii|Boronia bowmanii|Bunodactis xanthogrammica|Cinnamomum camphora|Cnidoscolus texanus|Daphne kiusiana|Diospyros montana|Dryobalanops camphora|Eremophila calorhabdos|Eremophila phyllopoda|Euglena sanguinea|Flaveria bidentis|Horsfieldia irya|Horsfieldia iryaghedhi|Hymenaea oblongifolia|Knema austrosiamensis|Kryptoperidinium foliaceum|Lespedeza cyrtobotrya|Lindera obtusiloba|Lindera praecox|Lophocolea bidentata|Magnolia Coco|Magnolia coco|Melicope elleryana|Opisthoplatia orientalis|Pilocarpus trachylophus|Piper mullesua|Podadenia thwaitesii|Psilocybe mexicana|Ptelea crenulata|Raulinoa echinata|Samadera bidwillii|Sansevieria ehrenbergii|Teucrium fragile|Trichilia dregeana|Uvaria ferruginea|Veronica anagallis-aquatica|Virola|Virola surinamensis|Zanthoxylum Armatum|Zanthoxylum ailanthoides|Zanthoxylum armatum|Zanthoxylum beecheyanum|Zanthoxylum limoncello|Zanthoxylum monophyllum|Zanthoxylum nitidum|Zanthoxylum rigidum|sesame

>  <collections>  (1300) 
AnalytiCon Discovery NPs|Australian natural products|CMAUP (cCollective molecular activities of useful plants)|GNPS (Global Natural Products Social Molecular Networking)|KNApSaCK|Latin America dataset|Mitishamba database|NAPRORE-CR|NPASS|NPEdia|NuBBEDB|Super Natural II|TCMDB-Taiwan (Traditional Chinese Medicine database)|TIPdb (database of Taiwan indigenous plants)|VietHerb|WikiData Natural Products

>  <dois>  (1300) 
10.1002/1099-1565(200101/02)12:1<64::AID-PCA562>3.0.CO,2-3|10.1002/CBDV.200800107|10.1002/JCCS.199800116|10.1002/JCCS.200400159|10.1002/JHRC.1240090712|10.1007/BF02266969|10.1016/0031-9422(82)83106-3|10.1016/0031-9422(88)80479-5|10.1016/0031-9422(88)80760-X|10.1016/0031-9422(95)00852-7|10.1016/J.BMCL.2012.01.136|10.1016/J.FOODCHEM.2010.09.069|10.1016/S0031-9422(00)95010-6|10.1016/S0031-9422(00)95299-3|10.1016/S0031-9422(96)00708-X|10.1016/S0031-9422(97)00152-0|10.1016/S0031-9422(97)00199-4|10.1016/S0367-326X(00)00297-5|10.1016/j.bmcl.2012.01.136|10.1016/s0031-9422(97)00152-0|10.1021/NP800689B|10.1021/NP9702953|10.1021/NP970571D|10.1021/NP980224J|10.1071/CH9540384|10.1071/CH9871913|10.1177/1934578X0600100104|10.1271/BBB1961.54.2669|10.3892/IJMM.6.1.43

>  <synonyms>  (1300) 
(+)-Asarinin|(+)-Episesamin|(-)-ASARININ  97|(-)-Asarinin, >=98% (HPLC)|(1R,3aR,4S,6aR)-1,4-di(benzo[d][1,3]dioxol-5-yl)hexahydrofuro[3,4-c]furan|1,3-BENZODIOXOLE, 5,5'-((1R,3AR,4S,6AR)-TETRAHYDRO-1H,3H-FURO(3,4-C)FURAN-1,4-DIYL)BIS-, REL-|1,3-BENZODIOXOLE, 5,5'-(TETRAHYDRO-1H,3H-FURO(3,4-C)FURAN-1,4-DIYL)BIS-, (1.ALPHA.,3A.ALPHA.,4.BETA.,6A.ALPHA.)-|1,3-Benzodioxole, 5,5'-(tetrahydro-1H,3H-furo(3,4-c)furan-1,4-diyl)bis-, (+)-|1,3-Benzodioxole, 5,5'-(tetrahydro-1H,3H-furo(3,4-c)furan-1,4-diyl)bis-, (1alpha,3a alpha,4beta,6a alpha)-|1,3-Benzodioxole, 5,5'-[(1R,3aR,4S,6aR)-tetrahydro-1H,3H-furo[3,4-c]furan-1,4-diyl]bis-, rel-|1-Asarinine|133-03-9|1H,3H-FURO(3,4-C)FURAN, 3A.BETA.,4,6,6A.BETA.-TETRAHYDRO-1.ALPHA.,4.BETA.-BIS(3,4-(METHYLENEDIOXY)PHENYL)-, (+)-|5,5'-(tetrahydro-1H,3H-furo[3,4-c]furan-1,4-diyl)bis(1,3-benzodioxole)|5-[(1R,3aR,4S,6aR)-4-(2H-1,3-benzodioxol-5-yl)-hexahydrofuro[3,4-c]furan-1-yl]-2H-1,3-benzodioxole|5-[(3R,3aR,6S,6aR)-3-(1,3-benzodioxol-5-yl)-1,3,3a,4,6,6a-hexahydrofuro[3,4-c]fu|5-[(3R,3aR,6S,6aR)-3-(1,3-benzodioxol-5-yl)-1,3,3a,4,6,6a-hexahydrofuro[3,4-c]furan-6-yl]-1,3-benzodioxole|ACon1_000986|AI 3-21202|AI3-00810|AKOS040750231|AS-76837|ASARININ (-)|ASARININ D-FORM [MI]|ASARININ, (+\/-)-|Asarinin|Asarinin, (+)-|BDBM50101976|BSPBio_002743|C3RVX72NMG|CCG-39667|CHEMBL43469|D-asarinin|D85162|DTXSID201033462|DivK1c_007054|Episesamin|F6PWY73ZGT|HMS2223C09|Isosesamin|KBio1_001998|KBio2_002036|KBio2_004604|KBio2_007172|KBio3_002243|KBioGR_002110|KBioSS_002036|MEGxp0_001224|MLS002473313|NCGC00017230-01|NCGC00169785-01|NSC 31773|NSC-31773|SCHEMBL976772|SDCCGMLS-0066831.P001|SMR001397394|SPBio_000701|SPECTRUM1504180|SpecPlus_000958|Spectrum2_000811|Spectrum3_001162|Spectrum4_001725|Spectrum5_000490|Spectrum_001556|TNP00112|UNII-C3RVX72NMG|UNII-F6PWY73ZGT|asarinin (-)

>  <cas>  (1300) 
133-03-9

$$$$

     RDKit          2D

 21 23  0  0  0  0  0  0  0  0999 V2000
   -6.2145   -0.6168    0.0000 C   0  0  0  0  0  0  0  0  0  0  0  0
   -4.9455   -1.4166    0.0000 O   0  0  0  0  0  0  0  0  0  0  0  0
   -3.6183   -0.7175    0.0000 C   0  0  0  0  0  0  0  0  0  0  0  0
   -3.5602    0.7814    0.0000 C   0  0  0  0  0  0  0  0  0  0  0  0
   -2.2331    1.4805    0.0000 C   0  0  0  0  0  0  0  0  0  0  0  0
   -2.1750    2.9794    0.0000 O   0  0  0  0  0  0  0  0  0  0  0  0
   -0.9641    0.6807    0.0000 C   0  0  0  0  0  0  0  0  0  0  0  0
    0.3630    1.3798    0.0000 C   0  0  0  0  0  0  0  0  0  0  0  0
    0.4212    2.8787    0.0000 O   0  0  0  0  0  0  0  0  0  0  0  0
    1.6320    0.5801    0.0000 C   0  0  0  0  0  0  0  0  0  0  0  0
    2.9592    1.2792    0.0000 C   0  0  0  0  0  0  0  0  0  0  0  0
    3.0173    2.7780    0.0000 O   0  0  0  0  0  0  0  0  0  0  0  0
    4.2282    0.4794    0.0000 C   0  0  0  0  0  0  0  0  0  0  0  0
    4.1700   -1.0195    0.0000 C   0  0  0  0  0  0  0  0  0  0  0  0
    5.4390   -1.8193    0.0000 C   0  0  0  0  0  0  0  0  0  0  0  0
    2.8429   -1.7186    0.0000 C   0  0  0  0  0  0  0  0  0  0  0  0
    1.5739   -0.9188    0.0000 C   0  0  0  0  0  0  0  0  0  0  0  0
    0.2468   -1.6179    0.0000 C   0  0  0  0  0  0  0  0  0  0  0  0
    0.1887   -3.1168    0.0000 O   0  0  0  0  0  0  0  0  0  0  0  0
   -1.0222   -0.8181    0.0000 C   0  0  0  0  0  0  0  0  0  0  0  0
   -2.3493   -1.5173    0.0000 C   0  0  0  0  0  0  0  0  0  0  0  0
  1  2  1  0
  2  3  1  0
  3  4  2  0
  4  5  1  0
  5  6  1  0
  5  7  2  0
  7  8  1  0
  8  9  2  0
  8 10  1  0
 10 11  2  0
 11 12  1  0
 11 13  1  0
 13 14  2  0
 14 15  1  0
 14 16  1  0
 16 17  2  0
 17 18  1  0
 18 19  2  0
 18 20  1  0
 20 21  2  0
 21  3  1  0
 20  7  1  0
 17 10  1  0
M  END
>  <identifier>  (1301) 
CNP0320181.0

>  <canonical_smiles>  (1301) 
COC1=CC(O)=C2C(=O)C3=C(O)C=C(C)C=C3C(=O)C2=C1

>  <standard_inchi>  (1301) 
InChI=1S/C16H12O5/c1-7-3-9-13(11(17)4-7)16(20)14-10(15(9)19)5-8(21-2)6-12(14)18/h3-6,17-18H,1-2H3

>  <standard_inchi_key>  (1301) 
FFWOKTFYGVYKIR-UHFFFAOYSA-N

>  <name>  (1301) 
Physcion

>  <iupac_name>  (1301) 
1,8-dihydroxy-3-methoxy-6-methyl-anthracene-9,10-dione

>  <annotation_level>  (1301) 
5

>  <total_atom_count>  (1301) 
33

>  <heavy_atom_count>  (1301) 
21

>  <molecular_weight>  (1301) 
284.27

>  <exact_molecular_weight>  (1301) 
284.06847

>  <molecular_formula>  (1301) 
C16H12O5

>  <alogp>  (1301) 
2.19

>  <topological_polar_surface_area>  (1301) 
83.83

>  <rotatable_bond_count>  (1301) 
1

>  <hydrogen_bond_acceptors>  (1301) 
5

>  <hydrogen_bond_donors>  (1301) 
2

>  <hydrogen_bond_acceptors_lipinski>  (1301) 
5

>  <hydrogen_bond_donors_lipinski>  (1301) 
2

>  <lipinski_rule_of_five_violations>  (1301) 
0

>  <aromatic_rings_count>  (1301) 
2

>  <qed_drug_likeliness>  (1301) 
0.72

>  <formal_charge>  (1301) 
0

>  <fractioncsp3>  (1301) 
0.13

>  <number_of_minimal_rings>  (1301) 
3

>  <van_der_walls_volume>  (1301) 
240.20

>  <contains_sugar>  (1301) 
False

>  <contains_ring_sugars>  (1301) 
False

>  <contains_linear_sugars>  (1301) 
False

>  <murcko_framework>  (1301) 
c1ccc2c(c1)Cc3ccccc3C2

>  <np_likeness>  (1301) 
0.92

>  <chemical_class>  (1301) 
Anthracenes

>  <chemical_sub_class>  (1301) 
Anthraquinones

>  <chemical_super_class>  (1301) 
Benzenoids

>  <direct_parent_classification>  (1301) 
Anthraquinones

>  <np_classifier_pathway>  (1301) 
Polyketides

>  <np_classifier_superclass>  (1301) 
Polycyclic aromatic polyketides

>  <np_classifier_class>  (1301) 
Anthraquinones and anthrones

>  <np_classifier_is_glycoside>  (1301) 
False

>  <organisms>  (1301) 
Abies pectinata|Abrus pulchellus|Abutilon grandiflorum|Achromobacter denitrificans|Achyranthes bidentata|Aconitum seravschanicum|Aconitum tasiromontanum|Acorus gramineus|Acorus tatarinowii|Adalia bipunctata|Adansonia grandidieri|Aframomum giganteum|Ageratina altissima|Aizopsis selskiana|Albizia myriophylla|Alternaria porri|Alvaradoa jamaicensis|Amanita phalloides|Amphorogyne spicata|Amsinckia intermedia|Anaphalis lactea|Anchusa azurea|Andrographis neesiana|Aniba parviflora|Annona montana|Aphyllocladus denticulatus|Aplophyllum myrtifolium|Arabidopsis lyrata subsp. lyrata|Aristolochia birostris|Artemisia annua|Aspergillus alliaceus|Aspergillus chevalieri|Aspergillus flavus|Aspergillus fumigatus|Aspergillus glaucus|Aspergillus ruber|Aspergillus terreus|Aspergillus wentii|Aster sedifolius|Aster tataricus|Athelia rolfsii|Baccharis potosina|Balanophora laxiflora|Bassia muricata|Benincasa hispida|Berchemia Floribunda|Berchemia discolor|Berchemia floribunda|Bergenia hissarica|Betula davurica|Bipolaris heveae|Bistorta elliptica|Bletilla striata|Boehmeria nivea|Bourreria pulchra|Brassica rapa|Cajanus cajan|Calogaya pusilla|Caloplaca fulgens|Canarium bengalense|Carduus tenuiflorus|Carex brevicollis|Carlina diae|Cassia|Cassia Obtusifolia|Cassia Occidentalis|Cassia Tora|Cassia acutifolia|Cassia angustifolia|Cassia artemisioides|Cassia fistula|Cassia floribunda|Cassia grandis|Cassia javanica|Cassia nodosa|Cassia nomae|Cassia obtusifolia|Cassia occidentalis|Cassia renigera|Cassia sp.|Cassia tora|Cassia torosa L.|Caulerpa peltata|Caulocystis cephalornithos|Chaetomium carinthiacum|Chaetomium globosum|Chaiturus marrubiastrum|Chamaecrista glandulosa var. glandulosa|Chamaecrista greggii|Cheilanthes argentea|Cichorium intybus|Copaifera reticulata|Coreopsis tinctoria|Cortinarius basirubescens|Cortinarius canarius|Cortinarius rufo-olivaceus|Cortinarius sanguineus|Corydalis suaveolens|Coryphantha ottonis|Cranfillia fluviatilis|Cratoxylum arborescens|Cratoxylum formosum|Cremastra appendiculata|Cryptolepis nigrescens|Cynanchum viminale|Cytophaga hutchinsoni|Dalbergia lanceolaria subsp. paniculata|Degenia velebitica|Delia arenicola|Delphinium nuttallianum|Delphinium virgatum|Dendriopoterium menendezii|Dendrobium candidum|Dendrobium chrysanthum|Dendrobium chrysotoxum|Dendrobium fimbriatum|Dendrobium loddigesii|Dendrobium nobile|Dendrobium thyrsiflorum|Dermocybe|Dermocybe canaria|Derris canarensis|Derris cuneifolia|Derris oblonga|Diatraea saccharalis|Dictyopteris australis|Didymocarpus albicalyx|Dillenia indica|Dipsacus azureus|Dodonaea viscosa|Dysosma versipellis|Dysoxylum cumingianum|Dysoxylum muelleri|Elymus repens|Enceliopsis argophylla|Endothia longirostris|Entodon luridus|Epichloe festucae var. lolii|Eria mollis|Eriocheir sinensis|Erythrophleum ivorense|Euodia bodinieri|Euodia officinalis|Euodia ruticarpa|Eupatorium cannabinum|Euphorbia aellenii|Euphorbia franchetii|Evodia rutaecarpa|Fagopyrum esculentum|Fallopia multiflora|Fallopia sp.|Fibraurea tinctoria|Flacourtia jangomas|Frangula alnus Mill.|Frangula purshiana|Fridericia triplinervia|Gadus morhua callarias|Garcinia polyantha|Gleichenia quadripartita|Grangea maderaspatana|Gynochthodes officinalis|Halorhodospira halochloris|Harrisonia perforata|Harungana madagascariensis|Harungana sp.|Helichrysum chionosphaerum|Hincksinoflustra denticulata|Hymenoxys lemmonii|Inula salsoloides|Ipomoea muelleri|Isaria fumosorosea|Isodon rubescens|Jacquemontia paniculata|Justicia secunda|Laccaria amethystea|Lactuca plumieri|Lanaria lanata|Lavandula vera|Lecanora sordida|Lendenfeldia frondosa|Leopoldia comosa|Leptocereus quadricostatus|Lespedeza tomentosa|Leucosceptrum canum|Liabum bourgeaui|Limonia acidissima|Lobelia camporum|Loranthus pentandrus|Lupinus corymbosus|Maclura tinctoria|Maesopsis eminii|Magnolia figo|Magnolia ovata|Mandragora autumnalis|Melicope triphylla|Mentha arvensis|Mentha canadensis|Metrodorea nigra|Miliusa velutina|Millettia leucantha|Millettia vatkei|Mimusops globosa|Morinda Citrifolia|Morinda Officinalis|Morinda citrifolia|Morinda citrifolia L.|Morinda officinalis|Mycocepurus goeldii|Nekemias grossedentata|Neobalanocarpus heimii|Nepeta granatensis|Nepeta parnassica|Nephromopsis cucullata|Nuxia floribunda|Ocotea macrophylla|Oncoba welwitschii|Onobrychis arenaria|Oophaga granulifera|Oryctes monoceros|Oryza aristata|Oryza sativa|Parkia biglandulosa|Parmelia alpicola|Penicillium bilaiae|Penicillium charlesii|Penicillium dierckxii|Penicillium herquei|Penicillium megasporum|Penicillium shearii|Persicaria hydropiper|Petunia integrifolia subsp. inflata|Phialophora asteris|Phlogacanthus curviflorus|Phlomis rigida|Photinia serratifolia|Physalis alkekengi|Pinalia stricta|Pisum sativum|Plantago lanceolata|Pleione bulbocodioides|Pleione yunnanensis|Pluchea odora|Pluchea sericea|Pneumatopteris pennigera|Polygonaceae|Polygonum Cuspidatum|Polygonum Multiflorum|Polygonum cuspidatum|Polygonum hypoleucum|Polygonum multiflorum|Polygonum polystachyum Meisn.|Polygonum sp.|Polyporus betulinus|Polyporus umbellatus|Polysiphonia stricta|Polysiphonia urceolata|Poterium sanguisorba|Pristimera indica|Prunus japonica|Pseudodistoma novaezelandiae|Psorospermum androsaemifolium|Psorospermum laurentii|Psychotria stachyoides|Quercus rubra|Quercus variabilis|Radix moghaniae philippinensis|Radix polygoni multiflori preparata|Ramalina hierrensis|Rattus rattus|Ravenia spectabilis|Reynoutria sachalinensis|Rhamnus|Rhamnus alpina L.|Rhamnus cathartica|Rhamnus cathartica L.|Rhamnus formosana|Rhamnus hirtellus|Rhamnus kurdica|Rhamnus kurdicus|Rhamnus nakaharae|Rhamnus nepalensis|Rhamnus prinoides|Rhamnus procumbens|Rhamnus pumila Turra|Rhamnus punctatus|Rhamnus saxarilis Jacq.|Rhamnus sp.|Rhamnus virgata|Rhamnus wightii|Rheum|Rheum Palmatum|Rheum acuminatum|Rheum alexandrae|Rheum altaicum|Rheum australe|Rheum compactum|Rheum coreanum|Rheum delavayi|Rheum emodi|Rheum franzenbachii|Rheum hotaoense|Rheum inopinatum|Rheum kialense|Rheum likiangense|Rheum maximowiczii|Rheum nanum|Rheum nobile|Rheum officinale|Rheum palmatum|Rheum pumilum|Rheum racemiferum|Rheum reticulatum|Rheum rhabarbarum L.|Rheum rhaponticum|Rheum ribes|Rheum sp.|Rheum spiciforme|Rheum subacaule|Rheum sublanceolatum|Rheum tanguticum|Rheum tataricum|Rheum undulatum|Rheum uninerve|Rheum webbianum|Rheum wittrockii|Rheum yunnanense|Rhododendron dahuricum|Rhodophyllus icterinus|Rhynchophorus ferrugineus|Rivularia firma|Rosa pomifera|Rosa villosa|Rubia pubescens|Rubus alceifolius|Rumex|Rumex Nepalensis|Rumex abysinicus|Rumex abyssinicus|Rumex acetosa|Rumex acetose L.|Rumex acetosella L. s.l. (R. acetosella L. s.str. and R.acetosella subsp. Pyrenaicus (Lapeyr.) Akeroyd)|Rumex alpestris Jacq.|Rumex alpinus L.|Rumex aquaticus L.|Rumex bequaertii|Rumex chalepensis|Rumex conglomeratus Murray|Rumex crispus|Rumex crispus L.|Rumex cristatus|Rumex dentata|Rumex dentatus|Rumex hydrolapathum Huds.|Rumex hymenosepalus|Rumex japonicus|Rumex lanceolatus|Rumex limoniastrum|Rumex longifolius DC.|Rumex nepalensis|Rumex nivalis Hegetschw.|Rumex obtusifolius L.|Rumex patientia|Rumex patientia L.|Rumex pulcher L.|Rumex ruwenzoriensis|Rumex sanguineus L.|Rumex scutatus|Rumex scutatus L.|Rumex thyrsiflorus Fingerh.|Rumex usambarensis|Salvia greggii|Salvia officinalis|Sanguisorba alpina|Sargentodoxa Cuneata|Sargentodoxa cuneata|Saururus chinensis|Saussurea laniceps|Schistostephium artemisiifolium|Scilla socialis|Selaginella labordei|Senecio behnii|Senecio praecox|Senecio subdentatus|Senna alexandrina|Senna corymbosa|Senna didymobotrya|Senna gaudichaudii|Senna italica|Senna lindheimeriana|Senna longiracemosa|Senna macranthera var. pudibunda|Senna multiglandulosa|Senna obtusifolia|Senna occidentalis|Senna petersiana|Senna polyantha|Senna racemosa|Senna septemtrionalis|Senna siamea|Senna singueana|Senna sophera|Senna spectabilis|Senna sulfurea|Senna tora|Senna villosa|Sinocrassula indica|Siphonostegia chinensis|Smilax corbularia|Smythea bombaiensis|Solanum cleistogamum|Solanum linnaeanum|Sphaerella laricina|Sphaerella rosigena|Stachybotrys microspora|Stephanitis takeyai|Stevia berlandieri|Sticta mougeotiana|Streptomyces piomogenus|Syzygium australe|Tagetes filifolia|Tanacetum coccineum|Taraxacum platycarpum subsp. hondoense|Teloschistes flavicans|Teucrium yemense|Thapsia transtagana|Thryptomene kochii|Thymelaea hirsuta|Toxicopueraria peduncularis|Tribulus terrestris|Tricholoma portentosum|Tricholomopsis rutilans|Turbo cornutus|Uncaria lancifolia|Uncaria rhynchophylla|Uvaria afzelii|Valeriana cardamines|Ventilago calyculata|Ventilago denticulata|Ventilago leiocarpa|Ventilago maderaspatana|Ventilago madraspatana|Verbascum thapsiforme|Viburnum rhytidophyllum|Vismia cayennensis|Vismia guianensis|Vismia guineensis|Vismia japurensis|Vismia latifolia|Vismia laurentii|Vismia pentagyna|Vitis vinifera|Wikstroemia monticola|Xalocoa ocellata|Xanthium strumarium var. canadense|Xanthoceras sorbifolium|Xanthoparmelia|Xanthoria elegans|Xerochrysum viscosum|Xylaria longiana|Zanthoxylum acanthopodium|endophytic aspergillus|lettuce|rhubarb|rumex plants

>  <collections>  (1301) 
ANPDB|AnalytiCon Discovery NPs|Australian natural products|CMAUP (cCollective molecular activities of useful plants)|ChemSpider NPs|ConMedNP|EMNPD|FooDB|GNPS (Global Natural Products Social Molecular Networking)|HIM (Herbal Ingredients in-vivo Metabolism database)|InflamNat|KNApSaCK|Latin America dataset|Marine Natural Products|NANPDB (Natural Products from Northern African Sources)|NPASS|NPCARE|NPEdia|NuBBEDB|Phyto4Health|PhytoLab phyproof® Reference Substances|SANCDB|Specs Natural Products|StreptomeDB|Super Natural II|TCMDB-Taiwan (Traditional Chinese Medicine database)|TCMID (Traditional Chinese Medicine Integrated Database)|TIPdb (database of Taiwan indigenous plants)|TPPT (Toxic Plants–PhytoToxins)|UEFS (Natural Products Databse of the UEFS)|UNPD (Universal Natural Products Database)|VietHerb|WikiData Natural Products|ZINC NP|p-ANAPL

>  <dois>  (1301) 
10.1002/(SICI)1099-0801(199807/08)12:4<193::AID-BMC729>3.0.CO;2-7|10.1002/(SICI)1099-1565(199903/04)10:2<69::AID-PCA447>3.0.CO;2-4|10.1002/1097-458X(200012)38:12<1027::AID-MRC777>3.0.CO;2-3|10.1002/9780470744307.gat218|10.1002/CHIN.200516156|10.1002/CHIN.200701211|10.1002/CJOC.201190065|10.1002/HLCA.200900460|10.1002/HLCA.201000195|10.1002/JCCS.200100154|10.1002/PTR.2650020109|10.1002/biuz.19840140514|10.1002/food.19880321030|10.1007/BF00630591|10.1007/BF02319565|10.1007/BF02751107|10.1007/BF02976414|10.1007/BF02976693|10.1007/BF02979126|10.1007/S10600-009-9229-X|10.1007/S10600-018-2478-9|10.1007/S12272-011-0603-4|10.1016/0021-9673(96)00141-0|10.1016/0031-9422(73)85047-2|10.1016/0031-9422(80)83030-5|10.1016/0031-9422(80)83103-7|10.1016/0031-9422(81)84067-8|10.1016/0031-9422(82)80041-1|10.1016/0031-9422(83)80170-8|10.1016/0031-9422(88)80037-2|10.1016/0031-9422(89)80145-1|10.1016/0031-9422(90)85356-K|10.1016/0031-9422(91)83502-C|10.1016/0031-9422(91)83762-A|10.1016/0031-9422(91)85027-W|10.1016/0031-9422(91)85139-Q|10.1016/0031-9422(92)80123-V|10.1016/0031-9422(92)80371-K|10.1016/0031-9422(92)80483-U|10.1016/0031-9422(92)83730-M|10.1016/0031-9422(95)00093-M|10.1016/0031-9422(95)00645-1|10.1016/0031-9422(96)00102-1|10.1016/0378-8741(84)90016-3|10.1016/J.BMC.2008.09.023|10.1016/J.BMCL.2004.04.062|10.1016/J.BMCL.2013.04.059|10.1016/J.BMCL.2015.10.014|10.1016/J.BSE.2005.08.004|10.1016/J.EJPS.2012.10.027|10.1016/J.PHYTOCHEM.2005.04.001|10.1016/J.PHYTOCHEM.2008.10.017|10.1016/J.PHYTOCHEM.2010.03.016|10.1016/J.PHYTOL.2009.10.002|10.1016/J.PHYTOL.2009.10.007|10.1016/J.STEROIDS.2018.06.005|10.1016/J.TET.2006.06.003|10.1016/J.TET.2008.05.125|10.1016/J.TIV.2013.11.003|10.1016/S0021-9673(00)94500-X|10.1016/S0021-9673(99)00827-4|10.1016/S0024-3205(97)00937-5|10.1016/S0031-9422(00)00370-8|10.1016/S0031-9422(00)80644-5|10.1016/S0031-9422(00)81145-0|10.1016/S0031-9422(00)81776-8|10.1016/S0031-9422(00)82257-8|10.1016/S0031-9422(00)83481-0|10.1016/S0031-9422(00)84996-1|10.1016/S0031-9422(00)85380-7|10.1016/S0031-9422(00)85747-7|10.1016/S0031-9422(00)86709-6|10.1016/S0031-9422(00)90367-4|10.1016/S0031-9422(00)94783-6|10.1016/S0031-9422(00)95104-5|10.1016/S0031-9422(00)95279-8|10.1016/S0031-9422(00)97427-2|10.1016/S0031-9422(01)00025-5|10.1016/S0031-9422(01)00337-5|10.1016/S0031-9422(01)00341-7|10.1016/S0031-9422(02)00571-X|10.1016/S0031-9422(98)00031-4|10.1016/S0031-9422(98)00325-2|10.1016/S0040-4039(00)97435-5|10.1016/S0278-6915(99)00027-7|10.1016/S0305-1978(00)00014-4|10.1016/S0305-1978(03)00098-X|10.1016/S0367-326X(00)00155-6|10.1016/S0367-326X(01)00280-5|10.1016/S0367-326X(99)00108-2|10.1016/S0378-8741(00)00195-1|10.1016/j.bmcl.2013.04.059|10.1016/j.bmcl.2015.10.014|10.1016/j.ejps.2012.10.027|10.1016/j.fitote.2019.104276|10.1016/j.steroids.2018.06.005|10.1016/s0960-894x(01)00318-3|10.1021/JA01461A018|10.1021/JF00102A014|10.1021/JF00106A023|10.1021/JF049379P|10.1021/JF60226A021|10.1021/JF60232A017|10.1021/NP010030V|10.1021/NP020003K|10.1021/NP0301442|10.1021/NP050407N|10.1021/NP060248N|10.1021/NP060556L|10.1021/NP50034A033|10.1021/NP50037A034|10.1021/NP50041A032|10.1021/NP50047A022|10.1021/NP50057A005|10.1021/NP50069A014|10.1021/NP50084A019|10.1021/NP50085A021|10.1021/NP50111A014|10.1021/NP800303T|10.1021/NP980300I|10.1021/NP990226J|10.1021/np0301442|10.1021/np050407n|10.1021/np50069a014|10.1021/np50083a026|10.1021/np50096a018|10.1021/np980300i|10.1039/A809922G|10.1039/C002773A|10.1039/CT8946500923|10.1039/CT9109700001|10.1039/J39700001285|10.1039/P19720002406|10.1039/P19950000645|10.1042/BJ0980112|10.1046/j.1365-3156.1997.d01-242.x|10.1055/S-0028-1097385|10.1055/S-0028-1097398|10.1055/S-0028-1097458|10.1055/S-0028-1097612|10.1055/S-0028-1100044|10.1055/S-0028-1101597|10.1055/S-0030-1249779|10.1055/S-0036-1578747|10.1055/S-2002-34918|10.1055/S-2006-951725|10.1055/S-2006-960945|10.1055/S-2006-961433|10.1055/S-2006-962322|10.1055/S-2007-969640|10.1055/S-2007-971241|10.1055/S-2008-1074562|10.1055/S-2008-1074581|10.1071/CH98172|10.1071/ch9550290|10.1076/PHBI.38.5.321.5965|10.1080/00021369.1975.10861943|10.1080/00021369.1982.10865350|10.1080/10286020.2010.534081|10.1080/1028602031000082016|10.1080/13693780802307720|10.1111/J.2042-7158.2010.01151.X|10.1248/BPB.28.2158|10.1248/BPB.30.2207|10.1248/CPB.20.2727|10.1248/CPB.32.3075|10.1248/CPB.32.860|10.1248/CPB.33.4912|10.1248/CPB.37.621|10.1248/CPB.42.2588|10.1248/CPB.43.274|10.1248/CPB.47.1121|10.1248/CPB.47.1404|10.1248/CPB.53.1597|10.1248/CPB.55.1476|10.1248/CPB.55.1640|10.1248/CPB.56.1248|10.1248/CPB.6.397|10.1248/YAKUSHI1947.106.4_302|10.1248/YAKUSHI1947.108.12_1215|10.1515/ZNB-1969-0927|10.1515/ZNB-2005-0916|10.1515/ZNC-1997-9-1014|10.1515/ZNC-2000-3-410|10.1515/ZNC-2002-9-1003|10.1556/018.68.2017.2.10|10.17660/ACTAHORTIC.1996.426.7|10.18052/WWW.SCIPRESS.COM/ILCPA.14.146|10.21608/BFSA.1985.75705|10.21608/BFSA.1988.73506|10.21608/BFSA.1989.72063|10.2306/scienceasia1513-1874.1982.08.163|10.25258/IJPAPR.V9I1.8041|10.3109/13880209209053982|10.3109/13880209309082938|10.3109/13880209409082974|10.3109/13880209409082976|10.3390/MOLECULES14010573|10.3390/MOLECULES14062049|10.3390/MOLECULES16021201|10.3390/MOLECULES16031917|10.3987/COM-92-6288|10.3987/COM-95-7069|10.3987/COM-95-7348|10.3987/COM-95-7370|10.4268/CJCMM20150419|10.4268/CJCMM20161809|10.4314/BCSE.V11I1.21010

>  <synonyms>  (1301) 
nan

>  <cas>  (1301) 
521-61-9

$$$$

     RDKit          2D

 17 18  0  0  0  0  0  0  0  0999 V2000
   -2.6911   -1.7374    0.0000 C   0  0  0  0  0  0  0  0  0  0  0  0
   -3.1772   -0.3183    0.0000 C   0  0  0  0  0  0  0  0  0  0  0  0
   -3.6632    1.1007    0.0000 C   0  0  0  0  0  0  0  0  0  0  0  0
   -4.5962   -0.8044    0.0000 O   0  0  0  0  0  0  0  0  0  0  0  0
   -1.7581    0.1677    0.0000 C   0  0  0  0  0  0  0  0  0  0  0  0
   -1.4695    1.6397    0.0000 C   0  0  0  0  0  0  0  0  0  0  0  0
   -0.0505    2.1258    0.0000 C   0  0  0  0  0  0  0  0  0  0  0  0
    1.0800    1.1399    0.0000 C   0  0  0  0  0  0  0  0  0  0  0  0
    1.3686    2.6118    0.0000 C   0  0  0  0  0  0  0  0  0  0  0  0
    2.4991    1.6259    0.0000 C   0  0  0  0  0  0  0  0  0  0  0  0
    3.6296    0.6400    0.0000 C   0  0  0  0  0  0  0  0  0  0  0  0
    3.3410   -0.8319    0.0000 C   0  0  0  0  0  0  0  0  0  0  0  0
    1.9219   -1.3180    0.0000 C   0  0  0  0  0  0  0  0  0  0  0  0
    0.7547   -2.2601    0.0000 C   0  0  0  0  0  0  0  0  0  0  0  0
    2.6470   -2.6311    0.0000 O   0  0  0  0  0  0  0  0  0  0  0  0
    0.7914   -0.3321    0.0000 C   0  0  0  0  0  0  0  0  0  0  0  0
   -0.6276   -0.8182    0.0000 C   0  0  0  0  0  0  0  0  0  0  0  0
  1  2  1  0
  2  3  1  0
  2  4  1  0
  5  2  1  6
  5  6  1  0
  6  7  1  0
  7  8  1  0
  8  9  1  6
  8 10  1  0
 10 11  1  0
 11 12  1  0
 12 13  1  0
 13 14  1  6
 13 15  1  0
 13 16  1  0
 16 17  1  0
 17  5  1  0
 16  8  1  0
M  END
>  <identifier>  (1302) 
CNP0178884.7

>  <canonical_smiles>  (1302) 
CC(C)(O)[C@@H]1CC[C@@]2(C)CCC[C@@](C)(O)C2C1

>  <standard_inchi>  (1302) 
InChI=1S/C15H28O2/c1-13(2,16)11-6-9-14(3)7-5-8-15(4,17)12(14)10-11/h11-12,16-17H,5-10H2,1-4H3/t11-,12?,14-,15-/m1/s1

>  <standard_inchi_key>  (1302) 
LKKDASYGWYYFIK-FMCMVYLNSA-N

>  <name>  (1302) 
nan

>  <iupac_name>  (1302) 
(1~{R},4~{a}~{R},7~{R})-7-(1-hydroxy-1-methyl-ethyl)-1,4~{a}-dimethyl-decalin-1-ol

>  <annotation_level>  (1302) 
4

>  <total_atom_count>  (1302) 
45

>  <heavy_atom_count>  (1302) 
17

>  <molecular_weight>  (1302) 
240.39

>  <exact_molecular_weight>  (1302) 
240.20893

>  <molecular_formula>  (1302) 
C15H28O2

>  <alogp>  (1302) 
3.11

>  <topological_polar_surface_area>  (1302) 
40.46

>  <rotatable_bond_count>  (1302) 
1

>  <hydrogen_bond_acceptors>  (1302) 
2

>  <hydrogen_bond_donors>  (1302) 
2

>  <hydrogen_bond_acceptors_lipinski>  (1302) 
2

>  <hydrogen_bond_donors_lipinski>  (1302) 
2

>  <lipinski_rule_of_five_violations>  (1302) 
0

>  <aromatic_rings_count>  (1302) 
0

>  <qed_drug_likeliness>  (1302) 
0.74

>  <formal_charge>  (1302) 
0

>  <fractioncsp3>  (1302) 
1.00

>  <number_of_minimal_rings>  (1302) 
2

>  <van_der_walls_volume>  (1302) 
nan

>  <contains_sugar>  (1302) 
False

>  <contains_ring_sugars>  (1302) 
False

>  <contains_linear_sugars>  (1302) 
False

>  <murcko_framework>  (1302) 
C1CCC2CCCCC2C1

>  <np_likeness>  (1302) 
2.85

>  <chemical_class>  (1302) 
Prenol lipids

>  <chemical_sub_class>  (1302) 
Sesquiterpenoids

>  <chemical_super_class>  (1302) 
Lipids and lipid-like molecules

>  <direct_parent_classification>  (1302) 
Eudesmane, isoeudesmane or cycloeudesmane sesquiterpenoids

>  <np_classifier_pathway>  (1302) 
Terpenoids

>  <np_classifier_superclass>  (1302) 
Sesquiterpenoids

>  <np_classifier_class>  (1302) 
Eudesmane sesquiterpenoids

>  <np_classifier_is_glycoside>  (1302) 
False

>  <organisms>  (1302) 
Cedrela fissilis|Trichilia claussenii

>  <collections>  (1302) 
Latin America dataset|NuBBEDB|WikiData Natural Products

>  <dois>  (1302) 
10.1055/S-0028-1088323|10.1590/S0103-50532002000300014

>  <synonyms>  (1302) 
cryptomeridiol

>  <cas>  (1302) 
nan

$$$$

     RDKit          2D

 32 36  0  0  0  0  0  0  0  0999 V2000
    2.9725   -2.9364    0.0000 C   0  0  0  0  0  0  0  0  0  0  0  0
    4.3300   -2.2985    0.0000 C   0  0  0  0  0  0  0  0  0  0  0  0
    5.5613   -3.1552    0.0000 C   0  0  0  0  0  0  0  0  0  0  0  0
    4.4563   -0.8038    0.0000 C   0  0  0  0  0  0  0  0  0  0  0  0
    5.7398   -0.0274    0.0000 C   0  0  0  0  0  0  0  0  0  0  0  0
    5.3980    1.4331    0.0000 C   0  0  0  0  0  0  0  0  0  0  0  0
    3.9033    1.5594    0.0000 C   0  0  0  0  0  0  0  0  0  0  0  0
    4.6267    2.8735    0.0000 C   0  0  0  0  0  0  0  0  0  0  0  0
    2.9971    2.7547    0.0000 C   0  0  0  0  0  0  0  0  0  0  0  0
    1.5088    2.5675    0.0000 C   0  0  0  0  0  0  0  0  0  0  0  0
    0.9268    1.1850    0.0000 C   0  0  0  0  0  0  0  0  0  0  0  0
    0.3448   -0.1975    0.0000 C   0  0  0  0  0  0  0  0  0  0  0  0
    1.8331   -0.0103    0.0000 C   0  0  0  0  0  0  0  0  0  0  0  0
    1.2511   -1.3928    0.0000 C   0  0  0  0  0  0  0  0  0  0  0  0
    2.1574   -2.5880    0.0000 O   0  0  0  0  0  0  0  0  0  0  0  0
   -0.2372   -1.5800    0.0000 C   0  0  0  0  0  0  0  0  0  0  0  0
   -1.1435   -0.3847    0.0000 C   0  0  0  0  0  0  0  0  0  0  0  0
   -2.6317   -0.5720    0.0000 C   0  0  0  0  0  0  0  0  0  0  0  0
   -1.7255   -1.7672    0.0000 C   0  0  0  0  0  0  0  0  0  0  0  0
   -3.2137   -1.9544    0.0000 C   0  0  0  0  0  0  0  0  0  0  0  0
   -4.7020   -2.1417    0.0000 C   0  0  0  0  0  0  0  0  0  0  0  0
   -5.6083   -0.9464    0.0000 C   0  0  0  0  0  0  0  0  0  0  0  0
   -7.0965   -1.1336    0.0000 O   0  0  0  0  0  0  0  0  0  0  0  0
   -5.0263    0.4361    0.0000 C   0  0  0  0  0  0  0  0  0  0  0  0
   -4.9522    1.9343    0.0000 C   0  0  0  0  0  0  0  0  0  0  0  0
   -6.4888    0.7692    0.0000 C   0  0  0  0  0  0  0  0  0  0  0  0
   -3.5380    0.6233    0.0000 C   0  0  0  0  0  0  0  0  0  0  0  0
   -2.9560    2.0058    0.0000 C   0  0  0  0  0  0  0  0  0  0  0  0
   -1.4677    2.1930    0.0000 C   0  0  0  0  0  0  0  0  0  0  0  0
   -0.5615    0.9978    0.0000 C   0  0  0  0  0  0  0  0  0  0  0  0
    0.0205    2.3803    0.0000 C   0  0  0  0  0  0  0  0  0  0  0  0
    3.3214    0.1769    0.0000 C   0  0  0  0  0  0  0  0  0  0  0  0
  1  2  2  0
  2  3  1  0
  4  2  1  1
  4  5  1  0
  5  6  1  0
  6  7  1  0
  7  8  1  6
  7  9  1  0
  9 10  1  0
 10 11  1  0
 11 12  1  1
 11 13  1  0
 13 14  1  1
 14 15  1  0
 14 16  1  0
 17 16  1  6
 17 18  1  0
 18 19  1  6
 18 20  1  0
 20 21  1  0
 21 22  1  0
 22 23  1  6
 22 24  1  0
 24 25  1  0
 24 26  1  0
 24 27  1  0
 27 28  1  6
 28 29  1  0
 29 30  1  0
 30 31  1  6
 13 32  1  0
 32  4  1  6
 32  7  1  0
 30 11  1  0
 30 17  1  0
 27 18  1  0
M  END
>  <identifier>  (1303) 
CNP0322132.1

>  <canonical_smiles>  (1303) 
C=C(C)[C@@H]1CC[C@]2(C)CC[C@]3(C)[C@H](C(O)C[C@@H]4[C@@]5(C)CC[C@H](O)C(C)(C)[C@@H]5CC[C@]43C)[C@@H]12

>  <standard_inchi>  (1303) 
InChI=1S/C30H50O2/c1-18(2)19-9-12-27(5)15-16-30(8)25(24(19)27)20(31)17-22-28(6)13-11-23(32)26(3,4)21(28)10-14-29(22,30)7/h19-25,31-32H,1,9-17H2,2-8H3/t19-,20?,21-,22+,23-,24+,25+,27+,28-,29+,30+/m0/s1

>  <standard_inchi_key>  (1303) 
IFSVJQKNHRMDEF-WTRPKVJOSA-N

>  <name>  (1303) 
12-Hydroxylupeol

>  <iupac_name>  (1303) 
(1~{R},3~{a}~{R},5~{a}~{R},5~{b}~{R},7~{a}~{R},9~{S},11~{a}~{R},11~{b}~{R},13~{a}~{R},13~{b}~{R})-1-isopropenyl-3~{a},5~{a},5~{b},8,8,11~{a}-hexamethyl-1,2,3,4,5,6,7,7~{a},9,10,11,11~{b},12,13,13~{a},13~{b}-hexadecahydrocyclopenta[a]chrysene-9,13-diol

>  <annotation_level>  (1303) 
5

>  <total_atom_count>  (1303) 
82

>  <heavy_atom_count>  (1303) 
32

>  <molecular_weight>  (1303) 
442.73

>  <exact_molecular_weight>  (1303) 
442.38108

>  <molecular_formula>  (1303) 
C30H50O2

>  <alogp>  (1303) 
7.00

>  <topological_polar_surface_area>  (1303) 
40.46

>  <rotatable_bond_count>  (1303) 
1

>  <hydrogen_bond_acceptors>  (1303) 
2

>  <hydrogen_bond_donors>  (1303) 
2

>  <hydrogen_bond_acceptors_lipinski>  (1303) 
2

>  <hydrogen_bond_donors_lipinski>  (1303) 
2

>  <lipinski_rule_of_five_violations>  (1303) 
1

>  <aromatic_rings_count>  (1303) 
0

>  <qed_drug_likeliness>  (1303) 
0.43

>  <formal_charge>  (1303) 
0

>  <fractioncsp3>  (1303) 
0.93

>  <number_of_minimal_rings>  (1303) 
5

>  <van_der_walls_volume>  (1303) 
nan

>  <contains_sugar>  (1303) 
False

>  <contains_ring_sugars>  (1303) 
False

>  <contains_linear_sugars>  (1303) 
False

>  <murcko_framework>  (1303) 
C1CCC2C(C1)CCC3C2CCC4C5CCCC5CCC43

>  <np_likeness>  (1303) 
2.98

>  <chemical_class>  (1303) 
Steroids and steroid derivatives

>  <chemical_sub_class>  (1303) 
Hydroxysteroids

>  <chemical_super_class>  (1303) 
Lipids and lipid-like molecules

>  <direct_parent_classification>  (1303) 
Hydroxysteroids

>  <np_classifier_pathway>  (1303) 
Terpenoids

>  <np_classifier_superclass>  (1303) 
Triterpenoids

>  <np_classifier_class>  (1303) 
Lupane triterpenoids

>  <np_classifier_is_glycoside>  (1303) 
False

>  <organisms>  (1303) 
Mucor rouxii|Rhizopus arrhizus

>  <collections>  (1303) 
Latin America dataset|NuBBEDB|WikiData Natural Products

>  <dois>  (1303) 
10.3390/MOLECULES15096140|10.3390/molecules15096140

>  <synonyms>  (1303) 
Lupeol derivative 4

>  <cas>  (1303) 
nan

$$$$

     RDKit          2D

 39 43  0  0  0  0  0  0  0  0999 V2000
   -1.9707   -1.9051    0.0000 C   0  0  0  0  0  0  0  0  0  0  0  0
   -0.7276   -1.0655    0.0000 C   0  0  0  0  0  0  0  0  0  0  0  0
   -0.8332    0.4308    0.0000 C   0  0  0  0  0  0  0  0  0  0  0  0
   -2.1817    1.0875    0.0000 C   0  0  0  0  0  0  0  0  0  0  0  0
   -2.2873    2.5838    0.0000 C   0  0  0  0  0  0  0  0  0  0  0  0
   -3.6358    3.2406    0.0000 C   0  0  0  0  0  0  0  0  0  0  0  0
   -4.8789    2.4010    0.0000 C   0  0  0  0  0  0  0  0  0  0  0  0
   -6.2275    3.0578    0.0000 O   0  0  0  0  0  0  0  0  0  0  0  0
   -4.7734    0.9047    0.0000 C   0  0  0  0  0  0  0  0  0  0  0  0
   -5.1860   -0.5374    0.0000 C   0  0  0  0  0  0  0  0  0  0  0  0
   -6.2653    1.0606    0.0000 C   0  0  0  0  0  0  0  0  0  0  0  0
   -3.4248    0.2480    0.0000 C   0  0  0  0  0  0  0  0  0  0  0  0
   -3.3193   -1.2483    0.0000 C   0  0  0  0  0  0  0  0  0  0  0  0
   -4.5623   -2.0878    0.0000 C   0  0  0  0  0  0  0  0  0  0  0  0
   -5.9109   -1.4311    0.0000 O   0  0  0  0  0  0  0  0  0  0  0  0
   -4.4568   -3.5841    0.0000 O   0  0  0  0  0  0  0  0  0  0  0  0
   -5.6999   -4.4236    0.0000 C   0  0  0  0  0  0  0  0  0  0  0  0
    0.4099    1.2703    0.0000 C   0  0  0  0  0  0  0  0  0  0  0  0
    0.3044    2.7666    0.0000 O   0  0  0  0  0  0  0  0  0  0  0  0
    1.5474    3.6061    0.0000 C   0  0  0  0  0  0  0  0  0  0  0  0
    1.4419    5.1024    0.0000 C   0  0  0  0  0  0  0  0  0  0  0  0
    2.8960    2.9493    0.0000 O   0  0  0  0  0  0  0  0  0  0  0  0
    1.7585    0.6135    0.0000 C   0  0  0  0  0  0  0  0  0  0  0  0
    3.0015    1.4531    0.0000 O   0  0  0  0  0  0  0  0  0  0  0  0
    4.3501    0.7963    0.0000 C   0  0  0  0  0  0  0  0  0  0  0  0
    5.5932    1.6358    0.0000 C   0  0  0  0  0  0  0  0  0  0  0  0
    4.5969    0.0383    0.0000 O   0  0  0  0  0  0  0  0  0  0  0  0
    1.8640   -0.8828    0.0000 C   0  0  0  0  0  0  0  0  0  0  0  0
    3.1880   -0.1778    0.0000 C   0  0  0  0  0  0  0  0  0  0  0  0
    3.0466   -1.8055    0.0000 C   0  0  0  0  0  0  0  0  0  0  0  0
    4.4882   -1.3912    0.0000 C   0  0  0  0  0  0  0  0  0  0  0  0
    5.0004    0.0186    0.0000 C   0  0  0  0  0  0  0  0  0  0  0  0
    6.4995   -0.0328    0.0000 O   0  0  0  0  0  0  0  0  0  0  0  0
    6.9138   -1.4745    0.0000 C   0  0  0  0  0  0  0  0  0  0  0  0
    5.6708   -2.3140    0.0000 C   0  0  0  0  0  0  0  0  0  0  0  0
    2.5344   -3.2154    0.0000 C   0  0  0  0  0  0  0  0  0  0  0  0
    1.0353   -3.1639    0.0000 C   0  0  0  0  0  0  0  0  0  0  0  0
   -0.4204   -2.8019    0.0000 O   0  0  0  0  0  0  0  0  0  0  0  0
    0.6209   -1.7223    0.0000 C   0  0  0  0  0  0  0  0  0  0  0  0
  1  2  2  0
  2  3  1  0
  3  4  1  1
  4  5  1  0
  5  6  2  0
  6  7  1  0
  7  8  2  0
  7  9  1  0
  9 10  1  0
  9 11  1  0
  9 12  1  0
 12 13  1  1
 13 14  1  0
 14 15  2  0
 14 16  1  0
 16 17  1  0
  3 18  1  0
 18 19  1  6
 19 20  1  0
 20 21  1  0
 20 22  2  0
 18 23  1  0
 23 24  1  6
 24 25  1  0
 25 26  1  0
 25 27  2  0
 23 28  1  0
 28 29  1  6
 28 30  1  0
 30 31  1  6
 31 32  2  0
 32 33  1  0
 33 34  1  0
 34 35  2  0
 30 36  1  0
 37 36  1  6
 37 38  1  0
 39 38  1  1
 39  2  1  0
 12  4  1  0
 39 28  1  0
 35 31  1  0
 39 37  1  0
M  END
>  <identifier>  (1304) 
CNP0353338.1

>  <canonical_smiles>  (1304) 
C=C1[C@@H](C2C=CC(=O)C(C)(C)[C@@H]2CC(=O)OC)[C@H](OC(C)=O)[C@H](OC(C)=O)[C@@]2(C)[C@H](C3=COC=C3)C[C@@H]3O[C@]132

>  <standard_inchi>  (1304) 
InChI=1S/C30H36O9/c1-15-25(19-8-9-22(33)28(4,5)21(19)13-24(34)35-7)26(37-16(2)31)27(38-17(3)32)29(6)20(18-10-11-36-14-18)12-23-30(15,29)39-23/h8-11,14,19-21,23,25-27H,1,12-13H2,2-7H3/t19?,20-,21+,23-,25-,26-,27-,29+,30+/m0/s1

>  <standard_inchi_key>  (1304) 
NAEHAMFTAYZGHA-GTIQEKJOSA-N

>  <name>  (1304) 
nan

>  <iupac_name>  (1304) 
methyl 2-[(1~{R})-2-[(1~{a}~{S},3~{S},3~{a}~{R},4~{R},5~{S},6~{R},7~{a}~{S})-4,5-diacetoxy-3-(3-furyl)-3~{a}-methyl-7-methylene-1~{a},2,3,4,5,6-hexahydroindeno[1,7~{a}-b]oxiren-6-yl]-6,6-dimethyl-5-oxo-cyclohex-3-en-1-yl]acetate

>  <annotation_level>  (1304) 
4

>  <total_atom_count>  (1304) 
75

>  <heavy_atom_count>  (1304) 
39

>  <molecular_weight>  (1304) 
540.61

>  <exact_molecular_weight>  (1304) 
540.23593

>  <molecular_formula>  (1304) 
C30H36O9

>  <alogp>  (1304) 
3.92

>  <topological_polar_surface_area>  (1304) 
121.64

>  <rotatable_bond_count>  (1304) 
6

>  <hydrogen_bond_acceptors>  (1304) 
9

>  <hydrogen_bond_donors>  (1304) 
0

>  <hydrogen_bond_acceptors_lipinski>  (1304) 
9

>  <hydrogen_bond_donors_lipinski>  (1304) 
0

>  <lipinski_rule_of_five_violations>  (1304) 
1

>  <aromatic_rings_count>  (1304) 
1

>  <qed_drug_likeliness>  (1304) 
0.23

>  <formal_charge>  (1304) 
0

>  <fractioncsp3>  (1304) 
0.60

>  <number_of_minimal_rings>  (1304) 
5

>  <van_der_walls_volume>  (1304) 
nan

>  <contains_sugar>  (1304) 
False

>  <contains_ring_sugars>  (1304) 
False

>  <contains_linear_sugars>  (1304) 
False

>  <murcko_framework>  (1304) 
o1ccc(c1)C2CC3OC43CC(CCC24)C5C=CCCC5

>  <np_likeness>  (1304) 
2.78

>  <chemical_class>  (1304) 
Carboxylic acids and derivatives

>  <chemical_sub_class>  (1304) 
Tricarboxylic acids and derivatives

>  <chemical_super_class>  (1304) 
Organic acids and derivatives

>  <direct_parent_classification>  (1304) 
Tricarboxylic acids and derivatives

>  <np_classifier_pathway>  (1304) 
Terpenoids

>  <np_classifier_superclass>  (1304) 
Triterpenoids

>  <np_classifier_class>  (1304) 
Limonoids

>  <np_classifier_is_glycoside>  (1304) 
False

>  <organisms>  (1304) 
Toona ciliata

>  <collections>  (1304) 
Latin America dataset|NuBBEDB|WikiData Natural Products

>  <dois>  (1304) 
10.1016/0031-9422(94)00568-E|10.2174/187152010794728620

>  <synonyms>  (1304) 
toonacilin

>  <cas>  (1304) 
nan

$$$$

     RDKit          2D

 24 27  0  0  0  0  0  0  0  0999 V2000
    3.7516   -1.2341    0.0000 C   0  0  0  0  0  0  0  0  0  0  0  0
    3.6513    0.2625    0.0000 C   0  0  0  0  0  0  0  0  0  0  0  0
    5.1426    0.1015    0.0000 C   0  0  0  0  0  0  0  0  0  0  0  0
    4.0689    1.7032    0.0000 C   0  0  0  0  0  0  0  0  0  0  0  0
    3.0300    2.7852    0.0000 C   0  0  0  0  0  0  0  0  0  0  0  0
    1.5735    2.4265    0.0000 C   0  0  0  0  0  0  0  0  0  0  0  0
    1.1559    0.9858    0.0000 C   0  0  0  0  0  0  0  0  0  0  0  0
    0.1170    2.0678    0.0000 C   0  0  0  0  0  0  0  0  0  0  0  0
   -0.3006    0.6271    0.0000 C   0  0  0  0  0  0  0  0  0  0  0  0
   -1.3395    1.7091    0.0000 C   0  0  0  0  0  0  0  0  0  0  0  0
   -2.7959    1.3504    0.0000 C   0  0  0  0  0  0  0  0  0  0  0  0
   -3.2135   -0.0903    0.0000 C   0  0  0  0  0  0  0  0  0  0  0  0
   -4.7127   -0.1384    0.0000 C   0  0  0  0  0  0  0  0  0  0  0  0
   -5.2217    1.2726    0.0000 C   0  0  0  0  0  0  0  0  0  0  0  0
   -4.0371    2.1927    0.0000 O   0  0  0  0  0  0  0  0  0  0  0  0
   -2.1746   -1.1723    0.0000 C   0  0  0  0  0  0  0  0  0  0  0  0
   -1.5684   -2.5444    0.0000 C   0  0  0  0  0  0  0  0  0  0  0  0
   -3.4206   -2.0075    0.0000 O   0  0  0  0  0  0  0  0  0  0  0  0
   -0.7181   -0.8136    0.0000 C   0  0  0  0  0  0  0  0  0  0  0  0
    0.3207   -1.8956    0.0000 C   0  0  0  0  0  0  0  0  0  0  0  0
   -0.0968   -3.3363    0.0000 O   0  0  0  0  0  0  0  0  0  0  0  0
    1.7772   -1.5369    0.0000 C   0  0  0  0  0  0  0  0  0  0  0  0
    2.8161   -2.6189    0.0000 O   0  0  0  0  0  0  0  0  0  0  0  0
    2.1948   -0.0962    0.0000 C   0  0  0  0  0  0  0  0  0  0  0  0
  1  2  1  0
  2  3  1  0
  2  4  1  0
  4  5  1  0
  5  6  1  0
  6  7  1  0
  7  8  1  6
  7  9  1  0
  9 10  1  6
 10 11  1  0
 11 12  2  0
 12 13  1  0
 13 14  2  0
 14 15  1  0
 12 16  1  0
 16 17  1  1
 16 18  1  0
 19 16  1  1
 19 20  1  0
 20 21  1  6
 20 22  1  0
 22 23  1  1
 22 24  1  0
 24  2  1  6
 24  7  1  0
 19  9  1  0
 15 11  1  0
M  END
>  <identifier>  (1305) 
CNP0360656.1

>  <canonical_smiles>  (1305) 
CC1(C)CCC[C@]2(C)[C@H]3CC4=C(C=CO4)[C@@](C)(O)[C@@H]3[C@@H](O)[C@H](O)[C@@H]12

>  <standard_inchi>  (1305) 
InChI=1S/C20H30O4/c1-18(2)7-5-8-19(3)12-10-13-11(6-9-24-13)20(4,23)14(12)15(21)16(22)17(18)19/h6,9,12,14-17,21-23H,5,7-8,10H2,1-4H3/t12-,14-,15+,16-,17-,19+,20+/m0/s1

>  <standard_inchi_key>  (1305) 
ZPHXWEJBGVGOKG-NFKJIKJHSA-N

>  <name>  (1305) 
(4aS,5R,6R,6aS,7S,11aS,11bR)-4,4,7,11b-tetramethyl-2,3,4a,5,6,6a,11,11a-octahydro-1H-naphtho[2,1-f][1]benzofuran-5,6,7-triol

>  <iupac_name>  (1305) 
(4~{a}~{S},5~{R},6~{R},6~{a}~{S},7~{S},11~{a}~{S},11~{b}~{R})-4,4,7,11~{b}-tetramethyl-2,3,4~{a},5,6,6~{a},11,11~{a}-octahydro-1~{H}-naphtho[2,1-f]benzofuran-5,6,7-triol

>  <annotation_level>  (1305) 
5

>  <total_atom_count>  (1305) 
54

>  <heavy_atom_count>  (1305) 
24

>  <molecular_weight>  (1305) 
334.46

>  <exact_molecular_weight>  (1305) 
334.21441

>  <molecular_formula>  (1305) 
C20H30O4

>  <alogp>  (1305) 
2.84

>  <topological_polar_surface_area>  (1305) 
73.83

>  <rotatable_bond_count>  (1305) 
0

>  <hydrogen_bond_acceptors>  (1305) 
4

>  <hydrogen_bond_donors>  (1305) 
3

>  <hydrogen_bond_acceptors_lipinski>  (1305) 
4

>  <hydrogen_bond_donors_lipinski>  (1305) 
3

>  <lipinski_rule_of_five_violations>  (1305) 
0

>  <aromatic_rings_count>  (1305) 
1

>  <qed_drug_likeliness>  (1305) 
0.68

>  <formal_charge>  (1305) 
0

>  <fractioncsp3>  (1305) 
0.80

>  <number_of_minimal_rings>  (1305) 
4

>  <van_der_walls_volume>  (1305) 
nan

>  <contains_sugar>  (1305) 
False

>  <contains_ring_sugars>  (1305) 
False

>  <contains_linear_sugars>  (1305) 
False

>  <murcko_framework>  (1305) 
o1ccc2c1CC3C(C2)CCC4CCCCC43

>  <np_likeness>  (1305) 
2.99

>  <chemical_class>  (1305) 
Prenol lipids

>  <chemical_sub_class>  (1305) 
Diterpenoids

>  <chemical_super_class>  (1305) 
Lipids and lipid-like molecules

>  <direct_parent_classification>  (1305) 
Diterpenoids

>  <np_classifier_pathway>  (1305) 
Terpenoids

>  <np_classifier_superclass>  (1305) 
Diterpenoids

>  <np_classifier_class>  (1305) 
Cassane diterpenoids

>  <np_classifier_is_glycoside>  (1305) 
False

>  <organisms>  (1305) 
Pterodon emarginatus|Pterodon polygalaeflorus

>  <collections>  (1305) 
Latin America dataset|NuBBEDB|Super Natural II|WikiData Natural Products

>  <dois>  (1305) 
10.1016/S0031-9422(00)89084-6|10.1021/NP960140F

>  <synonyms>  (1305) 
CHEMBL462756|Vouacapane-6\u221a\u00e9\u00ac\u00b17\u221a\u00e9\u00ac\u226414\u221a\u00e9\u00ac\u2264-triol

>  <cas>  (1305) 
nan

$$$$

     RDKit          2D

 22 22  0  0  0  0  0  0  0  0999 V2000
    9.1219   -1.4511    0.0000 C   0  0  0  0  0  0  0  0  0  0  0  0
    7.8902   -0.5949    0.0000 C   0  0  0  0  0  0  0  0  0  0  0  0
    6.5329   -1.2334    0.0000 N   0  0  0  0  0  0  0  0  0  0  0  0
    5.3013   -0.3772    0.0000 C   0  0  0  0  0  0  0  0  0  0  0  0
    3.9440   -1.0158    0.0000 C   0  0  0  0  0  0  0  0  0  0  0  0
    2.7123   -0.1596    0.0000 C   0  0  0  0  0  0  0  0  0  0  0  0
    1.3550   -0.7981    0.0000 C   0  0  0  0  0  0  0  0  0  0  0  0
    0.1234    0.0580    0.0000 C   0  0  0  0  0  0  0  0  0  0  0  0
   -1.2339   -0.5805    0.0000 C   0  0  0  0  0  0  0  0  0  0  0  0
   -2.4656    0.2757    0.0000 C   0  0  0  0  0  0  0  0  0  0  0  0
   -3.8229   -0.3628    0.0000 C   0  0  0  0  0  0  0  0  0  0  0  0
   -5.0545    0.4933    0.0000 C   0  0  0  0  0  0  0  0  0  0  0  0
   -6.4118   -0.1452    0.0000 C   0  0  0  0  0  0  0  0  0  0  0  0
   -7.6434    0.7110    0.0000 C   0  0  0  0  0  0  0  0  0  0  0  0
   -9.0007    0.0724    0.0000 C   0  0  0  0  0  0  0  0  0  0  0  0
   -9.1264   -1.4223    0.0000 O   0  0  0  0  0  0  0  0  0  0  0  0
  -10.2324    0.9286    0.0000 C   0  0  0  0  0  0  0  0  0  0  0  0
  -11.5897    0.2901    0.0000 O   0  0  0  0  0  0  0  0  0  0  0  0
    5.4269    1.1175    0.0000 C   0  0  0  0  0  0  0  0  0  0  0  0
    6.7842    1.7560    0.0000 C   0  0  0  0  0  0  0  0  0  0  0  0
    8.0159    0.8998    0.0000 C   0  0  0  0  0  0  0  0  0  0  0  0
    9.3732    1.5384    0.0000 O   0  0  0  0  0  0  0  0  0  0  0  0
  2  1  1  6
  2  3  1  0
  3  4  1  0
  4  5  1  6
  5  6  1  0
  6  7  1  0
  7  8  1  0
  8  9  1  0
  9 10  1  0
 10 11  1  0
 11 12  1  0
 12 13  1  0
 13 14  1  0
 14 15  1  0
 15 16  1  0
 15 17  1  0
 17 18  1  0
  4 19  1  0
 19 20  1  0
 20 21  1  0
 21 22  1  6
 21  2  1  0
M  END
>  <identifier>  (1306) 
CNP0105977.1

>  <canonical_smiles>  (1306) 
C[C@@H]1N[C@H](CCCCCCCCCCC(O)CO)CC[C@@H]1O

>  <standard_inchi>  (1306) 
InChI=1S/C18H37NO3/c1-15-18(22)13-12-16(19-15)10-8-6-4-2-3-5-7-9-11-17(21)14-20/h15-22H,2-14H2,1H3/t15-,16+,17?,18-/m0/s1

>  <standard_inchi_key>  (1306) 
ATZALMRXHIBLKA-WFFDWFOESA-N

>  <name>  (1306) 
nan

>  <iupac_name>  (1306) 
12-[(2~{R},5~{S},6~{S})-5-hydroxy-6-methyl-2-piperidyl]dodecane-1,2-diol

>  <annotation_level>  (1306) 
4

>  <total_atom_count>  (1306) 
59

>  <heavy_atom_count>  (1306) 
22

>  <molecular_weight>  (1306) 
315.5

>  <exact_molecular_weight>  (1306) 
315.27734

>  <molecular_formula>  (1306) 
C18H37NO3

>  <alogp>  (1306) 
2.74

>  <topological_polar_surface_area>  (1306) 
72.72

>  <rotatable_bond_count>  (1306) 
12

>  <hydrogen_bond_acceptors>  (1306) 
4

>  <hydrogen_bond_donors>  (1306) 
4

>  <hydrogen_bond_acceptors_lipinski>  (1306) 
4

>  <hydrogen_bond_donors_lipinski>  (1306) 
4

>  <lipinski_rule_of_five_violations>  (1306) 
0

>  <aromatic_rings_count>  (1306) 
0

>  <qed_drug_likeliness>  (1306) 
0.42

>  <formal_charge>  (1306) 
0

>  <fractioncsp3>  (1306) 
1.00

>  <number_of_minimal_rings>  (1306) 
1

>  <van_der_walls_volume>  (1306) 
nan

>  <contains_sugar>  (1306) 
False

>  <contains_ring_sugars>  (1306) 
False

>  <contains_linear_sugars>  (1306) 
False

>  <murcko_framework>  (1306) 
N1CCCCC1

>  <np_likeness>  (1306) 
2.21

>  <chemical_class>  (1306) 
nan

>  <chemical_sub_class>  (1306) 
Alkaloids and derivatives

>  <chemical_super_class>  (1306) 
Alkaloids and derivatives

>  <direct_parent_classification>  (1306) 
Alkaloids and derivatives

>  <np_classifier_pathway>  (1306) 
Alkaloids

>  <np_classifier_superclass>  (1306) 
Lysine alkaloids

>  <np_classifier_class>  (1306) 
Piperidine alkaloids

>  <np_classifier_is_glycoside>  (1306) 
False

>  <organisms>  (1306) 
Cassia leptophylla|Ipomoea leptophylla

>  <collections>  (1306) 
Latin America dataset|NPEdia|NuBBEDB|WikiData Natural Products

>  <dois>  (1306) 
10.1016/0040-4020(95)00254-6|10.1021/NP030197J

>  <synonyms>  (1306) 
Leptophyllin A

>  <cas>  (1306) 
nan

$$$$

     RDKit          2D

 16 17  0  0  0  0  0  0  0  0999 V2000
   -3.7089   -2.0364    0.0000 C   0  0  0  0  0  0  0  0  0  0  0  0
   -2.2105   -1.9689    0.0000 O   0  0  0  0  0  0  0  0  0  0  0  0
   -1.5197   -0.6374    0.0000 C   0  0  0  0  0  0  0  0  0  0  0  0
   -2.3274    0.6265    0.0000 C   0  0  0  0  0  0  0  0  0  0  0  0
   -3.8259    0.5590    0.0000 O   0  0  0  0  0  0  0  0  0  0  0  0
   -1.6367    1.9580    0.0000 C   0  0  0  0  0  0  0  0  0  0  0  0
   -0.1382    2.0256    0.0000 C   0  0  0  0  0  0  0  0  0  0  0  0
    0.5525    3.3571    0.0000 C   0  0  0  0  0  0  0  0  0  0  0  0
    0.6695    0.7616    0.0000 C   0  0  0  0  0  0  0  0  0  0  0  0
   -0.0212   -0.5699    0.0000 C   0  0  0  0  0  0  0  0  0  0  0  0
    0.7865   -1.8338    0.0000 O   0  0  0  0  0  0  0  0  0  0  0  0
    2.2850   -1.7663    0.0000 C   0  0  0  0  0  0  0  0  0  0  0  0
    3.0927   -3.0302    0.0000 C   0  0  0  0  0  0  0  0  0  0  0  0
    2.9757   -0.4348    0.0000 C   0  0  0  0  0  0  0  0  0  0  0  0
    2.1680    0.8292    0.0000 C   0  0  0  0  0  0  0  0  0  0  0  0
    2.8587    2.1607    0.0000 O   0  0  0  0  0  0  0  0  0  0  0  0
  1  2  1  0
  2  3  1  0
  3  4  2  0
  4  5  1  0
  4  6  1  0
  6  7  2  0
  7  8  1  0
  7  9  1  0
  9 10  2  0
 10 11  1  0
 11 12  1  0
 12 13  1  0
 12 14  2  0
 14 15  1  0
 15 16  2  0
 10  3  1  0
 15  9  1  0
M  END
>  <identifier>  (1307) 
CNP0080670.0

>  <canonical_smiles>  (1307) 
COC1=C(O)C=C(C)C2=C1OC(C)=CC2=O

>  <standard_inchi>  (1307) 
InChI=1S/C12H12O4/c1-6-4-9(14)11(15-3)12-10(6)8(13)5-7(2)16-12/h4-5,14H,1-3H3

>  <standard_inchi_key>  (1307) 
WXOAEIVDNGKROT-UHFFFAOYSA-N

>  <name>  (1307) 
nan

>  <iupac_name>  (1307) 
7-hydroxy-8-methoxy-2,5-dimethyl-chromen-4-one

>  <annotation_level>  (1307) 
4

>  <total_atom_count>  (1307) 
28

>  <heavy_atom_count>  (1307) 
16

>  <molecular_weight>  (1307) 
220.22

>  <exact_molecular_weight>  (1307) 
220.07356

>  <molecular_formula>  (1307) 
C12H12O4

>  <alogp>  (1307) 
2.12

>  <topological_polar_surface_area>  (1307) 
59.67

>  <rotatable_bond_count>  (1307) 
1

>  <hydrogen_bond_acceptors>  (1307) 
4

>  <hydrogen_bond_donors>  (1307) 
1

>  <hydrogen_bond_acceptors_lipinski>  (1307) 
4

>  <hydrogen_bond_donors_lipinski>  (1307) 
1

>  <lipinski_rule_of_five_violations>  (1307) 
0

>  <aromatic_rings_count>  (1307) 
2

>  <qed_drug_likeliness>  (1307) 
0.80

>  <formal_charge>  (1307) 
0

>  <fractioncsp3>  (1307) 
0.25

>  <number_of_minimal_rings>  (1307) 
2

>  <van_der_walls_volume>  (1307) 
nan

>  <contains_sugar>  (1307) 
False

>  <contains_ring_sugars>  (1307) 
False

>  <contains_linear_sugars>  (1307) 
False

>  <murcko_framework>  (1307) 
O1C=CCc2ccccc12

>  <np_likeness>  (1307) 
1.67

>  <chemical_class>  (1307) 
Benzopyrans

>  <chemical_sub_class>  (1307) 
1-benzopyrans

>  <chemical_super_class>  (1307) 
Organoheterocyclic compounds

>  <direct_parent_classification>  (1307) 
Chromones

>  <np_classifier_pathway>  (1307) 
Polyketides

>  <np_classifier_superclass>  (1307) 
Chromanes

>  <np_classifier_class>  (1307) 
Chromones

>  <np_classifier_is_glycoside>  (1307) 
False

>  <organisms>  (1307) 
Papulaspora immersa

>  <collections>  (1307) 
Latin America dataset|NuBBEDB|WikiData Natural Products|ZINC NP

>  <dois>  (1307) 
10.1002/CBDV.201000011|10.1002/cbdv.201000011

>  <synonyms>  (1307) 
Papulasporin

>  <cas>  (1307) 
nan

$$$$

     RDKit          2D

 20 23  0  0  0  0  0  0  0  0999 V2000
   -3.1789   -3.1682    0.0000 C   0  0  0  0  0  0  0  0  0  0  0  0
   -1.7917   -2.5974    0.0000 O   0  0  0  0  0  0  0  0  0  0  0  0
   -1.5924   -1.1107    0.0000 C   0  0  0  0  0  0  0  0  0  0  0  0
   -2.7803   -0.1948    0.0000 C   0  0  0  0  0  0  0  0  0  0  0  0
   -4.2558   -0.4646    0.0000 O   0  0  0  0  0  0  0  0  0  0  0  0
   -4.9684    0.8553    0.0000 C   0  0  0  0  0  0  0  0  0  0  0  0
   -3.9333    1.9409    0.0000 O   0  0  0  0  0  0  0  0  0  0  0  0
   -2.5809    1.2919    0.0000 C   0  0  0  0  0  0  0  0  0  0  0  0
   -1.1937    1.8626    0.0000 C   0  0  0  0  0  0  0  0  0  0  0  0
   -0.0059    0.9467    0.0000 C   0  0  0  0  0  0  0  0  0  0  0  0
   -0.2052   -0.5400    0.0000 C   0  0  0  0  0  0  0  0  0  0  0  0
    0.9826   -1.4560    0.0000 O   0  0  0  0  0  0  0  0  0  0  0  0
    2.3698   -0.8853    0.0000 C   0  0  0  0  0  0  0  0  0  0  0  0
    3.5577   -1.8012    0.0000 C   0  0  0  0  0  0  0  0  0  0  0  0
    4.9449   -1.2305    0.0000 C   0  0  0  0  0  0  0  0  0  0  0  0
    5.1442    0.2562    0.0000 C   0  0  0  0  0  0  0  0  0  0  0  0
    3.9563    1.1722    0.0000 C   0  0  0  0  0  0  0  0  0  0  0  0
    2.5691    0.6014    0.0000 C   0  0  0  0  0  0  0  0  0  0  0  0
    1.3813    1.5174    0.0000 C   0  0  0  0  0  0  0  0  0  0  0  0
    1.5806    3.0041    0.0000 O   0  0  0  0  0  0  0  0  0  0  0  0
  1  2  1  0
  2  3  1  0
  3  4  2  0
  4  5  1  0
  5  6  1  0
  6  7  1  0
  7  8  1  0
  8  9  2  0
  9 10  1  0
 10 11  2  0
 11 12  1  0
 12 13  1  0
 13 14  2  0
 14 15  1  0
 15 16  2  0
 16 17  1  0
 17 18  2  0
 18 19  1  0
 19 20  2  0
 11  3  1  0
 18 13  1  0
  8  4  1  0
 19 10  1  0
M  END
>  <identifier>  (1308) 
CNP0189391.0

>  <canonical_smiles>  (1308) 
COC1=C2OCOC2=CC2=C1OC1=CC=CC=C1C2=O

>  <standard_inchi>  (1308) 
InChI=1S/C15H10O5/c1-17-15-13-9(6-11-14(15)19-7-18-11)12(16)8-4-2-3-5-10(8)20-13/h2-6H,7H2,1H3

>  <standard_inchi_key>  (1308) 
VVUQORLQHOKQDW-UHFFFAOYSA-N

>  <name>  (1308) 
4-methoxy-[1,3]dioxolo[4,5-b]xanthen-10-one

>  <iupac_name>  (1308) 
4-methoxy-[1,3]dioxolo[4,5-b]xanthen-10-one

>  <annotation_level>  (1308) 
5

>  <total_atom_count>  (1308) 
30

>  <heavy_atom_count>  (1308) 
20

>  <molecular_weight>  (1308) 
270.24

>  <exact_molecular_weight>  (1308) 
270.05282

>  <molecular_formula>  (1308) 
C15H10O5

>  <alogp>  (1308) 
2.68

>  <topological_polar_surface_area>  (1308) 
57.90

>  <rotatable_bond_count>  (1308) 
1

>  <hydrogen_bond_acceptors>  (1308) 
5

>  <hydrogen_bond_donors>  (1308) 
0

>  <hydrogen_bond_acceptors_lipinski>  (1308) 
5

>  <hydrogen_bond_donors_lipinski>  (1308) 
0

>  <lipinski_rule_of_five_violations>  (1308) 
0

>  <aromatic_rings_count>  (1308) 
3

>  <qed_drug_likeliness>  (1308) 
0.64

>  <formal_charge>  (1308) 
0

>  <fractioncsp3>  (1308) 
0.13

>  <number_of_minimal_rings>  (1308) 
4

>  <van_der_walls_volume>  (1308) 
nan

>  <contains_sugar>  (1308) 
False

>  <contains_ring_sugars>  (1308) 
False

>  <contains_linear_sugars>  (1308) 
False

>  <murcko_framework>  (1308) 
O1c2ccccc2Cc3cc4OCOc4cc13

>  <np_likeness>  (1308) 
0.91

>  <chemical_class>  (1308) 
Benzopyrans

>  <chemical_sub_class>  (1308) 
1-benzopyrans

>  <chemical_super_class>  (1308) 
Organoheterocyclic compounds

>  <direct_parent_classification>  (1308) 
Xanthones

>  <np_classifier_pathway>  (1308) 
Shikimates and Phenylpropanoids

>  <np_classifier_superclass>  (1308) 
Xanthones

>  <np_classifier_class>  (1308) 
Plant xanthones

>  <np_classifier_is_glycoside>  (1308) 
False

>  <organisms>  (1308) 
Kielmeyera rubriflora|Kielmeyera rupestris|Polygala karensium|polygala karensium

>  <collections>  (1308) 
Latin America dataset|NPASS|NuBBEDB|Super Natural II|UNPD (Universal Natural Products Database)|WikiData Natural Products|ZINC NP

>  <dois>  (1308) 
10.1016/J.BMCL.2012.04.028|10.1016/S0031-9422(00)85160-2|10.1016/S0031-9422(00)97240-6|10.1016/j.bmcl.2012.04.028

>  <synonyms>  (1308) 
4-Methoxy-2,3-methylendioxyxanthon|BDBM50485137|CHEMBL2029862

>  <cas>  (1308) 
nan

$$$$

     RDKit          2D

 12 13  0  0  0  0  0  0  0  0999 V2000
   -1.2990   -2.5000    0.0000 O   0  0  0  0  0  0  0  0  0  0  0  0
   -1.2990   -1.0000    0.0000 C   0  0  0  0  0  0  0  0  0  0  0  0
   -2.5981   -0.2500    0.0000 C   0  0  0  0  0  0  0  0  0  0  0  0
   -2.5981    1.2500    0.0000 C   0  0  0  0  0  0  0  0  0  0  0  0
   -1.2990    2.0000    0.0000 C   0  0  0  0  0  0  0  0  0  0  0  0
    0.0000    1.2500    0.0000 C   0  0  0  0  0  0  0  0  0  0  0  0
    1.2990    2.0000    0.0000 C   0  0  0  0  0  0  0  0  0  0  0  0
    2.5981    1.2500    0.0000 C   0  0  0  0  0  0  0  0  0  0  0  0
    2.5981   -0.2500    0.0000 C   0  0  0  0  0  0  0  0  0  0  0  0
    1.2990   -1.0000    0.0000 C   0  0  0  0  0  0  0  0  0  0  0  0
    1.2990   -2.5000    0.0000 O   0  0  0  0  0  0  0  0  0  0  0  0
    0.0000   -0.2500    0.0000 C   0  0  0  0  0  0  0  0  0  0  0  0
  1  2  1  0
  2  3  2  0
  3  4  1  0
  4  5  2  0
  5  6  1  0
  6  7  2  0
  7  8  1  0
  8  9  2  0
  9 10  1  0
 10 11  1  0
 10 12  2  0
 12  2  1  0
 12  6  1  0
M  END
>  <identifier>  (1309) 
CNP0137191.0

>  <canonical_smiles>  (1309) 
OC1=CC=CC2=CC=CC(O)=C12

>  <standard_inchi>  (1309) 
InChI=1S/C10H8O2/c11-8-5-1-3-7-4-2-6-9(12)10(7)8/h1-6,11-12H

>  <standard_inchi_key>  (1309) 
OENHRRVNRZBNNS-UHFFFAOYSA-N

>  <name>  (1309) 
Naphthalene-1,8-diol

>  <iupac_name>  (1309) 
naphthalene-1,8-diol

>  <annotation_level>  (1309) 
5

>  <total_atom_count>  (1309) 
20

>  <heavy_atom_count>  (1309) 
12

>  <molecular_weight>  (1309) 
160.17

>  <exact_molecular_weight>  (1309) 
160.05243

>  <molecular_formula>  (1309) 
C10H8O2

>  <alogp>  (1309) 
2.25

>  <topological_polar_surface_area>  (1309) 
40.46

>  <rotatable_bond_count>  (1309) 
0

>  <hydrogen_bond_acceptors>  (1309) 
2

>  <hydrogen_bond_donors>  (1309) 
2

>  <hydrogen_bond_acceptors_lipinski>  (1309) 
2

>  <hydrogen_bond_donors_lipinski>  (1309) 
2

>  <lipinski_rule_of_five_violations>  (1309) 
0

>  <aromatic_rings_count>  (1309) 
2

>  <qed_drug_likeliness>  (1309) 
0.62

>  <formal_charge>  (1309) 
0

>  <fractioncsp3>  (1309) 
0.00

>  <number_of_minimal_rings>  (1309) 
2

>  <van_der_walls_volume>  (1309) 
142.21

>  <contains_sugar>  (1309) 
False

>  <contains_ring_sugars>  (1309) 
False

>  <contains_linear_sugars>  (1309) 
False

>  <murcko_framework>  (1309) 
c1ccc2ccccc2c1

>  <np_likeness>  (1309) 
0.60

>  <chemical_class>  (1309) 
Naphthalenes

>  <chemical_sub_class>  (1309) 
Naphthols and derivatives

>  <chemical_super_class>  (1309) 
Benzenoids

>  <direct_parent_classification>  (1309) 
Naphthols and derivatives

>  <np_classifier_pathway>  (1309) 
Polyketides

>  <np_classifier_superclass>  (1309) 
Naphthalenes

>  <np_classifier_class>  (1309) 
Naphthalenes and derivatives

>  <np_classifier_is_glycoside>  (1309) 
False

>  <organisms>  (1309) 
Aspergillus fumigatus|Aster conspicuus|Clitocybula oculus|Crotalaria ferruginea|Daldinia concentrica|Kleinia tomentosa|Melanocarpus albomyces|Murrayella periclados|Papulaspora immersa|Senna didymobotrya|Sorocea ilicifolia|Streptomyces microflavus|Zanthoxylum parviflorum

>  <collections>  (1309) 
CMAUP (cCollective molecular activities of useful plants)|EMNPD|KNApSaCK|Latin America dataset|Marine Natural Products|NPASS|NPEdia|NuBBEDB|UNPD (Universal Natural Products Database)|WikiData Natural Products|ZINC NP

>  <dois>  (1309) 
10.1002/CBDV.201000011|10.1002/cbdv.201000011|10.1039/JR9600000654|10.1080/13693780802307720

>  <synonyms>  (1309) 
1,8-DHN|1,8-Dihydroxynaphthalene|1,8-Naphthalenediol|138999-35-6|569-42-6|8-hydroxy-1-naphthol|A8134|AB90058|AC-950|AKOS003601449|AM20050054|BCP10859|CHEBI:167604|CHEMBL203537|CS-B0783|DTXSID80205435|EINECS 209-316-5|EN300-41347|FS-3227|InChI=1\/C10H8O2\/c11-8-5-1-3-7-4-2-6-9(12)10(7)8\/h1-6,11-12|JEW2VB8R33|MFCD00042701|NS00042828|SCHEMBL70219|SY027091|UNII-JEW2VB8R33|YSSJ3004|Z415933894|naphthalene-18-diol

>  <cas>  (1309) 
569-42-6|138999-35-6

$$$$

     RDKit          2D

 23 25  0  0  0  0  0  0  0  0999 V2000
   -6.9525    1.4022    0.0000 C   0  0  0  0  0  0  0  0  0  0  0  0
   -6.2646    0.0693    0.0000 O   0  0  0  0  0  0  0  0  0  0  0  0
   -4.7662   -0.0014    0.0000 C   0  0  0  0  0  0  0  0  0  0  0  0
   -3.9559    1.2609    0.0000 C   0  0  0  0  0  0  0  0  0  0  0  0
   -2.4575    1.1902    0.0000 C   0  0  0  0  0  0  0  0  0  0  0  0
   -1.6472    2.4525    0.0000 O   0  0  0  0  0  0  0  0  0  0  0  0
   -1.7696   -0.1427    0.0000 C   0  0  0  0  0  0  0  0  0  0  0  0
   -0.2712   -0.2134    0.0000 C   0  0  0  0  0  0  0  0  0  0  0  0
    0.4167   -1.5463    0.0000 C   0  0  0  0  0  0  0  0  0  0  0  0
    1.9151   -1.6170    0.0000 O   0  0  0  0  0  0  0  0  0  0  0  0
    2.7254   -0.3547    0.0000 C   0  0  0  0  0  0  0  0  0  0  0  0
    2.0375    0.9782    0.0000 C   0  0  0  0  0  0  0  0  0  0  0  0
    2.8478    2.2405    0.0000 C   0  0  0  0  0  0  0  0  0  0  0  0
    4.3462    2.1698    0.0000 C   0  0  0  0  0  0  0  0  0  0  0  0
    5.0341    0.8369    0.0000 C   0  0  0  0  0  0  0  0  0  0  0  0
    6.5325    0.7662    0.0000 O   0  0  0  0  0  0  0  0  0  0  0  0
    4.2238   -0.4254    0.0000 C   0  0  0  0  0  0  0  0  0  0  0  0
    4.9117   -1.7583    0.0000 O   0  0  0  0  0  0  0  0  0  0  0  0
    4.1014   -3.0206    0.0000 C   0  0  0  0  0  0  0  0  0  0  0  0
    0.5391    1.0489    0.0000 C   0  0  0  0  0  0  0  0  0  0  0  0
   -2.5799   -1.4050    0.0000 C   0  0  0  0  0  0  0  0  0  0  0  0
   -4.0783   -1.3343    0.0000 C   0  0  0  0  0  0  0  0  0  0  0  0
   -4.8886   -2.5966    0.0000 O   0  0  0  0  0  0  0  0  0  0  0  0
  1  2  1  0
  2  3  1  0
  3  4  2  0
  4  5  1  0
  5  6  2  0
  5  7  1  0
  8  7  1  1
  8  9  1  0
  9 10  1  0
 10 11  1  0
 11 12  2  0
 12 13  1  0
 13 14  2  0
 14 15  1  0
 15 16  1  0
 15 17  2  0
 17 18  1  0
 18 19  1  0
 12 20  1  0
  7 21  2  0
 21 22  1  0
 22 23  2  0
 22  3  1  0
 20  8  1  0
 17 11  1  0
M  END
>  <identifier>  (1310) 
CNP0199714.1

>  <canonical_smiles>  (1310) 
COC1=CC(=O)C([C@@H]2COC3=C(C=CC(O)=C3OC)C2)=CC1=O

>  <standard_inchi>  (1310) 
InChI=1S/C17H16O6/c1-21-15-7-13(19)11(6-14(15)20)10-5-9-3-4-12(18)17(22-2)16(9)23-8-10/h3-4,6-7,10,18H,5,8H2,1-2H3/t10-/m0/s1

>  <standard_inchi_key>  (1310) 
BCRMQBPKTAFKBY-JTQLQIEISA-N

>  <name>  (1310) 
Mucroquinone

>  <iupac_name>  (1310) 
2-[(3~{R})-7-hydroxy-8-methoxy-chroman-3-yl]-5-methoxy-1,4-benzoquinone

>  <annotation_level>  (1310) 
5

>  <total_atom_count>  (1310) 
39

>  <heavy_atom_count>  (1310) 
23

>  <molecular_weight>  (1310) 
316.31

>  <exact_molecular_weight>  (1310) 
316.09469

>  <molecular_formula>  (1310) 
C17H16O6

>  <alogp>  (1310) 
1.56

>  <topological_polar_surface_area>  (1310) 
82.06

>  <rotatable_bond_count>  (1310) 
3

>  <hydrogen_bond_acceptors>  (1310) 
6

>  <hydrogen_bond_donors>  (1310) 
1

>  <hydrogen_bond_acceptors_lipinski>  (1310) 
6

>  <hydrogen_bond_donors_lipinski>  (1310) 
1

>  <lipinski_rule_of_five_violations>  (1310) 
0

>  <aromatic_rings_count>  (1310) 
1

>  <qed_drug_likeliness>  (1310) 
0.85

>  <formal_charge>  (1310) 
0

>  <fractioncsp3>  (1310) 
0.29

>  <number_of_minimal_rings>  (1310) 
3

>  <van_der_walls_volume>  (1310) 
274.06

>  <contains_sugar>  (1310) 
False

>  <contains_ring_sugars>  (1310) 
False

>  <contains_linear_sugars>  (1310) 
False

>  <murcko_framework>  (1310) 
O1c2ccccc2CC(C3=CCC=CC3)C1

>  <np_likeness>  (1310) 
2.19

>  <chemical_class>  (1310) 
Isoflavonoids

>  <chemical_sub_class>  (1310) 
Isoflavanquinones

>  <chemical_super_class>  (1310) 
Phenylpropanoids and polyketides

>  <direct_parent_classification>  (1310) 
Isoflavanquinones

>  <np_classifier_pathway>  (1310) 
Shikimates and Phenylpropanoids

>  <np_classifier_superclass>  (1310) 
nan

>  <np_classifier_class>  (1310) 
nan

>  <np_classifier_is_glycoside>  (1310) 
False

>  <organisms>  (1310) 
Cyclolobium brasiliense|Cyclolobium clausseni|Cyclolobium claussenii|Machaerium mucronulatum

>  <collections>  (1310) 
KNApSaCK|Latin America dataset|NPEdia|NuBBEDB|Super Natural II|WikiData Natural Products|ZINC NP

>  <dois>  (1310) 
10.1016/0031-9422(75)80372-4

>  <synonyms>  (1310) 
(3R)-Mucroquinone|(3R)-Mucroquinone, 7-hydroxy-84-dimethoxyisoflavanquinone|2-[(3R)-7-hydroxy-8-methoxy-3,4-dihydro-2H-chromen-3-yl]-5-methoxycyclohexa-2,5-diene-1,4-dione|7-Hydroxy-8,4'-dimethoxyisoflavanquinone|CHEBI:186186|LMPK12080053|Mucroquinone

>  <cas>  (1310) 
nan

$$$$

     RDKit          2D

 31 34  0  0  0  0  0  0  0  0999 V2000
   -8.0718    1.9010    0.0000 C   0  0  0  0  0  0  0  0  0  0  0  0
   -7.4788    0.5232    0.0000 O   0  0  0  0  0  0  0  0  0  0  0  0
   -5.9891    0.3478    0.0000 C   0  0  0  0  0  0  0  0  0  0  0  0
   -5.0923    1.5502    0.0000 C   0  0  0  0  0  0  0  0  0  0  0  0
   -3.6026    1.3749    0.0000 C   0  0  0  0  0  0  0  0  0  0  0  0
   -3.0097   -0.0030    0.0000 C   0  0  0  0  0  0  0  0  0  0  0  0
   -1.5200   -0.1783    0.0000 C   0  0  0  0  0  0  0  0  0  0  0  0
   -0.9270   -1.5562    0.0000 C   0  0  0  0  0  0  0  0  0  0  0  0
    0.5627   -1.7316    0.0000 C   0  0  0  0  0  0  0  0  0  0  0  0
    1.1557   -3.1094    0.0000 O   0  0  0  0  0  0  0  0  0  0  0  0
    1.4595   -0.5291    0.0000 C   0  0  0  0  0  0  0  0  0  0  0  0
    2.9492   -0.7045    0.0000 C   0  0  0  0  0  0  0  0  0  0  0  0
    3.5421   -2.0823    0.0000 O   0  0  0  0  0  0  0  0  0  0  0  0
    5.0319   -2.2577    0.0000 C   0  0  0  0  0  0  0  0  0  0  0  0
    6.3717   -2.9320    0.0000 C   0  0  0  0  0  0  0  0  0  0  0  0
    4.6004   -3.6943    0.0000 C   0  0  0  0  0  0  0  0  0  0  0  0
    5.9286   -1.0553    0.0000 C   0  0  0  0  0  0  0  0  0  0  0  0
    5.3356    0.3225    0.0000 C   0  0  0  0  0  0  0  0  0  0  0  0
    3.8459    0.4979    0.0000 C   0  0  0  0  0  0  0  0  0  0  0  0
    3.2530    1.8758    0.0000 C   0  0  0  0  0  0  0  0  0  0  0  0
    4.1497    3.0782    0.0000 O   0  0  0  0  0  0  0  0  0  0  0  0
    3.5567    4.4560    0.0000 C   0  0  0  0  0  0  0  0  0  0  0  0
    1.7632    2.0511    0.0000 C   0  0  0  0  0  0  0  0  0  0  0  0
    1.1703    3.4290    0.0000 O   0  0  0  0  0  0  0  0  0  0  0  0
    2.0670    4.6314    0.0000 C   0  0  0  0  0  0  0  0  0  0  0  0
    0.8665    0.8487    0.0000 C   0  0  0  0  0  0  0  0  0  0  0  0
   -0.6232    1.0241    0.0000 O   0  0  0  0  0  0  0  0  0  0  0  0
   -3.9064   -1.2054    0.0000 C   0  0  0  0  0  0  0  0  0  0  0  0
   -5.3961   -1.0300    0.0000 C   0  0  0  0  0  0  0  0  0  0  0  0
   -6.2929   -2.2324    0.0000 O   0  0  0  0  0  0  0  0  0  0  0  0
   -5.6999   -3.6103    0.0000 C   0  0  0  0  0  0  0  0  0  0  0  0
  1  2  1  0
  2  3  1  0
  3  4  2  0
  4  5  1  0
  5  6  2  0
  6  7  1  0
  7  8  2  0
  8  9  1  0
  9 10  2  0
  9 11  1  0
 11 12  2  0
 12 13  1  0
 13 14  1  0
 14 15  1  0
 14 16  1  0
 14 17  1  0
 17 18  2  0
 18 19  1  0
 19 20  2  0
 20 21  1  0
 21 22  1  0
 20 23  1  0
 23 24  1  0
 24 25  1  0
 23 26  2  0
 26 27  1  0
  6 28  1  0
 28 29  2  0
 29 30  1  0
 30 31  1  0
 29  3  1  0
 27  7  1  0
 26 11  1  0
 19 12  1  0
M  END
>  <identifier>  (1311) 
CNP0293676.0

>  <canonical_smiles>  (1311) 
COC1=CC=C(C2=CC(=O)C3=C4OC(C)(C)C=CC4=C(OC)C(OC)=C3O2)C=C1OC

>  <standard_inchi>  (1311) 
InChI=1S/C24H24O7/c1-24(2)10-9-14-20(31-24)19-15(25)12-17(30-22(19)23(29-6)21(14)28-5)13-7-8-16(26-3)18(11-13)27-4/h7-12H,1-6H3

>  <standard_inchi_key>  (1311) 
XHVZTOPSHYLRFK-UHFFFAOYSA-N

>  <name>  (1311) 
7,8,3',4'-Tetramethoxy-6'',6''-dimethylpyrano[2'',3'':5,6]flavone

>  <iupac_name>  (1311) 
8-(3,4-dimethoxyphenyl)-5,6-dimethoxy-2,2-dimethyl-pyrano[2,3-f]chromen-10-one

>  <annotation_level>  (1311) 
5

>  <total_atom_count>  (1311) 
55

>  <heavy_atom_count>  (1311) 
31

>  <molecular_weight>  (1311) 
424.45

>  <exact_molecular_weight>  (1311) 
424.1522

>  <molecular_formula>  (1311) 
C24H24O7

>  <alogp>  (1311) 
4.68

>  <topological_polar_surface_area>  (1311) 
76.36

>  <rotatable_bond_count>  (1311) 
5

>  <hydrogen_bond_acceptors>  (1311) 
7

>  <hydrogen_bond_donors>  (1311) 
0

>  <hydrogen_bond_acceptors_lipinski>  (1311) 
7

>  <hydrogen_bond_donors_lipinski>  (1311) 
0

>  <lipinski_rule_of_five_violations>  (1311) 
0

>  <aromatic_rings_count>  (1311) 
3

>  <qed_drug_likeliness>  (1311) 
0.59

>  <formal_charge>  (1311) 
0

>  <fractioncsp3>  (1311) 
0.29

>  <number_of_minimal_rings>  (1311) 
4

>  <van_der_walls_volume>  (1311) 
374.45

>  <contains_sugar>  (1311) 
False

>  <contains_ring_sugars>  (1311) 
False

>  <contains_linear_sugars>  (1311) 
False

>  <murcko_framework>  (1311) 
O1c2ccc3C=CCOc3c2CC=C1c4ccccc4

>  <np_likeness>  (1311) 
1.68

>  <chemical_class>  (1311) 
Flavonoids

>  <chemical_sub_class>  (1311) 
Pyranoflavonoids

>  <chemical_super_class>  (1311) 
Phenylpropanoids and polyketides

>  <direct_parent_classification>  (1311) 
Pyranoflavonoids

>  <np_classifier_pathway>  (1311) 
Shikimates and Phenylpropanoids

>  <np_classifier_superclass>  (1311) 
Flavonoids

>  <np_classifier_class>  (1311) 
Flavones

>  <np_classifier_is_glycoside>  (1311) 
False

>  <organisms>  (1311) 
Neoraputia alba|Neoraputia paraensis

>  <collections>  (1311) 
KNApSaCK|Latin America dataset|NPEdia|NuBBEDB|Super Natural II|UNPD (Universal Natural Products Database)|WikiData Natural Products|ZINC NP

>  <dois>  (1311) 
10.1016/S0031-9422(00)98280-3|10.1211/JPP.61.02.0017|10.1590/S0103-50532003000300007

>  <synonyms>  (1311) 
3'4'78-tetramethoxy-56-(2''2''-dimethylpyrano)-flavone|7,8,3',4'-Tetramethoxy-6'',6''-dimethylpyrano[2'',3'':5,6]flavone|8-(3,4-dimethoxyphenyl)-5,6-dimethoxy-2,2-dimethylpyrano[2,3-]chromen-10-one|CHEBI:187804|LMPK12111396

>  <cas>  (1311) 
nan

$$$$

     RDKit          2D

 37 40  0  0  0  0  0  0  0  0999 V2000
   -5.5663    3.3871    0.0000 C   0  0  0  0  0  0  0  0  0  0  0  0
   -6.0277    1.9599    0.0000 O   0  0  0  0  0  0  0  0  0  0  0  0
   -5.0224    0.8466    0.0000 C   0  0  0  0  0  0  0  0  0  0  0  0
   -3.5556    1.1607    0.0000 C   0  0  0  0  0  0  0  0  0  0  0  0
   -2.5502    0.0475    0.0000 C   0  0  0  0  0  0  0  0  0  0  0  0
   -1.0835    0.3616    0.0000 C   0  0  0  0  0  0  0  0  0  0  0  0
   -0.6221    1.7889    0.0000 C   0  0  0  0  0  0  0  0  0  0  0  0
    0.8446    2.1029    0.0000 C   0  0  0  0  0  0  0  0  0  0  0  0
    1.3060    3.5302    0.0000 O   0  0  0  0  0  0  0  0  0  0  0  0
    1.8500    0.9897    0.0000 C   0  0  0  0  0  0  0  0  0  0  0  0
    3.3168    1.3038    0.0000 C   0  0  0  0  0  0  0  0  0  0  0  0
    3.7782    2.7311    0.0000 O   0  0  0  0  0  0  0  0  0  0  0  0
    5.2449    3.0452    0.0000 C   0  0  0  0  0  0  0  0  0  0  0  0
    5.7063    4.4724    0.0000 C   0  0  0  0  0  0  0  0  0  0  0  0
    6.2503    1.9319    0.0000 O   0  0  0  0  0  0  0  0  0  0  0  0
    4.3221    0.1906    0.0000 C   0  0  0  0  0  0  0  0  0  0  0  0
    3.8608   -1.2367    0.0000 C   0  0  0  0  0  0  0  0  0  0  0  0
    4.8661   -2.3499    0.0000 O   0  0  0  0  0  0  0  0  0  0  0  0
    6.3329   -2.0358    0.0000 C   0  0  0  0  0  0  0  0  0  0  0  0
    7.8186   -2.2424    0.0000 C   0  0  0  0  0  0  0  0  0  0  0  0
    6.3875   -3.5348    0.0000 C   0  0  0  0  0  0  0  0  0  0  0  0
    6.7943   -0.6085    0.0000 C   0  0  0  0  0  0  0  0  0  0  0  0
    5.7889    0.5047    0.0000 C   0  0  0  0  0  0  0  0  0  0  0  0
    2.3940   -1.5508    0.0000 C   0  0  0  0  0  0  0  0  0  0  0  0
    1.9326   -2.9780    0.0000 O   0  0  0  0  0  0  0  0  0  0  0  0
    0.4659   -3.2921    0.0000 C   0  0  0  0  0  0  0  0  0  0  0  0
    1.3886   -0.4376    0.0000 C   0  0  0  0  0  0  0  0  0  0  0  0
   -0.0781   -0.7516    0.0000 O   0  0  0  0  0  0  0  0  0  0  0  0
   -3.0116   -1.3798    0.0000 C   0  0  0  0  0  0  0  0  0  0  0  0
   -4.4784   -1.6938    0.0000 C   0  0  0  0  0  0  0  0  0  0  0  0
   -4.9397   -3.1211    0.0000 O   0  0  0  0  0  0  0  0  0  0  0  0
   -6.4065   -3.4352    0.0000 C   0  0  0  0  0  0  0  0  0  0  0  0
   -5.4837   -0.5806    0.0000 C   0  0  0  0  0  0  0  0  0  0  0  0
   -6.9505   -0.8947    0.0000 O   0  0  0  0  0  0  0  0  0  0  0  0
   -7.9559    0.2185    0.0000 C   0  0  0  0  0  0  0  0  0  0  0  0
   -9.4226   -0.0956    0.0000 C   0  0  0  0  0  0  0  0  0  0  0  0
   -7.4945    1.6458    0.0000 O   0  0  0  0  0  0  0  0  0  0  0  0
  1  2  1  0
  2  3  1  0
  3  4  2  0
  4  5  1  0
  5  6  1  0
  6  7  2  0
  7  8  1  0
  8  9  2  0
  8 10  1  0
 10 11  2  0
 11 12  1  0
 12 13  1  0
 13 14  1  0
 13 15  2  0
 11 16  1  0
 16 17  2  0
 17 18  1  0
 18 19  1  0
 19 20  1  0
 19 21  1  0
 19 22  1  0
 22 23  2  0
 17 24  1  0
 24 25  1  0
 25 26  1  0
 24 27  2  0
 27 28  1  0
  5 29  2  0
 29 30  1  0
 30 31  1  0
 31 32  1  0
 30 33  2  0
 33 34  1  0
 34 35  1  0
 35 36  1  0
 35 37  2  0
 33  3  1  0
 28  6  1  0
 27 10  1  0
 23 16  1  0
M  END
>  <identifier>  (1312) 
CNP0080452.0

>  <canonical_smiles>  (1312) 
COC1=CC(C2=CC(=O)C3=C(OC(C)=O)C4=C(OC(C)(C)C=C4)C(OC)=C3O2)=CC(OC)=C1OC(C)=O

>  <standard_inchi>  (1312) 
InChI=1S/C27H26O10/c1-13(28)34-22-16-8-9-27(3,4)37-23(16)26(33-7)25-21(22)17(30)12-18(36-25)15-10-19(31-5)24(35-14(2)29)20(11-15)32-6/h8-12H,1-7H3

>  <standard_inchi_key>  (1312) 
FBRSFBGOPZNHIQ-UHFFFAOYSA-N

>  <name>  (1312) 
nan

>  <iupac_name>  (1312) 
[4-(5-acetoxy-10-methoxy-2,2-dimethyl-6-oxo-pyrano[3,2-g]chromen-8-yl)-2,6-dimethoxy-phenyl] acetate

>  <annotation_level>  (1312) 
4

>  <total_atom_count>  (1312) 
63

>  <heavy_atom_count>  (1312) 
37

>  <molecular_weight>  (1312) 
510.5

>  <exact_molecular_weight>  (1312) 
510.1526

>  <molecular_formula>  (1312) 
C27H26O10

>  <alogp>  (1312) 
4.52

>  <topological_polar_surface_area>  (1312) 
119.73

>  <rotatable_bond_count>  (1312) 
6

>  <hydrogen_bond_acceptors>  (1312) 
10

>  <hydrogen_bond_donors>  (1312) 
0

>  <hydrogen_bond_acceptors_lipinski>  (1312) 
10

>  <hydrogen_bond_donors_lipinski>  (1312) 
0

>  <lipinski_rule_of_five_violations>  (1312) 
1

>  <aromatic_rings_count>  (1312) 
3

>  <qed_drug_likeliness>  (1312) 
0.35

>  <formal_charge>  (1312) 
0

>  <fractioncsp3>  (1312) 
0.30

>  <number_of_minimal_rings>  (1312) 
4

>  <van_der_walls_volume>  (1312) 
nan

>  <contains_sugar>  (1312) 
False

>  <contains_ring_sugars>  (1312) 
False

>  <contains_linear_sugars>  (1312) 
False

>  <murcko_framework>  (1312) 
O1c2cc3OCC=Cc3cc2CC=C1c4ccccc4

>  <np_likeness>  (1312) 
1.66

>  <chemical_class>  (1312) 
Flavonoids

>  <chemical_sub_class>  (1312) 
Pyranoflavonoids

>  <chemical_super_class>  (1312) 
Phenylpropanoids and polyketides

>  <direct_parent_classification>  (1312) 
Pyranoflavonoids

>  <np_classifier_pathway>  (1312) 
Shikimates and Phenylpropanoids

>  <np_classifier_superclass>  (1312) 
Flavonoids

>  <np_classifier_class>  (1312) 
Flavones

>  <np_classifier_is_glycoside>  (1312) 
False

>  <organisms>  (1312) 
Neoraputia paraensis

>  <collections>  (1312) 
Latin America dataset|NuBBEDB|WikiData Natural Products|ZINC NP

>  <dois>  (1312) 
10.1016/S0031-9422(99)00197-1

>  <synonyms>  (1312) 
3'5'-diacetyl-54'-dihydroxy-8-methoxy-67-(2''2''-dimethylpyran)flavone (3)

>  <cas>  (1312) 
nan

$$$$

     RDKit          2D

 29 30  0  0  0  0  0  0  0  0999 V2000
  -12.6585    0.2180    0.0000 C   0  0  0  0  0  0  0  0  0  0  0  0
  -11.2618    0.7650    0.0000 C   0  0  0  0  0  0  0  0  0  0  0  0
  -11.0372    2.2481    0.0000 C   0  0  0  0  0  0  0  0  0  0  0  0
  -10.0897   -0.1710    0.0000 C   0  0  0  0  0  0  0  0  0  0  0  0
   -8.6930    0.3760    0.0000 C   0  0  0  0  0  0  0  0  0  0  0  0
   -7.5209   -0.5600    0.0000 C   0  0  0  0  0  0  0  0  0  0  0  0
   -6.1242   -0.0130    0.0000 C   0  0  0  0  0  0  0  0  0  0  0  0
   -5.8996    1.4701    0.0000 C   0  0  0  0  0  0  0  0  0  0  0  0
   -4.9521   -0.9491    0.0000 C   0  0  0  0  0  0  0  0  0  0  0  0
   -3.5554   -0.4020    0.0000 C   0  0  0  0  0  0  0  0  0  0  0  0
   -2.3833   -1.3381    0.0000 C   0  0  0  0  0  0  0  0  0  0  0  0
   -0.9866   -0.7910    0.0000 C   0  0  0  0  0  0  0  0  0  0  0  0
   -0.7620    0.6920    0.0000 C   0  0  0  0  0  0  0  0  0  0  0  0
    0.1855   -1.7271    0.0000 C   0  0  0  0  0  0  0  0  0  0  0  0
    1.5822   -1.1801    0.0000 C   0  0  0  0  0  0  0  0  0  0  0  0
    2.7543   -2.1161    0.0000 C   0  0  0  0  0  0  0  0  0  0  0  0
    4.1509   -1.5691    0.0000 C   0  0  0  0  0  0  0  0  0  0  0  0
    4.4471   -3.0396    0.0000 C   0  0  0  0  0  0  0  0  0  0  0  0
    3.3697   -0.2886    0.0000 C   0  0  0  0  0  0  0  0  0  0  0  0
    4.0880    1.0282    0.0000 C   0  0  0  0  0  0  0  0  0  0  0  0
    5.5876    1.0646    0.0000 C   0  0  0  0  0  0  0  0  0  0  0  0
    6.3059    2.3814    0.0000 C   0  0  0  0  0  0  0  0  0  0  0  0
    7.8054    2.4177    0.0000 C   0  0  0  0  0  0  0  0  0  0  0  0
    8.5237    3.7346    0.0000 O   0  0  0  0  0  0  0  0  0  0  0  0
    8.5867    1.1373    0.0000 C   0  0  0  0  0  0  0  0  0  0  0  0
    7.8684   -0.1796    0.0000 C   0  0  0  0  0  0  0  0  0  0  0  0
    8.6496   -1.4601    0.0000 C   0  0  0  0  0  0  0  0  0  0  0  0
    6.3688   -0.2159    0.0000 C   0  0  0  0  0  0  0  0  0  0  0  0
    5.6505   -1.5327    0.0000 O   0  0  0  0  0  0  0  0  0  0  0  0
  1  2  1  0
  2  3  1  0
  2  4  2  0
  4  5  1  0
  5  6  1  0
  6  7  1  0
  7  8  1  0
  7  9  2  0
  9 10  1  0
 10 11  1  0
 11 12  1  0
 12 13  1  0
 12 14  2  0
 14 15  1  0
 15 16  1  0
 16 17  1  0
 17 18  1  0
 17 19  1  0
 19 20  1  0
 20 21  1  0
 21 22  2  0
 22 23  1  0
 23 24  1  0
 23 25  2  0
 25 26  1  0
 26 27  1  0
 26 28  2  0
 28 29  1  0
 29 17  1  0
 28 21  1  0
M  END
>  <identifier>  (1313) 
CNP0125245.5

>  <canonical_smiles>  (1313) 
CC(C)=CCC/C(C)=C/CC/C(C)=C/CCC1(C)CCC2=CC(O)=CC(C)=C2O1

>  <standard_inchi>  (1313) 
InChI=1S/C27H40O2/c1-20(2)10-7-11-21(3)12-8-13-22(4)14-9-16-27(6)17-15-24-19-25(28)18-23(5)26(24)29-27/h10,12,14,18-19,28H,7-9,11,13,15-17H2,1-6H3/b21-12+,22-14+

>  <standard_inchi_key>  (1313) 
ODADKLYLWWCHNB-QRCIITMISA-N

>  <name>  (1313) 
nan

>  <iupac_name>  (1313) 
nan

>  <annotation_level>  (1313) 
0

>  <total_atom_count>  (1313) 
69

>  <heavy_atom_count>  (1313) 
29

>  <molecular_weight>  (1313) 
396.62

>  <exact_molecular_weight>  (1313) 
396.30283

>  <molecular_formula>  (1313) 
C27H40O2

>  <alogp>  (1313) 
7.98

>  <topological_polar_surface_area>  (1313) 
29.46

>  <rotatable_bond_count>  (1313) 
9

>  <hydrogen_bond_acceptors>  (1313) 
2

>  <hydrogen_bond_donors>  (1313) 
1

>  <hydrogen_bond_acceptors_lipinski>  (1313) 
2

>  <hydrogen_bond_donors_lipinski>  (1313) 
1

>  <lipinski_rule_of_five_violations>  (1313) 
1

>  <aromatic_rings_count>  (1313) 
1

>  <qed_drug_likeliness>  (1313) 
0.43

>  <formal_charge>  (1313) 
0

>  <fractioncsp3>  (1313) 
0.56

>  <number_of_minimal_rings>  (1313) 
2

>  <van_der_walls_volume>  (1313) 
418.93

>  <contains_sugar>  (1313) 
False

>  <contains_ring_sugars>  (1313) 
False

>  <contains_linear_sugars>  (1313) 
False

>  <murcko_framework>  (1313) 
O1c2ccccc2CCC1

>  <np_likeness>  (1313) 
2.22

>  <chemical_class>  (1313) 
nan

>  <chemical_sub_class>  (1313) 
nan

>  <chemical_super_class>  (1313) 
nan

>  <direct_parent_classification>  (1313) 
nan

>  <np_classifier_pathway>  (1313) 
Terpenoids

>  <np_classifier_superclass>  (1313) 
Meroterpenoids

>  <np_classifier_class>  (1313) 
Prenyl quinone meroterpenoids

>  <np_classifier_is_glycoside>  (1313) 
False

>  <organisms>  (1313) 
Cystophora moniliformis|Iryanthera grandis

>  <collections>  (1313) 
Australian natural products|FooDB|Latin America dataset|NuBBEDB

>  <dois>  (1313) 
10.1016/S0031-9422(00)80162-4|10.1016/j.bse.2009.12.010

>  <synonyms>  (1313) 
nan

>  <cas>  (1313) 
nan

$$$$

     RDKit          2D

 12 12  0  0  0  0  0  0  0  0999 V2000
   -5.2230    0.5318    0.0000 C   0  0  0  0  0  0  0  0  0  0  0  0
   -3.7809    0.9446    0.0000 N   0  0  0  0  0  0  0  0  0  0  0  0
   -2.7024   -0.0979    0.0000 C   0  0  0  0  0  0  0  0  0  0  0  0
   -3.0660   -1.5532    0.0000 O   0  0  0  0  0  0  0  0  0  0  0  0
   -1.2603    0.3149    0.0000 C   0  0  0  0  0  0  0  0  0  0  0  0
   -0.1818   -0.7276    0.0000 C   0  0  0  0  0  0  0  0  0  0  0  0
    1.2603   -0.3149    0.0000 C   0  0  0  0  0  0  0  0  0  0  0  0
    1.6239    1.1404    0.0000 C   0  0  0  0  0  0  0  0  0  0  0  0
    3.0660    1.5532    0.0000 C   0  0  0  0  0  0  0  0  0  0  0  0
    4.1445    0.5107    0.0000 C   0  0  0  0  0  0  0  0  0  0  0  0
    3.7809   -0.9446    0.0000 C   0  0  0  0  0  0  0  0  0  0  0  0
    2.3388   -1.3574    0.0000 C   0  0  0  0  0  0  0  0  0  0  0  0
  1  2  1  0
  2  3  1  0
  3  4  2  0
  3  5  1  0
  5  6  2  0
  6  7  1  0
  7  8  2  0
  8  9  1  0
  9 10  2  0
 10 11  1  0
 11 12  2  0
 12  7  1  0
M  END
>  <identifier>  (1314) 
CNP0112097.1

>  <canonical_smiles>  (1314) 
CNC(=O)/C=C/C1=CC=CC=C1

>  <standard_inchi>  (1314) 
InChI=1S/C10H11NO/c1-11-10(12)8-7-9-5-3-2-4-6-9/h2-8H,1H3,(H,11,12)/b8-7+

>  <standard_inchi_key>  (1314) 
JNXLTSSPACJLEG-BQYQJAHWSA-N

>  <name>  (1314) 
nan

>  <iupac_name>  (1314) 
nan

>  <annotation_level>  (1314) 
0

>  <total_atom_count>  (1314) 
23

>  <heavy_atom_count>  (1314) 
12

>  <molecular_weight>  (1314) 
161.2

>  <exact_molecular_weight>  (1314) 
161.08406

>  <molecular_formula>  (1314) 
C10H11NO

>  <alogp>  (1314) 
1.45

>  <topological_polar_surface_area>  (1314) 
29.10

>  <rotatable_bond_count>  (1314) 
2

>  <hydrogen_bond_acceptors>  (1314) 
1

>  <hydrogen_bond_donors>  (1314) 
1

>  <hydrogen_bond_acceptors_lipinski>  (1314) 
1

>  <hydrogen_bond_donors_lipinski>  (1314) 
1

>  <lipinski_rule_of_five_violations>  (1314) 
0

>  <aromatic_rings_count>  (1314) 
1

>  <qed_drug_likeliness>  (1314) 
0.65

>  <formal_charge>  (1314) 
0

>  <fractioncsp3>  (1314) 
0.10

>  <number_of_minimal_rings>  (1314) 
1

>  <van_der_walls_volume>  (1314) 
158.90

>  <contains_sugar>  (1314) 
False

>  <contains_ring_sugars>  (1314) 
False

>  <contains_linear_sugars>  (1314) 
False

>  <murcko_framework>  (1314) 
c1ccccc1

>  <np_likeness>  (1314) 
-0.12

>  <chemical_class>  (1314) 
nan

>  <chemical_sub_class>  (1314) 
nan

>  <chemical_super_class>  (1314) 
nan

>  <direct_parent_classification>  (1314) 
nan

>  <np_classifier_pathway>  (1314) 
Amino acids and Peptides

>  <np_classifier_superclass>  (1314) 
Phenylpropanoids (C6-C3)

>  <np_classifier_class>  (1314) 
Cinnamic acid amides

>  <np_classifier_is_glycoside>  (1314) 
False

>  <organisms>  (1314) 
Swinglea glutinosa

>  <collections>  (1314) 
Latin America dataset|NuBBEDB|WikiData Natural Products|ZINC NP

>  <dois>  (1314) 
10.1590/S0100-40422012001100015|10.1590/S0100-40422012001100015√Ç¬†

>  <synonyms>  (1314) 
nan

>  <cas>  (1314) 
nan

$$$$

     RDKit          2D

 31 31  0  0  0  0  0  0  0  0999 V2000
  -11.6334    2.9738    0.0000 C   0  0  0  0  0  0  0  0  0  0  0  0
  -10.7095    1.7921    0.0000 C   0  0  0  0  0  0  0  0  0  0  0  0
  -11.2710    0.4012    0.0000 C   0  0  0  0  0  0  0  0  0  0  0  0
   -9.2242    2.0014    0.0000 C   0  0  0  0  0  0  0  0  0  0  0  0
   -8.3003    0.8196    0.0000 C   0  0  0  0  0  0  0  0  0  0  0  0
   -6.8150    1.0289    0.0000 C   0  0  0  0  0  0  0  0  0  0  0  0
   -5.8911   -0.1528    0.0000 C   0  0  0  0  0  0  0  0  0  0  0  0
   -4.4058    0.0564    0.0000 C   0  0  0  0  0  0  0  0  0  0  0  0
   -3.4819   -1.1253    0.0000 C   0  0  0  0  0  0  0  0  0  0  0  0
   -1.9966   -0.9160    0.0000 C   0  0  0  0  0  0  0  0  0  0  0  0
   -1.0727   -2.0978    0.0000 C   0  0  0  0  0  0  0  0  0  0  0  0
   -1.6342   -3.4887    0.0000 C   0  0  0  0  0  0  0  0  0  0  0  0
    0.4126   -1.8885    0.0000 C   0  0  0  0  0  0  0  0  0  0  0  0
    0.9741   -0.4975    0.0000 C   0  0  0  0  0  0  0  0  0  0  0  0
    2.4594   -0.2883    0.0000 C   0  0  0  0  0  0  0  0  0  0  0  0
    3.0209    1.1027    0.0000 C   0  0  0  0  0  0  0  0  0  0  0  0
    2.0970    2.2844    0.0000 C   0  0  0  0  0  0  0  0  0  0  0  0
    4.5062    1.3119    0.0000 C   0  0  0  0  0  0  0  0  0  0  0  0
    5.4301    0.1302    0.0000 C   0  0  0  0  0  0  0  0  0  0  0  0
    6.9154    0.3394    0.0000 C   0  0  0  0  0  0  0  0  0  0  0  0
    7.4769    1.7304    0.0000 C   0  0  0  0  0  0  0  0  0  0  0  0
    8.9622    1.9396    0.0000 C   0  0  0  0  0  0  0  0  0  0  0  0
    9.5237    3.3306    0.0000 O   0  0  0  0  0  0  0  0  0  0  0  0
    9.8861    0.7579    0.0000 C   0  0  0  0  0  0  0  0  0  0  0  0
    9.3246   -0.6330    0.0000 C   0  0  0  0  0  0  0  0  0  0  0  0
   10.2485   -1.8147    0.0000 C   0  0  0  0  0  0  0  0  0  0  0  0
    7.8393   -0.8423    0.0000 C   0  0  0  0  0  0  0  0  0  0  0  0
    7.2779   -2.2332    0.0000 O   0  0  0  0  0  0  0  0  0  0  0  0
   -6.4526   -1.5438    0.0000 C   0  0  0  0  0  0  0  0  0  0  0  0
   -5.5287   -2.7255    0.0000 O   0  0  0  0  0  0  0  0  0  0  0  0
   -7.9379   -1.7530    0.0000 O   0  0  0  0  0  0  0  0  0  0  0  0
  1  2  1  0
  2  3  1  0
  2  4  2  0
  4  5  1  0
  5  6  1  0
  6  7  1  0
  7  8  2  0
  8  9  1  0
  9 10  1  0
 10 11  1  0
 11 12  1  0
 11 13  2  3
 13 14  1  0
 14 15  1  0
 15 16  1  0
 16 17  1  0
 16 18  2  3
 18 19  1  0
 19 20  1  0
 20 21  2  0
 21 22  1  0
 22 23  2  0
 22 24  1  0
 24 25  2  0
 25 26  1  0
 25 27  1  0
 27 28  2  0
  7 29  1  0
 29 30  2  0
 29 31  1  0
 27 20  1  0
M  END
>  <identifier>  (1315) 
CNP0184893.3

>  <canonical_smiles>  (1315) 
CC(C)=CCC/C(=C/CCC(C)=CCCC(C)=CCC1=CC(=O)C=C(C)C1=O)C(=O)O

>  <standard_inchi>  (1315) 
InChI=1S/C27H36O4/c1-19(2)9-6-13-23(27(30)31)14-8-12-20(3)10-7-11-21(4)15-16-24-18-25(28)17-22(5)26(24)29/h9-10,14-15,17-18H,6-8,11-13,16H2,1-5H3,(H,30,31)/b20-10?,21-15?,23-14-

>  <standard_inchi_key>  (1315) 
IKUIJYZNRMQNBM-VGTVPYEMSA-N

>  <name>  (1315) 
nan

>  <iupac_name>  (1315) 
nan

>  <annotation_level>  (1315) 
0

>  <total_atom_count>  (1315) 
67

>  <heavy_atom_count>  (1315) 
31

>  <molecular_weight>  (1315) 
424.58

>  <exact_molecular_weight>  (1315) 
424.26136

>  <molecular_formula>  (1315) 
C27H36O4

>  <alogp>  (1315) 
6.61

>  <topological_polar_surface_area>  (1315) 
71.44

>  <rotatable_bond_count>  (1315) 
12

>  <hydrogen_bond_acceptors>  (1315) 
3

>  <hydrogen_bond_donors>  (1315) 
1

>  <hydrogen_bond_acceptors_lipinski>  (1315) 
3

>  <hydrogen_bond_donors_lipinski>  (1315) 
1

>  <lipinski_rule_of_five_violations>  (1315) 
1

>  <aromatic_rings_count>  (1315) 
0

>  <qed_drug_likeliness>  (1315) 
0.22

>  <formal_charge>  (1315) 
0

>  <fractioncsp3>  (1315) 
0.44

>  <number_of_minimal_rings>  (1315) 
1

>  <van_der_walls_volume>  (1315) 
431.62

>  <contains_sugar>  (1315) 
False

>  <contains_ring_sugars>  (1315) 
False

>  <contains_linear_sugars>  (1315) 
False

>  <murcko_framework>  (1315) 
C1=CCC=CC1

>  <np_likeness>  (1315) 
2.21

>  <chemical_class>  (1315) 
nan

>  <chemical_sub_class>  (1315) 
nan

>  <chemical_super_class>  (1315) 
nan

>  <direct_parent_classification>  (1315) 
nan

>  <np_classifier_pathway>  (1315) 
Terpenoids

>  <np_classifier_superclass>  (1315) 
Meroterpenoids

>  <np_classifier_class>  (1315) 
Prenyl quinone meroterpenoids

>  <np_classifier_is_glycoside>  (1315) 
False

>  <organisms>  (1315) 
Iryanthera juruensis

>  <collections>  (1315) 
Latin America dataset|NuBBEDB

>  <dois>  (1315) 
10.1016/S0031-9422(00)00477-5

>  <synonyms>  (1315) 
nan

>  <cas>  (1315) 
nan

$$$$

     RDKit          2D

 28 30  0  0  0  0  0  0  0  0999 V2000
    8.3276   -0.4241    0.0000 C   0  0  0  0  0  0  0  0  0  0  0  0
    6.8707   -0.7811    0.0000 C   0  0  0  0  0  0  0  0  0  0  0  0
    5.8330    0.3021    0.0000 C   0  0  0  0  0  0  0  0  0  0  0  0
    4.3761   -0.0549    0.0000 C   0  0  0  0  0  0  0  0  0  0  0  0
    4.9807   -1.4277    0.0000 O   0  0  0  0  0  0  0  0  0  0  0  0
    4.0941   -2.6376    0.0000 C   0  0  0  0  0  0  0  0  0  0  0  0
    3.1292   -0.8886    0.0000 C   0  0  0  0  0  0  0  0  0  0  0  0
    1.7837   -0.2256    0.0000 C   0  0  0  0  0  0  0  0  0  0  0  0
    1.6851    1.2711    0.0000 C   0  0  0  0  0  0  0  0  0  0  0  0
    2.9320    2.1049    0.0000 C   0  0  0  0  0  0  0  0  0  0  0  0
    4.2776    1.4419    0.0000 C   0  0  0  0  0  0  0  0  0  0  0  0
    5.5245    2.2756    0.0000 O   0  0  0  0  0  0  0  0  0  0  0  0
    0.2311    1.6399    0.0000 O   0  0  0  0  0  0  0  0  0  0  0  0
   -0.5689    0.3710    0.0000 C   0  0  0  0  0  0  0  0  0  0  0  0
   -2.0656    0.2725    0.0000 C   0  0  0  0  0  0  0  0  0  0  0  0
   -2.8994    1.5194    0.0000 C   0  0  0  0  0  0  0  0  0  0  0  0
   -4.3961    1.4208    0.0000 C   0  0  0  0  0  0  0  0  0  0  0  0
   -5.2299    2.6678    0.0000 O   0  0  0  0  0  0  0  0  0  0  0  0
   -4.5669    4.0133    0.0000 C   0  0  0  0  0  0  0  0  0  0  0  0
   -5.0592    0.0753    0.0000 C   0  0  0  0  0  0  0  0  0  0  0  0
   -6.5559   -0.0233    0.0000 O   0  0  0  0  0  0  0  0  0  0  0  0
   -7.2189   -1.3688    0.0000 C   0  0  0  0  0  0  0  0  0  0  0  0
   -4.2254   -1.1716    0.0000 C   0  0  0  0  0  0  0  0  0  0  0  0
   -4.8884   -2.5171    0.0000 O   0  0  0  0  0  0  0  0  0  0  0  0
   -4.0547   -3.7641    0.0000 C   0  0  0  0  0  0  0  0  0  0  0  0
   -2.7286   -1.0731    0.0000 C   0  0  0  0  0  0  0  0  0  0  0  0
    0.3906   -0.7819    0.0000 C   0  0  0  0  0  0  0  0  0  0  0  0
    0.0219   -2.2359    0.0000 C   0  0  0  0  0  0  0  0  0  0  0  0
  1  2  2  0
  2  3  1  0
  4  3  1  1
  4  5  1  0
  5  6  1  0
  4  7  1  0
  7  8  2  0
  8  9  1  0
  9 10  2  0
 10 11  1  0
 11 12  2  0
  9 13  1  0
 13 14  1  0
 14 15  1  1
 15 16  2  0
 16 17  1  0
 17 18  1  0
 18 19  1  0
 17 20  2  0
 20 21  1  0
 21 22  1  0
 20 23  1  0
 23 24  1  0
 24 25  1  0
 23 26  2  0
 14 27  1  0
 27 28  1  6
 11  4  1  0
 26 15  1  0
 27  8  1  0
M  END
>  <identifier>  (1316) 
CNP0316836.2

>  <canonical_smiles>  (1316) 
C=CC[C@@]1(OC)C=C2C(=CC1=O)O[C@H](C1=CC(OC)=C(OC)C(OC)=C1)[C@H]2C

>  <standard_inchi>  (1316) 
InChI=1S/C22H26O6/c1-7-8-22(27-6)12-15-13(2)20(28-16(15)11-19(22)23)14-9-17(24-3)21(26-5)18(10-14)25-4/h7,9-13,20H,1,8H2,2-6H3/t13-,20-,22+/m0/s1

>  <standard_inchi_key>  (1316) 
KDQGWTQUOFLYNK-DLQQFWPKSA-N

>  <name>  (1316) 
nan

>  <iupac_name>  (1316) 
(2~{S},3~{S},5~{R})-5-allyl-5-methoxy-3-methyl-2-(3,4,5-trimethoxyphenyl)-2,3-dihydrobenzofuran-6-one

>  <annotation_level>  (1316) 
4

>  <total_atom_count>  (1316) 
54

>  <heavy_atom_count>  (1316) 
28

>  <molecular_weight>  (1316) 
386.44

>  <exact_molecular_weight>  (1316) 
386.17294

>  <molecular_formula>  (1316) 
C22H26O6

>  <alogp>  (1316) 
3.77

>  <topological_polar_surface_area>  (1316) 
63.22

>  <rotatable_bond_count>  (1316) 
7

>  <hydrogen_bond_acceptors>  (1316) 
6

>  <hydrogen_bond_donors>  (1316) 
0

>  <hydrogen_bond_acceptors_lipinski>  (1316) 
6

>  <hydrogen_bond_donors_lipinski>  (1316) 
0

>  <lipinski_rule_of_five_violations>  (1316) 
0

>  <aromatic_rings_count>  (1316) 
1

>  <qed_drug_likeliness>  (1316) 
0.66

>  <formal_charge>  (1316) 
0

>  <fractioncsp3>  (1316) 
0.41

>  <number_of_minimal_rings>  (1316) 
3

>  <van_der_walls_volume>  (1316) 
nan

>  <contains_sugar>  (1316) 
False

>  <contains_ring_sugars>  (1316) 
False

>  <contains_linear_sugars>  (1316) 
False

>  <murcko_framework>  (1316) 
O1C2=CCCC=C2CC1c3ccccc3

>  <np_likeness>  (1316) 
2.10

>  <chemical_class>  (1316) 
Phenol ethers

>  <chemical_sub_class>  (1316) 
Anisoles

>  <chemical_super_class>  (1316) 
Benzenoids

>  <direct_parent_classification>  (1316) 
Anisoles

>  <np_classifier_pathway>  (1316) 
Shikimates and Phenylpropanoids

>  <np_classifier_superclass>  (1316) 
Lignans

>  <np_classifier_class>  (1316) 
Neolignans

>  <np_classifier_is_glycoside>  (1316) 
False

>  <organisms>  (1316) 
Aniba riparia|Nectandra sp.|Rhodostemonodaphne miranda

>  <collections>  (1316) 
Latin America dataset|NuBBEDB|Super Natural II|WikiData Natural Products|ZINC NP

>  <dois>  (1316) 
10.1016/0031-9422(80)87033-6|10.1016/S0031-9422(00)83890-X

>  <synonyms>  (1316) 
(2S3S5R)-5-allyl-5-methoxy-2-(3'4'5'-trimethoxyphenyl)-3-methyl-2356-tetrahydro-6-oxobenzofuran

>  <cas>  (1316) 
nan

$$$$

     RDKit          2D

 31 33  0  0  0  0  0  0  0  0999 V2000
   -7.1476    2.8395    0.0000 C   0  0  0  0  0  0  0  0  0  0  0  0
   -6.7697    1.3879    0.0000 O   0  0  0  0  0  0  0  0  0  0  0  0
   -5.3237    0.9893    0.0000 C   0  0  0  0  0  0  0  0  0  0  0  0
   -4.2554    2.0423    0.0000 C   0  0  0  0  0  0  0  0  0  0  0  0
   -2.8094    1.6437    0.0000 C   0  0  0  0  0  0  0  0  0  0  0  0
   -2.4315    0.1921    0.0000 C   0  0  0  0  0  0  0  0  0  0  0  0
   -0.9855   -0.2065    0.0000 C   0  0  0  0  0  0  0  0  0  0  0  0
   -0.6076   -1.6581    0.0000 C   0  0  0  0  0  0  0  0  0  0  0  0
   -1.6759   -2.7112    0.0000 O   0  0  0  0  0  0  0  0  0  0  0  0
   -3.1219   -2.3126    0.0000 C   0  0  0  0  0  0  0  0  0  0  0  0
    0.8384   -2.0567    0.0000 C   0  0  0  0  0  0  0  0  0  0  0  0
    1.2163   -3.5084    0.0000 O   0  0  0  0  0  0  0  0  0  0  0  0
    1.9067   -1.0037    0.0000 C   0  0  0  0  0  0  0  0  0  0  0  0
    3.3527   -1.4023    0.0000 C   0  0  0  0  0  0  0  0  0  0  0  0
    3.7306   -2.8539    0.0000 O   0  0  0  0  0  0  0  0  0  0  0  0
    5.1766   -3.2525    0.0000 C   0  0  0  0  0  0  0  0  0  0  0  0
    4.4210   -0.3493    0.0000 C   0  0  0  0  0  0  0  0  0  0  0  0
    5.8670   -0.7479    0.0000 O   0  0  0  0  0  0  0  0  0  0  0  0
    6.9353    0.3052    0.0000 C   0  0  0  0  0  0  0  0  0  0  0  0
    4.0431    1.1024    0.0000 C   0  0  0  0  0  0  0  0  0  0  0  0
    5.1114    2.1554    0.0000 O   0  0  0  0  0  0  0  0  0  0  0  0
    4.7335    3.6070    0.0000 C   0  0  0  0  0  0  0  0  0  0  0  0
    2.5971    1.5010    0.0000 C   0  0  0  0  0  0  0  0  0  0  0  0
    2.2192    2.9526    0.0000 O   0  0  0  0  0  0  0  0  0  0  0  0
    3.2875    4.0056    0.0000 C   0  0  0  0  0  0  0  0  0  0  0  0
    1.5288    0.4479    0.0000 C   0  0  0  0  0  0  0  0  0  0  0  0
    0.0828    0.8465    0.0000 O   0  0  0  0  0  0  0  0  0  0  0  0
   -3.4998   -0.8609    0.0000 C   0  0  0  0  0  0  0  0  0  0  0  0
   -4.9458   -0.4623    0.0000 C   0  0  0  0  0  0  0  0  0  0  0  0
   -6.0141   -1.5154    0.0000 O   0  0  0  0  0  0  0  0  0  0  0  0
   -7.4601   -1.1168    0.0000 C   0  0  0  0  0  0  0  0  0  0  0  0
  1  2  1  0
  2  3  1  0
  3  4  2  0
  4  5  1  0
  5  6  2  0
  6  7  1  0
  7  8  2  0
  8  9  1  0
  9 10  1  0
  8 11  1  0
 11 12  2  0
 11 13  1  0
 13 14  2  0
 14 15  1  0
 15 16  1  0
 14 17  1  0
 17 18  1  0
 18 19  1  0
 17 20  2  0
 20 21  1  0
 21 22  1  0
 20 23  1  0
 23 24  1  0
 24 25  1  0
 23 26  2  0
 26 27  1  0
  6 28  1  0
 28 29  2  0
 29 30  1  0
 30 31  1  0
 29  3  1  0
 27  7  1  0
 26 13  1  0
M  END
>  <identifier>  (1317) 
CNP0180965.0

>  <canonical_smiles>  (1317) 
COC1=CC=C(C2=C(OC)C(=O)C3=C(OC)C(OC)=C(OC)C(OC)=C3O2)C=C1OC

>  <standard_inchi>  (1317) 
InChI=1S/C22H24O9/c1-24-12-9-8-11(10-13(12)25-2)16-19(27-4)15(23)14-17(26-3)20(28-5)22(30-7)21(29-6)18(14)31-16/h8-10H,1-7H3

>  <standard_inchi_key>  (1317) 
SSXJHQZOHUYEGD-UHFFFAOYSA-N

>  <name>  (1317) 
1178-24-1

>  <iupac_name>  (1317) 
2-(3,4-dimethoxyphenyl)-3,5,6,7,8-pentamethoxy-chromen-4-one

>  <annotation_level>  (1317) 
5

>  <total_atom_count>  (1317) 
55

>  <heavy_atom_count>  (1317) 
31

>  <molecular_weight>  (1317) 
432.43

>  <exact_molecular_weight>  (1317) 
432.14203

>  <molecular_formula>  (1317) 
C22H24O9

>  <alogp>  (1317) 
3.52

>  <topological_polar_surface_area>  (1317) 
94.82

>  <rotatable_bond_count>  (1317) 
8

>  <hydrogen_bond_acceptors>  (1317) 
9

>  <hydrogen_bond_donors>  (1317) 
0

>  <hydrogen_bond_acceptors_lipinski>  (1317) 
9

>  <hydrogen_bond_donors_lipinski>  (1317) 
0

>  <lipinski_rule_of_five_violations>  (1317) 
0

>  <aromatic_rings_count>  (1317) 
3

>  <qed_drug_likeliness>  (1317) 
0.53

>  <formal_charge>  (1317) 
0

>  <fractioncsp3>  (1317) 
0.32

>  <number_of_minimal_rings>  (1317) 
3

>  <van_der_walls_volume>  (1317) 
376.58

>  <contains_sugar>  (1317) 
False

>  <contains_ring_sugars>  (1317) 
False

>  <contains_linear_sugars>  (1317) 
False

>  <murcko_framework>  (1317) 
O1c2ccccc2CC=C1c3ccccc3

>  <np_likeness>  (1317) 
0.92

>  <chemical_class>  (1317) 
Flavonoids

>  <chemical_sub_class>  (1317) 
O-methylated flavonoids

>  <chemical_super_class>  (1317) 
Phenylpropanoids and polyketides

>  <direct_parent_classification>  (1317) 
6-O-methylated flavonoids

>  <np_classifier_pathway>  (1317) 
Shikimates and Phenylpropanoids

>  <np_classifier_superclass>  (1317) 
Flavonoids

>  <np_classifier_class>  (1317) 
Flavonols

>  <np_classifier_is_glycoside>  (1317) 
False

>  <organisms>  (1317) 
Aceriphyllum rossii|Acinetobacter baumannii|Acinetobacter calcoaceticus|Agnorhiza bolanderi|Alligator mississippiensis|Anaxagorea clavata|Aralidium pinnatifidum|Araujia sericifera|Aria pallescens|Arnica nevadensis|Artemisia monogyna|Bassia butyracea|Bersama swinnyi|Beyeria brevifolia|Blainvillea latifolia|Boletinus paluster|Bursaria spinosa|Cheilanthes marantae|Cherry Orange|Chloranthus tianmushanensis|Chromolaena odorata|Chromolaena pulchella|Citrus Paradisi|Citrus Reticulata|Citrus Sinensis|Citrus aurantium|Citrus hassaku|Citrus japonica|Citrus madurensis|Citrus maxima|Citrus natsudaidai|Citrus nobilis|Citrus paradisi|Citrus reticulata|Citrus sinensis|Citrus sp.|Citrus spp.|Citrus trifoliata|Citrus unshiu|Citrus × deliciosa|Citrus × paradisi|Cladonia evansii|Clonostachys rosea|Coccus fagi|Croton caudatus|Croton sp.|Dendrosenecio kilimanjari|Dermocybe cardinalis|Dipterocarpus alatus|Drosera peltata|Echinops amplexicaulis|Epaltes gariepina|Euphorbia resinifera|Eurycoma longifolia|Ficus formosana|Fusarium gibbosum|Gardenia fosbergii|Geigeria schinzii|Goniothalamus undulatus|Helichrysum angustifolium|Helichrysum sutherlandii|Heterosigma akashiwo|Ilex affinis|Isodon kameba|Kaempferia pulchra|Kumquat|Lactarius scrobiculatus|Laurus Nobilis|Laurus nobilis L.|Leontice kiangnanensis|Lophiostoma vaginatispora|Lophocereus marginatus|Medium grandiflorum|Melicope triphylla|Monanchora unguiculata|Murraya exotica|Murraya paniculata|Nemuaron humboldtii|Odixia angusta|Ophryosporus charua|Pachycereus pringlei|Papaver radicatum|Penicillium alutaceum|Pericarpium citri reticulatae|Pheidole pallidula|Pinus glauca|Prosopis glandulosa|Prosopis kuntzei|Prunus laurocerasus|Pseudopterogorgia kallos|Pteris prolifera|Pteris spinulosa|Pterocarpus grandiflorus|Pyrosoma giganteum|Quercus aegilops|Rhizobium phaseoli|Russula sardonia|Salvia officinalis|Securidaca inappendiculata|Senecio squalidus|Seriphidium cinum|Sesbania punicea|Simira eliezeriana|Stenocereus thurberi|Stenostomum lucidum|Streptomyces althioticus|Taxodium mucronatum|Vitex madiensis|Vitex negundo|fairchild tangerine

>  <collections>  (1317) 
CMAUP (cCollective molecular activities of useful plants)|ETM (Ethiopian Traditional Medicine) DB|FooDB|KNApSaCK|Latin America dataset|NPACT|NPASS|NPEdia|NuBBEDB|Phenol-explorer|Phyto4Health|PhytoLab phyproof® Reference Substances|Super Natural II|TCMDB-Taiwan (Traditional Chinese Medicine database)|TCMID (Traditional Chinese Medicine Integrated Database)|TIPdb (database of Taiwan indigenous plants)|UNPD (Universal Natural Products Database)|VietHerb|WikiData Natural Products

>  <dois>  (1317) 
10.1016/0040-4020(61)80014-8|10.1016/J.BMC.2008.11.039|10.1021/JF801103P|10.1021/JF990153+|10.1021/NP400701K|10.1021/NP50115A006|10.1021/jf801103p|10.1021/jm970842h|10.1021/np400701k|10.1055/S-0028-1100072|10.1248/CPB.49.1356|10.3390/MOLECULES15031097|10.3987/COM-11-12228

>  <synonyms>  (1317) 
nan

>  <cas>  (1317) 
1178-24-1

$$$$

     RDKit          2D

 28 31  0  0  0  0  0  0  0  0999 V2000
   -8.0630    2.1023    0.0000 C   0  0  0  0  0  0  0  0  0  0  0  0
   -7.6490    0.6606    0.0000 O   0  0  0  0  0  0  0  0  0  0  0  0
   -6.1934    0.2983    0.0000 C   0  0  0  0  0  0  0  0  0  0  0  0
   -5.1518    1.3778    0.0000 C   0  0  0  0  0  0  0  0  0  0  0  0
   -3.6962    1.0155    0.0000 C   0  0  0  0  0  0  0  0  0  0  0  0
   -3.2822   -0.4262    0.0000 C   0  0  0  0  0  0  0  0  0  0  0  0
   -1.8266   -0.7885    0.0000 C   0  0  0  0  0  0  0  0  0  0  0  0
   -0.7850    0.2910    0.0000 C   0  0  0  0  0  0  0  0  0  0  0  0
   -1.1991    1.7327    0.0000 O   0  0  0  0  0  0  0  0  0  0  0  0
    0.6706   -0.0713    0.0000 C   0  0  0  0  0  0  0  0  0  0  0  0
    1.7121    1.0082    0.0000 C   0  0  0  0  0  0  0  0  0  0  0  0
    1.2980    2.4499    0.0000 O   0  0  0  0  0  0  0  0  0  0  0  0
    2.3395    3.5294    0.0000 C   0  0  0  0  0  0  0  0  0  0  0  0
    3.1677    0.6459    0.0000 C   0  0  0  0  0  0  0  0  0  0  0  0
    3.5818   -0.7958    0.0000 C   0  0  0  0  0  0  0  0  0  0  0  0
    2.5402   -1.8752    0.0000 C   0  0  0  0  0  0  0  0  0  0  0  0
    1.0846   -1.5130    0.0000 C   0  0  0  0  0  0  0  0  0  0  0  0
    0.0431   -2.5924    0.0000 O   0  0  0  0  0  0  0  0  0  0  0  0
   -1.4125   -2.2302    0.0000 C   0  0  0  0  0  0  0  0  0  0  0  0
   -2.4540   -3.3096    0.0000 O   0  0  0  0  0  0  0  0  0  0  0  0
    5.0374   -1.1580    0.0000 O   0  0  0  0  0  0  0  0  0  0  0  0
    6.0789   -0.0786    0.0000 C   0  0  0  0  0  0  0  0  0  0  0  0
    7.4268    0.5795    0.0000 C   0  0  0  0  0  0  0  0  0  0  0  0
    6.9611   -1.2917    0.0000 C   0  0  0  0  0  0  0  0  0  0  0  0
    5.6648    1.3631    0.0000 C   0  0  0  0  0  0  0  0  0  0  0  0
    4.2092    1.7254    0.0000 C   0  0  0  0  0  0  0  0  0  0  0  0
   -4.3237   -1.5057    0.0000 C   0  0  0  0  0  0  0  0  0  0  0  0
   -5.7793   -1.1434    0.0000 C   0  0  0  0  0  0  0  0  0  0  0  0
  1  2  1  0
  2  3  1  0
  3  4  2  0
  4  5  1  0
  5  6  2  0
  6  7  1  0
  7  8  2  0
  8  9  1  0
  8 10  1  0
 10 11  2  0
 11 12  1  0
 12 13  1  0
 11 14  1  0
 14 15  2  0
 15 16  1  0
 16 17  2  0
 17 18  1  0
 18 19  1  0
 19 20  2  0
 15 21  1  0
 21 22  1  0
 22 23  1  0
 22 24  1  0
 22 25  1  0
 25 26  2  0
  6 27  1  0
 27 28  2  0
 28  3  1  0
 19  7  1  0
 17 10  1  0
 26 14  1  0
M  END
>  <identifier>  (1318) 
CNP0279233.0

>  <canonical_smiles>  (1318) 
COC1=CC=C(C2=C(O)C3=C(OC)C4=C(C=C3OC2=O)OC(C)(C)C=C4)C=C1

>  <standard_inchi>  (1318) 
InChI=1S/C22H20O6/c1-22(2)10-9-14-15(28-22)11-16-18(20(14)26-4)19(23)17(21(24)27-16)12-5-7-13(25-3)8-6-12/h5-11,23H,1-4H3

>  <standard_inchi_key>  (1318) 
MBZKDBQDALOSRP-UHFFFAOYSA-N

>  <name>  (1318) 
Robustic acid

>  <iupac_name>  (1318) 
6-hydroxy-5-methoxy-7-(4-methoxyphenyl)-2,2-dimethyl-pyrano[3,2-g]chromen-8-one

>  <annotation_level>  (1318) 
5

>  <total_atom_count>  (1318) 
48

>  <heavy_atom_count>  (1318) 
28

>  <molecular_weight>  (1318) 
380.4

>  <exact_molecular_weight>  (1318) 
380.12599

>  <molecular_formula>  (1318) 
C22H20O6

>  <alogp>  (1318) 
4.37

>  <topological_polar_surface_area>  (1318) 
78.13

>  <rotatable_bond_count>  (1318) 
3

>  <hydrogen_bond_acceptors>  (1318) 
6

>  <hydrogen_bond_donors>  (1318) 
1

>  <hydrogen_bond_acceptors_lipinski>  (1318) 
6

>  <hydrogen_bond_donors_lipinski>  (1318) 
1

>  <lipinski_rule_of_five_violations>  (1318) 
0

>  <aromatic_rings_count>  (1318) 
3

>  <qed_drug_likeliness>  (1318) 
0.68

>  <formal_charge>  (1318) 
0

>  <fractioncsp3>  (1318) 
0.23

>  <number_of_minimal_rings>  (1318) 
4

>  <van_der_walls_volume>  (1318) 
330.49

>  <contains_sugar>  (1318) 
False

>  <contains_ring_sugars>  (1318) 
False

>  <contains_linear_sugars>  (1318) 
False

>  <murcko_framework>  (1318) 
O1c2cc3OCC(=Cc3cc2C=CC1)c4ccccc4

>  <np_likeness>  (1318) 
1.75

>  <chemical_class>  (1318) 
Isoflavonoids

>  <chemical_sub_class>  (1318) 
Isoflav-3-enes

>  <chemical_super_class>  (1318) 
Phenylpropanoids and polyketides

>  <direct_parent_classification>  (1318) 
Isoflav-3-enones

>  <np_classifier_pathway>  (1318) 
Shikimates and Phenylpropanoids

>  <np_classifier_superclass>  (1318) 
Coumarins

>  <np_classifier_class>  (1318) 
Pyranocoumarins

>  <np_classifier_is_glycoside>  (1318) 
False

>  <organisms>  (1318) 
Brachypterum robustum|Deguelia hatschbachii|Deguelia scandens|Derris Scandens|Derris robusta|Derris scandens|Erythrina indica|Erythrina variegata|Millettia thonningii

>  <collections>  (1318) 
ConMedNP|KNApSaCK|Latin America dataset|NPEdia|NuBBEDB|Super Natural II|UNPD (Universal Natural Products Database)|VietHerb|WikiData Natural Products|ZINC NP

>  <dois>  (1318) 
10.1016/0031-9422(83)85041-9|10.1016/0031-9422(94)85038-0|10.1016/0378-8741(86)90156-X|10.1016/S0031-9422(00)00509-4|10.1021/NP990300Y|10.1039/J39690000365|10.1211/JPP.61.02.0017|10.1211/jpp/61.02.0017

>  <synonyms>  (1318) 
2H,8H-Benzo[1,2-b:5,4-b']dipyran-2-one, 4-hydroxy-5-methoxy-3-(4-methoxyphenyl)-8,8-dimethyl-|4-Hydroxy-5-methoxy-3-(4-methoxyphenyl)-8,8-dimethyl-2H,8H-pyrano[3,2-g]chromen-2-one #|5307-59-5|6-hydroxy-5-methoxy-7-(4-methoxyphenyl)-2,2-dimethyl-8-pyrano[3,2-g][1]benzopyranone|6-hydroxy-5-methoxy-7-(4-methoxyphenyl)-2,2-dimethylpyrano[3,2-g]chromen-8-one|AKOS040753805|BRD-K54411430-001-02-5|BSPBio_003383|CCG-39045|CHEBI:92953|CHEMBL400777|DTXSID30201149|DivK1c_006709|KBio1_001653|KBio2_001036|KBio2_003604|KBio2_006172|KBio3_002886|KBioGR_002204|KBioSS_001036|LMPK12160025|MBZKDBQDALOSRP-UHFFFAOYSA-N|NCGC00095552-01|Q27164688|Robustic acid|SCHEMBL15941305|SCHEMBL572212|SPBio_001149|SPECTRUM240673|SR-05000002632|SpecPlus_000613|Spectrum2_001165|Spectrum3_001802|Spectrum4_001592|Spectrum5_000304|Spectrum_000556

>  <cas>  (1318) 
5307-59-5

$$$$

     RDKit          2D

 26 30  0  0  0  0  0  0  0  0999 V2000
   -4.0177   -3.3403    0.0000 C   0  0  0  0  0  0  0  0  0  0  0  0
   -3.0962   -2.1567    0.0000 C   0  0  0  0  0  0  0  0  0  0  0  0
   -1.6689   -2.6178    0.0000 C   0  0  0  0  0  0  0  0  0  0  0  0
   -0.2790   -2.0535    0.0000 C   0  0  0  0  0  0  0  0  0  0  0  0
    0.7648   -3.1308    0.0000 O   0  0  0  0  0  0  0  0  0  0  0  0
    2.1118   -2.4709    0.0000 C   0  0  0  0  0  0  0  0  0  0  0  0
    3.4375   -3.1729    0.0000 O   0  0  0  0  0  0  0  0  0  0  0  0
    1.9006   -0.9859    0.0000 C   0  0  0  0  0  0  0  0  0  0  0  0
    2.5903   -0.5862    0.0000 C   0  0  0  0  0  0  0  0  0  0  0  0
    0.4229   -0.7279    0.0000 C   0  0  0  0  0  0  0  0  0  0  0  0
    0.1086    0.7388    0.0000 C   0  0  0  0  0  0  0  0  0  0  0  0
   -1.0750    1.6603    0.0000 C   0  0  0  0  0  0  0  0  0  0  0  0
   -2.5740    1.6054    0.0000 C   0  0  0  0  0  0  0  0  0  0  0  0
   -1.4968    2.6492    0.0000 C   0  0  0  0  0  0  0  0  0  0  0  0
   -2.3627    0.1203    0.0000 O   0  0  0  0  0  0  0  0  0  0  0  0
   -3.7098   -0.5395    0.0000 C   0  0  0  0  0  0  0  0  0  0  0  0
   -4.7536    0.5377    0.0000 C   0  0  0  0  0  0  0  0  0  0  0  0
   -4.0517    1.8634    0.0000 C   0  0  0  0  0  0  0  0  0  0  0  0
   -4.7115    3.2104    0.0000 O   0  0  0  0  0  0  0  0  0  0  0  0
    1.4318    1.4452    0.0000 O   0  0  0  0  0  0  0  0  0  0  0  0
    2.5126    0.4051    0.0000 C   0  0  0  0  0  0  0  0  0  0  0  0
    3.1893   -0.0162    0.0000 O   0  0  0  0  0  0  0  0  0  0  0  0
    3.4341    1.5887    0.0000 C   0  0  0  0  0  0  0  0  0  0  0  0
    2.4285    2.7017    0.0000 C   0  0  0  0  0  0  0  0  0  0  0  0
    4.7048    2.3857    0.0000 C   0  0  0  0  0  0  0  0  0  0  0  0
    4.7597    0.8867    0.0000 O   0  0  0  0  0  0  0  0  0  0  0  0
  2  1  1  6
  2  3  1  0
  3  4  1  0
  4  5  1  0
  5  6  1  0
  6  7  2  0
  6  8  1  0
  8  9  1  6
  8 10  1  0
 10 11  1  0
 11 12  1  6
 12 13  1  0
 13 14  1  6
 13 15  1  0
 15 16  1  0
 16 17  2  0
 17 18  1  0
 18 19  2  0
 11 20  1  0
 20 21  1  0
 21 22  1  1
 21 23  1  0
 23 24  1  6
 23 25  1  0
 25 26  1  0
 16  2  1  0
 26 23  1  0
 10  4  1  1
 18 13  1  0
 21  8  1  0
M  END
>  <identifier>  (1319) 
CNP0332853.1

>  <canonical_smiles>  (1319) 
C[C@H]1CC2OC(=O)[C@@]3(C)[C@@H]2[C@H](C[C@@]2(C)OC1=CC2=O)O[C@]3(O)[C@@]1(C)CO1

>  <standard_inchi>  (1319) 
InChI=1S/C19H24O7/c1-9-5-11-14-12(7-16(2)13(20)6-10(9)25-16)26-19(22,17(3)8-23-17)18(14,4)15(21)24-11/h6,9,11-12,14,22H,5,7-8H2,1-4H3/t9-,11?,12-,14-,16+,17+,18+,19+/m0/s1

>  <standard_inchi_key>  (1319) 
CDLFKJLFYKQREE-UASKGJQISA-N

>  <name>  (1319) 
4√é¬≤5-dihydro-1'2'-epoxy-eremantholide-C

>  <iupac_name>  (1319) 
(1~{S},3~{R},7~{S},12~{S},13~{S},15~{R})-13-hydroxy-3,7,12-trimethyl-13-[(2~{R})-2-methyloxiran-2-yl]-10,14,16-trioxatetracyclo[7.5.1.1^{3,6}.0^{12,15}]hexadec-5-ene-4,11-dione

>  <annotation_level>  (1319) 
5

>  <total_atom_count>  (1319) 
50

>  <heavy_atom_count>  (1319) 
26

>  <molecular_weight>  (1319) 
364.39

>  <exact_molecular_weight>  (1319) 
364.1522

>  <molecular_formula>  (1319) 
C19H24O7

>  <alogp>  (1319) 
1.08

>  <topological_polar_surface_area>  (1319) 
94.59

>  <rotatable_bond_count>  (1319) 
1

>  <hydrogen_bond_acceptors>  (1319) 
7

>  <hydrogen_bond_donors>  (1319) 
1

>  <hydrogen_bond_acceptors_lipinski>  (1319) 
7

>  <hydrogen_bond_donors_lipinski>  (1319) 
1

>  <lipinski_rule_of_five_violations>  (1319) 
0

>  <aromatic_rings_count>  (1319) 
0

>  <qed_drug_likeliness>  (1319) 
0.55

>  <formal_charge>  (1319) 
0

>  <fractioncsp3>  (1319) 
0.79

>  <number_of_minimal_rings>  (1319) 
5

>  <van_der_walls_volume>  (1319) 
319.00

>  <contains_sugar>  (1319) 
False

>  <contains_ring_sugars>  (1319) 
False

>  <contains_linear_sugars>  (1319) 
False

>  <murcko_framework>  (1319) 
O1C2=CCC1CC3OC(C4OC4)C5COC(CC2)C35

>  <np_likeness>  (1319) 
3.26

>  <chemical_class>  (1319) 
Furofurans

>  <chemical_sub_class>  (1319) 
Furofurans

>  <chemical_super_class>  (1319) 
Organoheterocyclic compounds

>  <direct_parent_classification>  (1319) 
Furofurans

>  <np_classifier_pathway>  (1319) 
Terpenoids

>  <np_classifier_superclass>  (1319) 
Meroterpenoids

>  <np_classifier_class>  (1319) 
nan

>  <np_classifier_is_glycoside>  (1319) 
True

>  <organisms>  (1319) 
Eremanthus seidelii

>  <collections>  (1319) 
ChemSpider NPs|Latin America dataset|NuBBEDB|ZINC NP

>  <dois>  (1319) 
10.1590/S0103-50532005000800016

>  <synonyms>  (1319) 
4\u221a\u00e9\u00ac\u22645-dihydro-1'2'-epoxy-eremantholide-C

>  <cas>  (1319) 
nan

$$$$

     RDKit          2D

 18 19  0  0  0  0  0  0  0  0999 V2000
   -1.7864    2.1106    0.0000 O   0  0  0  0  0  0  0  0  0  0  0  0
   -2.1433    0.6536    0.0000 C   0  0  0  0  0  0  0  0  0  0  0  0
   -1.0599   -0.3839    0.0000 N   0  0  0  0  0  0  0  0  0  0  0  0
    0.3802    0.0356    0.0000 C   0  0  0  0  0  0  0  0  0  0  0  0
    1.4636   -1.0019    0.0000 C   0  0  0  0  0  0  0  0  0  0  0  0
    2.9037   -0.5825    0.0000 C   0  0  0  0  0  0  0  0  0  0  0  0
    3.9870   -1.6200    0.0000 C   0  0  0  0  0  0  0  0  0  0  0  0
    5.4272   -1.2005    0.0000 C   0  0  0  0  0  0  0  0  0  0  0  0
    5.7840    0.2564    0.0000 C   0  0  0  0  0  0  0  0  0  0  0  0
    7.2242    0.6758    0.0000 O   0  0  0  0  0  0  0  0  0  0  0  0
    4.7007    1.2939    0.0000 C   0  0  0  0  0  0  0  0  0  0  0  0
    3.2605    0.8745    0.0000 C   0  0  0  0  0  0  0  0  0  0  0  0
   -3.5834    0.2342    0.0000 C   0  0  0  0  0  0  0  0  0  0  0  0
   -4.6668    1.2717    0.0000 C   0  0  0  0  0  0  0  0  0  0  0  0
   -6.1069    0.8522    0.0000 C   0  0  0  0  0  0  0  0  0  0  0  0
   -6.4638   -0.6047    0.0000 C   0  0  0  0  0  0  0  0  0  0  0  0
   -5.3804   -1.6422    0.0000 C   0  0  0  0  0  0  0  0  0  0  0  0
   -3.9403   -1.2228    0.0000 C   0  0  0  0  0  0  0  0  0  0  0  0
  1  2  2  0
  2  3  1  0
  3  4  1  0
  4  5  1  0
  5  6  1  0
  6  7  2  0
  7  8  1  0
  8  9  2  0
  9 10  1  0
  9 11  1  0
 11 12  2  0
  2 13  1  0
 13 14  2  0
 14 15  1  0
 15 16  2  0
 16 17  1  0
 17 18  2  0
 12  6  1  0
 18 13  1  0
M  END
>  <identifier>  (1320) 
CNP0505500.0

>  <canonical_smiles>  (1320) 
O=C(NCCC1=CC=C(O)C=C1)C1=CC=CC=C1

>  <standard_inchi>  (1320) 
InChI=1S/C15H15NO2/c17-14-8-6-12(7-9-14)10-11-16-15(18)13-4-2-1-3-5-13/h1-9,17H,10-11H2,(H,16,18)

>  <standard_inchi_key>  (1320) 
MUCNBPCTSRYLCB-UHFFFAOYSA-N

>  <name>  (1320) 
N-Benzoyltyramine

>  <iupac_name>  (1320) 
~{N}-[2-(4-hydroxyphenyl)ethyl]benzamide

>  <annotation_level>  (1320) 
5

>  <total_atom_count>  (1320) 
33

>  <heavy_atom_count>  (1320) 
18

>  <molecular_weight>  (1320) 
241.29

>  <exact_molecular_weight>  (1320) 
241.11028

>  <molecular_formula>  (1320) 
C15H15NO2

>  <alogp>  (1320) 
2.36

>  <topological_polar_surface_area>  (1320) 
49.33

>  <rotatable_bond_count>  (1320) 
4

>  <hydrogen_bond_acceptors>  (1320) 
2

>  <hydrogen_bond_donors>  (1320) 
2

>  <hydrogen_bond_acceptors_lipinski>  (1320) 
2

>  <hydrogen_bond_donors_lipinski>  (1320) 
2

>  <lipinski_rule_of_five_violations>  (1320) 
0

>  <aromatic_rings_count>  (1320) 
2

>  <qed_drug_likeliness>  (1320) 
0.86

>  <formal_charge>  (1320) 
0

>  <fractioncsp3>  (1320) 
0.13

>  <number_of_minimal_rings>  (1320) 
2

>  <van_der_walls_volume>  (1320) 
228.02

>  <contains_sugar>  (1320) 
False

>  <contains_ring_sugars>  (1320) 
False

>  <contains_linear_sugars>  (1320) 
False

>  <murcko_framework>  (1320) 
c1ccc(cc1)CNCCc2ccccc2

>  <np_likeness>  (1320) 
-0.46

>  <chemical_class>  (1320) 
Benzene and substituted derivatives

>  <chemical_sub_class>  (1320) 
Benzoic acids and derivatives

>  <chemical_super_class>  (1320) 
Benzenoids

>  <direct_parent_classification>  (1320) 
Benzamides

>  <np_classifier_pathway>  (1320) 
Alkaloids

>  <np_classifier_superclass>  (1320) 
Tyrosine alkaloids

>  <np_classifier_class>  (1320) 
Phenylethylamines

>  <np_classifier_is_glycoside>  (1320) 
False

>  <organisms>  (1320) 
Alpinia officinarum|Amomum reticulatum|Aniba riparia|Ascodesmis sphaerospora|Caralluma russeliana|Casimiroa edulis|Dalbergia monetaria|Espeletiopsis purpurascens|Grosvenoria rimbachii|Helianthus californicus|Houttuynia cordata|Imperata cylindrica|Lactarius fuliginosus|Limonia acidissima|Plectranthus hereroensis|Polypodium aureum|Spiraea prunifolia|Swinglea glutinosa|Ursinia anthemoides|Zanthoxylum ailanthoides

>  <collections>  (1320) 
CMAUP (cCollective molecular activities of useful plants)|ChemSpider NPs|Latin America dataset|NPASS|NuBBEDB|Super Natural II|UNPD (Universal Natural Products Database)|WikiData Natural Products

>  <dois>  (1320) 
10.1016/S0031-9422(00)83890-X|10.1016/S0031-9422(00)90353-4|10.1016/S0031-9422(00)97039-0|10.1021/NP50077A024|10.1248/CPB.57.1227|10.1590/S0100-40422012001100015|10.1590/S0100-40422012001100015√Ç¬†

>  <synonyms>  (1320) 
4-[2-(Benzoylamino)ethyl]phenol|41859-54-5|9NW5RAV7QQ|AKOS010245436|AMY36851|BDBM50136873|Benzamide, N-(p-hydroxyphenethyl)-|Benzamide, N-[2-(4-hydroxyphenyl)ethyl]-|CHEMBL152297|DB-230956|DTXSID601316313|FS-7302|MUCNBPCTSRYLCB-UHFFFAOYSA-N|N-(4-Hydroxyphenethyl)Benzamide|N-[2-(4-Hydroxyphenyl)ethyl]benzamide|N-benzoyltyramine|N-phenoyltyramine|SCHEMBL5594655

>  <cas>  (1320) 
41859-54-5

$$$$

     RDKit          2D

 26 28  0  0  0  0  0  0  0  0999 V2000
    3.6652   -4.4581    0.0000 C   0  0  0  0  0  0  0  0  0  0  0  0
    3.6555   -2.9581    0.0000 C   0  0  0  0  0  0  0  0  0  0  0  0
    2.3516   -2.2165    0.0000 C   0  0  0  0  0  0  0  0  0  0  0  0
    2.3419   -0.7166    0.0000 C   0  0  0  0  0  0  0  0  0  0  0  0
    3.6361    0.0418    0.0000 C   0  0  0  0  0  0  0  0  0  0  0  0
    3.6264    1.5418    0.0000 C   0  0  0  0  0  0  0  0  0  0  0  0
    4.9206    2.3002    0.0000 O   0  0  0  0  0  0  0  0  0  0  0  0
    6.2244    1.5586    0.0000 C   0  0  0  0  0  0  0  0  0  0  0  0
    2.3225    2.2834    0.0000 C   0  0  0  0  0  0  0  0  0  0  0  0
    2.3128    3.7833    0.0000 O   0  0  0  0  0  0  0  0  0  0  0  0
    1.0284    1.5250    0.0000 C   0  0  0  0  0  0  0  0  0  0  0  0
    1.0381    0.0250    0.0000 C   0  0  0  0  0  0  0  0  0  0  0  0
   -0.2561   -0.7334    0.0000 O   0  0  0  0  0  0  0  0  0  0  0  0
    0.1184    0.2563    0.0000 C   0  0  0  0  0  0  0  0  0  0  0  0
   -1.3744    0.4034    0.0000 C   0  0  0  0  0  0  0  0  0  0  0  0
   -1.9933    1.7697    0.0000 C   0  0  0  0  0  0  0  0  0  0  0  0
   -3.4861    1.9169    0.0000 C   0  0  0  0  0  0  0  0  0  0  0  0
   -4.3599    0.6977    0.0000 C   0  0  0  0  0  0  0  0  0  0  0  0
   -5.8527    0.8448    0.0000 O   0  0  0  0  0  0  0  0  0  0  0  0
   -6.4716    2.2112    0.0000 C   0  0  0  0  0  0  0  0  0  0  0  0
   -3.7410   -0.6687    0.0000 C   0  0  0  0  0  0  0  0  0  0  0  0
   -4.6148   -1.8879    0.0000 O   0  0  0  0  0  0  0  0  0  0  0  0
   -3.9958   -3.2542    0.0000 C   0  0  0  0  0  0  0  0  0  0  0  0
   -2.2482   -0.8158    0.0000 C   0  0  0  0  0  0  0  0  0  0  0  0
    0.8767   -1.0379    0.0000 C   0  0  0  0  0  0  0  0  0  0  0  0
    0.2755   -2.4121    0.0000 C   0  0  0  0  0  0  0  0  0  0  0  0
  1  2  2  0
  2  3  1  0
  4  3  1  1
  4  5  1  0
  5  6  2  0
  6  7  1  0
  7  8  1  0
  6  9  1  0
  9 10  2  0
 11  9  1  6
 11 12  1  0
 12 13  2  0
 11 14  1  0
 14 15  1  1
 15 16  2  0
 16 17  1  0
 17 18  2  0
 18 19  1  0
 19 20  1  0
 18 21  1  0
 21 22  1  0
 22 23  1  0
 21 24  2  0
 14 25  1  0
 25 26  1  6
 12  4  1  0
 24 15  1  0
 25  4  1  0
M  END
>  <identifier>  (1321) 
CNP0324732.1

>  <canonical_smiles>  (1321) 
C=CC[C@]12C=C(OC)C(=O)[C@H](C1=O)[C@H](C1=CC=C(OC)C(OC)=C1)[C@H]2C

>  <standard_inchi>  (1321) 
InChI=1S/C21H24O5/c1-6-9-21-11-16(26-5)19(22)18(20(21)23)17(12(21)2)13-7-8-14(24-3)15(10-13)25-4/h6-8,10-12,17-18H,1,9H2,2-5H3/t12-,17+,18-,21-/m1/s1

>  <standard_inchi_key>  (1321) 
IYEJIWMVJJRSMG-RQJAOHDJSA-N

>  <name>  (1321) 
Kadsurenin D

>  <iupac_name>  (1321) 
(1~{S},5~{S},6~{R},7~{R})-5-allyl-7-(3,4-dimethoxyphenyl)-3-methoxy-6-methyl-bicyclo[3.2.1]oct-3-ene-2,8-dione

>  <annotation_level>  (1321) 
5

>  <total_atom_count>  (1321) 
50

>  <heavy_atom_count>  (1321) 
26

>  <molecular_weight>  (1321) 
356.42

>  <exact_molecular_weight>  (1321) 
356.16237

>  <molecular_formula>  (1321) 
C21H24O5

>  <alogp>  (1321) 
3.30

>  <topological_polar_surface_area>  (1321) 
61.83

>  <rotatable_bond_count>  (1321) 
6

>  <hydrogen_bond_acceptors>  (1321) 
5

>  <hydrogen_bond_donors>  (1321) 
0

>  <hydrogen_bond_acceptors_lipinski>  (1321) 
5

>  <hydrogen_bond_donors_lipinski>  (1321) 
0

>  <lipinski_rule_of_five_violations>  (1321) 
0

>  <aromatic_rings_count>  (1321) 
1

>  <qed_drug_likeliness>  (1321) 
0.58

>  <formal_charge>  (1321) 
0

>  <fractioncsp3>  (1321) 
0.43

>  <number_of_minimal_rings>  (1321) 
3

>  <van_der_walls_volume>  (1321) 
330.38

>  <contains_sugar>  (1321) 
False

>  <contains_ring_sugars>  (1321) 
False

>  <contains_linear_sugars>  (1321) 
False

>  <murcko_framework>  (1321) 
c1ccc(cc1)C2CC3C=CCC2C3

>  <np_likeness>  (1321) 
1.65

>  <chemical_class>  (1321) 
Benzene and substituted derivatives

>  <chemical_sub_class>  (1321) 
Methoxybenzenes

>  <chemical_super_class>  (1321) 
Benzenoids

>  <direct_parent_classification>  (1321) 
Dimethoxybenzenes

>  <np_classifier_pathway>  (1321) 
Shikimates and Phenylpropanoids

>  <np_classifier_superclass>  (1321) 
Lignans

>  <np_classifier_class>  (1321) 
Neolignans

>  <np_classifier_is_glycoside>  (1321) 
False

>  <organisms>  (1321) 
Nectandra grandiflora

>  <collections>  (1321) 
ChemSpider NPs|Latin America dataset|NuBBEDB|WikiData Natural Products|ZINC NP

>  <dois>  (1321) 
10.1590/S0103-50532005000400005

>  <synonyms>  (1321) 
(1S,5S,6R,7R)-7-(3,4-dimethoxyphenyl)-3-methoxy-6-methyl-5-prop-2-enylbicyclo[3.2.1]oct-3-ene-2,8-dione|140669-89-2|2-oxo-piperol B|AKOS032949029|Bicyclo[3.2.1]oct-3-ene-2,8-dione, 7-(3,4-dimethoxyphenyl)-3-methoxy-6-methyl-5-(2-propen-1-yl)-, (1S,5S,6R,7R)-

>  <cas>  (1321) 
140669-89-2

$$$$

     RDKit          2D

 31 34  0  0  0  0  0  0  0  0999 V2000
   -9.7853   -0.5243    0.0000 C   0  0  0  0  0  0  0  0  0  0  0  0
   -8.3645   -0.0434    0.0000 C   0  0  0  0  0  0  0  0  0  0  0  0
   -8.0704    1.4275    0.0000 O   0  0  0  0  0  0  0  0  0  0  0  0
   -7.2376   -1.0335    0.0000 O   0  0  0  0  0  0  0  0  0  0  0  0
   -5.8168   -0.5527    0.0000 C   0  0  0  0  0  0  0  0  0  0  0  0
   -5.5228    0.9182    0.0000 C   0  0  0  0  0  0  0  0  0  0  0  0
   -4.1019    1.3990    0.0000 C   0  0  0  0  0  0  0  0  0  0  0  0
   -2.9751    0.4089    0.0000 C   0  0  0  0  0  0  0  0  0  0  0  0
   -1.5542    0.8897    0.0000 C   0  0  0  0  0  0  0  0  0  0  0  0
   -1.2602    2.3606    0.0000 C   0  0  0  0  0  0  0  0  0  0  0  0
    0.1607    2.8414    0.0000 O   0  0  0  0  0  0  0  0  0  0  0  0
    1.2875    1.8513    0.0000 C   0  0  0  0  0  0  0  0  0  0  0  0
    2.7083    2.3321    0.0000 C   0  0  0  0  0  0  0  0  0  0  0  0
    3.8352    1.3420    0.0000 C   0  0  0  0  0  0  0  0  0  0  0  0
    3.5411   -0.1289    0.0000 C   0  0  0  0  0  0  0  0  0  0  0  0
    4.6679   -1.1190    0.0000 C   0  0  0  0  0  0  0  0  0  0  0  0
    6.0888   -0.6381    0.0000 C   0  0  0  0  0  0  0  0  0  0  0  0
    6.3828    0.8327    0.0000 C   0  0  0  0  0  0  0  0  0  0  0  0
    7.1622    2.1144    0.0000 C   0  0  0  0  0  0  0  0  0  0  0  0
    7.7803    0.2878    0.0000 C   0  0  0  0  0  0  0  0  0  0  0  0
    5.2560    1.8228    0.0000 O   0  0  0  0  0  0  0  0  0  0  0  0
    2.1203   -0.6097    0.0000 C   0  0  0  0  0  0  0  0  0  0  0  0
    1.8262   -2.0806    0.0000 O   0  0  0  0  0  0  0  0  0  0  0  0
    2.9530   -3.0707    0.0000 C   0  0  0  0  0  0  0  0  0  0  0  0
    2.6590   -4.5416    0.0000 C   0  0  0  0  0  0  0  0  0  0  0  0
    4.3739   -2.5899    0.0000 O   0  0  0  0  0  0  0  0  0  0  0  0
    0.9934    0.3804    0.0000 C   0  0  0  0  0  0  0  0  0  0  0  0
   -0.4274   -0.1004    0.0000 C   0  0  0  0  0  0  0  0  0  0  0  0
   -0.7214   -1.5713    0.0000 O   0  0  0  0  0  0  0  0  0  0  0  0
   -3.2691   -1.0620    0.0000 C   0  0  0  0  0  0  0  0  0  0  0  0
   -4.6900   -1.5428    0.0000 C   0  0  0  0  0  0  0  0  0  0  0  0
  1  2  1  0
  2  3  2  0
  2  4  1  0
  4  5  1  0
  5  6  2  0
  6  7  1  0
  7  8  2  0
  8  9  1  0
  9 10  2  0
 10 11  1  0
 11 12  1  0
 12 13  2  0
 13 14  1  0
 14 15  2  0
 15 16  1  0
 16 17  2  0
 17 18  1  0
 18 19  1  0
 18 20  1  0
 18 21  1  0
 15 22  1  0
 22 23  1  0
 23 24  1  0
 24 25  1  0
 24 26  2  0
 22 27  2  0
 27 28  1  0
 28 29  2  0
  8 30  1  0
 30 31  2  0
 31  5  1  0
 28  9  1  0
 27 12  1  0
 21 14  1  0
M  END
>  <identifier>  (1322) 
CNP0080532.0

>  <canonical_smiles>  (1322) 
CC(=O)OC1=CC=C(C2=COC3=CC4=C(C=CC(C)(C)O4)C(OC(C)=O)=C3C2=O)C=C1

>  <standard_inchi>  (1322) 
InChI=1S/C24H20O7/c1-13(25)29-16-7-5-15(6-8-16)18-12-28-20-11-19-17(9-10-24(3,4)31-19)23(30-14(2)26)21(20)22(18)27/h5-12H,1-4H3

>  <standard_inchi_key>  (1322) 
AGMYTTPIBPJPBD-UHFFFAOYSA-N

>  <name>  (1322) 
nan

>  <iupac_name>  (1322) 
[4-(5-acetoxy-2,2-dimethyl-6-oxo-pyrano[3,2-g]chromen-7-yl)phenyl] acetate

>  <annotation_level>  (1322) 
4

>  <total_atom_count>  (1322) 
51

>  <heavy_atom_count>  (1322) 
31

>  <molecular_weight>  (1322) 
420.42

>  <exact_molecular_weight>  (1322) 
420.1209

>  <molecular_formula>  (1322) 
C24H20O7

>  <alogp>  (1322) 
4.49

>  <topological_polar_surface_area>  (1322) 
92.04

>  <rotatable_bond_count>  (1322) 
3

>  <hydrogen_bond_acceptors>  (1322) 
7

>  <hydrogen_bond_donors>  (1322) 
0

>  <hydrogen_bond_acceptors_lipinski>  (1322) 
7

>  <hydrogen_bond_donors_lipinski>  (1322) 
0

>  <lipinski_rule_of_five_violations>  (1322) 
0

>  <aromatic_rings_count>  (1322) 
3

>  <qed_drug_likeliness>  (1322) 
0.46

>  <formal_charge>  (1322) 
0

>  <fractioncsp3>  (1322) 
0.21

>  <number_of_minimal_rings>  (1322) 
4

>  <van_der_walls_volume>  (1322) 
nan

>  <contains_sugar>  (1322) 
False

>  <contains_ring_sugars>  (1322) 
False

>  <contains_linear_sugars>  (1322) 
False

>  <murcko_framework>  (1322) 
O1C=C(c2ccccc2)Cc3cc4C=CCOc4cc13

>  <np_likeness>  (1322) 
1.70

>  <chemical_class>  (1322) 
Isoflavonoids

>  <chemical_sub_class>  (1322) 
Isoflav-2-enes

>  <chemical_super_class>  (1322) 
Phenylpropanoids and polyketides

>  <direct_parent_classification>  (1322) 
Isoflavones

>  <np_classifier_pathway>  (1322) 
Shikimates and Phenylpropanoids

>  <np_classifier_superclass>  (1322) 
Isoflavonoids

>  <np_classifier_class>  (1322) 
Isoflavones

>  <np_classifier_is_glycoside>  (1322) 
False

>  <organisms>  (1322) 
Derris|Derris sp.

>  <collections>  (1322) 
Latin America dataset|NuBBEDB|WikiData Natural Products|ZINC NP

>  <dois>  (1322) 
10.1590/1809-43921982123615

>  <synonyms>  (1322) 
Alpinumisoflavone diacetate

>  <cas>  (1322) 
nan

$$$$

     RDKit          2D

 26 29  0  0  0  0  0  0  0  0999 V2000
   -3.6019    4.1477    0.0000 C   0  0  0  0  0  0  0  0  0  0  0  0
   -2.5836    3.0463    0.0000 C   0  0  0  0  0  0  0  0  0  0  0  0
   -3.0283    1.6138    0.0000 C   0  0  0  0  0  0  0  0  0  0  0  0
   -4.4913    1.2826    0.0000 C   0  0  0  0  0  0  0  0  0  0  0  0
   -5.5095    2.3840    0.0000 O   0  0  0  0  0  0  0  0  0  0  0  0
   -2.0100    0.5124    0.0000 C   0  0  0  0  0  0  0  0  0  0  0  0
   -0.5470    0.8435    0.0000 C   0  0  0  0  0  0  0  0  0  0  0  0
    0.4713   -0.2579    0.0000 C   0  0  0  0  0  0  0  0  0  0  0  0
    1.9343    0.0733    0.0000 C   0  0  0  0  0  0  0  0  0  0  0  0
    2.9526   -1.0281    0.0000 C   0  0  0  0  0  0  0  0  0  0  0  0
    2.5079   -2.4607    0.0000 C   0  0  0  0  0  0  0  0  0  0  0  0
    1.0449   -2.7918    0.0000 C   0  0  0  0  0  0  0  0  0  0  0  0
    0.0266   -1.6904    0.0000 N   0  0  0  0  0  0  0  0  0  0  0  0
   -1.4364   -2.0216    0.0000 C   0  0  0  0  0  0  0  0  0  0  0  0
   -2.4547   -0.9202    0.0000 C   0  0  0  0  0  0  0  0  0  0  0  0
   -3.9177   -1.2514    0.0000 C   0  0  0  0  0  0  0  0  0  0  0  0
   -4.9360   -0.1499    0.0000 O   0  0  0  0  0  0  0  0  0  0  0  0
   -4.3624   -2.6839    0.0000 O   0  0  0  0  0  0  0  0  0  0  0  0
   -5.8254   -3.0151    0.0000 C   0  0  0  0  0  0  0  0  0  0  0  0
    4.3147   -0.4000    0.0000 C   0  0  0  0  0  0  0  0  0  0  0  0
    5.6930   -0.9920    0.0000 C   0  0  0  0  0  0  0  0  0  0  0  0
    6.8948   -0.0945    0.0000 C   0  0  0  0  0  0  0  0  0  0  0  0
    6.7184    1.3951    0.0000 C   0  0  0  0  0  0  0  0  0  0  0  0
    5.3401    1.9871    0.0000 C   0  0  0  0  0  0  0  0  0  0  0  0
    4.1383    1.0896    0.0000 C   0  0  0  0  0  0  0  0  0  0  0  0
    2.6671    1.3821    0.0000 N   0  0  0  0  0  0  0  0  0  0  0  0
  1  2  1  0
  2  3  2  3
  3  4  1  0
  4  5  1  0
  6  3  1  0
  6  7  1  6
  8  7  1  1
  8  9  1  0
  9 10  2  0
 10 11  1  0
 11 12  1  0
 12 13  1  0
 13 14  1  0
 14 15  2  0
 15 16  1  0
 16 17  2  0
 16 18  1  0
 18 19  1  0
 10 20  1  0
 20 21  2  0
 21 22  1  0
 22 23  2  0
 23 24  1  0
 24 25  2  0
 25 26  1  0
 15  6  1  0
 25 20  1  0
 13  8  1  0
 26  9  1  0
M  END
>  <identifier>  (1323) 
CNP0205544.3

>  <canonical_smiles>  (1323) 
CC=C(CO)[C@@H]1C[C@H]2C3=C(CCN2C=C1C(=O)OC)C1=CC=CC=C1N3

>  <standard_inchi>  (1323) 
InChI=1S/C21H24N2O3/c1-3-13(12-24)16-10-19-20-15(14-6-4-5-7-18(14)22-20)8-9-23(19)11-17(16)21(25)26-2/h3-7,11,16,19,22,24H,8-10,12H2,1-2H3/t16-,19-/m0/s1

>  <standard_inchi_key>  (1323) 
FRUFGLJBMBUARK-LPHOPBHVSA-N

>  <name>  (1323) 
nan

>  <iupac_name>  (1323) 
methyl (2~{S},12~{b}~{S})-2-[1-(hydroxymethyl)prop-1-enyl]-1,2,6,7,12,12~{b}-hexahydroindolo[2,3-a]quinolizine-3-carboxylate

>  <annotation_level>  (1323) 
4

>  <total_atom_count>  (1323) 
50

>  <heavy_atom_count>  (1323) 
26

>  <molecular_weight>  (1323) 
352.43

>  <exact_molecular_weight>  (1323) 
352.17869

>  <molecular_formula>  (1323) 
C21H24N2O3

>  <alogp>  (1323) 
3.08

>  <topological_polar_surface_area>  (1323) 
65.56

>  <rotatable_bond_count>  (1323) 
3

>  <hydrogen_bond_acceptors>  (1323) 
4

>  <hydrogen_bond_donors>  (1323) 
2

>  <hydrogen_bond_acceptors_lipinski>  (1323) 
4

>  <hydrogen_bond_donors_lipinski>  (1323) 
2

>  <lipinski_rule_of_five_violations>  (1323) 
0

>  <aromatic_rings_count>  (1323) 
2

>  <qed_drug_likeliness>  (1323) 
0.66

>  <formal_charge>  (1323) 
0

>  <fractioncsp3>  (1323) 
0.38

>  <number_of_minimal_rings>  (1323) 
4

>  <van_der_walls_volume>  (1323) 
nan

>  <contains_sugar>  (1323) 
False

>  <contains_ring_sugars>  (1323) 
False

>  <contains_linear_sugars>  (1323) 
False

>  <murcko_framework>  (1323) 
c1ccc2c(c1)[nH]c3c2CCN4C=CCCC34

>  <np_likeness>  (1323) 
1.33

>  <chemical_class>  (1323) 
Indoles and derivatives

>  <chemical_sub_class>  (1323) 
Pyridoindoles

>  <chemical_super_class>  (1323) 
Organoheterocyclic compounds

>  <direct_parent_classification>  (1323) 
Beta carbolines

>  <np_classifier_pathway>  (1323) 
Alkaloids

>  <np_classifier_superclass>  (1323) 
Tryptophan alkaloids

>  <np_classifier_class>  (1323) 
Corynanthe type

>  <np_classifier_is_glycoside>  (1323) 
False

>  <organisms>  (1323) 
Chimarrhis turbinata

>  <collections>  (1323) 
Latin America dataset|NuBBEDB

>  <dois>  (1323) 
10.1021/np020547m

>  <synonyms>  (1323) 
Isovallesiachotamine

>  <cas>  (1323) 
nan

$$$$

     RDKit          2D

 28 30  0  0  0  0  0  0  0  0999 V2000
    4.7280   -4.2622    0.0000 C   0  0  0  0  0  0  0  0  0  0  0  0
    5.3233   -2.8853    0.0000 O   0  0  0  0  0  0  0  0  0  0  0  0
    4.4286   -1.6814    0.0000 C   0  0  0  0  0  0  0  0  0  0  0  0
    2.9386   -1.8542    0.0000 C   0  0  0  0  0  0  0  0  0  0  0  0
    2.0439   -0.6503    0.0000 C   0  0  0  0  0  0  0  0  0  0  0  0
    2.6392    0.7265    0.0000 C   0  0  0  0  0  0  0  0  0  0  0  0
    4.1292    0.8994    0.0000 C   0  0  0  0  0  0  0  0  0  0  0  0
    4.7245    2.2762    0.0000 O   0  0  0  0  0  0  0  0  0  0  0  0
    5.0239   -0.3046    0.0000 C   0  0  0  0  0  0  0  0  0  0  0  0
    6.5139   -0.1317    0.0000 O   0  0  0  0  0  0  0  0  0  0  0  0
    1.7445    1.9305    0.0000 C   0  0  0  0  0  0  0  0  0  0  0  0
    2.3398    3.3073    0.0000 O   0  0  0  0  0  0  0  0  0  0  0  0
    0.2545    1.7576    0.0000 C   0  0  0  0  0  0  0  0  0  0  0  0
   -0.6402    2.9616    0.0000 O   0  0  0  0  0  0  0  0  0  0  0  0
   -0.0449    4.3384    0.0000 C   0  0  0  0  0  0  0  0  0  0  0  0
   -0.3408    0.3808    0.0000 C   0  0  0  0  0  0  0  0  0  0  0  0
   -1.8308    0.2080    0.0000 C   0  0  0  0  0  0  0  0  0  0  0  0
   -2.7255    1.4119    0.0000 C   0  0  0  0  0  0  0  0  0  0  0  0
   -4.2155    1.2391    0.0000 C   0  0  0  0  0  0  0  0  0  0  0  0
   -5.1102    2.4430    0.0000 O   0  0  0  0  0  0  0  0  0  0  0  0
   -4.8108   -0.1378    0.0000 C   0  0  0  0  0  0  0  0  0  0  0  0
   -6.3008   -0.3106    0.0000 O   0  0  0  0  0  0  0  0  0  0  0  0
   -6.8961   -1.6874    0.0000 C   0  0  0  0  0  0  0  0  0  0  0  0
   -3.9161   -1.3417    0.0000 C   0  0  0  0  0  0  0  0  0  0  0  0
   -4.5114   -2.7185    0.0000 O   0  0  0  0  0  0  0  0  0  0  0  0
   -3.6167   -3.9225    0.0000 C   0  0  0  0  0  0  0  0  0  0  0  0
   -2.4261   -1.1689    0.0000 C   0  0  0  0  0  0  0  0  0  0  0  0
    0.5539   -0.8231    0.0000 O   0  0  0  0  0  0  0  0  0  0  0  0
  1  2  1  0
  2  3  1  0
  3  4  2  0
  4  5  1  0
  5  6  2  0
  6  7  1  0
  7  8  1  0
  7  9  2  0
  9 10  1  0
  6 11  1  0
 11 12  2  0
 11 13  1  0
 13 14  1  0
 14 15  1  0
 13 16  2  0
 16 17  1  0
 17 18  2  0
 18 19  1  0
 19 20  1  0
 19 21  2  0
 21 22  1  0
 22 23  1  0
 21 24  1  0
 24 25  1  0
 25 26  1  0
 24 27  2  0
 16 28  1  0
  9  3  1  0
 27 17  1  0
 28  5  1  0
M  END
>  <identifier>  (1324) 
CNP0245254.0

>  <canonical_smiles>  (1324) 
COC1=CC2=C(C(O)=C1O)C(=O)C(OC)=C(C1=CC(O)=C(OC)C(OC)=C1)O2

>  <standard_inchi>  (1324) 
InChI=1S/C19H18O9/c1-24-11-7-10-13(15(22)14(11)21)16(23)19(27-4)17(28-10)8-5-9(20)18(26-3)12(6-8)25-2/h5-7,20-22H,1-4H3

>  <standard_inchi_key>  (1324) 
DTODSGVQMWBBNE-UHFFFAOYSA-N

>  <name>  (1324) 
Apuleitrin

>  <iupac_name>  (1324) 
5,6-dihydroxy-2-(3-hydroxy-4,5-dimethoxy-phenyl)-3,7-dimethoxy-chromen-4-one

>  <annotation_level>  (1324) 
5

>  <total_atom_count>  (1324) 
46

>  <heavy_atom_count>  (1324) 
28

>  <molecular_weight>  (1324) 
390.34

>  <exact_molecular_weight>  (1324) 
390.09508

>  <molecular_formula>  (1324) 
C19H18O9

>  <alogp>  (1324) 
2.61

>  <topological_polar_surface_area>  (1324) 
127.82

>  <rotatable_bond_count>  (1324) 
5

>  <hydrogen_bond_acceptors>  (1324) 
9

>  <hydrogen_bond_donors>  (1324) 
3

>  <hydrogen_bond_acceptors_lipinski>  (1324) 
9

>  <hydrogen_bond_donors_lipinski>  (1324) 
3

>  <lipinski_rule_of_five_violations>  (1324) 
0

>  <aromatic_rings_count>  (1324) 
3

>  <qed_drug_likeliness>  (1324) 
0.56

>  <formal_charge>  (1324) 
0

>  <fractioncsp3>  (1324) 
0.21

>  <number_of_minimal_rings>  (1324) 
3

>  <van_der_walls_volume>  (1324) 
323.93

>  <contains_sugar>  (1324) 
False

>  <contains_ring_sugars>  (1324) 
False

>  <contains_linear_sugars>  (1324) 
False

>  <murcko_framework>  (1324) 
O1c2ccccc2CC=C1c3ccccc3

>  <np_likeness>  (1324) 
1.44

>  <chemical_class>  (1324) 
Flavonoids

>  <chemical_sub_class>  (1324) 
O-methylated flavonoids

>  <chemical_super_class>  (1324) 
Phenylpropanoids and polyketides

>  <direct_parent_classification>  (1324) 
3-O-methylated flavonoids

>  <np_classifier_pathway>  (1324) 
Shikimates and Phenylpropanoids

>  <np_classifier_superclass>  (1324) 
Flavonoids

>  <np_classifier_class>  (1324) 
Flavonols

>  <np_classifier_is_glycoside>  (1324) 
False

>  <organisms>  (1324) 
Adiantum monochlamys|Apuleia leiocarpa|Baileya pauciradiata|Becium grandiflorum|Centaurea webbiana|Commiphora erythraea|Crinum yemense|Lissoclinum bistratum|Pachyphragma macrophyllum|Spilanthes mauritiana|Vernonanthura chamaedrys|Vicia faba

>  <collections>  (1324) 
CMAUP (cCollective molecular activities of useful plants)|KNApSaCK|Latin America dataset|NPASS|NPEdia|NuBBEDB|Super Natural II|UNPD (Universal Natural Products Database)|WikiData Natural Products|ZINC NP

>  <dois>  (1324) 
10.1016/S0031-9422(00)89891-X

>  <synonyms>  (1324) 
5,6-dihydroxy-2-(3-hydroxy-4,5-dimethoxyphenyl)-3,7-dimethoxychromen-4-one|Apuleitrin|CHEBI:196365|LMPK12110618

>  <cas>  (1324) 
nan

$$$$

     RDKit          2D

 27 31  0  0  0  0  0  0  0  0999 V2000
    5.6706   -0.2038    0.0000 C   0  0  0  0  0  0  0  0  0  0  0  0
    5.2521    1.2366    0.0000 C   0  0  0  0  0  0  0  0  0  0  0  0
    6.2904    2.3193    0.0000 O   0  0  0  0  0  0  0  0  0  0  0  0
    3.7954    1.5944    0.0000 N   0  0  0  0  0  0  0  0  0  0  0  0
    2.7572    0.5118    0.0000 C   0  0  0  0  0  0  0  0  0  0  0  0
    1.3005    0.8696    0.0000 C   0  0  0  0  0  0  0  0  0  0  0  0
    0.2623   -0.2131    0.0000 C   0  0  0  0  0  0  0  0  0  0  0  0
   -1.1944    0.1447    0.0000 C   0  0  0  0  0  0  0  0  0  0  0  0
   -2.2326   -0.9379    0.0000 C   0  0  0  0  0  0  0  0  0  0  0  0
   -1.8141   -2.3783    0.0000 C   0  0  0  0  0  0  0  0  0  0  0  0
   -3.2708   -2.0205    0.0000 C   0  0  0  0  0  0  0  0  0  0  0  0
   -3.6893   -0.5801    0.0000 N   0  0  0  0  0  0  0  0  0  0  0  0
   -5.1460   -0.2223    0.0000 C   0  0  0  0  0  0  0  0  0  0  0  0
   -5.5645    1.2182    0.0000 C   0  0  0  0  0  0  0  0  0  0  0  0
   -4.5263    2.3008    0.0000 C   0  0  0  0  0  0  0  0  0  0  0  0
   -4.9448    3.7412    0.0000 O   0  0  0  0  0  0  0  0  0  0  0  0
   -3.0696    1.9430    0.0000 C   0  0  0  0  0  0  0  0  0  0  0  0
   -2.6511    0.5025    0.0000 C   0  0  0  0  0  0  0  0  0  0  0  0
   -0.3574   -2.7361    0.0000 C   0  0  0  0  0  0  0  0  0  0  0  0
    0.0611   -4.1766    0.0000 C   0  0  0  0  0  0  0  0  0  0  0  0
    1.5178   -4.5344    0.0000 C   0  0  0  0  0  0  0  0  0  0  0  0
    2.5560   -3.4517    0.0000 C   0  0  0  0  0  0  0  0  0  0  0  0
    2.1375   -2.0113    0.0000 C   0  0  0  0  0  0  0  0  0  0  0  0
    0.6808   -1.6535    0.0000 N   0  0  0  0  0  0  0  0  0  0  0  0
    0.8820    2.3100    0.0000 C   0  0  0  0  0  0  0  0  0  0  0  0
    1.9203    3.3927    0.0000 C   0  0  0  0  0  0  0  0  0  0  0  0
    3.3770    3.0349    0.0000 C   0  0  0  0  0  0  0  0  0  0  0  0
  1  2  1  0
  2  3  2  0
  2  4  1  0
  4  5  1  0
  5  6  2  0
  7  6  1  1
  7  8  1  0
  8  9  1  0
  9 10  1  0
 10 11  1  1
 11 12  1  0
 12 13  1  0
 13 14  1  0
 14 15  1  0
 15 16  1  6
 15 17  1  0
 17 18  1  0
 10 19  1  0
 19 20  1  0
 20 21  1  0
 21 22  1  0
 22 23  1  0
 23 24  1  0
  6 25  1  0
 25 26  1  0
 26 27  1  0
 27  4  1  0
 24  7  1  0
  8 18  1  6
 24 19  1  0
 18 12  1  0
M  END
>  <identifier>  (1325) 
CNP0225915.1

>  <canonical_smiles>  (1325) 
CC(=O)N1C=C([C@@H]2[C@@H]3C[C@H](CN4CC[C@H](O)CC34)C3CCCCN32)CCC1

>  <standard_inchi>  (1325) 
InChI=1S/C22H35N3O2/c1-15(26)23-8-4-5-16(13-23)22-19-11-17(20-6-2-3-9-25(20)22)14-24-10-7-18(27)12-21(19)24/h13,17-22,27H,2-12,14H2,1H3/t17-,18+,19-,20?,21?,22-/m1/s1

>  <standard_inchi_key>  (1325) 
KXTMZZFZSKVPPU-LMJSHCOJSA-N

>  <name>  (1325) 
nan

>  <iupac_name>  (1325) 
1-[5-[(1~{R},8~{S},9~{R},12~{S})-12-hydroxy-7,15-diazatetracyclo[7.7.1.0^{2,7}.0^{10,15}]heptadecan-8-yl]-3,4-dihydro-2~{H}-pyridin-1-yl]ethanone

>  <annotation_level>  (1325) 
4

>  <total_atom_count>  (1325) 
62

>  <heavy_atom_count>  (1325) 
27

>  <molecular_weight>  (1325) 
373.54

>  <exact_molecular_weight>  (1325) 
373.27293

>  <molecular_formula>  (1325) 
C22H35N3O2

>  <alogp>  (1325) 
2.21

>  <topological_polar_surface_area>  (1325) 
47.02

>  <rotatable_bond_count>  (1325) 
1

>  <hydrogen_bond_acceptors>  (1325) 
4

>  <hydrogen_bond_donors>  (1325) 
1

>  <hydrogen_bond_acceptors_lipinski>  (1325) 
4

>  <hydrogen_bond_donors_lipinski>  (1325) 
1

>  <lipinski_rule_of_five_violations>  (1325) 
0

>  <aromatic_rings_count>  (1325) 
0

>  <qed_drug_likeliness>  (1325) 
0.77

>  <formal_charge>  (1325) 
0

>  <fractioncsp3>  (1325) 
0.86

>  <number_of_minimal_rings>  (1325) 
5

>  <van_der_walls_volume>  (1325) 
nan

>  <contains_sugar>  (1325) 
False

>  <contains_ring_sugars>  (1325) 
False

>  <contains_linear_sugars>  (1325) 
False

>  <murcko_framework>  (1325) 
C=1NCCCC1C2N3CCCCC3C4CN5CCCCC5C2C4

>  <np_likeness>  (1325) 
1.29

>  <chemical_class>  (1325) 
Lupin alkaloids

>  <chemical_sub_class>  (1325) 
Sparteine, lupanine, and related alkaloids

>  <chemical_super_class>  (1325) 
Alkaloids and derivatives

>  <direct_parent_classification>  (1325) 
Sparteine, lupanine, and related alkaloids

>  <np_classifier_pathway>  (1325) 
Alkaloids

>  <np_classifier_superclass>  (1325) 
Lysine alkaloids

>  <np_classifier_class>  (1325) 
Quinolizidine alkaloids

>  <np_classifier_is_glycoside>  (1325) 
False

>  <organisms>  (1325) 
Acosmium dasycarpum

>  <collections>  (1325) 
Latin America dataset|NuBBEDB

>  <dois>  (1325) 
10.1016/j.tetlet.2008.06.124

>  <synonyms>  (1325) 
acosminine

>  <cas>  (1325) 
nan

$$$$

     RDKit          2D

 23 23  0  0  0  0  0  0  0  0999 V2000
  -12.1620    0.9598    0.0000 C   0  0  0  0  0  0  0  0  0  0  0  0
  -10.9215    0.1165    0.0000 C   0  0  0  0  0  0  0  0  0  0  0  0
  -11.0315   -1.3794    0.0000 O   0  0  0  0  0  0  0  0  0  0  0  0
   -9.5709    0.7692    0.0000 C   0  0  0  0  0  0  0  0  0  0  0  0
   -8.3304   -0.0740    0.0000 C   0  0  0  0  0  0  0  0  0  0  0  0
   -6.9799    0.5787    0.0000 C   0  0  0  0  0  0  0  0  0  0  0  0
   -5.7393   -0.2646    0.0000 C   0  0  0  0  0  0  0  0  0  0  0  0
   -4.3888    0.3881    0.0000 C   0  0  0  0  0  0  0  0  0  0  0  0
   -3.1483   -0.4551    0.0000 C   0  0  0  0  0  0  0  0  0  0  0  0
   -1.7977    0.1976    0.0000 C   0  0  0  0  0  0  0  0  0  0  0  0
   -0.5572   -0.6457    0.0000 C   0  0  0  0  0  0  0  0  0  0  0  0
    0.7934    0.0070    0.0000 C   0  0  0  0  0  0  0  0  0  0  0  0
    2.0339   -0.8362    0.0000 C   0  0  0  0  0  0  0  0  0  0  0  0
    3.3845   -0.1835    0.0000 C   0  0  0  0  0  0  0  0  0  0  0  0
    4.6250   -1.0268    0.0000 C   0  0  0  0  0  0  0  0  0  0  0  0
    5.9755   -0.3740    0.0000 C   0  0  0  0  0  0  0  0  0  0  0  0
    6.0855    1.1219    0.0000 C   0  0  0  0  0  0  0  0  0  0  0  0
    7.4361    1.7746    0.0000 C   0  0  0  0  0  0  0  0  0  0  0  0
    8.6766    0.9314    0.0000 C   0  0  0  0  0  0  0  0  0  0  0  0
   10.0272    1.5841    0.0000 O   0  0  0  0  0  0  0  0  0  0  0  0
    8.5666   -0.5646    0.0000 C   0  0  0  0  0  0  0  0  0  0  0  0
    9.8071   -1.4078    0.0000 C   0  0  0  0  0  0  0  0  0  0  0  0
    7.2161   -1.2173    0.0000 N   0  0  0  0  0  0  0  0  0  0  0  0
  1  2  1  0
  2  3  2  0
  2  4  1  0
  4  5  1  0
  5  6  1  0
  6  7  1  0
  7  8  1  0
  8  9  1  0
  9 10  1  0
 10 11  1  0
 11 12  1  0
 12 13  1  0
 13 14  1  0
 14 15  1  0
 16 15  1  6
 16 17  1  0
 17 18  1  0
 18 19  1  0
 19 20  1  1
 19 21  1  0
 21 22  1  1
 21 23  1  0
 23 16  1  0
M  END
>  <identifier>  (1326) 
CNP0265234.1

>  <canonical_smiles>  (1326) 
CC(=O)CCCCCCCCCCCC[C@@H]1CC[C@@H](O)[C@@H](C)N1

>  <standard_inchi>  (1326) 
InChI=1S/C20H39NO2/c1-17(22)13-11-9-7-5-3-4-6-8-10-12-14-19-15-16-20(23)18(2)21-19/h18-21,23H,3-16H2,1-2H3/t18-,19-,20-/m1/s1

>  <standard_inchi_key>  (1326) 
SMOKZFNZPZHGMX-VAMGGRTRSA-N

>  <name>  (1326) 
iso-6-spectaline

>  <iupac_name>  (1326) 
14-[(2~{R},5~{R},6~{R})-5-hydroxy-6-methyl-2-piperidyl]tetradecan-2-one

>  <annotation_level>  (1326) 
5

>  <total_atom_count>  (1326) 
62

>  <heavy_atom_count>  (1326) 
23

>  <molecular_weight>  (1326) 
325.54

>  <exact_molecular_weight>  (1326) 
325.29808

>  <molecular_formula>  (1326) 
C20H39NO2

>  <alogp>  (1326) 
4.76

>  <topological_polar_surface_area>  (1326) 
49.33

>  <rotatable_bond_count>  (1326) 
13

>  <hydrogen_bond_acceptors>  (1326) 
3

>  <hydrogen_bond_donors>  (1326) 
2

>  <hydrogen_bond_acceptors_lipinski>  (1326) 
3

>  <hydrogen_bond_donors_lipinski>  (1326) 
2

>  <lipinski_rule_of_five_violations>  (1326) 
0

>  <aromatic_rings_count>  (1326) 
0

>  <qed_drug_likeliness>  (1326) 
0.48

>  <formal_charge>  (1326) 
0

>  <fractioncsp3>  (1326) 
0.95

>  <number_of_minimal_rings>  (1326) 
1

>  <van_der_walls_volume>  (1326) 
354.81

>  <contains_sugar>  (1326) 
False

>  <contains_ring_sugars>  (1326) 
False

>  <contains_linear_sugars>  (1326) 
False

>  <murcko_framework>  (1326) 
N1CCCCC1

>  <np_likeness>  (1326) 
1.78

>  <chemical_class>  (1326) 
nan

>  <chemical_sub_class>  (1326) 
Alkaloids and derivatives

>  <chemical_super_class>  (1326) 
Alkaloids and derivatives

>  <direct_parent_classification>  (1326) 
Alkaloids and derivatives

>  <np_classifier_pathway>  (1326) 
Alkaloids

>  <np_classifier_superclass>  (1326) 
Lysine alkaloids

>  <np_classifier_class>  (1326) 
Piperidine alkaloids

>  <np_classifier_is_glycoside>  (1326) 
False

>  <organisms>  (1326) 
Cassia spectabilis|Senna spectabilis|cassia spectabilis

>  <collections>  (1326) 
ChemSpider NPs|KNApSaCK|Latin America dataset|NPASS|NuBBEDB|Super Natural II|WikiData Natural Products|ZINC NP

>  <dois>  (1326) 
10.1021/NP0303963|10.1021/np0303963|10.1590/S0103-50532005000800023

>  <synonyms>  (1326) 
14-[(2R,5R,6R)-5-hydroxy-6-methylpiperidin-2-yl]tetradecan-2-one|CHEMBL487594|Iso-6-spectaline|iso-6-Spectaline

>  <cas>  (1326) 
nan

$$$$

     RDKit          2D

 23 27  0  0  0  0  0  0  0  0999 V2000
   -2.7553   -3.1698    0.0000 O   0  0  0  0  0  0  0  0  0  0  0  0
   -2.2589   -1.7543    0.0000 C   0  0  0  0  0  0  0  0  0  0  0  0
   -3.2365   -0.6167    0.0000 C   0  0  0  0  0  0  0  0  0  0  0  0
   -4.7106   -0.8945    0.0000 C   0  0  0  0  0  0  0  0  0  0  0  0
   -5.6882    0.2432    0.0000 C   0  0  0  0  0  0  0  0  0  0  0  0
   -5.1918    1.6586    0.0000 C   0  0  0  0  0  0  0  0  0  0  0  0
   -3.7177    1.9364    0.0000 C   0  0  0  0  0  0  0  0  0  0  0  0
   -3.2213    3.3519    0.0000 O   0  0  0  0  0  0  0  0  0  0  0  0
   -2.7401    0.7988    0.0000 C   0  0  0  0  0  0  0  0  0  0  0  0
   -1.2660    1.0766    0.0000 N   0  0  0  0  0  0  0  0  0  0  0  0
   -0.2884   -0.0611    0.0000 C   0  0  0  0  0  0  0  0  0  0  0  0
    1.1856    0.2168    0.0000 C   0  0  0  0  0  0  0  0  0  0  0  0
    2.1632   -0.9209    0.0000 C   0  0  0  0  0  0  0  0  0  0  0  0
    1.6668   -2.3364    0.0000 C   0  0  0  0  0  0  0  0  0  0  0  0
    0.1928   -2.6142    0.0000 C   0  0  0  0  0  0  0  0  0  0  0  0
   -0.7848   -1.4765    0.0000 N   0  0  0  0  0  0  0  0  0  0  0  0
    3.5473   -0.3427    0.0000 C   0  0  0  0  0  0  0  0  0  0  0  0
    4.9032   -0.9843    0.0000 C   0  0  0  0  0  0  0  0  0  0  0  0
    6.1368   -0.1310    0.0000 C   0  0  0  0  0  0  0  0  0  0  0  0
    6.0146    1.3640    0.0000 C   0  0  0  0  0  0  0  0  0  0  0  0
    4.6587    2.0057    0.0000 C   0  0  0  0  0  0  0  0  0  0  0  0
    3.4251    1.1523    0.0000 C   0  0  0  0  0  0  0  0  0  0  0  0
    1.9655    1.4981    0.0000 N   0  0  0  0  0  0  0  0  0  0  0  0
  1  2  2  0
  2  3  1  0
  3  4  2  0
  4  5  1  0
  5  6  2  0
  6  7  1  0
  7  8  1  0
  7  9  2  0
  9 10  1  0
 10 11  2  0
 11 12  1  0
 12 13  2  0
 13 14  1  0
 14 15  1  0
 15 16  1  0
 13 17  1  0
 17 18  2  0
 18 19  1  0
 19 20  2  0
 20 21  1  0
 21 22  2  0
 22 23  1  0
 16  2  1  0
 22 17  1  0
  9  3  1  0
 16 11  1  0
 23 12  1  0
M  END
>  <identifier>  (1327) 
CNP0123577.0

>  <canonical_smiles>  (1327) 
O=C1C2=CC=CC(O)=C2N=C2C3=C(CCN21)C1=CC=CC=C1N3

>  <standard_inchi>  (1327) 
InChI=1S/C18H13N3O2/c22-14-7-3-5-12-15(14)20-17-16-11(8-9-21(17)18(12)23)10-4-1-2-6-13(10)19-16/h1-7,19,22H,8-9H2

>  <standard_inchi_key>  (1327) 
IBBYAIMGJMOBLQ-UHFFFAOYSA-N

>  <name>  (1327) 
1-Hydroxyrutaecarpine

>  <iupac_name>  (1327) 
19-hydroxy-3,13,21-triazapentacyclo[11.8.0.0^{2,10}.0^{4,9}.0^{15,20}]henicosa-1(21),2(10),4,6,8,15,17,19-octaen-14-one

>  <annotation_level>  (1327) 
5

>  <total_atom_count>  (1327) 
36

>  <heavy_atom_count>  (1327) 
23

>  <molecular_weight>  (1327) 
303.32

>  <exact_molecular_weight>  (1327) 
303.10078

>  <molecular_formula>  (1327) 
C18H13N3O2

>  <alogp>  (1327) 
2.81

>  <topological_polar_surface_area>  (1327) 
70.91

>  <rotatable_bond_count>  (1327) 
0

>  <hydrogen_bond_acceptors>  (1327) 
4

>  <hydrogen_bond_donors>  (1327) 
2

>  <hydrogen_bond_acceptors_lipinski>  (1327) 
4

>  <hydrogen_bond_donors_lipinski>  (1327) 
2

>  <lipinski_rule_of_five_violations>  (1327) 
0

>  <aromatic_rings_count>  (1327) 
4

>  <qed_drug_likeliness>  (1327) 
0.52

>  <formal_charge>  (1327) 
0

>  <fractioncsp3>  (1327) 
0.11

>  <number_of_minimal_rings>  (1327) 
5

>  <van_der_walls_volume>  (1327) 
256.18

>  <contains_sugar>  (1327) 
False

>  <contains_ring_sugars>  (1327) 
False

>  <contains_linear_sugars>  (1327) 
False

>  <murcko_framework>  (1327) 
N=1c2ccccc2CN3C1c4[nH]c5ccccc5c4CC3

>  <np_likeness>  (1327) 
0.26

>  <chemical_class>  (1327) 
Diazanaphthalenes

>  <chemical_sub_class>  (1327) 
Benzodiazines

>  <chemical_super_class>  (1327) 
Organoheterocyclic compounds

>  <direct_parent_classification>  (1327) 
Indoloquinazolines

>  <np_classifier_pathway>  (1327) 
Alkaloids

>  <np_classifier_superclass>  (1327) 
Tryptophan alkaloids

>  <np_classifier_class>  (1327) 
Carboline alkaloids

>  <np_classifier_is_glycoside>  (1327) 
False

>  <organisms>  (1327) 
Bouchardatia neurococca|Euodia rutaecarpa|Euxylophora paraensis|Spiranthera odoratissima|Spiranthera odoratissima St. odoratissima|Tetradium glabrifolium|Zanthoxylum dimorphophyllum|Zanthoxylum integrifoliolum|Zanthoxylum wutaiense

>  <collections>  (1327) 
Australian natural products|CMAUP (cCollective molecular activities of useful plants)|KNApSaCK|Latin America dataset|NuBBEDB|TIPdb (database of Taiwan indigenous plants)|UNPD (Universal Natural Products Database)|WikiData Natural Products

>  <dois>  (1327) 
10.1002/JCCS.200400099|10.1016/0031-9422(74)80336-5|10.1016/0305-1978(87)90110-4|10.1016/S0031-9422(03)00205-X|10.1016/s0031-9422(03)00205-x|10.1021/NP50054A029|10.1021/NP700719E|10.1021/NP980471N|10.1055/S-2005-864144|10.1055/S-2006-957846|10.1080/10286020.2011.602015|10.1590/S0100-40422009000800010|10.1590/S0103-50532005000800007

>  <synonyms>  (1327) 
1-Hydroxy-8,13-dihydroindolo[2\\',3\\':3,4]pyrido[2,1-b]quinazolin-5( 7H)-one|1-Hydroxyrutecarpine|19-HYDROXY-3,13,21-TRIAZAPENTACYCLO[11.8.0.0(2),(1)?.0?,?.0(1)?,(2)?]HENICOSA-1(21),2(10),4,6,8,15,17,19-OCTAEN-14-ONE|19-hydroxy-3,13,21-triazapentacyclo[11.8.0.02,10.04,9.015,20]henicosa-1(21),2(10),4,6,8,15(20),16,18-octaen-14-one|53600-24-1|AKOS032962171|CS-0017292|FS-9988|HY-N1631

>  <cas>  (1327) 
53600-24-1

$$$$

     RDKit          2D

 24 27  0  0  0  0  0  0  0  0999 V2000
   -4.6531   -2.7537    0.0000 C   0  0  0  0  0  0  0  0  0  0  0  0
   -4.7521   -1.2570    0.0000 C   0  0  0  0  0  0  0  0  0  0  0  0
   -3.5054   -0.4228    0.0000 C   0  0  0  0  0  0  0  0  0  0  0  0
   -3.6045    1.0739    0.0000 C   0  0  0  0  0  0  0  0  0  0  0  0
   -2.3578    1.9080    0.0000 N   0  0  0  0  0  0  0  0  0  0  0  0
   -2.4568    3.4048    0.0000 C   0  0  0  0  0  0  0  0  0  0  0  0
   -0.9354    1.4012    0.0000 C   0  0  0  0  0  0  0  0  0  0  0  0
    0.5615    1.3040    0.0000 C   0  0  0  0  0  0  0  0  0  0  0  0
    1.5512    0.1769    0.0000 C   0  0  0  0  0  0  0  0  0  0  0  0
    1.4540   -1.3200    0.0000 C   0  0  0  0  0  0  0  0  0  0  0  0
    2.8476   -1.8750    0.0000 N   0  0  0  0  0  0  0  0  0  0  0  0
    3.8060   -0.7211    0.0000 C   0  0  0  0  0  0  0  0  0  0  0  0
    5.3048   -0.6613    0.0000 C   0  0  0  0  0  0  0  0  0  0  0  0
    6.0024    0.6666    0.0000 C   0  0  0  0  0  0  0  0  0  0  0  0
    5.2012    1.9347    0.0000 C   0  0  0  0  0  0  0  0  0  0  0  0
    3.7024    1.8749    0.0000 C   0  0  0  0  0  0  0  0  0  0  0  0
    3.0048    0.5470    0.0000 C   0  0  0  0  0  0  0  0  0  0  0  0
    0.3269   -2.3097    0.0000 C   0  0  0  0  0  0  0  0  0  0  0  0
    0.8099   -3.7298    0.0000 O   0  0  0  0  0  0  0  0  0  0  0  0
   -1.1700   -2.2126    0.0000 C   0  0  0  0  0  0  0  0  0  0  0  0
   -2.1597   -1.0854    0.0000 C   0  0  0  0  0  0  0  0  0  0  0  0
   -2.0625    0.4114    0.0000 C   0  0  0  0  0  0  0  0  0  0  0  0
   -3.4082    1.0740    0.0000 C   0  0  0  0  0  0  0  0  0  0  0  0
   -3.5073    2.5708    0.0000 O   0  0  0  0  0  0  0  0  0  0  0  0
  1  2  1  0
  2  3  2  3
  3  4  1  0
  4  5  1  0
  5  6  1  0
  5  7  1  0
  7  8  1  0
  8  9  1  0
  9 10  2  0
 10 11  1  0
 11 12  1  0
 12 13  2  0
 13 14  1  0
 14 15  2  0
 15 16  1  0
 16 17  2  0
 10 18  1  0
 18 19  2  0
 18 20  1  0
 21 20  1  1
 21 22  1  0
 22 23  1  0
 23 24  1  0
 21  3  1  0
 22  7  1  0
 17  9  1  0
 17 12  1  0
M  END
>  <identifier>  (1328) 
CNP0290959.5

>  <canonical_smiles>  (1328) 
CC=C1CN(C)C2CC3=C(NC4=CC=CC=C34)C(=O)C[C@@H]1C2CO

>  <standard_inchi>  (1328) 
InChI=1S/C20H24N2O2/c1-3-12-10-22(2)18-8-15-13-6-4-5-7-17(13)21-20(15)19(24)9-14(12)16(18)11-23/h3-7,14,16,18,21,23H,8-11H2,1-2H3/t14-,16?,18?/m0/s1

>  <standard_inchi_key>  (1328) 
PXFBZOLANLWPMH-NXVRBGIVSA-N

>  <name>  (1328) 
nan

>  <iupac_name>  (1328) 
(14~{R})-15-ethylidene-18-(hydroxymethyl)-17-methyl-10,17-diazatetracyclo[12.3.1.0^{3,11}.0^{4,9}]octadeca-3(11),4,6,8-tetraen-12-one

>  <annotation_level>  (1328) 
4

>  <total_atom_count>  (1328) 
48

>  <heavy_atom_count>  (1328) 
24

>  <molecular_weight>  (1328) 
324.42

>  <exact_molecular_weight>  (1328) 
324.18378

>  <molecular_formula>  (1328) 
C20H24N2O2

>  <alogp>  (1328) 
2.78

>  <topological_polar_surface_area>  (1328) 
56.33

>  <rotatable_bond_count>  (1328) 
1

>  <hydrogen_bond_acceptors>  (1328) 
3

>  <hydrogen_bond_donors>  (1328) 
2

>  <hydrogen_bond_acceptors_lipinski>  (1328) 
3

>  <hydrogen_bond_donors_lipinski>  (1328) 
2

>  <lipinski_rule_of_five_violations>  (1328) 
0

>  <aromatic_rings_count>  (1328) 
2

>  <qed_drug_likeliness>  (1328) 
0.79

>  <formal_charge>  (1328) 
0

>  <fractioncsp3>  (1328) 
0.45

>  <number_of_minimal_rings>  (1328) 
4

>  <van_der_walls_volume>  (1328) 
nan

>  <contains_sugar>  (1328) 
False

>  <contains_ring_sugars>  (1328) 
False

>  <contains_linear_sugars>  (1328) 
False

>  <murcko_framework>  (1328) 
c1ccc2c(c1)[nH]c3c2CC4NCCC(CC3)C4

>  <np_likeness>  (1328) 
1.87

>  <chemical_class>  (1328) 
Vobasan alkaloids

>  <chemical_sub_class>  (1328) 
Vobasan alkaloids

>  <chemical_super_class>  (1328) 
Alkaloids and derivatives

>  <direct_parent_classification>  (1328) 
Vobasan alkaloids

>  <np_classifier_pathway>  (1328) 
Alkaloids

>  <np_classifier_superclass>  (1328) 
Tryptophan alkaloids

>  <np_classifier_class>  (1328) 
Corynanthe type

>  <np_classifier_is_glycoside>  (1328) 
False

>  <organisms>  (1328) 
Peschiera catharinensis

>  <collections>  (1328) 
Latin America dataset|NuBBEDB

>  <dois>  (1328) 
10.1016/S0031-9422(00)80552-X

>  <synonyms>  (1328) 
16-epiaffinine

>  <cas>  (1328) 
nan

$$$$

     RDKit          2D

 25 28  0  0  0  0  0  0  0  0999 V2000
   -4.6941    3.6322    0.0000 C   0  0  0  0  0  0  0  0  0  0  0  0
   -5.0700    2.1801    0.0000 O   0  0  0  0  0  0  0  0  0  0  0  0
   -4.0004    1.1285    0.0000 C   0  0  0  0  0  0  0  0  0  0  0  0
   -2.5549    1.5290    0.0000 C   0  0  0  0  0  0  0  0  0  0  0  0
   -1.4852    0.4774    0.0000 C   0  0  0  0  0  0  0  0  0  0  0  0
   -1.8611   -0.9747    0.0000 C   0  0  0  0  0  0  0  0  0  0  0  0
   -3.3066   -1.3753    0.0000 C   0  0  0  0  0  0  0  0  0  0  0  0
   -3.6825   -2.8274    0.0000 O   0  0  0  0  0  0  0  0  0  0  0  0
   -4.3763   -0.3237    0.0000 C   0  0  0  0  0  0  0  0  0  0  0  0
   -5.8218   -0.7242    0.0000 O   0  0  0  0  0  0  0  0  0  0  0  0
   -6.8915    0.3274    0.0000 C   0  0  0  0  0  0  0  0  0  0  0  0
   -0.7915   -2.0263    0.0000 C   0  0  0  0  0  0  0  0  0  0  0  0
   -1.1673   -3.4785    0.0000 O   0  0  0  0  0  0  0  0  0  0  0  0
    0.6541   -1.6258    0.0000 C   0  0  0  0  0  0  0  0  0  0  0  0
    1.0300   -0.1736    0.0000 C   0  0  0  0  0  0  0  0  0  0  0  0
    2.4755    0.2269    0.0000 C   0  0  0  0  0  0  0  0  0  0  0  0
    2.8514    1.6790    0.0000 C   0  0  0  0  0  0  0  0  0  0  0  0
    4.2969    2.0796    0.0000 C   0  0  0  0  0  0  0  0  0  0  0  0
    5.3666    1.0280    0.0000 C   0  0  0  0  0  0  0  0  0  0  0  0
    6.8638    1.1192    0.0000 O   0  0  0  0  0  0  0  0  0  0  0  0
    7.4132   -0.2765    0.0000 C   0  0  0  0  0  0  0  0  0  0  0  0
    6.2556   -1.2304    0.0000 O   0  0  0  0  0  0  0  0  0  0  0  0
    4.9907   -0.4242    0.0000 C   0  0  0  0  0  0  0  0  0  0  0  0
    3.5451   -0.8247    0.0000 C   0  0  0  0  0  0  0  0  0  0  0  0
   -0.0397    0.8780    0.0000 O   0  0  0  0  0  0  0  0  0  0  0  0
  1  2  1  0
  2  3  1  0
  3  4  2  0
  4  5  1  0
  5  6  2  0
  6  7  1  0
  7  8  1  0
  7  9  2  0
  9 10  1  0
 10 11  1  0
  6 12  1  0
 12 13  2  0
 12 14  1  0
 14 15  2  0
 15 16  1  0
 16 17  2  0
 17 18  1  0
 18 19  2  0
 19 20  1  0
 20 21  1  0
 21 22  1  0
 22 23  1  0
 23 24  2  0
 15 25  1  0
  9  3  1  0
 24 16  1  0
 25  5  1  0
 23 19  1  0
M  END
>  <identifier>  (1329) 
CNP0220024.0

>  <canonical_smiles>  (1329) 
COC1=CC2=C(C(O)=C1OC)C(=O)C=C(C1=CC=C3OCOC3=C1)O2

>  <standard_inchi>  (1329) 
InChI=1S/C18H14O7/c1-21-15-7-14-16(17(20)18(15)22-2)10(19)6-12(25-14)9-3-4-11-13(5-9)24-8-23-11/h3-7,20H,8H2,1-2H3

>  <standard_inchi_key>  (1329) 
ICUTWTIGUGEDEI-UHFFFAOYSA-N

>  <name>  (1329) 
nan

>  <iupac_name>  (1329) 
2-(1,3-benzodioxol-5-yl)-5-hydroxy-6,7-dimethoxy-chromen-4-one

>  <annotation_level>  (1329) 
4

>  <total_atom_count>  (1329) 
39

>  <heavy_atom_count>  (1329) 
25

>  <molecular_weight>  (1329) 
342.3

>  <exact_molecular_weight>  (1329) 
342.07395

>  <molecular_formula>  (1329) 
C18H14O7

>  <alogp>  (1329) 
2.91

>  <topological_polar_surface_area>  (1329) 
87.36

>  <rotatable_bond_count>  (1329) 
3

>  <hydrogen_bond_acceptors>  (1329) 
7

>  <hydrogen_bond_donors>  (1329) 
1

>  <hydrogen_bond_acceptors_lipinski>  (1329) 
7

>  <hydrogen_bond_donors_lipinski>  (1329) 
1

>  <lipinski_rule_of_five_violations>  (1329) 
0

>  <aromatic_rings_count>  (1329) 
3

>  <qed_drug_likeliness>  (1329) 
0.78

>  <formal_charge>  (1329) 
0

>  <fractioncsp3>  (1329) 
0.17

>  <number_of_minimal_rings>  (1329) 
4

>  <van_der_walls_volume>  (1329) 
281.52

>  <contains_sugar>  (1329) 
False

>  <contains_ring_sugars>  (1329) 
False

>  <contains_linear_sugars>  (1329) 
False

>  <murcko_framework>  (1329) 
O1c2ccccc2CC=C1c3ccc4OCOc4c3

>  <np_likeness>  (1329) 
1.10

>  <chemical_class>  (1329) 
Flavonoids

>  <chemical_sub_class>  (1329) 
O-methylated flavonoids

>  <chemical_super_class>  (1329) 
Phenylpropanoids and polyketides

>  <direct_parent_classification>  (1329) 
6-O-methylated flavonoids

>  <np_classifier_pathway>  (1329) 
Shikimates and Phenylpropanoids

>  <np_classifier_superclass>  (1329) 
Flavonoids

>  <np_classifier_class>  (1329) 
Flavones

>  <np_classifier_is_glycoside>  (1329) 
False

>  <organisms>  (1329) 
Acer carpinifolium|Alternaria kikuchiana|Artemisia ludoviciana subsp. mexicana|Cleistopholis staudtii|Dipteryx odorata|Dysidea tupha|Echinacea pallida|Epimedium sagittatum|Evernia vulpina|Galium dasypodum|Helichrysum lepidissimum|Helleborus multifidus|Hopea utilis|Hypericum revolutum|Inocybe geophylla|Leuzea centauroides|Litsea salicifolia|Mesembryanthemum expansum|Monascus pilosus|Neoraputia paraensis|Osmorhiza aristata|Psychotria serpens|Pycnandra acuminata|Scabiosa succisa|Stipa vaseyi|Vernonia anisochaetoides

>  <collections>  (1329) 
CMAUP (cCollective molecular activities of useful plants)|Latin America dataset|NPASS|NuBBEDB|Super Natural II|TCMDB-Taiwan (Traditional Chinese Medicine database)|TCMID (Traditional Chinese Medicine Integrated Database)|UNPD (Universal Natural Products Database)|WikiData Natural Products|ZINC NP

>  <dois>  (1329) 
10.1590/S0103-50532003000300007

>  <synonyms>  (1329) 
5-Hydroxy-3'4'-methylenedioxy-67-dimethoxyflavone

>  <cas>  (1329) 
nan

$$$$

     RDKit          2D

 33 36  0  0  0  0  0  0  0  0999 V2000
    9.9986    0.6521    0.0000 C   0  0  0  0  0  0  0  0  0  0  0  0
    8.6837   -0.0697    0.0000 C   0  0  0  0  0  0  0  0  0  0  0  0
    8.6513   -1.5693    0.0000 C   0  0  0  0  0  0  0  0  0  0  0  0
    7.4012    0.7082    0.0000 C   0  0  0  0  0  0  0  0  0  0  0  0
    6.0862   -0.0135    0.0000 C   0  0  0  0  0  0  0  0  0  0  0  0
    4.8037    0.7644    0.0000 C   0  0  0  0  0  0  0  0  0  0  0  0
    3.4887    0.0426    0.0000 C   0  0  0  0  0  0  0  0  0  0  0  0
    3.4563   -1.4570    0.0000 C   0  0  0  0  0  0  0  0  0  0  0  0
    2.1414   -2.1788    0.0000 O   0  0  0  0  0  0  0  0  0  0  0  0
    4.7389   -2.2349    0.0000 O   0  0  0  0  0  0  0  0  0  0  0  0
    2.2062    0.8205    0.0000 C   0  0  0  0  0  0  0  0  0  0  0  0
    2.0817    2.3153    0.0000 C   0  0  0  0  0  0  0  0  0  0  0  0
    0.6216    2.6588    0.0000 C   0  0  0  0  0  0  0  0  0  0  0  0
   -0.1563    1.3763    0.0000 C   0  0  0  0  0  0  0  0  0  0  0  0
   -1.0116    2.6086    0.0000 C   0  0  0  0  0  0  0  0  0  0  0  0
   -1.6300    1.0962    0.0000 C   0  0  0  0  0  0  0  0  0  0  0  0
   -2.1242   -0.3200    0.0000 C   0  0  0  0  0  0  0  0  0  0  0  0
   -1.1448   -1.4562    0.0000 C   0  0  0  0  0  0  0  0  0  0  0  0
    0.3288   -1.1761    0.0000 C   0  0  0  0  0  0  0  0  0  0  0  0
    0.8230    0.2402    0.0000 C   0  0  0  0  0  0  0  0  0  0  0  0
    1.9158   -0.7874    0.0000 C   0  0  0  0  0  0  0  0  0  0  0  0
   -3.5978   -0.6001    0.0000 C   0  0  0  0  0  0  0  0  0  0  0  0
   -2.6184   -1.7362    0.0000 C   0  0  0  0  0  0  0  0  0  0  0  0
   -4.0921   -2.0163    0.0000 C   0  0  0  0  0  0  0  0  0  0  0  0
   -5.5657   -2.2964    0.0000 C   0  0  0  0  0  0  0  0  0  0  0  0
   -6.5451   -1.1603    0.0000 C   0  0  0  0  0  0  0  0  0  0  0  0
   -8.0187   -1.4404    0.0000 O   0  0  0  0  0  0  0  0  0  0  0  0
   -6.0508    0.2560    0.0000 C   0  0  0  0  0  0  0  0  0  0  0  0
   -6.0708    1.7558    0.0000 C   0  0  0  0  0  0  0  0  0  0  0  0
   -7.5314    0.4968    0.0000 C   0  0  0  0  0  0  0  0  0  0  0  0
   -4.5772    0.5360    0.0000 C   0  0  0  0  0  0  0  0  0  0  0  0
   -4.0829    1.9523    0.0000 C   0  0  0  0  0  0  0  0  0  0  0  0
   -2.6093    2.2324    0.0000 C   0  0  0  0  0  0  0  0  0  0  0  0
  1  2  1  0
  2  3  1  0
  2  4  2  0
  4  5  1  0
  5  6  1  0
  7  6  1  6
  7  8  1  0
  8  9  2  0
  8 10  1  0
  7 11  1  0
 11 12  1  1
 12 13  1  0
 13 14  1  0
 14 15  1  6
 14 16  1  0
 16 17  2  0
 17 18  1  0
 18 19  1  0
 19 20  1  0
 20 21  1  1
 17 22  1  0
 22 23  1  6
 22 24  1  0
 24 25  1  0
 25 26  1  0
 26 27  1  1
 26 28  1  0
 28 29  1  0
 28 30  1  0
 28 31  1  0
 31 32  1  6
 32 33  1  0
 20 11  1  0
 31 22  1  0
 20 14  1  0
 33 16  1  0
M  END
>  <identifier>  (1330) 
CNP0147334.2

>  <canonical_smiles>  (1330) 
CC(C)=CCC[C@H](C(=O)O)[C@@H]1CC[C@]2(C)C3=C(CC[C@@]12C)[C@@]1(C)CC[C@@H](O)C(C)(C)[C@@H]1CC3

>  <standard_inchi>  (1330) 
InChI=1S/C30H48O3/c1-19(2)9-8-10-20(26(32)33)21-13-17-30(7)23-11-12-24-27(3,4)25(31)15-16-28(24,5)22(23)14-18-29(21,30)6/h9,20-21,24-25,31H,8,10-18H2,1-7H3,(H,32,33)/t20-,21-,24-,25+,28+,29-,30+/m0/s1

>  <standard_inchi_key>  (1330) 
NBSBUIQBEPROBM-IMJUUJEHSA-N

>  <name>  (1330) 
alpha-Elemolic acid

>  <iupac_name>  (1330) 
(2~{S})-2-[(3~{R},5~{R},10~{S},13~{S},14~{S},17~{S})-3-hydroxy-4,4,10,13,14-pentamethyl-2,3,5,6,7,11,12,15,16,17-decahydro-1~{H}-cyclopenta[a]phenanthren-17-yl]-6-methyl-hept-5-enoic acid

>  <annotation_level>  (1330) 
5

>  <total_atom_count>  (1330) 
81

>  <heavy_atom_count>  (1330) 
33

>  <molecular_weight>  (1330) 
456.71

>  <exact_molecular_weight>  (1330) 
456.36035

>  <molecular_formula>  (1330) 
C30H48O3

>  <alogp>  (1330) 
7.54

>  <topological_polar_surface_area>  (1330) 
57.53

>  <rotatable_bond_count>  (1330) 
5

>  <hydrogen_bond_acceptors>  (1330) 
2

>  <hydrogen_bond_donors>  (1330) 
2

>  <hydrogen_bond_acceptors_lipinski>  (1330) 
2

>  <hydrogen_bond_donors_lipinski>  (1330) 
2

>  <lipinski_rule_of_five_violations>  (1330) 
1

>  <aromatic_rings_count>  (1330) 
0

>  <qed_drug_likeliness>  (1330) 
0.42

>  <formal_charge>  (1330) 
0

>  <fractioncsp3>  (1330) 
0.83

>  <number_of_minimal_rings>  (1330) 
4

>  <van_der_walls_volume>  (1330) 
465.36

>  <contains_sugar>  (1330) 
False

>  <contains_ring_sugars>  (1330) 
False

>  <contains_linear_sugars>  (1330) 
False

>  <murcko_framework>  (1330) 
C12=C(CCC3CCCCC13)C4CCCC4CC2

>  <np_likeness>  (1330) 
3.38

>  <chemical_class>  (1330) 
Steroids and steroid derivatives

>  <chemical_sub_class>  (1330) 
Hydroxysteroids

>  <chemical_super_class>  (1330) 
Lipids and lipid-like molecules

>  <direct_parent_classification>  (1330) 
Hydroxysteroids

>  <np_classifier_pathway>  (1330) 
Terpenoids

>  <np_classifier_superclass>  (1330) 
Triterpenoids

>  <np_classifier_class>  (1330) 
Lanostane, Tirucallane and Euphane triterpenoids

>  <np_classifier_is_glycoside>  (1330) 
False

>  <organisms>  (1330) 
Boswellia carteri|Boswellia carterii|Boswellia sacra|Canarium spp|Canarium spp.|Fomitopsis pinicola|Trattinnickia burserifolia|Trattinnickia rhoifolia|boswellia spp.

>  <collections>  (1330) 
CMAUP (cCollective molecular activities of useful plants)|ChEBI NPs|FooDB|KNApSaCK|Latin America dataset|NPASS|NPEdia|NuBBEDB|Super Natural II|WikiData Natural Products

>  <dois>  (1330) 
10.1016/J.FITOTE.2020.104694|10.1016/S0031-9422(99)00349-0|10.1021/np500198g|10.1590/S0103-50532004000300008

>  <synonyms>  (1330) 
(2R)-6-METHYL-2-((3R,5R,10R,13R,14S,17R)-4,4,10,13,14-PENTAMETHYL-3-OXIDANYL-2,3,5,6,7,11,12,15,16,17-DECAHYDRO-1H-CYCLOPENTA(A)PHENANTHREN-17-YL)HEPT-5-ENOIC ACID|(2S)-2-[(2S,5R,7R,11S,14S,15S)-5-hydroxy-2,6,6,11,15-pentamethyltetracyclo[8.7.0.0^{2,7}.0^{11,15}]heptadec-1(10)-en-14-yl]-6-methylhept-5-enoic acid|(2S)-2-[(3R,5R,10S,13S,14S,17S)-3-hydroxy-4,4,10,13,14-pentamethyl-2,3,5,6,7,11,12,15,16,17-decahydro-1H-cyclopenta[a]phenanthren-17-yl]-6-methylhept-5-enoic acid|(3alpha,13alpha,14beta,17alpha,20S)-3-Hydroxylanosta-8,24-dien-21-oic acid|13alpha,14beta,17betaH-Lanosta-8,24-dien-21-oic acid, 3alpha-hydroxy-, (20S)-|28282-27-1|3-Hydroxytirucallic acid|3\u221a\u00e9\u00ac\u00b1-hydroxytirucall-824-dien-21-oic|3alpha-Hydroxytirucalla-8,24-dien-21-oic acid|3alpha-Hydroxytirucallenoic acid|8L9Q67LR3K|BDBM50019156|C08623|CHEBI:10274|CHEMBL3289096|DTXSID201317040|Elemadienolic acid|I+\/--Elemolic acid|Lanosta-8,24-dien-21-oic acid, 3-hydroxy-, (3alpha,13alpha,14beta,17alpha,20S)-|Q27108608|SCHEMBL5605908|UNII-8L9Q67LR3K|a-Elemolic acid|alpha-Elemenadienolic acid|alpha-Elemolic acid

>  <cas>  (1330) 
28282-27-1

$$$$

     RDKit          2D

 36 41  0  0  0  0  0  0  0  0999 V2000
   -3.8222    5.1202    0.0000 C   0  0  0  0  0  0  0  0  0  0  0  0
   -2.7867    4.0350    0.0000 O   0  0  0  0  0  0  0  0  0  0  0  0
   -3.2088    2.5956    0.0000 C   0  0  0  0  0  0  0  0  0  0  0  0
   -4.6663    2.2414    0.0000 O   0  0  0  0  0  0  0  0  0  0  0  0
   -2.1732    1.5104    0.0000 C   0  0  0  0  0  0  0  0  0  0  0  0
   -2.5953    0.0710    0.0000 C   0  0  0  0  0  0  0  0  0  0  0  0
   -4.0529   -0.2832    0.0000 C   0  0  0  0  0  0  0  0  0  0  0  0
   -4.1486    1.2137    0.0000 C   0  0  0  0  0  0  0  0  0  0  0  0
   -5.5437   -0.1175    0.0000 C   0  0  0  0  0  0  0  0  0  0  0  0
   -4.4750   -1.7226    0.0000 C   0  0  0  0  0  0  0  0  0  0  0  0
   -5.9326   -2.0768    0.0000 O   0  0  0  0  0  0  0  0  0  0  0  0
   -3.4395   -2.8078    0.0000 C   0  0  0  0  0  0  0  0  0  0  0  0
   -1.9819   -2.4537    0.0000 C   0  0  0  0  0  0  0  0  0  0  0  0
   -0.7433   -3.2999    0.0000 O   0  0  0  0  0  0  0  0  0  0  0  0
    0.4442   -2.3835    0.0000 C   0  0  0  0  0  0  0  0  0  0  0  0
    1.0317   -3.1730    0.0000 C   0  0  0  0  0  0  0  0  0  0  0  0
    1.4152   -1.2402    0.0000 C   0  0  0  0  0  0  0  0  0  0  0  0
    2.2025   -2.5170    0.0000 C   0  0  0  0  0  0  0  0  0  0  0  0
    1.8443   -3.4336    0.0000 O   0  0  0  0  0  0  0  0  0  0  0  0
    3.7018   -2.4736    0.0000 C   0  0  0  0  0  0  0  0  0  0  0  0
    4.4891   -3.7504    0.0000 O   0  0  0  0  0  0  0  0  0  0  0  0
    4.4140   -1.1534    0.0000 O   0  0  0  0  0  0  0  0  0  0  0  0
    3.6267    0.1234    0.0000 C   0  0  0  0  0  0  0  0  0  0  0  0
    4.3388    1.4436    0.0000 C   0  0  0  0  0  0  0  0  0  0  0  0
    3.6893    2.7957    0.0000 C   0  0  0  0  0  0  0  0  0  0  0  0
    4.7745    3.8312    0.0000 O   0  0  0  0  0  0  0  0  0  0  0  0
    6.0947    3.1191    0.0000 C   0  0  0  0  0  0  0  0  0  0  0  0
    5.8254    1.6435    0.0000 C   0  0  0  0  0  0  0  0  0  0  0  0
    2.1273    0.0800    0.0000 C   0  0  0  0  0  0  0  0  0  0  0  0
    2.6975    1.4674    0.0000 C   0  0  0  0  0  0  0  0  0  0  0  0
    1.0918    1.1652    0.0000 C   0  0  0  0  0  0  0  0  0  0  0  0
   -0.2603    0.5157    0.0000 C   0  0  0  0  0  0  0  0  0  0  0  0
   -1.3689    1.5261    0.0000 O   0  0  0  0  0  0  0  0  0  0  0  0
   -0.0604   -0.9709    0.0000 C   0  0  0  0  0  0  0  0  0  0  0  0
   -1.5598   -1.0143    0.0000 C   0  0  0  0  0  0  0  0  0  0  0  0
   -0.9896    0.3731    0.0000 C   0  0  0  0  0  0  0  0  0  0  0  0
  1  2  1  0
  2  3  1  0
  3  4  2  0
  3  5  1  0
  6  5  1  6
  6  7  1  0
  7  8  1  0
  7  9  1  0
  7 10  1  0
 10 11  2  0
 10 12  1  0
 12 13  2  0
 13 14  1  0
 14 15  1  0
 15 16  1  6
 15 17  1  0
 17 18  1  1
 18 19  1  6
 18 20  1  0
 20 21  2  0
 20 22  1  0
 22 23  1  0
 23 24  1  6
 24 25  2  0
 25 26  1  0
 26 27  1  0
 27 28  2  0
 23 29  1  0
 29 30  1  6
 29 31  1  0
 31 32  1  0
 32 33  1  1
 34 32  1  6
 34 35  1  0
 35 36  1  6
 35  6  1  0
 35 13  1  0
 34 15  1  0
 29 17  1  0
 34 17  1  0
 28 24  1  0
M  END
>  <identifier>  (1331) 
CNP0284668.1

>  <canonical_smiles>  (1331) 
COC(=O)C[C@H]1C(C)(C)C(=O)C=C2O[C@]3(C)[C@@]45[C@@H](O)C(=O)O[C@@H](C6=COC=C6)[C@]4(C)C[C@H](O)[C@@]35[C@@]21C

>  <standard_inchi>  (1331) 
InChI=1S/C27H32O9/c1-22(2)14(9-18(30)33-6)24(4)17(10-15(22)28)36-25(5)26(24)16(29)11-23(3)20(13-7-8-34-12-13)35-21(32)19(31)27(23,25)26/h7-8,10,12,14,16,19-20,29,31H,9,11H2,1-6H3/t14-,16-,19-,20-,23-,24+,25-,26+,27+/m0/s1

>  <standard_inchi_key>  (1331) 
FTFQECABUHFREG-IUCUEDCESA-N

>  <name>  (1331) 
nan

>  <iupac_name>  (1331) 
methyl 2-[(1~{S},2~{S},8~{R},9~{S},10~{S},11~{S},13~{R},14~{R},17~{R})-14-(3-furyl)-11,17-dihydroxy-2,7,7,9,13-pentamethyl-6,16-dioxo-3,15-dioxapentacyclo[8.7.0.0^{1,13}.0^{2,10}.0^{4,9}]heptadec-4-en-8-yl]acetate

>  <annotation_level>  (1331) 
4

>  <total_atom_count>  (1331) 
68

>  <heavy_atom_count>  (1331) 
36

>  <molecular_weight>  (1331) 
500.54

>  <exact_molecular_weight>  (1331) 
500.20463

>  <molecular_formula>  (1331) 
C27H32O9

>  <alogp>  (1331) 
2.46

>  <topological_polar_surface_area>  (1331) 
132.50

>  <rotatable_bond_count>  (1331) 
3

>  <hydrogen_bond_acceptors>  (1331) 
9

>  <hydrogen_bond_donors>  (1331) 
2

>  <hydrogen_bond_acceptors_lipinski>  (1331) 
9

>  <hydrogen_bond_donors_lipinski>  (1331) 
2

>  <lipinski_rule_of_five_violations>  (1331) 
1

>  <aromatic_rings_count>  (1331) 
1

>  <qed_drug_likeliness>  (1331) 
0.60

>  <formal_charge>  (1331) 
0

>  <fractioncsp3>  (1331) 
0.67

>  <number_of_minimal_rings>  (1331) 
6

>  <van_der_walls_volume>  (1331) 
nan

>  <contains_sugar>  (1331) 
False

>  <contains_ring_sugars>  (1331) 
False

>  <contains_linear_sugars>  (1331) 
False

>  <murcko_framework>  (1331) 
o1ccc(c1)C2OCCC34C5OC6=CCCCC6C54CCC23

>  <np_likeness>  (1331) 
2.12

>  <chemical_class>  (1331) 
Oxocins

>  <chemical_sub_class>  (1331) 
Oxocins

>  <chemical_super_class>  (1331) 
Organoheterocyclic compounds

>  <direct_parent_classification>  (1331) 
Oxocins

>  <np_classifier_pathway>  (1331) 
Terpenoids

>  <np_classifier_superclass>  (1331) 
Triterpenoids

>  <np_classifier_class>  (1331) 
Limonoids

>  <np_classifier_is_glycoside>  (1331) 
False

>  <organisms>  (1331) 
Hortia oreadica

>  <collections>  (1331) 
Latin America dataset|NuBBEDB|WikiData Natural Products

>  <dois>  (1331) 
10.3390/MOLECULES190812031|10.3390/molecules190812031

>  <synonyms>  (1331) 
11\u221a\u00e9\u00ac\u2264-hydroxyhortiolide C

>  <cas>  (1331) 
nan

$$$$

     RDKit          2D

 23 24  0  0  0  0  0  0  0  0999 V2000
   -1.5149    3.1736    0.0000 C   0  0  0  0  0  0  0  0  0  0  0  0
   -0.3080    2.2828    0.0000 C   0  0  0  0  0  0  0  0  0  0  0  0
    1.0668    2.8827    0.0000 C   0  0  0  0  0  0  0  0  0  0  0  0
    2.2738    1.9920    0.0000 C   0  0  0  0  0  0  0  0  0  0  0  0
    2.1058    0.5014    0.0000 C   0  0  0  0  0  0  0  0  0  0  0  0
    0.7310   -0.0984    0.0000 C   0  0  0  0  0  0  0  0  0  0  0  0
   -0.6438   -0.6983    0.0000 C   0  0  0  0  0  0  0  0  0  0  0  0
    0.5631   -1.5890    0.0000 C   0  0  0  0  0  0  0  0  0  0  0  0
    1.7700   -2.4797    0.0000 C   0  0  0  0  0  0  0  0  0  0  0  0
    3.1448   -1.8799    0.0000 C   0  0  0  0  0  0  0  0  0  0  0  0
    3.3127   -0.3893    0.0000 C   0  0  0  0  0  0  0  0  0  0  0  0
    3.9803    0.9540    0.0000 C   0  0  0  0  0  0  0  0  0  0  0  0
    4.7515   -0.8135    0.0000 C   0  0  0  0  0  0  0  0  0  0  0  0
    5.8383    0.2204    0.0000 O   0  0  0  0  0  0  0  0  0  0  0  0
    5.1035   -2.2716    0.0000 O   0  0  0  0  0  0  0  0  0  0  0  0
   -0.4759    0.7923    0.0000 C   0  0  0  0  0  0  0  0  0  0  0  0
   -1.8507    0.1924    0.0000 C   0  0  0  0  0  0  0  0  0  0  0  0
   -3.0577    1.0831    0.0000 C   0  0  0  0  0  0  0  0  0  0  0  0
   -4.4325    0.4833    0.0000 C   0  0  0  0  0  0  0  0  0  0  0  0
   -5.6394    1.3740    0.0000 C   0  0  0  0  0  0  0  0  0  0  0  0
   -4.6004   -1.0073    0.0000 C   0  0  0  0  0  0  0  0  0  0  0  0
   -5.9752   -1.6072    0.0000 C   0  0  0  0  0  0  0  0  0  0  0  0
   -6.1432   -3.0978    0.0000 O   0  0  0  0  0  0  0  0  0  0  0  0
  1  2  2  0
  2  3  1  0
  3  4  1  0
  5  4  1  1
  5  6  1  0
  6  7  1  1
  6  8  1  0
  8  9  1  0
  9 10  1  0
 10 11  1  0
 11 12  1  6
 11 13  1  0
 13 14  2  0
 13 15  1  0
  6 16  1  0
 16 17  1  1
 17 18  1  0
 18 19  1  0
 19 20  1  1
 19 21  1  0
 21 22  1  0
 22 23  1  0
 16  2  1  0
 11  5  1  0
M  END
>  <identifier>  (1332) 
CNP0223198.2

>  <canonical_smiles>  (1332) 
C=C1CC[C@@H]2[C@](C)(CCC[C@]2(C)C(=O)O)[C@H]1CC[C@H](C)CCO

>  <standard_inchi>  (1332) 
InChI=1S/C20H34O3/c1-14(10-13-21)6-8-16-15(2)7-9-17-19(16,3)11-5-12-20(17,4)18(22)23/h14,16-17,21H,2,5-13H2,1,3-4H3,(H,22,23)/t14-,16-,17+,19+,20-/m0/s1

>  <standard_inchi_key>  (1332) 
NSRKLZRKJJQJLD-BEUFEYIVSA-N

>  <name>  (1332) 
Imbricatolic Acid

>  <iupac_name>  (1332) 
(1~{S},4~{a}~{R},5~{S},8~{a}~{R})-5-[(3~{S})-5-hydroxy-3-methyl-pentyl]-1,4~{a}-dimethyl-6-methylene-decalin-1-carboxylic acid

>  <annotation_level>  (1332) 
5

>  <total_atom_count>  (1332) 
57

>  <heavy_atom_count>  (1332) 
23

>  <molecular_weight>  (1332) 
322.49

>  <exact_molecular_weight>  (1332) 
322.25079

>  <molecular_formula>  (1332) 
C20H34O3

>  <alogp>  (1332) 
4.65

>  <topological_polar_surface_area>  (1332) 
57.53

>  <rotatable_bond_count>  (1332) 
6

>  <hydrogen_bond_acceptors>  (1332) 
2

>  <hydrogen_bond_donors>  (1332) 
2

>  <hydrogen_bond_acceptors_lipinski>  (1332) 
2

>  <hydrogen_bond_donors_lipinski>  (1332) 
2

>  <lipinski_rule_of_five_violations>  (1332) 
0

>  <aromatic_rings_count>  (1332) 
0

>  <qed_drug_likeliness>  (1332) 
0.70

>  <formal_charge>  (1332) 
0

>  <fractioncsp3>  (1332) 
0.85

>  <number_of_minimal_rings>  (1332) 
2

>  <van_der_walls_volume>  (1332) 
330.66

>  <contains_sugar>  (1332) 
False

>  <contains_ring_sugars>  (1332) 
False

>  <contains_linear_sugars>  (1332) 
False

>  <murcko_framework>  (1332) 
C1CCC2CCCCC2C1

>  <np_likeness>  (1332) 
2.97

>  <chemical_class>  (1332) 
Prenol lipids

>  <chemical_sub_class>  (1332) 
Diterpenoids

>  <chemical_super_class>  (1332) 
Lipids and lipid-like molecules

>  <direct_parent_classification>  (1332) 
Diterpenoids

>  <np_classifier_pathway>  (1332) 
Terpenoids

>  <np_classifier_superclass>  (1332) 
Diterpenoids

>  <np_classifier_class>  (1332) 
Labdane diterpenoids

>  <np_classifier_is_glycoside>  (1332) 
False

>  <organisms>  (1332) 
Actinidia deliciosa|Araucaria angustifolia|Asparagus officinalis|Astragalus dissectus|Breonia chinensis|Burkholderia ambifaria|Campylotropis hirtella|Cassine transvaalensis|Cephalaria cilicica|Ceropegia dichotoma|Codonopsis lanceolata|Coronilla scorpioides|Cotoneaster horizontalis|Crinum moorei|Crotalaria candicans|Cryptomeria japonica|Cupressus sempervirens|Dalea tuberculata|Dendrobium loddigesii|Dicranopteris linearis|Distephanus angulifolius|Dryopteris oligophlebia|Elsinoe annonae|Eria japonica|Eucalyptus apodophylla|Eucalyptus globulus subsp. bicostata|Eucalyptus rariflora|Eucalyptus umbra|Ficus indica|Glycosmis macrophylla|Gypsophila perfoliata|Hypericum polyanthemum|Ircinia ramosa|Juniperus chinensis|Juniperus communis|Juniperus communis var. communis|Juniperus drupacea|Juniperus formosana|Lepidium apetalum|Loranthus spicatus|Manfreda virginica|Martensia denticulata|Mentha cardiaca|Mikania hirsutissima|Minasia alpestris|Momordica dioica|Navanax inermis|Ocotea minarum|Ononis spinosa|Pachycereus pecten-aboriginum|Pentaclethra macrophylla|Periploca sepium|Phlomis fruticosa|Pinalia spicata|Pinus Massoniana|Plectranthus myrianthus|Podocarpus urbani|Pteris linearis|Pterocaulon purpurascens|Pterocaulon virgatum|Ptilonia magellanica|Rhodiola semenovii|Salvia rubescens|Salvia sessei|Securidaca longepedunculata|Sonneratia caseolaris|Stephania zippeliana|Stereocaulon strictum|Stevia lucida|Talaromyces variabilis|Teucrium divaricatum|Trisetum flavescens|Tristania conferta|Ulva conglobata|Vernonia cistifolia|Veronica polita

>  <collections>  (1332) 
Australian natural products|CMAUP (cCollective molecular activities of useful plants)|Latin America dataset|NPASS|NuBBEDB|Phyto4Health|Super Natural II|VietHerb|WikiData Natural Products|ZINC NP

>  <dois>  (1332) 
10.1002/HLCA.200890089|10.1016/0031-9422(95)00795-4|10.1016/J.FITOTE.2009.08.014|10.1016/S0031-9422(00)89538-2|10.1016/S0031-9422(00)90415-1|10.1016/S0031-9422(00)91124-5|10.1016/S0031-9422(00)98270-0|10.1016/j.fitote.2009.08.014|10.1248/CPB.36.3967|10.1248/CPB.44.1242

>  <synonyms>  (1332) 
(1S,4aR,5S,8aR)-5-[(3S)-5-hydroxy-3-methylpentyl]-1,4a-dimethyl-6-methylidene-3,4,5,7,8,8a-hexahydro-2H-naphthalene-1-carboxylic acid|6832-60-6|AKOS032948632|BDBM50155758|CHEMBL2048004|Imbricatolic acid

>  <cas>  (1332) 
6832-60-6

$$$$

     RDKit          2D

 43 47  0  0  0  0  0  0  0  0999 V2000
   -1.0841    0.6023    0.0000 C   0  0  0  0  0  0  0  0  0  0  0  0
   -0.6221   -0.8248    0.0000 O   0  0  0  0  0  0  0  0  0  0  0  0
    0.8448   -1.1381    0.0000 C   0  0  0  0  0  0  0  0  0  0  0  0
    1.8497   -0.0244    0.0000 C   0  0  0  0  0  0  0  0  0  0  0  0
    3.3166   -0.3378    0.0000 C   0  0  0  0  0  0  0  0  0  0  0  0
    3.7786   -1.7648    0.0000 C   0  0  0  0  0  0  0  0  0  0  0  0
    2.7738   -2.8785    0.0000 C   0  0  0  0  0  0  0  0  0  0  0  0
    3.2359   -4.3056    0.0000 O   0  0  0  0  0  0  0  0  0  0  0  0
    1.3069   -2.5652    0.0000 C   0  0  0  0  0  0  0  0  0  0  0  0
    0.3021   -3.6789    0.0000 O   0  0  0  0  0  0  0  0  0  0  0  0
   -1.1648   -3.3655    0.0000 C   0  0  0  0  0  0  0  0  0  0  0  0
   -1.6269   -1.9385    0.0000 O   0  0  0  0  0  0  0  0  0  0  0  0
   -3.0938   -1.6251    0.0000 C   0  0  0  0  0  0  0  0  0  0  0  0
   -3.5559   -0.1980    0.0000 C   0  0  0  0  0  0  0  0  0  0  0  0
   -5.0228    0.1153    0.0000 O   0  0  0  0  0  0  0  0  0  0  0  0
   -5.4849    1.5424    0.0000 C   0  0  0  0  0  0  0  0  0  0  0  0
   -4.4800    2.6561    0.0000 O   0  0  0  0  0  0  0  0  0  0  0  0
   -4.9421    4.0831    0.0000 C   0  0  0  0  0  0  0  0  0  0  0  0
   -3.9373    5.1968    0.0000 C   0  0  0  0  0  0  0  0  0  0  0  0
   -6.4090    4.3965    0.0000 C   0  0  0  0  0  0  0  0  0  0  0  0
   -6.8711    5.8235    0.0000 O   0  0  0  0  0  0  0  0  0  0  0  0
   -7.4138    3.2828    0.0000 C   0  0  0  0  0  0  0  0  0  0  0  0
   -8.8807    3.5961    0.0000 O   0  0  0  0  0  0  0  0  0  0  0  0
   -6.9518    1.8557    0.0000 C   0  0  0  0  0  0  0  0  0  0  0  0
   -7.9566    0.7420    0.0000 O   0  0  0  0  0  0  0  0  0  0  0  0
   -4.0986   -2.7388    0.0000 C   0  0  0  0  0  0  0  0  0  0  0  0
   -5.5655   -2.4254    0.0000 O   0  0  0  0  0  0  0  0  0  0  0  0
   -3.6366   -4.1658    0.0000 C   0  0  0  0  0  0  0  0  0  0  0  0
   -4.6414   -5.2795    0.0000 O   0  0  0  0  0  0  0  0  0  0  0  0
   -2.1697   -4.4792    0.0000 C   0  0  0  0  0  0  0  0  0  0  0  0
   -1.7076   -5.9063    0.0000 O   0  0  0  0  0  0  0  0  0  0  0  0
    5.2455   -2.0782    0.0000 C   0  0  0  0  0  0  0  0  0  0  0  0
    5.7076   -3.5053    0.0000 O   0  0  0  0  0  0  0  0  0  0  0  0
    6.2504   -0.9645    0.0000 C   0  0  0  0  0  0  0  0  0  0  0  0
    5.7883    0.4626    0.0000 C   0  0  0  0  0  0  0  0  0  0  0  0
    6.7931    1.5762    0.0000 C   0  0  0  0  0  0  0  0  0  0  0  0
    8.2600    1.2629    0.0000 C   0  0  0  0  0  0  0  0  0  0  0  0
    9.2649    2.3766    0.0000 C   0  0  0  0  0  0  0  0  0  0  0  0
    8.8028    3.8036    0.0000 C   0  0  0  0  0  0  0  0  0  0  0  0
    9.8076    4.9173    0.0000 O   0  0  0  0  0  0  0  0  0  0  0  0
    7.3359    4.1170    0.0000 C   0  0  0  0  0  0  0  0  0  0  0  0
    6.3311    3.0033    0.0000 C   0  0  0  0  0  0  0  0  0  0  0  0
    4.3214    0.7759    0.0000 O   0  0  0  0  0  0  0  0  0  0  0  0
  1  2  1  0
  2  3  1  0
  3  4  2  0
  4  5  1  0
  5  6  2  0
  6  7  1  0
  7  8  1  0
  7  9  2  0
  9 10  1  0
 11 10  1  1
 11 12  1  0
 12 13  1  0
 13 14  1  1
 14 15  1  0
 16 15  1  1
 16 17  1  0
 17 18  1  0
 18 19  1  6
 18 20  1  0
 20 21  1  1
 20 22  1  0
 22 23  1  6
 22 24  1  0
 24 25  1  6
 13 26  1  0
 26 27  1  6
 26 28  1  0
 28 29  1  1
 28 30  1  0
 30 31  1  6
  6 32  1  0
 32 33  2  0
 32 34  1  0
 34 35  2  0
 35 36  1  0
 36 37  2  0
 37 38  1  0
 38 39  2  0
 39 40  1  0
 39 41  1  0
 41 42  2  0
 35 43  1  0
  9  3  1  0
 30 11  1  0
 42 36  1  0
 43  5  1  0
 24 16  1  0
M  END
>  <identifier>  (1333) 
CNP0402050.1

>  <canonical_smiles>  (1333) 
COC1=CC2=C(C(O)=C1O[C@@H]1O[C@H](CO[C@@H]3O[C@@H](C)[C@H](O)[C@@H](O)[C@H]3O)[C@@H](O)[C@H](O)[C@H]1O)C(=O)C=C(C1=CC=C(O)C=C1)O2

>  <standard_inchi>  (1333) 
InChI=1S/C28H32O15/c1-10-19(31)22(34)24(36)27(40-10)39-9-17-20(32)23(35)25(37)28(42-17)43-26-16(38-2)8-15-18(21(26)33)13(30)7-14(41-15)11-3-5-12(29)6-4-11/h3-8,10,17,19-20,22-25,27-29,31-37H,9H2,1-2H3/t10-,17+,19-,20+,22+,23-,24+,25+,27+,28-/m0/s1

>  <standard_inchi_key>  (1333) 
IAXGLXFIQSEJPB-MBHQVIDASA-N

>  <name>  (1333) 
Nitensoside A

>  <iupac_name>  (1333) 
5-hydroxy-2-(4-hydroxyphenyl)-7-methoxy-6-[(2~{S},3~{R},4~{S},5~{S},6~{R})-3,4,5-trihydroxy-6-[[(2~{R},3~{R},4~{R},5~{R},6~{S})-3,4,5-trihydroxy-6-methyl-tetrahydropyran-2-yl]oxymethyl]tetrahydropyran-2-yl]oxy-chromen-4-one

>  <annotation_level>  (1333) 
5

>  <total_atom_count>  (1333) 
75

>  <heavy_atom_count>  (1333) 
43

>  <molecular_weight>  (1333) 
608.55

>  <exact_molecular_weight>  (1333) 
608.17412

>  <molecular_formula>  (1333) 
C28H32O15

>  <alogp>  (1333) 
-1.09

>  <topological_polar_surface_area>  (1333) 
238.20

>  <rotatable_bond_count>  (1333) 
7

>  <hydrogen_bond_acceptors>  (1333) 
15

>  <hydrogen_bond_donors>  (1333) 
8

>  <hydrogen_bond_acceptors_lipinski>  (1333) 
15

>  <hydrogen_bond_donors_lipinski>  (1333) 
8

>  <lipinski_rule_of_five_violations>  (1333) 
3

>  <aromatic_rings_count>  (1333) 
3

>  <qed_drug_likeliness>  (1333) 
0.16

>  <formal_charge>  (1333) 
0

>  <fractioncsp3>  (1333) 
0.46

>  <number_of_minimal_rings>  (1333) 
5

>  <van_der_walls_volume>  (1333) 
502.64

>  <contains_sugar>  (1333) 
True

>  <contains_ring_sugars>  (1333) 
True

>  <contains_linear_sugars>  (1333) 
False

>  <murcko_framework>  (1333) 
O1c2ccc(OC3OC(COC4OCCCC4)CCC3)cc2CC=C1c5ccccc5

>  <np_likeness>  (1333) 
1.76

>  <chemical_class>  (1333) 
Flavonoids

>  <chemical_sub_class>  (1333) 
Flavonoid glycosides

>  <chemical_super_class>  (1333) 
Phenylpropanoids and polyketides

>  <direct_parent_classification>  (1333) 
Flavonoid O-glycosides

>  <np_classifier_pathway>  (1333) 
Shikimates and Phenylpropanoids

>  <np_classifier_superclass>  (1333) 
Flavonoids

>  <np_classifier_class>  (1333) 
Flavones

>  <np_classifier_is_glycoside>  (1333) 
True

>  <organisms>  (1333) 
Pterogyne nitens

>  <collections>  (1333) 
ChemSpider NPs|KNApSaCK|Latin America dataset|NuBBEDB|Super Natural II|WikiData Natural Products

>  <dois>  (1333) 
10.1021/NP800612X|10.1248/CPB.56.723|10.1248/cpb.56.723

>  <synonyms>  (1333) 
5-hydroxy-2-(4-hydroxyphenyl)-7-methoxy-6-[(2S,3R,4S,5S,6R)-3,4,5-trihydroxy-6-[[(2R,3R,4R,5R,6S)-3,4,5-trihydroxy-6-methyloxan-2-yl]oxymethyl]oxan-2-yl]oxychromen-4-one|Nitensoside A|Nitensoside A, Sorbifolin 6-O-\u221a\u00e9\u00ac\u00b1-rhamnopyranosyl(1'''\u221a\u00a2\u201a\u00c4\u2020\u201a\u00c4\u00f46'')-\u221a\u00e9\u00ac\u2264-glucopyranoside

>  <cas>  (1333) 
nan

$$$$

     RDKit          2D

 83 92  0  0  0  0  0  0  0  0999 V2000
  -13.4239    5.3424    0.0000 C   0  0  0  0  0  0  0  0  0  0  0  0
  -12.0048    4.8564    0.0000 C   0  0  0  0  0  0  0  0  0  0  0  0
  -11.7162    3.3844    0.0000 O   0  0  0  0  0  0  0  0  0  0  0  0
  -10.2971    2.8983    0.0000 C   0  0  0  0  0  0  0  0  0  0  0  0
  -10.0086    1.4263    0.0000 O   0  0  0  0  0  0  0  0  0  0  0  0
   -8.5895    0.9403    0.0000 C   0  0  0  0  0  0  0  0  0  0  0  0
   -8.3009   -0.5317    0.0000 C   0  0  0  0  0  0  0  0  0  0  0  0
   -6.8818   -1.0177    0.0000 O   0  0  0  0  0  0  0  0  0  0  0  0
   -6.5932   -2.4897    0.0000 C   0  0  0  0  0  0  0  0  0  0  0  0
   -5.1742   -2.9758    0.0000 O   0  0  0  0  0  0  0  0  0  0  0  0
   -4.0437   -1.9899    0.0000 C   0  0  0  0  0  0  0  0  0  0  0  0
   -2.6246   -2.4759    0.0000 C   0  0  0  0  0  0  0  0  0  0  0  0
   -2.3360   -3.9479    0.0000 C   0  0  0  0  0  0  0  0  0  0  0  0
   -3.4665   -4.9338    0.0000 C   0  0  0  0  0  0  0  0  0  0  0  0
   -3.1779   -6.4058    0.0000 C   0  0  0  0  0  0  0  0  0  0  0  0
   -1.7589   -6.8919    0.0000 C   0  0  0  0  0  0  0  0  0  0  0  0
   -1.4703   -8.3638    0.0000 O   0  0  0  0  0  0  0  0  0  0  0  0
   -0.6284   -5.9059    0.0000 C   0  0  0  0  0  0  0  0  0  0  0  0
   -0.9170   -4.4340    0.0000 C   0  0  0  0  0  0  0  0  0  0  0  0
   -1.4942   -1.4900    0.0000 O   0  0  0  0  0  0  0  0  0  0  0  0
   -1.7828   -0.0180    0.0000 C   0  0  0  0  0  0  0  0  0  0  0  0
   -0.6523    0.9679    0.0000 C   0  0  0  0  0  0  0  0  0  0  0  0
   -0.9409    2.4399    0.0000 C   0  0  0  0  0  0  0  0  0  0  0  0
    0.1896    3.4258    0.0000 O   0  0  0  0  0  0  0  0  0  0  0  0
    1.6087    2.9397    0.0000 C   0  0  0  0  0  0  0  0  0  0  0  0
    1.8973    1.4677    0.0000 C   0  0  0  0  0  0  0  0  0  0  0  0
    3.3163    0.9817    0.0000 C   0  0  0  0  0  0  0  0  0  0  0  0
    3.6049   -0.4903    0.0000 O   0  0  0  0  0  0  0  0  0  0  0  0
    4.4468    1.9676    0.0000 C   0  0  0  0  0  0  0  0  0  0  0  0
    5.8659    1.4815    0.0000 C   0  0  0  0  0  0  0  0  0  0  0  0
    6.1544    0.0096    0.0000 O   0  0  0  0  0  0  0  0  0  0  0  0
    6.9963    2.4675    0.0000 C   0  0  0  0  0  0  0  0  0  0  0  0
    8.4154    1.9814    0.0000 O   0  0  0  0  0  0  0  0  0  0  0  0
    8.7040    0.5094    0.0000 C   0  0  0  0  0  0  0  0  0  0  0  0
    7.5735   -0.4765    0.0000 O   0  0  0  0  0  0  0  0  0  0  0  0
    7.8621   -1.9485    0.0000 C   0  0  0  0  0  0  0  0  0  0  0  0
    6.7316   -2.9344    0.0000 C   0  0  0  0  0  0  0  0  0  0  0  0
    5.3126   -2.4483    0.0000 O   0  0  0  0  0  0  0  0  0  0  0  0
    4.1821   -3.4342    0.0000 C   0  0  0  0  0  0  0  0  0  0  0  0
    2.7630   -2.9482    0.0000 O   0  0  0  0  0  0  0  0  0  0  0  0
    1.6326   -3.9341    0.0000 C   0  0  0  0  0  0  0  0  0  0  0  0
    0.2135   -3.4480    0.0000 C   0  0  0  0  0  0  0  0  0  0  0  0
    1.9212   -5.4061    0.0000 C   0  0  0  0  0  0  0  0  0  0  0  0
    0.7907   -6.3920    0.0000 O   0  0  0  0  0  0  0  0  0  0  0  0
    3.3402   -5.8921    0.0000 C   0  0  0  0  0  0  0  0  0  0  0  0
    3.6288   -7.3641    0.0000 O   0  0  0  0  0  0  0  0  0  0  0  0
    4.4707   -4.9062    0.0000 C   0  0  0  0  0  0  0  0  0  0  0  0
    5.8898   -5.3923    0.0000 O   0  0  0  0  0  0  0  0  0  0  0  0
    9.2812   -2.4345    0.0000 C   0  0  0  0  0  0  0  0  0  0  0  0
    9.5698   -3.9065    0.0000 O   0  0  0  0  0  0  0  0  0  0  0  0
   10.4116   -1.4486    0.0000 C   0  0  0  0  0  0  0  0  0  0  0  0
   11.8307   -1.9347    0.0000 O   0  0  0  0  0  0  0  0  0  0  0  0
   10.1231    0.0234    0.0000 C   0  0  0  0  0  0  0  0  0  0  0  0
   11.2535    1.0093    0.0000 O   0  0  0  0  0  0  0  0  0  0  0  0
    6.7077    3.9394    0.0000 C   0  0  0  0  0  0  0  0  0  0  0  0
    7.8382    4.9254    0.0000 C   0  0  0  0  0  0  0  0  0  0  0  0
    9.2573    4.4393    0.0000 C   0  0  0  0  0  0  0  0  0  0  0  0
   10.3877    5.4252    0.0000 C   0  0  0  0  0  0  0  0  0  0  0  0
   10.0991    6.8972    0.0000 C   0  0  0  0  0  0  0  0  0  0  0  0
   11.2296    7.8831    0.0000 O   0  0  0  0  0  0  0  0  0  0  0  0
    8.6801    7.3833    0.0000 C   0  0  0  0  0  0  0  0  0  0  0  0
    7.5496    6.3973    0.0000 C   0  0  0  0  0  0  0  0  0  0  0  0
    5.2887    4.4255    0.0000 O   0  0  0  0  0  0  0  0  0  0  0  0
    4.1582    3.4396    0.0000 C   0  0  0  0  0  0  0  0  0  0  0  0
    2.7391    3.9256    0.0000 C   0  0  0  0  0  0  0  0  0  0  0  0
   -2.3599    2.9259    0.0000 C   0  0  0  0  0  0  0  0  0  0  0  0
   -3.4904    1.9400    0.0000 C   0  0  0  0  0  0  0  0  0  0  0  0
   -4.9095    2.4261    0.0000 O   0  0  0  0  0  0  0  0  0  0  0  0
   -3.2018    0.4680    0.0000 C   0  0  0  0  0  0  0  0  0  0  0  0
   -4.3323   -0.5179    0.0000 C   0  0  0  0  0  0  0  0  0  0  0  0
   -5.7514   -0.0318    0.0000 O   0  0  0  0  0  0  0  0  0  0  0  0
   -7.7237   -3.4756    0.0000 C   0  0  0  0  0  0  0  0  0  0  0  0
   -7.4351   -4.9476    0.0000 O   0  0  0  0  0  0  0  0  0  0  0  0
   -9.1428   -2.9896    0.0000 C   0  0  0  0  0  0  0  0  0  0  0  0
  -10.2732   -3.9755    0.0000 O   0  0  0  0  0  0  0  0  0  0  0  0
   -9.4314   -1.5176    0.0000 C   0  0  0  0  0  0  0  0  0  0  0  0
  -10.8504   -1.0315    0.0000 O   0  0  0  0  0  0  0  0  0  0  0  0
   -9.1667    3.8842    0.0000 C   0  0  0  0  0  0  0  0  0  0  0  0
   -7.7476    3.3982    0.0000 O   0  0  0  0  0  0  0  0  0  0  0  0
   -9.4553    5.3562    0.0000 C   0  0  0  0  0  0  0  0  0  0  0  0
   -8.3248    6.3421    0.0000 O   0  0  0  0  0  0  0  0  0  0  0  0
  -10.8743    5.8423    0.0000 C   0  0  0  0  0  0  0  0  0  0  0  0
  -11.1629    7.3142    0.0000 O   0  0  0  0  0  0  0  0  0  0  0  0
  2  1  1  1
  2  3  1  0
  3  4  1  0
  4  5  1  6
  5  6  1  0
  7  6  1  1
  7  8  1  0
  8  9  1  0
  9 10  1  1
 10 11  1  0
 11 12  2  0
 12 13  1  0
 13 14  2  0
 14 15  1  0
 15 16  2  0
 16 17  1  0
 16 18  1  0
 18 19  2  0
 12 20  1  0
 20 21  1  0
 21 22  2  0
 22 23  1  0
 23 24  1  0
 24 25  1  0
 25 26  2  0
 26 27  1  0
 27 28  1  0
 27 29  2  0
 29 30  1  0
 30 31  2  0
 30 32  1  0
 32 33  1  0
 34 33  1  1
 34 35  1  0
 35 36  1  0
 36 37  1  1
 37 38  1  0
 39 38  1  6
 39 40  1  0
 40 41  1  0
 41 42  1  6
 41 43  1  0
 43 44  1  1
 43 45  1  0
 45 46  1  6
 45 47  1  0
 47 48  1  6
 36 49  1  0
 49 50  1  1
 49 51  1  0
 51 52  1  1
 51 53  1  0
 53 54  1  6
 32 55  2  0
 55 56  1  0
 56 57  2  0
 57 58  1  0
 58 59  2  0
 59 60  1  0
 59 61  1  0
 61 62  2  0
 55 63  1  0
 63 64  1  0
 64 65  2  0
 23 66  2  0
 66 67  1  0
 67 68  1  0
 67 69  2  0
 69 70  1  0
 70 71  2  0
  9 72  1  0
 72 73  1  6
 72 74  1  0
 74 75  1  1
 74 76  1  0
 76 77  1  6
  4 78  1  0
 78 79  1  1
 78 80  1  0
 80 81  1  1
 80 82  1  0
 82 83  1  6
 82  2  1  0
 76  7  1  0
 70 11  1  0
 19 13  1  0
 69 21  1  0
 65 25  1  0
 64 29  1  0
 53 34  1  0
 62 56  1  0
 47 39  1  0
M  END
>  <identifier>  (1334) 
CNP0080364.1

>  <canonical_smiles>  (1334) 
C[C@@H]1O[C@@H](OC[C@H]2O[C@@H](OC3=C(C4=CC=C(O)C=C4)OC4=CC(OC5=CC(O)=C6C(=O)C(O[C@@H]7O[C@H](CO[C@H]8O[C@@H](C)[C@H](O)[C@@H](O)[C@H]8O)[C@H](O)[C@H](O)[C@H]7O)=C(C7=CC=C(O)C=C7)OC6=C5)=CC(O)=C4C3=O)[C@H](O)[C@@H](O)[C@@H]2O)[C@H](O)[C@H](O)[C@H]1O

>  <standard_inchi>  (1334) 
InChI=1S/C54H58O29/c1-17-33(59)39(65)43(69)51(75-17)73-15-29-35(61)41(67)45(71)53(80-29)82-49-37(63)31-25(57)11-23(13-27(31)78-47(49)19-3-7-21(55)8-4-19)77-24-12-26(58)32-28(14-24)79-48(20-5-9-22(56)10-6-20)50(38(32)64)83-54-46(72)42(68)36(62)30(81-54)16-74-52-44(70)40(66)34(60)18(2)76-52/h3-14,17-18,29-30,33-36,39-46,51-62,65-72H,15-16H2,1-2H3/t17-,18-,29+,30+,33-,34-,35-,36+,39+,40+,41-,42-,43+,44+,45+,46+,51-,52+,53-,54-/m0/s1

>  <standard_inchi_key>  (1334) 
IDEAHSWPVAPDEN-ACACJXAFSA-N

>  <name>  (1334) 
nan

>  <iupac_name>  (1334) 
5-hydroxy-7-[5-hydroxy-2-(4-hydroxyphenyl)-4-oxo-3-[(2~{S},3~{R},4~{S},5~{R},6~{R})-3,4,5-trihydroxy-6-[[(2~{S},3~{R},4~{R},5~{R},6~{S})-3,4,5-trihydroxy-6-methyl-tetrahydropyran-2-yl]oxymethyl]tetrahydropyran-2-yl]oxy-chromen-7-yl]oxy-2-(4-hydroxyphenyl)-3-[(2~{S},3~{R},4~{S},5~{S},6~{R})-3,4,5-trihydroxy-6-[[(2~{R},3~{R},4~{R},5~{R},6~{S})-3,4,5-trihydroxy-6-methyl-tetrahydropyran-2-yl]oxymethyl]tetrahydropyran-2-yl]oxy-chromen-4-one

>  <annotation_level>  (1334) 
5

>  <total_atom_count>  (1334) 
141

>  <heavy_atom_count>  (1334) 
83

>  <molecular_weight>  (1334) 
1171.03

>  <exact_molecular_weight>  (1334) 
1170.30638

>  <molecular_formula>  (1334) 
C54H58O29

>  <alogp>  (1334) 
-2.09

>  <topological_polar_surface_area>  (1334) 
467.17

>  <rotatable_bond_count>  (1334) 
14

>  <hydrogen_bond_acceptors>  (1334) 
29

>  <hydrogen_bond_donors>  (1334) 
16

>  <hydrogen_bond_acceptors_lipinski>  (1334) 
29

>  <hydrogen_bond_donors_lipinski>  (1334) 
16

>  <lipinski_rule_of_five_violations>  (1334) 
3

>  <aromatic_rings_count>  (1334) 
6

>  <qed_drug_likeliness>  (1334) 
0.06

>  <formal_charge>  (1334) 
0

>  <fractioncsp3>  (1334) 
0.44

>  <number_of_minimal_rings>  (1334) 
10

>  <van_der_walls_volume>  (1334) 
947.87

>  <contains_sugar>  (1334) 
True

>  <contains_ring_sugars>  (1334) 
True

>  <contains_linear_sugars>  (1334) 
False

>  <murcko_framework>  (1334) 
O(c1ccc2c(OC(=C(OC3OC(COC4OCCCC4)CCC3)C2)c5ccccc5)c1)c6ccc7c(OC(=C(OC8OC(COC9OCCCC9)CCC8)C7)c%10ccccc%10)c6

>  <np_likeness>  (1334) 
0.93

>  <chemical_class>  (1334) 
Flavonoids

>  <chemical_sub_class>  (1334) 
Flavonoid glycosides

>  <chemical_super_class>  (1334) 
Phenylpropanoids and polyketides

>  <direct_parent_classification>  (1334) 
Flavonoid-3-O-glycosides

>  <np_classifier_pathway>  (1334) 
Shikimates and Phenylpropanoids

>  <np_classifier_superclass>  (1334) 
Flavonoids

>  <np_classifier_class>  (1334) 
Flavonols

>  <np_classifier_is_glycoside>  (1334) 
True

>  <organisms>  (1334) 
Chimarrhis turbinata

>  <collections>  (1334) 
ChemSpider NPs|Latin America dataset|NuBBEDB|WikiData Natural Products

>  <dois>  (1334) 
10.1590/S0103-50532005000800008

>  <synonyms>  (1334) 
Chimarrhoside

>  <cas>  (1334) 
nan

$$$$

     RDKit          2D

 37 42  0  0  0  0  0  0  0  0999 V2000
   -1.8885    5.0872    0.0000 C   0  0  0  0  0  0  0  0  0  0  0  0
   -1.4467    3.6538    0.0000 O   0  0  0  0  0  0  0  0  0  0  0  0
   -2.4671    2.5544    0.0000 C   0  0  0  0  0  0  0  0  0  0  0  0
   -3.9295    2.8885    0.0000 C   0  0  0  0  0  0  0  0  0  0  0  0
   -4.9499    1.7891    0.0000 C   0  0  0  0  0  0  0  0  0  0  0  0
   -6.4123    2.1232    0.0000 O   0  0  0  0  0  0  0  0  0  0  0  0
   -4.5081    0.3557    0.0000 C   0  0  0  0  0  0  0  0  0  0  0  0
   -5.9965    0.1694    0.0000 C   0  0  0  0  0  0  0  0  0  0  0  0
   -4.5832   -1.1425    0.0000 C   0  0  0  0  0  0  0  0  0  0  0  0
   -3.0458    0.0216    0.0000 C   0  0  0  0  0  0  0  0  0  0  0  0
   -2.6039   -1.4119    0.0000 C   0  0  0  0  0  0  0  0  0  0  0  0
   -1.1416   -1.7459    0.0000 C   0  0  0  0  0  0  0  0  0  0  0  0
   -0.6997   -3.1794    0.0000 O   0  0  0  0  0  0  0  0  0  0  0  0
   -1.7202   -4.2787    0.0000 C   0  0  0  0  0  0  0  0  0  0  0  0
   -1.2784   -5.7122    0.0000 C   0  0  0  0  0  0  0  0  0  0  0  0
   -3.1825   -3.9447    0.0000 O   0  0  0  0  0  0  0  0  0  0  0  0
   -0.1211   -0.6465    0.0000 C   0  0  0  0  0  0  0  0  0  0  0  0
   -1.5834   -0.3125    0.0000 C   0  0  0  0  0  0  0  0  0  0  0  0
   -0.5630    0.7869    0.0000 C   0  0  0  0  0  0  0  0  0  0  0  0
    0.4575    1.8863    0.0000 C   0  0  0  0  0  0  0  0  0  0  0  0
    1.9198    1.5522    0.0000 C   0  0  0  0  0  0  0  0  0  0  0  0
    2.3617    0.1188    0.0000 C   0  0  0  0  0  0  0  0  0  0  0  0
    3.3822    1.2181    0.0000 C   0  0  0  0  0  0  0  0  0  0  0  0
    3.8240   -0.2153    0.0000 C   0  0  0  0  0  0  0  0  0  0  0  0
    4.8445    0.8841    0.0000 C   0  0  0  0  0  0  0  0  0  0  0  0
    4.5549    2.3558    0.0000 C   0  0  0  0  0  0  0  0  0  0  0  0
    5.8652    3.0861    0.0000 O   0  0  0  0  0  0  0  0  0  0  0  0
    6.9645    2.0656    0.0000 C   0  0  0  0  0  0  0  0  0  0  0  0
    6.3337    0.7047    0.0000 C   0  0  0  0  0  0  0  0  0  0  0  0
    4.2659   -1.6488    0.0000 O   0  0  0  0  0  0  0  0  0  0  0  0
    3.2454   -2.7481    0.0000 C   0  0  0  0  0  0  0  0  0  0  0  0
    3.6872   -4.1816    0.0000 O   0  0  0  0  0  0  0  0  0  0  0  0
    1.7831   -2.4141    0.0000 C   0  0  0  0  0  0  0  0  0  0  0  0
    0.3207   -2.0800    0.0000 O   0  0  0  0  0  0  0  0  0  0  0  0
    1.3412   -0.9806    0.0000 C   0  0  0  0  0  0  0  0  0  0  0  0
   -2.0253    1.1210    0.0000 C   0  0  0  0  0  0  0  0  0  0  0  0
   -1.0048    2.2203    0.0000 C   0  0  0  0  0  0  0  0  0  0  0  0
  1  2  1  0
  3  2  1  6
  3  4  1  0
  4  5  1  0
  5  6  2  0
  5  7  1  0
  7  8  1  0
  7  9  1  0
  7 10  1  0
 10 11  1  1
 11 12  1  0
 12 13  1  6
 13 14  1  0
 14 15  1  0
 14 16  2  0
 12 17  1  0
 17 18  1  1
 17 19  1  0
 19 20  1  1
 20 21  1  0
 21 22  1  0
 22 23  1  6
 22 24  1  0
 24 25  1  6
 25 26  2  0
 26 27  1  0
 27 28  1  0
 28 29  2  0
 24 30  1  0
 30 31  1  0
 31 32  2  0
 31 33  1  0
 33 34  1  1
 35 34  1  1
 19 36  1  0
 36 37  1  1
 36  3  1  0
 36 10  1  0
 35 17  1  0
 35 22  1  0
 29 25  1  0
 35 33  1  0
M  END
>  <identifier>  (1335) 
CNP0239841.1

>  <canonical_smiles>  (1335) 
CO[C@H]1CC(=O)C(C)(C)[C@@H]2C[C@@H](OC(C)=O)[C@]3(C)[C@H](CC[C@@]4(C)[C@H](C5=COC=C5)OC(=O)[C@H]5O[C@@]534)[C@@]12C

>  <standard_inchi>  (1335) 
InChI=1S/C29H38O8/c1-15(30)35-21-12-18-25(2,3)19(31)13-20(33-7)27(18,5)17-8-10-26(4)22(16-9-11-34-14-16)36-24(32)23-29(26,37-23)28(17,21)6/h9,11,14,17-18,20-23H,8,10,12-13H2,1-7H3/t17-,18+,20+,21-,22+,23-,26+,27-,28+,29-/m1/s1

>  <standard_inchi_key>  (1335) 
GCCXERNSYFSLHR-CWGLGJKWSA-N

>  <name>  (1335) 
nan

>  <iupac_name>  (1335) 
[(1~{S},2~{R},4~{S},7~{S},8~{S},11~{R},12~{R},13~{S},17~{R},19~{R})-7-(3-furyl)-13-methoxy-1,8,12,16,16-pentamethyl-5,15-dioxo-3,6-dioxapentacyclo[9.8.0.0^{2,4}.0^{2,8}.0^{12,17}]nonadecan-19-yl] acetate

>  <annotation_level>  (1335) 
4

>  <total_atom_count>  (1335) 
75

>  <heavy_atom_count>  (1335) 
37

>  <molecular_weight>  (1335) 
514.62

>  <exact_molecular_weight>  (1335) 
514.25667

>  <molecular_formula>  (1335) 
C29H38O8

>  <alogp>  (1335) 
4.41

>  <topological_polar_surface_area>  (1335) 
104.57

>  <rotatable_bond_count>  (1335) 
3

>  <hydrogen_bond_acceptors>  (1335) 
8

>  <hydrogen_bond_donors>  (1335) 
0

>  <hydrogen_bond_acceptors_lipinski>  (1335) 
8

>  <hydrogen_bond_donors_lipinski>  (1335) 
0

>  <lipinski_rule_of_five_violations>  (1335) 
1

>  <aromatic_rings_count>  (1335) 
1

>  <qed_drug_likeliness>  (1335) 
0.43

>  <formal_charge>  (1335) 
0

>  <fractioncsp3>  (1335) 
0.76

>  <number_of_minimal_rings>  (1335) 
6

>  <van_der_walls_volume>  (1335) 
nan

>  <contains_sugar>  (1335) 
False

>  <contains_ring_sugars>  (1335) 
False

>  <contains_linear_sugars>  (1335) 
False

>  <murcko_framework>  (1335) 
o1ccc(c1)C2OCC3OC34C2CCC5C6CCCCC6CCC54

>  <np_likeness>  (1335) 
3.18

>  <chemical_class>  (1335) 
Prenol lipids

>  <chemical_sub_class>  (1335) 
Triterpenoids

>  <chemical_super_class>  (1335) 
Lipids and lipid-like molecules

>  <direct_parent_classification>  (1335) 
Limonoids

>  <np_classifier_pathway>  (1335) 
Terpenoids

>  <np_classifier_superclass>  (1335) 
Triterpenoids

>  <np_classifier_class>  (1335) 
Limonoids

>  <np_classifier_is_glycoside>  (1335) 
False

>  <organisms>  (1335) 
Cedrela odorata

>  <collections>  (1335) 
Latin America dataset|NuBBEDB|WikiData Natural Products

>  <dois>  (1335) 
10.1016/S0031-9422(96)00747-9

>  <synonyms>  (1335) 
1\u221a\u00e9\u00ac\u00b1-Methoxy-12-dihydrogedunin

>  <cas>  (1335) 
nan

$$$$

     RDKit          2D

 36 40  0  0  0  0  0  0  0  0999 V2000
   -7.4008   -1.6402    0.0000 C   0  0  0  0  0  0  0  0  0  0  0  0
   -5.9571   -1.2333    0.0000 C   0  0  0  0  0  0  0  0  0  0  0  0
   -5.5876    0.2205    0.0000 C   0  0  0  0  0  0  0  0  0  0  0  0
   -4.1438    0.6274    0.0000 C   0  0  0  0  0  0  0  0  0  0  0  0
   -3.7743    2.0812    0.0000 C   0  0  0  0  0  0  0  0  0  0  0  0
   -4.8486    3.1281    0.0000 C   0  0  0  0  0  0  0  0  0  0  0  0
   -2.3306    2.4881    0.0000 C   0  0  0  0  0  0  0  0  0  0  0  0
   -1.8112    3.8953    0.0000 C   0  0  0  0  0  0  0  0  0  0  0  0
   -0.3123    3.8361    0.0000 C   0  0  0  0  0  0  0  0  0  0  0  0
    0.0946    2.3924    0.0000 C   0  0  0  0  0  0  0  0  0  0  0  0
    1.2480    3.3513    0.0000 C   0  0  0  0  0  0  0  0  0  0  0  0
    1.4398    1.7287    0.0000 C   0  0  0  0  0  0  0  0  0  0  0  0
    2.6871    2.5618    0.0000 C   0  0  0  0  0  0  0  0  0  0  0  0
    4.0323    1.8981    0.0000 C   0  0  0  0  0  0  0  0  0  0  0  0
    4.1301    0.4013    0.0000 C   0  0  0  0  0  0  0  0  0  0  0  0
    5.4753   -0.2623    0.0000 C   0  0  0  0  0  0  0  0  0  0  0  0
    6.9664   -0.4259    0.0000 C   0  0  0  0  0  0  0  0  0  0  0  0
    5.8953    1.1777    0.0000 C   0  0  0  0  0  0  0  0  0  0  0  0
    5.5732   -1.7591    0.0000 C   0  0  0  0  0  0  0  0  0  0  0  0
    6.9184   -2.4228    0.0000 O   0  0  0  0  0  0  0  0  0  0  0  0
    4.3258   -2.5923    0.0000 C   0  0  0  0  0  0  0  0  0  0  0  0
    2.9806   -1.9286    0.0000 C   0  0  0  0  0  0  0  0  0  0  0  0
    2.8828   -0.4318    0.0000 C   0  0  0  0  0  0  0  0  0  0  0  0
    1.6354   -1.2649    0.0000 C   0  0  0  0  0  0  0  0  0  0  0  0
    1.5376    0.2319    0.0000 C   0  0  0  0  0  0  0  0  0  0  0  0
    0.2902   -0.6012    0.0000 C   0  0  0  0  0  0  0  0  0  0  0  0
   -1.0549    0.0624    0.0000 C   0  0  0  0  0  0  0  0  0  0  0  0
   -1.1528    1.5592    0.0000 C   0  0  0  0  0  0  0  0  0  0  0  0
   -2.4804    0.8611    0.0000 C   0  0  0  0  0  0  0  0  0  0  0  0
   -4.8828   -2.2801    0.0000 C   0  0  0  0  0  0  0  0  0  0  0  0
   -5.2523   -3.7339    0.0000 C   0  0  0  0  0  0  0  0  0  0  0  0
   -3.4391   -1.8732    0.0000 C   0  0  0  0  0  0  0  0  0  0  0  0
   -2.3648   -2.9201    0.0000 O   0  0  0  0  0  0  0  0  0  0  0  0
   -0.9210   -2.5132    0.0000 C   0  0  0  0  0  0  0  0  0  0  0  0
    0.1532   -3.5601    0.0000 C   0  0  0  0  0  0  0  0  0  0  0  0
   -0.5516   -1.0594    0.0000 O   0  0  0  0  0  0  0  0  0  0  0  0
  1  2  2  0
  2  3  1  0
  3  4  1  0
  4  5  1  0
  5  6  1  1
  5  7  1  0
  7  8  1  1
  8  9  1  0
  9 10  1  0
 10 11  1  6
 10 12  1  0
 12 13  1  0
 13 14  1  0
 14 15  1  0
 15 16  1  0
 16 17  1  0
 16 18  1  0
 16 19  1  0
 19 20  2  0
 19 21  1  0
 21 22  1  0
 23 22  1  6
 23 24  1  0
 25 24  1  6
 25 26  1  0
 26 27  1  0
 27 28  1  0
 28 29  1  1
  2 30  1  0
 30 31  1  0
 30 32  1  0
 32 33  1  0
 33 34  1  0
 34 35  1  0
 34 36  2  0
 28  7  1  0
 28 10  1  0
 25 12  1  0
 23 15  1  0
 25 23  1  0
M  END
>  <identifier>  (1336) 
CNP0406710.1

>  <canonical_smiles>  (1336) 
C=C(CC[C@@H](C)[C@H]1CC[C@@]2(C)C3CCC4C(C)(C)C(=O)CC[C@@]45C[C@]35CC[C@]12C)C(C)COC(C)=O

>  <standard_inchi>  (1336) 
InChI=1S/C33H52O3/c1-21(23(3)19-36-24(4)34)9-10-22(2)25-13-15-31(8)27-12-11-26-29(5,6)28(35)14-16-32(26)20-33(27,32)18-17-30(25,31)7/h22-23,25-27H,1,9-20H2,2-8H3/t22-,23?,25-,26?,27?,30-,31+,32-,33-/m1/s1

>  <standard_inchi_key>  (1336) 
DURQHBVGHHDPCG-PNGLFDDVSA-N

>  <name>  (1336) 
nan

>  <iupac_name>  (1336) 
[(6~{R})-2-methyl-3-methylene-6-[(1~{R},3~{R},12~{S},15~{R},16~{R})-7,7,12,16-tetramethyl-6-oxo-15-pentacyclo[9.7.0.0^{1,3}.0^{3,8}.0^{12,16}]octadecanyl]heptyl] acetate

>  <annotation_level>  (1336) 
4

>  <total_atom_count>  (1336) 
88

>  <heavy_atom_count>  (1336) 
36

>  <molecular_weight>  (1336) 
496.78

>  <exact_molecular_weight>  (1336) 
496.39165

>  <molecular_formula>  (1336) 
C33H52O3

>  <alogp>  (1336) 
8.17

>  <topological_polar_surface_area>  (1336) 
43.37

>  <rotatable_bond_count>  (1336) 
7

>  <hydrogen_bond_acceptors>  (1336) 
3

>  <hydrogen_bond_donors>  (1336) 
0

>  <hydrogen_bond_acceptors_lipinski>  (1336) 
3

>  <hydrogen_bond_donors_lipinski>  (1336) 
0

>  <lipinski_rule_of_five_violations>  (1336) 
1

>  <aromatic_rings_count>  (1336) 
0

>  <qed_drug_likeliness>  (1336) 
0.26

>  <formal_charge>  (1336) 
0

>  <fractioncsp3>  (1336) 
0.88

>  <number_of_minimal_rings>  (1336) 
5

>  <van_der_walls_volume>  (1336) 
nan

>  <contains_sugar>  (1336) 
False

>  <contains_ring_sugars>  (1336) 
False

>  <contains_linear_sugars>  (1336) 
False

>  <murcko_framework>  (1336) 
C1CCC23CC43CCC5CCCC5C4CCC2C1

>  <np_likeness>  (1336) 
2.96

>  <chemical_class>  (1336) 
Steroids and steroid derivatives

>  <chemical_sub_class>  (1336) 
Cycloartanols and derivatives

>  <chemical_super_class>  (1336) 
Lipids and lipid-like molecules

>  <direct_parent_classification>  (1336) 
Cycloartanols and derivatives

>  <np_classifier_pathway>  (1336) 
Terpenoids

>  <np_classifier_superclass>  (1336) 
Triterpenoids

>  <np_classifier_class>  (1336) 
Cycloartane triterpenoids

>  <np_classifier_is_glycoside>  (1336) 
False

>  <organisms>  (1336) 
Trichilia claussenii

>  <collections>  (1336) 
Latin America dataset|NuBBEDB|WikiData Natural Products

>  <dois>  (1336) 
10.1016/0031-9422(95)00969-8

>  <synonyms>  (1336) 
Methylene-26-acetoxycycloartan-3-one

>  <cas>  (1336) 
nan

$$$$

     RDKit          2D

 32 36  0  0  0  0  0  0  0  0999 V2000
   -6.1797   -2.9480    0.0000 C   0  0  0  0  0  0  0  0  0  0  0  0
   -5.3793   -1.6793    0.0000 C   0  0  0  0  0  0  0  0  0  0  0  0
   -6.0778   -0.3519    0.0000 C   0  0  0  0  0  0  0  0  0  0  0  0
   -5.2775    0.9167    0.0000 C   0  0  0  0  0  0  0  0  0  0  0  0
   -3.7786    0.8579    0.0000 C   0  0  0  0  0  0  0  0  0  0  0  0
   -4.4771    2.1854    0.0000 C   0  0  0  0  0  0  0  0  0  0  0  0
   -3.0801   -0.4695    0.0000 C   0  0  0  0  0  0  0  0  0  0  0  0
   -1.5813   -0.5283    0.0000 C   0  0  0  0  0  0  0  0  0  0  0  0
   -0.8828   -1.8558    0.0000 C   0  0  0  0  0  0  0  0  0  0  0  0
    0.6161   -1.9146    0.0000 C   0  0  0  0  0  0  0  0  0  0  0  0
    1.4164   -0.6460    0.0000 C   0  0  0  0  0  0  0  0  0  0  0  0
    2.9153   -0.7048    0.0000 C   0  0  0  0  0  0  0  0  0  0  0  0
    2.1149   -1.9734    0.0000 C   0  0  0  0  0  0  0  0  0  0  0  0
    3.6137   -2.0322    0.0000 C   0  0  0  0  0  0  0  0  0  0  0  0
    5.1126   -2.0910    0.0000 C   0  0  0  0  0  0  0  0  0  0  0  0
    5.9130   -0.8224    0.0000 C   0  0  0  0  0  0  0  0  0  0  0  0
    7.4118   -0.8812    0.0000 O   0  0  0  0  0  0  0  0  0  0  0  0
    5.2145    0.5050    0.0000 C   0  0  0  0  0  0  0  0  0  0  0  0
    5.0121    1.9913    0.0000 C   0  0  0  0  0  0  0  0  0  0  0  0
    6.6430    0.9624    0.0000 C   0  0  0  0  0  0  0  0  0  0  0  0
    3.7156    0.5639    0.0000 C   0  0  0  0  0  0  0  0  0  0  0  0
    3.0171    1.8913    0.0000 C   0  0  0  0  0  0  0  0  0  0  0  0
    1.5183    1.9501    0.0000 C   0  0  0  0  0  0  0  0  0  0  0  0
    0.7179    0.6815    0.0000 C   0  0  0  0  0  0  0  0  0  0  0  0
    0.0194    2.0089    0.0000 C   0  0  0  0  0  0  0  0  0  0  0  0
   -0.7809    0.7403    0.0000 C   0  0  0  0  0  0  0  0  0  0  0  0
   -2.2798    0.7991    0.0000 C   0  0  0  0  0  0  0  0  0  0  0  0
   -1.4794    2.0677    0.0000 C   0  0  0  0  0  0  0  0  0  0  0  0
   -2.9783    2.1266    0.0000 C   0  0  0  0  0  0  0  0  0  0  0  0
   -3.6767    3.4540    0.0000 O   0  0  0  0  0  0  0  0  0  0  0  0
   -3.8805   -1.7381    0.0000 C   0  0  0  0  0  0  0  0  0  0  0  0
   -3.1820   -3.0656    0.0000 C   0  0  0  0  0  0  0  0  0  0  0  0
  2  1  1  6
  2  3  1  0
  3  4  1  0
  4  5  1  0
  5  6  1  1
  5  7  1  0
  7  8  1  0
  8  9  2  0
  9 10  1  0
 10 11  1  0
 11 12  1  0
 12 13  1  1
 12 14  1  0
 14 15  1  0
 15 16  1  0
 16 17  1  6
 16 18  1  0
 18 19  1  0
 18 20  1  0
 18 21  1  0
 21 22  1  0
 22 23  1  0
 23 24  1  0
 24 25  1  1
 24 26  1  0
 26 27  1  6
 26 28  1  0
 28 29  1  0
 29 30  1  1
  7 31  1  0
 31 32  1  1
 31  2  1  0
 29  5  1  0
 26  8  1  0
 24 11  1  0
 21 12  1  0
M  END
>  <identifier>  (1337) 
CNP0249287.3

>  <canonical_smiles>  (1337) 
C[C@@H]1CC[C@@]2(C)C(C3=CCC4[C@@]5(C)CC[C@@H](O)C(C)(C)C5CC[C@@]4(C)[C@]3(C)C[C@@H]2O)[C@H]1C

>  <standard_inchi>  (1337) 
InChI=1S/C30H50O2/c1-18-11-14-28(6)24(32)17-30(8)20(25(28)19(18)2)9-10-22-27(5)15-13-23(31)26(3,4)21(27)12-16-29(22,30)7/h9,18-19,21-25,31-32H,10-17H2,1-8H3/t18-,19+,21?,22?,23-,24+,25?,27+,28-,29-,30-/m1/s1

>  <standard_inchi_key>  (1337) 
VJFLMYRRJUWADI-FDACDUCESA-N

>  <name>  (1337) 
nan

>  <iupac_name>  (1337) 
(3~{R},6~{a}~{R},6~{b}~{S},8~{S},8~{a}~{S},11~{R},12~{S},14~{b}~{R})-4,4,6~{a},6~{b},8~{a},11,12,14~{b}-octamethyl-2,3,4~{a},5,6,7,8,9,10,11,12,12~{a},14,14~{a}-tetradecahydro-1~{H}-picene-3,8-diol

>  <annotation_level>  (1337) 
4

>  <total_atom_count>  (1337) 
82

>  <heavy_atom_count>  (1337) 
32

>  <molecular_weight>  (1337) 
442.73

>  <exact_molecular_weight>  (1337) 
442.38108

>  <molecular_formula>  (1337) 
C30H50O2

>  <alogp>  (1337) 
7.00

>  <topological_polar_surface_area>  (1337) 
40.46

>  <rotatable_bond_count>  (1337) 
0

>  <hydrogen_bond_acceptors>  (1337) 
2

>  <hydrogen_bond_donors>  (1337) 
2

>  <hydrogen_bond_acceptors_lipinski>  (1337) 
2

>  <hydrogen_bond_donors_lipinski>  (1337) 
2

>  <lipinski_rule_of_five_violations>  (1337) 
1

>  <aromatic_rings_count>  (1337) 
0

>  <qed_drug_likeliness>  (1337) 
0.40

>  <formal_charge>  (1337) 
0

>  <fractioncsp3>  (1337) 
0.93

>  <number_of_minimal_rings>  (1337) 
5

>  <van_der_walls_volume>  (1337) 
nan

>  <contains_sugar>  (1337) 
False

>  <contains_ring_sugars>  (1337) 
False

>  <contains_linear_sugars>  (1337) 
False

>  <murcko_framework>  (1337) 
C1=C2C3CCCCC3CCC2C4CCC5CCCCC5C4C1

>  <np_likeness>  (1337) 
3.06

>  <chemical_class>  (1337) 
Steroids and steroid derivatives

>  <chemical_sub_class>  (1337) 
Hydroxysteroids

>  <chemical_super_class>  (1337) 
Lipids and lipid-like molecules

>  <direct_parent_classification>  (1337) 
Hydroxysteroids

>  <np_classifier_pathway>  (1337) 
Terpenoids

>  <np_classifier_superclass>  (1337) 
Triterpenoids

>  <np_classifier_class>  (1337) 
Ursane and Taraxastane triterpenoids

>  <np_classifier_is_glycoside>  (1337) 
False

>  <organisms>  (1337) 
Trattinnickia burserifolia

>  <collections>  (1337) 
Latin America dataset|NuBBEDB|WikiData Natural Products

>  <dois>  (1337) 
10.1590/S0103-50532004000300008

>  <synonyms>  (1337) 
3\u221a\u00e9\u00ac\u00b116\u221a\u00e9\u00ac\u2264-dihydroxyurs-12-ene

>  <cas>  (1337) 
nan

$$$$

     RDKit          2D

 15 16  0  0  0  0  0  0  0  0999 V2000
   -3.6581   -1.7603    0.0000 C   0  0  0  0  0  0  0  0  0  0  0  0
   -3.2919   -0.3056    0.0000 C   0  0  0  0  0  0  0  0  0  0  0  0
   -4.3685    0.7388    0.0000 C   0  0  0  0  0  0  0  0  0  0  0  0
   -1.8491    0.1046    0.0000 C   0  0  0  0  0  0  0  0  0  0  0  0
   -1.4829    1.5592    0.0000 C   0  0  0  0  0  0  0  0  0  0  0  0
   -0.0401    1.9694    0.0000 C   0  0  0  0  0  0  0  0  0  0  0  0
    1.0366    0.9249    0.0000 C   0  0  0  0  0  0  0  0  0  0  0  0
    1.4028    2.3796    0.0000 C   0  0  0  0  0  0  0  0  0  0  0  0
    2.4794    1.3351    0.0000 C   0  0  0  0  0  0  0  0  0  0  0  0
    3.5561    0.2907    0.0000 C   0  0  0  0  0  0  0  0  0  0  0  0
    3.1899   -1.1639    0.0000 C   0  0  0  0  0  0  0  0  0  0  0  0
    1.7470   -1.5741    0.0000 C   0  0  0  0  0  0  0  0  0  0  0  0
    1.3809   -3.0287    0.0000 C   0  0  0  0  0  0  0  0  0  0  0  0
    0.6704   -0.5297    0.0000 C   0  0  0  0  0  0  0  0  0  0  0  0
   -0.7724   -0.9399    0.0000 C   0  0  0  0  0  0  0  0  0  0  0  0
  1  2  2  0
  2  3  1  0
  4  2  1  1
  4  5  1  0
  5  6  1  0
  6  7  1  0
  7  8  1  6
  7  9  1  0
  9 10  1  0
 10 11  1  0
 11 12  2  0
 12 13  1  0
 12 14  1  0
 14 15  1  6
 15  4  1  0
 14  7  1  0
M  END
>  <identifier>  (1338) 
CNP0141319.5

>  <canonical_smiles>  (1338) 
C=C(C)[C@H]1CC[C@@]2(C)CCC=C(C)[C@@H]2C1

>  <standard_inchi>  (1338) 
InChI=1S/C15H24/c1-11(2)13-7-9-15(4)8-5-6-12(3)14(15)10-13/h6,13-14H,1,5,7-10H2,2-4H3/t13-,14-,15+/m0/s1

>  <standard_inchi_key>  (1338) 
OZQAPQSEYFAMCY-SOUVJXGZSA-N

>  <name>  (1338) 
(-)-7-epi-alpha-selinene

>  <iupac_name>  (1338) 
(3~{S},4~{a}~{R},8~{a}~{R})-3-isopropenyl-5,8~{a}-dimethyl-2,3,4,4~{a},7,8-hexahydro-1~{H}-naphthalene

>  <annotation_level>  (1338) 
5

>  <total_atom_count>  (1338) 
39

>  <heavy_atom_count>  (1338) 
15

>  <molecular_weight>  (1338) 
204.36

>  <exact_molecular_weight>  (1338) 
204.1878

>  <molecular_formula>  (1338) 
C15H24

>  <alogp>  (1338) 
4.73

>  <topological_polar_surface_area>  (1338) 
0.00

>  <rotatable_bond_count>  (1338) 
1

>  <hydrogen_bond_acceptors>  (1338) 
0

>  <hydrogen_bond_donors>  (1338) 
0

>  <hydrogen_bond_acceptors_lipinski>  (1338) 
0

>  <hydrogen_bond_donors_lipinski>  (1338) 
0

>  <lipinski_rule_of_five_violations>  (1338) 
0

>  <aromatic_rings_count>  (1338) 
0

>  <qed_drug_likeliness>  (1338) 
0.54

>  <formal_charge>  (1338) 
0

>  <fractioncsp3>  (1338) 
0.73

>  <number_of_minimal_rings>  (1338) 
2

>  <van_der_walls_volume>  (1338) 
224.90

>  <contains_sugar>  (1338) 
False

>  <contains_ring_sugars>  (1338) 
False

>  <contains_linear_sugars>  (1338) 
False

>  <murcko_framework>  (1338) 
C1=CC2CCCCC2CC1

>  <np_likeness>  (1338) 
3.25

>  <chemical_class>  (1338) 
Prenol lipids

>  <chemical_sub_class>  (1338) 
Sesquiterpenoids

>  <chemical_super_class>  (1338) 
Lipids and lipid-like molecules

>  <direct_parent_classification>  (1338) 
Eudesmane, isoeudesmane or cycloeudesmane sesquiterpenoids

>  <np_classifier_pathway>  (1338) 
Terpenoids

>  <np_classifier_superclass>  (1338) 
Sesquiterpenoids

>  <np_classifier_class>  (1338) 
Eudesmane sesquiterpenoids

>  <np_classifier_is_glycoside>  (1338) 
False

>  <organisms>  (1338) 
Albizia zygia|Amyris balsamifera|Atropa belladonna|Brassica rapa subsp. pekinensis|Callicarpa americana|Cedrela odorata|Cymbopogon schoenanthus|Dendropanax trifidus|Dumortiera hirsuta|Eryngium expansum|Eryngium pandanifolium|Eryngium rostratum|Eryngium vesiculosum|Mangifera indica|Olea paniculata|Peniophora filamentosa|Rhaponticum carthamoides|Smilax glaucochina|Venegasia carpesioides|Zingiber officinale

>  <collections>  (1338) 
ANPDB|Australian natural products|CMAUP (cCollective molecular activities of useful plants)|KNApSaCK|Latin America dataset|NANPDB (Natural Products from Northern African Sources)|NPASS|NuBBEDB|Super Natural II|WikiData Natural Products

>  <dois>  (1338) 
10.1006/JFCA.1999.0841|10.1016/J.APJTM.2016.06.009|10.1016/J.FCT.2008.07.017|10.1016/J.FOODCHEM.2012.09.111|10.1016/J.PHYTOCHEM.2008.12.018|10.1016/S0031-9422(00)97885-3|10.1016/S0031-9422(02)00207-8|10.1016/S0031-9422(97)00484-6|10.1021/JF0402633|10.1080/10412905.2003.9698619|10.1246/BCSJ.51.3395|10.1590/S0103-50532000000600012

>  <synonyms>  (1338) 
(2S,4aR,8aR)-4a,8-dimethyl-2-(prop-1-en-2-yl)-1,2,3,4,4a,5,6,8a-octahydronaphthalene|(3S,4aR,8aR)-5,8a-dimethyl-3-prop-1-en-2-yl-2,3,4,4a,7,8-hexahydro-1H-naphthalene|7-epi-\u221a\u00e9\u00ac\u00b1-Selinene|7-epi-_-selinene|7-epi-alpha-selinene|7betaH-eudesma-3,11-diene|C20159|CHEBI:62224|Q27131695

>  <cas>  (1338) 
nan

$$$$

     RDKit          2D

 17 19  0  0  0  0  0  0  0  0999 V2000
    5.7405   -0.1664    0.0000 C   0  0  0  0  0  0  0  0  0  0  0  0
    4.6230    0.8342    0.0000 O   0  0  0  0  0  0  0  0  0  0  0  0
    3.1977    0.3666    0.0000 C   0  0  0  0  0  0  0  0  0  0  0  0
    2.8900   -1.1015    0.0000 C   0  0  0  0  0  0  0  0  0  0  0  0
    1.4648   -1.5691    0.0000 C   0  0  0  0  0  0  0  0  0  0  0  0
    0.3472   -0.5686    0.0000 C   0  0  0  0  0  0  0  0  0  0  0  0
   -1.0781   -1.0362    0.0000 C   0  0  0  0  0  0  0  0  0  0  0  0
   -1.3858   -2.5043    0.0000 O   0  0  0  0  0  0  0  0  0  0  0  0
   -2.8110   -2.9719    0.0000 C   0  0  0  0  0  0  0  0  0  0  0  0
   -2.1956   -0.0357    0.0000 C   0  0  0  0  0  0  0  0  0  0  0  0
   -3.6870   -0.1967    0.0000 C   0  0  0  0  0  0  0  0  0  0  0  0
   -4.3010    1.1719    0.0000 C   0  0  0  0  0  0  0  0  0  0  0  0
   -3.1891    2.1787    0.0000 O   0  0  0  0  0  0  0  0  0  0  0  0
   -1.8880    1.4324    0.0000 C   0  0  0  0  0  0  0  0  0  0  0  0
   -0.4627    1.9000    0.0000 N   0  0  0  0  0  0  0  0  0  0  0  0
    0.6549    0.8995    0.0000 C   0  0  0  0  0  0  0  0  0  0  0  0
    2.0801    1.3671    0.0000 C   0  0  0  0  0  0  0  0  0  0  0  0
  1  2  1  0
  2  3  1  0
  3  4  2  0
  4  5  1  0
  5  6  2  0
  6  7  1  0
  7  8  1  0
  8  9  1  0
  7 10  2  0
 10 11  1  0
 11 12  2  0
 12 13  1  0
 13 14  1  0
 14 15  2  0
 15 16  1  0
 16 17  2  0
 17  3  1  0
 16  6  1  0
 14 10  1  0
M  END
>  <identifier>  (1339) 
CNP0311823.0

>  <canonical_smiles>  (1339) 
COC1=CC=C2C(OC)=C3C=COC3=NC2=C1

>  <standard_inchi>  (1339) 
InChI=1S/C13H11NO3/c1-15-8-3-4-9-11(7-8)14-13-10(5-6-17-13)12(9)16-2/h3-7H,1-2H3

>  <standard_inchi_key>  (1339) 
TWGHMXOYRUTQOL-UHFFFAOYSA-N

>  <name>  (1339) 
Evolitrine

>  <iupac_name>  (1339) 
4,7-dimethoxyfuro[2,3-b]quinoline

>  <annotation_level>  (1339) 
5

>  <total_atom_count>  (1339) 
28

>  <heavy_atom_count>  (1339) 
17

>  <molecular_weight>  (1339) 
229.23

>  <exact_molecular_weight>  (1339) 
229.07389

>  <molecular_formula>  (1339) 
C13H11NO3

>  <alogp>  (1339) 
3.00

>  <topological_polar_surface_area>  (1339) 
44.49

>  <rotatable_bond_count>  (1339) 
2

>  <hydrogen_bond_acceptors>  (1339) 
4

>  <hydrogen_bond_donors>  (1339) 
0

>  <hydrogen_bond_acceptors_lipinski>  (1339) 
4

>  <hydrogen_bond_donors_lipinski>  (1339) 
0

>  <lipinski_rule_of_five_violations>  (1339) 
0

>  <aromatic_rings_count>  (1339) 
3

>  <qed_drug_likeliness>  (1339) 
0.68

>  <formal_charge>  (1339) 
0

>  <fractioncsp3>  (1339) 
0.15

>  <number_of_minimal_rings>  (1339) 
3

>  <van_der_walls_volume>  (1339) 
198.70

>  <contains_sugar>  (1339) 
False

>  <contains_ring_sugars>  (1339) 
False

>  <contains_linear_sugars>  (1339) 
False

>  <murcko_framework>  (1339) 
n1c2occc2cc3ccccc13

>  <np_likeness>  (1339) 
0.59

>  <chemical_class>  (1339) 
Quinolines and derivatives

>  <chemical_sub_class>  (1339) 
Furanoquinolines

>  <chemical_super_class>  (1339) 
Organoheterocyclic compounds

>  <direct_parent_classification>  (1339) 
Furanoquinolines

>  <np_classifier_pathway>  (1339) 
Alkaloids

>  <np_classifier_superclass>  (1339) 
Tryptophan alkaloids

>  <np_classifier_class>  (1339) 
Quinoline alkaloids

>  <np_classifier_is_glycoside>  (1339) 
False

>  <organisms>  (1339) 
Acronychia laurifolia|Acronychia pedunculata|Acronychia pubescens|Almeidea rubra|Balfourodendron riedelianum|Boronella koniambiensis|Boronia inornata|Boronia koniambiensis|Boronia pancheri|Boronia pinnata|Comptonella sessilifoliola|Conchocarpus macrocarpus|Dictamnus albus L.|Drummondita calida|Euodia|Euodia littoralis|Euphorbia hirta|Evodia littoralis|Glycosmis cyanocarpa|Halosaccion ramentaceum|Haplophyllum acutifolium|Laurencia glandulifera|Leionema nudum|Maclurodendron oligophlebium|Medicosma subsessilis|Melicope confusa|Melicope fatraina|Melicope littoralis|Melicope lunu-ankenda|Melicope semecarpifolia|Melicope triphylla|Nematolepis phebalioides|Raputia praetermissa|Ruta montana|Ruta montana L.|Rutaceae|Sarcomelicope argyrophylla|Ticorea longiflora|Zanthoxylum ailanthoides

>  <collections>  (1339) 
ANPDB|Australian natural products|CMAUP (cCollective molecular activities of useful plants)|KNApSaCK|Latin America dataset|NANPDB (Natural Products from Northern African Sources)|NPASS|NuBBEDB|Super Natural II|TIPdb (database of Taiwan indigenous plants)|TPPT (Toxic Plants–PhytoToxins)|UNPD (Universal Natural Products Database)|WikiData Natural Products|ZINC NP

>  <dois>  (1339) 
10.1002/(SICI)1099-1573(1998)12:1+<S74::AID-PTR255>3.0.CO;2-V|10.1007/BF00630180|10.1016/0031-9422(79)80162-4|10.1016/0031-9422(90)89042-8|10.1016/0031-9422(92)80274-I|10.1016/0031-9422(94)00567-D|10.1016/0040-4020(58)88046-1|10.1016/0305-1978(94)90037-X|10.1016/0305-1978(95)00003-D|10.1016/J.BMC.2005.07.050|10.1016/J.FITOTE.2006.10.003|10.1016/J.JPHOTOBIOL.2013.01.006|10.1016/S0031-9422(00)80844-4|10.1016/S0031-9422(00)89307-3|10.1016/S0031-9422(96)00877-1|10.1016/S0031-9422(99)00039-4|10.1016/S0031-9422(99)00486-0|10.1016/S0305-1978(96)00067-1|10.1016/j.jep.2015.05.053|10.1016/j.jphotobiol.2013.01.006|10.1021/JO01082A624|10.1021/NP0000318|10.1021/NP010122K|10.1021/NP050013W|10.1021/NP50039A034|10.1021/NP50100A030|10.1055/S-0029-1243116|10.1055/S-0030-1270963|10.1055/S-2006-960053|10.1055/S-2007-969594|10.1071/CH9540273|10.1071/ch9540273|10.1515/ZNB-2003-1213|10.1590/S0103-50531998000100007|10.1590/S0103-50532011000700021|10.4314/NJNPM.V1I1.11800

>  <synonyms>  (1339) 
4,7-dimethoxyfuro[2,3-b]quinoline|4-27-00-02210 (Beilstein Handbook Reference)|523-66-0|7-Methoxydictamnine; Evolitrin|AC-34843|AKOS040759334|BRN 0220214|CCRIS 3579|CHEMBL401536|CS-0032089|DTXSID40200325|E80765|Evolitrin|Furo(2,3-b)quinoline, 4,7-dimethoxy-|HY-N5022|MS-23298|NS00094703|evolitrine

>  <cas>  (1339) 
523-66-0

$$$$

     RDKit          2D

 25 29  0  0  0  0  0  0  0  0999 V2000
    4.2678    3.8413    0.0000 C   0  0  0  0  0  0  0  0  0  0  0  0
    2.8064    3.5033    0.0000 O   0  0  0  0  0  0  0  0  0  0  0  0
    2.3685    2.0686    0.0000 C   0  0  0  0  0  0  0  0  0  0  0  0
    3.3920    0.9721    0.0000 C   0  0  0  0  0  0  0  0  0  0  0  0
    2.9541   -0.4626    0.0000 C   0  0  0  0  0  0  0  0  0  0  0  0
    1.4927   -0.8007    0.0000 C   0  0  0  0  0  0  0  0  0  0  0  0
    0.4692    0.2959    0.0000 C   0  0  0  0  0  0  0  0  0  0  0  0
    0.9071    1.7306    0.0000 C   0  0  0  0  0  0  0  0  0  0  0  0
   -0.1164    2.8271    0.0000 O   0  0  0  0  0  0  0  0  0  0  0  0
    0.3216    4.2618    0.0000 C   0  0  0  0  0  0  0  0  0  0  0  0
   -0.9922   -0.0422    0.0000 C   0  0  0  0  0  0  0  0  0  0  0  0
   -2.0157    1.0544    0.0000 C   0  0  0  0  0  0  0  0  0  0  0  0
   -3.4771    0.7164    0.0000 C   0  0  0  0  0  0  0  0  0  0  0  0
   -3.9150   -0.7183    0.0000 C   0  0  0  0  0  0  0  0  0  0  0  0
   -2.8916   -1.8149    0.0000 C   0  0  0  0  0  0  0  0  0  0  0  0
   -1.4302   -1.4768    0.0000 C   0  0  0  0  0  0  0  0  0  0  0  0
   -0.4067   -2.5734    0.0000 C   0  0  0  0  0  0  0  0  0  0  0  0
    1.0547   -2.2353    0.0000 C   0  0  0  0  0  0  0  0  0  0  0  0
    2.0782   -3.3319    0.0000 N   0  0  0  0  0  0  0  0  0  0  0  0
    1.6403   -4.7665    0.0000 C   0  0  0  0  0  0  0  0  0  0  0  0
    3.5396   -2.9938    0.0000 C   0  0  0  0  0  0  0  0  0  0  0  0
    3.9775   -1.5592    0.0000 C   0  0  0  0  0  0  0  0  0  0  0  0
   -5.4148   -0.7451    0.0000 O   0  0  0  0  0  0  0  0  0  0  0  0
   -5.9038    0.6729    0.0000 C   0  0  0  0  0  0  0  0  0  0  0  0
   -4.7062    1.5762    0.0000 O   0  0  0  0  0  0  0  0  0  0  0  0
  1  2  1  0
  2  3  1  0
  3  4  2  0
  4  5  1  0
  5  6  2  0
  6  7  1  0
  7  8  2  0
  8  9  1  0
  9 10  1  0
  7 11  1  0
 11 12  2  0
 12 13  1  0
 13 14  2  0
 14 15  1  0
 15 16  2  0
 16 17  1  0
 18 17  1  1
 18 19  1  0
 19 20  1  0
 19 21  1  0
 21 22  1  0
 14 23  1  0
 23 24  1  0
 24 25  1  0
  8  3  1  0
 16 11  1  0
 22  5  1  0
 18  6  1  0
 25 13  1  0
M  END
>  <identifier>  (1340) 
CNP0165224.1

>  <canonical_smiles>  (1340) 
COC1=CC2=C3C(=C1OC)C1=CC4=C(C=C1C[C@@H]3N(C)CC2)OCO4

>  <standard_inchi>  (1340) 
InChI=1S/C20H21NO4/c1-21-5-4-11-7-17(22-2)20(23-3)19-13-9-16-15(24-10-25-16)8-12(13)6-14(21)18(11)19/h7-9,14H,4-6,10H2,1-3H3/t14-/m0/s1

>  <standard_inchi_key>  (1340) 
WSVWKHTVFGTTKJ-AWEZNQCLSA-N

>  <name>  (1340) 
Nantenine

>  <iupac_name>  (1340) 
(12~{S})-18,19-dimethoxy-13-methyl-5,7-dioxa-13-azapentacyclo[10.7.1.0^{2,10}.0^{4,8}.0^{16,20}]icosa-1(19),2,4(8),9,16(20),17-hexaene

>  <annotation_level>  (1340) 
5

>  <total_atom_count>  (1340) 
46

>  <heavy_atom_count>  (1340) 
25

>  <molecular_weight>  (1340) 
339.39

>  <exact_molecular_weight>  (1340) 
339.14706

>  <molecular_formula>  (1340) 
C20H21NO4

>  <alogp>  (1340) 
3.18

>  <topological_polar_surface_area>  (1340) 
40.16

>  <rotatable_bond_count>  (1340) 
2

>  <hydrogen_bond_acceptors>  (1340) 
5

>  <hydrogen_bond_donors>  (1340) 
0

>  <hydrogen_bond_acceptors_lipinski>  (1340) 
5

>  <hydrogen_bond_donors_lipinski>  (1340) 
0

>  <lipinski_rule_of_five_violations>  (1340) 
0

>  <aromatic_rings_count>  (1340) 
2

>  <qed_drug_likeliness>  (1340) 
0.84

>  <formal_charge>  (1340) 
0

>  <fractioncsp3>  (1340) 
0.40

>  <number_of_minimal_rings>  (1340) 
5

>  <van_der_walls_volume>  (1340) 
300.50

>  <contains_sugar>  (1340) 
False

>  <contains_ring_sugars>  (1340) 
False

>  <contains_linear_sugars>  (1340) 
False

>  <murcko_framework>  (1340) 
O1c2cc3-c4cccc5c4C(NCC5)Cc3cc2OC1

>  <np_likeness>  (1340) 
1.38

>  <chemical_class>  (1340) 
Aporphines

>  <chemical_sub_class>  (1340) 
Aporphines

>  <chemical_super_class>  (1340) 
Alkaloids and derivatives

>  <direct_parent_classification>  (1340) 
Aporphines

>  <np_classifier_pathway>  (1340) 
Alkaloids

>  <np_classifier_superclass>  (1340) 
Tyrosine alkaloids

>  <np_classifier_class>  (1340) 
Aporphine alkaloids

>  <np_classifier_is_glycoside>  (1340) 
False

>  <organisms>  (1340) 
Cassytha pubescens|Corydalis alba (Mill.) Mansf.|Corydalis bulbosa|Corydalis cava|Corydalis cava (L.) Schweigg & Koerte|Corydalis lutea (L.) DC.|Corydalis ochroleuca|Corydalis solida|Corydalis ternata|Corydalis turtschaninovii|Corydalis yanhusuo|Dehaasia hainanensis|Dehaasia incrassata|Dehaasia triandra|Glossocalyx brevipes|Glossocalyx longicuspis|Guatteria dumetorum|Guatteria lucens|Nandina domestica|Ocotea lancifolia|Ocotea macrophylla|Platycapnos spicata|Platycapnos spicatus|Platycapnos tenuiloba|Platycapnos tenuilobus|Siparuna gesnerioides|Siparuna grandiflora|Siparuna pauciflora|Stephania tetrandra|Stephania tetrandra S.Moore|Thalictrum atriplex|Thalictrum sachalinense|Yan Hu Suo

>  <collections>  (1340) 
Australian natural products|CMAUP (cCollective molecular activities of useful plants)|ChEBI NPs|KNApSaCK|Latin America dataset|NCI DTP data|NPASS|NuBBEDB|Super Natural II|TCMDB-Taiwan (Traditional Chinese Medicine database)|TIPdb (database of Taiwan indigenous plants)|TPPT (Toxic Plants–PhytoToxins)|WikiData Natural Products|ZINC NP

>  <dois>  (1340) 
10.1002/9780470744307.gat218|10.1002/JPS.2600730435|10.1002/food.19880321030|10.1007/978-1-4899-1783-6_3|10.1007/S10600-015-1235-6|10.1016/0031-9422(75)85390-8|10.1016/0031-9422(89)80062-7|10.1016/0031-9422(91)83200-5|10.1016/0031-9422(93)85255-P|10.1016/0031-9422(93)85312-F|10.1016/0040-4020(96)00312-2|10.1016/S0031-9422(03)00098-0|10.1016/S0040-4020(01)82640-5|10.1016/j.chroma.2007.06.029|10.1021/NP50041A025|10.1021/NP50084A023|10.1021/NP960002Q|10.1021/np2005049|10.1055/S-2005-916179|10.1055/S-2006-959620|10.1055/S-2006-961021|10.1055/S-2006-962547|10.1055/S-2007-969652|10.1071/CH9662331|10.1071/ch9662331|10.1139/V69-178|10.1177/1934578X0700200115|10.1248/YAKUSHI1881.1926.535_742|10.1248/YAKUSHI1881.1926.536_833|10.2307/4117899|10.3987/COM-90-5356

>  <synonyms>  (1340) 
(+)-Domestine|(+)-Domestine (Nantenine)|(+)-Nantenine|(12S)-18,19-dimethoxy-13-methyl-5,7-dioxa-13-azapentacyclo[10.7.1.02,10.04,8.016,20]icosa-1(20),2,4(8),9,16,18-hexaene|(S)-1,2-Dimethoxy-6-methyl-5,6,6a,7-tetrahydro-4H-9,11-dioxa-6-aza-benzo[fg]cyclopenta[b]anthracene|1,2-Dimethoxy-6-methyl-5,6,6a,7-tetrahydro-4H-benzo[de][1,3]benzodioxolo[5,6-g]quinoline-, (S)-|2565-01-7|4H-BENZO(DE)(1,3)BENZODIOXOLO(5,6-G)QUINOLINE, 5,6,6A,7-TETRAHYDRO-1,2-METHOXY-6-METHYL-, (6AS)-|4H-Benzo[de][1,3]benzodioxolo[5,6-g]quinoline, 5,6,6a,7-tetrahydro-1,2-dimethoxy-6-methyl-, (6aS)-|6a-alpha-Aporphine, 1,2-dimethoxy-9,10-(methylenedioxy)-|AKOS040762093|BDBM50160160|C19985|CCRIS 3807|CHEBI:68992|CHEMBL179440|CS-0158840|DOMESTICINE METHYL ETHER|DTXSID70180343|Domesticine, O-methyl-|Domestine|HY-N9141|NANTEINE|NS00094771|NSC785161|Nantenin|O-Methyldomesticine|Q13566119|SCHEMBL1254592|UNII-XE0AU8C122|WSVWKHTVFGTTKJ-AWEZNQCLSA-N|XE0AU8C122|nantenine

>  <cas>  (1340) 
2565-01-7

$$$$

     RDKit          2D

 15 17  0  0  0  0  0  0  0  0999 V2000
   -3.2201    2.0112    0.0000 C   0  0  0  0  0  0  0  0  0  0  0  0
   -1.7954    1.5417    0.0000 C   0  0  0  0  0  0  0  0  0  0  0  0
   -0.7544    2.6216    0.0000 C   0  0  0  0  0  0  0  0  0  0  0  0
    0.7390    2.4809    0.0000 C   0  0  0  0  0  0  0  0  0  0  0  0
    1.5602    1.2257    0.0000 C   0  0  0  0  0  0  0  0  0  0  0  0
    1.0907   -0.1990    0.0000 C   0  0  0  0  0  0  0  0  0  0  0  0
   -0.3158   -0.7202    0.0000 C   0  0  0  0  0  0  0  0  0  0  0  0
   -0.6556   -2.1812    0.0000 C   0  0  0  0  0  0  0  0  0  0  0  0
    0.3266   -3.3149    0.0000 C   0  0  0  0  0  0  0  0  0  0  0  0
   -2.1502   -2.3095    0.0000 C   0  0  0  0  0  0  0  0  0  0  0  0
   -2.7340   -0.9277    0.0000 C   0  0  0  0  0  0  0  0  0  0  0  0
   -1.6003    0.0545    0.0000 C   0  0  0  0  0  0  0  0  0  0  0  0
    2.5592    0.1068    0.0000 C   0  0  0  0  0  0  0  0  0  0  0  0
    3.1154   -1.2863    0.0000 C   0  0  0  0  0  0  0  0  0  0  0  0
    3.8346    0.8964    0.0000 C   0  0  0  0  0  0  0  0  0  0  0  0
  1  2  2  0
  2  3  1  0
  3  4  1  0
  5  4  1  1
  5  6  1  0
  6  7  1  0
  7  8  1  6
  8  9  1  6
  8 10  1  0
 10 11  1  0
 12 11  1  1
  6 13  1  1
 13 14  1  0
 13 15  1  0
 12  2  1  0
 13  5  1  0
 12  7  1  0
M  END
>  <identifier>  (1341) 
CNP0284102.7

>  <canonical_smiles>  (1341) 
C=C1CC[C@@H]2[C@H]([C@@H]3[C@H](C)CC[C@@H]13)C2(C)C

>  <standard_inchi>  (1341) 
InChI=1S/C15H24/c1-9-6-8-12-14(15(12,3)4)13-10(2)5-7-11(9)13/h10-14H,1,5-8H2,2-4H3/t10-,11+,12-,13-,14-/m1/s1

>  <standard_inchi_key>  (1341) 
ITYNGVSTWVVPIC-XVIXHAIJSA-N

>  <name>  (1341) 
(+)-AROMADENDRENE

>  <iupac_name>  (1341) 
(1~{a}~{R},4~{a}~{R},7~{R},7~{a}~{R},7~{b}~{S})-1,1,7-trimethyl-4-methylene-2,3,4~{a},5,6,7,7~{a},7~{b}-octahydro-1~{a}~{H}-cyclopropa[e]azulene

>  <annotation_level>  (1341) 
5

>  <total_atom_count>  (1341) 
39

>  <heavy_atom_count>  (1341) 
15

>  <molecular_weight>  (1341) 
204.36

>  <exact_molecular_weight>  (1341) 
204.1878

>  <molecular_formula>  (1341) 
C15H24

>  <alogp>  (1341) 
4.27

>  <topological_polar_surface_area>  (1341) 
0.00

>  <rotatable_bond_count>  (1341) 
0

>  <hydrogen_bond_acceptors>  (1341) 
0

>  <hydrogen_bond_donors>  (1341) 
0

>  <hydrogen_bond_acceptors_lipinski>  (1341) 
0

>  <hydrogen_bond_donors_lipinski>  (1341) 
0

>  <lipinski_rule_of_five_violations>  (1341) 
0

>  <aromatic_rings_count>  (1341) 
0

>  <qed_drug_likeliness>  (1341) 
0.52

>  <formal_charge>  (1341) 
0

>  <fractioncsp3>  (1341) 
0.87

>  <number_of_minimal_rings>  (1341) 
3

>  <van_der_walls_volume>  (1341) 
223.47

>  <contains_sugar>  (1341) 
False

>  <contains_ring_sugars>  (1341) 
False

>  <contains_linear_sugars>  (1341) 
False

>  <murcko_framework>  (1341) 
C1CC2CCCC2C3CC3C1

>  <np_likeness>  (1341) 
3.36

>  <chemical_class>  (1341) 
Prenol lipids

>  <chemical_sub_class>  (1341) 
Sesquiterpenoids

>  <chemical_super_class>  (1341) 
Lipids and lipid-like molecules

>  <direct_parent_classification>  (1341) 
Guaianes

>  <np_classifier_pathway>  (1341) 
Terpenoids

>  <np_classifier_superclass>  (1341) 
Sesquiterpenoids

>  <np_classifier_class>  (1341) 
Aromadendrane sesquiterpenoids

>  <np_classifier_is_glycoside>  (1341) 
False

>  <organisms>  (1341) 
Abrus pulchellus|Acorus calamus|Acorus gramineus|Acorus tatarinowii|Agastache rugosa|Angelica acutiloba|Angelica gigas|Angelica sinensis|Artemisia argyi|Artemisia baldshuanica|Artemisia montana|Artemisia princeps|Artemisia scoparia|Aspergillus candidus|Aspilia floribunda|Atractylodes chinensis|Atractylodes lancea|Atractylodes macrocephala|Baccharis darwinii|Bombax ceiba|Bupleurum scorzonerifolium|Caulerpa bikinensis|Chrysanthemum indicum|Chrysanthemum x morifolium|Cinnamomum insularimontanum|Clerodendrum mandarinorum|Commiphora quadricincta|Corymbia torelliana|Croton sonderianus|Cylindrotheca fusiformis|Daucus carota|Dendrobium chrysanthum|Descurainia sophia|Diospyros heterotricha|Dracocephalum foetidum|Elaeocarpus dolichostylus|Eleutherococcus giraldii|Eucalyptus amplifolia|Eucalyptus caesia|Eucalyptus deglupta|Eucalyptus kitsoniana|Eucalyptus nova-anglica|Eucalyptus sideroxylon|Eucalyptus tereticornis|Eupatorium subhastatum|Exodermis poria|Ficus carica|Fructus schiandrae|Fructus syzygii|Halocarpus biformis|Helichrysum stenopterum|Helichrysum tenuiculum|Humulus Lupulus|Hypericum perforatum|Hypoestes phyllostachya|Illicium verum|Ixora chinensis|Kunzea ericoides|Lamna ditropis|Leonurus heterophyllus|Lilium medeoloides|Limonia crenulata|Limonium axillare|Lonicera japonica|Magnolia officinalis|Melaleuca Leucadendra|Mentha piperita|Metrosideros perforata|Metrosideros umbellata|Murraya paniculata|Murraya paniculata var. exotica|Oleum ocimi gratissimi|Oplopanax elatus|Paeonia veitchii|Panax ginseng|Perilla frutescens var. arguta|Pinellia ternata|Piper aduncum|Platycladus orientalis|Polygonum Minus|Prostanthera lasianthos|Pseudowintera colorata|Psidium friedrichsthalianum|Rehmannia glutinosa|Rhododendron dauricum|Roccella tinctoria|Sandersonia aurantiaca|Saussurea lappa|Senecio crassissimus|Shorea robusta|Squalus acanthias|Strongylodesma aliwaliensis|Suberites vestigium|Succinus|Syringa pinnafolia|Thymus quinquecostatus|Thymus vulgaris|Toona ciliata|Vitex negundo|Zingiber officinale

>  <collections>  (1341) 
ANPDB|Australian natural products|CMAUP (cCollective molecular activities of useful plants)|InterBioScreen Ltd|Latin America dataset|NANPDB (Natural Products from Northern African Sources)|NAPRORE-CR|NPASS|NPAtlas|NuBBEDB|Phyto4Health|Super Natural II|TCMDB-Taiwan (Traditional Chinese Medicine database)|VietHerb|WikiData Natural Products

>  <dois>  (1341) 
10.1002/JSFA.2740041103|10.1002/JSFA.2740061203|10.1002/JSFA.2740091108|10.1002/JSFA.2740100310|10.1007/BF00629814|10.1007/S10600-011-0044-9|10.1016/J.PHYTOCHEM.2020.112403|10.1016/S0031-9422(00)81569-1|10.1016/S0031-9422(00)84168-0|10.1016/S0031-9422(96)00559-6|10.1016/S0040-4039(01)99416-X|10.1016/S0045-6535(99)00015-6|10.1016/j.phytochem.2020.112403|10.1016/s0040-4039(01)99416-x|10.1016/s0045-6535(99)00015-6|10.1021/jf011456i|10.1055/S-2001-18857|10.1071/CH9590442|10.1071/CH9600357|10.1071/CH9661541|10.1071/ch9600357|10.1135/CCCC19670808|10.1590/S0103-50532000000600012|10.3390/12030389

>  <synonyms>  (1341) 
(+)-Aromadendrene, >=97.0% (sum of enantiomers, GC)|(+)-aromadendrene|(+\/-)-Aromadendrene|(-)-AROMADENDRENE II|(1AR,4AR,7R,7AR,7BS)-1,1,7-TRIMETHYL-4-METHYLIDENE-OCTAHYDRO-1AH-CYCLOPROPA[E]AZULENE|(1AR-(1aalpha,4aalpha,7alpha,7abeta,7balpha))-decahydro-1,1,7-trimethyl-4-methylene-1H-cycloprop(e)azulene|(1R,2S,8R,11R)-7-Methylene-3,3,11-trimethyltricyclo[6.3.0.02.4]undecane|(1aR,4aR,7R,7aR,7bS)-1,1,7-Trimethyl-4-methylidenedecahydro-1H-cyclopropa[e]azulene|(1aR,4aR,7R,7aR,7bS)-1,1,7-trimethyl-4-methylidene-2,3,4a,5,6,7,7a,7b-octahydro-1aH-cyclopropa[e]azulene|1H-Cycloprop[e]azulene, decahydro-1,1,7-trimethyl-4-methylene-, (1aR,4aR,7R,7aR,7bS)-|1ST169809|489-39-4|72747-25-2|AKOS015913965|AT37012|Aromadendrene|CHEMBL2269083|CS-0144117|DTXSID60862020|DTXSID80881253|EINECS 207-694-6|FS-8196|HY-N8411|ITYNGVSTWVVPIC-XVIXHAIJSA-N|MFCD00062951|STL570264

>  <cas>  (1341) 
489-39-4|72747-25-2

$$$$

     RDKit          2D

  8  7  0  0  0  0  0  0  0  0999 V2000
   -4.5553   -0.2480    0.0000 C   0  0  0  0  0  0  0  0  0  0  0  0
   -3.2359    0.4655    0.0000 C   0  0  0  0  0  0  0  0  0  0  0  0
   -1.9583   -0.3205    0.0000 C   0  0  0  0  0  0  0  0  0  0  0  0
   -0.6388    0.3930    0.0000 S   0  0  0  0  0  0  0  0  0  0  0  0
    0.6388   -0.3930    0.0000 S   0  0  0  0  0  0  0  0  0  0  0  0
    1.9583    0.3205    0.0000 C   0  0  0  0  0  0  0  0  0  0  0  0
    3.2359   -0.4655    0.0000 C   0  0  0  0  0  0  0  0  0  0  0  0
    4.5553    0.2480    0.0000 C   0  0  0  0  0  0  0  0  0  0  0  0
  1  2  2  0
  2  3  1  0
  3  4  1  0
  4  5  1  0
  5  6  1  0
  6  7  1  0
  7  8  2  0
M  END
>  <identifier>  (1342) 
CNP0311793.0

>  <canonical_smiles>  (1342) 
C=CCSSCC=C

>  <standard_inchi>  (1342) 
InChI=1S/C6H10S2/c1-3-5-7-8-6-4-2/h3-4H,1-2,5-6H2

>  <standard_inchi_key>  (1342) 
PFRGXCVKLLPLIP-UHFFFAOYSA-N

>  <name>  (1342) 
DIALLYL DISULFIDE

>  <iupac_name>  (1342) 
3-(allyldisulfanyl)prop-1-ene

>  <annotation_level>  (1342) 
5

>  <total_atom_count>  (1342) 
18

>  <heavy_atom_count>  (1342) 
8

>  <molecular_weight>  (1342) 
146.28

>  <exact_molecular_weight>  (1342) 
146.02239

>  <molecular_formula>  (1342) 
C6H10S2

>  <alogp>  (1342) 
2.74

>  <topological_polar_surface_area>  (1342) 
0.00

>  <rotatable_bond_count>  (1342) 
5

>  <hydrogen_bond_acceptors>  (1342) 
2

>  <hydrogen_bond_donors>  (1342) 
0

>  <hydrogen_bond_acceptors_lipinski>  (1342) 
2

>  <hydrogen_bond_donors_lipinski>  (1342) 
0

>  <lipinski_rule_of_five_violations>  (1342) 
0

>  <aromatic_rings_count>  (1342) 
0

>  <qed_drug_likeliness>  (1342) 
0.33

>  <formal_charge>  (1342) 
0

>  <fractioncsp3>  (1342) 
0.33

>  <number_of_minimal_rings>  (1342) 
0

>  <van_der_walls_volume>  (1342) 
138.38

>  <contains_sugar>  (1342) 
False

>  <contains_ring_sugars>  (1342) 
False

>  <contains_linear_sugars>  (1342) 
False

>  <murcko_framework>  (1342) 
nan

>  <np_likeness>  (1342) 
0.88

>  <chemical_class>  (1342) 
Organic disulfides

>  <chemical_sub_class>  (1342) 
Dialkyldisulfides

>  <chemical_super_class>  (1342) 
Organosulfur compounds

>  <direct_parent_classification>  (1342) 
Dialkyldisulfides

>  <np_classifier_pathway>  (1342) 
nan

>  <np_classifier_superclass>  (1342) 
nan

>  <np_classifier_class>  (1342) 
nan

>  <np_classifier_is_glycoside>  (1342) 
False

>  <organisms>  (1342) 
Adenocalymma alliaceum|Alliaria petiolata|Allium|Allium Cepa|Allium Sativum|Allium ampeloprasum|Allium cepa|Allium chinense|Allium ericetorum|Allium macrochaetum|Allium macrostemon|Allium odorum|Allium ramosum|Allium sativum|Allium sativum L.|Allium schoenoprasum|Allium tuberosum|Allium ursinum|Allium ursinum L.|Allium victorialis|Allium vineale|Aniba megaphylla|Berberis integerrima|Descurainia sophia|Elephantopus angustifolius|Herbertus sakuraii|Isoplexis sceptrum|Libocedrus decurrens|Loranthus parasiticus|Mangifera indica|Mansoa alliacea|Nauclea latifolia|Ovibos moschatus|Rhodospirillum rubrum|garlic

>  <collections>  (1342) 
CMAUP (cCollective molecular activities of useful plants)|ChEBI NPs|ETM (Ethiopian Traditional Medicine) DB|FooDB|HIM (Herbal Ingredients in-vivo Metabolism database)|KNApSaCK|Latin America dataset|NPACT|NPASS|NPCARE|NPEdia|NuBBEDB|PeruNPDB|Super Natural II|TCMDB-Taiwan (Traditional Chinese Medicine database)|TCMID (Traditional Chinese Medicine Integrated Database)|TPPT (Toxic Plants–PhytoToxins)|UNPD (Universal Natural Products Database)|VietHerb|WikiData Natural Products

>  <dois>  (1342) 
10.1002/CNCR.22888|10.1002/PTR.2650020310|10.1002/TOX.20737|10.1002/biuz.19840140514|10.1002/mnfr.200700072|10.1007/S10495-006-0024-X|10.1016/0021-9673(94)80162-2|10.1016/0305-1978(95)00072-0|10.1016/S0021-9673(00)91342-6|10.1016/S0944-7113(00)80010-0|10.1016/j.bse.2003.10.001|10.1016/j.chroma.2005.12.016|10.1021/JF00034A054|10.1021/JF00059A033|10.1021/JF00125A014|10.1021/JF0346758|10.1021/JF0402633|10.1021/JF9803076|10.1021/NP0503350|10.1021/jf00024a017|10.1021/jf00125a014|10.1021/jf0504768|10.1021/np3005248|10.1055/S-2007-969089|10.1080/10412905.1991.9697935|10.1080/10412905.1997.9700732|10.1080/19440049.2013.865278|10.1099/0022-1317-50-7-646|10.1111/J.1365-2621.1985.TB13047.X|10.1111/J.1600-0536.1996.TB02217.X|10.1158/1535-7163.MCT-05-0152|10.1186/1756-3305-7-184|10.1248/CPB.35.2668|10.1271/BBB.56.1865|10.1271/BBB.61.1482|10.3390/mol2net-03-04617

>  <synonyms>  (1342) 
1,2-(2-Propenyl)-disulfane|1,2-Diallyldisulfane|2-Propenyl disulphide|2179-57-9|3,3'-disulfanediylbis(prop-1-ene)|3,3'-dithiobis(prop-1-ene)|3-(Allyldisulfanyl)-1-propene|3-(allyldisulfanyl)prop-1-ene|3-(prop-2-enyldisulfanyl)prop-1-ene|3-Allyldisulfanyl-Propene|4,5-Dithia-1,7-octadiene|5HI47O6OA7|A815665|AI3-35128|AKOS015840490|ALLYL DISULFIDE [FHFI]|ALLYL DISULFIDE [USP-RS]|Allyl disulfide|Allyl disulfide, >=80%, FG|Allyl disulfide, United States Pharmacopeia (USP) Reference Standard|Allyl disulfide, technical grade, 80%|BDBM50318453|BRN 1699241|C08369|CAS-2179-57-9|CCG-214421|CCRIS 6290|CHEBI:4488|CHEMBL366603|D0071|D89587|DB-003623|DIALLYL DISULFIDE [HSDB]|DTXCID7015206|DTXSID9035206|Di(2-propenyl) disulfide|Di-2-propenyl disulfide, 9CI|Diallyl Disulphide (Technical grade, >80%)|Diallyl disulfide, >=98% (HPLC)|Diallyl disulfide, analytical standard|Diallyl disulphide|Diallyldisulfide|Disulfide, di-2-propenyl|EINECS 218-548-6|EN300-691227|FEMA 2028|FEMA No. 2028|Garlicin?|HSDB 595|HY-W015635|J-014293|MFCD00008656|NCGC00095294-01|NCGC00255533-01|NCI60_002410|NS00012207|NSC 29228|NSC-29228|NSC797351|Q419633|SCHEMBL93944|SPECTRUM1505174|SR-05000002379|Tox21_302178|UNII-5HI47O6OA7|di-2-propenyldisulfide|di-Propenyl disulfide|di-allyl-disulfide|diAllS2

>  <cas>  (1342) 
2179-57-9

$$$$

     RDKit          2D

 10 10  0  0  0  0  0  0  0  0999 V2000
   -4.6450    0.6199    0.0000 C   0  0  0  0  0  0  0  0  0  0  0  0
   -3.5176   -0.3695    0.0000 C   0  0  0  0  0  0  0  0  0  0  0  0
   -2.0970    0.1121    0.0000 C   0  0  0  0  0  0  0  0  0  0  0  0
   -0.9696   -0.8774    0.0000 C   0  0  0  0  0  0  0  0  0  0  0  0
    0.4510   -0.3958    0.0000 C   0  0  0  0  0  0  0  0  0  0  0  0
    0.7442    1.0753    0.0000 C   0  0  0  0  0  0  0  0  0  0  0  0
    2.1647    1.5569    0.0000 C   0  0  0  0  0  0  0  0  0  0  0  0
    3.2921    0.5674    0.0000 C   0  0  0  0  0  0  0  0  0  0  0  0
    2.9989   -0.9036    0.0000 C   0  0  0  0  0  0  0  0  0  0  0  0
    1.5783   -1.3852    0.0000 C   0  0  0  0  0  0  0  0  0  0  0  0
  1  2  1  0
  2  3  1  0
  3  4  1  0
  4  5  1  0
  5  6  1  0
  6  7  1  0
  7  8  1  0
  8  9  1  0
  9 10  1  0
 10  5  1  0
M  END
>  <identifier>  (1343) 
CNP0108784.0

>  <canonical_smiles>  (1343) 
CCCCC1CCCCC1

>  <standard_inchi>  (1343) 
InChI=1S/C10H20/c1-2-3-7-10-8-5-4-6-9-10/h10H,2-9H2,1H3

>  <standard_inchi_key>  (1343) 
GGBJHURWWWLEQH-UHFFFAOYSA-N

>  <name>  (1343) 
BUTYLCYCLOHEXANE

>  <iupac_name>  (1343) 
butylcyclohexane

>  <annotation_level>  (1343) 
5

>  <total_atom_count>  (1343) 
30

>  <heavy_atom_count>  (1343) 
10

>  <molecular_weight>  (1343) 
140.27

>  <exact_molecular_weight>  (1343) 
140.1565

>  <molecular_formula>  (1343) 
C10H20

>  <alogp>  (1343) 
3.76

>  <topological_polar_surface_area>  (1343) 
0.00

>  <rotatable_bond_count>  (1343) 
3

>  <hydrogen_bond_acceptors>  (1343) 
0

>  <hydrogen_bond_donors>  (1343) 
0

>  <hydrogen_bond_acceptors_lipinski>  (1343) 
0

>  <hydrogen_bond_donors_lipinski>  (1343) 
0

>  <lipinski_rule_of_five_violations>  (1343) 
0

>  <aromatic_rings_count>  (1343) 
0

>  <qed_drug_likeliness>  (1343) 
0.56

>  <formal_charge>  (1343) 
0

>  <fractioncsp3>  (1343) 
1.00

>  <number_of_minimal_rings>  (1343) 
1

>  <van_der_walls_volume>  (1343) 
166.26

>  <contains_sugar>  (1343) 
False

>  <contains_ring_sugars>  (1343) 
False

>  <contains_linear_sugars>  (1343) 
False

>  <murcko_framework>  (1343) 
C1CCCCC1

>  <np_likeness>  (1343) 
0.31

>  <chemical_class>  (1343) 
Saturated hydrocarbons

>  <chemical_sub_class>  (1343) 
Cycloalkanes

>  <chemical_super_class>  (1343) 
Hydrocarbons

>  <direct_parent_classification>  (1343) 
Cycloalkanes

>  <np_classifier_pathway>  (1343) 
Fatty acids

>  <np_classifier_superclass>  (1343) 
Fatty acyls

>  <np_classifier_class>  (1343) 
Hydrocarbons

>  <np_classifier_is_glycoside>  (1343) 
False

>  <organisms>  (1343) 
Caryocar coriaceum|Codonopsis pilosula|Crataegus pinnatifida

>  <collections>  (1343) 
CMAUP (cCollective molecular activities of useful plants)|FooDB|Latin America dataset|NPASS|NuBBEDB|Super Natural II|TCMDB-Taiwan (Traditional Chinese Medicine database)|TCMID (Traditional Chinese Medicine Integrated Database)|UNPD (Universal Natural Products Database)|WikiData Natural Products

>  <dois>  (1343) 
10.1021/JF00120A031|10.1021/jf00120a031

>  <synonyms>  (1343) 
1-Cyclohexylbutane|1678-93-9|69-67-0|A810917|AKOS007930052|B0822|BAA67893|BDBM50168007|Butane, 1-cyclohexyl-|Butylcyclohexane, >=99%|CHEMBL192820|Cyclohexane, butyl-|DTXSID0061876|EINECS 216-837-1|InChI=1\/C10H20\/c1-2-3-7-10-8-5-4-6-9-10\/h10H,2-9H2,1H|J-010408|LMFA11000657|LS-13881|MFCD00001530|NS00025508|NSC 8469|NSC-8469|Q63393251|n-Butylcyclohexane

>  <cas>  (1343) 
1678-93-9|69-67-0

$$$$

     RDKit          2D

 11 11  0  0  0  0  0  0  0  0999 V2000
   -4.9158    0.0902    0.0000 C   0  0  0  0  0  0  0  0  0  0  0  0
   -3.4534    0.4237    0.0000 C   0  0  0  0  0  0  0  0  0  0  0  0
   -2.4333   -0.6760    0.0000 C   0  0  0  0  0  0  0  0  0  0  0  0
   -0.9709   -0.3425    0.0000 C   0  0  0  0  0  0  0  0  0  0  0  0
   -0.5285    1.0907    0.0000 C   0  0  0  0  0  0  0  0  0  0  0  0
    0.9340    1.4243    0.0000 C   0  0  0  0  0  0  0  0  0  0  0  0
    1.9540    0.3245    0.0000 C   0  0  0  0  0  0  0  0  0  0  0  0
    3.4165    0.6580    0.0000 O   0  0  0  0  0  0  0  0  0  0  0  0
    4.4365   -0.4418    0.0000 C   0  0  0  0  0  0  0  0  0  0  0  0
    1.5116   -1.1088    0.0000 C   0  0  0  0  0  0  0  0  0  0  0  0
    0.0492   -1.4423    0.0000 C   0  0  0  0  0  0  0  0  0  0  0  0
  1  2  2  0
  2  3  1  0
  3  4  1  0
  4  5  2  0
  5  6  1  0
  6  7  2  0
  7  8  1  0
  8  9  1  0
  7 10  1  0
 10 11  2  0
 11  4  1  0
M  END
>  <identifier>  (1344) 
CNP0191217.0

>  <canonical_smiles>  (1344) 
C=CCC1=CC=C(OC)C=C1

>  <standard_inchi>  (1344) 
InChI=1S/C10H12O/c1-3-4-9-5-7-10(11-2)8-6-9/h3,5-8H,1,4H2,2H3

>  <standard_inchi_key>  (1344) 
ZFMSMUAANRJZFM-UHFFFAOYSA-N

>  <name>  (1344) 
Estragole

>  <iupac_name>  (1344) 
1-allyl-4-methoxy-benzene

>  <annotation_level>  (1344) 
5

>  <total_atom_count>  (1344) 
23

>  <heavy_atom_count>  (1344) 
11

>  <molecular_weight>  (1344) 
148.2

>  <exact_molecular_weight>  (1344) 
148.08882

>  <molecular_formula>  (1344) 
C10H12O

>  <alogp>  (1344) 
2.42

>  <topological_polar_surface_area>  (1344) 
9.23

>  <rotatable_bond_count>  (1344) 
3

>  <hydrogen_bond_acceptors>  (1344) 
1

>  <hydrogen_bond_donors>  (1344) 
0

>  <hydrogen_bond_acceptors_lipinski>  (1344) 
1

>  <hydrogen_bond_donors_lipinski>  (1344) 
0

>  <lipinski_rule_of_five_violations>  (1344) 
0

>  <aromatic_rings_count>  (1344) 
1

>  <qed_drug_likeliness>  (1344) 
0.60

>  <formal_charge>  (1344) 
0

>  <fractioncsp3>  (1344) 
0.20

>  <number_of_minimal_rings>  (1344) 
1

>  <van_der_walls_volume>  (1344) 
152.20

>  <contains_sugar>  (1344) 
False

>  <contains_ring_sugars>  (1344) 
False

>  <contains_linear_sugars>  (1344) 
False

>  <murcko_framework>  (1344) 
c1ccccc1

>  <np_likeness>  (1344) 
0.37

>  <chemical_class>  (1344) 
Phenol ethers

>  <chemical_sub_class>  (1344) 
Anisoles

>  <chemical_super_class>  (1344) 
Benzenoids

>  <direct_parent_classification>  (1344) 
Anisoles

>  <np_classifier_pathway>  (1344) 
Shikimates and Phenylpropanoids

>  <np_classifier_superclass>  (1344) 
Phenylpropanoids (C6-C3)

>  <np_classifier_class>  (1344) 
Cinnamic acids and derivatives

>  <np_classifier_is_glycoside>  (1344) 
False

>  <organisms>  (1344) 
Acacia simplicifolia|Acanthopanax ricinifolius|Achillea abrotanoides|Achillea arabica|Achillea biebersteinii|Aconitum episcopale|Acorus calamus|Acorus gramineus|Acorus tatarinowii|Actinodium cunninghamii|Agastache Rugosa|Agastache foenicula|Agastache foeniculum|Agastache rugosa|Agastache rugosus|Agathosma betulina|Agathosma capensis|Agathosma venusta|Aguacate|Albizia julibrissin|Alcea rosea|Alcyonium utinomii|Aldisa sanguinea|Alexandrium hiranoi|Alpinia blepharocalyx|Ambrosia artemisiifolia|Anacardium occidentale|Anchusa officinalis|Angelica decursiva|Angelica taiwaniana|Anguilla japonica|Anthriscus cerefolium (L.) Hoffm.|Aonidiella aurantii|Aplysia punctata|Aplysilla pallida|Aplysina archeri|Araiostegiella perdurans|Ardisia arborescens|Arnica chamissonis|Aromia moschata|Artemisia Dracunculus|Artemisia dracunculus|Artemisia judaica|Asarum asperum|Asarum canadense|Asarum constrictum|Asarum costatum|Asarum crassum|Asarum dilatatum|Asarum heterotropoides|Asarum heterotropoides f. schm. var. mandshuricum (maxim.) kitag.|Asarum heterotropoides var. mandshuricum|Asarum heterotropoides var.mandsuricum|Asarum hexalobum|Asarum hypogynum|Asarum sakawanum|Asarum sieboldii|Asarum trigynum|Asiasarum heterotropoides|Asiasarum sieboldii|Asparagus acutifolius|Aspergillus carneus|Aspergillus fischeri|Aspergillus striatus|Backhousia anisata|Balanops australiana|Bellium bellidioides|Bowdichia virgilioides|Briareum stechei|Bupleurum fruticosum|Cacia concinna|Calocera viscosa|Camphora|Carum carvi|Caryopteris mongholica|Centaurea calcitrapa|Centaurea zuccariniana|Cervus elaphus|Cervus nippon|Chaenomeles sinensis|Chaerophyllum macrospermum|Chamaecrista duckeana|Chamomilla recutita|Chelonia japonica|Chloropyron maritimum|Chrysanthemum zawadskii|Cinnamomum zeylanicum|Cinnamon|Clausena anisata|Clausena heptaphylla|Clinopodium congestum|Coleus esquirolii|Consolida hohenackeri|Coprinellus flocculosus|Cortinarius odoratus|Cousinia canescens|Croton argyrophyllus|Croton conduplicatus|Croton cortesianus|Croton eluteria|Croton essequiboensis|Croton grewioides|Croton jacobinensis|Croton jimenezii|Croton micans|Croton nepetifolius|Croton sonderianus|Croton tricolor|Croton zehntneri|Cryptocarya agathophylla|Cuminum cyminum|Cutaneotrichosporon cutaneum|Cyathocline purpurea|Cymbopogon martinii|Cynara humilis|Dalbergia rubiginosa|Daucus carota|Delia coronariae|Dictamnus albus|Didymium bahiense|Echinosophora koreensis|Elegia deusta|Eleutherobia albiflora|Elsholtzia ciliata|Eremanthus arboreus|Erica glauca|Erigeron sumatrensis|Etlingera cevuga|Etlingera pavieana|Eucalyptus hybrid|Eucalyptus jenseni|Euonymus tingens|Euphorbia cornigera|Euphorbia kansui|Feronia elephantum|Ferula assafoetida|Ferula fukanensis|Ferula sinkiangensis|Ficus carica|Firmiana simplex|Foeniculum Vulgare|Foeniculum sp.|Foeniculum vulgare|Foeniculum vulgare Mill.|Folium agastachis|Folium pogostemonis|Forsythia suspensa|Forsythia viridissima|Fructus anisi|Fructus anisi stellati|Fructus foeniculi|Fusarium nygamai|Ganoderma lucidum|Garcinia intermedia|Garcinia oligantha|Gaultheria mucronata|Glycyrrhiza glabra|Glycyrrhiza inflata|Glycyrrhiza uralensis|Grindelia hirsutula|Grindelia paludosa|Gymnopus confluens|Hamamelis virginiana|Heracleum antasiaticum|Heracleum dissectum|Heterotropa|Homo sapiens|Homoranthus biflorus|Homoranthus binghiensis|Homoranthus bornhardtiensis|Homoranthus cernuus|Homoranthus croftianus|Homoranthus darwinioides|Homoranthus decasetus|Homoranthus decumbens|Homoranthus flavescens|Homoranthus floydii|Homoranthus homoranthoides|Homoranthus lunatus|Homoranthus melanostictus|Homoranthus montanus|Homoranthus papillatus|Homoranthus porteri|Homoranthus prolixus|Homoranthus thomasii|Homoranthus tropicus|Homoranthus virgatus|Homoranthus wilhelmii|Homoranthus zeteticorum|Hylocomium splendens|Hypericum perforatum|Hyptis goyazensis|Hyssopus officinalis|Illicium difengpi|Illicium sp.|Illicium verum|Iris spuria|Jacobaea vulgaris|Kielmeyera coriacea|Kokoona reflexa|Lactobacillus delbrueckii subsp. bulgaricus|Leishmania major|Lepechinia chamaedryoides|Lepechinia chilensis|Leucas neufliseana|Leucetta microrhaphis|Limnophila Rugosa|Limnophila rugosa|Limonia acidissima|Lindera neesiana|Lithospermum officinale|Litsea glutinosa|Litsea laurifolia|Macaranga indica|Macrolepiota neomastoidea|Maesa ramentacea|Magnolia kobus|Magnolia obovata|Magnolia salicifolia|Mallotus rhamnifolius|Mangifera indica|Mappia foetida|Matricaria chamomilla|Matricaria suffruticosa|Melanelixia fuliginosa subsp. glabratula|Melia azedarach|Melia azedarach var. toosendan|Melolontha melolontha|Mentha arvensis|Mentha canadensis|Merendera jolantae|Mesembryanthemum tortuosum|Metapenaeus bennettae|Metapenaeus macleayi|Millettia laurentii|Mimusops elengi|Monodora tenuifolia|Monomorium delagoense|Monopterix uaucu|Monopteryx spp.|Monopteryx uaucu|Moschus berezovskii|Moschus chrysogaster|Moschus moschiferus|Moschus sifanicus|Myristica fragrans|Myrrhis odorata (L.) Scop.|Nauclea parva|Nigella sativa|Nigella sativa L|Nototodarus sloanii|Ocimum americanum|Ocimum basilicum|Ocimum basilicum L.|Ocimum carnosum|Ocimum gratissimum|Ocimum kenyense|Ocimum selloi|Ocimum tenuiflorum|Oleum pogostemonis|Origanum majorana|Orthodon methylchavicoliferum|Osmorhiza aristata|Pagrus major|Parmelia vittata|Penicillium janczewskii|Pericarpium zanthoxyli|Perilla frutescens|Pernettya mucronata|Persea gratissima|Petroselinum crispum|Peucedanum praeruptorum|Phaseolus atropurpureus|Pholas dactylus|Pholiota nameko|Picea schrenkiana|Pimenta dioica|Pimenta racemosa|Pimpinella anisum|Pinus caribaea|Pinus cembra L.|Pinus heldreichii|Pinus mugo Turra|Pinus spp.|Pinus strobus|Pinus sylvestris|Pinus sylvestris var. hamata|Piper Betle|Piper betle|Piper marginatum|Piper nigrum|Platonia insignis|Platycladus orientalis|Pluchea odorata|Pocillopora damicornis|Pogostemon cablin|Polygala senega|Polygala sibirica|Polygala tenuifolia|Potebniamyces balsamicola|Premna schimperi|Protaetia cuprea|Protoceratium reticulatum|Pseudoplexaura flagellosa|Pteronia stricta|Ramalina terebrata|Reaumuria hirtella|Rhanterium epapposum|Rhodiola rosea|Rhodiola rosea L.|Rhytidoponera metallica|Rubus trifidus|Salacia lehmbachii|Salvia munzii|Salvia sclarea|Salvia sclarea L.|Salvia yosgadensis|Santalum spicatum|Santolina corsica|Santolina corsica Jordan et Fourr|Sarcococca coriacea|Sarcococca vagans|Sassafras albidum|Satureja atropatana|Saussurea lappa|Scandix australis|Scrophularia ningpoensis|Senecio densiflorus|Senna alexandrina|Sequoiadendron giganteum|Sida veronicaefolia|Sideritis brevibracteata|Sideroxylon cubense|Solanum transcaucasicum|Solidago odora|Spongia bilamellata|Spongia zimocca|Stemodia viscosa|Syzygium anisatum|Tagetes filifolia|Tagetes florida|Tagetes lucida|Tecoma pentaphylla|Tetradenia glauca|Teucrium scorodonia|Thymus quinquecostatus|Thymus vulgaris|Tinospora hainanensis|Titanotrichum oldhamii|Toddalia asiatica|Trachelospermum lucidum|Trachyspermum ammi|Tubifera ferruginosa|Udotea petiolata|Ulmus americana|Uncaria macrophylla|Uncaria rhynchophylla|Uncaria sinensis|Uvaria microcarpa|Vepris boiviniana|Veronica anagallis|Viguiera decurrens|Vitis heyneana|Vitis rotundifolia|Waitzia acuminata|Wedelia prostrata|Wikstroemia chamaedaphne|Wilcoxia viperina|Wrightia tinctoria|Xanthoria aureola|Xylaria hypoxylon|Zanthoxylum asiaticum|Zanthoxylum bungeanum|Zanthoxylum dipetalum|Zanthoxylum piperitum|Zanthoxylum schinifolium|Zingiber|basil|cicely|clove|common myrtle|garden chervil|guarana|tarragon

>  <collections>  (1344) 
ANPDB|Australian natural products|CMAUP (cCollective molecular activities of useful plants)|ChEBI NPs|EMNPD|ETM (Ethiopian Traditional Medicine) DB|FooDB|HIM (Herbal Ingredients in-vivo Metabolism database)|KNApSaCK|Latin America dataset|Mitishamba database|NANPDB (Natural Products from Northern African Sources)|NAPRORE-CR|NPASS|NPDBEjeCol|NPEdia|NuBBEDB|Phenol-explorer|Phyto4Health|PhytoLab phyproof® Reference Substances|PubChem NPs|Super Natural II|TCMDB-Taiwan (Traditional Chinese Medicine database)|TCMID (Traditional Chinese Medicine Integrated Database)|TIPdb (database of Taiwan indigenous plants)|TPPT (Toxic Plants–PhytoToxins)|UNPD (Universal Natural Products Database)|VietHerb|WikiData Natural Products

>  <dois>  (1344) 
10.1002/(SICI)1099-1026(199701)12:1<47::AID-FFJ610>3.0.CO;2-7|10.1002/(SICI)1099-1573(199706)11:4<299::AID-PTR99>3.0.CO;2-A|10.1002/9780470744307.gat218|10.1002/FFJ.2730020106|10.1002/FFJ.2730030204|10.1002/FFJ.2730030208|10.1002/FFJ.2730060305|10.1002/FFJ.2730060307|10.1002/FFJ.2730090207|10.1002/FFJ.2730100408|10.1002/JSFA.2740321112|10.1002/PS.274|10.1002/RECL.19470660608|10.1002/food.19880321030|10.1002/ps.274|10.1007/BF00574355|10.1007/BF00600859|10.1007/BF00629778|10.1007/BF00630022|10.1007/BF01267777|10.1007/BF02236436|10.1007/BF02860485|10.1007/BF02866639|10.1007/BF02907824|10.1016/0031-9422(73)85053-8|10.1016/0031-9422(81)85097-2|10.1016/0031-9422(82)80036-8|10.1016/0031-9422(93)85031-L|10.1016/0305-1978(92)90055-I|10.1016/0305-1978(92)90070-T|10.1016/0378-8741(95)01301-6|10.1016/J.ARABJC.2010.11.006|10.1016/J.CHROMA.2008.12.095|10.1016/J.CHROMA.2011.05.047|10.1016/J.FCT.2012.07.052|10.1016/J.JEP.2012.11.045|10.1016/J.PHYTOCHEM.2005.10.025|10.1016/J.PHYTOCHEM.2007.04.027|10.1016/S0021-9673(01)95036-8|10.1016/S0031-9422(00)83939-4|10.1016/S0031-9422(00)85648-4|10.1016/S0031-9422(00)89650-8|10.1016/S0031-9422(01)00067-X|10.1016/S0031-9422(02)00004-3|10.1016/S0031-9422(98)00022-3|10.1016/S0031-9422(99)00158-2|10.1016/S0031-9422(99)00377-5|10.1016/S0168-9452(00)00357-5|10.1016/S0168-9452(02)00279-0|10.1016/S0305-1978(00)00062-4|10.1016/S0305-1978(96)00106-8|10.1016/S0367-326X(98)00002-1|10.1016/S0944-7113(11)80031-0|10.1016/j.arabjc.2010.11.006|10.1016/j.chroma.2008.12.095|10.1021/JA02170A029|10.1021/JF00019A020|10.1021/JF00039A035|10.1021/JF00065A004|10.1021/JF00073A015|10.1021/JF00077A048|10.1021/JF00112A014|10.1021/JF0402633|10.1021/JF051513Y|10.1021/JF070674U|10.1021/JF60201A021|10.1021/JF60217A066|10.1021/JF60218A031|10.1021/NP400653P|10.1021/NP50011A018|10.1021/NP50017A019|10.1021/NP50034A044|10.1021/NP50046A033|10.1021/NP50053A046|10.1021/NP50058A023|10.1021/NP50062A008|10.1021/NP990457Q|10.1021/np400653p|10.1036/1097-8542.252900|10.1039/CT9140502613|10.1055/S-0028-1097939|10.1055/S-0028-1099750|10.1055/S-2000-9773|10.1055/S-2006-957420|10.1055/S-2006-957965|10.1055/S-2006-959379|10.1055/S-2006-959542|10.1055/S-2006-959548|10.1055/S-2006-960081|10.1055/S-2006-960096|10.1055/S-2006-961452|10.1055/S-2006-962631|10.1055/S-2006-962632|10.1055/S-2007-969171|10.1055/S-2007-969274|10.1055/S-2007-969372|10.1079/9781845934057.0227|10.1080/00359193209518872|10.1080/0972060X.2014.895210|10.1080/10412905.1989.9697770|10.1080/10412905.1989.9697801|10.1080/10412905.1990.9697830|10.1080/10412905.1990.9697878|10.1080/10412905.1990.9697881|10.1080/10412905.1991.9697952|10.1080/10412905.1991.9697971|10.1080/10412905.1991.9697991|10.1080/10412905.1992.9698065|10.1080/10412905.1992.9698084|10.1080/10412905.1992.9698114|10.1080/10412905.1992.9698137|10.1080/10412905.1992.9698139|10.1080/10412905.1992.9698146|10.1080/10412905.1992.9698154|10.1080/10412905.1993.9698170|10.1080/10412905.1993.9698176|10.1080/10412905.1993.9698181|10.1080/10412905.1993.9698203|10.1080/10412905.1993.9698207|10.1080/10412905.1993.9698260|10.1080/10412905.1994.9698413|10.1080/10412905.1994.9698425|10.1080/10412905.1994.9699345|10.1080/10412905.1994.9699353|10.1080/10412905.1994.9699358|10.1080/10412905.1995.9698530|10.1080/10412905.1995.9698553|10.1080/10412905.1995.9700534|10.1080/10412905.1996.9700569|10.1080/10412905.1997.9699459|10.1080/10412905.1997.9700708|10.1080/10412905.1997.9700812|10.1080/10412905.1998.9700944|10.1080/10412905.1999.9701159|10.1080/10412905.1999.9701188|10.1080/10412905.2000.9699487|10.1080/10412905.2000.9699515|10.1080/10412905.2000.9699563|10.1080/10412905.2001.9699669|10.1080/10412905.2002.9699883|10.1080/10412905.2004.9698650|10.1080/10412905.2007.9699213|10.1080/10412905.2016.1213667|10.1080/14620316.1988.11515884|10.1080/14786411003792165|10.1088/1752-7155/8/1/014001|10.1177/1934578x0800300531|10.1211/0022357991777218|10.1248/CPB.20.2251|10.1248/YAKUSHI1947.107.3_209|10.1248/YAKUSHI1947.87.12_1535|10.1248/YAKUSHI1947.90.12_1514|10.1248/YAKUSHI1947.99.11_1116|10.1300/J044V01N04_05|10.1515/ZNC-1990-9-1023|10.1515/ZNC-2003-9-1004|10.1590/S0102-695X2010000400016|10.1673/031.011.15201|10.21608/ZJPS.1993.187363|10.2298/HEMIND110227020J|10.3109/08923973.2010.532805|10.3390/MOLECULES16043077|10.5040/9781350363595.ART-706

>  <synonyms>  (1344) 
nan

>  <cas>  (1344) 
140-67-0|77525-18-9|1407-27-8

$$$$

     RDKit          2D

 26 30  0  0  0  0  0  0  0  0999 V2000
   -5.9513   -1.2695    0.0000 C   0  0  0  0  0  0  0  0  0  0  0  0
   -4.9411   -0.1607    0.0000 O   0  0  0  0  0  0  0  0  0  0  0  0
   -3.4757   -0.4812    0.0000 C   0  0  0  0  0  0  0  0  0  0  0  0
   -3.0206   -1.9105    0.0000 C   0  0  0  0  0  0  0  0  0  0  0  0
   -1.5552   -2.2310    0.0000 C   0  0  0  0  0  0  0  0  0  0  0  0
   -0.5450   -1.1222    0.0000 C   0  0  0  0  0  0  0  0  0  0  0  0
   -1.3371   -0.8973    0.0000 C   0  0  0  0  0  0  0  0  0  0  0  0
   -2.6620   -0.6075    0.0000 O   0  0  0  0  0  0  0  0  0  0  0  0
    0.9616   -1.1461    0.0000 C   0  0  0  0  0  0  0  0  0  0  0  0
    1.5636   -2.5200    0.0000 C   0  0  0  0  0  0  0  0  0  0  0  0
    3.0545   -2.6855    0.0000 C   0  0  0  0  0  0  0  0  0  0  0  0
    3.9433   -1.4772    0.0000 C   0  0  0  0  0  0  0  0  0  0  0  0
    3.3412   -0.1033    0.0000 C   0  0  0  0  0  0  0  0  0  0  0  0
    4.2300    1.1050    0.0000 O   0  0  0  0  0  0  0  0  0  0  0  0
    5.7209    0.9394    0.0000 C   0  0  0  0  0  0  0  0  0  0  0  0
    6.6097    2.1478    0.0000 C   0  0  0  0  0  0  0  0  0  0  0  0
    6.3229   -0.4344    0.0000 O   0  0  0  0  0  0  0  0  0  0  0  0
    1.8504    0.0622    0.0000 C   0  0  0  0  0  0  0  0  0  0  0  0
    1.2484    1.4361    0.0000 C   0  0  0  0  0  0  0  0  0  0  0  0
   -0.2425    1.6017    0.0000 C   0  0  0  0  0  0  0  0  0  0  0  0
   -1.2396    2.7223    0.0000 O   0  0  0  0  0  0  0  0  0  0  0  0
   -2.6135    2.1202    0.0000 C   0  0  0  0  0  0  0  0  0  0  0  0
   -3.9081    2.8779    0.0000 O   0  0  0  0  0  0  0  0  0  0  0  0
   -2.4655    0.6276    0.0000 C   0  0  0  0  0  0  0  0  0  0  0  0
   -3.8893    1.0995    0.0000 C   0  0  0  0  0  0  0  0  0  0  0  0
   -1.0001    0.3071    0.0000 C   0  0  0  0  0  0  0  0  0  0  0  0
  1  2  1  0
  3  2  1  1
  3  4  1  0
  4  5  1  0
  5  6  1  0
  6  7  1  0
  7  8  1  0
  6  9  1  6
  9 10  1  0
 10 11  1  0
 11 12  1  0
 12 13  1  0
 13 14  1  1
 14 15  1  0
 15 16  1  0
 15 17  2  0
 13 18  1  0
 18 19  1  0
 20 19  1  6
 20 21  1  0
 21 22  1  0
 22 23  2  0
 22 24  1  0
 24 25  1  1
 24 26  1  0
  8  3  1  0
 18  9  1  0
 26 20  1  0
 24  3  1  0
 26  6  1  0
M  END
>  <identifier>  (1345) 
CNP0256650.1

>  <canonical_smiles>  (1345) 
CO[C@]12CC[C@]3(CO1)C1CCC[C@H](OC(C)=O)C1C[C@H]1OC(=O)[C@]2(C)C13

>  <standard_inchi>  (1345) 
InChI=1S/C20H28O6/c1-11(21)25-14-6-4-5-13-12(14)9-15-16-18(2,17(22)26-15)20(23-3)8-7-19(13,16)10-24-20/h12-16H,4-10H2,1-3H3/t12?,13?,14-,15+,16?,18-,19-,20+/m0/s1

>  <standard_inchi_key>  (1345) 
HXIZZPINGVXRRQ-BMTYHVEHSA-N

>  <name>  (1345) 
nan

>  <iupac_name>  (1345) 
[(1~{S},6~{S},9~{R},12~{R},13~{R})-13-methoxy-12-methyl-11-oxo-10,14-dioxapentacyclo[11.2.2.1^{1,9}.0^{2,7}.0^{12,18}]octadecan-6-yl] acetate

>  <annotation_level>  (1345) 
3

>  <total_atom_count>  (1345) 
54

>  <heavy_atom_count>  (1345) 
26

>  <molecular_weight>  (1345) 
364.44

>  <exact_molecular_weight>  (1345) 
364.18859

>  <molecular_formula>  (1345) 
C20H28O6

>  <alogp>  (1345) 
2.44

>  <topological_polar_surface_area>  (1345) 
71.06

>  <rotatable_bond_count>  (1345) 
2

>  <hydrogen_bond_acceptors>  (1345) 
6

>  <hydrogen_bond_donors>  (1345) 
0

>  <hydrogen_bond_acceptors_lipinski>  (1345) 
6

>  <hydrogen_bond_donors_lipinski>  (1345) 
0

>  <lipinski_rule_of_five_violations>  (1345) 
0

>  <aromatic_rings_count>  (1345) 
0

>  <qed_drug_likeliness>  (1345) 
0.70

>  <formal_charge>  (1345) 
0

>  <fractioncsp3>  (1345) 
0.90

>  <number_of_minimal_rings>  (1345) 
6

>  <van_der_walls_volume>  (1345) 
nan

>  <contains_sugar>  (1345) 
False

>  <contains_ring_sugars>  (1345) 
False

>  <contains_linear_sugars>  (1345) 
False

>  <murcko_framework>  (1345) 
O1CC2C3OCC4(CC3)C5CCCCC5CC1C24

>  <np_likeness>  (1345) 
2.75

>  <chemical_class>  (1345) 
Naphthopyrans

>  <chemical_sub_class>  (1345) 
Naphthopyrans

>  <chemical_super_class>  (1345) 
Organoheterocyclic compounds

>  <direct_parent_classification>  (1345) 
Naphthopyrans

>  <np_classifier_pathway>  (1345) 
Terpenoids

>  <np_classifier_superclass>  (1345) 
Diterpenoids

>  <np_classifier_class>  (1345) 
nan

>  <np_classifier_is_glycoside>  (1345) 
True

>  <organisms>  (1345) 
Casimirella rupestris|Humirianthera rupestris

>  <collections>  (1345) 
Latin America dataset|NuBBEDB|WikiData Natural Products

>  <dois>  (1345) 
10.1016/S0031-9422(00)98552-2

>  <synonyms>  (1345) 
nan

>  <cas>  (1345) 
nan

$$$$

     RDKit          2D

 23 24  0  0  0  0  0  0  0  0999 V2000
    2.4197   -3.6238    0.0000 C   0  0  0  0  0  0  0  0  0  0  0  0
    2.8662   -2.1918    0.0000 O   0  0  0  0  0  0  0  0  0  0  0  0
    1.8494   -1.0891    0.0000 C   0  0  0  0  0  0  0  0  0  0  0  0
    0.3860   -1.4183    0.0000 C   0  0  0  0  0  0  0  0  0  0  0  0
   -0.6309   -0.3156    0.0000 C   0  0  0  0  0  0  0  0  0  0  0  0
   -2.0943   -0.6449    0.0000 C   0  0  0  0  0  0  0  0  0  0  0  0
   -3.1112    0.4578    0.0000 C   0  0  0  0  0  0  0  0  0  0  0  0
   -4.5746    0.1286    0.0000 C   0  0  0  0  0  0  0  0  0  0  0  0
   -5.5914    1.2313    0.0000 C   0  0  0  0  0  0  0  0  0  0  0  0
   -7.0549    0.9020    0.0000 C   0  0  0  0  0  0  0  0  0  0  0  0
   -7.5014   -0.5300    0.0000 C   0  0  0  0  0  0  0  0  0  0  0  0
   -6.4846   -1.6327    0.0000 C   0  0  0  0  0  0  0  0  0  0  0  0
   -5.0211   -1.3034    0.0000 C   0  0  0  0  0  0  0  0  0  0  0  0
   -0.1843    1.1164    0.0000 C   0  0  0  0  0  0  0  0  0  0  0  0
    1.2791    1.4456    0.0000 C   0  0  0  0  0  0  0  0  0  0  0  0
    1.7256    2.8776    0.0000 O   0  0  0  0  0  0  0  0  0  0  0  0
    0.7088    3.9803    0.0000 C   0  0  0  0  0  0  0  0  0  0  0  0
    2.2959    0.3429    0.0000 C   0  0  0  0  0  0  0  0  0  0  0  0
    3.7594    0.6722    0.0000 C   0  0  0  0  0  0  0  0  0  0  0  0
    4.7762   -0.4306    0.0000 C   0  0  0  0  0  0  0  0  0  0  0  0
    6.2396   -0.1013    0.0000 C   0  0  0  0  0  0  0  0  0  0  0  0
    7.2565   -1.2040    0.0000 C   0  0  0  0  0  0  0  0  0  0  0  0
    6.6862    1.3307    0.0000 C   0  0  0  0  0  0  0  0  0  0  0  0
  1  2  1  0
  2  3  1  0
  3  4  2  0
  4  5  1  0
  5  6  1  0
  6  7  2  0
  7  8  1  0
  8  9  2  0
  9 10  1  0
 10 11  2  0
 11 12  1  0
 12 13  2  0
  5 14  2  0
 14 15  1  0
 15 16  1  0
 16 17  1  0
 15 18  2  0
 18 19  1  0
 19 20  1  0
 20 21  2  0
 21 22  1  0
 21 23  1  0
 18  3  1  0
 13  8  1  0
M  END
>  <identifier>  (1346) 
CNP0421031.1

>  <canonical_smiles>  (1346) 
COC1=CC(/C=C/C2=CC=CC=C2)=CC(OC)=C1CC=C(C)C

>  <standard_inchi>  (1346) 
InChI=1S/C21H24O2/c1-16(2)10-13-19-20(22-3)14-18(15-21(19)23-4)12-11-17-8-6-5-7-9-17/h5-12,14-15H,13H2,1-4H3/b12-11+

>  <standard_inchi_key>  (1346) 
NNMRGAKKWWIQTM-VAWYXSNFSA-N

>  <name>  (1346) 
nan

>  <iupac_name>  (1346) 
nan

>  <annotation_level>  (1346) 
0

>  <total_atom_count>  (1346) 
47

>  <heavy_atom_count>  (1346) 
23

>  <molecular_weight>  (1346) 
308.42

>  <exact_molecular_weight>  (1346) 
308.17763

>  <molecular_formula>  (1346) 
C21H24O2

>  <alogp>  (1346) 
5.38

>  <topological_polar_surface_area>  (1346) 
18.46

>  <rotatable_bond_count>  (1346) 
6

>  <hydrogen_bond_acceptors>  (1346) 
2

>  <hydrogen_bond_donors>  (1346) 
0

>  <hydrogen_bond_acceptors_lipinski>  (1346) 
2

>  <hydrogen_bond_donors_lipinski>  (1346) 
0

>  <lipinski_rule_of_five_violations>  (1346) 
1

>  <aromatic_rings_count>  (1346) 
2

>  <qed_drug_likeliness>  (1346) 
0.53

>  <formal_charge>  (1346) 
0

>  <fractioncsp3>  (1346) 
0.24

>  <number_of_minimal_rings>  (1346) 
2

>  <van_der_walls_volume>  (1346) 
309.22

>  <contains_sugar>  (1346) 
False

>  <contains_ring_sugars>  (1346) 
False

>  <contains_linear_sugars>  (1346) 
False

>  <murcko_framework>  (1346) 
c1ccc(cc1)C=Cc2ccccc2

>  <np_likeness>  (1346) 
0.92

>  <chemical_class>  (1346) 
nan

>  <chemical_sub_class>  (1346) 
nan

>  <chemical_super_class>  (1346) 
nan

>  <direct_parent_classification>  (1346) 
nan

>  <np_classifier_pathway>  (1346) 
Shikimates and Phenylpropanoids

>  <np_classifier_superclass>  (1346) 
Stilbenoids

>  <np_classifier_class>  (1346) 
Monomeric stilbenes

>  <np_classifier_is_glycoside>  (1346) 
False

>  <organisms>  (1346) 
Anemone rivularis|Brosimum rubescens|Callicarpa nudiflora|Canarium samoense|Capnophyllum peregrinum|Ceanothus americanus|Cynometra ananta|Deguelia rariflora|Derris floribunda|Derris rariflora|Illicium parviflorum|Podocarpus elongatus|Schnabelia terniflora|Tessmannia densiflora

>  <collections>  (1346) 
Latin America dataset|NPASS|NuBBEDB|Super Natural II|WikiData Natural Products|ZINC NP

>  <dois>  (1346) 
10.1016/0031-9422(75)85051-5|10.1016/S0031-9422(00)98664-3

>  <synonyms>  (1346) 
nan

>  <cas>  (1346) 
nan

$$$$

     RDKit          2D

 24 26  0  0  0  0  0  0  0  0999 V2000
   -2.4684   -3.4329    0.0000 C   0  0  0  0  0  0  0  0  0  0  0  0
   -1.6362   -2.1849    0.0000 O   0  0  0  0  0  0  0  0  0  0  0  0
   -2.3009   -0.8402    0.0000 C   0  0  0  0  0  0  0  0  0  0  0  0
   -3.7978   -0.7435    0.0000 C   0  0  0  0  0  0  0  0  0  0  0  0
   -4.4625    0.6012    0.0000 C   0  0  0  0  0  0  0  0  0  0  0  0
   -5.9594    0.6979    0.0000 O   0  0  0  0  0  0  0  0  0  0  0  0
   -3.6303    1.8492    0.0000 C   0  0  0  0  0  0  0  0  0  0  0  0
   -2.1335    1.7525    0.0000 C   0  0  0  0  0  0  0  0  0  0  0  0
   -1.3013    3.0005    0.0000 C   0  0  0  0  0  0  0  0  0  0  0  0
   -1.4688    0.4078    0.0000 C   0  0  0  0  0  0  0  0  0  0  0  0
   -0.5107    1.5620    0.0000 O   0  0  0  0  0  0  0  0  0  0  0  0
    0.8830    1.0074    0.0000 C   0  0  0  0  0  0  0  0  0  0  0  0
    2.2277    1.6721    0.0000 C   0  0  0  0  0  0  0  0  0  0  0  0
    2.3244    3.1690    0.0000 Cl  0  0  0  0  0  0  0  0  0  0  0  0
    3.4757    0.8400    0.0000 C   0  0  0  0  0  0  0  0  0  0  0  0
    4.8204    1.5047    0.0000 O   0  0  0  0  0  0  0  0  0  0  0  0
    6.0684    0.6725    0.0000 C   0  0  0  0  0  0  0  0  0  0  0  0
    3.3790   -0.6569    0.0000 C   0  0  0  0  0  0  0  0  0  0  0  0
    2.0343   -1.3216    0.0000 C   0  0  0  0  0  0  0  0  0  0  0  0
    1.9376   -2.8185    0.0000 O   0  0  0  0  0  0  0  0  0  0  0  0
    3.1856   -3.6507    0.0000 C   0  0  0  0  0  0  0  0  0  0  0  0
    0.7864   -0.4894    0.0000 C   0  0  0  0  0  0  0  0  0  0  0  0
   -0.6671   -0.8600    0.0000 C   0  0  0  0  0  0  0  0  0  0  0  0
   -0.7857   -1.7378    0.0000 O   0  0  0  0  0  0  0  0  0  0  0  0
  1  2  1  0
  2  3  1  0
  3  4  2  0
  4  5  1  0
  5  6  2  0
  5  7  1  0
  7  8  1  0
  8  9  1  1
  8 10  1  0
 10 11  1  6
 11 12  1  0
 12 13  2  0
 13 14  1  0
 13 15  1  0
 15 16  1  0
 16 17  1  0
 15 18  2  0
 18 19  1  0
 19 20  1  0
 20 21  1  0
 19 22  2  0
 22 23  1  0
 23 24  2  0
 10  3  1  0
 22 12  1  0
 23 10  1  0
M  END
>  <identifier>  (1347) 
CNP0221354.1

>  <canonical_smiles>  (1347) 
COC1=CC(=O)C[C@@H](C)[C@]12OC1=C(Cl)C(OC)=CC(OC)=C1C2=O

>  <standard_inchi>  (1347) 
InChI=1S/C17H17ClO6/c1-8-5-9(19)6-12(23-4)17(8)16(20)13-10(21-2)7-11(22-3)14(18)15(13)24-17/h6-8H,5H2,1-4H3/t8-,17+/m1/s1

>  <standard_inchi_key>  (1347) 
DDUHZTYCFQRHIY-RBHXEPJQSA-N

>  <name>  (1347) 
griseofulvin

>  <iupac_name>  (1347) 
(2~{S},5'~{R})-7-chloro-3',4,6-trimethoxy-5'-methyl-spiro[benzofuran-2,4'-cyclohex-2-ene]-1',3-dione

>  <annotation_level>  (1347) 
5

>  <total_atom_count>  (1347) 
41

>  <heavy_atom_count>  (1347) 
24

>  <molecular_weight>  (1347) 
352.77

>  <exact_molecular_weight>  (1347) 
352.07137

>  <molecular_formula>  (1347) 
C17H17ClO6

>  <alogp>  (1347) 
2.81

>  <topological_polar_surface_area>  (1347) 
71.06

>  <rotatable_bond_count>  (1347) 
3

>  <hydrogen_bond_acceptors>  (1347) 
6

>  <hydrogen_bond_donors>  (1347) 
0

>  <hydrogen_bond_acceptors_lipinski>  (1347) 
6

>  <hydrogen_bond_donors_lipinski>  (1347) 
0

>  <lipinski_rule_of_five_violations>  (1347) 
0

>  <aromatic_rings_count>  (1347) 
1

>  <qed_drug_likeliness>  (1347) 
0.83

>  <formal_charge>  (1347) 
0

>  <fractioncsp3>  (1347) 
0.41

>  <number_of_minimal_rings>  (1347) 
3

>  <van_der_walls_volume>  (1347) 
295.70

>  <contains_sugar>  (1347) 
False

>  <contains_ring_sugars>  (1347) 
False

>  <contains_linear_sugars>  (1347) 
False

>  <murcko_framework>  (1347) 
O1c2ccccc2CC13C=CCCC3

>  <np_likeness>  (1347) 
1.95

>  <chemical_class>  (1347) 
Benzofurans

>  <chemical_sub_class>  (1347) 
Benzofuranones

>  <chemical_super_class>  (1347) 
Organoheterocyclic compounds

>  <direct_parent_classification>  (1347) 
Benzofuranones

>  <np_classifier_pathway>  (1347) 
Polyketides

>  <np_classifier_superclass>  (1347) 
Aromatic polyketides

>  <np_classifier_class>  (1347) 
Griseofulvins

>  <np_classifier_is_glycoside>  (1347) 
False

>  <organisms>  (1347) 
Alstonia glaucescens|Aspergillus terricola var. indicus|Blumea obliqua|Clethra barbinervis|Dichotella gemmacea|Hypericum attenuatum|Hypomyces rosellus|Ilybius fenestratus|Lithospermum erythrorhizon|Melodinus cochinchinensis|Melodinus khasianus|Memnoniella echinata|Oxycorynia fascicularis|Penicillium|Penicillium aethiopicum|Penicillium canescens|Penicillium canescens 4.14.6a|Penicillium concentricum|Penicillium griseofulvum|Penicillium griseofulvum CPCC 400528|Penicillium griseofulvun|Penicillium janczewskii|Penicillium raistrickii|Penicillium sclerotigenum|Penicillium solitum|Penicillium sp.|Sophora pachycarpa|Stachybotrys echinatus|Trichocereus pachanoi|Xylaria|Xylaria cubensis|Xylaria sp.

>  <collections>  (1347) 
ChEBI NPs|ChEMBL NPs|ChemSpider NPs|DrugBankNP|EMNPD|GNPS (Global Natural Products Social Molecular Networking)|KNApSaCK|Latin America dataset|NPASS|NPEdia|NuBBEDB|Phyto4Health|Super Natural II|WikiData Natural Products|ZINC NP

>  <dois>  (1347) 
10.1007/BF00436910|10.1016/J.CHEMBIOL.2010.03.015|10.1016/S0031-9422(00)86791-6|10.1016/j.bmc.2017.07.041|10.1021/ACS.JNATPROD.6B00011|10.1021/ACS.JNATPROD.6B00829|10.1021/ACS.JNATPROD.6B01069|10.1021/ACS.JNATPROD.9B00151|10.1021/NP030271Y|10.1021/NP960395T|10.1021/NP980188O|10.1021/NP980511N|10.1021/acs.jnatprod.6b00011|10.1021/acs.jnatprod.6b00829|10.1021/acs.jnatprod.6b01069|10.1021/acs.jnatprod.9b00151|10.1021/np50055a025|10.1021/np50123a014|10.1021/np980188o|10.1039/JR9540002585|10.1042/BJ0330240|10.1248/CPB.48.1452|10.1271/BBB.56.1138|10.1590/S0100-40422005000600011

>  <synonyms>  (1347) 
(+)-Griseofulvin|(1'S-trans)- 7-Chloro-2',4,6-trimethoxy-6'-methylspiro(benzofuran-2(3H),1'-cyclohex-2'-ene)-3,4'-dione|(2S,5'R)-7-chloro-3',4,6-trimethoxy-5'-methylspiro[1-benzofuran-2,4'-cyclohex-2-ene]-1',3-dione|(2S,6'R)-7-chloro-2',4,6-trimethoxy-6'-methyl-3H-spiro[1-benzofuran-2,1'-cyclohexan]-2'-ene-3,4'-dione|(2S,6'R)-7-chloro-2',4,6-trimethoxy-6'-methylbenzofuran-2-spiro-1'-cyclohex-2'-ene-3,4'-dione|(2S-TRANS)-7-CHLORO-2',4,6-TRIMETHOXY-6'-METHYLSPIRO|107912-37-8|126-07-8|32HRV3E3D5|5-18-05-00150 (Beilstein Handbook Reference)|7-CHLORO-2',4,6-TRIMETHOXY-6'.BETA.-METHYLSPIRO(BENZOFURAN-2(3H),1'-(2)CYCLOHEXENE)-3,4'-DIONE|7-CHLORO-4,6-DIMETHOXYCOUMARAN-3-ONE-2-SPIRO-1'-(2'-MET HOXY-6'-METHYLCYCLOHEX-2'-EN-4'-ONE)|7-Chloro-2',4,6-trimethoxy-6'beta-methylspiro(benzofuran-2(3H),1'-(2)cyclohexene)-3,4'-dione|7-Chloro-4,6,2'-trimethoxy-6'-methylgris-2'-en-3,4'-dione|7-Chloro-4,6-dimethoxycoumaran-3-one-2-spiro-1'-(2'-methoxy-6'-methylcyclohex-2'-en-4'-one)|AB00052005_07|ACon0_000953|ACon1_001843|AI3-51015|AKOS015896380|AS-13736|Amudane|Amudane, Fulvicin, Grisactin|BDBM31775|BIDD:GT0024|BIM-0051396.0001|BPBio1_000299|BRD-K08273968-001-05-9|BRD-K08273968-001-19-0|BRN 0095226|BSPBio_000271|BSPBio_001621|BT164513|Biogrisin-FP|C06686|CCG-38416|CCRIS 320|CHEBI:27779|CHEMBL562|CPD000718755|CS-0695022|CS-3426|Caswell No. 471B|Curling factor|D00209|D01AA08|D01BA01|DB00400|DTXCID20674|DTXSID8020674|Delmofulvina|DivK1c_000154|DivK1c_006432|EINECS 204-767-4|EN300-52615|EPA Pesticide Chemical Code 471400|FSL0593|FULVICIN P\/G 165|FULVICIN P\/G 330|Fulcin|Fulvican grisactin|Fulvicin|Fulvicin Bolus|Fulvicin Bolus (Veterinary)|Fulvicin U\/F Bolus Veterinary|Fulvicin U\/F Powder|Fulvicin U\/F Tablets|Fulvicin-P\/G|Fulvicin-U\/F|Fulvicin-U\/F (Veterinary)|Fulvicin-U\/F Powder and Tablets|Fulvidex|Fulvidex (Veterinary)|Fulvina|Fulvinil|Fulvistatin|Fungivin|G0384|GRE|GRISEOFULVIN (EP MONOGRAPH)|GRISEOFULVIN (IARC)|GRISEOFULVIN (MART.)|GRISEOFULVIN (USP-RS)|GRISEOFULVIN PERMEABILITY DIAMETER (USP-RS)|GRISEOFULVIN POWDER|GRISEOFULVIN [GREEN BOOK]|GRISEOFULVIN [HSDB]|GRISEOFULVIN [IARC]|GRISEOFULVIN [JAN]|GRISEOFULVIN [MI]|GRISEOFULVIN [ORANGE BOOK]|GRISEOFULVIN [USP MONOGRAPH]|GRISEOFULVIN [VANDF]|GRISEOFULVIN [WHO-DD]|GRISEOFULVIN, MICROCRYSTALLINE|GRISEOFULVIN, ULTRAMICROSIZE|GRISEOFULVINUM [WHO-IP LATIN]|Greosin|Gresfeed|Gricin|Grifulvin|Gris-peg (TN)|Grisactin|Grisactin Ultra|Grisactin V (TN)|Griscofulvin|Grisefuline|Griseo|Griseofulvin (JAN\/USP\/INN)|Griseofulvin (Standard)|Griseofulvin (USP:INN)|Griseofulvin 100 microg\/mL in Acetonitrile|Griseofulvin Oral Suspension|Griseofulvin Permeability Diameter, United States Pharmacopeia (USP) Reference Standard|Griseofulvin [USP:INN:BAN:JAN]|Griseofulvin and Alpha-IFN|Griseofulvin forte|Griseofulvin microsize|Griseofulvin permeability diameter|Griseofulvin, (+)-|Griseofulvin, Antibiotic for Culture Media Use Only|Griseofulvin, British Pharmacopoeia (BP) Reference Standard|Griseofulvin, European Pharmacopoeia (EP) Reference Standard|Griseofulvin, Pharmaceutical Secondary Standard; Certified Reference Material|Griseofulvin, United States Pharmacopeia (USP) Reference Standard|Griseofulvin, VETRANAL(TM), analytical standard|Griseofulvin, from Penicillium griseofulvum, 97.0-102.0%|Griseofulvin,(S)|Griseofulvina|Griseofulvina [INN-Spanish]|Griseofulvine [INN-French]|Griseofulvinum|Griseofulvinum [INN-Latin]|Griseomix|Grisetin|Grisovin|Grisovin FP|Grizeofulvin|Grysio|Grysio (Microsize)|Guservin|HMS1923E09|HMS2091A03|HMS2095N13|HMS2235F13|HMS3259D05|HMS3712N13|HMS500H16|HSDB 1722|HY-17583R|IDI1_000154|IDIFULVIN|KBio1_000154|KBio1_001376|KBio2_001296|KBio2_003864|KBio2_006432|KBio3_001121|KBioGR_001454|KBioSS_001296|LMPK13060001|Lamoryl|Likuden|MEGxm0_000184|MFCD00082343|MLS001304062|MLS002152905|MLS002154239|Murfulvin|NC00616|NCGC00091120-01|NCGC00256353-01|NCGC00259784-01|NINDS_000154|NS00011725|NSC 34533|NSC-34533|NSC-755822|Neo-Fulcin|Pharmakon1600-00200046|Poncyl|Prestwick3_000226|Prestwick_247|Q-201178|Q416096|SCHEMBL21988|SDCCGMLS-0066450.P001|SMR000718755|SPBio_000225|SPECTRUM200046|SPIRO(BENZOFURAN-2(3H),1'-(2)CYCLOHEXENE)-3,4'-DIONE, 7 -CHLORO-2',4,6-TRIMETHOXY-6'-BETA-METHYL-|SR-01000837512|SR-05000001535|SpecPlus_000336|Spectrum2_000213|Spectrum4_000927|Spectrum5_000648|Spectrum_000816|Spiro(benzofuran-2(3H),1'-(2)cyclohexene)-3,4'-dione, 7-chloro-2',4,6-trimethoxy-6'-methyl-, (1'S-trans)-|Spirofulvin|Tox21_111087|Tox21_202235|Tox21_303005|ULTRAGRIS-165|ULTRAGRIS-330|UNII-32HRV3E3D5|USAF SC-2|Ultramicrosize Griseofulvin|Ultramicrosize Griseofulvin Tablets|Xuanjing|Z756424454|fulvicin UF|s4071

>  <cas>  (1347) 
126-07-8|107912-37-8

$$$$

     RDKit          2D

 46 49  0  0  0  0  0  0  0  0999 V2000
   11.4369   -2.7950    0.0000 C   0  0  0  0  0  0  0  0  0  0  0  0
   11.6345   -1.3080    0.0000 O   0  0  0  0  0  0  0  0  0  0  0  0
   10.4455   -0.3935    0.0000 C   0  0  0  0  0  0  0  0  0  0  0  0
    9.0590   -0.9658    0.0000 C   0  0  0  0  0  0  0  0  0  0  0  0
    7.8701   -0.0513    0.0000 C   0  0  0  0  0  0  0  0  0  0  0  0
    6.4836   -0.6236    0.0000 C   0  0  0  0  0  0  0  0  0  0  0  0
    6.2860   -2.1106    0.0000 O   0  0  0  0  0  0  0  0  0  0  0  0
    5.2947    0.2909    0.0000 O   0  0  0  0  0  0  0  0  0  0  0  0
    3.9082   -0.2814    0.0000 C   0  0  0  0  0  0  0  0  0  0  0  0
    2.7192    0.6331    0.0000 C   0  0  0  0  0  0  0  0  0  0  0  0
    3.7531    1.7200    0.0000 O   0  0  0  0  0  0  0  0  0  0  0  0
    1.7464    1.7749    0.0000 C   0  0  0  0  0  0  0  0  0  0  0  0
    0.3599    1.2026    0.0000 O   0  0  0  0  0  0  0  0  0  0  0  0
    0.4758   -0.2930    0.0000 C   0  0  0  0  0  0  0  0  0  0  0  0
   -0.6660   -1.2658    0.0000 O   0  0  0  0  0  0  0  0  0  0  0  0
   -2.0793   -0.7634    0.0000 C   0  0  0  0  0  0  0  0  0  0  0  0
   -3.2211   -1.7362    0.0000 C   0  0  0  0  0  0  0  0  0  0  0  0
   -4.6345   -1.2337    0.0000 O   0  0  0  0  0  0  0  0  0  0  0  0
   -5.7762   -2.2065    0.0000 C   0  0  0  0  0  0  0  0  0  0  0  0
   -7.1896   -1.7041    0.0000 O   0  0  0  0  0  0  0  0  0  0  0  0
   -7.4612   -0.2289    0.0000 C   0  0  0  0  0  0  0  0  0  0  0  0
   -6.3194    0.7439    0.0000 C   0  0  0  0  0  0  0  0  0  0  0  0
   -6.5910    2.2191    0.0000 C   0  0  0  0  0  0  0  0  0  0  0  0
   -5.4492    3.1919    0.0000 O   0  0  0  0  0  0  0  0  0  0  0  0
   -4.0359    2.6895    0.0000 C   0  0  0  0  0  0  0  0  0  0  0  0
   -8.0044    2.7215    0.0000 C   0  0  0  0  0  0  0  0  0  0  0  0
   -8.2759    4.1967    0.0000 O   0  0  0  0  0  0  0  0  0  0  0  0
   -9.6893    4.6991    0.0000 C   0  0  0  0  0  0  0  0  0  0  0  0
   -9.1461    1.7487    0.0000 C   0  0  0  0  0  0  0  0  0  0  0  0
  -10.5595    2.2511    0.0000 O   0  0  0  0  0  0  0  0  0  0  0  0
  -11.7013    1.2783    0.0000 C   0  0  0  0  0  0  0  0  0  0  0  0
   -8.8746    0.2735    0.0000 C   0  0  0  0  0  0  0  0  0  0  0  0
   -5.5047   -3.6818    0.0000 C   0  0  0  0  0  0  0  0  0  0  0  0
   -6.6464   -4.6546    0.0000 O   0  0  0  0  0  0  0  0  0  0  0  0
   -4.0913   -4.1842    0.0000 C   0  0  0  0  0  0  0  0  0  0  0  0
   -3.8197   -5.6594    0.0000 O   0  0  0  0  0  0  0  0  0  0  0  0
   -2.9495   -3.2114    0.0000 C   0  0  0  0  0  0  0  0  0  0  0  0
   -1.5362   -3.7138    0.0000 O   0  0  0  0  0  0  0  0  0  0  0  0
    1.9339   -0.6449    0.0000 C   0  0  0  0  0  0  0  0  0  0  0  0
    2.5063   -2.0314    0.0000 O   0  0  0  0  0  0  0  0  0  0  0  0
    8.0677    1.4357    0.0000 C   0  0  0  0  0  0  0  0  0  0  0  0
    9.4542    2.0080    0.0000 C   0  0  0  0  0  0  0  0  0  0  0  0
    9.6518    3.4950    0.0000 O   0  0  0  0  0  0  0  0  0  0  0  0
    8.4628    4.4095    0.0000 C   0  0  0  0  0  0  0  0  0  0  0  0
   10.6431    1.0935    0.0000 C   0  0  0  0  0  0  0  0  0  0  0  0
   12.0296    1.6658    0.0000 O   0  0  0  0  0  0  0  0  0  0  0  0
  1  2  1  0
  2  3  1  0
  3  4  2  0
  4  5  1  0
  5  6  1  0
  6  7  2  0
  6  8  1  0
  8  9  1  0
  9 10  1  0
 10 11  1  1
 10 12  1  0
 12 13  1  0
 13 14  1  0
 14 15  1  6
 15 16  1  0
 17 16  1  6
 17 18  1  0
 18 19  1  0
 19 20  1  6
 20 21  1  0
 21 22  2  0
 22 23  1  0
 23 24  1  0
 24 25  1  0
 23 26  2  0
 26 27  1  0
 27 28  1  0
 26 29  1  0
 29 30  1  0
 30 31  1  0
 29 32  2  0
 19 33  1  0
 33 34  1  1
 33 35  1  0
 35 36  1  6
 35 37  1  0
 37 38  1  1
 14 39  1  0
 39 40  1  1
  5 41  2  0
 41 42  1  0
 42 43  1  0
 43 44  1  0
 42 45  2  0
 45 46  1  0
 45  3  1  0
 39 10  1  0
 37 17  1  0
 32 21  1  0
M  END
>  <identifier>  (1348) 
CNP0268810.1

>  <canonical_smiles>  (1348) 
COC1=CC(C(=O)OC[C@@]2(O)CO[C@@H](OC[C@H]3O[C@@H](OC4=CC(OC)=C(OC)C(OC)=C4)[C@H](O)[C@@H](O)[C@@H]3O)[C@@H]2O)=CC(OC)=C1O

>  <standard_inchi>  (1348) 
InChI=1S/C29H38O17/c1-37-15-6-13(7-16(38-2)20(15)30)26(35)43-11-29(36)12-44-28(25(29)34)42-10-19-21(31)22(32)23(33)27(46-19)45-14-8-17(39-3)24(41-5)18(9-14)40-4/h6-9,19,21-23,25,27-28,30-34,36H,10-12H2,1-5H3/t19-,21-,22+,23-,25+,27-,28-,29-/m1/s1

>  <standard_inchi_key>  (1348) 
JXFLXUHEPVEMKK-UTDQSPDHSA-N

>  <name>  (1348) 
5''-O-Syringoylkelampayoside A

>  <iupac_name>  (1348) 
[(3~{S},4~{R},5~{R})-3,4-dihydroxy-5-[[(2~{R},3~{S},4~{S},5~{R},6~{S})-3,4,5-trihydroxy-6-(3,4,5-trimethoxyphenoxy)tetrahydropyran-2-yl]methoxy]tetrahydrofuran-3-yl]methyl 4-hydroxy-3,5-dimethoxy-benzoate

>  <annotation_level>  (1348) 
5

>  <total_atom_count>  (1348) 
84

>  <heavy_atom_count>  (1348) 
46

>  <molecular_weight>  (1348) 
658.61

>  <exact_molecular_weight>  (1348) 
658.2109

>  <molecular_formula>  (1348) 
C29H38O17

>  <alogp>  (1348) 
-1.06

>  <topological_polar_surface_area>  (1348) 
230.75

>  <rotatable_bond_count>  (1348) 
13

>  <hydrogen_bond_acceptors>  (1348) 
17

>  <hydrogen_bond_donors>  (1348) 
6

>  <hydrogen_bond_acceptors_lipinski>  (1348) 
17

>  <hydrogen_bond_donors_lipinski>  (1348) 
6

>  <lipinski_rule_of_five_violations>  (1348) 
3

>  <aromatic_rings_count>  (1348) 
2

>  <qed_drug_likeliness>  (1348) 
0.14

>  <formal_charge>  (1348) 
0

>  <fractioncsp3>  (1348) 
0.55

>  <number_of_minimal_rings>  (1348) 
4

>  <van_der_walls_volume>  (1348) 
557.07

>  <contains_sugar>  (1348) 
True

>  <contains_ring_sugars>  (1348) 
True

>  <contains_linear_sugars>  (1348) 
False

>  <murcko_framework>  (1348) 
O(Cc1ccccc1)CC2COC(OCC3OC(Oc4ccccc4)CCC3)C2

>  <np_likeness>  (1348) 
1.57

>  <chemical_class>  (1348) 
Tannins

>  <chemical_sub_class>  (1348) 
Hydrolyzable tannins

>  <chemical_super_class>  (1348) 
Phenylpropanoids and polyketides

>  <direct_parent_classification>  (1348) 
Hydrolyzable tannins

>  <np_classifier_pathway>  (1348) 
Shikimates and Phenylpropanoids

>  <np_classifier_superclass>  (1348) 
nan

>  <np_classifier_class>  (1348) 
nan

>  <np_classifier_is_glycoside>  (1348) 
True

>  <organisms>  (1348) 
Alibertia sessilis|Cordiera sessilis

>  <collections>  (1348) 
CMAUP (cCollective molecular activities of useful plants)|ChemSpider NPs|Latin America dataset|NuBBEDB|Super Natural II|WikiData Natural Products|ZINC NP

>  <dois>  (1348) 
10.1590/S0103-50532007000700017

>  <synonyms>  (1348) 
1014974-98-1|3,4,5-Trimethoxyphenyl 6-O-[5-O-(4-hydroxy-3,5-dimethoxybenzoyl)-D-apio--D-furanosyl]--D-glucopyranoside|345-Trimethoxyphenyl-1-O-\u221a\u00e9\u00ac\u2264-D-(5-O-syringoyl)-apiofuranosyl-(1\u221a\u00a2\u201a\u00c4\u2020\u201a\u00c4\u00f46)-\u221a\u00e9\u00ac\u2264-D-glucopyranoside|5\/'\/'-O-Syringoylkelampayoside A|AKOS022184884|CHEMBL1076765|F92737|FS-9453|[(3S,4R,5R)-3,4-dihydroxy-5-[[(2R,3S,4S,5R,6S)-3,4,5-trihydroxy-6-(3,4,5-trimethoxyphenoxy)oxan-2-yl]methoxy]oxolan-3-yl]methyl 4-hydroxy-3,5-dimethoxybenzoate|beta-D-Glucopyranoside, 3,4,5-trimethoxyphenyl 6-O-[5-O-(4-hydroxy-3,5-dimethoxybenzoyl)-D-apio-beta-D-furanosyl]-

>  <cas>  (1348) 
nan

$$$$

     RDKit          2D

 18 21  0  0  0  0  0  0  0  0999 V2000
    0.0328   -3.3756    0.0000 C   0  0  0  0  0  0  0  0  0  0  0  0
    1.3079   -2.5856    0.0000 O   0  0  0  0  0  0  0  0  0  0  0  0
    1.2613   -1.0863    0.0000 C   0  0  0  0  0  0  0  0  0  0  0  0
   -0.0605   -0.3771    0.0000 C   0  0  0  0  0  0  0  0  0  0  0  0
   -1.3356   -1.1671    0.0000 C   0  0  0  0  0  0  0  0  0  0  0  0
   -2.6573   -0.4579    0.0000 C   0  0  0  0  0  0  0  0  0  0  0  0
   -4.0688   -0.9655    0.0000 O   0  0  0  0  0  0  0  0  0  0  0  0
   -4.9878    0.2200    0.0000 C   0  0  0  0  0  0  0  0  0  0  0  0
   -4.1443    1.4603    0.0000 O   0  0  0  0  0  0  0  0  0  0  0  0
   -2.7039    1.0414    0.0000 C   0  0  0  0  0  0  0  0  0  0  0  0
   -1.4289    1.8314    0.0000 C   0  0  0  0  0  0  0  0  0  0  0  0
   -0.1071    1.1222    0.0000 C   0  0  0  0  0  0  0  0  0  0  0  0
    1.1680    1.9122    0.0000 N   0  0  0  0  0  0  0  0  0  0  0  0
    2.4897    1.2030    0.0000 C   0  0  0  0  0  0  0  0  0  0  0  0
    2.5363   -0.2963    0.0000 C   0  0  0  0  0  0  0  0  0  0  0  0
    3.9767   -0.7152    0.0000 C   0  0  0  0  0  0  0  0  0  0  0  0
    4.8202    0.5252    0.0000 C   0  0  0  0  0  0  0  0  0  0  0  0
    3.9012    1.7107    0.0000 O   0  0  0  0  0  0  0  0  0  0  0  0
  1  2  1  0
  2  3  1  0
  3  4  2  0
  4  5  1  0
  5  6  2  0
  6  7  1  0
  7  8  1  0
  8  9  1  0
  9 10  1  0
 10 11  2  0
 11 12  1  0
 12 13  2  0
 13 14  1  0
 14 15  2  0
 15 16  1  0
 16 17  2  0
 17 18  1  0
 15  3  1  0
 12  4  1  0
 18 14  1  0
 10  6  1  0
M  END
>  <identifier>  (1349) 
CNP0115082.0

>  <canonical_smiles>  (1349) 
COC1=C2C=C3OCOC3=CC2=NC2=C1C=CO2

>  <standard_inchi>  (1349) 
InChI=1S/C13H9NO4/c1-15-12-7-2-3-16-13(7)14-9-5-11-10(4-8(9)12)17-6-18-11/h2-5H,6H2,1H3

>  <standard_inchi_key>  (1349) 
VPNYHHBCMOYPCJ-UHFFFAOYSA-N

>  <name>  (1349) 
Maculine

>  <iupac_name>  (1349) 
8-methoxy-4,12,14-trioxa-2-azatetracyclo[7.7.0.0^{3,7}.0^{11,15}]hexadeca-1,3(7),5,8,10,15-hexaene

>  <annotation_level>  (1349) 
5

>  <total_atom_count>  (1349) 
27

>  <heavy_atom_count>  (1349) 
18

>  <molecular_weight>  (1349) 
243.22

>  <exact_molecular_weight>  (1349) 
243.05316

>  <molecular_formula>  (1349) 
C13H9NO4

>  <alogp>  (1349) 
2.72

>  <topological_polar_surface_area>  (1349) 
53.72

>  <rotatable_bond_count>  (1349) 
1

>  <hydrogen_bond_acceptors>  (1349) 
5

>  <hydrogen_bond_donors>  (1349) 
0

>  <hydrogen_bond_acceptors_lipinski>  (1349) 
5

>  <hydrogen_bond_donors_lipinski>  (1349) 
0

>  <lipinski_rule_of_five_violations>  (1349) 
0

>  <aromatic_rings_count>  (1349) 
3

>  <qed_drug_likeliness>  (1349) 
0.66

>  <formal_charge>  (1349) 
0

>  <fractioncsp3>  (1349) 
0.15

>  <number_of_minimal_rings>  (1349) 
4

>  <van_der_walls_volume>  (1349) 
198.27

>  <contains_sugar>  (1349) 
False

>  <contains_ring_sugars>  (1349) 
False

>  <contains_linear_sugars>  (1349) 
False

>  <murcko_framework>  (1349) 
n1c2occc2cc3cc4OCOc4cc13

>  <np_likeness>  (1349) 
0.80

>  <chemical_class>  (1349) 
Quinolines and derivatives

>  <chemical_sub_class>  (1349) 
Furanoquinolines

>  <chemical_super_class>  (1349) 
Organoheterocyclic compounds

>  <direct_parent_classification>  (1349) 
Furanoquinolines

>  <np_classifier_pathway>  (1349) 
Alkaloids

>  <np_classifier_superclass>  (1349) 
Tryptophan alkaloids

>  <np_classifier_class>  (1349) 
Quinoline alkaloids

>  <np_classifier_is_glycoside>  (1349) 
False

>  <organisms>  (1349) 
Aconitum volubile|Aeollanthus buchnerianus|Araliopsis soyauxii|Cetorhinus maximus|Cynoglossum viridiflorum|Derris malaccensis|Echium plantagineum|Esenbeckia grandiflora|Esenbeckia leiocarpa|Esenbeckia litoralis|Esenbeckia pilocarpoides|Flindersia bennettiana|Flindersia bennettii|Flindersia collina|Flindersia dissosperma|Flindersia maculosa|Flindersia xanthoxyla|Helianthus niveus|Helietta parvifolia|Hernandia sonora|Leptospermum recurvum|Oricia suaveolens|Parmelia damaziana|Ptelea aptera|Sargentia greggii|Teclea nobilis|Teclea simplicifolia|Teclea sudanica|Vepris afzelii|Vepris nobilis|Vepris punctata|Vepris soyauxii|Vepris suaveolens|Vepris unifoliolata

>  <collections>  (1349) 
ANPDB|AfroCancer|AfroDB|Australian natural products|CMAUP (cCollective molecular activities of useful plants)|ChEBI NPs|ChemSpider NPs|KNApSaCK|Latin America dataset|Mitishamba database|NANPDB (Natural Products from Northern African Sources)|NPASS|NPCARE|NPEdia|NuBBEDB|Specs Natural Products|Super Natural II|UNPD (Universal Natural Products Database)|WikiData Natural Products|ZINC NP

>  <dois>  (1349) 
10.1002/CHIN.199005299|10.1002/CHIN.200413167|10.1002/PTR.2894|10.1016/0031-9422(88)83170-4|10.1016/0031-9422(95)00564-1|10.1016/J.PHYTOL.2011.08.012|10.1016/S0031-9422(00)86348-7|10.1016/S0031-9422(00)94434-0|10.1016/j.phytol.2011.08.012|10.1021/NP020578H|10.1021/NP0303512|10.1021/NP0303512.S001|10.1021/NP800276F|10.1021/np020578h|10.1021/np800276f|10.1055/S-2007-969789|10.1071/CH9540181|10.1071/CH9570480|10.1071/CH9600426|10.1071/CH9600427|10.1071/ch9570480|10.3390/MOLECULES15129205|10.3390/molecules15129205

>  <synonyms>  (1349) 
1,3-Dioxolo(4,5-g)furo(2,3-b)quinoline, 9-methoxy-|1,5-g]furo[2,3-b]quinoline, 9-methoxy-|12-methoxy-15,16,17-trioxa-14-azatetracyclohexadeca-2,|4-27-00-06795 (Beilstein Handbook Reference)|524-89-0|67W5VPJ6AX|8-methoxy-4,12,14-trioxa-2-azatetracyclo[7.7.0.03,7.011,15]hexadeca-1(16),2,5,7,9,11(15)-hexaene|9-Methoxy-1,3-dioxolo(4,5-g)furo(2,3-b)quinoline|9-Methoxy-[1,3]dioxolo[4,5-g]furo[2,3-b]quinoline|AKOS030617079|BRN 0255599|CCRIS 3577|CHEBI:6629|CHEMBL503675|DS-008365|DTXSID90200416|Maculin|Makulin|NSC 94658|NSC-94658|Q27107282|UNII-67W5VPJ6AX|VPNYHHBCMOYPCJ-UHFFFAOYSA-N|XM161788|maculine|maculine, kokusagine

>  <cas>  (1349) 
524-89-0

$$$$

     RDKit          2D

 38 42  0  0  0  0  0  0  0  0999 V2000
    4.0661   -3.4895    0.0000 C   0  0  0  0  0  0  0  0  0  0  0  0
    5.5463   -3.2463    0.0000 C   0  0  0  0  0  0  0  0  0  0  0  0
    6.4969   -4.4066    0.0000 C   0  0  0  0  0  0  0  0  0  0  0  0
    6.0758   -1.8429    0.0000 C   0  0  0  0  0  0  0  0  0  0  0  0
    7.5224   -1.4464    0.0000 C   0  0  0  0  0  0  0  0  0  0  0  0
    7.5924    0.0520    0.0000 C   0  0  0  0  0  0  0  0  0  0  0  0
    6.1889    0.5815    0.0000 C   0  0  0  0  0  0  0  0  0  0  0  0
    7.2435    1.6482    0.0000 C   0  0  0  0  0  0  0  0  0  0  0  0
    5.6434    1.9788    0.0000 C   0  0  0  0  0  0  0  0  0  0  0  0
    4.1605    2.2049    0.0000 C   0  0  0  0  0  0  0  0  0  0  0  0
    3.2232    1.0338    0.0000 C   0  0  0  0  0  0  0  0  0  0  0  0
    2.6777    2.4311    0.0000 C   0  0  0  0  0  0  0  0  0  0  0  0
    3.7688   -0.3634    0.0000 C   0  0  0  0  0  0  0  0  0  0  0  0
    2.8315   -1.5345    0.0000 C   0  0  0  0  0  0  0  0  0  0  0  0
    1.3486   -1.3084    0.0000 C   0  0  0  0  0  0  0  0  0  0  0  0
    0.8031    0.0889    0.0000 C   0  0  0  0  0  0  0  0  0  0  0  0
   -0.6798    0.3151    0.0000 C   0  0  0  0  0  0  0  0  0  0  0  0
   -0.1342   -1.0822    0.0000 C   0  0  0  0  0  0  0  0  0  0  0  0
   -1.6171   -0.8560    0.0000 C   0  0  0  0  0  0  0  0  0  0  0  0
   -3.0999   -0.6299    0.0000 C   0  0  0  0  0  0  0  0  0  0  0  0
   -3.6455    0.7674    0.0000 C   0  0  0  0  0  0  0  0  0  0  0  0
   -5.1283    0.9936    0.0000 O   0  0  0  0  0  0  0  0  0  0  0  0
   -6.0656   -0.1776    0.0000 C   0  0  0  0  0  0  0  0  0  0  0  0
   -5.5201   -1.5748    0.0000 O   0  0  0  0  0  0  0  0  0  0  0  0
   -7.5485    0.0486    0.0000 C   0  0  0  0  0  0  0  0  0  0  0  0
   -8.4858   -1.1225    0.0000 C   0  0  0  0  0  0  0  0  0  0  0  0
   -9.9686   -0.8963    0.0000 C   0  0  0  0  0  0  0  0  0  0  0  0
  -10.9059   -2.0674    0.0000 C   0  0  0  0  0  0  0  0  0  0  0  0
  -12.3888   -1.8413    0.0000 C   0  0  0  0  0  0  0  0  0  0  0  0
   -2.7082    1.9385    0.0000 C   0  0  0  0  0  0  0  0  0  0  0  0
   -2.2280    3.3595    0.0000 C   0  0  0  0  0  0  0  0  0  0  0  0
   -4.0243    2.6582    0.0000 C   0  0  0  0  0  0  0  0  0  0  0  0
   -1.2253    1.7123    0.0000 C   0  0  0  0  0  0  0  0  0  0  0  0
   -0.2880    2.8834    0.0000 C   0  0  0  0  0  0  0  0  0  0  0  0
    1.1948    2.6573    0.0000 C   0  0  0  0  0  0  0  0  0  0  0  0
    1.7404    1.2600    0.0000 C   0  0  0  0  0  0  0  0  0  0  0  0
    2.2859   -0.1373    0.0000 C   0  0  0  0  0  0  0  0  0  0  0  0
    5.2516   -0.5896    0.0000 C   0  0  0  0  0  0  0  0  0  0  0  0
  1  2  2  0
  2  3  1  0
  4  2  1  1
  4  5  1  0
  5  6  1  0
  6  7  1  0
  7  8  1  6
  7  9  1  0
  9 10  1  0
 10 11  1  0
 11 12  1  1
 11 13  1  0
 13 14  1  1
 14 15  1  0
 16 15  1  6
 16 17  1  0
 17 18  1  6
 17 19  1  0
 19 20  1  0
 20 21  1  0
 21 22  1  6
 22 23  1  0
 23 24  2  0
 23 25  1  0
 25 26  1  0
 26 27  1  0
 27 28  1  0
 28 29  1  0
 21 30  1  0
 30 31  1  0
 30 32  1  0
 30 33  1  0
 33 34  1  6
 34 35  1  0
 35 36  1  0
 36 37  1  6
 13 38  1  0
 38  4  1  6
 38  7  1  0
 36 11  1  0
 36 16  1  0
 33 17  1  0
M  END
>  <identifier>  (1350) 
CNP0241523.1

>  <canonical_smiles>  (1350) 
C=C(C)[C@@H]1CC[C@]2(C)CC[C@]3(C)[C@H](CC[C@@H]4[C@@]5(C)CC[C@H](OC(=O)CCCCC)C(C)(C)[C@@H]5CC[C@]43C)[C@@H]12

>  <standard_inchi>  (1350) 
InChI=1S/C36H60O2/c1-10-11-12-13-30(37)38-29-18-20-34(7)27(32(29,4)5)17-21-36(9)28(34)15-14-26-31-25(24(2)3)16-19-33(31,6)22-23-35(26,36)8/h25-29,31H,2,10-23H2,1,3-9H3/t25-,26+,27-,28+,29-,31+,33+,34-,35+,36+/m0/s1

>  <standard_inchi_key>  (1350) 
RDMVPOZYOLCBLH-VQFBUESHSA-N

>  <name>  (1350) 
Cynanester A

>  <iupac_name>  (1350) 
[(1~{R},3~{a}~{R},5~{a}~{R},5~{b}~{R},7~{a}~{R},9~{S},11~{a}~{R},11~{b}~{R},13~{a}~{R},13~{b}~{R})-1-isopropenyl-3~{a},5~{a},5~{b},8,8,11~{a}-hexamethyl-1,2,3,4,5,6,7,7~{a},9,10,11,11~{b},12,13,13~{a},13~{b}-hexadecahydrocyclopenta[a]chrysen-9-yl] hexanoate

>  <annotation_level>  (1350) 
5

>  <total_atom_count>  (1350) 
98

>  <heavy_atom_count>  (1350) 
38

>  <molecular_weight>  (1350) 
524.87

>  <exact_molecular_weight>  (1350) 
524.45933

>  <molecular_formula>  (1350) 
C36H60O2

>  <alogp>  (1350) 
10.16

>  <topological_polar_surface_area>  (1350) 
26.30

>  <rotatable_bond_count>  (1350) 
6

>  <hydrogen_bond_acceptors>  (1350) 
2

>  <hydrogen_bond_donors>  (1350) 
0

>  <hydrogen_bond_acceptors_lipinski>  (1350) 
2

>  <hydrogen_bond_donors_lipinski>  (1350) 
0

>  <lipinski_rule_of_five_violations>  (1350) 
2

>  <aromatic_rings_count>  (1350) 
0

>  <qed_drug_likeliness>  (1350) 
0.20

>  <formal_charge>  (1350) 
0

>  <fractioncsp3>  (1350) 
0.92

>  <number_of_minimal_rings>  (1350) 
5

>  <van_der_walls_volume>  (1350) 
548.97

>  <contains_sugar>  (1350) 
False

>  <contains_ring_sugars>  (1350) 
False

>  <contains_linear_sugars>  (1350) 
False

>  <murcko_framework>  (1350) 
C1CCC2C(C1)CCC3C2CCC4C5CCCC5CCC43

>  <np_likeness>  (1350) 
2.63

>  <chemical_class>  (1350) 
Prenol lipids

>  <chemical_sub_class>  (1350) 
Triterpenoids

>  <chemical_super_class>  (1350) 
Lipids and lipid-like molecules

>  <direct_parent_classification>  (1350) 
Lupane triterpenoids

>  <np_classifier_pathway>  (1350) 
Terpenoids

>  <np_classifier_superclass>  (1350) 
Triterpenoids

>  <np_classifier_class>  (1350) 
Lupane triterpenoids

>  <np_classifier_is_glycoside>  (1350) 
False

>  <organisms>  (1350) 
Cnidoscolus vitifolius

>  <collections>  (1350) 
ChemSpider NPs|Latin America dataset|NuBBEDB|Super Natural II|WikiData Natural Products|ZINC NP

>  <dois>  (1350) 
10.1016/S0031-9422(98)00069-7

>  <synonyms>  (1350) 
143502-52-7|AKOS040751361|CHEMBL3798224|DTXSID30931919|Lup-20(29)-en-3-ol, hexanoate, (3beta)-|Lup-20(29)-en-3-yl hexanoate|Lup-20(29)-en-3\u221a\u00e9\u00ac\u2264-O-hexanoate|[(1R,3aR,5aR,5bR,7aR,9S,11aR,11bR,13aR,13bR)-3a,5a,5b,8,8,11a-hexamethyl-1-prop-1-en-2-yl-1,2,3,4,5,6,7,7a,9,10,11,11b,12,13,13a,13b-hexadecahydrocyclopenta[a]chrysen-9-yl] hexanoate

>  <cas>  (1350) 
143502-52-7

$$$$

     RDKit          2D

 22 22  0  0  0  0  0  0  0  0999 V2000
    2.7725   -3.5267    0.0000 C   0  0  0  0  0  0  0  0  0  0  0  0
    2.3251   -2.0950    0.0000 O   0  0  0  0  0  0  0  0  0  0  0  0
    0.8614   -1.7666    0.0000 C   0  0  0  0  0  0  0  0  0  0  0  0
   -0.1547   -2.8700    0.0000 C   0  0  0  0  0  0  0  0  0  0  0  0
   -1.6184   -2.5416    0.0000 C   0  0  0  0  0  0  0  0  0  0  0  0
   -2.0658   -1.1099    0.0000 C   0  0  0  0  0  0  0  0  0  0  0  0
   -3.5294   -0.7816    0.0000 C   0  0  0  0  0  0  0  0  0  0  0  0
   -3.9769    0.6501    0.0000 C   0  0  0  0  0  0  0  0  0  0  0  0
   -5.4405    0.9785    0.0000 C   0  0  0  0  0  0  0  0  0  0  0  0
   -6.4567   -0.1249    0.0000 O   0  0  0  0  0  0  0  0  0  0  0  0
   -5.8879    2.4102    0.0000 O   0  0  0  0  0  0  0  0  0  0  0  0
   -1.0496   -0.0066    0.0000 C   0  0  0  0  0  0  0  0  0  0  0  0
   -1.4971    1.4251    0.0000 O   0  0  0  0  0  0  0  0  0  0  0  0
    0.4140   -0.3349    0.0000 C   0  0  0  0  0  0  0  0  0  0  0  0
    1.4302    0.7684    0.0000 C   0  0  0  0  0  0  0  0  0  0  0  0
    0.9827    2.2001    0.0000 O   0  0  0  0  0  0  0  0  0  0  0  0
    2.8938    0.4401    0.0000 C   0  0  0  0  0  0  0  0  0  0  0  0
    3.3412   -0.9917    0.0000 O   0  0  0  0  0  0  0  0  0  0  0  0
    3.9100    1.5434    0.0000 C   0  0  0  0  0  0  0  0  0  0  0  0
    2.8066    2.5596    0.0000 C   0  0  0  0  0  0  0  0  0  0  0  0
    5.0133    0.5272    0.0000 C   0  0  0  0  0  0  0  0  0  0  0  0
    4.9261    2.6468    0.0000 O   0  0  0  0  0  0  0  0  0  0  0  0
  1  2  1  0
  2  3  1  0
  3  4  2  0
  4  5  1  0
  5  6  2  0
  6  7  1  0
  7  8  1  0
  8  9  1  0
  9 10  2  0
  9 11  1  0
  6 12  1  0
 12 13  1  0
 12 14  2  0
 14 15  1  0
 15 16  1  6
 15 17  1  0
 17 18  1  1
 17 19  1  0
 19 20  1  0
 19 21  1  0
 19 22  1  0
 14  3  1  0
M  END
>  <identifier>  (1351) 
CNP0080489.1

>  <canonical_smiles>  (1351) 
COC1=CC=C(CCC(=O)O)C(O)=C1[C@H](O)[C@H](O)C(C)(C)O

>  <standard_inchi>  (1351) 
InChI=1S/C15H22O7/c1-15(2,21)14(20)13(19)11-9(22-3)6-4-8(12(11)18)5-7-10(16)17/h4,6,13-14,18-21H,5,7H2,1-3H3,(H,16,17)/t13-,14-/m0/s1

>  <standard_inchi_key>  (1351) 
LXCPDWSODBKIRI-KBPBESRZSA-N

>  <name>  (1351) 
nan

>  <iupac_name>  (1351) 
3-[2-hydroxy-4-methoxy-3-[(1~{S},2~{S})-1,2,3-trihydroxy-3-methyl-butyl]phenyl]propanoic acid

>  <annotation_level>  (1351) 
4

>  <total_atom_count>  (1351) 
44

>  <heavy_atom_count>  (1351) 
22

>  <molecular_weight>  (1351) 
314.33

>  <exact_molecular_weight>  (1351) 
314.13655

>  <molecular_formula>  (1351) 
C15H22O7

>  <alogp>  (1351) 
0.58

>  <topological_polar_surface_area>  (1351) 
127.45

>  <rotatable_bond_count>  (1351) 
7

>  <hydrogen_bond_acceptors>  (1351) 
6

>  <hydrogen_bond_donors>  (1351) 
5

>  <hydrogen_bond_acceptors_lipinski>  (1351) 
6

>  <hydrogen_bond_donors_lipinski>  (1351) 
5

>  <lipinski_rule_of_five_violations>  (1351) 
0

>  <aromatic_rings_count>  (1351) 
1

>  <qed_drug_likeliness>  (1351) 
0.50

>  <formal_charge>  (1351) 
0

>  <fractioncsp3>  (1351) 
0.53

>  <number_of_minimal_rings>  (1351) 
1

>  <van_der_walls_volume>  (1351) 
nan

>  <contains_sugar>  (1351) 
False

>  <contains_ring_sugars>  (1351) 
False

>  <contains_linear_sugars>  (1351) 
False

>  <murcko_framework>  (1351) 
c1ccccc1

>  <np_likeness>  (1351) 
1.18

>  <chemical_class>  (1351) 
Phenylpropanoic acids

>  <chemical_sub_class>  (1351) 
Phenylpropanoic acids

>  <chemical_super_class>  (1351) 
Phenylpropanoids and polyketides

>  <direct_parent_classification>  (1351) 
Phenylpropanoic acids

>  <np_classifier_pathway>  (1351) 
Shikimates and Phenylpropanoids

>  <np_classifier_superclass>  (1351) 
nan

>  <np_classifier_class>  (1351) 
nan

>  <np_classifier_is_glycoside>  (1351) 
False

>  <organisms>  (1351) 
Hortia brasiliana

>  <collections>  (1351) 
Latin America dataset|NuBBEDB|WikiData Natural Products|ZINC NP

>  <dois>  (1351) 
10.1016/J.BSE.2012.03.005|10.1016/j.bse.2012.03.005

>  <synonyms>  (1351) 
erythro-2-hydroxy-4-methoxy-3-(123-trihydroxy-3-methylbutyl)benzenepropanoic acid

>  <cas>  (1351) 
nan

$$$$

     RDKit          2D

 24 24  0  0  0  0  0  0  0  0999 V2000
    3.1222   -3.4347    0.0000 C   0  0  0  0  0  0  0  0  0  0  0  0
    1.9392   -2.5125    0.0000 C   0  0  0  0  0  0  0  0  0  0  0  0
    0.6965   -3.3525    0.0000 C   0  0  0  0  0  0  0  0  0  0  0  0
   -0.8026   -3.3017    0.0000 C   0  0  0  0  0  0  0  0  0  0  0  0
   -1.9856   -2.3794    0.0000 C   0  0  0  0  0  0  0  0  0  0  0  0
   -2.4005   -0.9380    0.0000 C   0  0  0  0  0  0  0  0  0  0  0  0
   -3.8997   -0.8872    0.0000 C   0  0  0  0  0  0  0  0  0  0  0  0
   -4.6052    0.4365    0.0000 O   0  0  0  0  0  0  0  0  0  0  0  0
   -6.1044    0.4873    0.0000 C   0  0  0  0  0  0  0  0  0  0  0  0
   -6.8099    1.8110    0.0000 C   0  0  0  0  0  0  0  0  0  0  0  0
   -6.8979   -0.7855    0.0000 O   0  0  0  0  0  0  0  0  0  0  0  0
   -1.8889    0.4721    0.0000 C   0  0  0  0  0  0  0  0  0  0  0  0
   -0.6462    1.3122    0.0000 C   0  0  0  0  0  0  0  0  0  0  0  0
    0.8529    1.2613    0.0000 C   0  0  0  0  0  0  0  0  0  0  0  0
    1.3645    2.6714    0.0000 C   0  0  0  0  0  0  0  0  0  0  0  0
   -0.0456    3.1830    0.0000 C   0  0  0  0  0  0  0  0  0  0  0  0
    2.7745    2.1598    0.0000 C   0  0  0  0  0  0  0  0  0  0  0  0
    1.8761    4.0815    0.0000 O   0  0  0  0  0  0  0  0  0  0  0  0
    2.0359    0.3391    0.0000 C   0  0  0  0  0  0  0  0  0  0  0  0
    2.4508   -1.1024    0.0000 C   0  0  0  0  0  0  0  0  0  0  0  0
    3.9499   -1.1532    0.0000 O   0  0  0  0  0  0  0  0  0  0  0  0
    4.7435    0.1197    0.0000 C   0  0  0  0  0  0  0  0  0  0  0  0
    6.2426    0.0689    0.0000 C   0  0  0  0  0  0  0  0  0  0  0  0
    4.0379    1.4434    0.0000 O   0  0  0  0  0  0  0  0  0  0  0  0
  1  2  2  0
  2  3  1  0
  3  4  1  0
  4  5  1  0
  5  6  1  0
  6  7  1  0
  7  8  1  0
  8  9  1  0
  9 10  1  0
  9 11  2  0
  6 12  1  0
 12 13  1  0
 13 14  1  0
 14 15  1  6
 15 16  1  0
 15 17  1  0
 15 18  1  0
 14 19  1  0
 19 20  1  0
 20 21  1  0
 21 22  1  0
 22 23  1  0
 22 24  2  0
 20  2  1  0
M  END
>  <identifier>  (1352) 
CNP0080498.1

>  <canonical_smiles>  (1352) 
C=C1CCCC(COC(C)=O)CC[C@H](C(C)(C)O)CC1OC(C)=O

>  <standard_inchi>  (1352) 
InChI=1S/C19H32O5/c1-13-7-6-8-16(12-23-14(2)20)9-10-17(19(4,5)22)11-18(13)24-15(3)21/h16-18,22H,1,6-12H2,2-5H3/t16?,17-,18?/m0/s1

>  <standard_inchi_key>  (1352) 
LVNLZLPJBZFVFM-ADKAHSJRSA-N

>  <name>  (1352) 
nan

>  <iupac_name>  (1352) 
[(4~{S})-6-acetoxy-4-(1-hydroxy-1-methyl-ethyl)-7-methylene-cyclodecyl]methyl acetate

>  <annotation_level>  (1352) 
4

>  <total_atom_count>  (1352) 
56

>  <heavy_atom_count>  (1352) 
24

>  <molecular_weight>  (1352) 
340.46

>  <exact_molecular_weight>  (1352) 
340.22497

>  <molecular_formula>  (1352) 
C19H32O5

>  <alogp>  (1352) 
3.39

>  <topological_polar_surface_area>  (1352) 
72.83

>  <rotatable_bond_count>  (1352) 
4

>  <hydrogen_bond_acceptors>  (1352) 
5

>  <hydrogen_bond_donors>  (1352) 
1

>  <hydrogen_bond_acceptors_lipinski>  (1352) 
5

>  <hydrogen_bond_donors_lipinski>  (1352) 
1

>  <lipinski_rule_of_five_violations>  (1352) 
0

>  <aromatic_rings_count>  (1352) 
0

>  <qed_drug_likeliness>  (1352) 
0.63

>  <formal_charge>  (1352) 
0

>  <fractioncsp3>  (1352) 
0.79

>  <number_of_minimal_rings>  (1352) 
1

>  <van_der_walls_volume>  (1352) 
nan

>  <contains_sugar>  (1352) 
False

>  <contains_ring_sugars>  (1352) 
False

>  <contains_linear_sugars>  (1352) 
False

>  <murcko_framework>  (1352) 
C1CCCCCCCCC1

>  <np_likeness>  (1352) 
1.59

>  <chemical_class>  (1352) 
Prenol lipids

>  <chemical_sub_class>  (1352) 
Sesquiterpenoids

>  <chemical_super_class>  (1352) 
Lipids and lipid-like molecules

>  <direct_parent_classification>  (1352) 
Germacrane sesquiterpenoids

>  <np_classifier_pathway>  (1352) 
Terpenoids

>  <np_classifier_superclass>  (1352) 
Sesquiterpenoids

>  <np_classifier_class>  (1352) 
Germacrane sesquiterpenoids

>  <np_classifier_is_glycoside>  (1352) 
False

>  <organisms>  (1352) 
Trichilia claussenii

>  <collections>  (1352) 
Latin America dataset|NuBBEDB|WikiData Natural Products

>  <dois>  (1352) 
10.1590/S0103-50532002000300014

>  <synonyms>  (1352) 
Germacra-10(14)-en-915-diacetate-11-ol

>  <cas>  (1352) 
nan

$$$$

     RDKit          2D

 21 22  0  0  0  0  0  0  0  0999 V2000
    1.1894   -4.5091    0.0000 C   0  0  0  0  0  0  0  0  0  0  0  0
    1.8525   -3.1636    0.0000 O   0  0  0  0  0  0  0  0  0  0  0  0
    1.0187   -1.9167    0.0000 C   0  0  0  0  0  0  0  0  0  0  0  0
   -0.4780   -2.0153    0.0000 C   0  0  0  0  0  0  0  0  0  0  0  0
   -1.3118   -0.7683    0.0000 C   0  0  0  0  0  0  0  0  0  0  0  0
   -2.8085   -0.8669    0.0000 C   0  0  0  0  0  0  0  0  0  0  0  0
   -3.6423    0.3801    0.0000 C   0  0  0  0  0  0  0  0  0  0  0  0
   -5.1390    0.2815    0.0000 C   0  0  0  0  0  0  0  0  0  0  0  0
   -5.8021   -1.0640    0.0000 O   0  0  0  0  0  0  0  0  0  0  0  0
   -5.9728    1.5285    0.0000 O   0  0  0  0  0  0  0  0  0  0  0  0
   -0.6488    0.5772    0.0000 C   0  0  0  0  0  0  0  0  0  0  0  0
   -1.4825    1.8242    0.0000 O   0  0  0  0  0  0  0  0  0  0  0  0
   -0.8195    3.1697    0.0000 C   0  0  0  0  0  0  0  0  0  0  0  0
    0.8480    0.6758    0.0000 C   0  0  0  0  0  0  0  0  0  0  0  0
    1.6817   -0.5712    0.0000 C   0  0  0  0  0  0  0  0  0  0  0  0
    3.1785   -0.4726    0.0000 O   0  0  0  0  0  0  0  0  0  0  0  0
    3.8415    0.8729    0.0000 C   0  0  0  0  0  0  0  0  0  0  0  0
    4.9247    1.9105    0.0000 C   0  0  0  0  0  0  0  0  0  0  0  0
    5.0514   -0.0137    0.0000 C   0  0  0  0  0  0  0  0  0  0  0  0
    3.0078    2.1199    0.0000 C   0  0  0  0  0  0  0  0  0  0  0  0
    1.5110    2.0213    0.0000 C   0  0  0  0  0  0  0  0  0  0  0  0
  1  2  1  0
  2  3  1  0
  3  4  2  0
  4  5  1  0
  5  6  1  0
  6  7  1  0
  7  8  1  0
  8  9  2  0
  8 10  1  0
  5 11  2  0
 11 12  1  0
 12 13  1  0
 11 14  1  0
 14 15  2  0
 15 16  1  0
 16 17  1  0
 17 18  1  0
 17 19  1  0
 17 20  1  0
 20 21  2  0
 15  3  1  0
 21 14  1  0
M  END
>  <identifier>  (1353) 
CNP0080548.0

>  <canonical_smiles>  (1353) 
COC1=CC(CCC(=O)O)=C(OC)C2=C1OC(C)(C)C=C2

>  <standard_inchi>  (1353) 
InChI=1S/C16H20O5/c1-16(2)8-7-11-14(20-4)10(5-6-13(17)18)9-12(19-3)15(11)21-16/h7-9H,5-6H2,1-4H3,(H,17,18)

>  <standard_inchi_key>  (1353) 
UZGOITOPDCINDU-UHFFFAOYSA-N

>  <name>  (1353) 
nan

>  <iupac_name>  (1353) 
3-(5,8-dimethoxy-2,2-dimethyl-chromen-6-yl)propanoic acid

>  <annotation_level>  (1353) 
4

>  <total_atom_count>  (1353) 
41

>  <heavy_atom_count>  (1353) 
21

>  <molecular_weight>  (1353) 
292.33

>  <exact_molecular_weight>  (1353) 
292.13107

>  <molecular_formula>  (1353) 
C16H20O5

>  <alogp>  (1353) 
2.91

>  <topological_polar_surface_area>  (1353) 
64.99

>  <rotatable_bond_count>  (1353) 
5

>  <hydrogen_bond_acceptors>  (1353) 
4

>  <hydrogen_bond_donors>  (1353) 
1

>  <hydrogen_bond_acceptors_lipinski>  (1353) 
4

>  <hydrogen_bond_donors_lipinski>  (1353) 
1

>  <lipinski_rule_of_five_violations>  (1353) 
0

>  <aromatic_rings_count>  (1353) 
1

>  <qed_drug_likeliness>  (1353) 
0.90

>  <formal_charge>  (1353) 
0

>  <fractioncsp3>  (1353) 
0.44

>  <number_of_minimal_rings>  (1353) 
2

>  <van_der_walls_volume>  (1353) 
nan

>  <contains_sugar>  (1353) 
False

>  <contains_ring_sugars>  (1353) 
False

>  <contains_linear_sugars>  (1353) 
False

>  <murcko_framework>  (1353) 
O1c2ccccc2C=CC1

>  <np_likeness>  (1353) 
1.98

>  <chemical_class>  (1353) 
Benzopyrans

>  <chemical_sub_class>  (1353) 
1-benzopyrans

>  <chemical_super_class>  (1353) 
Organoheterocyclic compounds

>  <direct_parent_classification>  (1353) 
2,2-dimethyl-1-benzopyrans

>  <np_classifier_pathway>  (1353) 
Terpenoids

>  <np_classifier_superclass>  (1353) 
nan

>  <np_classifier_class>  (1353) 
nan

>  <np_classifier_is_glycoside>  (1353) 
False

>  <organisms>  (1353) 
Hortia brasiliana|Hortia oreadica

>  <collections>  (1353) 
Latin America dataset|NuBBEDB|WikiData Natural Products|ZINC NP

>  <dois>  (1353) 
10.1016/J.BSE.2012.03.005|10.1016/j.bse.2012.03.005

>  <synonyms>  (1353) 
58-dimethoxy-22-dimethyl-2H-1-benzopyran-6-propanoic acid

>  <cas>  (1353) 
nan

$$$$

     RDKit          2D

 27 30  0  0  0  0  0  0  0  0999 V2000
    3.3943   -3.5574    0.0000 C   0  0  0  0  0  0  0  0  0  0  0  0
    3.3582   -2.0579    0.0000 C   0  0  0  0  0  0  0  0  0  0  0  0
    2.0415   -1.3393    0.0000 C   0  0  0  0  0  0  0  0  0  0  0  0
    2.0054    0.1602    0.0000 C   0  0  0  0  0  0  0  0  0  0  0  0
    3.3900   -0.4167    0.0000 C   0  0  0  0  0  0  0  0  0  0  0  0
    4.5819    0.4939    0.0000 C   0  0  0  0  0  0  0  0  0  0  0  0
    5.9665   -0.0830    0.0000 O   0  0  0  0  0  0  0  0  0  0  0  0
    6.1592   -1.5706    0.0000 C   0  0  0  0  0  0  0  0  0  0  0  0
    4.3893    1.9815    0.0000 C   0  0  0  0  0  0  0  0  0  0  0  0
    5.5812    2.8921    0.0000 O   0  0  0  0  0  0  0  0  0  0  0  0
    3.0047    2.5584    0.0000 C   0  0  0  0  0  0  0  0  0  0  0  0
    1.8127    1.6478    0.0000 C   0  0  0  0  0  0  0  0  0  0  0  0
    0.3384    1.9243    0.0000 O   0  0  0  0  0  0  0  0  0  0  0  0
   -0.3801    0.6076    0.0000 C   0  0  0  0  0  0  0  0  0  0  0  0
   -1.8677    0.4149    0.0000 C   0  0  0  0  0  0  0  0  0  0  0  0
   -2.4446   -0.9697    0.0000 C   0  0  0  0  0  0  0  0  0  0  0  0
   -3.9322   -1.1623    0.0000 C   0  0  0  0  0  0  0  0  0  0  0  0
   -4.5092   -2.5469    0.0000 O   0  0  0  0  0  0  0  0  0  0  0  0
   -3.5985   -3.7389    0.0000 C   0  0  0  0  0  0  0  0  0  0  0  0
   -4.8428    0.0296    0.0000 C   0  0  0  0  0  0  0  0  0  0  0  0
   -6.3380    0.1505    0.0000 O   0  0  0  0  0  0  0  0  0  0  0  0
   -6.6851    1.6098    0.0000 C   0  0  0  0  0  0  0  0  0  0  0  0
   -5.4044    2.3908    0.0000 O   0  0  0  0  0  0  0  0  0  0  0  0
   -4.2659    1.4142    0.0000 C   0  0  0  0  0  0  0  0  0  0  0  0
   -2.7783    1.6069    0.0000 C   0  0  0  0  0  0  0  0  0  0  0  0
    0.6501   -0.4827    0.0000 C   0  0  0  0  0  0  0  0  0  0  0  0
    0.3737   -1.9570    0.0000 C   0  0  0  0  0  0  0  0  0  0  0  0
  1  2  2  0
  2  3  1  0
  4  3  1  6
  4  5  1  0
  5  6  2  0
  6  7  1  0
  7  8  1  0
  6  9  1  0
  9 10  2  0
  9 11  1  0
 11 12  2  0
 12 13  1  0
 13 14  1  0
 14 15  1  1
 15 16  2  0
 16 17  1  0
 17 18  1  0
 18 19  1  0
 17 20  2  0
 20 21  1  0
 21 22  1  0
 22 23  1  0
 23 24  1  0
 24 25  2  0
 14 26  1  0
 26 27  1  1
 12  4  1  0
 25 15  1  0
 26  4  1  0
 24 20  1  0
M  END
>  <identifier>  (1354) 
CNP0383772.2

>  <canonical_smiles>  (1354) 
C=CC[C@@]12C=C(OC)C(=O)C=C1O[C@H](C1=CC(OC)=C3OCOC3=C1)[C@@H]2C

>  <standard_inchi>  (1354) 
InChI=1S/C21H22O6/c1-5-6-21-10-17(24-4)14(22)9-18(21)27-19(12(21)2)13-7-15(23-3)20-16(8-13)25-11-26-20/h5,7-10,12,19H,1,6,11H2,2-4H3/t12-,19-,21-/m0/s1

>  <standard_inchi_key>  (1354) 
URBCBHTUEUNACZ-DRAMBROLSA-N

>  <name>  (1354) 
nan

>  <iupac_name>  (1354) 
(2~{S},3~{R},3~{a}~{R})-3~{a}-allyl-5-methoxy-2-(7-methoxy-1,3-benzodioxol-5-yl)-3-methyl-2,3-dihydrobenzofuran-6-one

>  <annotation_level>  (1354) 
4

>  <total_atom_count>  (1354) 
49

>  <heavy_atom_count>  (1354) 
27

>  <molecular_weight>  (1354) 
370.4

>  <exact_molecular_weight>  (1354) 
370.14164

>  <molecular_formula>  (1354) 
C21H22O6

>  <alogp>  (1354) 
3.69

>  <topological_polar_surface_area>  (1354) 
63.22

>  <rotatable_bond_count>  (1354) 
5

>  <hydrogen_bond_acceptors>  (1354) 
6

>  <hydrogen_bond_donors>  (1354) 
0

>  <hydrogen_bond_acceptors_lipinski>  (1354) 
6

>  <hydrogen_bond_donors_lipinski>  (1354) 
0

>  <lipinski_rule_of_five_violations>  (1354) 
0

>  <aromatic_rings_count>  (1354) 
1

>  <qed_drug_likeliness>  (1354) 
0.74

>  <formal_charge>  (1354) 
0

>  <fractioncsp3>  (1354) 
0.38

>  <number_of_minimal_rings>  (1354) 
4

>  <van_der_walls_volume>  (1354) 
nan

>  <contains_sugar>  (1354) 
False

>  <contains_ring_sugars>  (1354) 
False

>  <contains_linear_sugars>  (1354) 
False

>  <murcko_framework>  (1354) 
O1c2ccc(cc2OC1)C3OC4=CCC=CC4C3

>  <np_likeness>  (1354) 
2.36

>  <chemical_class>  (1354) 
2-arylbenzofuran flavonoids

>  <chemical_sub_class>  (1354) 
2-arylbenzofuran flavonoids

>  <chemical_super_class>  (1354) 
Phenylpropanoids and polyketides

>  <direct_parent_classification>  (1354) 
2-arylbenzofuran flavonoids

>  <np_classifier_pathway>  (1354) 
Shikimates and Phenylpropanoids

>  <np_classifier_superclass>  (1354) 
Lignans

>  <np_classifier_class>  (1354) 
Neolignans

>  <np_classifier_is_glycoside>  (1354) 
False

>  <organisms>  (1354) 
Aniba|Aniba sp.

>  <collections>  (1354) 
Latin America dataset|NuBBEDB|WikiData Natural Products|ZINC NP

>  <dois>  (1354) 
10.1016/0031-9422(75)85358-1|10.1016/S0031-9422(00)89244-4

>  <synonyms>  (1354) 
(2R3S3aS)-3a-allyl-5-methoxy-2-(3-methoxy-45-methylenedioxyphenyl)-3-methyl-233a6-tetrahydro-6-oxobenzofuran

>  <cas>  (1354) 
nan

$$$$

     RDKit          2D

 23 23  0  0  0  0  0  0  0  0999 V2000
  -12.1620    0.9598    0.0000 C   0  0  0  0  0  0  0  0  0  0  0  0
  -10.9215    0.1165    0.0000 C   0  0  0  0  0  0  0  0  0  0  0  0
  -11.0315   -1.3794    0.0000 O   0  0  0  0  0  0  0  0  0  0  0  0
   -9.5709    0.7692    0.0000 C   0  0  0  0  0  0  0  0  0  0  0  0
   -8.3304   -0.0740    0.0000 C   0  0  0  0  0  0  0  0  0  0  0  0
   -6.9799    0.5787    0.0000 C   0  0  0  0  0  0  0  0  0  0  0  0
   -5.7393   -0.2646    0.0000 C   0  0  0  0  0  0  0  0  0  0  0  0
   -4.3888    0.3881    0.0000 C   0  0  0  0  0  0  0  0  0  0  0  0
   -3.1483   -0.4551    0.0000 C   0  0  0  0  0  0  0  0  0  0  0  0
   -1.7977    0.1976    0.0000 C   0  0  0  0  0  0  0  0  0  0  0  0
   -0.5572   -0.6457    0.0000 C   0  0  0  0  0  0  0  0  0  0  0  0
    0.7934    0.0070    0.0000 C   0  0  0  0  0  0  0  0  0  0  0  0
    2.0339   -0.8362    0.0000 C   0  0  0  0  0  0  0  0  0  0  0  0
    3.3845   -0.1835    0.0000 C   0  0  0  0  0  0  0  0  0  0  0  0
    4.6250   -1.0268    0.0000 C   0  0  0  0  0  0  0  0  0  0  0  0
    5.9755   -0.3740    0.0000 C   0  0  0  0  0  0  0  0  0  0  0  0
    6.0855    1.1219    0.0000 C   0  0  0  0  0  0  0  0  0  0  0  0
    7.4361    1.7746    0.0000 C   0  0  0  0  0  0  0  0  0  0  0  0
    8.6766    0.9314    0.0000 C   0  0  0  0  0  0  0  0  0  0  0  0
   10.0272    1.5841    0.0000 O   0  0  0  0  0  0  0  0  0  0  0  0
    8.5666   -0.5646    0.0000 C   0  0  0  0  0  0  0  0  0  0  0  0
    9.8071   -1.4078    0.0000 C   0  0  0  0  0  0  0  0  0  0  0  0
    7.2161   -1.2173    0.0000 N   0  0  0  0  0  0  0  0  0  0  0  0
  1  2  1  0
  2  3  1  0
  2  4  1  0
  4  5  1  0
  5  6  1  0
  6  7  1  0
  7  8  1  0
  8  9  1  0
  9 10  1  0
 10 11  1  0
 11 12  1  0
 12 13  1  0
 13 14  1  0
 14 15  1  0
 16 15  1  1
 16 17  1  0
 17 18  1  0
 18 19  1  0
 19 20  1  6
 19 21  1  0
 21 22  1  1
 21 23  1  0
 23 16  1  0
M  END
>  <identifier>  (1355) 
CNP0192758.2

>  <canonical_smiles>  (1355) 
CC(O)CCCCCCCCCCCC[C@H]1CC[C@H](O)[C@@H](C)N1

>  <standard_inchi>  (1355) 
InChI=1S/C20H41NO2/c1-17(22)13-11-9-7-5-3-4-6-8-10-12-14-19-15-16-20(23)18(2)21-19/h17-23H,3-16H2,1-2H3/t17?,18-,19+,20+/m1/s1

>  <standard_inchi_key>  (1355) 
POUWXWGBWYDTMW-HNNZKPGWSA-N

>  <name>  (1355) 
nan

>  <iupac_name>  (1355) 
(2~{R},3~{S},6~{S})-6-(13-hydroxytetradecyl)-2-methyl-piperidin-3-ol

>  <annotation_level>  (1355) 
4

>  <total_atom_count>  (1355) 
64

>  <heavy_atom_count>  (1355) 
23

>  <molecular_weight>  (1355) 
327.55

>  <exact_molecular_weight>  (1355) 
327.31373

>  <molecular_formula>  (1355) 
C20H41NO2

>  <alogp>  (1355) 
4.55

>  <topological_polar_surface_area>  (1355) 
52.49

>  <rotatable_bond_count>  (1355) 
13

>  <hydrogen_bond_acceptors>  (1355) 
3

>  <hydrogen_bond_donors>  (1355) 
3

>  <hydrogen_bond_acceptors_lipinski>  (1355) 
3

>  <hydrogen_bond_donors_lipinski>  (1355) 
3

>  <lipinski_rule_of_five_violations>  (1355) 
0

>  <aromatic_rings_count>  (1355) 
0

>  <qed_drug_likeliness>  (1355) 
0.43

>  <formal_charge>  (1355) 
0

>  <fractioncsp3>  (1355) 
1.00

>  <number_of_minimal_rings>  (1355) 
1

>  <van_der_walls_volume>  (1355) 
nan

>  <contains_sugar>  (1355) 
False

>  <contains_ring_sugars>  (1355) 
False

>  <contains_linear_sugars>  (1355) 
False

>  <murcko_framework>  (1355) 
N1CCCCC1

>  <np_likeness>  (1355) 
1.98

>  <chemical_class>  (1355) 
nan

>  <chemical_sub_class>  (1355) 
Alkaloids and derivatives

>  <chemical_super_class>  (1355) 
Alkaloids and derivatives

>  <direct_parent_classification>  (1355) 
Alkaloids and derivatives

>  <np_classifier_pathway>  (1355) 
Alkaloids

>  <np_classifier_superclass>  (1355) 
Lysine alkaloids

>  <np_classifier_class>  (1355) 
Piperidine alkaloids

>  <np_classifier_is_glycoside>  (1355) 
False

>  <organisms>  (1355) 
Senna spectabilis

>  <collections>  (1355) 
Latin America dataset|NuBBEDB|WikiData Natural Products

>  <dois>  (1355) 
10.1248/CPB.56.407|10.1248/cpb.56.407

>  <synonyms>  (1355) 
2-(R)-Methyl-6-(S )-(tetradecyl-13'-hydroxy)-piperidin-3-(S)-ol

>  <cas>  (1355) 
nan

$$$$

     RDKit          2D

 24 27  0  0  0  0  0  0  0  0999 V2000
    4.1756   -2.6927    0.0000 C   0  0  0  0  0  0  0  0  0  0  0  0
    3.7747   -1.2472    0.0000 O   0  0  0  0  0  0  0  0  0  0  0  0
    2.3225   -0.8717    0.0000 C   0  0  0  0  0  0  0  0  0  0  0  0
    1.2711   -1.9415    0.0000 C   0  0  0  0  0  0  0  0  0  0  0  0
   -0.1811   -1.5660    0.0000 C   0  0  0  0  0  0  0  0  0  0  0  0
   -0.5820   -0.1205    0.0000 C   0  0  0  0  0  0  0  0  0  0  0  0
    0.4694    0.9494    0.0000 C   0  0  0  0  0  0  0  0  0  0  0  0
    1.9216    0.5738    0.0000 C   0  0  0  0  0  0  0  0  0  0  0  0
    2.9730    1.6437    0.0000 O   0  0  0  0  0  0  0  0  0  0  0  0
    4.4252    1.2681    0.0000 C   0  0  0  0  0  0  0  0  0  0  0  0
   -2.0342    0.2550    0.0000 C   0  0  0  0  0  0  0  0  0  0  0  0
   -0.8589    0.8105    0.0000 C   0  0  0  0  0  0  0  0  0  0  0  0
   -0.4290    1.4852    0.0000 C   0  0  0  0  0  0  0  0  0  0  0  0
    1.7689    1.3893    0.0000 O   0  0  0  0  0  0  0  0  0  0  0  0
    2.5748    2.6544    0.0000 C   0  0  0  0  0  0  0  0  0  0  0  0
   -0.7984    2.1948    0.0000 C   0  0  0  0  0  0  0  0  0  0  0  0
   -1.5977    2.2297    0.0000 C   0  0  0  0  0  0  0  0  0  0  0  0
   -2.7268    1.5855    0.0000 C   0  0  0  0  0  0  0  0  0  0  0  0
   -4.2063    1.3380    0.0000 C   0  0  0  0  0  0  0  0  0  0  0  0
   -4.4280   -0.1456    0.0000 C   0  0  0  0  0  0  0  0  0  0  0  0
   -3.0856   -0.8148    0.0000 N   0  0  0  0  0  0  0  0  0  0  0  0
   -2.6847   -2.2603    0.0000 C   0  0  0  0  0  0  0  0  0  0  0  0
   -1.2325   -2.6359    0.0000 C   0  0  0  0  0  0  0  0  0  0  0  0
   -0.8316   -4.0813    0.0000 O   0  0  0  0  0  0  0  0  0  0  0  0
  1  2  1  0
  2  3  1  0
  3  4  2  0
  4  5  1  0
  5  6  2  0
  6  7  1  0
  7  8  2  0
  8  9  1  0
  9 10  1  0
  6 11  1  0
 11 12  1  6
 12 13  1  0
 13 14  1  6
 14 15  1  0
 13 16  1  0
 16 17  2  0
 17 18  1  0
 18 19  2  0
 19 20  1  0
 20 21  1  0
 21 22  1  0
 22 23  1  0
 23 24  1  6
  8  3  1  0
 18 11  1  0
 23  5  1  0
 21 11  1  0
M  END
>  <identifier>  (1356) 
CNP0186861.1

>  <canonical_smiles>  (1356) 
COC1=CC2=C(C=C1OC)[C@]13C[C@@H](OC)C=CC1=CCN3C[C@H]2O

>  <standard_inchi>  (1356) 
InChI=1S/C19H23NO4/c1-22-13-5-4-12-6-7-20-11-16(21)14-8-17(23-2)18(24-3)9-15(14)19(12,20)10-13/h4-6,8-9,13,16,21H,7,10-11H2,1-3H3/t13-,16+,19-/m0/s1

>  <standard_inchi_key>  (1356) 
QWWCVLZNFFVFTR-CRFBAAHOSA-N

>  <name>  (1356) 
(+)-alpha-Hydroxyerysotrine

>  <iupac_name>  (1356) 
(2~{R},9~{S},13~{b}~{S})-2,11,12-trimethoxy-2,6,8,9-tetrahydro-1~{H}-indolo[7~{a},1-a]isoquinolin-9-ol

>  <annotation_level>  (1356) 
5

>  <total_atom_count>  (1356) 
47

>  <heavy_atom_count>  (1356) 
24

>  <molecular_weight>  (1356) 
329.4

>  <exact_molecular_weight>  (1356) 
329.16271

>  <molecular_formula>  (1356) 
C19H23NO4

>  <alogp>  (1356) 
2.16

>  <topological_polar_surface_area>  (1356) 
51.16

>  <rotatable_bond_count>  (1356) 
3

>  <hydrogen_bond_acceptors>  (1356) 
5

>  <hydrogen_bond_donors>  (1356) 
1

>  <hydrogen_bond_acceptors_lipinski>  (1356) 
5

>  <hydrogen_bond_donors_lipinski>  (1356) 
1

>  <lipinski_rule_of_five_violations>  (1356) 
0

>  <aromatic_rings_count>  (1356) 
1

>  <qed_drug_likeliness>  (1356) 
0.92

>  <formal_charge>  (1356) 
0

>  <fractioncsp3>  (1356) 
0.47

>  <number_of_minimal_rings>  (1356) 
4

>  <van_der_walls_volume>  (1356) 
299.14

>  <contains_sugar>  (1356) 
False

>  <contains_ring_sugars>  (1356) 
False

>  <contains_linear_sugars>  (1356) 
False

>  <murcko_framework>  (1356) 
c1ccc2c(c1)CCN3CC=C4C=CCCC423

>  <np_likeness>  (1356) 
2.67

>  <chemical_class>  (1356) 
Erythrina alkaloids

>  <chemical_sub_class>  (1356) 
Erythrinanes

>  <chemical_super_class>  (1356) 
Alkaloids and derivatives

>  <direct_parent_classification>  (1356) 
Erythrinanes

>  <np_classifier_pathway>  (1356) 
Alkaloids

>  <np_classifier_superclass>  (1356) 
Lysine alkaloids

>  <np_classifier_class>  (1356) 
Indolizidine alkaloids

>  <np_classifier_is_glycoside>  (1356) 
False

>  <organisms>  (1356) 
Erythrina lysistemon|Erythrina mulungu

>  <collections>  (1356) 
ChemSpider NPs|KNApSaCK|Latin America dataset|NPASS|NuBBEDB|Super Natural II|WikiData Natural Products

>  <dois>  (1356) 
10.1016/J.PHYTOCHEM.2004.04.029|10.1021/NP060254J|10.1021/np060254j

>  <synonyms>  (1356) 
(+)-R-hydroxyerysotrine|(+)-\u221a\u00e9\u00ac\u00b1-Hydroxyerysotrine|(+)-alpha-Hydroxyerysotrine|(2R,9S,13Bs)-2,11,12-trimethoxy-2,6,8,9-tetrahydro-1H-indolo[7a,1-a]isoquinolin-9-ol|CHEMBL217996|SCHEMBL14071718

>  <cas>  (1356) 
nan

$$$$

     RDKit          2D

 21 23  0  0  0  0  0  0  0  0999 V2000
   -5.9179   -2.4666    0.0000 C   0  0  0  0  0  0  0  0  0  0  0  0
   -4.8417   -1.4218    0.0000 C   0  0  0  0  0  0  0  0  0  0  0  0
   -5.2084    0.0327    0.0000 C   0  0  0  0  0  0  0  0  0  0  0  0
   -3.3987   -1.8315    0.0000 C   0  0  0  0  0  0  0  0  0  0  0  0
   -2.3224   -0.7866    0.0000 C   0  0  0  0  0  0  0  0  0  0  0  0
   -2.6891    0.6678    0.0000 O   0  0  0  0  0  0  0  0  0  0  0  0
   -0.8794   -1.1963    0.0000 O   0  0  0  0  0  0  0  0  0  0  0  0
    0.1968   -0.1515    0.0000 C   0  0  0  0  0  0  0  0  0  0  0  0
   -0.1699    1.3030    0.0000 C   0  0  0  0  0  0  0  0  0  0  0  0
   -1.4962    2.0037    0.0000 C   0  0  0  0  0  0  0  0  0  0  0  0
   -1.2396    3.4816    0.0000 C   0  0  0  0  0  0  0  0  0  0  0  0
    0.2453    3.6943    0.0000 O   0  0  0  0  0  0  0  0  0  0  0  0
    0.9064    2.3478    0.0000 C   0  0  0  0  0  0  0  0  0  0  0  0
    2.3494    1.9382    0.0000 C   0  0  0  0  0  0  0  0  0  0  0  0
    2.7161    0.4837    0.0000 C   0  0  0  0  0  0  0  0  0  0  0  0
    1.6398   -0.5611    0.0000 C   0  0  0  0  0  0  0  0  0  0  0  0
    2.0065   -2.0156    0.0000 C   0  0  0  0  0  0  0  0  0  0  0  0
    3.4495   -2.4253    0.0000 C   0  0  0  0  0  0  0  0  0  0  0  0
    4.5258   -1.3805    0.0000 C   0  0  0  0  0  0  0  0  0  0  0  0
    5.9687   -1.7901    0.0000 O   0  0  0  0  0  0  0  0  0  0  0  0
    4.1590    0.0740    0.0000 O   0  0  0  0  0  0  0  0  0  0  0  0
  1  2  1  0
  2  3  1  0
  2  4  1  0
  4  5  1  0
  5  6  2  0
  5  7  1  0
  7  8  1  0
  8  9  2  0
  9 10  1  0
 10 11  2  0
 11 12  1  0
 12 13  1  0
 13 14  2  0
 14 15  1  0
 15 16  2  0
 16 17  1  0
 17 18  2  0
 18 19  1  0
 19 20  2  0
 19 21  1  0
 16  8  1  0
 13  9  1  0
 21 15  1  0
M  END
>  <identifier>  (1357) 
CNP0080593.0

>  <canonical_smiles>  (1357) 
CC(C)CC(=O)OC1=C2C=COC2=CC2=C1C=CC(=O)O2

>  <standard_inchi>  (1357) 
InChI=1S/C16H14O5/c1-9(2)7-15(18)21-16-10-3-4-14(17)20-13(10)8-12-11(16)5-6-19-12/h3-6,8-9H,7H2,1-2H3

>  <standard_inchi_key>  (1357) 
FTDQQNHIDVTUHQ-UHFFFAOYSA-N

>  <name>  (1357) 
nan

>  <iupac_name>  (1357) 
(7-oxofuro[3,2-g]chromen-4-yl) 3-methylbutanoate

>  <annotation_level>  (1357) 
4

>  <total_atom_count>  (1357) 
35

>  <heavy_atom_count>  (1357) 
21

>  <molecular_weight>  (1357) 
286.28

>  <exact_molecular_weight>  (1357) 
286.08412

>  <molecular_formula>  (1357) 
C16H14O5

>  <alogp>  (1357) 
3.49

>  <topological_polar_surface_area>  (1357) 
69.65

>  <rotatable_bond_count>  (1357) 
3

>  <hydrogen_bond_acceptors>  (1357) 
5

>  <hydrogen_bond_donors>  (1357) 
0

>  <hydrogen_bond_acceptors_lipinski>  (1357) 
5

>  <hydrogen_bond_donors_lipinski>  (1357) 
0

>  <lipinski_rule_of_five_violations>  (1357) 
0

>  <aromatic_rings_count>  (1357) 
3

>  <qed_drug_likeliness>  (1357) 
0.42

>  <formal_charge>  (1357) 
0

>  <fractioncsp3>  (1357) 
0.25

>  <number_of_minimal_rings>  (1357) 
3

>  <van_der_walls_volume>  (1357) 
nan

>  <contains_sugar>  (1357) 
False

>  <contains_ring_sugars>  (1357) 
False

>  <contains_linear_sugars>  (1357) 
False

>  <murcko_framework>  (1357) 
o1ccc2cc3C=CCOc3cc12

>  <np_likeness>  (1357) 
0.83

>  <chemical_class>  (1357) 
Coumarins and derivatives

>  <chemical_sub_class>  (1357) 
Furanocoumarins

>  <chemical_super_class>  (1357) 
Phenylpropanoids and polyketides

>  <direct_parent_classification>  (1357) 
Psoralens

>  <np_classifier_pathway>  (1357) 
Shikimates and Phenylpropanoids

>  <np_classifier_superclass>  (1357) 
Coumarins

>  <np_classifier_class>  (1357) 
Furocoumarins

>  <np_classifier_is_glycoside>  (1357) 
False

>  <organisms>  (1357) 
Euxylophora paraensis

>  <collections>  (1357) 
Latin America dataset|NuBBEDB|WikiData Natural Products|ZINC NP

>  <dois>  (1357) 
10.1590/S0100-40422012001100004

>  <synonyms>  (1357) 
Isooxypeucedanin

>  <cas>  (1357) 
nan

$$$$

     RDKit          2D

 41 45  0  0  0  0  0  0  0  0999 V2000
    0.1131   -4.1539    0.0000 O   0  0  0  0  0  0  0  0  0  0  0  0
   -0.6092   -2.8393    0.0000 C   0  0  0  0  0  0  0  0  0  0  0  0
   -2.1088   -2.8074    0.0000 C   0  0  0  0  0  0  0  0  0  0  0  0
   -2.8311   -1.4928    0.0000 C   0  0  0  0  0  0  0  0  0  0  0  0
   -4.3308   -1.4609    0.0000 C   0  0  0  0  0  0  0  0  0  0  0  0
   -5.0530   -0.1463    0.0000 C   0  0  0  0  0  0  0  0  0  0  0  0
   -6.5527   -0.1144    0.0000 C   0  0  0  0  0  0  0  0  0  0  0  0
   -7.3301   -1.3973    0.0000 C   0  0  0  0  0  0  0  0  0  0  0  0
   -8.8297   -1.3654    0.0000 O   0  0  0  0  0  0  0  0  0  0  0  0
   -6.6078   -2.7119    0.0000 C   0  0  0  0  0  0  0  0  0  0  0  0
   -7.3852   -3.9948    0.0000 O   0  0  0  0  0  0  0  0  0  0  0  0
   -5.1082   -2.7438    0.0000 C   0  0  0  0  0  0  0  0  0  0  0  0
   -2.0537   -0.2099    0.0000 O   0  0  0  0  0  0  0  0  0  0  0  0
   -0.5540   -0.2418    0.0000 C   0  0  0  0  0  0  0  0  0  0  0  0
    0.2234    1.0411    0.0000 C   0  0  0  0  0  0  0  0  0  0  0  0
   -0.4989    2.3557    0.0000 C   0  0  0  0  0  0  0  0  0  0  0  0
    0.2785    3.6386    0.0000 O   0  0  0  0  0  0  0  0  0  0  0  0
   -0.4438    4.9532    0.0000 C   0  0  0  0  0  0  0  0  0  0  0  0
   -1.9434    4.9850    0.0000 C   0  0  0  0  0  0  0  0  0  0  0  0
   -2.6657    6.2997    0.0000 O   0  0  0  0  0  0  0  0  0  0  0  0
   -2.7208    3.7022    0.0000 C   0  0  0  0  0  0  0  0  0  0  0  0
   -4.2205    3.7340    0.0000 O   0  0  0  0  0  0  0  0  0  0  0  0
   -1.9986    2.3876    0.0000 C   0  0  0  0  0  0  0  0  0  0  0  0
   -2.7760    1.1047    0.0000 O   0  0  0  0  0  0  0  0  0  0  0  0
    1.7230    1.0092    0.0000 C   0  0  0  0  0  0  0  0  0  0  0  0
    2.5004    2.2921    0.0000 O   0  0  0  0  0  0  0  0  0  0  0  0
    2.4453   -0.3054    0.0000 C   0  0  0  0  0  0  0  0  0  0  0  0
    3.9450   -0.3373    0.0000 C   0  0  0  0  0  0  0  0  0  0  0  0
    4.6672   -1.6519    0.0000 O   0  0  0  0  0  0  0  0  0  0  0  0
    6.1669   -1.6838    0.0000 C   0  0  0  0  0  0  0  0  0  0  0  0
    6.8891   -2.9984    0.0000 C   0  0  0  0  0  0  0  0  0  0  0  0
    6.1117   -4.2812    0.0000 O   0  0  0  0  0  0  0  0  0  0  0  0
    6.9443   -0.4009    0.0000 C   0  0  0  0  0  0  0  0  0  0  0  0
    8.4439   -0.4328    0.0000 O   0  0  0  0  0  0  0  0  0  0  0  0
    6.2220    0.9137    0.0000 C   0  0  0  0  0  0  0  0  0  0  0  0
    6.9994    2.1966    0.0000 O   0  0  0  0  0  0  0  0  0  0  0  0
    4.7223    0.9456    0.0000 C   0  0  0  0  0  0  0  0  0  0  0  0
    4.0001    2.2602    0.0000 O   0  0  0  0  0  0  0  0  0  0  0  0
    1.6679   -1.5883    0.0000 C   0  0  0  0  0  0  0  0  0  0  0  0
    2.3902   -2.9029    0.0000 O   0  0  0  0  0  0  0  0  0  0  0  0
    0.1682   -1.5564    0.0000 C   0  0  0  0  0  0  0  0  0  0  0  0
  1  2  2  0
  2  3  1  0
  3  4  2  0
  4  5  1  0
  5  6  2  0
  6  7  1  0
  7  8  2  0
  8  9  1  0
  8 10  1  0
 10 11  1  0
 10 12  2  0
  4 13  1  0
 13 14  1  0
 14 15  2  0
 16 15  1  1
 16 17  1  0
 17 18  1  0
 18 19  1  0
 19 20  1  1
 19 21  1  0
 21 22  1  1
 21 23  1  0
 23 24  1  6
 15 25  1  0
 25 26  1  0
 25 27  2  0
 28 27  1  1
 28 29  1  0
 29 30  1  0
 30 31  1  1
 31 32  1  0
 30 33  1  0
 33 34  1  6
 33 35  1  0
 35 36  1  1
 35 37  1  0
 37 38  1  6
 27 39  1  0
 39 40  1  0
 39 41  2  0
 41  2  1  0
 12  5  1  0
 41 14  1  0
 23 16  1  0
 37 28  1  0
M  END
>  <identifier>  (1358) 
CNP0231800.2

>  <canonical_smiles>  (1358) 
O=C1C=C(C2=CC=C(O)C(O)=C2)OC2=C([C@@H]3OC[C@H](O)[C@H](O)[C@H]3O)C(O)=C([C@@H]3O[C@H](CO)[C@@H](O)[C@H](O)[C@H]3O)C(O)=C12

>  <standard_inchi>  (1358) 
InChI=1S/C26H28O15/c27-5-13-18(33)21(36)23(38)26(41-13)15-19(34)14-10(30)4-12(7-1-2-8(28)9(29)3-7)40-24(14)16(20(15)35)25-22(37)17(32)11(31)6-39-25/h1-4,11,13,17-18,21-23,25-29,31-38H,5-6H2/t11-,13+,17-,18+,21-,22+,23+,25-,26-/m0/s1

>  <standard_inchi_key>  (1358) 
XBGYTZHKGMCEGE-VYUBKLCTSA-N

>  <name>  (1358) 
Carlinoside

>  <iupac_name>  (1358) 
2-(3,4-dihydroxyphenyl)-5,7-dihydroxy-6-[(2~{S},3~{R},4~{R},5~{S},6~{R})-3,4,5-trihydroxy-6-(hydroxymethyl)tetrahydropyran-2-yl]-8-[(2~{S},3~{R},4~{S},5~{S})-3,4,5-trihydroxytetrahydropyran-2-yl]chromen-4-one

>  <annotation_level>  (1358) 
5

>  <total_atom_count>  (1358) 
69

>  <heavy_atom_count>  (1358) 
41

>  <molecular_weight>  (1358) 
580.5

>  <exact_molecular_weight>  (1358) 
580.14282

>  <molecular_formula>  (1358) 
C26H28O15

>  <alogp>  (1358) 
-2.05

>  <topological_polar_surface_area>  (1358) 
271.20

>  <rotatable_bond_count>  (1358) 
4

>  <hydrogen_bond_acceptors>  (1358) 
15

>  <hydrogen_bond_donors>  (1358) 
11

>  <hydrogen_bond_acceptors_lipinski>  (1358) 
15

>  <hydrogen_bond_donors_lipinski>  (1358) 
11

>  <lipinski_rule_of_five_violations>  (1358) 
3

>  <aromatic_rings_count>  (1358) 
3

>  <qed_drug_likeliness>  (1358) 
0.15

>  <formal_charge>  (1358) 
0

>  <fractioncsp3>  (1358) 
0.42

>  <number_of_minimal_rings>  (1358) 
5

>  <van_der_walls_volume>  (1358) 
463.35

>  <contains_sugar>  (1358) 
True

>  <contains_ring_sugars>  (1358) 
True

>  <contains_linear_sugars>  (1358) 
False

>  <murcko_framework>  (1358) 
O1C(=CCc2cc(cc(c12)C3OCCCC3)C4OCCCC4)c5ccccc5

>  <np_likeness>  (1358) 
2.02

>  <chemical_class>  (1358) 
Flavonoids

>  <chemical_sub_class>  (1358) 
Flavonoid glycosides

>  <chemical_super_class>  (1358) 
Phenylpropanoids and polyketides

>  <direct_parent_classification>  (1358) 
Flavonoid 8-C-glycosides

>  <np_classifier_pathway>  (1358) 
Shikimates and Phenylpropanoids

>  <np_classifier_superclass>  (1358) 
Flavonoids

>  <np_classifier_class>  (1358) 
Flavones

>  <np_classifier_is_glycoside>  (1358) 
False

>  <organisms>  (1358) 
Capsicum annuum var. annuum|Cymbopogon citratus|Desmodium styracifolium|Hordeum Vulgare|Hordeum vulgare|Lespedeza capitata|Oryza Sativa|Oryza sativa|Passiflora sexflora|Spergularia rubra|Vitex polygama|soybean

>  <collections>  (1358) 
Australian natural products|CMAUP (cCollective molecular activities of useful plants)|ChEBI NPs|FooDB|Latin America dataset|NPASS|NuBBEDB|Super Natural II|VietHerb|WikiData Natural Products|ZINC NP

>  <dois>  (1358) 
10.1002/PS.1278|10.1002/ps.1278|10.1002/rcm.4910|10.1007/BF00989555|10.1016/0031-9422(82)83197-X|10.1016/J.JEP.2007.09.020|10.1016/J.JPBA.2014.09.027|10.1016/S0031-9422(00)82629-1|10.1016/S0031-9422(00)83183-0|10.1016/S0031-9422(03)00282-6|10.1016/j.indcrop.2015.12.008|10.1021/JF9910640|10.1021/NP50024A029

>  <synonyms>  (1358) 
2-(3,4-dihydroxyphenyl)-5,7-dihydroxy-6-[(2S,3R,4R,5S,6R)-3,4,5-trihydroxy-6-(hydroxymethyl)oxan-2-yl]-8-[(2S,3R,4S,5S)-3,4,5-trihydroxyoxan-2-yl]chromen-4-one|4H-1-Benzopyran-4-one, 8-alpha-L-arbinopyranosyl-2-(3,4-dihydroxyphenyl)-6-beta-D-gucopyranosyl-5,7-dihydroxy-|59952-97-5|6-C-beta-D-glucosyl-8-C-alpha-L-arabinopyranosylluteolin|8-C-alpha-L-arabinopyranosyl-6-C-beta-D-glucosylluteolin|AC1L9D32|AKOS040760051|C10026|CHEBI:3421|CS-0089403|Carlinoside|DTXSID60208666|HY-125129|Luteolin 5|Luteolin 6-C-beta-D-glucopyranoside-8-C-alpha-L-arabinopyranoside|Q27106068|SCHEMBL4742839|SureCN4742839|luteolin 6-C-glucoside-8-C-arabinoside

>  <cas>  (1358) 
59952-97-5

$$$$

     RDKit          2D

 15 16  0  0  0  0  0  0  0  0999 V2000
    3.3690   -1.9373    0.0000 C   0  0  0  0  0  0  0  0  0  0  0  0
    3.1386   -0.4551    0.0000 C   0  0  0  0  0  0  0  0  0  0  0  0
    4.3069    0.4856    0.0000 C   0  0  0  0  0  0  0  0  0  0  0  0
    1.7397    0.0864    0.0000 C   0  0  0  0  0  0  0  0  0  0  0  0
    1.6206    1.5817    0.0000 C   0  0  0  0  0  0  0  0  0  0  0  0
    0.3774    2.4208    0.0000 C   0  0  0  0  0  0  0  0  0  0  0  0
   -1.0539    1.9720    0.0000 C   0  0  0  0  0  0  0  0  0  0  0  0
   -2.0793    3.0668    0.0000 C   0  0  0  0  0  0  0  0  0  0  0  0
   -1.5954    0.5732    0.0000 C   0  0  0  0  0  0  0  0  0  0  0  0
   -0.8394   -0.7223    0.0000 C   0  0  0  0  0  0  0  0  0  0  0  0
    0.6449   -0.9390    0.0000 C   0  0  0  0  0  0  0  0  0  0  0  0
   -1.8379   -1.8417    0.0000 C   0  0  0  0  0  0  0  0  0  0  0  0
   -1.5191   -3.3075    0.0000 C   0  0  0  0  0  0  0  0  0  0  0  0
   -3.2110   -1.2380    0.0000 C   0  0  0  0  0  0  0  0  0  0  0  0
   -3.0612    0.2545    0.0000 C   0  0  0  0  0  0  0  0  0  0  0  0
  1  2  1  0
  2  3  1  0
  2  4  2  0
  4  5  1  0
  5  6  1  0
  6  7  1  0
  7  8  1  6
  7  9  1  0
  9 10  2  0
 10 11  1  0
 10 12  1  0
 12 13  1  1
 12 14  1  0
 14 15  1  0
 11  4  1  0
 15  9  1  0
M  END
>  <identifier>  (1359) 
CNP0383816.4

>  <canonical_smiles>  (1359) 
CC(C)=C1CC[C@@H](C)C2=C(C1)[C@@H](C)CC2

>  <standard_inchi>  (1359) 
InChI=1S/C15H24/c1-10(2)13-7-5-11(3)14-8-6-12(4)15(14)9-13/h11-12H,5-9H2,1-4H3/t11-,12+/m1/s1

>  <standard_inchi_key>  (1359) 
GIBQERSGRNPMEH-NEPJUHHUSA-N

>  <name>  (1359) 
GIBQERSGRNPMEH-NEPJUHHUSA-N

>  <iupac_name>  (1359) 
(1~{S},4~{R})-7-isopropylidene-1,4-dimethyl-2,3,4,5,6,8-hexahydro-1~{H}-azulene

>  <annotation_level>  (1359) 
5

>  <total_atom_count>  (1359) 
39

>  <heavy_atom_count>  (1359) 
15

>  <molecular_weight>  (1359) 
204.36

>  <exact_molecular_weight>  (1359) 
204.1878

>  <molecular_formula>  (1359) 
C15H24

>  <alogp>  (1359) 
4.87

>  <topological_polar_surface_area>  (1359) 
0.00

>  <rotatable_bond_count>  (1359) 
0

>  <hydrogen_bond_acceptors>  (1359) 
0

>  <hydrogen_bond_donors>  (1359) 
0

>  <hydrogen_bond_acceptors_lipinski>  (1359) 
0

>  <hydrogen_bond_donors_lipinski>  (1359) 
0

>  <lipinski_rule_of_five_violations>  (1359) 
0

>  <aromatic_rings_count>  (1359) 
0

>  <qed_drug_likeliness>  (1359) 
0.49

>  <formal_charge>  (1359) 
0

>  <fractioncsp3>  (1359) 
0.73

>  <number_of_minimal_rings>  (1359) 
2

>  <van_der_walls_volume>  (1359) 
nan

>  <contains_sugar>  (1359) 
False

>  <contains_ring_sugars>  (1359) 
False

>  <contains_linear_sugars>  (1359) 
False

>  <murcko_framework>  (1359) 
C12=C(CCC1)CCCCC2

>  <np_likeness>  (1359) 
1.79

>  <chemical_class>  (1359) 
Prenol lipids

>  <chemical_sub_class>  (1359) 
Sesquiterpenoids

>  <chemical_super_class>  (1359) 
Lipids and lipid-like molecules

>  <direct_parent_classification>  (1359) 
Sesquiterpenoids

>  <np_classifier_pathway>  (1359) 
Terpenoids

>  <np_classifier_superclass>  (1359) 
Sesquiterpenoids

>  <np_classifier_class>  (1359) 
Guaiane sesquiterpenoids

>  <np_classifier_is_glycoside>  (1359) 
False

>  <organisms>  (1359) 
Acorus calamus|Citrus|Cyathocline purpurea|Kumquat|Murraya paniculata|Ocotea austinii|Toona ciliata|Zingiber officinale

>  <collections>  (1359) 
Latin America dataset|NAPRORE-CR|NuBBEDB|WikiData Natural Products

>  <dois>  (1359) 
10.1016/J.JEP.2012.11.045|10.1016/S0896-8446(02)00013-X|10.1080/10412905.2003.9698598|10.1080/10412905.2007.9699946|10.1590/S0103-50532000000600012|10.3390/MEDICINES3010007|10.3390/MOLECULES21060814

>  <synonyms>  (1359) 
trans-\u221a\u00e9\u00ac\u2264-guaiene

>  <cas>  (1359) 
nan

$$$$

     RDKit          2D

 24 26  0  0  0  0  0  0  0  0999 V2000
    5.1581   -0.0715    0.0000 C   0  0  0  0  0  0  0  0  0  0  0  0
    3.6939    0.2541    0.0000 C   0  0  0  0  0  0  0  0  0  0  0  0
    3.0966    1.6300    0.0000 C   0  0  0  0  0  0  0  0  0  0  0  0
    1.6034    1.4872    0.0000 C   0  0  0  0  0  0  0  0  0  0  0  0
    2.4021    2.7569    0.0000 O   0  0  0  0  0  0  0  0  0  0  0  0
    0.4068    2.3916    0.0000 C   0  0  0  0  0  0  0  0  0  0  0  0
    0.9374    3.7946    0.0000 O   0  0  0  0  0  0  0  0  0  0  0  0
   -1.0889    2.5055    0.0000 C   0  0  0  0  0  0  0  0  0  0  0  0
   -1.4010    3.9727    0.0000 C   0  0  0  0  0  0  0  0  0  0  0  0
   -2.4087    1.7927    0.0000 C   0  0  0  0  0  0  0  0  0  0  0  0
   -3.1336    0.4795    0.0000 C   0  0  0  0  0  0  0  0  0  0  0  0
   -3.0335   -1.0172    0.0000 C   0  0  0  0  0  0  0  0  0  0  0  0
   -2.1401   -2.2221    0.0000 C   0  0  0  0  0  0  0  0  0  0  0  0
   -0.7371   -2.7528    0.0000 C   0  0  0  0  0  0  0  0  0  0  0  0
    0.7301   -2.4406    0.0000 C   0  0  0  0  0  0  0  0  0  0  0  0
    0.5452   -3.9292    0.0000 C   0  0  0  0  0  0  0  0  0  0  0  0
    2.0763   -3.1023    0.0000 O   0  0  0  0  0  0  0  0  0  0  0  0
    1.7956   -1.3849    0.0000 C   0  0  0  0  0  0  0  0  0  0  0  0
    1.2779    0.0229    0.0000 C   0  0  0  0  0  0  0  0  0  0  0  0
    2.5698   -0.7392    0.0000 C   0  0  0  0  0  0  0  0  0  0  0  0
    2.7127   -2.2324    0.0000 O   0  0  0  0  0  0  0  0  0  0  0  0
   -4.3797   -0.3556    0.0000 C   0  0  0  0  0  0  0  0  0  0  0  0
   -5.2650   -1.5664    0.0000 C   0  0  0  0  0  0  0  0  0  0  0  0
   -5.4184    0.7266    0.0000 C   0  0  0  0  0  0  0  0  0  0  0  0
  1  2  1  0
  2  3  2  0
  3  4  1  0
  4  5  1  6
  4  6  1  0
  6  7  2  0
  6  8  1  0
  8  9  1  1
  8 10  1  0
 11 10  1  6
 11 12  1  0
 12 13  1  6
 13 14  1  0
 14 15  1  0
 15 16  1  6
 15 17  1  0
 15 18  1  0
 18 19  2  0
 19 20  1  0
 20 21  2  0
 12 22  1  0
 22 23  1  0
 22 24  1  0
 20  2  1  0
 19  4  1  0
 22 11  1  0
M  END
>  <identifier>  (1360) 
CNP0102980.3

>  <canonical_smiles>  (1360) 
CC1=C[C@]2(O)C(=O)[C@H](C)C[C@@H]3[C@H](CC[C@](C)(O)/C=C/2C1=O)C3(C)C

>  <standard_inchi>  (1360) 
InChI=1S/C20H28O4/c1-11-8-14-13(18(14,3)4)6-7-19(5,23)10-15-16(21)12(2)9-20(15,24)17(11)22/h9-11,13-14,23-24H,6-8H2,1-5H3/b15-10+/t11-,13+,14-,19+,20-/m1/s1

>  <standard_inchi_key>  (1360) 
FBVWSXCVYVNYII-YCAXMLINSA-N

>  <name>  (1360) 
nan

>  <iupac_name>  (1360) 
(1~{R},3~{R},5~{R},7~{S},10~{S},11~{Z})-1,10-dihydroxy-3,6,6,10,14-pentamethyl-tricyclo[10.3.0.0^{5,7}]pentadeca-11,14-diene-2,13-dione

>  <annotation_level>  (1360) 
4

>  <total_atom_count>  (1360) 
52

>  <heavy_atom_count>  (1360) 
24

>  <molecular_weight>  (1360) 
332.44

>  <exact_molecular_weight>  (1360) 
332.19876

>  <molecular_formula>  (1360) 
C20H28O4

>  <alogp>  (1360) 
2.59

>  <topological_polar_surface_area>  (1360) 
74.60

>  <rotatable_bond_count>  (1360) 
0

>  <hydrogen_bond_acceptors>  (1360) 
4

>  <hydrogen_bond_donors>  (1360) 
2

>  <hydrogen_bond_acceptors_lipinski>  (1360) 
4

>  <hydrogen_bond_donors_lipinski>  (1360) 
2

>  <lipinski_rule_of_five_violations>  (1360) 
0

>  <aromatic_rings_count>  (1360) 
0

>  <qed_drug_likeliness>  (1360) 
0.71

>  <formal_charge>  (1360) 
0

>  <fractioncsp3>  (1360) 
0.70

>  <number_of_minimal_rings>  (1360) 
3

>  <van_der_walls_volume>  (1360) 
nan

>  <contains_sugar>  (1360) 
False

>  <contains_ring_sugars>  (1360) 
False

>  <contains_linear_sugars>  (1360) 
False

>  <murcko_framework>  (1360) 
C1=CC2C(=CCCCC3CC3CCC2)C1

>  <np_likeness>  (1360) 
2.50

>  <chemical_class>  (1360) 
Prenol lipids

>  <chemical_sub_class>  (1360) 
Diterpenoids

>  <chemical_super_class>  (1360) 
Lipids and lipid-like molecules

>  <direct_parent_classification>  (1360) 
Diterpenoids

>  <np_classifier_pathway>  (1360) 
Terpenoids

>  <np_classifier_superclass>  (1360) 
Diterpenoids

>  <np_classifier_class>  (1360) 
Lathyrane diterpenoids

>  <np_classifier_is_glycoside>  (1360) 
False

>  <organisms>  (1360) 
Euphorbiaceae|Jatropha weddelliana

>  <collections>  (1360) 
Latin America dataset|NPACT|NuBBEDB|WikiData Natural Products|ZINC NP

>  <dois>  (1360) 
10.1590/S0103-50532001000200022

>  <synonyms>  (1360) 
4E-Jatrogrossidentadion

>  <cas>  (1360) 
nan

$$$$

     RDKit          2D

 20 20  0  0  0  0  0  0  0  0999 V2000
    5.0465    1.2990    0.0000 C   0  0  0  0  0  0  0  0  0  0  0  0
    4.2965    0.0000    0.0000 C   0  0  0  0  0  0  0  0  0  0  0  0
    5.0465   -1.2990    0.0000 C   0  0  0  0  0  0  0  0  0  0  0  0
    2.7965    0.0000    0.0000 C   0  0  0  0  0  0  0  0  0  0  0  0
    2.4627   -1.4624    0.0000 C   0  0  0  0  0  0  0  0  0  0  0  0
    1.5275   -2.6351    0.0000 C   0  0  0  0  0  0  0  0  0  0  0  0
    0.0275   -2.6351    0.0000 C   0  0  0  0  0  0  0  0  0  0  0  0
   -0.3063   -1.1727    0.0000 C   0  0  0  0  0  0  0  0  0  0  0  0
   -1.3240   -3.2860    0.0000 C   0  0  0  0  0  0  0  0  0  0  0  0
   -2.6754   -2.6351    0.0000 C   0  0  0  0  0  0  0  0  0  0  0  0
   -3.6106   -1.4624    0.0000 C   0  0  0  0  0  0  0  0  0  0  0  0
   -3.9444    0.0000    0.0000 C   0  0  0  0  0  0  0  0  0  0  0  0
   -5.4444    0.0000    0.0000 C   0  0  0  0  0  0  0  0  0  0  0  0
   -3.6106    1.4624    0.0000 C   0  0  0  0  0  0  0  0  0  0  0  0
   -2.6754    2.6351    0.0000 C   0  0  0  0  0  0  0  0  0  0  0  0
   -1.3240    3.2860    0.0000 C   0  0  0  0  0  0  0  0  0  0  0  0
    0.0275    2.6351    0.0000 C   0  0  0  0  0  0  0  0  0  0  0  0
   -0.3063    1.1727    0.0000 C   0  0  0  0  0  0  0  0  0  0  0  0
    1.5275    2.6351    0.0000 C   0  0  0  0  0  0  0  0  0  0  0  0
    2.4627    1.4624    0.0000 C   0  0  0  0  0  0  0  0  0  0  0  0
  1  2  2  0
  2  3  1  0
  4  2  1  1
  4  5  1  0
  5  6  1  0
  6  7  2  0
  7  8  1  0
  7  9  1  0
  9 10  1  0
 10 11  1  0
 11 12  2  0
 12 13  1  0
 12 14  1  0
 14 15  1  0
 15 16  1  0
 16 17  2  0
 17 18  1  0
 17 19  1  0
 19 20  1  0
 20  4  1  0
M  END
>  <identifier>  (1361) 
CNP0236740.1

>  <canonical_smiles>  (1361) 
C=C(C)[C@H]1C/C=C(\C)CC/C=C(/C)CC/C=C(\C)CC1

>  <standard_inchi>  (1361) 
InChI=1S/C20H32/c1-16(2)20-14-12-18(4)10-6-8-17(3)9-7-11-19(5)13-15-20/h8,11-12,20H,1,6-7,9-10,13-15H2,2-5H3/b17-8-,18-12+,19-11+/t20-/m0/s1

>  <standard_inchi_key>  (1361) 
VWSPQDDPRITBAM-VHXHRSTNSA-N

>  <name>  (1361) 
nan

>  <iupac_name>  (1361) 
(1~{E},5~{Z},9~{E},12~{R})-12-isopropenyl-1,5,9-trimethyl-cyclotetradeca-1,5,9-triene

>  <annotation_level>  (1361) 
4

>  <total_atom_count>  (1361) 
52

>  <heavy_atom_count>  (1361) 
20

>  <molecular_weight>  (1361) 
272.48

>  <exact_molecular_weight>  (1361) 
272.2504

>  <molecular_formula>  (1361) 
C20H32

>  <alogp>  (1361) 
6.76

>  <topological_polar_surface_area>  (1361) 
0.00

>  <rotatable_bond_count>  (1361) 
1

>  <hydrogen_bond_acceptors>  (1361) 
0

>  <hydrogen_bond_donors>  (1361) 
0

>  <hydrogen_bond_acceptors_lipinski>  (1361) 
0

>  <hydrogen_bond_donors_lipinski>  (1361) 
0

>  <lipinski_rule_of_five_violations>  (1361) 
1

>  <aromatic_rings_count>  (1361) 
0

>  <qed_drug_likeliness>  (1361) 
0.46

>  <formal_charge>  (1361) 
0

>  <fractioncsp3>  (1361) 
0.60

>  <number_of_minimal_rings>  (1361) 
1

>  <van_der_walls_volume>  (1361) 
308.66

>  <contains_sugar>  (1361) 
False

>  <contains_ring_sugars>  (1361) 
False

>  <contains_linear_sugars>  (1361) 
False

>  <murcko_framework>  (1361) 
C1=CCCC=CCCCCC=CCC1

>  <np_likeness>  (1361) 
1.66

>  <chemical_class>  (1361) 
Prenol lipids

>  <chemical_sub_class>  (1361) 
Diterpenoids

>  <chemical_super_class>  (1361) 
Lipids and lipid-like molecules

>  <direct_parent_classification>  (1361) 
Cembrane diterpenoids

>  <np_classifier_pathway>  (1361) 
Terpenoids

>  <np_classifier_superclass>  (1361) 
Diterpenoids

>  <np_classifier_class>  (1361) 
Cembrane diterpenoids

>  <np_classifier_is_glycoside>  (1361) 
False

>  <organisms>  (1361) 
Alligator sinensis|Cedrela odorata|Garcinia paucinervis|Litophyton brassicum|Nephthea brassica|Picea koraiensis|Picea obovata

>  <collections>  (1361) 
CMAUP (cCollective molecular activities of useful plants)|ChEBI NPs|KNApSaCK|Latin America dataset|NPASS|NPEdia|NuBBEDB|Super Natural II|WikiData Natural Products

>  <dois>  (1361) 
10.1016/J.BMC.2010.06.014|10.1016/j.bmc.2010.06.014|10.1021/NP990212D|10.1021/np970129v|10.1021/np990212d|10.1590/S0103-50532000000600012

>  <synonyms>  (1361) 
Cembrene A|Neocembrene

>  <cas>  (1361) 
nan

$$$$

     RDKit          2D

 23 23  0  0  0  0  0  0  0  0999 V2000
  -12.1620    0.9598    0.0000 C   0  0  0  0  0  0  0  0  0  0  0  0
  -10.9215    0.1165    0.0000 C   0  0  0  0  0  0  0  0  0  0  0  0
  -11.0315   -1.3794    0.0000 O   0  0  0  0  0  0  0  0  0  0  0  0
   -9.5709    0.7692    0.0000 C   0  0  0  0  0  0  0  0  0  0  0  0
   -8.3304   -0.0740    0.0000 C   0  0  0  0  0  0  0  0  0  0  0  0
   -6.9799    0.5787    0.0000 C   0  0  0  0  0  0  0  0  0  0  0  0
   -5.7393   -0.2646    0.0000 C   0  0  0  0  0  0  0  0  0  0  0  0
   -4.3888    0.3881    0.0000 C   0  0  0  0  0  0  0  0  0  0  0  0
   -3.1483   -0.4551    0.0000 C   0  0  0  0  0  0  0  0  0  0  0  0
   -1.7977    0.1976    0.0000 C   0  0  0  0  0  0  0  0  0  0  0  0
   -0.5572   -0.6457    0.0000 C   0  0  0  0  0  0  0  0  0  0  0  0
    0.7934    0.0070    0.0000 C   0  0  0  0  0  0  0  0  0  0  0  0
    2.0339   -0.8362    0.0000 C   0  0  0  0  0  0  0  0  0  0  0  0
    3.3845   -0.1835    0.0000 C   0  0  0  0  0  0  0  0  0  0  0  0
    4.6250   -1.0268    0.0000 C   0  0  0  0  0  0  0  0  0  0  0  0
    5.9755   -0.3740    0.0000 C   0  0  0  0  0  0  0  0  0  0  0  0
    6.0855    1.1219    0.0000 C   0  0  0  0  0  0  0  0  0  0  0  0
    7.4361    1.7746    0.0000 C   0  0  0  0  0  0  0  0  0  0  0  0
    8.6766    0.9314    0.0000 C   0  0  0  0  0  0  0  0  0  0  0  0
   10.0272    1.5841    0.0000 O   0  0  0  0  0  0  0  0  0  0  0  0
    8.5666   -0.5646    0.0000 C   0  0  0  0  0  0  0  0  0  0  0  0
    9.8071   -1.4078    0.0000 C   0  0  0  0  0  0  0  0  0  0  0  0
    7.2161   -1.2173    0.0000 N   0  0  0  0  0  0  0  0  0  0  0  0
  1  2  1  0
  2  3  2  0
  2  4  1  0
  4  5  1  0
  5  6  1  0
  6  7  1  0
  7  8  1  0
  8  9  1  0
  9 10  1  0
 10 11  1  0
 11 12  1  0
 12 13  1  0
 13 14  1  0
 14 15  1  0
 16 15  1  1
 16 17  1  0
 17 18  1  0
 18 19  1  0
 19 20  1  1
 19 21  1  0
 21 22  1  1
 21 23  1  0
 23 16  1  0
M  END
>  <identifier>  (1362) 
CNP0265234.2

>  <canonical_smiles>  (1362) 
CC(=O)CCCCCCCCCCCC[C@H]1CC[C@@H](O)[C@@H](C)N1

>  <standard_inchi>  (1362) 
InChI=1S/C20H39NO2/c1-17(22)13-11-9-7-5-3-4-6-8-10-12-14-19-15-16-20(23)18(2)21-19/h18-21,23H,3-16H2,1-2H3/t18-,19+,20-/m1/s1

>  <standard_inchi_key>  (1362) 
SMOKZFNZPZHGMX-HSALFYBXSA-N

>  <name>  (1362) 
(-)-spectaline

>  <iupac_name>  (1362) 
14-[(2~{S},5~{R},6~{R})-5-hydroxy-6-methyl-2-piperidyl]tetradecan-2-one

>  <annotation_level>  (1362) 
5

>  <total_atom_count>  (1362) 
62

>  <heavy_atom_count>  (1362) 
23

>  <molecular_weight>  (1362) 
325.54

>  <exact_molecular_weight>  (1362) 
325.29808

>  <molecular_formula>  (1362) 
C20H39NO2

>  <alogp>  (1362) 
4.76

>  <topological_polar_surface_area>  (1362) 
49.33

>  <rotatable_bond_count>  (1362) 
13

>  <hydrogen_bond_acceptors>  (1362) 
3

>  <hydrogen_bond_donors>  (1362) 
2

>  <hydrogen_bond_acceptors_lipinski>  (1362) 
3

>  <hydrogen_bond_donors_lipinski>  (1362) 
2

>  <lipinski_rule_of_five_violations>  (1362) 
0

>  <aromatic_rings_count>  (1362) 
0

>  <qed_drug_likeliness>  (1362) 
0.48

>  <formal_charge>  (1362) 
0

>  <fractioncsp3>  (1362) 
0.95

>  <number_of_minimal_rings>  (1362) 
1

>  <van_der_walls_volume>  (1362) 
356.67

>  <contains_sugar>  (1362) 
False

>  <contains_ring_sugars>  (1362) 
False

>  <contains_linear_sugars>  (1362) 
False

>  <murcko_framework>  (1362) 
N1CCCCC1

>  <np_likeness>  (1362) 
1.78

>  <chemical_class>  (1362) 
nan

>  <chemical_sub_class>  (1362) 
Alkaloids and derivatives

>  <chemical_super_class>  (1362) 
Alkaloids and derivatives

>  <direct_parent_classification>  (1362) 
Alkaloids and derivatives

>  <np_classifier_pathway>  (1362) 
Alkaloids

>  <np_classifier_superclass>  (1362) 
Lysine alkaloids

>  <np_classifier_class>  (1362) 
Piperidine alkaloids

>  <np_classifier_is_glycoside>  (1362) 
False

>  <organisms>  (1362) 
Cassia leptophylla|Cassia spectabilis|Senna spectabilis|cassia spectabilis

>  <collections>  (1362) 
ChemSpider NPs|KNApSaCK|Latin America dataset|NPASS|NuBBEDB|Super Natural II|TCMDB-Taiwan (Traditional Chinese Medicine database)|WikiData Natural Products|ZINC NP

>  <dois>  (1362) 
10.1016/0040-4020(95)00254-6|10.1016/J.BMC.2005.04.030|10.1016/j.bmc.2018.10.032|10.1021/NP0303963|10.1021/np0303963|10.1021/np070312g|10.1248/CPB.56.407|10.1248/cpb.56.407

>  <synonyms>  (1362) 
(-)-Spectaline|CHEMBL249464

>  <cas>  (1362) 
nan

$$$$

     RDKit          2D

 24 27  0  0  0  0  0  0  0  0999 V2000
    4.1756   -2.6927    0.0000 C   0  0  0  0  0  0  0  0  0  0  0  0
    3.7747   -1.2472    0.0000 O   0  0  0  0  0  0  0  0  0  0  0  0
    2.3225   -0.8717    0.0000 C   0  0  0  0  0  0  0  0  0  0  0  0
    1.2711   -1.9415    0.0000 C   0  0  0  0  0  0  0  0  0  0  0  0
   -0.1811   -1.5660    0.0000 C   0  0  0  0  0  0  0  0  0  0  0  0
   -0.5820   -0.1205    0.0000 C   0  0  0  0  0  0  0  0  0  0  0  0
    0.4694    0.9494    0.0000 C   0  0  0  0  0  0  0  0  0  0  0  0
    1.9216    0.5738    0.0000 C   0  0  0  0  0  0  0  0  0  0  0  0
    2.9730    1.6437    0.0000 O   0  0  0  0  0  0  0  0  0  0  0  0
    4.4252    1.2681    0.0000 C   0  0  0  0  0  0  0  0  0  0  0  0
   -2.0342    0.2550    0.0000 C   0  0  0  0  0  0  0  0  0  0  0  0
   -0.8589    0.8105    0.0000 C   0  0  0  0  0  0  0  0  0  0  0  0
   -0.4290    1.4852    0.0000 C   0  0  0  0  0  0  0  0  0  0  0  0
    1.7689    1.3893    0.0000 O   0  0  0  0  0  0  0  0  0  0  0  0
    2.5748    2.6544    0.0000 C   0  0  0  0  0  0  0  0  0  0  0  0
   -0.7984    2.1948    0.0000 C   0  0  0  0  0  0  0  0  0  0  0  0
   -1.5977    2.2297    0.0000 C   0  0  0  0  0  0  0  0  0  0  0  0
   -2.7268    1.5855    0.0000 C   0  0  0  0  0  0  0  0  0  0  0  0
   -4.2063    1.3380    0.0000 C   0  0  0  0  0  0  0  0  0  0  0  0
   -4.4280   -0.1456    0.0000 C   0  0  0  0  0  0  0  0  0  0  0  0
   -3.0856   -0.8148    0.0000 N   0  0  0  0  0  0  0  0  0  0  0  0
   -2.6847   -2.2603    0.0000 C   0  0  0  0  0  0  0  0  0  0  0  0
   -1.2325   -2.6359    0.0000 C   0  0  0  0  0  0  0  0  0  0  0  0
   -0.8316   -4.0813    0.0000 O   0  0  0  0  0  0  0  0  0  0  0  0
  1  2  1  0
  2  3  1  0
  3  4  2  0
  4  5  1  0
  5  6  2  0
  6  7  1  0
  7  8  2  0
  8  9  1  0
  9 10  1  0
  6 11  1  0
 11 12  1  6
 12 13  1  0
 13 14  1  6
 14 15  1  0
 13 16  1  0
 16 17  2  0
 17 18  1  0
 18 19  2  0
 19 20  1  0
 20 21  1  0
 21 22  1  0
 22 23  1  0
 23 24  1  1
  8  3  1  0
 18 11  1  0
 23  5  1  0
 21 11  1  0
M  END
>  <identifier>  (1363) 
CNP0186861.2

>  <canonical_smiles>  (1363) 
COC1=CC2=C(C=C1OC)[C@]13C[C@@H](OC)C=CC1=CCN3C[C@@H]2O

>  <standard_inchi>  (1363) 
InChI=1S/C19H23NO4/c1-22-13-5-4-12-6-7-20-11-16(21)14-8-17(23-2)18(24-3)9-15(14)19(12,20)10-13/h4-6,8-9,13,16,21H,7,10-11H2,1-3H3/t13-,16-,19-/m0/s1

>  <standard_inchi_key>  (1363) 
QWWCVLZNFFVFTR-AXHNFQJDSA-N

>  <name>  (1363) 
Erythrartine

>  <iupac_name>  (1363) 
(2~{R},9~{R},13~{b}~{S})-2,11,12-trimethoxy-2,6,8,9-tetrahydro-1~{H}-indolo[7~{a},1-a]isoquinolin-9-ol

>  <annotation_level>  (1363) 
5

>  <total_atom_count>  (1363) 
47

>  <heavy_atom_count>  (1363) 
24

>  <molecular_weight>  (1363) 
329.4

>  <exact_molecular_weight>  (1363) 
329.16271

>  <molecular_formula>  (1363) 
C19H23NO4

>  <alogp>  (1363) 
2.16

>  <topological_polar_surface_area>  (1363) 
51.16

>  <rotatable_bond_count>  (1363) 
3

>  <hydrogen_bond_acceptors>  (1363) 
5

>  <hydrogen_bond_donors>  (1363) 
1

>  <hydrogen_bond_acceptors_lipinski>  (1363) 
5

>  <hydrogen_bond_donors_lipinski>  (1363) 
1

>  <lipinski_rule_of_five_violations>  (1363) 
0

>  <aromatic_rings_count>  (1363) 
1

>  <qed_drug_likeliness>  (1363) 
0.92

>  <formal_charge>  (1363) 
0

>  <fractioncsp3>  (1363) 
0.47

>  <number_of_minimal_rings>  (1363) 
4

>  <van_der_walls_volume>  (1363) 
301.31

>  <contains_sugar>  (1363) 
False

>  <contains_ring_sugars>  (1363) 
False

>  <contains_linear_sugars>  (1363) 
False

>  <murcko_framework>  (1363) 
c1ccc2c(c1)CCN3CC=C4C=CCCC423

>  <np_likeness>  (1363) 
2.67

>  <chemical_class>  (1363) 
Erythrina alkaloids

>  <chemical_sub_class>  (1363) 
Erythrinanes

>  <chemical_super_class>  (1363) 
Alkaloids and derivatives

>  <direct_parent_classification>  (1363) 
Erythrinanes

>  <np_classifier_pathway>  (1363) 
Alkaloids

>  <np_classifier_superclass>  (1363) 
Lysine alkaloids

>  <np_classifier_class>  (1363) 
Indolizidine alkaloids

>  <np_classifier_is_glycoside>  (1363) 
False

>  <organisms>  (1363) 
Erythrina Variegata|Erythrina crista-galli L.|Erythrina lysistemon|Erythrina mulungu|Erythrina poeppigiana|Erythrina variegata|Erythrina × bidwillii

>  <collections>  (1363) 
KNApSaCK|Latin America dataset|NuBBEDB|Super Natural II|TIPdb (database of Taiwan indigenous plants)|TPPT (Toxic Plants–PhytoToxins)|VietHerb|WikiData Natural Products|ZINC NP

>  <dois>  (1363) 
10.1002/biuz.19840140514|10.1002/food.19880321030|10.1016/0031-9422(91)83084-X|10.1016/J.PHYTOCHEM.2004.04.029|10.1139/V81-400|10.1139/v81-400|10.1248/YAKUSHI1947.95.3_358

>  <synonyms>  (1363) 
(+)-Erythrartine; 11-Hydroxyerysotrine|(2R,9R,13bS)-2,11,12-trimethoxy-2,6,8,9-tetrahydro-1H-indolo[7a,1-a]isoquinolin-9-ol|51666-26-3|AKOS032962322|Erythrartine|FS-9954|NS00094138

>  <cas>  (1363) 
51666-26-3

$$$$

     RDKit          2D

 34 38  0  0  0  0  0  0  0  0999 V2000
    2.9412   -5.4709    0.0000 C   0  0  0  0  0  0  0  0  0  0  0  0
    3.8157   -4.2522    0.0000 O   0  0  0  0  0  0  0  0  0  0  0  0
    3.1976   -2.8855    0.0000 C   0  0  0  0  0  0  0  0  0  0  0  0
    1.7049   -2.7375    0.0000 O   0  0  0  0  0  0  0  0  0  0  0  0
    4.0721   -1.6668    0.0000 C   0  0  0  0  0  0  0  0  0  0  0  0
    3.4540   -0.3001    0.0000 C   0  0  0  0  0  0  0  0  0  0  0  0
    4.3285    0.9186    0.0000 C   0  0  0  0  0  0  0  0  0  0  0  0
    5.3768   -0.1543    0.0000 C   0  0  0  0  0  0  0  0  0  0  0  0
    5.5671    1.7646    0.0000 C   0  0  0  0  0  0  0  0  0  0  0  0
    3.7104    2.2853    0.0000 C   0  0  0  0  0  0  0  0  0  0  0  0
    4.5849    3.5040    0.0000 O   0  0  0  0  0  0  0  0  0  0  0  0
    2.2177    2.4333    0.0000 C   0  0  0  0  0  0  0  0  0  0  0  0
    0.7250    2.5813    0.0000 C   0  0  0  0  0  0  0  0  0  0  0  0
   -0.1495    1.3627    0.0000 C   0  0  0  0  0  0  0  0  0  0  0  0
   -1.6422    1.5107    0.0000 C   0  0  0  0  0  0  0  0  0  0  0  0
   -2.2604    2.8774    0.0000 C   0  0  0  0  0  0  0  0  0  0  0  0
   -3.7530    3.0254    0.0000 C   0  0  0  0  0  0  0  0  0  0  0  0
   -4.3712    4.3921    0.0000 O   0  0  0  0  0  0  0  0  0  0  0  0
   -4.6276    1.8067    0.0000 O   0  0  0  0  0  0  0  0  0  0  0  0
   -4.0094    0.4400    0.0000 C   0  0  0  0  0  0  0  0  0  0  0  0
   -4.8840   -0.7786    0.0000 C   0  0  0  0  0  0  0  0  0  0  0  0
   -4.4121   -2.2025    0.0000 C   0  0  0  0  0  0  0  0  0  0  0  0
   -5.6204   -3.0913    0.0000 O   0  0  0  0  0  0  0  0  0  0  0  0
   -6.8391   -2.2167    0.0000 C   0  0  0  0  0  0  0  0  0  0  0  0
   -6.3839   -0.7875    0.0000 C   0  0  0  0  0  0  0  0  0  0  0  0
   -2.5168    0.2920    0.0000 C   0  0  0  0  0  0  0  0  0  0  0  0
   -3.3913   -0.9267    0.0000 C   0  0  0  0  0  0  0  0  0  0  0  0
   -1.8986   -1.0747    0.0000 C   0  0  0  0  0  0  0  0  0  0  0  0
   -0.4059   -1.2227    0.0000 C   0  0  0  0  0  0  0  0  0  0  0  0
    0.4686   -0.0041    0.0000 C   0  0  0  0  0  0  0  0  0  0  0  0
    1.9613   -0.1521    0.0000 C   0  0  0  0  0  0  0  0  0  0  0  0
    2.5794   -1.5188    0.0000 C   0  0  0  0  0  0  0  0  0  0  0  0
    2.8358    1.0666    0.0000 C   0  0  0  0  0  0  0  0  0  0  0  0
    3.6246    1.1822    0.0000 O   0  0  0  0  0  0  0  0  0  0  0  0
  1  2  1  0
  2  3  1  0
  3  4  2  0
  3  5  1  0
  6  5  1  6
  6  7  1  0
  7  8  1  0
  7  9  1  0
  7 10  1  0
 10 11  2  0
 10 12  1  0
 12 13  1  1
 13 14  1  0
 14 15  2  0
 15 16  1  0
 16 17  1  0
 17 18  2  0
 17 19  1  0
 19 20  1  0
 20 21  1  6
 21 22  2  0
 22 23  1  0
 23 24  1  0
 24 25  2  0
 20 26  1  0
 26 27  1  6
 26 28  1  0
 28 29  1  0
 30 29  1  1
 30 31  1  0
 31 32  1  6
 31 33  1  0
 33 34  2  0
 31  6  1  0
 33 12  1  0
 30 14  1  0
 26 15  1  0
 25 21  1  0
M  END
>  <identifier>  (1364) 
CNP0264949.1

>  <canonical_smiles>  (1364) 
COC(=O)C[C@H]1C(C)(C)C(=O)[C@@H]2CC3=C4CC(=O)O[C@@H](C5=COC=C5)[C@]4(C)CC[C@@H]3[C@@]1(C)C2=O

>  <standard_inchi>  (1364) 
InChI=1S/C27H32O7/c1-25(2)19(12-20(28)32-5)27(4)17-6-8-26(3)18(15(17)10-16(22(25)30)23(27)31)11-21(29)34-24(26)14-7-9-33-13-14/h7,9,13,16-17,19,24H,6,8,10-12H2,1-5H3/t16-,17-,19-,24-,26+,27+/m0/s1

>  <standard_inchi_key>  (1364) 
DNFJSIPZGYBGON-JCLAUGGVSA-N

>  <name>  (1364) 
Mexicanolide

>  <iupac_name>  (1364) 
methyl 2-[(1~{R},2~{S},5~{R},6~{R},13~{S},16~{S})-6-(3-furyl)-1,5,15,15-tetramethyl-8,14,17-trioxo-7-oxatetracyclo[11.3.1.0^{2,11}.0^{5,10}]heptadec-10-en-16-yl]acetate

>  <annotation_level>  (1364) 
5

>  <total_atom_count>  (1364) 
66

>  <heavy_atom_count>  (1364) 
34

>  <molecular_weight>  (1364) 
468.55

>  <exact_molecular_weight>  (1364) 
468.2148

>  <molecular_formula>  (1364) 
C27H32O7

>  <alogp>  (1364) 
4.36

>  <topological_polar_surface_area>  (1364) 
99.88

>  <rotatable_bond_count>  (1364) 
3

>  <hydrogen_bond_acceptors>  (1364) 
7

>  <hydrogen_bond_donors>  (1364) 
0

>  <hydrogen_bond_acceptors_lipinski>  (1364) 
7

>  <hydrogen_bond_donors_lipinski>  (1364) 
0

>  <lipinski_rule_of_five_violations>  (1364) 
0

>  <aromatic_rings_count>  (1364) 
1

>  <qed_drug_likeliness>  (1364) 
0.37

>  <formal_charge>  (1364) 
0

>  <fractioncsp3>  (1364) 
0.63

>  <number_of_minimal_rings>  (1364) 
5

>  <van_der_walls_volume>  (1364) 
417.72

>  <contains_sugar>  (1364) 
False

>  <contains_ring_sugars>  (1364) 
False

>  <contains_linear_sugars>  (1364) 
False

>  <murcko_framework>  (1364) 
o1ccc(c1)C2OCCC3=C4CC5CCCC(C5)C4CCC32

>  <np_likeness>  (1364) 
2.73

>  <chemical_class>  (1364) 
Prenol lipids

>  <chemical_sub_class>  (1364) 
Triterpenoids

>  <chemical_super_class>  (1364) 
Lipids and lipid-like molecules

>  <direct_parent_classification>  (1364) 
Limonoids

>  <np_classifier_pathway>  (1364) 
Terpenoids

>  <np_classifier_superclass>  (1364) 
Triterpenoids

>  <np_classifier_class>  (1364) 
Limonoids

>  <np_classifier_is_glycoside>  (1364) 
False

>  <organisms>  (1364) 
Arenaria venezuelana|Cedrela graziovii|Cedrela mexicana|Cedrela odorata|Cipadessa baccifera|Cipadessa fruticosa|Dysoxylum parasiticum|Ekebergia capensis|Eptatretus burgeri|Khaya Senegalensis|Khaya senegalensis|Lansium domesticum|Neobeguea mahafalensis|Neobeguea mahafaliensis|Pandaros acanthifolium|Paraburkholderia caryophylli|Randia nilotica|Swietenia mahagoni|Veronica undulata|Xylocarpus granatum|Xylocarpus moluccensis

>  <collections>  (1364) 
CMAUP (cCollective molecular activities of useful plants)|KNApSaCK|Latin America dataset|NPASS|NuBBEDB|Super Natural II|VietHerb|WikiData Natural Products

>  <dois>  (1364) 
10.1016/J.BMCL.2011.06.010|10.1016/S0031-9422(97)00708-5|10.1016/S0040-4039(01)90140-6|10.1016/S0305-1978(03)00035-8|10.1016/j.bmcl.2011.06.010|10.1021/JO00350A009|10.1021/NP0780093|10.1021/NP100395W|10.1021/NP900522H|10.1021/NP900640U|10.1021/np900640u|10.1515/ZNB-2005-0321|10.1515/znb-2005-0321|10.1590/S0102-695X2010000100002

>  <synonyms>  (1364) 
CHEMBL1080142|Methyl 2-[(1R,2S,5R,6R,13S,16S)-6-(furan-3-yl)-1,5,15,15-tetramethyl-8,14,17-trioxo-7-oxatetracyclo[11.3.1.02,11.05,10]heptadec-10-en-16-yl]acetate|Mexicanolide

>  <cas>  (1364) 
nan

$$$$

     RDKit          2D

 39 43  0  0  0  0  0  0  0  0999 V2000
   -6.6093    3.0846    0.0000 C   0  0  0  0  0  0  0  0  0  0  0  0
   -5.5107    2.0633    0.0000 C   0  0  0  0  0  0  0  0  0  0  0  0
   -4.0769    2.5041    0.0000 O   0  0  0  0  0  0  0  0  0  0  0  0
   -5.8459    0.6012    0.0000 O   0  0  0  0  0  0  0  0  0  0  0  0
   -4.7473   -0.4201    0.0000 C   0  0  0  0  0  0  0  0  0  0  0  0
   -5.0825   -1.8822    0.0000 C   0  0  0  0  0  0  0  0  0  0  0  0
   -3.9839   -2.9035    0.0000 C   0  0  0  0  0  0  0  0  0  0  0  0
   -4.3190   -4.3655    0.0000 C   0  0  0  0  0  0  0  0  0  0  0  0
   -2.5501   -2.4627    0.0000 C   0  0  0  0  0  0  0  0  0  0  0  0
   -1.4515   -3.4840    0.0000 C   0  0  0  0  0  0  0  0  0  0  0  0
   -0.0177   -3.0433    0.0000 C   0  0  0  0  0  0  0  0  0  0  0  0
    1.0809   -4.0646    0.0000 O   0  0  0  0  0  0  0  0  0  0  0  0
    2.5147   -3.6238    0.0000 C   0  0  0  0  0  0  0  0  0  0  0  0
    3.6133   -4.6451    0.0000 O   0  0  0  0  0  0  0  0  0  0  0  0
    2.8499   -2.1617    0.0000 C   0  0  0  0  0  0  0  0  0  0  0  0
    1.7513   -1.1404    0.0000 C   0  0  0  0  0  0  0  0  0  0  0  0
    0.3175   -1.5812    0.0000 C   0  0  0  0  0  0  0  0  0  0  0  0
    0.6527   -0.1191    0.0000 C   0  0  0  0  0  0  0  0  0  0  0  0
   -0.7811   -0.5599    0.0000 C   0  0  0  0  0  0  0  0  0  0  0  0
   -0.4459    0.9022    0.0000 C   0  0  0  0  0  0  0  0  0  0  0  0
   -1.5445    1.9235    0.0000 O   0  0  0  0  0  0  0  0  0  0  0  0
   -1.2094    3.3856    0.0000 C   0  0  0  0  0  0  0  0  0  0  0  0
   -2.3080    4.4069    0.0000 C   0  0  0  0  0  0  0  0  0  0  0  0
    0.2244    3.8263    0.0000 O   0  0  0  0  0  0  0  0  0  0  0  0
    0.9878    1.3430    0.0000 C   0  0  0  0  0  0  0  0  0  0  0  0
    2.0864    0.3216    0.0000 C   0  0  0  0  0  0  0  0  0  0  0  0
    3.4681   -0.2623    0.0000 C   0  0  0  0  0  0  0  0  0  0  0  0
    2.9015    1.5809    0.0000 C   0  0  0  0  0  0  0  0  0  0  0  0
    2.2184    2.9164    0.0000 O   0  0  0  0  0  0  0  0  0  0  0  0
    4.3995    1.5047    0.0000 C   0  0  0  0  0  0  0  0  0  0  0  0
    5.3417    2.6719    0.0000 C   0  0  0  0  0  0  0  0  0  0  0  0
    6.7429    2.1365    0.0000 O   0  0  0  0  0  0  0  0  0  0  0  0
    6.6667    0.6384    0.0000 C   0  0  0  0  0  0  0  0  0  0  0  0
    7.8339   -0.3038    0.0000 O   0  0  0  0  0  0  0  0  0  0  0  0
    5.2184    0.2480    0.0000 C   0  0  0  0  0  0  0  0  0  0  0  0
   -2.2149   -1.0006    0.0000 C   0  0  0  0  0  0  0  0  0  0  0  0
   -1.8797    0.4614    0.0000 C   0  0  0  0  0  0  0  0  0  0  0  0
   -3.3135    0.0207    0.0000 C   0  0  0  0  0  0  0  0  0  0  0  0
   -2.9783    1.4827    0.0000 O   0  0  0  0  0  0  0  0  0  0  0  0
  1  2  1  0
  2  3  2  0
  2  4  1  0
  5  4  1  6
  5  6  1  0
  6  7  1  0
  7  8  1  6
  7  9  1  0
  9 10  1  1
 11 10  1  6
 11 12  1  0
 12 13  1  0
 13 14  2  0
 13 15  1  0
 16 15  1  6
 16 17  1  0
 17 18  1  1
 17 19  1  0
 19 20  1  1
 20 21  1  6
 21 22  1  0
 22 23  1  0
 22 24  2  0
 20 25  1  0
 25 26  1  0
 26 27  1  6
 26 28  1  0
 28 29  2  0
 30 28  1  6
 30 31  1  0
 31 32  1  0
 32 33  1  0
 33 34  2  0
 33 35  1  0
 19 36  1  0
 36 37  1  1
 36 38  1  0
 38 39  2  0
 38  5  1  0
 36  9  1  0
 17 11  1  0
 35 30  1  0
 26 16  1  0
M  END
>  <identifier>  (1365) 
CNP0256033.4

>  <canonical_smiles>  (1365) 
CC(=O)O[C@H]1C[C@@H](C)[C@@H]2C[C@H]3OC(=O)C[C@@H]4[C@@]3(C)[C@H]([C@H](OC(C)=O)C[C@@]4(C)C(=O)[C@@H]3COC(=O)C3)[C@@]2(C)C1=O

>  <standard_inchi>  (1365) 
InChI=1S/C29H38O10/c1-13-7-18(37-14(2)30)26(35)28(5)17(13)9-21-29(6)20(10-23(33)39-21)27(4,11-19(24(28)29)38-15(3)31)25(34)16-8-22(32)36-12-16/h13,16-21,24H,7-12H2,1-6H3/t13-,16+,17+,18+,19-,20+,21-,24-,27-,28+,29-/m1/s1

>  <standard_inchi_key>  (1365) 
MDGXIAKLNVEGKI-MAMHOEHUSA-N

>  <name>  (1365) 
nan

>  <iupac_name>  (1365) 
[(1~{S},2~{S},4~{S},6~{R},7~{S},9~{R},13~{R},14~{R},16~{R},17~{S})-16-acetoxy-2,6,14,17-tetramethyl-3,11-dioxo-14-[(3~{S})-5-oxotetrahydrofuran-3-carbonyl]-10-oxatetracyclo[7.7.1.0^{2,7}.0^{13,17}]heptadecan-4-yl] acetate

>  <annotation_level>  (1365) 
5

>  <total_atom_count>  (1365) 
77

>  <heavy_atom_count>  (1365) 
39

>  <molecular_weight>  (1365) 
546.61

>  <exact_molecular_weight>  (1365) 
546.2465

>  <molecular_formula>  (1365) 
C29H38O10

>  <alogp>  (1365) 
2.58

>  <topological_polar_surface_area>  (1365) 
139.34

>  <rotatable_bond_count>  (1365) 
4

>  <hydrogen_bond_acceptors>  (1365) 
10

>  <hydrogen_bond_donors>  (1365) 
0

>  <hydrogen_bond_acceptors_lipinski>  (1365) 
10

>  <hydrogen_bond_donors_lipinski>  (1365) 
0

>  <lipinski_rule_of_five_violations>  (1365) 
1

>  <aromatic_rings_count>  (1365) 
0

>  <qed_drug_likeliness>  (1365) 
0.38

>  <formal_charge>  (1365) 
0

>  <fractioncsp3>  (1365) 
0.79

>  <number_of_minimal_rings>  (1365) 
5

>  <van_der_walls_volume>  (1365) 
nan

>  <contains_sugar>  (1365) 
False

>  <contains_ring_sugars>  (1365) 
False

>  <contains_linear_sugars>  (1365) 
False

>  <murcko_framework>  (1365) 
O1CCC(C1)CC2CCC3C4CCCCC4CC5OCCC2C53

>  <np_likeness>  (1365) 
2.61

>  <chemical_class>  (1365) 
Prenol lipids

>  <chemical_sub_class>  (1365) 
Terpene lactones

>  <chemical_super_class>  (1365) 
Lipids and lipid-like molecules

>  <direct_parent_classification>  (1365) 
Quassinoids

>  <np_classifier_pathway>  (1365) 
Terpenoids

>  <np_classifier_superclass>  (1365) 
Triterpenoids

>  <np_classifier_class>  (1365) 
Quassinoids

>  <np_classifier_is_glycoside>  (1365) 
False

>  <organisms>  (1365) 
Homalolepis cuneata|Simaba cuneata

>  <collections>  (1365) 
NuBBEDB|WikiData Natural Products

>  <dois>  (1365) 
10.1590/S0103-50531999000100012

>  <synonyms>  (1365) 
20(S)-2-O-acetylsimarolide

>  <cas>  (1365) 
nan

$$$$

     RDKit          2D

 15 16  0  0  0  0  0  0  0  0999 V2000
   -2.0793    3.0668    0.0000 C   0  0  0  0  0  0  0  0  0  0  0  0
   -1.0539    1.9720    0.0000 C   0  0  0  0  0  0  0  0  0  0  0  0
    0.3774    2.4208    0.0000 C   0  0  0  0  0  0  0  0  0  0  0  0
    1.6206    1.5817    0.0000 C   0  0  0  0  0  0  0  0  0  0  0  0
    1.7397    0.0864    0.0000 C   0  0  0  0  0  0  0  0  0  0  0  0
    3.1386   -0.4551    0.0000 C   0  0  0  0  0  0  0  0  0  0  0  0
    3.3690   -1.9373    0.0000 C   0  0  0  0  0  0  0  0  0  0  0  0
    4.3069    0.4856    0.0000 C   0  0  0  0  0  0  0  0  0  0  0  0
    0.6449   -0.9390    0.0000 C   0  0  0  0  0  0  0  0  0  0  0  0
   -0.8394   -0.7223    0.0000 C   0  0  0  0  0  0  0  0  0  0  0  0
   -1.8379   -1.8417    0.0000 C   0  0  0  0  0  0  0  0  0  0  0  0
   -1.5191   -3.3075    0.0000 C   0  0  0  0  0  0  0  0  0  0  0  0
   -3.2110   -1.2380    0.0000 C   0  0  0  0  0  0  0  0  0  0  0  0
   -3.0612    0.2545    0.0000 C   0  0  0  0  0  0  0  0  0  0  0  0
   -1.5954    0.5732    0.0000 C   0  0  0  0  0  0  0  0  0  0  0  0
  1  2  1  0
  2  3  2  0
  3  4  1  0
  4  5  2  0
  5  6  1  0
  6  7  1  0
  6  8  1  0
  5  9  1  0
  9 10  2  0
 10 11  1  0
 11 12  1  0
 11 13  2  0
 13 14  1  0
 14 15  2  0
 15  2  1  0
 15 10  1  0
M  END
>  <identifier>  (1366) 
CNP0186815.0

>  <canonical_smiles>  (1366) 
CC1=CC=C(C(C)C)C=C2C(C)=CC=C12

>  <standard_inchi>  (1366) 
InChI=1S/C15H18/c1-10(2)13-7-5-11(3)14-8-6-12(4)15(14)9-13/h5-10H,1-4H3

>  <standard_inchi_key>  (1366) 
FWKQNCXZGNBPFD-UHFFFAOYSA-N

>  <name>  (1366) 
guaiazulene

>  <iupac_name>  (1366) 
7-isopropyl-1,4-dimethyl-azulene

>  <annotation_level>  (1366) 
5

>  <total_atom_count>  (1366) 
33

>  <heavy_atom_count>  (1366) 
15

>  <molecular_weight>  (1366) 
198.31

>  <exact_molecular_weight>  (1366) 
198.14085

>  <molecular_formula>  (1366) 
C15H18

>  <alogp>  (1366) 
4.53

>  <topological_polar_surface_area>  (1366) 
0.00

>  <rotatable_bond_count>  (1366) 
1

>  <hydrogen_bond_acceptors>  (1366) 
0

>  <hydrogen_bond_donors>  (1366) 
0

>  <hydrogen_bond_acceptors_lipinski>  (1366) 
0

>  <hydrogen_bond_donors_lipinski>  (1366) 
0

>  <lipinski_rule_of_five_violations>  (1366) 
0

>  <aromatic_rings_count>  (1366) 
0

>  <qed_drug_likeliness>  (1366) 
0.63

>  <formal_charge>  (1366) 
0

>  <fractioncsp3>  (1366) 
0.33

>  <number_of_minimal_rings>  (1366) 
2

>  <van_der_walls_volume>  (1366) 
209.30

>  <contains_sugar>  (1366) 
False

>  <contains_ring_sugars>  (1366) 
False

>  <contains_linear_sugars>  (1366) 
False

>  <murcko_framework>  (1366) 
c1ccc-2cccc2cc1

>  <np_likeness>  (1366) 
-0.12

>  <chemical_class>  (1366) 
Prenol lipids

>  <chemical_sub_class>  (1366) 
Sesquiterpenoids

>  <chemical_super_class>  (1366) 
Lipids and lipid-like molecules

>  <direct_parent_classification>  (1366) 
Guaianes

>  <np_classifier_pathway>  (1366) 
Terpenoids

>  <np_classifier_superclass>  (1366) 
Sesquiterpenoids

>  <np_classifier_class>  (1366) 
Guaiane sesquiterpenoids

>  <np_classifier_is_glycoside>  (1366) 
False

>  <organisms>  (1366) 
Abrus pulchellus|Acalycigorgia|Alcyonium|Alcyonium sp.|Aquilaria agallocha|Aquilaria agallochum|Arabidopsis thaliana|Aristolochia elegans|Aristolochia littoralis|Artemisia thuscula|Aspergillus phoenicis|Calicogorgia granulosa|Callitris columellaris|Callitris glaucophylla|Callitris intratropica|Castanopsis eyrei|Cedrela odorata|Cinnamomum parthenoxylon|Croton sonderianus|Cuajacum officinale|Ephedra sinica|Eucalyptus decorticans|Euryops rupestris|Ficus sp.|Guaiacum Officinale|Guaiacum officinale|Guaiacum sanctum|Guaiacum sp.|Guajacum officinale|Halocarpus kirkii|Holarrhena febrifuga|Homo sapiens|Hypericum carinatum|Illicium difengpi|Impatiens siculifer|Juniperus excelsa|Juniperus scopulorum|Kloeckera brevis|Laetia corymbulosa|Litsea verticillata|Magnolia officinalis|Mastigophora diclados|Matricaria Chamomilla|Matricaria chamomilla|Micromeria juliana|Mikania banisteriae|Mikania congesta|Mikania cordifolia|Mikania parviflora|Murraya paniculata|Panax ginseng|Polygonum mite|Rabdosia loxothyrsa|Santolina corsica|Santolina insularis|Solanum aculeatum|Streptomyces incarnatus|Thymus maroccanus|Trichomanes reniforme|Valeriana officinalis

>  <collections>  (1366) 
ANPDB|Australian natural products|CMAUP (cCollective molecular activities of useful plants)|CMNPD|ChEBI NPs|EMNPD|ETM (Ethiopian Traditional Medicine) DB|FooDB|GNPS (Global Natural Products Social Molecular Networking)|KNApSaCK|Latin America dataset|Marine Natural Products|NANPDB (Natural Products from Northern African Sources)|NPASS|NPEdia|NuBBEDB|Phyto4Health|PhytoLab phyproof® Reference Substances|PubChem NPs|Super Natural II|TCMDB-Taiwan (Traditional Chinese Medicine database)|TCMID (Traditional Chinese Medicine Integrated Database)|UNPD (Universal Natural Products Database)|VietHerb|WikiData Natural Products

>  <dois>  (1366) 
10.1002/JSSC.200800253|10.1007/BF02126356|10.1016/J.JPLPH.2018.10.006|10.1016/S0031-9422(00)80558-0|10.1016/S0031-9422(00)95206-3|10.1016/S0031-9422(97)00400-7|10.1016/S0031-9422(99)00321-0|10.1016/S0378-8741(97)01528-6|10.1021/JO00200A028|10.1021/JO01168A011|10.1021/NP50050A053|10.1021/NP960485Y|10.1021/jo00200a028|10.1039/np9840100551|10.1055/S-2006-960908|10.1071/CH9830211|10.1080/10412905.1991.9697971|10.1080/10412905.1993.9698248|10.1080/10412905.1995.9698462|10.1080/10412905.2001.9699594|10.1135/CCCC19661113|10.1246/CL.1993.2003|10.1371/journal.pone.0073076

>  <synonyms>  (1366) 
1,3,5,7,9-Guaiapentaene|1,4-DIMETHYL-7-ISOPROPYLAZULENE [JAN]|1,4-Dimethyl-7-(1-methyl)-azulene (azulon)|1,4-Dimethyl-7-(1-methylethyl)azulene|1,4-Dimethyl-7-isopropylazulene|1,4-Dimethyl-7-isopropylazulene;Guaiazulene|1,4-dimethyl-7-propan-2-ylazulene|2OZ1K9JKQC|3,8-Dimethyl-5-(2-propyl)azulene|4-05-00-01751 (Beilstein Handbook Reference)|489-84-9|7-Isopropyl-1,4-dimethylazulene|7-isopropyl-1,4-dimethyl-azulene;Guaiazulene|A827639|AKOS001082716|AS-13972|AZ-8|AZ-8 beris|AZULENE, 1,4-DIMETHYL-7-ISOPROPYL-|Azulen-beris|Azulene, 1,4-dimethyl-7-(1-methylethyl)-|Azulene, 7-isopropyl-1,4-dimethyl-|Azulene,4-dimethyl-|Azulene,4-dimethyl-7-isopropyl-|Azulol|Azulon|Azunol|Azunol (TN)|BBL027440|BRD-K36719159-001-04-9|BRN 1365001|BSPBio_002954|C09675|CAS-489-84-9|CCG-40099|CHEBI:5550|CHEMBL1408759|CS-0021588|Cuteazul|D01037|DB-051592|DB13329|DTXCID5025996|DTXSID7045996|DivK1c_001006|EINECS 207-701-2|EN300-16623|Eucazulen|G0228|GUAIAZULENE (CONSTITUENT OF CHAMOMILE) [DSC]|GUAIAZULENE [INCI]|GUAIAZULENE [MART.]|GUAIAZULENE [MI]|GUAIAZULENE [WHO-DD]|Guaiazulene|Guaiazulene, 99%|Guajazulene|Guiazulene|Gurjunazulen|HMS503I13|HY-N6951|IDI1_001006|InChI=1\/C15H18\/c1-10(2)13-7-5-11(3)14-8-6-12(4)15(14)9-13\/h5-10H,1-4H|KBio1_001006|KBio2_001678|KBio2_004246|KBio2_006814|KBio3_002454|KBioGR_001144|KBioSS_001678|Kessazulen|LMPR0103410006|MFCD00003811|MLS002207286|NCGC00095836-02|NCGC00178373-01|NINDS_001006|NS00008692|NSC 4714|NSC-4714|Purazulen|Q3026266|S-Guaiazulene|S-Kessazulene|SDCCGMLS-0066686.P001|SMR001306801|SPBio_001138|SPECTRUM1502249|SR-05000002441|STK801958|Silazulon|Spectrum2_001089|Spectrum3_001537|Spectrum4_000762|Spectrum5_001090|Spectrum_001198|Tox21_111526|UNII-2OZ1K9JKQC|Uroazulen|Vaumigan|Vetivazulen|WLN: L57J B1 F1 IY1&1|Z56347227|guaiazulen|hepatoprotectant|s3995

>  <cas>  (1366) 
489-84-9

$$$$

     RDKit          2D

 36 41  0  0  0  0  0  0  0  0999 V2000
   -4.2396    5.8869    0.0000 C   0  0  0  0  0  0  0  0  0  0  0  0
   -4.3907    4.3945    0.0000 O   0  0  0  0  0  0  0  0  0  0  0  0
   -3.1738    3.5175    0.0000 C   0  0  0  0  0  0  0  0  0  0  0  0
   -1.8058    4.1328    0.0000 O   0  0  0  0  0  0  0  0  0  0  0  0
   -3.3249    2.0251    0.0000 C   0  0  0  0  0  0  0  0  0  0  0  0
   -2.1080    1.1481    0.0000 C   0  0  0  0  0  0  0  0  0  0  0  0
   -2.2591   -0.3443    0.0000 C   0  0  0  0  0  0  0  0  0  0  0  0
   -3.2673    0.0791    0.0000 C   0  0  0  0  0  0  0  0  0  0  0  0
   -0.7632   -0.2340    0.0000 C   0  0  0  0  0  0  0  0  0  0  0  0
   -0.1108    1.1167    0.0000 C   0  0  0  0  0  0  0  0  0  0  0  0
    1.3852    1.2271    0.0000 C   0  0  0  0  0  0  0  0  0  0  0  0
    2.2287   -0.0133    0.0000 C   0  0  0  0  0  0  0  0  0  0  0  0
    2.8811    1.3374    0.0000 C   0  0  0  0  0  0  0  0  0  0  0  0
    3.7246    0.0971    0.0000 C   0  0  0  0  0  0  0  0  0  0  0  0
    4.3770    1.4478    0.0000 C   0  0  0  0  0  0  0  0  0  0  0  0
    3.6678    2.7695    0.0000 C   0  0  0  0  0  0  0  0  0  0  0  0
    4.7056    3.8525    0.0000 O   0  0  0  0  0  0  0  0  0  0  0  0
    6.0563    3.2001    0.0000 C   0  0  0  0  0  0  0  0  0  0  0  0
    5.8532    1.7139    0.0000 C   0  0  0  0  0  0  0  0  0  0  0  0
    4.5682   -1.1433    0.0000 O   0  0  0  0  0  0  0  0  0  0  0  0
    3.9158   -2.4940    0.0000 C   0  0  0  0  0  0  0  0  0  0  0  0
    4.7593   -3.7343    0.0000 O   0  0  0  0  0  0  0  0  0  0  0  0
    2.4198   -2.6043    0.0000 C   0  0  0  0  0  0  0  0  0  0  0  0
    0.9239   -2.7146    0.0000 O   0  0  0  0  0  0  0  0  0  0  0  0
    1.5763   -1.3640    0.0000 C   0  0  0  0  0  0  0  0  0  0  0  0
    0.0804   -1.4743    0.0000 C   0  0  0  0  0  0  0  0  0  0  0  0
   -1.4156   -1.5846    0.0000 C   0  0  0  0  0  0  0  0  0  0  0  0
   -0.5721   -2.8250    0.0000 C   0  0  0  0  0  0  0  0  0  0  0  0
    0.2715   -4.0653    0.0000 O   0  0  0  0  0  0  0  0  0  0  0  0
   -2.0680   -2.9353    0.0000 C   0  0  0  0  0  0  0  0  0  0  0  0
   -2.7204   -4.2860    0.0000 O   0  0  0  0  0  0  0  0  0  0  0  0
   -2.9115   -1.6950    0.0000 C   0  0  0  0  0  0  0  0  0  0  0  0
   -4.1519   -2.5385    0.0000 O   0  0  0  0  0  0  0  0  0  0  0  0
   -4.2622   -1.0426    0.0000 C   0  0  0  0  0  0  0  0  0  0  0  0
   -5.7546   -0.8915    0.0000 C   0  0  0  0  0  0  0  0  0  0  0  0
   -4.0953    0.0381    0.0000 C   0  0  0  0  0  0  0  0  0  0  0  0
  1  2  1  0
  2  3  1  0
  3  4  2  0
  3  5  1  0
  5  6  2  3
  6  7  1  0
  7  8  1  1
  7  9  1  0
  9 10  1  1
 10 11  1  0
 11 12  1  0
 12 13  1  6
 12 14  1  0
 14 15  1  6
 15 16  2  0
 16 17  1  0
 17 18  1  0
 18 19  2  0
 14 20  1  0
 20 21  1  0
 21 22  2  0
 21 23  1  0
 23 24  1  1
 25 24  1  1
 25 26  1  0
 26 27  1  1
 26 28  1  0
 28 29  1  1
 28 30  1  0
 30 31  2  0
 30 32  1  0
 32 33  1  6
 33 34  1  0
 34 35  1  0
 34 36  1  0
 32  7  1  0
 26  9  1  0
 34 32  1  0
 25 12  1  0
 19 15  1  0
 25 23  1  0
M  END
>  <identifier>  (1367) 
CNP0080567.1

>  <canonical_smiles>  (1367) 
COC(=O)C=C[C@]1(C)[C@H]2CC[C@@]3(C)[C@H](C4=COC=C4)OC(=O)[C@H]4O[C@]43[C@]2(C)[C@@H](O)C(=O)[C@]12OC2(C)C

>  <standard_inchi>  (1367) 
InChI=1S/C27H32O9/c1-22(2)26(36-22)18(30)17(29)25(5)15(23(26,3)11-8-16(28)32-6)7-10-24(4)19(14-9-12-33-13-14)34-21(31)20-27(24,25)35-20/h8-9,11-13,15,17,19-20,29H,7,10H2,1-6H3/t15-,17+,19+,20-,23-,24+,25+,26-,27-/m1/s1

>  <standard_inchi_key>  (1367) 
QYPQCVKHTVAZAM-MQZJIYTGSA-N

>  <name>  (1367) 
nan

>  <iupac_name>  (1367) 
methyl 3-[(1~{R},2~{S},3~{R},5~{S},6~{R},7~{R},10~{S},11~{S},14~{S})-11-(3-furyl)-3-hydroxy-2,3',3',6,10-pentamethyl-4,13-dioxo-spiro[12,15-dioxatetracyclo[8.5.0.0^{1,14}.0^{2,7}]pentadecane-5,2'-oxirane]-6-yl]prop-2-enoate

>  <annotation_level>  (1367) 
4

>  <total_atom_count>  (1367) 
68

>  <heavy_atom_count>  (1367) 
36

>  <molecular_weight>  (1367) 
500.54

>  <exact_molecular_weight>  (1367) 
500.20463

>  <molecular_formula>  (1367) 
C27H32O9

>  <alogp>  (1367) 
2.66

>  <topological_polar_surface_area>  (1367) 
128.10

>  <rotatable_bond_count>  (1367) 
3

>  <hydrogen_bond_acceptors>  (1367) 
9

>  <hydrogen_bond_donors>  (1367) 
1

>  <hydrogen_bond_acceptors_lipinski>  (1367) 
9

>  <hydrogen_bond_donors_lipinski>  (1367) 
1

>  <lipinski_rule_of_five_violations>  (1367) 
1

>  <aromatic_rings_count>  (1367) 
1

>  <qed_drug_likeliness>  (1367) 
0.38

>  <formal_charge>  (1367) 
0

>  <fractioncsp3>  (1367) 
0.67

>  <number_of_minimal_rings>  (1367) 
6

>  <van_der_walls_volume>  (1367) 
nan

>  <contains_sugar>  (1367) 
False

>  <contains_ring_sugars>  (1367) 
False

>  <contains_linear_sugars>  (1367) 
False

>  <murcko_framework>  (1367) 
o1ccc(c1)C2OCC3OC34C2CCC5CC6(OC6)CCC54

>  <np_likeness>  (1367) 
2.58

>  <chemical_class>  (1367) 
Naphthopyrans

>  <chemical_sub_class>  (1367) 
Naphthopyrans

>  <chemical_super_class>  (1367) 
Organoheterocyclic compounds

>  <direct_parent_classification>  (1367) 
Naphthopyrans

>  <np_classifier_pathway>  (1367) 
Terpenoids

>  <np_classifier_superclass>  (1367) 
Triterpenoids

>  <np_classifier_class>  (1367) 
Limonoids

>  <np_classifier_is_glycoside>  (1367) 
False

>  <organisms>  (1367) 
Dictyoloma vandellianum

>  <collections>  (1367) 
Latin America dataset|NuBBEDB

>  <dois>  (1367) 
10.1016/0305-1978(88)90060-9

>  <synonyms>  (1367) 
Deacethylspathelin

>  <cas>  (1367) 
nan

$$$$

     RDKit          2D

 22 24  0  0  0  0  0  0  0  0999 V2000
   -4.6190    2.2015    0.0000 C   0  0  0  0  0  0  0  0  0  0  0  0
   -4.6041    0.7016    0.0000 C   0  0  0  0  0  0  0  0  0  0  0  0
   -3.2977   -0.0355    0.0000 C   0  0  0  0  0  0  0  0  0  0  0  0
   -4.2505   -1.1941    0.0000 C   0  0  0  0  0  0  0  0  0  0  0  0
   -2.7987    1.3791    0.0000 C   0  0  0  0  0  0  0  0  0  0  0  0
   -1.3242    1.6542    0.0000 C   0  0  0  0  0  0  0  0  0  0  0  0
   -0.3486    0.5148    0.0000 C   0  0  0  0  0  0  0  0  0  0  0  0
    1.1259    0.7899    0.0000 C   0  0  0  0  0  0  0  0  0  0  0  0
    0.1504    1.9293    0.0000 C   0  0  0  0  0  0  0  0  0  0  0  0
    1.6250    2.2044    0.0000 C   0  0  0  0  0  0  0  0  0  0  0  0
    3.0995    2.4796    0.0000 C   0  0  0  0  0  0  0  0  0  0  0  0
    4.0750    1.3401    0.0000 C   0  0  0  0  0  0  0  0  0  0  0  0
    3.5760   -0.0745    0.0000 C   0  0  0  0  0  0  0  0  0  0  0  0
    3.5909   -1.5744    0.0000 C   0  0  0  0  0  0  0  0  0  0  0  0
    5.0558   -0.3203    0.0000 C   0  0  0  0  0  0  0  0  0  0  0  0
    2.1015   -0.3496    0.0000 C   0  0  0  0  0  0  0  0  0  0  0  0
    1.6025   -1.7641    0.0000 C   0  0  0  0  0  0  0  0  0  0  0  0
    0.1279   -2.0392    0.0000 C   0  0  0  0  0  0  0  0  0  0  0  0
   -0.3711   -3.4538    0.0000 O   0  0  0  0  0  0  0  0  0  0  0  0
   -0.8476   -0.8998    0.0000 C   0  0  0  0  0  0  0  0  0  0  0  0
   -1.3467   -2.3144    0.0000 O   0  0  0  0  0  0  0  0  0  0  0  0
   -2.3222   -1.1749    0.0000 C   0  0  0  0  0  0  0  0  0  0  0  0
  1  2  2  0
  2  3  1  0
  3  4  1  6
  3  5  1  0
  5  6  1  0
  7  6  1  6
  7  8  1  0
  8  9  1  6
  8 10  1  0
 10 11  1  0
 11 12  1  0
 12 13  1  0
 13 14  1  0
 13 15  1  0
 13 16  1  0
 16 17  1  6
 17 18  1  0
 18 19  1  6
 18 20  1  0
 20 21  1  6
 20 22  1  0
 22  3  1  0
 20  7  1  0
 16  8  1  0
M  END
>  <identifier>  (1368) 
CNP0187058.1

>  <canonical_smiles>  (1368) 
C=C[C@@]1(C)CC[C@@H]2[C@@]3(C)CCCC(C)(C)[C@@H]3C[C@H](O)[C@@]2(O)C1

>  <standard_inchi>  (1368) 
InChI=1S/C20H34O2/c1-6-18(4)11-8-14-19(5)10-7-9-17(2,3)15(19)12-16(21)20(14,22)13-18/h6,14-16,21-22H,1,7-13H2,2-5H3/t14-,15+,16+,18+,19-,20-/m1/s1

>  <standard_inchi_key>  (1368) 
MHLUYFQRMRBWBH-ZHAUUAPESA-N

>  <name>  (1368) 
nan

>  <iupac_name>  (1368) 
(4~{a}~{S},4~{b}~{R},7~{S},8~{a}~{R},9~{S},10~{a}~{S})-1,1,4~{a},7-tetramethyl-7-vinyl-2,3,4,4~{b},5,6,8,9,10,10~{a}-decahydrophenanthrene-8~{a},9-diol

>  <annotation_level>  (1368) 
4

>  <total_atom_count>  (1368) 
56

>  <heavy_atom_count>  (1368) 
22

>  <molecular_weight>  (1368) 
306.49

>  <exact_molecular_weight>  (1368) 
306.25588

>  <molecular_formula>  (1368) 
C20H34O2

>  <alogp>  (1368) 
4.31

>  <topological_polar_surface_area>  (1368) 
40.46

>  <rotatable_bond_count>  (1368) 
1

>  <hydrogen_bond_acceptors>  (1368) 
2

>  <hydrogen_bond_donors>  (1368) 
2

>  <hydrogen_bond_acceptors_lipinski>  (1368) 
2

>  <hydrogen_bond_donors_lipinski>  (1368) 
2

>  <lipinski_rule_of_five_violations>  (1368) 
0

>  <aromatic_rings_count>  (1368) 
0

>  <qed_drug_likeliness>  (1368) 
0.71

>  <formal_charge>  (1368) 
0

>  <fractioncsp3>  (1368) 
0.90

>  <number_of_minimal_rings>  (1368) 
3

>  <van_der_walls_volume>  (1368) 
nan

>  <contains_sugar>  (1368) 
False

>  <contains_ring_sugars>  (1368) 
False

>  <contains_linear_sugars>  (1368) 
False

>  <murcko_framework>  (1368) 
C1CCC2C(C1)CCC3CCCCC32

>  <np_likeness>  (1368) 
3.47

>  <chemical_class>  (1368) 
Prenol lipids

>  <chemical_sub_class>  (1368) 
Diterpenoids

>  <chemical_super_class>  (1368) 
Lipids and lipid-like molecules

>  <direct_parent_classification>  (1368) 
Diterpenoids

>  <np_classifier_pathway>  (1368) 
Terpenoids

>  <np_classifier_superclass>  (1368) 
Diterpenoids

>  <np_classifier_class>  (1368) 
Pimarane and Isopimarane diterpenoids

>  <np_classifier_is_glycoside>  (1368) 
False

>  <organisms>  (1368) 
Vellozia compacta

>  <collections>  (1368) 
Latin America dataset|NuBBEDB|Super Natural II|WikiData Natural Products

>  <dois>  (1368) 
10.1016/0031-9422(83)80034-X

>  <synonyms>  (1368) 
Compactol

>  <cas>  (1368) 
nan

$$$$

     RDKit          2D

 25 28  0  0  0  0  0  0  0  0999 V2000
    6.7179   -4.1086    0.0000 C   0  0  0  0  0  0  0  0  0  0  0  0
    6.5763   -2.6153    0.0000 C   0  0  0  0  0  0  0  0  0  0  0  0
    5.2123   -1.9913    0.0000 C   0  0  0  0  0  0  0  0  0  0  0  0
    5.0706   -0.4980    0.0000 O   0  0  0  0  0  0  0  0  0  0  0  0
    3.7066    0.1261    0.0000 C   0  0  0  0  0  0  0  0  0  0  0  0
    2.4842   -0.7432    0.0000 C   0  0  0  0  0  0  0  0  0  0  0  0
    1.1201   -0.1192    0.0000 C   0  0  0  0  0  0  0  0  0  0  0  0
    0.9785    1.3741    0.0000 C   0  0  0  0  0  0  0  0  0  0  0  0
    2.2010    2.2434    0.0000 C   0  0  0  0  0  0  0  0  0  0  0  0
    3.5650    1.6194    0.0000 C   0  0  0  0  0  0  0  0  0  0  0  0
    4.7874    2.4886    0.0000 O   0  0  0  0  0  0  0  0  0  0  0  0
    6.1515    1.8646    0.0000 C   0  0  0  0  0  0  0  0  0  0  0  0
   -0.4855    1.7009    0.0000 C   0  0  0  0  0  0  0  0  0  0  0  0
   -1.0816    3.0773    0.0000 C   0  0  0  0  0  0  0  0  0  0  0  0
   -1.2486    0.4095    0.0000 C   0  0  0  0  0  0  0  0  0  0  0  0
   -2.7419    0.2679    0.0000 C   0  0  0  0  0  0  0  0  0  0  0  0
   -3.6112    1.4903    0.0000 C   0  0  0  0  0  0  0  0  0  0  0  0
   -5.1045    1.3487    0.0000 C   0  0  0  0  0  0  0  0  0  0  0  0
   -5.7285   -0.0153    0.0000 C   0  0  0  0  0  0  0  0  0  0  0  0
   -7.1598   -0.4643    0.0000 O   0  0  0  0  0  0  0  0  0  0  0  0
   -7.1750   -1.9642    0.0000 C   0  0  0  0  0  0  0  0  0  0  0  0
   -5.7532   -2.4422    0.0000 O   0  0  0  0  0  0  0  0  0  0  0  0
   -4.8592   -1.2377    0.0000 C   0  0  0  0  0  0  0  0  0  0  0  0
   -3.3659   -1.0961    0.0000 C   0  0  0  0  0  0  0  0  0  0  0  0
   -0.2563   -0.7154    0.0000 O   0  0  0  0  0  0  0  0  0  0  0  0
  1  2  2  0
  2  3  1  0
  3  4  1  0
  4  5  1  0
  5  6  2  0
  6  7  1  0
  7  8  2  0
  8  9  1  0
  9 10  2  0
 10 11  1  0
 11 12  1  0
  8 13  1  0
 13 14  1  1
 13 15  1  0
 15 16  1  6
 16 17  2  0
 17 18  1  0
 18 19  2  0
 19 20  1  0
 20 21  1  0
 21 22  1  0
 22 23  1  0
 23 24  2  0
 15 25  1  0
 10  5  1  0
 24 16  1  0
 25  7  1  0
 23 19  1  0
M  END
>  <identifier>  (1369) 
CNP0080541.1

>  <canonical_smiles>  (1369) 
C=CCOC1=CC2=C(C=C1OC)[C@H](C)[C@@H](C1=CC=C3OCOC3=C1)O2

>  <standard_inchi>  (1369) 
InChI=1S/C20H20O5/c1-4-7-22-19-10-16-14(9-17(19)21-3)12(2)20(25-16)13-5-6-15-18(8-13)24-11-23-15/h4-6,8-10,12,20H,1,7,11H2,2-3H3/t12-,20-/m0/s1

>  <standard_inchi_key>  (1369) 
KBAIKNVJCMHWGU-YUNKPMOVSA-N

>  <name>  (1369) 
5-[(2S,3S)-5-methoxy-3-methyl-6-prop-2-enoxy-2,3-dihydro-1-benzofuran-2-yl]-1,3-benzodioxole

>  <iupac_name>  (1369) 
5-[(2~{S},3~{S})-6-allyloxy-5-methoxy-3-methyl-2,3-dihydrobenzofuran-2-yl]-1,3-benzodioxole

>  <annotation_level>  (1369) 
5

>  <total_atom_count>  (1369) 
45

>  <heavy_atom_count>  (1369) 
25

>  <molecular_weight>  (1369) 
340.38

>  <exact_molecular_weight>  (1369) 
340.13107

>  <molecular_formula>  (1369) 
C20H20O5

>  <alogp>  (1369) 
4.23

>  <topological_polar_surface_area>  (1369) 
46.15

>  <rotatable_bond_count>  (1369) 
5

>  <hydrogen_bond_acceptors>  (1369) 
5

>  <hydrogen_bond_donors>  (1369) 
0

>  <hydrogen_bond_acceptors_lipinski>  (1369) 
5

>  <hydrogen_bond_donors_lipinski>  (1369) 
0

>  <lipinski_rule_of_five_violations>  (1369) 
0

>  <aromatic_rings_count>  (1369) 
2

>  <qed_drug_likeliness>  (1369) 
0.76

>  <formal_charge>  (1369) 
0

>  <fractioncsp3>  (1369) 
0.30

>  <number_of_minimal_rings>  (1369) 
4

>  <van_der_walls_volume>  (1369) 
nan

>  <contains_sugar>  (1369) 
False

>  <contains_ring_sugars>  (1369) 
False

>  <contains_linear_sugars>  (1369) 
False

>  <murcko_framework>  (1369) 
O1c2ccc(cc2OC1)C3Oc4ccccc4C3

>  <np_likeness>  (1369) 
1.12

>  <chemical_class>  (1369) 
2-arylbenzofuran flavonoids

>  <chemical_sub_class>  (1369) 
2-arylbenzofuran flavonoids

>  <chemical_super_class>  (1369) 
Phenylpropanoids and polyketides

>  <direct_parent_classification>  (1369) 
2-arylbenzofuran flavonoids

>  <np_classifier_pathway>  (1369) 
Shikimates and Phenylpropanoids

>  <np_classifier_superclass>  (1369) 
Lignans

>  <np_classifier_class>  (1369) 
Neolignans

>  <np_classifier_is_glycoside>  (1369) 
False

>  <organisms>  (1369) 
Aniba citrifolia|Aniba terminalis

>  <collections>  (1369) 
Latin America dataset|NPASS|NuBBEDB|WikiData Natural Products|ZINC NP

>  <dois>  (1369) 
10.1016/0031-9422(75)85303-9|10.1021/acs.jnatprod.9b00724

>  <synonyms>  (1369) 
(2S3S)-6-O-allyl-5-methoxy-3-methyl-2-piperonyl-23-dihydrobenzofuran|CHEMBL4637565

>  <cas>  (1369) 
nan

$$$$

     RDKit          2D

 23 26  0  0  0  0  0  0  0  0999 V2000
   -4.5247    2.2695    0.0000 C   0  0  0  0  0  0  0  0  0  0  0  0
   -4.8464    0.8044    0.0000 C   0  0  0  0  0  0  0  0  0  0  0  0
   -3.7385   -0.2068    0.0000 C   0  0  0  0  0  0  0  0  0  0  0  0
   -4.9266   -1.1223    0.0000 C   0  0  0  0  0  0  0  0  0  0  0  0
   -2.9351    1.0599    0.0000 C   0  0  0  0  0  0  0  0  0  0  0  0
   -1.4364    0.9975    0.0000 C   0  0  0  0  0  0  0  0  0  0  0  0
   -0.6330    2.2643    0.0000 C   0  0  0  0  0  0  0  0  0  0  0  0
    0.8657    2.2018    0.0000 C   0  0  0  0  0  0  0  0  0  0  0  0
    1.5610    0.8727    0.0000 C   0  0  0  0  0  0  0  0  0  0  0  0
    2.2563   -0.4564    0.0000 O   0  0  0  0  0  0  0  0  0  0  0  0
    0.7576   -0.3940    0.0000 C   0  0  0  0  0  0  0  0  0  0  0  0
    1.4529   -1.7231    0.0000 C   0  0  0  0  0  0  0  0  0  0  0  0
    2.9516   -1.7855    0.0000 C   0  0  0  0  0  0  0  0  0  0  0  0
    3.7550   -0.5188    0.0000 C   0  0  0  0  0  0  0  0  0  0  0  0
    5.2537   -0.5812    0.0000 O   0  0  0  0  0  0  0  0  0  0  0  0
    3.0597    0.8103    0.0000 C   0  0  0  0  0  0  0  0  0  0  0  0
    2.8609    2.2971    0.0000 C   0  0  0  0  0  0  0  0  0  0  0  0
    4.4894    1.2643    0.0000 C   0  0  0  0  0  0  0  0  0  0  0  0
   -0.7411   -0.3316    0.0000 C   0  0  0  0  0  0  0  0  0  0  0  0
   -0.0458   -1.6607    0.0000 C   0  0  0  0  0  0  0  0  0  0  0  0
   -1.5445   -1.5983    0.0000 C   0  0  0  0  0  0  0  0  0  0  0  0
   -0.8491   -2.9274    0.0000 O   0  0  0  0  0  0  0  0  0  0  0  0
   -3.0432   -1.5359    0.0000 C   0  0  0  0  0  0  0  0  0  0  0  0
  1  2  2  0
  2  3  1  0
  3  4  1  1
  3  5  1  0
  5  6  1  0
  6  7  1  0
  7  8  1  0
  9  8  1  1
  9 10  1  0
 11 10  1  6
 11 12  1  0
 12 13  2  0
 13 14  1  0
 14 15  2  0
 14 16  1  0
 16 17  1  0
 16 18  1  0
 11 19  1  0
 19 20  1  1
 19 21  1  0
 21 22  1  1
 21 23  1  0
 23  3  1  0
 19  6  1  0
 11  9  1  0
 16  9  1  0
M  END
>  <identifier>  (1370) 
CNP0397309.1

>  <canonical_smiles>  (1370) 
C=C[C@]1(C)CC2CC[C@@]34O[C@]3(C=CC(=O)C4(C)C)[C@]2(C)[C@@H](O)C1

>  <standard_inchi>  (1370) 
InChI=1S/C20H28O3/c1-6-17(4)11-13-7-9-19-16(2,3)14(21)8-10-20(19,23-19)18(13,5)15(22)12-17/h6,8,10,13,15,22H,1,7,9,11-12H2,2-5H3/t13?,15-,17+,18-,19-,20+/m0/s1

>  <standard_inchi_key>  (1370) 
VNIPYFUGQSQYAQ-WFBURVRISA-N

>  <name>  (1370) 
Epoxycorcovadin

>  <iupac_name>  (1370) 
(1~{R},2~{S},3~{S},5~{R},10~{S})-3-hydroxy-2,5,11,11-tetramethyl-5-vinyl-15-oxatetracyclo[8.4.1.0^{1,10}.0^{2,7}]pentadec-13-en-12-one

>  <annotation_level>  (1370) 
5

>  <total_atom_count>  (1370) 
51

>  <heavy_atom_count>  (1370) 
23

>  <molecular_weight>  (1370) 
316.44

>  <exact_molecular_weight>  (1370) 
316.20384

>  <molecular_formula>  (1370) 
C20H28O3

>  <alogp>  (1370) 
3.42

>  <topological_polar_surface_area>  (1370) 
49.83

>  <rotatable_bond_count>  (1370) 
1

>  <hydrogen_bond_acceptors>  (1370) 
3

>  <hydrogen_bond_donors>  (1370) 
1

>  <hydrogen_bond_acceptors_lipinski>  (1370) 
3

>  <hydrogen_bond_donors_lipinski>  (1370) 
1

>  <lipinski_rule_of_five_violations>  (1370) 
0

>  <aromatic_rings_count>  (1370) 
0

>  <qed_drug_likeliness>  (1370) 
0.60

>  <formal_charge>  (1370) 
0

>  <fractioncsp3>  (1370) 
0.75

>  <number_of_minimal_rings>  (1370) 
4

>  <van_der_walls_volume>  (1370) 
nan

>  <contains_sugar>  (1370) 
False

>  <contains_ring_sugars>  (1370) 
False

>  <contains_linear_sugars>  (1370) 
False

>  <murcko_framework>  (1370) 
O1C23CCC=CC13C4CCCCC4CC2

>  <np_likeness>  (1370) 
2.96

>  <chemical_class>  (1370) 
Prenol lipids

>  <chemical_sub_class>  (1370) 
Sesquiterpenoids

>  <chemical_super_class>  (1370) 
Lipids and lipid-like molecules

>  <direct_parent_classification>  (1370) 
Sesquiterpenoids

>  <np_classifier_pathway>  (1370) 
Terpenoids

>  <np_classifier_superclass>  (1370) 
Diterpenoids

>  <np_classifier_class>  (1370) 
Norpimarane and Norisopimarane diterpenoids

>  <np_classifier_is_glycoside>  (1370) 
False

>  <organisms>  (1370) 
Vellozia candida

>  <collections>  (1370) 
Latin America dataset|NuBBEDB

>  <dois>  (1370) 
10.1016/S0040-4039(00)94036-X

>  <synonyms>  (1370) 
Epoxycorcovadin

>  <cas>  (1370) 
nan

$$$$

     RDKit          2D

 28 31  0  0  0  0  0  0  0  0999 V2000
    8.5322   -1.4288    0.0000 C   0  0  0  0  0  0  0  0  0  0  0  0
    7.6552   -0.2119    0.0000 O   0  0  0  0  0  0  0  0  0  0  0  0
    6.1629   -0.3629    0.0000 C   0  0  0  0  0  0  0  0  0  0  0  0
    5.5475   -1.7309    0.0000 C   0  0  0  0  0  0  0  0  0  0  0  0
    4.0551   -1.8820    0.0000 C   0  0  0  0  0  0  0  0  0  0  0  0
    3.1781   -0.6651    0.0000 C   0  0  0  0  0  0  0  0  0  0  0  0
    1.6857   -0.8161    0.0000 C   0  0  0  0  0  0  0  0  0  0  0  0
    0.9308   -2.1123    0.0000 O   0  0  0  0  0  0  0  0  0  0  0  0
   -0.5353   -1.7948    0.0000 C   0  0  0  0  0  0  0  0  0  0  0  0
   -0.6863   -0.3024    0.0000 C   0  0  0  0  0  0  0  0  0  0  0  0
    0.6863    0.3024    0.0000 C   0  0  0  0  0  0  0  0  0  0  0  0
    0.5353    1.7948    0.0000 C   0  0  0  0  0  0  0  0  0  0  0  0
   -0.9308    2.1123    0.0000 O   0  0  0  0  0  0  0  0  0  0  0  0
   -1.6857    0.8161    0.0000 C   0  0  0  0  0  0  0  0  0  0  0  0
   -3.1781    0.6651    0.0000 C   0  0  0  0  0  0  0  0  0  0  0  0
   -4.0551    1.8820    0.0000 C   0  0  0  0  0  0  0  0  0  0  0  0
   -5.5475    1.7309    0.0000 C   0  0  0  0  0  0  0  0  0  0  0  0
   -6.1629    0.3629    0.0000 C   0  0  0  0  0  0  0  0  0  0  0  0
   -7.6552    0.2119    0.0000 O   0  0  0  0  0  0  0  0  0  0  0  0
   -8.5322    1.4288    0.0000 C   0  0  0  0  0  0  0  0  0  0  0  0
   -5.2858   -0.8540    0.0000 C   0  0  0  0  0  0  0  0  0  0  0  0
   -5.9012   -2.2219    0.0000 O   0  0  0  0  0  0  0  0  0  0  0  0
   -5.0242   -3.4388    0.0000 C   0  0  0  0  0  0  0  0  0  0  0  0
   -3.7935   -0.7029    0.0000 C   0  0  0  0  0  0  0  0  0  0  0  0
    3.7935    0.7029    0.0000 C   0  0  0  0  0  0  0  0  0  0  0  0
    5.2858    0.8540    0.0000 C   0  0  0  0  0  0  0  0  0  0  0  0
    5.9012    2.2219    0.0000 O   0  0  0  0  0  0  0  0  0  0  0  0
    5.0242    3.4388    0.0000 C   0  0  0  0  0  0  0  0  0  0  0  0
  1  2  1  0
  2  3  1  0
  3  4  2  0
  4  5  1  0
  5  6  2  0
  7  6  1  1
  7  8  1  0
  8  9  1  0
 10  9  1  6
 10 11  1  0
 11 12  1  6
 12 13  1  0
 13 14  1  0
 14 15  1  6
 15 16  2  0
 16 17  1  0
 17 18  2  0
 18 19  1  0
 19 20  1  0
 18 21  1  0
 21 22  1  0
 22 23  1  0
 21 24  2  0
  6 25  1  0
 25 26  2  0
 26 27  1  0
 27 28  1  0
 26  3  1  0
 11  7  1  0
 24 15  1  0
 14 10  1  0
M  END
>  <identifier>  (1371) 
CNP0163646.4

>  <canonical_smiles>  (1371) 
COC1=CC=C([C@H]2OC[C@H]3[C@@H]2CO[C@H]3C2=CC=C(OC)C(OC)=C2)C=C1OC

>  <standard_inchi>  (1371) 
InChI=1S/C22H26O6/c1-23-17-7-5-13(9-19(17)25-3)21-15-11-28-22(16(15)12-27-21)14-6-8-18(24-2)20(10-14)26-4/h5-10,15-16,21-22H,11-12H2,1-4H3/t15-,16-,21-,22+/m0/s1

>  <standard_inchi_key>  (1371) 
PEUUVVGQIVMSAW-WWLNLUSPSA-N

>  <name>  (1371) 
(+)-epieudesmin

>  <iupac_name>  (1371) 
(3~{S},3~{a}~{R},6~{R},6~{a}~{R})-3,6-bis(3,4-dimethoxyphenyl)-1,3,3~{a},4,6,6~{a}-hexahydrofuro[3,4-c]furan

>  <annotation_level>  (1371) 
5

>  <total_atom_count>  (1371) 
54

>  <heavy_atom_count>  (1371) 
28

>  <molecular_weight>  (1371) 
386.44

>  <exact_molecular_weight>  (1371) 
386.17294

>  <molecular_formula>  (1371) 
C22H26O6

>  <alogp>  (1371) 
3.80

>  <topological_polar_surface_area>  (1371) 
55.38

>  <rotatable_bond_count>  (1371) 
6

>  <hydrogen_bond_acceptors>  (1371) 
6

>  <hydrogen_bond_donors>  (1371) 
0

>  <hydrogen_bond_acceptors_lipinski>  (1371) 
6

>  <hydrogen_bond_donors_lipinski>  (1371) 
0

>  <lipinski_rule_of_five_violations>  (1371) 
0

>  <aromatic_rings_count>  (1371) 
2

>  <qed_drug_likeliness>  (1371) 
0.75

>  <formal_charge>  (1371) 
0

>  <fractioncsp3>  (1371) 
0.46

>  <number_of_minimal_rings>  (1371) 
4

>  <van_der_walls_volume>  (1371) 
350.25

>  <contains_sugar>  (1371) 
False

>  <contains_ring_sugars>  (1371) 
False

>  <contains_linear_sugars>  (1371) 
False

>  <murcko_framework>  (1371) 
O1CC2C(OCC2C1c3ccccc3)c4ccccc4

>  <np_likeness>  (1371) 
0.65

>  <chemical_class>  (1371) 
Furanoid lignans

>  <chemical_sub_class>  (1371) 
Furan lignans

>  <chemical_super_class>  (1371) 
Lignans, neolignans and related compounds

>  <direct_parent_classification>  (1371) 
Furan lignans

>  <np_classifier_pathway>  (1371) 
Shikimates and Phenylpropanoids

>  <np_classifier_superclass>  (1371) 
Lignans

>  <np_classifier_class>  (1371) 
Furofuranoid lignans

>  <np_classifier_is_glycoside>  (1371) 
False

>  <organisms>  (1371) 
Achillea holosericea|Artemisia absinthium|Artemisia austriaca|Artocarpus odoratissimus|Chrysolaena propinqua|Commiphora kua|Daphne blagayana|Daphne oleoides ssp. oleoides|Digitalis obscura|Erythrina orientalis|Fagara heitzii|Forsythia sp.|Gmelina Arborea|Gmelina arborea|Haplophyllum acutifolium|Hernandia nymphaeifolia|Hernandia peltata|Hernandia sonora|Leontodon filii|Lindera praecox|Lotus villosus|Magnolia Coco|Magnolia biondii|Magnolia coco|Mesua elegans|Michelia rajaniana|Onychopetalum amazonicum|Orophea enneandra|Ouratea semiserrata|Parabenzoin praecox|Persea kurzii|Phora atra|Raulinoa echinata|Russula subnigricans|Samadera bidwillii|Sarcomyxa serotina|Smyrnium perfoliatum|Solenostemon sylvaticus|Stevia serrata|Tuberolachnus salignus|Umbelopsis vinacea|Vernonia tufnellae|Virola elongata|Zanthoxylum Acanthopodium|Zanthoxylum acanthopodium|Zanthoxylum alatum|Zanthoxylum culantrillo|Zanthoxylum fagara|Zanthoxylum heitzii|Zanthoxylum oxyphyllum

>  <collections>  (1371) 
AfroCancer|Australian natural products|CMAUP (cCollective molecular activities of useful plants)|KNApSaCK|Latin America dataset|NPASS|NPEdia|NuBBEDB|Super Natural II|VietHerb|WikiData Natural Products|ZINC NP

>  <dois>  (1371) 
10.1002/1099-1565(200101/02)12:1<64::AID-PCA562>3.0.CO,2-3|10.1016/0031-9422(80)83087-1|10.1016/0031-9422(88)80479-5|10.1016/0040-4020(80)88051-3|10.1016/J.PHYTOCHEM.2009.05.004|10.1016/J.PHYTOCHEM.2009.08.007|10.1016/S0031-9422(00)94552-7|10.1016/S0031-9422(01)00442-3|10.1016/S0031-9422(96)00708-X|10.1021/NP030125S|10.1021/np030125s|10.1055/S-2007-970033|10.1055/s-2007-970033|10.1080/00021369.1976.10862166|10.1248/CPB.57.298

>  <synonyms>  (1371) 
(+)-Epieudesmine|1H,3H-Furo(3,4-C)furan, 1,4-bis(3,4-dimethoxyphenyl)tetrahydro-, (1R,3aR,4S,6aR)-|60102-89-8|CHEMBL512865|CS-0896950|Epieudesmin|HY-N12262|NFK65X655A|Phillygenin methyl ether|Q27284845|SCHEMBL18013553|UNII-NFK65X655A

>  <cas>  (1371) 
60102-89-8

$$$$

     RDKit          2D

 32 35  0  0  0  0  0  0  0  0999 V2000
   10.0692    0.5165    0.0000 C   0  0  0  0  0  0  0  0  0  0  0  0
    8.7495   -0.1964    0.0000 C   0  0  0  0  0  0  0  0  0  0  0  0
    8.7070   -1.6958    0.0000 C   0  0  0  0  0  0  0  0  0  0  0  0
    7.4722    0.5901    0.0000 C   0  0  0  0  0  0  0  0  0  0  0  0
    6.1524   -0.1229    0.0000 C   0  0  0  0  0  0  0  0  0  0  0  0
    4.8752    0.6636    0.0000 C   0  0  0  0  0  0  0  0  0  0  0  0
    3.5554   -0.0493    0.0000 C   0  0  0  0  0  0  0  0  0  0  0  0
    3.5129   -1.5487    0.0000 C   0  0  0  0  0  0  0  0  0  0  0  0
    4.7902   -2.3352    0.0000 O   0  0  0  0  0  0  0  0  0  0  0  0
    2.2781    0.7372    0.0000 C   0  0  0  0  0  0  0  0  0  0  0  0
    2.1636    2.2328    0.0000 C   0  0  0  0  0  0  0  0  0  0  0  0
    0.7058    2.5861    0.0000 C   0  0  0  0  0  0  0  0  0  0  0  0
   -0.0806    1.3088    0.0000 C   0  0  0  0  0  0  0  0  0  0  0  0
   -0.9276    2.5468    0.0000 C   0  0  0  0  0  0  0  0  0  0  0  0
   -1.5561    1.0386    0.0000 C   0  0  0  0  0  0  0  0  0  0  0  0
   -2.5278    2.1813    0.0000 C   0  0  0  0  0  0  0  0  0  0  0  0
   -4.0033    1.9111    0.0000 C   0  0  0  0  0  0  0  0  0  0  0  0
   -4.5070    0.4982    0.0000 C   0  0  0  0  0  0  0  0  0  0  0  0
   -5.9825    0.2280    0.0000 C   0  0  0  0  0  0  0  0  0  0  0  0
   -7.4614    0.4787    0.0000 C   0  0  0  0  0  0  0  0  0  0  0  0
   -5.9924    1.7280    0.0000 C   0  0  0  0  0  0  0  0  0  0  0  0
   -6.4862   -1.1849    0.0000 C   0  0  0  0  0  0  0  0  0  0  0  0
   -7.9617   -1.4551    0.0000 O   0  0  0  0  0  0  0  0  0  0  0  0
   -5.5145   -2.3276    0.0000 C   0  0  0  0  0  0  0  0  0  0  0  0
   -4.0390   -2.0574    0.0000 C   0  0  0  0  0  0  0  0  0  0  0  0
   -3.5353   -0.6445    0.0000 C   0  0  0  0  0  0  0  0  0  0  0  0
   -2.5636   -1.7872    0.0000 C   0  0  0  0  0  0  0  0  0  0  0  0
   -2.0598   -0.3743    0.0000 C   0  0  0  0  0  0  0  0  0  0  0  0
   -1.0881   -1.5170    0.0000 C   0  0  0  0  0  0  0  0  0  0  0  0
    0.3874   -1.2468    0.0000 C   0  0  0  0  0  0  0  0  0  0  0  0
    0.8911    0.1661    0.0000 C   0  0  0  0  0  0  0  0  0  0  0  0
    1.9769   -0.8687    0.0000 C   0  0  0  0  0  0  0  0  0  0  0  0
  1  2  1  0
  2  3  1  0
  2  4  2  0
  4  5  1  0
  5  6  1  0
  7  6  1  6
  7  8  1  0
  8  9  2  0
  7 10  1  0
 10 11  1  1
 11 12  1  0
 12 13  1  0
 13 14  1  6
 13 15  1  0
 15 16  2  0
 16 17  1  0
 18 17  1  6
 18 19  1  0
 19 20  1  0
 19 21  1  0
 19 22  1  0
 22 23  2  0
 22 24  1  0
 24 25  1  0
 25 26  1  0
 26 27  1  6
 26 28  1  0
 28 29  1  6
 29 30  1  0
 30 31  1  0
 31 32  1  1
 31 10  1  0
 31 13  1  0
 28 15  1  0
 26 18  1  0
M  END
>  <identifier>  (1372) 
CNP0201953.1

>  <canonical_smiles>  (1372) 
CC(C)=CCC[C@H](C=O)[C@@H]1CC[C@]2(C)C3=CC[C@H]4C(C)(C)C(=O)CC[C@]4(C)[C@H]3CC[C@@]12C

>  <standard_inchi>  (1372) 
InChI=1S/C30H46O2/c1-20(2)9-8-10-21(19-31)22-13-17-30(7)24-11-12-25-27(3,4)26(32)15-16-28(25,5)23(24)14-18-29(22,30)6/h9,11,19,21-23,25H,8,10,12-18H2,1-7H3/t21-,22+,23+,25+,28-,29+,30-/m1/s1

>  <standard_inchi_key>  (1372) 
FKSBBGKUFRQNEB-QYFQNPMKSA-N

>  <name>  (1372) 
(2S)-2-[(1S,3aS,5aR,9aR,9bR,11aS)-3a,6,6,9a,11a-pentamethyl-7-oxo-1H,2H,3H,3aH,5H,5aH,6H,7H,8H,9H,9aH,9bH,10H,11H,11aH-cyclopenta[a]phenanthren-1-yl]-6-methylhept-5-enal

>  <iupac_name>  (1372) 
(2~{S})-6-methyl-2-[(5~{R},9~{R},10~{R},13~{S},14~{S},17~{S})-4,4,10,13,14-pentamethyl-3-oxo-1,2,5,6,9,11,12,15,16,17-decahydrocyclopenta[a]phenanthren-17-yl]hept-5-enal

>  <annotation_level>  (1372) 
5

>  <total_atom_count>  (1372) 
78

>  <heavy_atom_count>  (1372) 
32

>  <molecular_weight>  (1372) 
438.7

>  <exact_molecular_weight>  (1372) 
438.34978

>  <molecular_formula>  (1372) 
C30H46O2

>  <alogp>  (1372) 
7.72

>  <topological_polar_surface_area>  (1372) 
34.14

>  <rotatable_bond_count>  (1372) 
5

>  <hydrogen_bond_acceptors>  (1372) 
2

>  <hydrogen_bond_donors>  (1372) 
0

>  <hydrogen_bond_acceptors_lipinski>  (1372) 
2

>  <hydrogen_bond_donors_lipinski>  (1372) 
0

>  <lipinski_rule_of_five_violations>  (1372) 
1

>  <aromatic_rings_count>  (1372) 
0

>  <qed_drug_likeliness>  (1372) 
0.33

>  <formal_charge>  (1372) 
0

>  <fractioncsp3>  (1372) 
0.80

>  <number_of_minimal_rings>  (1372) 
4

>  <van_der_walls_volume>  (1372) 
450.54

>  <contains_sugar>  (1372) 
False

>  <contains_ring_sugars>  (1372) 
False

>  <contains_linear_sugars>  (1372) 
False

>  <murcko_framework>  (1372) 
C1=C2C3CCCC3CCC2C4CCCCC4C1

>  <np_likeness>  (1372) 
3.63

>  <chemical_class>  (1372) 
Steroids and steroid derivatives

>  <chemical_sub_class>  (1372) 
Oxosteroids

>  <chemical_super_class>  (1372) 
Lipids and lipid-like molecules

>  <direct_parent_classification>  (1372) 
3-oxosteroids

>  <np_classifier_pathway>  (1372) 
Terpenoids

>  <np_classifier_superclass>  (1372) 
Triterpenoids

>  <np_classifier_class>  (1372) 
Lanostane, Tirucallane and Euphane triterpenoids

>  <np_classifier_is_glycoside>  (1372) 
False

>  <organisms>  (1372) 
Homalolepis cuneata|Owenia cepiodora|Paramignya griffithii|Paramignya scandens|Simaba cuneata

>  <collections>  (1372) 
KNApSaCK|Latin America dataset|NuBBEDB|Super Natural II|WikiData Natural Products

>  <dois>  (1372) 
10.1016/0031-9422(92)80374-N|10.1016/S0031-9422(00)00311-3|10.1016/S0031-9422(98)00307-0

>  <synonyms>  (1372) 
3-Oxo-tirucalla-7,24-dien-21-al|321-dioxo-tirucalla-724-diene|SCHEMBL22775846

>  <cas>  (1372) 
nan

$$$$

     RDKit          2D

 10 10  0  0  0  0  0  0  0  0999 V2000
   -5.1683    0.0430    0.0000 C   0  0  0  0  0  0  0  0  0  0  0  0
   -3.7599    0.5591    0.0000 C   0  0  0  0  0  0  0  0  0  0  0  0
   -2.6088   -0.4026    0.0000 C   0  0  0  0  0  0  0  0  0  0  0  0
   -1.2003    0.1135    0.0000 C   0  0  0  0  0  0  0  0  0  0  0  0
   -0.0492   -0.8481    0.0000 C   0  0  0  0  0  0  0  0  0  0  0  0
    1.3592   -0.3320    0.0000 C   0  0  0  0  0  0  0  0  0  0  0  0
    2.6046   -1.1681    0.0000 C   0  0  0  0  0  0  0  0  0  0  0  0
    3.7846   -0.2420    0.0000 C   0  0  0  0  0  0  0  0  0  0  0  0
    3.2685    1.1664    0.0000 C   0  0  0  0  0  0  0  0  0  0  0  0
    1.7695    1.1108    0.0000 C   0  0  0  0  0  0  0  0  0  0  0  0
  1  2  1  0
  2  3  1  0
  3  4  1  0
  4  5  1  0
  5  6  1  0
  6  7  1  0
  7  8  1  0
  8  9  1  0
  9 10  1  0
 10  6  1  0
M  END
>  <identifier>  (1373) 
CNP0373641.0

>  <canonical_smiles>  (1373) 
CCCCCC1CCCC1

>  <standard_inchi>  (1373) 
InChI=1S/C10H20/c1-2-3-4-7-10-8-5-6-9-10/h10H,2-9H2,1H3

>  <standard_inchi_key>  (1373) 
HPQURZRDYMUHJI-UHFFFAOYSA-N

>  <name>  (1373) 
Pentylcyclopentane

>  <iupac_name>  (1373) 
pentylcyclopentane

>  <annotation_level>  (1373) 
5

>  <total_atom_count>  (1373) 
30

>  <heavy_atom_count>  (1373) 
10

>  <molecular_weight>  (1373) 
140.27

>  <exact_molecular_weight>  (1373) 
140.1565

>  <molecular_formula>  (1373) 
C10H20

>  <alogp>  (1373) 
3.76

>  <topological_polar_surface_area>  (1373) 
0.00

>  <rotatable_bond_count>  (1373) 
4

>  <hydrogen_bond_acceptors>  (1373) 
0

>  <hydrogen_bond_donors>  (1373) 
0

>  <hydrogen_bond_acceptors_lipinski>  (1373) 
0

>  <hydrogen_bond_donors_lipinski>  (1373) 
0

>  <lipinski_rule_of_five_violations>  (1373) 
0

>  <aromatic_rings_count>  (1373) 
0

>  <qed_drug_likeliness>  (1373) 
0.52

>  <formal_charge>  (1373) 
0

>  <fractioncsp3>  (1373) 
1.00

>  <number_of_minimal_rings>  (1373) 
1

>  <van_der_walls_volume>  (1373) 
nan

>  <contains_sugar>  (1373) 
False

>  <contains_ring_sugars>  (1373) 
False

>  <contains_linear_sugars>  (1373) 
False

>  <murcko_framework>  (1373) 
C1CCCC1

>  <np_likeness>  (1373) 
0.54

>  <chemical_class>  (1373) 
Saturated hydrocarbons

>  <chemical_sub_class>  (1373) 
Cycloalkanes

>  <chemical_super_class>  (1373) 
Hydrocarbons

>  <direct_parent_classification>  (1373) 
Cycloalkanes

>  <np_classifier_pathway>  (1373) 
Fatty acids

>  <np_classifier_superclass>  (1373) 
Fatty acyls

>  <np_classifier_class>  (1373) 
Hydrocarbons

>  <np_classifier_is_glycoside>  (1373) 
False

>  <organisms>  (1373) 
Caryocar coriaceum

>  <collections>  (1373) 
Latin America dataset|NuBBEDB|WikiData Natural Products|ZINC NP

>  <dois>  (1373) 
10.1021/JF00120A031|10.1021/jf00120a031

>  <synonyms>  (1373) 
3741-00-2|Amylcyclopentane|BS-23792|Cyclopentane, pentyl-|DB-049107|DTXSID6074708|EINECS 223-129-6|HPQURZRDYMUHJI-UHFFFAOYSA-|InChI=1\/C10H20\/c1-2-3-4-7-10-8-5-6-9-10\/h10H,2-9H2,1H3|LMFA11000669|MFCD00039451|NS00030189|NSC174063|P0784|Pentane, 1-cyclopentyl-|T72384|n-Pentylcyclopentane|n-amylcyclopentane

>  <cas>  (1373) 
3741-00-2

$$$$

     RDKit          2D

  6  5  0  0  0  0  0  0  0  0999 V2000
   -1.5000    1.2990    0.0000 C   0  0  0  0  0  0  0  0  0  0  0  0
   -0.7500    0.0000    0.0000 C   0  0  0  0  0  0  0  0  0  0  0  0
   -1.5000   -1.2990    0.0000 C   0  0  0  0  0  0  0  0  0  0  0  0
    0.7500   -0.0000    0.0000 C   0  0  0  0  0  0  0  0  0  0  0  0
    1.5000    1.2990    0.0000 O   0  0  0  0  0  0  0  0  0  0  0  0
    1.5000   -1.2990    0.0000 O   0  0  0  0  0  0  0  0  0  0  0  0
  1  2  2  0
  2  3  1  0
  2  4  1  0
  4  5  2  0
  4  6  1  0
M  END
>  <identifier>  (1374) 
CNP0147624.0

>  <canonical_smiles>  (1374) 
C=C(C)C(=O)O

>  <standard_inchi>  (1374) 
InChI=1S/C4H6O2/c1-3(2)4(5)6/h1H2,2H3,(H,5,6)

>  <standard_inchi_key>  (1374) 
CERQOIWHTDAKMF-UHFFFAOYSA-N

>  <name>  (1374) 
METHACRYLIC ACID

>  <iupac_name>  (1374) 
2-methylprop-2-enoic acid

>  <annotation_level>  (1374) 
5

>  <total_atom_count>  (1374) 
12

>  <heavy_atom_count>  (1374) 
6

>  <molecular_weight>  (1374) 
86.09

>  <exact_molecular_weight>  (1374) 
86.03678

>  <molecular_formula>  (1374) 
C4H6O2

>  <alogp>  (1374) 
0.65

>  <topological_polar_surface_area>  (1374) 
37.30

>  <rotatable_bond_count>  (1374) 
1

>  <hydrogen_bond_acceptors>  (1374) 
1

>  <hydrogen_bond_donors>  (1374) 
1

>  <hydrogen_bond_acceptors_lipinski>  (1374) 
1

>  <hydrogen_bond_donors_lipinski>  (1374) 
1

>  <lipinski_rule_of_five_violations>  (1374) 
0

>  <aromatic_rings_count>  (1374) 
0

>  <qed_drug_likeliness>  (1374) 
0.48

>  <formal_charge>  (1374) 
0

>  <fractioncsp3>  (1374) 
0.25

>  <number_of_minimal_rings>  (1374) 
0

>  <van_der_walls_volume>  (1374) 
85.02

>  <contains_sugar>  (1374) 
False

>  <contains_ring_sugars>  (1374) 
False

>  <contains_linear_sugars>  (1374) 
False

>  <murcko_framework>  (1374) 
nan

>  <np_likeness>  (1374) 
1.05

>  <chemical_class>  (1374) 
Carboxylic acids and derivatives

>  <chemical_sub_class>  (1374) 
Carboxylic acids

>  <chemical_super_class>  (1374) 
Organic acids and derivatives

>  <direct_parent_classification>  (1374) 
Carboxylic acids

>  <np_classifier_pathway>  (1374) 
Fatty acids

>  <np_classifier_superclass>  (1374) 
Fatty Acids and Conjugates

>  <np_classifier_class>  (1374) 
Branched fatty acids

>  <np_classifier_is_glycoside>  (1374) 
False

>  <organisms>  (1374) 
Coffea arabica|Euryops arabicus|Scarites subterraneus|Vitex polygama

>  <collections>  (1374) 
FooDB|InterBioScreen Ltd|Latin America dataset|NuBBEDB|Super Natural II|UNPD (Universal Natural Products Database)|WikiData Natural Products|ZINC NP

>  <dois>  (1374) 
10.1016/0031-9422(89)80126-8|10.1016/J.JEP.2007.09.020|10.1016/S0040-4039(00)93477-4|10.1016/j.jep.2007.09.020|10.1021/JF60160A010

>  <synonyms>  (1374) 
1CS02G8656|2-Methacrylic Acid|2-Methylacrylic acid|2-Methylenepropionic acid|2-Methylpropenoic acid|2-Methylpropensaeure|2-Propenoic acid, 2-methyl-|2-methylprop-2-enoic acid|25068-55-7|25087-26-7|4-02-00-01518 (Beilstein Handbook Reference)|50867-57-7|79-41-4|AI3-15724|AKOS000121138|Acide methacrylique|Acide methacrylique [French]|Acido metacrilico|Acido metacrilico [Spanish]|Acrylic acid, 2-methyl-|BBL011616|BP-30227|BP-31229|BRN 1719937|CAS-79-41-4|CCRIS 5925|CH2=C(CH3)COOH|CHEBI:25219|CHEMBL1213531|DB-240386|DTXCID505542|DTXSID3025542|EC 201-204-4|EINECS 201-204-4|EN300-24829|GE 110|HSDB 2649|InChI=1\/C4H6O2\/c1-3(2)4(5)6\/h1H2,2H3,(H,5,6|J-521686|Kyselina methakrylova|Kyselina methakrylova [Czech]|M0079|METHACRYLIC AC ID|METHACRYLIC ACID [HSDB]|METHACRYLIC ACID [MI]|METHACRYLIC ACID [WHO-DD]|MFCD00002651|Methacrylic acid (glacial)|Methacrylic acid (inhibited)|Methacrylic acid, SAJ first grade, >=98.0%|Methacrylic acid, contains 250 ppm MEHQ as inhibitor, 99%|Methacrylic acid, inhibited (Salt\/Mix)|Methacrylic acid, inhibited [UN2531]  [Corrosive]|Methacrylic acid, stabilized|Methacrylsaeure|NCGC00248843-01|NCGC00258380-01|NS00010058|NSC 7393|NSC-7393|No Lift Nails Primer|PROPENIONIC ACID, 2-METHYLENE|Propionic acid, 2-methylene-|Q165949|STL163339|STR02118|Sodium polymethacrylate|Tox21_200826|UN 2531 (Salt\/Mix)|UN2531|UNII-1CS02G8656|WLN: QVY1&U1|alpha-Methylacrylic acid|methacrylicacid

>  <cas>  (1374) 
79-41-4|25087-26-7|25068-55-7|50867-57-7

$$$$

     RDKit          2D

 43 48  0  0  0  0  0  0  0  0999 V2000
    4.4616    6.5908    0.0000 C   0  0  0  0  0  0  0  0  0  0  0  0
    4.6330    5.1006    0.0000 C   0  0  0  0  0  0  0  0  0  0  0  0
    3.4281    4.2071    0.0000 C   0  0  0  0  0  0  0  0  0  0  0  0
    2.0519    4.8038    0.0000 C   0  0  0  0  0  0  0  0  0  0  0  0
    3.5995    2.7169    0.0000 C   0  0  0  0  0  0  0  0  0  0  0  0
    4.9758    2.1203    0.0000 O   0  0  0  0  0  0  0  0  0  0  0  0
    2.3947    1.8234    0.0000 O   0  0  0  0  0  0  0  0  0  0  0  0
    2.5661    0.3332    0.0000 C   0  0  0  0  0  0  0  0  0  0  0  0
    3.9423   -0.2634    0.0000 C   0  0  0  0  0  0  0  0  0  0  0  0
    4.1138   -1.7536    0.0000 C   0  0  0  0  0  0  0  0  0  0  0  0
    5.4900   -2.3502    0.0000 O   0  0  0  0  0  0  0  0  0  0  0  0
    6.6948   -1.4567    0.0000 C   0  0  0  0  0  0  0  0  0  0  0  0
    8.0710   -2.0533    0.0000 C   0  0  0  0  0  0  0  0  0  0  0  0
    6.5234    0.0335    0.0000 O   0  0  0  0  0  0  0  0  0  0  0  0
    2.9089   -2.6471    0.0000 C   0  0  0  0  0  0  0  0  0  0  0  0
    4.2153   -3.3843    0.0000 C   0  0  0  0  0  0  0  0  0  0  0  0
    2.7668   -4.1404    0.0000 C   0  0  0  0  0  0  0  0  0  0  0  0
    1.3027   -4.4666    0.0000 O   0  0  0  0  0  0  0  0  0  0  0  0
    0.5400   -3.1750    0.0000 C   0  0  0  0  0  0  0  0  0  0  0  0
   -0.8484   -2.5894    0.0000 C   0  0  0  0  0  0  0  0  0  0  0  0
   -2.1400   -3.3521    0.0000 O   0  0  0  0  0  0  0  0  0  0  0  0
   -3.2645   -2.3594    0.0000 C   0  0  0  0  0  0  0  0  0  0  0  0
   -4.7577   -2.2172    0.0000 C   0  0  0  0  0  0  0  0  0  0  0  0
   -5.0840   -0.7532    0.0000 C   0  0  0  0  0  0  0  0  0  0  0  0
   -6.4602   -0.1565    0.0000 C   0  0  0  0  0  0  0  0  0  0  0  0
   -7.7518   -0.9192    0.0000 C   0  0  0  0  0  0  0  0  0  0  0  0
   -8.8763    0.0735    0.0000 O   0  0  0  0  0  0  0  0  0  0  0  0
   -8.2797    1.4498    0.0000 C   0  0  0  0  0  0  0  0  0  0  0  0
   -6.7864    1.3076    0.0000 C   0  0  0  0  0  0  0  0  0  0  0  0
   -3.7923    0.0095    0.0000 C   0  0  0  0  0  0  0  0  0  0  0  0
   -3.6502    1.5028    0.0000 C   0  0  0  0  0  0  0  0  0  0  0  0
   -2.6678   -0.9832    0.0000 C   0  0  0  0  0  0  0  0  0  0  0  0
   -1.1746   -1.1253    0.0000 C   0  0  0  0  0  0  0  0  0  0  0  0
   -1.6521    0.2966    0.0000 C   0  0  0  0  0  0  0  0  0  0  0  0
   -0.0698   -0.1108    0.0000 C   0  0  0  0  0  0  0  0  0  0  0  0
   -0.3960    1.3533    0.0000 C   0  0  0  0  0  0  0  0  0  0  0  0
   -1.8271    1.8028    0.0000 C   0  0  0  0  0  0  0  0  0  0  0  0
   -2.9319    0.7883    0.0000 O   0  0  0  0  0  0  0  0  0  0  0  0
   -2.1533    3.2669    0.0000 O   0  0  0  0  0  0  0  0  0  0  0  0
   -3.5844    3.7165    0.0000 C   0  0  0  0  0  0  0  0  0  0  0  0
    1.3613   -0.5603    0.0000 C   0  0  0  0  0  0  0  0  0  0  0  0
    0.5749   -0.4296    0.0000 C   0  0  0  0  0  0  0  0  0  0  0  0
    1.5327   -2.0505    0.0000 C   0  0  0  0  0  0  0  0  0  0  0  0
  1  2  1  0
  2  3  2  0
  3  4  1  0
  3  5  1  0
  5  6  2  0
  5  7  1  0
  8  7  1  1
  8  9  1  0
  9 10  1  0
 10 11  1  1
 11 12  1  0
 12 13  1  0
 12 14  2  0
 10 15  1  0
 15 16  1  6
 15 17  1  0
 17 18  1  0
 19 18  1  1
 19 20  1  0
 20 21  1  1
 21 22  1  0
 22 23  1  6
 23 24  1  0
 24 25  1  1
 25 26  2  0
 26 27  1  0
 27 28  1  0
 28 29  2  0
 24 30  1  0
 30 31  1  0
 30 32  2  0
 32 33  1  0
 33 34  1  6
 33 35  1  0
 35 36  1  6
 36 37  1  0
 37 38  2  0
 37 39  1  0
 39 40  1  0
 35 41  1  0
 41 42  1  6
 41 43  1  0
 41  8  1  0
 43 15  1  0
 43 19  1  6
 33 20  1  0
 32 22  1  0
 29 25  1  0
M  END
>  <identifier>  (1375) 
CNP0180030.4

>  <canonical_smiles>  (1375) 
C/C=C(\C)C(=O)O[C@H]1C[C@@H](OC(C)=O)[C@@]2(C)CO[C@H]3[C@H]4O[C@@H]5C[C@@H](C6=COC=C6)C(C)=C5[C@@]4(C)[C@H](CC(=O)OC)[C@]1(C)[C@@H]32

>  <standard_inchi>  (1375) 
InChI=1S/C34H44O9/c1-9-17(2)31(37)43-25-14-24(41-19(4)35)32(5)16-40-28-29(32)33(25,6)23(13-26(36)38-8)34(7)27-18(3)21(20-10-11-39-15-20)12-22(27)42-30(28)34/h9-11,15,21-25,28-30H,12-14,16H2,1-8H3/b17-9+/t21-,22-,23-,24-,25+,28-,29+,30-,32-,33+,34-/m1/s1

>  <standard_inchi_key>  (1375) 
CJHBVBNPNXOWBA-REXVOHEDSA-N

>  <name>  (1375) 
Salannin

>  <iupac_name>  (1375) 
[(1~{R},2~{S},4~{R},6~{R},9~{R},10~{R},11~{R},12~{S},14~{R},15~{R},18~{R})-14-acetoxy-6-(3-furyl)-10-(2-methoxy-2-oxo-ethyl)-7,9,11,15-tetramethyl-3,17-dioxapentacyclo[9.6.1.0^{2,9}.0^{4,8}.0^{15,18}]octadec-7-en-12-yl] (~{E})-2-methylbut-2-enoate

>  <annotation_level>  (1375) 
5

>  <total_atom_count>  (1375) 
87

>  <heavy_atom_count>  (1375) 
43

>  <molecular_weight>  (1375) 
596.72

>  <exact_molecular_weight>  (1375) 
596.29853

>  <molecular_formula>  (1375) 
C34H44O9

>  <alogp>  (1375) 
5.29

>  <topological_polar_surface_area>  (1375) 
110.50

>  <rotatable_bond_count>  (1375) 
6

>  <hydrogen_bond_acceptors>  (1375) 
9

>  <hydrogen_bond_donors>  (1375) 
0

>  <hydrogen_bond_acceptors_lipinski>  (1375) 
9

>  <hydrogen_bond_donors_lipinski>  (1375) 
0

>  <lipinski_rule_of_five_violations>  (1375) 
2

>  <aromatic_rings_count>  (1375) 
1

>  <qed_drug_likeliness>  (1375) 
0.19

>  <formal_charge>  (1375) 
0

>  <fractioncsp3>  (1375) 
0.68

>  <number_of_minimal_rings>  (1375) 
6

>  <van_der_walls_volume>  (1375) 
545.33

>  <contains_sugar>  (1375) 
False

>  <contains_ring_sugars>  (1375) 
False

>  <contains_linear_sugars>  (1375) 
False

>  <murcko_framework>  (1375) 
o1ccc(c1)C2C=C3C(OC4C5OCC6CCCC(CC34)C56)C2

>  <np_likeness>  (1375) 
3.28

>  <chemical_class>  (1375) 
Prenol lipids

>  <chemical_sub_class>  (1375) 
Triterpenoids

>  <chemical_super_class>  (1375) 
Lipids and lipid-like molecules

>  <direct_parent_classification>  (1375) 
Limonoids

>  <np_classifier_pathway>  (1375) 
Terpenoids

>  <np_classifier_superclass>  (1375) 
Triterpenoids

>  <np_classifier_class>  (1375) 
Limonoids

>  <np_classifier_is_glycoside>  (1375) 
False

>  <organisms>  (1375) 
Artemisia campestris|Azadirachta Indica|Azadirachta indica|Melia Azedarach|Melia azedarach|Melia dubia|Melia volkensii|Prunus pseudocerasus

>  <collections>  (1375) 
Australian natural products|CMAUP (cCollective molecular activities of useful plants)|ChEBI NPs|Latin America dataset|NPASS|NuBBEDB|Super Natural II|VietHerb|WikiData Natural Products

>  <dois>  (1375) 
10.1002/(SICI)1096-9063(199610)48:2<135::AID-PS451>3.0.CO;2-J|10.1002/(SICI)1099-1565(199901/02)10:1<39::AID-PCA426>3.0.CO;2-L|10.1002/PCA.1208|10.1002/pca.1208|10.1006/ANBO.1996.0133|10.1007/BF02980677|10.1016/0031-9422(84)83093-9|10.1016/0031-9422(95)00696-6|10.1016/0031-9422(96)00353-6|10.1016/0040-4020(95)00724-M|10.1016/S0031-9422(97)00378-6|10.1016/S0040-4039(01)81504-5|10.1016/s0031-9422(00)85975-0|10.1021/JF021049M|10.1021/JF950283S|10.1021/NP100783K|10.1021/NP50043A005|10.1021/NP50055A030|10.1021/np100783k|10.1039/A709295D|10.1080/10575639808041205|10.1080/10826079508010463|10.1093/JEE/75.6.1109|10.1246/CL.1995.995|10.1271/BBB.56.1835|10.1271/BBB.59.1755|10.3987/COM-95-7240|10.3987/COM-96-7468|10.3987/REV-98-SR(H)5

>  <synonyms>  (1375) 
(2aR,3R,5S,5aR,6R,6aR,8R,9aR,10aS,10bR,10cR)-3-(acetyloxy)-8-(furan-3-yl)-6-(2-methoxy-2-oxoethyl)-2a,5a,6a,7-tetramethyl-2a,4,5,5a,6,6a,8,9,9a,10a,10b,10c-dodecahydro-2H,3H-cyclopenta[d]naphtho[2,3-b:1,8-b'c']difuran-5-yl (2E)-2-methylbut-2-enoate|2H,3H-Cyclopenta(d')naphtho(1,8-bc:2,3-b')difuran-6-acetic acid, 3-(acetyloxy)-8-(3-furanyl)-2a,4,5,5a,6,6a,8,9,9a,10a,10b,10c-dodecahydro-2a,5a,6a,7-tetramethyl-5-(((2E)-2-methyl-1-oxo-2-butenyl)oxy)-, methyl ester, (2aR,3R,5S,5aR,6R,6aR,8R,9aR,10aS,10bR,10cR)-|2H,3H-Cyclopenta(d')naphtho(1,8-bc:2,3-b')difuran-6-acetic acid, 3-(acetyloxy)-8-(3-furanyl)-2a,4,5,5a,6,6a,8,9,9a,10a,10b,10c-dodecahydro-2a,5a,6a,7-tetramethyl-5-((2-methyl-1-oxo-2-butenyl)oxy)-, methyl ester, (2aalpha,3beta,5beta(E), 5aalpha,6alpha,6aalpha,8beta,9abeta,10aalpha,10balpha,10cbeta)-(+)-|992-20-1|AKOS040753900|AT40293|Azadirachtin, Neem|Azadriactin|BDBM92411|CHEBI:67309|CHEMBL3823041|CJHBVBNPNXOWBA-REXVOHEDSA-N|CS-0079900|Caswell No. 594A|DTXSID6058500|HY-123026|MS-30583|Margosan-O; Azadriactin|Q27104942|SALANNIN(P)|SCHEMBL19588463|[(1R,2S,4R,6R,9R,10R,11R,12S,14R,15R,18R)-14-acetyloxy-6-(furan-3-yl)-10-(2-methoxy-2-oxoethyl)-7,9,11,15-tetramethyl-3,17-dioxapentacyclo[9.6.1.02,9.04,8.015,18]octadec-7-en-12-yl] (E)-2-methylbut-2-enoate|salannin

>  <cas>  (1375) 
992-20-1

$$$$

     RDKit          2D

 39 42  0  0  0  0  0  0  0  0999 V2000
    8.0164   -2.2911    0.0000 C   0  0  0  0  0  0  0  0  0  0  0  0
    7.9986   -0.7912    0.0000 C   0  0  0  0  0  0  0  0  0  0  0  0
    6.6908   -0.0567    0.0000 C   0  0  0  0  0  0  0  0  0  0  0  0
    6.6730    1.4432    0.0000 C   0  0  0  0  0  0  0  0  0  0  0  0
    5.4007   -0.8221    0.0000 C   0  0  0  0  0  0  0  0  0  0  0  0
    4.0929   -0.0875    0.0000 C   0  0  0  0  0  0  0  0  0  0  0  0
    2.1121   -0.7395    0.0000 C   0  0  0  0  0  0  0  0  0  0  0  0
    3.7806   -1.9904    0.0000 C   0  0  0  0  0  0  0  0  0  0  0  0
    2.2731    0.5505    0.0000 C   0  0  0  0  0  0  0  0  0  0  0  0
    3.2236    1.7109    0.0000 C   0  0  0  0  0  0  0  0  0  0  0  0
    2.6939    3.1143    0.0000 C   0  0  0  0  0  0  0  0  0  0  0  0
    3.6444    4.2747    0.0000 O   0  0  0  0  0  0  0  0  0  0  0  0
    1.2137    3.3572    0.0000 C   0  0  0  0  0  0  0  0  0  0  0  0
    0.2632    2.1968    0.0000 C   0  0  0  0  0  0  0  0  0  0  0  0
   -1.2351    2.1267    0.0000 C   0  0  0  0  0  0  0  0  0  0  0  0
   -2.1726    3.2977    0.0000 O   0  0  0  0  0  0  0  0  0  0  0  0
   -3.6554    3.0713    0.0000 C   0  0  0  0  0  0  0  0  0  0  0  0
   -4.5928    4.2423    0.0000 C   0  0  0  0  0  0  0  0  0  0  0  0
   -4.2008    1.6740    0.0000 O   0  0  0  0  0  0  0  0  0  0  0  0
   -1.6314    0.6800    0.0000 O   0  0  0  0  0  0  0  0  0  0  0  0
   -0.3780   -0.1440    0.0000 C   0  0  0  0  0  0  0  0  0  0  0  0
   -0.3079   -1.6424    0.0000 O   0  0  0  0  0  0  0  0  0  0  0  0
   -1.5705   -2.4523    0.0000 C   0  0  0  0  0  0  0  0  0  0  0  0
   -1.5004   -3.9506    0.0000 C   0  0  0  0  0  0  0  0  0  0  0  0
   -3.0301   -2.1067    0.0000 O   0  0  0  0  0  0  0  0  0  0  0  0
    0.7930    0.7934    0.0000 C   0  0  0  0  0  0  0  0  0  0  0  0
    0.5332   -0.4803    0.0000 C   0  0  0  0  0  0  0  0  0  0  0  0
   -1.6377   -0.1240    0.0000 O   0  0  0  0  0  0  0  0  0  0  0  0
   -2.5882   -1.2845    0.0000 C   0  0  0  0  0  0  0  0  0  0  0  0
   -2.4138   -2.7743    0.0000 O   0  0  0  0  0  0  0  0  0  0  0  0
   -4.0684   -1.0415    0.0000 C   0  0  0  0  0  0  0  0  0  0  0  0
   -4.5981    0.3618    0.0000 C   0  0  0  0  0  0  0  0  0  0  0  0
   -6.0783    0.6048    0.0000 C   0  0  0  0  0  0  0  0  0  0  0  0
   -7.0288   -0.5556    0.0000 C   0  0  0  0  0  0  0  0  0  0  0  0
   -6.4991   -1.9590    0.0000 C   0  0  0  0  0  0  0  0  0  0  0  0
   -5.0189   -2.2019    0.0000 C   0  0  0  0  0  0  0  0  0  0  0  0
    0.8157   -1.2288    0.0000 C   0  0  0  0  0  0  0  0  0  0  0  0
    1.6052   -1.3584    0.0000 C   0  0  0  0  0  0  0  0  0  0  0  0
    2.3821   -3.4166    0.0000 C   0  0  0  0  0  0  0  0  0  0  0  0
  1  2  2  0
  2  3  1  0
  3  4  1  0
  3  5  2  0
  5  6  1  0
  6  7  1  0
  7  8  1  6
  7  9  1  0
  9 10  1  6
 10 11  1  0
 11 12  1  6
 11 13  1  0
 13 14  2  0
 14 15  1  0
 15 16  1  1
 16 17  1  0
 17 18  1  0
 17 19  2  0
 15 20  1  0
 20 21  1  0
 21 22  1  6
 22 23  1  0
 23 24  1  0
 23 25  2  0
 21 26  1  0
 26 27  1  0
 27 28  1  1
 28 29  1  0
 29 30  2  0
 29 31  1  0
 31 32  2  0
 32 33  1  0
 33 34  2  0
 34 35  1  0
 35 36  2  0
 27 37  1  0
 37 38  1  0
 38 39  1  1
 38  7  1  0
 26  9  1  0
 36 31  1  0
 26 14  1  6
M  END
>  <identifier>  (1376) 
CNP0350748.1

>  <canonical_smiles>  (1376) 
C=C/C(C)=C/C[C@]1(C)[C@H]2C[C@@H](O)C=C3[C@H](OC(C)=O)O[C@@H](OC(C)=O)[C@@]32[C@H](OC(=O)C2=CC=CC=C2)C[C@@H]1C

>  <standard_inchi>  (1376) 
InChI=1S/C31H38O8/c1-7-18(2)13-14-30(6)19(3)15-26(38-27(35)22-11-9-8-10-12-22)31-24(16-23(34)17-25(30)31)28(36-20(4)32)39-29(31)37-21(5)33/h7-13,16,19,23,25-26,28-29,34H,1,14-15,17H2,2-6H3/b18-13+/t19-,23-,25+,26+,28+,29+,30-,31-/m0/s1

>  <standard_inchi_key>  (1376) 
VGCCUPIWJIILLU-QPNANIHJSA-N

>  <name>  (1376) 
nan

>  <iupac_name>  (1376) 
[(1~{S},3~{S},5~{R},6~{a}~{R},7~{S},8~{S},10~{R},10~{a}~{R})-1,3-diacetoxy-5-hydroxy-7,8-dimethyl-7-[(2~{E})-3-methylpenta-2,4-dienyl]-1,3,5,6,6~{a},8,9,10-octahydrobenzo[d]isobenzofuran-10-yl] benzoate

>  <annotation_level>  (1376) 
5

>  <total_atom_count>  (1376) 
77

>  <heavy_atom_count>  (1376) 
39

>  <molecular_weight>  (1376) 
538.64

>  <exact_molecular_weight>  (1376) 
538.25667

>  <molecular_formula>  (1376) 
C31H38O8

>  <alogp>  (1376) 
4.88

>  <topological_polar_surface_area>  (1376) 
108.36

>  <rotatable_bond_count>  (1376) 
7

>  <hydrogen_bond_acceptors>  (1376) 
8

>  <hydrogen_bond_donors>  (1376) 
1

>  <hydrogen_bond_acceptors_lipinski>  (1376) 
8

>  <hydrogen_bond_donors_lipinski>  (1376) 
1

>  <lipinski_rule_of_five_violations>  (1376) 
1

>  <aromatic_rings_count>  (1376) 
1

>  <qed_drug_likeliness>  (1376) 
0.23

>  <formal_charge>  (1376) 
0

>  <fractioncsp3>  (1376) 
0.52

>  <number_of_minimal_rings>  (1376) 
4

>  <van_der_walls_volume>  (1376) 
494.79

>  <contains_sugar>  (1376) 
False

>  <contains_ring_sugars>  (1376) 
False

>  <contains_linear_sugars>  (1376) 
False

>  <murcko_framework>  (1376) 
O1CC2=CCCC3CCCC(OCc4ccccc4)C23C1

>  <np_likeness>  (1376) 
3.04

>  <chemical_class>  (1376) 
Prenol lipids

>  <chemical_sub_class>  (1376) 
Diterpenoids

>  <chemical_super_class>  (1376) 
Lipids and lipid-like molecules

>  <direct_parent_classification>  (1376) 
Colensane and clerodane diterpenoids

>  <np_classifier_pathway>  (1376) 
Terpenoids

>  <np_classifier_superclass>  (1376) 
Diterpenoids

>  <np_classifier_class>  (1376) 
Colensane and Clerodane diterpenoids

>  <np_classifier_is_glycoside>  (1376) 
True

>  <organisms>  (1376) 
Casearia obliqua

>  <collections>  (1376) 
ChemSpider NPs|Latin America dataset|NuBBEDB|Super Natural II|WikiData Natural Products|ZINC NP

>  <dois>  (1376) 
10.1021/NP9004079|10.1021/np9004079

>  <synonyms>  (1376) 
Rel-2\u221a\u00e9\u00ac\u00b1-hydroxyzuelanin-6\u221a\u00e9\u00ac\u2264-benzoate

>  <cas>  (1376) 
nan

$$$$

     RDKit          2D

 21 23  0  0  0  0  0  0  0  0999 V2000
   -5.0595    0.6382    0.0000 C   0  0  0  0  0  0  0  0  0  0  0  0
   -4.7845   -0.8364    0.0000 C   0  0  0  0  0  0  0  0  0  0  0  0
   -5.9240   -1.8119    0.0000 C   0  0  0  0  0  0  0  0  0  0  0  0
   -3.3700   -1.3355    0.0000 C   0  0  0  0  0  0  0  0  0  0  0  0
   -3.0950   -2.8101    0.0000 O   0  0  0  0  0  0  0  0  0  0  0  0
   -2.2305   -0.3601    0.0000 C   0  0  0  0  0  0  0  0  0  0  0  0
   -0.8159   -0.8592    0.0000 O   0  0  0  0  0  0  0  0  0  0  0  0
    0.3236    0.1163    0.0000 C   0  0  0  0  0  0  0  0  0  0  0  0
    0.0485    1.5909    0.0000 C   0  0  0  0  0  0  0  0  0  0  0  0
   -1.2313    2.3732    0.0000 O   0  0  0  0  0  0  0  0  0  0  0  0
   -0.8828    3.8321    0.0000 C   0  0  0  0  0  0  0  0  0  0  0  0
    0.6124    3.9515    0.0000 C   0  0  0  0  0  0  0  0  0  0  0  0
    1.1880    2.5663    0.0000 C   0  0  0  0  0  0  0  0  0  0  0  0
    2.6026    2.0672    0.0000 C   0  0  0  0  0  0  0  0  0  0  0  0
    2.8776    0.5927    0.0000 C   0  0  0  0  0  0  0  0  0  0  0  0
    1.7381   -0.3828    0.0000 C   0  0  0  0  0  0  0  0  0  0  0  0
    2.0131   -1.8574    0.0000 O   0  0  0  0  0  0  0  0  0  0  0  0
    3.4276   -2.3565    0.0000 C   0  0  0  0  0  0  0  0  0  0  0  0
    3.7027   -3.8311    0.0000 O   0  0  0  0  0  0  0  0  0  0  0  0
    4.5671   -1.3810    0.0000 C   0  0  0  0  0  0  0  0  0  0  0  0
    4.2921    0.0935    0.0000 C   0  0  0  0  0  0  0  0  0  0  0  0
  1  2  2  0
  2  3  1  0
  2  4  1  0
  4  5  1  6
  4  6  1  0
  6  7  1  0
  7  8  1  0
  8  9  2  0
  9 10  1  0
 10 11  1  0
 11 12  2  0
 12 13  1  0
 13 14  2  0
 14 15  1  0
 15 16  2  0
 16 17  1  0
 17 18  1  0
 18 19  2  0
 18 20  1  0
 20 21  2  0
 16  8  1  0
 13  9  1  0
 21 15  1  0
M  END
>  <identifier>  (1377) 
CNP0126452.1

>  <canonical_smiles>  (1377) 
C=C(C)[C@@H](O)COC1=C2OC=CC2=CC2=C1OC(=O)C=C2

>  <standard_inchi>  (1377) 
InChI=1S/C16H14O5/c1-9(2)12(17)8-20-16-14-11(5-6-19-14)7-10-3-4-13(18)21-15(10)16/h3-7,12,17H,1,8H2,2H3/t12-/m0/s1

>  <standard_inchi_key>  (1377) 
RTUPRHIHXSAWDP-LBPRGKRZSA-N

>  <name>  (1377) 
HY-N3480

>  <iupac_name>  (1377) 
9-[(2~{R})-2-hydroxy-3-methyl-but-3-enoxy]furo[3,2-g]chromen-7-one

>  <annotation_level>  (1377) 
5

>  <total_atom_count>  (1377) 
35

>  <heavy_atom_count>  (1377) 
21

>  <molecular_weight>  (1377) 
286.28

>  <exact_molecular_weight>  (1377) 
286.08412

>  <molecular_formula>  (1377) 
C16H14O5

>  <alogp>  (1377) 
2.86

>  <topological_polar_surface_area>  (1377) 
72.81

>  <rotatable_bond_count>  (1377) 
4

>  <hydrogen_bond_acceptors>  (1377) 
5

>  <hydrogen_bond_donors>  (1377) 
1

>  <hydrogen_bond_acceptors_lipinski>  (1377) 
5

>  <hydrogen_bond_donors_lipinski>  (1377) 
1

>  <lipinski_rule_of_five_violations>  (1377) 
0

>  <aromatic_rings_count>  (1377) 
3

>  <qed_drug_likeliness>  (1377) 
0.59

>  <formal_charge>  (1377) 
0

>  <fractioncsp3>  (1377) 
0.19

>  <number_of_minimal_rings>  (1377) 
3

>  <van_der_walls_volume>  (1377) 
246.76

>  <contains_sugar>  (1377) 
False

>  <contains_ring_sugars>  (1377) 
False

>  <contains_linear_sugars>  (1377) 
False

>  <murcko_framework>  (1377) 
o1ccc2cc3C=CCOc3cc12

>  <np_likeness>  (1377) 
1.88

>  <chemical_class>  (1377) 
Coumarins and derivatives

>  <chemical_sub_class>  (1377) 
Furanocoumarins

>  <chemical_super_class>  (1377) 
Phenylpropanoids and polyketides

>  <direct_parent_classification>  (1377) 
Psoralens

>  <np_classifier_pathway>  (1377) 
Shikimates and Phenylpropanoids

>  <np_classifier_superclass>  (1377) 
Coumarins

>  <np_classifier_class>  (1377) 
Furocoumarins

>  <np_classifier_is_glycoside>  (1377) 
False

>  <organisms>  (1377) 
Heracleum candicans|Heracleum candicans WALL.|Metrodorea nigra|Pleurospermum rivulorum|Prangos pabularia|Skimmia laureola

>  <collections>  (1377) 
Australian natural products|KNApSaCK|Latin America dataset|NuBBEDB|Super Natural II|TCMDB-Taiwan (Traditional Chinese Medicine database)|WikiData Natural Products|ZINC NP

>  <dois>  (1377) 
10.1007/S11418-008-0266-8|10.1016/0031-9422(95)00504-Z|10.1016/S0031-9422(02)00023-7|10.1016/j.bse.2004.12.020|10.1515/ZNB-2009-0418

>  <synonyms>  (1377) 
AKOS040761888|CS-0024349|Isogosferol|Isogospherol

>  <cas>  (1377) 
nan

$$$$

     RDKit          2D

 26 28  0  0  0  0  0  0  0  0999 V2000
    5.1319   -3.6758    0.0000 C   0  0  0  0  0  0  0  0  0  0  0  0
    5.1478   -2.1759    0.0000 O   0  0  0  0  0  0  0  0  0  0  0  0
    3.8567   -1.4122    0.0000 C   0  0  0  0  0  0  0  0  0  0  0  0
    2.5498   -2.1484    0.0000 C   0  0  0  0  0  0  0  0  0  0  0  0
    1.2588   -1.3847    0.0000 C   0  0  0  0  0  0  0  0  0  0  0  0
    1.2747    0.1152    0.0000 C   0  0  0  0  0  0  0  0  0  0  0  0
   -0.0164    0.8789    0.0000 C   0  0  0  0  0  0  0  0  0  0  0  0
   -0.0005    2.3788    0.0000 C   0  0  0  0  0  0  0  0  0  0  0  0
    1.3064    3.1150    0.0000 C   0  0  0  0  0  0  0  0  0  0  0  0
   -1.2915    3.1425    0.0000 C   0  0  0  0  0  0  0  0  0  0  0  0
   -1.2757    4.6424    0.0000 C   0  0  0  0  0  0  0  0  0  0  0  0
   -2.5984    2.4063    0.0000 C   0  0  0  0  0  0  0  0  0  0  0  0
   -3.8895    3.1700    0.0000 O   0  0  0  0  0  0  0  0  0  0  0  0
   -2.6143    0.9063    0.0000 C   0  0  0  0  0  0  0  0  0  0  0  0
   -1.3233    0.1427    0.0000 C   0  0  0  0  0  0  0  0  0  0  0  0
   -1.3391   -1.3573    0.0000 C   0  0  0  0  0  0  0  0  0  0  0  0
   -2.6460   -2.0935    0.0000 C   0  0  0  0  0  0  0  0  0  0  0  0
   -2.9734   -3.5573    0.0000 O   0  0  0  0  0  0  0  0  0  0  0  0
   -4.4667   -3.6983    0.0000 C   0  0  0  0  0  0  0  0  0  0  0  0
   -5.0623   -2.3216    0.0000 O   0  0  0  0  0  0  0  0  0  0  0  0
   -3.9370   -1.3298    0.0000 C   0  0  0  0  0  0  0  0  0  0  0  0
   -3.9212    0.1701    0.0000 C   0  0  0  0  0  0  0  0  0  0  0  0
    2.5816    0.8514    0.0000 C   0  0  0  0  0  0  0  0  0  0  0  0
    3.8726    0.0877    0.0000 C   0  0  0  0  0  0  0  0  0  0  0  0
    5.1795    0.8239    0.0000 O   0  0  0  0  0  0  0  0  0  0  0  0
    5.1954    2.3238    0.0000 C   0  0  0  0  0  0  0  0  0  0  0  0
  1  2  1  0
  2  3  1  0
  3  4  2  0
  4  5  1  0
  5  6  2  0
  6  7  1  0
  7  8  1  0
  8  9  1  1
  8 10  1  0
 10 11  1  1
 10 12  1  0
 12 13  2  0
 12 14  1  0
 14 15  2  0
 15 16  1  0
 16 17  2  0
 17 18  1  0
 18 19  1  0
 19 20  1  0
 20 21  1  0
 21 22  2  0
  6 23  1  0
 23 24  2  0
 24 25  1  0
 25 26  1  0
 24  3  1  0
 22 14  1  0
 21 17  1  0
M  END
>  <identifier>  (1378) 
CNP0128970.2

>  <canonical_smiles>  (1378) 
COC1=CC=C(C[C@H](C)[C@H](C)C(=O)C2=CC=C3OCOC3=C2)C=C1OC

>  <standard_inchi>  (1378) 
InChI=1S/C21H24O5/c1-13(9-15-5-7-17(23-3)19(10-15)24-4)14(2)21(22)16-6-8-18-20(11-16)26-12-25-18/h5-8,10-11,13-14H,9,12H2,1-4H3/t13-,14-/m0/s1

>  <standard_inchi_key>  (1378) 
GRBCXNICXUJJIW-KBPBESRZSA-N

>  <name>  (1378) 
nan

>  <iupac_name>  (1378) 
(2~{S},3~{S})-1-(1,3-benzodioxol-5-yl)-4-(3,4-dimethoxyphenyl)-2,3-dimethyl-butan-1-one

>  <annotation_level>  (1378) 
4

>  <total_atom_count>  (1378) 
50

>  <heavy_atom_count>  (1378) 
26

>  <molecular_weight>  (1378) 
356.42

>  <exact_molecular_weight>  (1378) 
356.16237

>  <molecular_formula>  (1378) 
C21H24O5

>  <alogp>  (1378) 
4.13

>  <topological_polar_surface_area>  (1378) 
53.99

>  <rotatable_bond_count>  (1378) 
7

>  <hydrogen_bond_acceptors>  (1378) 
5

>  <hydrogen_bond_donors>  (1378) 
0

>  <hydrogen_bond_acceptors_lipinski>  (1378) 
5

>  <hydrogen_bond_donors_lipinski>  (1378) 
0

>  <lipinski_rule_of_five_violations>  (1378) 
0

>  <aromatic_rings_count>  (1378) 
2

>  <qed_drug_likeliness>  (1378) 
0.70

>  <formal_charge>  (1378) 
0

>  <fractioncsp3>  (1378) 
0.38

>  <number_of_minimal_rings>  (1378) 
3

>  <van_der_walls_volume>  (1378) 
nan

>  <contains_sugar>  (1378) 
False

>  <contains_ring_sugars>  (1378) 
False

>  <contains_linear_sugars>  (1378) 
False

>  <murcko_framework>  (1378) 
O1c2ccc(cc2OC1)CCCCc3ccccc3

>  <np_likeness>  (1378) 
0.39

>  <chemical_class>  (1378) 
Dibenzylbutane lignans

>  <chemical_sub_class>  (1378) 
Dibenzylbutane lignans

>  <chemical_super_class>  (1378) 
Lignans, neolignans and related compounds

>  <direct_parent_classification>  (1378) 
Dibenzylbutane lignans

>  <np_classifier_pathway>  (1378) 
Shikimates and Phenylpropanoids

>  <np_classifier_superclass>  (1378) 
Lignans

>  <np_classifier_class>  (1378) 
Dibenzylbutane lignans

>  <np_classifier_is_glycoside>  (1378) 
False

>  <organisms>  (1378) 
Nectandra puberula

>  <collections>  (1378) 
Latin America dataset|NuBBEDB|WikiData Natural Products|ZINC NP

>  <dois>  (1378) 
10.1016/S0031-9422(00)81526-5

>  <synonyms>  (1378) 
(8S8'R)-3'4'-Dimethoxy-34-methylenedioxy-7-oxo-88'-neolignan

>  <cas>  (1378) 
nan

$$$$

     RDKit          2D

  7  6  0  0  0  0  0  0  0  0999 V2000
   -3.8971   -0.3214    0.0000 C   0  0  0  0  0  0  0  0  0  0  0  0
   -2.5981    0.4286    0.0000 C   0  0  0  0  0  0  0  0  0  0  0  0
   -1.2990   -0.3214    0.0000 C   0  0  0  0  0  0  0  0  0  0  0  0
    0.0000    0.4286    0.0000 S   0  0  0  0  0  0  0  0  0  0  0  0
    1.2990   -0.3214    0.0000 S   0  0  0  0  0  0  0  0  0  0  0  0
    2.5981    0.4286    0.0000 S   0  0  0  0  0  0  0  0  0  0  0  0
    3.8971   -0.3214    0.0000 C   0  0  0  0  0  0  0  0  0  0  0  0
  1  2  2  0
  2  3  1  0
  3  4  1  0
  4  5  1  0
  5  6  1  0
  6  7  1  0
M  END
>  <identifier>  (1379) 
CNP0338885.0

>  <canonical_smiles>  (1379) 
C=CCSSSC

>  <standard_inchi>  (1379) 
InChI=1S/C4H8S3/c1-3-4-6-7-5-2/h3H,1,4H2,2H3

>  <standard_inchi_key>  (1379) 
JGMPRNFEEAJLAJ-UHFFFAOYSA-N

>  <name>  (1379) 
ALLYL METHYL TRISULFIDE

>  <iupac_name>  (1379) 
3-(methyltrisulfanyl)prop-1-ene

>  <annotation_level>  (1379) 
5

>  <total_atom_count>  (1379) 
15

>  <heavy_atom_count>  (1379) 
7

>  <molecular_weight>  (1379) 
152.31

>  <exact_molecular_weight>  (1379) 
151.97881

>  <molecular_formula>  (1379) 
C4H8S3

>  <alogp>  (1379) 
2.83

>  <topological_polar_surface_area>  (1379) 
0.00

>  <rotatable_bond_count>  (1379) 
4

>  <hydrogen_bond_acceptors>  (1379) 
3

>  <hydrogen_bond_donors>  (1379) 
0

>  <hydrogen_bond_acceptors_lipinski>  (1379) 
3

>  <hydrogen_bond_donors_lipinski>  (1379) 
0

>  <lipinski_rule_of_five_violations>  (1379) 
0

>  <aromatic_rings_count>  (1379) 
0

>  <qed_drug_likeliness>  (1379) 
0.35

>  <formal_charge>  (1379) 
0

>  <fractioncsp3>  (1379) 
0.50

>  <number_of_minimal_rings>  (1379) 
0

>  <van_der_walls_volume>  (1379) 
128.86

>  <contains_sugar>  (1379) 
False

>  <contains_ring_sugars>  (1379) 
False

>  <contains_linear_sugars>  (1379) 
False

>  <murcko_framework>  (1379) 
nan

>  <np_likeness>  (1379) 
2.32

>  <chemical_class>  (1379) 
Organic trisulfides

>  <chemical_sub_class>  (1379) 
Organic trisulfides

>  <chemical_super_class>  (1379) 
Organosulfur compounds

>  <direct_parent_classification>  (1379) 
Organic trisulfides

>  <np_classifier_pathway>  (1379) 
nan

>  <np_classifier_superclass>  (1379) 
nan

>  <np_classifier_class>  (1379) 
nan

>  <np_classifier_is_glycoside>  (1379) 
False

>  <organisms>  (1379) 
Adenocalymma alliaceum|Allium cepa|Allium chinense|Allium macrochaetum|Allium macrostemon|Allium sativum|Allium victorialis|Aniba megaphylla|Berberis integerrima|Elephantopus angustifolius|Herbertus sakuraii|Isoplexis sceptrum|Libocedrus decurrens|Loranthus parasiticus|Mansoa alliacea|Nauclea latifolia|Ovibos moschatus|Rhodospirillum rubrum|garlic

>  <collections>  (1379) 
CMAUP (cCollective molecular activities of useful plants)|ETM (Ethiopian Traditional Medicine) DB|FooDB|Latin America dataset|NPASS|NPCARE|NuBBEDB|Super Natural II|TCMDB-Taiwan (Traditional Chinese Medicine database)|TCMID (Traditional Chinese Medicine Integrated Database)|UNPD (Universal Natural Products Database)|WikiData Natural Products|ZINC NP

>  <dois>  (1379) 
10.1016/0021-9673(94)80162-2|10.1016/0031-9422(84)83097-6|10.1021/JF00025A008|10.1021/JF00125A014|10.1021/JF9803076|10.1021/jf00125a014|10.1055/S-2007-969089|10.1080/10412905.1997.9700732|10.1186/1756-3305-7-184|10.3390/MOLECULES24050928

>  <synonyms>  (1379) 
1-Allyl-3-methyltrisulfane|1-methyl-3-(prop-2-en-1-yl)trisulfane|3-(methyltrisulfanyl)prop-1-ene|34135-85-8|4,5,6-Trithia-1-heptene|983O8ZL28A|A822088|ALLYL METHYL TRISULFIDE [FHFI]|Allyl methyl trisulphide|CCRIS 3265|CS-0163777|DB-003719|DTXSID30187717|EINECS 251-843-8|FEMA No. 3253|HY-134900|METHYL ALLYL TRISULFIDE [MI]|Methyl 2-propenyl trisulfide|Methyl allyl trisulfide|NS00054914|Q27272080|SCHEMBL534079|Trisulfide, allyl methyl|Trisulfide, methyl 2-propenyl|UNII-983O8ZL28A

>  <cas>  (1379) 
34135-85-8

$$$$

     RDKit          2D

 42 46  0  0  0  0  0  0  0  0999 V2000
   -9.0880    1.4853    0.0000 C   0  0  0  0  0  0  0  0  0  0  0  0
   -7.7524    0.8024    0.0000 C   0  0  0  0  0  0  0  0  0  0  0  0
   -6.4933    1.6177    0.0000 O   0  0  0  0  0  0  0  0  0  0  0  0
   -5.1577    0.9348    0.0000 C   0  0  0  0  0  0  0  0  0  0  0  0
   -3.8986    1.7501    0.0000 O   0  0  0  0  0  0  0  0  0  0  0  0
   -2.5630    1.0672    0.0000 C   0  0  0  0  0  0  0  0  0  0  0  0
   -1.3039    1.8824    0.0000 C   0  0  0  0  0  0  0  0  0  0  0  0
    0.0317    1.1996    0.0000 O   0  0  0  0  0  0  0  0  0  0  0  0
    1.2908    2.0148    0.0000 C   0  0  0  0  0  0  0  0  0  0  0  0
    2.6264    1.3320    0.0000 O   0  0  0  0  0  0  0  0  0  0  0  0
    2.7028   -0.1661    0.0000 C   0  0  0  0  0  0  0  0  0  0  0  0
    4.0384   -0.8489    0.0000 C   0  0  0  0  0  0  0  0  0  0  0  0
    5.2975   -0.0337    0.0000 C   0  0  0  0  0  0  0  0  0  0  0  0
    5.2211    1.4644    0.0000 C   0  0  0  0  0  0  0  0  0  0  0  0
    6.4802    2.2796    0.0000 C   0  0  0  0  0  0  0  0  0  0  0  0
    7.8158    1.5968    0.0000 C   0  0  0  0  0  0  0  0  0  0  0  0
    9.0749    2.4120    0.0000 O   0  0  0  0  0  0  0  0  0  0  0  0
    7.8922    0.0987    0.0000 C   0  0  0  0  0  0  0  0  0  0  0  0
    6.6331   -0.7165    0.0000 C   0  0  0  0  0  0  0  0  0  0  0  0
    4.1148   -2.3469    0.0000 O   0  0  0  0  0  0  0  0  0  0  0  0
    2.8557   -3.1622    0.0000 C   0  0  0  0  0  0  0  0  0  0  0  0
    2.9321   -4.6602    0.0000 C   0  0  0  0  0  0  0  0  0  0  0  0
    1.6730   -5.4754    0.0000 C   0  0  0  0  0  0  0  0  0  0  0  0
    1.7494   -6.9735    0.0000 O   0  0  0  0  0  0  0  0  0  0  0  0
    0.3374   -4.7926    0.0000 C   0  0  0  0  0  0  0  0  0  0  0  0
    0.2610   -3.2946    0.0000 C   0  0  0  0  0  0  0  0  0  0  0  0
   -1.0746   -2.6117    0.0000 O   0  0  0  0  0  0  0  0  0  0  0  0
    1.5201   -2.4793    0.0000 C   0  0  0  0  0  0  0  0  0  0  0  0
    1.4437   -0.9813    0.0000 C   0  0  0  0  0  0  0  0  0  0  0  0
    0.1081   -0.2984    0.0000 O   0  0  0  0  0  0  0  0  0  0  0  0
    1.2144    3.5129    0.0000 C   0  0  0  0  0  0  0  0  0  0  0  0
    2.4735    4.3281    0.0000 O   0  0  0  0  0  0  0  0  0  0  0  0
   -0.1212    4.1957    0.0000 C   0  0  0  0  0  0  0  0  0  0  0  0
   -0.1976    5.6938    0.0000 O   0  0  0  0  0  0  0  0  0  0  0  0
   -1.3803    3.3805    0.0000 C   0  0  0  0  0  0  0  0  0  0  0  0
   -2.7159    4.0633    0.0000 O   0  0  0  0  0  0  0  0  0  0  0  0
   -5.0813   -0.5632    0.0000 C   0  0  0  0  0  0  0  0  0  0  0  0
   -3.7457   -1.2461    0.0000 O   0  0  0  0  0  0  0  0  0  0  0  0
   -6.3404   -1.3784    0.0000 C   0  0  0  0  0  0  0  0  0  0  0  0
   -6.2640   -2.8765    0.0000 O   0  0  0  0  0  0  0  0  0  0  0  0
   -7.6760   -0.6956    0.0000 C   0  0  0  0  0  0  0  0  0  0  0  0
   -8.9351   -1.5108    0.0000 O   0  0  0  0  0  0  0  0  0  0  0  0
  2  1  1  6
  2  3  1  0
  3  4  1  0
  4  5  1  1
  5  6  1  0
  7  6  1  6
  7  8  1  0
  8  9  1  0
  9 10  1  6
 10 11  1  0
 11 12  2  0
 12 13  1  0
 13 14  2  0
 14 15  1  0
 15 16  2  0
 16 17  1  0
 16 18  1  0
 18 19  2  0
 12 20  1  0
 20 21  1  0
 21 22  2  0
 22 23  1  0
 23 24  1  0
 23 25  2  0
 25 26  1  0
 26 27  1  0
 26 28  2  0
 28 29  1  0
 29 30  2  0
  9 31  1  0
 31 32  1  1
 31 33  1  0
 33 34  1  6
 33 35  1  0
 35 36  1  1
  4 37  1  0
 37 38  1  6
 37 39  1  0
 39 40  1  6
 39 41  1  0
 41 42  1  1
 41  2  1  0
 35  7  1  0
 29 11  1  0
 19 13  1  0
 28 21  1  0
M  END
>  <identifier>  (1380) 
CNP0222584.2

>  <canonical_smiles>  (1380) 
C[C@@H]1O[C@@H](OC[C@H]2O[C@@H](OC3=C(C4=CC=C(O)C=C4)OC4=CC(O)=CC(O)=C4C3=O)[C@H](O)[C@@H](O)[C@@H]2O)[C@H](O)[C@H](O)[C@H]1O

>  <standard_inchi>  (1380) 
InChI=1S/C27H30O15/c1-9-17(31)20(34)22(36)26(39-9)38-8-15-18(32)21(35)23(37)27(41-15)42-25-19(33)16-13(30)6-12(29)7-14(16)40-24(25)10-2-4-11(28)5-3-10/h2-7,9,15,17-18,20-23,26-32,34-37H,8H2,1H3/t9-,15+,17-,18+,20+,21-,22+,23+,26+,27-/m0/s1

>  <standard_inchi_key>  (1380) 
RTATXGUCZHCSNG-QHWHWDPRSA-N

>  <name>  (1380) 
Nicotiflorin

>  <iupac_name>  (1380) 
5,7-dihydroxy-2-(4-hydroxyphenyl)-3-[(2~{S},3~{R},4~{S},5~{S},6~{R})-3,4,5-trihydroxy-6-[[(2~{R},3~{R},4~{R},5~{R},6~{S})-3,4,5-trihydroxy-6-methyl-tetrahydropyran-2-yl]oxymethyl]tetrahydropyran-2-yl]oxy-chromen-4-one

>  <annotation_level>  (1380) 
5

>  <total_atom_count>  (1380) 
72

>  <heavy_atom_count>  (1380) 
42

>  <molecular_weight>  (1380) 
594.52

>  <exact_molecular_weight>  (1380) 
594.15847

>  <molecular_formula>  (1380) 
C27H30O15

>  <alogp>  (1380) 
-1.39

>  <topological_polar_surface_area>  (1380) 
249.20

>  <rotatable_bond_count>  (1380) 
6

>  <hydrogen_bond_acceptors>  (1380) 
15

>  <hydrogen_bond_donors>  (1380) 
9

>  <hydrogen_bond_acceptors_lipinski>  (1380) 
15

>  <hydrogen_bond_donors_lipinski>  (1380) 
9

>  <lipinski_rule_of_five_violations>  (1380) 
3

>  <aromatic_rings_count>  (1380) 
3

>  <qed_drug_likeliness>  (1380) 
0.16

>  <formal_charge>  (1380) 
0

>  <fractioncsp3>  (1380) 
0.44

>  <number_of_minimal_rings>  (1380) 
5

>  <van_der_walls_volume>  (1380) 
484.82

>  <contains_sugar>  (1380) 
True

>  <contains_ring_sugars>  (1380) 
True

>  <contains_linear_sugars>  (1380) 
False

>  <murcko_framework>  (1380) 
O1c2ccccc2CC(OC3OC(COC4OCCCC4)CCC3)=C1c5ccccc5

>  <np_likeness>  (1380) 
1.94

>  <chemical_class>  (1380) 
Flavonoids

>  <chemical_sub_class>  (1380) 
Flavonoid glycosides

>  <chemical_super_class>  (1380) 
Phenylpropanoids and polyketides

>  <direct_parent_classification>  (1380) 
Flavonoid-3-O-glycosides

>  <np_classifier_pathway>  (1380) 
Shikimates and Phenylpropanoids

>  <np_classifier_superclass>  (1380) 
Flavonoids

>  <np_classifier_class>  (1380) 
Flavonols

>  <np_classifier_is_glycoside>  (1380) 
True

>  <organisms>  (1380) 
Abies nephrolepis|Acacia cambagei|Acalypha hispida|Acalypha indica|Acamptopappus shockleyi|Acer glabrum|Achillea collina|Acicarpha tribuloides|Acnistus breviflorus|Aconitum brevicalcaratum|Acorus gramineus|Acorus tatarinowii|Actinidia chinensis var. deliciosa|Actinidia chinensis var. hispida|Actinidia deliciosa|Actinobacillus pleuropneumoniae|Adiantum Capillus|Agave Americana|Agrimonia eupatoria|Akebia quinata|Alangium platanifolium|Albizia inundata|Alchornea cordifolia|Alexandrium excavatum|Alkanna cappadocica|Alkanna orientalis|Allium triquetrum|Allium victorialis|Alpinia zerumbet|Alstonia undulifolia|Amaranthus caudatus|Amaranthus hypochondriacus|Amborella trichopoda|Ammodendron conollyi|Amomum daniellii|Amoora yunnanensis|Amphilophis odorata|Anigozanthos pulcherrimus|Anigozanthos rufus|Anisodus luridus|Annona rensoniana|Anthemis cotula|Arachniodes dimorphophylla|Aristeguietia discolor|Aristeguietia gayana|Aristolochia Kaempferi|Aristolochia cucurbitifolia|Aristolochia kaempferi|Aristolochia maxima|Arnica viscosa|Artemisia alba|Artemisia dentata|Artemisia igniaria|Artemisia vachanica|Artemisia vulgaris|Artocarpus altilis|Aruncus dioicus|Ascarina lucida|Aspilia parvifolia|Aster alpinus|Aster heliopsis|Aster indicus|Aster koraiensis|Asteriscus aquaticus|Astilbe chinensis|Astilbe rubra|Astilbe thunbergii|Astragalus adsurgens|Astragalus armatus|Astragalus complanatus|Astragalus laxmannii|Astragalus onobrychis|Astragalus sieberi|Astragalus sosnowskyi|Astragalus verrucosus|Astrantia sp.|Atalantia racemosa|Atalantia wightii|Athanasia dregeana|Attagenus elongatulus|Azadirachta indica|Baccharis solieri|Balanophora japonica|Bambara groundnut|Barringtonia acutangula|Beaumontia grandiflora|Berberis crataegina|Berberis repens|Berchemia floribunda|Berchemia racemosa|Bergenia crassifolia|Bergenia purpurascens|Betula mandshurica|Betula platyphylla|Bischofia trifoliata|Bitter bush|Boopis graminea|Botryosphaeria berengeriana|Brachyglottis cassinioides|Bruguiera rhynchopetala|Buddleja cordata|Buphane fischeri|Bupleurum chinense|Bupleurum montanum|Burkholderia cepacia|Calcarisporium thermophilum|Calceolaria thyrsiflora|Calophyllum thwaitesii|Calycera eryngioides|Calycera herbacea|Calycera leucanthema|Calycera sympaganthera|Calystegia hederacea|Calystegia pubescens|Camellia Sinensis|Camellia reticulata|Camellia sinensis|Campanula barbata|Capparis decidua|Capparis orientalis|Capparis ovata|Capparis spinosa|Caragana tibetica|Cardamine komarovii|Carthamus Tinctorius|Carthamus tinctorius|Casimiroa tetrameria|Cassia Hirsuta|Cassine papillosa|Cathormion altissimum|Celastrus hindsii|Centaurea hierapolitana|Centaurea solstitialis|Centipeda minima|Cephalotaxus harringtonii var. harringtonii|Cephalotus follicularis|Chara ceratophylla|Charpentiera obovata|Chelidonium majus|Chimarrhis turbinata|Chromolaena moritziana|Chrozophora brocchiana|Chrozophora obliqua|Chrozophora plicata|Chrozophora rottleri|Chrozophora tinctoria|Chrozophora verbascifolia|Chrysolina fastuosa|Chuquiraga atacamensis|Chuquiraga parviflora|Chuquiraga spinosa|Chuquiraga straminea|Cinnamomum subavenium|Cinnamomum zeylanicum|Cinnamon|Cirsium dipsacolepis|Cistus creticus|Cistus ladanifer|Clathria prolifera|Clausena excavata|Clematis terniflora|Clibadium glabrescens|Clibadium laxum|Clibadium microcephalum|Clibadium sodiroi|Clibadium surinamense|Clibadium terebinthinaceum|Clitoria Ternatea|Clitoria ternatea|Cocculus diversifolius|Colubrina Asiatica|Colubrina asiatica|Conus pulicarius|Conyza filaginoides|Coptis trifolia subsp. groenlandica|Coreopsis auriculata|Coreopsis basalis|Coreopsis grandiflora|Coreopsis intermedia|Coreopsis lanceolata|Coreopsis nuecensis|Coreopsis nuecensoides|Coreopsis pubescens|Coreopsis wrightii|Corydalis densiflora|Corydalis persica|Corynanthe pachyceras|Cosmos diversifolius|Cota tinctoria|Cotoneaster orbicularis|Craibiodendron yunnanense|Crambe tatarica|Crataegus pontica|Crataegus sinaica|Crescentia alata|Cressa cretica|Crinum kirkii|Crocus sativus|Crotalaria verrucosa|Croton laccifer|Croton menthodorus|Croton montevidensis|Croton rhamnifolius|Cryptocarya oblata|Cucurbita sp.|Curcuma caesia|Curio citriformis|Curio ficoides|Curio radicans|Curio repens|Curio rowleyanus|Curio talinoides var. chordifolius|Cuscuta chinensis|Cynoglossum amabile|Cystoseira mediterranea|Cytisus scoparius|Dalbergia congestiflora|Dalbergia sissoo|Datisca glomerata|Datura inoxia|Datura stramonium|Dendrilla cavernosa|Dendrobium bigibbum var. superbum|Dennstaedtia scabra|Dennstaedtia zeylanica|Derris trifoliata|Desmodium canadense|Dichrocephala bicolor|Dioscorea olfersiana|Diospyros cathayensis|Diospyros eriantha|Diphasiastrum thyoides|Diplazium nipponicum|Discaria crenata|Dolichospermum affine|Doniophyton anomalum|Ecballium elaterium|Echinocystis lobata|Echinus microtuberculatus|Ekebergia capensis|Eleutherococcus brachypus|Eleutherococcus sieboldianus|Embelia ribes|Equisetum bogotense|Equisetum palustre|Equisetum sylvaticum|Eria subsessilis|Erigeron breviscapus|Eriobotrya japonica|Erythrina pallida|Erythrophleum couminga|Erythroxylum engleri|Erythroxylum pruinosum|Erythroxylum subracemosum|Erythroxylum tenue|Erythroxylum vacciniifolium|Eucalyptus australiana|Eucalyptus sideroxylon|Eucommia Ulmoides|Eucommia ulmoides|Eupatorium cannabinum|Euphorbia ebracteolata|Euphorbia ferganensis|Euphorbia heteradena|Euphorbia humifusa|Euphorbia larica|Euphorbia myrsinites|Euphorbia virgata|Evolvulus alsinoides|Fagonia indica|Fagonia latifolia|Fagonia mollis|Fagonia paulayana|Fagonia schweinfurthii|Fagus fusca|Falconeria insignis|Felicia amelloides|Ficus barteri|Ficus carica|Flavobacterium johnsoniae|Foeniculum vulgare|Fomes robiniae|Fragaria|Fraxinus americana|Fraxinus formosana|Fraxinus griffithii|Fraxinus insularis|Fritillaria ningguoensis|Fucus spiralis|Galium melanantherum|Galium verum|Gamocarpha alpina|Ganoderma australe|Gardenia jasminoides|Garrya elliptica|Geranium robertianum|Geranium sp.|Ginkgo biloba|Glinus lotoides|Glycosmis pseudoracemosa|Glycyrrhiza echinata|Glycyrrhiza glabra|Glycyrrhiza inflata|Glycyrrhiza macedonica|Glycyrrhiza sp.|Glycyrrhiza uralensis|Goodyera schlechtendaliana|Grass-of-Parnassus|Grevillea robusta|Gymnothorax javanicus|Haemanthus toxicarius|Haematomma porphyrium|Haematoxylum campechianum|Hedera helix|Hedyotis herbacea|Hedysarum coronarium|Helenium quadridentatum|Helichrysum auriceps|Helicteres angustifolia|Heteropappus altaicus|Heterotheca sp.|Hibiscus sabdariffa|Hippeastrum papilio|Hoffmannia strigillosa|Hosta ventricosa|Hubertia tomentosa|Humulus lupulus|Hydrangea macrophylla|Hygrophorus chrysodon|Hygrophorus eburneus|Hylocereus undatus|Hypericum triquetrifolium|Hyphaene thebaica|Ilex dunniana|Impatiens balsamina|Inga velutina|Inula grantioides|Iotrochota purpurea|Ips confusus|Ircinia dendroides|Iris pseudopumila|Isodon japonicus|Isodon rubescens|Jasminum officinale|Jasminum polyanthum|Julocroton camporum|Juniperus communis|Juniperus horizontalis|Juniperus rigida var. conferta|Kandelia candel|Khaya grandifoliola|Knightia deplanchei|Kopsia profunda|Lactuca serriola|Laennecia filaginoides|Lagochilus leiacanthus|Larrea sp.|Lasiocephalus ovatus|Lathyrus davidii|Lathyrus incurvus|Lathyrus japonicus|Lathyrus tingitanus|Lemaireocereus griseus|Lepidium cartilagineum|Lepidium syvaschicum|Leptobalanus apetalus|Lepuropetalon spathulatum|Licania apetala|Ligularia platyglossa|Ligustrum obtusifolium|Limnocharis flava|Liriodendron chinense|Liriodendron tulipifera|Lonicera japonica|Lotus ucrainicus|Luculia pinceana|Lycium barbarum|Lycium chinense|Lycium sp.|Lygodium japonicum|Mabea fistulifera|Macrothelypteris torresiana|Macrotyloma axillare|Magnolia salicifolia|Malus asiatica|Malva sylvestris|Manihot esculenta|Marah fabacea|Marah fabaceus|Marrubium velutinum|Matthiola bicornis|Melaleuca decora|Melia azedarach|Melilotus sulcatus|Menegazzia asahinae|Mesembryanthemum anatomicum|Metridium senile|Micranthes tolmiei|Microtea debilis|Mikania obtusata|Millettia erythrocalyx|Millettia ferruginea|Mitracarpus hirtus|Mola mola|Montrouziera sphaeroidea|Morinda Citrifolia|Morinda citrifolia|Morinda morindoides|Moringa concanensis|Morus alba|Morus nigra|Mycobacterium leprae|Myelobia smerintha|Myrica multiflora|Myristica cagayanensis|Myrsine africana|Napoleonaea vogelii|Nardostachys jatamansi|Nassauvia cumingii|Nastanthus scapigerus|Nastanthus spathulatus|Negombata magnifica|Nelumbo nucifera|Neocussonia longipedicellata|Neocussonia vantsilana|Nephroma antarcticum|Nerium oleander|Nyctanthes Arbor|Ocimum gratissimum|Ocimum pilosum|Oenanthe crocata|Oenothera dissecta|Oenothera macrocarpa|Oldenlandia herbacea|Onobrychis arenaria|Onobrychis cornuta|Onobrychis cyri|Onobrychis echidna|Onobrychis grandis|Onobrychis kachetica|Onobrychis michauxii|Onobrychis viciifolia|Ononis vaginalis|Ophiarthrum elegans|Ophidiaster ophidianus|Ophrys scolopax|Opuntia ficus-indica|Oreocnide rubescens|Oreosolen wattii|Ormosia nobilis|Osmanthus heterophyllus|Osmanthus ilicifolius|Osmanthus × fortunei|Oxalis purpurea|Paesia anfractuosa|Paracalyx scariosus|Paramignya griffithii|Parerythropodium fulvum|Parietaria officinalis|Parinari anamensis|Parinari campestris|Parinari excelsa|Parinari hypochrysea|Parinari nonda|Parinari oblongifolia|Parinari occidentalis|Parmelia subrudecta|Parnassia asarifolia|Parnassia caroliniana|Parnassia fimbriata|Parnassia glauca|Parnassia grandifolia|Parnassia kotzebuei|Pelargonium reniforme|Pentapora fascialis|Persicaria decipiens|Persicaria lapathifolia|Persicaria salicifolia|Peucedanum japonicum|Peucedanum oroselinum|Phalium undulatum|Phaseolus vulgaris|Phebalium dentatum|Phelline lucida|Philadelphus lewisii|Phlomoides medicinalis|Phomopsis archeri|Phora gregaria|Phyllanthus oligospermus|Phyllospongia madagascarensis|Physalis Peruviana|Physalis peruviana|Picea abies|Picrorhiza kurrooa|Pimpinella saxifraga|Piptostigma fasciculatum|Piptostigma fugax|Pithecellobium clypearia|Planchonella obovata|Plantago lanceolata|Plectosphaerella cucumerina|Plectranthus caninus|Pluchea dioscoridis|Podocarpus montanus|Podophyllum hexandrum|Polygala amarella|Polygala myrtifolia|Polygonum flaccidum|Polyporus dryadeus|Polytolypa hystricis|Polytrichastrum alpinum|Prorocentrum micans|Prunus amygdalus|Prunus armeniaca|Prunus avium|Prunus cerasus|Prunus dulcis|Pseudowintera colorata|Ptarmica ptarmicifolia|Pteris inaequalis|Pteris semipinnata|Ptilidium ciliare|Pulicaria mauritanica|Pulicaria wightiana|Quercus imbricaria|Quercus sp.|Raoulia australis|Raoulia glabra|Raoulia hookeri|Raoulia monroi|Raoulia petriensis|Raoulia subsericea|Raoulia tenuicaulis|Rapanea lancifolia|Rapanea myricoides|Rauvolfia salicifolia|Rhizoplaca baranowii|Rhodiola krylovii|Rhodiola rosea|Rhododendron mucronatum|Rhododendron ungerni|Rhodoglossum japonicum|Rhus lanceolata|Rhynchosia hirta|Rhynchosporium orthosporum|Ribes viscosissimum|Ricinus Communis|Ricinus communis|Roccellaria mollis|Rosa|Rosa chinensis|Rosa rugosa|Roseivirga echinicomitans|Rubus chingii|Rubus coreanus|Ruscus aculeatus|Ruscus sp.|Russula japonica|Ruta angustifolia|Ruta chalepensis|Ruta graveolens|Ruta montana|Ruta oreojasme|Ruta pinnata|Salmonella enterica subsp. enterica serovar bovismorbificans|Salvadora persica|Salvia hispanica|Sambucus nigra|Sambucus sp.|Sarcomelicope argyrophylla|Sarracenia purpurea|Saruma henryi|Scaphium affine|Schisandra arisanensis|Schizonella melanogramma|Schleichera trijuga|Schultesia guianensis|Scopolia lurida|Scorzonera pseudodivaricata|Scrophularia ilwensis|Scrophularia koelzii|Scutellaria seleriana|Sedum litoreum|Senecio kleiniiformis|Senecio polyodon|Senecio viscosus|Senna hirsuta var. hirsuta|Senna italica|Senna sophera|Silphium perfoliatum|Sinoadina racemosa|Solanum andigena|Solanum bahamense|Solanum campaniforme|Solanum incanum|Solanum lycocarpum|Solanum pubescens|Solanum racemigerum|Solenopsis punctaticeps|Solidago altissima|Solidago sp.|Solidago virga-aurea|Solidago virgaurea|Sophora Japonica|Sophora japonica|Spiracantha cornifolia|Spiranthes sinensis|Streptomyces eurythermus|Streptomyces platensis|Streptomyces purpeofuscus|Streptomyces viridogenes|Strychnos pseudoquina|Strychnos spinosa|Strychnos tricalysioides|Stylosanthes erecta|Styphnolobium japonicum|Sulla coronaria|Syncarpia hillii|Terminalia chebula|Terminalia myriocarpa|Tetradium glabrifolium|Tetraena alba|Teucrium asiaticum|Teucrium pestalozzae|Thelypteris palustris|Thermopsis dolichocarpa|Thymus quinquecostatus|Thymus vulgaris|Tinospora smilacina|Tipuana tipu|Tordylium apulum|Trianthema portulacastrum|Tribulus terrestris|Trichodesma incanum|Tricholoma batschii|Trichosanthes tricuspidata|Triclisia subcordata|Tridacna gigas|Trifolium apertum|Trigonostemon reidioides|Trillium undulatum|Tripodanthus acutifolius|Tropaeolum majus|Tropaeolum speciosum|Tropiometra afra|Tylophora tanakae|Umbellularia californica|Urena lobata|Urochloa decumbens|Urtica dioica|Vatica diospyroides|Vatica oblongifolia|Verbena stricta|Vernonia fasciculata|Veronica pectinata|Verpa digitaliformis|Viburnum plicatum|Vicia amurensis|Vigna aconitifolia|Vigna angularis|Vigna mungo|Vigna radiata|Vigna trilobata|Vigna umbellata|Vigna unguiculata|Viguiera annua|Visnea mocanera|Vitex negundo|Vitis aestivalis|Vitis cinerea|Vitis riparia|Vitis vulpina|Viviparus japonicus|Volutaria lippii|Wallago attu|Warburgia ugandensis|Wisteria floribunda|Wyethia mollis|Xanthoceras sorbifolia Bunge|Xanthoparmelia pokornyi|Xanthorrhoea resinosa|Xenia florida|Xenia obscuronata|Xenoacremonium recifei|Zanthoxylum fraxineum|Ziziphus jujuba|Ziziphus jujuba var. spinosa|Zygophyllum album|Zygophyllum simplex|[polyangium] brachysporum|microtea debilis|sarracenia purpurea|soybean|yerba mate

>  <collections>  (1380) 
ANPDB|AnalytiCon Discovery NPs|Australian natural products|CMAUP (cCollective molecular activities of useful plants)|ChEBI NPs|ChemSpider NPs|FooDB|GNPS (Global Natural Products Social Molecular Networking)|Latin America dataset|NANPDB (Natural Products from Northern African Sources)|NPASS|NuBBEDB|Phyto4Health|PhytoLab phyproof® Reference Substances|PubChem NPs|Super Natural II|TCMDB-Taiwan (Traditional Chinese Medicine database)|TIPdb (database of Taiwan indigenous plants)|VietHerb|WikiData Natural Products|ZINC NP

>  <dois>  (1380) 
10.1002/(SICI)1096-9888(199912)34:12<1361::AID-JMS895>3.0.CO;2-6|10.1002/(SICI)1099-1565(199601)7:1<42::AID-PCA282>3.0.CO;2-K|10.1002/(SICI)1099-1565(199805/06)9:3<145::AID-PCA393>3.0.CO;2-K|10.1002/(SICI)1099-1573(199605)10:3<202::AID-PTR805>3.0.CO;2-0|10.1002/(SICI)1099-1573(199809)12:6<442::AID-PTR320>3.0.CO;2-Y|10.1002/(SICI)1099-1573(199909)13:6<521::AID-PTR535>3.0.CO;2-A|10.1002/(SICI)1099-1573(200005)14:3<156::AID-PTR630>3.0.CO;2-V|10.1002/1099-1565(200007/08)11:4<257::AID-PCA521>3.0.CO;2-A|10.1002/1099-1573(200008)14:5<371::AID-PTR625>3.0.CO;2-F|10.1002/1099-1573(200011)14:7<538::AID-PTR631>3.0.CO;2-1|10.1002/CBDV.201000373|10.1002/CHIN.200338184|10.1002/CHIN.200603190|10.1002/ELPS.200500714|10.1002/HLCA.200890142|10.1002/HLCA.200900232|10.1002/HLCA.200900264|10.1002/HLCA.201000385|10.1002/J.1537-2197.1988.TB13465.X|10.1002/JCCS.199500128|10.1002/PCA.2800040607|10.1002/PTR.1068|10.1002/PTR.2650030108|10.1002/PTR.964|10.1002/RCM.3166|10.1007/978-1-4020-4585-1_2243|10.1007/978-4-431-68416-9_22|10.1007/BF00565728|10.1007/BF00567877|10.1007/BF00579083|10.1007/BF00579157|10.1007/BF00580088|10.1007/BF00580089|10.1007/BF00580091|10.1007/BF00596666|10.1007/BF00598779|10.1007/BF01372623|10.1007/BF01870610|10.1007/BF01959464|10.1007/BF02002621|10.1007/BF02259383|10.1007/BF02524937|10.1007/BF02980100|10.1007/S002170000220|10.1007/S10600-007-0061-X|10.1007/S10600-008-9079-Y|10.1007/S10600-008-9165-1|10.1007/S10600-010-9748-5|10.1007/S10600-014-0983-Z|10.1007/S11418-006-0027-5|10.1007/SPRINGERREFERENCE_68291|10.1016/0021-9673(91)80135-4|10.1016/0021-9673(95)00755-5|10.1016/0031-9422(80)83210-9|10.1016/0031-9422(82)83030-6|10.1016/0031-9422(88)84102-5|10.1016/0031-9422(89)80306-1|10.1016/0031-9422(89)80346-2|10.1016/0031-9422(90)85292-N|10.1016/0031-9422(91)85140-U|10.1016/0031-9422(92)80118-X|10.1016/0031-9422(92)80355-I|10.1016/0031-9422(92)80400-9|10.1016/0031-9422(92)83503-Q|10.1016/0031-9422(93)85262-P|10.1016/0031-9422(93)85414-M|10.1016/0031-9422(93)85470-C|10.1016/0031-9422(94)00658-G|10.1016/0031-9422(94)00784-Q|10.1016/0031-9422(95)00383-I|10.1016/0031-9422(95)00398-Q|10.1016/0305-1978(82)90046-1|10.1016/0305-1978(84)90068-1|10.1016/0305-1978(85)90003-1|10.1016/0305-1978(85)90036-5|10.1016/0305-1978(85)90068-7|10.1016/0305-1978(85)90089-4|10.1016/0305-1978(86)90046-3|10.1016/0305-1978(86)90088-8|10.1016/0305-1978(86)90089-X|10.1016/0305-1978(87)90061-5|10.1016/0305-1978(87)90085-8|10.1016/0305-1978(88)90012-9|10.1016/0305-1978(90)90051-G|10.1016/0305-1978(91)90116-H|10.1016/0305-1978(92)90060-Q|10.1016/0305-1978(92)90063-J|10.1016/0305-1978(92)90087-T|10.1016/0305-1978(93)90077-5|10.1016/0305-1978(93)90083-4|10.1016/0305-1978(93)90084-5|10.1016/0305-1978(94)00083-S|10.1016/0305-1978(94)90063-9|10.1016/0305-1978(95)00014-L|10.1016/0305-1978(96)00018-X|10.1016/J.BMC.2007.01.035|10.1016/J.BMC.2009.08.036|10.1016/J.BMCL.2011.12.036|10.1016/J.BMCL.2012.10.043|10.1016/J.BMCL.2015.02.048|10.1016/J.BSE.2009.07.001|10.1016/J.CARRES.2003.12.017|10.1016/J.FITOTE.2004.05.008|10.1016/J.FITOTE.2006.04.007|10.1016/J.FITOTE.2009.09.003|10.1016/J.FLORA.2007.09.009|10.1016/J.FOODCHEM.2008.11.094|10.1016/J.FOODCHEM.2012.02.124|10.1016/J.FOODRES.2010.11.014|10.1016/J.JEP.2006.02.010|10.1016/J.JEP.2010.05.015|10.1016/J.JFF.2014.08.013|10.1016/J.PHYTOCHEM.2003.10.025|10.1016/J.PHYTOCHEM.2004.12.005|10.1016/J.PHYTOCHEM.2006.10.013|10.1016/J.PHYTOCHEM.2007.05.027|10.1016/J.PHYTOCHEM.2008.02.003|10.1016/J.PHYTOCHEM.2009.04.003|10.1016/J.PHYTOL.2009.11.004|10.1016/S0021-9673(01)88492-2|10.1016/S0021-9673(01)97853-7|10.1016/S0024-3205(01)01425-4|10.1016/S0031-9422(00)00027-3|10.1016/S0031-9422(00)00143-6|10.1016/S0031-9422(00)00319-8|10.1016/S0031-9422(00)00423-4|10.1016/S0031-9422(00)80824-9|10.1016/S0031-9422(00)83144-1|10.1016/S0031-9422(00)83876-5|10.1016/S0031-9422(00)84461-1|10.1016/S0031-9422(00)89642-9|10.1016/S0031-9422(00)89888-X|10.1016/S0031-9422(00)90727-1|10.1016/S0031-9422(00)95013-1|10.1016/S0031-9422(00)97572-1|10.1016/S0031-9422(00)97746-X|10.1016/S0031-9422(01)00320-X|10.1016/S0031-9422(01)00401-0|10.1016/S0031-9422(01)00403-4|10.1016/S0031-9422(02)00064-X|10.1016/S0031-9422(02)00133-4|10.1016/S0031-9422(02)00263-7|10.1016/S0031-9422(02)00486-7|10.1016/S0031-9422(03)00242-5|10.1016/S0031-9422(03)00374-1|10.1016/S0031-9422(03)00504-1|10.1016/S0031-9422(96)00329-9|10.1016/S0031-9422(98)00018-1|10.1016/S0031-9422(98)00028-4|10.1016/S0031-9422(98)00223-4|10.1016/S0305-1978(00)00053-3|10.1016/S0305-1978(00)00072-7|10.1016/S0305-1978(01)00089-8|10.1016/S0305-1978(01)00098-9|10.1016/S0305-1978(01)00147-8|10.1016/S0305-1978(02)00051-0|10.1016/S0305-1978(02)00072-8|10.1016/S0305-1978(96)00099-3|10.1016/S0305-1978(98)00110-0|10.1016/S0367-326X(00)00229-X|10.1016/S0367-326X(02)00087-4|10.1016/S0378-8741(97)00111-6|10.1016/S0731-7085(00)00264-8|10.1016/S0960-894X(01)00467-X|10.1016/j.arabjc.2011.01.001|10.1016/j.bmc.2007.01.035|10.1016/j.bmc.2009.08.036|10.1016/j.bmc.2012.02.002|10.1016/j.bmcl.2011.12.036|10.1016/j.bmcl.2012.10.043|10.1016/j.bmcl.2015.02.048|10.1016/j.bmcl.2016.08.094|10.1016/j.bse.2006.07.006|10.1016/j.foodchem.2012.02.124|10.1016/j.jfca.2014.09.003|10.1016/j.phymed.2011.12.001|10.1016/s0031-9422(00)86214-7|10.1016/s0031-9422(00)86268-8|10.1021/JF0000833|10.1021/JF000388H|10.1021/JF010492E|10.1021/JF011533+|10.1021/JF011682S|10.1021/JF020661A|10.1021/JF030123D|10.1021/JF052743F|10.1021/JF2014759|10.1021/JF703709R|10.1021/JF9505335|10.1021/JF9507001|10.1021/JF9801264|10.1021/JF980936F|10.1021/NP000225N|10.1021/NP000442O|10.1021/NP010081S|10.1021/NP030226Q|10.1021/NP030440E|10.1021/NP0495985|10.1021/NP0495985.S001|10.1021/NP0700671|10.1021/NP070327E|10.1021/NP0780046|10.1021/NP200479A|10.1021/NP200646E|10.1021/NP3001317|10.1021/NP300402K|10.1021/NP50022A009|10.1021/NP50022A016|10.1021/NP50028A037|10.1021/NP50037A036|10.1021/NP50037A041|10.1021/NP50038A033|10.1021/NP50043A030|10.1021/NP50044A034|10.1021/NP50050A047|10.1021/NP50052A045|10.1021/NP50053A018|10.1021/NP50086A021|10.1021/NP50094A022|10.1021/NP50117A005|10.1021/NP970025K|10.1021/NP970449E|10.1021/acs.jnatprod.5b00970|10.1021/acs.jnatprod.6b00981|10.1021/acs.jnatprod.7b00063|10.1021/jf9810261|10.1021/np000442o|10.1021/np0495985|10.1021/np200479a|10.1021/np200646e|10.1021/np3001317|10.1021/np300402k|10.1021/np50117a005|10.1021/np970025k|10.1039/C3AN01478A|10.1046/J.1472-765X.2000.00692.X|10.1055/S-0032-1321052|10.1055/S-2000-8632|10.1055/S-2002-32545|10.1055/S-2002-32549|10.1055/S-2006-957071|10.1055/S-2006-957627|10.1055/S-2006-957639|10.1055/S-2006-957657|10.1055/S-2006-958024|10.1055/S-2006-959675|10.1055/S-2006-959678|10.1055/S-2006-959679|10.1055/S-2006-959763|10.1055/S-2006-962418|10.1076/PHBI.37.5.366.6050|10.1080/1028602031000105867|10.1080/10286020802514598|10.1080/10826079208016365|10.1080/10826079408013630|10.1111/J.1365-2621.1992.TB11286.X|10.1139/B95-209|10.1211/146080899128735009|10.1248/BPB.23.602|10.1248/BPB.25.505|10.1248/BPB.30.1150|10.1248/CPB.32.4620|10.1248/CPB.39.3265|10.1248/CPB.45.367|10.1248/CPB.47.571|10.1248/CPB.49.1474|10.1248/CPB.53.591|10.1248/CPB.53.881|10.1248/CPB.55.1175|10.1248/CPB.55.343|10.1248/CPB.55.815|10.1248/CPB.57.1123|10.1248/CPB.57.1289|10.1248/CPB.57.257|10.1248/CPB.59.129|10.1248/CPB.59.135|10.1248/YAKUSHI1881.59.4_258|10.1248/YAKUSHI1947.104.2_142|10.1248/YAKUSHI1947.104.4_340|10.1248/YAKUSHI1947.105.5_442|10.1248/YAKUSHI1947.105.6_542|10.1248/YAKUSHI1947.106.11_982|10.1248/YAKUSHI1947.107.7_491|10.1248/YAKUSHI1947.108.7_647|10.1248/YAKUSHI1947.110.5_315|10.1248/YAKUSHI1947.110.5_354|10.1271/BBB.61.332|10.1271/BBB.64.1588|10.1271/BBB1961.46.1079|10.1515/ZNC-1983-1-226|10.1515/ZNC-1985-1-204|10.1515/ZNC-2002-5-606|10.1515/znc-1980-3-428|10.15406/MOJFPT.2016.02.00030|10.1590/S0103-50532005000800008|10.21608/BFSA.1997.68759|10.21608/BFSA.2001.65693|10.21608/BFSA.2002.65511|10.21608/ZJPS.1999.169705|10.2307/2806097|10.3390/12020263|10.3390/IJMS12063941|10.3797/SCIPHARM.AUT-01-09|10.3987/COM-11-12330|10.3987/COM-97-7906|10.4103/0974-8490.112421|10.4268/CJCMM20100813|10.5012/BKCS.2011.32.6.2079

>  <synonyms>  (1380) 
17650-84-9|1ST40328|3,4',5,7-Tetrahydroxyflavone 3-rhamnoglucoside|3,4',5,7-Tetrahydroxyflavone 3-rutinoside|3-((6-O-(6-deoxy-alpha-L-mannopyranosyl)-beta-D-glucopyranosyl)oxy)-5,7-dihydroxy-2-(4-hydroxyphenyl)-4H-1-benzopyran-4-one|3-rutinosylkaempferol|4056D20K3H|4H-1-BENZOPYRAN-4-ONE, 3-((6-O-(6-DEOXY-.ALPHA.-L-MANNOPYRANOSYL)-.BETA.-D-GLUCOPYRANOSYL)OXY)-5,7-DIHYDROXY-2-(4-HYDROXYPHENYL)-|4H-1-Benzopyran-4-one, 3-((6-O-(6-deoxy-alpha-L-mannopyranosyl)-beta-D-glucopyranosyl)oxy)-5,7-dihydroxy-2-(4-hydroxyphenyl)-|5,7-Dihydroxy-2-(4-hydroxyphenyl)-3-(((2S,3R,4S,5S,6R)-3,4,5-trihydroxy-6-((((2R,3R,4R,5R,6S)-3,4,5-trihydroxy-6-methyltetrahydro-2H-pyran-2-yl)oxy)methyl)tetrahydro-2H-pyran-2-yl)oxy)-4H-chromen-4-one|5,7-Dihydroxy-2-(4-hydroxyphenyl)-4-oxo-4H-1-benzopyran-3-yl 6-O-(6-deoxyhexopyranosyl)hexopyranoside|5,7-Dihydroxy-2-(4-hydroxyphenyl)-4-oxo-4H-chromen-3-yl 6-O-(6-deoxy-alpha-L-mannopyranosyl)-beta-D-glucopyranoside|5,7-dihydroxy-2-(4-hydroxyphenyl)-3-[(2S,3R,4S,5S,6R)-3,4,5-trihydroxy-6-[[(2R,3R,4R,5R,6S)-3,4,5-trihydroxy-6-methyloxan-2-yl]oxymethyl]oxan-2-yl]oxychromen-4-one|A881516|AC-34731|ACon1_002178|AKOS032962209|AS-35049|BDBM50378581|C21833|CHEBI:69657|CHEMBL498879|CS-0016975|DTXSID50938804|Flavone, 3,4',5,7-tetrahydroxy-, 3-rhamnoglucoside|HMS2268M08|HY-N1475|KAEMPFEROL 3-.BETA.-RUTINOSIDE|KAEMPFEROL 3-O-.ALPHA.-L-RHAMNOPYRANOSYL-.BETA.-D-GLUCOPYRANOSIDE|KAEMPFEROL 3-O-.BETA.-D-(6''-O-.ALPHA.-L-RHAMNOPYRANOSYL)GLUCOPYRANOSIDE|KAEMPFEROL 3-RHAMNOGLUCOSIDE|KAEMPFEROL 3-beta-RUTINOSIDE|KAEMPFEROL-3-O-RUTINOSIDE (CONSTITUENT OF GINKGO)|Kaempferol 3-O-alpha-L-rhamnoside-beta-D-glucosyl|Kaempferol 3-O-b -Rutinoside (Nicotiflorin)|Kaempferol 3-O-beta -rutinoside, >=98.0% (HPLC)|Kaempferol 3-O-beta-rutinoside|Kaempferol 3-Rutinoside|Kaempferol 3-rhamno-glucoside|Kaempferol-3-O-rutinoside|MEGxp0_000024|MFCD03427292|MLS000563045|NICOTIFLOROSIDE|NICTOFLORIN [INCI]|NS00097624|Nicotifiorin|Nicotiflorin|Nicotiflorine|Nicotifloroside|Nictoflorin|Q23058965|SCHEMBL240355|SMR001215820|UNII-4056D20K3H|kaempferol 3-O-(6''-O-alpha-L-rhamnopyranosyl)-beta-D-glucopyranoside|nicotifloroside|nikotiflorin|s3267

>  <cas>  (1380) 
17650-84-9

$$$$

     RDKit          2D

 22 24  0  0  0  0  0  0  0  0999 V2000
   -4.7345    1.7230    0.0000 C   0  0  0  0  0  0  0  0  0  0  0  0
   -4.6449    0.2257    0.0000 C   0  0  0  0  0  0  0  0  0  0  0  0
   -3.3033   -0.4454    0.0000 C   0  0  0  0  0  0  0  0  0  0  0  0
   -4.1971   -1.6500    0.0000 C   0  0  0  0  0  0  0  0  0  0  0  0
   -2.8754    0.9923    0.0000 C   0  0  0  0  0  0  0  0  0  0  0  0
   -1.4164    1.3406    0.0000 C   0  0  0  0  0  0  0  0  0  0  0  0
   -0.9885    2.7783    0.0000 O   0  0  0  0  0  0  0  0  0  0  0  0
   -0.3853    0.2512    0.0000 C   0  0  0  0  0  0  0  0  0  0  0  0
   -0.8132   -1.1865    0.0000 C   0  0  0  0  0  0  0  0  0  0  0  0
   -2.2722   -1.5348    0.0000 C   0  0  0  0  0  0  0  0  0  0  0  0
    0.2179   -2.2759    0.0000 C   0  0  0  0  0  0  0  0  0  0  0  0
   -0.2100   -3.7136    0.0000 O   0  0  0  0  0  0  0  0  0  0  0  0
    1.6769   -1.9276    0.0000 C   0  0  0  0  0  0  0  0  0  0  0  0
    2.1048   -0.4900    0.0000 C   0  0  0  0  0  0  0  0  0  0  0  0
    3.5638   -0.1417    0.0000 C   0  0  0  0  0  0  0  0  0  0  0  0
    5.0540   -0.3134    0.0000 C   0  0  0  0  0  0  0  0  0  0  0  0
    3.6534   -1.6390    0.0000 C   0  0  0  0  0  0  0  0  0  0  0  0
    3.9917    1.2960    0.0000 C   0  0  0  0  0  0  0  0  0  0  0  0
    2.9606    2.3854    0.0000 C   0  0  0  0  0  0  0  0  0  0  0  0
    1.5016    2.0371    0.0000 C   0  0  0  0  0  0  0  0  0  0  0  0
    1.0737    0.5994    0.0000 C   0  0  0  0  0  0  0  0  0  0  0  0
    0.0426    1.6889    0.0000 C   0  0  0  0  0  0  0  0  0  0  0  0
  1  2  2  0
  2  3  1  0
  3  4  1  6
  3  5  1  0
  5  6  1  0
  6  7  2  0
  6  8  1  0
  8  9  2  0
  9 10  1  0
  9 11  1  0
 11 12  2  0
 11 13  1  0
 14 13  1  6
 14 15  1  0
 15 16  1  0
 15 17  1  0
 15 18  1  0
 18 19  1  0
 19 20  1  0
 20 21  1  0
 21 22  1  6
 10  3  1  0
 21 14  1  0
 21  8  1  0
M  END
>  <identifier>  (1381) 
CNP0355757.1

>  <canonical_smiles>  (1381) 
C=C[C@@]1(C)CC(=O)C2=C(C1)C(=O)C[C@H]1C(C)(C)CCC[C@]21C

>  <standard_inchi>  (1381) 
InChI=1S/C20H28O2/c1-6-19(4)11-13-14(21)10-16-18(2,3)8-7-9-20(16,5)17(13)15(22)12-19/h6,16H,1,7-12H2,2-5H3/t16-,19+,20-/m0/s1

>  <standard_inchi_key>  (1381) 
UDVYNNUMZDSKNV-DBVUQKKJSA-N

>  <name>  (1381) 
nan

>  <iupac_name>  (1381) 
(2~{R},4~{b}~{S},8~{a}~{S})-2,4~{b},8,8-tetramethyl-2-vinyl-3,5,6,7,8~{a},9-hexahydro-1~{H}-phenanthrene-4,10-dione

>  <annotation_level>  (1381) 
4

>  <total_atom_count>  (1381) 
50

>  <heavy_atom_count>  (1381) 
22

>  <molecular_weight>  (1381) 
300.44

>  <exact_molecular_weight>  (1381) 
300.20893

>  <molecular_formula>  (1381) 
C20H28O2

>  <alogp>  (1381) 
4.64

>  <topological_polar_surface_area>  (1381) 
34.14

>  <rotatable_bond_count>  (1381) 
1

>  <hydrogen_bond_acceptors>  (1381) 
2

>  <hydrogen_bond_donors>  (1381) 
0

>  <hydrogen_bond_acceptors_lipinski>  (1381) 
2

>  <hydrogen_bond_donors_lipinski>  (1381) 
0

>  <lipinski_rule_of_five_violations>  (1381) 
0

>  <aromatic_rings_count>  (1381) 
0

>  <qed_drug_likeliness>  (1381) 
0.66

>  <formal_charge>  (1381) 
0

>  <fractioncsp3>  (1381) 
0.70

>  <number_of_minimal_rings>  (1381) 
3

>  <van_der_walls_volume>  (1381) 
nan

>  <contains_sugar>  (1381) 
False

>  <contains_ring_sugars>  (1381) 
False

>  <contains_linear_sugars>  (1381) 
False

>  <murcko_framework>  (1381) 
C12=C(CCCC1)C3CCCCC3CC2

>  <np_likeness>  (1381) 
2.69

>  <chemical_class>  (1381) 
Prenol lipids

>  <chemical_sub_class>  (1381) 
Diterpenoids

>  <chemical_super_class>  (1381) 
Lipids and lipid-like molecules

>  <direct_parent_classification>  (1381) 
Diterpenoids

>  <np_classifier_pathway>  (1381) 
Terpenoids

>  <np_classifier_superclass>  (1381) 
Diterpenoids

>  <np_classifier_class>  (1381) 
Norpimarane and Norisopimarane diterpenoids

>  <np_classifier_is_glycoside>  (1381) 
False

>  <organisms>  (1381) 
Vellozia compacta

>  <collections>  (1381) 
Latin America dataset|NuBBEDB|Super Natural II|WikiData Natural Products|ZINC NP

>  <dois>  (1381) 
10.1016/0031-9422(83)80034-X

>  <synonyms>  (1381) 
711-dioxopimar-8(9)15-diene

>  <cas>  (1381) 
nan

$$$$

     RDKit          2D

 31 34  0  0  0  0  0  0  0  0999 V2000
   -3.2827    3.3598    0.0000 C   0  0  0  0  0  0  0  0  0  0  0  0
   -4.0357    2.0625    0.0000 C   0  0  0  0  0  0  0  0  0  0  0  0
   -5.5356    2.0659    0.0000 O   0  0  0  0  0  0  0  0  0  0  0  0
   -6.2886    0.7686    0.0000 C   0  0  0  0  0  0  0  0  0  0  0  0
   -7.7886    0.7720    0.0000 C   0  0  0  0  0  0  0  0  0  0  0  0
   -5.5415   -0.5322    0.0000 C   0  0  0  0  0  0  0  0  0  0  0  0
   -6.2945   -1.8295    0.0000 O   0  0  0  0  0  0  0  0  0  0  0  0
   -4.0415   -0.5356    0.0000 C   0  0  0  0  0  0  0  0  0  0  0  0
   -3.2945   -1.8363    0.0000 C   0  0  0  0  0  0  0  0  0  0  0  0
   -1.7945   -1.8397    0.0000 C   0  0  0  0  0  0  0  0  0  0  0  0
   -1.0475   -3.1405    0.0000 C   0  0  0  0  0  0  0  0  0  0  0  0
    0.4525   -3.1439    0.0000 C   0  0  0  0  0  0  0  0  0  0  0  0
    1.1996   -4.4446    0.0000 O   0  0  0  0  0  0  0  0  0  0  0  0
    1.2055   -1.8465    0.0000 C   0  0  0  0  0  0  0  0  0  0  0  0
    0.4584   -0.5458    0.0000 C   0  0  0  0  0  0  0  0  0  0  0  0
    1.2114    0.7515    0.0000 O   0  0  0  0  0  0  0  0  0  0  0  0
    2.7114    0.7481    0.0000 C   0  0  0  0  0  0  0  0  0  0  0  0
    3.4584   -0.5526    0.0000 O   0  0  0  0  0  0  0  0  0  0  0  0
    4.9584   -0.5560    0.0000 C   0  0  0  0  0  0  0  0  0  0  0  0
    5.7055   -1.8567    0.0000 C   0  0  0  0  0  0  0  0  0  0  0  0
    4.9525   -3.1541    0.0000 O   0  0  0  0  0  0  0  0  0  0  0  0
    5.7114    0.7413    0.0000 C   0  0  0  0  0  0  0  0  0  0  0  0
    7.2114    0.7379    0.0000 O   0  0  0  0  0  0  0  0  0  0  0  0
    4.9643    2.0421    0.0000 C   0  0  0  0  0  0  0  0  0  0  0  0
    5.7173    3.3394    0.0000 O   0  0  0  0  0  0  0  0  0  0  0  0
    3.4643    2.0455    0.0000 C   0  0  0  0  0  0  0  0  0  0  0  0
    2.7173    3.3462    0.0000 O   0  0  0  0  0  0  0  0  0  0  0  0
   -1.0416   -0.5424    0.0000 C   0  0  0  0  0  0  0  0  0  0  0  0
   -1.7886    0.7583    0.0000 C   0  0  0  0  0  0  0  0  0  0  0  0
   -1.0357    2.0557    0.0000 O   0  0  0  0  0  0  0  0  0  0  0  0
   -3.2886    0.7617    0.0000 C   0  0  0  0  0  0  0  0  0  0  0  0
  1  2  1  0
  2  3  1  0
  3  4  1  0
  4  5  1  1
  4  6  1  0
  6  7  1  0
  6  8  1  0
  8  9  2  0
  9 10  1  0
 10 11  2  0
 11 12  1  0
 12 13  1  0
 12 14  2  0
 14 15  1  0
 15 16  1  0
 17 16  1  1
 17 18  1  0
 18 19  1  0
 19 20  1  1
 20 21  1  0
 19 22  1  0
 22 23  1  6
 22 24  1  0
 24 25  1  0
 24 26  1  0
 26 27  1  6
 15 28  2  0
 28 29  1  0
 29 30  1  0
 29 31  2  0
 31  2  1  0
 31  8  1  0
 28 10  1  0
 26 17  1  0
M  END
>  <identifier>  (1382) 
CNP0230499.1

>  <canonical_smiles>  (1382) 
CC1O[C@H](C)C(O)C2=CC3=CC(O)=CC(O[C@@H]4O[C@H](CO)[C@@H](O)C(O)[C@H]4O)=C3C(O)=C21

>  <standard_inchi>  (1382) 
InChI=1S/C21H26O10/c1-7-14-11(16(24)8(2)29-7)4-9-3-10(23)5-12(15(9)18(14)26)30-21-20(28)19(27)17(25)13(6-22)31-21/h3-5,7-8,13,16-17,19-28H,6H2,1-2H3/t7?,8-,13-,16?,17-,19?,20-,21-/m1/s1

>  <standard_inchi_key>  (1382) 
YJAZNWLJYBAORA-KIRZVBAYSA-N

>  <name>  (1382) 
nan

>  <iupac_name>  (1382) 
(3~{R})-1,3-dimethyl-9-[(2~{S},3~{R},5~{S},6~{R})-3,4,5-trihydroxy-6-(hydroxymethyl)tetrahydropyran-2-yl]oxy-3,4-dihydro-1~{H}-benzo[g]isochromene-4,7,10-triol

>  <annotation_level>  (1382) 
4

>  <total_atom_count>  (1382) 
57

>  <heavy_atom_count>  (1382) 
31

>  <molecular_weight>  (1382) 
438.43

>  <exact_molecular_weight>  (1382) 
438.1526

>  <molecular_formula>  (1382) 
C21H26O10

>  <alogp>  (1382) 
-0.06

>  <topological_polar_surface_area>  (1382) 
169.30

>  <rotatable_bond_count>  (1382) 
3

>  <hydrogen_bond_acceptors>  (1382) 
10

>  <hydrogen_bond_donors>  (1382) 
7

>  <hydrogen_bond_acceptors_lipinski>  (1382) 
10

>  <hydrogen_bond_donors_lipinski>  (1382) 
7

>  <lipinski_rule_of_five_violations>  (1382) 
1

>  <aromatic_rings_count>  (1382) 
2

>  <qed_drug_likeliness>  (1382) 
0.34

>  <formal_charge>  (1382) 
0

>  <fractioncsp3>  (1382) 
0.52

>  <number_of_minimal_rings>  (1382) 
4

>  <van_der_walls_volume>  (1382) 
nan

>  <contains_sugar>  (1382) 
True

>  <contains_ring_sugars>  (1382) 
True

>  <contains_linear_sugars>  (1382) 
False

>  <murcko_framework>  (1382) 
O1Cc2cc3c(OC4OCCCC4)cccc3cc2CC1

>  <np_likeness>  (1382) 
2.44

>  <chemical_class>  (1382) 
Naphthopyrans

>  <chemical_sub_class>  (1382) 
Naphthopyrans

>  <chemical_super_class>  (1382) 
Organoheterocyclic compounds

>  <direct_parent_classification>  (1382) 
Naphthopyrans

>  <np_classifier_pathway>  (1382) 
Polyketides

>  <np_classifier_superclass>  (1382) 
Naphthalenes

>  <np_classifier_class>  (1382) 
Naphthalenes and derivatives

>  <np_classifier_is_glycoside>  (1382) 
True

>  <organisms>  (1382) 
Aphis nerii

>  <collections>  (1382) 
Latin America dataset|NuBBEDB|WikiData Natural Products

>  <dois>  (1382) 
10.1016/S0040-4039(01)97216-8

>  <synonyms>  (1382) 
glucoside B

>  <cas>  (1382) 
nan

$$$$

     RDKit          2D

 26 29  0  0  0  0  0  0  0  0999 V2000
    8.0108    1.1138    0.0000 C   0  0  0  0  0  0  0  0  0  0  0  0
    6.7484    0.3036    0.0000 C   0  0  0  0  0  0  0  0  0  0  0  0
    5.4156    0.9918    0.0000 C   0  0  0  0  0  0  0  0  0  0  0  0
    4.1532    0.1817    0.0000 C   0  0  0  0  0  0  0  0  0  0  0  0
    5.1703   -0.9209    0.0000 O   0  0  0  0  0  0  0  0  0  0  0  0
    4.7240   -2.3529    0.0000 C   0  0  0  0  0  0  0  0  0  0  0  0
    3.2441   -1.0114    0.0000 C   0  0  0  0  0  0  0  0  0  0  0  0
    1.7562   -0.8206    0.0000 C   0  0  0  0  0  0  0  0  0  0  0  0
    1.1776    0.5634    0.0000 C   0  0  0  0  0  0  0  0  0  0  0  0
    2.0868    1.7564    0.0000 C   0  0  0  0  0  0  0  0  0  0  0  0
    3.5746    1.5656    0.0000 C   0  0  0  0  0  0  0  0  0  0  0  0
    4.4838    2.7586    0.0000 O   0  0  0  0  0  0  0  0  0  0  0  0
   -0.3174    0.4407    0.0000 O   0  0  0  0  0  0  0  0  0  0  0  0
   -0.6627   -1.0190    0.0000 C   0  0  0  0  0  0  0  0  0  0  0  0
   -2.0466   -1.5976    0.0000 C   0  0  0  0  0  0  0  0  0  0  0  0
   -3.2396   -0.6885    0.0000 C   0  0  0  0  0  0  0  0  0  0  0  0
   -3.0488    0.7993    0.0000 C   0  0  0  0  0  0  0  0  0  0  0  0
   -4.2419    1.7085    0.0000 C   0  0  0  0  0  0  0  0  0  0  0  0
   -5.6258    1.1299    0.0000 C   0  0  0  0  0  0  0  0  0  0  0  0
   -6.9818    1.7712    0.0000 O   0  0  0  0  0  0  0  0  0  0  0  0
   -8.0107    0.6797    0.0000 C   0  0  0  0  0  0  0  0  0  0  0  0
   -7.2906   -0.6362    0.0000 O   0  0  0  0  0  0  0  0  0  0  0  0
   -5.8166   -0.3579    0.0000 C   0  0  0  0  0  0  0  0  0  0  0  0
   -4.6235   -1.2671    0.0000 C   0  0  0  0  0  0  0  0  0  0  0  0
    0.6189   -1.7985    0.0000 C   0  0  0  0  0  0  0  0  0  0  0  0
    0.7415   -3.2935    0.0000 C   0  0  0  0  0  0  0  0  0  0  0  0
  1  2  2  0
  2  3  1  0
  4  3  1  6
  4  5  1  0
  5  6  1  0
  4  7  1  0
  7  8  2  0
  8  9  1  0
  9 10  2  0
 10 11  1  0
 11 12  2  0
  9 13  1  0
 13 14  1  0
 14 15  1  6
 15 16  1  0
 16 17  2  0
 17 18  1  0
 18 19  2  0
 19 20  1  0
 20 21  1  0
 21 22  1  0
 22 23  1  0
 23 24  2  0
 14 25  1  0
 25 26  1  1
 11  4  1  0
 24 16  1  0
 25  8  1  0
 23 19  1  0
M  END
>  <identifier>  (1383) 
CNP0152708.1

>  <canonical_smiles>  (1383) 
C=CC[C@]1(OC)C=C2C(=CC1=O)O[C@@H](CC1=CC=C3OCOC3=C1)[C@@H]2C

>  <standard_inchi>  (1383) 
InChI=1S/C21H22O5/c1-4-7-21(23-3)11-15-13(2)17(26-18(15)10-20(21)22)8-14-5-6-16-19(9-14)25-12-24-16/h4-6,9-11,13,17H,1,7-8,12H2,2-3H3/t13-,17+,21+/m1/s1

>  <standard_inchi_key>  (1383) 
MTLJGULDLAKMRZ-JRQSSSKMSA-N

>  <name>  (1383) 
nan

>  <iupac_name>  (1383) 
(2~{S},3~{R},5~{S})-5-allyl-2-(1,3-benzodioxol-5-ylmethyl)-5-methoxy-3-methyl-2,3-dihydrobenzofuran-6-one

>  <annotation_level>  (1383) 
3

>  <total_atom_count>  (1383) 
48

>  <heavy_atom_count>  (1383) 
26

>  <molecular_weight>  (1383) 
354.4

>  <exact_molecular_weight>  (1383) 
354.14672

>  <molecular_formula>  (1383) 
C21H22O5

>  <alogp>  (1383) 
3.35

>  <topological_polar_surface_area>  (1383) 
53.99

>  <rotatable_bond_count>  (1383) 
5

>  <hydrogen_bond_acceptors>  (1383) 
5

>  <hydrogen_bond_donors>  (1383) 
0

>  <hydrogen_bond_acceptors_lipinski>  (1383) 
5

>  <hydrogen_bond_donors_lipinski>  (1383) 
0

>  <lipinski_rule_of_five_violations>  (1383) 
0

>  <aromatic_rings_count>  (1383) 
1

>  <qed_drug_likeliness>  (1383) 
0.76

>  <formal_charge>  (1383) 
0

>  <fractioncsp3>  (1383) 
0.38

>  <number_of_minimal_rings>  (1383) 
4

>  <van_der_walls_volume>  (1383) 
nan

>  <contains_sugar>  (1383) 
False

>  <contains_ring_sugars>  (1383) 
False

>  <contains_linear_sugars>  (1383) 
False

>  <murcko_framework>  (1383) 
O1c2ccc(cc2OC1)CC3OC4=CCCC=C4C3

>  <np_likeness>  (1383) 
1.93

>  <chemical_class>  (1383) 
Benzodioxoles

>  <chemical_sub_class>  (1383) 
Benzodioxoles

>  <chemical_super_class>  (1383) 
Organoheterocyclic compounds

>  <direct_parent_classification>  (1383) 
Benzodioxoles

>  <np_classifier_pathway>  (1383) 
Shikimates and Phenylpropanoids

>  <np_classifier_superclass>  (1383) 
Lignans

>  <np_classifier_class>  (1383) 
Neolignans

>  <np_classifier_is_glycoside>  (1383) 
False

>  <organisms>  (1383) 
Aniba|Aniba sp.

>  <collections>  (1383) 
Latin America dataset|NuBBEDB|WikiData Natural Products|ZINC NP

>  <dois>  (1383) 
10.1016/0031-9422(80)83208-0

>  <synonyms>  (1383) 
nan

>  <cas>  (1383) 
nan

$$$$

     RDKit          2D

 29 33  0  0  0  0  0  0  0  0999 V2000
   -7.3459   -2.4251    0.0000 C   0  0  0  0  0  0  0  0  0  0  0  0
   -7.2591   -0.9276    0.0000 C   0  0  0  0  0  0  0  0  0  0  0  0
   -8.5126   -0.1037    0.0000 C   0  0  0  0  0  0  0  0  0  0  0  0
   -5.9189   -0.2540    0.0000 C   0  0  0  0  0  0  0  0  0  0  0  0
   -4.5861   -0.9423    0.0000 C   0  0  0  0  0  0  0  0  0  0  0  0
   -3.5196    0.1125    0.0000 C   0  0  0  0  0  0  0  0  0  0  0  0
   -4.1932    1.4527    0.0000 C   0  0  0  0  0  0  0  0  0  0  0  0
   -3.3693    2.7062    0.0000 C   0  0  0  0  0  0  0  0  0  0  0  0
   -1.8718    2.6194    0.0000 C   0  0  0  0  0  0  0  0  0  0  0  0
   -1.1982    1.2792    0.0000 C   0  0  0  0  0  0  0  0  0  0  0  0
   -2.0221    0.0257    0.0000 C   0  0  0  0  0  0  0  0  0  0  0  0
   -1.3485   -1.3146    0.0000 O   0  0  0  0  0  0  0  0  0  0  0  0
    0.1490   -1.4013    0.0000 C   0  0  0  0  0  0  0  0  0  0  0  0
    0.9728   -0.1478    0.0000 C   0  0  0  0  0  0  0  0  0  0  0  0
    2.4703   -0.2346    0.0000 C   0  0  0  0  0  0  0  0  0  0  0  0
    3.2942    1.0189    0.0000 C   0  0  0  0  0  0  0  0  0  0  0  0
    4.7917    0.9321    0.0000 C   0  0  0  0  0  0  0  0  0  0  0  0
    5.6156    2.1856    0.0000 O   0  0  0  0  0  0  0  0  0  0  0  0
    7.1131    2.0988    0.0000 C   0  0  0  0  0  0  0  0  0  0  0  0
    5.4653   -0.4081    0.0000 C   0  0  0  0  0  0  0  0  0  0  0  0
    6.9628   -0.4949    0.0000 O   0  0  0  0  0  0  0  0  0  0  0  0
    7.6364   -1.8352    0.0000 C   0  0  0  0  0  0  0  0  0  0  0  0
    4.6414   -1.6616    0.0000 C   0  0  0  0  0  0  0  0  0  0  0  0
    3.1439   -1.5749    0.0000 C   0  0  0  0  0  0  0  0  0  0  0  0
    2.3200   -2.8283    0.0000 O   0  0  0  0  0  0  0  0  0  0  0  0
    0.8226   -2.7416    0.0000 C   0  0  0  0  0  0  0  0  0  0  0  0
    0.2992    1.1924    0.0000 C   0  0  0  0  0  0  0  0  0  0  0  0
    1.1231    2.4459    0.0000 O   0  0  0  0  0  0  0  0  0  0  0  0
   -5.6760    1.2262    0.0000 O   0  0  0  0  0  0  0  0  0  0  0  0
  1  2  2  0
  2  3  1  0
  4  2  1  6
  4  5  1  0
  5  6  1  0
  6  7  2  0
  7  8  1  0
  8  9  2  0
  9 10  1  0
 10 11  2  0
 11 12  1  0
 12 13  1  0
 13 14  2  0
 14 15  1  0
 15 16  2  0
 16 17  1  0
 17 18  1  0
 18 19  1  0
 17 20  2  0
 20 21  1  0
 21 22  1  0
 20 23  1  0
 23 24  2  0
 24 25  1  0
 25 26  1  0
 14 27  1  0
 27 28  2  0
  7 29  1  0
 29  4  1  0
 11  6  1  0
 26 13  1  0
 27 10  1  0
 24 15  1  0
M  END
>  <identifier>  (1384) 
CNP0264695.1

>  <canonical_smiles>  (1384) 
C=C(C)[C@H]1CC2=C(C=CC3=C2OC2=C(C4=CC(OC)=C(OC)C=C4OC2)C3=O)O1

>  <standard_inchi>  (1384) 
InChI=1S/C23H20O6/c1-11(2)16-8-14-15(28-16)6-5-12-22(24)21-13-7-18(25-3)19(26-4)9-17(13)27-10-20(21)29-23(12)14/h5-7,9,16H,1,8,10H2,2-4H3/t16-/m1/s1

>  <standard_inchi_key>  (1384) 
GFERNZCCTZEIET-MRXNPFEDSA-N

>  <name>  (1384) 
(1)Benzopyrano(3,4-b)furo(2,3-h)(1)benzopyran-6(12H)-one, 1,2-dihydro-8,9-dimethoxy-2-(1-methylethenyl)-, (2R)-

>  <iupac_name>  (1384) 
(6~{R})-6-isopropenyl-16,17-dimethoxy-2,7,20-trioxapentacyclo[11.8.0.0^{3,11}.0^{4,8}.0^{14,19}]henicosa-1(13),3(11),4(8),9,14,16,18-heptaen-12-one

>  <annotation_level>  (1384) 
5

>  <total_atom_count>  (1384) 
49

>  <heavy_atom_count>  (1384) 
29

>  <molecular_weight>  (1384) 
392.41

>  <exact_molecular_weight>  (1384) 
392.12599

>  <molecular_formula>  (1384) 
C23H20O6

>  <alogp>  (1384) 
4.25

>  <topological_polar_surface_area>  (1384) 
67.13

>  <rotatable_bond_count>  (1384) 
3

>  <hydrogen_bond_acceptors>  (1384) 
6

>  <hydrogen_bond_donors>  (1384) 
0

>  <hydrogen_bond_acceptors_lipinski>  (1384) 
6

>  <hydrogen_bond_donors_lipinski>  (1384) 
0

>  <lipinski_rule_of_five_violations>  (1384) 
0

>  <aromatic_rings_count>  (1384) 
3

>  <qed_drug_likeliness>  (1384) 
0.62

>  <formal_charge>  (1384) 
0

>  <fractioncsp3>  (1384) 
0.26

>  <number_of_minimal_rings>  (1384) 
5

>  <van_der_walls_volume>  (1384) 
337.33

>  <contains_sugar>  (1384) 
False

>  <contains_ring_sugars>  (1384) 
False

>  <contains_linear_sugars>  (1384) 
False

>  <murcko_framework>  (1384) 
O1c2c(ccc3OCCc32)CC4=C1COc5ccccc54

>  <np_likeness>  (1384) 
1.51

>  <chemical_class>  (1384) 
Isoflavonoids

>  <chemical_sub_class>  (1384) 
Rotenoids

>  <chemical_super_class>  (1384) 
Phenylpropanoids and polyketides

>  <direct_parent_classification>  (1384) 
Rotenones

>  <np_classifier_pathway>  (1384) 
Shikimates and Phenylpropanoids

>  <np_classifier_superclass>  (1384) 
Isoflavonoids

>  <np_classifier_class>  (1384) 
Rotenoids

>  <np_classifier_is_glycoside>  (1384) 
False

>  <organisms>  (1384) 
Achillea cretica|Cordia americana|Derris|Derris malaccensis|Derris montana|Derris trifoliata|Derris urucu|Eupatorium riparium|Glycosmis montana|Pedicularis semitorta|Scopolia japonica|Tephrosia candida|Tephrosia sinapou|Tephrosia villosa|derris malaccensis plain

>  <collections>  (1384) 
Australian natural products|CMAUP (cCollective molecular activities of useful plants)|Latin America dataset|NPASS|NuBBEDB|Super Natural II|WikiData Natural Products

>  <dois>  (1384) 
10.1002/(SICI)1521-4168(19980901)21:9<513::AID-JHRC513>3.0.CO;2-F|10.1002/(sici)1521-4168(19980901)21:9<513::aid-jhrc513>3.0.co;2-f|10.1002/MRC.2422|10.1016/0031-9422(86)80039-5|10.1016/S0031-9422(00)98664-3|10.1016/S0040-4039(01)83698-4|10.1021/NP010126P|10.1021/np010126p|10.1139/V07-120

>  <synonyms>  (1384) 
(1)Benzopyrano(3,4-b)furo(2,3-h)(1)benzopyran-6(12H)-one, 1,2-dihydro-2-alpha-isopropyl-8,9-dimethoxy-|(1)Benzopyrano(3,4-b)furo(2,3-h)(1)benzopyran-6(12H)-one, 1,2-dihydro-8,9-dimethoxy-2-(1-methylethenyl)-, (R)-|6a,12a-Dehydrorotenone|7,8-Didehydrorotenone|7FPD8FYQ76|AKOS040746743|CHEMBL7940|NSC-194812|Rotenone, didehydro-

>  <cas>  (1384) 
nan

$$$$

     RDKit          2D

 26 29  0  0  0  0  0  0  0  0999 V2000
    6.6204   -2.2988    0.0000 C   0  0  0  0  0  0  0  0  0  0  0  0
    6.1768   -0.8659    0.0000 O   0  0  0  0  0  0  0  0  0  0  0  0
    4.7141   -0.5336    0.0000 C   0  0  0  0  0  0  0  0  0  0  0  0
    3.6950   -1.6342    0.0000 C   0  0  0  0  0  0  0  0  0  0  0  0
    2.2322   -1.3019    0.0000 C   0  0  0  0  0  0  0  0  0  0  0  0
    1.7886    0.1310    0.0000 C   0  0  0  0  0  0  0  0  0  0  0  0
    2.8078    1.2316    0.0000 C   0  0  0  0  0  0  0  0  0  0  0  0
    4.2705    0.8993    0.0000 C   0  0  0  0  0  0  0  0  0  0  0  0
    5.2896    2.0000    0.0000 O   0  0  0  0  0  0  0  0  0  0  0  0
    6.7524    1.6677    0.0000 C   0  0  0  0  0  0  0  0  0  0  0  0
    0.3259    0.4633    0.0000 C   0  0  0  0  0  0  0  0  0  0  0  0
   -0.1177    1.8962    0.0000 O   0  0  0  0  0  0  0  0  0  0  0  0
   -0.6932   -0.6374    0.0000 C   0  0  0  0  0  0  0  0  0  0  0  0
   -2.1560   -0.3051    0.0000 C   0  0  0  0  0  0  0  0  0  0  0  0
   -3.1751   -1.4057    0.0000 C   0  0  0  0  0  0  0  0  0  0  0  0
   -4.6378   -1.0734    0.0000 C   0  0  0  0  0  0  0  0  0  0  0  0
   -5.0814    0.3595    0.0000 C   0  0  0  0  0  0  0  0  0  0  0  0
   -4.0623    1.4601    0.0000 C   0  0  0  0  0  0  0  0  0  0  0  0
   -2.5996    1.1278    0.0000 C   0  0  0  0  0  0  0  0  0  0  0  0
   -1.5804    2.2284    0.0000 O   0  0  0  0  0  0  0  0  0  0  0  0
   -2.0240    3.6613    0.0000 C   0  0  0  0  0  0  0  0  0  0  0  0
   -6.5813    0.3804    0.0000 O   0  0  0  0  0  0  0  0  0  0  0  0
   -7.0646   -1.0396    0.0000 C   0  0  0  0  0  0  0  0  0  0  0  0
   -5.8635   -1.9381    0.0000 O   0  0  0  0  0  0  0  0  0  0  0  0
   -0.2496   -2.0703    0.0000 C   0  0  0  0  0  0  0  0  0  0  0  0
    1.2131   -2.4025    0.0000 O   0  0  0  0  0  0  0  0  0  0  0  0
  1  2  1  0
  2  3  1  0
  3  4  2  0
  4  5  1  0
  5  6  2  0
  6  7  1  0
  7  8  2  0
  8  9  1  0
  9 10  1  0
  6 11  1  0
 11 12  2  0
 11 13  1  0
 13 14  1  0
 14 15  2  0
 15 16  1  0
 16 17  2  0
 17 18  1  0
 18 19  2  0
 19 20  1  0
 20 21  1  0
 17 22  1  0
 22 23  1  0
 23 24  1  0
 13 25  2  0
 25 26  1  0
  8  3  1  0
 19 14  1  0
 26  5  1  0
 24 16  1  0
M  END
>  <identifier>  (1385) 
CNP0324497.0

>  <canonical_smiles>  (1385) 
COC1=CC2=C(C=C1OC)C(=O)C(C1=CC3=C(C=C1OC)OCO3)=CO2

>  <standard_inchi>  (1385) 
InChI=1S/C19H16O7/c1-21-13-6-18-17(25-9-26-18)4-10(13)12-8-24-14-7-16(23-3)15(22-2)5-11(14)19(12)20/h4-8H,9H2,1-3H3

>  <standard_inchi_key>  (1385) 
INHRJYBOMHQVBR-UHFFFAOYSA-N

>  <name>  (1385) 
Milldurone

>  <iupac_name>  (1385) 
6,7-dimethoxy-3-(6-methoxy-1,3-benzodioxol-5-yl)chromen-4-one

>  <annotation_level>  (1385) 
5

>  <total_atom_count>  (1385) 
42

>  <heavy_atom_count>  (1385) 
26

>  <molecular_weight>  (1385) 
356.33

>  <exact_molecular_weight>  (1385) 
356.0896

>  <molecular_formula>  (1385) 
C19H16O7

>  <alogp>  (1385) 
3.21

>  <topological_polar_surface_area>  (1385) 
76.36

>  <rotatable_bond_count>  (1385) 
4

>  <hydrogen_bond_acceptors>  (1385) 
7

>  <hydrogen_bond_donors>  (1385) 
0

>  <hydrogen_bond_acceptors_lipinski>  (1385) 
7

>  <hydrogen_bond_donors_lipinski>  (1385) 
0

>  <lipinski_rule_of_five_violations>  (1385) 
0

>  <aromatic_rings_count>  (1385) 
3

>  <qed_drug_likeliness>  (1385) 
0.71

>  <formal_charge>  (1385) 
0

>  <fractioncsp3>  (1385) 
0.21

>  <number_of_minimal_rings>  (1385) 
4

>  <van_der_walls_volume>  (1385) 
nan

>  <contains_sugar>  (1385) 
False

>  <contains_ring_sugars>  (1385) 
False

>  <contains_linear_sugars>  (1385) 
False

>  <murcko_framework>  (1385) 
O1C=C(c2ccc3OCOc3c2)Cc4ccccc14

>  <np_likeness>  (1385) 
0.70

>  <chemical_class>  (1385) 
Isoflavonoids

>  <chemical_sub_class>  (1385) 
O-methylated isoflavonoids

>  <chemical_super_class>  (1385) 
Phenylpropanoids and polyketides

>  <direct_parent_classification>  (1385) 
7-O-methylisoflavones

>  <np_classifier_pathway>  (1385) 
Shikimates and Phenylpropanoids

>  <np_classifier_superclass>  (1385) 
Isoflavonoids

>  <np_classifier_class>  (1385) 
Isoflavones

>  <np_classifier_is_glycoside>  (1385) 
False

>  <organisms>  (1385) 
Actaea yunnanensis|Arctostaphylos pumila|Astropecten aurantiacus|Ateleia herbert-smithii|Baccharis intermixta|Brunsvigia rosea|Callitropsis araucarioides|Catocarpus oreites|Centaurium cachanlahuen|Circinaria calcarea|Cordyla africana|Erythrina velutina|Eucalyptus mckieana|Gelasinospora longispora|Helianthus gracilentus|Hibiscus mutabilis|Mildbraediodendron excelsa|Millettia dura|Pterodon emarginatus|Pterodon pubescens|Ulex nanus|Ulmus macrocarpa|Zieria aspalathoides|ateleia glazioviana

>  <collections>  (1385) 
ANPDB|Latin America dataset|NANPDB (Natural Products from Northern African Sources)|NPASS|NPEdia|NuBBEDB|Super Natural II|UNPD (Universal Natural Products Database)|WikiData Natural Products|ZINC NP

>  <dois>  (1385) 
10.1016/S0031-9422(00)97301-1|10.1016/j.bmcl.2007.03.044|10.1016/j.phytol.2014.02.001|10.1021/NP020425U|10.1039/P19730002222

>  <synonyms>  (1385) 
2'67-trimethoxy-4'5'-methylenedioxyisoflavone|24195-15-1|6,7-Dimethoxy-3-(6-methoxy-1,3-benzodioxol-5-yl)-4H-1-benzopyran-4-one|6,7-dimethoxy-3-(6-methoxy-1,3-benzodioxol-5-yl)chromen-4-one|CCG-38804|CHEMBL234717|LMPK12050125|SCHEMBL4283565|SPBio_001886|Spectrum2_001753|XM161782|milldurone

>  <cas>  (1385) 
24195-15-1

$$$$

     RDKit          2D

 13 13  0  0  0  0  0  0  0  0999 V2000
   -3.6633    0.0000    0.0000 C   0  0  0  0  0  0  0  0  0  0  0  0
   -2.5295   -0.9820    0.0000 O   0  0  0  0  0  0  0  0  0  0  0  0
   -1.1121   -0.4910    0.0000 C   0  0  0  0  0  0  0  0  0  0  0  0
   -0.8286    0.9820    0.0000 C   0  0  0  0  0  0  0  0  0  0  0  0
   -1.9625    1.9640    0.0000 O   0  0  0  0  0  0  0  0  0  0  0  0
    0.5888    1.4730    0.0000 C   0  0  0  0  0  0  0  0  0  0  0  0
    0.8722    2.9459    0.0000 O   0  0  0  0  0  0  0  0  0  0  0  0
    1.7226    0.4910    0.0000 C   0  0  0  0  0  0  0  0  0  0  0  0
    3.1400    0.9820    0.0000 O   0  0  0  0  0  0  0  0  0  0  0  0
    1.4392   -0.9820    0.0000 C   0  0  0  0  0  0  0  0  0  0  0  0
    2.5731   -1.9640    0.0000 O   0  0  0  0  0  0  0  0  0  0  0  0
    0.0218   -1.4730    0.0000 C   0  0  0  0  0  0  0  0  0  0  0  0
   -0.2617   -2.9459    0.0000 O   0  0  0  0  0  0  0  0  0  0  0  0
  1  2  1  0
  3  2  1  1
  3  4  1  0
  4  5  1  6
  4  6  1  0
  6  7  1  1
  6  8  1  0
  8  9  1  1
  8 10  1  0
 10 11  1  6
 10 12  1  0
 12 13  1  6
 12  3  1  0
M  END
>  <identifier>  (1386) 
CNP0201870.1

>  <canonical_smiles>  (1386) 
CO[C@H]1[C@H](O)[C@@H](O)[C@@H](O)[C@H](O)[C@@H]1O

>  <standard_inchi>  (1386) 
InChI=1S/C7H14O6/c1-13-7-5(11)3(9)2(8)4(10)6(7)12/h2-12H,1H3/t2-,3-,4-,5-,6+,7+/m0/s1

>  <standard_inchi_key>  (1386) 
DSCFFEYYQKSRSV-KLJZZCKASA-N

>  <name>  (1386) 
Pinitol

>  <iupac_name>  (1386) 
(1~{R},2~{S},4~{S},5~{S})-6-methoxycyclohexane-1,2,3,4,5-pentol

>  <annotation_level>  (1386) 
5

>  <total_atom_count>  (1386) 
27

>  <heavy_atom_count>  (1386) 
13

>  <molecular_weight>  (1386) 
194.18

>  <exact_molecular_weight>  (1386) 
194.07904

>  <molecular_formula>  (1386) 
C7H14O6

>  <alogp>  (1386) 
-3.18

>  <topological_polar_surface_area>  (1386) 
110.38

>  <rotatable_bond_count>  (1386) 
1

>  <hydrogen_bond_acceptors>  (1386) 
6

>  <hydrogen_bond_donors>  (1386) 
5

>  <hydrogen_bond_acceptors_lipinski>  (1386) 
6

>  <hydrogen_bond_donors_lipinski>  (1386) 
5

>  <lipinski_rule_of_five_violations>  (1386) 
0

>  <aromatic_rings_count>  (1386) 
0

>  <qed_drug_likeliness>  (1386) 
0.30

>  <formal_charge>  (1386) 
0

>  <fractioncsp3>  (1386) 
1.00

>  <number_of_minimal_rings>  (1386) 
1

>  <van_der_walls_volume>  (1386) 
167.80

>  <contains_sugar>  (1386) 
False

>  <contains_ring_sugars>  (1386) 
False

>  <contains_linear_sugars>  (1386) 
False

>  <murcko_framework>  (1386) 
C1CCCCC1

>  <np_likeness>  (1386) 
1.56

>  <chemical_class>  (1386) 
Organooxygen compounds

>  <chemical_sub_class>  (1386) 
Alcohols and polyols

>  <chemical_super_class>  (1386) 
Organic oxygen compounds

>  <direct_parent_classification>  (1386) 
Cyclohexanols

>  <np_classifier_pathway>  (1386) 
Carbohydrates

>  <np_classifier_superclass>  (1386) 
Polyols

>  <np_classifier_class>  (1386) 
Cyclitols

>  <np_classifier_is_glycoside>  (1386) 
False

>  <organisms>  (1386) 
Abies amabilis|Acacia farnesiana|Acer oblongum|Albizia subdimidiata|Alcea rosea|Alcyonium utinomii|Aldisa sanguinea|Alpinia blepharocalyx|Ammopiptanthus mongolicus|Anguilla japonica|Aonidiella aurantii|Aplysina archeri|Apuleia leiocarpa|Araiostegiella perdurans|Artocarpus altilis|Aspergillus carneus|Aspergillus striatus|Astragalus fruticosus|Astragalus macropus|Astragalus mucidus|Astragalus pterocephalus|Astragalus sieversianus|Astragalus syriacus|Astragalus tomentosus|Astragalus zahlbruckneri|Axinella cannabina|Baccharoides anthelmintica|Balanops australiana|Burkholderia cepacia|Cathormion altissimum|Centaurea solstitialis|Ceratonia siliqua|Chara ceratophylla|Chesneya mongolica|Coniophora puteana|Cordia boissieri|Cortinarius odoratus|Cosmos diversifolius|Coussarea paniculata|Crocodylus niloticus|Cryptocarya oblata|Curcuma caesia|Cyclopia falcata|Cyclopia subternata|Detarium microcarpum|Dorycnium hirsutum|Eleutherobia albiflora|Erythrina pallida|Erythrophleum couminga|Erythrophleum fordii|Eucalyptus australiana|Eucalyptus jenseni|Eunicea pinta|Euonymus tingens|Euphorbia cornigera|Eysenhardtia subcoriacea|Genista cadasonensis|Genista corsica|Genista ephedroides|Glycine max|Glycine soja|Gymnopus confluens|Hapalosiphon delicatulus|Heterobasidion annosum|Hydrocotyle leucocephala|Hylocomium splendens|Hymenocallis speciosa|Hypoxylon carneum|Inga velutina|Jacmaia incana|Kokoona reflexa|Lactuca serriola|Lagochilus leiacanthus|Ligularia pleurocaulis|Lonchocarpus salvadorensis|Lotus hirsutus|Lotus tenuis|Macrolepiota neomastoidea|Maesa ramentacea|Melolontha melolontha|Millettia laurentii|Monodora tenuifolia|Nierembergia hippomanica|Nigritella suaveolens|Nocardia brasiliensis|Nototodarus sloanii|Ocimum pilosum|Ocimum tenuiflorum|Onobrychis viciifolia|Ophioglossum petiolatum|Ophiopogon planiscapus|Ormosia nobilis|Oyedaea verbesinoides|Passalora smilacis|Pauridiantha callicarpoides|Penicillium janczewskii|Phelline lucida|Phyllopsora furfuracea|Pinus strobus|Pinus sylvestris|Piptostigma fugax|Pisum sativum|Pluchea odorata|Pseudoplexaura flagellosa|Pyrola calliantha|Rheum qinlingense|Rhododendron mucronatum|Rhododendron ungerni|Russula japonica|Salacia lehmbachii|Salvia yosgadensis|Sarcophyte sanguinea|Sideritis brevibracteata|Sideroxylon cubense|Simmondsia chinensis|Solanum berthaultii|Solenopsis punctaticeps|Sphoeroides vermicularis|Stizolophus coronopifolius|Streptomyces viridogenes|Strychnos tricalysioides|Tribulus cistoides|Trichodesma incanum|Urochloa decumbens|Viguiera decurrens|Xanthorrhoea resinosa|Xenia florida|Xenia obscuronata|Zanha africana|liquorice

>  <collections>  (1386) 
BIOFACQUIM|CMAUP (cCollective molecular activities of useful plants)|ChEBI NPs|DrugBankNP|FooDB|Latin America dataset|NPASS|NuBBEDB|Super Natural II|TCMDB-Taiwan (Traditional Chinese Medicine database)|WikiData Natural Products|ZINC NP

>  <dois>  (1386) 
10.1007/BF02249134|10.1007/S10600-006-0099-1|10.1007/S10600-008-9052-9|10.1007/S10600-008-9127-7|10.1007/S10600-011-9894-4|10.1016/0031-9422(84)83079-4|10.1016/0031-9422(88)83068-1|10.1016/0031-9422(90)80198-P|10.1016/0031-9422(95)00622-2|10.1016/J.BMC.2008.09.021|10.1016/J.PHYTOCHEM.2007.07.019|10.1016/S0008-6215(02)00025-3|10.1016/S0031-9422(00)84473-8|10.1016/S0031-9422(00)89891-X|10.1016/S0031-9422(00)97556-3|10.1016/j.jep.2018.10.031|10.1021/JF000388H|10.1021/JF010380N|10.1021/JF040097Z|10.1021/JF200821P|10.1021/NP050034Q|10.1021/NP970221R|10.1021/NP980112S|10.1021/NP990282K|10.1021/jf200821p|10.1021/np970221r|10.1021/np980112s|10.1080/14786410802522559|10.1111/J.1574-6941.2000.TB00732.X|10.1135/CCCC19901257

>  <synonyms>  (1386) 
(+)-pinitol|D-Pinitol|Pinitol

>  <cas>  (1386) 
10284-63-6

$$$$

     RDKit          2D

 34 37  0  0  0  0  0  0  0  0999 V2000
    8.1933   -1.0544    0.0000 C   0  0  0  0  0  0  0  0  0  0  0  0
    6.7257   -1.3646    0.0000 C   0  0  0  0  0  0  0  0  0  0  0  0
    5.7233   -0.2487    0.0000 C   0  0  0  0  0  0  0  0  0  0  0  0
    6.0368    1.2181    0.0000 C   0  0  0  0  0  0  0  0  0  0  0  0
    7.4078    1.8267    0.0000 O   0  0  0  0  0  0  0  0  0  0  0  0
    4.7386    1.9696    0.0000 C   0  0  0  0  0  0  0  0  0  0  0  0
    3.6227    0.9672    0.0000 C   0  0  0  0  0  0  0  0  0  0  0  0
    2.1311    1.1256    0.0000 C   0  0  0  0  0  0  0  0  0  0  0  0
    1.5226    2.4967    0.0000 C   0  0  0  0  0  0  0  0  0  0  0  0
    0.0310    2.6551    0.0000 C   0  0  0  0  0  0  0  0  0  0  0  0
   -0.8521    1.4426    0.0000 C   0  0  0  0  0  0  0  0  0  0  0  0
   -2.3437    1.6011    0.0000 C   0  0  0  0  0  0  0  0  0  0  0  0
   -2.9522    2.9721    0.0000 O   0  0  0  0  0  0  0  0  0  0  0  0
   -4.4438    3.1306    0.0000 C   0  0  0  0  0  0  0  0  0  0  0  0
   -5.0524    4.5016    0.0000 C   0  0  0  0  0  0  0  0  0  0  0  0
   -5.3269    1.9180    0.0000 O   0  0  0  0  0  0  0  0  0  0  0  0
   -3.2267    0.3886    0.0000 C   0  0  0  0  0  0  0  0  0  0  0  0
   -4.7183    0.5470    0.0000 O   0  0  0  0  0  0  0  0  0  0  0  0
   -5.6014   -0.6655    0.0000 C   0  0  0  0  0  0  0  0  0  0  0  0
   -7.0930   -0.5070    0.0000 C   0  0  0  0  0  0  0  0  0  0  0  0
   -4.9928   -2.0365    0.0000 O   0  0  0  0  0  0  0  0  0  0  0  0
   -2.6182   -0.9825    0.0000 C   0  0  0  0  0  0  0  0  0  0  0  0
   -3.5012   -2.1950    0.0000 O   0  0  0  0  0  0  0  0  0  0  0  0
   -2.8927   -3.5660    0.0000 C   0  0  0  0  0  0  0  0  0  0  0  0
   -3.7757   -4.7785    0.0000 C   0  0  0  0  0  0  0  0  0  0  0  0
   -1.4010   -3.7245    0.0000 O   0  0  0  0  0  0  0  0  0  0  0  0
   -1.1266   -1.1409    0.0000 C   0  0  0  0  0  0  0  0  0  0  0  0
   -0.2435    0.0716    0.0000 C   0  0  0  0  0  0  0  0  0  0  0  0
    0.3650   -1.2994    0.0000 C   0  0  0  0  0  0  0  0  0  0  0  0
    1.2481   -0.0869    0.0000 C   0  0  0  0  0  0  0  0  0  0  0  0
    1.8567   -1.4579    0.0000 C   0  0  0  0  0  0  0  0  0  0  0  0
    3.3483   -1.6164    0.0000 C   0  0  0  0  0  0  0  0  0  0  0  0
    4.2313   -0.4038    0.0000 C   0  0  0  0  0  0  0  0  0  0  0  0
    4.9798   -1.7037    0.0000 C   0  0  0  0  0  0  0  0  0  0  0  0
  1  2  1  0
  3  2  1  6
  3  4  1  0
  4  5  2  0
  4  6  1  0
  6  7  1  0
  7  8  1  0
  8  9  1  0
  9 10  1  0
 10 11  1  0
 11 12  1  0
 12 13  1  6
 13 14  1  0
 14 15  1  0
 14 16  2  0
 12 17  1  0
 17 18  1  1
 18 19  1  0
 19 20  1  0
 19 21  2  0
 17 22  1  0
 22 23  1  1
 23 24  1  0
 24 25  1  0
 24 26  2  0
 22 27  1  0
 27 28  1  0
 28 29  1  6
 28 30  1  0
 30 31  1  0
 31 32  1  0
 32 33  1  0
 33 34  1  6
 33  3  1  0
 33  7  1  0
 30  8  1  0
 28 11  1  0
M  END
>  <identifier>  (1387) 
CNP0080468.1

>  <canonical_smiles>  (1387) 
CC[C@H]1C(=O)CC2C3CCC4[C@@H](OC(C)=O)[C@H](OC(C)=O)[C@H](OC(C)=O)C[C@]4(C)C3CC[C@@]21C

>  <standard_inchi>  (1387) 
InChI=1S/C27H40O7/c1-7-18-22(31)12-21-17-8-9-20-24(33-15(3)29)25(34-16(4)30)23(32-14(2)28)13-27(20,6)19(17)10-11-26(18,21)5/h17-21,23-25H,7-13H2,1-6H3/t17?,18-,19?,20?,21?,23+,24+,25+,26+,27+/m0/s1

>  <standard_inchi_key>  (1387) 
PLZPNDBFLGCZTJ-QVEZUDIUSA-N

>  <name>  (1387) 
nan

>  <iupac_name>  (1387) 
[(2~{R},3~{R},4~{R},10~{R},13~{S},17~{R})-3,4-diacetoxy-17-ethyl-10,13-dimethyl-16-oxo-1,2,3,4,5,6,7,8,9,11,12,14,15,17-tetradecahydrocyclopenta[a]phenanthren-2-yl] acetate

>  <annotation_level>  (1387) 
4

>  <total_atom_count>  (1387) 
74

>  <heavy_atom_count>  (1387) 
34

>  <molecular_weight>  (1387) 
476.61

>  <exact_molecular_weight>  (1387) 
476.2774

>  <molecular_formula>  (1387) 
C27H40O7

>  <alogp>  (1387) 
4.25

>  <topological_polar_surface_area>  (1387) 
95.97

>  <rotatable_bond_count>  (1387) 
4

>  <hydrogen_bond_acceptors>  (1387) 
7

>  <hydrogen_bond_donors>  (1387) 
0

>  <hydrogen_bond_acceptors_lipinski>  (1387) 
7

>  <hydrogen_bond_donors_lipinski>  (1387) 
0

>  <lipinski_rule_of_five_violations>  (1387) 
0

>  <aromatic_rings_count>  (1387) 
0

>  <qed_drug_likeliness>  (1387) 
0.44

>  <formal_charge>  (1387) 
0

>  <fractioncsp3>  (1387) 
0.85

>  <number_of_minimal_rings>  (1387) 
4

>  <van_der_walls_volume>  (1387) 
nan

>  <contains_sugar>  (1387) 
False

>  <contains_ring_sugars>  (1387) 
False

>  <contains_linear_sugars>  (1387) 
False

>  <murcko_framework>  (1387) 
C1CCC2C(C1)CCC3C4CCCC4CCC23

>  <np_likeness>  (1387) 
2.23

>  <chemical_class>  (1387) 
Steroids and steroid derivatives

>  <chemical_sub_class>  (1387) 
Steroid esters

>  <chemical_super_class>  (1387) 
Lipids and lipid-like molecules

>  <direct_parent_classification>  (1387) 
Steroid esters

>  <np_classifier_pathway>  (1387) 
Terpenoids

>  <np_classifier_superclass>  (1387) 
Steroids

>  <np_classifier_class>  (1387) 
Pregnane steroids

>  <np_classifier_is_glycoside>  (1387) 
False

>  <organisms>  (1387) 
Trichilia claussenii

>  <collections>  (1387) 
Latin America dataset|NuBBEDB

>  <dois>  (1387) 
10.1016/S0031-9422(97)00167-2

>  <synonyms>  (1387) 
2\u221a\u00e9\u00ac\u00b13\u221a\u00e9\u00ac\u00b14\u221a\u00e9\u00ac\u2264-Triacetoxypregnan-16-one

>  <cas>  (1387) 
nan

$$$$

     RDKit          2D

 17 18  0  0  0  0  0  0  0  0999 V2000
   -4.3108   -1.3559    0.0000 C   0  0  0  0  0  0  0  0  0  0  0  0
   -2.8277   -1.5807    0.0000 O   0  0  0  0  0  0  0  0  0  0  0  0
   -1.8915   -0.4088    0.0000 C   0  0  0  0  0  0  0  0  0  0  0  0
   -2.4383    0.9880    0.0000 C   0  0  0  0  0  0  0  0  0  0  0  0
   -3.9213    1.2128    0.0000 O   0  0  0  0  0  0  0  0  0  0  0  0
   -1.5020    2.1599    0.0000 C   0  0  0  0  0  0  0  0  0  0  0  0
   -0.0190    1.9351    0.0000 C   0  0  0  0  0  0  0  0  0  0  0  0
    0.9173    3.1070    0.0000 C   0  0  0  0  0  0  0  0  0  0  0  0
    0.5278    0.5383    0.0000 C   0  0  0  0  0  0  0  0  0  0  0  0
   -0.4084   -0.6337    0.0000 C   0  0  0  0  0  0  0  0  0  0  0  0
    0.1384   -2.0304    0.0000 O   0  0  0  0  0  0  0  0  0  0  0  0
    1.6214   -2.2553    0.0000 C   0  0  0  0  0  0  0  0  0  0  0  0
    2.1682   -3.6521    0.0000 O   0  0  0  0  0  0  0  0  0  0  0  0
    2.5577   -1.0834    0.0000 C   0  0  0  0  0  0  0  0  0  0  0  0
    2.0109    0.3134    0.0000 C   0  0  0  0  0  0  0  0  0  0  0  0
    2.9471    1.4853    0.0000 O   0  0  0  0  0  0  0  0  0  0  0  0
    4.4302    1.2605    0.0000 C   0  0  0  0  0  0  0  0  0  0  0  0
  1  2  1  0
  2  3  1  0
  3  4  2  0
  4  5  1  0
  4  6  1  0
  6  7  2  0
  7  8  1  0
  7  9  1  0
  9 10  2  0
 10 11  1  0
 11 12  1  0
 12 13  2  0
 12 14  1  0
 14 15  2  0
 15 16  1  0
 16 17  1  0
 10  3  1  0
 15  9  1  0
M  END
>  <identifier>  (1388) 
CNP0198601.0

>  <canonical_smiles>  (1388) 
COC1=C(O)C=C(C)C2=C1OC(=O)C=C2OC

>  <standard_inchi>  (1388) 
InChI=1S/C12H12O5/c1-6-4-7(13)11(16-3)12-10(6)8(15-2)5-9(14)17-12/h4-5,13H,1-3H3

>  <standard_inchi_key>  (1388) 
ZSTVBYDGILIBAM-UHFFFAOYSA-N

>  <name>  (1388) 
41680-14-2

>  <iupac_name>  (1388) 
7-hydroxy-4,8-dimethoxy-5-methyl-chromen-2-one

>  <annotation_level>  (1388) 
5

>  <total_atom_count>  (1388) 
29

>  <heavy_atom_count>  (1388) 
17

>  <molecular_weight>  (1388) 
236.22

>  <exact_molecular_weight>  (1388) 
236.06847

>  <molecular_formula>  (1388) 
C12H12O5

>  <alogp>  (1388) 
1.82

>  <topological_polar_surface_area>  (1388) 
68.90

>  <rotatable_bond_count>  (1388) 
2

>  <hydrogen_bond_acceptors>  (1388) 
5

>  <hydrogen_bond_donors>  (1388) 
1

>  <hydrogen_bond_acceptors_lipinski>  (1388) 
5

>  <hydrogen_bond_donors_lipinski>  (1388) 
1

>  <lipinski_rule_of_five_violations>  (1388) 
0

>  <aromatic_rings_count>  (1388) 
2

>  <qed_drug_likeliness>  (1388) 
0.81

>  <formal_charge>  (1388) 
0

>  <fractioncsp3>  (1388) 
0.25

>  <number_of_minimal_rings>  (1388) 
2

>  <van_der_walls_volume>  (1388) 
nan

>  <contains_sugar>  (1388) 
False

>  <contains_ring_sugars>  (1388) 
False

>  <contains_linear_sugars>  (1388) 
False

>  <murcko_framework>  (1388) 
O1c2ccccc2C=CC1

>  <np_likeness>  (1388) 
1.31

>  <chemical_class>  (1388) 
Coumarins and derivatives

>  <chemical_sub_class>  (1388) 
Hydroxycoumarins

>  <chemical_super_class>  (1388) 
Phenylpropanoids and polyketides

>  <direct_parent_classification>  (1388) 
7-hydroxycoumarins

>  <np_classifier_pathway>  (1388) 
Shikimates and Phenylpropanoids

>  <np_classifier_superclass>  (1388) 
Coumarins

>  <np_classifier_class>  (1388) 
Simple coumarins

>  <np_classifier_is_glycoside>  (1388) 
False

>  <organisms>  (1388) 
Platymiscium praecox

>  <collections>  (1388) 
Latin America dataset|NuBBEDB|Super Natural II|UNPD (Universal Natural Products Database)|ZINC NP

>  <dois>  (1388) 
10.1016/S0031-9422(00)89849-0

>  <synonyms>  (1388) 
7-Hydroxy-4,8-dimethoxy-5-methyl-2H-1-benzopyran-2-one|7-hydroxy-48-dimethoxy-5-methylcoumarin|DTXSID60785583

>  <cas>  (1388) 
nan

$$$$

     RDKit          2D

 15 16  0  0  0  0  0  0  0  0999 V2000
   -3.0000   -2.7713    0.0000 C   0  0  0  0  0  0  0  0  0  0  0  0
   -2.2500   -1.4722    0.0000 C   0  0  0  0  0  0  0  0  0  0  0  0
   -3.0000   -0.1732    0.0000 C   0  0  0  0  0  0  0  0  0  0  0  0
   -2.2500    1.1258    0.0000 C   0  0  0  0  0  0  0  0  0  0  0  0
   -0.7500    1.1258    0.0000 C   0  0  0  0  0  0  0  0  0  0  0  0
    0.0000    2.4249    0.0000 C   0  0  0  0  0  0  0  0  0  0  0  0
   -0.7500    3.7239    0.0000 C   0  0  0  0  0  0  0  0  0  0  0  0
    1.5000    2.4249    0.0000 C   0  0  0  0  0  0  0  0  0  0  0  0
    2.2500    1.1258    0.0000 C   0  0  0  0  0  0  0  0  0  0  0  0
    1.5000   -0.1732    0.0000 C   0  0  0  0  0  0  0  0  0  0  0  0
    2.2500   -1.4722    0.0000 C   0  0  0  0  0  0  0  0  0  0  0  0
    3.7500   -1.4722    0.0000 C   0  0  0  0  0  0  0  0  0  0  0  0
    1.5000   -2.7713    0.0000 C   0  0  0  0  0  0  0  0  0  0  0  0
   -0.0000   -0.1732    0.0000 C   0  0  0  0  0  0  0  0  0  0  0  0
   -0.7500   -1.4722    0.0000 C   0  0  0  0  0  0  0  0  0  0  0  0
  1  2  1  0
  2  3  2  0
  3  4  1  0
  4  5  2  0
  5  6  1  0
  6  7  1  0
  6  8  2  0
  8  9  1  0
  9 10  2  0
 10 11  1  0
 11 12  1  0
 11 13  1  0
 10 14  1  0
 14 15  2  0
 15  2  1  0
 14  5  1  0
M  END
>  <identifier>  (1389) 
CNP0274448.0

>  <canonical_smiles>  (1389) 
CC1=CC=C2C(C)=CC=C(C(C)C)C2=C1

>  <standard_inchi>  (1389) 
InChI=1S/C15H18/c1-10(2)13-8-6-12(4)14-7-5-11(3)9-15(13)14/h5-10H,1-4H3

>  <standard_inchi_key>  (1389) 
VMOJIHDTVZTGDO-UHFFFAOYSA-N

>  <name>  (1389) 
CADALENE

>  <iupac_name>  (1389) 
4-isopropyl-1,6-dimethyl-naphthalene

>  <annotation_level>  (1389) 
5

>  <total_atom_count>  (1389) 
33

>  <heavy_atom_count>  (1389) 
15

>  <molecular_weight>  (1389) 
198.31

>  <exact_molecular_weight>  (1389) 
198.14085

>  <molecular_formula>  (1389) 
C15H18

>  <alogp>  (1389) 
4.58

>  <topological_polar_surface_area>  (1389) 
0.00

>  <rotatable_bond_count>  (1389) 
1

>  <hydrogen_bond_acceptors>  (1389) 
0

>  <hydrogen_bond_donors>  (1389) 
0

>  <hydrogen_bond_acceptors_lipinski>  (1389) 
0

>  <hydrogen_bond_donors_lipinski>  (1389) 
0

>  <lipinski_rule_of_five_violations>  (1389) 
0

>  <aromatic_rings_count>  (1389) 
2

>  <qed_drug_likeliness>  (1389) 
0.63

>  <formal_charge>  (1389) 
0

>  <fractioncsp3>  (1389) 
0.33

>  <number_of_minimal_rings>  (1389) 
2

>  <van_der_walls_volume>  (1389) 
206.91

>  <contains_sugar>  (1389) 
False

>  <contains_ring_sugars>  (1389) 
False

>  <contains_linear_sugars>  (1389) 
False

>  <murcko_framework>  (1389) 
c1ccc2ccccc2c1

>  <np_likeness>  (1389) 
0.06

>  <chemical_class>  (1389) 
Prenol lipids

>  <chemical_sub_class>  (1389) 
Sesquiterpenoids

>  <chemical_super_class>  (1389) 
Lipids and lipid-like molecules

>  <direct_parent_classification>  (1389) 
Sesquiterpenoids

>  <np_classifier_pathway>  (1389) 
Terpenoids

>  <np_classifier_superclass>  (1389) 
Sesquiterpenoids

>  <np_classifier_class>  (1389) 
Cadinane sesquiterpenoids

>  <np_classifier_is_glycoside>  (1389) 
False

>  <organisms>  (1389) 
Abies sibirica|Acca sellowiana|Acorus calamus|Akebia quinata|Akebia trifoliata|Alpinia flabellata|Alternaria bataticola|Angelica japonica|Apium graveolens|Aristolochia brevipes|Aristolochia constricta|Aristolochia coryi|Artabotrys lastoursvillensis|Baccharis truncata|Bazzania japonica|Bazzania trilobata|Benincasa hispida|Bipolaris sacchari|Boenninghausenia albiflora|Callitris columellaris|Callitris glaucophylla|Callitris intratropica|Callyspongia spinosissima|Calypogeia muelleriana|Camellia sinensis|Centaurea benedicta|Chloranthus fortunei|Chuquiraga erinacea|Cinnamomum illicioides|Cinnamomum parthenoxylon|Cinnamomum zeylanicum|Cinnamon|Cistus creticus|Commiphora quadricincta|Craibiodendron yunnanese|Croton dichogamus|Croton eluteria|Cuphea hyssopifolia|Cupressus arizonica|Cupressus bakeri|Cyperus Rotundus|Cyperus rotundus|Dictyopteris divaricata|Echinoclathria subhispida|Eria rigida|Eucalyptus camaldulensis|Euphorbia palustris|Euphorbia pithyusa|Exodermis poria|Farfugium japonicum|Fouquieria diguetii|Fritillaria hupehensis|Gynoxys verrucosa|Hamamelis virginiana|Heterotheca grandiflora|Heterotheca inuloides|Heterotheca subaxillaris|Hexalobus crispiflorus|Holarrhena floribunda|Holothuria squamifera|Homo sapiens|Humulus lupulus|Hypericum perforatum|Hypericum scabrum|Hypogymnia vittata|Juniperus formosana|Laggera pterodonta|Lathyrus latifolius|Lavandula angustifolia|Leea guineense|Leea guineensis|Lophocolea heterophylla|Magnolia obovata|Mamestra brassicae|Mangifera indica|Ocotea gomezii|Ocotea morae|Ononis viscosa|Panax ginseng|Parectatosoma mocquerysi|Pedicularis rex|Pelargonium ternifolium|Phyllobates bicolor|Pilocarpus riedelianus|Pinus edulis|Piper augustum|Posidonia oceanica|Pseudocyphellaria coronata|Psidium guajava|Pterocarpus erinaceus|Pyrus bourgaeana|Rosmarinus officinalis|Salvia broussonetii|Sandoricum koetjape|Sedum sarmentosum|Sigillina signifera|Siparuna macrotepala|Sorbus torminalis|Suaeda maritima|Taiwania cryptomerioides|Teucrium asiaticum|Teucrium oxylepis|Teucrium pseudoscorodonia|Teucrium salviastrum|Teucrium scorodonia|Thelephora aurantiotincta|Thioalkalivibrio versutus|Thymus quinquecostatus|Thymus vulgaris|Triunia erythrocarpa|Xylopia aromatica|Xylopia phloiodora

>  <collections>  (1389) 
ANPDB|Australian natural products|CMAUP (cCollective molecular activities of useful plants)|ChEBI NPs|FooDB|KNApSaCK|Latin America dataset|Marine Natural Products|NANPDB (Natural Products from Northern African Sources)|NAPRORE-CR|NPASS|NuBBEDB|SANCDB|Super Natural II|TCMID (Traditional Chinese Medicine Integrated Database)|TIPdb (database of Taiwan indigenous plants)|UNPD (Universal Natural Products Database)|VietHerb|WikiData Natural Products|ZINC NP

>  <dois>  (1389) 
10.1002/(SICI)1099-1026(199707)12:4<285::AID-FFJ649>3.0.CO;2-W|10.1002/1099-1026(200005/06)15:3<182::AID-FFJ888>3.0.CO;2-X|10.1002/CBER.19761090430|10.1002/CBER.19761090608|10.1002/FFJ.2730060307|10.1002/JSSC.200800253|10.1007/S10086-018-1773-1|10.1016/0031-9422(75)85073-4|10.1016/0031-9422(79)80131-4|10.1016/0031-9422(79)80182-X|10.1016/0031-9422(90)85421-B|10.1016/0305-1978(94)90030-2|10.1016/J.CHROMA.2014.10.058|10.1016/J.FOODRES.2018.12.054|10.1016/J.PHYTOCHEM.2003.08.004|10.1016/J.PHYTOCHEM.2009.06.013|10.1016/J.PHYTOCHEM.2017.08.014|10.1016/S0031-9422(00)86883-1|10.1016/S0031-9422(01)00301-6|10.1016/S0031-9422(03)00188-2|10.1016/S0031-9422(96)00559-6|10.1016/S0031-9422(98)00283-0|10.1016/S0031-9422(99)00123-5|10.1016/j.bse.2007.05.009|10.1016/j.phytochem.2017.08.014|10.1021/JF00118A056|10.1021/JF0402633|10.1021/JF991395C|10.1021/NP800041T|10.1055/S-2001-18354|10.1055/S-2006-957420|10.1055/S-2006-958049|10.1080/10412905.1992.9698068|10.1080/10412905.1993.9698250|10.1080/10412905.1994.9699345|10.1080/10412905.1995.9698462|10.1080/10412905.1997.9700727|10.1080/10412905.2001.9699592|10.1080/10412905.2001.9699594|10.1080/10412905.2003.9698598|10.1080/10412905.2013.796498|10.1080/10412905.2018.1431966|10.1088/1752-7155/8/1/014001|10.1135/CCCC19823164|10.1177/1934578X1200700239|10.1246/BCSJ.37.1053|10.1248/CPB.47.1017|10.1371/journal.pone.0073076|10.1515/ZNC-2002-11-1206|10.1590/S0100-40422005000600010|10.1590/S0103-50532011000400018|10.3390/MOLECULES24112053|10.4028/www.scientific.net/amr.129-131.719|10.4315/0362-028X-68.4.790

>  <synonyms>  (1389) 
1,6-Dimethyl-4-(1-methylethyl)naphthalene|1,6-dimethyl-4-isopropylnaphthalene|1,6-dimethyl-4-propan-2-ylnaphthalene|4-(1-methylethyl)-1,6-dimethylnaphthalene|4-Isopropyl-1,6-dimethylnaphthalene|483-78-3|49X2436USB|AKOS006280705|CADALENE [MI]|CHEBI:89476|Cadalene|Cadalin|DTXSID40197483|LMPR0103330007|NS00031790|Naphthalene, 1,6-dimethyl-4-(1-methylethyl)-|Naphthalene, 4-isopropyl-1,6-dimethyl-|Q2692437|UNII-49X2436USB|VMOJIHDTVZTGDO-UHFFFAOYSA-N|cadalene

>  <cas>  (1389) 
483-78-3

$$$$

     RDKit          2D

 23 25  0  0  0  0  0  0  0  0999 V2000
    7.3945   -3.1827    0.0000 C   0  0  0  0  0  0  0  0  0  0  0  0
    7.3452   -1.6835    0.0000 O   0  0  0  0  0  0  0  0  0  0  0  0
    6.0222   -0.9766    0.0000 C   0  0  0  0  0  0  0  0  0  0  0  0
    4.7485   -1.7689    0.0000 C   0  0  0  0  0  0  0  0  0  0  0  0
    3.4255   -1.0620    0.0000 C   0  0  0  0  0  0  0  0  0  0  0  0
    3.3763    0.4372    0.0000 C   0  0  0  0  0  0  0  0  0  0  0  0
    2.0533    1.1442    0.0000 C   0  0  0  0  0  0  0  0  0  0  0  0
    2.0040    2.6433    0.0000 C   0  0  0  0  0  0  0  0  0  0  0  0
    0.6810    3.3503    0.0000 C   0  0  0  0  0  0  0  0  0  0  0  0
   -0.5927    2.5580    0.0000 C   0  0  0  0  0  0  0  0  0  0  0  0
   -0.5434    1.0588    0.0000 C   0  0  0  0  0  0  0  0  0  0  0  0
   -1.8171    0.2665    0.0000 C   0  0  0  0  0  0  0  0  0  0  0  0
   -3.1401    0.9735    0.0000 C   0  0  0  0  0  0  0  0  0  0  0  0
   -4.4138    0.1812    0.0000 C   0  0  0  0  0  0  0  0  0  0  0  0
   -5.7367    0.8881    0.0000 C   0  0  0  0  0  0  0  0  0  0  0  0
   -7.0104    0.0958    0.0000 C   0  0  0  0  0  0  0  0  0  0  0  0
   -6.9612   -1.4034    0.0000 C   0  0  0  0  0  0  0  0  0  0  0  0
   -8.2349   -2.1956    0.0000 O   0  0  0  0  0  0  0  0  0  0  0  0
   -5.6382   -2.1103    0.0000 C   0  0  0  0  0  0  0  0  0  0  0  0
   -4.3645   -1.3180    0.0000 C   0  0  0  0  0  0  0  0  0  0  0  0
    0.7796    0.3519    0.0000 O   0  0  0  0  0  0  0  0  0  0  0  0
    4.6500    1.2295    0.0000 C   0  0  0  0  0  0  0  0  0  0  0  0
    5.9729    0.5226    0.0000 C   0  0  0  0  0  0  0  0  0  0  0  0
  1  2  1  0
  2  3  1  0
  3  4  2  0
  4  5  1  0
  5  6  2  0
  7  6  1  1
  7  8  1  0
  8  9  1  0
  9 10  1  0
 10 11  1  0
 11 12  1  1
 12 13  1  0
 13 14  1  0
 14 15  2  0
 15 16  1  0
 16 17  2  0
 17 18  1  0
 17 19  1  0
 19 20  2  0
 11 21  1  0
  6 22  1  0
 22 23  2  0
 23  3  1  0
 21  7  1  0
 20 14  1  0
M  END
>  <identifier>  (1390) 
CNP0207518.1

>  <canonical_smiles>  (1390) 
COC1=CC=C([C@@H]2CCC[C@H](CCC3=CC=C(O)C=C3)O2)C=C1

>  <standard_inchi>  (1390) 
InChI=1S/C20H24O3/c1-22-18-13-8-16(9-14-18)20-4-2-3-19(23-20)12-7-15-5-10-17(21)11-6-15/h5-6,8-11,13-14,19-21H,2-4,7,12H2,1H3/t19-,20+/m1/s1

>  <standard_inchi_key>  (1390) 
VKLGDLFSGNHXAV-UXHICEINSA-N

>  <name>  (1390) 
Centrolobine

>  <iupac_name>  (1390) 
4-[2-[(2~{R},6~{S})-6-(4-methoxyphenyl)tetrahydropyran-2-yl]ethyl]phenol

>  <annotation_level>  (1390) 
5

>  <total_atom_count>  (1390) 
47

>  <heavy_atom_count>  (1390) 
23

>  <molecular_weight>  (1390) 
312.41

>  <exact_molecular_weight>  (1390) 
312.17254

>  <molecular_formula>  (1390) 
C20H24O3

>  <alogp>  (1390) 
4.64

>  <topological_polar_surface_area>  (1390) 
38.69

>  <rotatable_bond_count>  (1390) 
5

>  <hydrogen_bond_acceptors>  (1390) 
3

>  <hydrogen_bond_donors>  (1390) 
1

>  <hydrogen_bond_acceptors_lipinski>  (1390) 
3

>  <hydrogen_bond_donors_lipinski>  (1390) 
1

>  <lipinski_rule_of_five_violations>  (1390) 
0

>  <aromatic_rings_count>  (1390) 
2

>  <qed_drug_likeliness>  (1390) 
0.87

>  <formal_charge>  (1390) 
0

>  <fractioncsp3>  (1390) 
0.40

>  <number_of_minimal_rings>  (1390) 
3

>  <van_der_walls_volume>  (1390) 
300.94

>  <contains_sugar>  (1390) 
False

>  <contains_ring_sugars>  (1390) 
False

>  <contains_linear_sugars>  (1390) 
False

>  <murcko_framework>  (1390) 
O1C(c2ccccc2)CCCC1CCc3ccccc3

>  <np_likeness>  (1390) 
0.71

>  <chemical_class>  (1390) 
Diarylheptanoids

>  <chemical_sub_class>  (1390) 
Linear diarylheptanoids

>  <chemical_super_class>  (1390) 
Phenylpropanoids and polyketides

>  <direct_parent_classification>  (1390) 
Linear diarylheptanoids

>  <np_classifier_pathway>  (1390) 
Shikimates and Phenylpropanoids

>  <np_classifier_superclass>  (1390) 
Diarylheptanoids

>  <np_classifier_class>  (1390) 
Linear diarylheptanoids

>  <np_classifier_is_glycoside>  (1390) 
False

>  <organisms>  (1390) 
Centrolobium robustum|Centrolobium tomentosum

>  <collections>  (1390) 
ChEBI NPs|KNApSaCK|Latin America dataset|NPEdia|NuBBEDB|Super Natural II|WikiData Natural Products|ZINC NP

>  <dois>  (1390) 
10.1016/S0031-9422(00)85606-X|10.1016/S0031-9422(00)97984-6|10.1071/CH9841127

>  <synonyms>  (1390) 
(-)-centrolobine|1484-91-9|4-[2-[(2R,6S)-6-(4-methoxyphenyl)oxan-2-yl]ethyl]phenol|4-[2-[(2R,6S)-6-(4-methoxyphenyl)tetrahydropyran-2-yl]ethyl]phenol|AC1L9DEE|AG-D-94124|CHEBI:3532|CTK4C5825|Centrolobine|DTXSID60331948|Q27106122

>  <cas>  (1390) 
1484-91-9

$$$$

     RDKit          2D

 20 21  0  0  0  0  0  0  0  0999 V2000
   -5.5155   -2.1644    0.0000 C   0  0  0  0  0  0  0  0  0  0  0  0
   -4.6641   -0.9294    0.0000 O   0  0  0  0  0  0  0  0  0  0  0  0
   -3.1689   -1.0493    0.0000 C   0  0  0  0  0  0  0  0  0  0  0  0
   -2.3176    0.1857    0.0000 C   0  0  0  0  0  0  0  0  0  0  0  0
   -2.9614    1.5405    0.0000 C   0  0  0  0  0  0  0  0  0  0  0  0
   -2.1100    2.7755    0.0000 C   0  0  0  0  0  0  0  0  0  0  0  0
   -0.6148    2.6557    0.0000 C   0  0  0  0  0  0  0  0  0  0  0  0
    0.2365    3.8907    0.0000 C   0  0  0  0  0  0  0  0  0  0  0  0
    0.0290    1.3009    0.0000 C   0  0  0  0  0  0  0  0  0  0  0  0
   -0.8224    0.0659    0.0000 C   0  0  0  0  0  0  0  0  0  0  0  0
   -0.1785   -1.2889    0.0000 C   0  0  0  0  0  0  0  0  0  0  0  0
   -1.0299   -2.5239    0.0000 O   0  0  0  0  0  0  0  0  0  0  0  0
    1.3167   -1.4087    0.0000 C   0  0  0  0  0  0  0  0  0  0  0  0
    1.9605   -2.7635    0.0000 O   0  0  0  0  0  0  0  0  0  0  0  0
    2.1680   -0.1737    0.0000 C   0  0  0  0  0  0  0  0  0  0  0  0
    3.6633   -0.2936    0.0000 C   0  0  0  0  0  0  0  0  0  0  0  0
    3.7831    1.2016    0.0000 C   0  0  0  0  0  0  0  0  0  0  0  0
    3.5434   -1.7888    0.0000 C   0  0  0  0  0  0  0  0  0  0  0  0
    5.1585   -0.4134    0.0000 O   0  0  0  0  0  0  0  0  0  0  0  0
    1.5242    1.1811    0.0000 C   0  0  0  0  0  0  0  0  0  0  0  0
  1  2  1  0
  2  3  1  0
  3  4  1  0
  4  5  2  0
  5  6  1  0
  6  7  2  0
  7  8  1  0
  7  9  1  0
  9 10  2  0
 10 11  1  0
 11 12  2  0
 11 13  1  0
 13 14  1  1
 13 15  1  0
 15 16  1  6
 16 17  1  0
 16 18  1  0
 16 19  1  0
 15 20  1  0
 10  4  1  0
 20  9  1  0
M  END
>  <identifier>  (1391) 
CNP0390565.1

>  <canonical_smiles>  (1391) 
COCC1=CC=C(C)C2=C1C(=O)[C@H](O)[C@@H](C(C)(C)O)C2

>  <standard_inchi>  (1391) 
InChI=1S/C16H22O4/c1-9-5-6-10(8-20-4)13-11(9)7-12(16(2,3)19)14(17)15(13)18/h5-6,12,14,17,19H,7-8H2,1-4H3/t12-,14+/m0/s1

>  <standard_inchi_key>  (1391) 
GRTATZFIZSZURL-GXTWGEPZSA-N

>  <name>  (1391) 
Emmotin A

>  <iupac_name>  (1391) 
(2~{R},3~{S})-2-hydroxy-3-(1-hydroxy-1-methyl-ethyl)-8-(methoxymethyl)-5-methyl-tetralin-1-one

>  <annotation_level>  (1391) 
5

>  <total_atom_count>  (1391) 
42

>  <heavy_atom_count>  (1391) 
20

>  <molecular_weight>  (1391) 
278.35

>  <exact_molecular_weight>  (1391) 
278.15181

>  <molecular_formula>  (1391) 
C16H22O4

>  <alogp>  (1391) 
1.63

>  <topological_polar_surface_area>  (1391) 
66.76

>  <rotatable_bond_count>  (1391) 
3

>  <hydrogen_bond_acceptors>  (1391) 
4

>  <hydrogen_bond_donors>  (1391) 
2

>  <hydrogen_bond_acceptors_lipinski>  (1391) 
4

>  <hydrogen_bond_donors_lipinski>  (1391) 
2

>  <lipinski_rule_of_five_violations>  (1391) 
0

>  <aromatic_rings_count>  (1391) 
1

>  <qed_drug_likeliness>  (1391) 
0.88

>  <formal_charge>  (1391) 
0

>  <fractioncsp3>  (1391) 
0.56

>  <number_of_minimal_rings>  (1391) 
2

>  <van_der_walls_volume>  (1391) 
262.06

>  <contains_sugar>  (1391) 
False

>  <contains_ring_sugars>  (1391) 
False

>  <contains_linear_sugars>  (1391) 
False

>  <murcko_framework>  (1391) 
c1ccc2c(c1)CCCC2

>  <np_likeness>  (1391) 
1.05

>  <chemical_class>  (1391) 
Tetralins

>  <chemical_sub_class>  (1391) 
Tetralins

>  <chemical_super_class>  (1391) 
Benzenoids

>  <direct_parent_classification>  (1391) 
Tetralins

>  <np_classifier_pathway>  (1391) 
Terpenoids

>  <np_classifier_superclass>  (1391) 
nan

>  <np_classifier_class>  (1391) 
nan

>  <np_classifier_is_glycoside>  (1391) 
False

>  <organisms>  (1391) 
Emmotum nitens

>  <collections>  (1391) 
KNApSaCK|Latin America dataset|NPEdia|NuBBEDB|WikiData Natural Products|ZINC NP

>  <dois>  (1391) 
10.1016/0031-9422(74)80100-7

>  <synonyms>  (1391) 
(2R,3S)-2-hydroxy-3-(2-hydroxypropan-2-yl)-8-(methoxymethyl)-5-methyl-3,4-dihydro-2H-naphthalen-1-one|CHEBI:166674|Emmotin A|LMPR0103200001

>  <cas>  (1391) 
nan

$$$$

     RDKit          2D

 17 18  0  0  0  0  0  0  0  0999 V2000
   -0.6460   -3.2460    0.0000 C   0  0  0  0  0  0  0  0  0  0  0  0
   -1.2950   -1.8937    0.0000 C   0  0  0  0  0  0  0  0  0  0  0  0
   -2.7906   -1.7795    0.0000 C   0  0  0  0  0  0  0  0  0  0  0  0
   -3.4396   -0.4271    0.0000 C   0  0  0  0  0  0  0  0  0  0  0  0
   -2.5928    0.8110    0.0000 C   0  0  0  0  0  0  0  0  0  0  0  0
   -3.2418    2.1634    0.0000 O   0  0  0  0  0  0  0  0  0  0  0  0
   -1.0972    0.6969    0.0000 C   0  0  0  0  0  0  0  0  0  0  0  0
   -1.7461    2.0492    0.0000 C   0  0  0  0  0  0  0  0  0  0  0  0
   -0.2505    1.9350    0.0000 C   0  0  0  0  0  0  0  0  0  0  0  0
    1.2452    1.8208    0.0000 C   0  0  0  0  0  0  0  0  0  0  0  0
    1.8941    0.4685    0.0000 C   0  0  0  0  0  0  0  0  0  0  0  0
    3.3897    0.3543    0.0000 C   0  0  0  0  0  0  0  0  0  0  0  0
    4.0387   -0.9981    0.0000 C   0  0  0  0  0  0  0  0  0  0  0  0
    4.2365    1.5925    0.0000 C   0  0  0  0  0  0  0  0  0  0  0  0
    1.0474   -0.7697    0.0000 C   0  0  0  0  0  0  0  0  0  0  0  0
    1.6963   -2.1220    0.0000 O   0  0  0  0  0  0  0  0  0  0  0  0
   -0.4483   -0.6555    0.0000 C   0  0  0  0  0  0  0  0  0  0  0  0
  1  2  2  0
  2  3  1  0
  3  4  1  0
  4  5  1  0
  5  6  1  1
  5  7  1  0
  7  8  1  1
  7  9  1  0
  9 10  1  0
 10 11  1  0
 11 12  1  1
 12 13  1  0
 12 14  1  0
 11 15  1  0
 15 16  1  6
 15 17  1  0
 17  2  1  1
 17  7  1  0
M  END
>  <identifier>  (1392) 
CNP0173877.1

>  <canonical_smiles>  (1392) 
C=C1CC[C@@H](O)[C@]2(C)CC[C@@H](C(C)C)[C@H](O)[C@@H]12

>  <standard_inchi>  (1392) 
InChI=1S/C15H26O2/c1-9(2)11-7-8-15(4)12(16)6-5-10(3)13(15)14(11)17/h9,11-14,16-17H,3,5-8H2,1-2,4H3/t11-,12+,13+,14-,15-/m0/s1

>  <standard_inchi_key>  (1392) 
WKKJGHCXVKEJNU-QRTUWBSPSA-N

>  <name>  (1392) 
Voleneol

>  <iupac_name>  (1392) 
(1~{S},2~{S},4~{a}~{R},5~{R},8~{a}~{S})-2-isopropyl-4~{a}-methyl-8-methylene-decalin-1,5-diol

>  <annotation_level>  (1392) 
5

>  <total_atom_count>  (1392) 
43

>  <heavy_atom_count>  (1392) 
17

>  <molecular_weight>  (1392) 
238.37

>  <exact_molecular_weight>  (1392) 
238.19328

>  <molecular_formula>  (1392) 
C15H26O2

>  <alogp>  (1392) 
2.75

>  <topological_polar_surface_area>  (1392) 
40.46

>  <rotatable_bond_count>  (1392) 
1

>  <hydrogen_bond_acceptors>  (1392) 
2

>  <hydrogen_bond_donors>  (1392) 
2

>  <hydrogen_bond_acceptors_lipinski>  (1392) 
2

>  <hydrogen_bond_donors_lipinski>  (1392) 
2

>  <lipinski_rule_of_five_violations>  (1392) 
0

>  <aromatic_rings_count>  (1392) 
0

>  <qed_drug_likeliness>  (1392) 
0.69

>  <formal_charge>  (1392) 
0

>  <fractioncsp3>  (1392) 
0.87

>  <number_of_minimal_rings>  (1392) 
2

>  <van_der_walls_volume>  (1392) 
245.80

>  <contains_sugar>  (1392) 
False

>  <contains_ring_sugars>  (1392) 
False

>  <contains_linear_sugars>  (1392) 
False

>  <murcko_framework>  (1392) 
C1CCC2CCCCC2C1

>  <np_likeness>  (1392) 
3.19

>  <chemical_class>  (1392) 
Prenol lipids

>  <chemical_sub_class>  (1392) 
Sesquiterpenoids

>  <chemical_super_class>  (1392) 
Lipids and lipid-like molecules

>  <direct_parent_classification>  (1392) 
Eudesmane, isoeudesmane or cycloeudesmane sesquiterpenoids

>  <np_classifier_pathway>  (1392) 
Terpenoids

>  <np_classifier_superclass>  (1392) 
Sesquiterpenoids

>  <np_classifier_class>  (1392) 
Eudesmane sesquiterpenoids

>  <np_classifier_is_glycoside>  (1392) 
False

>  <organisms>  (1392) 
Achillea abrotanoides|Achillea pannonica|Adenostemma brasilianum|Ageratina glechonophylla|Alloascoidea hylecoeti|Allopora californica|Ambrosia arborescens|Annona reticulata|Annulusmagnus triseptatus|Anthocercis genistoides|Anthyllis hermanniae|Aphanamixis polystachya|Aquilegia flabellata|Arecastrum romanzoffianum|Armillaria tabescens|Artemisia annua|Artemisia annua L.|Artemisia eriopoda|Artemisia filatovae|Artemisia gmelinii|Artemisia tripartita|Artemisia vulgaris|Asclepias asperula|Asclepias speciosa|Axinella tenuidigitata|Bacillus amyloliquefaciens|Betula pubescens|Boltonia asteroides|Breonia chinensis|Callicarpa bodinieri|Callicarpa pedunculata|Campylotropis hirtella|Cananga odorata|Caragana korshinskii|Casearia sylvestris|Ceropegia dichotoma|Chamaecyparis formosensis|Chrysanthemum indicum|Chrysocephalum ambiguum|Citrus aurantiifolia|Clerodendrum brachyanthum|Clerodendrum grayi|Coreopsis lanceolata|Corydalis flabellata|Crinum moorei|Crocus asturicus|Crotalaria candicans|Croton gratissimus|Cryptocarya velutinosa|Cryptomeria japonica|Cyerce cristallina|Cynanchum sibiricum|Cystosphaera jacquinotii|Dendrobium loddigesii|Dichapetalum madagascariense|Diospyros crassiflora|Distephanus angulifolius|Doriopsilla albopunctata|Drimia altissima|Dysoxylum densiflorum|Echites hirsuta|Empleurum serrulatum|Epicharis densiflora|Epimedium versicolor|Eria japonica|Erica carnea|Erigeron annuus|Erigeron philadelphicus|Erigeron sumatrensis|Erigeron sumatrensis RETZ.|Erylus formosus|Eucalyptus apodophylla|Eucalyptus globulus subsp. bicostata|Eupatorium fortunei|Eupatorium pauciflorum|Euryops jacksonii|Evasterias troschelii|Fleroya rubrostipulata|Garcinia thwaitesii|Genista aetnensis|Gentianopsis paludosa|Geranium caespitosum|Glycosmis macrophylla|Guapira graciliflora|Gypsophila perfoliata|Helenium alternifolium|Helianthus microcephalus|Helichrysum ambiguum|Heliocidaris crassispina|Huperzia lucidula|Hypericum polyanthemum|Inga longispica|Ips japonicus|Jacobaea argunensis|Jacobaea erucifolia|Juniperus drupacea|Justicia ghiesbreghtiana|Laburnum anagyroides|Laurencia venusta|Lecanora rupicola|Leiocarpa semicalva|Lepidotrichilia volensii|Libanothamnus occultus|Ligularia duciformis|Lindera fruticosa|Lithophyllum incrustans|Litsea verticillata|Lycopodium verticillatum|Lysimachia clethroides|Macaranga triloba|Manilkara hexandra|Martensia denticulata|Medicago truncatula|Mentha cardiaca|Mikania banisteriae|Millettia griffoniana|Mimosa tenuiflora|Moringa stenopetala|Mourera fluviatilis|Mycale laevis|Neolitsea daibuensis|Neoshirakia japonica|Nephthea elongata|Ononis spinosa|Ozothamnus adnatus|Ozothamnus bilobus|Ozothamnus retusus|Paeonia delavayi|Panax bipinnatifidus var. bipinnatifidus|Panax japonicus var. major (burk.) wu et feng|Panax notoginseng|Parmelia barbata|Parmelia pseudoreticulata|Pelargonium tomentosum|Penicillium carminoviolaceum|Pentaclethra macrophylla|Pentaspadon motleyi|Periploca sepium|Phaulopsis imbricata|Philadelphia fleabane|Physcia aegialita|Pinus virginiana|Piper sintenense|Piptocarpha chontalensis|Plectranthus myrianthus|Polyopes affinis|Porella navicularis|Prangos tschimganica|Prangos uloptera|Psychotria colorata|Pteris palmiformis|Pterocaulon virgatum|Pyura sacciformis|Ranunculus japonicus|Raulinoa echinata|Rhodiola semenovii|Ricciocarpos natans|Ricinus communis|Rosa hybrid cultivar|Ruta montana|Salvia sessei|Sarcophyton glaucum|Scutellaria violacea|Selaginella lepidophylla|Senecio microglossus|Senecio nemorensis|Senecio vulgaris|Senna sophera|Serratia plymuthica|Sinacalia tangutica|Sinularia leptoclados|Sonneratia caseolaris|Sparassis crispa|Spirastrella inconstans|Staurogyne merguensis|Stephania zippeliana|Stevia satureiaefolia|Stillingia sanguinolenta|Streptomyces flaveus|Streptomyces tanashiensis|Syringa komarowi|Talaromyces variabilis|Tersonia brevipes|Teucrium trifidum|Thalictrum fortunei|Torilis japonica|Trapa bispinosa|Tristania conferta|Uncaria glabrata|Usnea magellanica|Vatica cinerea|Vernonia cistifolia|Vernonia triflosculosa|Vernoniopsis caudata|Veronica polita|Viburnum fur

>  <collections>  (1392) 
Australian natural products|CMAUP (cCollective molecular activities of useful plants)|ChEBI NPs|ChemSpider NPs|KNApSaCK|Latin America dataset|NAPRORE-CR|NPACT|NPASS|NPEdia|NuBBEDB|Phyto4Health|SANCDB|Super Natural II|TCMDB-Taiwan (Traditional Chinese Medicine database)|TIPdb (database of Taiwan indigenous plants)|WikiData Natural Products|ZINC NP

>  <dois>  (1392) 
10.1002/HLCA.200690059|10.1002/HLCA.200690078|10.1002/HLCA.201000106|10.1002/JCCS.199900086|10.1002/JCCS.200500055|10.1016/0031-9422(83)80109-5|10.1016/0031-9422(89)80048-2|10.1016/0031-9422(91)83661-4|10.1016/0031-9422(95)00013-W|10.1016/0031-9422(95)00905-1|10.1016/0031-9422(96)00325-1|10.1016/J.BSE.2004.06.006|10.1016/J.FITOTE.2009.05.013|10.1016/J.PHYTOCHEM.2003.10.026|10.1016/J.PHYTOCHEM.2008.09.017|10.1016/J.PHYTOCHEM.2010.02.002|10.1016/J.PHYTOCHEM.2010.05.014|10.1016/S0031-9422(00)00407-6|10.1016/S0031-9422(00)89801-5|10.1016/S0031-9422(02)00025-0|10.1016/S0031-9422(03)00294-2|10.1016/S0031-9422(97)00228-8|10.1016/S0031-9422(99)00074-6|10.1016/j.bse.2004.06.006|10.1021/NP020379Y|10.1021/NP020508A|10.1021/NP049866Z|10.1021/NP100851S|10.1021/NP100874F|10.1021/NP2002012|10.1021/NP401091F|10.1021/np401091f|10.1078/0944-7113-00016|10.1246/BCSJ.20090263|10.1248/CPB.51.545|10.3184/030823410X12791286866995|10.3184/030823410X12830855365409|10.3184/030823410x12830855365409|10.3390/MOLECULES23030604

>  <synonyms>  (1392) 
(+)1[beta],6[alpha]-dihydroxy-4(15)-eudesmene|(1S,2S,4AR,5R,8AS)-2-ISOPROPYL-4A-METHYL-8-METHYLIDENE-OCTAHYDRONAPHTHALENE-1,5-DIOL|(1S,2S,4aR,5R,8aS)-2-isopropyl-4a-methyl-8-methylene-decalin-1,5-diol|(1S,2S,4aR,5R,8aS)-4a-methyl-8-methylidene-2-propan-2-yl-1,2,3,4,5,6,7,8a-octahydronaphthalene-1,5-diol|1b6a-dihydroxy-4-(15)-eudesmene|1beta,6alpha-dihydroxy-4(14)-eudesmene|70389-88-7|AKOS032948735|CHEBI:68001|CHEMBL461399|CS-0016365|DTXSID501319140|FS-8978|HY-N1078|Q27136484|Volenol|voleneol

>  <cas>  (1392) 
70389-88-7

$$$$

     RDKit          2D

 31 35  0  0  0  0  0  0  0  0999 V2000
    4.3358   -4.5745    0.0000 C   0  0  0  0  0  0  0  0  0  0  0  0
    4.9346   -3.1992    0.0000 O   0  0  0  0  0  0  0  0  0  0  0  0
    4.0429   -1.9930    0.0000 C   0  0  0  0  0  0  0  0  0  0  0  0
    2.5525   -2.1622    0.0000 C   0  0  0  0  0  0  0  0  0  0  0  0
    1.6608   -0.9560    0.0000 C   0  0  0  0  0  0  0  0  0  0  0  0
    0.1703   -1.1251    0.0000 C   0  0  0  0  0  0  0  0  0  0  0  0
   -0.5689   -2.4303    0.0000 O   0  0  0  0  0  0  0  0  0  0  0  0
   -2.0386   -2.1306    0.0000 C   0  0  0  0  0  0  0  0  0  0  0  0
   -2.2078   -0.6402    0.0000 C   0  0  0  0  0  0  0  0  0  0  0  0
   -0.8425   -0.0187    0.0000 C   0  0  0  0  0  0  0  0  0  0  0  0
   -1.0117    1.4717    0.0000 C   0  0  0  0  0  0  0  0  0  0  0  0
   -2.4814    1.7714    0.0000 O   0  0  0  0  0  0  0  0  0  0  0  0
   -3.2207    0.4662    0.0000 C   0  0  0  0  0  0  0  0  0  0  0  0
   -4.7111    0.2971    0.0000 C   0  0  0  0  0  0  0  0  0  0  0  0
   -5.3098   -1.0782    0.0000 C   0  0  0  0  0  0  0  0  0  0  0  0
   -6.8003   -1.2474    0.0000 C   0  0  0  0  0  0  0  0  0  0  0  0
   -7.6920   -0.0412    0.0000 C   0  0  0  0  0  0  0  0  0  0  0  0
   -9.1850    0.1033    0.0000 O   0  0  0  0  0  0  0  0  0  0  0  0
   -9.5090    1.5679    0.0000 C   0  0  0  0  0  0  0  0  0  0  0  0
   -8.2162    2.3286    0.0000 O   0  0  0  0  0  0  0  0  0  0  0  0
   -7.0932    1.3341    0.0000 C   0  0  0  0  0  0  0  0  0  0  0  0
   -5.6028    1.5033    0.0000 C   0  0  0  0  0  0  0  0  0  0  0  0
    2.2595    0.4193    0.0000 C   0  0  0  0  0  0  0  0  0  0  0  0
    3.7500    0.5885    0.0000 C   0  0  0  0  0  0  0  0  0  0  0  0
    4.6416   -0.6177    0.0000 C   0  0  0  0  0  0  0  0  0  0  0  0
    6.1321   -0.4486    0.0000 O   0  0  0  0  0  0  0  0  0  0  0  0
    6.7308    0.9267    0.0000 C   0  0  0  0  0  0  0  0  0  0  0  0
    8.2213    1.0959    0.0000 C   0  0  0  0  0  0  0  0  0  0  0  0
    8.8200    2.4712    0.0000 C   0  0  0  0  0  0  0  0  0  0  0  0
   10.3104    2.6403    0.0000 C   0  0  0  0  0  0  0  0  0  0  0  0
    7.9283    3.6774    0.0000 C   0  0  0  0  0  0  0  0  0  0  0  0
  1  2  1  0
  2  3  1  0
  3  4  2  0
  4  5  1  0
  6  5  1  1
  6  7  1  0
  7  8  1  0
  9  8  1  6
  9 10  1  0
 10 11  1  6
 11 12  1  0
 12 13  1  0
 13 14  1  1
 14 15  2  0
 15 16  1  0
 16 17  2  0
 17 18  1  0
 18 19  1  0
 19 20  1  0
 20 21  1  0
 21 22  2  0
  5 23  2  0
 23 24  1  0
 24 25  2  0
 25 26  1  0
 26 27  1  0
 27 28  1  0
 28 29  2  0
 29 30  1  0
 29 31  1  0
 25  3  1  0
 10  6  1  0
 22 14  1  0
 13  9  1  0
 21 17  1  0
M  END
>  <identifier>  (1393) 
CNP0170756.3

>  <canonical_smiles>  (1393) 
COC1=CC([C@H]2OC[C@H]3[C@@H]2CO[C@@H]3C2=CC=C3OCOC3=C2)=CC=C1OCC=C(C)C

>  <standard_inchi>  (1393) 
InChI=1S/C25H28O6/c1-15(2)8-9-27-20-6-4-16(10-22(20)26-3)24-18-12-29-25(19(18)13-28-24)17-5-7-21-23(11-17)31-14-30-21/h4-8,10-11,18-19,24-25H,9,12-14H2,1-3H3/t18-,19-,24+,25+/m0/s1

>  <standard_inchi_key>  (1393) 
WXYFFRZGPDZASV-QKFIJCJASA-N

>  <name>  (1393) 
Prenylpiperitol

>  <iupac_name>  (1393) 
5-[(3~{S},3~{a}~{R},6~{S},6~{a}~{R})-6-[3-methoxy-4-(3-methylbut-2-enoxy)phenyl]-1,3,3~{a},4,6,6~{a}-hexahydrofuro[3,4-c]furan-3-yl]-1,3-benzodioxole

>  <annotation_level>  (1393) 
5

>  <total_atom_count>  (1393) 
59

>  <heavy_atom_count>  (1393) 
31

>  <molecular_weight>  (1393) 
424.49

>  <exact_molecular_weight>  (1393) 
424.18859

>  <molecular_formula>  (1393) 
C25H28O6

>  <alogp>  (1393) 
4.84

>  <topological_polar_surface_area>  (1393) 
55.38

>  <rotatable_bond_count>  (1393) 
6

>  <hydrogen_bond_acceptors>  (1393) 
6

>  <hydrogen_bond_donors>  (1393) 
0

>  <hydrogen_bond_acceptors_lipinski>  (1393) 
6

>  <hydrogen_bond_donors_lipinski>  (1393) 
0

>  <lipinski_rule_of_five_violations>  (1393) 
0

>  <aromatic_rings_count>  (1393) 
2

>  <qed_drug_likeliness>  (1393) 
0.62

>  <formal_charge>  (1393) 
0

>  <fractioncsp3>  (1393) 
0.44

>  <number_of_minimal_rings>  (1393) 
5

>  <van_der_walls_volume>  (1393) 
384.18

>  <contains_sugar>  (1393) 
False

>  <contains_ring_sugars>  (1393) 
False

>  <contains_linear_sugars>  (1393) 
False

>  <murcko_framework>  (1393) 
O1c2ccc(cc2OC1)C3OCC4C(OCC34)c5ccccc5

>  <np_likeness>  (1393) 
0.99

>  <chemical_class>  (1393) 
Furanoid lignans

>  <chemical_sub_class>  (1393) 
Furan lignans

>  <chemical_super_class>  (1393) 
Lignans, neolignans and related compounds

>  <direct_parent_classification>  (1393) 
Furan lignans

>  <np_classifier_pathway>  (1393) 
Shikimates and Phenylpropanoids

>  <np_classifier_superclass>  (1393) 
Lignans

>  <np_classifier_class>  (1393) 
Furofuranoid lignans

>  <np_classifier_is_glycoside>  (1393) 
False

>  <organisms>  (1393) 
Aplophyllum villosum|Archaster typicus|Beaucarnea recurvata|Briareum asbestinum|Centaurea arenaria|Clitocybe subilludens|Cotylelobium scabriusculum|Cratystylis conocephala|Cystoseira barbatula|Diospyros abyssinica|Diospyros elliptifolia|Diospyros peregrina|Eminium lehmannii|Flindersia amboinensis|Gutenbergia cordifolia|Jatropha mahafalensis|Karenia mikimotoi|Mikania scandens|Mucor spinosus|Petrosia volcano|Phaeotremella fagi|Phyllodium pulchellum|Physalis coztomatl|Salvia amplexicaulis|Scorzonera hispanica|Sibthorpia europaea|Stachyurus praecox|Stevia pilosa|Trapa japonica|Ursinia anethoides|Zanthoxylum integrifoliolum|Zanthoxylum nitidum|Zanthoxylum petiolare|Zanthoxylum piperitum|Zanthoxylum rhetsa|Zanthoxylum setulosum|Zanthoxylum tetraspermum

>  <collections>  (1393) 
Australian natural products|CMAUP (cCollective molecular activities of useful plants)|Latin America dataset|NAPRORE-CR|NPASS|NuBBEDB|Super Natural II|WikiData Natural Products|ZINC NP

>  <dois>  (1393) 
10.1016/J.FOODCHEM.2010.09.069|10.1016/S0031-9422(00)00402-7|10.1016/S0031-9422(00)89656-9|10.1016/j.phytochem.2014.03.008|10.1021/NP980471N

>  <synonyms>  (1393) 
(+)-Piperitol-3,3-dimethylallyl ether|(+)-piperitol-\u221a\u00e9\u00ac\u2265\u221a\u00e9\u00ac\u2265-dimethylallylether|1,3-Benzodioxole, 5-[(1S,3aR,4S,6aR)-tetrahydro-4-[3-methoxy-4-[(3-methyl-2-buten-1-yl)oxy]phenyl]-1H,3H-furo[3,4-c]furan-1-yl]-|1,3-Benzodioxole, 5-[tetrahydro-4-[3-methoxy-4-[(3-methyl-2-butenyl)oxy]phenyl]-1H,3H-furo[3,4-c]furan-1-yl]-, (1I+\/-,3aI+\/-,4I+\/-,6aI+\/-)-(-)-|157659-20-6|5-[(3S,3aR,6S,6aR)-6-[3-methoxy-4-(3-methylbut-2-enoxy)phenyl]-1,3,3a,4,6,6a-hexahydrofuro[3,4-c]furan-3-yl]-1,3-benzodioxole|54631-93-5|AKOS032948203|Benzenesulfonyl chloride, 4-methoxy-3-methyl-|CS-0017087|DTXSID701102541|FS-10435|HY-N1538

>  <cas>  (1393) 
157659-20-6|54631-93-5

$$$$

     RDKit          2D

 38 40  0  0  0  0  0  0  0  0999 V2000
    0.7381   -2.3836    0.0000 C   0  0  0  0  0  0  0  0  0  0  0  0
    2.1686   -2.8350    0.0000 C   0  0  0  0  0  0  0  0  0  0  0  0
    3.2747   -1.8218    0.0000 C   0  0  0  0  0  0  0  0  0  0  0  0
    2.9503   -0.3573    0.0000 C   0  0  0  0  0  0  0  0  0  0  0  0
    1.5198    0.0940    0.0000 O   0  0  0  0  0  0  0  0  0  0  0  0
    1.1954    1.5586    0.0000 C   0  0  0  0  0  0  0  0  0  0  0  0
    2.3015    2.5717    0.0000 O   0  0  0  0  0  0  0  0  0  0  0  0
    1.9771    4.0362    0.0000 C   0  0  0  0  0  0  0  0  0  0  0  0
    3.0832    5.0494    0.0000 C   0  0  0  0  0  0  0  0  0  0  0  0
    4.5137    4.5981    0.0000 O   0  0  0  0  0  0  0  0  0  0  0  0
    0.5466    4.4876    0.0000 C   0  0  0  0  0  0  0  0  0  0  0  0
    0.2222    5.9521    0.0000 O   0  0  0  0  0  0  0  0  0  0  0  0
   -0.5595    3.4744    0.0000 C   0  0  0  0  0  0  0  0  0  0  0  0
   -1.9900    3.9257    0.0000 O   0  0  0  0  0  0  0  0  0  0  0  0
   -0.2351    2.0099    0.0000 C   0  0  0  0  0  0  0  0  0  0  0  0
   -1.3412    0.9967    0.0000 O   0  0  0  0  0  0  0  0  0  0  0  0
   -2.7717    1.4480    0.0000 C   0  0  0  0  0  0  0  0  0  0  0  0
   -3.0961    2.9125    0.0000 O   0  0  0  0  0  0  0  0  0  0  0  0
   -3.8778    0.4348    0.0000 C   0  0  0  0  0  0  0  0  0  0  0  0
   -5.3083    0.8862    0.0000 C   0  0  0  0  0  0  0  0  0  0  0  0
   -6.4144   -0.1270    0.0000 C   0  0  0  0  0  0  0  0  0  0  0  0
   -7.8449    0.3243    0.0000 C   0  0  0  0  0  0  0  0  0  0  0  0
   -8.9510   -0.6889    0.0000 C   0  0  0  0  0  0  0  0  0  0  0  0
   -8.6266   -2.1534    0.0000 C   0  0  0  0  0  0  0  0  0  0  0  0
   -9.7327   -3.1666    0.0000 O   0  0  0  0  0  0  0  0  0  0  0  0
   -7.1961   -2.6047    0.0000 C   0  0  0  0  0  0  0  0  0  0  0  0
   -6.8717   -4.0692    0.0000 O   0  0  0  0  0  0  0  0  0  0  0  0
   -6.0900   -1.5915    0.0000 C   0  0  0  0  0  0  0  0  0  0  0  0
    4.0564    0.6559    0.0000 O   0  0  0  0  0  0  0  0  0  0  0  0
    5.4869    0.2046    0.0000 C   0  0  0  0  0  0  0  0  0  0  0  0
    5.8113   -1.2599    0.0000 C   0  0  0  0  0  0  0  0  0  0  0  0
    7.2417   -1.7112    0.0000 C   0  0  0  0  0  0  0  0  0  0  0  0
    7.5661   -3.1757    0.0000 O   0  0  0  0  0  0  0  0  0  0  0  0
    8.3478   -0.6981    0.0000 O   0  0  0  0  0  0  0  0  0  0  0  0
    4.7051   -2.2731    0.0000 C   0  0  0  0  0  0  0  0  0  0  0  0
    5.0295   -3.7376    0.0000 C   0  0  0  0  0  0  0  0  0  0  0  0
    3.9234   -4.7508    0.0000 C   0  0  0  0  0  0  0  0  0  0  0  0
    4.2478   -6.2153    0.0000 O   0  0  0  0  0  0  0  0  0  0  0  0
  1  2  2  0
  3  2  1  1
  3  4  1  0
  4  5  1  6
  6  5  1  1
  6  7  1  0
  7  8  1  0
  8  9  1  1
  9 10  1  0
  8 11  1  0
 11 12  1  6
 11 13  1  0
 13 14  1  1
 13 15  1  0
 15 16  1  6
 16 17  1  0
 17 18  2  0
 17 19  1  0
 19 20  2  0
 20 21  1  0
 21 22  2  0
 22 23  1  0
 23 24  2  0
 24 25  1  0
 24 26  1  0
 26 27  1  0
 26 28  2  0
  4 29  1  0
 29 30  1  0
 30 31  2  0
 31 32  1  0
 32 33  2  0
 32 34  1  0
 31 35  1  0
 35 36  1  1
 36 37  1  0
 37 38  1  0
 35  3  1  0
 15  6  1  0
 28 21  1  0
M  END
>  <identifier>  (1394) 
CNP0177752.1

>  <canonical_smiles>  (1394) 
C=C[C@H]1[C@H](O[C@@H]2O[C@H](CO)[C@@H](O)[C@H](O)[C@H]2OC(=O)/C=C/C2=CC=C(O)C(O)=C2)OC=C(C(=O)O)[C@H]1CCO

>  <standard_inchi>  (1394) 
InChI=1S/C25H30O13/c1-2-13-14(7-8-26)15(23(33)34)11-35-24(13)38-25-22(21(32)20(31)18(10-27)36-25)37-19(30)6-4-12-3-5-16(28)17(29)9-12/h2-6,9,11,13-14,18,20-22,24-29,31-32H,1,7-8,10H2,(H,33,34)/b6-4+/t13-,14+,18-,20-,21+,22-,24+,25+/m1/s1

>  <standard_inchi_key>  (1394) 
GKYPZOXWYQBEPK-IBKSRVHKSA-N

>  <name>  (1394) 
C25H30O13

>  <iupac_name>  (1394) 
(2~{S},3~{R},4~{S})-2-[(2~{S},3~{R},4~{S},5~{S},6~{R})-3-[(~{E})-3-(3,4-dihydroxyphenyl)prop-2-enoyl]oxy-4,5-dihydroxy-6-(hydroxymethyl)tetrahydropyran-2-yl]oxy-4-(2-hydroxyethyl)-3-vinyl-3,4-dihydro-2~{H}-pyran-5-carboxylic acid

>  <annotation_level>  (1394) 
5

>  <total_atom_count>  (1394) 
68

>  <heavy_atom_count>  (1394) 
38

>  <molecular_weight>  (1394) 
538.5

>  <exact_molecular_weight>  (1394) 
538.16864

>  <molecular_formula>  (1394) 
C25H30O13

>  <alogp>  (1394) 
-0.40

>  <topological_polar_surface_area>  (1394) 
212.67

>  <rotatable_bond_count>  (1394) 
10

>  <hydrogen_bond_acceptors>  (1394) 
12

>  <hydrogen_bond_donors>  (1394) 
7

>  <hydrogen_bond_acceptors_lipinski>  (1394) 
12

>  <hydrogen_bond_donors_lipinski>  (1394) 
7

>  <lipinski_rule_of_five_violations>  (1394) 
3

>  <aromatic_rings_count>  (1394) 
1

>  <qed_drug_likeliness>  (1394) 
0.09

>  <formal_charge>  (1394) 
0

>  <fractioncsp3>  (1394) 
0.44

>  <number_of_minimal_rings>  (1394) 
3

>  <van_der_walls_volume>  (1394) 
458.88

>  <contains_sugar>  (1394) 
True

>  <contains_ring_sugars>  (1394) 
True

>  <contains_linear_sugars>  (1394) 
False

>  <murcko_framework>  (1394) 
O1C=CCCC1OC2OCCCC2OCC=Cc3ccccc3

>  <np_likeness>  (1394) 
2.48

>  <chemical_class>  (1394) 
Cinnamic acids and derivatives

>  <chemical_sub_class>  (1394) 
Hydroxycinnamic acids and derivatives

>  <chemical_super_class>  (1394) 
Phenylpropanoids and polyketides

>  <direct_parent_classification>  (1394) 
Hydroxycinnamic acids

>  <np_classifier_pathway>  (1394) 
Terpenoids

>  <np_classifier_superclass>  (1394) 
Monoterpenoids

>  <np_classifier_class>  (1394) 
Secoiridoid monoterpenoids

>  <np_classifier_is_glycoside>  (1394) 
True

>  <organisms>  (1394) 
Chiococca alba

>  <collections>  (1394) 
ChemSpider NPs|Latin America dataset|NuBBEDB|Super Natural II|WikiData Natural Products|ZINC NP

>  <dois>  (1394) 
10.1016/S0031-9422(99)00105-3

>  <synonyms>  (1394) 
Alboside IV

>  <cas>  (1394) 
nan

$$$$

     RDKit          2D

 24 27  0  0  0  0  0  0  0  0999 V2000
   -1.6303   -2.5989    0.0000 C   0  0  0  0  0  0  0  0  0  0  0  0
   -1.4604   -1.1085    0.0000 O   0  0  0  0  0  0  0  0  0  0  0  0
   -2.6661   -0.2162    0.0000 C   0  0  0  0  0  0  0  0  0  0  0  0
   -2.4961    1.2741    0.0000 C   0  0  0  0  0  0  0  0  0  0  0  0
   -1.1205    1.8721    0.0000 C   0  0  0  0  0  0  0  0  0  0  0  0
   -0.9505    3.3625    0.0000 O   0  0  0  0  0  0  0  0  0  0  0  0
    0.0852    0.9798    0.0000 C   0  0  0  0  0  0  0  0  0  0  0  0
    1.4609    1.5778    0.0000 C   0  0  0  0  0  0  0  0  0  0  0  0
    2.6666    0.6854    0.0000 C   0  0  0  0  0  0  0  0  0  0  0  0
    2.4966   -0.8049    0.0000 C   0  0  0  0  0  0  0  0  0  0  0  0
    3.7023   -1.6973    0.0000 C   0  0  0  0  0  0  0  0  0  0  0  0
    5.0780   -1.0993    0.0000 C   0  0  0  0  0  0  0  0  0  0  0  0
    6.4428   -1.7215    0.0000 O   0  0  0  0  0  0  0  0  0  0  0  0
    7.4563   -0.6157    0.0000 C   0  0  0  0  0  0  0  0  0  0  0  0
    6.7178    0.6899    0.0000 O   0  0  0  0  0  0  0  0  0  0  0  0
    5.2479    0.3910    0.0000 C   0  0  0  0  0  0  0  0  0  0  0  0
    4.0422    1.2834    0.0000 C   0  0  0  0  0  0  0  0  0  0  0  0
   -3.7018    2.1665    0.0000 C   0  0  0  0  0  0  0  0  0  0  0  0
   -5.0775    1.5685    0.0000 C   0  0  0  0  0  0  0  0  0  0  0  0
   -5.2474    0.0782    0.0000 C   0  0  0  0  0  0  0  0  0  0  0  0
   -4.0417   -0.8142    0.0000 C   0  0  0  0  0  0  0  0  0  0  0  0
   -4.5178   -2.2366    0.0000 C   0  0  0  0  0  0  0  0  0  0  0  0
   -6.0178   -2.2234    0.0000 C   0  0  0  0  0  0  0  0  0  0  0  0
   -6.4687   -0.7928    0.0000 O   0  0  0  0  0  0  0  0  0  0  0  0
  1  2  1  0
  2  3  1  0
  3  4  2  0
  4  5  1  0
  5  6  2  0
  5  7  1  0
  7  8  1  0
  8  9  1  0
  9 10  2  0
 10 11  1  0
 11 12  2  0
 12 13  1  0
 13 14  1  0
 14 15  1  0
 15 16  1  0
 16 17  2  0
  4 18  1  0
 18 19  2  0
 19 20  1  0
 20 21  2  0
 21 22  1  0
 22 23  2  0
 23 24  1  0
 21  3  1  0
 17  9  1  0
 24 20  1  0
 16 12  1  0
M  END
>  <identifier>  (1395) 
CNP0371206.0

>  <canonical_smiles>  (1395) 
COC1=C(C(=O)CCC2=CC=C3OCOC3=C2)C=CC2=C1C=CO2

>  <standard_inchi>  (1395) 
InChI=1S/C19H16O5/c1-21-19-13(4-7-16-14(19)8-9-22-16)15(20)5-2-12-3-6-17-18(10-12)24-11-23-17/h3-4,6-10H,2,5,11H2,1H3

>  <standard_inchi_key>  (1395) 
VZQKDAAIVCVSSU-UHFFFAOYSA-N

>  <name>  (1395) 
nan

>  <iupac_name>  (1395) 
3-(1,3-benzodioxol-5-yl)-1-(4-methoxybenzofuran-5-yl)propan-1-one

>  <annotation_level>  (1395) 
5

>  <total_atom_count>  (1395) 
40

>  <heavy_atom_count>  (1395) 
24

>  <molecular_weight>  (1395) 
324.33

>  <exact_molecular_weight>  (1395) 
324.09977

>  <molecular_formula>  (1395) 
C19H16O5

>  <alogp>  (1395) 
3.99

>  <topological_polar_surface_area>  (1395) 
57.90

>  <rotatable_bond_count>  (1395) 
5

>  <hydrogen_bond_acceptors>  (1395) 
5

>  <hydrogen_bond_donors>  (1395) 
0

>  <hydrogen_bond_acceptors_lipinski>  (1395) 
5

>  <hydrogen_bond_donors_lipinski>  (1395) 
0

>  <lipinski_rule_of_five_violations>  (1395) 
0

>  <aromatic_rings_count>  (1395) 
3

>  <qed_drug_likeliness>  (1395) 
0.66

>  <formal_charge>  (1395) 
0

>  <fractioncsp3>  (1395) 
0.21

>  <number_of_minimal_rings>  (1395) 
4

>  <van_der_walls_volume>  (1395) 
281.67

>  <contains_sugar>  (1395) 
False

>  <contains_ring_sugars>  (1395) 
False

>  <contains_linear_sugars>  (1395) 
False

>  <murcko_framework>  (1395) 
o1ccc2cc(ccc12)CCCc3ccc4OCOc4c3

>  <np_likeness>  (1395) 
0.61

>  <chemical_class>  (1395) 
Benzene and substituted derivatives

>  <chemical_sub_class>  (1395) 
Butyrophenones

>  <chemical_super_class>  (1395) 
Benzenoids

>  <direct_parent_classification>  (1395) 
Butyrophenones

>  <np_classifier_pathway>  (1395) 
Shikimates and Phenylpropanoids

>  <np_classifier_superclass>  (1395) 
Flavonoids

>  <np_classifier_class>  (1395) 
Chalcones

>  <np_classifier_is_glycoside>  (1395) 
False

>  <organisms>  (1395) 
Lonchocarpus subglaucescens

>  <collections>  (1395) 
KNApSaCK|Latin America dataset|NuBBEDB|Super Natural II|UNPD (Universal Natural Products Database)|WikiData Natural Products|ZINC NP

>  <dois>  (1395) 
10.1016/0031-9422(96)00134-3|10.1211/JPP.61.02.0017|10.1211/jpp/61.02.0017

>  <synonyms>  (1395) 
3,4-Methylenedioxy-2'-methoxy-[2'',3'':4',3']-dihydrochalcone

>  <cas>  (1395) 
nan

$$$$

     RDKit          2D

 37 42  0  0  0  0  0  0  0  0999 V2000
   -2.3724   -5.3397    0.0000 C   0  0  0  0  0  0  0  0  0  0  0  0
   -2.6412   -3.8640    0.0000 C   0  0  0  0  0  0  0  0  0  0  0  0
   -4.0537   -3.3589    0.0000 O   0  0  0  0  0  0  0  0  0  0  0  0
   -1.4976   -2.8933    0.0000 O   0  0  0  0  0  0  0  0  0  0  0  0
   -1.7665   -1.4176    0.0000 C   0  0  0  0  0  0  0  0  0  0  0  0
   -3.1789   -0.9126    0.0000 C   0  0  0  0  0  0  0  0  0  0  0  0
   -3.4477    0.5632    0.0000 C   0  0  0  0  0  0  0  0  0  0  0  0
   -4.8602    1.0682    0.0000 C   0  0  0  0  0  0  0  0  0  0  0  0
   -6.3601    1.0597    0.0000 C   0  0  0  0  0  0  0  0  0  0  0  0
   -5.1123   -0.4105    0.0000 C   0  0  0  0  0  0  0  0  0  0  0  0
   -5.1290    2.5439    0.0000 C   0  0  0  0  0  0  0  0  0  0  0  0
   -6.5414    3.0489    0.0000 O   0  0  0  0  0  0  0  0  0  0  0  0
   -3.9854    3.5146    0.0000 C   0  0  0  0  0  0  0  0  0  0  0  0
   -2.5730    3.0095    0.0000 C   0  0  0  0  0  0  0  0  0  0  0  0
   -2.3042    1.5338    0.0000 C   0  0  0  0  0  0  0  0  0  0  0  0
   -1.1606    2.5045    0.0000 C   0  0  0  0  0  0  0  0  0  0  0  0
   -0.8917    1.0288    0.0000 C   0  0  0  0  0  0  0  0  0  0  0  0
    0.2518    1.9995    0.0000 C   0  0  0  0  0  0  0  0  0  0  0  0
    1.6643    1.4944    0.0000 C   0  0  0  0  0  0  0  0  0  0  0  0
    1.9331    0.0187    0.0000 C   0  0  0  0  0  0  0  0  0  0  0  0
    3.0767    0.9894    0.0000 C   0  0  0  0  0  0  0  0  0  0  0  0
    3.3455   -0.4863    0.0000 C   0  0  0  0  0  0  0  0  0  0  0  0
    4.4891    0.4844    0.0000 C   0  0  0  0  0  0  0  0  0  0  0  0
    4.3760    1.9801    0.0000 C   0  0  0  0  0  0  0  0  0  0  0  0
    5.7636    2.5499    0.0000 C   0  0  0  0  0  0  0  0  0  0  0  0
    6.1182    4.0074    0.0000 O   0  0  0  0  0  0  0  0  0  0  0  0
    6.7343    1.4063    0.0000 O   0  0  0  0  0  0  0  0  0  0  0  0
    5.9466    0.1297    0.0000 C   0  0  0  0  0  0  0  0  0  0  0  0
    6.5164   -1.2578    0.0000 O   0  0  0  0  0  0  0  0  0  0  0  0
    3.6144   -1.9620    0.0000 O   0  0  0  0  0  0  0  0  0  0  0  0
    2.4708   -2.9327    0.0000 C   0  0  0  0  0  0  0  0  0  0  0  0
    2.7396   -4.4084    0.0000 O   0  0  0  0  0  0  0  0  0  0  0  0
    1.0584   -2.4277    0.0000 C   0  0  0  0  0  0  0  0  0  0  0  0
   -0.3541   -1.9226    0.0000 O   0  0  0  0  0  0  0  0  0  0  0  0
    0.7895   -0.9520    0.0000 C   0  0  0  0  0  0  0  0  0  0  0  0
   -0.6229   -0.4469    0.0000 C   0  0  0  0  0  0  0  0  0  0  0  0
   -2.0353    0.0581    0.0000 C   0  0  0  0  0  0  0  0  0  0  0  0
  1  2  1  0
  2  3  2  0
  2  4  1  0
  5  4  1  6
  5  6  1  0
  6  7  1  0
  7  8  1  0
  8  9  1  0
  8 10  1  0
  8 11  1  0
 11 12  2  0
 11 13  1  0
 13 14  2  0
 14 15  1  0
 15 16  1  1
 15 17  1  0
 17 18  1  0
 18 19  1  0
 19 20  1  0
 20 21  1  6
 20 22  1  0
 22 23  1  6
 23 24  2  0
 24 25  1  0
 25 26  1  0
 25 27  1  0
 27 28  1  0
 28 29  2  0
 22 30  1  0
 30 31  1  0
 31 32  2  0
 31 33  1  0
 33 34  1  1
 35 34  1  1
 35 36  1  0
 36 37  1  1
 36  5  1  0
 15  7  1  0
 36 17  1  0
 35 20  1  0
 28 23  1  0
 35 33  1  0
M  END
>  <identifier>  (1396) 
CNP0179992.1

>  <canonical_smiles>  (1396) 
CC(=O)O[C@@H]1CC2C(C)(C)C(=O)C=C[C@]2(C)C2CC[C@@]3(C)[C@H](C4=CC(O)OC4=O)OC(=O)[C@H]4O[C@]43[C@@]21C

>  <standard_inchi>  (1396) 
InChI=1S/C28H34O9/c1-13(29)34-18-12-16-24(2,3)17(30)8-9-25(16,4)15-7-10-26(5)20(14-11-19(31)35-22(14)32)36-23(33)21-28(26,37-21)27(15,18)6/h8-9,11,15-16,18-21,31H,7,10,12H2,1-6H3/t15?,16?,18-,19?,20+,21-,25-,26+,27+,28-/m1/s1

>  <standard_inchi_key>  (1396) 
RNDCBBAMBNUYHC-CKDFSRAWSA-N

>  <name>  (1396) 
nan

>  <iupac_name>  (1396) 
[(1~{S},2~{R},4~{S},7~{R},8~{S},12~{R},19~{R})-7-(2-hydroxy-5-oxo-2~{H}-furan-4-yl)-1,8,12,16,16-pentamethyl-5,15-dioxo-3,6-dioxapentacyclo[9.8.0.0^{2,4}.0^{2,8}.0^{12,17}]nonadec-13-en-19-yl] acetate

>  <annotation_level>  (1396) 
4

>  <total_atom_count>  (1396) 
71

>  <heavy_atom_count>  (1396) 
37

>  <molecular_weight>  (1396) 
514.57

>  <exact_molecular_weight>  (1396) 
514.22028

>  <molecular_formula>  (1396) 
C28H34O9

>  <alogp>  (1396) 
2.40

>  <topological_polar_surface_area>  (1396) 
128.73

>  <rotatable_bond_count>  (1396) 
2

>  <hydrogen_bond_acceptors>  (1396) 
9

>  <hydrogen_bond_donors>  (1396) 
1

>  <hydrogen_bond_acceptors_lipinski>  (1396) 
9

>  <hydrogen_bond_donors_lipinski>  (1396) 
1

>  <lipinski_rule_of_five_violations>  (1396) 
1

>  <aromatic_rings_count>  (1396) 
0

>  <qed_drug_likeliness>  (1396) 
0.34

>  <formal_charge>  (1396) 
0

>  <fractioncsp3>  (1396) 
0.71

>  <number_of_minimal_rings>  (1396) 
6

>  <van_der_walls_volume>  (1396) 
nan

>  <contains_sugar>  (1396) 
False

>  <contains_ring_sugars>  (1396) 
False

>  <contains_linear_sugars>  (1396) 
False

>  <murcko_framework>  (1396) 
O1CC=C(C1)C2OCC3OC34C2CCC5C6C=CCCC6CCC54

>  <np_likeness>  (1396) 
3.54

>  <chemical_class>  (1396) 
Prenol lipids

>  <chemical_sub_class>  (1396) 
Triterpenoids

>  <chemical_super_class>  (1396) 
Lipids and lipid-like molecules

>  <direct_parent_classification>  (1396) 
Limonoids

>  <np_classifier_pathway>  (1396) 
Terpenoids

>  <np_classifier_superclass>  (1396) 
Triterpenoids

>  <np_classifier_class>  (1396) 
Limonoids

>  <np_classifier_is_glycoside>  (1396) 
True

>  <organisms>  (1396) 
Cedrela fissilis

>  <collections>  (1396) 
Latin America dataset|NuBBEDB

>  <dois>  (1396) 
10.1590/S0103-50532006000300017

>  <synonyms>  (1396) 
Photogedunin

>  <cas>  (1396) 
nan

$$$$

     RDKit          2D

 22 25  0  0  0  0  0  0  0  0999 V2000
    3.5700    1.7503    0.0000 C   0  0  0  0  0  0  0  0  0  0  0  0
    2.2191    2.4022    0.0000 O   0  0  0  0  0  0  0  0  0  0  0  0
    0.9791    1.5582    0.0000 C   0  0  0  0  0  0  0  0  0  0  0  0
    1.0900    0.0623    0.0000 C   0  0  0  0  0  0  0  0  0  0  0  0
    2.4409   -0.5896    0.0000 C   0  0  0  0  0  0  0  0  0  0  0  0
    2.5518   -2.0854    0.0000 C   0  0  0  0  0  0  0  0  0  0  0  0
    3.9027   -2.7374    0.0000 C   0  0  0  0  0  0  0  0  0  0  0  0
    5.1428   -1.8934    0.0000 C   0  0  0  0  0  0  0  0  0  0  0  0
    5.0319   -0.3975    0.0000 C   0  0  0  0  0  0  0  0  0  0  0  0
    3.6809    0.2544    0.0000 C   0  0  0  0  0  0  0  0  0  0  0  0
   -0.1501   -0.7816    0.0000 O   0  0  0  0  0  0  0  0  0  0  0  0
   -1.5010   -0.1297    0.0000 C   0  0  0  0  0  0  0  0  0  0  0  0
   -1.6119    1.3661    0.0000 C   0  0  0  0  0  0  0  0  0  0  0  0
   -2.9628    2.0180    0.0000 C   0  0  0  0  0  0  0  0  0  0  0  0
   -4.2029    1.1741    0.0000 C   0  0  0  0  0  0  0  0  0  0  0  0
   -4.0920   -0.3218    0.0000 C   0  0  0  0  0  0  0  0  0  0  0  0
   -2.7410   -0.9737    0.0000 C   0  0  0  0  0  0  0  0  0  0  0  0
   -2.9436   -2.4600    0.0000 C   0  0  0  0  0  0  0  0  0  0  0  0
   -4.4197   -2.7267    0.0000 C   0  0  0  0  0  0  0  0  0  0  0  0
   -5.1294   -1.4052    0.0000 O   0  0  0  0  0  0  0  0  0  0  0  0
   -0.3719    2.2101    0.0000 C   0  0  0  0  0  0  0  0  0  0  0  0
   -0.4828    3.7060    0.0000 O   0  0  0  0  0  0  0  0  0  0  0  0
  1  2  1  0
  2  3  1  0
  3  4  2  0
  4  5  1  0
  5  6  2  0
  6  7  1  0
  7  8  2  0
  8  9  1  0
  9 10  2  0
  4 11  1  0
 11 12  1  0
 12 13  2  0
 13 14  1  0
 14 15  2  0
 15 16  1  0
 16 17  2  0
 17 18  1  0
 18 19  2  0
 19 20  1  0
 13 21  1  0
 21 22  2  0
 21  3  1  0
 10  5  1  0
 17 12  1  0
 20 16  1  0
M  END
>  <identifier>  (1397) 
CNP0255210.0

>  <canonical_smiles>  (1397) 
COC1=C(C2=CC=CC=C2)OC2=C(C=CC3=C2C=CO3)C1=O

>  <standard_inchi>  (1397) 
InChI=1S/C18H12O4/c1-20-18-15(19)13-7-8-14-12(9-10-21-14)17(13)22-16(18)11-5-3-2-4-6-11/h2-10H,1H3

>  <standard_inchi_key>  (1397) 
LKPQNZRGGNOPPU-UHFFFAOYSA-N

>  <name>  (1397) 
Karanjin

>  <iupac_name>  (1397) 
3-methoxy-2-phenyl-furo[2,3-h]chromen-4-one

>  <annotation_level>  (1397) 
5

>  <total_atom_count>  (1397) 
34

>  <heavy_atom_count>  (1397) 
22

>  <molecular_weight>  (1397) 
292.29

>  <exact_molecular_weight>  (1397) 
292.07356

>  <molecular_formula>  (1397) 
C18H12O4

>  <alogp>  (1397) 
4.21

>  <topological_polar_surface_area>  (1397) 
52.58

>  <rotatable_bond_count>  (1397) 
2

>  <hydrogen_bond_acceptors>  (1397) 
4

>  <hydrogen_bond_donors>  (1397) 
0

>  <hydrogen_bond_acceptors_lipinski>  (1397) 
4

>  <hydrogen_bond_donors_lipinski>  (1397) 
0

>  <lipinski_rule_of_five_violations>  (1397) 
0

>  <aromatic_rings_count>  (1397) 
4

>  <qed_drug_likeliness>  (1397) 
0.55

>  <formal_charge>  (1397) 
0

>  <fractioncsp3>  (1397) 
0.06

>  <number_of_minimal_rings>  (1397) 
4

>  <van_der_walls_volume>  (1397) 
247.24

>  <contains_sugar>  (1397) 
False

>  <contains_ring_sugars>  (1397) 
False

>  <contains_linear_sugars>  (1397) 
False

>  <murcko_framework>  (1397) 
o1ccc2c1ccc3c2OC(=CC3)c4ccccc4

>  <np_likeness>  (1397) 
0.84

>  <chemical_class>  (1397) 
Flavonoids

>  <chemical_sub_class>  (1397) 
Flavones

>  <chemical_super_class>  (1397) 
Phenylpropanoids and polyketides

>  <direct_parent_classification>  (1397) 
Furanoflavones

>  <np_classifier_pathway>  (1397) 
Shikimates and Phenylpropanoids

>  <np_classifier_superclass>  (1397) 
Flavonoids

>  <np_classifier_class>  (1397) 
Flavonols

>  <np_classifier_is_glycoside>  (1397) 
False

>  <organisms>  (1397) 
Dahlstedtia pentaphylla|Derris indica|Derris mollis|Fardia cauliflora|Fordia cauliflora|Lonchocarpus heptaphyllus|Lonchocarpus latifolius|Milletia sp.|Millettia leucantha|Millettia pinnata|Millettia pulchra|Millettia vatkei|Muellera campestris|Pongamia glabra|Pongamia pinnata|Pongania pinnata|Tephrosia Purpurea|Tephrosia purpurea

>  <collections>  (1397) 
AnalytiCon Discovery NPs|Australian natural products|CMAUP (cCollective molecular activities of useful plants)|GNPS (Global Natural Products Social Molecular Networking)|KNApSaCK|Latin America dataset|NPASS|NPEdia|NuBBEDB|PhytoLab phyproof® Reference Substances|PubChem NPs|Specs Natural Products|Super Natural II|TCMDB-Taiwan (Traditional Chinese Medicine database)|TIPdb (database of Taiwan indigenous plants)|UNPD (Universal Natural Products Database)|VietHerb|WikiData Natural Products|ZINC NP

>  <dois>  (1397) 
10.1002/CHIN.200516190|10.1002/CHIN.200548198|10.1002/JPS.3080141203|10.1007/978-1-4757-2351-9_13|10.1007/BF02636360|10.1016/0031-9422(80)83083-4|10.1016/0031-9422(82)80177-5|10.1016/0031-9422(82)83183-X|10.1016/0031-9422(88)80277-2|10.1016/0031-9422(91)80130-S|10.1016/J.BMCL.2014.11.015|10.1016/J.BMCL.2015.01.009|10.1016/J.CCLET.2010.03.021|10.1016/J.JEP.2008.05.008|10.1016/J.PHYTOCHEM.2003.09.011|10.1016/J.PHYTOCHEM.2006.03.019|10.1016/J.PHYTOCHEM.2006.05.016|10.1016/J.PHYTOCHEM.2018.02.005|10.1016/S0031-9422(00)00300-9|10.1016/S0031-9422(00)80118-1|10.1016/j.bmc.2009.05.051|10.1016/j.bmcl.2014.11.015|10.1016/j.bmcl.2015.01.009|10.1016/j.phytochem.2003.09.011|10.1021/NP50030A020|10.1039/JR9630000163|10.1071/ch9520754|10.1080/10575630290033114|10.1211/JPP.61.02.0017|10.1211/jpp/61.02.0017|10.1248/CPB.39.1473|10.1248/CPB.51.187|10.3109/13880208309070608

>  <synonyms>  (1397) 
3-Methoxy-2-phenyl-4H-furo(2,3-h)(1)benzopyran-4-one|3-methoxy-2-phenyl-4H-furo[2,3-h]chromen-4-one|4H-Furo(2,3-h)-1-benzopyran-4-one, 3-methoxy-2-phenyl-|4H-Furo[2, 3-methoxy-2-phenyl-|521-88-0|7-Methoxy-8-phenylfurano[2,3-h]chromen-6-one|A1-03165|A923926|AC-34768|AKOS016010124|BDBM50548261|BIDD:ER0513|CHEBI:166631|CHEMBL208484|CS-0022805|DB-052088|DTXSID20200106|EINECS 208-319-9|FLAVONE (BOHLMAN)|HMS3043B17|HY-N2534|KARANJIN|KARANJIN [MI]|KS-1474|Karanjin|Karanjin 100 microg\/mL in Acetonitrile|Kranjin|LMPK12111542|MEGxp0_001687|MFCD00017406|MLS001360608|NCGC00017182-01|NCGC00142418-01|NS00043273|NSC335755|Q6368495|SCHEMBL247164|SMR001223861|TNP00046|UNII-WV7IM0I02M|WV7IM0I02M|karanjin

>  <cas>  (1397) 
521-88-0

$$$$

     RDKit          2D

 36 39  0  0  0  0  0  0  0  0999 V2000
   -6.5230   -2.0752    0.0000 C   0  0  0  0  0  0  0  0  0  0  0  0
   -5.6560   -0.8512    0.0000 C   0  0  0  0  0  0  0  0  0  0  0  0
   -6.2825    0.5117    0.0000 C   0  0  0  0  0  0  0  0  0  0  0  0
   -4.1624   -0.9901    0.0000 C   0  0  0  0  0  0  0  0  0  0  0  0
   -3.5359   -2.3530    0.0000 C   0  0  0  0  0  0  0  0  0  0  0  0
   -2.0424   -2.4919    0.0000 C   0  0  0  0  0  0  0  0  0  0  0  0
   -1.4159   -3.8548    0.0000 O   0  0  0  0  0  0  0  0  0  0  0  0
   -1.1753   -1.2678    0.0000 C   0  0  0  0  0  0  0  0  0  0  0  0
   -2.6689   -1.1290    0.0000 C   0  0  0  0  0  0  0  0  0  0  0  0
   -1.8018    0.0951    0.0000 C   0  0  0  0  0  0  0  0  0  0  0  0
   -0.9347    1.3191    0.0000 C   0  0  0  0  0  0  0  0  0  0  0  0
    0.5588    1.1802    0.0000 C   0  0  0  0  0  0  0  0  0  0  0  0
    1.1853   -0.1827    0.0000 C   0  0  0  0  0  0  0  0  0  0  0  0
    2.6174   -0.6291    0.0000 C   0  0  0  0  0  0  0  0  0  0  0  0
    3.8202    0.2671    0.0000 C   0  0  0  0  0  0  0  0  0  0  0  0
    2.8032    1.3697    0.0000 C   0  0  0  0  0  0  0  0  0  0  0  0
    4.8105    1.3938    0.0000 O   0  0  0  0  0  0  0  0  0  0  0  0
    6.1880    0.8001    0.0000 C   0  0  0  0  0  0  0  0  0  0  0  0
    7.4780    1.5657    0.0000 C   0  0  0  0  0  0  0  0  0  0  0  0
    6.7124    2.8556    0.0000 C   0  0  0  0  0  0  0  0  0  0  0  0
    8.2435    0.2757    0.0000 C   0  0  0  0  0  0  0  0  0  0  0  0
    8.7679    2.3312    0.0000 O   0  0  0  0  0  0  0  0  0  0  0  0
    6.0491   -0.6934    0.0000 C   0  0  0  0  0  0  0  0  0  0  0  0
    4.5858   -1.0229    0.0000 C   0  0  0  0  0  0  0  0  0  0  0  0
    3.9921   -2.4004    0.0000 O   0  0  0  0  0  0  0  0  0  0  0  0
    2.6354   -2.1290    0.0000 C   0  0  0  0  0  0  0  0  0  0  0  0
    1.2144   -2.6096    0.0000 C   0  0  0  0  0  0  0  0  0  0  0  0
    0.3183   -1.4067    0.0000 C   0  0  0  0  0  0  0  0  0  0  0  0
   -0.4161   -2.7147    0.0000 C   0  0  0  0  0  0  0  0  0  0  0  0
   -3.2954    0.2339    0.0000 C   0  0  0  0  0  0  0  0  0  0  0  0
   -2.8992    1.6807    0.0000 C   0  0  0  0  0  0  0  0  0  0  0  0
   -4.6513    0.8753    0.0000 C   0  0  0  0  0  0  0  0  0  0  0  0
   -4.7739    2.3703    0.0000 C   0  0  0  0  0  0  0  0  0  0  0  0
   -6.1299    3.0116    0.0000 C   0  0  0  0  0  0  0  0  0  0  0  0
   -7.3633    2.1580    0.0000 O   0  0  0  0  0  0  0  0  0  0  0  0
   -6.2525    4.5066    0.0000 O   0  0  0  0  0  0  0  0  0  0  0  0
  1  2  2  0
  2  3  1  0
  2  4  1  0
  4  5  1  0
  5  6  1  0
  6  7  1  1
  6  8  1  0
  8  9  1  1
  8 10  1  0
 10 11  1  0
 11 12  1  0
 12 13  1  0
 13 14  1  0
 14 15  1  0
 15 16  1  6
 15 17  1  0
 17 18  1  0
 18 19  1  1
 19 20  1  0
 19 21  1  0
 19 22  1  0
 18 23  1  0
 23 24  1  0
 24 25  1  0
 14 26  1  1
 26 27  1  0
 27 28  1  0
 28 29  1  6
 10 30  1  0
 30 31  1  1
 30 32  1  0
 32 33  1  0
 33 34  1  0
 34 35  2  0
 34 36  1  0
 30  4  1  0
 28  8  1  0
 28 13  1  0
 24 15  1  0
M  END
>  <identifier>  (1398) 
CNP0080509.1

>  <canonical_smiles>  (1398) 
C=C(C)C1C[C@H](O)[C@]2(C)C(CCC3[C@@H]([C@@]4(C)O[C@@H](C(C)(C)O)CC4O)CC[C@]32C)[C@@]1(C)CCC(=O)O

>  <standard_inchi>  (1398) 
InChI=1S/C30H50O6/c1-17(2)20-15-22(31)29(7)21(27(20,5)13-12-25(33)34)10-9-18-19(11-14-28(18,29)6)30(8)23(32)16-24(36-30)26(3,4)35/h18-24,31-32,35H,1,9-16H2,2-8H3,(H,33,34)/t18?,19-,20?,21?,22-,23?,24+,27-,28+,29-,30+/m0/s1

>  <standard_inchi_key>  (1398) 
ZOTAOAWVFKLANN-MRCCKXMCSA-N

>  <name>  (1398) 
nan

>  <iupac_name>  (1398) 
3-[(3~{S},6~{S},9~{S},9~{a}~{R},9~{b}~{R})-9-hydroxy-3-[(2~{R},5~{R})-3-hydroxy-5-(1-hydroxy-1-methyl-ethyl)-2-methyl-tetrahydrofuran-2-yl]-7-isopropenyl-6,9~{a},9~{b}-trimethyl-1,2,3,3~{a},4,5,5~{a},7,8,9-decahydrocyclopenta[a]naphthalen-6-yl]propanoic acid

>  <annotation_level>  (1398) 
4

>  <total_atom_count>  (1398) 
86

>  <heavy_atom_count>  (1398) 
36

>  <molecular_weight>  (1398) 
506.72

>  <exact_molecular_weight>  (1398) 
506.36074

>  <molecular_formula>  (1398) 
C30H50O6

>  <alogp>  (1398) 
4.94

>  <topological_polar_surface_area>  (1398) 
107.22

>  <rotatable_bond_count>  (1398) 
6

>  <hydrogen_bond_acceptors>  (1398) 
5

>  <hydrogen_bond_donors>  (1398) 
4

>  <hydrogen_bond_acceptors_lipinski>  (1398) 
5

>  <hydrogen_bond_donors_lipinski>  (1398) 
4

>  <lipinski_rule_of_five_violations>  (1398) 
1

>  <aromatic_rings_count>  (1398) 
0

>  <qed_drug_likeliness>  (1398) 
0.38

>  <formal_charge>  (1398) 
0

>  <fractioncsp3>  (1398) 
0.90

>  <number_of_minimal_rings>  (1398) 
4

>  <van_der_walls_volume>  (1398) 
nan

>  <contains_sugar>  (1398) 
False

>  <contains_ring_sugars>  (1398) 
False

>  <contains_linear_sugars>  (1398) 
False

>  <murcko_framework>  (1398) 
O1CCCC1C2CCC3C4CCCCC4CCC23

>  <np_likeness>  (1398) 
2.66

>  <chemical_class>  (1398) 
Prenol lipids

>  <chemical_sub_class>  (1398) 
Terpene glycosides

>  <chemical_super_class>  (1398) 
Lipids and lipid-like molecules

>  <direct_parent_classification>  (1398) 
Diterpene glycosides

>  <np_classifier_pathway>  (1398) 
Terpenoids

>  <np_classifier_superclass>  (1398) 
Triterpenoids

>  <np_classifier_class>  (1398) 
Dammarane and Protostane triterpenoids

>  <np_classifier_is_glycoside>  (1398) 
False

>  <organisms>  (1398) 
Cabralea canjerana

>  <collections>  (1398) 
Latin America dataset|NuBBEDB|WikiData Natural Products

>  <dois>  (1398) 
10.1016/J.BSE.2005.10.012|10.1016/j.bse.2005.10.012

>  <synonyms>  (1398) 
20S24R-epoxy-7b22x25-trihydroxy-34-secodammar-4(28)-en-3-oic acid

>  <cas>  (1398) 
nan

$$$$

     RDKit          2D

 25 28  0  0  0  0  0  0  0  0999 V2000
    7.8062   -0.0051    0.0000 C   0  0  0  0  0  0  0  0  0  0  0  0
    6.3834   -0.4803    0.0000 C   0  0  0  0  0  0  0  0  0  0  0  0
    5.2605    0.5142    0.0000 C   0  0  0  0  0  0  0  0  0  0  0  0
    3.8378    0.0391    0.0000 C   0  0  0  0  0  0  0  0  0  0  0  0
    4.5528   -1.2796    0.0000 O   0  0  0  0  0  0  0  0  0  0  0  0
    3.7684   -2.5581    0.0000 C   0  0  0  0  0  0  0  0  0  0  0  0
    2.6634   -0.8941    0.0000 C   0  0  0  0  0  0  0  0  0  0  0  0
    1.2680   -0.3436    0.0000 C   0  0  0  0  0  0  0  0  0  0  0  0
    1.0471    1.1401    0.0000 C   0  0  0  0  0  0  0  0  0  0  0  0
    2.2215    2.0732    0.0000 C   0  0  0  0  0  0  0  0  0  0  0  0
    3.6169    1.5227    0.0000 C   0  0  0  0  0  0  0  0  0  0  0  0
    4.7913    2.4558    0.0000 O   0  0  0  0  0  0  0  0  0  0  0  0
   -0.4322    1.3884    0.0000 O   0  0  0  0  0  0  0  0  0  0  0  0
   -1.1255    0.0583    0.0000 C   0  0  0  0  0  0  0  0  0  0  0  0
   -2.6092   -0.1626    0.0000 C   0  0  0  0  0  0  0  0  0  0  0  0
   -3.1597   -1.5580    0.0000 C   0  0  0  0  0  0  0  0  0  0  0  0
   -4.6433   -1.7789    0.0000 C   0  0  0  0  0  0  0  0  0  0  0  0
   -5.5764   -0.6045    0.0000 C   0  0  0  0  0  0  0  0  0  0  0  0
   -7.0736   -0.5121    0.0000 O   0  0  0  0  0  0  0  0  0  0  0  0
   -7.4484    0.9403    0.0000 C   0  0  0  0  0  0  0  0  0  0  0  0
   -6.1829    1.7456    0.0000 O   0  0  0  0  0  0  0  0  0  0  0  0
   -5.0259    0.7909    0.0000 C   0  0  0  0  0  0  0  0  0  0  0  0
   -3.5423    1.0118    0.0000 C   0  0  0  0  0  0  0  0  0  0  0  0
   -0.0747   -1.0122    0.0000 C   0  0  0  0  0  0  0  0  0  0  0  0
   -0.3231   -2.4915    0.0000 C   0  0  0  0  0  0  0  0  0  0  0  0
  1  2  2  0
  2  3  1  0
  4  3  1  6
  4  5  1  0
  5  6  1  0
  4  7  1  0
  7  8  2  0
  8  9  1  0
  9 10  2  0
 10 11  1  0
 11 12  2  0
  9 13  1  0
 13 14  1  0
 14 15  1  1
 15 16  2  0
 16 17  1  0
 17 18  2  0
 18 19  1  0
 19 20  1  0
 20 21  1  0
 21 22  1  0
 22 23  2  0
 14 24  1  0
 24 25  1  6
 11  4  1  0
 23 15  1  0
 24  8  1  0
 22 18  1  0
M  END
>  <identifier>  (1399) 
CNP0209756.1

>  <canonical_smiles>  (1399) 
C=CC[C@]1(OC)C=C2C(=CC1=O)O[C@H](C1=CC=C3OCOC3=C1)[C@H]2C

>  <standard_inchi>  (1399) 
InChI=1S/C20H20O5/c1-4-7-20(22-3)10-14-12(2)19(25-16(14)9-18(20)21)13-5-6-15-17(8-13)24-11-23-15/h4-6,8-10,12,19H,1,7,11H2,2-3H3/t12-,19-,20-/m0/s1

>  <standard_inchi_key>  (1399) 
HCKMSYACKQLOPY-OUWQEXSBSA-N

>  <name>  (1399) 
57430-03-2

>  <iupac_name>  (1399) 
(2~{S},3~{S},5~{S})-5-allyl-2-(1,3-benzodioxol-5-yl)-5-methoxy-3-methyl-2,3-dihydrobenzofuran-6-one

>  <annotation_level>  (1399) 
5

>  <total_atom_count>  (1399) 
45

>  <heavy_atom_count>  (1399) 
25

>  <molecular_weight>  (1399) 
340.38

>  <exact_molecular_weight>  (1399) 
340.13107

>  <molecular_formula>  (1399) 
C20H20O5

>  <alogp>  (1399) 
3.48

>  <topological_polar_surface_area>  (1399) 
53.99

>  <rotatable_bond_count>  (1399) 
4

>  <hydrogen_bond_acceptors>  (1399) 
5

>  <hydrogen_bond_donors>  (1399) 
0

>  <hydrogen_bond_acceptors_lipinski>  (1399) 
5

>  <hydrogen_bond_donors_lipinski>  (1399) 
0

>  <lipinski_rule_of_five_violations>  (1399) 
0

>  <aromatic_rings_count>  (1399) 
1

>  <qed_drug_likeliness>  (1399) 
0.79

>  <formal_charge>  (1399) 
0

>  <fractioncsp3>  (1399) 
0.35

>  <number_of_minimal_rings>  (1399) 
4

>  <van_der_walls_volume>  (1399) 
nan

>  <contains_sugar>  (1399) 
False

>  <contains_ring_sugars>  (1399) 
False

>  <contains_linear_sugars>  (1399) 
False

>  <murcko_framework>  (1399) 
O1c2ccc(cc2OC1)C3OC4=CCCC=C4C3

>  <np_likeness>  (1399) 
2.29

>  <chemical_class>  (1399) 
Benzodioxoles

>  <chemical_sub_class>  (1399) 
Benzodioxoles

>  <chemical_super_class>  (1399) 
Organoheterocyclic compounds

>  <direct_parent_classification>  (1399) 
Benzodioxoles

>  <np_classifier_pathway>  (1399) 
Shikimates and Phenylpropanoids

>  <np_classifier_superclass>  (1399) 
Lignans

>  <np_classifier_class>  (1399) 
Neolignans

>  <np_classifier_is_glycoside>  (1399) 
False

>  <organisms>  (1399) 
Aniba terminalis|Magnolia denudata|Ocotea porosa

>  <collections>  (1399) 
Latin America dataset|NuBBEDB|Super Natural II|TCMDB-Taiwan (Traditional Chinese Medicine database)|WikiData Natural Products|ZINC NP

>  <dois>  (1399) 
10.1016/0031-9422(75)85303-9|10.1016/S0031-9422(00)97102-4|10.1248/CPB.48.832

>  <synonyms>  (1399) 
(2S)-2|(2S)-2alpha-(1,3-Benzodioxol-5-yl)-3,5-dihydro-5alpha-methoxy-3beta-methyl-5-allyl-2H-benzofuran-6-one|(2S,3S,5S)-2-(1,3-benzodioxol-5-yl)-5-methoxy-3-methyl-5-prop-2-enyl-2,3-dihydro-1-benzofuran-6-one|(2S3S5S)-5-allyl-5-methoxy-3-methyl-2-piperonyl-2356-tetrahydroxy-6-oxobenzofuran|1,6-Dihydro-4,7\/'-epoxy-1-methoxy- 3\/',4\/'-methylenedioxy-6-oxo-3,8\/'-lignan|A-(1,3-Benzodioxole-5-yl)-3|A-methoxy-5-allyl-2,3,5,6-tetrahydrobenzofuran-6-one|A-methyl-5|AKOS040760871

>  <cas>  (1399) 
nan

$$$$

     RDKit          2D

 17 18  0  0  0  0  0  0  0  0999 V2000
   -5.3966    2.1798    0.0000 C   0  0  0  0  0  0  0  0  0  0  0  0
   -4.6932    0.8550    0.0000 C   0  0  0  0  0  0  0  0  0  0  0  0
   -5.4889   -0.4166    0.0000 C   0  0  0  0  0  0  0  0  0  0  0  0
   -3.1941    0.8017    0.0000 C   0  0  0  0  0  0  0  0  0  0  0  0
   -2.4907   -0.5232    0.0000 C   0  0  0  0  0  0  0  0  0  0  0  0
   -0.9917   -0.5764    0.0000 C   0  0  0  0  0  0  0  0  0  0  0  0
   -0.1960    0.6951    0.0000 C   0  0  0  0  0  0  0  0  0  0  0  0
    1.3030    0.6418    0.0000 C   0  0  0  0  0  0  0  0  0  0  0  0
    2.0064   -0.6830    0.0000 C   0  0  0  0  0  0  0  0  0  0  0  0
    1.2107   -1.9546    0.0000 C   0  0  0  0  0  0  0  0  0  0  0  0
   -0.2883   -1.9013    0.0000 C   0  0  0  0  0  0  0  0  0  0  0  0
   -1.0840   -3.1729    0.0000 O   0  0  0  0  0  0  0  0  0  0  0  0
    3.5055   -0.7363    0.0000 O   0  0  0  0  0  0  0  0  0  0  0  0
    4.3011    0.5353    0.0000 C   0  0  0  0  0  0  0  0  0  0  0  0
    5.8002    0.4820    0.0000 O   0  0  0  0  0  0  0  0  0  0  0  0
    3.5978    1.8601    0.0000 C   0  0  0  0  0  0  0  0  0  0  0  0
    2.0987    1.9134    0.0000 C   0  0  0  0  0  0  0  0  0  0  0  0
  1  2  1  0
  2  3  1  0
  2  4  2  0
  4  5  1  0
  5  6  1  0
  6  7  2  0
  7  8  1  0
  8  9  2  0
  9 10  1  0
 10 11  2  0
 11 12  1  0
  9 13  1  0
 13 14  1  0
 14 15  2  0
 14 16  1  0
 16 17  2  0
 11  6  1  0
 17  8  1  0
M  END
>  <identifier>  (1400) 
CNP0307696.0

>  <canonical_smiles>  (1400) 
CC(C)=CCC1=CC2=C(C=C1O)OC(=O)C=C2

>  <standard_inchi>  (1400) 
InChI=1S/C14H14O3/c1-9(2)3-4-10-7-11-5-6-14(16)17-13(11)8-12(10)15/h3,5-8,15H,4H2,1-2H3

>  <standard_inchi_key>  (1400) 
FIDUIAPDSKSUGO-UHFFFAOYSA-N

>  <name>  (1400) 
Demethylsuberosin

>  <iupac_name>  (1400) 
7-hydroxy-6-(3-methylbut-2-enyl)chromen-2-one

>  <annotation_level>  (1400) 
5

>  <total_atom_count>  (1400) 
31

>  <heavy_atom_count>  (1400) 
17

>  <molecular_weight>  (1400) 
230.26

>  <exact_molecular_weight>  (1400) 
230.09429

>  <molecular_formula>  (1400) 
C14H14O3

>  <alogp>  (1400) 
3.01

>  <topological_polar_surface_area>  (1400) 
50.44

>  <rotatable_bond_count>  (1400) 
2

>  <hydrogen_bond_acceptors>  (1400) 
3

>  <hydrogen_bond_donors>  (1400) 
1

>  <hydrogen_bond_acceptors_lipinski>  (1400) 
3

>  <hydrogen_bond_donors_lipinski>  (1400) 
1

>  <lipinski_rule_of_five_violations>  (1400) 
0

>  <aromatic_rings_count>  (1400) 
2

>  <qed_drug_likeliness>  (1400) 
0.64

>  <formal_charge>  (1400) 
0

>  <fractioncsp3>  (1400) 
0.21

>  <number_of_minimal_rings>  (1400) 
2

>  <van_der_walls_volume>  (1400) 
210.61

>  <contains_sugar>  (1400) 
False

>  <contains_ring_sugars>  (1400) 
False

>  <contains_linear_sugars>  (1400) 
False

>  <murcko_framework>  (1400) 
O1c2ccccc2C=CC1

>  <np_likeness>  (1400) 
1.76

>  <chemical_class>  (1400) 
Coumarins and derivatives

>  <chemical_sub_class>  (1400) 
Hydroxycoumarins

>  <chemical_super_class>  (1400) 
Phenylpropanoids and polyketides

>  <direct_parent_classification>  (1400) 
7-hydroxycoumarins

>  <np_classifier_pathway>  (1400) 
Shikimates and Phenylpropanoids

>  <np_classifier_superclass>  (1400) 
Coumarins

>  <np_classifier_class>  (1400) 
Simple coumarins

>  <np_classifier_is_glycoside>  (1400) 
False

>  <organisms>  (1400) 
Aegle marmelos|Angelica acutiloba|Angelica dahurica|Angelica dahurica var. formosana|Angelica genuflexa|Angelica gigas|Angelica sinensis|Ashitaba|Bauhinia racemosa|Boronia algida|Boronia lanceolata|Brosimum krukovii|Brosimum rubescens|Citropsis articulata|Citrus canariculata|Citrus funadoko|Citrus jambhiri|Citrus medica|Citrus rugulosa|Citrus sulcata|Citrus tachibana|Citrus tamurana|Cudrania tricuspidata|Curvularia spicifera|Cyclamen balearicum|Ephedra sinica|Feroniella lucida|Glehnia littoralis|Grindelia humilis|Limonia acidissima|Maclura tricuspidata|Maianthemum stellatum|Phellodendron Amurense|Prangos tschimganica|Prangos uloptera|Sophora flavescens|Tanacetum argyrophyllum

>  <collections>  (1400) 
AnalytiCon Discovery NPs|Australian natural products|CMAUP (cCollective molecular activities of useful plants)|ChEBI NPs|FooDB|Latin America dataset|NPASS|NuBBEDB|Super Natural II|TCMDB-Taiwan (Traditional Chinese Medicine database)|TCMID (Traditional Chinese Medicine Integrated Database)|UNPD (Universal Natural Products Database)|VietHerb|WikiData Natural Products|ZINC NP

>  <dois>  (1400) 
10.1016/0031-9422(73)85135-0|10.1016/0031-9422(94)00956-T|10.1016/0031-9422(94)00956-t|10.1016/J.FOODCHEM.2011.09.099|10.1016/J.JPBA.2007.09.020|10.1016/J.PHYTOCHEM.2011.11.018|10.1016/S0031-9422(00)86395-5|10.1016/S0031-9422(00)89816-7|10.1016/S0031-9422(00)89841-6|10.1016/S0031-9422(01)00423-X|10.1016/S0031-9422(97)00528-1|10.1016/s0031-9422(00)89816-7|10.1021/ACS.JNATPROD.6B00204|10.1021/NP000441W|10.1021/NP2004825|10.1021/NP9607215|10.1039/P19900001593|10.1080/10286020.2011.572878|10.1177/1934578x0600100502|10.1248/CPB.16.1139|10.1248/CPB.38.1230|10.1248/CPB.39.2509|10.1248/CPB.49.877|10.1248/CPB.58.61

>  <synonyms>  (1400) 
21422-04-8|2H-1-Benzopyran-2-one, 7-hydroxy-6-(3-methyl-2-butenyl)-|6-(3,3-dimethylallyl)-7-hydroxycoumarin|6-(DIMETHYLALLYL)UMBELLIFERONE|7-Demethylsuberosin|7-HYDROXY-6-(3-METHYL-2-BUTEN-1-YL)-2H-1-BENZOPYRAN-2-ONE|7-hydroxy-6-(3-methylbut-2-enyl)chromen-2-one|7-hydroxy-6-prenyl-1-benzopyran-2-one|7-hydroxy-6-prenylcoumarin|A901542|AC-34612|AKOS028111784|BDBM50292574|C18083|CHEBI:69042|CHEMBL502689|COUMARIN, 7-HYDROXY-6-(3-METHYL-2-BUTENYL)-|CS-0022759|DTXSID90175695|E80688|HY-N2488|MEGxp0_001461|MS-23308|Q27137383|SCHEMBL4773171|SDM71QIW25|UNII-SDM71QIW25|XD163696|demethylsuberosin

>  <cas>  (1400) 
21422-04-8

$$$$

     RDKit          2D

 27 30  0  0  0  0  0  0  0  0999 V2000
    2.6535    4.3092    0.0000 C   0  0  0  0  0  0  0  0  0  0  0  0
    2.6706    2.8093    0.0000 C   0  0  0  0  0  0  0  0  0  0  0  0
    1.3801    2.0446    0.0000 C   0  0  0  0  0  0  0  0  0  0  0  0
    1.3972    0.5447    0.0000 C   0  0  0  0  0  0  0  0  0  0  0  0
    2.7605    1.1703    0.0000 C   0  0  0  0  0  0  0  0  0  0  0  0
    3.9840    0.3025    0.0000 C   0  0  0  0  0  0  0  0  0  0  0  0
    5.3472    0.9282    0.0000 O   0  0  0  0  0  0  0  0  0  0  0  0
    6.5707    0.0604    0.0000 C   0  0  0  0  0  0  0  0  0  0  0  0
    3.8441   -1.1909    0.0000 C   0  0  0  0  0  0  0  0  0  0  0  0
    5.0676   -2.0588    0.0000 O   0  0  0  0  0  0  0  0  0  0  0  0
    2.4809   -1.8166    0.0000 C   0  0  0  0  0  0  0  0  0  0  0  0
    2.3410   -3.3101    0.0000 O   0  0  0  0  0  0  0  0  0  0  0  0
    3.5645   -4.1779    0.0000 C   0  0  0  0  0  0  0  0  0  0  0  0
    1.2574   -0.9488    0.0000 C   0  0  0  0  0  0  0  0  0  0  0  0
   -0.2062   -1.2773    0.0000 O   0  0  0  0  0  0  0  0  0  0  0  0
   -0.9709    0.0131    0.0000 C   0  0  0  0  0  0  0  0  0  0  0  0
   -2.4644    0.1529    0.0000 C   0  0  0  0  0  0  0  0  0  0  0  0
   -3.0901    1.5162    0.0000 C   0  0  0  0  0  0  0  0  0  0  0  0
   -4.5835    1.6560    0.0000 C   0  0  0  0  0  0  0  0  0  0  0  0
   -5.4513    0.4325    0.0000 C   0  0  0  0  0  0  0  0  0  0  0  0
   -6.9412    0.2588    0.0000 O   0  0  0  0  0  0  0  0  0  0  0  0
   -7.2364   -1.2119    0.0000 C   0  0  0  0  0  0  0  0  0  0  0  0
   -5.9289   -1.9471    0.0000 O   0  0  0  0  0  0  0  0  0  0  0  0
   -4.8257   -0.9308    0.0000 C   0  0  0  0  0  0  0  0  0  0  0  0
   -3.3322   -1.0706    0.0000 C   0  0  0  0  0  0  0  0  0  0  0  0
    0.0200    1.1392    0.0000 C   0  0  0  0  0  0  0  0  0  0  0  0
   -0.3085    2.6027    0.0000 C   0  0  0  0  0  0  0  0  0  0  0  0
  1  2  2  0
  2  3  1  0
  4  3  1  6
  4  5  1  0
  5  6  1  0
  6  7  1  1
  7  8  1  0
  6  9  1  0
  9 10  2  0
  9 11  1  0
 11 12  1  0
 12 13  1  0
 11 14  2  0
 14 15  1  0
 15 16  1  0
 16 17  1  6
 17 18  2  0
 18 19  1  0
 19 20  2  0
 20 21  1  0
 21 22  1  0
 22 23  1  0
 23 24  1  0
 24 25  2  0
 16 26  1  0
 26 27  1  1
 14  4  1  0
 25 17  1  0
 26  4  1  0
 24 20  1  0
M  END
>  <identifier>  (1401) 
CNP0263795.1

>  <canonical_smiles>  (1401) 
C=CC[C@]12C[C@@H](OC)C(=O)C(OC)=C1O[C@H](C1=CC=C3OCOC3=C1)[C@H]2C

>  <standard_inchi>  (1401) 
InChI=1S/C21H24O6/c1-5-8-21-10-16(23-3)17(22)19(24-4)20(21)27-18(12(21)2)13-6-7-14-15(9-13)26-11-25-14/h5-7,9,12,16,18H,1,8,10-11H2,2-4H3/t12-,16-,18+,21-/m1/s1

>  <standard_inchi_key>  (1401) 
SSPDVRMNHFFRCE-JDEKTIPCSA-N

>  <name>  (1401) 
armenin-B

>  <iupac_name>  (1401) 
(2~{S},3~{S},3~{a}~{R},5~{R})-3~{a}-allyl-2-(1,3-benzodioxol-5-yl)-5,7-dimethoxy-3-methyl-2,3,4,5-tetrahydrobenzofuran-6-one

>  <annotation_level>  (1401) 
5

>  <total_atom_count>  (1401) 
51

>  <heavy_atom_count>  (1401) 
27

>  <molecular_weight>  (1401) 
372.42

>  <exact_molecular_weight>  (1401) 
372.15729

>  <molecular_formula>  (1401) 
C21H24O6

>  <alogp>  (1401) 
3.53

>  <topological_polar_surface_area>  (1401) 
63.22

>  <rotatable_bond_count>  (1401) 
5

>  <hydrogen_bond_acceptors>  (1401) 
6

>  <hydrogen_bond_donors>  (1401) 
0

>  <hydrogen_bond_acceptors_lipinski>  (1401) 
6

>  <hydrogen_bond_donors_lipinski>  (1401) 
0

>  <lipinski_rule_of_five_violations>  (1401) 
0

>  <aromatic_rings_count>  (1401) 
1

>  <qed_drug_likeliness>  (1401) 
0.74

>  <formal_charge>  (1401) 
0

>  <fractioncsp3>  (1401) 
0.48

>  <number_of_minimal_rings>  (1401) 
4

>  <van_der_walls_volume>  (1401) 
335.51

>  <contains_sugar>  (1401) 
False

>  <contains_ring_sugars>  (1401) 
False

>  <contains_linear_sugars>  (1401) 
False

>  <murcko_framework>  (1401) 
O1c2ccc(cc2OC1)C3OC4=CCCCC4C3

>  <np_likeness>  (1401) 
2.20

>  <chemical_class>  (1401) 
Benzodioxoles

>  <chemical_sub_class>  (1401) 
Benzodioxoles

>  <chemical_super_class>  (1401) 
Organoheterocyclic compounds

>  <direct_parent_classification>  (1401) 
Benzodioxoles

>  <np_classifier_pathway>  (1401) 
Shikimates and Phenylpropanoids

>  <np_classifier_superclass>  (1401) 
Lignans

>  <np_classifier_class>  (1401) 
Neolignans

>  <np_classifier_is_glycoside>  (1401) 
False

>  <organisms>  (1401) 
Diaporthe phaseolorum|Endicheria aff.|Endlicheria|Euphorbia splendens|Leptotaenia multifida|Licaria armeniaca|Lunasia costulata|Ocotea aciphylla|Ocotea catharinensis|Rudbeckia speciosa|Woodsia manchuriensis

>  <collections>  (1401) 
CMAUP (cCollective molecular activities of useful plants)|KNApSaCK|Latin America dataset|NPASS|NuBBEDB|Super Natural II|WikiData Natural Products

>  <dois>  (1401) 
10.1016/0031-9422(91)83479-5|10.1016/S0031-9422(00)81240-6|10.1016/S0031-9422(00)88765-8|10.1021/NP030507Y|10.1021/NP030507Y.S001

>  <synonyms>  (1401) 
(2S3S3aR5R)-3a-Allyl-57-dimethoxy-2-(3'4'-methylene-dioxyphenyl)-3-methyl-233a456-hexahydro-6-oxo-benzofuran|Armenin B|BDBM50242105|CHEMBL470873

>  <cas>  (1401) 
nan

$$$$

     RDKit          2D

 24 27  0  0  0  0  0  0  0  0999 V2000
   -3.9735   -3.5370    0.0000 C   0  0  0  0  0  0  0  0  0  0  0  0
   -2.8440   -2.5499    0.0000 C   0  0  0  0  0  0  0  0  0  0  0  0
   -1.3816   -2.8835    0.0000 C   0  0  0  0  0  0  0  0  0  0  0  0
   -0.6124   -1.5958    0.0000 C   0  0  0  0  0  0  0  0  0  0  0  0
    0.4873   -2.6159    0.0000 C   0  0  0  0  0  0  0  0  0  0  0  0
    1.9206   -2.1736    0.0000 C   0  0  0  0  0  0  0  0  0  0  0  0
    2.2542   -0.7111    0.0000 C   0  0  0  0  0  0  0  0  0  0  0  0
    3.6875   -0.2688    0.0000 C   0  0  0  0  0  0  0  0  0  0  0  0
    5.1857   -0.3434    0.0000 C   0  0  0  0  0  0  0  0  0  0  0  0
    3.8742   -1.7572    0.0000 C   0  0  0  0  0  0  0  0  0  0  0  0
    4.0211    1.1936    0.0000 C   0  0  0  0  0  0  0  0  0  0  0  0
    2.9214    2.2137    0.0000 C   0  0  0  0  0  0  0  0  0  0  0  0
    1.4881    1.7714    0.0000 C   0  0  0  0  0  0  0  0  0  0  0  0
    1.1545    0.3090    0.0000 C   0  0  0  0  0  0  0  0  0  0  0  0
    0.0548    1.3291    0.0000 C   0  0  0  0  0  0  0  0  0  0  0  0
   -0.2788   -0.1333    0.0000 C   0  0  0  0  0  0  0  0  0  0  0  0
   -1.3785    0.8868    0.0000 C   0  0  0  0  0  0  0  0  0  0  0  0
   -1.0449    2.3492    0.0000 O   0  0  0  0  0  0  0  0  0  0  0  0
   -2.1446    3.3694    0.0000 C   0  0  0  0  0  0  0  0  0  0  0  0
   -1.8110    4.8318    0.0000 C   0  0  0  0  0  0  0  0  0  0  0  0
   -3.5779    2.9270    0.0000 O   0  0  0  0  0  0  0  0  0  0  0  0
   -2.8118    0.4445    0.0000 C   0  0  0  0  0  0  0  0  0  0  0  0
   -3.1454   -1.0179    0.0000 C   0  0  0  0  0  0  0  0  0  0  0  0
   -2.0457   -2.0381    0.0000 C   0  0  0  0  0  0  0  0  0  0  0  0
  1  2  2  0
  2  3  1  0
  4  3  1  6
  4  5  1  0
  5  6  1  0
  7  6  1  1
  7  8  1  0
  8  9  1  0
  8 10  1  0
  8 11  1  0
 11 12  1  0
 12 13  1  0
 13 14  1  0
 14 15  1  1
 14 16  1  0
 16 17  1  1
 17 18  1  1
 18 19  1  0
 19 20  1  0
 19 21  2  0
 17 22  1  0
 23 22  1  6
 23 24  1  0
 23  2  1  0
 16  4  1  0
 24  4  1  0
 14  7  1  0
M  END
>  <identifier>  (1402) 
CNP0285969.1

>  <canonical_smiles>  (1402) 
C=C1C[C@@]23CC[C@@H]4C(C)(C)CCC[C@@]4(C)[C@@H]2[C@H](OC(C)=O)C[C@@H]1C3

>  <standard_inchi>  (1402) 
InChI=1S/C22H34O2/c1-14-12-22-10-7-18-20(3,4)8-6-9-21(18,5)19(22)17(24-15(2)23)11-16(14)13-22/h16-19H,1,6-13H2,2-5H3/t16-,17-,18-,19+,21-,22-/m1/s1

>  <standard_inchi_key>  (1402) 
BQQSCAZYSGFQLB-SFGIZBKVSA-N

>  <name>  (1402) 
nan

>  <iupac_name>  (1402) 
[(1~{S},4~{R},9~{R},10~{R},11~{R},13~{S})-5,5,9-trimethyl-14-methylene-11-tetracyclo[11.2.1.0^{1,10}.0^{4,9}]hexadecanyl] acetate

>  <annotation_level>  (1402) 
3

>  <total_atom_count>  (1402) 
58

>  <heavy_atom_count>  (1402) 
24

>  <molecular_weight>  (1402) 
330.51

>  <exact_molecular_weight>  (1402) 
330.25588

>  <molecular_formula>  (1402) 
C22H34O2

>  <alogp>  (1402) 
5.52

>  <topological_polar_surface_area>  (1402) 
26.30

>  <rotatable_bond_count>  (1402) 
1

>  <hydrogen_bond_acceptors>  (1402) 
2

>  <hydrogen_bond_donors>  (1402) 
0

>  <hydrogen_bond_acceptors_lipinski>  (1402) 
2

>  <hydrogen_bond_donors_lipinski>  (1402) 
0

>  <lipinski_rule_of_five_violations>  (1402) 
1

>  <aromatic_rings_count>  (1402) 
0

>  <qed_drug_likeliness>  (1402) 
0.47

>  <formal_charge>  (1402) 
0

>  <fractioncsp3>  (1402) 
0.86

>  <number_of_minimal_rings>  (1402) 
4

>  <van_der_walls_volume>  (1402) 
nan

>  <contains_sugar>  (1402) 
False

>  <contains_ring_sugars>  (1402) 
False

>  <contains_linear_sugars>  (1402) 
False

>  <murcko_framework>  (1402) 
C1CCC2C(C1)CCC34CCC(CCC23)C4

>  <np_likeness>  (1402) 
3.53

>  <chemical_class>  (1402) 
Prenol lipids

>  <chemical_sub_class>  (1402) 
Diterpenoids

>  <chemical_super_class>  (1402) 
Lipids and lipid-like molecules

>  <direct_parent_classification>  (1402) 
Kaurane diterpenoids

>  <np_classifier_pathway>  (1402) 
Terpenoids

>  <np_classifier_superclass>  (1402) 
Diterpenoids

>  <np_classifier_class>  (1402) 
Kaurane and Phyllocladane diterpenoids

>  <np_classifier_is_glycoside>  (1402) 
False

>  <organisms>  (1402) 
Vellozia caput-ardeae

>  <collections>  (1402) 
Latin America dataset|NuBBEDB|WikiData Natural Products

>  <dois>  (1402) 
10.1016/0031-9422(83)80035-1

>  <synonyms>  (1402) 
nan

>  <cas>  (1402) 
nan

$$$$

     RDKit          2D

 26 30  0  0  0  0  0  0  0  0999 V2000
    6.7152   -1.5096    0.0000 C   0  0  0  0  0  0  0  0  0  0  0  0
    5.2328   -1.7391    0.0000 C   0  0  0  0  0  0  0  0  0  0  0  0
    5.7162   -3.1590    0.0000 C   0  0  0  0  0  0  0  0  0  0  0  0
    3.9183   -2.4616    0.0000 C   0  0  0  0  0  0  0  0  0  0  0  0
    2.6353   -1.6845    0.0000 C   0  0  0  0  0  0  0  0  0  0  0  0
    2.6668   -0.1849    0.0000 C   0  0  0  0  0  0  0  0  0  0  0  0
    3.9813    0.5377    0.0000 C   0  0  0  0  0  0  0  0  0  0  0  0
    4.0127    2.0374    0.0000 C   0  0  0  0  0  0  0  0  0  0  0  0
    2.7297    2.8145    0.0000 C   0  0  0  0  0  0  0  0  0  0  0  0
    1.4152    2.0919    0.0000 C   0  0  0  0  0  0  0  0  0  0  0  0
    1.3838    0.5922    0.0000 C   0  0  0  0  0  0  0  0  0  0  0  0
    0.0693   -0.1304    0.0000 O   0  0  0  0  0  0  0  0  0  0  0  0
   -1.2137    0.6467    0.0000 C   0  0  0  0  0  0  0  0  0  0  0  0
   -2.5282   -0.0759    0.0000 C   0  0  0  0  0  0  0  0  0  0  0  0
   -2.5597   -1.5755    0.0000 C   0  0  0  0  0  0  0  0  0  0  0  0
   -3.8742   -2.2981    0.0000 C   0  0  0  0  0  0  0  0  0  0  0  0
   -5.1572   -1.5210    0.0000 C   0  0  0  0  0  0  0  0  0  0  0  0
   -6.5932   -1.9545    0.0000 O   0  0  0  0  0  0  0  0  0  0  0  0
   -7.4492   -0.7228    0.0000 C   0  0  0  0  0  0  0  0  0  0  0  0
   -6.5423    0.4720    0.0000 O   0  0  0  0  0  0  0  0  0  0  0  0
   -5.1257   -0.0213    0.0000 C   0  0  0  0  0  0  0  0  0  0  0  0
   -3.8112    0.7012    0.0000 C   0  0  0  0  0  0  0  0  0  0  0  0
   -1.1823    2.1464    0.0000 C   0  0  0  0  0  0  0  0  0  0  0  0
    0.1322    2.8690    0.0000 C   0  0  0  0  0  0  0  0  0  0  0  0
    0.1637    4.3686    0.0000 O   0  0  0  0  0  0  0  0  0  0  0  0
    5.2643   -0.2394    0.0000 O   0  0  0  0  0  0  0  0  0  0  0  0
  1  2  1  0
  2  3  1  0
  2  4  1  0
  4  5  2  0
  5  6  1  0
  6  7  2  0
  7  8  1  0
  8  9  2  0
  9 10  1  0
 10 11  2  0
 11 12  1  0
 12 13  1  0
 13 14  1  0
 14 15  2  0
 15 16  1  0
 16 17  2  0
 17 18  1  0
 18 19  1  0
 19 20  1  0
 20 21  1  0
 21 22  2  0
 13 23  2  0
 23 24  1  0
 24 25  2  0
  7 26  1  0
 26  2  1  0
 11  6  1  0
 22 14  1  0
 24 10  1  0
 21 17  1  0
M  END
>  <identifier>  (1403) 
CNP0413597.0

>  <canonical_smiles>  (1403) 
CC1(C)C=CC2=C(C=CC3=C2OC(C2=CC=C4OCOC4=C2)=CC3=O)O1

>  <standard_inchi>  (1403) 
InChI=1S/C21H16O5/c1-21(2)8-7-14-16(26-21)6-4-13-15(22)10-18(25-20(13)14)12-3-5-17-19(9-12)24-11-23-17/h3-10H,11H2,1-2H3

>  <standard_inchi_key>  (1403) 
VTEDSEHLMNTMAV-UHFFFAOYSA-N

>  <name>  (1403) 
6'',6''-Dimethyl-3',4'-methylenedioxypyrano[2'',3'':7,8]flavone

>  <iupac_name>  (1403) 
2-(1,3-benzodioxol-5-yl)-8,8-dimethyl-pyrano[2,3-f]chromen-4-one

>  <annotation_level>  (1403) 
5

>  <total_atom_count>  (1403) 
42

>  <heavy_atom_count>  (1403) 
26

>  <molecular_weight>  (1403) 
348.35

>  <exact_molecular_weight>  (1403) 
348.09977

>  <molecular_formula>  (1403) 
C21H16O5

>  <alogp>  (1403) 
4.37

>  <topological_polar_surface_area>  (1403) 
57.90

>  <rotatable_bond_count>  (1403) 
1

>  <hydrogen_bond_acceptors>  (1403) 
5

>  <hydrogen_bond_donors>  (1403) 
0

>  <hydrogen_bond_acceptors_lipinski>  (1403) 
5

>  <hydrogen_bond_donors_lipinski>  (1403) 
0

>  <lipinski_rule_of_five_violations>  (1403) 
0

>  <aromatic_rings_count>  (1403) 
3

>  <qed_drug_likeliness>  (1403) 
0.65

>  <formal_charge>  (1403) 
0

>  <fractioncsp3>  (1403) 
0.19

>  <number_of_minimal_rings>  (1403) 
5

>  <van_der_walls_volume>  (1403) 
296.48

>  <contains_sugar>  (1403) 
False

>  <contains_ring_sugars>  (1403) 
False

>  <contains_linear_sugars>  (1403) 
False

>  <murcko_framework>  (1403) 
O1C(=CCc2ccc3OCC=Cc3c12)c4ccc5OCOc5c4

>  <np_likeness>  (1403) 
1.65

>  <chemical_class>  (1403) 
Flavonoids

>  <chemical_sub_class>  (1403) 
Pyranoflavonoids

>  <chemical_super_class>  (1403) 
Phenylpropanoids and polyketides

>  <direct_parent_classification>  (1403) 
Pyranoflavonoids

>  <np_classifier_pathway>  (1403) 
Shikimates and Phenylpropanoids

>  <np_classifier_superclass>  (1403) 
Flavonoids

>  <np_classifier_class>  (1403) 
Flavones

>  <np_classifier_is_glycoside>  (1403) 
False

>  <organisms>  (1403) 
Dahlstedtia pentaphylla|Lonchocarpus subglaucescens

>  <collections>  (1403) 
KNApSaCK|Latin America dataset|NPEdia|NuBBEDB|Super Natural II|UNPD (Universal Natural Products Database)|WikiData Natural Products|ZINC NP

>  <dois>  (1403) 
10.1016/0031-9422(96)00134-3|10.1211/JPP.61.02.0017|10.1211/jpp/61.02.0017

>  <synonyms>  (1403) 
2-(1,3-benzodioxol-5-yl)-8,8-dimethylpyrano[2,3-]chromen-4-one|3'4'-methylenedioxy-78-(2''2''-dimethylpyrano)-flavone|6'',6''-Dimethyl-3',4'-methylenedioxypyrano[2'',3'':7,8]flavone|CHEBI:186845|LMPK12110041

>  <cas>  (1403) 
nan

$$$$

     RDKit          2D

 26 28  0  0  0  0  0  0  0  0999 V2000
   -7.6822   -1.7384    0.0000 O   0  0  0  0  0  0  0  0  0  0  0  0
   -7.2102   -0.3145    0.0000 C   0  0  0  0  0  0  0  0  0  0  0  0
   -8.2073    0.8061    0.0000 C   0  0  0  0  0  0  0  0  0  0  0  0
   -7.7353    2.2299    0.0000 C   0  0  0  0  0  0  0  0  0  0  0  0
   -6.2662    2.5331    0.0000 C   0  0  0  0  0  0  0  0  0  0  0  0
   -5.2692    1.4124    0.0000 C   0  0  0  0  0  0  0  0  0  0  0  0
   -3.8001    1.7156    0.0000 C   0  0  0  0  0  0  0  0  0  0  0  0
   -2.8031    0.5949    0.0000 C   0  0  0  0  0  0  0  0  0  0  0  0
   -1.3340    0.8981    0.0000 C   0  0  0  0  0  0  0  0  0  0  0  0
   -0.3370   -0.2226    0.0000 C   0  0  0  0  0  0  0  0  0  0  0  0
   -0.8090   -1.6464    0.0000 C   0  0  0  0  0  0  0  0  0  0  0  0
    0.1881   -2.7670    0.0000 C   0  0  0  0  0  0  0  0  0  0  0  0
   -0.2839   -4.1909    0.0000 O   0  0  0  0  0  0  0  0  0  0  0  0
    1.6572   -2.4639    0.0000 C   0  0  0  0  0  0  0  0  0  0  0  0
    2.6542   -3.5845    0.0000 O   0  0  0  0  0  0  0  0  0  0  0  0
    2.1291   -1.0401    0.0000 C   0  0  0  0  0  0  0  0  0  0  0  0
    3.5982   -0.7369    0.0000 C   0  0  0  0  0  0  0  0  0  0  0  0
    4.0702    0.6869    0.0000 C   0  0  0  0  0  0  0  0  0  0  0  0
    5.5392    0.9900    0.0000 C   0  0  0  0  0  0  0  0  0  0  0  0
    6.5363   -0.1306    0.0000 C   0  0  0  0  0  0  0  0  0  0  0  0
    8.0053    0.1725    0.0000 C   0  0  0  0  0  0  0  0  0  0  0  0
    8.4773    1.5963    0.0000 C   0  0  0  0  0  0  0  0  0  0  0  0
    7.4802    2.7170    0.0000 C   0  0  0  0  0  0  0  0  0  0  0  0
    6.0112    2.4138    0.0000 C   0  0  0  0  0  0  0  0  0  0  0  0
    1.1321    0.0806    0.0000 O   0  0  0  0  0  0  0  0  0  0  0  0
   -5.7412   -0.0114    0.0000 O   0  0  0  0  0  0  0  0  0  0  0  0
  1  2  2  0
  2  3  1  0
  3  4  2  0
  4  5  1  0
  5  6  1  0
  6  7  1  6
  7  8  2  0
  8  9  1  0
 10  9  1  6
 10 11  1  0
 11 12  1  0
 12 13  1  1
 12 14  1  0
 14 15  1  1
 14 16  1  0
 16 17  1  6
 17 18  2  0
 18 19  1  0
 19 20  2  0
 20 21  1  0
 21 22  2  0
 22 23  1  0
 23 24  2  0
 16 25  1  0
  6 26  1  0
 26  2  1  0
 25 10  1  0
 24 19  1  0
M  END
>  <identifier>  (1404) 
CNP0112930.1

>  <canonical_smiles>  (1404) 
O=C1C=CC[C@H](/C=C/C[C@H]2C[C@H](O)[C@H](O)[C@@H](/C=C/C3=CC=CC=C3)O2)O1

>  <standard_inchi>  (1404) 
InChI=1S/C21H24O5/c22-18-14-17(10-4-8-16-9-5-11-20(23)26-16)25-19(21(18)24)13-12-15-6-2-1-3-7-15/h1-8,11-13,16-19,21-22,24H,9-10,14H2/b8-4+,13-12+/t16-,17-,18-,19+,21-/m0/s1

>  <standard_inchi_key>  (1404) 
ITOWMYXEGADZIR-XTDNVFOLSA-N

>  <name>  (1404) 
nan

>  <iupac_name>  (1404) 
(2~{R})-2-[(~{E})-3-[(2~{S},4~{S},5~{S},6~{R})-4,5-dihydroxy-6-[(~{E})-styryl]tetrahydropyran-2-yl]prop-1-enyl]-2,3-dihydropyran-6-one

>  <annotation_level>  (1404) 
5

>  <total_atom_count>  (1404) 
50

>  <heavy_atom_count>  (1404) 
26

>  <molecular_weight>  (1404) 
356.42

>  <exact_molecular_weight>  (1404) 
356.16237

>  <molecular_formula>  (1404) 
C21H24O5

>  <alogp>  (1404) 
2.40

>  <topological_polar_surface_area>  (1404) 
75.99

>  <rotatable_bond_count>  (1404) 
5

>  <hydrogen_bond_acceptors>  (1404) 
5

>  <hydrogen_bond_donors>  (1404) 
2

>  <hydrogen_bond_acceptors_lipinski>  (1404) 
5

>  <hydrogen_bond_donors_lipinski>  (1404) 
2

>  <lipinski_rule_of_five_violations>  (1404) 
0

>  <aromatic_rings_count>  (1404) 
1

>  <qed_drug_likeliness>  (1404) 
0.63

>  <formal_charge>  (1404) 
0

>  <fractioncsp3>  (1404) 
0.38

>  <number_of_minimal_rings>  (1404) 
3

>  <van_der_walls_volume>  (1404) 
330.52

>  <contains_sugar>  (1404) 
False

>  <contains_ring_sugars>  (1404) 
False

>  <contains_linear_sugars>  (1404) 
False

>  <murcko_framework>  (1404) 
O1CC=CCC1C=CCC2OC(C=Cc3ccccc3)CCC2

>  <np_likeness>  (1404) 
2.79

>  <chemical_class>  (1404) 
Pyrans

>  <chemical_sub_class>  (1404) 
Pyranones and derivatives

>  <chemical_super_class>  (1404) 
Organoheterocyclic compounds

>  <direct_parent_classification>  (1404) 
Dihydropyranones

>  <np_classifier_pathway>  (1404) 
Shikimates and Phenylpropanoids

>  <np_classifier_superclass>  (1404) 
Styrylpyrones

>  <np_classifier_class>  (1404) 
Kavalactones and derivatives

>  <np_classifier_is_glycoside>  (1404) 
False

>  <organisms>  (1404) 
Cryptocarya moschata

>  <collections>  (1404) 
ChemSpider NPs|Latin America dataset|NuBBEDB|Super Natural II|WikiData Natural Products|ZINC NP

>  <dois>  (1404) 
10.1016/S0031-9422(99)00532-4

>  <synonyms>  (1404) 
Cryptopyranmoscatone B2

>  <cas>  (1404) 
nan

$$$$

     RDKit          2D

 28 31  0  0  0  0  0  0  0  0999 V2000
    4.9537    4.0865    0.0000 C   0  0  0  0  0  0  0  0  0  0  0  0
    4.6532    2.6169    0.0000 C   0  0  0  0  0  0  0  0  0  0  0  0
    3.2303    2.1423    0.0000 C   0  0  0  0  0  0  0  0  0  0  0  0
    2.9298    0.6727    0.0000 C   0  0  0  0  0  0  0  0  0  0  0  0
    4.0523   -0.3223    0.0000 C   0  0  0  0  0  0  0  0  0  0  0  0
    3.7519   -1.7919    0.0000 C   0  0  0  0  0  0  0  0  0  0  0  0
    4.8744   -2.7869    0.0000 O   0  0  0  0  0  0  0  0  0  0  0  0
    2.3289   -2.2665    0.0000 C   0  0  0  0  0  0  0  0  0  0  0  0
    2.0285   -3.7361    0.0000 O   0  0  0  0  0  0  0  0  0  0  0  0
    1.2064   -1.2715    0.0000 C   0  0  0  0  0  0  0  0  0  0  0  0
   -0.2165   -1.7461    0.0000 O   0  0  0  0  0  0  0  0  0  0  0  0
   -0.5169   -3.2157    0.0000 C   0  0  0  0  0  0  0  0  0  0  0  0
    0.4464    0.0217    0.0000 C   0  0  0  0  0  0  0  0  0  0  0  0
   -1.0466    0.1668    0.0000 C   0  0  0  0  0  0  0  0  0  0  0  0
   -1.9188   -1.0535    0.0000 C   0  0  0  0  0  0  0  0  0  0  0  0
   -3.4118   -0.9083    0.0000 C   0  0  0  0  0  0  0  0  0  0  0  0
   -4.2840   -2.1287    0.0000 O   0  0  0  0  0  0  0  0  0  0  0  0
   -3.6632   -3.4942    0.0000 C   0  0  0  0  0  0  0  0  0  0  0  0
   -4.0325    0.4572    0.0000 C   0  0  0  0  0  0  0  0  0  0  0  0
   -5.4627    0.9096    0.0000 O   0  0  0  0  0  0  0  0  0  0  0  0
   -5.4743    2.4096    0.0000 C   0  0  0  0  0  0  0  0  0  0  0  0
   -4.0514    2.8842    0.0000 O   0  0  0  0  0  0  0  0  0  0  0  0
   -3.1603    1.6776    0.0000 C   0  0  0  0  0  0  0  0  0  0  0  0
   -1.6673    1.5324    0.0000 C   0  0  0  0  0  0  0  0  0  0  0  0
    1.4414    1.1441    0.0000 C   0  0  0  0  0  0  0  0  0  0  0  0
    1.1181    2.6089    0.0000 C   0  0  0  0  0  0  0  0  0  0  0  0
    1.5069    0.1981    0.0000 C   0  0  0  0  0  0  0  0  0  0  0  0
    0.3844    1.1931    0.0000 O   0  0  0  0  0  0  0  0  0  0  0  0
  1  2  2  0
  2  3  1  0
  4  3  1  6
  4  5  1  0
  5  6  1  0
  6  7  2  0
  6  8  1  0
  8  9  1  6
  8 10  1  0
 10 11  1  6
 11 12  1  0
 10 13  1  0
 13 14  1  6
 14 15  2  0
 15 16  1  0
 16 17  1  0
 17 18  1  0
 16 19  2  0
 19 20  1  0
 20 21  1  0
 21 22  1  0
 22 23  1  0
 23 24  2  0
 13 25  1  0
 25 26  1  1
 10 27  1  0
 27 28  1  1
 25  4  1  0
 27  4  1  0
 24 14  1  0
 23 19  1  0
M  END
>  <identifier>  (1405) 
CNP0212404.1

>  <canonical_smiles>  (1405) 
C=CC[C@@]12CC(=O)[C@H](O)[C@@](OC)([C@H](C3=CC(OC)=C4OCOC4=C3)[C@H]1C)[C@H]2O

>  <standard_inchi>  (1405) 
InChI=1S/C21H26O7/c1-5-6-20-9-13(22)18(23)21(26-4,19(20)24)16(11(20)2)12-7-14(25-3)17-15(8-12)27-10-28-17/h5,7-8,11,16,18-19,23-24H,1,6,9-10H2,2-4H3/t11-,16+,18+,19+,20-,21+/m1/s1

>  <standard_inchi_key>  (1405) 
LZOZNNUTUVJVDZ-GAEXVAJMSA-N

>  <name>  (1405) 
nan

>  <iupac_name>  (1405) 
(1~{R},2~{R},5~{R},6~{R},7~{S},8~{S})-5-allyl-2,8-dihydroxy-1-methoxy-7-(7-methoxy-1,3-benzodioxol-5-yl)-6-methyl-bicyclo[3.2.1]octan-3-one

>  <annotation_level>  (1405) 
3

>  <total_atom_count>  (1405) 
54

>  <heavy_atom_count>  (1405) 
28

>  <molecular_weight>  (1405) 
390.43

>  <exact_molecular_weight>  (1405) 
390.16785

>  <molecular_formula>  (1405) 
C21H26O7

>  <alogp>  (1405) 
1.80

>  <topological_polar_surface_area>  (1405) 
94.45

>  <rotatable_bond_count>  (1405) 
5

>  <hydrogen_bond_acceptors>  (1405) 
7

>  <hydrogen_bond_donors>  (1405) 
2

>  <hydrogen_bond_acceptors_lipinski>  (1405) 
7

>  <hydrogen_bond_donors_lipinski>  (1405) 
2

>  <lipinski_rule_of_five_violations>  (1405) 
0

>  <aromatic_rings_count>  (1405) 
1

>  <qed_drug_likeliness>  (1405) 
0.74

>  <formal_charge>  (1405) 
0

>  <fractioncsp3>  (1405) 
0.57

>  <number_of_minimal_rings>  (1405) 
4

>  <van_der_walls_volume>  (1405) 
nan

>  <contains_sugar>  (1405) 
False

>  <contains_ring_sugars>  (1405) 
False

>  <contains_linear_sugars>  (1405) 
False

>  <murcko_framework>  (1405) 
O1c2ccc(cc2OC1)C3CC4CCCC3C4

>  <np_likeness>  (1405) 
2.20

>  <chemical_class>  (1405) 
Benzodioxoles

>  <chemical_sub_class>  (1405) 
Benzodioxoles

>  <chemical_super_class>  (1405) 
Organoheterocyclic compounds

>  <direct_parent_classification>  (1405) 
Benzodioxoles

>  <np_classifier_pathway>  (1405) 
Shikimates and Phenylpropanoids

>  <np_classifier_superclass>  (1405) 
Lignans

>  <np_classifier_class>  (1405) 
Neolignans

>  <np_classifier_is_glycoside>  (1405) 
False

>  <organisms>  (1405) 
Aniba|Aniba sp.

>  <collections>  (1405) 
Latin America dataset|NuBBEDB|WikiData Natural Products

>  <dois>  (1405) 
10.1016/S0031-9422(82)85050-4

>  <synonyms>  (1405) 
nan

>  <cas>  (1405) 
nan

$$$$

     RDKit          2D

 16 17  0  0  0  0  0  0  0  0999 V2000
   -5.1557    0.1538    0.0000 C   0  0  0  0  0  0  0  0  0  0  0  0
   -4.0822   -0.8939    0.0000 O   0  0  0  0  0  0  0  0  0  0  0  0
   -2.6382   -0.4882    0.0000 C   0  0  0  0  0  0  0  0  0  0  0  0
   -2.2675    0.9653    0.0000 C   0  0  0  0  0  0  0  0  0  0  0  0
   -0.8234    1.3710    0.0000 C   0  0  0  0  0  0  0  0  0  0  0  0
   -0.4527    2.8245    0.0000 C   0  0  0  0  0  0  0  0  0  0  0  0
    0.2500    0.3232    0.0000 C   0  0  0  0  0  0  0  0  0  0  0  0
    1.6941    0.7290    0.0000 C   0  0  0  0  0  0  0  0  0  0  0  0
    2.0648    2.1825    0.0000 O   0  0  0  0  0  0  0  0  0  0  0  0
    3.5089    2.5882    0.0000 C   0  0  0  0  0  0  0  0  0  0  0  0
    2.7675   -0.3188    0.0000 C   0  0  0  0  0  0  0  0  0  0  0  0
    2.3968   -1.7723    0.0000 C   0  0  0  0  0  0  0  0  0  0  0  0
    3.4703   -2.8200    0.0000 O   0  0  0  0  0  0  0  0  0  0  0  0
    0.9528   -2.1780    0.0000 O   0  0  0  0  0  0  0  0  0  0  0  0
   -0.1207   -1.1302    0.0000 C   0  0  0  0  0  0  0  0  0  0  0  0
   -1.5647   -1.5360    0.0000 C   0  0  0  0  0  0  0  0  0  0  0  0
  1  2  1  0
  2  3  1  0
  3  4  2  0
  4  5  1  0
  5  6  1  0
  5  7  2  0
  7  8  1  0
  8  9  1  0
  9 10  1  0
  8 11  2  0
 11 12  1  0
 12 13  2  0
 12 14  1  0
 14 15  1  0
 15 16  2  0
 16  3  1  0
 15  7  1  0
M  END
>  <identifier>  (1406) 
CNP0156909.0

>  <canonical_smiles>  (1406) 
COC1=CC(C)=C2C(OC)=CC(=O)OC2=C1

>  <standard_inchi>  (1406) 
InChI=1S/C12H12O4/c1-7-4-8(14-2)5-10-12(7)9(15-3)6-11(13)16-10/h4-6H,1-3H3

>  <standard_inchi_key>  (1406) 
LLTOPKQGFAAMKH-UHFFFAOYSA-N

>  <name>  (1406) 
siderin

>  <iupac_name>  (1406) 
4,7-dimethoxy-5-methyl-chromen-2-one

>  <annotation_level>  (1406) 
5

>  <total_atom_count>  (1406) 
28

>  <heavy_atom_count>  (1406) 
16

>  <molecular_weight>  (1406) 
220.22

>  <exact_molecular_weight>  (1406) 
220.07356

>  <molecular_formula>  (1406) 
C12H12O4

>  <alogp>  (1406) 
2.12

>  <topological_polar_surface_area>  (1406) 
48.67

>  <rotatable_bond_count>  (1406) 
2

>  <hydrogen_bond_acceptors>  (1406) 
4

>  <hydrogen_bond_donors>  (1406) 
0

>  <hydrogen_bond_acceptors_lipinski>  (1406) 
4

>  <hydrogen_bond_donors_lipinski>  (1406) 
0

>  <lipinski_rule_of_five_violations>  (1406) 
0

>  <aromatic_rings_count>  (1406) 
2

>  <qed_drug_likeliness>  (1406) 
0.73

>  <formal_charge>  (1406) 
0

>  <fractioncsp3>  (1406) 
0.25

>  <number_of_minimal_rings>  (1406) 
2

>  <van_der_walls_volume>  (1406) 
193.33

>  <contains_sugar>  (1406) 
False

>  <contains_ring_sugars>  (1406) 
False

>  <contains_linear_sugars>  (1406) 
False

>  <murcko_framework>  (1406) 
O1c2ccccc2C=CC1

>  <np_likeness>  (1406) 
0.51

>  <chemical_class>  (1406) 
Coumarins and derivatives

>  <chemical_sub_class>  (1406) 
Coumarins and derivatives

>  <chemical_super_class>  (1406) 
Phenylpropanoids and polyketides

>  <direct_parent_classification>  (1406) 
Coumarins and derivatives

>  <np_classifier_pathway>  (1406) 
Shikimates and Phenylpropanoids

>  <np_classifier_superclass>  (1406) 
Coumarins

>  <np_classifier_class>  (1406) 
Simple coumarins

>  <np_classifier_is_glycoside>  (1406) 
False

>  <organisms>  (1406) 
Cedrela toona|Clematis delavayi|Eriocapitella tomentosa|Imperata cylindrica|Juniperus sabina|Leucas inflata|Toona ciliata|Toona hexandra

>  <collections>  (1406) 
ANPDB|CMAUP (cCollective molecular activities of useful plants)|EMNPD|KNApSaCK|Latin America dataset|NANPDB (Natural Products from Northern African Sources)|NPASS|NuBBEDB|Super Natural II|TCMID (Traditional Chinese Medicine Integrated Database)|UNPD (Universal Natural Products Database)|WikiData Natural Products|ZINC NP

>  <dois>  (1406) 
10.1002/HLCA.201000278|10.1016/0031-9422(75)85391-X|10.1016/0031-9422(81)85289-2|10.1016/0305-1978(94)90107-4|10.1016/S0031-9422(98)00731-6|10.3390/MOLECULES14114433|10.3998/ARK.5550190.0005.606|10.4268/CJCMM20121523

>  <synonyms>  (1406) 
2H-1-Benzopyran-2-one, 4,7-dimethoxy-5-methyl-|4,7-Dimethoxy-5-methyl-2H-1-benzopyran-2-one|4,7-dimethoxy-5-methyl-chromen-2-one|4,7-dimethoxy-5-methylcoumarin|53377-54-1|CS-0889784|DTXSID30968023|HY-N11913|NK2BFZ89XC|Q15427829|SCHEMBL4274099|Siderine|UNII-NK2BFZ89XC|siderin

>  <cas>  (1406) 
53377-54-1

$$$$

     RDKit          2D

 27 29  0  0  0  0  0  0  0  0999 V2000
   -3.1978    3.4649    0.0000 C   0  0  0  0  0  0  0  0  0  0  0  0
   -3.2952    1.9681    0.0000 O   0  0  0  0  0  0  0  0  0  0  0  0
   -2.0476    1.1353    0.0000 C   0  0  0  0  0  0  0  0  0  0  0  0
   -0.7026    1.7994    0.0000 C   0  0  0  0  0  0  0  0  0  0  0  0
    0.5450    0.9667    0.0000 C   0  0  0  0  0  0  0  0  0  0  0  0
    0.4476   -0.5302    0.0000 C   0  0  0  0  0  0  0  0  0  0  0  0
    1.6953   -1.3629    0.0000 C   0  0  0  0  0  0  0  0  0  0  0  0
    1.5979   -2.8598    0.0000 O   0  0  0  0  0  0  0  0  0  0  0  0
    3.0402   -0.6989    0.0000 C   0  0  0  0  0  0  0  0  0  0  0  0
    4.2878   -1.5316    0.0000 C   0  0  0  0  0  0  0  0  0  0  0  0
    4.1905   -3.0284    0.0000 O   0  0  0  0  0  0  0  0  0  0  0  0
    5.6328   -0.8675    0.0000 C   0  0  0  0  0  0  0  0  0  0  0  0
    5.7302    0.6293    0.0000 C   0  0  0  0  0  0  0  0  0  0  0  0
    7.0752    1.2934    0.0000 C   0  0  0  0  0  0  0  0  0  0  0  0
    4.4826    1.4621    0.0000 C   0  0  0  0  0  0  0  0  0  0  0  0
    3.1376    0.7980    0.0000 C   0  0  0  0  0  0  0  0  0  0  0  0
    1.8900    1.6307    0.0000 C   0  0  0  0  0  0  0  0  0  0  0  0
    1.9874    3.1276    0.0000 O   0  0  0  0  0  0  0  0  0  0  0  0
   -0.8973   -1.1943    0.0000 C   0  0  0  0  0  0  0  0  0  0  0  0
   -0.9947   -2.6911    0.0000 O   0  0  0  0  0  0  0  0  0  0  0  0
   -2.1449   -0.3615    0.0000 C   0  0  0  0  0  0  0  0  0  0  0  0
   -3.4899   -1.0256    0.0000 C   0  0  0  0  0  0  0  0  0  0  0  0
   -4.7375   -0.1928    0.0000 C   0  0  0  0  0  0  0  0  0  0  0  0
   -4.6402    1.3040    0.0000 O   0  0  0  0  0  0  0  0  0  0  0  0
   -6.0825   -0.8569    0.0000 C   0  0  0  0  0  0  0  0  0  0  0  0
   -7.3301   -0.0242    0.0000 C   0  0  0  0  0  0  0  0  0  0  0  0
   -6.1799   -2.3538    0.0000 C   0  0  0  0  0  0  0  0  0  0  0  0
  1  2  1  0
  2  3  1  0
  3  4  2  0
  4  5  1  0
  5  6  2  0
  6  7  1  0
  7  8  2  0
  7  9  1  0
  9 10  2  0
 10 11  1  0
 10 12  1  0
 12 13  2  0
 13 14  1  0
 13 15  1  0
 15 16  2  0
 16 17  1  0
 17 18  2  0
  6 19  1  0
 19 20  1  0
 19 21  2  0
 21 22  1  0
 22 23  1  0
 23 24  2  0
 23 25  1  0
 25 26  1  0
 25 27  1  0
 21  3  1  0
 17  5  1  0
 16  9  1  0
M  END
>  <identifier>  (1407) 
CNP0285307.0

>  <canonical_smiles>  (1407) 
COC1=CC2=C(C(=O)C3=C(O)C=C(C)C=C3C2=O)C(O)=C1CC(=O)C(C)C

>  <standard_inchi>  (1407) 
InChI=1S/C21H20O6/c1-9(2)14(22)7-11-16(27-4)8-13-18(20(11)25)21(26)17-12(19(13)24)5-10(3)6-15(17)23/h5-6,8-9,23,25H,7H2,1-4H3

>  <standard_inchi_key>  (1407) 
POZKRJDVQGSFPR-UHFFFAOYSA-N

>  <name>  (1407) 
vismiaquinone B

>  <iupac_name>  (1407) 
1,8-dihydroxy-3-methoxy-6-methyl-2-(3-methyl-2-oxo-butyl)anthracene-9,10-dione

>  <annotation_level>  (1407) 
5

>  <total_atom_count>  (1407) 
47

>  <heavy_atom_count>  (1407) 
27

>  <molecular_weight>  (1407) 
368.39

>  <exact_molecular_weight>  (1407) 
368.12599

>  <molecular_formula>  (1407) 
C21H20O6

>  <alogp>  (1407) 
2.96

>  <topological_polar_surface_area>  (1407) 
100.90

>  <rotatable_bond_count>  (1407) 
4

>  <hydrogen_bond_acceptors>  (1407) 
6

>  <hydrogen_bond_donors>  (1407) 
2

>  <hydrogen_bond_acceptors_lipinski>  (1407) 
6

>  <hydrogen_bond_donors_lipinski>  (1407) 
2

>  <lipinski_rule_of_five_violations>  (1407) 
0

>  <aromatic_rings_count>  (1407) 
2

>  <qed_drug_likeliness>  (1407) 
0.73

>  <formal_charge>  (1407) 
0

>  <fractioncsp3>  (1407) 
0.29

>  <number_of_minimal_rings>  (1407) 
3

>  <van_der_walls_volume>  (1407) 
325.32

>  <contains_sugar>  (1407) 
False

>  <contains_ring_sugars>  (1407) 
False

>  <contains_linear_sugars>  (1407) 
False

>  <murcko_framework>  (1407) 
c1ccc2c(c1)Cc3ccccc3C2

>  <np_likeness>  (1407) 
1.34

>  <chemical_class>  (1407) 
Anthracenes

>  <chemical_sub_class>  (1407) 
Anthraquinones

>  <chemical_super_class>  (1407) 
Benzenoids

>  <direct_parent_classification>  (1407) 
Anthraquinones

>  <np_classifier_pathway>  (1407) 
Polyketides

>  <np_classifier_superclass>  (1407) 
Polycyclic aromatic polyketides

>  <np_classifier_class>  (1407) 
Anthraquinones and anthrones

>  <np_classifier_is_glycoside>  (1407) 
False

>  <organisms>  (1407) 
Harungana madagascariensis|Psorospermum laurentii|Vismia japurensis|Vismia laurentii|Vismia martiana|Vismia micrantha

>  <collections>  (1407) 
Australian natural products|CMAUP (cCollective molecular activities of useful plants)|ConMedNP|KNApSaCK|Latin America dataset|NPASS|NuBBEDB|Super Natural II|UNPD (Universal Natural Products Database)|WikiData Natural Products|ZINC NP

>  <dois>  (1407) 
10.1016/0031-9422(81)84067-8|10.1016/0031-9422(90)80218-6|10.1016/J.PHYTOCHEM.2006.03.018|10.1016/S0031-9422(00)88243-6|10.1016/j.bse.2005.08.004|10.1021/NP050407N|10.1021/NP060556L|10.1021/np050407n

>  <synonyms>  (1407) 
CHEMBL490333|SCHEMBL16227185|Vismiaquinone B

>  <cas>  (1407) 
nan

$$$$

     RDKit          2D

 21 23  0  0  0  0  0  0  0  0999 V2000
    6.8055   -2.8195    0.0000 C   0  0  0  0  0  0  0  0  0  0  0  0
    6.7416   -1.3209    0.0000 O   0  0  0  0  0  0  0  0  0  0  0  0
    5.4117   -0.6270    0.0000 C   0  0  0  0  0  0  0  0  0  0  0  0
    4.1459   -1.4317    0.0000 C   0  0  0  0  0  0  0  0  0  0  0  0
    2.8160   -0.7377    0.0000 C   0  0  0  0  0  0  0  0  0  0  0  0
    2.7521    0.7609    0.0000 C   0  0  0  0  0  0  0  0  0  0  0  0
    1.4222    1.4548    0.0000 C   0  0  0  0  0  0  0  0  0  0  0  0
    0.1563    0.6501    0.0000 C   0  0  0  0  0  0  0  0  0  0  0  0
   -1.1735    1.3440    0.0000 C   0  0  0  0  0  0  0  0  0  0  0  0
   -2.4394    0.5393    0.0000 C   0  0  0  0  0  0  0  0  0  0  0  0
   -2.3754   -0.9593    0.0000 C   0  0  0  0  0  0  0  0  0  0  0  0
   -3.6413   -1.7640    0.0000 C   0  0  0  0  0  0  0  0  0  0  0  0
   -4.9711   -1.0701    0.0000 C   0  0  0  0  0  0  0  0  0  0  0  0
   -6.3766   -1.5940    0.0000 O   0  0  0  0  0  0  0  0  0  0  0  0
   -7.3093   -0.4192    0.0000 C   0  0  0  0  0  0  0  0  0  0  0  0
   -6.4801    0.8308    0.0000 O   0  0  0  0  0  0  0  0  0  0  0  0
   -5.0351    0.4286    0.0000 C   0  0  0  0  0  0  0  0  0  0  0  0
   -3.7692    1.2333    0.0000 C   0  0  0  0  0  0  0  0  0  0  0  0
    4.0179    1.5656    0.0000 C   0  0  0  0  0  0  0  0  0  0  0  0
    3.9540    3.0642    0.0000 O   0  0  0  0  0  0  0  0  0  0  0  0
    5.3478    0.8717    0.0000 C   0  0  0  0  0  0  0  0  0  0  0  0
  1  2  1  0
  2  3  1  0
  3  4  2  0
  4  5  1  0
  5  6  2  0
  6  7  1  0
  7  8  1  0
  8  9  1  0
  9 10  1  0
 10 11  2  0
 11 12  1  0
 12 13  2  0
 13 14  1  0
 14 15  1  0
 15 16  1  0
 16 17  1  0
 17 18  2  0
  6 19  1  0
 19 20  1  0
 19 21  2  0
 21  3  1  0
 18 10  1  0
 17 13  1  0
M  END
>  <identifier>  (1408) 
CNP0310515.0

>  <canonical_smiles>  (1408) 
COC1=CC=C(CCCC2=CC=C3OCOC3=C2)C(O)=C1

>  <standard_inchi>  (1408) 
InChI=1S/C17H18O4/c1-19-14-7-6-13(15(18)10-14)4-2-3-12-5-8-16-17(9-12)21-11-20-16/h5-10,18H,2-4,11H2,1H3

>  <standard_inchi_key>  (1408) 
NJMMBJPOBWRSGZ-UHFFFAOYSA-N

>  <name>  (1408) 
Virolane

>  <iupac_name>  (1408) 
2-[3-(1,3-benzodioxol-5-yl)propyl]-5-methoxy-phenol

>  <annotation_level>  (1408) 
5

>  <total_atom_count>  (1408) 
39

>  <heavy_atom_count>  (1408) 
21

>  <molecular_weight>  (1408) 
286.33

>  <exact_molecular_weight>  (1408) 
286.12051

>  <molecular_formula>  (1408) 
C17H18O4

>  <alogp>  (1408) 
3.30

>  <topological_polar_surface_area>  (1408) 
47.92

>  <rotatable_bond_count>  (1408) 
5

>  <hydrogen_bond_acceptors>  (1408) 
4

>  <hydrogen_bond_donors>  (1408) 
1

>  <hydrogen_bond_acceptors_lipinski>  (1408) 
4

>  <hydrogen_bond_donors_lipinski>  (1408) 
1

>  <lipinski_rule_of_five_violations>  (1408) 
0

>  <aromatic_rings_count>  (1408) 
2

>  <qed_drug_likeliness>  (1408) 
0.92

>  <formal_charge>  (1408) 
0

>  <fractioncsp3>  (1408) 
0.29

>  <number_of_minimal_rings>  (1408) 
3

>  <van_der_walls_volume>  (1408) 
262.18

>  <contains_sugar>  (1408) 
False

>  <contains_ring_sugars>  (1408) 
False

>  <contains_linear_sugars>  (1408) 
False

>  <murcko_framework>  (1408) 
O1c2ccc(cc2OC1)CCCc3ccccc3

>  <np_likeness>  (1408) 
0.41

>  <chemical_class>  (1408) 
Phenols

>  <chemical_sub_class>  (1408) 
Methoxyphenols

>  <chemical_super_class>  (1408) 
Benzenoids

>  <direct_parent_classification>  (1408) 
Methoxyphenols

>  <np_classifier_pathway>  (1408) 
Shikimates and Phenylpropanoids

>  <np_classifier_superclass>  (1408) 
Lignans

>  <np_classifier_class>  (1408) 
nan

>  <np_classifier_is_glycoside>  (1408) 
False

>  <organisms>  (1408) 
Iryanthera coriacea|Virola divergens|Virola guggenheimii|Virola minutiflora|Virola multinervia|Virola surinamensis

>  <collections>  (1408) 
KNApSaCK|Latin America dataset|NuBBEDB|Super Natural II|UNPD (Universal Natural Products Database)|WikiData Natural Products|ZINC NP

>  <dois>  (1408) 
10.1016/0031-9422(75)85305-2|10.1016/0031-9422(80)80209-3|10.1016/0031-9422(81)80045-3|10.1016/S0031-9422(00)84396-4|10.1016/S0031-9422(98)00709-2|10.1016/S0378-8741(79)80001-X

>  <synonyms>  (1408) 
2-[3-(1,3-benzodioxol-5-yl)propyl]-5-methoxyphenol|CHEMBL4086047|Virolane|Virolane, 1-(2-hidroxy-4-methoxyphenyl)-3-(34-methylenedioxyphenyl)-propane

>  <cas>  (1408) 
nan

$$$$

     RDKit          2D

 29 31  0  0  0  0  0  0  0  0999 V2000
   -7.6925    2.7497    0.0000 C   0  0  0  0  0  0  0  0  0  0  0  0
   -7.4923    1.2631    0.0000 O   0  0  0  0  0  0  0  0  0  0  0  0
   -6.1048    0.6932    0.0000 C   0  0  0  0  0  0  0  0  0  0  0  0
   -4.9174    1.6098    0.0000 C   0  0  0  0  0  0  0  0  0  0  0  0
   -3.5299    1.0399    0.0000 C   0  0  0  0  0  0  0  0  0  0  0  0
   -3.3298   -0.4467    0.0000 C   0  0  0  0  0  0  0  0  0  0  0  0
   -1.9422   -1.0166    0.0000 C   0  0  0  0  0  0  0  0  0  0  0  0
   -0.7549   -0.1000    0.0000 C   0  0  0  0  0  0  0  0  0  0  0  0
    0.6326   -0.6699    0.0000 C   0  0  0  0  0  0  0  0  0  0  0  0
    0.8328   -2.1565    0.0000 O   0  0  0  0  0  0  0  0  0  0  0  0
    1.8199    0.2467    0.0000 C   0  0  0  0  0  0  0  0  0  0  0  0
    1.6197    1.7333    0.0000 C   0  0  0  0  0  0  0  0  0  0  0  0
    0.2322    2.3033    0.0000 O   0  0  0  0  0  0  0  0  0  0  0  0
    2.8071    2.6500    0.0000 C   0  0  0  0  0  0  0  0  0  0  0  0
    4.1946    2.0800    0.0000 C   0  0  0  0  0  0  0  0  0  0  0  0
    5.3819    2.9967    0.0000 O   0  0  0  0  0  0  0  0  0  0  0  0
    5.1817    4.4833    0.0000 C   0  0  0  0  0  0  0  0  0  0  0  0
    4.3948    0.5935    0.0000 C   0  0  0  0  0  0  0  0  0  0  0  0
    3.2074   -0.3232    0.0000 C   0  0  0  0  0  0  0  0  0  0  0  0
    3.4076   -1.8098    0.0000 O   0  0  0  0  0  0  0  0  0  0  0  0
    4.7951   -2.3797    0.0000 C   0  0  0  0  0  0  0  0  0  0  0  0
    5.9040   -3.3898    0.0000 C   0  0  0  0  0  0  0  0  0  0  0  0
    3.9929   -3.6472    0.0000 C   0  0  0  0  0  0  0  0  0  0  0  0
    5.9824   -1.4631    0.0000 C   0  0  0  0  0  0  0  0  0  0  0  0
    5.7823    0.0235    0.0000 C   0  0  0  0  0  0  0  0  0  0  0  0
   -4.5171   -1.3633    0.0000 C   0  0  0  0  0  0  0  0  0  0  0  0
   -5.9046   -0.7934    0.0000 C   0  0  0  0  0  0  0  0  0  0  0  0
   -7.0919   -1.7101    0.0000 O   0  0  0  0  0  0  0  0  0  0  0  0
   -6.8917   -3.1967    0.0000 C   0  0  0  0  0  0  0  0  0  0  0  0
  1  2  1  0
  2  3  1  0
  3  4  2  0
  4  5  1  0
  5  6  2  0
  6  7  1  0
  7  8  2  0
  8  9  1  0
  9 10  2  0
  9 11  1  0
 11 12  2  0
 12 13  1  0
 12 14  1  0
 14 15  2  0
 15 16  1  0
 16 17  1  0
 15 18  1  0
 18 19  2  0
 19 20  1  0
 20 21  1  0
 21 22  1  0
 21 23  1  0
 21 24  1  0
 24 25  2  0
  6 26  1  0
 26 27  2  0
 27 28  1  0
 28 29  1  0
 27  3  1  0
 19 11  1  0
 25 18  1  0
M  END
>  <identifier>  (1409) 
CNP0307416.1

>  <canonical_smiles>  (1409) 
COC1=CC=C(/C=C/C(=O)C2=C(O)C=C(OC)C3=C2OC(C)(C)C=C3)C=C1OC

>  <standard_inchi>  (1409) 
InChI=1S/C23H24O6/c1-23(2)11-10-15-19(27-4)13-17(25)21(22(15)29-23)16(24)8-6-14-7-9-18(26-3)20(12-14)28-5/h6-13,25H,1-5H3/b8-6+

>  <standard_inchi_key>  (1409) 
MYVVQLOQHTYUSA-SOFGYWHQSA-N

>  <name>  (1409) 
nan

>  <iupac_name>  (1409) 
nan

>  <annotation_level>  (1409) 
0

>  <total_atom_count>  (1409) 
53

>  <heavy_atom_count>  (1409) 
29

>  <molecular_weight>  (1409) 
396.44

>  <exact_molecular_weight>  (1409) 
396.15729

>  <molecular_formula>  (1409) 
C23H24O6

>  <alogp>  (1409) 
4.50

>  <topological_polar_surface_area>  (1409) 
74.22

>  <rotatable_bond_count>  (1409) 
6

>  <hydrogen_bond_acceptors>  (1409) 
6

>  <hydrogen_bond_donors>  (1409) 
1

>  <hydrogen_bond_acceptors_lipinski>  (1409) 
6

>  <hydrogen_bond_donors_lipinski>  (1409) 
1

>  <lipinski_rule_of_five_violations>  (1409) 
0

>  <aromatic_rings_count>  (1409) 
2

>  <qed_drug_likeliness>  (1409) 
0.57

>  <formal_charge>  (1409) 
0

>  <fractioncsp3>  (1409) 
0.26

>  <number_of_minimal_rings>  (1409) 
3

>  <van_der_walls_volume>  (1409) 
358.41

>  <contains_sugar>  (1409) 
False

>  <contains_ring_sugars>  (1409) 
False

>  <contains_linear_sugars>  (1409) 
False

>  <murcko_framework>  (1409) 
O1c2c(cccc2CC=Cc3ccccc3)C=CC1

>  <np_likeness>  (1409) 
1.70

>  <chemical_class>  (1409) 
nan

>  <chemical_sub_class>  (1409) 
nan

>  <chemical_super_class>  (1409) 
nan

>  <direct_parent_classification>  (1409) 
nan

>  <np_classifier_pathway>  (1409) 
Shikimates and Phenylpropanoids

>  <np_classifier_superclass>  (1409) 
Flavonoids

>  <np_classifier_class>  (1409) 
Chalcones

>  <np_classifier_is_glycoside>  (1409) 
False

>  <organisms>  (1409) 
Neoraputia magnifica

>  <collections>  (1409) 
KNApSaCK|Latin America dataset|NPEdia|NuBBEDB|WikiData Natural Products|ZINC NP

>  <dois>  (1409) 
10.1016/S0031-9422(00)00248-X|10.1211/JPP.61.02.0017

>  <synonyms>  (1409) 
nan

>  <cas>  (1409) 
nan

$$$$

     RDKit          2D

 22 24  0  0  0  0  0  0  0  0999 V2000
   -4.1005    2.1034    0.0000 C   0  0  0  0  0  0  0  0  0  0  0  0
   -4.4380    0.6418    0.0000 C   0  0  0  0  0  0  0  0  0  0  0  0
   -3.3410   -0.3812    0.0000 C   0  0  0  0  0  0  0  0  0  0  0  0
   -4.5390   -1.2839    0.0000 C   0  0  0  0  0  0  0  0  0  0  0  0
   -2.5240    0.8767    0.0000 C   0  0  0  0  0  0  0  0  0  0  0  0
   -1.0261    0.7982    0.0000 C   0  0  0  0  0  0  0  0  0  0  0  0
   -0.3451   -0.5384    0.0000 C   0  0  0  0  0  0  0  0  0  0  0  0
   -1.1622   -1.7963    0.0000 C   0  0  0  0  0  0  0  0  0  0  0  0
   -0.4812   -3.1329    0.0000 O   0  0  0  0  0  0  0  0  0  0  0  0
   -2.6601   -1.7178    0.0000 C   0  0  0  0  0  0  0  0  0  0  0  0
    1.1528   -0.6170    0.0000 C   0  0  0  0  0  0  0  0  0  0  0  0
    0.3358   -1.8749    0.0000 C   0  0  0  0  0  0  0  0  0  0  0  0
    1.8337   -1.9535    0.0000 C   0  0  0  0  0  0  0  0  0  0  0  0
    3.3317   -2.0321    0.0000 C   0  0  0  0  0  0  0  0  0  0  0  0
    4.1487   -0.7741    0.0000 C   0  0  0  0  0  0  0  0  0  0  0  0
    3.4678    0.5624    0.0000 C   0  0  0  0  0  0  0  0  0  0  0  0
    3.2850    2.0513    0.0000 C   0  0  0  0  0  0  0  0  0  0  0  0
    4.9022    1.0009    0.0000 C   0  0  0  0  0  0  0  0  0  0  0  0
    1.9698    0.6410    0.0000 C   0  0  0  0  0  0  0  0  0  0  0  0
    1.2889    1.9776    0.0000 C   0  0  0  0  0  0  0  0  0  0  0  0
   -0.2090    2.0561    0.0000 C   0  0  0  0  0  0  0  0  0  0  0  0
   -0.8900    3.3927    0.0000 O   0  0  0  0  0  0  0  0  0  0  0  0
  1  2  2  0
  2  3  1  0
  3  4  1  1
  3  5  1  0
  5  6  1  0
  6  7  2  0
  7  8  1  0
  8  9  1  1
  8 10  1  0
  7 11  1  0
 11 12  1  1
 11 13  1  0
 13 14  1  0
 14 15  1  0
 15 16  1  0
 16 17  1  0
 16 18  1  0
 16 19  1  0
 19 20  1  1
 20 21  1  0
 21 22  2  0
 10  3  1  0
 19 11  1  0
 21  6  1  0
M  END
>  <identifier>  (1410) 
CNP0144100.1

>  <canonical_smiles>  (1410) 
C=C[C@]1(C)CC2=C([C@@H](O)C1)[C@@]1(C)CCCC(C)(C)[C@@H]1CC2=O

>  <standard_inchi>  (1410) 
InChI=1S/C20H30O2/c1-6-19(4)11-13-14(21)10-16-18(2,3)8-7-9-20(16,5)17(13)15(22)12-19/h6,15-16,22H,1,7-12H2,2-5H3/t15-,16-,19+,20-/m0/s1

>  <standard_inchi_key>  (1410) 
JWCQQFALQCNQGI-FEHORTKBSA-N

>  <name>  (1410) 
nan

>  <iupac_name>  (1410) 
(4~{a}~{S},5~{S},7~{R},10~{a}~{S})-5-hydroxy-1,1,4~{a},7-tetramethyl-7-vinyl-2,3,4,5,6,8,10,10~{a}-octahydrophenanthren-9-one

>  <annotation_level>  (1410) 
4

>  <total_atom_count>  (1410) 
52

>  <heavy_atom_count>  (1410) 
22

>  <molecular_weight>  (1410) 
302.46

>  <exact_molecular_weight>  (1410) 
302.22458

>  <molecular_formula>  (1410) 
C20H30O2

>  <alogp>  (1410) 
4.44

>  <topological_polar_surface_area>  (1410) 
37.30

>  <rotatable_bond_count>  (1410) 
1

>  <hydrogen_bond_acceptors>  (1410) 
2

>  <hydrogen_bond_donors>  (1410) 
1

>  <hydrogen_bond_acceptors_lipinski>  (1410) 
2

>  <hydrogen_bond_donors_lipinski>  (1410) 
1

>  <lipinski_rule_of_five_violations>  (1410) 
0

>  <aromatic_rings_count>  (1410) 
0

>  <qed_drug_likeliness>  (1410) 
0.73

>  <formal_charge>  (1410) 
0

>  <fractioncsp3>  (1410) 
0.75

>  <number_of_minimal_rings>  (1410) 
3

>  <van_der_walls_volume>  (1410) 
nan

>  <contains_sugar>  (1410) 
False

>  <contains_ring_sugars>  (1410) 
False

>  <contains_linear_sugars>  (1410) 
False

>  <murcko_framework>  (1410) 
C12=C(CCCC1)C3CCCCC3CC2

>  <np_likeness>  (1410) 
3.24

>  <chemical_class>  (1410) 
Prenol lipids

>  <chemical_sub_class>  (1410) 
Diterpenoids

>  <chemical_super_class>  (1410) 
Lipids and lipid-like molecules

>  <direct_parent_classification>  (1410) 
Diterpenoids

>  <np_classifier_pathway>  (1410) 
Terpenoids

>  <np_classifier_superclass>  (1410) 
Diterpenoids

>  <np_classifier_class>  (1410) 
Norpimarane and Norisopimarane diterpenoids

>  <np_classifier_is_glycoside>  (1410) 
False

>  <organisms>  (1410) 
Vellozia compacta

>  <collections>  (1410) 
Latin America dataset|NuBBEDB|Super Natural II|WikiData Natural Products|ZINC NP

>  <dois>  (1410) 
10.1016/0031-9422(83)80034-X

>  <synonyms>  (1410) 
11\u221a\u00e9\u00ac\u2264-hydroxy-7-oxopimar-8(9)15-diene

>  <cas>  (1410) 
nan

$$$$

     RDKit          2D

 35 38  0  0  0  0  0  0  0  0999 V2000
   10.3713   -0.7221    0.0000 C   0  0  0  0  0  0  0  0  0  0  0  0
    9.2501   -1.7186    0.0000 O   0  0  0  0  0  0  0  0  0  0  0  0
    7.8265   -1.2460    0.0000 C   0  0  0  0  0  0  0  0  0  0  0  0
    7.5241    0.2232    0.0000 O   0  0  0  0  0  0  0  0  0  0  0  0
    6.7054   -2.2425    0.0000 C   0  0  0  0  0  0  0  0  0  0  0  0
    7.0079   -3.7117    0.0000 C   0  0  0  0  0  0  0  0  0  0  0  0
    5.2818   -1.7699    0.0000 C   0  0  0  0  0  0  0  0  0  0  0  0
    4.9794   -0.3007    0.0000 C   0  0  0  0  0  0  0  0  0  0  0  0
    3.5558    0.1720    0.0000 C   0  0  0  0  0  0  0  0  0  0  0  0
    3.2533    1.6412    0.0000 C   0  0  0  0  0  0  0  0  0  0  0  0
    4.3745    2.6377    0.0000 C   0  0  0  0  0  0  0  0  0  0  0  0
    1.8298    2.1138    0.0000 C   0  0  0  0  0  0  0  0  0  0  0  0
    1.3754    3.5434    0.0000 C   0  0  0  0  0  0  0  0  0  0  0  0
   -0.1246    3.5530    0.0000 C   0  0  0  0  0  0  0  0  0  0  0  0
   -0.5972    2.1294    0.0000 C   0  0  0  0  0  0  0  0  0  0  0  0
   -1.7055    3.1402    0.0000 C   0  0  0  0  0  0  0  0  0  0  0  0
   -1.9714    1.5281    0.0000 C   0  0  0  0  0  0  0  0  0  0  0  0
   -3.1793    2.4175    0.0000 C   0  0  0  0  0  0  0  0  0  0  0  0
   -4.5535    1.8162    0.0000 C   0  0  0  0  0  0  0  0  0  0  0  0
   -4.7199    0.3255    0.0000 C   0  0  0  0  0  0  0  0  0  0  0  0
   -6.0941   -0.2758    0.0000 C   0  0  0  0  0  0  0  0  0  0  0  0
   -7.5910   -0.3709    0.0000 C   0  0  0  0  0  0  0  0  0  0  0  0
   -6.4476    1.1819    0.0000 C   0  0  0  0  0  0  0  0  0  0  0  0
   -6.2604   -1.7666    0.0000 C   0  0  0  0  0  0  0  0  0  0  0  0
   -7.6346   -2.3679    0.0000 N   0  0  0  0  0  0  0  0  0  0  0  0
   -7.8010   -3.8586    0.0000 O   0  0  0  0  0  0  0  0  0  0  0  0
   -5.0526   -2.6560    0.0000 C   0  0  0  0  0  0  0  0  0  0  0  0
   -3.6784   -2.0547    0.0000 C   0  0  0  0  0  0  0  0  0  0  0  0
   -3.5120   -0.5640    0.0000 C   0  0  0  0  0  0  0  0  0  0  0  0
   -2.3042   -1.4534    0.0000 C   0  0  0  0  0  0  0  0  0  0  0  0
   -2.1378    0.0374    0.0000 C   0  0  0  0  0  0  0  0  0  0  0  0
   -0.9300   -0.8521    0.0000 C   0  0  0  0  0  0  0  0  0  0  0  0
    0.4442   -0.2508    0.0000 C   0  0  0  0  0  0  0  0  0  0  0  0
    0.6106    1.2400    0.0000 C   0  0  0  0  0  0  0  0  0  0  0  0
    1.9048    0.4817    0.0000 C   0  0  0  0  0  0  0  0  0  0  0  0
  1  2  1  0
  2  3  1  0
  3  4  2  0
  3  5  1  0
  5  6  1  0
  5  7  2  0
  7  8  1  0
  8  9  1  0
  9 10  1  0
 10 11  1  1
 10 12  1  0
 12 13  1  1
 13 14  1  0
 14 15  1  0
 15 16  1  6
 15 17  1  0
 17 18  2  0
 18 19  1  0
 20 19  1  6
 20 21  1  0
 21 22  1  0
 21 23  1  0
 21 24  1  0
 24 25  2  3
 25 26  1  0
 24 27  1  0
 27 28  1  0
 28 29  1  0
 29 30  1  6
 29 31  1  0
 31 32  1  6
 32 33  1  0
 33 34  1  0
 34 35  1  1
 34 12  1  0
 34 15  1  0
 31 17  1  0
 29 20  1  0
M  END
>  <identifier>  (1411) 
CNP0080510.1

>  <canonical_smiles>  (1411) 
COC(=O)/C(C)=C\CC[C@H](C)[C@@H]1CC[C@]2(C)C3=CC[C@H]4C(C)(C)C(=NO)CC[C@]4(C)[C@H]3CC[C@@]12C

>  <standard_inchi>  (1411) 
InChI=1S/C31H49NO3/c1-20(10-9-11-21(2)27(33)35-8)22-14-18-31(7)24-12-13-25-28(3,4)26(32-34)16-17-29(25,5)23(24)15-19-30(22,31)6/h11-12,20,22-23,25,34H,9-10,13-19H2,1-8H3/b21-11-,32-26?/t20-,22-,23-,25-,29+,30-,31+/m0/s1

>  <standard_inchi_key>  (1411) 
OXWGTWVXLUZYDX-MUMDXYSJSA-N

>  <name>  (1411) 
nan

>  <iupac_name>  (1411) 
methyl (~{Z},6~{S})-6-[(5~{R},9~{R},10~{R},13~{S},14~{S},17~{S})-3-hydroxyimino-4,4,10,13,14-pentamethyl-1,2,5,6,9,11,12,15,16,17-decahydrocyclopenta[a]phenanthren-17-yl]-2-methyl-hept-2-enoate

>  <annotation_level>  (1411) 
4

>  <total_atom_count>  (1411) 
84

>  <heavy_atom_count>  (1411) 
35

>  <molecular_weight>  (1411) 
483.74

>  <exact_molecular_weight>  (1411) 
483.37124

>  <molecular_formula>  (1411) 
C31H49NO3

>  <alogp>  (1411) 
7.96

>  <topological_polar_surface_area>  (1411) 
58.89

>  <rotatable_bond_count>  (1411) 
5

>  <hydrogen_bond_acceptors>  (1411) 
4

>  <hydrogen_bond_donors>  (1411) 
1

>  <hydrogen_bond_acceptors_lipinski>  (1411) 
4

>  <hydrogen_bond_donors_lipinski>  (1411) 
1

>  <lipinski_rule_of_five_violations>  (1411) 
1

>  <aromatic_rings_count>  (1411) 
0

>  <qed_drug_likeliness>  (1411) 
0.14

>  <formal_charge>  (1411) 
0

>  <fractioncsp3>  (1411) 
0.81

>  <number_of_minimal_rings>  (1411) 
4

>  <van_der_walls_volume>  (1411) 
nan

>  <contains_sugar>  (1411) 
False

>  <contains_ring_sugars>  (1411) 
False

>  <contains_linear_sugars>  (1411) 
False

>  <murcko_framework>  (1411) 
C1=C2C3CCCC3CCC2C4CCCCC4C1

>  <np_likeness>  (1411) 
3.16

>  <chemical_class>  (1411) 
Prenol lipids

>  <chemical_sub_class>  (1411) 
Triterpenoids

>  <chemical_super_class>  (1411) 
Lipids and lipid-like molecules

>  <direct_parent_classification>  (1411) 
Triterpenoids

>  <np_classifier_pathway>  (1411) 
Terpenoids

>  <np_classifier_superclass>  (1411) 
Triterpenoids

>  <np_classifier_class>  (1411) 
Lanostane, Tirucallane and Euphane triterpenoids

>  <np_classifier_is_glycoside>  (1411) 
False

>  <organisms>  (1411) 
Schinus terebinthifolius

>  <collections>  (1411) 
Latin America dataset|NuBBEDB

>  <dois>  (1411) 
10.1002/cbdv.201400065

>  <synonyms>  (1411) 
(13\u221a\u00e9\u00ac\u00b114\u221a\u00e9\u00ac\u226417\u221a\u00e9\u00ac\u00b120S24Z)-3-(hydroxyimino)-lanosta-724-dien-26-oic acid methyl ester

>  <cas>  (1411) 
nan

$$$$

     RDKit          2D

 21 24  0  0  0  0  0  0  0  0999 V2000
   -3.0930    2.6172    0.0000 C   0  0  0  0  0  0  0  0  0  0  0  0
   -3.1879    1.1203    0.0000 C   0  0  0  0  0  0  0  0  0  0  0  0
   -1.9389    0.2895    0.0000 C   0  0  0  0  0  0  0  0  0  0  0  0
   -2.0338   -1.2074    0.0000 C   0  0  0  0  0  0  0  0  0  0  0  0
   -3.2828   -0.3767    0.0000 C   0  0  0  0  0  0  0  0  0  0  0  0
   -3.1879    1.1203    0.0000 C   0  0  0  0  0  0  0  0  0  0  0  0
   -1.8440    1.7865    0.0000 N   0  0  0  0  0  0  0  0  0  0  0  0
   -1.7491    3.2835    0.0000 C   0  0  0  0  0  0  0  0  0  0  0  0
   -0.5950    0.9558    0.0000 C   0  0  0  0  0  0  0  0  0  0  0  0
    0.6540    0.1251    0.0000 C   0  0  0  0  0  0  0  0  0  0  0  0
    0.5590   -1.3719    0.0000 C   0  0  0  0  0  0  0  0  0  0  0  0
    1.9534   -1.9247    0.0000 N   0  0  0  0  0  0  0  0  0  0  0  0
    2.9101   -0.7694    0.0000 C   0  0  0  0  0  0  0  0  0  0  0  0
    4.4088   -0.7074    0.0000 C   0  0  0  0  0  0  0  0  0  0  0  0
    5.1044    0.6216    0.0000 C   0  0  0  0  0  0  0  0  0  0  0  0
    4.3013    1.8885    0.0000 C   0  0  0  0  0  0  0  0  0  0  0  0
    2.8026    1.8264    0.0000 C   0  0  0  0  0  0  0  0  0  0  0  0
    2.1070    0.4975    0.0000 C   0  0  0  0  0  0  0  0  0  0  0  0
   -0.7849   -2.0381    0.0000 C   0  0  0  0  0  0  0  0  0  0  0  0
   -0.8798   -3.5351    0.0000 C   0  0  0  0  0  0  0  0  0  0  0  0
   -2.2237   -4.2014    0.0000 O   0  0  0  0  0  0  0  0  0  0  0  0
  1  2  1  0
  2  3  1  0
  3  4  1  0
  4  5  1  6
  5  6  1  0
  6  7  1  0
  7  8  1  0
  9  7  1  1
  9 10  1  0
 10 11  2  0
 11 12  1  0
 12 13  1  0
 13 14  2  0
 14 15  1  0
 15 16  2  0
 16 17  1  0
 17 18  2  0
 11 19  1  0
 19 20  1  6
 20 21  1  0
  9  3  1  0
 18 10  1  0
 19  4  1  0
 18 13  1  0
M  END
>  <identifier>  (1412) 
CNP0107751.1

>  <canonical_smiles>  (1412) 
CCC1[C@H]2CCN(C)[C@H]1C1=C(NC3=CC=CC=C13)[C@@H]2CO

>  <standard_inchi>  (1412) 
InChI=1S/C18H24N2O/c1-3-11-12-8-9-20(2)18(11)16-13-6-4-5-7-15(13)19-17(16)14(12)10-21/h4-7,11-12,14,18-19,21H,3,8-10H2,1-2H3/t11?,12-,14-,18-/m1/s1

>  <standard_inchi_key>  (1412) 
NCTGHPUJALLKPV-YRNKAYPFSA-N

>  <name>  (1412) 
nan

>  <iupac_name>  (1412) 
[(1~{R},11~{R},12~{R})-16-ethyl-15-methyl-9,15-diazatetracyclo[10.3.1.0^{2,10}.0^{3,8}]hexadeca-2(10),3,5,7-tetraen-11-yl]methanol

>  <annotation_level>  (1412) 
4

>  <total_atom_count>  (1412) 
45

>  <heavy_atom_count>  (1412) 
21

>  <molecular_weight>  (1412) 
284.4

>  <exact_molecular_weight>  (1412) 
284.18886

>  <molecular_formula>  (1412) 
C18H24N2O

>  <alogp>  (1412) 
3.28

>  <topological_polar_surface_area>  (1412) 
39.26

>  <rotatable_bond_count>  (1412) 
2

>  <hydrogen_bond_acceptors>  (1412) 
2

>  <hydrogen_bond_donors>  (1412) 
2

>  <hydrogen_bond_acceptors_lipinski>  (1412) 
2

>  <hydrogen_bond_donors_lipinski>  (1412) 
2

>  <lipinski_rule_of_five_violations>  (1412) 
0

>  <aromatic_rings_count>  (1412) 
2

>  <qed_drug_likeliness>  (1412) 
0.89

>  <formal_charge>  (1412) 
0

>  <fractioncsp3>  (1412) 
0.56

>  <number_of_minimal_rings>  (1412) 
4

>  <van_der_walls_volume>  (1412) 
nan

>  <contains_sugar>  (1412) 
False

>  <contains_ring_sugars>  (1412) 
False

>  <contains_linear_sugars>  (1412) 
False

>  <murcko_framework>  (1412) 
c1ccc2c(c1)[nH]c3c2C4NCCC(C3)C4

>  <np_likeness>  (1412) 
0.97

>  <chemical_class>  (1412) 
Indoles and derivatives

>  <chemical_sub_class>  (1412) 
Carbazoles

>  <chemical_super_class>  (1412) 
Organoheterocyclic compounds

>  <direct_parent_classification>  (1412) 
Carbazoles

>  <np_classifier_pathway>  (1412) 
Alkaloids

>  <np_classifier_superclass>  (1412) 
Tryptophan alkaloids

>  <np_classifier_class>  (1412) 
Carboline alkaloids

>  <np_classifier_is_glycoside>  (1412) 
False

>  <organisms>  (1412) 
Aspidosperma formosanum

>  <collections>  (1412) 
Latin America dataset|NuBBEDB|WikiData Natural Products

>  <dois>  (1412) 
10.1016/S0031-9422(00)84426-X

>  <synonyms>  (1412) 
113-Dihydro-13-hydroxyuleine

>  <cas>  (1412) 
nan

$$$$

     RDKit          2D

 32 35  0  0  0  0  0  0  0  0999 V2000
    5.0334   -1.1218    0.0000 C   0  0  0  0  0  0  0  0  0  0  0  0
    4.2173    0.1368    0.0000 C   0  0  0  0  0  0  0  0  0  0  0  0
    2.7193    0.0593    0.0000 O   0  0  0  0  0  0  0  0  0  0  0  0
    1.9032    1.3179    0.0000 C   0  0  0  0  0  0  0  0  0  0  0  0
    0.4052    1.2404    0.0000 O   0  0  0  0  0  0  0  0  0  0  0  0
   -0.2767   -0.0956    0.0000 C   0  0  0  0  0  0  0  0  0  0  0  0
   -1.7747   -0.1731    0.0000 C   0  0  0  0  0  0  0  0  0  0  0  0
   -2.5908    1.0855    0.0000 C   0  0  0  0  0  0  0  0  0  0  0  0
   -1.9088    2.4216    0.0000 C   0  0  0  0  0  0  0  0  0  0  0  0
   -2.7249    3.6801    0.0000 C   0  0  0  0  0  0  0  0  0  0  0  0
   -4.2229    3.6027    0.0000 C   0  0  0  0  0  0  0  0  0  0  0  0
   -5.0390    4.8613    0.0000 O   0  0  0  0  0  0  0  0  0  0  0  0
   -4.9048    2.2666    0.0000 C   0  0  0  0  0  0  0  0  0  0  0  0
   -6.4028    2.1892    0.0000 O   0  0  0  0  0  0  0  0  0  0  0  0
   -4.0888    1.0081    0.0000 C   0  0  0  0  0  0  0  0  0  0  0  0
   -2.4566   -1.5091    0.0000 O   0  0  0  0  0  0  0  0  0  0  0  0
   -1.6405   -2.7677    0.0000 C   0  0  0  0  0  0  0  0  0  0  0  0
   -2.3224   -4.1037    0.0000 C   0  0  0  0  0  0  0  0  0  0  0  0
   -1.5064   -5.3623    0.0000 C   0  0  0  0  0  0  0  0  0  0  0  0
   -2.1883   -6.6983    0.0000 O   0  0  0  0  0  0  0  0  0  0  0  0
   -0.0084   -5.2848    0.0000 C   0  0  0  0  0  0  0  0  0  0  0  0
    0.6735   -3.9488    0.0000 C   0  0  0  0  0  0  0  0  0  0  0  0
    2.1715   -3.8713    0.0000 O   0  0  0  0  0  0  0  0  0  0  0  0
   -0.1425   -2.6902    0.0000 C   0  0  0  0  0  0  0  0  0  0  0  0
    0.5394   -1.3542    0.0000 C   0  0  0  0  0  0  0  0  0  0  0  0
    2.0374   -1.2767    0.0000 O   0  0  0  0  0  0  0  0  0  0  0  0
    2.5852    2.6539    0.0000 C   0  0  0  0  0  0  0  0  0  0  0  0
    1.7691    3.9125    0.0000 O   0  0  0  0  0  0  0  0  0  0  0  0
    4.0832    2.7314    0.0000 C   0  0  0  0  0  0  0  0  0  0  0  0
    4.7651    4.0674    0.0000 O   0  0  0  0  0  0  0  0  0  0  0  0
    4.8992    1.4728    0.0000 C   0  0  0  0  0  0  0  0  0  0  0  0
    6.3972    1.5502    0.0000 O   0  0  0  0  0  0  0  0  0  0  0  0
  2  1  1  6
  2  3  1  0
  3  4  1  0
  4  5  1  0
  5  6  1  0
  6  7  2  0
  7  8  1  0
  8  9  2  0
  9 10  1  0
 10 11  2  0
 11 12  1  0
 11 13  1  0
 13 14  1  0
 13 15  2  0
  7 16  1  0
 16 17  1  0
 17 18  2  0
 18 19  1  0
 19 20  1  0
 19 21  2  0
 21 22  1  0
 22 23  1  0
 22 24  2  0
 24 25  1  0
 25 26  2  0
  4 27  1  0
 27 28  1  6
 27 29  1  0
 29 30  1  1
 29 31  1  0
 31 32  1  1
 31  2  1  0
 25  6  1  0
 15  8  1  0
 24 17  1  0
M  END
>  <identifier>  (1413) 
CNP0171505.14

>  <canonical_smiles>  (1413) 
C[C@@H]1OC(OC2=C(C3=CC=C(O)C(O)=C3)OC3=CC(O)=CC(O)=C3C2=O)[C@H](O)[C@@H](O)[C@H]1O

>  <standard_inchi>  (1413) 
InChI=1S/C21H20O11/c1-7-15(26)17(28)18(29)21(30-7)32-20-16(27)14-12(25)5-9(22)6-13(14)31-19(20)8-2-3-10(23)11(24)4-8/h2-7,15,17-18,21-26,28-29H,1H3/t7-,15-,17-,18+,21?/m0/s1

>  <standard_inchi_key>  (1413) 
OXGUCUVFOIWWQJ-SGOLLJQNSA-N

>  <name>  (1413) 
nan

>  <iupac_name>  (1413) 
2-(3,4-dihydroxyphenyl)-5,7-dihydroxy-3-[(3~{R},4~{S},5~{R},6~{S})-3,4,5-trihydroxy-6-methyl-tetrahydropyran-2-yl]oxy-chromen-4-one

>  <annotation_level>  (1413) 
4

>  <total_atom_count>  (1413) 
52

>  <heavy_atom_count>  (1413) 
32

>  <molecular_weight>  (1413) 
448.38

>  <exact_molecular_weight>  (1413) 
448.10056

>  <molecular_formula>  (1413) 
C21H20O11

>  <alogp>  (1413) 
0.49

>  <topological_polar_surface_area>  (1413) 
190.28

>  <rotatable_bond_count>  (1413) 
3

>  <hydrogen_bond_acceptors>  (1413) 
11

>  <hydrogen_bond_donors>  (1413) 
7

>  <hydrogen_bond_acceptors_lipinski>  (1413) 
11

>  <hydrogen_bond_donors_lipinski>  (1413) 
7

>  <lipinski_rule_of_five_violations>  (1413) 
2

>  <aromatic_rings_count>  (1413) 
3

>  <qed_drug_likeliness>  (1413) 
0.28

>  <formal_charge>  (1413) 
0

>  <fractioncsp3>  (1413) 
0.29

>  <number_of_minimal_rings>  (1413) 
4

>  <van_der_walls_volume>  (1413) 
nan

>  <contains_sugar>  (1413) 
True

>  <contains_ring_sugars>  (1413) 
True

>  <contains_linear_sugars>  (1413) 
False

>  <murcko_framework>  (1413) 
O1c2ccccc2CC(OC3OCCCC3)=C1c4ccccc4

>  <np_likeness>  (1413) 
2.17

>  <chemical_class>  (1413) 
Flavonoids

>  <chemical_sub_class>  (1413) 
Flavonoid glycosides

>  <chemical_super_class>  (1413) 
Phenylpropanoids and polyketides

>  <direct_parent_classification>  (1413) 
Flavonoid-3-O-glycosides

>  <np_classifier_pathway>  (1413) 
Shikimates and Phenylpropanoids

>  <np_classifier_superclass>  (1413) 
Flavonoids

>  <np_classifier_class>  (1413) 
Flavonols

>  <np_classifier_is_glycoside>  (1413) 
True

>  <organisms>  (1413) 
Euxylophora paraensis

>  <collections>  (1413) 
Latin America dataset|NuBBEDB

>  <dois>  (1413) 
10.1590/S0100-40422012001100004

>  <synonyms>  (1413) 
Quercetin-3-O-\u221a\u00e9\u00ac\u00b1-L-rhamnopyranoside

>  <cas>  (1413) 
nan

$$$$

     RDKit          2D

 10  9  0  0  0  0  0  0  0  0999 V2000
   -5.8514   -0.2717    0.0000 C   0  0  0  0  0  0  0  0  0  0  0  0
   -4.5393    0.4553    0.0000 C   0  0  0  0  0  0  0  0  0  0  0  0
   -3.2537   -0.3176    0.0000 C   0  0  0  0  0  0  0  0  0  0  0  0
   -1.9416    0.4094    0.0000 C   0  0  0  0  0  0  0  0  0  0  0  0
   -0.6560   -0.3635    0.0000 C   0  0  0  0  0  0  0  0  0  0  0  0
    0.6560    0.3635    0.0000 C   0  0  0  0  0  0  0  0  0  0  0  0
    1.9416   -0.4094    0.0000 C   0  0  0  0  0  0  0  0  0  0  0  0
    3.2537    0.3176    0.0000 C   0  0  0  0  0  0  0  0  0  0  0  0
    4.5393   -0.4553    0.0000 C   0  0  0  0  0  0  0  0  0  0  0  0
    5.8514    0.2717    0.0000 O   0  0  0  0  0  0  0  0  0  0  0  0
  1  2  1  0
  2  3  1  0
  3  4  1  0
  4  5  1  0
  5  6  1  0
  6  7  1  0
  7  8  1  0
  8  9  1  0
  9 10  2  0
M  END
>  <identifier>  (1414) 
CNP0328165.0

>  <canonical_smiles>  (1414) 
CCCCCCCCC=O

>  <standard_inchi>  (1414) 
InChI=1S/C9H18O/c1-2-3-4-5-6-7-8-9-10/h9H,2-8H2,1H3

>  <standard_inchi_key>  (1414) 
GYHFUZHODSMOHU-UHFFFAOYSA-N

>  <name>  (1414) 
NONANAL

>  <iupac_name>  (1414) 
nonanal

>  <annotation_level>  (1414) 
5

>  <total_atom_count>  (1414) 
28

>  <heavy_atom_count>  (1414) 
10

>  <molecular_weight>  (1414) 
142.24

>  <exact_molecular_weight>  (1414) 
142.13577

>  <molecular_formula>  (1414) 
C9H18O

>  <alogp>  (1414) 
2.94

>  <topological_polar_surface_area>  (1414) 
17.07

>  <rotatable_bond_count>  (1414) 
7

>  <hydrogen_bond_acceptors>  (1414) 
1

>  <hydrogen_bond_donors>  (1414) 
0

>  <hydrogen_bond_acceptors_lipinski>  (1414) 
1

>  <hydrogen_bond_donors_lipinski>  (1414) 
0

>  <lipinski_rule_of_five_violations>  (1414) 
0

>  <aromatic_rings_count>  (1414) 
0

>  <qed_drug_likeliness>  (1414) 
0.39

>  <formal_charge>  (1414) 
0

>  <fractioncsp3>  (1414) 
0.89

>  <number_of_minimal_rings>  (1414) 
0

>  <van_der_walls_volume>  (1414) 
164.33

>  <contains_sugar>  (1414) 
False

>  <contains_ring_sugars>  (1414) 
False

>  <contains_linear_sugars>  (1414) 
False

>  <murcko_framework>  (1414) 
nan

>  <np_likeness>  (1414) 
1.39

>  <chemical_class>  (1414) 
Organooxygen compounds

>  <chemical_sub_class>  (1414) 
Carbonyl compounds

>  <chemical_super_class>  (1414) 
Organic oxygen compounds

>  <direct_parent_classification>  (1414) 
Medium-chain aldehydes

>  <np_classifier_pathway>  (1414) 
Fatty acids

>  <np_classifier_superclass>  (1414) 
Fatty acyls

>  <np_classifier_class>  (1414) 
Fatty aldehydes

>  <np_classifier_is_glycoside>  (1414) 
False

>  <organisms>  (1414) 
Abrus pulchellus|Acacia howittii|Acca sellowiana|Aceriphyllum rossii|Acmella ciliata|Actaea dahurica|Actaea heracleifolia|Actaea simplex|Aesculus hippocastanum|Agnorhiza bolanderi|Aguacate|Ailanthus altissima|Akebia quinata|Akebia trifoliata|Alangium premnifolium|Alliaria petiolata|Alligator mississippiensis|Aloe africana|Aloe ferox|Aloe spicata|Aloe vera|Alpinia zerumbet|Alyssum argenteum|Anaxagorea clavata|Angelica sinensis|Angelica tarokoensis|Anthemis aciphylla|Anthemis aciphylla BOISS.var.discoidea BOISS|Araujia sericifera|Aria pallescens|Arnebia euchroma|Arnebia guttata|Arnica nevadensis|Artemisia argyi|Artemisia ludoviciana|Artemisia monogyna|Artemisia montana|Artemisia princeps|Arum maculatum|Astragalus membranaceus|Astragalus mongholicus|Astragalus trimestris|Atractylodes lancea|Atractylodes macrocephala|Avena sativa|Azadirachta indica|Basella alba|Bassia butyracea|Betula|Beyeria brevifolia|Bistorta manshuriensis|Bistorta officinalis|Bombax ceiba|Bragantia wallichii|Bulbophyllum variegatum|Bursaria spinosa|Cacumen tamaricis|Calamintha incana|Callitropsis nootkatensis|Camellia saluenensis|Camellia sinensis|Cannabis sativa|Capillipedium parviflorum|Capsella bursa-pastoris|Capsicum annuum|Carica papaya|Carthamus tinctorius|Carum carvi|Castanopsis cuspidata|Catha edulis|Centaurea oltensis|Centaurea sessilis|Ceraeochrysa smithi|Cerastium candidissimum|Ceratophyllum demersum|Chaenomeles sinensis|Chamomilla recutita|Chimonanthus praecox|Chloranthus tianmushanensis|Chresta sphaerocephala|Chromolaena odorata|Chromolaena pulchella|Chrysocephalum ambiguum|Cichorium endivia|Cimicifuga foetida|Cinnamomum zeylanicum|Cinnamon|Cistus creticus|Citrullus lanatus|Citrullus lanatus subsp. vulgaris|Citrus Sinensis|Citrus aurantiifolia|Citrus aurantium|Citrus grandis|Citrus hystrix|Citrus limon|Citrus maxima|Citrus medica|Citrus medica var. sarcodactylis|Citrus natsudaidai|Citrus paradisi|Citrus reticulata|Citrus sinensis|Citrus sinensis L.|Citrus trifoliata|Citrus unshiu|Citrus × deliciosa|Citrus × paradisi|Citrus ×iyo|Cladonia evansii|Clinopodium brevifolium|Clinopodium carolinianum|Clinopodium grandiflorum|Clinopodium insulare|Clonostachys rosea|Coccus fagi|Cocos nucifera|Colobocentrotus atratus|Combretum indicum|Coriandrum sativum|Cornulaca monacantha|Crataegus pinnatifida|Crocus sativus|Croton jimenezii|Cryptomeria japonica|Cucurbita maxima|Cyclotrichium niveum|Cynanchum stauntoni|Cynanchum stauntonii|Cynomorium songaricum|Cyperaceae|Daphne odora|Daucus carota|Delphinium andersoni|Dendrobium chrysanthum|Dendrobium fimbriatum var. oculatum|Dendrobium officinale|Dendrosenecio kilimanjari|Dianthus caryophyllus L.|Dictamnus albus|Diphasia angolensis|Dipterocarpus alatus|Drosera peltata|Echinops amplexicaulis|Epaltes gariepina|Ephedra sinica|Epimedium davidii|Erica manipuliflora|Eryngium expansum|Eryngium foetidum|Eryngium pandanifolium|Eryngium rostratum|Eryngium vesiculosum|Erysimum odoratum|Etlingera elatior|Eucheuma muricatum|Eupatorium cannabinum|Eupatorium chinense|Eupatorium fortunei|Eupatorium japonicum|Eupolyphaga sinensis|Eutypella scoparia|Evernia prunastri|Exodermis poria|Festuca arundinacea|Festuca rubra|Ficus carica|Ficus formosana|Flacourtia inermis|Flos mume|Fragaria|Fragaria ananassa|Fragaria x ananassa|Freesia hybrida|Fructus hippophae|Fructus syzygii|Fructus xanthii|Fructus xanthii sibirici|Frullania tamarisci|Fumana thymifolia|Fusarium gibbosum|Galenia africana|Ganoderma lucidum|Garcinia mangostana|Gardenia fosbergii|Glehnia littoralis|Globba malaccensis|Gnidia lamprantha|Gossypium herbaceum|Griffitharia pallescens|Gynandropsis gynandra|Hamamelis virginiana|Hansenia forbesii|Hansenia weberbaueriana|Hedgehog-shaped lip Bulbophyllum|Helichrysum ambiguum|Helichrysum odoratissimum|Hericium erinaceus|Heterotheca inuloides|Hippophae rhamnoides|Homo sapiens|Homo sapiens (Exhaled breath)|Homo sapiens (Skin)|Houttuynia cordata|Humulus lupulus|Hypericum perforatum|Ilex affinis|Ilex amara|Isodon japonicus|Isodon kameba|Isodon rubescens|Kaempferia pulchra|Knightia excelsa|Lactarius scrobiculatus|Laurencia distichophylla|Leea guineense|Leea guineensis|Leonurus glaucescens|Lepidium draba|Lithospermum erythrorhizon|Lobelia chinensis|Lycium barbarum|Lycium chinense|Lycopersicon Esculentum|Lycopersicon esculentum Mill.|Maba buxifolia|Magnolia officinalis|Mangifera indica|Manihot esculenta|Matricaria chamomilla|Melia azedarach|Melia azedarach var. toosendan|Melissa officinalis|Mentha arvensis|Mentha canadensis|Mentha longifolia|Mentha spicata|Microcitrus|Micromeria biflora|Micromeria myrtifolia|Micromeria pineolens|Mikania banisteriae|Mikania congesta|Mikania cordifolia|Mikania parviflora|Mimusops elengi|Morina persica|Mycobacterium bovis|Nelsonia campestris|Nelumbo nucifera|Nemalion vermiculare|Nepeta caesarea|Nerium oleander|Nidula candida|Odixia angusta|Oenanthe aquatica|Oldenlandia diffusa|Olea Europaea|Olea europaea|Ophiocoma scolopendrina|Oplopanax elatus|Origanum|Origanum vulgare|Ostericum grosseserratum|Paederia scandens|Panax ginseng|Panax notoginseng|Patrinia scabiosifolia|Patrinia villosa|Pelargonium endlicherianum|Pellia neesiana|Penicillium citreonigrum|Persea tolimanensis|Petasites albus|Petasites hybridus|Pheidole pallidula|Phlomis lanata|Pimenta racemosa|Pimpinella anisum|Pinellia ternata|Pinus sabiniana|Pisonia aculeata|Pistacia vera|Platynereis dumerilii|Plumeria rubra|Podachaenium eminens|Poliothyrsis sinensis|Polygala senega|Prosopis glandulosa|Prunus Armeniaca|Prunus armeniaca L. (K113-40)|Prunus avium|Prunus dulcis|Prunus laurocerasus|Prunus persica|Prunus salcina Lindl. (Blackamber,Friar)|Pseudopterogorgia kallos|Psidium friedrichsthalianum|Pteris prolifera|Pterocarpus grandiflorus|Pterocarpus indicus|Punica granatum|Pyrosoma giganteum|Quercus aegilops|Quercus agrifolia|Quercus sessiliflora|Rabdosia rubescens|Rhizobium phaseoli|Rhodiola rosea|Rhodiola rosea L.|Rhus coriaria|Rosmarinus officinalis|Ruta angustifolia|Ruta graveolens|Sagittaria sagittifolia|Salacia madagascariensis|Salvia absconditiflora|Salvia caespitosa|Salvia officinalis|Salvia sclarea|Salvia syriaca|Satureja wiedemanniana|Saussurea carthamoides|Scaligeria lazica|Schisandra chinensis|Scutellaria barbata|Scytosiphon lomentaria|Securidaca inappendiculata|Semen astragali complanati|Semen sesami|Senecio squalidus|Senna alexandrina|Seriphidium cinum|Sesbania punicea|Sideritis amasiaca|Sideritis athoa|Sideritis curvidens|Sideritis hispida|Sideritis lyciae|Sideroxylon crassipedicellatum|Simira eliezeriana|Siparuna thecaphora|Smallanthus maculatus|Solanum acaule|Solanum betaceum|Solanum lycopersicum|Solidago odora|Sophora flavescens|Sorbus aria|Sorbus pallescens|Sorghum bicolor|Spathiphyllum cannifolium|Spodoptera eridania|Spongiporus leucomallellus (Murril)|Stenostomum lucidum|Streptomyces|Streptomyces althioticus|Streptomyces griseovariabilis|Streptomyces sp. A0916|Swertia delavayi|Syncerus caffer|Tamarindus indica|Tanacetum annuum|Taxodium mucronatum|Teucrium montanum|Teucrium pseudoscorodonia|Teucrium sandrasicum|Thlaspi arvense|Thymbra spicata|Thymus|Thymus longicaulis|Thymus thracicus|Thymus willkommii|Thymus zygioides|Tordylium apulum|Trichosanthes kirilowii|Trifoliate orange|Trigonotis peduncularis|Triticum aestivum|Ula javanica|Vaccinium macrocarpon|Vaccinium vitis-idaea|Vallota purpurea|Vincetoxicum glaucescens|Vincetoxicum stauntonii|Vismia jefensis|Vitex madiensis|Vitex negundo|Vitis vinifera|Vogtia annua|Xanthocyparis nootkatensis|Zanthoxylum bungeanum|Zanthoxylum piperitum|Zanthoxylum schinifolium|Zea mays|Zingiber mioga|Zingiber officinale|asparagus|bellis perennis|giraffe|maize|pomegranate|pomelo|potato|rooibos|tomato|watermelon

>  <collections>  (1414) 
ANPDB|Australian natural products|CMAUP (cCollective molecular activities of useful plants)|ChEBI NPs|EMNPD|FooDB|KNApSaCK|Latin America dataset|Mitishamba database|NANPDB (Natural Products from Northern African Sources)|NAPRORE-CR|NPASS|NPDBEjeCol|NuBBEDB|Phyto4Health|StreptomeDB|Super Natural II|TCMDB-Taiwan (Traditional Chinese Medicine database)|TCMID (Traditional Chinese Medicine Integrated Database)|TIPdb (database of Taiwan indigenous plants)|UNPD (Universal Natural Products Database)|VietHerb|Watermelon|WikiData Natural Products|ZINC NP

>  <dois>  (1414) 
10.1002/1099-1026(200005/06)15:3<182::AID-FFJ888>3.0.CO;2-X|10.1002/CBDV.201800531|10.1002/FFJ.1248|10.1002/FFJ.1305|10.1002/FFJ.1588|10.1002/FFJ.2730050205|10.1002/FFJ.2730070108|10.1002/FFJ.2730100408|10.1002/JEZ.1402460308|10.1002/JPS.3080240509|10.1002/JSFA.8889|10.1002/JSSC.200900378|10.1007/BF02236421|10.1007/BF02866639|10.1007/S00709-019-01372-4|10.1007/S10886-013-0311-2|10.1016/0031-9422(82)80025-3|10.1016/0031-9422(91)83632-U|10.1016/0031-9422(91)84185-U|10.1016/0031-9422(91)85017-T|10.1016/0031-9422(92)83136-M|10.1016/0031-9422(95)00183-8|10.1016/0305-1978(95)00026-Q|10.1016/0305-1978(96)00016-6|10.1016/0889-1575(91)90017-Z|10.1016/J.CHROMA.2014.10.058|10.1016/J.COLSURFB.2005.05.003|10.1016/J.FOODCHEM.2008.09.107|10.1016/J.FOODCHEM.2012.09.111|10.1016/J.JPBA.2008.08.004|10.1016/J.LWT.2008.09.015|10.1016/J.LWT.2018.05.011|10.1016/J.PHYTOCHEM.2004.04.003|10.1016/J.PHYTOCHEM.2004.08.014|10.1016/J.PHYTOCHEM.2005.04.006|10.1016/J.PHYTOCHEM.2005.10.025|10.1016/J.PHYTOCHEM.2009.06.013|10.1016/J.PHYTOCHEM.2011.09.002|10.1016/S0031-9422(00)80558-0|10.1016/S0031-9422(00)82634-5|10.1016/S0031-9422(00)84047-9|10.1016/S0031-9422(00)84973-0|10.1016/S0031-9422(00)85772-6|10.1016/S0031-9422(02)00004-3|10.1016/S0031-9422(97)00730-9|10.1016/S0031-9422(98)00022-3|10.1016/S0031-9422(98)00507-X|10.1016/S0305-1978(02)00037-6|10.1016/S1875-5364(16)60004-3|10.1016/j.lwt.2023.115213|10.1017/S0266467411000411|10.1021/ACS.JAFC.9B05174|10.1021/JF00035A029|10.1021/JF00055A023|10.1021/JF00059A031|10.1021/JF00062A024|10.1021/JF00068A014|10.1021/JF00073A014|10.1021/JF00094A032|10.1021/JF00112A045|10.1021/JF0402633|10.1021/JF60160A012|10.1021/JF60198A031|10.1021/JF60201A022|10.1021/JF60218A022|10.1021/JF60218A031|10.1021/JF60224A025|10.1021/JF60228A025|10.1021/JF60230A020|10.1021/JF950540T|10.1021/JF990019P|10.1021/JF990514L|10.1021/NP50008A001|10.1021/NP50053A034|10.1021/jf011456i|10.1023/A:1015205716921|10.1055/S-0028-1097637|10.1055/S-2000-8631|10.1055/S-2006-957420|10.1055/S-2006-957552|10.1055/S-2006-959542|10.1055/S-2006-959580|10.1055/S-2006-959714|10.1055/S-2006-960032|10.1055/S-2006-960872|10.1055/S-2007-969599|10.1073/PNAS.93.8.3280|10.1076/1388-0209(200004)3821-1FT106|10.1076/PHBI.35.3.218.13295|10.1076/PHBI.40.4.263.8465|10.1080/00021369.1987.10868496|10.1080/0972060X.2008.10643675|10.1080/0972060X.2014.895210|10.1080/10412905.1989.9697787|10.1080/10412905.1990.9697857|10.1080/10412905.1990.9697860|10.1080/10412905.1991.9697909|10.1080/10412905.1991.9697952|10.1080/10412905.1991.9697956|10.1080/10412905.1992.9698015|10.1080/10412905.1992.9698061|10.1080/10412905.1992.9698070|10.1080/10412905.1993.9698167|10.1080/10412905.1993.9698178|10.1080/10412905.1993.9698179|10.1080/10412905.1993.9698222|10.1080/10412905.1993.9698253|10.1080/10412905.1993.9698261|10.1080/10412905.1993.9698267|10.1080/10412905.1993.9698303|10.1080/10412905.1993.9698309|10.1080/10412905.1994.9698316|10.1080/10412905.1994.9698335|10.1080/10412905.1994.9698359|10.1080/10412905.1994.9698401|10.1080/10412905.1994.9698417|10.1080/10412905.1994.9698418|10.1080/10412905.1994.9698425|10.1080/10412905.1994.9698427|10.1080/10412905.1994.9699361|10.1080/10412905.1995.9698473|10.1080/10412905.1995.9698479|10.1080/10412905.1995.9698508|10.1080/10412905.1995.9698558|10.1080/10412905.1995.9700523|10.1080/10412905.1995.9700529|10.1080/10412905.1995.9700536|10.1080/10412905.1996.9700547|10.1080/10412905.1996.9700555|10.1080/10412905.1996.9700568|10.1080/10412905.1996.9701028|10.1080/10412905.1996.9701048|10.1080/10412905.1997.9700709|10.1080/10412905.1997.9700774|10.1080/10412905.1998.9700856|10.1080/10412905.1998.9700992|10.1080/10412905.2000.9712044|10.1080/10412905.2000.9712192|10.1080/10412905.2001.9699718|10.1080/10412905.2002.9699883|10.1080/10412905.2003.9698619|10.1080/10412905.2004.9698740|10.1080/10412905.2004.9698744|10.1080/10412905.2007.9699951|10.1080/10412905.2010.9700338|10.1080/10942912.2016.1155057|10.1080/14786411003792165|10.1088/1752-7155/8/1/014001|10.1155/2017/7436259|10.1186/1471-2229-14-140|10.1186/S12918-014-0134-Y|10.1186/s12918-014-0134-y|10.1248/CPB.54.222|10.1271/BBB1961.47.1841|10.1271/BBB1961.47.483|10.1271/BBB1961.48.2843|10.1271/BBB1961.49.3145|10.1271/BBB1961.50.1039|10.1271/BBB1961.55.1655|10.1271/BBB1961.55.2571|10.1271/NOGEIKAGAKU1924.67.1185|10.14233/AJCHEM.2013.14346|10.1590/S0100-40422002000700009|10.1631/JZUS.B1200086|10.17660/ACTAHORTIC.1999.479.17|10.17660/ACTAHORTIC.2005.679.1|10.17678/BEUSCITECH.348447|10.2503/JJSHS.53.141|10.3390/MOLECULES13030488|10.3390/MOLECULES13061333|10.3390/MOLECULES200610298|10.3390/MOLECULES21060814|10.3390/MOLECULES21111576|10.3390/MOLECULES24112053|10.3891/ACTA.CHEM.SCAND.21-0945|10.3891/ACTA.CHEM.SCAND.21-2076|10.7235/HORT.2013.12200

>  <synonyms>  (1414) 
1-Nonanal|124-19-6|2L2WBY9K6T|4-01-00-03352 (Beilstein Handbook Reference)|75718-12-6|AI3-04859|AKOS009158987|AMY15728|Aldehyde C-9|Aldehyde C9, Nonyl aldehyde, Pelargonaldehyde|BP-31179|BRN 1236701|C-9 aldehyde|C9 ALDEHYDE|C9-11 Aldehydes|CAS-124-19-6|CCRIS 664|CHEBI:84268|CHEMBL2228376|CS-0138979|DB-041769|DTXCID801639|DTXSID9021639|EC 204-688-5|EINECS 204-688-5|EINECS 278-296-8|EN300-135251|FEMA No. 2782|FS-3913|HSDB 7229|HY-N8016|J-005053|LMFA06000040|MFCD00007030|N-NONANAL [FHFI]|N0296|NCGC00257442-01|NCI-C61018|NONANAL [FCC]|NONANAL [HSDB]|NONYL ALDEHYDE,N-|NS00008804|NSC 5518|NSC-5518|Nonanal|Nonanal, 95%|Nonanal, >=95%, FCC|Nonanal, analytical standard|Nonanal, natural, >=98%, FG|Nonanaldehyde|Nonanoic aldehyde|Nonyl aldehyde|Nonyl aldehyde, n-|Pelargonaldehyde|Q419668|QSPL 015|SCHEMBL22860|SCHEMBL8876408|SY016777|Tox21_303603|UNII-2L2WBY9K6T|WLN: VH8|n-NONYL ALDEHYDE|n-Nonaldehyde|n-Nonan-1-al|n-Nonanal|n-nonanal|non-aldehyde|nonanal

>  <cas>  (1414) 
124-19-6|75718-12-6

$$$$

     RDKit          2D

 28 30  0  0  0  0  0  0  0  0999 V2000
    7.5570   -2.2322    0.0000 C   0  0  0  0  0  0  0  0  0  0  0  0
    6.1730   -1.6538    0.0000 C   0  0  0  0  0  0  0  0  0  0  0  0
    5.9820   -0.1660    0.0000 C   0  0  0  0  0  0  0  0  0  0  0  0
    4.5980    0.4124    0.0000 C   0  0  0  0  0  0  0  0  0  0  0  0
    3.4050   -0.4970    0.0000 C   0  0  0  0  0  0  0  0  0  0  0  0
    2.0211    0.0815    0.0000 C   0  0  0  0  0  0  0  0  0  0  0  0
    2.0556   -1.4181    0.0000 O   0  0  0  0  0  0  0  0  0  0  0  0
    3.3715   -2.1381    0.0000 C   0  0  0  0  0  0  0  0  0  0  0  0
    1.8300    1.5693    0.0000 C   0  0  0  0  0  0  0  0  0  0  0  0
    3.0229    2.4786    0.0000 C   0  0  0  0  0  0  0  0  0  0  0  0
    4.4069    1.9002    0.0000 C   0  0  0  0  0  0  0  0  0  0  0  0
    5.5998    2.8095    0.0000 O   0  0  0  0  0  0  0  0  0  0  0  0
    0.3560    1.8473    0.0000 O   0  0  0  0  0  0  0  0  0  0  0  0
   -0.3639    0.5313    0.0000 C   0  0  0  0  0  0  0  0  0  0  0  0
   -1.8517    0.3403    0.0000 C   0  0  0  0  0  0  0  0  0  0  0  0
   -2.7611    1.5332    0.0000 C   0  0  0  0  0  0  0  0  0  0  0  0
   -4.2489    1.3421    0.0000 C   0  0  0  0  0  0  0  0  0  0  0  0
   -5.1582    2.5351    0.0000 O   0  0  0  0  0  0  0  0  0  0  0  0
   -4.5798    3.9190    0.0000 C   0  0  0  0  0  0  0  0  0  0  0  0
   -4.8273   -0.0419    0.0000 C   0  0  0  0  0  0  0  0  0  0  0  0
   -6.3151   -0.2329    0.0000 O   0  0  0  0  0  0  0  0  0  0  0  0
   -6.8935   -1.6169    0.0000 C   0  0  0  0  0  0  0  0  0  0  0  0
   -3.9179   -1.2348    0.0000 C   0  0  0  0  0  0  0  0  0  0  0  0
   -4.4964   -2.6188    0.0000 O   0  0  0  0  0  0  0  0  0  0  0  0
   -3.5870   -3.8117    0.0000 C   0  0  0  0  0  0  0  0  0  0  0  0
   -2.4301   -1.0437    0.0000 C   0  0  0  0  0  0  0  0  0  0  0  0
    0.6651   -0.5600    0.0000 C   0  0  0  0  0  0  0  0  0  0  0  0
    0.3871   -2.0340    0.0000 C   0  0  0  0  0  0  0  0  0  0  0  0
  1  2  2  0
  2  3  1  0
  3  4  1  0
  4  5  2  0
  5  6  1  0
  6  7  1  6
  7  8  1  0
  6  9  1  0
  9 10  2  0
 10 11  1  0
 11 12  2  0
  9 13  1  0
 13 14  1  0
 14 15  1  1
 15 16  2  0
 16 17  1  0
 17 18  1  0
 18 19  1  0
 17 20  2  0
 20 21  1  0
 21 22  1  0
 20 23  1  0
 23 24  1  0
 24 25  1  0
 23 26  2  0
 14 27  1  0
 27 28  1  6
 11  4  1  0
 26 15  1  0
 27  6  1  0
M  END
>  <identifier>  (1415) 
CNP0200881.1

>  <canonical_smiles>  (1415) 
C=CCC1=C[C@]2(OC)C(=CC1=O)O[C@H](C1=CC(OC)=C(OC)C(OC)=C1)[C@H]2C

>  <standard_inchi>  (1415) 
InChI=1S/C22H26O6/c1-7-8-14-12-22(27-6)13(2)20(28-19(22)11-16(14)23)15-9-17(24-3)21(26-5)18(10-15)25-4/h7,9-13,20H,1,8H2,2-6H3/t13-,20+,22-/m1/s1

>  <standard_inchi_key>  (1415) 
MRRHZTMSIVTFSK-ZTHZXAOBSA-N

>  <name>  (1415) 
nirandinA

>  <iupac_name>  (1415) 
(2~{S},3~{R},3~{a}~{R})-5-allyl-3~{a}-methoxy-3-methyl-2-(3,4,5-trimethoxyphenyl)-2,3-dihydrobenzofuran-6-one

>  <annotation_level>  (1415) 
5

>  <total_atom_count>  (1415) 
54

>  <heavy_atom_count>  (1415) 
28

>  <molecular_weight>  (1415) 
386.44

>  <exact_molecular_weight>  (1415) 
386.17294

>  <molecular_formula>  (1415) 
C22H26O6

>  <alogp>  (1415) 
3.77

>  <topological_polar_surface_area>  (1415) 
63.22

>  <rotatable_bond_count>  (1415) 
7

>  <hydrogen_bond_acceptors>  (1415) 
6

>  <hydrogen_bond_donors>  (1415) 
0

>  <hydrogen_bond_acceptors_lipinski>  (1415) 
6

>  <hydrogen_bond_donors_lipinski>  (1415) 
0

>  <lipinski_rule_of_five_violations>  (1415) 
0

>  <aromatic_rings_count>  (1415) 
1

>  <qed_drug_likeliness>  (1415) 
0.66

>  <formal_charge>  (1415) 
0

>  <fractioncsp3>  (1415) 
0.41

>  <number_of_minimal_rings>  (1415) 
3

>  <van_der_walls_volume>  (1415) 
356.58

>  <contains_sugar>  (1415) 
False

>  <contains_ring_sugars>  (1415) 
False

>  <contains_linear_sugars>  (1415) 
False

>  <murcko_framework>  (1415) 
O1C2=CCC=CC2CC1c3ccccc3

>  <np_likeness>  (1415) 
2.18

>  <chemical_class>  (1415) 
2-arylbenzofuran flavonoids

>  <chemical_sub_class>  (1415) 
2-arylbenzofuran flavonoids

>  <chemical_super_class>  (1415) 
Phenylpropanoids and polyketides

>  <direct_parent_classification>  (1415) 
2-arylbenzofuran flavonoids

>  <np_classifier_pathway>  (1415) 
Shikimates and Phenylpropanoids

>  <np_classifier_superclass>  (1415) 
Lignans

>  <np_classifier_class>  (1415) 
Neolignans

>  <np_classifier_is_glycoside>  (1415) 
False

>  <organisms>  (1415) 
Magnolia denudata|Nectandra miranda|Rhodostemonodaphne miranda

>  <collections>  (1415) 
KNApSaCK|Latin America dataset|NuBBEDB|Super Natural II|TCMDB-Taiwan (Traditional Chinese Medicine database)|WikiData Natural Products|ZINC NP

>  <dois>  (1415) 
10.1016/0031-9422(82)83163-4|10.1016/S0031-9422(00)89245-6|10.1248/CPB.48.832

>  <synonyms>  (1415) 
(2S,3R,3aR)-3a-methoxy-3-methyl-5-prop-2-enyl-2-(3,4,5-trimethoxyphenyl)-2,3-dihydro-1-benzofuran-6-one|62163-24-0|AKOS032961876|Mirandin B|Nirandin A

>  <cas>  (1415) 
nan

$$$$

     RDKit          2D

 32 35  0  0  0  0  0  0  0  0999 V2000
   -8.8912   -0.2172    0.0000 C   0  0  0  0  0  0  0  0  0  0  0  0
   -7.3956   -0.1016    0.0000 C   0  0  0  0  0  0  0  0  0  0  0  0
   -6.5478   -1.3390    0.0000 C   0  0  0  0  0  0  0  0  0  0  0  0
   -7.1955   -2.6920    0.0000 C   0  0  0  0  0  0  0  0  0  0  0  0
   -5.0522   -1.2234    0.0000 C   0  0  0  0  0  0  0  0  0  0  0  0
   -4.4046    0.1295    0.0000 C   0  0  0  0  0  0  0  0  0  0  0  0
   -2.9090    0.2451    0.0000 C   0  0  0  0  0  0  0  0  0  0  0  0
   -2.2613    1.5980    0.0000 C   0  0  0  0  0  0  0  0  0  0  0  0
   -0.7658    1.7136    0.0000 C   0  0  0  0  0  0  0  0  0  0  0  0
   -0.1181    3.0666    0.0000 C   0  0  0  0  0  0  0  0  0  0  0  0
   -0.9659    4.3040    0.0000 Cl  0  0  0  0  0  0  0  0  0  0  0  0
    1.3775    3.1821    0.0000 C   0  0  0  0  0  0  0  0  0  0  0  0
    2.0251    4.5351    0.0000 O   0  0  0  0  0  0  0  0  0  0  0  0
    2.2253    1.9447    0.0000 C   0  0  0  0  0  0  0  0  0  0  0  0
    3.0109    3.2226    0.0000 C   0  0  0  0  0  0  0  0  0  0  0  0
    3.7122    1.7468    0.0000 O   0  0  0  0  0  0  0  0  0  0  0  0
    3.9834    0.2716    0.0000 C   0  0  0  0  0  0  0  0  0  0  0  0
    5.3364   -0.3761    0.0000 O   0  0  0  0  0  0  0  0  0  0  0  0
    2.6642   -0.4423    0.0000 C   0  0  0  0  0  0  0  0  0  0  0  0
    1.8375   -1.8643    0.0000 C   0  0  0  0  0  0  0  0  0  0  0  0
    2.7540   -3.0517    0.0000 C   0  0  0  0  0  0  0  0  0  0  0  0
    2.1838   -4.4391    0.0000 C   0  0  0  0  0  0  0  0  0  0  0  0
    4.2406   -2.8517    0.0000 C   0  0  0  0  0  0  0  0  0  0  0  0
    5.1570   -4.0392    0.0000 C   0  0  0  0  0  0  0  0  0  0  0  0
    4.8107   -1.4643    0.0000 O   0  0  0  0  0  0  0  0  0  0  0  0
    0.3509   -2.0642    0.0000 O   0  0  0  0  0  0  0  0  0  0  0  0
   -0.5656   -0.8768    0.0000 C   0  0  0  0  0  0  0  0  0  0  0  0
   -2.0612   -0.9923    0.0000 O   0  0  0  0  0  0  0  0  0  0  0  0
    0.0821    0.4762    0.0000 C   0  0  0  0  0  0  0  0  0  0  0  0
    0.7298    1.8292    0.0000 O   0  0  0  0  0  0  0  0  0  0  0  0
    1.5776    0.5918    0.0000 C   0  0  0  0  0  0  0  0  0  0  0  0
    1.0749   -0.8215    0.0000 O   0  0  0  0  0  0  0  0  0  0  0  0
  1  2  1  0
  2  3  1  0
  3  4  1  1
  3  5  1  0
  5  6  2  0
  6  7  1  0
  7  8  2  0
  8  9  1  0
  9 10  2  0
 10 11  1  0
 10 12  1  0
 12 13  2  0
 12 14  1  0
 14 15  1  6
 14 16  1  0
 16 17  1  0
 17 18  2  0
 17 19  1  0
 19 20  2  0
 20 21  1  0
 21 22  1  0
 21 23  1  0
 23 24  1  0
 23 25  1  0
 20 26  1  0
 26 27  1  0
 27 28  1  0
 27 29  1  0
 29 30  1  0
 29 31  1  0
 31 32  1  0
 28  7  1  0
 29  9  1  0
 31 14  1  0
 31 19  1  0
M  END
>  <identifier>  (1416) 
CNP0220844.1

>  <canonical_smiles>  (1416) 
CC[C@H](C)/C=C/C1=CC2=C(Cl)C(=O)[C@@]3(C)OC(=O)C4=C(C(C)C(C)O)OC(O1)C2(O)C43O

>  <standard_inchi>  (1416) 
InChI=1S/C23H27ClO8/c1-6-10(2)7-8-13-9-14-16(24)18(26)21(5)23(29)15(19(27)32-21)17(11(3)12(4)25)31-20(30-13)22(14,23)28/h7-12,20,25,28-29H,6H2,1-5H3/b8-7+/t10-,11?,12?,20?,21+,22?,23?/m0/s1

>  <standard_inchi_key>  (1416) 
MYEDOZFFLHARPQ-MDJFZDGJSA-N

>  <name>  (1416) 
Chaetoviridin I

>  <iupac_name>  (1416) 
(11~{S})-9-chloro-14,15-dihydroxy-2-(2-hydroxy-1-methyl-propyl)-11-methyl-6-[(~{E},3~{S})-3-methylpent-1-enyl]-3,5,12-trioxatetracyclo[6.5.2.0^{4,15}.0^{11,14}]pentadeca-1,6,8-triene-10,13-dione

>  <annotation_level>  (1416) 
5

>  <total_atom_count>  (1416) 
59

>  <heavy_atom_count>  (1416) 
32

>  <molecular_weight>  (1416) 
466.91

>  <exact_molecular_weight>  (1416) 
466.13945

>  <molecular_formula>  (1416) 
C23H27ClO8

>  <alogp>  (1416) 
1.98

>  <topological_polar_surface_area>  (1416) 
122.52

>  <rotatable_bond_count>  (1416) 
5

>  <hydrogen_bond_acceptors>  (1416) 
8

>  <hydrogen_bond_donors>  (1416) 
3

>  <hydrogen_bond_acceptors_lipinski>  (1416) 
8

>  <hydrogen_bond_donors_lipinski>  (1416) 
3

>  <lipinski_rule_of_five_violations>  (1416) 
0

>  <aromatic_rings_count>  (1416) 
0

>  <qed_drug_likeliness>  (1416) 
0.53

>  <formal_charge>  (1416) 
0

>  <fractioncsp3>  (1416) 
0.57

>  <number_of_minimal_rings>  (1416) 
4

>  <van_der_walls_volume>  (1416) 
397.59

>  <contains_sugar>  (1416) 
False

>  <contains_ring_sugars>  (1416) 
False

>  <contains_linear_sugars>  (1416) 
False

>  <murcko_framework>  (1416) 
O1C=CC2=CCC3OCC4=COC1C2C43

>  <np_likeness>  (1416) 
2.67

>  <chemical_class>  (1416) 
Furopyrans

>  <chemical_sub_class>  (1416) 
Furopyrans

>  <chemical_super_class>  (1416) 
Organoheterocyclic compounds

>  <direct_parent_classification>  (1416) 
Furopyrans

>  <np_classifier_pathway>  (1416) 
Polyketides

>  <np_classifier_superclass>  (1416) 
Chromanes

>  <np_classifier_class>  (1416) 
Azaphilones

>  <np_classifier_is_glycoside>  (1416) 
False

>  <organisms>  (1416) 
Chaetomium globosum

>  <collections>  (1416) 
ChEBI NPs|Latin America dataset|NuBBEDB

>  <dois>  (1416) 
10.1021/np200110f

>  <synonyms>  (1416) 
(9aS)-8-chloro-9b,9c-dihydroxy-3-(3-hydroxybutan-2-yl)-9a-methyl-6-[(1E,3S)-3-methylpent-1-en-1-yl]-4a,9a,9b,9c-tetrahydro-2H,9H-furo[4,3,2-de]pyrano[4,3,2-ij]isochromene-2,9-dione|CHEBI:67621|CHEMBL1802160|Q27136088|chaetoviridin I

>  <cas>  (1416) 
nan

$$$$

     RDKit          2D

 32 35  0  0  0  0  0  0  0  0999 V2000
    3.3689   -1.6762    0.0000 C   0  0  0  0  0  0  0  0  0  0  0  0
    3.4287   -0.1774    0.0000 C   0  0  0  0  0  0  0  0  0  0  0  0
    4.7567    0.5202    0.0000 C   0  0  0  0  0  0  0  0  0  0  0  0
    6.0248   -0.2810    0.0000 C   0  0  0  0  0  0  0  0  0  0  0  0
    7.3527    0.4167    0.0000 C   0  0  0  0  0  0  0  0  0  0  0  0
    8.6208   -0.3845    0.0000 C   0  0  0  0  0  0  0  0  0  0  0  0
    8.5610   -1.8833    0.0000 C   0  0  0  0  0  0  0  0  0  0  0  0
    9.9487    0.3131    0.0000 C   0  0  0  0  0  0  0  0  0  0  0  0
   11.2168   -0.4881    0.0000 O   0  0  0  0  0  0  0  0  0  0  0  0
    2.1606    0.6238    0.0000 C   0  0  0  0  0  0  0  0  0  0  0  0
    2.0634    2.1207    0.0000 C   0  0  0  0  0  0  0  0  0  0  0  0
    0.6098    2.4908    0.0000 C   0  0  0  0  0  0  0  0  0  0  0  0
   -0.1914    1.2227    0.0000 C   0  0  0  0  0  0  0  0  0  0  0  0
   -1.0240    2.4704    0.0000 C   0  0  0  0  0  0  0  0  0  0  0  0
    0.7671    0.0688    0.0000 C   0  0  0  0  0  0  0  0  0  0  0  0
    0.2471   -1.3382    0.0000 C   0  0  0  0  0  0  0  0  0  0  0  0
   -1.2314   -1.5913    0.0000 C   0  0  0  0  0  0  0  0  0  0  0  0
   -2.1899   -0.4374    0.0000 C   0  0  0  0  0  0  0  0  0  0  0  0
   -3.6684   -0.6906    0.0000 C   0  0  0  0  0  0  0  0  0  0  0  0
   -2.7099   -1.8444    0.0000 C   0  0  0  0  0  0  0  0  0  0  0  0
   -4.1884   -2.0975    0.0000 C   0  0  0  0  0  0  0  0  0  0  0  0
   -5.6669   -2.3507    0.0000 C   0  0  0  0  0  0  0  0  0  0  0  0
   -6.6253   -1.1968    0.0000 C   0  0  0  0  0  0  0  0  0  0  0  0
   -8.1038   -1.4500    0.0000 O   0  0  0  0  0  0  0  0  0  0  0  0
   -6.1053    0.2101    0.0000 C   0  0  0  0  0  0  0  0  0  0  0  0
   -6.0979    1.7101    0.0000 C   0  0  0  0  0  0  0  0  0  0  0  0
   -7.5812    0.4780    0.0000 C   0  0  0  0  0  0  0  0  0  0  0  0
   -4.6268    0.4633    0.0000 C   0  0  0  0  0  0  0  0  0  0  0  0
   -4.1068    1.8702    0.0000 C   0  0  0  0  0  0  0  0  0  0  0  0
   -2.6283    2.1234    0.0000 C   0  0  0  0  0  0  0  0  0  0  0  0
   -1.6699    0.9695    0.0000 C   0  0  0  0  0  0  0  0  0  0  0  0
   -0.7114   -0.1843    0.0000 C   0  0  0  0  0  0  0  0  0  0  0  0
  1  2  2  0
  2  3  1  0
  3  4  1  0
  4  5  1  0
  5  6  2  0
  6  7  1  0
  6  8  1  0
  8  9  2  0
 10  2  1  6
 10 11  1  0
 11 12  1  0
 12 13  1  0
 13 14  1  1
 13 15  1  0
 15 16  1  1
 16 17  1  0
 18 17  1  6
 18 19  1  0
 19 20  1  6
 19 21  1  0
 21 22  1  0
 22 23  1  0
 23 24  2  0
 23 25  1  0
 25 26  1  0
 25 27  1  0
 25 28  1  0
 28 29  1  6
 29 30  1  0
 30 31  1  0
 31 32  1  6
 15 10  1  0
 31 18  1  0
 31 13  1  0
 28 19  1  0
M  END
>  <identifier>  (1417) 
CNP0282760.1

>  <canonical_smiles>  (1417) 
C=C(CC/C=C(\C)C=O)[C@H]1CC[C@]2(C)[C@@H]1CC[C@@H]1[C@@]3(C)CCC(=O)C(C)(C)[C@@H]3CC[C@]12C

>  <standard_inchi>  (1417) 
InChI=1S/C30H46O2/c1-20(19-31)9-8-10-21(2)22-13-17-29(6)23(22)11-12-25-28(5)16-15-26(32)27(3,4)24(28)14-18-30(25,29)7/h9,19,22-25H,2,8,10-18H2,1,3-7H3/b20-9+/t22-,23-,24+,25-,28+,29-,30-/m1/s1

>  <standard_inchi_key>  (1417) 
YUCYVZOBBNKHJW-PVWSWIFVSA-N

>  <name>  (1417) 
nan

>  <iupac_name>  (1417) 
(2~{E})-2-methyl-6-[(5~{R},8~{R},9~{R},10~{R},13~{R},14~{R},17~{S})-4,4,8,10,14-pentamethyl-3-oxo-1,2,5,6,7,9,11,12,13,15,16,17-dodecahydrocyclopenta[a]phenanthren-17-yl]hepta-2,6-dienal

>  <annotation_level>  (1417) 
4

>  <total_atom_count>  (1417) 
78

>  <heavy_atom_count>  (1417) 
32

>  <molecular_weight>  (1417) 
438.7

>  <exact_molecular_weight>  (1417) 
438.34978

>  <molecular_formula>  (1417) 
C30H46O2

>  <alogp>  (1417) 
7.72

>  <topological_polar_surface_area>  (1417) 
34.14

>  <rotatable_bond_count>  (1417) 
5

>  <hydrogen_bond_acceptors>  (1417) 
2

>  <hydrogen_bond_donors>  (1417) 
0

>  <hydrogen_bond_acceptors_lipinski>  (1417) 
2

>  <hydrogen_bond_donors_lipinski>  (1417) 
0

>  <lipinski_rule_of_five_violations>  (1417) 
1

>  <aromatic_rings_count>  (1417) 
0

>  <qed_drug_likeliness>  (1417) 
0.25

>  <formal_charge>  (1417) 
0

>  <fractioncsp3>  (1417) 
0.80

>  <number_of_minimal_rings>  (1417) 
4

>  <van_der_walls_volume>  (1417) 
nan

>  <contains_sugar>  (1417) 
False

>  <contains_ring_sugars>  (1417) 
False

>  <contains_linear_sugars>  (1417) 
False

>  <murcko_framework>  (1417) 
C1CCC2C(C1)CCC3C4CCCC4CCC23

>  <np_likeness>  (1417) 
3.16

>  <chemical_class>  (1417) 
Steroids and steroid derivatives

>  <chemical_sub_class>  (1417) 
Oxosteroids

>  <chemical_super_class>  (1417) 
Lipids and lipid-like molecules

>  <direct_parent_classification>  (1417) 
3-oxosteroids

>  <np_classifier_pathway>  (1417) 
Terpenoids

>  <np_classifier_superclass>  (1417) 
Triterpenoids

>  <np_classifier_class>  (1417) 
Dammarane and Protostane triterpenoids

>  <np_classifier_is_glycoside>  (1417) 
False

>  <organisms>  (1417) 
Dictyoloma vandellianum|Rapanea umbellata

>  <collections>  (1417) 
Latin America dataset|NuBBEDB|Super Natural II|WikiData Natural Products

>  <dois>  (1417) 
10.1016/0031-9422(92)80271-F

>  <synonyms>  (1417) 
24(E)-3-Oxo-dammara-2024-dien-26-al

>  <cas>  (1417) 
nan

$$$$

     RDKit          2D

 11 12  0  0  0  0  0  0  0  0999 V2000
   -0.9718   -1.5266    0.0000 C   0  0  0  0  0  0  0  0  0  0  0  0
    0.0244   -0.4052    0.0000 C   0  0  0  0  0  0  0  0  0  0  0  0
   -1.4624   -0.2066    0.0000 C   0  0  0  0  0  0  0  0  0  0  0  0
    1.2736   -1.2356    0.0000 C   0  0  0  0  0  0  0  0  0  0  0  0
    2.4494   -0.3042    0.0000 C   0  0  0  0  0  0  0  0  0  0  0  0
    1.9268    1.1019    0.0000 C   0  0  0  0  0  0  0  0  0  0  0  0
    0.4281    1.0394    0.0000 C   0  0  0  0  0  0  0  0  0  0  0  0
   -0.5033    2.2152    0.0000 C   0  0  0  0  0  0  0  0  0  0  0  0
   -0.7476    0.1080    0.0000 C   0  0  0  0  0  0  0  0  0  0  0  0
   -2.1923    0.5117    0.0000 O   0  0  0  0  0  0  0  0  0  0  0  0
   -0.2251   -1.2981    0.0000 C   0  0  0  0  0  0  0  0  0  0  0  0
  1  2  1  0
  2  3  1  0
  2  4  1  0
  4  5  1  6
  5  6  1  0
  6  7  1  0
  7  8  1  1
  7  9  1  0
  9 10  1  1
  9 11  1  0
  7  2  1  0
 11  4  1  0
M  END
>  <identifier>  (1418) 
CNP0259481.1

>  <canonical_smiles>  (1418) 
CC1(C)[C@@H]2CC[C@@]1(C)[C@H](O)C2

>  <standard_inchi>  (1418) 
InChI=1S/C10H18O/c1-9(2)7-4-5-10(9,3)8(11)6-7/h7-8,11H,4-6H2,1-3H3/t7-,8-,10+/m1/s1

>  <standard_inchi_key>  (1418) 
DTGKSKDOIYIVQL-MRTMQBJTSA-N

>  <name>  (1418) 
Isoborneol

>  <iupac_name>  (1418) 
(1~{R},2~{R},4~{R})-1,7,7-trimethylnorbornan-2-ol

>  <annotation_level>  (1418) 
5

>  <total_atom_count>  (1418) 
29

>  <heavy_atom_count>  (1418) 
11

>  <molecular_weight>  (1418) 
154.25

>  <exact_molecular_weight>  (1418) 
154.13577

>  <molecular_formula>  (1418) 
C10H18O

>  <alogp>  (1418) 
2.19

>  <topological_polar_surface_area>  (1418) 
20.23

>  <rotatable_bond_count>  (1418) 
0

>  <hydrogen_bond_acceptors>  (1418) 
1

>  <hydrogen_bond_donors>  (1418) 
1

>  <hydrogen_bond_acceptors_lipinski>  (1418) 
1

>  <hydrogen_bond_donors_lipinski>  (1418) 
1

>  <lipinski_rule_of_five_violations>  (1418) 
0

>  <aromatic_rings_count>  (1418) 
0

>  <qed_drug_likeliness>  (1418) 
0.57

>  <formal_charge>  (1418) 
0

>  <fractioncsp3>  (1418) 
1.00

>  <number_of_minimal_rings>  (1418) 
2

>  <van_der_walls_volume>  (1418) 
162.47

>  <contains_sugar>  (1418) 
False

>  <contains_ring_sugars>  (1418) 
False

>  <contains_linear_sugars>  (1418) 
False

>  <murcko_framework>  (1418) 
C1CC2CCC1C2

>  <np_likeness>  (1418) 
2.54

>  <chemical_class>  (1418) 
Prenol lipids

>  <chemical_sub_class>  (1418) 
Monoterpenoids

>  <chemical_super_class>  (1418) 
Lipids and lipid-like molecules

>  <direct_parent_classification>  (1418) 
Bicyclic monoterpenoids

>  <np_classifier_pathway>  (1418) 
Terpenoids

>  <np_classifier_superclass>  (1418) 
Monoterpenoids

>  <np_classifier_class>  (1418) 
Camphane monoterpenoids

>  <np_classifier_is_glycoside>  (1418) 
False

>  <organisms>  (1418) 
Amomum longiligulare|Amomum villosum|Amomum xanthioides|Andropogon laniger|Artemisia Annua|Artemisia annua|Artemisia annua L.|Artemisia argyi|Artemisia herba-alba|Baccharis sarothroides|Capparis flavicans|Cinnamomum camphora|Cistus creticus|Citrus reticulata|Citrus × deliciosa|Clematis chinensis|Cnidium monnieri|Conocephalum conicum|Croton grewioides|Croton tiglium|Croton zehntneri|Curcuma Aeruginosa|Curcuma Aromatica|Curcuma Xanthorrhiza|Curcuma aeruginosa|Curcuma amada|Curcuma amanda Roxb|Curcuma aromatica|Curcuma kwangsiensis|Curcuma longa|Curcuma phaeocaulis|Curcuma wenyujin|Curcuma xanthorrhiza|Curcuma zedoaria|Cymbopogon Goeringii|Dryobalanops aromatica|Falcaria vulgaris|Fructus amomi|Hansenia weberbaueriana|Ipomoea hederacea|Lasioderma serricorne|Malus sieboldii|Melaleuca adnata|Micranthes stellaris|Ocotea austinii|Origanum vulgare|Oxytropis pseudoglandulosa|Paederia scandens|Pedicularis plicata|Peltigera venosa|Platycladus orientalis|Prunus salcina Lindl. (Blackamber)|Psidium friedrichsthalianum|Rabdosia flexicaulis|Radix smilacis|Rosmarinus officinalis|Salvia officinalis|Santolina chamaecyparissus|Santolina villosa|Scaphechinus mirabilis|Sonchus gummifer|Stephania hispidula|Umbilicaria spodochroa|Vaccaria hispanica|Valeriana officinalis|Xylosalsola richteri|Xyris semifuscata|Zingiber Officinale|Zingiber officinale

>  <collections>  (1418) 
Australian natural products|CMAUP (cCollective molecular activities of useful plants)|ETM (Ethiopian Traditional Medicine) DB|FooDB|KNApSaCK|Latin America dataset|NAPRORE-CR|NPASS|NuBBEDB|Phyto4Health|Super Natural II|TCMDB-Taiwan (Traditional Chinese Medicine database)|TIPdb (database of Taiwan indigenous plants)|VietHerb|WikiData Natural Products

>  <dois>  (1418) 
10.1002/(sici)1099-1026(199909/10)14:5<322::aid-ffj837>3.0.co;2-4|10.1016/0031-9422(88)83114-5|10.1016/J.FOODCHEM.2015.11.033|10.1016/J.PHYTOCHEM.2009.06.013|10.1016/S0031-9422(00)83762-0|10.1016/S0031-9422(97)00891-1|10.1021/JF040102Z|10.1021/JF60217A066|10.1021/jf011456i|10.1021/jf60217a066|10.1038/SREP46579|10.1080/0972060X.2008.10643675|10.1080/10412905.2000.9699524|10.1080/10412905.2001.9699608|10.1080/10412905.2007.9699946|10.1080/10412905.2012.747271|10.1080/10575630108041259

>  <synonyms>  (1418) 
(-)-(2R)-Isoborneol|(-)-Bornan-2-exo-ol|(-)-Isoborneol|(1R,2R,4R)-1,7,7-trimethylbicyclo[2.2.1]heptan-2-ol|1,7,7-Trimethylbicyclo|1,7,7-Trimethylbicyclo(2.2.1)heptan-2-ol, exo-|10334-13-1|124-76-5|1ST40230|2-Bornanol, exo-|2-Camphanol, exo-|2-exo-Bornyl alcohol|20U67Z994U|507-70-0|A828291|AI3-14113|AKOS028109482|BRN 4126091|BS-43851|Bicyclo(2.2.1)heptan-2-ol, 1,7,7-trimethyl-, exo-|Bicyclo[2.2.1]heptan-2-ol, 1,7,7-trimethyl-, (1R,2R,4R)-rel-|Bingpia|CAS-124-76-5|CHEMBL3560760|CS-0018324|DL-Isoborneol|DTGKSKDOIYIVQL-MRTMQBJTSA-N|DTXCID0022060|DTXSID2042060|EINECS 204-712-4|EN300-179986|EN300-760916|Exoborneol|FEMA 2158?|FEMA No. 2158|HSDB 2843|HY-N2004|ISOBORNEOL [FCC]|ISOBORNEOL [FHFI]|ISOBORNEOL [HSDB]|ISOBORNEOL [MI]|ISOBORNEOL,(+\/-)-|ISOBORNEOL,DL-|Isobomeol|Isoborneol|Isoborneol (1R,2R,4R)-form [MI]|Isoborneol, (-)-|Isoborneol, 95%|Isoborneol, >=95%, FG|Isoborneol, DL-|Isoborneol, analytical standard|Isobornyl alcohol|Isocamphol|J-005169|L88RA8N5EG|MFCD00074821|NCGC00255879-01|NSC 26350|NSC-26350|Q15644616|SCHEMBL115722|Tox21_301645|UNII-20U67Z994U|UNII-L88RA8N5EG|b-Camphol|exo-1,7,7-Trimethylbicyclo[2.2.1]heptan-2-ol|exo-2-Bornanol|exo-2-Camphanol|exo-2-Hydroxy-1,7,7-trimethylnorbornane

>  <cas>  (1418) 
124-76-5|10334-13-1|507-70-0

$$$$

     RDKit          2D

 31 35  0  0  0  0  0  0  0  0999 V2000
   -5.3515   -2.7279    0.0000 C   0  0  0  0  0  0  0  0  0  0  0  0
   -5.4789   -1.2333    0.0000 C   0  0  0  0  0  0  0  0  0  0  0  0
   -6.9287   -1.6183    0.0000 C   0  0  0  0  0  0  0  0  0  0  0  0
   -6.1098    0.1275    0.0000 C   0  0  0  0  0  0  0  0  0  0  0  0
   -5.2467    1.3543    0.0000 C   0  0  0  0  0  0  0  0  0  0  0  0
   -3.7527    1.2203    0.0000 C   0  0  0  0  0  0  0  0  0  0  0  0
   -4.3836    2.5811    0.0000 C   0  0  0  0  0  0  0  0  0  0  0  0
   -2.8896    2.4471    0.0000 C   0  0  0  0  0  0  0  0  0  0  0  0
   -1.3956    2.3130    0.0000 C   0  0  0  0  0  0  0  0  0  0  0  0
   -0.7647    0.9522    0.0000 C   0  0  0  0  0  0  0  0  0  0  0  0
    0.7293    0.8181    0.0000 C   0  0  0  0  0  0  0  0  0  0  0  0
    0.0984    2.1790    0.0000 C   0  0  0  0  0  0  0  0  0  0  0  0
    1.5924    2.0449    0.0000 C   0  0  0  0  0  0  0  0  0  0  0  0
    3.0864    1.9108    0.0000 C   0  0  0  0  0  0  0  0  0  0  0  0
    3.7173    0.5500    0.0000 C   0  0  0  0  0  0  0  0  0  0  0  0
    5.2113    0.4159    0.0000 C   0  0  0  0  0  0  0  0  0  0  0  0
    6.6610    0.8009    0.0000 C   0  0  0  0  0  0  0  0  0  0  0  0
    5.0838    1.9105    0.0000 C   0  0  0  0  0  0  0  0  0  0  0  0
    5.8421   -0.9450    0.0000 C   0  0  0  0  0  0  0  0  0  0  0  0
    7.3361   -1.0790    0.0000 O   0  0  0  0  0  0  0  0  0  0  0  0
    4.9790   -2.1718    0.0000 C   0  0  0  0  0  0  0  0  0  0  0  0
    3.4851   -2.0377    0.0000 C   0  0  0  0  0  0  0  0  0  0  0  0
    2.8542   -0.6768    0.0000 C   0  0  0  0  0  0  0  0  0  0  0  0
    1.9911   -1.9037    0.0000 C   0  0  0  0  0  0  0  0  0  0  0  0
    1.3602   -0.5428    0.0000 C   0  0  0  0  0  0  0  0  0  0  0  0
    0.4971   -1.7696    0.0000 C   0  0  0  0  0  0  0  0  0  0  0  0
   -0.9969   -1.6355    0.0000 C   0  0  0  0  0  0  0  0  0  0  0  0
   -1.6278   -0.2747    0.0000 C   0  0  0  0  0  0  0  0  0  0  0  0
   -2.4909   -1.5015    0.0000 C   0  0  0  0  0  0  0  0  0  0  0  0
   -3.1218   -0.1406    0.0000 C   0  0  0  0  0  0  0  0  0  0  0  0
   -3.9849   -1.3674    0.0000 C   0  0  0  0  0  0  0  0  0  0  0  0
  1  2  1  0
  2  3  1  0
  2  4  1  0
  4  5  1  0
  5  6  1  0
  6  7  1  1
  6  8  1  0
  8  9  1  0
  9 10  2  0
 10 11  1  0
 11 12  1  1
 11 13  1  0
 13 14  1  0
 15 14  1  1
 15 16  1  0
 16 17  1  0
 16 18  1  0
 16 19  1  0
 19 20  2  0
 19 21  1  0
 21 22  1  0
 22 23  1  0
 23 24  1  1
 23 25  1  0
 25 26  1  1
 26 27  1  0
 27 28  1  0
 28 29  1  6
 28 30  1  0
 30 31  1  6
 31  2  1  0
 30  6  1  0
 28 10  1  0
 25 11  1  0
 23 15  1  0
M  END
>  <identifier>  (1419) 
CNP0200644.5

>  <canonical_smiles>  (1419) 
CC1(C)CC[C@]2(C)CC=C3[C@]4(C)CC[C@H]5C(C)(C)C(=O)CC[C@]5(C)[C@H]4CC[C@@]3(C)[C@@H]2C1

>  <standard_inchi>  (1419) 
InChI=1S/C30H48O/c1-25(2)17-18-27(5)13-9-21-29(7)14-10-20-26(3,4)24(31)12-16-28(20,6)22(29)11-15-30(21,8)23(27)19-25/h9,20,22-23H,10-19H2,1-8H3/t20-,22+,23+,27-,28-,29-,30+/m0/s1

>  <standard_inchi_key>  (1419) 
DBCAVZSSFGIHQZ-YLAYQGCQSA-N

>  <name>  (1419) 
Taraxerone

>  <iupac_name>  (1419) 
(4~{a}~{R},6~{a}~{R},6~{a}~{S},8~{a}~{R},12~{a}~{R},14~{a}~{R},14~{b}~{R})-4,4,6~{a},6~{a},8~{a},11,11,14~{b}-octamethyl-2,4~{a},5,6,8,9,10,12,12~{a},13,14,14~{a}-dodecahydro-1~{H}-picen-3-one

>  <annotation_level>  (1419) 
5

>  <total_atom_count>  (1419) 
79

>  <heavy_atom_count>  (1419) 
31

>  <molecular_weight>  (1419) 
424.71

>  <exact_molecular_weight>  (1419) 
424.37052

>  <molecular_formula>  (1419) 
C30H48O

>  <alogp>  (1419) 
8.38

>  <topological_polar_surface_area>  (1419) 
17.07

>  <rotatable_bond_count>  (1419) 
0

>  <hydrogen_bond_acceptors>  (1419) 
1

>  <hydrogen_bond_donors>  (1419) 
0

>  <hydrogen_bond_acceptors_lipinski>  (1419) 
1

>  <hydrogen_bond_donors_lipinski>  (1419) 
0

>  <lipinski_rule_of_five_violations>  (1419) 
1

>  <aromatic_rings_count>  (1419) 
0

>  <qed_drug_likeliness>  (1419) 
0.36

>  <formal_charge>  (1419) 
0

>  <fractioncsp3>  (1419) 
0.90

>  <number_of_minimal_rings>  (1419) 
5

>  <van_der_walls_volume>  (1419) 
441.01

>  <contains_sugar>  (1419) 
False

>  <contains_ring_sugars>  (1419) 
False

>  <contains_linear_sugars>  (1419) 
False

>  <murcko_framework>  (1419) 
C1=C2C(CCC3C2CCC4CCCCC43)C5CCCCC5C1

>  <np_likeness>  (1419) 
2.98

>  <chemical_class>  (1419) 
Prenol lipids

>  <chemical_sub_class>  (1419) 
Sesterterpenoids

>  <chemical_super_class>  (1419) 
Lipids and lipid-like molecules

>  <direct_parent_classification>  (1419) 
Scalarane sesterterpenoids

>  <np_classifier_pathway>  (1419) 
Terpenoids

>  <np_classifier_superclass>  (1419) 
Triterpenoids

>  <np_classifier_class>  (1419) 
Taraxerane triterpenoids

>  <np_classifier_is_glycoside>  (1419) 
False

>  <organisms>  (1419) 
Aaptos aaptos|Abies nobilis|Acacia cambagei|Acalypha spiciflora|Aceratium megalospermum|Aconitum nevadense|Acrocomia sclerocarpa|Adansonia digitata|Adenophora|Aframomum alboviolaceum|Alchornea cordifolia|Alchornea latifolia|Alexandrium excavatum|Alkanna hirsutissima|Alnaster fruticosus|Alnus glutinosa|Alnus incana|Alnus pendula|Aloe ballyi|Alseodaphne corneri|Amblyraja radiata|Amomum daniellii|Amsinckia menziesii|Annona impressivenia|Arctotis aspera|Arnica viscosa|Artemisia sieversiana|Aspergillus unguis|Aster alpinus|Aster fruticosus|Atalantia wightii|Athanasia dregeana|Aulacocephalus temmincki|Avrainvillea nigricans|Baccharis solieri|Baeria californica|Balanophora japonica|Berberis crataegina|Bersama yangambiensis|Betula alnoides|Buddleja variabilis|Cachrys trifida|Calcarisporium thermophilum|Calceolaria thyrsiflora|Calea megacephala|Calophyllum bracteatum|Calophyllum thwaitesii|Canarina canariensis|Caraipa densifolia|Castanopsis sclerophylla|Cayratia japonica|Cichorium glandulosum|Cichorium intybus|Cichorium spinosum|Cladonia macaronesica|Clathrina clathrus|Cleidion Spiciflorum|Cleidion spiciflorum (Burm. f.) Merr.|Clitoria ternatea|Coccoloba excoriata|Codium arabicum|Conocephalum japonicum|Coptis trifolia subsp. groenlandica|Cordylanthus kingii|Cordyline indivisa|Coronophora gregaria|Corydalis cornuta|Corydalis longipes|Corydalis paniculigera|Corydalis persica|Corynanthe pachyceras|Cota tinctoria|Crataegus pontica|Crinipellis scabella|Crossostephium Chinense|Crossostephium chinense|Croton cumingii|Cunninghamella echinulata|Cupania cinerea|Cymbidium giganteum|Cymbidium iridioides|Cynoglossum amabile|Cystophora scalaris|Dacrydium biforme|Dalbergia coromandeliana|Dalbergia horrida|Daphne genkwa|Delphinium campylocentrum|Didemnum inarmatum|Diospyros Lotus|Diospyros acuta|Diospyros argentea|Diospyros blancoi|Diospyros ferrea|Diospyros ismailii|Diospyros lotus|Diospyros maingayi|Diospyros maritima|Diospyros moonii|Diospyros oblongifolia|Diospyros oppositifolia|Diospyros quaesita|Diospyros rheophytica|Diospyros rhodocalyx|Diospyros siamang|Diospyros singaporensis|Diospyros srilankana|Diospyros sumatrana|Diospyros thwaitesii|Diospyros wallichii|Disepalum plagioneurum|Disynaphia halimifolia|Doodia picta|Dorstenia psilurus|Drypetes roxburghii|Dudleya brittonii|Dudleya farinosa|Echinocystis lobata|Embelia schimperi|Eragrostis viscosa|Eremophila serrulata|Ervum lens|Erythrophleum fordii|Eunicella cavolinii|Euodia bodinieri|Euodia officinalis|Euodia ruticarpa|Euphorbia Antiquorum|Euphorbia Tirucalli|Euphorbia antiquorum|Euphorbia cyparissias|Euphorbia drupifera|Euphorbia hirta|Euphorbia lathyris|Euphorbia mellifera|Euphorbia stygiana|Euphorbia tirucalli|Euphorbia tortilis|Evodia rutaecarpa|Excoecaria Agallocha|Excoecaria agallocha|Excoecaria agallocha L.|Felicia amelloides|Formica fusca|Forsteronia refracta|Fridericia chica|Gaillardia spathulata|Glycosmis pseudoracemosa|Grewia mollis|Grindelia nana|Guatteria elata|Gymnocarpium robertianum|Haemanthus toxicarius|Hakea saligna|Halopitys incurvus|Haloxylon salicornicum|Helenium quadridentatum|Heliotropium floridum|Heterotheca grandiflora|Hovenia acerba|Hygrophorus eburneus|Hypoxylon microplacum|Indigofera microcarpa|Inula grantioides|Jasminum grandiflorum|Juglans nigra|Juniperus horizontalis|Kaempferia marginata|Kaunia saltensis|Kleinhovia hospita|Lactobacillus helveticus|Lathyrus tingitanus|Lecanora lividocinerea|Lepisorus thunbergianus|Lepra ophthalmiza|Leptothorax acervorum|Leucanthemum maximum|Leucosyke quadrinervia|Liatris spicata|Liatris squarrosa|Mallotus apelta|Mangifera indica|Manihot Esculenta|Manihot esculenta|Manilkara kauki|Melaleuca decora|Melaleuca uncinata|Mentha pulegiformis|Monascus purpureus|Morella rubra|Myrica rubra|Myrsine africana|Narcissus concolor|Nauclea officinalis|Neolitsea buisanensis|Neolitsea hiiranensis|Neolitsea konishii|Neolitsea villosa|Neothyonidium magnum|Nephroma australe|Nicotiana repanda|Oncoba echinata|Ophiolepis superba|Ophiorrhiza liukiuensis|Osmundaria colensoi|Papilio phorcas|Parabenzoin trilobum|Paramignya griffithii|Persea indica|Persicaria nepalensis|Pertusaria ophthalmiza|Peucedanum oroselinum|Phegopteris bukoensis|Phlomoides medicinalis|Picris radicata|Pieris japonica|Pinus armandii|Pinus picea|Piper aequale|Plectosphaerella cucumerina|Plectranthus caninus|Podocarpus montanus|Polycephalomyces nipponicus|Polygonum Nepalense|Polygonum nepalense|Polyphaga sinensis|Polytolypa hystricis|Pouteria caimito|Primula hirsuta|Pseudallescheria boydii|Ptelea aptera|Pteris inaequalis|Rauvolfia salicifolia|Rhizoplaca baranowii|Rhododendron aureum|Rhododendron ferrugineum|Rhodoglossum japonicum|Roccellaria mollis|Rodgersia podophylla|Rubrivivax gelatinosus|Ruta pinnata|Sabal peregrina|Salix purpurea|Salmonella enterica subsp. enterica serovar bovismorbificans|Salvia dorrii|Salvia nubicola|Salvia palaefolia|Sarcodictyon roseum|Scaevola spinescens|Scapania nemorea|Schisandra arisanensis|Sedum sarmentosum|Senecio polyodon|Senecio scandens|Senna sophera|Shigella flexneri|Skimmia laureola|Skimmia wallachii|Smenospongia echina|Sophora angustifolia|Sophora japonica|Stevia polycephala|Streptomyces griseoplanus|Streptomyces longissimus|Streptomyces misawanensis|Streptomyces parvisporogenes|Streptomyces rubellomurinus|Streptosporangium vulgare|Strychnos spinosa|Tetradium glabrifolium|Teucrium depressum|Thymus piperella|Trichilia rubescens|Tricholoma batschii|Uncaria elliptica|Ursinia cakilefolia|Ustilago maydis|Uvaria macrophylla|Vallaris solanacea|Vellozia piresiana|Viscum coloratum|Vitex trifolia|Wisteria floribunda|Xanthomendoza fallax|Xanthoparmelia pokornyi|[polyangium] brachysporum

>  <collections>  (1419) 
ANPDB|CMAUP (cCollective molecular activities of useful plants)|ChEBI NPs|KNApSaCK|Latin America dataset|Mitishamba database|NANPDB (Natural Products from Northern African Sources)|NPASS|NuBBEDB|Phyto4Health|Super Natural II|TCMDB-Taiwan (Traditional Chinese Medicine database)|TIPdb (database of Taiwan indigenous plants)|VietHerb|WikiData Natural Products|ZINC NP

>  <dois>  (1419) 
10.1002/CHIN.199734227|10.1002/CHIN.200520210|10.1002/JCCS.199500073|10.1002/JCCS.199500128|10.1002/JCCS.199800018|10.1007/978-0-85729-323-7_1834|10.1007/BF00564187|10.1007/BF00567057|10.1007/BF01032020|10.1007/BF02975113|10.1007/S10068-012-0061-X|10.1016/0031-9422(86)80096-6|10.1016/0031-9422(88)83136-4|10.1016/0031-9422(90)85280-S|10.1016/0031-9422(91)83488-7|10.1016/0031-9422(93)85167-P|10.1016/0031-9422(93)85257-R|10.1016/0031-9422(96)00118-5|10.1016/0168-9452(91)90045-A|10.1016/J.BMC.2008.09.021|10.1016/J.BSE.2015.09.007|10.1016/J.FITOTE.2007.02.002|10.1016/J.PHYTOCHEM.2006.03.024|10.1016/J.PHYTOCHEM.2006.07.025|10.1016/J.PHYTOL.2011.02.011|10.1016/S0031-9422(00)80444-6|10.1016/S0031-9422(00)80490-2|10.1016/S0031-9422(00)81515-0|10.1016/S0031-9422(00)83042-3|10.1016/S0031-9422(00)83544-X|10.1016/S0031-9422(00)85365-0|10.1016/S0031-9422(00)85500-4|10.1016/S0031-9422(00)85859-8|10.1016/S0031-9422(00)88704-X|10.1016/S0031-9422(00)97767-7|10.1016/S0031-9422(03)00007-4|10.1016/S0031-9422(97)01020-0|10.1016/S0031-9422(98)00656-6|10.1016/S0367-326X(99)00133-1|10.1021/JF025848G|10.1021/NP100415M|10.1021/NP50025A012|10.1021/NP50045A033|10.1021/NP50066A019|10.1021/NP50074A036|10.1039/P19720001935|10.1055/S-0028-1099454|10.1055/S-2003-38488|10.1055/S-2006-957703|10.1055/S-2006-957961|10.1055/S-2006-958085|10.1055/s-2006-957683|10.1080/10575639808048294|10.1246/BCSJ.45.2058|10.1248/CPB.31.1567|10.1248/CPB.54.920|10.1515/ZNC-1989-7-804|10.1515/ZNC-1991-1-203|10.4268/CJCMM20141227|10.5012/BKCS.2011.32.6.2079

>  <synonyms>  (1419) 
(4aR,6aR,6aS,8aR,12aR,14aR,14bR)-4,4,6a,6a,8a,11,11,14b-octamethyl-2,4a,5,6,8,9,|(4aR,6aR,6aS,8aR,12aR,14aR,14bR)-4,4,6a,6a,8a,11,11,14b-octamethyl-2,4a,5,6,8,9,10,12,12a,13,14,14a-dodecahydro-1H-picen-3-one|.DELTA.14-TARAXEN-3-ONE|27-NOROLEAN-14-EN-3-ONE, 13-METHYL-, (13.ALPHA.)-|27-NOROLEAN-14-EN-3-ONE, 13-METHYL-, (13alpha)-|3(2H)-PICENONE, 1,4,4A,5,6,6A,8,8A,9,10,11,12,12A,12B,13,14,14A,14B-OCTADECAHYDRO-4,4,6A,8A,11,11,12B,14B-OCTAMETHYL-, (4AR,6AR,8AR,12AR,12BS,14AR,14BR)-|3(2H)-PICENONE, 1,4,4A,5,6,6A,8,8A,9,10,11,12,12A,12B,13,14,14A,14B-OCTADECAHYDRO-4,4,6A,8A,11,11,12B,14B-OCTAMETHYL-, (4AR-(4A.ALPHA.,6A.BETA.,8A.BETA.,12A.BETA.,12B.ALPHA.,14A.ALPHA.,14B.BETA.))-|3(2H)-PICENONE, 1,4,4A,5,6,6A,8,8A,9,10,11,12,12A,12B,13,14,14A,14B-OCTADECAHYDRO-4,4,6A,8A,11,11,12B,14B-OCTAMETHYL-, (4AR-(4Aalpha,6Abeta,8Abeta,12Abeta,12Balpha,14Aalpha,14Bbeta))-|4,4,6a,8a,11,11,12b,14b-Octamethyl-1,4,4a,5,6,6a,8,8a,9,10,11,12,12a,12b,13,14,14a,14b-octadecahydropicen-3(2H)-one|514-07-8|AKOS037515402|BDBM50275506|CHEBI:67826|CHEMBL519077|CS-0016468|D-Friedoolean-14-en-3-one|DTXSID60965707|HY-N1177|MS-27476|Q27136302|SCHEMBL3155249|Skimmione|TARAXER-3-ONE|Taraxer-14-en-3-one|Taraxeron|UNII-VC7U2M012Z|VC7U2M012Z|delta14-TARAXEN-3-ONE|taraxerone

>  <cas>  (1419) 
514-07-8

$$$$

     RDKit          2D

 20 22  0  0  0  0  0  0  0  0999 V2000
   -3.9205    3.2559    0.0000 C   0  0  0  0  0  0  0  0  0  0  0  0
   -4.0022    1.7581    0.0000 O   0  0  0  0  0  0  0  0  0  0  0  0
   -2.7459    0.9385    0.0000 C   0  0  0  0  0  0  0  0  0  0  0  0
   -1.4079    1.6166    0.0000 C   0  0  0  0  0  0  0  0  0  0  0  0
   -0.1517    0.7969    0.0000 C   0  0  0  0  0  0  0  0  0  0  0  0
   -0.2334   -0.7008    0.0000 C   0  0  0  0  0  0  0  0  0  0  0  0
    1.0229   -1.5205    0.0000 O   0  0  0  0  0  0  0  0  0  0  0  0
    2.3608   -0.8423    0.0000 C   0  0  0  0  0  0  0  0  0  0  0  0
    3.6171   -1.6620    0.0000 C   0  0  0  0  0  0  0  0  0  0  0  0
    4.9551   -0.9838    0.0000 C   0  0  0  0  0  0  0  0  0  0  0  0
    5.0368    0.5139    0.0000 C   0  0  0  0  0  0  0  0  0  0  0  0
    3.7805    1.3336    0.0000 C   0  0  0  0  0  0  0  0  0  0  0  0
    2.4425    0.6554    0.0000 C   0  0  0  0  0  0  0  0  0  0  0  0
    1.1863    1.4751    0.0000 C   0  0  0  0  0  0  0  0  0  0  0  0
    1.2680    2.9729    0.0000 O   0  0  0  0  0  0  0  0  0  0  0  0
   -1.5713   -1.3790    0.0000 C   0  0  0  0  0  0  0  0  0  0  0  0
   -1.6530   -2.8767    0.0000 O   0  0  0  0  0  0  0  0  0  0  0  0
   -2.9910   -3.5549    0.0000 C   0  0  0  0  0  0  0  0  0  0  0  0
   -2.8276   -0.5593    0.0000 C   0  0  0  0  0  0  0  0  0  0  0  0
   -4.1656   -1.2375    0.0000 O   0  0  0  0  0  0  0  0  0  0  0  0
  1  2  1  0
  2  3  1  0
  3  4  2  0
  4  5  1  0
  5  6  2  0
  6  7  1  0
  7  8  1  0
  8  9  2  0
  9 10  1  0
 10 11  2  0
 11 12  1  0
 12 13  2  0
 13 14  1  0
 14 15  2  0
  6 16  1  0
 16 17  1  0
 17 18  1  0
 16 19  2  0
 19 20  1  0
 19  3  1  0
 14  5  1  0
 13  8  1  0
M  END
>  <identifier>  (1420) 
CNP0403522.0

>  <canonical_smiles>  (1420) 
COC1=CC2=C(OC3=CC=CC=C3C2=O)C(OC)=C1O

>  <standard_inchi>  (1420) 
InChI=1S/C15H12O5/c1-18-11-7-9-12(16)8-5-3-4-6-10(8)20-14(9)15(19-2)13(11)17/h3-7,17H,1-2H3

>  <standard_inchi_key>  (1420) 
DQAQTPIWHUEPAU-UHFFFAOYSA-N

>  <name>  (1420) 
9H-Xanthen-9-one, 3-hydroxy-2,4-dimethoxy-

>  <iupac_name>  (1420) 
3-hydroxy-2,4-dimethoxy-xanthen-9-one

>  <annotation_level>  (1420) 
5

>  <total_atom_count>  (1420) 
32

>  <heavy_atom_count>  (1420) 
20

>  <molecular_weight>  (1420) 
272.26

>  <exact_molecular_weight>  (1420) 
272.06847

>  <molecular_formula>  (1420) 
C15H12O5

>  <alogp>  (1420) 
2.67

>  <topological_polar_surface_area>  (1420) 
68.90

>  <rotatable_bond_count>  (1420) 
2

>  <hydrogen_bond_acceptors>  (1420) 
5

>  <hydrogen_bond_donors>  (1420) 
1

>  <hydrogen_bond_acceptors_lipinski>  (1420) 
5

>  <hydrogen_bond_donors_lipinski>  (1420) 
1

>  <lipinski_rule_of_five_violations>  (1420) 
0

>  <aromatic_rings_count>  (1420) 
3

>  <qed_drug_likeliness>  (1420) 
0.73

>  <formal_charge>  (1420) 
0

>  <fractioncsp3>  (1420) 
0.13

>  <number_of_minimal_rings>  (1420) 
3

>  <van_der_walls_volume>  (1420) 
229.02

>  <contains_sugar>  (1420) 
False

>  <contains_ring_sugars>  (1420) 
False

>  <contains_linear_sugars>  (1420) 
False

>  <murcko_framework>  (1420) 
O1c2ccccc2Cc3ccccc13

>  <np_likeness>  (1420) 
0.97

>  <chemical_class>  (1420) 
Benzopyrans

>  <chemical_sub_class>  (1420) 
1-benzopyrans

>  <chemical_super_class>  (1420) 
Organoheterocyclic compounds

>  <direct_parent_classification>  (1420) 
Xanthones

>  <np_classifier_pathway>  (1420) 
Shikimates and Phenylpropanoids

>  <np_classifier_superclass>  (1420) 
Xanthones

>  <np_classifier_class>  (1420) 
Plant xanthones

>  <np_classifier_is_glycoside>  (1420) 
False

>  <organisms>  (1420) 
Calophyllum teysmannii|Calophyllum teysmannii Miq.var.inophylloide|Hypericum chinense|Hypericum erectum|Hypericum erectum Thunb.|Hypericum japonicum|Hypericum reflexum|Kielmeyera coriacea|Kielmeyera ferruginea|Kielmeyera ferruginea A.P.Duarte.|Kielmeyera rubriflora|Kielmeyera speciosa|Kielmeyera speciosa St.Hill.

>  <collections>  (1420) 
KNApSaCK|Latin America dataset|NuBBEDB|Super Natural II|TIPdb (database of Taiwan indigenous plants)|UNPD (Universal Natural Products Database)|WikiData Natural Products|ZINC NP

>  <dois>  (1420) 
10.1007/S11418-008-0256-X|10.1016/0031-9422(90)87123-C|10.1016/J.PHYTOCHEM.2006.05.043|10.1016/S0031-9422(00)00289-2|10.1016/S0031-9422(00)85418-7|10.1016/S0031-9422(00)85774-X|10.1016/S0031-9422(00)97240-6|10.1016/S0031-9422(97)00731-0

>  <synonyms>  (1420) 
1225-63-4|2,4-Dimethoxy-3-hydroxyxanthone|3-HYDROXY-2,4-DIMETHOXYXANTHEN-9-ONE|3-hydroxy-2,4-dimethoxyxanthone|DTXSID60480763

>  <cas>  (1420) 
1225-63-4

$$$$

     RDKit          2D

 16 18  0  0  0  0  0  0  0  0999 V2000
   -2.4944   -2.9471    0.0000 C   0  0  0  0  0  0  0  0  0  0  0  0
   -1.0627   -2.4998    0.0000 O   0  0  0  0  0  0  0  0  0  0  0  0
   -0.7341   -1.0362    0.0000 C   0  0  0  0  0  0  0  0  0  0  0  0
   -1.8373   -0.0199    0.0000 C   0  0  0  0  0  0  0  0  0  0  0  0
   -3.3308   -0.1597    0.0000 C   0  0  0  0  0  0  0  0  0  0  0  0
   -3.9253    1.2175    0.0000 C   0  0  0  0  0  0  0  0  0  0  0  0
   -2.7992    2.2084    0.0000 O   0  0  0  0  0  0  0  0  0  0  0  0
   -1.5088    1.4437    0.0000 C   0  0  0  0  0  0  0  0  0  0  0  0
   -0.0770    1.8909    0.0000 C   0  0  0  0  0  0  0  0  0  0  0  0
    1.0262    0.8746    0.0000 C   0  0  0  0  0  0  0  0  0  0  0  0
    0.6977   -0.5890    0.0000 C   0  0  0  0  0  0  0  0  0  0  0  0
    1.8009   -1.6053    0.0000 C   0  0  0  0  0  0  0  0  0  0  0  0
    3.2326   -1.1581    0.0000 C   0  0  0  0  0  0  0  0  0  0  0  0
    3.5612    0.3055    0.0000 C   0  0  0  0  0  0  0  0  0  0  0  0
    4.9930    0.7527    0.0000 O   0  0  0  0  0  0  0  0  0  0  0  0
    2.4580    1.3218    0.0000 O   0  0  0  0  0  0  0  0  0  0  0  0
  1  2  1  0
  2  3  1  0
  3  4  2  0
  4  5  1  0
  5  6  2  0
  6  7  1  0
  7  8  1  0
  8  9  2  0
  9 10  1  0
 10 11  2  0
 11 12  1  0
 12 13  2  0
 13 14  1  0
 14 15  2  0
 14 16  1  0
 11  3  1  0
  8  4  1  0
 16 10  1  0
M  END
>  <identifier>  (1421) 
CNP0211069.0

>  <canonical_smiles>  (1421) 
COC1=C2C=COC2=CC2=C1C=CC(=O)O2

>  <standard_inchi>  (1421) 
InChI=1S/C12H8O4/c1-14-12-7-2-3-11(13)16-10(7)6-9-8(12)4-5-15-9/h2-6H,1H3

>  <standard_inchi_key>  (1421) 
BGEBZHIAGXMEMV-UHFFFAOYSA-N

>  <name>  (1421) 
Bergapten

>  <iupac_name>  (1421) 
4-methoxyfuro[3,2-g]chromen-7-one

>  <annotation_level>  (1421) 
5

>  <total_atom_count>  (1421) 
24

>  <heavy_atom_count>  (1421) 
16

>  <molecular_weight>  (1421) 
216.19

>  <exact_molecular_weight>  (1421) 
216.04226

>  <molecular_formula>  (1421) 
C12H8O4

>  <alogp>  (1421) 
2.55

>  <topological_polar_surface_area>  (1421) 
52.58

>  <rotatable_bond_count>  (1421) 
1

>  <hydrogen_bond_acceptors>  (1421) 
4

>  <hydrogen_bond_donors>  (1421) 
0

>  <hydrogen_bond_acceptors_lipinski>  (1421) 
4

>  <hydrogen_bond_donors_lipinski>  (1421) 
0

>  <lipinski_rule_of_five_violations>  (1421) 
0

>  <aromatic_rings_count>  (1421) 
3

>  <qed_drug_likeliness>  (1421) 
0.59

>  <formal_charge>  (1421) 
0

>  <fractioncsp3>  (1421) 
0.08

>  <number_of_minimal_rings>  (1421) 
3

>  <van_der_walls_volume>  (1421) 
177.74

>  <contains_sugar>  (1421) 
False

>  <contains_ring_sugars>  (1421) 
False

>  <contains_linear_sugars>  (1421) 
False

>  <murcko_framework>  (1421) 
o1ccc2cc3C=CCOc3cc12

>  <np_likeness>  (1421) 
1.04

>  <chemical_class>  (1421) 
Coumarins and derivatives

>  <chemical_sub_class>  (1421) 
Furanocoumarins

>  <chemical_super_class>  (1421) 
Phenylpropanoids and polyketides

>  <direct_parent_classification>  (1421) 
5-methoxypsoralens

>  <np_classifier_pathway>  (1421) 
Shikimates and Phenylpropanoids

>  <np_classifier_superclass>  (1421) 
Coumarins

>  <np_classifier_class>  (1421) 
Furocoumarins

>  <np_classifier_is_glycoside>  (1421) 
False

>  <organisms>  (1421) 
Acanthus montanus|Acronychia pedunculata|Actinomadura hibisca|Adlumia fungosa|Aegle marmelos|Agathis macrophylla|Aliivibrio fischeri|Alocasia macrorrhizos|Aloe castanea|Alpinia officinarum|Ammi|Ammi majus|Ammi majus L.|Ammi sp|Ammi sp.|Ammi spp.|Amomum reticulatum|Amyris diatrypa|Amyris lineata|Anastrepha suspensa|Anastrophyllum donnianum|Anethum graveolens|Anethum sp.|Angelica Dahurica|Angelica acutiloba|Angelica anomala|Angelica archangelica|Angelica archangelica L.|Angelica dahurica|Angelica dahurica var.dahurica|Angelica decursiva|Angelica furcijuga|Angelica furcijuga KITAGAWA|Angelica gigas|Angelica glauca|Angelica gmelinii|Angelica japonica|Angelica keiskei|Angelica lucida|Angelica officinalis|Angelica polymorpha|Angelica pubescens|Angelica shikokiana|Angelica sinensis|Angelica sp.|Angelica spp.|Angelica taiwaniana|Angelica talwaniana|Angelica tarokoensis|Angelica ursina|Angelica ursina Maxim|Anthriscus sylvestris|Anthriscus sylvestris (L.) Hoffm.|Antidesma membranaceum|Apium Graveolens|Apium graveolens|Apium graveolens L.|Apium sp.|Aralia continentalis|Arnica foliosa|Arracacia tolucensis|Artemisia dracunculus|Ascodesmis sphaerospora|Ashitaba|Aspergillus caespitosus|Asterolasia phebalioides|Asterolasia trymalioides|Astilbe koreana|Astragalus pycnocephalus|Astragalus zahlbruckneri|Atalantia buxifolia|Atalantia ceylanica|Axinella cannabina|Azospirillum lipoferum|Baccharis flabellata|Balanites aegyptiaca|Balanites aegyptiacus|Bituminaria bituminosa|Boenninghausenia Albiflora|Boenninghausenia albiflora|Boronia muelleri|Brachyclados megalanthus|Brosimum gaudichaudii|Burkholderia cepacia|Cachrys sicula|Campylotropis hirtella|Campylotropis hirtella (FRANCH.) SCHNDL|Caragana frutex|Caralluma russeliana|Carum carvi|Carum sp.|Casimiroa edulis|Cassia carnaval|Changium smyrnioides|Chloroxylon swietenia|Citrus|Citrus aurantium|Citrus bergamia|Citrus grandis|Citrus maxima|Citrus medica|Citrus paradisi|Citrus sp.|Citrus wilsonii|Citrus × paradisi|Cladonia squamosula|Clausena anisata|Cnidium Monnieri|Cnidium japonicum|Cnidium monieri|Cnidium monnieri|Colchicum macedonicum|Colutea arborescens|Conium sp.|Conoideocrella tenuis|Coprosma acerosa|Coptis deltoidea|Coriandrum sativum|Cornicularia normoerica|Coussarea paniculata|Cranfillia vulcanica|Crocodylus niloticus|Cryptostegia grandiflora|Cudrania cochinchinensis|Cullen drupaceum|Cyanospira rippkae|Cyathus helenae|Cymathere triplicata|Cystoseira caespitosa|Daiswa dunniana|Dalbergia frutescens|Dalbergia monetaria|Daucus carota|Davallia solida|Deverra tortuosa|Dicliptera riparia|Dictamnus albus|Dictamnus hispanicus|Dictamnus sp.|Dillenia papuana|Dinosperma melanophloium|Dinosperma stipitatum|Dorstenia Contrajerva|Dorstenia asaroides|Dorstenia bahiensis|Dorstenia barnimiana|Dorstenia bornimiana|Dorstenia brasiliensis|Dorstenia bryoniaefolia|Dorstenia bryonifolia|Dorstenia cayapia|Dorstenia cayapiaa|Dorstenia contrajerva|Dorstenia convexa|Dorstenia drakena|Dorstenia elliptica|Dorstenia excentria|Dorstenia foetida|Dorstenia heringeri|Dorstenia heringerii|Dorstenia kameruniana|Dorstenia lindeniana|Dorstenia prorepens|Dorstenia psilurus|Echium italicum|Eriostemon trachyphyllus|Erwinia rhapontici|Eryngium alpinum L.|Eryngium campestre L.|Esenbeckia febrifuga|Espeletiopsis purpurascens|Eucalyptus exserta|Eunicea pinta|Euodia|Euphorbia bivonae|Euphorbia caducifolia|Fagara mayu|Fagara spp.|Fatoua pilosa|Fatoua villosa|Feronia limonia|Feroniella lucida|Ferula foetida|Ferulago capillaris|Ferulago lutea|Ficus Carica|Ficus auriculata|Ficus bengalensis|Ficus carica|Ficus carica L.|Ficus elastica|Ficus elastica Roxb.|Ficus eriobotryoides|Ficus glumosa|Ficus palmata|Ficus pumila|Ficus sp.|Ficus sycomorus|Ficus virens|Foeniculum sp.|Foeniculum vulgare|Garcinia parvifolia|Gasteria bicolor|Glehnia littoralis|Grindelia integrifolia|Grosvenoria rimbachii|Hansenia forbesii|Hansenia weberbaueriana|Helianthopsis bishopii|Helianthus californicus|Heracleum aconitifolium|Heracleum asperum|Heracleum candicans|Heracleum candolleanum|Heracleum dissectum|Heracleum granatense|Heracleum grandiflorum|Heracleum laciniatum|Heracleum lanatum|Heracleum lehmannianum|Heracleum leskovii|Heracleum mantegazzianum|Heracleum mantegazzianum Sommier & Levier|Heracleum maximum|Heracleum moellendorffii|Heracleum moellendorffii Hance|Heracleum moellendorffii Hance var.paucivitatum|Heracleum moellendorffii var. paucivittatum|Heracleum nepalense|Heracleum persicum|Heracleum persicum (Fisch.) Desf.|Heracleum ponticum|Heracleum rapula|Heracleum sosnowskyi Manden.|Heracleum sp|Heracleum sp.|Heracleum sphondylium|Heracleum sphondylium L. s.l. (H. sphondylium L. s.str., H. sphondylium subsp. alpinum (L.) Bonnier & Layens, H. sphondylium subsp. elegans (Crantz) Schuebl. & G. Martens and H. sphondylium  subsp. pyrenaicum (Lam.) Bonnier & Layens)|Heracleum spp.|Heracleum stevenii|Heracleum vicinum|Heracleum wallichii|Heracleum woroschiklowii|Heracleum yungningense|Hydrocotyle leucocephala|Hymenidium densiflorum|Hymenocallis speciosa|Hypericum papuanum|Hypholoma capnoides|Hypoxylon carneum|Hypoxylon sclerophaeum|Hypselodoris cantabrica|Ilex kaushue|Imperata cylindrica|Indian beech tree|Inga paterno|Inula thapsoides|Isis hippuris|Juglans regia|Kaunia arbuscularis|Kitagawia baicalensis|Kniphofia tuckii|Lactarius deliciosus var. deterrimus|Lactarius fuliginosus|Leionema ambiens|Leonurus heterophyllus|Leptospermum liversidgei|Leptothyrsa sprucei|Levisticum officinale|Levisticum officinale W. D. J. Koch|Levisticum sp.|Ligularia pleurocaulis|Ligusticopsis multivittata|Ligusticum|Ligusticum multivittatum|Ligusticum sp|Ligusticum sp.|Ligusticum spp.|Limeum pterocarpum|Limonia acidissima|Lonchocarpus salvadorensis|Lupinus formosus|Lycopersicon Esculentum|Lycopersicon esculentum|Maclura cochinchinensis|Macrococculus pomiferus|Macrocystidia cucumis|Magydaris pastinacea|Meeboldia yunnanensis|Melicope borbonica|Melicope denhamii|Melicope latifolia|Metrodorea flavida|Metrodorea nigra|Moraceae|Murraya paniculata|Nematolepis ovatifolia|Nerita albicilla|Nierembergia hippomanica|Nigritella suaveolens|Nocardia brasiliensis|Notopterygium forbesii|Ophioglossum petiolatum|Opopanax chironium|Oppopanax chironium|Orixa japonica|Osteospermum ecklonis|Ostericum grosseserratum|Oxandra xylopioides|Oyedaea verbesinoides|Palicourea alpina|Parmelia enteromorpha|Pastinaca sativa|Pastinaca sativa L.|Pastinaca sp.|Patrinia villosa|Persicaria thunbergii|Petroselinum crispum|Petroselinum crispum (Mill.) Fuss|Petroselinum sp|Petroselinum sp.|Petroselinum spp.|Peucedanum baicalense|Peucedanum decumbens|Peucedanum japonicum|Peucedanum mashanense|Peucedanum officinale|Peucedanum palustre|Peucedanum praeruptorum|Peucedanum ruthenicum|Peucedanum tauricum|Phebalium filifolium|Phebalium squamulosum|Phegopteris subaurita|Phellodendron chinense|Phytolacca acinosa|Phytolacca esculenta|Pilocarpus goudotianus|Pimpinella anisum|Pimpinella major (L.) Huds.|Pimpinella nigra Mill.|Pimpinella peregrina L.|Pimpinella saxifraga|Pimpinella saxifraga L.|Pimpinella sp.|Pimpinella spp.|Pinus albicaulis|Pinus formosana|Pinus krempfii|Piper ovatum|Platypodium elegans|Platytaenia dasycarpa|Plectranthus hereroensis|Pleurospermum angelicoides|Pleurospermum rivulorum|Polypodium aureum|Poncirus trifoliata|Portulaca oleracea|Posoqueria latifolia|Prangos lipskyi|Prangos tschimganica|Prangos uloptera|Prionosciadium thapsoides|Psilopeganum sinense|Pyrola calliantha|Quercus sessilis|Rhadinothamnus anceps|Rhodomyrtus tomentosa|Rosa transmorrisonensis|Ruta Graveolens|Ruta chalepensis|Ruta chalepensis L.|Ruta graveolens|Ruta graveolens L.|Ruta macrophylla|Ruta montana|Ruta pinnata|Ruta sp.|Rutaceae|Salix sieboldiana|Salvia oxyodon|Salvia xalapensis|Sambucus ebulus|Saposhnikovia divaricata|Saposhnikovia divaricata Schischkin|Sauropus quadrangularis|Scabiosa comosa|Schenkia spicata|Scrophularia smithii|Semen zanthoxyli bungeani|Semenovia dasycarpa|Senecio barba-johannis|Seseli abolinii|Seseli buchtormense|Seseli dichotomum|Seseli giganteum|Seseli korovinii|Seseli lehmannianum|Seseli mairei|Seseli meirei|Seseli mucronatum|Seseli ponticum|Seseli sibiricum|Seseli sp|Seseli sp.|Seseli spp.|Seseli tortuosum|Seseli tortuosum LBS.Eur.|Seseli webbii Cosson.|Seseli yunnanense|Silene gallica|Silene wallichiana|Sinodielsia yunnanensis|Skimmia japonica|Skimmia laureola|Smilax macrophylla|Solanum berthaultii|Solanum lycocarpum|Solanum lycopersicum|Solanum pseudocapsicum|Solanum torvum|Sphoeroides vermicularis|Spilanthes ocymifolia|Spiraea prunifolia|Spongia hispida|Streptomyces fulvoviridis|Tanacetum santolinoides|Taxus mairei|Tephrosia lupinifolia|Tephrosia villosa|Tetradium daniellii|Tetrataenium wallichii|Thalassia testudinum|Thamnosma texana|Tilletia levis|Toddalia asiatica|Tordyliopsis brunonis|Tordylium apulum|Torilis japonica|Trichocline caulescens|Trichocline sinuata|Trifoliate orange|Trifolium alexandrium|Trifolium pratense|Trixis inula|Tylophora flava|Ulosa spongia|Ursinia anthemoides|Vernonia echitifolia|Vicia sativa|Wunderlichia mirabilis|Xanthogalum sachokianum|Zanthoxylum ailanthoides|Zanthoxylum asiaticum|Zanthoxylum echinocarpum|Zanthoxylum mayu|Zanthoxylum schinifolium|Zanthoxylum sp.|Zanthoxylum spinosum|Zanthoxylum tragodes|Zanthoxylum zanthoxyloides|Zilla spinosa|parsley|pomelo

>  <collections>  (1421) 
ANPDB|AfroDB|AnalytiCon Discovery NPs|Australian natural products|BIOFACQUIM|CMAUP (cCollective molecular activities of useful plants)|ChEBI NPs|ConMedNP|DrugBankNP|EMNPD|ETM (Ethiopian Traditional Medicine) DB|FooDB|GNPS (Global Natural Products Social Molecular Networking)|KNApSaCK|Latin America dataset|NANPDB (Natural Products from Northern African Sources)|NPACT|NPASS|NPCARE|NPEdia|NuBBEDB|Phenol-explorer|Phyto4Health|PhytoLab phyproof® Reference Substances|PubChem NPs|Super Natural II|TCMDB-Taiwan (Traditional Chinese Medicine database)|TCMID (Traditional Chinese Medicine Integrated Database)|TIPdb (database of Taiwan indigenous plants)|TPPT (Toxic Plants–PhytoToxins)|UNPD (Universal Natural Products Database)|VietHerb|WikiData Natural Products|p-ANAPL

>  <dois>  (1421) 
10.1002/(SICI)1099-1565(199909/10)10:5<268::AID-PCA467>3.0.CO;2-Z|10.1002/(SICI)1099-1573(1998)12:1+<S25::AID-PTR239>3.0.CO;2-N|10.1002/0471684228.EGP01775|10.1002/9780470744307.gat218|10.1002/CBDV.200900326|10.1002/CHIN.200047207|10.1002/CHIN.200323173|10.1002/CHIN.200333216|10.1002/HLCA.19430260503|10.1002/HLCA.19970800507|10.1002/HLCA.201000250|10.1002/JCCS.197000012|10.1002/JCCS.200300024|10.1002/JCCS.200300178|10.1002/JHRC.1240080305|10.1002/JHRC.1240181213|10.1002/JSFA.2979|10.1002/PCA.2800030108|10.1002/PCA.2800040508|10.1002/PTR.2650080409|10.1002/RCM.3559|10.1002/RECL.19680870808|10.1002/biuz.19840140514|10.1002/food.19880321030|10.1007/BF00055511|10.1007/BF00563357|10.1007/BF00563460|10.1007/BF00563962|10.1007/BF00564813|10.1007/BF00565846|10.1007/BF00566351|10.1007/BF00566803|10.1007/BF00567813|10.1007/BF00567814|10.1007/BF00570681|10.1007/BF00570685|10.1007/BF00570686|10.1007/BF00571230|10.1007/BF00571232|10.1007/BF00575186|10.1007/BF00575189|10.1007/BF00577207|10.1007/BF00579494|10.1007/BF00580082|10.1007/BF00595084|10.1007/BF00598318|10.1007/BF00598366|10.1007/BF00598779|10.1007/BF00600845|10.1007/BF00603427|10.1007/BF00630133|10.1007/BF00630266|10.1007/BF00899143|10.1007/BF00993729|10.1007/BF01134615|10.1007/BF01946434|10.1007/BF02066241|10.1007/BF02098388|10.1007/BF02249699|10.1007/BF02975883|10.1007/BF02976373|10.1007/BF02976556|10.1007/BF02976999|10.1007/PL00010251|10.1007/S007060050230|10.1007/S10600-008-9114-Z|10.1007/S10600-011-0026-Y|10.1016/0031-9422(75)80398-0|10.1016/0031-9422(75)85149-1|10.1016/0031-9422(83)80173-3|10.1016/0031-9422(86)88019-0|10.1016/0031-9422(88)80315-7|10.1016/0031-9422(89)80056-1|10.1016/0031-9422(89)80215-8|10.1016/0031-9422(89)80234-1|10.1016/0031-9422(90)80154-9|10.1016/0031-9422(90)85357-L|10.1016/0031-9422(90)85390-2|10.1016/0031-9422(90)85418-F|10.1016/0031-9422(90)89042-8|10.1016/0031-9422(92)83450-D|10.1016/0031-9422(94)85101-8|10.1016/0031-9422(95)00092-L|10.1016/0031-9422(95)00504-Z|10.1016/0031-9422(95)00625-7|10.1016/0031-9422(96)00232-4|10.1016/0041-5553(76)90065-3|10.1016/0098-8472(91)90043-N|10.1016/0165-7992(90)90123-2|10.1016/0278-6915(83)90231-4|10.1016/0305-1978(88)90011-7|10.1016/0305-1978(88)90076-2|10.1016/0305-1978(94)90036-1|10.1016/0378-8741(89)90033-0|10.1016/0960-894X(96)00315-0|10.1016/B978-0-12-818162-1.00006-7|10.1016/J.BMC.2005.07.050|10.1016/J.BMC.2007.12.021|10.1016/J.BMC.2009.04.023|10.1016/J.CHROMA.2010.04.076|10.1016/J.FITOTE.2007.04.004|10.1016/J.FOODCHEM.2011.09.099|10.1016/J.JEP.2007.05.015|10.1016/J.PHYMED.2008.02.001|10.1016/J.PHYTOCHEM.2003.10.028|10.1016/J.PHYTOCHEM.2005.01.022|10.1016/J.PHYTOCHEM.2011.03.008|10.1016/J.TET.2012.01.007|10.1016/S0007-0785(05)80516-2|10.1016/S0021-9258(18)51679-3|10.1016/S0021-9673(00)00321-6|10.1016/S0021-9673(01)84214-X|10.1016/S0031-9422(00)00419-2|10.1016/S0031-9422(00)80348-9|10.1016/S0031-9422(00)81503-4|10.1016/S0031-9422(00)81759-8|10.1016/S0031-9422(00)81908-1|10.1016/S0031-9422(00)82295-5|10.1016/S0031-9422(00)83503-7|10.1016/S0031-9422(00)84549-5|10.1016/S0031-9422(00)85242-5|10.1016/S0031-9422(00)85511-9|10.1016/S0031-9422(00)85512-0|10.1016/S0031-9422(00)86812-0|10.1016/S0031-9422(00)88988-8|10.1016/S0031-9422(00)90453-9|10.1016/S0031-9422(00)90538-7|10.1016/S0031-9422(00)90663-0|10.1016/S0031-9422(00)94506-0|10.1016/S0031-9422(00)97041-9|10.1016/S0031-9422(00)97421-1|10.1016/S0031-9422(00)97490-9|10.1016/S0031-9422(00)98112-3|10.1016/S0031-9422(01)00248-5|10.1016/S0031-9422(01)00423-X|10.1016/S0031-9422(01)00483-6|10.1016/S0031-9422(02)00748-3|10.1016/S0031-9422(96)00634-6|10.1016/S0031-9422(97)00123-4|10.1016/S0031-9422(97)00292-6|10.1016/S0031-9422(97)00528-1|10.1016/S0031-9422(97)00849-2|10.1016/S0031-9422(98)00520-2|10.1016/S0031-9422(98)00638-4|10.1016/S0031-9422(98)00650-5|10.1016/S0031-9422(99)00072-2|10.1016/S0031-9422(99)00486-0|10.1016/S0031-9422(99)00524-5|10.1016/S0040-4020(01)82304-8|10.1016/S0040-4039(00)72373-2|10.1016/S0040-4039(00)89436-8|10.1016/S0040-4039(01)99141-5|10.1016/S0304-3835(99)00248-7|10.1016/S0305-1978(01)00104-1|10.1016/S0305-1978(97)00116-6|10.1016/S0305-1978(99)00064-2|10.1016/S0367-326X(00)00328-2|10.1016/S0378-8741(98)00137-8|10.1016/j.fitote.2018.04.019|10.1016/j.jep.2007.05.015|10.1021/JF00021A006|10.1021/JF00029A027|10.1021/JF00111A001|10.1021/JF0259361|10.1021/JF0497298|10.1021/JF0713253|10.1021/JF60220A023|10.1021/NP000012Y|10.1021/NP000406P|10.1021/NP0340652|10.1021/NP0401462|10.1021/NP50046A035|10.1021/NP50047A020|10.1021/NP50048A034|10.1021/NP50050A046|10.1021/NP50059A021|10.1021/NP50059A040|10.1021/NP50067A034|10.1021/NP50087A013|10.1021/NP50093A015|10.1021/NP50113A012|10.1021/NP800387W|10.1021/NP8006364|10.1021/NP800689B|10.1021/NP960407A|10.1021/NP9801209|10.1021/NP990522W|10.1038/SJ.BJP.0703433|10.1055/S-0029-1234991|10.1055/S-0031-1282668|10.1055/S-0034-1368568|10.1055/S-0036-1596440|10.1055/S-2001-18858|10.1055/S-2003-45188|10.1055/S-2006-951724|10.1055/S-2006-957398|10.1055/S-2006-957507|10.1055/S-2006-957872|10.1055/S-2006-957985|10.1055/S-2006-957987|10.1055/S-2006-959644|10.1055/S-2006-960082|10.1055/S-2006-960965|10.1055/S-2006-961168|10.1055/S-2006-961917|10.1055/S-2006-961919|10.1055/S-2006-962141|10.1055/S-2006-962751|10.1055/S-2007-969171|10.1055/S-2007-969254|10.1055/S-2007-969587|10.1055/S-2007-969641|10.1055/S-2007-969990|10.1055/S-2007-971481|10.1055/S-2008-1074910|10.1076/1388-0209(200009)3841-AFT308|10.1078/094471103322004794|10.1080/00021369.1977.10862665|10.1080/10286020.2011.572878|10.1080/10286020290019677|10.1080/10286020701273759|10.1080/10412905.1989.9697787|10.1080/10412905.1993.9698257|10.1080/10575639908048490|10.1080/10826079508013961|10.1080/13880200802055800|10.1080/14786419.2010.551769|10.1093/JAOAC/84.4.1135|10.1104/PP.104.1.67|10.1111/J.1432-1033.1983.TB07277.X|10.1111/J.1600-0536.1983.TB04386.X|10.1111/J.1600-0536.1984.TB00164.X|10.1111/J.1600-0536.1989.TB04747.X|10.1135/CCCC19622714|10.1135/CCCC19861509|10.1139/B89-120|10.1139/B91-065|10.1139/B91-212|10.1139/B93-109|10.1139/V62-059|10.1155/2013/974256|10.1186/2191-2858-2-1|10.1211/0022357991777218|10.1246/BCSJ.11.389|10.1248/BPB.24.1012|10.1248/BPB.28.1229|10.1248/BPB.30.1340|10.1248/CPB.28.1782|10.1248/CPB.28.1847|10.1248/CPB.29.2565|10.1248/CPB.31.2712|10.1248/CPB.31.64|10.1248/CPB.38.1084|10.1248/CPB.38.2498|10.1248/CPB.41.926|10.1248/CPB.47.96|10.1248/CPB.49.154|10.1248/CPB.49.877|10.1248/CPB.51.499|10.1248/CPB.53.701|10.1248/CPB.54.897|10.1248/CPB.56.1338|10.1248/CPB.56.839|10.1248/YAKUSHI1947.103.10_1091|10.1248/YAKUSHI1947.73.7_770|10.1248/YAKUSHI1947.85.2_173|10.1248/YAKUSHI1947.87.4_464|10.1248/YAKUSHI1947.87.9_1118|10.1271/BBB1961.41.1263|10.1271/BBB1961.54.2141|10.1351/PAC200173030617|10.1590/S0103-50531997000500016|10.1590/S0103-50532002000200023|10.1590/S0103-50532003000100008|10.1590/S0103-50532012000300015|10.21608/BFSA.2001.65755|10.21608/ZJPS.1994.186597|10.3390/MOLECULES16086339|10.3906/KIM-0810-22|10.3987/COM-99-8782|10.3987/R-1984-02-0333|10.4038/JNSFSR.V17I2.8223|10.4268/CJCMM20101214|10.4315/0362-028X-60.1.72|10.48141/SBJCHEM.V7.N8.1999.52_1999.PDF|10.5012/BKCS.2010.31.04.1081|10.5012/JKCS.2010.54.6.701|10.5840/TPM201675120

>  <synonyms>  (1421) 
nan

>  <cas>  (1421) 
484-20-8

$$$$

     RDKit          2D

 45 50  0  0  0  0  0  0  0  0999 V2000
   -8.4898   -3.9751    0.0000 C   0  0  0  0  0  0  0  0  0  0  0  0
   -7.9813   -2.5640    0.0000 C   0  0  0  0  0  0  0  0  0  0  0  0
   -8.9491   -1.4180    0.0000 C   0  0  0  0  0  0  0  0  0  0  0  0
   -8.4407   -0.0068    0.0000 C   0  0  0  0  0  0  0  0  0  0  0  0
   -6.9643    0.2584    0.0000 C   0  0  0  0  0  0  0  0  0  0  0  0
   -7.9322    1.4044    0.0000 C   0  0  0  0  0  0  0  0  0  0  0  0
   -9.4085    1.1391    0.0000 O   0  0  0  0  0  0  0  0  0  0  0  0
   -7.4237    2.8155    0.0000 O   0  0  0  0  0  0  0  0  0  0  0  0
   -6.4558    1.6696    0.0000 C   0  0  0  0  0  0  0  0  0  0  0  0
   -4.9794    1.9348    0.0000 C   0  0  0  0  0  0  0  0  0  0  0  0
   -4.0116    0.7889    0.0000 C   0  0  0  0  0  0  0  0  0  0  0  0
   -3.0437   -0.3571    0.0000 C   0  0  0  0  0  0  0  0  0  0  0  0
   -4.5201   -0.6223    0.0000 C   0  0  0  0  0  0  0  0  0  0  0  0
   -3.5522   -1.7683    0.0000 C   0  0  0  0  0  0  0  0  0  0  0  0
   -2.0758   -1.5030    0.0000 C   0  0  0  0  0  0  0  0  0  0  0  0
   -1.5673   -0.0919    0.0000 C   0  0  0  0  0  0  0  0  0  0  0  0
   -0.0910    0.1734    0.0000 C   0  0  0  0  0  0  0  0  0  0  0  0
   -0.5994   -1.2378    0.0000 C   0  0  0  0  0  0  0  0  0  0  0  0
    0.8769   -0.9726    0.0000 C   0  0  0  0  0  0  0  0  0  0  0  0
    2.3533   -0.7074    0.0000 C   0  0  0  0  0  0  0  0  0  0  0  0
    3.3212   -1.8533    0.0000 O   0  0  0  0  0  0  0  0  0  0  0  0
    2.8618    0.7038    0.0000 C   0  0  0  0  0  0  0  0  0  0  0  0
    4.3381    0.9690    0.0000 O   0  0  0  0  0  0  0  0  0  0  0  0
    5.3060   -0.1769    0.0000 C   0  0  0  0  0  0  0  0  0  0  0  0
    4.7975   -1.5881    0.0000 O   0  0  0  0  0  0  0  0  0  0  0  0
    6.7824    0.0883    0.0000 C   0  0  0  0  0  0  0  0  0  0  0  0
    7.7503   -1.0576    0.0000 C   0  0  0  0  0  0  0  0  0  0  0  0
    9.2266   -0.7924    0.0000 C   0  0  0  0  0  0  0  0  0  0  0  0
   10.1945   -1.9384    0.0000 C   0  0  0  0  0  0  0  0  0  0  0  0
   11.6709   -1.6731    0.0000 C   0  0  0  0  0  0  0  0  0  0  0  0
   12.1794   -0.2620    0.0000 C   0  0  0  0  0  0  0  0  0  0  0  0
   13.6557    0.0033    0.0000 O   0  0  0  0  0  0  0  0  0  0  0  0
   11.2115    0.8840    0.0000 C   0  0  0  0  0  0  0  0  0  0  0  0
    9.7351    0.6188    0.0000 C   0  0  0  0  0  0  0  0  0  0  0  0
    1.8939    1.8498    0.0000 C   0  0  0  0  0  0  0  0  0  0  0  0
    1.3763    3.2577    0.0000 C   0  0  0  0  0  0  0  0  0  0  0  0
    3.1905    2.6040    0.0000 C   0  0  0  0  0  0  0  0  0  0  0  0
    0.4175    1.5845    0.0000 C   0  0  0  0  0  0  0  0  0  0  0  0
   -0.5503    2.7305    0.0000 C   0  0  0  0  0  0  0  0  0  0  0  0
   -2.0267    2.4653    0.0000 C   0  0  0  0  0  0  0  0  0  0  0  0
   -2.5352    1.0541    0.0000 C   0  0  0  0  0  0  0  0  0  0  0  0
   -3.5031    2.2000    0.0000 C   0  0  0  0  0  0  0  0  0  0  0  0
   -5.9964   -0.8875    0.0000 C   0  0  0  0  0  0  0  0  0  0  0  0
   -6.5049   -2.2987    0.0000 C   0  0  0  0  0  0  0  0  0  0  0  0
   -5.5370   -3.4447    0.0000 C   0  0  0  0  0  0  0  0  0  0  0  0
  2  1  1  6
  2  3  1  0
  3  4  1  0
  4  5  1  0
  5  6  1  1
  6  7  2  0
  6  8  1  0
  5  9  1  0
  9 10  1  0
 10 11  1  0
 11 12  1  6
 11 13  1  0
 13 14  2  0
 14 15  1  0
 15 16  1  0
 16 17  1  0
 17 18  1  1
 17 19  1  0
 19 20  1  0
 20 21  1  1
 20 22  1  0
 22 23  1  6
 23 24  1  0
 24 25  2  0
 24 26  1  0
 26 27  2  0
 27 28  1  0
 28 29  2  0
 29 30  1  0
 30 31  2  0
 31 32  1  0
 31 33  1  0
 33 34  2  0
 22 35  1  0
 35 36  1  0
 35 37  1  0
 35 38  1  0
 38 39  1  0
 39 40  1  0
 40 41  1  0
 41 42  1  1
 13 43  1  0
 43 44  1  0
 44 45  1  1
 44  2  1  0
 43  5  1  0
 41 11  1  0
 41 16  1  0
 38 17  1  0
 34 28  1  0
M  END
>  <identifier>  (1422) 
CNP0290993.5

>  <canonical_smiles>  (1422) 
C[C@@H]1CC[C@]2(C(=O)O)CC[C@]3(C)C(=CCC4[C@@]5(C)C[C@H](O)[C@@H](OC(=O)/C=C/C6=CC=C(O)C=C6)C(C)(C)C5CC[C@]43C)C2[C@H]1C

>  <standard_inchi>  (1422) 
InChI=1S/C39H54O6/c1-23-16-19-39(34(43)44)21-20-37(6)27(32(39)24(23)2)13-14-30-36(5)22-28(41)33(35(3,4)29(36)17-18-38(30,37)7)45-31(42)15-10-25-8-11-26(40)12-9-25/h8-13,15,23-24,28-30,32-33,40-41H,14,16-22H2,1-7H3,(H,43,44)/b15-10+/t23-,24+,28+,29?,30?,32?,33-,36+,37-,38-,39+/m1/s1

>  <standard_inchi_key>  (1422) 
FEVUQLLYZLSRLB-ABHSXMDCSA-N

>  <name>  (1422) 
nan

>  <iupac_name>  (1422) 
(1~{S},2~{R},4~{a}~{S},6~{a}~{S},6~{b}~{R},10~{S},11~{S},12~{a}~{R})-11-hydroxy-10-[(~{E})-3-(4-hydroxyphenyl)prop-2-enoyl]oxy-1,2,6~{a},6~{b},9,9,12~{a}-heptamethyl-2,3,4,5,6,6~{a},7,8,8~{a},10,11,12,13,14~{b}-tetradecahydro-1~{H}-picene-4~{a}-carboxylic acid

>  <annotation_level>  (1422) 
4

>  <total_atom_count>  (1422) 
99

>  <heavy_atom_count>  (1422) 
45

>  <molecular_weight>  (1422) 
618.86

>  <exact_molecular_weight>  (1422) 
618.39204

>  <molecular_formula>  (1422) 
C39H54O6

>  <alogp>  (1422) 
8.03

>  <topological_polar_surface_area>  (1422) 
104.06

>  <rotatable_bond_count>  (1422) 
4

>  <hydrogen_bond_acceptors>  (1422) 
5

>  <hydrogen_bond_donors>  (1422) 
3

>  <hydrogen_bond_acceptors_lipinski>  (1422) 
5

>  <hydrogen_bond_donors_lipinski>  (1422) 
3

>  <lipinski_rule_of_five_violations>  (1422) 
2

>  <aromatic_rings_count>  (1422) 
1

>  <qed_drug_likeliness>  (1422) 
0.18

>  <formal_charge>  (1422) 
0

>  <fractioncsp3>  (1422) 
0.69

>  <number_of_minimal_rings>  (1422) 
6

>  <van_der_walls_volume>  (1422) 
nan

>  <contains_sugar>  (1422) 
False

>  <contains_ring_sugars>  (1422) 
False

>  <contains_linear_sugars>  (1422) 
False

>  <murcko_framework>  (1422) 
O(CC=Cc1ccccc1)C2CCC3C(CCC4C5C(=CCC43)C6CCCCC6CC5)C2

>  <np_likeness>  (1422) 
2.83

>  <chemical_class>  (1422) 
Prenol lipids

>  <chemical_sub_class>  (1422) 
Triterpenoids

>  <chemical_super_class>  (1422) 
Lipids and lipid-like molecules

>  <direct_parent_classification>  (1422) 
Taraxastane, ursane, and bauerane triterpenoids

>  <np_classifier_pathway>  (1422) 
Terpenoids

>  <np_classifier_superclass>  (1422) 
Triterpenoids

>  <np_classifier_class>  (1422) 
Ursane and Taraxastane triterpenoids

>  <np_classifier_is_glycoside>  (1422) 
False

>  <organisms>  (1422) 
Styrax camporum

>  <collections>  (1422) 
Latin America dataset|NuBBEDB|WikiData Natural Products

>  <dois>  (1422) 
10.1590/S0100-40422002000300002

>  <synonyms>  (1422) 
3\u221a\u00e9\u00ac\u2264-O-trans-p-coumaroyl-2\u221a\u00e9\u00ac\u00b1-hydroxy-urs-12-en-28-oic acid

>  <cas>  (1422) 
nan

$$$$

     RDKit          2D

 42 48  0  0  0  0  0  0  0  0999 V2000
    1.1983   -4.4132    0.0000 C   0  0  0  0  0  0  0  0  0  0  0  0
    0.8504   -2.9541    0.0000 O   0  0  0  0  0  0  0  0  0  0  0  0
   -0.5871   -2.5258    0.0000 C   0  0  0  0  0  0  0  0  0  0  0  0
   -1.3950   -3.7897    0.0000 O   0  0  0  0  0  0  0  0  0  0  0  0
   -0.9350   -1.0667    0.0000 C   0  0  0  0  0  0  0  0  0  0  0  0
    0.1547   -0.0359    0.0000 O   0  0  0  0  0  0  0  0  0  0  0  0
   -2.3725   -0.6384    0.0000 C   0  0  0  0  0  0  0  0  0  0  0  0
   -3.5640   -1.5497    0.0000 C   0  0  0  0  0  0  0  0  0  0  0  0
   -4.6134   -2.6215    0.0000 C   0  0  0  0  0  0  0  0  0  0  0  0
   -3.9675   -0.1049    0.0000 C   0  0  0  0  0  0  0  0  0  0  0  0
   -2.9181    0.9669    0.0000 C   0  0  0  0  0  0  0  0  0  0  0  0
   -3.3216    2.4116    0.0000 O   0  0  0  0  0  0  0  0  0  0  0  0
   -4.7745    2.7845    0.0000 C   0  0  0  0  0  0  0  0  0  0  0  0
   -5.1780    4.2292    0.0000 C   0  0  0  0  0  0  0  0  0  0  0  0
   -5.8239    1.7127    0.0000 O   0  0  0  0  0  0  0  0  0  0  0  0
   -1.4652    0.5939    0.0000 C   0  0  0  0  0  0  0  0  0  0  0  0
   -1.0617   -0.8508    0.0000 C   0  0  0  0  0  0  0  0  0  0  0  0
   -0.5094   -2.2454    0.0000 O   0  0  0  0  0  0  0  0  0  0  0  0
   -1.4410   -3.4210    0.0000 C   0  0  0  0  0  0  0  0  0  0  0  0
    0.4370   -0.9135    0.0000 O   0  0  0  0  0  0  0  0  0  0  0  0
    0.9597    0.4925    0.0000 C   0  0  0  0  0  0  0  0  0  0  0  0
    0.7407   -0.9914    0.0000 C   0  0  0  0  0  0  0  0  0  0  0  0
    1.9164   -1.9230    0.0000 C   0  0  0  0  0  0  0  0  0  0  0  0
    1.6974   -3.4070    0.0000 O   0  0  0  0  0  0  0  0  0  0  0  0
    3.3110   -1.3707    0.0000 O   0  0  0  0  0  0  0  0  0  0  0  0
    3.5300    0.1132    0.0000 C   0  0  0  0  0  0  0  0  0  0  0  0
    4.9246    0.6655    0.0000 C   0  0  0  0  0  0  0  0  0  0  0  0
    5.2975    2.1184    0.0000 C   0  0  0  0  0  0  0  0  0  0  0  0
    6.7945    2.2127    0.0000 O   0  0  0  0  0  0  0  0  0  0  0  0
    7.3468    0.8181    0.0000 C   0  0  0  0  0  0  0  0  0  0  0  0
    6.1911   -0.1381    0.0000 C   0  0  0  0  0  0  0  0  0  0  0  0
    2.3543    1.0448    0.0000 C   0  0  0  0  0  0  0  0  0  0  0  0
    3.7490    1.5971    0.0000 C   0  0  0  0  0  0  0  0  0  0  0  0
    2.5733    2.5288    0.0000 C   0  0  0  0  0  0  0  0  0  0  0  0
    1.3977    3.4604    0.0000 C   0  0  0  0  0  0  0  0  0  0  0  0
    0.0031    2.9081    0.0000 C   0  0  0  0  0  0  0  0  0  0  0  0
   -2.3954    2.3728    0.0000 C   0  0  0  0  0  0  0  0  0  0  0  0
   -3.2256    3.6221    0.0000 C   0  0  0  0  0  0  0  0  0  0  0  0
   -0.2159    1.4241    0.0000 C   0  0  0  0  0  0  0  0  0  0  0  0
   -1.4825    2.2278    0.0000 O   0  0  0  0  0  0  0  0  0  0  0  0
   -2.1111   -1.9226    0.0000 C   0  0  0  0  0  0  0  0  0  0  0  0
   -2.0692   -3.4220    0.0000 O   0  0  0  0  0  0  0  0  0  0  0  0
  1  2  1  0
  2  3  1  0
  3  4  2  0
  3  5  1  0
  5  6  1  6
  7  5  1  1
  7  8  1  0
  8  9  1  1
  8 10  1  0
 10 11  1  0
 11 12  1  6
 12 13  1  0
 13 14  1  0
 13 15  2  0
 11 16  1  0
 16 17  1  1
 17 18  1  6
 18 19  1  0
 17 20  1  0
 20 21  1  0
 21 22  1  6
 22 23  1  0
 23 24  2  0
 23 25  1  0
 25 26  1  0
 26 27  1  6
 27 28  2  0
 28 29  1  0
 29 30  1  0
 30 31  2  0
 26 32  1  0
 32 33  1  6
 32 34  1  0
 34 35  1  0
 35 36  1  0
 36 37  1  0
 37 38  1  1
 36 39  1  0
 39 40  1  6
 17 41  1  0
 41 42  1  1
 37  7  1  0
 41  8  1  0
 37 11  1  0
 39 16  1  0
 32 21  1  0
 39 21  1  0
 31 27  1  0
M  END
>  <identifier>  (1423) 
CNP0271226.2

>  <canonical_smiles>  (1423) 
COC(=O)[C@@H](O)[C@H]1[C@@]2(C)C[C@]3(OC(C)=O)[C@@H]4[C@@](OC)(O[C@]56CC(=O)O[C@@H](C7=COC=C7)[C@]5(C)CCC([C@]13C)[C@]46O)[C@H]2O

>  <standard_inchi>  (1423) 
InChI=1S/C30H38O12/c1-14(31)41-27-13-24(2)19(18(33)21(34)37-5)26(27,4)16-7-9-25(3)20(15-8-10-39-12-15)40-17(32)11-28(25)29(16,36)22(27)30(38-6,42-28)23(24)35/h8,10,12,16,18-20,22-23,33,35-36H,7,9,11,13H2,1-6H3/t16?,18-,19-,20-,22-,23-,24+,25-,26+,27-,28+,29-,30+/m0/s1

>  <standard_inchi_key>  (1423) 
LTIVEUMKJFYIQE-WSQGANPESA-N

>  <name>  (1423) 
nan

>  <iupac_name>  (1423) 
methyl (2~{S})-2-[(1~{S},2~{R},3~{S},7~{S},8~{S},12~{R},14~{R},15~{S},16~{R},17~{S},18~{S})-1-acetoxy-8-(3-furyl)-3,15-dihydroxy-14-methoxy-7,16,18-trimethyl-10-oxo-9,13-dioxahexacyclo[14.2.1.0^{2,14}.0^{3,12}.0^{4,18}.0^{7,12}]nonadecan-17-yl]-2-hydroxy-acetate

>  <annotation_level>  (1423) 
4

>  <total_atom_count>  (1423) 
80

>  <heavy_atom_count>  (1423) 
42

>  <molecular_weight>  (1423) 
590.62

>  <exact_molecular_weight>  (1423) 
590.23633

>  <molecular_formula>  (1423) 
C30H38O12

>  <alogp>  (1423) 
1.40

>  <topological_polar_surface_area>  (1423) 
171.19

>  <rotatable_bond_count>  (1423) 
5

>  <hydrogen_bond_acceptors>  (1423) 
12

>  <hydrogen_bond_donors>  (1423) 
3

>  <hydrogen_bond_acceptors_lipinski>  (1423) 
12

>  <hydrogen_bond_donors_lipinski>  (1423) 
3

>  <lipinski_rule_of_five_violations>  (1423) 
2

>  <aromatic_rings_count>  (1423) 
1

>  <qed_drug_likeliness>  (1423) 
0.33

>  <formal_charge>  (1423) 
0

>  <fractioncsp3>  (1423) 
0.77

>  <number_of_minimal_rings>  (1423) 
7

>  <van_der_walls_volume>  (1423) 
nan

>  <contains_sugar>  (1423) 
False

>  <contains_ring_sugars>  (1423) 
False

>  <contains_linear_sugars>  (1423) 
False

>  <murcko_framework>  (1423) 
o1ccc(c1)C2OCCC34OC5CC6CC7C(CCC23)C4C5C7C6

>  <np_likeness>  (1423) 
3.05

>  <chemical_class>  (1423) 
Carboxylic acids and derivatives

>  <chemical_sub_class>  (1423) 
Tricarboxylic acids and derivatives

>  <chemical_super_class>  (1423) 
Organic acids and derivatives

>  <direct_parent_classification>  (1423) 
Tricarboxylic acids and derivatives

>  <np_classifier_pathway>  (1423) 
Terpenoids

>  <np_classifier_superclass>  (1423) 
Triterpenoids

>  <np_classifier_class>  (1423) 
Limonoids

>  <np_classifier_is_glycoside>  (1423) 
True

>  <organisms>  (1423) 
Khaya senegalensis

>  <collections>  (1423) 
Latin America dataset|NuBBEDB

>  <dois>  (1423) 
10.1016/S0031-9422(96)00571-7

>  <synonyms>  (1423) 
Methyl 1\u221a\u00e9\u00ac\u00b1-acetoxy-3\u221a\u00e9\u00ac\u226468\u221a\u00e9\u00ac\u00b1-trihydroxy-2\u221a\u00e9\u00ac\u00b1-methoxy-2\u221a\u00e9\u00ac\u226414\u221a\u00e9\u00ac\u2264-epoxy-[4.2.11030.114]-tricyclomeliac-7-oate

>  <cas>  (1423) 
nan

$$$$

     RDKit          2D

 18 21  0  0  0  0  0  0  0  0999 V2000
   -3.6245   -2.4653    0.0000 O   0  0  0  0  0  0  0  0  0  0  0  0
   -3.3119   -0.9983    0.0000 C   0  0  0  0  0  0  0  0  0  0  0  0
   -4.4261    0.0060    0.0000 C   0  0  0  0  0  0  0  0  0  0  0  0
   -4.1134    1.4731    0.0000 C   0  0  0  0  0  0  0  0  0  0  0  0
   -2.6866    1.9358    0.0000 C   0  0  0  0  0  0  0  0  0  0  0  0
   -1.5724    0.9315    0.0000 C   0  0  0  0  0  0  0  0  0  0  0  0
   -0.1456    1.3943    0.0000 C   0  0  0  0  0  0  0  0  0  0  0  0
   -0.4582   -0.0728    0.0000 C   0  0  0  0  0  0  0  0  0  0  0  0
    0.6559   -1.0770    0.0000 C   0  0  0  0  0  0  0  0  0  0  0  0
   -0.7709   -1.5398    0.0000 C   0  0  0  0  0  0  0  0  0  0  0  0
   -1.8851   -0.5355    0.0000 N   0  0  0  0  0  0  0  0  0  0  0  0
    2.0828   -0.6143    0.0000 C   0  0  0  0  0  0  0  0  0  0  0  0
    3.1970   -1.6186    0.0000 C   0  0  0  0  0  0  0  0  0  0  0  0
    4.6238   -1.1558    0.0000 C   0  0  0  0  0  0  0  0  0  0  0  0
    4.9364    0.3113    0.0000 C   0  0  0  0  0  0  0  0  0  0  0  0
    3.8223    1.3156    0.0000 C   0  0  0  0  0  0  0  0  0  0  0  0
    2.3954    0.8528    0.0000 N   0  0  0  0  0  0  0  0  0  0  0  0
    1.2812    1.8571    0.0000 C   0  0  0  0  0  0  0  0  0  0  0  0
  1  2  2  0
  2  3  1  0
  3  4  1  0
  4  5  1  0
  5  6  1  0
  6  7  1  0
  7  8  1  0
  8  9  1  0
  9 10  1  6
 10 11  1  0
  9 12  1  0
 12 13  1  0
 13 14  1  0
 14 15  1  0
 15 16  1  0
 16 17  1  0
 17 18  1  0
 11  2  1  0
 17 12  1  0
 11  6  1  0
  7 18  1  1
M  END
>  <identifier>  (1424) 
CNP0332908.9

>  <canonical_smiles>  (1424) 
O=C1CCCC2[C@@H]3C[C@@H](CN12)C1CCCCN1C3

>  <standard_inchi>  (1424) 
InChI=1S/C15H24N2O/c18-15-6-3-5-14-11-8-12(10-17(14)15)13-4-1-2-7-16(13)9-11/h11-14H,1-10H2/t11-,12+,13?,14?/m1/s1

>  <standard_inchi_key>  (1424) 
JYIJIIVLEOETIQ-KBHBFKLGSA-N

>  <name>  (1424) 
nan

>  <iupac_name>  (1424) 
(1~{R},9~{S})-7,15-diazatetracyclo[7.7.1.0^{2,7}.0^{10,15}]heptadecan-6-one

>  <annotation_level>  (1424) 
4

>  <total_atom_count>  (1424) 
42

>  <heavy_atom_count>  (1424) 
18

>  <molecular_weight>  (1424) 
248.37

>  <exact_molecular_weight>  (1424) 
248.18886

>  <molecular_formula>  (1424) 
C15H24N2O

>  <alogp>  (1424) 
1.87

>  <topological_polar_surface_area>  (1424) 
23.55

>  <rotatable_bond_count>  (1424) 
0

>  <hydrogen_bond_acceptors>  (1424) 
2

>  <hydrogen_bond_donors>  (1424) 
0

>  <hydrogen_bond_acceptors_lipinski>  (1424) 
2

>  <hydrogen_bond_donors_lipinski>  (1424) 
0

>  <lipinski_rule_of_five_violations>  (1424) 
0

>  <aromatic_rings_count>  (1424) 
0

>  <qed_drug_likeliness>  (1424) 
0.65

>  <formal_charge>  (1424) 
0

>  <fractioncsp3>  (1424) 
0.93

>  <number_of_minimal_rings>  (1424) 
4

>  <van_der_walls_volume>  (1424) 
nan

>  <contains_sugar>  (1424) 
False

>  <contains_ring_sugars>  (1424) 
False

>  <contains_linear_sugars>  (1424) 
False

>  <murcko_framework>  (1424) 
N12CCCCC1C3CN4CCCCC4C(C2)C3

>  <np_likeness>  (1424) 
0.93

>  <chemical_class>  (1424) 
Lupin alkaloids

>  <chemical_sub_class>  (1424) 
Sparteine, lupanine, and related alkaloids

>  <chemical_super_class>  (1424) 
Alkaloids and derivatives

>  <direct_parent_classification>  (1424) 
Sparteine, lupanine, and related alkaloids

>  <np_classifier_pathway>  (1424) 
Alkaloids

>  <np_classifier_superclass>  (1424) 
Lysine alkaloids

>  <np_classifier_class>  (1424) 
Quinolizidine alkaloids

>  <np_classifier_is_glycoside>  (1424) 
False

>  <organisms>  (1424) 
Acosmium dasycarpum

>  <collections>  (1424) 
Latin America dataset|NuBBEDB

>  <dois>  (1424) 
10.1016/j.tetlet.2008.06.124

>  <synonyms>  (1424) 
lupanine

>  <cas>  (1424) 
nan

$$$$

     RDKit          2D

 22 26  0  0  0  0  0  0  0  0999 V2000
    3.5072    0.3220    0.0000 C   0  0  0  0  0  0  0  0  0  0  0  0
    2.0099    0.2325    0.0000 C   0  0  0  0  0  0  0  0  0  0  0  0
    2.5371    1.6368    0.0000 C   0  0  0  0  0  0  0  0  0  0  0  0
    3.9831    2.0357    0.0000 O   0  0  0  0  0  0  0  0  0  0  0  0
    1.3645    2.5721    0.0000 O   0  0  0  0  0  0  0  0  0  0  0  0
    0.1125    1.7459    0.0000 C   0  0  0  0  0  0  0  0  0  0  0  0
   -1.3919    1.8287    0.0000 C   0  0  0  0  0  0  0  0  0  0  0  0
   -2.3273    0.6560    0.0000 C   0  0  0  0  0  0  0  0  0  0  0  0
   -1.7794   -0.7403    0.0000 C   0  0  0  0  0  0  0  0  0  0  0  0
   -2.7148   -1.9130    0.0000 C   0  0  0  0  0  0  0  0  0  0  0  0
   -4.1980   -1.6892    0.0000 C   0  0  0  0  0  0  0  0  0  0  0  0
   -4.7459   -0.2929    0.0000 C   0  0  0  0  0  0  0  0  0  0  0  0
   -3.8105    0.8798    0.0000 C   0  0  0  0  0  0  0  0  0  0  0  0
   -4.3584    2.2761    0.0000 O   0  0  0  0  0  0  0  0  0  0  0  0
   -0.2962   -0.9641    0.0000 C   0  0  0  0  0  0  0  0  0  0  0  0
    0.3946   -2.2955    0.0000 C   0  0  0  0  0  0  0  0  0  0  0  0
    1.8931   -2.3630    0.0000 C   0  0  0  0  0  0  0  0  0  0  0  0
    2.7007   -1.0990    0.0000 C   0  0  0  0  0  0  0  0  0  0  0  0
    4.1992   -1.1664    0.0000 O   0  0  0  0  0  0  0  0  0  0  0  0
    1.8820   -1.0116    0.0000 O   0  0  0  0  0  0  0  0  0  0  0  0
    0.5271   -0.9506    0.0000 C   0  0  0  0  0  0  0  0  0  0  0  0
    0.5114    0.2999    0.0000 C   0  0  0  0  0  0  0  0  0  0  0  0
  2  1  1  6
  2  3  1  0
  3  4  2  0
  3  5  1  0
  5  6  1  0
  6  7  1  1
  7  8  1  0
  8  9  1  0
  9 10  1  0
 10 11  1  0
 11 12  1  0
 12 13  1  0
 13 14  1  6
 15  9  1  1
 15 16  1  0
 16 17  1  0
 17 18  1  0
 18 19  1  6
 18 20  1  0
 20 21  1  0
 15 22  1  0
 18  2  1  0
 22  2  1  0
 22  6  1  0
 13  8  1  0
 21 15  1  0
M  END
>  <identifier>  (1425) 
CNP0107178.2

>  <canonical_smiles>  (1425) 
C[C@]12C(=O)O[C@@H]3CC4C(CCC[C@@H]4O)[C@@]4(CC[C@@]1(O)OC4)C32

>  <standard_inchi>  (1425) 
InChI=1S/C17H24O5/c1-15-13-12(22-14(15)19)7-9-10(3-2-4-11(9)18)16(13)5-6-17(15,20)21-8-16/h9-13,18,20H,2-8H2,1H3/t9?,10?,11-,12+,13?,15-,16-,17+/m0/s1

>  <standard_inchi_key>  (1425) 
BGJDWCQXJDACLG-KDUGWNFGSA-N

>  <name>  (1425) 
nan

>  <iupac_name>  (1425) 
(1~{S},6~{S},9~{R},12~{R},13~{R})-6,13-dihydroxy-12-methyl-10,14-dioxapentacyclo[11.2.2.1^{1,9}.0^{2,7}.0^{12,18}]octadecan-11-one

>  <annotation_level>  (1425) 
4

>  <total_atom_count>  (1425) 
46

>  <heavy_atom_count>  (1425) 
22

>  <molecular_weight>  (1425) 
308.37

>  <exact_molecular_weight>  (1425) 
308.16237

>  <molecular_formula>  (1425) 
C17H24O5

>  <alogp>  (1425) 
1.21

>  <topological_polar_surface_area>  (1425) 
75.99

>  <rotatable_bond_count>  (1425) 
0

>  <hydrogen_bond_acceptors>  (1425) 
5

>  <hydrogen_bond_donors>  (1425) 
2

>  <hydrogen_bond_acceptors_lipinski>  (1425) 
5

>  <hydrogen_bond_donors_lipinski>  (1425) 
2

>  <lipinski_rule_of_five_violations>  (1425) 
0

>  <aromatic_rings_count>  (1425) 
0

>  <qed_drug_likeliness>  (1425) 
0.66

>  <formal_charge>  (1425) 
0

>  <fractioncsp3>  (1425) 
0.94

>  <number_of_minimal_rings>  (1425) 
6

>  <van_der_walls_volume>  (1425) 
nan

>  <contains_sugar>  (1425) 
False

>  <contains_ring_sugars>  (1425) 
False

>  <contains_linear_sugars>  (1425) 
False

>  <murcko_framework>  (1425) 
O1CC2C3OCC4(CC3)C5CCCCC5CC1C24

>  <np_likeness>  (1425) 
3.27

>  <chemical_class>  (1425) 
Naphthopyrans

>  <chemical_sub_class>  (1425) 
Naphthopyrans

>  <chemical_super_class>  (1425) 
Organoheterocyclic compounds

>  <direct_parent_classification>  (1425) 
Naphthopyrans

>  <np_classifier_pathway>  (1425) 
Terpenoids

>  <np_classifier_superclass>  (1425) 
Diterpenoids

>  <np_classifier_class>  (1425) 
Norpimarane and Norisopimarane diterpenoids

>  <np_classifier_is_glycoside>  (1425) 
True

>  <organisms>  (1425) 
Humirianthera rupestris

>  <collections>  (1425) 
Latin America dataset|NuBBEDB

>  <dois>  (1425) 
10.1016/S0031-9422(00)98552-2

>  <synonyms>  (1425) 
Humirianthenolide B

>  <cas>  (1425) 
nan

$$$$

     RDKit          2D

 18 21  0  0  0  0  0  0  0  0999 V2000
   -1.5219    0.4226    0.0000 C   0  0  0  0  0  0  0  0  0  0  0  0
   -3.0219    0.4311    0.0000 C   0  0  0  0  0  0  0  0  0  0  0  0
   -3.0133    1.9311    0.0000 C   0  0  0  0  0  0  0  0  0  0  0  0
   -1.7100    2.6737    0.0000 C   0  0  0  0  0  0  0  0  0  0  0  0
   -0.4153    1.9163    0.0000 C   0  0  0  0  0  0  0  0  0  0  0  0
   -0.4238    0.4163    0.0000 C   0  0  0  0  0  0  0  0  0  0  0  0
    0.9500    1.0186    0.0000 C   0  0  0  0  0  0  0  0  0  0  0  0
    0.6852   -0.5938    0.0000 C   0  0  0  0  0  0  0  0  0  0  0  0
    2.1541   -0.2903    0.0000 C   0  0  0  0  0  0  0  0  0  0  0  0
    2.7720    1.0765    0.0000 C   0  0  0  0  0  0  0  0  0  0  0  0
    4.2629    0.9112    0.0000 O   0  0  0  0  0  0  0  0  0  0  0  0
    4.5664   -0.5577    0.0000 C   0  0  0  0  0  0  0  0  0  0  0  0
    3.2631   -1.3003    0.0000 C   0  0  0  0  0  0  0  0  0  0  0  0
    0.0672   -1.9606    0.0000 O   0  0  0  0  0  0  0  0  0  0  0  0
   -1.4236   -1.7953    0.0000 C   0  0  0  0  0  0  0  0  0  0  0  0
   -2.4337   -2.9042    0.0000 O   0  0  0  0  0  0  0  0  0  0  0  0
   -1.7271   -0.3263    0.0000 C   0  0  0  0  0  0  0  0  0  0  0  0
   -3.0304   -1.0689    0.0000 O   0  0  0  0  0  0  0  0  0  0  0  0
  2  1  1  1
  2  3  1  0
  3  4  1  0
  4  5  1  0
  5  6  1  0
  6  7  1  6
  6  8  1  0
  8  9  1  6
  9 10  2  0
 10 11  1  0
 11 12  1  0
 12 13  2  0
  8 14  1  0
 14 15  1  0
 15 16  2  0
 15 17  1  0
 17 18  1  6
 17  2  1  0
 18  2  1  0
 17  6  1  0
 13  9  1  0
M  END
>  <identifier>  (1426) 
CNP0080668.1

>  <canonical_smiles>  (1426) 
C[C@@]12CCC[C@@]3(C)[C@H](C4=COC=C4)OC(=O)[C@@]13O2

>  <standard_inchi>  (1426) 
InChI=1S/C14H16O4/c1-12-5-3-6-13(2)14(12,18-13)11(15)17-10(12)9-4-7-16-8-9/h4,7-8,10H,3,5-6H2,1-2H3/t10-,12-,13+,14-/m0/s1

>  <standard_inchi_key>  (1426) 
NDMIZRIRLYWQSW-DEQVHRJGSA-N

>  <name>  (1426) 
nan

>  <iupac_name>  (1426) 
(1~{S},3~{R},7~{S},8~{S})-8-(3-furyl)-3,7-dimethyl-2,9-dioxatricyclo[5.3.0.0^{1,3}]decan-10-one

>  <annotation_level>  (1426) 
4

>  <total_atom_count>  (1426) 
34

>  <heavy_atom_count>  (1426) 
18

>  <molecular_weight>  (1426) 
248.28

>  <exact_molecular_weight>  (1426) 
248.10486

>  <molecular_formula>  (1426) 
C14H16O4

>  <alogp>  (1426) 
2.60

>  <topological_polar_surface_area>  (1426) 
51.97

>  <rotatable_bond_count>  (1426) 
1

>  <hydrogen_bond_acceptors>  (1426) 
4

>  <hydrogen_bond_donors>  (1426) 
0

>  <hydrogen_bond_acceptors_lipinski>  (1426) 
4

>  <hydrogen_bond_donors_lipinski>  (1426) 
0

>  <lipinski_rule_of_five_violations>  (1426) 
0

>  <aromatic_rings_count>  (1426) 
1

>  <qed_drug_likeliness>  (1426) 
0.57

>  <formal_charge>  (1426) 
0

>  <fractioncsp3>  (1426) 
0.64

>  <number_of_minimal_rings>  (1426) 
4

>  <van_der_walls_volume>  (1426) 
nan

>  <contains_sugar>  (1426) 
False

>  <contains_ring_sugars>  (1426) 
False

>  <contains_linear_sugars>  (1426) 
False

>  <murcko_framework>  (1426) 
o1ccc(c1)C2OCC34OC4CCCC23

>  <np_likeness>  (1426) 
2.50

>  <chemical_class>  (1426) 
Oxepanes

>  <chemical_sub_class>  (1426) 
Oxepanes

>  <chemical_super_class>  (1426) 
Organoheterocyclic compounds

>  <direct_parent_classification>  (1426) 
Oxepanes

>  <np_classifier_pathway>  (1426) 
Terpenoids

>  <np_classifier_superclass>  (1426) 
Sesquiterpenoids

>  <np_classifier_class>  (1426) 
nan

>  <np_classifier_is_glycoside>  (1426) 
False

>  <organisms>  (1426) 
Raulinoa echinata

>  <collections>  (1426) 
Latin America dataset|NuBBEDB|WikiData Natural Products

>  <dois>  (1426) 
10.1590/S0103-50532005000800025

>  <synonyms>  (1426) 
epoxy-fraxinellone

>  <cas>  (1426) 
nan

$$$$

     RDKit          2D

 35 39  0  0  0  0  0  0  0  0999 V2000
   -5.2874   -3.2998    0.0000 C   0  0  0  0  0  0  0  0  0  0  0  0
   -5.5225   -1.8183    0.0000 C   0  0  0  0  0  0  0  0  0  0  0  0
   -6.9406   -2.3071    0.0000 C   0  0  0  0  0  0  0  0  0  0  0  0
   -6.2502   -0.5066    0.0000 C   0  0  0  0  0  0  0  0  0  0  0  0
   -5.4780    0.7794    0.0000 C   0  0  0  0  0  0  0  0  0  0  0  0
   -3.9782    0.7537    0.0000 C   0  0  0  0  0  0  0  0  0  0  0  0
   -4.7059    2.0654    0.0000 C   0  0  0  0  0  0  0  0  0  0  0  0
   -6.2057    2.0911    0.0000 O   0  0  0  0  0  0  0  0  0  0  0  0
   -3.9337    3.3514    0.0000 O   0  0  0  0  0  0  0  0  0  0  0  0
   -3.2061    2.0397    0.0000 C   0  0  0  0  0  0  0  0  0  0  0  0
   -1.7063    2.0140    0.0000 C   0  0  0  0  0  0  0  0  0  0  0  0
   -0.9787    0.7023    0.0000 C   0  0  0  0  0  0  0  0  0  0  0  0
   -0.2510   -0.6094    0.0000 C   0  0  0  0  0  0  0  0  0  0  0  0
   -1.7508   -0.5837    0.0000 C   0  0  0  0  0  0  0  0  0  0  0  0
   -1.0232   -1.8954    0.0000 C   0  0  0  0  0  0  0  0  0  0  0  0
    0.4766   -1.9211    0.0000 C   0  0  0  0  0  0  0  0  0  0  0  0
    1.2487   -0.6351    0.0000 C   0  0  0  0  0  0  0  0  0  0  0  0
    2.7485   -0.6608    0.0000 C   0  0  0  0  0  0  0  0  0  0  0  0
    1.9764   -1.9468    0.0000 C   0  0  0  0  0  0  0  0  0  0  0  0
    3.4762   -1.9725    0.0000 C   0  0  0  0  0  0  0  0  0  0  0  0
    4.9759   -1.9981    0.0000 C   0  0  0  0  0  0  0  0  0  0  0  0
    5.7036   -3.3098    0.0000 O   0  0  0  0  0  0  0  0  0  0  0  0
    5.7481   -0.7121    0.0000 C   0  0  0  0  0  0  0  0  0  0  0  0
    7.2479   -0.7378    0.0000 O   0  0  0  0  0  0  0  0  0  0  0  0
    5.0204    0.5995    0.0000 C   0  0  0  0  0  0  0  0  0  0  0  0
    4.7853    2.0810    0.0000 C   0  0  0  0  0  0  0  0  0  0  0  0
    6.4386    1.0884    0.0000 C   0  0  0  0  0  0  0  0  0  0  0  0
    6.7243    2.5609    0.0000 O   0  0  0  0  0  0  0  0  0  0  0  0
    3.5207    0.6252    0.0000 C   0  0  0  0  0  0  0  0  0  0  0  0
    2.7930    1.9369    0.0000 C   0  0  0  0  0  0  0  0  0  0  0  0
    1.2932    1.9626    0.0000 C   0  0  0  0  0  0  0  0  0  0  0  0
    0.5211    0.6766    0.0000 C   0  0  0  0  0  0  0  0  0  0  0  0
   -0.2065    1.9883    0.0000 C   0  0  0  0  0  0  0  0  0  0  0  0
   -3.2506   -0.5580    0.0000 C   0  0  0  0  0  0  0  0  0  0  0  0
   -4.0227   -1.8440    0.0000 C   0  0  0  0  0  0  0  0  0  0  0  0
  1  2  1  0
  2  3  1  0
  2  4  1  0
  4  5  1  0
  5  6  1  0
  6  7  1  1
  7  8  2  0
  7  9  1  0
  6 10  1  0
 10 11  1  0
 11 12  1  0
 12 13  1  6
 12 14  1  0
 14 15  2  0
 15 16  1  0
 16 17  1  0
 17 18  1  0
 18 19  1  1
 18 20  1  0
 20 21  1  0
 21 22  1  6
 21 23  1  0
 23 24  1  1
 23 25  1  0
 25 26  1  6
 25 27  1  0
 27 28  1  0
 25 29  1  0
 29 30  1  0
 30 31  1  0
 31 32  1  0
 32 33  1  1
 14 34  1  0
 34 35  1  0
 35  2  1  0
 34  6  1  0
 32 12  1  0
 32 17  1  0
 29 18  1  0
M  END
>  <identifier>  (1427) 
CNP0127153.16

>  <canonical_smiles>  (1427) 
CC1(C)CC[C@]2(C(=O)O)CC[C@]3(C)C(=CCC4[C@@]5(C)C[C@@H](O)[C@H](O)[C@](C)(CO)C5CC[C@]43C)C2C1

>  <standard_inchi>  (1427) 
InChI=1S/C30H48O5/c1-25(2)11-13-30(24(34)35)14-12-28(5)18(19(30)15-25)7-8-22-26(3)16-20(32)23(33)27(4,17-31)21(26)9-10-29(22,28)6/h7,19-23,31-33H,8-17H2,1-6H3,(H,34,35)/t19?,20-,21?,22?,23+,26+,27-,28-,29-,30+/m1/s1

>  <standard_inchi_key>  (1427) 
RWNHLTKFBKYDOJ-HUTDEJIMSA-N

>  <name>  (1427) 
nan

>  <iupac_name>  (1427) 
(4~{a}~{S},6~{a}~{S},6~{b}~{R},9~{S},10~{R},11~{R},12~{a}~{R})-10,11-dihydroxy-9-(hydroxymethyl)-2,2,6~{a},6~{b},9,12~{a}-hexamethyl-1,3,4,5,6,6~{a},7,8,8~{a},10,11,12,13,14~{b}-tetradecahydropicene-4~{a}-carboxylic acid

>  <annotation_level>  (1427) 
4

>  <total_atom_count>  (1427) 
83

>  <heavy_atom_count>  (1427) 
35

>  <molecular_weight>  (1427) 
488.71

>  <exact_molecular_weight>  (1427) 
488.35017

>  <molecular_formula>  (1427) 
C30H48O5

>  <alogp>  (1427) 
5.18

>  <topological_polar_surface_area>  (1427) 
97.99

>  <rotatable_bond_count>  (1427) 
2

>  <hydrogen_bond_acceptors>  (1427) 
4

>  <hydrogen_bond_donors>  (1427) 
4

>  <hydrogen_bond_acceptors_lipinski>  (1427) 
4

>  <hydrogen_bond_donors_lipinski>  (1427) 
4

>  <lipinski_rule_of_five_violations>  (1427) 
1

>  <aromatic_rings_count>  (1427) 
0

>  <qed_drug_likeliness>  (1427) 
0.40

>  <formal_charge>  (1427) 
0

>  <fractioncsp3>  (1427) 
0.90

>  <number_of_minimal_rings>  (1427) 
5

>  <van_der_walls_volume>  (1427) 
nan

>  <contains_sugar>  (1427) 
False

>  <contains_ring_sugars>  (1427) 
False

>  <contains_linear_sugars>  (1427) 
False

>  <murcko_framework>  (1427) 
C1=C2C3CCCCC3CCC2C4CCC5CCCCC5C4C1

>  <np_likeness>  (1427) 
3.31

>  <chemical_class>  (1427) 
Steroids and steroid derivatives

>  <chemical_sub_class>  (1427) 
Hydroxysteroids

>  <chemical_super_class>  (1427) 
Lipids and lipid-like molecules

>  <direct_parent_classification>  (1427) 
Hydroxysteroids

>  <np_classifier_pathway>  (1427) 
Terpenoids

>  <np_classifier_superclass>  (1427) 
Triterpenoids

>  <np_classifier_class>  (1427) 
Oleanane triterpenoids

>  <np_classifier_is_glycoside>  (1427) 
False

>  <organisms>  (1427) 
Siphoneugena densiflora

>  <collections>  (1427) 
Latin America dataset|NuBBEDB

>  <dois>  (1427) 
10.1002/ps.1278

>  <synonyms>  (1427) 
arjunolic acid

>  <cas>  (1427) 
nan

$$$$

     RDKit          2D

 21 25  0  0  0  0  0  0  0  0999 V2000
    6.8477   -0.2253    0.0000 O   0  0  0  0  0  0  0  0  0  0  0  0
    5.3486   -0.2774    0.0000 C   0  0  0  0  0  0  0  0  0  0  0  0
    4.6441   -1.6017    0.0000 C   0  0  0  0  0  0  0  0  0  0  0  0
    3.1450   -1.6537    0.0000 C   0  0  0  0  0  0  0  0  0  0  0  0
    2.3504   -0.3815    0.0000 C   0  0  0  0  0  0  0  0  0  0  0  0
    3.0548    0.9428    0.0000 C   0  0  0  0  0  0  0  0  0  0  0  0
    4.5539    0.9948    0.0000 C   0  0  0  0  0  0  0  0  0  0  0  0
    2.2602    2.2150    0.0000 O   0  0  0  0  0  0  0  0  0  0  0  0
    0.7611    2.1629    0.0000 C   0  0  0  0  0  0  0  0  0  0  0  0
    0.0567    0.8386    0.0000 C   0  0  0  0  0  0  0  0  0  0  0  0
   -1.3989    0.4760    0.0000 C   0  0  0  0  0  0  0  0  0  0  0  0
   -2.6423    1.3150    0.0000 C   0  0  0  0  0  0  0  0  0  0  0  0
   -3.9906    0.6577    0.0000 C   0  0  0  0  0  0  0  0  0  0  0  0
   -4.0955   -0.8386    0.0000 C   0  0  0  0  0  0  0  0  0  0  0  0
   -2.8521   -1.6777    0.0000 C   0  0  0  0  0  0  0  0  0  0  0  0
   -1.5038   -1.0203    0.0000 C   0  0  0  0  0  0  0  0  0  0  0  0
   -0.1131   -1.5825    0.0000 O   0  0  0  0  0  0  0  0  0  0  0  0
    0.8513   -0.4336    0.0000 C   0  0  0  0  0  0  0  0  0  0  0  0
   -5.5510   -1.2013    0.0000 O   0  0  0  0  0  0  0  0  0  0  0  0
   -6.3456    0.0710    0.0000 C   0  0  0  0  0  0  0  0  0  0  0  0
   -5.3812    1.2199    0.0000 O   0  0  0  0  0  0  0  0  0  0  0  0
  1  2  1  0
  2  3  2  0
  3  4  1  0
  4  5  2  0
  5  6  1  0
  6  7  2  0
  6  8  1  0
  8  9  1  0
 10  9  1  1
 10 11  1  0
 11 12  2  0
 12 13  1  0
 13 14  2  0
 14 15  1  0
 15 16  2  0
 16 17  1  0
 18 17  1  1
 14 19  1  0
 19 20  1  0
 20 21  1  0
  7  2  1  0
 18 10  1  0
 18  5  1  0
 16 11  1  0
 21 13  1  0
M  END
>  <identifier>  (1428) 
CNP0366241.2

>  <canonical_smiles>  (1428) 
OC1=CC=C2C(=C1)OC[C@@H]1C3=CC4=C(C=C3O[C@H]21)OCO4

>  <standard_inchi>  (1428) 
InChI=1S/C16H12O5/c17-8-1-2-9-12(3-8)18-6-11-10-4-14-15(20-7-19-14)5-13(10)21-16(9)11/h1-5,11,16-17H,6-7H2/t11-,16-/m1/s1

>  <standard_inchi_key>  (1428) 
HUKSJTUUSUGIDC-BDJLRTHQSA-N

>  <name>  (1428) 
(+)-Maackiain

>  <iupac_name>  (1428) 
(1~{S},12~{S})-5,7,11,19-tetraoxapentacyclo[10.8.0.0^{2,10}.0^{4,8}.0^{13,18}]icosa-2,4(8),9,13,15,17-hexaen-16-ol

>  <annotation_level>  (1428) 
5

>  <total_atom_count>  (1428) 
33

>  <heavy_atom_count>  (1428) 
21

>  <molecular_weight>  (1428) 
284.27

>  <exact_molecular_weight>  (1428) 
284.06847

>  <molecular_formula>  (1428) 
C16H12O5

>  <alogp>  (1428) 
2.73

>  <topological_polar_surface_area>  (1428) 
57.15

>  <rotatable_bond_count>  (1428) 
0

>  <hydrogen_bond_acceptors>  (1428) 
5

>  <hydrogen_bond_donors>  (1428) 
1

>  <hydrogen_bond_acceptors_lipinski>  (1428) 
5

>  <hydrogen_bond_donors_lipinski>  (1428) 
1

>  <lipinski_rule_of_five_violations>  (1428) 
0

>  <aromatic_rings_count>  (1428) 
2

>  <qed_drug_likeliness>  (1428) 
0.81

>  <formal_charge>  (1428) 
0

>  <fractioncsp3>  (1428) 
0.25

>  <number_of_minimal_rings>  (1428) 
5

>  <van_der_walls_volume>  (1428) 
233.92

>  <contains_sugar>  (1428) 
False

>  <contains_ring_sugars>  (1428) 
False

>  <contains_linear_sugars>  (1428) 
False

>  <murcko_framework>  (1428) 
O1c2cc3OC4c5ccccc5OCC4c3cc2OC1

>  <np_likeness>  (1428) 
2.06

>  <chemical_class>  (1428) 
Isoflavonoids

>  <chemical_sub_class>  (1428) 
Furanoisoflavonoids

>  <chemical_super_class>  (1428) 
Phenylpropanoids and polyketides

>  <direct_parent_classification>  (1428) 
Pterocarpans

>  <np_classifier_pathway>  (1428) 
Shikimates and Phenylpropanoids

>  <np_classifier_superclass>  (1428) 
Isoflavonoids

>  <np_classifier_class>  (1428) 
Pterocarpan

>  <np_classifier_is_glycoside>  (1428) 
False

>  <organisms>  (1428) 
Abelia chinensis|Aldina heterophylla|Allium albopilosum|Aplophyllum alberti-regelii|Artemisia indica|Asimina parviflora|Atraphaxis spinosa|Baccharis neglecta|Centaurea maculosa|Centaurea nicaeensis|Cephalophora aromatica|Chondrodendron tomentosum|Clerodendrum bungei|Conus mus|Cordia leucocephala|Dendronephthya griffini|Derris canarensis|Derris cuneifolia|Derris oblonga|Dimorphotheca spectabilis|Diospyros assimilis|Dolabella californica|Dorycnium herbaceum|Dracontomelon mangiferum|Embelia parviflora|Embelia schimperi|Ephedra sinica|Epilobium hirsutum|Eria anomala|Erysimum leptophyllum|Erythrina melanacantha|Eschscholzia lobbii|Esenbeckia leiocarpa|Euphorbia nematocypha|Faramea salicifolia|Fatoua pilosa|Gymnocalycium schickendantzii|Halenia elliptica|Haplophyllum obtusifolium|Helichrysum tenuifolium|Hypericum styphelioides|Justicia orbiculata|Latrunculia magnifica|Lemaireocereus longispinus|Lycogala epidendrum|Lythrum salicaria|Maackia amurensis|Machaerium aristulatum|Matricaria perforata|Medicago hybrid|Megaselia flavescens|Millettia leucantha|Millettia vatkei|Monsonia senegalensis|Morella rubra|Myxococcus stipitatus|Niphates olemda|Ononis vaginalis|Onopordum acanthium|Ophioceras dolichostomum|Panax ginseng|Pancratium sickenbergeri|Petalostemum purpureum|Picrasma quassioides|Piper regnellii|Planchonia grandis|Plathymenia reticulata|Platychaete aucheri|Protea lacticolor|Pteridium esculentum|Rhinella marina|Shigella dysenteriae|Simarouba glauca|Siphonaria capensis|Sophora flavescens|Sophora japonica L.|Sophora mollis|Sophora tonkinensis|Styphnolobium japonicum|Syzygium polycephaloides|Theonella conica|Thermopsis californica|Thermopsis lanceolata|Thermopsis lupinoides|Toronia toru|Tricholoma columbetta|Ubiaea schimperi|Vellozia nanuzae|Vernonia fagifolia

>  <collections>  (1428) 
CMAUP (cCollective molecular activities of useful plants)|ChEBI NPs|KNApSaCK|Latin America dataset|NPASS|NuBBEDB|Phyto4Health|Super Natural II|TCMDB-Taiwan (Traditional Chinese Medicine database)|WikiData Natural Products

>  <dois>  (1428) 
10.1007/BF00564330|10.1007/S10600-010-9696-0|10.1016/0031-9422(73)85046-0|10.1016/J.BMC.2007.03.011|10.1021/NP0103158|10.1021/NP900144C|10.1021/NP980041X|10.1021/np0103158|10.1021/np900144c|10.1055/S-2001-14325|10.1248/CPB.28.3686|10.1248/CPB.57.302|10.3987/COM-92-6288|10.3987/COM-95-7069

>  <synonyms>  (1428) 
(+)-Maackiain|(+)-Maackiain, (6aS11aS)-3-hydroxy-89-methylenedioxypterocarpan|(1S,12S)-5,7,11,19-tetraoxapentacyclo[10.8.0.02,10.04,8.013,18]icosa-2,4(8),9,13(18),14,16-hexaen-16-ol|(6aS,12aS)-6a,12a-dihydro-6H-[1,3]dioxolo[5,6][1]benzofuro[3,2-c]chromen-3-ol|19908-48-6|23513-53-3|6H-(1,3)Dioxolo(5,6)benzofuro(3,2-c)(1)benzopyran-3-ol, 6a,12a-dihydro-, cis-(+-)-|6a,12a-Dihydro-6H,9H-[1,3]dioxolo[5,6][1]benzofuro[3,2-c][1]benzopyran-3-ol|6a,12a-Dihydro-6H-(1,3)dioxolo(5,6)benzofuro(3,2-c)(1)benzopyran-3-ol|AKOS030632873|BS-51513|CCG-267295|CHEBI:73030|CHEMBL445279|DTXSID80941785|Maackiain|Q27140246|demethylpterocarpin|dl-Maackiain|s9387

>  <cas>  (1428) 
19908-48-6|23513-53-3

$$$$

     RDKit          2D

 14 14  0  0  0  0  0  0  0  0999 V2000
    4.1710   -1.6090    0.0000 C   0  0  0  0  0  0  0  0  0  0  0  0
    2.7230   -1.2173    0.0000 C   0  0  0  0  0  0  0  0  0  0  0  0
    1.6598   -2.2754    0.0000 O   0  0  0  0  0  0  0  0  0  0  0  0
    2.3383    0.2325    0.0000 O   0  0  0  0  0  0  0  0  0  0  0  0
    0.8903    0.6243    0.0000 C   0  0  0  0  0  0  0  0  0  0  0  0
   -0.1729   -0.4339    0.0000 C   0  0  0  0  0  0  0  0  0  0  0  0
   -1.6208   -0.0421    0.0000 C   0  0  0  0  0  0  0  0  0  0  0  0
   -2.6840   -1.1002    0.0000 C   0  0  0  0  0  0  0  0  0  0  0  0
   -4.1320   -0.7085    0.0000 C   0  0  0  0  0  0  0  0  0  0  0  0
   -2.2993   -2.5501    0.0000 C   0  0  0  0  0  0  0  0  0  0  0  0
   -2.0056    1.4077    0.0000 C   0  0  0  0  0  0  0  0  0  0  0  0
   -0.9424    2.4658    0.0000 C   0  0  0  0  0  0  0  0  0  0  0  0
    0.5056    2.0741    0.0000 C   0  0  0  0  0  0  0  0  0  0  0  0
    1.5688    3.1322    0.0000 C   0  0  0  0  0  0  0  0  0  0  0  0
  1  2  1  0
  2  3  2  0
  2  4  1  0
  4  5  1  0
  5  6  2  0
  6  7  1  0
  7  8  1  0
  8  9  1  0
  8 10  1  0
  7 11  2  0
 11 12  1  0
 12 13  2  0
 13 14  1  0
 13  5  1  0
M  END
>  <identifier>  (1429) 
CNP0225898.0

>  <canonical_smiles>  (1429) 
CC(=O)OC1=CC(C(C)C)=CC=C1C

>  <standard_inchi>  (1429) 
InChI=1S/C12H16O2/c1-8(2)11-6-5-9(3)12(7-11)14-10(4)13/h5-8H,1-4H3

>  <standard_inchi_key>  (1429) 
OXZSUQJHKQOGOK-UHFFFAOYSA-N

>  <name>  (1429) 
Carvacryl acetate

>  <iupac_name>  (1429) 
(5-isopropyl-2-methyl-phenyl) acetate

>  <annotation_level>  (1429) 
5

>  <total_atom_count>  (1429) 
30

>  <heavy_atom_count>  (1429) 
14

>  <molecular_weight>  (1429) 
192.26

>  <exact_molecular_weight>  (1429) 
192.11503

>  <molecular_formula>  (1429) 
C12H16O2

>  <alogp>  (1429) 
3.04

>  <topological_polar_surface_area>  (1429) 
26.30

>  <rotatable_bond_count>  (1429) 
2

>  <hydrogen_bond_acceptors>  (1429) 
2

>  <hydrogen_bond_donors>  (1429) 
0

>  <hydrogen_bond_acceptors_lipinski>  (1429) 
2

>  <hydrogen_bond_donors_lipinski>  (1429) 
0

>  <lipinski_rule_of_five_violations>  (1429) 
0

>  <aromatic_rings_count>  (1429) 
1

>  <qed_drug_likeliness>  (1429) 
0.53

>  <formal_charge>  (1429) 
0

>  <fractioncsp3>  (1429) 
0.42

>  <number_of_minimal_rings>  (1429) 
1

>  <van_der_walls_volume>  (1429) 
194.39

>  <contains_sugar>  (1429) 
False

>  <contains_ring_sugars>  (1429) 
False

>  <contains_linear_sugars>  (1429) 
False

>  <murcko_framework>  (1429) 
c1ccccc1

>  <np_likeness>  (1429) 
-0.04

>  <chemical_class>  (1429) 
Prenol lipids

>  <chemical_sub_class>  (1429) 
Monoterpenoids

>  <chemical_super_class>  (1429) 
Lipids and lipid-like molecules

>  <direct_parent_classification>  (1429) 
Aromatic monoterpenoids

>  <np_classifier_pathway>  (1429) 
Terpenoids

>  <np_classifier_superclass>  (1429) 
Monoterpenoids

>  <np_classifier_class>  (1429) 
Menthane monoterpenoids

>  <np_classifier_is_glycoside>  (1429) 
False

>  <organisms>  (1429) 
Angelica sinensis|Asarum sieboldii|Canarium album|Citrus reticulata|Elsholtzia ciliata|Lippia grata|Lippia multiflora|Lonicera japonica|Minthostachys glabrescens|Mosla chinensis|Origanum dictamnus|Origanum syriacum|Origanum vulgare|Orthodon hadai|Piper betle|Thymus maroccanus|Thymus orespedanus|Thymus vulgaris|Valeriana jatamansi|Zataria multiflora

>  <collections>  (1429) 
ANPDB|CMAUP (cCollective molecular activities of useful plants)|FooDB|Latin America dataset|NANPDB (Natural Products from Northern African Sources)|NPASS|NuBBEDB|Super Natural II|TCMDB-Taiwan (Traditional Chinese Medicine database)|TCMID (Traditional Chinese Medicine Integrated Database)|UNPD (Universal Natural Products Database)|WikiData Natural Products

>  <dois>  (1429) 
10.1002/1099-1026(200011/12)15:6<373::AID-FFJ923>3.0.CO;2-9|10.1002/CBDV.201100059|10.1002/FFJ.2730020110|10.1016/0031-9422(90)85109-S|10.1021/JF950540T|10.1021/NP50017A018|10.1021/NP50045A046|10.1021/np50017a018|10.1080/10412905.1995.9698531|10.3109/13880209109082875

>  <synonyms>  (1429) 
(2-methyl-5-propan-2-ylphenyl) acetate|2A2BR75B36|4395-82-8|5-Isopropyl-2-methylphenol acetate|5-Isopropyl-o-tolyl acetate|6380-28-5|AI3-03429|AKOS006227942|Acetic acid, carvacryl-|CHEBI:179898|Carvacrol acetate|DB-254192|DTXSID40863777|EINECS 228-963-4|FS-10666|MFCD00270428|NS00044622|NSC 6601|NSC-6601|OXZSUQJHKQOGOK-UHFFFAOYSA-N|Phenol, 2-methyl-5-(1-methylethyl)-, acetate|Q27254462|SCHEMBL247416|UNII-2A2BR75B36|acetic acid 5-isopropyl-2-methyl-phenyl ester|carvacryl acetate

>  <cas>  (1429) 
6380-28-5|4395-82-8

$$$$

     RDKit          2D

 15 17  0  0  0  0  0  0  0  0999 V2000
   -0.3266   -3.3149    0.0000 C   0  0  0  0  0  0  0  0  0  0  0  0
    0.6556   -2.1812    0.0000 C   0  0  0  0  0  0  0  0  0  0  0  0
    2.1502   -2.3095    0.0000 C   0  0  0  0  0  0  0  0  0  0  0  0
    2.7340   -0.9277    0.0000 C   0  0  0  0  0  0  0  0  0  0  0  0
    1.6003    0.0545    0.0000 C   0  0  0  0  0  0  0  0  0  0  0  0
    0.3158   -0.7202    0.0000 C   0  0  0  0  0  0  0  0  0  0  0  0
   -1.0907   -0.1990    0.0000 C   0  0  0  0  0  0  0  0  0  0  0  0
   -1.5602    1.2257    0.0000 C   0  0  0  0  0  0  0  0  0  0  0  0
   -0.7390    2.4809    0.0000 C   0  0  0  0  0  0  0  0  0  0  0  0
    0.7544    2.6216    0.0000 C   0  0  0  0  0  0  0  0  0  0  0  0
    1.7954    1.5417    0.0000 C   0  0  0  0  0  0  0  0  0  0  0  0
    3.2201    2.0112    0.0000 C   0  0  0  0  0  0  0  0  0  0  0  0
   -2.5592    0.1068    0.0000 C   0  0  0  0  0  0  0  0  0  0  0  0
   -3.8346    0.8964    0.0000 C   0  0  0  0  0  0  0  0  0  0  0  0
   -3.1154   -1.2863    0.0000 C   0  0  0  0  0  0  0  0  0  0  0  0
  1  2  2  0
  2  3  1  0
  3  4  1  0
  5  4  1  1
  5  6  1  0
  6  7  1  0
  7  8  1  0
  8  9  1  6
  9 10  1  0
 10 11  1  0
 11 12  1  1
  8 13  1  0
 13 14  1  0
 13 15  1  0
  6  2  1  1
  7 13  1  6
 11  5  1  0
M  END
>  <identifier>  (1430) 
CNP0350446.2

>  <canonical_smiles>  (1430) 
C=C1CC[C@H]2[C@@H]1[C@H]1[C@@H](CC[C@H]2C)C1(C)C

>  <standard_inchi>  (1430) 
InChI=1S/C15H24/c1-9-6-8-12-14(15(12,3)4)13-10(2)5-7-11(9)13/h9,11-14H,2,5-8H2,1,3-4H3/t9-,11-,12-,13-,14-/m1/s1

>  <standard_inchi_key>  (1430) 
IRCZVRWQUNZGSH-DKTYCGPESA-N

>  <name>  (1430) 
beta-Gurjunene

>  <iupac_name>  (1430) 
(1~{a}~{R},4~{R},4~{a}~{R},7~{a}~{R},7~{b}~{R})-1,1,4-trimethyl-7-methylene-2,3,4,4~{a},5,6,7~{a},7~{b}-octahydro-1~{a}~{H}-cyclopropa[e]azulene

>  <annotation_level>  (1430) 
5

>  <total_atom_count>  (1430) 
39

>  <heavy_atom_count>  (1430) 
15

>  <molecular_weight>  (1430) 
204.36

>  <exact_molecular_weight>  (1430) 
204.1878

>  <molecular_formula>  (1430) 
C15H24

>  <alogp>  (1430) 
4.27

>  <topological_polar_surface_area>  (1430) 
0.00

>  <rotatable_bond_count>  (1430) 
0

>  <hydrogen_bond_acceptors>  (1430) 
0

>  <hydrogen_bond_donors>  (1430) 
0

>  <hydrogen_bond_acceptors_lipinski>  (1430) 
0

>  <hydrogen_bond_donors_lipinski>  (1430) 
0

>  <lipinski_rule_of_five_violations>  (1430) 
0

>  <aromatic_rings_count>  (1430) 
0

>  <qed_drug_likeliness>  (1430) 
0.52

>  <formal_charge>  (1430) 
0

>  <fractioncsp3>  (1430) 
0.87

>  <number_of_minimal_rings>  (1430) 
3

>  <van_der_walls_volume>  (1430) 
nan

>  <contains_sugar>  (1430) 
False

>  <contains_ring_sugars>  (1430) 
False

>  <contains_linear_sugars>  (1430) 
False

>  <murcko_framework>  (1430) 
C1CC2CCCC2C3CC3C1

>  <np_likeness>  (1430) 
2.99

>  <chemical_class>  (1430) 
Prenol lipids

>  <chemical_sub_class>  (1430) 
Sesquiterpenoids

>  <chemical_super_class>  (1430) 
Lipids and lipid-like molecules

>  <direct_parent_classification>  (1430) 
Guaianes

>  <np_classifier_pathway>  (1430) 
Terpenoids

>  <np_classifier_superclass>  (1430) 
Sesquiterpenoids

>  <np_classifier_class>  (1430) 
Aromadendrane sesquiterpenoids

>  <np_classifier_is_glycoside>  (1430) 
False

>  <organisms>  (1430) 
Aguacate|Artemisia|Centipeda minima|Citrus × paradisi|Cleome chrysantha|Commiphora gurreh|Croton jimenezii|Culcitium canescens|Daniellia oliveri|Eriostemon banksii|Eucalyptus nova-anglica|Helichrysum odoratissimum|Hypericum androsaemum|Kuloa usambarensis|Lantana camara|Lantana xenica|Melaleuca alternifolia|Nectandra salicina|Ocotea austinii|Ocotea gomezii|Ocotea usambarensis|Panax ginseng|Perovskia atriplicifolia|Persea tolimanensis|Piper augustum|Pistacia lentiscus|Podachaenium eminens|Rosmarinus Officinalis|Rosmarinus officinalis|Santolina chamaecyparissus|Satureja montana|Satureja wiedemanniana|Sideritis tragoriganum|Smallanthus maculatus|Swietenia macrophylla|Tanacetum vulgare|Thulinella chrysantha|Thymus broussonetii|Thymus funkii|Thymus longiflorus|Vitex agnus-castus

>  <collections>  (1430) 
ANPDB|Australian natural products|FooDB|Latin America dataset|NANPDB (Natural Products from Northern African Sources)|NAPRORE-CR|NPASS|NuBBEDB|VietHerb|WikiData Natural Products|ZINC NP

>  <dois>  (1430) 
10.1002/1099-1573(200006)14:4<284::AID-PTR599>3.0.CO;2-Y|10.1002/FFJ.2730090107|10.1002/FFJ.2730100609|10.1002/PCA.2800050503|10.1007/978-3-662-03331-9_2|10.1007/BF00568367|10.1016/0031-9422(75)85347-7|10.1016/J.PHYMED.2011.12.003|10.1016/S0031-9422(00)00131-X|10.1016/S0031-9422(00)97558-7|10.1021/JF00034A020|10.1021/JF00035A029|10.1021/JF020872F|10.1021/JF9702149|10.1021/NP50048A037|10.1023/A:1025694720727|10.1055/S-2000-9780|10.1055/S-2002-33803|10.1055/S-2006-957433|10.1055/S-2006-957489|10.1055/S-2006-957814|10.1071/sb96010|10.1080/10412905.1992.9698006|10.1080/10412905.1993.9698235|10.1080/10412905.1994.9699362|10.1080/10412905.1995.9698473|10.1080/10412905.1997.9700725|10.1080/10412905.2002.9699883|10.1080/10412905.2004.9698740|10.1080/10412905.2004.9698744|10.1080/10412905.2007.9699946|10.1080/10412905.2018.1431966|10.1248/CPB.33.4091|10.1248/CPB.39.3272|10.1590/S0100-40422009000200028|10.1590/S0103-50532011000400018

>  <synonyms>  (1430) 
(1AR,4R,4AR,7AR,7BR)-DECAHYDRO-1,1,4-TRIMETHYL-7-METHYLENE-1H-CYCLOPROP(E)AZULENE|(1aR,4R,4aR,7aR,7bR)-1,1,4-trimethyl-7-methylidene-2,3,4,4a,5,6,7a,7b-octahydro-1aH-cyclopropa[e]azulene|(1aR,4R,4aR,7aR,7bR)-1,1,4-trimethyl-7-methylidenedecahydro-1H-cyclopropa[e]azulene|(1aR-(1aalpha,4alpha,4abeta,7abeta,7balpha))-Decahydro-1,1,4-trimethyl-7-methylene-1H-cycloprop(e)azulene|1,1,4-Trimethyl-7-methylidenedecahydro-1H-cyclopropa[e]azulene|1H-CYCLOPROP(E)AZULENE, DECAHYDRO-1,1,4-TRIMETHYL-7-METHYLENE-, (1AR,4R,4AR,7AR,7BR)-|1H-Cycloprop(e)azulene, decahydro-1,1,4-trimethyl-7-methylene-, (1aR-(1aalpha,4alpha,4abeta,7abeta,7balpha))-|73464-47-8|C17120|CHEBI:80940|DTXSID40994212|Q27154913|U3RZ4VEY86|UNII-U3RZ4VEY86|\u221a\u00e9\u00ac\u2264-gurjunene|_-gurjunene|beta-Gurjunene

>  <cas>  (1430) 
73464-47-8

$$$$

     RDKit          2D

 14 14  0  0  0  0  0  0  0  0999 V2000
    0.9643   -3.8971    0.0000 C   0  0  0  0  0  0  0  0  0  0  0  0
    1.7143   -2.5981    0.0000 O   0  0  0  0  0  0  0  0  0  0  0  0
    0.9643   -1.2990    0.0000 C   0  0  0  0  0  0  0  0  0  0  0  0
   -0.5357   -1.2990    0.0000 C   0  0  0  0  0  0  0  0  0  0  0  0
   -1.2857   -0.0000    0.0000 C   0  0  0  0  0  0  0  0  0  0  0  0
   -2.7857   -0.0000    0.0000 C   0  0  0  0  0  0  0  0  0  0  0  0
   -3.5357   -1.2990    0.0000 O   0  0  0  0  0  0  0  0  0  0  0  0
   -3.5357    1.2990    0.0000 O   0  0  0  0  0  0  0  0  0  0  0  0
   -0.5357    1.2990    0.0000 C   0  0  0  0  0  0  0  0  0  0  0  0
    0.9643    1.2990    0.0000 C   0  0  0  0  0  0  0  0  0  0  0  0
    1.7143    2.5981    0.0000 O   0  0  0  0  0  0  0  0  0  0  0  0
    0.9643    3.8971    0.0000 C   0  0  0  0  0  0  0  0  0  0  0  0
    1.7143    0.0000    0.0000 C   0  0  0  0  0  0  0  0  0  0  0  0
    3.2143    0.0000    0.0000 O   0  0  0  0  0  0  0  0  0  0  0  0
  1  2  1  0
  2  3  1  0
  3  4  2  0
  4  5  1  0
  5  6  1  0
  6  7  2  0
  6  8  1  0
  5  9  2  0
  9 10  1  0
 10 11  1  0
 11 12  1  0
 10 13  2  0
 13 14  1  0
 13  3  1  0
M  END
>  <identifier>  (1431) 
CNP0155116.0

>  <canonical_smiles>  (1431) 
COC1=CC(C(=O)O)=CC(OC)=C1O

>  <standard_inchi>  (1431) 
InChI=1S/C9H10O5/c1-13-6-3-5(9(11)12)4-7(14-2)8(6)10/h3-4,10H,1-2H3,(H,11,12)

>  <standard_inchi_key>  (1431) 
JMSVCTWVEWCHDZ-UHFFFAOYSA-N

>  <name>  (1431) 
SYRINGIC ACID

>  <iupac_name>  (1431) 
4-hydroxy-3,5-dimethoxy-benzoic acid

>  <annotation_level>  (1431) 
5

>  <total_atom_count>  (1431) 
24

>  <heavy_atom_count>  (1431) 
14

>  <molecular_weight>  (1431) 
198.17

>  <exact_molecular_weight>  (1431) 
198.05282

>  <molecular_formula>  (1431) 
C9H10O5

>  <alogp>  (1431) 
1.11

>  <topological_polar_surface_area>  (1431) 
75.99

>  <rotatable_bond_count>  (1431) 
3

>  <hydrogen_bond_acceptors>  (1431) 
4

>  <hydrogen_bond_donors>  (1431) 
2

>  <hydrogen_bond_acceptors_lipinski>  (1431) 
4

>  <hydrogen_bond_donors_lipinski>  (1431) 
2

>  <lipinski_rule_of_five_violations>  (1431) 
0

>  <aromatic_rings_count>  (1431) 
1

>  <qed_drug_likeliness>  (1431) 
0.76

>  <formal_charge>  (1431) 
0

>  <fractioncsp3>  (1431) 
0.22

>  <number_of_minimal_rings>  (1431) 
1

>  <van_der_walls_volume>  (1431) 
171.10

>  <contains_sugar>  (1431) 
False

>  <contains_ring_sugars>  (1431) 
False

>  <contains_linear_sugars>  (1431) 
False

>  <murcko_framework>  (1431) 
c1ccccc1

>  <np_likeness>  (1431) 
0.54

>  <chemical_class>  (1431) 
Benzene and substituted derivatives

>  <chemical_sub_class>  (1431) 
Benzoic acids and derivatives

>  <chemical_super_class>  (1431) 
Benzenoids

>  <direct_parent_classification>  (1431) 
M-methoxybenzoic acids and derivatives

>  <np_classifier_pathway>  (1431) 
Shikimates and Phenylpropanoids

>  <np_classifier_superclass>  (1431) 
Phenolic acids (C6-C1)

>  <np_classifier_class>  (1431) 
Simple phenolic acids

>  <np_classifier_is_glycoside>  (1431) 
False

>  <organisms>  (1431) 
Abedus herberti|Acacia mearnsii|Acalypha spiciflora|Acer maximowiczianum|Achromobacter denitrificans|Achyranthes aspera|Acicarpha tribuloides|Acinetobacter baumannii|Acinetobacter calcoaceticus|Aconitum palmatum|Aconitum tianschanicum|Acorus calamus|Acronychia laurifolia|Aegiceras corniculatum|Aeonium cuneatum|Aerva lanata|Aframomum giganteum|Agathosma scaberula|Agave cocui|Agave deserti|Aglaia pyramidata|Agrobacterium tumefaciens|Agrostophyllum callosum|Aguacate|Albatrellus caeruleoporus|Alcea nudiflora|Alcea rosea|Alcyonium coralloides|Alhagi maurorum|Alhagi pseudalhagi|Alnus japonica|Aloe africana|Aloe ferox|Aloe spicata|Aloe vera|Alstonia angustiloba|Alstonia undulifolia|Althaea Rosea|Althaea armeniaca|Althaea broussonetiifolia|Althaea cannabina|Althaea narbonensis|Althaea nudiflora|Althaea officinalis|Althaea rosea|Alyxia reinwardtii|Amanita phalloides|Amanita pseudoporphyria|Amsinckia tessellata|Anethum graveolens|Aniba duckei|Aniba rosaeodora|Annona cherimola|Anolis lineatopus|Anthemis fuscata|Apium graveolens|Aplysilla rosea|Aplysinella rhax|Aquilaria sinensis|Arabidopsis thaliana|Arachis hypogaea|Arachniodes mutica|Aralidium pinnatifidum|Arbacia pustulosa|Ardisia crenata|Areca catechu|Ariocarpus fissuratus|Aristolochia contorta|Aristolochia debilis|Aristolochia heterophylla|Aristolochia heterophylla Hemsl|Aristolochia kaempferi|Artabotrys zeylanicus|Artemisia dracunculus|Artemisia gypsacea|Artemisia incanescens|Artemisia pectinata|Asclepias subulata|Ascochyta viciae|Aspalathus linearis|Aspergillus alliaceus|Aspergillus microcysticus|Aspergillus mutabilis|Asteriscus aquaticus|Astraeus pteridis|Aucuba chinensis|Aurelia aurita|Avena sativa|Baccharis grandicapitulata|Baccharis potosina|Balanites aegyptiaca|Balanites aegyptiacus|Balanophora harlandii|Bauhinia glauca|Beesia calthifolia|Berberis fremontii|Bersama swinnyi|Beta vulgaris|Betula pendula|Betula platyphylla|Bidens tripartita|Bistorta manshuriensis|Bistorta officinalis|Bistorta vivipara|Blainvillea latifolia|Boletinus paluster|Boletus pini|Boschniakia rossica|Botrychium ternatum|Brassica napus|Brassica oleracea|Brassica rapa|Brassica rapa subsp. oleifera|Brettanomyces anomalus|Briareum violacea|Brickellia vernicosa|Brucea javanica|Bursera kerberi|Cacalia robusta|Cajanus cajan|Callicarpa integerrima|Caloboletus calopus|Campanula hypopolia|Campanula persicifolia|Capparis ovata|Capsicum annuum|Carica dodecaphylla|Carpesium faberi|Carya ovata|Cassine papillosa|Castanea dentata|Casuarina equisetifolia|Catalpa ovata|Ceanothus americanus|Cedronella canariensis|Celastrus monospermus|Centaurea arbutifolia|Centaurea huber-morathii|Centaurea linifolia|Centaurea musimomum|Ceratostigma willmottianum|Cestrum parqui|Chamomilla recutita|Charpentiera obovata|Chasmanthera dependens|Cheilanthes marantae|Cheirolophus arbutifolius|Cheniella glauca|Chlamydomonas allensworthii|Cicer arietinum|Cichorium intybus|Cinnamomum Subavenium|Cinnamomum reticulatum|Cinnamomum subavenium|Cinnamomum subavenium MIQ.|Cinnamomum tenuifolium|Cinnamomum verum|Cinnamon|Cistanche salsa|Citrullus colocynthis|Citrullus lanatus|Citrus reticulata|Citrus spp.|Citrus tangerina|Citrus unshiu|Cladonia pityrea|Clathria prolifera|Clausena excavata|Claviceps microcephala|Cleidion Spiciflorum|Cleidion spiciflorum (Burm. f.) Merr.|Cleome brachycarpa|Clerodendrum trichotomum|Clinacanthus nutans|Cneoridium dumosum|Cocos nucifera|Codonopsis cordifolioidea|Coffea|Coffea liberica var. dewevrei|Colubrina faralaotra|Colubrina faralaotra subsp.trichocarpa.|Commelina communis|Conium maculatum|Conus pulicarius|Conyza Canadensis|Conyza bonariensis|Conyza canadensis|Conyza candensis|Cordyceps sinensis|Coriandrum sativum|Corydalis pallida|Corydalis sewerzowi|Corymbia citriodora|Costasiella ocellifera|Costus speciosus|Cranfillia fluviatilis|Crataegus laevigata|Crataegus monogyna|Crataegus oxyacantha L. (1753)|Cremastra appendiculata|Crematogaster africana|Creosphaeria sassafras|Crepis czerepanovii|Crocus minimus|Crocus sativus|Crotalaria stolzii|Croton montevidensis|Cryptolestes pusillus|Cucumis sativus|Cucurbita pepo|Cunonia macrophylla|Curculigo Orchioides|Curculigo orchioides|Curculigo pilosa|Curcuma aeruginosa|Cylindropuntia leptocaulis|Cynometra lujae|Cyperus papyrus|Dahlstedtia pentaphylla|Datisca glomerata|Daucus carota|Davidsoniella virescens|Deguelia scandens|Dekkera anomala|Delavay's tree peony|Delia arenicola|Delisea elegans|Delphinium giraldii|Dendrobates auratus|Dendrobium candidum|Dendrobium chrysanthum|Dendrobium chrysotoxum|Dendrobium crystallinum|Dendrobium fimbriatum|Dendrobium loddigesii|Dendrobium nobile|Dendrobium officinale|Dermocybe cardinalis|Derris Scandens|Derris scandens|Diaporthe amygdali|Dictamnus gymnostylis|Dimorphotheca aurantiaca|Dioscorea olfersiana|Diospyros eriantha|Diospyros kaki|Diospyros lotus|Duhaldea cappa|Dysidea villosa|Ecballium elaterium|Echinacea|Echinacea purpurea|Echinus microtuberculatus|Elettaria cardamomum|Eleutherococcus senticosus|Emericellopsis minima|Entada rheedei|Erigeron bonariensis|Erigeron canadensis|Erium villosum|Erylus nobilis|Erylus trisphaerus|Erythrina americana|Eschenbachia blinii|Eucalyptus albens|Eucalyptus citriodora|Eucalyptus jensenii|Euonymus alatus|Euonymus fortunei|Eupatoriastrum nelsonii|Eupatorium areolare|Euphausia superba|Euphorbia biglandulosa|Euphorbia heteradena|Euphorbia resinifera|Euploca racemosa|Eurycoma longifolia|Eurycoma sp.|Euthamia graminifolia|Eutrema japonicum|Eutrochium purpureum|Fagopyrum esculentum|Fagus fusca|Fagus grandifolia|Falcaria vulgaris|Fallopia convolvulus|Fallopia multiflora|Felimida luteorosea|Festuca arundinacea|Festuca ovina|Festuca pratensis|Festuca rubra|Fibraurea tinctoria|Flavoparmelia caperata|Flemingia philippinensis|Flueggea microcarpa|Foeniculum Vulgare|Foeniculum vulgare|Forsythia suspensa|Forsythia viridissima|Fragaria|Frangula purshiana|Fridericia triplinervia|Galinsoga ciliata|Galinsoga quadriradiata|Garcinia oblongifolia|Garcinia polyantha|Gardenia jasminoides|Gardenia sootepensis|Geigeria schinzii|Genista sessilifolia|Gentiana strictiflora|Geranium lambertii|Geranium platyanthum|Gleditsia caspica|Glinus oppositifolius|Gliricidia sepium|Glycine Max|Glycine max|Gnetum parvifolium|Gomphostemma parviflorum|Goniothalamus undulatus|Gossypium hirsutum|Gracilaria textorii|Gutierrezia dracunculoides|Haematoxylum campechianum|Halocharis hispida|Haplophyllum ramosissimum|Hedysarum gmelini|Helenium integrifolium|Helichrysum angustifolium|Helichrysum auriceps|Helichrysum mixtum|Helichrysum sutherlandii|Helminthosporium victoriae|Heloderma suspectum|Herba sedi sarmentosi|Heterosigma akashiwo|Hibiscus sabdariffa|Hibiscus taiwanensis|Hippobroma longiflora|Homo sapiens|Hordeum vulgare|Hornstedtia reticulata|Hortonia floribunda|Hosta sieboldiana|Hubertia tomentosa|Humata pectinata|Humulus lupulus|Huperzia selago|Hydroclathrus tenuis|Hymenoxys grandiflora|Hypericum japonicum|Hypoxylon tinctor|Hyssopus officinalis|Ichthyothere latifolia|Ilex pubescens|Impatiens balsamina|Imperata cylindrica|Inonotus obliquus|Inula britannica|Inula salsoloides|Iotrochota purpurea|Isatis indigotica|Isatis quadrialata|Isatis tinctoria|Isodon amethystoides|Isodon gesneroides|Isodon serra|Jacobaea cannabifolia|Jasione montana|Juglans cinerea|Juglans nigra|Juglans regia|Jugo|Juniperus scopulorum|Jurinea maxima|Kalanchoe pinnata|Kali turgidum|Kielmeyera rubriflora|Lachnophyllum gossypinum|Lactarius subpiperatus|Lactuca sativa|Lambertella corni|Larix lyallii|Lasianthaea podocephala|Lecanora kukunorensis|Leontice kiangnanensis|Leonurus japonicus|Lepidorhinus squamosus|Lepisorus contortus|Lethariella sinensis|Leucaena leucocephala|Ligustrum obtusifolium|Limonium gmelini|Limonium gmelinii|Limonium wrightii|Lindera glauca|Liriodendron tulipifera|Lithospermum canescens|Lonicera hypoleuca|Lophiostoma vaginatispora|Lophocereus marginatus|Lotus ucrainicus|Lupinus cosentinii|Lycopus europaeus|Lysiana subfalcata|Maackia floribunda|Macaranga peltata|Machaerium kuhlmannii|Machilus macrantha|Machilus odoratissima|Machilus zuihoensis|Maclura tinctoria|Magnolia compressa|Magnolia figo|Magnolia grandiflora|Malus domestica|Malus pumila|Matricaria chamomilla|Medicago sativa|Medium grandiflorum|Melampodium leucanthum|Melicope semecarpifolia|Meliosma wightii|Melissa officinalis|Mentha spicata|Menyanthes trifoliata|Metridium senile|Microcos paniculata|Micromonospora echinospora|Microtropis fokienensis|Millettia leucantha|Millettia vatkei|Mitragyna inermis|Momordica charantia|Monanchora unguiculata|Monanthotaxis littoralis|Monascus purpureus|Morella pensylvanica|Morinda coreia|Morus alba|Mosla chinensis|Mucuna birdwoodiana|Muntingia calabura|Mycetia nutans|Myelobia smerintha|Myristica cagayanensis|Myristica fragrans|Mytilus galloprovincialis|Naja naja|Nama johnstonii|Nardostachys jatamansi|Nelumbo nucifera|Nemuaron humboldtii|Neolitsea hiiranensis|Neomeris annulata|Neorautanenia ficifolia|Nostoc spongiaeforme|Notechis scutatus|Notonia grandiflora|Oenothera biennis|Oenothera suaveolens|Olea europaea|Onoseris alata|Ophidiaster ophidianus|Ophiocordyceps sinensis|Ophiopholis aculeata|Ophryosporus charua|Origanum vulgare|Ormosia dasycarpa|Oroxylum indicum|Oryza sativa|Oscillochloris trichoides|Osteospermum muricatum|Othonna dentata|Othonna tagetes|Pachycereus pringlei|Paeonia obovata|Paeonia rockii|Paeonia suffruticosa|Paeonia veitchii|Papaver pseudocanescens|Papaver radicatum|Parablechnum minus|Paramecium tetraurelia|Parmelia zollingeri|Passiflora morifolia|Pastinaca sativa|Pellacalyx axillaris|Pellina semitubulosa|Penicillium alutaceum|Penicillium expansum|Peperomia duclouxii C. DC.|Peperomia vulcanica|Perriera orientalis|Persicaria amphibia|Persicaria hydropiper|Persicaria hydropiperoides|Persicaria mitis|Pestalotiopsis oenotherae|Petiveria alliaceae|Petrosia corticata|Phaeolus schweinitzii|Phakellia flabellata|Phaseolus lunatus|Phaseolus vulgaris|Phebalium dentatum|Phellinus igniarius|Philadelphus coronarius|Phlomis crinita|Phlomoides hamosa|Phoenix dactylifera|Phragmatobia fuliginosa|Phycomyces blakesleeanus|Phyllanthus oligospermus|Phyllosticta cirsii|Physalis edulis|Pilocarpus grandiflorus|Pimpinella anisum|Pinus edulis|Pinus glauca|Piper acutifolium|Piper brachystachyum|Piper hymenophyllum|Piper wightii|Pisum sativum|Pittosporum illicioides|Plakortis simplex|Plantago Major|Plantago lanceolata|Plantago major|Plantago media|Platostoma palustre|Platycarya strobilacea|Pleione bulbocodioides|Pleione yunnanensis|Polemonium caeruleum|Polyalthia nemoralis|Polygala fruticosa|Polygonum aviculare|Polygonum flaccidum|Populus euphratica|Populus lasiocarpa|Posidonia oceanica|Premna tomentosa|Prosopis kuntzei|Prunus domestica|Psephellus huber-morathii|Pseudocyphellaria australiensis|Pseudofumaria lutea|Pseudostellaria heterophylla|Pseudowintera colorata|Psiadia anchusifolia|Psidium acutangulum|Psidium friedrichsthalianum|Psilotum nudum|Pteris cretica var. nervosa|Pteris japonica|Pteris multifida|Pteris pedata|Pteris spinulosa|Pterocarpus macrocarpus|Quercus faginea|Quercus humboldtii|Quercus imbricaria|Quercus infectoria|Quercus petraea|Quercus pubescens|Quercus pyrenaica|Quercus robur|Rabdosia excisa|Raphanus sativus|Ravenia spectabilis|Renealmia alpinia|Rhaponticum carthamoides|Rhinacanthus nasutus|Rhodococcus fascians|Rhododendron dauricum|Rhododendron micranthum|Rhododendron mucronatum|Rhododendron mucronulatum|Rhodopila globiformis|Rorippa indica|Rorippa sylvestris|Rosa rugosa|Rosmarinus officinalis|Rubia yunnanensis|Rubus chingii|Rubus coreanus|Rubus idaeus|Rumex chalepensis|Rumex japonicus|Russula lepida|Russula sardonia|Sabal blackburniana|Sagittaria sagittifolia|Salvia officinalis|Santalum album|Sarcandra glabra|Sarcophyton flexuosum|Sargentodoxa cuneata|Saussurea amara|Scandix pecten-veneris|Schisandra chinensis|Schrebera swietenoides|Scolytus multistriatus|Scrophularia buergeriana|Scrophularia frutescens|Scrophularia koelzii|Scrophularia ningpoensis|Scrophularia umbrosa|Scutellaria ramosissima|Scytonema ocellatum|Secale cereale|Secamone afzelii|Selaginella pulvinata|Selaginella tamariscina|Selinum libanotis|Semen sojae praeparata|Senecio congestus|Senecio gilliesi|Senecio miser|Senecio scandens|Senecio zoellneri|Senna reticulata|Serratula inermis|Setosphaeria holmii|Sia ferox|Sida acuta|Sideritis dasygnaphala|Sideritis euboea|Sideritis perfoliata|Silphium perfoliatum|Simaba cuneata|Sinapis alba|Sinularia facile|Sinularia inelegans|Siphoneugena densiflora|Sisyrinchium californicum|Smilax Glabra|Smilax china|Smilax glabra|Solanum andigena|Solanum diflorum|Solanum lycopersicum|Solanum melongena|Solanum nigrum|Solanum spirale|Solanum sublobatum|Solidago canadensis|Solidago gigantea|Solidago virgaurea|Sophora davidii|Sophora leachiana|Sorbaria arborea|Sorbus tianschanica|Spatholobus suberectus|Spiracantha cornifolia|Spiraea formosa|Spiraea formosana|Staehelina fruticosa|Stellaria media|Stenocereus thurberi|Stenoloma Chusanum|Stenoloma chusanum|Stephania elegans|Stevia berlandieri|Stocksia brahuica|Streptomyces fradiae|Streptomyces globisporus|Streptomyces griseocarneus|Streptomyces melanogenes|Streptomyces parvisporogenes|Streptomyces platensis|Streptomyces prasinopilosus|Streptomyces sulfonofaciens|Streptomyces tateyamensis|Streptomyces xanthocidicus|Strychnos erichsonii|Strychnos ledermannii|Swertia pseudochinensis|Swertia swertopsis|Synsepalum dulcificum|Syzygium aromaticum|Syzygium levinei|Tabernaemontana divaricata|Tadehagi triquetrum|Tagetes erecta|Tagetes minuta|Takifugu rubripes|Talipariti tiliaceum|Tamarix hispida|Taraxacum borealisinense|Taraxacum coreanum|Taraxacum formosanum|Taraxacum mongolicum|Taraxacum officinale|Taraxacum platycarpum|Tarenna attenuata|Taxus baccata|Taxus brevifolia|Tephroseris kirilowii|Tephrosia bidwilli|Thalictrum podocarpum|Theobroma cacao|Thermothelomyces thermophila|Thielavia terricola|Thymus|Thymus quinquecostatus|Thymus vulgaris|Tilia mandshurica|Tilia tomentosa|Toddalia asiatica|Tolypothrix tjipanasensis|Tornabea scutellifera|Tragopogon orientalis|Tragopogon pratensis|Trapa bicornis|Trichilia catigua|Trichoderma koningi|Trichoplusia ni|Tridachia crispata|Trifolium resupinatum|Tripteris microcarpa|Triticum aestivum|Triticum durum|Tsuga chinensis|Tupistra chinensis|Turbina corymbosa|Turbo cornutus|Tylophora tanakae|Urginea riparia|Usnea undulata|Utricularia australis|Vaccinium macrocarpon|Vaccinium myrtillus|Vaccinium sp.|Vallaris heynei|Vellozia streptophylla|Ventilago madraspatana|Verbesina myriocephala|Verbesina turbacensis|Vernonia lilacina|Viburnum davidii|Vigna radiata|Vigna unguiculata|Vincetoxicum atratum|Vincetoxicum versicolor|Virgilia divaricata|Virola sebifera|Visnea mocanera|Vitellaria paradoxa|Vitex negundo|Vitis sp.|Vitis vinifera|Viviparus japonicus|Xanthoria parietina|Xerula melanotricha|Xyris indica|Zanthoxylum ailanthoides|Zanthoxylum asiaticum|Zanthoxylum chiloperone|Zanthoxylum decaryi|Zanthoxylum gilletii|Zanthoxylum lemairei|Zanthoxylum leprieurii|Zanthoxylum nitidum|Zanthoxylum simulans|Zanthoxylum zanthoxyloides|Zea mays|Zephyranthes flava|Ziziphus jujuba|Zygosaccharomyces rouxii|asparagus|basil|broad bean|cacao|clove|common dandelion|garlic|maize|moringa|parsley|soybean|tomato

>  <collections>  (1431) 
ANPDB|Australian natural products|CMAUP (cCollective molecular activities of useful plants)|ChEBI NPs|ChemSpider NPs|EMNPD|ETM (Ethiopian Traditional Medicine) DB|Exposome-explorer|FooDB|GNPS (Global Natural Products Social Molecular Networking)|HIM (Herbal Ingredients in-vivo Metabolism database)|InterBioScreen Ltd|KNApSaCK|Latin America dataset|NANPDB (Natural Products from Northern African Sources)|NAPRORE-CR|NPASS|NPCARE|NPDBEjeCol|NPEdia|NuBBEDB|Phenol-explorer|Phyto4Health|PhytoLab phyproof® Reference Substances|ReSpect|Super Natural II|TCMDB-Taiwan (Traditional Chinese Medicine database)|TCMID (Traditional Chinese Medicine Integrated Database)|TIPdb (database of Taiwan indigenous plants)|UNPD (Universal Natural Products Database)|VietHerb|Watermelon|WikiData Natural Products|p-ANAPL

>  <dois>  (1431) 
10.1002/1099-1565(200011/12)11:6<375::AID-PCA539>3.0.CO;2-0|10.1002/BMS.1200200504|10.1002/CBDV.201100219|10.1002/CBER.19610941204|10.1002/CHIN.200533256|10.1002/ELPS.201300646|10.1002/HLCA.200390047|10.1002/JCCS.199400028|10.1002/JCCS.199900010|10.1002/JCCS.200000050|10.1002/JCCS.200000074|10.1002/JCCS.200300178|10.1002/JCCS.200400100|10.1002/JPS.2600620635|10.1002/JSSC.200390053|10.1002/JSSC.200390054|10.1002/JSSC.200500003|10.1002/PCA.2345|10.1002/jccs.200000074|10.1002/pca.2345|10.1007/BF00381261|10.1007/BF00564480|10.1007/BF00565232|10.1007/BF00566348|10.1007/BF00568230|10.1007/BF00574347|10.1007/BF00575727|10.1007/BF00575737|10.1007/BF00579785|10.1007/BF00597724|10.1007/BF00598278|10.1007/BF00601301|10.1007/BF00629948|10.1007/BF00629967|10.1007/BF00982301|10.1007/BF00994606|10.1007/BF02467553|10.1007/BF02523530|10.1007/BF02671339|10.1007/BF02976704|10.1007/S00216-007-1298-8|10.1007/S00217-004-0938-X|10.1007/S002170050544|10.1007/S10600-005-0012-3|10.1007/S10600-009-9379-X|10.1007/S10600-010-9463-2|10.1007/S10600-010-9591-8|10.1007/S10600-010-9595-4|10.1007/S10600-010-9639-9|10.1007/S10600-010-9649-7|10.1007/S10600-010-9696-0|10.1007/S10600-011-9905-5|10.1007/S10600-012-0141-4|10.1007/S11101-023-09858-Z|10.1007/S11130-011-0236-2|10.1007/S11130-020-00822-2|10.1007/S11240-014-0506-4|10.1007/S11306-012-0464-Y|10.1007/S11947-012-0877-7|10.1016/0021-9673(95)00877-2|10.1016/0031-9422(73)80048-2|10.1016/0031-9422(81)83035-X|10.1016/0031-9422(81)85100-X|10.1016/0031-9422(88)80758-1|10.1016/0031-9422(91)85032-U|10.1016/0031-9422(92)90050-Z|10.1016/0031-9422(95)00005-R|10.1016/0031-9422(95)00427-9|10.1016/0031-9422(95)00942-Z|10.1016/0031-9422(95)00954-X|10.1016/0031-9422(96)00146-X|10.1016/0031-9422(96)00212-9|10.1016/0098-8472(86)90054-7|10.1016/0305-1978(94)90063-9|10.1016/0378-5173(89)90326-8|10.1016/0378-8741(95)01328-8|10.1016/0378-8741(96)01419-5|10.1016/J.BMC.2003.11.017|10.1016/J.BMC.2005.07.050|10.1016/J.BMC.2008.09.023|10.1016/J.BMCL.2015.05.089|10.1016/J.CHROMA.2007.01.090|10.1016/J.FITOTE.2004.10.017|10.1016/J.FITOTE.2009.12.009|10.1016/J.FOODCHEM.2005.02.007|10.1016/J.FOODCHEM.2006.08.014|10.1016/J.FOODCHEM.2006.11.008|10.1016/J.FOODCHEM.2019.125649|10.1016/J.FOODCHEM.2020.128444|10.1016/J.FOODRES.2017.06.052|10.1016/J.IFSET.2018.01.008|10.1016/J.INDCROP.2018.08.004|10.1016/J.LWT.2018.02.024|10.1016/J.PHYTOCHEM.2003.12.009|10.1016/J.PHYTOCHEM.2006.03.024|10.1016/J.PHYTOCHEM.2009.04.008|10.1016/J.PHYTOCHEM.2011.01.006|10.1016/J.PHYTOL.2011.08.003|10.1016/J.PLAPHY.2015.04.008|10.1016/J.TET.2003.08.029|10.1016/S0003-2670(01)01241-7|10.1016/S0021-9673(01)00598-2|10.1016/S0021-9673(01)01434-0|10.1016/S0021-9673(01)93959-7|10.1016/S0031-9422(00)80549-X|10.1016/S0031-9422(00)80792-X|10.1016/S0031-9422(00)88025-5|10.1016/S0031-9422(00)97488-0|10.1016/S0031-9422(01)00176-5|10.1016/S0031-9422(02)00133-4|10.1016/S0031-9422(02)00163-2|10.1016/S0031-9422(02)00268-6|10.1016/S0031-9422(97)01108-4|10.1016/S0031-9422(97)01118-7|10.1016/S0031-9422(99)00070-9|10.1016/S0031-9422(99)00169-7|10.1016/S0308-8146(00)00322-8|10.1016/S0308-8146(02)00590-3|10.1016/S0308-8146(98)00146-0|10.1016/S0367-326X(99)00149-5|10.1016/S0963-9969(00)00072-7|10.1016/S1466-8564(01)00040-6|10.1016/s0031-9422(00)90067-0|10.1021/ACS.JAFC.5B05575|10.1021/ACS.JNATPROD.0C00564|10.1021/ACS.JNATPROD.6B00582|10.1021/JF00021A005|10.1021/JF00035A076|10.1021/JF00042A006|10.1021/JF0006473|10.1021/JF00078A018|10.1021/JF00086A016|10.1021/JF00110A030|10.1021/JF00118A035|10.1021/JF00121A033|10.1021/JF00123A028|10.1021/JF011454Y|10.1021/JF020028P|10.1021/JF0201327|10.1021/JF040083T|10.1021/JF049847V|10.1021/JF050579Q|10.1021/JF050579Q.S001|10.1021/JF050721N|10.1021/JF0615247|10.1021/JF9502461|10.1021/JF9505335|10.1021/JF9601628|10.1021/JF960741C|10.1021/JF980049C|10.1021/JF9912506|10.1021/NP010122K|10.1021/NP030505D|10.1021/NP060500R|10.1021/NP070089N|10.1021/NP070186G|10.1021/NP100372T|10.1021/NP100373F|10.1021/NP100902F|10.1021/NP400701K|10.1021/NP800001V|10.1021/NP8004503|10.1021/NP970044U|10.1021/acs.jnatprod.0c00564|10.1021/jf4025135|10.1021/np010122k|10.1021/np060500r|10.1021/np100372t|10.1021/np100373f|10.1021/np800001v|10.1034/J.1399-3054.2003.00068.X|10.1046/J.1365-2621.1998.00219.X|10.1051/ctv/20173202093|10.1055/S-0028-1097197|10.1055/S-0028-1097531|10.1055/S-0028-1097628|10.1055/S-0028-1097904|10.1055/S-0028-1099426|10.1055/S-0028-1099839|10.1055/S-0035-1545201|10.1055/S-2002-34410|10.1055/S-2006-931604|10.1055/S-2006-957604|10.1055/S-2006-960092|10.1055/S-2007-967165|10.1055/S-2007-969319|10.1055/S-2008-1074536|10.1080/01483919008049590|10.1080/0957126032000114982|10.1080/10286020903128942|10.1080/14786410601035811|10.1080/14786411003746476|10.1080/14786411003757929|10.1080/14786419.2010.506181|10.1086/325089|10.1093/CHROMSCI/BMY030|10.1093/jn/133.6.1806|10.1093/pcp/pcn183|10.1104/PP.69.2.522|10.1111/J.1365-2621.1983.TB14902.X|10.1111/J.1365-2621.1987.TB14056.X|10.1111/J.1745-4557.2006.00096.X|10.1111/J.2042-7158.1998.TB03332.X|10.1155/2017/7436259|10.1248/CPB.17.124|10.1248/CPB.35.2675|10.1248/CPB.47.887|10.1248/CPB.48.201|10.1248/CPB.48.357|10.1248/CPB.50.1558|10.1248/CPB.52.1227|10.1248/CPB.53.1065|10.1248/CPB.53.56|10.1248/CPB.53.641|10.1248/CPB.53.853|10.1248/CPB.55.1222|10.1248/CPB.56.97|10.1248/YAKUSHI1947.97.4_452|10.1271/BBB1961.44.205|10.1365/S10337-005-0622-8|10.14233/AJCHEM.2014.16143A|10.1515/PJFNS-2017-0005|10.1515/ZNB-2005-0715|10.1515/ZNC-1998-11-1225|10.1515/ZNC-2001-9-1012|10.1515/ZNC-2008-5-611|10.15255/CABEQ.2015.2168|10.1590/S0103-50532006000200010|10.20902/ijctr.2018.110941|10.21273/HORTSCI.29.4.313|10.21548/25-2-2143|10.32861/JBR.66.57.61|10.3389/fphar.2015.00274|10.3390/MOLECULES15096244|10.3390/MOLECULES19079675|10.3390/NU11061377|10.3390/molecules22010011|10.3390/plants6040050|10.3923/JBS.2001.843.845|10.3987/COM-03-9777|10.3987/COM-98-8408|10.4268/CJCMM20120413|10.4268/CJCMM20121914|10.5586/ASBP.1988.009|10.5586/ASBP.1995.007|10.5586/ASBP.1998.029|10.5586/ASBP.2000.003|10.5650/JOS1996.45.671|10.5650/JOS1996.46.1399|10.9734/EJMP/2013/4976

>  <synonyms>  (1431) 
nan

>  <cas>  (1431) 
530-57-4

$$$$

     RDKit          2D

 19 21  0  0  0  0  0  0  0  0999 V2000
    5.2721   -1.3258    0.0000 C   0  0  0  0  0  0  0  0  0  0  0  0
    4.3238   -0.1636    0.0000 O   0  0  0  0  0  0  0  0  0  0  0  0
    2.8431   -0.4037    0.0000 C   0  0  0  0  0  0  0  0  0  0  0  0
    2.3108   -1.8061    0.0000 C   0  0  0  0  0  0  0  0  0  0  0  0
    0.8301   -2.0462    0.0000 C   0  0  0  0  0  0  0  0  0  0  0  0
   -0.1182   -0.8840    0.0000 C   0  0  0  0  0  0  0  0  0  0  0  0
   -1.5988   -1.1242    0.0000 C   0  0  0  0  0  0  0  0  0  0  0  0
   -2.1312   -2.5265    0.0000 O   0  0  0  0  0  0  0  0  0  0  0  0
   -3.6118   -2.7667    0.0000 C   0  0  0  0  0  0  0  0  0  0  0  0
   -2.5471    0.0380    0.0000 C   0  0  0  0  0  0  0  0  0  0  0  0
   -4.0453    0.1110    0.0000 C   0  0  0  0  0  0  0  0  0  0  0  0
   -4.4389    1.5584    0.0000 C   0  0  0  0  0  0  0  0  0  0  0  0
   -3.1840    2.3800    0.0000 O   0  0  0  0  0  0  0  0  0  0  0  0
   -2.0148    1.4404    0.0000 C   0  0  0  0  0  0  0  0  0  0  0  0
   -0.5341    1.6805    0.0000 N   0  0  0  0  0  0  0  0  0  0  0  0
    0.4142    0.5183    0.0000 C   0  0  0  0  0  0  0  0  0  0  0  0
    1.8949    0.7585    0.0000 C   0  0  0  0  0  0  0  0  0  0  0  0
    2.4272    2.1608    0.0000 O   0  0  0  0  0  0  0  0  0  0  0  0
    3.9079    2.4010    0.0000 C   0  0  0  0  0  0  0  0  0  0  0  0
  1  2  1  0
  2  3  1  0
  3  4  2  0
  4  5  1  0
  5  6  2  0
  6  7  1  0
  7  8  1  0
  8  9  1  0
  7 10  2  0
 10 11  1  0
 11 12  2  0
 12 13  1  0
 13 14  1  0
 14 15  2  0
 15 16  1  0
 16 17  2  0
 17 18  1  0
 18 19  1  0
 17  3  1  0
 16  6  1  0
 14 10  1  0
M  END
>  <identifier>  (1432) 
CNP0139758.0

>  <canonical_smiles>  (1432) 
COC1=CC=C2C(OC)=C3C=COC3=NC2=C1OC

>  <standard_inchi>  (1432) 
InChI=1S/C14H13NO4/c1-16-10-5-4-8-11(13(10)18-3)15-14-9(6-7-19-14)12(8)17-2/h4-7H,1-3H3

>  <standard_inchi_key>  (1432) 
SLSIBLKBHNKZTB-UHFFFAOYSA-N

>  <name>  (1432) 
Skimmianine

>  <iupac_name>  (1432) 
4,7,8-trimethoxyfuro[2,3-b]quinoline

>  <annotation_level>  (1432) 
5

>  <total_atom_count>  (1432) 
32

>  <heavy_atom_count>  (1432) 
19

>  <molecular_weight>  (1432) 
259.26

>  <exact_molecular_weight>  (1432) 
259.08446

>  <molecular_formula>  (1432) 
C14H13NO4

>  <alogp>  (1432) 
3.01

>  <topological_polar_surface_area>  (1432) 
53.72

>  <rotatable_bond_count>  (1432) 
3

>  <hydrogen_bond_acceptors>  (1432) 
5

>  <hydrogen_bond_donors>  (1432) 
0

>  <hydrogen_bond_acceptors_lipinski>  (1432) 
5

>  <hydrogen_bond_donors_lipinski>  (1432) 
0

>  <lipinski_rule_of_five_violations>  (1432) 
0

>  <aromatic_rings_count>  (1432) 
3

>  <qed_drug_likeliness>  (1432) 
0.72

>  <formal_charge>  (1432) 
0

>  <fractioncsp3>  (1432) 
0.21

>  <number_of_minimal_rings>  (1432) 
3

>  <van_der_walls_volume>  (1432) 
223.90

>  <contains_sugar>  (1432) 
False

>  <contains_ring_sugars>  (1432) 
False

>  <contains_linear_sugars>  (1432) 
False

>  <murcko_framework>  (1432) 
n1c2occc2cc3ccccc13

>  <np_likeness>  (1432) 
0.89

>  <chemical_class>  (1432) 
Quinolines and derivatives

>  <chemical_sub_class>  (1432) 
Furanoquinolines

>  <chemical_super_class>  (1432) 
Organoheterocyclic compounds

>  <direct_parent_classification>  (1432) 
Furanoquinolines

>  <np_classifier_pathway>  (1432) 
Alkaloids

>  <np_classifier_superclass>  (1432) 
Tryptophan alkaloids

>  <np_classifier_class>  (1432) 
Quinoline alkaloids

>  <np_classifier_is_glycoside>  (1432) 
False

>  <organisms>  (1432) 
Aconitum chiisanense|Aconitum volubile|Acronychia laurifolia|Acronychia pedunculata|Adiscanthus fusciflorus|Aegle marmelos|Aegle sp.|Aeollanthus buchnerianus|Agapanthus africanus|Agathosma|Agathosma barosmaefolia|Agathosma bisulca|Agathosma capensis|Agathosma peglerae|Agathosma thymifolia|Agave deserti|Ageratina saltillensis|Aglaia pyramidata|Alchornea cordifolia|Alexandrium excavatum|Alexandrium hiranoi|Allium ramosum|Almeidea rubra|Alpinia officinarum|Amomum daniellii|Amomum reticulatum|Amyris texana|Angelica taiwaniana|Angostura longiflora|Aplidium conicum|Aplophyllum villosum|Aplysia punctata|Araliopsis soyauxii|Araliopsis tabouensis|Archaster typicus|Artemisia brevifolia|Artocarpus odoratissimus|Asclepias subulata|Ascodesmis sphaerospora|Aspergillus fischeri|Aster indicus|Astropecten indicus|Atalantia wightii|Ateleia herbert-smithii|Austroplenckia populnea|Balanophora japonica|Balfourodendron riedelianum|Beaucarnea recurvata|Bellium bellidioides|Beta vulgaris|Boninia glabra|Boronia anemonifolia|Boronia ternata|Calcarisporium thermophilum|Calycanthus chinensis|Caralluma russeliana|Casimiroa edulis|Casimiroa pubescens|Cassia singueana|Celastrus monospermus|Centaurea arenaria|Centaurea calcitrapa|Cephalosporium gregatum|Ceratocystis variospora|Cetorhinus maximus|Chelonia japonica|Chloroxylon swietenia|Choisya ternata|Chorilaena quercifolia|Cinnamomum massoia|Citrus trifoliata|Cladosporium phlei|Clausena anisata|Clausena dunniana|Clitocybe subilludens|Coleus esquirolii|Commiphora kua|Conium maculatum|Consolida hohenackeri|Coprinellus flocculosus|Corydalis persica|Corynanthe pachyceras|Cota tinctoria|Cotylelobium scabriusculum|Cratystylis conocephala|Croton joufra|Cynara humilis|Cynoglossum amabile|Cynoglossum viridiflorum|Cynometra hankei|Dacrydium fonkii|Dalbergia monetaria|Daphne tangutica|Decatropis bicolor|Dendroctonus pseudotsugae|Derris malaccensis|Dictamnus albus|Dictamnus albus L.|Dictamnus angustifolia|Dictamnus angustifolius|Dictamnus dasycarpus|Dictamnus hispanicus|Dictamnus sp.|Didymium bahiense|Diospyros abyssinica|Diospyros elliptifolia|Diospyros peregrina|Drummondita calida|Drummondita hassellii|Dysidea villosa|Dysphania graveolens|Echinosophora koreensis|Echium plantagineum|Elegia deusta|Epinetrum cordifolium|Erica glauca|Erigeron acris|Ertela trifolia|Ertela trifolia L. Kuntze|Esenbeckia febrifuga|Esenbeckia flava|Esenbeckia grandiflora|Esenbeckia hartmanii|Esenbeckia leiocarpa|Esenbeckia sp.|Espeletiopsis purpurascens|Eucalyptus laevopinea|Eucryphia glutinosa|Euodia|Euonymus europaeus|Eutrochium purpureum|Euxylophora paraensis|Evea brasiliensis|Evodia sp.|Fagara manschurica|Fagara rhetza (Roxb.) DC|Fagara sp.|Ficus conraui|Flindersia bennettiana|Flindersia bennettii|Flindersia collina|Flindersia dissosperma|Flindersia laevicarpa|Flindersia laevicarpa C.T.White et Francis.|Flindersia maculosa|Flindersia spp.|Fucus serratus|Garcinia intermedia|Geijera balansae|Geijera salicifolia|Glycosmis angustifolia|Glycosmis citrifolia|Glycosmis cochinchinensis|Glycosmis cyanocarpa|Glycosmis macrophylla|Glycosmis mauritiana|Glycosmis parviflora|Glycosmis pentaphylla|Glycosmis pseudoracemosa|Glycosmis spp.|Glycosmis trichanthera|Gonospermum canariense|Gracilaria eucheumoides|Grewia villosa|Grosvenoria rimbachii|Gutenbergia cordifolia|Haminoea orteai|Haplophyllum|Haplophyllum acutifolium|Haplophyllum bucharicum|Haplophyllum bucharicum Litv.|Haplophyllum bungei|Haplophyllum buxbaumii|Haplophyllum cappadocicum|Haplophyllum dauricum|Haplophyllum dubium Eug.Kor.|Haplophyllum griffithianum|Haplophyllum latifolium|Haplophyllum myrtifolium|Haplophyllum obtusifolium|Haplophyllum obtusifolium Ldb.|Haplophyllum patavinum|Haplophyllum pedicellatum|Haplophyllum pedicellatum Bge.|Haplophyllum popovii|Haplophyllum popovii Eug.Kor.|Haplophyllum ramosissimum|Haplophyllum robustum|Haplophyllum sp.|Haplophyllum spp.|Haplophyllum thesioides|Haplophyllum tuberculatum|Haplophyllum vulcanicum|Helianthus californicus|Helianthus niveus|Hernandia sonora|Hesperocyparis goveniana var. abramsiana|Hortia brasiliana|Hortia longifolia|Hortia regia|Hortonia floribunda|Hosta sieboldiana|Hunteria eburnea|Hygrophorus eburneus|Ilex oblonga|Imperata cylindrica|Inula grantioides|Inula salsoloides|Iochroma coccineum|Jacobaea cannabifolia|Jacobaea vulgaris|Juniperus horizontalis|Kielmeyera coriacea|Kleinhovia hospita|Knautia arvensis|Lactarius fuliginosus|Lactarius subpiperatus|Lactobacillus delbrueckii subsp. bulgaricus|Lagochilus hirsutissimus|Lathyrus tingitanus|Laurus camphora|Leionema nudum|Leishmania major|Leontodon filii|Lepechinia hastata|Leptospermum recurvum|Leucas neufliseana|Limonium bicolor|Lithospermum officinale|Litsea glutinosa|Maclurodendron oligophlebium|Macroclinidium robustum|Matricaria suffruticosa|Medicago hybrida|Melanelixia fuliginosa subsp. glabratula|Melicope confusa|Melicope erromangensis|Melicope perspicuinervia|Melicope quadrilocularis|Melicope reticulata|Melicope semecarpifolia|Melicope sp.|Melicope triphylla|Melicope xanthoxyloides|Melipotis perpendicularis|Metapenaeus bennettae|Metrodorea nigra|Mikania scandens|Morella cerifera|Morinda coreia|Murraya Paniculata|Murraya gleniei|Murraya paniculata|Murraya spp.|Myrtopsis macrocarpa|Myrtopsis sellingii|Nauclea gambir|Nematolepis phebalioides|Nemopilema nomurai|Neurolaena macrophylla|Nigrosabulum globosum|Notechis scutatus|Olea capensis|Oricia suaveolens|Orixa japonica|Pachysandra axillaris|Parmelia damaziana|Parmelia zollingeri|Passiflora morifolia|Pelargonium crispum|Peltostigma guatemalense|Peperomia pellucida|Persicaria tinctoria|Petrosia volcano|Peucedanum oroselinum|Peucedanum praeruptorum|Phaeotremella fagi|Pharbitis nil|Phebalium|Phellodendron Amurense|Phellodendron amurense|Phellodendron chinense|Phellodendron chinese|Philotheca thryptomenoides|Phyllodium pulchellum|Pinus abies|Pitavia punctata|Plakortis simplex|Platonia insignis|Plectosphaerella cucumerina|Plectranthus caninus|Plectranthus hereroensis|Polypodium aureum|Poncirus trifoliata|Propylea quatuordecimpunctata|Ptelea aptera|Ptelea crenulata|Ptelea trifolia|Pycnarrhena australiana|Raputia praetermissa|Raputiarana heptaphylla|Rauvolfia salicifolia|Reaumuria hirtella|Rhizoplaca baranowii|Rhizopus japonicus|Rhytidoponera metallica|Ruta Graveolens|Ruta chalepensis|Ruta corsica|Ruta graveolens|Ruta graveolens L.|Ruta macrophylla|Ruta sp.|Rutaceae|Saccharina angustata|Salmonella enterica subsp. enterica serovar bovismorbificans|Salta triflora|Salvia hypargeia|Salvia munzii|Salvia polystachya|Sarcococca vagans|Sarcomelicope glauca|Schrebera swietenoides|Scorzonera hispanica|Senecio densiflorus|Senecio gilliesi|Shorea affinis|Sickingia rubra|Sida veronicaefolia|Siphonaria normalis|Skimmia japonica|Skimmia japonica Thunb.|Skimmia reevesiana|Skimmia sp.|Smyrnium perfoliatum|Solanum spirale|Solanum transcaucasicum|Solenostemon sylvaticus|Solidago missouriensis|Sophora leachiana|Spatoglossum pacificum|Spiraea prunifolia|Spiranthera odoratissima|Spongia bilamellata|Stauranthus perforatus|Stereocaulon salazinum|Streptomyces chryseus|Streptomyces levoris|Strychnos cocculoides|Strychnos potatorum|Strychnos spinosa|Talipariti tiliaceum|Teclea nobilis|Teclea simplicifolia|Teclea trichocarpa|Tecoma pentaphylla|Tecoma peroba|Tephrosia bidwilli|Tetilla japonica|Tetradium glabrifolium|Tetradium ruticarpum|Thamnosma montana|Thielavia terricola|Thynnus thynnus|Ticorea longiflora|Toddalia Asiatica|Toddalia asiatica|Trachelospermum lucidum|Trapa japonica|Tricleocarpa fragilis|Trifolium montanum|Trollius macropetalus|Tuberolachnus salignus|Tylophora asthmatica|Tylosema esculentum|Udotea petiolata|Ulmus americana|Uresiphita reversalis|Ursinia anthemoides|Vepris bilocularis|Vepris gabonensis|Vepris nobilis|Vepris punctata|Vepris renieri|Vepris simplicifolia|Vepris soyauxii|Vepris suaveolens|Vepris tabouensis|Vepris trichocarpa|Vepris unifoliolata|Vernonia chloropappa|Vernonia cinerascens|Vernonia lilacina|Veronica cupressoides|Vicia balansae|Vinca erecta|Vinca erecta Rgl.et Schmalh.|Vinca herbacea|Vinca herbacea Waldst.et Kit.|Vitellaria paradoxa|Warburgia salutaris|Wedelia prostrata|White sapote|Wikstroemia chamaedaphne|Wilcoxia viperina|Xanthoparmelia quintaria|Xanthoria aureola|Xanthoria parietina|Zanthoxylum Planispinum|Zanthoxylum ailanthoides|Zanthoxylum arborescens|Zanthoxylum asiaticum|Zanthoxylum avicennae|Zanthoxylum beecheyanum|Zanthoxylum belizense|Zanthoxylum budrunga|Zanthoxylum bungeanum|Zanthoxylum capense|Zanthoxylum chalybaeum|Zanthoxylum chalybeum|Zanthoxylum coco|Zanthoxylum culantrillo|Zanthoxylum decaryi|Zanthoxylum delagoense|Zanthoxylum dimorphophyllum|Zanthoxylum ekmanii|Zanthoxylum gilletii|Zanthoxylum integrifoliolum|Zanthoxylum integrifolium|Zanthoxylum leprieurii|Zanthoxylum mayu|Zanthoxylum nitidum|Zanthoxylum piperitum|Zanthoxylum planispinum|Zanthoxylum rhetsa|Zanthoxylum rhoifolium|Zanthoxylum sarasinii|Zanthoxylum scandens|Zanthoxylum schinifolium|Zanthoxylum setulosum|Zanthoxylum simulans|Zanthoxylum sp.|Zanthoxylum spp.|Zanthoxylum tragodes|Zanthoxylum viride|Zanthoxylum wutaiense|Zanthoxylum zanthoxyloides

>  <collections>  (1432) 
ANPDB|AfroCancer|AfroDB|AnalytiCon Discovery NPs|Australian natural products|CMAUP (cCollective molecular activities of useful plants)|ChEBI NPs|ChemSpider NPs|ConMedNP|ETM (Ethiopian Traditional Medicine) DB|GNPS (Global Natural Products Social Molecular Networking)|KNApSaCK|Latin America dataset|Mitishamba database|NANPDB (Natural Products from Northern African Sources)|NAPRORE-CR|NPASS|NPCARE|NPEdia|NuBBEDB|Phyto4Health|PhytoLab phyproof® Reference Substances|PubChem NPs|SANCDB|Specs Natural Products|Super Natural II|TCMDB-Taiwan (Traditional Chinese Medicine database)|TCMID (Traditional Chinese Medicine Integrated Database)|TIPdb (database of Taiwan indigenous plants)|TPPT (Toxic Plants–PhytoToxins)|UEFS (Natural Products Databse of the UEFS)|UNPD (Universal Natural Products Database)|VietHerb|WikiData Natural Products|ZINC NP

>  <dois>  (1432) 
10.1002/(SICI)1099-1573(1998)12:1+<S74::AID-PTR255>3.0.CO;2-V|10.1002/9780470744307.gat218|10.1002/CBDV.200800107|10.1002/CBDV.200900289|10.1002/CHIN.200413167|10.1002/CHIN.200430200|10.1002/HLCA.200390259|10.1002/JCCS.200300024|10.1002/JCCS.200300178|10.1002/JCCS.200400099|10.1002/JCCS.200400159|10.1002/JCCS.200700112|10.1002/JHRC.1240090712|10.1002/JPS.2600640236|10.1002/RCM.3045|10.1002/biuz.19840140514|10.1002/food.19880321030|10.1007/BF00037792|10.1007/BF00055511|10.1007/BF00563344|10.1007/BF00563744|10.1007/BF00563974|10.1007/BF00564141|10.1007/BF00564862|10.1007/BF00565160|10.1007/BF00567161|10.1007/BF00567733|10.1007/BF00567798|10.1007/BF00567972|10.1007/BF00568445|10.1007/BF00568498|10.1007/BF00568641|10.1007/BF00574586|10.1007/BF00574794|10.1007/BF00574827|10.1007/BF00579670|10.1007/BF00579795|10.1007/BF00580074|10.1007/BF00595115|10.1007/BF00596686|10.1007/BF00596693|10.1007/BF00596694|10.1007/BF00596740|10.1007/BF00597580|10.1007/BF00598191|10.1007/BF00598335|10.1007/BF00598351|10.1007/BF00630180|10.1007/BF00636032|10.1007/BF00714932|10.1007/BF00937619|10.1007/BF01134623|10.1007/BF02238348|10.1007/BF02323307|10.1007/BF02857699|10.1007/PL00010251|10.1007/S007060050230|10.1007/S10600-005-0075-1|10.1007/S10600-007-0196-9|10.1007/S10600-010-9661-Y|10.1007/SPRINGERREFERENCE_37170|10.1016/0031-9422(71)85016-1|10.1016/0031-9422(72)85067-2|10.1016/0031-9422(74)80113-5|10.1016/0031-9422(74)80274-8|10.1016/0031-9422(75)85075-8|10.1016/0031-9422(79)80218-6|10.1016/0031-9422(79)83043-5|10.1016/0031-9422(79)83044-7|10.1016/0031-9422(80)80229-9|10.1016/0031-9422(80)83087-1|10.1016/0031-9422(80)85142-9|10.1016/0031-9422(80)85143-0|10.1016/0031-9422(81)85120-5|10.1016/0031-9422(81)85282-X|10.1016/0031-9422(82)83109-9|10.1016/0031-9422(84)83056-3|10.1016/0031-9422(88)80701-5|10.1016/0031-9422(88)83169-8|10.1016/0031-9422(88)83170-4|10.1016/0031-9422(88)84136-0|10.1016/0031-9422(89)80234-1|10.1016/0031-9422(89)85048-4|10.1016/0031-9422(90)85390-2|10.1016/0031-9422(90)85447-N|10.1016/0031-9422(90)89042-8|10.1016/0031-9422(91)80052-3|10.1016/0031-9422(91)85122-G|10.1016/0031-9422(92)80274-I|10.1016/0031-9422(92)83302-F|10.1016/0031-9422(94)85072-0|10.1016/0031-9422(95)00054-B|10.1016/0031-9422(95)00171-3|10.1016/0031-9422(95)00248-6|10.1016/0031-9422(95)00457-I|10.1016/0031-9422(95)00504-Z|10.1016/0031-9422(95)00856-X|10.1016/0031-9422(96)00062-3|10.1016/0031-9422(96)00077-5|10.1016/0031-9422(96)00355-X|10.1016/0040-4020(58)88046-1|10.1016/0165-7992(90)90123-2|10.1016/0305-1978(92)90104-L|10.1016/0305-1978(94)90095-7|10.1016/0305-1978(96)00077-4|10.1016/0378-8741(86)90156-X|10.1016/J.BMC.2005.07.050|10.1016/J.FITOTE.2003.08.004|10.1016/J.FITOTE.2003.12.014|10.1016/J.JEP.2005.11.001|10.1016/J.PHYMED.2008.02.001|10.1016/J.PHYTOCHEM.2007.08.009|10.1016/J.PHYTOL.2011.03.002|10.1016/J.PHYTOL.2011.08.012|10.1016/S0031-9422(00)81200-5|10.1016/S0031-9422(00)81426-0|10.1016/S0031-9422(00)83563-3|10.1016/S0031-9422(00)84549-5|10.1016/S0031-9422(00)84814-1|10.1016/S0031-9422(00)85715-5|10.1016/S0031-9422(00)86348-7|10.1016/S0031-9422(00)86717-5|10.1016/S0031-9422(00)88581-7|10.1016/S0031-9422(00)89294-8|10.1016/S0031-9422(00)89916-1|10.1016/S0031-9422(00)89934-3|10.1016/S0031-9422(00)90269-3|10.1016/S0031-9422(00)90802-1|10.1016/S0031-9422(00)90870-7|10.1016/S0031-9422(00)91132-4|10.1016/S0031-9422(00)91550-4|10.1016/S0031-9422(00)94261-4|10.1016/S0031-9422(00)94434-0|10.1016/S0031-9422(00)97045-6|10.1016/S0031-9422(00)97107-3|10.1016/S0031-9422(00)97383-7|10.1016/S0031-9422(01)00041-3|10.1016/S0031-9422(01)00186-8|10.1016/S0031-9422(02)00268-6|10.1016/S0031-9422(96)00724-8|10.1016/S0031-9422(96)00877-1|10.1016/S0031-9422(97)00280-X|10.1016/S0031-9422(97)00498-6|10.1016/S0031-9422(97)00747-4|10.1016/S0031-9422(97)00986-2|10.1016/S0031-9422(97)01130-8|10.1016/S0031-9422(97)89023-1|10.1016/S0031-9422(98)00519-6|10.1016/S0031-9422(98)00666-9|10.1016/S0031-9422(99)00039-4|10.1016/S0040-4020(01)90784-7|10.1016/S0040-4020(01)92510-4|10.1016/S0040-4020(01)99086-6|10.1016/S0305-1978(03)00039-5|10.1016/S0367-326X(03)00147-3|10.1016/j.jep.2015.05.053|10.1016/j.phytol.2011.08.012|10.1016/j.phytol.2012.03.017|10.1021/JA01262A030|10.1021/JA01504A040|10.1021/JA01638A045|10.1021/JO00134A027|10.1021/JO00829A053|10.1021/NP000012Y|10.1021/NP010122K|10.1021/NP0106182|10.1021/NP020578H|10.1021/NP0303512|10.1021/NP0303512.S001|10.1021/NP0400611|10.1021/NP0401462|10.1021/NP070594K|10.1021/NP50021A023|10.1021/NP50032A026|10.1021/NP50037A032|10.1021/NP50041A009|10.1021/NP50046A035|10.1021/NP50051A030|10.1021/NP50057A031|10.1021/NP50059A040|10.1021/NP50100A030|10.1021/NP50111A003|10.1021/NP700719E|10.1021/NP800276F|10.1021/NP980471N|10.1021/np0106182|10.1021/np020578h|10.1021/np800276f|10.1039/B707576F|10.1039/CT9099500964|10.1039/J39680000481|10.1039/J39700000556|10.1039/JR9590001922|10.1039/P19740002177|10.1055/S-0028-1084416|10.1055/S-0028-1097669|10.1055/S-0028-1097674|10.1055/S-0028-1099965|10.1055/S-0028-1100097|10.1055/S-0029-1243116|10.1055/S-0029-1243137|10.1055/S-0030-1270963|10.1055/S-2000-14894|10.1055/S-2000-8595|10.1055/S-2000-8648|10.1055/S-2002-34412|10.1055/S-2003-40637|10.1055/S-2005-864144|10.1055/S-2006-960014|10.1055/S-2006-961713|10.1055/S-2006-962398|10.1055/S-2007-969890|10.1055/S-2007-971491|10.1055/s-2006-960985|10.1071/CH9520579|10.1071/CH9570480|10.1071/CH9600427|10.1071/CH9600510|10.1071/CH9620819|10.1071/CH9630292|10.1071/CH9661991|10.1071/CH9740187|10.1071/CH9811625|10.1071/ch9570480|10.1080/10575630290019985|10.1080/10575639308050059|10.1080/14786410802228439|10.1111/J.2042-7158.1971.TB12785.X|10.1139/V89-329|10.1248/CPB.22.2650|10.1248/CPB.34.1826|10.1248/CPB.40.2325|10.1248/CPB.40.2639|10.1248/CPB.43.2014|10.1248/CPB.47.1579|10.1248/CPB.56.727|10.1248/CPB.59.855|10.1248/CPB.8.377|10.1248/YAKUSHI1881.50.12_1117|10.1248/YAKUSHI1947.103.3_279|10.1248/YAKUSHI1947.111.7_365|10.1248/YAKUSHI1947.116.12_911|10.1248/YAKUSHI1947.73.7_773|10.1248/YAKUSHI1947.91.7_782|10.1590/S0103-50531998000100007|10.1590/S0103-50532010000500016|10.1590/S0103-50532011000100024|10.1590/S0103-50532011000700021|10.2307/4117899|10.2903/j.efsa.2012.2663|10.3109/13880208709088132|10.3390/MOLECULES15129205|10.3390/MOLECULES190812031|10.3987/COM-11-12228|10.3987/R-1984-12-2821|10.5586/ASBP.1997.039

>  <synonyms>  (1432) 
nan

>  <cas>  (1432) 
83-95-4|5255-76-5

$$$$

     RDKit          2D

 28 28  0  0  0  0  0  0  0  0999 V2000
    1.0443    4.1783    0.0000 C   0  0  0  0  0  0  0  0  0  0  0  0
    1.0754    2.6786    0.0000 O   0  0  0  0  0  0  0  0  0  0  0  0
    2.3897    1.9557    0.0000 C   0  0  0  0  0  0  0  0  0  0  0  0
    3.6729    2.7325    0.0000 O   0  0  0  0  0  0  0  0  0  0  0  0
    2.4208    0.4560    0.0000 C   0  0  0  0  0  0  0  0  0  0  0  0
    3.7351   -0.2669    0.0000 C   0  0  0  0  0  0  0  0  0  0  0  0
    2.7950   -1.4357    0.0000 C   0  0  0  0  0  0  0  0  0  0  0  0
    1.3127   -1.2059    0.0000 C   0  0  0  0  0  0  0  0  0  0  0  0
    0.3726   -2.3747    0.0000 C   0  0  0  0  0  0  0  0  0  0  0  0
    0.9147   -3.7733    0.0000 C   0  0  0  0  0  0  0  0  0  0  0  0
   -1.1097   -2.1450    0.0000 C   0  0  0  0  0  0  0  0  0  0  0  0
   -1.6519   -0.7464    0.0000 C   0  0  0  0  0  0  0  0  0  0  0  0
   -3.1342   -0.5166    0.0000 C   0  0  0  0  0  0  0  0  0  0  0  0
   -4.0743   -1.6854    0.0000 C   0  0  0  0  0  0  0  0  0  0  0  0
   -3.5322   -3.0840    0.0000 C   0  0  0  0  0  0  0  0  0  0  0  0
   -5.5566   -1.4557    0.0000 C   0  0  0  0  0  0  0  0  0  0  0  0
   -6.0988   -0.0571    0.0000 C   0  0  0  0  0  0  0  0  0  0  0  0
   -7.5811    0.1727    0.0000 C   0  0  0  0  0  0  0  0  0  0  0  0
   -8.1233    1.5713    0.0000 C   0  0  0  0  0  0  0  0  0  0  0  0
   -9.6056    1.8011    0.0000 C   0  0  0  0  0  0  0  0  0  0  0  0
   -7.1831    2.7401    0.0000 C   0  0  0  0  0  0  0  0  0  0  0  0
    4.2188    1.1530    0.0000 C   0  0  0  0  0  0  0  0  0  0  0  0
    5.6903    1.4441    0.0000 C   0  0  0  0  0  0  0  0  0  0  0  0
    6.1740    2.8639    0.0000 O   0  0  0  0  0  0  0  0  0  0  0  0
    6.6781    0.3153    0.0000 C   0  0  0  0  0  0  0  0  0  0  0  0
    6.1944   -1.1046    0.0000 C   0  0  0  0  0  0  0  0  0  0  0  0
    4.7229   -1.3957    0.0000 C   0  0  0  0  0  0  0  0  0  0  0  0
    4.2393   -2.8156    0.0000 O   0  0  0  0  0  0  0  0  0  0  0  0
  1  2  1  0
  2  3  1  0
  3  4  2  0
  3  5  1  0
  6  5  1  1
  6  7  1  0
  7  8  1  0
  8  9  2  0
  9 10  1  0
  9 11  1  0
 11 12  1  0
 12 13  1  0
 13 14  2  0
 14 15  1  0
 14 16  1  0
 16 17  1  0
 17 18  1  0
 18 19  2  0
 19 20  1  0
 19 21  1  0
  6 22  1  0
 22 23  1  0
 23 24  1  1
 23 25  1  0
 25 26  2  0
 26 27  1  0
 27 28  2  0
 27  6  1  0
M  END
>  <identifier>  (1433) 
CNP0338071.1

>  <canonical_smiles>  (1433) 
COC(=O)C[C@@]1(C/C=C(\C)CC/C=C(\C)CCC=C(C)C)C[C@@H](O)C=CC1=O

>  <standard_inchi>  (1433) 
InChI=1S/C24H36O4/c1-18(2)8-6-9-19(3)10-7-11-20(4)14-15-24(17-23(27)28-5)16-21(25)12-13-22(24)26/h8,10,12-14,21,25H,6-7,9,11,15-17H2,1-5H3/b19-10+,20-14+/t21-,24+/m0/s1

>  <standard_inchi_key>  (1433) 
VSZJVKPJGPRJFZ-DNXUDWBKSA-N

>  <name>  (1433) 
nan

>  <iupac_name>  (1433) 
methyl 2-[(1~{R},5~{R})-5-hydroxy-2-oxo-1-[(2~{E},6~{E})-3,7,11-trimethyldodeca-2,6,10-trienyl]cyclohex-3-en-1-yl]acetate

>  <annotation_level>  (1433) 
4

>  <total_atom_count>  (1433) 
64

>  <heavy_atom_count>  (1433) 
28

>  <molecular_weight>  (1433) 
388.55

>  <exact_molecular_weight>  (1433) 
388.26136

>  <molecular_formula>  (1433) 
C24H36O4

>  <alogp>  (1433) 
5.24

>  <topological_polar_surface_area>  (1433) 
63.60

>  <rotatable_bond_count>  (1433) 
10

>  <hydrogen_bond_acceptors>  (1433) 
4

>  <hydrogen_bond_donors>  (1433) 
1

>  <hydrogen_bond_acceptors_lipinski>  (1433) 
4

>  <hydrogen_bond_donors_lipinski>  (1433) 
1

>  <lipinski_rule_of_five_violations>  (1433) 
1

>  <aromatic_rings_count>  (1433) 
0

>  <qed_drug_likeliness>  (1433) 
0.41

>  <formal_charge>  (1433) 
0

>  <fractioncsp3>  (1433) 
0.58

>  <number_of_minimal_rings>  (1433) 
1

>  <van_der_walls_volume>  (1433) 
nan

>  <contains_sugar>  (1433) 
False

>  <contains_ring_sugars>  (1433) 
False

>  <contains_linear_sugars>  (1433) 
False

>  <murcko_framework>  (1433) 
C1=CCCCC1

>  <np_likeness>  (1433) 
2.50

>  <chemical_class>  (1433) 
Prenol lipids

>  <chemical_sub_class>  (1433) 
Sesquiterpenoids

>  <chemical_super_class>  (1433) 
Lipids and lipid-like molecules

>  <direct_parent_classification>  (1433) 
Sesquiterpenoids

>  <np_classifier_pathway>  (1433) 
Terpenoids

>  <np_classifier_superclass>  (1433) 
Meroterpenoids

>  <np_classifier_class>  (1433) 
Prenyl quinone meroterpenoids

>  <np_classifier_is_glycoside>  (1433) 
False

>  <organisms>  (1433) 
Otoba parvifolia

>  <collections>  (1433) 
Latin America dataset|NuBBEDB|WikiData Natural Products|ZINC NP

>  <dois>  (1433) 
10.1016/0031-9422(95)00368-H

>  <synonyms>  (1433) 
rel-(1'R5'R)-2-(1'-Farnesyl-5'-hydroxy-2'-oxocyclohex-3'-en-1'-yl)-acetic acid methyl ester

>  <cas>  (1433) 
nan

$$$$

     RDKit          2D

 24 26  0  0  0  0  0  0  0  0999 V2000
   -7.9975   -1.0169    0.0000 C   0  0  0  0  0  0  0  0  0  0  0  0
   -6.6321   -0.3961    0.0000 C   0  0  0  0  0  0  0  0  0  0  0  0
   -5.4116   -1.2682    0.0000 C   0  0  0  0  0  0  0  0  0  0  0  0
   -4.0462   -0.6473    0.0000 C   0  0  0  0  0  0  0  0  0  0  0  0
   -3.9011    0.8456    0.0000 C   0  0  0  0  0  0  0  0  0  0  0  0
   -2.5356    1.4665    0.0000 C   0  0  0  0  0  0  0  0  0  0  0  0
   -2.3905    2.9594    0.0000 O   0  0  0  0  0  0  0  0  0  0  0  0
   -3.6109    3.8316    0.0000 C   0  0  0  0  0  0  0  0  0  0  0  0
   -1.3152    0.5944    0.0000 C   0  0  0  0  0  0  0  0  0  0  0  0
    0.1495    0.9177    0.0000 O   0  0  0  0  0  0  0  0  0  0  0  0
    0.9097   -0.3754    0.0000 C   0  0  0  0  0  0  0  0  0  0  0  0
    2.4027   -0.5204    0.0000 C   0  0  0  0  0  0  0  0  0  0  0  0
    3.0235   -1.8859    0.0000 C   0  0  0  0  0  0  0  0  0  0  0  0
    4.5165   -2.0310    0.0000 C   0  0  0  0  0  0  0  0  0  0  0  0
    5.3886   -0.8106    0.0000 C   0  0  0  0  0  0  0  0  0  0  0  0
    6.8816   -0.9557    0.0000 O   0  0  0  0  0  0  0  0  0  0  0  0
    4.7678    0.5549    0.0000 C   0  0  0  0  0  0  0  0  0  0  0  0
    5.6399    1.7753    0.0000 O   0  0  0  0  0  0  0  0  0  0  0  0
    5.0191    3.1408    0.0000 C   0  0  0  0  0  0  0  0  0  0  0  0
    3.2748    0.7000    0.0000 C   0  0  0  0  0  0  0  0  0  0  0  0
   -0.0852   -1.4979    0.0000 C   0  0  0  0  0  0  0  0  0  0  0  0
    0.2382   -2.9627    0.0000 C   0  0  0  0  0  0  0  0  0  0  0  0
   -1.4603   -0.8986    0.0000 C   0  0  0  0  0  0  0  0  0  0  0  0
   -2.8257   -1.5195    0.0000 C   0  0  0  0  0  0  0  0  0  0  0  0
  1  2  1  0
  2  3  2  0
  3  4  1  0
  4  5  2  0
  5  6  1  0
  6  7  1  0
  7  8  1  0
  6  9  2  0
  9 10  1  0
 10 11  1  0
 11 12  1  1
 12 13  2  0
 13 14  1  0
 14 15  2  0
 15 16  1  0
 15 17  1  0
 17 18  1  0
 18 19  1  0
 17 20  2  0
 11 21  1  0
 21 22  1  6
 21 23  1  0
 23 24  2  0
 24  4  1  0
 23  9  1  0
 20 12  1  0
M  END
>  <identifier>  (1434) 
CNP0270353.4

>  <canonical_smiles>  (1434) 
C/C=C/C1=CC(OC)=C2O[C@@H](C3=CC=C(O)C(OC)=C3)[C@H](C)C2=C1

>  <standard_inchi>  (1434) 
InChI=1S/C20H22O4/c1-5-6-13-9-15-12(2)19(24-20(15)18(10-13)23-4)14-7-8-16(21)17(11-14)22-3/h5-12,19,21H,1-4H3/b6-5+/t12-,19-/m1/s1

>  <standard_inchi_key>  (1434) 
ITDOFWOJEDZPCF-OTBILJLCSA-N

>  <name>  (1434) 
LICARIN A

>  <iupac_name>  (1434) 
2-methoxy-4-[(2~{R},3~{R})-7-methoxy-3-methyl-5-[(~{E})-prop-1-enyl]-2,3-dihydrobenzofuran-2-yl]phenol

>  <annotation_level>  (1434) 
5

>  <total_atom_count>  (1434) 
46

>  <heavy_atom_count>  (1434) 
24

>  <molecular_weight>  (1434) 
326.39

>  <exact_molecular_weight>  (1434) 
326.15181

>  <molecular_formula>  (1434) 
C20H22O4

>  <alogp>  (1434) 
4.68

>  <topological_polar_surface_area>  (1434) 
47.92

>  <rotatable_bond_count>  (1434) 
4

>  <hydrogen_bond_acceptors>  (1434) 
4

>  <hydrogen_bond_donors>  (1434) 
1

>  <hydrogen_bond_acceptors_lipinski>  (1434) 
4

>  <hydrogen_bond_donors_lipinski>  (1434) 
1

>  <lipinski_rule_of_five_violations>  (1434) 
0

>  <aromatic_rings_count>  (1434) 
2

>  <qed_drug_likeliness>  (1434) 
0.89

>  <formal_charge>  (1434) 
0

>  <fractioncsp3>  (1434) 
0.30

>  <number_of_minimal_rings>  (1434) 
3

>  <van_der_walls_volume>  (1434) 
306.23

>  <contains_sugar>  (1434) 
False

>  <contains_ring_sugars>  (1434) 
False

>  <contains_linear_sugars>  (1434) 
False

>  <murcko_framework>  (1434) 
O1c2ccccc2CC1c3ccccc3

>  <np_likeness>  (1434) 
1.79

>  <chemical_class>  (1434) 
2-arylbenzofuran flavonoids

>  <chemical_sub_class>  (1434) 
2-arylbenzofuran flavonoids

>  <chemical_super_class>  (1434) 
Phenylpropanoids and polyketides

>  <direct_parent_classification>  (1434) 
2-arylbenzofuran flavonoids

>  <np_classifier_pathway>  (1434) 
Shikimates and Phenylpropanoids

>  <np_classifier_superclass>  (1434) 
Lignans

>  <np_classifier_class>  (1434) 
Neolignans

>  <np_classifier_is_glycoside>  (1434) 
False

>  <organisms>  (1434) 
Andinobates fulguritus|Aniba|Aristolochia fordiana|Aristolochia maxima|Aristolochia pubescens|Aristolochia taliscana|Artemisia phaeolepis|Casuarina equisetifolia|Catalpa bignonioides|Cephalonoplos segetum|Chrysobalanus icaco|Comaster multifida|Dolichos kilimandscharicus|Esenbeckia nesiotica|Eupomatia laurina|Helipterum tenellum|Hyptis tomentosa|Ipomoea cristulata|Iryanthera lancifolia|Jackiella javanica|Krameria bicolor|Krameria cytisoides|Krameria grayi|Krameria sonorae|Lachnoanaerobaculum saburreum|Lactarius blennius|Laurencia dendroidea|Lens phaseoloides|Leucas aspera|Licaria aritu|Licaria guianensis|Lophozonia menziesii|Machilus japonica|Machilus obovatifolia|Machilus thunbergii|Magnolia dodecapetala|Magnolia kachirachirai|Magnolia ovata|Mollugo pentaphylla|Myristica castaneifolia|Myristica fragrans|Myristica fragrans Houtt.|Naucleopsis mello-barretoi|Nectandra amazonum|Nectandra hihua|Ocotea macrophylla|Paederia foetida|Pancratium trianthum|Piper pedicellosum|Pleurothyrium cinereum|Rhodotypos scandens|Saururus cernuus|Saururus chinensis|Silene dioica|Sinularia erecta|Staudtia kamerunensis|Tsuga sieboldii|Tuta absoluta|Xanthostemon oppositifolius|aristolochia fordiana

>  <collections>  (1434) 
Australian natural products|CMAUP (cCollective molecular activities of useful plants)|KNApSaCK|Latin America dataset|NPASS|NuBBEDB|Super Natural II|WikiData Natural Products|ZINC NP

>  <dois>  (1434) 
10.1002/HLCA.200790155|10.1007/BF01945432|10.1007/BF02975429|10.1016/0031-9422(73)85034-4|10.1016/0031-9422(90)83031-U|10.1016/0031-9422(91)84145-I|10.1016/0031-9422(94)00932-J|10.1016/J.BMC.2007.12.003|10.1016/S0031-9422(00)00076-5|10.1016/S0031-9422(00)81847-6|10.1016/S0031-9422(00)82370-5|10.1016/S0031-9422(00)84117-5|10.1016/S0031-9422(00)90571-5|10.1016/S0031-9422(00)97906-8|10.1016/S0031-9422(97)00075-7|10.1016/S0031-9422(99)00176-4|10.1016/j.bmc.2007.12.003|10.1016/j.bmcl.2009.10.069|10.1021/ACS.JNATPROD.5B00220|10.1021/NP0500272|10.1021/NP0500272.S001|10.1021/NP990327H|10.1021/acs.jnatprod.5b00220|10.1021/acs.jnatprod.6b00262|10.1055/S-2001-16480|10.1055/S-2006-961492|10.1055/S-2008-1074545|10.1071/CH9931421|10.1071/ch9792317|10.1076/PHBI.37.2.155.6088|10.1080/10826079708000478|10.1211/0022357001774949|10.1248/CPB.51.595|10.1248/CPB.57.1437|10.1248/CPB.57.639|10.1590/S0074-02762010000100006

>  <synonyms>  (1434) 
(+)-licarin A|(-)-Licarin A|(invertedexclamationmarkA)-LicarinA|2-methoxy-4-((2R,3R)-7-methoxy-3-methyl-5-((E)-prop-1-en-1-yl)-2,3-dihydrobenzofuran-2-yl)phenol|23518-30-1|51020-86-1|AC-34409|AKOS037515137|BDBM50303150|CHEMBL259731|CS-0019577|DB-348986|DTXSID401317696|Dehydrodiisoeugenol|HY-N2252|ITDOFWOJEDZPCF-OTBILJLCSA-N|Licarin-A, (2S3S)-23-dihydro-2-(4'-hydroxy-3'-methoxyphenyl)-7-methoxy-3-methyl-5-trans-propenylbenzofuran|MS-24874|NSC 370989|Phenol, 4-((2R,3R)-2,3-dihydro-7-methoxy-3-methyl-5-(1E)-1-propenyl-2-benzofuranyl)-2-methoxy-|SCHEMBL2871105|licarine A|trans-2,3-dihydro-2-(4-hydroxy-3-methoxyphenyl)-7-methoxy-3-methyl-5-(E)-propenylbenzofuran

>  <cas>  (1434) 
51020-86-1|23518-30-1

$$$$

     RDKit          2D

 14 13  0  0  0  0  0  0  0  0999 V2000
   -8.2697   -0.2044    0.0000 C   0  0  0  0  0  0  0  0  0  0  0  0
   -6.9462    0.5016    0.0000 C   0  0  0  0  0  0  0  0  0  0  0  0
   -5.6731   -0.2917    0.0000 C   0  0  0  0  0  0  0  0  0  0  0  0
   -4.3496    0.4143    0.0000 C   0  0  0  0  0  0  0  0  0  0  0  0
   -3.0765   -0.3790    0.0000 C   0  0  0  0  0  0  0  0  0  0  0  0
   -1.7530    0.3270    0.0000 C   0  0  0  0  0  0  0  0  0  0  0  0
   -0.4799   -0.4663    0.0000 C   0  0  0  0  0  0  0  0  0  0  0  0
    0.8436    0.2396    0.0000 C   0  0  0  0  0  0  0  0  0  0  0  0
    2.1167   -0.5536    0.0000 C   0  0  0  0  0  0  0  0  0  0  0  0
    3.4402    0.1523    0.0000 C   0  0  0  0  0  0  0  0  0  0  0  0
    4.7133   -0.6409    0.0000 C   0  0  0  0  0  0  0  0  0  0  0  0
    6.0368    0.0650    0.0000 C   0  0  0  0  0  0  0  0  0  0  0  0
    6.0873    1.5642    0.0000 O   0  0  0  0  0  0  0  0  0  0  0  0
    7.3099   -0.7282    0.0000 O   0  0  0  0  0  0  0  0  0  0  0  0
  1  2  1  0
  2  3  1  0
  3  4  1  0
  4  5  1  0
  5  6  1  0
  6  7  1  0
  7  8  1  0
  8  9  1  0
  9 10  1  0
 10 11  1  0
 11 12  1  0
 12 13  2  0
 12 14  1  0
M  END
>  <identifier>  (1435) 
CNP0303017.0

>  <canonical_smiles>  (1435) 
CCCCCCCCCCCC(=O)O

>  <standard_inchi>  (1435) 
InChI=1S/C12H24O2/c1-2-3-4-5-6-7-8-9-10-11-12(13)14/h2-11H2,1H3,(H,13,14)

>  <standard_inchi_key>  (1435) 
POULHZVOKOAJMA-UHFFFAOYSA-N

>  <name>  (1435) 
lauric acid

>  <iupac_name>  (1435) 
dodecanoic acid

>  <annotation_level>  (1435) 
5

>  <total_atom_count>  (1435) 
38

>  <heavy_atom_count>  (1435) 
14

>  <molecular_weight>  (1435) 
200.32

>  <exact_molecular_weight>  (1435) 
200.17763

>  <molecular_formula>  (1435) 
C12H24O2

>  <alogp>  (1435) 
3.99

>  <topological_polar_surface_area>  (1435) 
37.30

>  <rotatable_bond_count>  (1435) 
10

>  <hydrogen_bond_acceptors>  (1435) 
1

>  <hydrogen_bond_donors>  (1435) 
1

>  <hydrogen_bond_acceptors_lipinski>  (1435) 
1

>  <hydrogen_bond_donors_lipinski>  (1435) 
1

>  <lipinski_rule_of_five_violations>  (1435) 
0

>  <aromatic_rings_count>  (1435) 
0

>  <qed_drug_likeliness>  (1435) 
0.54

>  <formal_charge>  (1435) 
0

>  <fractioncsp3>  (1435) 
0.92

>  <number_of_minimal_rings>  (1435) 
0

>  <van_der_walls_volume>  (1435) 
223.24

>  <contains_sugar>  (1435) 
False

>  <contains_ring_sugars>  (1435) 
False

>  <contains_linear_sugars>  (1435) 
False

>  <murcko_framework>  (1435) 
nan

>  <np_likeness>  (1435) 
0.50

>  <chemical_class>  (1435) 
Fatty Acyls

>  <chemical_sub_class>  (1435) 
Fatty acids and conjugates

>  <chemical_super_class>  (1435) 
Lipids and lipid-like molecules

>  <direct_parent_classification>  (1435) 
Medium-chain fatty acids

>  <np_classifier_pathway>  (1435) 
Fatty acids

>  <np_classifier_superclass>  (1435) 
Fatty Acids and Conjugates

>  <np_classifier_class>  (1435) 
Branched fatty acids

>  <np_classifier_is_glycoside>  (1435) 
False

>  <organisms>  (1435) 
Acanthophora spicifera|Acantophora spicifera|Achyranthes aspera|Actaea dahurica|Actaea heracleifolia|Actaea simplex|Actinidia chinensis|Aegiceras corniculatum|Aesculus hippocastanum|Agaricus bisporus|Agaricus integer|Agaricus silvaticus|Agave decipiens|Agrimonia pilosa|Ajuga bracteosa|Akebia quinata|Akebia trifoliata|Alliaria petiolata|Allium monspessulanum|Aloe Vera|Aloe africana|Aloe ferox|Aloe spicata|Aloe vera|Aloe vera l. var. chinensis (haw.) berger|Aloe vera var.chinensis|Alpinia katsumadai|Alpinia latilabris|Althaea armeniaca|Althaea broussonetiifolia|Althaea officinalis|Anacardium occidentale|Anethum graveolens|Annona cherimola|Annona squamosa|Anoplopoma fimbria|Antarctic krill|Anthemis aciphylla|Anthemis aciphylla BOISS.var.discoidea BOISS|Apium graveolens|Arabidopsis thaliana|Arachis hypogaea|Arbutus menziesii|Areca Catechu|Areca catechu|Arisaema tortuosum|Aristolochia debilis|Armoracia rusticana|Arnica montana|Artemisia dracunculus|Artemisia monosperma|Artemisia taurica|Artocarpus heterophyllus|Asparagus officinalis|Astragalus hamosus|Attalea colenda|Attalea speciosa|Avena sativa|Azima tetracantha|Basella alba|Berberis sieboldii|Bistorta manshuriensis|Bistorta officinalis|Boa constrictor|Bocconia frutescens|Bocconia latisepala|Bos taurus|Brachystegia nigerica|Brassica hirta|Brassica juncea|Brassica napus|Brassica oleracea|Brassica oleracea var. sabauda|Brassica rapa|Brassica rapa subsp. chinensis|Bruguiera gymnorhiza|Buchenavia tetraphylla|Bupleurum scorzonerifolium|Caenorhabditis elegans|Camellia oleifera|Canarium album|Canavalia ensiformis|Capparis spinosa var. ovata|Capsella bursa-pastoris|Capsicum annuum|Capsicum annuum var. annuum|Carica papaya|Carthamus Tinctorius|Carthamus lanatus|Carthamus tinctorius|Carum carvi|Cassia fistula|Cassia javanica|Catharanthus roseus|Caulis perillae|Caulis perillae frutescentis|Cedrus libani|Celastrus paniculatus|Celosia cristada|Centella asiatica|Cephalotaxus fortunei|Ceramium botryocarpum|Cereus chrysacanthus|Chaenomeles sinensis|Chamerion dodonaei|Chlamydomonas reinhardtii|Chromodoris obsoleta|Chrozophora obliqua|Chrozophora plicata|Chrozophora tinctoria|Chrozophora verbascifolia|Cimicifuga foetida|Cinnamomum aromaticum|Cinnamomum kotoense|Cinnamosma madagascariensis|Citrullus lanatus|Citrullus lanatus subsp. vulgaris|Citrus limon|Citrus medica|Citrus paradisi|Citrus reticulata|Citrus sinensis|Citrus unshiu|Citrus × deliciosa|Cleome amblyocarpa|Cocos Nucifera|Cocos nucifera|Codonopsis pilosula|Coeloseira pacifica|Commelina communis|Coryphaena hippurus|Crassostrea virginica|Crocus sativus|Croton Tiglium|Croton jimenezii|Croton tiglium|Cryptostegia grandiflora|Cucumis callosus|Cucumis melo|Cucumis sativus|Cucurbita foetidissima|Cucurbita maxima|Cucurbita pepo|Cuminum cyminum|Cuphea carthagenensis|Cuphea epilobiifolia|Curcuma longa|Cynara cardunculus var. scolymus|Cyperus erectus|Cystoclonium purpureum|Daldinia concentrica|Daucus carota|Delphinapterus leucas|Delphinium staphisagria|Diplotaxis harra|Dipteryx lacunifera|Dolichos lablab|Dovyalis afra|Drymaria cordata|Duhaldea cappa|Echiochilon pauciflorum|Elaeagnus angustifolia|Elaeis Guineensis|Elaeis guineensis|Elettaria cardamomum|Elsholtzia ciliata|Embelia schimperi|Ephedra sinica|Epilobium dodonaei|Erigeron alpinus|Erignathus barbatus|Eriobotrya japonica|Eruca vesicaria|Erucaria microcarpa|Eryngium foetidum|Erythroxylum monogynum|Etlingera elatior|Eucalyptus globulus|Euphorbia wallichii|Fagopyrum esculentum|Feijoa sellowiana|Fernandoa adenophylla|Festuca arundinacea|Festuca rubra|Ficus carica|Flos mume|Fragaria|Fumaria kraliki|Fusarium fujikuroi|Ganoderma lucidum|Garcinia dulcis|Gibberella fujikuroi|Gleditsia triacanthos|Glehnia littoralis|Glycine max|Gmelina arborea|Goupia glabra|Gymnodinium nagasakiense|Hansenia forbesii|Hansenia weberbaueriana|Helichrysum nudifolium|Hibiscus cannabinus|Hibiscus sabbariffa|Hibiscus sabdariffa|Hippophae rhamnoides|Holoptelea integrifolia|Homo sapiens|Homo sapiens (Skin)|Hordeum vulgare|Houttuynia cordata|Hyella caespitosa|Hypericum ericoides|Hypericum ericoides ssp. Roberti|Hypericum maculatum|Hypericum olympicum|Hypericum perforatum|Hypoxis nyasica|Iberis umbellata|Ictalurus punctatus|Imperata cylindrica|Inula grandis|Ipomoea leptophylla|Iris|Irvingia gabonensis|Isatis tinctoria|Isoberlinia angolensis|Jasminum azoricum|Jasminum fluminense|Justicia trinervia|Karenia mikimotoi|Lablab purpureus|Lantana Camara|Lantana camara|Laurus nobilis|Leea guineense|Leea guineensis|Lens culinaris|Lentinus edodes|Lepidium bonariense|Lepidium meyenii|Lepista irina|Licaria puchuri-major|Licaria puchury-major|Lindera neesiana|Linum usitatissimum|Litsea glutinosa|Litsea involucrata|Lonicera japonica|Lumbricus terrestris|Lupinus albus|Lycopersicon esculentum var. cerasiforme|Macaranga sinensis|Magnolia obovata|Malus pumila|Mandragora autumnalis|Mandragora officinarum|Mangifera indica|Manihot esculenta|Medicago sativa|Melaleuca quinquenervia|Melanogrammus aeglefinus|Mentha spicata|Mikania banisteriae|Mikania congesta|Mirabilis jalapa|Mitracarpus hirtus|Momordica charantia|Monteverdia ilioppjfeowneviufheiuwfew fgr|Monteverdia truncata|Mosla chinensis|Musa X paradisiaca|Musa acuminata|Myristica fragrans|Narthecium ossifragum|Neolitsea aciculata|Neolitsea cassia|Neolitsea foliosa|Neolitsea sericea|Neolitsea umbrosa|Neolitsea zeylanica|Nepeta cataria|Nepeta racemosa|Nicotiana tabacum|Nigella sativa|Nigella sativa L|Oecophylla smaragdina|Oleum linderae|Oncorhynchus gorbuscha|Oncorhynchus mykiss|Ophiocordyceps sinensis|Orbignya martiana|Origanum vulgare|Oryza sativa|Ostericum grosseserratum|Otostegia fruticosa|Panax ginseng|Panicum miliaceum|Paranephelius uniflorus|Pardachirus pavoninus|Passiflora incarnata|Patrinia scabiosifolia|Patrinia villosa|Pelargonium endlicherianum|Pelargonium graveolens|Pentaclethra macrophylla|Periploca forrestii|Persicaria hydropiperoides|Persicaria minor|Petalostemon purpureum|Petasites hybridus|Phaseolus lunatus|Phaseolus vulgaris|Philadelphia fleabane|Phoca largha|Phoenix dactylifera|Phyllanthus emblica|Phyllostachys edulis|Phytolacca americana|Pinus pumila|Pinus radiata|Piper nigrum|Piptostigma fugax|Pisum sativum|Plakinastrella clathrata|Plumeria rubra|Podocarpus amarus|Polygonatum odoratum|Poria|Poria cocos|Porphyra tenera|Portulaca oleracea|Potebniamyces gallicola|Pouteria sapota|Proiphys amboinensis|Prunus armeniaca|Prunus avium|Prunus domestica|Prunus dulcis|Prunus mume|Prunus persica|Pseudomonas chlororaphis|Psidium friedrichsthalianum|Psidium guajava|Ptilota pectinata|Punica granatum|Rehmannia Glutinosa|Rehmannia glutinosa|Rhodiola rosea|Rhodiola rosea L.|Rhododendron aureum|Rosa multiflora|Rosmarinus officinalis|Rubia wallichiana|Rubia wallichiana DECNE|Ruellia tuberosa|Sabal minor|Saccharomyces cerevisiae|Saccharothrix mutabilis|Salpa thompsoni|Salvia fruticosa|Salvia hispanica|Salvia officinalis|Salvia triloba|Saussurea involucrata|Senecio adenotrichius|Senna alexandrina|Senna didymobotrya|Senna siamea|Serenoa repens|Sideritis curvidens|Sideritis lanata|Sideritis syriaca|Sideritis taurica|Sinapis alba|Sipunculus nudus|Solanum tuberosum|Sonneratia alba|Sophora viciifolia|Sorghum bicolor|Sraitia grosvenorii|Staphisagria macrosperma|Stichopus horrens|Streptomyces|Streptomyces atratus|Streptomyces caelestis|Streptomyces sp. mNP10|Sus scrofa|Sus scrofa domesticus|Syagrus romanzoffiana|Syzygium aromaticum|Syzygium cumini|Tephroseris integrifolia|Terminalia pallida|Tetrapanax papyrifer|Teucrium orientale|Theobroma cacao|Thunnus albacares|Thymbra capitata|Thymus capitatus|Thymus vulgaris|Tilia mandshurica|Tilia platyphyllos|Tilia rubra|Tilia tomentosa|Trachycarpus fortunei|Trichoderma citrinum|Trichodesma zeylanicum|Trichosanthes Kirilowi|Trichosanthes kirilowii|Trichosanthes rosthornii|Trifolium alexandrinum|Trifolium pratense|Trigonella foenum-graecum|Triticosecale rimpaui|Turnera ulmifolia|Ulva prolifera|Ulva rigid|Umbellularia californica|Umbilicaria cinereorufescens|Veltheimia viridifolia|Ventilago calyculata|Ventilago denticulata|Viburnum opulus|Vicia faba|Vigna unguiculata|Virola surinamensis|Vitellaria paradoxa|Vitex negundo|Vitis vinifera|Xiphias gladius|Xylopia aethiopica|Zea mays|Zingiber officinale|Ziziphora pedicellata|Ziziphus jujuba|Ziziphus jujuba var. spinosa|bellis perennis|chia|common dandelion|liquorice|pomegranate|snap bean

>  <collections>  (1435) 
ANPDB|Australian natural products|CMAUP (cCollective molecular activities of useful plants)|ChEBI NPs|DrugBankNP|EMNPD|ETM (Ethiopian Traditional Medicine) DB|Exposome-explorer|FooDB|GNPS (Global Natural Products Social Molecular Networking)|HIT (Herbal Ingredients Targets)|KNApSaCK|Latin America dataset|NANPDB (Natural Products from Northern African Sources)|NAPRORE-CR|NPASS|NPEdia|NuBBEDB|PeruNPDB|Phyto4Health|PubChem NPs|SANCDB|StreptomeDB|Super Natural II|TCMDB-Taiwan (Traditional Chinese Medicine database)|TCMID (Traditional Chinese Medicine Integrated Database)|TIPdb (database of Taiwan indigenous plants)|UEFS (Natural Products Databse of the UEFS)|UNPD (Universal Natural Products Database)|VietHerb|Watermelon|WikiData Natural Products

>  <dois>  (1435) 
10.1002/(SICI)1097-0045(199605)28:5<300::AID-PROS5>3.0.CO;2-F|10.1002/(SICI)1097-0231(20000415)14:7<608::AID-RCM918>3.0.CO;2-4|10.1002/(SICI)1099-1573(199906)13:4<329::AID-PTR458>3.0.CO;2-U|10.1002/1099-1026(200005/06)15:3<182::AID-FFJ888>3.0.CO;2-X|10.1002/1099-1565(200011/12)11:6<345::AID-PCA540>3.0.CO;2-T|10.1002/CBDV.201800531|10.1002/EJLT.201000080|10.1002/FFJ.1187|10.1002/FFJ.1248|10.1002/FFJ.2730060314|10.1002/FFJ.2730070108|10.1002/FFJ.2730080506|10.1002/FFJ.958|10.1002/JCCS.200700228|10.1002/JSFA.2740430111|10.1002/LIPI.19780800603|10.1002/LIPI.19800820608|10.1002/LIPI.19850870507|10.1002/LIPI.19850870809|10.1002/LIPI.19860880806|10.1002/LIPI.19870890308|10.1002/PTR.2650030406|10.1002/ejlt.201000080|10.1002/ijc.25881|10.1006/JFCA.2000.0968|10.1007/BF00564338|10.1007/BF00579976|10.1007/BF00630128|10.1007/BF00711898|10.1007/BF00714911|10.1007/BF01165189|10.1007/BF02249628|10.1007/BF02249629|10.1007/BF02249647|10.1007/BF02540958|10.1007/BF02541590|10.1007/BF02541638|10.1007/BF02657546|10.1007/BF02657547|10.1007/BF02662286|10.1007/BF02666050|10.1007/BF03183920|10.1007/S10600-006-0002-0|10.1007/S10600-010-9595-4|10.1007/S11306-016-1051-4|10.1007/S11746-009-1435-Y|10.1007/s11746-009-1435-y|10.1016/0021-9673(95)00734-2|10.1016/0031-9422(82)83099-9|10.1016/0031-9422(86)88045-1|10.1016/0031-9422(90)83036-Z|10.1016/0031-9422(91)80030-5|10.1016/0031-9422(91)83625-U|10.1016/0031-9422(91)84185-U|10.1016/0031-9422(92)80160-G|10.1016/0031-9422(94)00675-J|10.1016/0031-9422(94)00848-N|10.1016/0031-9422(95)00183-8|10.1016/0378-8741(83)90056-9|10.1016/0889-1575(91)90017-Z|10.1016/B978-0-9830791-2-5.50018-9|10.1016/J.ARABJC.2013.10.019|10.1016/J.CHROMA.2004.03.057|10.1016/J.FCT.2008.07.017|10.1016/J.FITOTE.2003.12.006|10.1016/J.FOODCHEM.2006.01.003|10.1016/J.FOODCHEM.2013.11.092|10.1016/J.FOODCHEM.2014.10.145|10.1016/J.JPBA.2008.08.004|10.1016/J.PHYMED.2007.03.013|10.1016/J.PHYTOCHEM.2005.07.016|10.1016/J.PHYTOCHEM.2005.10.025|10.1016/S0031-9422(00)80558-0|10.1016/S0031-9422(00)83494-9|10.1016/S0031-9422(00)84581-1|10.1016/S0031-9422(00)85174-2|10.1016/S0031-9422(00)85489-8|10.1016/S0031-9422(00)85526-0|10.1016/S0031-9422(00)86884-3|10.1016/S0031-9422(00)88402-2|10.1016/S0031-9422(00)88688-4|10.1016/S0031-9422(00)89578-3|10.1016/S0031-9422(02)00004-3|10.1016/S0031-9422(98)00171-X|10.1016/S0090-4295(99)00549-X|10.1016/S0305-1978(00)00114-9|10.1016/S0305-1978(02)00076-5|10.1016/S0305-1978(97)00097-5|10.1016/S0367-326X(01)00327-6|10.1016/S0367-326X(99)00057-X|10.1016/S0378-8741(02)00172-1|10.1016/S0896-8446(01)00110-3|10.1016/S0925-5214(02)00250-8|10.1016/S0926-6690(99)00036-9|10.1016/S0944-7113(11)80030-9|10.1016/S0960-8524(98)00190-4|10.1016/j.chroma.2010.10.052|10.1016/j.foodres.2018.04.064|10.1016/j.jep.2014.08.010|10.1021/BK-2002-0803.CH009|10.1021/JF00004A032|10.1021/JF00010A013|10.1021/JF00026A027|10.1021/JF00071A034|10.1021/JF00073A014|10.1021/JF00120A031|10.1021/JF00123A022|10.1021/JF0402633|10.1021/JF60197A010|10.1021/JF60199A018|10.1021/JF60209A051|10.1021/JF60216A022|10.1021/JF60227A034|10.1021/JF60231A019|10.1021/JM00298A011|10.1021/NP030197J|10.1021/NP0580210|10.1021/NP50034A036|10.1021/NP50075A009|10.1021/NP50083A010|10.1021/jf00120a031|10.1021/jf011456i|10.1021/jf101029a|10.1021/np0580210|10.1021/np50083a010|10.1023/B:CONC.0000018118.52743.A8|10.1038/NBT.2488|10.1038/S41598-019-56580-Y|10.1039/CT8987300226|10.1039/J39700000973|10.1039/J39700001547|10.1039/JR9380001610|10.1051/CTV/20163101031|10.1055/S-0028-1097819|10.1055/S-0028-1099423|10.1055/S-0028-1099537|10.1055/S-0028-1099547|10.1055/S-2006-957965|10.1055/S-2006-958019|10.1055/S-2006-959585|10.1055/S-2006-960872|10.1055/S-2007-969591|10.1076/1388-0209(200004)3821-1FT106|10.1080/00021369.1990.10870456|10.1080/10412905.1992.9698080|10.1080/10412905.1992.9698081|10.1080/10412905.1992.9698097|10.1080/10412905.1993.9698191|10.1080/10412905.1993.9698205|10.1080/10412905.1994.9698447|10.1080/10412905.1994.9699345|10.1080/10412905.1998.9700991|10.1080/10412905.1999.9701158|10.1080/10412905.2002.9699883|10.1080/13880200701739413|10.1080/14620316.2003.11511610|10.1111/TPJ.12747|10.1111/tpj.12747|10.1139/V65-086|10.1248/CPB.34.4562|10.1248/CPB.35.2880|10.1248/CPB.51.134|10.1248/CPB.51.948|10.1248/CPB.54.222|10.1271/BBB.57.1350|10.1271/BBB1961.45.507|10.1271/BBB1961.52.2379|10.1271/BBB1961.52.2961|10.1271/BBB1961.54.3335|10.1271/NOGEIKAGAKU1924.61.1119|10.1300/J044V05N02_05|10.1515/ZNC-2003-9-1004|10.1515/hf.2002.024|10.1590/S0102-695X2011005000107|10.1590/S0212-16112011000600015|10.21608/BFSA.1985.75705|10.21608/BFSA.1985.75707|10.21608/ZJPS.1994.186612|10.21608/ZJPS.1995.185614|10.21608/ZJPS.1997.169710|10.2307/30047228|10.3109/13880208309070615|10.3109/13880208409070644|10.3109/13880208509070678|10.3109/13880209.2010.547206|10.3136/FSTR.7.200|10.3389/FMICB.2018.01302|10.3389/FMOLB.2018.00096|10.3389/fmicb.2018.01302|10.3390/MOLECULES191119220|10.3390/MOLECULES22101606|10.3390/molecules27020483|10.4314/BCSE.V15I1.71732|10.5219/332|10.5650/JOS1956.25.561

>  <synonyms>  (1435) 
1-Undecanecarboxylic acid|1-undecanecarboxylate|1160N9NU9U|143-07-7|203714-07-2|3uil|4-02-00-01082 (Beilstein Handbook Reference)|7632-48-6|76C2A2EB-E8BA-40A6-8032-40A98625ED7B|8000-62-2|A808010|ABL|AC-16451|AI3-00112|AKOS000277433|Acide Laurique|Aliphat No. 4|BDBM50180948|BP-27913|BRN 1099477|C-1297|C02679|C12:0|CAS-143-07-7|CCG-266587|CCRIS 669|CH3-(CH2)10-COOH|CH3-[CH2]10-COOH|CHEBI:30805|CHEMBL108766|CS-0015078|D10714|DAO|DB03017|DODECANOIC ACID|DODECANOIC ACID  (LAURIC ACID)|DODECANOIC ACID [HSDB]|DTXCID801590|DTXSID5021590|Dodecanoic (Lauric) acid|Dodecanoic Acid Anion|Dodecanoic acid (lauric acid)|Dodecanoic acid, 98%|Dodecanoic acid, >=99% (GC\/titration)|Dodecanoic acid, >=99.5%|Dodecanoic acid, analytical standard|Dodecanoic acid, purum, >=96.0% (GC)|Dodecoic acid|Dodecylcarboxylate|Dodecylic acid|EC 205-582-1|EINECS 205-582-1|EN300-19951|Edenor C 1298-100|Emery 650|Emery 651|F0001-0507|FA 12:0|FEMA No. 2614|GTPL5534|Guaranteed Reagent,99%|HMS2268C14|HMS3649N06|HSDB 6814|HY-Y0366|HYDROFOL ACID 1255 OR 1295|Hydrofol acid 1255|Hystrene 9512|InChI=1\/C12H24O2\/c1-2-3-4-5-6-7-8-9-10-11-12(13)14\/h2-11H2,1H3,(H,13,14|J-007739|Kortacid 1299|L0011|LAU|LAURIC ACID (CONSTITUENT OF SAW PALMETTO)|LAURIC ACID (USP-RS)|LAURIC ACID [FCC]|LAURIC ACID [FHFI]|LAURIC ACID [INCI]|LAURIC ACID [MI]|LAURIC ACID [WHO-DD]|LMFA01010012|Lauric Acid, Pharmaceutical Secondary Standard; Certified Reference Material|Lauric Acid, Reagent|Lauric acid|Lauric acid (12:0)|Lauric acid (NF)|Lauric acid (natural)|Lauric acid, >=98%, FCC, FG|Lauric acid, European Pharmacopoeia (EP) Reference Standard|Lauric acid, United States Pharmacopeia (USP) Reference Standard|Lauric acid, natural, >=98%, FCC, FG|Lauric acid, pure|Laurinsaeure|Laurostearic acid|Lunac L 70|Lunac L 98|MFCD00002736|MLS002177807|MLS002415737|NAA 122|NAA 312|NCGC00090919-01|NCGC00256486-01|NCGC00259698-01|NCIOpen2_009480|NS00008441|NSC-5026|Ninol AA62 Extra|Nissan NAA 122|Nuvail|Philacid 1200|Prifrac 2920|Q422627|SCHEMBL5895|SMR001253907|SR-01000838338|STL281860|STR08039|Tox21_202149|Tox21_303010|UNII-1160N9NU9U|Univol U-314|Vulvic acid|WLN: QV11|Wecoline 1295|Z104476194|bmse000509|dodecanic acid|dodecylate|fatty acid 12:0|laurate|lauric-acid|laurinsaure|laurostearate|n-Dodecanoate|n-Dodecanoic acid|s4726|vulvate

>  <cas>  (1435) 
143-07-7|8000-62-2|203714-07-2|7632-48-6

$$$$

     RDKit          2D

 20 23  0  0  0  0  0  0  0  0999 V2000
   -0.8038    3.6643    0.0000 C   0  0  0  0  0  0  0  0  0  0  0  0
   -0.7561    2.1650    0.0000 C   0  0  0  0  0  0  0  0  0  0  0  0
    0.5661    1.4566    0.0000 C   0  0  0  0  0  0  0  0  0  0  0  0
    0.6137   -0.0426    0.0000 C   0  0  0  0  0  0  0  0  0  0  0  0
    2.0542   -0.4606    0.0000 C   0  0  0  0  0  0  0  0  0  0  0  0
    2.7075   -1.8109    0.0000 C   0  0  0  0  0  0  0  0  0  0  0  0
    4.2036   -1.9202    0.0000 C   0  0  0  0  0  0  0  0  0  0  0  0
    5.0463   -0.6793    0.0000 C   0  0  0  0  0  0  0  0  0  0  0  0
    4.3930    0.6709    0.0000 C   0  0  0  0  0  0  0  0  0  0  0  0
    2.8970    0.7803    0.0000 C   0  0  0  0  0  0  0  0  0  0  0  0
    1.9772    1.9652    0.0000 N   0  0  0  0  0  0  0  0  0  0  0  0
   -0.6609   -0.8335    0.0000 C   0  0  0  0  0  0  0  0  0  0  0  0
   -1.9831   -0.1251    0.0000 C   0  0  0  0  0  0  0  0  0  0  0  0
   -3.2577   -0.9160    0.0000 C   0  0  0  0  0  0  0  0  0  0  0  0
   -4.5799   -0.2076    0.0000 C   0  0  0  0  0  0  0  0  0  0  0  0
   -2.0307    1.3741    0.0000 C   0  0  0  0  0  0  0  0  0  0  0  0
   -3.3053    0.5833    0.0000 C   0  0  0  0  0  0  0  0  0  0  0  0
   -3.2577   -0.9160    0.0000 C   0  0  0  0  0  0  0  0  0  0  0  0
   -1.9355   -1.6243    0.0000 N   0  0  0  0  0  0  0  0  0  0  0  0
   -1.8879   -3.1236    0.0000 C   0  0  0  0  0  0  0  0  0  0  0  0
  1  2  2  0
  2  3  1  0
  3  4  2  0
  4  5  1  0
  5  6  2  0
  6  7  1  0
  7  8  2  0
  8  9  1  0
  9 10  2  0
 10 11  1  0
  4 12  1  0
 12 13  1  0
 13 14  1  1
 14 15  1  0
 13 16  1  0
 16 17  1  6
 17 18  1  0
 18 19  1  0
 19 20  1  0
 16  2  1  0
 11  3  1  0
 12 19  1  1
 10  5  1  0
M  END
>  <identifier>  (1436) 
CNP0169624.2

>  <canonical_smiles>  (1436) 
C=C1C2=C(C3=CC=CC=C3N2)[C@@H]2[C@@H](CC)[C@@H]1CCN2C

>  <standard_inchi>  (1436) 
InChI=1S/C18H22N2/c1-4-12-13-9-10-20(3)18(12)16-14-7-5-6-8-15(14)19-17(16)11(13)2/h5-8,12-13,18-19H,2,4,9-10H2,1,3H3/t12-,13+,18-/m0/s1

>  <standard_inchi_key>  (1436) 
MFFIRXGJJPPAMA-JCGVRSQUSA-N

>  <name>  (1436) 
nan

>  <iupac_name>  (1436) 
(1~{S},12~{S},16~{S})-16-ethyl-15-methyl-11-methylene-9,15-diazatetracyclo[10.3.1.0^{2,10}.0^{3,8}]hexadeca-2(10),3,5,7-tetraene

>  <annotation_level>  (1436) 
4

>  <total_atom_count>  (1436) 
42

>  <heavy_atom_count>  (1436) 
20

>  <molecular_weight>  (1436) 
266.39

>  <exact_molecular_weight>  (1436) 
266.1783

>  <molecular_formula>  (1436) 
C18H22N2

>  <alogp>  (1436) 
4.21

>  <topological_polar_surface_area>  (1436) 
19.03

>  <rotatable_bond_count>  (1436) 
1

>  <hydrogen_bond_acceptors>  (1436) 
1

>  <hydrogen_bond_donors>  (1436) 
1

>  <hydrogen_bond_acceptors_lipinski>  (1436) 
1

>  <hydrogen_bond_donors_lipinski>  (1436) 
1

>  <lipinski_rule_of_five_violations>  (1436) 
0

>  <aromatic_rings_count>  (1436) 
2

>  <qed_drug_likeliness>  (1436) 
0.82

>  <formal_charge>  (1436) 
0

>  <fractioncsp3>  (1436) 
0.44

>  <number_of_minimal_rings>  (1436) 
4

>  <van_der_walls_volume>  (1436) 
nan

>  <contains_sugar>  (1436) 
False

>  <contains_ring_sugars>  (1436) 
False

>  <contains_linear_sugars>  (1436) 
False

>  <murcko_framework>  (1436) 
c1ccc2c(c1)[nH]c3c2C4NCCC(C3)C4

>  <np_likeness>  (1436) 
0.77

>  <chemical_class>  (1436) 
Indoles and derivatives

>  <chemical_sub_class>  (1436) 
Carbazoles

>  <chemical_super_class>  (1436) 
Organoheterocyclic compounds

>  <direct_parent_classification>  (1436) 
Carbazoles

>  <np_classifier_pathway>  (1436) 
Alkaloids

>  <np_classifier_superclass>  (1436) 
Tryptophan alkaloids

>  <np_classifier_class>  (1436) 
Corynanthe type

>  <np_classifier_is_glycoside>  (1436) 
False

>  <organisms>  (1436) 
Aspidosperma formosanum

>  <collections>  (1436) 
Latin America dataset|NuBBEDB|WikiData Natural Products

>  <dois>  (1436) 
10.1016/S0031-9422(00)84426-X

>  <synonyms>  (1436) 
3-epiuleine

>  <cas>  (1436) 
nan

$$$$

     RDKit          2D

 27 29  0  0  0  0  0  0  0  0999 V2000
   -7.0114   -2.5443    0.0000 C   0  0  0  0  0  0  0  0  0  0  0  0
   -5.5298   -2.7787    0.0000 O   0  0  0  0  0  0  0  0  0  0  0  0
   -4.5860   -1.6128    0.0000 C   0  0  0  0  0  0  0  0  0  0  0  0
   -5.1239   -0.2125    0.0000 C   0  0  0  0  0  0  0  0  0  0  0  0
   -4.1802    0.9534    0.0000 C   0  0  0  0  0  0  0  0  0  0  0  0
   -4.7180    2.3537    0.0000 O   0  0  0  0  0  0  0  0  0  0  0  0
   -6.1996    2.5880    0.0000 C   0  0  0  0  0  0  0  0  0  0  0  0
   -2.6986    0.7191    0.0000 C   0  0  0  0  0  0  0  0  0  0  0  0
   -1.7548    1.8850    0.0000 C   0  0  0  0  0  0  0  0  0  0  0  0
   -2.2927    3.2853    0.0000 O   0  0  0  0  0  0  0  0  0  0  0  0
   -0.2733    1.6507    0.0000 C   0  0  0  0  0  0  0  0  0  0  0  0
    0.2646    0.2504    0.0000 C   0  0  0  0  0  0  0  0  0  0  0  0
    1.7462    0.0161    0.0000 C   0  0  0  0  0  0  0  0  0  0  0  0
    2.2840   -1.3842    0.0000 C   0  0  0  0  0  0  0  0  0  0  0  0
    3.7656   -1.6185    0.0000 C   0  0  0  0  0  0  0  0  0  0  0  0
    4.3035   -3.0188    0.0000 O   0  0  0  0  0  0  0  0  0  0  0  0
    3.3597   -4.1847    0.0000 C   0  0  0  0  0  0  0  0  0  0  0  0
    4.7093   -0.4526    0.0000 C   0  0  0  0  0  0  0  0  0  0  0  0
    6.1909   -0.6869    0.0000 O   0  0  0  0  0  0  0  0  0  0  0  0
    7.1347    0.4790    0.0000 C   0  0  0  0  0  0  0  0  0  0  0  0
    4.1715    0.9477    0.0000 C   0  0  0  0  0  0  0  0  0  0  0  0
    5.1152    2.1136    0.0000 O   0  0  0  0  0  0  0  0  0  0  0  0
    4.5774    3.5138    0.0000 C   0  0  0  0  0  0  0  0  0  0  0  0
    2.6899    1.1820    0.0000 C   0  0  0  0  0  0  0  0  0  0  0  0
   -0.6791   -0.9155    0.0000 O   0  0  0  0  0  0  0  0  0  0  0  0
   -2.1607   -0.6812    0.0000 C   0  0  0  0  0  0  0  0  0  0  0  0
   -3.1045   -1.8471    0.0000 C   0  0  0  0  0  0  0  0  0  0  0  0
  1  2  1  0
  2  3  1  0
  3  4  2  0
  4  5  1  0
  5  6  1  0
  6  7  1  0
  5  8  2  0
  8  9  1  0
  9 10  2  0
  9 11  1  0
 11 12  2  0
 12 13  1  0
 13 14  2  0
 14 15  1  0
 15 16  1  0
 16 17  1  0
 15 18  2  0
 18 19  1  0
 19 20  1  0
 18 21  1  0
 21 22  1  0
 22 23  1  0
 21 24  2  0
 12 25  1  0
 25 26  1  0
 26 27  2  0
 27  3  1  0
 26  8  1  0
 24 13  1  0
M  END
>  <identifier>  (1437) 
CNP0278585.0

>  <canonical_smiles>  (1437) 
COC1=CC(OC)=C2C(=O)C=C(C3=CC(OC)=C(OC)C(OC)=C3)OC2=C1

>  <standard_inchi>  (1437) 
InChI=1S/C20H20O7/c1-22-12-8-15(23-2)19-13(21)10-14(27-16(19)9-12)11-6-17(24-3)20(26-5)18(7-11)25-4/h6-10H,1-5H3

>  <standard_inchi_key>  (1437) 
GIKVSFNAEBQLGB-UHFFFAOYSA-N

>  <name>  (1437) 
53350-26-8

>  <iupac_name>  (1437) 
5,7-dimethoxy-2-(3,4,5-trimethoxyphenyl)chromen-4-one

>  <annotation_level>  (1437) 
5

>  <total_atom_count>  (1437) 
47

>  <heavy_atom_count>  (1437) 
27

>  <molecular_weight>  (1437) 
372.37

>  <exact_molecular_weight>  (1437) 
372.1209

>  <molecular_formula>  (1437) 
C20H20O7

>  <alogp>  (1437) 
3.50

>  <topological_polar_surface_area>  (1437) 
76.36

>  <rotatable_bond_count>  (1437) 
6

>  <hydrogen_bond_acceptors>  (1437) 
7

>  <hydrogen_bond_donors>  (1437) 
0

>  <hydrogen_bond_acceptors_lipinski>  (1437) 
7

>  <hydrogen_bond_donors_lipinski>  (1437) 
0

>  <lipinski_rule_of_five_violations>  (1437) 
0

>  <aromatic_rings_count>  (1437) 
3

>  <qed_drug_likeliness>  (1437) 
0.66

>  <formal_charge>  (1437) 
0

>  <fractioncsp3>  (1437) 
0.25

>  <number_of_minimal_rings>  (1437) 
3

>  <van_der_walls_volume>  (1437) 
324.76

>  <contains_sugar>  (1437) 
False

>  <contains_ring_sugars>  (1437) 
False

>  <contains_linear_sugars>  (1437) 
False

>  <murcko_framework>  (1437) 
O1c2ccccc2CC=C1c3ccccc3

>  <np_likeness>  (1437) 
0.74

>  <chemical_class>  (1437) 
Flavonoids

>  <chemical_sub_class>  (1437) 
O-methylated flavonoids

>  <chemical_super_class>  (1437) 
Phenylpropanoids and polyketides

>  <direct_parent_classification>  (1437) 
5-O-methylated flavonoids

>  <np_classifier_pathway>  (1437) 
Shikimates and Phenylpropanoids

>  <np_classifier_superclass>  (1437) 
Flavonoids

>  <np_classifier_class>  (1437) 
Flavones

>  <np_classifier_is_glycoside>  (1437) 
False

>  <organisms>  (1437) 
Aceriphyllum rossii|Agnorhiza bolanderi|Alligator mississippiensis|Anaxagorea clavata|Araujia sericifera|Aria pallescens|Arnica nevadensis|Artemisia monogyna|Bassia butyracea|Bauhinia Championii|Bauhinia champinii|Bauhinia championii|Beyeria brevifolia|Bursaria spinosa|Cedrela|Chloranthus tianmushanensis|Chromolaena odorata|Chromolaena pulchella|Citrus Reticulata|Citrus reticulata|Cladonia evansii|Clonostachys rosea|Coccus fagi|Dendrosenecio kilimanjari|Dipterocarpus alatus|Drosera peltata|Echinops amplexicaulis|Epaltes gariepina|Ficus formosana|Ficus maxima|Fructus caryophylli|Fusarium gibbosum|Gardenia fosbergii|Gardenia jasminoides|Ilex affinis|Isodon kameba|Kaempferia pulchra|Lactarius scrobiculatus|Merrillia caloxylon|Murraya Paniculata|Murraya exotica|Murraya paniculata|Neoraputia alba|Neoraputia magnifica|Neoraputia paraensis|Odixia angusta|Phanera championii|Pheidole pallidula|Prosopis glandulosa|Prunus laurocerasus|Pseudopterogorgia kallos|Pteris prolifera|Pterocarpus grandiflorus|Pyrosoma giganteum|Quercus aegilops|Rhizobium phaseoli|Salvia officinalis|Securidaca inappendiculata|Senecio squalidus|Seriphidium cinum|Sesbania punicea|Simira eliezeriana|Stenostomum lucidum|Streptomyces althioticus|Taxodium mucronatum|Vitex madiensis

>  <collections>  (1437) 
Australian natural products|CMAUP (cCollective molecular activities of useful plants)|KNApSaCK|Latin America dataset|NPASS|NPEdia|NuBBEDB|Phyto4Health|Super Natural II|TCMDB-Taiwan (Traditional Chinese Medicine database)|TCMID (Traditional Chinese Medicine Integrated Database)|TIPdb (database of Taiwan indigenous plants)|UNPD (Universal Natural Products Database)|VietHerb|WikiData Natural Products|ZINC NP

>  <dois>  (1437) 
10.1016/S0031-9422(00)00248-X|10.1016/S0031-9422(96)00729-7|10.1016/S0031-9422(96)00853-9|10.1016/s0031-9422(96)00853-9|10.1039/c2ay25242b|10.1248/CPB.32.166|10.1248/CPB.37.119|10.1590/S0102-695X2009000100002|10.5935/0103-5053.19930018

>  <synonyms>  (1437) 
3',4',5',5,7-Pentamethoxyflavone|3,4,5,5,7-PENTAMETHOXYFLAVONE|3-4-5-5-7-Pentamethoxyflavone|4H-1-Benzopyran-4-one, 5,7-dimethoxy-2-(3,4,5-trimethoxyphenyl)-|5,7,3 inverted exclamation mark ,4 inverted exclamation mark ,5 inverted exclamation mark -Pentamethoxy flavone|5,7,3',4',5'-Pentamethoxyflavone|5,7-dimethoxy-2-(3,4,5-trimethoxyphenyl)chromen-4-one|AKOS027380196|BDBM50420207|CHEMBL2074901|CS-0101599|DB-052312|DTXSID50333239|E88585|GIKVSFNAEBQLGB-UHFFFAOYSA-N|HY-N7029|LMPK12111076|MFCD00017634|MS-26005|PD167275|SCHEMBL1422009|Tricetin 5,7,3',4',5'-pentamethyl ether|Tricetin Pentamethyl Ether

>  <cas>  (1437) 
nan

$$$$

     RDKit          2D

 22 24  0  0  0  0  0  0  0  0999 V2000
   -5.3310   -0.6782    0.0000 C   0  0  0  0  0  0  0  0  0  0  0  0
   -4.0158   -1.3995    0.0000 O   0  0  0  0  0  0  0  0  0  0  0  0
   -2.7335   -0.6212    0.0000 C   0  0  0  0  0  0  0  0  0  0  0  0
   -2.7664    0.8784    0.0000 C   0  0  0  0  0  0  0  0  0  0  0  0
   -3.9029    1.8574    0.0000 C   0  0  0  0  0  0  0  0  0  0  0  0
   -3.3230    3.2408    0.0000 C   0  0  0  0  0  0  0  0  0  0  0  0
   -1.8281    3.1168    0.0000 O   0  0  0  0  0  0  0  0  0  0  0  0
   -1.4841    1.6567    0.0000 C   0  0  0  0  0  0  0  0  0  0  0  0
   -0.1690    0.9354    0.0000 C   0  0  0  0  0  0  0  0  0  0  0  0
    1.1133    1.7137    0.0000 O   0  0  0  0  0  0  0  0  0  0  0  0
    2.4285    0.9924    0.0000 C   0  0  0  0  0  0  0  0  0  0  0  0
    3.7108    1.7707    0.0000 C   0  0  0  0  0  0  0  0  0  0  0  0
    5.0259    1.0493    0.0000 C   0  0  0  0  0  0  0  0  0  0  0  0
    6.3082    1.8276    0.0000 C   0  0  0  0  0  0  0  0  0  0  0  0
    5.0588   -0.4503    0.0000 C   0  0  0  0  0  0  0  0  0  0  0  0
   -0.1361   -0.5643    0.0000 C   0  0  0  0  0  0  0  0  0  0  0  0
   -1.4183   -1.3426    0.0000 C   0  0  0  0  0  0  0  0  0  0  0  0
   -1.3855   -2.8422    0.0000 C   0  0  0  0  0  0  0  0  0  0  0  0
   -0.0703   -3.5635    0.0000 C   0  0  0  0  0  0  0  0  0  0  0  0
    1.2120   -2.7852    0.0000 C   0  0  0  0  0  0  0  0  0  0  0  0
    2.5272   -3.5066    0.0000 O   0  0  0  0  0  0  0  0  0  0  0  0
    1.1791   -1.2856    0.0000 O   0  0  0  0  0  0  0  0  0  0  0  0
  1  2  1  0
  2  3  1  0
  3  4  2  0
  4  5  1  0
  5  6  2  0
  6  7  1  0
  7  8  1  0
  8  9  2  0
  9 10  1  0
 10 11  1  0
 11 12  1  0
 12 13  2  0
 13 14  1  0
 13 15  1  0
  9 16  1  0
 16 17  2  0
 17 18  1  0
 18 19  2  0
 19 20  1  0
 20 21  2  0
 20 22  1  0
 17  3  1  0
  8  4  1  0
 22 16  1  0
M  END
>  <identifier>  (1438) 
CNP0410358.0

>  <canonical_smiles>  (1438) 
COC1=C2C=COC2=C(OCC=C(C)C)C2=C1C=CC(=O)O2

>  <standard_inchi>  (1438) 
InChI=1S/C17H16O5/c1-10(2)6-8-21-17-15-12(7-9-20-15)14(19-3)11-4-5-13(18)22-16(11)17/h4-7,9H,8H2,1-3H3

>  <standard_inchi_key>  (1438) 
BMLZFLQMBMYVHG-UHFFFAOYSA-N

>  <name>  (1438) 
Phellopterin

>  <iupac_name>  (1438) 
4-methoxy-9-(3-methylbut-2-enoxy)furo[3,2-g]chromen-7-one

>  <annotation_level>  (1438) 
5

>  <total_atom_count>  (1438) 
38

>  <heavy_atom_count>  (1438) 
22

>  <molecular_weight>  (1438) 
300.31

>  <exact_molecular_weight>  (1438) 
300.09977

>  <molecular_formula>  (1438) 
C17H16O5

>  <alogp>  (1438) 
3.89

>  <topological_polar_surface_area>  (1438) 
61.81

>  <rotatable_bond_count>  (1438) 
4

>  <hydrogen_bond_acceptors>  (1438) 
5

>  <hydrogen_bond_donors>  (1438) 
0

>  <hydrogen_bond_acceptors_lipinski>  (1438) 
5

>  <hydrogen_bond_donors_lipinski>  (1438) 
0

>  <lipinski_rule_of_five_violations>  (1438) 
0

>  <aromatic_rings_count>  (1438) 
3

>  <qed_drug_likeliness>  (1438) 
0.54

>  <formal_charge>  (1438) 
0

>  <fractioncsp3>  (1438) 
0.24

>  <number_of_minimal_rings>  (1438) 
3

>  <van_der_walls_volume>  (1438) 
263.83

>  <contains_sugar>  (1438) 
False

>  <contains_ring_sugars>  (1438) 
False

>  <contains_linear_sugars>  (1438) 
False

>  <murcko_framework>  (1438) 
o1ccc2cc3C=CCOc3cc12

>  <np_likeness>  (1438) 
1.58

>  <chemical_class>  (1438) 
Coumarins and derivatives

>  <chemical_sub_class>  (1438) 
Furanocoumarins

>  <chemical_super_class>  (1438) 
Phenylpropanoids and polyketides

>  <direct_parent_classification>  (1438) 
5-methoxypsoralens

>  <np_classifier_pathway>  (1438) 
Shikimates and Phenylpropanoids

>  <np_classifier_superclass>  (1438) 
Coumarins

>  <np_classifier_class>  (1438) 
Furocoumarins

>  <np_classifier_is_glycoside>  (1438) 
False

>  <organisms>  (1438) 
Ajania fastigiata|Aliivibrio fischeri|Aloe castanea|Alpinia officinarum|Ambrosia arborescens|Amomum reticulatum|Amyris pinnata|Anastrophyllum donnianum|Angelica Dahurica|Angelica archangelica|Angelica dahurica|Angelica dahurica var.dahurica|Angelica decurrens|Angelica glabra|Angelica komarovii|Angelica pachycarpa|Angelica taiwaniana|Angelica tschimganica|Annona haematantha|Apium graveolens|Archangelica decurrens|Ascodesmis sphaerospora|Axinella polycapella|Azospirillum lipoferum|Azotobacter chroococcum|Caralluma russeliana|Casimiroa edulis|Casimiroa sp.|Changium smyrnioides|Cladonia squamosula|Colutea arborescens|Cryptostegia grandiflora|Dalbergia monetaria|Davallia solida|Dinosperma stipitatum|Dorstenia foetida|Eleutherococcus senticosus|Esenbeckia conspecta|Espeletiopsis purpurascens|Esperiopsis edwardii|Ferula alliacea|Ferula foetida|Ferula sp.|Glehnia littoralis|Grindelia integrifolia|Grosvenoria rimbachii|Hansenia forbesii|Hansenia weberbaueriana|Helianthus californicus|Heracleum asperum|Heracleum candolleanum|Heracleum granatense|Heracleum lanatum|Heracleum leskovii|Heracleum mantegazzianium|Heracleum mantegazzianum|Heracleum mantegazzianum Sommier & Levier|Heracleum maximum|Heracleum moellendorffii|Heracleum moellendorffii Hance|Heracleum ponticum|Heracleum sphondylium|Heracleum woroschiklowii|Heracleum yungningense|Hygrophila spinosa|Imperata cylindrica|Indian beech tree|Isis hippuris|Kitagawia baicalensis|Komarovia anisosperma|Komarovia anisospermum|Lactarius fuliginosus|Macrococculus pomiferus|Melicope stipitata|Melicope triphylla|Murraya koenigii|Myelois cribrella|Notopterygium incisum|Osteospermum ecklonis|Ostericum grosseserratum|Peucedanum baicalense|Peucedanum mashanense|Phellodendron amurense|Phellodendron chinense|Phellodendron chinense var. glabriusculum|Pinus albicaulis|Pinus formosana|Piper ovatum|Platypodium elegans|Plectranthus hereroensis|Polypodium aureum|Poncirus trifoliata|Ptelea|Ptelea sp.|Ptelea trifolia|Saposhnikovia divaricata|Seseli elatum|Seseli gouanii|Seseli kochii|Seseli longifolium|Silene gallica|Silene wallichiana|Solanum pseudocapsicum|Spiraea prunifolia|Tephrosia villosa|Thalassia testudinum|Tilletia levis|Toddalia Asiatica|Toddalia asiatica|Trichocline sinuata|Trifoliate orange|Ursinia anthemoides|White sapote|Zanthoxylum ailanthoides|Zanthoxylum asiaticum|Zanthoxylum nitidum|Zanthoxylum rhoifolium

>  <collections>  (1438) 
AnalytiCon Discovery NPs|Australian natural products|CMAUP (cCollective molecular activities of useful plants)|FooDB|GNPS (Global Natural Products Social Molecular Networking)|KNApSaCK|Latin America dataset|NPASS|NuBBEDB|PhytoLab phyproof® Reference Substances|PubChem NPs|Specs Natural Products|Super Natural II|TCMDB-Taiwan (Traditional Chinese Medicine database)|TCMID (Traditional Chinese Medicine Integrated Database)|TIPdb (database of Taiwan indigenous plants)|TPPT (Toxic Plants–PhytoToxins)|UNPD (Universal Natural Products Database)|VietHerb|WikiData Natural Products|ZINC NP

>  <dois>  (1438) 
10.1002/(SICI)1099-1573(1998)12:1+<S74::AID-PTR255>3.0.CO;2-V|10.1002/ARDP.19652981008|10.1002/JCCS.200300178|10.1002/JLAC.197919791116|10.1002/PCA.2800030108|10.1002/biuz.19840140514|10.1002/food.19880321030|10.1007/BF00563962|10.1007/BF00566333|10.1007/BF00570200|10.1007/BF00571232|10.1007/BF00576102|10.1007/BF00600845|10.1007/BF00993733|10.1007/BF01134615|10.1016/0031-9422(75)85213-7|10.1016/0031-9422(75)85397-0|10.1016/0031-9422(83)80174-5|10.1016/0031-9422(88)80276-0|10.1016/0031-9422(94)85101-8|10.1016/0305-1978(92)90104-L|10.1016/J.BMC.2005.07.050|10.1016/J.CHROMA.2010.04.076|10.1016/J.JEP.2004.03.054|10.1016/J.PHYTOCHEM.2011.03.008|10.1016/S0021-9673(00)00321-6|10.1016/S0031-9422(00)85512-0|10.1016/S0031-9422(96)00634-6|10.1016/S0031-9422(96)00703-0|10.1016/S0031-9422(97)00678-X|10.1016/S0305-1978(01)00096-5|10.1016/S0305-1978(01)00104-1|10.1016/S0367-326X(99)00163-X|10.1021/JF9802373|10.1021/JO01273A049|10.1021/NP50015A016|10.1021/NP960407A|10.1021/acs.jnatprod.9b00547|10.1021/np960407a|10.1039/c7md00388a|10.1055/S-0028-1097274|10.1055/S-0036-1596440|10.1055/S-2003-39702|10.1055/S-2006-957985|10.1248/CPB.53.701|10.1248/CPB.56.839|10.1248/YAKUSHI1947.111.7_376|10.1371/journal.pone.0019825|10.3390/MOLECULES16086339|10.3987/COM-11-12228|10.4268/CJCMM20101214

>  <synonyms>  (1438) 
2543-94-4|4-Methoxy-9-[(3-methyl-2-buten-1-yl)oxy]-7H-furo[3,2-g][1]benzopyran-7-one|4-Methoxy-9-[(3-methyl-2-butenyl)oxy]-7H-furo[3,2-g]chromen-7-one #|4-Methoxy-9-prenyloxypsoralen|4-methoxy-9-(3-methylbut-2-enoxy)-7-furo[3,2-g][1]benzopyranone|4-methoxy-9-(3-methylbut-2-enoxy)furo[3,2-g]chromen-7-one|7H-Furo(3,2-g)(1)benzopyran-7-one, 4-methoxy-9-((3-methyl-2-butenyl)oxy)-|7H-Furo[3,2-g][1]benzopyran-7-one, 4-methoxy-9-[(3-methyl-2-buten-1-yl)oxy]-|AKOS024465013|B2703-464838|BDBM81058|BMLZFLQMBMYVHG-UHFFFAOYSA-N|C17047|CHEBI:80887|CHEMBL452751|CS-0018631|DTXSID30180086|HMS2203M11|HMS3356N05|HY-N2110|M7UP6XJ2AA|MLS000574895|MS-24326|NCGC00247535-01|NS00094667|NSC-152469|Phellopterin|Phelloptorin|Phelloterin|Q3742334|SCHEMBL2468854|SMR000156210|UNII-M7UP6XJ2AA|cid_98608|phellopterin

>  <cas>  (1438) 
2543-94-4

$$$$

     RDKit          2D

 32 35  0  0  0  0  0  0  0  0999 V2000
   -3.3844    3.8122    0.0000 C   0  0  0  0  0  0  0  0  0  0  0  0
   -3.8860    2.3985    0.0000 O   0  0  0  0  0  0  0  0  0  0  0  0
   -2.9126    1.2573    0.0000 C   0  0  0  0  0  0  0  0  0  0  0  0
   -1.4375    1.5297    0.0000 C   0  0  0  0  0  0  0  0  0  0  0  0
   -0.4641    0.3885    0.0000 C   0  0  0  0  0  0  0  0  0  0  0  0
   -0.9657   -1.0252    0.0000 C   0  0  0  0  0  0  0  0  0  0  0  0
   -2.4407   -1.2976    0.0000 C   0  0  0  0  0  0  0  0  0  0  0  0
   -2.9423   -2.7112    0.0000 O   0  0  0  0  0  0  0  0  0  0  0  0
   -4.4174   -2.9837    0.0000 C   0  0  0  0  0  0  0  0  0  0  0  0
   -3.4142   -0.1564    0.0000 C   0  0  0  0  0  0  0  0  0  0  0  0
   -4.8892   -0.4288    0.0000 C   0  0  0  0  0  0  0  0  0  0  0  0
   -5.8627    0.7124    0.0000 C   0  0  0  0  0  0  0  0  0  0  0  0
   -7.3377    0.4400    0.0000 C   0  0  0  0  0  0  0  0  0  0  0  0
   -7.0653   -1.0350    0.0000 C   0  0  0  0  0  0  0  0  0  0  0  0
   -7.6101    1.9151    0.0000 C   0  0  0  0  0  0  0  0  0  0  0  0
   -8.8128    0.1676    0.0000 O   0  0  0  0  0  0  0  0  0  0  0  0
    0.0078   -2.1664    0.0000 C   0  0  0  0  0  0  0  0  0  0  0  0
   -0.4938   -3.5800    0.0000 O   0  0  0  0  0  0  0  0  0  0  0  0
    1.4829   -1.8940    0.0000 C   0  0  0  0  0  0  0  0  0  0  0  0
    1.9845   -0.4803    0.0000 C   0  0  0  0  0  0  0  0  0  0  0  0
    3.4595   -0.2079    0.0000 C   0  0  0  0  0  0  0  0  0  0  0  0
    3.9611    1.2057    0.0000 C   0  0  0  0  0  0  0  0  0  0  0  0
    5.4362    1.4782    0.0000 C   0  0  0  0  0  0  0  0  0  0  0  0
    5.9378    2.8918    0.0000 O   0  0  0  0  0  0  0  0  0  0  0  0
    4.9643    4.0330    0.0000 C   0  0  0  0  0  0  0  0  0  0  0  0
    6.4096    0.3369    0.0000 C   0  0  0  0  0  0  0  0  0  0  0  0
    7.9091    0.2967    0.0000 O   0  0  0  0  0  0  0  0  0  0  0  0
    8.3342   -1.1418    0.0000 C   0  0  0  0  0  0  0  0  0  0  0  0
    7.0975   -1.9906    0.0000 O   0  0  0  0  0  0  0  0  0  0  0  0
    5.9080   -1.0767    0.0000 C   0  0  0  0  0  0  0  0  0  0  0  0
    4.4330   -1.3491    0.0000 C   0  0  0  0  0  0  0  0  0  0  0  0
    1.0110    0.6609    0.0000 O   0  0  0  0  0  0  0  0  0  0  0  0
  1  2  1  0
  2  3  1  0
  3  4  2  0
  4  5  1  0
  5  6  2  0
  6  7  1  0
  7  8  1  0
  8  9  1  0
  7 10  2  0
 10 11  1  0
 11 12  2  0
 12 13  1  0
 13 14  1  0
 13 15  1  0
 13 16  1  0
  6 17  1  0
 17 18  2  0
 17 19  1  0
 19 20  2  0
 20 21  1  0
 21 22  2  0
 22 23  1  0
 23 24  1  0
 24 25  1  0
 23 26  2  0
 26 27  1  0
 27 28  1  0
 28 29  1  0
 29 30  1  0
 30 31  2  0
 20 32  1  0
 10  3  1  0
 31 21  1  0
 32  5  1  0
 30 26  1  0
M  END
>  <identifier>  (1439) 
CNP0110124.1

>  <canonical_smiles>  (1439) 
COC1=CC2=C(C(OC)=C1/C=C/C(C)(C)O)C(=O)C=C(C1=CC(OC)=C3OCOC3=C1)O2

>  <standard_inchi>  (1439) 
InChI=1S/C24H24O8/c1-24(2,26)7-6-14-17(27-3)11-18-21(22(14)29-5)15(25)10-16(32-18)13-8-19(28-4)23-20(9-13)30-12-31-23/h6-11,26H,12H2,1-5H3/b7-6+

>  <standard_inchi_key>  (1439) 
FQPIXHGYESLXFX-VOTSOKGWSA-N

>  <name>  (1439) 
nan

>  <iupac_name>  (1439) 
nan

>  <annotation_level>  (1439) 
0

>  <total_atom_count>  (1439) 
56

>  <heavy_atom_count>  (1439) 
32

>  <molecular_weight>  (1439) 
440.45

>  <exact_molecular_weight>  (1439) 
440.14712

>  <molecular_formula>  (1439) 
C24H24O8

>  <alogp>  (1439) 
4.00

>  <topological_polar_surface_area>  (1439) 
96.59

>  <rotatable_bond_count>  (1439) 
6

>  <hydrogen_bond_acceptors>  (1439) 
8

>  <hydrogen_bond_donors>  (1439) 
1

>  <hydrogen_bond_acceptors_lipinski>  (1439) 
8

>  <hydrogen_bond_donors_lipinski>  (1439) 
1

>  <lipinski_rule_of_five_violations>  (1439) 
0

>  <aromatic_rings_count>  (1439) 
3

>  <qed_drug_likeliness>  (1439) 
0.61

>  <formal_charge>  (1439) 
0

>  <fractioncsp3>  (1439) 
0.29

>  <number_of_minimal_rings>  (1439) 
4

>  <van_der_walls_volume>  (1439) 
381.60

>  <contains_sugar>  (1439) 
False

>  <contains_ring_sugars>  (1439) 
False

>  <contains_linear_sugars>  (1439) 
False

>  <murcko_framework>  (1439) 
O1c2ccccc2CC=C1c3ccc4OCOc4c3

>  <np_likeness>  (1439) 
1.52

>  <chemical_class>  (1439) 
nan

>  <chemical_sub_class>  (1439) 
nan

>  <chemical_super_class>  (1439) 
nan

>  <direct_parent_classification>  (1439) 
nan

>  <np_classifier_pathway>  (1439) 
Shikimates and Phenylpropanoids

>  <np_classifier_superclass>  (1439) 
Flavonoids

>  <np_classifier_class>  (1439) 
Flavones

>  <np_classifier_is_glycoside>  (1439) 
False

>  <organisms>  (1439) 
Neoraputia paraensis

>  <collections>  (1439) 
Latin America dataset|NuBBEDB|Super Natural II|WikiData Natural Products|ZINC NP

>  <dois>  (1439) 
10.1016/S0031-9422(99)00197-1

>  <synonyms>  (1439) 
nan

>  <cas>  (1439) 
nan

$$$$

     RDKit          2D

 24 27  0  0  0  0  0  0  0  0999 V2000
    7.3428    0.7444    0.0000 C   0  0  0  0  0  0  0  0  0  0  0  0
    6.2121    1.7301    0.0000 O   0  0  0  0  0  0  0  0  0  0  0  0
    4.7932    1.2438    0.0000 C   0  0  0  0  0  0  0  0  0  0  0  0
    4.5048   -0.2282    0.0000 C   0  0  0  0  0  0  0  0  0  0  0  0
    3.0859   -0.7146    0.0000 C   0  0  0  0  0  0  0  0  0  0  0  0
    1.9552    0.2711    0.0000 C   0  0  0  0  0  0  0  0  0  0  0  0
    0.5362   -0.2152    0.0000 C   0  0  0  0  0  0  0  0  0  0  0  0
    0.2479   -1.6872    0.0000 C   0  0  0  0  0  0  0  0  0  0  0  0
    1.3786   -2.6729    0.0000 O   0  0  0  0  0  0  0  0  0  0  0  0
    1.0903   -4.1450    0.0000 C   0  0  0  0  0  0  0  0  0  0  0  0
   -1.1710   -2.1736    0.0000 C   0  0  0  0  0  0  0  0  0  0  0  0
   -1.4594   -3.6456    0.0000 O   0  0  0  0  0  0  0  0  0  0  0  0
   -2.3017   -1.1879    0.0000 C   0  0  0  0  0  0  0  0  0  0  0  0
   -2.0134    0.2842    0.0000 C   0  0  0  0  0  0  0  0  0  0  0  0
   -0.5944    0.7705    0.0000 O   0  0  0  0  0  0  0  0  0  0  0  0
   -3.1441    1.2699    0.0000 C   0  0  0  0  0  0  0  0  0  0  0  0
   -4.5630    0.7835    0.0000 C   0  0  0  0  0  0  0  0  0  0  0  0
   -4.8513   -0.6885    0.0000 C   0  0  0  0  0  0  0  0  0  0  0  0
   -3.7207   -1.6742    0.0000 C   0  0  0  0  0  0  0  0  0  0  0  0
   -5.4640    1.9828    0.0000 O   0  0  0  0  0  0  0  0  0  0  0  0
   -4.6019    3.2103    0.0000 C   0  0  0  0  0  0  0  0  0  0  0  0
   -3.1681    2.7697    0.0000 C   0  0  0  0  0  0  0  0  0  0  0  0
    2.2435    1.7432    0.0000 C   0  0  0  0  0  0  0  0  0  0  0  0
    3.6625    2.2295    0.0000 C   0  0  0  0  0  0  0  0  0  0  0  0
  1  2  1  0
  2  3  1  0
  3  4  2  0
  4  5  1  0
  5  6  2  0
  6  7  1  0
  7  8  2  0
  8  9  1  0
  9 10  1  0
  8 11  1  0
 11 12  2  0
 11 13  1  0
 13 14  2  0
 14 15  1  0
 14 16  1  0
 16 17  2  0
 17 18  1  0
 18 19  2  0
 17 20  1  0
 20 21  1  0
 21 22  2  0
  6 23  1  0
 23 24  2  0
 24  3  1  0
 15  7  1  0
 22 16  1  0
 19 13  1  0
M  END
>  <identifier>  (1440) 
CNP0256324.0

>  <canonical_smiles>  (1440) 
COC1=CC=C(C2=C(OC)C(=O)C3=C(O2)C2=C(C=C3)OC=C2)C=C1

>  <standard_inchi>  (1440) 
InChI=1S/C19H14O5/c1-21-12-5-3-11(4-6-12)17-19(22-2)16(20)14-7-8-15-13(9-10-23-15)18(14)24-17/h3-10H,1-2H3

>  <standard_inchi_key>  (1440) 
CWSZCOURUCZUKO-UHFFFAOYSA-N

>  <name>  (1440) 
3,4'-Dimethoxyfurano[2,3:7,8]flavone

>  <iupac_name>  (1440) 
3-methoxy-2-(4-methoxyphenyl)furo[2,3-h]chromen-4-one

>  <annotation_level>  (1440) 
5

>  <total_atom_count>  (1440) 
38

>  <heavy_atom_count>  (1440) 
24

>  <molecular_weight>  (1440) 
322.32

>  <exact_molecular_weight>  (1440) 
322.08412

>  <molecular_formula>  (1440) 
C19H14O5

>  <alogp>  (1440) 
4.22

>  <topological_polar_surface_area>  (1440) 
61.81

>  <rotatable_bond_count>  (1440) 
3

>  <hydrogen_bond_acceptors>  (1440) 
5

>  <hydrogen_bond_donors>  (1440) 
0

>  <hydrogen_bond_acceptors_lipinski>  (1440) 
5

>  <hydrogen_bond_donors_lipinski>  (1440) 
0

>  <lipinski_rule_of_five_violations>  (1440) 
0

>  <aromatic_rings_count>  (1440) 
4

>  <qed_drug_likeliness>  (1440) 
0.56

>  <formal_charge>  (1440) 
0

>  <fractioncsp3>  (1440) 
0.11

>  <number_of_minimal_rings>  (1440) 
4

>  <van_der_walls_volume>  (1440) 
273.41

>  <contains_sugar>  (1440) 
False

>  <contains_ring_sugars>  (1440) 
False

>  <contains_linear_sugars>  (1440) 
False

>  <murcko_framework>  (1440) 
o1ccc2c1ccc3c2OC(=CC3)c4ccccc4

>  <np_likeness>  (1440) 
0.76

>  <chemical_class>  (1440) 
Flavonoids

>  <chemical_sub_class>  (1440) 
Flavones

>  <chemical_super_class>  (1440) 
Phenylpropanoids and polyketides

>  <direct_parent_classification>  (1440) 
Furanoflavones

>  <np_classifier_pathway>  (1440) 
Shikimates and Phenylpropanoids

>  <np_classifier_superclass>  (1440) 
Flavonoids

>  <np_classifier_class>  (1440) 
Flavonols

>  <np_classifier_is_glycoside>  (1440) 
False

>  <organisms>  (1440) 
Derris mollis|Lonchocarpus campestris|Muellera campestris

>  <collections>  (1440) 
KNApSaCK|Latin America dataset|NPEdia|NuBBEDB|Super Natural II|UNPD (Universal Natural Products Database)|WikiData Natural Products|ZINC NP

>  <dois>  (1440) 
10.1211/JPP.61.02.0017|10.1211/jpp/61.02.0017

>  <synonyms>  (1440) 
3,4'-Dimethoxyfurano[2,3:7,8]flavone|3-methoxy-2-(4-methoxyphenyl)-4h-furo(2,3-h)-1-benzopyran-4-one|4'-methoxykaranjin|LMPK12111551

>  <cas>  (1440) 
nan

$$$$

     RDKit          2D

 26 27  0  0  0  0  0  0  0  0999 V2000
    6.4170   -3.3523    0.0000 C   0  0  0  0  0  0  0  0  0  0  0  0
    6.8328   -1.9111    0.0000 O   0  0  0  0  0  0  0  0  0  0  0  0
    5.7925   -0.8304    0.0000 C   0  0  0  0  0  0  0  0  0  0  0  0
    4.3365   -1.1909    0.0000 C   0  0  0  0  0  0  0  0  0  0  0  0
    3.2962   -0.1103    0.0000 C   0  0  0  0  0  0  0  0  0  0  0  0
    1.8402   -0.4708    0.0000 C   0  0  0  0  0  0  0  0  0  0  0  0
    0.7999    0.6099    0.0000 C   0  0  0  0  0  0  0  0  0  0  0  0
    1.2157    2.0511    0.0000 C   0  0  0  0  0  0  0  0  0  0  0  0
    0.1754    3.1318    0.0000 O   0  0  0  0  0  0  0  0  0  0  0  0
   -0.6561    0.2493    0.0000 C   0  0  0  0  0  0  0  0  0  0  0  0
   -1.0718   -1.1919    0.0000 C   0  0  0  0  0  0  0  0  0  0  0  0
   -2.5279   -1.5525    0.0000 O   0  0  0  0  0  0  0  0  0  0  0  0
   -1.6963    1.3300    0.0000 C   0  0  0  0  0  0  0  0  0  0  0  0
   -3.1524    0.9694    0.0000 C   0  0  0  0  0  0  0  0  0  0  0  0
   -4.1926    2.0501    0.0000 C   0  0  0  0  0  0  0  0  0  0  0  0
   -5.6486    1.6896    0.0000 C   0  0  0  0  0  0  0  0  0  0  0  0
   -6.0644    0.2483    0.0000 C   0  0  0  0  0  0  0  0  0  0  0  0
   -7.5204   -0.1122    0.0000 O   0  0  0  0  0  0  0  0  0  0  0  0
   -5.0242   -0.8323    0.0000 C   0  0  0  0  0  0  0  0  0  0  0  0
   -5.4399   -2.2736    0.0000 O   0  0  0  0  0  0  0  0  0  0  0  0
   -6.8959   -2.6341    0.0000 C   0  0  0  0  0  0  0  0  0  0  0  0
   -3.5681   -0.4718    0.0000 C   0  0  0  0  0  0  0  0  0  0  0  0
    3.7120    1.3310    0.0000 C   0  0  0  0  0  0  0  0  0  0  0  0
    5.1680    1.6915    0.0000 C   0  0  0  0  0  0  0  0  0  0  0  0
    6.2083    0.6108    0.0000 C   0  0  0  0  0  0  0  0  0  0  0  0
    7.6643    0.9714    0.0000 O   0  0  0  0  0  0  0  0  0  0  0  0
  1  2  1  0
  2  3  1  0
  3  4  2  0
  4  5  1  0
  5  6  1  0
  7  6  1  6
  7  8  1  0
  8  9  1  0
  7 10  1  0
 10 11  1  6
 11 12  1  0
 10 13  1  0
 13 14  1  0
 14 15  2  0
 15 16  1  0
 16 17  2  0
 17 18  1  0
 17 19  1  0
 19 20  1  0
 20 21  1  0
 19 22  2  0
  5 23  2  0
 23 24  1  0
 24 25  2  0
 25 26  1  0
 25  3  1  0
 22 14  1  0
M  END
>  <identifier>  (1441) 
CNP0283362.3

>  <canonical_smiles>  (1441) 
COC1=CC(C[C@@H](CO)[C@H](CO)CC2=CC=C(O)C(OC)=C2)=CC=C1O

>  <standard_inchi>  (1441) 
InChI=1S/C20H26O6/c1-25-19-9-13(3-5-17(19)23)7-15(11-21)16(12-22)8-14-4-6-18(24)20(10-14)26-2/h3-6,9-10,15-16,21-24H,7-8,11-12H2,1-2H3/t15-,16-/m0/s1

>  <standard_inchi_key>  (1441) 
PUETUDUXMCLALY-HOTGVXAUSA-N

>  <name>  (1441) 
Secoisolariciresinol

>  <iupac_name>  (1441) 
(2~{R},3~{R})-2,3-bis[(4-hydroxy-3-methoxy-phenyl)methyl]butane-1,4-diol

>  <annotation_level>  (1441) 
5

>  <total_atom_count>  (1441) 
52

>  <heavy_atom_count>  (1441) 
26

>  <molecular_weight>  (1441) 
362.42

>  <exact_molecular_weight>  (1441) 
362.17294

>  <molecular_formula>  (1441) 
C20H26O6

>  <alogp>  (1441) 
2.12

>  <topological_polar_surface_area>  (1441) 
99.38

>  <rotatable_bond_count>  (1441) 
9

>  <hydrogen_bond_acceptors>  (1441) 
6

>  <hydrogen_bond_donors>  (1441) 
4

>  <hydrogen_bond_acceptors_lipinski>  (1441) 
6

>  <hydrogen_bond_donors_lipinski>  (1441) 
4

>  <lipinski_rule_of_five_violations>  (1441) 
0

>  <aromatic_rings_count>  (1441) 
2

>  <qed_drug_likeliness>  (1441) 
0.55

>  <formal_charge>  (1441) 
0

>  <fractioncsp3>  (1441) 
0.40

>  <number_of_minimal_rings>  (1441) 
2

>  <van_der_walls_volume>  (1441) 
337.33

>  <contains_sugar>  (1441) 
False

>  <contains_ring_sugars>  (1441) 
False

>  <contains_linear_sugars>  (1441) 
False

>  <murcko_framework>  (1441) 
c1ccc(cc1)CCCCc2ccccc2

>  <np_likeness>  (1441) 
0.77

>  <chemical_class>  (1441) 
Dibenzylbutane lignans

>  <chemical_sub_class>  (1441) 
Dibenzylbutane lignans

>  <chemical_super_class>  (1441) 
Lignans, neolignans and related compounds

>  <direct_parent_classification>  (1441) 
Dibenzylbutane lignans

>  <np_classifier_pathway>  (1441) 
Shikimates and Phenylpropanoids

>  <np_classifier_superclass>  (1441) 
Lignans

>  <np_classifier_class>  (1441) 
Dibenzylbutane lignans

>  <np_classifier_is_glycoside>  (1441) 
False

>  <organisms>  (1441) 
Abies pinsapo|Actinidia chinensis|Aframomum aulacocarpos|Agnorhiza ovata|Aguacate|Allium ampeloprasum|Allium fistulosum|Allium sativum|Alnus japonica|Ananas comosus|Annona squamosa|Anogeissus Acuminata|Anogeissus acuminata|Apium graveolens|Apium graveolens var. dulce|Arachis hypogaea|Araucaria angustifolia|Arctium Lappa|Arctium lappa|Armoracia rusticana|Asparagus officinalis|Avena sativa|Berberis koreana|Berchemia racemosa|Bertholletia excelsa|Brassica fruticulosa|Brassica oleracea var. botrytis|Brassica oleracea var. capitata|Brassica oleracea var. sabauda|Brassica oleracea var. viridis|Brosimum acutifolium|Camellia sinensis|Campylotropis hirtella|Capparis Flavicans|Capparis flavicans|Capparis spinosa|Capsicum annuum|Carica papaya|Carya illinoinensis|Cashew|Castanea|Catunaregam spinosa|Cephalotaxus mannii|Chlorophora excelsa|Cicer arietinum|Cichorium intybus|Cinnamomum oliveri|Citrullus lanatus subsp. vulgaris|Citrus limon|Citrus paradisi|Citrus reticulata|Citrus × deliciosa|Citrus × paradisi|Clematis terniflora var. mandshurica|Coffea|Corylus|Crossosoma bigelovii|Cryptomeria japonica|Cucumis melo|Cucumis melo var. dudaim|Cucumis sativus|Cucurbita pepo|Cydonia|Cydonia oblonga|Cytisus austriacus|Daphne feddei|Daphne genkwa|Daphne odora|Daucus carota|Dendrobium officinale|Diospyros kaki|Enterococcus faecalis|Eruca vesicaria subsp. sativa|Fagopyrum esculentum|Ficus carica|Fitzroya cupressoides|Foeniculum vulgare|Forsythia intermedia|Forsythia koreana|Fragaria|Fragaria x ananassa|Galium aparine|Gardenia gordonii|Glehnia Littoralis|Glehnia littoralis|Glycine|Glycine max|Homalolepis cuneata|Hordeum vulgare|Hymenocallis littoralis|Ilyonectria destructans|Ipomoea batatas|Isatis tinctoria|Jugo|Justicia Procumbens|Justicia procumbens L. var. leucantha|Larix dahurica|Larix gmelinii var. olgensis|Larix leptolepis|Larix olgensis var. koreana|Larix sibirica|Laurus Nobilis|Laurus nobilis|Linum Usitatissimum|Linum album|Linum usitatissimum|Litchi chinensis|Luidia clathrata|Malus domestica|Malus pumila|Mangifera indica|Musa|Nasturtium officinale|Ocimum basilicum|Olea europaea|Origanum vulgare|Pajanelia multijuga|Papaver|Parsonsia laevigata|Passiflora edulis|Pastinaca sativa|Persea americana|Persicaria tinctoria|Petroselinum crispum|Phaseolus vulgaris|Phoenix dactylifera|Phyllanthus angkorensis|Phyllanthus polyphyllus var.siamensis|Picea abies|Pinus Massoniana|Pinus massoniana|Pistacia vera|Pisum sativum|Plectranthus albidus|Podocarpus spicatus|Prunus armeniaca|Prunus avium|Prunus domestica|Prunus dulcis|Prunus persica|Punica granatum|Pyrus communis|Raphanus sativus var. sativus|Rheum|Rheum rhabarbarum|Ribes nigrum|Ribes rubrum|Ribes uva-crispa|Rosa|Rubia yunnanensis|Rubus|Rubus amabilis|Rubus chamaemorus|Salvia Plebeia|Salvia plebeia|Santalum Album|Santalum album|Santalum album L.|Sargentodoxa cuneata|Saussurea medusa|Savoy cabbage|Secale cereale|Sedum sarmentosum|Senecio sundbergii|Siberian larch|Simaba cuneata|Solanum aculeatissimum|Solanum lycopersicum|Solanum melongena|Solanum tuberosum|Spinacia oleracea|Stapelia grandiflora|Stereospermum colais|Stereospermum personatum|Stereospermum tetragonum|Tabernaemontana cymosa|Taiwania cryptomerioides|Taxus Wallichiana|Taxus baccata|Taxus brevifolia|Taxus cuspidata|Taxus floridana|Taxus mairei|Taxus wallichiana|Taxus yunnanensis|Theobroma cacao|Thuja occidentalis|Thuja plicata|Tinospora Crispa|Tinospora crispa|Trema humbertii|Trichosanthes kirilowii|Triticum aestivum|Tsuga heterophylla|Urtica dioica|Vaccinium myrtillus|Vaccinium vitis-idaea|Vigna radiata|Vitex rotundifolia|Vitis vinifera|Welsh onion|Wikstroemia sikokiana|Yersinia pseudotuberculosis|Zanthoxylum ailanthoides|Zingiber|Zingiber officinale|asparagus|basil|broad bean|broccoli|cacao|common sunflower|garlic|lettuce|maize|parsley|peanut|pomegranate|potato|sesame|sweet potato|tomato

>  <collections>  (1441) 
ANPDB|Australian natural products|CMAUP (cCollective molecular activities of useful plants)|ChEBI NPs|DrugBankNP|FooDB|GNPS (Global Natural Products Social Molecular Networking)|KNApSaCK|Latin America dataset|NANPDB (Natural Products from Northern African Sources)|NPACT|NPASS|NPEdia|NuBBEDB|Phyto4Health|Super Natural II|TCMDB-Taiwan (Traditional Chinese Medicine database)|TIPdb (database of Taiwan indigenous plants)|VietHerb|WikiData Natural Products

>  <dois>  (1441) 
10.1002/CHIN.200844208|10.1002/HLCA.200590212|10.1002/hlca.200590212|10.1007/S00425-011-1492-Y|10.1016/0031-9422(92)80374-N|10.1016/0031-9422(93)85117-A|10.1016/J.BMC.2003.09.010|10.1016/J.BMC.2008.06.032|10.1016/J.BMCL.2011.02.104|10.1016/J.FOODCHEM.2009.03.002|10.1016/J.FOODCHEM.2012.03.133|10.1016/J.PHYTOCHEM.2005.04.026|10.1016/J.TET.2009.03.040|10.1016/S0031-9422(00)00108-4|10.1016/S0031-9422(00)00126-6|10.1016/S0031-9422(00)89347-4|10.1016/S0031-9422(00)90485-0|10.1016/S0031-9422(01)00429-0|10.1016/S0308-8146(03)00222-X|10.1016/j.bmc.2008.06.032|10.1016/j.bmcl.2011.02.104|10.1016/s0031-9422(00)89347-4|10.1021/JF034644C|10.1021/JF051488W|10.1021/JF800476R|10.1021/NP000307B|10.1021/NP0301083|10.1021/NP040219H|10.1021/NP050001A|10.1021/NP058022S|10.1021/NP058036Y|10.1021/NP100665J|10.1021/NP2002918|10.1021/NP8004166|10.1021/NP8006342|10.1021/NP9006298|10.1021/jf034644c|10.1021/np000307b|10.1021/np020235j|10.1021/np058036y|10.1021/np100665j|10.1021/np2002918|10.1021/np4004905|10.1021/np4009738|10.1021/np8004166|10.1039/C3FO60402K|10.1055/S-2002-32906|10.1055/S-2006-957466|10.1055/S-2006-957756|10.1055/s-2006-957756|10.1079/BJN2002794|10.1079/BJN20051371|10.1079/bjn20051371|10.1155/2017/7436259|10.1207/S15327914NC5402_5|10.1248/CPB.50.73|10.1248/CPB.51.508|10.1248/CPB.51.654|10.1248/CPB.53.1416|10.1248/CPB.53.641|10.1248/CPB.55.435|10.1248/CPB.58.587|10.1248/cpb.58.587|10.1271/BBB.60.736|10.1271/BBB.66.1262|10.1515/HF.2003.005|10.3390/MOLECULES22101606|10.3891/ACTA.CHEM.SCAND.23-2021|10.3987/COM-03-9777

>  <synonyms>  (1441) 
(-)-Secoisolariciresinol|(2R*,3R*)-2,3-Bis(4-hydroxy-3-methoxybenzyl)-1,4-butanediol|(2R,3R)-2,3-bis[(3-methoxy-4-oxidanyl-phenyl)methyl]butane-1,4-diol|(2R,3R)-2,3-bis[(4-hydroxy-3-methoxyphenyl)methyl]butane-1,4-diol|(8R,8'R)-(-)-SECOISOLARICIRESINOL|(8R,8'R)-Secoisolariciresinol|(R-(R*,R*))-2,3-Bis((4-hydroxy-3-methoxyphenyl)methyl)butane-1,4-diol|1,4-BUTANEDIOL, 2,3-DIVANILLYL-, (-)-|1,4-Butanediol, 2,3-bis[(4-hydroxy-3-methoxyphenyl)methyl]-, (2R,3R)-|2,3-Bis(4-hydroxy-3-methoxybenzyl)-1,4-butanediol, (-)|29388-59-8|A876479|AKOS032948353|AS-78311|BDBM50240914|C18167|CCG-101074|CCRIS 7790|CHEBI:65004|CHEMBL368347|CS-0032316|DB12179|DTXSID50183615|EINECS 249-599-2|GO6|HMS2052G03|HMS2232J05|HY-N6071|M8QRJ7JEJH|MFCD01075136|MLS001424213|NC00324|NCGC00346838-01|NS00028683|Q-100372|Q4413253|RR-secoisolariciresinol|SCHEMBL12427083|SECOISOLARICIRESINOL, (-)-|SMR000469212|Secoisolariciresinol, >=95.0% (HPLC)|UNII-M8QRJ7JEJH|secoisolariciresinol-(-)

>  <cas>  (1441) 
29388-59-8

$$$$

     RDKit          2D

 43 46  0  0  0  0  0  0  0  0999 V2000
    6.4952   -3.0535    0.0000 C   0  0  0  0  0  0  0  0  0  0  0  0
    5.1962   -2.3035    0.0000 C   0  0  0  0  0  0  0  0  0  0  0  0
    3.8971   -3.0535    0.0000 O   0  0  0  0  0  0  0  0  0  0  0  0
    5.1962   -0.8035    0.0000 O   0  0  0  0  0  0  0  0  0  0  0  0
    3.8971   -0.0535    0.0000 C   0  0  0  0  0  0  0  0  0  0  0  0
    3.8971    1.4465    0.0000 C   0  0  0  0  0  0  0  0  0  0  0  0
    5.1962    2.1965    0.0000 C   0  0  0  0  0  0  0  0  0  0  0  0
    5.1962    3.6965    0.0000 O   0  0  0  0  0  0  0  0  0  0  0  0
    3.8971    4.4465    0.0000 C   0  0  0  0  0  0  0  0  0  0  0  0
    3.8971    5.9465    0.0000 C   0  0  0  0  0  0  0  0  0  0  0  0
    2.5981    3.6965    0.0000 C   0  0  0  0  0  0  0  0  0  0  0  0
    2.5981    2.1965    0.0000 C   0  0  0  0  0  0  0  0  0  0  0  0
    1.2990    1.4465    0.0000 C   0  0  0  0  0  0  0  0  0  0  0  0
   -0.0000    2.1965    0.0000 C   0  0  0  0  0  0  0  0  0  0  0  0
   -1.2990    1.4465    0.0000 C   0  0  0  0  0  0  0  0  0  0  0  0
   -2.5981    2.1965    0.0000 C   0  0  0  0  0  0  0  0  0  0  0  0
   -2.5981    3.6965    0.0000 C   0  0  0  0  0  0  0  0  0  0  0  0
   -3.8971    4.4465    0.0000 C   0  0  0  0  0  0  0  0  0  0  0  0
   -3.8971    5.9465    0.0000 C   0  0  0  0  0  0  0  0  0  0  0  0
   -5.1962    3.6965    0.0000 O   0  0  0  0  0  0  0  0  0  0  0  0
   -5.1962    2.1965    0.0000 C   0  0  0  0  0  0  0  0  0  0  0  0
   -3.8971    1.4465    0.0000 C   0  0  0  0  0  0  0  0  0  0  0  0
   -3.8971   -0.0535    0.0000 C   0  0  0  0  0  0  0  0  0  0  0  0
   -5.1962   -0.8035    0.0000 O   0  0  0  0  0  0  0  0  0  0  0  0
   -5.1962   -2.3035    0.0000 C   0  0  0  0  0  0  0  0  0  0  0  0
   -6.4952   -3.0535    0.0000 C   0  0  0  0  0  0  0  0  0  0  0  0
   -3.8971   -3.0535    0.0000 O   0  0  0  0  0  0  0  0  0  0  0  0
   -2.5981   -0.8035    0.0000 C   0  0  0  0  0  0  0  0  0  0  0  0
   -1.6339   -1.9525    0.0000 C   0  0  0  0  0  0  0  0  0  0  0  0
   -3.5623   -1.9525    0.0000 O   0  0  0  0  0  0  0  0  0  0  0  0
   -3.0492   -3.3621    0.0000 C   0  0  0  0  0  0  0  0  0  0  0  0
   -4.0134   -4.5111    0.0000 C   0  0  0  0  0  0  0  0  0  0  0  0
   -1.5720   -3.6225    0.0000 O   0  0  0  0  0  0  0  0  0  0  0  0
   -1.2990   -0.0535    0.0000 C   0  0  0  0  0  0  0  0  0  0  0  0
   -0.5131   -0.6457    0.0000 O   0  0  0  0  0  0  0  0  0  0  0  0
    1.2990   -0.0535    0.0000 C   0  0  0  0  0  0  0  0  0  0  0  0
    0.5131   -0.6457    0.0000 O   0  0  0  0  0  0  0  0  0  0  0  0
    2.5981   -0.8035    0.0000 C   0  0  0  0  0  0  0  0  0  0  0  0
    1.6339   -1.9525    0.0000 C   0  0  0  0  0  0  0  0  0  0  0  0
    3.5623   -1.9525    0.0000 O   0  0  0  0  0  0  0  0  0  0  0  0
    3.0492   -3.3621    0.0000 C   0  0  0  0  0  0  0  0  0  0  0  0
    4.0134   -4.5111    0.0000 C   0  0  0  0  0  0  0  0  0  0  0  0
    1.5720   -3.6225    0.0000 O   0  0  0  0  0  0  0  0  0  0  0  0
  1  2  1  0
  2  3  2  0
  2  4  1  0
  5  4  1  6
  5  6  1  0
  6  7  2  0
  7  8  1  0
  8  9  1  0
  9 10  1  0
  9 11  2  0
 11 12  1  0
 12 13  2  0
 13 14  1  0
 14 15  1  0
 15 16  2  0
 16 17  1  0
 17 18  2  0
 18 19  1  0
 18 20  1  0
 20 21  1  0
 21 22  2  0
 22 23  1  0
 23 24  1  1
 24 25  1  0
 25 26  1  0
 25 27  2  0
 23 28  1  0
 28 29  1  1
 28 30  1  0
 30 31  1  0
 31 32  1  0
 31 33  2  0
 28 34  1  0
 34 35  2  0
 13 36  1  0
 36 37  2  0
 36 38  1  0
 38 39  1  6
 38 40  1  0
 40 41  1  0
 41 42  1  0
 41 43  2  0
 38  5  1  0
 12  6  1  0
 34 15  1  0
 22 16  1  0
M  END
>  <identifier>  (1442) 
CNP0117814.1

>  <canonical_smiles>  (1442) 
CC(=O)O[C@H]1C2=COC(C)=CC2=C(CC2=C3C=C(C)OC=C3[C@H](OC(C)=O)[C@@](C)(OC(C)=O)C2=O)C(=O)[C@]1(C)OC(C)=O

>  <standard_inchi>  (1442) 
InChI=1S/C31H32O12/c1-14-9-20-22(26(36)30(7,42-18(5)34)28(40-16(3)32)24(20)12-38-14)11-23-21-10-15(2)39-13-25(21)29(41-17(4)33)31(8,27(23)37)43-19(6)35/h9-10,12-13,28-29H,11H2,1-8H3/t28-,29-,30-,31-/m0/s1

>  <standard_inchi_key>  (1442) 
LUVMOIRBZAXQFO-ORYMTKCHSA-N

>  <name>  (1442) 
[(7R,8S)-7-acetyloxy-5-[[(7R,8S)-7,8-diacetyloxy-3,7-dimethyl-6-oxo-8H-isochromen-5-yl]methyl]-3,7-dimethyl-6-oxo-8H-isochromen-8-yl] acetate

>  <iupac_name>  (1442) 
[(7~{R},8~{S})-7-acetoxy-5-[[(7~{R},8~{S})-7,8-diacetoxy-3,7-dimethyl-6-oxo-8~{H}-isochromen-5-yl]methyl]-3,7-dimethyl-6-oxo-8~{H}-isochromen-8-yl] acetate

>  <annotation_level>  (1442) 
5

>  <total_atom_count>  (1442) 
75

>  <heavy_atom_count>  (1442) 
43

>  <molecular_weight>  (1442) 
596.59

>  <exact_molecular_weight>  (1442) 
596.18938

>  <molecular_formula>  (1442) 
C31H32O12

>  <alogp>  (1442) 
3.28

>  <topological_polar_surface_area>  (1442) 
157.80

>  <rotatable_bond_count>  (1442) 
6

>  <hydrogen_bond_acceptors>  (1442) 
12

>  <hydrogen_bond_donors>  (1442) 
0

>  <hydrogen_bond_acceptors_lipinski>  (1442) 
12

>  <hydrogen_bond_donors_lipinski>  (1442) 
0

>  <lipinski_rule_of_five_violations>  (1442) 
2

>  <aromatic_rings_count>  (1442) 
0

>  <qed_drug_likeliness>  (1442) 
0.33

>  <formal_charge>  (1442) 
0

>  <fractioncsp3>  (1442) 
0.42

>  <number_of_minimal_rings>  (1442) 
4

>  <van_der_walls_volume>  (1442) 
nan

>  <contains_sugar>  (1442) 
False

>  <contains_ring_sugars>  (1442) 
False

>  <contains_linear_sugars>  (1442) 
False

>  <murcko_framework>  (1442) 
O1C=CC=2C(=C1)CCCC2CC3=C4C=COC=C4CCC3

>  <np_likeness>  (1442) 
1.50

>  <chemical_class>  (1442) 
Carboxylic acids and derivatives

>  <chemical_sub_class>  (1442) 
Tetracarboxylic acids and derivatives

>  <chemical_super_class>  (1442) 
Organic acids and derivatives

>  <direct_parent_classification>  (1442) 
Tetracarboxylic acids and derivatives

>  <np_classifier_pathway>  (1442) 
Polyketides

>  <np_classifier_superclass>  (1442) 
Chromanes

>  <np_classifier_class>  (1442) 
Azaphilones

>  <np_classifier_is_glycoside>  (1442) 
False

>  <organisms>  (1442) 
Muyocopron sahnii|Mycoleptodiscus indicus

>  <collections>  (1442) 
Latin America dataset|NPASS|NuBBEDB|WikiData Natural Products|ZINC NP

>  <dois>  (1442) 
10.1021/NP4006822|10.1021/np4006822

>  <synonyms>  (1442) 
CHEMBL3104960|Mycoleptone A tetraacetate

>  <cas>  (1442) 
nan

$$$$

     RDKit          2D

 19 20  0  0  0  0  0  0  0  0999 V2000
   -5.9471   -2.5866    0.0000 C   0  0  0  0  0  0  0  0  0  0  0  0
   -4.4602   -2.3883    0.0000 O   0  0  0  0  0  0  0  0  0  0  0  0
   -3.8886   -1.0015    0.0000 C   0  0  0  0  0  0  0  0  0  0  0  0
   -4.8037    0.1869    0.0000 C   0  0  0  0  0  0  0  0  0  0  0  0
   -4.2321    1.5737    0.0000 C   0  0  0  0  0  0  0  0  0  0  0  0
   -5.1472    2.7622    0.0000 O   0  0  0  0  0  0  0  0  0  0  0  0
   -2.7452    1.7721    0.0000 O   0  0  0  0  0  0  0  0  0  0  0  0
   -1.8301    0.5836    0.0000 C   0  0  0  0  0  0  0  0  0  0  0  0
   -0.3432    0.7819    0.0000 C   0  0  0  0  0  0  0  0  0  0  0  0
    0.5719   -0.4065    0.0000 C   0  0  0  0  0  0  0  0  0  0  0  0
    2.0588   -0.2082    0.0000 C   0  0  0  0  0  0  0  0  0  0  0  0
    2.9739   -1.3967    0.0000 C   0  0  0  0  0  0  0  0  0  0  0  0
    4.4608   -1.1984    0.0000 C   0  0  0  0  0  0  0  0  0  0  0  0
    5.0324    0.1884    0.0000 C   0  0  0  0  0  0  0  0  0  0  0  0
    6.5193    0.3868    0.0000 O   0  0  0  0  0  0  0  0  0  0  0  0
    7.4344   -0.8017    0.0000 C   0  0  0  0  0  0  0  0  0  0  0  0
    4.1173    1.3769    0.0000 C   0  0  0  0  0  0  0  0  0  0  0  0
    2.6304    1.1786    0.0000 C   0  0  0  0  0  0  0  0  0  0  0  0
   -2.4017   -0.8032    0.0000 C   0  0  0  0  0  0  0  0  0  0  0  0
  1  2  1  0
  2  3  1  0
  3  4  2  0
  4  5  1  0
  5  6  2  0
  5  7  1  0
  7  8  1  0
  8  9  1  1
  9 10  1  0
 10 11  1  0
 11 12  2  0
 12 13  1  0
 13 14  2  0
 14 15  1  0
 15 16  1  0
 14 17  1  0
 17 18  2  0
  8 19  1  0
 19  3  1  0
 18 11  1  0
M  END
>  <identifier>  (1443) 
CNP0159256.1

>  <canonical_smiles>  (1443) 
COC1=CC(=O)O[C@@H](CCC2=CC=C(OC)C=C2)C1

>  <standard_inchi>  (1443) 
InChI=1S/C15H18O4/c1-17-12-6-3-11(4-7-12)5-8-13-9-14(18-2)10-15(16)19-13/h3-4,6-7,10,13H,5,8-9H2,1-2H3/t13-/m0/s1

>  <standard_inchi_key>  (1443) 
IZGFAKZIDOQLHS-ZDUSSCGKSA-N

>  <name>  (1443) 
DTXSID001155187

>  <iupac_name>  (1443) 
(2~{S})-4-methoxy-2-[2-(4-methoxyphenyl)ethyl]-2,3-dihydropyran-6-one

>  <annotation_level>  (1443) 
5

>  <total_atom_count>  (1443) 
37

>  <heavy_atom_count>  (1443) 
19

>  <molecular_weight>  (1443) 
262.31

>  <exact_molecular_weight>  (1443) 
262.12051

>  <molecular_formula>  (1443) 
C15H18O4

>  <alogp>  (1443) 
2.47

>  <topological_polar_surface_area>  (1443) 
44.76

>  <rotatable_bond_count>  (1443) 
5

>  <hydrogen_bond_acceptors>  (1443) 
4

>  <hydrogen_bond_donors>  (1443) 
0

>  <hydrogen_bond_acceptors_lipinski>  (1443) 
4

>  <hydrogen_bond_donors_lipinski>  (1443) 
0

>  <lipinski_rule_of_five_violations>  (1443) 
0

>  <aromatic_rings_count>  (1443) 
1

>  <qed_drug_likeliness>  (1443) 
0.76

>  <formal_charge>  (1443) 
0

>  <fractioncsp3>  (1443) 
0.40

>  <number_of_minimal_rings>  (1443) 
2

>  <van_der_walls_volume>  (1443) 
nan

>  <contains_sugar>  (1443) 
False

>  <contains_ring_sugars>  (1443) 
False

>  <contains_linear_sugars>  (1443) 
False

>  <murcko_framework>  (1443) 
O1CC=CCC1CCc2ccccc2

>  <np_likeness>  (1443) 
1.42

>  <chemical_class>  (1443) 
Kavalactones

>  <chemical_sub_class>  (1443) 
Kavalactones

>  <chemical_super_class>  (1443) 
Phenylpropanoids and polyketides

>  <direct_parent_classification>  (1443) 
Kavalactones

>  <np_classifier_pathway>  (1443) 
Shikimates and Phenylpropanoids

>  <np_classifier_superclass>  (1443) 
Styrylpyrones

>  <np_classifier_class>  (1443) 
Kavalactones and derivatives

>  <np_classifier_is_glycoside>  (1443) 
False

>  <organisms>  (1443) 
Aniba gigantifolia|Aniba hostmanniana|Macropiper latifolium|Macropiper methysticum|Piper latifolium|Piper longum|Piper majusculum|Piper methysticum|Piper peltatum

>  <collections>  (1443) 
Latin America dataset|NuBBEDB|WikiData Natural Products

>  <dois>  (1443) 
10.1016/0031-9422(73)85045-9|10.1016/S0031-9422(01)00443-5

>  <synonyms>  (1443) 
(6S)-5,6-Dihydro-4-methoxy-6-[2-(4-methoxyphenyl)ethyl]-2H-pyran-2-one|49776-58-1|tetrahydroiangonin

>  <cas>  (1443) 
49776-58-1

$$$$

     RDKit          2D

 40 45  0  0  0  0  0  0  0  0999 V2000
   -6.7892   -3.8984    0.0000 C   0  0  0  0  0  0  0  0  0  0  0  0
   -7.3479   -2.5063    0.0000 C   0  0  0  0  0  0  0  0  0  0  0  0
   -8.6218   -3.2982    0.0000 C   0  0  0  0  0  0  0  0  0  0  0  0
   -8.3490   -1.3893    0.0000 C   0  0  0  0  0  0  0  0  0  0  0  0
   -7.8821    0.0362    0.0000 C   0  0  0  0  0  0  0  0  0  0  0  0
   -6.4142    0.3447    0.0000 C   0  0  0  0  0  0  0  0  0  0  0  0
   -7.4153    1.4617    0.0000 C   0  0  0  0  0  0  0  0  0  0  0  0
   -5.9473    1.7702    0.0000 C   0  0  0  0  0  0  0  0  0  0  0  0
   -4.4794    2.0786    0.0000 C   0  0  0  0  0  0  0  0  0  0  0  0
   -3.4783    0.9616    0.0000 C   0  0  0  0  0  0  0  0  0  0  0  0
   -2.4772   -0.1555    0.0000 C   0  0  0  0  0  0  0  0  0  0  0  0
   -3.9452   -0.4639    0.0000 C   0  0  0  0  0  0  0  0  0  0  0  0
   -2.9441   -1.5810    0.0000 C   0  0  0  0  0  0  0  0  0  0  0  0
   -1.4761   -1.2725    0.0000 C   0  0  0  0  0  0  0  0  0  0  0  0
   -1.0093    0.1530    0.0000 C   0  0  0  0  0  0  0  0  0  0  0  0
    0.4587    0.4614    0.0000 C   0  0  0  0  0  0  0  0  0  0  0  0
   -0.0082   -0.9641    0.0000 C   0  0  0  0  0  0  0  0  0  0  0  0
    1.4598   -0.6556    0.0000 C   0  0  0  0  0  0  0  0  0  0  0  0
    2.9277   -0.3472    0.0000 C   0  0  0  0  0  0  0  0  0  0  0  0
    3.3946    1.0783    0.0000 C   0  0  0  0  0  0  0  0  0  0  0  0
    4.8625    1.3867    0.0000 O   0  0  0  0  0  0  0  0  0  0  0  0
    5.8636    0.2697    0.0000 C   0  0  0  0  0  0  0  0  0  0  0  0
    5.3967   -1.1558    0.0000 O   0  0  0  0  0  0  0  0  0  0  0  0
    7.3315    0.5781    0.0000 C   0  0  0  0  0  0  0  0  0  0  0  0
    8.3326   -0.5389    0.0000 C   0  0  0  0  0  0  0  0  0  0  0  0
    7.8658   -1.9644    0.0000 C   0  0  0  0  0  0  0  0  0  0  0  0
    8.8669   -3.0815    0.0000 C   0  0  0  0  0  0  0  0  0  0  0  0
   10.3348   -2.7730    0.0000 C   0  0  0  0  0  0  0  0  0  0  0  0
   10.8017   -1.3475    0.0000 C   0  0  0  0  0  0  0  0  0  0  0  0
    9.8006   -0.2305    0.0000 C   0  0  0  0  0  0  0  0  0  0  0  0
    2.3935    2.1954    0.0000 C   0  0  0  0  0  0  0  0  0  0  0  0
    1.8348    3.5874    0.0000 C   0  0  0  0  0  0  0  0  0  0  0  0
    3.6674    2.9873    0.0000 C   0  0  0  0  0  0  0  0  0  0  0  0
    0.9255    1.8869    0.0000 C   0  0  0  0  0  0  0  0  0  0  0  0
   -0.0756    3.0040    0.0000 C   0  0  0  0  0  0  0  0  0  0  0  0
   -1.5435    2.6955    0.0000 C   0  0  0  0  0  0  0  0  0  0  0  0
   -2.0104    1.2700    0.0000 C   0  0  0  0  0  0  0  0  0  0  0  0
   -3.0115    2.3871    0.0000 C   0  0  0  0  0  0  0  0  0  0  0  0
   -5.4131   -0.7724    0.0000 C   0  0  0  0  0  0  0  0  0  0  0  0
   -5.8800   -2.1979    0.0000 C   0  0  0  0  0  0  0  0  0  0  0  0
  1  2  1  0
  2  3  1  0
  2  4  1  0
  4  5  1  0
  5  6  1  0
  6  7  1  1
  6  8  1  0
  8  9  1  0
  9 10  1  0
 10 11  1  6
 10 12  1  0
 12 13  2  0
 13 14  1  0
 14 15  1  0
 15 16  1  0
 16 17  1  1
 16 18  1  0
 18 19  1  0
 19 20  1  0
 20 21  1  1
 21 22  1  0
 22 23  2  0
 22 24  1  0
 24 25  1  0
 25 26  2  0
 26 27  1  0
 27 28  2  0
 28 29  1  0
 29 30  2  0
 20 31  1  0
 31 32  1  0
 31 33  1  0
 31 34  1  0
 34 35  1  0
 35 36  1  0
 36 37  1  0
 37 38  1  1
 12 39  1  0
 39 40  1  0
 40  2  1  0
 39  6  1  0
 37 10  1  0
 37 15  1  0
 34 16  1  0
 30 25  1  0
M  END
>  <identifier>  (1444) 
CNP0159546.1

>  <canonical_smiles>  (1444) 
CC1(C)CC[C@]2(C)CC[C@]3(C)C(=CCC4[C@@]5(C)CC[C@H](OC(=O)CC6=CC=CC=C6)C(C)(C)C5CC[C@]43C)C2C1

>  <standard_inchi>  (1444) 
InChI=1S/C38H56O2/c1-33(2)20-21-35(5)22-23-37(7)27(28(35)25-33)14-15-30-36(6)18-17-31(34(3,4)29(36)16-19-38(30,37)8)40-32(39)24-26-12-10-9-11-13-26/h9-14,28-31H,15-25H2,1-8H3/t28?,29?,30?,31-,35+,36-,37+,38+/m0/s1

>  <standard_inchi_key>  (1444) 
YGGMSCSDIISOHL-APUVACDRSA-N

>  <name>  (1444) 
nan

>  <iupac_name>  (1444) 
[(3~{S},6~{a}~{R},6~{b}~{S},8~{a}~{R},14~{b}~{R})-4,4,6~{a},6~{b},8~{a},11,11,14~{b}-octamethyl-1,2,3,4~{a},5,6,7,8,9,10,12,12~{a},14,14~{a}-tetradecahydropicen-3-yl] 2-phenylacetate

>  <annotation_level>  (1444) 
4

>  <total_atom_count>  (1444) 
96

>  <heavy_atom_count>  (1444) 
40

>  <molecular_weight>  (1444) 
544.86

>  <exact_molecular_weight>  (1444) 
544.42803

>  <molecular_formula>  (1444) 
C38H56O2

>  <alogp>  (1444) 
9.96

>  <topological_polar_surface_area>  (1444) 
26.30

>  <rotatable_bond_count>  (1444) 
3

>  <hydrogen_bond_acceptors>  (1444) 
2

>  <hydrogen_bond_donors>  (1444) 
0

>  <hydrogen_bond_acceptors_lipinski>  (1444) 
2

>  <hydrogen_bond_donors_lipinski>  (1444) 
0

>  <lipinski_rule_of_five_violations>  (1444) 
2

>  <aromatic_rings_count>  (1444) 
1

>  <qed_drug_likeliness>  (1444) 
0.28

>  <formal_charge>  (1444) 
0

>  <fractioncsp3>  (1444) 
0.76

>  <number_of_minimal_rings>  (1444) 
6

>  <van_der_walls_volume>  (1444) 
nan

>  <contains_sugar>  (1444) 
False

>  <contains_ring_sugars>  (1444) 
False

>  <contains_linear_sugars>  (1444) 
False

>  <murcko_framework>  (1444) 
O(CCc1ccccc1)C2CCC3C(CCC4C5C(=CCC43)C6CCCCC6CC5)C2

>  <np_likeness>  (1444) 
2.50

>  <chemical_class>  (1444) 
Prenol lipids

>  <chemical_sub_class>  (1444) 
Triterpenoids

>  <chemical_super_class>  (1444) 
Lipids and lipid-like molecules

>  <direct_parent_classification>  (1444) 
Oleanane triterpenoids

>  <np_classifier_pathway>  (1444) 
Terpenoids

>  <np_classifier_superclass>  (1444) 
Triterpenoids

>  <np_classifier_class>  (1444) 
Oleanane triterpenoids

>  <np_classifier_is_glycoside>  (1444) 
False

>  <organisms>  (1444) 
Trattinnickia burserifolia

>  <collections>  (1444) 
Latin America dataset|NuBBEDB|WikiData Natural Products

>  <dois>  (1444) 
10.1590/S0103-50532004000300008

>  <synonyms>  (1444) 
3\u221a\u00e9\u00ac\u2264-phenylacetoxyolean- 12-ene

>  <cas>  (1444) 
nan

$$$$

     RDKit          2D

 25 28  0  0  0  0  0  0  0  0999 V2000
   -3.9642   -3.4471    0.0000 C   0  0  0  0  0  0  0  0  0  0  0  0
   -2.8181   -2.4794    0.0000 C   0  0  0  0  0  0  0  0  0  0  0  0
   -1.3615   -2.8378    0.0000 C   0  0  0  0  0  0  0  0  0  0  0  0
   -0.5705   -1.5633    0.0000 C   0  0  0  0  0  0  0  0  0  0  0  0
    0.5117   -2.6019    0.0000 C   0  0  0  0  0  0  0  0  0  0  0  0
    1.9523   -2.1841    0.0000 C   0  0  0  0  0  0  0  0  0  0  0  0
    2.3107   -0.7275    0.0000 C   0  0  0  0  0  0  0  0  0  0  0  0
    3.7513   -0.3096    0.0000 C   0  0  0  0  0  0  0  0  0  0  0  0
    5.2480   -0.4097    0.0000 C   0  0  0  0  0  0  0  0  0  0  0  0
    3.9127   -1.8009    0.0000 C   0  0  0  0  0  0  0  0  0  0  0  0
    4.1097    1.1469    0.0000 C   0  0  0  0  0  0  0  0  0  0  0  0
    3.0275    2.1856    0.0000 C   0  0  0  0  0  0  0  0  0  0  0  0
    1.5869    1.7677    0.0000 C   0  0  0  0  0  0  0  0  0  0  0  0
    1.2285    0.3112    0.0000 C   0  0  0  0  0  0  0  0  0  0  0  0
    0.1463    1.3498    0.0000 C   0  0  0  0  0  0  0  0  0  0  0  0
   -0.2121   -0.1067    0.0000 C   0  0  0  0  0  0  0  0  0  0  0  0
   -1.6527   -0.5246    0.0000 O   0  0  0  0  0  0  0  0  0  0  0  0
   -1.2943    0.9320    0.0000 C   0  0  0  0  0  0  0  0  0  0  0  0
   -0.9359    2.3885    0.0000 O   0  0  0  0  0  0  0  0  0  0  0  0
   -2.0181    3.4272    0.0000 C   0  0  0  0  0  0  0  0  0  0  0  0
   -1.6597    4.8837    0.0000 C   0  0  0  0  0  0  0  0  0  0  0  0
   -3.4587    3.0093    0.0000 O   0  0  0  0  0  0  0  0  0  0  0  0
   -2.7350    0.5141    0.0000 C   0  0  0  0  0  0  0  0  0  0  0  0
   -3.0934   -0.9425    0.0000 C   0  0  0  0  0  0  0  0  0  0  0  0
   -2.0112   -1.9811    0.0000 C   0  0  0  0  0  0  0  0  0  0  0  0
  1  2  2  0
  2  3  1  0
  4  3  1  6
  4  5  1  0
  5  6  1  0
  7  6  1  1
  7  8  1  0
  8  9  1  0
  8 10  1  0
  8 11  1  0
 11 12  1  0
 12 13  1  0
 13 14  1  0
 14 15  1  1
 14 16  1  0
 16 17  1  6
 16 18  1  0
 18 19  1  1
 19 20  1  0
 20 21  1  0
 20 22  2  0
 18 23  1  0
 24 23  1  6
 24 25  1  0
 24  2  1  0
 16  4  1  0
 25  4  1  0
 14  7  1  0
M  END
>  <identifier>  (1445) 
CNP0080634.1

>  <canonical_smiles>  (1445) 
C=C1C[C@@]23CC[C@@H]4C(C)(C)CCC[C@@]4(C)[C@]2(O)[C@H](OC(C)=O)C[C@@H]1C3

>  <standard_inchi>  (1445) 
InChI=1S/C22H34O3/c1-14-12-21-10-7-17-19(3,4)8-6-9-20(17,5)22(21,24)18(25-15(2)23)11-16(14)13-21/h16-18,24H,1,6-13H2,2-5H3/t16-,17-,18-,20-,21-,22-/m1/s1

>  <standard_inchi_key>  (1445) 
MLIIAAXHUGQHCG-VHCUVLFBSA-N

>  <name>  (1445) 
nan

>  <iupac_name>  (1445) 
[(1~{S},4~{R},9~{R},10~{S},11~{R},13~{S})-10-hydroxy-5,5,9-trimethyl-14-methylene-11-tetracyclo[11.2.1.0^{1,10}.0^{4,9}]hexadecanyl] acetate

>  <annotation_level>  (1445) 
3

>  <total_atom_count>  (1445) 
59

>  <heavy_atom_count>  (1445) 
25

>  <molecular_weight>  (1445) 
346.51

>  <exact_molecular_weight>  (1445) 
346.25079

>  <molecular_formula>  (1445) 
C22H34O3

>  <alogp>  (1445) 
4.63

>  <topological_polar_surface_area>  (1445) 
46.53

>  <rotatable_bond_count>  (1445) 
1

>  <hydrogen_bond_acceptors>  (1445) 
3

>  <hydrogen_bond_donors>  (1445) 
1

>  <hydrogen_bond_acceptors_lipinski>  (1445) 
3

>  <hydrogen_bond_donors_lipinski>  (1445) 
1

>  <lipinski_rule_of_five_violations>  (1445) 
0

>  <aromatic_rings_count>  (1445) 
0

>  <qed_drug_likeliness>  (1445) 
0.56

>  <formal_charge>  (1445) 
0

>  <fractioncsp3>  (1445) 
0.86

>  <number_of_minimal_rings>  (1445) 
4

>  <van_der_walls_volume>  (1445) 
nan

>  <contains_sugar>  (1445) 
False

>  <contains_ring_sugars>  (1445) 
False

>  <contains_linear_sugars>  (1445) 
False

>  <murcko_framework>  (1445) 
C1CCC2C(C1)CCC34CCC(CCC23)C4

>  <np_likeness>  (1445) 
3.15

>  <chemical_class>  (1445) 
Prenol lipids

>  <chemical_sub_class>  (1445) 
Diterpenoids

>  <chemical_super_class>  (1445) 
Lipids and lipid-like molecules

>  <direct_parent_classification>  (1445) 
Kaurane diterpenoids

>  <np_classifier_pathway>  (1445) 
Terpenoids

>  <np_classifier_superclass>  (1445) 
Diterpenoids

>  <np_classifier_class>  (1445) 
Kaurane and Phyllocladane diterpenoids

>  <np_classifier_is_glycoside>  (1445) 
False

>  <organisms>  (1445) 
Vellozia caput-ardeae

>  <collections>  (1445) 
Latin America dataset|NuBBEDB|WikiData Natural Products

>  <dois>  (1445) 
10.1016/0031-9422(83)80035-1

>  <synonyms>  (1445) 
nan

>  <cas>  (1445) 
nan

$$$$

     RDKit          2D

 34 39  0  0  0  0  0  0  0  0999 V2000
    9.7905   -0.6320    0.0000 C   0  0  0  0  0  0  0  0  0  0  0  0
    8.3335   -0.2752    0.0000 C   0  0  0  0  0  0  0  0  0  0  0  0
    7.7292   -1.6481    0.0000 C   0  0  0  0  0  0  0  0  0  0  0  0
    8.4319    1.2216    0.0000 O   0  0  0  0  0  0  0  0  0  0  0  0
    7.0865    0.5584    0.0000 C   0  0  0  0  0  0  0  0  0  0  0  0
    5.5897    0.6567    0.0000 C   0  0  0  0  0  0  0  0  0  0  0  0
    4.6304   -0.4964    0.0000 C   0  0  0  0  0  0  0  0  0  0  0  0
    3.2372    0.0597    0.0000 C   0  0  0  0  0  0  0  0  0  0  0  0
    1.9685   -0.7405    0.0000 C   0  0  0  0  0  0  0  0  0  0  0  0
    1.8701   -2.2372    0.0000 C   0  0  0  0  0  0  0  0  0  0  0  0
    0.4162   -2.6062    0.0000 C   0  0  0  0  0  0  0  0  0  0  0  0
   -0.3840   -1.3375    0.0000 C   0  0  0  0  0  0  0  0  0  0  0  0
   -1.2176   -2.5845    0.0000 C   0  0  0  0  0  0  0  0  0  0  0  0
   -1.8623   -1.0832    0.0000 C   0  0  0  0  0  0  0  0  0  0  0  0
   -2.8216   -2.2363    0.0000 C   0  0  0  0  0  0  0  0  0  0  0  0
   -4.2999   -1.9820    0.0000 C   0  0  0  0  0  0  0  0  0  0  0  0
   -4.8188   -0.5746    0.0000 C   0  0  0  0  0  0  0  0  0  0  0  0
   -6.2971   -0.3203    0.0000 C   0  0  0  0  0  0  0  0  0  0  0  0
   -7.7732   -0.5870    0.0000 C   0  0  0  0  0  0  0  0  0  0  0  0
   -6.2908   -1.8203    0.0000 C   0  0  0  0  0  0  0  0  0  0  0  0
   -6.8160    1.0871    0.0000 C   0  0  0  0  0  0  0  0  0  0  0  0
   -8.2943    1.3414    0.0000 O   0  0  0  0  0  0  0  0  0  0  0  0
   -5.8567    2.2402    0.0000 C   0  0  0  0  0  0  0  0  0  0  0  0
   -4.3784    1.9859    0.0000 C   0  0  0  0  0  0  0  0  0  0  0  0
   -3.8595    0.5785    0.0000 C   0  0  0  0  0  0  0  0  0  0  0  0
   -2.9001    1.7316    0.0000 C   0  0  0  0  0  0  0  0  0  0  0  0
   -2.3812    0.3242    0.0000 C   0  0  0  0  0  0  0  0  0  0  0  0
   -1.4218    1.4773    0.0000 C   0  0  0  0  0  0  0  0  0  0  0  0
    0.0565    1.2230    0.0000 C   0  0  0  0  0  0  0  0  0  0  0  0
    0.5754   -0.1844    0.0000 C   0  0  0  0  0  0  0  0  0  0  0  0
    1.6500    0.8621    0.0000 C   0  0  0  0  0  0  0  0  0  0  0  0
    3.3356    1.5565    0.0000 C   0  0  0  0  0  0  0  0  0  0  0  0
    2.1825    2.5159    0.0000 O   0  0  0  0  0  0  0  0  0  0  0  0
    4.7895    1.9255    0.0000 O   0  0  0  0  0  0  0  0  0  0  0  0
  1  2  1  0
  2  3  1  0
  2  4  1  0
  4  5  1  0
  5  6  1  0
  6  7  1  0
  8  7  1  1
  8  9  1  0
  9 10  1  6
 10 11  1  0
 11 12  1  0
 12 13  1  1
 12 14  1  0
 14 15  2  0
 15 16  1  0
 16 17  1  0
 17 18  1  0
 18 19  1  0
 18 20  1  0
 18 21  1  0
 21 22  2  0
 21 23  1  0
 23 24  1  0
 24 25  1  0
 25 26  1  1
 25 27  1  0
 27 28  1  0
 28 29  1  0
 29 30  1  0
 30 31  1  6
  8 32  1  0
 32 33  1  0
 32 34  1  0
  5  2  1  0
 34  6  1  0
 30  9  1  0
 30 12  1  0
 27 14  1  0
 25 17  1  0
M  END
>  <identifier>  (1446) 
CNP0249297.4

>  <canonical_smiles>  (1446) 
CC1(C)OC1C1C[C@@H]([C@@H]2CC[C@]3(C)C4=CCC5C(C)(C)C(=O)CC[C@]5(C)C4CC[C@@]23C)C(O)O1

>  <standard_inchi>  (1446) 
InChI=1S/C30H46O4/c1-26(2)22-9-8-20-19(28(22,5)13-12-23(26)31)11-15-29(6)18(10-14-30(20,29)7)17-16-21(33-25(17)32)24-27(3,4)34-24/h8,17-19,21-22,24-25,32H,9-16H2,1-7H3/t17-,18-,19?,21?,22?,24?,25?,28+,29-,30+/m0/s1

>  <standard_inchi_key>  (1446) 
ZWXPNDUTGNVQEU-GNDPEOOZSA-N

>  <name>  (1446) 
nan

>  <iupac_name>  (1446) 
(10~{R},13~{S},14~{S},17~{S})-17-[(3~{S})-5-(3,3-dimethyloxiran-2-yl)-2-hydroxy-tetrahydrofuran-3-yl]-4,4,10,13,14-pentamethyl-1,2,5,6,9,11,12,15,16,17-decahydrocyclopenta[a]phenanthren-3-one

>  <annotation_level>  (1446) 
4

>  <total_atom_count>  (1446) 
80

>  <heavy_atom_count>  (1446) 
34

>  <molecular_weight>  (1446) 
470.69

>  <exact_molecular_weight>  (1446) 
470.33961

>  <molecular_formula>  (1446) 
C30H46O4

>  <alogp>  (1446) 
6.06

>  <topological_polar_surface_area>  (1446) 
59.06

>  <rotatable_bond_count>  (1446) 
2

>  <hydrogen_bond_acceptors>  (1446) 
4

>  <hydrogen_bond_donors>  (1446) 
1

>  <hydrogen_bond_acceptors_lipinski>  (1446) 
4

>  <hydrogen_bond_donors_lipinski>  (1446) 
1

>  <lipinski_rule_of_five_violations>  (1446) 
1

>  <aromatic_rings_count>  (1446) 
0

>  <qed_drug_likeliness>  (1446) 
0.39

>  <formal_charge>  (1446) 
0

>  <fractioncsp3>  (1446) 
0.90

>  <number_of_minimal_rings>  (1446) 
6

>  <van_der_walls_volume>  (1446) 
nan

>  <contains_sugar>  (1446) 
False

>  <contains_ring_sugars>  (1446) 
False

>  <contains_linear_sugars>  (1446) 
False

>  <murcko_framework>  (1446) 
O1CC1C2OCC(C2)C3CCC4C5=CCC6CCCCC6C5CCC43

>  <np_likeness>  (1446) 
3.61

>  <chemical_class>  (1446) 
Steroids and steroid derivatives

>  <chemical_sub_class>  (1446) 
Oxosteroids

>  <chemical_super_class>  (1446) 
Lipids and lipid-like molecules

>  <direct_parent_classification>  (1446) 
Oxosteroids

>  <np_classifier_pathway>  (1446) 
Terpenoids

>  <np_classifier_superclass>  (1446) 
Triterpenoids

>  <np_classifier_class>  (1446) 
Apotirucallane triterpenoids

>  <np_classifier_is_glycoside>  (1446) 
True

>  <organisms>  (1446) 
Trichilia hirta

>  <collections>  (1446) 
Latin America dataset|NuBBEDB

>  <dois>  (1446) 
10.1016/0031-9422(92)90048-U

>  <synonyms>  (1446) 
melianone

>  <cas>  (1446) 
nan

$$$$

     RDKit          2D

 21 24  0  0  0  0  0  0  0  0999 V2000
   -4.7808   -1.8811    0.0000 C   0  0  0  0  0  0  0  0  0  0  0  0
   -3.4489   -1.1913    0.0000 C   0  0  0  0  0  0  0  0  0  0  0  0
   -2.1078   -1.8634    0.0000 C   0  0  0  0  0  0  0  0  0  0  0  0
   -1.0543   -0.7957    0.0000 C   0  0  0  0  0  0  0  0  0  0  0  0
   -0.2290   -2.0482    0.0000 C   0  0  0  0  0  0  0  0  0  0  0  0
    1.2684   -1.9597    0.0000 C   0  0  0  0  0  0  0  0  0  0  0  0
    1.9405   -0.6187    0.0000 C   0  0  0  0  0  0  0  0  0  0  0  0
    3.4379   -0.5303    0.0000 C   0  0  0  0  0  0  0  0  0  0  0  0
    4.8752   -0.9593    0.0000 C   0  0  0  0  0  0  0  0  0  0  0  0
    3.2650   -2.0203    0.0000 C   0  0  0  0  0  0  0  0  0  0  0  0
    4.1100    0.8107    0.0000 C   0  0  0  0  0  0  0  0  0  0  0  0
    3.2847    2.0633    0.0000 C   0  0  0  0  0  0  0  0  0  0  0  0
    1.7873    1.9748    0.0000 C   0  0  0  0  0  0  0  0  0  0  0  0
    1.1152    0.6338    0.0000 C   0  0  0  0  0  0  0  0  0  0  0  0
    0.2899    1.8864    0.0000 C   0  0  0  0  0  0  0  0  0  0  0  0
   -0.3822    0.5453    0.0000 C   0  0  0  0  0  0  0  0  0  0  0  0
   -1.2075    1.7979    0.0000 C   0  0  0  0  0  0  0  0  0  0  0  0
   -2.7049    1.7094    0.0000 C   0  0  0  0  0  0  0  0  0  0  0  0
   -3.5302    2.9620    0.0000 O   0  0  0  0  0  0  0  0  0  0  0  0
   -3.3770    0.3684    0.0000 C   0  0  0  0  0  0  0  0  0  0  0  0
   -2.5517   -0.8841    0.0000 C   0  0  0  0  0  0  0  0  0  0  0  0
  1  2  2  0
  2  3  1  0
  4  3  1  6
  4  5  1  0
  5  6  1  0
  7  6  1  1
  7  8  1  0
  8  9  1  0
  8 10  1  0
  8 11  1  0
 11 12  1  0
 12 13  1  0
 13 14  1  0
 14 15  1  1
 14 16  1  0
 16 17  2  0
 17 18  1  0
 18 19  1  6
 18 20  1  0
 20 21  1  0
 20  2  1  6
 16  4  1  0
 21  4  1  0
 14  7  1  0
M  END
>  <identifier>  (1447) 
CNP0386310.1

>  <canonical_smiles>  (1447) 
C=C1C[C@@]23CC[C@@H]4C(C)(C)CCC[C@@]4(C)C2=C[C@@H](O)[C@@H]1C3

>  <standard_inchi>  (1447) 
InChI=1S/C20H30O/c1-13-11-20-9-6-16-18(2,3)7-5-8-19(16,4)17(20)10-15(21)14(13)12-20/h10,14-16,21H,1,5-9,11-12H2,2-4H3/t14-,15-,16-,19-,20-/m1/s1

>  <standard_inchi_key>  (1447) 
LTJJRDVXZQTPDM-SQOWSMRPSA-N

>  <name>  (1447) 
nan

>  <iupac_name>  (1447) 
(1~{S},4~{R},9~{R},12~{R},13~{R})-5,5,9-trimethyl-14-methylene-tetracyclo[11.2.1.0^{1,10}.0^{4,9}]hexadec-10-en-12-ol

>  <annotation_level>  (1447) 
4

>  <total_atom_count>  (1447) 
51

>  <heavy_atom_count>  (1447) 
21

>  <molecular_weight>  (1447) 
286.46

>  <exact_molecular_weight>  (1447) 
286.22967

>  <molecular_formula>  (1447) 
C20H30O

>  <alogp>  (1447) 
4.87

>  <topological_polar_surface_area>  (1447) 
20.23

>  <rotatable_bond_count>  (1447) 
0

>  <hydrogen_bond_acceptors>  (1447) 
1

>  <hydrogen_bond_donors>  (1447) 
1

>  <hydrogen_bond_acceptors_lipinski>  (1447) 
1

>  <hydrogen_bond_donors_lipinski>  (1447) 
1

>  <lipinski_rule_of_five_violations>  (1447) 
0

>  <aromatic_rings_count>  (1447) 
0

>  <qed_drug_likeliness>  (1447) 
0.63

>  <formal_charge>  (1447) 
0

>  <fractioncsp3>  (1447) 
0.80

>  <number_of_minimal_rings>  (1447) 
4

>  <van_der_walls_volume>  (1447) 
nan

>  <contains_sugar>  (1447) 
False

>  <contains_ring_sugars>  (1447) 
False

>  <contains_linear_sugars>  (1447) 
False

>  <murcko_framework>  (1447) 
C1=C2C3CCCCC3CCC24CCC(C1)C4

>  <np_likeness>  (1447) 
3.00

>  <chemical_class>  (1447) 
Prenol lipids

>  <chemical_sub_class>  (1447) 
Diterpenoids

>  <chemical_super_class>  (1447) 
Lipids and lipid-like molecules

>  <direct_parent_classification>  (1447) 
Kaurane diterpenoids

>  <np_classifier_pathway>  (1447) 
Terpenoids

>  <np_classifier_superclass>  (1447) 
Diterpenoids

>  <np_classifier_class>  (1447) 
Kaurane and Phyllocladane diterpenoids

>  <np_classifier_is_glycoside>  (1447) 
False

>  <organisms>  (1447) 
Vellozia caput-ardeae

>  <collections>  (1447) 
Latin America dataset|NuBBEDB|Super Natural II|WikiData Natural Products

>  <dois>  (1447) 
10.1016/S0031-9422(00)84183-7

>  <synonyms>  (1447) 
12b-hydroxy-911-dehydrokaurene

>  <cas>  (1447) 
nan

$$$$

     RDKit          2D

 38 42  0  0  0  0  0  0  0  0999 V2000
   -0.6055    2.5207    0.0000 C   0  0  0  0  0  0  0  0  0  0  0  0
    0.2680    1.3013    0.0000 C   0  0  0  0  0  0  0  0  0  0  0  0
   -0.3514   -0.0649    0.0000 C   0  0  0  0  0  0  0  0  0  0  0  0
    0.5221   -1.2843    0.0000 C   0  0  0  0  0  0  0  0  0  0  0  0
    2.0149   -1.1376    0.0000 C   0  0  0  0  0  0  0  0  0  0  0  0
    2.6342    0.2286    0.0000 C   0  0  0  0  0  0  0  0  0  0  0  0
    1.7608    1.4480    0.0000 N   0  0  0  0  0  0  0  0  0  0  0  0
    2.3801    2.8142    0.0000 C   0  0  0  0  0  0  0  0  0  0  0  0
    3.8729    2.9609    0.0000 C   0  0  0  0  0  0  0  0  0  0  0  0
    4.7464    1.7415    0.0000 C   0  0  0  0  0  0  0  0  0  0  0  0
    4.1271    0.3753    0.0000 C   0  0  0  0  0  0  0  0  0  0  0  0
    5.2350   -0.6359    0.0000 N   0  0  0  0  0  0  0  0  0  0  0  0
    6.5390    0.1054    0.0000 C   0  0  0  0  0  0  0  0  0  0  0  0
    7.9625   -0.3678    0.0000 C   0  0  0  0  0  0  0  0  0  0  0  0
    9.0839    0.6284    0.0000 C   0  0  0  0  0  0  0  0  0  0  0  0
    8.7820    2.0977    0.0000 C   0  0  0  0  0  0  0  0  0  0  0  0
    7.3585    2.5708    0.0000 C   0  0  0  0  0  0  0  0  0  0  0  0
    6.2371    1.5747    0.0000 C   0  0  0  0  0  0  0  0  0  0  0  0
   -0.0972   -2.6505    0.0000 C   0  0  0  0  0  0  0  0  0  0  0  0
    0.7763   -3.8699    0.0000 C   0  0  0  0  0  0  0  0  0  0  0  0
    2.2691   -3.7232    0.0000 O   0  0  0  0  0  0  0  0  0  0  0  0
    0.1570   -5.2361    0.0000 O   0  0  0  0  0  0  0  0  0  0  0  0
    1.0304   -6.4556    0.0000 C   0  0  0  0  0  0  0  0  0  0  0  0
   -1.5900   -2.7972    0.0000 C   0  0  0  0  0  0  0  0  0  0  0  0
   -2.4635   -1.5778    0.0000 O   0  0  0  0  0  0  0  0  0  0  0  0
   -1.8442   -0.2116    0.0000 C   0  0  0  0  0  0  0  0  0  0  0  0
   -2.7176    1.0078    0.0000 O   0  0  0  0  0  0  0  0  0  0  0  0
   -4.2105    0.8611    0.0000 C   0  0  0  0  0  0  0  0  0  0  0  0
   -5.0839    2.0805    0.0000 O   0  0  0  0  0  0  0  0  0  0  0  0
   -6.5767    1.9338    0.0000 C   0  0  0  0  0  0  0  0  0  0  0  0
   -7.4502    3.1532    0.0000 C   0  0  0  0  0  0  0  0  0  0  0  0
   -6.8309    4.5194    0.0000 O   0  0  0  0  0  0  0  0  0  0  0  0
   -7.1961    0.5676    0.0000 C   0  0  0  0  0  0  0  0  0  0  0  0
   -8.6889    0.4209    0.0000 O   0  0  0  0  0  0  0  0  0  0  0  0
   -6.3226   -0.6518    0.0000 C   0  0  0  0  0  0  0  0  0  0  0  0
   -6.9419   -2.0180    0.0000 O   0  0  0  0  0  0  0  0  0  0  0  0
   -4.8298   -0.5051    0.0000 C   0  0  0  0  0  0  0  0  0  0  0  0
   -3.9563   -1.7245    0.0000 O   0  0  0  0  0  0  0  0  0  0  0  0
  1  2  2  0
  2  3  1  0
  3  4  1  0
  4  5  1  0
  5  6  1  0
  6  7  2  0
  7  8  1  0
  8  9  1  0
  9 10  1  0
 10 11  2  0
 11 12  1  0
 12 13  1  0
 13 14  2  0
 14 15  1  0
 15 16  2  0
 16 17  1  0
 17 18  2  0
  4 19  1  0
 19 20  1  0
 20 21  2  0
 20 22  1  0
 22 23  1  0
 19 24  2  0
 24 25  1  0
 25 26  1  0
 26 27  1  1
 28 27  1  1
 28 29  1  0
 29 30  1  0
 30 31  1  1
 31 32  1  0
 30 33  1  0
 33 34  1  6
 33 35  1  0
 35 36  1  1
 35 37  1  0
 37 38  1  6
 26  3  1  0
 37 28  1  0
 11  6  1  0
 18 13  1  0
 18 10  1  0
M  END
>  <identifier>  (1448) 
CNP0080450.1

>  <canonical_smiles>  (1448) 
C=CC1C(CC2=NCCC3=C2NC2=CC=CC=C32)C(C(=O)OC)=CO[C@H]1O[C@@H]1O[C@H](CO)[C@@H](O)[C@H](O)[C@H]1O

>  <standard_inchi>  (1448) 
InChI=1S/C27H32N2O9/c1-3-13-16(10-19-21-15(8-9-28-19)14-6-4-5-7-18(14)29-21)17(25(34)35-2)12-36-26(13)38-27-24(33)23(32)22(31)20(11-30)37-27/h3-7,12-13,16,20,22-24,26-27,29-33H,1,8-11H2,2H3/t13?,16?,20-,22-,23+,24-,26+,27+/m1/s1

>  <standard_inchi_key>  (1448) 
KWPBQSXTICIPDO-JXHODNCLSA-N

>  <name>  (1448) 
3,4-dehydro-strictosidine

>  <iupac_name>  (1448) 
methyl (2~{S})-4-(4,9-dihydro-3~{H}-pyrido[3,4-b]indol-1-ylmethyl)-2-[(2~{S},3~{R},4~{S},5~{S},6~{R})-3,4,5-trihydroxy-6-(hydroxymethyl)tetrahydropyran-2-yl]oxy-3-vinyl-3,4-dihydro-2~{H}-pyran-5-carboxylate

>  <annotation_level>  (1448) 
5

>  <total_atom_count>  (1448) 
70

>  <heavy_atom_count>  (1448) 
38

>  <molecular_weight>  (1448) 
528.56

>  <exact_molecular_weight>  (1448) 
528.21078

>  <molecular_formula>  (1448) 
C27H32N2O9

>  <alogp>  (1448) 
0.55

>  <topological_polar_surface_area>  (1448) 
163.06

>  <rotatable_bond_count>  (1448) 
7

>  <hydrogen_bond_acceptors>  (1448) 
10

>  <hydrogen_bond_donors>  (1448) 
5

>  <hydrogen_bond_acceptors_lipinski>  (1448) 
10

>  <hydrogen_bond_donors_lipinski>  (1448) 
5

>  <lipinski_rule_of_five_violations>  (1448) 
1

>  <aromatic_rings_count>  (1448) 
2

>  <qed_drug_likeliness>  (1448) 
0.26

>  <formal_charge>  (1448) 
0

>  <fractioncsp3>  (1448) 
0.48

>  <number_of_minimal_rings>  (1448) 
5

>  <van_der_walls_volume>  (1448) 
nan

>  <contains_sugar>  (1448) 
True

>  <contains_ring_sugars>  (1448) 
True

>  <contains_linear_sugars>  (1448) 
False

>  <murcko_framework>  (1448) 
N1=C(c2[nH]c3ccccc3c2CC1)CC4C=COC(OC5OCCCC5)C4

>  <np_likeness>  (1448) 
2.15

>  <chemical_class>  (1448) 
Harmala alkaloids

>  <chemical_sub_class>  (1448) 
Harmala alkaloids

>  <chemical_super_class>  (1448) 
Alkaloids and derivatives

>  <direct_parent_classification>  (1448) 
Harmala alkaloids

>  <np_classifier_pathway>  (1448) 
Alkaloids

>  <np_classifier_superclass>  (1448) 
Tryptophan alkaloids

>  <np_classifier_class>  (1448) 
Carboline alkaloids

>  <np_classifier_is_glycoside>  (1448) 
True

>  <organisms>  (1448) 
Chimarrhis turbinata

>  <collections>  (1448) 
Latin America dataset|NPASS|NuBBEDB|WikiData Natural Products

>  <dois>  (1448) 
10.1021/np049863m|10.1590/S0102-695X2008000100007

>  <synonyms>  (1448) 
34-dehydro-strictosidine|CHEMBL487079

>  <cas>  (1448) 
nan

$$$$

     RDKit          2D

 37 41  0  0  0  0  0  0  0  0999 V2000
    7.4728   -2.5409    0.0000 C   0  0  0  0  0  0  0  0  0  0  0  0
    6.5837   -1.3328    0.0000 O   0  0  0  0  0  0  0  0  0  0  0  0
    5.0929   -1.4987    0.0000 C   0  0  0  0  0  0  0  0  0  0  0  0
    4.4912   -2.8727    0.0000 O   0  0  0  0  0  0  0  0  0  0  0  0
    4.2038   -0.2906    0.0000 C   0  0  0  0  0  0  0  0  0  0  0  0
    5.6946   -0.1247    0.0000 C   0  0  0  0  0  0  0  0  0  0  0  0
    6.2964    1.2493    0.0000 C   0  0  0  0  0  0  0  0  0  0  0  0
    5.4073    2.4575    0.0000 C   0  0  0  0  0  0  0  0  0  0  0  0
    6.0090    3.8315    0.0000 C   0  0  0  0  0  0  0  0  0  0  0  0
    3.9165    2.2916    0.0000 C   0  0  0  0  0  0  0  0  0  0  0  0
    3.0274    3.4997    0.0000 C   0  0  0  0  0  0  0  0  0  0  0  0
    3.3148    0.9175    0.0000 C   0  0  0  0  0  0  0  0  0  0  0  0
    1.8240    0.7517    0.0000 C   0  0  0  0  0  0  0  0  0  0  0  0
    0.9349    1.9598    0.0000 C   0  0  0  0  0  0  0  0  0  0  0  0
   -0.5559    1.7939    0.0000 C   0  0  0  0  0  0  0  0  0  0  0  0
   -1.1576    0.4199    0.0000 C   0  0  0  0  0  0  0  0  0  0  0  0
   -2.6484    0.2540    0.0000 C   0  0  0  0  0  0  0  0  0  0  0  0
   -2.0467    1.6280    0.0000 C   0  0  0  0  0  0  0  0  0  0  0  0
   -3.5375    1.4621    0.0000 C   0  0  0  0  0  0  0  0  0  0  0  0
   -5.0283    1.2962    0.0000 C   0  0  0  0  0  0  0  0  0  0  0  0
   -5.6300   -0.0778    0.0000 C   0  0  0  0  0  0  0  0  0  0  0  0
   -7.1208   -0.2437    0.0000 O   0  0  0  0  0  0  0  0  0  0  0  0
   -8.0099    0.9644    0.0000 C   0  0  0  0  0  0  0  0  0  0  0  0
   -9.5007    0.7985    0.0000 C   0  0  0  0  0  0  0  0  0  0  0  0
   -7.4081    2.3384    0.0000 O   0  0  0  0  0  0  0  0  0  0  0  0
   -4.7409   -1.2859    0.0000 C   0  0  0  0  0  0  0  0  0  0  0  0
   -4.3187   -2.7253    0.0000 C   0  0  0  0  0  0  0  0  0  0  0  0
   -6.0851   -1.9517    0.0000 C   0  0  0  0  0  0  0  0  0  0  0  0
   -3.2501   -1.1200    0.0000 C   0  0  0  0  0  0  0  0  0  0  0  0
   -2.3611   -2.3282    0.0000 C   0  0  0  0  0  0  0  0  0  0  0  0
   -0.8703   -2.1623    0.0000 C   0  0  0  0  0  0  0  0  0  0  0  0
   -0.2685   -0.7883    0.0000 C   0  0  0  0  0  0  0  0  0  0  0  0
    0.6205   -1.9964    0.0000 C   0  0  0  0  0  0  0  0  0  0  0  0
    1.2222   -0.6224    0.0000 C   0  0  0  0  0  0  0  0  0  0  0  0
    2.7130   -0.4565    0.0000 C   0  0  0  0  0  0  0  0  0  0  0  0
    2.1113   -1.8305    0.0000 C   0  0  0  0  0  0  0  0  0  0  0  0
    3.6021   -1.6646    0.0000 C   0  0  0  0  0  0  0  0  0  0  0  0
  1  2  1  0
  2  3  1  0
  3  4  2  0
  5  3  1  1
  5  6  1  0
  6  7  1  0
  7  8  1  0
  8  9  1  6
  8 10  1  0
 10 11  1  1
 10 12  1  0
 12 13  1  6
 13 14  2  0
 14 15  1  0
 16 15  1  1
 16 17  1  0
 17 18  1  1
 17 19  1  0
 19 20  1  0
 20 21  1  0
 21 22  1  0
 22 23  1  0
 23 24  1  0
 23 25  2  0
 21 26  1  0
 26 27  1  0
 26 28  1  0
 26 29  1  0
 29 30  1  1
 30 31  1  0
 31 32  1  0
 32 33  1  1
 32 34  1  0
 34 35  1  6
 34 36  1  0
 36 37  1  0
 12  5  1  0
 34 13  1  0
 37  5  1  0
 32 16  1  0
 29 17  1  0
M  END
>  <identifier>  (1449) 
CNP0384634.1

>  <canonical_smiles>  (1449) 
COC(=O)[C@]12CC[C@@H](C)[C@H](C)[C@H]1C1=CC[C@@H]3[C@@]4(C)CCC(OC(C)=O)C(C)(C)[C@@H]4CC[C@@]3(C)[C@]1(C)CC2

>  <standard_inchi>  (1449) 
InChI=1S/C33H52O4/c1-20-12-17-33(28(35)36-9)19-18-31(7)23(27(33)21(20)2)10-11-25-30(6)15-14-26(37-22(3)34)29(4,5)24(30)13-16-32(25,31)8/h10,20-21,24-27H,11-19H2,1-9H3/t20-,21+,24+,25-,26?,27+,30+,31-,32-,33+/m1/s1

>  <standard_inchi_key>  (1449) 
HLBZSQOUBVLLLL-CNPFJDEYSA-N

>  <name>  (1449) 
nan

>  <iupac_name>  (1449) 
methyl (1~{S},2~{R},4~{a}~{S},6~{a}~{R},6~{a}~{S},6~{b}~{R},8~{a}~{R},12~{a}~{R},14~{b}~{S})-10-acetoxy-1,2,6~{a},6~{b},9,9,12~{a}-heptamethyl-2,3,4,5,6,6~{a},7,8,8~{a},10,11,12,13,14~{b}-tetradecahydro-1~{H}-picene-4~{a}-carboxylate

>  <annotation_level>  (1449) 
4

>  <total_atom_count>  (1449) 
89

>  <heavy_atom_count>  (1449) 
37

>  <molecular_weight>  (1449) 
512.78

>  <exact_molecular_weight>  (1449) 
512.38656

>  <molecular_formula>  (1449) 
C33H52O4

>  <alogp>  (1449) 
7.75

>  <topological_polar_surface_area>  (1449) 
52.60

>  <rotatable_bond_count>  (1449) 
2

>  <hydrogen_bond_acceptors>  (1449) 
4

>  <hydrogen_bond_donors>  (1449) 
0

>  <hydrogen_bond_acceptors_lipinski>  (1449) 
4

>  <hydrogen_bond_donors_lipinski>  (1449) 
0

>  <lipinski_rule_of_five_violations>  (1449) 
2

>  <aromatic_rings_count>  (1449) 
0

>  <qed_drug_likeliness>  (1449) 
0.28

>  <formal_charge>  (1449) 
0

>  <fractioncsp3>  (1449) 
0.88

>  <number_of_minimal_rings>  (1449) 
5

>  <van_der_walls_volume>  (1449) 
nan

>  <contains_sugar>  (1449) 
False

>  <contains_ring_sugars>  (1449) 
False

>  <contains_linear_sugars>  (1449) 
False

>  <murcko_framework>  (1449) 
C1=C2C3CCCCC3CCC2C4CCC5CCCCC5C4C1

>  <np_likeness>  (1449) 
3.03

>  <chemical_class>  (1449) 
Prenol lipids

>  <chemical_sub_class>  (1449) 
Triterpenoids

>  <chemical_super_class>  (1449) 
Lipids and lipid-like molecules

>  <direct_parent_classification>  (1449) 
Taraxastane, ursane, and bauerane triterpenoids

>  <np_classifier_pathway>  (1449) 
Terpenoids

>  <np_classifier_superclass>  (1449) 
Triterpenoids

>  <np_classifier_class>  (1449) 
Ursane and Taraxastane triterpenoids

>  <np_classifier_is_glycoside>  (1449) 
False

>  <organisms>  (1449) 
Myrcia guianensis|Myrcia lingua

>  <collections>  (1449) 
Latin America dataset|NuBBEDB|WikiData Natural Products

>  <dois>  (1449) 
10.1002/CBDV.201400065|10.1002/cbdv.201400065

>  <synonyms>  (1449) 
3-O-acetylursolic acid methyl ester

>  <cas>  (1449) 
nan

$$$$

     RDKit          2D

 23 25  0  0  0  0  0  0  0  0999 V2000
   -4.1429    2.4433    0.0000 C   0  0  0  0  0  0  0  0  0  0  0  0
   -4.0335    0.9473    0.0000 O   0  0  0  0  0  0  0  0  0  0  0  0
   -2.6832    0.2941    0.0000 C   0  0  0  0  0  0  0  0  0  0  0  0
   -2.5737   -1.2019    0.0000 C   0  0  0  0  0  0  0  0  0  0  0  0
   -3.8146   -2.0447    0.0000 O   0  0  0  0  0  0  0  0  0  0  0  0
   -5.1649   -1.3915    0.0000 C   0  0  0  0  0  0  0  0  0  0  0  0
   -1.2234   -1.8551    0.0000 C   0  0  0  0  0  0  0  0  0  0  0  0
   -1.1140   -3.3511    0.0000 O   0  0  0  0  0  0  0  0  0  0  0  0
    0.0174   -1.0123    0.0000 C   0  0  0  0  0  0  0  0  0  0  0  0
    1.3677   -1.6655    0.0000 C   0  0  0  0  0  0  0  0  0  0  0  0
    1.4772   -3.1615    0.0000 O   0  0  0  0  0  0  0  0  0  0  0  0
    2.6086   -0.8227    0.0000 C   0  0  0  0  0  0  0  0  0  0  0  0
    3.9589   -1.4759    0.0000 C   0  0  0  0  0  0  0  0  0  0  0  0
    5.1997   -0.6331    0.0000 C   0  0  0  0  0  0  0  0  0  0  0  0
    5.0903    0.8629    0.0000 C   0  0  0  0  0  0  0  0  0  0  0  0
    3.7400    1.5161    0.0000 C   0  0  0  0  0  0  0  0  0  0  0  0
    3.6305    3.0121    0.0000 O   0  0  0  0  0  0  0  0  0  0  0  0
    2.4991    0.6733    0.0000 C   0  0  0  0  0  0  0  0  0  0  0  0
    1.1488    1.3265    0.0000 N   0  0  0  0  0  0  0  0  0  0  0  0
   -0.0920    0.4837    0.0000 C   0  0  0  0  0  0  0  0  0  0  0  0
   -1.4423    1.1369    0.0000 C   0  0  0  0  0  0  0  0  0  0  0  0
   -1.5518    2.6329    0.0000 O   0  0  0  0  0  0  0  0  0  0  0  0
   -2.9021    3.2861    0.0000 C   0  0  0  0  0  0  0  0  0  0  0  0
  1  2  1  0
  2  3  1  0
  3  4  2  0
  4  5  1  0
  5  6  1  0
  4  7  1  0
  7  8  1  0
  7  9  2  0
  9 10  1  0
 10 11  2  0
 10 12  1  0
 12 13  2  0
 13 14  1  0
 14 15  2  0
 15 16  1  0
 16 17  1  0
 16 18  2  0
 18 19  1  0
 19 20  1  0
 20 21  2  0
 21 22  1  0
 22 23  1  0
 21  3  1  0
 20  9  1  0
 18 12  1  0
M  END
>  <identifier>  (1450) 
CNP0354823.0

>  <canonical_smiles>  (1450) 
COC1=C(OC)C(O)=C2C(=O)C3=CC=CC(O)=C3NC2=C1OC

>  <standard_inchi>  (1450) 
InChI=1S/C16H15NO6/c1-21-14-11-9(13(20)15(22-2)16(14)23-3)12(19)7-5-4-6-8(18)10(7)17-11/h4-6,18,20H,1-3H3,(H,17,19)

>  <standard_inchi_key>  (1450) 
LYLWPSZBLUXEOD-UHFFFAOYSA-N

>  <name>  (1450) 
nan

>  <iupac_name>  (1450) 
1,5-dihydroxy-2,3,4-trimethoxy-10~{H}-acridin-9-one

>  <annotation_level>  (1450) 
4

>  <total_atom_count>  (1450) 
38

>  <heavy_atom_count>  (1450) 
23

>  <molecular_weight>  (1450) 
317.3

>  <exact_molecular_weight>  (1450) 
317.08994

>  <molecular_formula>  (1450) 
C16H15NO6

>  <alogp>  (1450) 
2.12

>  <topological_polar_surface_area>  (1450) 
101.01

>  <rotatable_bond_count>  (1450) 
3

>  <hydrogen_bond_acceptors>  (1450) 
6

>  <hydrogen_bond_donors>  (1450) 
3

>  <hydrogen_bond_acceptors_lipinski>  (1450) 
6

>  <hydrogen_bond_donors_lipinski>  (1450) 
3

>  <lipinski_rule_of_five_violations>  (1450) 
0

>  <aromatic_rings_count>  (1450) 
3

>  <qed_drug_likeliness>  (1450) 
0.64

>  <formal_charge>  (1450) 
0

>  <fractioncsp3>  (1450) 
0.19

>  <number_of_minimal_rings>  (1450) 
3

>  <van_der_walls_volume>  (1450) 
nan

>  <contains_sugar>  (1450) 
False

>  <contains_ring_sugars>  (1450) 
False

>  <contains_linear_sugars>  (1450) 
False

>  <murcko_framework>  (1450) 
c1ccc2c(c1)Nc3ccccc3C2

>  <np_likeness>  (1450) 
1.22

>  <chemical_class>  (1450) 
Quinolines and derivatives

>  <chemical_sub_class>  (1450) 
Benzoquinolines

>  <chemical_super_class>  (1450) 
Organoheterocyclic compounds

>  <direct_parent_classification>  (1450) 
Acridones

>  <np_classifier_pathway>  (1450) 
Alkaloids

>  <np_classifier_superclass>  (1450) 
Anthranilic acid alkaloids

>  <np_classifier_class>  (1450) 
Acridone alkaloids

>  <np_classifier_is_glycoside>  (1450) 
False

>  <organisms>  (1450) 
Swinglea glutinosa

>  <collections>  (1450) 
Latin America dataset|NuBBEDB|WikiData Natural Products

>  <dois>  (1450) 
10.1080/14786410600907002

>  <synonyms>  (1450) 
citbrasine

>  <cas>  (1450) 
nan

$$$$

     RDKit          2D

 23 25  0  0  0  0  0  0  0  0999 V2000
   -4.9795   -1.7083    0.0000 C   0  0  0  0  0  0  0  0  0  0  0  0
   -3.4805   -1.6543    0.0000 C   0  0  0  0  0  0  0  0  0  0  0  0
   -2.6843   -2.9256    0.0000 C   0  0  0  0  0  0  0  0  0  0  0  0
   -2.7777   -0.3292    0.0000 C   0  0  0  0  0  0  0  0  0  0  0  0
   -3.5739    0.9421    0.0000 C   0  0  0  0  0  0  0  0  0  0  0  0
   -5.0729    0.8881    0.0000 O   0  0  0  0  0  0  0  0  0  0  0  0
   -2.8711    2.2672    0.0000 C   0  0  0  0  0  0  0  0  0  0  0  0
   -1.3721    2.3211    0.0000 C   0  0  0  0  0  0  0  0  0  0  0  0
   -0.5758    1.0499    0.0000 C   0  0  0  0  0  0  0  0  0  0  0  0
   -1.2787   -0.2753    0.0000 C   0  0  0  0  0  0  0  0  0  0  0  0
   -0.4824   -1.5465    0.0000 C   0  0  0  0  0  0  0  0  0  0  0  0
    1.0166   -1.4926    0.0000 C   0  0  0  0  0  0  0  0  0  0  0  0
    1.7194   -0.1674    0.0000 C   0  0  0  0  0  0  0  0  0  0  0  0
    3.2184   -0.1135    0.0000 C   0  0  0  0  0  0  0  0  0  0  0  0
    4.6455   -0.5755    0.0000 C   0  0  0  0  0  0  0  0  0  0  0  0
    3.0112   -1.5991    0.0000 C   0  0  0  0  0  0  0  0  0  0  0  0
    1.6211   -2.1625    0.0000 O   0  0  0  0  0  0  0  0  0  0  0  0
    4.1942   -2.5213    0.0000 O   0  0  0  0  0  0  0  0  0  0  0  0
    3.9212    1.2117    0.0000 C   0  0  0  0  0  0  0  0  0  0  0  0
    3.1250    2.4829    0.0000 C   0  0  0  0  0  0  0  0  0  0  0  0
    1.6260    2.4290    0.0000 C   0  0  0  0  0  0  0  0  0  0  0  0
    0.9232    1.1038    0.0000 C   0  0  0  0  0  0  0  0  0  0  0  0
    0.1270    2.3751    0.0000 C   0  0  0  0  0  0  0  0  0  0  0  0
  1  2  1  0
  2  3  1  0
  2  4  1  0
  4  5  2  0
  5  6  1  0
  5  7  1  0
  7  8  2  0
  8  9  1  0
  9 10  2  0
 10 11  1  0
 11 12  1  0
 13 12  1  6
 13 14  1  0
 14 15  1  1
 14 16  1  0
 16 17  2  0
 16 18  1  0
 14 19  1  0
 19 20  1  0
 20 21  1  0
 21 22  1  0
 22 23  1  6
 10  4  1  0
 22 13  1  0
 22  9  1  0
M  END
>  <identifier>  (1451) 
CNP0124976.1

>  <canonical_smiles>  (1451) 
CC(C)C1=C(O)C=CC2=C1CC[C@H]1[C@@](C)(C(=O)O)CCC[C@]21C

>  <standard_inchi>  (1451) 
InChI=1S/C20H28O3/c1-12(2)17-13-6-9-16-19(3,14(13)7-8-15(17)21)10-5-11-20(16,4)18(22)23/h7-8,12,16,21H,5-6,9-11H2,1-4H3,(H,22,23)/t16-,19-,20+/m1/s1

>  <standard_inchi_key>  (1451) 
ODFSGGBGOKCJFA-AHRSYUTCSA-N

>  <name>  (1451) 
4beta-Carboxy-19-nortotarol

>  <iupac_name>  (1451) 
(1~{S},4~{a}~{S},10~{a}~{R})-7-hydroxy-8-isopropyl-1,4~{a}-dimethyl-2,3,4,9,10,10~{a}-hexahydrophenanthrene-1-carboxylic acid

>  <annotation_level>  (1451) 
5

>  <total_atom_count>  (1451) 
51

>  <heavy_atom_count>  (1451) 
23

>  <molecular_weight>  (1451) 
316.44

>  <exact_molecular_weight>  (1451) 
316.20384

>  <molecular_formula>  (1451) 
C20H28O3

>  <alogp>  (1451) 
4.61

>  <topological_polar_surface_area>  (1451) 
57.53

>  <rotatable_bond_count>  (1451) 
2

>  <hydrogen_bond_acceptors>  (1451) 
2

>  <hydrogen_bond_donors>  (1451) 
2

>  <hydrogen_bond_acceptors_lipinski>  (1451) 
2

>  <hydrogen_bond_donors_lipinski>  (1451) 
2

>  <lipinski_rule_of_five_violations>  (1451) 
0

>  <aromatic_rings_count>  (1451) 
1

>  <qed_drug_likeliness>  (1451) 
0.84

>  <formal_charge>  (1451) 
0

>  <fractioncsp3>  (1451) 
0.65

>  <number_of_minimal_rings>  (1451) 
3

>  <van_der_walls_volume>  (1451) 
308.99

>  <contains_sugar>  (1451) 
False

>  <contains_ring_sugars>  (1451) 
False

>  <contains_linear_sugars>  (1451) 
False

>  <murcko_framework>  (1451) 
c1ccc2c(c1)CCC3CCCCC23

>  <np_likeness>  (1451) 
2.34

>  <chemical_class>  (1451) 
Prenol lipids

>  <chemical_sub_class>  (1451) 
Diterpenoids

>  <chemical_super_class>  (1451) 
Lipids and lipid-like molecules

>  <direct_parent_classification>  (1451) 
Diterpenoids

>  <np_classifier_pathway>  (1451) 
Terpenoids

>  <np_classifier_superclass>  (1451) 
Diterpenoids

>  <np_classifier_class>  (1451) 
Podocarpane diterpenoids

>  <np_classifier_is_glycoside>  (1451) 
False

>  <organisms>  (1451) 
Afrocarpus gracilior|Nageia nagi|Podocarpus affinis|Podocarpus lambereis|Podocarpus macrophyllus|Podocarpus macrophyllus D.DON|Podocarpus neriifolius

>  <collections>  (1451) 
Australian natural products|KNApSaCK|Latin America dataset|NuBBEDB|Super Natural II|TIPdb (database of Taiwan indigenous plants)|WikiData Natural Products

>  <dois>  (1451) 
10.1016/0031-9422(75)85047-3|10.1016/0031-9422(83)80213-1|10.1016/0031-9422(91)85049-6|10.1016/S0031-9422(00)80328-3|10.1248/CPB.56.1691|10.3987/COM-03-9970

>  <synonyms>  (1451) 
(1S,4AS,10AR)-7-HYDROXY-8-ISOPROPYL-1,4A-DIMETHYL-2,3,4,9,10,10A-HEXAHYDROPHENANTHRENE-1-CARBOXYLIC ACID|(1S,4aS,10aR)-7-hydroxy-1,4a-dimethyl-8-propan-2-yl-2,3,4,9,10,10a-hexahydrophenanthrene-1-carboxylic acid|4\u221a\u00e9\u00ac\u2264-Carboxynortotarol|4_-carboxy-19-nortotarol|4beta-Carboxy-19-nortotarol|55102-39-1|AKOS040761158|CHEMBL517672|FS-8722

>  <cas>  (1451) 
55102-39-1

$$$$

     RDKit          2D

 39 44  0  0  0  0  0  0  0  0999 V2000
    2.0284   -3.8841    0.0000 C   0  0  0  0  0  0  0  0  0  0  0  0
    0.7730   -3.0632    0.0000 C   0  0  0  0  0  0  0  0  0  0  0  0
   -0.5656   -3.7400    0.0000 O   0  0  0  0  0  0  0  0  0  0  0  0
    0.8561   -1.5655    0.0000 O   0  0  0  0  0  0  0  0  0  0  0  0
   -0.3993   -0.7446    0.0000 C   0  0  0  0  0  0  0  0  0  0  0  0
   -1.5406   -1.7180    0.0000 C   0  0  0  0  0  0  0  0  0  0  0  0
   -2.1091   -3.1061    0.0000 O   0  0  0  0  0  0  0  0  0  0  0  0
   -3.0270   -1.9197    0.0000 C   0  0  0  0  0  0  0  0  0  0  0  0
   -4.3865   -1.2859    0.0000 C   0  0  0  0  0  0  0  0  0  0  0  0
   -5.8470   -1.6281    0.0000 C   0  0  0  0  0  0  0  0  0  0  0  0
   -4.5408   -2.7779    0.0000 O   0  0  0  0  0  0  0  0  0  0  0  0
   -5.1875   -0.0177    0.0000 C   0  0  0  0  0  0  0  0  0  0  0  0
   -6.6300   -0.4289    0.0000 O   0  0  0  0  0  0  0  0  0  0  0  0
   -5.1757    1.4823    0.0000 C   0  0  0  0  0  0  0  0  0  0  0  0
   -6.6116    1.9162    0.0000 C   0  0  0  0  0  0  0  0  0  0  0  0
   -4.3548    2.7377    0.0000 C   0  0  0  0  0  0  0  0  0  0  0  0
   -2.9855    3.3501    0.0000 C   0  0  0  0  0  0  0  0  0  0  0  0
   -1.5025    3.1249    0.0000 C   0  0  0  0  0  0  0  0  0  0  0  0
   -0.3767    2.1338    0.0000 C   0  0  0  0  0  0  0  0  0  0  0  0
    0.6670    3.2112    0.0000 C   0  0  0  0  0  0  0  0  0  0  0  0
    0.2557    4.6537    0.0000 O   0  0  0  0  0  0  0  0  0  0  0  0
    2.1219    2.8461    0.0000 C   0  0  0  0  0  0  0  0  0  0  0  0
    2.4870    4.3010    0.0000 C   0  0  0  0  0  0  0  0  0  0  0  0
    3.5767    2.4810    0.0000 O   0  0  0  0  0  0  0  0  0  0  0  0
    2.5331    1.4036    0.0000 C   0  0  0  0  0  0  0  0  0  0  0  0
    3.7013    0.7269    0.0000 C   0  0  0  0  0  0  0  0  0  0  0  0
    1.4895    0.3261    0.0000 C   0  0  0  0  0  0  0  0  0  0  0  0
    1.5918   -1.1704    0.0000 C   0  0  0  0  0  0  0  0  0  0  0  0
    2.8627   -1.9672    0.0000 C   0  0  0  0  0  0  0  0  0  0  0  0
    4.1882   -1.2650    0.0000 C   0  0  0  0  0  0  0  0  0  0  0  0
    5.4591   -2.0618    0.0000 C   0  0  0  0  0  0  0  0  0  0  0  0
    6.7846   -1.3596    0.0000 C   0  0  0  0  0  0  0  0  0  0  0  0
    6.8392    0.1394    0.0000 C   0  0  0  0  0  0  0  0  0  0  0  0
    5.5683    0.9362    0.0000 C   0  0  0  0  0  0  0  0  0  0  0  0
    4.2428    0.2340    0.0000 C   0  0  0  0  0  0  0  0  0  0  0  0
    0.2002   -1.7301    0.0000 N   0  0  0  0  0  0  0  0  0  0  0  0
   -0.7622   -0.5796    0.0000 C   0  0  0  0  0  0  0  0  0  0  0  0
   -2.2587   -0.6820    0.0000 O   0  0  0  0  0  0  0  0  0  0  0  0
    0.0346    0.6912    0.0000 C   0  0  0  0  0  0  0  0  0  0  0  0
  1  2  1  0
  2  3  2  0
  2  4  1  0
  5  4  1  6
  5  6  1  0
  6  7  1  6
  8  7  1  1
  8  9  1  0
  9 10  1  6
  9 11  1  0
  9 12  1  0
 12 13  2  0
 12 14  1  0
 14 15  1  1
 14 16  1  0
 16 17  1  0
 17 18  2  0
 19 18  1  1
 19 20  1  0
 20 21  1  6
 20 22  1  0
 22 23  1  1
 22 24  1  0
 24 25  1  0
 25 26  1  1
 25 27  1  0
 27 28  1  1
 28 29  1  6
 29 30  1  0
 30 31  2  0
 31 32  1  0
 32 33  2  0
 33 34  1  0
 34 35  2  0
 28 36  1  0
 36 37  1  0
 37 38  2  0
 39 37  1  1
 39  5  1  0
  8  6  1  0
 39 19  1  0
 25 22  1  0
 39 27  1  0
 35 30  1  0
M  END
>  <identifier>  (1452) 
CNP0168556.3

>  <canonical_smiles>  (1452) 
CC(=O)O[C@@H]1[C@@H]2O[C@H]2[C@@](C)(O)C(=O)[C@@H](C)C/C=C\[C@H]2[C@H](O)[C@]3(C)O[C@]3(C)[C@H]3[C@H](CC4=CC=CC=C4)NC(=O)[C@@]123

>  <standard_inchi>  (1452) 
InChI=1S/C30H37NO8/c1-15-10-9-13-18-23(34)29(5)28(4,39-29)21-19(14-17-11-7-6-8-12-17)31-26(35)30(18,21)25(37-16(2)32)20-24(38-20)27(3,36)22(15)33/h6-9,11-13,15,18-21,23-25,34,36H,10,14H2,1-5H3,(H,31,35)/b13-9-/t15-,18-,19-,20+,21+,23-,24+,25+,27-,28+,29-,30-/m0/s1

>  <standard_inchi_key>  (1452) 
RGIWEJOMKQEMPD-ZKTJZGRJSA-N

>  <name>  (1452) 
nan

>  <iupac_name>  (1452) 
[(1~{S},2~{S},3~{S},5~{R},6~{R},8~{S},10~{Z},12~{R},13~{S},14~{S},16~{R},17~{R},18~{S})-18-benzyl-6,13-dihydroxy-6,8,14,16-tetramethyl-7,20-dioxo-4,15-dioxa-19-azapentacyclo[10.8.0.0^{1,17}.0^{3,5}.0^{14,16}]icos-10-en-2-yl] acetate

>  <annotation_level>  (1452) 
4

>  <total_atom_count>  (1452) 
76

>  <heavy_atom_count>  (1452) 
39

>  <molecular_weight>  (1452) 
539.63

>  <exact_molecular_weight>  (1452) 
539.25192

>  <molecular_formula>  (1452) 
C30H37NO8

>  <alogp>  (1452) 
1.48

>  <topological_polar_surface_area>  (1452) 
137.99

>  <rotatable_bond_count>  (1452) 
3

>  <hydrogen_bond_acceptors>  (1452) 
8

>  <hydrogen_bond_donors>  (1452) 
3

>  <hydrogen_bond_acceptors_lipinski>  (1452) 
8

>  <hydrogen_bond_donors_lipinski>  (1452) 
3

>  <lipinski_rule_of_five_violations>  (1452) 
1

>  <aromatic_rings_count>  (1452) 
1

>  <qed_drug_likeliness>  (1452) 
0.30

>  <formal_charge>  (1452) 
0

>  <fractioncsp3>  (1452) 
0.63

>  <number_of_minimal_rings>  (1452) 
6

>  <van_der_walls_volume>  (1452) 
nan

>  <contains_sugar>  (1452) 
False

>  <contains_ring_sugars>  (1452) 
False

>  <contains_linear_sugars>  (1452) 
False

>  <murcko_framework>  (1452) 
O1C2CCCCC=CC3CC4OC4C5C(NCC35CC12)Cc6ccccc6

>  <np_likeness>  (1452) 
2.34

>  <chemical_class>  (1452) 
Isoindoles and derivatives

>  <chemical_sub_class>  (1452) 
Isoindolines

>  <chemical_super_class>  (1452) 
Organoheterocyclic compounds

>  <direct_parent_classification>  (1452) 
Isoindolones

>  <np_classifier_pathway>  (1452) 
Alkaloids

>  <np_classifier_superclass>  (1452) 
Pseudoalkaloids

>  <np_classifier_class>  (1452) 
Cytochalasan alkaloids

>  <np_classifier_is_glycoside>  (1452) 
False

>  <organisms>  (1452) 
Xylaria|Xylaria sp.

>  <collections>  (1452) 
Latin America dataset|NuBBEDB|WikiData Natural Products

>  <dois>  (1452) 
10.1590/S0100-40422010001000006

>  <synonyms>  (1452) 
1920-Epoxycytochalasin N

>  <cas>  (1452) 
nan

$$$$

     RDKit          2D

 23 23  0  0  0  0  0  0  0  0999 V2000
  -13.2977    0.0531    0.0000 C   0  0  0  0  0  0  0  0  0  0  0  0
  -11.9525    0.7167    0.0000 C   0  0  0  0  0  0  0  0  0  0  0  0
  -10.7052   -0.1165    0.0000 C   0  0  0  0  0  0  0  0  0  0  0  0
   -9.3599    0.5471    0.0000 C   0  0  0  0  0  0  0  0  0  0  0  0
   -8.1126   -0.2861    0.0000 C   0  0  0  0  0  0  0  0  0  0  0  0
   -6.7674    0.3774    0.0000 C   0  0  0  0  0  0  0  0  0  0  0  0
   -5.5201   -0.4558    0.0000 C   0  0  0  0  0  0  0  0  0  0  0  0
   -4.1749    0.2078    0.0000 C   0  0  0  0  0  0  0  0  0  0  0  0
   -2.9276   -0.6254    0.0000 C   0  0  0  0  0  0  0  0  0  0  0  0
   -1.5823    0.0382    0.0000 C   0  0  0  0  0  0  0  0  0  0  0  0
   -0.3350   -0.7950    0.0000 C   0  0  0  0  0  0  0  0  0  0  0  0
    1.0102   -0.1315    0.0000 C   0  0  0  0  0  0  0  0  0  0  0  0
    2.2575   -0.9647    0.0000 C   0  0  0  0  0  0  0  0  0  0  0  0
    3.6027   -0.3011    0.0000 C   0  0  0  0  0  0  0  0  0  0  0  0
    4.8500   -1.1343    0.0000 C   0  0  0  0  0  0  0  0  0  0  0  0
    6.1953   -0.4707    0.0000 C   0  0  0  0  0  0  0  0  0  0  0  0
    6.2932    1.0261    0.0000 C   0  0  0  0  0  0  0  0  0  0  0  0
    7.6384    1.6897    0.0000 C   0  0  0  0  0  0  0  0  0  0  0  0
    7.7364    3.1865    0.0000 O   0  0  0  0  0  0  0  0  0  0  0  0
    8.8857    0.8565    0.0000 C   0  0  0  0  0  0  0  0  0  0  0  0
    8.7878   -0.6403    0.0000 C   0  0  0  0  0  0  0  0  0  0  0  0
   10.0351   -1.4736    0.0000 O   0  0  0  0  0  0  0  0  0  0  0  0
    7.4426   -1.3039    0.0000 C   0  0  0  0  0  0  0  0  0  0  0  0
  1  2  1  0
  2  3  1  0
  3  4  1  0
  4  5  1  0
  5  6  1  0
  6  7  1  0
  7  8  1  0
  8  9  1  0
  9 10  1  0
 10 11  1  0
 11 12  1  0
 12 13  1  0
 13 14  1  0
 14 15  1  0
 15 16  1  0
 16 17  2  0
 17 18  1  0
 18 19  1  0
 18 20  2  0
 20 21  1  0
 21 22  1  0
 21 23  2  0
 23 16  1  0
M  END
>  <identifier>  (1453) 
CNP0259222.0

>  <canonical_smiles>  (1453) 
CCCCCCCCCCCCCCCC1=CC(O)=CC(O)=C1

>  <standard_inchi>  (1453) 
InChI=1S/C21H36O2/c1-2-3-4-5-6-7-8-9-10-11-12-13-14-15-19-16-20(22)18-21(23)17-19/h16-18,22-23H,2-15H2,1H3

>  <standard_inchi_key>  (1453) 
KVVSCMOUFCNCGX-UHFFFAOYSA-N

>  <name>  (1453) 
5-Pentadecylresorcinol

>  <iupac_name>  (1453) 
5-pentadecylbenzene-1,3-diol

>  <annotation_level>  (1453) 
5

>  <total_atom_count>  (1453) 
59

>  <heavy_atom_count>  (1453) 
23

>  <molecular_weight>  (1453) 
320.52

>  <exact_molecular_weight>  (1453) 
320.27153

>  <molecular_formula>  (1453) 
C21H36O2

>  <alogp>  (1453) 
6.73

>  <topological_polar_surface_area>  (1453) 
40.46

>  <rotatable_bond_count>  (1453) 
14

>  <hydrogen_bond_acceptors>  (1453) 
2

>  <hydrogen_bond_donors>  (1453) 
2

>  <hydrogen_bond_acceptors_lipinski>  (1453) 
2

>  <hydrogen_bond_donors_lipinski>  (1453) 
2

>  <lipinski_rule_of_five_violations>  (1453) 
1

>  <aromatic_rings_count>  (1453) 
1

>  <qed_drug_likeliness>  (1453) 
0.37

>  <formal_charge>  (1453) 
0

>  <fractioncsp3>  (1453) 
0.71

>  <number_of_minimal_rings>  (1453) 
1

>  <van_der_walls_volume>  (1453) 
348.33

>  <contains_sugar>  (1453) 
False

>  <contains_ring_sugars>  (1453) 
False

>  <contains_linear_sugars>  (1453) 
False

>  <murcko_framework>  (1453) 
c1ccccc1

>  <np_likeness>  (1453) 
0.57

>  <chemical_class>  (1453) 
Phenols

>  <chemical_sub_class>  (1453) 
Benzenediols

>  <chemical_super_class>  (1453) 
Benzenoids

>  <direct_parent_classification>  (1453) 
Resorcinols

>  <np_classifier_pathway>  (1453) 
Polyketides

>  <np_classifier_superclass>  (1453) 
Aromatic polyketides

>  <np_classifier_class>  (1453) 
Catechols with side chains

>  <np_classifier_is_glycoside>  (1453) 
False

>  <organisms>  (1453) 
Anacardium Occidentale|Anacardium occidentale|Apis mellifera ligustica|Ardisia brevicaulis|Ardisia colorata|Ardisia elliptica|Ardisia gigantifolia|Ashitaba|Azotobacter vinelandii|Baccharis quitensis|Banksia integrifolia|Byssomerulius incarnatus|Cashew|Cystophora retroflexa|Cystophora torulosa|Embelia ribes|Ginkgo biloba|Ginkgo biloba L.|Gloeostereum incarnatum|Grevillea robusta|Hakea amplexicaulis|Hordeum vulgare|Knema glomerata|Mangifera Indica|Mangifera indica|Merulius incarnatus|Nidorella podocephala|Oryza sativa|Secale cereale|Streptomyces cyaneus|Streptomyces cyaneus 2007-SV1|Streptomyces cyaneus 2299-SVI|Streptomyces sp. 4875|Triticum aestivum|Triticum durum|wheat

>  <collections>  (1453) 
Australian natural products|CMAUP (cCollective molecular activities of useful plants)|CMNPD|ChEBI NPs|ChemSpider NPs|FooDB|KNApSaCK|Latin America dataset|Marine Natural Products|NPACT|NPASS|NPAtlas|NPEdia|NuBBEDB|Phenol-explorer|StreptomeDB|Super Natural II|TCMDB-Taiwan (Traditional Chinese Medicine database)|TCMID (Traditional Chinese Medicine Integrated Database)|TIPdb (database of Taiwan indigenous plants)|TPPT (Toxic Plants–PhytoToxins)|UNPD (Universal Natural Products Database)|VietHerb|WikiData Natural Products

>  <dois>  (1453) 
10.1002/CBDV.200900349|10.1002/PCA.733|10.1002/PTR.2650070309|10.1002/food.19880321030|10.1016/0031-9422(81)84033-2|10.1016/0031-9422(92)83267-3|10.1016/0304-3835(96)04294-2|10.1016/0885-5765(87)90041-5|10.1016/0889-1575(92)90040-Q|10.1016/J.CHROMA.2009.01.013|10.1016/J.PHYTOCHEM.2009.04.004|10.1016/S0031-9422(00)81560-5|10.1016/S0031-9422(00)82426-7|10.1016/S0031-9422(00)90602-2|10.1016/S0031-9422(82)85041-3|10.1016/S0048-4059(86)80019-4|10.1016/S0304-3835(03)00466-X|10.1016/j.bmc.2011.05.025|10.1021/JF00002A039|10.1021/JF00030A035|10.1021/JF020224W|10.1021/JF0340456|10.1021/NP050520D|10.1021/NP060284M|10.1021/NP0605687|10.1021/NP50105A007|10.1021/NP50106A021|10.1021/TX00004A003|10.1021/jf00030a035|10.1021/np050520d|10.1021/np060284m|10.1021/np0605687|10.1021/np50105a007|10.1021/np50106a021|10.1021/tx00004a003|10.1038/JA.2015.22|10.1038/ja.2015.22|10.1039/np9840100251|10.1071/ch9682979|10.1071/ch9740345|10.1071/ch9772527|10.1080/10286020.2011.554828|10.1080/10575639208048898|10.1080/13880200490886157|10.1248/CPB.49.1664|10.1248/CPB.50.1484|10.1515/ZNC-2000-11-1206|10.2903/j.efsa.2012.2663|10.7164/ANTIBIOTICS.45.886|10.7164/antibiotics.45.886

>  <synonyms>  (1453) 
1, 5-pentadecyl-|1,3-Benzenediol, 5-pentadecyl-|3-N-PENTADECYL-5-HYDROXYPHENOL|3-Pentadecylresorcinol|3158-56-3|5-(N-PENTADECYL)RESORCINOL|5-Pentadecyl-1,3-benzenediol|5-Pentadecylresorcinol, analytical standard|5-Pentadecylresorcinol;Cardol;5-Pentadecylbenzene-1,3-diol|5-pentadecyl resorcinol|5-pentadecylbenzene-1,3-diol|AKOS040758955|Adipostatin A|BCP33965|BDBM50555908|CHEBI:2120|CHEMBL98610|CS-0066831|Cardol|Cardol C15:0|DTXSID7062875|EINECS 221-599-7|Epitope ID:122679|HY-116934|LMPK15030012|NS00020193|NSC776|No Data|Q4682945|RESORCINOL, 5-PENTADECYL|Resorcinol, pentadecyl-|SCHEMBL406402|U1FU33YCG0|UNII-U1FU33YCG0

>  <cas>  (1453) 
3158-56-3

$$$$

     RDKit          2D

 32 36  0  0  0  0  0  0  0  0999 V2000
    2.6608   -3.2701    0.0000 C   0  0  0  0  0  0  0  0  0  0  0  0
    4.0535   -2.7131    0.0000 C   0  0  0  0  0  0  0  0  0  0  0  0
    5.2323   -3.6407    0.0000 C   0  0  0  0  0  0  0  0  0  0  0  0
    4.2675   -1.2284    0.0000 C   0  0  0  0  0  0  0  0  0  0  0  0
    5.5943   -0.5288    0.0000 C   0  0  0  0  0  0  0  0  0  0  0  0
    5.3390    0.9493    0.0000 C   0  0  0  0  0  0  0  0  0  0  0  0
    3.8544    1.1632    0.0000 C   0  0  0  0  0  0  0  0  0  0  0  0
    4.6537    2.4325    0.0000 C   0  0  0  0  0  0  0  0  0  0  0  0
    6.1526    2.3749    0.0000 O   0  0  0  0  0  0  0  0  0  0  0  0
    3.0199    2.4097    0.0000 C   0  0  0  0  0  0  0  0  0  0  0  0
    1.5232    2.3103    0.0000 C   0  0  0  0  0  0  0  0  0  0  0  0
    0.8610    0.9644    0.0000 C   0  0  0  0  0  0  0  0  0  0  0  0
    0.0265    2.2109    0.0000 C   0  0  0  0  0  0  0  0  0  0  0  0
    1.6954   -0.2821    0.0000 C   0  0  0  0  0  0  0  0  0  0  0  0
    1.0331   -1.6280    0.0000 C   0  0  0  0  0  0  0  0  0  0  0  0
   -0.4636   -1.7274    0.0000 C   0  0  0  0  0  0  0  0  0  0  0  0
   -1.2980   -0.4809    0.0000 C   0  0  0  0  0  0  0  0  0  0  0  0
   -2.7947   -0.5803    0.0000 C   0  0  0  0  0  0  0  0  0  0  0  0
   -1.9603   -1.8268    0.0000 C   0  0  0  0  0  0  0  0  0  0  0  0
   -3.4570   -1.9262    0.0000 C   0  0  0  0  0  0  0  0  0  0  0  0
   -4.9537   -2.0256    0.0000 C   0  0  0  0  0  0  0  0  0  0  0  0
   -5.7881   -0.7791    0.0000 C   0  0  0  0  0  0  0  0  0  0  0  0
   -7.2848   -0.8785    0.0000 O   0  0  0  0  0  0  0  0  0  0  0  0
   -5.1259    0.5668    0.0000 C   0  0  0  0  0  0  0  0  0  0  0  0
   -4.9639    2.0580    0.0000 C   0  0  0  0  0  0  0  0  0  0  0  0
   -6.5663    0.9853    0.0000 C   0  0  0  0  0  0  0  0  0  0  0  0
   -3.6291    0.6662    0.0000 C   0  0  0  0  0  0  0  0  0  0  0  0
   -2.9669    2.0121    0.0000 C   0  0  0  0  0  0  0  0  0  0  0  0
   -1.4702    2.1115    0.0000 C   0  0  0  0  0  0  0  0  0  0  0  0
   -0.6357    0.8650    0.0000 C   0  0  0  0  0  0  0  0  0  0  0  0
    0.1987   -0.3815    0.0000 C   0  0  0  0  0  0  0  0  0  0  0  0
    3.1921   -0.1827    0.0000 C   0  0  0  0  0  0  0  0  0  0  0  0
  1  2  2  0
  2  3  1  0
  4  2  1  1
  4  5  1  0
  5  6  1  0
  6  7  1  0
  7  8  1  6
  8  9  1  0
  7 10  1  0
 10 11  1  0
 11 12  1  0
 12 13  1  1
 12 14  1  0
 14 15  1  1
 15 16  1  0
 17 16  1  6
 17 18  1  0
 18 19  1  6
 18 20  1  0
 20 21  1  0
 21 22  1  0
 22 23  1  6
 22 24  1  0
 24 25  1  0
 24 26  1  0
 24 27  1  0
 27 28  1  6
 28 29  1  0
 29 30  1  0
 30 31  1  6
 14 32  1  0
 32  4  1  6
 32  7  1  0
 30 12  1  0
 30 17  1  0
 27 18  1  0
M  END
>  <identifier>  (1454) 
CNP0223449.1

>  <canonical_smiles>  (1454) 
C=C(C)[C@@H]1CC[C@]2(CO)CC[C@]3(C)[C@H](CC[C@@H]4[C@@]5(C)CC[C@H](O)C(C)(C)[C@@H]5CC[C@]43C)[C@@H]12

>  <standard_inchi>  (1454) 
InChI=1S/C30H50O2/c1-19(2)20-10-15-30(18-31)17-16-28(6)21(25(20)30)8-9-23-27(5)13-12-24(32)26(3,4)22(27)11-14-29(23,28)7/h20-25,31-32H,1,8-18H2,2-7H3/t20-,21+,22-,23+,24-,25+,27-,28+,29+,30+/m0/s1

>  <standard_inchi_key>  (1454) 
FVWJYYTZTCVBKE-ROUWMTJPSA-N

>  <name>  (1454) 
Betulin

>  <iupac_name>  (1454) 
(1~{R},3~{a}~{S},5~{a}~{R},5~{b}~{R},7~{a}~{R},9~{S},11~{a}~{R},11~{b}~{R},13~{a}~{R},13~{b}~{R})-3~{a}-(hydroxymethyl)-1-isopropenyl-5~{a},5~{b},8,8,11~{a}-pentamethyl-1,2,3,4,5,6,7,7~{a},9,10,11,11~{b},12,13,13~{a},13~{b}-hexadecahydrocyclopenta[a]chrysen-9-ol

>  <annotation_level>  (1454) 
5

>  <total_atom_count>  (1454) 
82

>  <heavy_atom_count>  (1454) 
32

>  <molecular_weight>  (1454) 
442.73

>  <exact_molecular_weight>  (1454) 
442.38108

>  <molecular_formula>  (1454) 
C30H50O2

>  <alogp>  (1454) 
7.00

>  <topological_polar_surface_area>  (1454) 
40.46

>  <rotatable_bond_count>  (1454) 
2

>  <hydrogen_bond_acceptors>  (1454) 
2

>  <hydrogen_bond_donors>  (1454) 
2

>  <hydrogen_bond_acceptors_lipinski>  (1454) 
2

>  <hydrogen_bond_donors_lipinski>  (1454) 
2

>  <lipinski_rule_of_five_violations>  (1454) 
1

>  <aromatic_rings_count>  (1454) 
0

>  <qed_drug_likeliness>  (1454) 
0.45

>  <formal_charge>  (1454) 
0

>  <fractioncsp3>  (1454) 
0.93

>  <number_of_minimal_rings>  (1454) 
5

>  <van_der_walls_volume>  (1454) 
453.57

>  <contains_sugar>  (1454) 
False

>  <contains_ring_sugars>  (1454) 
False

>  <contains_linear_sugars>  (1454) 
False

>  <murcko_framework>  (1454) 
C1CCC2C(C1)CCC3C2CCC4C5CCCC5CCC43

>  <np_likeness>  (1454) 
3.23

>  <chemical_class>  (1454) 
Steroids and steroid derivatives

>  <chemical_sub_class>  (1454) 
Hydroxysteroids

>  <chemical_super_class>  (1454) 
Lipids and lipid-like molecules

>  <direct_parent_classification>  (1454) 
Hydroxysteroids

>  <np_classifier_pathway>  (1454) 
Terpenoids

>  <np_classifier_superclass>  (1454) 
Triterpenoids

>  <np_classifier_class>  (1454) 
Lupane triterpenoids

>  <np_classifier_is_glycoside>  (1454) 
False

>  <organisms>  (1454) 
Abies balsamea|Abies sp.|Abutilon grandiflorum|Acacia mellifera|Acacia sparsiflora|Acanthella aurantiaca|Acanthus ilicifolius|Achyranthes bidentata|Aconitum brevicalcaratum|Aconitum japonicum|Adenia fruticosa|Adenopeltis colliguaya|Aeodes orbitosa|Aeromonas hydrophila|Agarum cribrosum|Agathosma scaberula|Agave shawii|Aglaia elaeagnoidea|Aglaia elliptica|Agrostis epigeios|Akebia sp.|Alaria crispa|Albertisia papuana|Allanblackia floribunda|Alnus oregana|Alnus rubra|Alnus rugosa|Alphitonia whitei|Alpinia calcarata|Alstonia scholaris|Alyxia levinei|Alyxia sinensis|Amanoa oblongifolia|Ambrosia grayi|Ammodendron conollyi|Ampelozizyphus amazonicus|Amphimedon paraviridis|Anatheca montagnei|Ancistrocladus cochinchinensis|Ancistrocladus tectorius|Anemone raddeana|Angelica saxatilis|Ania latifolia|Aniba parviflora|Anisacanthus quadrifidus|Anisacanthus virgularis|Annulohypoxylon cohaerens|Annulohypoxylon truncatum|Aplidium orthium|Aplysia vaccaria|Apterostigma dentigerum|Arabidopsis lyrata subsp. lyrata|Aralia decaisneana|Arbutus unedo|Arenaria juncea|Aristolochia elegans|Arnebia hispidissima|Artemisia caucasica|Artemisia tournefortiana|Artocarpus integer|Asparagus africanus|Aspergillus arenarius|Aspergillus candidus|Aspergillus quadrilineatus|Aster ptarmicoides|Asteracantha longifolia|Astragalus asper|Astragalus gummifer|Astrantia major|Aulacomnium androgynum|Avicennia officinalis|Bacopa monnieri|Baeomyces roseus|Baileya multiradiata|Balanophora harlandii|Barbarea verna|Beauveria felina|Befaria glutinosa|Betula alba|Betula alnoides|Betula cordifolia|Betula dahurica|Betula davurica|Betula ermanii|Betula fruticosa|Betula lenta|Betula maximowicziana|Betula ovalifolia|Betula papyrifera|Betula pendula|Betula platyphylla|Betula populifolia|Betula pubescens|Betula schmidtii|Betula sp.|Betula × caerulea|Bitis arietans|Bituminaria bituminosa|Blitum virgatum|Bombus hortorum|Bowdichia virgilioides|Brenneria rubrifaciens|Brucea javanica|Bruguiera gymnorhiza|Bruguiera gymnorrhiza|Bupleurum fruticescens|Bupleurum salicifolium|Bupleurum spinosum|Byrsonima crassifolia|Byrsonima microphylla|Bystropogon canariensis|Caenurgina erechtea|Cajanus cajan|Camchaya loloana|Camellia sasanqua|Camellia sinensis|Capsicum annuum|Caraipa densifolia|Cardiospermum halicacabum|Carpinus cordata|Cassia Siamea|Cassia javanica subsp. nodosa|Cassia siamea Lamk.|Cassinia uncata|Castanea sativa|Catananche caerulea|Ceanothus sp.|Cedrela angustifolia|Cedrela kotschyi|Celtis philippensis|Celtis philippinensis|Centaurea horrida|Centaurea lippii|Centaurea nigrescens|Centaurea seridis|Centrosema haitense|Ceratocystis clavigera|Cereus weberi|Ceriops Tagal|Ceriops decandra|Ceriops tagal|Chaenomeles sinensis|Chaenomeles sinensis KOEHNE|Chilo suppressalis|Chrozophora obliqua|Chuquiraga atacamensis|Cichorium intybus|Cirsium dipsacolepis|Cirsium japonicum|Cirsium wallichii|Cladiella krempfi|Cladonia cryptochlorophaea|Clematis tangutica|Clinopodium acinos|Cneorum pulverulentum|Coccinia grandis|Coccoloba acrostichoides|Cocculus diversifolius|Coleus garckeanus|Comptonia peregrina|Consolida ajacis|Convallaria keiskei|Conyza canadensis|Cordia curassavica|Coreopsis fasciculata|Cornus capitata|Cornus sp.|Corydalis calliantha|Corydalis gigantea|Corylus avellana|Corylus sp.|Corynascus setosus|Coryphantha greenwoodii|Cosmos pringlei|Coussarea paniculata|Crataegus pinnatifida|Crella incrustans|Crepis foetida|Crinum defixum|Crinum kirkii|Croton megalocarpus|Croton rhamnifolius|Croton sp.|Cuphea carthagenensis|Cussonia spicata|Cyclolepis genistoides|Cytisus scoparius|Dahlstedtia araripensis|Dalbergia sericea|Dalbergia stipulacea|Daphne lancifolia|Derris trifoliata|Derris uliginosa|Dichotomaria marginata|Dinemasporium strigosum|Dioscorea althaeoides|Dioscoreophyllum cumminsii|Diospyros Castanea|Diospyros Ebenum|Diospyros Kaki|Diospyros Lotus|Diospyros Maritima|Diospyros Montana|Diospyros abyssinica|Diospyros argentea|Diospyros bipindensis|Diospyros blancoi|Diospyros buxifolia|Diospyros canaliculata|Diospyros candalleana|Diospyros candolleana|Diospyros castanea|Diospyros cauliflora|Diospyros chevalieri|Diospyros chloroxylon|Diospyros cinnabarina|Diospyros consolatae|Diospyros crassiflora|Diospyros curranii|Diospyros dendo|Diospyros discolor|Diospyros ebenum|Diospyros elliptifolia|Diospyros embryopteris|Diospyros eriantha|Diospyros evena|Diospyros exsculpta|Diospyros ferrea|Diospyros fragrans|Diospyros gabunensis|Diospyros gracilescens|Diospyros guianensis|Diospyros hirsuta|Diospyros hoyleana|Diospyros ismailii|Diospyros iturensis|Diospyros kaki|Diospyros kaki var.sylvestris|Diospyros kamerunensis|Diospyros leucomelas|Diospyros longiflora|Diospyros lotus|Diospyros maingayi|Diospyros malabarica|Diospyros malanonilau|Diospyros mannii|Diospyros maritima|Diospyros mcphersonii|Diospyros melanoxylon|Diospyros mespiliformis|Diospyros monbuttensis|Diospyros monobuttensis|Diospyros montana|Diospyros moonii|Diospyros morrisiana|Diospyros nigra|Diospyros obliquifolia|Diospyros peregrina|Diospyros pseudo-malabarica|Diospyros quaesita|Diospyros rhodocalyx|Diospyros sanza-minika|Diospyros siamang|Diospyros siamensis|Diospyros siderophylla|Diospyros singaporensis|Diospyros spinescens|Diospyros sumatrana|Diospyros sylvatica|Diospyros thwaitesii|Diospyros tomentosa|Diospyros verrucosa|Diospyros virginiana|Diospyros walkeri|Diospyros wallichii|Diospyros zenkeri|Diotis maritima|Dipteryx odorata|Dirca occidentalis|Doliocarpus dentatus|Dorstenia lindeniana|Dracaena cinnabari|Dracocephalum forrestii|Dracocephalum peregrinum|Dryocosmus kuriphilus|Drypetes littoralis|Dysosma delavayi|Echinochloa esculenta|Echinopepon bigelovii|Edgeworthia gardneri|Elaeagnus commutata|Eleocharis dulcis|Eria subsessilis|Erica arborea L.|Ericerus pela|Erigeron linifolius|Erythrina sacleuxii|Eskemukerjea megacarpum|Eucalyptus flocktoniae|Eucalyptus regnans|Euclea crispa|Euclea divinorum|Euclea natalensis|Eucommia ulmoides|Euonymus atropurpureus|Euonymus carnosus|Eupatorium hyssopifolium|Euphorbia Lathyris|Euphorbia aellenii|Euphorbia biglandulosa|Euphorbia broteri|Euphorbia heteradena|Euphorbia iberica|Euphorbia latazi|Euphorbia lathyris|Euphorbia micractina|Euphorbia myrsinites|Euphorbia oxyphylla|Euphorbia paralias|Euphorbia piscatoria|Euphorbia retusa|Euphorbia segetalis|Euphorbia sequieriana|Euphorbia sp.|Euphorbia sulcata|Euphorbia trigona|Euptelea polyandra|Eutrema japonicum|Evasterias troschelii|Evodiopanax innovans|Exobasidium vaccinii|Fagara naranjillo|Fagonia indica|Festuca versuta|Ficus cordata subsp. salicifolia|Ficus sarmentosa var. thunbergii|Flindersia brayleyana|Flindersia pimenteliana|Fraxinus americana|Fraxinus sp.|Fritillaria cirrhosa|Fucus spiralis|Galium album|Garcinia brasiliensis|Garcinia gardneriana|Garcinia hombroniana|Garcinia mangostana|Garcinia sp.|Garcinia xanthochymus|Gardneria insularis|Gerbera piloselloides|Glechoma hirsuta|Glycyrrhiza lepidota|Gomphostemma crinitum|Grewia bicolor|Grewia damine|Grindelia perennis|Guazuma ulmifolia|Halichondria melanadocia|Hedyotis lawsoniae|Helichrysum candolleanum|Helichrysum ferrugineum|Helichrysum herbaceum|Heracleum sphondylium|Hippobromus pauciflorus|Hopea brevipetiolaris|Hopea jucunda|Hydrocotyle ranunculoides|Hygrophila auriculata|Hygrophila schulli|Hypericum triquetrifolium|Hypoestes purpurea|Hyrtios erecta|Hyssopus seravschanicus|Ilex latifolia|Ilex macropoda|Ilex verticillata|Ipomoea muelleri|Isodon adenanthus|Isodon eriocalyx|Isodon japonicus|Jasminum Lanceolarium|Jasminum humile|Jasminum lanceolarium|Juglans Regia|Juglans regia|Juglans sp.|Jugo|Jungermannia obovata|Juniperus communis|Juniperus horizontalis|Kadsura interior|Khaya grandifoliola|Knightia deplanchei|Kummerowia striata|Laburnum anagyroides|Lactarius vellereus|Lafoensia glyptocarpa|Larix laricina|Lavandula angustifolia|Lavandula latifolia|Lavandula spica|Lawsonia alba|Lecanora sordida|Lecidea speirodes|Lendenfeldia frondosa|Leptospermum scoparium|Leptosyne bigelovii|Lespedeza bicolor|Liabum bourgeaui|Ligustrum japonicum|Ligustrum japonicus|Ligustrum lucidum|Litsea zeylanica|Lobelia berlandieri|Lonchocarpus orotinus|Lophopetalum javanicum|Lophopetalum wallichii|Lophozia floerkei|Luehea candicans|Lumnitzera racemosa|Lupinus cosentinii|Lyophyllum shimeji|Maerua oblongifolia|Magnolia sprengeri|Maharanga bicolor|Malassezia furfur|Mallotus philippensis|Malva sylvestris|Mascarenhasia arborescens|Maytenus boaria|Maytenus canariensis|Maytenus chiapensis|Maytenus cuzcoina|Maytenus horrida|Maytenus sp.|Meconopsis napaulensis|Melaleuca ericifolia|Melilotus messanensis|Melilotus siculus|Menyanthes sp.|Merremia umbellata|Mesembryanthemum anatomicum|Miconia myriantha|Micranthemum umbrosum|Microcybe multiflora|Micromonas pusilla|Millettia conraui|Millettia rubiginosa|Mimusops elengi|Mitrephora heyneana|Modiolus demissus|Monochaetia compta|Monteverdia chiapensis|Monteverdia cuzcoina|Monteverdia ilioppjfeowneviufheiuwfew fgr|Monteverdia rigida|Monteverdia truncata|Moquilea pyrifolia|Mosla japonica|Myrica cerifera|Myrica multiflora|Myrtus tomentosa|Narcissus nivalis|Neocosmospora tenuicristata|Neolitsea zeylanica|Nepeta caesarea|Nerium oleander|Nerium sp.|Nocardia pseudobrasiliensis|Oedera calycina|Onoseris lopezii|Oophaga speciosa|Ophelia neglecta|Ophiarthrum elegans|Origanum compactum|Origanum sp.|Ormosia flava|Ormosia panamensis|Orobanche speciosa|Orthocaulis attenuatus|Orthosphenia mexicana|Oryza coarctata|Oscillatoria princeps|Osmerus mordax|Osteophloeum platyspermum|Osteospermum hyoseroides|Ostrea chilensis|Ozoroa insignis|Ozothamnus adnatus|Ozothamnus argophyllus|Ozothamnus bilobus|Pachybasium candidum|Paeonia lactiflora|Paeonia rockii|Palafoxia rosea|Paliurus hemsleyanus|Parastrephia lepidophylla|Parerythropodium fulvum|Parnassius phoebus|Pedicularis condensata|Pellia epiphylla|Pellia neesiana|Peniophora affinis|Penstemon newberryi|Penstemon secundiflorus|Perityle vaseyi|Petriella sordida|Phebalium whitei|Phedimus kamtschaticus|Phillyrea latifolia L.|Phlegmariurus fordii|Phlogacanthus Curviflorus|Phlogacanthus curviflorus|Phlogacanthus thyrsiflorus|Phoebe formosana|Phoradendron vernicosum|Phormia regina|Phyllanthus flexuosus|Phyllanthus sp.|Phyllogeiton zeyheri|Phytolacca acinosa|Picea breweriana|Picea mariana|Picea vulgaris|Pinna nobilis|Pinus massoniana|Pinus wallichiana|Piper arboreum|Piper falconeri|Pittosporum pentandrum|Plagiomnium undulatum|Plantago lanceolata|Platanus sp.|Platycodon Grandiflorum|Platycodon grandiflorum|Platycodon sp.|Pluchea sericea|Plumbago pulchella|Plumeria alba|Plumeria obtusa|Podostictina degelii|Polemonium caeruleum|Polygala japonica|Polygala ruwenzoriensis|Populus grandidentata|Porella swartziana|Poterium sanguisorba|Pouzolzia occidentalis|Premna tomentosa|Primula integrifolia|Pristimera indica|Proteles cristatus|Prunus japonica|Prunus pensylvanica|Psoroma crassum|Psorospermum tenuifolium|Pterocarpus santalinus|Pterocarpus sp.|Pterodon emarginatus|Ptilidium ciliare|Punica granatum|Pyrola incarnata Fisch.|Pyrrosia sheareri|Pyrus communis|Quercus mongolica|Quercus sp.|Quercus suber|Quercus variabilis|Radermachera xylocarpa|Raputia simulans|Relhania calycina|Rheedia gardneriana|Rheum webbianum|Rhizobium etli|Rhizophora mucronata|Rhododendron dauricum|Rhododendron ledebourii|Rhododendron sichotense|Rhodomyrtus tomentosa|Rhus chinensis|Rhus typhina|Rhynchosporium orthosporum|Rosa agrestis|Rosa hybrid cultivar|Rosa taiwanensis|Rosmarinus Officinalis|Rosmarinus officinalis|Rosmarinus officinalis L.|Rosmarinus sp.|Rubiaceae|Rubus phoenicolasius|Rumex conglomeratus|Rumex nepalensis|Ruta microcarpa|Salacia beddomei|Salacia chinensis|Salacia cordata|Salvia beckeri|Salvia coulteri|Salvia officinalis|Salvia sp.|Salvia thymoides|Salvia urolepis|Salvia xalapensis|Samadera indica|Sambucus nigra|Sambucus sp.|Sambucus williamsii|Sapindus trifoliatus|Sarcotragus spinosulus|Sarracenia flava|Satureja cuneifolia|Saussurea Lappa|Saussurea lappa|Saussurea pulchella|Saussurea sp.|Scabiosa pyrenaica|Scaevola floribunda|Schleichera Oleosa|Schleichera oleosa|Scilla maritima|Scutellaria seleriana|Sedum cepaea|Selinum carvifolium|Senecio desfontainei|Senecio flavus|Senegalia mellifera|Senegalia modesta|Senna siamea|Sida cordifolia|Sidastrum acuminatum|Sidera lenis|Sideritis romana|Silene inflata|Sinoadina racemosa|Sinocrassula indica|Sinularia molesta|Solanderia secunda|Solanum aethiopicum|Solanum chilense|Solanum racemigerum|Solanum sisymbriifolium|Solenopsis invicta|Sorbus americana|Sorbus decora|Sorbus sp.|Spodoptera littoralis|Stauntonia obovatifoliola Hayata subsp.intermedia|Stauntonia yaoshanensis|Sterculia sp.|Stevia origanoides|Sticta mougeotiana|Stiretrus anchorago|Streblognathus aethiopicus|Streptomyces eurythermus|Streptomyces fradiae|Streptomyces mobaraensis|Streptomyces olivaceus|Streptomyces toyocaensis|Strobilanthes dimorphotricha|Strobilanthes pentstemonoides|Strobilanthes psilostachys|Strychnos ledermannii|Strychnos ligustrina|Strychnos spinosa|Suaeda maritima|Swertia punctata|Symplocos racemosa|Syncolostemon parviflorus|Syzygium corticosum|Syzygium formosanum|Syzygium jambos|Tabebuia rosea|Talipariti tiliaceum|Tapinella panuoides|Taraxacum bicorne|Terminalia glabrescens|Teucrium pestalozzae|Thapsia transtagana|Thesium humile|Thevetia Peruviana|Thevetia peruviana|Thorectandra excavatus|Thryptomene kochii|Thuja plicata|Thymbra spicata|Tilia vulgaris|Tolypothrix tjipanasensis|Torenia anagallis|Torricellia tiliifolia|Toxicopueraria peduncularis|Trichia floriformis|Trichilia claussenii|Tricholepis glaberrima|Trichoptilus wahlbergi|Trichosanthes cucumeroides|Trichosanthes dioica|Trichosurus vulpecula|Trifoliate orange|Trifolium apertum|Triglochin maritima|Tripodanthus acutifolius|Tsuga canadensis|Turbinaria ornata|Turraeanthus mannii|Uncaria lancifolia|Urbanodendron verrucosum|Urtica triangularis|Valeriana cardamines|Valeriana fedtschenkoi|Valeriana laxiflora|Vatica cinerea|Vatica diospyroides|Veronica kellereri|Veronica pectinata|Verpa digitaliformis|Viburnum davidii|Viburnum nudum var. cassinoides|Viburnum rhytidophyllum|Vicia Faba|Vicia faba|Viguiera annua|Virola elongata|Vitis betulifolia|Vitis vinifera|Werneria decora|Wilbrandia ebracteata|Woodfordia fruticosa|Zanthoxylum monophyllum|Zataria multiflora|Ziziphus jujuba|Ziziphus spina-christi|Zizyphus vulgaris var.spinosus|basil|broad bean|common myrtle|euonymus carnosus|platanus hispanica

>  <collections>  (1454) 
ANPDB|AnalytiCon Discovery NPs|Australian natural products|CMAUP (cCollective molecular activities of useful plants)|ChEBI NPs|ChemSpider NPs|ETM (Ethiopian Traditional Medicine) DB|InflamNat|KNApSaCK|Latin America dataset|NANPDB (Natural Products from Northern African Sources)|NPACT|NPASS|NPEdia|NuBBEDB|Phyto4Health|PhytoLab phyproof® Reference Substances|SANCDB|Super Natural II|TCMDB-Taiwan (Traditional Chinese Medicine database)|TIPdb (database of Taiwan indigenous plants)|VietHerb|WikiData Natural Products|ZINC NP

>  <dois>  (1454) 
10.1002/(SICI)1099-1573(199602)10:1<1::AID-PTR757>3.0.CO;2-A|10.1002/ARDP.19332710408|10.1002/ARDP.19963291005|10.1002/CBDV.200800266|10.1002/CBDV.200900172|10.1002/CBDV.201000310|10.1002/CBER.19650980115|10.1002/CHIN.198528357|10.1002/CHIN.199410238|10.1002/CHIN.200307143|10.1002/EJOC.200500936|10.1002/ELPS.201300646|10.1002/HLCA.19930760712|10.1002/HLCA.200690271|10.1002/HLCA.200890088|10.1002/HLCA.201000138|10.1002/JCCS.199400028|10.1002/JCCS.199500076|10.1002/JCCS.200000048|10.1002/JCCS.200500117|10.1002/JCCS.200900089|10.1002/JLAC.19666920122|10.1002/RECL.19470660309|10.1007/978-1-4615-4913-0_23|10.1007/978-3-7091-1084-3_5|10.1007/BF00381261|10.1007/BF00563844|10.1007/BF00564024|10.1007/BF00564187|10.1007/BF00570696|10.1007/BF00574230|10.1007/BF00597825|10.1007/BF00599285|10.1007/BF00629882|10.1007/BF01032020|10.1007/BF02059594|10.1007/BF02969391|10.1007/BF02976931|10.1007/BF03046367|10.1007/S10600-007-0133-Y|10.1007/S10600-010-9461-4|10.1007/S11033-011-0982-0|10.1016/0031-9422(73)80529-1|10.1016/0031-9422(75)83058-5|10.1016/0031-9422(83)83027-1|10.1016/0031-9422(88)80120-1|10.1016/0031-9422(88)80769-6|10.1016/0031-9422(88)83027-9|10.1016/0031-9422(88)83098-X|10.1016/0031-9422(89)80048-2|10.1016/0031-9422(90)80181-F|10.1016/0031-9422(90)85051-G|10.1016/0031-9422(90)85192-I|10.1016/0031-9422(90)85284-M|10.1016/0031-9422(90)85462-O|10.1016/0031-9422(91)83076-W|10.1016/0031-9422(91)84157-N|10.1016/0031-9422(92)80309-3|10.1016/0031-9422(92)80365-L|10.1016/0031-9422(94)00743-D|10.1016/0031-9422(94)00806-5|10.1016/0031-9422(95)00943-4|10.1016/0305-1978(93)90064-X|10.1016/0378-8741(84)90002-3|10.1016/0378-8741(86)90109-1|10.1016/B978-0-12-818162-1.00040-7|10.1016/J.BMC.2005.10.063|10.1016/J.BMCL.2009.08.002|10.1016/J.BSE.2019.04.006|10.1016/J.CBI.2009.12.012|10.1016/J.FITOTE.2003.07.012|10.1016/J.FITOTE.2003.08.003|10.1016/J.FITOTE.2011.09.018|10.1016/J.PHYTOCHEM.2004.03.002|10.1016/J.PHYTOCHEM.2004.04.024|10.1016/J.PHYTOCHEM.2005.04.041|10.1016/J.PHYTOCHEM.2005.07.011|10.1016/J.PHYTOCHEM.2007.05.018|10.1016/J.PHYTOCHEM.2008.03.004|10.1016/J.PHYTOCHEM.2009.12.016|10.1016/J.PHYTOL.2011.02.011|10.1016/J.PLAPHY.2015.04.008|10.1016/J.TET.2008.05.054|10.1016/S0031-9422(00)80286-1|10.1016/S0031-9422(00)80490-2|10.1016/S0031-9422(00)81079-1|10.1016/S0031-9422(00)81245-5|10.1016/S0031-9422(00)82286-4|10.1016/S0031-9422(00)82541-8|10.1016/S0031-9422(00)82610-2|10.1016/S0031-9422(00)83889-3|10.1016/S0031-9422(00)85714-3|10.1016/S0031-9422(00)86845-4|10.1016/S0031-9422(00)89097-4|10.1016/S0031-9422(00)89726-5|10.1016/S0031-9422(00)90054-2|10.1016/S0031-9422(00)90605-8|10.1016/S0031-9422(00)97131-0|10.1016/S0031-9422(00)98083-X|10.1016/S0031-9422(01)00006-1|10.1016/S0031-9422(02)00520-4|10.1016/S0031-9422(02)00619-2|10.1016/S0031-9422(96)00510-9|10.1016/S0031-9422(96)00852-7|10.1016/S0031-9422(97)00021-6|10.1016/S0031-9422(97)00227-6|10.1016/S0031-9422(97)00313-0|10.1016/S0031-9422(97)00398-1|10.1016/S0031-9422(97)00414-7|10.1016/S0031-9422(97)00418-4|10.1016/S0031-9422(97)00433-0|10.1016/S0031-9422(97)00832-7|10.1016/S0031-9422(97)00888-1|10.1016/S0031-9422(97)01020-0|10.1016/S0031-9422(97)80021-0|10.1016/S0031-9422(98)00750-X|10.1016/S0031-9422(98)00771-7|10.1016/S0040-4020(01)90430-2|10.1016/S0040-4039(01)89626-X|10.1016/S0305-1978(02)00055-8|10.1016/S0305-1978(98)00061-1|10.1016/S0305-1978(98)00070-2|10.1016/S0367-326X(00)00269-0|10.1016/S0367-326X(99)00129-X|10.1016/S0926-6690(01)00091-7|10.1021/JF00043A032|10.1021/JF00111A051|10.1021/JO9902087|10.1021/NP010176U|10.1021/NP020379Y|10.1021/NP0204848|10.1021/NP030379D|10.1021/NP030379D.S001|10.1021/NP030465D|10.1021/NP030477Z|10.1021/NP040027M|10.1021/NP040027M.S001|10.1021/NP040072U|10.1021/NP0497402|10.1021/NP050041E|10.1021/NP050041E.S001|10.1021/NP0502793|10.1021/NP058016W|10.1021/NP070038Q|10.1021/NP1003005|10.1021/NP400851K|10.1021/NP50025A012|10.1021/NP50030A023|10.1021/NP50043A021|10.1021/NP50046A034|10.1021/NP50054A030|10.1021/NP50054A031|10.1021/NP50056A006|10.1021/NP50081A020|10.1021/NP501025R|10.1021/NP50110A009|10.1021/NP50120A010|10.1021/NP800001V|10.1021/NP800360A|10.1021/NP900305J|10.1021/NP960134J|10.1021/NP9702852|10.1021/NP980313W|10.1021/NP990523O|10.1021/np030465d|10.1021/np800360a|10.1038/aps.2016.102|10.1039/J39680002279|10.1055/S-0028-1097262|10.1055/S-0028-1097438|10.1055/S-0028-1097596|10.1055/S-0028-1097667|10.1055/S-0028-1097711|10.1055/S-0028-1097801|10.1055/S-0028-1097933|10.1055/S-2004-827149|10.1055/S-2005-873125|10.1055/S-2006-957988|10.1055/S-2006-958085|10.1055/S-2006-958147|10.1055/S-2006-962358|10.1055/S-2006-962783|10.1055/S-2007-967113|10.1055/S-2007-969308|10.1055/S-2007-969511|10.1055/S-2008-1034347|10.1055/S-2008-1074842|10.1055/S-2008-1075273|10.1071/CH05087|10.1071/CH9620314|10.1071/ch9751393|10.1076/PHBI.40.2.96.5848|10.1076/PHBI.41.4.231.15667|10.1080/10286020.2010.485566|10.1080/10575639708048311|10.1080/1478641031000149821|10.1080/14786410500161205|10.1080/14786411003752102|10.1081/SCC-100104070|10.1104/PP.69.2.522|10.1111/J.1744-7909.2005.00060.X|10.1248/CPB.32.3906|10.1248/CPB.42.379|10.1248/CPB.43.1937|10.1248/CPB.44.1033|10.1248/CPB.44.1748|10.1248/CPB.45.1533|10.1248/CPB.46.1051|10.1248/CPB.46.1189|10.1248/CPB.46.166|10.1248/CPB.46.169|10.1248/CPB.51.1318|10.1248/CPB.55.474|10.1248/CPB.57.532|10.1248/CPB.58.971|10.1515/HFSG.1991.45.4.265|10.1590/S0103-50531998000300014|10.1590/S0103-50532003000300021|10.21608/BFSA.1987.74392|10.21608/BFSA.2000.66312|10.21608/BFSA.2001.65958|10.3109/13880208509069005|10.3109/13880209509088143|10.3109/13880209509088144|10.3329/DUJPS.V3I1.189|10.3390/ijms12106517|10.3998/ARK.5550190.0004.304|10.4067/S0366-16442000000100007|10.4103/0974-8490.65510|10.4268/CJCMM20100712|10.4268/CJCMM20111611|10.4268/CJCMM20112416|10.4268/CJCMM20131917|10.4324/9780203304310_CHAPTER_3|10.7324/JAPS.2015.50912

>  <synonyms>  (1454) 
nan

>  <cas>  (1454) 
473-98-3

$$$$

     RDKit          2D

 22 25  0  0  0  0  0  0  0  0999 V2000
   -7.0545    1.5212    0.0000 C   0  0  0  0  0  0  0  0  0  0  0  0
   -6.2667    0.2447    0.0000 O   0  0  0  0  0  0  0  0  0  0  0  0
   -4.7673    0.2889    0.0000 C   0  0  0  0  0  0  0  0  0  0  0  0
   -4.0558    1.6094    0.0000 C   0  0  0  0  0  0  0  0  0  0  0  0
   -2.5565    1.6535    0.0000 C   0  0  0  0  0  0  0  0  0  0  0  0
   -1.7686    0.3771    0.0000 C   0  0  0  0  0  0  0  0  0  0  0  0
   -2.4801   -0.9435    0.0000 C   0  0  0  0  0  0  0  0  0  0  0  0
   -3.9794   -0.9876    0.0000 C   0  0  0  0  0  0  0  0  0  0  0  0
   -1.6922   -2.2199    0.0000 O   0  0  0  0  0  0  0  0  0  0  0  0
   -0.1929   -2.1758    0.0000 C   0  0  0  0  0  0  0  0  0  0  0  0
    0.5950   -3.4522    0.0000 O   0  0  0  0  0  0  0  0  0  0  0  0
    0.5186   -0.8552    0.0000 C   0  0  0  0  0  0  0  0  0  0  0  0
   -0.2693    0.4212    0.0000 C   0  0  0  0  0  0  0  0  0  0  0  0
    0.7012    1.5649    0.0000 O   0  0  0  0  0  0  0  0  0  0  0  0
    2.0889    0.9954    0.0000 C   0  0  0  0  0  0  0  0  0  0  0  0
    3.4407    1.6455    0.0000 C   0  0  0  0  0  0  0  0  0  0  0  0
    4.6796    0.7999    0.0000 C   0  0  0  0  0  0  0  0  0  0  0  0
    6.0314    1.4501    0.0000 O   0  0  0  0  0  0  0  0  0  0  0  0
    7.2703    0.6045    0.0000 C   0  0  0  0  0  0  0  0  0  0  0  0
    4.5667   -0.6958    0.0000 C   0  0  0  0  0  0  0  0  0  0  0  0
    3.2150   -1.3460    0.0000 C   0  0  0  0  0  0  0  0  0  0  0  0
    1.9760   -0.5004    0.0000 C   0  0  0  0  0  0  0  0  0  0  0  0
  1  2  1  0
  2  3  1  0
  3  4  2  0
  4  5  1  0
  5  6  2  0
  6  7  1  0
  7  8  2  0
  7  9  1  0
  9 10  1  0
 10 11  2  0
 10 12  1  0
 12 13  2  0
 13 14  1  0
 14 15  1  0
 15 16  2  0
 16 17  1  0
 17 18  1  0
 18 19  1  0
 17 20  2  0
 20 21  1  0
 21 22  2  0
  8  3  1  0
 22 12  1  0
 13  6  1  0
 22 15  1  0
M  END
>  <identifier>  (1455) 
CNP0358965.0

>  <canonical_smiles>  (1455) 
COC1=CC=C2C(=C1)OC(=O)C1=C2OC2=CC(OC)=CC=C21

>  <standard_inchi>  (1455) 
InChI=1S/C17H12O5/c1-19-9-3-5-11-13(7-9)21-16-12-6-4-10(20-2)8-14(12)22-17(18)15(11)16/h3-8H,1-2H3

>  <standard_inchi_key>  (1455) 
PXHLPCBBXPHBHP-UHFFFAOYSA-N

>  <name>  (1455) 
Coumestrol dimethyl ether

>  <iupac_name>  (1455) 
3,9-dimethoxybenzofuro[3,2-c]chromen-6-one

>  <annotation_level>  (1455) 
5

>  <total_atom_count>  (1455) 
34

>  <heavy_atom_count>  (1455) 
22

>  <molecular_weight>  (1455) 
296.28

>  <exact_molecular_weight>  (1455) 
296.06847

>  <molecular_formula>  (1455) 
C17H12O5

>  <alogp>  (1455) 
3.71

>  <topological_polar_surface_area>  (1455) 
61.81

>  <rotatable_bond_count>  (1455) 
2

>  <hydrogen_bond_acceptors>  (1455) 
5

>  <hydrogen_bond_donors>  (1455) 
0

>  <hydrogen_bond_acceptors_lipinski>  (1455) 
5

>  <hydrogen_bond_donors_lipinski>  (1455) 
0

>  <lipinski_rule_of_five_violations>  (1455) 
0

>  <aromatic_rings_count>  (1455) 
4

>  <qed_drug_likeliness>  (1455) 
0.53

>  <formal_charge>  (1455) 
0

>  <fractioncsp3>  (1455) 
0.12

>  <number_of_minimal_rings>  (1455) 
4

>  <van_der_walls_volume>  (1455) 
246.46

>  <contains_sugar>  (1455) 
False

>  <contains_ring_sugars>  (1455) 
False

>  <contains_linear_sugars>  (1455) 
False

>  <murcko_framework>  (1455) 
o1c2ccccc2c3c1-c4ccccc4OC3

>  <np_likeness>  (1455) 
0.59

>  <chemical_class>  (1455) 
Isoflavonoids

>  <chemical_sub_class>  (1455) 
Coumestans

>  <chemical_super_class>  (1455) 
Phenylpropanoids and polyketides

>  <direct_parent_classification>  (1455) 
Coumestans

>  <np_classifier_pathway>  (1455) 
Shikimates and Phenylpropanoids

>  <np_classifier_superclass>  (1455) 
Isoflavonoids

>  <np_classifier_class>  (1455) 
Coumestan

>  <np_classifier_is_glycoside>  (1455) 
False

>  <organisms>  (1455) 
Bobgunnia madagascariensis|Dalbergia decipularis|Swartzia madagascariensis

>  <collections>  (1455) 
KNApSaCK|Latin America dataset|NPEdia|NuBBEDB|WikiData Natural Products|ZINC NP

>  <dois>  (1455) 
10.1016/S0031-9422(00)90130-4|10.1039/J39690001109

>  <synonyms>  (1455) 
3,9-DI-O-METHYLCOUMESTROL|3,9-Di-O-methylcoumesterol|3,9-Dimethylcoumestan|3,9-dimethoxy-[1]benzofuro[3,2-c]chromen-6-one|3172-99-4|39-dimethoxy-6-oxopterocarp-6a-enn, Coumestrol dimethyl ether|7,12-Dimethoxy-coumestan|Coumestrol dimethyl ether|Coumestrol dimethyl ether, BioReagent, suitable for fluorescence, >=95% (HPLC)|DTXSID60382935|Di-O-methylcoumestrol|J-018517|LMPK12090020

>  <cas>  (1455) 
3172-99-4

$$$$

     RDKit          2D

 26 28  0  0  0  0  0  0  0  0999 V2000
   -8.4838    0.8837    0.0000 C   0  0  0  0  0  0  0  0  0  0  0  0
   -7.6934   -0.3912    0.0000 O   0  0  0  0  0  0  0  0  0  0  0  0
   -6.1942   -0.3442    0.0000 C   0  0  0  0  0  0  0  0  0  0  0  0
   -5.4853    0.9777    0.0000 C   0  0  0  0  0  0  0  0  0  0  0  0
   -3.9860    1.0247    0.0000 C   0  0  0  0  0  0  0  0  0  0  0  0
   -3.1957   -0.2502    0.0000 C   0  0  0  0  0  0  0  0  0  0  0  0
   -1.6964   -0.2032    0.0000 C   0  0  0  0  0  0  0  0  0  0  0  0
   -0.9060   -1.4780    0.0000 C   0  0  0  0  0  0  0  0  0  0  0  0
    0.5932   -1.4310    0.0000 O   0  0  0  0  0  0  0  0  0  0  0  0
    1.3021   -0.1091    0.0000 C   0  0  0  0  0  0  0  0  0  0  0  0
    2.8014   -0.0621    0.0000 C   0  0  0  0  0  0  0  0  0  0  0  0
    3.5103    1.2598    0.0000 C   0  0  0  0  0  0  0  0  0  0  0  0
    5.0096    1.3068    0.0000 O   0  0  0  0  0  0  0  0  0  0  0  0
    5.7999    0.0319    0.0000 C   0  0  0  0  0  0  0  0  0  0  0  0
    7.2992    0.0789    0.0000 C   0  0  0  0  0  0  0  0  0  0  0  0
    8.0895   -1.1960    0.0000 C   0  0  0  0  0  0  0  0  0  0  0  0
    9.5888   -1.1490    0.0000 C   0  0  0  0  0  0  0  0  0  0  0  0
    7.3806   -2.5179    0.0000 C   0  0  0  0  0  0  0  0  0  0  0  0
    2.7200    2.5347    0.0000 C   0  0  0  0  0  0  0  0  0  0  0  0
    1.2207    2.4877    0.0000 C   0  0  0  0  0  0  0  0  0  0  0  0
    0.5118    1.1658    0.0000 C   0  0  0  0  0  0  0  0  0  0  0  0
   -0.9875    1.1188    0.0000 C   0  0  0  0  0  0  0  0  0  0  0  0
   -1.7778    2.3936    0.0000 O   0  0  0  0  0  0  0  0  0  0  0  0
   -3.9046   -1.5721    0.0000 C   0  0  0  0  0  0  0  0  0  0  0  0
   -5.4038   -1.6191    0.0000 C   0  0  0  0  0  0  0  0  0  0  0  0
   -6.1128   -2.9410    0.0000 O   0  0  0  0  0  0  0  0  0  0  0  0
  1  2  1  0
  2  3  1  0
  3  4  2  0
  4  5  1  0
  5  6  2  0
  6  7  1  0
  7  8  2  0
  8  9  1  0
  9 10  1  0
 10 11  2  0
 11 12  1  0
 12 13  1  0
 13 14  1  0
 14 15  1  0
 15 16  2  0
 16 17  1  0
 16 18  1  0
 12 19  2  0
 19 20  1  0
 20 21  2  0
 21 22  1  0
 22 23  2  0
  6 24  1  0
 24 25  2  0
 25 26  1  0
 25  3  1  0
 22  7  1  0
 21 10  1  0
M  END
>  <identifier>  (1456) 
CNP0350859.0

>  <canonical_smiles>  (1456) 
COC1=CC=C(C2=COC3=CC(OCC=C(C)C)=CC=C3C2=O)C=C1O

>  <standard_inchi>  (1456) 
InChI=1S/C21H20O5/c1-13(2)8-9-25-15-5-6-16-20(11-15)26-12-17(21(16)23)14-4-7-19(24-3)18(22)10-14/h4-8,10-12,22H,9H2,1-3H3

>  <standard_inchi_key>  (1456) 
BGBPWPNAHAYZRE-UHFFFAOYSA-N

>  <name>  (1456) 
7-Prenyloxy-3'-hydroxy-4'-methoxyisoflavone

>  <iupac_name>  (1456) 
3-(3-hydroxy-4-methoxy-phenyl)-7-(3-methylbut-2-enoxy)chromen-4-one

>  <annotation_level>  (1456) 
5

>  <total_atom_count>  (1456) 
46

>  <heavy_atom_count>  (1456) 
26

>  <molecular_weight>  (1456) 
352.39

>  <exact_molecular_weight>  (1456) 
352.13107

>  <molecular_formula>  (1456) 
C21H20O5

>  <alogp>  (1456) 
4.52

>  <topological_polar_surface_area>  (1456) 
68.90

>  <rotatable_bond_count>  (1456) 
5

>  <hydrogen_bond_acceptors>  (1456) 
5

>  <hydrogen_bond_donors>  (1456) 
1

>  <hydrogen_bond_acceptors_lipinski>  (1456) 
5

>  <hydrogen_bond_donors_lipinski>  (1456) 
1

>  <lipinski_rule_of_five_violations>  (1456) 
0

>  <aromatic_rings_count>  (1456) 
3

>  <qed_drug_likeliness>  (1456) 
0.68

>  <formal_charge>  (1456) 
0

>  <fractioncsp3>  (1456) 
0.19

>  <number_of_minimal_rings>  (1456) 
3

>  <van_der_walls_volume>  (1456) 
316.82

>  <contains_sugar>  (1456) 
False

>  <contains_ring_sugars>  (1456) 
False

>  <contains_linear_sugars>  (1456) 
False

>  <murcko_framework>  (1456) 
O1C=C(c2ccccc2)Cc3ccccc13

>  <np_likeness>  (1456) 
0.98

>  <chemical_class>  (1456) 
Isoflavonoids

>  <chemical_sub_class>  (1456) 
O-methylated isoflavonoids

>  <chemical_super_class>  (1456) 
Phenylpropanoids and polyketides

>  <direct_parent_classification>  (1456) 
3'-hydroxy,4'-methoxyisoflavonoids

>  <np_classifier_pathway>  (1456) 
Shikimates and Phenylpropanoids

>  <np_classifier_superclass>  (1456) 
Isoflavonoids

>  <np_classifier_class>  (1456) 
Isoflavones

>  <np_classifier_is_glycoside>  (1456) 
False

>  <organisms>  (1456) 
Calopogonium mucunoides

>  <collections>  (1456) 
KNApSaCK|Latin America dataset|NPEdia|NuBBEDB|Super Natural II|TIPdb (database of Taiwan indigenous plants)|UNPD (Universal Natural Products Database)|WikiData Natural Products|ZINC NP

>  <dois>  (1456) 
10.1016/S0031-9422(00)95305-6

>  <synonyms>  (1456) 
7-O-\u221a\u00e9\u00ac\u2265\u221a\u00e9\u00ac\u2265-dimethylallyl-3'-hydroxy-4'-methoxyisoflavone|7-Prenyloxy-3'-hydroxy-4'-methoxyisoflavone|LMPK12050050

>  <cas>  (1456) 
nan

$$$$

     RDKit          2D

 21 23  0  0  0  0  0  0  0  0999 V2000
   -4.1038    2.9225    0.0000 C   0  0  0  0  0  0  0  0  0  0  0  0
   -4.0621    1.4231    0.0000 O   0  0  0  0  0  0  0  0  0  0  0  0
   -2.7426    0.7096    0.0000 C   0  0  0  0  0  0  0  0  0  0  0  0
   -1.4650    1.4955    0.0000 C   0  0  0  0  0  0  0  0  0  0  0  0
   -0.1456    0.7820    0.0000 C   0  0  0  0  0  0  0  0  0  0  0  0
   -0.1038   -0.7175    0.0000 C   0  0  0  0  0  0  0  0  0  0  0  0
   -1.3814   -1.5034    0.0000 C   0  0  0  0  0  0  0  0  0  0  0  0
   -1.3396   -3.0028    0.0000 O   0  0  0  0  0  0  0  0  0  0  0  0
   -2.7008   -0.7898    0.0000 C   0  0  0  0  0  0  0  0  0  0  0  0
   -3.9785   -1.5757    0.0000 O   0  0  0  0  0  0  0  0  0  0  0  0
   -5.2979   -0.8622    0.0000 C   0  0  0  0  0  0  0  0  0  0  0  0
    1.2157   -1.4310    0.0000 C   0  0  0  0  0  0  0  0  0  0  0  0
    1.2574   -2.9304    0.0000 O   0  0  0  0  0  0  0  0  0  0  0  0
    2.4933   -0.6451    0.0000 C   0  0  0  0  0  0  0  0  0  0  0  0
    3.8127   -1.3586    0.0000 C   0  0  0  0  0  0  0  0  0  0  0  0
    5.0904   -0.5727    0.0000 C   0  0  0  0  0  0  0  0  0  0  0  0
    5.0486    0.9267    0.0000 C   0  0  0  0  0  0  0  0  0  0  0  0
    3.7291    1.6402    0.0000 C   0  0  0  0  0  0  0  0  0  0  0  0
    2.4515    0.8543    0.0000 C   0  0  0  0  0  0  0  0  0  0  0  0
    1.1321    1.5679    0.0000 N   0  0  0  0  0  0  0  0  0  0  0  0
    1.0903    3.0673    0.0000 C   0  0  0  0  0  0  0  0  0  0  0  0
  1  2  1  0
  2  3  1  0
  3  4  2  0
  4  5  1  0
  5  6  2  0
  6  7  1  0
  7  8  1  0
  7  9  2  0
  9 10  1  0
 10 11  1  0
  6 12  1  0
 12 13  2  0
 12 14  1  0
 14 15  2  0
 15 16  1  0
 16 17  2  0
 17 18  1  0
 18 19  2  0
 19 20  1  0
 20 21  1  0
  9  3  1  0
 19 14  1  0
 20  5  1  0
M  END
>  <identifier>  (1457) 
CNP0178533.0

>  <canonical_smiles>  (1457) 
COC1=CC2=C(C(O)=C1OC)C(=O)C1=CC=CC=C1N2C

>  <standard_inchi>  (1457) 
InChI=1S/C16H15NO4/c1-17-10-7-5-4-6-9(10)14(18)13-11(17)8-12(20-2)16(21-3)15(13)19/h4-8,19H,1-3H3

>  <standard_inchi_key>  (1457) 
ATBZZQPALSPNMF-UHFFFAOYSA-N

>  <name>  (1457) 
Arborinine

>  <iupac_name>  (1457) 
1-hydroxy-2,3-dimethoxy-10-methyl-acridin-9-one

>  <annotation_level>  (1457) 
5

>  <total_atom_count>  (1457) 
36

>  <heavy_atom_count>  (1457) 
21

>  <molecular_weight>  (1457) 
285.3

>  <exact_molecular_weight>  (1457) 
285.10011

>  <molecular_formula>  (1457) 
C16H15NO4

>  <alogp>  (1457) 
2.41

>  <topological_polar_surface_area>  (1457) 
60.69

>  <rotatable_bond_count>  (1457) 
2

>  <hydrogen_bond_acceptors>  (1457) 
5

>  <hydrogen_bond_donors>  (1457) 
1

>  <hydrogen_bond_acceptors_lipinski>  (1457) 
5

>  <hydrogen_bond_donors_lipinski>  (1457) 
1

>  <lipinski_rule_of_five_violations>  (1457) 
0

>  <aromatic_rings_count>  (1457) 
3

>  <qed_drug_likeliness>  (1457) 
0.73

>  <formal_charge>  (1457) 
0

>  <fractioncsp3>  (1457) 
0.19

>  <number_of_minimal_rings>  (1457) 
3

>  <van_der_walls_volume>  (1457) 
246.88

>  <contains_sugar>  (1457) 
False

>  <contains_ring_sugars>  (1457) 
False

>  <contains_linear_sugars>  (1457) 
False

>  <murcko_framework>  (1457) 
c1ccc2c(c1)Nc3ccccc3C2

>  <np_likeness>  (1457) 
0.71

>  <chemical_class>  (1457) 
Quinolines and derivatives

>  <chemical_sub_class>  (1457) 
Benzoquinolines

>  <chemical_super_class>  (1457) 
Organoheterocyclic compounds

>  <direct_parent_classification>  (1457) 
Acridones

>  <np_classifier_pathway>  (1457) 
Alkaloids

>  <np_classifier_superclass>  (1457) 
Anthranilic acid alkaloids

>  <np_classifier_class>  (1457) 
Acridone alkaloids

>  <np_classifier_is_glycoside>  (1457) 
False

>  <organisms>  (1457) 
Allium ramosum|Almeidea rubra|Bauerella simplicifolia|Boronia anemonifolia|Buchanania cochinchinensis|Cassia singueana|Citropsis articulata|Cladosporium phlei|Conchocarpus coeruleus|Dacrydium fonkii|Daphne tangutica|Erigeron acris|Ertela trifolia|Esenbeckia febrifuga|Euodia alata|Euodia xanthoxyloides|Evodia alata|Fagara leprieurii|Fusarium sulphureum|Glycosmis angustifolia|Glycosmis arborea|Glycosmis cochinchinensis|Glycosmis mauritiana|Glycosmis parva|Glycosmis pentaphylla|Ilex oblonga|Melicope micrococca|Melicope xanthoxyloides|Nemopilema nomurai|Pachysandra axillaris|Prunus padus|Ravenia spectabilis|Ruta Graveolens|Ruta chalepensis|Ruta chalepensis L.|Ruta graveolens|Ruta graveolens L.|Ruta macrophylla|Sarcomelicope megistophylla|Strychnos potatorum|Teclea gerrardii|Teclea natalensis|Teclea nobilis|Teclea trichocarpa|Tricleocarpa fragilis|Vepris bilocularis|Vepris boiviniana|Vepris gerrardii|Vepris nobilis|Vepris renieri|Vepris trichocarpa|Vitellaria paradoxa|Zanthoxylum gilletii|Zanthoxylum leprieurii|Zanthoxylum rubescens|Zanthoxylum simulans

>  <collections>  (1457) 
ANPDB|AfroDB|AfroMalariaDB|Australian natural products|BIOFACQUIM|CMAUP (cCollective molecular activities of useful plants)|ChEBI NPs|KNApSaCK|Latin America dataset|Mitishamba database|NANPDB (Natural Products from Northern African Sources)|NPASS|NPCARE|NPEdia|NuBBEDB|Phyto4Health|Specs Natural Products|Super Natural II|TCMDB-Taiwan (Traditional Chinese Medicine database)|TCMID (Traditional Chinese Medicine Integrated Database)|TIPdb (database of Taiwan indigenous plants)|TPPT (Toxic Plants–PhytoToxins)|UNPD (Universal Natural Products Database)|VietHerb|WikiData Natural Products

>  <dois>  (1457) 
10.1002/9780470744307.gat218|10.1002/CHIN.200413167|10.1002/CHIN.201034210|10.1002/JCCS.200300024|10.1002/biuz.19840140514|10.1002/food.19880321030|10.1007/BF00055511|10.1016/0031-9422(79)80218-6|10.1016/0031-9422(80)85143-0|10.1016/0031-9422(81)85282-X|10.1016/0031-9422(95)00922-1|10.1016/0040-4020(61)80074-4|10.1016/0378-8741(86)90156-X|10.1016/J.BMC.2010.03.040|10.1016/J.FITOTE.2004.03.008|10.1016/J.PHYMED.2008.02.001|10.1016/J.PHYTOCHEM.2003.09.013|10.1016/J.PHYTOCHEM.2006.10.011|10.1016/S0031-9422(00)84549-5|10.1016/S0031-9422(00)89294-8|10.1016/S0031-9422(00)90802-1|10.1016/S0031-9422(97)00280-X|10.1016/S0031-9422(98)00673-6|10.1016/S0367-326X(01)00265-9|10.1016/S0367-326X(99)00028-3|10.1016/j.bmc.2010.03.040|10.1016/s0031-9422(98)00673-6|10.1021/NP0106182|10.1021/NP0400611|10.1021/NP50032A026|10.1021/NP50048A057|10.1021/NP9904096|10.1021/np0106182|10.1021/np0400611|10.1055/S-0028-1097362|10.1055/S-0028-1099965|10.1055/S-2006-951747|10.1071/CH9550114|10.1071/CH9550114C|10.1071/ch9671719|10.1111/J.2042-7158.1971.TB12785.X|10.1248/CPB.47.1491|10.1248/CPB.47.1579|10.1248/CPB.57.1246|10.1590/S0100-40422012001100006|10.1590/S0103-50531998000100007|10.2307/4117899|10.3390/molecules23102693

>  <synonyms>  (1457) 
1-HYDROXY-2,3-DIMETHOXY-10-METHYL-9,10-DIHYDROACRIDIN-9-ONE|1-Hydroxy-2,3-dimethoxy-10-methyl-9(10H)-acridinone|1-hydroxy-2,3-dimethoxy-10-methylacridin-9-one|16XG8UE639|5489-57-6|9(10H)-Acridinone, 1-hydroxy-2,3-dimethoxy-10-methyl- (9CI)|9-Acridanone, 1-hydroxy-2,3-dimethoxy-10-methyl-|9-Acridanone,3-dimethoxy-10-methyl-|AKOS040761369|ATBZZQPALSPNMF-UHFFFAOYSA-N|Arborinin|Arbornine|BDBM50049390|CHEBI:2804|CHEMBL349609|CS-0102112|DS-009297|DTXSID60203378|HY-128912|NS00094756|NSC 94650|NSC-94650|NSC681020|Q27105822|SCHEMBL1663913|UNII-16XG8UE639|XA163699|arborinine

>  <cas>  (1457) 
5489-57-6

$$$$

     RDKit          2D

 16 15  0  0  0  0  0  0  0  0999 V2000
   -9.0895   -0.4574    0.0000 C   0  0  0  0  0  0  0  0  0  0  0  0
   -7.7973    0.3043    0.0000 C   0  0  0  0  0  0  0  0  0  0  0  0
   -6.4915   -0.4339    0.0000 C   0  0  0  0  0  0  0  0  0  0  0  0
   -5.1993    0.3279    0.0000 C   0  0  0  0  0  0  0  0  0  0  0  0
   -3.8936   -0.4103    0.0000 C   0  0  0  0  0  0  0  0  0  0  0  0
   -2.6014    0.3514    0.0000 C   0  0  0  0  0  0  0  0  0  0  0  0
   -1.2956   -0.3868    0.0000 C   0  0  0  0  0  0  0  0  0  0  0  0
   -0.0034    0.3750    0.0000 C   0  0  0  0  0  0  0  0  0  0  0  0
    1.3024   -0.3632    0.0000 C   0  0  0  0  0  0  0  0  0  0  0  0
    2.5946    0.3985    0.0000 C   0  0  0  0  0  0  0  0  0  0  0  0
    2.5810    1.8985    0.0000 O   0  0  0  0  0  0  0  0  0  0  0  0
    3.9004   -0.3396    0.0000 N   0  0  0  0  0  0  0  0  0  0  0  0
    5.1925    0.4221    0.0000 C   0  0  0  0  0  0  0  0  0  0  0  0
    6.4983   -0.3161    0.0000 C   0  0  0  0  0  0  0  0  0  0  0  0
    7.7905    0.4457    0.0000 C   0  0  0  0  0  0  0  0  0  0  0  0
    6.5119   -1.8160    0.0000 C   0  0  0  0  0  0  0  0  0  0  0  0
  1  2  1  0
  2  3  1  0
  3  4  1  0
  4  5  1  0
  5  6  1  0
  6  7  2  0
  7  8  1  0
  8  9  2  0
  9 10  1  0
 10 11  2  0
 10 12  1  0
 12 13  1  0
 13 14  1  0
 14 15  1  0
 14 16  1  0
M  END
>  <identifier>  (1458) 
CNP0147800.1

>  <canonical_smiles>  (1458) 
CCCCC/C=C/C=C/C(=O)NCC(C)C

>  <standard_inchi>  (1458) 
InChI=1S/C14H25NO/c1-4-5-6-7-8-9-10-11-14(16)15-12-13(2)3/h8-11,13H,4-7,12H2,1-3H3,(H,15,16)/b9-8+,11-10+

>  <standard_inchi_key>  (1458) 
MAGQQZHFHJDIRE-BNFZFUHLSA-N

>  <name>  (1458) 
nan

>  <iupac_name>  (1458) 
nan

>  <annotation_level>  (1458) 
0

>  <total_atom_count>  (1458) 
41

>  <heavy_atom_count>  (1458) 
16

>  <molecular_weight>  (1458) 
223.36

>  <exact_molecular_weight>  (1458) 
223.19361

>  <molecular_formula>  (1458) 
C14H25NO

>  <alogp>  (1458) 
3.45

>  <topological_polar_surface_area>  (1458) 
29.10

>  <rotatable_bond_count>  (1458) 
8

>  <hydrogen_bond_acceptors>  (1458) 
1

>  <hydrogen_bond_donors>  (1458) 
1

>  <hydrogen_bond_acceptors_lipinski>  (1458) 
1

>  <hydrogen_bond_donors_lipinski>  (1458) 
1

>  <lipinski_rule_of_five_violations>  (1458) 
0

>  <aromatic_rings_count>  (1458) 
0

>  <qed_drug_likeliness>  (1458) 
0.38

>  <formal_charge>  (1458) 
0

>  <fractioncsp3>  (1458) 
0.64

>  <number_of_minimal_rings>  (1458) 
0

>  <van_der_walls_volume>  (1458) 
249.00

>  <contains_sugar>  (1458) 
False

>  <contains_ring_sugars>  (1458) 
False

>  <contains_linear_sugars>  (1458) 
False

>  <murcko_framework>  (1458) 
nan

>  <np_likeness>  (1458) 
1.06

>  <chemical_class>  (1458) 
nan

>  <chemical_sub_class>  (1458) 
nan

>  <chemical_super_class>  (1458) 
nan

>  <direct_parent_classification>  (1458) 
nan

>  <np_classifier_pathway>  (1458) 
Fatty acids

>  <np_classifier_superclass>  (1458) 
Fatty amides

>  <np_classifier_class>  (1458) 
N-acyl amines

>  <np_classifier_is_glycoside>  (1458) 
False

>  <organisms>  (1458) 
Abies webbiana|Acanthosyris paulo-alvinii|Achillea asiatica|Achillea dracunculus|Achillea falcata|Achillea formosa|Achillea glaberrima|Achillea macrophylla|Achillea magnifica|Achillea millefolium|Achillea sp.|Achillea spinulifolia|Aconitum episcopale|Agaricus xanthodermus|Agarum asiaticum|Aglaia perviridis|Alstonia vitiensis|Anacyclus pyrethrum|Anacyclus sp.|Anoplophora chinensis|Ardisia arborescens|Ardisia japonica|Aromia moschata|Artemisia Dracunculus|Artemisia indica|Asarum heterotropoides|Asarum sp.|Aspilia platyphylla|Bellardia viscosa|Betula alnoides|Brickellia longifolia|Bupleurum rigidum|Cacia concinna|Calliandra eriophylla|Candida albicaus|Carpesium longifolium|Castilleja sulphurea|Cissampelos glaberrima|Cochlearia officinalis|Coelogyne nitida|Coleonema album|Coleonema pulchellum|Corydalis thalictrifolia|Corymbia scabrida|Crocus corsicus|Ctenium aromaticum|Dichotomanthes tristaniicarpa|Didymosphaeria enalia|Dioscorea sativa|Dracontium loretense|Dryobalanops camphora|Dryopteris arguta|Eucalyptus hybrid|Euphorbia wangii|Forsythia japonica|Frullania brasiliensis|Garcinia oligantha|Gyalolechia fulgida|Gymnosporia trigyna|Hippocrepis emerus|Homalium laurifolium|Huperzia miyoshiana|Iris spuria|Isolona congolana|Isolona maitlandii|Kallichroma tethys|Kopsia jasminiflora|Kopsia lapidilecta|Leifsonia aquatica|Leucocyclus formosus|Libanotis transcaucasica|Lindera aggregata|Lophocolea bidentata|Matricaria pubescens|Matsumurella chinensis|Monascus rubropunctatus|Mycoplasma mycoides|Nymphaea caerulea|Odontocline hollickii|Oocystis polymorpha|Pagrus major|Palisota barteri|Parmelia vittata|Penicillium puberulum|Penicillium tardum|Phoebe grandis|Photorhabdus luminescens|Phytolacca thyrsiflora|Pilocarpus trachylophus|Pinus aristata|Pinus hartwegii|Piper Longum|Piper Nigrum|Piper Retrofractum|Piper Sarmentosum|Piper boehmeriaefolium|Piper formosum|Piper glaberrimum|Piper hederaceum|Piper kadsura|Piper lolot|Piper longum|Piper mullesua|Piper neesii|Piper nigrum|Piper novae-hollandiae|Piper pedicellatum|Piper pedicellosum|Piper retrofractum|Piper sarmentosum|Piper sp.|Piper suipigua|Piper swartzianum|Piper sylvaticum|Piper tuberculatum|Plenckia populnea|Pocillopora damicornis|Podocarpus minor|Pothomorphe peltata|Protaetia cuprea|Pseudobrickellia brasiliensis|Pseudomonas stutzeri|Remusatia vivipara|Rhododendron latoucheae|Rubus pileatus|Rubus trifidus|Scabiosa rotata|Schefflera venulosa|Silene banksia|Stauranthus perforatus|Streptomyces amakusaensis|Tanacetum macrophyllum|Tephrosia semiglabra|Tetradium daniellii|Umbilicaria hypococcinea|Venus mercenaria|Verbesina virginica|West African Pepper|Zanthoxylum acutifolium|Zanthoxylum asiaticum|Zanthoxylum caribaeum|Zanthoxylum gilletii|Zanthoxylum sp.|Zanthoxylum usambarense|Zanthoxylum zanthoxyloides|dinosperma erythrococca|tarragon

>  <collections>  (1458) 
ANPDB|AnalytiCon Discovery NPs|Australian natural products|CMAUP (cCollective molecular activities of useful plants)|ChEBI NPs|ChemSpider NPs|ETM (Ethiopian Traditional Medicine) DB|GNPS (Global Natural Products Social Molecular Networking)|NANPDB (Natural Products from Northern African Sources)|NPASS|NuBBEDB|PhytoLab phyproof® Reference Substances|SANCDB|Super Natural II|TCMDB-Taiwan (Traditional Chinese Medicine database)|VietHerb|WikiData Natural Products|ZINC NP

>  <dois>  (1458) 
10.1002/CHIN.200340213|10.1002/CHIN.200352219|10.1002/CHIN.200447158|10.1002/CHIN.200517223|10.1002/JHRC.1240090712|10.1002/JLAC.198319830712|10.1002/JPS.2600630733|10.1002/PCA.716|10.1002/PS.1643|10.1002/ptr.849|10.1007/BF01934791|10.1007/BF01952540|10.1007/S11418-007-0159-2|10.1016/0031-9422(74)80272-4|10.1016/0031-9422(81)83098-1|10.1016/0031-9422(83)80032-6|10.1016/0031-9422(92)83738-K|10.1016/0031-9422(95)00333-3|10.1016/0031-9422(95)00852-7|10.1016/0041-0101(92)90048-A|10.1016/J.BMC.2009.08.050|10.1016/J.BMCL.2008.07.045|10.1016/J.CHROMA.2004.03.056|10.1016/J.JEP.2004.01.022|10.1016/J.PHYTOCHEM.2004.12.028|10.1016/J.SAJB.2019.06.015|10.1016/S0031-9422(00)00226-0|10.1016/S0031-9422(00)80494-X|10.1016/S0031-9422(00)82418-8|10.1016/S0031-9422(00)82632-1|10.1016/S0031-9422(00)88190-X|10.1016/S0031-9422(00)88579-9|10.1016/S0031-9422(00)97985-8|10.1016/S0031-9422(01)00347-8|10.1016/S0031-9422(01)00431-9|10.1016/S0031-9422(97)00124-6|10.1016/S0031-9422(98)00208-8|10.1016/S0167-4501(06)80006-3|10.1016/S0305-1978(00)00011-9|10.1016/S0367-326X(00)00271-9|10.1016/S0968-0896(02)00130-X|10.1016/s0031-9422(00)97985-8|10.1021/JF00103A029|10.1021/JF011457A|10.1021/JF071963L|10.1021/NP030475E|10.1021/NP030475E.S001|10.1021/NP100606U|10.1021/NP200557E|10.1021/NP50041A042|10.1021/NP50046A035|10.1021/np9705569|10.1039/C3AN00016H|10.1039/C4FO00435C|10.1055/S-2002-34410|10.1055/S-2003-38877|10.1055/S-2006-941504|10.1055/S-2006-957913|10.1055/S-2006-957982|10.1055/S-2006-959404|10.1055/S-2006-960460|10.1055/S-2006-960985|10.1055/S-2006-961017|10.1055/S-2006-962041|10.1055/s-2006-960985|10.1071/CH9691531|10.1071/ch9691531|10.1076/PHBI.39.3.236.5926|10.1080/00021369.1981.10864708|10.1080/14786410902757998|10.1093/JAOAC/83.6.1484|10.1139/V96-046|10.1177/1934578X0600100101|10.1248/CPB.29.564|10.1248/CPB.52.1349|10.1248/CPB.54.149|10.1271/BBB.57.1329|10.1271/BBB.58.936|10.3390/MOLECULES15042398|10.3390/MOLECULES19056428|10.3987/COM-02-9518|10.5012/BKCS.2010.31.04.921

>  <synonyms>  (1458) 
2E,4E-Decadienoic acid N-isobutylamide|N-Isobutyl 2E,4E-decadienamide

>  <cas>  (1458) 
18836-52-7

$$$$

     RDKit          2D

 20 21  0  0  0  0  0  0  0  0999 V2000
   -1.5093   -2.6749    0.0000 O   0  0  0  0  0  0  0  0  0  0  0  0
   -1.3592   -1.1824    0.0000 C   0  0  0  0  0  0  0  0  0  0  0  0
    0.0083   -0.5662    0.0000 C   0  0  0  0  0  0  0  0  0  0  0  0
    1.2258   -1.4424    0.0000 C   0  0  0  0  0  0  0  0  0  0  0  0
    2.5934   -0.8261    0.0000 C   0  0  0  0  0  0  0  0  0  0  0  0
    3.8108   -1.7024    0.0000 C   0  0  0  0  0  0  0  0  0  0  0  0
    5.1784   -1.0861    0.0000 C   0  0  0  0  0  0  0  0  0  0  0  0
    5.3285    0.4064    0.0000 C   0  0  0  0  0  0  0  0  0  0  0  0
    6.6961    1.0226    0.0000 O   0  0  0  0  0  0  0  0  0  0  0  0
    4.1110    1.2826    0.0000 C   0  0  0  0  0  0  0  0  0  0  0  0
    4.2611    2.7750    0.0000 O   0  0  0  0  0  0  0  0  0  0  0  0
    2.7435    0.6663    0.0000 C   0  0  0  0  0  0  0  0  0  0  0  0
   -2.5767   -0.3062    0.0000 C   0  0  0  0  0  0  0  0  0  0  0  0
   -2.4266    1.1863    0.0000 C   0  0  0  0  0  0  0  0  0  0  0  0
   -3.6441    2.0625    0.0000 C   0  0  0  0  0  0  0  0  0  0  0  0
   -5.0116    1.4462    0.0000 C   0  0  0  0  0  0  0  0  0  0  0  0
   -6.2291    2.3225    0.0000 O   0  0  0  0  0  0  0  0  0  0  0  0
   -5.1617   -0.0462    0.0000 C   0  0  0  0  0  0  0  0  0  0  0  0
   -3.9443   -0.9225    0.0000 C   0  0  0  0  0  0  0  0  0  0  0  0
   -4.0944   -2.4149    0.0000 O   0  0  0  0  0  0  0  0  0  0  0  0
  1  2  2  0
  2  3  1  0
  3  4  2  0
  4  5  1  0
  5  6  2  0
  6  7  1  0
  7  8  2  0
  8  9  1  0
  8 10  1  0
 10 11  1  0
 10 12  2  0
  2 13  1  0
 13 14  2  0
 14 15  1  0
 15 16  2  0
 16 17  1  0
 16 18  1  0
 18 19  2  0
 19 20  1  0
 12  5  1  0
 19 13  1  0
M  END
>  <identifier>  (1459) 
CNP0336049.1

>  <canonical_smiles>  (1459) 
O=C(/C=C/C1=CC=C(O)C(O)=C1)C1=CC=C(O)C=C1O

>  <standard_inchi>  (1459) 
InChI=1S/C15H12O5/c16-10-3-4-11(14(19)8-10)12(17)5-1-9-2-6-13(18)15(20)7-9/h1-8,16,18-20H/b5-1+

>  <standard_inchi_key>  (1459) 
AYMYWHCQALZEGT-ORCRQEGFSA-N

>  <name>  (1459) 
nan

>  <iupac_name>  (1459) 
nan

>  <annotation_level>  (1459) 
0

>  <total_atom_count>  (1459) 
32

>  <heavy_atom_count>  (1459) 
20

>  <molecular_weight>  (1459) 
272.26

>  <exact_molecular_weight>  (1459) 
272.06847

>  <molecular_formula>  (1459) 
C15H12O5

>  <alogp>  (1459) 
2.41

>  <topological_polar_surface_area>  (1459) 
97.99

>  <rotatable_bond_count>  (1459) 
3

>  <hydrogen_bond_acceptors>  (1459) 
5

>  <hydrogen_bond_donors>  (1459) 
4

>  <hydrogen_bond_acceptors_lipinski>  (1459) 
5

>  <hydrogen_bond_donors_lipinski>  (1459) 
4

>  <lipinski_rule_of_five_violations>  (1459) 
0

>  <aromatic_rings_count>  (1459) 
2

>  <qed_drug_likeliness>  (1459) 
0.39

>  <formal_charge>  (1459) 
0

>  <fractioncsp3>  (1459) 
0.00

>  <number_of_minimal_rings>  (1459) 
2

>  <van_der_walls_volume>  (1459) 
234.78

>  <contains_sugar>  (1459) 
False

>  <contains_ring_sugars>  (1459) 
False

>  <contains_linear_sugars>  (1459) 
False

>  <murcko_framework>  (1459) 
c1ccc(cc1)C=CCc2ccccc2

>  <np_likeness>  (1459) 
0.96

>  <chemical_class>  (1459) 
nan

>  <chemical_sub_class>  (1459) 
nan

>  <chemical_super_class>  (1459) 
nan

>  <direct_parent_classification>  (1459) 
nan

>  <np_classifier_pathway>  (1459) 
Shikimates and Phenylpropanoids

>  <np_classifier_superclass>  (1459) 
Flavonoids

>  <np_classifier_class>  (1459) 
Chalcones

>  <np_classifier_is_glycoside>  (1459) 
False

>  <organisms>  (1459) 
Acacia baileyana|Acacia binervata|Acacia buxifolia|Acacia calamifolia|Acacia cardiophylla|Acacia chrysotricha|Acacia clunies-rossiae|Acacia dealbata|Acacia deanei|Acacia decora|Acacia falciformis|Acacia filicifolia|Acacia irrorata|Acacia kettlewelliae|Acacia lanigera|Acacia leucoclada|Acacia mabellae|Acacia mearnsii|Acacia melanoxylon|Acacia neriifolia|Acacia oshanesii|Acacia parramattensis|Acacia pycnantha|Acacia rubida|Acacia silvestris|Acacia spp.|Acacia terminalis|Acacia trachyphloia|Acacia vestita|Aeschrion excelsa|Artemisia ludoviciana|Asteraceae|Baeria chrysostoma|Bahiopsis laciniata|Biancaea decapetala|Bidens pilosa|Bidens spp.|Bidens tripartita|Brachymeris montana|Brucea javanica|Bryocaulon pseudosatoanum|Butea frondosa|Butea monosperma|Caesalpinia japonica|Calanticaria bicolor|Calanticaria brevifolia|Calanticaria greggii|Calycotome villosa|Camchaya loloana|Capsicum annuum|Chrysanthemum uliginosum|Cirsium chinense|Conyza japonica|Coreopsis basalis|Coreopsis bigelovii|Coreopsis californica|Coreopsis calliopsidea|Coreopsis douglasii|Coreopsis falcata|Coreopsis floridana|Coreopsis gigantea|Coreopsis gladiata|Coreopsis hamiltonii|Coreopsis integrifolia|Coreopsis latifolia|Coreopsis leavenworthii|Coreopsis linifolia|Coreopsis maritima|Coreopsis mcvaughii|Coreopsis nudata|Coreopsis nuecensis|Coreopsis nuecensoides|Coreopsis palmata|Coreopsis paludosa|Coreopsis petrophila|Coreopsis petrophiloides|Coreopsis pringlei|Coreopsis rhyacophila|Coreopsis rosea|Coreopsis stillmanii|Coreopsis tinctoria|Coreopsis tripteris|Coreopsis wrightii|Cosmos sulphureus|Crotalus atrox|Croton zehntneri|Dahlia pinnata|Dahlia variabilis|Dalbergia odorifera|Dalbergia sissoo|Dendrobium candidum|Dendroviguiera eriophora|Dendroviguiera insignis|Dipteryx lacunifera|Dorstenia dinklagei|Electranthera cuneifolia|Electranthera mutica|Electranthera parvifolia|Erysimum siliculosum|Euphrasia stricta|Glycine soja|Heliomeris multiflora var. multiflora|Heterosperma mexicanum|Hydnophytum formicarum|Junceella gemmacea|Kaempferia rotunda|Lasthenia californica|Melanthera prostrata|Millettia dura|Morus alba|Neurymenia fraxinifolia|Panzeria canescens|Rhaponticum carthamoides|Rhus javanica|Robinia pseudoacacia|Sapium haematospermum|Sophora alopecuroides|Spatholobus suberectus|Toxicodendron semilata|Toxicodendron vernicifluum|Trichocereus werdermannianus|Turpinia arguta|Ventilago vitiensis|Vicia faba|Viguiera|Viguiera eriophora|Viguiera multiflora|Wollastonia dentata|broad bean|heamatoxylon campechianum

>  <collections>  (1459) 
ANPDB|Australian natural products|CMAUP (cCollective molecular activities of useful plants)|ChEBI NPs|ChemSpider NPs|FooDB|KNApSaCK|Latin America dataset|NANPDB (Natural Products from Northern African Sources)|NPACT|NPASS|NPEdia|NuBBEDB|Phenol-explorer|Phyto4Health|Super Natural II|TCMDB-Taiwan (Traditional Chinese Medicine database)|TIPdb (database of Taiwan indigenous plants)|WikiData Natural Products|ZINC NP

>  <dois>  (1459) 
10.1002/HLCA.200890233|10.1002/J.1537-2197.1983.TB06402.X|10.1002/RCM.1936|10.1002/hlca.200890233|10.1007/BF00563663|10.1007/BF00605215|10.1007/S10600-009-9360-8|10.1016/0031-9422(89)85049-6|10.1016/0305-1978(88)90035-X|10.1016/0305-1978(88)90036-1|10.1016/0305-1978(89)90096-3|10.1016/J.BMCL.2013.04.032|10.1016/J.CHROMA.2011.06.091|10.1016/J.FCT.2012.03.052|10.1016/J.FOODCHEM.2019.125629|10.1016/S0005-2760(98)00043-5|10.1016/S0031-9422(00)85959-2|10.1016/S0304-4165(02)00196-4|10.1016/S0367-326X(03)00061-3|10.1016/j.bmcl.2013.04.032|10.1016/s0031-9422(00)85959-2|10.1021/JA01259A066|10.1021/JA01848A006|10.1021/JA01855A053|10.1021/JF00002A006|10.1021/JO01081A033|10.1021/NP070478H|10.1021/jm701501x|10.1039/CT9048501459|10.1039/JR9390001017|10.1055/S-2006-957394|10.1071/ch9721943c|10.1246/BCSJ.45.2274|10.1246/NIKKASHI1948.87.11_1201|10.1248/BPB.31.1626|10.1248/BPB.34.97|10.1248/CPB.35.3568|10.1248/CPB.57.428|10.1515/ZNC-1995-7-819|10.21608/BFSA.1998.67842|10.3390/MOLECULES13040904|10.3987/COM-11-12275

>  <synonyms>  (1459) 
nan

>  <cas>  (1459) 
487-52-5

$$$$

     RDKit          2D

 23 25  0  0  0  0  0  0  0  0999 V2000
   -6.1995   -2.1350    0.0000 C   0  0  0  0  0  0  0  0  0  0  0  0
   -5.6107   -0.7554    0.0000 C   0  0  0  0  0  0  0  0  0  0  0  0
   -7.0716   -0.4151    0.0000 C   0  0  0  0  0  0  0  0  0  0  0  0
   -5.5293    0.7424    0.0000 C   0  0  0  0  0  0  0  0  0  0  0  0
   -4.1915    1.4208    0.0000 C   0  0  0  0  0  0  0  0  0  0  0  0
   -2.9351    0.6014    0.0000 C   0  0  0  0  0  0  0  0  0  0  0  0
   -3.0165   -0.8964    0.0000 C   0  0  0  0  0  0  0  0  0  0  0  0
   -1.7600   -1.7158    0.0000 C   0  0  0  0  0  0  0  0  0  0  0  0
   -0.4222   -1.0374    0.0000 C   0  0  0  0  0  0  0  0  0  0  0  0
   -0.3408    0.4604    0.0000 C   0  0  0  0  0  0  0  0  0  0  0  0
    0.9970    1.1388    0.0000 C   0  0  0  0  0  0  0  0  0  0  0  0
    1.0784    2.6366    0.0000 O   0  0  0  0  0  0  0  0  0  0  0  0
    2.2534    0.3195    0.0000 C   0  0  0  0  0  0  0  0  0  0  0  0
    3.5912    0.9979    0.0000 C   0  0  0  0  0  0  0  0  0  0  0  0
    4.8477    0.1785    0.0000 C   0  0  0  0  0  0  0  0  0  0  0  0
    4.7663   -1.3193    0.0000 C   0  0  0  0  0  0  0  0  0  0  0  0
    6.0227   -2.1387    0.0000 C   0  0  0  0  0  0  0  0  0  0  0  0
    7.3605   -1.4603    0.0000 C   0  0  0  0  0  0  0  0  0  0  0  0
    7.4419    0.0375    0.0000 C   0  0  0  0  0  0  0  0  0  0  0  0
    6.1855    0.8569    0.0000 C   0  0  0  0  0  0  0  0  0  0  0  0
   -1.5972    1.2798    0.0000 C   0  0  0  0  0  0  0  0  0  0  0  0
   -1.5159    2.7776    0.0000 O   0  0  0  0  0  0  0  0  0  0  0  0
   -4.3543   -1.5748    0.0000 O   0  0  0  0  0  0  0  0  0  0  0  0
  1  2  1  0
  2  3  1  0
  2  4  1  0
  4  5  2  0
  5  6  1  0
  6  7  2  0
  7  8  1  0
  8  9  2  0
  9 10  1  0
 10 11  1  0
 11 12  2  0
 11 13  1  0
 13 14  2  0
 14 15  1  0
 15 16  2  0
 16 17  1  0
 17 18  2  0
 18 19  1  0
 19 20  2  0
 10 21  2  0
 21 22  1  0
  7 23  1  0
 23  2  1  0
 21  6  1  0
 20 15  1  0
M  END
>  <identifier>  (1460) 
CNP0143569.1

>  <canonical_smiles>  (1460) 
CC1(C)C=CC2=C(C=CC(C(=O)/C=C/C3=CC=CC=C3)=C2O)O1

>  <standard_inchi>  (1460) 
InChI=1S/C20H18O3/c1-20(2)13-12-16-18(23-20)11-9-15(19(16)22)17(21)10-8-14-6-4-3-5-7-14/h3-13,22H,1-2H3/b10-8+

>  <standard_inchi_key>  (1460) 
UEXPKLJRGIWQBF-CSKARUKUSA-N

>  <name>  (1460) 
nan

>  <iupac_name>  (1460) 
nan

>  <annotation_level>  (1460) 
0

>  <total_atom_count>  (1460) 
41

>  <heavy_atom_count>  (1460) 
23

>  <molecular_weight>  (1460) 
306.36

>  <exact_molecular_weight>  (1460) 
306.12559

>  <molecular_formula>  (1460) 
C20H18O3

>  <alogp>  (1460) 
4.47

>  <topological_polar_surface_area>  (1460) 
46.53

>  <rotatable_bond_count>  (1460) 
3

>  <hydrogen_bond_acceptors>  (1460) 
3

>  <hydrogen_bond_donors>  (1460) 
1

>  <hydrogen_bond_acceptors_lipinski>  (1460) 
3

>  <hydrogen_bond_donors_lipinski>  (1460) 
1

>  <lipinski_rule_of_five_violations>  (1460) 
0

>  <aromatic_rings_count>  (1460) 
2

>  <qed_drug_likeliness>  (1460) 
0.67

>  <formal_charge>  (1460) 
0

>  <fractioncsp3>  (1460) 
0.15

>  <number_of_minimal_rings>  (1460) 
3

>  <van_der_walls_volume>  (1460) 
283.02

>  <contains_sugar>  (1460) 
False

>  <contains_ring_sugars>  (1460) 
False

>  <contains_linear_sugars>  (1460) 
False

>  <murcko_framework>  (1460) 
O1c2ccc(cc2C=CC1)CC=Cc3ccccc3

>  <np_likeness>  (1460) 
1.66

>  <chemical_class>  (1460) 
nan

>  <chemical_sub_class>  (1460) 
nan

>  <chemical_super_class>  (1460) 
nan

>  <direct_parent_classification>  (1460) 
nan

>  <np_classifier_pathway>  (1460) 
Shikimates and Phenylpropanoids

>  <np_classifier_superclass>  (1460) 
Flavonoids

>  <np_classifier_class>  (1460) 
Chalcones

>  <np_classifier_is_glycoside>  (1460) 
False

>  <organisms>  (1460) 
Derris floribunda|Derris sericea|Derris trifoliata|Erythroxylum barbatum|Fabaceae|Lactuca floridana|Leguminosae|Lonchocarpus laxiflorus|Lonchocarpus neuroscapha|Lonchocarpus sericeus|Lonchocarpus xuul|Millettia pinnata|Millettia pulchra|Philenoptera laxiflora|Pongamia pinnata|Scorzoneroides autumnalis

>  <collections>  (1460) 
AnalytiCon Discovery NPs|Australian natural products|CMAUP (cCollective molecular activities of useful plants)|InflamNat|KNApSaCK|Latin America dataset|NPASS|NPEdia|NuBBEDB|Super Natural II|TIPdb (database of Taiwan indigenous plants)|WikiData Natural Products|ZINC NP

>  <dois>  (1460) 
10.1016/J.BMCL.2014.11.015|10.1016/J.BMCL.2015.01.009|10.1016/J.PHRS.2017.02.027|10.1016/J.PHYTOCHEM.2018.02.005|10.1016/S0031-9422(00)98664-3|10.1016/S0305-1978(02)00249-1|10.1016/j.bmcl.2014.11.015|10.1016/j.phrs.2017.02.027|10.1016/j.phytochem.2018.02.005|10.1021/NP50048A064|10.1039/J39690000887

>  <synonyms>  (1460) 
nan

>  <cas>  (1460) 
nan

$$$$

     RDKit          2D

 26 27  0  0  0  0  0  0  0  0999 V2000
    5.7084   -4.6257    0.0000 C   0  0  0  0  0  0  0  0  0  0  0  0
    4.7205   -3.4970    0.0000 C   0  0  0  0  0  0  0  0  0  0  0  0
    5.2041   -2.0770    0.0000 C   0  0  0  0  0  0  0  0  0  0  0  0
    4.2162   -0.9483    0.0000 C   0  0  0  0  0  0  0  0  0  0  0  0
    2.7447   -1.2395    0.0000 C   0  0  0  0  0  0  0  0  0  0  0  0
    1.7568   -0.1107    0.0000 C   0  0  0  0  0  0  0  0  0  0  0  0
    2.2404    1.3092    0.0000 C   0  0  0  0  0  0  0  0  0  0  0  0
    1.2525    2.4379    0.0000 O   0  0  0  0  0  0  0  0  0  0  0  0
   -0.2190    2.1467    0.0000 C   0  0  0  0  0  0  0  0  0  0  0  0
   -1.2069    3.2755    0.0000 C   0  0  0  0  0  0  0  0  0  0  0  0
   -0.7025    0.7268    0.0000 C   0  0  0  0  0  0  0  0  0  0  0  0
    0.2854   -0.4019    0.0000 O   0  0  0  0  0  0  0  0  0  0  0  0
   -2.1740    0.4356    0.0000 C   0  0  0  0  0  0  0  0  0  0  0  0
   -3.1619    1.5644    0.0000 C   0  0  0  0  0  0  0  0  0  0  0  0
   -4.6334    1.2732    0.0000 C   0  0  0  0  0  0  0  0  0  0  0  0
   -5.1169   -0.1467    0.0000 C   0  0  0  0  0  0  0  0  0  0  0  0
   -6.5884   -0.4379    0.0000 O   0  0  0  0  0  0  0  0  0  0  0  0
   -7.5763    0.6908    0.0000 C   0  0  0  0  0  0  0  0  0  0  0  0
   -4.1290   -1.2755    0.0000 C   0  0  0  0  0  0  0  0  0  0  0  0
   -4.6126   -2.6954    0.0000 O   0  0  0  0  0  0  0  0  0  0  0  0
   -3.6247   -3.8241    0.0000 C   0  0  0  0  0  0  0  0  0  0  0  0
   -2.6576   -0.9843    0.0000 C   0  0  0  0  0  0  0  0  0  0  0  0
    3.7119    1.6004    0.0000 C   0  0  0  0  0  0  0  0  0  0  0  0
    4.1954    3.0203    0.0000 O   0  0  0  0  0  0  0  0  0  0  0  0
    5.6669    3.3115    0.0000 C   0  0  0  0  0  0  0  0  0  0  0  0
    4.6998    0.4716    0.0000 C   0  0  0  0  0  0  0  0  0  0  0  0
  1  2  1  0
  2  3  2  0
  3  4  1  0
  4  5  2  0
  5  6  1  0
  6  7  2  0
  7  8  1  0
  8  9  1  0
  9 10  1  0
  9 11  1  0
 11 12  2  0
 11 13  1  0
 13 14  2  0
 14 15  1  0
 15 16  2  0
 16 17  1  0
 17 18  1  0
 16 19  1  0
 19 20  1  0
 20 21  1  0
 19 22  2  0
  7 23  1  0
 23 24  1  0
 24 25  1  0
 23 26  2  0
 26  4  1  0
 22 13  1  0
M  END
>  <identifier>  (1461) 
CNP0080462.2

>  <canonical_smiles>  (1461) 
C/C=C/C1=CC=C(OC(C)C(=O)C2=CC=C(OC)C(OC)=C2)C(OC)=C1

>  <standard_inchi>  (1461) 
InChI=1S/C21H24O5/c1-6-7-15-8-10-18(19(12-15)24-4)26-14(2)21(22)16-9-11-17(23-3)20(13-16)25-5/h6-14H,1-5H3/b7-6+

>  <standard_inchi_key>  (1461) 
IQQVVIZXMFMANE-VOTSOKGWSA-N

>  <name>  (1461) 
nan

>  <iupac_name>  (1461) 
nan

>  <annotation_level>  (1461) 
0

>  <total_atom_count>  (1461) 
50

>  <heavy_atom_count>  (1461) 
26

>  <molecular_weight>  (1461) 
356.42

>  <exact_molecular_weight>  (1461) 
356.16237

>  <molecular_formula>  (1461) 
C21H24O5

>  <alogp>  (1461) 
4.40

>  <topological_polar_surface_area>  (1461) 
53.99

>  <rotatable_bond_count>  (1461) 
8

>  <hydrogen_bond_acceptors>  (1461) 
5

>  <hydrogen_bond_donors>  (1461) 
0

>  <hydrogen_bond_acceptors_lipinski>  (1461) 
5

>  <hydrogen_bond_donors_lipinski>  (1461) 
0

>  <lipinski_rule_of_five_violations>  (1461) 
0

>  <aromatic_rings_count>  (1461) 
2

>  <qed_drug_likeliness>  (1461) 
0.66

>  <formal_charge>  (1461) 
0

>  <fractioncsp3>  (1461) 
0.29

>  <number_of_minimal_rings>  (1461) 
2

>  <van_der_walls_volume>  (1461) 
335.23

>  <contains_sugar>  (1461) 
False

>  <contains_ring_sugars>  (1461) 
False

>  <contains_linear_sugars>  (1461) 
False

>  <murcko_framework>  (1461) 
O(c1ccccc1)CCc2ccccc2

>  <np_likeness>  (1461) 
0.04

>  <chemical_class>  (1461) 
nan

>  <chemical_sub_class>  (1461) 
nan

>  <chemical_super_class>  (1461) 
nan

>  <direct_parent_classification>  (1461) 
nan

>  <np_classifier_pathway>  (1461) 
Shikimates and Phenylpropanoids

>  <np_classifier_superclass>  (1461) 
Lignans

>  <np_classifier_class>  (1461) 
Neolignans

>  <np_classifier_is_glycoside>  (1461) 
False

>  <organisms>  (1461) 
Virola surinamensis

>  <collections>  (1461) 
Latin America dataset|NuBBEDB|WikiData Natural Products

>  <dois>  (1461) 
10.1016/S0031-9422(00)94227-4

>  <synonyms>  (1461) 
nan

>  <cas>  (1461) 
nan

$$$$

     RDKit          2D

 16 17  0  0  0  0  0  0  0  0999 V2000
   -3.6722    2.7600    0.0000 C   0  0  0  0  0  0  0  0  0  0  0  0
   -3.4247    1.2806    0.0000 O   0  0  0  0  0  0  0  0  0  0  0  0
   -2.0197    0.7552    0.0000 C   0  0  0  0  0  0  0  0  0  0  0  0
   -0.8622    1.7093    0.0000 C   0  0  0  0  0  0  0  0  0  0  0  0
    0.5428    1.1839    0.0000 C   0  0  0  0  0  0  0  0  0  0  0  0
    0.7903   -0.2955    0.0000 C   0  0  0  0  0  0  0  0  0  0  0  0
    2.1953   -0.8209    0.0000 O   0  0  0  0  0  0  0  0  0  0  0  0
    3.3528    0.1332    0.0000 C   0  0  0  0  0  0  0  0  0  0  0  0
    4.7578   -0.3922    0.0000 O   0  0  0  0  0  0  0  0  0  0  0  0
    3.1053    1.6126    0.0000 C   0  0  0  0  0  0  0  0  0  0  0  0
    1.7003    2.1380    0.0000 C   0  0  0  0  0  0  0  0  0  0  0  0
   -0.3672   -1.2496    0.0000 C   0  0  0  0  0  0  0  0  0  0  0  0
   -0.1197   -2.7290    0.0000 O   0  0  0  0  0  0  0  0  0  0  0  0
   -1.2771   -3.6831    0.0000 C   0  0  0  0  0  0  0  0  0  0  0  0
   -1.7722   -0.7242    0.0000 C   0  0  0  0  0  0  0  0  0  0  0  0
   -2.9296   -1.6783    0.0000 O   0  0  0  0  0  0  0  0  0  0  0  0
  1  2  1  0
  2  3  1  0
  3  4  2  0
  4  5  1  0
  5  6  2  0
  6  7  1  0
  7  8  1  0
  8  9  2  0
  8 10  1  0
 10 11  2  0
  6 12  1  0
 12 13  1  0
 13 14  1  0
 12 15  2  0
 15 16  1  0
 15  3  1  0
 11  5  1  0
M  END
>  <identifier>  (1462) 
CNP0391742.0

>  <canonical_smiles>  (1462) 
COC1=CC2=C(OC(=O)C=C2)C(OC)=C1O

>  <standard_inchi>  (1462) 
InChI=1S/C11H10O5/c1-14-7-5-6-3-4-8(12)16-10(6)11(15-2)9(7)13/h3-5,13H,1-2H3

>  <standard_inchi_key>  (1462) 
HOEVRHHMDJKUMZ-UHFFFAOYSA-N

>  <name>  (1462) 
Isofraxidin

>  <iupac_name>  (1462) 
7-hydroxy-6,8-dimethoxy-chromen-2-one

>  <annotation_level>  (1462) 
5

>  <total_atom_count>  (1462) 
26

>  <heavy_atom_count>  (1462) 
16

>  <molecular_weight>  (1462) 
222.2

>  <exact_molecular_weight>  (1462) 
222.05282

>  <molecular_formula>  (1462) 
C11H10O5

>  <alogp>  (1462) 
1.52

>  <topological_polar_surface_area>  (1462) 
68.90

>  <rotatable_bond_count>  (1462) 
2

>  <hydrogen_bond_acceptors>  (1462) 
5

>  <hydrogen_bond_donors>  (1462) 
1

>  <hydrogen_bond_acceptors_lipinski>  (1462) 
5

>  <hydrogen_bond_donors_lipinski>  (1462) 
1

>  <lipinski_rule_of_five_violations>  (1462) 
0

>  <aromatic_rings_count>  (1462) 
2

>  <qed_drug_likeliness>  (1462) 
0.78

>  <formal_charge>  (1462) 
0

>  <fractioncsp3>  (1462) 
0.18

>  <number_of_minimal_rings>  (1462) 
2

>  <van_der_walls_volume>  (1462) 
187.43

>  <contains_sugar>  (1462) 
False

>  <contains_ring_sugars>  (1462) 
False

>  <contains_linear_sugars>  (1462) 
False

>  <murcko_framework>  (1462) 
O1c2ccccc2C=CC1

>  <np_likeness>  (1462) 
1.39

>  <chemical_class>  (1462) 
Coumarins and derivatives

>  <chemical_sub_class>  (1462) 
Hydroxycoumarins

>  <chemical_super_class>  (1462) 
Phenylpropanoids and polyketides

>  <direct_parent_classification>  (1462) 
7-hydroxycoumarins

>  <np_classifier_pathway>  (1462) 
Shikimates and Phenylpropanoids

>  <np_classifier_superclass>  (1462) 
Coumarins

>  <np_classifier_class>  (1462) 
Simple coumarins

>  <np_classifier_is_glycoside>  (1462) 
False

>  <organisms>  (1462) 
Acanthopanax Senticosus|Acanthopanax senticosus|Achillea clavennae|Acridocarpus vivy|Acronychia laurifolia|Adenocalymma alliaceum|Adiantum pedatum|Aegle marmelos|Agave deserti|Agave ghiesbreghtii|Aglaia pyramidata|Agrobacterium rhizogenes|Ailanthus altissima|Aralia bipinnata|Artemisia Annua|Artemisia abrotanum|Artemisia alba|Artemisia annua|Artemisia annua L.|Artemisia anomala|Artemisia arborescens|Artemisia assoana|Artemisia dalai-lamae|Artemisia ifranensis|Artemisia incanescens|Artemisia keiskeana|Artemisia lehmanniana|Artemisia minor|Artemisia princeps|Artemisia reptans|Artemisia santolinifolia|Artemisia scotina|Artemisia sp.|Artemisia stechmanniana|Artemisia tripartita|Asclepias subulata|Astragalus amarus|Azadirachta indica|Baccharis articulata|Blumea obliqua|Carduus tenuiflorus|Carissa edulis|Carissa spinarum|Celastrus monospermus|Choriaster granulatus|Cirsium japonicum|Citrullus lanatus|Conium maculatum|Delphinium hybridum|Desmodium uncinatum|Dinophysis acuminata|Dioscorea gracillima|Dysidea villosa|Echium rubrum|Eichhornia crassipes|Eleutherococcus brachypus|Eleutherococcus senticosus|Eleutherococcus sp.|Entada africana|Entada polystachya|Erica cinerea|Euonymus phellomanus|Euphorbia lagascae|Euphorbia pekinensis|Eutrochium purpureum|Forsythia x intermedia|Fraxinus japonica|Fraxinus longicuspis|Fraxinus sp|Fraxinus sp.|Fuligo candida|Fumaria indica|Galeopsis pubescens|Gentianella nitida|Geranium sanguineum|Hansenia weberbaueriana|Hendersonula toruloidea|Heracleum|Herba sarcatidrae|Hortonia floribunda|Hosta sieboldiana|Iberis sempervirens|Impatiens balsamina|Inula salsoloides|Jacobaea cannabifolia|Kitagawia praeruptora|Lactarius subpiperatus|Loranthus glaber|Maytenus blepharodes|Melia azedarach|Micrandra elata|Micromonospora inositola|Mimosa diplotricha|Monomeria barbata|Morinda coreia|Moschus berezovskii|Muriceopsis flavida|Nepeta leucophylla|Nephila clavata|Notechis scutatus|Ormosia excelsa|Pandanus dubius|Parmelia zollingeri|Passiflora morifolia|Peucedanum praeruptorum|Peucedanum praeruptorum DUNN.|Phyllanthus sellowianus|Plakortis simplex|Plectranthus nummularius|Pogonopus speciosus|Polysiphonia fastigiata|Polytrichum commune|Pseuduvaria indochinensis|Pteris setuloso-costulata|Pterocaulon redolens|Rhizobium rhizogenes|Roemeria carica|Salsola laricifolia|Salvia deserta|Saposhnikovia divaricata|Saposhnikovia divaricata Schischkin|Sarcandra Glabra|Sarcandra glabra|Sarcandra hainanensis|Schrebera swietenoides|Schumanniophyton magnificum|Senecio gilliesi|Silybum sp.|Solanum spirale|Sophora leachiana|Strophanthus thollonii|Syneilesis palmata|Talaromyces convolutus|Talipariti tiliaceum|Tanacetum cadmeum|Tanacetum heterotomum|Tanacetum parthenium|Tanacetum sp.|Tanacetum vulgare|Tephrosia barbigera|Tephrosia bidwilli|Thielavia terricola|Thiocystis gelatinosa|Toona ciliata|Toona febrifuga|Trichilia|Trichilia estipulata|Ulmus glabra|Uncaria donisii|Vernonia lilacina|Vitex limonifolia|Vitex negundo|Xanthoria parietina|Zanthoxylum simulans

>  <collections>  (1462) 
AnalytiCon Discovery NPs|Australian natural products|CMAUP (cCollective molecular activities of useful plants)|EMNPD|ETM (Ethiopian Traditional Medicine) DB|FooDB|GNPS (Global Natural Products Social Molecular Networking)|HIM (Herbal Ingredients in-vivo Metabolism database)|KNApSaCK|Latin America dataset|NPASS|NuBBEDB|Phyto4Health|PhytoLab phyproof® Reference Substances|Super Natural II|TCMDB-Taiwan (Traditional Chinese Medicine database)|TCMID (Traditional Chinese Medicine Integrated Database)|TIPdb (database of Taiwan indigenous plants)|UNPD (Universal Natural Products Database)|VietHerb|Watermelon|WikiData Natural Products|ZINC NP|p-ANAPL

>  <dois>  (1462) 
10.1002/JCCS.200900171|10.1002/PTR.2650040510|10.1007/BF00567042|10.1007/BF00574752|10.1007/BF00598293|10.1007/BF00629948|10.1007/BF00630671|10.1007/BF02238337|10.1007/BF02975842|10.1007/S10600-011-9773-Z|10.1007/S10600-015-1519-X|10.1007/S11418-011-0509-Y|10.1016/0031-9422(83)80032-6|10.1016/0031-9422(88)80231-0|10.1016/0031-9422(91)85044-Z|10.1016/0031-9422(94)00943-N|10.1016/0031-9422(94)85083-6|10.1016/0031-9422(95)00072-F|10.1016/0031-9422(95)00418-7|10.1016/0031-9422(95)00433-8|10.1016/0305-1978(94)90107-4|10.1016/J.BMCL.2015.01.034|10.1016/J.FITOTE.2009.12.009|10.1016/J.JEP.2004.08.027|10.1016/J.PHYTOCHEM.2006.02.026|10.1016/J.PHYTOCHEM.2011.11.018|10.1016/S0031-9422(00)00298-3|10.1016/S0031-9422(00)81695-7|10.1016/S0031-9422(00)83891-1|10.1016/S0031-9422(00)86976-9|10.1016/S0031-9422(00)88544-1|10.1016/S0031-9422(00)89536-9|10.1016/S0031-9422(00)97569-1|10.1016/S0031-9422(02)00268-6|10.1016/S0031-9422(03)00294-2|10.1016/S0031-9422(96)00720-0|10.1016/S0031-9422(97)87091-4|10.1016/S0031-9422(98)00234-9|10.1016/S0031-9422(98)00607-4|10.1016/S0367-326X(99)00051-9|10.1016/j.bmcl.2015.01.034|10.1021/NP010103A|10.1021/NP50011A020|10.1021/NP50052A045|10.1021/NP50054A027|10.1021/NP800643N|10.1021/np50011a020|10.1023/B:JOCC.0000026275.39368.FC|10.1055/S-2005-873196|10.1055/S-2006-957714|10.1055/S-2006-958106|10.1055/S-2006-962500|10.1080/10826079508009247|10.1248/BPB.33.1716|10.1248/CPB.33.4069|10.1248/CPB.38.1763|10.1248/CPB.49.154|10.1248/CPB.53.701|10.1248/CPB.55.1291|10.1248/CPB.56.1349|10.1248/CPB.57.743|10.1248/YAKUSHI1947.107.6_435|10.3987/COM-03-S16|10.3987/COM-05-10429|10.4268/CJCMM20141334

>  <synonyms>  (1462) 
nan

>  <cas>  (1462) 
486-21-5

$$$$

     RDKit          2D

 34 34  0  0  0  0  0  0  0  0999 V2000
  -15.1056    2.1945    0.0000 C   0  0  0  0  0  0  0  0  0  0  0  0
  -13.9763    1.2071    0.0000 C   0  0  0  0  0  0  0  0  0  0  0  0
  -14.2668   -0.2645    0.0000 O   0  0  0  0  0  0  0  0  0  0  0  0
  -12.5567    1.6914    0.0000 C   0  0  0  0  0  0  0  0  0  0  0  0
  -11.4274    0.7040    0.0000 C   0  0  0  0  0  0  0  0  0  0  0  0
  -10.0078    1.1883    0.0000 C   0  0  0  0  0  0  0  0  0  0  0  0
   -8.8785    0.2010    0.0000 C   0  0  0  0  0  0  0  0  0  0  0  0
   -7.4589    0.6852    0.0000 C   0  0  0  0  0  0  0  0  0  0  0  0
   -6.3296   -0.3021    0.0000 C   0  0  0  0  0  0  0  0  0  0  0  0
   -4.9100    0.1821    0.0000 C   0  0  0  0  0  0  0  0  0  0  0  0
   -3.7807   -0.8052    0.0000 C   0  0  0  0  0  0  0  0  0  0  0  0
   -2.3610   -0.3209    0.0000 C   0  0  0  0  0  0  0  0  0  0  0  0
   -1.2318   -1.3083    0.0000 C   0  0  0  0  0  0  0  0  0  0  0  0
    0.1879   -0.8240    0.0000 C   0  0  0  0  0  0  0  0  0  0  0  0
    1.3171   -1.8114    0.0000 C   0  0  0  0  0  0  0  0  0  0  0  0
    2.7368   -1.3271    0.0000 C   0  0  0  0  0  0  0  0  0  0  0  0
    3.0272    0.1445    0.0000 C   0  0  0  0  0  0  0  0  0  0  0  0
    4.4469    0.6288    0.0000 C   0  0  0  0  0  0  0  0  0  0  0  0
    5.5761   -0.3586    0.0000 C   0  0  0  0  0  0  0  0  0  0  0  0
    6.9958    0.1257    0.0000 O   0  0  0  0  0  0  0  0  0  0  0  0
    7.2863    1.5973    0.0000 C   0  0  0  0  0  0  0  0  0  0  0  0
    6.1570    2.5846    0.0000 O   0  0  0  0  0  0  0  0  0  0  0  0
    8.7059    2.0815    0.0000 O   0  0  0  0  0  0  0  0  0  0  0  0
    8.9964    3.5532    0.0000 C   0  0  0  0  0  0  0  0  0  0  0  0
   10.4680    3.2627    0.0000 C   0  0  0  0  0  0  0  0  0  0  0  0
    7.5248    3.8436    0.0000 C   0  0  0  0  0  0  0  0  0  0  0  0
    9.2868    5.0248    0.0000 C   0  0  0  0  0  0  0  0  0  0  0  0
    5.2857   -1.8302    0.0000 C   0  0  0  0  0  0  0  0  0  0  0  0
    6.4149   -2.8175    0.0000 C   0  0  0  0  0  0  0  0  0  0  0  0
    3.8660   -2.3145    0.0000 N   0  0  0  0  0  0  0  0  0  0  0  0
    3.5755   -3.7861    0.0000 S   0  0  0  0  0  0  0  0  0  0  0  0
    3.2851   -5.2577    0.0000 C   0  0  0  0  0  0  0  0  0  0  0  0
    5.0471   -4.0765    0.0000 O   0  0  0  0  0  0  0  0  0  0  0  0
    2.1039   -3.4956    0.0000 O   0  0  0  0  0  0  0  0  0  0  0  0
  1  2  1  0
  2  3  2  0
  2  4  1  0
  4  5  1  0
  5  6  1  0
  6  7  1  0
  7  8  1  0
  8  9  1  0
  9 10  1  0
 10 11  1  0
 11 12  1  0
 12 13  1  0
 13 14  1  0
 14 15  1  0
 16 15  1  1
 16 17  1  0
 17 18  1  0
 18 19  1  0
 19 20  1  1
 20 21  1  0
 21 22  2  0
 21 23  1  0
 23 24  1  0
 24 25  1  0
 24 26  1  0
 24 27  1  0
 19 28  1  0
 28 29  1  1
 28 30  1  0
 30 31  1  0
 31 32  1  0
 31 33  2  0
 31 34  2  0
 30 16  1  0
M  END
>  <identifier>  (1463) 
CNP0080340.1

>  <canonical_smiles>  (1463) 
CC(=O)CCCCCCCCCCCC[C@H]1CC[C@@H](OC(=O)OC(C)(C)C)[C@@H](C)N1S(C)(=O)=O

>  <standard_inchi>  (1463) 
InChI=1S/C26H49NO6S/c1-21(28)17-15-13-11-9-7-8-10-12-14-16-18-23-19-20-24(22(2)27(23)34(6,30)31)32-25(29)33-26(3,4)5/h22-24H,7-20H2,1-6H3/t22-,23+,24-/m1/s1

>  <standard_inchi_key>  (1463) 
FASQFNSKPNNVSC-TZRRMPRUSA-N

>  <name>  (1463) 
nan

>  <iupac_name>  (1463) 
~{tert}-butyl [(2~{R},3~{R},6~{S})-2-methyl-1-methylsulfonyl-6-(13-oxotetradecyl)-3-piperidyl] carbonate

>  <annotation_level>  (1463) 
5

>  <total_atom_count>  (1463) 
83

>  <heavy_atom_count>  (1463) 
34

>  <molecular_weight>  (1463) 
503.75

>  <exact_molecular_weight>  (1463) 
503.32806

>  <molecular_formula>  (1463) 
C26H49NO6S

>  <alogp>  (1463) 
6.39

>  <topological_polar_surface_area>  (1463) 
89.98

>  <rotatable_bond_count>  (1463) 
15

>  <hydrogen_bond_acceptors>  (1463) 
6

>  <hydrogen_bond_donors>  (1463) 
0

>  <hydrogen_bond_acceptors_lipinski>  (1463) 
6

>  <hydrogen_bond_donors_lipinski>  (1463) 
0

>  <lipinski_rule_of_five_violations>  (1463) 
2

>  <aromatic_rings_count>  (1463) 
0

>  <qed_drug_likeliness>  (1463) 
0.19

>  <formal_charge>  (1463) 
0

>  <fractioncsp3>  (1463) 
0.92

>  <number_of_minimal_rings>  (1463) 
1

>  <van_der_walls_volume>  (1463) 
501.62

>  <contains_sugar>  (1463) 
False

>  <contains_ring_sugars>  (1463) 
False

>  <contains_linear_sugars>  (1463) 
False

>  <murcko_framework>  (1463) 
N1CCCCC1

>  <np_likeness>  (1463) 
0.79

>  <chemical_class>  (1463) 
nan

>  <chemical_sub_class>  (1463) 
Alkaloids and derivatives

>  <chemical_super_class>  (1463) 
Alkaloids and derivatives

>  <direct_parent_classification>  (1463) 
Alkaloids and derivatives

>  <np_classifier_pathway>  (1463) 
nan

>  <np_classifier_superclass>  (1463) 
nan

>  <np_classifier_class>  (1463) 
nan

>  <np_classifier_is_glycoside>  (1463) 
False

>  <organisms>  (1463) 
Senna spectabilis

>  <collections>  (1463) 
ChemSpider NPs|Latin America dataset|NuBBEDB|Super Natural II|WikiData Natural Products|ZINC NP

>  <dois>  (1463) 
10.1248/CPB.56.407|10.1248/cpb.56.407

>  <synonyms>  (1463) 
N-Methanesulfonyl-2-(R)-methyl-6-(S)-(tetradecyl-13'-one)-3-(R)-O-tert-butoxycarbonyl-piperidine

>  <cas>  (1463) 
nan

$$$$

     RDKit          2D

 38 42  0  0  0  0  0  0  0  0999 V2000
    6.2095   -4.5099    0.0000 C   0  0  0  0  0  0  0  0  0  0  0  0
    6.2549   -3.0106    0.0000 O   0  0  0  0  0  0  0  0  0  0  0  0
    4.9791   -2.2217    0.0000 C   0  0  0  0  0  0  0  0  0  0  0  0
    3.6580   -2.9320    0.0000 O   0  0  0  0  0  0  0  0  0  0  0  0
    5.0246   -0.7223    0.0000 C   0  0  0  0  0  0  0  0  0  0  0  0
    6.4932   -1.0274    0.0000 C   0  0  0  0  0  0  0  0  0  0  0  0
    3.5401   -0.9380    0.0000 C   0  0  0  0  0  0  0  0  0  0  0  0
    2.6112    0.2398    0.0000 C   0  0  0  0  0  0  0  0  0  0  0  0
    3.1667    1.6331    0.0000 C   0  0  0  0  0  0  0  0  0  0  0  0
    3.7221    3.0265    0.0000 C   0  0  0  0  0  0  0  0  0  0  0  0
    2.2377    2.8108    0.0000 C   0  0  0  0  0  0  0  0  0  0  0  0
    0.7533    2.5952    0.0000 C   0  0  0  0  0  0  0  0  0  0  0  0
   -0.1757    3.7729    0.0000 C   0  0  0  0  0  0  0  0  0  0  0  0
    0.1978    1.2019    0.0000 C   0  0  0  0  0  0  0  0  0  0  0  0
   -1.2866    0.9862    0.0000 C   0  0  0  0  0  0  0  0  0  0  0  0
   -2.2156    2.1640    0.0000 C   0  0  0  0  0  0  0  0  0  0  0  0
   -3.7000    1.9483    0.0000 C   0  0  0  0  0  0  0  0  0  0  0  0
   -4.6289    3.1260    0.0000 O   0  0  0  0  0  0  0  0  0  0  0  0
   -4.2554    0.5550    0.0000 C   0  0  0  0  0  0  0  0  0  0  0  0
   -3.3265   -0.6228    0.0000 C   0  0  0  0  0  0  0  0  0  0  0  0
   -3.8820   -2.0161    0.0000 C   0  0  0  0  0  0  0  0  0  0  0  0
   -5.3664   -2.2318    0.0000 C   0  0  0  0  0  0  0  0  0  0  0  0
   -5.9218   -3.6251    0.0000 O   0  0  0  0  0  0  0  0  0  0  0  0
   -6.2953   -1.0540    0.0000 C   0  0  0  0  0  0  0  0  0  0  0  0
   -7.7798   -1.2697    0.0000 O   0  0  0  0  0  0  0  0  0  0  0  0
   -8.7087   -0.0919    0.0000 C   0  0  0  0  0  0  0  0  0  0  0  0
   -5.7399    0.3393    0.0000 C   0  0  0  0  0  0  0  0  0  0  0  0
   -6.6688    1.5171    0.0000 C   0  0  0  0  0  0  0  0  0  0  0  0
   -1.8421   -0.4071    0.0000 C   0  0  0  0  0  0  0  0  0  0  0  0
   -2.3975   -1.8005    0.0000 C   0  0  0  0  0  0  0  0  0  0  0  0
   -0.9131   -1.5849    0.0000 C   0  0  0  0  0  0  0  0  0  0  0  0
    0.5713   -1.3692    0.0000 C   0  0  0  0  0  0  0  0  0  0  0  0
    1.1268    0.0241    0.0000 C   0  0  0  0  0  0  0  0  0  0  0  0
    2.0557   -1.1536    0.0000 C   0  0  0  0  0  0  0  0  0  0  0  0
    4.6511    1.8487    0.0000 C   0  0  0  0  0  0  0  0  0  0  0  0
    5.2065    3.2421    0.0000 O   0  0  0  0  0  0  0  0  0  0  0  0
    5.5800    0.6710    0.0000 C   0  0  0  0  0  0  0  0  0  0  0  0
    7.0644    0.8867    0.0000 O   0  0  0  0  0  0  0  0  0  0  0  0
  1  2  1  0
  2  3  1  0
  3  4  2  0
  3  5  1  0
  5  6  1  6
  5  7  1  0
  8  7  1  1
  8  9  1  0
  9 10  1  6
  9 11  1  0
 11 12  1  0
 12 13  1  0
 12 14  2  0
 14 15  1  0
 15 16  2  0
 16 17  1  0
 17 18  2  0
 17 19  1  0
 19 20  2  0
 20 21  1  0
 21 22  2  0
 22 23  1  0
 22 24  1  0
 24 25  1  0
 25 26  1  0
 24 27  2  0
 27 28  1  0
 20 29  1  0
 29 30  1  6
 29 31  1  0
 31 32  1  0
 32 33  1  0
 33 34  1  1
  9 35  1  0
 35 36  2  0
 35 37  1  0
 37 38  1  6
 37  5  1  0
 33  8  1  0
 33 14  1  0
 29 15  1  0
 27 19  1  0
M  END
>  <identifier>  (1464) 
CNP0252082.1

>  <canonical_smiles>  (1464) 
COC(=O)[C@@]1(C)C[C@@H]2[C@@](C)(CC(C)=C3C4=CC(=O)C5=C(C=C(O)C(OC)=C5C)[C@]4(C)CC[C@]32C)C(=O)[C@@H]1O

>  <standard_inchi>  (1464) 
InChI=1S/C31H38O7/c1-15-13-30(5)21(14-31(6,27(36)38-8)26(35)25(30)34)29(4)10-9-28(3)17-11-20(33)24(37-7)16(2)22(17)19(32)12-18(28)23(15)29/h11-12,21,26,33,35H,9-10,13-14H2,1-8H3/t21-,26-,28-,29-,30+,31-/m0/s1

>  <standard_inchi_key>  (1464) 
UEULPUBYHGYCFW-LEUGNMFFSA-N

>  <name>  (1464) 
Cognatine

>  <iupac_name>  (1464) 
methyl (2~{S},3~{R},4~{a}~{R},6~{a}~{R},14~{a}~{S},14~{b}~{S})-3,11-dihydroxy-10-methoxy-2,4~{a},6,6~{a},9,14~{a}-hexamethyl-4,8-dioxo-1,3,5,13,14,14~{b}-hexahydropicene-2-carboxylate

>  <annotation_level>  (1464) 
5

>  <total_atom_count>  (1464) 
76

>  <heavy_atom_count>  (1464) 
38

>  <molecular_weight>  (1464) 
522.64

>  <exact_molecular_weight>  (1464) 
522.26175

>  <molecular_formula>  (1464) 
C31H38O7

>  <alogp>  (1464) 
4.75

>  <topological_polar_surface_area>  (1464) 
110.13

>  <rotatable_bond_count>  (1464) 
2

>  <hydrogen_bond_acceptors>  (1464) 
7

>  <hydrogen_bond_donors>  (1464) 
2

>  <hydrogen_bond_acceptors_lipinski>  (1464) 
7

>  <hydrogen_bond_donors_lipinski>  (1464) 
2

>  <lipinski_rule_of_five_violations>  (1464) 
1

>  <aromatic_rings_count>  (1464) 
1

>  <qed_drug_likeliness>  (1464) 
0.54

>  <formal_charge>  (1464) 
0

>  <fractioncsp3>  (1464) 
0.58

>  <number_of_minimal_rings>  (1464) 
5

>  <van_der_walls_volume>  (1464) 
476.92

>  <contains_sugar>  (1464) 
False

>  <contains_ring_sugars>  (1464) 
False

>  <contains_linear_sugars>  (1464) 
False

>  <murcko_framework>  (1464) 
c1ccc2c(c1)CC=C3C4=CCC5CCCCC5C4CCC23

>  <np_likeness>  (1464) 
2.65

>  <chemical_class>  (1464) 
Phenanthrenes and derivatives

>  <chemical_sub_class>  (1464) 
Phenanthrenes and derivatives

>  <chemical_super_class>  (1464) 
Benzenoids

>  <direct_parent_classification>  (1464) 
Phenanthrenes and derivatives

>  <np_classifier_pathway>  (1464) 
Terpenoids

>  <np_classifier_superclass>  (1464) 
nan

>  <np_classifier_class>  (1464) 
nan

>  <np_classifier_is_glycoside>  (1464) 
False

>  <organisms>  (1464) 
Cheiloclinium cognatum

>  <collections>  (1464) 
ChemSpider NPs|KNApSaCK|Latin America dataset|NuBBEDB|Super Natural II|WikiData Natural Products|ZINC NP

>  <dois>  (1464) 
10.1016/J.PHYTOCHEM.2004.03.039|10.1016/j.phytochem.2004.03.039

>  <synonyms>  (1464) 
Cognatine|methyl (2S,3R,4aR,6aR,14aS,14bS)-3,11-dihydroxy-10-methoxy-2,4a,6,6a,9,14a-hexamethyl-4,8-dioxo-1,3,5,13,14,14b-hexahydropicene-2-carboxylate

>  <cas>  (1464) 
nan

$$$$

     RDKit          2D

 23 25  0  0  0  0  0  0  0  0999 V2000
   -2.1883   -3.4166    0.0000 C   0  0  0  0  0  0  0  0  0  0  0  0
   -1.4238   -2.1260    0.0000 O   0  0  0  0  0  0  0  0  0  0  0  0
   -2.1593   -0.8187    0.0000 C   0  0  0  0  0  0  0  0  0  0  0  0
   -3.6592   -0.8020    0.0000 C   0  0  0  0  0  0  0  0  0  0  0  0
   -4.3947    0.5054    0.0000 C   0  0  0  0  0  0  0  0  0  0  0  0
   -5.8946    0.5221    0.0000 O   0  0  0  0  0  0  0  0  0  0  0  0
   -3.6302    1.7959    0.0000 C   0  0  0  0  0  0  0  0  0  0  0  0
   -2.1303    1.7792    0.0000 C   0  0  0  0  0  0  0  0  0  0  0  0
   -1.3658    3.0698    0.0000 C   0  0  0  0  0  0  0  0  0  0  0  0
   -1.3948    0.4719    0.0000 C   0  0  0  0  0  0  0  0  0  0  0  0
   -0.4997    1.6755    0.0000 O   0  0  0  0  0  0  0  0  0  0  0  0
    0.9216    1.1961    0.0000 C   0  0  0  0  0  0  0  0  0  0  0  0
    2.2290    1.9315    0.0000 C   0  0  0  0  0  0  0  0  0  0  0  0
    3.5196    1.1671    0.0000 C   0  0  0  0  0  0  0  0  0  0  0  0
    4.8269    1.9025    0.0000 O   0  0  0  0  0  0  0  0  0  0  0  0
    6.1175    1.1381    0.0000 C   0  0  0  0  0  0  0  0  0  0  0  0
    3.5028   -0.3328    0.0000 C   0  0  0  0  0  0  0  0  0  0  0  0
    2.1955   -1.0683    0.0000 C   0  0  0  0  0  0  0  0  0  0  0  0
    2.1787   -2.5682    0.0000 O   0  0  0  0  0  0  0  0  0  0  0  0
    3.4693   -3.3327    0.0000 C   0  0  0  0  0  0  0  0  0  0  0  0
    0.9049   -0.3038    0.0000 C   0  0  0  0  0  0  0  0  0  0  0  0
   -0.5268   -0.7514    0.0000 C   0  0  0  0  0  0  0  0  0  0  0  0
   -0.5984   -1.6343    0.0000 O   0  0  0  0  0  0  0  0  0  0  0  0
  1  2  1  0
  2  3  1  0
  3  4  2  0
  4  5  1  0
  5  6  2  0
  5  7  1  0
  7  8  1  0
  8  9  1  1
  8 10  1  0
 10 11  1  6
 11 12  1  0
 12 13  2  0
 13 14  1  0
 14 15  1  0
 15 16  1  0
 14 17  2  0
 17 18  1  0
 18 19  1  0
 19 20  1  0
 18 21  2  0
 21 22  1  0
 22 23  2  0
 10  3  1  0
 21 12  1  0
 22 10  1  0
M  END
>  <identifier>  (1465) 
CNP0309146.1

>  <canonical_smiles>  (1465) 
COC1=CC(=O)C[C@@H](C)[C@]12OC1=CC(OC)=CC(OC)=C1C2=O

>  <standard_inchi>  (1465) 
InChI=1S/C17H18O6/c1-9-5-10(18)6-14(22-4)17(9)16(19)15-12(21-3)7-11(20-2)8-13(15)23-17/h6-9H,5H2,1-4H3/t9-,17+/m1/s1

>  <standard_inchi_key>  (1465) 
QPCYNIYZPDJCMB-XLFHBGCDSA-N

>  <name>  (1465) 
Dechlorogriseofulvin

>  <iupac_name>  (1465) 
(2~{S},5'~{R})-3',4,6-trimethoxy-5'-methyl-spiro[benzofuran-2,4'-cyclohex-2-ene]-1',3-dione

>  <annotation_level>  (1465) 
5

>  <total_atom_count>  (1465) 
41

>  <heavy_atom_count>  (1465) 
23

>  <molecular_weight>  (1465) 
318.33

>  <exact_molecular_weight>  (1465) 
318.11034

>  <molecular_formula>  (1465) 
C17H18O6

>  <alogp>  (1465) 
2.16

>  <topological_polar_surface_area>  (1465) 
71.06

>  <rotatable_bond_count>  (1465) 
3

>  <hydrogen_bond_acceptors>  (1465) 
6

>  <hydrogen_bond_donors>  (1465) 
0

>  <hydrogen_bond_acceptors_lipinski>  (1465) 
6

>  <hydrogen_bond_donors_lipinski>  (1465) 
0

>  <lipinski_rule_of_five_violations>  (1465) 
0

>  <aromatic_rings_count>  (1465) 
1

>  <qed_drug_likeliness>  (1465) 
0.85

>  <formal_charge>  (1465) 
0

>  <fractioncsp3>  (1465) 
0.41

>  <number_of_minimal_rings>  (1465) 
3

>  <van_der_walls_volume>  (1465) 
279.58

>  <contains_sugar>  (1465) 
False

>  <contains_ring_sugars>  (1465) 
False

>  <contains_linear_sugars>  (1465) 
False

>  <murcko_framework>  (1465) 
O1c2ccccc2CC13C=CCCC3

>  <np_likeness>  (1465) 
1.96

>  <chemical_class>  (1465) 
Benzofurans

>  <chemical_sub_class>  (1465) 
Benzofuranones

>  <chemical_super_class>  (1465) 
Organoheterocyclic compounds

>  <direct_parent_classification>  (1465) 
Benzofuranones

>  <np_classifier_pathway>  (1465) 
Polyketides

>  <np_classifier_superclass>  (1465) 
Aromatic polyketides

>  <np_classifier_class>  (1465) 
Griseofulvins

>  <np_classifier_is_glycoside>  (1465) 
False

>  <organisms>  (1465) 
Penicillium|Penicillium aethiopicum|Penicillium canescens|Penicillium canescens 4.14.6a|Penicillium concentricum|Penicillium griseofulvum|Penicillium griseofulvum CPCC 400528|Penicillium janczewskii|Penicillium sp.|Penicillium spinulosum|Xylaria|Xylaria cubensis|Xylaria sp.

>  <collections>  (1465) 
AnalytiCon Discovery NPs|ChemSpider NPs|EMNPD|GNPS (Global Natural Products Social Molecular Networking)|KNApSaCK|Latin America dataset|NPASS|NuBBEDB|Super Natural II|WikiData Natural Products|ZINC NP

>  <dois>  (1465) 
10.1016/J.CHEMBIOL.2010.03.015|10.1021/ACS.JNATPROD.6B00829|10.1021/ACS.JNATPROD.6B01069|10.1021/ACS.JNATPROD.9B00151|10.1021/NP030271Y|10.1021/acs.jnatprod.6b00829|10.1039/JR9540002585|10.1590/S0100-40422005000600011

>  <synonyms>  (1465) 
(1'S,6'R)-2',4,6-TRIMETHOXY-6'-METHYLSPIRO(BENZOFURAN-2(3H),1'-(2)CYCLOHEXENE)-3,4'-DIONE|(1'S,6'R)-2',4,6-Trimethoxy-6'-methyl-3H-spiro[benzofuran-2,1'-cyclohex[2]ene]-3,4'-dione|(2S,5'R)-3',4,6-trimethoxy-5'-methylspiro[1-benzofuran-2,4'-cyclohex-2-ene]-1',3-dione|2',4,6-Trimethoxy-6'-methylspiro(benzofuran-2(3H),1'-(2)cyclohexene)-3,4'-dione|3680-32-8|7-Dechloro Griseofulvin|ACon1_000934|AKOS027326716|BRD-K81081971-001-01-0|CHEMBL4086724|Dechlorogriseofulvin, 7-|ER776J3MGD|GRISEOFULVIN IMPURITY B [EP IMPURITY]|MEGxm0_000111|NCGC00169215-01|NCGC00169215-02_C17H18O6_(2S,6'R)-2',4,6-Trimethoxy-6'-methyl-3H,4'H-spiro[1-benzofuran-2,1'-cyclohex[2]ene]-3,4'-dione|PD133680|Q27896679|SPIRO(BENZOFURAN-2(3H),1'-(2)CYCLOHEXENE)-3,4'-DIONE, 2',4,6-TRIMETHOXY-6'-METHYL-, (1'S,6'R)-|Spiro[benzofuran-2(3H),1'-[2]cyclohexene]-3,4'-dione, 2',4,6-trimethoxy-6'-methyl-|UNII-ER776J3MGD

>  <cas>  (1465) 
3680-32-8

$$$$

     RDKit          2D

 14 15  0  0  0  0  0  0  0  0999 V2000
   -3.9387   -1.3104    0.0000 C   0  0  0  0  0  0  0  0  0  0  0  0
   -2.4391   -1.3415    0.0000 O   0  0  0  0  0  0  0  0  0  0  0  0
   -1.6623   -0.0583    0.0000 C   0  0  0  0  0  0  0  0  0  0  0  0
   -2.3852    1.2560    0.0000 C   0  0  0  0  0  0  0  0  0  0  0  0
   -1.6084    2.5392    0.0000 C   0  0  0  0  0  0  0  0  0  0  0  0
   -0.1087    2.5081    0.0000 C   0  0  0  0  0  0  0  0  0  0  0  0
    0.6142    1.1938    0.0000 C   0  0  0  0  0  0  0  0  0  0  0  0
   -0.1626   -0.0894    0.0000 C   0  0  0  0  0  0  0  0  0  0  0  0
    0.5603   -1.4037    0.0000 C   0  0  0  0  0  0  0  0  0  0  0  0
   -0.2165   -2.6870    0.0000 O   0  0  0  0  0  0  0  0  0  0  0  0
    2.0600   -1.4349    0.0000 C   0  0  0  0  0  0  0  0  0  0  0  0
    2.8368   -0.1517    0.0000 C   0  0  0  0  0  0  0  0  0  0  0  0
    4.3364   -0.1828    0.0000 C   0  0  0  0  0  0  0  0  0  0  0  0
    2.1139    1.1627    0.0000 O   0  0  0  0  0  0  0  0  0  0  0  0
  1  2  1  0
  2  3  1  0
  3  4  2  0
  4  5  1  0
  5  6  2  0
  6  7  1  0
  7  8  2  0
  8  9  1  0
  9 10  2  0
  9 11  1  0
 11 12  1  0
 12 13  1  6
 12 14  1  0
  8  3  1  0
 14  7  1  0
M  END
>  <identifier>  (1466) 
CNP0242247.1

>  <canonical_smiles>  (1466) 
COC1=CC=CC2=C1C(=O)C[C@@H](C)O2

>  <standard_inchi>  (1466) 
InChI=1S/C11H12O3/c1-7-6-8(12)11-9(13-2)4-3-5-10(11)14-7/h3-5,7H,6H2,1-2H3/t7-/m1/s1

>  <standard_inchi_key>  (1466) 
XTAMLDAUJXMPMY-SSDOTTSWSA-N

>  <name>  (1466) 
(2r)-2,3-dihydro-2-methyl-5-methoxy-benzopyran-4-one

>  <iupac_name>  (1466) 
(2~{R})-5-methoxy-2-methyl-chroman-4-one

>  <annotation_level>  (1466) 
5

>  <total_atom_count>  (1466) 
26

>  <heavy_atom_count>  (1466) 
14

>  <molecular_weight>  (1466) 
192.21

>  <exact_molecular_weight>  (1466) 
192.07864

>  <molecular_formula>  (1466) 
C11H12O3

>  <alogp>  (1466) 
2.05

>  <topological_polar_surface_area>  (1466) 
35.53

>  <rotatable_bond_count>  (1466) 
1

>  <hydrogen_bond_acceptors>  (1466) 
3

>  <hydrogen_bond_donors>  (1466) 
0

>  <hydrogen_bond_acceptors_lipinski>  (1466) 
3

>  <hydrogen_bond_donors_lipinski>  (1466) 
0

>  <lipinski_rule_of_five_violations>  (1466) 
0

>  <aromatic_rings_count>  (1466) 
1

>  <qed_drug_likeliness>  (1466) 
0.68

>  <formal_charge>  (1466) 
0

>  <fractioncsp3>  (1466) 
0.36

>  <number_of_minimal_rings>  (1466) 
2

>  <van_der_walls_volume>  (1466) 
175.86

>  <contains_sugar>  (1466) 
False

>  <contains_ring_sugars>  (1466) 
False

>  <contains_linear_sugars>  (1466) 
False

>  <murcko_framework>  (1466) 
O1c2ccccc2CCC1

>  <np_likeness>  (1466) 
1.09

>  <chemical_class>  (1466) 
Benzopyrans

>  <chemical_sub_class>  (1466) 
1-benzopyrans

>  <chemical_super_class>  (1466) 
Organoheterocyclic compounds

>  <direct_parent_classification>  (1466) 
Chromones

>  <np_classifier_pathway>  (1466) 
Polyketides

>  <np_classifier_superclass>  (1466) 
Chromanes

>  <np_classifier_class>  (1466) 
Chromones

>  <np_classifier_is_glycoside>  (1466) 
False

>  <organisms>  (1466) 
Curvularia|Curvularia sp.|Dictamnus albus|Dictamnus angustifolius

>  <collections>  (1466) 
CMAUP (cCollective molecular activities of useful plants)|ChemSpider NPs|KNApSaCK|Latin America dataset|NPASS|NuBBEDB|Super Natural II|TCMDB-Taiwan (Traditional Chinese Medicine database)|WikiData Natural Products|ZINC NP

>  <dois>  (1466) 
10.1016/J.PHYTOCHEM.2005.04.043|10.1016/S0031-9422(98)00519-6|10.1016/j.phytochem.2005.04.043

>  <synonyms>  (1466) 
(2R)-23-Dihydro-2-methyl-5-methoxy-benzopyran-4-one|Dictafolin A

>  <cas>  (1466) 
nan

$$$$

     RDKit          2D

 29 32  0  0  0  0  0  0  0  0999 V2000
    4.1251    4.7816    0.0000 C   0  0  0  0  0  0  0  0  0  0  0  0
    4.0288    3.2847    0.0000 C   0  0  0  0  0  0  0  0  0  0  0  0
    2.6843    2.6197    0.0000 C   0  0  0  0  0  0  0  0  0  0  0  0
    2.5879    1.1228    0.0000 C   0  0  0  0  0  0  0  0  0  0  0  0
    3.8361    0.2909    0.0000 C   0  0  0  0  0  0  0  0  0  0  0  0
    3.7398   -1.2060    0.0000 C   0  0  0  0  0  0  0  0  0  0  0  0
    4.9880   -2.0379    0.0000 O   0  0  0  0  0  0  0  0  0  0  0  0
    4.8917   -3.5348    0.0000 C   0  0  0  0  0  0  0  0  0  0  0  0
    2.3953   -1.8711    0.0000 C   0  0  0  0  0  0  0  0  0  0  0  0
    2.2990   -3.3680    0.0000 O   0  0  0  0  0  0  0  0  0  0  0  0
    1.1471   -1.0392    0.0000 C   0  0  0  0  0  0  0  0  0  0  0  0
   -0.1974   -1.7042    0.0000 O   0  0  0  0  0  0  0  0  0  0  0  0
   -0.2937   -3.2011    0.0000 C   0  0  0  0  0  0  0  0  0  0  0  0
    1.2434    0.4577    0.0000 C   0  0  0  0  0  0  0  0  0  0  0  0
   -0.0048    1.2896    0.0000 O   0  0  0  0  0  0  0  0  0  0  0  0
    0.3119    0.2800    0.0000 C   0  0  0  0  0  0  0  0  0  0  0  0
   -1.1869    0.2193    0.0000 C   0  0  0  0  0  0  0  0  0  0  0  0
   -1.8837   -1.1090    0.0000 C   0  0  0  0  0  0  0  0  0  0  0  0
   -3.3825   -1.1697    0.0000 C   0  0  0  0  0  0  0  0  0  0  0  0
   -4.0793   -2.4980    0.0000 O   0  0  0  0  0  0  0  0  0  0  0  0
   -3.2774   -3.7656    0.0000 C   0  0  0  0  0  0  0  0  0  0  0  0
   -4.1844    0.0980    0.0000 C   0  0  0  0  0  0  0  0  0  0  0  0
   -5.6630    0.3502    0.0000 O   0  0  0  0  0  0  0  0  0  0  0  0
   -5.8801    1.8344    0.0000 C   0  0  0  0  0  0  0  0  0  0  0  0
   -4.5355    2.4995    0.0000 O   0  0  0  0  0  0  0  0  0  0  0  0
   -3.4876    1.4263    0.0000 C   0  0  0  0  0  0  0  0  0  0  0  0
   -1.9888    1.4870    0.0000 C   0  0  0  0  0  0  0  0  0  0  0  0
    1.1438    1.5282    0.0000 C   0  0  0  0  0  0  0  0  0  0  0  0
    0.6229    2.9349    0.0000 C   0  0  0  0  0  0  0  0  0  0  0  0
  1  2  2  0
  2  3  1  0
  4  3  1  1
  4  5  1  0
  5  6  2  0
  6  7  1  0
  7  8  1  0
  6  9  1  0
  9 10  2  0
  9 11  1  0
 11 12  1  1
 12 13  1  0
 11 14  1  0
 14 15  1  0
 11 16  1  0
 16 17  1  1
 17 18  2  0
 18 19  1  0
 19 20  1  0
 20 21  1  0
 19 22  2  0
 22 23  1  0
 23 24  1  0
 24 25  1  0
 25 26  1  0
 26 27  2  0
 16 28  1  0
 28 29  1  6
 14  4  1  0
 27 17  1  0
 28  4  1  0
 26 22  1  0
M  END
>  <identifier>  (1467) 
CNP0234624.1

>  <canonical_smiles>  (1467) 
C=CC[C@@]12C=C(OC)C(=O)[C@@](OC)(C1O)[C@@H](C1=CC(OC)=C3OCOC3=C1)[C@@H]2C

>  <standard_inchi>  (1467) 
InChI=1S/C22H26O7/c1-6-7-21-10-16(26-4)19(23)22(27-5,20(21)24)17(12(21)2)13-8-14(25-3)18-15(9-13)28-11-29-18/h6,8-10,12,17,20,24H,1,7,11H2,2-5H3/t12-,17+,20?,21-,22+/m0/s1

>  <standard_inchi_key>  (1467) 
LIMAHKTZLOPDFY-JNYFTGRMSA-N

>  <name>  (1467) 
nan

>  <iupac_name>  (1467) 
(1~{S},5~{R},6~{S},7~{R})-5-allyl-8-hydroxy-1,3-dimethoxy-7-(7-methoxy-1,3-benzodioxol-5-yl)-6-methyl-bicyclo[3.2.1]oct-3-en-2-one

>  <annotation_level>  (1467) 
3

>  <total_atom_count>  (1467) 
55

>  <heavy_atom_count>  (1467) 
29

>  <molecular_weight>  (1467) 
402.44

>  <exact_molecular_weight>  (1467) 
402.16785

>  <molecular_formula>  (1467) 
C22H26O7

>  <alogp>  (1467) 
2.58

>  <topological_polar_surface_area>  (1467) 
83.45

>  <rotatable_bond_count>  (1467) 
6

>  <hydrogen_bond_acceptors>  (1467) 
7

>  <hydrogen_bond_donors>  (1467) 
1

>  <hydrogen_bond_acceptors_lipinski>  (1467) 
7

>  <hydrogen_bond_donors_lipinski>  (1467) 
1

>  <lipinski_rule_of_five_violations>  (1467) 
0

>  <aromatic_rings_count>  (1467) 
1

>  <qed_drug_likeliness>  (1467) 
0.73

>  <formal_charge>  (1467) 
0

>  <fractioncsp3>  (1467) 
0.50

>  <number_of_minimal_rings>  (1467) 
4

>  <van_der_walls_volume>  (1467) 
nan

>  <contains_sugar>  (1467) 
False

>  <contains_ring_sugars>  (1467) 
False

>  <contains_linear_sugars>  (1467) 
False

>  <murcko_framework>  (1467) 
O1c2ccc(cc2OC1)C3CC4C=CCC3C4

>  <np_likeness>  (1467) 
2.26

>  <chemical_class>  (1467) 
Benzodioxoles

>  <chemical_sub_class>  (1467) 
Benzodioxoles

>  <chemical_super_class>  (1467) 
Organoheterocyclic compounds

>  <direct_parent_classification>  (1467) 
Benzodioxoles

>  <np_classifier_pathway>  (1467) 
Shikimates and Phenylpropanoids

>  <np_classifier_superclass>  (1467) 
Lignans

>  <np_classifier_class>  (1467) 
Neolignans

>  <np_classifier_is_glycoside>  (1467) 
False

>  <organisms>  (1467) 
Aniba ferrea

>  <collections>  (1467) 
Latin America dataset|NuBBEDB|WikiData Natural Products

>  <dois>  (1467) 
10.1016/0031-9422(80)83081-0

>  <synonyms>  (1467) 
nan

>  <cas>  (1467) 
nan

$$$$

     RDKit          2D

 51 55  0  0  0  0  0  0  0  0999 V2000
    9.1021   -0.0815    0.0000 C   0  0  0  0  0  0  0  0  0  0  0  0
    7.6131   -0.2621    0.0000 O   0  0  0  0  0  0  0  0  0  0  0  0
    6.7121    0.9372    0.0000 C   0  0  0  0  0  0  0  0  0  0  0  0
    7.4640    2.2351    0.0000 O   0  0  0  0  0  0  0  0  0  0  0  0
    5.2230    0.7566    0.0000 C   0  0  0  0  0  0  0  0  0  0  0  0
    5.6595   -0.6785    0.0000 C   0  0  0  0  0  0  0  0  0  0  0  0
    5.3037    2.2544    0.0000 C   0  0  0  0  0  0  0  0  0  0  0  0
    6.5485    3.0914    0.0000 O   0  0  0  0  0  0  0  0  0  0  0  0
    4.0469    3.0732    0.0000 C   0  0  0  0  0  0  0  0  0  0  0  0
    2.7094    2.3942    0.0000 C   0  0  0  0  0  0  0  0  0  0  0  0
    2.6287    0.8964    0.0000 C   0  0  0  0  0  0  0  0  0  0  0  0
    1.3719    1.7152    0.0000 C   0  0  0  0  0  0  0  0  0  0  0  0
    3.8855    0.0776    0.0000 C   0  0  0  0  0  0  0  0  0  0  0  0
    3.8048   -1.4203    0.0000 C   0  0  0  0  0  0  0  0  0  0  0  0
    5.0616   -2.2391    0.0000 O   0  0  0  0  0  0  0  0  0  0  0  0
    4.9809   -3.7369    0.0000 C   0  0  0  0  0  0  0  0  0  0  0  0
    6.2377   -4.5557    0.0000 C   0  0  0  0  0  0  0  0  0  0  0  0
    3.6434   -4.4159    0.0000 O   0  0  0  0  0  0  0  0  0  0  0  0
    2.4673   -2.0993    0.0000 C   0  0  0  0  0  0  0  0  0  0  0  0
    2.3866   -3.5971    0.0000 O   0  0  0  0  0  0  0  0  0  0  0  0
    1.2105   -1.2805    0.0000 C   0  0  0  0  0  0  0  0  0  0  0  0
    1.1298   -2.7783    0.0000 C   0  0  0  0  0  0  0  0  0  0  0  0
   -0.1270   -1.9595    0.0000 C   0  0  0  0  0  0  0  0  0  0  0  0
   -0.5174   -3.4078    0.0000 C   0  0  0  0  0  0  0  0  0  0  0  0
   -2.0155   -3.4841    0.0000 C   0  0  0  0  0  0  0  0  0  0  0  0
   -2.5509   -2.0830    0.0000 C   0  0  0  0  0  0  0  0  0  0  0  0
   -3.9993   -1.6926    0.0000 C   0  0  0  0  0  0  0  0  0  0  0  0
   -5.1664   -2.6349    0.0000 C   0  0  0  0  0  0  0  0  0  0  0  0
   -6.4232   -1.8161    0.0000 C   0  0  0  0  0  0  0  0  0  0  0  0
   -7.8243   -2.3516    0.0000 O   0  0  0  0  0  0  0  0  0  0  0  0
   -8.9887   -1.4059    0.0000 C   0  0  0  0  0  0  0  0  0  0  0  0
  -10.3898   -1.9413    0.0000 C   0  0  0  0  0  0  0  0  0  0  0  0
   -8.7518    0.0753    0.0000 O   0  0  0  0  0  0  0  0  0  0  0  0
   -6.0328   -0.3677    0.0000 O   0  0  0  0  0  0  0  0  0  0  0  0
   -4.5348   -0.2914    0.0000 C   0  0  0  0  0  0  0  0  0  0  0  0
   -3.7159    0.9654    0.0000 O   0  0  0  0  0  0  0  0  0  0  0  0
   -1.3838   -1.1407    0.0000 C   0  0  0  0  0  0  0  0  0  0  0  0
   -2.7193   -0.4577    0.0000 C   0  0  0  0  0  0  0  0  0  0  0  0
   -1.3031    0.3571    0.0000 C   0  0  0  0  0  0  0  0  0  0  0  0
   -2.5599    1.1759    0.0000 O   0  0  0  0  0  0  0  0  0  0  0  0
   -2.4792    2.6738    0.0000 C   0  0  0  0  0  0  0  0  0  0  0  0
   -1.8769    3.1959    0.0000 O   0  0  0  0  0  0  0  0  0  0  0  0
   -3.7360    3.4926    0.0000 C   0  0  0  0  0  0  0  0  0  0  0  0
   -3.6553    4.9904    0.0000 C   0  0  0  0  0  0  0  0  0  0  0  0
   -5.0735    2.8136    0.0000 C   0  0  0  0  0  0  0  0  0  0  0  0
    0.0344    1.0362    0.0000 C   0  0  0  0  0  0  0  0  0  0  0  0
    0.1151    2.5340    0.0000 O   0  0  0  0  0  0  0  0  0  0  0  0
   -1.1417    3.3528    0.0000 C   0  0  0  0  0  0  0  0  0  0  0  0
   -1.0610    4.8506    0.0000 C   0  0  0  0  0  0  0  0  0  0  0  0
   -2.6038    3.0176    0.0000 O   0  0  0  0  0  0  0  0  0  0  0  0
    1.2912    0.2173    0.0000 C   0  0  0  0  0  0  0  0  0  0  0  0
  1  2  1  0
  2  3  1  0
  3  4  2  0
  3  5  1  0
  5  6  1  1
  5  7  1  0
  7  8  2  0
  7  9  1  0
  9 10  2  0
 10 11  1  0
 11 12  1  6
 11 13  1  0
 13 14  2  0
 14 15  1  0
 15 16  1  0
 16 17  1  0
 16 18  2  0
 14 19  1  0
 19 20  2  0
 19 21  1  0
 21 22  1  6
 21 23  1  0
 23 24  2  0
 24 25  1  0
 25 26  1  0
 26 27  1  1
 27 28  2  0
 28 29  1  0
 29 30  1  0
 30 31  1  0
 31 32  1  0
 31 33  2  0
 29 34  1  0
 34 35  1  0
 35 36  2  0
 26 37  1  0
 37 38  1  1
 37 39  1  0
 39 40  1  1
 40 41  1  0
 41 42  2  0
 41 43  1  0
 43 44  1  0
 43 45  1  0
 39 46  1  0
 46 47  1  6
 47 48  1  0
 48 49  1  0
 48 50  2  0
 46 51  1  0
 13  5  1  0
 51 21  1  0
 51 11  1  6
 37 23  1  0
 35 27  1  0
M  END
>  <identifier>  (1468) 
CNP0194819.1

>  <canonical_smiles>  (1468) 
COC(=O)[C@@]1(C)C(=O)C=C[C@@]2(C)C1=C(OC(C)=O)C(=O)[C@@]1(C)C3=CC[C@@H](C4=CC(OC(C)=O)OC4=O)[C@]3(C)[C@@H](OC(=O)C(C)C)[C@H](OC(C)=O)[C@@H]12

>  <standard_inchi>  (1468) 
InChI=1S/C37H42O14/c1-16(2)31(43)51-30-26(49-19(5)40)28-34(6)14-13-23(41)37(9,33(45)46-10)27(34)25(48-18(4)39)29(42)36(28,8)22-12-11-21(35(22,30)7)20-15-24(47-17(3)38)50-32(20)44/h12-16,21,24,26,28,30H,11H2,1-10H3/t21-,24?,26+,28+,30-,34-,35-,36-,37-/m0/s1

>  <standard_inchi_key>  (1468) 
DXLFKVGWUIBOJK-MENKIJNDSA-N

>  <name>  (1468) 
nan

>  <iupac_name>  (1468) 
methyl (4~{R},8~{R},9~{R},10~{R},11~{R},12~{R},13~{S},17~{R})-6,11-diacetoxy-17-(2-acetoxy-5-oxo-2~{H}-furan-4-yl)-4,8,10,13-tetramethyl-12-(2-methylpropanoyloxy)-3,7-dioxo-11,12,16,17-tetrahydro-9~{H}-cyclopenta[a]phenanthrene-4-carboxylate

>  <annotation_level>  (1468) 
4

>  <total_atom_count>  (1468) 
93

>  <heavy_atom_count>  (1468) 
51

>  <molecular_weight>  (1468) 
710.73

>  <exact_molecular_weight>  (1468) 
710.25746

>  <molecular_formula>  (1468) 
C37H42O14

>  <alogp>  (1468) 
3.17

>  <topological_polar_surface_area>  (1468) 
191.94

>  <rotatable_bond_count>  (1468) 
7

>  <hydrogen_bond_acceptors>  (1468) 
14

>  <hydrogen_bond_donors>  (1468) 
0

>  <hydrogen_bond_acceptors_lipinski>  (1468) 
14

>  <hydrogen_bond_donors_lipinski>  (1468) 
0

>  <lipinski_rule_of_five_violations>  (1468) 
2

>  <aromatic_rings_count>  (1468) 
0

>  <qed_drug_likeliness>  (1468) 
0.16

>  <formal_charge>  (1468) 
0

>  <fractioncsp3>  (1468) 
0.57

>  <number_of_minimal_rings>  (1468) 
5

>  <van_der_walls_volume>  (1468) 
nan

>  <contains_sugar>  (1468) 
False

>  <contains_ring_sugars>  (1468) 
False

>  <contains_linear_sugars>  (1468) 
False

>  <murcko_framework>  (1468) 
O1CC=C(C1)C2CC=C3C4CC=C5CCC=CC5C4CCC32

>  <np_likeness>  (1468) 
2.42

>  <chemical_class>  (1468) 
Steroids and steroid derivatives

>  <chemical_sub_class>  (1468) 
Steroid lactones

>  <chemical_super_class>  (1468) 
Lipids and lipid-like molecules

>  <direct_parent_classification>  (1468) 
Steroid lactones

>  <np_classifier_pathway>  (1468) 
Terpenoids

>  <np_classifier_superclass>  (1468) 
Triterpenoids

>  <np_classifier_class>  (1468) 
Limonoids

>  <np_classifier_is_glycoside>  (1468) 
True

>  <organisms>  (1468) 
Trichilia hirta

>  <collections>  (1468) 
Latin America dataset|NuBBEDB|WikiData Natural Products

>  <dois>  (1468) 
10.1016/0031-9422(92)90048-U

>  <synonyms>  (1468) 
methyl 11\u221a\u00e9\u00ac\u2264-acetoxy-623-diacetoxy-12\u221a\u00e9\u00ac\u00b1 -(2-methylpropionyloxy)-3721-trioxo-151420-meliacatetraen-29-oate

>  <cas>  (1468) 
nan

$$$$

     RDKit          2D

 41 46  0  0  0  0  0  0  0  0999 V2000
   -5.6200   -3.2480    0.0000 C   0  0  0  0  0  0  0  0  0  0  0  0
   -6.5577   -2.0772    0.0000 C   0  0  0  0  0  0  0  0  0  0  0  0
   -8.0405   -2.3039    0.0000 C   0  0  0  0  0  0  0  0  0  0  0  0
   -8.5856   -3.7014    0.0000 C   0  0  0  0  0  0  0  0  0  0  0  0
   -8.9782   -1.1331    0.0000 C   0  0  0  0  0  0  0  0  0  0  0  0
   -8.4331    0.2643    0.0000 C   0  0  0  0  0  0  0  0  0  0  0  0
   -6.9503    0.4910    0.0000 C   0  0  0  0  0  0  0  0  0  0  0  0
   -7.8880    1.6618    0.0000 C   0  0  0  0  0  0  0  0  0  0  0  0
   -6.4052    1.8885    0.0000 C   0  0  0  0  0  0  0  0  0  0  0  0
   -4.9225    2.1151    0.0000 C   0  0  0  0  0  0  0  0  0  0  0  0
   -3.9848    0.9443    0.0000 C   0  0  0  0  0  0  0  0  0  0  0  0
   -3.0471   -0.2264    0.0000 C   0  0  0  0  0  0  0  0  0  0  0  0
   -4.5299   -0.4531    0.0000 C   0  0  0  0  0  0  0  0  0  0  0  0
   -3.5922   -1.6239    0.0000 C   0  0  0  0  0  0  0  0  0  0  0  0
   -2.1094   -1.3972    0.0000 C   0  0  0  0  0  0  0  0  0  0  0  0
   -1.5643    0.0002    0.0000 C   0  0  0  0  0  0  0  0  0  0  0  0
   -0.0815    0.2269    0.0000 C   0  0  0  0  0  0  0  0  0  0  0  0
   -0.6266   -1.1706    0.0000 C   0  0  0  0  0  0  0  0  0  0  0  0
    0.8561   -0.9439    0.0000 C   0  0  0  0  0  0  0  0  0  0  0  0
    2.3389   -0.7172    0.0000 C   0  0  0  0  0  0  0  0  0  0  0  0
    2.8840    0.6802    0.0000 C   0  0  0  0  0  0  0  0  0  0  0  0
    4.3668    0.9069    0.0000 O   0  0  0  0  0  0  0  0  0  0  0  0
    5.3045   -0.2639    0.0000 C   0  0  0  0  0  0  0  0  0  0  0  0
    4.7594   -1.6613    0.0000 O   0  0  0  0  0  0  0  0  0  0  0  0
    6.7872   -0.0372    0.0000 C   0  0  0  0  0  0  0  0  0  0  0  0
    7.7249   -1.2080    0.0000 C   0  0  0  0  0  0  0  0  0  0  0  0
    9.2077   -0.9813    0.0000 C   0  0  0  0  0  0  0  0  0  0  0  0
   10.1454   -2.1521    0.0000 C   0  0  0  0  0  0  0  0  0  0  0  0
   11.6282   -1.9254    0.0000 C   0  0  0  0  0  0  0  0  0  0  0  0
   12.1733   -0.5280    0.0000 C   0  0  0  0  0  0  0  0  0  0  0  0
   11.2356    0.6428    0.0000 C   0  0  0  0  0  0  0  0  0  0  0  0
    9.7528    0.4161    0.0000 C   0  0  0  0  0  0  0  0  0  0  0  0
    1.9463    1.8510    0.0000 C   0  0  0  0  0  0  0  0  0  0  0  0
    1.4656    3.2719    0.0000 C   0  0  0  0  0  0  0  0  0  0  0  0
    3.2621    2.5712    0.0000 C   0  0  0  0  0  0  0  0  0  0  0  0
    0.4635    1.6244    0.0000 C   0  0  0  0  0  0  0  0  0  0  0  0
   -0.4741    2.7951    0.0000 C   0  0  0  0  0  0  0  0  0  0  0  0
   -1.9569    2.5685    0.0000 C   0  0  0  0  0  0  0  0  0  0  0  0
   -2.5020    1.1710    0.0000 C   0  0  0  0  0  0  0  0  0  0  0  0
   -3.4397    2.3418    0.0000 C   0  0  0  0  0  0  0  0  0  0  0  0
   -6.0126   -0.6798    0.0000 C   0  0  0  0  0  0  0  0  0  0  0  0
  2  1  1  1
  2  3  1  0
  3  4  1  6
  3  5  1  0
  5  6  1  0
  6  7  1  0
  7  8  1  1
  7  9  1  0
  9 10  1  0
 10 11  1  0
 11 12  1  6
 11 13  1  0
 13 14  2  0
 14 15  1  0
 16 15  1  1
 16 17  1  0
 17 18  1  1
 17 19  1  0
 19 20  1  0
 20 21  1  0
 21 22  1  0
 22 23  1  0
 23 24  2  0
 23 25  1  0
 25 26  2  0
 26 27  1  0
 27 28  2  0
 28 29  1  0
 29 30  2  0
 30 31  1  0
 31 32  2  0
 21 33  1  0
 33 34  1  0
 33 35  1  0
 33 36  1  0
 36 37  1  1
 37 38  1  0
 38 39  1  0
 39 40  1  1
 41 13  1  6
 41  2  1  0
 41  7  1  0
 39 11  1  0
 39 16  1  0
 36 17  1  0
 32 27  1  0
M  END
>  <identifier>  (1469) 
CNP0213090.2

>  <canonical_smiles>  (1469) 
C[C@H]1[C@H](C)CC[C@]2(C)CC[C@]3(C)C(=CC[C@@H]4[C@@]5(C)CCC(OC(=O)/C=C/C6=CC=CC=C6)C(C)(C)[C@@H]5CC[C@]43C)[C@H]12

>  <standard_inchi>  (1469) 
InChI=1S/C39H56O2/c1-26-18-21-36(5)24-25-38(7)29(34(36)27(26)2)15-16-31-37(6)22-20-32(35(3,4)30(37)19-23-39(31,38)8)41-33(40)17-14-28-12-10-9-11-13-28/h9-15,17,26-27,30-32,34H,16,18-25H2,1-8H3/b17-14+/t26-,27+,30+,31-,32?,34+,36-,37+,38-,39-/m1/s1

>  <standard_inchi_key>  (1469) 
SKSWXHZBFRPYAH-KZTKVBHMSA-N

>  <name>  (1469) 
nan

>  <iupac_name>  (1469) 
[(4~{a}~{R},6~{a}~{R},6~{b}~{S},8~{a}~{R},11~{R},12~{S},12~{a}~{R},14~{a}~{R},14~{b}~{R})-4,4,6~{a},6~{b},8~{a},11,12,14~{b}-octamethyl-2,3,4~{a},5,6,7,8,9,10,11,12,12~{a},14,14~{a}-tetradecahydro-1~{H}-picen-3-yl] (~{E})-3-phenylprop-2-enoate

>  <annotation_level>  (1469) 
4

>  <total_atom_count>  (1469) 
97

>  <heavy_atom_count>  (1469) 
41

>  <molecular_weight>  (1469) 
556.88

>  <exact_molecular_weight>  (1469) 
556.42803

>  <molecular_formula>  (1469) 
C39H56O2

>  <alogp>  (1469) 
10.29

>  <topological_polar_surface_area>  (1469) 
26.30

>  <rotatable_bond_count>  (1469) 
3

>  <hydrogen_bond_acceptors>  (1469) 
2

>  <hydrogen_bond_donors>  (1469) 
0

>  <hydrogen_bond_acceptors_lipinski>  (1469) 
2

>  <hydrogen_bond_donors_lipinski>  (1469) 
0

>  <lipinski_rule_of_five_violations>  (1469) 
2

>  <aromatic_rings_count>  (1469) 
1

>  <qed_drug_likeliness>  (1469) 
0.21

>  <formal_charge>  (1469) 
0

>  <fractioncsp3>  (1469) 
0.72

>  <number_of_minimal_rings>  (1469) 
6

>  <van_der_walls_volume>  (1469) 
nan

>  <contains_sugar>  (1469) 
False

>  <contains_ring_sugars>  (1469) 
False

>  <contains_linear_sugars>  (1469) 
False

>  <murcko_framework>  (1469) 
O(CC=Cc1ccccc1)C2CCC3C(CCC4C5C(=CCC43)C6CCCCC6CC5)C2

>  <np_likeness>  (1469) 
2.63

>  <chemical_class>  (1469) 
Prenol lipids

>  <chemical_sub_class>  (1469) 
Triterpenoids

>  <chemical_super_class>  (1469) 
Lipids and lipid-like molecules

>  <direct_parent_classification>  (1469) 
Taraxastane, ursane, and bauerane triterpenoids

>  <np_classifier_pathway>  (1469) 
Terpenoids

>  <np_classifier_superclass>  (1469) 
Triterpenoids

>  <np_classifier_class>  (1469) 
Ursane and Taraxastane triterpenoids

>  <np_classifier_is_glycoside>  (1469) 
False

>  <organisms>  (1469) 
Himatanthus articulatus|Himatanthus sucuuba

>  <collections>  (1469) 
Latin America dataset|NuBBEDB|WikiData Natural Products

>  <dois>  (1469) 
10.1590/S0100-40421998000600005

>  <synonyms>  (1469) 
\u221a\u00e9\u00ac\u00b1-Amyrin cinnamate

>  <cas>  (1469) 
nan

$$$$

     RDKit          2D

 26 30  0  0  0  0  0  0  0  0999 V2000
    4.8747    2.1491    0.0000 C   0  0  0  0  0  0  0  0  0  0  0  0
    3.6326    1.3082    0.0000 C   0  0  0  0  0  0  0  0  0  0  0  0
    3.7397   -0.1880    0.0000 C   0  0  0  0  0  0  0  0  0  0  0  0
    5.0890   -0.8433    0.0000 O   0  0  0  0  0  0  0  0  0  0  0  0
    2.4976   -1.0288    0.0000 C   0  0  0  0  0  0  0  0  0  0  0  0
    2.6047   -2.5250    0.0000 C   0  0  0  0  0  0  0  0  0  0  0  0
    1.3625   -3.3659    0.0000 C   0  0  0  0  0  0  0  0  0  0  0  0
    0.0132   -2.7106    0.0000 C   0  0  0  0  0  0  0  0  0  0  0  0
   -1.3766   -3.2748    0.0000 O   0  0  0  0  0  0  0  0  0  0  0  0
   -2.3427   -2.1273    0.0000 C   0  0  0  0  0  0  0  0  0  0  0  0
   -1.5499   -0.8539    0.0000 O   0  0  0  0  0  0  0  0  0  0  0  0
   -0.0939   -1.2144    0.0000 C   0  0  0  0  0  0  0  0  0  0  0  0
    1.1483   -0.3735    0.0000 C   0  0  0  0  0  0  0  0  0  0  0  0
    1.0411    1.1226    0.0000 C   0  0  0  0  0  0  0  0  0  0  0  0
    0.4288    2.4919    0.0000 O   0  0  0  0  0  0  0  0  0  0  0  0
   -0.4137    0.7573    0.0000 C   0  0  0  0  0  0  0  0  0  0  0  0
   -0.8247   -0.6853    0.0000 C   0  0  0  0  0  0  0  0  0  0  0  0
   -2.2796   -1.0506    0.0000 C   0  0  0  0  0  0  0  0  0  0  0  0
   -3.3234    0.0267    0.0000 C   0  0  0  0  0  0  0  0  0  0  0  0
   -4.8224   -0.0281    0.0000 O   0  0  0  0  0  0  0  0  0  0  0  0
   -5.3377    1.3805    0.0000 C   0  0  0  0  0  0  0  0  0  0  0  0
   -4.1573    2.3060    0.0000 O   0  0  0  0  0  0  0  0  0  0  0  0
   -2.9123    1.4693    0.0000 C   0  0  0  0  0  0  0  0  0  0  0  0
   -1.4575    1.8346    0.0000 C   0  0  0  0  0  0  0  0  0  0  0  0
    2.2833    1.9635    0.0000 C   0  0  0  0  0  0  0  0  0  0  0  0
    2.1762    3.4597    0.0000 C   0  0  0  0  0  0  0  0  0  0  0  0
  2  1  1  6
  2  3  1  0
  3  4  1  0
  3  5  1  0
  5  6  2  0
  6  7  1  0
  7  8  2  0
  8  9  1  0
  9 10  1  0
 10 11  1  0
 11 12  1  0
 12 13  2  0
 13 14  1  0
 14 15  1  1
 14 16  1  0
 16 17  2  0
 17 18  1  0
 18 19  2  0
 19 20  1  0
 20 21  1  0
 21 22  1  0
 22 23  1  0
 23 24  2  0
 14 25  1  0
 25 26  1  1
 25  2  1  0
 13  5  1  0
 24 16  1  0
 12  8  1  0
 23 19  1  0
M  END
>  <identifier>  (1470) 
CNP0159792.1

>  <canonical_smiles>  (1470) 
C[C@@H]1C(O)C2=CC=C3OCOC3=C2[C@](O)(C2=CC=C3OCOC3=C2)[C@H]1C

>  <standard_inchi>  (1470) 
InChI=1S/C20H20O6/c1-10-11(2)20(22,12-3-5-14-16(7-12)25-8-23-14)17-13(18(10)21)4-6-15-19(17)26-9-24-15/h3-7,10-11,18,21-22H,8-9H2,1-2H3/t10-,11-,18?,20+/m0/s1

>  <standard_inchi_key>  (1470) 
ZINGKVZTZNKXIN-SBASGWESSA-N

>  <name>  (1470) 
nan

>  <iupac_name>  (1470) 
(7~{S},8~{S},9~{R})-9-(1,3-benzodioxol-5-yl)-7,8-dimethyl-7,8-dihydro-6~{H}-benzo[e][1,3]benzodioxole-6,9-diol

>  <annotation_level>  (1470) 
3

>  <total_atom_count>  (1470) 
46

>  <heavy_atom_count>  (1470) 
26

>  <molecular_weight>  (1470) 
356.37

>  <exact_molecular_weight>  (1470) 
356.12599

>  <molecular_formula>  (1470) 
C20H20O6

>  <alogp>  (1470) 
2.70

>  <topological_polar_surface_area>  (1470) 
77.38

>  <rotatable_bond_count>  (1470) 
1

>  <hydrogen_bond_acceptors>  (1470) 
6

>  <hydrogen_bond_donors>  (1470) 
2

>  <hydrogen_bond_acceptors_lipinski>  (1470) 
6

>  <hydrogen_bond_donors_lipinski>  (1470) 
2

>  <lipinski_rule_of_five_violations>  (1470) 
0

>  <aromatic_rings_count>  (1470) 
2

>  <qed_drug_likeliness>  (1470) 
0.82

>  <formal_charge>  (1470) 
0

>  <fractioncsp3>  (1470) 
0.40

>  <number_of_minimal_rings>  (1470) 
5

>  <van_der_walls_volume>  (1470) 
nan

>  <contains_sugar>  (1470) 
False

>  <contains_ring_sugars>  (1470) 
False

>  <contains_linear_sugars>  (1470) 
False

>  <murcko_framework>  (1470) 
O1c2ccc(cc2OC1)C3c4c5OCOc5ccc4CCC3

>  <np_likeness>  (1470) 
1.23

>  <chemical_class>  (1470) 
Aryltetralin lignans

>  <chemical_sub_class>  (1470) 
Aryltetralin lignans

>  <chemical_super_class>  (1470) 
Lignans, neolignans and related compounds

>  <direct_parent_classification>  (1470) 
Aryltetralin lignans

>  <np_classifier_pathway>  (1470) 
Shikimates and Phenylpropanoids

>  <np_classifier_superclass>  (1470) 
Lignans

>  <np_classifier_class>  (1470) 
Arylnaphthalene and aryltetralin lignans

>  <np_classifier_is_glycoside>  (1470) 
False

>  <organisms>  (1470) 
Virola sebifera

>  <collections>  (1470) 
Latin America dataset|NuBBEDB|WikiData Natural Products

>  <dois>  (1470) 
10.1016/0031-9422(82)83181-6

>  <synonyms>  (1470) 
nan

>  <cas>  (1470) 
nan

$$$$

     RDKit          2D

 27 32  0  0  0  0  0  0  0  0999 V2000
    5.5750   -1.4476    0.0000 C   0  0  0  0  0  0  0  0  0  0  0  0
    4.3784   -0.5432    0.0000 O   0  0  0  0  0  0  0  0  0  0  0  0
    2.9968   -1.1273    0.0000 C   0  0  0  0  0  0  0  0  0  0  0  0
    2.8118   -2.6159    0.0000 C   0  0  0  0  0  0  0  0  0  0  0  0
    1.4302   -3.2000    0.0000 C   0  0  0  0  0  0  0  0  0  0  0  0
    0.2336   -2.2956    0.0000 C   0  0  0  0  0  0  0  0  0  0  0  0
    0.4185   -0.8070    0.0000 C   0  0  0  0  0  0  0  0  0  0  0  0
    1.8001   -0.2229    0.0000 C   0  0  0  0  0  0  0  0  0  0  0  0
    1.6715    1.2716    0.0000 N   0  0  0  0  0  0  0  0  0  0  0  0
    2.8050    2.2541    0.0000 C   0  0  0  0  0  0  0  0  0  0  0  0
    2.5209    3.7269    0.0000 C   0  0  0  0  0  0  0  0  0  0  0  0
    4.2225    1.7637    0.0000 O   0  0  0  0  0  0  0  0  0  0  0  0
    0.2104    1.6111    0.0000 C   0  0  0  0  0  0  0  0  0  0  0  0
    0.0701    0.1177    0.0000 C   0  0  0  0  0  0  0  0  0  0  0  0
   -1.1850   -0.7037    0.0000 C   0  0  0  0  0  0  0  0  0  0  0  0
   -2.6097   -0.2346    0.0000 C   0  0  0  0  0  0  0  0  0  0  0  0
   -3.1313    1.1718    0.0000 C   0  0  0  0  0  0  0  0  0  0  0  0
   -4.5463    0.6722    0.0000 C   0  0  0  0  0  0  0  0  0  0  0  0
   -4.8640   -0.7938    0.0000 C   0  0  0  0  0  0  0  0  0  0  0  0
   -3.7532   -1.8018    0.0000 C   0  0  0  0  0  0  0  0  0  0  0  0
   -2.3248   -1.3439    0.0000 N   0  0  0  0  0  0  0  0  0  0  0  0
   -1.3822   -0.4497    0.0000 C   0  0  0  0  0  0  0  0  0  0  0  0
   -1.5066   -0.5677    0.0000 C   0  0  0  0  0  0  0  0  0  0  0  0
   -0.5640    0.3265    0.0000 C   0  0  0  0  0  0  0  0  0  0  0  0
   -2.0512    0.1309    0.0000 C   0  0  0  0  0  0  0  0  0  0  0  0
   -2.3569    2.4564    0.0000 C   0  0  0  0  0  0  0  0  0  0  0  0
   -0.8697    2.6519    0.0000 C   0  0  0  0  0  0  0  0  0  0  0  0
  1  2  1  0
  2  3  1  0
  3  4  2  0
  4  5  1  0
  5  6  2  0
  6  7  1  0
  7  8  2  0
  8  9  1  0
  9 10  1  0
 10 11  1  0
 10 12  2  0
  9 13  1  0
 13 14  1  0
 14 15  1  0
 15 16  1  0
 16 17  1  0
 17 18  1  0
 18 19  1  0
 19 20  1  0
 20 21  1  0
 21 22  1  0
 22 23  1  0
 23 24  1  0
 24 25  1  0
 17 26  1  0
 26 27  1  0
  8  3  1  0
 24 13  1  0
 24  7  1  0
 27 13  1  0
 25 17  1  0
 25 21  1  1
M  END
>  <identifier>  (1471) 
CNP0080752.1

>  <canonical_smiles>  (1471) 
COC1=CC=CC2=C1N(C(C)=O)C13CCCC4(CCCN5CCC21[C@@H]54)CC3

>  <standard_inchi>  (1471) 
InChI=1S/C23H30N2O2/c1-16(26)25-19-17(6-3-7-18(19)27-2)23-13-15-24-14-5-9-21(20(23)24)8-4-10-22(23,25)12-11-21/h3,6-7,20H,4-5,8-15H2,1-2H3/t20-,21?,22?,23?/m0/s1

>  <standard_inchi_key>  (1471) 
QUJGDBXRYRHXEW-LEISRSHCSA-N

>  <name>  (1471) 
nan

>  <iupac_name>  (1471) 
1-[(22~{S})-4-methoxy-2,12-diazahexacyclo[14.3.2.1^{9,12}.0^{1,9}.0^{3,8}.0^{16,22}]docosa-3(8),4,6-trien-2-yl]ethanone

>  <annotation_level>  (1471) 
4

>  <total_atom_count>  (1471) 
57

>  <heavy_atom_count>  (1471) 
27

>  <molecular_weight>  (1471) 
366.51

>  <exact_molecular_weight>  (1471) 
366.23073

>  <molecular_formula>  (1471) 
C23H30N2O2

>  <alogp>  (1471) 
3.87

>  <topological_polar_surface_area>  (1471) 
32.78

>  <rotatable_bond_count>  (1471) 
1

>  <hydrogen_bond_acceptors>  (1471) 
3

>  <hydrogen_bond_donors>  (1471) 
0

>  <hydrogen_bond_acceptors_lipinski>  (1471) 
3

>  <hydrogen_bond_donors_lipinski>  (1471) 
0

>  <lipinski_rule_of_five_violations>  (1471) 
0

>  <aromatic_rings_count>  (1471) 
1

>  <qed_drug_likeliness>  (1471) 
0.76

>  <formal_charge>  (1471) 
0

>  <fractioncsp3>  (1471) 
0.70

>  <number_of_minimal_rings>  (1471) 
7

>  <van_der_walls_volume>  (1471) 
nan

>  <contains_sugar>  (1471) 
False

>  <contains_ring_sugars>  (1471) 
False

>  <contains_linear_sugars>  (1471) 
False

>  <murcko_framework>  (1471) 
c1ccc2c(c1)NC34CCCC5(CCCN6CCC23C65)CC4

>  <np_likeness>  (1471) 
1.41

>  <chemical_class>  (1471) 
Aspidospermatan-type alkaloids

>  <chemical_sub_class>  (1471) 
Aspidospermatan-type alkaloids

>  <chemical_super_class>  (1471) 
Alkaloids and derivatives

>  <direct_parent_classification>  (1471) 
Aspidospermatan-type alkaloids

>  <np_classifier_pathway>  (1471) 
Alkaloids

>  <np_classifier_superclass>  (1471) 
Tryptophan alkaloids

>  <np_classifier_class>  (1471) 
Aspidosperma type

>  <np_classifier_is_glycoside>  (1471) 
False

>  <organisms>  (1471) 
Aspidosperma pyrifolium

>  <collections>  (1471) 
Latin America dataset|NuBBEDB|WikiData Natural Products

>  <dois>  (1471) 
10.1016/S0031-9422(00)84061-3

>  <synonyms>  (1471) 
6-Demethoxypyrifoline

>  <cas>  (1471) 
nan

$$$$

     RDKit          2D

 31 35  0  0  0  0  0  0  0  0999 V2000
    4.3358   -4.5745    0.0000 C   0  0  0  0  0  0  0  0  0  0  0  0
    4.9346   -3.1992    0.0000 O   0  0  0  0  0  0  0  0  0  0  0  0
    4.0429   -1.9930    0.0000 C   0  0  0  0  0  0  0  0  0  0  0  0
    2.5525   -2.1622    0.0000 C   0  0  0  0  0  0  0  0  0  0  0  0
    1.6608   -0.9560    0.0000 C   0  0  0  0  0  0  0  0  0  0  0  0
    0.1703   -1.1251    0.0000 C   0  0  0  0  0  0  0  0  0  0  0  0
   -0.5689   -2.4303    0.0000 O   0  0  0  0  0  0  0  0  0  0  0  0
   -2.0386   -2.1306    0.0000 C   0  0  0  0  0  0  0  0  0  0  0  0
   -2.2078   -0.6402    0.0000 C   0  0  0  0  0  0  0  0  0  0  0  0
   -0.8425   -0.0187    0.0000 C   0  0  0  0  0  0  0  0  0  0  0  0
   -1.0117    1.4717    0.0000 C   0  0  0  0  0  0  0  0  0  0  0  0
   -2.4814    1.7714    0.0000 O   0  0  0  0  0  0  0  0  0  0  0  0
   -3.2207    0.4662    0.0000 C   0  0  0  0  0  0  0  0  0  0  0  0
   -4.7111    0.2971    0.0000 C   0  0  0  0  0  0  0  0  0  0  0  0
   -5.3098   -1.0782    0.0000 C   0  0  0  0  0  0  0  0  0  0  0  0
   -6.8003   -1.2474    0.0000 C   0  0  0  0  0  0  0  0  0  0  0  0
   -7.6920   -0.0412    0.0000 C   0  0  0  0  0  0  0  0  0  0  0  0
   -9.1850    0.1033    0.0000 O   0  0  0  0  0  0  0  0  0  0  0  0
   -9.5090    1.5679    0.0000 C   0  0  0  0  0  0  0  0  0  0  0  0
   -8.2162    2.3286    0.0000 O   0  0  0  0  0  0  0  0  0  0  0  0
   -7.0932    1.3341    0.0000 C   0  0  0  0  0  0  0  0  0  0  0  0
   -5.6028    1.5033    0.0000 C   0  0  0  0  0  0  0  0  0  0  0  0
    2.2595    0.4193    0.0000 C   0  0  0  0  0  0  0  0  0  0  0  0
    3.7500    0.5885    0.0000 C   0  0  0  0  0  0  0  0  0  0  0  0
    4.6416   -0.6177    0.0000 C   0  0  0  0  0  0  0  0  0  0  0  0
    6.1321   -0.4486    0.0000 O   0  0  0  0  0  0  0  0  0  0  0  0
    6.7308    0.9267    0.0000 C   0  0  0  0  0  0  0  0  0  0  0  0
    8.2213    1.0959    0.0000 C   0  0  0  0  0  0  0  0  0  0  0  0
    8.8200    2.4712    0.0000 C   0  0  0  0  0  0  0  0  0  0  0  0
   10.3104    2.6403    0.0000 C   0  0  0  0  0  0  0  0  0  0  0  0
    7.9283    3.6774    0.0000 C   0  0  0  0  0  0  0  0  0  0  0  0
  1  2  1  0
  2  3  1  0
  3  4  2  0
  4  5  1  0
  6  5  1  1
  6  7  1  0
  7  8  1  0
  9  8  1  1
  9 10  1  0
 10 11  1  1
 11 12  1  0
 12 13  1  0
 13 14  1  6
 14 15  2  0
 15 16  1  0
 16 17  2  0
 17 18  1  0
 18 19  1  0
 19 20  1  0
 20 21  1  0
 21 22  2  0
  5 23  2  0
 23 24  1  0
 24 25  2  0
 25 26  1  0
 26 27  1  0
 27 28  1  0
 28 29  2  0
 29 30  1  0
 29 31  1  0
 25  3  1  0
 10  6  1  0
 22 14  1  0
 13  9  1  0
 21 17  1  0
M  END
>  <identifier>  (1472) 
CNP0170756.5

>  <canonical_smiles>  (1472) 
COC1=CC([C@H]2OC[C@@H]3[C@H]2CO[C@H]3C2=CC=C3OCOC3=C2)=CC=C1OCC=C(C)C

>  <standard_inchi>  (1472) 
InChI=1S/C25H28O6/c1-15(2)8-9-27-20-6-4-16(10-22(20)26-3)24-18-12-29-25(19(18)13-28-24)17-5-7-21-23(11-17)31-14-30-21/h4-8,10-11,18-19,24-25H,9,12-14H2,1-3H3/t18-,19-,24-,25+/m1/s1

>  <standard_inchi_key>  (1472) 
WXYFFRZGPDZASV-UEUXDIAVSA-N

>  <name>  (1472) 
nan

>  <iupac_name>  (1472) 
5-[(3~{R},3~{a}~{S},6~{S},6~{a}~{S})-6-[3-methoxy-4-(3-methylbut-2-enoxy)phenyl]-1,3,3~{a},4,6,6~{a}-hexahydrofuro[3,4-c]furan-3-yl]-1,3-benzodioxole

>  <annotation_level>  (1472) 
4

>  <total_atom_count>  (1472) 
59

>  <heavy_atom_count>  (1472) 
31

>  <molecular_weight>  (1472) 
424.49

>  <exact_molecular_weight>  (1472) 
424.18859

>  <molecular_formula>  (1472) 
C25H28O6

>  <alogp>  (1472) 
4.84

>  <topological_polar_surface_area>  (1472) 
55.38

>  <rotatable_bond_count>  (1472) 
6

>  <hydrogen_bond_acceptors>  (1472) 
6

>  <hydrogen_bond_donors>  (1472) 
0

>  <hydrogen_bond_acceptors_lipinski>  (1472) 
6

>  <hydrogen_bond_donors_lipinski>  (1472) 
0

>  <lipinski_rule_of_five_violations>  (1472) 
0

>  <aromatic_rings_count>  (1472) 
2

>  <qed_drug_likeliness>  (1472) 
0.62

>  <formal_charge>  (1472) 
0

>  <fractioncsp3>  (1472) 
0.44

>  <number_of_minimal_rings>  (1472) 
5

>  <van_der_walls_volume>  (1472) 
nan

>  <contains_sugar>  (1472) 
False

>  <contains_ring_sugars>  (1472) 
False

>  <contains_linear_sugars>  (1472) 
False

>  <murcko_framework>  (1472) 
O1c2ccc(cc2OC1)C3OCC4C(OCC34)c5ccccc5

>  <np_likeness>  (1472) 
0.99

>  <chemical_class>  (1472) 
Furanoid lignans

>  <chemical_sub_class>  (1472) 
Furan lignans

>  <chemical_super_class>  (1472) 
Lignans, neolignans and related compounds

>  <direct_parent_classification>  (1472) 
Furan lignans

>  <np_classifier_pathway>  (1472) 
Shikimates and Phenylpropanoids

>  <np_classifier_superclass>  (1472) 
Lignans

>  <np_classifier_class>  (1472) 
Furofuranoid lignans

>  <np_classifier_is_glycoside>  (1472) 
False

>  <organisms>  (1472) 
Raulinoa echinata

>  <collections>  (1472) 
Latin America dataset|NuBBEDB|ZINC NP

>  <dois>  (1472) 
10.1002/1099-1565(200101/02)12:1<64::AID-PCA562>3.0.CO,2-3

>  <synonyms>  (1472) 
(+)-pluviatilol- \u221a\u00e9\u00ac\u2265\u221a\u00e9\u00ac\u2265-dimethylallylether

>  <cas>  (1472) 
nan

$$$$

     RDKit          2D

 27 29  0  0  0  0  0  0  0  0999 V2000
    6.8292   -3.3509    0.0000 C   0  0  0  0  0  0  0  0  0  0  0  0
    6.6560   -1.8609    0.0000 O   0  0  0  0  0  0  0  0  0  0  0  0
    5.2790   -1.2660    0.0000 C   0  0  0  0  0  0  0  0  0  0  0  0
    4.0753   -2.1610    0.0000 C   0  0  0  0  0  0  0  0  0  0  0  0
    2.6983   -1.5660    0.0000 C   0  0  0  0  0  0  0  0  0  0  0  0
    2.5251   -0.0760    0.0000 C   0  0  0  0  0  0  0  0  0  0  0  0
    1.1482    0.5190    0.0000 C   0  0  0  0  0  0  0  0  0  0  0  0
   -0.1425   -0.2453    0.0000 O   0  0  0  0  0  0  0  0  0  0  0  0
   -1.2682    0.7461    0.0000 C   0  0  0  0  0  0  0  0  0  0  0  0
   -2.7319    0.4181    0.0000 C   0  0  0  0  0  0  0  0  0  0  0  0
   -3.7478    1.5217    0.0000 C   0  0  0  0  0  0  0  0  0  0  0  0
   -5.2115    1.1937    0.0000 C   0  0  0  0  0  0  0  0  0  0  0  0
   -5.6593   -0.2379    0.0000 C   0  0  0  0  0  0  0  0  0  0  0  0
   -7.1230   -0.5659    0.0000 O   0  0  0  0  0  0  0  0  0  0  0  0
   -8.1389    0.5377    0.0000 C   0  0  0  0  0  0  0  0  0  0  0  0
   -4.6434   -1.3415    0.0000 C   0  0  0  0  0  0  0  0  0  0  0  0
   -5.0912   -2.7731    0.0000 O   0  0  0  0  0  0  0  0  0  0  0  0
   -4.0753   -3.8767    0.0000 C   0  0  0  0  0  0  0  0  0  0  0  0
   -3.1797   -1.0135    0.0000 C   0  0  0  0  0  0  0  0  0  0  0  0
   -0.6732    2.1230    0.0000 C   0  0  0  0  0  0  0  0  0  0  0  0
   -1.4375    3.4137    0.0000 C   0  0  0  0  0  0  0  0  0  0  0  0
    0.8202    1.9827    0.0000 C   0  0  0  0  0  0  0  0  0  0  0  0
    1.8115    3.1084    0.0000 C   0  0  0  0  0  0  0  0  0  0  0  0
    3.7289    0.8190    0.0000 C   0  0  0  0  0  0  0  0  0  0  0  0
    5.1058    0.2240    0.0000 C   0  0  0  0  0  0  0  0  0  0  0  0
    6.3096    1.1190    0.0000 O   0  0  0  0  0  0  0  0  0  0  0  0
    6.1364    2.6089    0.0000 C   0  0  0  0  0  0  0  0  0  0  0  0
  1  2  1  0
  2  3  1  0
  3  4  2  0
  4  5  1  0
  5  6  2  0
  7  6  1  1
  7  8  1  0
  8  9  1  0
  9 10  1  1
 10 11  2  0
 11 12  1  0
 12 13  2  0
 13 14  1  0
 14 15  1  0
 13 16  1  0
 16 17  1  0
 17 18  1  0
 16 19  2  0
  9 20  1  0
 20 21  1  1
 20 22  1  0
 22 23  1  6
  6 24  1  0
 24 25  2  0
 25 26  1  0
 26 27  1  0
 25  3  1  0
 22  7  1  0
 19 10  1  0
M  END
>  <identifier>  (1473) 
CNP0286348.3

>  <canonical_smiles>  (1473) 
COC1=CC=C([C@H]2O[C@@H](C3=CC=C(OC)C(OC)=C3)[C@@H](C)[C@@H]2C)C=C1OC

>  <standard_inchi>  (1473) 
InChI=1S/C22H28O5/c1-13-14(2)22(16-8-10-18(24-4)20(12-16)26-6)27-21(13)15-7-9-17(23-3)19(11-15)25-5/h7-14,21-22H,1-6H3/t13-,14-,21-,22+/m0/s1

>  <standard_inchi_key>  (1473) 
JLJAVUZBHSLLJL-GKHNXXNSSA-N

>  <name>  (1473) 
Veraguensin

>  <iupac_name>  (1473) 
(2~{S},3~{S},4~{S},5~{R})-2,5-bis(3,4-dimethoxyphenyl)-3,4-dimethyl-tetrahydrofuran

>  <annotation_level>  (1473) 
5

>  <total_atom_count>  (1473) 
55

>  <heavy_atom_count>  (1473) 
27

>  <molecular_weight>  (1473) 
372.46

>  <exact_molecular_weight>  (1473) 
372.19367

>  <molecular_formula>  (1473) 
C22H28O5

>  <alogp>  (1473) 
4.81

>  <topological_polar_surface_area>  (1473) 
46.15

>  <rotatable_bond_count>  (1473) 
6

>  <hydrogen_bond_acceptors>  (1473) 
5

>  <hydrogen_bond_donors>  (1473) 
0

>  <hydrogen_bond_acceptors_lipinski>  (1473) 
5

>  <hydrogen_bond_donors_lipinski>  (1473) 
0

>  <lipinski_rule_of_five_violations>  (1473) 
0

>  <aromatic_rings_count>  (1473) 
2

>  <qed_drug_likeliness>  (1473) 
0.73

>  <formal_charge>  (1473) 
0

>  <fractioncsp3>  (1473) 
0.46

>  <number_of_minimal_rings>  (1473) 
3

>  <van_der_walls_volume>  (1473) 
351.38

>  <contains_sugar>  (1473) 
False

>  <contains_ring_sugars>  (1473) 
False

>  <contains_linear_sugars>  (1473) 
False

>  <murcko_framework>  (1473) 
O1C(c2ccccc2)CCC1c3ccccc3

>  <np_likeness>  (1473) 
0.67

>  <chemical_class>  (1473) 
Furanoid lignans

>  <chemical_sub_class>  (1473) 
Tetrahydrofuran lignans

>  <chemical_super_class>  (1473) 
Lignans, neolignans and related compounds

>  <direct_parent_classification>  (1473) 
7,7'-epoxylignans

>  <np_classifier_pathway>  (1473) 
Shikimates and Phenylpropanoids

>  <np_classifier_superclass>  (1473) 
Lignans

>  <np_classifier_class>  (1473) 
Furanoid lignans

>  <np_classifier_is_glycoside>  (1473) 
False

>  <organisms>  (1473) 
Acorus calamus|Acorus gramineus|Acorus tatarinowii|Anoplophora chinensis|Castilleja sulphurea|Cynthia savignyi|Dioscorea sativa|Eremanthus incanus|Forsythia japonica|Gymnosporia trigyna|Himantandra belgraveana|Huperzia miyoshiana|Illicium floridanum|Kadsura sp.|Lecanora straminea|Lindera aggregata|Magnolia acuminata|Magnolia denudata|Magnolia liliiflora|Magnolia × soulangeana|Magnoliaceae|Mortonia hidalgensis|Mycena viridimarginata|Nectandra angustifolia|Nectandra megapotamica|Nectandra puberula|Nectandra rigida|Ocotea foetens|Ocotea veraguensis|Piper cuneifolium|Piper futokadsura|Piper kadsura|Piper mullesua|Piper puberulum|Piper schmidtii|Piper wallichii|Prunus ssiori|Pseudobrickellia brasiliensis|Rhododendron latoucheae|Saururus cernuus|Schisandra propinqua|Schisandra propinqua var. sinensis|Schisandra propinqua var.sinensis|Seseli montanum|Streptomyces amakusaensis|Trimenia papuana|Veronica austriaca|Virola surinamensis

>  <collections>  (1473) 
CMAUP (cCollective molecular activities of useful plants)|ChEBI NPs|KNApSaCK|Latin America dataset|NPASS|NPEdia|NuBBEDB|Super Natural II|TCMDB-Taiwan (Traditional Chinese Medicine database)|TIPdb (database of Taiwan indigenous plants)|WikiData Natural Products|ZINC NP

>  <dois>  (1473) 
10.1002/CHIN.200533260|10.1002/PTR.2486|10.1016/0031-9422(82)83163-4|10.1016/S0031-9422(00)81526-5|10.1016/S0031-9422(00)86979-4|10.1016/S0031-9422(00)90743-X|10.1016/S0031-9422(00)94227-4|10.1016/S0031-9422(96)00408-6|10.1016/S0031-9422(98)00709-2|10.1021/NP0302697|10.1021/NP0505521|10.1021/NP200541M|10.1021/NP50022A005|10.1021/NP50119A023|10.1021/NP900123Z|10.1021/np200541m|10.1055/S-0030-1249833|10.1055/S-2000-9564|10.1080/10286020108040371|10.1080/10826079708000478|10.1248/CPB.48.832|10.1248/CPB.53.121|10.1248/CPB.53.235

>  <synonyms>  (1473) 
(+)-Veraguensin|(2S,3S,4S,5R)-2,5-bis(3,4-dimethoxyphenyl)-3,4-dimethyloxolane|19950-55-1|AC-34844|AC1L9DW5|AKOS037514975|C10892|CHEBI:69669|CHEMBL4102990|CS-0032090|DTXSID90332044|G14631|Galgravin|HY-N5023|MS-26012|Q27138010|SCHEMBL9425732|SureCN9425732|Veraguensine|ZINC17836230|veraguensin

>  <cas>  (1473) 
19950-55-1

$$$$

     RDKit          2D

 20 19  0  0  0  0  0  0  0  0999 V2000
  -12.0861   -0.2828    0.0000 C   0  0  0  0  0  0  0  0  0  0  0  0
  -10.7768    0.4492    0.0000 C   0  0  0  0  0  0  0  0  0  0  0  0
   -9.4883   -0.3187    0.0000 C   0  0  0  0  0  0  0  0  0  0  0  0
   -8.1790    0.4132    0.0000 C   0  0  0  0  0  0  0  0  0  0  0  0
   -6.8905   -0.3547    0.0000 C   0  0  0  0  0  0  0  0  0  0  0  0
   -5.5812    0.3773    0.0000 C   0  0  0  0  0  0  0  0  0  0  0  0
   -4.2926   -0.3906    0.0000 C   0  0  0  0  0  0  0  0  0  0  0  0
   -2.9833    0.3413    0.0000 C   0  0  0  0  0  0  0  0  0  0  0  0
   -1.6948   -0.4266    0.0000 C   0  0  0  0  0  0  0  0  0  0  0  0
   -0.3855    0.3054    0.0000 C   0  0  0  0  0  0  0  0  0  0  0  0
    0.9030   -0.4625    0.0000 C   0  0  0  0  0  0  0  0  0  0  0  0
    2.2123    0.2694    0.0000 C   0  0  0  0  0  0  0  0  0  0  0  0
    3.5008   -0.4985    0.0000 C   0  0  0  0  0  0  0  0  0  0  0  0
    4.8101    0.2335    0.0000 C   0  0  0  0  0  0  0  0  0  0  0  0
    6.0987   -0.5344    0.0000 C   0  0  0  0  0  0  0  0  0  0  0  0
    7.4080    0.1975    0.0000 C   0  0  0  0  0  0  0  0  0  0  0  0
    7.4287    1.6974    0.0000 O   0  0  0  0  0  0  0  0  0  0  0  0
    8.6965   -0.5704    0.0000 O   0  0  0  0  0  0  0  0  0  0  0  0
   10.0058    0.1615    0.0000 C   0  0  0  0  0  0  0  0  0  0  0  0
   11.2943   -0.6064    0.0000 C   0  0  0  0  0  0  0  0  0  0  0  0
  1  2  1  0
  2  3  1  0
  3  4  1  0
  4  5  1  0
  5  6  1  0
  6  7  1  0
  7  8  1  0
  8  9  1  0
  9 10  1  0
 10 11  1  0
 11 12  1  0
 12 13  1  0
 13 14  1  0
 14 15  1  0
 15 16  1  0
 16 17  2  0
 16 18  1  0
 18 19  1  0
 19 20  1  0
M  END
>  <identifier>  (1474) 
CNP0248873.0

>  <canonical_smiles>  (1474) 
CCCCCCCCCCCCCCCC(=O)OCC

>  <standard_inchi>  (1474) 
InChI=1S/C18H36O2/c1-3-5-6-7-8-9-10-11-12-13-14-15-16-17-18(19)20-4-2/h3-17H2,1-2H3

>  <standard_inchi_key>  (1474) 
XIRNKXNNONJFQO-UHFFFAOYSA-N

>  <name>  (1474) 
ETHYL PALMITATE

>  <iupac_name>  (1474) 
ethyl hexadecanoate

>  <annotation_level>  (1474) 
5

>  <total_atom_count>  (1474) 
56

>  <heavy_atom_count>  (1474) 
20

>  <molecular_weight>  (1474) 
284.48

>  <exact_molecular_weight>  (1474) 
284.27153

>  <molecular_formula>  (1474) 
C18H36O2

>  <alogp>  (1474) 
6.03

>  <topological_polar_surface_area>  (1474) 
26.30

>  <rotatable_bond_count>  (1474) 
15

>  <hydrogen_bond_acceptors>  (1474) 
2

>  <hydrogen_bond_donors>  (1474) 
0

>  <hydrogen_bond_acceptors_lipinski>  (1474) 
2

>  <hydrogen_bond_donors_lipinski>  (1474) 
0

>  <lipinski_rule_of_five_violations>  (1474) 
1

>  <aromatic_rings_count>  (1474) 
0

>  <qed_drug_likeliness>  (1474) 
0.27

>  <formal_charge>  (1474) 
0

>  <fractioncsp3>  (1474) 
0.94

>  <number_of_minimal_rings>  (1474) 
0

>  <van_der_walls_volume>  (1474) 
324.26

>  <contains_sugar>  (1474) 
False

>  <contains_ring_sugars>  (1474) 
False

>  <contains_linear_sugars>  (1474) 
False

>  <murcko_framework>  (1474) 
nan

>  <np_likeness>  (1474) 
0.12

>  <chemical_class>  (1474) 
Fatty Acyls

>  <chemical_sub_class>  (1474) 
Fatty acid esters

>  <chemical_super_class>  (1474) 
Lipids and lipid-like molecules

>  <direct_parent_classification>  (1474) 
Fatty acid esters

>  <np_classifier_pathway>  (1474) 
Fatty acids

>  <np_classifier_superclass>  (1474) 
Fatty esters

>  <np_classifier_class>  (1474) 
Wax monoesters

>  <np_classifier_is_glycoside>  (1474) 
False

>  <organisms>  (1474) 
Abrus precatorius|Acacia aulacocarpa|Achillea millefolium|Aloe vera|Anemone flaccida|Aquilaria agallochum|Aquilaria sinensis|Ardisia neriifolia|Ardisiae japonicae|Aristolochia clematitis|Aristolochia debilis|Aristolochia fontanesii|Aristolochia grandiflora|Aristolochiaceae|Artemisia argyi|Artemisia capillaris|Artemisia montana|Artemisia princeps|Aspidosperma subincanum|Astilbe chinensis|Azadirachta indica|Basella alba|Bupleurum chinense|Calypogeia integristipula|Centipeda minima|Cetraria islandica|Chaenomeles sinensis|Chrysanthemum indicum|Chrysanthemum x morifolium|Cirsium brevistylum|Clinopodium barbatum|Cnidium officinale|Codonopsis pilosula|Conocephalum conicum|Coriandrum sativum|Couroupita guianensis|Crinum asiaticum|Crinum asiaticum var. sinicum|Crocus sativus|Cryptocarya aschersoniana|Cryptomeria japonica|Cynanchum stauntoni|Cynomorium songaricum|Cyperus esculentus|Dactylanthus taylorii|Daphne odora|Desmodium oxyphyllum|Echinops echinatus|Eleutherococcus senticosus|Eucommia ulmoides|Eupatorium argentinum|Euphorbia hirta|Exodermis poria|Ficus carica|Flos lonicerae|Gentiana dahurica|Guatteria boliviana|Hamamelis virginiana|Hohenbuehelia serotina|Homo sapiens|Inula helenium|Ixora chinensis|Jatropha curcas|Juniperus brevifolia|Lagerstroemia speciosa|Lantana ukambensis|Launaea aspleniifolia|Ligusticum chuanxiong|Ligusticum sinense|Lonicera japonica|Lygodium japonicum|Mangifera indica|Melia azedarach|Melia azedarach var. toosendan|Mimusops elengi|Mitracarpus hirtus|Murraya exotica|Murraya paniculata|Myristica fragrans|Nelumbo nucifera|Neolentinus lepideus|Nepeta hindostana|Pallavicinia subciliata|Panax notoginseng|Panax pseudo-ginseng var. notoginseng|Panax pseudo-ginseng wall. var. notoginseng (burk.) hoo et tseng|Periploca sepium|Peritassa compta|Phallus impudicus|Phytolacca acinosa|Pinellia ternata|Piper nigrum|Polygala senega|Polygala sibirica|Polygala tenuifolia|Psiadia dentata|Psidium friedrichsthalianum|Psidium guajava|Putterlickia verrucosa|Pyrola japonica|Radix chuanxiong|Radix codonopsis pilosulae|Rheedia acuminata|Rhizoma chuanxiong|Sarcomyxa serotina|Saussurea involucrata|Sinopodophyllum hexandrum|Stachybotrys chartarum|Stephania sutchuenensis|Streptomyces rochei|Streptomyces sundarbansensis|Swietenia macrophylla|Symphyocladia latiuscula|Trametes lilacinogilva|Trichosanthes kirilowii|Tylophora ovata|Vernonia condensata|Vincetoxicum glaucescens|Vincetoxicum stauntonii|Vitis vinifera|Zingiber officinale|Ziziphus jujuba var. spinosa|liquorice|maize

>  <collections>  (1474) 
AnalytiCon Discovery NPs|Australian natural products|CMAUP (cCollective molecular activities of useful plants)|ChEBI NPs|EMNPD|FooDB|GNPS (Global Natural Products Social Molecular Networking)|Latin America dataset|NAPRORE-CR|NPASS|NuBBEDB|Phyto4Health|StreptomeDB|Super Natural II|TCMDB-Taiwan (Traditional Chinese Medicine database)|TCMID (Traditional Chinese Medicine Integrated Database)|UNPD (Universal Natural Products Database)|WikiData Natural Products

>  <dois>  (1474) 
10.1002/CHIN.200517223|10.1002/FFJ.2730080506|10.1002/FFJ.2730100408|10.1002/JSFA.5846|10.1002/jsfa.5846|10.1007/BF00574222|10.1007/BF02236423|10.1007/BF02908196|10.1007/S10600-019-02670-2|10.1016/0010-7824(90)90054-Y|10.1016/0031-9422(82)80138-6|10.1016/0031-9422(88)80124-9|10.1016/0031-9422(95)00403-T|10.1016/0889-1575(91)90017-Z|10.1016/J.BSE.2012.10.013|10.1016/S0031-9422(00)80353-2|10.1016/S0031-9422(00)81318-7|10.1016/S0031-9422(00)83828-5|10.1016/S0031-9422(00)84973-0|10.1016/S0031-9422(00)90616-2|10.1016/j.indcrop.2010.05.011|10.1016/j.micres.2018.01.003|10.1021/JF60214A042|10.1021/NP50020A013|10.1021/jf011456i|10.1023/A:1025694720727|10.1055/S-2006-957420|10.1055/S-2006-958023|10.1071/bi9810115|10.1080/00021369.1973.10860818|10.1080/10412905.1991.9697994|10.1080/10412905.1992.9698080|10.1080/10412905.1994.9698425|10.1080/10412905.1995.9698507|10.1088/1752-7155/2/3/037023|10.1155/2013/413237|10.1201/9781420009071-7|10.1248/CPB.32.723|10.1248/CPB.33.4091|10.1248/CPB.39.3272|10.1248/CPB.52.1349|10.1271/BBB.57.1350|10.1271/BBB.60.654|10.1271/BBB1961.47.483|10.1590/S0103-50531999000200009|10.1590/S0103-50532009000900006|10.3390/molecules27020483|10.3892/IJO.2013.1816

>  <synonyms>  (1474) 
3-trifluoromethyl-o-toluanilide|628-97-7|A801217|A868321|AC-35085|AI3-06331|AKOS004910397|AS-57139|CAS-628-97-7|CCG-267313|CHEBI:84932|CHEMBL3561042|CS-0018590|DB-054321|DTXCID0027511|DTXSID2047511|EINECS 211-064-6|ETHYL PALMITATE [FHFI]|ETHYL PALMITATE [INCI]|ETHYL PALMITATE [USP-RS]|Ethyl Palmitate; Hexadecanoic acid ethyl ester|Ethyl cetylate|Ethyl hexadecanoate|Ethyl hexadecanoate (ethyl palmitate)|Ethyl palmitate|Ethyl palmitate (natural)|Ethyl palmitate, 1mg\/ml in Acetonitrile|Ethyl palmitate, >=95%, FG|Ethyl palmitate, >=99%|Ethyl palmitate, United States Pharmacopeia (USP) Reference Standard|Ethyl palmitate, Vetec(TM) reagent grade, 95%|Ethyl palmitate, analytical standard|Ethyl palmitate, natural (US), >=95%, FG|FEMA 2451|FEMA No. 2451|HEXADECANOIC ACID,ETHYL ESTER MFC18 H36 O2|HMS3650O17|HY-N2086|Hexadecanoic acid, ethyl ester|IRD3M534ZM|InChI=1\/C18H36O2\/c1-3-5-6-7-8-9-10-11-12-13-14-15-16-17-18(19)20-4-2\/h3-17H2,1-2H|LMFA07010471|MFCD00008996|NCGC00256913-01|NS00012447|NSC 8918|NSC-8918|P0003|Palmitic acid ethyl ester|Palmitic acid, ethyl ester (8CI)|Q18354123|QSPL 072|QSPL 171|QSPL 205|SCHEMBL120620|SR-01000946821|Tox21_302505|UNII-IRD3M534ZM|WE(2:0\/16:0)|s9372

>  <cas>  (1474) 
628-97-7

$$$$

     RDKit          2D

 47 53  0  0  0  0  0  0  0  0999 V2000
    7.2134    0.9174    0.0000 C   0  0  0  0  0  0  0  0  0  0  0  0
    6.1966   -0.1854    0.0000 C   0  0  0  0  0  0  0  0  0  0  0  0
    6.6433   -1.6174    0.0000 O   0  0  0  0  0  0  0  0  0  0  0  0
    4.7332    0.1437    0.0000 O   0  0  0  0  0  0  0  0  0  0  0  0
    3.7164   -0.9592    0.0000 C   0  0  0  0  0  0  0  0  0  0  0  0
    4.1631   -2.3911    0.0000 C   0  0  0  0  0  0  0  0  0  0  0  0
    3.1464   -3.4939    0.0000 C   0  0  0  0  0  0  0  0  0  0  0  0
    3.5931   -4.9259    0.0000 O   0  0  0  0  0  0  0  0  0  0  0  0
    5.0566   -5.2550    0.0000 C   0  0  0  0  0  0  0  0  0  0  0  0
    5.5033   -6.6869    0.0000 C   0  0  0  0  0  0  0  0  0  0  0  0
    6.0733   -4.1522    0.0000 O   0  0  0  0  0  0  0  0  0  0  0  0
    1.6829   -3.1648    0.0000 C   0  0  0  0  0  0  0  0  0  0  0  0
    1.9775   -4.6356    0.0000 C   0  0  0  0  0  0  0  0  0  0  0  0
    0.4591   -4.0322    0.0000 C   0  0  0  0  0  0  0  0  0  0  0  0
   -0.7439   -3.1363    0.0000 O   0  0  0  0  0  0  0  0  0  0  0  0
   -0.2637   -1.7152    0.0000 C   0  0  0  0  0  0  0  0  0  0  0  0
    1.2362   -1.7329    0.0000 C   0  0  0  0  0  0  0  0  0  0  0  0
    2.2530   -0.6301    0.0000 C   0  0  0  0  0  0  0  0  0  0  0  0
    2.2016    0.2542    0.0000 C   0  0  0  0  0  0  0  0  0  0  0  0
    1.6590    0.7473    0.0000 C   0  0  0  0  0  0  0  0  0  0  0  0
    2.5549    1.9504    0.0000 C   0  0  0  0  0  0  0  0  0  0  0  0
    1.9610    3.3278    0.0000 C   0  0  0  0  0  0  0  0  0  0  0  0
    0.4712    3.5022    0.0000 C   0  0  0  0  0  0  0  0  0  0  0  0
    1.2364    4.7923    0.0000 C   0  0  0  0  0  0  0  0  0  0  0  0
   -0.4247    2.2991    0.0000 C   0  0  0  0  0  0  0  0  0  0  0  0
   -1.8458    2.7794    0.0000 C   0  0  0  0  0  0  0  0  0  0  0  0
   -1.8281    4.2793    0.0000 C   0  0  0  0  0  0  0  0  0  0  0  0
   -0.3962    4.7260    0.0000 C   0  0  0  0  0  0  0  0  0  0  0  0
    0.0841    6.1470    0.0000 C   0  0  0  0  0  0  0  0  0  0  0  0
   -0.7832    7.3708    0.0000 C   0  0  0  0  0  0  0  0  0  0  0  0
    0.1127    8.5739    0.0000 O   0  0  0  0  0  0  0  0  0  0  0  0
    1.5337    8.0936    0.0000 C   0  0  0  0  0  0  0  0  0  0  0  0
    1.5161    6.5937    0.0000 C   0  0  0  0  0  0  0  0  0  0  0  0
    0.1692    0.9217    0.0000 C   0  0  0  0  0  0  0  0  0  0  0  0
   -1.3206    1.0960    0.0000 C   0  0  0  0  0  0  0  0  0  0  0  0
   -0.7267   -0.2814    0.0000 C   0  0  0  0  0  0  0  0  0  0  0  0
   -2.2165   -0.1070    0.0000 O   0  0  0  0  0  0  0  0  0  0  0  0
   -3.1124   -1.3101    0.0000 C   0  0  0  0  0  0  0  0  0  0  0  0
   -2.5185   -2.6875    0.0000 O   0  0  0  0  0  0  0  0  0  0  0  0
   -4.6022   -1.1358    0.0000 C   0  0  0  0  0  0  0  0  0  0  0  0
   -5.4981   -2.3388    0.0000 C   0  0  0  0  0  0  0  0  0  0  0  0
   -6.9880   -2.1645    0.0000 C   0  0  0  0  0  0  0  0  0  0  0  0
   -7.5819   -0.7871    0.0000 C   0  0  0  0  0  0  0  0  0  0  0  0
   -9.0718   -0.6128    0.0000 C   0  0  0  0  0  0  0  0  0  0  0  0
   -9.9676   -1.8158    0.0000 C   0  0  0  0  0  0  0  0  0  0  0  0
   -9.3737   -3.1932    0.0000 C   0  0  0  0  0  0  0  0  0  0  0  0
   -7.8839   -3.3676    0.0000 C   0  0  0  0  0  0  0  0  0  0  0  0
  1  2  1  0
  2  3  2  0
  2  4  1  0
  5  4  1  1
  5  6  1  0
  6  7  1  0
  7  8  1  1
  8  9  1  0
  9 10  1  0
  9 11  2  0
  7 12  1  0
 12 13  1  6
 12 14  1  0
 14 15  1  0
 16 15  1  1
 16 17  1  0
 17 18  1  0
 18 19  1  6
 18 20  1  0
 20 21  1  0
 21 22  1  0
 22 23  1  0
 23 24  1  1
 23 25  1  0
 25 26  2  0
 26 27  1  0
 27 28  1  0
 28 29  1  1
 29 30  2  0
 30 31  1  0
 31 32  1  0
 32 33  2  0
 25 34  1  0
 34 35  1  6
 34 36  1  0
 36 37  1  1
 37 38  1  0
 38 39  2  0
 38 40  1  0
 40 41  2  0
 41 42  1  0
 42 43  2  0
 43 44  1  0
 44 45  2  0
 45 46  1  0
 46 47  2  0
 18  5  1  0
 34 20  1  0
 47 42  1  0
 17 12  1  0
 28 23  1  0
 33 29  1  0
 36 16  1  0
M  END
>  <identifier>  (1475) 
CNP0385858.2

>  <canonical_smiles>  (1475) 
CC(=O)O[C@H]1C[C@@H](OC(C)=O)[C@@]2(C)CO[C@@H]3C2[C@@]1(C)C1CC[C@]2(C)C(=CC[C@H]2C2=COC=C2)[C@]1(C)[C@@H]3OC(=O)/C=C/C1=CC=CC=C1

>  <standard_inchi>  (1475) 
InChI=1S/C39H46O8/c1-23(40)45-30-20-31(46-24(2)41)39(6)29-16-18-36(3)27(26-17-19-43-21-26)13-14-28(36)38(29,5)35(33-34(39)37(30,4)22-44-33)47-32(42)15-12-25-10-8-7-9-11-25/h7-12,14-15,17,19,21,27,29-31,33-35H,13,16,18,20,22H2,1-6H3/b15-12+/t27-,29?,30+,31-,33+,34?,35+,36-,37+,38-,39-/m0/s1

>  <standard_inchi_key>  (1475) 
GQNAMBZGINRMBH-DYWSIVOKSA-N

>  <name>  (1475) 
nan

>  <iupac_name>  (1475) 
[(1~{R},5~{S},6~{R},10~{R},11~{S},12~{R},15~{R},16~{R},18~{S})-16,18-diacetoxy-6-(3-furyl)-1,5,10,15-tetramethyl-13-oxapentacyclo[10.6.1.0^{2,10}.0^{5,9}.0^{15,19}]nonadec-8-en-11-yl] (~{E})-3-phenylprop-2-enoate

>  <annotation_level>  (1475) 
4

>  <total_atom_count>  (1475) 
93

>  <heavy_atom_count>  (1475) 
47

>  <molecular_weight>  (1475) 
642.79

>  <exact_molecular_weight>  (1475) 
642.31927

>  <molecular_formula>  (1475) 
C39H46O8

>  <alogp>  (1475) 
7.05

>  <topological_polar_surface_area>  (1475) 
101.27

>  <rotatable_bond_count>  (1475) 
6

>  <hydrogen_bond_acceptors>  (1475) 
8

>  <hydrogen_bond_donors>  (1475) 
0

>  <hydrogen_bond_acceptors_lipinski>  (1475) 
8

>  <hydrogen_bond_donors_lipinski>  (1475) 
0

>  <lipinski_rule_of_five_violations>  (1475) 
2

>  <aromatic_rings_count>  (1475) 
2

>  <qed_drug_likeliness>  (1475) 
0.14

>  <formal_charge>  (1475) 
0

>  <fractioncsp3>  (1475) 
0.56

>  <number_of_minimal_rings>  (1475) 
7

>  <van_der_walls_volume>  (1475) 
nan

>  <contains_sugar>  (1475) 
False

>  <contains_ring_sugars>  (1475) 
False

>  <contains_linear_sugars>  (1475) 
False

>  <murcko_framework>  (1475) 
o1ccc(c1)C2CC=C3C2CCC4C3C(OCC=Cc5ccccc5)C6OCC7CCCC4C67

>  <np_likeness>  (1475) 
2.81

>  <chemical_class>  (1475) 
Prenol lipids

>  <chemical_sub_class>  (1475) 
Triterpenoids

>  <chemical_super_class>  (1475) 
Lipids and lipid-like molecules

>  <direct_parent_classification>  (1475) 
Limonoids

>  <np_classifier_pathway>  (1475) 
Terpenoids

>  <np_classifier_superclass>  (1475) 
Triterpenoids

>  <np_classifier_class>  (1475) 
Limonoids

>  <np_classifier_is_glycoside>  (1475) 
False

>  <organisms>  (1475) 
Aristolochia indica

>  <collections>  (1475) 
Latin America dataset|NuBBEDB|WikiData Natural Products

>  <dois>  (1475) 
10.1002/PCA.1208|10.1002/pca.1208

>  <synonyms>  (1475) 
nimbolin

>  <cas>  (1475) 
nan

$$$$

     RDKit          2D

 27 30  0  0  0  0  0  0  0  0999 V2000
   -6.9944    3.0301    0.0000 C   0  0  0  0  0  0  0  0  0  0  0  0
   -5.6180    2.4339    0.0000 C   0  0  0  0  0  0  0  0  0  0  0  0
   -4.4135    3.3278    0.0000 C   0  0  0  0  0  0  0  0  0  0  0  0
   -5.4461    0.9438    0.0000 C   0  0  0  0  0  0  0  0  0  0  0  0
   -4.0697    0.3476    0.0000 C   0  0  0  0  0  0  0  0  0  0  0  0
   -3.8978   -1.1425    0.0000 C   0  0  0  0  0  0  0  0  0  0  0  0
   -5.1023   -2.0364    0.0000 C   0  0  0  0  0  0  0  0  0  0  0  0
   -2.5213   -1.7387    0.0000 C   0  0  0  0  0  0  0  0  0  0  0  0
   -2.1946   -3.2027    0.0000 C   0  0  0  0  0  0  0  0  0  0  0  0
   -0.7013   -3.3444    0.0000 C   0  0  0  0  0  0  0  0  0  0  0  0
   -0.1051   -1.9679    0.0000 C   0  0  0  0  0  0  0  0  0  0  0  0
    1.3167   -1.4900    0.0000 C   0  0  0  0  0  0  0  0  0  0  0  0
    2.4415   -2.4823    0.0000 C   0  0  0  0  0  0  0  0  0  0  0  0
    3.8633   -2.0044    0.0000 C   0  0  0  0  0  0  0  0  0  0  0  0
    4.1603   -0.5341    0.0000 C   0  0  0  0  0  0  0  0  0  0  0  0
    5.5821   -0.0561    0.0000 C   0  0  0  0  0  0  0  0  0  0  0  0
    5.8791    1.4142    0.0000 C   0  0  0  0  0  0  0  0  0  0  0  0
    7.3009    1.8921    0.0000 O   0  0  0  0  0  0  0  0  0  0  0  0
    4.7543    2.4065    0.0000 C   0  0  0  0  0  0  0  0  0  0  0  0
    3.3325    1.9286    0.0000 C   0  0  0  0  0  0  0  0  0  0  0  0
    3.0355    0.4583    0.0000 C   0  0  0  0  0  0  0  0  0  0  0  0
    1.9107    1.4506    0.0000 C   0  0  0  0  0  0  0  0  0  0  0  0
    1.6137   -0.0197    0.0000 C   0  0  0  0  0  0  0  0  0  0  0  0
    0.4888    0.9727    0.0000 C   0  0  0  0  0  0  0  0  0  0  0  0
   -0.9330    0.4947    0.0000 C   0  0  0  0  0  0  0  0  0  0  0  0
   -1.2300   -0.9756    0.0000 C   0  0  0  0  0  0  0  0  0  0  0  0
   -2.4524   -0.1062    0.0000 C   0  0  0  0  0  0  0  0  0  0  0  0
  1  2  1  0
  2  3  1  0
  2  4  1  0
  4  5  2  0
  5  6  1  0
  6  7  1  6
  6  8  1  0
  8  9  1  6
  9 10  1  0
 11 10  1  6
 11 12  1  0
 12 13  1  1
 13 14  1  0
 14 15  2  0
 15 16  1  0
 16 17  1  0
 17 18  1  6
 17 19  1  0
 19 20  1  0
 20 21  1  0
 21 22  1  6
 21 23  1  0
 23 24  1  6
 24 25  1  0
 25 26  1  0
 26 27  1  6
 26  8  1  0
 26 11  1  0
 23 12  1  0
 21 15  1  0
M  END
>  <identifier>  (1476) 
CNP0191448.2

>  <canonical_smiles>  (1476) 
CC(C)/C=C/[C@@H](C)[C@H]1CC[C@H]2[C@@H]3CC=C4C[C@@H](O)CC[C@]4(C)[C@H]3CC[C@]12C

>  <standard_inchi>  (1476) 
InChI=1S/C26H42O/c1-17(2)6-7-18(3)22-10-11-23-21-9-8-19-16-20(27)12-14-25(19,4)24(21)13-15-26(22,23)5/h6-8,17-18,20-24,27H,9-16H2,1-5H3/b7-6+/t18-,20+,21+,22-,23+,24+,25+,26-/m1/s1

>  <standard_inchi_key>  (1476) 
BKWBRNDZAJHCMT-LMLIWZCBSA-N

>  <name>  (1476) 
24-nor-cholest-5,22E-dien-3beta-ol

>  <iupac_name>  (1476) 
(3~{S},8~{S},9~{S},10~{R},13~{R},14~{S},17~{R})-17-[(~{E},1~{R})-1,4-dimethylpent-2-enyl]-10,13-dimethyl-2,3,4,7,8,9,11,12,14,15,16,17-dodecahydro-1~{H}-cyclopenta[a]phenanthren-3-ol

>  <annotation_level>  (1476) 
5

>  <total_atom_count>  (1476) 
69

>  <heavy_atom_count>  (1476) 
27

>  <molecular_weight>  (1476) 
370.62

>  <exact_molecular_weight>  (1476) 
370.32357

>  <molecular_formula>  (1476) 
C26H42O

>  <alogp>  (1476) 
6.77

>  <topological_polar_surface_area>  (1476) 
20.23

>  <rotatable_bond_count>  (1476) 
3

>  <hydrogen_bond_acceptors>  (1476) 
1

>  <hydrogen_bond_donors>  (1476) 
1

>  <hydrogen_bond_acceptors_lipinski>  (1476) 
1

>  <hydrogen_bond_donors_lipinski>  (1476) 
1

>  <lipinski_rule_of_five_violations>  (1476) 
1

>  <aromatic_rings_count>  (1476) 
0

>  <qed_drug_likeliness>  (1476) 
0.54

>  <formal_charge>  (1476) 
0

>  <fractioncsp3>  (1476) 
0.85

>  <number_of_minimal_rings>  (1476) 
4

>  <van_der_walls_volume>  (1476) 
nan

>  <contains_sugar>  (1476) 
False

>  <contains_ring_sugars>  (1476) 
False

>  <contains_linear_sugars>  (1476) 
False

>  <murcko_framework>  (1476) 
C1=C2CCCCC2C3CCC4CCCC4C3C1

>  <np_likeness>  (1476) 
2.88

>  <chemical_class>  (1476) 
Steroids and steroid derivatives

>  <chemical_sub_class>  (1476) 
Hydroxysteroids

>  <chemical_super_class>  (1476) 
Lipids and lipid-like molecules

>  <direct_parent_classification>  (1476) 
3-hydroxysteroids

>  <np_classifier_pathway>  (1476) 
Terpenoids

>  <np_classifier_superclass>  (1476) 
Steroids

>  <np_classifier_class>  (1476) 
Cholestane steroids

>  <np_classifier_is_glycoside>  (1476) 
False

>  <organisms>  (1476) 
Ambrosia trifida|Amphilectus digitatus|Amphilectus fucorum|Axinella cannabina|Bugula neritina|Cliona celata|Dendrolimus spectabilis|Echinometra lucunter|Eminium spiculatum|Euphorbia grandicornis|Hydnocarpus anthelminthicus|Mentzelia incisa|Molopospermum peloponnesiacum|Muricea californica|Neoesperiopsis digitata|Palythoa caribaeorum|Petrosia ficiformis|Phallusia nigra|Pittosporum tobira|Pleroma menoui|Psacalium paucicapitatum|Quercus cerris|Salpa thompsoni|Sea peach|Tylopilus neofelleus|Ulva rigida

>  <collections>  (1476) 
Latin America dataset|NPASS|NuBBEDB|Super Natural II|WikiData Natural Products

>  <dois>  (1476) 
10.1007/BF00565153|10.1007/BF00575174|10.1016/0039-128X(80)90095-1|10.1016/0039-128X(82)90021-6|10.1016/0039-128X(83)90093-4|10.1016/0305-0491(82)90526-0|10.1016/S0031-9422(00)83106-4|10.1016/S0040-4020(01)85914-7|10.1016/S0040-4020(01)88936-5|10.1021/NP9804740|10.1039/P19830000147|10.1248/CPB.31.1366|10.1248/CPB.34.4562

>  <synonyms>  (1476) 
22-trans-24-Norcholesta-5,22-dien-3I(2)-ol|24-Norcholesta-5,22-dien-3beta-ol|24-nor-cholesta-522(E)-dien-3\u221a\u00e9\u00ac\u2264-ol|38788-81-7|DTXSID801279896|LMST01031050|SCHEMBL21231098

>  <cas>  (1476) 
38788-81-7

$$$$

     RDKit          2D

 26 28  0  0  0  0  0  0  0  0999 V2000
   -7.2278    2.5328    0.0000 C   0  0  0  0  0  0  0  0  0  0  0  0
   -6.7503    1.1108    0.0000 O   0  0  0  0  0  0  0  0  0  0  0  0
   -5.2801    0.8134    0.0000 C   0  0  0  0  0  0  0  0  0  0  0  0
   -4.2874    1.9379    0.0000 C   0  0  0  0  0  0  0  0  0  0  0  0
   -2.8172    1.6404    0.0000 C   0  0  0  0  0  0  0  0  0  0  0  0
   -2.3397    0.2185    0.0000 C   0  0  0  0  0  0  0  0  0  0  0  0
   -0.8695   -0.0790    0.0000 C   0  0  0  0  0  0  0  0  0  0  0  0
   -0.3920   -1.5009    0.0000 C   0  0  0  0  0  0  0  0  0  0  0  0
    1.0783   -1.7984    0.0000 C   0  0  0  0  0  0  0  0  0  0  0  0
    1.5558   -3.2203    0.0000 O   0  0  0  0  0  0  0  0  0  0  0  0
    2.0710   -0.6739    0.0000 C   0  0  0  0  0  0  0  0  0  0  0  0
    3.5412   -0.9713    0.0000 C   0  0  0  0  0  0  0  0  0  0  0  0
    4.0187   -2.3933    0.0000 O   0  0  0  0  0  0  0  0  0  0  0  0
    4.5339    0.1532    0.0000 C   0  0  0  0  0  0  0  0  0  0  0  0
    6.0041   -0.1442    0.0000 O   0  0  0  0  0  0  0  0  0  0  0  0
    6.4816   -1.5662    0.0000 C   0  0  0  0  0  0  0  0  0  0  0  0
    4.0564    1.5752    0.0000 C   0  0  0  0  0  0  0  0  0  0  0  0
    5.0491    2.6997    0.0000 O   0  0  0  0  0  0  0  0  0  0  0  0
    6.5193    2.4022    0.0000 C   0  0  0  0  0  0  0  0  0  0  0  0
    2.5862    1.8726    0.0000 C   0  0  0  0  0  0  0  0  0  0  0  0
    1.5935    0.7481    0.0000 C   0  0  0  0  0  0  0  0  0  0  0  0
    0.1232    1.0455    0.0000 O   0  0  0  0  0  0  0  0  0  0  0  0
   -3.3324   -0.9060    0.0000 C   0  0  0  0  0  0  0  0  0  0  0  0
   -4.8026   -0.6086    0.0000 C   0  0  0  0  0  0  0  0  0  0  0  0
   -5.7953   -1.7331    0.0000 O   0  0  0  0  0  0  0  0  0  0  0  0
   -5.3178   -3.1551    0.0000 C   0  0  0  0  0  0  0  0  0  0  0  0
  1  2  1  0
  2  3  1  0
  3  4  2  0
  4  5  1  0
  5  6  2  0
  6  7  1  0
  7  8  2  0
  8  9  1  0
  9 10  2  0
  9 11  1  0
 11 12  2  0
 12 13  1  0
 12 14  1  0
 14 15  1  0
 15 16  1  0
 14 17  2  0
 17 18  1  0
 18 19  1  0
 17 20  1  0
 20 21  2  0
 21 22  1  0
  6 23  1  0
 23 24  2  0
 24 25  1  0
 25 26  1  0
 24  3  1  0
 22  7  1  0
 21 11  1  0
M  END
>  <identifier>  (1477) 
CNP0350044.0

>  <canonical_smiles>  (1477) 
COC1=CC=C(C2=CC(=O)C3=C(O)C(OC)=C(OC)C=C3O2)C=C1OC

>  <standard_inchi>  (1477) 
InChI=1S/C19H18O7/c1-22-12-6-5-10(7-14(12)23-2)13-8-11(20)17-15(26-13)9-16(24-3)19(25-4)18(17)21/h5-9,21H,1-4H3

>  <standard_inchi_key>  (1477) 
QEWSAPKRFOFQIU-UHFFFAOYSA-N

>  <name>  (1477) 
21763-80-4

>  <iupac_name>  (1477) 
2-(3,4-dimethoxyphenyl)-5-hydroxy-6,7-dimethoxy-chromen-4-one

>  <annotation_level>  (1477) 
5

>  <total_atom_count>  (1477) 
44

>  <heavy_atom_count>  (1477) 
26

>  <molecular_weight>  (1477) 
358.35

>  <exact_molecular_weight>  (1477) 
358.10525

>  <molecular_formula>  (1477) 
C19H18O7

>  <alogp>  (1477) 
3.20

>  <topological_polar_surface_area>  (1477) 
87.36

>  <rotatable_bond_count>  (1477) 
5

>  <hydrogen_bond_acceptors>  (1477) 
7

>  <hydrogen_bond_donors>  (1477) 
1

>  <hydrogen_bond_acceptors_lipinski>  (1477) 
7

>  <hydrogen_bond_donors_lipinski>  (1477) 
1

>  <lipinski_rule_of_five_violations>  (1477) 
0

>  <aromatic_rings_count>  (1477) 
3

>  <qed_drug_likeliness>  (1477) 
0.75

>  <formal_charge>  (1477) 
0

>  <fractioncsp3>  (1477) 
0.21

>  <number_of_minimal_rings>  (1477) 
3

>  <van_der_walls_volume>  (1477) 
307.61

>  <contains_sugar>  (1477) 
False

>  <contains_ring_sugars>  (1477) 
False

>  <contains_linear_sugars>  (1477) 
False

>  <murcko_framework>  (1477) 
O1c2ccccc2CC=C1c3ccccc3

>  <np_likeness>  (1477) 
0.97

>  <chemical_class>  (1477) 
Flavonoids

>  <chemical_sub_class>  (1477) 
O-methylated flavonoids

>  <chemical_super_class>  (1477) 
Phenylpropanoids and polyketides

>  <direct_parent_classification>  (1477) 
6-O-methylated flavonoids

>  <np_classifier_pathway>  (1477) 
Shikimates and Phenylpropanoids

>  <np_classifier_superclass>  (1477) 
Flavonoids

>  <np_classifier_class>  (1477) 
Flavones

>  <np_classifier_is_glycoside>  (1477) 
False

>  <organisms>  (1477) 
Acanthothamnus aphyllus|Aceriphyllum rossii|Achillea conferta|Achillea cretica|Achillea magnifica|Achillea millefolium|Achillea millefolium var. millefolium|Achillea santolina|Achillea tenuifolia|Aglaia erythrosperma|Agnorhiza bolanderi|Alligator mississippiensis|Allium siculum|Anaxagorea clavata|Angelica ursina|Arabis hirsuta|Araujia sericifera|Ardisia macrocarpa|Aria pallescens|Arnebia decumbens|Arnica nevadensis|Artabotrys uncinatus|Artemisia absinthium|Artemisia albida|Artemisia annua|Artemisia argyi|Artemisia assoana|Artemisia austriaca|Artemisia giraldii|Artemisia mesatlantica|Artemisia mongolica|Artemisia monogyna|Artemisia nitida|Artemisia nitrosa|Artemisia sieversiana|Artemisia verlotiorum|Asplenium nidus|Asterias rubens|Astragalus inopinatus|Baccharis genistelloides|Baccharis sagittalis|Baccharis venosa|Bassia butyracea|Belamcanda chinensis|Berkheya rhapontica|Beyeria brevifolia|Bitter bush|Brickellia scoparia|Bryonopsis laciniosa|Bursaria spinosa|Celmisia petriei|Centaurea aggregata|Centaurea arenaria|Centaurea cadmea|Centaurea cineraria|Centaurea gradata|Centaurea granata|Centaurea macrocephala|Centaurea napifolia|Centaurea sp.|Centaurea sulphurea|Centaurea tougourensis|Cephalotaxus hainanensis|Cherry Orange|Chloranthus tianmushanensis|Chlorophytum malayense|Chromolaena arnottiana|Chromolaena odorata|Chromolaena pulchella|Chroogomphus rutilus|Chrysanthemum indicum|Cirsium helenioides|Citrus Reticulata|Citrus japonica|Citrus reticulata|Citrus reticulate|Citrus tangerina|Citrus × deliciosa|Cladonia evansii|Cladrastis kentukea|Clausena indica|Clerodendrum cyrtophyllum|Clonostachys rosea|Clusia torresii|Coccus fagi|Cortinarius viola|Crinum stuhlmannii|Crotalaria mitchellii|Cunila angustifolia|Cunila incana|Dendranthema indicum|Dendrobates truncatus|Dendrosenecio kilimanjari|Desmodium racemosum|Dichrocephala|Dipterocarpus alatus|Dracaena ombet|Dracocephalum peregrinum|Drosera peltata|Echinops amplexicaulis|Empetrum nigrum|Enterococcus faecalis|Epaltes gariepina|Ephedra lomatolepis|Eriogaster lanestris|Eschscholzia californica|Euonymus maackii|Eupatorium altissimum|Eupatorium microphyllum|Ferula assa-foetida|Ferula gummosa|Ficus formosana|Fusarium gibbosum|Gardenia fosbergii|Gentiana olivieri|Gleditschia triacanthos|Glycosmis puberula|Gnetum cleistostachyum|Handroanthus guayacan|Hyptis tomentosa|Igernella notabilis|Ilex affinis|Indian beech tree|Inulanthera nuda|Ircinia aruensis|Iridaea membranacea|Iris domestica|Iryanthera polyneura|Isodon kameba|Isodon leucophyllus|Jateorhiza palmata|Kaempferia pulchra|Kumquat|Lactarius scrobiculatus|Lagophylla glandulosa|Lasiolaena santosii|Laurencia mariannensis|Liatris aspera|Lindera umbellata|Lippia dulcis|Lippia dulcis TREV.|Lissoclinum japonicum|Maytenus guianensis|Melampodium longipes|Melibe leonina|Mentha Piperita|Mentha arvensis|Mentha canadensis|Mentha longifolia|Mentha piperita|Mentha piperita L.var.kubamskaya|Mentha pulegium|Mentha spicata|Merrillia caloxylon|Micromeria albanica|Morus yunnanensis|Murraya exotica|Murraya paniculata|Myrica arborea|Neoraputia paraensis|Nicotiana gossei|Nigella aristata|Oceanapia phillipensis|Ocimum americanum|Ocimum americanum var. americanum|Odixia angusta|Ophioplocus japonicus|Orthosiphon aristatus|Orthosiphon stamineus|Oryza sativa|Otanthus maritimus|Parthenium incanum|Perovskia atriplicifolia|Pheidole pallidula|Phleum africanum|Phyla dulcis|Picradeniopsis oppositifolia|Pinus halepensis|Pinus thunbergii|Polygala aureocauda|Polypodium vulgare|Populus tremula|Primula veris|Prosopis glandulosa|Prunus laurocerasus|Pseudomonas syringae|Pseudopterogorgia kallos|Pseudoxandra sclerocarpa|Pteris prolifera|Pterocarpus grandiflorus|Pterocaulon rugosum|Pyrosoma giganteum|Quercus aegilops|Rauvolfia tetraphylla|Rhizobium phaseoli|Rhizoplaca opaca|Rubia lanceolata|Rydingia limbata|Saccharothrix mutabilis subsp. capreolus|Salvia dominica|Salvia macrosiphon|Salvia mirzayani|Salvia mirzayanii|Salvia officinalis|Salvia prionitis|Salvia sclarea|Salvia syriaca|Salvia thymoides|Salvia tomentosa|Satureja montana|Saussurea triangulata|Schkuhria schkuhrioides|Scrophularia leucoclada|Securidaca inappendiculata|Senecio grandiflorus|Senecio integerrimus|Senecio squalidus|Seriphidium cinum|Sesbania punicea|Sideritis angustifolia|Sideritis soluta|Simira eliezeriana|Sinularia leptoclados|Stenostomum lucidum|Stephania succifera|Stevia salicifolia|Streptomyces althioticus|Streptomyces cinerochromogenes|Streptomyces coeruleorubidus|Streptomyces naraensis|Stypandra imbricata|Tanacetum santolinioides|Taxodium mucronatum|Tetraria capillaris|Teucrium alyssifolium|Teucrium barbeyanum|Teucrium botrys|Teucrium pseudochamaepitys|Thymus algeriensis|Tristagma uniflorum|Ulmus laciniata|Vernonia serratuloides|Vincetoxicum hirundinaria|Vitex madiensis|Vitex negundo var. cannabifolia|Vitex rotundifolia|Zephyranthes carinata|Ziziphora hispanica|corn mint

>  <collections>  (1477) 
ANPDB|AfroDB|Australian natural products|CMAUP (cCollective molecular activities of useful plants)|FooDB|KNApSaCK|Latin America dataset|NANPDB (Natural Products from Northern African Sources)|NPACT|NPASS|NPEdia|NuBBEDB|Phyto4Health|Super Natural II|TCMDB-Taiwan (Traditional Chinese Medicine database)|TCMID (Traditional Chinese Medicine Integrated Database)|TIPdb (database of Taiwan indigenous plants)|UNPD (Universal Natural Products Database)|VietHerb|WikiData Natural Products|ZINC NP

>  <dois>  (1477) 
10.1002/(SICI)1522-2675(19981111)81:11<2062::AID-HLCA2062>3.0.CO;2-8|10.1002/CHIN.197917084|10.1002/HLCA.200800357|10.1002/PTR.3187|10.1007/BF00569607|10.1007/BF00576103|10.1007/BF00598369|10.1007/S10600-006-0013-X|10.1007/S10600-006-0088-4|10.1007/S10600-007-0118-X|10.1007/S10600-007-0232-9|10.1007/S10600-010-9461-4|10.1007/S10600-011-9798-3|10.1007/s10600-015-1458-6|10.1016/0031-9422(74)80328-6|10.1016/0031-9422(82)83200-7|10.1016/0031-9422(83)83036-2|10.1016/0031-9422(88)80467-9|10.1016/0031-9422(90)85371-L|10.1016/0031-9422(92)80273-H|10.1016/0031-9422(95)00091-K|10.1016/0031-9422(95)00754-7|10.1016/J.JPBA.2011.08.019|10.1016/J.PHYTOCHEM.2009.05.011|10.1016/S0031-9422(00)00439-8|10.1016/S0031-9422(00)81325-4|10.1016/S0031-9422(00)83891-1|10.1016/S0031-9422(00)84780-9|10.1016/S0031-9422(00)90474-6|10.1016/S0031-9422(00)94778-2|10.1016/S0031-9422(00)98543-1|10.1016/S0031-9422(03)00143-2|10.1016/S0031-9422(97)00389-0|10.1016/S0031-9422(97)01042-X|10.1016/S0031-9422(97)80021-0|10.1016/S0031-9422(98)00293-3|10.1016/S0305-1978(02)00178-3|10.1016/S0305-1978(02)00184-9|10.1016/j.jpba.2011.08.019|10.1016/s0031-9422(03)00143-2|10.1016/s0031-9422(97)01042-x|10.1021/NP50046A048|10.1021/acs.jnatprod.5b00218|10.1021/np50005a010|10.1021/np50035a034|10.1023/B:CONC.0000011131.34049.E6|10.1039/c7md00388a|10.1055/S-1999-13965|10.1055/S-2000-8538|10.1055/S-2003-38486|10.1055/S-2006-958150|10.1248/CPB.24.1668|10.1248/CPB.28.717|10.1248/CPB.48.433|10.1248/CPB.49.1229|10.1248/CPB.49.1356|10.1248/CPB.53.1175|10.1515/ZNC-1992-9-1025|10.1590/S0103-50532003000300007|10.3109/13880209109082856|10.3987/COM-00-9108|10.3987/COM-01-9281

>  <synonyms>  (1477) 
2-(3,4-Dimethoxyphenyl)-5-hydroxy-6,7-dimethoxy-4H-chromen-4-one|3'-O-METHYLEUPATORIN|3'-O-methyl-eupatorin|4H-1-Benzopyran-4-one, 2-(3,4-dimethoxyphenyl)-5-hydroxy-6,7-dimethoxy-|5-Desmethylsinensetin|5-Hydroxy-3',4',6,7-tetramethoxyflavone|5-Hydroxy-6,7,3',4'-tetramethoxyflavone|6-Hydroxyluteolin 6,7,3',4'-tetramethyl ether|AKOS030553584|BCP32547|BDBM50092614|CHEMBL226508|CS-0134832|DB-118459|DTXCID3098654|DTXSID50176163|E80696|HTMF|HY-N7632|LMPK12111243|MRF3C7FE9G|MS-25623|PD158155|QEWSAPKRFOFQIU-UHFFFAOYSA-N|SANTAFLAVONE|SCHEMBL3131502|UNII-MRF3C7FE9G|ZB0658

>  <cas>  (1477) 
21763-80-4

$$$$

     RDKit          2D

 27 31  0  0  0  0  0  0  0  0999 V2000
   -4.0112   -4.5399    0.0000 C   0  0  0  0  0  0  0  0  0  0  0  0
   -4.2244   -3.0551    0.0000 O   0  0  0  0  0  0  0  0  0  0  0  0
   -3.0451   -2.1281    0.0000 C   0  0  0  0  0  0  0  0  0  0  0  0
   -1.6527   -2.6859    0.0000 O   0  0  0  0  0  0  0  0  0  0  0  0
   -3.2582   -0.6433    0.0000 C   0  0  0  0  0  0  0  0  0  0  0  0
   -4.6507   -0.0855    0.0000 C   0  0  0  0  0  0  0  0  0  0  0  0
   -4.8638    1.3993    0.0000 O   0  0  0  0  0  0  0  0  0  0  0  0
   -3.6845    2.3262    0.0000 C   0  0  0  0  0  0  0  0  0  0  0  0
   -3.8977    3.8110    0.0000 C   0  0  0  0  0  0  0  0  0  0  0  0
   -2.2921    1.7684    0.0000 C   0  0  0  0  0  0  0  0  0  0  0  0
   -1.1128    2.6954    0.0000 C   0  0  0  0  0  0  0  0  0  0  0  0
    0.2796    2.1376    0.0000 N   0  0  0  0  0  0  0  0  0  0  0  0
    1.6259    2.7991    0.0000 C   0  0  0  0  0  0  0  0  0  0  0  0
    2.6710    1.7232    0.0000 C   0  0  0  0  0  0  0  0  0  0  0  0
    1.9707    0.3967    0.0000 C   0  0  0  0  0  0  0  0  0  0  0  0
    1.2704   -0.9298    0.0000 C   0  0  0  0  0  0  0  0  0  0  0  0
   -0.2143   -1.1429    0.0000 O   0  0  0  0  0  0  0  0  0  0  0  0
    2.3156   -2.0057    0.0000 N   0  0  0  0  0  0  0  0  0  0  0  0
    3.6619   -1.3442    0.0000 C   0  0  0  0  0  0  0  0  0  0  0  0
    5.0543   -1.9020    0.0000 C   0  0  0  0  0  0  0  0  0  0  0  0
    6.2336   -0.9750    0.0000 C   0  0  0  0  0  0  0  0  0  0  0  0
    6.0204    0.5098    0.0000 C   0  0  0  0  0  0  0  0  0  0  0  0
    4.6280    1.0676    0.0000 C   0  0  0  0  0  0  0  0  0  0  0  0
    3.4487    0.1406    0.0000 C   0  0  0  0  0  0  0  0  0  0  0  0
    0.4928    0.6528    0.0000 C   0  0  0  0  0  0  0  0  0  0  0  0
   -0.6865   -0.2741    0.0000 C   0  0  0  0  0  0  0  0  0  0  0  0
   -2.0789    0.2837    0.0000 C   0  0  0  0  0  0  0  0  0  0  0  0
  1  2  1  0
  2  3  1  0
  3  4  2  0
  3  5  1  0
  5  6  2  0
  6  7  1  0
  7  8  1  0
  8  9  1  1
  8 10  1  0
 10 11  1  1
 11 12  1  0
 12 13  1  0
 13 14  1  0
 15 14  1  6
 15 16  1  0
 16 17  2  0
 16 18  1  0
 18 19  1  0
 19 20  2  0
 20 21  1  0
 21 22  2  0
 22 23  1  0
 23 24  2  0
 15 25  1  0
 25 26  1  6
 27 26  1  6
 27  5  1  0
 27 10  1  0
 25 12  1  0
 24 15  1  0
 24 19  1  0
M  END
>  <identifier>  (1478) 
CNP0159273.3

>  <canonical_smiles>  (1478) 
COC(=O)C1=CO[C@@H](C)[C@H]2CN3CC[C@]4(C(=O)NC5=CC=CC=C54)[C@@H]3C[C@H]12

>  <standard_inchi>  (1478) 
InChI=1S/C21H24N2O4/c1-12-14-10-23-8-7-21(16-5-3-4-6-17(16)22-20(21)25)18(23)9-13(14)15(11-27-12)19(24)26-2/h3-6,11-14,18H,7-10H2,1-2H3,(H,22,25)/t12-,13-,14+,18-,21+/m0/s1

>  <standard_inchi_key>  (1478) 
JMIAZDVHNCCPDM-DAFCLMLCSA-N

>  <name>  (1478) 
Mitraphylline

>  <iupac_name>  (1478) 
methyl (1~{S},4~{a}~{S},5~{a}~{S},6~{R},10~{a}~{R})-1-methyl-2'-oxo-spiro[1,4~{a},5,5~{a},7,8,10,10~{a}-octahydropyrano[3,4-f]indolizine-6,3'-indoline]-4-carboxylate

>  <annotation_level>  (1478) 
5

>  <total_atom_count>  (1478) 
51

>  <heavy_atom_count>  (1478) 
27

>  <molecular_weight>  (1478) 
368.43

>  <exact_molecular_weight>  (1478) 
368.17361

>  <molecular_formula>  (1478) 
C21H24N2O4

>  <alogp>  (1478) 
2.06

>  <topological_polar_surface_area>  (1478) 
67.87

>  <rotatable_bond_count>  (1478) 
1

>  <hydrogen_bond_acceptors>  (1478) 
5

>  <hydrogen_bond_donors>  (1478) 
1

>  <hydrogen_bond_acceptors_lipinski>  (1478) 
5

>  <hydrogen_bond_donors_lipinski>  (1478) 
1

>  <lipinski_rule_of_five_violations>  (1478) 
0

>  <aromatic_rings_count>  (1478) 
1

>  <qed_drug_likeliness>  (1478) 
0.77

>  <formal_charge>  (1478) 
0

>  <fractioncsp3>  (1478) 
0.52

>  <number_of_minimal_rings>  (1478) 
5

>  <van_der_walls_volume>  (1478) 
330.86

>  <contains_sugar>  (1478) 
False

>  <contains_ring_sugars>  (1478) 
False

>  <contains_linear_sugars>  (1478) 
False

>  <murcko_framework>  (1478) 
O1C=CC2CC3N(CCC43c5ccccc5NC4)CC2C1

>  <np_likeness>  (1478) 
1.87

>  <chemical_class>  (1478) 
Indoles and derivatives

>  <chemical_sub_class>  (1478) 
Indoles

>  <chemical_super_class>  (1478) 
Organoheterocyclic compounds

>  <direct_parent_classification>  (1478) 
Indoles

>  <np_classifier_pathway>  (1478) 
Alkaloids

>  <np_classifier_superclass>  (1478) 
Tryptophan alkaloids

>  <np_classifier_class>  (1478) 
Corynanthe type

>  <np_classifier_is_glycoside>  (1478) 
False

>  <organisms>  (1478) 
Capsicum annuum|Catharanthus roseus|Cephalanthus glabratus|Cephalanthus tetrandra|Cephalanthus tetrandrus|Mitragyna hirsuta|Mitragyna macrophylla|Mitragyna parvifolia|Mitragyna rubrostipula|Mitragyna rubrostipulacea|Rauvolfia afra|Uncaria|Uncaria Homomalla|Uncaria Laevigata|Uncaria Lancifolia|Uncaria Scandens|Uncaria Sessilifructus|Uncaria africana|Uncaria attenuata|Uncaria callophylla|Uncaria elliptica|Uncaria gambir|Uncaria guianensis|Uncaria hirsuta|Uncaria homomalla|Uncaria kawakamii|Uncaria laevigata|Uncaria lancifolia|Uncaria lanosa|Uncaria longiflora|Uncaria orientalis|Uncaria perrottetii|Uncaria scandens|Uncaria sessilifructus|Uncaria sp.|Uncaria tomentosa|Uncaria veluntina

>  <collections>  (1478) 
Australian natural products|ChEBI NPs|ChemSpider NPs|GNPS (Global Natural Products Social Molecular Networking)|KNApSaCK|Latin America dataset|NuBBEDB|Phyto4Health|PhytoLab phyproof® Reference Substances|PubChem NPs|Super Natural II|TIPdb (database of Taiwan indigenous plants)|VietHerb|WikiData Natural Products|ZINC NP

>  <dois>  (1478) 
10.1002/PCA.740|10.1007/BF02269869|10.1007/S11418-006-0114-7|10.1016/0021-9673(92)80183-U|10.1016/0021-9673(94)80511-3|10.1016/0378-8741(84)90099-0|10.1016/J.JEP.2005.08.046|10.1016/J.PHYMED.2006.12.023|10.1016/J.PHYTOCHEM.2006.06.017|10.1016/S0031-9422(00)80276-9|10.1016/S0031-9422(01)00043-7|10.1016/S0031-9422(97)00061-7|10.1016/S0031-9422(97)00204-5|10.1016/S0378-8741(02)00093-4|10.1016/S0378-8741(98)00113-5|10.1016/S0944-7113(00)80086-0|10.1021/NP50020A008|10.1021/NP50033A033|10.1055/S-2001-15824|10.1055/S-2006-959780|10.1055/S-2006-961582|10.1071/CH9680491|10.1071/ch9680491|10.1078/0944-7113-00117|10.1111/J.1365-2141.2005.05907.X|10.1211/0022357001777612|10.1590/S0100-40422004000600007

>  <synonyms>  (1478) 
nan

>  <cas>  (1478) 
509-80-8

$$$$

     RDKit          2D

 38 40  0  0  0  0  0  0  0  0999 V2000
   -0.3780   -5.1807    0.0000 C   0  0  0  0  0  0  0  0  0  0  0  0
    1.0668   -4.7776    0.0000 O   0  0  0  0  0  0  0  0  0  0  0  0
    1.4400   -3.3247    0.0000 C   0  0  0  0  0  0  0  0  0  0  0  0
    0.3685   -2.2751    0.0000 C   0  0  0  0  0  0  0  0  0  0  0  0
    0.7417   -0.8223    0.0000 C   0  0  0  0  0  0  0  0  0  0  0  0
   -0.3298    0.2274    0.0000 C   0  0  0  0  0  0  0  0  0  0  0  0
    0.0434    1.6802    0.0000 C   0  0  0  0  0  0  0  0  0  0  0  0
    1.4882    2.0834    0.0000 C   0  0  0  0  0  0  0  0  0  0  0  0
    1.8615    3.5362    0.0000 C   0  0  0  0  0  0  0  0  0  0  0  0
    3.3063    3.9393    0.0000 O   0  0  0  0  0  0  0  0  0  0  0  0
    4.3778    2.8897    0.0000 C   0  0  0  0  0  0  0  0  0  0  0  0
    5.8226    3.2929    0.0000 C   0  0  0  0  0  0  0  0  0  0  0  0
    4.0046    1.4369    0.0000 O   0  0  0  0  0  0  0  0  0  0  0  0
    0.7899    4.5858    0.0000 C   0  0  0  0  0  0  0  0  0  0  0  0
    1.1632    6.0387    0.0000 O   0  0  0  0  0  0  0  0  0  0  0  0
    2.6080    6.4418    0.0000 C   0  0  0  0  0  0  0  0  0  0  0  0
   -0.6549    4.1827    0.0000 C   0  0  0  0  0  0  0  0  0  0  0  0
   -1.0281    2.7299    0.0000 C   0  0  0  0  0  0  0  0  0  0  0  0
   -2.4729    2.3267    0.0000 C   0  0  0  0  0  0  0  0  0  0  0  0
   -2.8462    0.8739    0.0000 C   0  0  0  0  0  0  0  0  0  0  0  0
   -4.2910    0.4707    0.0000 C   0  0  0  0  0  0  0  0  0  0  0  0
   -5.3625    1.5204    0.0000 O   0  0  0  0  0  0  0  0  0  0  0  0
   -6.8073    1.1172    0.0000 C   0  0  0  0  0  0  0  0  0  0  0  0
   -7.8789    2.1669    0.0000 C   0  0  0  0  0  0  0  0  0  0  0  0
   -7.1806   -0.3356    0.0000 O   0  0  0  0  0  0  0  0  0  0  0  0
   -1.7746   -0.1758    0.0000 C   0  0  0  0  0  0  0  0  0  0  0  0
   -2.1479   -1.6286    0.0000 C   0  0  0  0  0  0  0  0  0  0  0  0
   -3.5927   -2.0318    0.0000 O   0  0  0  0  0  0  0  0  0  0  0  0
   -3.9659   -3.4846    0.0000 C   0  0  0  0  0  0  0  0  0  0  0  0
   -5.4108   -3.8877    0.0000 C   0  0  0  0  0  0  0  0  0  0  0  0
   -2.8944   -4.5342    0.0000 O   0  0  0  0  0  0  0  0  0  0  0  0
    2.1865   -0.4191    0.0000 C   0  0  0  0  0  0  0  0  0  0  0  0
    3.2581   -1.4688    0.0000 C   0  0  0  0  0  0  0  0  0  0  0  0
    2.8848   -2.9216    0.0000 C   0  0  0  0  0  0  0  0  0  0  0  0
    3.9564   -3.9712    0.0000 O   0  0  0  0  0  0  0  0  0  0  0  0
    5.4012   -3.5681    0.0000 C   0  0  0  0  0  0  0  0  0  0  0  0
    6.4727   -4.6177    0.0000 C   0  0  0  0  0  0  0  0  0  0  0  0
    5.7744   -2.1153    0.0000 O   0  0  0  0  0  0  0  0  0  0  0  0
  1  2  1  0
  2  3  1  0
  3  4  2  0
  4  5  1  0
  6  5  1  6
  6  7  1  0
  7  8  2  0
  8  9  1  0
  9 10  1  0
 10 11  1  0
 11 12  1  0
 11 13  2  0
  9 14  2  0
 14 15  1  0
 15 16  1  0
 14 17  1  0
 17 18  2  0
 18 19  1  0
 19 20  1  0
 20 21  1  6
 21 22  1  0
 22 23  1  0
 23 24  1  0
 23 25  2  0
 20 26  1  0
 26 27  1  1
 27 28  1  0
 28 29  1  0
 29 30  1  0
 29 31  2  0
  5 32  2  0
 32 33  1  0
 33 34  2  0
 34 35  1  0
 35 36  1  0
 36 37  1  0
 36 38  2  0
 34  3  1  0
 26  6  1  0
 18  7  1  0
M  END
>  <identifier>  (1479) 
CNP0233448.1

>  <canonical_smiles>  (1479) 
COC1=CC([C@H]2C3=CC(OC(C)=O)=C(OC)C=C3C[C@@H](COC(C)=O)[C@@H]2COC(C)=O)=CC=C1OC(C)=O

>  <standard_inchi>  (1479) 
InChI=1S/C28H32O10/c1-15(29)35-13-21-9-20-11-26(34-6)27(38-18(4)32)12-22(20)28(23(21)14-36-16(2)30)19-7-8-24(37-17(3)31)25(10-19)33-5/h7-8,10-12,21,23,28H,9,13-14H2,1-6H3/t21-,23-,28-/m0/s1

>  <standard_inchi_key>  (1479) 
ISYNGIHUXCEJCI-ZKOMGTKCSA-N

>  <name>  (1479) 
nan

>  <iupac_name>  (1479) 
[(2~{R},3~{R},4~{S})-6-acetoxy-4-(4-acetoxy-3-methoxy-phenyl)-3-(acetoxymethyl)-7-methoxy-tetralin-2-yl]methyl acetate

>  <annotation_level>  (1479) 
4

>  <total_atom_count>  (1479) 
70

>  <heavy_atom_count>  (1479) 
38

>  <molecular_weight>  (1479) 
528.55

>  <exact_molecular_weight>  (1479) 
528.19955

>  <molecular_formula>  (1479) 
C28H32O10

>  <alogp>  (1479) 
3.60

>  <topological_polar_surface_area>  (1479) 
123.66

>  <rotatable_bond_count>  (1479) 
9

>  <hydrogen_bond_acceptors>  (1479) 
10

>  <hydrogen_bond_donors>  (1479) 
0

>  <hydrogen_bond_acceptors_lipinski>  (1479) 
10

>  <hydrogen_bond_donors_lipinski>  (1479) 
0

>  <lipinski_rule_of_five_violations>  (1479) 
1

>  <aromatic_rings_count>  (1479) 
2

>  <qed_drug_likeliness>  (1479) 
0.35

>  <formal_charge>  (1479) 
0

>  <fractioncsp3>  (1479) 
0.43

>  <number_of_minimal_rings>  (1479) 
3

>  <van_der_walls_volume>  (1479) 
474.33

>  <contains_sugar>  (1479) 
False

>  <contains_ring_sugars>  (1479) 
False

>  <contains_linear_sugars>  (1479) 
False

>  <murcko_framework>  (1479) 
c1ccc(cc1)C2c3ccccc3CCC2

>  <np_likeness>  (1479) 
1.08

>  <chemical_class>  (1479) 
Aryltetralin lignans

>  <chemical_sub_class>  (1479) 
Aryltetralin lignans

>  <chemical_super_class>  (1479) 
Lignans, neolignans and related compounds

>  <direct_parent_classification>  (1479) 
Aryltetralin lignans

>  <np_classifier_pathway>  (1479) 
Shikimates and Phenylpropanoids

>  <np_classifier_superclass>  (1479) 
Lignans

>  <np_classifier_class>  (1479) 
Arylnaphthalene and aryltetralin lignans

>  <np_classifier_is_glycoside>  (1479) 
False

>  <organisms>  (1479) 
Araucaria angustifolia|Breonia chinensis|Campylotropis hirtella|Ceropegia dichotoma|Crinum moorei|Crotalaria candicans|Cryptomeria japonica|Dendrobium loddigesii|Distephanus angulifolius|Eria japonica|Eucalyptus apodophylla|Eucalyptus globulus subsp. bicostata|Glycosmis macrophylla|Gypsophila perfoliata|Hypericum polyanthemum|Juniperus drupacea|Martensia denticulata|Mentha cardiaca|Ononis spinosa|Pentaclethra macrophylla|Periploca sepium|Plectranthus myrianthus|Pterocaulon virgatum|Rhodiola semenovii|Salvia sessei|Sonneratia caseolaris|Stephania zippeliana|Talaromyces variabilis|Tristania conferta|Vernonia cistifolia|Veronica polita

>  <collections>  (1479) 
CMAUP (cCollective molecular activities of useful plants)|Latin America dataset|NPASS|NuBBEDB|Super Natural II|WikiData Natural Products|ZINC NP

>  <dois>  (1479) 
10.1016/0031-9422(95)00269-D|10.1016/S0031-9422(00)89347-4

>  <synonyms>  (1479) 
isolariciresinol tetraacetate

>  <cas>  (1479) 
nan

$$$$

     RDKit          2D

 12 12  0  0  0  0  0  0  0  0999 V2000
   -4.9340   -0.5146    0.0000 C   0  0  0  0  0  0  0  0  0  0  0  0
   -3.5752    0.1207    0.0000 C   0  0  0  0  0  0  0  0  0  0  0  0
   -2.3456   -0.7383    0.0000 C   0  0  0  0  0  0  0  0  0  0  0  0
   -0.9868   -0.1029    0.0000 C   0  0  0  0  0  0  0  0  0  0  0  0
   -0.8577    1.3915    0.0000 C   0  0  0  0  0  0  0  0  0  0  0  0
    0.5011    2.0269    0.0000 C   0  0  0  0  0  0  0  0  0  0  0  0
    1.7308    1.1678    0.0000 C   0  0  0  0  0  0  0  0  0  0  0  0
    3.0895    1.8032    0.0000 O   0  0  0  0  0  0  0  0  0  0  0  0
    1.6016   -0.3266    0.0000 C   0  0  0  0  0  0  0  0  0  0  0  0
    2.8313   -1.1856    0.0000 O   0  0  0  0  0  0  0  0  0  0  0  0
    2.7021   -2.6801    0.0000 C   0  0  0  0  0  0  0  0  0  0  0  0
    0.2428   -0.9620    0.0000 C   0  0  0  0  0  0  0  0  0  0  0  0
  1  2  2  0
  2  3  1  0
  3  4  1  0
  4  5  2  0
  5  6  1  0
  6  7  2  0
  7  8  1  0
  7  9  1  0
  9 10  1  0
 10 11  1  0
  9 12  2  0
 12  4  1  0
M  END
>  <identifier>  (1480) 
CNP0134292.0

>  <canonical_smiles>  (1480) 
C=CCC1=CC=C(O)C(OC)=C1

>  <standard_inchi>  (1480) 
InChI=1S/C10H12O2/c1-3-4-8-5-6-9(11)10(7-8)12-2/h3,5-7,11H,1,4H2,2H3

>  <standard_inchi_key>  (1480) 
RRAFCDWBNXTKKO-UHFFFAOYSA-N

>  <name>  (1480) 
eugenol

>  <iupac_name>  (1480) 
4-allyl-2-methoxy-phenol

>  <annotation_level>  (1480) 
5

>  <total_atom_count>  (1480) 
24

>  <heavy_atom_count>  (1480) 
12

>  <molecular_weight>  (1480) 
164.2

>  <exact_molecular_weight>  (1480) 
164.08373

>  <molecular_formula>  (1480) 
C10H12O2

>  <alogp>  (1480) 
2.13

>  <topological_polar_surface_area>  (1480) 
29.46

>  <rotatable_bond_count>  (1480) 
3

>  <hydrogen_bond_acceptors>  (1480) 
2

>  <hydrogen_bond_donors>  (1480) 
1

>  <hydrogen_bond_acceptors_lipinski>  (1480) 
2

>  <hydrogen_bond_donors_lipinski>  (1480) 
1

>  <lipinski_rule_of_five_violations>  (1480) 
0

>  <aromatic_rings_count>  (1480) 
1

>  <qed_drug_likeliness>  (1480) 
0.69

>  <formal_charge>  (1480) 
0

>  <fractioncsp3>  (1480) 
0.20

>  <number_of_minimal_rings>  (1480) 
1

>  <van_der_walls_volume>  (1480) 
161.57

>  <contains_sugar>  (1480) 
False

>  <contains_ring_sugars>  (1480) 
False

>  <contains_linear_sugars>  (1480) 
False

>  <murcko_framework>  (1480) 
c1ccccc1

>  <np_likeness>  (1480) 
1.05

>  <chemical_class>  (1480) 
Phenols

>  <chemical_sub_class>  (1480) 
Methoxyphenols

>  <chemical_super_class>  (1480) 
Benzenoids

>  <direct_parent_classification>  (1480) 
Methoxyphenols

>  <np_classifier_pathway>  (1480) 
Shikimates and Phenylpropanoids

>  <np_classifier_superclass>  (1480) 
Phenylpropanoids (C6-C3)

>  <np_classifier_class>  (1480) 
Cinnamic acids and derivatives

>  <np_classifier_is_glycoside>  (1480) 
False

>  <organisms>  (1480) 
Acarus calamus|Achillea Millefolium|Achillea abrotanoides|Achillea arabica|Achillea biebersteinii|Achillea cuneatiloba|Achillea fragrantissima|Achillea grandifolia|Achillea millefolium|Achillea moschata|Aconitum fischeri|Aconitum leucostomum|Aconitum macrorhynchum|Aconitum sajanense|Acorus Calamus|Acorus Tatarinowii|Acorus calamus|Acorus calamus L.|Acorus gramineus|Acorus tatarinowii|Actaea dahurica|Actaea heracleifolia|Actaea simplex|Actinomadura hibisca|Adenophora triphylla|African blue basil|Agastache foeniculum|Agastache rugosa|Agathosma betulina|Ageratum conyzoides|Ailanthus triphysa|Akebia quinata|Akebia trifoliata|Alphinia galanga|Alpinia Galanga|Alpinia Officinarum|Alpinia chinensis|Alpinia conchigera|Alpinia galanga|Alpinia officinarum|Alstonia undulifolia|Alternaria cinerariae|Amauris echeria|Anarsia lineatella|Anastrepha suspensa|Andinobates bombetes|Anethum graveolens|Angelica sp.|Aniba canelilla|Anisocycla jollyana|Anthriscus sylvestris|Apiaceae|Apium graveolens|Apocynum androsaemifolium|Apollonias barbujana|Aquilegia ecalcarata|Arnebia euchroma|Arnebia guttata|Artemisia Annua|Artemisia Capillaris|Artemisia abrotanum L.|Artemisia afra|Artemisia annua|Artemisia argyi|Artemisia capillaries|Artemisia capillaris|Artemisia coerulescens|Artemisia dracunculus|Artemisia hanseniana|Artemisia jacutica|Artemisia japonica|Artemisia klotzchiana|Artemisia klotzschiana|Artemisia montana|Artemisia princeps|Artemisia scoparia|Artemisia vulgaris|Asarum asaroides|Asarum asperum|Asarum canadense|Asarum europaeum L.|Asarum forbesii|Asarum fudsinoi|Asarum gusk|Asarum heterotropoides|Asarum heterotropoides var. mandshuricum|Asarum hexalobum|Asarum minamitanianum|Asarum satsumense|Asarum sieboldii|Asarum subglobosum|Asarum takaoi|Asarum tamaense|Asarum unzen|Aspergillus caespitosus|Aspergillus violaceus|Aster scaber|Asteriscus aquaticus|Astilbe koreana|Aulacomnium palustre|Avrainvillea rawsonii|Baeckea frutescens|Baeckea frutescens L.|Berberis heterobotrys|Bersama abyssinica|Betula platyphylla|Bidens tripartita|Bistorta manshuriensis|Bistorta officinalis|Blepharocalyx salicifolius|Blepharocalyx tweediei|Blumea axillaris|Blumea mollis|Boronia megastigma|Boronia muelleri|Bothriospermum secundum|Bowdichia nitida|Boykinia watanabei|Brassica hirta|Bulbophyllum cheiri|Bupleurum chinense|Burkholderia cepacia|Caesalpinia bonducella|Caesulia axillaris|Callicarpa japonica|Camellia oleifera|Camellia saluenensis|Camellia sasanqua|Camphora|Cananga odorata|Canella winterana|Cannabis Sativa|Cannabis sativa|Capparis ovata|Carpolobia lutea|Carum carvi|Caryocar glabrum|Cassia carnaval|Cassia jahnii|Cassine papillosa|Castanopsis cuspidata|Caulis perillae|Caulis perillae frutescentis|Ceanothus velutinus|Cedronella canariensis|Cestrum Nocturnum|Cestrum nocturnum|Chaenomeles sinensis|Chaerophyllum bulbosum|Chamaecrista duckeana|Chamaemelum nobile|Chamomilla recutita|Charpentiera obovata|Chelonanthus albus|Chlorophytum borivilianum|Cimicifuga foetida|Cinamomum cassia|Cinnamomum Camphora|Cinnamomum Subavenium|Cinnamomum Tamala|Cinnamomum aromaticum|Cinnamomum burmanni|Cinnamomum camphora|Cinnamomum cassia|Cinnamomum illicioides|Cinnamomum impressinervium|Cinnamomum insularimontanum|Cinnamomum japonicum|Cinnamomum macrostemon|Cinnamomum parthenoxylum|Cinnamomum sieboldii|Cinnamomum sp.|Cinnamomum spp.|Cinnamomum subavenium|Cinnamomum subavenium MIQ.|Cinnamomum tamala|Cinnamomum verum|Cinnamomum yabunikkei|Cinnamomum zeylanicum|Cinnamon|Cistanche deserticola|Cistus creticus|Citrullus lanatus|Clathria prolifera|Clinopodium barbatum|Clinopodium congestum|Clostridium ventriculi|Cnidium officinale|Colchicum macedonicum|Coleus amboinicus|Coluria geoides|Commiphora myrrha|Conioselinum anthriscoides|Conoideocrella tenuis|Conus pulicarius|Coprosma acerosa|Coptis chinensis|Coptis deltoidea|Coptis japonica|Coptis omeiensis|Coptis teeta|Cornus officinalis|Corymbia citriodora|Couroupita guianensis|Cranfillia vulcanica|Croton argyrophyllus|Croton conduplicatus|Croton essequiboensis|Croton grewioides|Croton jacobinensis|Croton jimenezii|Croton micans|Croton montevidensis|Croton nepetaefolius|Croton nepetifolius|Croton sonderianus|Croton tricolor|Croton zehntneri|Cryptocarya agathophylla|Cuminum cyminum|Curcuma longa|Cyanospira rippkae|Cymathere triplicata|Cymbopogon flexuosus|Cymbopogon nardus|Cyphelium chrysocephalum|Dahlia sherffii|Dalbergia frutescens|Damburneya purpurea|Damnacanthus major|Datisca glomerata|Daucus carota|Delphinium yunnanense|Derris eriocarpa|Dianthus Chinensis|Dianthus caryophyllus|Dianthus chinensis|Dianthus superbus|Dicliptera riparia|Dillenia papuana|Dioscorea olfersiana|Diospyros kaki|Dipterocarpus dyeri|Dryopteris filix-mas|Dysoxylum hainanense|Ecballium elaterium|Echinophora tenuifolia|Echinus microtuberculatus|Elaeagnus umbellata|Elettaria cardamomum|Elsholtzia blanda|Elsholtzia bodinieri|Elsholtzia ciliata|Elsholtzia splendens|Epipactis palustris|Erwinia rhapontici|Eschweilera coriacea|Espeletia grandiflora|Etlingera cevuga|Eucalyptus brassiana|Eucalyptus citriodora|Eucalyptus cladocalyx|Eucalyptus polyanthemos|Eugenia caryophyllata|Eugenia caryopyhllata|Eupatorium fortunei|Euphorbia caducifolia|Euploea sylvester|Fagus fusca|Ficus carica|Ficus elastica|Flourensia fiebrigii|Foeniculum vulgare|Folium callicarpae nudiflorae|Folium caryophylli|Folium perillae|Fragaria vesca|Freesia hybrida|Fructus caryophylli|Fructus galangae|Fructus perillae|Fructus perillae preparata|Galeocerdo arcticus|Garcinia scortechinii|Gardenia jasminoides|Gardenia tubifera|Gentiana kurroo|Geum heterocarpum|Gonioma kamassi|Gundelia tournefortii|Hamamelis virginiana|Helianthopsis bishopii|Helichrysum auriceps|Heracleum antasiaticum|Herba artemisiae scopariae|Hericium erinaceus|Hesperis matronalis|Hesperis matronalis L.|Heterotropa|Hexastylis arifolia var. arifolia|Hibiscus Sabdariffa|Hibiscus sabdariffa|Hibiscus sabdariffa L.|Homo sapiens|Hubertia tomentosa|Humulus lupulus|Hyacinthus orientalis|Hypericum papuanum|Hypselodoris cantabrica|Hypselodoris webbi|Hyptis spicigera|Hyptis suaveolens|Hyssopus officinalis|Ilex kaushue|Illicium|Illicium anisatum|Illicium difengpi|Illicium verum|Inula germanica|Inula thapsoides|Iotrochota purpurea|Ipomoea cairica|Ipomoea pes-caprae|Isatis tinctoria|Isodon lophanthoides|Jacaranda caucana|Jackiella javanica|Jasminum polyanthum|Juglans regia|Kaunia arbuscularis|Kopsia grandifolia|Lactifluus subvellereus|Lagascea mollis|Lamellomorpha strongylata|Lantana camara|Laser trilobum|Lasianthus fordii|Laurencia irieii|Laurus Nobilis|Laurus nobilis|Laurus nobilis L.|Ledebouria socialis|Leonurus sibiricus|Levisticum sp.|Libanothamnus tamanus|Licania carii|Licaria puchuri-major|Licaria puchury-major|Ligusticum chuanxiong|Ligusticum sinense|Ligusticum striatum|Ligustrum obtusifolium|Limeum pterocarpum|Lindenia austro-caledonica|Lindera neesiana|Lippia Aff. sidoides|Lippia graveolens|Lippia javanica|Lippia origanoides|Lithocolletis coryli|Lithospermum erythrorhizon|Litsea cubeba|Lonicera Japonica|Lonicera japonica|Lophophora williamsii|Lotus ucrainicus|Lupinus formosus|Lycopus europaeus|Lyngbya confervoides|Macrocystidia cucumis|Magnolia compressa|Magnolia liliflora|Magnolia liliiflora|Magnolia officinalis|Mallotus rhamnifolius|Malus domestica|Malus pumila|Mandragora autumnalis|Mandragora officinarum|Mangifera indica|Matricaria chamomilla|Melaleuca viridiflora|Melica uniflora|Mentha arvensis|Mentha canadensis|Mentha longifolia|Mentha spicata|Mentha suaveolens|Metridium senile|Microscleroderma spirophora|Mimusops elengi|Montanoa tomentosa|Morina persica|Morus Alba|Morus alba|Mosla Chinensis|Mosla chinensis|Murraya Paniculata|Murraya exotica|Murraya paniculata|Myelobia smerintha|Myristica Fragrans|Myristica argentea|Myristica cagayanensis|Myristica fragrans|Myrrha praeparata|Narcissus tazetta l var. chinensis roem.|Narcissus tazetta var. chinensis|Narcissus tazetta var.chinensis|Nectandra hihua|Nectandra polita|Nemuaron vieillardii|Nepeta cataria|Nerita albicilla|Nicotiana bonariensis|Nicotiana tabacum|Notholaena affinis|Notylia fragrans|Ocimum americanum|Ocimum basilicum|Ocimum basilicum L.|Ocimum campechianum|Ocimum carnosum|Ocimum gratissimum|Ocimum micranthum|Ocimum selloi|Ocimum sp|Ocimum sp.|Ocimum spp.|Ocimum tenuiflorum|Oleum caryophylli|Oleum ocimi gratissimi|Ononis natrix|Ophidiaster ophidianus|Ophiopogon intermedius|Origanum acutidens|Origanum majorana|Origanum minutiflorum|Origanum ramonense|Origanum vulgare|Oxandra xylopioides|Paeonia lactiflora|Paeonia veitchii|Palicourea alpina|Panax ginseng|Panax innovans|Pandanus tectorius|Parmelia enteromorpha|Passiflora incarnata|Pellicularia sasakii|Peltodon longipes|Penicillium cinerascens|Pentamera calcigera|Peperomia humilis|Peperomia leptostachya|Peperomia sui|Pericarpium zanthoxyli|Perilla frutescens|Perilla frutescens (l.) britt. var. crispa (thunb.) hand.-mazz.|Perilla frutescens var. acuta|Perilla frutescens var. arguta|Perilla frutescens var.acuta|Persea mexicana|Persicaria thunbergii|Phebalium dentatum|Philadelphia fleabane|Phlegmariurus yunnanensis|Phyla nodiflora|Phyllanthus emblica|Phyllanthus oligospermus|Phyllospongia papyracea|Physarum rigidum|Picea abies|Pimenta dioica|Pimenta racemosa|Pimpinella anisum|Pinellia ternata|Piper Betle|Piper attenuatum|Piper auritum|Piper betle|Piper cubeba|Piper nigrum|Piper sanctum|Piper sylvestre|Piper taiwanense|Pisolithus arhizus|Pistacia sp.|Plantago arenaria|Platostoma africanum|Plectranthus marrubioides|Podocarpus elongata|Pogostemon Cablin|Pogostemon cablin|Polyalthia nemoralis|Polygala senega|Polygonum flaccidum|Popillia japonica|Porophyllum ruderale|Posoqueria latifolia|Prittwitzia hymenaea|Prunus armeniaca|Prunus avium|Prunus cerasus|Prunus domestica|Prunus dulcis|Prunus mume|Prunus persica|Pseudoceratina purpurea|Pseudowintera colorata|Psidium Guajava|Psidium guajava|Puccinia lagenophorae|Pulicaria paludosa|Pulmonaria mollis|Quercus agrifolia|Quercus imbricaria|Rhanterium epapposum|Rhodobacter sphaeroides|Rhodomyrtus tomentosa|Riccardia multifida|Riccardia multifida subsp. Decrescens|Rosa chinensis|Rosa gallica|Rosa rugosa|Rosa × damascena|Rosmarinus officinalis|Rubus sanctus|Rumex obtusifolius|Salix fragilis|Salix sieboldiana|Salvadora persica|Salvia caespitosa|Salvia iodantha|Salvia xalapensis|Sambucus ebulus|Santalum album|Sassafras albidum|Sassafras randaiense|Sassafras randainense|Sassafras randalnense|Sassafras tzumu|Satureja montana L.|Scrophularia buergeriana|Scrophularia koelzii|Scrophularia ningpoensis|Scrophularia smithii|Scutellaria baicalensis|Scutellaria barbata|Semecarpus sp.|Senecio subrubriflorus|Senegalia berlandieri|Senna alexandrina|Sideritis chamaedryfolia|Sideritis hirsuta|Sideritis lyciae|Siphonaria australis|Siphonostegia chinensis|Solanum andigena|Solanum anguivi|Solanum betaceum|Solanum torvum|Sordaria araneosa|Spathiphyllum cannifolium|Sphaeranthus kirkii var. cyathuloides|Spiracantha cornifolia|Stachys atherocalyx|Stachys recta|Stauntonia hexaphylla|Stolonica socialis|Streptomyces fulvoviridis|Streptomyces platensis|Streptomyces ruber|Strophanthus sarmentosus var. senegambiae|Strychnos triplinervia|Sus scrofa|Swertia japonica|Syzygium aromaticum|Syzygium sp.|Syzygiumaromaticum|Talaromyces islandicus|Tanacetum parthenium|Tanacetum santolinoides|Tanacetum vulgare|Tasmannia lanceolata|Taxus baccata|Taxus canadensis|Tephrosia crassifolia|Tetracera alnifolia|Teucrium massiliense|Thymbra capitata|Thymbra spicata|Thymus capitatus|Thymus funkii|Thymus longiflorus|Thymus quinquecostatus|Thymus revolutus|Thymus vulgaris|Tilia rubra|Toddalia Asiatica|Toddalia asiatica|Tor sinensis|Traversia baccharoides|Trifolium alexandrium|Trifolium pratense|Trigonella foenum-graecum|Tripleurospermum inodorum|Tylophora flava|Tylophora tanakae|Ulva pertusa|Umbellularia californica|Uncaria macrophylla|Uvariopsis tripetala|Vaccinium ashei|Vaccinium corymbosum|Vaccinium macrocarpon|Vaccinium myrtillus|Vaccinium virgatum|Vachellia rigidula|Valeriana officinalis|Vepris boiviniana|Vibrio gazogenes|Vitex negundo|Viviparus japonicus|West African Pepper|Widely distributed in plant|Wunderlichia mirabilis|Zanthoxylum asiaticum|Zanthoxylum bungeanum|Zea mays|Zieria smithii|Zilla spinosa|Zingiber|Zingiber mioga|Zingiber officinale|Ziziphus jujuba|basil|bellis perennis|broad bean|candyleaf|clove|common myrtle|common sunflower|eugenia caryophillus|rooibos|tarragon|tomato|yerba mate

>  <collections>  (1480) 
ANPDB|AfroDB|Australian natural products|CMAUP (cCollective molecular activities of useful plants)|ChEBI NPs|ConMedNP|DrugBankNP|EMNPD|ETM (Ethiopian Traditional Medicine) DB|FooDB|HIM (Herbal Ingredients in-vivo Metabolism database)|HIT (Herbal Ingredients Targets)|InPACdb|InflamNat|KNApSaCK|Latin America dataset|Mitishamba database|NANPDB (Natural Products from Northern African Sources)|NAPRORE-CR|NPACT|NPASS|NPEdia|NuBBEDB|Phenol-explorer|Phyto4Health|PhytoLab phyproof® Reference Substances|PubChem NPs|Super Natural II|TCMDB-Taiwan (Traditional Chinese Medicine database)|TCMID (Traditional Chinese Medicine Integrated Database)|TIPdb (database of Taiwan indigenous plants)|TPPT (Toxic Plants–PhytoToxins)|UNPD (Universal Natural Products Database)|VietHerb|Watermelon|WikiData Natural Products|p-ANAPL

>  <dois>  (1480) 
10.1001/JAMA.291.5.562|10.1002/(SICI)1099-1026(1998070)13:4<245::AID-FFJ736>3.0.CO;2-J|10.1002/(SICI)1099-1026(199901/02)14:1<12::AID-FFJ763>3.0.CO;2-7|10.1002/(SICI)1099-1573(1998)12:1+<S117::AID-PTR269>3.0.CO;2-2|10.1002/(SICI)1521-4168(19990401)22:4<222::AID-JHRC222>3.0.CO;2-6|10.1002/1099-1026(200009/10)15:5<339::AID-FFJ922>3.0.CO;2-H|10.1002/9780470744307.gat218|10.1002/ARDP.19022400507|10.1002/BMC.969|10.1002/CBDV.201000088|10.1002/CHIN.200334173|10.1002/CJOC.201180379|10.1002/FFJ.1058|10.1002/FFJ.1105|10.1002/FFJ.2730010103|10.1002/FFJ.2730020106|10.1002/FFJ.2730040104|10.1002/FFJ.2730060109|10.1002/FFJ.2730080504|10.1002/FFJ.2730100408|10.1002/FFJ.2730100506|10.1002/FFJ.2730100603|10.1002/FFJ.2730100609|10.1002/HLCA.19470300152|10.1002/HLCA.19760590304|10.1002/JSFA.2740321112|10.1002/JSFA.5866|10.1002/JSSC.200900378|10.1002/PTR.1628|10.1002/PTR.2650040606|10.1002/PTR.2650060211|10.1002/food.19880321030|10.1007/BF00043642|10.1007/BF00629663|10.1007/BF00629777|10.1007/BF00629778|10.1007/BF00629779|10.1007/BF00630021|10.1007/BF00630333|10.1007/BF01959201|10.1007/BF01961467|10.1007/BF02236436|10.1007/BF02540996|10.1007/BF02541505|10.1007/BF02857217|10.1007/BF02907824|10.1007/BF02908196|10.1007/BF02978255|10.1007/BF03171392|10.1007/S00226-009-0282-1|10.1007/S004030050433|10.1007/S10600-010-9463-2|10.1007/S10600-010-9650-1|10.1007/S10600-010-9708-0|10.1007/S10600-012-0139-Y|10.1007/S11418-006-0039-1|10.1007/S11418-007-0175-2|10.1007/SPRINGERREFERENCE_69022|10.1007/s10886-010-9846-7|10.1016/0021-9673(88)90035-0|10.1016/0031-9422(73)85053-8|10.1016/0031-9422(74)85146-0|10.1016/0031-9422(83)83016-7|10.1016/0031-9422(83)83066-0|10.1016/0031-9422(83)83070-2|10.1016/0031-9422(90)80177-I|10.1016/0031-9422(90)85049-L|10.1016/0031-9422(90)85066-O|10.1016/0031-9422(90)85126-Z|10.1016/0031-9422(91)83717-Y|10.1016/0031-9422(95)00183-8|10.1016/0031-9422(95)00241-X|10.1016/0278-6915(86)90065-7|10.1016/0305-1978(92)90070-T|10.1016/0305-1978(95)00094-1|10.1016/0305-1978(96)00016-6|10.1016/0378-4347(96)00008-4|10.1016/0378-8741(83)90056-9|10.1016/0378-8741(89)90113-X|10.1016/0378-8741(90)90054-W|10.1016/0378-8741(94)01213-J|10.1016/0740-0020(86)90017-1|10.1016/0952-3278(93)90116-E|10.1016/J.CHROMA.2004.03.057|10.1016/J.FCT.2008.07.017|10.1016/J.FCT.2012.12.050|10.1016/J.FOODCHEM.2013.11.092|10.1016/J.FOODRES.2017.01.014|10.1016/J.JPBA.2007.01.024|10.1016/J.JPBA.2011.01.016|10.1016/J.PHYTOCHEM.2005.07.016|10.1016/J.PHYTOCHEM.2006.05.038|10.1016/J.PHYTOCHEM.2006.12.009|10.1016/J.PHYTOCHEM.2009.06.013|10.1016/J.PHYTOCHEM.2018.12.020|10.1016/S0021-9673(01)00513-1|10.1016/S0021-9673(01)91485-2|10.1016/S0031-9422(00)00263-6|10.1016/S0031-9422(00)80081-3|10.1016/S0031-9422(00)80325-8|10.1016/S0031-9422(00)80757-8|10.1016/S0031-9422(00)82268-2|10.1016/S0031-9422(00)84047-9|10.1016/S0031-9422(00)94541-2|10.1016/S0031-9422(00)97370-9|10.1016/S0031-9422(00)97906-8|10.1016/S0031-9422(02)00207-8|10.1016/S0031-9422(03)00183-3|10.1016/S0031-9422(82)85042-5|10.1016/S0031-9422(96)00386-X|10.1016/S0031-9422(97)00292-6|10.1016/S0031-9422(99)00406-9|10.1016/S0278-6915(01)00078-3|10.1016/S0305-1978(00)00062-4|10.1016/S0305-1978(03)00179-0|10.1016/S0367-326X(01)00270-2|10.1016/S0367-326X(98)00002-1|10.1016/S0367-326X(98)00020-3|10.1016/S0378-8741(01)00238-0|10.1016/S0925-5214(02)00250-8|10.1016/S0944-7113(00)80015-X|10.1016/S0944-7113(11)80031-0|10.1016/S0960-894X(01)00781-8|10.1016/S2221-1691(14)60204-5|10.1016/j.intimp.2015.03.026|10.1016/j.phytochem.2004.08.035|10.1021/JF00004A032|10.1021/JF00011A020|10.1021/JF00025A023|10.1021/JF00025A025|10.1021/JF00034A033|10.1021/JF00062A024|10.1021/JF00065A004|10.1021/JF00069A028|10.1021/JF00083A001|10.1021/JF000865W|10.1021/JF00091A025|10.1021/JF00111A021|10.1021/JF00120A008|10.1021/JF00123A021|10.1021/JF0103469|10.1021/JF020751F|10.1021/JF0208278|10.1021/JF0402633|10.1021/JF051513Y|10.1021/JF60201A021|10.1021/JF60218A031|10.1021/JF60221A041|10.1021/JF60224A025|10.1021/JF60228A025|10.1021/JF950275B|10.1021/JF970808B|10.1021/JF980304T|10.1021/JO01161A020|10.1021/NP0401260|10.1021/NP0705615|10.1021/NP50008A001|10.1021/NP50017A018|10.1021/NP50017A019|10.1021/NP50035A028|10.1021/NP50035A036|10.1021/NP50038A026|10.1021/NP50039A037|10.1021/NP50047A038|10.1021/NP50052A041|10.1021/NP50061A024|10.1021/NP50083A010|10.1021/NP50085A029|10.1021/NP9605697|10.1021/np50017a018|10.1039/C29710001108|10.1039/C39750000879|10.1039/C3979001073B|10.1055/S-0028-1097286|10.1055/S-0028-1099554|10.1055/S-0028-1099572|10.1055/S-2006-957420|10.1055/S-2006-957896|10.1055/S-2006-959379|10.1055/S-2006-959506|10.1055/S-2006-959548|10.1055/S-2006-960196|10.1055/S-2006-960832|10.1055/S-2006-961401|10.1055/S-2006-961434|10.1055/S-2006-961837|10.1055/S-2006-962093|10.1055/S-2006-962742|10.1055/S-2006-962781|10.1055/S-2007-969591|10.1055/S-2007-969683|10.1071/ch9682585|10.1074/jbc.M411429200|10.1080/0972060X.2006.10643494|10.1080/0972060X.2013.813219|10.1080/0972060X.2014.895210|10.1080/10412905.1989.9697770|10.1080/10412905.1989.9699438|10.1080/10412905.1990.9697863|10.1080/10412905.1990.9697878|10.1080/10412905.1991.9697906|10.1080/10412905.1991.9697952|10.1080/10412905.1991.9697971|10.1080/10412905.1991.9697982|10.1080/10412905.1991.9697994|10.1080/10412905.1991.9700498|10.1080/10412905.1991.9700504|10.1080/10412905.1992.9698019|10.1080/10412905.1992.9698032|10.1080/10412905.1992.9698081|10.1080/10412905.1992.9698084|10.1080/10412905.1992.9698130|10.1080/10412905.1992.9698139|10.1080/10412905.1993.9698163|10.1080/10412905.1993.9698170|10.1080/10412905.1993.9698176|10.1080/10412905.1993.9698184|10.1080/10412905.1993.9698192|10.1080/10412905.1993.9698203|10.1080/10412905.1993.9698206|10.1080/10412905.1994.9698332|10.1080/10412905.1994.9698333|10.1080/10412905.1994.9698334|10.1080/10412905.1994.9698360|10.1080/10412905.1994.9698398|10.1080/10412905.1994.9698406|10.1080/10412905.1994.9698425|10.1080/10412905.1994.9698427|10.1080/10412905.1994.9698432|10.1080/10412905.1994.9699357|10.1080/10412905.1995.9698494|10.1080/10412905.1995.9698496|10.1080/10412905.1995.9698499|10.1080/10412905.1995.9698501|10.1080/10412905.1995.9698507|10.1080/10412905.1995.9698508|10.1080/10412905.1995.9698524|10.1080/10412905.1995.9698553|10.1080/10412905.1995.9698577|10.1080/10412905.1995.9700534|10.1080/10412905.1997.9700708|10.1080/10412905.1997.9700721|10.1080/10412905.1997.9700741|10.1080/10412905.1997.9700812|10.1080/10412905.1998.9700854|10.1080/10412905.1998.9700856|10.1080/10412905.1998.9700913|10.1080/10412905.1998.9700937|10.1080/10412905.1999.9701158|10.1080/10412905.1999.9701159|10.1080/10412905.1999.9701169|10.1080/10412905.2000.9699524|10.1080/10412905.2000.9699551|10.1080/10412905.2000.9699564|10.1080/10412905.2002.9699852|10.1080/10412905.2002.9699883|10.1080/1057563021000040790|10.1080/1057563029001/4764|10.1080/13880200500220268|10.1080/14620316.1988.11515884|10.1080/14786419.2024.2448851|10.1093/CHROMSCI/32.7.253|10.1093/MUTAGE/4.3.200|10.1111/APM.12067|10.1111/J.1365-2621.1983.TB14849.X|10.1111/J.1365-2621.1985.TB13419.X|10.1111/J.1600-0536.1991.TB01726.X|10.1186/1472-6882-6-39|10.1186/1476-4598-6-8|10.1246/BCSJ.56.3477|10.1248/BPB1978.6.281|10.1248/CPB.31.2879|10.1248/CPB.48.1467|10.1248/CPB.56.97|10.1248/CPB.57.245|10.1248/CPB1953.4.223|10.1248/YAKUSHI1947.106.1_17|10.1248/YAKUSHI1947.90.11_1367|10.1248/YAKUSHI1947.99.6_602|10.1271/BBB.57.1101|10.1271/BBB1924.24.667|10.1271/BBB1961.45.507|10.1271/BBB1961.48.2843|10.1271/BBB1961.51.1449|10.1271/BBB1961.55.1655|10.1271/NOGEIKAGAKU1924.63.185|10.1365/S10337-008-0921-Y|10.1515/ZNC-1984-7-803|10.1515/ZNC-1988-1-219|10.1515/ZNC-1990-9-1023|10.1515/ZNC-2006-7-801|10.2478/V10007-009-0022-Y|10.26510/2394-0859.PBE.2017.07|10.3109/10408447709082600|10.3136/NSKKK.49.203|10.3136/NSKKK1962.41.512|10.3390/21100165|10.3390/MOLECULES21111576|10.3891/ACTA.CHEM.SCAND.21-2076|10.5530/PJ.2016.3.3|10.5897/JMPR10.078|10.5935/0103-5053.20160142

>  <synonyms>  (1480) 
nan

>  <cas>  (1480) 
97-53-0|38219-15-7

$$$$

     RDKit          2D

 20 22  0  0  0  0  0  0  0  0999 V2000
   -6.2593   -1.4735    0.0000 C   0  0  0  0  0  0  0  0  0  0  0  0
   -4.8204   -1.8975    0.0000 O   0  0  0  0  0  0  0  0  0  0  0  0
   -3.7338   -0.8634    0.0000 C   0  0  0  0  0  0  0  0  0  0  0  0
   -4.0860    0.5947    0.0000 C   0  0  0  0  0  0  0  0  0  0  0  0
   -2.9994    1.6287    0.0000 C   0  0  0  0  0  0  0  0  0  0  0  0
   -1.5606    1.2047    0.0000 C   0  0  0  0  0  0  0  0  0  0  0  0
   -0.4740    2.2388    0.0000 C   0  0  0  0  0  0  0  0  0  0  0  0
   -0.8262    3.6969    0.0000 O   0  0  0  0  0  0  0  0  0  0  0  0
    0.9648    1.8148    0.0000 C   0  0  0  0  0  0  0  0  0  0  0  0
    1.3170    0.3567    0.0000 C   0  0  0  0  0  0  0  0  0  0  0  0
    2.7559   -0.0673    0.0000 C   0  0  0  0  0  0  0  0  0  0  0  0
    3.1081   -1.5253    0.0000 C   0  0  0  0  0  0  0  0  0  0  0  0
    4.5469   -1.9493    0.0000 C   0  0  0  0  0  0  0  0  0  0  0  0
    5.6335   -0.9152    0.0000 C   0  0  0  0  0  0  0  0  0  0  0  0
    5.2813    0.5428    0.0000 C   0  0  0  0  0  0  0  0  0  0  0  0
    3.8425    0.9668    0.0000 C   0  0  0  0  0  0  0  0  0  0  0  0
    0.2304   -0.6773    0.0000 N   0  0  0  0  0  0  0  0  0  0  0  0
    0.5827   -2.1354    0.0000 C   0  0  0  0  0  0  0  0  0  0  0  0
   -1.2084   -0.2533    0.0000 C   0  0  0  0  0  0  0  0  0  0  0  0
   -2.2950   -1.2874    0.0000 C   0  0  0  0  0  0  0  0  0  0  0  0
  1  2  1  0
  2  3  1  0
  3  4  2  0
  4  5  1  0
  5  6  2  0
  6  7  1  0
  7  8  2  0
  7  9  1  0
  9 10  2  0
 10 11  1  0
 11 12  2  0
 12 13  1  0
 13 14  2  0
 14 15  1  0
 15 16  2  0
 10 17  1  0
 17 18  1  0
 17 19  1  0
 19 20  2  0
 20  3  1  0
 19  6  1  0
 16 11  1  0
M  END
>  <identifier>  (1481) 
CNP0333960.0

>  <canonical_smiles>  (1481) 
COC1=CC=C2C(=O)C=C(C3=CC=CC=C3)N(C)C2=C1

>  <standard_inchi>  (1481) 
InChI=1S/C17H15NO2/c1-18-15(12-6-4-3-5-7-12)11-17(19)14-9-8-13(20-2)10-16(14)18/h3-11H,1-2H3

>  <standard_inchi_key>  (1481) 
SNNYHVVKJUPXKZ-UHFFFAOYSA-N

>  <name>  (1481) 
EDULEINE

>  <iupac_name>  (1481) 
7-methoxy-1-methyl-2-phenyl-quinolin-4-one

>  <annotation_level>  (1481) 
5

>  <total_atom_count>  (1481) 
35

>  <heavy_atom_count>  (1481) 
20

>  <molecular_weight>  (1481) 
265.31

>  <exact_molecular_weight>  (1481) 
265.11028

>  <molecular_formula>  (1481) 
C17H15NO2

>  <alogp>  (1481) 
3.21

>  <topological_polar_surface_area>  (1481) 
31.23

>  <rotatable_bond_count>  (1481) 
2

>  <hydrogen_bond_acceptors>  (1481) 
3

>  <hydrogen_bond_donors>  (1481) 
0

>  <hydrogen_bond_acceptors_lipinski>  (1481) 
3

>  <hydrogen_bond_donors_lipinski>  (1481) 
0

>  <lipinski_rule_of_five_violations>  (1481) 
0

>  <aromatic_rings_count>  (1481) 
3

>  <qed_drug_likeliness>  (1481) 
0.71

>  <formal_charge>  (1481) 
0

>  <fractioncsp3>  (1481) 
0.12

>  <number_of_minimal_rings>  (1481) 
3

>  <van_der_walls_volume>  (1481) 
241.68

>  <contains_sugar>  (1481) 
False

>  <contains_ring_sugars>  (1481) 
False

>  <contains_linear_sugars>  (1481) 
False

>  <murcko_framework>  (1481) 
c1ccc(cc1)C2=CCc3ccccc3N2

>  <np_likeness>  (1481) 
-0.08

>  <chemical_class>  (1481) 
Quinolines and derivatives

>  <chemical_sub_class>  (1481) 
Phenylquinolines

>  <chemical_super_class>  (1481) 
Organoheterocyclic compounds

>  <direct_parent_classification>  (1481) 
Phenylquinolines

>  <np_classifier_pathway>  (1481) 
Alkaloids

>  <np_classifier_superclass>  (1481) 
Tryptophan alkaloids

>  <np_classifier_class>  (1481) 
Quinoline alkaloids

>  <np_classifier_is_glycoside>  (1481) 
False

>  <organisms>  (1481) 
Alpinia officinarum|Amomum reticulatum|Ascodesmis sphaerospora|Caralluma russeliana|Casimiroa edulis|Conchocarpus marginatus|Dalbergia monetaria|Espeletiopsis purpurascens|Grosvenoria rimbachii|Helianthus californicus|Imperata cylindrica|Lactarius fuliginosus|Lunasia amara|Plectranthus hereroensis|Polypodium aureum|Spiraea prunifolia|Ursinia anthemoides|White sapote

>  <collections>  (1481) 
ANPDB|Australian natural products|CMAUP (cCollective molecular activities of useful plants)|FooDB|Latin America dataset|NANPDB (Natural Products from Northern African Sources)|NPASS|NuBBEDB|PubChem NPs|Super Natural II|UNPD (Universal Natural Products Database)|WikiData Natural Products

>  <dois>  (1481) 
10.1007/S10600-007-0196-9|10.1007/s10600-007-0196-9|10.1021/JA01532A026|10.1021/JO01273A049|10.1021/NP50037A032|10.1071/CH9580562|10.1590/S0100-40422012001100006

>  <synonyms>  (1481) 
2-phenyl-1-methyl-7- methoxy-quinolin-4(1H)-one|4(1H)-Quinolone, 7-methoxy-1-methyl-2-phenyl-|483-51-2|7-methoxy-1-methyl-2-phenyl-1,4-dihydroquinolin-4-one|7-methoxy-1-methyl-2-phenyl-4(1H)-quinolinone|7-methoxy-1-methyl-2-phenylquinolin-4-one|AB00464856-08|AE-562\/12222921|BDBM32704|CHEMBL1721520|DS-009230|DTXSID50291683|Eduleine|HMS2318A12|KY2D9CAQ7P|MLS000549198|NSC-77150|Oprea1_614141|SCHEMBL7912617|SMR000113846|UNII-KY2D9CAQ7P|cid_253834|edulein

>  <cas>  (1481) 
483-51-2

$$$$

     RDKit          2D

 20 22  0  0  0  0  0  0  0  0999 V2000
   -3.9650    2.8835    0.0000 C   0  0  0  0  0  0  0  0  0  0  0  0
   -3.9635    1.3835    0.0000 O   0  0  0  0  0  0  0  0  0  0  0  0
   -2.6637    0.6348    0.0000 C   0  0  0  0  0  0  0  0  0  0  0  0
   -1.3654    1.3861    0.0000 C   0  0  0  0  0  0  0  0  0  0  0  0
   -0.0656    0.6374    0.0000 C   0  0  0  0  0  0  0  0  0  0  0  0
   -0.0641   -0.8626    0.0000 C   0  0  0  0  0  0  0  0  0  0  0  0
    1.2357   -1.6112    0.0000 O   0  0  0  0  0  0  0  0  0  0  0  0
    2.5340   -0.8599    0.0000 C   0  0  0  0  0  0  0  0  0  0  0  0
    3.8338   -1.6086    0.0000 C   0  0  0  0  0  0  0  0  0  0  0  0
    5.1321   -0.8573    0.0000 C   0  0  0  0  0  0  0  0  0  0  0  0
    5.1306    0.6427    0.0000 C   0  0  0  0  0  0  0  0  0  0  0  0
    3.8308    1.3914    0.0000 C   0  0  0  0  0  0  0  0  0  0  0  0
    2.5325    0.6401    0.0000 C   0  0  0  0  0  0  0  0  0  0  0  0
    1.2327    1.3888    0.0000 C   0  0  0  0  0  0  0  0  0  0  0  0
    1.2312    2.8887    0.0000 O   0  0  0  0  0  0  0  0  0  0  0  0
   -1.3624   -1.6139    0.0000 C   0  0  0  0  0  0  0  0  0  0  0  0
   -1.3608   -3.1139    0.0000 O   0  0  0  0  0  0  0  0  0  0  0  0
   -2.6622   -0.8652    0.0000 C   0  0  0  0  0  0  0  0  0  0  0  0
   -3.9604   -1.6165    0.0000 O   0  0  0  0  0  0  0  0  0  0  0  0
   -5.2602   -0.8678    0.0000 C   0  0  0  0  0  0  0  0  0  0  0  0
  1  2  1  0
  2  3  1  0
  3  4  2  0
  4  5  1  0
  5  6  2  0
  6  7  1  0
  7  8  1  0
  8  9  2  0
  9 10  1  0
 10 11  2  0
 11 12  1  0
 12 13  2  0
 13 14  1  0
 14 15  2  0
  6 16  1  0
 16 17  1  0
 16 18  2  0
 18 19  1  0
 19 20  1  0
 18  3  1  0
 14  5  1  0
 13  8  1  0
M  END
>  <identifier>  (1482) 
CNP0325033.0

>  <canonical_smiles>  (1482) 
COC1=CC2=C(OC3=CC=CC=C3C2=O)C(O)=C1OC

>  <standard_inchi>  (1482) 
InChI=1S/C15H12O5/c1-18-11-7-9-12(16)8-5-3-4-6-10(8)20-14(9)13(17)15(11)19-2/h3-7,17H,1-2H3

>  <standard_inchi_key>  (1482) 
HWDHDJJDOUMUHF-UHFFFAOYSA-N

>  <name>  (1482) 
4-hydroxy-2,3-dimethoxyxanthone

>  <iupac_name>  (1482) 
4-hydroxy-2,3-dimethoxy-xanthen-9-one

>  <annotation_level>  (1482) 
5

>  <total_atom_count>  (1482) 
32

>  <heavy_atom_count>  (1482) 
20

>  <molecular_weight>  (1482) 
272.26

>  <exact_molecular_weight>  (1482) 
272.06847

>  <molecular_formula>  (1482) 
C15H12O5

>  <alogp>  (1482) 
2.67

>  <topological_polar_surface_area>  (1482) 
68.90

>  <rotatable_bond_count>  (1482) 
2

>  <hydrogen_bond_acceptors>  (1482) 
5

>  <hydrogen_bond_donors>  (1482) 
1

>  <hydrogen_bond_acceptors_lipinski>  (1482) 
5

>  <hydrogen_bond_donors_lipinski>  (1482) 
1

>  <lipinski_rule_of_five_violations>  (1482) 
0

>  <aromatic_rings_count>  (1482) 
3

>  <qed_drug_likeliness>  (1482) 
0.73

>  <formal_charge>  (1482) 
0

>  <fractioncsp3>  (1482) 
0.13

>  <number_of_minimal_rings>  (1482) 
3

>  <van_der_walls_volume>  (1482) 
229.32

>  <contains_sugar>  (1482) 
False

>  <contains_ring_sugars>  (1482) 
False

>  <contains_linear_sugars>  (1482) 
False

>  <murcko_framework>  (1482) 
O1c2ccccc2Cc3ccccc13

>  <np_likeness>  (1482) 
0.95

>  <chemical_class>  (1482) 
Benzopyrans

>  <chemical_sub_class>  (1482) 
1-benzopyrans

>  <chemical_super_class>  (1482) 
Organoheterocyclic compounds

>  <direct_parent_classification>  (1482) 
Xanthones

>  <np_classifier_pathway>  (1482) 
Shikimates and Phenylpropanoids

>  <np_classifier_superclass>  (1482) 
Xanthones

>  <np_classifier_class>  (1482) 
Plant xanthones

>  <np_classifier_is_glycoside>  (1482) 
False

>  <organisms>  (1482) 
Annona muricata|Boehmeria pannosa|Cirsium carolinianum|Dipentodon sinicus|Hypericum chinense|Hypericum japonicum|Hypericum oblongifolium|Hypericum reflexum|Kielmeyera coriacea|Kielmeyera rubriflora|Kielmeyera rupestris|Kielmeyera speciosa|Kielmeyera variabilis|Neophaeosphaeria quadriseptata|Pericome caudata|Piper lanceifolium|Trikentrion flabelliforme

>  <collections>  (1482) 
CMAUP (cCollective molecular activities of useful plants)|KNApSaCK|Latin America dataset|NPASS|NuBBEDB|Super Natural II|UNPD (Universal Natural Products Database)|WikiData Natural Products|ZINC NP

>  <dois>  (1482) 
10.1016/0031-9422(90)87123-C|10.1016/J.PHYTOCHEM.2009.08.015|10.1016/S0031-9422(00)85160-2|10.1016/S0031-9422(00)85774-X|10.1016/S0031-9422(00)97240-6|10.1016/S0031-9422(97)00731-0

>  <synonyms>  (1482) 
10527-38-5|23-dimethoxy-4-hydroxyxanthone|4-Hydroxy-2,3-dimethoxyxanthone|4-hydroxy-2,3-dimethoxyxanthen-9-one|9H-Xanthen-9-one, 4-hydroxy-2,3-dimethoxy-|AKOS030562761|CHEMBL3814641|DTXSID00327502|F92794|NSC661742

>  <cas>  (1482) 
10527-38-5

$$$$

     RDKit          2D

 21 24  0  0  0  0  0  0  0  0999 V2000
   -4.7808   -1.8811    0.0000 C   0  0  0  0  0  0  0  0  0  0  0  0
   -3.4489   -1.1913    0.0000 C   0  0  0  0  0  0  0  0  0  0  0  0
   -2.1078   -1.8634    0.0000 C   0  0  0  0  0  0  0  0  0  0  0  0
   -1.0543   -0.7957    0.0000 C   0  0  0  0  0  0  0  0  0  0  0  0
   -0.2290   -2.0482    0.0000 C   0  0  0  0  0  0  0  0  0  0  0  0
    1.2684   -1.9597    0.0000 C   0  0  0  0  0  0  0  0  0  0  0  0
    1.9405   -0.6187    0.0000 C   0  0  0  0  0  0  0  0  0  0  0  0
    3.4379   -0.5303    0.0000 C   0  0  0  0  0  0  0  0  0  0  0  0
    4.8752   -0.9593    0.0000 C   0  0  0  0  0  0  0  0  0  0  0  0
    3.2650   -2.0203    0.0000 C   0  0  0  0  0  0  0  0  0  0  0  0
    4.1100    0.8107    0.0000 C   0  0  0  0  0  0  0  0  0  0  0  0
    3.2847    2.0633    0.0000 C   0  0  0  0  0  0  0  0  0  0  0  0
    1.7873    1.9748    0.0000 C   0  0  0  0  0  0  0  0  0  0  0  0
    1.1152    0.6338    0.0000 C   0  0  0  0  0  0  0  0  0  0  0  0
    0.2899    1.8864    0.0000 C   0  0  0  0  0  0  0  0  0  0  0  0
   -0.3822    0.5453    0.0000 C   0  0  0  0  0  0  0  0  0  0  0  0
   -1.2075    1.7979    0.0000 C   0  0  0  0  0  0  0  0  0  0  0  0
   -2.7049    1.7094    0.0000 C   0  0  0  0  0  0  0  0  0  0  0  0
   -3.5302    2.9620    0.0000 O   0  0  0  0  0  0  0  0  0  0  0  0
   -3.3770    0.3684    0.0000 C   0  0  0  0  0  0  0  0  0  0  0  0
   -2.5517   -0.8841    0.0000 C   0  0  0  0  0  0  0  0  0  0  0  0
  1  2  2  0
  2  3  1  0
  4  3  1  6
  4  5  1  0
  5  6  1  0
  7  6  1  1
  7  8  1  0
  8  9  1  0
  8 10  1  0
  8 11  1  0
 11 12  1  0
 12 13  1  0
 13 14  1  0
 14 15  1  1
 14 16  1  0
 16 17  2  0
 17 18  1  0
 18 19  2  0
 20 18  1  6
 20 21  1  0
 20  2  1  0
 16  4  1  0
 21  4  1  0
 14  7  1  0
M  END
>  <identifier>  (1483) 
CNP0188675.1

>  <canonical_smiles>  (1483) 
C=C1C[C@@]23CC[C@@H]4C(C)(C)CCC[C@@]4(C)C2=CC(=O)[C@@H]1C3

>  <standard_inchi>  (1483) 
InChI=1S/C20H28O/c1-13-11-20-9-6-16-18(2,3)7-5-8-19(16,4)17(20)10-15(21)14(13)12-20/h10,14,16H,1,5-9,11-12H2,2-4H3/t14-,16-,19-,20-/m1/s1

>  <standard_inchi_key>  (1483) 
ZUFBFKCTONSXER-BGRCLHOASA-N

>  <name>  (1483) 
nan

>  <iupac_name>  (1483) 
(1~{S},4~{R},9~{R},13~{R})-5,5,9-trimethyl-14-methylene-tetracyclo[11.2.1.0^{1,10}.0^{4,9}]hexadec-10-en-12-one

>  <annotation_level>  (1483) 
4

>  <total_atom_count>  (1483) 
49

>  <heavy_atom_count>  (1483) 
21

>  <molecular_weight>  (1483) 
284.44

>  <exact_molecular_weight>  (1483) 
284.21402

>  <molecular_formula>  (1483) 
C20H28O

>  <alogp>  (1483) 
5.07

>  <topological_polar_surface_area>  (1483) 
17.07

>  <rotatable_bond_count>  (1483) 
0

>  <hydrogen_bond_acceptors>  (1483) 
1

>  <hydrogen_bond_donors>  (1483) 
0

>  <hydrogen_bond_acceptors_lipinski>  (1483) 
1

>  <hydrogen_bond_donors_lipinski>  (1483) 
0

>  <lipinski_rule_of_five_violations>  (1483) 
1

>  <aromatic_rings_count>  (1483) 
0

>  <qed_drug_likeliness>  (1483) 
0.57

>  <formal_charge>  (1483) 
0

>  <fractioncsp3>  (1483) 
0.75

>  <number_of_minimal_rings>  (1483) 
4

>  <van_der_walls_volume>  (1483) 
nan

>  <contains_sugar>  (1483) 
False

>  <contains_ring_sugars>  (1483) 
False

>  <contains_linear_sugars>  (1483) 
False

>  <murcko_framework>  (1483) 
C1=C2C3CCCCC3CCC24CCC(C1)C4

>  <np_likeness>  (1483) 
2.80

>  <chemical_class>  (1483) 
Prenol lipids

>  <chemical_sub_class>  (1483) 
Diterpenoids

>  <chemical_super_class>  (1483) 
Lipids and lipid-like molecules

>  <direct_parent_classification>  (1483) 
Kaurane diterpenoids

>  <np_classifier_pathway>  (1483) 
Terpenoids

>  <np_classifier_superclass>  (1483) 
Diterpenoids

>  <np_classifier_class>  (1483) 
Tetracyclic diterpenoids

>  <np_classifier_is_glycoside>  (1483) 
False

>  <organisms>  (1483) 
Vellozia caput-ardeae

>  <collections>  (1483) 
Latin America dataset|NuBBEDB|WikiData Natural Products

>  <dois>  (1483) 
10.1016/S0031-9422(00)84183-7

>  <synonyms>  (1483) 
12-oxo-911-dehydrokaurene

>  <cas>  (1483) 
nan

$$$$

     RDKit          2D

 31 32  0  0  0  0  0  0  0  0999 V2000
   -8.3451   -2.0447    0.0000 C   0  0  0  0  0  0  0  0  0  0  0  0
   -6.9081   -1.6145    0.0000 C   0  0  0  0  0  0  0  0  0  0  0  0
   -6.5622   -0.1549    0.0000 C   0  0  0  0  0  0  0  0  0  0  0  0
   -7.6533    0.8744    0.0000 C   0  0  0  0  0  0  0  0  0  0  0  0
   -5.1252    0.2753    0.0000 C   0  0  0  0  0  0  0  0  0  0  0  0
   -4.0342   -0.7540    0.0000 C   0  0  0  0  0  0  0  0  0  0  0  0
   -2.5972   -0.3238    0.0000 C   0  0  0  0  0  0  0  0  0  0  0  0
   -2.2513    1.1357    0.0000 C   0  0  0  0  0  0  0  0  0  0  0  0
   -3.3424    2.1651    0.0000 C   0  0  0  0  0  0  0  0  0  0  0  0
   -4.0156    3.5055    0.0000 C   0  0  0  0  0  0  0  0  0  0  0  0
   -2.1392    3.0609    0.0000 C   0  0  0  0  0  0  0  0  0  0  0  0
   -0.7619    2.4667    0.0000 C   0  0  0  0  0  0  0  0  0  0  0  0
    0.4413    3.3625    0.0000 C   0  0  0  0  0  0  0  0  0  0  0  0
    1.8187    2.7684    0.0000 C   0  0  0  0  0  0  0  0  0  0  0  0
    3.0218    3.6642    0.0000 C   0  0  0  0  0  0  0  0  0  0  0  0
    1.9928    1.2785    0.0000 C   0  0  0  0  0  0  0  0  0  0  0  0
    3.3701    0.6844    0.0000 C   0  0  0  0  0  0  0  0  0  0  0  0
    3.5443   -0.8054    0.0000 C   0  0  0  0  0  0  0  0  0  0  0  0
    4.9216   -1.3995    0.0000 C   0  0  0  0  0  0  0  0  0  0  0  0
    5.0958   -2.8894    0.0000 C   0  0  0  0  0  0  0  0  0  0  0  0
    6.1248   -0.5038    0.0000 C   0  0  0  0  0  0  0  0  0  0  0  0
    7.5021   -1.0979    0.0000 C   0  0  0  0  0  0  0  0  0  0  0  0
    8.7053   -0.2021    0.0000 C   0  0  0  0  0  0  0  0  0  0  0  0
   10.0826   -0.7962    0.0000 C   0  0  0  0  0  0  0  0  0  0  0  0
   11.2858    0.0995    0.0000 C   0  0  0  0  0  0  0  0  0  0  0  0
   10.2568   -2.2861    0.0000 C   0  0  0  0  0  0  0  0  0  0  0  0
   -4.7793    1.7349    0.0000 O   0  0  0  0  0  0  0  0  0  0  0  0
   -4.3801   -2.2136    0.0000 C   0  0  0  0  0  0  0  0  0  0  0  0
   -3.2890   -3.2430    0.0000 C   0  0  0  0  0  0  0  0  0  0  0  0
   -5.8171   -2.6438    0.0000 C   0  0  0  0  0  0  0  0  0  0  0  0
   -6.1630   -4.1034    0.0000 O   0  0  0  0  0  0  0  0  0  0  0  0
  1  2  1  0
  2  3  2  0
  3  4  1  0
  3  5  1  0
  5  6  2  0
  6  7  1  0
  7  8  1  0
  8  9  1  0
  9 10  1  1
  9 11  1  0
 11 12  1  0
 12 13  1  0
 13 14  1  0
 14 15  1  6
 14 16  1  0
 16 17  1  0
 17 18  1  0
 18 19  1  0
 19 20  1  1
 19 21  1  0
 21 22  1  0
 22 23  1  0
 23 24  1  0
 24 25  1  0
 24 26  1  0
  9 27  1  0
  6 28  1  0
 28 29  1  0
 28 30  2  0
 30 31  1  0
 30  2  1  0
 27  5  1  0
M  END
>  <identifier>  (1484) 
CNP0338526.1

>  <canonical_smiles>  (1484) 
CC1=C(C)C2=C(CC[C@@](C)(CCC[C@H](C)CCC[C@H](C)CCCC(C)C)O2)C(C)=C1O

>  <standard_inchi>  (1484) 
InChI=1S/C29H50O2/c1-20(2)12-9-13-21(3)14-10-15-22(4)16-11-18-29(8)19-17-26-25(7)27(30)23(5)24(6)28(26)31-29/h20-22,30H,9-19H2,1-8H3/t21-,22-,29-/m1/s1

>  <standard_inchi_key>  (1484) 
GVJHHUAWPYXKBD-IEOSBIPESA-N

>  <name>  (1484) 
alpha-Tocopherol

>  <iupac_name>  (1484) 
(2~{R})-2,5,7,8-tetramethyl-2-[(4~{R},8~{R})-4,8,12-trimethyltridecyl]chroman-6-ol

>  <annotation_level>  (1484) 
5

>  <total_atom_count>  (1484) 
81

>  <heavy_atom_count>  (1484) 
31

>  <molecular_weight>  (1484) 
430.72

>  <exact_molecular_weight>  (1484) 
430.38108

>  <molecular_formula>  (1484) 
C29H50O2

>  <alogp>  (1484) 
8.84

>  <topological_polar_surface_area>  (1484) 
29.46

>  <rotatable_bond_count>  (1484) 
12

>  <hydrogen_bond_acceptors>  (1484) 
2

>  <hydrogen_bond_donors>  (1484) 
1

>  <hydrogen_bond_acceptors_lipinski>  (1484) 
2

>  <hydrogen_bond_donors_lipinski>  (1484) 
1

>  <lipinski_rule_of_five_violations>  (1484) 
1

>  <aromatic_rings_count>  (1484) 
1

>  <qed_drug_likeliness>  (1484) 
0.36

>  <formal_charge>  (1484) 
0

>  <fractioncsp3>  (1484) 
0.79

>  <number_of_minimal_rings>  (1484) 
2

>  <van_der_walls_volume>  (1484) 
467.95

>  <contains_sugar>  (1484) 
False

>  <contains_ring_sugars>  (1484) 
False

>  <contains_linear_sugars>  (1484) 
False

>  <murcko_framework>  (1484) 
O1c2ccccc2CCC1

>  <np_likeness>  (1484) 
1.50

>  <chemical_class>  (1484) 
Prenol lipids

>  <chemical_sub_class>  (1484) 
Quinone and hydroquinone lipids

>  <chemical_super_class>  (1484) 
Lipids and lipid-like molecules

>  <direct_parent_classification>  (1484) 
Tocopherols

>  <np_classifier_pathway>  (1484) 
Terpenoids

>  <np_classifier_superclass>  (1484) 
Meroterpenoids

>  <np_classifier_class>  (1484) 
Prenyl quinone meroterpenoids

>  <np_classifier_is_glycoside>  (1484) 
False

>  <organisms>  (1484) 
Abelmoschus esculentus|Abramis brama|Acacia sparsiflora|Acca sellowiana|Acer spicatum|Achyranthes bidentata|Acicarpha tribuloides|Aconitum fauriei|Aconitum palmatum|Aconitum tianschanicum|Acrocarpia paniculata|Acronychia pedunculata|Actinidia chinensis|Actinidia chinensis var. deliciosa|Actinidia chinensis var. hispida|Actinidia deliciosa|Aesculus hippocastanum Hort.|Agaricus bisporus|Agathis alba|Agave shawii|Ageratina arsenei|Ajuga reptans|Alaria crispa|Albatrellus caeruleoporus|Allium ampeloprasum|Allium ascalonicum|Allium cepa|Allium fistulosum|Allium sativum|Allium schoenoprasum|Alsophila lepifera|Amanita pseudoporphyria|Amaranthus cruentus|Amaranthus hybridus|Amaranthus hypochondriacus|Amaranthus hypochondriacus L.|Ambrosia grayi|Amorpha|Amyris plumieri|Anacardium occidentale|Ananas comosus|Anarhichas lupus|Anatheca montagnei|Anethum graveolens|Angelica sinensis|Ania latifolia|Aniba rosaeodora|Annona cherimola|Annona muricata|Anodendron affine|Anodonta cygnea|Anthriscus cerefolium|Antidesma montanum var. montanum|Antidesma pentandrum var. barbatum|Apis mellifera|Apium graveolens|Aplysilla rosea|Aplysinella rhax|Arabidopsis thaliana|Arachis Hypogaea|Arachis hypogaea|Arbacia pustulosa|Arbutus unedo|Arctium lappa|Arenaria juncea|Argania spinosa|Argemone mexicana|Ariocarpus fissuratus|Aristolochia reticulata|Aristolochiaceae|Armoracia rusticana|Aronia melanocarpa|Artemisia arbuscula|Artocarpus altilis|Artocarpus heterophyllus|Asparagus officinalis|Astrantia major|Attalea speciosa|Auxenochlorella pyrenoidosa|Avena sativa|Avena sativa L.|Averrhoa carambola|Baeckea frutescens|Baeomyces roseus|Balfourodendron riedelianum|Belone belone|Benincasa hispida|Bertholletia excelsa|Beta vulgaris|Betula platyphylla var. japonica|Bidens pilosa|Bidens tripartita|Bitis arietans|Bixa Orellana|Bixa orellana L.|Bos taurus|Botryococcus braunii|Brassica alboglabra|Brassica juncea|Brassica napus|Brassica napus var. napus|Brassica oleracea|Brassica oleracea var. sabauda|Brassica rapa|Brassica ruvo|Bulbine abyssinica|Bulbine frutescens|Byrsonima crassifolia|Cacalia robusta|Cajanus cajan|Calea jamaicensis|Calea trichotoma|Calendula officinalis|Calophyllum Inophyllum|Calophyllum inophyllum L.|Calycophyllum spruceanum|Camellia sasanqua|Camellia sinensis|Campanula medium|Canarium schweinfurthii|Canavalia gladiata|Cantharellus cibarius|Capparis spinosa|Capsicum annuum|Carica papaya|Carpesium faberi|Carpinus cordata|Carthamus Tinctorius|Carthamus tinctorius|Carum carvi|Carum carvi L.|Carya illinoinensis|Caryodendron orinocense|Cassia javanica subsp. nodosa|Cedrela salvadorensis|Celtis australis|Centaurea arbutifolia|Centaurea musimomum|Centranthus ruber|Cephalaria procera|Ceratonia siliqua|Chamaemelum nobile|Changium smyrnioides|Cheilanthes mysurensis|Chelonia mydas|Chenopodium quinoa|Chlamydomonas allensworthii|Chlamydomonas reinhardtii|Chlorella pyrenoidosa|Chlorella vulgaris|Chloridium virescens|Chondrus crispus|Chrysanthemum coronarium|Cicer arietinum|Cichorium endivia|Cichorium intybus|Cinnamomum aromaticum|Cistus albidus|Citrullus lanatus|Citrus latifolia|Citrus limon|Citrus paradisi|Citrus reshni|Citrus reticulata|Citrus sinensis|Cladonia pityrea|Clathria basilana|Claviceps microcephala|Cnemidocarpa bicornuta|Cocos Nucifera|Cocos nucifera|Cocos nucifera L.|Codonopsis cordifolioidea|Codonopsis pilosula|Coffea arabica|Coffea canephora|Colocasia esculenta|Conium maculatum|Convallaria keiskei|Coprinopsis lagopus|Corchorus olitorius|Cordiera sessilis|Coregonus artedi|Coriandrum Sativum|Coriandrum sativum|Coriandrum sativum L.|Coronilla juncea|Corydalis sewerzowi|Corylus avellana|Corymbia citriodora|Crassostrea virginica|Crataegus monogyna|Crematogaster africana|Crocus sativus|Croton cortesianus|Cryptolestes pusillus|Cucumis melo|Cucumis sativus|Cucurbita|Cucurbita maxima|Cucurbita moschata|Cucurbita pepo|Cullen plicatum|Cuminum cyminum|Cupania americana|Cupania latifolia|Curcuma aromatica|Curcuma longa|Cyathea lepifera|Cybister confusus|Cylas formicarius|Cynara cardunculus var. scolymus|Cynoctonum wilfordii|Cyprinus carpio|Cystophora moniliformis|Cytisus ciliatus|Dacrycarpus imbricatus|Dahlstedtia pentaphylla|Daphne gnidium|Daucus carota|Delisea pulchra|Delphinapterus leucas|Delphinium Ajacis|Delphinium ajacis L.|Dichroa febrifuga|Dictyota dichotoma var. intricata|Dioscorea alata|Diospyros kaki|Diospyros maritima|Dirca occidentalis|Dolichandrone crispa|Domohinea perrieri|Doris montereyensis|Dorstenia brasiliensis|Dorstenia heringeri|Dracaena mannii|Drypetes littoralis|Duddingtonia flagrans|Edgeworthia gardneri|Egregia menziesii|Elaeis Guineensis|Elaeis guineensis Jacq.|Eleutherococcus senticosus|Entada scandens|Ephedra equisetina|Eragrostis tef|Erignathus barbatus|Erioderma tomentosum|Erium villosum|Eruca vesicaria|Erylus nobilis|Erysimum crepidifolium|Esox lucius|Espeletia uribei|Eucalyptus citriodora|Eucalyptus globulus|Eucalyptus regnans|Euphausia superba|Euphorbia characias|Euphorbia glareosa|Euphorbia iberica|Eurya japonica|Euscaphis japonica|Evasterias troschelii|Evodiopanax innovans|Fagopyrum esculentum|Feijoa sellowiana|Ferula communis|Ficus carica|Ficus pumila|Flammulina velutipes|Flemingia philippinensis|Foeniculum Vulgare|Foeniculum vulgare L.|Fossombronia alaskana|Fragaria x ananassa|Garcinia cambogia|Genista sessilifolia|Gevuina avellana Mol.|Globularia alypum|Glycine max|Gomphostemma parviflorum|Grifola frondosa|Grindelia perennis|Guarea kunthiana|Hedera helix|Helianthus annuus|Helianthus tuberosus|Helipterum propinquum|Hellenia speciosa|Hemerocallis fulva|Hertia cheirifolia|Hevea Brasiliensis|Hevea brasiliensis Mull.Arg.|Hibiscus Syriacus|Hibiscus sabdariffa|Hibiscus syriacus|Hippobroma longiflora|Hippoglossus hippoglossus|Hippophae rhamnoides|Homo sapiens|Hopea jucunda|Hordeum Vulgare|Hordeum vulgare|Hordeum vulgare L.|Humulus lupulus|Hypericum ericoides|Hypericum japonicum|Hypericum perfoliatum|Hypericum perforatum|Hypericum tomentosum|Ictalurus punctatus|Iphiona grantioides|Ipomoea batatas|Juglans Regia|Juglans nigra|Juglans regia|Juglans regia L.|Kadsura philippinensis|Khaya grandifoliola|Koanophyllon albicaule|Koanophyllon albicaulis|Labisia pumila|Lablab purpureus|Lactuca sativa|Lambertella corni|Lecidea speirodes|Lens culinaris|Lepidium sativum|Lepidorhinus squamosus|Lepus timidus|Licaria chrysophylla|Limanda limanda|Limnodynastes interioris|Linum usitatissimum|Litchi Chinensis|Litchi chinensis|Litchi chinensis Sonn.|Litsea acutivena|Lobelia urens|Lobophytum denticulatum|Lonchocarpus urucu|Lota lota|Luffa aegyptiaca|Lychnis coronaria|Machaerium kuhlmannii|Machilus zuihoensis|Madia sativa|Malpighia emarginata|Malus pumila|Mangifera indica|Manihot esculenta|Mannia fragrans|Medicago sativa|Melanogrammus aeglefinus|Melissa officinalis|Merlangius merlangus|Mesua beccariana|Micromonas pusilla|Millettia pinnata|Momordica charantia|Monteverdia aquifolium|Monteverdia ilioppjfeowneviufheiuwfew fgr|Monteverdia truncata|Moraceae|Morus alba|Morus nigra|Musa X paradisiaca|Musa acuminata|Myristica argentea|Myristica fragrans|Myrtus tomentosa|Mytilus galloprovincialis|Nasturtium officinale|Nauclea orientalis|Neolitsea hiiranensis|Nepeta tuberosa|Nephrops norvegicus|Nephthea armata|Nicotiana Tabacum|Nicotiana tabacum L.|Nuphar lutea|Ocimum basilicum|Octopus vulgaris|Oenothera biennis|Olea europaea|Oncorhynchus gorbuscha|Oncorhynchus keta|Oncorhynchus kisutch|Oncorhynchus mykiss|Oncorhynchus nerka|Oncorhynchus tshawytscha|Onoseris alata|Origanum dictamnus|Origanum majorana|Origanum onites|Origanum vulgare|Ormosia hosiei|Ornithoglossum viride|Oryza Sativa|Oryza sativa|Oryza sativa L.|Ovatus malisuctus|Pachybasium candidum|Pachyrhizus erosus|Paeonia lactiflora|Panax ginseng|Panicum miliaceum|Papaver somniferum|Parthenium bipinnatifidum|Passiflora edulis|Pastinaca sativa|Perilla frutescens|Persea americana|Persicaria stagnina|Pertusaria truncata|Petasites laevigatus|Petroselinum crispum|Petrosia corticata|Phaleria cumingii|Phaseolus lunatus|Phaseolus vulgaris|Phellodendron amurense var. wilsonii|Phillyrea angustifolia|Phoca largha|Phoenix dactylifera|Phyllostachys edulis|Physalis philadelphica|Phytolacca americana|Pimenta dioica|Pinguipes brasilianus|Pinna nobilis|Pinus halepensis|Piper acutifolium|Piper aduncum|Piper hoffmannseggianum|Piper nigrum|Pistacia vera|Pisum sativum|Pittosporum tobira|Pittosporum undulatum|Plumbago pulchella|Plumeria alba|Pocillopora eydouxi|Polygala ruwenzoriensis|Polygonum bistorta|Polypodium decumanum|Porphyra laciniata|Portulaca oleracea|Pouteria sapota|Prunus armeniaca|Prunus avium|Prunus cerasus|Prunus domestica|Prunus dulcis|Prunus mandshurica|Prunus persica|Prunus sibirica|Prunus virginiana|Psidium friedrichsthalianum|Psidium guajava|Psilotum nudum|Psophocarpus tetragonolobus|Punica granatum|Pycnandra acuminata|Pyrus communis|Pyrus pyrifolia|Quercus ilex|Quercus macrocarpa|Raphanus sativus|Raputia simulans|Reinhardtius hippoglossoides|Rhamnus alaternus|Rheum rhabarbarum|Rhizobium etli|Rhododendron formosanum|Rhodomyrtus tomentosa|Ribes nigrum|Ribes rubrum|Ribes uva-crispa|Rosa hybrid cultivar|Rosmarinus Officinalis|Rosmarinus officinalis|Rosmarinus officinalis L.|Rubia tetragona|Rubus idaeus|Rubus loganobaccus|Rubus spectabilis|Rubus ursinus|Rumex conglomeratus|Saccharina japonica|Salvia clinopodioides|Salvia hispanica|Salvia miltiorrhiza|Salvia officinalis|Sander lucioperca|Santalum album|Sarcotragus spinosulus|Satureja thymbra|Saururus cernuus|Schisandra Chinensis|Schisandra bicolor var. tuberculata|Schisandra chinensis|Schizanthus tricolor|Scorzonera hispanica|Scytonema ocellatum|Sebastes alutus|Sebertia acuminata|Secale cereale|Secale cereale L.|Sechium edule|Senecio desfontainei|Senecio tauricola|Senecio tauricolus|Senecio zoellneri|Senegalia gaumeri|Sesamum orientale|Silene inflata|Silybum marianum|Sinapis alba|Smilax aspera|Solanum diflorum|Solanum lycopersicum|Solanum melongena|Solanum quitoense|Solanum tuberosum|Sonchus arvensis|Sonchus asper|Sonchus oleraceus|Sordaria macrospora|Sorghum bicolor|Sphaeranthus confertifolius|Spinacia oleracea|Squalus acanthias|Staehelina dubia|Staehelina fruticosa|Staphylea japonica|Stemona tuberosa|Stenodus leucichthys|Stenotomus chrysops|Stephanitis rhododendri|Streptomyces|Streptomyces fradiae|Streptomyces luteosporeus|Streptomyces pristinaespiralis|Streptomyces sp. R56-07|Sus scrofa|Sus scrofa domesticus|Syzygium aromaticum|Syzygium jambos|Tagetes lucida|Tamarindus indica|Taraxacum borealisinense|Taraxacum coreanum|Taraxacum mongolicum|Taraxacum officinale|Taraxacum platycarpum|Terminalia chebula|Teucrium leucocladum|Theobroma cacao|Theobroma grandiflorum|Thesium humile|Thunnus albacares|Thymus vulgaris|Tilia vulgaris|Tithonia pedunculata|Trachycarpus fortunei|Trapa bicornis|Trichilia claussenii|Trichilia lepidota|Triticosecale rimpaui|Triticum Aestivum|Triticum aestivum|Triticum spelta|Triticum turanicum|Undaria pinnatifida|Uragoga ipecacuanha|Uvaria pandensis|Vaccinium alaskaense|Vaccinium corymbosum|Vaccinium macrocarpon|Vaccinium macrocarpon Aiton|Vaccinium myrtillus|Vaccinium vitis-idaea|Vallaris heynei|Vellozia streptophylla|Vicia faba|Vigna radiata|Vigna unguiculata|Virola surinamensis|Viscum album|Viscum coloratum|Vitex rotundifolia|Vitis Vinifera|Vitis vinifera|Vitis vinifera L.|Walsura pinnata|Walsura yunnanensis|Werneria decora|West African Pepper|Xiphias gladius|Xylocarpus granatum|Xyris indica|Zataria multiflora|Zea Mays|Zea mays|Zea mays L.|Zingiber officinale|Ziziphus jujuba|Zygosaccharomyces rouxii|asparagus|chum salmon|common myrtle|common sunflower|garlic|maize|sesame|soybean|tomato

>  <collections>  (1484) 
ANPDB|Australian natural products|CMAUP (cCollective molecular activities of useful plants)|ChEBI NPs|DrugBankNP|ETM (Ethiopian Traditional Medicine) DB|Exposome-explorer|FooDB|KNApSaCK|Latin America dataset|NANPDB (Natural Products from Northern African Sources)|NAPRORE-CR|NPACT|NPASS|NPEdia|NuBBEDB|Phyto4Health|Super Natural II|TCMDB-Taiwan (Traditional Chinese Medicine database)|TIPdb (database of Taiwan indigenous plants)|VietHerb|WikiData Natural Products

>  <dois>  (1484) 
10.1002/(SICI)1097-0010(199909)79:12<1620::AID-JSFA410>3.0.CO;2-G|10.1002/CHIN.200310223|10.1002/CHIN.200340213|10.1002/CHIN.200603175|10.1002/EJLT.200800146|10.1002/EJLT.201000369|10.1002/HLCA.19930760409|10.1002/HLCA.200900220|10.1002/JCCS.200000074|10.1002/JCCS.200000152|10.1002/JCCS.200700071|10.1002/JCCS.200700187|10.1002/MRC.1844|10.1002/PCA.2800060107|10.1002/PTR.3346|10.1002/ejlt.200800146|10.1002/ejlt.201000369|10.1007/BF00713311|10.1007/BF01201582|10.1007/BF01201765|10.1007/BF02236284|10.1007/BF02536726|10.1007/BF02542606|10.1007/BF02545312|10.1007/S00299-017-2236-7|10.1007/S10600-014-0947-3|10.1007/S10600-014-1165-8|10.1007/S11306-016-1051-4|10.1007/S11746-003-0652-X|10.1007/S11746-007-1178-6|10.1007/S11746-997-0093-1|10.1007/s10600-011-9950-0|10.1007/s11130-020-00842-y|10.1007/s11746-997-0093-1|10.1007/s13197-017-2739-9|10.1016/0031-9422(88)80478-3|10.1016/0031-9422(91)85151-O|10.1016/0031-9422(92)80479-X|10.1016/0031-9422(92)83462-8|10.1016/0031-9422(95)00969-8|10.1016/0165-1218(84)90058-2|10.1016/0955-2863(94)90086-8|10.1016/B978-0-12-394294-4.00006-7|10.1016/J.ARABJC.2013.10.019|10.1016/J.BSE.2003.12.009|10.1016/J.FBP.2011.10.004|10.1016/J.FOODCHEM.2006.08.014|10.1016/J.FOODCHEM.2008.11.094|10.1016/J.FOODCHEM.2009.10.023|10.1016/J.FOODCHEM.2010.08.043|10.1016/J.FOODCHEM.2012.08.025|10.1016/J.FOODCHEM.2014.10.145|10.1016/J.JCHROMB.2013.08.025|10.1016/J.JFCA.2005.08.001|10.1016/J.JFCA.2010.07.003|10.1016/J.JFMA.2013.08.003|10.1016/J.LFS.2004.10.055|10.1016/J.PHYTOCHEM.2004.06.018|10.1016/J.PHYTOCHEM.2004.06.038|10.1016/J.PHYTOCHEM.2005.03.020|10.1016/J.PHYTOCHEM.2007.07.001|10.1016/J.PHYTOCHEM.2011.01.006|10.1016/J.PHYTOCHEM.2011.06.014|10.1016/J.TET.2008.09.054|10.1016/S0021-9673(98)00049-1|10.1016/S0031-9422(00)00118-7|10.1016/S0031-9422(00)00249-1|10.1016/S0031-9422(00)00250-8|10.1016/S0031-9422(00)81839-7|10.1016/S0031-9422(00)83478-0|10.1016/S0031-9422(00)84730-5|10.1016/S0031-9422(00)94840-4|10.1016/S0031-9422(00)97995-0|10.1016/S0031-9422(01)00172-8|10.1016/S0031-9422(97)00105-2|10.1016/S0031-9422(97)00497-4|10.1016/S0308-8146(01)00152-2|10.1016/S0308-8146(99)00260-5|10.1016/S0367-326X(01)00305-7|10.1016/S0960-894X(98)00528-9|10.1016/j.arabjc.2013.10.019|10.1016/j.bse.2009.12.010|10.1016/j.chroma.2010.12.001|10.1016/j.foodchem.2009.10.023|10.1016/j.heliyon.2019.e02462|10.1016/j.jchromb.2013.08.025|10.1016/j.jfca.2005.08.001|10.1021/ACS.JAFC.6B01323|10.1021/ACS.JAFC.8B06037|10.1021/JF00109A010|10.1021/JF011001T|10.1021/JF020421V|10.1021/JF0711690|10.1021/JF073087H|10.1021/JF800681A|10.1021/JF9503725|10.1021/JF950732O|10.1021/JF960524B|10.1021/JF960735G|10.1021/NP030054X|10.1021/NP050545C|10.1021/NP070650H|10.1021/NP200734P|10.1021/NP990230V|10.1021/acs.jnatprod.6b01100|10.1021/acs.jnatprod.7b00035|10.1021/acs.jnatprod.8b00952|10.1021/acsfoodscitech.1c00262|10.1021/jf0706979|10.1021/jf071801p|10.1021/jf900210z|10.1021/jf950732o|10.1021/np0100946|10.1021/np0101346|10.1021/np020018i|10.1021/np030034v|10.1021/np030054x|10.1021/np0302854|10.1021/np070351s|10.1021/np078006q|10.1021/np200734p|10.1021/np3007638|10.1021/np990204x|10.1021/np990230v|10.1021/np9906121|10.1038/NBT.2488|10.1038/nbt.2488|10.1038/s41598-022-14381-w|10.1042/BJ0300890|10.1046/J.1467-2494.2000.00034.X|10.1051/CTV/20163101031|10.1055/S-2003-37024|10.1055/S-2006-960187|10.1055/S-2006-961933|10.1055/S-2007-981551|10.1071/CH9930153|10.1080/07315724.1992.10718240|10.1080/09540100903203004|10.1080/09637480701539484|10.1080/14786419.2014.883396|10.1093/JN/131.10.2606|10.1093/JXB/ERZ086|10.1093/jn/133.9.2812|10.1097/00005176-199007000-00017|10.1097/00008469-200302000-00011|10.1105/TPC.15.00395|10.1111/1750-3841.15463|10.1111/J.1399-3054.1985.TB02321.X|10.1111/TPJ.12747|10.1111/j.1753-4887.2012.00478.x|10.1111/tpj.12747|10.1155/2017/2840718|10.1155/2022/4181656|10.1177/1934578X1200700132|10.1179/135100007X200245|10.1201/B14669-29|10.1212/WNL.47.4.1037|10.1212/wnl.47.4.1037|10.1248/CPB.33.3834|10.1248/CPB.43.1849|10.1248/CPB.46.1647|10.1248/CPB.53.1037|10.1300/J044V03N02_08|10.1515/ZNC-1993-11-1212|10.1515/ZNC-2002-9-1002|10.1515/ZNC-2003-7-813|10.1515/hf.1999.079|10.1515/znc-2016-0003|10.1590/S0103-50531997000300013|10.1590/S0103-50531997000500016|10.1590/S0103-50531999000200009|10.1590/S0103-50531999000600017|10.1590/S0103-50532002000300014|10.1590/S0103-50532004000500025|10.17660/ActaHortic.2003.610.16|10.3109/09637489609031878|10.3109/10915819309140647|10.3136/NSKKK.48.606|10.3390/METABO4030599|10.3390/MOLECULES14125281|10.3390/MOLECULES25092099|10.3390/molecules19022684|10.3390/molecules23123219|10.3390/molecules24162945|10.3390/molecules24183212|10.3390/molecules25010011|10.3390/molecules27020483|10.3390/nu11061242|10.3390/plants11111394|10.3987/COM-98-S12|10.4268/CJCMM20140519|10.48141/SBJCHEM.V7.N8.1999.52_1999.PDF|10.5650/JOS1956.42.1003|10.5650/jos.ess19091|10.5650/jos.ess20128|10.5650/jos.ess21076

>  <synonyms>  (1484) 
(+)--Tocopherol; D--Tocopherol|(+)-ALPHA-TOCOPHEROL-|(+)-a-Tocopherol|(+)-alpha-Tocopherol|(+-)-Med-E|(2R)-2,5,7,8-TETRAMETHYL-2-[(4R,8R)-4,8,12-TRIMETHYLTRIDECYL]CHROMAN-6-OL|(2R)-2,5,7,8-tetramethyl-2-[(4R,8R)-4,8,12-trimethyltridecyl]-3,4-dihydro-2H-chromen-6-ol|(2R)-2-((4R,8R)-4,8,12-trimethyltridecyl)-2,5,7,8-tetramethylchroman-6-ol|(2R)-3,4-Dihydro-2,5,7,8-tetramethyl-2-[(4R,8R)-4,8,12-trimethyltridecyl]-2H-1-benzopyran-6-ol|(2R*(4R*,8R*))-(1)-3,4-Dihydro-2,5,7,8-tetramethyl-2-(4,8,12-trimethyltridecyl)-2H-benzopyran-6-ol|(2R,4'R,8'R)-a-Tocopherol|(R)-2,5,7,8-Tetramethyl-2-((4R,8R)-4,8,12-trimethyltridecyl)chroman-6-ol|(R,R,R)-alpha-Tocopherol|(all-R)-alpha-Tocopherol|.ALPHA.-TOCOPHEROL [MI]|.ALPHA.-TOCOPHEROL, D-|07AA93F0-3339-4EEC-B50B-ADB70F657087|1406-18-4|18920-62-2|2,5,7,8-Tetramethyl-2-(4',8',12'-trimethyltridecyl)-6-chromanol|2074-53-5|2H-1-Benzopyran-6-ol, 3,4-dihydro-2,5,7,8-tetramethyl-2-(4,8,12-trimethyltridecyl)-, (2R-(2R*(4R*,8R*)))-|2H-1-Benzopyran-6-ol, 3,4-dihydro-2,5,7,8-tetramethyl-2-[(4R,8R)-4,8,12-trimethyltridecyl]-, (2R)-|5,7,8-Trimethyltocol|59-02-9|AKOS004910417|ALPHA TOCOPHEROL (USP-RS)|ALPHA-TOCOPHEROL [HSDB]|ALPHA-TOCOPHEROL, UNSPECIFIED FORM|AS-13990|Acne C-Patch|Almefrol|Alpha-tocopherols|Antisterility vitamin|Aquasol E|BDBM50458513|BIDD:ER0562|BIDD:PXR0174|BPBio1_000362|BSPBio_000328|C02477|C29H50O2 (D-alpha-tocopherol)|CAS-59-02-9|CCRIS 3588|CHEBI:18145|CHEMBL47|CONTROX VP|COVI-OX T 30P|COVI-OX T 50|COVIREL|CS-8161|Covitol F 1000|D-ALPHA TOCOPHEROL [MART.]|D-alpha tocopherol|D-alpha-Tocopherol|DB00163|DL--Tocopherol|DTXCID201355|DTXCID706339|DTXSID0026339|DTXSID8021355|Denamone|E 307|E 307 (tocopherol)|E Prolin|E-307A|E-MIX 40A|E-Vimin|E307|EC 200-412-2|EINECS 200-412-2|EINECS 215-798-8|EINECS 218-197-9|EN300-7417123|EPROLIN-S|Emipherol|Endo E|Envirose 100|Eprolin|Eprolin S|Epsilan|Esorb|Etamican|Etavit|Evion|Evitaminum|F82497|H4N855PNZ1|HMS2096A10|HMS2231G08|HSDB 2556|HY-N0683|INS NO.307A|INS-307A|Ilitia|J203.513H|J24.260H|LMPR02020001|Lan-E|MFCD00006848|MFCD00072045|MLS001066396|MLS001335981|Med-E|N9PR3490H9|NCGC00016688-02|NCGC00142625-01|NCGC00259630-01|NS00069772|NSC 20812|NSC 82623|NSC-20812|Palmvtee|Pheryl-E|Phytogermine|Prestwick3_000404|Prestwick_653|Profecundin|Q-201932|Q158348|R,r,r-.alpha.-tocopherol|RIKKI N 70|RRR-alpha-tocopherol|Rhenogran Ronotec 50|SCHEMBL3097|SMR000471844|Spavit E|Syntopherol|T1539_SIGMA|T2309|TENOX GT|TOCOPHEROL|Tenox GT 1|Tocopherol (R,S)|Tocopherol alpha|Tocopherol, d-alpha-|Tokopharm|Tox21_110563|Tox21_113208|Tox21_202081|UNII-H4N855PNZ1|UNII-N9PR3490H9|VITAMIN E|VIV|Vascuals|Vi-E|Viprimol|Vita plus E|Vita-Jec Essential E-300|Vitamin E (D-form)|Vitamin E [USP]|Vitamin E alpha|Vitamin E, liquid|Vitamin Ea|Vitamin e d-alpha|Vitamin-E|Vitaplex E|Vitayonon|Viteolin|Viterra E|W-107596|W-109164|Waynecomycin|Z2235811339|\u221a\u00e9\u00ac\u00b1-tocopherol|_-tocopherol|a-Tocopherol|a-Vitamin E|all-rac-alpha-Tocopherolum|alpha Tocopherol|alpha-TOCOPHEROL (II)|alpha-Tocopherol acid|alpha-Tocopherol, D-|alpha-Tokoferol|alpha-Vitamin E|alpha-delta-Tocopherol|bmse000600|d-a-tocopherol|delta-alpha-tocopherol|dl-a-Tocopherol|ido-E|rel-(+)--Tocopherol; rel-D--Tocopherol|rel--Vitamin E|rel-alpha-Vitamin E|vitamin E

>  <cas>  (1484) 
59-02-9|2074-53-5|1406-18-4|18920-62-2

$$$$

     RDKit          2D

 23 23  0  0  0  0  0  0  0  0999 V2000
  -11.5530    0.7997    0.0000 C   0  0  0  0  0  0  0  0  0  0  0  0
  -10.2926   -0.0135    0.0000 C   0  0  0  0  0  0  0  0  0  0  0  0
   -8.9581    0.6714    0.0000 C   0  0  0  0  0  0  0  0  0  0  0  0
   -7.6977   -0.1418    0.0000 C   0  0  0  0  0  0  0  0  0  0  0  0
   -6.3632    0.5431    0.0000 C   0  0  0  0  0  0  0  0  0  0  0  0
   -5.1028   -0.2701    0.0000 C   0  0  0  0  0  0  0  0  0  0  0  0
   -3.7683    0.4148    0.0000 C   0  0  0  0  0  0  0  0  0  0  0  0
   -2.5078   -0.3984    0.0000 C   0  0  0  0  0  0  0  0  0  0  0  0
   -2.5819   -1.8966    0.0000 O   0  0  0  0  0  0  0  0  0  0  0  0
   -1.1734    0.2865    0.0000 C   0  0  0  0  0  0  0  0  0  0  0  0
    0.0871   -0.5267    0.0000 C   0  0  0  0  0  0  0  0  0  0  0  0
    0.0130   -2.0249    0.0000 O   0  0  0  0  0  0  0  0  0  0  0  0
    1.4215    0.1583    0.0000 C   0  0  0  0  0  0  0  0  0  0  0  0
    2.6820   -0.6550    0.0000 C   0  0  0  0  0  0  0  0  0  0  0  0
    4.0165    0.0300    0.0000 C   0  0  0  0  0  0  0  0  0  0  0  0
    4.0905    1.5281    0.0000 C   0  0  0  0  0  0  0  0  0  0  0  0
    5.4250    2.2131    0.0000 C   0  0  0  0  0  0  0  0  0  0  0  0
    6.6854    1.3999    0.0000 C   0  0  0  0  0  0  0  0  0  0  0  0
    8.0199    2.0848    0.0000 O   0  0  0  0  0  0  0  0  0  0  0  0
    6.6114   -0.0983    0.0000 C   0  0  0  0  0  0  0  0  0  0  0  0
    7.8718   -0.9115    0.0000 O   0  0  0  0  0  0  0  0  0  0  0  0
    7.7977   -2.4097    0.0000 C   0  0  0  0  0  0  0  0  0  0  0  0
    5.2769   -0.7833    0.0000 C   0  0  0  0  0  0  0  0  0  0  0  0
  1  2  1  0
  2  3  1  0
  3  4  1  0
  4  5  1  0
  5  6  1  0
  6  7  1  0
  7  8  1  0
  8  9  1  1
  8 10  1  0
 10 11  1  0
 11 12  2  0
 11 13  1  0
 13 14  1  0
 14 15  1  0
 15 16  2  0
 16 17  1  0
 17 18  2  0
 18 19  1  0
 18 20  1  0
 20 21  1  0
 21 22  1  0
 20 23  2  0
 23 15  1  0
M  END
>  <identifier>  (1485) 
CNP0238417.1

>  <canonical_smiles>  (1485) 
CCCCCCC[C@H](O)CC(=O)CCC1=CC=C(O)C(OC)=C1

>  <standard_inchi>  (1485) 
InChI=1S/C19H30O4/c1-3-4-5-6-7-8-16(20)14-17(21)11-9-15-10-12-18(22)19(13-15)23-2/h10,12-13,16,20,22H,3-9,11,14H2,1-2H3/t16-/m0/s1

>  <standard_inchi_key>  (1485) 
BCIWKKMTBRYQJU-INIZCTEOSA-N

>  <name>  (1485) 
8-Gingerol

>  <iupac_name>  (1485) 
(5~{S})-5-hydroxy-1-(4-hydroxy-3-methoxy-phenyl)dodecan-3-one

>  <annotation_level>  (1485) 
5

>  <total_atom_count>  (1485) 
53

>  <heavy_atom_count>  (1485) 
23

>  <molecular_weight>  (1485) 
322.45

>  <exact_molecular_weight>  (1485) 
322.21441

>  <molecular_formula>  (1485) 
C19H30O4

>  <alogp>  (1485) 
4.01

>  <topological_polar_surface_area>  (1485) 
66.76

>  <rotatable_bond_count>  (1485) 
12

>  <hydrogen_bond_acceptors>  (1485) 
4

>  <hydrogen_bond_donors>  (1485) 
2

>  <hydrogen_bond_acceptors_lipinski>  (1485) 
4

>  <hydrogen_bond_donors_lipinski>  (1485) 
2

>  <lipinski_rule_of_five_violations>  (1485) 
0

>  <aromatic_rings_count>  (1485) 
1

>  <qed_drug_likeliness>  (1485) 
0.57

>  <formal_charge>  (1485) 
0

>  <fractioncsp3>  (1485) 
0.63

>  <number_of_minimal_rings>  (1485) 
1

>  <van_der_walls_volume>  (1485) 
327.41

>  <contains_sugar>  (1485) 
False

>  <contains_ring_sugars>  (1485) 
False

>  <contains_linear_sugars>  (1485) 
False

>  <murcko_framework>  (1485) 
c1ccccc1

>  <np_likeness>  (1485) 
1.39

>  <chemical_class>  (1485) 
Phenols

>  <chemical_sub_class>  (1485) 
Methoxyphenols

>  <chemical_super_class>  (1485) 
Benzenoids

>  <direct_parent_classification>  (1485) 
Gingerols

>  <np_classifier_pathway>  (1485) 
nan

>  <np_classifier_superclass>  (1485) 
nan

>  <np_classifier_class>  (1485) 
nan

>  <np_classifier_is_glycoside>  (1485) 
False

>  <organisms>  (1485) 
Aframomum melegueta|Zingiber Officinale|Zingiber aromaticum|Zingiber officinale|Zingiber officinale ROSC.|Zingiber sp.|Zingiberaceae

>  <collections>  (1485) 
Australian natural products|CMAUP (cCollective molecular activities of useful plants)|ETM (Ethiopian Traditional Medicine) DB|InflamNat|KNApSaCK|Latin America dataset|NAPRORE-CR|NPACT|NPASS|NuBBEDB|PhytoLab phyproof® Reference Substances|Super Natural II|TCMDB-Taiwan (Traditional Chinese Medicine database)|TIPdb (database of Taiwan indigenous plants)|VietHerb|WikiData Natural Products

>  <dois>  (1485) 
10.1002/PTR.1335|10.1016/0031-9422(91)80085-F|10.1016/J.JCHROMB.2012.07.013|10.1016/J.PHYTOCHEM.2004.06.008|10.1016/J.PHYTOCHEM.2005.08.001|10.1016/S0021-9673(97)01013-3|10.1016/S0031-9422(02)00618-0|10.1016/j.jchromb.2012.07.013|10.1016/j.jep.2009.10.004|10.1021/JF00069A027|10.1021/JF9027443|10.1021/JF970948L|10.1021/jf050435b|10.1021/np300375t|10.1055/S-2005-871265|10.1080/01483919008049223|10.1111/J.1365-2621.1986.TB13124.X|10.1111/J.1365-2621.1994.TB14710.X|10.1186/1472-6882-7-44|10.1248/BPB.28.495|10.1248/CPB.38.430|10.1248/YAKUSHI1947.110.12_936|10.1248/YAKUSHI1947.112.9_645|10.1248/YAKUSHI1947.113.10_712|10.3390/pr10040691

>  <synonyms>  (1485) 
(5s)-5-hydroxy-1-(4-hydroxy-3-methoxyphenyl) dodecan-3-one|(8)-Gingerol|(S)-5-Hydroxy-1-(4-hydroxy-3-methoxyphenyl)-3-dodecanone|(S)-8-Gingerol|23513-08-8|3,3-DIMETHOXYESTR-5(10)-ENE-17BOL|3-Dodecanone, 5-hydroxy-1-(4-hydroxy-3-methoxyphenyl)-, (S)-(+)-|8-GINGEROL (CONSTITUENT OF GINGER)|8-Gingerol|AC-34322|AKOS025311538|AS-71132|BDBM50317426|C17495|CCG-267732|CHEBI:81133|CHEMBL1095671|CS-0008980|DTXCID50100569|DTXSID20178078|HMS3887A05|HY-N0447|LB0IJB138K|MFCD00877794|Q-100299|Q27155091|SCHEMBL16488703|UNII-LB0IJB138K|Zingiberaceae|[8]-Gingerol|[8]-Gingerol, >=95% (HPLC)|[8]-Gingerol, analytical standard|s9434

>  <cas>  (1485) 
23513-08-8

$$$$

     RDKit          2D

 16 16  0  0  0  0  0  0  0  0999 V2000
    1.7774   -3.2983    0.0000 C   0  0  0  0  0  0  0  0  0  0  0  0
    2.3390   -1.9075    0.0000 C   0  0  0  0  0  0  0  0  0  0  0  0
    1.4153   -0.7256    0.0000 C   0  0  0  0  0  0  0  0  0  0  0  0
    2.7396   -0.0212    0.0000 C   0  0  0  0  0  0  0  0  0  0  0  0
    0.4118   -1.8405    0.0000 C   0  0  0  0  0  0  0  0  0  0  0  0
   -1.0554   -1.5289    0.0000 C   0  0  0  0  0  0  0  0  0  0  0  0
   -1.5192   -0.1024    0.0000 C   0  0  0  0  0  0  0  0  0  0  0  0
   -2.9865    0.2093    0.0000 C   0  0  0  0  0  0  0  0  0  0  0  0
   -3.2981   -1.2580    0.0000 C   0  0  0  0  0  0  0  0  0  0  0  0
   -2.6749    1.6765    0.0000 C   0  0  0  0  0  0  0  0  0  0  0  0
   -4.4538    0.5209    0.0000 O   0  0  0  0  0  0  0  0  0  0  0  0
   -0.5157    1.0125    0.0000 C   0  0  0  0  0  0  0  0  0  0  0  0
    0.9516    0.7009    0.0000 C   0  0  0  0  0  0  0  0  0  0  0  0
    1.9551    1.8158    0.0000 C   0  0  0  0  0  0  0  0  0  0  0  0
    1.4913    3.2423    0.0000 C   0  0  0  0  0  0  0  0  0  0  0  0
    3.4224    1.5042    0.0000 C   0  0  0  0  0  0  0  0  0  0  0  0
  1  2  2  0
  2  3  1  0
  3  4  1  1
  3  5  1  0
  5  6  1  0
  6  7  1  0
  7  8  1  1
  8  9  1  0
  8 10  1  0
  8 11  1  0
  7 12  1  0
 12 13  1  0
 13 14  1  1
 14 15  2  0
 14 16  1  0
 13  3  1  0
M  END
>  <identifier>  (1486) 
CNP0192070.1

>  <canonical_smiles>  (1486) 
C=C[C@]1(C)CC[C@@H](C(C)(C)O)C[C@H]1C(=C)C

>  <standard_inchi>  (1486) 
InChI=1S/C15H26O/c1-7-15(6)9-8-12(14(4,5)16)10-13(15)11(2)3/h7,12-13,16H,1-2,8-10H2,3-6H3/t12-,13+,15-/m1/s1

>  <standard_inchi_key>  (1486) 
GFJIQNADMLPFOW-VNHYZAJKSA-N

>  <name>  (1486) 
Elemol

>  <iupac_name>  (1486) 
2-[(1~{R},3~{S},4~{S})-3-isopropenyl-4-methyl-4-vinyl-cyclohexyl]propan-2-ol

>  <annotation_level>  (1486) 
5

>  <total_atom_count>  (1486) 
42

>  <heavy_atom_count>  (1486) 
16

>  <molecular_weight>  (1486) 
222.37

>  <exact_molecular_weight>  (1486) 
222.19837

>  <molecular_formula>  (1486) 
C15H26O

>  <alogp>  (1486) 
3.94

>  <topological_polar_surface_area>  (1486) 
20.23

>  <rotatable_bond_count>  (1486) 
3

>  <hydrogen_bond_acceptors>  (1486) 
1

>  <hydrogen_bond_donors>  (1486) 
1

>  <hydrogen_bond_acceptors_lipinski>  (1486) 
1

>  <hydrogen_bond_donors_lipinski>  (1486) 
1

>  <lipinski_rule_of_five_violations>  (1486) 
0

>  <aromatic_rings_count>  (1486) 
0

>  <qed_drug_likeliness>  (1486) 
0.72

>  <formal_charge>  (1486) 
0

>  <fractioncsp3>  (1486) 
0.73

>  <number_of_minimal_rings>  (1486) 
1

>  <van_der_walls_volume>  (1486) 
242.94

>  <contains_sugar>  (1486) 
False

>  <contains_ring_sugars>  (1486) 
False

>  <contains_linear_sugars>  (1486) 
False

>  <murcko_framework>  (1486) 
C1CCCCC1

>  <np_likeness>  (1486) 
3.03

>  <chemical_class>  (1486) 
Prenol lipids

>  <chemical_sub_class>  (1486) 
Sesquiterpenoids

>  <chemical_super_class>  (1486) 
Lipids and lipid-like molecules

>  <direct_parent_classification>  (1486) 
Elemane sesquiterpenoids

>  <np_classifier_pathway>  (1486) 
Terpenoids

>  <np_classifier_superclass>  (1486) 
Sesquiterpenoids

>  <np_classifier_class>  (1486) 
Elemane sesquiterpenoids

>  <np_classifier_is_glycoside>  (1486) 
False

>  <organisms>  (1486) 
Acorus calamus|Aglaia meridionalis|Aiouea costaricensis|Akebia quinata|Akebia trifoliata|Allium ursinum|Alphinia galanga|Ammi majus|Amycolatopsis lurida|Amyris balsamifera|Anacystis cyanea|Angelica acutiloba|Angelica archangelica|Angelica gigas|Angelica sinensis|Annona cascarilloides|Annona reticulata|Apium graveolens|Aquilaria agallochum|Aquilaria sinensis|Arcangelisia gusanlung|Artabotrys lastoursvillensis|Artemisia Annua|Artemisia alba|Artemisia ammaniana|Artemisia annua|Artemisia annua L.cultivar Jwarharti|Artemisia arborescens|Artemisia capillaris|Artemisia schmidtiana|Artemisia sericea|Aspergillus candidus|Atractylodes chinensis|Atractylodes lancea|Aucklandia lappa|Babylonia japonica|Baccharis genistelloides|Baccharis sagittalis|Baccharis venosa|Bitter bush|Boswellia papyrifera|Bothriochloa bladhii|Breonia chinensis|Brickellia pendula|Callyspongia truncata|Campylotropis hirtella|Canarium luzonicum|Cedrela odorata|Ceropegia dichotoma|Chaetomium retardatum|Chamaecyparis lawsoniana|Chamaecyparis obtusa|Chamaemelum nobile|Chamaemelum scariosum|Chimonanthus praecox|Cinnamomum camphora|Cinnamomum illicioides|Cinnamomum sieboldii|Cistus albidus|Citrus grandis|Citrus maxima|Citrus nobilis|Citrus reticulata|Citrus sinensis|Citrus tankan|Citrus unshiu|Citrus × deliciosa|Citrus × paradisi|Cladonia pseudodidyma|Cladosporium herbarum|Cleidion brevipetiolatum|Cleistopholis patens|Coleus carnosus|Conyza incana|Copaifera paupera|Cortinarius basirubescens|Crinum moorei|Crotalaria candicans|Crotalaria lechnaultii|Cryptomeria japonica|Cupressus arizonica|Curcuma longa|Curcuma zedoaria|Cymbopogon citratus|Cymbopogon flexuosus|Cymbopogon nardus|Cymbopogon schoenanthus|Cymbopogon winterianus|Daucus carota|Dendrobium loddigesii|Diplolophium africanum|Distephanus angulifolius|Duguetia confinis|Dunaliella acidophila|Elsholtzia blanda|Elsholtzia ciliata|Entandrophragma cylindricum|Eremophila dalyana|Eremophila flaccida|Eria japonica|Eriostemon myoporoides|Escallonia philippiana|Eucalyptus apodophylla|Eucalyptus globulus subsp. bicostata|Eupatorium capillifolium|Ficus maxima|Gackstroemia magellanica|Ginkgo biloba|Gleichenia glauca|Glycosmis macrophylla|Guatteriopsis friesiana|Gypsophila perfoliata|Hedychium spicatum|Helichrysum odoratissimum|Helietta apiculata|Helipterum strictum|Heracleum dissectum|Hesperocyparis nevadensis|Heterotropa|Hexalobus monopetalus|Hippocratea indica|Hypericum polyanthemum|Hyptis emoryi|Hyssopus officinalis|Illicium verum|Iphiona scabra|Java citronella|Juniperus|Juniperus comitana|Juniperus communis|Juniperus drupacea|Juniperus monticola|Juniperus phoenicea|Juniperus standleyi|Juniperus taxifolia|Juniperus thurifera|Juniperus thurifera var.africana|Kadsura japonica|Kumquat|Lactobacillus acidophilus|Lathyrus macrorrhizus|Laurencia elata|Lentinellus omphalodes|Leptospermum scoparium|Lessingia glandulifera|Licaria macrophylla|Ligusticum jeholense|Ligusticum sinense|Ligusticum tenuissimum|Lindera aggregata|Lindera strichnifolia|Lippia rehmannii|Liquidambar styraciflua|Machaerium mucronulatum|Magnolia acuminata|Magnolia officinalis|Mangifera indica|Manila elemi|Martensia denticulata|Matteuccia struthiopteris|Mentha aquatica|Mentha cardiaca|Micromeria biflora|Micromeria sinaica|Millettia racemosa|Monocyclanthus vignei|Mosla chinensis|Murraya exotica|Murraya paniculata|Nardostachys jatamansi|Nectandra salicina|Nepeta viscida|Ochtodes crockeri|Ocimum campechianum|Ocotea gomezii|Ocotea morae|Olearia phlogopappa|Ononis spinosa|Ophioglossum vulgatum|Origanum onites|Origanum vulgare|Parmelia conspersa|Parthenium argentatum|Pentaclethra macrophylla|Periploca sepium|Phebalium squamulosum|Pimpinella anisum|Pinus halepensis|Piper marginatum|Piper nigrum|Piper ribesioides|Platycladus orientalis|Plectranthus myrianthus|Plumbago europaea|Polyporus sulphureus|Psiadia altissima|Psidium guajava|Psidium guyanense|Pterocaulon virgatum|Pulicaria arabica|Pyrocystis lunula|Rhodiola semenovii|Rosmarinus officinalis|Ruta angustifolia|Ruta graveolens|Salvia cinnabarina|Salvia dorystaechas|Salvia sclarea|Salvia sessei|Santolina chamaecyparissus|Saussurea lappa|Schinus molle|Senecio erraticus|Simmondsia chinensis|Siparuna thecaphora|Sonneratia caseolaris|Stephania zippeliana|Tabebuia rosea|Tagetes lucida|Taiwania cryptomerioides|Talaromyces variabilis|Talaromyces wortmanni|Tanacetum santolina|Thuja standishii|Thymus camphoratus|Thymus funkii|Thymus longiflorus|Thymus zygis|Timonius kaniensis|Tristania conferta|Uvariopsis tripetala|Valeriana officinalis|Vernonia cistifolia|Veronica polita|Virola surinamensis|Vitex negundo|West African Pepper|Xylopia aethiopica|Xylopia aromatica|Xylopia phloiodora|Xylopia sericea|Zanthoxylum schinifolium|Zanthoxylum simulans|Zingiber officinale|basil|cicely|pomelo|water mint

>  <collections>  (1486) 
ANPDB|Australian natural products|CMAUP (cCollective molecular activities of useful plants)|ChEBI NPs|ETM (Ethiopian Traditional Medicine) DB|FooDB|KNApSaCK|Latin America dataset|NANPDB (Natural Products from Northern African Sources)|NAPRORE-CR|NPASS|NPAtlas|NPDBEjeCol|NPEdia|NuBBEDB|Phyto4Health|Super Natural II|TCMDB-Taiwan (Traditional Chinese Medicine database)|TIPdb (database of Taiwan indigenous plants)|VietHerb|WikiData Natural Products|ZINC NP

>  <dois>  (1486) 
10.1002/(SICI)1099-1026(199607)11:4<245::AID-FFJ583>3.0.CO;2-K|10.1002/(SICI)1099-1026(199701)12:1<47::AID-FFJ610>3.0.CO;2-7|10.1002/(SICI)1099-1573(199702)11:1<67::AID-PTR29>3.0.CO;2-I|10.1002/(SICI)1099-1573(1998)12:1+<S117::AID-PTR269>3.0.CO;2-2|10.1002/CBDV.201300390|10.1002/CHIN.200510180|10.1002/ECE3.5390|10.1002/FFJ.1096|10.1002/FFJ.2730050205|10.1002/FFJ.2730070109|10.1002/FFJ.2730100609|10.1002/JSSC.200900378|10.1007/BF02907824|10.1007/S11418-007-0175-2|10.1016/0031-9422(88)80126-2|10.1016/0031-9422(90)89060-M|10.1016/0031-9422(92)80456-O|10.1016/0031-9422(92)83285-7|10.1016/0031-9422(93)85295-3|10.1016/0031-9422(95)00013-W|10.1016/0031-9422(95)00347-A|10.1016/0031-9422(95)00901-9|10.1016/0305-1978(85)90081-X|10.1016/0305-1978(89)90100-2|10.1016/0378-8741(88)90123-7|10.1016/J.APJTM.2016.06.009|10.1016/J.CHROMA.2007.12.011|10.1016/J.FOODCHEM.2008.09.107|10.1016/J.INDCROP.2013.06.023|10.1016/J.PHYTOCHEM.2003.08.004|10.1016/J.PHYTOCHEM.2004.07.021|10.1016/J.PHYTOCHEM.2018.06.006|10.1016/S0031-9422(00)80268-X|10.1016/S0031-9422(00)84581-1|10.1016/S0031-9422(00)84608-7|10.1016/S0031-9422(00)85393-5|10.1016/S0031-9422(00)97885-3|10.1016/S0031-9422(00)97945-7|10.1016/S0031-9422(97)00117-9|10.1016/S0031-9422(97)00324-5|10.1016/S0031-9422(97)01124-2|10.1016/S0031-9422(98)00022-3|10.1016/S0031-9422(98)80072-1|10.1016/S0031-9422(99)00500-2|10.1016/S0045-6535(99)00015-6|10.1016/S0165-022X(00)00079-8|10.1016/S0305-1978(97)00103-8|10.1016/S0308-8146(03)00014-1|10.1016/j.bse.2007.05.009|10.1016/s0045-6535(99)00015-6|10.1021/JA01240A019|10.1021/JF00046A030|10.1021/JF00083A001|10.1021/JF00116A075|10.1021/JF950577D|10.1021/JO040272A|10.1021/NP030475E|10.1021/NP50009A015|10.1021/NP50011A013|10.1021/NP50034A039|10.1021/NP50040A040|10.1021/NP50041A034|10.1021/NP50046A033|10.1021/NP50052A027|10.1023/B:JOEC.0000042400.14451.08|10.1055/S-2002-32898|10.1055/S-2006-957936|10.1055/S-2006-959580|10.1055/S-2006-960908|10.1055/S-2006-961434|10.1055/S-2006-961495|10.1055/S-2006-962450|10.1055/S-2006-962685|10.1055/S-2007-969160|10.1055/S-2007-969948|10.1055/S-2008-1074841|10.1071/CH9870405|10.1071/ch9620157|10.1076/PHBI.35.3.218.13295|10.1076/PHBI.39.3.191.5924|10.1080/0972060X.2010.10643892|10.1080/0972060X.2011.10643905|10.1080/0972060X.2013.813219|10.1080/10412905.1990.9697873|10.1080/10412905.1991.9697930|10.1080/10412905.1991.9697955|10.1080/10412905.1991.9697956|10.1080/10412905.1992.9698068|10.1080/10412905.1992.9698069|10.1080/10412905.1992.9698087|10.1080/10412905.1992.9698130|10.1080/10412905.1993.9698231|10.1080/10412905.1993.9698232|10.1080/10412905.1993.9698235|10.1080/10412905.1993.9698243|10.1080/10412905.1993.9698250|10.1080/10412905.1993.9698253|10.1080/10412905.1994.9699347|10.1080/10412905.1995.9700529|10.1080/10412905.1996.9700559|10.1080/10412905.1997.9700709|10.1080/10412905.1997.9700724|10.1080/10412905.1998.9700844|10.1080/10412905.1998.9700962|10.1080/10412905.1998.9701015|10.1080/10412905.1999.9701070|10.1080/10412905.1999.9701102|10.1080/10412905.2000.9699524|10.1080/10412905.2001.9712227|10.1080/10412905.2002.9699852|10.1080/10412905.2003.9698598|10.1080/10412905.2010.9700338|10.1080/10412905.2010.9700389|10.1135/CCCC19610811|10.1139/V69-334|10.1163/1574-9347_DNP_E832720|10.1177/1934578X1200700239|10.1248/BPB.23.595|10.1248/CPB.23.1892|10.1248/CPB.29.123|10.1248/YAKUSHI1947.106.1_17|10.1248/YAKUSHI1947.115.7_543|10.1248/YAKUSHI1947.116.9_728|10.12692/IJB/12.4.370-382|10.1271/BBB1961.52.2961|10.1271/BBB1961.55.2571|10.1271/NOGEIKAGAKU1924.67.1417|10.1515/ZNC-1984-7-803|10.1590/S0100-40422009000200028|10.1590/S0103-50532000000600012|10.1590/S0103-50532011000400018|10.23850/24220582.3465|10.3109/13880208709088136|10.3109/13880209109082876|10.3109/13880209109082877|10.3390/MOLECULES21060814|10.3390/MOLECULES24234244|10.5897/JMPR10.078

>  <synonyms>  (1486) 
(1R,3S,4S)-4-ethenyl-alpha,alpha,4-trimethyl-3-(1-methylethenyl)cyclohexanemethanol|(1S,2S,4R)-(-)-alpha,alpha-Dimethyl-1-vinyl-o-menth-8-ene-4-methanol|.alpha.-Elemol|.beta.-Elemol|1R,1alpha,3alpha,4beta-4-ethenyl-alpha,alpha,4-trimethyl-3-(1-methylethenyl)cyclohexanemethanol|2-((1R,3S,4S)-4-Methyl-3-(prop-1-en-2-yl)-4-vinylcyclohexyl)propan-2-ol|2-[(1r,3s,4s)-4-ethenyl-4-methyl-3-(prop-1-en-2-yl)cyclohexyl]propan-2-ol|4-ETHENYL-.ALPHA.,.ALPHA.,4-TRIMETHYL-3-(1-METHYLETHENYL)-(1R-(1.ALPHA.,3.ALPHA.,4.BETA.))-CYCLOHEXANEMETHANOL|639-99-6|AI3-00210|AKOS040751670|ALPHA-ELEMOL|CHEBI:141221|CHEMBL2287241|Cyclohexanemethanol, 4-ethenyl-.alpha.,.alpha.,4-trimethyl-3-(1-methylethenyl)-, (1R,3S,4S)-|Cyclohexanemethanol, 4-ethenyl-alpha,alpha,4-trimethyl-3-(1-methylethenyl)-, (1R-(1alpha,3alpha,4beta))-|DTXSID1052323|EINECS 211-360-5|ELEMOL, (-)-|Elemol|L92AJ7G06I|NS00012345|Q27282855|SCHEMBL310097|UNII-L92AJ7G06I|elemol

>  <cas>  (1486) 
639-99-6

$$$$

     RDKit          2D

 11 10  0  0  0  0  0  0  0  0999 V2000
   -6.4952   -0.3409    0.0000 C   0  0  0  0  0  0  0  0  0  0  0  0
   -5.1962    0.4091    0.0000 C   0  0  0  0  0  0  0  0  0  0  0  0
   -3.8971   -0.3409    0.0000 C   0  0  0  0  0  0  0  0  0  0  0  0
   -2.5981    0.4091    0.0000 C   0  0  0  0  0  0  0  0  0  0  0  0
   -1.2990   -0.3409    0.0000 C   0  0  0  0  0  0  0  0  0  0  0  0
    0.0000    0.4091    0.0000 C   0  0  0  0  0  0  0  0  0  0  0  0
    1.2990   -0.3409    0.0000 C   0  0  0  0  0  0  0  0  0  0  0  0
    2.5981    0.4091    0.0000 C   0  0  0  0  0  0  0  0  0  0  0  0
    3.8971   -0.3409    0.0000 C   0  0  0  0  0  0  0  0  0  0  0  0
    5.1962    0.4091    0.0000 C   0  0  0  0  0  0  0  0  0  0  0  0
    6.4952   -0.3409    0.0000 C   0  0  0  0  0  0  0  0  0  0  0  0
  1  2  2  0
  2  3  1  0
  3  4  1  0
  4  5  1  0
  5  6  1  0
  6  7  1  0
  7  8  1  0
  8  9  1  0
  9 10  1  0
 10 11  1  0
M  END
>  <identifier>  (1487) 
CNP0159463.0

>  <canonical_smiles>  (1487) 
C=CCCCCCCCCC

>  <standard_inchi>  (1487) 
InChI=1S/C11H22/c1-3-5-7-9-11-10-8-6-4-2/h3H,1,4-11H2,2H3

>  <standard_inchi_key>  (1487) 
DCTOHCCUXLBQMS-UHFFFAOYSA-N

>  <name>  (1487) 
1-UNDECENE

>  <iupac_name>  (1487) 
undec-1-ene

>  <annotation_level>  (1487) 
5

>  <total_atom_count>  (1487) 
33

>  <heavy_atom_count>  (1487) 
11

>  <molecular_weight>  (1487) 
154.3

>  <exact_molecular_weight>  (1487) 
154.17215

>  <molecular_formula>  (1487) 
C11H22

>  <alogp>  (1487) 
4.31

>  <topological_polar_surface_area>  (1487) 
0.00

>  <rotatable_bond_count>  (1487) 
8

>  <hydrogen_bond_acceptors>  (1487) 
0

>  <hydrogen_bond_donors>  (1487) 
0

>  <hydrogen_bond_acceptors_lipinski>  (1487) 
0

>  <hydrogen_bond_donors_lipinski>  (1487) 
0

>  <lipinski_rule_of_five_violations>  (1487) 
0

>  <aromatic_rings_count>  (1487) 
0

>  <qed_drug_likeliness>  (1487) 
0.36

>  <formal_charge>  (1487) 
0

>  <fractioncsp3>  (1487) 
0.82

>  <number_of_minimal_rings>  (1487) 
0

>  <van_der_walls_volume>  (1487) 
188.94

>  <contains_sugar>  (1487) 
False

>  <contains_ring_sugars>  (1487) 
False

>  <contains_linear_sugars>  (1487) 
False

>  <murcko_framework>  (1487) 
nan

>  <np_likeness>  (1487) 
0.92

>  <chemical_class>  (1487) 
Unsaturated hydrocarbons

>  <chemical_sub_class>  (1487) 
Olefins

>  <chemical_super_class>  (1487) 
Hydrocarbons

>  <direct_parent_classification>  (1487) 
Alkenes

>  <np_classifier_pathway>  (1487) 
Fatty acids

>  <np_classifier_superclass>  (1487) 
Fatty acyls

>  <np_classifier_class>  (1487) 
Hydrocarbons

>  <np_classifier_is_glycoside>  (1487) 
False

>  <organisms>  (1487) 
Acacia armata|Adonis sutchuenensis|Angelica dahurica|Aristolochia birostris|Aristolochia cymbifera|Aristolochia didyma|Aristolochia gigantea|Aristolochia macroura|Aristolochia triangularis|Astragalus ernestii|Attalea speciosa|Berneuxia thibetica|Bongardia chrysogonum|Briareum asbestinum|Bunodosoma caissarum|Carthamus tinctorius|Cineraria aspera|Cineraria parvifolia|Cladogynos orientalis|Clusia ellipticifolia|Dumoria heckeli|Elaeis guineensis|Elizabethkingia meningoseptica|Eragrostis curvula|Fritillaria meleagris|Hoehnephytum imbricatum|Homo sapiens|Inula helenium|Isophysis tasmanica|Lonchocarpus laxiflorus|Mantella aurantiaca|Matricaria matricarioides|Metasequoia glyptostroboides|Pectis elongata|Petasites albus|Petasites hybridus|Petasites japonicus|Plantago lundborgii|Porophyllum ruderale|Rhaponticum uniflorum|Sapium sebiferum|Senecio venosus|Sideritis arborescens|Solanum pseudoquina|Stilpnopappus pickelii|Streptomyces ehimensis|Tethya amamensis|Tribolium castaneum|Tussilago farfara|Zanthoxylum hawaiiense

>  <collections>  (1487) 
CMAUP (cCollective molecular activities of useful plants)|EMNPD|Latin America dataset|NPASS|NuBBEDB|Super Natural II|TCMDB-Taiwan (Traditional Chinese Medicine database)|TCMID (Traditional Chinese Medicine Integrated Database)|UNPD (Universal Natural Products Database)|WikiData Natural Products

>  <dois>  (1487) 
10.1002/(SICI)1099-1026(199911/12)14:6<393::AID-FFJ849>3.0.CO;2-5|10.1002/CBDV.201800531|10.1002/CHIN.198334348|10.1002/JLAC.198319830514|10.1016/0031-9422(81)83055-5|10.1016/0031-9422(82)85251-5|10.1016/0305-1978(92)90055-I|10.1016/S0031-9422(00)81111-5|10.1021/JF00120A031|10.1021/jf00120a031|10.1039/C39910001731|10.1080/10412905.1991.9697974|10.1080/10412905.1995.9698464|10.1135/CCCC19622711|10.1186/s12918-014-0134-y|10.1248/YAKUSHI1947.112.8_571|10.17660/ACTAHORTIC.1999.500.11

>  <synonyms>  (1487) 
.ALPHA.-NONYLETHYLENE|.ALPHA.-UNDECYLENE|1-Hendecene|1-UNDECENE [HSDB]|1-Undecene, 97%|1-undecene|1446756A8F|3,4-dichlorophenethylalcohol|68526-57-8|821-95-4|?1-UNDECENE|AKOS009156849|CCRIS 5720|CHEBI:77444|D92764|DB-056580|DTXCID0048268|DTXSID5061168|EC 271-214-1|EINECS 212-483-7|EINECS 271-214-1|HSDB 1090|LMFA11000332|LS-14020|MFCD00008956|N-NONYLETHYLENE|NS00038169|NSC 73983|NSC-73983|Q14745306|STL453737|U0025|U0052|UNII-1446756A8F|Undec-1-ene|Undecene|Undecene-1|alpha-Nonylethylene|alpha-Undecene|n-1-Undecene

>  <cas>  (1487) 
821-95-4|68526-57-8

$$$$

     RDKit          2D

 43 47  0  0  0  0  0  0  0  0999 V2000
   -8.2041    4.1550    0.0000 C   0  0  0  0  0  0  0  0  0  0  0  0
   -8.4935    2.6831    0.0000 O   0  0  0  0  0  0  0  0  0  0  0  0
   -7.3636    1.6966    0.0000 C   0  0  0  0  0  0  0  0  0  0  0  0
   -5.9442    2.1819    0.0000 C   0  0  0  0  0  0  0  0  0  0  0  0
   -4.8143    1.1954    0.0000 C   0  0  0  0  0  0  0  0  0  0  0  0
   -5.1037   -0.2764    0.0000 C   0  0  0  0  0  0  0  0  0  0  0  0
   -3.9737   -1.2629    0.0000 C   0  0  0  0  0  0  0  0  0  0  0  0
   -4.2631   -2.7348    0.0000 C   0  0  0  0  0  0  0  0  0  0  0  0
   -3.1332   -3.7213    0.0000 C   0  0  0  0  0  0  0  0  0  0  0  0
   -3.4225   -5.1931    0.0000 O   0  0  0  0  0  0  0  0  0  0  0  0
   -1.7138   -3.2360    0.0000 C   0  0  0  0  0  0  0  0  0  0  0  0
   -0.5839   -4.2225    0.0000 C   0  0  0  0  0  0  0  0  0  0  0  0
   -0.8733   -5.6943    0.0000 O   0  0  0  0  0  0  0  0  0  0  0  0
    0.8354   -3.7372    0.0000 C   0  0  0  0  0  0  0  0  0  0  0  0
    1.1248   -2.2654    0.0000 C   0  0  0  0  0  0  0  0  0  0  0  0
    2.5441   -1.7801    0.0000 O   0  0  0  0  0  0  0  0  0  0  0  0
    3.6741   -2.7666    0.0000 C   0  0  0  0  0  0  0  0  0  0  0  0
   -0.0051   -1.2788    0.0000 C   0  0  0  0  0  0  0  0  0  0  0  0
    0.2842    0.1930    0.0000 C   0  0  0  0  0  0  0  0  0  0  0  0
   -0.8457    1.1795    0.0000 O   0  0  0  0  0  0  0  0  0  0  0  0
   -0.5563    2.6513    0.0000 C   0  0  0  0  0  0  0  0  0  0  0  0
   -1.6863    3.6378    0.0000 C   0  0  0  0  0  0  0  0  0  0  0  0
   -3.1056    3.1525    0.0000 O   0  0  0  0  0  0  0  0  0  0  0  0
    0.8630    3.1366    0.0000 C   0  0  0  0  0  0  0  0  0  0  0  0
    1.1524    4.6084    0.0000 O   0  0  0  0  0  0  0  0  0  0  0  0
    1.9930    2.1501    0.0000 C   0  0  0  0  0  0  0  0  0  0  0  0
    3.4123    2.6354    0.0000 O   0  0  0  0  0  0  0  0  0  0  0  0
    1.7036    0.6783    0.0000 C   0  0  0  0  0  0  0  0  0  0  0  0
    2.8335   -0.3082    0.0000 O   0  0  0  0  0  0  0  0  0  0  0  0
    4.2528    0.1771    0.0000 C   0  0  0  0  0  0  0  0  0  0  0  0
    4.5422    1.6489    0.0000 O   0  0  0  0  0  0  0  0  0  0  0  0
    5.9615    2.1342    0.0000 C   0  0  0  0  0  0  0  0  0  0  0  0
    6.2509    3.6060    0.0000 C   0  0  0  0  0  0  0  0  0  0  0  0
    7.0915    1.1477    0.0000 C   0  0  0  0  0  0  0  0  0  0  0  0
    8.5108    1.6330    0.0000 O   0  0  0  0  0  0  0  0  0  0  0  0
    6.8021   -0.3242    0.0000 C   0  0  0  0  0  0  0  0  0  0  0  0
    7.9321   -1.3107    0.0000 O   0  0  0  0  0  0  0  0  0  0  0  0
    5.3828   -0.8095    0.0000 C   0  0  0  0  0  0  0  0  0  0  0  0
    5.0934   -2.2813    0.0000 O   0  0  0  0  0  0  0  0  0  0  0  0
   -1.4245   -1.7642    0.0000 C   0  0  0  0  0  0  0  0  0  0  0  0
   -2.5544   -0.7776    0.0000 O   0  0  0  0  0  0  0  0  0  0  0  0
   -6.5230   -0.7617    0.0000 C   0  0  0  0  0  0  0  0  0  0  0  0
   -7.6529    0.2248    0.0000 C   0  0  0  0  0  0  0  0  0  0  0  0
  1  2  1  0
  2  3  1  0
  3  4  2  0
  4  5  1  0
  5  6  2  0
  6  7  1  0
  7  8  2  0
  8  9  1  0
  9 10  2  0
  9 11  1  0
 11 12  2  0
 12 13  1  0
 12 14  1  0
 14 15  2  0
 15 16  1  0
 16 17  1  0
 15 18  1  0
 19 18  1  6
 19 20  1  0
 20 21  1  0
 21 22  1  6
 22 23  1  0
 21 24  1  0
 24 25  1  1
 24 26  1  0
 26 27  1  6
 26 28  1  0
 28 29  1  1
 30 29  1  6
 30 31  1  0
 31 32  1  0
 32 33  1  1
 32 34  1  0
 34 35  1  6
 34 36  1  0
 36 37  1  1
 36 38  1  0
 38 39  1  1
 18 40  2  0
 40 41  1  0
  6 42  1  0
 42 43  2  0
 43  3  1  0
 41  7  1  0
 40 11  1  0
 28 19  1  0
 38 30  1  0
M  END
>  <identifier>  (1488) 
CNP0337375.1

>  <canonical_smiles>  (1488) 
COC1=CC=C(C2=CC(=O)C3=C(O)C=C(OC)C([C@@H]4O[C@H](CO)[C@@H](O)[C@H](O)[C@H]4O[C@@H]4O[C@@H](C)[C@H](O)[C@@H](O)[C@H]4O)=C3O2)C=C1

>  <standard_inchi>  (1488) 
InChI=1S/C29H34O14/c1-11-21(33)23(35)25(37)29(40-11)43-28-24(36)22(34)18(10-30)42-27(28)20-17(39-3)9-15(32)19-14(31)8-16(41-26(19)20)12-4-6-13(38-2)7-5-12/h4-9,11,18,21-25,27-30,32-37H,10H2,1-3H3/t11-,18+,21-,22+,23+,24-,25+,27-,28+,29-/m0/s1

>  <standard_inchi_key>  (1488) 
ATIGSOIKRFUQFL-TTWQRZRWSA-N

>  <name>  (1488) 
7,4'-Di-O-methylvitexin 2''-O-rhamnoside

>  <iupac_name>  (1488) 
8-[(2~{S},3~{R},4~{S},5~{S},6~{R})-4,5-dihydroxy-6-(hydroxymethyl)-3-[(2~{S},3~{R},4~{R},5~{R},6~{S})-3,4,5-trihydroxy-6-methyl-tetrahydropyran-2-yl]oxy-tetrahydropyran-2-yl]-5-hydroxy-7-methoxy-2-(4-methoxyphenyl)chromen-4-one

>  <annotation_level>  (1488) 
5

>  <total_atom_count>  (1488) 
77

>  <heavy_atom_count>  (1488) 
43

>  <molecular_weight>  (1488) 
606.58

>  <exact_molecular_weight>  (1488) 
606.19486

>  <molecular_formula>  (1488) 
C29H34O14

>  <alogp>  (1488) 
-0.45

>  <topological_polar_surface_area>  (1488) 
217.97

>  <rotatable_bond_count>  (1488) 
7

>  <hydrogen_bond_acceptors>  (1488) 
14

>  <hydrogen_bond_donors>  (1488) 
7

>  <hydrogen_bond_acceptors_lipinski>  (1488) 
14

>  <hydrogen_bond_donors_lipinski>  (1488) 
7

>  <lipinski_rule_of_five_violations>  (1488) 
3

>  <aromatic_rings_count>  (1488) 
3

>  <qed_drug_likeliness>  (1488) 
0.18

>  <formal_charge>  (1488) 
0

>  <fractioncsp3>  (1488) 
0.48

>  <number_of_minimal_rings>  (1488) 
5

>  <van_der_walls_volume>  (1488) 
508.02

>  <contains_sugar>  (1488) 
True

>  <contains_ring_sugars>  (1488) 
True

>  <contains_linear_sugars>  (1488) 
False

>  <murcko_framework>  (1488) 
O1C(=CCc2cccc(c12)C3OCCCC3OC4OCCCC4)c5ccccc5

>  <np_likeness>  (1488) 
1.93

>  <chemical_class>  (1488) 
Flavonoids

>  <chemical_sub_class>  (1488) 
Flavonoid glycosides

>  <chemical_super_class>  (1488) 
Phenylpropanoids and polyketides

>  <direct_parent_classification>  (1488) 
Flavonoid 8-C-glycosides

>  <np_classifier_pathway>  (1488) 
Shikimates and Phenylpropanoids

>  <np_classifier_superclass>  (1488) 
Flavonoids

>  <np_classifier_class>  (1488) 
Flavones

>  <np_classifier_is_glycoside>  (1488) 
True

>  <organisms>  (1488) 
Peperomia obtusifolia

>  <collections>  (1488) 
ChemSpider NPs|Latin America dataset|NuBBEDB|Super Natural II|WikiData Natural Products|ZINC NP

>  <dois>  (1488) 
10.1055/S-0029-1185364|10.1055/s-0029-1185364|10.1080/14786410903244954

>  <synonyms>  (1488) 
1236226-98-4|AKOS040763382|Isoswertisin-4'-methyl-ether-2''\u221a\u00e9\u00ac\u00b1-L-rhamnoside

>  <cas>  (1488) 
nan

$$$$

     RDKit          2D

 26 28  0  0  0  0  0  0  0  0999 V2000
   -7.2758    1.7509    0.0000 C   0  0  0  0  0  0  0  0  0  0  0  0
   -5.7797    1.8588    0.0000 O   0  0  0  0  0  0  0  0  0  0  0  0
   -4.9382    0.6170    0.0000 C   0  0  0  0  0  0  0  0  0  0  0  0
   -3.4420    0.7249    0.0000 C   0  0  0  0  0  0  0  0  0  0  0  0
   -2.6005   -0.5168    0.0000 C   0  0  0  0  0  0  0  0  0  0  0  0
   -1.1044   -0.4089    0.0000 C   0  0  0  0  0  0  0  0  0  0  0  0
   -0.1377   -1.5559    0.0000 O   0  0  0  0  0  0  0  0  0  0  0  0
    1.2518   -0.9909    0.0000 C   0  0  0  0  0  0  0  0  0  0  0  0
    2.6014   -1.6455    0.0000 C   0  0  0  0  0  0  0  0  0  0  0  0
    2.7093   -3.1416    0.0000 O   0  0  0  0  0  0  0  0  0  0  0  0
    4.0589   -3.7963    0.0000 C   0  0  0  0  0  0  0  0  0  0  0  0
    3.8431   -0.8040    0.0000 C   0  0  0  0  0  0  0  0  0  0  0  0
    3.7352    0.6921    0.0000 C   0  0  0  0  0  0  0  0  0  0  0  0
    4.9770    1.5336    0.0000 C   0  0  0  0  0  0  0  0  0  0  0  0
    6.3266    0.8790    0.0000 C   0  0  0  0  0  0  0  0  0  0  0  0
    7.5683    1.7205    0.0000 C   0  0  0  0  0  0  0  0  0  0  0  0
    8.9179    1.0659    0.0000 O   0  0  0  0  0  0  0  0  0  0  0  0
    2.3856    1.3467    0.0000 C   0  0  0  0  0  0  0  0  0  0  0  0
    1.1439    0.5052    0.0000 C   0  0  0  0  0  0  0  0  0  0  0  0
   -0.3123    0.8649    0.0000 C   0  0  0  0  0  0  0  0  0  0  0  0
   -0.8773    2.2545    0.0000 C   0  0  0  0  0  0  0  0  0  0  0  0
   -2.3631    2.4600    0.0000 O   0  0  0  0  0  0  0  0  0  0  0  0
   -3.2552   -1.8664    0.0000 C   0  0  0  0  0  0  0  0  0  0  0  0
   -4.7513   -1.9743    0.0000 C   0  0  0  0  0  0  0  0  0  0  0  0
   -5.5928   -0.7326    0.0000 C   0  0  0  0  0  0  0  0  0  0  0  0
   -7.0889   -0.8405    0.0000 O   0  0  0  0  0  0  0  0  0  0  0  0
  1  2  1  0
  2  3  1  0
  3  4  2  0
  4  5  1  0
  6  5  1  1
  6  7  1  0
  7  8  1  0
  8  9  2  0
  9 10  1  0
 10 11  1  0
  9 12  1  0
 12 13  2  0
 13 14  1  0
 14 15  1  0
 15 16  1  0
 16 17  1  0
 13 18  1  0
 18 19  2  0
 19 20  1  0
 20 21  1  6
 21 22  1  0
  5 23  2  0
 23 24  1  0
 24 25  2  0
 25 26  1  0
 25  3  1  0
 20  6  1  0
 19  8  1  0
M  END
>  <identifier>  (1489) 
CNP0251283.1

>  <canonical_smiles>  (1489) 
COC1=CC([C@@H]2OC3=C(OC)C=C(CCCO)C=C3[C@H]2CO)=CC=C1O

>  <standard_inchi>  (1489) 
InChI=1S/C20H24O6/c1-24-17-10-13(5-6-16(17)23)19-15(11-22)14-8-12(4-3-7-21)9-18(25-2)20(14)26-19/h5-6,8-10,15,19,21-23H,3-4,7,11H2,1-2H3/t15-,19+/m1/s1

>  <standard_inchi_key>  (1489) 
SBLZVJIHPWRSQQ-BEFAXECRSA-N

>  <name>  (1489) 
126253-41-6

>  <iupac_name>  (1489) 
4-[(2~{R},3~{S})-3-(hydroxymethyl)-5-(3-hydroxypropyl)-7-methoxy-2,3-dihydrobenzofuran-2-yl]-2-methoxy-phenol

>  <annotation_level>  (1489) 
5

>  <total_atom_count>  (1489) 
50

>  <heavy_atom_count>  (1489) 
26

>  <molecular_weight>  (1489) 
360.41

>  <exact_molecular_weight>  (1489) 
360.15729

>  <molecular_formula>  (1489) 
C20H24O6

>  <alogp>  (1489) 
2.54

>  <topological_polar_surface_area>  (1489) 
88.38

>  <rotatable_bond_count>  (1489) 
7

>  <hydrogen_bond_acceptors>  (1489) 
6

>  <hydrogen_bond_donors>  (1489) 
3

>  <hydrogen_bond_acceptors_lipinski>  (1489) 
6

>  <hydrogen_bond_donors_lipinski>  (1489) 
3

>  <lipinski_rule_of_five_violations>  (1489) 
0

>  <aromatic_rings_count>  (1489) 
2

>  <qed_drug_likeliness>  (1489) 
0.70

>  <formal_charge>  (1489) 
0

>  <fractioncsp3>  (1489) 
0.40

>  <number_of_minimal_rings>  (1489) 
3

>  <van_der_walls_volume>  (1489) 
328.35

>  <contains_sugar>  (1489) 
False

>  <contains_ring_sugars>  (1489) 
False

>  <contains_linear_sugars>  (1489) 
False

>  <murcko_framework>  (1489) 
O1c2ccccc2CC1c3ccccc3

>  <np_likeness>  (1489) 
1.72

>  <chemical_class>  (1489) 
2-arylbenzofuran flavonoids

>  <chemical_sub_class>  (1489) 
2-arylbenzofuran flavonoids

>  <chemical_super_class>  (1489) 
Phenylpropanoids and polyketides

>  <direct_parent_classification>  (1489) 
2-arylbenzofuran flavonoids

>  <np_classifier_pathway>  (1489) 
Shikimates and Phenylpropanoids

>  <np_classifier_superclass>  (1489) 
Lignans

>  <np_classifier_class>  (1489) 
Neolignans

>  <np_classifier_is_glycoside>  (1489) 
False

>  <organisms>  (1489) 
Abies nephrolepis|Achillea roseoalba|Agave rigidissima|Allium sativum|Amsinckia tessellata|Anolis lineatopus|Aspalathus linearis|Aspergillus aculeatus|Aspergillus mutabilis|Aucuba chinensis|Aurelia aurita|Berberis japonica|Bistorta vivipara|Brickellia vernicosa|Bursera tonkinensis|Byssovorax cruenta|Carica dodecaphylla|Cedronella canariensis|Centaurea huber-morathii|Centaurium pulchellum|Citrus tangerina|Citrus trifolia|Crassocephalum crepidioides|Crocus minimus|Cunonia macrophylla|Curculigo pilosa|Cynometra lujae|Elysia grandifolia|Engelhardia spicata|Entada rheedei|Erylus trisphaerus|Eucommia ulmoides|Eupatorium areolare|Euplotes rariseta|Euterpe oleracea|Fasciospongia rimosa|Felimida luteorosea|Ficus ruficaulis|Gleditsia caspica|Gracilaria textorii|Haplophyllum ramosissimum|Helichrysum mixtum|Heliotropium europaeum|Humata pectinata|Isodon lophanthoides|Isodon nervosus|Isodon xerophilus|Kali turgidum|Lecanora melanophthalma|Lonchocarpus oaxacensis|Lonicera fulvotomentosa|Lysiana subfalcata|Macaranga peltata|Miscanthus sacchariflorus|Narcissus pseudonarcissus subsp. leonensis|Nostoc spongiaeforme|Osteospermum muricatum|Parablechnum minus|Peperomia vulcanica|Pericopsis schliebenii|Petasites japonicus|Phaeolus schweinitzii|Physalis edulis|Picea glehnii|Picea jezoensis var. jezoensis|Platycarya strobilacea|Polysaccharidum versicolor|Premna tomentosa|Ruta bracteosa|Sagittaria sagittifolia|Sambucus nigra|Sambucus williamsii|Santalum album|Saussurea amara|Sia ferox|Sideritis euboea|Sisyrinchium californicum|Sorbus tianschanica|Stephania elegans|Strychnos angustiflora|Styrax ferrugineus|Swertia swertopsis|Taxus brevifolia|Torreya grandis|Torreya nuncifera|Trichoderma koningi|Tsuga chinensis|Ulmus thomasii|Urechis caupo|Usnea undulata|Utricularia australis|Viburnum awabuki|Viburnum odoratissimum var. awabuki|Virgilia divaricata|Vitex negundo|common sunflower

>  <collections>  (1489) 
CMAUP (cCollective molecular activities of useful plants)|ChemSpider NPs|Latin America dataset|NPASS|NuBBEDB|Phyto4Health|Super Natural II|TCMDB-Taiwan (Traditional Chinese Medicine database)|WikiData Natural Products|ZINC NP

>  <dois>  (1489) 
10.1002/CBDV.201000373|10.1016/0031-9422(94)85069-0|10.1016/S0031-9422(00)00225-9|10.1016/S0031-9422(01)00401-0|10.1016/j.bmc.2009.07.016|10.1016/j.bmcl.2016.03.023|10.1021/JF048945D|10.1021/JF801792N|10.1021/np070104o|10.1080/10286020.2010.484805|10.1248/CPB.44.1418|10.1248/CPB.53.641|10.1248/CPB.58.587

>  <synonyms>  (1489) 
(-)-(7R, 8S)-dihydrodehydrodiconiferyl alcohol|(2R,3S)-Dihydrodehydroconiferyl alcohol|(7'R,8'S)-dihydrodehydrodiconifenyl alcohol 9'-o-b-dxylopyranoside|(7R,8S)-(-)-dihydrodehydroconiferyl alcohol|28199-69-1|2B91L473ZL|4-[(2R,3S)-3-(hydroxymethyl)-5-(3-hydroxypropyl)-7-methoxy-2,3-dihydro-1-benzofuran-2-yl]-2-methoxyphenol|5-Benzofuranpropanol, 2,3-dihydro-2-(4-hydroxy-3-methoxyphenyl)-3-(hydroxymethyl)-7-methoxy-, (2R,3S)-|7R,8S-Dihydrodehydrodiconiferyl alcohol|AKOS032948731|CHEBI:143258|CHEMBL253590|CS-0024144|Dihydrodehydroconiferyl alcohol, (7R,8S)-(-)-|FS-10632|HY-N3745|Q27254512|UNII-2B91L473ZL|dihydrodehydrodiconiferylalcohol

>  <cas>  (1489) 
28199-69-1

$$$$

     RDKit          2D

 31 35  0  0  0  0  0  0  0  0999 V2000
   -5.4033   -2.8103    0.0000 C   0  0  0  0  0  0  0  0  0  0  0  0
   -5.5437   -1.3169    0.0000 C   0  0  0  0  0  0  0  0  0  0  0  0
   -6.9900   -1.7145    0.0000 C   0  0  0  0  0  0  0  0  0  0  0  0
   -6.1864    0.0384    0.0000 C   0  0  0  0  0  0  0  0  0  0  0  0
   -5.3340    1.2727    0.0000 C   0  0  0  0  0  0  0  0  0  0  0  0
   -3.8389    1.1516    0.0000 C   0  0  0  0  0  0  0  0  0  0  0  0
   -4.4817    2.5070    0.0000 C   0  0  0  0  0  0  0  0  0  0  0  0
   -2.9866    2.3859    0.0000 C   0  0  0  0  0  0  0  0  0  0  0  0
   -1.4914    2.2649    0.0000 C   0  0  0  0  0  0  0  0  0  0  0  0
   -0.8487    0.9095    0.0000 C   0  0  0  0  0  0  0  0  0  0  0  0
   -0.2060   -0.4458    0.0000 C   0  0  0  0  0  0  0  0  0  0  0  0
   -1.7011   -0.3247    0.0000 C   0  0  0  0  0  0  0  0  0  0  0  0
   -1.0584   -1.6801    0.0000 C   0  0  0  0  0  0  0  0  0  0  0  0
    0.4367   -1.8011    0.0000 C   0  0  0  0  0  0  0  0  0  0  0  0
    1.2891   -0.5668    0.0000 C   0  0  0  0  0  0  0  0  0  0  0  0
    2.7842   -0.6879    0.0000 C   0  0  0  0  0  0  0  0  0  0  0  0
    1.9318   -1.9222    0.0000 C   0  0  0  0  0  0  0  0  0  0  0  0
    3.4269   -2.0432    0.0000 C   0  0  0  0  0  0  0  0  0  0  0  0
    4.9220   -2.1642    0.0000 C   0  0  0  0  0  0  0  0  0  0  0  0
    5.7744   -0.9300    0.0000 C   0  0  0  0  0  0  0  0  0  0  0  0
    7.2695   -1.0510    0.0000 O   0  0  0  0  0  0  0  0  0  0  0  0
    5.1317    0.4254    0.0000 C   0  0  0  0  0  0  0  0  0  0  0  0
    4.9913    1.9188    0.0000 C   0  0  0  0  0  0  0  0  0  0  0  0
    6.5780    0.8230    0.0000 C   0  0  0  0  0  0  0  0  0  0  0  0
    3.6366    0.5464    0.0000 C   0  0  0  0  0  0  0  0  0  0  0  0
    2.9939    1.9017    0.0000 C   0  0  0  0  0  0  0  0  0  0  0  0
    1.4988    2.0228    0.0000 C   0  0  0  0  0  0  0  0  0  0  0  0
    0.6464    0.7885    0.0000 C   0  0  0  0  0  0  0  0  0  0  0  0
    0.0037    2.1438    0.0000 C   0  0  0  0  0  0  0  0  0  0  0  0
   -3.1962   -0.2037    0.0000 C   0  0  0  0  0  0  0  0  0  0  0  0
   -4.0486   -1.4380    0.0000 C   0  0  0  0  0  0  0  0  0  0  0  0
  1  2  1  0
  2  3  1  0
  2  4  1  0
  4  5  1  0
  5  6  1  0
  6  7  1  1
  6  8  1  0
  8  9  1  0
  9 10  1  0
 10 11  1  6
 10 12  1  0
 12 13  2  0
 13 14  1  0
 15 14  1  1
 15 16  1  0
 16 17  1  1
 16 18  1  0
 18 19  1  0
 19 20  1  0
 20 21  2  0
 20 22  1  0
 22 23  1  0
 22 24  1  0
 22 25  1  0
 25 26  1  1
 26 27  1  0
 27 28  1  0
 28 29  1  1
 12 30  1  0
 30 31  1  6
 31  2  1  0
 30  6  1  0
 28 10  1  0
 28 15  1  0
 25 16  1  0
M  END
>  <identifier>  (1490) 
CNP0237611.1

>  <canonical_smiles>  (1490) 
CC1(C)CC[C@]2(C)CC[C@]3(C)C(=CC[C@@H]4[C@@]5(C)CCC(=O)C(C)(C)[C@@H]5CC[C@]43C)[C@@H]2C1

>  <standard_inchi>  (1490) 
InChI=1S/C30H48O/c1-25(2)15-16-27(5)17-18-29(7)20(21(27)19-25)9-10-23-28(6)13-12-24(31)26(3,4)22(28)11-14-30(23,29)8/h9,21-23H,10-19H2,1-8H3/t21-,22-,23+,27+,28-,29+,30+/m0/s1

>  <standard_inchi_key>  (1490) 
LIIFBMGUDSHTOU-CFYIDONUSA-N

>  <name>  (1490) 
beta-Amyrone

>  <iupac_name>  (1490) 
(4~{a}~{R},6~{a}~{R},6~{b}~{S},8~{a}~{R},12~{a}~{R},14~{a}~{R},14~{b}~{R})-4,4,6~{a},6~{b},8~{a},11,11,14~{b}-octamethyl-2,4~{a},5,6,7,8,9,10,12,12~{a},14,14~{a}-dodecahydro-1~{H}-picen-3-one

>  <annotation_level>  (1490) 
5

>  <total_atom_count>  (1490) 
79

>  <heavy_atom_count>  (1490) 
31

>  <molecular_weight>  (1490) 
424.71

>  <exact_molecular_weight>  (1490) 
424.37052

>  <molecular_formula>  (1490) 
C30H48O

>  <alogp>  (1490) 
8.38

>  <topological_polar_surface_area>  (1490) 
17.07

>  <rotatable_bond_count>  (1490) 
0

>  <hydrogen_bond_acceptors>  (1490) 
1

>  <hydrogen_bond_donors>  (1490) 
0

>  <hydrogen_bond_acceptors_lipinski>  (1490) 
1

>  <hydrogen_bond_donors_lipinski>  (1490) 
0

>  <lipinski_rule_of_five_violations>  (1490) 
1

>  <aromatic_rings_count>  (1490) 
0

>  <qed_drug_likeliness>  (1490) 
0.36

>  <formal_charge>  (1490) 
0

>  <fractioncsp3>  (1490) 
0.90

>  <number_of_minimal_rings>  (1490) 
5

>  <van_der_walls_volume>  (1490) 
441.58

>  <contains_sugar>  (1490) 
False

>  <contains_ring_sugars>  (1490) 
False

>  <contains_linear_sugars>  (1490) 
False

>  <murcko_framework>  (1490) 
C1=C2C3CCCCC3CCC2C4CCC5CCCCC5C4C1

>  <np_likeness>  (1490) 
3.29

>  <chemical_class>  (1490) 
Prenol lipids

>  <chemical_sub_class>  (1490) 
Triterpenoids

>  <chemical_super_class>  (1490) 
Lipids and lipid-like molecules

>  <direct_parent_classification>  (1490) 
Oleanane triterpenoids

>  <np_classifier_pathway>  (1490) 
Terpenoids

>  <np_classifier_superclass>  (1490) 
Triterpenoids

>  <np_classifier_class>  (1490) 
Oleanane triterpenoids

>  <np_classifier_is_glycoside>  (1490) 
False

>  <organisms>  (1490) 
Acacia cambagei|Adenopeltis colliguaya|Adiantum capillus-veneris|Aglaia lawii|Alstonia boonei|Apis mellifera|Arabidopsis thaliana|Arnica foliosa|Arnica viscosa|Aspergillus arenarius|Aspergillus quadrilineatus|Aster alpinus|Asterias glacialis|Astilbe myriantha|Athanasia dregeana|Baccharis solieri|Bacillus thuringiensis|Balanophora indica|Bambusa chungii|Berberis crataegina|Bituminaria bituminosa|Bombus hortorum|Calceolaria thyrsiflora|Calodendrum capense|Calophyllum thwaitesii|Canarium zeylanicum|Centaurea horrida|Centaurea seridis|Ceratocystis clavigera|Cereus weberi|Chrozophora obliqua|Cirsium setosum|Citrus × paradisi|Cladonia macaronesica|Cneorum pulverulentum|Coleus garckeanus|Consolida ajacis|Coptis trifolia subsp. groenlandica|Cordiera macrophylla|Costus tonkinensis|Crataegus pontica|Croton caudatus|Cyathus helenae|Cyclocarya paliurus|Dalbergia stipulacea|Dendrodoris krebsii|Desmodium gangeticum|Diaphus suborbitalis|Dinemasporium strigosum|Dorstenia cayapia|Drypetes gossweileri|Echinocystis lobata|Ekebergia pterophylla|Elaeagnus commutata|Elaeocarpus fuscoides|Erythrophleum fordii|Eschenbachia blinii|Eucalyptus exserta|Eucalyptus flocktoniae|Euphorbia bivonae|Euphorbia characias|Euphorbia cyparissias|Euphorbia drupifera|Euphorbia nicaeensis|Euphorbia peplus|Excoecaria agallocha|Felicia amelloides|Festuca argentina|Festuca hieronymi|Ficus pandurata|Flindersia brayleyana|Ganoderma applanatum|Gerbera piloselloides|Gymnosporia emarginata|Haemanthus toxicarius|Helenium quadridentatum|Heracleum sphondylium|Hypolepis punctata|Ilex aquifolium|Inga paterno|Ixeris chinensis|Jacobaea adonidifolia|Jungermannia obovata|Kalanchoe gastonis-bonnieri|Kalanchoe pumila|Kalanchoe thyrsiflora|Koompassia malaccensis|Kummerowia striata|Laetiporus versisporus|Lechevalieria aerocolonigenes|Lepidaploa myriocephala|Lepraria xanthina|Lophanthera lactescens|Lyophyllum shimeji|Macaranga tanarius|Manihot esculenta|Mascarenhasia arborescens|Maytenus buxifolia|Meconopsis horridula|Meconopsis napaulensis|Melaleuca decora|Merremia umbellata|Metanarthecium luteoviride|Millettia conraui|Mollinedia costaricensis|Muntingia calabura|Ormosia panamensis|Osmerus mordax|Oxera splendida|Paeonia lactiflora|Palafoxia rosea|Paramignya griffithii|Pedicularis condensata|Penicillium crustaceum|Perityle vaseyi|Phegopteris subaurita|Phlomoides hamosa|Phlomoides medicinalis|Phoebe formosana|Picris hieracioides|Pistacia lentiscus|Pleurolobus gangeticus|Pluchea lanceolata|Podocarpus montanus|Podolepis longipedata|Polytolypa hystricis|Porella swartziana|Pseudophryne coriacea|Pteris inaequalis|Pterocarpus santalinus|Quercus mongolica|Quercus suber|Rheum webbianum|Rhodoglossum japonicum|Roccellaria mollis|Rosmarinus officinalis|Salacia chinensis|Salacia prinoides|Salvia coulteri|Satureja cuneifolia|Sauropus quadrangularis|Schisandra arisanensis|Senecio chionophilus|Senecio flavus|Senecio polyodon|Senna sophera|Sida cordifolia|Sindora wallichii|Smilax macrophylla|Solanum sisymbriifolium|Solenopsis invicta|Sophora japonica|Spilanthes ocymifolia|Spodoptera littoralis|Stevia purpurea|Streptomyces fradiae|Streptomyces kanamyceticus|Streptomyces mobaraensis|Swartzia madagascariensis|Thymbra spicata|Trattinnickia burserifolia|Trichia floriformis|Tricholoma batschii|Tridax procumbens|Turraeanthus mannii|Uvaria kirkii|Vellozia stipitata|Vernonia echitifolia|Viburnum opulus|Vitex pinnata|Wedelia asperrima|Wolfiporia cocos|Xanthoparmelia pokornyi|Zanthoxylum acanthopodium DC.|Zanthoxylum beecheyanum|Zanthoxylum simulans|[polyangium] brachysporum

>  <collections>  (1490) 
CMAUP (cCollective molecular activities of useful plants)|ChemSpider NPs|KNApSaCK|Latin America dataset|NPASS|NuBBEDB|Phyto4Health|Super Natural II|TCMDB-Taiwan (Traditional Chinese Medicine database)|WikiData Natural Products|ZINC NP

>  <dois>  (1490) 
10.1002/CHIN.200407160|10.1002/HLCA.200790187|10.1002/JCCS.200400159|10.1007/S10600-006-0002-0|10.1007/S10600-011-0026-Y|10.1007/S10600-018-2437-5|10.1016/0031-9422(72)80114-6|10.1016/0031-9422(75)83047-0|10.1016/0031-9422(88)80772-6|10.1016/0031-9422(88)83120-0|10.1016/0031-9422(90)83048-6|10.1016/0031-9422(90)85226-6|10.1016/0031-9422(91)80095-I|10.1016/0031-9422(91)85077-D|10.1016/0031-9422(95)00907-8|10.1016/0305-1978(96)00011-7|10.1016/J.BMC.2008.09.021|10.1016/J.BMCL.2005.07.020|10.1016/J.FITOTE.2007.02.002|10.1016/J.PHYTOL.2010.10.007|10.1016/S0031-9422(00)00463-5|10.1016/S0031-9422(00)81969-X|10.1016/S0031-9422(00)97131-0|10.1016/S0031-9422(00)97405-3|10.1016/S0031-9422(97)00101-5|10.1016/S0031-9422(97)00280-X|10.1016/S0031-9422(97)00783-8|10.1016/S0031-9422(98)80079-4|10.1016/S0176-1617(85)80223-6|10.1016/S0305-1978(02)00079-0|10.1016/S0367-326X(02)00013-8|10.1021/JF00039A021|10.1021/NP0301543|10.1021/NP50034A017|10.1021/OL800389Q|10.1021/acs.jnatprod.0c00464|10.1021/np0301543|10.1039/P19810002724|10.1055/S-2003-38488|10.1055/S-2006-959670|10.1055/S-2007-967196|10.1055/S-2008-1034309|10.1080/10575630290020451|10.1080/14786410902757899|10.1186/2193-1801-3-253|10.1248/CPB.40.789|10.1248/CPB.43.1634|10.1248/CPB.44.509|10.1248/CPB.50.1273|10.1248/CPB.51.1051|10.1515/ZNC-1988-11-1202|10.1515/ZNC-1989-7-804|10.1515/ZNC-1991-1-203|10.1515/ZNC-1995-5-617|10.1590/S0103-50531997000500016|10.1590/S0103-50532004000300008|10.4067/S0717-97072009000300004

>  <synonyms>  (1490) 
(4aR,6aR,6bS,8aR,12aR,14aR,14bR)-4,4,6a,6b,8a,11,11,14b-octamethyl-2,4a,5,6,7,8,9,10,12,12a,14,14a-dodecahydro-1H-picen-3-one|638-97-1|AC-37065|AKOS040761409|BDBM50242248|Beta-Amyrinone|CHEMBL461060|CS-0023532|EX-A6671|HY-N2925|\u221a\u00e9\u00ac\u2264-amyrenone|beta-Amyron|beta-amyrenone

>  <cas>  (1490) 
638-97-1

$$$$

     RDKit          2D

 16 15  0  0  0  0  0  0  0  0999 V2000
    9.0895    0.4574    0.0000 C   0  0  0  0  0  0  0  0  0  0  0  0
    7.7973   -0.3043    0.0000 C   0  0  0  0  0  0  0  0  0  0  0  0
    6.4915    0.4339    0.0000 C   0  0  0  0  0  0  0  0  0  0  0  0
    5.1993   -0.3279    0.0000 C   0  0  0  0  0  0  0  0  0  0  0  0
    3.8936    0.4103    0.0000 C   0  0  0  0  0  0  0  0  0  0  0  0
    2.6014   -0.3514    0.0000 C   0  0  0  0  0  0  0  0  0  0  0  0
    1.2956    0.3868    0.0000 C   0  0  0  0  0  0  0  0  0  0  0  0
    0.0034   -0.3750    0.0000 C   0  0  0  0  0  0  0  0  0  0  0  0
   -1.3024    0.3632    0.0000 C   0  0  0  0  0  0  0  0  0  0  0  0
   -2.5946   -0.3985    0.0000 C   0  0  0  0  0  0  0  0  0  0  0  0
   -2.5810   -1.8985    0.0000 O   0  0  0  0  0  0  0  0  0  0  0  0
   -3.9004    0.3396    0.0000 N   0  0  0  0  0  0  0  0  0  0  0  0
   -5.1925   -0.4221    0.0000 C   0  0  0  0  0  0  0  0  0  0  0  0
   -6.4983    0.3161    0.0000 C   0  0  0  0  0  0  0  0  0  0  0  0
   -7.7905   -0.4457    0.0000 C   0  0  0  0  0  0  0  0  0  0  0  0
   -6.5119    1.8160    0.0000 C   0  0  0  0  0  0  0  0  0  0  0  0
  1  2  1  0
  2  3  1  0
  3  4  1  0
  4  5  1  0
  5  6  1  0
  6  7  1  0
  7  8  1  0
  8  9  1  0
  9 10  1  0
 10 11  2  0
 10 12  1  0
 12 13  1  0
 13 14  1  0
 14 15  1  0
 14 16  1  0
M  END
>  <identifier>  (1491) 
CNP0308804.0

>  <canonical_smiles>  (1491) 
CCCCCCCCCC(=O)NCC(C)C

>  <standard_inchi>  (1491) 
InChI=1S/C14H29NO/c1-4-5-6-7-8-9-10-11-14(16)15-12-13(2)3/h13H,4-12H2,1-3H3,(H,15,16)

>  <standard_inchi_key>  (1491) 
JIOJLCAPGHFHDI-UHFFFAOYSA-N

>  <name>  (1491) 
n-isobutyl decanamide

>  <iupac_name>  (1491) 
~{N}-isobutyldecanamide

>  <annotation_level>  (1491) 
5

>  <total_atom_count>  (1491) 
45

>  <heavy_atom_count>  (1491) 
16

>  <molecular_weight>  (1491) 
227.39

>  <exact_molecular_weight>  (1491) 
227.22491

>  <molecular_formula>  (1491) 
C14H29NO

>  <alogp>  (1491) 
3.90

>  <topological_polar_surface_area>  (1491) 
29.10

>  <rotatable_bond_count>  (1491) 
10

>  <hydrogen_bond_acceptors>  (1491) 
1

>  <hydrogen_bond_donors>  (1491) 
1

>  <hydrogen_bond_acceptors_lipinski>  (1491) 
1

>  <hydrogen_bond_donors_lipinski>  (1491) 
1

>  <lipinski_rule_of_five_violations>  (1491) 
0

>  <aromatic_rings_count>  (1491) 
0

>  <qed_drug_likeliness>  (1491) 
0.56

>  <formal_charge>  (1491) 
0

>  <fractioncsp3>  (1491) 
0.93

>  <number_of_minimal_rings>  (1491) 
0

>  <van_der_walls_volume>  (1491) 
259.54

>  <contains_sugar>  (1491) 
False

>  <contains_ring_sugars>  (1491) 
False

>  <contains_linear_sugars>  (1491) 
False

>  <murcko_framework>  (1491) 
nan

>  <np_likeness>  (1491) 
-0.22

>  <chemical_class>  (1491) 
Fatty Acyls

>  <chemical_sub_class>  (1491) 
Fatty amides

>  <chemical_super_class>  (1491) 
Lipids and lipid-like molecules

>  <direct_parent_classification>  (1491) 
N-acyl amines

>  <np_classifier_pathway>  (1491) 
Fatty acids

>  <np_classifier_superclass>  (1491) 
Fatty amides

>  <np_classifier_class>  (1491) 
N-acyl amines

>  <np_classifier_is_glycoside>  (1491) 
False

>  <organisms>  (1491) 
Cissampelos glaberrima|Echinacea|Piper swartzianum|Piper tuberculatum

>  <collections>  (1491) 
ChemSpider NPs|Latin America dataset|NPASS|NuBBEDB|Super Natural II|UNPD (Universal Natural Products Database)|WikiData Natural Products|ZINC NP

>  <dois>  (1491) 
10.1007/S00044-008-9161-9|10.1007/s00044-008-9161-9|10.1016/j.bmcl.2015.06.024|10.1055/S-2006-957913

>  <synonyms>  (1491) 
73785-31-6|AKOS003861312|CHEMBL2260447|DTXSID0044070|Decanamide, N-(2-methylpropyl)-|JIOJLCAPGHFHDI-UHFFFAOYSA-N|ME6A5M9U1B|N-(2-methylpropyl)decanamide|N-Isobutyl N-decanamide|Q27893473|SCHEMBL4878046|TETRAHYDROPELLITORINE|Tetrahydropellitorine|UNII-ME6A5M9U1B|n-isobutyldecanamide|starbld0048742

>  <cas>  (1491) 
73785-31-6

$$$$

     RDKit          2D

 31 35  0  0  0  0  0  0  0  0999 V2000
   -7.3593   -2.6160    0.0000 C   0  0  0  0  0  0  0  0  0  0  0  0
   -7.2787   -1.1181    0.0000 C   0  0  0  0  0  0  0  0  0  0  0  0
   -8.5356   -0.2994    0.0000 C   0  0  0  0  0  0  0  0  0  0  0  0
   -5.9413   -0.4390    0.0000 C   0  0  0  0  0  0  0  0  0  0  0  0
   -4.6057   -1.1219    0.0000 C   0  0  0  0  0  0  0  0  0  0  0  0
   -3.5436   -0.0627    0.0000 C   0  0  0  0  0  0  0  0  0  0  0  0
   -4.2227    1.2748    0.0000 C   0  0  0  0  0  0  0  0  0  0  0  0
   -3.4039    2.5316    0.0000 C   0  0  0  0  0  0  0  0  0  0  0  0
   -1.9061    2.4510    0.0000 C   0  0  0  0  0  0  0  0  0  0  0  0
   -1.0874    3.7079    0.0000 O   0  0  0  0  0  0  0  0  0  0  0  0
   -1.2270    1.1135    0.0000 C   0  0  0  0  0  0  0  0  0  0  0  0
   -2.0457   -0.1433    0.0000 C   0  0  0  0  0  0  0  0  0  0  0  0
   -1.3666   -1.4808    0.0000 O   0  0  0  0  0  0  0  0  0  0  0  0
    0.1312   -1.5614    0.0000 C   0  0  0  0  0  0  0  0  0  0  0  0
    0.8103   -2.8989    0.0000 C   0  0  0  0  0  0  0  0  0  0  0  0
    2.3082   -2.9795    0.0000 O   0  0  0  0  0  0  0  0  0  0  0  0
    3.1269   -1.7226    0.0000 C   0  0  0  0  0  0  0  0  0  0  0  0
    4.6247   -1.8032    0.0000 C   0  0  0  0  0  0  0  0  0  0  0  0
    5.4434   -0.5464    0.0000 C   0  0  0  0  0  0  0  0  0  0  0  0
    6.9413   -0.6270    0.0000 O   0  0  0  0  0  0  0  0  0  0  0  0
    7.6204   -1.9644    0.0000 C   0  0  0  0  0  0  0  0  0  0  0  0
    4.7643    0.7911    0.0000 C   0  0  0  0  0  0  0  0  0  0  0  0
    5.5831    2.0480    0.0000 O   0  0  0  0  0  0  0  0  0  0  0  0
    7.0809    1.9674    0.0000 C   0  0  0  0  0  0  0  0  0  0  0  0
    3.2665    0.8717    0.0000 C   0  0  0  0  0  0  0  0  0  0  0  0
    2.4478   -0.3851    0.0000 C   0  0  0  0  0  0  0  0  0  0  0  0
    0.9499   -0.3045    0.0000 C   0  0  0  0  0  0  0  0  0  0  0  0
    1.7687    0.9523    0.0000 O   0  0  0  0  0  0  0  0  0  0  0  0
    0.2708    1.0329    0.0000 C   0  0  0  0  0  0  0  0  0  0  0  0
    1.0896    2.2898    0.0000 O   0  0  0  0  0  0  0  0  0  0  0  0
   -5.7045    1.0422    0.0000 O   0  0  0  0  0  0  0  0  0  0  0  0
  1  2  2  0
  2  3  1  0
  4  2  1  6
  4  5  1  0
  5  6  1  0
  6  7  2  0
  7  8  1  0
  8  9  2  0
  9 10  1  0
  9 11  1  0
 11 12  2  0
 12 13  1  0
 13 14  1  0
 14 15  1  1
 15 16  1  0
 16 17  1  0
 17 18  2  0
 18 19  1  0
 19 20  1  0
 20 21  1  0
 19 22  2  0
 22 23  1  0
 23 24  1  0
 22 25  1  0
 25 26  2  0
 26 27  1  0
 27 28  1  6
 27 29  1  0
 29 30  2  0
  7 31  1  0
 31  4  1  0
 12  6  1  0
 27 14  1  0
 29 11  1  0
 26 17  1  0
M  END
>  <identifier>  (1492) 
CNP0248033.2

>  <canonical_smiles>  (1492) 
C=C(C)[C@H]1CC2=C(C=C(O)C3=C2O[C@@H]2COC4=CC(OC)=C(OC)C=C4[C@]2(O)C3=O)O1

>  <standard_inchi>  (1492) 
InChI=1S/C23H22O8/c1-10(2)14-5-11-15(30-14)7-13(24)20-21(11)31-19-9-29-16-8-18(28-4)17(27-3)6-12(16)23(19,26)22(20)25/h6-8,14,19,24,26H,1,5,9H2,2-4H3/t14-,19-,23-/m1/s1

>  <standard_inchi_key>  (1492) 
JCJPVNDLAAXNEX-WNHYQHMGSA-N

>  <name>  (1492) 
nan

>  <iupac_name>  (1492) 
(1~{R},6~{R},13~{R})-10,13-dihydroxy-6-isopropenyl-16,17-dimethoxy-2,7,20-trioxapentacyclo[11.8.0.0^{3,11}.0^{4,8}.0^{14,19}]henicosa-3(11),4(8),9,14,16,18-hexaen-12-one

>  <annotation_level>  (1492) 
4

>  <total_atom_count>  (1492) 
53

>  <heavy_atom_count>  (1492) 
31

>  <molecular_weight>  (1492) 
426.42

>  <exact_molecular_weight>  (1492) 
426.13147

>  <molecular_formula>  (1492) 
C23H22O8

>  <alogp>  (1492) 
2.51

>  <topological_polar_surface_area>  (1492) 
103.68

>  <rotatable_bond_count>  (1492) 
3

>  <hydrogen_bond_acceptors>  (1492) 
8

>  <hydrogen_bond_donors>  (1492) 
2

>  <hydrogen_bond_acceptors_lipinski>  (1492) 
8

>  <hydrogen_bond_donors_lipinski>  (1492) 
2

>  <lipinski_rule_of_five_violations>  (1492) 
0

>  <aromatic_rings_count>  (1492) 
2

>  <qed_drug_likeliness>  (1492) 
0.72

>  <formal_charge>  (1492) 
0

>  <fractioncsp3>  (1492) 
0.35

>  <number_of_minimal_rings>  (1492) 
5

>  <van_der_walls_volume>  (1492) 
nan

>  <contains_sugar>  (1492) 
False

>  <contains_ring_sugars>  (1492) 
False

>  <contains_linear_sugars>  (1492) 
False

>  <murcko_framework>  (1492) 
O1c2ccc3c(OC4COc5ccccc5C4C3)c2CC1

>  <np_likeness>  (1492) 
2.36

>  <chemical_class>  (1492) 
Isoflavonoids

>  <chemical_sub_class>  (1492) 
Rotenoids

>  <chemical_super_class>  (1492) 
Phenylpropanoids and polyketides

>  <direct_parent_classification>  (1492) 
Rotenones

>  <np_classifier_pathway>  (1492) 
Shikimates and Phenylpropanoids

>  <np_classifier_superclass>  (1492) 
Isoflavonoids

>  <np_classifier_class>  (1492) 
Rotenoids

>  <np_classifier_is_glycoside>  (1492) 
False

>  <organisms>  (1492) 
Tephrosia candida|Tephrosia purpurea|Tephrosia villosa|Tephrosia viridiflora

>  <collections>  (1492) 
Australian natural products|Latin America dataset|NuBBEDB|Super Natural II|WikiData Natural Products|ZINC NP

>  <dois>  (1492) 
10.1002/(SICI)1521-4168(19980901)21:9<513::AID-JHRC513>3.0.CO,2-F|10.1016/S0031-9422(00)83209-4|10.1016/S0040-4039(01)83698-4|10.1080/14786419.2014.940587

>  <synonyms>  (1492) 
1112a-dihydroxy-rotenone

>  <cas>  (1492) 
nan

$$$$

     RDKit          2D

 21 23  0  0  0  0  0  0  0  0999 V2000
    7.1163   -2.3882    0.0000 C   0  0  0  0  0  0  0  0  0  0  0  0
    7.0087   -0.8921    0.0000 O   0  0  0  0  0  0  0  0  0  0  0  0
    5.6591   -0.2373    0.0000 C   0  0  0  0  0  0  0  0  0  0  0  0
    4.4173   -1.0786    0.0000 C   0  0  0  0  0  0  0  0  0  0  0  0
    3.0678   -0.4238    0.0000 C   0  0  0  0  0  0  0  0  0  0  0  0
    2.9601    1.0724    0.0000 C   0  0  0  0  0  0  0  0  0  0  0  0
    1.6106    1.7272    0.0000 C   0  0  0  0  0  0  0  0  0  0  0  0
    0.3687    0.8859    0.0000 C   0  0  0  0  0  0  0  0  0  0  0  0
   -0.9808    1.5407    0.0000 C   0  0  0  0  0  0  0  0  0  0  0  0
   -2.2226    0.6994    0.0000 C   0  0  0  0  0  0  0  0  0  0  0  0
   -3.5722    1.3542    0.0000 C   0  0  0  0  0  0  0  0  0  0  0  0
   -4.8140    0.5129    0.0000 C   0  0  0  0  0  0  0  0  0  0  0  0
   -4.7064   -0.9832    0.0000 C   0  0  0  0  0  0  0  0  0  0  0  0
   -3.3568   -1.6380    0.0000 C   0  0  0  0  0  0  0  0  0  0  0  0
   -2.1150   -0.7967    0.0000 C   0  0  0  0  0  0  0  0  0  0  0  0
   -0.7655   -1.4515    0.0000 O   0  0  0  0  0  0  0  0  0  0  0  0
   -6.0960   -1.5479    0.0000 O   0  0  0  0  0  0  0  0  0  0  0  0
   -7.0625   -0.4008    0.0000 C   0  0  0  0  0  0  0  0  0  0  0  0
   -6.2702    0.8729    0.0000 O   0  0  0  0  0  0  0  0  0  0  0  0
    4.2020    1.9137    0.0000 C   0  0  0  0  0  0  0  0  0  0  0  0
    5.5515    1.2588    0.0000 C   0  0  0  0  0  0  0  0  0  0  0  0
  1  2  1  0
  2  3  1  0
  3  4  2  0
  4  5  1  0
  5  6  2  0
  6  7  1  0
  7  8  1  0
  8  9  1  0
  9 10  1  0
 10 11  2  0
 11 12  1  0
 12 13  2  0
 13 14  1  0
 14 15  2  0
 15 16  1  0
 13 17  1  0
 17 18  1  0
 18 19  1  0
  6 20  1  0
 20 21  2  0
 21  3  1  0
 15 10  1  0
 19 12  1  0
M  END
>  <identifier>  (1493) 
CNP0301643.0

>  <canonical_smiles>  (1493) 
COC1=CC=C(CCCC2=CC3=C(C=C2O)OCO3)C=C1

>  <standard_inchi>  (1493) 
InChI=1S/C17H18O4/c1-19-14-7-5-12(6-8-14)3-2-4-13-9-16-17(10-15(13)18)21-11-20-16/h5-10,18H,2-4,11H2,1H3

>  <standard_inchi_key>  (1493) 
CKBQMLRACZCDOB-UHFFFAOYSA-N

>  <name>  (1493) 
nan

>  <iupac_name>  (1493) 
6-[3-(4-methoxyphenyl)propyl]-1,3-benzodioxol-5-ol

>  <annotation_level>  (1493) 
4

>  <total_atom_count>  (1493) 
39

>  <heavy_atom_count>  (1493) 
21

>  <molecular_weight>  (1493) 
286.33

>  <exact_molecular_weight>  (1493) 
286.12051

>  <molecular_formula>  (1493) 
C17H18O4

>  <alogp>  (1493) 
3.30

>  <topological_polar_surface_area>  (1493) 
47.92

>  <rotatable_bond_count>  (1493) 
5

>  <hydrogen_bond_acceptors>  (1493) 
4

>  <hydrogen_bond_donors>  (1493) 
1

>  <hydrogen_bond_acceptors_lipinski>  (1493) 
4

>  <hydrogen_bond_donors_lipinski>  (1493) 
1

>  <lipinski_rule_of_five_violations>  (1493) 
0

>  <aromatic_rings_count>  (1493) 
2

>  <qed_drug_likeliness>  (1493) 
0.92

>  <formal_charge>  (1493) 
0

>  <fractioncsp3>  (1493) 
0.29

>  <number_of_minimal_rings>  (1493) 
3

>  <van_der_walls_volume>  (1493) 
nan

>  <contains_sugar>  (1493) 
False

>  <contains_ring_sugars>  (1493) 
False

>  <contains_linear_sugars>  (1493) 
False

>  <murcko_framework>  (1493) 
O1c2ccc(cc2OC1)CCCc3ccccc3

>  <np_likeness>  (1493) 
0.50

>  <chemical_class>  (1493) 
Benzodioxoles

>  <chemical_sub_class>  (1493) 
Benzodioxoles

>  <chemical_super_class>  (1493) 
Organoheterocyclic compounds

>  <direct_parent_classification>  (1493) 
Benzodioxoles

>  <np_classifier_pathway>  (1493) 
Shikimates and Phenylpropanoids

>  <np_classifier_superclass>  (1493) 
Lignans

>  <np_classifier_class>  (1493) 
nan

>  <np_classifier_is_glycoside>  (1493) 
False

>  <organisms>  (1493) 
Iryanthera coriacea

>  <collections>  (1493) 
Latin America dataset|NuBBEDB|Super Natural II|UNPD (Universal Natural Products Database)|ZINC NP

>  <dois>  (1493) 
10.1016/0031-9422(75)85305-3

>  <synonyms>  (1493) 
1-(4-methoxyphenyl)-3-(2-hydroxy-45-methylenedioxyphenyl)-propane

>  <cas>  (1493) 
nan

$$$$

     RDKit          2D

 16 17  0  0  0  0  0  0  0  0999 V2000
   -4.3647    1.2734    0.0000 C   0  0  0  0  0  0  0  0  0  0  0  0
   -3.8040   -0.1179    0.0000 O   0  0  0  0  0  0  0  0  0  0  0  0
   -2.3188   -0.3280    0.0000 C   0  0  0  0  0  0  0  0  0  0  0  0
   -1.7581   -1.7193    0.0000 C   0  0  0  0  0  0  0  0  0  0  0  0
   -0.2729   -1.9294    0.0000 C   0  0  0  0  0  0  0  0  0  0  0  0
    0.2878   -3.3206    0.0000 O   0  0  0  0  0  0  0  0  0  0  0  0
    0.6516   -0.7482    0.0000 C   0  0  0  0  0  0  0  0  0  0  0  0
    2.1369   -0.9582    0.0000 C   0  0  0  0  0  0  0  0  0  0  0  0
    2.6975   -2.3495    0.0000 O   0  0  0  0  0  0  0  0  0  0  0  0
    3.0614    0.2230    0.0000 O   0  0  0  0  0  0  0  0  0  0  0  0
    2.5007    1.6142    0.0000 C   0  0  0  0  0  0  0  0  0  0  0  0
    3.4253    2.7954    0.0000 C   0  0  0  0  0  0  0  0  0  0  0  0
    1.0155    1.8243    0.0000 C   0  0  0  0  0  0  0  0  0  0  0  0
    0.0910    0.6431    0.0000 C   0  0  0  0  0  0  0  0  0  0  0  0
   -1.3942    0.8532    0.0000 C   0  0  0  0  0  0  0  0  0  0  0  0
   -1.9549    2.2445    0.0000 Cl  0  0  0  0  0  0  0  0  0  0  0  0
  1  2  1  0
  2  3  1  0
  3  4  2  0
  4  5  1  0
  5  6  1  0
  5  7  2  0
  7  8  1  0
  8  9  2  0
  8 10  1  0
 10 11  1  0
 11 12  1  0
 11 13  2  0
 13 14  1  0
 14 15  2  0
 15 16  1  0
 15  3  1  0
 14  7  1  0
M  END
>  <identifier>  (1494) 
CNP0258250.0

>  <canonical_smiles>  (1494) 
COC1=CC(O)=C2C(=O)OC(C)=CC2=C1Cl

>  <standard_inchi>  (1494) 
InChI=1S/C11H9ClO4/c1-5-3-6-9(11(14)16-5)7(13)4-8(15-2)10(6)12/h3-4,13H,1-2H3

>  <standard_inchi_key>  (1494) 
OLFVCAXSCZMHMU-UHFFFAOYSA-N

>  <name>  (1494) 
5-Chloro-8-hydroxy-6-methoxy-3-methyl-1H-2-benzopyran-1-one

>  <iupac_name>  (1494) 
5-chloro-8-hydroxy-6-methoxy-3-methyl-isochromen-1-one

>  <annotation_level>  (1494) 
5

>  <total_atom_count>  (1494) 
25

>  <heavy_atom_count>  (1494) 
16

>  <molecular_weight>  (1494) 
240.64

>  <exact_molecular_weight>  (1494) 
240.01894

>  <molecular_formula>  (1494) 
C11H9ClO4

>  <alogp>  (1494) 
2.47

>  <topological_polar_surface_area>  (1494) 
59.67

>  <rotatable_bond_count>  (1494) 
1

>  <hydrogen_bond_acceptors>  (1494) 
4

>  <hydrogen_bond_donors>  (1494) 
1

>  <hydrogen_bond_acceptors_lipinski>  (1494) 
4

>  <hydrogen_bond_donors_lipinski>  (1494) 
1

>  <lipinski_rule_of_five_violations>  (1494) 
0

>  <aromatic_rings_count>  (1494) 
2

>  <qed_drug_likeliness>  (1494) 
0.83

>  <formal_charge>  (1494) 
0

>  <fractioncsp3>  (1494) 
0.18

>  <number_of_minimal_rings>  (1494) 
2

>  <van_der_walls_volume>  (1494) 
nan

>  <contains_sugar>  (1494) 
False

>  <contains_ring_sugars>  (1494) 
False

>  <contains_linear_sugars>  (1494) 
False

>  <murcko_framework>  (1494) 
O1C=Cc2ccccc2C1

>  <np_likeness>  (1494) 
1.05

>  <chemical_class>  (1494) 
Isocoumarins and derivatives

>  <chemical_sub_class>  (1494) 
Isocoumarins and derivatives

>  <chemical_super_class>  (1494) 
Phenylpropanoids and polyketides

>  <direct_parent_classification>  (1494) 
Isocoumarins and derivatives

>  <np_classifier_pathway>  (1494) 
Shikimates and Phenylpropanoids

>  <np_classifier_superclass>  (1494) 
Coumarins

>  <np_classifier_class>  (1494) 
Isocoumarins

>  <np_classifier_is_glycoside>  (1494) 
False

>  <organisms>  (1494) 
Swartzia laevicarpa

>  <collections>  (1494) 
Latin America dataset|NPEdia|NuBBEDB|Super Natural II|UNPD (Universal Natural Products Database)|WikiData Natural Products|ZINC NP

>  <dois>  (1494) 
10.1016/0031-9422(80)83022-6

>  <synonyms>  (1494) 
1H-2-Benzopyran-1-one, 5-chloro-8-hydroxy-6-methoxy-3-methyl-|5-Chloro-8-hydroxy-6-methoxy-3-methyl-1H-isochromen-1-one #|5-chloro-8-hydroxy-6-methox y-3-methylisocoumarin|55044-85-4|DB-306690|OLFVCAXSCZMHMU-UHFFFAOYSA-N

>  <cas>  (1494) 
55044-85-4

$$$$

     RDKit          2D

 29 32  0  0  0  0  0  0  0  0999 V2000
    4.1251    4.7816    0.0000 C   0  0  0  0  0  0  0  0  0  0  0  0
    4.0288    3.2847    0.0000 C   0  0  0  0  0  0  0  0  0  0  0  0
    2.6843    2.6197    0.0000 C   0  0  0  0  0  0  0  0  0  0  0  0
    2.5879    1.1228    0.0000 C   0  0  0  0  0  0  0  0  0  0  0  0
    3.8361    0.2909    0.0000 C   0  0  0  0  0  0  0  0  0  0  0  0
    3.7398   -1.2060    0.0000 C   0  0  0  0  0  0  0  0  0  0  0  0
    4.9880   -2.0379    0.0000 O   0  0  0  0  0  0  0  0  0  0  0  0
    4.8917   -3.5348    0.0000 C   0  0  0  0  0  0  0  0  0  0  0  0
    2.3953   -1.8711    0.0000 C   0  0  0  0  0  0  0  0  0  0  0  0
    2.2990   -3.3680    0.0000 O   0  0  0  0  0  0  0  0  0  0  0  0
    1.1471   -1.0392    0.0000 C   0  0  0  0  0  0  0  0  0  0  0  0
   -0.1974   -1.7042    0.0000 O   0  0  0  0  0  0  0  0  0  0  0  0
   -0.2937   -3.2011    0.0000 C   0  0  0  0  0  0  0  0  0  0  0  0
    1.2434    0.4577    0.0000 C   0  0  0  0  0  0  0  0  0  0  0  0
   -0.0048    1.2896    0.0000 O   0  0  0  0  0  0  0  0  0  0  0  0
    0.3119    0.2800    0.0000 C   0  0  0  0  0  0  0  0  0  0  0  0
   -1.1869    0.2193    0.0000 C   0  0  0  0  0  0  0  0  0  0  0  0
   -1.8837   -1.1090    0.0000 C   0  0  0  0  0  0  0  0  0  0  0  0
   -3.3825   -1.1697    0.0000 C   0  0  0  0  0  0  0  0  0  0  0  0
   -4.0793   -2.4980    0.0000 O   0  0  0  0  0  0  0  0  0  0  0  0
   -3.2774   -3.7656    0.0000 C   0  0  0  0  0  0  0  0  0  0  0  0
   -4.1844    0.0980    0.0000 C   0  0  0  0  0  0  0  0  0  0  0  0
   -5.6630    0.3502    0.0000 O   0  0  0  0  0  0  0  0  0  0  0  0
   -5.8801    1.8344    0.0000 C   0  0  0  0  0  0  0  0  0  0  0  0
   -4.5355    2.4995    0.0000 O   0  0  0  0  0  0  0  0  0  0  0  0
   -3.4876    1.4263    0.0000 C   0  0  0  0  0  0  0  0  0  0  0  0
   -1.9888    1.4870    0.0000 C   0  0  0  0  0  0  0  0  0  0  0  0
    1.1438    1.5282    0.0000 C   0  0  0  0  0  0  0  0  0  0  0  0
    0.6229    2.9349    0.0000 C   0  0  0  0  0  0  0  0  0  0  0  0
  1  2  2  0
  2  3  1  0
  4  3  1  1
  4  5  1  0
  5  6  1  0
  6  7  1  1
  7  8  1  0
  6  9  1  0
  9 10  1  1
  9 11  1  0
 11 12  1  1
 12 13  1  0
 11 14  1  0
 14 15  2  0
 11 16  1  0
 16 17  1  1
 17 18  2  0
 18 19  1  0
 19 20  1  0
 20 21  1  0
 19 22  2  0
 22 23  1  0
 23 24  1  0
 24 25  1  0
 25 26  1  0
 26 27  2  0
 16 28  1  0
 28 29  1  6
 14  4  1  0
 27 17  1  0
 28  4  1  0
 26 22  1  0
M  END
>  <identifier>  (1495) 
CNP0195833.1

>  <canonical_smiles>  (1495) 
C=CC[C@@]12C[C@@H](OC)[C@@H](O)[C@@](OC)(C1=O)[C@@H](C1=CC(OC)=C3OCOC3=C1)[C@@H]2C

>  <standard_inchi>  (1495) 
InChI=1S/C22H28O7/c1-6-7-21-10-16(26-4)19(23)22(27-5,20(21)24)17(12(21)2)13-8-14(25-3)18-15(9-13)28-11-29-18/h6,8-9,12,16-17,19,23H,1,7,10-11H2,2-5H3/t12-,16+,17+,19+,21-,22+/m0/s1

>  <standard_inchi_key>  (1495) 
OSNJRHOBDDTKCX-FERZPMALSA-N

>  <name>  (1495) 
nan

>  <iupac_name>  (1495) 
(1~{R},2~{R},3~{R},5~{S},6~{S},7~{R})-5-allyl-2-hydroxy-1,3-dimethoxy-7-(7-methoxy-1,3-benzodioxol-5-yl)-6-methyl-bicyclo[3.2.1]octan-8-one

>  <annotation_level>  (1495) 
3

>  <total_atom_count>  (1495) 
57

>  <heavy_atom_count>  (1495) 
29

>  <molecular_weight>  (1495) 
404.46

>  <exact_molecular_weight>  (1495) 
404.1835

>  <molecular_formula>  (1495) 
C22H28O7

>  <alogp>  (1495) 
2.45

>  <topological_polar_surface_area>  (1495) 
83.45

>  <rotatable_bond_count>  (1495) 
6

>  <hydrogen_bond_acceptors>  (1495) 
7

>  <hydrogen_bond_donors>  (1495) 
1

>  <hydrogen_bond_acceptors_lipinski>  (1495) 
7

>  <hydrogen_bond_donors_lipinski>  (1495) 
1

>  <lipinski_rule_of_five_violations>  (1495) 
0

>  <aromatic_rings_count>  (1495) 
1

>  <qed_drug_likeliness>  (1495) 
0.73

>  <formal_charge>  (1495) 
0

>  <fractioncsp3>  (1495) 
0.59

>  <number_of_minimal_rings>  (1495) 
4

>  <van_der_walls_volume>  (1495) 
nan

>  <contains_sugar>  (1495) 
False

>  <contains_ring_sugars>  (1495) 
False

>  <contains_linear_sugars>  (1495) 
False

>  <murcko_framework>  (1495) 
O1c2ccc(cc2OC1)C3CC4CCCC3C4

>  <np_likeness>  (1495) 
1.83

>  <chemical_class>  (1495) 
Benzodioxoles

>  <chemical_sub_class>  (1495) 
Benzodioxoles

>  <chemical_super_class>  (1495) 
Organoheterocyclic compounds

>  <direct_parent_classification>  (1495) 
Benzodioxoles

>  <np_classifier_pathway>  (1495) 
Shikimates and Phenylpropanoids

>  <np_classifier_superclass>  (1495) 
Lignans

>  <np_classifier_class>  (1495) 
Neolignans

>  <np_classifier_is_glycoside>  (1495) 
False

>  <organisms>  (1495) 
Aniba|Aniba sp.

>  <collections>  (1495) 
Latin America dataset|NuBBEDB|WikiData Natural Products

>  <dois>  (1495) 
10.1016/S0031-9422(82)85050-4

>  <synonyms>  (1495) 
nan

>  <cas>  (1495) 
nan

$$$$

     RDKit          2D

 35 37  0  0  0  0  0  0  0  0999 V2000
    7.6868   -2.0352    0.0000 C   0  0  0  0  0  0  0  0  0  0  0  0
    6.9786   -0.7129    0.0000 O   0  0  0  0  0  0  0  0  0  0  0  0
    5.4794   -0.6651    0.0000 C   0  0  0  0  0  0  0  0  0  0  0  0
    4.6883   -1.9395    0.0000 C   0  0  0  0  0  0  0  0  0  0  0  0
    3.1891   -1.8917    0.0000 C   0  0  0  0  0  0  0  0  0  0  0  0
    2.3981   -3.1661    0.0000 C   0  0  0  0  0  0  0  0  0  0  0  0
    0.8988   -3.1183    0.0000 C   0  0  0  0  0  0  0  0  0  0  0  0
   -0.0211   -4.3031    0.0000 C   0  0  0  0  0  0  0  0  0  0  0  0
   -1.4322   -3.7943    0.0000 O   0  0  0  0  0  0  0  0  0  0  0  0
   -1.3843   -2.2950    0.0000 C   0  0  0  0  0  0  0  0  0  0  0  0
   -2.5691   -1.3751    0.0000 C   0  0  0  0  0  0  0  0  0  0  0  0
   -2.3648    0.1109    0.0000 C   0  0  0  0  0  0  0  0  0  0  0  0
   -3.5496    1.0309    0.0000 C   0  0  0  0  0  0  0  0  0  0  0  0
   -4.9387    0.4648    0.0000 C   0  0  0  0  0  0  0  0  0  0  0  0
   -6.1235    1.3847    0.0000 O   0  0  0  0  0  0  0  0  0  0  0  0
   -5.9192    2.8708    0.0000 C   0  0  0  0  0  0  0  0  0  0  0  0
   -7.1040    3.7907    0.0000 C   0  0  0  0  0  0  0  0  0  0  0  0
   -4.5301    3.4368    0.0000 O   0  0  0  0  0  0  0  0  0  0  0  0
   -5.1430   -1.0212    0.0000 C   0  0  0  0  0  0  0  0  0  0  0  0
   -6.5321   -1.5873    0.0000 O   0  0  0  0  0  0  0  0  0  0  0  0
   -6.7364   -3.0733    0.0000 C   0  0  0  0  0  0  0  0  0  0  0  0
   -3.9582   -1.9412    0.0000 C   0  0  0  0  0  0  0  0  0  0  0  0
    0.0563   -1.8772    0.0000 C   0  0  0  0  0  0  0  0  0  0  0  0
    0.5651   -0.4662    0.0000 C   0  0  0  0  0  0  0  0  0  0  0  0
   -0.4025    0.6800    0.0000 O   0  0  0  0  0  0  0  0  0  0  0  0
    0.1063    2.0911    0.0000 C   0  0  0  0  0  0  0  0  0  0  0  0
   -0.8614    3.2372    0.0000 C   0  0  0  0  0  0  0  0  0  0  0  0
    1.5827    2.3560    0.0000 O   0  0  0  0  0  0  0  0  0  0  0  0
    2.4809   -0.5694    0.0000 C   0  0  0  0  0  0  0  0  0  0  0  0
    3.2720    0.7051    0.0000 C   0  0  0  0  0  0  0  0  0  0  0  0
    4.7712    0.6572    0.0000 C   0  0  0  0  0  0  0  0  0  0  0  0
    5.5623    1.9317    0.0000 O   0  0  0  0  0  0  0  0  0  0  0  0
    4.8541    3.2540    0.0000 C   0  0  0  0  0  0  0  0  0  0  0  0
    5.6452    4.5284    0.0000 C   0  0  0  0  0  0  0  0  0  0  0  0
    3.3549    3.3018    0.0000 O   0  0  0  0  0  0  0  0  0  0  0  0
  1  2  1  0
  2  3  1  0
  3  4  2  0
  4  5  1  0
  5  6  1  0
  7  6  1  1
  7  8  1  0
  8  9  1  0
  9 10  1  0
 10 11  1  6
 11 12  2  0
 12 13  1  0
 13 14  2  0
 14 15  1  0
 15 16  1  0
 16 17  1  0
 16 18  2  0
 14 19  1  0
 19 20  1  0
 20 21  1  0
 19 22  2  0
 10 23  1  0
 23 24  1  1
 24 25  1  0
 25 26  1  0
 26 27  1  0
 26 28  2  0
  5 29  2  0
 29 30  1  0
 30 31  2  0
 31 32  1  0
 32 33  1  0
 33 34  1  0
 33 35  2  0
 31  3  1  0
 23  7  1  0
 22 11  1  0
M  END
>  <identifier>  (1496) 
CNP0139542.1

>  <canonical_smiles>  (1496) 
COC1=CC(C[C@H]2CO[C@H](C3=CC=C(OC(C)=O)C(OC)=C3)[C@H]2COC(C)=O)=CC=C1OC(C)=O

>  <standard_inchi>  (1496) 
InChI=1S/C26H30O9/c1-15(27)32-14-21-20(10-18-6-8-22(34-16(2)28)24(11-18)30-4)13-33-26(21)19-7-9-23(35-17(3)29)25(12-19)31-5/h6-9,11-12,20-21,26H,10,13-14H2,1-5H3/t20-,21-,26+/m0/s1

>  <standard_inchi_key>  (1496) 
NOMOBMZKLQAXFS-ISJBWFOZSA-N

>  <name>  (1496) 
nan

>  <iupac_name>  (1496) 
[(2~{S},3~{R},4~{R})-2-(4-acetoxy-3-methoxy-phenyl)-4-[(4-acetoxy-3-methoxy-phenyl)methyl]tetrahydrofuran-3-yl]methyl acetate

>  <annotation_level>  (1496) 
4

>  <total_atom_count>  (1496) 
65

>  <heavy_atom_count>  (1496) 
35

>  <molecular_weight>  (1496) 
486.52

>  <exact_molecular_weight>  (1496) 
486.18898

>  <molecular_formula>  (1496) 
C26H30O9

>  <alogp>  (1496) 
3.66

>  <topological_polar_surface_area>  (1496) 
106.59

>  <rotatable_bond_count>  (1496) 
9

>  <hydrogen_bond_acceptors>  (1496) 
9

>  <hydrogen_bond_donors>  (1496) 
0

>  <hydrogen_bond_acceptors_lipinski>  (1496) 
9

>  <hydrogen_bond_donors_lipinski>  (1496) 
0

>  <lipinski_rule_of_five_violations>  (1496) 
0

>  <aromatic_rings_count>  (1496) 
2

>  <qed_drug_likeliness>  (1496) 
0.39

>  <formal_charge>  (1496) 
0

>  <fractioncsp3>  (1496) 
0.42

>  <number_of_minimal_rings>  (1496) 
3

>  <van_der_walls_volume>  (1496) 
nan

>  <contains_sugar>  (1496) 
False

>  <contains_ring_sugars>  (1496) 
False

>  <contains_linear_sugars>  (1496) 
False

>  <murcko_framework>  (1496) 
O1CC(Cc2ccccc2)CC1c3ccccc3

>  <np_likeness>  (1496) 
1.06

>  <chemical_class>  (1496) 
Furanoid lignans

>  <chemical_sub_class>  (1496) 
Tetrahydrofuran lignans

>  <chemical_super_class>  (1496) 
Lignans, neolignans and related compounds

>  <direct_parent_classification>  (1496) 
7,9'-epoxylignans

>  <np_classifier_pathway>  (1496) 
Shikimates and Phenylpropanoids

>  <np_classifier_superclass>  (1496) 
Lignans

>  <np_classifier_class>  (1496) 
Furanoid lignans

>  <np_classifier_is_glycoside>  (1496) 
False

>  <organisms>  (1496) 
Araucaria angustifolia

>  <collections>  (1496) 
Latin America dataset|NuBBEDB|WikiData Natural Products|ZINC NP

>  <dois>  (1496) 
10.1016/0031-9422(79)80188-0|10.1016/S0031-9422(00)89347-4

>  <synonyms>  (1496) 
lariciresinol triacetate

>  <cas>  (1496) 
nan

$$$$

     RDKit          2D

 43 47  0  0  0  0  0  0  0  0999 V2000
    8.5182   -0.5959    0.0000 C   0  0  0  0  0  0  0  0  0  0  0  0
    7.0269   -0.7571    0.0000 O   0  0  0  0  0  0  0  0  0  0  0  0
    6.1415    0.4537    0.0000 C   0  0  0  0  0  0  0  0  0  0  0  0
    6.9103    1.7418    0.0000 O   0  0  0  0  0  0  0  0  0  0  0  0
    4.6502    0.2924    0.0000 C   0  0  0  0  0  0  0  0  0  0  0  0
    5.0680   -1.1482    0.0000 C   0  0  0  0  0  0  0  0  0  0  0  0
    4.7504    1.7891    0.0000 C   0  0  0  0  0  0  0  0  0  0  0  0
    6.0059    2.6099    0.0000 O   0  0  0  0  0  0  0  0  0  0  0  0
    3.5043    2.6241    0.0000 C   0  0  0  0  0  0  0  0  0  0  0  0
    2.1581    1.9625    0.0000 C   0  0  0  0  0  0  0  0  0  0  0  0
    2.0580    0.4658    0.0000 C   0  0  0  0  0  0  0  0  0  0  0  0
    0.8119    1.3009    0.0000 C   0  0  0  0  0  0  0  0  0  0  0  0
    3.3040   -0.3692    0.0000 C   0  0  0  0  0  0  0  0  0  0  0  0
    3.2039   -1.8658    0.0000 C   0  0  0  0  0  0  0  0  0  0  0  0
    4.4500   -2.7009    0.0000 O   0  0  0  0  0  0  0  0  0  0  0  0
    1.8577   -2.5275    0.0000 C   0  0  0  0  0  0  0  0  0  0  0  0
    1.7576   -4.0241    0.0000 O   0  0  0  0  0  0  0  0  0  0  0  0
    0.6116   -1.6924    0.0000 C   0  0  0  0  0  0  0  0  0  0  0  0
    0.5115   -3.1891    0.0000 C   0  0  0  0  0  0  0  0  0  0  0  0
   -0.7346   -2.3541    0.0000 C   0  0  0  0  0  0  0  0  0  0  0  0
   -1.1437   -3.7972    0.0000 C   0  0  0  0  0  0  0  0  0  0  0  0
   -2.6426   -3.8541    0.0000 C   0  0  0  0  0  0  0  0  0  0  0  0
   -3.1599   -2.4461    0.0000 C   0  0  0  0  0  0  0  0  0  0  0  0
   -4.6030   -2.0370    0.0000 C   0  0  0  0  0  0  0  0  0  0  0  0
   -5.7822   -2.9640    0.0000 C   0  0  0  0  0  0  0  0  0  0  0  0
   -7.0283   -2.1290    0.0000 O   0  0  0  0  0  0  0  0  0  0  0  0
   -6.6192   -0.6858    0.0000 C   0  0  0  0  0  0  0  0  0  0  0  0
   -5.1203   -0.6290    0.0000 C   0  0  0  0  0  0  0  0  0  0  0  0
   -1.9806   -1.5190    0.0000 C   0  0  0  0  0  0  0  0  0  0  0  0
   -3.3072   -0.8188    0.0000 C   0  0  0  0  0  0  0  0  0  0  0  0
   -1.8805   -0.0224    0.0000 C   0  0  0  0  0  0  0  0  0  0  0  0
   -3.1266    0.8127    0.0000 O   0  0  0  0  0  0  0  0  0  0  0  0
   -3.0265    2.3093    0.0000 C   0  0  0  0  0  0  0  0  0  0  0  0
   -2.4174    2.8236    0.0000 O   0  0  0  0  0  0  0  0  0  0  0  0
   -4.2726    3.1444    0.0000 C   0  0  0  0  0  0  0  0  0  0  0  0
   -4.1724    4.6410    0.0000 C   0  0  0  0  0  0  0  0  0  0  0  0
   -5.6188    2.4827    0.0000 C   0  0  0  0  0  0  0  0  0  0  0  0
   -0.5343    0.6393    0.0000 C   0  0  0  0  0  0  0  0  0  0  0  0
   -0.4342    2.1359    0.0000 O   0  0  0  0  0  0  0  0  0  0  0  0
   -1.6803    2.9709    0.0000 C   0  0  0  0  0  0  0  0  0  0  0  0
   -1.5802    4.4676    0.0000 C   0  0  0  0  0  0  0  0  0  0  0  0
   -3.1466    2.6547    0.0000 O   0  0  0  0  0  0  0  0  0  0  0  0
    0.7118   -0.1958    0.0000 C   0  0  0  0  0  0  0  0  0  0  0  0
  1  2  1  0
  2  3  1  0
  3  4  2  0
  3  5  1  0
  5  6  1  1
  5  7  1  0
  7  8  2  0
  7  9  1  0
  9 10  2  0
 10 11  1  0
 11 12  1  6
 11 13  1  0
 13 14  2  0
 14 15  1  0
 14 16  1  0
 16 17  2  0
 16 18  1  0
 18 19  1  6
 18 20  1  0
 20 21  2  0
 21 22  1  0
 22 23  1  0
 23 24  1  1
 24 25  2  0
 25 26  1  0
 26 27  1  0
 27 28  2  0
 23 29  1  0
 29 30  1  1
 29 31  1  0
 31 32  1  1
 32 33  1  0
 33 34  2  0
 33 35  1  0
 35 36  1  0
 35 37  1  0
 31 38  1  0
 38 39  1  6
 39 40  1  0
 40 41  1  0
 40 42  2  0
 38 43  1  0
 13  5  1  0
 43 18  1  0
 43 11  1  6
 29 20  1  0
 28 24  1  0
M  END
>  <identifier>  (1497) 
CNP0080448.1

>  <canonical_smiles>  (1497) 
COC(=O)[C@@]1(C)C(=O)C=C[C@@]2(C)C1=C(O)C(=O)[C@@]1(C)C3=CC[C@@H](C4=COC=C4)[C@]3(C)[C@@H](OC(=O)C(C)C)[C@H](OC(C)=O)[C@@H]12

>  <standard_inchi>  (1497) 
InChI=1S/C33H38O10/c1-16(2)28(38)43-27-23(42-17(3)34)25-30(4)13-11-21(35)33(7,29(39)40-8)24(30)22(36)26(37)32(25,6)20-10-9-19(31(20,27)5)18-12-14-41-15-18/h10-16,19,23,25,27,36H,9H2,1-8H3/t19-,23+,25+,27-,30-,31-,32-,33-/m0/s1

>  <standard_inchi_key>  (1497) 
WGOAIFKCEHANND-BYVQRJCNSA-N

>  <name>  (1497) 
nan

>  <iupac_name>  (1497) 
methyl (4~{R},8~{R},9~{R},10~{R},11~{R},12~{R},13~{S},17~{S})-11-acetoxy-17-(3-furyl)-6-hydroxy-4,8,10,13-tetramethyl-12-(2-methylpropanoyloxy)-3,7-dioxo-11,12,16,17-tetrahydro-9~{H}-cyclopenta[a]phenanthrene-4-carboxylate

>  <annotation_level>  (1497) 
4

>  <total_atom_count>  (1497) 
81

>  <heavy_atom_count>  (1497) 
43

>  <molecular_weight>  (1497) 
594.66

>  <exact_molecular_weight>  (1497) 
594.2465

>  <molecular_formula>  (1497) 
C33H38O10

>  <alogp>  (1497) 
4.55

>  <topological_polar_surface_area>  (1497) 
146.41

>  <rotatable_bond_count>  (1497) 
5

>  <hydrogen_bond_acceptors>  (1497) 
10

>  <hydrogen_bond_donors>  (1497) 
1

>  <hydrogen_bond_acceptors_lipinski>  (1497) 
10

>  <hydrogen_bond_donors_lipinski>  (1497) 
1

>  <lipinski_rule_of_five_violations>  (1497) 
1

>  <aromatic_rings_count>  (1497) 
1

>  <qed_drug_likeliness>  (1497) 
0.22

>  <formal_charge>  (1497) 
0

>  <fractioncsp3>  (1497) 
0.55

>  <number_of_minimal_rings>  (1497) 
5

>  <van_der_walls_volume>  (1497) 
nan

>  <contains_sugar>  (1497) 
False

>  <contains_ring_sugars>  (1497) 
False

>  <contains_linear_sugars>  (1497) 
False

>  <murcko_framework>  (1497) 
o1ccc(c1)C2CC=C3C4CC=C5CCC=CC5C4CCC32

>  <np_likeness>  (1497) 
2.81

>  <chemical_class>  (1497) 
Steroids and steroid derivatives

>  <chemical_sub_class>  (1497) 
17-furanylsteroids and derivatives

>  <chemical_super_class>  (1497) 
Lipids and lipid-like molecules

>  <direct_parent_classification>  (1497) 
17-furanylsteroids and derivatives

>  <np_classifier_pathway>  (1497) 
Terpenoids

>  <np_classifier_superclass>  (1497) 
Triterpenoids

>  <np_classifier_class>  (1497) 
Limonoids

>  <np_classifier_is_glycoside>  (1497) 
False

>  <organisms>  (1497) 
Trichilia hirta

>  <collections>  (1497) 
Latin America dataset|NuBBEDB|UEFS (Natural Products Databse of the UEFS)|WikiData Natural Products|ZINC NP

>  <dois>  (1497) 
10.1016/0031-9422(92)90048-U

>  <synonyms>  (1497) 
methyl 11\u221a\u00e9\u00ac\u2264-acetoxy- 6-hydroxy-12\u221a\u00e9\u00ac\u00b1-(2-methylpropionyloxy)-37-dioxo- 15142022-meliacapentaen-29-oate

>  <cas>  (1497) 
nan

$$$$

     RDKit          2D

 18 18  0  0  0  0  0  0  0  0999 V2000
   -6.4944    0.7564    0.0000 C   0  0  0  0  0  0  0  0  0  0  0  0
   -5.4015   -0.2710    0.0000 O   0  0  0  0  0  0  0  0  0  0  0  0
   -3.9653    0.1618    0.0000 C   0  0  0  0  0  0  0  0  0  0  0  0
   -3.6220    1.6220    0.0000 O   0  0  0  0  0  0  0  0  0  0  0  0
   -2.8724   -0.8656    0.0000 C   0  0  0  0  0  0  0  0  0  0  0  0
   -3.2157   -2.3258    0.0000 O   0  0  0  0  0  0  0  0  0  0  0  0
   -1.4362   -0.4328    0.0000 C   0  0  0  0  0  0  0  0  0  0  0  0
   -1.0929    1.0274    0.0000 C   0  0  0  0  0  0  0  0  0  0  0  0
    0.3433    1.4602    0.0000 C   0  0  0  0  0  0  0  0  0  0  0  0
    1.4362    0.4328    0.0000 C   0  0  0  0  0  0  0  0  0  0  0  0
    2.8724    0.8656    0.0000 C   0  0  0  0  0  0  0  0  0  0  0  0
    3.2157    2.3258    0.0000 O   0  0  0  0  0  0  0  0  0  0  0  0
    3.9653   -0.1618    0.0000 C   0  0  0  0  0  0  0  0  0  0  0  0
    3.6220   -1.6220    0.0000 O   0  0  0  0  0  0  0  0  0  0  0  0
    5.4015    0.2710    0.0000 O   0  0  0  0  0  0  0  0  0  0  0  0
    6.4944   -0.7564    0.0000 C   0  0  0  0  0  0  0  0  0  0  0  0
    1.0929   -1.0274    0.0000 C   0  0  0  0  0  0  0  0  0  0  0  0
   -0.3433   -1.4602    0.0000 C   0  0  0  0  0  0  0  0  0  0  0  0
  1  2  1  0
  2  3  1  0
  3  4  2  0
  3  5  1  0
  5  6  2  0
  5  7  1  0
  7  8  2  0
  8  9  1  0
  9 10  2  0
 10 11  1  0
 11 12  2  0
 11 13  1  0
 13 14  2  0
 13 15  1  0
 15 16  1  0
 10 17  1  0
 17 18  2  0
 18  7  1  0
M  END
>  <identifier>  (1498) 
CNP0080523.0

>  <canonical_smiles>  (1498) 
COC(=O)C(=O)C1=CC=C(C(=O)C(=O)OC)C=C1

>  <standard_inchi>  (1498) 
InChI=1S/C12H10O6/c1-17-11(15)9(13)7-3-5-8(6-4-7)10(14)12(16)18-2/h3-6H,1-2H3

>  <standard_inchi_key>  (1498) 
HKYZFMSRBGYWNJ-UHFFFAOYSA-N

>  <name>  (1498) 
nan

>  <iupac_name>  (1498) 
methyl 2-[4-(2-methoxy-2-oxo-acetyl)phenyl]-2-oxo-acetate

>  <annotation_level>  (1498) 
4

>  <total_atom_count>  (1498) 
28

>  <heavy_atom_count>  (1498) 
18

>  <molecular_weight>  (1498) 
250.21

>  <exact_molecular_weight>  (1498) 
250.04774

>  <molecular_formula>  (1498) 
C12H10O6

>  <alogp>  (1498) 
0.40

>  <topological_polar_surface_area>  (1498) 
86.74

>  <rotatable_bond_count>  (1498) 
4

>  <hydrogen_bond_acceptors>  (1498) 
6

>  <hydrogen_bond_donors>  (1498) 
0

>  <hydrogen_bond_acceptors_lipinski>  (1498) 
6

>  <hydrogen_bond_donors_lipinski>  (1498) 
0

>  <lipinski_rule_of_five_violations>  (1498) 
0

>  <aromatic_rings_count>  (1498) 
1

>  <qed_drug_likeliness>  (1498) 
0.44

>  <formal_charge>  (1498) 
0

>  <fractioncsp3>  (1498) 
0.17

>  <number_of_minimal_rings>  (1498) 
1

>  <van_der_walls_volume>  (1498) 
nan

>  <contains_sugar>  (1498) 
False

>  <contains_ring_sugars>  (1498) 
False

>  <contains_linear_sugars>  (1498) 
False

>  <murcko_framework>  (1498) 
c1ccccc1

>  <np_likeness>  (1498) 
-0.01

>  <chemical_class>  (1498) 
Benzene and substituted derivatives

>  <chemical_sub_class>  (1498) 
Benzoyl derivatives

>  <chemical_super_class>  (1498) 
Benzenoids

>  <direct_parent_classification>  (1498) 
Benzoyl derivatives

>  <np_classifier_pathway>  (1498) 
Shikimates and Phenylpropanoids

>  <np_classifier_superclass>  (1498) 
nan

>  <np_classifier_class>  (1498) 
nan

>  <np_classifier_is_glycoside>  (1498) 
False

>  <organisms>  (1498) 
Phoma betae|Pleospora bjoerlingii

>  <collections>  (1498) 
Latin America dataset|NuBBEDB|WikiData Natural Products|ZINC NP

>  <dois>  (1498) 
10.1002/JOBM.200800093|10.1002/jobm.200800093

>  <synonyms>  (1498) 
Dimethyl terephthalate

>  <cas>  (1498) 
nan

$$$$

     RDKit          2D

 32 36  0  0  0  0  0  0  0  0999 V2000
   -4.6628    2.7104    0.0000 C   0  0  0  0  0  0  0  0  0  0  0  0
   -3.5832    1.6689    0.0000 C   0  0  0  0  0  0  0  0  0  0  0  0
   -3.9453    0.2133    0.0000 C   0  0  0  0  0  0  0  0  0  0  0  0
   -5.3870   -0.2009    0.0000 C   0  0  0  0  0  0  0  0  0  0  0  0
   -5.7492   -1.6565    0.0000 C   0  0  0  0  0  0  0  0  0  0  0  0
   -7.1908   -2.0707    0.0000 C   0  0  0  0  0  0  0  0  0  0  0  0
   -7.6050   -0.6291    0.0000 C   0  0  0  0  0  0  0  0  0  0  0  0
   -6.7766   -3.5124    0.0000 C   0  0  0  0  0  0  0  0  0  0  0  0
   -8.6325   -2.4849    0.0000 O   0  0  0  0  0  0  0  0  0  0  0  0
   -2.1415    2.0831    0.0000 C   0  0  0  0  0  0  0  0  0  0  0  0
   -1.6292    3.4929    0.0000 C   0  0  0  0  0  0  0  0  0  0  0  0
   -0.1301    3.4414    0.0000 C   0  0  0  0  0  0  0  0  0  0  0  0
    0.2841    1.9997    0.0000 C   0  0  0  0  0  0  0  0  0  0  0  0
    1.4326    2.9645    0.0000 C   0  0  0  0  0  0  0  0  0  0  0  0
    1.6326    1.3428    0.0000 C   0  0  0  0  0  0  0  0  0  0  0  0
    2.8757    2.1823    0.0000 C   0  0  0  0  0  0  0  0  0  0  0  0
    4.2243    1.5254    0.0000 C   0  0  0  0  0  0  0  0  0  0  0  0
    4.3297    0.0291    0.0000 C   0  0  0  0  0  0  0  0  0  0  0  0
    5.6782   -0.6278    0.0000 C   0  0  0  0  0  0  0  0  0  0  0  0
    7.1701   -0.7838    0.0000 C   0  0  0  0  0  0  0  0  0  0  0  0
    6.0909    0.8143    0.0000 C   0  0  0  0  0  0  0  0  0  0  0  0
    5.7836   -2.1241    0.0000 C   0  0  0  0  0  0  0  0  0  0  0  0
    7.1321   -2.7809    0.0000 O   0  0  0  0  0  0  0  0  0  0  0  0
    4.5405   -2.9635    0.0000 C   0  0  0  0  0  0  0  0  0  0  0  0
    3.1920   -2.3066    0.0000 C   0  0  0  0  0  0  0  0  0  0  0  0
    3.0865   -0.8103    0.0000 C   0  0  0  0  0  0  0  0  0  0  0  0
    1.8434   -1.6498    0.0000 C   0  0  0  0  0  0  0  0  0  0  0  0
    1.7380   -0.1535    0.0000 C   0  0  0  0  0  0  0  0  0  0  0  0
    0.4949   -0.9929    0.0000 C   0  0  0  0  0  0  0  0  0  0  0  0
   -0.8536   -0.3360    0.0000 C   0  0  0  0  0  0  0  0  0  0  0  0
   -0.9590    1.1603    0.0000 C   0  0  0  0  0  0  0  0  0  0  0  0
   -2.2831    0.4554    0.0000 C   0  0  0  0  0  0  0  0  0  0  0  0
  2  1  1  1
  2  3  1  0
  3  4  1  0
  4  5  2  0
  5  6  1  0
  6  7  1  0
  6  8  1  0
  6  9  1  0
  2 10  1  0
 10 11  1  1
 11 12  1  0
 12 13  1  0
 13 14  1  6
 13 15  1  0
 15 16  1  0
 16 17  1  0
 17 18  1  0
 18 19  1  0
 19 20  1  0
 19 21  1  0
 19 22  1  0
 22 23  1  1
 22 24  1  0
 24 25  1  0
 26 25  1  6
 26 27  1  0
 28 27  1  1
 28 29  1  0
 29 30  1  0
 30 31  1  0
 31 32  1  1
 31 10  1  0
 31 13  1  0
 28 15  1  0
 26 18  1  0
 28 26  1  0
M  END
>  <identifier>  (1499) 
CNP0171619.4

>  <canonical_smiles>  (1499) 
C[C@H](C/C=C/C(C)(C)O)[C@H]1CC[C@@]2(C)C3CCC4C(C)(C)[C@@H](O)CC[C@@]45C[C@@]35CC[C@]12C

>  <standard_inchi>  (1499) 
InChI=1S/C30H50O2/c1-20(9-8-14-25(2,3)32)21-12-15-28(7)23-11-10-22-26(4,5)24(31)13-16-29(22)19-30(23,29)18-17-27(21,28)6/h8,14,20-24,31-32H,9-13,15-19H2,1-7H3/b14-8+/t20-,21-,22?,23?,24+,27-,28+,29-,30+/m1/s1

>  <standard_inchi_key>  (1499) 
JSPGKOBNHWTKNT-CEERICPQSA-N

>  <name>  (1499) 
[(E,1R)-5-hydroxy-1,5-dimethyl-hex-3-enyl]-tetramethyl-[?]ol

>  <iupac_name>  (1499) 
(1~{S},3~{R},6~{S},12~{S},15~{R},16~{R})-15-[(~{E},1~{R})-5-hydroxy-1,5-dimethyl-hex-3-enyl]-7,7,12,16-tetramethyl-pentacyclo[9.7.0.0^{1,3}.0^{3,8}.0^{12,16}]octadecan-6-ol

>  <annotation_level>  (1499) 
5

>  <total_atom_count>  (1499) 
82

>  <heavy_atom_count>  (1499) 
32

>  <molecular_weight>  (1499) 
442.73

>  <exact_molecular_weight>  (1499) 
442.38108

>  <molecular_formula>  (1499) 
C30H50O2

>  <alogp>  (1499) 
7.14

>  <topological_polar_surface_area>  (1499) 
40.46

>  <rotatable_bond_count>  (1499) 
4

>  <hydrogen_bond_acceptors>  (1499) 
2

>  <hydrogen_bond_donors>  (1499) 
2

>  <hydrogen_bond_acceptors_lipinski>  (1499) 
2

>  <hydrogen_bond_donors_lipinski>  (1499) 
2

>  <lipinski_rule_of_five_violations>  (1499) 
1

>  <aromatic_rings_count>  (1499) 
0

>  <qed_drug_likeliness>  (1499) 
0.45

>  <formal_charge>  (1499) 
0

>  <fractioncsp3>  (1499) 
0.93

>  <number_of_minimal_rings>  (1499) 
5

>  <van_der_walls_volume>  (1499) 
nan

>  <contains_sugar>  (1499) 
False

>  <contains_ring_sugars>  (1499) 
False

>  <contains_linear_sugars>  (1499) 
False

>  <murcko_framework>  (1499) 
C1CCC23CC43CCC5CCCC5C4CCC2C1

>  <np_likeness>  (1499) 
3.40

>  <chemical_class>  (1499) 
Steroids and steroid derivatives

>  <chemical_sub_class>  (1499) 
Cycloartanols and derivatives

>  <chemical_super_class>  (1499) 
Lipids and lipid-like molecules

>  <direct_parent_classification>  (1499) 
Cycloartanols and derivatives

>  <np_classifier_pathway>  (1499) 
Terpenoids

>  <np_classifier_superclass>  (1499) 
Triterpenoids

>  <np_classifier_class>  (1499) 
Cycloartane triterpenoids

>  <np_classifier_is_glycoside>  (1499) 
False

>  <organisms>  (1499) 
Trichilia pallida

>  <collections>  (1499) 
Latin America dataset|NuBBEDB|WikiData Natural Products

>  <dois>  (1499) 
10.1590/S1519-566X2008000600013

>  <synonyms>  (1499) 
Cycloarta-23-eno-3\u221a\u00e9\u00ac\u226425-diol

>  <cas>  (1499) 
nan

$$$$

     RDKit          2D

 26 27  0  0  0  0  0  0  0  0999 V2000
   -4.4235   -4.3714    0.0000 C   0  0  0  0  0  0  0  0  0  0  0  0
   -4.8705   -2.9396    0.0000 O   0  0  0  0  0  0  0  0  0  0  0  0
   -3.8540   -1.8365    0.0000 C   0  0  0  0  0  0  0  0  0  0  0  0
   -2.3905   -2.1654    0.0000 O   0  0  0  0  0  0  0  0  0  0  0  0
   -4.3010   -0.4047    0.0000 C   0  0  0  0  0  0  0  0  0  0  0  0
   -5.6335   -1.0935    0.0000 O   0  0  0  0  0  0  0  0  0  0  0  0
   -5.2108    0.7879    0.0000 C   0  0  0  0  0  0  0  0  0  0  0  0
   -4.6328    2.1721    0.0000 C   0  0  0  0  0  0  0  0  0  0  0  0
   -5.5426    3.3647    0.0000 O   0  0  0  0  0  0  0  0  0  0  0  0
   -3.1451    2.3637    0.0000 C   0  0  0  0  0  0  0  0  0  0  0  0
   -2.5671    3.7479    0.0000 O   0  0  0  0  0  0  0  0  0  0  0  0
   -2.2353    1.1711    0.0000 C   0  0  0  0  0  0  0  0  0  0  0  0
   -0.7476    1.3626    0.0000 O   0  0  0  0  0  0  0  0  0  0  0  0
    0.1621    0.1700    0.0000 C   0  0  0  0  0  0  0  0  0  0  0  0
   -0.4158   -1.2142    0.0000 O   0  0  0  0  0  0  0  0  0  0  0  0
    1.6499    0.3616    0.0000 C   0  0  0  0  0  0  0  0  0  0  0  0
    2.5596   -0.8311    0.0000 C   0  0  0  0  0  0  0  0  0  0  0  0
    4.0473   -0.6395    0.0000 C   0  0  0  0  0  0  0  0  0  0  0  0
    4.9571   -1.8321    0.0000 C   0  0  0  0  0  0  0  0  0  0  0  0
    6.4448   -1.6406    0.0000 C   0  0  0  0  0  0  0  0  0  0  0  0
    7.0228   -0.2564    0.0000 C   0  0  0  0  0  0  0  0  0  0  0  0
    8.5105   -0.0648    0.0000 O   0  0  0  0  0  0  0  0  0  0  0  0
    6.1130    0.9362    0.0000 C   0  0  0  0  0  0  0  0  0  0  0  0
    6.6910    2.3204    0.0000 O   0  0  0  0  0  0  0  0  0  0  0  0
    4.6253    0.7447    0.0000 C   0  0  0  0  0  0  0  0  0  0  0  0
   -2.8133   -0.2131    0.0000 C   0  0  0  0  0  0  0  0  0  0  0  0
  1  2  1  0
  2  3  1  0
  3  4  2  0
  3  5  1  0
  5  6  1  0
  5  7  1  0
  7  8  1  0
  8  9  1  1
  8 10  1  0
 10 11  1  1
 10 12  1  0
 12 13  1  6
 13 14  1  0
 14 15  2  0
 14 16  1  0
 16 17  2  0
 17 18  1  0
 18 19  2  0
 19 20  1  0
 20 21  2  0
 21 22  1  0
 21 23  1  0
 23 24  1  0
 23 25  2  0
 12 26  1  0
 26  5  1  0
 25 18  1  0
M  END
>  <identifier>  (1500) 
CNP0261619.7

>  <canonical_smiles>  (1500) 
COC(=O)C1(O)C[C@@H](O)[C@@H](O)[C@H](OC(=O)/C=C/C2=CC=C(O)C(O)=C2)C1

>  <standard_inchi>  (1500) 
InChI=1S/C17H20O9/c1-25-16(23)17(24)7-12(20)15(22)13(8-17)26-14(21)5-3-9-2-4-10(18)11(19)6-9/h2-6,12-13,15,18-20,22,24H,7-8H2,1H3/b5-3+/t12-,13-,15-,17?/m1/s1

>  <standard_inchi_key>  (1500) 
MZNIJRAPCCELQX-MHYYFZQMSA-N

>  <name>  (1500) 
methyl (3R,4R,5R)-3-[(E)-3-(3,4-dihydroxyphenyl)prop-2-enoyl]oxy-1,4,5-trihydroxycyclohexane-1-carboxylate

>  <iupac_name>  (1500) 
methyl (3~{R},4~{R},5~{R})-3-[(~{E})-3-(3,4-dihydroxyphenyl)prop-2-enoyl]oxy-1,4,5-trihydroxy-cyclohexanecarboxylate

>  <annotation_level>  (1500) 
5

>  <total_atom_count>  (1500) 
46

>  <heavy_atom_count>  (1500) 
26

>  <molecular_weight>  (1500) 
368.34

>  <exact_molecular_weight>  (1500) 
368.11073

>  <molecular_formula>  (1500) 
C17H20O9

>  <alogp>  (1500) 
-0.56

>  <topological_polar_surface_area>  (1500) 
153.75

>  <rotatable_bond_count>  (1500) 
4

>  <hydrogen_bond_acceptors>  (1500) 
9

>  <hydrogen_bond_donors>  (1500) 
5

>  <hydrogen_bond_acceptors_lipinski>  (1500) 
9

>  <hydrogen_bond_donors_lipinski>  (1500) 
5

>  <lipinski_rule_of_five_violations>  (1500) 
0

>  <aromatic_rings_count>  (1500) 
1

>  <qed_drug_likeliness>  (1500) 
0.27

>  <formal_charge>  (1500) 
0

>  <fractioncsp3>  (1500) 
0.41

>  <number_of_minimal_rings>  (1500) 
2

>  <van_der_walls_volume>  (1500) 
nan

>  <contains_sugar>  (1500) 
False

>  <contains_ring_sugars>  (1500) 
False

>  <contains_linear_sugars>  (1500) 
False

>  <murcko_framework>  (1500) 
O(CC=Cc1ccccc1)C2CCCCC2

>  <np_likeness>  (1500) 
2.13

>  <chemical_class>  (1500) 
Organooxygen compounds

>  <chemical_sub_class>  (1500) 
Alcohols and polyols

>  <chemical_super_class>  (1500) 
Organic oxygen compounds

>  <direct_parent_classification>  (1500) 
Quinic acids and derivatives

>  <np_classifier_pathway>  (1500) 
Shikimates and Phenylpropanoids

>  <np_classifier_superclass>  (1500) 
Phenylpropanoids (C6-C3)

>  <np_classifier_class>  (1500) 
Cinnamic acids and derivatives

>  <np_classifier_is_glycoside>  (1500) 
False

>  <organisms>  (1500) 
Chimarrhis turbinata|Hypericum japonicum

>  <collections>  (1500) 
Latin America dataset|NPASS|NuBBEDB|WikiData Natural Products

>  <dois>  (1500) 
10.1002/(SICI)1099-1573(1998)12:1+<S164::AID-PTR285>3.0.CO;2-G|10.1021/NP1007476|10.1021/np1007476

>  <synonyms>  (1500) 
5-O-Caffeoylquinic acid methyl ester|CHEMBL1765881|Methyl (3R4R5R)-3-{[(2E)-3-(34-dihydroxyphenyl)-2-propenoyl]oxy}-145-trihydroxycyclohexanecarboxylate

>  <cas>  (1500) 
nan

$$$$

     RDKit          2D

 36 40  0  0  0  0  0  0  0  0999 V2000
   -1.4378   -5.2186    0.0000 C   0  0  0  0  0  0  0  0  0  0  0  0
   -0.6336   -3.9524    0.0000 C   0  0  0  0  0  0  0  0  0  0  0  0
    0.8650   -4.0157    0.0000 O   0  0  0  0  0  0  0  0  0  0  0  0
   -1.3281   -2.6229    0.0000 O   0  0  0  0  0  0  0  0  0  0  0  0
   -0.5240   -1.3566    0.0000 C   0  0  0  0  0  0  0  0  0  0  0  0
    0.9747   -1.4200    0.0000 C   0  0  0  0  0  0  0  0  0  0  0  0
    1.7789   -0.1537    0.0000 C   0  0  0  0  0  0  0  0  0  0  0  0
    2.8862   -1.1656    0.0000 C   0  0  0  0  0  0  0  0  0  0  0  0
    2.9676    0.7611    0.0000 C   0  0  0  0  0  0  0  0  0  0  0  0
    2.7697    2.2480    0.0000 O   0  0  0  0  0  0  0  0  0  0  0  0
    4.3542    0.1890    0.0000 C   0  0  0  0  0  0  0  0  0  0  0  0
    5.6321    0.9746    0.0000 C   0  0  0  0  0  0  0  0  0  0  0  0
    6.7741    0.0020    0.0000 O   0  0  0  0  0  0  0  0  0  0  0  0
    6.2020   -1.3846    0.0000 C   0  0  0  0  0  0  0  0  0  0  0  0
    6.9875   -2.6625    0.0000 O   0  0  0  0  0  0  0  0  0  0  0  0
    4.7064   -1.2691    0.0000 C   0  0  0  0  0  0  0  0  0  0  0  0
    1.0844    1.1758    0.0000 C   0  0  0  0  0  0  0  0  0  0  0  0
    1.8885    2.4420    0.0000 C   0  0  0  0  0  0  0  0  0  0  0  0
    1.1940    3.7716    0.0000 C   0  0  0  0  0  0  0  0  0  0  0  0
    1.9982    5.0378    0.0000 O   0  0  0  0  0  0  0  0  0  0  0  0
   -0.3046    3.8349    0.0000 O   0  0  0  0  0  0  0  0  0  0  0  0
   -1.1088    2.5687    0.0000 C   0  0  0  0  0  0  0  0  0  0  0  0
   -2.6075    2.6320    0.0000 C   0  0  0  0  0  0  0  0  0  0  0  0
   -3.4116    1.3658    0.0000 C   0  0  0  0  0  0  0  0  0  0  0  0
   -4.9103    1.4291    0.0000 C   0  0  0  0  0  0  0  0  0  0  0  0
   -5.6048    2.7586    0.0000 C   0  0  0  0  0  0  0  0  0  0  0  0
   -5.7145    0.1628    0.0000 C   0  0  0  0  0  0  0  0  0  0  0  0
   -5.0200   -1.1667    0.0000 C   0  0  0  0  0  0  0  0  0  0  0  0
   -5.8241   -2.4329    0.0000 O   0  0  0  0  0  0  0  0  0  0  0  0
   -3.5213   -1.2300    0.0000 C   0  0  0  0  0  0  0  0  0  0  0  0
   -2.8268   -2.5595    0.0000 O   0  0  0  0  0  0  0  0  0  0  0  0
   -2.7171    0.0362    0.0000 C   0  0  0  0  0  0  0  0  0  0  0  0
   -2.0226   -1.2933    0.0000 C   0  0  0  0  0  0  0  0  0  0  0  0
   -1.2185   -0.0271    0.0000 C   0  0  0  0  0  0  0  0  0  0  0  0
   -0.4143    1.2391    0.0000 C   0  0  0  0  0  0  0  0  0  0  0  0
   -1.9130    1.3024    0.0000 C   0  0  0  0  0  0  0  0  0  0  0  0
  1  2  1  0
  2  3  2  0
  2  4  1  0
  5  4  1  1
  5  6  1  0
  6  7  1  0
  7  8  1  1
  7  9  1  0
  9 10  2  0
 11  9  1  6
 11 12  1  0
 12 13  1  0
 13 14  1  0
 14 15  2  0
 14 16  1  0
  7 17  1  0
 17 18  1  1
 18 19  1  0
 19 20  2  0
 19 21  1  0
 21 22  1  0
 22 23  1  1
 24 23  1  6
 24 25  1  0
 25 26  1  1
 25 27  1  0
 27 28  1  0
 28 29  1  1
 28 30  1  0
 30 31  2  0
 30 32  1  0
 32 33  1  6
 32 34  1  0
 34 35  1  0
 35 36  1  6
 34  5  1  6
 16 11  1  0
 35 17  1  0
 35 22  1  0
 32 24  1  0
M  END
>  <identifier>  (1501) 
CNP0209099.6

>  <canonical_smiles>  (1501) 
CC(=O)O[C@@H]1C[C@@](C)(C(=O)[C@@H]2COC(=O)C2)[C@@H]2CC(=O)O[C@@H]3C[C@H]4[C@H](C)C[C@H](O)C(=O)[C@]4(C)[C@@H]1[C@]23C

>  <standard_inchi>  (1501) 
InChI=1S/C27H36O9/c1-12-6-16(29)24(33)26(4)15(12)8-19-27(5)18(9-21(31)36-19)25(3,10-17(22(26)27)35-13(2)28)23(32)14-7-20(30)34-11-14/h12,14-19,22,29H,6-11H2,1-5H3/t12-,14+,15+,16+,17-,18+,19-,22-,25-,26+,27-/m1/s1

>  <standard_inchi_key>  (1501) 
XNXXVFZJNZBURI-DCWWCTFUSA-N

>  <name>  (1501) 
nan

>  <iupac_name>  (1501) 
[(1~{S},2~{S},4~{S},6~{R},7~{S},9~{R},13~{R},14~{R},16~{R},17~{S})-4-hydroxy-2,6,14,17-tetramethyl-3,11-dioxo-14-[(3~{S})-5-oxotetrahydrofuran-3-carbonyl]-10-oxatetracyclo[7.7.1.0^{2,7}.0^{13,17}]heptadecan-16-yl] acetate

>  <annotation_level>  (1501) 
5

>  <total_atom_count>  (1501) 
72

>  <heavy_atom_count>  (1501) 
36

>  <molecular_weight>  (1501) 
504.58

>  <exact_molecular_weight>  (1501) 
504.23593

>  <molecular_formula>  (1501) 
C27H36O9

>  <alogp>  (1501) 
2.01

>  <topological_polar_surface_area>  (1501) 
133.27

>  <rotatable_bond_count>  (1501) 
3

>  <hydrogen_bond_acceptors>  (1501) 
9

>  <hydrogen_bond_donors>  (1501) 
1

>  <hydrogen_bond_acceptors_lipinski>  (1501) 
9

>  <hydrogen_bond_donors_lipinski>  (1501) 
1

>  <lipinski_rule_of_five_violations>  (1501) 
1

>  <aromatic_rings_count>  (1501) 
0

>  <qed_drug_likeliness>  (1501) 
0.45

>  <formal_charge>  (1501) 
0

>  <fractioncsp3>  (1501) 
0.82

>  <number_of_minimal_rings>  (1501) 
5

>  <van_der_walls_volume>  (1501) 
nan

>  <contains_sugar>  (1501) 
False

>  <contains_ring_sugars>  (1501) 
False

>  <contains_linear_sugars>  (1501) 
False

>  <murcko_framework>  (1501) 
O1CCC(C1)CC2CCC3C4CCCCC4CC5OCCC2C53

>  <np_likeness>  (1501) 
2.94

>  <chemical_class>  (1501) 
Prenol lipids

>  <chemical_sub_class>  (1501) 
Terpene lactones

>  <chemical_super_class>  (1501) 
Lipids and lipid-like molecules

>  <direct_parent_classification>  (1501) 
Quassinoids

>  <np_classifier_pathway>  (1501) 
Terpenoids

>  <np_classifier_superclass>  (1501) 
Triterpenoids

>  <np_classifier_class>  (1501) 
Quassinoids

>  <np_classifier_is_glycoside>  (1501) 
False

>  <organisms>  (1501) 
Homalolepis cuneata|Simaba cuneata

>  <collections>  (1501) 
NuBBEDB|WikiData Natural Products

>  <dois>  (1501) 
10.1590/S0103-50531999000100012

>  <synonyms>  (1501) 
20(S)-simarolide

>  <cas>  (1501) 
nan

$$$$

     RDKit          2D

 26 28  0  0  0  0  0  0  0  0999 V2000
   -6.6200   -0.4837    0.0000 C   0  0  0  0  0  0  0  0  0  0  0  0
   -5.3522   -1.2854    0.0000 O   0  0  0  0  0  0  0  0  0  0  0  0
   -4.0240   -0.5883    0.0000 C   0  0  0  0  0  0  0  0  0  0  0  0
   -3.9636    0.9104    0.0000 C   0  0  0  0  0  0  0  0  0  0  0  0
   -2.6354    1.6075    0.0000 C   0  0  0  0  0  0  0  0  0  0  0  0
   -1.3676    0.8058    0.0000 C   0  0  0  0  0  0  0  0  0  0  0  0
   -0.0394    1.5028    0.0000 C   0  0  0  0  0  0  0  0  0  0  0  0
    1.2284    0.7011    0.0000 C   0  0  0  0  0  0  0  0  0  0  0  0
    1.1679   -0.7977    0.0000 C   0  0  0  0  0  0  0  0  0  0  0  0
    2.4357   -1.5994    0.0000 C   0  0  0  0  0  0  0  0  0  0  0  0
    2.3753   -3.0982    0.0000 O   0  0  0  0  0  0  0  0  0  0  0  0
    1.0471   -3.7953    0.0000 C   0  0  0  0  0  0  0  0  0  0  0  0
    3.7639   -0.9024    0.0000 C   0  0  0  0  0  0  0  0  0  0  0  0
    5.0317   -1.7041    0.0000 O   0  0  0  0  0  0  0  0  0  0  0  0
    4.9712   -3.2029    0.0000 C   0  0  0  0  0  0  0  0  0  0  0  0
    3.8243    0.5964    0.0000 C   0  0  0  0  0  0  0  0  0  0  0  0
    2.5566    1.3981    0.0000 C   0  0  0  0  0  0  0  0  0  0  0  0
    2.6170    2.8969    0.0000 C   0  0  0  0  0  0  0  0  0  0  0  0
    1.3492    3.6986    0.0000 C   0  0  0  0  0  0  0  0  0  0  0  0
    1.4097    5.1974    0.0000 C   0  0  0  0  0  0  0  0  0  0  0  0
    0.0210    3.0016    0.0000 C   0  0  0  0  0  0  0  0  0  0  0  0
   -1.2467    3.8033    0.0000 C   0  0  0  0  0  0  0  0  0  0  0  0
   -1.4280   -0.6930    0.0000 C   0  0  0  0  0  0  0  0  0  0  0  0
   -2.7562   -1.3901    0.0000 C   0  0  0  0  0  0  0  0  0  0  0  0
   -2.8167   -2.8889    0.0000 O   0  0  0  0  0  0  0  0  0  0  0  0
   -1.5489   -3.6906    0.0000 C   0  0  0  0  0  0  0  0  0  0  0  0
  1  2  1  0
  2  3  1  0
  3  4  2  0
  4  5  1  0
  5  6  2  0
  7  6  1  6
  7  8  1  0
  8  9  2  0
  9 10  1  0
 10 11  1  0
 11 12  1  0
 10 13  2  0
 13 14  1  0
 14 15  1  0
 13 16  1  0
 16 17  2  0
 17 18  1  0
 18 19  1  0
 19 20  1  6
 19 21  1  0
 21 22  1  1
  6 23  1  0
 23 24  2  0
 24 25  1  0
 25 26  1  0
 24  3  1  0
 21  7  1  0
 17  8  1  0
M  END
>  <identifier>  (1502) 
CNP0267167.1

>  <canonical_smiles>  (1502) 
COC1=CC=C([C@H]2C3=CC(OC)=C(OC)C=C3C[C@@H](C)[C@@H]2C)C=C1OC

>  <standard_inchi>  (1502) 
InChI=1S/C22H28O4/c1-13-9-16-11-20(25-5)21(26-6)12-17(16)22(14(13)2)15-7-8-18(23-3)19(10-15)24-4/h7-8,10-14,22H,9H2,1-6H3/t13-,14+,22+/m1/s1

>  <standard_inchi_key>  (1502) 
WYBOVISLCPAJFV-QLEMLULZSA-N

>  <name>  (1502) 
Galbulin

>  <iupac_name>  (1502) 
(1~{S},2~{S},3~{R})-1-(3,4-dimethoxyphenyl)-6,7-dimethoxy-2,3-dimethyl-tetralin

>  <annotation_level>  (1502) 
5

>  <total_atom_count>  (1502) 
54

>  <heavy_atom_count>  (1502) 
26

>  <molecular_weight>  (1502) 
356.46

>  <exact_molecular_weight>  (1502) 
356.19876

>  <molecular_formula>  (1502) 
C22H28O4

>  <alogp>  (1502) 
4.68

>  <topological_polar_surface_area>  (1502) 
36.92

>  <rotatable_bond_count>  (1502) 
5

>  <hydrogen_bond_acceptors>  (1502) 
4

>  <hydrogen_bond_donors>  (1502) 
0

>  <hydrogen_bond_acceptors_lipinski>  (1502) 
4

>  <hydrogen_bond_donors_lipinski>  (1502) 
0

>  <lipinski_rule_of_five_violations>  (1502) 
0

>  <aromatic_rings_count>  (1502) 
2

>  <qed_drug_likeliness>  (1502) 
0.78

>  <formal_charge>  (1502) 
0

>  <fractioncsp3>  (1502) 
0.46

>  <number_of_minimal_rings>  (1502) 
3

>  <van_der_walls_volume>  (1502) 
343.17

>  <contains_sugar>  (1502) 
False

>  <contains_ring_sugars>  (1502) 
False

>  <contains_linear_sugars>  (1502) 
False

>  <murcko_framework>  (1502) 
c1ccc(cc1)C2c3ccccc3CCC2

>  <np_likeness>  (1502) 
1.07

>  <chemical_class>  (1502) 
Aryltetralin lignans

>  <chemical_sub_class>  (1502) 
Aryltetralin lignans

>  <chemical_super_class>  (1502) 
Lignans, neolignans and related compounds

>  <direct_parent_classification>  (1502) 
Aryltetralin lignans

>  <np_classifier_pathway>  (1502) 
Shikimates and Phenylpropanoids

>  <np_classifier_superclass>  (1502) 
Lignans

>  <np_classifier_class>  (1502) 
Arylnaphthalene and aryltetralin lignans

>  <np_classifier_is_glycoside>  (1502) 
False

>  <organisms>  (1502) 
Bicuiba oleifera|Galbulimima belgraveana|Himantandra belgraveana|Nectandra puberula|Otoba novogranatensis|Virola elongata|Virola oleifera|Virola surinamensis

>  <collections>  (1502) 
Australian natural products|KNApSaCK|Latin America dataset|NuBBEDB|Specs Natural Products|Super Natural II|WikiData Natural Products|ZINC NP

>  <dois>  (1502) 
10.1016/0031-9422(86)80038-3|10.1016/0031-9422(90)85020-G|10.1016/S0031-9422(00)81526-5|10.1016/S0031-9422(96)00408-6|10.1016/S0031-9422(97)00199-4|10.1016/S0031-9422(98)00709-2|10.1016/S0031-9422(98)80061-7|10.1039/JR9580004471|10.1039/jr9580004471

>  <synonyms>  (1502) 
(-)-Galublin|(-)-galbulin|(1S,2S,3R)-1-(3,4-dimethoxyphenyl)-6,7-dimethoxy-2,3-dimethyl-1,2,3,4-tetrahydronaphthalene|521-54-0|AKOS040740378|CHEMBL1395109|DTXSID60200100|Galbulin|NCGC00160176-01|Naphthalene, 1alpha-(3,4-dimethoxyphenyl)-1,2,3,4-tetrahydro-6,7-dimethoxy-2beta,3alpha-dimethyl-|Naphthalene,1-(3,4-dimethoxyphenyl)-1,2,3,4-tetrahydro-6,7-dimethoxy-2,3-dimethyl-, (1S,2S,3R)-|SCHEMBL4737348|galbulin

>  <cas>  (1502) 
521-54-0

$$$$

     RDKit          2D

 23 25  0  0  0  0  0  0  0  0999 V2000
    6.8640   -2.6878    0.0000 C   0  0  0  0  0  0  0  0  0  0  0  0
    6.8168   -1.1885    0.0000 O   0  0  0  0  0  0  0  0  0  0  0  0
    5.4948   -0.4797    0.0000 C   0  0  0  0  0  0  0  0  0  0  0  0
    4.2200   -1.2702    0.0000 C   0  0  0  0  0  0  0  0  0  0  0  0
    2.8980   -0.5614    0.0000 C   0  0  0  0  0  0  0  0  0  0  0  0
    2.8509    0.9379    0.0000 C   0  0  0  0  0  0  0  0  0  0  0  0
    1.5289    1.6467    0.0000 C   0  0  0  0  0  0  0  0  0  0  0  0
    0.2541    0.8562    0.0000 C   0  0  0  0  0  0  0  0  0  0  0  0
   -1.0679    1.5650    0.0000 C   0  0  0  0  0  0  0  0  0  0  0  0
   -2.3427    0.7746    0.0000 C   0  0  0  0  0  0  0  0  0  0  0  0
   -3.6647    1.4834    0.0000 C   0  0  0  0  0  0  0  0  0  0  0  0
   -4.9395    0.6929    0.0000 C   0  0  0  0  0  0  0  0  0  0  0  0
   -4.8923   -0.8063    0.0000 C   0  0  0  0  0  0  0  0  0  0  0  0
   -3.5704   -1.5151    0.0000 C   0  0  0  0  0  0  0  0  0  0  0  0
   -2.2955   -0.7247    0.0000 C   0  0  0  0  0  0  0  0  0  0  0  0
   -0.9736   -1.4335    0.0000 O   0  0  0  0  0  0  0  0  0  0  0  0
   -0.9264   -2.9327    0.0000 C   0  0  0  0  0  0  0  0  0  0  0  0
   -6.3036   -1.3145    0.0000 O   0  0  0  0  0  0  0  0  0  0  0  0
   -7.2230   -0.1293    0.0000 C   0  0  0  0  0  0  0  0  0  0  0  0
   -6.3799    1.1114    0.0000 O   0  0  0  0  0  0  0  0  0  0  0  0
    4.1257    1.7284    0.0000 C   0  0  0  0  0  0  0  0  0  0  0  0
    4.0786    3.2276    0.0000 O   0  0  0  0  0  0  0  0  0  0  0  0
    5.4477    1.0196    0.0000 C   0  0  0  0  0  0  0  0  0  0  0  0
  1  2  1  0
  2  3  1  0
  3  4  2  0
  4  5  1  0
  5  6  2  0
  6  7  1  0
  7  8  1  0
  8  9  1  0
  9 10  1  0
 10 11  2  0
 11 12  1  0
 12 13  2  0
 13 14  1  0
 14 15  2  0
 15 16  1  0
 16 17  1  0
 13 18  1  0
 18 19  1  0
 19 20  1  0
  6 21  1  0
 21 22  1  0
 21 23  2  0
 23  3  1  0
 15 10  1  0
 20 12  1  0
M  END
>  <identifier>  (1503) 
CNP0157575.0

>  <canonical_smiles>  (1503) 
COC1=CC=C(CCCC2=CC3=C(C=C2OC)OCO3)C(O)=C1

>  <standard_inchi>  (1503) 
InChI=1S/C18H20O5/c1-20-14-7-6-12(15(19)9-14)4-3-5-13-8-17-18(23-11-22-17)10-16(13)21-2/h6-10,19H,3-5,11H2,1-2H3

>  <standard_inchi_key>  (1503) 
RHDHZTUVIZRWPZ-UHFFFAOYSA-N

>  <name>  (1503) 
nan

>  <iupac_name>  (1503) 
5-methoxy-2-[3-(6-methoxy-1,3-benzodioxol-5-yl)propyl]phenol

>  <annotation_level>  (1503) 
4

>  <total_atom_count>  (1503) 
43

>  <heavy_atom_count>  (1503) 
23

>  <molecular_weight>  (1503) 
316.35

>  <exact_molecular_weight>  (1503) 
316.13107

>  <molecular_formula>  (1503) 
C18H20O5

>  <alogp>  (1503) 
3.31

>  <topological_polar_surface_area>  (1503) 
57.15

>  <rotatable_bond_count>  (1503) 
6

>  <hydrogen_bond_acceptors>  (1503) 
5

>  <hydrogen_bond_donors>  (1503) 
1

>  <hydrogen_bond_acceptors_lipinski>  (1503) 
5

>  <hydrogen_bond_donors_lipinski>  (1503) 
1

>  <lipinski_rule_of_five_violations>  (1503) 
0

>  <aromatic_rings_count>  (1503) 
2

>  <qed_drug_likeliness>  (1503) 
0.89

>  <formal_charge>  (1503) 
0

>  <fractioncsp3>  (1503) 
0.33

>  <number_of_minimal_rings>  (1503) 
3

>  <van_der_walls_volume>  (1503) 
nan

>  <contains_sugar>  (1503) 
False

>  <contains_ring_sugars>  (1503) 
False

>  <contains_linear_sugars>  (1503) 
False

>  <murcko_framework>  (1503) 
O1c2ccc(cc2OC1)CCCc3ccccc3

>  <np_likeness>  (1503) 
0.50

>  <chemical_class>  (1503) 
Phenols

>  <chemical_sub_class>  (1503) 
Methoxyphenols

>  <chemical_super_class>  (1503) 
Benzenoids

>  <direct_parent_classification>  (1503) 
Methoxyphenols

>  <np_classifier_pathway>  (1503) 
Shikimates and Phenylpropanoids

>  <np_classifier_superclass>  (1503) 
nan

>  <np_classifier_class>  (1503) 
nan

>  <np_classifier_is_glycoside>  (1503) 
False

>  <organisms>  (1503) 
Iryanthera laevis

>  <collections>  (1503) 
Latin America dataset|NuBBEDB|UNPD (Universal Natural Products Database)|WikiData Natural Products|ZINC NP

>  <dois>  (1503) 
10.1016/0031-9422(80)83082-2

>  <synonyms>  (1503) 
5-methoxy-2-(3-(5-methoxybenzo[d][13]dioxol-6-yl)propyl)phenol

>  <cas>  (1503) 
nan

$$$$

     RDKit          2D

 21 24  0  0  0  0  0  0  0  0999 V2000
   -4.7325   -1.9986    0.0000 C   0  0  0  0  0  0  0  0  0  0  0  0
   -3.2428   -2.1737    0.0000 O   0  0  0  0  0  0  0  0  0  0  0  0
   -2.3463   -0.9711    0.0000 C   0  0  0  0  0  0  0  0  0  0  0  0
   -2.9395    0.4066    0.0000 C   0  0  0  0  0  0  0  0  0  0  0  0
   -4.3603    0.8876    0.0000 C   0  0  0  0  0  0  0  0  0  0  0  0
   -4.3419    2.3875    0.0000 C   0  0  0  0  0  0  0  0  0  0  0  0
   -2.9097    2.8335    0.0000 O   0  0  0  0  0  0  0  0  0  0  0  0
   -2.0430    1.6092    0.0000 C   0  0  0  0  0  0  0  0  0  0  0  0
   -0.5532    1.4341    0.0000 N   0  0  0  0  0  0  0  0  0  0  0  0
    0.0400    0.0564    0.0000 C   0  0  0  0  0  0  0  0  0  0  0  0
    1.5297   -0.1187    0.0000 C   0  0  0  0  0  0  0  0  0  0  0  0
    2.4263    1.0839    0.0000 O   0  0  0  0  0  0  0  0  0  0  0  0
    3.9160    0.9088    0.0000 C   0  0  0  0  0  0  0  0  0  0  0  0
    5.3758    1.2538    0.0000 C   0  0  0  0  0  0  0  0  0  0  0  0
    3.8297    2.4063    0.0000 C   0  0  0  0  0  0  0  0  0  0  0  0
    4.5092   -0.4689    0.0000 C   0  0  0  0  0  0  0  0  0  0  0  0
    3.6127   -1.6715    0.0000 C   0  0  0  0  0  0  0  0  0  0  0  0
    2.1230   -1.4964    0.0000 C   0  0  0  0  0  0  0  0  0  0  0  0
    1.2265   -2.6990    0.0000 C   0  0  0  0  0  0  0  0  0  0  0  0
   -0.2633   -2.5239    0.0000 C   0  0  0  0  0  0  0  0  0  0  0  0
   -0.8565   -1.1462    0.0000 C   0  0  0  0  0  0  0  0  0  0  0  0
  1  2  1  0
  2  3  1  0
  3  4  2  0
  4  5  1  0
  5  6  2  0
  6  7  1  0
  7  8  1  0
  8  9  2  0
  9 10  1  0
 10 11  2  0
 11 12  1  0
 12 13  1  0
 13 14  1  0
 13 15  1  0
 13 16  1  0
 16 17  2  0
 17 18  1  0
 18 19  2  0
 19 20  1  0
 20 21  2  0
 21  3  1  0
  8  4  1  0
 21 10  1  0
 18 11  1  0
M  END
>  <identifier>  (1504) 
CNP0080662.0

>  <canonical_smiles>  (1504) 
COC1=C2C=COC2=NC2=C3OC(C)(C)C=CC3=CC=C12

>  <standard_inchi>  (1504) 
InChI=1S/C17H15NO3/c1-17(2)8-6-10-4-5-11-13(14(10)21-17)18-16-12(7-9-20-16)15(11)19-3/h4-9H,1-3H3

>  <standard_inchi_key>  (1504) 
DKNUDTGFZIHLPC-UHFFFAOYSA-N

>  <name>  (1504) 
nan

>  <iupac_name>  (1504) 
11-methoxy-4,4-dimethyl-3,15-dioxa-17-azatetracyclo[8.7.0.0^{2,7}.0^{12,16}]heptadeca-1,5,7,9,11,13,16-heptaene

>  <annotation_level>  (1504) 
4

>  <total_atom_count>  (1504) 
36

>  <heavy_atom_count>  (1504) 
21

>  <molecular_weight>  (1504) 
281.31

>  <exact_molecular_weight>  (1504) 
281.10519

>  <molecular_formula>  (1504) 
C17H15NO3

>  <alogp>  (1504) 
4.17

>  <topological_polar_surface_area>  (1504) 
44.49

>  <rotatable_bond_count>  (1504) 
1

>  <hydrogen_bond_acceptors>  (1504) 
4

>  <hydrogen_bond_donors>  (1504) 
0

>  <hydrogen_bond_acceptors_lipinski>  (1504) 
4

>  <hydrogen_bond_donors_lipinski>  (1504) 
0

>  <lipinski_rule_of_five_violations>  (1504) 
0

>  <aromatic_rings_count>  (1504) 
3

>  <qed_drug_likeliness>  (1504) 
0.67

>  <formal_charge>  (1504) 
0

>  <fractioncsp3>  (1504) 
0.24

>  <number_of_minimal_rings>  (1504) 
4

>  <van_der_walls_volume>  (1504) 
nan

>  <contains_sugar>  (1504) 
False

>  <contains_ring_sugars>  (1504) 
False

>  <contains_linear_sugars>  (1504) 
False

>  <murcko_framework>  (1504) 
n1c2occc2cc3ccc4C=CCOc4c13

>  <np_likeness>  (1504) 
2.09

>  <chemical_class>  (1504) 
Quinolines and derivatives

>  <chemical_sub_class>  (1504) 
Quinolones and derivatives

>  <chemical_super_class>  (1504) 
Organoheterocyclic compounds

>  <direct_parent_classification>  (1504) 
Pyranoquinolines

>  <np_classifier_pathway>  (1504) 
Alkaloids

>  <np_classifier_superclass>  (1504) 
Tryptophan alkaloids

>  <np_classifier_class>  (1504) 
Quinoline alkaloids

>  <np_classifier_is_glycoside>  (1504) 
False

>  <organisms>  (1504) 
Almeidea coerulea|Conchocarpus coeruleus

>  <collections>  (1504) 
Latin America dataset|NuBBEDB|WikiData Natural Products|ZINC NP

>  <dois>  (1504) 
10.1590/S0103-50531998000100007

>  <synonyms>  (1504) 
dutadrupine

>  <cas>  (1504) 
nan

$$$$

     RDKit          2D

 12 12  0  0  0  0  0  0  0  0999 V2000
   -4.0818   -1.2606    0.0000 O   0  0  0  0  0  0  0  0  0  0  0  0
   -3.6020    0.1606    0.0000 C   0  0  0  0  0  0  0  0  0  0  0  0
   -4.5928    1.2868    0.0000 O   0  0  0  0  0  0  0  0  0  0  0  0
   -2.1313    0.4557    0.0000 C   0  0  0  0  0  0  0  0  0  0  0  0
   -1.1404   -0.6704    0.0000 C   0  0  0  0  0  0  0  0  0  0  0  0
    0.3303   -0.3754    0.0000 C   0  0  0  0  0  0  0  0  0  0  0  0
    0.8101    1.0458    0.0000 C   0  0  0  0  0  0  0  0  0  0  0  0
    2.2808    1.3409    0.0000 C   0  0  0  0  0  0  0  0  0  0  0  0
    3.2717    0.2147    0.0000 C   0  0  0  0  0  0  0  0  0  0  0  0
    4.7424    0.5098    0.0000 O   0  0  0  0  0  0  0  0  0  0  0  0
    2.7919   -1.2064    0.0000 C   0  0  0  0  0  0  0  0  0  0  0  0
    1.3212   -1.5015    0.0000 C   0  0  0  0  0  0  0  0  0  0  0  0
  1  2  2  0
  2  3  1  0
  2  4  1  0
  4  5  2  0
  5  6  1  0
  6  7  2  0
  7  8  1  0
  8  9  2  0
  9 10  1  0
  9 11  1  0
 11 12  2  0
 12  6  1  0
M  END
>  <identifier>  (1505) 
CNP0255341.1

>  <canonical_smiles>  (1505) 
O=C(O)/C=C/C1=CC=C(O)C=C1

>  <standard_inchi>  (1505) 
InChI=1S/C9H8O3/c10-8-4-1-7(2-5-8)3-6-9(11)12/h1-6,10H,(H,11,12)/b6-3+

>  <standard_inchi_key>  (1505) 
NGSWKAQJJWESNS-ZZXKWVIFSA-N

>  <name>  (1505) 
nan

>  <iupac_name>  (1505) 
nan

>  <annotation_level>  (1505) 
0

>  <total_atom_count>  (1505) 
20

>  <heavy_atom_count>  (1505) 
12

>  <molecular_weight>  (1505) 
164.16

>  <exact_molecular_weight>  (1505) 
164.04734

>  <molecular_formula>  (1505) 
C9H8O3

>  <alogp>  (1505) 
1.49

>  <topological_polar_surface_area>  (1505) 
57.53

>  <rotatable_bond_count>  (1505) 
2

>  <hydrogen_bond_acceptors>  (1505) 
2

>  <hydrogen_bond_donors>  (1505) 
2

>  <hydrogen_bond_acceptors_lipinski>  (1505) 
2

>  <hydrogen_bond_donors_lipinski>  (1505) 
2

>  <lipinski_rule_of_five_violations>  (1505) 
0

>  <aromatic_rings_count>  (1505) 
1

>  <qed_drug_likeliness>  (1505) 
0.65

>  <formal_charge>  (1505) 
0

>  <fractioncsp3>  (1505) 
0.00

>  <number_of_minimal_rings>  (1505) 
1

>  <van_der_walls_volume>  (1505) 
147.51

>  <contains_sugar>  (1505) 
False

>  <contains_ring_sugars>  (1505) 
False

>  <contains_linear_sugars>  (1505) 
False

>  <murcko_framework>  (1505) 
c1ccccc1

>  <np_likeness>  (1505) 
0.84

>  <chemical_class>  (1505) 
nan

>  <chemical_sub_class>  (1505) 
nan

>  <chemical_super_class>  (1505) 
nan

>  <direct_parent_classification>  (1505) 
nan

>  <np_classifier_pathway>  (1505) 
Shikimates and Phenylpropanoids

>  <np_classifier_superclass>  (1505) 
Phenylpropanoids (C6-C3)

>  <np_classifier_class>  (1505) 
Cinnamic acids and derivatives

>  <np_classifier_is_glycoside>  (1505) 
False

>  <organisms>  (1505) 
Abeliophyllum distichum|Abies sachalinensis|Abies spectabilis|Abutilon indicum|Acacia adunca|Acacia salicina|Acanthaster planci|Acanthophyllum sordidum|Achillea lycaonica|Achillea magnifica|Achillea sipikorensis|Achillea wilhelmsii|Achlys triphylla|Aconitum carmichaelii|Aconitum habaense|Aconitum japonicum|Aconitum tanguticum|Acrocarpia paniculata|Actaea dahurica|Actaea elata|Actaea japonica|Actaea racemosa|Actaea simplex|Actinidia chinensis|Actinidia deliciosa|Adenia globosa|Adenostoma fasciculatum|Adenostoma sparsifolium|Adiantum lunulatum|Aegilops geniculata|Aegilops neglecta|Aesculus hippocastanum|Aesculus sp.|Aglaia grandis|Agropyron sp.|Aguacate|Ailanthus altissima|Ailanthus integrifolia|Ailanthus sp.|Ajuga reptans|Albizia gummifera|Albizia julibrissin|Albizia procera|Alcea nudiflora|Alcea rosea|Alectoria ochroleuca|Allium cepa|Allium chinense|Allium sativum|Allium schoenoprasum|Allium turcomanicum|Aloe|Aloe Vera|Aloe africana|Aloe barbadensis|Aloe ferox|Aloe microstigma|Aloe spicata|Aloe vera|Alpinia blepharocalyx|Alpinia roxburghii|Alsidium triquetrum|Alstonia spathulata|Althaea Rosea|Althaea armeniaca|Althaea broussonetiifolia|Althaea cannabina|Althaea narbonensis|Althaea nudiflora|Althaea officinalis|Althaea rosea|Amaranthus hypochondriacus|Amathia pinnata|Amelanchier sanguinea|Amsinckia tessellata|Anacystis montana|Anagallis sp.|Ananas comosus|Ananas sp.|Anaphalis araneosa|Andrographis elongata|Andrographis viscosula|Anemone tomentosa|Anethum graveolens|Anigozanthos preissii|Annona Muricata|Annona cherimola|Annona cornifolia|Annona muricata|Anodendron affine|Anolis lineatopus|Anthocercis albicans|Aphelandra chamissoniana|Apis|Apis mellifera|Apis mellifera ligustica|Apis species|Apium graveolens|Apium sp.|Aplidium multiplicatum|Aplophyllum pedicellatum|Arabidopsis thaliana|Arachis|Arachis hypogaea|Araucaria angustifolia|Aristolochia contorta|Aristolochia cucurbitifolia|Aristolochia debilis|Aristolochia heterophylla|Aristolochia kaempferi|Aristolochia manshuriensis|Aristolochia sp.|Artemisia annua|Artemisia anomala|Artemisia assoana|Artemisia capillaris|Artemisia dolosa|Artemisia giraldii|Artemisia kurramensis|Artemisia porrecta|Artemisia schimperi|Artemisia siversiana|Artocarpus heterophyllus|Arum maculatum|Aruncus dioicus|Asarum sieboldii|Aspalathus linearis|Aspergillus mutabilis|Aster indicus|Asterias nipon|Asterospicularia laurae|Astragalus eximius|Astragalus floccosifolius|Astragalus membranaceus|Astragalus mongholicus|Astragalus onobrychis|Astragalus sempervirens|Astragalus trimestris|Athanasia linifolia|Atylosia trinervia|Aucuba chinensis|Aurelia aurita|Avena sativa|Avena sp.|Axinella agnata|Azotobacter agilis|Baccharis dracunculifolia|Bacillus subtilis|Backhousia angustifolia|Bacterium from|Balanophora abbreviata|Balanophora abbreviata B1|Balanophora fungosa|Balanophora laxiflora|Balanophora tobiracola|Begonia nantoensis|Beta Vulgaris|Beta vulgaris|Beta vulgaris L. var. saccharifera|Betula pubescens|Bhesa nitidissima|Bidens pilosa|Bishovia boliviensis|Bistorta vivipara|Bitter bush|Blastochloris viridis|Blighia welwitschii|Boehmeria nivea|Bohadschia vitiensis|Boronia pinnata|Boschniakia rossica|Bougainvillea glabra|Brassica napus|Brassica oleracea|Brassica oleracea var. sabauda|Brassica rapa|Breonia chinensis|Brettanomyces anomalus|Brickellia vernicosa|Bryopsis pennata|Bryothamnion triquetrum|Buddleja globosa|Bulbine frutescens|Bulbophyllum protractum|Bulbophyllum vaginatum|Bupleurum sp.|Bursera tonkinensis|Cajanus cajan|Calendula sp.|Calligonum leucocladum|Calluna sp.|Calocedrus formosana|Calostephane divaricata|Calvatia lilacina|Calycanthus chinensis|Calycanthus floridus|Calystegia pubescens|Camellia oleifera|Camellia reticulata|Camellia sinensis|Camellia sp.|Campanula persicifolia|Campanula rotundifolia|Campylotropis hirtella|Cananga Latifolia|Cananga latifolia|Cannabis sativa|Capparis spinosa|Capsicum annuum|Caragana aurantiaca|Caragana spinosa|Carduus crispus|Carica dodecaphylla|Carthamus tinctorius|Carum carvi|Castanopsis fissa|Casuarina equisetifolia|Catalpa ovata|Catalpa sp.|Catunaregam tomentosa|Cedrela salvadorensis|Cedronella canariensis|Centaurea huber-morathii|Centaurium erythraea|Centella asiatica|Cephalaria transsylvanica|Ceropegia dichotoma|Cestrum nocturnum|Cestrum parqui|Chaenomeles sinensis|Chamaecyparis formosensis|Chamerion dodonaei|Chamomilla recutita|Chelidonium majus|Chenopodium formosanum|Chenopodium rubrum|Chrozophora prostrata|Chrysanthemum boreale|Chrysanthemum morifolium|Chrysanthemum sinense|Chrysosplenium americanum|Cicer arietinum|Cichorium glandulosum|Cichorium intybus|Cichorium sp.|Cimicifuga simplex|Cinamomum cassia|Cinnamomum|Cinnamomum aromaticum|Cinnamomum kotoense|Cinnamomum sp.|Cinnamomum verum|Cirsium japonicum|Cirsium setosum|Cis punctifer|Cissus discolor|Cissus sicyoides|Citrus|Citrus aurantium|Citrus limon|Citrus maxima|Citrus natsudaidai|Citrus paradisi|Citrus reticulata|Citrus sinensis|Citrus sp.|Citrus tangerina|Citrus trifoliata|Citrus unshiu|Clathria basilana|Cleome icosandra|Clitoria ternatea|Cocos nucifera|Cocos sp.|Codonopsis pilosula|Coffea|Coffea arabica|Coffea canephora|Coix lacryma-jobi|Colchicum bornmuelleri|Colchicum kotschyi|Colchicum speciosum|Colletotrichum gloeosporioides|Colobanthus quitensis|Colpomenia sinuosa|Colubrina faralaotra|Colubrina faralaotra subsp.trichocarpa.|Commelina communis|Comptonia peregrina|Conoideocrella luteorostrata|Consolida sp.|Coprinopsis atramentaria|Coprosma lucida|Corchorus capsularis|Corchorus olitorius|Coriandrum sativum|Cornus officinalis|Cortex lycii radicis|Corymbia maculata|Cotoneaster orbicularis|Cotyledon secunda|Cowania mexicana|Crataegus laevigata|Crataegus monogyna|Crataegus oxyacantha L. (1753)|Crataegus pinnatifida|Cremastra appendiculata|Crinum moorei|Crocus minimus|Crocus sativus|Crotalaria candicans|Cryptocarya amygdalina|Cryptomeria japonica|Cucumis Sativus|Cucumis sativus|Cucurbita maxima|Cucurbita moschata|Cucurbita pepo|Cuminum cyminum|Cunninghamia lanceolata var. konishii|Cunonia macrophylla|Curculigo pilosa|Curcuma domestica|Curcuma longa|Curcuma mangga|Curcuma sp.|Cuscuta Australis|Cuscuta australis|Cuscuta chinensis|Cuscuta lehmanniana|Cussonia bancoensis|Cyamopsis sp.|Cyamopsis tetragonoloba|Cyclopia falcata|Cyclopia intermedia|Cyclopia subternata|Cymbopogon citratus|Cynoglossum creticum|Cynometra lujae|Cynomorium songaricum|Cyperus Rotundus|Cyperus esculentus|Cyperus rotundus|Cyperus rotundus L.|Cypripedium calceolus|Cystoseira caespitosa|Dalbergia monetaria|Dalbergia ovalis|Dalbergia volubilis|Dasiphora fruticosa|Daucus carota|Davallia bullata|Davallia mariesii|Davallia trichomanoides|Daviesia latifolia|Dekkera anomala|Delphinium venulosum|Dendrobium hainanense|Dendrobium loddigesii|Dendrodoris tuberculosa|Dermolepida albohirtum|Deschampsia antarctica|Dianthus caryophyllus|Dioscorea alata|Dioscorea villosa|Diospyros canaliculata|Diospyros chamaethamnus|Diospyros glaucifolia|Diospyros kaki|Diospyros lotus|Distephanus angulifolius|Dracocephalum multicaule|Dracocephalum ruyschiana|Dracunculus sp.|Drechslera avenae|Drimia elata|Drimys sp.|Duhaldea cappa|Dumortiera hirsuta|Echinacea angustifolia|Echinacea purpurea|Elephantopus tomentosus|Elettaria cardamomum|Eleutherococcus senticosus|Eleutherococcus sessiliflorus|Elsholtzia ciliata|Elymnias thryallis|Entada rheedei|Ephedra alata|Ephedra aphylla|Ephedra equisetina|Ephedra sp.|Epichloe typhina|Epilobium dodonaei|Epilobium hirsutum|Epimedium sagittatum|Episcia cupreata|Equisetum arvense|Equisetum giganteum|Equisetum ramosissimum|Equsetum arvense|Eremanthus crotonoides|Eria japonica|Erigeron annuus|Erigeron canadensis|Eritrichium sericeum|Erylus lendenfeldi|Erylus trisphaerus|Erythrina americana|Eucalyptus|Eucalyptus Maculata|Eucalyptus apodophylla|Eucalyptus globulus|Eucalyptus globulus subsp. bicostata|Eucalyptus maculata|Eucalyptus maidenii|Eucalyptus melliodora|Eucalyptus sideroxylon|Eucalyptus urophylla|Euclea crispa|Eucommia ulmoides|Eupatorium areolare|Eupatorium fortunei|Euphorbia sp.|Euphorbia tithymaloides|Eurya tigang|Euryops algoensis|Euthamia graminifolia|Eutrema japonicum|FOOD SAKE|Fagopyrum dibotrys|Fagopyrum esculentum|Fagraea gracilipes|Falcaria vulgaris|Fallopia convolvulus|Fallopia multiflora|Felimida luteorosea|Festuca arundinacea|Festuca ovina|Festuca pratensis|Festuca rubra|Ficus beecheyana|Ficus erecta var. beecheyana|Ficus septica|Filipendula ulmaria|Flammulina velutipes|Flos inulae|Foeniculum vulgare|Forsythia viridissima|Fragaria|Fragaria vesca|Fragaria x ananassa|Fritillaria persica|Fumaria agraria|Fumaria capreolata|Fumaria densiflora|Fumaria officinalis|Fumaria parviflora|Galeopsis bifida|Galinsoga ciliata|Galinsoga quadriradiata|Garcinia cambogia|Gardenia jasminoides|Gaultheria procumbens|Gaylussacia baccata|Geranium pusillum|Ginkgo biloba|Glebionis coronaria|Glebionis segetum|Gleditsia caspica|Gliricidia sepium|Globularia alypum|Glycine|Glycine max|Glycosmis macrophylla|Gmelina arborea|Gnetum latifolium|Gomortega keule|Goniothalamus malayanus|Gracilaria textorii|Gymnadenia conopsea|Gymnadenia conopsea R.BR.|Gymnosporia diversifolia|Gynerium sagittatum|Gypsophila perfoliata|Haematoxylon brasiletto|Haematoxylum brasiletto|Haliclona tubifera|Halimeda discoidea|Hansenia forbesii|Hansenia weberbaueriana|Haplophyllum acutifolium|Haplophyllum ramosissimum|Haplopteris anguste-elongata|Hedera sp.|Hedysarum connatum|Helianthus annuus|Helianthus tuberosus|Helichrysum italicum|Helichrysum mixtum|Helipterum roseum|Hellenia speciosa|Helogyne hutchisonii|Heracleum maximum|Heracleum sphondylium|Herba meconpsis integrifoliae|Herniaria|Hertia cheirifolia|Heterocoma ekmaniana|Hibiscus taiwanensis|Himatanthus articulatus|Himatanthus sucuuba|Hippophae rhamnoides|Hippophae sp.|Hoffmannia strigillosa|Homo sapiens|Hordeum vulgare|Hortonia floribunda|Humata pectinata|Humulus japonicus|Humulus lupulus|Humulus sp.|Hydrangea chinensis|Hydrangea macrophylla|Hypericum japonicum|Hypericum laricifolium|Hypericum perforatum|Hypericum polyanthemum|Hypholoma capnoides|Hypopitys monotropa|Hypoxis sp.|Hyssopus officinalis|Illicium sp.|Illicium verum|Impatiens balsamina|Impatiens edgeworthii|Imperata cylindrica|Incarvillea delavayi|Incarvillea mairei|Incarvillea mairei var. grandiflora|Inula britannica|Inula japonica|Io fluvialis|Iotrochota birotulata|Ipomoea digitata|Ipomoea nil|Ipomoea purpurea|Iris ensata|Iris lactea|Iris triflora|Isatis tinctoria|Islaya minor|Isodon oresbius|Jasonia candicans|Juglans regia|Jugo|Juncus effusus|Juniperus ashei|Juniperus drupacea|Juniperus phoenicea|Kalanchoe blossfeldiana|Kalanchoe delagoensis|Kalanchoe pinnata|Kalanchoe tubiflora|Kali collinum|Kali turgidum|Keiferia lycopersicella|Lactarius deliciosus var. deterrimus|Lactuca laciniata|Lactuca sativa|Lagerstroemia speciosa|Lamium sp.|Lampranthus sociorum|Lantana trifolia|Larix laricina|Larix sp.|Laurencia spectabilis|Laurus|Lavandula pedunculata|Leathesia nana|Lecidea carpathica|Lens culinaris|Lens esculenta|Lentzea albida|Lepisorus ussuriensis|Leptolaena diospyroidea|Leptolaena pauciflora|Leucopaxillus gentianeus|Licaria chrysophylla|Ligularia cyathiceps|Ligustrum japonicum|Ligustrum lucidum|Ligustrum obtusifolium|Liliaceae|Lilium brownii|Lilium brownii f. e. brown var. colchesteri wils|Lilium lancifolium|Lilium mackliniae|Lilium pumilum|Limoniastrum guyonianum|Lindera obtusiloba|Linum sp.|Linum usitatissimum|Lippia alba|Liquidambar orientalis|Liriodendron tulipifera|Litsea pungens|Lobophytum schoedei|Lolium multiflorum|Lonicera japonica|Lonicera microphylla|Luffa aegyptiaca|Luma chequen|Lupinus angustifolius|Lupinus cosentinii|Lupinus cosentinii Guss.|Lupinus luteus|Lupinus luteus L.|Lycium barbarum|Lycium chinense|Lycopodium sp.|Lycopus europaeus|Lycopus sp.|Lygodium japonicum|Lyophyllum connatum|Lysiana subfalcata|Lysimachia heterogenea|Lysimachia mauritiana|Lythrum salicaria|Macaranga peltata|Magnolia denudata|Magnolia liliiflora|Magnolia obovata|Magnolia ovata|Maianthemum canadense|Maize bran|Malus domestica|Malus pumila|Malus sp.|Malva pucheina|Malva silvestris|Mangifera indica|Marrubium anisodon|Marrubium cylleneum|Marrubium velutinum|Marrubium vulgare|Martensia denticulata|Matricaria chamomilla|Matteuccia struthiopteris|Matthiola incana|Medicago Sativa|Medicago sativa|Melanargia galathea|Melia azedarach|Melia azedarach var. toosendan|Melilotus messanensis|Melilotus officinalis subsp. suaveolens|Melilotus siculus|Melilotus suaveolens|Melissa officinalis|Melissa sp.|Mentha Piperita|Mentha cardiaca|Mentha piperitae|Mentha sp.|Mentha spicata|Menyanthes trifoliata|Mexican propolis|Microcos paniculata|Millettia pinnata|Mimosa pudica|Momordica charantia|Monotropa hypopitys|Morus alba|Morus bombycis|Mosla chinensis|Mucuna membranacea|Murraya euchrestifolia|Mus musculus|Musa|Musa sp.|Musanga cecropioides|Myodocarpus gracilis|Myristica fragrans|Naja kaouthia|Nanodea muscosa|Nardostachys jatamansi|Nasutitermes ephratae|Nauclea rhynchophylla|Naucleopsis ternstroemiiflora|Nelumbo nucifera|Nicotiana rustica|Nicotiana tabacum|Niedenzuella multiglandulosa|Nostoc spongiaeforme|Notholirion hyacinthinum|Notholirion hyacinthium|Notopterygium incisum|Nuphar lutea|Nymphaea alba|Nymphaea caerulea|Ocimum basilicum|Oenanthe javanica|Oenothera biennis|Oenothera sp.|Oenothera suaveolens|Oldenlandia diffusa|Olea europaea|Olea sp.|Olearia axillaris|Olearia pimeleoides|Ononis sp.|Ononis spinosa|Opuntia ficus-indica|Orchis sp.|Origanum majorana|Origanum vulgare|Ormosia hosiei|Ornithoglossum viride|Oryza aristata|Oryza sativa|Osmanthus fragrans|Osmanthus heterophyllus|Osmanthus ilicifolius|Osmanthus × fortunei|Osteospermum muricatum|Ostericum grosseserratum|Othonna sedifolia|Oxalis pes-caprae|Paeonia rockii|Paeonia suffruticosa|Panax ginseng|Panax spinosus|Papaver somniferum|Parablechnum minus|Pastinaca sativa|Pectinia lactuca|Pelargonium reniforme|Peltostigma guatemalense|Penicillium cyclopium|Penicillium kapuscinskii|Pentaclethra macrophylla|Peperomia duclouxii C.DC.|Peperomia heyneana|Peperomia vulcanica|Periploca sepium|Perithalia caudata|Persicaria amphibia|Persicaria hydropiper|Persicaria hydropiperoides|Persicaria mitis|Persicaria orientalis|Persicaria sp.|Pertusaria amara|Pertusaria truncata|Pertya glabrescens|Perymenium mendezii|Petasites georgicus|Petasites laevigatus|Petroselinum crispum|Petunia axillaris|Phaeolus schweinitzii|Phalaenopsis cornu-cervi|Pharbitis nil|Phaseolus aureus|Phaseolus lunatus|Phaseolus vulgaris|Phellodendron japonicum MAXIM|Phellopterus littoralis|Phlogacanthus tubiflorus|Phlomis purpurea|Phoebe pittieri|Phoenix dactylifera|Phoenix loureiroi|Phragmites communis|Phycomyces blakesleeanus|Phyllanthus sp.|Phyllostachys edulis|Phyllostachys nigra|Physalis edulis|Picea abies|Picea ajanensis|Picea glauca|Picea jezoensis var. jezoensis|Picea koraiensis|Picea mariana|Picea neoveitchii|Picea obovata|Pimpinella anisum|Pinus pinaster|Pinus sibirica|Pinus sylvestris|Pinus taeda|Piper nigrum|Piper sarmentosum|Pisum Sativum|Pisum sativum|Plantago Major|Plantago major|Plantago media|Platanus sp.|Platycarya strobilacea|Platycladus orientalis|Plectranthus myrianthus|Pleione bulbocodioides|Pleione yunnanensis|Pleuronectes cynoglossus|Plumeria obtusa|Plumeria rubra|Poa huecu|Pocillopora eydouxi|Podocarpus macrophyllus|Polyalthia stenopetala|Polygonum aviculare|Polygonum cuspidatum|Polygonum orientale|Polygonum sp.|Polypodium decumanum|Populus alba|Populus balsamifera|Populus candicans|Populus cathayana|Populus ciliata|Populus deltoides|Populus euphratica|Populus grandidentata|Populus laurifolia|Populus nigra|Populus szechuanica|Populus tomentosa|Populus tremula|Populus tremuloides|Populus trichocarpa|Populus tristis|Populus violascens|Populus yunnanensis|Porodaedalea pini|Porophyllum ruderale|Portulaca oleracea|Posidonia oceanica|Potentilla erecta|Potentilla fruticosa|Potentilla sp.|Potentilla tormentilla|Premna odorata|Premna tomentosa|Primula acaulis|Protium heptaphyllum|Prunella vulgaris|Prunus armeniaca|Prunus avium|Prunus cerasus|Prunus domestica|Prunus persica|Prunus persica var. nucipersica|Prunus serotina|Prunus serrulata|Pseudoalteromonas luteoviolacea|Pseudodictamnus hirsutus|Pseudotsuga japonica|Psidium guajava|Pteris ensiformis|Pterocarpus officinalis|Pterocarpus sp.|Pterocaulon virgatum|Pulicaria wightiana|Pulvinula constellatio|Punica Granatum|Punica granatum|Punica sp.|Purshia mexicana|Pyropia tenera|Pyrus communis|Quercus robur|Ranunculus baudotii|Ranunculus ternatus|Ranzania japonica|Raphanus sativus|Rauvolfia vomitoria|Reseda muricata|Rhabdonia verticillata|Rhaponticum carthamoides|Rheum rhabarbarum|Rheum sp.|Rhizoma curcumae|Rhodiola crenulata|Rhodiola rosea|Rhodiola sachalinensis|Rhodiola sacra|Rhodiola semenovii|Rhododendron dauricum|Rhododendron sp.|Ribes nigrum|Ribes rubrum|Ribes uva-crispa|Ricinus sp.|Roemeria refracta|Rosa chinensis|Rosa laevigata|Rosa rugosa|Rosa sp.|Rosa transmorrisonensis|Rosmarinus officinalis|Rosmarinus sp.|Rothmannia wittii|Rubia tetragona|Rubus chamaemorus|Rubus chingii|Rubus cochinchinensis|Rubus coreanus|Rubus idaeus|Rubus plicatus|Rumex chalepensis|Rumex japonicus|Rumex maritimus|Russula vesca|Sabia japonica|Sabina sargentii|Sagittaria sagittifolia|Salix interior|Salsola collina|Salvia hispanica|Salvia officinalis|Salvia parryi|Salvia sessei|Salvia sp.|Salvia syriaca|Sambucus sp.|Sanghuangporus sp.|Sanguisorba sp.|Sarcolaeana multiflora|Sargentodoxa cuneata|Sasa nipponica|Sassafras officinalis|Saussurea amara|Schisandra chinensis|Schizanthus tricolor|Scolymus hispanicus|Scoparia dulcis|Scrophularia buergeriana|Scrophularia frutescens|Scrophularia ningpoensis|Scrophularia sambucifolia|Scrophularia sp.|Scutellaria albida|Scutellaria albida subsp.albida|Scutellaria amoena|Scutellaria barbata|Secale cereale|Secale sp.|Secamone afzelii|Semiarundinaria fastuosa|Senecio scandens|Senna spectabilis|Serenoa repens|Sesamum sp.|Seseli mucronatum|Setosphaeria turcica|Sia ferox|Sideritis euboea|Sideritis stachydioides|Siegesbeckia pubescens|Sigesbeckia glabrescens|Silphium perfoliatum|Sinapis alba|Sinapis sp.|Sinularia depressa|Sisyrinchium californicum|Solanum Tuberosum|Solanum dasyphyllum|Solanum incanum|Solanum laxum|Solanum lycopersicum|Solanum melongena|Solanum nigrum|Solanum sp.|Solanum tuberosum|Solidago canadensis|Solidago gigantea|Solidago virgaurea|Sonneratia caseolaris|Sophora pachycarpa|Sorbus tianschanica|Sorghum halepense|Sparganium stoloniferum|Spathodea campanulata|Sphaeranthus confertifolius|Spinacia oleracea|Spiraea formosana|Spiraea salicifolia|Stachys chinensis|Stachys officinalis|Stephania elegans|Stephania zippeliana|Stereospermum acuminatissimum|Stereospermum zenkeri|Stigma croci|Streptomyces|Streptomyces argenteolus|Streptomyces avermectinius|Streptomyces lividans|Streptomyces pentaticus|Streptomyces xanthochromogenes|Strophanthus hispidus|Strychnos henningsii|Styrax benzoin|Styrax tonkinensis|Sweet Woodruff|Swertia franchetiana|Swertia swertopsis|Syagrus romanzoffiana|Syringa oblata|Syringa reticulata|Syzygium aromaticum|Syzygium sp.|Tadehagi triquetrum|Talaromyces variabilis|Tanacetum densum|Tanacetum nubigenum|Taraxacum borealisinense|Taraxacum coreanum|Taraxacum formosanum|Taraxacum mongolicum|Taraxacum officinale|Taraxacum platycarpum|Tarchonanthus camphoratus|Taxus baccata|Taxus brevifolia|Tecoma sp.|Tetrapanax papyrifer|Tetrapleura tetraptera|Teucrium lusitanicum|Teucrium salviastrum|Teucrium spinosum|Thalia multiflora|Thalictrum atriplex|Thalictrum longistylum|Thea sasanqua|Thymus|Thymus quinquecostatus|Thymus vulgaris|Tilia argentea|Tilia sp.|Tilia tomentosa|Tiliacora racemosa|Tolypothrix tenuis|Toxicodendron vernicifluum|Tragopogon orientalis|Tragopogon pratensis|Trichoderma koningi|Trifolium alpestre|Trifolium medium|Trifolium pratense|Trifolium pratense L.|Trifolium sp.|Trigonella sp.|Trinia scabra|Triptilion benaventei|Tristania conferta|Triticum|Triticum aestivum|Triticum durum|Trixis michuacana|Tropaeolum majus|Tsuga chinensis|Turpinia ternata|Typha domingensis|Typha domingensis P.|Urtica sp.|Uruparia lanosa|Usnea undulata|Utricularia australis|Vaccinium alaskaense|Vaccinium angustifolium|Vaccinium corymbosum|Vaccinium deliciosum|Vaccinium macrocarpon|Vaccinium myrtillus|Vaccinium ovalifolium|Vaccinium ovatum|Vaccinium oxycoccos|Vaccinium parvifolium|Vaccinium uliginosum|Vaccinium vitis-idaea|Vachellia farnesiana|Valeriana jatamansi|Valeriana officinalis|Verbascum laxum|Verbascum sp.|Verbesina virginica|Vernonia cistifolia|Vernonia lanuginosa|Vernonia scorpioides|Veronica polita|Viburnum dilatatum|Viburnum furcatum|Viburnum suspensum|Viburnum urceolatum|Viburnum wrightii|Vicia faba|Vigna angularis|Vigna radiata|Vigna radiata var. radiata|Vigna umbellata|Vigna umbeuata|Vigna unguiculata|Viguiera incana|Viguiera oblongifolia|Virgilia divaricata|Viscum coloratum|Visnea mocanera|Vitex agnus-castus|Vitis sp.|Vitis vinifera|Vittaria anguste-elongata|Wasabia japonica|Werneria nubigena|Wikstroemia hainanensis|Wikstroemia lanceolata|Wikstroemia retusa|Woodsia manchuriensis|Xanthorrhoea australis|Xanthorrhoea resinosa|Xylocarpus granatum|Xyris pterygoblephara|Zanthoxylum myriacanthum|Zanthoxylum tetraspermum|Zea mays|Zingiber|Zingiber officinale|Zingiber sp.|Ziziphus jujuba|Zostera marina|asparagus|basil|bellis perennis|bog bilberry|brazilian green propolis|broad bean|cacao|clove|dracocephalum ruyschiana|garlic|maize|parsley|peanut|pomegranate|rooibos|soybean|tomato|zigzag clover

>  <collections>  (1505) 
ANPDB|AfroDB|AfroMalariaDB|Australian natural products|BIOFACQUIM|CMAUP (cCollective molecular activities of useful plants)|ChEBI NPs|ChemSpider NPs|ConMedNP|DrugBankNP|EMNPD|ETM (Ethiopian Traditional Medicine) DB|Exposome-explorer|FooDB|HIM (Herbal Ingredients in-vivo Metabolism database)|HIT (Herbal Ingredients Targets)|InterBioScreen Ltd|KNApSaCK|Latin America dataset|Marine Natural Products|Mitishamba database|NANPDB (Natural Products from Northern African Sources)|NPASS|NPEdia|NuBBEDB|Phyto4Health|PhytoLab phyproof® Reference Substances|PubChem NPs|SANCDB|StreptomeDB|Super Natural II|TCMDB-Taiwan (Traditional Chinese Medicine database)|TIPdb (database of Taiwan indigenous plants)|VietHerb|WikiData Natural Products|p-ANAPL

>  <dois>  (1505) 
10.1002/(SICI)1096-9888(199706)32:6<645::AID-JMS518>3.0.CO;2-P|10.1002/(SICI)1099-1565(199603)7:2<97::AID-PCA286>3.0.CO;2-M|10.1002/(SICI)1099-1565(199901/02)10:1<6::AID-PCA431>3.0.CO;2-0|10.1002/(SICI)1099-1565(199909/10)10:5<268::AID-PCA467>3.0.CO;2-Z|10.1002/(SICI)1099-1573(1998)12:1+<S138::AID-PTR276>3.0.CO;2-5|10.1002/(SICI)1099-1573(1998)12:1+<S164::AID-PTR285>3.0.CO;2-G|10.1002/(SICI)1099-1573(199908/09)13:5<371::AID-PTR453>3.0.CO;2-L|10.1002/1099-1565(200011/12)11:6<375::AID-PCA539>3.0.CO;2-0|10.1002/1099-1565(200101/02)12:1<43::AID-PCA546>3.0.CO;2-Z|10.1002/ARDP.18962340813|10.1002/BMS.1200200504|10.1002/CBDV.200800139|10.1002/CBDV.200800179|10.1002/CBDV.201100021|10.1002/CBDV.201100219|10.1002/CBER.19681010627|10.1002/CHEM.200701328|10.1002/CHIN.199746233|10.1002/CHIN.200342212|10.1002/CHIN.200431147|10.1002/CHIN.200434239|10.1002/CHIN.200517210|10.1002/CHIN.200533256|10.1002/CHIN.200612217|10.1002/HLCA.194502801103|10.1002/HLCA.200690014|10.1002/HLCA.200890142|10.1002/HLCA.200900270|10.1002/JCCS.199100050|10.1002/JCCS.199800035|10.1002/JCCS.199900010|10.1002/JCCS.200000029|10.1002/JCCS.200200019|10.1002/JCCS.200200041|10.1002/JCCS.200300022|10.1002/JCCS.200400067|10.1002/JMS.395|10.1002/JPS.2600580211|10.1002/JSFA.2384|10.1002/JSFA.2740420206|10.1002/JSFA.2740500106|10.1002/JSSC.200390053|10.1002/JSSC.200390054|10.1002/JSSC.200900348|10.1002/PCA.2800040309|10.1002/PTR.1731|10.1002/cbdv.201100021|10.1006/BBRC.1999.1097|10.1006/JCRS.1996.0058|10.1006/JFCA.2002.1071|10.1007/BF00197956|10.1007/BF00487242|10.1007/BF00563959|10.1007/BF00564022|10.1007/BF00564480|10.1007/BF00564821|10.1007/BF00565058|10.1007/BF00565232|10.1007/BF00565263|10.1007/BF00565598|10.1007/BF00566073|10.1007/BF00566096|10.1007/BF00566184|10.1007/BF00566348|10.1007/BF00566355|10.1007/BF00568226|10.1007/BF00570871|10.1007/BF00571226|10.1007/BF00571239|10.1007/BF00574353|10.1007/BF00574748|10.1007/BF00575192|10.1007/BF00575726|10.1007/BF00579165|10.1007/BF00579785|10.1007/BF00579795|10.1007/BF00579831|10.1007/BF00597729|10.1007/BF00597869|10.1007/BF00598279|10.1007/BF00599274|10.1007/BF00629790|10.1007/BF00629813|10.1007/BF00629948|10.1007/BF00630225|10.1007/BF00630446|10.1007/BF00636560|10.1007/BF00982301|10.1007/BF00993699|10.1007/BF01012389|10.1007/BF01517880|10.1007/BF02065988|10.1007/BF02467553|10.1007/BF02490693|10.1007/BF02523530|10.1007/BF02671339|10.1007/BF02856441|10.1007/S00216-007-1298-8|10.1007/S00217-002-0603-1|10.1007/S002170050544|10.1007/S00394-019-01987-6|10.1007/S00425-010-1206-X|10.1007/S00580-015-2192-Y|10.1007/S10529-015-1825-1|10.1007/S10600-008-9119-7|10.1007/S10600-010-9540-6|10.1007/S10600-010-9595-4|10.1007/S10600-010-9598-1|10.1007/S10600-011-9794-7|10.1007/S10600-011-9896-2|10.1007/S10600-012-0124-5|10.1007/S10600-018-2530-9|10.1007/S11130-011-0236-2|10.1007/S11130-020-00822-2|10.1007/S11306-016-1051-4|10.1007/S11947-012-0877-7|10.1007/S12272-010-0404-1|10.1007/s11130-012-0286-0|10.1016/0021-9673(95)00248-L|10.1016/0021-9673(95)00585-B|10.1016/0021-9673(95)00877-2|10.1016/0031-9422(75)85262-9|10.1016/0031-9422(75)85315-5|10.1016/0031-9422(77)83010-0|10.1016/0031-9422(80)83209-2|10.1016/0031-9422(81)85100-X|10.1016/0031-9422(82)83018-5|10.1016/0031-9422(82)85180-7|10.1016/0031-9422(83)80186-1|10.1016/0031-9422(83)83029-5|10.1016/0031-9422(86)88033-5|10.1016/0031-9422(88)80188-2|10.1016/0031-9422(88)80811-2|10.1016/0031-9422(88)83095-4|10.1016/0031-9422(89)80295-X|10.1016/0031-9422(90)85186-J|10.1016/0031-9422(90)85281-J|10.1016/0031-9422(90)87143-I|10.1016/0031-9422(91)83010-I|10.1016/0031-9422(91)83015-D|10.1016/0031-9422(91)83503-D|10.1016/0031-9422(91)83748-A|10.1016/0031-9422(91)84225-H|10.1016/0031-9422(91)85032-U|10.1016/0031-9422(91)85033-V|10.1016/0031-9422(92)80233-5|10.1016/0031-9422(92)80458-Q|10.1016/0031-9422(92)83303-G|10.1016/0031-9422(92)83452-5|10.1016/0031-9422(93)80017-M|10.1016/0031-9422(95)00144-V|10.1016/0031-9422(95)00183-8|10.1016/0031-9422(95)00648-6|10.1016/0031-9422(95)00930-2|10.1016/0031-9422(96)00146-X|10.1016/0098-8472(86)90054-7|10.1016/0304-3770(95)00504-8|10.1016/0305-1978(91)90071-7|10.1016/0305-1978(94)00092-U|10.1016/0378-8741(84)90075-8|10.1016/0378-8741(96)01419-5|10.1016/B978-0-12-374420-3.00099-1|10.1016/B978-0-12-397934-6.00012-7|10.1016/B978-0-12-675407-0.50017-8|10.1016/B978-0-12-818162-1.00040-7|10.1016/J.ARABJC.2013.12.011|10.1016/J.BMC.2007.01.035|10.1016/J.BMC.2011.03.055|10.1016/J.BMCL.2011.10.043|10.1016/J.BMCL.2015.01.034|10.1016/J.CHROMA.2007.01.090|10.1016/J.FBIO.2018.07.004|10.1016/J.FITOTE.2005.08.020|10.1016/J.FITOTE.2010.12.003|10.1016/J.FITOTE.2011.10.014|10.1016/J.FOODCHEM.2004.02.020|10.1016/J.FOODCHEM.2004.04.011|10.1016/J.FOODCHEM.2005.07.053|10.1016/J.FOODCHEM.2005.09.003|10.1016/J.FOODCHEM.2005.11.053|10.1016/J.FOODCHEM.2006.08.014|10.1016/J.FOODCHEM.2006.11.008|10.1016/J.FOODCHEM.2007.08.038|10.1016/J.FOODCHEM.2020.128444|10.1016/J.FOODRES.2014.04.036|10.1016/J.IFSET.2018.01.008|10.1016/J.INDCROP.2013.06.011|10.1016/J.INDCROP.2018.07.060|10.1016/J.JEP.2008.06.005|10.1016/J.JEP.2015.12.016|10.1016/J.JFCA.2003.09.013|10.1016/J.JFCA.2005.09.003|10.1016/J.JFF.2015.12.019|10.1016/J.JFOODENG.2005.05.061|10.1016/J.JPBA.2011.02.029|10.1016/J.JPBA.2016.01.021|10.1016/J.LWT.2006.07.003|10.1016/J.LWT.2018.02.024|10.1016/J.PHYMED.2003.10.009|10.1016/J.PHYMED.2006.11.021|10.1016/J.PHYTOCHEM.2003.08.023|10.1016/J.PHYTOCHEM.2004.08.051|10.1016/J.PHYTOCHEM.2005.08.011|10.1016/J.PHYTOCHEM.2005.11.023|10.1016/J.PHYTOCHEM.2006.04.009|10.1016/J.PHYTOCHEM.2007.03.007|10.1016/J.PHYTOCHEM.2007.03.037|10.1016/J.PHYTOCHEM.2007.04.014|10.1016/J.PHYTOCHEM.2007.05.027|10.1016/J.PHYTOCHEM.2007.05.035|10.1016/J.PHYTOCHEM.2007.06.020|10.1016/J.PHYTOCHEM.2007.08.021|10.1016/J.PHYTOCHEM.2009.04.008|10.1016/J.PHYTOCHEM.2009.10.007|10.1016/J.PHYTOCHEM.2010.01.013|10.1016/J.PHYTOCHEM.2011.01.018|10.1016/J.PHYTOCHEM.2011.07.007|10.1016/J.PHYTOCHEM.2018.05.011|10.1016/J.PHYTOL.2020.02.005|10.1016/S0003-2670(01)01241-7|10.1016/S0003-2670(97)00668-5|10.1016/S0015-3796(86)80057-9|10.1016/S0021-9673(00)01030-X|10.1016/S0021-9673(01)87655-X|10.1016/S0021-9673(01)93959-7|10.1016/S0021-9673(97)01259-4|10.1016/S0031-9422(00)00110-2|10.1016/S0031-9422(00)00479-9|10.1016/S0031-9422(00)80358-1|10.1016/S0031-9422(00)80460-4|10.1016/S0031-9422(00)80599-3|10.1016/S0031-9422(00)80622-6|10.1016/S0031-9422(00)81125-5|10.1016/S0031-9422(00)81727-6|10.1016/S0031-9422(00)82625-4|10.1016/S0031-9422(00)82903-9|10.1016/S0031-9422(00)83140-4|10.1016/S0031-9422(00)84510-0|10.1016/S0031-9422(00)84920-1|10.1016/S0031-9422(00)84992-4|10.1016/S0031-9422(00)85114-6|10.1016/S0031-9422(00)85977-4|10.1016/S0031-9422(00)86894-6|10.1016/S0031-9422(00)88025-5|10.1016/S0031-9422(00)88104-2|10.1016/S0031-9422(00)89605-3|10.1016/S0031-9422(00)90786-6|10.1016/S0031-9422(00)94673-9|10.1016/S0031-9422(00)95289-0|10.1016/S0031-9422(00)97572-1|10.1016/S0031-9422(00)97805-1|10.1016/S0031-9422(00)97990-1|10.1016/S0031-9422(01)00137-6|10.1016/S0031-9422(01)00172-8|10.1016/S0031-9422(01)00415-0|10.1016/S0031-9422(01)00449-6|10.1016/S0031-9422(02)00133-4|10.1016/S0031-9422(02)00236-4|10.1016/S0031-9422(03)00297-8|10.1016/S0031-9422(03)00422-9|10.1016/S0031-9422(96)00388-3|10.1016/S0031-9422(97)00092-7|10.1016/S0031-9422(97)00370-1|10.1016/S0031-9422(97)01118-7|10.1016/S0031-9422(97)01134-5|10.1016/S0031-9422(98)00453-1|10.1016/S0031-9422(98)00687-6|10.1016/S0031-9422(99)00070-9|10.1016/S0031-9422(99)00074-6|10.1016/S0031-9422(99)00116-8|10.1016/S0031-9422(99)00598-1|10.1016/S0040-4020(01)98186-4|10.1016/S0305-1978(01)00130-2|10.1016/S0305-1978(02)00065-0|10.1016/S0308-8146(00)00322-8|10.1016/S0308-8146(01)00125-X|10.1016/S0308-8146(03)00294-2|10.1016/S0308-8146(98)00146-0|10.1016/S0378-8741(98)00245-1|10.1016/S0731-7085(00)00541-0|10.1016/S0889-1575(02)91071-9|10.1016/S0926-6690(00)00088-1|10.1016/S0963-9969(00)00072-7|10.1016/S0963-9969(00)00086-7|10.1016/S0963-9969(99)00095-2|10.1016/S0968-0896(00)00225-X|10.1016/S0981-9428(00)00774-9|10.1016/S1466-8564(01)00040-6|10.1016/j.arabjc.2013.12.011|10.1016/j.bmc.2007.01.035|10.1016/j.bmc.2009.07.016|10.1016/j.bmc.2011.07.060|10.1016/j.bmcl.2015.01.034|10.1016/j.foodchem.2020.128444|10.1016/j.foodres.2019.108899|10.1016/j.jep.2008.06.005|10.1016/j.jfca.2003.09.013|10.1016/s0031-9422(00)85269-3|10.1021/ACS.JAFC.6B02950|10.1021/ACS.JNATPROD.6B00582|10.1021/JF00021A005|10.1021/JF00035A076|10.1021/JF000422S|10.1021/JF00042A006|10.1021/JF00056A057|10.1021/JF00067A013|10.1021/JF00078A018|10.1021/JF00110A030|10.1021/JF001145S|10.1021/JF00118A016|10.1021/JF00118A035|10.1021/JF00121A033|10.1021/JF00123A028|10.1021/JF0013407|10.1021/JF0200164|10.1021/JF020055F|10.1021/JF0201327|10.1021/JF0205211|10.1021/JF020728U|10.1021/JF020957G|10.1021/JF0257547|10.1021/JF025929C|10.1021/JF0307595|10.1021/JF034791A|10.1021/JF040083T|10.1021/JF040097Z|10.1021/JF0483117|10.1021/JF049450R|10.1021/JF049847V|10.1021/JF050579Q|10.1021/JF050579Q.S001|10.1021/JF050721N|10.1021/JF051513Y|10.1021/JF0615247|10.1021/JF1049084|10.1021/JF802152Z|10.1021/JF900159H|10.1021/JF900695S|10.1021/JF9014685|10.1021/JF9505335|10.1021/JF960741C|10.1021/JF970831X|10.1021/JF980049C|10.1021/JF980258X|10.1021/JF990530I|10.1021/JF990972U|10.1021/JF991266W|10.1021/NP0000318|10.1021/NP000061A|10.1021/NP000496Y|10.1021/NP010035S|10.1021/NP010091T|10.1021/NP0105578|10.1021/NP020006X|10.1021/NP020513E|10.1021/NP0301238|10.1021/NP030150Y|10.1021/NP0302854|10.1021/NP0500171|10.1021/NP050060O|10.1021/NP0501031|10.1021/NP0501031.S001|10.1021/NP0580210|10.1021/NP0604533|10.1021/NP0702786|10.1021/NP300609U|10.1021/NP50004A006|10.1021/NP50008A001|10.1021/NP50037A033|10.1021/NP50042A023|10.1021/NP50048A014|10.1021/NP50052A040|10.1021/NP50057A010|10.1021/NP50087A014|10.1021/NP50090A006|10.1021/NP50101A022|10.1021/NP900625W|10.1021/NP960037Q|10.1021/NP960430W|10.1021/acs.jnatprod.0c00551|10.1021/acs.jnatprod.0c00756|10.1021/acs.jnatprod.6b00582|10.1021/acs.jnatprod.8b01086|10.1021/jf9810261|10.1021/np000496y|10.1021/np070104o|10.1021/np300576w|10.1021/np300609u|10.1021/np50057a010|10.1021/np900625w|10.1021/np900772m|10.1023/B:CONC.0000025477.18086.8B|10.1023/B:JOEC.0000006419.22408.65|10.1034/J.1399-3054.2000.100304.X|10.1038/NBT.2488|10.1038/nbt.2488|10.1039/CT9140500767|10.1039/J39680000854|10.1042/BJ2030493|10.1046/J.1365-2621.1998.00219.X|10.1046/J.1432-1033.2003.03729.X|10.1055/S-0028-1097628|10.1055/S-0028-1097714|10.1055/S-0028-1097904|10.1055/S-0028-1099426|10.1055/S-0028-1099839|10.1055/S-0029-1240611|10.1055/S-2004-815540|10.1055/S-2005-873181|10.1055/S-2006-957704|10.1055/S-2006-959432|10.1055/S-2006-959552|10.1055/S-2006-959577|10.1055/S-2006-959608|10.1055/S-2006-960092|10.1055/S-2006-960784|10.1055/S-2006-960959|10.1055/S-2006-962041|10.1055/S-2006-962518|10.1055/S-2007-969319|10.1080/01483918808076763|10.1080/01483919008049590|10.1080/10286020.2011.596829|10.1080/10286020.2018.1475476|10.1080/10408390802145377|10.1080/10575630290034302|10.1080/1071576021000006707|10.1080/10826079408013609|10.1080/10826079708005561|10.1081/JLC-100101676|10.1081/JLC-100101744|10.1086/325089|10.1093/OXFORDJOURNALS.JHERED.A109563|10.1093/PCP/PCM173|10.1093/jn/133.6.1806|10.1104/PP.101.3.847|10.1104/PP.106.078428|10.1104/PP.109.148031|10.1111/1750-3841.12295|10.1111/1750-3841.12404|10.1111/J.1365-2621.1987.TB14056.X|10.1111/J.1745-4514.2007.00107.X|10.1111/J.1745-4522.2007.00107.X|10.1111/J.2042-7158.1998.TB03332.X|10.1111/JFBC.12935|10.1139/B82-307|10.1139/B91-288|10.1155/2014/304830|10.1177/1934578X0900400602|10.1186/1475-2859-12-45|10.1186/S12864-015-1547-8|10.1248/BPB.22.157|10.1248/BPB.23.1216|10.1248/BPB.24.1373|10.1248/BPB.25.1101|10.1248/BPB.25.505|10.1248/CPB.17.124|10.1248/CPB.28.1894|10.1248/CPB.29.2807|10.1248/CPB.31.436|10.1248/CPB.31.919|10.1248/CPB.32.578|10.1248/CPB.35.2668|10.1248/CPB.36.807|10.1248/CPB.38.1857|10.1248/CPB.38.3218|10.1248/CPB.39.2362|10.1248/CPB.39.709|10.1248/CPB.42.1198|10.1248/CPB.42.1669|10.1248/CPB.46.1624|10.1248/CPB.46.362|10.1248/CPB.47.141|10.1248/CPB.47.571|10.1248/CPB.47.887|10.1248/CPB.48.1006|10.1248/CPB.49.396|10.1248/CPB.50.583|10.1248/CPB.51.599|10.1248/CPB.52.1265|10.1248/CPB.52.345|10.1248/CPB.53.56|10.1248/CPB.54.1063|10.1248/CPB.54.506|10.1248/CPB.55.1505|10.1248/CPB.55.492|10.1248/CPB.57.1089|10.1248/CPB.57.1352|10.1248/CPB.57.269|10.1248/CPB.58.1646|10.1248/CPB.59.1425|10.1248/CPB.60.129|10.1248/YAKUSHI1947.103.9_997|10.1248/YAKUSHI1947.104.12_1223|10.1248/YAKUSHI1947.104.5_535|10.1248/YAKUSHI1947.105.5_442|10.1248/YAKUSHI1947.105.6_542|10.1248/YAKUSHI1947.107.1_23|10.1248/YAKUSHI1947.108.7_647|10.1248/YAKUSHI1947.118.8_332|10.1248/YAKUSHI1947.95.9_1098|10.1271/BBB.58.1087|10.1271/BBB.58.1141|10.1271/BBB.59.526|10.1271/BBB.60507|10.1371/JOURNAL.PONE.0219973|10.14233/AJCHEM.2014.16143A|10.1515/HF.1999.096|10.1515/PJFNS-2017-0005|10.1515/ZNB-1966-0509|10.1515/ZNC-1984-0601|10.1515/ZNC-1986-5-603|10.1515/ZNC-1988-1-210|10.1515/ZNC-1989-5-603|10.1515/ZNC-1990-0604|10.1515/ZNC-1992-0602|10.1515/ZNC-1992-0624|10.1515/ZNC-1992-3-423|10.1515/ZNC-1992-7-804|10.1515/ZNC-1992-9-1022|10.1515/ZNC-1992-9-1023|10.1515/ZNC-1994-1-208|10.1515/ZNC-1997-7-805|10.1515/ZNC-1998-11-1225|10.1515/ZNC-1999-1220|10.1515/ZNC-2001-1-203|10.1515/ZNC-2001-5-604|10.1515/ZNC-2001-9-1012|10.1515/ZNC-2003-7-826|10.1590/S0212-16112011000600015|10.17660/ACTAHORTIC.2003.597.15|10.21273/HORTSCI.29.4.313|10.2307/3869512|10.3186/JJPHYTOPATH.54.453|10.3389/fbioe.2015.00116|10.3390/70100075|10.3390/IJMS160715625|10.3390/METABO4030599|10.3390/MOLECULES13020255|10.3390/MOLECULES16031917|10.3390/MOLECULES21111576|10.3390/MOLECULES23020469|10.3390/MOLECULES23030604|10.3390/MOLECULES23071558|10.3390/MOLECULES24213958|10.3390/NU11020402|10.3390/NU11061377|10.3390/molecules24162945|10.3390/molecules24183212|10.3390/molecules27020483|10.3390/molecules27061860|10.3390/plants11030377|10.3746/JKFN.2006.35.6.713|10.3923/AJPS.2011.147.152|10.3945/AN.113.004473|10.3945/jn.109.113613|10.3987/COM-03-9777|10.4103/0971-4065.82131|10.4268/CJCMM20111611|10.4268/CJCMM20121914|10.4268/CJCMM20122316|10.4314/NJNPM.V1I1.11800|10.5586/ASBP.1988.009|10.5586/ASBP.1991.011|10.5586/ASBP.1995.007|10.5586/ASBP.1998.029|10.5586/ASBP.2000.003|10.5935/0103-5053.20130184|10.9734/EJMP/2013/4976

>  <synonyms>  (1505) 
(E)-3-(4-Hydroxyphenyl)acrylic acid|Naringeninic acid|trans-4-Hydroxycinnamic acid

>  <cas>  (1505) 
501-98-4

$$$$

     RDKit          2D

 17 19  0  0  0  0  0  0  0  0999 V2000
   -0.1844   -2.5567    0.0000 O   0  0  0  0  0  0  0  0  0  0  0  0
   -0.1659   -1.0569    0.0000 C   0  0  0  0  0  0  0  0  0  0  0  0
    1.1423   -0.3229    0.0000 C   0  0  0  0  0  0  0  0  0  0  0  0
    2.4320   -1.0889    0.0000 C   0  0  0  0  0  0  0  0  0  0  0  0
    3.7402   -0.3550    0.0000 C   0  0  0  0  0  0  0  0  0  0  0  0
    5.0299   -1.1209    0.0000 O   0  0  0  0  0  0  0  0  0  0  0  0
    3.7587    1.1449    0.0000 C   0  0  0  0  0  0  0  0  0  0  0  0
    2.4690    1.9109    0.0000 C   0  0  0  0  0  0  0  0  0  0  0  0
    1.1608    1.1769    0.0000 C   0  0  0  0  0  0  0  0  0  0  0  0
   -0.1289    1.9429    0.0000 O   0  0  0  0  0  0  0  0  0  0  0  0
   -1.4371    1.2090    0.0000 C   0  0  0  0  0  0  0  0  0  0  0  0
   -2.7268    1.9750    0.0000 C   0  0  0  0  0  0  0  0  0  0  0  0
   -4.0349    1.2410    0.0000 C   0  0  0  0  0  0  0  0  0  0  0  0
   -4.0534   -0.2588    0.0000 C   0  0  0  0  0  0  0  0  0  0  0  0
   -2.7638   -1.0248    0.0000 C   0  0  0  0  0  0  0  0  0  0  0  0
   -2.7823   -2.5247    0.0000 O   0  0  0  0  0  0  0  0  0  0  0  0
   -1.4556   -0.2909    0.0000 C   0  0  0  0  0  0  0  0  0  0  0  0
  1  2  2  0
  2  3  1  0
  3  4  2  0
  4  5  1  0
  5  6  1  0
  5  7  2  0
  7  8  1  0
  8  9  2  0
  9 10  1  0
 10 11  1  0
 11 12  2  0
 12 13  1  0
 13 14  2  0
 14 15  1  0
 15 16  1  0
 15 17  2  0
 17  2  1  0
  9  3  1  0
 17 11  1  0
M  END
>  <identifier>  (1506) 
CNP0273702.0

>  <canonical_smiles>  (1506) 
O=C1C2=CC(O)=CC=C2OC2=CC=CC(O)=C12

>  <standard_inchi>  (1506) 
InChI=1S/C13H8O4/c14-7-4-5-10-8(6-7)13(16)12-9(15)2-1-3-11(12)17-10/h1-6,14-15H

>  <standard_inchi_key>  (1506) 
KDXFPEKLLFWHMN-UHFFFAOYSA-N

>  <name>  (1506) 
Euxanthone

>  <iupac_name>  (1506) 
1,7-dihydroxyxanthen-9-one

>  <annotation_level>  (1506) 
5

>  <total_atom_count>  (1506) 
25

>  <heavy_atom_count>  (1506) 
17

>  <molecular_weight>  (1506) 
228.2

>  <exact_molecular_weight>  (1506) 
228.04226

>  <molecular_formula>  (1506) 
C13H8O4

>  <alogp>  (1506) 
2.36

>  <topological_polar_surface_area>  (1506) 
70.67

>  <rotatable_bond_count>  (1506) 
0

>  <hydrogen_bond_acceptors>  (1506) 
4

>  <hydrogen_bond_donors>  (1506) 
2

>  <hydrogen_bond_acceptors_lipinski>  (1506) 
4

>  <hydrogen_bond_donors_lipinski>  (1506) 
2

>  <lipinski_rule_of_five_violations>  (1506) 
0

>  <aromatic_rings_count>  (1506) 
3

>  <qed_drug_likeliness>  (1506) 
0.58

>  <formal_charge>  (1506) 
0

>  <fractioncsp3>  (1506) 
0.00

>  <number_of_minimal_rings>  (1506) 
3

>  <van_der_walls_volume>  (1506) 
186.30

>  <contains_sugar>  (1506) 
False

>  <contains_ring_sugars>  (1506) 
False

>  <contains_linear_sugars>  (1506) 
False

>  <murcko_framework>  (1506) 
O1c2ccccc2Cc3ccccc13

>  <np_likeness>  (1506) 
1.13

>  <chemical_class>  (1506) 
Benzopyrans

>  <chemical_sub_class>  (1506) 
1-benzopyrans

>  <chemical_super_class>  (1506) 
Organoheterocyclic compounds

>  <direct_parent_classification>  (1506) 
Xanthones

>  <np_classifier_pathway>  (1506) 
Shikimates and Phenylpropanoids

>  <np_classifier_superclass>  (1506) 
Xanthones

>  <np_classifier_class>  (1506) 
Methyl xanthones

>  <np_classifier_is_glycoside>  (1506) 
False

>  <organisms>  (1506) 
Aaptos aaptos|Achillea santolina|Aconitum nevadense|Actinopyga agassizi|Agasthiyamalaia pauciflora|Alexandrian laurel|Allanblackia gabonensis|Alseodaphne corneri|Annona impressivenia|Aplidium tabascum|Aplysilla spinifera|Arcyria denudata|Ascochyta viciae|Aspergillus unguis|Aster bellidiastrum|Aulacocephalus temmincki|Berberis stolonifera|Bersama yangambiensis|Bonnetia paniculata|Bonnettia spp.|Calophyllum Inophyllum|Calophyllum austroindicum|Calophyllum bracteatum|Calophyllum calaba|Calophyllum cuneifolium|Calophyllum fragrans|Calophyllum hosei|Calophyllum inophyllum|Calophyllum pulcherrimum|Calophyllum ramiflorum|Calophyllum sclerophyllum|Calophyllum soulattri|Calophyllum teysmannii|Calophyllum thwaitesii|Calophyllum tomentosum|Calophyllum trapezifolium|Calophyllum walkeri|Castanopsis sclerophylla|Chromatium okenii|Cistanche salsa|Conocephalum japonicum|Cordylanthus kingii|Cratoxylum arborescens|Cratoxylum cochinchinense|Cratoxylum formosanum|Cratoxylum formosum|Cratoxylum maingayi|Crinipellis scabella|Crocus sieberi|Croton cumingii|Cystophora scalaris|Davidsoniella virescens|Disynaphia halimifolia|Dolomiaea souliei|Doodia picta|Dryobalanops oblongifolia|Eragrostis viscosa|Erechtites quadridentata|Eucalyptus camaldulensis|Eugenia myrcianthes|Eunicella cavolinii|Forcipomyia marksae|Forsteronia refracta|Fridericia chica|Garcinia Cowa|Garcinia Oblongifolia|Garcinia afzelii|Garcinia afzelii ENGL.|Garcinia brasiliensis|Garcinia buchananii|Garcinia cowa|Garcinia dulcis|Garcinia gardneriana|Garcinia griffithii|Garcinia indica|Garcinia linii|Garcinia mangostana|Garcinia oblongifolia|Garcinia spp.|Garcinia subelliptica|Garcinia tetrandra|Genista corsica|Goniothalamus griffithii|Grewia mollis|Gymnocarpium robertianum|Gynochthodes officinalis|Halimodendron halodendron|Haploclathra spp.|Harungana madagascariensis|Heliotropium floridum|Heterotheca grandiflora|Hovenia acerba|Hura crepitans|Hypericum Ascyron|Hypericum androsaemum|Hypericum ascyron|Hypericum beanii|Hypericum canariense|Hypericum chinense|Hypericum erectum|Hypericum ericoides|Hypericum geminiflorum|Hypericum henryi|Hypericum inodorum|Hypericum japonicum|Hypericum mysorense|Hypericum mysurense|Hypericum perforatum|Hypericum sampsonii|Hypericum scabrum|Iotrochota baculifera|Iphigenia indica|Jacobaea persoonii|Juglans nigra|Kaempferia marginata|Kaunia saltensis|Kayea assamica|Kielmeyera candidissima|Kielmeyera excelsa|Lecanora kukunorensis|Leptogorgia sarmentosa|Lindera fruticosa|Lindera neesiana|Lonicera hypoleuca|Mammea acuminata|Mammea africana|Mammea americana|Mammea siamensis|Mangifera indica|Mangifera odorata|Mesua assamica|Mesua ferrea|Montanoa karwinskii|Moschus moschiferus|Myelochroa aurulenta|Narcissus concolor|Nauclea officinalis|Nauclea pilosa|Neomeris annulata|Nicotiana sylvestris|Nocardia alba|Oncoba echinata|Ophiolepis superba|Papilio phorcas|Parabenzoin trilobum|Peliosanthes sinica|Pentadesma butyracea|Piper nepalense|Piper wightii|Piptothrix areolare|Pittocaulon velatum|Platonia insignis|Ploiarium alternifolium|Ploiarium elegans|Polycephalomyces nipponicus|Polygala caudata|Polygala karensium|Polygala sibirica|Polygala tenuifolia|Poria selecta|Psorospermum aurantiacum|Psorospermum laurentii|Psorospermum molluscum|Ramalina paludosa|Rheedia gardneriana|Rheedia gardneriana Planch.et Triana.|Rosa sericea|Rubrivivax gelatinosus|Ruta pinnata|Salix matsudana|Salvia dorrii|Scleronephthya pallida|Securidaca Inappendiculata|Securidaca inappendiculata|Senecio vellereus|Senna obtusifolia|Serpocaulon triseriale|Setosphaeria holmii|Sophora angustifolia|Stevia polycephala|Streptomyces alboniger|Streptomyces ambofaciens|Streptomyces parvisporogenes|Strychnos decussata|Suberites domuncula|Syphonia globifera|Teucrium depressum|Thymus piperella|Trametes cinnabarina|Trichilia rubescens|Trifolium resupinatum|Verbena bonariensis|Vismia guianensis|Vismia latifolia|Vismia laurentii|Vismia martiana|Vismia micrantha|Vismia parviflora|Weddellina squamulosa|Wibelia divaricata|Zanthoxylum decaryi|polygala karensium

>  <collections>  (1506) 
AfroCancer|AfroDB|Australian natural products|CMAUP (cCollective molecular activities of useful plants)|ChEBI NPs|ConMedNP|FooDB|HIM (Herbal Ingredients in-vivo Metabolism database)|KNApSaCK|Latin America dataset|NPACT|NPASS|NPEdia|NuBBEDB|Phyto4Health|Specs Natural Products|Super Natural II|TCMDB-Taiwan (Traditional Chinese Medicine database)|TCMID (Traditional Chinese Medicine Integrated Database)|TIPdb (database of Taiwan indigenous plants)|UEFS (Natural Products Databse of the UEFS)|UNPD (Universal Natural Products Database)|VietHerb|WikiData Natural Products|p-ANAPL

>  <dois>  (1506) 
10.1002/CHIN.200402240|10.1002/CHIN.200511237|10.1002/RECL.19290480408|10.1007/S10600-008-9089-9|10.1007/S10600-008-9141-9|10.1007/S10870-005-1149-4|10.1007/S11418-008-0256-X|10.1016/0031-9422(75)85322-2|10.1016/0031-9422(77)83044-6|10.1016/0031-9422(81)80026-X|10.1016/0031-9422(82)83122-1|10.1016/0031-9422(82)83202-0|10.1016/0031-9422(90)80218-6|10.1016/0031-9422(90)85035-E|10.1016/0031-9422(91)85067-A|10.1016/0031-9422(95)00202-I|10.1016/0031-9422(95)00908-6|10.1016/0031-9422(96)00111-2|10.1016/0031-9422(96)00323-8|10.1016/J.BMCL.2012.04.028|10.1016/J.BMCL.2013.08.085|10.1016/J.BSE.2003.10.010|10.1016/J.PHYTOCHEM.2004.08.014|10.1016/J.PHYTOCHEM.2005.02.025|10.1016/J.PHYTOCHEM.2005.04.032|10.1016/J.PHYTOCHEM.2005.06.009|10.1016/J.PHYTOCHEM.2006.03.018|10.1016/J.PHYTOCHEM.2006.05.043|10.1016/J.PHYTOCHEM.2006.09.037|10.1016/J.PHYTOCHEM.2009.04.024|10.1016/J.PHYTOL.2010.02.006|10.1016/J.PHYTOL.2010.07.003|10.1016/J.TET.2008.05.125|10.1016/S0024-3205(99)00596-2|10.1016/S0031-9422(00)80095-3|10.1016/S0031-9422(00)83507-4|10.1016/S0031-9422(00)85161-4|10.1016/S0031-9422(00)85714-3|10.1016/S0031-9422(00)86224-X|10.1016/S0031-9422(00)88243-6|10.1016/S0031-9422(00)90126-2|10.1016/S0031-9422(00)97571-X|10.1016/S0031-9422(01)00356-9|10.1016/S0031-9422(03)00243-7|10.1016/S0031-9422(82)85053-X|10.1016/S0031-9422(96)00856-4|10.1016/S0031-9422(97)00820-0|10.1016/S0031-9422(98)00116-2|10.1016/S0031-9422(98)00381-1|10.1016/S0031-9422(99)00059-X|10.1016/S0031-9422(99)00412-4|10.1016/S0031-9422(99)00520-8|10.1016/S0040-4020(01)82592-8|10.1016/S0040-4039(00)94620-3|10.1016/s0040-4039(01)89507-1|10.1021/NP040024+|10.1021/NP050084V|10.1021/NP050407N|10.1021/NP060048B|10.1021/NP060556L|10.1021/NP070507O|10.1021/NP070523L|10.1021/NP1001797|10.1021/NP200051J|10.1021/NP500124E|10.1021/NP50020A004|10.1021/NP50039A018|10.1021/NP50043A010|10.1021/NP5007873|10.1021/NP8001145|10.1021/NP800496C|10.1021/np5007873|10.1039/J39660000178|10.1039/J39690000486|10.1039/J39690001567|10.1039/J39690002421|10.1039/P19720001896|10.1039/P19720001935|10.1039/P19740002510|10.1039/P19770001505|10.1055/S-2000-8542|10.1055/S-2001-15809|10.1055/S-2003-43219|10.1055/S-2004-835851|10.1055/S-2005-837788|10.1055/S-2005-864108|10.1055/S-2006-951725|10.1055/S-2006-957429|10.1080/14786410600899118|10.1111/J.2042-7158.1996.TB03988.X|10.1177/1934578X1701200337|10.1248/BPB.19.311|10.1248/CPB.33.557|10.1248/CPB.54.126|10.1248/CPB.54.448|10.1248/CPB.54.884|10.1590/S0103-50531997000500011|10.1590/S0103-50532000000500017|10.3987/COM-91-5909|10.3987/COM-96-7557

>  <synonyms>  (1506) 
1,7-Bis(oxidanyl)xanthen-9-one|1,7-Dihydroxy-9H-xanthen-9-one, 9CI|1,7-Dihydroxyxanthone|1,7-dihydroxy-9H-xanthen-9-one|17-Dihydroxyxanthone, euxanthone|529-61-3|9H-Xanthen-9-one, 1,7-dihydroxy-|9H-Xanthen-9-one, 1,7-dihydroxyxanthone|A870855|AKOS000278034|BDBM50268290|Betahistinedihdrochloride|CHEBI:4946|CHEMBL389166|CS-0024400|DTXSID00200947|Euxanthon|FS-9979|HY-N3883|NCGC00385409-01!1,7-dihydroxyxanthen-9-one|Q27089350|QN875WE9R7|SCHEMBL1230282|Xanthen-9-one, 1,7-dihydroxy- ; 1,7-Dihydroxy-9H-xanthen-9-one; 1,7-Dihydroxyxanthone; DX 1|eyxanthone|purrenone

>  <cas>  (1506) 
529-61-3

$$$$

     RDKit          2D

 16 18  0  0  0  0  0  0  0  0999 V2000
   -1.0927   -3.2855    0.0000 C   0  0  0  0  0  0  0  0  0  0  0  0
    0.0760   -2.3453    0.0000 C   0  0  0  0  0  0  0  0  0  0  0  0
    1.5236   -2.7382    0.0000 C   0  0  0  0  0  0  0  0  0  0  0  0
    2.3446   -1.4828    0.0000 C   0  0  0  0  0  0  0  0  0  0  0  0
    1.4044   -0.3140    0.0000 C   0  0  0  0  0  0  0  0  0  0  0  0
    0.0023   -0.8471    0.0000 C   0  0  0  0  0  0  0  0  0  0  0  0
   -1.2887   -0.0833    0.0000 C   0  0  0  0  0  0  0  0  0  0  0  0
   -1.4964    1.4023    0.0000 C   0  0  0  0  0  0  0  0  0  0  0  0
   -0.4644    2.4909    0.0000 C   0  0  0  0  0  0  0  0  0  0  0  0
    1.0301    2.3628    0.0000 C   0  0  0  0  0  0  0  0  0  0  0  0
    1.8618    1.1145    0.0000 C   0  0  0  0  0  0  0  0  0  0  0  0
    2.8937    2.2031    0.0000 C   0  0  0  0  0  0  0  0  0  0  0  0
    3.1527    0.3507    0.0000 O   0  0  0  0  0  0  0  0  0  0  0  0
   -2.6791    0.4796    0.0000 C   0  0  0  0  0  0  0  0  0  0  0  0
   -3.7931    1.4841    0.0000 C   0  0  0  0  0  0  0  0  0  0  0  0
   -3.4748   -0.7919    0.0000 C   0  0  0  0  0  0  0  0  0  0  0  0
  2  1  1  6
  2  3  1  0
  3  4  1  0
  5  4  1  6
  5  6  1  0
  6  7  1  0
  7  8  1  0
  8  9  1  1
  9 10  1  0
 10 11  1  0
 11 12  1  1
 11 13  1  0
  8 14  1  0
 14 15  1  0
 14 16  1  0
  6  2  1  6
  7 14  1  1
 11  5  1  0
M  END
>  <identifier>  (1507) 
CNP0210398.2

>  <canonical_smiles>  (1507) 
C[C@H]1CC[C@@H]2[C@H]1[C@@H]1[C@H](CC[C@]2(C)O)C1(C)C

>  <standard_inchi>  (1507) 
InChI=1S/C15H26O/c1-9-5-6-10-12(9)13-11(14(13,2)3)7-8-15(10,4)16/h9-13,16H,5-8H2,1-4H3/t9-,10+,11-,12-,13-,15-/m0/s1

>  <standard_inchi_key>  (1507) 
AYXPYQRXGNDJFU-AQEIEYEASA-N

>  <name>  (1507) 
Ledol

>  <iupac_name>  (1507) 
(1~{a}~{S},4~{S},4~{a}~{R},7~{S},7~{a}~{R},7~{b}~{R})-1,1,4,7-tetramethyl-2,3,4~{a},5,6,7,7~{a},7~{b}-octahydro-1~{a}~{H}-cyclopropa[e]azulen-4-ol

>  <annotation_level>  (1507) 
5

>  <total_atom_count>  (1507) 
42

>  <heavy_atom_count>  (1507) 
16

>  <molecular_weight>  (1507) 
222.37

>  <exact_molecular_weight>  (1507) 
222.19837

>  <molecular_formula>  (1507) 
C15H26O

>  <alogp>  (1507) 
3.47

>  <topological_polar_surface_area>  (1507) 
20.23

>  <rotatable_bond_count>  (1507) 
0

>  <hydrogen_bond_acceptors>  (1507) 
1

>  <hydrogen_bond_donors>  (1507) 
1

>  <hydrogen_bond_acceptors_lipinski>  (1507) 
1

>  <hydrogen_bond_donors_lipinski>  (1507) 
1

>  <lipinski_rule_of_five_violations>  (1507) 
0

>  <aromatic_rings_count>  (1507) 
0

>  <qed_drug_likeliness>  (1507) 
0.67

>  <formal_charge>  (1507) 
0

>  <fractioncsp3>  (1507) 
1.00

>  <number_of_minimal_rings>  (1507) 
3

>  <van_der_walls_volume>  (1507) 
236.25

>  <contains_sugar>  (1507) 
False

>  <contains_ring_sugars>  (1507) 
False

>  <contains_linear_sugars>  (1507) 
False

>  <murcko_framework>  (1507) 
C1CC2CCCC2C3CC3C1

>  <np_likeness>  (1507) 
3.13

>  <chemical_class>  (1507) 
Prenol lipids

>  <chemical_sub_class>  (1507) 
Sesquiterpenoids

>  <chemical_super_class>  (1507) 
Lipids and lipid-like molecules

>  <direct_parent_classification>  (1507) 
Guaianes

>  <np_classifier_pathway>  (1507) 
Terpenoids

>  <np_classifier_superclass>  (1507) 
Sesquiterpenoids

>  <np_classifier_class>  (1507) 
Aromadendrane sesquiterpenoids

>  <np_classifier_is_glycoside>  (1507) 
False

>  <organisms>  (1507) 
Aca sellowiana|Angelica pubescens|Aralia continentalis|Aristolochia indica|Chrysanthemum indicum|Chrysanthemum x morifolium|Commiphora quadricincta|Corymbia citriodora|Curcuma kwangsiensis|Curcuma phaeocaulis|Curcuma wenyujin|Curcuma zedoaria|Eucalyptus citriodora|Eucalyptus nova-anglica|Hypericum perforatum|Lindera aggregata|Lindera strichnifolia|Lonicera japonica|Metrosideros perforata|Panax ginseng|Piper nigrum|Salvia tchihatcheffii|Thymus quinquecostatus|Thymus vulgaris|Toona ciliata|Valeriana officinalis|Zea mays|Ziziphus jujuba

>  <collections>  (1507) 
ANPDB|Australian natural products|CMAUP (cCollective molecular activities of useful plants)|ConMedNP|Latin America dataset|NANPDB (Natural Products from Northern African Sources)|NPASS|NPDBEjeCol|NuBBEDB|Super Natural II|WikiData Natural Products

>  <dois>  (1507) 
10.1016/0031-9422(95)00492-P|10.1016/S0031-9422(96)00559-6|10.1016/S0031-9422(96)00718-2|10.1016/S0040-4039(01)99416-X|10.1016/j.foodchem.2020.127109|10.1016/s0040-4039(01)99416-x|10.1021/NP400872M|10.1021/NP50032A017|10.1590/S0103-50532000000600012

>  <synonyms>  (1507) 
(+)-Ledol|(1AS,4S,4AR,7S,7AR,7BR)-DECAHYDRO-1,1,4,7-TETRAMETHYL-1H-CYCLOPROP(E)AZULEN-4-OL|(1aS,4S,4aR,7S,7aR,7bR)-1,1,4,7-tetramethyl-2,3,4a,5,6,7,7a,7b-octahydro-1aH-cyclopropa[e]azulen-4-ol|1H-CYCLOPROP(E)AZULEN-4-OL, DECAHYDRO-1,1,4,7-TETRAMETHYL-, (1AS,4S,4AR,7S,7AR,7BR)-|1H-Cycloprop(e)azulen-4-ol, decahydro-1,1,4,7-tetramethyl-, (1aR-(1aalpha,4alpha,4abeta,7alpha,7abeta,7balpha))-|577-27-5|99XJ3YS21U|AKOS040752462|CHEMBL3120648|CS-0081844|HY-121388|LEDOL [MI]|LEDOL, (+)-|Ledol|UNII-99XJ3YS21U|d-Ledol|ledol|ledum camphor

>  <cas>  (1507) 
577-27-5

$$$$

     RDKit          2D

 32 37  0  0  0  0  0  0  0  0999 V2000
   -5.1031   -1.3079    0.0000 C   0  0  0  0  0  0  0  0  0  0  0  0
   -5.0245    0.1900    0.0000 C   0  0  0  0  0  0  0  0  0  0  0  0
   -6.5134    0.0073    0.0000 C   0  0  0  0  0  0  0  0  0  0  0  0
   -5.4631    1.6245    0.0000 C   0  0  0  0  0  0  0  0  0  0  0  0
   -6.9246    1.9620    0.0000 O   0  0  0  0  0  0  0  0  0  0  0  0
   -4.4400    2.7215    0.0000 C   0  0  0  0  0  0  0  0  0  0  0  0
   -2.9785    2.3841    0.0000 C   0  0  0  0  0  0  0  0  0  0  0  0
   -2.5400    0.9496    0.0000 C   0  0  0  0  0  0  0  0  0  0  0  0
   -1.5169    2.0466    0.0000 C   0  0  0  0  0  0  0  0  0  0  0  0
   -3.5630   -0.1474    0.0000 C   0  0  0  0  0  0  0  0  0  0  0  0
   -3.1245   -1.5819    0.0000 C   0  0  0  0  0  0  0  0  0  0  0  0
   -4.1475   -2.6789    0.0000 O   0  0  0  0  0  0  0  0  0  0  0  0
   -1.6629   -1.9193    0.0000 C   0  0  0  0  0  0  0  0  0  0  0  0
   -1.2244   -3.3538    0.0000 O   0  0  0  0  0  0  0  0  0  0  0  0
   -0.6399   -0.8223    0.0000 C   0  0  0  0  0  0  0  0  0  0  0  0
   -1.0784    0.6121    0.0000 C   0  0  0  0  0  0  0  0  0  0  0  0
   -0.0554    1.7091    0.0000 C   0  0  0  0  0  0  0  0  0  0  0  0
    1.4062    1.3717    0.0000 C   0  0  0  0  0  0  0  0  0  0  0  0
    1.8447   -0.0628    0.0000 C   0  0  0  0  0  0  0  0  0  0  0  0
    2.9768    0.9213    0.0000 C   0  0  0  0  0  0  0  0  0  0  0  0
    3.2041   -0.6967    0.0000 C   0  0  0  0  0  0  0  0  0  0  0  0
    4.5161    0.0304    0.0000 C   0  0  0  0  0  0  0  0  0  0  0  0
    4.6989    1.5193    0.0000 C   0  0  0  0  0  0  0  0  0  0  0  0
    6.1714    1.8054    0.0000 C   0  0  0  0  0  0  0  0  0  0  0  0
    6.8053    3.1649    0.0000 O   0  0  0  0  0  0  0  0  0  0  0  0
    6.8985    0.4935    0.0000 O   0  0  0  0  0  0  0  0  0  0  0  0
    5.8755   -0.6035    0.0000 C   0  0  0  0  0  0  0  0  0  0  0  0
    6.1617   -2.0760    0.0000 O   0  0  0  0  0  0  0  0  0  0  0  0
    3.0213   -2.1856    0.0000 C   0  0  0  0  0  0  0  0  0  0  0  0
    1.5488   -2.4717    0.0000 C   0  0  0  0  0  0  0  0  0  0  0  0
    0.0491   -2.4455    0.0000 O   0  0  0  0  0  0  0  0  0  0  0  0
    0.8217   -1.1598    0.0000 C   0  0  0  0  0  0  0  0  0  0  0  0
  1  2  1  0
  2  3  1  0
  2  4  1  0
  4  5  2  0
  4  6  1  0
  6  7  2  0
  7  8  1  0
  8  9  1  1
  8 10  1  0
 10 11  2  0
 11 12  1  0
 11 13  1  0
 13 14  2  0
 15 13  1  6
 15 16  1  0
 16 17  1  1
 17 18  1  0
 18 19  1  0
 19 20  1  6
 19 21  1  0
 21 22  1  6
 22 23  2  0
 23 24  1  0
 24 25  1  0
 24 26  1  0
 26 27  1  0
 27 28  2  0
 21 29  1  0
 30 29  1  1
 30 31  1  0
 32 31  1  1
 10  2  1  0
 32 15  1  0
 16  8  1  0
 32 19  1  0
 27 22  1  0
 32 30  1  0
M  END
>  <identifier>  (1508) 
CNP0412904.1

>  <canonical_smiles>  (1508) 
CC1(C)C(=O)C=C[C@@]2(C)C1=C(O)C(=O)[C@@H]1[C@@H]2CC[C@@]2(C)[C@H](C3=CC(O)OC3=O)C[C@H]3O[C@]132

>  <standard_inchi>  (1508) 
InChI=1S/C25H28O7/c1-22(2)14(26)6-7-23(3)12-5-8-24(4)13(11-9-16(27)31-21(11)30)10-15-25(24,32-15)17(12)18(28)19(29)20(22)23/h6-7,9,12-13,15-17,27,29H,5,8,10H2,1-4H3/t12-,13-,15+,16?,17-,23+,24-,25-/m0/s1

>  <standard_inchi_key>  (1508) 
CPMCNKDHOFJOKA-LOOICGLASA-N

>  <name>  (1508) 
nan

>  <iupac_name>  (1508) 
(1~{R},2~{S},4~{R},6~{R},7~{S},10~{S},11~{R})-17-hydroxy-6-(2-hydroxy-5-oxo-2~{H}-furan-4-yl)-7,11,15,15-tetramethyl-3-oxapentacyclo[8.8.0.0^{2,4}.0^{2,7}.0^{11,16}]octadeca-12,16-diene-14,18-dione

>  <annotation_level>  (1508) 
4

>  <total_atom_count>  (1508) 
60

>  <heavy_atom_count>  (1508) 
32

>  <molecular_weight>  (1508) 
440.49

>  <exact_molecular_weight>  (1508) 
440.1835

>  <molecular_formula>  (1508) 
C25H28O7

>  <alogp>  (1508) 
2.54

>  <topological_polar_surface_area>  (1508) 
113.43

>  <rotatable_bond_count>  (1508) 
1

>  <hydrogen_bond_acceptors>  (1508) 
7

>  <hydrogen_bond_donors>  (1508) 
2

>  <hydrogen_bond_acceptors_lipinski>  (1508) 
7

>  <hydrogen_bond_donors_lipinski>  (1508) 
2

>  <lipinski_rule_of_five_violations>  (1508) 
0

>  <aromatic_rings_count>  (1508) 
0

>  <qed_drug_likeliness>  (1508) 
0.48

>  <formal_charge>  (1508) 
0

>  <fractioncsp3>  (1508) 
0.64

>  <number_of_minimal_rings>  (1508) 
6

>  <van_der_walls_volume>  (1508) 
nan

>  <contains_sugar>  (1508) 
False

>  <contains_ring_sugars>  (1508) 
False

>  <contains_linear_sugars>  (1508) 
False

>  <murcko_framework>  (1508) 
O1CC=C(C1)C2CC3OC34C5CC=C6CCC=CC6C5CCC24

>  <np_likeness>  (1508) 
3.10

>  <chemical_class>  (1508) 
Steroids and steroid derivatives

>  <chemical_sub_class>  (1508) 
Steroid lactones

>  <chemical_super_class>  (1508) 
Lipids and lipid-like molecules

>  <direct_parent_classification>  (1508) 
Steroid lactones

>  <np_classifier_pathway>  (1508) 
Terpenoids

>  <np_classifier_superclass>  (1508) 
Triterpenoids

>  <np_classifier_class>  (1508) 
Limonoids

>  <np_classifier_is_glycoside>  (1508) 
True

>  <organisms>  (1508) 
Toona ciliata

>  <collections>  (1508) 
Latin America dataset|NuBBEDB|WikiData Natural Products

>  <dois>  (1508) 
10.1016/0305-1978(94)90107-4

>  <synonyms>  (1508) 
23-hydroxycedrelonelide

>  <cas>  (1508) 
nan

$$$$

     RDKit          2D

 12 12  0  0  0  0  0  0  0  0999 V2000
   -6.1365    0.6731    0.0000 C   0  0  0  0  0  0  0  0  0  0  0  0
   -4.9545   -0.2504    0.0000 C   0  0  0  0  0  0  0  0  0  0  0  0
   -3.5637    0.3115    0.0000 C   0  0  0  0  0  0  0  0  0  0  0  0
   -2.3817   -0.6120    0.0000 C   0  0  0  0  0  0  0  0  0  0  0  0
   -0.9909   -0.0501    0.0000 C   0  0  0  0  0  0  0  0  0  0  0  0
    0.1911   -0.9736    0.0000 C   0  0  0  0  0  0  0  0  0  0  0  0
    1.5819   -0.4117    0.0000 C   0  0  0  0  0  0  0  0  0  0  0  0
    1.7907    1.0737    0.0000 C   0  0  0  0  0  0  0  0  0  0  0  0
    3.1814    1.6356    0.0000 C   0  0  0  0  0  0  0  0  0  0  0  0
    4.3635    0.7121    0.0000 C   0  0  0  0  0  0  0  0  0  0  0  0
    4.1547   -0.7733    0.0000 C   0  0  0  0  0  0  0  0  0  0  0  0
    2.7639   -1.3352    0.0000 C   0  0  0  0  0  0  0  0  0  0  0  0
  1  2  1  0
  2  3  1  0
  3  4  1  0
  4  5  1  0
  5  6  1  0
  6  7  1  0
  7  8  1  0
  8  9  1  0
  9 10  1  0
 10 11  1  0
 11 12  1  0
 12  7  1  0
M  END
>  <identifier>  (1509) 
CNP0080553.0

>  <canonical_smiles>  (1509) 
CCCCCCC1CCCCC1

>  <standard_inchi>  (1509) 
InChI=1S/C12H24/c1-2-3-4-6-9-12-10-7-5-8-11-12/h12H,2-11H2,1H3

>  <standard_inchi_key>  (1509) 
QHWAQXOSHHKCFK-UHFFFAOYSA-N

>  <name>  (1509) 
Hexylcyclohexane

>  <iupac_name>  (1509) 
hexylcyclohexane

>  <annotation_level>  (1509) 
5

>  <total_atom_count>  (1509) 
36

>  <heavy_atom_count>  (1509) 
12

>  <molecular_weight>  (1509) 
168.32

>  <exact_molecular_weight>  (1509) 
168.1878

>  <molecular_formula>  (1509) 
C12H24

>  <alogp>  (1509) 
4.54

>  <topological_polar_surface_area>  (1509) 
0.00

>  <rotatable_bond_count>  (1509) 
5

>  <hydrogen_bond_acceptors>  (1509) 
0

>  <hydrogen_bond_donors>  (1509) 
0

>  <hydrogen_bond_acceptors_lipinski>  (1509) 
0

>  <hydrogen_bond_donors_lipinski>  (1509) 
0

>  <lipinski_rule_of_five_violations>  (1509) 
0

>  <aromatic_rings_count>  (1509) 
0

>  <qed_drug_likeliness>  (1509) 
0.53

>  <formal_charge>  (1509) 
0

>  <fractioncsp3>  (1509) 
1.00

>  <number_of_minimal_rings>  (1509) 
1

>  <van_der_walls_volume>  (1509) 
nan

>  <contains_sugar>  (1509) 
False

>  <contains_ring_sugars>  (1509) 
False

>  <contains_linear_sugars>  (1509) 
False

>  <murcko_framework>  (1509) 
C1CCCCC1

>  <np_likeness>  (1509) 
0.51

>  <chemical_class>  (1509) 
Saturated hydrocarbons

>  <chemical_sub_class>  (1509) 
Cycloalkanes

>  <chemical_super_class>  (1509) 
Hydrocarbons

>  <direct_parent_classification>  (1509) 
Cycloalkanes

>  <np_classifier_pathway>  (1509) 
Fatty acids

>  <np_classifier_superclass>  (1509) 
Fatty acyls

>  <np_classifier_class>  (1509) 
Hydrocarbons

>  <np_classifier_is_glycoside>  (1509) 
False

>  <organisms>  (1509) 
Caryocar coriaceum

>  <collections>  (1509) 
FooDB|Latin America dataset|NuBBEDB|WikiData Natural Products|ZINC NP

>  <dois>  (1509) 
10.1021/JF00120A031|10.1021/jf00120a031

>  <synonyms>  (1509) 
1-CYCLOHEXYLHEXANE|1-HEXYL-CYCLOHEXENE|4292-75-5|AKOS024332813|BNS1DVW87A|CS-0452443|Cyclohexane, hexyl-|D90805|DB-050993|DTXSID7063398|EINECS 224-294-7|H0137|Hexane, 1-cyclohexyl-|InChI=1\/C12H24\/c1-2-3-4-6-9-12-10-7-5-8-11-12\/h12H,2-11H2,1H|LS-14155|MFCD00019403|N-Hexylcyclohexadiene|NS00031265|NSC 95433|NSC-95433|Q63398940|UNII-BNS1DVW87A|n-Hexylcyclohexane

>  <cas>  (1509) 
4292-75-5

$$$$

     RDKit          2D

 30 32  0  0  0  0  0  0  0  0999 V2000
    4.2896    4.2742    0.0000 C   0  0  0  0  0  0  0  0  0  0  0  0
    4.1456    2.7811    0.0000 C   0  0  0  0  0  0  0  0  0  0  0  0
    2.7805    2.1593    0.0000 C   0  0  0  0  0  0  0  0  0  0  0  0
    2.6366    0.6662    0.0000 C   0  0  0  0  0  0  0  0  0  0  0  0
    4.0591    1.1419    0.0000 C   0  0  0  0  0  0  0  0  0  0  0  0
    5.1824    0.1478    0.0000 C   0  0  0  0  0  0  0  0  0  0  0  0
    6.6050    0.6236    0.0000 O   0  0  0  0  0  0  0  0  0  0  0  0
    7.7282   -0.3705    0.0000 C   0  0  0  0  0  0  0  0  0  0  0  0
    4.8831   -1.3220    0.0000 C   0  0  0  0  0  0  0  0  0  0  0  0
    6.0064   -2.3161    0.0000 O   0  0  0  0  0  0  0  0  0  0  0  0
    3.4606   -1.7977    0.0000 C   0  0  0  0  0  0  0  0  0  0  0  0
    3.1613   -3.2676    0.0000 O   0  0  0  0  0  0  0  0  0  0  0  0
    4.2846   -4.2617    0.0000 C   0  0  0  0  0  0  0  0  0  0  0  0
    2.3373   -0.8036    0.0000 C   0  0  0  0  0  0  0  0  0  0  0  0
    0.8469   -0.9732    0.0000 O   0  0  0  0  0  0  0  0  0  0  0  0
    0.2251    0.3918    0.0000 C   0  0  0  0  0  0  0  0  0  0  0  0
   -1.2448    0.6911    0.0000 O   0  0  0  0  0  0  0  0  0  0  0  0
   -2.2389   -0.4322    0.0000 C   0  0  0  0  0  0  0  0  0  0  0  0
   -3.7087   -0.1329    0.0000 C   0  0  0  0  0  0  0  0  0  0  0  0
   -4.1845    1.2896    0.0000 C   0  0  0  0  0  0  0  0  0  0  0  0
   -5.6543    1.5889    0.0000 C   0  0  0  0  0  0  0  0  0  0  0  0
   -6.6484    0.4656    0.0000 C   0  0  0  0  0  0  0  0  0  0  0  0
   -8.1182    0.7649    0.0000 O   0  0  0  0  0  0  0  0  0  0  0  0
   -8.5940    2.1874    0.0000 C   0  0  0  0  0  0  0  0  0  0  0  0
   -6.1727   -0.9570    0.0000 C   0  0  0  0  0  0  0  0  0  0  0  0
   -7.1667   -2.0802    0.0000 O   0  0  0  0  0  0  0  0  0  0  0  0
   -6.6910   -3.5028    0.0000 C   0  0  0  0  0  0  0  0  0  0  0  0
   -4.7028   -1.2562    0.0000 C   0  0  0  0  0  0  0  0  0  0  0  0
    1.3311    1.4050    0.0000 C   0  0  0  0  0  0  0  0  0  0  0  0
    1.1616    2.8954    0.0000 C   0  0  0  0  0  0  0  0  0  0  0  0
  1  2  2  0
  2  3  1  0
  4  3  1  6
  4  5  1  0
  5  6  1  0
  6  7  1  1
  7  8  1  0
  6  9  1  0
  9 10  2  0
  9 11  1  0
 11 12  1  0
 12 13  1  0
 11 14  2  0
 14 15  1  0
 15 16  1  0
 16 17  1  1
 17 18  1  0
 18 19  1  0
 19 20  2  0
 20 21  1  0
 21 22  2  0
 22 23  1  0
 23 24  1  0
 22 25  1  0
 25 26  1  0
 26 27  1  0
 25 28  2  0
 16 29  1  0
 29 30  1  1
 14  4  1  0
 28 19  1  0
 29  4  1  0
M  END
>  <identifier>  (1510) 
CNP0383655.1

>  <canonical_smiles>  (1510) 
C=CC[C@]12C[C@@H](OC)C(=O)C(OC)=C1O[C@@H](OCC1=CC=C(OC)C(OC)=C1)[C@H]2C

>  <standard_inchi>  (1510) 
InChI=1S/C23H30O7/c1-7-10-23-12-18(27-5)19(24)20(28-6)21(23)30-22(14(23)2)29-13-15-8-9-16(25-3)17(11-15)26-4/h7-9,11,14,18,22H,1,10,12-13H2,2-6H3/t14-,18-,22-,23-/m1/s1

>  <standard_inchi_key>  (1510) 
GDCRMHZQKAQBBE-WHIJVDBASA-N

>  <name>  (1510) 
nan

>  <iupac_name>  (1510) 
(2~{R},3~{S},3~{a}~{R},5~{R})-3~{a}-allyl-2-[(3,4-dimethoxyphenyl)methoxy]-5,7-dimethoxy-3-methyl-2,3,4,5-tetrahydrobenzofuran-6-one

>  <annotation_level>  (1510) 
4

>  <total_atom_count>  (1510) 
60

>  <heavy_atom_count>  (1510) 
30

>  <molecular_weight>  (1510) 
418.49

>  <exact_molecular_weight>  (1510) 
418.19915

>  <molecular_formula>  (1510) 
C23H30O7

>  <alogp>  (1510) 
3.62

>  <topological_polar_surface_area>  (1510) 
72.45

>  <rotatable_bond_count>  (1510) 
9

>  <hydrogen_bond_acceptors>  (1510) 
7

>  <hydrogen_bond_donors>  (1510) 
0

>  <hydrogen_bond_acceptors_lipinski>  (1510) 
7

>  <hydrogen_bond_donors_lipinski>  (1510) 
0

>  <lipinski_rule_of_five_violations>  (1510) 
0

>  <aromatic_rings_count>  (1510) 
1

>  <qed_drug_likeliness>  (1510) 
0.57

>  <formal_charge>  (1510) 
0

>  <fractioncsp3>  (1510) 
0.52

>  <number_of_minimal_rings>  (1510) 
3

>  <van_der_walls_volume>  (1510) 
nan

>  <contains_sugar>  (1510) 
False

>  <contains_ring_sugars>  (1510) 
False

>  <contains_linear_sugars>  (1510) 
False

>  <murcko_framework>  (1510) 
O1C2=CCCCC2CC1OCc3ccccc3

>  <np_likeness>  (1510) 
1.63

>  <chemical_class>  (1510) 
Benzene and substituted derivatives

>  <chemical_sub_class>  (1510) 
Methoxybenzenes

>  <chemical_super_class>  (1510) 
Benzenoids

>  <direct_parent_classification>  (1510) 
Dimethoxybenzenes

>  <np_classifier_pathway>  (1510) 
Shikimates and Phenylpropanoids

>  <np_classifier_superclass>  (1510) 
Lignans

>  <np_classifier_class>  (1510) 
Neolignans

>  <np_classifier_is_glycoside>  (1510) 
True

>  <organisms>  (1510) 
Ocotea catharinensis

>  <collections>  (1510) 
Latin America dataset|NuBBEDB|WikiData Natural Products

>  <dois>  (1510) 
10.1016/0031-9422(91)83479-5

>  <synonyms>  (1510) 
(7R8S1'R3'R)-D-343'5'-Tetramethoxy-4'-oxo-8.1'7.O.6'-neolignan

>  <cas>  (1510) 
nan

$$$$

     RDKit          2D

 20 23  0  0  0  0  0  0  0  0999 V2000
   -5.1060   -1.2276    0.0000 C   0  0  0  0  0  0  0  0  0  0  0  0
   -3.7116   -0.6747    0.0000 C   0  0  0  0  0  0  0  0  0  0  0  0
   -2.4447   -1.4778    0.0000 C   0  0  0  0  0  0  0  0  0  0  0  0
   -1.2895   -0.5210    0.0000 C   0  0  0  0  0  0  0  0  0  0  0  0
   -0.5938   -1.8499    0.0000 C   0  0  0  0  0  0  0  0  0  0  0  0
    0.9049   -1.9119    0.0000 C   0  0  0  0  0  0  0  0  0  0  0  0
    1.7080   -0.6450    0.0000 C   0  0  0  0  0  0  0  0  0  0  0  0
    3.2067   -0.7070    0.0000 C   0  0  0  0  0  0  0  0  0  0  0  0
    4.5938   -1.2779    0.0000 C   0  0  0  0  0  0  0  0  0  0  0  0
    2.8854   -2.1722    0.0000 C   0  0  0  0  0  0  0  0  0  0  0  0
    4.0097    0.5599    0.0000 C   0  0  0  0  0  0  0  0  0  0  0  0
    3.3141    1.8888    0.0000 C   0  0  0  0  0  0  0  0  0  0  0  0
    1.8154    1.9509    0.0000 C   0  0  0  0  0  0  0  0  0  0  0  0
    1.0123    0.6839    0.0000 C   0  0  0  0  0  0  0  0  0  0  0  0
    0.3166    2.0129    0.0000 C   0  0  0  0  0  0  0  0  0  0  0  0
   -0.4864    0.7459    0.0000 C   0  0  0  0  0  0  0  0  0  0  0  0
   -1.1821    2.0749    0.0000 C   0  0  0  0  0  0  0  0  0  0  0  0
   -2.6808    2.1369    0.0000 C   0  0  0  0  0  0  0  0  0  0  0  0
   -3.4838    0.8699    0.0000 C   0  0  0  0  0  0  0  0  0  0  0  0
   -2.7882   -0.4590    0.0000 C   0  0  0  0  0  0  0  0  0  0  0  0
  1  2  2  0
  2  3  1  0
  4  3  1  6
  4  5  1  0
  5  6  1  0
  7  6  1  6
  7  8  1  0
  8  9  1  0
  8 10  1  0
  8 11  1  0
 11 12  1  0
 12 13  1  0
 13 14  1  0
 14 15  1  6
 14 16  1  0
 16 17  1  0
 17 18  1  0
 19 18  1  6
 19 20  1  0
 19  2  1  0
 16  4  1  0
 20  4  1  0
 14  7  1  0
M  END
>  <identifier>  (1511) 
CNP0235706.6

>  <canonical_smiles>  (1511) 
C=C1C[C@@]23CC[C@H]4C(C)(C)CCC[C@]4(C)C2CC[C@@H]1C3

>  <standard_inchi>  (1511) 
InChI=1S/C20H32/c1-14-12-20-11-8-16-18(2,3)9-5-10-19(16,4)17(20)7-6-15(14)13-20/h15-17H,1,5-13H2,2-4H3/t15-,16+,17?,19+,20-/m1/s1

>  <standard_inchi_key>  (1511) 
ONVABDHFQKWOSV-HVTKSUFJSA-N

>  <name>  (1511) 
nan

>  <iupac_name>  (1511) 
(1~{S},4~{S},9~{S},13~{R})-5,5,9-trimethyl-14-methylene-tetracyclo[11.2.1.0^{1,10}.0^{4,9}]hexadecane

>  <annotation_level>  (1511) 
4

>  <total_atom_count>  (1511) 
52

>  <heavy_atom_count>  (1511) 
20

>  <molecular_weight>  (1511) 
272.48

>  <exact_molecular_weight>  (1511) 
272.2504

>  <molecular_formula>  (1511) 
C20H32

>  <alogp>  (1511) 
5.98

>  <topological_polar_surface_area>  (1511) 
0.00

>  <rotatable_bond_count>  (1511) 
0

>  <hydrogen_bond_acceptors>  (1511) 
0

>  <hydrogen_bond_donors>  (1511) 
0

>  <hydrogen_bond_acceptors_lipinski>  (1511) 
0

>  <hydrogen_bond_donors_lipinski>  (1511) 
0

>  <lipinski_rule_of_five_violations>  (1511) 
1

>  <aromatic_rings_count>  (1511) 
0

>  <qed_drug_likeliness>  (1511) 
0.48

>  <formal_charge>  (1511) 
0

>  <fractioncsp3>  (1511) 
0.90

>  <number_of_minimal_rings>  (1511) 
4

>  <van_der_walls_volume>  (1511) 
nan

>  <contains_sugar>  (1511) 
False

>  <contains_ring_sugars>  (1511) 
False

>  <contains_linear_sugars>  (1511) 
False

>  <murcko_framework>  (1511) 
C1CCC2C(C1)CCC34CCC(CCC23)C4

>  <np_likeness>  (1511) 
3.21

>  <chemical_class>  (1511) 
Prenol lipids

>  <chemical_sub_class>  (1511) 
Diterpenoids

>  <chemical_super_class>  (1511) 
Lipids and lipid-like molecules

>  <direct_parent_classification>  (1511) 
Kaurane diterpenoids

>  <np_classifier_pathway>  (1511) 
Terpenoids

>  <np_classifier_superclass>  (1511) 
Diterpenoids

>  <np_classifier_class>  (1511) 
Kaurane and Phyllocladane diterpenoids

>  <np_classifier_is_glycoside>  (1511) 
False

>  <organisms>  (1511) 
Podocarpus lambereis

>  <collections>  (1511) 
Latin America dataset|NuBBEDB

>  <dois>  (1511) 
10.1016/0031-9422(75)85047-3

>  <synonyms>  (1511) 
phyllocladene

>  <cas>  (1511) 
nan

$$$$

     RDKit          2D

 43 47  0  0  0  0  0  0  0  0999 V2000
   10.3569   -2.2759    0.0000 C   0  0  0  0  0  0  0  0  0  0  0  0
   10.0690   -0.8038    0.0000 O   0  0  0  0  0  0  0  0  0  0  0  0
    8.6502   -0.3170    0.0000 C   0  0  0  0  0  0  0  0  0  0  0  0
    7.5192   -1.3023    0.0000 C   0  0  0  0  0  0  0  0  0  0  0  0
    7.8071   -2.7744    0.0000 O   0  0  0  0  0  0  0  0  0  0  0  0
    6.1004   -0.8155    0.0000 C   0  0  0  0  0  0  0  0  0  0  0  0
    5.8126    0.6566    0.0000 C   0  0  0  0  0  0  0  0  0  0  0  0
    4.3938    1.1434    0.0000 C   0  0  0  0  0  0  0  0  0  0  0  0
    4.1059    2.6155    0.0000 O   0  0  0  0  0  0  0  0  0  0  0  0
    3.2628    0.1581    0.0000 O   0  0  0  0  0  0  0  0  0  0  0  0
    1.8440    0.6449    0.0000 C   0  0  0  0  0  0  0  0  0  0  0  0
    1.5561    2.1170    0.0000 C   0  0  0  0  0  0  0  0  0  0  0  0
    2.6871    3.1023    0.0000 O   0  0  0  0  0  0  0  0  0  0  0  0
    0.1373    2.6038    0.0000 C   0  0  0  0  0  0  0  0  0  0  0  0
   -0.1505    4.0759    0.0000 C   0  0  0  0  0  0  0  0  0  0  0  0
   -0.9937    1.6185    0.0000 O   0  0  0  0  0  0  0  0  0  0  0  0
   -0.7058    0.1464    0.0000 C   0  0  0  0  0  0  0  0  0  0  0  0
   -1.8368   -0.8390    0.0000 O   0  0  0  0  0  0  0  0  0  0  0  0
   -3.2556   -0.3522    0.0000 C   0  0  0  0  0  0  0  0  0  0  0  0
   -4.3866   -1.3375    0.0000 C   0  0  0  0  0  0  0  0  0  0  0  0
   -4.0988   -2.8096    0.0000 C   0  0  0  0  0  0  0  0  0  0  0  0
   -2.6800   -3.2964    0.0000 C   0  0  0  0  0  0  0  0  0  0  0  0
   -2.3921   -4.7686    0.0000 C   0  0  0  0  0  0  0  0  0  0  0  0
   -3.5231   -5.7539    0.0000 C   0  0  0  0  0  0  0  0  0  0  0  0
   -3.2353   -7.2260    0.0000 O   0  0  0  0  0  0  0  0  0  0  0  0
   -4.9419   -5.2671    0.0000 C   0  0  0  0  0  0  0  0  0  0  0  0
   -5.2298   -3.7950    0.0000 C   0  0  0  0  0  0  0  0  0  0  0  0
   -5.8054   -0.8507    0.0000 O   0  0  0  0  0  0  0  0  0  0  0  0
   -6.0932    0.6214    0.0000 C   0  0  0  0  0  0  0  0  0  0  0  0
   -7.5121    1.1082    0.0000 C   0  0  0  0  0  0  0  0  0  0  0  0
   -7.7999    2.5803    0.0000 C   0  0  0  0  0  0  0  0  0  0  0  0
   -9.2187    3.0671    0.0000 O   0  0  0  0  0  0  0  0  0  0  0  0
   -6.6689    3.5657    0.0000 C   0  0  0  0  0  0  0  0  0  0  0  0
   -5.2501    3.0789    0.0000 C   0  0  0  0  0  0  0  0  0  0  0  0
   -4.1191    4.0642    0.0000 O   0  0  0  0  0  0  0  0  0  0  0  0
   -4.9623    1.6067    0.0000 C   0  0  0  0  0  0  0  0  0  0  0  0
   -3.5434    1.1199    0.0000 C   0  0  0  0  0  0  0  0  0  0  0  0
   -2.4125    2.1053    0.0000 O   0  0  0  0  0  0  0  0  0  0  0  0
    0.7130   -0.3404    0.0000 C   0  0  0  0  0  0  0  0  0  0  0  0
    1.0008   -1.8126    0.0000 O   0  0  0  0  0  0  0  0  0  0  0  0
    6.9436    1.6420    0.0000 C   0  0  0  0  0  0  0  0  0  0  0  0
    8.3624    1.1552    0.0000 C   0  0  0  0  0  0  0  0  0  0  0  0
    9.4934    2.1405    0.0000 O   0  0  0  0  0  0  0  0  0  0  0  0
  1  2  1  0
  2  3  1  0
  3  4  2  0
  4  5  1  0
  4  6  1  0
  6  7  2  0
  7  8  1  0
  8  9  2  0
  8 10  1  0
 11 10  1  1
 11 12  1  0
 12 13  1  6
 12 14  1  0
 14 15  1  1
 14 16  1  0
 16 17  1  0
 17 18  1  6
 18 19  1  0
 19 20  2  0
 20 21  1  0
 21 22  2  0
 22 23  1  0
 23 24  2  0
 24 25  1  0
 24 26  1  0
 26 27  2  0
 20 28  1  0
 28 29  1  0
 29 30  2  0
 30 31  1  0
 31 32  1  0
 31 33  2  0
 33 34  1  0
 34 35  1  0
 34 36  2  0
 36 37  1  0
 37 38  2  0
 17 39  1  0
 39 40  1  1
  7 41  1  0
 41 42  2  0
 42 43  1  0
 42  3  1  0
 39 11  1  0
 37 19  1  0
 27 21  1  0
 36 29  1  0
M  END
>  <identifier>  (1512) 
CNP0321560.1

>  <canonical_smiles>  (1512) 
COC1=C(O)C=C(C(=O)O[C@@H]2[C@@H](O)[C@H](C)O[C@@H](OC3=C(C4=CC=C(O)C=C4)OC4=CC(O)=CC(O)=C4C3=O)[C@@H]2O)C=C1O

>  <standard_inchi>  (1512) 
InChI=1S/C29H26O14/c1-11-21(35)26(42-28(38)13-7-17(33)25(39-2)18(34)8-13)23(37)29(40-11)43-27-22(36)20-16(32)9-15(31)10-19(20)41-24(27)12-3-5-14(30)6-4-12/h3-11,21,23,26,29-35,37H,1-2H3/t11-,21-,23+,26+,29-/m0/s1

>  <standard_inchi_key>  (1512) 
AYSKZHKNQWJAPA-BACFJZBESA-N

>  <name>  (1512) 
Pterogynoside

>  <iupac_name>  (1512) 
[(2~{S},3~{R},4~{R},5~{S},6~{S})-2-[5,7-dihydroxy-2-(4-hydroxyphenyl)-4-oxo-chromen-3-yl]oxy-3,5-dihydroxy-6-methyl-tetrahydropyran-4-yl] 3,5-dihydroxy-4-methoxy-benzoate

>  <annotation_level>  (1512) 
5

>  <total_atom_count>  (1512) 
69

>  <heavy_atom_count>  (1512) 
43

>  <molecular_weight>  (1512) 
598.51

>  <exact_molecular_weight>  (1512) 
598.13226

>  <molecular_formula>  (1512) 
C29H26O14

>  <alogp>  (1512) 
2.07

>  <topological_polar_surface_area>  (1512) 
225.81

>  <rotatable_bond_count>  (1512) 
6

>  <hydrogen_bond_acceptors>  (1512) 
14

>  <hydrogen_bond_donors>  (1512) 
7

>  <hydrogen_bond_acceptors_lipinski>  (1512) 
14

>  <hydrogen_bond_donors_lipinski>  (1512) 
7

>  <lipinski_rule_of_five_violations>  (1512) 
3

>  <aromatic_rings_count>  (1512) 
4

>  <qed_drug_likeliness>  (1512) 
0.16

>  <formal_charge>  (1512) 
0

>  <fractioncsp3>  (1512) 
0.24

>  <number_of_minimal_rings>  (1512) 
5

>  <van_der_walls_volume>  (1512) 
489.09

>  <contains_sugar>  (1512) 
True

>  <contains_ring_sugars>  (1512) 
True

>  <contains_linear_sugars>  (1512) 
False

>  <murcko_framework>  (1512) 
O1c2ccccc2CC(OC3OCCC(OCc4ccccc4)C3)=C1c5ccccc5

>  <np_likeness>  (1512) 
1.78

>  <chemical_class>  (1512) 
Flavonoids

>  <chemical_sub_class>  (1512) 
Flavonoid glycosides

>  <chemical_super_class>  (1512) 
Phenylpropanoids and polyketides

>  <direct_parent_classification>  (1512) 
Flavonoid-3-O-glycosides

>  <np_classifier_pathway>  (1512) 
Shikimates and Phenylpropanoids

>  <np_classifier_superclass>  (1512) 
Flavonoids

>  <np_classifier_class>  (1512) 
Flavonols

>  <np_classifier_is_glycoside>  (1512) 
True

>  <organisms>  (1512) 
Piper umbellatum|Pterogyne nitens

>  <collections>  (1512) 
ChemSpider NPs|KNApSaCK|Latin America dataset|NuBBEDB|Super Natural II|TIPdb (database of Taiwan indigenous plants)|WikiData Natural Products|ZINC NP

>  <dois>  (1512) 
10.1016/J.PHYTOCHEM.2008.01.006|10.1016/J.PHYTOCHEM.2008.02.018|10.1016/j.phytochem.2008.01.006

>  <synonyms>  (1512) 
Pterogynoside|Pterogynoside, Kaempferol-3-O-(3''-O-4'''-methylgallate-\u221a\u00e9\u00ac\u00b1-L-rhamnoside)|[(2S,3R,4R,5S,6S)-2-[5,7-dihydroxy-2-(4-hydroxyphenyl)-4-oxochromen-3-yl]oxy-3,5-dihydroxy-6-methyloxan-4-yl] 3,5-dihydroxy-4-methoxybenzoate

>  <cas>  (1512) 
nan

$$$$

     RDKit          2D

 19 21  0  0  0  0  0  0  0  0999 V2000
   -3.8485   -2.4239    0.0000 C   0  0  0  0  0  0  0  0  0  0  0  0
   -2.4475   -1.8879    0.0000 O   0  0  0  0  0  0  0  0  0  0  0  0
   -2.2112   -0.4067    0.0000 C   0  0  0  0  0  0  0  0  0  0  0  0
   -3.3758    0.5386    0.0000 C   0  0  0  0  0  0  0  0  0  0  0  0
   -4.7768    0.0027    0.0000 O   0  0  0  0  0  0  0  0  0  0  0  0
   -3.1395    2.0199    0.0000 C   0  0  0  0  0  0  0  0  0  0  0  0
   -1.7385    2.5559    0.0000 C   0  0  0  0  0  0  0  0  0  0  0  0
   -0.5738    1.6105    0.0000 C   0  0  0  0  0  0  0  0  0  0  0  0
   -0.8102    0.1293    0.0000 C   0  0  0  0  0  0  0  0  0  0  0  0
    0.3544   -0.8160    0.0000 C   0  0  0  0  0  0  0  0  0  0  0  0
    0.1181   -2.2973    0.0000 O   0  0  0  0  0  0  0  0  0  0  0  0
    1.7554   -0.2801    0.0000 C   0  0  0  0  0  0  0  0  0  0  0  0
    2.9201   -1.2254    0.0000 C   0  0  0  0  0  0  0  0  0  0  0  0
    2.6837   -2.7067    0.0000 O   0  0  0  0  0  0  0  0  0  0  0  0
    4.3210   -0.6895    0.0000 C   0  0  0  0  0  0  0  0  0  0  0  0
    4.5574    0.7918    0.0000 C   0  0  0  0  0  0  0  0  0  0  0  0
    3.3928    1.7371    0.0000 C   0  0  0  0  0  0  0  0  0  0  0  0
    1.9918    1.2012    0.0000 C   0  0  0  0  0  0  0  0  0  0  0  0
    0.8271    2.1465    0.0000 O   0  0  0  0  0  0  0  0  0  0  0  0
  1  2  1  0
  2  3  1  0
  3  4  2  0
  4  5  1  0
  4  6  1  0
  6  7  2  0
  7  8  1  0
  8  9  2  0
  9 10  1  0
 10 11  2  0
 10 12  1  0
 12 13  2  0
 13 14  1  0
 13 15  1  0
 15 16  2  0
 16 17  1  0
 17 18  2  0
 18 19  1  0
  9  3  1  0
 18 12  1  0
 19  8  1  0
M  END
>  <identifier>  (1513) 
CNP0227444.0

>  <canonical_smiles>  (1513) 
COC1=C(O)C=CC2=C1C(=O)C1=C(O)C=CC=C1O2

>  <standard_inchi>  (1513) 
InChI=1S/C14H10O5/c1-18-14-8(16)5-6-10-12(14)13(17)11-7(15)3-2-4-9(11)19-10/h2-6,15-16H,1H3

>  <standard_inchi_key>  (1513) 
HMNUZPXEMGNMTG-UHFFFAOYSA-N

>  <name>  (1513) 
NSC661740

>  <iupac_name>  (1513) 
2,8-dihydroxy-1-methoxy-xanthen-9-one

>  <annotation_level>  (1513) 
5

>  <total_atom_count>  (1513) 
29

>  <heavy_atom_count>  (1513) 
19

>  <molecular_weight>  (1513) 
258.23

>  <exact_molecular_weight>  (1513) 
258.05282

>  <molecular_formula>  (1513) 
C14H10O5

>  <alogp>  (1513) 
2.37

>  <topological_polar_surface_area>  (1513) 
79.90

>  <rotatable_bond_count>  (1513) 
1

>  <hydrogen_bond_acceptors>  (1513) 
5

>  <hydrogen_bond_donors>  (1513) 
2

>  <hydrogen_bond_acceptors_lipinski>  (1513) 
5

>  <hydrogen_bond_donors_lipinski>  (1513) 
2

>  <lipinski_rule_of_five_violations>  (1513) 
0

>  <aromatic_rings_count>  (1513) 
3

>  <qed_drug_likeliness>  (1513) 
0.65

>  <formal_charge>  (1513) 
0

>  <fractioncsp3>  (1513) 
0.07

>  <number_of_minimal_rings>  (1513) 
3

>  <van_der_walls_volume>  (1513) 
210.69

>  <contains_sugar>  (1513) 
False

>  <contains_ring_sugars>  (1513) 
False

>  <contains_linear_sugars>  (1513) 
False

>  <murcko_framework>  (1513) 
O1c2ccccc2Cc3ccccc13

>  <np_likeness>  (1513) 
1.43

>  <chemical_class>  (1513) 
Benzopyrans

>  <chemical_sub_class>  (1513) 
1-benzopyrans

>  <chemical_super_class>  (1513) 
Organoheterocyclic compounds

>  <direct_parent_classification>  (1513) 
Xanthones

>  <np_classifier_pathway>  (1513) 
Polyketides

>  <np_classifier_superclass>  (1513) 
Xanthones

>  <np_classifier_class>  (1513) 
Methyl xanthones

>  <np_classifier_is_glycoside>  (1513) 
False

>  <organisms>  (1513) 
Bonnetia paniculata|Calophyllum calaba|Calophyllum teysmannii|Cratoxylum formosanum|Cratoxylum formosum|Cratoxylum maingayi|Haploclathra leiantha|Haploclathra paniculata|Iphigenia indica|Kielmeyera excelsa|Kielmeyera petiolaris|Mangifera odorata|Peliosanthes sinica|cratoxylum formosum ssp. pruniflorum

>  <collections>  (1513) 
KNApSaCK|Latin America dataset|NPASS|NuBBEDB|Super Natural II|UNPD (Universal Natural Products Database)|WikiData Natural Products|ZINC NP

>  <dois>  (1513) 
10.1016/0031-9422(82)83202-0|10.1016/0031-9422(90)85035-E|10.1016/J.PHYTOCHEM.2005.06.009|10.1016/S0031-9422(00)84543-4|10.1016/S0031-9422(00)85161-4|10.1016/S0031-9422(00)85510-7|10.1016/S0031-9422(98)00381-1|10.1016/S0031-9422(99)00520-8|10.1021/NP1001797|10.1039/P19720001935|10.1248/CPB.58.386

>  <synonyms>  (1513) 
1,7-Dihydroxy-8-methoxyxanthon|2,8-dihydroxy-1-methoxyxanthone|CHEMBL1170235|NSC-661740

>  <cas>  (1513) 
nan

$$$$

     RDKit          2D

 27 28  0  0  0  0  0  0  0  0999 V2000
   -8.2251   -0.7188    0.0000 C   0  0  0  0  0  0  0  0  0  0  0  0
   -6.9239   -1.4649    0.0000 O   0  0  0  0  0  0  0  0  0  0  0  0
   -5.6271   -0.7111    0.0000 C   0  0  0  0  0  0  0  0  0  0  0  0
   -5.6315    0.7889    0.0000 C   0  0  0  0  0  0  0  0  0  0  0  0
   -4.3347    1.5427    0.0000 C   0  0  0  0  0  0  0  0  0  0  0  0
   -4.3392    3.0427    0.0000 O   0  0  0  0  0  0  0  0  0  0  0  0
   -3.0335    0.7966    0.0000 C   0  0  0  0  0  0  0  0  0  0  0  0
   -1.7366    1.5504    0.0000 C   0  0  0  0  0  0  0  0  0  0  0  0
   -1.7411    3.0504    0.0000 O   0  0  0  0  0  0  0  0  0  0  0  0
   -0.4354    0.8043    0.0000 C   0  0  0  0  0  0  0  0  0  0  0  0
    0.8614    1.5581    0.0000 C   0  0  0  0  0  0  0  0  0  0  0  0
    2.1627    0.8120    0.0000 C   0  0  0  0  0  0  0  0  0  0  0  0
    2.1671   -0.6880    0.0000 C   0  0  0  0  0  0  0  0  0  0  0  0
    3.4684   -1.4342    0.0000 C   0  0  0  0  0  0  0  0  0  0  0  0
    3.4728   -2.9342    0.0000 O   0  0  0  0  0  0  0  0  0  0  0  0
    2.1760   -3.6880    0.0000 C   0  0  0  0  0  0  0  0  0  0  0  0
    4.7652   -0.6803    0.0000 C   0  0  0  0  0  0  0  0  0  0  0  0
    6.0664   -1.4265    0.0000 O   0  0  0  0  0  0  0  0  0  0  0  0
    7.3632   -0.6727    0.0000 C   0  0  0  0  0  0  0  0  0  0  0  0
    4.7607    0.8197    0.0000 C   0  0  0  0  0  0  0  0  0  0  0  0
    6.0575    1.5735    0.0000 O   0  0  0  0  0  0  0  0  0  0  0  0
    6.0531    3.0735    0.0000 C   0  0  0  0  0  0  0  0  0  0  0  0
    3.4595    1.5658    0.0000 C   0  0  0  0  0  0  0  0  0  0  0  0
   -3.0290   -0.7034    0.0000 C   0  0  0  0  0  0  0  0  0  0  0  0
   -1.7278   -1.4496    0.0000 O   0  0  0  0  0  0  0  0  0  0  0  0
   -1.7233   -2.9496    0.0000 C   0  0  0  0  0  0  0  0  0  0  0  0
   -4.3258   -1.4573    0.0000 C   0  0  0  0  0  0  0  0  0  0  0  0
  1  2  1  0
  2  3  1  0
  3  4  2  0
  4  5  1  0
  5  6  1  0
  5  7  2  0
  7  8  1  0
  8  9  2  0
  8 10  1  0
 10 11  2  0
 11 12  1  0
 12 13  2  0
 13 14  1  0
 14 15  1  0
 15 16  1  0
 14 17  2  0
 17 18  1  0
 18 19  1  0
 17 20  1  0
 20 21  1  0
 21 22  1  0
 20 23  2  0
  7 24  1  0
 24 25  1  0
 25 26  1  0
 24 27  2  0
 27  3  1  0
 23 12  1  0
M  END
>  <identifier>  (1514) 
CNP0299814.1

>  <canonical_smiles>  (1514) 
COC1=CC(O)=C(C(=O)/C=C/C2=CC(OC)=C(OC)C(OC)=C2)C(OC)=C1

>  <standard_inchi>  (1514) 
InChI=1S/C20H22O7/c1-23-13-10-15(22)19(16(11-13)24-2)14(21)7-6-12-8-17(25-3)20(27-5)18(9-12)26-4/h6-11,22H,1-5H3/b7-6+

>  <standard_inchi_key>  (1514) 
BEDDITQSLNWAOP-VOTSOKGWSA-N

>  <name>  (1514) 
nan

>  <iupac_name>  (1514) 
nan

>  <annotation_level>  (1514) 
0

>  <total_atom_count>  (1514) 
49

>  <heavy_atom_count>  (1514) 
27

>  <molecular_weight>  (1514) 
374.39

>  <exact_molecular_weight>  (1514) 
374.13655

>  <molecular_formula>  (1514) 
C20H22O7

>  <alogp>  (1514) 
3.33

>  <topological_polar_surface_area>  (1514) 
83.45

>  <rotatable_bond_count>  (1514) 
8

>  <hydrogen_bond_acceptors>  (1514) 
7

>  <hydrogen_bond_donors>  (1514) 
1

>  <hydrogen_bond_acceptors_lipinski>  (1514) 
7

>  <hydrogen_bond_donors_lipinski>  (1514) 
1

>  <lipinski_rule_of_five_violations>  (1514) 
0

>  <aromatic_rings_count>  (1514) 
2

>  <qed_drug_likeliness>  (1514) 
0.56

>  <formal_charge>  (1514) 
0

>  <fractioncsp3>  (1514) 
0.25

>  <number_of_minimal_rings>  (1514) 
2

>  <van_der_walls_volume>  (1514) 
339.33

>  <contains_sugar>  (1514) 
False

>  <contains_ring_sugars>  (1514) 
False

>  <contains_linear_sugars>  (1514) 
False

>  <murcko_framework>  (1514) 
c1ccc(cc1)C=CCc2ccccc2

>  <np_likeness>  (1514) 
0.63

>  <chemical_class>  (1514) 
nan

>  <chemical_sub_class>  (1514) 
nan

>  <chemical_super_class>  (1514) 
nan

>  <direct_parent_classification>  (1514) 
nan

>  <np_classifier_pathway>  (1514) 
Shikimates and Phenylpropanoids

>  <np_classifier_superclass>  (1514) 
Flavonoids

>  <np_classifier_class>  (1514) 
Chalcones

>  <np_classifier_is_glycoside>  (1514) 
False

>  <organisms>  (1514) 
Merrillia caloxylon|Murraya caloxylon|Murraya paniculata|Neoraputia magnifica

>  <collections>  (1514) 
Australian natural products|KNApSaCK|Latin America dataset|NPEdia|NuBBEDB|Super Natural II|WikiData Natural Products|ZINC NP

>  <dois>  (1514) 
10.1016/0031-9422(74)80328-6|10.1016/S0031-9422(00)00248-X|10.1016/S0031-9422(96)00853-9|10.1016/S0031-9422(97)00140-4|10.1016/j.jpba.2011.08.019|10.1016/s0031-9422(96)00853-9|10.1039/c3ay26475k|10.1211/JPP.61.02.0017

>  <synonyms>  (1514) 
nan

>  <cas>  (1514) 
nan

$$$$

     RDKit          2D

 32 33  0  0  0  0  0  0  0  0999 V2000
    4.5954   -4.7707    0.0000 C   0  0  0  0  0  0  0  0  0  0  0  0
    3.3525   -3.9309    0.0000 O   0  0  0  0  0  0  0  0  0  0  0  0
    3.4583   -2.4347    0.0000 C   0  0  0  0  0  0  0  0  0  0  0  0
    4.3891   -2.1150    0.0000 O   0  0  0  0  0  0  0  0  0  0  0  0
    2.2154   -1.5949    0.0000 C   0  0  0  0  0  0  0  0  0  0  0  0
    0.8667   -2.2514    0.0000 C   0  0  0  0  0  0  0  0  0  0  0  0
   -0.3762   -1.4116    0.0000 O   0  0  0  0  0  0  0  0  0  0  0  0
   -0.2703    0.0847    0.0000 C   0  0  0  0  0  0  0  0  0  0  0  0
   -1.5132    0.9244    0.0000 O   0  0  0  0  0  0  0  0  0  0  0  0
   -2.8619    0.2680    0.0000 C   0  0  0  0  0  0  0  0  0  0  0  0
   -4.1048    1.1077    0.0000 O   0  0  0  0  0  0  0  0  0  0  0  0
   -5.4535    0.4513    0.0000 C   0  0  0  0  0  0  0  0  0  0  0  0
   -6.6964    1.2910    0.0000 C   0  0  0  0  0  0  0  0  0  0  0  0
   -6.5906    2.7873    0.0000 O   0  0  0  0  0  0  0  0  0  0  0  0
   -5.5594   -1.0450    0.0000 C   0  0  0  0  0  0  0  0  0  0  0  0
   -6.9081   -1.7015    0.0000 O   0  0  0  0  0  0  0  0  0  0  0  0
   -4.3165   -1.8848    0.0000 C   0  0  0  0  0  0  0  0  0  0  0  0
   -4.4223   -3.3810    0.0000 O   0  0  0  0  0  0  0  0  0  0  0  0
   -2.9678   -1.2283    0.0000 C   0  0  0  0  0  0  0  0  0  0  0  0
   -1.7249   -2.0681    0.0000 O   0  0  0  0  0  0  0  0  0  0  0  0
    1.0784    0.7411    0.0000 C   0  0  0  0  0  0  0  0  0  0  0  0
    1.1842    2.2374    0.0000 C   0  0  0  0  0  0  0  0  0  0  0  0
   -0.0587    3.0772    0.0000 C   0  0  0  0  0  0  0  0  0  0  0  0
    2.5329    2.8939    0.0000 O   0  0  0  0  0  0  0  0  0  0  0  0
    2.6388    4.3902    0.0000 C   0  0  0  0  0  0  0  0  0  0  0  0
    3.9875    5.0466    0.0000 C   0  0  0  0  0  0  0  0  0  0  0  0
    1.3959    5.2299    0.0000 O   0  0  0  0  0  0  0  0  0  0  0  0
    2.3213   -0.0986    0.0000 C   0  0  0  0  0  0  0  0  0  0  0  0
    3.6700    0.5579    0.0000 C   0  0  0  0  0  0  0  0  0  0  0  0
    4.9129   -0.2819    0.0000 C   0  0  0  0  0  0  0  0  0  0  0  0
    6.2616    0.3746    0.0000 O   0  0  0  0  0  0  0  0  0  0  0  0
    4.9636   -1.2648    0.0000 O   0  0  0  0  0  0  0  0  0  0  0  0
  1  2  1  0
  2  3  1  0
  3  4  2  0
  3  5  1  0
  5  6  2  0
  6  7  1  0
  7  8  1  0
  8  9  1  1
 10  9  1  1
 10 11  1  0
 11 12  1  0
 12 13  1  1
 13 14  1  0
 12 15  1  0
 15 16  1  6
 15 17  1  0
 17 18  1  1
 17 19  1  0
 19 20  1  6
  8 21  1  0
 21 22  1  6
 22 23  1  0
 22 24  1  0
 24 25  1  0
 25 26  1  0
 25 27  2  0
 21 28  1  0
 28 29  1  6
 29 30  1  0
 30 31  2  0
 30 32  1  0
 28  5  1  0
 19 10  1  0
M  END
>  <identifier>  (1515) 
CNP0219881.3

>  <canonical_smiles>  (1515) 
COC(=O)C1=CO[C@@H](O[C@@H]2O[C@H](CO)[C@@H](O)[C@H](O)[C@H]2O)[C@H](C(C)OC(C)=O)[C@@H]1CC(=O)O

>  <standard_inchi>  (1515) 
InChI=1S/C19H28O13/c1-7(30-8(2)21)13-9(4-12(22)23)10(17(27)28-3)6-29-18(13)32-19-16(26)15(25)14(24)11(5-20)31-19/h6-7,9,11,13-16,18-20,24-26H,4-5H2,1-3H3,(H,22,23)/t7?,9-,11-,13-,14-,15+,16-,18+,19+/m1/s1

>  <standard_inchi_key>  (1515) 
OPKOYMHTMXJHRG-HLLMFBIZSA-N

>  <name>  (1515) 
nan

>  <iupac_name>  (1515) 
2-[(2~{S},3~{S},4~{S})-3-(1-acetoxyethyl)-5-methoxycarbonyl-2-[(2~{S},3~{R},4~{S},5~{S},6~{R})-3,4,5-trihydroxy-6-(hydroxymethyl)tetrahydropyran-2-yl]oxy-3,4-dihydro-2~{H}-pyran-4-yl]acetic acid

>  <annotation_level>  (1515) 
3

>  <total_atom_count>  (1515) 
60

>  <heavy_atom_count>  (1515) 
32

>  <molecular_weight>  (1515) 
464.42

>  <exact_molecular_weight>  (1515) 
464.15299

>  <molecular_formula>  (1515) 
C19H28O13

>  <alogp>  (1515) 
-2.13

>  <topological_polar_surface_area>  (1515) 
198.51

>  <rotatable_bond_count>  (1515) 
8

>  <hydrogen_bond_acceptors>  (1515) 
12

>  <hydrogen_bond_donors>  (1515) 
5

>  <hydrogen_bond_acceptors_lipinski>  (1515) 
12

>  <hydrogen_bond_donors_lipinski>  (1515) 
5

>  <lipinski_rule_of_five_violations>  (1515) 
1

>  <aromatic_rings_count>  (1515) 
0

>  <qed_drug_likeliness>  (1515) 
0.24

>  <formal_charge>  (1515) 
0

>  <fractioncsp3>  (1515) 
0.74

>  <number_of_minimal_rings>  (1515) 
2

>  <van_der_walls_volume>  (1515) 
nan

>  <contains_sugar>  (1515) 
True

>  <contains_ring_sugars>  (1515) 
True

>  <contains_linear_sugars>  (1515) 
False

>  <murcko_framework>  (1515) 
O1C=CCCC1OC2OCCCC2

>  <np_likeness>  (1515) 
2.28

>  <chemical_class>  (1515) 
Prenol lipids

>  <chemical_sub_class>  (1515) 
Monoterpenoids

>  <chemical_super_class>  (1515) 
Lipids and lipid-like molecules

>  <direct_parent_classification>  (1515) 
Iridoids and derivatives

>  <np_classifier_pathway>  (1515) 
Terpenoids

>  <np_classifier_superclass>  (1515) 
Monoterpenoids

>  <np_classifier_class>  (1515) 
Secoiridoid monoterpenoids

>  <np_classifier_is_glycoside>  (1515) 
True

>  <organisms>  (1515) 
Calycophyllum spruceanum

>  <collections>  (1515) 
Latin America dataset|NuBBEDB

>  <dois>  (1515) 
10.1016/S0031-9422(03)00153-5

>  <synonyms>  (1515) 
nan

>  <cas>  (1515) 
nan

$$$$

     RDKit          2D

 61 64  0  0  0  0  0  0  0  0999 V2000
   -1.2462    9.4271    0.0000 C   0  0  0  0  0  0  0  0  0  0  0  0
   -1.2371    7.9271    0.0000 C   0  0  0  0  0  0  0  0  0  0  0  0
    0.0665    7.1850    0.0000 O   0  0  0  0  0  0  0  0  0  0  0  0
   -2.5316    7.1692    0.0000 O   0  0  0  0  0  0  0  0  0  0  0  0
   -2.5225    5.6693    0.0000 C   0  0  0  0  0  0  0  0  0  0  0  0
   -3.8170    4.9114    0.0000 C   0  0  0  0  0  0  0  0  0  0  0  0
   -3.8079    3.4114    0.0000 C   0  0  0  0  0  0  0  0  0  0  0  0
   -5.1024    2.6536    0.0000 C   0  0  0  0  0  0  0  0  0  0  0  0
   -2.5043    2.6693    0.0000 C   0  0  0  0  0  0  0  0  0  0  0  0
   -2.4953    1.1693    0.0000 O   0  0  0  0  0  0  0  0  0  0  0  0
   -1.1917    0.4272    0.0000 C   0  0  0  0  0  0  0  0  0  0  0  0
   -0.2206   -0.7160    0.0000 C   0  0  0  0  0  0  0  0  0  0  0  0
   -2.1489   -0.7277    0.0000 C   0  0  0  0  0  0  0  0  0  0  0  0
   -3.6277   -0.4761    0.0000 C   0  0  0  0  0  0  0  0  0  0  0  0
   -4.5849   -1.6310    0.0000 C   0  0  0  0  0  0  0  0  0  0  0  0
   -6.0636   -1.3795    0.0000 C   0  0  0  0  0  0  0  0  0  0  0  0
   -6.5852    0.0269    0.0000 C   0  0  0  0  0  0  0  0  0  0  0  0
   -7.0208   -2.5344    0.0000 C   0  0  0  0  0  0  0  0  0  0  0  0
   -8.4996   -2.2829    0.0000 C   0  0  0  0  0  0  0  0  0  0  0  0
   -9.4568   -3.4377    0.0000 C   0  0  0  0  0  0  0  0  0  0  0  0
  -10.9356   -3.1862    0.0000 C   0  0  0  0  0  0  0  0  0  0  0  0
  -11.4571   -1.7798    0.0000 C   0  0  0  0  0  0  0  0  0  0  0  0
  -11.8928   -4.3411    0.0000 C   0  0  0  0  0  0  0  0  0  0  0  0
  -13.3715   -4.0896    0.0000 C   0  0  0  0  0  0  0  0  0  0  0  0
  -14.3288   -5.2444    0.0000 C   0  0  0  0  0  0  0  0  0  0  0  0
  -15.8075   -4.9929    0.0000 C   0  0  0  0  0  0  0  0  0  0  0  0
  -16.7647   -6.1478    0.0000 C   0  0  0  0  0  0  0  0  0  0  0  0
  -16.3291   -3.5865    0.0000 C   0  0  0  0  0  0  0  0  0  0  0  0
    0.1028    1.1851    0.0000 C   0  0  0  0  0  0  0  0  0  0  0  0
    0.0937    2.6850    0.0000 C   0  0  0  0  0  0  0  0  0  0  0  0
   -1.2099    3.4272    0.0000 C   0  0  0  0  0  0  0  0  0  0  0  0
   -1.2189    4.9271    0.0000 C   0  0  0  0  0  0  0  0  0  0  0  0
    0.0755    5.6850    0.0000 O   0  0  0  0  0  0  0  0  0  0  0  0
    1.3791    4.9429    0.0000 C   0  0  0  0  0  0  0  0  0  0  0  0
    1.3882    3.4429    0.0000 C   0  0  0  0  0  0  0  0  0  0  0  0
    2.6917    2.7008    0.0000 C   0  0  0  0  0  0  0  0  0  0  0  0
    2.7008    1.2008    0.0000 C   0  0  0  0  0  0  0  0  0  0  0  0
    3.9862    3.4586    0.0000 C   0  0  0  0  0  0  0  0  0  0  0  0
    5.2898    2.7165    0.0000 O   0  0  0  0  0  0  0  0  0  0  0  0
    6.5842    3.4743    0.0000 C   0  0  0  0  0  0  0  0  0  0  0  0
    8.0598    3.7438    0.0000 C   0  0  0  0  0  0  0  0  0  0  0  0
    7.1058    2.0679    0.0000 C   0  0  0  0  0  0  0  0  0  0  0  0
    6.1486    0.9131    0.0000 C   0  0  0  0  0  0  0  0  0  0  0  0
    6.6701   -0.4934    0.0000 C   0  0  0  0  0  0  0  0  0  0  0  0
    8.1489   -0.7449    0.0000 C   0  0  0  0  0  0  0  0  0  0  0  0
    9.1061    0.4100    0.0000 C   0  0  0  0  0  0  0  0  0  0  0  0
    8.6704   -2.1513    0.0000 C   0  0  0  0  0  0  0  0  0  0  0  0
    7.7132   -3.3062    0.0000 C   0  0  0  0  0  0  0  0  0  0  0  0
    8.2348   -4.7126    0.0000 C   0  0  0  0  0  0  0  0  0  0  0  0
    9.7135   -4.9641    0.0000 C   0  0  0  0  0  0  0  0  0  0  0  0
   10.6708   -3.8092    0.0000 C   0  0  0  0  0  0  0  0  0  0  0  0
   10.2351   -6.3705    0.0000 C   0  0  0  0  0  0  0  0  0  0  0  0
    9.2779   -7.5254    0.0000 C   0  0  0  0  0  0  0  0  0  0  0  0
    9.7994   -8.9318    0.0000 C   0  0  0  0  0  0  0  0  0  0  0  0
    8.8422  -10.0867    0.0000 C   0  0  0  0  0  0  0  0  0  0  0  0
    9.3638  -11.4931    0.0000 C   0  0  0  0  0  0  0  0  0  0  0  0
    7.3635   -9.8352    0.0000 C   0  0  0  0  0  0  0  0  0  0  0  0
    6.5751    4.9743    0.0000 C   0  0  0  0  0  0  0  0  0  0  0  0
    5.2716    5.7164    0.0000 C   0  0  0  0  0  0  0  0  0  0  0  0
    3.9771    4.9586    0.0000 C   0  0  0  0  0  0  0  0  0  0  0  0
    2.6736    5.7007    0.0000 C   0  0  0  0  0  0  0  0  0  0  0  0
  1  2  1  0
  2  3  2  0
  2  4  1  0
  4  5  1  0
  5  6  2  0
  6  7  1  0
  7  8  1  0
  7  9  2  0
  9 10  1  0
 10 11  1  0
 11 12  1  0
 11 13  1  0
 13 14  1  0
 14 15  1  0
 15 16  2  0
 16 17  1  0
 16 18  1  0
 18 19  1  0
 19 20  1  0
 20 21  2  0
 21 22  1  0
 21 23  1  0
 23 24  1  0
 24 25  1  0
 25 26  2  0
 26 27  1  0
 26 28  1  0
 11 29  1  0
 29 30  1  0
 30 31  1  0
 31 32  2  0
 32 33  1  0
 33 34  1  0
 34 35  2  0
 35 36  1  0
 36 37  1  0
 36 38  2  0
 38 39  1  0
 39 40  1  0
 40 41  1  0
 40 42  1  0
 42 43  1  0
 43 44  1  0
 44 45  2  0
 45 46  1  0
 45 47  1  0
 47 48  1  0
 48 49  1  0
 49 50  2  0
 50 51  1  0
 50 52  1  0
 52 53  1  0
 53 54  1  0
 54 55  2  0
 55 56  1  0
 55 57  1  0
 40 58  1  0
 58 59  1  0
 59 60  1  0
 60 61  2  0
 32  5  1  0
 61 34  1  0
 31  9  1  0
 60 38  1  0
M  END
>  <identifier>  (1516) 
CNP0080337.2

>  <canonical_smiles>  (1516) 
CC(=O)OC1=CC(C)=C2OC(C)(CC/C=C(\C)CC/C=C(\C)CCC=C(C)C)CCC2=C1OC1=CC(C)=C2OC(C)(CC/C=C(\C)CC/C=C(\C)CCC=C(C)C)CCC2=C1

>  <standard_inchi>  (1516) 
InChI=1S/C56H80O5/c1-39(2)20-14-22-41(5)24-16-26-43(7)28-18-32-55(12)34-30-48-38-49(36-45(9)52(48)60-55)59-54-50-31-35-56(13,61-53(50)46(10)37-51(54)58-47(11)57)33-19-29-44(8)27-17-25-42(6)23-15-21-40(3)4/h20-21,24-25,28-29,36-38H,14-19,22-23,26-27,30-35H2,1-13H3/b41-24+,42-25+,43-28+,44-29+

>  <standard_inchi_key>  (1516) 
UERLHLBIRKQLOR-XIFBQMSUSA-N

>  <name>  (1516) 
nan

>  <iupac_name>  (1516) 
nan

>  <annotation_level>  (1516) 
0

>  <total_atom_count>  (1516) 
141

>  <heavy_atom_count>  (1516) 
61

>  <molecular_weight>  (1516) 
833.25

>  <exact_molecular_weight>  (1516) 
832.60058

>  <molecular_formula>  (1516) 
C56H80O5

>  <alogp>  (1516) 
16.59

>  <topological_polar_surface_area>  (1516) 
53.99

>  <rotatable_bond_count>  (1516) 
21

>  <hydrogen_bond_acceptors>  (1516) 
5

>  <hydrogen_bond_donors>  (1516) 
0

>  <hydrogen_bond_acceptors_lipinski>  (1516) 
5

>  <hydrogen_bond_donors_lipinski>  (1516) 
0

>  <lipinski_rule_of_five_violations>  (1516) 
2

>  <aromatic_rings_count>  (1516) 
2

>  <qed_drug_likeliness>  (1516) 
0.07

>  <formal_charge>  (1516) 
0

>  <fractioncsp3>  (1516) 
0.55

>  <number_of_minimal_rings>  (1516) 
4

>  <van_der_walls_volume>  (1516) 
863.81

>  <contains_sugar>  (1516) 
False

>  <contains_ring_sugars>  (1516) 
False

>  <contains_linear_sugars>  (1516) 
False

>  <murcko_framework>  (1516) 
O(c1ccc2OCCCc2c1)c3cccc4OCCCc34

>  <np_likeness>  (1516) 
1.14

>  <chemical_class>  (1516) 
nan

>  <chemical_sub_class>  (1516) 
nan

>  <chemical_super_class>  (1516) 
nan

>  <direct_parent_classification>  (1516) 
nan

>  <np_classifier_pathway>  (1516) 
Terpenoids

>  <np_classifier_superclass>  (1516) 
Meroterpenoids

>  <np_classifier_class>  (1516) 
Prenyl quinone meroterpenoids

>  <np_classifier_is_glycoside>  (1516) 
False

>  <organisms>  (1516) 
Iryanthera grandis

>  <collections>  (1516) 
Latin America dataset|NuBBEDB|WikiData Natural Products

>  <dois>  (1516) 
10.1016/S0031-9422(00)80162-4

>  <synonyms>  (1516) 
nan

>  <cas>  (1516) 
nan

$$$$

     RDKit          2D

 42 47  0  0  0  0  0  0  0  0999 V2000
   -7.2917   -3.2105    0.0000 O   0  0  0  0  0  0  0  0  0  0  0  0
   -6.0113   -2.4291    0.0000 C   0  0  0  0  0  0  0  0  0  0  0  0
   -6.0478   -0.9296    0.0000 C   0  0  0  0  0  0  0  0  0  0  0  0
   -4.7674   -0.1481    0.0000 C   0  0  0  0  0  0  0  0  0  0  0  0
   -4.9112    0.8255    0.0000 O   0  0  0  0  0  0  0  0  0  0  0  0
   -3.4505   -0.8663    0.0000 C   0  0  0  0  0  0  0  0  0  0  0  0
   -3.4140   -2.3658    0.0000 C   0  0  0  0  0  0  0  0  0  0  0  0
   -4.6944   -3.1473    0.0000 C   0  0  0  0  0  0  0  0  0  0  0  0
   -2.0971   -3.0840    0.0000 O   0  0  0  0  0  0  0  0  0  0  0  0
   -0.8167   -2.3025    0.0000 C   0  0  0  0  0  0  0  0  0  0  0  0
    0.5002   -3.0207    0.0000 C   0  0  0  0  0  0  0  0  0  0  0  0
    0.5368   -4.5202    0.0000 C   0  0  0  0  0  0  0  0  0  0  0  0
    1.8537   -5.2384    0.0000 C   0  0  0  0  0  0  0  0  0  0  0  0
    3.1341   -4.4569    0.0000 C   0  0  0  0  0  0  0  0  0  0  0  0
    4.4510   -5.1751    0.0000 O   0  0  0  0  0  0  0  0  0  0  0  0
    3.0976   -2.9574    0.0000 C   0  0  0  0  0  0  0  0  0  0  0  0
    4.3779   -2.1760    0.0000 O   0  0  0  0  0  0  0  0  0  0  0  0
    1.7806   -2.2392    0.0000 C   0  0  0  0  0  0  0  0  0  0  0  0
   -0.8532   -0.8030    0.0000 C   0  0  0  0  0  0  0  0  0  0  0  0
    0.4272   -0.0216    0.0000 O   0  0  0  0  0  0  0  0  0  0  0  0
   -2.1701   -0.0849    0.0000 C   0  0  0  0  0  0  0  0  0  0  0  0
   -2.2067    1.4147    0.0000 C   0  0  0  0  0  0  0  0  0  0  0  0
   -3.5236    2.1328    0.0000 C   0  0  0  0  0  0  0  0  0  0  0  0
   -4.4199    1.7264    0.0000 O   0  0  0  0  0  0  0  0  0  0  0  0
   -3.5602    3.6324    0.0000 C   0  0  0  0  0  0  0  0  0  0  0  0
   -2.2798    4.4138    0.0000 C   0  0  0  0  0  0  0  0  0  0  0  0
   -2.3163    5.9134    0.0000 O   0  0  0  0  0  0  0  0  0  0  0  0
   -0.9628    3.6957    0.0000 C   0  0  0  0  0  0  0  0  0  0  0  0
   -0.9263    2.1961    0.0000 C   0  0  0  0  0  0  0  0  0  0  0  0
    0.3906    1.4780    0.0000 O   0  0  0  0  0  0  0  0  0  0  0  0
    1.6710    2.2594    0.0000 C   0  0  0  0  0  0  0  0  0  0  0  0
    2.9879    1.5413    0.0000 C   0  0  0  0  0  0  0  0  0  0  0  0
    3.0245    0.0417    0.0000 C   0  0  0  0  0  0  0  0  0  0  0  0
    4.3414   -0.6764    0.0000 C   0  0  0  0  0  0  0  0  0  0  0  0
    5.6218    0.1050    0.0000 C   0  0  0  0  0  0  0  0  0  0  0  0
    6.9387   -0.6131    0.0000 O   0  0  0  0  0  0  0  0  0  0  0  0
    5.5852    1.6046    0.0000 C   0  0  0  0  0  0  0  0  0  0  0  0
    6.8656    2.3860    0.0000 O   0  0  0  0  0  0  0  0  0  0  0  0
    4.2683    2.3227    0.0000 C   0  0  0  0  0  0  0  0  0  0  0  0
    1.6345    3.7590    0.0000 C   0  0  0  0  0  0  0  0  0  0  0  0
    2.9148    4.5404    0.0000 O   0  0  0  0  0  0  0  0  0  0  0  0
    0.3175    4.4771    0.0000 C   0  0  0  0  0  0  0  0  0  0  0  0
  1  2  1  0
  2  3  2  0
  3  4  1  0
  4  5  1  0
  4  6  2  0
  6  7  1  0
  7  8  2  0
  7  9  1  0
  9 10  1  0
 10 11  1  1
 11 12  2  0
 12 13  1  0
 13 14  2  0
 14 15  1  0
 14 16  1  0
 16 17  1  0
 16 18  2  0
 10 19  1  0
 19 20  1  6
 19 21  1  0
 21 22  1  1
 22 23  2  0
 23 24  1  0
 23 25  1  0
 25 26  2  0
 26 27  1  0
 26 28  1  0
 28 29  2  0
 29 30  1  0
 30 31  1  0
 31 32  1  1
 32 33  2  0
 33 34  1  0
 34 35  2  0
 35 36  1  0
 35 37  1  0
 37 38  1  0
 37 39  2  0
 31 40  1  0
 40 41  1  6
 40 42  1  0
  8  2  1  0
 18 11  1  0
 29 22  1  0
 39 32  1  0
 21  6  1  0
 42 28  1  0
M  END
>  <identifier>  (1517) 
CNP0192174.2

>  <canonical_smiles>  (1517) 
OC1=CC(O)=C2C(=C1)O[C@H](C1=CC=C(O)C(O)=C1)[C@@H](O)[C@@H]2C1=C(O)C=C(O)C2=C1O[C@H](C1=CC=C(O)C(O)=C1)[C@@H](O)C2

>  <standard_inchi>  (1517) 
InChI=1S/C30H26O12/c31-13-7-20(37)24-23(8-13)41-29(12-2-4-16(33)19(36)6-12)27(40)26(24)25-21(38)10-17(34)14-9-22(39)28(42-30(14)25)11-1-3-15(32)18(35)5-11/h1-8,10,22,26-29,31-40H,9H2/t22-,26-,27-,28+,29+/m0/s1

>  <standard_inchi_key>  (1517) 
XFZJEEAOWLFHDH-AVFWISQGSA-N

>  <name>  (1517) 
Procyanidin B3

>  <iupac_name>  (1517) 
(2~{R},3~{S},4~{S})-2-(3,4-dihydroxyphenyl)-4-[(2~{R},3~{S})-2-(3,4-dihydroxyphenyl)-3,5,7-trihydroxy-chroman-8-yl]chromane-3,5,7-triol

>  <annotation_level>  (1517) 
5

>  <total_atom_count>  (1517) 
68

>  <heavy_atom_count>  (1517) 
42

>  <molecular_weight>  (1517) 
578.53

>  <exact_molecular_weight>  (1517) 
578.14243

>  <molecular_formula>  (1517) 
C30H26O12

>  <alogp>  (1517) 
3.00

>  <topological_polar_surface_area>  (1517) 
220.76

>  <rotatable_bond_count>  (1517) 
3

>  <hydrogen_bond_acceptors>  (1517) 
12

>  <hydrogen_bond_donors>  (1517) 
10

>  <hydrogen_bond_acceptors_lipinski>  (1517) 
12

>  <hydrogen_bond_donors_lipinski>  (1517) 
10

>  <lipinski_rule_of_five_violations>  (1517) 
3

>  <aromatic_rings_count>  (1517) 
4

>  <qed_drug_likeliness>  (1517) 
0.16

>  <formal_charge>  (1517) 
0

>  <fractioncsp3>  (1517) 
0.20

>  <number_of_minimal_rings>  (1517) 
6

>  <van_der_walls_volume>  (1517) 
476.02

>  <contains_sugar>  (1517) 
False

>  <contains_ring_sugars>  (1517) 
False

>  <contains_linear_sugars>  (1517) 
False

>  <murcko_framework>  (1517) 
O1c2ccccc2C(c3cccc4c3OC(c5ccccc5)CC4)CC1c6ccccc6

>  <np_likeness>  (1517) 
1.93

>  <chemical_class>  (1517) 
Flavonoids

>  <chemical_sub_class>  (1517) 
Biflavonoids and polyflavonoids

>  <chemical_super_class>  (1517) 
Phenylpropanoids and polyketides

>  <direct_parent_classification>  (1517) 
Biflavonoids and polyflavonoids

>  <np_classifier_pathway>  (1517) 
Shikimates and Phenylpropanoids

>  <np_classifier_superclass>  (1517) 
Flavonoids

>  <np_classifier_class>  (1517) 
Proanthocyanins

>  <np_classifier_is_glycoside>  (1517) 
False

>  <organisms>  (1517) 
Acacia adunca|Acacia baileyana|Actinidia chinensis|Adiantum lunulatum|Aesculus hippocastanum|Ageratina dendroides|Aglaia laxiflora|Aguacate|Alangium premnifolium|Alcea rosea|Alcyonium utinomii|Aldisa sanguinea|Alkanna cappadocica|Alpinia blepharocalyx|Alstonia spathulata|Amathia pinnata|Anacystis montana|Angelica tarokoensis|Anguilla japonica|Annona cornifolia|Annona reticulata|Aonidiella aurantii|Aplysina archeri|Arachis Hypogaea|Arachis hypogaea|Araiostegiella perdurans|Archidendron bubalinum|Archidendron jiringa|Areca Catechu|Areca catechu|Artemisia assoana|Artemisia carvifolia|Artemisia dentata|Artemisia schimperi|Aspergillus carneus|Aspergillus striatus|Asterospicularia laurae|Astragalus sempervirens|Atalantia racemosa|Atylosia trinervia|Bacillus subtilis|Balanops australiana|Bergenia purpurascens|Betula|Betula fruticosa|Betula ovalifolia|Betula pubescens|Betula spp|Betula spp.|Bishovia boliviensis|Blastochloris viridis|Bombax ceiba|Bragantia wallichii|Bromelia plumieri|Buddleja cordata|Buphane fischeri|Callicarpa maingayi|Calluna vulgaris|Calostephane divaricata|Camellia Japonica|Camellia Sinensis|Camellia sinensis|Camellia sinensis var. assamica|Capnoides sempervirens|Capsicum annuum|Caragana aurantiaca|Casimiroa tetrameria|Cassia kleinii|Castanea|Cephalaria uralensis|Chaenomeles sinensis|Chaenomeles speciosa|Chimarrhis turbinata|Chrysothamnus parryi|Cicer arietinum|Cinamomum cassia|Cinnamomum aromaticum|Cissus quinquefolia|Cladonia fallax|Colchicum speciosum|Coleogyne ramosissima|Colobocentrotus atratus|Conoideocrella luteorostrata|Cornus kousa|Cortinarius odoratus|Cotyledon secunda|Crambe tatarica|Crotalaria aegyptiaca|Cryptomeria japonica|Cucurbita pepo|Curcuma zedoaria|Cydonia|Cydonia oblonga|Cylindrospermopsis raciborskii|Cynomorium songaricum|Daucus carota|Delphinium andersoni|Dendrodoris tuberculosa|Dermolepida albohirtum|Dicoma capensis|Digitalis isabelliana|Diospyros eriantha|Diospyros kaki|Diphasia angolensis|Drechslera avenae|Dumortiera hirsuta|Ectyoplasia ferox|Elephantopus tomentosus|Eleutherobia albiflora|Encyothalia cliftonii|Epimedium davidii|Erysimum odoratum|Erythroxylum novogranatense|Eucalyptus jenseni|Eucalyptus melliodora|Eucalyptus ovata|Euonymus tingens|Euphorbia cornigera|Euphorbia turczaninowii|Eupolyphaga sinensis|Euryops algoensis|Eutypella scoparia|Ficus carica|Fragaria|Fragaria sp.|Fragaria x ananassa|Fritillaria ningguoensis|Frullania tamarisci|Galenia africana|Gardenia jasminoides|Geranium sylvaticum|Geranium thunbergii|Globba malaccensis|Gnetum latifolium|Gnidia lamprantha|Gomortega keule|Goniothalamus malayanus|Gymnopus confluens|Haliclona mucosa|Hamamelis virginiana|Haplophyllum ferganicum|Hedysarum connatum|Helianthus maximiliani|Heliomeris multiflora|Helipterum roseum|Heterotheca inuloides|Hoffmannia strigillosa|Hordeum sp.|Hordeum vulgare|Humulus lupulus|Hylocomium splendens|Hypericum laricifolium|Ilex amara|Ipomoea digitata|Ircinia spinosula|Iris ensata|Isodon japonicus|Juglans sigillata|Juniperus rigida var. conferta|Juniperus sabina|Keiferia lycopersicella|Knightia excelsa|Kokoona reflexa|Larix gmelini|Larix gmelinii|Laurencia distichophylla|Laurencia spectabilis|Leathesia nana|Lemaireocereus griseus|Lens culinaris|Leonurus glaucescens|Lepidium draba|Lepisorus ussuriensis|Lespedeza capitata|Leucopaxillus gentianeus|Ligularia dentata|Liquidambar styraciflua|Litsea pungens|Lysimachia mauritiana|Maba buxifolia|Macrolepiota neomastoidea|Maesa ramentacea|Malus domestica|Malus pumila|Marrubium anisodon|Melolontha melolontha|Mespilus germanica|Micromeria pineolens|Millettia erythrocalyx|Millettia laurentii|Monodora tenuifolia|Musa|Mycobacterium leprae|Naja kaouthia|Nasutitermes ephratae|Naucleopsis ternstroemiiflora|Negombata magnifica|Nelumbo nucifera|Nemalion vermiculare|Nidula candida|Nototodarus sloanii|Nuphar lutea|Ocimum tenuiflorum|Oenothera biennis|Ononis vaginalis|Ophiocoma scolopendrina|Paeonia obovata|Pastinaca sativa|Peltostigma guatemalense|Penicillium alutaceum|Penicillium citreonigrum|Penicillium janczewskii|Penicillium kapuscinskii|Petasites georgicus|Phaseolus vulgaris|Phoebe pittieri|Phoenix loureiroi|Phyllanthus niruri|Picea mariana|Pinus radiata|Pinus strobus|Pinus sylvestris|Pisum sativum|Pluchea odorata|Polysiphonia elongata|Potentilla erecta|Potentilla longifolia|Potentilla tormentilla|Potentilla viscosa|Premna odorata|Prorocentrum micans|Prunus armeniaca|Prunus avium|Prunus domestica|Prunus dulcis|Prunus persica|Prunus sp.|Pseudoalteromonas luteoviolacea|Pseudoplexaura flagellosa|Pseudotsuga menziesii|Psidium guajava|Pteris radiata|Pteris semipinnata|Punica granatum|Pyrola incarnata|Pyrus communis|Quercus cerris L.|Quercus dentata|Quercus ilex|Quercus ilex L.|Quercus marilandica|Quercus miyagii|Quercus palustris Muencch.|Quercus petraea Liebl.|Quercus phillyraeoides|Quercus pubescens Willd.|Quercus robur|Quercus robur L.|Quercus rubra L.|Quercus sessiliflora|Rapanea lancifolia|Rauvolfia vomitoria|Rheum|Rhodiola semenovii|Rhododendron ponticum|Ribes rubrum|Rosa Laevigata|Rosa cymosa|Rosa henryi|Rosa laevigata|Rosa rugosa|Rosa sp.|Rubus|Rumex acetosa|Rumex maritimus|Sabina sargentii|Salacia lehmbachii|Salacia madagascariensis|Salix|Salix caprea|Salix sieboldiana|Salvia hispanica|Salvia parryi|Salvia syriaca|Salvia yosgadensis|Sanguisorba officinalis|Saussurea carthamoides|Scopolia hladnikiana|Scorzonera pseudodivaricata|Scutellaria amoena|Senecio sinuatus|Sideritis brevibracteata|Sideroxylon cubense|Sinularia depressa|Solanum acaule|Solanum laxum|Solanum melongena|Sonchus ortunoi|Spirographis spallanzani|Spodoptera eridania|Streptomyces avermectinius|Streptomyces griseovariabilis|Streptomyces xanthochromogenes|Styrax ferrugineus|Swertia delavayi|Swertia franchetiana|Syncarpia hillii|Taxillus kaempferi|Thalictrum longistylum|Toona sinensis|Triticum aestivum|Turpinia ternata|Uncaria gambir|Vaccinium oxycoccos|Vaccinium sp.|Vaccinium vitis-idaea|Vallota purpurea|Vateria indica|Viburnum urceolatum|Vicia faba|Vigna angularis|Viguiera decurrens|Viguiera incana|Viguiera oblongifolia|Vincetoxicum hirundinaria|Vismia jefensis|Vitis Vinifera|Vitis labrusca|Vitis sp.|Vitis vinifera|Wikstroemia retusa|Woodfordia uniflora|Xenoacremonium recifei|Xyris pterygoblephara|Zanthoxylum tetraspermum|broad bean|guarana|lettuce|pomegranate|tomato

>  <collections>  (1517) 
Australian natural products|CMAUP (cCollective molecular activities of useful plants)|ChemSpider NPs|ETM (Ethiopian Traditional Medicine) DB|FooDB|Latin America dataset|NAPRORE-CR|NPASS|NPEdia|NuBBEDB|Phenol-explorer|Phyto4Health|PhytoLab phyproof® Reference Substances|Super Natural II|TCMDB-Taiwan (Traditional Chinese Medicine database)|TPPT (Toxic Plants–PhytoToxins)|VietHerb|WikiData Natural Products

>  <dois>  (1517) 
10.1002/(SICI)1099-1565(199801/02)9:1<21::AID-PCA377>3.0.CO;2-W|10.1002/JSFA.7075|10.1002/food.19880321030|10.1007/BF00580451|10.1007/BF00833411|10.1007/BF02249631|10.1007/BF02262390|10.1007/BF02490789|10.1007/S10600-009-9289-Y|10.1007/S10600-010-9700-8|10.1007/S10600-011-9956-7|10.1016/0031-9422(75)85197-1|10.1016/0031-9422(82)80150-7|10.1016/0031-9422(84)83041-1|10.1016/0031-9422(88)80042-6|10.1016/0031-9422(89)80060-3|10.1016/0031-9422(89)80370-X|10.1016/0031-9422(90)80054-K|10.1016/0031-9422(90)85341-C|10.1016/0031-9422(91)80011-O|10.1016/0031-9422(91)83714-V|10.1016/0031-9422(92)80317-8|10.1016/0031-9422(92)80375-O|10.1016/0031-9422(93)85229-K|10.1016/0031-9422(93)85250-U|10.1016/0031-9422(96)00122-7|10.1016/0031-9422(96)00926-0|10.1016/J.BMCL.2013.12.098|10.1016/J.FITOTE.2009.08.015|10.1016/J.FOODCHEM.2005.11.053|10.1016/J.JFF.2014.08.013|10.1016/J.TETLET.2009.01.158|10.1016/S0021-9673(99)00281-2|10.1016/S0031-9422(00)00192-8|10.1016/S0031-9422(00)81446-6|10.1016/S0031-9422(00)81581-2|10.1016/S0031-9422(00)82297-9|10.1016/S0031-9422(00)82371-7|10.1016/S0031-9422(00)82468-1|10.1016/S0031-9422(00)83128-3|10.1016/S0031-9422(00)84524-0|10.1016/S0031-9422(00)94532-1|10.1016/S0031-9422(00)94785-X|10.1016/S0031-9422(00)95090-8|10.1016/S0031-9422(00)95212-9|10.1016/S0031-9422(00)95213-0|10.1016/S0031-9422(00)97017-1|10.1016/S0304-3835(99)00160-3|10.1016/S0308-8146(00)00134-5|10.1016/S0367-326X(00)00298-7|10.1016/S0963-9969(00)00070-3|10.1016/j.bmcl.2013.12.098|10.1021/ACS.JNATPROD.8B00953|10.1021/JF000549H|10.1021/JF00074A022|10.1021/JF00091A019|10.1021/JF0009753|10.1021/JF00097A031|10.1021/JF0116202|10.1021/JF2011535|10.1021/JF301621E|10.1021/JF9601628|10.1021/JF970468U|10.1021/JF970753D|10.1021/JF981380Z|10.1021/JF990665O|10.1021/acs.jnatprod.0c00395|10.1021/acs.jnatprod.8b00953|10.1023/B:CONC.0000025480.17399.66|10.1039/C39860000392|10.1055/S-2005-871225|10.1055/S-2006-961466|10.1211/0022357011775389|10.1248/CPB.32.3787|10.1248/CPB.34.4083|10.1248/CPB.36.33|10.1248/CPB.37.2030|10.1248/CPB.37.3255|10.1248/CPB.37.77|10.1248/CPB.40.1383|10.1248/CPB.40.1997|10.1248/CPB.46.169|10.1248/CPB.48.201|10.1248/YAKUSHI1947.116.2_148|10.1271/BBB1961.52.2717|10.1515/ZNC-1999-1114|10.1515/hfsg.1977.31.1.20|10.1590/S0103-50532005000800008|10.3136/NSKKK.50.180|10.3390/12081950|10.3390/plants6040050|10.3797/SCIPHARM.AUT-05-10|10.5344/AJEV.1987.38.4.277

>  <synonyms>  (1517) 
nan

>  <cas>  (1517) 
23567-23-9

$$$$

     RDKit          2D

 20 22  0  0  0  0  0  0  0  0999 V2000
    1.8569    3.4146    0.0000 O   0  0  0  0  0  0  0  0  0  0  0  0
    1.6556    1.9282    0.0000 C   0  0  0  0  0  0  0  0  0  0  0  0
    0.3347    1.2173    0.0000 C   0  0  0  0  0  0  0  0  0  0  0  0
   -1.0167    1.8681    0.0000 C   0  0  0  0  0  0  0  0  0  0  0  0
   -2.2561    1.0231    0.0000 C   0  0  0  0  0  0  0  0  0  0  0  0
   -3.6075    1.6739    0.0000 C   0  0  0  0  0  0  0  0  0  0  0  0
   -4.8469    0.8288    0.0000 C   0  0  0  0  0  0  0  0  0  0  0  0
   -4.7347   -0.6670    0.0000 C   0  0  0  0  0  0  0  0  0  0  0  0
   -5.9740   -1.5120    0.0000 O   0  0  0  0  0  0  0  0  0  0  0  0
   -3.3832   -1.3177    0.0000 C   0  0  0  0  0  0  0  0  0  0  0  0
   -3.2711   -2.8136    0.0000 O   0  0  0  0  0  0  0  0  0  0  0  0
   -2.1439   -0.4727    0.0000 C   0  0  0  0  0  0  0  0  0  0  0  0
    0.6026   -0.2585    0.0000 O   0  0  0  0  0  0  0  0  0  0  0  0
    2.0891   -0.4598    0.0000 C   0  0  0  0  0  0  0  0  0  0  0  0
    2.9341   -1.6992    0.0000 C   0  0  0  0  0  0  0  0  0  0  0  0
    4.4299   -1.5870    0.0000 C   0  0  0  0  0  0  0  0  0  0  0  0
    5.2749   -2.8263    0.0000 O   0  0  0  0  0  0  0  0  0  0  0  0
    5.0807   -0.2355    0.0000 C   0  0  0  0  0  0  0  0  0  0  0  0
    4.2356    1.0038    0.0000 C   0  0  0  0  0  0  0  0  0  0  0  0
    2.7398    0.8916    0.0000 C   0  0  0  0  0  0  0  0  0  0  0  0
  1  2  2  0
  2  3  1  0
  3  4  2  0
  4  5  1  0
  5  6  2  0
  6  7  1  0
  7  8  2  0
  8  9  1  0
  8 10  1  0
 10 11  1  0
 10 12  2  0
  3 13  1  0
 13 14  1  0
 14 15  2  0
 15 16  1  0
 16 17  1  0
 16 18  2  0
 18 19  1  0
 19 20  2  0
 20  2  1  0
 12  5  1  0
 20 14  1  0
M  END
>  <identifier>  (1518) 
CNP0234074.1

>  <canonical_smiles>  (1518) 
O=C1/C(=C/C2=CC=C(O)C(O)=C2)OC2=CC(O)=CC=C12

>  <standard_inchi>  (1518) 
InChI=1S/C15H10O5/c16-9-2-3-10-13(7-9)20-14(15(10)19)6-8-1-4-11(17)12(18)5-8/h1-7,16-18H/b14-6-

>  <standard_inchi_key>  (1518) 
RGNXWPVNPFAADO-NSIKDUERSA-N

>  <name>  (1518) 
nan

>  <iupac_name>  (1518) 
nan

>  <annotation_level>  (1518) 
0

>  <total_atom_count>  (1518) 
30

>  <heavy_atom_count>  (1518) 
20

>  <molecular_weight>  (1518) 
270.24

>  <exact_molecular_weight>  (1518) 
270.05282

>  <molecular_formula>  (1518) 
C15H10O5

>  <alogp>  (1518) 
2.42

>  <topological_polar_surface_area>  (1518) 
86.99

>  <rotatable_bond_count>  (1518) 
1

>  <hydrogen_bond_acceptors>  (1518) 
5

>  <hydrogen_bond_donors>  (1518) 
3

>  <hydrogen_bond_acceptors_lipinski>  (1518) 
5

>  <hydrogen_bond_donors_lipinski>  (1518) 
3

>  <lipinski_rule_of_five_violations>  (1518) 
0

>  <aromatic_rings_count>  (1518) 
2

>  <qed_drug_likeliness>  (1518) 
0.55

>  <formal_charge>  (1518) 
0

>  <fractioncsp3>  (1518) 
0.00

>  <number_of_minimal_rings>  (1518) 
3

>  <van_der_walls_volume>  (1518) 
226.83

>  <contains_sugar>  (1518) 
False

>  <contains_ring_sugars>  (1518) 
False

>  <contains_linear_sugars>  (1518) 
False

>  <murcko_framework>  (1518) 
O1c2ccccc2CC1=Cc3ccccc3

>  <np_likeness>  (1518) 
0.67

>  <chemical_class>  (1518) 
nan

>  <chemical_sub_class>  (1518) 
nan

>  <chemical_super_class>  (1518) 
nan

>  <direct_parent_classification>  (1518) 
nan

>  <np_classifier_pathway>  (1518) 
Shikimates and Phenylpropanoids

>  <np_classifier_superclass>  (1518) 
Flavonoids

>  <np_classifier_class>  (1518) 
Aurones

>  <np_classifier_is_glycoside>  (1518) 
False

>  <organisms>  (1518) 
Albizia julibrissin|Astragalus microcephalus|Bahiopsis laciniata|Bidens pilosa|Bidens tripartita|Calanticaria bicolor|Calanticaria brevifolia|Calanticaria greggii|Carex appressa|Chlorocodon whitei|Coreopsis grandiflora|Cosmos Sulphureus|Cotinus coggygria|Dalbergia odorifera|Dendrobium farmeri|Dipteryx lacunifera|Dipteryx odorata|Elsholtzia ciliata|Heliomeris multiflora var. multiflora|Jasminum sambac|Lasthenia californica|Origanum onites|Passiflora sexflora|Philodendron hederaceum|Populus sieboldi|Rabdosia parvifolia|Sophora alopecuroides|Toxicodendron vernicifluum|Xanthorrhoea minor

>  <collections>  (1518) 
Australian natural products|CMAUP (cCollective molecular activities of useful plants)|ChEBI NPs|ChemSpider NPs|InterBioScreen Ltd|Latin America dataset|NPACT|NPASS|NuBBEDB|Phyto4Health|PubChem NPs|Super Natural II|VietHerb|WikiData Natural Products|ZINC NP

>  <dois>  (1518) 
10.1002/HLCA.200890233|10.1002/hlca.200890233|10.1007/BF00563663|10.1007/BF02976862|10.1007/S10600-009-9314-1|10.1007/S10600-009-9360-8|10.1007/S10600-011-9800-0|10.1007/s00425-015-2261-0|10.1016/0031-9422(89)85049-6|10.1016/0305-1978(88)90036-1|10.1016/0305-1978(89)90096-3|10.1016/J.FCT.2012.03.052|10.1016/J.JEP.2003.09.043|10.1016/S0031-9422(00)84889-X|10.1016/S0304-4165(02)00196-4|10.1016/S0944-7113(97)80005-0|10.1021/JO01081A033|10.1021/NP000292H|10.1021/NP020522N|10.1021/NP50024A029|10.1021/acs.jnatprod.0c00756|10.1055/S-2003-45097|10.1055/S-2006-957394|10.1248/BPB.31.1626|10.3390/MOLECULES16129775

>  <synonyms>  (1518) 
nan

>  <cas>  (1518) 
120-05-8

$$$$

     RDKit          2D

 25 27  0  0  0  0  0  0  0  0999 V2000
    8.1721    0.0888    0.0000 C   0  0  0  0  0  0  0  0  0  0  0  0
    6.7460    0.5537    0.0000 C   0  0  0  0  0  0  0  0  0  0  0  0
    6.2838    1.9808    0.0000 C   0  0  0  0  0  0  0  0  0  0  0  0
    4.7838    1.9822    0.0000 C   0  0  0  0  0  0  0  0  0  0  0  0
    4.3190    0.5561    0.0000 C   0  0  0  0  0  0  0  0  0  0  0  0
    2.9481   -0.0527    0.0000 C   0  0  0  0  0  0  0  0  0  0  0  0
    1.7354    0.8301    0.0000 C   0  0  0  0  0  0  0  0  0  0  0  0
    0.3645    0.2213    0.0000 O   0  0  0  0  0  0  0  0  0  0  0  0
   -0.8482    1.1042    0.0000 C   0  0  0  0  0  0  0  0  0  0  0  0
   -0.6900    2.5958    0.0000 O   0  0  0  0  0  0  0  0  0  0  0  0
   -2.2191    0.4954    0.0000 C   0  0  0  0  0  0  0  0  0  0  0  0
   -3.4318    1.3782    0.0000 C   0  0  0  0  0  0  0  0  0  0  0  0
   -4.8027    0.7694    0.0000 C   0  0  0  0  0  0  0  0  0  0  0  0
   -6.0154    1.6523    0.0000 C   0  0  0  0  0  0  0  0  0  0  0  0
   -7.3863    1.0435    0.0000 C   0  0  0  0  0  0  0  0  0  0  0  0
   -7.5445   -0.4482    0.0000 C   0  0  0  0  0  0  0  0  0  0  0  0
   -8.9154   -1.0569    0.0000 O   0  0  0  0  0  0  0  0  0  0  0  0
   -6.3318   -1.3310    0.0000 C   0  0  0  0  0  0  0  0  0  0  0  0
   -6.4900   -2.8226    0.0000 O   0  0  0  0  0  0  0  0  0  0  0  0
   -4.9609   -0.7222    0.0000 C   0  0  0  0  0  0  0  0  0  0  0  0
    2.7898   -1.5444    0.0000 C   0  0  0  0  0  0  0  0  0  0  0  0
    4.0025   -2.4272    0.0000 O   0  0  0  0  0  0  0  0  0  0  0  0
    5.3734   -1.8184    0.0000 C   0  0  0  0  0  0  0  0  0  0  0  0
    6.5861   -2.7013    0.0000 O   0  0  0  0  0  0  0  0  0  0  0  0
    5.5316   -0.3268    0.0000 C   0  0  0  0  0  0  0  0  0  0  0  0
  2  1  1  6
  2  3  1  0
  3  4  1  0
  5  4  1  1
  5  6  1  0
  6  7  1  0
  7  8  1  0
  8  9  1  0
  9 10  2  0
  9 11  1  0
 11 12  2  0
 12 13  1  0
 13 14  2  0
 14 15  1  0
 15 16  2  0
 16 17  1  0
 16 18  1  0
 18 19  1  0
 18 20  2  0
  6 21  2  0
 21 22  1  0
 22 23  1  0
 23 24  1  6
 25 23  1  1
 25  2  1  0
 25  5  1  0
 20 13  1  0
M  END
>  <identifier>  (1519) 
CNP0080538.1

>  <canonical_smiles>  (1519) 
C[C@H]1CC[C@@H]2C(COC(=O)/C=C/C3=CC=C(O)C(O)=C3)=CO[C@@H](O)[C@@H]21

>  <standard_inchi>  (1519) 
InChI=1S/C19H22O6/c1-11-2-5-14-13(10-25-19(23)18(11)14)9-24-17(22)7-4-12-3-6-15(20)16(21)8-12/h3-4,6-8,10-11,14,18-21,23H,2,5,9H2,1H3/b7-4+/t11-,14+,18+,19+/m0/s1

>  <standard_inchi_key>  (1519) 
UCVCMZDDRNSEDX-NMVCSJPFSA-N

>  <name>  (1519) 
nan

>  <iupac_name>  (1519) 
[(1~{R},4~{a}~{S},7~{S},7~{a}~{R})-1-hydroxy-7-methyl-1,4~{a},5,6,7,7~{a}-hexahydrocyclopenta[c]pyran-4-yl]methyl (~{E})-3-(3,4-dihydroxyphenyl)prop-2-enoate

>  <annotation_level>  (1519) 
5

>  <total_atom_count>  (1519) 
47

>  <heavy_atom_count>  (1519) 
25

>  <molecular_weight>  (1519) 
346.38

>  <exact_molecular_weight>  (1519) 
346.14164

>  <molecular_formula>  (1519) 
C19H22O6

>  <alogp>  (1519) 
2.55

>  <topological_polar_surface_area>  (1519) 
96.22

>  <rotatable_bond_count>  (1519) 
4

>  <hydrogen_bond_acceptors>  (1519) 
6

>  <hydrogen_bond_donors>  (1519) 
3

>  <hydrogen_bond_acceptors_lipinski>  (1519) 
6

>  <hydrogen_bond_donors_lipinski>  (1519) 
3

>  <lipinski_rule_of_five_violations>  (1519) 
0

>  <aromatic_rings_count>  (1519) 
1

>  <qed_drug_likeliness>  (1519) 
0.44

>  <formal_charge>  (1519) 
0

>  <fractioncsp3>  (1519) 
0.42

>  <number_of_minimal_rings>  (1519) 
3

>  <van_der_walls_volume>  (1519) 
311.34

>  <contains_sugar>  (1519) 
False

>  <contains_ring_sugars>  (1519) 
False

>  <contains_linear_sugars>  (1519) 
False

>  <murcko_framework>  (1519) 
O1C=C(COCC=Cc2ccccc2)C3CCCC3C1

>  <np_likeness>  (1519) 
2.18

>  <chemical_class>  (1519) 
Cinnamic acids and derivatives

>  <chemical_sub_class>  (1519) 
Hydroxycinnamic acids and derivatives

>  <chemical_super_class>  (1519) 
Phenylpropanoids and polyketides

>  <direct_parent_classification>  (1519) 
Hydroxycinnamic acids

>  <np_classifier_pathway>  (1519) 
Terpenoids

>  <np_classifier_superclass>  (1519) 
Monoterpenoids

>  <np_classifier_class>  (1519) 
Iridoids monoterpenoids

>  <np_classifier_is_glycoside>  (1519) 
True

>  <organisms>  (1519) 
Tocoyena formosa

>  <collections>  (1519) 
ChemSpider NPs|Latin America dataset|NuBBEDB|Super Natural II|WikiData Natural Products|ZINC NP

>  <dois>  (1519) 
10.5935/0103-5053.19960024

>  <synonyms>  (1519) 
11-O-trans-feruloylteucrein

>  <cas>  (1519) 
nan

$$$$

     RDKit          2D

 24 27  0  0  0  0  0  0  0  0999 V2000
   -8.0753   -1.1004    0.0000 C   0  0  0  0  0  0  0  0  0  0  0  0
   -6.7236   -0.4500    0.0000 C   0  0  0  0  0  0  0  0  0  0  0  0
   -5.4845   -1.2955    0.0000 C   0  0  0  0  0  0  0  0  0  0  0  0
   -4.1328   -0.6452    0.0000 C   0  0  0  0  0  0  0  0  0  0  0  0
   -4.0202    0.8506    0.0000 C   0  0  0  0  0  0  0  0  0  0  0  0
   -2.6685    1.5009    0.0000 C   0  0  0  0  0  0  0  0  0  0  0  0
   -2.5558    2.9967    0.0000 O   0  0  0  0  0  0  0  0  0  0  0  0
   -3.7949    3.8421    0.0000 C   0  0  0  0  0  0  0  0  0  0  0  0
   -1.4294    0.6555    0.0000 C   0  0  0  0  0  0  0  0  0  0  0  0
    0.0279    1.0106    0.0000 O   0  0  0  0  0  0  0  0  0  0  0  0
    0.8160   -0.2657    0.0000 C   0  0  0  0  0  0  0  0  0  0  0  0
    2.3117   -0.3784    0.0000 C   0  0  0  0  0  0  0  0  0  0  0  0
    2.9621   -1.7301    0.0000 C   0  0  0  0  0  0  0  0  0  0  0  0
    4.4578   -1.8427    0.0000 C   0  0  0  0  0  0  0  0  0  0  0  0
    5.3033   -0.6037    0.0000 C   0  0  0  0  0  0  0  0  0  0  0  0
    6.7898   -0.4029    0.0000 O   0  0  0  0  0  0  0  0  0  0  0  0
    7.0582    1.0729    0.0000 C   0  0  0  0  0  0  0  0  0  0  0  0
    5.7375    1.7842    0.0000 O   0  0  0  0  0  0  0  0  0  0  0  0
    4.6530    0.7480    0.0000 C   0  0  0  0  0  0  0  0  0  0  0  0
    3.1572    0.8606    0.0000 C   0  0  0  0  0  0  0  0  0  0  0  0
   -0.1543   -1.4096    0.0000 C   0  0  0  0  0  0  0  0  0  0  0  0
    0.2007   -2.8670    0.0000 C   0  0  0  0  0  0  0  0  0  0  0  0
   -1.5421   -0.8403    0.0000 C   0  0  0  0  0  0  0  0  0  0  0  0
   -2.8938   -1.4906    0.0000 C   0  0  0  0  0  0  0  0  0  0  0  0
  1  2  1  0
  2  3  2  0
  3  4  1  0
  4  5  2  0
  5  6  1  0
  6  7  1  0
  7  8  1  0
  6  9  2  0
  9 10  1  0
 10 11  1  0
 11 12  1  1
 12 13  2  0
 13 14  1  0
 14 15  2  0
 15 16  1  0
 16 17  1  0
 17 18  1  0
 18 19  1  0
 19 20  2  0
 11 21  1  0
 21 22  1  6
 21 23  1  0
 23 24  2  0
 24  4  1  0
 23  9  1  0
 20 12  1  0
 19 15  1  0
M  END
>  <identifier>  (1520) 
CNP0231631.3

>  <canonical_smiles>  (1520) 
C/C=C/C1=CC(OC)=C2O[C@@H](C3=CC=C4OCOC4=C3)[C@H](C)C2=C1

>  <standard_inchi>  (1520) 
InChI=1S/C20H20O4/c1-4-5-13-8-15-12(2)19(24-20(15)18(9-13)21-3)14-6-7-16-17(10-14)23-11-22-16/h4-10,12,19H,11H2,1-3H3/b5-4+/t12-,19-/m1/s1

>  <standard_inchi_key>  (1520) 
DMMQXURQRMNSBM-YZAYTREXSA-N

>  <name>  (1520) 
LICARIN B

>  <iupac_name>  (1520) 
5-[(2~{R},3~{R})-7-methoxy-3-methyl-5-[(~{E})-prop-1-enyl]-2,3-dihydrobenzofuran-2-yl]-1,3-benzodioxole

>  <annotation_level>  (1520) 
5

>  <total_atom_count>  (1520) 
44

>  <heavy_atom_count>  (1520) 
24

>  <molecular_weight>  (1520) 
324.38

>  <exact_molecular_weight>  (1520) 
324.13616

>  <molecular_formula>  (1520) 
C20H20O4

>  <alogp>  (1520) 
4.69

>  <topological_polar_surface_area>  (1520) 
36.92

>  <rotatable_bond_count>  (1520) 
3

>  <hydrogen_bond_acceptors>  (1520) 
4

>  <hydrogen_bond_donors>  (1520) 
0

>  <hydrogen_bond_acceptors_lipinski>  (1520) 
4

>  <hydrogen_bond_donors_lipinski>  (1520) 
0

>  <lipinski_rule_of_five_violations>  (1520) 
0

>  <aromatic_rings_count>  (1520) 
2

>  <qed_drug_likeliness>  (1520) 
0.82

>  <formal_charge>  (1520) 
0

>  <fractioncsp3>  (1520) 
0.30

>  <number_of_minimal_rings>  (1520) 
4

>  <van_der_walls_volume>  (1520) 
295.90

>  <contains_sugar>  (1520) 
False

>  <contains_ring_sugars>  (1520) 
False

>  <contains_linear_sugars>  (1520) 
False

>  <murcko_framework>  (1520) 
O1c2ccc(cc2OC1)C3Oc4ccccc4C3

>  <np_likeness>  (1520) 
1.55

>  <chemical_class>  (1520) 
2-arylbenzofuran flavonoids

>  <chemical_sub_class>  (1520) 
2-arylbenzofuran flavonoids

>  <chemical_super_class>  (1520) 
Phenylpropanoids and polyketides

>  <direct_parent_classification>  (1520) 
2-arylbenzofuran flavonoids

>  <np_classifier_pathway>  (1520) 
Shikimates and Phenylpropanoids

>  <np_classifier_superclass>  (1520) 
Lignans

>  <np_classifier_class>  (1520) 
Minor lignans

>  <np_classifier_is_glycoside>  (1520) 
False

>  <organisms>  (1520) 
Andinobates fulguritus|Aristolochia taliscana|Catalpa bignonioides|Cephalonoplos segetum|Comaster multifida|Esenbeckia nesiotica|Eupomatia laurina|Helipterum tenellum|Hyptis tomentosa|Ipomoea cristulata|Iryanthera lancifolia|Lachnoanaerobaculum saburreum|Lens phaseoloides|Licaria aritu|Licaria guianensis|Lophozonia menziesii|Machilus obovatifolia|Machilus thunbergii|Magnolia denudata|Magnolia kachirachirai|Myristica Fragrans|Myristica castaneifolia|Myristica fragrans|Nectandra amazonum|Ocotea macrophylla|Ocotea porosa|Pancratium trianthum|Piper pedicellosum|Pleurothyrium cinereum|Rhodotypos scandens|Saururus chinensis|Staudtia kamerunensis|Xanthostemon oppositifolius

>  <collections>  (1520) 
CMAUP (cCollective molecular activities of useful plants)|KNApSaCK|Latin America dataset|NPASS|NPEdia|NuBBEDB|SANCDB|Super Natural II|VietHerb|WikiData Natural Products|ZINC NP

>  <dois>  (1520) 
10.1002/CHIN.200533260|10.1007/BF02861315|10.1007/BF02892018|10.1016/0031-9422(73)85034-4|10.1016/0031-9422(88)80152-3|10.1016/0031-9422(91)84145-I|10.1016/J.BMC.2007.12.003|10.1016/J.PHYTOCHEM.2009.07.010|10.1016/S0031-9422(00)81847-6|10.1016/S0031-9422(00)84117-5|10.1016/S0031-9422(00)84520-3|10.1021/NP50035A030|10.1055/S-0030-1249810|10.1055/S-2001-16480|10.1071/CH9722659|10.1071/CH9931421|10.1076/PHBI.37.2.155.6088|10.1177/1934578X1601100416|10.1248/CPB.48.832

>  <synonyms>  (1520) 
(-)-Licarin-B|(-)-licarin B|1,3-Benzodioxole, 5-((2R,3R)-2,3-dihydro-7-methoxy-3-methyl-5-(1E)-1-propenyl-2-benzofuranyl)-|5-((2R,3R)-7-methoxy-3-methyl-5-((E)-prop-1-en-1-yl)-2,3-dihydrobenzofuran-2-yl)benzo[d][1,3]dioxole|51020-87-2|AC-34420|AKOS030632872|BDBM50303148|BS-16929|CHEMBL259386|CS-0009000|DTXSID601317642|HY-N0479|Licarin B|Licarin b|Licarin-B, (2S3S)-23-dihydro-7-methoxy-3-methyl-2-piperonyl-5-trans-propenylbenzofuran|NSC 370990|Q-100947|SCHEMBL12604783|licarinB|licarine B

>  <cas>  (1520) 
51020-87-2

$$$$

     RDKit          2D

 27 28  0  0  0  0  0  0  0  0999 V2000
   -4.8701   -2.7574    0.0000 C   0  0  0  0  0  0  0  0  0  0  0  0
   -4.8096   -1.2586    0.0000 C   0  0  0  0  0  0  0  0  0  0  0  0
   -6.0773   -0.4568    0.0000 C   0  0  0  0  0  0  0  0  0  0  0  0
   -6.0167    1.0420    0.0000 C   0  0  0  0  0  0  0  0  0  0  0  0
   -7.2844    1.8438    0.0000 O   0  0  0  0  0  0  0  0  0  0  0  0
   -4.6885    1.7390    0.0000 C   0  0  0  0  0  0  0  0  0  0  0  0
   -3.4208    0.9371    0.0000 C   0  0  0  0  0  0  0  0  0  0  0  0
   -2.8513    2.3248    0.0000 C   0  0  0  0  0  0  0  0  0  0  0  0
   -1.9553    0.6173    0.0000 C   0  0  0  0  0  0  0  0  0  0  0  0
   -3.4813   -0.5616    0.0000 C   0  0  0  0  0  0  0  0  0  0  0  0
   -3.0256   -1.9907    0.0000 O   0  0  0  0  0  0  0  0  0  0  0  0
   -1.9948   -0.3610    0.0000 C   0  0  0  0  0  0  0  0  0  0  0  0
   -1.0778   -1.5481    0.0000 C   0  0  0  0  0  0  0  0  0  0  0  0
    0.4087   -1.3474    0.0000 C   0  0  0  0  0  0  0  0  0  0  0  0
    1.3258   -2.5345    0.0000 C   0  0  0  0  0  0  0  0  0  0  0  0
    0.9782    0.0403    0.0000 O   0  0  0  0  0  0  0  0  0  0  0  0
    2.4648    0.2409    0.0000 C   0  0  0  0  0  0  0  0  0  0  0  0
    3.3818   -0.9461    0.0000 O   0  0  0  0  0  0  0  0  0  0  0  0
    4.8683   -0.7455    0.0000 C   0  0  0  0  0  0  0  0  0  0  0  0
    5.7853   -1.9326    0.0000 C   0  0  0  0  0  0  0  0  0  0  0  0
    5.2158   -3.3202    0.0000 O   0  0  0  0  0  0  0  0  0  0  0  0
    5.4378    0.6422    0.0000 C   0  0  0  0  0  0  0  0  0  0  0  0
    6.9243    0.8428    0.0000 O   0  0  0  0  0  0  0  0  0  0  0  0
    4.5208    1.8292    0.0000 C   0  0  0  0  0  0  0  0  0  0  0  0
    5.0903    3.2169    0.0000 O   0  0  0  0  0  0  0  0  0  0  0  0
    3.0343    1.6286    0.0000 C   0  0  0  0  0  0  0  0  0  0  0  0
    2.1173    2.8156    0.0000 O   0  0  0  0  0  0  0  0  0  0  0  0
  1  2  1  0
  2  3  2  0
  3  4  1  0
  4  5  2  0
  4  6  1  0
  6  7  1  0
  7  8  1  0
  7  9  1  0
  7 10  1  0
 10 11  1  6
 10 12  1  0
 12 13  2  0
 13 14  1  0
 14 15  1  1
 14 16  1  0
 17 16  1  1
 17 18  1  0
 18 19  1  0
 19 20  1  1
 20 21  1  0
 19 22  1  0
 22 23  1  6
 22 24  1  0
 24 25  1  1
 24 26  1  0
 26 27  1  6
 10  2  1  0
 26 17  1  0
M  END
>  <identifier>  (1521) 
CNP0241893.2

>  <canonical_smiles>  (1521) 
CC1=CC(=O)CC(C)(C)[C@@]1(O)/C=C/[C@H](C)O[C@@H]1O[C@H](CO)[C@@H](O)[C@H](O)[C@H]1O

>  <standard_inchi>  (1521) 
InChI=1S/C19H30O8/c1-10-7-12(21)8-18(3,4)19(10,25)6-5-11(2)26-17-16(24)15(23)14(22)13(9-20)27-17/h5-7,11,13-17,20,22-25H,8-9H2,1-4H3/b6-5+/t11-,13+,14+,15-,16+,17+,19+/m0/s1

>  <standard_inchi_key>  (1521) 
SWYRVCGNMNAFEK-PUVRWCMWSA-N

>  <name>  (1521) 
Corchoionoside C

>  <iupac_name>  (1521) 
(4~{S})-4-hydroxy-3,5,5-trimethyl-4-[(~{E},3~{S})-3-[(2~{R},3~{R},4~{S},5~{S},6~{R})-3,4,5-trihydroxy-6-(hydroxymethyl)tetrahydropyran-2-yl]oxybut-1-enyl]cyclohex-2-en-1-one

>  <annotation_level>  (1521) 
5

>  <total_atom_count>  (1521) 
57

>  <heavy_atom_count>  (1521) 
27

>  <molecular_weight>  (1521) 
386.44

>  <exact_molecular_weight>  (1521) 
386.19407

>  <molecular_formula>  (1521) 
C19H30O8

>  <alogp>  (1521) 
-0.58

>  <topological_polar_surface_area>  (1521) 
136.68

>  <rotatable_bond_count>  (1521) 
5

>  <hydrogen_bond_acceptors>  (1521) 
8

>  <hydrogen_bond_donors>  (1521) 
5

>  <hydrogen_bond_acceptors_lipinski>  (1521) 
8

>  <hydrogen_bond_donors_lipinski>  (1521) 
5

>  <lipinski_rule_of_five_violations>  (1521) 
0

>  <aromatic_rings_count>  (1521) 
0

>  <qed_drug_likeliness>  (1521) 
0.40

>  <formal_charge>  (1521) 
0

>  <fractioncsp3>  (1521) 
0.74

>  <number_of_minimal_rings>  (1521) 
2

>  <van_der_walls_volume>  (1521) 
353.91

>  <contains_sugar>  (1521) 
True

>  <contains_ring_sugars>  (1521) 
True

>  <contains_linear_sugars>  (1521) 
False

>  <murcko_framework>  (1521) 
O(CC=CC1C=CCCC1)C2OCCCC2

>  <np_likeness>  (1521) 
2.70

>  <chemical_class>  (1521) 
Fatty Acyls

>  <chemical_sub_class>  (1521) 
Fatty acyl glycosides

>  <chemical_super_class>  (1521) 
Lipids and lipid-like molecules

>  <direct_parent_classification>  (1521) 
Fatty acyl glycosides of mono- and disaccharides

>  <np_classifier_pathway>  (1521) 
Terpenoids

>  <np_classifier_superclass>  (1521) 
Apocarotenoids

>  <np_classifier_class>  (1521) 
Megastigmanes

>  <np_classifier_is_glycoside>  (1521) 
True

>  <organisms>  (1521) 
Acanthus ilicifolius|Ajuga salicifolia|Anoectochilus formosanus|Araucaria cunninghamii|Baccharis dracunculifolia|Brassica rapa|Breynia androgyna|Breynia fruticosa|Breynia rostrata|Camellia amplexicaulis|Cananga odorata|Capparis spinosa|Cardamine komarovii|Cibotium Barometz|Cibotium barometz|Collinsonia japonica|Corchorus olitorius|Dendrobium polyanthum|Euodia Meliaefolia|Euodia meliaefolia|Euphorbia hirta|Glehnia littoralis|Glochidion Rubrum|Glochidion rubrum|Ixora undulata|Juniperus communis|Juniperus communis depressa|Juniperus communis var. depressa|Juniperus communis var.depressa|Kali collinum|Kandelia candel|Markhamia stipulata|Mussaenda arcuata|Oldenlandia umbellata|Opuntia humifusa|Peperomia obtusifolia|Persicaria decipiens|Persicaria lapathifolia|Persicaria salicifolia|Piper umbellata|Piper umbellatum|Polygonum hydropiper|Salsola collina|Salvia nemorosa|Salvia × sylvestris|Santisukia kerrii|Sauropus androgynus|Sonchus erzincanicus|Tetradium glabrifolium|Turpenia ternata NAKAI|Verbascum densiflorum|Zanthoxylum schinifolium

>  <collections>  (1521) 
ANPDB|Australian natural products|CMAUP (cCollective molecular activities of useful plants)|Carotenoids Database|ChemSpider NPs|KNApSaCK|Latin America dataset|NANPDB (Natural Products from Northern African Sources)|NPASS|NuBBEDB|Super Natural II|TCMDB-Taiwan (Traditional Chinese Medicine database)|VietHerb|WikiData Natural Products|ZINC NP

>  <dois>  (1521) 
10.1007/S10600-011-9896-2|10.1007/S11418-012-0692-5|10.1007/s11418-012-0692-5|10.1016/J.BMC.2011.07.036|10.1016/J.BMCL.2015.02.048|10.1016/J.PHYTOCHEM.2008.01.020|10.1016/J.PHYTOCHEM.2009.10.002|10.1016/J.PHYTOCHEM.2010.06.009|10.1016/J.PHYTOCHEM.2014.10.008|10.1016/J.PHYTOL.2012.10.013|10.1016/S0031-9422(01)00399-5|10.1016/S0031-9422(01)00466-6|10.1016/S0031-9422(01)00476-9|10.1016/S0031-9422(03)00219-X|10.1016/S0031-9422(96)00359-7|10.1016/j.bmc.2011.07.036|10.1016/j.bmcl.2015.02.048|10.1016/j.phytochem.2014.10.008|10.1016/j.phytol.2012.10.013|10.1016/s0031-9422(01)00399-5|10.1021/NP9004097|10.1021/acs.jnatprod.9b01120|10.1021/np9004097|10.1055/S-2001-15812|10.1055/s-2001-15812|10.1080/14786410903244954|10.1248/CPB.45.464|10.1248/CPB.48.1803|10.1248/CPB.49.1388|10.1248/CPB.53.783|10.1248/CPB.57.65|10.1248/CPB.59.773|10.1248/CPB.60.121|10.1515/ZNC-2003-3-406|10.1590/S0100-40422009000500005|10.3390/MOLECULES15042593|10.5012/BKCS.2009.30.9.2098|10.5012/BKCS.2010.31.04.1081

>  <synonyms>  (1521) 
(4S)-4-hydroxy-3,5,5-trimethyl-4-[(E,3S)-3-[(2R,3R,4S,5S,6R)-3,4,5-trihydroxy-6-(hydroxymethyl)oxan-2-yl]oxybut-1-enyl]cyclohex-2-en-1-one|(6S,9S)-Roseoside|185414-25-9|6S,9S-ROSEOSIDE|AKOS040761526|CHEMBL444196|CS-0023953|Corchoionoside C|DTXSID101316706|FS-10509|HY-N3622|Rel-(6S9S)-roseoside

>  <cas>  (1521) 
185414-25-9

$$$$

     RDKit          2D

 21 22  0  0  0  0  0  0  0  0999 V2000
   -6.1824   -2.4799    0.0000 O   0  0  0  0  0  0  0  0  0  0  0  0
   -5.8602   -1.0149    0.0000 C   0  0  0  0  0  0  0  0  0  0  0  0
   -6.9679   -0.0034    0.0000 C   0  0  0  0  0  0  0  0  0  0  0  0
   -6.6457    1.4616    0.0000 C   0  0  0  0  0  0  0  0  0  0  0  0
   -5.2158    1.9150    0.0000 C   0  0  0  0  0  0  0  0  0  0  0  0
   -4.1082    0.9035    0.0000 C   0  0  0  0  0  0  0  0  0  0  0  0
   -2.6784    1.3570    0.0000 C   0  0  0  0  0  0  0  0  0  0  0  0
   -1.5708    0.3455    0.0000 C   0  0  0  0  0  0  0  0  0  0  0  0
   -1.8930   -1.1195    0.0000 O   0  0  0  0  0  0  0  0  0  0  0  0
   -0.1410    0.7989    0.0000 C   0  0  0  0  0  0  0  0  0  0  0  0
    0.9666   -0.2126    0.0000 C   0  0  0  0  0  0  0  0  0  0  0  0
    0.6444   -1.6776    0.0000 O   0  0  0  0  0  0  0  0  0  0  0  0
    2.3965    0.2409    0.0000 C   0  0  0  0  0  0  0  0  0  0  0  0
    3.5041   -0.7707    0.0000 C   0  0  0  0  0  0  0  0  0  0  0  0
    4.9339   -0.3172    0.0000 C   0  0  0  0  0  0  0  0  0  0  0  0
    6.0415   -1.3287    0.0000 C   0  0  0  0  0  0  0  0  0  0  0  0
    7.4713   -0.8752    0.0000 C   0  0  0  0  0  0  0  0  0  0  0  0
    7.7935    0.5897    0.0000 C   0  0  0  0  0  0  0  0  0  0  0  0
    6.6859    1.6013    0.0000 C   0  0  0  0  0  0  0  0  0  0  0  0
    5.2561    1.1478    0.0000 C   0  0  0  0  0  0  0  0  0  0  0  0
   -4.4304   -0.5615    0.0000 O   0  0  0  0  0  0  0  0  0  0  0  0
  1  2  2  0
  2  3  1  0
  3  4  2  0
  4  5  1  0
  5  6  1  0
  6  7  1  0
  7  8  1  0
  8  9  1  1
  8 10  1  0
 10 11  1  0
 11 12  1  6
 11 13  1  0
 13 14  2  0
 14 15  1  0
 15 16  2  0
 16 17  1  0
 17 18  2  0
 18 19  1  0
 19 20  2  0
  6 21  1  0
 21  2  1  0
 20 15  1  0
M  END
>  <identifier>  (1522) 
CNP0273296.3

>  <canonical_smiles>  (1522) 
O=C1C=CCC(C[C@H](O)C[C@@H](O)/C=C/C2=CC=CC=C2)O1

>  <standard_inchi>  (1522) 
InChI=1S/C17H20O4/c18-14(10-9-13-5-2-1-3-6-13)11-15(19)12-16-7-4-8-17(20)21-16/h1-6,8-10,14-16,18-19H,7,11-12H2/b10-9+/t14-,15+,16?/m0/s1

>  <standard_inchi_key>  (1522) 
GOQOIZFMLWZVMB-NXNPFEHKSA-N

>  <name>  (1522) 
nan

>  <iupac_name>  (1522) 
2-[(~{E},2~{R},4~{R})-2,4-dihydroxy-6-phenyl-hex-5-enyl]-2,3-dihydropyran-6-one

>  <annotation_level>  (1522) 
2

>  <total_atom_count>  (1522) 
41

>  <heavy_atom_count>  (1522) 
21

>  <molecular_weight>  (1522) 
288.34

>  <exact_molecular_weight>  (1522) 
288.13616

>  <molecular_formula>  (1522) 
C17H20O4

>  <alogp>  (1522) 
2.07

>  <topological_polar_surface_area>  (1522) 
66.76

>  <rotatable_bond_count>  (1522) 
6

>  <hydrogen_bond_acceptors>  (1522) 
4

>  <hydrogen_bond_donors>  (1522) 
2

>  <hydrogen_bond_acceptors_lipinski>  (1522) 
4

>  <hydrogen_bond_donors_lipinski>  (1522) 
2

>  <lipinski_rule_of_five_violations>  (1522) 
0

>  <aromatic_rings_count>  (1522) 
1

>  <qed_drug_likeliness>  (1522) 
0.79

>  <formal_charge>  (1522) 
0

>  <fractioncsp3>  (1522) 
0.35

>  <number_of_minimal_rings>  (1522) 
2

>  <van_der_walls_volume>  (1522) 
nan

>  <contains_sugar>  (1522) 
False

>  <contains_ring_sugars>  (1522) 
False

>  <contains_linear_sugars>  (1522) 
False

>  <murcko_framework>  (1522) 
O1CC=CCC1CCCCC=Cc2ccccc2

>  <np_likeness>  (1522) 
2.27

>  <chemical_class>  (1522) 
Cinnamyl alcohols

>  <chemical_sub_class>  (1522) 
Cinnamyl alcohols

>  <chemical_super_class>  (1522) 
Phenylpropanoids and polyketides

>  <direct_parent_classification>  (1522) 
Cinnamyl alcohols

>  <np_classifier_pathway>  (1522) 
Shikimates and Phenylpropanoids

>  <np_classifier_superclass>  (1522) 
Styrylpyrones

>  <np_classifier_class>  (1522) 
Kavalactones and derivatives

>  <np_classifier_is_glycoside>  (1522) 
False

>  <organisms>  (1522) 
Cryptocarya moschata

>  <collections>  (1522) 
Latin America dataset|NuBBEDB|WikiData Natural Products

>  <dois>  (1522) 
10.1016/J.BSE.2008.05.001

>  <synonyms>  (1522) 
Cryptomoscatone D2

>  <cas>  (1522) 
nan

$$$$

     RDKit          2D

 22 25  0  0  0  0  0  0  0  0999 V2000
    2.3104   -3.2419    0.0000 O   0  0  0  0  0  0  0  0  0  0  0  0
    1.7760   -1.8403    0.0000 C   0  0  0  0  0  0  0  0  0  0  0  0
    2.7226   -0.6767    0.0000 C   0  0  0  0  0  0  0  0  0  0  0  0
    4.2036   -0.9147    0.0000 C   0  0  0  0  0  0  0  0  0  0  0  0
    5.1502    0.2489    0.0000 C   0  0  0  0  0  0  0  0  0  0  0  0
    4.6158    1.6504    0.0000 C   0  0  0  0  0  0  0  0  0  0  0  0
    5.5624    2.8140    0.0000 O   0  0  0  0  0  0  0  0  0  0  0  0
    3.1348    1.8884    0.0000 C   0  0  0  0  0  0  0  0  0  0  0  0
    2.1882    0.7249    0.0000 C   0  0  0  0  0  0  0  0  0  0  0  0
    0.7072    0.9628    0.0000 O   0  0  0  0  0  0  0  0  0  0  0  0
   -0.2394   -0.2007    0.0000 C   0  0  0  0  0  0  0  0  0  0  0  0
   -1.7204    0.0372    0.0000 C   0  0  0  0  0  0  0  0  0  0  0  0
   -2.2548    1.4388    0.0000 C   0  0  0  0  0  0  0  0  0  0  0  0
   -3.7358    1.6768    0.0000 C   0  0  0  0  0  0  0  0  0  0  0  0
   -4.2702    3.0784    0.0000 O   0  0  0  0  0  0  0  0  0  0  0  0
   -4.6824    0.5132    0.0000 C   0  0  0  0  0  0  0  0  0  0  0  0
   -6.1634    0.7512    0.0000 O   0  0  0  0  0  0  0  0  0  0  0  0
   -4.1480   -0.8883    0.0000 C   0  0  0  0  0  0  0  0  0  0  0  0
   -2.6670   -1.1263    0.0000 C   0  0  0  0  0  0  0  0  0  0  0  0
   -2.1326   -2.5279    0.0000 C   0  0  0  0  0  0  0  0  0  0  0  0
   -0.6516   -2.7659    0.0000 O   0  0  0  0  0  0  0  0  0  0  0  0
    0.2950   -1.6023    0.0000 C   0  0  0  0  0  0  0  0  0  0  0  0
  1  2  2  0
  2  3  1  0
  3  4  2  0
  4  5  1  0
  5  6  2  0
  6  7  1  0
  6  8  1  0
  8  9  2  0
  9 10  1  0
 11 10  1  1
 11 12  1  0
 12 13  2  0
 13 14  1  0
 14 15  1  0
 14 16  2  0
 16 17  1  0
 16 18  1  0
 18 19  2  0
 19 20  1  0
 20 21  1  0
 22 21  1  6
 22  2  1  0
  9  3  1  0
 22 11  1  0
 19 12  1  0
M  END
>  <identifier>  (1523) 
CNP0157475.2

>  <canonical_smiles>  (1523) 
O=C1C2=CC=C(O)C=C2O[C@@H]2C3=CC(O)=C(O)C=C3CO[C@@H]12

>  <standard_inchi>  (1523) 
InChI=1S/C16H12O6/c17-8-1-2-9-13(4-8)22-15-10-5-12(19)11(18)3-7(10)6-21-16(15)14(9)20/h1-5,15-19H,6H2/t15-,16+/m1/s1

>  <standard_inchi_key>  (1523) 
ZKTRTVSORJMRTK-CVEARBPZSA-N

>  <name>  (1523) 
nan

>  <iupac_name>  (1523) 
(6~{a}~{R},12~{a}~{R})-2,3,10-trihydroxy-6~{a},12~{a}-dihydro-5~{H}-isochromeno[4,3-b]chromen-7-one

>  <annotation_level>  (1523) 
4

>  <total_atom_count>  (1523) 
34

>  <heavy_atom_count>  (1523) 
22

>  <molecular_weight>  (1523) 
300.27

>  <exact_molecular_weight>  (1523) 
300.06339

>  <molecular_formula>  (1523) 
C16H12O6

>  <alogp>  (1523) 
2.02

>  <topological_polar_surface_area>  (1523) 
96.22

>  <rotatable_bond_count>  (1523) 
0

>  <hydrogen_bond_acceptors>  (1523) 
6

>  <hydrogen_bond_donors>  (1523) 
3

>  <hydrogen_bond_acceptors_lipinski>  (1523) 
6

>  <hydrogen_bond_donors_lipinski>  (1523) 
3

>  <lipinski_rule_of_five_violations>  (1523) 
0

>  <aromatic_rings_count>  (1523) 
2

>  <qed_drug_likeliness>  (1523) 
0.64

>  <formal_charge>  (1523) 
0

>  <fractioncsp3>  (1523) 
0.19

>  <number_of_minimal_rings>  (1523) 
4

>  <van_der_walls_volume>  (1523) 
nan

>  <contains_sugar>  (1523) 
False

>  <contains_ring_sugars>  (1523) 
False

>  <contains_linear_sugars>  (1523) 
False

>  <murcko_framework>  (1523) 
O1c2ccccc2CC3OCc4ccccc4C13

>  <np_likeness>  (1523) 
1.91

>  <chemical_class>  (1523) 
Flavonoids

>  <chemical_sub_class>  (1523) 
Pyranoflavonoids

>  <chemical_super_class>  (1523) 
Phenylpropanoids and polyketides

>  <direct_parent_classification>  (1523) 
Pyranoflavonoids

>  <np_classifier_pathway>  (1523) 
Shikimates and Phenylpropanoids

>  <np_classifier_superclass>  (1523) 
Flavonoids

>  <np_classifier_class>  (1523) 
nan

>  <np_classifier_is_glycoside>  (1523) 
False

>  <organisms>  (1523) 
Acacia peuce|Goniorrhachis marginata

>  <collections>  (1523) 
Australian natural products|Latin America dataset|NPEdia|NuBBEDB|Super Natural II|WikiData Natural Products

>  <dois>  (1523) 
10.1016/S0031-9422(00)86522-X|10.1016/s0031-9422(00)91147-6

>  <synonyms>  (1523) 
(6aR12aR)-2310-Trihydroxy-612-dioxabenz(a)anthracen-7(5H6aH12aH)-one|Peltogynone

>  <cas>  (1523) 
nan

$$$$

     RDKit          2D

 39 45  0  0  0  0  0  0  0  0999 V2000
    2.4095   -3.7460    0.0000 C   0  0  0  0  0  0  0  0  0  0  0  0
    1.1059   -3.0039    0.0000 C   0  0  0  0  0  0  0  0  0  0  0  0
   -0.1885   -3.7619    0.0000 O   0  0  0  0  0  0  0  0  0  0  0  0
    1.0967   -1.5039    0.0000 O   0  0  0  0  0  0  0  0  0  0  0  0
   -0.2069   -0.7619    0.0000 C   0  0  0  0  0  0  0  0  0  0  0  0
   -1.2861   -1.8037    0.0000 C   0  0  0  0  0  0  0  0  0  0  0  0
   -1.7680   -3.2241    0.0000 O   0  0  0  0  0  0  0  0  0  0  0  0
   -2.7572   -2.0965    0.0000 C   0  0  0  0  0  0  0  0  0  0  0  0
   -4.1532   -1.5476    0.0000 C   0  0  0  0  0  0  0  0  0  0  0  0
   -5.5898   -1.9790    0.0000 C   0  0  0  0  0  0  0  0  0  0  0  0
   -4.2154   -3.0463    0.0000 O   0  0  0  0  0  0  0  0  0  0  0  0
   -5.0307   -0.3311    0.0000 C   0  0  0  0  0  0  0  0  0  0  0  0
   -6.4452   -0.8303    0.0000 O   0  0  0  0  0  0  0  0  0  0  0  0
   -5.1113    1.1668    0.0000 C   0  0  0  0  0  0  0  0  0  0  0  0
   -6.5711    1.5115    0.0000 C   0  0  0  0  0  0  0  0  0  0  0  0
   -4.3692    2.4704    0.0000 C   0  0  0  0  0  0  0  0  0  0  0  0
   -3.0402    3.1659    0.0000 C   0  0  0  0  0  0  0  0  0  0  0  0
   -2.1776    4.3930    0.0000 O   0  0  0  0  0  0  0  0  0  0  0  0
   -1.5461    3.0324    0.0000 C   0  0  0  0  0  0  0  0  0  0  0  0
   -0.3614    2.1124    0.0000 C   0  0  0  0  0  0  0  0  0  0  0  0
    0.6139    3.2520    0.0000 C   0  0  0  0  0  0  0  0  0  0  0  0
    1.5893    4.3916    0.0000 O   0  0  0  0  0  0  0  0  0  0  0  0
    2.0885    2.9772    0.0000 C   0  0  0  0  0  0  0  0  0  0  0  0
    0.6740    2.4779    0.0000 C   0  0  0  0  0  0  0  0  0  0  0  0
    2.5878    1.5627    0.0000 C   0  0  0  0  0  0  0  0  0  0  0  0
    4.0624    1.2878    0.0000 C   0  0  0  0  0  0  0  0  0  0  0  0
    1.6124    0.4231    0.0000 C   0  0  0  0  0  0  0  0  0  0  0  0
    1.8067   -1.0643    0.0000 C   0  0  0  0  0  0  0  0  0  0  0  0
    3.1242   -1.7814    0.0000 C   0  0  0  0  0  0  0  0  0  0  0  0
    4.4040   -0.9989    0.0000 C   0  0  0  0  0  0  0  0  0  0  0  0
    4.3662    0.5006    0.0000 C   0  0  0  0  0  0  0  0  0  0  0  0
    5.6460    1.2830    0.0000 C   0  0  0  0  0  0  0  0  0  0  0  0
    6.9635    0.5660    0.0000 C   0  0  0  0  0  0  0  0  0  0  0  0
    7.0012   -0.9336    0.0000 C   0  0  0  0  0  0  0  0  0  0  0  0
    5.7215   -1.7160    0.0000 C   0  0  0  0  0  0  0  0  0  0  0  0
    0.4522   -1.7087    0.0000 N   0  0  0  0  0  0  0  0  0  0  0  0
   -0.5792   -0.6196    0.0000 C   0  0  0  0  0  0  0  0  0  0  0  0
   -2.0666   -0.8138    0.0000 O   0  0  0  0  0  0  0  0  0  0  0  0
    0.1378    0.6979    0.0000 C   0  0  0  0  0  0  0  0  0  0  0  0
  1  2  1  0
  2  3  2  0
  2  4  1  0
  5  4  1  6
  5  6  1  0
  6  7  1  6
  8  7  1  1
  8  9  1  0
  9 10  1  6
  9 11  1  0
  9 12  1  0
 12 13  2  0
 12 14  1  0
 14 15  1  1
 14 16  1  0
 17 16  1  6
 17 18  1  0
 19 18  1  1
 19 20  1  0
 20 21  1  0
 21 22  1  6
 22 23  1  0
 23 24  1  1
 23 25  1  0
 25 26  1  1
 25 27  1  0
 27 28  1  0
 28 29  1  6
 29 30  1  0
 30 31  2  0
 31 32  1  0
 32 33  2  0
 33 34  1  0
 34 35  2  0
 28 36  1  0
 36 37  1  0
 37 38  2  0
 37 39  1  0
 39  5  1  0
  8  6  1  0
 19 17  1  0
 20 39  1  1
 23 21  1  0
 27 39  1  1
 35 30  1  0
M  END
>  <identifier>  (1524) 
CNP0127202.1

>  <canonical_smiles>  (1524) 
CC(=O)O[C@@H]1[C@@H]2O[C@H]2[C@@](C)(O)C(=O)[C@@H](C)C[C@@H]2O[C@H]2[C@H]2[C@@H]3O[C@]3(C)[C@@H](C)[C@H]3[C@H](CC4=CC=CC=C4)NC(=O)C321

>  <standard_inchi>  (1524) 
InChI=1S/C30H37NO8/c1-13-11-18-21(37-18)20-24-29(5,39-24)14(2)19-17(12-16-9-7-6-8-10-16)31-27(34)30(19,20)26(36-15(3)32)22-25(38-22)28(4,35)23(13)33/h6-10,13-14,17-22,24-26,35H,11-12H2,1-5H3,(H,31,34)/t13-,14-,17-,18-,19-,20-,21+,22+,24-,25+,26+,28-,29+,30?/m0/s1

>  <standard_inchi_key>  (1524) 
DMPLSVXMELJNKE-QOIHODEFSA-N

>  <name>  (1524) 
1920-Epoxycytochalasin R

>  <iupac_name>  (1524) 
[(2~{S},3~{S},5~{R},6~{R},8~{S},10~{S},12~{S},13~{S},14~{S},16~{R},17~{S},18~{R},19~{S})-19-benzyl-6-hydroxy-6,8,16,17-tetramethyl-7,21-dioxo-4,11,15-trioxa-20-azahexacyclo[11.8.0.0^{1,18}.0^{3,5}.0^{10,12}.0^{14,16}]henicosan-2-yl] acetate

>  <annotation_level>  (1524) 
5

>  <total_atom_count>  (1524) 
76

>  <heavy_atom_count>  (1524) 
39

>  <molecular_weight>  (1524) 
539.63

>  <exact_molecular_weight>  (1524) 
539.25192

>  <molecular_formula>  (1524) 
C30H37NO8

>  <alogp>  (1524) 
1.58

>  <topological_polar_surface_area>  (1524) 
130.29

>  <rotatable_bond_count>  (1524) 
3

>  <hydrogen_bond_acceptors>  (1524) 
8

>  <hydrogen_bond_donors>  (1524) 
2

>  <hydrogen_bond_acceptors_lipinski>  (1524) 
8

>  <hydrogen_bond_donors_lipinski>  (1524) 
2

>  <lipinski_rule_of_five_violations>  (1524) 
1

>  <aromatic_rings_count>  (1524) 
1

>  <qed_drug_likeliness>  (1524) 
0.44

>  <formal_charge>  (1524) 
0

>  <fractioncsp3>  (1524) 
0.70

>  <number_of_minimal_rings>  (1524) 
7

>  <van_der_walls_volume>  (1524) 
nan

>  <contains_sugar>  (1524) 
False

>  <contains_ring_sugars>  (1524) 
False

>  <contains_linear_sugars>  (1524) 
False

>  <murcko_framework>  (1524) 
O1C2CCCCC3OC3C4C5OC5CC6C(NCC64CC12)Cc7ccccc7

>  <np_likeness>  (1524) 
2.63

>  <chemical_class>  (1524) 
Isoindoles and derivatives

>  <chemical_sub_class>  (1524) 
Isoindolines

>  <chemical_super_class>  (1524) 
Organoheterocyclic compounds

>  <direct_parent_classification>  (1524) 
Isoindolones

>  <np_classifier_pathway>  (1524) 
Alkaloids

>  <np_classifier_superclass>  (1524) 
Pseudoalkaloids

>  <np_classifier_class>  (1524) 
Cytochalasan alkaloids

>  <np_classifier_is_glycoside>  (1524) 
False

>  <organisms>  (1524) 
Xylaria|Xylaria sp.

>  <collections>  (1524) 
Latin America dataset|NuBBEDB|WikiData Natural Products

>  <dois>  (1524) 
10.1590/S0100-40422010001000006

>  <synonyms>  (1524) 
1920-Epoxycytochalasin R

>  <cas>  (1524) 
nan

$$$$

     RDKit          2D

  8  7  0  0  0  0  0  0  0  0999 V2000
   -4.5553   -0.2480    0.0000 C   0  0  0  0  0  0  0  0  0  0  0  0
   -3.2359    0.4655    0.0000 C   0  0  0  0  0  0  0  0  0  0  0  0
   -1.9583   -0.3205    0.0000 C   0  0  0  0  0  0  0  0  0  0  0  0
   -0.6388    0.3930    0.0000 C   0  0  0  0  0  0  0  0  0  0  0  0
    0.6388   -0.3930    0.0000 C   0  0  0  0  0  0  0  0  0  0  0  0
    1.9583    0.3205    0.0000 C   0  0  0  0  0  0  0  0  0  0  0  0
    3.2359   -0.4655    0.0000 C   0  0  0  0  0  0  0  0  0  0  0  0
    4.5553    0.2480    0.0000 C   0  0  0  0  0  0  0  0  0  0  0  0
  1  2  1  0
  2  3  1  0
  3  4  1  0
  4  5  1  0
  5  6  1  0
  6  7  1  0
  7  8  1  0
M  END
>  <identifier>  (1525) 
CNP0286567.0

>  <canonical_smiles>  (1525) 
CCCCCCCC

>  <standard_inchi>  (1525) 
InChI=1S/C8H18/c1-3-5-7-8-6-4-2/h3-8H2,1-2H3

>  <standard_inchi_key>  (1525) 
TVMXDCGIABBOFY-UHFFFAOYSA-N

>  <name>  (1525) 
octane

>  <iupac_name>  (1525) 
octane

>  <annotation_level>  (1525) 
5

>  <total_atom_count>  (1525) 
26

>  <heavy_atom_count>  (1525) 
8

>  <molecular_weight>  (1525) 
114.23

>  <exact_molecular_weight>  (1525) 
114.14085

>  <molecular_formula>  (1525) 
C8H18

>  <alogp>  (1525) 
3.37

>  <topological_polar_surface_area>  (1525) 
0.00

>  <rotatable_bond_count>  (1525) 
5

>  <hydrogen_bond_acceptors>  (1525) 
0

>  <hydrogen_bond_donors>  (1525) 
0

>  <hydrogen_bond_acceptors_lipinski>  (1525) 
0

>  <hydrogen_bond_donors_lipinski>  (1525) 
0

>  <lipinski_rule_of_five_violations>  (1525) 
0

>  <aromatic_rings_count>  (1525) 
0

>  <qed_drug_likeliness>  (1525) 
0.48

>  <formal_charge>  (1525) 
0

>  <fractioncsp3>  (1525) 
1.00

>  <number_of_minimal_rings>  (1525) 
0

>  <van_der_walls_volume>  (1525) 
145.15

>  <contains_sugar>  (1525) 
False

>  <contains_ring_sugars>  (1525) 
False

>  <contains_linear_sugars>  (1525) 
False

>  <murcko_framework>  (1525) 
nan

>  <np_likeness>  (1525) 
0.31

>  <chemical_class>  (1525) 
Saturated hydrocarbons

>  <chemical_sub_class>  (1525) 
Alkanes

>  <chemical_super_class>  (1525) 
Hydrocarbons

>  <direct_parent_classification>  (1525) 
Alkanes

>  <np_classifier_pathway>  (1525) 
Fatty acids

>  <np_classifier_superclass>  (1525) 
Fatty acyls

>  <np_classifier_class>  (1525) 
Hydrocarbons

>  <np_classifier_is_glycoside>  (1525) 
False

>  <organisms>  (1525) 
Acacia dealbata|Ageratum conyzoides|Aguacate|Alkanna cappadocica|Angelica Pubescens|Angelica acutiloba|Angelica gigas|Angelica pubescens|Angelica pubescens f.biserrata|Angelica sinensis|Artemisia dentata|Aster scaber|Atalantia racemosa|Athanasia linifolia|Buddleja cordata|Buphane fischeri|Castanopsis cuspidata|Chrysanthemum macrocarpum|Chrysopogon zizanioides|Citrus reticulata|Crambe tatarica|Diospyros eriantha|Elaeis guineensis|Fragaria|Fragaria x ananassa|Fritillaria ningguoensis|Fructus hippophae|Garcinia mangostana|Hamamelis virginiana|Hansenia forbesii|Hoffmannia strigillosa|Homo sapiens|Homo sapiens (Exhaled breath)|Humulus lupulus|Hypericum perforatum|Juniperus rigida var. conferta|Lemaireocereus griseus|Lycopersicon Esculentum|Lycopersicon esculentum Mill.|Mangifera indica|Manilkara zapota|Millettia erythrocalyx|Mycobacterium leprae|Negombata magnifica|Nepeta racemosa|Notopterygium forbesii|Oenanthe aquatica|Olea Europaea|Olea europaea|Ononis vaginalis|Oryza sativa|Panax ginseng|Prorocentrum micans|Psidium guajava|Pteris semipinnata|Rapanea lancifolia|Salvia hispanica|Saposhnikovia divaricata|Scorzonera pseudodivaricata|Sideritis dichotoma|Stellera chamaejasme|Syncarpia hillii|Tanacetum longifolium|Teucrium polium subsp. polium|Thymus longicaulis|Xenoacremonium recifei|Zingiber Officinale|Zingiber officinale|giraffe

>  <collections>  (1525) 
ANPDB|Australian natural products|CMAUP (cCollective molecular activities of useful plants)|ETM (Ethiopian Traditional Medicine) DB|FooDB|KNApSaCK|Latin America dataset|NANPDB (Natural Products from Northern African Sources)|NPASS|NuBBEDB|Phyto4Health|Super Natural II|TCMDB-Taiwan (Traditional Chinese Medicine database)|TCMID (Traditional Chinese Medicine Integrated Database)|TIPdb (database of Taiwan indigenous plants)|UNPD (Universal Natural Products Database)|VietHerb|WikiData Natural Products

>  <dois>  (1525) 
10.1006/JFCA.1999.0841|10.1007/s10600-009-9209-1|10.1007/s10886-014-0498-x|10.1016/0031-9422(82)80025-3|10.1016/0031-9422(82)80138-6|10.1016/J.RENENE.2017.12.012|10.1016/S0031-9422(00)86412-2|10.1016/S0031-9422(02)00396-5|10.1016/S0031-9422(97)00730-9|10.1016/S0305-1978(02)00037-6|10.1016/j.cgh.2013.02.015|10.1021/JF00019A020|10.1021/JF00034A033|10.1021/JF00111A026|10.1021/JF00120A031|10.1021/JF60224A025|10.1021/JF9911850|10.1021/jf00120a031|10.1055/S-0028-1097637|10.1055/S-2006-957420|10.1080/10286020290028992|10.1080/10412905.1992.9698149|10.1080/10412905.1993.9698184|10.1080/10412905.1993.9698205|10.1080/10412905.1994.9698359|10.1088/1752-7155/8/1/014001|10.1248/CPB.30.4518|10.1515/ZNB-1992-0324|10.7235/HORT.2013.12200

>  <synonyms>  (1525) 
111-65-9|31372-91-5|9065-92-3|AI3-28789|AKOS015904009|C01387|CAS-111-65-9|CH3-(CH2)6-CH3|CH3-[CH2]6-CH3|CHEBI:17590|CHEMBL134886|DTXCID406882|DTXSID0026882|EC 203-892-1|EEE64B73-0375-4303-AFD5-0795361807FF|EINECS 203-892-1|F0001-0244|HSDB 108|Heptane, methyl-|InChI=1\/C8H18\/c1-3-5-7-8-6-4-2\/h3-8H2,1-2H|J-002613|LMFA11000002|LS-13532|MFCD00009556|MG8|N-OCTANE [HSDB]|NCGC00249228-01|NCGC00260001-01|NS00006444|NSC 9822|NSC-9822|Normal octane|O0022|O0118|O0151|OCTANE [INCI]|OCTANE [MI]|OTTANE|Octane, all isomers|Octane, analytical standard|Octane, anhydrous, >=99%|Octane, electronic grade, >=99.999% metals basis, >=99% (CP)|Octane, p.a., 99.0%|Octane, puriss. p.a., >=99.0% (GC)|Octane, reagent grade, 98%|Octane; NSC 9822; n-Octane|Octanes|Octil|Oktan|Oktan [Polish]|Oktanen|Oktanen [Dutch]|Ottani|Ottani [Italian]|Q150681|Tox21_202452|UNII-X1RV0B2FJV|WLN: 8H|X1RV0B2FJV|bmse000480|c0044|n-C8H18|n-Oktan|n-octane|normal-Octane|octane|octano

>  <cas>  (1525) 
111-65-9|31372-91-5|9065-92-3

$$$$

     RDKit          2D

 21 21  0  0  0  0  0  0  0  0999 V2000
    8.5640   -1.4723    0.0000 C   0  0  0  0  0  0  0  0  0  0  0  0
    7.3359   -0.6111    0.0000 C   0  0  0  0  0  0  0  0  0  0  0  0
    5.9760   -1.2441    0.0000 N   0  0  0  0  0  0  0  0  0  0  0  0
    4.7479   -0.3829    0.0000 C   0  0  0  0  0  0  0  0  0  0  0  0
    3.3880   -1.0158    0.0000 C   0  0  0  0  0  0  0  0  0  0  0  0
    2.1598   -0.1546    0.0000 C   0  0  0  0  0  0  0  0  0  0  0  0
    0.7999   -0.7876    0.0000 C   0  0  0  0  0  0  0  0  0  0  0  0
   -0.4282    0.0736    0.0000 C   0  0  0  0  0  0  0  0  0  0  0  0
   -1.7881   -0.5594    0.0000 C   0  0  0  0  0  0  0  0  0  0  0  0
   -3.0162    0.3018    0.0000 C   0  0  0  0  0  0  0  0  0  0  0  0
   -4.3761   -0.3311    0.0000 C   0  0  0  0  0  0  0  0  0  0  0  0
   -5.6043    0.5301    0.0000 C   0  0  0  0  0  0  0  0  0  0  0  0
   -6.9642   -0.1029    0.0000 C   0  0  0  0  0  0  0  0  0  0  0  0
   -8.1923    0.7583    0.0000 C   0  0  0  0  0  0  0  0  0  0  0  0
   -9.5522    0.1253    0.0000 C   0  0  0  0  0  0  0  0  0  0  0  0
   -9.6840   -1.3689    0.0000 O   0  0  0  0  0  0  0  0  0  0  0  0
  -10.7803    0.9865    0.0000 O   0  0  0  0  0  0  0  0  0  0  0  0
    4.8796    1.1113    0.0000 C   0  0  0  0  0  0  0  0  0  0  0  0
    6.2395    1.7443    0.0000 C   0  0  0  0  0  0  0  0  0  0  0  0
    7.4677    0.8831    0.0000 C   0  0  0  0  0  0  0  0  0  0  0  0
    8.8276    1.5161    0.0000 O   0  0  0  0  0  0  0  0  0  0  0  0
  2  1  1  1
  2  3  1  0
  3  4  1  0
  4  5  1  6
  5  6  1  0
  6  7  1  0
  7  8  1  0
  8  9  1  0
  9 10  1  0
 10 11  1  0
 11 12  1  0
 12 13  1  0
 13 14  1  0
 14 15  1  0
 15 16  2  0
 15 17  1  0
  4 18  1  0
 18 19  1  0
 19 20  1  0
 20 21  1  1
 20  2  1  0
M  END
>  <identifier>  (1526) 
CNP0224278.1

>  <canonical_smiles>  (1526) 
C[C@H]1N[C@H](CCCCCCCCCCC(=O)O)CC[C@H]1O

>  <standard_inchi>  (1526) 
InChI=1S/C17H33NO3/c1-14-16(19)13-12-15(18-14)10-8-6-4-2-3-5-7-9-11-17(20)21/h14-16,18-19H,2-13H2,1H3,(H,20,21)/t14-,15-,16-/m1/s1

>  <standard_inchi_key>  (1526) 
YJNIEBKZPPLHIW-BZUAXINKSA-N

>  <name>  (1526) 
165689-19-0

>  <iupac_name>  (1526) 
11-[(2~{R},5~{R},6~{R})-5-hydroxy-6-methyl-2-piperidyl]undecanoic acid

>  <annotation_level>  (1526) 
5

>  <total_atom_count>  (1526) 
54

>  <heavy_atom_count>  (1526) 
21

>  <molecular_weight>  (1526) 
299.45

>  <exact_molecular_weight>  (1526) 
299.24604

>  <molecular_formula>  (1526) 
C17H33NO3

>  <alogp>  (1526) 
3.47

>  <topological_polar_surface_area>  (1526) 
69.56

>  <rotatable_bond_count>  (1526) 
11

>  <hydrogen_bond_acceptors>  (1526) 
3

>  <hydrogen_bond_donors>  (1526) 
3

>  <hydrogen_bond_acceptors_lipinski>  (1526) 
3

>  <hydrogen_bond_donors_lipinski>  (1526) 
3

>  <lipinski_rule_of_five_violations>  (1526) 
0

>  <aromatic_rings_count>  (1526) 
0

>  <qed_drug_likeliness>  (1526) 
0.51

>  <formal_charge>  (1526) 
0

>  <fractioncsp3>  (1526) 
0.94

>  <number_of_minimal_rings>  (1526) 
1

>  <van_der_walls_volume>  (1526) 
314.46

>  <contains_sugar>  (1526) 
False

>  <contains_ring_sugars>  (1526) 
False

>  <contains_linear_sugars>  (1526) 
False

>  <murcko_framework>  (1526) 
N1CCCCC1

>  <np_likeness>  (1526) 
1.89

>  <chemical_class>  (1526) 
nan

>  <chemical_sub_class>  (1526) 
Alkaloids and derivatives

>  <chemical_super_class>  (1526) 
Alkaloids and derivatives

>  <direct_parent_classification>  (1526) 
Alkaloids and derivatives

>  <np_classifier_pathway>  (1526) 
Alkaloids

>  <np_classifier_superclass>  (1526) 
Lysine alkaloids

>  <np_classifier_class>  (1526) 
Piperidine alkaloids

>  <np_classifier_is_glycoside>  (1526) 
False

>  <organisms>  (1526) 
Cassia leptophylla

>  <collections>  (1526) 
ChemSpider NPs|Latin America dataset|NPEdia|NuBBEDB|Super Natural II|WikiData Natural Products|ZINC NP

>  <dois>  (1526) 
10.1016/0040-4020(95)00254-6

>  <synonyms>  (1526) 
2-Piperidineundecanoicacid, 5-hydroxy-6-methyl-, (2R,5R,6R)-|DTXSID20440126|Leptophyllin B

>  <cas>  (1526) 
nan

$$$$

     RDKit          2D

 41 45  0  0  0  0  0  0  0  0999 V2000
   -0.3050   -4.6402    0.0000 O   0  0  0  0  0  0  0  0  0  0  0  0
   -0.8271   -3.2340    0.0000 C   0  0  0  0  0  0  0  0  0  0  0  0
   -2.3059   -2.9831    0.0000 C   0  0  0  0  0  0  0  0  0  0  0  0
   -2.8281   -1.5769    0.0000 C   0  0  0  0  0  0  0  0  0  0  0  0
   -4.3069   -1.3259    0.0000 C   0  0  0  0  0  0  0  0  0  0  0  0
   -4.8290    0.0803    0.0000 C   0  0  0  0  0  0  0  0  0  0  0  0
   -6.3079    0.3312    0.0000 C   0  0  0  0  0  0  0  0  0  0  0  0
   -7.2646   -0.8240    0.0000 C   0  0  0  0  0  0  0  0  0  0  0  0
   -8.7435   -0.5731    0.0000 O   0  0  0  0  0  0  0  0  0  0  0  0
   -6.7425   -2.2302    0.0000 C   0  0  0  0  0  0  0  0  0  0  0  0
   -7.6993   -3.3855    0.0000 O   0  0  0  0  0  0  0  0  0  0  0  0
   -5.2637   -2.4812    0.0000 C   0  0  0  0  0  0  0  0  0  0  0  0
   -1.8713   -0.4216    0.0000 O   0  0  0  0  0  0  0  0  0  0  0  0
   -0.3924   -0.6726    0.0000 C   0  0  0  0  0  0  0  0  0  0  0  0
    0.5643    0.4827    0.0000 C   0  0  0  0  0  0  0  0  0  0  0  0
    0.0422    1.8889    0.0000 C   0  0  0  0  0  0  0  0  0  0  0  0
    0.9990    3.0442    0.0000 O   0  0  0  0  0  0  0  0  0  0  0  0
    0.4769    4.4504    0.0000 C   0  0  0  0  0  0  0  0  0  0  0  0
    1.4336    5.6056    0.0000 C   0  0  0  0  0  0  0  0  0  0  0  0
    2.9125    5.3547    0.0000 O   0  0  0  0  0  0  0  0  0  0  0  0
   -1.0020    4.7013    0.0000 C   0  0  0  0  0  0  0  0  0  0  0  0
   -1.5241    6.1075    0.0000 O   0  0  0  0  0  0  0  0  0  0  0  0
   -1.9588    3.5461    0.0000 C   0  0  0  0  0  0  0  0  0  0  0  0
   -3.4376    3.7970    0.0000 O   0  0  0  0  0  0  0  0  0  0  0  0
   -1.4366    2.1399    0.0000 C   0  0  0  0  0  0  0  0  0  0  0  0
   -2.3934    0.9846    0.0000 O   0  0  0  0  0  0  0  0  0  0  0  0
    2.0432    0.2318    0.0000 C   0  0  0  0  0  0  0  0  0  0  0  0
    2.9999    1.3870    0.0000 O   0  0  0  0  0  0  0  0  0  0  0  0
    2.5653   -1.1744    0.0000 C   0  0  0  0  0  0  0  0  0  0  0  0
    4.0441   -1.4254    0.0000 C   0  0  0  0  0  0  0  0  0  0  0  0
    4.5662   -2.8316    0.0000 O   0  0  0  0  0  0  0  0  0  0  0  0
    6.0451   -3.0825    0.0000 C   0  0  0  0  0  0  0  0  0  0  0  0
    7.0019   -1.9273    0.0000 C   0  0  0  0  0  0  0  0  0  0  0  0
    8.4807   -2.1782    0.0000 O   0  0  0  0  0  0  0  0  0  0  0  0
    6.4798   -0.5211    0.0000 C   0  0  0  0  0  0  0  0  0  0  0  0
    7.4365    0.6342    0.0000 O   0  0  0  0  0  0  0  0  0  0  0  0
    5.0009   -0.2701    0.0000 C   0  0  0  0  0  0  0  0  0  0  0  0
    4.4788    1.1361    0.0000 O   0  0  0  0  0  0  0  0  0  0  0  0
    1.6085   -2.3297    0.0000 C   0  0  0  0  0  0  0  0  0  0  0  0
    2.1306   -3.7359    0.0000 O   0  0  0  0  0  0  0  0  0  0  0  0
    0.1297   -2.0788    0.0000 C   0  0  0  0  0  0  0  0  0  0  0  0
  1  2  2  0
  2  3  1  0
  3  4  2  0
  4  5  1  0
  5  6  2  0
  6  7  1  0
  7  8  2  0
  8  9  1  0
  8 10  1  0
 10 11  1  0
 10 12  2  0
  4 13  1  0
 13 14  1  0
 14 15  2  0
 16 15  1  1
 16 17  1  0
 17 18  1  0
 18 19  1  1
 19 20  1  0
 18 21  1  0
 21 22  1  6
 21 23  1  0
 23 24  1  1
 23 25  1  0
 25 26  1  6
 15 27  1  0
 27 28  1  0
 27 29  2  0
 30 29  1  1
 30 31  1  0
 31 32  1  0
 32 33  1  0
 33 34  1  1
 33 35  1  0
 35 36  1  1
 35 37  1  0
 37 38  1  6
 29 39  1  0
 39 40  1  0
 39 41  2  0
 41  2  1  0
 12  5  1  0
 41 14  1  0
 25 16  1  0
 37 30  1  0
M  END
>  <identifier>  (1527) 
CNP0184845.4

>  <canonical_smiles>  (1527) 
O=C1C=C(C2=CC=C(O)C(O)=C2)OC2=C([C@@H]3O[C@H](CO)[C@@H](O)[C@H](O)[C@H]3O)C(O)=C([C@@H]3OC[C@H](O)[C@H](O)[C@H]3O)C(O)=C12

>  <standard_inchi>  (1527) 
InChI=1S/C26H28O15/c27-5-13-18(33)21(36)23(38)26(41-13)16-20(35)15(25-22(37)17(32)11(31)6-39-25)19(34)14-10(30)4-12(40-24(14)16)7-1-2-8(28)9(29)3-7/h1-4,11,13,17-18,21-23,25-29,31-38H,5-6H2/t11-,13+,17-,18+,21-,22+,23+,25-,26-/m0/s1

>  <standard_inchi_key>  (1527) 
WYYFCTVKFALPQV-VYUBKLCTSA-N

>  <name>  (1527) 
Isocarlinoside

>  <iupac_name>  (1527) 
2-(3,4-dihydroxyphenyl)-5,7-dihydroxy-8-[(2~{S},3~{R},4~{R},5~{S},6~{R})-3,4,5-trihydroxy-6-(hydroxymethyl)tetrahydropyran-2-yl]-6-[(2~{S},3~{R},4~{S},5~{S})-3,4,5-trihydroxytetrahydropyran-2-yl]chromen-4-one

>  <annotation_level>  (1527) 
5

>  <total_atom_count>  (1527) 
69

>  <heavy_atom_count>  (1527) 
41

>  <molecular_weight>  (1527) 
580.5

>  <exact_molecular_weight>  (1527) 
580.14282

>  <molecular_formula>  (1527) 
C26H28O15

>  <alogp>  (1527) 
-2.05

>  <topological_polar_surface_area>  (1527) 
271.20

>  <rotatable_bond_count>  (1527) 
4

>  <hydrogen_bond_acceptors>  (1527) 
15

>  <hydrogen_bond_donors>  (1527) 
11

>  <hydrogen_bond_acceptors_lipinski>  (1527) 
15

>  <hydrogen_bond_donors_lipinski>  (1527) 
11

>  <lipinski_rule_of_five_violations>  (1527) 
3

>  <aromatic_rings_count>  (1527) 
3

>  <qed_drug_likeliness>  (1527) 
0.15

>  <formal_charge>  (1527) 
0

>  <fractioncsp3>  (1527) 
0.42

>  <number_of_minimal_rings>  (1527) 
5

>  <van_der_walls_volume>  (1527) 
nan

>  <contains_sugar>  (1527) 
True

>  <contains_ring_sugars>  (1527) 
True

>  <contains_linear_sugars>  (1527) 
False

>  <murcko_framework>  (1527) 
O1C(=CCc2cc(cc(c12)C3OCCCC3)C4OCCCC4)c5ccccc5

>  <np_likeness>  (1527) 
2.02

>  <chemical_class>  (1527) 
Flavonoids

>  <chemical_sub_class>  (1527) 
Flavonoid glycosides

>  <chemical_super_class>  (1527) 
Phenylpropanoids and polyketides

>  <direct_parent_classification>  (1527) 
Flavonoid 8-C-glycosides

>  <np_classifier_pathway>  (1527) 
Shikimates and Phenylpropanoids

>  <np_classifier_superclass>  (1527) 
Flavonoids

>  <np_classifier_class>  (1527) 
Flavones

>  <np_classifier_is_glycoside>  (1527) 
False

>  <organisms>  (1527) 
Lespedeza capitata|Vitex polygama|soybean

>  <collections>  (1527) 
Latin America dataset|NuBBEDB|Super Natural II|WikiData Natural Products

>  <dois>  (1527) 
10.1002/ps.1278|10.1016/0031-9422(82)83197-X|10.1016/J.JEP.2007.09.020|10.1016/S0031-9422(00)82629-1

>  <synonyms>  (1527) 
2-(3,4-dihydroxyphenyl)-5,7-dihydroxy-8-[(2S,3R,4R,5S,6R)-3,4,5-trihydroxy-6-(hydroxymethyl)oxan-2-yl]-6-[(2S,3R,4S,5S)-3,4,5-trihydroxyoxan-2-yl]chromen-4-one|2-(3,4-dihydroxyphenyl)-5,7-dihydroxy-8-[(2S,3R,4R,5S,6R)-3,4,5-trihydroxy-6-(hydroxymethyl)tetrahydro-2H-pyran-2-yl]-6-[(2S,3R,4S,5S)-3,4,5-trihydroxytetrahydro-2H-pyran-2-yl]-4H-chromen-4-one|6-C-alpha-L-arabinopyranosyl-8-C-beta-D-glucosylluteolin|83151-90-0|AKOS040761874|CHEBI:75566|CS-0149100|DTXSID001317456|HY-N8803|Isocarlinoside|Q27145399|luteolin 6-C-arabinoside 8-C-glucoside|luteolin 6-C-beta-arabinoside 8-C-beta-glucoside

>  <cas>  (1527) 
83151-90-0

$$$$

     RDKit          2D

 23 25  0  0  0  0  0  0  0  0999 V2000
   -4.7278    2.4110    0.0000 C   0  0  0  0  0  0  0  0  0  0  0  0
   -4.8004    0.9128    0.0000 C   0  0  0  0  0  0  0  0  0  0  0  0
   -3.5392    0.1008    0.0000 C   0  0  0  0  0  0  0  0  0  0  0  0
   -4.5578   -1.0003    0.0000 C   0  0  0  0  0  0  0  0  0  0  0  0
   -2.9585    1.4839    0.0000 C   0  0  0  0  0  0  0  0  0  0  0  0
   -1.4704    1.6725    0.0000 C   0  0  0  0  0  0  0  0  0  0  0  0
   -0.5630    0.4782    0.0000 C   0  0  0  0  0  0  0  0  0  0  0  0
    0.9251    0.6668    0.0000 C   0  0  0  0  0  0  0  0  0  0  0  0
    0.0177    1.8612    0.0000 C   0  0  0  0  0  0  0  0  0  0  0  0
    1.5057    2.0499    0.0000 C   0  0  0  0  0  0  0  0  0  0  0  0
    2.9938    2.2386    0.0000 C   0  0  0  0  0  0  0  0  0  0  0  0
    3.9013    1.0442    0.0000 C   0  0  0  0  0  0  0  0  0  0  0  0
    5.3894    1.2329    0.0000 O   0  0  0  0  0  0  0  0  0  0  0  0
    3.3206   -0.3388    0.0000 C   0  0  0  0  0  0  0  0  0  0  0  0
    3.2481   -1.8371    0.0000 C   0  0  0  0  0  0  0  0  0  0  0  0
    4.7835   -0.6705    0.0000 C   0  0  0  0  0  0  0  0  0  0  0  0
    1.8326   -0.5275    0.0000 C   0  0  0  0  0  0  0  0  0  0  0  0
    1.2519   -1.9106    0.0000 C   0  0  0  0  0  0  0  0  0  0  0  0
   -0.2362   -2.0993    0.0000 C   0  0  0  0  0  0  0  0  0  0  0  0
   -0.8168   -3.4823    0.0000 O   0  0  0  0  0  0  0  0  0  0  0  0
   -1.1436   -0.9049    0.0000 C   0  0  0  0  0  0  0  0  0  0  0  0
   -1.7243   -2.2880    0.0000 O   0  0  0  0  0  0  0  0  0  0  0  0
   -2.6317   -1.0936    0.0000 C   0  0  0  0  0  0  0  0  0  0  0  0
  1  2  2  0
  2  3  1  0
  3  4  1  1
  3  5  1  0
  5  6  1  0
  6  7  1  0
  7  8  1  0
  8  9  1  1
  8 10  1  0
 10 11  1  0
 11 12  1  0
 12 13  2  0
 12 14  1  0
 14 15  1  0
 14 16  1  0
 14 17  1  0
 17 18  1  0
 18 19  1  0
 19 20  1  1
 19 21  1  0
 21 22  1  1
 21 23  1  0
 23  3  1  0
 21  7  1  0
 17  8  1  0
M  END
>  <identifier>  (1528) 
CNP0241419.1

>  <canonical_smiles>  (1528) 
C=C[C@]1(C)CCC2[C@]3(C)CCC(=O)C(C)(C)C3C[C@@H](O)[C@]2(O)C1

>  <standard_inchi>  (1528) 
InChI=1S/C20H32O3/c1-6-18(4)9-7-13-19(5)10-8-15(21)17(2,3)14(19)11-16(22)20(13,23)12-18/h6,13-14,16,22-23H,1,7-12H2,2-5H3/t13?,14?,16-,18-,19+,20+/m1/s1

>  <standard_inchi_key>  (1528) 
AWTRJROHUHRHRE-CHXJZZDUSA-N

>  <name>  (1528) 
nan

>  <iupac_name>  (1528) 
(4~{a}~{R},7~{R},8~{a}~{S},9~{R})-8~{a},9-dihydroxy-1,1,4~{a},7-tetramethyl-7-vinyl-4,4~{b},5,6,8,9,10,10~{a}-octahydro-3~{H}-phenanthren-2-one

>  <annotation_level>  (1528) 
4

>  <total_atom_count>  (1528) 
55

>  <heavy_atom_count>  (1528) 
23

>  <molecular_weight>  (1528) 
320.47

>  <exact_molecular_weight>  (1528) 
320.23514

>  <molecular_formula>  (1528) 
C20H32O3

>  <alogp>  (1528) 
3.49

>  <topological_polar_surface_area>  (1528) 
57.53

>  <rotatable_bond_count>  (1528) 
1

>  <hydrogen_bond_acceptors>  (1528) 
3

>  <hydrogen_bond_donors>  (1528) 
2

>  <hydrogen_bond_acceptors_lipinski>  (1528) 
3

>  <hydrogen_bond_donors_lipinski>  (1528) 
2

>  <lipinski_rule_of_five_violations>  (1528) 
0

>  <aromatic_rings_count>  (1528) 
0

>  <qed_drug_likeliness>  (1528) 
0.73

>  <formal_charge>  (1528) 
0

>  <fractioncsp3>  (1528) 
0.85

>  <number_of_minimal_rings>  (1528) 
3

>  <van_der_walls_volume>  (1528) 
nan

>  <contains_sugar>  (1528) 
False

>  <contains_ring_sugars>  (1528) 
False

>  <contains_linear_sugars>  (1528) 
False

>  <murcko_framework>  (1528) 
C1CCC2C(C1)CCC3CCCCC32

>  <np_likeness>  (1528) 
3.62

>  <chemical_class>  (1528) 
Prenol lipids

>  <chemical_sub_class>  (1528) 
Diterpenoids

>  <chemical_super_class>  (1528) 
Lipids and lipid-like molecules

>  <direct_parent_classification>  (1528) 
Diterpenoids

>  <np_classifier_pathway>  (1528) 
Terpenoids

>  <np_classifier_superclass>  (1528) 
Diterpenoids

>  <np_classifier_class>  (1528) 
Pimarane and Isopimarane diterpenoids

>  <np_classifier_is_glycoside>  (1528) 
False

>  <organisms>  (1528) 
Vellozia piresiana

>  <collections>  (1528) 
Latin America dataset|NuBBEDB

>  <dois>  (1528) 
10.1016/S0031-9422(00)80444-6

>  <synonyms>  (1528) 
7\u221a\u00e9\u00ac\u22648\u221a\u00e9\u00ac\u2264-Dihydroxy-3-oxopimar-15-ene

>  <cas>  (1528) 
nan

$$$$

     RDKit          2D

 24 26  0  0  0  0  0  0  0  0999 V2000
   -4.4998    3.4276    0.0000 C   0  0  0  0  0  0  0  0  0  0  0  0
   -4.7045    1.9416    0.0000 O   0  0  0  0  0  0  0  0  0  0  0  0
   -3.5200    1.0213    0.0000 C   0  0  0  0  0  0  0  0  0  0  0  0
   -2.1308    1.5870    0.0000 C   0  0  0  0  0  0  0  0  0  0  0  0
   -0.9463    0.6667    0.0000 C   0  0  0  0  0  0  0  0  0  0  0  0
   -1.1510   -0.8193    0.0000 C   0  0  0  0  0  0  0  0  0  0  0  0
   -2.5403   -1.3850    0.0000 C   0  0  0  0  0  0  0  0  0  0  0  0
   -2.7450   -2.8709    0.0000 O   0  0  0  0  0  0  0  0  0  0  0  0
   -3.7248   -0.4647    0.0000 C   0  0  0  0  0  0  0  0  0  0  0  0
   -5.1140   -1.0303    0.0000 O   0  0  0  0  0  0  0  0  0  0  0  0
   -6.2985   -0.1100    0.0000 C   0  0  0  0  0  0  0  0  0  0  0  0
    0.0335   -1.7396    0.0000 C   0  0  0  0  0  0  0  0  0  0  0  0
   -0.1713   -3.2256    0.0000 O   0  0  0  0  0  0  0  0  0  0  0  0
    1.4227   -1.1739    0.0000 C   0  0  0  0  0  0  0  0  0  0  0  0
    2.6072   -2.0942    0.0000 C   0  0  0  0  0  0  0  0  0  0  0  0
    3.9965   -1.5286    0.0000 C   0  0  0  0  0  0  0  0  0  0  0  0
    4.2013   -0.0426    0.0000 C   0  0  0  0  0  0  0  0  0  0  0  0
    5.5905    0.5230    0.0000 O   0  0  0  0  0  0  0  0  0  0  0  0
    6.7750   -0.3973    0.0000 C   0  0  0  0  0  0  0  0  0  0  0  0
    3.0168    0.8777    0.0000 C   0  0  0  0  0  0  0  0  0  0  0  0
    3.2215    2.3636    0.0000 O   0  0  0  0  0  0  0  0  0  0  0  0
    4.6108    2.9293    0.0000 C   0  0  0  0  0  0  0  0  0  0  0  0
    1.6275    0.3120    0.0000 C   0  0  0  0  0  0  0  0  0  0  0  0
    0.4430    1.2323    0.0000 N   0  0  0  0  0  0  0  0  0  0  0  0
  1  2  1  0
  2  3  1  0
  3  4  2  0
  4  5  1  0
  5  6  2  0
  6  7  1  0
  7  8  1  0
  7  9  2  0
  9 10  1  0
 10 11  1  0
  6 12  1  0
 12 13  2  0
 12 14  1  0
 14 15  2  0
 15 16  1  0
 16 17  2  0
 17 18  1  0
 18 19  1  0
 17 20  1  0
 20 21  1  0
 21 22  1  0
 20 23  2  0
 23 24  1  0
  9  3  1  0
 23 14  1  0
 24  5  1  0
M  END
>  <identifier>  (1529) 
CNP0080584.0

>  <canonical_smiles>  (1529) 
COC1=CC2=C(C(O)=C1OC)C(=O)C1=CC=C(OC)C(OC)=C1N2

>  <standard_inchi>  (1529) 
InChI=1S/C17H17NO6/c1-21-10-6-5-8-13(16(10)23-3)18-9-7-11(22-2)17(24-4)15(20)12(9)14(8)19/h5-7,20H,1-4H3,(H,18,19)

>  <standard_inchi_key>  (1529) 
AJRHMDUHBMQVJL-UHFFFAOYSA-N

>  <name>  (1529) 
Cuspanine

>  <iupac_name>  (1529) 
1-hydroxy-2,3,5,6-tetramethoxy-10~{H}-acridin-9-one

>  <annotation_level>  (1529) 
5

>  <total_atom_count>  (1529) 
41

>  <heavy_atom_count>  (1529) 
24

>  <molecular_weight>  (1529) 
331.32

>  <exact_molecular_weight>  (1529) 
331.10559

>  <molecular_formula>  (1529) 
C17H17NO6

>  <alogp>  (1529) 
2.42

>  <topological_polar_surface_area>  (1529) 
90.01

>  <rotatable_bond_count>  (1529) 
4

>  <hydrogen_bond_acceptors>  (1529) 
6

>  <hydrogen_bond_donors>  (1529) 
2

>  <hydrogen_bond_acceptors_lipinski>  (1529) 
6

>  <hydrogen_bond_donors_lipinski>  (1529) 
2

>  <lipinski_rule_of_five_violations>  (1529) 
0

>  <aromatic_rings_count>  (1529) 
3

>  <qed_drug_likeliness>  (1529) 
0.71

>  <formal_charge>  (1529) 
0

>  <fractioncsp3>  (1529) 
0.24

>  <number_of_minimal_rings>  (1529) 
3

>  <van_der_walls_volume>  (1529) 
nan

>  <contains_sugar>  (1529) 
False

>  <contains_ring_sugars>  (1529) 
False

>  <contains_linear_sugars>  (1529) 
False

>  <murcko_framework>  (1529) 
c1ccc2c(c1)Nc3ccccc3C2

>  <np_likeness>  (1529) 
0.86

>  <chemical_class>  (1529) 
Quinolines and derivatives

>  <chemical_sub_class>  (1529) 
Benzoquinolines

>  <chemical_super_class>  (1529) 
Organoheterocyclic compounds

>  <direct_parent_classification>  (1529) 
Acridones

>  <np_classifier_pathway>  (1529) 
Alkaloids

>  <np_classifier_superclass>  (1529) 
Anthranilic acid alkaloids

>  <np_classifier_class>  (1529) 
Acridone alkaloids

>  <np_classifier_is_glycoside>  (1529) 
False

>  <organisms>  (1529) 
Angostura paniculata|Conchocarpus paniculatus

>  <collections>  (1529) 
Latin America dataset|NPASS|NuBBEDB|WikiData Natural Products

>  <dois>  (1529) 
10.1021/NP50086A012|10.1021/np50086a012

>  <synonyms>  (1529) 
CHEMBL478767|Cuspanine, 1-hydroxy-2356-tetramethoxy-9-acridone

>  <cas>  (1529) 
nan

$$$$

     RDKit          2D

 27 30  0  0  0  0  0  0  0  0999 V2000
    8.0832   -1.5776    0.0000 C   0  0  0  0  0  0  0  0  0  0  0  0
    7.4796   -0.2044    0.0000 O   0  0  0  0  0  0  0  0  0  0  0  0
    5.9886   -0.0405    0.0000 C   0  0  0  0  0  0  0  0  0  0  0  0
    5.1012   -1.2498    0.0000 C   0  0  0  0  0  0  0  0  0  0  0  0
    3.6101   -1.0859    0.0000 C   0  0  0  0  0  0  0  0  0  0  0  0
    3.0066    0.2873    0.0000 C   0  0  0  0  0  0  0  0  0  0  0  0
    1.5156    0.4513    0.0000 C   0  0  0  0  0  0  0  0  0  0  0  0
    0.6281   -0.7580    0.0000 C   0  0  0  0  0  0  0  0  0  0  0  0
    1.0848   -2.1868    0.0000 C   0  0  0  0  0  0  0  0  0  0  0  0
   -0.1329   -3.0627    0.0000 O   0  0  0  0  0  0  0  0  0  0  0  0
   -1.3422   -2.1752    0.0000 C   0  0  0  0  0  0  0  0  0  0  0  0
   -2.7710   -2.6319    0.0000 O   0  0  0  0  0  0  0  0  0  0  0  0
   -0.8719   -0.7509    0.0000 C   0  0  0  0  0  0  0  0  0  0  0  0
   -1.7477    0.4669    0.0000 C   0  0  0  0  0  0  0  0  0  0  0  0
   -3.2403    0.3172    0.0000 C   0  0  0  0  0  0  0  0  0  0  0  0
   -3.8569   -1.0502    0.0000 C   0  0  0  0  0  0  0  0  0  0  0  0
   -5.3494   -1.1999    0.0000 C   0  0  0  0  0  0  0  0  0  0  0  0
   -6.2253    0.0179    0.0000 C   0  0  0  0  0  0  0  0  0  0  0  0
   -7.7163    0.1818    0.0000 O   0  0  0  0  0  0  0  0  0  0  0  0
   -8.0212    1.6505    0.0000 C   0  0  0  0  0  0  0  0  0  0  0  0
   -6.7186    2.3943    0.0000 O   0  0  0  0  0  0  0  0  0  0  0  0
   -5.6086    1.3852    0.0000 C   0  0  0  0  0  0  0  0  0  0  0  0
   -4.1161    1.5349    0.0000 C   0  0  0  0  0  0  0  0  0  0  0  0
    3.8941    1.4966    0.0000 C   0  0  0  0  0  0  0  0  0  0  0  0
    5.3851    1.3327    0.0000 C   0  0  0  0  0  0  0  0  0  0  0  0
    6.2725    2.5420    0.0000 O   0  0  0  0  0  0  0  0  0  0  0  0
    5.6690    3.9152    0.0000 C   0  0  0  0  0  0  0  0  0  0  0  0
  1  2  1  0
  2  3  1  0
  3  4  2  0
  4  5  1  0
  5  6  2  0
  6  7  1  0
  8  7  1  6
  8  9  1  0
  9 10  1  0
 10 11  1  0
 11 12  2  0
 11 13  1  0
 13 14  1  6
 14 15  1  0
 15 16  2  0
 16 17  1  0
 17 18  2  0
 18 19  1  0
 19 20  1  0
 20 21  1  0
 21 22  1  0
 22 23  2  0
  6 24  1  0
 24 25  2  0
 25 26  1  0
 26 27  1  0
 25  3  1  0
 13  8  1  0
 23 15  1  0
 22 18  1  0
M  END
>  <identifier>  (1530) 
CNP0269916.2

>  <canonical_smiles>  (1530) 
COC1=CC=C(C[C@@H]2COC(=O)[C@@H]2CC2=CC=C3OCOC3=C2)C=C1OC

>  <standard_inchi>  (1530) 
InChI=1S/C21H22O6/c1-23-17-5-3-13(9-19(17)24-2)7-15-11-25-21(22)16(15)8-14-4-6-18-20(10-14)27-12-26-18/h3-6,9-10,15-16H,7-8,11-12H2,1-2H3/t15-,16-/m1/s1

>  <standard_inchi_key>  (1530) 
LEVKKQBBEVGIKN-HZPDHXFCSA-N

>  <name>  (1530) 
nan

>  <iupac_name>  (1530) 
(3~{R},4~{S})-3-(1,3-benzodioxol-5-ylmethyl)-4-[(3,4-dimethoxyphenyl)methyl]tetrahydrofuran-2-one

>  <annotation_level>  (1530) 
4

>  <total_atom_count>  (1530) 
49

>  <heavy_atom_count>  (1530) 
27

>  <molecular_weight>  (1530) 
370.4

>  <exact_molecular_weight>  (1530) 
370.14164

>  <molecular_formula>  (1530) 
C21H22O6

>  <alogp>  (1530) 
3.01

>  <topological_polar_surface_area>  (1530) 
63.22

>  <rotatable_bond_count>  (1530) 
6

>  <hydrogen_bond_acceptors>  (1530) 
6

>  <hydrogen_bond_donors>  (1530) 
0

>  <hydrogen_bond_acceptors_lipinski>  (1530) 
6

>  <hydrogen_bond_donors_lipinski>  (1530) 
0

>  <lipinski_rule_of_five_violations>  (1530) 
0

>  <aromatic_rings_count>  (1530) 
2

>  <qed_drug_likeliness>  (1530) 
0.73

>  <formal_charge>  (1530) 
0

>  <fractioncsp3>  (1530) 
0.38

>  <number_of_minimal_rings>  (1530) 
4

>  <van_der_walls_volume>  (1530) 
nan

>  <contains_sugar>  (1530) 
False

>  <contains_ring_sugars>  (1530) 
False

>  <contains_linear_sugars>  (1530) 
False

>  <murcko_framework>  (1530) 
O1c2ccc(cc2OC1)CC3COCC3Cc4ccccc4

>  <np_likeness>  (1530) 
1.08

>  <chemical_class>  (1530) 
Furanoid lignans

>  <chemical_sub_class>  (1530) 
Tetrahydrofuran lignans

>  <chemical_super_class>  (1530) 
Lignans, neolignans and related compounds

>  <direct_parent_classification>  (1530) 
Dibenzylbutyrolactone lignans

>  <np_classifier_pathway>  (1530) 
Shikimates and Phenylpropanoids

>  <np_classifier_superclass>  (1530) 
Lignans

>  <np_classifier_class>  (1530) 
Dibenzylbutyrolactone lignans

>  <np_classifier_is_glycoside>  (1530) 
False

>  <organisms>  (1530) 
Virola sebifera

>  <collections>  (1530) 
Latin America dataset|NuBBEDB|Super Natural II|TIPdb (database of Taiwan indigenous plants)|WikiData Natural Products|ZINC NP

>  <dois>  (1530) 
10.1016/S0031-9422(00)84055-8

>  <synonyms>  (1530) 
(2R3S)-3-(34-dimethoxybenzyl)-2-(34-methylenedioxybenzyl)-butyrolactone

>  <cas>  (1530) 
nan

$$$$

     RDKit          2D

 22 24  0  0  0  0  0  0  0  0999 V2000
   -5.7680   -2.4904    0.0000 C   0  0  0  0  0  0  0  0  0  0  0  0
   -4.2988   -2.7928    0.0000 O   0  0  0  0  0  0  0  0  0  0  0  0
   -3.3024   -1.6715    0.0000 C   0  0  0  0  0  0  0  0  0  0  0  0
   -3.7752   -0.2480    0.0000 C   0  0  0  0  0  0  0  0  0  0  0  0
   -2.7788    0.8732    0.0000 C   0  0  0  0  0  0  0  0  0  0  0  0
   -3.2515    2.2968    0.0000 O   0  0  0  0  0  0  0  0  0  0  0  0
   -4.7208    2.5991    0.0000 C   0  0  0  0  0  0  0  0  0  0  0  0
   -1.3095    0.5709    0.0000 C   0  0  0  0  0  0  0  0  0  0  0  0
   -0.3131    1.6921    0.0000 C   0  0  0  0  0  0  0  0  0  0  0  0
   -0.7859    3.1156    0.0000 O   0  0  0  0  0  0  0  0  0  0  0  0
    1.1561    1.3898    0.0000 C   0  0  0  0  0  0  0  0  0  0  0  0
    2.1525    2.5110    0.0000 O   0  0  0  0  0  0  0  0  0  0  0  0
    1.6289   -0.0338    0.0000 C   0  0  0  0  0  0  0  0  0  0  0  0
    3.0981   -0.3361    0.0000 C   0  0  0  0  0  0  0  0  0  0  0  0
    3.5709   -1.7596    0.0000 C   0  0  0  0  0  0  0  0  0  0  0  0
    5.0401   -2.0620    0.0000 C   0  0  0  0  0  0  0  0  0  0  0  0
    6.0365   -0.9407    0.0000 C   0  0  0  0  0  0  0  0  0  0  0  0
    5.5638    0.4828    0.0000 C   0  0  0  0  0  0  0  0  0  0  0  0
    4.0945    0.7851    0.0000 C   0  0  0  0  0  0  0  0  0  0  0  0
    0.6325   -1.1550    0.0000 O   0  0  0  0  0  0  0  0  0  0  0  0
   -0.8368   -0.8527    0.0000 C   0  0  0  0  0  0  0  0  0  0  0  0
   -1.8332   -1.9739    0.0000 C   0  0  0  0  0  0  0  0  0  0  0  0
  1  2  1  0
  2  3  1  0
  3  4  2  0
  4  5  1  0
  5  6  1  0
  6  7  1  0
  5  8  2  0
  8  9  1  0
  9 10  2  0
  9 11  1  0
 11 12  1  6
 11 13  1  0
 13 14  1  1
 14 15  2  0
 15 16  1  0
 16 17  2  0
 17 18  1  0
 18 19  2  0
 13 20  1  0
 20 21  1  0
 21 22  2  0
 22  3  1  0
 21  8  1  0
 19 14  1  0
M  END
>  <identifier>  (1531) 
CNP0278524.1

>  <canonical_smiles>  (1531) 
COC1=CC(OC)=C2C(=O)[C@H](O)[C@@H](C3=CC=CC=C3)OC2=C1

>  <standard_inchi>  (1531) 
InChI=1S/C17H16O5/c1-20-11-8-12(21-2)14-13(9-11)22-17(16(19)15(14)18)10-6-4-3-5-7-10/h3-9,16-17,19H,1-2H3/t16-,17+/m0/s1

>  <standard_inchi_key>  (1531) 
RAEBFGPECBAEAA-DLBZAZTESA-N

>  <name>  (1531) 
(2R,3R)-3-hydroxy-5,7-dimethoxy-2-phenyl-2,3-dihydrochromen-4-one

>  <iupac_name>  (1531) 
(2~{R},3~{R})-3-hydroxy-5,7-dimethoxy-2-phenyl-chroman-4-one

>  <annotation_level>  (1531) 
5

>  <total_atom_count>  (1531) 
38

>  <heavy_atom_count>  (1531) 
22

>  <molecular_weight>  (1531) 
300.31

>  <exact_molecular_weight>  (1531) 
300.09977

>  <molecular_formula>  (1531) 
C17H16O5

>  <alogp>  (1531) 
2.38

>  <topological_polar_surface_area>  (1531) 
64.99

>  <rotatable_bond_count>  (1531) 
3

>  <hydrogen_bond_acceptors>  (1531) 
5

>  <hydrogen_bond_donors>  (1531) 
1

>  <hydrogen_bond_acceptors_lipinski>  (1531) 
5

>  <hydrogen_bond_donors_lipinski>  (1531) 
1

>  <lipinski_rule_of_five_violations>  (1531) 
0

>  <aromatic_rings_count>  (1531) 
2

>  <qed_drug_likeliness>  (1531) 
0.94

>  <formal_charge>  (1531) 
0

>  <fractioncsp3>  (1531) 
0.24

>  <number_of_minimal_rings>  (1531) 
3

>  <van_der_walls_volume>  (1531) 
263.39

>  <contains_sugar>  (1531) 
False

>  <contains_ring_sugars>  (1531) 
False

>  <contains_linear_sugars>  (1531) 
False

>  <murcko_framework>  (1531) 
O1c2ccccc2CCC1c3ccccc3

>  <np_likeness>  (1531) 
1.53

>  <chemical_class>  (1531) 
Flavonoids

>  <chemical_sub_class>  (1531) 
O-methylated flavonoids

>  <chemical_super_class>  (1531) 
Phenylpropanoids and polyketides

>  <direct_parent_classification>  (1531) 
5-O-methylated flavonoids

>  <np_classifier_pathway>  (1531) 
Shikimates and Phenylpropanoids

>  <np_classifier_superclass>  (1531) 
Flavonoids

>  <np_classifier_class>  (1531) 
Dihydroflavonols

>  <np_classifier_is_glycoside>  (1531) 
False

>  <organisms>  (1531) 
Aniba riparia|Dietes bicolor

>  <collections>  (1531) 
KNApSaCK|Latin America dataset|NPASS|NPEdia|NuBBEDB|Super Natural II|WikiData Natural Products|ZINC NP

>  <dois>  (1531) 
10.1016/0305-1978(78)90024-8|10.1021/ACS.JNATPROD.7B00476|10.1021/acs.jnatprod.7b00476

>  <synonyms>  (1531) 
(2R.3R)-3-Hydroxy-5,7-dimethoxyflavanone|CHEMBL4176615

>  <cas>  (1531) 
nan

$$$$

     RDKit          2D

 34 40  0  0  0  0  0  0  0  0999 V2000
   -5.6134    1.2881    0.0000 C   0  0  0  0  0  0  0  0  0  0  0  0
   -4.2481    0.6669    0.0000 C   0  0  0  0  0  0  0  0  0  0  0  0
   -5.3708   -0.3277    0.0000 O   0  0  0  0  0  0  0  0  0  0  0  0
   -4.7718   -1.7029    0.0000 C   0  0  0  0  0  0  0  0  0  0  0  0
   -5.5323   -2.9959    0.0000 O   0  0  0  0  0  0  0  0  0  0  0  0
   -3.2788   -1.5582    0.0000 C   0  0  0  0  0  0  0  0  0  0  0  0
   -2.2841   -2.6810    0.0000 O   0  0  0  0  0  0  0  0  0  0  0  0
   -2.9551   -0.0935    0.0000 C   0  0  0  0  0  0  0  0  0  0  0  0
   -3.0999    1.3995    0.0000 O   0  0  0  0  0  0  0  0  0  0  0  0
   -1.6501    0.6460    0.0000 C   0  0  0  0  0  0  0  0  0  0  0  0
   -1.5053   -0.8470    0.0000 C   0  0  0  0  0  0  0  0  0  0  0  0
   -0.2273    0.1709    0.0000 C   0  0  0  0  0  0  0  0  0  0  0  0
    0.6642    1.3773    0.0000 C   0  0  0  0  0  0  0  0  0  0  0  0
    2.1546    1.2085    0.0000 C   0  0  0  0  0  0  0  0  0  0  0  0
    2.7537   -0.1667    0.0000 C   0  0  0  0  0  0  0  0  0  0  0  0
    3.7663    0.9399    0.0000 C   0  0  0  0  0  0  0  0  0  0  0  0
    4.1765   -0.6417    0.0000 C   0  0  0  0  0  0  0  0  0  0  0  0
    5.3971    0.2301    0.0000 C   0  0  0  0  0  0  0  0  0  0  0  0
    5.4092    1.7301    0.0000 C   0  0  0  0  0  0  0  0  0  0  0  0
    6.8394    2.1821    0.0000 O   0  0  0  0  0  0  0  0  0  0  0  0
    7.7113    0.9615    0.0000 C   0  0  0  0  0  0  0  0  0  0  0  0
    6.8199   -0.2449    0.0000 C   0  0  0  0  0  0  0  0  0  0  0  0
    4.1644   -2.1417    0.0000 C   0  0  0  0  0  0  0  0  0  0  0  0
    2.7341   -2.5937    0.0000 C   0  0  0  0  0  0  0  0  0  0  0  0
    1.2411   -2.7384    0.0000 O   0  0  0  0  0  0  0  0  0  0  0  0
    1.8622   -1.3731    0.0000 C   0  0  0  0  0  0  0  0  0  0  0  0
    0.3718   -1.2042    0.0000 C   0  0  0  0  0  0  0  0  0  0  0  0
   -1.0866   -1.5554    0.0000 C   0  0  0  0  0  0  0  0  0  0  0  0
    0.0993   -2.6793    0.0000 O   0  0  0  0  0  0  0  0  0  0  0  0
   -0.2077    2.5979    0.0000 O   0  0  0  0  0  0  0  0  0  0  0  0
   -1.6380    2.1459    0.0000 C   0  0  0  0  0  0  0  0  0  0  0  0
   -2.9309    2.9064    0.0000 C   0  0  0  0  0  0  0  0  0  0  0  0
   -4.2360    2.1669    0.0000 C   0  0  0  0  0  0  0  0  0  0  0  0
   -5.5289    2.9273    0.0000 O   0  0  0  0  0  0  0  0  0  0  0  0
  2  1  1  6
  2  3  1  0
  3  4  1  0
  4  5  2  0
  4  6  1  0
  6  7  1  1
  6  8  1  0
  8  9  1  6
  8 10  1  0
 10 11  1  1
 10 12  1  0
 12 13  1  0
 13 14  1  6
 14 15  1  0
 15 16  1  6
 15 17  1  0
 17 18  1  6
 18 19  2  0
 19 20  1  0
 20 21  1  0
 21 22  2  0
 17 23  1  0
 24 23  1  1
 24 25  1  0
 26 25  1  1
 26 27  1  0
 27 28  1  1
 27 29  1  0
 13 30  1  0
 30 31  1  0
 31 32  1  6
 32 33  1  0
 33 34  2  0
  8  2  1  0
 31 10  1  0
 33  2  1  0
 27 12  1  0
 26 15  1  0
 22 18  1  0
 26 24  1  0
M  END
>  <identifier>  (1532) 
CNP0144446.2

>  <canonical_smiles>  (1532) 
C[C@@]12OC(=O)[C@H](O)[C@]1(O)[C@@]1(C)C3[C@@H](C[C@@]4(C)[C@H](C5=COC=C5)C[C@H]5O[C@]54[C@]3(C)O)O[C@H]1CC2=O

>  <standard_inchi>  (1532) 
InChI=1S/C25H30O9/c1-20-9-13-17(22(3,29)25(20)16(33-25)7-12(20)11-5-6-31-10-11)21(2)15(32-13)8-14(26)23(4)24(21,30)18(27)19(28)34-23/h5-6,10,12-13,15-18,27,29-30H,7-9H2,1-4H3/t12-,13+,15-,16+,17?,18-,20-,21+,22+,23-,24-,25+/m0/s1

>  <standard_inchi_key>  (1532) 
MOYKAXYISXRXMP-BIGPZMFUSA-N

>  <name>  (1532) 
nan

>  <iupac_name>  (1532) 
(2~{S},3~{R},4~{R},7~{R},10~{S},12~{R},14~{S},15~{S},17~{R},19~{S},20~{R})-15-(3-furyl)-3,4,20-trihydroxy-2,7,14,20-tetramethyl-6,11,18-trioxahexacyclo[10.8.0.0^{2,10}.0^{3,7}.0^{14,19}.0^{17,19}]icosane-5,8-dione

>  <annotation_level>  (1532) 
4

>  <total_atom_count>  (1532) 
64

>  <heavy_atom_count>  (1532) 
34

>  <molecular_weight>  (1532) 
474.51

>  <exact_molecular_weight>  (1532) 
474.18898

>  <molecular_formula>  (1532) 
C25H30O9

>  <alogp>  (1532) 
0.84

>  <topological_polar_surface_area>  (1532) 
138.96

>  <rotatable_bond_count>  (1532) 
1

>  <hydrogen_bond_acceptors>  (1532) 
9

>  <hydrogen_bond_donors>  (1532) 
3

>  <hydrogen_bond_acceptors_lipinski>  (1532) 
9

>  <hydrogen_bond_donors_lipinski>  (1532) 
3

>  <lipinski_rule_of_five_violations>  (1532) 
0

>  <aromatic_rings_count>  (1532) 
1

>  <qed_drug_likeliness>  (1532) 
0.40

>  <formal_charge>  (1532) 
0

>  <fractioncsp3>  (1532) 
0.76

>  <number_of_minimal_rings>  (1532) 
7

>  <van_der_walls_volume>  (1532) 
nan

>  <contains_sugar>  (1532) 
False

>  <contains_ring_sugars>  (1532) 
False

>  <contains_linear_sugars>  (1532) 
False

>  <murcko_framework>  (1532) 
o1ccc(c1)C2CC3OC43CC5C(OC6CCC7OCCC7C65)CC24

>  <np_likeness>  (1532) 
2.99

>  <chemical_class>  (1532) 
Organooxygen compounds

>  <chemical_sub_class>  (1532) 
Carbohydrates and carbohydrate conjugates

>  <chemical_super_class>  (1532) 
Organic oxygen compounds

>  <direct_parent_classification>  (1532) 
Monosaccharides

>  <np_classifier_pathway>  (1532) 
Terpenoids

>  <np_classifier_superclass>  (1532) 
Triterpenoids

>  <np_classifier_class>  (1532) 
Limonoids

>  <np_classifier_is_glycoside>  (1532) 
False

>  <organisms>  (1532) 
Toona ciliata

>  <collections>  (1532) 
Latin America dataset|NuBBEDB

>  <dois>  (1532) 
10.1016/S0031-9422(97)00872-8

>  <synonyms>  (1532) 
5\u221a\u00e9\u00ac\u00b16\u221a\u00e9\u00ac\u22648\u221a\u00e9\u00ac\u00b1-trihydroxy-28-norisotoonafolin

>  <cas>  (1532) 
nan

$$$$

     RDKit          2D

 24 26  0  0  0  0  0  0  0  0999 V2000
    7.5664    2.5347    0.0000 C   0  0  0  0  0  0  0  0  0  0  0  0
    6.4879    1.4922    0.0000 C   0  0  0  0  0  0  0  0  0  0  0  0
    5.0458    1.9049    0.0000 C   0  0  0  0  0  0  0  0  0  0  0  0
    3.9673    0.8624    0.0000 C   0  0  0  0  0  0  0  0  0  0  0  0
    4.3309   -0.5929    0.0000 C   0  0  0  0  0  0  0  0  0  0  0  0
    3.2524   -1.6354    0.0000 C   0  0  0  0  0  0  0  0  0  0  0  0
    3.6160   -3.0907    0.0000 O   0  0  0  0  0  0  0  0  0  0  0  0
    5.0581   -3.5034    0.0000 C   0  0  0  0  0  0  0  0  0  0  0  0
    1.8103   -1.2226    0.0000 C   0  0  0  0  0  0  0  0  0  0  0  0
    0.7318   -2.2652    0.0000 O   0  0  0  0  0  0  0  0  0  0  0  0
    1.4467    0.2326    0.0000 C   0  0  0  0  0  0  0  0  0  0  0  0
    0.0046    0.6454    0.0000 C   0  0  0  0  0  0  0  0  0  0  0  0
   -0.3590    2.1006    0.0000 C   0  0  0  0  0  0  0  0  0  0  0  0
   -1.0739   -0.3971    0.0000 C   0  0  0  0  0  0  0  0  0  0  0  0
   -2.5160    0.0156    0.0000 C   0  0  0  0  0  0  0  0  0  0  0  0
   -2.8796    1.4709    0.0000 C   0  0  0  0  0  0  0  0  0  0  0  0
   -4.3217    1.8836    0.0000 C   0  0  0  0  0  0  0  0  0  0  0  0
   -5.4002    0.8411    0.0000 C   0  0  0  0  0  0  0  0  0  0  0  0
   -6.8965    0.9450    0.0000 O   0  0  0  0  0  0  0  0  0  0  0  0
   -7.4578   -0.4461    0.0000 C   0  0  0  0  0  0  0  0  0  0  0  0
   -6.3082   -1.4097    0.0000 O   0  0  0  0  0  0  0  0  0  0  0  0
   -5.0366   -0.6142    0.0000 C   0  0  0  0  0  0  0  0  0  0  0  0
   -3.5945   -1.0269    0.0000 C   0  0  0  0  0  0  0  0  0  0  0  0
    2.5252    1.2751    0.0000 C   0  0  0  0  0  0  0  0  0  0  0  0
  1  2  1  0
  2  3  1  0
  3  4  1  0
  4  5  2  0
  5  6  1  0
  6  7  1  0
  7  8  1  0
  6  9  2  0
  9 10  1  0
  9 11  1  0
 11 12  1  0
 12 13  1  1
 12 14  1  0
 14 15  1  0
 15 16  2  0
 16 17  1  0
 17 18  2  0
 18 19  1  0
 19 20  1  0
 20 21  1  0
 21 22  1  0
 22 23  2  0
 11 24  2  0
 24  4  1  0
 23 15  1  0
 22 18  1  0
M  END
>  <identifier>  (1533) 
CNP0083485.1

>  <canonical_smiles>  (1533) 
CCCC1=CC(OC)=C(O)C([C@H](C)CC2=CC=C3OCOC3=C2)=C1

>  <standard_inchi>  (1533) 
InChI=1S/C20H24O4/c1-4-5-14-9-16(20(21)19(11-14)22-3)13(2)8-15-6-7-17-18(10-15)24-12-23-17/h6-7,9-11,13,21H,4-5,8,12H2,1-3H3/t13-/m1/s1

>  <standard_inchi_key>  (1533) 
CCDWCXQYAILFKD-CYBMUJFWSA-N

>  <name>  (1533) 
nan

>  <iupac_name>  (1533) 
2-[(1~{R})-2-(1,3-benzodioxol-5-yl)-1-methyl-ethyl]-6-methoxy-4-propyl-phenol

>  <annotation_level>  (1533) 
4

>  <total_atom_count>  (1533) 
48

>  <heavy_atom_count>  (1533) 
24

>  <molecular_weight>  (1533) 
328.41

>  <exact_molecular_weight>  (1533) 
328.16746

>  <molecular_formula>  (1533) 
C20H24O4

>  <alogp>  (1533) 
4.43

>  <topological_polar_surface_area>  (1533) 
47.92

>  <rotatable_bond_count>  (1533) 
6

>  <hydrogen_bond_acceptors>  (1533) 
4

>  <hydrogen_bond_donors>  (1533) 
1

>  <hydrogen_bond_acceptors_lipinski>  (1533) 
4

>  <hydrogen_bond_donors_lipinski>  (1533) 
1

>  <lipinski_rule_of_five_violations>  (1533) 
0

>  <aromatic_rings_count>  (1533) 
2

>  <qed_drug_likeliness>  (1533) 
0.85

>  <formal_charge>  (1533) 
0

>  <fractioncsp3>  (1533) 
0.40

>  <number_of_minimal_rings>  (1533) 
3

>  <van_der_walls_volume>  (1533) 
nan

>  <contains_sugar>  (1533) 
False

>  <contains_ring_sugars>  (1533) 
False

>  <contains_linear_sugars>  (1533) 
False

>  <murcko_framework>  (1533) 
O1c2ccc(cc2OC1)CCc3ccccc3

>  <np_likeness>  (1533) 
0.67

>  <chemical_class>  (1533) 
nan

>  <chemical_sub_class>  (1533) 
Lignans, neolignans and related compounds

>  <chemical_super_class>  (1533) 
Lignans, neolignans and related compounds

>  <direct_parent_classification>  (1533) 
Lignans, neolignans and related compounds

>  <np_classifier_pathway>  (1533) 
Shikimates and Phenylpropanoids

>  <np_classifier_superclass>  (1533) 
Lignans

>  <np_classifier_class>  (1533) 
Neolignans

>  <np_classifier_is_glycoside>  (1533) 
False

>  <organisms>  (1533) 
Aniba lancifolia

>  <collections>  (1533) 
Latin America dataset|NuBBEDB|WikiData Natural Products|ZINC NP

>  <dois>  (1533) 
10.1016/S0031-9422(00)81975-5

>  <synonyms>  (1533) 
(8R)-4'-Hydroxy-5'-methoxy-34-methylenedioxy-8.3'-neolignan

>  <cas>  (1533) 
nan

$$$$

     RDKit          2D

 29 32  0  0  0  0  0  0  0  0999 V2000
   -6.9474    2.1725    0.0000 C   0  0  0  0  0  0  0  0  0  0  0  0
   -5.5242    1.6986    0.0000 C   0  0  0  0  0  0  0  0  0  0  0  0
   -5.2231    0.2291    0.0000 C   0  0  0  0  0  0  0  0  0  0  0  0
   -3.7999   -0.2448    0.0000 C   0  0  0  0  0  0  0  0  0  0  0  0
   -3.4988   -1.7143    0.0000 C   0  0  0  0  0  0  0  0  0  0  0  0
   -4.6209   -2.7098    0.0000 C   0  0  0  0  0  0  0  0  0  0  0  0
   -2.0757   -2.1883    0.0000 C   0  0  0  0  0  0  0  0  0  0  0  0
   -1.6226   -3.6182    0.0000 C   0  0  0  0  0  0  0  0  0  0  0  0
   -0.1226   -3.6292    0.0000 C   0  0  0  0  0  0  0  0  0  0  0  0
    0.3513   -2.2060    0.0000 C   0  0  0  0  0  0  0  0  0  0  0  0
    1.7261   -1.6060    0.0000 C   0  0  0  0  0  0  0  0  0  0  0  0
    2.9331   -2.4965    0.0000 C   0  0  0  0  0  0  0  0  0  0  0  0
    4.3078   -1.8965    0.0000 C   0  0  0  0  0  0  0  0  0  0  0  0
    4.4756   -0.4059    0.0000 C   0  0  0  0  0  0  0  0  0  0  0  0
    5.8503    0.1942    0.0000 C   0  0  0  0  0  0  0  0  0  0  0  0
    6.0180    1.6848    0.0000 C   0  0  0  0  0  0  0  0  0  0  0  0
    7.3928    2.2848    0.0000 O   0  0  0  0  0  0  0  0  0  0  0  0
    4.8110    2.5753    0.0000 C   0  0  0  0  0  0  0  0  0  0  0  0
    3.4362    1.9753    0.0000 C   0  0  0  0  0  0  0  0  0  0  0  0
    3.2685    0.4847    0.0000 C   0  0  0  0  0  0  0  0  0  0  0  0
    2.0615    1.3752    0.0000 C   0  0  0  0  0  0  0  0  0  0  0  0
    1.8938   -0.1154    0.0000 C   0  0  0  0  0  0  0  0  0  0  0  0
    0.6867    0.7751    0.0000 C   0  0  0  0  0  0  0  0  0  0  0  0
   -0.6880    0.1751    0.0000 C   0  0  0  0  0  0  0  0  0  0  0  0
   -0.8557   -1.3155    0.0000 C   0  0  0  0  0  0  0  0  0  0  0  0
   -2.1492   -0.5560    0.0000 C   0  0  0  0  0  0  0  0  0  0  0  0
   -4.4022    2.6941    0.0000 C   0  0  0  0  0  0  0  0  0  0  0  0
   -4.7033    4.1635    0.0000 C   0  0  0  0  0  0  0  0  0  0  0  0
   -2.9790    2.2201    0.0000 C   0  0  0  0  0  0  0  0  0  0  0  0
  1  2  2  0
  2  3  1  0
  3  4  1  0
  4  5  1  0
  5  6  1  6
  5  7  1  0
  7  8  1  6
  8  9  1  0
  9 10  1  0
 10 11  1  0
 11 12  1  0
 12 13  1  0
 13 14  2  0
 14 15  1  0
 15 16  1  0
 16 17  1  6
 16 18  1  0
 18 19  1  0
 19 20  1  0
 20 21  1  6
 20 22  1  0
 22 23  1  0
 23 24  1  0
 24 25  1  0
 25 26  1  6
  2 27  1  0
 27 28  1  0
 27 29  1  0
 25  7  1  0
 25 10  1  0
 22 11  1  0
 20 14  1  0
M  END
>  <identifier>  (1534) 
CNP0211064.5

>  <canonical_smiles>  (1534) 
C=C(CC[C@@H](C)[C@H]1CCC2C3CC=C4C[C@@H](O)CC[C@]4(C)C3CC[C@@]21C)C(C)C

>  <standard_inchi>  (1534) 
InChI=1S/C28H46O/c1-18(2)19(3)7-8-20(4)24-11-12-25-23-10-9-21-17-22(29)13-15-27(21,5)26(23)14-16-28(24,25)6/h9,18,20,22-26,29H,3,7-8,10-17H2,1-2,4-6H3/t20-,22+,23?,24-,25?,26?,27+,28-/m1/s1

>  <standard_inchi_key>  (1534) 
INDVLXYUCBVVKW-BKGFLPDPSA-N

>  <name>  (1534) 
24-Methylenecholoesterol

>  <iupac_name>  (1534) 
(3~{S},10~{R},13~{R},17~{R})-17-[(1~{R})-1,5-dimethyl-4-methylene-hexyl]-10,13-dimethyl-2,3,4,7,8,9,11,12,14,15,16,17-dodecahydro-1~{H}-cyclopenta[a]phenanthren-3-ol

>  <annotation_level>  (1534) 
5

>  <total_atom_count>  (1534) 
75

>  <heavy_atom_count>  (1534) 
29

>  <molecular_weight>  (1534) 
398.68

>  <exact_molecular_weight>  (1534) 
398.35487

>  <molecular_formula>  (1534) 
C28H46O

>  <alogp>  (1534) 
7.55

>  <topological_polar_surface_area>  (1534) 
20.23

>  <rotatable_bond_count>  (1534) 
5

>  <hydrogen_bond_acceptors>  (1534) 
1

>  <hydrogen_bond_donors>  (1534) 
1

>  <hydrogen_bond_acceptors_lipinski>  (1534) 
1

>  <hydrogen_bond_donors_lipinski>  (1534) 
1

>  <lipinski_rule_of_five_violations>  (1534) 
1

>  <aromatic_rings_count>  (1534) 
0

>  <qed_drug_likeliness>  (1534) 
0.47

>  <formal_charge>  (1534) 
0

>  <fractioncsp3>  (1534) 
0.86

>  <number_of_minimal_rings>  (1534) 
4

>  <van_der_walls_volume>  (1534) 
nan

>  <contains_sugar>  (1534) 
False

>  <contains_ring_sugars>  (1534) 
False

>  <contains_linear_sugars>  (1534) 
False

>  <murcko_framework>  (1534) 
C1=C2CCCCC2C3CCC4CCCC4C3C1

>  <np_likeness>  (1534) 
2.97

>  <chemical_class>  (1534) 
Steroids and steroid derivatives

>  <chemical_sub_class>  (1534) 
Ergostane steroids

>  <chemical_super_class>  (1534) 
Lipids and lipid-like molecules

>  <direct_parent_classification>  (1534) 
Ergosterols and derivatives

>  <np_classifier_pathway>  (1534) 
Terpenoids

>  <np_classifier_superclass>  (1534) 
Steroids

>  <np_classifier_class>  (1534) 
Ergostane steroids

>  <np_classifier_is_glycoside>  (1534) 
False

>  <organisms>  (1534) 
Trichilia pallida

>  <collections>  (1534) 
Latin America dataset|NuBBEDB

>  <dois>  (1534) 
10.1590/S1519-566X2008000600013

>  <synonyms>  (1534) 
24-methylenecholesterol|AKOS037652701|ES-2449

>  <cas>  (1534) 
nan

$$$$

     RDKit          2D

 15 16  0  0  0  0  0  0  0  0999 V2000
   -3.2312   -2.5158    0.0000 C   0  0  0  0  0  0  0  0  0  0  0  0
   -1.7771   -2.1475    0.0000 O   0  0  0  0  0  0  0  0  0  0  0  0
   -1.3690   -0.7041    0.0000 C   0  0  0  0  0  0  0  0  0  0  0  0
   -2.4150    0.3710    0.0000 C   0  0  0  0  0  0  0  0  0  0  0  0
   -2.0069    1.8145    0.0000 C   0  0  0  0  0  0  0  0  0  0  0  0
   -3.0529    2.8896    0.0000 O   0  0  0  0  0  0  0  0  0  0  0  0
   -0.5528    2.1827    0.0000 O   0  0  0  0  0  0  0  0  0  0  0  0
    0.4932    1.1076    0.0000 C   0  0  0  0  0  0  0  0  0  0  0  0
    1.9472    1.4759    0.0000 C   0  0  0  0  0  0  0  0  0  0  0  0
    2.9932    0.4008    0.0000 C   0  0  0  0  0  0  0  0  0  0  0  0
    4.4473    0.7690    0.0000 O   0  0  0  0  0  0  0  0  0  0  0  0
    2.5851   -1.0427    0.0000 C   0  0  0  0  0  0  0  0  0  0  0  0
    1.1310   -1.4109    0.0000 C   0  0  0  0  0  0  0  0  0  0  0  0
    0.7229   -2.8544    0.0000 C   0  0  0  0  0  0  0  0  0  0  0  0
    0.0851   -0.3358    0.0000 C   0  0  0  0  0  0  0  0  0  0  0  0
  1  2  1  0
  2  3  1  0
  3  4  2  0
  4  5  1  0
  5  6  2  0
  5  7  1  0
  7  8  1  0
  8  9  2  0
  9 10  1  0
 10 11  1  0
 10 12  2  0
 12 13  1  0
 13 14  1  0
 13 15  2  0
 15  3  1  0
 15  8  1  0
M  END
>  <identifier>  (1535) 
CNP0278572.0

>  <canonical_smiles>  (1535) 
COC1=CC(=O)OC2=CC(O)=CC(C)=C12

>  <standard_inchi>  (1535) 
InChI=1S/C11H10O4/c1-6-3-7(12)4-9-11(6)8(14-2)5-10(13)15-9/h3-5,12H,1-2H3

>  <standard_inchi_key>  (1535) 
UMLNUFLSRYJZFA-UHFFFAOYSA-N

>  <name>  (1535) 
41680-12-0

>  <iupac_name>  (1535) 
7-hydroxy-4-methoxy-5-methyl-chromen-2-one

>  <annotation_level>  (1535) 
5

>  <total_atom_count>  (1535) 
25

>  <heavy_atom_count>  (1535) 
15

>  <molecular_weight>  (1535) 
206.2

>  <exact_molecular_weight>  (1535) 
206.05791

>  <molecular_formula>  (1535) 
C11H10O4

>  <alogp>  (1535) 
1.82

>  <topological_polar_surface_area>  (1535) 
59.67

>  <rotatable_bond_count>  (1535) 
1

>  <hydrogen_bond_acceptors>  (1535) 
4

>  <hydrogen_bond_donors>  (1535) 
1

>  <hydrogen_bond_acceptors_lipinski>  (1535) 
4

>  <hydrogen_bond_donors_lipinski>  (1535) 
1

>  <lipinski_rule_of_five_violations>  (1535) 
0

>  <aromatic_rings_count>  (1535) 
2

>  <qed_drug_likeliness>  (1535) 
0.72

>  <formal_charge>  (1535) 
0

>  <fractioncsp3>  (1535) 
0.18

>  <number_of_minimal_rings>  (1535) 
2

>  <van_der_walls_volume>  (1535) 
176.49

>  <contains_sugar>  (1535) 
False

>  <contains_ring_sugars>  (1535) 
False

>  <contains_linear_sugars>  (1535) 
False

>  <murcko_framework>  (1535) 
O1c2ccccc2C=CC1

>  <np_likeness>  (1535) 
1.12

>  <chemical_class>  (1535) 
Coumarins and derivatives

>  <chemical_sub_class>  (1535) 
Hydroxycoumarins

>  <chemical_super_class>  (1535) 
Phenylpropanoids and polyketides

>  <direct_parent_classification>  (1535) 
7-hydroxycoumarins

>  <np_classifier_pathway>  (1535) 
Shikimates and Phenylpropanoids

>  <np_classifier_superclass>  (1535) 
Coumarins

>  <np_classifier_class>  (1535) 
Simple coumarins

>  <np_classifier_is_glycoside>  (1535) 
False

>  <organisms>  (1535) 
Aconitum seravschanicum|Aconitum tasiromontanum|Adansonia grandidieri|Aphyllocladus denticulatus|Aster sedifolius|Astragalus mongholicus|Bassia muricata|Caulocystis cephalornithos|Cladosporium herbarum|Cladosporium herbarum IFB-E002|Cytophaga hutchinsoni|Dendriopoterium menendezii|Dictyopteris australis|Dodonaea viscosa|Dysoxylum cumingianum|Enceliopsis argophylla|Epichloe festucae var. lolii|Eria mollis|Eriocheir sinensis|Flacourtia jangomas|Gadus morhua callarias|Isaria fumosorosea|Justicia secunda|Lavandula vera|Miliusa velutina|Neobalanocarpus heimii|Onobrychis arenaria|Physalis alkekengi|Platymiscium praecox|Polygonum cuspidatum|Psychotria stachyoides|Rattus rattus|Rivularia firma|Senecio subdentatus|Sphaerella laricina|Teucrium yemense

>  <collections>  (1535) 
CMAUP (cCollective molecular activities of useful plants)|KNApSaCK|Latin America dataset|NPASS|NuBBEDB|Super Natural II|TCMDB-Taiwan (Traditional Chinese Medicine database)|TCMID (Traditional Chinese Medicine Integrated Database)|UNPD (Universal Natural Products Database)|WikiData Natural Products|ZINC NP

>  <dois>  (1535) 
10.1016/S0031-9422(00)89849-0|10.1021/NP050059P

>  <synonyms>  (1535) 
2H-1-Benzopyran-2-one, 7-hydroxy-4-methoxy-5-methyl-|4-Methoxy-5-methyl-7-hydroxycoumarin|7-Hydroxy-4-methoxy-5-methylcoumarin|7-demethylsiderin|7-hydroxy-4-methoxy-5-methyl-2H-1-benzopyran-2-one|7-hydroxy-4-methoxy-5-methylchromen-2-one|CHEBI:145991|DB-429118|DTXSID20415738

>  <cas>  (1535) 
nan

$$$$

     RDKit          2D

 42 44  0  0  0  0  0  0  0  0999 V2000
   -1.6134    6.3294    0.0000 C   0  0  0  0  0  0  0  0  0  0  0  0
   -0.6620    5.1697    0.0000 C   0  0  0  0  0  0  0  0  0  0  0  0
    0.8180    5.4137    0.0000 C   0  0  0  0  0  0  0  0  0  0  0  0
    1.3467    6.8174    0.0000 C   0  0  0  0  0  0  0  0  0  0  0  0
    1.7693    4.2540    0.0000 C   0  0  0  0  0  0  0  0  0  0  0  0
    1.2406    2.8502    0.0000 C   0  0  0  0  0  0  0  0  0  0  0  0
    2.1920    1.6905    0.0000 C   0  0  0  0  0  0  0  0  0  0  0  0
    3.1689    2.8288    0.0000 C   0  0  0  0  0  0  0  0  0  0  0  0
    0.8847    0.9550    0.0000 C   0  0  0  0  0  0  0  0  0  0  0  0
   -0.4059    1.7194    0.0000 C   0  0  0  0  0  0  0  0  0  0  0  0
    0.8680   -0.5449    0.0000 C   0  0  0  0  0  0  0  0  0  0  0  0
   -0.4393   -1.2804    0.0000 O   0  0  0  0  0  0  0  0  0  0  0  0
   -1.7299   -0.5160    0.0000 C   0  0  0  0  0  0  0  0  0  0  0  0
   -1.7132    0.9839    0.0000 O   0  0  0  0  0  0  0  0  0  0  0  0
   -3.0372   -1.2515    0.0000 C   0  0  0  0  0  0  0  0  0  0  0  0
   -4.3278   -0.4871    0.0000 C   0  0  0  0  0  0  0  0  0  0  0  0
   -5.6351   -1.2226    0.0000 C   0  0  0  0  0  0  0  0  0  0  0  0
   -6.9258   -0.4582    0.0000 C   0  0  0  0  0  0  0  0  0  0  0  0
   -8.2331   -1.1937    0.0000 C   0  0  0  0  0  0  0  0  0  0  0  0
   -9.5237   -0.4293    0.0000 C   0  0  0  0  0  0  0  0  0  0  0  0
  -10.8310   -1.1648    0.0000 C   0  0  0  0  0  0  0  0  0  0  0  0
  -12.1216   -0.4004    0.0000 C   0  0  0  0  0  0  0  0  0  0  0  0
  -13.4289   -1.1359    0.0000 C   0  0  0  0  0  0  0  0  0  0  0  0
    2.1586   -1.3093    0.0000 C   0  0  0  0  0  0  0  0  0  0  0  0
    1.7795   -2.7606    0.0000 O   0  0  0  0  0  0  0  0  0  0  0  0
    3.4659   -0.5738    0.0000 C   0  0  0  0  0  0  0  0  0  0  0  0
    4.7565   -1.3382    0.0000 C   0  0  0  0  0  0  0  0  0  0  0  0
    6.0638   -0.6027    0.0000 C   0  0  0  0  0  0  0  0  0  0  0  0
    6.0805    0.8972    0.0000 C   0  0  0  0  0  0  0  0  0  0  0  0
    7.3878    1.6327    0.0000 O   0  0  0  0  0  0  0  0  0  0  0  0
    4.7899    1.6616    0.0000 C   0  0  0  0  0  0  0  0  0  0  0  0
    3.4826    0.9261    0.0000 C   0  0  0  0  0  0  0  0  0  0  0  0
    4.6410   -0.7973    0.0000 C   0  0  0  0  0  0  0  0  0  0  0  0
    5.4196   -3.9277    0.0000 O   0  0  0  0  0  0  0  0  0  0  0  0
    4.9402   -5.3490    0.0000 C   0  0  0  0  0  0  0  0  0  0  0  0
    5.9314   -6.4748    0.0000 C   0  0  0  0  0  0  0  0  0  0  0  0
    4.0051   -1.1352    0.0000 O   0  0  0  0  0  0  0  0  0  0  0  0
    3.9957   -0.4151    0.0000 C   0  0  0  0  0  0  0  0  0  0  0  0
    0.8764   -1.2369    0.0000 O   0  0  0  0  0  0  0  0  0  0  0  0
   -0.1396   -2.3403    0.0000 C   0  0  0  0  0  0  0  0  0  0  0  0
   -1.6033   -2.0122    0.0000 C   0  0  0  0  0  0  0  0  0  0  0  0
    0.3080   -3.7720    0.0000 O   0  0  0  0  0  0  0  0  0  0  0  0
  1  2  2  0
  2  3  1  0
  3  4  1  0
  3  5  2  0
  5  6  1  0
  6  7  1  0
  7  8  1  6
  7  9  1  0
  9 10  1  1
  9 11  1  0
 11 12  1  6
 12 13  1  0
 13 14  2  0
 13 15  1  0
 15 16  1  0
 16 17  1  0
 17 18  1  0
 18 19  1  0
 19 20  1  0
 20 21  1  0
 21 22  1  0
 22 23  1  0
 11 24  1  0
 24 25  1  1
 24 26  1  0
 26 27  1  6
 27 28  2  0
 28 29  1  0
 29 30  1  1
 29 31  1  0
 32 31  1  6
 27 33  1  0
 33 34  1  6
 34 35  1  0
 35 36  1  0
 33 37  1  0
 37 38  1  0
 38 39  1  6
 39 40  1  0
 40 41  1  0
 40 42  2  0
 32  7  1  0
 32 26  1  0
 38 26  1  0
M  END
>  <identifier>  (1536) 
CNP0182141.1

>  <canonical_smiles>  (1536) 
C=C/C(C)=C\C[C@]1(C)[C@H](C)[C@@H](OC(=O)CCCCCCCCC)[C@H](O)[C@@]23C(=C[C@H](O)C[C@@H]12)[C@@H](OCC)O[C@H]3OC(C)=O

>  <standard_inchi>  (1536) 
InChI=1S/C34H54O8/c1-8-11-12-13-14-15-16-17-28(37)41-29-23(5)33(7,19-18-22(4)9-2)27-21-25(36)20-26-31(39-10-3)42-32(40-24(6)35)34(26,27)30(29)38/h9,18,20,23,25,27,29-32,36,38H,2,8,10-17,19,21H2,1,3-7H3/b22-18-/t23-,25+,27+,29-,30+,31+,32-,33-,34-/m1/s1

>  <standard_inchi_key>  (1536) 
GKLSGDUPRKXVGF-UOSQSQJASA-N

>  <name>  (1536) 
nan

>  <iupac_name>  (1536) 
[(1~{S},3~{S},5~{R},6~{a}~{S},7~{S},8~{S},9~{R},10~{R},10~{a}~{S})-1-acetoxy-3-ethoxy-5,10-dihydroxy-7,8-dimethyl-7-[(2~{Z})-3-methylpenta-2,4-dienyl]-1,3,5,6,6~{a},8,9,10-octahydrobenzo[d]isobenzofuran-9-yl] decanoate

>  <annotation_level>  (1536) 
5

>  <total_atom_count>  (1536) 
96

>  <heavy_atom_count>  (1536) 
42

>  <molecular_weight>  (1536) 
590.8

>  <exact_molecular_weight>  (1536) 
590.38187

>  <molecular_formula>  (1536) 
C34H54O8

>  <alogp>  (1536) 
6.15

>  <topological_polar_surface_area>  (1536) 
111.52

>  <rotatable_bond_count>  (1536) 
15

>  <hydrogen_bond_acceptors>  (1536) 
8

>  <hydrogen_bond_donors>  (1536) 
2

>  <hydrogen_bond_acceptors_lipinski>  (1536) 
8

>  <hydrogen_bond_donors_lipinski>  (1536) 
2

>  <lipinski_rule_of_five_violations>  (1536) 
2

>  <aromatic_rings_count>  (1536) 
0

>  <qed_drug_likeliness>  (1536) 
0.10

>  <formal_charge>  (1536) 
0

>  <fractioncsp3>  (1536) 
0.77

>  <number_of_minimal_rings>  (1536) 
3

>  <van_der_walls_volume>  (1536) 
576.99

>  <contains_sugar>  (1536) 
False

>  <contains_ring_sugars>  (1536) 
False

>  <contains_linear_sugars>  (1536) 
False

>  <murcko_framework>  (1536) 
O1CC2=CCCC3CCCCC23C1

>  <np_likeness>  (1536) 
2.93

>  <chemical_class>  (1536) 
Prenol lipids

>  <chemical_sub_class>  (1536) 
Diterpenoids

>  <chemical_super_class>  (1536) 
Lipids and lipid-like molecules

>  <direct_parent_classification>  (1536) 
Colensane and clerodane diterpenoids

>  <np_classifier_pathway>  (1536) 
Terpenoids

>  <np_classifier_superclass>  (1536) 
Diterpenoids

>  <np_classifier_class>  (1536) 
Colensane and Clerodane diterpenoids

>  <np_classifier_is_glycoside>  (1536) 
True

>  <organisms>  (1536) 
Casearia sylvestris

>  <collections>  (1536) 
ChemSpider NPs|Latin America dataset|NuBBEDB|Super Natural II|WikiData Natural Products|ZINC NP

>  <dois>  (1536) 
10.1002/PCA.902|10.1002/pca.902|10.1248/CPB.38.3384

>  <synonyms>  (1536) 
Casearin E

>  <cas>  (1536) 
nan

$$$$

     RDKit          2D

 27 31  0  0  0  0  0  0  0  0999 V2000
    8.4844   -0.9638    0.0000 C   0  0  0  0  0  0  0  0  0  0  0  0
    7.4948    0.1635    0.0000 O   0  0  0  0  0  0  0  0  0  0  0  0
    6.0238   -0.1299    0.0000 C   0  0  0  0  0  0  0  0  0  0  0  0
    5.5423   -1.5506    0.0000 C   0  0  0  0  0  0  0  0  0  0  0  0
    4.0713   -1.8439    0.0000 C   0  0  0  0  0  0  0  0  0  0  0  0
    3.0817   -0.7167    0.0000 C   0  0  0  0  0  0  0  0  0  0  0  0
    1.6107   -1.0101    0.0000 C   0  0  0  0  0  0  0  0  0  0  0  0
    0.9834   -2.3726    0.0000 O   0  0  0  0  0  0  0  0  0  0  0  0
   -0.5063   -2.1971    0.0000 C   0  0  0  0  0  0  0  0  0  0  0  0
   -0.7997   -0.7260    0.0000 C   0  0  0  0  0  0  0  0  0  0  0  0
    0.5087    0.0076    0.0000 C   0  0  0  0  0  0  0  0  0  0  0  0
    0.2153    1.4786    0.0000 C   0  0  0  0  0  0  0  0  0  0  0  0
   -1.2744    1.6541    0.0000 O   0  0  0  0  0  0  0  0  0  0  0  0
   -1.9017    0.2916    0.0000 C   0  0  0  0  0  0  0  0  0  0  0  0
   -3.3727   -0.0018    0.0000 C   0  0  0  0  0  0  0  0  0  0  0  0
   -3.8542   -1.4224    0.0000 C   0  0  0  0  0  0  0  0  0  0  0  0
   -5.3252   -1.7158    0.0000 C   0  0  0  0  0  0  0  0  0  0  0  0
   -6.3148   -0.5886    0.0000 C   0  0  0  0  0  0  0  0  0  0  0  0
   -7.8147   -0.5697    0.0000 O   0  0  0  0  0  0  0  0  0  0  0  0
   -8.2602    0.8626    0.0000 C   0  0  0  0  0  0  0  0  0  0  0  0
   -7.0357    1.7290    0.0000 O   0  0  0  0  0  0  0  0  0  0  0  0
   -5.8333    0.8321    0.0000 C   0  0  0  0  0  0  0  0  0  0  0  0
   -4.3623    1.1255    0.0000 C   0  0  0  0  0  0  0  0  0  0  0  0
    3.5631    0.7039    0.0000 C   0  0  0  0  0  0  0  0  0  0  0  0
    5.0342    0.9973    0.0000 C   0  0  0  0  0  0  0  0  0  0  0  0
    5.5156    2.4180    0.0000 O   0  0  0  0  0  0  0  0  0  0  0  0
    4.5260    3.5452    0.0000 C   0  0  0  0  0  0  0  0  0  0  0  0
  1  2  1  0
  2  3  1  0
  3  4  2  0
  4  5  1  0
  5  6  2  0
  7  6  1  6
  7  8  1  0
  8  9  1  0
 10  9  1  6
 10 11  1  0
 11 12  1  6
 12 13  1  0
 13 14  1  0
 14 15  1  1
 15 16  2  0
 16 17  1  0
 17 18  2  0
 18 19  1  0
 19 20  1  0
 20 21  1  0
 21 22  1  0
 22 23  2  0
  6 24  1  0
 24 25  2  0
 25 26  1  0
 26 27  1  0
 25  3  1  0
 11  7  1  0
 23 15  1  0
 14 10  1  0
 22 18  1  0
M  END
>  <identifier>  (1537) 
CNP0140264.3

>  <canonical_smiles>  (1537) 
COC1=CC=C([C@@H]2OC[C@H]3[C@@H]2CO[C@@H]3C2=CC=C3OCOC3=C2)C=C1OC

>  <standard_inchi>  (1537) 
InChI=1S/C21H22O6/c1-22-16-5-3-12(7-18(16)23-2)20-14-9-25-21(15(14)10-24-20)13-4-6-17-19(8-13)27-11-26-17/h3-8,14-15,20-21H,9-11H2,1-2H3/t14-,15-,20-,21+/m0/s1

>  <standard_inchi_key>  (1537) 
AWOGQCSIVCQXBT-LATRNWQMSA-N

>  <name>  (1537) 
Fargesin

>  <iupac_name>  (1537) 
5-[(3~{S},3~{a}~{R},6~{R},6~{a}~{R})-6-(3,4-dimethoxyphenyl)-1,3,3~{a},4,6,6~{a}-hexahydrofuro[3,4-c]furan-3-yl]-1,3-benzodioxole

>  <annotation_level>  (1537) 
5

>  <total_atom_count>  (1537) 
49

>  <heavy_atom_count>  (1537) 
27

>  <molecular_weight>  (1537) 
370.4

>  <exact_molecular_weight>  (1537) 
370.14164

>  <molecular_formula>  (1537) 
C21H22O6

>  <alogp>  (1537) 
3.51

>  <topological_polar_surface_area>  (1537) 
55.38

>  <rotatable_bond_count>  (1537) 
4

>  <hydrogen_bond_acceptors>  (1537) 
6

>  <hydrogen_bond_donors>  (1537) 
0

>  <hydrogen_bond_acceptors_lipinski>  (1537) 
6

>  <hydrogen_bond_donors_lipinski>  (1537) 
0

>  <lipinski_rule_of_five_violations>  (1537) 
0

>  <aromatic_rings_count>  (1537) 
2

>  <qed_drug_likeliness>  (1537) 
0.82

>  <formal_charge>  (1537) 
0

>  <fractioncsp3>  (1537) 
0.43

>  <number_of_minimal_rings>  (1537) 
5

>  <van_der_walls_volume>  (1537) 
324.69

>  <contains_sugar>  (1537) 
False

>  <contains_ring_sugars>  (1537) 
False

>  <contains_linear_sugars>  (1537) 
False

>  <murcko_framework>  (1537) 
O1c2ccc(cc2OC1)C3OCC4C(OCC34)c5ccccc5

>  <np_likeness>  (1537) 
0.75

>  <chemical_class>  (1537) 
Furanoid lignans

>  <chemical_sub_class>  (1537) 
Furan lignans

>  <chemical_super_class>  (1537) 
Lignans, neolignans and related compounds

>  <direct_parent_classification>  (1537) 
Furan lignans

>  <np_classifier_pathway>  (1537) 
Shikimates and Phenylpropanoids

>  <np_classifier_superclass>  (1537) 
Lignans

>  <np_classifier_class>  (1537) 
Furofuranoid lignans

>  <np_classifier_is_glycoside>  (1537) 
False

>  <organisms>  (1537) 
Achillea lingulata|Aristolochia albida|Aristolochia cymbifera|Aristolochia galeata|Aristolochia labiata|Aristolochia ringens|Artemisia absinthium|Artemisia arborescens|Corydalis suaveolens|Dendranthema sp.|Dryobalanops camphora|Ertela trifolia|Ertela trifolia L. Kuntze|Farfugium japonicum|Lophocolea bidentata|Magnolia biondii|Magnolia coco|Magnolia denudata|Magnolia fargesii|Magnolia fargesii CHENG|Magnolia kobus|Magnolia kobus var. borealis|Magnolia pterocarpa|Magnolia salicifolia|Magnolia sp.|Magnolia sprengeri|Myristicaceae|Peperomia filiformis|Piper austrosinense|Piper brachystachyum|Piper eucalyptifolium|Piper longum|Piper mullesua|Pseudodistoma novaezelandiae|Raulinoa echinata|Samadera bidwillii|Stauranthus perforatus|Talauma hodgsonii|Virola elongata|Virola flexuosa|Virola michelii|Virola sebifera|Virola venosa|Zanthoxylum Armatum|Zanthoxylum acanthopodium|Zanthoxylum acuminatum|Zanthoxylum alatum|Zanthoxylum armatum|Zanthoxylum myriacanthum|Zanthoxylum sp.

>  <collections>  (1537) 
CMAUP (cCollective molecular activities of useful plants)|ChemSpider NPs|KNApSaCK|Latin America dataset|NAPRORE-CR|NPASS|NPEdia|NuBBEDB|PhytoLab phyproof® Reference Substances|Super Natural II|TCMDB-Taiwan (Traditional Chinese Medicine database)|TIPdb (database of Taiwan indigenous plants)|VietHerb|WikiData Natural Products

>  <dois>  (1537) 
10.1002/CHIN.200533260|10.1002/JCCS.199800116|10.1016/0031-9422(88)80139-0|10.1016/0031-9422(88)80760-X|10.1016/0031-9422(91)83055-P|10.1016/0031-9422(92)83495-K|10.1016/0031-9422(95)00464-I|10.1016/0031-9422(95)00578-1|10.1016/0040-4020(80)88051-3|10.1016/J.PHYTOCHEM.2004.12.028|10.1016/J.PHYTOCHEM.2007.08.009|10.1016/S0021-9673(99)00191-0|10.1016/S0031-9422(00)81816-6|10.1016/S0031-9422(00)82577-7|10.1016/S0031-9422(00)84118-7|10.1016/S0031-9422(00)94552-7|10.1016/S0031-9422(96)00708-X|10.1021/NP970571D|10.1021/NP980224J|10.1055/S-1999-14093|10.1055/S-2006-962492|10.1093/JAOAC/83.6.1484|10.1248/CPB.55.137|10.2298/JSC0305277T

>  <synonyms>  (1537) 
( inverted exclamation markA)-Fargesin|(+\/-)-Fargesin|1H,3H-FURO(3,4-C)FURAN, 1.ALPHA.-(3,4-DIMETHOXYPHENYL)-3A.BETA.,4,6,6A.BETA.-TETRAHYDRO-4.BETA.-((3,4-METHYLENEDIOXY)PHENYL)-|31008-19-2|5-[(3S,3aR,6R,6aR)-6-(3,4-dimethoxyphenyl)-1,3,3a,4,6,6a-hexahydrofuro[3,4-c]furan-3-yl]-1,3-benzodioxole|AKOS025311589|AS-55997|CCG-268297|CHEMBL2442732|DTXSID901317922|Demethoxyaschantin|F1188|Fargesin|MFCD07781423|Methyl pluviatilol|Q-100392|SCHEMBL15273910|rel-5-((1S,3aR,4R,6aR)-4-(3,4-Dimethoxyphenyl)tetrahydro-1H,3H-furo[3,4-c]furan-1-yl)benzo[d][1,3]dioxole|rel-5-[(1R,3aS,4S,6aS)-4-(3,4-Dimethoxyphenyl)tetrahydro-1H,3H-furo[3,4-c]furan-1-yl]-1,3-benzodioxole|s9285

>  <cas>  (1537) 
31008-19-2|68296-27-5

$$$$

     RDKit          2D

 30 32  0  0  0  0  0  0  0  0999 V2000
   -8.8477   -0.5877    0.0000 C   0  0  0  0  0  0  0  0  0  0  0  0
   -7.3621   -0.3803    0.0000 C   0  0  0  0  0  0  0  0  0  0  0  0
   -6.4397   -1.5632    0.0000 C   0  0  0  0  0  0  0  0  0  0  0  0
   -7.0028   -2.9534    0.0000 C   0  0  0  0  0  0  0  0  0  0  0  0
   -4.9541   -1.3557    0.0000 C   0  0  0  0  0  0  0  0  0  0  0  0
   -4.3909    0.0345    0.0000 C   0  0  0  0  0  0  0  0  0  0  0  0
   -2.9053    0.2420    0.0000 C   0  0  0  0  0  0  0  0  0  0  0  0
   -2.3422    1.6322    0.0000 C   0  0  0  0  0  0  0  0  0  0  0  0
   -0.8566    1.8397    0.0000 C   0  0  0  0  0  0  0  0  0  0  0  0
   -0.2934    3.2299    0.0000 C   0  0  0  0  0  0  0  0  0  0  0  0
   -1.2158    4.4128    0.0000 Cl  0  0  0  0  0  0  0  0  0  0  0  0
    1.1922    3.4374    0.0000 C   0  0  0  0  0  0  0  0  0  0  0  0
    1.7553    4.8276    0.0000 O   0  0  0  0  0  0  0  0  0  0  0  0
    2.1146    2.2545    0.0000 C   0  0  0  0  0  0  0  0  0  0  0  0
    2.8200    3.5783    0.0000 C   0  0  0  0  0  0  0  0  0  0  0  0
    3.6109    2.1485    0.0000 O   0  0  0  0  0  0  0  0  0  0  0  0
    3.9724    0.6928    0.0000 C   0  0  0  0  0  0  0  0  0  0  0  0
    5.3627    0.1296    0.0000 O   0  0  0  0  0  0  0  0  0  0  0  0
    2.6996   -0.1010    0.0000 C   0  0  0  0  0  0  0  0  0  0  0  0
    2.5937   -1.5972    0.0000 C   0  0  0  0  0  0  0  0  0  0  0  0
    1.2449   -2.2536    0.0000 O   0  0  0  0  0  0  0  0  0  0  0  0
    3.8365   -2.4371    0.0000 C   0  0  0  0  0  0  0  0  0  0  0  0
    5.1852   -1.7808    0.0000 C   0  0  0  0  0  0  0  0  0  0  0  0
    3.7305   -3.9334    0.0000 C   0  0  0  0  0  0  0  0  0  0  0  0
    2.3817   -4.5897    0.0000 C   0  0  0  0  0  0  0  0  0  0  0  0
    4.9733   -4.7733    0.0000 O   0  0  0  0  0  0  0  0  0  0  0  0
    1.5514    0.8642    0.0000 C   0  0  0  0  0  0  0  0  0  0  0  0
    0.0659    0.6568    0.0000 C   0  0  0  0  0  0  0  0  0  0  0  0
   -0.4973   -0.7335    0.0000 C   0  0  0  0  0  0  0  0  0  0  0  0
   -1.9829   -0.9409    0.0000 O   0  0  0  0  0  0  0  0  0  0  0  0
  1  2  1  0
  2  3  1  0
  3  4  1  1
  3  5  1  0
  5  6  2  0
  6  7  1  0
  7  8  2  0
  8  9  1  0
  9 10  2  0
 10 11  1  0
 10 12  1  0
 12 13  2  0
 12 14  1  0
 14 15  1  6
 14 16  1  0
 16 17  1  0
 17 18  2  0
 17 19  1  0
 19 20  1  0
 20 21  2  0
 20 22  1  0
 22 23  1  1
 22 24  1  0
 24 25  1  1
 24 26  1  0
 19 27  2  0
 27 28  1  0
 28 29  2  0
 29 30  1  0
 30  7  1  0
 28  9  1  0
 27 14  1  0
M  END
>  <identifier>  (1538) 
CNP0208255.2

>  <canonical_smiles>  (1538) 
CC[C@H](C)/C=C/C1=CC2=C(Cl)C(=O)[C@@]3(C)OC(=O)C(C(=O)[C@@H](C)[C@H](C)O)=C3C2=CO1

>  <standard_inchi>  (1538) 
InChI=1S/C23H25ClO6/c1-6-11(2)7-8-14-9-15-16(10-29-14)18-17(20(26)12(3)13(4)25)22(28)30-23(18,5)21(27)19(15)24/h7-13,25H,6H2,1-5H3/b8-7+/t11-,12-,13-,23-/m0/s1

>  <standard_inchi_key>  (1538) 
HWSQVPGTQUYLEQ-XURDPWNDSA-N

>  <name>  (1538) 
5'-Epichaetoviridin A

>  <iupac_name>  (1538) 
(6~{a}~{S})-5-chloro-9-[(2~{S},3~{S})-3-hydroxy-2-methyl-butanoyl]-6~{a}-methyl-3-[(~{E},3~{S})-3-methylpent-1-enyl]furo[2,3-h]isochromene-6,8-dione

>  <annotation_level>  (1538) 
5

>  <total_atom_count>  (1538) 
55

>  <heavy_atom_count>  (1538) 
30

>  <molecular_weight>  (1538) 
432.9

>  <exact_molecular_weight>  (1538) 
432.13397

>  <molecular_formula>  (1538) 
C23H25ClO6

>  <alogp>  (1538) 
3.66

>  <topological_polar_surface_area>  (1538) 
89.90

>  <rotatable_bond_count>  (1538) 
6

>  <hydrogen_bond_acceptors>  (1538) 
6

>  <hydrogen_bond_donors>  (1538) 
1

>  <hydrogen_bond_acceptors_lipinski>  (1538) 
6

>  <hydrogen_bond_donors_lipinski>  (1538) 
1

>  <lipinski_rule_of_five_violations>  (1538) 
0

>  <aromatic_rings_count>  (1538) 
0

>  <qed_drug_likeliness>  (1538) 
0.51

>  <formal_charge>  (1538) 
0

>  <fractioncsp3>  (1538) 
0.44

>  <number_of_minimal_rings>  (1538) 
3

>  <van_der_walls_volume>  (1538) 
381.66

>  <contains_sugar>  (1538) 
False

>  <contains_ring_sugars>  (1538) 
False

>  <contains_linear_sugars>  (1538) 
False

>  <murcko_framework>  (1538) 
O1C=CC2=CCC3OCC=C3C2=C1

>  <np_likeness>  (1538) 
2.77

>  <chemical_class>  (1538) 
Organooxygen compounds

>  <chemical_sub_class>  (1538) 
Carbonyl compounds

>  <chemical_super_class>  (1538) 
Organic oxygen compounds

>  <direct_parent_classification>  (1538) 
Cyclohexenones

>  <np_classifier_pathway>  (1538) 
Polyketides

>  <np_classifier_superclass>  (1538) 
Chromanes

>  <np_classifier_class>  (1538) 
Azaphilones

>  <np_classifier_is_glycoside>  (1538) 
False

>  <organisms>  (1538) 
Chaetomium cochliodes|Chaetomium cochliodes VTh01|Chaetomium globosum

>  <collections>  (1538) 
ChEBI NPs|Latin America dataset|NPASS|NPAtlas|NuBBEDB|Super Natural II|WikiData Natural Products

>  <dois>  (1538) 
10.1016/J.TET.2008.07.040|10.1016/j.tet.2008.07.040|10.1021/NP200110F|10.1021/np200110f

>  <synonyms>  (1538) 
(6aS)-5-Chloro-9-[(2S,3S)-3-hydroxy-2-methyl-1-oxobutyl]-6a-methyl-3-[(1E,3S)-3-methyl-1-penten-1-yl]-6H-furo[2,3-h]-2-benzopyran-6,8(6aH)-dione|(6aS)-5-chloro-9-[(2S,3S)-3-hydroxy-2-methylbutanoyl]-6a-methyl-3-[(1E,3S)-3-methylpent-1-en-1-yl]-6H-furo[2,3-h]isochromene-6,8(6aH)-dione|1071868-68-2|5'-epi-Chaetoviridin A|CHEBI:67615|CHEMBL1802155|DTXSID301100729|Q27136082

>  <cas>  (1538) 
nan

$$$$

     RDKit          2D

 41 45  0  0  0  0  0  0  0  0999 V2000
   -2.3896    3.6572    0.0000 O   0  0  0  0  0  0  0  0  0  0  0  0
   -1.2773    2.6509    0.0000 C   0  0  0  0  0  0  0  0  0  0  0  0
    0.1504    3.1111    0.0000 C   0  0  0  0  0  0  0  0  0  0  0  0
    0.4657    4.5776    0.0000 C   0  0  0  0  0  0  0  0  0  0  0  0
    1.8934    5.0377    0.0000 C   0  0  0  0  0  0  0  0  0  0  0  0
    3.0057    4.0314    0.0000 C   0  0  0  0  0  0  0  0  0  0  0  0
    4.4334    4.4916    0.0000 C   0  0  0  0  0  0  0  0  0  0  0  0
    4.7487    5.9581    0.0000 C   0  0  0  0  0  0  0  0  0  0  0  0
    6.1764    6.4183    0.0000 O   0  0  0  0  0  0  0  0  0  0  0  0
    3.6363    6.9644    0.0000 C   0  0  0  0  0  0  0  0  0  0  0  0
    2.2087    6.5042    0.0000 C   0  0  0  0  0  0  0  0  0  0  0  0
   -1.5926    1.1844    0.0000 O   0  0  0  0  0  0  0  0  0  0  0  0
   -3.0203    0.7242    0.0000 C   0  0  0  0  0  0  0  0  0  0  0  0
   -4.1326    1.7305    0.0000 C   0  0  0  0  0  0  0  0  0  0  0  0
   -3.8173    3.1970    0.0000 O   0  0  0  0  0  0  0  0  0  0  0  0
   -5.5603    1.2704    0.0000 C   0  0  0  0  0  0  0  0  0  0  0  0
   -6.6726    2.2767    0.0000 O   0  0  0  0  0  0  0  0  0  0  0  0
   -5.8756   -0.1961    0.0000 C   0  0  0  0  0  0  0  0  0  0  0  0
   -7.3033   -0.6563    0.0000 C   0  0  0  0  0  0  0  0  0  0  0  0
   -7.6186   -2.1228    0.0000 O   0  0  0  0  0  0  0  0  0  0  0  0
   -4.7632   -1.2024    0.0000 O   0  0  0  0  0  0  0  0  0  0  0  0
   -3.3356   -0.7423    0.0000 C   0  0  0  0  0  0  0  0  0  0  0  0
   -2.2232   -1.7486    0.0000 C   0  0  0  0  0  0  0  0  0  0  0  0
   -2.5385   -3.2150    0.0000 C   0  0  0  0  0  0  0  0  0  0  0  0
   -3.9662   -3.6752    0.0000 O   0  0  0  0  0  0  0  0  0  0  0  0
   -1.4262   -4.2214    0.0000 C   0  0  0  0  0  0  0  0  0  0  0  0
    0.0015   -3.7612    0.0000 C   0  0  0  0  0  0  0  0  0  0  0  0
    1.1139   -4.7675    0.0000 O   0  0  0  0  0  0  0  0  0  0  0  0
    2.5415   -4.3073    0.0000 C   0  0  0  0  0  0  0  0  0  0  0  0
    3.6539   -5.3136    0.0000 C   0  0  0  0  0  0  0  0  0  0  0  0
    5.0816   -4.8534    0.0000 C   0  0  0  0  0  0  0  0  0  0  0  0
    6.1939   -5.8598    0.0000 O   0  0  0  0  0  0  0  0  0  0  0  0
    5.3969   -3.3870    0.0000 C   0  0  0  0  0  0  0  0  0  0  0  0
    6.8245   -2.9268    0.0000 O   0  0  0  0  0  0  0  0  0  0  0  0
    4.2845   -2.3807    0.0000 C   0  0  0  0  0  0  0  0  0  0  0  0
    2.8568   -2.8408    0.0000 C   0  0  0  0  0  0  0  0  0  0  0  0
    1.7445   -1.8345    0.0000 C   0  0  0  0  0  0  0  0  0  0  0  0
    2.0598   -0.3680    0.0000 O   0  0  0  0  0  0  0  0  0  0  0  0
    0.3168   -2.2947    0.0000 C   0  0  0  0  0  0  0  0  0  0  0  0
   -0.7955   -1.2884    0.0000 C   0  0  0  0  0  0  0  0  0  0  0  0
   -0.4802    0.1781    0.0000 O   0  0  0  0  0  0  0  0  0  0  0  0
  1  2  2  0
  2  3  1  0
  3  4  2  0
  4  5  1  0
  5  6  2  0
  6  7  1  0
  7  8  2  0
  8  9  1  0
  8 10  1  0
 10 11  2  0
  2 12  1  0
 13 12  1  1
 13 14  1  0
 14 15  1  6
 14 16  1  0
 16 17  1  1
 16 18  1  0
 18 19  1  6
 19 20  1  0
 18 21  1  0
 21 22  1  0
 22 23  1  6
 23 24  2  0
 24 25  1  0
 24 26  1  0
 26 27  2  0
 27 28  1  0
 28 29  1  0
 29 30  2  0
 30 31  1  0
 31 32  1  0
 31 33  2  0
 33 34  1  0
 33 35  1  0
 35 36  2  0
 36 37  1  0
 37 38  2  0
 37 39  1  0
 39 40  2  0
 40 41  1  0
 11  5  1  0
 22 13  1  0
 40 23  1  0
 39 27  1  0
 36 29  1  0
M  END
>  <identifier>  (1539) 
CNP0277251.1

>  <canonical_smiles>  (1539) 
O=C(/C=C/C1=CC=C(O)C=C1)O[C@@H]1[C@@H](O)[C@H](O)[C@@H](CO)O[C@H]1C1=C(O)C=C2OC3=CC(O)=C(O)C=C3C(=O)C2=C1O

>  <standard_inchi>  (1539) 
InChI=1S/C28H24O13/c29-10-19-24(36)26(38)28(41-20(34)6-3-11-1-4-12(30)5-2-11)27(40-19)21-16(33)9-18-22(25(21)37)23(35)13-7-14(31)15(32)8-17(13)39-18/h1-9,19,24,26-33,36-38H,10H2/b6-3+/t19-,24-,26+,27+,28-/m1/s1

>  <standard_inchi_key>  (1539) 
IEOFCWJJHJJKMH-CUZKZROISA-N

>  <name>  (1539) 
[(2S,3R,4S,5S,6R)-4,5-dihydroxy-6-(hydroxymethyl)-2-(1,3,6,7-tetrahydroxy-9-oxoxanthen-2-yl)oxan-3-yl] (E)-3-(4-hydroxyphenyl)prop-2-enoate

>  <iupac_name>  (1539) 
[(2~{S},3~{R},4~{S},5~{S},6~{R})-4,5-dihydroxy-6-(hydroxymethyl)-2-(1,3,6,7-tetrahydroxy-9-oxo-xanthen-2-yl)tetrahydropyran-3-yl] (~{E})-3-(4-hydroxyphenyl)prop-2-enoate

>  <annotation_level>  (1539) 
5

>  <total_atom_count>  (1539) 
65

>  <heavy_atom_count>  (1539) 
41

>  <molecular_weight>  (1539) 
568.49

>  <exact_molecular_weight>  (1539) 
568.12169

>  <molecular_formula>  (1539) 
C28H24O13

>  <alogp>  (1539) 
1.25

>  <topological_polar_surface_area>  (1539) 
227.58

>  <rotatable_bond_count>  (1539) 
5

>  <hydrogen_bond_acceptors>  (1539) 
13

>  <hydrogen_bond_donors>  (1539) 
8

>  <hydrogen_bond_acceptors_lipinski>  (1539) 
13

>  <hydrogen_bond_donors_lipinski>  (1539) 
8

>  <lipinski_rule_of_five_violations>  (1539) 
3

>  <aromatic_rings_count>  (1539) 
4

>  <qed_drug_likeliness>  (1539) 
0.07

>  <formal_charge>  (1539) 
0

>  <fractioncsp3>  (1539) 
0.21

>  <number_of_minimal_rings>  (1539) 
5

>  <van_der_walls_volume>  (1539) 
460.24

>  <contains_sugar>  (1539) 
True

>  <contains_ring_sugars>  (1539) 
True

>  <contains_linear_sugars>  (1539) 
False

>  <murcko_framework>  (1539) 
O1c2ccccc2Cc3cc(ccc13)C4OCCCC4OCC=Cc5ccccc5

>  <np_likeness>  (1539) 
1.90

>  <chemical_class>  (1539) 
Benzopyrans

>  <chemical_sub_class>  (1539) 
1-benzopyrans

>  <chemical_super_class>  (1539) 
Organoheterocyclic compounds

>  <direct_parent_classification>  (1539) 
Xanthones

>  <np_classifier_pathway>  (1539) 
Shikimates and Phenylpropanoids

>  <np_classifier_superclass>  (1539) 
Xanthones

>  <np_classifier_class>  (1539) 
Plant xanthones

>  <np_classifier_is_glycoside>  (1539) 
False

>  <organisms>  (1539) 
Arrabidaea samydoides|Fridericia samydoides

>  <collections>  (1539) 
ChemSpider NPs|Latin America dataset|NPASS|NuBBEDB|Super Natural II|WikiData Natural Products|ZINC NP

>  <dois>  (1539) 
10.1021/NP030100T|10.1021/np030100t

>  <synonyms>  (1539) 
2-(2'-O-transcoumaroyl)-C-\u221a\u00e9\u00ac\u2264-D-glucopyranosyl-1367-tetrahydroxyxanthone|CHEMBL499543

>  <cas>  (1539) 
nan

$$$$

     RDKit          2D

 44 47  0  0  0  0  0  0  0  0999 V2000
    7.5884   -3.8424    0.0000 C   0  0  0  0  0  0  0  0  0  0  0  0
    7.8504   -2.3655    0.0000 C   0  0  0  0  0  0  0  0  0  0  0  0
    6.7022   -1.4002    0.0000 C   0  0  0  0  0  0  0  0  0  0  0  0
    6.9641    0.0768    0.0000 C   0  0  0  0  0  0  0  0  0  0  0  0
    5.2922   -1.9118    0.0000 C   0  0  0  0  0  0  0  0  0  0  0  0
    4.1441   -0.9465    0.0000 C   0  0  0  0  0  0  0  0  0  0  0  0
    2.0765   -1.2181    0.0000 C   0  0  0  0  0  0  0  0  0  0  0  0
    3.4828   -2.7580    0.0000 C   0  0  0  0  0  0  0  0  0  0  0  0
    2.4750    0.0193    0.0000 C   0  0  0  0  0  0  0  0  0  0  0  0
    3.6250    0.9823    0.0000 C   0  0  0  0  0  0  0  0  0  0  0  0
    3.3660    2.4598    0.0000 C   0  0  0  0  0  0  0  0  0  0  0  0
    4.5160    3.4229    0.0000 O   0  0  0  0  0  0  0  0  0  0  0  0
    5.9250    2.9085    0.0000 C   0  0  0  0  0  0  0  0  0  0  0  0
    7.0750    3.8715    0.0000 C   0  0  0  0  0  0  0  0  0  0  0  0
    6.1840    1.4310    0.0000 O   0  0  0  0  0  0  0  0  0  0  0  0
    1.9569    2.9742    0.0000 C   0  0  0  0  0  0  0  0  0  0  0  0
    0.8069    2.0111    0.0000 C   0  0  0  0  0  0  0  0  0  0  0  0
   -0.6783    2.2214    0.0000 C   0  0  0  0  0  0  0  0  0  0  0  0
   -1.3812    3.5465    0.0000 O   0  0  0  0  0  0  0  0  0  0  0  0
   -2.8802    3.6003    0.0000 C   0  0  0  0  0  0  0  0  0  0  0  0
   -3.5831    4.9254    0.0000 C   0  0  0  0  0  0  0  0  0  0  0  0
   -3.6763    2.3290    0.0000 O   0  0  0  0  0  0  0  0  0  0  0  0
   -1.3371    0.8738    0.0000 O   0  0  0  0  0  0  0  0  0  0  0  0
   -0.2592   -0.1692    0.0000 C   0  0  0  0  0  0  0  0  0  0  0  0
   -0.4694   -1.6544    0.0000 O   0  0  0  0  0  0  0  0  0  0  0  0
   -1.8607   -2.2150    0.0000 C   0  0  0  0  0  0  0  0  0  0  0  0
   -2.0709   -3.7002    0.0000 C   0  0  0  0  0  0  0  0  0  0  0  0
   -3.2304   -1.6036    0.0000 O   0  0  0  0  0  0  0  0  0  0  0  0
    1.0660    0.5337    0.0000 C   0  0  0  0  0  0  0  0  0  0  0  0
    0.5735   -0.6694    0.0000 C   0  0  0  0  0  0  0  0  0  0  0  0
   -1.4931    0.0850    0.0000 O   0  0  0  0  0  0  0  0  0  0  0  0
   -2.6431   -0.8780    0.0000 C   0  0  0  0  0  0  0  0  0  0  0  0
   -2.7493   -2.3743    0.0000 O   0  0  0  0  0  0  0  0  0  0  0  0
   -4.0521   -0.3636    0.0000 C   0  0  0  0  0  0  0  0  0  0  0  0
   -5.2021   -1.3267    0.0000 C   0  0  0  0  0  0  0  0  0  0  0  0
   -6.6112   -0.8123    0.0000 C   0  0  0  0  0  0  0  0  0  0  0  0
   -6.8702    0.6652    0.0000 C   0  0  0  0  0  0  0  0  0  0  0  0
   -8.2792    1.1796    0.0000 C   0  0  0  0  0  0  0  0  0  0  0  0
   -9.4293    0.2165    0.0000 C   0  0  0  0  0  0  0  0  0  0  0  0
   -9.1702   -1.2609    0.0000 C   0  0  0  0  0  0  0  0  0  0  0  0
   -7.7612   -1.7753    0.0000 C   0  0  0  0  0  0  0  0  0  0  0  0
    0.7117   -1.4574    0.0000 C   0  0  0  0  0  0  0  0  0  0  0  0
    1.4631   -1.7318    0.0000 C   0  0  0  0  0  0  0  0  0  0  0  0
    1.8431   -3.8987    0.0000 C   0  0  0  0  0  0  0  0  0  0  0  0
  1  2  2  0
  2  3  1  0
  3  4  1  0
  3  5  2  0
  5  6  1  0
  6  7  1  0
  7  8  1  6
  7  9  1  0
  9 10  1  6
 10 11  1  0
 11 12  1  1
 12 13  1  0
 13 14  1  0
 13 15  2  0
 11 16  1  0
 16 17  2  0
 17 18  1  0
 18 19  1  1
 19 20  1  0
 20 21  1  0
 20 22  2  0
 18 23  1  0
 23 24  1  0
 24 25  1  6
 25 26  1  0
 26 27  1  0
 26 28  2  0
 24 29  1  0
 29 30  1  0
 30 31  1  1
 31 32  1  0
 32 33  2  0
 32 34  1  0
 34 35  2  0
 35 36  1  0
 36 37  2  0
 37 38  1  0
 38 39  2  0
 39 40  1  0
 40 41  2  0
 30 42  1  0
 42 43  1  0
 43 44  1  1
 43  7  1  0
 29  9  1  0
 41 36  1  0
 29 17  1  6
M  END
>  <identifier>  (1540) 
CNP0353335.1

>  <canonical_smiles>  (1540) 
C=C/C(C)=C/C[C@]1(C)[C@H]2C[C@H](OC(C)=O)C=C3[C@H](OC(C)=O)O[C@@H](OC(C)=O)[C@@]32[C@H](OC(=O)/C=C/C2=CC=CC=C2)C[C@@H]1C

>  <standard_inchi>  (1540) 
InChI=1S/C35H42O9/c1-8-21(2)16-17-34(7)22(3)18-30(43-31(39)15-14-26-12-10-9-11-13-26)35-28(19-27(20-29(34)35)40-23(4)36)32(41-24(5)37)44-33(35)42-25(6)38/h8-16,19,22,27,29-30,32-33H,1,17-18,20H2,2-7H3/b15-14+,21-16+/t22-,27+,29+,30+,32+,33+,34-,35-/m0/s1

>  <standard_inchi_key>  (1540) 
NCMOHDQDZGQJRD-IHWQLOKJSA-N

>  <name>  (1540) 
Caseobliquin B

>  <iupac_name>  (1540) 
[(1~{S},3~{S},5~{S},6~{a}~{R},7~{S},8~{S},10~{R},10~{a}~{R})-1,3,5-triacetoxy-7,8-dimethyl-7-[(2~{E})-3-methylpenta-2,4-dienyl]-1,3,5,6,6~{a},8,9,10-octahydrobenzo[d]isobenzofuran-10-yl] (~{E})-3-phenylprop-2-enoate

>  <annotation_level>  (1540) 
5

>  <total_atom_count>  (1540) 
86

>  <heavy_atom_count>  (1540) 
44

>  <molecular_weight>  (1540) 
606.71

>  <exact_molecular_weight>  (1540) 
606.28288

>  <molecular_formula>  (1540) 
C35H42O9

>  <alogp>  (1540) 
5.85

>  <topological_polar_surface_area>  (1540) 
114.43

>  <rotatable_bond_count>  (1540) 
9

>  <hydrogen_bond_acceptors>  (1540) 
9

>  <hydrogen_bond_donors>  (1540) 
0

>  <hydrogen_bond_acceptors_lipinski>  (1540) 
9

>  <hydrogen_bond_donors_lipinski>  (1540) 
0

>  <lipinski_rule_of_five_violations>  (1540) 
2

>  <aromatic_rings_count>  (1540) 
1

>  <qed_drug_likeliness>  (1540) 
0.11

>  <formal_charge>  (1540) 
0

>  <fractioncsp3>  (1540) 
0.49

>  <number_of_minimal_rings>  (1540) 
4

>  <van_der_walls_volume>  (1540) 
560.21

>  <contains_sugar>  (1540) 
False

>  <contains_ring_sugars>  (1540) 
False

>  <contains_linear_sugars>  (1540) 
False

>  <murcko_framework>  (1540) 
O1CC2=CCCC3CCCC(OCC=Cc4ccccc4)C23C1

>  <np_likeness>  (1540) 
2.86

>  <chemical_class>  (1540) 
Prenol lipids

>  <chemical_sub_class>  (1540) 
Diterpenoids

>  <chemical_super_class>  (1540) 
Lipids and lipid-like molecules

>  <direct_parent_classification>  (1540) 
Colensane and clerodane diterpenoids

>  <np_classifier_pathway>  (1540) 
Terpenoids

>  <np_classifier_superclass>  (1540) 
Diterpenoids

>  <np_classifier_class>  (1540) 
Colensane and Clerodane diterpenoids

>  <np_classifier_is_glycoside>  (1540) 
True

>  <organisms>  (1540) 
Casearia obliqua

>  <collections>  (1540) 
ChemSpider NPs|KNApSaCK|Latin America dataset|NuBBEDB|WikiData Natural Products|ZINC NP

>  <dois>  (1540) 
10.1016/J.FITOTE.2009.05.013|10.1021/NP9004079|10.1021/np9004079

>  <synonyms>  (1540) 
Caseobliquin B|[(1S,3S,5S,6aR,7S,8S,10R,10aR)-1,3,5-triacetyloxy-7,8-dimethyl-7-[(2E)-3-methylpenta-2,4-dienyl]-1,3,5,6,6a,8,9,10-octahydrobenzo[d][2]benzofuran-10-yl] (E)-3-phenylprop-2-enoate

>  <cas>  (1540) 
nan

$$$$

     RDKit          2D

 14 14  0  0  0  0  0  0  0  0999 V2000
   -5.5697    0.5720    0.0000 C   0  0  0  0  0  0  0  0  0  0  0  0
   -4.2394   -0.1211    0.0000 C   0  0  0  0  0  0  0  0  0  0  0  0
   -4.1745   -1.6197    0.0000 C   0  0  0  0  0  0  0  0  0  0  0  0
   -2.9740    0.6844    0.0000 C   0  0  0  0  0  0  0  0  0  0  0  0
   -1.6437   -0.0087    0.0000 C   0  0  0  0  0  0  0  0  0  0  0  0
   -0.3784    0.7968    0.0000 C   0  0  0  0  0  0  0  0  0  0  0  0
    0.9519    0.1037    0.0000 C   0  0  0  0  0  0  0  0  0  0  0  0
    0.0383   -1.0860    0.0000 C   0  0  0  0  0  0  0  0  0  0  0  0
    1.4035    1.5341    0.0000 C   0  0  0  0  0  0  0  0  0  0  0  0
    2.8680    1.8583    0.0000 C   0  0  0  0  0  0  0  0  0  0  0  0
    3.8810    0.7520    0.0000 N   0  0  0  0  0  0  0  0  0  0  0  0
    3.4295   -0.6784    0.0000 C   0  0  0  0  0  0  0  0  0  0  0  0
    4.4425   -1.7847    0.0000 N   0  0  0  0  0  0  0  0  0  0  0  0
    1.9649   -1.0026    0.0000 N   0  0  0  0  0  0  0  0  0  0  0  0
  1  2  1  0
  2  3  1  0
  2  4  2  0
  4  5  1  0
  5  6  2  0
  6  7  1  0
  7  8  1  0
  7  9  1  0
  9 10  1  0
 10 11  1  0
 11 12  2  0
 12 13  1  0
 12 14  1  0
 14  7  1  0
M  END
>  <identifier>  (1541) 
CNP0170617.3

>  <canonical_smiles>  (1541) 
CC(C)=C/C=C/C1(C)CCN=C(N)N1

>  <standard_inchi>  (1541) 
InChI=1S/C11H19N3/c1-9(2)5-4-6-11(3)7-8-13-10(12)14-11/h4-6H,7-8H2,1-3H3,(H3,12,13,14)/b6-4+

>  <standard_inchi_key>  (1541) 
HESWCJDXWDNXCR-GQCTYLIASA-N

>  <name>  (1541) 
nan

>  <iupac_name>  (1541) 
nan

>  <annotation_level>  (1541) 
0

>  <total_atom_count>  (1541) 
33

>  <heavy_atom_count>  (1541) 
14

>  <molecular_weight>  (1541) 
193.29

>  <exact_molecular_weight>  (1541) 
193.1579

>  <molecular_formula>  (1541) 
C11H19N3

>  <alogp>  (1541) 
1.58

>  <topological_polar_surface_area>  (1541) 
50.41

>  <rotatable_bond_count>  (1541) 
2

>  <hydrogen_bond_acceptors>  (1541) 
3

>  <hydrogen_bond_donors>  (1541) 
2

>  <hydrogen_bond_acceptors_lipinski>  (1541) 
3

>  <hydrogen_bond_donors_lipinski>  (1541) 
2

>  <lipinski_rule_of_five_violations>  (1541) 
0

>  <aromatic_rings_count>  (1541) 
0

>  <qed_drug_likeliness>  (1541) 
0.65

>  <formal_charge>  (1541) 
0

>  <fractioncsp3>  (1541) 
0.55

>  <number_of_minimal_rings>  (1541) 
1

>  <van_der_walls_volume>  (1541) 
203.86

>  <contains_sugar>  (1541) 
False

>  <contains_ring_sugars>  (1541) 
False

>  <contains_linear_sugars>  (1541) 
False

>  <murcko_framework>  (1541) 
N1=CNCCC1

>  <np_likeness>  (1541) 
2.66

>  <chemical_class>  (1541) 
nan

>  <chemical_sub_class>  (1541) 
nan

>  <chemical_super_class>  (1541) 
nan

>  <direct_parent_classification>  (1541) 
nan

>  <np_classifier_pathway>  (1541) 
Alkaloids

>  <np_classifier_superclass>  (1541) 
nan

>  <np_classifier_class>  (1541) 
nan

>  <np_classifier_is_glycoside>  (1541) 
False

>  <organisms>  (1541) 
Pterogyne nitens

>  <collections>  (1541) 
ChEBI NPs|Latin America dataset|NuBBEDB

>  <dois>  (1541) 
10.1021/np800612x

>  <synonyms>  (1541) 
nan

>  <cas>  (1541) 
nan

$$$$

     RDKit          2D

 11 10  0  0  0  0  0  0  0  0999 V2000
   -3.5967    1.1676    0.0000 C   0  0  0  0  0  0  0  0  0  0  0  0
   -2.1418    1.5326    0.0000 C   0  0  0  0  0  0  0  0  0  0  0  0
   -1.0983    0.4550    0.0000 C   0  0  0  0  0  0  0  0  0  0  0  0
    0.3567    0.8200    0.0000 C   0  0  0  0  0  0  0  0  0  0  0  0
    1.4002   -0.2575    0.0000 O   0  0  0  0  0  0  0  0  0  0  0  0
    2.8551    0.1074    0.0000 C   0  0  0  0  0  0  0  0  0  0  0  0
    3.8986   -0.9701    0.0000 C   0  0  0  0  0  0  0  0  0  0  0  0
    3.2665    1.5499    0.0000 O   0  0  0  0  0  0  0  0  0  0  0  0
   -1.5097   -0.9874    0.0000 C   0  0  0  0  0  0  0  0  0  0  0  0
   -2.9646   -1.3524    0.0000 O   0  0  0  0  0  0  0  0  0  0  0  0
   -0.4661   -2.0650    0.0000 O   0  0  0  0  0  0  0  0  0  0  0  0
  1  2  1  0
  2  3  2  0
  3  4  1  0
  4  5  1  0
  5  6  1  0
  6  7  1  0
  6  8  2  0
  3  9  1  0
  9 10  2  0
  9 11  1  0
M  END
>  <identifier>  (1542) 
CNP0278363.1

>  <canonical_smiles>  (1542) 
C/C=C(/COC(C)=O)C(=O)O

>  <standard_inchi>  (1542) 
InChI=1S/C7H10O4/c1-3-6(7(9)10)4-11-5(2)8/h3H,4H2,1-2H3,(H,9,10)/b6-3-

>  <standard_inchi_key>  (1542) 
XSYZFBODOKESPU-UTCJRWHESA-N

>  <name>  (1542) 
nan

>  <iupac_name>  (1542) 
nan

>  <annotation_level>  (1542) 
0

>  <total_atom_count>  (1542) 
21

>  <heavy_atom_count>  (1542) 
11

>  <molecular_weight>  (1542) 
158.15

>  <exact_molecular_weight>  (1542) 
158.05791

>  <molecular_formula>  (1542) 
C7H10O4

>  <alogp>  (1542) 
0.58

>  <topological_polar_surface_area>  (1542) 
63.60

>  <rotatable_bond_count>  (1542) 
3

>  <hydrogen_bond_acceptors>  (1542) 
3

>  <hydrogen_bond_donors>  (1542) 
1

>  <hydrogen_bond_acceptors_lipinski>  (1542) 
3

>  <hydrogen_bond_donors_lipinski>  (1542) 
1

>  <lipinski_rule_of_five_violations>  (1542) 
0

>  <aromatic_rings_count>  (1542) 
0

>  <qed_drug_likeliness>  (1542) 
0.48

>  <formal_charge>  (1542) 
0

>  <fractioncsp3>  (1542) 
0.43

>  <number_of_minimal_rings>  (1542) 
0

>  <van_der_walls_volume>  (1542) 
146.19

>  <contains_sugar>  (1542) 
False

>  <contains_ring_sugars>  (1542) 
False

>  <contains_linear_sugars>  (1542) 
False

>  <murcko_framework>  (1542) 
nan

>  <np_likeness>  (1542) 
1.86

>  <chemical_class>  (1542) 
nan

>  <chemical_sub_class>  (1542) 
nan

>  <chemical_super_class>  (1542) 
nan

>  <direct_parent_classification>  (1542) 
nan

>  <np_classifier_pathway>  (1542) 
Fatty acids

>  <np_classifier_superclass>  (1542) 
Fatty Acids and Conjugates

>  <np_classifier_class>  (1542) 
Branched fatty acids

>  <np_classifier_is_glycoside>  (1542) 
False

>  <organisms>  (1542) 
Calea cuneifolia

>  <collections>  (1542) 
Latin America dataset|NuBBEDB|WikiData Natural Products|ZINC NP

>  <dois>  (1542) 
10.1016/0031-9422(81)85172-2

>  <synonyms>  (1542) 
nan

>  <cas>  (1542) 
nan

$$$$

     RDKit          2D

 23 25  0  0  0  0  0  0  0  0999 V2000
    7.0086   -0.3217    0.0000 C   0  0  0  0  0  0  0  0  0  0  0  0
    5.6684    0.3519    0.0000 C   0  0  0  0  0  0  0  0  0  0  0  0
    4.4149   -0.4719    0.0000 C   0  0  0  0  0  0  0  0  0  0  0  0
    4.5016   -1.9694    0.0000 C   0  0  0  0  0  0  0  0  0  0  0  0
    3.0747    0.2018    0.0000 C   0  0  0  0  0  0  0  0  0  0  0  0
    2.9879    1.6993    0.0000 O   0  0  0  0  0  0  0  0  0  0  0  0
    1.8211   -0.6221    0.0000 O   0  0  0  0  0  0  0  0  0  0  0  0
    0.4809    0.0516    0.0000 C   0  0  0  0  0  0  0  0  0  0  0  0
    0.3942    1.5491    0.0000 C   0  0  0  0  0  0  0  0  0  0  0  0
   -1.0228    2.0699    0.0000 C   0  0  0  0  0  0  0  0  0  0  0  0
    0.0320    3.1364    0.0000 C   0  0  0  0  0  0  0  0  0  0  0  0
   -0.7801    0.5897    0.0000 O   0  0  0  0  0  0  0  0  0  0  0  0
   -2.1128   -0.0986    0.0000 C   0  0  0  0  0  0  0  0  0  0  0  0
   -3.1793    0.9562    0.0000 C   0  0  0  0  0  0  0  0  0  0  0  0
   -2.5056    2.2965    0.0000 C   0  0  0  0  0  0  0  0  0  0  0  0
   -3.1939    3.6292    0.0000 O   0  0  0  0  0  0  0  0  0  0  0  0
   -3.1676   -1.1650    0.0000 C   0  0  0  0  0  0  0  0  0  0  0  0
   -4.6504   -0.9385    0.0000 C   0  0  0  0  0  0  0  0  0  0  0  0
   -5.5880   -2.1094    0.0000 O   0  0  0  0  0  0  0  0  0  0  0  0
   -2.4794   -2.4978    0.0000 C   0  0  0  0  0  0  0  0  0  0  0  0
   -0.9991   -2.2550    0.0000 C   0  0  0  0  0  0  0  0  0  0  0  0
    0.0673   -3.3099    0.0000 O   0  0  0  0  0  0  0  0  0  0  0  0
   -0.7726   -0.7722    0.0000 C   0  0  0  0  0  0  0  0  0  0  0  0
  1  2  1  0
  2  3  2  0
  3  4  1  0
  3  5  1  0
  5  6  2  0
  5  7  1  0
  8  7  1  1
  8  9  1  0
  9 10  1  0
 10 11  1  6
 10 12  1  0
 12 13  1  0
 13 14  1  1
 14 15  1  0
 15 16  2  0
 13 17  1  0
 17 18  1  0
 18 19  1  0
 17 20  2  0
 20 21  1  0
 21 22  1  6
 23 21  1  1
 23  8  1  0
 15 10  1  0
 23 13  1  0
M  END
>  <identifier>  (1543) 
CNP0399825.2

>  <canonical_smiles>  (1543) 
C/C=C(\C)C(=O)O[C@@H]1C[C@@]2(C)O[C@@]3(CC2=O)C(CO)=C[C@@H](O)[C@H]13

>  <standard_inchi>  (1543) 
InChI=1S/C17H22O6/c1-4-9(2)15(21)22-12-6-16(3)13(20)7-17(23-16)10(8-18)5-11(19)14(12)17/h4-5,11-12,14,18-19H,6-8H2,1-3H3/b9-4+/t11-,12-,14-,16-,17+/m1/s1

>  <standard_inchi_key>  (1543) 
CTKLVKWVJNHUGO-PQXKERBESA-N

>  <name>  (1543) 
nan

>  <iupac_name>  (1543) 
[(1~{R},4~{R},5~{R},6~{R},8~{R})-4-hydroxy-2-(hydroxymethyl)-8-methyl-9-oxo-11-oxatricyclo[6.2.1.0^{1,5}]undec-2-en-6-yl] (~{E})-2-methylbut-2-enoate

>  <annotation_level>  (1543) 
4

>  <total_atom_count>  (1543) 
45

>  <heavy_atom_count>  (1543) 
23

>  <molecular_weight>  (1543) 
322.36

>  <exact_molecular_weight>  (1543) 
322.14164

>  <molecular_formula>  (1543) 
C17H22O6

>  <alogp>  (1543) 
0.66

>  <topological_polar_surface_area>  (1543) 
93.06

>  <rotatable_bond_count>  (1543) 
3

>  <hydrogen_bond_acceptors>  (1543) 
6

>  <hydrogen_bond_donors>  (1543) 
2

>  <hydrogen_bond_acceptors_lipinski>  (1543) 
6

>  <hydrogen_bond_donors_lipinski>  (1543) 
2

>  <lipinski_rule_of_five_violations>  (1543) 
0

>  <aromatic_rings_count>  (1543) 
0

>  <qed_drug_likeliness>  (1543) 
0.45

>  <formal_charge>  (1543) 
0

>  <fractioncsp3>  (1543) 
0.65

>  <number_of_minimal_rings>  (1543) 
3

>  <van_der_walls_volume>  (1543) 
nan

>  <contains_sugar>  (1543) 
False

>  <contains_ring_sugars>  (1543) 
False

>  <contains_linear_sugars>  (1543) 
False

>  <murcko_framework>  (1543) 
O1C2CCC3CC=CC13CC2

>  <np_likeness>  (1543) 
3.06

>  <chemical_class>  (1543) 
Fatty Acyls

>  <chemical_sub_class>  (1543) 
Fatty acid esters

>  <chemical_super_class>  (1543) 
Lipids and lipid-like molecules

>  <direct_parent_classification>  (1543) 
Fatty acid esters

>  <np_classifier_pathway>  (1543) 
Terpenoids

>  <np_classifier_superclass>  (1543) 
Sesquiterpenoids

>  <np_classifier_class>  (1543) 
Germacrane sesquiterpenoids

>  <np_classifier_is_glycoside>  (1543) 
False

>  <organisms>  (1543) 
Aspergillus terreus

>  <collections>  (1543) 
NuBBEDB|WikiData Natural Products|ZINC NP

>  <dois>  (1543) 
10.1016/J.PHYTOCHEM.2013.09.022|10.1016/j.phytochem.2013.09.022

>  <synonyms>  (1543) 
methyl 5-((1S2R4aR7S8aR)-12344a788a-octahydro-7-hydroperoxy-124a5-tetramethylnaphthalen-1-yl)-3-methylpentanoate

>  <cas>  (1543) 
nan

$$$$

     RDKit          2D

 15 15  0  0  0  0  0  0  0  0999 V2000
    6.0727    1.4152    0.0000 C   0  0  0  0  0  0  0  0  0  0  0  0
    4.9777    0.3899    0.0000 C   0  0  0  0  0  0  0  0  0  0  0  0
    5.3182   -1.0709    0.0000 C   0  0  0  0  0  0  0  0  0  0  0  0
    3.5424    0.8255    0.0000 C   0  0  0  0  0  0  0  0  0  0  0  0
    2.4475   -0.1997    0.0000 C   0  0  0  0  0  0  0  0  0  0  0  0
    1.0121    0.2359    0.0000 C   0  0  0  0  0  0  0  0  0  0  0  0
   -0.0828   -0.7894    0.0000 C   0  0  0  0  0  0  0  0  0  0  0  0
    0.2576   -2.2502    0.0000 C   0  0  0  0  0  0  0  0  0  0  0  0
   -1.5182   -0.3538    0.0000 C   0  0  0  0  0  0  0  0  0  0  0  0
   -2.6131   -1.3791    0.0000 C   0  0  0  0  0  0  0  0  0  0  0  0
   -4.0484   -0.9435    0.0000 C   0  0  0  0  0  0  0  0  0  0  0  0
   -4.3889    0.5174    0.0000 C   0  0  0  0  0  0  0  0  0  0  0  0
   -5.8242    0.9530    0.0000 C   0  0  0  0  0  0  0  0  0  0  0  0
   -3.2940    1.5426    0.0000 C   0  0  0  0  0  0  0  0  0  0  0  0
   -1.8586    1.1071    0.0000 C   0  0  0  0  0  0  0  0  0  0  0  0
  1  2  1  0
  2  3  1  0
  2  4  2  0
  4  5  1  0
  5  6  1  0
  6  7  1  0
  7  8  1  0
  7  9  2  0
  9 10  1  0
 10 11  1  0
 11 12  2  0
 12 13  1  0
 12 14  1  0
 14 15  1  0
 15  9  1  0
M  END
>  <identifier>  (1544) 
CNP0126761.1

>  <canonical_smiles>  (1544) 
CC(C)=CCC/C(C)=C1/CC=C(C)CC1

>  <standard_inchi>  (1544) 
InChI=1S/C15H24/c1-12(2)6-5-7-14(4)15-10-8-13(3)9-11-15/h6,8H,5,7,9-11H2,1-4H3/b15-14-

>  <standard_inchi_key>  (1544) 
XBGUIVFBMBVUEG-PFONDFGASA-N

>  <name>  (1544) 
nan

>  <iupac_name>  (1544) 
nan

>  <annotation_level>  (1544) 
0

>  <total_atom_count>  (1544) 
39

>  <heavy_atom_count>  (1544) 
15

>  <molecular_weight>  (1544) 
204.36

>  <exact_molecular_weight>  (1544) 
204.1878

>  <molecular_formula>  (1544) 
C15H24

>  <alogp>  (1544) 
5.18

>  <topological_polar_surface_area>  (1544) 
0.00

>  <rotatable_bond_count>  (1544) 
3

>  <hydrogen_bond_acceptors>  (1544) 
0

>  <hydrogen_bond_donors>  (1544) 
0

>  <hydrogen_bond_acceptors_lipinski>  (1544) 
0

>  <hydrogen_bond_donors_lipinski>  (1544) 
0

>  <lipinski_rule_of_five_violations>  (1544) 
1

>  <aromatic_rings_count>  (1544) 
0

>  <qed_drug_likeliness>  (1544) 
0.56

>  <formal_charge>  (1544) 
0

>  <fractioncsp3>  (1544) 
0.60

>  <number_of_minimal_rings>  (1544) 
1

>  <van_der_walls_volume>  (1544) 
232.20

>  <contains_sugar>  (1544) 
False

>  <contains_ring_sugars>  (1544) 
False

>  <contains_linear_sugars>  (1544) 
False

>  <murcko_framework>  (1544) 
C1=CCCCC1

>  <np_likeness>  (1544) 
2.78

>  <chemical_class>  (1544) 
nan

>  <chemical_sub_class>  (1544) 
nan

>  <chemical_super_class>  (1544) 
nan

>  <direct_parent_classification>  (1544) 
nan

>  <np_classifier_pathway>  (1544) 
Terpenoids

>  <np_classifier_superclass>  (1544) 
Sesquiterpenoids

>  <np_classifier_class>  (1544) 
Bisabolane sesquiterpenoids

>  <np_classifier_is_glycoside>  (1544) 
False

>  <organisms>  (1544) 
Abies pinsapo var. tazaotana|Abuta concolor|Alcyonium paessleri|Aloe excelsa|Alternaria botrytis|Aplysina gerardogreeni|Aquilegia coerulea|Astragalus alexandri|Ayapana amygdalina|Beilschmiedia obtusifolia|Bergenia hissarica|Bougainvillea glabra|Camassia cusickii|Cassipourea gummiflua|Celastrus scandens|Citrus medica|Coespeletia lutescens|Cuminum cyminum|Curcuma kwangsiensis|Curcuma longa|Curcuma phaeocaulis|Curcuma wenyujin|Daucus carota|Eleutherococcus giraldii|Eunicea calyculata|Euryops linifolius|Garuga gamblei|Halfordia scleroxyla|Helichrysum mimetes|Helogyne hutchisonii|Hypoxylon serpens|Hyssopus lophanthoides|Isodon flexicaulis|Iva hayesiana|Lactococcus lactis|Larix gmelinii|Larix gmelinii var. gmelinii|Laurencia nipponica|Laurencia sp.|Lespedeza davidii|Lespedeza striata|Linaria purpurea|Melanochromis auratus|Mikania vitifolia|Molopospermum peloponnesiacum|Origanum vulgare|Piper nigrum|Premna serratifolia|Psydrax dicoccos|Pteris formosana|Rhodotorula glutinis|Salvia clevelandi|Salvia corrugata|Saponaria officinalis|Sarcophyton subviride|Sinularia parva|Solanum aethiopicum|Sporobolus alterniflorus|Sporormiella teretispora|Stevia potrerensis|Swietenia macrophylla|Symphyopappus reticulatus|Synoicum prunum|Talaromyces purpureogenus|Tarenna attenuata|Tectona grandis|Teucrium creticum|Torulaspora delbrueckii|Zingiber officinale

>  <collections>  (1544) 
Australian natural products|CMAUP (cCollective molecular activities of useful plants)|FooDB|KNApSaCK|Latin America dataset|Marine Natural Products|NPASS|NPEdia|NuBBEDB|Super Natural II|TCMDB-Taiwan (Traditional Chinese Medicine database)|WikiData Natural Products

>  <dois>  (1544) 
10.1007/BF00576230|10.1016/0031-9422(81)85188-6|10.1016/J.FCT.2008.07.017|10.1016/S0031-9422(00)81569-1|10.1016/S0031-9422(00)82719-3|10.1016/S0031-9422(00)98550-9|10.1016/j.jep.2018.12.017|10.1021/ACS.JAFC.5B00546|10.1021/JF030212Q|10.1021/JO040272A|10.1021/NP030475E|10.1023/A:1025694720727|10.1246/CL.1980.1267|10.3390/MOLECULES24234244

>  <synonyms>  (1544) 
nan

>  <cas>  (1544) 
nan

$$$$

     RDKit          2D

 19 20  0  0  0  0  0  0  0  0999 V2000
   -4.9349   -2.5504    0.0000 C   0  0  0  0  0  0  0  0  0  0  0  0
   -3.4466   -2.7371    0.0000 O   0  0  0  0  0  0  0  0  0  0  0  0
   -2.5407   -1.5416    0.0000 C   0  0  0  0  0  0  0  0  0  0  0  0
   -3.1231   -0.1593    0.0000 C   0  0  0  0  0  0  0  0  0  0  0  0
   -2.2172    1.0362    0.0000 C   0  0  0  0  0  0  0  0  0  0  0  0
   -2.7996    2.4186    0.0000 O   0  0  0  0  0  0  0  0  0  0  0  0
   -4.2879    2.6054    0.0000 C   0  0  0  0  0  0  0  0  0  0  0  0
   -0.7288    0.8494    0.0000 C   0  0  0  0  0  0  0  0  0  0  0  0
    0.1771    2.0450    0.0000 O   0  0  0  0  0  0  0  0  0  0  0  0
    1.6654    1.8582    0.0000 C   0  0  0  0  0  0  0  0  0  0  0  0
    2.5713    3.0537    0.0000 O   0  0  0  0  0  0  0  0  0  0  0  0
    2.2478    0.4759    0.0000 C   0  0  0  0  0  0  0  0  0  0  0  0
    3.7361    0.2891    0.0000 C   0  0  0  0  0  0  0  0  0  0  0  0
    4.3185   -1.0932    0.0000 C   0  0  0  0  0  0  0  0  0  0  0  0
    5.8069   -1.2800    0.0000 C   0  0  0  0  0  0  0  0  0  0  0  0
    3.4126   -2.2888    0.0000 O   0  0  0  0  0  0  0  0  0  0  0  0
    1.3419   -0.7197    0.0000 C   0  0  0  0  0  0  0  0  0  0  0  0
   -0.1464   -0.5329    0.0000 C   0  0  0  0  0  0  0  0  0  0  0  0
   -1.0524   -1.7284    0.0000 C   0  0  0  0  0  0  0  0  0  0  0  0
  1  2  1  0
  2  3  1  0
  3  4  2  0
  4  5  1  0
  5  6  1  0
  6  7  1  0
  5  8  2  0
  8  9  1  0
  9 10  1  0
 10 11  2  0
 10 12  1  0
 12 13  1  0
 13 14  1  0
 14 15  1  0
 14 16  2  0
 12 17  2  0
 17 18  1  0
 18 19  2  0
 19  3  1  0
 18  8  1  0
M  END
>  <identifier>  (1545) 
CNP0253287.0

>  <canonical_smiles>  (1545) 
COC1=CC(OC)=C2OC(=O)C(CC(C)=O)=CC2=C1

>  <standard_inchi>  (1545) 
InChI=1S/C14H14O5/c1-8(15)4-10-5-9-6-11(17-2)7-12(18-3)13(9)19-14(10)16/h5-7H,4H2,1-3H3

>  <standard_inchi_key>  (1545) 
BJPJLXWZMLOJNS-UHFFFAOYSA-N

>  <name>  (1545) 
918639-44-8

>  <iupac_name>  (1545) 
3-acetonyl-6,8-dimethoxy-chromen-2-one

>  <annotation_level>  (1545) 
5

>  <total_atom_count>  (1545) 
33

>  <heavy_atom_count>  (1545) 
19

>  <molecular_weight>  (1545) 
262.26

>  <exact_molecular_weight>  (1545) 
262.08412

>  <molecular_formula>  (1545) 
C14H14O5

>  <alogp>  (1545) 
1.94

>  <topological_polar_surface_area>  (1545) 
65.74

>  <rotatable_bond_count>  (1545) 
4

>  <hydrogen_bond_acceptors>  (1545) 
5

>  <hydrogen_bond_donors>  (1545) 
0

>  <hydrogen_bond_acceptors_lipinski>  (1545) 
5

>  <hydrogen_bond_donors_lipinski>  (1545) 
0

>  <lipinski_rule_of_five_violations>  (1545) 
0

>  <aromatic_rings_count>  (1545) 
2

>  <qed_drug_likeliness>  (1545) 
0.79

>  <formal_charge>  (1545) 
0

>  <fractioncsp3>  (1545) 
0.29

>  <number_of_minimal_rings>  (1545) 
2

>  <van_der_walls_volume>  (1545) 
230.99

>  <contains_sugar>  (1545) 
False

>  <contains_ring_sugars>  (1545) 
False

>  <contains_linear_sugars>  (1545) 
False

>  <murcko_framework>  (1545) 
O1c2ccccc2C=CC1

>  <np_likeness>  (1545) 
0.51

>  <chemical_class>  (1545) 
Coumarins and derivatives

>  <chemical_sub_class>  (1545) 
Coumarins and derivatives

>  <chemical_super_class>  (1545) 
Phenylpropanoids and polyketides

>  <direct_parent_classification>  (1545) 
Coumarins and derivatives

>  <np_classifier_pathway>  (1545) 
Shikimates and Phenylpropanoids

>  <np_classifier_superclass>  (1545) 
Coumarins

>  <np_classifier_class>  (1545) 
Simple coumarins

>  <np_classifier_is_glycoside>  (1545) 
False

>  <organisms>  (1545) 
Periconia atropurpurea

>  <collections>  (1545) 
ChemSpider NPs|Latin America dataset|NPAtlas|NuBBEDB|Super Natural II|UNPD (Universal Natural Products Database)|WikiData Natural Products|ZINC NP

>  <dois>  (1545) 
10.1016/J.PHYTOCHEM.2006.09.005|10.1016/j.phytochem.2006.09.005

>  <synonyms>  (1545) 
6,8-DIMETHOXY-3-(2-OXOPROPYL)CHROMEN-2-ONE|6,8-Dimethoxy-3-(2-oxopropyl)-2H-1-benzopyran-2-one|6,8-dimethoxy-3-(2'-oxo-propyl)-coumarin|CHEBI:218414|DTXSID10580146

>  <cas>  (1545) 
nan

$$$$

     RDKit          2D

 34 39  0  0  0  0  0  0  0  0999 V2000
    1.4340    5.7414    0.0000 C   0  0  0  0  0  0  0  0  0  0  0  0
    0.5185    4.5532    0.0000 O   0  0  0  0  0  0  0  0  0  0  0  0
    1.0897    3.1663    0.0000 C   0  0  0  0  0  0  0  0  0  0  0  0
    2.0738    3.1557    0.0000 O   0  0  0  0  0  0  0  0  0  0  0  0
    0.1742    1.9781    0.0000 C   0  0  0  0  0  0  0  0  0  0  0  0
    0.7455    0.5911    0.0000 C   0  0  0  0  0  0  0  0  0  0  0  0
   -0.1701   -0.5971    0.0000 C   0  0  0  0  0  0  0  0  0  0  0  0
   -0.8832    0.7226    0.0000 C   0  0  0  0  0  0  0  0  0  0  0  0
   -1.6657   -0.7118    0.0000 C   0  0  0  0  0  0  0  0  0  0  0  0
   -2.9431    0.0745    0.0000 C   0  0  0  0  0  0  0  0  0  0  0  0
   -3.0577    1.5701    0.0000 C   0  0  0  0  0  0  0  0  0  0  0  0
   -4.0856   -0.8974    0.0000 C   0  0  0  0  0  0  0  0  0  0  0  0
   -5.5435   -0.5443    0.0000 C   0  0  0  0  0  0  0  0  0  0  0  0
   -6.6860   -1.5162    0.0000 C   0  0  0  0  0  0  0  0  0  0  0  0
   -7.9634   -0.7299    0.0000 O   0  0  0  0  0  0  0  0  0  0  0  0
   -7.6103    0.7280    0.0000 C   0  0  0  0  0  0  0  0  0  0  0  0
   -6.1147    0.8427    0.0000 C   0  0  0  0  0  0  0  0  0  0  0  0
   -3.5144   -2.2843    0.0000 C   0  0  0  0  0  0  0  0  0  0  0  0
   -2.0188   -2.1696    0.0000 C   0  0  0  0  0  0  0  0  0  0  0  0
   -0.7414   -2.9559    0.0000 O   0  0  0  0  0  0  0  0  0  0  0  0
    0.4012   -1.9840    0.0000 C   0  0  0  0  0  0  0  0  0  0  0  0
    1.8880   -2.1828    0.0000 C   0  0  0  0  0  0  0  0  0  0  0  0
    2.8599   -3.3254    0.0000 O   0  0  0  0  0  0  0  0  0  0  0  0
    4.2468   -2.7541    0.0000 C   0  0  0  0  0  0  0  0  0  0  0  0
    5.5242   -3.5404    0.0000 O   0  0  0  0  0  0  0  0  0  0  0  0
    4.2903   -1.1934    0.0000 C   0  0  0  0  0  0  0  0  0  0  0  0
    5.1801   -2.4009    0.0000 C   0  0  0  0  0  0  0  0  0  0  0  0
    5.2058   -0.0052    0.0000 C   0  0  0  0  0  0  0  0  0  0  0  0
    4.6345    1.3818    0.0000 C   0  0  0  0  0  0  0  0  0  0  0  0
    3.1478    1.5806    0.0000 C   0  0  0  0  0  0  0  0  0  0  0  0
    2.8867    2.5294    0.0000 O   0  0  0  0  0  0  0  0  0  0  0  0
    2.2322    0.3924    0.0000 C   0  0  0  0  0  0  0  0  0  0  0  0
    1.6610    1.7793    0.0000 C   0  0  0  0  0  0  0  0  0  0  0  0
    2.8035   -0.9946    0.0000 C   0  0  0  0  0  0  0  0  0  0  0  0
  1  2  1  0
  2  3  1  0
  3  4  2  0
  3  5  1  0
  6  5  1  6
  6  7  1  0
  7  8  1  6
  7  9  1  0
  9 10  2  0
 10 11  1  0
 10 12  1  0
 12 13  1  1
 13 14  2  0
 14 15  1  0
 15 16  1  0
 16 17  2  0
 12 18  1  0
 18 19  1  0
 19 20  1  0
 21 20  1  1
 21 22  1  0
 22 23  1  1
 23 24  1  0
 24 25  2  0
 24 26  1  0
 26 27  1  6
 26 28  1  0
 28 29  2  0
 29 30  1  0
 30 31  2  0
 30 32  1  0
 32 33  1  6
 32 34  1  0
 32  6  1  0
 21  7  1  0
 34 22  1  0
 19  9  1  0
 34 26  1  0
 17 13  1  0
M  END
>  <identifier>  (1546) 
CNP0234967.4

>  <canonical_smiles>  (1546) 
COC(=O)C[C@H]1[C@]2(C)C3=C(C)[C@H](C4=COC=C4)CC3O[C@@H]2[C@@H]2OC(=O)[C@]3(C)C=CC(=O)[C@@]1(C)C23

>  <standard_inchi>  (1546) 
InChI=1S/C27H30O7/c1-13-15(14-7-9-32-12-14)10-16-20(13)27(4)17(11-19(29)31-5)26(3)18(28)6-8-25(2)22(26)21(23(27)33-16)34-24(25)30/h6-9,12,15-17,21-23H,10-11H2,1-5H3/t15-,16?,17-,21-,22?,23-,25-,26+,27-/m1/s1

>  <standard_inchi_key>  (1546) 
JZIQWNPPBKFOPT-ABLZDQEHSA-N

>  <name>  (1546) 
Nimbolide

>  <iupac_name>  (1546) 
methyl 2-[(1~{R},2~{S},6~{R},9~{R},10~{S},11~{R},15~{R})-6-(3-furyl)-7,9,11,15-tetramethyl-12,16-dioxo-3,17-dioxapentacyclo[9.6.1.0^{2,9}.0^{4,8}.0^{15,18}]octadeca-7,13-dien-10-yl]acetate

>  <annotation_level>  (1546) 
5

>  <total_atom_count>  (1546) 
64

>  <heavy_atom_count>  (1546) 
34

>  <molecular_weight>  (1546) 
466.53

>  <exact_molecular_weight>  (1546) 
466.19915

>  <molecular_formula>  (1546) 
C27H30O7

>  <alogp>  (1546) 
3.74

>  <topological_polar_surface_area>  (1546) 
92.04

>  <rotatable_bond_count>  (1546) 
3

>  <hydrogen_bond_acceptors>  (1546) 
7

>  <hydrogen_bond_donors>  (1546) 
0

>  <hydrogen_bond_acceptors_lipinski>  (1546) 
7

>  <hydrogen_bond_donors_lipinski>  (1546) 
0

>  <lipinski_rule_of_five_violations>  (1546) 
0

>  <aromatic_rings_count>  (1546) 
1

>  <qed_drug_likeliness>  (1546) 
0.49

>  <formal_charge>  (1546) 
0

>  <fractioncsp3>  (1546) 
0.59

>  <number_of_minimal_rings>  (1546) 
6

>  <van_der_walls_volume>  (1546) 
nan

>  <contains_sugar>  (1546) 
False

>  <contains_ring_sugars>  (1546) 
False

>  <contains_linear_sugars>  (1546) 
False

>  <murcko_framework>  (1546) 
o1ccc(c1)C2C=C3C(OC4C5OCC6C=CCC(CC34)C56)C2

>  <np_likeness>  (1546) 
3.12

>  <chemical_class>  (1546) 
Prenol lipids

>  <chemical_sub_class>  (1546) 
Triterpenoids

>  <chemical_super_class>  (1546) 
Lipids and lipid-like molecules

>  <direct_parent_classification>  (1546) 
Limonoids

>  <np_classifier_pathway>  (1546) 
Terpenoids

>  <np_classifier_superclass>  (1546) 
Triterpenoids

>  <np_classifier_class>  (1546) 
Limonoids

>  <np_classifier_is_glycoside>  (1546) 
False

>  <organisms>  (1546) 
Azadirachta indica

>  <collections>  (1546) 
Latin America dataset|NuBBEDB|WikiData Natural Products

>  <dois>  (1546) 
10.1002/PCA.1208|10.1002/pca.1208

>  <synonyms>  (1546) 
InChI=1\/C27H30O7\/c1-13-15(14-7-9-32-12-14)10-16-20(13)27(4)17(11-19(29)31-5)26(3)18(28)6-8-25(2)22(26)21(23(27)33-16)34-24(25)30\/h6-9,12,15-17,21-23H,10-11H2,1-5H3\/t15-,16?,17-,21-,22?,23-,25-,26+,27-\/m1\/s1|JZIQWNPPBKFOPT-ABLZDQEHSA-|nimbolide

>  <cas>  (1546) 
nan

$$$$

     RDKit          2D

 31 34  0  0  0  0  0  0  0  0999 V2000
    4.8296   -4.3430    0.0000 C   0  0  0  0  0  0  0  0  0  0  0  0
    4.6371   -2.8554    0.0000 C   0  0  0  0  0  0  0  0  0  0  0  0
    3.2526   -2.2783    0.0000 C   0  0  0  0  0  0  0  0  0  0  0  0
    3.0601   -0.7907    0.0000 C   0  0  0  0  0  0  0  0  0  0  0  0
    1.6755   -0.2136    0.0000 C   0  0  0  0  0  0  0  0  0  0  0  0
    0.4835   -1.1241    0.0000 C   0  0  0  0  0  0  0  0  0  0  0  0
   -0.9011   -0.5470    0.0000 C   0  0  0  0  0  0  0  0  0  0  0  0
   -1.0935    0.9406    0.0000 C   0  0  0  0  0  0  0  0  0  0  0  0
   -0.3901    1.6288    0.0000 O   0  0  0  0  0  0  0  0  0  0  0  0
   -2.4781    1.5177    0.0000 C   0  0  0  0  0  0  0  0  0  0  0  0
   -2.6706    3.0053    0.0000 C   0  0  0  0  0  0  0  0  0  0  0  0
   -3.6701    0.6072    0.0000 C   0  0  0  0  0  0  0  0  0  0  0  0
   -5.0547    1.1843    0.0000 O   0  0  0  0  0  0  0  0  0  0  0  0
   -6.2467    0.2738    0.0000 C   0  0  0  0  0  0  0  0  0  0  0  0
   -7.6313    0.8509    0.0000 C   0  0  0  0  0  0  0  0  0  0  0  0
   -6.0542   -1.2138    0.0000 C   0  0  0  0  0  0  0  0  0  0  0  0
   -4.6697   -1.7909    0.0000 C   0  0  0  0  0  0  0  0  0  0  0  0
   -4.4772   -3.2785    0.0000 O   0  0  0  0  0  0  0  0  0  0  0  0
   -3.4776   -0.8804    0.0000 C   0  0  0  0  0  0  0  0  0  0  0  0
   -2.0931   -1.4575    0.0000 C   0  0  0  0  0  0  0  0  0  0  0  0
   -1.9006   -2.9451    0.0000 O   0  0  0  0  0  0  0  0  0  0  0  0
    1.4830    1.2740    0.0000 C   0  0  0  0  0  0  0  0  0  0  0  0
    0.6276    1.7605    0.0000 O   0  0  0  0  0  0  0  0  0  0  0  0
    2.6751    2.1845    0.0000 C   0  0  0  0  0  0  0  0  0  0  0  0
    3.4838    3.4478    0.0000 C   0  0  0  0  0  0  0  0  0  0  0  0
    1.5714    3.2003    0.0000 O   0  0  0  0  0  0  0  0  0  0  0  0
    4.0596    1.6074    0.0000 C   0  0  0  0  0  0  0  0  0  0  0  0
    5.2517    2.5179    0.0000 O   0  0  0  0  0  0  0  0  0  0  0  0
    4.2521    0.1198    0.0000 C   0  0  0  0  0  0  0  0  0  0  0  0
    5.6367   -0.4573    0.0000 C   0  0  0  0  0  0  0  0  0  0  0  0
    5.8292   -1.9449    0.0000 O   0  0  0  0  0  0  0  0  0  0  0  0
  1  2  1  0
  2  3  2  0
  3  4  1  0
  4  5  2  0
  5  6  1  0
  6  7  1  0
  7  8  2  0
  8  9  1  0
  8 10  1  0
 10 11  1  0
 10 12  2  0
 12 13  1  0
 13 14  1  0
 14 15  1  0
 14 16  2  0
 16 17  1  0
 17 18  2  0
 17 19  1  0
 19 20  2  0
 20 21  1  0
  5 22  1  0
 22 23  2  0
 22 24  1  0
 24 25  1  1
 24 26  1  0
 24 27  1  0
 27 28  1  1
 27 29  1  0
 29 30  2  0
 30 31  1  0
 31  2  1  0
 29  4  1  0
 20  7  1  0
 19 12  1  0
M  END
>  <identifier>  (1547) 
CNP0111528.1

>  <canonical_smiles>  (1547) 
CC1=CC2=C(CC3=C(O)C(C)=C4OC(C)=CC(=O)C4=C3O)C(=O)[C@](C)(O)[C@@H](O)C2=CO1

>  <standard_inchi>  (1547) 
InChI=1S/C23H22O8/c1-9-5-12-13(21(27)23(4,29)22(28)15(12)8-30-9)7-14-18(25)11(3)20-17(19(14)26)16(24)6-10(2)31-20/h5-6,8,22,25-26,28-29H,7H2,1-4H3/t22-,23-/m0/s1

>  <standard_inchi_key>  (1547) 
HCHRGLQLQWKNMJ-GOTSBHOMSA-N

>  <name>  (1547) 
Mycoleptone C

>  <iupac_name>  (1547) 
6-[[(7~{R},8~{S})-7,8-dihydroxy-3,7-dimethyl-6-oxo-8~{H}-isochromen-5-yl]methyl]-5,7-dihydroxy-2,8-dimethyl-chromen-4-one

>  <annotation_level>  (1547) 
5

>  <total_atom_count>  (1547) 
53

>  <heavy_atom_count>  (1547) 
31

>  <molecular_weight>  (1547) 
426.42

>  <exact_molecular_weight>  (1547) 
426.13147

>  <molecular_formula>  (1547) 
C23H22O8

>  <alogp>  (1547) 
2.17

>  <topological_polar_surface_area>  (1547) 
137.43

>  <rotatable_bond_count>  (1547) 
2

>  <hydrogen_bond_acceptors>  (1547) 
8

>  <hydrogen_bond_donors>  (1547) 
4

>  <hydrogen_bond_acceptors_lipinski>  (1547) 
8

>  <hydrogen_bond_donors_lipinski>  (1547) 
4

>  <lipinski_rule_of_five_violations>  (1547) 
0

>  <aromatic_rings_count>  (1547) 
2

>  <qed_drug_likeliness>  (1547) 
0.57

>  <formal_charge>  (1547) 
0

>  <fractioncsp3>  (1547) 
0.30

>  <number_of_minimal_rings>  (1547) 
4

>  <van_der_walls_volume>  (1547) 
nan

>  <contains_sugar>  (1547) 
False

>  <contains_ring_sugars>  (1547) 
False

>  <contains_linear_sugars>  (1547) 
False

>  <murcko_framework>  (1547) 
O1C=CC=2C(=C1)CCCC2Cc3ccc4OC=CCc4c3

>  <np_likeness>  (1547) 
2.63

>  <chemical_class>  (1547) 
Azaphilones

>  <chemical_sub_class>  (1547) 
Azaphilones

>  <chemical_super_class>  (1547) 
Organoheterocyclic compounds

>  <direct_parent_classification>  (1547) 
Azaphilones

>  <np_classifier_pathway>  (1547) 
Polyketides

>  <np_classifier_superclass>  (1547) 
Chromanes

>  <np_classifier_class>  (1547) 
Azaphilones

>  <np_classifier_is_glycoside>  (1547) 
False

>  <organisms>  (1547) 
Muyocopron sahnii|Mycoleptodiscus indicus

>  <collections>  (1547) 
Latin America dataset|NPAtlas|NuBBEDB|WikiData Natural Products|ZINC NP

>  <dois>  (1547) 
10.1021/NP4006822|10.1021/np4006822

>  <synonyms>  (1547) 
6-[[(7R,8S)-7,8-dihydroxy-3,7-dimethyl-6-oxo-8H-isochromen-5-yl]methyl]-5,7-dihydroxy-2,8-dimethylchromen-4-one|CHEBI:224593|CHEMBL3104957|Mycoleptone C

>  <cas>  (1547) 
nan

$$$$

     RDKit          2D

 27 28  0  0  0  0  0  0  0  0999 V2000
   -0.0662   -4.7861    0.0000 C   0  0  0  0  0  0  0  0  0  0  0  0
    0.4927   -3.3942    0.0000 C   0  0  0  0  0  0  0  0  0  0  0  0
    1.9776   -3.1822    0.0000 C   0  0  0  0  0  0  0  0  0  0  0  0
    2.5365   -1.7902    0.0000 C   0  0  0  0  0  0  0  0  0  0  0  0
    1.6105   -0.6102    0.0000 C   0  0  0  0  0  0  0  0  0  0  0  0
    2.1694    0.7818    0.0000 C   0  0  0  0  0  0  0  0  0  0  0  0
    2.2185    2.2810    0.0000 O   0  0  0  0  0  0  0  0  0  0  0  0
    3.5414    2.9881    0.0000 C   0  0  0  0  0  0  0  0  0  0  0  0
    0.7015    1.0905    0.0000 C   0  0  0  0  0  0  0  0  0  0  0  0
    0.2349    2.5161    0.0000 C   0  0  0  0  0  0  0  0  0  0  0  0
   -0.2998   -0.0264    0.0000 C   0  0  0  0  0  0  0  0  0  0  0  0
   -1.7677    0.2823    0.0000 C   0  0  0  0  0  0  0  0  0  0  0  0
   -2.2343    1.7079    0.0000 C   0  0  0  0  0  0  0  0  0  0  0  0
   -3.7022    2.0166    0.0000 C   0  0  0  0  0  0  0  0  0  0  0  0
   -4.7035    0.8997    0.0000 C   0  0  0  0  0  0  0  0  0  0  0  0
   -6.1713    1.2084    0.0000 O   0  0  0  0  0  0  0  0  0  0  0  0
   -6.6380    2.6340    0.0000 C   0  0  0  0  0  0  0  0  0  0  0  0
   -4.2368   -0.5259    0.0000 C   0  0  0  0  0  0  0  0  0  0  0  0
   -5.2381   -1.6428    0.0000 O   0  0  0  0  0  0  0  0  0  0  0  0
   -4.7715   -3.0683    0.0000 C   0  0  0  0  0  0  0  0  0  0  0  0
   -2.7690   -0.8346    0.0000 C   0  0  0  0  0  0  0  0  0  0  0  0
    3.6543    0.9938    0.0000 C   0  0  0  0  0  0  0  0  0  0  0  0
    4.2133    2.3858    0.0000 O   0  0  0  0  0  0  0  0  0  0  0  0
    5.6982    2.5977    0.0000 C   0  0  0  0  0  0  0  0  0  0  0  0
    4.5804   -0.1862    0.0000 C   0  0  0  0  0  0  0  0  0  0  0  0
    4.0215   -1.5782    0.0000 C   0  0  0  0  0  0  0  0  0  0  0  0
    4.9475   -2.7583    0.0000 O   0  0  0  0  0  0  0  0  0  0  0  0
  1  2  2  0
  2  3  1  0
  3  4  1  0
  4  5  2  0
  5  6  1  0
  6  7  1  6
  7  8  1  0
  6  9  1  0
  9 10  1  1
  9 11  1  0
 11 12  1  0
 12 13  2  0
 13 14  1  0
 14 15  2  0
 15 16  1  0
 16 17  1  0
 15 18  1  0
 18 19  1  0
 19 20  1  0
 18 21  2  0
  6 22  1  0
 22 23  1  0
 23 24  1  0
 22 25  2  0
 25 26  1  0
 26 27  2  0
 26  4  1  0
 21 12  1  0
M  END
>  <identifier>  (1548) 
CNP0204170.1

>  <canonical_smiles>  (1548) 
C=CCC1=C[C@@](OC)([C@H](C)CC2=CC=C(OC)C(OC)=C2)C(OC)=CC1=O

>  <standard_inchi>  (1548) 
InChI=1S/C22H28O5/c1-7-8-17-14-22(27-6,21(26-5)13-18(17)23)15(2)11-16-9-10-19(24-3)20(12-16)25-4/h7,9-10,12-15H,1,8,11H2,2-6H3/t15-,22-/m1/s1

>  <standard_inchi_key>  (1548) 
MVOMQPWLJRZYDT-IVZQSRNASA-N

>  <name>  (1548) 
Lancifolin C

>  <iupac_name>  (1548) 
(4~{S})-2-allyl-4-[(1~{R})-2-(3,4-dimethoxyphenyl)-1-methyl-ethyl]-4,5-dimethoxy-cyclohexa-2,5-dien-1-one

>  <annotation_level>  (1548) 
5

>  <total_atom_count>  (1548) 
55

>  <heavy_atom_count>  (1548) 
27

>  <molecular_weight>  (1548) 
372.46

>  <exact_molecular_weight>  (1548) 
372.19367

>  <molecular_formula>  (1548) 
C22H28O5

>  <alogp>  (1548) 
3.88

>  <topological_polar_surface_area>  (1548) 
53.99

>  <rotatable_bond_count>  (1548) 
9

>  <hydrogen_bond_acceptors>  (1548) 
5

>  <hydrogen_bond_donors>  (1548) 
0

>  <hydrogen_bond_acceptors_lipinski>  (1548) 
5

>  <hydrogen_bond_donors_lipinski>  (1548) 
0

>  <lipinski_rule_of_five_violations>  (1548) 
0

>  <aromatic_rings_count>  (1548) 
1

>  <qed_drug_likeliness>  (1548) 
0.62

>  <formal_charge>  (1548) 
0

>  <fractioncsp3>  (1548) 
0.41

>  <number_of_minimal_rings>  (1548) 
2

>  <van_der_walls_volume>  (1548) 
nan

>  <contains_sugar>  (1548) 
False

>  <contains_ring_sugars>  (1548) 
False

>  <contains_linear_sugars>  (1548) 
False

>  <murcko_framework>  (1548) 
c1ccc(cc1)CCC2C=CCC=C2

>  <np_likeness>  (1548) 
1.72

>  <chemical_class>  (1548) 
Prenol lipids

>  <chemical_sub_class>  (1548) 
Monoterpenoids

>  <chemical_super_class>  (1548) 
Lipids and lipid-like molecules

>  <direct_parent_classification>  (1548) 
Aromatic monoterpenoids

>  <np_classifier_pathway>  (1548) 
Shikimates and Phenylpropanoids

>  <np_classifier_superclass>  (1548) 
Lignans

>  <np_classifier_class>  (1548) 
Neolignans

>  <np_classifier_is_glycoside>  (1548) 
False

>  <organisms>  (1548) 
Aniba lancifolia|Piper hymenophyllum|Piper schmidtii|Piper wightii

>  <collections>  (1548) 
Latin America dataset|NuBBEDB|Super Natural II|WikiData Natural Products|ZINC NP

>  <dois>  (1548) 
10.1016/S0031-9422(00)81975-5|10.1016/S0040-4020(01)85081-X|10.3891/ACTA.CHEM.SCAND.49-0142

>  <synonyms>  (1548) 
(4S)-4-[(2R)-1-(3,4-dimethoxyphenyl)propan-2-yl]-4,5-dimethoxy-2-prop-2-enylcyclohexa-2,5-dien-1-one|2,5-Cyclohexadien-1-one, 4-[2-(3,4-dimethoxyphenyl)-1-methylethyl]-4,5-dimethoxy-2-(2-propenyl)-, [S-(R*,S*)]-; (4S)-4-[(1R)-2-(3,4-Dimethoxyphenyl)-1-methylethyl]-4,5-dimethoxy-2-(2-propen-1-yl)-2,5-cyclohexadien-1-one|74048-71-8|AKOS032961784|Lancifolin C

>  <cas>  (1548) 
74048-71-8

$$$$

     RDKit          2D

 24 25  0  0  0  0  0  0  0  0999 V2000
    0.1441    4.3909    0.0000 C   0  0  0  0  0  0  0  0  0  0  0  0
   -0.5650    3.0691    0.0000 O   0  0  0  0  0  0  0  0  0  0  0  0
    0.2253    1.7941    0.0000 C   0  0  0  0  0  0  0  0  0  0  0  0
   -0.4837    0.4722    0.0000 C   0  0  0  0  0  0  0  0  0  0  0  0
   -1.9830    0.4254    0.0000 C   0  0  0  0  0  0  0  0  0  0  0  0
   -2.7733    1.7003    0.0000 C   0  0  0  0  0  0  0  0  0  0  0  0
   -4.2725    1.6534    0.0000 C   0  0  0  0  0  0  0  0  0  0  0  0
   -5.0628    2.9284    0.0000 C   0  0  0  0  0  0  0  0  0  0  0  0
   -4.9815    0.3316    0.0000 C   0  0  0  0  0  0  0  0  0  0  0  0
    0.3065   -0.8027    0.0000 C   0  0  0  0  0  0  0  0  0  0  0  0
   -0.4025   -2.1246    0.0000 C   0  0  0  0  0  0  0  0  0  0  0  0
   -1.9018   -2.1714    0.0000 C   0  0  0  0  0  0  0  0  0  0  0  0
   -2.6108   -3.4933    0.0000 C   0  0  0  0  0  0  0  0  0  0  0  0
   -4.1101   -3.5402    0.0000 C   0  0  0  0  0  0  0  0  0  0  0  0
   -1.8206   -4.7682    0.0000 C   0  0  0  0  0  0  0  0  0  0  0  0
    1.8058   -0.7558    0.0000 C   0  0  0  0  0  0  0  0  0  0  0  0
    2.5960   -2.0308    0.0000 C   0  0  0  0  0  0  0  0  0  0  0  0
    4.0953   -1.9839    0.0000 C   0  0  0  0  0  0  0  0  0  0  0  0
    4.8043   -0.6621    0.0000 C   0  0  0  0  0  0  0  0  0  0  0  0
    6.3036   -0.6152    0.0000 O   0  0  0  0  0  0  0  0  0  0  0  0
    4.0141    0.6129    0.0000 O   0  0  0  0  0  0  0  0  0  0  0  0
    2.5148    0.5660    0.0000 C   0  0  0  0  0  0  0  0  0  0  0  0
    1.7246    1.8410    0.0000 C   0  0  0  0  0  0  0  0  0  0  0  0
    2.4336    3.1628    0.0000 O   0  0  0  0  0  0  0  0  0  0  0  0
  1  2  1  0
  2  3  1  0
  3  4  2  0
  4  5  1  0
  5  6  1  0
  6  7  2  0
  7  8  1  0
  7  9  1  0
  4 10  1  0
 10 11  1  0
 11 12  1  0
 12 13  2  0
 13 14  1  0
 13 15  1  0
 10 16  2  0
 16 17  1  0
 17 18  2  0
 18 19  1  0
 19 20  2  0
 19 21  1  0
 21 22  1  0
 22 23  2  0
 23 24  1  0
 23  3  1  0
 22 16  1  0
M  END
>  <identifier>  (1549) 
CNP0173860.0

>  <canonical_smiles>  (1549) 
COC1=C(CC=C(C)C)C(CC=C(C)C)=C2C=CC(=O)OC2=C1O

>  <standard_inchi>  (1549) 
InChI=1S/C20H24O4/c1-12(2)6-8-14-15(9-7-13(3)4)19(23-5)18(22)20-16(14)10-11-17(21)24-20/h6-7,10-11,22H,8-9H2,1-5H3

>  <standard_inchi_key>  (1549) 
QIWDMSGXFPDXDD-UHFFFAOYSA-N

>  <name>  (1549) 
nan

>  <iupac_name>  (1549) 
8-hydroxy-7-methoxy-5,6-bis(3-methylbut-2-enyl)chromen-2-one

>  <annotation_level>  (1549) 
4

>  <total_atom_count>  (1549) 
48

>  <heavy_atom_count>  (1549) 
24

>  <molecular_weight>  (1549) 
328.41

>  <exact_molecular_weight>  (1549) 
328.16746

>  <molecular_formula>  (1549) 
C20H24O4

>  <alogp>  (1549) 
4.52

>  <topological_polar_surface_area>  (1549) 
59.67

>  <rotatable_bond_count>  (1549) 
5

>  <hydrogen_bond_acceptors>  (1549) 
4

>  <hydrogen_bond_donors>  (1549) 
1

>  <hydrogen_bond_acceptors_lipinski>  (1549) 
4

>  <hydrogen_bond_donors_lipinski>  (1549) 
1

>  <lipinski_rule_of_five_violations>  (1549) 
0

>  <aromatic_rings_count>  (1549) 
2

>  <qed_drug_likeliness>  (1549) 
0.65

>  <formal_charge>  (1549) 
0

>  <fractioncsp3>  (1549) 
0.35

>  <number_of_minimal_rings>  (1549) 
2

>  <van_der_walls_volume>  (1549) 
nan

>  <contains_sugar>  (1549) 
False

>  <contains_ring_sugars>  (1549) 
False

>  <contains_linear_sugars>  (1549) 
False

>  <murcko_framework>  (1549) 
O1c2ccccc2C=CC1

>  <np_likeness>  (1549) 
1.55

>  <chemical_class>  (1549) 
Coumarins and derivatives

>  <chemical_sub_class>  (1549) 
Coumarins and derivatives

>  <chemical_super_class>  (1549) 
Phenylpropanoids and polyketides

>  <direct_parent_classification>  (1549) 
Coumarins and derivatives

>  <np_classifier_pathway>  (1549) 
Shikimates and Phenylpropanoids

>  <np_classifier_superclass>  (1549) 
Coumarins

>  <np_classifier_class>  (1549) 
Simple coumarins

>  <np_classifier_is_glycoside>  (1549) 
False

>  <organisms>  (1549) 
Brosimum parinarioides|Brosimum rubescens

>  <collections>  (1549) 
Latin America dataset|NuBBEDB|Super Natural II|UNPD (Universal Natural Products Database)|WikiData Natural Products|ZINC NP

>  <dois>  (1549) 
10.1016/S0031-9422(00)86395-5|10.1016/S0031-9422(00)89841-6

>  <synonyms>  (1549) 
Brosiprenin

>  <cas>  (1549) 
nan

$$$$

     RDKit          2D

 15 16  0  0  0  0  0  0  0  0999 V2000
   -4.6776   -1.8330    0.0000 C   0  0  0  0  0  0  0  0  0  0  0  0
   -3.1903   -2.0278    0.0000 O   0  0  0  0  0  0  0  0  0  0  0  0
   -2.2780   -0.8371    0.0000 C   0  0  0  0  0  0  0  0  0  0  0  0
   -2.8530    0.5483    0.0000 C   0  0  0  0  0  0  0  0  0  0  0  0
   -1.9406    1.7389    0.0000 C   0  0  0  0  0  0  0  0  0  0  0  0
   -2.5156    3.1244    0.0000 O   0  0  0  0  0  0  0  0  0  0  0  0
   -0.4533    1.5442    0.0000 O   0  0  0  0  0  0  0  0  0  0  0  0
    0.1216    0.1588    0.0000 C   0  0  0  0  0  0  0  0  0  0  0  0
    1.6089   -0.0360    0.0000 C   0  0  0  0  0  0  0  0  0  0  0  0
    2.1839   -1.4214    0.0000 C   0  0  0  0  0  0  0  0  0  0  0  0
    3.6712   -1.6162    0.0000 C   0  0  0  0  0  0  0  0  0  0  0  0
    4.5835   -0.4255    0.0000 C   0  0  0  0  0  0  0  0  0  0  0  0
    4.0086    0.9599    0.0000 N   0  0  0  0  0  0  0  0  0  0  0  0
    2.5213    1.1547    0.0000 C   0  0  0  0  0  0  0  0  0  0  0  0
   -0.7907   -1.0319    0.0000 C   0  0  0  0  0  0  0  0  0  0  0  0
  1  2  1  0
  2  3  1  0
  3  4  2  0
  4  5  1  0
  5  6  2  0
  5  7  1  0
  7  8  1  0
  8  9  1  0
  9 10  2  0
 10 11  1  0
 11 12  2  0
 12 13  1  0
 13 14  2  0
  8 15  2  0
 15  3  1  0
 14  9  1  0
M  END
>  <identifier>  (1550) 
CNP0251050.0

>  <canonical_smiles>  (1550) 
COC1=CC(=O)OC(C2=CC=CN=C2)=C1

>  <standard_inchi>  (1550) 
InChI=1S/C11H9NO3/c1-14-9-5-10(15-11(13)6-9)8-3-2-4-12-7-8/h2-7H,1H3

>  <standard_inchi_key>  (1550) 
WOOQLVPKDONBEX-UHFFFAOYSA-N

>  <name>  (1550) 
Anibine

>  <iupac_name>  (1550) 
4-methoxy-6-(3-pyridyl)pyran-2-one

>  <annotation_level>  (1550) 
5

>  <total_atom_count>  (1550) 
24

>  <heavy_atom_count>  (1550) 
15

>  <molecular_weight>  (1550) 
203.2

>  <exact_molecular_weight>  (1550) 
203.05824

>  <molecular_formula>  (1550) 
C11H9NO3

>  <alogp>  (1550) 
1.71

>  <topological_polar_surface_area>  (1550) 
52.33

>  <rotatable_bond_count>  (1550) 
2

>  <hydrogen_bond_acceptors>  (1550) 
4

>  <hydrogen_bond_donors>  (1550) 
0

>  <hydrogen_bond_acceptors_lipinski>  (1550) 
4

>  <hydrogen_bond_donors_lipinski>  (1550) 
0

>  <lipinski_rule_of_five_violations>  (1550) 
0

>  <aromatic_rings_count>  (1550) 
2

>  <qed_drug_likeliness>  (1550) 
0.75

>  <formal_charge>  (1550) 
0

>  <fractioncsp3>  (1550) 
0.09

>  <number_of_minimal_rings>  (1550) 
2

>  <van_der_walls_volume>  (1550) 
176.50

>  <contains_sugar>  (1550) 
False

>  <contains_ring_sugars>  (1550) 
False

>  <contains_linear_sugars>  (1550) 
False

>  <murcko_framework>  (1550) 
n1cccc(c1)C=2OCC=CC2

>  <np_likeness>  (1550) 
0.03

>  <chemical_class>  (1550) 
Pyrans

>  <chemical_sub_class>  (1550) 
Pyranones and derivatives

>  <chemical_super_class>  (1550) 
Organoheterocyclic compounds

>  <direct_parent_classification>  (1550) 
Pyranones and derivatives

>  <np_classifier_pathway>  (1550) 
Alkaloids

>  <np_classifier_superclass>  (1550) 
Nicotinic acid alkaloids

>  <np_classifier_class>  (1550) 
Pyridine alkaloids

>  <np_classifier_is_glycoside>  (1550) 
False

>  <organisms>  (1550) 
Aedes aegypti|Aniba coco|Aniba coto|Aniba hostmanniana|Aniba rosaeodora|Aniba spp.|Calea urticifolia

>  <collections>  (1550) 
ChEBI NPs|KNApSaCK|Latin America dataset|NPASS|NPEdia|NuBBEDB|Super Natural II|UNPD (Universal Natural Products Database)|WikiData Natural Products|ZINC NP

>  <dois>  (1550) 
10.1016/S0031-9422(00)89351-6|10.1021/JO01083A005

>  <synonyms>  (1550) 
2, 5-hydroxy-3-methoxy-5-(3-pyridyl)-, .delta.-lactone|4-methoxy-6-(pyridin-3-yl)-2h-pyran-2-one|643-91-4|AC1L6PFO|AC1Q69KA|Anibin|C10127|CHEBI:2729|DTXSID00290449|EN300-26869240|NSC68683|Q27105788|anibine

>  <cas>  (1550) 
643-91-4

$$$$

     RDKit          2D

 67 75  0  0  0  0  0  0  0  0999 V2000
   -6.0707   -4.2476    0.0000 O   0  0  0  0  0  0  0  0  0  0  0  0
   -5.2640   -2.9830    0.0000 C   0  0  0  0  0  0  0  0  0  0  0  0
   -3.8233   -3.4007    0.0000 O   0  0  0  0  0  0  0  0  0  0  0  0
   -2.3856   -2.9732    0.0000 C   0  0  0  0  0  0  0  0  0  0  0  0
   -1.4071   -1.8363    0.0000 C   0  0  0  0  0  0  0  0  0  0  0  0
   -0.7794   -3.1986    0.0000 O   0  0  0  0  0  0  0  0  0  0  0  0
    0.4853   -4.0052    0.0000 C   0  0  0  0  0  0  0  0  0  0  0  0
    0.0676   -5.4459    0.0000 O   0  0  0  0  0  0  0  0  0  0  0  0
    1.9853   -4.0001    0.0000 C   0  0  0  0  0  0  0  0  0  0  0  0
    2.0617   -5.4982    0.0000 C   0  0  0  0  0  0  0  0  0  0  0  0
    3.3973   -6.1810    0.0000 C   0  0  0  0  0  0  0  0  0  0  0  0
    3.4738   -7.6790    0.0000 O   0  0  0  0  0  0  0  0  0  0  0  0
    4.6564   -5.3657    0.0000 C   0  0  0  0  0  0  0  0  0  0  0  0
    5.9920   -6.0485    0.0000 O   0  0  0  0  0  0  0  0  0  0  0  0
    4.5800   -3.8677    0.0000 C   0  0  0  0  0  0  0  0  0  0  0  0
    5.2969   -3.5192    0.0000 O   0  0  0  0  0  0  0  0  0  0  0  0
    3.2444   -3.1849    0.0000 C   0  0  0  0  0  0  0  0  0  0  0  0
    3.8628   -1.8183    0.0000 C   0  0  0  0  0  0  0  0  0  0  0  0
    5.2573   -2.3711    0.0000 C   0  0  0  0  0  0  0  0  0  0  0  0
    5.4687   -3.1397    0.0000 O   0  0  0  0  0  0  0  0  0  0  0  0
    6.4332   -1.4398    0.0000 C   0  0  0  0  0  0  0  0  0  0  0  0
    7.8276   -1.9926    0.0000 O   0  0  0  0  0  0  0  0  0  0  0  0
    6.2147    0.0442    0.0000 C   0  0  0  0  0  0  0  0  0  0  0  0
    7.4953    0.8251    0.0000 O   0  0  0  0  0  0  0  0  0  0  0  0
    4.8202    0.5969    0.0000 C   0  0  0  0  0  0  0  0  0  0  0  0
    3.6443   -0.3343    0.0000 C   0  0  0  0  0  0  0  0  0  0  0  0
    2.6582    0.7959    0.0000 C   0  0  0  0  0  0  0  0  0  0  0  0
    3.4648    2.0606    0.0000 O   0  0  0  0  0  0  0  0  0  0  0  0
    1.2175    1.2136    0.0000 O   0  0  0  0  0  0  0  0  0  0  0  0
   -0.2203    0.7862    0.0000 C   0  0  0  0  0  0  0  0  0  0  0  0
   -1.1987   -0.3508    0.0000 C   0  0  0  0  0  0  0  0  0  0  0  0
   -1.8265    1.0115    0.0000 O   0  0  0  0  0  0  0  0  0  0  0  0
   -3.0911    1.8182    0.0000 C   0  0  0  0  0  0  0  0  0  0  0  0
   -2.6734    3.2588    0.0000 O   0  0  0  0  0  0  0  0  0  0  0  0
   -4.5911    1.8131    0.0000 C   0  0  0  0  0  0  0  0  0  0  0  0
   -4.6676    3.3111    0.0000 C   0  0  0  0  0  0  0  0  0  0  0  0
   -6.0032    3.9939    0.0000 C   0  0  0  0  0  0  0  0  0  0  0  0
   -6.0796    5.4920    0.0000 O   0  0  0  0  0  0  0  0  0  0  0  0
   -7.2623    3.1787    0.0000 C   0  0  0  0  0  0  0  0  0  0  0  0
   -8.5978    3.8615    0.0000 O   0  0  0  0  0  0  0  0  0  0  0  0
   -7.1858    1.6806    0.0000 C   0  0  0  0  0  0  0  0  0  0  0  0
   -8.5349    1.0249    0.0000 O   0  0  0  0  0  0  0  0  0  0  0  0
   -5.8502    0.9978    0.0000 C   0  0  0  0  0  0  0  0  0  0  0  0
   -6.4687   -0.3687    0.0000 C   0  0  0  0  0  0  0  0  0  0  0  0
   -6.2502   -1.8527    0.0000 C   0  0  0  0  0  0  0  0  0  0  0  0
   -7.4261   -2.7840    0.0000 C   0  0  0  0  0  0  0  0  0  0  0  0
   -8.8205   -2.2312    0.0000 C   0  0  0  0  0  0  0  0  0  0  0  0
   -9.9964   -3.1625    0.0000 O   0  0  0  0  0  0  0  0  0  0  0  0
   -9.0390   -0.7472    0.0000 C   0  0  0  0  0  0  0  0  0  0  0  0
  -10.4335   -0.1945    0.0000 O   0  0  0  0  0  0  0  0  0  0  0  0
   -7.8631    0.1840    0.0000 C   0  0  0  0  0  0  0  0  0  0  0  0
   -8.2609    1.6303    0.0000 O   0  0  0  0  0  0  0  0  0  0  0  0
    0.2632    2.2691    0.0000 C   0  0  0  0  0  0  0  0  0  0  0  0
    1.1898    3.4487    0.0000 O   0  0  0  0  0  0  0  0  0  0  0  0
    2.6328    3.8583    0.0000 C   0  0  0  0  0  0  0  0  0  0  0  0
    2.5059    5.3530    0.0000 O   0  0  0  0  0  0  0  0  0  0  0  0
    4.0410    3.3416    0.0000 C   0  0  0  0  0  0  0  0  0  0  0  0
    4.8765    2.0959    0.0000 C   0  0  0  0  0  0  0  0  0  0  0  0
    6.3731    2.1966    0.0000 C   0  0  0  0  0  0  0  0  0  0  0  0
    7.3543    1.0620    0.0000 O   0  0  0  0  0  0  0  0  0  0  0  0
    7.0342    3.5430    0.0000 C   0  0  0  0  0  0  0  0  0  0  0  0
    8.5308    3.6438    0.0000 O   0  0  0  0  0  0  0  0  0  0  0  0
    6.1987    4.7888    0.0000 C   0  0  0  0  0  0  0  0  0  0  0  0
    6.8598    6.1353    0.0000 O   0  0  0  0  0  0  0  0  0  0  0  0
    4.7021    4.6881    0.0000 C   0  0  0  0  0  0  0  0  0  0  0  0
    3.2276    4.4124    0.0000 C   0  0  0  0  0  0  0  0  0  0  0  0
    2.6757    5.8072    0.0000 O   0  0  0  0  0  0  0  0  0  0  0  0
  1  2  2  0
  2  3  1  0
  3  4  1  0
  5  4  1  1
  5  6  1  0
  6  7  1  0
  7  8  2  0
  7  9  1  0
  9 10  2  0
 10 11  1  0
 11 12  1  0
 11 13  2  0
 13 14  1  0
 13 15  1  0
 15 16  1  0
 15 17  2  0
 17 18  1  0
 18 19  2  0
 19 20  1  0
 19 21  1  0
 21 22  1  0
 21 23  2  0
 23 24  1  0
 23 25  1  0
 25 26  2  0
 26 27  1  0
 27 28  2  0
 27 29  1  0
 30 29  1  1
 30 31  1  0
 31 32  1  6
 32 33  1  0
 33 34  2  0
 33 35  1  0
 35 36  2  0
 36 37  1  0
 37 38  1  0
 37 39  2  0
 39 40  1  0
 39 41  1  0
 41 42  1  0
 41 43  2  0
 43 44  1  0
 44 45  2  0
 45 46  1  0
 46 47  2  0
 47 48  1  0
 47 49  1  0
 49 50  1  0
 49 51  2  0
 51 52  1  0
 30 53  1  0
 53 54  1  1
 54 55  1  0
 55 56  2  0
 55 57  1  0
 57 58  2  0
 58 59  1  0
 59 60  1  0
 59 61  2  0
 61 62  1  0
 61 63  1  0
 63 64  1  0
 63 65  2  0
 65 66  1  0
 66 67  1  1
 45  2  1  0
 66 53  1  0
 31  5  1  0
 43 35  1  0
 51 44  1  0
 65 57  1  0
 17  9  1  0
 26 18  1  0
 58 25  1  0
M  END
>  <identifier>  (1551) 
CNP0571282.12

>  <canonical_smiles>  (1551) 
O=C1OC[C@@H]2OC(=O)C3=CC(O)=C(O)C(O)=C3C3=C(O)C(O)=C(O)C4=C3C(=O)O[C@@H]([C@H]2OC(=O)C2=CC(O)=C(O)C(O)=C2C2=C1C=C(O)C(O)=C2O)[C@H]1OC(=O)C2=C4C(O)=C(O)C(O)=C2[C@@H]1O

>  <standard_inchi>  (1551) 
InChI=1S/C41H26O26/c42-8-1-5-12(24(48)21(8)45)13-6(2-9(43)22(46)25(13)49)39(60)65-34-11(4-63-37(5)58)64-38(59)7-3-10(44)23(47)26(50)14(7)15-18-16(28(52)32(56)27(15)51)17-19-20(30(54)33(57)29(17)53)31(55)35(66-41(19)62)36(34)67-40(18)61/h1-3,11,31,34-36,42-57H,4H2/t11-,31-,34-,35-,36-/m0/s1

>  <standard_inchi_key>  (1551) 
UDYKDZHZAKSYCO-HZJXWCEWSA-N

>  <name>  (1551) 
nan

>  <iupac_name>  (1551) 
(1~{R},2~{S},20~{S},42~{S},46~{S})-7,8,9,12,13,14,25,26,27,30,31,32,35,36,37,46-hexadecahydroxy-3,18,21,41,43-pentaoxanonacyclo[27.13.3.1^{38,42}.0^{2,20}.0^{5,10}.0^{11,16}.0^{23,28}.0^{33,45}.0^{34,39}]hexatetraconta-5,7,9,11(16),12,14,23,25,27,29,31,33(45),34(39),35,37-pentadecaene-4,17,22,40,44-pentone

>  <annotation_level>  (1551) 
4

>  <total_atom_count>  (1551) 
93

>  <heavy_atom_count>  (1551) 
67

>  <molecular_weight>  (1551) 
934.63

>  <exact_molecular_weight>  (1551) 
934.07123

>  <molecular_formula>  (1551) 
C41H26O26

>  <alogp>  (1551) 
1.32

>  <topological_polar_surface_area>  (1551) 
455.18

>  <rotatable_bond_count>  (1551) 
0

>  <hydrogen_bond_acceptors>  (1551) 
26

>  <hydrogen_bond_donors>  (1551) 
16

>  <hydrogen_bond_acceptors_lipinski>  (1551) 
26

>  <hydrogen_bond_donors_lipinski>  (1551) 
16

>  <lipinski_rule_of_five_violations>  (1551) 
3

>  <aromatic_rings_count>  (1551) 
5

>  <qed_drug_likeliness>  (1551) 
0.06

>  <formal_charge>  (1551) 
0

>  <fractioncsp3>  (1551) 
0.15

>  <number_of_minimal_rings>  (1551) 
10

>  <van_der_walls_volume>  (1551) 
nan

>  <contains_sugar>  (1551) 
False

>  <contains_ring_sugars>  (1551) 
False

>  <contains_linear_sugars>  (1551) 
False

>  <murcko_framework>  (1551) 
O1Cc2ccccc2-c3ccccc3COC4C(OCc5ccccc5-c6cccc7-c8cccc9c8COC(C9)C4OCc67)C1

>  <np_likeness>  (1551) 
0.99

>  <chemical_class>  (1551) 
Tannins

>  <chemical_sub_class>  (1551) 
Hydrolyzable tannins

>  <chemical_super_class>  (1551) 
Phenylpropanoids and polyketides

>  <direct_parent_classification>  (1551) 
Hydrolyzable tannins

>  <np_classifier_pathway>  (1551) 
Shikimates and Phenylpropanoids

>  <np_classifier_superclass>  (1551) 
Phenolic acids (C6-C1)

>  <np_classifier_class>  (1551) 
Gallotannins

>  <np_classifier_is_glycoside>  (1551) 
False

>  <organisms>  (1551) 
Siphoneugena densiflora

>  <collections>  (1551) 
Latin America dataset|NuBBEDB|WikiData Natural Products

>  <dois>  (1551) 
10.1515/ZNC-2008-5-611|10.1590/S0103-50532006000200010

>  <synonyms>  (1551) 
castalagin

>  <cas>  (1551) 
nan

$$$$

     RDKit          2D

 24 26  0  0  0  0  0  0  0  0999 V2000
   -3.8173    3.0462    0.0000 C   0  0  0  0  0  0  0  0  0  0  0  0
   -2.9052    1.8553    0.0000 C   0  0  0  0  0  0  0  0  0  0  0  0
   -1.4179    2.0497    0.0000 C   0  0  0  0  0  0  0  0  0  0  0  0
   -0.5059    0.8588    0.0000 C   0  0  0  0  0  0  0  0  0  0  0  0
   -1.0812   -0.5265    0.0000 C   0  0  0  0  0  0  0  0  0  0  0  0
   -0.1692   -1.7174    0.0000 C   0  0  0  0  0  0  0  0  0  0  0  0
    1.3182   -1.5230    0.0000 C   0  0  0  0  0  0  0  0  0  0  0  0
    1.8935   -0.1377    0.0000 C   0  0  0  0  0  0  0  0  0  0  0  0
    3.3808    0.0567    0.0000 C   0  0  0  0  0  0  0  0  0  0  0  0
    4.8450   -0.2694    0.0000 C   0  0  0  0  0  0  0  0  0  0  0  0
    3.3140   -1.4419    0.0000 C   0  0  0  0  0  0  0  0  0  0  0  0
    1.9828   -2.1332    0.0000 O   0  0  0  0  0  0  0  0  0  0  0  0
    4.5783   -2.2490    0.0000 O   0  0  0  0  0  0  0  0  0  0  0  0
    3.9562    1.4419    0.0000 C   0  0  0  0  0  0  0  0  0  0  0  0
    3.0442    2.6328    0.0000 C   0  0  0  0  0  0  0  0  0  0  0  0
    1.5568    2.4384    0.0000 C   0  0  0  0  0  0  0  0  0  0  0  0
    0.9815    1.0532    0.0000 C   0  0  0  0  0  0  0  0  0  0  0  0
    0.0695    2.2441    0.0000 C   0  0  0  0  0  0  0  0  0  0  0  0
   -2.5686   -0.7209    0.0000 C   0  0  0  0  0  0  0  0  0  0  0  0
   -3.1439   -2.1061    0.0000 C   0  0  0  0  0  0  0  0  0  0  0  0
   -4.6312   -2.3005    0.0000 C   0  0  0  0  0  0  0  0  0  0  0  0
   -2.2319   -3.2970    0.0000 C   0  0  0  0  0  0  0  0  0  0  0  0
   -3.4806    0.4700    0.0000 C   0  0  0  0  0  0  0  0  0  0  0  0
   -4.9679    0.2756    0.0000 O   0  0  0  0  0  0  0  0  0  0  0  0
  1  2  1  0
  2  3  2  0
  3  4  1  0
  4  5  2  0
  5  6  1  0
  6  7  1  0
  8  7  1  6
  8  9  1  0
  9 10  1  1
  9 11  1  0
 11 12  2  0
 11 13  1  0
  9 14  1  0
 14 15  1  0
 15 16  1  0
 16 17  1  0
 17 18  1  6
  5 19  1  0
 19 20  1  0
 20 21  1  0
 20 22  1  0
 19 23  2  0
 23 24  1  0
 23  2  1  0
 17  4  1  0
 17  8  1  0
M  END
>  <identifier>  (1552) 
CNP0080635.1

>  <canonical_smiles>  (1552) 
CC1=CC2=C(CC[C@H]3[C@@](C)(C(=O)O)CCC[C@]23C)C(C(C)C)=C1O

>  <standard_inchi>  (1552) 
InChI=1S/C21H30O3/c1-12(2)17-14-7-8-16-20(4,15(14)11-13(3)18(17)22)9-6-10-21(16,5)19(23)24/h11-12,16,22H,6-10H2,1-5H3,(H,23,24)/t16-,20-,21+/m1/s1

>  <standard_inchi_key>  (1552) 
VMWHHCFBLVWPGP-HBGVWJBISA-N

>  <name>  (1552) 
nan

>  <iupac_name>  (1552) 
(1~{S},4~{a}~{S},10~{a}~{R})-7-hydroxy-8-isopropyl-1,4~{a},6-trimethyl-2,3,4,9,10,10~{a}-hexahydrophenanthrene-1-carboxylic acid

>  <annotation_level>  (1552) 
4

>  <total_atom_count>  (1552) 
54

>  <heavy_atom_count>  (1552) 
24

>  <molecular_weight>  (1552) 
330.47

>  <exact_molecular_weight>  (1552) 
330.21949

>  <molecular_formula>  (1552) 
C21H30O3

>  <alogp>  (1552) 
4.92

>  <topological_polar_surface_area>  (1552) 
57.53

>  <rotatable_bond_count>  (1552) 
2

>  <hydrogen_bond_acceptors>  (1552) 
2

>  <hydrogen_bond_donors>  (1552) 
2

>  <hydrogen_bond_acceptors_lipinski>  (1552) 
2

>  <hydrogen_bond_donors_lipinski>  (1552) 
2

>  <lipinski_rule_of_five_violations>  (1552) 
0

>  <aromatic_rings_count>  (1552) 
1

>  <qed_drug_likeliness>  (1552) 
0.81

>  <formal_charge>  (1552) 
0

>  <fractioncsp3>  (1552) 
0.67

>  <number_of_minimal_rings>  (1552) 
3

>  <van_der_walls_volume>  (1552) 
nan

>  <contains_sugar>  (1552) 
False

>  <contains_ring_sugars>  (1552) 
False

>  <contains_linear_sugars>  (1552) 
False

>  <murcko_framework>  (1552) 
c1ccc2c(c1)CCC3CCCCC23

>  <np_likeness>  (1552) 
2.20

>  <chemical_class>  (1552) 
Prenol lipids

>  <chemical_sub_class>  (1552) 
Diterpenoids

>  <chemical_super_class>  (1552) 
Lipids and lipid-like molecules

>  <direct_parent_classification>  (1552) 
Diterpenoids

>  <np_classifier_pathway>  (1552) 
Terpenoids

>  <np_classifier_superclass>  (1552) 
Diterpenoids

>  <np_classifier_class>  (1552) 
Totarane diterpenoids

>  <np_classifier_is_glycoside>  (1552) 
False

>  <organisms>  (1552) 
Podocarpus lambereis

>  <collections>  (1552) 
Latin America dataset|NuBBEDB

>  <dois>  (1552) 
10.1016/0031-9422(75)85047-3

>  <synonyms>  (1552) 
macrophyllic acid

>  <cas>  (1552) 
nan

$$$$

     RDKit          2D

  8  7  0  0  0  0  0  0  0  0999 V2000
   -3.5624    0.9566    0.0000 C   0  0  0  0  0  0  0  0  0  0  0  0
   -2.0750    0.7623    0.0000 C   0  0  0  0  0  0  0  0  0  0  0  0
   -1.4996   -0.6229    0.0000 O   0  0  0  0  0  0  0  0  0  0  0  0
   -0.0122   -0.8172    0.0000 C   0  0  0  0  0  0  0  0  0  0  0  0
    0.5632   -2.2024    0.0000 C   0  0  0  0  0  0  0  0  0  0  0  0
    0.8997    0.3738    0.0000 O   0  0  0  0  0  0  0  0  0  0  0  0
    2.3871    0.1795    0.0000 C   0  0  0  0  0  0  0  0  0  0  0  0
    3.2990    1.3704    0.0000 C   0  0  0  0  0  0  0  0  0  0  0  0
  1  2  1  0
  2  3  1  0
  3  4  1  0
  4  5  1  0
  4  6  1  0
  6  7  1  0
  7  8  1  0
M  END
>  <identifier>  (1553) 
CNP0177172.0

>  <canonical_smiles>  (1553) 
CCOC(C)OCC

>  <standard_inchi>  (1553) 
InChI=1S/C6H14O2/c1-4-7-6(3)8-5-2/h6H,4-5H2,1-3H3

>  <standard_inchi_key>  (1553) 
DHKHKXVYLBGOIT-UHFFFAOYSA-N

>  <name>  (1553) 
Acetal

>  <iupac_name>  (1553) 
1,1-diethoxyethane

>  <annotation_level>  (1553) 
5

>  <total_atom_count>  (1553) 
22

>  <heavy_atom_count>  (1553) 
8

>  <molecular_weight>  (1553) 
118.18

>  <exact_molecular_weight>  (1553) 
118.09938

>  <molecular_formula>  (1553) 
C6H14O2

>  <alogp>  (1553) 
1.41

>  <topological_polar_surface_area>  (1553) 
18.46

>  <rotatable_bond_count>  (1553) 
4

>  <hydrogen_bond_acceptors>  (1553) 
2

>  <hydrogen_bond_donors>  (1553) 
0

>  <hydrogen_bond_acceptors_lipinski>  (1553) 
2

>  <hydrogen_bond_donors_lipinski>  (1553) 
0

>  <lipinski_rule_of_five_violations>  (1553) 
0

>  <aromatic_rings_count>  (1553) 
0

>  <qed_drug_likeliness>  (1553) 
0.52

>  <formal_charge>  (1553) 
0

>  <fractioncsp3>  (1553) 
1.00

>  <number_of_minimal_rings>  (1553) 
0

>  <van_der_walls_volume>  (1553) 
129.95

>  <contains_sugar>  (1553) 
False

>  <contains_ring_sugars>  (1553) 
False

>  <contains_linear_sugars>  (1553) 
False

>  <murcko_framework>  (1553) 
nan

>  <np_likeness>  (1553) 
0.29

>  <chemical_class>  (1553) 
Organooxygen compounds

>  <chemical_sub_class>  (1553) 
Ethers

>  <chemical_super_class>  (1553) 
Organic oxygen compounds

>  <direct_parent_classification>  (1553) 
Acetals

>  <np_classifier_pathway>  (1553) 
Fatty acids

>  <np_classifier_superclass>  (1553) 
nan

>  <np_classifier_class>  (1553) 
nan

>  <np_classifier_is_glycoside>  (1553) 
False

>  <organisms>  (1553) 
Allium ampeloprasum|Allium cepa|Citrus reticulata|Citrus × deliciosa|Cynomorium songaricum|Dictyota|Eucalyptus leucoxylon|Eucalyptus melliodora|Mentha arvensis|Mentha canadensis|Panax ginseng|Psidium salutare|Pterocarpus indicus

>  <collections>  (1553) 
Australian natural products|CMAUP (cCollective molecular activities of useful plants)|FooDB|Latin America dataset|NPASS|NuBBEDB|Phyto4Health|Super Natural II|TCMDB-Taiwan (Traditional Chinese Medicine database)|TCMID (Traditional Chinese Medicine Integrated Database)|UNPD (Universal Natural Products Database)|WikiData Natural Products

>  <dois>  (1553) 
10.1016/0031-9422(93)85023-K|10.1021/JF0116303|10.1021/JF061582S|10.1021/JF960625+|10.1021/jf960625+|10.1080/10412905.1991.9697935|10.1590/S0100-40422002000700009

>  <synonyms>  (1553) 
1, 1-Diaethoxy-aethan(GERMAN)|1, 1-Diethoxyethane|1,1-DIETHOXYETHANE|1,1-Diaethoxy-aethan [German]|1,1-Diethoxy-ethaan|1,1-Diethoxy-ethaan [Dutch]|1,1-Diethoxyacetal|1,1-Dietossietano|1,1-Dietossietano [Italian]|1,1-diethoxy-ethane|105-57-7|30846-29-8|5G14F9E2HB|ACETAL [FHFI]|ACETAL [HSDB]|ACETAL [MI]|ACETALDEHYDE DIETHYL ACETAL [FCC]|ACETALDEHYDE-D4 DIETHYL ACETAL|AI3-24135|AKOS005721110|AT-20GF|Acetaal|Acetaal [Dutch]|Acetal (Acetaldehyde diethyl acetal)|Acetal (VAN)|Acetal (natural)|Acetal [UN1088] [Flammable liquid]|Acetal diethylique|Acetal diethylique [French]|Acetal resin|Acetal, >=98%, FG|Acetal, natural, FG, >=97%|Acetaldehyde diethyl acetal|Acetaldehyde diethyl acetal, analytical standard|Acetaldehyde diethylacetal 100 microg\/mL in Acetonitrile|Acetale|Acetale [Italian]|Aceton NS|Acetron GP|BBL011492|BRN 1098310|CAS-105-57-7|CH3CH(OC2H5)2|CHEBI:179533|CHEMBL1338583|Cadco acetal|Capsicum annuum l|D0455|DB-040634|DTXCID4010607|DTXSID6030607|Delrin 100AF, 500AF|Delrin 100ST|Delrin 107|Delrin 150SA|Delrin 500T|Delrin 570|Delrin 900|Delrin AF Blend|Diaethylacetal [German]|Diaethylacetal(german)|Diethoxy-1,1-ethane|Diethyl acetal|EINECS 203-310-6|EN300-20127|Electrafil J-80\/CF\/10\/TF\/10|Ethanal diethyl acetal|Ethane, 1,1-diethoxy-|Ethane, diethoxy-|Ethylidene diethyl ether|F8880-7267|FEMA 2002|FEMA No. 2002|HSDB 1635|InChI=1\/C6H14O2\/c1-4-7-6(3)8-5-2\/h6H,4-5H2,1-3H|J-001450|J-803005|MFCD00009243|N,N-Diethyl-N,N-dibenzyl ammonium chloride|NCGC00091076-01|NCGC00257828-01|NS00011924|NSC 7624|NSC-7624|Q410938|SCHEMBL9459|SR-01000944353|STL146604|Thermocomp KB-1008|Tox21_111078|Tox21_200274|UN1088|UNII-5G14F9E2HB|USAF DO-45|VS-02960|WLN: 2OY1 & O2|Z104476998|diethoxyethane

>  <cas>  (1553) 
105-57-7|30846-29-8

$$$$

     RDKit          2D

 21 20  0  0  0  0  0  0  0  0999 V2000
    5.3730    1.5412    0.0000 C   0  0  0  0  0  0  0  0  0  0  0  0
    5.9139    0.1421    0.0000 C   0  0  0  0  0  0  0  0  0  0  0  0
    7.3960   -0.0890    0.0000 C   0  0  0  0  0  0  0  0  0  0  0  0
    8.3372    1.0790    0.0000 C   0  0  0  0  0  0  0  0  0  0  0  0
    9.8193    0.8479    0.0000 O   0  0  0  0  0  0  0  0  0  0  0  0
    4.9728   -1.0258    0.0000 C   0  0  0  0  0  0  0  0  0  0  0  0
    3.4907   -0.7947    0.0000 C   0  0  0  0  0  0  0  0  0  0  0  0
    2.5495   -1.9627    0.0000 C   0  0  0  0  0  0  0  0  0  0  0  0
    1.0674   -1.7316    0.0000 C   0  0  0  0  0  0  0  0  0  0  0  0
    0.1262   -2.8996    0.0000 C   0  0  0  0  0  0  0  0  0  0  0  0
    0.5265   -0.3325    0.0000 C   0  0  0  0  0  0  0  0  0  0  0  0
   -0.9556   -0.1014    0.0000 C   0  0  0  0  0  0  0  0  0  0  0  0
   -1.4965    1.2977    0.0000 C   0  0  0  0  0  0  0  0  0  0  0  0
   -2.9786    1.5288    0.0000 C   0  0  0  0  0  0  0  0  0  0  0  0
   -3.5195    2.9278    0.0000 C   0  0  0  0  0  0  0  0  0  0  0  0
   -3.9198    0.3608    0.0000 C   0  0  0  0  0  0  0  0  0  0  0  0
   -5.4019    0.5919    0.0000 C   0  0  0  0  0  0  0  0  0  0  0  0
   -6.3431   -0.5761    0.0000 C   0  0  0  0  0  0  0  0  0  0  0  0
   -7.8252   -0.3450    0.0000 C   0  0  0  0  0  0  0  0  0  0  0  0
   -8.7663   -1.5129    0.0000 C   0  0  0  0  0  0  0  0  0  0  0  0
   -8.3661    1.0541    0.0000 C   0  0  0  0  0  0  0  0  0  0  0  0
  1  2  1  0
  2  3  2  0
  3  4  1  0
  4  5  1  0
  2  6  1  0
  6  7  1  0
  7  8  1  0
  8  9  1  0
  9 10  1  6
  9 11  1  0
 11 12  1  0
 12 13  1  0
 13 14  1  0
 14 15  1  1
 14 16  1  0
 16 17  1  0
 17 18  1  0
 18 19  1  0
 19 20  1  0
 19 21  1  0
M  END
>  <identifier>  (1554) 
CNP0247222.1

>  <canonical_smiles>  (1554) 
C/C(=C\CO)CCC[C@H](C)CCC[C@H](C)CCCC(C)C

>  <standard_inchi>  (1554) 
InChI=1S/C20H40O/c1-17(2)9-6-10-18(3)11-7-12-19(4)13-8-14-20(5)15-16-21/h15,17-19,21H,6-14,16H2,1-5H3/b20-15+/t18-,19-/m1/s1

>  <standard_inchi_key>  (1554) 
BOTWFXYSPFMFNR-PYDDKJGSSA-N

>  <name>  (1554) 
Phytol

>  <iupac_name>  (1554) 
(~{E},7~{R},11~{R})-3,7,11,15-tetramethylhexadec-2-en-1-ol

>  <annotation_level>  (1554) 
5

>  <total_atom_count>  (1554) 
61

>  <heavy_atom_count>  (1554) 
21

>  <molecular_weight>  (1554) 
296.54

>  <exact_molecular_weight>  (1554) 
296.30792

>  <molecular_formula>  (1554) 
C20H40O

>  <alogp>  (1554) 
6.36

>  <topological_polar_surface_area>  (1554) 
20.23

>  <rotatable_bond_count>  (1554) 
13

>  <hydrogen_bond_acceptors>  (1554) 
1

>  <hydrogen_bond_donors>  (1554) 
1

>  <hydrogen_bond_acceptors_lipinski>  (1554) 
1

>  <hydrogen_bond_donors_lipinski>  (1554) 
1

>  <lipinski_rule_of_five_violations>  (1554) 
1

>  <aromatic_rings_count>  (1554) 
0

>  <qed_drug_likeliness>  (1554) 
0.39

>  <formal_charge>  (1554) 
0

>  <fractioncsp3>  (1554) 
0.90

>  <number_of_minimal_rings>  (1554) 
0

>  <van_der_walls_volume>  (1554) 
344.80

>  <contains_sugar>  (1554) 
False

>  <contains_ring_sugars>  (1554) 
False

>  <contains_linear_sugars>  (1554) 
False

>  <murcko_framework>  (1554) 
nan

>  <np_likeness>  (1554) 
1.53

>  <chemical_class>  (1554) 
Prenol lipids

>  <chemical_sub_class>  (1554) 
Diterpenoids

>  <chemical_super_class>  (1554) 
Lipids and lipid-like molecules

>  <direct_parent_classification>  (1554) 
Acyclic diterpenoids

>  <np_classifier_pathway>  (1554) 
Terpenoids

>  <np_classifier_superclass>  (1554) 
Diterpenoids

>  <np_classifier_class>  (1554) 
Phytane diterpenoids

>  <np_classifier_is_glycoside>  (1554) 
False

>  <organisms>  (1554) 
Abies pinsapo var. tazaotana|Abies spectabilis|Abuta concolor|Acanthodoris nanaimoensis|Acca sellowiana|Achillea abrotanoides|Achillea filipendulina|Achillea grandifolia|Acorus calamus|Acrisione denticulata|Adenocaulon himalaicum|Agrimonia pilosa|Ajuga chamaepitys|Alcyonium paessleri|Alibertia edulis|Alliaria petiolata|Aloe excelsa|Alstonia rostrata|Alternaria botrytis|Anchietea pyrifolia|Anchietea salutaris|Andrographis paniculata|Anemone narcissiflora|Angiopteris evecta|Anoplophora chinensis|Anthemis cotula|Anthemis triumfetti|Aphanizomenon|Apium graveolens|Aplysina gerardogreeni|Apocynum cannabinum|Apocynum venetum|Apopellia endiviifolia|Aquilegia coerulea|Arabidopsis thaliana|Arctostaphylos uva-ursi|Argemone mexicana|Aristolochia elegans|Aristolochia littoralis|Aristolochia odoratissima|Aristolochiaceae|Artabotrys Uncinatus|Artabotrys hexapetalus|Artabotrys uncinatus|Artemisia Annua|Artemisia annua|Artemisia annua L.|Artemisia annua L.cultivar Jwarharti|Artemisia apiacea|Artemisia campestris|Artemisia capillaris|Artemisia glauca|Artemisia inculta|Artemisia santolinifolia|Artemisia stechmanniana|Artemisia vulgaris|Artocarpus altilis|Asclepias curassavica|Aster altaicus|Aster scaber|Astragalus alexandri|Atalantia buxifolia|Athamanta vayredana|Aucuba japonica|Azadirachta indica|Baccharis genistelloides|Baccharis gnidiifolia|Baccharis heterophylla|Baccharis sagittalis|Baccharis venosa|Bacillus subtilis|Ballota nigra|Barbacenia flava|Basella alba|Beilschmiedia obtusifolia|Bergenia hissarica|Betula|Bidens pilosa|Blainvillea acmella|Boerhavia repens|Bombyx mori|Bouchardatia neurococca|Breonia chinensis|Brickellia diffusa|Buxus wallichiana|Byrsonima microphylla|Caesalpinia Pulcherrima|Caesalpinia pulcherrima|Calea jamaicensis|Calea prunifolia|Calocedrus formosana|Camassia cusickii|Camellia japonica|Camellia sinensis|Campylotropis hirtella|Cannabis sativa|Carpesium faberi|Cassia roxburghii|Cassipourea guianensis|Cassipourea gummiflua|Castanopsis fissa|Castilleja sulphurea|Caulerpa racemosa|Cecropia pachystachya|Celastrus scandens|Centaurea calcitrapa|Centipeda minima|Ceropegia dichotoma|Chaetanthera chilensis|Chaiturus marrubiastrum|Chamaecyparis formosensis|Chamomilla recutita|Chengiopanax sciadophylloides|Chlamydomonas reinhardtii|Chondrophycus papillosus|Chrysanthemum indicum|Chrysanthemum x morifolium|Chrysocephalum ambiguum|Cineraria parvifolia|Cinnamomum kotoense|Cinnamomum sieboldii|Citrus grandis|Citrus hystrix|Citrus limettioides|Citrus maxima|Citrus medica|Citrus medica var. sarcodactylis|Citrus reticulata|Citrus sunki|Citrus unshiu|Citrus × deliciosa|Citrus × paradisi|Clausena anisata|Clausena dunniana|Cleome hirta|Clerodendranthus spicatus|Clerodendrum formicarum|Clibadium microcephalum|Clinopodium acinos|Clinopodium vulgare|Codium indicum|Coespeletia lutescens|Coleus parvifolius|Conocephalum conicum|Corchorus capsularis|Corchorus olitorius|Cota austriaca|Cota triumfetti|Cota triumfettii|Creolophus cirrhatus|Crinum moorei|Crotalaria candicans|Crotalaria madurensis|Croton gratissimus var. gratissimus|Croton hieronymi|Croton jimenezii|Croton pulegiodorus|Croton regelianus|Croton tetradenius|Croton zambesicus|Cryptomeria japonica|Cunila spicata|Curcuma pierreana|Cyathea podophylla|Cymbopogon citratus|Cynoglossum gansuense|Cyperus Rotundus|Cyperus conglomeratus|Cyperus rotundus|Cyperus rotundus L.|Cystoclonium purpureum|Dactynotus rudbeckiae|Daphne odora|Dendrobium densiflorum|Dendrobium loddigesii|Desmarestia aculeata|Desmos chinensis|Dictyota spiralis|Dioscorea sativa|Distephanus angulifolius|Dumortiera hirsuta|Durvillaea potatorum|Echinocereus merkeri|Echinophora tournefortii|Eclipta prostrata|Eleutherococcus giraldii|Elodea canadensis|Eria japonica|Erucaria microcarpa|Eucalyptus apodophylla|Eucalyptus globulus subsp. bicostata|Eunicea calyculata|Eupatorium altissimum|Euphorbia hirta|Euphorbia kaleniczenkii|Euphorbia lathyris|Euryops linifolius|Euscaphis japonica|Fatsia japonica|Festuca arundinacea|Festuca rubra|Fleischmannia hymenophylla|Forsythia japonica|Fossombronia alaskana|Fucus vesiculosus|Garuga gamblei|Geigeria brevifolia|Geigeria burkei|Geigeria burkei var. burkei|Geitlerinema splendidum|Genista tricuspidata|Glebionis coronaria|Glebionis coronarium|Glechoma hirsuta|Glehnia littoralis|Glycosmis macrophylla|Gomphostemma microdon|Gracilariopsis andersonii|Grangea maderaspatana|Guarea glabra|Guarea guidonia|Guizotia scabra|Gunnera perpensa|Gymnodinium nagasakiense|Gymnosporia trigyna|Gynandropsis gynandra|Gypsophila perfoliata|Halfordia scleroxyla|Halimium viscosum|Halomonas meridiana|Hamamelis virginiana|Hebeclinium macrophyllum|Helichrysum drakensbergense|Helichrysum glomeratum|Heliopsis buphthalmoides|Helogyne hutchisonii|Hoffmannia strigillosa|Hordeum vulgare|Hoslundia opposita|Houttuynia cordata|Huperzia miyoshiana|Hydrangea chinensis|Hymenoxys scaposa|Hyperbaena columbica|Hypericum perforatum|Hypericum polyanthemum|Hypoxylon serpens|Hyssopus lophanthoides|Ilex microdonta|Inula japonica|Ipomoea pes-caprae|Isodon flexicaulis|Iva hayesiana|Jaaginema geminatum|Jolyna laminarioides|Juniperus chinensis|Juniperus drupacea|Juniperus phoenicea|Juniperus thurifera var.africana|Justicia heterocarpa|Justicia heterocarpa T.ANDERS|Karenia mikimotoi|Koanophyllon albicaule|Koanophyllon albicaulis|Kumquat|Lactococcus lactis|Lagerstroemia speciosa|Lamium amplexicaule|Lantana ukambensis|Laurencia intricata|Laurencia nipponica|Lavandula latifolia|Lemna minor|Leonurus heterophyllus|Lepidium meyenii|Leptosyne bigelovii|Lespedeza davidii|Lespedeza striata|Leucas nutans|Leucas volkensii|Leucosceptrum canum|Liabum floribundum|Liatris graminifolia|Limnodynastes terraereginae|Linaria purpurea|Lindera aggregata|Lindera glauca|Linum usitatissimum|Lippia Myriocephala|Lolium multiflorum|Lomatia silaifolia|Lupinus macounii|Lychnophora hakeaefolia|Mandragora officinarum|Marchantia palmata|Marrubium parviflorum|Martensia denticulata|Matricaria chamomilla|Matthiola incana|Melaleuca leucadendra|Melaleuca leucadendron|Melampodium cinereum|Melanochromis auratus|Melia dubia|Mentha cablin|Mentha cardiaca|Mentha pulegium|Methysticodendron amesianum|Micranthemum umbrosum|Microcoleus amoenus|Microglossa pyrifolia|Mikania vitifolia|Milleria quinqueflora|Mollinedia gilgiana|Mollinedia marliae|Monascus kaoliang|Montanoa hibiscifolia|Monteverdia ilioppjfeowneviufheiuwfew fgr|Monteverdia truncata|Morinda Citrifolia|Morinda citrifolia|Morinda citrifolia L.|Morus alba|Mutisia spinosa|Mycobacterium marinum|Myrsinaceae|Navicula delognei|Nelumbo lutea|Nelumbo nucifera|Neofinetia falcata|Neolitsea hiiranensis|Nepeta tuberosa|Nervilia aragoana|Nervilia concolor|Nervilia plicata|Nidorella aegyptiaca|Nidorella hottentotica|Nidorella podocephala|Ocimum gratissimum|Oenanthe javanica|Oenothera biennis|Ononis natrix|Ononis speciosa|Ononis spinosa|Ormosia flava|Orthosiphon aristatus|Orthosiphon grandiflorus|Oscillatoria amoena|Oscillatoria geminata|Oscillatoria splendida|Ovatus malisuctus|Palisada perforata|Parasenecio auriculata|Parasenecio auriculatus|Parentucellia latifolia|Parlibellus delognei|Passiflora incarnata|Patrinia scabiosifolia|Patrinia villosa|Pellia endiviifolia|Pellia epiphylla|Pellia neesiana|Pentaclethra macrophylla|Peperomia humilis|Peperomia leptostachya|Peperomia sui|Perilla frutescens|Periploca sepium|Persicaria hydropiperoides|Persicaria minor|Petasites albus|Petasites hybridus|Phlegmariurus fordii|Phormidium luridum|Photinia lucida|Pilidiostigma glabrum|Piper aduncum|Piper auritum|Piper betle|Piper decurrens|Piper kadsura|Piper lhotzkyanum|Piper rusbyi|Piper sintenense|Piptostigma fasciculatum|Pittosporum tobira|Plagiochasma rupestre|Plectranthus myrianthus|Podostictina degelii|Pogostemon parviflorus|Polygonatum kingianum|Polygonum Minus|Polygonum minus|Pometia eximia|Porcelia macrocarpa|Porella perrottetiana|Porella platyphylla|Porphyra tenera|Porphyra yezoensis|Pourthiaea arguta|Premna serratifolia|Primulaceae|Prunella vulgaris|Prunus Mume|Prunus mume|Prunus zippeliana|Pseudobrickellia brasiliensis|Psydrax dicoccos|Pteris formosana|Pterocaulon virgatum|Pulicaria dysenterica|Pyrola japonica|Qualea grandiflora|Radula complanata|Radula perrottetii|Raphanus sativus|Rhizophora mangle|Rhodiola semenovii|Rhododendron dauricum|Rhododendron latoucheae|Rhodotorula glutinis|Ricciocarpos natans|Ricciocarpus natans|Rosmarinus officinalis|Salvia broussoneti|Salvia clevelandi|Salvia corrugata|Salvia divinorum|Salvia sessei|Saponaria officinalis|Sarcophyton subviride|Sargassum siliquastrum|Saussurea candicans|Scapania undulata|Schefflera arboricola|Schefflera taiwaniana|Scutellaria altissima|Scutellaria barbata|Senecio flammeus|Senecio portalesianus|Senecio subumbellatus|Senecio vulgaris|Senegalia catechu|Senna alexandrina|Sideritis lanata|Sideritis romana|Sinularia parva|Smallanthus connatus|Smallanthus sonchifolius|Solanum aethiopicum|Solidago drummondii|Solidago flexicaulis|Solidago nemoralis|Solidago virga-aurea|Solidago virgaurea|Sonneratia caseolaris|Spermacoce alata|Spermacoce latifolia|Sporobolus alterniflorus|Sporormiella teretispora|Stanhopea lietzei|Staphylea japonica|Stephania zippeliana|Stevia origanoides|Stevia potrerensis|Streptomyces amakusaensis|Streptomyces rugosporus|Strobilanthes dimorphotricha|Strobilanthes pentstemonoides|Strobilanthes psilostachys|Synechocystis|Synoicum prunum|Syzygium formosanum|Tagetes lucida|Talaromyces purpureogenus|Talaromyces variabilis|Tanacetum vulgare|Taraxacum borealisinense|Taraxacum coreanum|Taraxacum mongolicum|Taraxacum officinale|Taraxacum platycarpum|Tarenna attenuata|Tectona grandis|Terminalia glabrescens|Tetragonotheca repanda|Teucrium creticum|Teucrium leucocladum|Teucrium pestalozzae|Teucrium pseudoscorodonia|Teucrium scorodonia L. subsp. baeticum|Thecocarpus carvifolius|Thymus quinquecostatus|Thymus vulgaris|Tilia mandshurica|Tilia rubra|Tilia tomentosa|Toona sinensis|Torulaspora delbrueckii|Trichilia claussenii|Trichilia lepidota|Tridax procumbens|Trifoliate orange|Trigonostemon heterophyllus|Triphasia trifolia|Tripolium pannonicum|Tripolium vulgare|Tristania conferta|Triticum aestivum|Uga sinensis|Undaria pinnatifida|Veratrum sabadilla|Verbesina subcordata|Vernonia cistifolia|Veronica polita|Viburnum grandifolium|Wendlandia formosana|Wiesnerella denudata|Zanthoxylum ailanthoides|Zanthoxylum beecheyanum|Zingiber officinale|basil|bellis perennis|garlic|lettuce|pomelo|tarragon|tripolium vulgare

>  <collections>  (1554) 
ANPDB|AfroDB|Australian natural products|CMAUP (cCollective molecular activities of useful plants)|CMNPD|ChEBI NPs|ChemSpider NPs|ETM (Ethiopian Traditional Medicine) DB|FooDB|KNApSaCK|Latin America dataset|NANPDB (Natural Products from Northern African Sources)|NAPRORE-CR|NPASS|NPEdia|NuBBEDB|Phyto4Health|SANCDB|Super Natural II|TCMDB-Taiwan (Traditional Chinese Medicine database)|TIPdb (database of Taiwan indigenous plants)|VietHerb|WikiData Natural Products

>  <dois>  (1554) 
10.1002/(SICI)1099-1026(199701)12:1<47::AID-FFJ610>3.0.CO;2-7|10.1002/(SICI)1099-1573(199906)13:4<329::AID-PTR458>3.0.CO;2-U|10.1002/(sici)1099-1026(199903/04)14:2<143::aid-ffj798>3.0.co;2-p|10.1002/CBDV.200900198|10.1002/CBDV.201800531|10.1002/CHIN.200052207|10.1002/CHIN.200412183|10.1002/HLCA.19930760409|10.1002/HLCA.200390161|10.1002/HLCA.200390259|10.1002/HLCA.200790079|10.1002/HLCA.200900201|10.1002/JCCS.200000050|10.1002/JCCS.200000152|10.1002/JCCS.200200067|10.1002/JCCS.200300178|10.1002/JCCS.200400159|10.1002/PTR.1003|10.1002/PTR.1111|10.1002/PTR.2650060211|10.1002/cbdv.201400223|10.1006/ABBI.1998.0666|10.1007/BF00563844|10.1007/BF00567827|10.1007/BF02236421|10.1007/BF02976937|10.1007/BF02980100|10.1007/S10600-007-0179-X|10.1007/S10600-011-0022-2|10.1007/S10600-011-9903-7|10.1007/S11418-007-0175-2|10.1007/S11745-999-0466-5|10.1007/S12272-001-2154-6|10.1016/0031-9422(74)80345-6|10.1016/0031-9422(81)83087-7|10.1016/0031-9422(82)83167-1|10.1016/0031-9422(82)85245-X|10.1016/0031-9422(82)85251-5|10.1016/0031-9422(83)80038-7|10.1016/0031-9422(83)80171-X|10.1016/0031-9422(84)83111-8|10.1016/0031-9422(86)80022-X|10.1016/0031-9422(88)80235-8|10.1016/0031-9422(88)80305-4|10.1016/0031-9422(88)83037-1|10.1016/0031-9422(88)83133-9|10.1016/0031-9422(88)83152-2|10.1016/0031-9422(88)87031-6|10.1016/0031-9422(89)80203-1|10.1016/0031-9422(89)80285-7|10.1016/0031-9422(89)85030-7|10.1016/0031-9422(90)80052-I|10.1016/0031-9422(90)80156-B|10.1016/0031-9422(90)83030-5|10.1016/0031-9422(90)83036-Z|10.1016/0031-9422(90)83041-X|10.1016/0031-9422(90)83042-Y|10.1016/0031-9422(90)85189-M|10.1016/0031-9422(90)85281-J|10.1016/0031-9422(91)83456-U|10.1016/0031-9422(91)84185-U|10.1016/0031-9422(91)84212-B|10.1016/0031-9422(91)85124-I|10.1016/0031-9422(92)80160-G|10.1016/0031-9422(92)80271-F|10.1016/0031-9422(92)83119-J|10.1016/0031-9422(92)83462-8|10.1016/0031-9422(93)85043-Q|10.1016/0031-9422(95)00183-8|10.1016/0031-9422(95)00417-3|10.1016/0031-9422(95)00548-X|10.1016/0040-4020(77)88001-0|10.1016/0305-1978(92)90070-T|10.1016/0889-1575(91)90017-Z|10.1016/J.APJTM.2017.07.004|10.1016/J.BMC.2005.05.054|10.1016/J.BMC.2014.11.031|10.1016/J.BMCL.2010.10.138|10.1016/J.BMCL.2015.04.091|10.1016/J.BSE.2003.12.009|10.1016/J.BSE.2020.104014|10.1016/J.CHROMA.2014.10.058|10.1016/J.FCT.2004.01.008|10.1016/J.FITOTE.2003.12.006|10.1016/J.FITOTE.2010.05.013|10.1016/J.FOODCHEM.2006.01.045|10.1016/J.FOODCHEM.2016.04.071|10.1016/J.FOODCHEM.2019.125649|10.1016/J.FOODRES.2018.12.054|10.1016/J.INDCROP.2014.11.043|10.1016/J.PHYTOCHEM.2004.02.023|10.1016/J.PHYTOCHEM.2004.07.005|10.1016/J.PHYTOCHEM.2004.08.019|10.1016/J.PHYTOCHEM.2005.05.024|10.1016/J.PHYTOCHEM.2011.01.006|10.1016/J.PHYTOCHEM.2011.07.007|10.1016/J.PHYTOCHEM.2011.09.002|10.1016/J.PHYTOCHEM.2015.02.003|10.1016/J.PHYTOL.2014.03.007|10.1016/J.TET.2009.10.081|10.1016/J.TET.2011.05.070|10.1016/S0031-9422(00)00294-6|10.1016/S0031-9422(00)80711-6|10.1016/S0031-9422(00)81232-7|10.1016/S0031-9422(00)81748-3|10.1016/S0031-9422(00)82294-3|10.1016/S0031-9422(00)82426-7|10.1016/S0031-9422(00)82564-9|10.1016/S0031-9422(00)82620-5|10.1016/S0031-9422(00)82740-5|10.1016/S0031-9422(00)83115-5|10.1016/S0031-9422(00)83171-4|10.1016/S0031-9422(00)83194-5|10.1016/S0031-9422(00)83499-8|10.1016/S0031-9422(00)83559-1|10.1016/S0031-9422(00)83816-9|10.1016/S0031-9422(00)83939-4|10.1016/S0031-9422(00)84713-5|10.1016/S0031-9422(00)84721-4|10.1016/S0031-9422(00)85512-0|10.1016/S0031-9422(00)85517-X|10.1016/S0031-9422(00)85526-0|10.1016/S0031-9422(00)85865-3|10.1016/S0031-9422(00)89654-5|10.1016/S0031-9422(00)89762-9|10.1016/S0031-9422(00)90336-4|10.1016/S0031-9422(00)90371-6|10.1016/S0031-9422(00)90406-0|10.1016/S0031-9422(00)90411-4|10.1016/S0031-9422(00)90593-4|10.1016/S0031-9422(00)90865-3|10.1016/S0031-9422(00)91034-3|10.1016/S0031-9422(00)91071-9|10.1016/S0031-9422(00)94778-2|10.1016/S0031-9422(00)98076-2|10.1016/S0031-9422(00)98080-4|10.1016/S0031-9422(01)00359-4|10.1016/S0031-9422(02)00089-4|10.1016/S0031-9422(02)00208-X|10.1016/S0031-9422(03)00183-3|10.1016/S0031-9422(03)00202-4|10.1016/S0031-9422(82)85040-1|10.1016/S0031-9422(82)85041-3|10.1016/S0031-9422(96)00479-7|10.1016/S0031-9422(97)00414-7|10.1016/S0031-9422(97)80014-3|10.1016/S0031-9422(98)00067-3|10.1016/S0031-9422(98)00507-X|10.1016/S0031-9422(98)00772-9|10.1016/S0031-9422(99)00074-6|10.1016/S0031-9422(99)00388-X|10.1016/S0031-9422(99)00452-5|10.1016/S0305-1978(98)00110-0|10.1016/S0367-326X(00)00158-1|10.1016/S0367-326X(99)00071-4|10.1016/S0944-7113(96)80073-0|10.1016/j.bmc.2014.11.031|10.1016/j.bmcl.2010.10.138|10.1016/j.bmcl.2015.04.091|10.1016/j.phytochem.2005.05.024|10.1016/j.phytochem.2011.09.002|10.1021/JF00034A033|10.1021/JF0346206|10.1021/NP020058M|10.1021/NP0302394|10.1021/NP030313I|10.1021/NP030313I.S001|10.1021/NP0501740|10.1021/NP0580210|10.1021/NP0603976|10.1021/NP50008A001|10.1021/NP50015A012|10.1021/NP50020A013|10.1021/NP50034A016|10.1021/NP50035A008|10.1021/NP50035A010|10.1021/NP50076A016|10.1021/NP50077A041|10.1021/NP50084A012|10.1021/NP50090A006|10.1021/NP960036Y|10.1021/NP9606052|10.1021/NP980006Q|10.1021/NP980313W|10.1021/NP990483O|10.1021/OL040040Y|10.1021/np0603976|10.1055/S-2001-15806|10.1055/S-2005-873125|10.1055/S-2006-957354|10.1055/S-2006-957420|10.1055/S-2006-957965|10.1055/S-2006-959637|10.1055/S-2006-961381|10.1055/S-2006-961401|10.1055/S-2006-962206|10.1055/S-2006-962614|10.1055/S-2007-967123|10.1055/S-2007-969055|10.1055/S-2007-969136|10.1055/S-2007-969197|10.1055/S-2007-969446|10.1055/S-2007-969570|10.1055/S-2007-969590|10.1055/S-2007-981551|10.1055/S-2008-1034301|10.1076/1388-0209(200004)3821-1FT106|10.1080/0972060X.2010.10643892|10.1080/0972060X.2014.895210|10.1080/10286020310001596024|10.1080/10412905.1990.9697857|10.1080/10412905.1991.9697932|10.1080/10412905.1992.9698081|10.1080/10412905.1994.9698400|10.1080/10412905.1994.9698435|10.1080/10412905.1995.9698516|10.1080/10412905.1997.9700774|10.1080/10412905.1998.9700918|10.1080/10412905.1999.9701111|10.1080/10412905.1999.9701138|10.1080/10412905.1999.9701158|10.1080/10412905.1999.9701189|10.1080/10412905.2000.9699496|10.1080/10412905.2001.9699622|10.1080/10412905.2001.9699635|10.1080/10412905.2002.9699883|10.1080/10412905.2003.9698598|10.1080/10412905.2004.9698688|10.1080/1478641031000111552|10.1080/14786410310001622013|10.1111/TPJ.12747|10.1111/tpj.12747|10.1134/S1061934810090030|10.1139/V08-097|10.1186/1752-153X-7-61|10.1248/BPB.17.665|10.1248/CPB.29.2073|10.1248/CPB.33.4091|10.1248/CPB.38.2283|10.1248/CPB.39.3272|10.1248/CPB.41.2007|10.1248/CPB.47.890|10.1248/CPB.49.845|10.1248/CPB.51.1208|10.1248/CPB.52.507|10.1248/CPB.53.121|10.1248/CPB.55.1597|10.1248/CPB.55.343|10.1248/CPB.58.1646|10.1248/YAKUSHI1947.101.9_852|10.1248/YAKUSHI1947.106.1_17|10.1248/YAKUSHI1947.109.3_188|10.1248/YAKUSHI1947.94.12_1593|10.12692/IJB/12.4.370-382|10.1271/BBB.56.1562|10.1271/BBB.59.526|10.1271/BBB1961.47.483|10.1271/BBB1961.48.1367|10.1515/ZNB-1989-1219|10.1515/ZNB-2001-0818|10.1515/ZNB-2009-0415|10.1515/ZNB-2010-0414|10.1515/ZNC-1998-9-1006|10.1515/ZNC-2002-11-1212|10.1515/ZNC-2003-7-813|10.1556/ACHROM.21.2009.4.11|10.1590/S0100-40422008000600038|10.1590/S0101-20612008000200030|10.1590/S0103-50531999000200009|10.1590/S0103-50532002000300014|10.1590/S0103-50532003000100004|10.1590/S0103-50532003000300021|10.17660/ACTAHORTIC.2005.679.1|10.17678/BEUSCITECH.348447|10.2331/FISHSCI.65.494|10.3109/14756366.2010.496363|10.3136/FSTR.8.239|10.3390/MOLECULES14082909|10.3390/MOLECULES15096168|10.3390/MOLECULES191119220|10.3390/MOLECULES21060814|10.3390/MOLECULES23102677|10.3390/MOLECULES24112053|10.3390/MOLECULES24234322|10.3390/molecules27020483|10.3892/IJMM.4.4.377|10.3987/COM-01-S(K)45|10.4268/CJCMM20142423|10.5650/JOS1956.32.48|10.5650/jos.ess19091|10.5650/jos.ess21076

>  <synonyms>  (1554) 
(2E,7R,11R)-3,7,11,15-tetramethyl-2-hexadecen-1-ol|(7R,11R)-3,7,11,15-TETRAMETHYLHEXADEC-2-EN-1-OL|(7R,11R,2E)-PHYTOL|(7R,11R,E)-3,7,11,15-Tetramethylhexadec-2-en-1-ol|(E)-Phytol|(E,R,R)-PHYTOL|123164-54-5|150-86-7|2-Hexadecen-1-ol, 3,7,11,15-tetramethyl-, (2E,7R,11R)-|2-Hexadecen-1-ol, 3,7,11,15-tetramethyl-, (R-(R*,R*-(E)))-|2-Hexadecen-1-ol, 3,7,11,15-tetramethyl-, (theta-(theta,theta-(E)))-|3,7,11,15-Tetramethylhexadec-2-en-1-ol|3,7,11,15-teramethyl-2-hexadecene-1-ol-, (2E,7R,11R)-|3R,7R,11R,15-tetramethyl-2E-hexadecen-1-ol|4-01-00-02208 (Beilstein Handbook Reference)|A809083|AI3-24344|AKOS015841769|AS-18094|BDBM50041288|BRN 1726098|C01389|CCRIS 8226|CHEBI:17327|CHEMBL1644111|CS-0023163|DTXCID9020586|DTXSID1040586|EF32FF86-42DC-475E-935A-5C0AE6F1CAA0|EINECS 205-776-6|EN300-18543961|EN300-21585234|FEMA NO. 4196, E-|HY-N3075|LMPR0104010002|MFCD00151280|MZQ4XE15TP|NS00005387|No Data|P0411|P50002|PHYTOL (CHIRAL NATURAL ISOMER)|PHYTOL [INCI]|PHYTOL [MI]|PHYTOL, (E)-|Phytol|Phytol, E-|Q415945|SCHEMBL22783|UNII-MZQ4XE15TP|phytol|trans-Phytol

>  <cas>  (1554) 
150-86-7|123164-54-5

$$$$

     RDKit          2D

 25 29  0  0  0  0  0  0  0  0999 V2000
   -5.8526    3.1995    0.0000 C   0  0  0  0  0  0  0  0  0  0  0  0
   -4.5461    2.4625    0.0000 C   0  0  0  0  0  0  0  0  0  0  0  0
   -4.5311    0.9626    0.0000 C   0  0  0  0  0  0  0  0  0  0  0  0
   -3.2247    0.2256    0.0000 C   0  0  0  0  0  0  0  0  0  0  0  0
   -1.9332    0.9886    0.0000 C   0  0  0  0  0  0  0  0  0  0  0  0
    0.1783    0.5609    0.0000 C   0  0  0  0  0  0  0  0  0  0  0  0
    1.1715   -0.5632    0.0000 C   0  0  0  0  0  0  0  0  0  0  0  0
   -0.5970   -1.1620    0.0000 C   0  0  0  0  0  0  0  0  0  0  0  0
   -3.2097   -1.2743    0.0000 N   0  0  0  0  0  0  0  0  0  0  0  0
   -1.9032   -2.0113    0.0000 C   0  0  0  0  0  0  0  0  0  0  0  0
   -1.8882   -3.5112    0.0000 C   0  0  0  0  0  0  0  0  0  0  0  0
   -0.5818   -4.2482    0.0000 C   0  0  0  0  0  0  0  0  0  0  0  0
    0.7097   -3.4853    0.0000 C   0  0  0  0  0  0  0  0  0  0  0  0
    0.6947   -1.9854    0.0000 C   0  0  0  0  0  0  0  0  0  0  0  0
   -0.6117   -1.2484    0.0000 N   0  0  0  0  0  0  0  0  0  0  0  0
   -0.6267    0.2516    0.0000 C   0  0  0  0  0  0  0  0  0  0  0  0
    0.6648    1.0145    0.0000 C   0  0  0  0  0  0  0  0  0  0  0  0
    1.9712    0.2775    0.0000 C   0  0  0  0  0  0  0  0  0  0  0  0
    3.2627    1.0404    0.0000 N   0  0  0  0  0  0  0  0  0  0  0  0
    4.5692    0.3034    0.0000 C   0  0  0  0  0  0  0  0  0  0  0  0
    4.5842   -1.1965    0.0000 C   0  0  0  0  0  0  0  0  0  0  0  0
    5.8607    1.0664    0.0000 O   0  0  0  0  0  0  0  0  0  0  0  0
    3.2478    2.5404    0.0000 C   0  0  0  0  0  0  0  0  0  0  0  0
    1.9413    3.2774    0.0000 C   0  0  0  0  0  0  0  0  0  0  0  0
    0.6498    2.5144    0.0000 C   0  0  0  0  0  0  0  0  0  0  0  0
  1  2  2  0
  2  3  1  0
  4  3  1  1
  4  5  1  0
  5  6  1  1
  7  6  1  6
  7  8  1  0
  8  9  1  0
  9 10  1  0
 10 11  1  1
 11 12  1  0
 12 13  1  0
 13 14  1  0
 14 15  1  0
 15 16  1  0
 16 17  1  6
 17 18  2  0
 18 19  1  0
 19 20  1  0
 20 21  1  0
 20 22  2  0
 19 23  1  0
 23 24  1  0
 24 25  1  0
  9  4  1  0
 15 10  1  0
 25 17  1  0
 16  5  1  0
 14  7  1  0
M  END
>  <identifier>  (1555) 
CNP0080611.2

>  <canonical_smiles>  (1555) 
C=CC[C@H]1[C@H]2C[C@H]3CN1[C@@H]1CCCC3N1[C@H]2C1=CN(C(C)=O)CCC1

>  <standard_inchi>  (1555) 
InChI=1S/C21H31N3O/c1-3-6-19-17-11-16-13-23(19)20-9-4-8-18(16)24(20)21(17)15-7-5-10-22(12-15)14(2)25/h3,12,16-21H,1,4-11,13H2,2H3/t16-,17+,18?,19-,20-,21-/m0/s1

>  <standard_inchi_key>  (1555) 
XJAWEKIWBWLVGN-LEDIMMKISA-N

>  <name>  (1555) 
nan

>  <iupac_name>  (1555) 
1-[5-[(2~{S},8~{R},9~{R},11~{S},13~{S})-13-allyl-1,7-diazatetracyclo[7.3.1.0^{2,7}.0^{6,11}]tridecan-8-yl]-3,4-dihydro-2~{H}-pyridin-1-yl]ethanone

>  <annotation_level>  (1555) 
4

>  <total_atom_count>  (1555) 
56

>  <heavy_atom_count>  (1555) 
25

>  <molecular_weight>  (1555) 
341.5

>  <exact_molecular_weight>  (1555) 
341.24671

>  <molecular_formula>  (1555) 
C21H31N3O

>  <alogp>  (1555) 
2.97

>  <topological_polar_surface_area>  (1555) 
26.79

>  <rotatable_bond_count>  (1555) 
3

>  <hydrogen_bond_acceptors>  (1555) 
3

>  <hydrogen_bond_donors>  (1555) 
0

>  <hydrogen_bond_acceptors_lipinski>  (1555) 
3

>  <hydrogen_bond_donors_lipinski>  (1555) 
0

>  <lipinski_rule_of_five_violations>  (1555) 
0

>  <aromatic_rings_count>  (1555) 
0

>  <qed_drug_likeliness>  (1555) 
0.74

>  <formal_charge>  (1555) 
0

>  <fractioncsp3>  (1555) 
0.76

>  <number_of_minimal_rings>  (1555) 
6

>  <van_der_walls_volume>  (1555) 
nan

>  <contains_sugar>  (1555) 
False

>  <contains_ring_sugars>  (1555) 
False

>  <contains_linear_sugars>  (1555) 
False

>  <murcko_framework>  (1555) 
C=1NCCCC1C2N3C4N5CC2CC(C5)C3CCC4

>  <np_likeness>  (1555) 
1.19

>  <chemical_class>  (1555) 
Quinolizidines

>  <chemical_sub_class>  (1555) 
Quinolizidines

>  <chemical_super_class>  (1555) 
Organoheterocyclic compounds

>  <direct_parent_classification>  (1555) 
Quinolizidines

>  <np_classifier_pathway>  (1555) 
Alkaloids

>  <np_classifier_superclass>  (1555) 
Lysine alkaloids

>  <np_classifier_class>  (1555) 
Quinolizidine alkaloids

>  <np_classifier_is_glycoside>  (1555) 
False

>  <organisms>  (1555) 
Acosmium dasycarpum|Leptolobium dasycarpum

>  <collections>  (1555) 
Latin America dataset|NuBBEDB|WikiData Natural Products

>  <dois>  (1555) 
10.1016/J.TETLET.2008.06.124|10.1016/j.tetlet.2008.06.124

>  <synonyms>  (1555) 
panacosmine

>  <cas>  (1555) 
nan

$$$$

     RDKit          2D

 16 17  0  0  0  0  0  0  0  0999 V2000
    1.0244   -3.9925    0.0000 C   0  0  0  0  0  0  0  0  0  0  0  0
    1.0361   -2.4925    0.0000 C   0  0  0  0  0  0  0  0  0  0  0  0
   -0.2571   -1.7324    0.0000 C   0  0  0  0  0  0  0  0  0  0  0  0
   -0.2454   -0.2325    0.0000 C   0  0  0  0  0  0  0  0  0  0  0  0
   -1.5385    0.5276    0.0000 C   0  0  0  0  0  0  0  0  0  0  0  0
   -2.8434   -0.2122    0.0000 C   0  0  0  0  0  0  0  0  0  0  0  0
   -4.1365    0.5479    0.0000 C   0  0  0  0  0  0  0  0  0  0  0  0
   -2.8551   -1.7122    0.0000 C   0  0  0  0  0  0  0  0  0  0  0  0
   -1.5268    2.0276    0.0000 C   0  0  0  0  0  0  0  0  0  0  0  0
   -0.2220    2.7674    0.0000 C   0  0  0  0  0  0  0  0  0  0  0  0
    1.0712    2.0073    0.0000 C   0  0  0  0  0  0  0  0  0  0  0  0
    2.3760    2.7472    0.0000 C   0  0  0  0  0  0  0  0  0  0  0  0
    1.0595    0.5074    0.0000 C   0  0  0  0  0  0  0  0  0  0  0  0
    2.3643    1.2472    0.0000 O   0  0  0  0  0  0  0  0  0  0  0  0
    2.3526   -0.2527    0.0000 C   0  0  0  0  0  0  0  0  0  0  0  0
    2.3409   -1.7527    0.0000 C   0  0  0  0  0  0  0  0  0  0  0  0
  1  2  1  0
  2  3  2  0
  4  3  1  6
  4  5  1  0
  5  6  1  1
  6  7  1  0
  6  8  1  0
  5  9  1  0
  9 10  1  0
 10 11  1  0
 11 12  1  6
 11 13  1  0
 13 14  1  1
 13 15  1  0
 15 16  1  0
 16  2  1  0
 13  4  1  0
M  END
>  <identifier>  (1556) 
CNP0241890.1

>  <canonical_smiles>  (1556) 
CC1=C[C@@H]2[C@@H](C(C)C)CC[C@H](C)[C@]2(O)CC1

>  <standard_inchi>  (1556) 
InChI=1S/C15H26O/c1-10(2)13-6-5-12(4)15(16)8-7-11(3)9-14(13)15/h9-10,12-14,16H,5-8H2,1-4H3/t12-,13+,14+,15+/m0/s1

>  <standard_inchi_key>  (1556) 
COGPRPSWSKLKTF-GBJTYRQASA-N

>  <name>  (1556) 
(+)-epicubenol

>  <iupac_name>  (1556) 
(1~{R},4~{S},4~{a}~{R},8~{a}~{S})-1-isopropyl-4,7-dimethyl-2,3,4,5,6,8~{a}-hexahydro-1~{H}-naphthalen-4~{a}-ol

>  <annotation_level>  (1556) 
5

>  <total_atom_count>  (1556) 
42

>  <heavy_atom_count>  (1556) 
16

>  <molecular_weight>  (1556) 
222.37

>  <exact_molecular_weight>  (1556) 
222.19837

>  <molecular_formula>  (1556) 
C15H26O

>  <alogp>  (1556) 
3.78

>  <topological_polar_surface_area>  (1556) 
20.23

>  <rotatable_bond_count>  (1556) 
1

>  <hydrogen_bond_acceptors>  (1556) 
1

>  <hydrogen_bond_donors>  (1556) 
1

>  <hydrogen_bond_acceptors_lipinski>  (1556) 
1

>  <hydrogen_bond_donors_lipinski>  (1556) 
1

>  <lipinski_rule_of_five_violations>  (1556) 
0

>  <aromatic_rings_count>  (1556) 
0

>  <qed_drug_likeliness>  (1556) 
0.67

>  <formal_charge>  (1556) 
0

>  <fractioncsp3>  (1556) 
0.87

>  <number_of_minimal_rings>  (1556) 
2

>  <van_der_walls_volume>  (1556) 
237.98

>  <contains_sugar>  (1556) 
False

>  <contains_ring_sugars>  (1556) 
False

>  <contains_linear_sugars>  (1556) 
False

>  <murcko_framework>  (1556) 
C1=CC2CCCCC2CC1

>  <np_likeness>  (1556) 
3.06

>  <chemical_class>  (1556) 
Prenol lipids

>  <chemical_sub_class>  (1556) 
Sesquiterpenoids

>  <chemical_super_class>  (1556) 
Lipids and lipid-like molecules

>  <direct_parent_classification>  (1556) 
Sesquiterpenoids

>  <np_classifier_pathway>  (1556) 
Terpenoids

>  <np_classifier_superclass>  (1556) 
Sesquiterpenoids

>  <np_classifier_class>  (1556) 
Cadinane sesquiterpenoids

>  <np_classifier_is_glycoside>  (1556) 
False

>  <organisms>  (1556) 
Acanthodoris nanaimoensis|Alstonia rostrata|Cabralea toona|Camellia sinensis|Cedrela odorata|Cedrus atlantica|Cedrus atlantica Manetii|Cedrus libani|Chamaecyparis formosensis|Chamaecyparis obtusa var. formosana|Chamaecyparis obtusa var.formosana|Cinnamomum illicioides|Cistus creticus|Curcuma mangga|Dactynotus rudbeckiae|Euphorbia kaleniczenkii|Guarea glabra|Guarea macrophylla ssp.tuberculata|Guatteriopsis blepharophylla|Hedychium yunnanense|Liatris graminifolia|Limnodynastes terraereginae|Lupinus macounii|Lychnophora hakeaefolia|Matthiola incana|Melaleuca leucadendra L.|Methysticodendron amesianum|Peucedanum paniculatum|Peucedanum paniculatum L.|Piper arboreum|Piper betle|Piper fimbriulatum|Piper nigrum|Scapania undulata|Streptomyces albolongus|Streptomyces griseus|Syzygium cumini|Taiwania cryptomerioides|Toona ciliata|Trigonostemon heterophyllus|Triphasia trifolia

>  <collections>  (1556) 
Australian natural products|CMAUP (cCollective molecular activities of useful plants)|KNApSaCK|Latin America dataset|NPASS|NuBBEDB|Super Natural II|TIPdb (database of Taiwan indigenous plants)|WikiData Natural Products

>  <dois>  (1556) 
10.1002/CBDV.201100135|10.1007/S10086-018-1773-1|10.1016/0031-9422(82)80055-1|10.1016/J.CHROMA.2014.10.058|10.1016/J.PHYMED.2007.03.013|10.1016/J.PHYTOCHEM.2005.07.001|10.1016/J.PHYTOCHEM.2009.06.013|10.1016/S0031-9422(00)90406-0|10.1016/S0031-9422(97)00762-0|10.1016/j.indcrop.2015.04.065|10.1021/ACS.JNATPROD.5B00827|10.1021/JO040272A|10.1021/NP0101402|10.1021/NP030475E|10.1021/acs.jnatprod.5b00827|10.1038/JA.2012.68|10.1039/P19750001502|10.1177/1934578X1200700239|10.1590/S0103-50532000000600012|10.3390/MOLECULES24234244

>  <synonyms>  (1556) 
(+)-ent-Epicubenol|(1R,4S,4aR,8aS)-4,7-dimethyl-1-(propan-2-yl)-1,3,4,5,6,8a-hexahydronaphthalen-4a(2H)-ol|1-epi-Cubenol|81939-29-9|C19744|CHEBI:61686|CHEMBL4569883|COGPRPSWSKLKTF-GBJTYRQASA-N|DTXSID701317671|Q27131288|epi- .alpha.-Cubenol

>  <cas>  (1556) 
81939-29-9

$$$$

     RDKit          2D

 41 45  0  0  0  0  0  0  0  0999 V2000
    5.1287    0.9496    0.0000 O   0  0  0  0  0  0  0  0  0  0  0  0
    4.0273   -0.0686    0.0000 C   0  0  0  0  0  0  0  0  0  0  0  0
    2.5947    0.3761    0.0000 O   0  0  0  0  0  0  0  0  0  0  0  0
    2.2636    1.8391    0.0000 C   0  0  0  0  0  0  0  0  0  0  0  0
    0.8854    2.4312    0.0000 C   0  0  0  0  0  0  0  0  0  0  0  0
   -0.4037    1.6642    0.0000 C   0  0  0  0  0  0  0  0  0  0  0  0
   -0.9352    3.0668    0.0000 C   0  0  0  0  0  0  0  0  0  0  0  0
    0.0138    4.2285    0.0000 C   0  0  0  0  0  0  0  0  0  0  0  0
   -0.5177    5.6311    0.0000 C   0  0  0  0  0  0  0  0  0  0  0  0
   -1.9982    5.8722    0.0000 C   0  0  0  0  0  0  0  0  0  0  0  0
   -2.5297    7.2749    0.0000 O   0  0  0  0  0  0  0  0  0  0  0  0
   -2.9472    4.7105    0.0000 C   0  0  0  0  0  0  0  0  0  0  0  0
   -4.4277    4.9516    0.0000 O   0  0  0  0  0  0  0  0  0  0  0  0
   -2.4157    3.3079    0.0000 C   0  0  0  0  0  0  0  0  0  0  0  0
   -1.8774    1.3843    0.0000 C   0  0  0  0  0  0  0  0  0  0  0  0
   -2.3718   -0.0319    0.0000 C   0  0  0  0  0  0  0  0  0  0  0  0
   -1.3926   -1.1682    0.0000 C   0  0  0  0  0  0  0  0  0  0  0  0
   -1.8871   -2.5843    0.0000 C   0  0  0  0  0  0  0  0  0  0  0  0
   -3.3607   -2.8642    0.0000 C   0  0  0  0  0  0  0  0  0  0  0  0
   -4.3399   -1.7279    0.0000 C   0  0  0  0  0  0  0  0  0  0  0  0
   -5.8136   -2.0077    0.0000 C   0  0  0  0  0  0  0  0  0  0  0  0
   -6.3081   -3.4239    0.0000 C   0  0  0  0  0  0  0  0  0  0  0  0
   -7.7817   -3.7038    0.0000 O   0  0  0  0  0  0  0  0  0  0  0  0
   -5.3289   -4.5602    0.0000 C   0  0  0  0  0  0  0  0  0  0  0  0
   -5.8233   -5.9764    0.0000 O   0  0  0  0  0  0  0  0  0  0  0  0
   -3.8552   -4.2803    0.0000 C   0  0  0  0  0  0  0  0  0  0  0  0
    0.0810   -0.8883    0.0000 C   0  0  0  0  0  0  0  0  0  0  0  0
    1.0602   -2.0246    0.0000 O   0  0  0  0  0  0  0  0  0  0  0  0
    0.5755    0.5279    0.0000 O   0  0  0  0  0  0  0  0  0  0  0  0
    1.0226    3.9249    0.0000 O   0  0  0  0  0  0  0  0  0  0  0  0
    2.4856    4.2560    0.0000 C   0  0  0  0  0  0  0  0  0  0  0  0
    3.2526    2.9669    0.0000 C   0  0  0  0  0  0  0  0  0  0  0  0
    4.7463    2.8297    0.0000 O   0  0  0  0  0  0  0  0  0  0  0  0
    4.3584   -1.5316    0.0000 C   0  0  0  0  0  0  0  0  0  0  0  0
    3.2570   -2.5499    0.0000 C   0  0  0  0  0  0  0  0  0  0  0  0
    3.5881   -4.0129    0.0000 C   0  0  0  0  0  0  0  0  0  0  0  0
    2.4866   -5.0311    0.0000 O   0  0  0  0  0  0  0  0  0  0  0  0
    5.0206   -4.4576    0.0000 C   0  0  0  0  0  0  0  0  0  0  0  0
    6.1221   -3.4394    0.0000 C   0  0  0  0  0  0  0  0  0  0  0  0
    7.5546   -3.8841    0.0000 O   0  0  0  0  0  0  0  0  0  0  0  0
    5.7909   -1.9764    0.0000 C   0  0  0  0  0  0  0  0  0  0  0  0
  1  2  2  0
  2  3  1  0
  4  3  1  1
  4  5  1  0
  6  5  1  1
  6  7  1  0
  7  8  2  0
  8  9  1  0
  9 10  2  0
 10 11  1  0
 10 12  1  0
 12 13  1  0
 12 14  2  0
  6 15  1  0
 15 16  1  0
 16 17  1  0
 17 18  1  1
 18 19  1  0
 19 20  2  0
 20 21  1  0
 21 22  2  0
 22 23  1  0
 22 24  1  0
 24 25  1  0
 24 26  2  0
 17 27  1  0
 27 28  2  0
 27 29  1  0
  5 30  1  0
 30 31  1  0
 31 32  1  0
 32 33  1  6
  2 34  1  0
 34 35  2  0
 35 36  1  0
 36 37  1  0
 36 38  2  0
 38 39  1  0
 39 40  1  0
 39 41  2  0
 32  4  1  0
 41 34  1  0
 29  6  1  0
 14  7  1  0
 26 19  1  0
M  END
>  <identifier>  (1557) 
CNP0085377.1

>  <canonical_smiles>  (1557) 
O=C(O[C@H]1C([C@]2(C3=CC=C(O)C(O)=C3)CC[C@H](CC3=CC=C(O)C(O)=C3)C(=O)O2)OC[C@@H]1O)C1=CC(O)=CC(O)=C1

>  <standard_inchi>  (1557) 
InChI=1S/C29H28O12/c30-18-9-16(10-19(31)12-18)27(37)40-25-24(36)13-39-26(25)29(17-2-4-21(33)23(35)11-17)6-5-15(28(38)41-29)7-14-1-3-20(32)22(34)8-14/h1-4,8-12,15,24-26,30-36H,5-7,13H2/t15-,24+,25-,26?,29-/m1/s1

>  <standard_inchi_key>  (1557) 
HBIPDNZXAWNFRY-NBMRCQAASA-N

>  <name>  (1557) 
nan

>  <iupac_name>  (1557) 
[(3~{R},4~{S})-2-[(2~{R},5~{R})-2-(3,4-dihydroxyphenyl)-5-[(3,4-dihydroxyphenyl)methyl]-6-oxo-tetrahydropyran-2-yl]-4-hydroxy-tetrahydrofuran-3-yl] 3,5-dihydroxybenzoate

>  <annotation_level>  (1557) 
5

>  <total_atom_count>  (1557) 
69

>  <heavy_atom_count>  (1557) 
41

>  <molecular_weight>  (1557) 
568.53

>  <exact_molecular_weight>  (1557) 
568.15808

>  <molecular_formula>  (1557) 
C29H28O12

>  <alogp>  (1557) 
2.30

>  <topological_polar_surface_area>  (1557) 
203.44

>  <rotatable_bond_count>  (1557) 
6

>  <hydrogen_bond_acceptors>  (1557) 
12

>  <hydrogen_bond_donors>  (1557) 
7

>  <hydrogen_bond_acceptors_lipinski>  (1557) 
12

>  <hydrogen_bond_donors_lipinski>  (1557) 
7

>  <lipinski_rule_of_five_violations>  (1557) 
3

>  <aromatic_rings_count>  (1557) 
3

>  <qed_drug_likeliness>  (1557) 
0.17

>  <formal_charge>  (1557) 
0

>  <fractioncsp3>  (1557) 
0.31

>  <number_of_minimal_rings>  (1557) 
5

>  <van_der_walls_volume>  (1557) 
477.34

>  <contains_sugar>  (1557) 
False

>  <contains_ring_sugars>  (1557) 
False

>  <contains_linear_sugars>  (1557) 
False

>  <murcko_framework>  (1557) 
O(Cc1ccccc1)C2CCOC2C3(OCC(Cc4ccccc4)CC3)c5ccccc5

>  <np_likeness>  (1557) 
1.76

>  <chemical_class>  (1557) 
Benzene and substituted derivatives

>  <chemical_sub_class>  (1557) 
Benzoic acids and derivatives

>  <chemical_super_class>  (1557) 
Benzenoids

>  <direct_parent_classification>  (1557) 
m-Hydroxybenzoic acid esters

>  <np_classifier_pathway>  (1557) 
Shikimates and Phenylpropanoids

>  <np_classifier_superclass>  (1557) 
Lignans

>  <np_classifier_class>  (1557) 
Minor lignans

>  <np_classifier_is_glycoside>  (1557) 
False

>  <organisms>  (1557) 
Chimarrhis turbinata

>  <collections>  (1557) 
ChemSpider NPs|Latin America dataset|NuBBEDB|WikiData Natural Products

>  <dois>  (1557) 
10.1021/NP1007476|10.1021/np1007476

>  <synonyms>  (1557) 
Chimarrhinin

>  <cas>  (1557) 
nan

$$$$

     RDKit          2D

 29 32  0  0  0  0  0  0  0  0999 V2000
   -4.7033    4.1635    0.0000 C   0  0  0  0  0  0  0  0  0  0  0  0
   -4.4022    2.6941    0.0000 C   0  0  0  0  0  0  0  0  0  0  0  0
   -2.9790    2.2201    0.0000 C   0  0  0  0  0  0  0  0  0  0  0  0
   -5.5242    1.6986    0.0000 C   0  0  0  0  0  0  0  0  0  0  0  0
   -6.9474    2.1725    0.0000 C   0  0  0  0  0  0  0  0  0  0  0  0
   -5.2231    0.2291    0.0000 C   0  0  0  0  0  0  0  0  0  0  0  0
   -3.7999   -0.2448    0.0000 C   0  0  0  0  0  0  0  0  0  0  0  0
   -3.4988   -1.7143    0.0000 C   0  0  0  0  0  0  0  0  0  0  0  0
   -4.6209   -2.7098    0.0000 C   0  0  0  0  0  0  0  0  0  0  0  0
   -2.0757   -2.1883    0.0000 C   0  0  0  0  0  0  0  0  0  0  0  0
   -1.6226   -3.6182    0.0000 C   0  0  0  0  0  0  0  0  0  0  0  0
   -0.1226   -3.6292    0.0000 C   0  0  0  0  0  0  0  0  0  0  0  0
    0.3513   -2.2060    0.0000 C   0  0  0  0  0  0  0  0  0  0  0  0
    1.7261   -1.6060    0.0000 C   0  0  0  0  0  0  0  0  0  0  0  0
    2.9331   -2.4965    0.0000 C   0  0  0  0  0  0  0  0  0  0  0  0
    4.3078   -1.8965    0.0000 C   0  0  0  0  0  0  0  0  0  0  0  0
    4.4756   -0.4059    0.0000 C   0  0  0  0  0  0  0  0  0  0  0  0
    5.8503    0.1942    0.0000 C   0  0  0  0  0  0  0  0  0  0  0  0
    6.0180    1.6848    0.0000 C   0  0  0  0  0  0  0  0  0  0  0  0
    7.3928    2.2848    0.0000 O   0  0  0  0  0  0  0  0  0  0  0  0
    4.8110    2.5753    0.0000 C   0  0  0  0  0  0  0  0  0  0  0  0
    3.4362    1.9753    0.0000 C   0  0  0  0  0  0  0  0  0  0  0  0
    3.2685    0.4847    0.0000 C   0  0  0  0  0  0  0  0  0  0  0  0
    2.0615    1.3752    0.0000 C   0  0  0  0  0  0  0  0  0  0  0  0
    1.8938   -0.1154    0.0000 C   0  0  0  0  0  0  0  0  0  0  0  0
    0.6867    0.7751    0.0000 C   0  0  0  0  0  0  0  0  0  0  0  0
   -0.6880    0.1751    0.0000 C   0  0  0  0  0  0  0  0  0  0  0  0
   -0.8557   -1.3155    0.0000 C   0  0  0  0  0  0  0  0  0  0  0  0
   -2.1492   -0.5560    0.0000 C   0  0  0  0  0  0  0  0  0  0  0  0
  1  2  1  0
  2  3  1  0
  2  4  1  0
  4  5  1  6
  4  6  1  0
  6  7  1  0
  7  8  1  0
  8  9  1  6
  8 10  1  0
 10 11  1  6
 11 12  1  0
 13 12  1  6
 13 14  1  0
 14 15  1  1
 15 16  1  0
 16 17  2  0
 17 18  1  0
 18 19  1  0
 19 20  1  6
 19 21  1  0
 21 22  1  0
 22 23  1  0
 23 24  1  6
 23 25  1  0
 25 26  1  6
 26 27  1  0
 27 28  1  0
 28 29  1  6
 28 10  1  0
 28 13  1  0
 25 14  1  0
 23 17  1  0
M  END
>  <identifier>  (1558) 
CNP0291093.3

>  <canonical_smiles>  (1558) 
CC(C)[C@@H](C)CC[C@@H](C)[C@H]1CC[C@H]2[C@@H]3CC=C4C[C@@H](O)CC[C@]4(C)[C@H]3CC[C@]12C

>  <standard_inchi>  (1558) 
InChI=1S/C28H48O/c1-18(2)19(3)7-8-20(4)24-11-12-25-23-10-9-21-17-22(29)13-15-27(21,5)26(23)14-16-28(24,25)6/h9,18-20,22-26,29H,7-8,10-17H2,1-6H3/t19-,20+,22-,23-,24+,25-,26-,27-,28+/m0/s1

>  <standard_inchi_key>  (1558) 
SGNBVLSWZMBQTH-ZRUUVFCLSA-N

>  <name>  (1558) 
22,23-Dihydrobrassicasterol

>  <iupac_name>  (1558) 
(3~{S},8~{S},9~{S},10~{R},13~{R},14~{S},17~{R})-10,13-dimethyl-17-[(1~{R},4~{S})-1,4,5-trimethylhexyl]-2,3,4,7,8,9,11,12,14,15,16,17-dodecahydro-1~{H}-cyclopenta[a]phenanthren-3-ol

>  <annotation_level>  (1558) 
5

>  <total_atom_count>  (1558) 
77

>  <heavy_atom_count>  (1558) 
29

>  <molecular_weight>  (1558) 
400.69

>  <exact_molecular_weight>  (1558) 
400.37052

>  <molecular_formula>  (1558) 
C28H48O

>  <alogp>  (1558) 
7.63

>  <topological_polar_surface_area>  (1558) 
20.23

>  <rotatable_bond_count>  (1558) 
5

>  <hydrogen_bond_acceptors>  (1558) 
1

>  <hydrogen_bond_donors>  (1558) 
1

>  <hydrogen_bond_acceptors_lipinski>  (1558) 
1

>  <hydrogen_bond_donors_lipinski>  (1558) 
1

>  <lipinski_rule_of_five_violations>  (1558) 
1

>  <aromatic_rings_count>  (1558) 
0

>  <qed_drug_likeliness>  (1558) 
0.47

>  <formal_charge>  (1558) 
0

>  <fractioncsp3>  (1558) 
0.93

>  <number_of_minimal_rings>  (1558) 
4

>  <van_der_walls_volume>  (1558) 
429.08

>  <contains_sugar>  (1558) 
False

>  <contains_ring_sugars>  (1558) 
False

>  <contains_linear_sugars>  (1558) 
False

>  <murcko_framework>  (1558) 
C1=C2CCCCC2C3CCC4CCCC4C3C1

>  <np_likeness>  (1558) 
2.68

>  <chemical_class>  (1558) 
Steroids and steroid derivatives

>  <chemical_sub_class>  (1558) 
Ergostane steroids

>  <chemical_super_class>  (1558) 
Lipids and lipid-like molecules

>  <direct_parent_classification>  (1558) 
Ergosterols and derivatives

>  <np_classifier_pathway>  (1558) 
Terpenoids

>  <np_classifier_superclass>  (1558) 
Steroids

>  <np_classifier_class>  (1558) 
Cholestane steroids

>  <np_classifier_is_glycoside>  (1558) 
False

>  <organisms>  (1558) 
Acanthaster planci|Aconitum koreanum|Aconitum leucostomum|Actinidia chinensis var. deliciosa|Actinidia chinensis var. hispida|Adiantum capillus-veneris|Ageratina saltillensis|Ageratum conyzoides|Ajuga reptans|Alangium ridleyi|Alchornea hirtella|Alitta succinea|Aloe africana|Aloe ferox|Aloe spicata|Aloe vera|Alstonia muelleriana|Amburana cearensis|Amsonia elliptica|Anarsia lineatella|Anthelia glauca|Apis dorsata|Apollonias barbujana|Aquilegia ecalcarata|Arabidopsis thaliana|Aria intermedia|Arnica amplexicaulis|Arnica lanceolata|Arnica mollis|Artemisia annua L.|Artemisia apiacea|Artemisia cina|Artemisia hanseniana|Artemisia oranensis|Aruncus dioicus|Astragalus sevangensis|Aureococcus anophagefferens|Aureoumbra lagunensis|Axinella aruensis|Axinella cannabina|Baccharoides anthelmintica|Blumea mollis|Boodleopsis pusilla|Boswellia carterii|Brassica rapa subsp. chinensis|Brassica rapa subsp. oleifera|Bryopsis plumosa|Bufo bufo|Buphthalmum grandiflorum|Buxus sempervirens|Cabucala madagascariensis|Callyspongia fibrosa|Caloncoba glauca|Capsicum annuum|Carthamus tinctorius|Caulerpa racemosa|Ceanothus velutinus|Cedrela odorata|Celastrus pringlei|Centaurea amara|Centella asiatica|Cerbera manghas|Chloromorum toxicum|Chlorophytum borivilianum|Chlorosplenium aeruginosum|Citrus natsudaidai|Cladophora vagabunda|Clerodendrum scandens|Clerodendrum umbellatum|Clibadium armanii|Coix lacryma-jobi|Coix lacryma-jobi var. lacryma-jobi|Conium maculatum|Coreopsis nodosa|Coriaria intermedia|Coriaria japonica|Cortinarius rubellus|Croton hieronymi|Crotone hieronymi|Cucumis melo|Cucumis sativus|Cucurbita maxima|Cucurbita pepo|Cupressus macrocarpa|Curcuma kwangsiensis|Curcuma phaeocaulis|Curcuma wenyujin|Curcuma zedoaria|Cymodocea nodosa|Cynomorium songaricum|Cyphus niveus|Cystoseira barbata|Cystoseira crinita|Cyttaria johowii|Dacrydium cupressinum|Dalbergia monetaria|Dalbergia ovalis|Deltocyathus magnificus|Dictamnus dasycarpus|Diplopterygium glaucum|Dipterocarpus dyeri|Dysoxylum lenticellatum|Ehretia laevis|Elsholtzia blanda|Enteromorpha clathrata|Eriosema chinense|Esenbeckia hartmanii|Eupatorium sternbergianum|Euphorbia fischeri|Euphorbia fischeriana|Eutreptia viridis|Fragaria vesca|Fusarium culmorum|Garcinia scortechinii|Gardenia tubifera|Gavia immer|Gleichenia japonica|Glycine Max|Glycine max|Glycine tomentella|Goniophlebium formosanum|Grewia villosa|Gymnodinium lunula|Haematococcus lacustris|Halimeda macroloba|Haplopappus venetus|Hedysarum denticulatum|Helichrysum nitens|Hippophae rhamnoides|Homo sapiens|Hordeum vulgare L.cv Mammut|Hyphochytrium catenoides|Hypoxylon rubiginosum|Ipomoea cairica|Isodon lophanthoides|Juglans regia|Kalanchoe marmorata|Kalanchoe petitiana|Khaya senegalensis|Kochia trichophylla|Kopsia grandifolia|Lagenaria siceraria|Larix sibirica|Lasianthus fordii|Laurencia composita|Lecanora conizaeoides|Ledebouria socialis|Ligularia amplexicaulis|Ligularia songarica|Linum usitatissimum|Lobophytum|Lobophytum crassum|Lonicera japonica|Lonicera microphylla|Luffa aegyptiaca|Lycopus europaeus|Lytanthus salicinus|Melia azedarach|Melia azedarach var. toosendan|Menisporopsis theobromae|Mentzelia lindleyi|Micromonospora coerulea|Mortierella alpina|Myrtopsis sellingii|Neanthes succinea|Nelumbo nucifera|Nervilia aragoana|Nervilia concolor|Nervilia plicata|Nicotiana undulata|Ophiocordyceps sinensis|Palythoa|Palythoa caribaeorum|Panax ginseng|Panax innovans|Panax schinseng|Passiflora incarnata|Patrinia scabiosifolia|Patrinia villosa|Peltoboykinia tellimoides|Penicillium cinerascens|Perilla frutescens|Persea mexicana|Phaseolus vulgaris|Phebalium ozothamnoides|Phyllotopsis nidulans|Physalis peruviana|Physarum flavicomum|Physarum polycephalum|Picea glehnii|Pinellia ternata|Piper futokadsura|Pleurotus citrinopileatus|Polanisia dodecandra|Posidonia oceanica|Potentilla multifida|Prunus tomentosa|Psilotum|Pteraster multipes|Pterocladiella tenuis|Pyrocystis lunula|Reniera sarai|Retiboletus ornatipes|Rhaponticum carthamoides|Rhodobacter sphaeroides|Rhododendron micranthum|Ricinus communis|Saccharomyces pastori|Salta triflora|Salvia polystachya|Sambucus chinensis|Sambucus javanica|Sarcophyton glaucum|Sauromatum giganteum|Saururus cernuus|Scandosorbus intermedia|Sea lettuce|Senecio nemorensis|Senecio paludaffinis|Sinapis alba|Sinopodophyllum hexandrum|Sinularia brassica|Sinularia dura|Sordaria araneosa|Sorghum bicolor|Spongia officinalis|Streptomyces chryseus|Streptomyces flocculus|Streptomyces plumbeus|Strychnos cathayensis|Strychnos fendleri|Tachigalia paniculata|Tanacetum parthenium|Topsentia genitrix|Topsentia roquensis|Trichocolea tomentella|Tricholoma muscarium|Trichophyton mentagrophytes|Trifolium montanum|Trigonella grandiflora|Tripolium pannonicum|Triticum aestivum|Ulva fasciata|Ulva linza|Ulva popenguinensis|Uvaria calamistrata|Vicia villosa|Vitex megapotamica|Water net|Woodwardia orientalis|Xanthoria parietina|common sunflower|maize|watermelon

>  <collections>  (1558) 
Australian natural products|CMAUP (cCollective molecular activities of useful plants)|ChemSpider NPs|KNApSaCK|Latin America dataset|NPASS|NuBBEDB|Phyto4Health|Super Natural II|TIPdb (database of Taiwan indigenous plants)|VietHerb|WikiData Natural Products

>  <dois>  (1558) 
10.1002/HLCA.200690060|10.1002/JLAC.198919890158|10.1002/PTR.2650080603|10.1002/ptr.6405|10.1007/BF00630093|10.1007/BF02637687|10.1016/0031-9422(73)85029-0|10.1016/0031-9422(84)83043-5|10.1016/0031-9422(84)83081-2|10.1016/0031-9422(85)80024-8|10.1016/0031-9422(88)83160-1|10.1016/0031-9422(91)80079-G|10.1016/0031-9422(91)83027-I|10.1016/0031-9422(92)80289-Q|10.1016/0031-9422(92)80435-H|10.1016/0031-9422(92)83108-B|10.1016/0031-9422(92)83142-L|10.1016/0031-9422(95)00093-3|10.1016/0031-9422(95)00435-A|10.1016/0031-9422(95)00766-0|10.1016/0031-9422(95)00935-3|10.1016/0031-9422(96)00156-2|10.1016/0039-128X(80)90068-9|10.1016/0039-128X(81)90069-6|10.1016/0039-128X(82)90018-6|10.1016/0039-128X(82)90042-3|10.1016/0039-128X(89)90015-9|10.1016/0039-128X(94)90124-4|10.1016/0305-0491(82)90526-0|10.1016/J.FOODCHEM.2008.11.094|10.1016/J.PHYTOCHEM.2006.02.023|10.1016/J.TETLET.2010.05.009|10.1016/S0031-9422(00)82230-X|10.1016/S0031-9422(00)84079-0|10.1016/S0031-9422(00)84080-7|10.1016/S0031-9422(00)84109-6|10.1016/S0031-9422(00)84516-1|10.1016/S0031-9422(00)85067-0|10.1016/S0031-9422(00)97095-X|10.1016/S0031-9422(00)97553-8|10.1016/S0031-9422(01)00135-2|10.1016/S0031-9422(03)00202-4|10.1016/S0031-9422(96)00588-2|10.1016/S0031-9422(96)00747-9|10.1016/S0031-9422(97)00860-1|10.1016/S0040-4020(01)92252-5|10.1021/NP800208K|10.1021/OL800389Q|10.1039/C39840001174|10.1039/P19830000147|10.1039/P19900002213|10.1039/P19920000569|10.1055/S-2006-957793|10.1080/02652030701216727|10.1111/TPJ.12674|10.1248/CPB.17.124|10.1248/CPB.31.1848|10.1248/CPB.36.3147|10.1248/CPB.41.624|10.1248/YAKUSHI1947.106.12_1092|10.2298/JSC110206128R

>  <synonyms>  (1558) 
(24S)-beta-Methyl cholesterol|(24S)-methylcholest-5-en-3beta-ol|(3S,8S,9S,10R,13R,14S,17R)-17-[(2R,5S)-5,6-dimethylheptan-2-yl]-10,13-dimethyl-2,3,4,7,8,9,11,12,14,15,16,17-dodecahydro-1H-cyclopenta[a]phenanthren-3-ol|(3beta)-ergost-5-en-3-ol|(S)-Campesterol|2-Ammonio-2-phenylpent-4-enoate|22-Dihydrobrassicosterol|2223-dihydrobrassicasterol|24-epicampesterol|24-methyl-5-cholestene-3beta-ol|24xi-Methylcholesterol|4651-51-8|474-62-4|AKOS030531948|CHEBI:19809|CHEMBL485421|CS-0135141|Campesterol, ~65%|DTXSID501016075|Delta5-campesterol|Dihydrobrassicasterol|Ergost-5-en-3-ol, (3beta)-|Ergost-5-en-3beta-ol|G13232|HY-N1459A|LMST01030096|NS00099793|Q27109255|SCHEMBL3341194|delta22-Dihydrobrassicasterol|ergost-5-en-3_-ol

>  <cas>  (1558) 
4651-51-8|474-62-4

$$$$

     RDKit          2D

 16 17  0  0  0  0  0  0  0  0999 V2000
   -4.8415   -0.0105    0.0000 C   0  0  0  0  0  0  0  0  0  0  0  0
   -3.6672    0.9227    0.0000 O   0  0  0  0  0  0  0  0  0  0  0  0
   -2.2718    0.3724    0.0000 C   0  0  0  0  0  0  0  0  0  0  0  0
   -2.0507   -1.1112    0.0000 C   0  0  0  0  0  0  0  0  0  0  0  0
   -0.6554   -1.6616    0.0000 C   0  0  0  0  0  0  0  0  0  0  0  0
   -0.4343   -3.1452    0.0000 O   0  0  0  0  0  0  0  0  0  0  0  0
    0.5190   -0.7283    0.0000 C   0  0  0  0  0  0  0  0  0  0  0  0
    1.9143   -1.2787    0.0000 C   0  0  0  0  0  0  0  0  0  0  0  0
    2.1354   -2.7623    0.0000 O   0  0  0  0  0  0  0  0  0  0  0  0
    3.0887   -0.3454    0.0000 O   0  0  0  0  0  0  0  0  0  0  0  0
    2.8676    1.1382    0.0000 C   0  0  0  0  0  0  0  0  0  0  0  0
    4.0419    2.0714    0.0000 C   0  0  0  0  0  0  0  0  0  0  0  0
    1.4722    1.6885    0.0000 C   0  0  0  0  0  0  0  0  0  0  0  0
    0.2979    0.7553    0.0000 C   0  0  0  0  0  0  0  0  0  0  0  0
   -1.0975    1.3056    0.0000 C   0  0  0  0  0  0  0  0  0  0  0  0
   -1.3186    2.7893    0.0000 C   0  0  0  0  0  0  0  0  0  0  0  0
  1  2  1  0
  2  3  1  0
  3  4  2  0
  4  5  1  0
  5  6  1  0
  5  7  2  0
  7  8  1  0
  8  9  2  0
  8 10  1  0
 10 11  1  0
 11 12  1  1
 11 13  1  0
 13 14  1  0
 14 15  2  0
 15 16  1  0
 15  3  1  0
 14  7  1  0
M  END
>  <identifier>  (1559) 
CNP0107615.1

>  <canonical_smiles>  (1559) 
COC1=CC(O)=C2C(=O)O[C@H](C)CC2=C1C

>  <standard_inchi>  (1559) 
InChI=1S/C12H14O4/c1-6-4-8-7(2)10(15-3)5-9(13)11(8)12(14)16-6/h5-6,13H,4H2,1-3H3/t6-/m1/s1

>  <standard_inchi_key>  (1559) 
OBSGEDWYLWRNBD-ZCFIWIBFSA-N

>  <name>  (1559) 
(-)-(3r)-8-hydroxy-6-methoxy-3,5-dimethyl-3,4-dihydroisocoumarin

>  <iupac_name>  (1559) 
(3~{R})-8-hydroxy-6-methoxy-3,5-dimethyl-isochroman-1-one

>  <annotation_level>  (1559) 
5

>  <total_atom_count>  (1559) 
30

>  <heavy_atom_count>  (1559) 
16

>  <molecular_weight>  (1559) 
222.24

>  <exact_molecular_weight>  (1559) 
222.08921

>  <molecular_formula>  (1559) 
C12H14O4

>  <alogp>  (1559) 
1.81

>  <topological_polar_surface_area>  (1559) 
55.76

>  <rotatable_bond_count>  (1559) 
1

>  <hydrogen_bond_acceptors>  (1559) 
4

>  <hydrogen_bond_donors>  (1559) 
1

>  <hydrogen_bond_acceptors_lipinski>  (1559) 
4

>  <hydrogen_bond_donors_lipinski>  (1559) 
1

>  <lipinski_rule_of_five_violations>  (1559) 
0

>  <aromatic_rings_count>  (1559) 
1

>  <qed_drug_likeliness>  (1559) 
0.74

>  <formal_charge>  (1559) 
0

>  <fractioncsp3>  (1559) 
0.42

>  <number_of_minimal_rings>  (1559) 
2

>  <van_der_walls_volume>  (1559) 
nan

>  <contains_sugar>  (1559) 
False

>  <contains_ring_sugars>  (1559) 
False

>  <contains_linear_sugars>  (1559) 
False

>  <murcko_framework>  (1559) 
O1Cc2ccccc2CC1

>  <np_likeness>  (1559) 
1.71

>  <chemical_class>  (1559) 
Benzopyrans

>  <chemical_sub_class>  (1559) 
2-benzopyrans

>  <chemical_super_class>  (1559) 
Organoheterocyclic compounds

>  <direct_parent_classification>  (1559) 
2-benzopyrans

>  <np_classifier_pathway>  (1559) 
Shikimates and Phenylpropanoids

>  <np_classifier_superclass>  (1559) 
Coumarins

>  <np_classifier_class>  (1559) 
Isocoumarins

>  <np_classifier_is_glycoside>  (1559) 
False

>  <organisms>  (1559) 
Endlicheria sericea

>  <collections>  (1559) 
Latin America dataset|NuBBEDB|WikiData Natural Products|ZINC NP

>  <dois>  (1559) 
10.1016/S0031-9422(00)89350-4

>  <synonyms>  (1559) 
(3R)-8-Hydroxy-6-methoxy-35-dimethyl-34 -dihydroisocoumarin

>  <cas>  (1559) 
nan

$$$$

     RDKit          2D

 29 34  0  0  0  0  0  0  0  0999 V2000
    6.1218   -1.0451    0.0000 C   0  0  0  0  0  0  0  0  0  0  0  0
    4.8544   -0.2427    0.0000 O   0  0  0  0  0  0  0  0  0  0  0  0
    3.5259   -0.9391    0.0000 C   0  0  0  0  0  0  0  0  0  0  0  0
    3.4647   -2.4378    0.0000 C   0  0  0  0  0  0  0  0  0  0  0  0
    2.1361   -3.1342    0.0000 C   0  0  0  0  0  0  0  0  0  0  0  0
    0.8687   -2.3318    0.0000 C   0  0  0  0  0  0  0  0  0  0  0  0
    0.9300   -0.8331    0.0000 C   0  0  0  0  0  0  0  0  0  0  0  0
    2.2585   -0.1367    0.0000 C   0  0  0  0  0  0  0  0  0  0  0  0
    2.0068    1.3420    0.0000 N   0  0  0  0  0  0  0  0  0  0  0  0
    3.0552    2.4148    0.0000 C   0  0  0  0  0  0  0  0  0  0  0  0
    2.6502    3.8592    0.0000 C   0  0  0  0  0  0  0  0  0  0  0  0
    4.5084    2.0434    0.0000 O   0  0  0  0  0  0  0  0  0  0  0  0
    0.5227    1.5596    0.0000 C   0  0  0  0  0  0  0  0  0  0  0  0
    0.5063    0.0597    0.0000 C   0  0  0  0  0  0  0  0  0  0  0  0
   -0.6766   -0.8627    0.0000 C   0  0  0  0  0  0  0  0  0  0  0  0
   -2.1352   -0.5130    0.0000 C   0  0  0  0  0  0  0  0  0  0  0  0
   -2.7713    0.8454    0.0000 C   0  0  0  0  0  0  0  0  0  0  0  0
   -2.1058    2.1897    0.0000 C   0  0  0  0  0  0  0  0  0  0  0  0
   -0.6398    2.5075    0.0000 C   0  0  0  0  0  0  0  0  0  0  0  0
   -4.1402    0.2306    0.0000 C   0  0  0  0  0  0  0  0  0  0  0  0
   -5.3305    1.1434    0.0000 O   0  0  0  0  0  0  0  0  0  0  0  0
   -6.7161    0.5689    0.0000 C   0  0  0  0  0  0  0  0  0  0  0  0
   -4.3355   -1.2566    0.0000 C   0  0  0  0  0  0  0  0  0  0  0  0
   -3.1452   -2.1694    0.0000 C   0  0  0  0  0  0  0  0  0  0  0  0
   -1.7595   -1.5949    0.0000 N   0  0  0  0  0  0  0  0  0  0  0  0
   -0.8941   -0.6258    0.0000 C   0  0  0  0  0  0  0  0  0  0  0  0
   -1.0083   -0.7538    0.0000 C   0  0  0  0  0  0  0  0  0  0  0  0
   -0.1429    0.2153    0.0000 C   0  0  0  0  0  0  0  0  0  0  0  0
   -1.6088   -0.1025    0.0000 C   0  0  0  0  0  0  0  0  0  0  0  0
  1  2  1  0
  2  3  1  0
  3  4  2  0
  4  5  1  0
  5  6  2  0
  6  7  1  0
  7  8  2  0
  8  9  1  0
  9 10  1  0
 10 11  1  0
 10 12  2  0
  9 13  1  0
 13 14  1  0
 14 15  1  0
 15 16  1  0
 16 17  1  0
 17 18  1  0
 18 19  1  0
 17 20  1  0
 20 21  1  0
 21 22  1  0
 20 23  1  0
 23 24  1  0
 24 25  1  0
 25 26  1  0
 26 27  1  0
 27 28  1  0
 28 29  1  0
  8  3  1  0
 19 13  1  0
 29 25  1  1
 28  7  1  0
 28 13  1  0
 29 17  1  0
M  END
>  <identifier>  (1560) 
CNP0404404.1

>  <canonical_smiles>  (1560) 
COC1=CC=CC2=C1N(C(C)=O)C13CCCC4(CC1)C(OC)CCN1CCC23[C@@H]14

>  <standard_inchi>  (1560) 
InChI=1S/C24H32N2O3/c1-16(27)26-20-17(6-4-7-18(20)28-2)24-13-15-25-14-8-19(29-3)22(21(24)25)9-5-10-23(24,26)12-11-22/h4,6-7,19,21H,5,8-15H2,1-3H3/t19?,21-,22?,23?,24?/m0/s1

>  <standard_inchi_key>  (1560) 
SBYZZLKGHWVOBE-FIRWPCFVSA-N

>  <name>  (1560) 
nan

>  <iupac_name>  (1560) 
1-[(22~{R})-4,15-dimethoxy-2,12-diazahexacyclo[14.3.2.1^{9,12}.0^{1,9}.0^{3,8}.0^{16,22}]docosa-3(8),4,6-trien-2-yl]ethanone

>  <annotation_level>  (1560) 
4

>  <total_atom_count>  (1560) 
61

>  <heavy_atom_count>  (1560) 
29

>  <molecular_weight>  (1560) 
396.53

>  <exact_molecular_weight>  (1560) 
396.24129

>  <molecular_formula>  (1560) 
C24H32N2O3

>  <alogp>  (1560) 
3.50

>  <topological_polar_surface_area>  (1560) 
42.01

>  <rotatable_bond_count>  (1560) 
2

>  <hydrogen_bond_acceptors>  (1560) 
4

>  <hydrogen_bond_donors>  (1560) 
0

>  <hydrogen_bond_acceptors_lipinski>  (1560) 
4

>  <hydrogen_bond_donors_lipinski>  (1560) 
0

>  <lipinski_rule_of_five_violations>  (1560) 
0

>  <aromatic_rings_count>  (1560) 
1

>  <qed_drug_likeliness>  (1560) 
0.77

>  <formal_charge>  (1560) 
0

>  <fractioncsp3>  (1560) 
0.71

>  <number_of_minimal_rings>  (1560) 
7

>  <van_der_walls_volume>  (1560) 
nan

>  <contains_sugar>  (1560) 
False

>  <contains_ring_sugars>  (1560) 
False

>  <contains_linear_sugars>  (1560) 
False

>  <murcko_framework>  (1560) 
c1ccc2c(c1)NC34CCCC5(CCCN6CCC23C65)CC4

>  <np_likeness>  (1560) 
1.52

>  <chemical_class>  (1560) 
Aspidospermatan-type alkaloids

>  <chemical_sub_class>  (1560) 
Aspidospermatan-type alkaloids

>  <chemical_super_class>  (1560) 
Alkaloids and derivatives

>  <direct_parent_classification>  (1560) 
Aspidospermatan-type alkaloids

>  <np_classifier_pathway>  (1560) 
Alkaloids

>  <np_classifier_superclass>  (1560) 
Tryptophan alkaloids

>  <np_classifier_class>  (1560) 
Aspidosperma type

>  <np_classifier_is_glycoside>  (1560) 
False

>  <organisms>  (1560) 
Aspidosperma pyrifolium

>  <collections>  (1560) 
Latin America dataset|NuBBEDB|WikiData Natural Products

>  <dois>  (1560) 
10.1016/S0031-9422(00)84061-3

>  <synonyms>  (1560) 
(+)-Pyrifoline

>  <cas>  (1560) 
nan

$$$$

     RDKit          2D

 27 30  0  0  0  0  0  0  0  0999 V2000
    2.6535    4.3092    0.0000 C   0  0  0  0  0  0  0  0  0  0  0  0
    2.6706    2.8093    0.0000 C   0  0  0  0  0  0  0  0  0  0  0  0
    1.3801    2.0446    0.0000 C   0  0  0  0  0  0  0  0  0  0  0  0
    1.3972    0.5447    0.0000 C   0  0  0  0  0  0  0  0  0  0  0  0
    2.7605    1.1703    0.0000 C   0  0  0  0  0  0  0  0  0  0  0  0
    3.9840    0.3025    0.0000 C   0  0  0  0  0  0  0  0  0  0  0  0
    5.3472    0.9282    0.0000 O   0  0  0  0  0  0  0  0  0  0  0  0
    6.5707    0.0604    0.0000 C   0  0  0  0  0  0  0  0  0  0  0  0
    3.8441   -1.1909    0.0000 C   0  0  0  0  0  0  0  0  0  0  0  0
    5.0676   -2.0588    0.0000 O   0  0  0  0  0  0  0  0  0  0  0  0
    2.4809   -1.8166    0.0000 C   0  0  0  0  0  0  0  0  0  0  0  0
    2.3410   -3.3101    0.0000 O   0  0  0  0  0  0  0  0  0  0  0  0
    3.5645   -4.1779    0.0000 C   0  0  0  0  0  0  0  0  0  0  0  0
    1.2574   -0.9488    0.0000 C   0  0  0  0  0  0  0  0  0  0  0  0
   -0.2062   -1.2773    0.0000 O   0  0  0  0  0  0  0  0  0  0  0  0
   -0.9709    0.0131    0.0000 C   0  0  0  0  0  0  0  0  0  0  0  0
   -2.4644    0.1529    0.0000 C   0  0  0  0  0  0  0  0  0  0  0  0
   -3.0901    1.5162    0.0000 C   0  0  0  0  0  0  0  0  0  0  0  0
   -4.5835    1.6560    0.0000 C   0  0  0  0  0  0  0  0  0  0  0  0
   -5.4513    0.4325    0.0000 C   0  0  0  0  0  0  0  0  0  0  0  0
   -6.9412    0.2588    0.0000 O   0  0  0  0  0  0  0  0  0  0  0  0
   -7.2364   -1.2119    0.0000 C   0  0  0  0  0  0  0  0  0  0  0  0
   -5.9289   -1.9471    0.0000 O   0  0  0  0  0  0  0  0  0  0  0  0
   -4.8257   -0.9308    0.0000 C   0  0  0  0  0  0  0  0  0  0  0  0
   -3.3322   -1.0706    0.0000 C   0  0  0  0  0  0  0  0  0  0  0  0
    0.0200    1.1392    0.0000 C   0  0  0  0  0  0  0  0  0  0  0  0
   -0.3085    2.6027    0.0000 C   0  0  0  0  0  0  0  0  0  0  0  0
  1  2  2  0
  2  3  1  0
  4  3  1  6
  4  5  1  0
  5  6  2  0
  6  7  1  0
  7  8  1  0
  6  9  1  0
  9 10  2  0
  9 11  1  0
 11 12  1  0
 12 13  1  0
 11 14  2  0
 14 15  1  0
 15 16  1  0
 16 17  1  1
 17 18  2  0
 18 19  1  0
 19 20  2  0
 20 21  1  0
 21 22  1  0
 22 23  1  0
 23 24  1  0
 24 25  2  0
 16 26  1  0
 26 27  1  1
 14  4  1  0
 25 17  1  0
 26  4  1  0
 24 20  1  0
M  END
>  <identifier>  (1561) 
CNP0270722.1

>  <canonical_smiles>  (1561) 
C=CC[C@]12C=C(OC)C(=O)C(OC)=C1O[C@@H](C1=CC=C3OCOC3=C1)[C@H]2C

>  <standard_inchi>  (1561) 
InChI=1S/C21H22O6/c1-5-8-21-10-16(23-3)17(22)19(24-4)20(21)27-18(12(21)2)13-6-7-14-15(9-13)26-11-25-14/h5-7,9-10,12,18H,1,8,11H2,2-4H3/t12-,18-,21-/m1/s1

>  <standard_inchi_key>  (1561) 
GAIYJSQKRRARSH-HXGDPMPDSA-N

>  <name>  (1561) 
MLS000697724

>  <iupac_name>  (1561) 
(2~{R},3~{S},3~{a}~{S})-3~{a}-allyl-2-(1,3-benzodioxol-5-yl)-5,7-dimethoxy-3-methyl-2,3-dihydrobenzofuran-6-one

>  <annotation_level>  (1561) 
5

>  <total_atom_count>  (1561) 
49

>  <heavy_atom_count>  (1561) 
27

>  <molecular_weight>  (1561) 
370.4

>  <exact_molecular_weight>  (1561) 
370.14164

>  <molecular_formula>  (1561) 
C21H22O6

>  <alogp>  (1561) 
3.66

>  <topological_polar_surface_area>  (1561) 
63.22

>  <rotatable_bond_count>  (1561) 
5

>  <hydrogen_bond_acceptors>  (1561) 
6

>  <hydrogen_bond_donors>  (1561) 
0

>  <hydrogen_bond_acceptors_lipinski>  (1561) 
6

>  <hydrogen_bond_donors_lipinski>  (1561) 
0

>  <lipinski_rule_of_five_violations>  (1561) 
0

>  <aromatic_rings_count>  (1561) 
1

>  <qed_drug_likeliness>  (1561) 
0.74

>  <formal_charge>  (1561) 
0

>  <fractioncsp3>  (1561) 
0.38

>  <number_of_minimal_rings>  (1561) 
4

>  <van_der_walls_volume>  (1561) 
329.17

>  <contains_sugar>  (1561) 
False

>  <contains_ring_sugars>  (1561) 
False

>  <contains_linear_sugars>  (1561) 
False

>  <murcko_framework>  (1561) 
O1c2ccc(cc2OC1)C3OC4=CCC=CC4C3

>  <np_likeness>  (1561) 
2.12

>  <chemical_class>  (1561) 
2-arylbenzofuran flavonoids

>  <chemical_sub_class>  (1561) 
2-arylbenzofuran flavonoids

>  <chemical_super_class>  (1561) 
Phenylpropanoids and polyketides

>  <direct_parent_classification>  (1561) 
2-arylbenzofuran flavonoids

>  <np_classifier_pathway>  (1561) 
Shikimates and Phenylpropanoids

>  <np_classifier_superclass>  (1561) 
Lignans

>  <np_classifier_class>  (1561) 
Neolignans

>  <np_classifier_is_glycoside>  (1561) 
False

>  <organisms>  (1561) 
Aiouea montana|Diaporthe phaseolorum|Euphorbia splendens|Leptotaenia multifida|Lunasia costulata|Ocotea aciphylla|Ocotea catharinensis|Rudbeckia speciosa|Woodsia manchuriensis

>  <collections>  (1561) 
CMAUP (cCollective molecular activities of useful plants)|ChemSpider NPs|Latin America dataset|NPASS|NuBBEDB|PubChem NPs|Super Natural II|WikiData Natural Products|ZINC NP

>  <dois>  (1561) 
10.1016/0031-9422(83)83046-5|10.1016/0031-9422(91)83479-5|10.1016/S0031-9422(00)81240-6|10.1590/S0100-40422004000200005

>  <synonyms>  (1561) 
(7R8S1'S)-\u221a\u00e9\u201a\u00c4\u00f98'-3'5'-dimethoxy-1'4'-dihydro-4'-oxo-7.0.2'8.1'-neolignan|CHEMBL1888377|HMS2267N15|MLS000697724|SMR000470991

>  <cas>  (1561) 
nan

$$$$

     RDKit          2D

 28 30  0  0  0  0  0  0  0  0999 V2000
   -4.0214    3.3362    0.0000 C   0  0  0  0  0  0  0  0  0  0  0  0
   -4.7700    2.0363    0.0000 C   0  0  0  0  0  0  0  0  0  0  0  0
   -6.2700    2.0348    0.0000 O   0  0  0  0  0  0  0  0  0  0  0  0
   -4.0186    0.7381    0.0000 C   0  0  0  0  0  0  0  0  0  0  0  0
   -4.7673   -0.5617    0.0000 C   0  0  0  0  0  0  0  0  0  0  0  0
   -6.2673   -0.5633    0.0000 C   0  0  0  0  0  0  0  0  0  0  0  0
   -4.0159   -1.8600    0.0000 C   0  0  0  0  0  0  0  0  0  0  0  0
   -2.5159   -1.8584    0.0000 C   0  0  0  0  0  0  0  0  0  0  0  0
   -1.7645   -3.1567    0.0000 C   0  0  0  0  0  0  0  0  0  0  0  0
   -0.2645   -3.1551    0.0000 C   0  0  0  0  0  0  0  0  0  0  0  0
    0.4868   -4.4533    0.0000 O   0  0  0  0  0  0  0  0  0  0  0  0
    0.4841   -1.8553    0.0000 C   0  0  0  0  0  0  0  0  0  0  0  0
   -0.2673   -0.5570    0.0000 C   0  0  0  0  0  0  0  0  0  0  0  0
    0.4814    0.7428    0.0000 O   0  0  0  0  0  0  0  0  0  0  0  0
    1.9814    0.7444    0.0000 C   0  0  0  0  0  0  0  0  0  0  0  0
    2.7327   -0.5539    0.0000 O   0  0  0  0  0  0  0  0  0  0  0  0
    4.2327   -0.5523    0.0000 C   0  0  0  0  0  0  0  0  0  0  0  0
    4.9841   -1.8505    0.0000 C   0  0  0  0  0  0  0  0  0  0  0  0
    4.2354   -3.1504    0.0000 O   0  0  0  0  0  0  0  0  0  0  0  0
    4.9814    0.7475    0.0000 C   0  0  0  0  0  0  0  0  0  0  0  0
    6.4814    0.7491    0.0000 O   0  0  0  0  0  0  0  0  0  0  0  0
    4.2300    2.0458    0.0000 C   0  0  0  0  0  0  0  0  0  0  0  0
    4.9786    3.3456    0.0000 O   0  0  0  0  0  0  0  0  0  0  0  0
    2.7300    2.0442    0.0000 C   0  0  0  0  0  0  0  0  0  0  0  0
    1.9786    3.3425    0.0000 O   0  0  0  0  0  0  0  0  0  0  0  0
   -1.7673   -0.5586    0.0000 C   0  0  0  0  0  0  0  0  0  0  0  0
   -2.5186    0.7397    0.0000 C   0  0  0  0  0  0  0  0  0  0  0  0
   -1.7700    2.0395    0.0000 O   0  0  0  0  0  0  0  0  0  0  0  0
  1  2  1  0
  2  3  2  0
  2  4  1  0
  4  5  2  0
  5  6  1  0
  5  7  1  0
  7  8  2  0
  8  9  1  0
  9 10  2  0
 10 11  1  0
 10 12  1  0
 12 13  2  0
 13 14  1  0
 15 14  1  1
 15 16  1  0
 16 17  1  0
 17 18  1  1
 18 19  1  0
 17 20  1  0
 20 21  1  6
 20 22  1  0
 22 23  1  1
 22 24  1  0
 24 25  1  6
 13 26  1  0
 26 27  2  0
 27 28  1  0
 27  4  1  0
 26  8  1  0
 24 15  1  0
M  END
>  <identifier>  (1562) 
CNP0191713.1

>  <canonical_smiles>  (1562) 
CC(=O)C1=C(C)C=C2C=C(O)C=C(O[C@@H]3O[C@H](CO)[C@@H](O)[C@H](O)[C@H]3O)C2=C1O

>  <standard_inchi>  (1562) 
InChI=1S/C19H22O9/c1-7-3-9-4-10(22)5-11(14(9)16(24)13(7)8(2)21)27-19-18(26)17(25)15(23)12(6-20)28-19/h3-5,12,15,17-20,22-26H,6H2,1-2H3/t12-,15-,17+,18-,19-/m1/s1

>  <standard_inchi_key>  (1562) 
VJDBDVUFFPRHSF-JZXZQAMYSA-N

>  <name>  (1562) 
23566-96-3

>  <iupac_name>  (1562) 
1-[1,6-dihydroxy-3-methyl-8-[(2~{S},3~{R},4~{S},5~{S},6~{R})-3,4,5-trihydroxy-6-(hydroxymethyl)tetrahydropyran-2-yl]oxy-2-naphthyl]ethanone

>  <annotation_level>  (1562) 
5

>  <total_atom_count>  (1562) 
50

>  <heavy_atom_count>  (1562) 
28

>  <molecular_weight>  (1562) 
394.38

>  <exact_molecular_weight>  (1562) 
394.12638

>  <molecular_formula>  (1562) 
C19H22O9

>  <alogp>  (1562) 
-0.06

>  <topological_polar_surface_area>  (1562) 
156.91

>  <rotatable_bond_count>  (1562) 
4

>  <hydrogen_bond_acceptors>  (1562) 
9

>  <hydrogen_bond_donors>  (1562) 
6

>  <hydrogen_bond_acceptors_lipinski>  (1562) 
9

>  <hydrogen_bond_donors_lipinski>  (1562) 
6

>  <lipinski_rule_of_five_violations>  (1562) 
1

>  <aromatic_rings_count>  (1562) 
2

>  <qed_drug_likeliness>  (1562) 
0.39

>  <formal_charge>  (1562) 
0

>  <fractioncsp3>  (1562) 
0.42

>  <number_of_minimal_rings>  (1562) 
3

>  <van_der_walls_volume>  (1562) 
334.16

>  <contains_sugar>  (1562) 
True

>  <contains_ring_sugars>  (1562) 
True

>  <contains_linear_sugars>  (1562) 
False

>  <murcko_framework>  (1562) 
O(c1cccc2ccccc12)C3OCCCC3

>  <np_likeness>  (1562) 
2.27

>  <chemical_class>  (1562) 
Naphthalenes

>  <chemical_sub_class>  (1562) 
Naphthols and derivatives

>  <chemical_super_class>  (1562) 
Benzenoids

>  <direct_parent_classification>  (1562) 
Naphthols and derivatives

>  <np_classifier_pathway>  (1562) 
Polyketides

>  <np_classifier_superclass>  (1562) 
Naphthalenes

>  <np_classifier_class>  (1562) 
Naphthalenes and derivatives

>  <np_classifier_is_glycoside>  (1562) 
True

>  <organisms>  (1562) 
Aizopsis selskiana|Albizia myriophylla|Amphorogyne spicata|Anaphalis lactea|Anchusa azurea|Aphis nerii|Balanophora laxiflora|Benincasa hispida|Bipolaris heveae|Carduus tenuiflorus|Caulerpa peltata|Chaetomium carinthiacum|Chaiturus marrubiastrum|Dalbergia lanceolaria subsp. paniculata|Degenia velebitica|Delphinium nuttallianum|Delphinium virgatum|Dillenia indica|Dipsacus azureus|Erythrophleum ivorense|Gleichenia quadripartita|Grangea maderaspatana|Helichrysum chionosphaerum|Jacquemontia paniculata|Leptocereus quadricostatus|Lespedeza tomentosa|Lupinus corymbosus|Mandragora autumnalis|Metrodorea nigra|Nepeta granatensis|Onobrychis arenaria|Oophaga granulifera|Penicillium bilaiae|Penicillium shearii|Petunia integrifolia subsp. inflata|Photinia serratifolia|Pinalia stricta|Polyporus betulinus|Quercus rubra|Rheum officinale|Rheum palmatum|Rhododendron dahuricum|Rhynchophorus ferrugineus|Rosa pomifera|Salvia greggii|Senecio behnii|Senecio praecox|Senna tora|Sphaerella rosigena|Stephanitis takeyai|Tagetes filifolia|Tanacetum coccineum|Verbascum thapsiforme

>  <collections>  (1562) 
AnalytiCon Discovery NPs|CMAUP (cCollective molecular activities of useful plants)|FooDB|Latin America dataset|NPASS|NuBBEDB|Super Natural II|TCMDB-Taiwan (Traditional Chinese Medicine database)|WikiData Natural Products|ZINC NP

>  <dois>  (1562) 
10.1016/S0040-4039(01)97216-8|10.1248/CPB.55.1476|10.1248/CPB.60.241

>  <synonyms>  (1562) 
1-[1,6-dihydroxy-3-methyl-8-[(2S,3R,4S,5S,6R)-3,4,5-trihydroxy-6-(hydroxymethyl)oxan-2-yl]oxynaphthalen-2-yl]ethanone|6-Hydroxymusizin 8-O-glucoside|6-hydroxymusizin-8-O-B-D-glucoside|AKOS040739257|Compound NP-009013|NSC 362402

>  <cas>  (1562) 
23566-96-3

$$$$

     RDKit          2D

 24 23  0  0  0  0  0  0  0  0999 V2000
   -7.7942   -4.3125    0.0000 C   0  0  0  0  0  0  0  0  0  0  0  0
   -7.7942   -2.8125    0.0000 C   0  0  0  0  0  0  0  0  0  0  0  0
   -9.0933   -2.0625    0.0000 C   0  0  0  0  0  0  0  0  0  0  0  0
   -6.4952   -2.0625    0.0000 C   0  0  0  0  0  0  0  0  0  0  0  0
   -6.4952   -0.5625    0.0000 C   0  0  0  0  0  0  0  0  0  0  0  0
   -5.1962    0.1875    0.0000 C   0  0  0  0  0  0  0  0  0  0  0  0
   -5.1962    1.6875    0.0000 C   0  0  0  0  0  0  0  0  0  0  0  0
   -6.4952    2.4375    0.0000 C   0  0  0  0  0  0  0  0  0  0  0  0
   -3.8971    2.4375    0.0000 C   0  0  0  0  0  0  0  0  0  0  0  0
   -2.5981    1.6875    0.0000 C   0  0  0  0  0  0  0  0  0  0  0  0
   -1.2990    2.4375    0.0000 N   0  0  0  0  0  0  0  0  0  0  0  0
    0.0000    1.6875    0.0000 C   0  0  0  0  0  0  0  0  0  0  0  0
    0.0000    0.1875    0.0000 N   0  0  0  0  0  0  0  0  0  0  0  0
    1.2990    2.4375    0.0000 N   0  0  0  0  0  0  0  0  0  0  0  0
    2.5981    1.6875    0.0000 C   0  0  0  0  0  0  0  0  0  0  0  0
    3.8971    2.4375    0.0000 C   0  0  0  0  0  0  0  0  0  0  0  0
    5.1962    1.6875    0.0000 C   0  0  0  0  0  0  0  0  0  0  0  0
    6.4952    2.4375    0.0000 C   0  0  0  0  0  0  0  0  0  0  0  0
    5.1962    0.1875    0.0000 C   0  0  0  0  0  0  0  0  0  0  0  0
    6.4952   -0.5625    0.0000 C   0  0  0  0  0  0  0  0  0  0  0  0
    6.4952   -2.0625    0.0000 C   0  0  0  0  0  0  0  0  0  0  0  0
    7.7942   -2.8125    0.0000 C   0  0  0  0  0  0  0  0  0  0  0  0
    7.7942   -4.3125    0.0000 C   0  0  0  0  0  0  0  0  0  0  0  0
    9.0933   -2.0625    0.0000 C   0  0  0  0  0  0  0  0  0  0  0  0
  1  2  1  0
  2  3  1  0
  2  4  2  0
  4  5  1  0
  5  6  1  0
  6  7  1  0
  7  8  1  0
  7  9  2  3
  9 10  1  0
 10 11  1  0
 11 12  1  0
 12 13  2  0
 12 14  1  0
 14 15  1  0
 15 16  1  0
 16 17  2  0
 17 18  1  0
 17 19  1  0
 19 20  1  0
 20 21  1  0
 21 22  2  0
 22 23  1  0
 22 24  1  0
M  END
>  <identifier>  (1563) 
CNP0080395.2

>  <canonical_smiles>  (1563) 
CC(C)=CCCC(C)=CCNC(=N)NC/C=C(/C)CCC=C(C)C

>  <standard_inchi>  (1563) 
InChI=1S/C21H37N3/c1-17(2)9-7-11-19(5)13-15-23-21(22)24-16-14-20(6)12-8-10-18(3)4/h9-10,13-14H,7-8,11-12,15-16H2,1-6H3,(H3,22,23,24)/b19-13-,20-14?

>  <standard_inchi_key>  (1563) 
WWGVMWNCEFTAEP-CFPKWIFWSA-N

>  <name>  (1563) 
nan

>  <iupac_name>  (1563) 
nan

>  <annotation_level>  (1563) 
0

>  <total_atom_count>  (1563) 
61

>  <heavy_atom_count>  (1563) 
24

>  <molecular_weight>  (1563) 
331.55

>  <exact_molecular_weight>  (1563) 
331.29875

>  <molecular_formula>  (1563) 
C21H37N3

>  <alogp>  (1563) 
5.49

>  <topological_polar_surface_area>  (1563) 
47.91

>  <rotatable_bond_count>  (1563) 
10

>  <hydrogen_bond_acceptors>  (1563) 
1

>  <hydrogen_bond_donors>  (1563) 
3

>  <hydrogen_bond_acceptors_lipinski>  (1563) 
1

>  <hydrogen_bond_donors_lipinski>  (1563) 
3

>  <lipinski_rule_of_five_violations>  (1563) 
1

>  <aromatic_rings_count>  (1563) 
0

>  <qed_drug_likeliness>  (1563) 
0.28

>  <formal_charge>  (1563) 
0

>  <fractioncsp3>  (1563) 
0.57

>  <number_of_minimal_rings>  (1563) 
0

>  <van_der_walls_volume>  (1563) 
369.64

>  <contains_sugar>  (1563) 
False

>  <contains_ring_sugars>  (1563) 
False

>  <contains_linear_sugars>  (1563) 
False

>  <murcko_framework>  (1563) 
nan

>  <np_likeness>  (1563) 
1.20

>  <chemical_class>  (1563) 
nan

>  <chemical_sub_class>  (1563) 
nan

>  <chemical_super_class>  (1563) 
nan

>  <direct_parent_classification>  (1563) 
nan

>  <np_classifier_pathway>  (1563) 
Terpenoids

>  <np_classifier_superclass>  (1563) 
Sesquiterpenoids

>  <np_classifier_class>  (1563) 
Farnesane sesquiterpenoids

>  <np_classifier_is_glycoside>  (1563) 
False

>  <organisms>  (1563) 
Pterogyne nitens

>  <collections>  (1563) 
Latin America dataset|NuBBEDB

>  <dois>  (1563) 
10.1590/S0102-695X2010005000017

>  <synonyms>  (1563) 
nan

>  <cas>  (1563) 
nan

$$$$

     RDKit          2D

 14 15  0  0  0  0  0  0  0  0999 V2000
   -3.9452    1.9906    0.0000 C   0  0  0  0  0  0  0  0  0  0  0  0
   -3.5792    0.5359    0.0000 O   0  0  0  0  0  0  0  0  0  0  0  0
   -2.1365    0.1255    0.0000 C   0  0  0  0  0  0  0  0  0  0  0  0
   -1.0597    1.1697    0.0000 C   0  0  0  0  0  0  0  0  0  0  0  0
    0.3831    0.7592    0.0000 C   0  0  0  0  0  0  0  0  0  0  0  0
    0.7490   -0.6954    0.0000 C   0  0  0  0  0  0  0  0  0  0  0  0
   -0.3278   -1.7397    0.0000 C   0  0  0  0  0  0  0  0  0  0  0  0
   -1.7706   -1.3292    0.0000 C   0  0  0  0  0  0  0  0  0  0  0  0
   -2.8474   -2.3735    0.0000 O   0  0  0  0  0  0  0  0  0  0  0  0
    2.1918   -1.1059    0.0000 O   0  0  0  0  0  0  0  0  0  0  0  0
    3.2686   -0.0617    0.0000 C   0  0  0  0  0  0  0  0  0  0  0  0
    4.7113   -0.4721    0.0000 O   0  0  0  0  0  0  0  0  0  0  0  0
    2.9027    1.3930    0.0000 C   0  0  0  0  0  0  0  0  0  0  0  0
    1.4599    1.8035    0.0000 C   0  0  0  0  0  0  0  0  0  0  0  0
  1  2  1  0
  2  3  1  0
  3  4  2  0
  4  5  1  0
  5  6  2  0
  6  7  1  0
  7  8  2  0
  8  9  1  0
  6 10  1  0
 10 11  1  0
 11 12  2  0
 11 13  1  0
 13 14  2  0
  8  3  1  0
 14  5  1  0
M  END
>  <identifier>  (1564) 
CNP0184442.0

>  <canonical_smiles>  (1564) 
COC1=CC2=C(C=C1O)OC(=O)C=C2

>  <standard_inchi>  (1564) 
InChI=1S/C10H8O4/c1-13-9-4-6-2-3-10(12)14-8(6)5-7(9)11/h2-5,11H,1H3

>  <standard_inchi_key>  (1564) 
RODXRVNMMDRFIK-UHFFFAOYSA-N

>  <name>  (1564) 
scopoletin

>  <iupac_name>  (1564) 
7-hydroxy-6-methoxy-chromen-2-one

>  <annotation_level>  (1564) 
5

>  <total_atom_count>  (1564) 
22

>  <heavy_atom_count>  (1564) 
14

>  <molecular_weight>  (1564) 
192.17

>  <exact_molecular_weight>  (1564) 
192.04226

>  <molecular_formula>  (1564) 
C10H8O4

>  <alogp>  (1564) 
1.51

>  <topological_polar_surface_area>  (1564) 
59.67

>  <rotatable_bond_count>  (1564) 
1

>  <hydrogen_bond_acceptors>  (1564) 
4

>  <hydrogen_bond_donors>  (1564) 
1

>  <hydrogen_bond_acceptors_lipinski>  (1564) 
4

>  <hydrogen_bond_donors_lipinski>  (1564) 
1

>  <lipinski_rule_of_five_violations>  (1564) 
0

>  <aromatic_rings_count>  (1564) 
2

>  <qed_drug_likeliness>  (1564) 
0.70

>  <formal_charge>  (1564) 
0

>  <fractioncsp3>  (1564) 
0.10

>  <number_of_minimal_rings>  (1564) 
2

>  <van_der_walls_volume>  (1564) 
160.82

>  <contains_sugar>  (1564) 
False

>  <contains_ring_sugars>  (1564) 
False

>  <contains_linear_sugars>  (1564) 
False

>  <murcko_framework>  (1564) 
O1c2ccccc2C=CC1

>  <np_likeness>  (1564) 
1.08

>  <chemical_class>  (1564) 
Coumarins and derivatives

>  <chemical_sub_class>  (1564) 
Hydroxycoumarins

>  <chemical_super_class>  (1564) 
Phenylpropanoids and polyketides

>  <direct_parent_classification>  (1564) 
7-hydroxycoumarins

>  <np_classifier_pathway>  (1564) 
Shikimates and Phenylpropanoids

>  <np_classifier_superclass>  (1564) 
Coumarins

>  <np_classifier_class>  (1564) 
Simple coumarins

>  <np_classifier_is_glycoside>  (1564) 
False

>  <organisms>  (1564) 
Abelia chinensis|Abelmoschus esculentus|Abuta velutina|Acacia cambagei|Acacia ehrenbergiana|Acacia neovernicosa|Acacia salicina|Acalypha spiciflora|Acanthaster planci|Acanthostyles buniifolius|Acer maximowiczianum|Acer nikoense|Achillea arabica|Achillea biebersteinii|Achillea biserrata|Achillea holosericea|Achillea impatiens|Achillea lycaonica|Achillea schischkinii|Achillea sp.|Achillea wilhelmsii|Achyrocline bogotensis|Achyrocline bogotensis (HBK.) DC.|Acinetobacter baumannii|Acinetobacter calcoaceticus|Aconitum gigas|Aconitum kongboense|Aconitum zuccarini|Acronychia laurifolia|Adansonia digitata|Adenia fruticosa|Adenocalymma alliaceum|Adonis amurensis|Adonis mongolica|Adonis tianschanica|Aegle marmelos|Aeromonas hydrophila|Aesculus hippocastanum|Aesculus sp.|Aesculus turbinata|Agapanthus inapertus|Agave deserti|Agave ghiesbreghtii|Ageratina saltillensis|Ageratum corymbosum|Aglaia crassinervia|Aglaia edulis|Aglaia elliptifolia|Aglaia erythrosperma|Aglaia odorata|Aglaia perviridis|Aglaia pyramidata|Aglaia rimosa|Ailanthus Altissima|Ailanthus altissima|Ajania fruticulosa|Ajania nubigena|Aka coralliphagum|Albizia gummifera|Albizia julibrissin|Alchornea cordifolia|Alexandrium excavatum|Allagopappus dichotomus|Allamanda schottii|Allium rotundum|Alpinia officinarum|Althaea armeniaca|Althaea broussonetiifolia|Althaea cannabina|Althaea narbonensis|Althaea officinalis|Alyxia lucida|Alyxia reinwardtii|Amanita caesarea|Amathia alternata|Ambrosia artemisioides|Ammi majus|Amomum daniellii|Amomum reticulatum|Amyris barbata|Amyris brenesii|Amyris lineata|Amyris pinnata|Anagyris foetida|Ancistrocladus korupensis|Andrographis echioides|Anethum graveolens|Anethum sp.|Angelica Dahurica|Angelica Pubescens|Angelica Sinensis|Angelica acutiloba|Angelica archangelica|Angelica dahurica|Angelica decursiva|Angelica japonica|Angelica pubescens|Angelica pubescens f.biserrata|Angelica sinensis|Angelica sp.|Aniba duckei|Anisodus luridus|Annona glabra|Antennaria geyeri|Anthemis cupaniana|Anthemis pseudocotula|Anthriscus sylvestris|Apium graveolens|Apium sp.|Aplophyllum alberti-regelii|Aplysia dactylomela|Apocynum venetum|Arabidopsis thaliana|Arachniodes mutica|Aralia continentalis|Aralia fargesii|Aralidium pinnatifidum|Arctotheca calendula|Arenaria kansuensis|Argyreia nervosa|Argyreia speciosa|Aristotelia chilensis|Armillaria tabescens|Arnica mollis|Arnica viscosa|Arracacia tolucensis|Artabotrys zeylanicus|Artemisia Annua|Artemisia Capillaris|Artemisia Japonica|Artemisia abrotanum|Artemisia absinthium|Artemisia adamsii|Artemisia afra|Artemisia alba|Artemisia annua|Artemisia annua L.|Artemisia anomala|Artemisia apiacea|Artemisia arborescens|Artemisia argyi|Artemisia assoana|Artemisia campestris|Artemisia capillaries|Artemisia capillaris|Artemisia caucasica|Artemisia chamaemelifolia|Artemisia compacta|Artemisia dalai-lamae|Artemisia douglasiana|Artemisia dracunculoides|Artemisia eriopoda|Artemisia feddei|Artemisia freyniana|Artemisia gilvescens|Artemisia glauca|Artemisia gmelinii|Artemisia herba-alba|Artemisia ifranensis|Artemisia incanescens|Artemisia ireyniana|Artemisia iskenderiana|Artemisia iwayomogi|Artemisia jacutica|Artemisia japonica|Artemisia keiskeana|Artemisia laciniata|Artemisia lancea|Artemisia ludoviciana|Artemisia marschalliana|Artemisia mesatlantica|Artemisia minor|Artemisia montana|Artemisia nova|Artemisia ordosica|Artemisia princeps|Artemisia rubripes|Artemisia rutifolia|Artemisia saissanica|Artemisia santolinifolia|Artemisia schimperi|Artemisia scoparia|Artemisia siversiana|Artemisia sp.|Artemisia stechmanniana|Artemisia sublessingiana|Artemisia tridentata|Artemisia tripartita|Artemisia vulgaris|Asclepias subulata|Ascodesmis sphaerospora|Ashitaba|Asimina parviflora|Aspergillus chevalieri|Aspergillus phoenicis|Aspidixia articulata|Aster alpinus|Aster ptarmicoides|Asteraceae|Asterias nipon|Asterolasia trymalioides|Astragalus amarus|Astragalus brachycarpus|Astragalus caspicus|Astragalus curvicarpus|Astragalus onobrychis|Atalantia wightii|Athanasia dregeana|Atractylodes macrocephala|Atractylodes sp.|Atraphaxis spinosa|Atropa bella-donna|Atropa belladonna|Atropa sp.|Atylosia trinervia|Avena fatua|Avena sativa|Avena sp.|Azadirachta indica|Baccharis articulata|Baccharis confertifolia|Baccharis magellanica|Baccharis megapotamica|Baccharis neaei|Baccharis neglecta|Baccharis patagonica|Baccharis rhomboidalis|Baccharis solieri|Baccharis tola|Bacillus amyloliquefaciens|Bacillus subtilis|Backhousia angustifolia|Balanophora japonica|Balbisia calycina|Baptisia arachnifera|Baptisia bracteata|Baptisia calycosa|Baptisia cinerea|Baptisia lanceolata|Baptisia nuttalliana|Baptisia perfoliata|Baptisia simplicifolia|Baptisia sp.|Baptisia tinctoria|Baptisia versicolor|Barbados nut|Benkara malabarica|Berberis crataegina|Berchemia formosana|Bersama swinnyi|Betula neoalaskana|Bidens sp.|Bidens tripartita|Blainvillea latifolia|Blighia welwitschii|Blumea obliqua|Boeremia exigua|Boeremia foveata|Boletinus paluster|Boltonia asteroides|Boronella koniambiensis|Boronia koniambiensis|Bosistoa selwynii|Bosistoa transversa|Botryosphaeria berengeriana|Bracteantha acuminata|Brassica oleracea var. sabauda|Brunfelsia grandiflora|Brunfelsia grandiflora D.DON|Bryophyllum calycinum|Bunium ferulaceum|Bunium incrassatum|Bunium pachypodum|Bupleurum fruticosum|Bupleurum salicifolium|Bursera simaruba|Bussea sakalava|Buxus bodinieri|Cacalia hastata L. (1753)|Calcarisporium thermophilum|Calceolaria thyrsiflora|Calea harleyi|Calendula officinalis|Calendula sp.|Callisia fragrans|Calophyllum thwaitesii|Caltha palustris|Calvatia lilacina|Calycanthus chinensis|Canarium album|Capsicum sp.|Caragana frutex|Caragana spinosa|Caralluma russeliana|Carapa guianensis|Carissa edulis|Carissa spinarum|Carpesium macrocephalum|Carpopeltis flabellata|Carum appuanum|Casearia graveolens|Casimiroa edulis|Cassia fistula|Castanea mollissima|Castanopsis eyrei|Catunaregam nilotica|Catunaregam obovata|Catunaregam spinosa|Ceanothus sanguineus|Celastrus monospermus|Centaurea affinis|Centaurea amanicola|Centaurea aspera|Centaurea besseriana|Centaurea collina|Centaurea cyanus|Centaurea jacea|Centaurea maculosa|Centaurea meyeriana|Centaurea phrygia|Centaurea pseudomaculosa|Centaurea pseudoscabiosa|Centaurea pseudoscabiosa subsp.pseudoscabiosa Boiss.et aBuhse|Centaurea ptosimopappoides|Centaurea scabiosa|Centaurea solstitialis|Centaurea spruneri|Centrosema haitense|Cephalanthus occidentalis|Ceratocystis fimbriata|Ceratocystis ips|Ceratozamia kuesteriana|Chaerophyllum hirsutum|Chamaecyparis pisifera|Chamaemelum nobile|Chamaemelum sp.|Chamomilla recutita|Cheilanthes chusana|Cheilanthes marantae|Cheimonophyllum candidissimum|Chenopodium murale|Cherry Orange|Chiliadenus candicans|Chiloscyphus rivularis|Chloranthus japonicus|Chloranthus serratus|Chondrodendron tomentosum|Chondrosia reniformis|Chorda filum|Choriaster granulatus|Chrysanthemum leucanthemum|Chrysanthemum sp.|Cicer arietinum|Cichorium sp.|Cicuta virosa|Cirsium canum|Cirsium japonicum|Cirsium rhinoceros|Cirsium setidens|Cistus laurifolius|Citropsis articulata|Citrullus lanatus|Citrus Sinensis|Citrus funadoko|Citrus grandis|Citrus japonica|Citrus maxima|Citrus medica|Citrus medica var. etrog|Citrus reticulata|Citrus sinensis cv.Valencia|Citrus unshiu|Citrus × deliciosa|Cladanthus arabicus|Clausena anisata|Clausena excavata|Cleidion Spiciflorum|Cleidion spiciflorum (Burm. f.) Merr.|Clematis terniflora var. mandshurica|Cleome brachycarpa|Clerodendrum bungei|Clitocybe diatreta|Cnidium dahuricum|Cnidium officinale|Cnidoscolus texanus|Coespeletia moritziana|Collariella gracilis|Commiphora africana|Conium maculatum|Conocarpus erectus|Conoideocrella luteorostrata|Conus mus|Conus tessulatus|Convolvulus arvensis|Convolvulus scammonia|Conyza bonariensis|Coprinopsis cinerea|Coprosma propinqua|Coprosma robusta|Coprosma rotundifolia|Coprosma tenuicaulis|Coptis trifolia|Coptis trifolia subsp. groenlandica|Cordia leucocephala|Coriandrum sp.|Coronilla elegans|Coronilla glauca|Coronilla scorpioides|Coronilla vaginalis|Coronilla varia|Coronilla viminalis|Cortex mori radicis praeparata|Cortinarius vinosipes|Corydalis gigantea|Corydalis persica|Corynanthe pachyceras|Cota tinctoria|Coussarea macrophylla|Crataegus pontica|Crella incrustans|Crepidotus fulvotomentosus|Cressa cretica|Crotalaria mysorensis|Crotalaria spectabilis|Croton draco|Croton draco Schltdl.& Cham.|Croton membranaceus|Croton sonderianus|Croton stellatopilosus|Cruciata laevipes|Cruciata taurica|Cryptocarya infectoria|Cunninghamia lanceolata var. konishii|Cupania cinerea|Curcuma mangga|Cydia flexiloqua|Cymbopogon schoenanthus|Cynara cornigera|Cynoglossum amabile|Cytisus angulatus|Cytisus austriacus|Daedalea juniperina|Dalbergia monetaria|Datura sp.|Datura stramonium|Delphinium hybridum|Dendrobium densiflorum|Dendrobium densiflorum Lindl.ex.Wall.|Dendrobium plicatile|Dendrodoris tuberculosa|Dendronephthya griffini|Dendrophorbium dolichodoryium|Dermocybe cardinalis|Dermolepida albohirtum|Diaporthe amygdali|Dichotomophthora lutea|Dictamnus albus|Dictamnus angustifolius|Dictamnus dasycarpus|Dictamnus gymnostylis|Dictamnus sp.|Dioscorea gracillima|Dioscorea spongiosa|Dioscorea villosa|Diospyros Maritima|Diospyros assimilis|Diospyros glaucifolia|Diospyros japonica|Diospyros kaki|Diospyros maritima|Diospyros virginiana|Diospyros wallichii|Diphasiastrum tristachyum|Diplospora dubia|Dipsacus fullonum|Dipterocarpus hasseltii|Distaplia stylifera|Dodonaea angustifolia|Dolabella californica|Dolichopentas longiflora|Dracaena cinnabari|Durio oxleyanus|Dysidea villosa|Dysosma delavayi|Dystaenia takesimana|Earias insulana|Echinacea purpurea|Echinaster echinophorus|Echinocereus cinerascens|Echinochloa esculenta|Echinocystis lobata|Echinopepon bigelovii|Echinosophora koreensis|Echinothrix diadema|Echium rubrum|Eichhornia crassipes|Ekebergia capensis|Elephantopus tomentosus|Eleutherococcus senticosus|Elsholtzia cristata|Embelia keniensis|Embelia parviflora|Embelia schimperi|Endospermum diadenum|Entada africana|Entada polystachya|Enterococcus faecium|Ephedra sinica|Epilobium hirsutum|Eria anomala|Erigeron breviscapus|Eriostemon crowei|Eriostemon tomentellus|Erycibe Obtusifolia|Erycibe obtusifolia|Erycibe schmidtii|Eryngium bourgatii|Eryngium dilatatum|Erysimum leptophyllum|Erythrina eriotriocha|Erythrina melanacantha|Erythroxylum passerinum|Esenbeckia hartmanii|Esenbeckia leiocarpa|Espeletiopsis purpurascens|Eucalyptus decorticans|Eucalyptus piperita|Eucalyptus radiata|Eucalyptus viminalis|Eupatorium lindleyanum|Euphorbia aleppica|Euphorbia bupleuroides|Euphorbia ferganensis|Euphorbia heteradena|Euphorbia hirsuta|Euphorbia hirta|Euphorbia humifusa|Euphorbia iberica|Euphorbia lagascae|Euphorbia maculata|Euphorbia micractina|Euphorbia nematocypha|Euphorbia nicaeensis|Euphorbia plumerioides|Euphorbia pubescens|Euphorbia resinifera|Euphorbia royleana|Euphorbia sp.|Eurycoma harmandiana|Eurycoma longifolia|Euryops algoensis|Euryops rupestris|Eutrochium purpureum|Evolvulus alsinoides|Excoecaria acerifolia|Exobasidium vaccinii|Fabiana imbricata|Fagara chalybea|Falcaria vulgaris|Faramea salicifolia|Fatoua pilosa|Fatoua villosa|Felicia amelloides|Ferula latipinna|Ferula linkii|Ficus auriculata|Ficus heteropleura|Ficus nervosa|Ficus pumila|Ficus sagittata|Ficus sp.|Firmiana simplex|Flavoparmelia caperata|Flemingia rhodocarpa|Flindersia bennettiana|Flourensia macrophylla|Flueggea microcarpa|Foeniculum sp.|Foeniculum vulgare|Forsythia x intermedia|Francoeuria undulata|Fraxinus chinensis|Fraxinus chinensis subsp. rhynchophylla|Fraxinus excelsior|Fraxinus japonica|Fraxinus longicuspis|Fraxinus ornus|Fraxinus pallisiae|Fraxinus sp.|Fraxinus stylosa|Fraxinus szaboana|Fructus mori|Fuligo candida|Fumaria indica|Galeopsis ladanum|Galeopsis pubescens|Galinsoga ciliata|Galinsoga quadriradiata|Galium album|Galium sp.|Garcinia afzelii|Garcinia brevipedicellata|Garcinia volkensii|Gardenia aubryi|Gardenia carinata|Gardenia jasminoides|Geigeria schinzii|Gelsemium elegans|Gelsemium sempervirens|Gelsemium sp.|Genista anglica|Gentiana strictiflora|Geotrichum candidum|Gerbera asplenifolia|Gibbaria ilicifolia|Givotia madagascariensis|Glebionis coronaria|Glebionis segetum|Glechoma longituba|Glehnia Littoralis|Glehnia littoralis|Glinus oppositifolius|Glycosmis pseudoracemosa|Glycyrrhiza Uralensis|Glycyrrhiza sp.|Glycyrrhiza uralensis|Gochnatia glutinosa|Gomortega keule|Gomphostemma crinitum|Goniothalamus undulatus|Gonospermum canariense|Gonospermum elegans|Gonospermum ferulaceum|Gonospermum fruticosum|Gonospermum gomerae|Gonospermum revolutum|Gossypium hirsutum|Grewia villosa|Grosvenoria rimbachii|Guarea guidonia|Guarea rhopalocarpa|Guarea rhophalocarpa|Gundelia tournefortii|Gymnocalycium schickendantzii|Gymnophyton isatidicarpum|Gymnosporia senegalensis|Gynochthodes officinalis|Haemanthus toxicarius|Haliclona tubifera|Haliclona valliculata|Haliclona vansoesti|Hansenia forbesii|Hansenia weberbaueriana|Haplopappus obtusifolium|Haplophyllum acutifolium|Haplophyllum bungei|Haplophyllum cappadocicum|Haplophyllum dauricum|Haplophyllum kowalenskyi|Haplophyllum obtusifolium|Haplophyllum patavinum|Haplophyllum ramosissimum|Haplophyllum villosum|Haplophyllum vulcanicum|Harrisonia perforata|Hedyotis Capitellata|Hedyotis capitellata|Helenium quadridentatum|Helianthus californicus|Helichrysum angustifolium|Helichrysum arenarium|Helichrysum italicum|Helichrysum maracandicum|Helichrysum stoechas|Helichrysum sutherlandii|Helichrysum tenuifolium|Helminthosporium victoriae|Hendersonula toruloidea|Heracleum granatense|Heracleum grandiflorum|Heracleum lanatum|Heracleum lehmannianum|Heracleum maximum|Heracleum pyrenaicum|Heracleum sp.|Heracleum yungningense|Herba artemisiae scopariae|Herba cichorii|Herba patriniae|Herniaria|Hesperocyparis lusitanica|Heteroplexis microcephala|Heterosigma akashiwo|Hevea brasiliensis|Hexaplex trunculus|Hibiscus Syriacus|Hibiscus syriacus|Hibiscus taiwanensis|Himalrandia tetrasperma|Holarrhena febrifuga|Hopea brevipetiolaris|Hordeum vulgare|Hortonia floribunda|Hosta sieboldiana|Houttuynia cordata|Humulus japonicus|Hygrophorus eburneus|Hymenodictyon excelsum|Hymenodictyon floribundum|Hymenodictyon orixense|Hymenoxys microcephala|Hypecoum imberbe|Hypericum carinatum|Hypericum styphelioides|Hyphear tanakae|Iberis sempervirens|Ilex canariensis|Ilex integra|Ilex pubescens var. glaber|Ilex pubescens var.glaber|Ilex taubertiana|Impatiens balsamina|Impatiens siculifer|Imperata cylindrica|Inula Helenium|Inula britannica|Inula grantioides|Inula helenium|Inula helenium L.|Inula salsoloides|Io fluvialis|Iostephane heterophylla|Iphiona grantioides|Ipomoea cairica|Ipomoea carnea|Ipomoea digitata|Ipomoea nil|Ipomoea orizabensis|Ipomoea sp.|Ipomopsis aggregata|Iris ensata|Isatis quadrialata|Isodon gesneroides|Isodon loxothyrsus|Ixora coccinea|Jacobaea cannabifolia|Jasione montana|Jerusalem artichoke|Juniperus ashei|Juniperus horizontalis|Juniperus rigida|Jurinea albicaulis|Jurinea maxima|Kalanchoe blossfeldiana|Keetia multiflora|Keiferia lycopersicella|Khaya Senegalensis|Khaya anthotheca|Khaya ivorensis|Khaya senegalensis|Khaya senegalensis L.|Kitagawia praeruptora|Kloeckera brevis|Kumquat|Kydia glabrescens|Lachnanthes tinctoria|Lactarius fuliginosus|Lactarius subpiperatus|Lactarius vellereus|Laetia corymbulosa|Lagerstroemia flos-reginae|Lamellodysidea chlorea|Lantana involucrata|Lathyrus tingitanus|Latrunculia magnifica|Layia carnosa|Layia chrysanthemoides|Layia glandulosa|Layia hieracioides|Layia platyglossa|Layia septentrionalis|Ledum decumbens|Leionema phylicifolium|Lemaireocereus longispinus|Lens culinaris|Leontice kiangnanensis|Lepidaploa sagraeana|Lepisanthes tetraphylla|Leucanthemum sp.|Leucopaxillus gentianeus|Libanothamnus occultus|Ligularia speciosa|Ligusticum sinense|Limnocitrus littoralis|Litsea elliptica|Litsea pungens|Litsea szemaois|Litsea verticillata|Lomatia hirsuta|Lonicera hypoleuca|Lophanthus chinensis|Lophiostoma vaginatispora|Lophocereus marginatus|Lophozia floerkei|Lupinus pilosus|Lycium Chinense|Lycium barbarum|Lycium barnarum|Lycium chinense|Lycium chinense var. potaninii|Lycium chinense var.potaninii|Lycium sp.|Lycogala epidendrum|Lycopodium sieboldii|Lyngbya semiplena|Lythrum salicaria|Macaranga Triloba|Macaranga barteri|Macaranga denticulata|Macaranga triloba|Machilus Thunbergii|Machilus odoratissima|Machilus thunbergii|Machilus zuihoensis|Macroptilium atropurpureum|Macrozamia riedlei|Maesa chisia|Magnolia biondii|Magnolia fraseri|Magnolia grandiflora|Magnolia kachirachirai|Maharanga bicolor|Mallotus apelta|Mallotus japonicus|Mallotus resinosus|Malva pucheina|Mammea africana|Mandevilla hirsuta|Mandevilla pavonii|Mandragora autumnalis|Mandragora officinarum|Manihot esculenta|Manoao colensoi|Marasmiellus ramealis|Mariscus psilostachys|Matayba arborescens|Matricaria aurea|Matricaria chamomilla|Maytenus blepharodes|Maytenus retusa|Medium grandiflorum|Meeboldia yunnanensis|Melaleuca decora|Melia azedarach|Melicope barbigera|Melilotus alba|Melilotus indicus|Melilotus messanensis|Melilotus siculus|Melilotus sp.|Mentha arvensis|Mentha canadensis|Mentzelia cordifolia|Mentzelia decapetala|Mentzelia sp.|Menyanthes trifoliata|Metacalypogeia alternifolia|Metrodorea nigra|Microliabum polymnioides|Micromelum Integerrimum|Micromelum integerrimum|Micromelum minutum|Microtoena prainiana|Mikania congesta|Mikania mendocina|Mikania microptera|Mikania rimachii|Millettia ichthyochtona|Millettia rubiginosa|Mimosa diplotricha|Mimosa pudica|Mitragyna africanus WILLD.|Mitragyna inermis|Modiolus auriculatus|Monanchora unguiculata|Mondia whitei|Monilinia fructicola|Monodora brevipes|Monomeria barbata|Monsonia senegalensis|Morella rubra|Morinda Citrifolia|Morinda citrifolia|Morinda coreia|Morinda sp.|Morus Alba|Morus alba|Morus cathayana|Morus mongolica|Mosla japonica|Muriceopsis flavida|Murraya Paniculata|Murraya exotica|Murraya gleniei|Murraya paniculata|Murraya paniculata var. exotica|Mycale rotalis|Mycetia nutans|Myriastra clavosa|Myriophyllum verticillatum|Myxococcus stipitatus|Naja kaouthia|Naja naja|Nama johnstonii|Nauclea orientalis|Nealchornea yapurensis|Nectandra gardneri|Nematolepis ovatifolia|Nemuaron humboldtii|Neopetrosia exigua|Nerium odorum|Nervilia purpurea|Nicotiana glauca|Nicotiana glutinosa|Nicotiana tabacum|Nierembergia aristata|Nierembergia hippomanica|Nierembergia linariifolia|Nocardia pseudobrasiliensis|Notechis scutatus|Nothapodytes nimmoniana|Nothospondias staudtii|Notonia grandiflora|Nuphar lutea|Ocimum kilimandscharicum|Oenanthe fistulosa|Olea capensis|Olea europaea|Olea exasperata|Olea sp.|Olea woodiana|Onobrychis kemularia|Onobrychis kemulariae|Onopordum acanthium|Ophiopholis aculeata|Ophiorrhiza kuroiwae|Ophiorrhiza liukiuensis|Ophryosporus charua|Ophryosporus piquerioides|Opuntia vulgaris|Oreocnide frutescens|Osteospermum hyoseroides|Osteospermum ilicifolium|Ostericum grosseserratum|Pachycereus pringlei|Pamburus missionis|Pancratium longiflorum|Pancratium sickenbergeri|Papaver radicatum|Paramignya griffithii|Parasenecio hastata|Parastrephia quadrangularis|Parmelia caraccensis|Parmelia pokornyi|Parmelia zollingeri|Parthenocissus tricuspidata|Passiflora morifolia|Passiflora sp.|Patrinia Scabiosaefolia|Patrinia scabiosaefolia|Patrinia scabiosifolia|Pedilanthus Tithymaloides|Pedilanthus tithymaloides|Pelargonium reniforme|Pelargonium sidoides|Peltostigma guatemalense|Penicillium alutaceum|Penicillium kapuscinskii|Perezia megalantha|Periploca sepium|Perymenium hintonii|Petasites georgicus|Petchia erythrocarpa|Peucedanum officinale|Peucedanum oroselinum|Peucedanum praeruptorum DUNN.|Phaseolus Vulgaris|Phaseolus vulgaris|Phebalium clavatum|Phebalium squamulosum|Phellodendron Amurense|Phellodendron amurense|Phellodendron amurense var. wilsonii|Phellodendron chinense var. glabriusculum|Phellodendron japonicum|Phellodendron japonicum MAXIM|Philotheca spicata|Phlojodicarpus sibiricus|Phlomoides medicinalis|Phoenix loureiroi|Phyllanthus angkorensis|Phyllanthus polyphyllus|Phyllanthus polyphyllus var.siamensis|Phyllanthus sellowianus|Physochlaina physaloides|Picea mariana|Picramnia latifolia|Picrasma sp.|Picris evae|Picrolemma|Pilocarpus grandiflorus|Pilocarpus riedelianus|Pimpinella anisum|Pimpinella sp.|Pinus glauca|Pinus massoniana|Piper hancei|Piper regnellii|Piptanthus concolor|Plagiomnium undulatum|Plakortis simplex|Planchonia grandis|Plathymenia reticulata|Platytaenia dasycarpa|Plectosphaerella cucumerina|Plectranthus caninus|Plectranthus hereroensis|Plectranthus nummularius|Pleione bulbocodioides|Pleuronectes cynoglossus|Plocamium violaceum|Plumeria|Plumeria obtusa|Plumeria rubra|Poa huecu|Podocarpus henckelii|Podocarpus montanus|Podocarpus philippinensis|Podosphaera fuliginea|Polyalthia suberosa|Polygala sabulosa|Polygala sellowiana|Polygonatum orientale|Polygonum Aviculare|Polygonum aviculare|Polygonum mite|Polygonum sp.|Polypodiodes formosana|Polypodium aureum|Polytolypa hystricis|Polytrichum commune|Poncirus trifoliata|Populus tremula|Porophyllum obscurum|Potentilla anserina|Potentilla argentea|Potentilla erecta|Potentilla sp.|Potentilla tormentilla|Prangos bucharica|Prangos ferulacea|Prangos tschimganica|Prangos uloptera|Prosopis kuntzei|Protium heptaphyllum|Protium tonkinense|Prunella vulgaris|Prunus domestica|Prunus persica|Prunus serotina|Psephellus integrifolius|Pseudonocardia autotrophica|Pseuduvaria indochinensis|Psiadia anchusifolia|Psychotria correae|Psydrax subcordatus|Pteridium esculentum|Pteris altissima|Pteris argentea|Pteris inaequalis|Pteris setuloso-costulata|Pteris spinulosa|Pterocaulon polystachyum|Pterocaulon virgatum|Pterospermum lanceaefolium|Pterospermum lanceifolium|Pulicaria arabica|Pulicaria burchardii|Quercus faginea|Quercus petraea|Quercus pyrenaica|Quercus robur|Quercus serra|Quercus suber|Rabdosia loxothyrsa|Radix rubiae|Ramonda myconi|Ranunculus sieboldii|Rauvolfia salicifolia|Relhania acerosa|Renealmia exaltata|Reseda luteola|Resupinatus leightonii|Rhinella marina|Rhizoplaca baranowii|Rhodiola coccinea|Rhodiola quadrifida|Rhododendron dauricum|Rhododendron diversipilosum|Rhododendron ferrugineum|Rhododendron groenlandicum|Rhododendron hypoleucum|Rhododendron luteum|Rhododendron micranthum|Rhododendron mucronulatum|Rhododendron spinuliferum|Rhododendron tomentosum|Rhodoglossum japonicum|Rhodopila globiformis|Rhus chinensis|Richardia brasiliensis|Ripariosida hermaphrodita|Roccellaria mollis|Roemeria carica|Rubia pubescens|Rubia tinctorum|Rubia wallichiana|Rubia wallichiana DECNE|Rubus adenotrichos|Rubus glaucus|Rubus occidentalis|Rubus phoenicolasius|Russula sardonia|Russula vesca|Ruta graveolens|Ruta montana|Salmonella enterica subsp. enterica serovar bovismorbificans|Salmonella enterica subsp. enterica serovar gallinarum|Salsola micranthera|Salta triflora|Salvia aerea|Salvia deserta|Salvia lasiantha|Salvia parryi|Salvia polystachya|Santolina oblongifolia|Santolina pinnata|Sapindus emarginatus|Sapium sp.|Saposhnikovia divaricata|Saposhnikovia divaricata Schischkin|Sarcandra glabra|Sargassum fusiforme|Sargassum macrocarpum|Sassafras albidum|Sassafras officinalis|Saussurea cordifolia|Saussurea gossypiphora|Saussurea involucrata|Saussurea laniceps|Saussurea lappa|Saussurea pulchella|Saussurea superba|Scaphopetalum thonneri|Scarlet firethorn|Schefflera divaricata|Schisandra arisanensis|Schleichera Oleosa|Schleichera oleosa|Schrebera swietenoides|Schumanniophyton magnificum|Schumanniophyton problematicum|Sclerodoris tanya|Scopolia carniolica|Scopolia japonica|Scopolia parviflora|Scopolia sinensis|Scorzonera divaricata|Scorzonera pseudodivaricata|Scorzonera virgata|Scutellaria galericulata|Securigera elegans|Securigera securidaca|Securigera varia|Sedum cepaea|Sedum lineare|Sedum purpureum|Selaginella pallescens|Semenovia dasycarpa|Senecio dolichodoryius|Senecio gilliesi|Senecio panduriformis|Senecio polyodon|Senecio trichopterygius|Senna|Senna multijuga|Senna sophera|Senra incana|Serratula wolffii|Seseli foliosum|Setosphaeria turcica|Shigella dysenteriae|Shorea pinanga|Sida Acuta|Sida acuta|Sida hermaphrodita|Sideritis perfoliata|Sideritis raeseri|Simaba orinocensis|Simarouba glauca|Simaroubaceae|Simira williamsii|Sinacalia tangutica|Sinodielsia yunnanensis|Sinularia inelegans|Siphonaria capensis|Sitotroga cerealella|Skimmia japonica|Skimmia laureola|Solanaceae|Solanum Indicum|Solanum aculeatum|Solanum aethiopicum|Solanum crispum|Solanum dasyphyllum|Solanum indicum|Solanum lyratum|Solanum nigrum|Solanum sp.|Solanum spirale|Solanum violaceum|Solanum virginianum|Sonchus acaulis|Sonchus arvensis|Sonchus asper|Sonchus bipontini|Sonchus bourgeaui|Sonchus brachylobus|Sonchus brachyotus|Sonchus canariensis|Sonchus capillaris|Sonchus congestus|Sonchus crassifolius|Sonchus fauces-orci|Sonchus fruticosus|Sonchus gandogeri|Sonchus gomerensis|Sonchus gummifer|Sonchus hierrensis|Sonchus hydrophilus|Sonchus lidii|Sonchus luxurians|Sonchus macrocarpus|Sonchus maritimus|Sonchus melanolepis|Sonchus microcarpus|Sonchus nanus|Sonchus oleraceus|Sonchus palmensis|Sonchus pinnatifidus|Sonchus pinnatus|Sonchus pitardii|Sonchus platylepis|Sonchus radicatus|Sonchus regis-jubae|Sonchus schweinfurthii|Sonchus tenerrimus|Sonchus ustulatus|Sophora davidii|Sophora flavescens|Sophora japonica|Sophora koreensis|Sophora leachiana|Sophora mollis|Soulamea fraxinifolia|Spilanthes acmella|Spiraea prunifolia|Spondias dulcis|Stauranthus perforatus|Stellera chamaejasme|Stellera sp.|Stenocereus thurberi|Sterculia sp.|Sterculia urens|Stomozoa murrayi|Streptomyces chryseus|Streptomyces flaveus|Streptomyces fulvoviridis|Streptomyces globisporus|Streptomyces griseocarneus|Streptomyces griseus|Streptomyces incarnatus|Streptomyces olivaceus|Streptomyces rimosus|Streptomyces sp. G278|Streptomyces sulfonofaciens|Streptomyces tateyamensis|Streptomyces xanthochromogenes|Streptopelia orientalis|Strophanthus thollonii|Strychnos spinosa|Swietenia macrophylla|Synurus excelsus|Syringa reticulata subsp. amurensis|Syzygium polycephaloides|Tagetes lucida|Takifugu rubripes|Talipariti tiliaceum|Tamilnadia uliginosa|Tanacetopsis mucronata|Tanacetum nubigenum|Tanacetum parthenium|Tanacetum sp.|Tanacetum vulgare|Taraxacum mongolicum|Tarenna attenuata|Tecoma heptaphylla|Tedania anhelans|Tenebrio molitor|Tephroseris flammea|Tephrosia bidwilli|Tetradium glabrifolium|Tetragonotheca repanda|Tetrapleura tetraptera|Teucrium pernyi|Thalictrum longistylum|Theonella conica|Thermus thermophilus|Thielavia terricola|Thiocystis gelatinosa|Tithonia rotundifolia|Todaroa aurea|Tolpis webbii|Toona ciliata|Toona sinensis|Torricellia tiliifolia|Trema orientale|Trewia nudiflora|Triadica sebifera|Tricalysia dubia|Trichilia|Tricholoma batschii|Tricholoma columbetta|Trichomanes reniforme|Trifoliate orange|Trifolium montanum|Trifolium pratense|Trigonella foenum|Trigonella foenum-graecum|Trigonella sp.|Trigonostemon Reidioides|Trigonostemon reidioides|Turpinia ternata|Ulmus parvifolia|Uncaria Sinensis|Uncaria kawakamii|Uncaria sinensis|Urbanodendron verrucosum|Urceola rosea|Urceolaria bryophila|Ursinia anthemoides|Urtica dioica|Urtica sp.|Vahlia capensis|Vatica pauciflora|Vellozia nanuzae|Venus casina|Vepris soyauxii|Vernonia chinensis|Vernonia fagifolia|Vernonia lilacina|Vernonia mollissima|Viburnum sp.|Viburnum urceolatum|Vicia abbreviata|Vicia sativa|Vicia truncatula|Vigna Radiata|Vigna radiata|Viguiera oblongifolia|Vincetoxicum hemsleyanum|Viola mandshurica|Viola philippica|Viola yedoensis|Virola sebifera|Virola venosa|Viscum coloratum|Vitex limonifolia|Vitex negundo|Vitis vinifera|Volkameria inermis|Weigela subsessilis|Wendlandia tinctoria|Withania frutescens|Withania somnifera|Xanthium sibiricum|Xanthium strumarium|Xanthoparmelia pokornyi|Xanthoria parietina|Xenia viridis|Xenophyllum ciliolatum|Xenophyllum dactylophyllum|Xerochrysum bracteatum|Xerochrysum subundulatum|Xerula melanotricha|Xyris pterygoblephara|Zanthoxylum ailanthoides|Zanthoxylum avicennae|Zanthoxylum chiloperone|Zanthoxylum fagara|Zanthoxylum gilletii|Zanthoxylum integrifoliolum|Zanthoxylum integrifolium|Zanthoxylum nitidum|Zanthoxylum rhoifolium|Zanthoxylum schinifolium|Zanthoxylum simulans|Zanthoxylum sp.|Zanthoxylum spinosum|Zanthoxylum zanthoxyloides|Ziziphus jujuba|[polyangium] brachysporum|common myrtle|common sunflower|garden chervil|pomelo|potato|solanum violaceum|soybean|sweet potato|tarragon

>  <collections>  (1564) 
ANPDB|AfroCancer|AfroDB|AnalytiCon Discovery NPs|Australian natural products|BIOFACQUIM|CMAUP (cCollective molecular activities of useful plants)|ChEBI NPs|ChemSpider NPs|EMNPD|ETM (Ethiopian Traditional Medicine) DB|FooDB|GNPS (Global Natural Products Social Molecular Networking)|HIM (Herbal Ingredients in-vivo Metabolism database)|InPACdb|InflamNat|KNApSaCK|Latin America dataset|Mitishamba database|NANPDB (Natural Products from Northern African Sources)|NAPRORE-CR|NPACT|NPASS|NPCARE|NPEdia|NuBBEDB|Phenol-explorer|Phyto4Health|PhytoLab phyproof® Reference Substances|PubChem NPs|ReSpect|SANCDB|Specs Natural Products|StreptomeDB|Super Natural II|TCMDB-Taiwan (Traditional Chinese Medicine database)|TCMID (Traditional Chinese Medicine Integrated Database)|TIPdb (database of Taiwan indigenous plants)|UNPD (Universal Natural Products Database)|VietHerb|Watermelon|WikiData Natural Products|p-ANAPL

>  <dois>  (1564) 
10.1002/(SICI)1099-1573(199603)10:2<161::AID-PTR803>3.0.CO;2-B|10.1002/(SICI)1099-1573(199803)12:2<118::AID-PTR207>3.0.CO;2-U|10.1002/(SICI)1521-4168(19990401)22:4<222::AID-JHRC222>3.0.CO;2-6|10.1002/1521-4184(200208)335:6<267::AID-ARDP267>3.0.CO;2-E|10.1002/ARDP.18852231902|10.1002/ARDP.18882260503|10.1002/ARDP.18992370102|10.1002/CBDV.200900227|10.1002/CBDV.200900326|10.1002/CBDV.201000324|10.1002/CBER.18760090248|10.1002/CBER.19610941202|10.1002/CBER.19610941204|10.1002/CBER.19610941205|10.1002/CHIN.198539190|10.1002/CHIN.199516211|10.1002/CHIN.199848194|10.1002/CHIN.200305197|10.1002/CHIN.200322269|10.1002/CHIN.200323173|10.1002/CHIN.200352211|10.1002/CHIN.200401163|10.1002/CHIN.200403232|10.1002/CHIN.200412205|10.1002/CHIN.200424160|10.1002/CHIN.200434217|10.1002/CHIN.200441208|10.1002/CHIN.200517192|10.1002/CHIN.200533256|10.1002/CHIN.200612184|10.1002/CHIN.200612187|10.1002/CHIN.200701211|10.1002/CHIN.200844208|10.1002/HLCA.200800275|10.1002/HLCA.200890203|10.1002/HLCA.201100286|10.1002/JCCS.199400032|10.1002/JCCS.199500018|10.1002/JCCS.199500128|10.1002/JCCS.200100154|10.1002/JCCS.200300024|10.1002/JCCS.200300178|10.1002/JLAC.198619861208|10.1002/JPS.2600650628|10.1002/JPS.2600680236|10.1002/JSSC.200500003|10.1002/MRC.1613|10.1002/PCA.2800040103|10.1002/PCA.2800040207|10.1002/PTR.2650040510|10.1002/PTR.2650090313|10.1002/RECL.18840030602|10.1002/jsfa.2740101006|10.1006/ANBO.2000.1285|10.1006/PHRS.1993.1052|10.1006/PMPP.1995.1053|10.1007/BF00199750|10.1007/BF00563357|10.1007/BF00563460|10.1007/BF00563908|10.1007/BF00563973|10.1007/BF00564311|10.1007/BF00564344|10.1007/BF00564480|10.1007/BF00564972|10.1007/BF00564977|10.1007/BF00564986|10.1007/BF00565356|10.1007/BF00565846|10.1007/BF00565847|10.1007/BF00566073|10.1007/BF00566805|10.1007/BF00567040|10.1007/BF00567323|10.1007/BF00568231|10.1007/BF00568428|10.1007/BF00570201|10.1007/BF00570685|10.1007/BF00571230|10.1007/BF00574388|10.1007/BF00574599|10.1007/BF00575056|10.1007/BF00575186|10.1007/BF00575191|10.1007/BF00575207|10.1007/BF00575725|10.1007/BF00577182|10.1007/BF00577208|10.1007/BF00577216|10.1007/BF00579069|10.1007/BF00579153|10.1007/BF00579166|10.1007/BF00579441|10.1007/BF00579491|10.1007/BF00579492|10.1007/BF00579493|10.1007/BF00579494|10.1007/BF00579656|10.1007/BF00579679|10.1007/BF00579781|10.1007/BF00579782|10.1007/BF00579783|10.1007/BF00579802|10.1007/BF00579835|10.1007/BF00579977|10.1007/BF00579978|10.1007/BF00580572|10.1007/BF00580908|10.1007/BF00595081|10.1007/BF00595084|10.1007/BF00596693|10.1007/BF00597591|10.1007/BF00597728|10.1007/BF00598091|10.1007/BF00598313|10.1007/BF00598365|10.1007/BF00598366|10.1007/BF00598601|10.1007/BF00598775|10.1007/BF00598776|10.1007/BF00600846|10.1007/BF00600851|10.1007/BF00607552|10.1007/BF00607563|10.1007/BF00629808|10.1007/BF00629809|10.1007/BF00629945|10.1007/BF00629946|10.1007/BF00630089|10.1007/BF00630189|10.1007/BF00630191|10.1007/BF00630446|10.1007/BF00630665|10.1007/BF00630671|10.1007/BF00638768|10.1007/BF00646585|10.1007/BF00683855|10.1007/BF00941698|10.1007/BF00993733|10.1007/BF01100682|10.1007/BF02059594|10.1007/BF02249699|10.1007/BF02968244|10.1007/BF02974002|10.1007/BF02974274|10.1007/BF02975132|10.1007/BF02975261|10.1007/BF02976556|10.1007/BF02976657|10.1007/BF02976704|10.1007/BF02978826|10.1007/S00425-017-2718-4|10.1007/S00706-002-0500-0|10.1007/S10600-005-0219-3|10.1007/S10600-007-0232-9|10.1007/S10600-008-9114-Z|10.1007/S10600-009-9174-8|10.1007/S10600-009-9246-9|10.1007/S10600-009-9289-Y|10.1007/S10600-009-9388-9|10.1007/S10600-009-9410-2|10.1007/S10600-010-9477-9|10.1007/S10600-010-9512-X|10.1007/S10600-010-9596-3|10.1007/S10600-010-9649-7|10.1007/S10600-010-9659-5|10.1007/S10600-010-9752-9|10.1007/S10600-011-0068-1|10.1007/S10600-011-0084-1|10.1007/S10600-011-9852-1|10.1007/S10600-012-0124-5|10.1007/S10600-015-1336-2|10.1007/S10600-015-1519-X|10.1007/S11240-012-0199-5|10.1007/S11418-008-0248-X|10.1007/S11418-009-0385-X|10.1007/S11418-010-0450-5|10.1007/S12272-010-0904-Z|10.1007/S12272-011-0402-Y|10.1007/S13659-014-0041-3|10.1007/SPRINGERREFERENCE_69384|10.1016/0003-9861(65)90017-2|10.1016/0021-9673(93)80301-N|10.1016/0031-9422(75)83134-7|10.1016/0031-9422(75)85267-8|10.1016/0031-9422(80)83018-4|10.1016/0031-9422(80)85141-7|10.1016/0031-9422(82)85180-7|10.1016/0031-9422(82)85259-X|10.1016/0031-9422(83)80032-6|10.1016/0031-9422(83)83031-3|10.1016/0031-9422(84)83056-3|10.1016/0031-9422(85)80044-3|10.1016/0031-9422(86)80021-8|10.1016/0031-9422(88)80681-2|10.1016/0031-9422(88)80767-2|10.1016/0031-9422(88)83146-7|10.1016/0031-9422(89)80054-8|10.1016/0031-9422(89)80290-0|10.1016/0031-9422(89)80295-X|10.1016/0031-9422(89)80402-9|10.1016/0031-9422(89)85066-6|10.1016/0031-9422(90)83068-C|10.1016/0031-9422(90)85357-L|10.1016/0031-9422(90)87129-I|10.1016/0031-9422(90)89036-9|10.1016/0031-9422(90)89063-F|10.1016/0031-9422(91)80014-R|10.1016/0031-9422(91)83229-E|10.1016/0031-9422(91)83500-K|10.1016/0031-9422(91)83506-G|10.1016/0031-9422(91)83614-Q|10.1016/0031-9422(91)83643-Y|10.1016/0031-9422(91)84139-J|10.1016/0031-9422(91)84145-I|10.1016/0031-9422(91)85044-Z|10.1016/0031-9422(92)80108-Q|10.1016/0031-9422(92)80175-E|10.1016/0031-9422(92)80458-Q|10.1016/0031-9422(92)83157-T|10.1016/0031-9422(92)83302-F|10.1016/0031-9422(92)83309-M|10.1016/0031-9422(92)83450-D|10.1016/0031-9422(92)83494-J|10.1016/0031-9422(92)83646-G|10.1016/0031-9422(92)83652-F|10.1016/0031-9422(92)83667-N|10.1016/0031-9422(92)90044-Q|10.1016/0031-9422(92)90056-V|10.1016/0031-9422(92)90073-Y|10.1016/0031-9422(93)80055-W|10.1016/0031-9422(93)85041-O|10.1016/0031-9422(93)85057-X|10.1016/0031-9422(93)85291-X|10.1016/0031-9422(93)85365-X|10.1016/0031-9422(93)85383-3|10.1016/0031-9422(93)85478-A|10.1016/0031-9422(94)00689-Q|10.1016/0031-9422(94)00710-B|10.1016/0031-9422(94)00901-5|10.1016/0031-9422(94)85045-3|10.1016/0031-9422(94)85083-6|10.1016/0031-9422(94)85100-X|10.1016/0031-9422(95)00093-3|10.1016/0031-9422(95)00166-5|10.1016/0031-9422(95)00418-7|10.1016/0031-9422(95)00472-J|10.1016/0031-9422(95)00504-Z|10.1016/0031-9422(95)00691-5|10.1016/0031-9422(95)00731-8|10.1016/0031-9422(95)00749-0|10.1016/0031-9422(95)00889-6|10.1016/0031-9422(96)00062-3|10.1016/0031-9422(96)00212-9|10.1016/0031-9422(96)00325-1|10.1016/0031-9422(96)00352-4|10.1016/0098-8472(86)90054-7|10.1016/0305-1978(88)90045-2|10.1016/0305-1978(88)90078-6|10.1016/0305-1978(92)90072-L|10.1016/0305-1978(94)90049-3|10.1016/0305-1978(94)90107-4|10.1016/0378-8741(88)90058-X|10.1016/0378-8741(88)90069-4|10.1016/J.ARABJC.2011.01.022|10.1016/J.BMC.2003.11.017|10.1016/J.BMC.2005.09.012|10.1016/J.BMC.2011.03.055|10.1016/J.BMCL.2010.10.058|10.1016/J.BMCL.2013.02.060|10.1016/J.BMCL.2014.03.014|10.1016/J.CHMED.2022.08.010|10.1016/J.CLPT.2004.08.023|10.1016/J.FITOTE.2004.05.008|10.1016/J.FITOTE.2006.07.004|10.1016/J.FITOTE.2009.06.001|10.1016/J.FITOTE.2009.09.003|10.1016/J.FITOTE.2010.01.016|10.1016/J.FITOTE.2010.05.008|10.1016/J.FITOTE.2011.11.015|10.1016/J.FOODCHEM.2009.09.093|10.1016/J.FOODCHEM.2010.09.069|10.1016/J.JEP.2007.05.015|10.1016/J.JEP.2010.01.042|10.1016/J.JEP.2010.12.004|10.1016/J.PHYMED.2006.11.021|10.1016/J.PHYTOCHEM.2003.10.026|10.1016/J.PHYTOCHEM.2004.08.002|10.1016/J.PHYTOCHEM.2004.08.009|10.1016/J.PHYTOCHEM.2004.11.012|10.1016/J.PHYTOCHEM.2005.02.023|10.1016/J.PHYTOCHEM.2005.07.016|10.1016/J.PHYTOCHEM.2005.09.025|10.1016/J.PHYTOCHEM.2005.11.006|10.1016/J.PHYTOCHEM.2006.03.024|10.1016/J.PHYTOCHEM.2007.05.001|10.1016/J.PHYTOCHEM.2007.05.016|10.1016/J.PHYTOCHEM.2009.02.009|10.1016/J.PHYTOCHEM.2009.12.016|10.1016/J.PHYTOL.2010.08.001|10.1016/J.PHYTOL.2014.09.011|10.1016/S0021-9673(01)00513-1|10.1016/S0021-9673(01)84214-X|10.1016/S0021-9673(01)88918-4|10.1016/S0021-9673(01)97678-2|10.1016/S0031-9422(00)00298-3|10.1016/S0031-9422(00)00310-1|10.1016/S0031-9422(00)80354-4|10.1016/S0031-9422(00)80417-3|10.1016/S0031-9422(00)80483-5|10.1016/S0031-9422(00)80622-6|10.1016/S0031-9422(00)80792-X|10.1016/S0031-9422(00)81695-7|10.1016/S0031-9422(00)81759-8|10.1016/S0031-9422(00)82228-1|10.1016/S0031-9422(00)82547-9|10.1016/S0031-9422(00)82580-7|10.1016/S0031-9422(00)82903-9|10.1016/S0031-9422(00)83142-8|10.1016/S0031-9422(00)83171-4|10.1016/S0031-9422(00)83456-1|10.1016/S0031-9422(00)83805-4|10.1016/S0031-9422(00)83891-1|10.1016/S0031-9422(00)84036-4|10.1016/S0031-9422(00)84643-9|10.1016/S0031-9422(00)84791-3|10.1016/S0031-9422(00)85005-0|10.1016/S0031-9422(00)85199-7|10.1016/S0031-9422(00)85324-8|10.1016/S0031-9422(00)85519-3|10.1016/S0031-9422(00)85740-4|10.1016/S0031-9422(00)86899-5|10.1016/S0031-9422(00)86976-9|10.1016/S0031-9422(00)88402-2|10.1016/S0031-9422(00)88544-1|10.1016/S0031-9422(00)88808-1|10.1016/S0031-9422(00)89373-5|10.1016/S0031-9422(00)89738-1|10.1016/S0031-9422(00)89780-0|10.1016/S0031-9422(00)89801-5|10.1016/S0031-9422(00)90455-2|10.1016/S0031-9422(00)90477-1|10.1016/S0031-9422(00)94177-3|10.1016/S0031-9422(00)94221-3|10.1016/S0031-9422(00)94505-9|10.1016/S0031-9422(00)94801-5|10.1016/S0031-9422(00)95013-1|10.1016/S0031-9422(00)97039-0|10.1016/S0031-9422(00)97480-6|10.1016/S0031-9422(00)97490-9|10.1016/S0031-9422(00)97791-4|10.1016/S0031-9422(00)97880-4|10.1016/S0031-9422(00)97993-7|10.1016/S0031-9422(01)00168-6|10.1016/S0031-9422(01)00171-6|10.1016/S0031-9422(01)00235-7|10.1016/S0031-9422(01)00273-4|10.1016/S0031-9422(01)00471-X|10.1016/S0031-9422(02)00229-7|10.1016/S0031-9422(02)00268-6|10.1016/S0031-9422(02)00616-7|10.1016/S0031-9422(03)00294-2|10.1016/S0031-9422(96)00571-7|10.1016/S0031-9422(96)00720-0|10.1016/S0031-9422(97)00036-8|10.1016/S0031-9422(97)00309-9|10.1016/S0031-9422(97)01036-4|10.1016/S0031-9422(97)89023-1|10.1016/S0031-9422(98)00020-X|10.1016/S0031-9422(98)00180-0|10.1016/S0031-9422(98)00234-9|10.1016/S0031-9422(98)00247-7|10.1016/S0031-9422(98)00356-2|10.1016/S0031-9422(98)00519-6|10.1016/S0031-9422(98)00607-4|10.1016/S0031-9422(99)00038-2|10.1016/S0031-9422(99)00169-7|10.1016/S0039-9140(01)00327-7|10.1016/S0040-4020(01)80874-7|10.1016/S0040-4020(01)90430-2|10.1016/S0040-4020(01)99319-6|10.1016/S0040-4020(02)00296-X|10.1016/S0040-4039(00)70731-3|10.1016/S0176-1617(85)80225-X|10.1016/S0305-1978(01)00023-0|10.1016/S0305-1978(01)00130-2|10.1016/S0305-1978(02)00086-8|10.1016/S0305-1978(97)00006-9|10.1016/S0305-1978(97)00128-2|10.1016/S0305-1978(99)00026-5|10.1016/S0305-1978(99)00064-2|10.1016/S0378-8741(97)00048-2|10.1016/S0378-8741(99)00017-3|10.1016/S0731-7085(00)00404-0|10.1016/S0968-0896(00)00225-X|10.1016/S1875-5364(12)60009-0|10.1016/j.bmc.2017.12.011|10.1016/j.bmcl.2010.10.058|10.1016/j.bmcl.2013.02.060|10.1016/j.jep.2007.05.015|10.1016/j.lfs.2006.06.045|10.1016/j.phytol.2010.08.001|10.1021/JF00100A013|10.1021/JF00116A072|10.1021/JF0482461|10.1021/JF053071W|10.1021/JF060672U|10.1021/JF60194A049|10.1021/JF60218A018|10.1021/JF9502461|10.1021/JF960486W|10.1021/JF970863K|10.1021/NP0100946|10.1021/NP010186V|10.1021/NP0104469|10.1021/NP020110E|10.1021/NP020351M|10.1021/NP020390Y|10.1021/NP030034V|10.1021/NP030066I|10.1021/NP030479J|10.1021/NP030479J.S001|10.1021/NP040027M|10.1021/NP040027M.S001|10.1021/NP040046W|10.1021/NP040129C|10.1021/NP040187Y|10.1021/NP0496845|10.1021/NP050001A|10.1021/NP050013W|10.1021/NP0500171|10.1021/NP050383K|10.1021/NP050447R|10.1021/NP060428X|10.1021/NP0605539|10.1021/NP0605539.S001|10.1021/NP070013R|10.1021/NP070076+|10.1021/NP070501Z|10.1021/NP070594K|10.1021/NP100415M|10.1021/NP100778K|10.1021/NP3007588|10.1021/NP400701K|10.1021/NP50003A005|10.1021/NP50005A016|10.1021/NP50008A007|10.1021/NP50015A016|10.1021/NP50021A026|10.1021/NP50023A005|10.1021/NP50023A029|10.1021/NP50026A016|10.1021/NP50027A018|10.1021/NP50031A014|10.1021/NP50032A011|10.1021/NP50037A033|10.1021/NP50039A025|10.1021/NP50044A017|10.1021/NP50044A031|10.1021/NP50044A042|10.1021/NP50045A025|10.1021/NP50046A035|10.1021/NP50047A044|10.1021/NP50048A057|10.1021/NP50050A012|10.1021/NP50052A045|10.1021/NP50054A027|10.1021/NP50055A026|10.1021/NP50056A018|10.1021/NP50059A024|10.1021/NP50060A015|10.1021/NP50083A023|10.1021/NP50086A022|10.1021/NP50090A004|10.1021/NP50090A006|10.1021/NP50109A015|10.1021/NP50113A012|10.1021/NP50117A014|10.1021/NP50120A005|10.1021/NP50120A010|10.1021/NP8004634|10.1021/NP800474V|10.1021/NP800643N|10.1021/NP900144C|10.1021/NP900213W|10.1021/NP900305J|10.1021/NP960422F|10.1021/NP970163+|10.1021/NP9804278|10.1021/NP9804637|10.1021/NP980471N|10.1021/NP980576Q|10.1021/OL062854F|10.1021/np0100946|10.1021/np040046w|10.1021/np040129c|10.1021/np100415m|10.1021/np100778k|10.1021/np300824h|10.1021/np50056a018|10.1021/np8004634|10.1021/np900144c|10.1021/np900305j|10.1021/np960422f|10.1021/np980471n|10.1023/B:CONC.0000033925.00693.7B|10.1039/CT9120100001|10.1039/J39670002593|10.1039/P19740001350|10.1039/P19760001789|10.1039/P19900001593|10.1042/BJ0211010|10.1055/S-0028-1084416|10.1055/S-0028-1097592|10.1055/S-0028-1097913|10.1055/S-0028-1099601|10.1055/S-0029-1240611|10.1055/S-0031-1273555|10.1055/S-0031-1282668|10.1055/S-1999-14014|10.1055/S-2001-17365|10.1055/S-2001-18355|10.1055/S-2002-32899|10.1055/S-2003-38875|10.1055/S-2005-837789|10.1055/S-2005-864103|10.1055/S-2005-873169|10.1055/S-2005-873201|10.1055/S-2006-931604|10.1055/S-2006-947165|10.1055/S-2006-957375|10.1055/S-2006-957431|10.1055/S-2006-957583|10.1055/S-2006-957688|10.1055/S-2006-957714|10.1055/S-2006-957738|10.1055/S-2006-957741|10.1055/S-2006-957793|10.1055/S-2006-957919|10.1055/S-2006-958106|10.1055/S-2006-959423|10.1055/S-2006-959436|10.1055/S-2006-959515|10.1055/S-2006-959644|10.1055/S-2006-959736|10.1055/S-2006-960092|10.1055/S-2006-960786|10.1055/S-2006-960819|10.1055/S-2006-960867|10.1055/S-2006-961380|10.1055/S-2006-961634|10.1055/S-2006-962183|10.1055/S-2006-962500|10.1055/S-2006-962751|10.1055/S-2006-962780|10.1055/S-2006-962794|10.1055/S-2007-967165|10.1055/S-2007-969446|10.1055/S-2007-969587|10.1055/S-2007-969766|10.1055/S-2007-969809|10.1055/S-2007-969824|10.1055/S-2007-990226|10.1055/S-2008-1034372|10.1055/S-2008-1074910|10.1071/CH02151|10.1076/PHBI.34.2.114.13188|10.1076/PHBI.36.5.362.4654|10.1076/PHBI.37.1.28.6327|10.1076/PHBI.37.5.351.6057|10.1076/PHBI.39.3.202.5930|10.1078/0176-1617-00230|10.1080/00021369.1984.10866207|10.1080/00021369.1985.10866891|10.1080/01483919008049590|10.1080/08923973.2016.1203929|10.1080/10286020.2011.586343|10.1080/10286020290028992|10.1080/1028602042000325591|10.1080/10286020903451757|10.1080/10575639408043929|10.1080/10575639808041210|10.1080/10826079508009247|10.1080/13880200500220268|10.1080/14786410600761235|10.1080/14786410802228439|10.1080/14786411003754223|10.1080/14786419.2010.508038|10.1080/14786419.2010.539182|10.1080/14786419.2018.1468331|10.1086/325638|10.1093/JEXBOT/52.364.2227|10.1093/pcp/pcn183|10.1107/s1600536810029296|10.1111/J.1399-6576.1996.TB04434.X|10.1128/AEM.46.2.468-474.1983|10.1128/aem.46.2.468-474.1983|10.1135/CCCC19940913|10.1139/V10-084|10.1201/9780203022320.CH4|10.1201/B10413-17|10.1211/002235702919|10.1211/JPP.58.1.0013|10.1248/BPB.25.505|10.1248/BPB.25.658|10.1248/BPB.28.1095|10.1248/BPB.30.1164|10.1248/BPB.30.1340|10.1248/CPB.28.1782|10.1248/CPB.28.1847|10.1248/CPB.29.2565|10.1248/CPB.30.4518|10.1248/CPB.33.396|10.1248/CPB.33.4069|10.1248/CPB.35.4277|10.1248/CPB.36.769|10.1248/CPB.37.119|10.1248/CPB.38.698|10.1248/CPB.39.3346|10.1248/CPB.40.1504|10.1248/CPB.43.1385|10.1248/CPB.44.1656|10.1248/CPB.46.1189|10.1248/CPB.47.96|10.1248/CPB.49.1356|10.1248/CPB.49.151|10.1248/CPB.49.154|10.1248/CPB.49.877|10.1248/CPB.50.73|10.1248/CPB.51.1211|10.1248/CPB.51.499|10.1248/CPB.51.62|10.1248/CPB.51.948|10.1248/CPB.52.359|10.1248/CPB.52.916|10.1248/CPB.53.1118|10.1248/CPB.53.1321|10.1248/CPB.53.1355|10.1248/CPB.53.56|10.1248/CPB.53.701|10.1248/CPB.54.1063|10.1248/CPB.54.1308|10.1248/CPB.56.1349|10.1248/CPB.56.1466|10.1248/CPB.56.1710|10.1248/CPB.56.839|10.1248/CPB.56.93|10.1248/YAKUSHI1947.104.7_753|10.1248/YAKUSHI1947.107.6_435|10.1271/BBB.68.1837|10.1271/BBB.68.942|10.1351/PAC198658050653|10.1515/ZNB-2005-0715|10.1515/ZNC-1986-11-1215|10.1515/ZNC-1995-5-604|10.15359/ru.37-1.17|10.15517/rbt.v56i3.5691|10.1590/S0100-40422012001100006|10.1590/S0102-695X2008000100002|10.1590/S0102-695X2008000300010|10.1590/S0103-50531997000300009|10.1590/S0103-50532003000300021|10.1590/S0103-50532010000600023|10.1590/S0103-50532011000100024|10.20396/CONEX.V7I3.8637771|10.21608/ZJPS.1996.185015|10.2298/JSC100127008C|10.3109/08958378.2013.878005|10.3109/13880208509069005|10.3109/13880208709060904|10.3109/13880208809053916|10.3109/13880208909116901|10.3109/13880209509065394|10.32861/JBR.66.57.61|10.3390/MOLECULES14010573|10.3390/MOLECULES14020850|10.3390/MOLECULES14062049|10.3390/MOLECULES15042178|10.3390/MOLECULES16032268|10.3724/SP.J.1009.2010.00192|10.3987/COM-03-9882|10.3987/COM-05-10429|10.3987/COM-07-11291|10.3987/COM-88-4771|10.3987/COM-89-4998|10.3987/COM-89-5100|10.3987/COM-95-7310|10.3987/COM-95-7348|10.3987/COM-98-S12|10.3987/R-1986-11-3163|10.4268/CJCMM20102314|10.4268/CJCMM20111111|10.4268/CJCMM20141227|10.4268/CJCMM20141334|10.4268/CJCMM20142423|10.5012/JKCS.2010.54.6.701|10.5650/JOS1996.45.671|10.5650/JOS1996.46.1399

>  <synonyms>  (1564) 
|0B4B9FAA-686D-4977-AA08-65F8E4F1977C|1ST40126|2H-1-Benzopyran-2-one, 7-hydroxy-6-methoxy-|5-18-03-00203 (Beilstein Handbook Reference)|6-Methoxy-7-hydroxycoumarin|6-Methoxyumbelliferone|6-Methylesculetin|6-O-methylesculetin|6-methoxy-7-oxidanyl-chromen-2-one|7-Hydroxy 6-methoxycoumarin|7-Hydroxy-6-methoxy-2H-1-benzopyran-2-one|7-Hydroxy-6-methoxy-2H-chromen-2-one|7-Hydroxy-6-methoxycoumarin|7-hydroxy 6-methoxy coumarine|92-61-5|A844290|AB00443525|AC-34125|ACon1_000143|AKOS000277133|AS-65759|Acid, Chrysotropic|Acid, Gelseminic|BCP13342|BDBM50156693|BIDD:PXR0125|BPBio1_001061|BRD-K96163925-001-06-5|BRN 0156296|BSPBio_000963|BSPBio_002944|Baogongteng B|Buxuletin|C01752|CAS-92-61-5|CCG-39140|CCRIS 3592|CHEBI:17488|CHEMBL71851|COPOLETIN|COUMARIN, 7-HYDROXY-6-METHOXY-|CS-5791|Chrysatropic acid|Chrysotropic Acid|DB-050232|DTXCID5048766|DTXSID0075368|DivK1c_000720|EINECS 202-171-9|Escopoletin|Escopoletina|Esculetin 6-methyl ether|Gelseminic acid|Gelseminic acid;Chrysatropic acid|HMS1571A05|HMS1921N16|HMS2098A05|HMS2268G04|HMS3885K10|HMS502D22|HY-N0342|IDI1_000720|KBio1_000720|KBio3_002444|KBioGR_001348|KLF1HS0SXJ|MEGxp0_001192|MFCD00006872|MLS002154074|MLS002472878|Murrayetin|NCGC00016349-01|NCGC00094973-01|NCI60_003834|NINDS_000720|NS00007731|NSC 405647|Prestwick0_000962|Q2472366|S-2000|S0367|SCHEMBL147702|SCOPOLETIN (CONSTITUENT OF STINGING NETTLE)|SCOPOLETIN (USP-RS)|SCOPOLETIN [MI]|SCOPOLETIN [USP-RS]|SMR000112541|SPBio_000994|SPBio_002884|SPECTRUM1502242|SR-01000841273|STL570289|Scopoletin, >=99%|Scopoletin, United States Pharmacopeia (USP) Reference Standard|Scopoletin, analytical standard|Scopoletin7-Hydroxy-6-methoxy-2H-chromen-2-one; 6-Methylesculetin; Chrysatropic acid|Scopoletin;6-Methoxyumbelliferone;  7-Hydroxy-6-methoxy-2H-1-benzopyran-2-one|Scopoletine|Scopoletol|Solanaceae|Spectrum2_001207|Spectrum3_001532|Spectrum4_001054|Spectrum5_000654|T83|TD8126|TNP00096|UNII-KLF1HS0SXJ|beta-Methylesculetin|s3881

>  <cas>  (1564) 
92-61-5

$$$$

     RDKit          2D

 32 31  0  0  0  0  0  0  0  0999 V2000
   -6.4952   -0.5156    0.0000 C   0  0  0  0  0  0  0  0  0  0  0  0
   -5.1962   -1.2656    0.0000 C   0  0  0  0  0  0  0  0  0  0  0  0
   -5.1962   -2.7656    0.0000 C   0  0  0  0  0  0  0  0  0  0  0  0
   -6.4952   -3.5156    0.0000 C   0  0  0  0  0  0  0  0  0  0  0  0
   -6.4952   -5.0156    0.0000 C   0  0  0  0  0  0  0  0  0  0  0  0
   -7.7942   -5.7656    0.0000 C   0  0  0  0  0  0  0  0  0  0  0  0
   -5.1962   -5.7656    0.0000 O   0  0  0  0  0  0  0  0  0  0  0  0
   -3.8971   -0.5156    0.0000 C   0  0  0  0  0  0  0  0  0  0  0  0
   -3.8971    0.9844    0.0000 C   0  0  0  0  0  0  0  0  0  0  0  0
   -5.1962    1.7344    0.0000 O   0  0  0  0  0  0  0  0  0  0  0  0
   -2.5981    1.7344    0.0000 N   0  0  0  0  0  0  0  0  0  0  0  0
   -2.5981    3.2344    0.0000 C   0  0  0  0  0  0  0  0  0  0  0  0
   -1.2990    3.9844    0.0000 C   0  0  0  0  0  0  0  0  0  0  0  0
   -0.5490    2.6853    0.0000 C   0  0  0  0  0  0  0  0  0  0  0  0
   -2.0490    5.2834    0.0000 C   0  0  0  0  0  0  0  0  0  0  0  0
    0.0000    4.7344    0.0000 C   0  0  0  0  0  0  0  0  0  0  0  0
    0.0000    6.2344    0.0000 O   0  0  0  0  0  0  0  0  0  0  0  0
    1.2990    3.9844    0.0000 C   0  0  0  0  0  0  0  0  0  0  0  0
    2.0490    5.2834    0.0000 C   0  0  0  0  0  0  0  0  0  0  0  0
    0.5490    2.6853    0.0000 C   0  0  0  0  0  0  0  0  0  0  0  0
    2.5981    3.2344    0.0000 C   0  0  0  0  0  0  0  0  0  0  0  0
    2.5981    1.7344    0.0000 N   0  0  0  0  0  0  0  0  0  0  0  0
    3.8971    0.9844    0.0000 C   0  0  0  0  0  0  0  0  0  0  0  0
    5.1962    1.7344    0.0000 O   0  0  0  0  0  0  0  0  0  0  0  0
    3.8971   -0.5156    0.0000 C   0  0  0  0  0  0  0  0  0  0  0  0
    5.1962   -1.2656    0.0000 C   0  0  0  0  0  0  0  0  0  0  0  0
    6.4952   -0.5156    0.0000 C   0  0  0  0  0  0  0  0  0  0  0  0
    5.1962   -2.7656    0.0000 C   0  0  0  0  0  0  0  0  0  0  0  0
    6.4952   -3.5156    0.0000 C   0  0  0  0  0  0  0  0  0  0  0  0
    6.4952   -5.0156    0.0000 C   0  0  0  0  0  0  0  0  0  0  0  0
    7.7942   -5.7656    0.0000 C   0  0  0  0  0  0  0  0  0  0  0  0
    5.1962   -5.7656    0.0000 O   0  0  0  0  0  0  0  0  0  0  0  0
  1  2  1  0
  2  3  1  0
  3  4  2  0
  4  5  1  0
  5  6  1  0
  5  7  1  0
  2  8  2  0
  8  9  1  0
  9 10  2  0
  9 11  1  0
 11 12  1  0
 12 13  1  0
 13 14  1  0
 13 15  1  0
 13 16  1  0
 16 17  2  0
 16 18  1  0
 18 19  1  0
 18 20  1  0
 18 21  1  0
 21 22  1  0
 22 23  1  0
 23 24  2  0
 23 25  1  0
 25 26  2  0
 26 27  1  0
 26 28  1  0
 28 29  2  0
 29 30  1  0
 30 31  1  0
 30 32  1  0
M  END
>  <identifier>  (1565) 
CNP0111572.3

>  <canonical_smiles>  (1565) 
CC(/C=C/C(C)O)=C\C(=O)NCC(C)(C)C(=O)C(C)(C)CNC(=O)/C=C(C)/C=C/C(C)O

>  <standard_inchi>  (1565) 
InChI=1S/C25H40N2O5/c1-17(9-11-19(3)28)13-21(30)26-15-24(5,6)23(32)25(7,8)16-27-22(31)14-18(2)10-12-20(4)29/h9-14,19-20,28-29H,15-16H2,1-8H3,(H,26,30)(H,27,31)/b11-9+,12-10+,17-13+,18-14+

>  <standard_inchi_key>  (1565) 
QWDUIMTWTQIEFM-CYOBFCGTSA-N

>  <name>  (1565) 
nan

>  <iupac_name>  (1565) 
nan

>  <annotation_level>  (1565) 
0

>  <total_atom_count>  (1565) 
72

>  <heavy_atom_count>  (1565) 
32

>  <molecular_weight>  (1565) 
448.6

>  <exact_molecular_weight>  (1565) 
448.29372

>  <molecular_formula>  (1565) 
C25H40N2O5

>  <alogp>  (1565) 
2.61

>  <topological_polar_surface_area>  (1565) 
115.73

>  <rotatable_bond_count>  (1565) 
12

>  <hydrogen_bond_acceptors>  (1565) 
5

>  <hydrogen_bond_donors>  (1565) 
4

>  <hydrogen_bond_acceptors_lipinski>  (1565) 
5

>  <hydrogen_bond_donors_lipinski>  (1565) 
4

>  <lipinski_rule_of_five_violations>  (1565) 
0

>  <aromatic_rings_count>  (1565) 
0

>  <qed_drug_likeliness>  (1565) 
0.27

>  <formal_charge>  (1565) 
0

>  <fractioncsp3>  (1565) 
0.56

>  <number_of_minimal_rings>  (1565) 
0

>  <van_der_walls_volume>  (1565) 
451.42

>  <contains_sugar>  (1565) 
False

>  <contains_ring_sugars>  (1565) 
False

>  <contains_linear_sugars>  (1565) 
False

>  <murcko_framework>  (1565) 
nan

>  <np_likeness>  (1565) 
0.78

>  <chemical_class>  (1565) 
nan

>  <chemical_sub_class>  (1565) 
nan

>  <chemical_super_class>  (1565) 
nan

>  <direct_parent_classification>  (1565) 
nan

>  <np_classifier_pathway>  (1565) 
Alkaloids

>  <np_classifier_superclass>  (1565) 
Linear polyketides

>  <np_classifier_class>  (1565) 
nan

>  <np_classifier_is_glycoside>  (1565) 
False

>  <organisms>  (1565) 
Piper arboreum

>  <collections>  (1565) 
ChemSpider NPs|Latin America dataset|NuBBEDB

>  <dois>  (1565) 
10.1016/S0031-9422(01)00431-9

>  <synonyms>  (1565) 
nan

>  <cas>  (1565) 
nan

$$$$

     RDKit          2D

 17 18  0  0  0  0  0  0  0  0999 V2000
   -3.5829   -2.1866    0.0000 C   0  0  0  0  0  0  0  0  0  0  0  0
   -3.2360   -0.7272    0.0000 C   0  0  0  0  0  0  0  0  0  0  0  0
   -4.3264    0.3028    0.0000 C   0  0  0  0  0  0  0  0  0  0  0  0
   -1.7988   -0.2980    0.0000 C   0  0  0  0  0  0  0  0  0  0  0  0
   -0.7084   -1.3281    0.0000 C   0  0  0  0  0  0  0  0  0  0  0  0
    0.7289   -0.8988    0.0000 C   0  0  0  0  0  0  0  0  0  0  0  0
    1.8193   -1.9289    0.0000 C   0  0  0  0  0  0  0  0  0  0  0  0
    1.4724   -3.3882    0.0000 C   0  0  0  0  0  0  0  0  0  0  0  0
    3.2565   -1.4996    0.0000 C   0  0  0  0  0  0  0  0  0  0  0  0
    3.6034   -0.0403    0.0000 C   0  0  0  0  0  0  0  0  0  0  0  0
    2.5130    0.9898    0.0000 C   0  0  0  0  0  0  0  0  0  0  0  0
    2.8599    2.4491    0.0000 C   0  0  0  0  0  0  0  0  0  0  0  0
    1.0758    0.5605    0.0000 C   0  0  0  0  0  0  0  0  0  0  0  0
   -0.0146    1.5906    0.0000 C   0  0  0  0  0  0  0  0  0  0  0  0
    0.3323    3.0500    0.0000 O   0  0  0  0  0  0  0  0  0  0  0  0
   -1.4519    1.1614    0.0000 C   0  0  0  0  0  0  0  0  0  0  0  0
   -2.5423    2.1914    0.0000 O   0  0  0  0  0  0  0  0  0  0  0  0
  1  2  2  0
  2  3  1  0
  2  4  1  0
  4  5  2  0
  5  6  1  0
  6  7  2  0
  7  8  1  0
  7  9  1  0
  9 10  2  0
 10 11  1  0
 11 12  1  0
 11 13  2  0
 13 14  1  0
 14 15  2  0
 14 16  1  0
 16 17  2  0
 16  4  1  0
 13  6  1  0
M  END
>  <identifier>  (1566) 
CNP0258357.0

>  <canonical_smiles>  (1566) 
C=C(C)C1=CC2=C(C)C=CC(C)=C2C(=O)C1=O

>  <standard_inchi>  (1566) 
InChI=1S/C15H14O2/c1-8(2)11-7-12-9(3)5-6-10(4)13(12)15(17)14(11)16/h5-7H,1H2,2-4H3

>  <standard_inchi_key>  (1566) 
SOVPENXFDKVCRN-UHFFFAOYSA-N

>  <name>  (1566) 
nan

>  <iupac_name>  (1566) 
3-isopropenyl-5,8-dimethyl-naphthalene-1,2-dione

>  <annotation_level>  (1566) 
4

>  <total_atom_count>  (1566) 
31

>  <heavy_atom_count>  (1566) 
17

>  <molecular_weight>  (1566) 
226.27

>  <exact_molecular_weight>  (1566) 
226.09938

>  <molecular_formula>  (1566) 
C15H14O2

>  <alogp>  (1566) 
3.03

>  <topological_polar_surface_area>  (1566) 
34.14

>  <rotatable_bond_count>  (1566) 
1

>  <hydrogen_bond_acceptors>  (1566) 
2

>  <hydrogen_bond_donors>  (1566) 
0

>  <hydrogen_bond_acceptors_lipinski>  (1566) 
2

>  <hydrogen_bond_donors_lipinski>  (1566) 
0

>  <lipinski_rule_of_five_violations>  (1566) 
0

>  <aromatic_rings_count>  (1566) 
1

>  <qed_drug_likeliness>  (1566) 
0.69

>  <formal_charge>  (1566) 
0

>  <fractioncsp3>  (1566) 
0.20

>  <number_of_minimal_rings>  (1566) 
2

>  <van_der_walls_volume>  (1566) 
nan

>  <contains_sugar>  (1566) 
False

>  <contains_ring_sugars>  (1566) 
False

>  <contains_linear_sugars>  (1566) 
False

>  <murcko_framework>  (1566) 
c1ccc2c(c1)C=CCC2

>  <np_likeness>  (1566) 
0.97

>  <chemical_class>  (1566) 
Naphthalenes

>  <chemical_sub_class>  (1566) 
Naphthoquinones

>  <chemical_super_class>  (1566) 
Benzenoids

>  <direct_parent_classification>  (1566) 
Naphthoquinones

>  <np_classifier_pathway>  (1566) 
Terpenoids

>  <np_classifier_superclass>  (1566) 
Sesquiterpenoids

>  <np_classifier_class>  (1566) 
nan

>  <np_classifier_is_glycoside>  (1566) 
False

>  <organisms>  (1566) 
Emmotum nitens

>  <collections>  (1566) 
Latin America dataset|NuBBEDB|WikiData Natural Products|ZINC NP

>  <dois>  (1566) 
10.1016/0031-9422(76)85091-1

>  <synonyms>  (1566) 
3-isopropenyl-58-dimethyl-12-naphthoquinone

>  <cas>  (1566) 
nan

$$$$

     RDKit          2D

 25 28  0  0  0  0  0  0  0  0999 V2000
    4.0924   -4.7918    0.0000 C   0  0  0  0  0  0  0  0  0  0  0  0
    4.0840   -3.2918    0.0000 C   0  0  0  0  0  0  0  0  0  0  0  0
    2.7809   -2.5490    0.0000 C   0  0  0  0  0  0  0  0  0  0  0  0
    2.7725   -1.0490    0.0000 C   0  0  0  0  0  0  0  0  0  0  0  0
    4.0674   -0.2918    0.0000 C   0  0  0  0  0  0  0  0  0  0  0  0
    5.3706   -1.0346    0.0000 O   0  0  0  0  0  0  0  0  0  0  0  0
    4.0590    1.2082    0.0000 C   0  0  0  0  0  0  0  0  0  0  0  0
    5.3539    1.9654    0.0000 O   0  0  0  0  0  0  0  0  0  0  0  0
    5.3455    3.4653    0.0000 C   0  0  0  0  0  0  0  0  0  0  0  0
    2.7558    1.9509    0.0000 C   0  0  0  0  0  0  0  0  0  0  0  0
    1.4610    1.1937    0.0000 C   0  0  0  0  0  0  0  0  0  0  0  0
    1.4693   -0.3063    0.0000 C   0  0  0  0  0  0  0  0  0  0  0  0
    0.0453   -0.7777    0.0000 O   0  0  0  0  0  0  0  0  0  0  0  0
   -0.8431    0.4309    0.0000 C   0  0  0  0  0  0  0  0  0  0  0  0
   -2.3430    0.4225    0.0000 C   0  0  0  0  0  0  0  0  0  0  0  0
   -3.1003    1.7174    0.0000 C   0  0  0  0  0  0  0  0  0  0  0  0
   -4.6002    1.7091    0.0000 C   0  0  0  0  0  0  0  0  0  0  0  0
   -5.3430    0.4059    0.0000 C   0  0  0  0  0  0  0  0  0  0  0  0
   -6.8085    0.0858    0.0000 O   0  0  0  0  0  0  0  0  0  0  0  0
   -6.9570   -1.4068    0.0000 C   0  0  0  0  0  0  0  0  0  0  0  0
   -5.5833   -2.0093    0.0000 O   0  0  0  0  0  0  0  0  0  0  0  0
   -4.5858   -0.8890    0.0000 C   0  0  0  0  0  0  0  0  0  0  0  0
   -3.0858   -0.8806    0.0000 C   0  0  0  0  0  0  0  0  0  0  0  0
    0.0318    1.6493    0.0000 C   0  0  0  0  0  0  0  0  0  0  0  0
   -0.4396    3.0733    0.0000 C   0  0  0  0  0  0  0  0  0  0  0  0
  1  2  2  0
  2  3  1  0
  3  4  1  0
  4  5  2  0
  5  6  1  0
  5  7  1  0
  7  8  1  0
  8  9  1  0
  7 10  2  0
 10 11  1  0
 11 12  2  0
 12 13  1  0
 13 14  1  0
 14 15  1  0
 15 16  2  0
 16 17  1  0
 17 18  2  0
 18 19  1  0
 19 20  1  0
 20 21  1  0
 21 22  1  0
 22 23  2  0
 14 24  2  0
 24 25  1  0
 12  4  1  0
 23 15  1  0
 24 11  1  0
 22 18  1  0
M  END
>  <identifier>  (1567) 
CNP0080582.0

>  <canonical_smiles>  (1567) 
C=CCC1=C(O)C(OC)=CC2=C1OC(C1=CC=C3OCOC3=C1)=C2C

>  <standard_inchi>  (1567) 
InChI=1S/C20H18O5/c1-4-5-13-18(21)17(22-3)9-14-11(2)19(25-20(13)14)12-6-7-15-16(8-12)24-10-23-15/h4,6-9,21H,1,5,10H2,2-3H3

>  <standard_inchi_key>  (1567) 
NUBDIPRVEZALOF-UHFFFAOYSA-N

>  <name>  (1567) 
nan

>  <iupac_name>  (1567) 
7-allyl-2-(1,3-benzodioxol-5-yl)-5-methoxy-3-methyl-benzofuran-6-ol

>  <annotation_level>  (1567) 
4

>  <total_atom_count>  (1567) 
43

>  <heavy_atom_count>  (1567) 
25

>  <molecular_weight>  (1567) 
338.36

>  <exact_molecular_weight>  (1567) 
338.11542

>  <molecular_formula>  (1567) 
C20H18O5

>  <alogp>  (1567) 
4.58

>  <topological_polar_surface_area>  (1567) 
61.06

>  <rotatable_bond_count>  (1567) 
4

>  <hydrogen_bond_acceptors>  (1567) 
5

>  <hydrogen_bond_donors>  (1567) 
1

>  <hydrogen_bond_acceptors_lipinski>  (1567) 
5

>  <hydrogen_bond_donors_lipinski>  (1567) 
1

>  <lipinski_rule_of_five_violations>  (1567) 
0

>  <aromatic_rings_count>  (1567) 
3

>  <qed_drug_likeliness>  (1567) 
0.71

>  <formal_charge>  (1567) 
0

>  <fractioncsp3>  (1567) 
0.20

>  <number_of_minimal_rings>  (1567) 
4

>  <van_der_walls_volume>  (1567) 
nan

>  <contains_sugar>  (1567) 
False

>  <contains_ring_sugars>  (1567) 
False

>  <contains_linear_sugars>  (1567) 
False

>  <murcko_framework>  (1567) 
o1c2ccccc2cc1-c3ccc4OCOc4c3

>  <np_likeness>  (1567) 
0.96

>  <chemical_class>  (1567) 
2-arylbenzofuran flavonoids

>  <chemical_sub_class>  (1567) 
2-arylbenzofuran flavonoids

>  <chemical_super_class>  (1567) 
Phenylpropanoids and polyketides

>  <direct_parent_classification>  (1567) 
2-arylbenzofuran flavonoids

>  <np_classifier_pathway>  (1567) 
Shikimates and Phenylpropanoids

>  <np_classifier_superclass>  (1567) 
Lignans

>  <np_classifier_class>  (1567) 
Neolignans

>  <np_classifier_is_glycoside>  (1567) 
False

>  <organisms>  (1567) 
Aniba terminalis|Mezilaurus itauba

>  <collections>  (1567) 
Latin America dataset|NuBBEDB|WikiData Natural Products|ZINC NP

>  <dois>  (1567) 
10.1016/0031-9422(75)85303-9|10.1016/S0031-9422(00)81182-6

>  <synonyms>  (1567) 
7-allyl-6-hydroxy-5-methoxy-3-methyl-2-piperonylbenzofuran

>  <cas>  (1567) 
nan

$$$$

     RDKit          2D

 27 29  0  0  0  0  0  0  0  0999 V2000
   -8.2459    1.3246    0.0000 C   0  0  0  0  0  0  0  0  0  0  0  0
   -7.5000    0.0233    0.0000 O   0  0  0  0  0  0  0  0  0  0  0  0
   -6.0000    0.0186    0.0000 C   0  0  0  0  0  0  0  0  0  0  0  0
   -5.2459    1.3153    0.0000 C   0  0  0  0  0  0  0  0  0  0  0  0
   -3.7459    1.3107    0.0000 C   0  0  0  0  0  0  0  0  0  0  0  0
   -3.0000    0.0093    0.0000 C   0  0  0  0  0  0  0  0  0  0  0  0
   -1.5000    0.0047    0.0000 C   0  0  0  0  0  0  0  0  0  0  0  0
   -0.7540   -1.2967    0.0000 C   0  0  0  0  0  0  0  0  0  0  0  0
    0.7460   -1.3014    0.0000 O   0  0  0  0  0  0  0  0  0  0  0  0
    1.5000   -0.0047    0.0000 C   0  0  0  0  0  0  0  0  0  0  0  0
    3.0000   -0.0093    0.0000 C   0  0  0  0  0  0  0  0  0  0  0  0
    3.7540    1.2874    0.0000 C   0  0  0  0  0  0  0  0  0  0  0  0
    5.2540    1.2827    0.0000 O   0  0  0  0  0  0  0  0  0  0  0  0
    6.0000   -0.0186    0.0000 C   0  0  0  0  0  0  0  0  0  0  0  0
    7.5000   -0.0233    0.0000 C   0  0  0  0  0  0  0  0  0  0  0  0
    8.2459   -1.3246    0.0000 C   0  0  0  0  0  0  0  0  0  0  0  0
    9.7459   -1.3293    0.0000 C   0  0  0  0  0  0  0  0  0  0  0  0
    7.4919   -2.6213    0.0000 C   0  0  0  0  0  0  0  0  0  0  0  0
    3.0080    2.5888    0.0000 C   0  0  0  0  0  0  0  0  0  0  0  0
    1.5081    2.5934    0.0000 C   0  0  0  0  0  0  0  0  0  0  0  0
    0.7540    1.2967    0.0000 C   0  0  0  0  0  0  0  0  0  0  0  0
   -0.7460    1.3014    0.0000 C   0  0  0  0  0  0  0  0  0  0  0  0
   -1.4919    2.6027    0.0000 O   0  0  0  0  0  0  0  0  0  0  0  0
   -3.7540   -1.2874    0.0000 C   0  0  0  0  0  0  0  0  0  0  0  0
   -5.2540   -1.2827    0.0000 C   0  0  0  0  0  0  0  0  0  0  0  0
   -6.0080   -2.5794    0.0000 O   0  0  0  0  0  0  0  0  0  0  0  0
   -5.2621   -3.8808    0.0000 C   0  0  0  0  0  0  0  0  0  0  0  0
  1  2  1  0
  2  3  1  0
  3  4  2  0
  4  5  1  0
  5  6  2  0
  6  7  1  0
  7  8  2  0
  8  9  1  0
  9 10  1  0
 10 11  2  0
 11 12  1  0
 12 13  1  0
 13 14  1  0
 14 15  1  0
 15 16  2  0
 16 17  1  0
 16 18  1  0
 12 19  2  0
 19 20  1  0
 20 21  2  0
 21 22  1  0
 22 23  2  0
  6 24  1  0
 24 25  2  0
 25 26  1  0
 26 27  1  0
 25  3  1  0
 22  7  1  0
 21 10  1  0
M  END
>  <identifier>  (1568) 
CNP0366227.0

>  <canonical_smiles>  (1568) 
COC1=CC=C(C2=COC3=CC(OCC=C(C)C)=CC=C3C2=O)C=C1OC

>  <standard_inchi>  (1568) 
InChI=1S/C22H22O5/c1-14(2)9-10-26-16-6-7-17-20(12-16)27-13-18(22(17)23)15-5-8-19(24-3)21(11-15)25-4/h5-9,11-13H,10H2,1-4H3

>  <standard_inchi_key>  (1568) 
HSZOZDPOYZAYTH-UHFFFAOYSA-N

>  <name>  (1568) 
7-Prenyloxy-3',4'-dimethoxyisoflavone

>  <iupac_name>  (1568) 
3-(3,4-dimethoxyphenyl)-7-(3-methylbut-2-enoxy)chromen-4-one

>  <annotation_level>  (1568) 
5

>  <total_atom_count>  (1568) 
49

>  <heavy_atom_count>  (1568) 
27

>  <molecular_weight>  (1568) 
366.41

>  <exact_molecular_weight>  (1568) 
366.14672

>  <molecular_formula>  (1568) 
C22H22O5

>  <alogp>  (1568) 
4.82

>  <topological_polar_surface_area>  (1568) 
57.90

>  <rotatable_bond_count>  (1568) 
6

>  <hydrogen_bond_acceptors>  (1568) 
5

>  <hydrogen_bond_donors>  (1568) 
0

>  <hydrogen_bond_acceptors_lipinski>  (1568) 
5

>  <hydrogen_bond_donors_lipinski>  (1568) 
0

>  <lipinski_rule_of_five_violations>  (1568) 
0

>  <aromatic_rings_count>  (1568) 
3

>  <qed_drug_likeliness>  (1568) 
0.59

>  <formal_charge>  (1568) 
0

>  <fractioncsp3>  (1568) 
0.23

>  <number_of_minimal_rings>  (1568) 
3

>  <van_der_walls_volume>  (1568) 
335.46

>  <contains_sugar>  (1568) 
False

>  <contains_ring_sugars>  (1568) 
False

>  <contains_linear_sugars>  (1568) 
False

>  <murcko_framework>  (1568) 
O1C=C(c2ccccc2)Cc3ccccc13

>  <np_likeness>  (1568) 
0.68

>  <chemical_class>  (1568) 
Isoflavonoids

>  <chemical_sub_class>  (1568) 
Isoflav-2-enes

>  <chemical_super_class>  (1568) 
Phenylpropanoids and polyketides

>  <direct_parent_classification>  (1568) 
Isoflavones

>  <np_classifier_pathway>  (1568) 
Shikimates and Phenylpropanoids

>  <np_classifier_superclass>  (1568) 
Isoflavonoids

>  <np_classifier_class>  (1568) 
Isoflavones

>  <np_classifier_is_glycoside>  (1568) 
False

>  <organisms>  (1568) 
Calopogonium mucunoides|Pongamia pinnata

>  <collections>  (1568) 
KNApSaCK|Latin America dataset|NPASS|NPEdia|NuBBEDB|Super Natural II|TIPdb (database of Taiwan indigenous plants)|UNPD (Universal Natural Products Database)|WikiData Natural Products|ZINC NP

>  <dois>  (1568) 
10.1016/S0031-9422(00)95305-6|10.1016/j.bmcl.2018.02.026

>  <synonyms>  (1568) 
7-O-\u221a\u00e9\u00ac\u2265\u221a\u00e9\u00ac\u2265-dimethylallyl-3'4'-dimethoxyisoflavone|7-Prenyloxy-3',4'-dimethoxyisoflavone|CHEMBL4207261|LMPK12050051

>  <cas>  (1568) 
nan

$$$$

     RDKit          2D

 21 23  0  0  0  0  0  0  0  0999 V2000
   -5.2398   -1.7258    0.0000 C   0  0  0  0  0  0  0  0  0  0  0  0
   -3.7412   -1.7894    0.0000 C   0  0  0  0  0  0  0  0  0  0  0  0
   -2.9367   -0.5234    0.0000 C   0  0  0  0  0  0  0  0  0  0  0  0
   -3.6309    0.8063    0.0000 C   0  0  0  0  0  0  0  0  0  0  0  0
   -5.1296    0.8700    0.0000 C   0  0  0  0  0  0  0  0  0  0  0  0
   -2.8265    2.0724    0.0000 C   0  0  0  0  0  0  0  0  0  0  0  0
   -1.3278    2.0087    0.0000 C   0  0  0  0  0  0  0  0  0  0  0  0
   -0.6336    0.6790    0.0000 C   0  0  0  0  0  0  0  0  0  0  0  0
   -1.4381   -0.5870    0.0000 C   0  0  0  0  0  0  0  0  0  0  0  0
   -0.7439   -1.9167    0.0000 C   0  0  0  0  0  0  0  0  0  0  0  0
    0.7548   -1.9804    0.0000 C   0  0  0  0  0  0  0  0  0  0  0  0
    1.5592   -0.7143    0.0000 C   0  0  0  0  0  0  0  0  0  0  0  0
    3.0579   -0.7780    0.0000 C   0  0  0  0  0  0  0  0  0  0  0  0
    4.4444   -1.3504    0.0000 C   0  0  0  0  0  0  0  0  0  0  0  0
    2.7349   -2.2428    0.0000 C   0  0  0  0  0  0  0  0  0  0  0  0
    3.8623    0.4880    0.0000 C   0  0  0  0  0  0  0  0  0  0  0  0
    5.3610    0.4244    0.0000 O   0  0  0  0  0  0  0  0  0  0  0  0
    3.1681    1.8177    0.0000 C   0  0  0  0  0  0  0  0  0  0  0  0
    1.6695    1.8814    0.0000 C   0  0  0  0  0  0  0  0  0  0  0  0
    0.8650    0.6153    0.0000 C   0  0  0  0  0  0  0  0  0  0  0  0
    0.1708    1.9450    0.0000 C   0  0  0  0  0  0  0  0  0  0  0  0
  1  2  1  0
  2  3  1  0
  3  4  2  0
  4  5  1  0
  4  6  1  0
  6  7  2  0
  7  8  1  0
  8  9  2  0
  9 10  1  0
 10 11  1  0
 12 11  1  6
 12 13  1  0
 13 14  1  0
 13 15  1  0
 13 16  1  0
 16 17  2  0
 16 18  1  0
 18 19  1  0
 19 20  1  0
 20 21  1  6
  9  3  1  0
 20 12  1  0
 20  8  1  0
M  END
>  <identifier>  (1569) 
CNP0080661.1

>  <canonical_smiles>  (1569) 
CCC1=C(C)C=CC2=C1CC[C@H]1C(C)(C)C(=O)CC[C@]21C

>  <standard_inchi>  (1569) 
InChI=1S/C20H28O/c1-6-14-13(2)7-9-16-15(14)8-10-17-19(3,4)18(21)11-12-20(16,17)5/h7,9,17H,6,8,10-12H2,1-5H3/t17-,20+/m0/s1

>  <standard_inchi_key>  (1569) 
RBAHQKBUVTZPPX-FXAWDEMLSA-N

>  <name>  (1569) 
nan

>  <iupac_name>  (1569) 
(4~{a}~{S},10~{a}~{R})-8-ethyl-1,1,4~{a},7-tetramethyl-4,9,10,10~{a}-tetrahydro-3~{H}-phenanthren-2-one

>  <annotation_level>  (1569) 
4

>  <total_atom_count>  (1569) 
49

>  <heavy_atom_count>  (1569) 
21

>  <molecular_weight>  (1569) 
284.44

>  <exact_molecular_weight>  (1569) 
284.21402

>  <molecular_formula>  (1569) 
C20H28O

>  <alogp>  (1569) 
4.77

>  <topological_polar_surface_area>  (1569) 
17.07

>  <rotatable_bond_count>  (1569) 
1

>  <hydrogen_bond_acceptors>  (1569) 
1

>  <hydrogen_bond_donors>  (1569) 
0

>  <hydrogen_bond_acceptors_lipinski>  (1569) 
1

>  <hydrogen_bond_donors_lipinski>  (1569) 
0

>  <lipinski_rule_of_five_violations>  (1569) 
0

>  <aromatic_rings_count>  (1569) 
1

>  <qed_drug_likeliness>  (1569) 
0.73

>  <formal_charge>  (1569) 
0

>  <fractioncsp3>  (1569) 
0.65

>  <number_of_minimal_rings>  (1569) 
3

>  <van_der_walls_volume>  (1569) 
nan

>  <contains_sugar>  (1569) 
False

>  <contains_ring_sugars>  (1569) 
False

>  <contains_linear_sugars>  (1569) 
False

>  <murcko_framework>  (1569) 
c1ccc2c(c1)CCC3CCCCC23

>  <np_likeness>  (1569) 
2.08

>  <chemical_class>  (1569) 
Prenol lipids

>  <chemical_sub_class>  (1569) 
Diterpenoids

>  <chemical_super_class>  (1569) 
Lipids and lipid-like molecules

>  <direct_parent_classification>  (1569) 
Diterpenoids

>  <np_classifier_pathway>  (1569) 
Terpenoids

>  <np_classifier_superclass>  (1569) 
Diterpenoids

>  <np_classifier_class>  (1569) 
Cleistanthane diterpenoids

>  <np_classifier_is_glycoside>  (1569) 
False

>  <organisms>  (1569) 
Vellozia piresiana

>  <collections>  (1569) 
Latin America dataset|NuBBEDB|WikiData Natural Products

>  <dois>  (1569) 
10.1016/S0031-9422(00)80444-6

>  <synonyms>  (1569) 
81113-Cleistanthatrien-3-one

>  <cas>  (1569) 
nan

$$$$

     RDKit          2D

 15 17  0  0  0  0  0  0  0  0999 V2000
   -1.8998   -3.0749    0.0000 C   0  0  0  0  0  0  0  0  0  0  0  0
   -0.5127   -2.5041    0.0000 O   0  0  0  0  0  0  0  0  0  0  0  0
   -0.3134   -1.0174    0.0000 C   0  0  0  0  0  0  0  0  0  0  0  0
    1.0737   -0.4466    0.0000 C   0  0  0  0  0  0  0  0  0  0  0  0
    2.2616   -1.3625    0.0000 C   0  0  0  0  0  0  0  0  0  0  0  0
    3.6488   -0.7917    0.0000 C   0  0  0  0  0  0  0  0  0  0  0  0
    3.8480    0.6950    0.0000 C   0  0  0  0  0  0  0  0  0  0  0  0
    2.6601    1.6109    0.0000 C   0  0  0  0  0  0  0  0  0  0  0  0
    1.2730    1.0401    0.0000 C   0  0  0  0  0  0  0  0  0  0  0  0
    0.0851    1.9560    0.0000 N   0  0  0  0  0  0  0  0  0  0  0  0
   -1.3021    1.3852    0.0000 C   0  0  0  0  0  0  0  0  0  0  0  0
   -1.5013   -0.1015    0.0000 C   0  0  0  0  0  0  0  0  0  0  0  0
   -2.9769   -0.3714    0.0000 C   0  0  0  0  0  0  0  0  0  0  0  0
   -3.6895    0.9485    0.0000 C   0  0  0  0  0  0  0  0  0  0  0  0
   -2.6545    2.0342    0.0000 O   0  0  0  0  0  0  0  0  0  0  0  0
  1  2  1  0
  2  3  1  0
  3  4  2  0
  4  5  1  0
  5  6  2  0
  6  7  1  0
  7  8  2  0
  8  9  1  0
  9 10  2  0
 10 11  1  0
 11 12  2  0
 12 13  1  0
 13 14  2  0
 14 15  1  0
 12  3  1  0
  9  4  1  0
 15 11  1  0
M  END
>  <identifier>  (1570) 
CNP0159011.0

>  <canonical_smiles>  (1570) 
COC1=C2C=CC=CC2=NC2=C1C=CO2

>  <standard_inchi>  (1570) 
InChI=1S/C12H9NO2/c1-14-11-8-4-2-3-5-10(8)13-12-9(11)6-7-15-12/h2-7H,1H3

>  <standard_inchi_key>  (1570) 
WIONIXOBNMDJFJ-UHFFFAOYSA-N

>  <name>  (1570) 
Dictamnine

>  <iupac_name>  (1570) 
4-methoxyfuro[2,3-b]quinoline

>  <annotation_level>  (1570) 
5

>  <total_atom_count>  (1570) 
24

>  <heavy_atom_count>  (1570) 
15

>  <molecular_weight>  (1570) 
199.21

>  <exact_molecular_weight>  (1570) 
199.06333

>  <molecular_formula>  (1570) 
C12H9NO2

>  <alogp>  (1570) 
2.99

>  <topological_polar_surface_area>  (1570) 
35.26

>  <rotatable_bond_count>  (1570) 
1

>  <hydrogen_bond_acceptors>  (1570) 
3

>  <hydrogen_bond_donors>  (1570) 
0

>  <hydrogen_bond_acceptors_lipinski>  (1570) 
3

>  <hydrogen_bond_donors_lipinski>  (1570) 
0

>  <lipinski_rule_of_five_violations>  (1570) 
0

>  <aromatic_rings_count>  (1570) 
3

>  <qed_drug_likeliness>  (1570) 
0.60

>  <formal_charge>  (1570) 
0

>  <fractioncsp3>  (1570) 
0.08

>  <number_of_minimal_rings>  (1570) 
3

>  <van_der_walls_volume>  (1570) 
173.14

>  <contains_sugar>  (1570) 
False

>  <contains_ring_sugars>  (1570) 
False

>  <contains_linear_sugars>  (1570) 
False

>  <murcko_framework>  (1570) 
n1c2occc2cc3ccccc13

>  <np_likeness>  (1570) 
0.66

>  <chemical_class>  (1570) 
Quinolines and derivatives

>  <chemical_sub_class>  (1570) 
Furanoquinolines

>  <chemical_super_class>  (1570) 
Organoheterocyclic compounds

>  <direct_parent_classification>  (1570) 
Furanoquinolines

>  <np_classifier_pathway>  (1570) 
Alkaloids

>  <np_classifier_superclass>  (1570) 
Tryptophan alkaloids

>  <np_classifier_class>  (1570) 
Quinoline alkaloids

>  <np_classifier_is_glycoside>  (1570) 
False

>  <organisms>  (1570) 
Acronychia laurifolia|Acronychia pedunculata|Acronychia pubescens|Adiscanthus fusciflorus|Aegle Marmelos|Aegle marmelos|Aegle sp.|Afraegle paniculata|Agave deserti|Ageratina saltillensis|Aglaia pyramidata|Alchornea cordifolia|Alexandrium excavatum|Allium ramosum|Almeidea coerulea|Amomum daniellii|Andreadoxa flava|Angelica sinensis|Arachniodes mutica|Asclepias subulata|Atalantia wightii|Balanophora japonica|Balfourodendron riedelianum|Boenninghausenia Albiflora|Boenninghausenia albiflora|Boenninghausenia albiflora var. japonica|Boronia anemonifolia|Boronia bowmanii|Boronia inornata|Boronia pinnata|Bouchardatia neurococca|Bulbine asphodeloides|Calcarisporium thermophilum|Casimiroa sp.|Cassia singueana|Celastrus monospermus|Chorilaena quercifolia|Cicer cuneatum|Cladosporium phlei|Clausena anisata|Clausena vestita|Comptonella sessilifoliola|Conium maculatum|Cortex dictamni|Corydalis persica|Corynanthe pachyceras|Cota tinctoria|Cousinia pterocaulos|Coussarea hydrangeifolia|Croton hutchinsonianus|Croton joufra|Cynoglossum amabile|Cynometra hankei|Cystoseira caespitosa|Dacrydium fonkii|Daldinia vernicosa|Daphne tangutica|Decatropis bicolor|Delphinium speciosum|Dictamnus albus|Dictamnus albus L.|Dictamnus angustifolia|Dictamnus angustifolius|Dictamnus dasycarpus|Dictamnus sp.|Drummondita calida|Dysidea villosa|Eleutherococcus divaricatus|Erigeron acris|Esenbeckia febrifuga|Esenbeckia hartmanii|Esenbeckia leiocarpa|Esenbeckia spp.|Eucalyptus laevopinea|Eudendrium racemosum|Euodia|Euonymus europaeus|Eutrochium purpureum|Evea brasiliensis|Ficus conraui|Flavoparmelia caperata|Flindersia spp.|Flueggea microcarpa|Fucus serratus|Geijera balansae|Geijera spp.|Gentiana strictiflora|Glinus oppositifolius|Gloydius blomhoffii|Glycosma spp.|Glycosmis angustifolia|Glycosmis mauritiana|Glycosmis pentaphylla|Glycosmis pseudoracemosa|Gracilaria eucheumoides|Grewia villosa|Griselinia scandens|Gutenbergia marginata|Halfordia kendack|Haplophyllum acutifolium|Haplophyllum bucharicum|Haplophyllum bucharicum Litv.|Haplophyllum bungei|Haplophyllum buxbaumii|Haplophyllum cappadocicum|Haplophyllum dauricum|Haplophyllum griffithianum|Haplophyllum myrtifolium|Haplophyllum obtusifolium|Haplophyllum ramosissimum|Haplophyllum robustum Bge.|Haplophyllum spp.|Haplophyllum vulcanicum|Helicia erratica|Helminthosporium victoriae|Hortia brasiliana|Hortia longifolia|Hortonia floribunda|Hosta sieboldiana|Hunteria eburnea|Hygrophorus eburneus|Hypholoma capnoides|Hyptis urticoides|Ilex oblonga|Inula grantioides|Inula salsoloides|Ipomoea carnea|Iris sanguinea|Jacobaea cannabifolia|Jasione montana|Juniperus horizontalis|Jurinea maxima|Lactarius deliciosus var. deterrimus|Lactarius subpiperatus|Lathyrus tingitanus|Laurus camphora|Leionema nudum|Lepechinia hastata|Leucas lanata|Machilus odoratissima|Machilus zuihoensis|Medicosma cunninghamii|Melicope semecarpifolia|Melicope triphylla|Melipotis perpendicularis|Millettia pachycarpa|Monachosorum maximowiczii|Morinda coreia|Mycetia nutans|Myrtopsis macrocarpa|Myrtopsis sellingii|Naja naja|Nardia scalaris|Nemopilema nomurai|Notechis scutatus|Notonia grandiflora|Octopus octopodia|Ophiopholis aculeata|Otholobium pubescens|Pachysandra axillaris|Parmelia zollingeri|Passiflora morifolia|Pelargonium crispum|Persea americana|Persicaria tinctoria|Peucedanum oroselinum|Phebalium|Phellodendron amurense|Pilocarpus grandiflorus|Pitavia punctata|Plakortis simplex|Plectosphaerella cucumerina|Plectranthus caninus|Podocalyx loranthoides|Populus candicans|Pseudomonas cichorii|Psiadia anchusifolia|Ptelea sp.|Pteridium aquilinum subsp. latiusculum|Pycnarrhena australiana|Raputia praetermissa|Raputiarana heptaphylla|Rauvolfia salicifolia|Rhizoplaca baranowii|Rhododendron edgeworthii|Rosa transmorrisonensis|Ruta chalepensis|Ruta chalepensis L.|Ruta corsica|Ruta graveolens|Ruta graveolens L.|Ruta montana|Ruta sp.|Ruta spp.|Rutaceae|Saccharina latissima|Salmonella enterica subsp. enterica serovar bovismorbificans|Salta triflora|Salvia polystachya|Sarcomelicope argyrophylla|Sarcomelicope megistophylla|Sarcophyton infundibuliforme|Schrebera swietenoides|Senecio gilliesi|Sickingia rubra|Sideritis perfoliata|Skimmia japonica|Skimmia japonica Thunb.|Skimmia laureola|Skimmia sp.|Solanum spirale|Solidago missouriensis|Sophora leachiana|Spatoglossum pacificum|Sphagnum magellanicum|Spiranthera odoratissima|Spondias dulcis|Stereocaulon salazinum|Streptomyces chryseus|Streptomyces globisporus|Streptomyces griseocarneus|Streptomyces sulfonofaciens|Streptomyces tateyamensis|Streptomyces venezuelae|Strychnos potatorum|Strychnos spinosa|Takifugu rubripes|Talipariti tiliaceum|Teclea trichocarpa|Tephrosia bidwilli|Tetradium glabrifolium|Tetradium trichotomum|Thielavia terricola|Ticorea longiflora|Toddalia Asiatica|Toddalia asiatica|Tricleocarpa fragilis|Trifolium montanum|Trixis grisebachii|Tylostylis discolor|Udotea flabellum|Uresiphita reversalis|Vepris natalensis|Vepris trichocarpa|Vernonia chloropappa|Vernonia lilacina|Vicia balansae|Vitellaria paradoxa|Xanthoria parietina|Yucca elata|Zanthoxylum ailanthoides|Zanthoxylum allanthoides|Zanthoxylum arnottianum|Zanthoxylum asiaticum|Zanthoxylum austrosinense|Zanthoxylum avicennae|Zanthoxylum beecheyanum|Zanthoxylum belizense|Zanthoxylum chiloperone|Zanthoxylum decaryi|Zanthoxylum dimorphophyllum|Zanthoxylum ekmanii|Zanthoxylum integrifoliolum|Zanthoxylum mayu|Zanthoxylum panispinum|Zanthoxylum planispinum|Zanthoxylum rhetsa|Zanthoxylum scandens|Zanthoxylum schinifolium|Zanthoxylum simulans|Zanthoxylum sp.|Zanthoxylum spp.|Zanthoxylum wutaiense

>  <collections>  (1570) 
ANPDB|AfroDB|Australian natural products|CMAUP (cCollective molecular activities of useful plants)|ChEBI NPs|ChemSpider NPs|KNApSaCK|Latin America dataset|NANPDB (Natural Products from Northern African Sources)|NPASS|NPEdia|NuBBEDB|Phyto4Health|PhytoLab phyproof® Reference Substances|SANCDB|Specs Natural Products|Super Natural II|TCMDB-Taiwan (Traditional Chinese Medicine database)|TCMID (Traditional Chinese Medicine Integrated Database)|TIPdb (database of Taiwan indigenous plants)|TPPT (Toxic Plants–PhytoToxins)|UNPD (Universal Natural Products Database)|VietHerb|WikiData Natural Products|ZINC NP

>  <dois>  (1570) 
10.1002/(SICI)1099-1573(1998)12:1+<S74::AID-PTR255>3.0.CO;2-V|10.1002/9780470744307.gat218|10.1002/CHIN.199005299|10.1002/CHIN.200402199|10.1002/JCCS.200300024|10.1002/JCCS.200400099|10.1002/JCCS.200400159|10.1002/JCCS.200700112|10.1002/PTR.2650080409|10.1002/biuz.19840140514|10.1002/food.19880321030|10.1007/BF00168697|10.1007/BF00564141|10.1007/BF00565245|10.1007/BF00574794|10.1007/BF00596686|10.1007/BF00596693|10.1007/BF00596694|10.1007/BF00598335|10.1007/BF00598351|10.1007/BF00630180|10.1007/BF00636032|10.1007/BF02238348|10.1007/S10600-010-9661-Y|10.1007/S10600-018-2544-3|10.1016/0031-9422(74)80113-5|10.1016/0031-9422(79)80218-6|10.1016/0031-9422(80)80229-9|10.1016/0031-9422(80)85143-0|10.1016/0031-9422(81)85120-5|10.1016/0031-9422(81)85291-0|10.1016/0031-9422(89)80234-1|10.1016/0031-9422(90)89042-8|10.1016/0031-9422(92)80274-I|10.1016/0031-9422(92)83302-F|10.1016/0031-9422(94)00567-D|10.1016/0031-9422(95)00054-B|10.1016/0031-9422(95)00248-6|10.1016/0031-9422(95)00856-X|10.1016/0031-9422(96)00062-3|10.1016/0165-7992(85)90054-5|10.1016/0165-7992(90)90123-2|10.1016/0305-1978(90)90069-R|10.1016/J.BMC.2005.07.050|10.1016/J.BSE.2003.09.006|10.1016/J.EJMECH.2011.10.047|10.1016/J.FITOTE.2003.12.014|10.1016/J.FITOTE.2006.10.003|10.1016/J.JCHROMB.2013.10.025|10.1016/J.PHYMED.2008.02.001|10.1016/J.PHYTOCHEM.2004.12.023|10.1016/S0031-9422(00)86717-5|10.1016/S0031-9422(00)89916-1|10.1016/S0031-9422(00)91132-4|10.1016/S0031-9422(00)97039-0|10.1016/S0031-9422(00)97045-6|10.1016/S0031-9422(00)97383-7|10.1016/S0031-9422(03)00205-X|10.1016/S0031-9422(96)00877-1|10.1016/S0031-9422(97)00542-6|10.1016/S0031-9422(97)00678-X|10.1016/S0031-9422(97)01130-8|10.1016/S0031-9422(98)00519-6|10.1016/S0305-1978(96)00067-1|10.1016/S0367-326X(03)00147-3|10.1016/j.ejmech.2011.10.047|10.1016/j.jep.2015.05.053|10.1016/j.phytochem.2004.12.023|10.1021/JA01504A040|10.1021/JF010838L|10.1021/JO00829A053|10.1021/NP000012Y|10.1021/NP0000318|10.1021/NP010122K|10.1021/NP0106182|10.1021/NP070594K|10.1021/NP50039A034|10.1021/NP50041A009|10.1021/NP50052A032|10.1021/NP50054A029|10.1021/NP50067A034|10.1021/NP50107A020|10.1021/NP50111A003|10.1021/NP700719E|10.1021/NP9904096|10.1021/np000012y|10.1021/np0106182|10.1021/np070594k|10.1021/np700719e|10.1039/J39700000556|10.1039/P19740002177|10.1055/S-0028-1084416|10.1055/S-0028-1097674|10.1055/S-0028-1100136|10.1055/S-0030-1270963|10.1055/S-2000-8648|10.1055/S-2005-871295|10.1055/S-2006-960053|10.1055/S-2006-961713|10.1055/S-2006-962804|10.1055/S-2007-969594|10.1055/S-2007-969890|10.1071/CH9682357|10.1071/CH9683075|10.1071/CH9712181|10.1071/ch9682357|10.1080/14786419.2017.1318384|10.1248/CPB.34.1826|10.1248/CPB.59.855|10.1248/YAKUSHI1947.103.3_279|10.1515/ZNB-2005-0715|10.1515/ZNB-2009-0418|10.1590/S0102-695X2006000200006|10.1590/S0103-50532010000500016|10.1590/S0103-50532011000700021|10.22270/UJPR.V7I2.753|10.2307/4117899|10.2903/j.efsa.2012.2663|10.3390/MOLECULES190812031|10.4314/NJNPM.V1I1.11800

>  <synonyms>  (1570) 
nan

>  <cas>  (1570) 
484-29-7

$$$$

     RDKit          2D

 21 24  0  0  0  0  0  0  0  0999 V2000
   -0.0898    2.4165    0.0000 C   0  0  0  0  0  0  0  0  0  0  0  0
   -0.8884    1.1467    0.0000 N   0  0  0  0  0  0  0  0  0  0  0  0
   -2.3873    1.2035    0.0000 C   0  0  0  0  0  0  0  0  0  0  0  0
   -3.1859   -0.0663    0.0000 C   0  0  0  0  0  0  0  0  0  0  0  0
   -4.6403    0.3008    0.0000 C   0  0  0  0  0  0  0  0  0  0  0  0
   -4.7406    1.7975    0.0000 C   0  0  0  0  0  0  0  0  0  0  0  0
   -3.3482    2.3553    0.0000 O   0  0  0  0  0  0  0  0  0  0  0  0
   -2.4856   -1.3928    0.0000 C   0  0  0  0  0  0  0  0  0  0  0  0
   -3.2842   -2.6625    0.0000 O   0  0  0  0  0  0  0  0  0  0  0  0
   -0.9867   -1.4495    0.0000 C   0  0  0  0  0  0  0  0  0  0  0  0
   -0.2863   -2.7760    0.0000 C   0  0  0  0  0  0  0  0  0  0  0  0
    1.2126   -2.8327    0.0000 C   0  0  0  0  0  0  0  0  0  0  0  0
    2.0112   -1.5630    0.0000 C   0  0  0  0  0  0  0  0  0  0  0  0
    3.5101   -1.6197    0.0000 C   0  0  0  0  0  0  0  0  0  0  0  0
    4.3087   -0.3499    0.0000 C   0  0  0  0  0  0  0  0  0  0  0  0
    3.6084    0.9765    0.0000 C   0  0  0  0  0  0  0  0  0  0  0  0
    3.4039    2.4625    0.0000 C   0  0  0  0  0  0  0  0  0  0  0  0
    5.0363    1.4359    0.0000 C   0  0  0  0  0  0  0  0  0  0  0  0
    2.1094    1.0333    0.0000 O   0  0  0  0  0  0  0  0  0  0  0  0
    1.3108   -0.2365    0.0000 C   0  0  0  0  0  0  0  0  0  0  0  0
   -0.1881   -0.1798    0.0000 C   0  0  0  0  0  0  0  0  0  0  0  0
  1  2  1  0
  2  3  1  0
  3  4  2  0
  4  5  1  0
  5  6  2  0
  6  7  1  0
  4  8  1  0
  8  9  2  0
  8 10  1  0
 10 11  2  0
 11 12  1  0
 12 13  2  0
 13 14  1  0
 14 15  2  0
 15 16  1  0
 16 17  1  0
 16 18  1  0
 16 19  1  0
 19 20  1  0
 20 21  2  0
 21  2  1  0
  7  3  1  0
 21 10  1  0
 20 13  1  0
M  END
>  <identifier>  (1571) 
CNP0107554.0

>  <canonical_smiles>  (1571) 
CN1C2=C(C=CO2)C(=O)C2=CC=C3C=CC(C)(C)OC3=C21

>  <standard_inchi>  (1571) 
InChI=1S/C17H15NO3/c1-17(2)8-6-10-4-5-11-13(15(10)21-17)18(3)16-12(14(11)19)7-9-20-16/h4-9H,1-3H3

>  <standard_inchi_key>  (1571) 
YITQHELNKUBSQU-UHFFFAOYSA-N

>  <name>  (1571) 
nan

>  <iupac_name>  (1571) 
4,4,17-trimethyl-3,15-dioxa-17-azatetracyclo[8.7.0.0^{2,7}.0^{12,16}]heptadeca-1,5,7,9,12(16),13-hexaen-11-one

>  <annotation_level>  (1571) 
4

>  <total_atom_count>  (1571) 
36

>  <heavy_atom_count>  (1571) 
21

>  <molecular_weight>  (1571) 
281.31

>  <exact_molecular_weight>  (1571) 
281.10519

>  <molecular_formula>  (1571) 
C17H15NO3

>  <alogp>  (1571) 
3.47

>  <topological_polar_surface_area>  (1571) 
44.37

>  <rotatable_bond_count>  (1571) 
0

>  <hydrogen_bond_acceptors>  (1571) 
4

>  <hydrogen_bond_donors>  (1571) 
0

>  <hydrogen_bond_acceptors_lipinski>  (1571) 
4

>  <hydrogen_bond_donors_lipinski>  (1571) 
0

>  <lipinski_rule_of_five_violations>  (1571) 
0

>  <aromatic_rings_count>  (1571) 
3

>  <qed_drug_likeliness>  (1571) 
0.63

>  <formal_charge>  (1571) 
0

>  <fractioncsp3>  (1571) 
0.24

>  <number_of_minimal_rings>  (1571) 
4

>  <van_der_walls_volume>  (1571) 
nan

>  <contains_sugar>  (1571) 
False

>  <contains_ring_sugars>  (1571) 
False

>  <contains_linear_sugars>  (1571) 
False

>  <murcko_framework>  (1571) 
o1ccc2c1Nc3c4OCC=Cc4ccc3C2

>  <np_likeness>  (1571) 
2.04

>  <chemical_class>  (1571) 
Quinolines and derivatives

>  <chemical_sub_class>  (1571) 
Quinolones and derivatives

>  <chemical_super_class>  (1571) 
Organoheterocyclic compounds

>  <direct_parent_classification>  (1571) 
Pyranoquinolines

>  <np_classifier_pathway>  (1571) 
Alkaloids

>  <np_classifier_superclass>  (1571) 
Anthranilic acid alkaloids

>  <np_classifier_class>  (1571) 
Quinoline alkaloids

>  <np_classifier_is_glycoside>  (1571) 
False

>  <organisms>  (1571) 
Almeidea coerulea|Conchocarpus coeruleus

>  <collections>  (1571) 
Latin America dataset|NuBBEDB|WikiData Natural Products

>  <dois>  (1571) 
10.1590/S0103-50531998000100007

>  <synonyms>  (1571) 
isodutadrupine

>  <cas>  (1571) 
nan

$$$$

     RDKit          2D

 35 37  0  0  0  0  0  0  0  0999 V2000
   -3.2999    4.4004    0.0000 C   0  0  0  0  0  0  0  0  0  0  0  0
   -4.3279    3.3081    0.0000 O   0  0  0  0  0  0  0  0  0  0  0  0
   -3.8959    1.8716    0.0000 C   0  0  0  0  0  0  0  0  0  0  0  0
   -2.4360    1.5275    0.0000 C   0  0  0  0  0  0  0  0  0  0  0  0
   -2.0040    0.0910    0.0000 C   0  0  0  0  0  0  0  0  0  0  0  0
   -0.5440   -0.2531    0.0000 C   0  0  0  0  0  0  0  0  0  0  0  0
   -0.1120   -1.6896    0.0000 C   0  0  0  0  0  0  0  0  0  0  0  0
   -1.1401   -2.7819    0.0000 O   0  0  0  0  0  0  0  0  0  0  0  0
   -2.6001   -2.4377    0.0000 C   0  0  0  0  0  0  0  0  0  0  0  0
    1.3479   -2.0337    0.0000 C   0  0  0  0  0  0  0  0  0  0  0  0
    1.7799   -3.4702    0.0000 O   0  0  0  0  0  0  0  0  0  0  0  0
    2.3760   -0.9414    0.0000 C   0  0  0  0  0  0  0  0  0  0  0  0
    3.8360   -1.2855    0.0000 C   0  0  0  0  0  0  0  0  0  0  0  0
    4.2679   -2.7220    0.0000 O   0  0  0  0  0  0  0  0  0  0  0  0
    5.7279   -3.0661    0.0000 C   0  0  0  0  0  0  0  0  0  0  0  0
    4.8640   -0.1932    0.0000 C   0  0  0  0  0  0  0  0  0  0  0  0
    6.3240   -0.5373    0.0000 O   0  0  0  0  0  0  0  0  0  0  0  0
    7.3520    0.5550    0.0000 C   0  0  0  0  0  0  0  0  0  0  0  0
    8.8120    0.2108    0.0000 C   0  0  0  0  0  0  0  0  0  0  0  0
    6.9200    1.9914    0.0000 O   0  0  0  0  0  0  0  0  0  0  0  0
    4.4320    1.2433    0.0000 C   0  0  0  0  0  0  0  0  0  0  0  0
    5.4601    2.3356    0.0000 O   0  0  0  0  0  0  0  0  0  0  0  0
    5.0281    3.7720    0.0000 C   0  0  0  0  0  0  0  0  0  0  0  0
    2.9720    1.5874    0.0000 C   0  0  0  0  0  0  0  0  0  0  0  0
    1.9440    0.4951    0.0000 C   0  0  0  0  0  0  0  0  0  0  0  0
    0.4840    0.8392    0.0000 O   0  0  0  0  0  0  0  0  0  0  0  0
   -3.0320   -1.0013    0.0000 C   0  0  0  0  0  0  0  0  0  0  0  0
   -4.4920   -0.6571    0.0000 C   0  0  0  0  0  0  0  0  0  0  0  0
   -5.5200   -1.7494    0.0000 O   0  0  0  0  0  0  0  0  0  0  0  0
   -6.9800   -1.4053    0.0000 C   0  0  0  0  0  0  0  0  0  0  0  0
   -8.0081   -2.4976    0.0000 C   0  0  0  0  0  0  0  0  0  0  0  0
   -7.4120    0.0312    0.0000 O   0  0  0  0  0  0  0  0  0  0  0  0
   -4.9240    0.7793    0.0000 C   0  0  0  0  0  0  0  0  0  0  0  0
   -6.3840    1.1235    0.0000 O   0  0  0  0  0  0  0  0  0  0  0  0
   -6.8159    2.5599    0.0000 C   0  0  0  0  0  0  0  0  0  0  0  0
  1  2  1  0
  2  3  1  0
  3  4  2  0
  4  5  1  0
  5  6  1  0
  6  7  2  0
  7  8  1  0
  8  9  1  0
  7 10  1  0
 10 11  2  0
 10 12  1  0
 12 13  2  0
 13 14  1  0
 14 15  1  0
 13 16  1  0
 16 17  1  0
 17 18  1  0
 18 19  1  0
 18 20  2  0
 16 21  2  0
 21 22  1  0
 22 23  1  0
 21 24  1  0
 24 25  2  0
 25 26  1  0
  5 27  2  0
 27 28  1  0
 28 29  1  0
 29 30  1  0
 30 31  1  0
 30 32  2  0
 28 33  2  0
 33 34  1  0
 34 35  1  0
 33  3  1  0
 26  6  1  0
 25 12  1  0
M  END
>  <identifier>  (1572) 
CNP0080429.0

>  <canonical_smiles>  (1572) 
COC1=CC(C2=C(OC)C(=O)C3=C(OC)C(OC(C)=O)=C(OC)C=C3O2)=CC(OC(C)=O)=C1OC

>  <standard_inchi>  (1572) 
InChI=1S/C24H24O11/c1-11(25)33-17-9-13(8-15(28-3)21(17)30-5)20-24(32-7)19(27)18-14(35-20)10-16(29-4)22(23(18)31-6)34-12(2)26/h8-10H,1-7H3

>  <standard_inchi_key>  (1572) 
LRRWBYKVYKARSY-UHFFFAOYSA-N

>  <name>  (1572) 
nan

>  <iupac_name>  (1572) 
[5-(6-acetoxy-3,5,7-trimethoxy-4-oxo-chromen-2-yl)-2,3-dimethoxy-phenyl] acetate

>  <annotation_level>  (1572) 
4

>  <total_atom_count>  (1572) 
59

>  <heavy_atom_count>  (1572) 
35

>  <molecular_weight>  (1572) 
488.45

>  <exact_molecular_weight>  (1572) 
488.13186

>  <molecular_formula>  (1572) 
C24H24O11

>  <alogp>  (1572) 
3.35

>  <topological_polar_surface_area>  (1572) 
128.96

>  <rotatable_bond_count>  (1572) 
8

>  <hydrogen_bond_acceptors>  (1572) 
11

>  <hydrogen_bond_donors>  (1572) 
0

>  <hydrogen_bond_acceptors_lipinski>  (1572) 
11

>  <hydrogen_bond_donors_lipinski>  (1572) 
0

>  <lipinski_rule_of_five_violations>  (1572) 
1

>  <aromatic_rings_count>  (1572) 
3

>  <qed_drug_likeliness>  (1572) 
0.34

>  <formal_charge>  (1572) 
0

>  <fractioncsp3>  (1572) 
0.29

>  <number_of_minimal_rings>  (1572) 
3

>  <van_der_walls_volume>  (1572) 
nan

>  <contains_sugar>  (1572) 
False

>  <contains_ring_sugars>  (1572) 
False

>  <contains_linear_sugars>  (1572) 
False

>  <murcko_framework>  (1572) 
O1c2ccccc2CC=C1c3ccccc3

>  <np_likeness>  (1572) 
1.01

>  <chemical_class>  (1572) 
Flavonoids

>  <chemical_sub_class>  (1572) 
O-methylated flavonoids

>  <chemical_super_class>  (1572) 
Phenylpropanoids and polyketides

>  <direct_parent_classification>  (1572) 
3-O-methylated flavonoids

>  <np_classifier_pathway>  (1572) 
Shikimates and Phenylpropanoids

>  <np_classifier_superclass>  (1572) 
Flavonoids

>  <np_classifier_class>  (1572) 
Flavonols

>  <np_classifier_is_glycoside>  (1572) 
False

>  <organisms>  (1572) 
Apuleia leiocarpa

>  <collections>  (1572) 
Latin America dataset|NuBBEDB|WikiData Natural Products|ZINC NP

>  <dois>  (1572) 
10.1016/S0031-9422(00)89891-X

>  <synonyms>  (1572) 
Apuleirin diacetate

>  <cas>  (1572) 
nan

$$$$

     RDKit          2D

 14 13  0  0  0  0  0  0  0  0999 V2000
   -8.2697   -0.2044    0.0000 C   0  0  0  0  0  0  0  0  0  0  0  0
   -6.9462    0.5016    0.0000 C   0  0  0  0  0  0  0  0  0  0  0  0
   -5.6731   -0.2917    0.0000 C   0  0  0  0  0  0  0  0  0  0  0  0
   -4.3496    0.4143    0.0000 C   0  0  0  0  0  0  0  0  0  0  0  0
   -3.0765   -0.3790    0.0000 C   0  0  0  0  0  0  0  0  0  0  0  0
   -1.7530    0.3270    0.0000 C   0  0  0  0  0  0  0  0  0  0  0  0
   -0.4799   -0.4663    0.0000 C   0  0  0  0  0  0  0  0  0  0  0  0
    0.8436    0.2396    0.0000 C   0  0  0  0  0  0  0  0  0  0  0  0
    2.1167   -0.5536    0.0000 C   0  0  0  0  0  0  0  0  0  0  0  0
    3.4402    0.1523    0.0000 C   0  0  0  0  0  0  0  0  0  0  0  0
    4.7133   -0.6409    0.0000 C   0  0  0  0  0  0  0  0  0  0  0  0
    6.0368    0.0650    0.0000 C   0  0  0  0  0  0  0  0  0  0  0  0
    7.3099   -0.7282    0.0000 C   0  0  0  0  0  0  0  0  0  0  0  0
    6.0873    1.5642    0.0000 O   0  0  0  0  0  0  0  0  0  0  0  0
  1  2  1  0
  2  3  1  0
  3  4  1  0
  4  5  1  0
  5  6  1  0
  6  7  1  0
  7  8  1  0
  8  9  1  0
  9 10  1  0
 10 11  1  0
 11 12  1  0
 12 13  1  0
 12 14  2  0
M  END
>  <identifier>  (1573) 
CNP0221288.0

>  <canonical_smiles>  (1573) 
CCCCCCCCCCCC(C)=O

>  <standard_inchi>  (1573) 
InChI=1S/C13H26O/c1-3-4-5-6-7-8-9-10-11-12-13(2)14/h3-12H2,1-2H3

>  <standard_inchi_key>  (1573) 
CYIFVRUOHKNECG-UHFFFAOYSA-N

>  <name>  (1573) 
2-TRIDECANONE

>  <iupac_name>  (1573) 
tridecan-2-one

>  <annotation_level>  (1573) 
5

>  <total_atom_count>  (1573) 
40

>  <heavy_atom_count>  (1573) 
14

>  <molecular_weight>  (1573) 
198.35

>  <exact_molecular_weight>  (1573) 
198.19837

>  <molecular_formula>  (1573) 
C13H26O

>  <alogp>  (1573) 
4.50

>  <topological_polar_surface_area>  (1573) 
17.07

>  <rotatable_bond_count>  (1573) 
10

>  <hydrogen_bond_acceptors>  (1573) 
1

>  <hydrogen_bond_donors>  (1573) 
0

>  <hydrogen_bond_acceptors_lipinski>  (1573) 
1

>  <hydrogen_bond_donors_lipinski>  (1573) 
0

>  <lipinski_rule_of_five_violations>  (1573) 
0

>  <aromatic_rings_count>  (1573) 
0

>  <qed_drug_likeliness>  (1573) 
0.47

>  <formal_charge>  (1573) 
0

>  <fractioncsp3>  (1573) 
0.92

>  <number_of_minimal_rings>  (1573) 
0

>  <van_der_walls_volume>  (1573) 
230.58

>  <contains_sugar>  (1573) 
False

>  <contains_ring_sugars>  (1573) 
False

>  <contains_linear_sugars>  (1573) 
False

>  <murcko_framework>  (1573) 
nan

>  <np_likeness>  (1573) 
0.52

>  <chemical_class>  (1573) 
Organooxygen compounds

>  <chemical_sub_class>  (1573) 
Carbonyl compounds

>  <chemical_super_class>  (1573) 
Organic oxygen compounds

>  <direct_parent_classification>  (1573) 
Ketones

>  <np_classifier_pathway>  (1573) 
Fatty acids

>  <np_classifier_superclass>  (1573) 
Fatty acyls

>  <np_classifier_class>  (1573) 
Oxygenated hydrocarbons

>  <np_classifier_is_glycoside>  (1573) 
False

>  <organisms>  (1573) 
Acca sellowiana|Akebia quinata|Akebia trifoliata|Allium cepa|Azadirachta indica|Backhousia angustifolia|Bowdichia virgilioides|Bulbus allii fistulosi|Carica papaya|Cistus creticus|Cochlospermum tinctorium|Commiphora rostrata|Common rush|Croton eluteria|Cymbopogon citratus|Drosophila buzzatii|Echinacea angustifolia|Esenbeckia|Esenbeckia yaxhoob Lundell|Etlingera elatior|Evernia prunastri|Fructus schiandrae|Frullania solanderiana|Hamamelis virginiana|Hedychium spicatum|Homo sapiens|Houttuynia cordata|Humulus lupulus|Ixora chinensis|Juncus Effusus|Juncus effusus|Nicotiana Tabacum|Nicotiana tabacum|Pilocarpus grandiflorus|Pilocarpus jaborandi|Pilocarpus microphyllus|Pilocarpus mycrophyllus|Pilocarpus pauciflorus|Pilocarpus spicatus|Pilocarpus trachylophus|Rosa rugosa|Ruta angustifolia|Ruta graveolens|Solanum agrimoniifolium|Solanum habrochaites|Sorbus tianschanica|Vaccinium ashei|Vaccinium corymbosum|Vaccinium macrocarpon|Vaccinium virgatum|Zanthoxylum ailanthoides|Zanthoxylum bungeanum|Zanthoxylum dipetalum|Zanthoxylum hawaiiense|Zanthoxylum integrifoliolum|Zanthoxylum integrifolium|Zanthoxylum kauaense|Zanthoxylum piperitum|Zanthoxylum schinifolium|Zanthoxylum zanthoxyloides|Zingiber mioga|common sunflower

>  <collections>  (1573) 
Australian natural products|CMAUP (cCollective molecular activities of useful plants)|EMNPD|FooDB|KNApSaCK|Latin America dataset|Marine Natural Products|Mitishamba database|NPASS|NuBBEDB|Phyto4Health|Super Natural II|TCMDB-Taiwan (Traditional Chinese Medicine database)|TCMID (Traditional Chinese Medicine Integrated Database)|TIPdb (database of Taiwan indigenous plants)|UNPD (Universal Natural Products Database)|VietHerb|WikiData Natural Products

>  <dois>  (1573) 
10.1002/(SICI)1099-1565(199803/04)9:2<88::AID-PCA384>3.0.CO;2-4|10.1002/(SICI)1099-1573(199702)11:1<67::AID-PTR29>3.0.CO;2-I|10.1002/FFJ.1248|10.1002/FFJ.2730050406|10.1002/FFJ.2730060307|10.1002/FFJ.2730100310|10.1002/JCCS.200300178|10.1007/BF01020164|10.1016/0031-9422(88)87020-1|10.1016/0031-9422(91)83485-4|10.1016/0031-9422(95)00852-7|10.1016/0305-1978(92)90055-I|10.1016/0965-1748(93)90021-J|10.1016/J.ACA.2004.09.082|10.1016/J.BMC.2005.07.050|10.1016/J.BSE.2016.02.030|10.1016/J.FOODCHEM.2016.04.071|10.1016/J.PHYTOCHEM.2009.06.013|10.1016/J.TALANTA.2005.04.043|10.1016/S0031-9422(02)00542-3|10.1016/S0031-9422(98)00110-1|10.1016/S0165-022X(00)00079-8|10.1021/JF00085A047|10.1021/JF00123A021|10.1021/JF60201A022|10.1021/JF9911850|10.1021/NP50006A014|10.1021/NP50046A035|10.1021/NP980471N|10.1021/np50006a014|10.1021/np980471n|10.1023/B:JOEC.0000006466.63606.0D|10.1055/S-2006-957420|10.1080/10412905.1989.9697787|10.1080/10412905.1991.9697956|10.1080/10412905.1993.9698191|10.1080/10412905.1995.9698514|10.1080/10412905.1998.9700881|10.1088/1752-7155/8/1/014001|10.1111/J.1365-2621.1985.TB13419.X|10.1186/1471-2180-11-219|10.1271/BBB1961.55.1655|10.17660/ACTAHORTIC.2005.679.1|10.3390/MOLECULES24112053|10.3891/ACTA.CHEM.SCAND.21-2076

>  <synonyms>  (1573) 
2-TRIDECANONE [FCC]|2-TRIDECANONE [FHFI]|2-Tridecankje|2-Tridecanone|2-Tridecanone (natural)|2-Tridecanone, 99%|2-Tridecanone, >=96%, FG|2-Tridecanone, >=98%, natural, FG|2-Tridecanone, analytical standard|2-Tridecanone, purum, >=97.0% (GC)|2TD|593-08-8|5Q35VHX26K|A832256|AI3-04238|AKOS009158653|CAS-593-08-8|CHEBI:77928|CHEMBL480097|CS-W010527|D78019|DB-003333|DTXCID302070|DTXSID4022070|Dimethoxy methyldopa hydrochloride(DMMD)|EINECS 209-784-0|FEMA 3388|FEMA No. 3388|HY-W009811|Hendecyl methyl ketone|LMFA12000058|MFCD00008968|Mathyl undecyl kepoje|Methyl undecyl ketone|NCGC00255260-01|NS00013250|NSC 14763|NSC-14763|PD158263|Q27147536|SCHEMBL119126|T0415|TRIDECANONE|Tox21_301838|Tridecan-2-one|Tridecanone-2|UNII-5Q35VHX26K|W-105331|n-BUTYL-n-OCTYL KETONE

>  <cas>  (1573) 
593-08-8

$$$$

     RDKit          2D

 32 36  0  0  0  0  0  0  0  0999 V2000
   -5.1169   -3.1526    0.0000 C   0  0  0  0  0  0  0  0  0  0  0  0
   -5.3090   -1.6649    0.0000 C   0  0  0  0  0  0  0  0  0  0  0  0
   -6.7407   -2.1124    0.0000 C   0  0  0  0  0  0  0  0  0  0  0  0
   -5.9983   -0.3327    0.0000 C   0  0  0  0  0  0  0  0  0  0  0  0
   -5.1892    0.9304    0.0000 C   0  0  0  0  0  0  0  0  0  0  0  0
   -3.6908    0.8612    0.0000 C   0  0  0  0  0  0  0  0  0  0  0  0
   -4.3801    2.1935    0.0000 C   0  0  0  0  0  0  0  0  0  0  0  0
   -3.0015   -0.4710    0.0000 C   0  0  0  0  0  0  0  0  0  0  0  0
   -3.8106   -1.7341    0.0000 C   0  0  0  0  0  0  0  0  0  0  0  0
   -1.5031   -0.5402    0.0000 C   0  0  0  0  0  0  0  0  0  0  0  0
   -0.8138   -1.8724    0.0000 C   0  0  0  0  0  0  0  0  0  0  0  0
    0.6846   -1.9416    0.0000 C   0  0  0  0  0  0  0  0  0  0  0  0
    1.4937   -0.6785    0.0000 C   0  0  0  0  0  0  0  0  0  0  0  0
    2.9921   -0.7477    0.0000 C   0  0  0  0  0  0  0  0  0  0  0  0
    2.1830   -2.0108    0.0000 C   0  0  0  0  0  0  0  0  0  0  0  0
    3.6814   -2.0799    0.0000 C   0  0  0  0  0  0  0  0  0  0  0  0
    5.1798   -2.1491    0.0000 C   0  0  0  0  0  0  0  0  0  0  0  0
    5.9890   -0.8860    0.0000 C   0  0  0  0  0  0  0  0  0  0  0  0
    7.4874   -0.9552    0.0000 O   0  0  0  0  0  0  0  0  0  0  0  0
    5.2997    0.4462    0.0000 C   0  0  0  0  0  0  0  0  0  0  0  0
    5.1076    1.9339    0.0000 C   0  0  0  0  0  0  0  0  0  0  0  0
    6.7313    0.8937    0.0000 C   0  0  0  0  0  0  0  0  0  0  0  0
    3.8012    0.5154    0.0000 C   0  0  0  0  0  0  0  0  0  0  0  0
    3.1119    1.8476    0.0000 C   0  0  0  0  0  0  0  0  0  0  0  0
    1.6135    1.9168    0.0000 C   0  0  0  0  0  0  0  0  0  0  0  0
    0.8044    0.6537    0.0000 C   0  0  0  0  0  0  0  0  0  0  0  0
    0.1151    1.9860    0.0000 C   0  0  0  0  0  0  0  0  0  0  0  0
   -0.6940    0.7229    0.0000 C   0  0  0  0  0  0  0  0  0  0  0  0
   -2.1924    0.7920    0.0000 C   0  0  0  0  0  0  0  0  0  0  0  0
   -1.3833    2.0551    0.0000 C   0  0  0  0  0  0  0  0  0  0  0  0
   -2.8817    2.1243    0.0000 C   0  0  0  0  0  0  0  0  0  0  0  0
   -3.5710    3.4565    0.0000 O   0  0  0  0  0  0  0  0  0  0  0  0
  1  2  1  0
  2  3  1  0
  2  4  1  0
  4  5  1  0
  5  6  1  0
  6  7  1  1
  6  8  1  0
  8  9  1  0
  8 10  1  0
 10 11  2  0
 11 12  1  0
 12 13  1  0
 13 14  1  0
 14 15  1  1
 14 16  1  0
 16 17  1  0
 17 18  1  0
 18 19  1  6
 18 20  1  0
 20 21  1  0
 20 22  1  0
 20 23  1  0
 23 24  1  0
 24 25  1  0
 25 26  1  0
 26 27  1  1
 26 28  1  0
 28 29  1  6
 28 30  1  0
 30 31  1  0
 31 32  1  1
  9  2  1  0
 28 10  1  0
 31  6  1  0
 26 13  1  0
 23 14  1  0
M  END
>  <identifier>  (1574) 
CNP0198004.4

>  <canonical_smiles>  (1574) 
CC1(C)CC[C@@]2(C)C(C1)C1=CCC3[C@@]4(C)CC[C@@H](O)C(C)(C)C4CC[C@@]3(C)[C@]1(C)C[C@@H]2O

>  <standard_inchi>  (1574) 
InChI=1S/C30H50O2/c1-25(2)15-16-27(5)20(17-25)19-9-10-22-28(6)13-12-23(31)26(3,4)21(28)11-14-29(22,7)30(19,8)18-24(27)32/h9,20-24,31-32H,10-18H2,1-8H3/t20?,21?,22?,23-,24+,27+,28+,29-,30-/m1/s1

>  <standard_inchi_key>  (1574) 
VLRYIIPJIVGFIV-FTQBOGRRSA-N

>  <name>  (1574) 
nan

>  <iupac_name>  (1574) 
(3~{R},6~{a}~{R},6~{b}~{S},8~{S},8~{a}~{S},14~{b}~{R})-4,4,6~{a},6~{b},8~{a},11,11,14~{b}-octamethyl-1,2,3,4~{a},5,6,7,8,9,10,12,12~{a},14,14~{a}-tetradecahydropicene-3,8-diol

>  <annotation_level>  (1574) 
4

>  <total_atom_count>  (1574) 
82

>  <heavy_atom_count>  (1574) 
32

>  <molecular_weight>  (1574) 
442.73

>  <exact_molecular_weight>  (1574) 
442.38108

>  <molecular_formula>  (1574) 
C30H50O2

>  <alogp>  (1574) 
7.14

>  <topological_polar_surface_area>  (1574) 
40.46

>  <rotatable_bond_count>  (1574) 
0

>  <hydrogen_bond_acceptors>  (1574) 
2

>  <hydrogen_bond_donors>  (1574) 
2

>  <hydrogen_bond_acceptors_lipinski>  (1574) 
2

>  <hydrogen_bond_donors_lipinski>  (1574) 
2

>  <lipinski_rule_of_five_violations>  (1574) 
1

>  <aromatic_rings_count>  (1574) 
0

>  <qed_drug_likeliness>  (1574) 
0.39

>  <formal_charge>  (1574) 
0

>  <fractioncsp3>  (1574) 
0.93

>  <number_of_minimal_rings>  (1574) 
5

>  <van_der_walls_volume>  (1574) 
nan

>  <contains_sugar>  (1574) 
False

>  <contains_ring_sugars>  (1574) 
False

>  <contains_linear_sugars>  (1574) 
False

>  <murcko_framework>  (1574) 
C1=C2C3CCCCC3CCC2C4CCC5CCCCC5C4C1

>  <np_likeness>  (1574) 
3.19

>  <chemical_class>  (1574) 
Prenol lipids

>  <chemical_sub_class>  (1574) 
Triterpenoids

>  <chemical_super_class>  (1574) 
Lipids and lipid-like molecules

>  <direct_parent_classification>  (1574) 
Oleanane triterpenoids

>  <np_classifier_pathway>  (1574) 
Terpenoids

>  <np_classifier_superclass>  (1574) 
Triterpenoids

>  <np_classifier_class>  (1574) 
Oleanane triterpenoids

>  <np_classifier_is_glycoside>  (1574) 
False

>  <organisms>  (1574) 
Trattinnickia burserifolia

>  <collections>  (1574) 
Latin America dataset|NuBBEDB

>  <dois>  (1574) 
10.1590/S0103-50532004000300008

>  <synonyms>  (1574) 
3\u221a\u00e9\u00ac\u00b116\u221a\u00e9\u00ac\u2264-dihydroxyolean-12-ene

>  <cas>  (1574) 
nan

$$$$

     RDKit          2D

 30 32  0  0  0  0  0  0  0  0999 V2000
    7.3585   -3.4433    0.0000 C   0  0  0  0  0  0  0  0  0  0  0  0
    7.0922   -1.9671    0.0000 C   0  0  0  0  0  0  0  0  0  0  0  0
    5.6807   -1.4596    0.0000 C   0  0  0  0  0  0  0  0  0  0  0  0
    5.4145    0.0166    0.0000 O   0  0  0  0  0  0  0  0  0  0  0  0
    4.0029    0.5241    0.0000 C   0  0  0  0  0  0  0  0  0  0  0  0
    3.7367    2.0003    0.0000 C   0  0  0  0  0  0  0  0  0  0  0  0
    4.8820    2.9690    0.0000 O   0  0  0  0  0  0  0  0  0  0  0  0
    6.2935    2.4614    0.0000 C   0  0  0  0  0  0  0  0  0  0  0  0
    2.3252    2.5078    0.0000 C   0  0  0  0  0  0  0  0  0  0  0  0
    1.1799    1.5392    0.0000 C   0  0  0  0  0  0  0  0  0  0  0  0
    1.4461    0.0630    0.0000 C   0  0  0  0  0  0  0  0  0  0  0  0
    2.8576   -0.4445    0.0000 C   0  0  0  0  0  0  0  0  0  0  0  0
    3.1239   -1.9207    0.0000 O   0  0  0  0  0  0  0  0  0  0  0  0
    4.5354   -2.4283    0.0000 C   0  0  0  0  0  0  0  0  0  0  0  0
    0.1244   -0.6464    0.0000 O   0  0  0  0  0  0  0  0  0  0  0  0
   -0.9586    0.3914    0.0000 C   0  0  0  0  0  0  0  0  0  0  0  0
   -2.4348    0.1251    0.0000 C   0  0  0  0  0  0  0  0  0  0  0  0
   -3.4035    1.2704    0.0000 C   0  0  0  0  0  0  0  0  0  0  0  0
   -4.8797    1.0042    0.0000 C   0  0  0  0  0  0  0  0  0  0  0  0
   -5.8483    2.1495    0.0000 O   0  0  0  0  0  0  0  0  0  0  0  0
   -5.3408    3.5610    0.0000 C   0  0  0  0  0  0  0  0  0  0  0  0
   -5.3872   -0.4074    0.0000 C   0  0  0  0  0  0  0  0  0  0  0  0
   -6.8634   -0.6736    0.0000 O   0  0  0  0  0  0  0  0  0  0  0  0
   -7.3709   -2.0851    0.0000 C   0  0  0  0  0  0  0  0  0  0  0  0
   -4.4185   -1.5527    0.0000 C   0  0  0  0  0  0  0  0  0  0  0  0
   -4.9260   -2.9642    0.0000 O   0  0  0  0  0  0  0  0  0  0  0  0
   -3.9574   -4.1095    0.0000 C   0  0  0  0  0  0  0  0  0  0  0  0
   -2.9423   -1.2864    0.0000 C   0  0  0  0  0  0  0  0  0  0  0  0
   -0.3063    1.7421    0.0000 C   0  0  0  0  0  0  0  0  0  0  0  0
   -1.0157    3.0638    0.0000 C   0  0  0  0  0  0  0  0  0  0  0  0
  1  2  2  0
  2  3  1  0
  3  4  1  0
  4  5  1  0
  5  6  2  0
  6  7  1  0
  7  8  1  0
  6  9  1  0
  9 10  2  0
 10 11  1  0
 11 12  2  0
 12 13  1  0
 13 14  1  0
 11 15  1  0
 15 16  1  0
 16 17  1  6
 17 18  2  0
 18 19  1  0
 19 20  1  0
 20 21  1  0
 19 22  2  0
 22 23  1  0
 23 24  1  0
 22 25  1  0
 25 26  1  0
 26 27  1  0
 25 28  2  0
 16 29  1  0
 29 30  1  1
 12  5  1  0
 28 17  1  0
 29 10  1  0
M  END
>  <identifier>  (1575) 
CNP0273220.1

>  <canonical_smiles>  (1575) 
C=CCOC1=C(OC)C=C2C(=C1OC)O[C@H](C1=CC(OC)=C(OC)C(OC)=C1)[C@H]2C

>  <standard_inchi>  (1575) 
InChI=1S/C23H28O7/c1-8-9-29-22-18(26-5)12-15-13(2)19(30-20(15)23(22)28-7)14-10-16(24-3)21(27-6)17(11-14)25-4/h8,10-13,19H,1,9H2,2-7H3/t13-,19-/m0/s1

>  <standard_inchi_key>  (1575) 
VBOXAXOKGSZLFP-DJJJIMSYSA-N

>  <name>  (1575) 
nan

>  <iupac_name>  (1575) 
(2~{S},3~{S})-6-allyloxy-5,7-dimethoxy-3-methyl-2-(3,4,5-trimethoxyphenyl)-2,3-dihydrobenzofuran

>  <annotation_level>  (1575) 
4

>  <total_atom_count>  (1575) 
58

>  <heavy_atom_count>  (1575) 
30

>  <molecular_weight>  (1575) 
416.47

>  <exact_molecular_weight>  (1575) 
416.1835

>  <molecular_formula>  (1575) 
C23H28O7

>  <alogp>  (1575) 
4.53

>  <topological_polar_surface_area>  (1575) 
64.61

>  <rotatable_bond_count>  (1575) 
9

>  <hydrogen_bond_acceptors>  (1575) 
7

>  <hydrogen_bond_donors>  (1575) 
0

>  <hydrogen_bond_acceptors_lipinski>  (1575) 
7

>  <hydrogen_bond_donors_lipinski>  (1575) 
0

>  <lipinski_rule_of_five_violations>  (1575) 
0

>  <aromatic_rings_count>  (1575) 
2

>  <qed_drug_likeliness>  (1575) 
0.56

>  <formal_charge>  (1575) 
0

>  <fractioncsp3>  (1575) 
0.39

>  <number_of_minimal_rings>  (1575) 
3

>  <van_der_walls_volume>  (1575) 
nan

>  <contains_sugar>  (1575) 
False

>  <contains_ring_sugars>  (1575) 
False

>  <contains_linear_sugars>  (1575) 
False

>  <murcko_framework>  (1575) 
O1c2ccccc2CC1c3ccccc3

>  <np_likeness>  (1575) 
1.19

>  <chemical_class>  (1575) 
2-arylbenzofuran flavonoids

>  <chemical_sub_class>  (1575) 
2-arylbenzofuran flavonoids

>  <chemical_super_class>  (1575) 
Phenylpropanoids and polyketides

>  <direct_parent_classification>  (1575) 
2-arylbenzofuran flavonoids

>  <np_classifier_pathway>  (1575) 
Shikimates and Phenylpropanoids

>  <np_classifier_superclass>  (1575) 
Lignans

>  <np_classifier_class>  (1575) 
Neolignans

>  <np_classifier_is_glycoside>  (1575) 
False

>  <organisms>  (1575) 
Aniba burchellii

>  <collections>  (1575) 
Latin America dataset|NuBBEDB|Super Natural II|WikiData Natural Products|ZINC NP

>  <dois>  (1575) 
10.1016/0031-9422(75)85358-1|10.1016/S0031-9422(00)89244-4

>  <synonyms>  (1575) 
(2S3S)-6-O-Allyl-57-dimethoxy-2-(3'4'5'-trimethoxyphenyl)-3-methyl-23-dihydrobenzofuran

>  <cas>  (1575) 
nan

$$$$

     RDKit          2D

 30 34  0  0  0  0  0  0  0  0999 V2000
   -8.0286    0.5582    0.0000 C   0  0  0  0  0  0  0  0  0  0  0  0
   -7.0197   -0.5518    0.0000 O   0  0  0  0  0  0  0  0  0  0  0  0
   -5.5540   -0.2330    0.0000 C   0  0  0  0  0  0  0  0  0  0  0  0
   -5.0972    1.1958    0.0000 C   0  0  0  0  0  0  0  0  0  0  0  0
   -3.6314    1.5145    0.0000 C   0  0  0  0  0  0  0  0  0  0  0  0
   -2.6225    0.4046    0.0000 C   0  0  0  0  0  0  0  0  0  0  0  0
   -3.0793   -1.0242    0.0000 C   0  0  0  0  0  0  0  0  0  0  0  0
   -4.5450   -1.3430    0.0000 C   0  0  0  0  0  0  0  0  0  0  0  0
   -5.0018   -2.7717    0.0000 O   0  0  0  0  0  0  0  0  0  0  0  0
   -6.4676   -3.0905    0.0000 C   0  0  0  0  0  0  0  0  0  0  0  0
   -1.1567    0.7233    0.0000 C   0  0  0  0  0  0  0  0  0  0  0  0
   -0.6999    2.1521    0.0000 C   0  0  0  0  0  0  0  0  0  0  0  0
   -1.7089    3.2621    0.0000 C   0  0  0  0  0  0  0  0  0  0  0  0
   -3.1746    2.9433    0.0000 O   0  0  0  0  0  0  0  0  0  0  0  0
    0.7658    2.4708    0.0000 O   0  0  0  0  0  0  0  0  0  0  0  0
    1.7747    1.3609    0.0000 C   0  0  0  0  0  0  0  0  0  0  0  0
    3.2405    1.6796    0.0000 C   0  0  0  0  0  0  0  0  0  0  0  0
    4.2494    0.5697    0.0000 C   0  0  0  0  0  0  0  0  0  0  0  0
    3.7926   -0.8591    0.0000 C   0  0  0  0  0  0  0  0  0  0  0  0
    4.8015   -1.9691    0.0000 C   0  0  0  0  0  0  0  0  0  0  0  0
    6.2673   -1.6503    0.0000 C   0  0  0  0  0  0  0  0  0  0  0  0
    6.7241   -0.2215    0.0000 C   0  0  0  0  0  0  0  0  0  0  0  0
    7.6420    0.9648    0.0000 C   0  0  0  0  0  0  0  0  0  0  0  0
    8.0518   -0.9195    0.0000 C   0  0  0  0  0  0  0  0  0  0  0  0
    5.7151    0.8884    0.0000 O   0  0  0  0  0  0  0  0  0  0  0  0
    2.3269   -1.1779    0.0000 C   0  0  0  0  0  0  0  0  0  0  0  0
    1.8701   -2.6066    0.0000 O   0  0  0  0  0  0  0  0  0  0  0  0
    1.3179   -0.0679    0.0000 C   0  0  0  0  0  0  0  0  0  0  0  0
   -0.1478   -0.3867    0.0000 C   0  0  0  0  0  0  0  0  0  0  0  0
   -0.6046   -1.8154    0.0000 O   0  0  0  0  0  0  0  0  0  0  0  0
  1  2  1  0
  2  3  1  0
  3  4  2  0
  4  5  1  0
  5  6  2  0
  6  7  1  0
  7  8  2  0
  8  9  1  0
  9 10  1  0
  6 11  1  0
 11 12  2  0
 12 13  1  0
 13 14  1  0
 12 15  1  0
 15 16  1  0
 16 17  2  0
 17 18  1  0
 18 19  2  0
 19 20  1  0
 20 21  2  0
 21 22  1  0
 22 23  1  0
 22 24  1  0
 22 25  1  0
 19 26  1  0
 26 27  1  0
 26 28  2  0
 28 29  1  0
 29 30  2  0
  8  3  1  0
 29 11  1  0
 14  5  1  0
 28 16  1  0
 25 18  1  0
M  END
>  <identifier>  (1576) 
CNP0162647.0

>  <canonical_smiles>  (1576) 
COC1=CC2=C(C=C1OC)C1=C(CO2)OC2=CC3=C(C=CC(C)(C)O3)C(O)=C2C1=O

>  <standard_inchi>  (1576) 
InChI=1S/C23H20O7/c1-23(2)6-5-11-14(30-23)9-17-20(21(11)24)22(25)19-12-7-15(26-3)16(27-4)8-13(12)28-10-18(19)29-17/h5-9,24H,10H2,1-4H3

>  <standard_inchi_key>  (1576) 
OAHQAFDPMFGAMP-UHFFFAOYSA-N

>  <name>  (1576) 
nan

>  <iupac_name>  (1576) 
22-hydroxy-6,7-dimethoxy-18,18-dimethyl-10,13,17-trioxapentacyclo[12.8.0.0^{3,12}.0^{4,9}.0^{16,21}]docosa-1(22),3(12),4(9),5,7,14,16(21),19-octaen-2-one

>  <annotation_level>  (1576) 
4

>  <total_atom_count>  (1576) 
50

>  <heavy_atom_count>  (1576) 
30

>  <molecular_weight>  (1576) 
408.41

>  <exact_molecular_weight>  (1576) 
408.1209

>  <molecular_formula>  (1576) 
C23H20O7

>  <alogp>  (1576) 
4.26

>  <topological_polar_surface_area>  (1576) 
87.36

>  <rotatable_bond_count>  (1576) 
2

>  <hydrogen_bond_acceptors>  (1576) 
7

>  <hydrogen_bond_donors>  (1576) 
1

>  <hydrogen_bond_acceptors_lipinski>  (1576) 
7

>  <hydrogen_bond_donors_lipinski>  (1576) 
1

>  <lipinski_rule_of_five_violations>  (1576) 
0

>  <aromatic_rings_count>  (1576) 
3

>  <qed_drug_likeliness>  (1576) 
0.68

>  <formal_charge>  (1576) 
0

>  <fractioncsp3>  (1576) 
0.26

>  <number_of_minimal_rings>  (1576) 
5

>  <van_der_walls_volume>  (1576) 
nan

>  <contains_sugar>  (1576) 
False

>  <contains_ring_sugars>  (1576) 
False

>  <contains_linear_sugars>  (1576) 
False

>  <murcko_framework>  (1576) 
O1c2cc3OCC=Cc3cc2CC4=C1COc5ccccc54

>  <np_likeness>  (1576) 
2.26

>  <chemical_class>  (1576) 
Isoflavonoids

>  <chemical_sub_class>  (1576) 
Rotenoids

>  <chemical_super_class>  (1576) 
Phenylpropanoids and polyketides

>  <direct_parent_classification>  (1576) 
Rotenones

>  <np_classifier_pathway>  (1576) 
Shikimates and Phenylpropanoids

>  <np_classifier_superclass>  (1576) 
Isoflavonoids

>  <np_classifier_class>  (1576) 
Rotenoids

>  <np_classifier_is_glycoside>  (1576) 
False

>  <organisms>  (1576) 
Derris canarensis|Derris cuneifolia|Tephrosia candida

>  <collections>  (1576) 
Latin America dataset|NuBBEDB|Super Natural II|UNPD (Universal Natural Products Database)|WikiData Natural Products|ZINC NP

>  <dois>  (1576) 
10.1002/(SICI)1521-4168(19980901)21:9<513::AID-JHRC513>3.0.CO,2-F|10.1016/S0031-9422(97)00405-6|10.1248/CPB.41.1456

>  <synonyms>  (1576) 
6a12a-dehydro-\u221a\u00e9\u00ac\u2264-toxicarol

>  <cas>  (1576) 
nan

$$$$

     RDKit          2D

 11 10  0  0  0  0  0  0  0  0999 V2000
   -6.4952   -0.3409    0.0000 C   0  0  0  0  0  0  0  0  0  0  0  0
   -5.1962    0.4091    0.0000 C   0  0  0  0  0  0  0  0  0  0  0  0
   -3.8971   -0.3409    0.0000 C   0  0  0  0  0  0  0  0  0  0  0  0
   -2.5981    0.4091    0.0000 C   0  0  0  0  0  0  0  0  0  0  0  0
   -1.2990   -0.3409    0.0000 C   0  0  0  0  0  0  0  0  0  0  0  0
    0.0000    0.4091    0.0000 C   0  0  0  0  0  0  0  0  0  0  0  0
    1.2990   -0.3409    0.0000 C   0  0  0  0  0  0  0  0  0  0  0  0
    2.5981    0.4091    0.0000 C   0  0  0  0  0  0  0  0  0  0  0  0
    3.8971   -0.3409    0.0000 C   0  0  0  0  0  0  0  0  0  0  0  0
    5.1962    0.4091    0.0000 C   0  0  0  0  0  0  0  0  0  0  0  0
    6.4952   -0.3409    0.0000 C   0  0  0  0  0  0  0  0  0  0  0  0
  1  2  1  0
  2  3  1  0
  3  4  1  0
  4  5  1  0
  5  6  1  0
  6  7  1  0
  7  8  1  0
  8  9  1  0
  9 10  1  0
 10 11  1  0
M  END
>  <identifier>  (1577) 
CNP0270748.0

>  <canonical_smiles>  (1577) 
CCCCCCCCCCC

>  <standard_inchi>  (1577) 
InChI=1S/C11H24/c1-3-5-7-9-11-10-8-6-4-2/h3-11H2,1-2H3

>  <standard_inchi_key>  (1577) 
RSJKGSCJYJTIGS-UHFFFAOYSA-N

>  <name>  (1577) 
Undecane

>  <iupac_name>  (1577) 
undecane

>  <annotation_level>  (1577) 
5

>  <total_atom_count>  (1577) 
35

>  <heavy_atom_count>  (1577) 
11

>  <molecular_weight>  (1577) 
156.31

>  <exact_molecular_weight>  (1577) 
156.1878

>  <molecular_formula>  (1577) 
C11H24

>  <alogp>  (1577) 
4.54

>  <topological_polar_surface_area>  (1577) 
0.00

>  <rotatable_bond_count>  (1577) 
8

>  <hydrogen_bond_acceptors>  (1577) 
0

>  <hydrogen_bond_donors>  (1577) 
0

>  <hydrogen_bond_acceptors_lipinski>  (1577) 
0

>  <hydrogen_bond_donors_lipinski>  (1577) 
0

>  <lipinski_rule_of_five_violations>  (1577) 
0

>  <aromatic_rings_count>  (1577) 
0

>  <qed_drug_likeliness>  (1577) 
0.45

>  <formal_charge>  (1577) 
0

>  <fractioncsp3>  (1577) 
1.00

>  <number_of_minimal_rings>  (1577) 
0

>  <van_der_walls_volume>  (1577) 
193.46

>  <contains_sugar>  (1577) 
False

>  <contains_ring_sugars>  (1577) 
False

>  <contains_linear_sugars>  (1577) 
False

>  <murcko_framework>  (1577) 
nan

>  <np_likeness>  (1577) 
0.22

>  <chemical_class>  (1577) 
Saturated hydrocarbons

>  <chemical_sub_class>  (1577) 
Alkanes

>  <chemical_super_class>  (1577) 
Hydrocarbons

>  <direct_parent_classification>  (1577) 
Alkanes

>  <np_classifier_pathway>  (1577) 
Fatty acids

>  <np_classifier_superclass>  (1577) 
Fatty acyls

>  <np_classifier_class>  (1577) 
Hydrocarbons

>  <np_classifier_is_glycoside>  (1577) 
False

>  <organisms>  (1577) 
Acronychia haplophylla|Alligator sinensis|Allium ampeloprasum|Amauris niavius|Ammodendron karelinii|Anacyclus pyrethrum|Angelica acutiloba|Angelica gigas|Angelica sinensis|Araucaria cunninghamii|Aristolochia cymbifera|Aristolochia didyma|Aristolochia gigantea|Aristolochia macroura|Aristolochia triangularis|Asarum megacalyx|Ascotricha chartarum|Aster scaber|Aster tataricus|Astilbe chinensis|Atractylodes lancea|Atractylodes macrocephala|Brachylaena perrieri|Brassica hirta|Brassica napus|Buglossoides arvensis|Camellia sinensis|Cannabis sativa|Caryocar coriaceum|Centaurea benedicta|Ceratophyllum demersum|Cetraria komarovii|Chaenomeles sinensis|Chrysanthemum indicum|Chrysanthemum macrocarpum|Chrysanthemum x morifolium|Cistus creticus|Cistus ladanifer|Cistus laurifolius|Cistus monspeliensis|Citrus aurantiifolia|Clinopodium suaveolens|Cnicus benedictus|Combretum indicum|Commiphora quadricincta|Crinum giganteum|Cryptomeria japonica var. sinensis|Curcuma longa|Cuscuta australis|Daphne odora|Dendranthema indicum|Dendrobium chrysanthum|Dendrodoris limbata|Diplotropis ferruginea|Dryopteris abbreviata|Ducrosia ismaelis|Elaeis guineensis|Elettaria cardamomum|Elsholtzia ciliata|Etlingera elatior|Eucalyptus viminalis|Euphrasia regelii|Euschistus heros|Fructus galangae|Gynura Segetum|Gynura japonica|Gynura segetum|Hamamelis virginiana|Hedgehog-shaped lip Bulbophyllum|Helenium mexicanum|Hericium erinaceus|Heterotropa|Homo sapiens|Homo sapiens (Feces)|Homo sapiens (Skin)|Hortonia angustifolia|Houttuynia cordata|Humicola grisea|Hypericum perforatum|Hypericum rumeliacum|Hypericum triquetrifolium|Illicium difengpi|Inga umbellifera|Juglans nigra|Julbernardia globifera|Juniperus chinensis|Lactarius flavidulus|Laggera pterodonta|Lantana camara|Lepraria chlorina|Lycium barbarum|Lycium chinense|Mangifera indica|Medicosma fareana|Meiogyne virgata|Mentha sylvestris|Michelia alba|Micromeria myrtifolia|Miliusa balansae|Mimusops laurifolia|Mosla chinensis|Myrrhis odorata|Nepeta racemosa|Oecophylla smaragdina|Ophiomastix mixta|Origanum vulgare|Oryza sativa|Oscillatoria raoi|Othonna macrophylla|Pellia epiphylla|Pentachondra pumila|Persicaria hydropiperoides|Persicaria minor|Petasites hybridus|Phagnalon rupestre|Phlomis ostrowskiana|Phlox decussata|Phoma linga|Phyllanthus emblica|Pieris melete|Pieris napi|Piliostigma thonningii|Pimpinella anisum|Pimpinella peregrina|Pinus flexilis|Pinus koraiensis|Pinus lambertiana|Pinus monticola|Pinus ponderosa|Plakortis lita|Platynereis dumerilii|Polygonum Minus|Polygonum minus|Polygonum odoratum|Proiphys amboinensis|Quercus coccifera|Rosa multiflora|Salix petiolaris|Salvia caespitosa|Salvia lanigera|Salvia pisidica|Sauromatum venosum|Scutellaria baicalensis|Scymnorhinus lichia|Semen astragali complanati|Senecio isatideus|Senecio nemorensis|Senna alexandrina|Solanum crinitum|Streptomyces|Streptomyces sp. KX852461|Trigonella foenum-graecum|Tubocapsicum anomalum|Uncaria longiflora|Uperoleia inundata|Ursinia speciosa|Vaccinium angustifolium|Vallesia glabra|bellis perennis|garden chervil|liquorice|potato|tomato

>  <collections>  (1577) 
ANPDB|Australian natural products|CMAUP (cCollective molecular activities of useful plants)|EMNPD|FooDB|KNApSaCK|Latin America dataset|NANPDB (Natural Products from Northern African Sources)|NPASS|NuBBEDB|Phyto4Health|StreptomeDB|Super Natural II|TCMDB-Taiwan (Traditional Chinese Medicine database)|TCMID (Traditional Chinese Medicine Integrated Database)|UNPD (Universal Natural Products Database)|VietHerb|WikiData Natural Products

>  <dois>  (1577) 
10.1002/(SICI)1099-1026(199901/02)14:1<15::AID-FFJ777>3.0.CO;2-M|10.1002/CBDV.201800531|10.1002/CJOC.201180379|10.1002/FFJ.1161|10.1002/FFJ.1588|10.1002/JEZ.1402460308|10.1002/JPS.3030450205|10.1002/JPS.3030450308|10.1002/JPS.3080220906|10.1002/PTR.1093|10.1006/JFCA.1999.0841|10.1007/BF01947255|10.1007/BF02118429|10.1007/S00709-019-01372-4|10.1007/S11306-007-0058-2|10.1007/s10600-009-9209-1|10.1016/0031-9422(95)00183-8|10.1016/0305-1978(93)90029-Q|10.1016/J.CHROMA.2014.10.058|10.1016/J.FOODCHEM.2012.09.111|10.1016/J.IJFOODMICRO.2008.10.017|10.1016/J.JEP.2010.12.007|10.1016/J.PHYTOCHEM.2009.06.013|10.1016/J.RENENE.2017.12.012|10.1016/S0031-9422(00)81449-1|10.1016/S0031-9422(00)85875-6|10.1016/S0031-9422(00)90341-8|10.1016/S0031-9422(00)94756-3|10.1016/S0031-9422(96)00559-6|10.1016/S0031-9422(98)00022-3|10.1016/S0305-1978(97)00097-5|10.1021/JF00034A033|10.1021/JF00085A053|10.1021/JF00120A031|10.1021/NP50008A001|10.1021/jf00120a031|10.1055/S-0028-1099484|10.1055/S-2006-957420|10.1055/S-2006-962451|10.1055/S-2007-969591|10.1071/CH9600367|10.1071/ch9600367|10.1080/00021369.1990.10870456|10.1080/00387018508062249|10.1080/10412905.1991.9697935|10.1080/10412905.1991.9697974|10.1080/10412905.1992.9698015|10.1080/10412905.1992.9698128|10.1080/10412905.1993.9698191|10.1080/10412905.1993.9698205|10.1080/10412905.1993.9698253|10.1080/10412905.1994.9698413|10.1080/10412905.1995.9698508|10.1080/10412905.1995.9698546|10.1080/10412905.1997.9700789|10.1080/10412905.1998.9700944|10.1088/1752-7155/8/1/014001|10.1096/fj.06-6927com|10.1135/CCCC19811048|10.1186/S13568-017-0351-Z|10.1186/s13568-017-0351-z|10.1271/BBB1961.47.483|10.1271/BBB1961.54.3335|10.1271/NOGEIKAGAKU1924.61.1119|10.1371/journal.pone.0073076|10.1515/ZNC-1982-1-202|10.1515/ZNC-1984-7-802|10.1515/ZNC-1984-7-803|10.1515/ZNC-1988-5-604|10.17660/ACTAHORTIC.1999.500.11|10.3390/MOLECULES191119220|10.3390/MOLECULES20045346

>  <synonyms>  (1577) 
1120-21-4|17398EC4-D16F-42F6-8A27-60F8EC075469|2-Undecane|4-01-00-00487 (Beilstein Handbook Reference)|61193-21-3|AI3-21126|AKOS005145675|BRN 1697099|CAS-1120-21-4|CCRIS 3796|CH3-(CH2)9-CH3|CH3-[CH2]9-CH3|CHEBI:46342|CHEMBL132474|CS-0148678|DB-041031|DTXCID301689|DTXSID9021689|Decane, methyl-|EC 214-300-6|EINECS 214-300-6|HALPACLEAN|HSDB 5791|HY-N8593|Hendecane|Hendekan|InChI=1\/C11H24\/c1-3-5-7-9-11-10-8-6-4-2\/h3-11H2,1-2H|J-002689|JV0QT00NUE|LMFA11000591|LS-14030|MFCD00008959|N-UNDECANE|N-UNDECANE [HSDB]|NCGC00247896-01|NCGC00254001-01|NIKKO ELACE|NS00004614|NSC 66159|NSC-66159|Q150731|QSPL 058|Tox21_300076|U0002|UN2330|UND|UNDECANE [INCI]|UNDECANE, N-|UNII-JV0QT00NUE|Undecane|Undecane [UN2330]  [Flammable liquid]|Undecane, >=99%|Undecane, analytical standard|Undekan|n-C11H24|n-undecane|undecan

>  <cas>  (1577) 
1120-21-4|61193-21-3

$$$$

     RDKit          2D

 34 37  0  0  0  0  0  0  0  0999 V2000
   -6.0239   -2.8447    0.0000 C   0  0  0  0  0  0  0  0  0  0  0  0
   -5.3679   -1.4958    0.0000 C   0  0  0  0  0  0  0  0  0  0  0  0
   -6.2080   -0.2532    0.0000 C   0  0  0  0  0  0  0  0  0  0  0  0
   -3.8716   -1.3895    0.0000 C   0  0  0  0  0  0  0  0  0  0  0  0
   -3.0314   -2.6321    0.0000 C   0  0  0  0  0  0  0  0  0  0  0  0
   -1.5352   -2.5258    0.0000 C   0  0  0  0  0  0  0  0  0  0  0  0
   -0.8792   -1.1769    0.0000 C   0  0  0  0  0  0  0  0  0  0  0  0
   -2.3754   -1.2832    0.0000 C   0  0  0  0  0  0  0  0  0  0  0  0
   -1.7194    0.0657    0.0000 C   0  0  0  0  0  0  0  0  0  0  0  0
   -1.0633    1.4147    0.0000 C   0  0  0  0  0  0  0  0  0  0  0  0
    0.4329    1.5210    0.0000 C   0  0  0  0  0  0  0  0  0  0  0  0
    1.2731    0.2784    0.0000 C   0  0  0  0  0  0  0  0  0  0  0  0
    2.7587    0.0713    0.0000 C   0  0  0  0  0  0  0  0  0  0  0  0
    3.7995    1.1515    0.0000 C   0  0  0  0  0  0  0  0  0  0  0  0
    2.6165    2.0736    0.0000 C   0  0  0  0  0  0  0  0  0  0  0  0
    4.5930    2.4244    0.0000 C   0  0  0  0  0  0  0  0  0  0  0  0
    6.0488    2.0632    0.0000 C   0  0  0  0  0  0  0  0  0  0  0  0
    6.1551    0.5670    0.0000 C   0  0  0  0  0  0  0  0  0  0  0  0
    7.4281   -0.2265    0.0000 C   0  0  0  0  0  0  0  0  0  0  0  0
    8.2215    1.0465    0.0000 C   0  0  0  0  0  0  0  0  0  0  0  0
    6.6346   -1.4995    0.0000 C   0  0  0  0  0  0  0  0  0  0  0  0
    8.7011   -1.0199    0.0000 O   0  0  0  0  0  0  0  0  0  0  0  0
    4.7650    0.0035    0.0000 O   0  0  0  0  0  0  0  0  0  0  0  0
    3.0209   -1.4056    0.0000 C   0  0  0  0  0  0  0  0  0  0  0  0
    1.6972   -2.1113    0.0000 C   0  0  0  0  0  0  0  0  0  0  0  0
    0.6171   -1.0706    0.0000 C   0  0  0  0  0  0  0  0  0  0  0  0
    0.1056   -2.4807    0.0000 C   0  0  0  0  0  0  0  0  0  0  0  0
   -3.2156   -0.0406    0.0000 C   0  0  0  0  0  0  0  0  0  0  0  0
   -3.0605    1.4514    0.0000 C   0  0  0  0  0  0  0  0  0  0  0  0
   -4.6579    0.3713    0.0000 C   0  0  0  0  0  0  0  0  0  0  0  0
   -5.0225    1.8263    0.0000 C   0  0  0  0  0  0  0  0  0  0  0  0
   -6.4648    2.2381    0.0000 C   0  0  0  0  0  0  0  0  0  0  0  0
   -7.5427    1.1949    0.0000 O   0  0  0  0  0  0  0  0  0  0  0  0
   -6.8293    3.6932    0.0000 O   0  0  0  0  0  0  0  0  0  0  0  0
  1  2  2  0
  2  3  1  0
  2  4  1  0
  4  5  1  0
  5  6  1  0
  6  7  1  0
  7  8  1  1
  7  9  1  0
  9 10  1  0
 10 11  1  0
 11 12  1  0
 12 13  1  0
 13 14  1  0
 14 15  1  1
 14 16  1  0
 16 17  1  0
 17 18  1  0
 18 19  1  1
 19 20  1  0
 19 21  1  0
 19 22  1  0
 18 23  1  0
 13 24  1  1
 24 25  1  0
 25 26  1  0
 26 27  1  6
  9 28  1  0
 28 29  1  1
 28 30  1  0
 30 31  1  0
 31 32  1  0
 32 33  2  0
 32 34  1  0
 28  4  1  0
 26  7  1  0
 26 12  1  0
 23 14  1  0
M  END
>  <identifier>  (1578) 
CNP0215020.6

>  <canonical_smiles>  (1578) 
C=C(C)C1CC[C@]2(C)C(CCC3[C@@H]([C@]4(C)CC[C@@H](C(C)(C)O)O4)CC[C@]32C)[C@@]1(C)CCC(=O)O

>  <standard_inchi>  (1578) 
InChI=1S/C30H50O4/c1-19(2)20-11-17-29(7)23(27(20,5)15-14-25(31)32)10-9-21-22(12-16-28(21,29)6)30(8)18-13-24(34-30)26(3,4)33/h20-24,33H,1,9-18H2,2-8H3,(H,31,32)/t20?,21?,22-,23?,24-,27-,28+,29+,30-/m0/s1

>  <standard_inchi_key>  (1578) 
ZKBGKWZSOPPDSD-ZUAHWYTLSA-N

>  <name>  (1578) 
nan

>  <iupac_name>  (1578) 
3-[(3~{S},6~{S},9~{a}~{R},9~{b}~{R})-3-[(2~{S},5~{S})-5-(1-hydroxy-1-methyl-ethyl)-2-methyl-tetrahydrofuran-2-yl]-7-isopropenyl-6,9~{a},9~{b}-trimethyl-1,2,3,3~{a},4,5,5~{a},7,8,9-decahydrocyclopenta[a]naphthalen-6-yl]propanoic acid

>  <annotation_level>  (1578) 
4

>  <total_atom_count>  (1578) 
84

>  <heavy_atom_count>  (1578) 
34

>  <molecular_weight>  (1578) 
474.73

>  <exact_molecular_weight>  (1578) 
474.37091

>  <molecular_formula>  (1578) 
C30H50O4

>  <alogp>  (1578) 
7.00

>  <topological_polar_surface_area>  (1578) 
66.76

>  <rotatable_bond_count>  (1578) 
6

>  <hydrogen_bond_acceptors>  (1578) 
3

>  <hydrogen_bond_donors>  (1578) 
2

>  <hydrogen_bond_acceptors_lipinski>  (1578) 
3

>  <hydrogen_bond_donors_lipinski>  (1578) 
2

>  <lipinski_rule_of_five_violations>  (1578) 
1

>  <aromatic_rings_count>  (1578) 
0

>  <qed_drug_likeliness>  (1578) 
0.41

>  <formal_charge>  (1578) 
0

>  <fractioncsp3>  (1578) 
0.90

>  <number_of_minimal_rings>  (1578) 
4

>  <van_der_walls_volume>  (1578) 
nan

>  <contains_sugar>  (1578) 
False

>  <contains_ring_sugars>  (1578) 
False

>  <contains_linear_sugars>  (1578) 
False

>  <murcko_framework>  (1578) 
O1CCCC1C2CCC3C4CCCCC4CCC23

>  <np_likeness>  (1578) 
2.90

>  <chemical_class>  (1578) 
Prenol lipids

>  <chemical_sub_class>  (1578) 
Terpene glycosides

>  <chemical_super_class>  (1578) 
Lipids and lipid-like molecules

>  <direct_parent_classification>  (1578) 
Diterpene glycosides

>  <np_classifier_pathway>  (1578) 
Terpenoids

>  <np_classifier_superclass>  (1578) 
Triterpenoids

>  <np_classifier_class>  (1578) 
Dammarane and Protostane triterpenoids

>  <np_classifier_is_glycoside>  (1578) 
False

>  <organisms>  (1578) 
Cabralea canjerana

>  <collections>  (1578) 
Latin America dataset|NuBBEDB

>  <dois>  (1578) 
10.1016/j.bse.2005.10.012

>  <synonyms>  (1578) 
20S24S-epoxy-25-hydroxy-34-secodammar-4(28)-en-3-oic acid

>  <cas>  (1578) 
nan

$$$$

     RDKit          2D

 15 16  0  0  0  0  0  0  0  0999 V2000
   -0.0407   -2.7650    0.0000 C   0  0  0  0  0  0  0  0  0  0  0  0
   -0.8939   -1.5312    0.0000 C   0  0  0  0  0  0  0  0  0  0  0  0
   -2.3890   -1.6533    0.0000 C   0  0  0  0  0  0  0  0  0  0  0  0
   -3.2422   -0.4195    0.0000 C   0  0  0  0  0  0  0  0  0  0  0  0
   -2.6003    0.9362    0.0000 C   0  0  0  0  0  0  0  0  0  0  0  0
   -1.1053    1.0582    0.0000 C   0  0  0  0  0  0  0  0  0  0  0  0
   -1.4851    2.5094    0.0000 C   0  0  0  0  0  0  0  0  0  0  0  0
    0.0659    1.9955    0.0000 C   0  0  0  0  0  0  0  0  0  0  0  0
   -0.2521   -0.1755    0.0000 C   0  0  0  0  0  0  0  0  0  0  0  0
    0.6011   -1.4092    0.0000 C   0  0  0  0  0  0  0  0  0  0  0  0
    2.0961   -1.2872    0.0000 C   0  0  0  0  0  0  0  0  0  0  0  0
    2.7380    0.0685    0.0000 C   0  0  0  0  0  0  0  0  0  0  0  0
    4.2330    0.1906    0.0000 C   0  0  0  0  0  0  0  0  0  0  0  0
    1.8848    1.3023    0.0000 C   0  0  0  0  0  0  0  0  0  0  0  0
    0.3897    1.1802    0.0000 C   0  0  0  0  0  0  0  0  0  0  0  0
  1  2  2  0
  2  3  1  0
  3  4  1  0
  4  5  1  0
  5  6  1  0
  6  7  1  0
  6  8  1  0
  6  9  1  0
  9 10  1  1
 10 11  1  0
 11 12  2  0
 12 13  1  0
 12 14  1  0
 14 15  1  0
  9  2  1  0
 15  9  1  0
M  END
>  <identifier>  (1579) 
CNP0243325.1

>  <canonical_smiles>  (1579) 
C=C1CCCC(C)(C)[C@@]12CC=C(C)CC2

>  <standard_inchi>  (1579) 
InChI=1S/C15H24/c1-12-7-10-15(11-8-12)13(2)6-5-9-14(15,3)4/h7H,2,5-6,8-11H2,1,3-4H3/t15-/m1/s1

>  <standard_inchi_key>  (1579) 
WLNGPDPILFYWKF-OAHLLOKOSA-N

>  <name>  (1579) 
(-)-beta-Chamigrene

>  <iupac_name>  (1579) 
(6~{R})-5,5,9-trimethyl-1-methylene-spiro[5.5]undec-9-ene

>  <annotation_level>  (1579) 
5

>  <total_atom_count>  (1579) 
39

>  <heavy_atom_count>  (1579) 
15

>  <molecular_weight>  (1579) 
204.36

>  <exact_molecular_weight>  (1579) 
204.1878

>  <molecular_formula>  (1579) 
C15H24

>  <alogp>  (1579) 
4.87

>  <topological_polar_surface_area>  (1579) 
0.00

>  <rotatable_bond_count>  (1579) 
0

>  <hydrogen_bond_acceptors>  (1579) 
0

>  <hydrogen_bond_donors>  (1579) 
0

>  <hydrogen_bond_acceptors_lipinski>  (1579) 
0

>  <hydrogen_bond_donors_lipinski>  (1579) 
0

>  <lipinski_rule_of_five_violations>  (1579) 
0

>  <aromatic_rings_count>  (1579) 
0

>  <qed_drug_likeliness>  (1579) 
0.49

>  <formal_charge>  (1579) 
0

>  <fractioncsp3>  (1579) 
0.73

>  <number_of_minimal_rings>  (1579) 
2

>  <van_der_walls_volume>  (1579) 
223.86

>  <contains_sugar>  (1579) 
False

>  <contains_ring_sugars>  (1579) 
False

>  <contains_linear_sugars>  (1579) 
False

>  <murcko_framework>  (1579) 
C1=CCC2(CC1)CCCCC2

>  <np_likeness>  (1579) 
3.28

>  <chemical_class>  (1579) 
Prenol lipids

>  <chemical_sub_class>  (1579) 
Sesquiterpenoids

>  <chemical_super_class>  (1579) 
Lipids and lipid-like molecules

>  <direct_parent_classification>  (1579) 
Chamigranes

>  <np_classifier_pathway>  (1579) 
Terpenoids

>  <np_classifier_superclass>  (1579) 
Sesquiterpenoids

>  <np_classifier_class>  (1579) 
Chamigrane sesquiterpenoids

>  <np_classifier_is_glycoside>  (1579) 
False

>  <organisms>  (1579) 
Achillea alpina|Achillea moschata|Angelica sinensis|Antillogorgia americana|Apium graveolens|Arabidopsis thaliana|Aristolochia debilis|Artemisia absinthium|Artemisia annua|Atractylodes lancea|Bazzania angustifolia|Bazzania japonica|Bazzania tridens|Bazzania trilobata|Bazzania trilobata L.|Cedrela odorata|Centella asiatica|Chamaecyparis taiwanensis|Cheilolejeunea filiformis|Chiloscyphus polyanthos|Croton eluteria|Culcitium canescens|Cymbopogon schoenanthus|Fructus schiandrae|Frullania incumbens|Heteroscyphus aselliformis|Lepidozia borneensis|Lindera aggregata|Mangifera indica|Marchantia palmata|Marchantia polymorpha|Marsupella emarginata|Nepeta leucophylla|Ocotea austinii|Oenanthe javanica|Omphalanthus filiformis|Pimenta racemosa|Plagiochila rutilans var. moritziana|Pseudopterogorgia americana|Psidium guajava|Santalum spicatum|Scapania undulata|Schisandra Chinensis|Schisandra chinensis|Skimmia laureola|Thuja orientalis|Valeriana officinalis|Wurfbainia villosa

>  <collections>  (1579) 
ANPDB|Australian natural products|CMAUP (cCollective molecular activities of useful plants)|ChEBI NPs|KNApSaCK|Latin America dataset|NANPDB (Natural Products from Northern African Sources)|NAPRORE-CR|NPASS|NPEdia|NuBBEDB|Super Natural II|TCMDB-Taiwan (Traditional Chinese Medicine database)|VietHerb|WikiData Natural Products|ZINC NP

>  <dois>  (1579) 
10.1002/CBDV.201400340|10.1002/FFJ.2730060307|10.1002/JCCS.199900029|10.1002/JSSC.200800341|10.1006/JFCA.1999.0841|10.1016/0031-9422(82)80055-1|10.1016/0031-9422(90)80125-Z|10.1016/0031-9422(91)83456-U|10.1016/0031-9422(94)00682-J|10.1016/J.APJTM.2016.06.009|10.1016/J.CHROMA.2007.12.011|10.1016/S0031-9422(00)82294-3|10.1016/S0031-9422(00)97558-7|10.1016/S0031-9422(00)98249-9|10.1016/S0031-9422(02)00214-5|10.1016/S0031-9422(02)00542-3|10.1016/S0031-9422(03)00188-2|10.1016/S0031-9422(99)00123-5|10.1016/S0031-9422(99)00159-4|10.1016/S0040-4020(01)91974-X|10.1021/JF0402633|10.1021/NP50052A041|10.1055/S-2003-37024|10.1080/10412905.1989.9697780|10.1080/10412905.1991.9697952|10.1080/10412905.1994.9698382|10.1080/10412905.1997.9700822|10.1080/10412905.2007.9699946|10.1080/10412905.2013.796498|10.1111/J.1365-313X.2005.02417.X|10.1177/1934578X0800301225|10.1177/1934578x0800300531|10.1515/ZNB-1990-1118|10.1590/S0103-50532000000600012

>  <synonyms>  (1579) 
(-)-chamigrene|(6R)-3,7,7-trimethyl-11-methylidenespiro[5.5]undec-2-ene|(R)-11-Methylene-3,7,7-trimethylspiro[5.5]undec-2-ene|(R)-beta-chamigrene|18431-82-8|C09637|CHEBI:10359|Chamigrene|DTXSID60939822|Q27108622|WLNGPDPILFYWKF-OAHLLOKOSA-N|\u221a\u00e9\u00ac\u2264-Chamigrene|_-chamigrene|beta-Chamigrene

>  <cas>  (1579) 
18431-82-8

$$$$

     RDKit          2D

 16 18  0  0  0  0  0  0  0  0999 V2000
   -1.0927   -3.2855    0.0000 C   0  0  0  0  0  0  0  0  0  0  0  0
    0.0760   -2.3453    0.0000 C   0  0  0  0  0  0  0  0  0  0  0  0
    1.5236   -2.7382    0.0000 C   0  0  0  0  0  0  0  0  0  0  0  0
    2.3446   -1.4828    0.0000 C   0  0  0  0  0  0  0  0  0  0  0  0
    1.4044   -0.3140    0.0000 C   0  0  0  0  0  0  0  0  0  0  0  0
    0.0023   -0.8471    0.0000 C   0  0  0  0  0  0  0  0  0  0  0  0
   -1.2887   -0.0833    0.0000 C   0  0  0  0  0  0  0  0  0  0  0  0
   -1.4964    1.4023    0.0000 C   0  0  0  0  0  0  0  0  0  0  0  0
   -0.4644    2.4909    0.0000 C   0  0  0  0  0  0  0  0  0  0  0  0
    1.0301    2.3628    0.0000 C   0  0  0  0  0  0  0  0  0  0  0  0
    1.8618    1.1145    0.0000 C   0  0  0  0  0  0  0  0  0  0  0  0
    2.8937    2.2031    0.0000 C   0  0  0  0  0  0  0  0  0  0  0  0
    3.1527    0.3507    0.0000 O   0  0  0  0  0  0  0  0  0  0  0  0
   -2.6791    0.4796    0.0000 C   0  0  0  0  0  0  0  0  0  0  0  0
   -3.7931    1.4841    0.0000 C   0  0  0  0  0  0  0  0  0  0  0  0
   -3.4748   -0.7919    0.0000 C   0  0  0  0  0  0  0  0  0  0  0  0
  2  1  1  1
  2  3  1  0
  3  4  1  0
  5  4  1  1
  5  6  1  0
  6  7  1  0
  7  8  1  0
  8  9  1  6
  9 10  1  0
 10 11  1  0
 11 12  1  1
 11 13  1  0
  8 14  1  0
 14 15  1  0
 14 16  1  0
  6  2  1  1
  7 14  1  6
 11  5  1  0
M  END
>  <identifier>  (1580) 
CNP0210398.9

>  <canonical_smiles>  (1580) 
C[C@@H]1CC[C@H]2[C@@H]1[C@H]1[C@@H](CC[C@]2(C)O)C1(C)C

>  <standard_inchi>  (1580) 
InChI=1S/C15H26O/c1-9-5-6-10-12(9)13-11(14(13,2)3)7-8-15(10,4)16/h9-13,16H,5-8H2,1-4H3/t9-,10+,11-,12-,13-,15+/m1/s1

>  <standard_inchi_key>  (1580) 
AYXPYQRXGNDJFU-IMNVLQEYSA-N

>  <name>  (1580) 
Viridiflorol

>  <iupac_name>  (1580) 
(1~{a}~{R},4~{S},4~{a}~{S},7~{R},7~{a}~{S},7~{b}~{S})-1,1,4,7-tetramethyl-2,3,4~{a},5,6,7,7~{a},7~{b}-octahydro-1~{a}~{H}-cyclopropa[e]azulen-4-ol

>  <annotation_level>  (1580) 
5

>  <total_atom_count>  (1580) 
42

>  <heavy_atom_count>  (1580) 
16

>  <molecular_weight>  (1580) 
222.37

>  <exact_molecular_weight>  (1580) 
222.19837

>  <molecular_formula>  (1580) 
C15H26O

>  <alogp>  (1580) 
3.47

>  <topological_polar_surface_area>  (1580) 
20.23

>  <rotatable_bond_count>  (1580) 
0

>  <hydrogen_bond_acceptors>  (1580) 
1

>  <hydrogen_bond_donors>  (1580) 
1

>  <hydrogen_bond_acceptors_lipinski>  (1580) 
1

>  <hydrogen_bond_donors_lipinski>  (1580) 
1

>  <lipinski_rule_of_five_violations>  (1580) 
0

>  <aromatic_rings_count>  (1580) 
0

>  <qed_drug_likeliness>  (1580) 
0.67

>  <formal_charge>  (1580) 
0

>  <fractioncsp3>  (1580) 
1.00

>  <number_of_minimal_rings>  (1580) 
3

>  <van_der_walls_volume>  (1580) 
236.62

>  <contains_sugar>  (1580) 
False

>  <contains_ring_sugars>  (1580) 
False

>  <contains_linear_sugars>  (1580) 
False

>  <murcko_framework>  (1580) 
C1CC2CCCC2C3CC3C1

>  <np_likeness>  (1580) 
3.13

>  <chemical_class>  (1580) 
Prenol lipids

>  <chemical_sub_class>  (1580) 
Sesquiterpenoids

>  <chemical_super_class>  (1580) 
Lipids and lipid-like molecules

>  <direct_parent_classification>  (1580) 
Guaianes

>  <np_classifier_pathway>  (1580) 
Terpenoids

>  <np_classifier_superclass>  (1580) 
Sesquiterpenoids

>  <np_classifier_class>  (1580) 
Aromadendrane sesquiterpenoids

>  <np_classifier_is_glycoside>  (1580) 
False

>  <organisms>  (1580) 
Aca sellowiana|Acacia rhodoxylon|Actinodium cunninghamii|Agastache rugosa|Aglaia silvestris|Ajuga chamaepitys|Aloysia citriodora|Aloysia citrodora|Aloysia triphylla|Amaranthus hypochondriacus|Amomum villosum|Amphilophis odorata|Angelica acutiloba|Angelica gigas|Angelica sinensis|Artemisia annua L.|Artemisia apiacea|Artemisia capillaris|Artocarpus altilis|Austrobaileya scandens|Austromyrtus dulcis|Austromyrtus tenuifolia|Baccharis dracunculifolia|Bazzania japonica|Bazzania trilobata|Beilschmiedia pendula|Berberis repens|Bitter bush|Bouchardatia neurococca|Bupleurum chinense|Bupleurum falcatum|Bupleurum scorzonerifolium|Callicarpa japonica|Callistemon linearis|Callistemon polandii|Calypogeia muelleriana|Cantinoa mutabilis|Cassinia quinquefaria|Cedrela odorata|Chaetanthera chilensis|Cinnamomum aromaticum|Cinnamomum parthenoxylon|Citrus maxima|Conocephalum conicum|Corymbia citriodora|Creolophus cirrhatus|Croton hemiargyreus|Croton jimenezii|Croton laccifer|Curcuma kwangsiensis|Curcuma phaeocaulis|Curcuma pierreana|Curcuma wenyujin|Curcuma zedoaria|Dacrydium nausoriense|Darwinia citriodora|Dendrilla cavernosa|Diphasiastrum thyoides|Echinocereus merkeri|Elsholtzia ciliata|Eucalyptus angulosa|Eucalyptus approximans|Eucalyptus behriana|Eucalyptus brassiana|Eucalyptus bridgesiana|Eucalyptus burgessiana|Eucalyptus ceratocorys|Eucalyptus citriodora|Eucalyptus cloeziana|Eucalyptus cuprea|Eucalyptus dealbata|Eucalyptus dendromorpha|Eucalyptus dolichorhyncha|Eucalyptus fasciculosa|Eucalyptus forrestiana|Eucalyptus fraxinoides|Eucalyptus incrassata|Eucalyptus intertexta|Eucalyptus jensenii|Eucalyptus lansdowneana|Eucalyptus leucoxylon|Eucalyptus melanophloia|Eucalyptus nova-anglica|Eucalyptus ochrophloia|Eucalyptus odorata|Eucalyptus populnea|Eucalyptus porosa|Eucalyptus pulverulenta|Eucalyptus radiata|Eucalyptus stoatei|Eucalyptus tetraptera|Eucalyptus viridis|Euphorbia myrsinites|Flourensia cernua|Foeniculum vulgare|Fomes robiniae|Galbulimima belgraveana|Gymnothorax javanicus|Hamamelis virginiana|Helichrysum amorginum|Helichrysum italicum|Helichrysum stoechas|Helicteres angustifolia|Himantandra baccata|Hippeastrum papilio|Humulus lupulus|Hygrophorus chrysodon|Hypericum perforatum|Hyptis mutabilis|Ilex microdonta|Ips confusus|Kunzea ericoides|Kunzea flavescens|Kunzea pauciflora|Kunzea salina|Kunzea sinclairii|Lepechinia chamaedryoides|Lepechinia chilensis|Lepechinia floribunda|Lepidozia fauriana|Limnocharis flava|Lindera aggregata|Lindera strichnifolia|Manekia naranjoana|Melaleuca Leucadendra|Melaleuca alternifolia|Melaleuca leucadendra|Melaleuca linariifolia|Melaleuca quinquenervia|Melia dubia|Mentha cablin|Mentha longifolia|Mentha piperita|Mentha pulegium|Mentha spicata|Metrosideros perforata|Millettia ferruginea|Mosla chinensis|Ocotea gomezii|Ocotea morae|Oplopanax elatus|Osbornia octodonta|Panax ginseng|Pelargonium endlicherianum|Peperomia galioides|Piper aduncum|Piper arboreum|Piper augustum|Piper rusbyi|Polyporus dryadeus|Psiadia altissima|Psidium friedrichsthalianum|Ptarmica ptarmicifolia|Rhododendron mucronulatum|Salvia absconditiflora|Salvia broussoneti|Salvia caespitosa|Salvia officinalis|Salvia syriaca|Salvia vermifolia|Sarcophyton glaucum|Saussurea lappa|Schinus lentiscifolia|Schinus lentiscifolius|Schinus molle|Sedum litoreum|Senecio viscosus|Sideritis lyciae|Sideritis montana|Smallanthus maculatus|Stockwellia|Tagetes lucida|Tagetes minuta|Teucrium asiaticum|Teucrium leucocladum|Teucrium pseudoscorodonia|Thermopsis dolichocarpa|Thymus camphoratus|Thymus funkii|Thymus longiflorus|Thymus zygis|Toona ciliata|Valeriana jatamansi|Vicia amurensis|Virola surinamensis|Vitex agnus-castus|Vitex negundo|Wyethia mollis|Zanthoxylum fraxineum|Zea mays|water mint

>  <collections>  (1580) 
ANPDB|Australian natural products|CMAUP (cCollective molecular activities of useful plants)|Latin America dataset|NANPDB (Natural Products from Northern African Sources)|NAPRORE-CR|NPASS|NPDBEjeCol|NuBBEDB|SANCDB|Super Natural II|TCMDB-Taiwan (Traditional Chinese Medicine database)|VietHerb|WikiData Natural Products|ZINC NP

>  <dois>  (1580) 
10.1002/(SICI)1099-1026(199601)11:1<15::AID-FFJ541>3.0.CO;2-H|10.1002/(SICI)1099-1026(199607)11:4<231::AID-FFJ572>3.0.CO;2-0|10.1002/(SICI)1099-1026(199701)12:1<47::AID-FFJ610>3.0.CO;2-7|10.1002/FFJ.2730090305|10.1002/FFJ.2730100203|10.1002/FFJ.2730100605|10.1002/FFJ.2730100609|10.1007/BF01386197|10.1007/BF02269705|10.1007/s10600-009-9213-5|10.1016/0031-9422(82)85188-1|10.1016/0031-9422(90)85269-L|10.1016/0031-9422(91)83064-R|10.1016/0031-9422(92)80396-V|10.1016/0031-9422(95)00347-A|10.1016/J.BSE.2003.12.009|10.1016/J.PHYTOCHEM.2008.08.025|10.1016/J.PHYTOCHEM.2011.09.002|10.1016/J.PHYTOL.2014.03.007|10.1016/S0003-2670(01)01307-1|10.1016/S0021-9673(00)00231-4|10.1016/S0031-9422(00)86634-0|10.1016/S0031-9422(01)00322-3|10.1016/S0031-9422(02)00207-8|10.1016/S0031-9422(03)00188-2|10.1016/S0031-9422(97)00117-9|10.1016/S0031-9422(97)00203-3|10.1016/S0031-9422(97)00762-0|10.1016/S0031-9422(98)00283-0|10.1016/S0031-9422(98)00768-7|10.1016/S0031-9422(99)00123-5|10.1016/S0040-4039(01)99416-X|10.1016/S0378-8741(99)00072-0|10.1016/j.foodchem.2020.127109|10.1016/j.phytochem.2019.112249|10.1016/s0040-4039(01)99416-x|10.1021/JF00034A020|10.1021/JF00118A056|10.1021/NP0102859|10.1021/NP0105679|10.1021/NP040002N|10.1021/NP400872M|10.1021/NP50046A047|10.1021/NP9606052|10.1021/jf011456i|10.1021/np400872m|10.1055/S-2003-39704|10.1055/S-2006-957420|10.1055/S-2006-957641|10.1055/S-2006-957814|10.1055/S-2006-957914|10.1055/S-2006-959580|10.1055/S-2006-960356|10.1055/S-2006-960872|10.1055/S-2006-961452|10.1055/S-2006-961743|10.1055/S-2007-967123|10.1055/S-2007-969442|10.1071/CH9550550|10.1071/ch9550550|10.1076/1388-0209(200004)3821-1FT106|10.1076/PHBI.40.1.67.5852|10.1080/10412905.1990.9697829|10.1080/10412905.1991.9697906|10.1080/10412905.1991.9697984|10.1080/10412905.1992.9698006|10.1080/10412905.1992.9698069|10.1080/10412905.1992.9698129|10.1080/10412905.1992.9698155|10.1080/10412905.1993.9698162|10.1080/10412905.1993.9698164|10.1080/10412905.1994.9698327|10.1080/10412905.1994.9698380|10.1080/10412905.1994.9698408|10.1080/10412905.1994.9698435|10.1080/10412905.1994.9698440|10.1080/10412905.1994.9698446|10.1080/10412905.1994.9699347|10.1080/10412905.1994.9699358|10.1080/10412905.1994.9699365|10.1080/10412905.1995.9698462|10.1080/10412905.1995.9698469|10.1080/10412905.1995.9698496|10.1080/10412905.1995.9698508|10.1080/10412905.1995.9698516|10.1080/10412905.1996.9700558|10.1080/10412905.1996.9701048|10.1080/10412905.1999.9701111|10.1080/10412905.1999.9701113|10.1080/10412905.2000.9712167|10.1080/10412905.2000.9712195|10.1080/10412905.2001.9699606|10.1080/10412905.2002.9699883|10.1080/10412905.2004.9698740|10.1080/10412905.2010.9700320|10.1080/10412905.2018.1431966|10.1080/10575639308043814|10.1080/14786410701848154|10.1093/CHROMSCI/38.6.234|10.1135/CCCC19850080|10.1155/2015/863913|10.1177/1934578X1100600135|10.1271/NOGEIKAGAKU1924.67.1417|10.1590/S0103-50532000000600012|10.1590/S0103-50532011000400018|10.5650/JOS.61.291

>  <synonyms>  (1580) 
(+)-Viridiflorol|(1AR-(1A.ALPHA.,4.BETA.,4A.BETA.,7.ALPHA.,7A.BETA.,7B.ALPHA.))-DECAHYDRO-1,1,4,7-TETRAMETHYL-1H-CYCLOPROP(E)AZULEN-4-OL|(1AR-(1aalpha,4beta,4abeta,7alpha,7abeta,7balpha))-decahydro-1,1,4,7-tetramethyl-1H-cycloprop(e)azulen-4-ol|(1aR,4S,4aS,7R,7aS,7bS)-1,1,4,7-tetramethyl-2,3,4a,5,6,7,7a,7b-octahydro-1aH-cyclopropa[e]azulen-4-ol|(1aR,4S,4aS,7R,7aS,7bS)-1,1,4,7-tetramethyldecahydro-1H-cyclopropa(e)azulen-4-ol|1H-CYCLOPROP(E)AZULEN-4-OL, DECAHYDRO-1,1,4,7-TETRAMETHYL-, (1AR,4S,4AS,7R,7AS,7BS)-|1H-Cycloprop(e)azulen-4-ol, decahydro-1,1,4,7-tetramethyl-, (1aR-(1aalpha,4beta,4abeta,7alpha,7abeta,7balpha))-|552-02-3|AYXPYQRXGNDJFU-IMNVLQEYSA-N|CHEBI:156228|CHEMBL3120647|DTXSID80881213|EINECS 209-003-3|HN71V2CRMY|Himbaccol|Q27280014|SCHEMBL17627696|UNII-HN71V2CRMY|VIRIDIFLOROL, (+)-|Viridiflorol, analytical standard|d-Viridiflorol|viridi\u00d4\u00a8\u00c7orol|viridi\ufb02orol|viridiflorol

>  <cas>  (1580) 
552-02-3

$$$$

     RDKit          2D

 11 10  0  0  0  0  0  0  0  0999 V2000
    3.5963    0.7649    0.0000 C   0  0  0  0  0  0  0  0  0  0  0  0
    2.3935   -0.1313    0.0000 C   0  0  0  0  0  0  0  0  0  0  0  0
    2.5681   -1.6211    0.0000 O   0  0  0  0  0  0  0  0  0  0  0  0
    1.0159    0.4623    0.0000 C   0  0  0  0  0  0  0  0  0  0  0  0
    0.8413    1.9521    0.0000 O   0  0  0  0  0  0  0  0  0  0  0  0
   -0.1869   -0.4338    0.0000 C   0  0  0  0  0  0  0  0  0  0  0  0
   -0.0123   -1.9236    0.0000 O   0  0  0  0  0  0  0  0  0  0  0  0
   -1.5645    0.1598    0.0000 C   0  0  0  0  0  0  0  0  0  0  0  0
   -1.7391    1.6496    0.0000 O   0  0  0  0  0  0  0  0  0  0  0  0
   -2.7674   -0.7363    0.0000 C   0  0  0  0  0  0  0  0  0  0  0  0
   -4.1449   -0.1427    0.0000 O   0  0  0  0  0  0  0  0  0  0  0  0
  2  1  1  6
  2  3  1  0
  2  4  1  0
  4  5  1  1
  4  6  1  0
  6  7  1  6
  6  8  1  0
  8  9  1  6
  8 10  1  0
 10 11  2  0
M  END
>  <identifier>  (1581) 
CNP0379717.9

>  <canonical_smiles>  (1581) 
C[C@H](O)[C@H](O)[C@H](O)[C@@H](O)C=O

>  <standard_inchi>  (1581) 
InChI=1S/C6H12O5/c1-3(8)5(10)6(11)4(9)2-7/h2-6,8-11H,1H3/t3-,4-,5-,6+/m0/s1

>  <standard_inchi_key>  (1581) 
PNNNRSAQSRJVSB-OMMKOOBNSA-N

>  <name>  (1581) 
6-Deoxy-L-altrose

>  <iupac_name>  (1581) 
(2~{R},3~{S},4~{S},5~{S})-2,3,4,5-tetrahydroxyhexanal

>  <annotation_level>  (1581) 
5

>  <total_atom_count>  (1581) 
23

>  <heavy_atom_count>  (1581) 
11

>  <molecular_weight>  (1581) 
164.16

>  <exact_molecular_weight>  (1581) 
164.06847

>  <molecular_formula>  (1581) 
C6H12O5

>  <alogp>  (1581) 
-2.35

>  <topological_polar_surface_area>  (1581) 
97.99

>  <rotatable_bond_count>  (1581) 
4

>  <hydrogen_bond_acceptors>  (1581) 
5

>  <hydrogen_bond_donors>  (1581) 
4

>  <hydrogen_bond_acceptors_lipinski>  (1581) 
5

>  <hydrogen_bond_donors_lipinski>  (1581) 
4

>  <lipinski_rule_of_five_violations>  (1581) 
0

>  <aromatic_rings_count>  (1581) 
0

>  <qed_drug_likeliness>  (1581) 
0.35

>  <formal_charge>  (1581) 
0

>  <fractioncsp3>  (1581) 
0.83

>  <number_of_minimal_rings>  (1581) 
0

>  <van_der_walls_volume>  (1581) 
nan

>  <contains_sugar>  (1581) 
True

>  <contains_ring_sugars>  (1581) 
False

>  <contains_linear_sugars>  (1581) 
True

>  <murcko_framework>  (1581) 
nan

>  <np_likeness>  (1581) 
2.16

>  <chemical_class>  (1581) 
Organooxygen compounds

>  <chemical_sub_class>  (1581) 
Carbonyl compounds

>  <chemical_super_class>  (1581) 
Organic oxygen compounds

>  <direct_parent_classification>  (1581) 
Medium-chain aldehydes

>  <np_classifier_pathway>  (1581) 
Carbohydrates

>  <np_classifier_superclass>  (1581) 
Saccharides

>  <np_classifier_class>  (1581) 
Monosaccharides

>  <np_classifier_is_glycoside>  (1581) 
False

>  <organisms>  (1581) 
Siphoneugena densiflora

>  <collections>  (1581) 
Latin America dataset|NuBBEDB|WikiData Natural Products|ZINC NP

>  <dois>  (1581) 
10.1590/S0103-50532006000200010

>  <synonyms>  (1581) 
(2R,3S,4S,5S)-2,3,4,5-tetrahydroxyhexanal|6-DEOXY-D-ALTROSE|CHEBI:194167|Rhamnose|SCHEMBL333049

>  <cas>  (1581) 
nan

$$$$

     RDKit          2D

 26 30  0  0  0  0  0  0  0  0999 V2000
    5.4345   -0.7104    0.0000 C   0  0  0  0  0  0  0  0  0  0  0  0
    5.1901    0.7695    0.0000 C   0  0  0  0  0  0  0  0  0  0  0  0
    6.3495    1.7212    0.0000 O   0  0  0  0  0  0  0  0  0  0  0  0
    3.7862    1.2978    0.0000 N   0  0  0  0  0  0  0  0  0  0  0  0
    2.6267    0.3462    0.0000 C   0  0  0  0  0  0  0  0  0  0  0  0
    1.2228    0.8744    0.0000 C   0  0  0  0  0  0  0  0  0  0  0  0
    0.0634   -0.0772    0.0000 C   0  0  0  0  0  0  0  0  0  0  0  0
   -1.3405    0.4510    0.0000 C   0  0  0  0  0  0  0  0  0  0  0  0
   -2.4999   -0.5006    0.0000 C   0  0  0  0  0  0  0  0  0  0  0  0
   -2.2555   -1.9806    0.0000 C   0  0  0  0  0  0  0  0  0  0  0  0
   -3.6594   -1.4523    0.0000 C   0  0  0  0  0  0  0  0  0  0  0  0
   -3.9038    0.0276    0.0000 N   0  0  0  0  0  0  0  0  0  0  0  0
   -5.3077    0.5559    0.0000 C   0  0  0  0  0  0  0  0  0  0  0  0
   -5.5522    2.0359    0.0000 C   0  0  0  0  0  0  0  0  0  0  0  0
   -4.3927    2.9875    0.0000 C   0  0  0  0  0  0  0  0  0  0  0  0
   -2.9888    2.4593    0.0000 C   0  0  0  0  0  0  0  0  0  0  0  0
   -2.7444    0.9793    0.0000 C   0  0  0  0  0  0  0  0  0  0  0  0
   -0.8516   -2.5089    0.0000 C   0  0  0  0  0  0  0  0  0  0  0  0
   -0.6072   -3.9888    0.0000 C   0  0  0  0  0  0  0  0  0  0  0  0
    0.7967   -4.5171    0.0000 C   0  0  0  0  0  0  0  0  0  0  0  0
    1.9562   -3.5654    0.0000 C   0  0  0  0  0  0  0  0  0  0  0  0
    1.7117   -2.0855    0.0000 C   0  0  0  0  0  0  0  0  0  0  0  0
    0.3078   -1.5572    0.0000 N   0  0  0  0  0  0  0  0  0  0  0  0
    0.9784    2.3544    0.0000 C   0  0  0  0  0  0  0  0  0  0  0  0
    2.1379    3.3060    0.0000 C   0  0  0  0  0  0  0  0  0  0  0  0
    3.5417    2.7778    0.0000 C   0  0  0  0  0  0  0  0  0  0  0  0
  1  2  1  0
  2  3  2  0
  2  4  1  0
  4  5  1  0
  5  6  2  0
  7  6  1  1
  7  8  1  0
  8  9  1  0
  9 10  1  0
 10 11  1  1
 11 12  1  0
 12 13  1  0
 13 14  1  0
 14 15  1  0
 15 16  1  0
 16 17  1  0
 10 18  1  0
 18 19  1  0
 19 20  1  0
 20 21  1  0
 21 22  1  0
 22 23  1  0
  6 24  1  0
 24 25  1  0
 25 26  1  0
 26  4  1  0
 23  7  1  0
  8 17  1  6
 23 18  1  0
 17 12  1  0
M  END
>  <identifier>  (1582) 
CNP0304913.1

>  <canonical_smiles>  (1582) 
CC(=O)N1C=C([C@@H]2[C@@H]3C[C@H](CN4CCCCC34)C3CCCCN32)CCC1

>  <standard_inchi>  (1582) 
InChI=1S/C22H35N3O/c1-16(26)23-11-6-7-17(14-23)22-19-13-18(20-8-3-5-12-25(20)22)15-24-10-4-2-9-21(19)24/h14,18-22H,2-13,15H2,1H3/t18-,19-,20?,21?,22-/m1/s1

>  <standard_inchi_key>  (1582) 
HTZABNNPQGCYSI-WWOKZEJKSA-N

>  <name>  (1582) 
nan

>  <iupac_name>  (1582) 
1-[5-[(1~{R},8~{S},9~{R})-7,15-diazatetracyclo[7.7.1.0^{2,7}.0^{10,15}]heptadecan-8-yl]-3,4-dihydro-2~{H}-pyridin-1-yl]ethanone

>  <annotation_level>  (1582) 
4

>  <total_atom_count>  (1582) 
61

>  <heavy_atom_count>  (1582) 
26

>  <molecular_weight>  (1582) 
357.54

>  <exact_molecular_weight>  (1582) 
357.27801

>  <molecular_formula>  (1582) 
C22H35N3O

>  <alogp>  (1582) 
3.24

>  <topological_polar_surface_area>  (1582) 
26.79

>  <rotatable_bond_count>  (1582) 
1

>  <hydrogen_bond_acceptors>  (1582) 
3

>  <hydrogen_bond_donors>  (1582) 
0

>  <hydrogen_bond_acceptors_lipinski>  (1582) 
3

>  <hydrogen_bond_donors_lipinski>  (1582) 
0

>  <lipinski_rule_of_five_violations>  (1582) 
0

>  <aromatic_rings_count>  (1582) 
0

>  <qed_drug_likeliness>  (1582) 
0.72

>  <formal_charge>  (1582) 
0

>  <fractioncsp3>  (1582) 
0.86

>  <number_of_minimal_rings>  (1582) 
5

>  <van_der_walls_volume>  (1582) 
nan

>  <contains_sugar>  (1582) 
False

>  <contains_ring_sugars>  (1582) 
False

>  <contains_linear_sugars>  (1582) 
False

>  <murcko_framework>  (1582) 
C=1NCCCC1C2N3CCCCC3C4CN5CCCCC5C2C4

>  <np_likeness>  (1582) 
1.04

>  <chemical_class>  (1582) 
Lupin alkaloids

>  <chemical_sub_class>  (1582) 
Sparteine, lupanine, and related alkaloids

>  <chemical_super_class>  (1582) 
Alkaloids and derivatives

>  <direct_parent_classification>  (1582) 
Sparteine, lupanine, and related alkaloids

>  <np_classifier_pathway>  (1582) 
Alkaloids

>  <np_classifier_superclass>  (1582) 
Lysine alkaloids

>  <np_classifier_class>  (1582) 
Quinolizidine alkaloids

>  <np_classifier_is_glycoside>  (1582) 
False

>  <organisms>  (1582) 
Acosmium dasycarpum

>  <collections>  (1582) 
Latin America dataset|NuBBEDB

>  <dois>  (1582) 
10.1016/j.tetlet.2008.06.124

>  <synonyms>  (1582) 
acosmine

>  <cas>  (1582) 
nan

$$$$

     RDKit          2D

 31 34  0  0  0  0  0  0  0  0999 V2000
    3.8971   -4.6623    0.0000 C   0  0  0  0  0  0  0  0  0  0  0  0
    3.8971   -3.1623    0.0000 C   0  0  0  0  0  0  0  0  0  0  0  0
    2.5981   -2.4123    0.0000 C   0  0  0  0  0  0  0  0  0  0  0  0
    2.5981   -0.9123    0.0000 C   0  0  0  0  0  0  0  0  0  0  0  0
    1.2990   -0.1623    0.0000 C   0  0  0  0  0  0  0  0  0  0  0  0
   -0.0000   -0.9123    0.0000 C   0  0  0  0  0  0  0  0  0  0  0  0
   -1.2990   -0.1623    0.0000 C   0  0  0  0  0  0  0  0  0  0  0  0
   -2.5981   -0.9123    0.0000 C   0  0  0  0  0  0  0  0  0  0  0  0
   -2.5981   -2.4123    0.0000 C   0  0  0  0  0  0  0  0  0  0  0  0
   -3.8971   -3.1623    0.0000 C   0  0  0  0  0  0  0  0  0  0  0  0
   -3.8971   -4.6623    0.0000 C   0  0  0  0  0  0  0  0  0  0  0  0
   -5.1962   -2.4123    0.0000 O   0  0  0  0  0  0  0  0  0  0  0  0
   -5.1962   -0.9123    0.0000 C   0  0  0  0  0  0  0  0  0  0  0  0
   -3.8971   -0.1623    0.0000 C   0  0  0  0  0  0  0  0  0  0  0  0
   -3.8971    1.3377    0.0000 C   0  0  0  0  0  0  0  0  0  0  0  0
   -5.1962    2.0877    0.0000 O   0  0  0  0  0  0  0  0  0  0  0  0
   -2.5981    2.0877    0.0000 C   0  0  0  0  0  0  0  0  0  0  0  0
   -1.6339    3.2368    0.0000 C   0  0  0  0  0  0  0  0  0  0  0  0
   -3.5623    3.2368    0.0000 O   0  0  0  0  0  0  0  0  0  0  0  0
   -1.2990    1.3377    0.0000 C   0  0  0  0  0  0  0  0  0  0  0  0
   -0.5131    1.9300    0.0000 O   0  0  0  0  0  0  0  0  0  0  0  0
    1.2990    1.3377    0.0000 C   0  0  0  0  0  0  0  0  0  0  0  0
    0.5131    1.9300    0.0000 O   0  0  0  0  0  0  0  0  0  0  0  0
    2.5981    2.0877    0.0000 C   0  0  0  0  0  0  0  0  0  0  0  0
    3.5623    3.2368    0.0000 C   0  0  0  0  0  0  0  0  0  0  0  0
    1.6339    3.2368    0.0000 O   0  0  0  0  0  0  0  0  0  0  0  0
    3.8971    1.3377    0.0000 C   0  0  0  0  0  0  0  0  0  0  0  0
    5.1962    2.0877    0.0000 O   0  0  0  0  0  0  0  0  0  0  0  0
    3.8971   -0.1623    0.0000 C   0  0  0  0  0  0  0  0  0  0  0  0
    5.1962   -0.9123    0.0000 C   0  0  0  0  0  0  0  0  0  0  0  0
    5.1962   -2.4123    0.0000 O   0  0  0  0  0  0  0  0  0  0  0  0
  1  2  1  0
  2  3  2  0
  3  4  1  0
  4  5  2  0
  5  6  1  0
  6  7  1  0
  7  8  2  0
  8  9  1  0
  9 10  2  0
 10 11  1  0
 10 12  1  0
 12 13  1  0
 13 14  2  0
 14 15  1  0
 15 16  1  6
 15 17  1  0
 17 18  1  6
 17 19  1  0
 17 20  1  0
 20 21  2  0
  5 22  1  0
 22 23  2  0
 22 24  1  0
 24 25  1  1
 24 26  1  0
 24 27  1  0
 27 28  1  1
 27 29  1  0
 29 30  2  0
 30 31  1  0
 31  2  1  0
 29  4  1  0
 20  7  1  0
 14  8  1  0
M  END
>  <identifier>  (1583) 
CNP0356345.1

>  <canonical_smiles>  (1583) 
CC1=CC2=C(CC3=C4C=C(C)OC=C4[C@H](O)[C@@](C)(O)C3=O)C(=O)[C@](C)(O)[C@@H](O)C2=CO1

>  <standard_inchi>  (1583) 
InChI=1S/C23H24O8/c1-10-5-12-14(18(24)22(3,28)20(26)16(12)8-30-10)7-15-13-6-11(2)31-9-17(13)21(27)23(4,29)19(15)25/h5-6,8-9,20-21,26-29H,7H2,1-4H3/t20-,21-,22-,23-/m0/s1

>  <standard_inchi_key>  (1583) 
NUEAJZBUQLVGMV-MLCQCVOFSA-N

>  <name>  (1583) 
Mycoleptone A

>  <iupac_name>  (1583) 
(7~{R},8~{S})-5-[[(7~{R},8~{S})-7,8-dihydroxy-3,7-dimethyl-6-oxo-8~{H}-isochromen-5-yl]methyl]-7,8-dihydroxy-3,7-dimethyl-8~{H}-isochromen-6-one

>  <annotation_level>  (1583) 
5

>  <total_atom_count>  (1583) 
55

>  <heavy_atom_count>  (1583) 
31

>  <molecular_weight>  (1583) 
428.44

>  <exact_molecular_weight>  (1583) 
428.14712

>  <molecular_formula>  (1583) 
C23H24O8

>  <alogp>  (1583) 
0.99

>  <topological_polar_surface_area>  (1583) 
133.52

>  <rotatable_bond_count>  (1583) 
2

>  <hydrogen_bond_acceptors>  (1583) 
8

>  <hydrogen_bond_donors>  (1583) 
4

>  <hydrogen_bond_acceptors_lipinski>  (1583) 
8

>  <hydrogen_bond_donors_lipinski>  (1583) 
4

>  <lipinski_rule_of_five_violations>  (1583) 
0

>  <aromatic_rings_count>  (1583) 
0

>  <qed_drug_likeliness>  (1583) 
0.51

>  <formal_charge>  (1583) 
0

>  <fractioncsp3>  (1583) 
0.39

>  <number_of_minimal_rings>  (1583) 
4

>  <van_der_walls_volume>  (1583) 
nan

>  <contains_sugar>  (1583) 
False

>  <contains_ring_sugars>  (1583) 
False

>  <contains_linear_sugars>  (1583) 
False

>  <murcko_framework>  (1583) 
O1C=CC=2C(=C1)CCCC2CC3=C4C=COC=C4CCC3

>  <np_likeness>  (1583) 
1.75

>  <chemical_class>  (1583) 
Azaphilones

>  <chemical_sub_class>  (1583) 
Azaphilones

>  <chemical_super_class>  (1583) 
Organoheterocyclic compounds

>  <direct_parent_classification>  (1583) 
Azaphilones

>  <np_classifier_pathway>  (1583) 
Polyketides

>  <np_classifier_superclass>  (1583) 
Chromanes

>  <np_classifier_class>  (1583) 
Azaphilones

>  <np_classifier_is_glycoside>  (1583) 
False

>  <organisms>  (1583) 
Muyocopron sahnii|Mycoleptodiscus indicus

>  <collections>  (1583) 
Latin America dataset|NPAtlas|NuBBEDB|WikiData Natural Products|ZINC NP

>  <dois>  (1583) 
10.1021/NP4006822|10.1021/np4006822

>  <synonyms>  (1583) 
(7R,8S)-5-[[(7R,8S)-7,8-dihydroxy-3,7-dimethyl-6-oxo-8H-isochromen-5-yl]methyl]-7,8-dihydroxy-3,7-dimethyl-8H-isochromen-6-one|CHEBI:197832|CHEMBL3104954|Mycoleptone A|Q57451895

>  <cas>  (1583) 
nan

$$$$

     RDKit          2D

 24 26  0  0  0  0  0  0  0  0999 V2000
   -6.3509   -1.3670    0.0000 C   0  0  0  0  0  0  0  0  0  0  0  0
   -4.8632   -1.5581    0.0000 C   0  0  0  0  0  0  0  0  0  0  0  0
   -4.2848   -2.9421    0.0000 C   0  0  0  0  0  0  0  0  0  0  0  0
   -3.9538   -0.3652    0.0000 C   0  0  0  0  0  0  0  0  0  0  0  0
   -2.4660   -0.5564    0.0000 C   0  0  0  0  0  0  0  0  0  0  0  0
   -1.5566    0.6365    0.0000 C   0  0  0  0  0  0  0  0  0  0  0  0
   -2.1350    2.0205    0.0000 C   0  0  0  0  0  0  0  0  0  0  0  0
   -3.6227    2.2117    0.0000 O   0  0  0  0  0  0  0  0  0  0  0  0
   -1.2256    3.2134    0.0000 C   0  0  0  0  0  0  0  0  0  0  0  0
    0.2622    3.0223    0.0000 C   0  0  0  0  0  0  0  0  0  0  0  0
    1.1716    4.2152    0.0000 O   0  0  0  0  0  0  0  0  0  0  0  0
    0.8406    1.6383    0.0000 C   0  0  0  0  0  0  0  0  0  0  0  0
   -0.0688    0.4454    0.0000 C   0  0  0  0  0  0  0  0  0  0  0  0
    0.5096   -0.9386    0.0000 N   0  0  0  0  0  0  0  0  0  0  0  0
   -0.3998   -2.1315    0.0000 C   0  0  0  0  0  0  0  0  0  0  0  0
    1.9973   -1.1297    0.0000 C   0  0  0  0  0  0  0  0  0  0  0  0
    2.5757   -2.5137    0.0000 C   0  0  0  0  0  0  0  0  0  0  0  0
    1.6663   -3.7066    0.0000 O   0  0  0  0  0  0  0  0  0  0  0  0
    4.0635   -2.7048    0.0000 C   0  0  0  0  0  0  0  0  0  0  0  0
    4.9729   -1.5120    0.0000 C   0  0  0  0  0  0  0  0  0  0  0  0
    4.3945   -0.1279    0.0000 C   0  0  0  0  0  0  0  0  0  0  0  0
    2.9067    0.0632    0.0000 C   0  0  0  0  0  0  0  0  0  0  0  0
    2.3284    1.4472    0.0000 C   0  0  0  0  0  0  0  0  0  0  0  0
    3.2378    2.6401    0.0000 O   0  0  0  0  0  0  0  0  0  0  0  0
  1  2  1  0
  2  3  1  0
  2  4  2  0
  4  5  1  0
  5  6  1  0
  6  7  2  0
  7  8  1  0
  7  9  1  0
  9 10  2  0
 10 11  1  0
 10 12  1  0
 12 13  2  0
 13 14  1  0
 14 15  1  0
 14 16  1  0
 16 17  2  0
 17 18  1  0
 17 19  1  0
 19 20  2  0
 20 21  1  0
 21 22  2  0
 22 23  1  0
 23 24  2  0
 13  6  1  0
 22 16  1  0
 23 12  1  0
M  END
>  <identifier>  (1584) 
CNP0302536.0

>  <canonical_smiles>  (1584) 
CC(C)=CCC1=C(O)C=C(O)C2=C1N(C)C1=C(O)C=CC=C1C2=O

>  <standard_inchi>  (1584) 
InChI=1S/C19H19NO4/c1-10(2)7-8-11-14(22)9-15(23)16-18(11)20(3)17-12(19(16)24)5-4-6-13(17)21/h4-7,9,21-23H,8H2,1-3H3

>  <standard_inchi_key>  (1584) 
OPPJKACRWCPJGU-UHFFFAOYSA-N

>  <name>  (1584) 
Glycocitrine-I

>  <iupac_name>  (1584) 
1,3,5-trihydroxy-10-methyl-4-(3-methylbut-2-enyl)acridin-9-one

>  <annotation_level>  (1584) 
5

>  <total_atom_count>  (1584) 
43

>  <heavy_atom_count>  (1584) 
24

>  <molecular_weight>  (1584) 
325.36

>  <exact_molecular_weight>  (1584) 
325.13141

>  <molecular_formula>  (1584) 
C19H19NO4

>  <alogp>  (1584) 
3.32

>  <topological_polar_surface_area>  (1584) 
82.69

>  <rotatable_bond_count>  (1584) 
2

>  <hydrogen_bond_acceptors>  (1584) 
5

>  <hydrogen_bond_donors>  (1584) 
3

>  <hydrogen_bond_acceptors_lipinski>  (1584) 
5

>  <hydrogen_bond_donors_lipinski>  (1584) 
3

>  <lipinski_rule_of_five_violations>  (1584) 
0

>  <aromatic_rings_count>  (1584) 
3

>  <qed_drug_likeliness>  (1584) 
0.50

>  <formal_charge>  (1584) 
0

>  <fractioncsp3>  (1584) 
0.21

>  <number_of_minimal_rings>  (1584) 
3

>  <van_der_walls_volume>  (1584) 
287.14

>  <contains_sugar>  (1584) 
False

>  <contains_ring_sugars>  (1584) 
False

>  <contains_linear_sugars>  (1584) 
False

>  <murcko_framework>  (1584) 
c1ccc2c(c1)Nc3ccccc3C2

>  <np_likeness>  (1584) 
1.83

>  <chemical_class>  (1584) 
Quinolines and derivatives

>  <chemical_sub_class>  (1584) 
Benzoquinolines

>  <chemical_super_class>  (1584) 
Organoheterocyclic compounds

>  <direct_parent_classification>  (1584) 
Acridones

>  <np_classifier_pathway>  (1584) 
Alkaloids

>  <np_classifier_superclass>  (1584) 
Anthranilic acid alkaloids

>  <np_classifier_class>  (1584) 
Acridone alkaloids

>  <np_classifier_is_glycoside>  (1584) 
False

>  <organisms>  (1584) 
Clematis flammula|Gentiana lactea|Hortia arborea|Korolkowia sewerzowi|Oriciopsis glaberrima|Oriciopsis glaberrima ENGL.|Swinglea glutinosa|Vepris glaberrima

>  <collections>  (1584) 
CMAUP (cCollective molecular activities of useful plants)|ConMedNP|KNApSaCK|Latin America dataset|NPASS|NuBBEDB|Super Natural II|TCMDB-Taiwan (Traditional Chinese Medicine database)|TCMID (Traditional Chinese Medicine Integrated Database)|UNPD (Universal Natural Products Database)|WikiData Natural Products|ZINC NP

>  <dois>  (1584) 
10.1016/J.BMC.2010.12.056|10.1016/j.bmc.2010.12.056|10.1021/JF902561C|10.1248/CPB.54.292

>  <synonyms>  (1584) 
BDBM50336479|CHEMBL1668598|Glycocitrine-I|Oriciacridone E

>  <cas>  (1584) 
nan

$$$$

     RDKit          2D

 17 17  0  0  0  0  0  0  0  0999 V2000
    2.2360   -3.6432    0.0000 C   0  0  0  0  0  0  0  0  0  0  0  0
    2.6776   -2.2096    0.0000 O   0  0  0  0  0  0  0  0  0  0  0  0
    1.6569   -1.1105    0.0000 C   0  0  0  0  0  0  0  0  0  0  0  0
    0.1946   -1.4448    0.0000 C   0  0  0  0  0  0  0  0  0  0  0  0
   -0.8261   -0.3457    0.0000 C   0  0  0  0  0  0  0  0  0  0  0  0
   -2.2883   -0.6800    0.0000 C   0  0  0  0  0  0  0  0  0  0  0  0
   -3.3090    0.4191    0.0000 C   0  0  0  0  0  0  0  0  0  0  0  0
   -4.7713    0.0848    0.0000 C   0  0  0  0  0  0  0  0  0  0  0  0
   -5.2129   -1.3488    0.0000 O   0  0  0  0  0  0  0  0  0  0  0  0
   -5.7920    1.1839    0.0000 O   0  0  0  0  0  0  0  0  0  0  0  0
   -0.3845    1.0879    0.0000 C   0  0  0  0  0  0  0  0  0  0  0  0
    1.0777    1.4222    0.0000 C   0  0  0  0  0  0  0  0  0  0  0  0
    1.5193    2.8558    0.0000 O   0  0  0  0  0  0  0  0  0  0  0  0
    2.9815    3.1901    0.0000 C   0  0  0  0  0  0  0  0  0  0  0  0
    2.0984    0.3231    0.0000 C   0  0  0  0  0  0  0  0  0  0  0  0
    3.5607    0.6574    0.0000 O   0  0  0  0  0  0  0  0  0  0  0  0
    4.5814   -0.4417    0.0000 C   0  0  0  0  0  0  0  0  0  0  0  0
  1  2  1  0
  2  3  1  0
  3  4  2  0
  4  5  1  0
  5  6  1  0
  6  7  2  0
  7  8  1  0
  8  9  2  0
  8 10  1  0
  5 11  2  0
 11 12  1  0
 12 13  1  0
 13 14  1  0
 12 15  2  0
 15 16  1  0
 16 17  1  0
 15  3  1  0
M  END
>  <identifier>  (1585) 
CNP0111810.1

>  <canonical_smiles>  (1585) 
COC1=CC(/C=C/C(=O)O)=CC(OC)=C1OC

>  <standard_inchi>  (1585) 
InChI=1S/C12H14O5/c1-15-9-6-8(4-5-11(13)14)7-10(16-2)12(9)17-3/h4-7H,1-3H3,(H,13,14)/b5-4+

>  <standard_inchi_key>  (1585) 
YTFVRYKNXDADBI-SNAWJCMRSA-N

>  <name>  (1585) 
nan

>  <iupac_name>  (1585) 
nan

>  <annotation_level>  (1585) 
0

>  <total_atom_count>  (1585) 
31

>  <heavy_atom_count>  (1585) 
17

>  <molecular_weight>  (1585) 
238.24

>  <exact_molecular_weight>  (1585) 
238.08412

>  <molecular_formula>  (1585) 
C12H14O5

>  <alogp>  (1585) 
1.81

>  <topological_polar_surface_area>  (1585) 
64.99

>  <rotatable_bond_count>  (1585) 
5

>  <hydrogen_bond_acceptors>  (1585) 
4

>  <hydrogen_bond_donors>  (1585) 
1

>  <hydrogen_bond_acceptors_lipinski>  (1585) 
4

>  <hydrogen_bond_donors_lipinski>  (1585) 
1

>  <lipinski_rule_of_five_violations>  (1585) 
0

>  <aromatic_rings_count>  (1585) 
1

>  <qed_drug_likeliness>  (1585) 
0.79

>  <formal_charge>  (1585) 
0

>  <fractioncsp3>  (1585) 
0.25

>  <number_of_minimal_rings>  (1585) 
1

>  <van_der_walls_volume>  (1585) 
215.86

>  <contains_sugar>  (1585) 
False

>  <contains_ring_sugars>  (1585) 
False

>  <contains_linear_sugars>  (1585) 
False

>  <murcko_framework>  (1585) 
c1ccccc1

>  <np_likeness>  (1585) 
0.56

>  <chemical_class>  (1585) 
nan

>  <chemical_sub_class>  (1585) 
nan

>  <chemical_super_class>  (1585) 
nan

>  <direct_parent_classification>  (1585) 
nan

>  <np_classifier_pathway>  (1585) 
Shikimates and Phenylpropanoids

>  <np_classifier_superclass>  (1585) 
Phenylpropanoids (C6-C3)

>  <np_classifier_class>  (1585) 
Cinnamic acids and derivatives

>  <np_classifier_is_glycoside>  (1585) 
False

>  <organisms>  (1585) 
Descurainia sophia|Hansenia forbesii|Hansenia weberbaueriana|Lepidium apetalum|Ostericum grosseserratum|Piper swartzianum|Piper tuberculatum|Polygala sibirica|Polygala tenuifolia

>  <collections>  (1585) 
AnalytiCon Discovery NPs|CMAUP (cCollective molecular activities of useful plants)|ChemSpider NPs|FooDB|GNPS (Global Natural Products Social Molecular Networking)|InterBioScreen Ltd|Latin America dataset|NPASS|NuBBEDB|Phyto4Health|PubChem NPs|Super Natural II|TCMDB-Taiwan (Traditional Chinese Medicine database)|WikiData Natural Products

>  <dois>  (1585) 
10.1007/S00044-008-9161-9|10.1016/0031-9422(77)84043-0|10.1016/0031-9422(81)85125-4

>  <synonyms>  (1585) 
nan

>  <cas>  (1585) 
20329-98-0

$$$$

     RDKit          2D

 18 17  0  0  0  0  0  0  0  0999 V2000
  -10.9048   -0.2250    0.0000 C   0  0  0  0  0  0  0  0  0  0  0  0
   -9.5900    0.4970    0.0000 C   0  0  0  0  0  0  0  0  0  0  0  0
   -8.3073   -0.2806    0.0000 C   0  0  0  0  0  0  0  0  0  0  0  0
   -6.9925    0.4414    0.0000 C   0  0  0  0  0  0  0  0  0  0  0  0
   -5.7098   -0.3362    0.0000 C   0  0  0  0  0  0  0  0  0  0  0  0
   -4.3950    0.3858    0.0000 C   0  0  0  0  0  0  0  0  0  0  0  0
   -3.1124   -0.3918    0.0000 C   0  0  0  0  0  0  0  0  0  0  0  0
   -1.7976    0.3302    0.0000 C   0  0  0  0  0  0  0  0  0  0  0  0
   -0.5149   -0.4474    0.0000 C   0  0  0  0  0  0  0  0  0  0  0  0
    0.7999    0.2746    0.0000 C   0  0  0  0  0  0  0  0  0  0  0  0
    2.0826   -0.5030    0.0000 C   0  0  0  0  0  0  0  0  0  0  0  0
    3.3974    0.2190    0.0000 C   0  0  0  0  0  0  0  0  0  0  0  0
    4.6801   -0.5586    0.0000 C   0  0  0  0  0  0  0  0  0  0  0  0
    5.9949    0.1634    0.0000 C   0  0  0  0  0  0  0  0  0  0  0  0
    7.2776   -0.6142    0.0000 C   0  0  0  0  0  0  0  0  0  0  0  0
    8.5924    0.1078    0.0000 C   0  0  0  0  0  0  0  0  0  0  0  0
    8.6245    1.6075    0.0000 O   0  0  0  0  0  0  0  0  0  0  0  0
    9.8751   -0.6698    0.0000 O   0  0  0  0  0  0  0  0  0  0  0  0
  1  2  1  0
  2  3  1  0
  3  4  1  0
  4  5  1  0
  5  6  1  0
  6  7  1  0
  7  8  1  0
  8  9  1  0
  9 10  1  0
 10 11  1  0
 11 12  1  0
 12 13  1  0
 13 14  1  0
 14 15  1  0
 15 16  1  0
 16 17  2  0
 16 18  1  0
M  END
>  <identifier>  (1586) 
CNP0420987.0

>  <canonical_smiles>  (1586) 
CCCCCCCCCCCCCCCC(=O)O

>  <standard_inchi>  (1586) 
InChI=1S/C16H32O2/c1-2-3-4-5-6-7-8-9-10-11-12-13-14-15-16(17)18/h2-15H2,1H3,(H,17,18)

>  <standard_inchi_key>  (1586) 
IPCSVZSSVZVIGE-UHFFFAOYSA-N

>  <name>  (1586) 
palmitic acid

>  <iupac_name>  (1586) 
palmitic acid

>  <annotation_level>  (1586) 
5

>  <total_atom_count>  (1586) 
50

>  <heavy_atom_count>  (1586) 
18

>  <molecular_weight>  (1586) 
256.43

>  <exact_molecular_weight>  (1586) 
256.24023

>  <molecular_formula>  (1586) 
C16H32O2

>  <alogp>  (1586) 
5.55

>  <topological_polar_surface_area>  (1586) 
37.30

>  <rotatable_bond_count>  (1586) 
14

>  <hydrogen_bond_acceptors>  (1586) 
1

>  <hydrogen_bond_donors>  (1586) 
1

>  <hydrogen_bond_acceptors_lipinski>  (1586) 
1

>  <hydrogen_bond_donors_lipinski>  (1586) 
1

>  <lipinski_rule_of_five_violations>  (1586) 
1

>  <aromatic_rings_count>  (1586) 
0

>  <qed_drug_likeliness>  (1586) 
0.41

>  <formal_charge>  (1586) 
0

>  <fractioncsp3>  (1586) 
0.94

>  <number_of_minimal_rings>  (1586) 
0

>  <van_der_walls_volume>  (1586) 
288.23

>  <contains_sugar>  (1586) 
False

>  <contains_ring_sugars>  (1586) 
False

>  <contains_linear_sugars>  (1586) 
False

>  <murcko_framework>  (1586) 
nan

>  <np_likeness>  (1586) 
0.39

>  <chemical_class>  (1586) 
Fatty Acyls

>  <chemical_sub_class>  (1586) 
Fatty acids and conjugates

>  <chemical_super_class>  (1586) 
Lipids and lipid-like molecules

>  <direct_parent_classification>  (1586) 
Long-chain fatty acids

>  <np_classifier_pathway>  (1586) 
Fatty acids

>  <np_classifier_superclass>  (1586) 
Fatty Acids and Conjugates

>  <np_classifier_class>  (1586) 
Branched fatty acids

>  <np_classifier_is_glycoside>  (1586) 
False

>  <organisms>  (1586) 
Aaptos aaptos|Abelmoschus esculentus|Abies pinsapo subsp. marocana|Abrus precatorius|Abutilon ramosum|Acacia auriculiformis|Acacia coriacea|Acacia mearnsii|Acacia mollissima|Acacia pubescens|Acanthochlamys bracteata|Acanthophora spicifera|Acarus calamus|Acca sellowiana|Acer spicatum|Aceriphyllum rossii|Achillea fragrantissima|Achillea lycaonica|Achillea santolinoides|Achyranthes aspera|Achyranthes bidentata|Achyranthes fauriei|Achyranthes japonica|Acinos alpinus|Acioa longipendula|Aconitum japonicum|Aconitum koreanum|Aconitum mokchangense|Aconitum nevadense|Acorus calamus|Acorus calanus L.|Acorus gramineus|Acorus tatarinowii|Acritopappus prunifolius|Actaea dahurica|Actaea heracleifolia|Actaea simplex|Adiantum caudatum|Adiantum malesianum|Aegiceras corniculatum|Aegle marmelos|Aeglopsis chevalieri|Aesculus hippocastanum|Aesculus hippocastanum L.|Agaricus integer|Agaricus silvaticus|Agastache rugosa|Agathosma mundtii|Agave atrovirens|Agave decipiens|Agelas|Agelas conifera|Ageratina altissima|Ageratum conyzoides|Agnorhiza bolanderi|Agrimonia pilosa|Ailanthus altissima|Ajuga bracteosa|Akebia quinata|Akebia trifoliata|Albatrellus cristatus|Albizia gummifera|Albizia julibrissin|Alchemilla pentaphyllea|Alectra parasitica|Alexandrian laurel|Alexandrium hiranoi|Alkanna froedinii|Alkanna orientalis|Allamanda cathartica|Alliaria petiolata|Alligator mississippiensis|Allium ampeloprasum|Allium cepa|Allium monspessulanum|Allium obliquum|Allium porrum|Allium tuberosum|Allophylus laevigatus|Alnus cordata|Aloe africana|Aloe deltoideodonta|Aloe ferox|Aloe spicata|Aloe vera|Alseodaphne corneri|Alsophila lepifera|Alstonia muelleriana|Alstonia scholaris|Alstonia undulifolia|Althaea armeniaca|Althaea broussonetiifolia|Althaea officinalis|Amaranthus caudatus|Amaranthus cruentus|Amaranthus dubius|Amaranthus hybridus|Amaranthus paniculatus|Amaranthus retroflexus|Amaranthus tricolor|Amentotaxus argotaenia|American ginseng|Amomum krervanh|Amomum longiligulare|Amomum villosum|Amomum xanthioides|Amphimedon complanata|Amphimedon compressa|Amsinckia lunaris|Amsinckia menziesii var. intermedia|Anaxagorea clavata|Anchusa strigosa|Andrographis paniculata|Androsace helvetica|Anemarrhena asphodeloides|Anethum graveolens|Angelica acutiloba|Angelica archangelica|Angelica dahurica|Angelica decursiva|Angelica gigas|Angelica pubescens|Angelica sinensis|Angelica taiwaniana|Anisomeles Indica|Anisomeles indica|Anisophyllea laurina|Annona diversifolia|Annona impressivenia|Annona macroprophyllata|Annona muricata|Annona squamosa|Antarctic krill|Anthemis aciphylla|Anthemis aciphylla BOISS.var.discoidea BOISS|Antirrhinum majus|Aphanamixis polystachya|Apios americana|Apium graveolens|Aplophyllum dubium|Aplophyllum villosum|Aplysia californica|Aplysia punctata|Aplysina fistularis|Aplysina lacunosa|Aquilaria agallochum|Aquilaria sinensis|Arabidopsis thaliana|Arachis hypogaea|Arachniodes exilis|Aralia decaisneana|Aralia taibaiensis|Araujia sericifera|Arbacia punctulata|Arbutus menziesii|Archaster typicus|Areca catechu|Argania spinosa|Argyreia cuneata|Aria pallescens|Arisaema tortuosum|Armoracia rusticana|Arnebia euchroma|Arnebia guttata|Arnica montana|Arnica nevadensis|Artemisia|Artemisia annua|Artemisia annua L.|Artemisia anomala|Artemisia apiacea|Artemisia capillaries|Artemisia capillaris|Artemisia cina|Artemisia monogyna|Artemisia monosperma|Artemisia santonicum|Artemisia taurica|Artemisia vulgaris|Artocarpus heterophyllus|Asarum sieboldii|Asclepias speciosa|Asclepias syriaca|Asparagus adscendens|Aspergillus fischeri|Aspergillus fumigatus + microalgae|Aspergillus unguis|Aster scaber|Aster tataricus|Asterias nipon|Asteriscus aquaticus|Astilbe chinensis|Astragalus atropubescens|Astragalus complanatus|Astragalus hamosus|Atractylodes lancea|Atractylodes macrocephala|Attalea colenda|Aucklandia lappa|Aucuba japonica|Aulacocephalus temmincki|Azadirachta indica|Azima tetracantha|Baccharis reticularia|Balanophora harlandii|Balanophora indica|Bambara groundnut|Barbados nut|Bartramia pomiformis|Basella alba|Bassia butyracea|Bauhinia purpurea|Beaucarnea recurvata|Beilschmiedia pendula|Bellium bellidioides|Benincasa hispida|Bersama yangambiensis|Betula|Betula dahurica|Betula platyphylla|Beyeria brevifolia|Biancaea sappan|Biemna|Bilis porci|Bistorta manshuriensis|Bistorta officinalis|Blatta orientalis|Boa constrictor|Bocconia frutescens|Bocconia latisepala|Boehmeria holosericea|Boehmeria japonica|Boehmeria japonica tenera|Boehmeria longispica|Boehmeria nivea|Boehmeria platanifolia|Boehmeria sieboldiana|Boehmeria tricuspis|Boerhavia diffusa|Bombax ceiba|Bombax malabaricum|Boraginaceae|Bos taurus|Boswellia carteri|Boswellia carterii|Boswellia papyrifera|Boswellia sacra|Botryocladia leptopoda|Botryosphaeria berengeriana|Brachystegia nigerica|Brachythecium buchananii|Brassica hirta|Brassica napus|Brassica rapa|Brassica rapa subsp. oleifera|Bredemeyera brevifolia|Bridelia ferruginea|Brotherella henonii|Brucea javanica|Bruguiera gymnorhiza|Brunfelsia americana|Brunnera orientalis|Bryonia alba|Bryum rutilans|Bubalus bubalis|Buchenavia tetraphylla|Bupleurum chinense|Bupleurum falcatum|Bupleurum scorzonerifolium|Bursaria spinosa|Buthus martensii|Cachrys sicula|Caenorhabditis elegans|Callyspongia fallax|Calodendrum capense|Calophyllum Inophyllum|Calophyllum calaba|Calophyllum inophyllum|Camellia sinensis|Campsis grandiflora|Campylopus richardii|Canarium album|Canavalia ensiformis|Candida lipolytica|Cannabis sativa|Capparis ovata|Capparis spinosa|Capparis spinosa var. ovata|Capsella bursa-pastoris|Capsicum annuum|Capsicum annuum var. annuum|Carapax trionycis|Carduus getulus|Carex capillifolia|Carex myosuroides|Carica papaya|Carlina acaulis|Caro caprae|Caro caprae seu ovis|Caro verci|Caroxylon tetrandrum|Carthamus tinctorius|Cassia fistula|Cassia javanica|Cassine papillosa|Castanea mollissima|Castanopsis sclerophylla|Catharanthus roseus|Caulis perillae|Caulis perillae frutescentis|Cecropia glaziovii|Cecropia pachystachya|Cedrus libani|Celastrus hypoleucus|Celastrus paniculatus|Celosia argentea|Celtis australis|Centaurea arenaria|Centaurea aspera|Centaurea calcitrapa|Centaurea paui|Centella asiatica|Centipeda minima|Centromadia fitchii|Cephalaria procera|Ceramium botryocarpum|Cereus chrysacanthus|Cervicornia cuspidifera|Chamerion dodonaei|Charpentiera obovata|Chelonanthus albus|Chelonia japonica|Chenopodium quinoa|Chlamydomonas reinhardtii|Chloranthus tianmushanensis|Chondrosia reniformis|Chromodoris obsoleta|Chromolaena odorata|Chromolaena pulchella|Chrozophora obliqua|Chrozophora plicata|Chrozophora tinctoria|Chrozophora verbascifolia|Chrysanthemum indicum|Chrysanthemum x morifolium|Chrysanthemum zawadskii|Cibotium barometz|Cimicifuga foetida|Cinchona tucujensis|Cinnamomum Subavenium|Cinnamomum aromaticum|Cinnamomum burmanni|Cinnamomum cassia|Cinnamomum iners|Cinnamomum kotoense|Cinnamomum macrostemon|Cinnamomum pachyphyllum|Cinnamomum parthenoxylon|Cinnamomum subavenium|Cinnamomum subavenium MIQ.|Cinnamomum tenuifolium|Cinnamon|Cinnamosma madagascariensis|Cirsium arvense|Cirsium palustre|Cistanche salsa|Cistus creticus|Citrullus colocynthis|Citrullus lanatus|Citrullus lanatus subsp. vulgaris|Citrus maxima|Citrus medica var. sarcodactylis|Citrus paradisi|Citrus reticulata|Citrus unshiu|Citrus × deliciosa|Cladonia evansii|Cladonia floerkeana|Clathria prolifera|Cleistanthus collinus|Clematis chinensis|Clematis hexapetala|Clematis manshurica|Clematis terniflora var. mandshurica|Clematis vitalba|Cleome amblyocarpa|Cleome dolichostyla|Cleome quinquenervia|Clerodendrum colebrookianum|Clerodendrum glandulosum|Clinopodium acinos|Clinopodium troodi|Clitocybe subilludens|Clitoria ternata|Clitoria ternatea|Clonostachys rosea|Cnidium monieri|Cnidium monnieri|Cnidium officinale|Coccinella septempunctata|Coccus fagi|Cocos nucifera|Codiaeum variegatum|Coeloseira pacifica|Coix lacryma-jobi|Coleus esquirolii|Colletotrichum Colletotrichum musae|Conioselinum anthriscoides|Conocephalum japonicum|Consolida hohenackeri|Conus pulicarius|Coprinellus flocculosus|Corchorus aestuans|Cordia sinensis|Cordyceps|Cordyceps sinensis|Cordylanthus kingii|Coreopsis nodosa|Coriandrum sativum|Corium erinacei|Corium erinacei seu hemiechianus|Cornus officinalis|Corylus chinensis|Corynocarpus laevigatus|Cotoneaster simonsii|Cotylelobium scabriusculum|Craibiodendron yunnanese|Crassum intestinum|Crassum intestinum porci|Cratoneuron filicinum|Cratystylis conocephala|Cressa cretica|Crinipellis scabella|Crinum augustum|Crinum latifolium|Crocus sativus|Crotalaria retusa|Croton cajucara|Croton cumingii|Croton jimenezii|Croton malambo|Croton montevidensis|Croton penduliflorus|Croton tiglium|Cryptolepis buchananii|Cryptolepis dubia|Cryptomeria japonica|Cryptostegia grandiflora|Ctenidium percrassum|Cucumis callosus|Cucumis melo|Cucumis sativus|Cucurbita foetidissima|Cucurbita maxima|Cucurbita pepo|Cupressus bakeri|Curcuma kwangsiensis|Curcuma longa|Curcuma phaeocaulis|Curcuma pierreana|Curcuma wenyujin|Curcuma zedoaria|Curcurbita pepo L.|Cuscuta campestris|Cyamopsis tetragonoloba|Cyathea lepifera|Cymbidium aloifolium|Cynanchum paniculatum|Cynara cornigera|Cynara humilis|Cynara sibthorpiana|Cynomorium songaricum|Cyperus conglomeratus|Cyperus erectus|Cyperus rotundus|Cystoclonium purpureum|Cystophora scalaris|Cystoseira caespitosa|Cytisus caramanicus|Cytisus ciliatus|Dacrydium cupressinum|Dactylanthus taylorii|Daiswa polyphylla|Dalbergia paniculata|Daldinia concentrica|Daphne odora|Daphnia magna|Datisca glomerata|Datura stramonium|Delesseria sanguinea|Delonix regia|Delphinium consolida|Delphinium dictyocarpum|Delphinium staphisagria|Dendrobium candidum|Dendrobium chrysanthum|Dendrobium chrysotoxum|Dendrobium fimbriatum|Dendrobium loddigesii|Dendrobium nobile|Dendrobium officinale|Dendrosenecio kilimanjari|Dermonema abbottiae|Descurainia sophia|Diascia cordata|Diascia integerrima|Diascia megathura|Diascia purpurea|Diascia vigilis|Dichotomopilus funicola|Dicliptera roxburghiana|Dicranum japonicum|Dictamnus albus|Dictyota binghamiae|Didymium bahiense|Digitalis isabelliana|Dinemasporium strigosum|Dioscorea japonica|Dioscorea olfersiana|Dioscorea opposita|Dioscorea oppositifolia|Dioscorea polystachya|Dioscorea prazeri|Dioscorea species|Diospyros abyssinica|Diospyros elliptifolia|Diospyros japonica|Diospyros kaki|Diospyros maritima|Diospyros peregrina|Diphylleia cymosa|Diploschistes cretaceus|Diploschistes violarius|Diplotaxis harra|Dipterocarpus alatus|Dipteryx lacunifera|Dipteryx odorata|Disynaphia halimifolia|Dolichomitra cymbifolia|Dolichopentas longiflora|Dolichos lablab|Domohinea perrieri|Doodia picta|Dovyalis afra|Dracaena mannii|Drosera peltata|Drymaria cordata|Dryopteris aitoniana|Dryopteris assimilis|Dryopteris carthusiana|Dryopteris expansa|Dryopteris filix-mas|Dryopteris spinulosa|Duhaldea cappa|Dysosma versipellis|Ecballium elaterium|Echinophora tournefortii|Echinops amplexicaulis|Echinops grijsii|Echinops talassicus|Echinosophora koreensis|Echinus microtuberculatus|Echiochilon pauciflorum|Echium glomeratum|Eclipta prostrata|Elaeagnus angustifolia|Elaeis guineensis|Elegia deusta|Elettaria cardamomum|Eleutherococcus giraldii|Eleutherococcus senticosus|Eleutherococcus trifoliatus|Elmerrillia papuana|Elsholtzia ciliata|Elysia timida|Embelia barbeyana|Embelia schimperi|Emilia sonchifolia|Endarachne binghamiae|Epaltes gariepina|Ephedra equisetina|Ephedra intermedia|Ephedra sinica|Epilobium dodonaei|Epilobium parviflorum|Equisetum arvense|Eragrostis viscosa|Eremophila deserti|Eremophila oppositifolia subsp. Angustifolia|Eria linearifolia|Erica glauca|Erigeron alpinus|Eriobotrya japonica|Erucaria microcarpa|Erycibe schmidtii|Erylus formosus|Erythrina suberosa|Erythroxylum gonoclados|Erythroxylum gonocladum|Erythroxylum monogynum|Escherichia coli|Esenbeckia conspecta|Eucalyptus globulus|Eucalyptus risdoni|Eucalyptus risdonii|Eucommia ulmoides|Eulobus californicus|Eunicella cavolinii|Euodia micrococca|Eupatorium fortunei|Eupatorium lindleyanum|Eupatorium petiolare|Euphorbia glareosa|Euphorbia humifusa|Euphorbia milii|Euphorbia niciciana|Euphorbia royleana|Euphorbia tirucalli|Euphorbia tithymaloides|Euphydryas cynthia|Eurhynchium striatum|FOOD SAKE|Fagopyrum esculentum|Fagus fusca|Fernandoa adenophylla|Festuca arundinacea|Festuca rubra|Ficus formosana|Firmiana pallens|Fissidens nobilis|Flos mume|Foeniculum vulgare|Folium perillae|Forking Larkspur|Forsteronia refracta|Forsythia suspensa|Forsythia suspense|Forsythia viridissima|Fragaria|Fridericia chica|Fritillaria hupehensis|Fritillaria monantha|Fructus choerospondiatis|Fructus schiandrae|Fructus syzygii|Fructus terminaliae billericae|Frullania monocera|Frullania solanderiana|Fumaria kraliki|Fumaria vaillantii|Fusarium fujikuroi|Fusarium gibbosum|Ganoderma applanatum|Ganoderma australe|Ganoderma lucidum|Ganoderma sinense|Garcinia binucao|Garcinia celebica|Garcinia cornea|Garcinia dulcis|Garcinia intermedia|Garcinia lancilimba|Garcinia xanthochymus|Gardenia fosbergii|Gardenia jasminoides|Gardenia resinifera|Gastrodia elata|Gaultheria borneensis|Gaultheria itoana|Genista cinerea|Geodia japonica|Geum reptans|Gibberella fujikuroi|Ginkgo biloba|Gladiolus italicus|Gleditsia triacanthos|Glehnia littoralis|Gloiopeltis furcata|Gloriosa superba|Glycine max|Glycine tabacina|Glycine tomentella|Glyptopetalum sclerocarpum|Gmelina arborea|Gnetum edule|Gnetum parvifolium|Goldfussia yunnanensis|Gossypium barbadense|Gossypium hirsutum|Grewia mollis|Grimmia pilifera|Gryllotalpa orientalis|Gustavia longifolia|Gutenbergia cordifolia|Gyalolechia fulgens|Gymnoascus reesii|Gymnocarpium robertianum|Gymnodinium nagasakiense|Gymnopilus spectabilis|Gynoxys nitida|Gynura japonica|Gynura segetum|Hackelia floribunda|Haematococcus lacustris|Halichondriidae|Haliclona compressa|Halimodendron halodendron|Hamamelis virginiana|Haminoea templadoi|Hansenia forbesii|Hansenia weberbaueriana|Hapalosiphon fontinalis|Haplophyllum acutifolium|Hedwigia ciliata|Hedysarum multijugum|Helianthus annuus|Helianthus maximiliani|Helichrysum auriceps|Helichrysum nudifolium|Heliotropium bovei|Heliotropium floridum|Helipterum propinquum|Hemidesmus indicus|Henriettea fascicularis|Henriettella fascicularis|Heterotheca grandiflora|Hibiscus|Hibiscus cannabinus|Hibiscus sabdariffa|Hibiscus syriacus|Hippomane mancinella|Hippophae rhamnoides|Hippospongia equina|Hirschfeldia incana|Hohenbuehelia serotina|Holotrichia diomphalia|Homo sapiens|Homo sapiens (Skin)|Hordeum vulgare|Houttuynia Cordata|Houttuynia cordata|Houttuynia cordata Thunb.|Hovenia acerba|Hoya australis|Hoya bandaensis|Hoya bella|Hoya cinnamomifolia|Hoya coronaria|Hoya crassipes|Hoya diversifolia|Hoya fraterna|Hoya imperialis|Hoya lacunosa|Hoya latifolia|Hoya longifolia|Hoya macrophylla|Hoya multiflora|Hoya obovata|Hoya ovalifolia|Hoya pseudolanceolata|Hoya shepherdii|Hoya tsangii|Hubertia tomentosa|Humulus lupulus|Hydnocarpus annamensis|Hydnora abyssinica|Hydnora johannis|Hydrangea chinensis|Hyella caespitosa|Hyoscyamus muticus|Hyoscyamus niger|Hypera meles|Hypera postica|Hypericum ericoides|Hypericum maculatum|Hypericum olympicum|Hypericum perfoliatum|Hypericum perforatum|Hypericum tomentosum|Hypholoma capnoides|Hypnum fujiyamae|Hypopitys monotropa|Hypoxis nyasica|Hypoxylon rubiginosum|Iberis umbellata|Ilex affinis|Illicium verum|Imperata cylindrica|Inula grandis|Inula helenium|Iotrochota purpurea|Ipomoea purpurea|Iris|Isatis indigotica|Isatis tinctoria|Ishige okamurae|Isoberlinia angolensis|Isodon amethystoides|Isodon japonica var. glaucocalyx|Isodon kameba|Isodon nervosus|Isodon serra|Isodon umbrosus|Isoplexis isabelliana|Ixeris japonica|Jacobaea pancicii|Jacobaea vulgaris|Jagera pseudorhus|Jasminum auriculatum|Jasminum azoricum|Jasminum fluminense|Jaspis stellifera|Jatropha curcas|Jatropha curcus|Jatropha gossypiifolia|Jodina rhombifolia|Johnstonella grayi|Juglans nigra|Juglans regia|Juniperus brevifolia|Juniperus phoenicea|Juniperus serawschanica|Justicia heterocarpa|Justicia heterocarpa T.ANDERS|Justicia trinervia|Kaempferia marginata|Kaempferia pulchra|Karenia mikimotoi|Kaunia saltensis|Khaya senegalensis|Kielmeyera coriacea|Kigelia africana|Lactarius deliciosus|Lactarius deliciosus var. deterrimus|Lactarius deterrimus|Lactarius scrobiculatus|Lactobacillus delbrueckii subsp. bulgaricus|Lactuca saligna|Lactuca serriola|Ladeania juncea|Lagenaria breviflora|Lagerstroemia speciosa|Laminaria japonica|Lantana Camara|Lantana camara|Lantana ukambensis|Lathraea squamaria|Laurencia aldingensis|Laurencia dendroidea|Laurencia obtusa|Laurentia longiflora|Lavandula canariensis|Leiocarpa brevicompta|Leishmania major|Leitneria floridana|Lepidaploa myriocephala|Lepidium apetalum|Lepidium meyenii|Lepidonia jonesii|Lepidozia fauriana|Lepista irina|Lepraria citrina|Leptolyngbya tenuis|Lessertia frutescens|Leucaena leucocephala|Leucas neufliseana|Leucobryum neilgherrense|Leucosceptrum canum|Libocedrus plumosa|Ligularia atroviolacea|Ligularia nanchuanica|Ligusticum chuanxiong|Ligusticum sinense|Ligusticum striatum|Ligustrum lucidum|Ligustrum obtusifolium|Lilium longiflorum|Limnodynastes interioris|Lindera neesiana|Linum catharticum|Linum usitatissimum|Lippia origanoides|Lippia sidoides|Litchi chinensis|Lithodora fruticosa|Lithospermum erythrorhizon|Lithospermum officinale|Litsea acutivena|Litsea glutinosa|Lobelia chinensis|Lobophytum crassum|Lobophytum denticulatum|Loeskeobryum brevirostre|Lonicera confusa|Lonicera fulvotomentosa|Lonicera hypoglauca|Lonicera japonica|Lonicera macranthoides|Lotus ucrainicus|Loxocalyx urticifolius|Luffa acutangula|Lumbricus terrestris|Lupinus angustifolius|Lycium barbarum|Lycium chinense|Lycopus lucidus|Lygodium japonicum|Lysimachia fordiana|Lysimachia heterogenea|Lysimachia patungensis|Maackia amurensis|Macadamia integrifolia|Macaranga sinensis|Machaerium scleroxylon|Maclura pomifera|Madhuca longifolia|Maerua oblongifolia|Magnolia obovata|Magnolia officinalis|Malus domestica|Malus pumila|Malva pucheina|Malvaviscus arboreus|Mandragora autumnalis|Mandragora officinarum|Mangifera indica|Manihot catingae|Manilkara bidentata|Mannia fragrans|Marchantia polymorpha|Marmota marmota|Marrubium parviflorum|Matayba oppositifolia|Matricaria suffruticosa|Mauremys reevesii|Meconopsis punicea|Medicago sativa|Medicago scutellata|Melaleuca quinquenervia|Melanelixia fuliginosa subsp. glabratula|Melia azedarach|Melia azedarach var. toosendan|Meliosma simplicifolia|Mentha arvensis|Mentha canadensis|Mentha spicata|Merulius lacrymans|Mesua beccariana|Metapenaeus bennettae|Metridium senile|Michelia alba|Mikania banisteriae|Mikania congesta|Mikania cordifolia|Mikania microptera|Mikania parviflora|Mikania rimachii|Mikania scandens|Millettia pinnata|Mirabilis jalapa|Mitracarpus hirtus|Mkilua fragrans|Momordica charantia|Monascus purpureus|Monodora angolensis|Monotropa hypopitys|Monotropa uniflora|Monteverdia aquifolium|Monteverdia ilioppjfeowneviufheiuwfew fgr|Monteverdia truncata|Morina persica|Mortierella alpina|Mortierella elongata|Mortierella hyalina|Mortierella hygrophila|Mortierella parvispora|Mortierella schmuckeri|Mortierella zychae|Morus alba|Morus alba var. atropurpurea|Morus alba var. multicaulis|Morus bombycis|Morus cathayana|Mosla cavaleriei|Mosla chinensis|Mucuna imbricata|Murraya gleniei|Murraya kwangsiensis|Musculus bungari|Mycale laevis|Mycosphaerella cruenta|Myelobia smerintha|Myrica gale|Myristica cagayanensis|Myristica fragrans|Myristica gigantea|Myrmekioderma rea|Myrtillocactus geometrizan|Myuroclada maximowiczii|Nannochloropsis|Nanodea muscosa|Narcissus concolor|Narthecium ossifragum|Nauclea officinalis|Nekemias grossedentata|Nelumbo lutea|Nelumbo nucifera|Neonotonia wightii|Nepeta cataria|Nepeta eriostachya|Nepeta trachonitica|Nephthea armata|Nerium oleander|Nervilia aragoana|Nervilia concolor|Nervilia plicata|Nicotiana tabacum|Nicotiana undulata|Nierembergia aristata|Nigella sativa|Nigrospora oryzae|Nigrospora sphaerica|Nonea macrosperma|Nothofagus pumilio|Notholaena aschenborniana|Ocotea gomezii|Odixia angusta|Oenothera argillicola|Oenothera biennis|Oenothera clavaeformis|Oenothera depressa|Oenothera drummondii|Oenothera elata|Oenothera glazioviana|Oenothera grandiflora|Oenothera laciniata|Oenothera missouriensis|Oenothera odorata|Oenothera parviflora|Oenothera rhombipetala|Oenothera rosea|Oenothera serrulata|Oenothera striata|Oenothera strigosa|Oenothera tetragona|Oldenlandia diffusa|Olea europaea|Oleandra wallichii|Oleum terebinthinae|Oncoba echinata|Oncophorus crispifolius|Ononis natrix|Ootheca mantidis|Ophidiaster ophidianus|Ophiocordyceps sinensis|Ophiolepis superba|Orbignya martiana|Orthosiphon aristatus|Orthosiphon grandiflorus|Oryza Sativa|Oryza sativa|Oryza sativa cv. Heugjinjubyeo|Osmanthus fragrans|Osmunda japonica|Ostericum grosseserratum|Otostegia fruticosa|Paederia scandens|Paeonia lactiflora|Paeonia rockii|Pallavicinia subciliata|Panax ginseng|Panax notoginseng|Panax pseudo - ginseng var. notoginseng|Panax pseudo-ginseng var. notoginseng|Panax pseudoginseng|Panax quinquefolium|Panax quinquefolius|Panax schinseng|Panax trifoliatus|Pandanus conoideus|Papaver bracteatum|Papilio phorcas|Parabenzoin trilobum|Paraixeris pinnatipartita|Paranephelius uniflorus|Pardachirus pavoninus|Parinari montana|Parkia clappertoniana|Parthenium bipinnatifidum|Passiflora incarnata|Patrinia scabiosifolia|Patrinia villosa|Pectocarya platycarpa|Pelargonium endlicherianum|Pellionia minima|Pellionia pellucida|Pellionia scabra|Penicillium brocae|Penicillium urticae|Pentaclethra macrophylla|Pentanisia prunelloides|Pericopsis angolensis|Perilla frutescens|Periploca forrestii|Periploca sepium|Persicaria hydropiperoides|Persicaria minor|Petalostemon purpureum|Petasites albus|Petiveria alliacea|Petrosia hebes|Petrosia pellasarca|Petrosia volcano|Peucedanum graveolens|Peucedanum praeruptorum|Phaeotremella fagi|Pharbitis nil|Phaseolus vulgaris|Phebalium dentatum|Pheidole pallidula|Phellinus tuberculosus|Philadelphia fleabane|Phlomis regelii|Phlomoides rotata|Phoenix paludosa|Phomatospora dinemasporium|Phycomyces blakesleeanus|Phyllanthus emblica|Phyllanthus oligospermus|Phyllodium pulchellum|Phytelephas aequatorialis|Pig's spinal cord|Pilocarpus goudotianus|Pinellia pedatisecta|Pinellia ternata|Pinus banksiana|Pinus elliottii|Pinus koraiensis|Pinus pinaster|Pinus pumila|Pinus radiata|Pinus resinosa|Piper auritum|Piper nigrum|Piper obliquum|Piper ribesioides|Pipestela terpenensis|Piptostigma fugax|Pistacia vera|Pisum sativum|Pithecellobium dulce|Pittosporum undulatum|Plagiochila elegans|Plagiochila porelloides|Plagiomnium maximoviczii|Plagiothecium euryphyllum|Plakinastrella clathrata|Plantago asiatica|Plantago depressa|Plantago major|Plantago ovata|Plastrum testudinis|Platonia insignis|Platycladus orientalis|Plectranthus mollis|Pleuronectes cynoglossus|Pleurotus ostreatus|Podocarpus amarus|Pogonatum inflexum|Pogostemon cablin|Polyalthia nemoralis|Polycephalomyces nipponicus|Polygala glomerata|Polygala senega|Polygala sibirica|Polygala tenuifolia|Polygonatum odoratum|Polygonum flaccidum|Polygonum glaucum|Polygonum maritimum|Polypodiodes niponica|Polysiphonia ferulacea|Pongamia pinnata|Populus tremuloides|Poria cocos|Porphyra tenera|Portulaca oleracea|Potebniamyces gallicola|Potentilla discolor|Proiphys amboinensis|Prosopis glandulosa|Prunus africana|Prunus armeniaca|Prunus avium|Prunus dulcis|Prunus laurocerasus|Prunus mume|Pseudoalteromonas luteoviolacea|Pseudogymnoascus pannorum|Pseudomonas chlororaphis|Pseudopterogorgia kallos|Pseudostellaria heterophylla|Pseudosuberites|Pseudowintera colorata|Psidium friedrichsthalianum|Psidium guajava|Psophocarpus tetragonolobus|Pteris prolifera|Pterocarpus grandiflorus|Pterocladiella tenuis|Pterodon emarginatus|Ptilota pectinata|Pueraria montana var. lobata|Punica Granatum|Punica granatum|Purpura aperta|Putranjiva roxburghii|Pyrola japonica|Pyrosoma giganteum|Pyrrhobryum spiniforme|Quercus aegilops|Quercus imbricaria|Quercus myrsinifolia|Radix chuanxiong|Radix cudraniae|Radix rumicis japonici|Ramalina|Ranunculus glacialis|Ranunculus silerifolius|Ranunculus ternatus|Raphanus sativus|Rauvolfia vomitoria|Reaumuria hirtella|Rehmannia glutinosa|Remijia bicolorata|Rennellia elliptica|Resina olibani|Resina olibani praparata|Rhabdophis tigrinus|Rhamnus japonica|Rhizobium phaseoli|Rhizoma chuanxiong|Rhizomnium tuomikoskii|Rhizophora mucronata|Rhizoprionodon acutus|Rhodiola rosea|Rhodiola rosea L.|Rhodobryum roseum|Rhododendron aureum|Rhododendron sichotense|Rhodotorula glutinis|Rhytidiadelphus squarrosus|Rhytidoponera metallica|Ribes alpinum|Ribes cereum var. cereum|Ribes montigenum|Ribes orientale|Rohdea chinensis|Rosa multiflora|Rosa platyacantha|Rosa transmorrisonensis|Rubrivivax gelatinosus|Ruellia rosea|Ruta graveolens|Ruta pinnata|Sabal minor|Saccharomyces cerevisiae|Saccharomyces pastori|Saccharothrix mutabilis|Salix babylonica|Salix herbacea|Salix reticulata|Salix retusa|Salpa thompsoni|Salsola collina|Salvia dorrii|Salvia fruticosa|Salvia hispanica|Salvia mirzayanii|Salvia munzii|Salvia officinalis|Salvia syriaca|Salvia triloba|Samanea saman|Saraca indica|Sarcococca vagans|Sarcomyxa serotina|Sargassum crassifolium J.Asgardh|Sargassum fusiforme|Sauromatum giganteum|Saussurea depressa|Saussurea involucrata|Saussurea lappa|Saussurea medusa|Saxifraga Stolonifera|Saxifraga stolonifera|Saxifraga stolonifera Meerb.|Scaevola spinescens|Scaphium lychnophorum|Schlotheimia grevilleana|Schnella guianensis|Scleroderma polyrhizum|Scleroderris canker|Scopelophila cataractae|Scorzonera hispanica|Scrophularia canina|Scrophularia grayana|Scrophularia kakudensis|Scrophularia koelzii|Scrophularia koraiensis|Scrophularia lanceolata|Scrophularia marilandica|Scrophularia nodosa|Scrophularia rubricaulis|Scutellaria baicalensis|Scutellaria balcalensis|Scutellaria barbata|Scutellaria glabra|Scutellaria lateriflora|Scutellaria woronowii|Scutia buxifolia|Scytosiphon lomentaria|Sea lettuce|Securidaca inappendiculata|Senecio atratus|Senecio densiflorus|Senecio paludaffinis|Senecio scandens|Senecio squalidus|Senegalia catechu|Senegalia lenticularis|Senegalia mellifera|Senegalia pennata|Senegalia torta|Senna alexandrina|Senna alexandrina var. alexandrina|Senna didymobotrya|Senna siamea|Senna villosa|Serenoa repens|Seriphidium cinum|Sesbania punicea|Sida veronicaefolia|Sideritis condensata|Sideritis curvidens|Sideritis lanata|Sideritis montana|Sideritis romana|Sideritis syriaca|Sideritis taurica|Sigesbeckia orientalis|Silybum Marianum|Silybum marianum|Simicratea welwitschii|Simira eliezeriana|Sinopodophyllum hexandrum|Siparuna thecaphora|Sipunculus nudus|Smenospongia aurea|Smilax china|Smilax glabra|Smilax perfoliata|Solanum andigena|Solanum angustifolium|Solanum argentinum|Solanum chacoense|Solanum transcaucasicum|Sonneratia alba|Sophora angustifolia|Sophora moorcroftiana|Sophora viciifolia|Sorbus tianschanica|Spathiphyllum cannifolium|Spermacoce pusilla|Sphagnum palustre|Spinacia oleracea|Spiracantha cornifolia|Spirodela polyrrhiza|Spondias mombin|Spongia bilamellata|Sporobolomyces odorus|Sraitia grosvenorii|Stachybotrys chartarum|Stangeria eriopus|Staphisagria macrosperma|Stellaria dichotoma|Stenostomum lucidum|Stephania epigaea|Stephanitis rhododendri|Sterculia scaphigera|Sterculia setigera|Sterculia tomentosa|Sterculia tragacantha|Stevia polycephala|Stichopus horrens|Stiff silkworm|Stoebe plumosa|Stoebe vulgaris|Streptomyces|Streptomyces KM86-9B|Streptomyces althioticus|Streptomyces atratus|Streptomyces caelestis|Streptomyces caespitosus|Streptomyces flocculus|Streptomyces luteosporeus|Streptomyces niveiscabiei|Streptomyces parvisporogenes|Streptomyces platensis|Streptomyces rochei|Streptomyces saraceticus|Streptomyces sclerotialus|Streptomyces sp. AMA11|Streptomyces sp. CB-75|Streptomyces sp. JS520|Streptomyces sp. NP10|Streptomyces sp. SCA3-4|Streptomyces sp. mNP10|Streptomyces sp. mNP10_C12-2|Streptomyces sundarbansensis|Strychnos froesii|Strychnos spinosa|Stuckenia pectinata|Stylocheilus longicaudus|Suaeda aegyptiaca|Suberites massa|Sundacarpus amarus|Syagrus romanzoffiana|Symphoricarpos albus|Synoicum pulmonaria|Syphonota geographica|Syringa komarowii|Syzygium cumini|Tabebuia aurea|Tachigalia paniculata|Talaromyces flavus|Talaromyces vermiculatus|Tamarix chinensis|Tanacetum cinerariifolium|Taraxacum borealisinense|Taraxacum coreanum|Taraxacum mongolicum|Taraxacum officinale|Taraxacum platycarpum|Targionia hypophylla|Taxodium mucronatum|Tecoma pentaphylla|Tectitethya crypta|Tephroseris integrifolia|Tephrosia procumbens|Terminalia chebula|Terminalia pallida|Testis et penis canis familiaris|Tetrapanax papyrifer|Teucrium depressum|Teucrium leucocladum|Teucrium montanum|Teucrium orientale|Teucrium sandrasicum|Thalictrum ichangense|Thalictrum simplex|Thamnobryum plicatulum|Thecocarpus carvifolius|Thermopsis mollis|Thuidium glaucinum|Thuidium pristocalyx|Thuidium recognitum|Thuidium tamariscinum|Thuja occidentalis|Thymus piperella|Thymus quinquecostatus|Thymus vulgaris|Thyreoid sus domestica|Tilesia baccata|Tilia cordata Mill.|Tilia mandshurica|Tilia platyphyllos|Tilia rubra|Tilia tomentosa|Tomophagus colossus|Toona sinensis|Torilis japonica|Trachelospermum lucidum|Trachycarpus fortunei|Tradescantia virginiana|Trapa japonica|Treculia africana|Triadica sebifera|Trichilia claussenii|Trichilia rubescens|Trichoderma citrinum|Trichodesma zeylanicum|Trichormus hallensis|Trichosanthes cucumeroides|Trichosanthes kirilowii|Trichosanthes nervifolia|Trichosanthes rosthornii|Trichosanthes tricuspidata|Trifolium incarnatum|Trifolium pannonicum|Trifolium pratense|Trigonella grandiflora|Tripneustes esculentus|Tripolium pannonicum|Tripterygium wilfordii|Triticum aestivum|Triticum durum|Trixis grisebachii|Turnera ulmifolia|Tylophora ovata|Tylophora tanakae|Udotea petiolata|Ulmus americana|Ulota crispa|Ulva lactuca|Ulva prolifera|Umbilicaria cinereorufescens|Uvaria calamistrata|Uvaria dependens|Vachellia constricta|Vachellia farnesiana var. farnesiana|Vachellia nilotica|Valeriana officinalis|Vellozia nanuzae|Veltheimia viridifolia|Ventilago calyculata|Ventilago denticulata|Verbascum fruticulosum|Vernonia diffusa|Vesicularia ferriei|Viburnum opulus|Viburnum orientale|Vigna angularis|Vincetoxicum atratum|Vincetoxicum pycnostelma|Vincetoxicum versicolor|Viscum album|Viscum coloratum|Vitex madiensis|Vitex negundo|Vitex rotundifolia|Vitex trifolia|Vitis vinifera|Viviparus japonicus|Wedelia prostrata|Wijkia concavifolia|Wikstroemia chamaedaphne|Wikstroemia lanceolata|Wilcoxia viperina|Xanthium sibiricum|Xanthium strumarium|Xanthoria aureola|Xestospongia muta|Xylopia aethiopica|Yarrowia lipolytica|Zanthoxylum bungeanum|Zanthoxylum gilletii|Zanthoxylum nitidum|Zanthoxylum piperitum|Zanthoxylum schinifolium|Zingiber officinale|Ziziphora pedicellata|Ziziphus jujuba|Ziziphus jujuba var. spinosa|Zygosaccharomyces rouxii|basil|bellis perennis|borage|cacao|chia|chub mackerel|common dandelion|common sunflower|giraffe|liquorice|maize|peanut|pomegranate|sesame|snap bean|soybean|star fruit|tomato|watermelon

>  <collections>  (1586) 
ANPDB|Australian natural products|BIOFACQUIM|CMAUP (cCollective molecular activities of useful plants)|ChEBI NPs|ChemSpider NPs|ConMedNP|DrugBankNP|EMNPD|ETM (Ethiopian Traditional Medicine) DB|Exposome-explorer|FooDB|GNPS (Global Natural Products Social Molecular Networking)|HIT (Herbal Ingredients Targets)|KNApSaCK|Latin America dataset|Marine Natural Products|Mitishamba database|NANPDB (Natural Products from Northern African Sources)|NAPRORE-CR|NPACT|NPASS|NPDBEjeCol|NPEdia|Nat-UV DB|NuBBEDB|PeruNPDB|Phyto4Health|SANCDB|StreptomeDB|Super Natural II|Supernatural3|TCMDB-Taiwan (Traditional Chinese Medicine database)|TCMID (Traditional Chinese Medicine Integrated Database)|TIPdb (database of Taiwan indigenous plants)|UEFS (Natural Products Databse of the UEFS)|UNPD (Universal Natural Products Database)|VietHerb|Watermelon|WikiData Natural Products

>  <dois>  (1586) 
10.1002/(SICI)1097-0045(199605)28:5<300::AID-PROS5>3.0.CO;2-F|10.1002/(SICI)1097-0231(20000415)14:7<608::AID-RCM918>3.0.CO;2-4|10.1002/(SICI)1099-1026(199609)11:5<315::AID-FFJ594>3.0.CO;2-B|10.1002/(SICI)1099-1026(199901/02)14:1<50::AID-FFJ783>3.0.CO;2-7|10.1002/(SICI)1099-1026(199901/02)14:1<55::AID-FFJ784>3.0.CO;2-Q|10.1002/(SICI)1099-1026(199901/02)14:1<60::AID-FFJ785>3.0.CO;2-0|10.1002/(SICI)1099-1573(199906)13:4<329::AID-PTR458>3.0.CO;2-U|10.1002/1099-1565(200011/12)11:6<345::AID-PCA540>3.0.CO;2-T|10.1002/ARDP.19803130303|10.1002/CBDV.200800270|10.1002/CBDV.201100039|10.1002/CBDV.201800531|10.1002/CBER.190603901108|10.1002/CHIN.197139400|10.1002/CHIN.199517179|10.1002/CHIN.200052207|10.1002/CHIN.200331207|10.1002/CHIN.200517207|10.1002/CHIN.200549164|10.1002/CHIN.200610214|10.1002/CJOC.19910090207|10.1002/EJLT.200900231|10.1002/EJLT.201000080|10.1002/EJLT.201000369|10.1002/EJLT.201100207|10.1002/EJOC.200800688|10.1002/FFJ.1187|10.1002/FFJ.2730060314|10.1002/FFJ.2730080506|10.1002/FFJ.2730100408|10.1002/HLCA.19850680522|10.1002/HLCA.200590094|10.1002/HLCA.200690060|10.1002/JCCS.199700056|10.1002/JCCS.199900110|10.1002/JCCS.200100154|10.1002/JCCS.200200042|10.1002/JCCS.200200069|10.1002/JCCS.200700071|10.1002/JCTB.280450207|10.1002/JHRC.1240090210|10.1002/JLAC.19636630122|10.1002/JLAC.19636700115|10.1002/JPS.2600570840|10.1002/JSFA.2731|10.1002/JSFA.2740390303|10.1002/JSFA.2740430111|10.1002/JSFA.2740470213|10.1002/JSFA.2740580123|10.1002/JSFA.2740580219|10.1002/JSFA.2740580422|10.1002/JSFA.2740600217|10.1002/LIPI.19820841009|10.1002/LIPI.19830850506|10.1002/LIPI.19840860106|10.1002/LIPI.19850870507|10.1002/LIPI.19850870809|10.1002/LIPI.19860880305|10.1002/LIPI.19860880806|10.1002/LIPI.19870890308|10.1002/LIPI.19920940206|10.1002/LIPI.2700971106|10.1002/PCA.2800040408|10.1002/PRAC.18550650130|10.1002/PTR.1527|10.1002/PTR.2212|10.1002/PTR.2650030406|10.1002/ejlt.201000080|10.1002/ejlt.201000369|10.1002/ejlt.201100207|10.1002/jsfa.2731|10.1006/JFCA.2000.0968|10.1007/978-0-85729-323-7_1884|10.1007/978-0-85729-323-7_2078|10.1007/978-3-540-71095-0_6175|10.1007/978-3-540-71095-0_9380|10.1007/978-3-662-03331-9_2|10.1007/978-3-7091-1084-3_4|10.1007/978-3-7091-1084-3_5|10.1007/978-81-322-3912-3_507|10.1007/BF00249109|10.1007/BF00252518|10.1007/BF00267653|10.1007/BF00269322|10.1007/BF00387457|10.1007/BF00563626|10.1007/BF00563627|10.1007/BF00563628|10.1007/BF00564338|10.1007/BF00564453|10.1007/BF00565786|10.1007/BF00565844|10.1007/BF00566112|10.1007/BF00567726|10.1007/BF00568713|10.1007/BF00573559|10.1007/BF00574230|10.1007/BF00574357|10.1007/BF00574376|10.1007/BF00576208|10.1007/BF00579077|10.1007/BF00579976|10.1007/BF00580077|10.1007/BF00581591|10.1007/BF00598098|10.1007/BF00629959|10.1007/BF00630128|10.1007/BF00630450|10.1007/BF00630623|10.1007/BF00711898|10.1007/BF00714911|10.1007/BF00988299|10.1007/BF00993699|10.1007/BF01165189|10.1007/BF01900356|10.1007/BF01943120|10.1007/BF01959169|10.1007/BF02065988|10.1007/BF02142526|10.1007/BF02236306|10.1007/BF02236421|10.1007/BF02236423|10.1007/BF02249626|10.1007/BF02249627|10.1007/BF02249628|10.1007/BF02249629|10.1007/BF02249647|10.1007/BF02531935|10.1007/BF02533484|10.1007/BF02534700|10.1007/BF02535668|10.1007/BF02536001|10.1007/BF02536002|10.1007/BF02536024|10.1007/BF02537064|10.1007/BF02540574|10.1007/BF02540600|10.1007/BF02540958|10.1007/BF02541352|10.1007/BF02541498|10.1007/BF02541590|10.1007/BF02541638|10.1007/BF02542410|10.1007/BF02542627|10.1007/BF02544524|10.1007/BF02546067|10.1007/BF02578249|10.1007/BF02636096|10.1007/BF02636360|10.1007/BF02653292|10.1007/BF02657547|10.1007/BF02660162|10.1007/BF02660163|10.1007/BF02662286|10.1007/BF02662425|10.1007/BF02663074|10.1007/BF02663762|10.1007/BF02663764|10.1007/BF02663826|10.1007/BF02663950|10.1007/BF02666050|10.1007/BF02856441|10.1007/BF02859211|10.1007/BF02898307|10.1007/BF02899459|10.1007/BF02901545|10.1007/BF02901546|10.1007/BF02907355|10.1007/BF02976766|10.1007/BF03183920|10.1007/S10600-005-0010-5|10.1007/S10600-006-0002-0|10.1007/S10600-007-0071-8|10.1007/S10600-008-0043-7|10.1007/S10600-010-9595-4|10.1007/S10600-010-9690-6|10.1007/S10600-010-9698-Y|10.1007/S10600-010-9753-8|10.1007/S10600-011-0023-1|10.1007/S10600-011-9810-Y|10.1007/S10600-011-9848-X|10.1007/S10600-011-9926-0|10.1007/S10600-011-9944-Y|10.1007/S10600-012-0139-Y|10.1007/S10600-014-1163-X|10.1007/S10600-018-2437-5|10.1007/S11306-011-0335-Y|10.1007/S11306-016-1051-4|10.1007/S11306-017-1284-X|10.1007/S11418-006-0112-9|10.1007/S11418-007-0175-2|10.1007/S11746-009-1435-Y|10.1007/S11746-010-1589-7|10.1007/s10600-011-9926-0|10.1007/s10886-010-9846-7|10.1007/s11745-010-3483-3|10.1007/s11746-009-1435-y|10.1007/s11746-010-1589-7|10.1007/s13205-018-1556-9|10.1016/0010-7824(90)90054-Y|10.1016/0021-9673(95)00734-2|10.1016/0031-9422(71)85055-0|10.1016/0031-9422(73)80043-3|10.1016/0031-9422(75)80399-2|10.1016/0031-9422(77)84040-5|10.1016/0031-9422(82)83046-X|10.1016/0031-9422(82)83099-9|10.1016/0031-9422(82)83112-9|10.1016/0031-9422(82)83141-5|10.1016/0031-9422(83)80024-7|10.1016/0031-9422(83)80181-2|10.1016/0031-9422(83)85062-6|10.1016/0031-9422(83)85064-X|10.1016/0031-9422(86)88045-1|10.1016/0031-9422(86)88046-3|10.1016/0031-9422(88)80455-2|10.1016/0031-9422(88)80772-6|10.1016/0031-9422(88)83042-5|10.1016/0031-9422(88)83101-7|10.1016/0031-9422(89)80381-4|10.1016/0031-9422(89)85035-6|10.1016/0031-9422(90)83036-Z|10.1016/0031-9422(90)83061-5|10.1016/0031-9422(90)85049-L|10.1016/0031-9422(90)85294-P|10.1016/0031-9422(91)80030-5|10.1016/0031-9422(91)83188-Q|10.1016/0031-9422(91)83625-U|10.1016/0031-9422(91)83659-9|10.1016/0031-9422(91)84185-U|10.1016/0031-9422(91)85017-T|10.1016/0031-9422(91)85024-T|10.1016/0031-9422(92)80160-G|10.1016/0031-9422(92)90044-Q|10.1016/0031-9422(93)85164-M|10.1016/0031-9422(94)00675-J|10.1016/0031-9422(94)00848-N|10.1016/0031-9422(94)00965-V|10.1016/0031-9422(95)00183-8|10.1016/0031-9422(95)00403-T|10.1016/0031-9422(95)00557-9|10.1016/0031-9422(95)00778-4|10.1016/0031-9422(95)00796-2|10.1016/0031-9422(95)00969-8|10.1016/0031-9422(96)00146-X|10.1016/0031-9422(96)00236-1|10.1016/0031-9422(96)00241-5|10.1016/0040-4020(68)88069-X|10.1016/0040-4020(69)80025-6|10.1016/0090-6980(85)90142-X|10.1016/0305-1978(87)90052-4|10.1016/0305-1978(88)90009-9|10.1016/0305-1978(92)90068-O|10.1016/0305-1978(96)00016-6|10.1016/0308-8146(84)90008-6|10.1016/0308-8146(84)90014-1|10.1016/0308-8146(93)90137-5|10.1016/0378-8741(88)90005-0|10.1016/0378-8741(89)90058-5|10.1016/0378-8741(93)90057-C|10.1016/0378-8741(94)90005-1|10.1016/0889-1575(91)90017-Z|10.1016/0926-6690(95)00027-A|10.1016/B0-12-227055-X/00448-X|10.1016/C2013-0-07663-3|10.1016/J.APJTM.2016.06.009|10.1016/J.ARABJC.2010.11.006|10.1016/J.ARABJC.2013.10.019|10.1016/J.BMCL.2014.03.014|10.1016/J.BSE.2003.12.009|10.1016/J.BSE.2005.08.007|10.1016/J.CHROMA.2004.03.057|10.1016/J.CHROMA.2006.12.067|10.1016/J.ENVINT.2009.12.006|10.1016/J.FCT.2004.01.008|10.1016/J.FITOTE.2004.04.012|10.1016/J.FITOTE.2004.09.018|10.1016/J.FITOTE.2005.08.020|10.1016/J.FITOTE.2019.104271|10.1016/J.FOODCHEM.2004.05.018|10.1016/J.FOODCHEM.2006.01.003|10.1016/J.FOODCHEM.2006.01.045|10.1016/J.FOODRES.2020.109416|10.1016/J.INDCROP.2012.02.029|10.1016/J.JEP.2006.09.006|10.1016/J.JPBA.2007.01.024|10.1016/J.JPBA.2014.05.010|10.1016/J.LFS.2004.10.001|10.1016/J.PHYMED.2007.03.018|10.1016/J.PHYMED.2009.09.008|10.1016/J.PHYTOCHEM.2003.08.014|10.1016/J.PHYTOCHEM.2004.06.021|10.1016/J.PHYTOCHEM.2005.01.007|10.1016/J.PHYTOCHEM.2005.06.009|10.1016/J.PHYTOCHEM.2005.07.016|10.1016/J.PHYTOCHEM.2006.04.020|10.1016/J.PHYTOCHEM.2007.12.012|10.1016/J.PHYTOCHEM.2009.04.019|10.1016/J.PHYTOCHEM.2009.06.013|10.1016/J.PHYTOCHEM.2009.09.018|10.1016/J.PHYTOL.2009.10.007|10.1016/J.PHYTOL.2010.04.002|10.1016/J.PHYTOL.2011.06.004|10.1016/J.PHYTOL.2013.09.001|10.1016/J.POSTHARVBIO.2013.11.004|10.1016/J.SAJB.2011.09.010|10.1016/J.SCIENTA.2010.10.027|10.1016/J.STEROIDS.2006.04.004|10.1016/S0021-9150(97)00239-6|10.1016/S0021-9673(01)95777-2|10.1016/S0021-9673(96)00802-3|10.1016/S0031-9422(00)00286-7|10.1016/S0031-9422(00)80074-6|10.1016/S0031-9422(00)80558-0|10.1016/S0031-9422(00)80834-1|10.1016/S0031-9422(00)81073-0|10.1016/S0031-9422(00)81445-4|10.1016/S0031-9422(00)81560-5|10.1016/S0031-9422(00)81584-8|10.1016/S0031-9422(00)82558-3|10.1016/S0031-9422(00)82606-0|10.1016/S0031-9422(00)82788-0|10.1016/S0031-9422(00)83190-8|10.1016/S0031-9422(00)83494-9|10.1016/S0031-9422(00)84973-0|10.1016/S0031-9422(00)85174-2|10.1016/S0031-9422(00)85486-2|10.1016/S0031-9422(00)85489-8|10.1016/S0031-9422(00)85511-9|10.1016/S0031-9422(00)85526-0|10.1016/S0031-9422(00)86455-9|10.1016/S0031-9422(00)86884-3|10.1016/S0031-9422(00)88097-8|10.1016/S0031-9422(00)88402-2|10.1016/S0031-9422(00)88480-0|10.1016/S0031-9422(00)88688-4|10.1016/S0031-9422(00)89535-7|10.1016/S0031-9422(00)89578-3|10.1016/S0031-9422(00)90356-X|10.1016/S0031-9422(00)90495-3|10.1016/S0031-9422(00)90616-2|10.1016/S0031-9422(00)94502-3|10.1016/S0031-9422(00)94541-2|10.1016/S0031-9422(00)94783-6|10.1016/S0031-9422(00)94835-0|10.1016/S0031-9422(00)97084-5|10.1016/S0031-9422(00)97284-4|10.1016/S0031-9422(00)97289-3|10.1016/S0031-9422(00)97582-4|10.1016/S0031-9422(00)97935-4|10.1016/S0031-9422(00)98267-0|10.1016/S0031-9422(01)00188-1|10.1016/S0031-9422(01)00395-8|10.1016/S0031-9422(02)00004-3|10.1016/S0031-9422(02)00542-3|10.1016/S0031-9422(03)00466-7|10.1016/S0031-9422(97)00205-7|10.1016/S0031-9422(97)00265-3|10.1016/S0031-9422(97)00762-0|10.1016/S0031-9422(98)00111-3|10.1016/S0031-9422(98)00771-7|10.1016/S0040-4039(00)84550-5|10.1016/S0040-4039(01)98034-7|10.1016/S0090-4295(99)00549-X|10.1016/S0165-022X(00)00079-8|10.1016/S0254-6299(15)30424-5|10.1016/S0271-5317(05)80784-5|10.1016/S0305-1978(01)00096-5|10.1016/S0305-1978(02)00037-6|10.1016/S0305-1978(02)00076-5|10.1016/S0305-1978(02)00079-0|10.1016/S0305-1978(97)00097-5|10.1016/S0308-8146(99)00186-7|10.1016/S0367-326X(01)00327-6|10.1016/S0367-326X(02)00085-0|10.1016/S0367-326X(99)00038-6|10.1016/S0367-326X(99)00057-X|10.1016/S0378-8741(01)00380-4|10.1016/S0378-8741(02)00172-1|10.1016/S0378-8741(04)00117-5|10.1016/S0896-8446(01)00110-3|10.1016/S0926-6690(99)00036-9|10.1016/S0944-7113(96)80073-0|10.1016/S0952-3278(98)90046-1|10.1016/S0953-7562(09)80038-5|10.1016/S0960-8524(98)00190-4|10.1016/S1572-5995(00)80051-4|10.1016/j.chroma.2010.10.052|10.1016/j.foodchem.2004.05.018|10.1016/j.foodres.2018.04.064|10.1016/j.foodres.2020.109416|10.1016/j.indcrop.2010.04.020|10.1016/j.jep.2014.08.010|10.1016/j.jep.2022.115738|10.1016/j.micpath.2017.10.010|10.1016/j.micres.2018.01.003|10.1016/j.renene.2010.10.009|10.1016/j.scienta.2010.10.027|10.1021/AC2001109|10.1021/BK-2002-0803.CH009|10.1021/IE801365K|10.1021/JA00148A004|10.1021/JF00008A025|10.1021/JF00010A013|10.1021/JF00011A007|10.1021/JF00025A025|10.1021/JF00026A027|10.1021/JF00034A033|10.1021/JF00048A018|10.1021/JF00048A056|10.1021/JF00069A008|10.1021/JF00069A012|10.1021/JF00071A034|10.1021/JF001059S|10.1021/JF00105A012|10.1021/JF00107A004|10.1021/JF00111A021|10.1021/JF00111A051|10.1021/JF00123A022|10.1021/JF00125A035|10.1021/JF010701V|10.1021/JF60199A018|10.1021/JF60200A011|10.1021/JF60216A022|10.1021/JF60227A034|10.1021/JF60230A024|10.1021/JF60231A019|10.1021/JO00275A032|10.1021/JO00364A024|10.1021/JO01064A066|10.1021/NP000537Q|10.1021/NP0100789|10.1021/NP0201164|10.1021/NP020513E|10.1021/NP0302394|10.1021/NP040080A|10.1021/NP0497548|10.1021/NP0580210|10.1021/NP060107L|10.1021/NP50008A001|10.1021/NP50020A013|10.1021/NP50029A027|10.1021/NP50031A033|10.1021/NP50033A015|10.1021/NP50034A036|10.1021/NP50034A043|10.1021/NP50042A023|10.1021/NP50044A019|10.1021/NP50045A036|10.1021/NP50047A034|10.1021/NP50048A057|10.1021/NP50060A030|10.1021/NP50070A010|10.1021/NP50073A017|10.1021/NP50073A041|10.1021/NP50073A043|10.1021/NP50075A009|10.1021/NP50081A009|10.1021/NP50090A013|10.1021/NP50100A032|10.1021/NP50102A012|10.1021/NP50107A008|10.1021/NP50108A026|10.1021/NP800762X|10.1021/NP900068T|10.1021/NP900225P|10.1021/ac1006552|10.1021/acs.jnatprod.0c00070|10.1021/acs.jnatprod.6b00823|10.1021/acsfoodscitech.1c00262|10.1021/ie801365k|10.1021/jf00120a031|10.1021/jf011456i|10.1021/jf034365p|10.1021/jf0706979|10.1021/jf071801p|10.1021/jf803627t|10.1021/np900068t|10.1023/B:CONC.0000003408.63300.B5|10.1023/B:CONC.0000018118.52743.A8|10.1038/NBT.2488|10.1038/SCIENTIFICAMERICAN02091918-84ASUPP|10.1038/nbt.2488|10.1039/CT9109701004|10.1039/CT9119901764|10.1039/CT9130302006|10.1039/CT9140500559|10.1039/CT9140501845|10.1039/CT9150700835|10.1039/JR9550002616|10.1039/JR9630000677|10.1039/P19860000551|10.1042/BJ1170593|10.1051/CTV/20163101031|10.1055/S-0028-1097486|10.1055/S-0028-1097643|10.1055/S-0028-1097761|10.1055/S-0028-1097793|10.1055/S-0028-1097819|10.1055/S-0028-1099423|10.1055/S-0028-1099467|10.1055/S-0028-1099537|10.1055/S-0028-1099539|10.1055/S-0028-1099547|10.1055/S-0028-1099554|10.1055/S-0028-1100226|10.1055/S-0029-1241017|10.1055/S-2001-11504|10.1055/S-2001-15817|10.1055/S-2002-32909|10.1055/S-2003-42796|10.1055/S-2004-815540|10.1055/S-2006-957420|10.1055/S-2006-957441|10.1055/S-2006-957507|10.1055/S-2006-957961|10.1055/S-2006-957965|10.1055/S-2006-958019|10.1055/S-2006-959500|10.1055/S-2006-960872|10.1055/S-2006-961616|10.1055/S-2006-961923|10.1055/S-2006-962647|10.1055/S-2007-969136|10.1055/S-2007-969854|10.1055/S-2007-969987|10.1055/S-2009-1216474|10.1055/S-2009-1216479|10.1056/NEJM186707250762502|10.1071/CH9640464|10.1071/CH9850325|10.1071/ch9610135|10.1076/1388-0209(200004)3821-1FT106|10.1076/PHBI.35.1.66.13267|10.1078/094471103322004794|10.1080/00021369.1972.10860370|10.1080/00021369.1980.10864214|10.1080/09637480410001725175|10.1080/10286020108040367|10.1080/1028602031000119781|10.1080/10286020903482810|10.1080/10286029908039868|10.1080/10408390802544520|10.1080/10412905.1989.9697802|10.1080/10412905.1991.9697932|10.1080/10412905.1991.9697935|10.1080/10412905.1992.9698080|10.1080/10412905.1992.9698081|10.1080/10412905.1993.9698251|10.1080/10412905.1993.9698257|10.1080/10412905.1994.9699345|10.1080/10412905.1995.9698462|10.1080/10412905.1995.9698478|10.1080/10412905.1995.9698516|10.1080/10412905.1996.9700565|10.1080/10412905.1996.9700568|10.1080/10412905.1997.9700774|10.1080/10412905.1998.9700856|10.1080/10412905.1998.9700913|10.1080/10412905.1998.9700918|10.1080/10412905.1999.9701059|10.1080/10412905.1999.9701138|10.1080/10412905.1999.9701158|10.1080/10412905.1999.9701189|10.1080/10412905.2000.9699552|10.1080/10412905.2000.9699557|10.1080/10412905.2000.9712167|10.1080/10412905.2001.9699640|10.1080/10412905.2002.9699883|10.1080/10412905.2010.9700320|10.1080/10412905.2010.9700338|10.1080/10575639708041192|10.1080/10575639708043739|10.1080/14786410500045960|10.1080/14786410902833948|10.1080/14786410903075457|10.1080/14786419.2010.523827|10.1080/14786419.2010.531724|10.1080/14786419.2014.883396|10.1089/ind.2013.0013|10.1093/JAOAC/55.3.645|10.1104/PP.84.3.643|10.1104/PP.9.4.845|10.1111/1750-3841.15463|10.1111/J.1365-2621.1985.TB13019.X|10.1111/J.1365-2621.1986.TB13136.X|10.1111/J.1365-2621.1992.TB06881.X|10.1111/J.1365-2621.1992.TB11286.X|10.1111/J.1753-4887.1965.TB02073.X|10.1111/TPJ.12747|10.1111/j.1753-4887.2012.00478.x|10.1111/tpj.12747|10.1128/AEM.51.6.1352-1354.1986|10.1135/CCCC19802710|10.1135/CCCC19820664|10.1135/CCCC19920408|10.1139/O61-082|10.1139/V60-116|10.1139/V64-093|10.1139/V65-086|10.1139/V87-128|10.1142/S0192415X87000151|10.1155/2017/2840718|10.1155/2017/7436259|10.1177/1934578X1000501117|10.1177/1934578X1801301030|10.1201/B14669-29|10.1246/BCSJ.45.930|10.1246/BCSJ.59.3709|10.1248/BPB.21.444|10.1248/BPB.21.657|10.1248/CPB.29.2073|10.1248/CPB.29.55|10.1248/CPB.32.2815|10.1248/CPB.34.4562|10.1248/CPB.35.2880|10.1248/CPB.37.3214|10.1248/CPB.38.812|10.1248/CPB.41.1863|10.1248/CPB.43.1849|10.1248/CPB.51.134|10.1248/CPB.52.1194|10.1248/CPB.52.1235|10.1248/CPB.52.1349|10.1248/CPB.52.1365|10.1248/CPB.52.507|10.1248/CPB.52.767|10.1248/CPB.53.1416|10.1248/CPB.53.1484|10.1248/CPB.54.222|10.1248/CPB.56.585|10.1248/CPB.56.97|10.1248/CPB.57.401|10.1248/CPB.58.1236|10.1248/CPB.58.939|10.1248/YAKUSHI1947.103.3_356|10.1248/YAKUSHI1947.103.9_997|10.1248/YAKUSHI1947.109.4_250|10.1248/YAKUSHI1947.109.4_256|10.1248/YAKUSHI1947.109.4_265|10.1248/YAKUSHI1947.111.2_120|10.1248/YAKUSHI1947.85.5_469|10.1248/YAKUSHI1947.93.5_607|10.1248/YAKUSHI1947.97.12_1372|10.1271/BBB.57.1350|10.1271/BBB.60.654|10.1271/BBB.61.51|10.1271/BBB.64.875|10.1271/BBB1961.45.507|10.1271/BBB1961.47.483|10.1271/BBB1961.48.499|10.1271/BBB1961.49.2819|10.1271/BBB1961.51.1449|10.1271/BBB1961.52.1289|10.1271/BBB1961.52.1889|10.1271/BBB1961.52.2379|10.1271/NOGEIKAGAKU1924.59.895|10.1271/NOGEIKAGAKU1924.61.1119|10.1271/NOGEIKAGAKU1924.75.1291|10.1300/J044V05N02_05|10.1365/S10337-008-0921-Y|10.1371/journal.pone.0016957|10.1371/journal.pone.0073076|10.1371/journal.pone.0113497|10.1515/9783112328101-024|10.1515/BCHM2.1965.341.1.192|10.1515/BOTM.1986.29.1.49|10.1515/BOTM.1987.30.5.371|10.1515/BOTM.1991.34.3.215|10.1515/ZNB-1964-0420|10.1515/ZNB-1984-1020|10.1515/ZNB-2005-0916|10.1515/ZNC-2003-7-811|10.1515/znc-2016-0003|10.15517/am.v31i1.37574|10.1590/S0102-695X2011005000107|10.1590/S0103-50531999000600017|10.1590/S0103-50532011000400018|10.17678/BEUSCITECH.348447|10.21474/IJAR01/1178|10.21608/BFSA.1985.75705|10.21608/BFSA.1985.75707|10.21608/BFSA.1985.75886|10.21608/BFSA.2003.65484|10.21608/ZJPS.1994.186612|10.21608/ZJPS.1995.185614|10.21608/ZJPS.1997.169710|10.2307/30047228|10.2307/3111597|10.23893/1307-2080.APS.05611|10.31003/USPNF_M20430_03_01|10.3109/01480548908999146|10.3109/08958378.2013.878005|10.3109/10915819309140647|10.3109/13880208309070615|10.3109/13880208409070644|10.3109/13880208509070678|10.3109/13880208709060924|10.3109/13880209109082869|10.3109/13880209209054625|10.3184/030823401103169315|10.32388/D0O6OH|10.3329/bjb.v37i1.1568|10.3389/FMICB.2017.02704|10.3389/FMICB.2018.01302|10.3389/FMICB.2019.01390|10.3389/FMOLB.2018.00096|10.3389/fmicb.2017.02704|10.3389/fmicb.2018.01302|10.3389/fmicb.2019.01390|10.3390/MOLECULES13081923|10.3390/MOLECULES15085807|10.3390/MOLECULES16098076|10.3390/MOLECULES191119220|10.3390/MOLECULES24112053|10.3390/foods9060770|10.3390/molecules19022684|10.3390/molecules23123219|10.3390/molecules25010011|10.3390/molecules27020483|10.3891/ACTA.CHEM.SCAND.17-1161|10.4038/JNSFSR.V10I2.8431|10.4038/JNSFSR.V11I1.8410|10.4103/0973-1296.99287|10.4197/SCI.16-1.4|10.4268/CJCMM20100712|10.4268/CJCMM20101114|10.4268/CJCMM20111013|10.4268/CJCMM20111611|10.4268/CJCMM20120313|10.4268/CJCMM20120916|10.4268/CJCMM20141334|10.4268/CJCMM20150722|10.4268/CJCMM20160315|10.4268/CJCMM20161809|10.4314/BCSE.V12I1.21038|10.4314/BCSE.V15I1.71732|10.4314/GJPAS.V6I1.16077|10.5219/332|10.5650/JOS1956.25.561|10.5650/jos.ess17006|10.5650/jos.ess19091|10.5650/jos.ess20128|10.5650/jos.ess21076|10.5962/BHL.TITLE.108605|10.7717/peerj.5832

>  <synonyms>  (1586) 
(1(1)(3)C)hexadecanoic acid|1-Hexyldecanoic Acid|1-MONOPALMITIN_met001|1-Pentadecanecarboxylic acid|1-hexyldecanoate|1219802-61-5|15-carboxypentadecane-3,5,7-triide|1b56|2V16EO95H1|2hmb|2hnx|3v2q|4-02-00-01157 (Beilstein Handbook Reference)|57-10-3|67701-02-4|A831313|AC9381|AI3-01594|AKOS005720983|Acid, Hexadecanoic|Acid, Palmitic|Aethalic acid|BA71C79B-C9B1-451A-A5BE-B480B5CC7D0C|BBL011563|BDBM50152850|BP-27917|BRN 0607489|C00249|C16:0|CAS-57-10-3|CCG-267027|CCRIS 5443|CETYL ACID [VANDF]|CH3-(CH2)14-COOH|CH3-[CH2]14-COOH|CHEBI:15756|CHEMBL82293|CR-0047|CS-0009861|Cetylic acid|D05341|DB03796|DTXCID101602|DTXSID2021602|EC 200-312-9|EDENOR C 16-98-100|EINECS 200-312-9|EN300-19603|Edenor C16|Emersol 140|Epitope ID:141181|F0001-1488|FA 1695|FA 16:0|FAT|FEMA No. 2832|GTPL1055|Glycon P-45|HEXADECANOIC-11,11,12,12-D4 ACID|HMS3649N08|HSDB 5001|HY-N0830|Hexadecanoate (n-C16:0)|Hexadecanoic acid|Hexadecanoic acid (9CI)|Hexadecanoic acid 10 microg\/mL in Acetonitrile|Hexadecanoic acid Palmitic acid|Hexadecanoic acid anion|Hexadecanoic--d5 Acid|Hexadecoate|Hexadecylic acid|Hydrofol|Hydrofol Acid 1690|Hystrene 8016|IMEX C 1498|Industrene 4516|Kortacid 1698|LMFA01010001|LUCINACTANT COMPONENT PALMITIC ACID|Loxiol EP 278|Lunac P 95KC|Lunac P 98|MFCD00002747|NCGC00164358-01|NCGC00256424-01|NCGC00259220-01|NS00008548|NSC 5030|NSC-5030|P0002|P1145|P5585_SIGMA|PA 900|PALMITIC ACID (CONSTITUENT OF EVENING PRIMROSE OIL)|PALMITIC ACID (CONSTITUENT OF FLAX SEED OIL)|PALMITIC ACID (CONSTITUENT OF SAW PALMETTO)|PALMITIC ACID (CONSTITUENT OF SPIRULINA)|PALMITIC ACID (EP MONOGRAPH)|PALMITIC ACID (II)|PALMITIC ACID (MART.)|PALMITIC ACID [DSC]|PALMITIC ACID [FCC]|PALMITIC ACID [FHFI]|PALMITIC ACID [HSDB]|PALMITIC ACID [II]|PALMITIC ACID [USAN]|PALMITIC ACID [USP-RS]|PALMITIC ACID [VANDF]|PALMITIC ACID [WHO-DD]|PLM|Palmitic Acid, FCC|Palmitic acid|Palmitic acid (16:0)|Palmitic acid (7CI,8CI)|Palmitic acid (NF)|Palmitic acid (natural)|Palmitic acid 95%|Palmitic acid [USAN:NF]|Palmitic acid, >=95%, FCC, FG|Palmitic acid, >=98% palmitic acid basis (GC)|Palmitic acid, >=99%|Palmitic acid, BioXtra, >=99%|Palmitic acid, European Pharmacopoeia (EP) Reference Standard|Palmitic acid, Grade II, ~95%|Palmitic acid, Pharmaceutical Secondary Standard; Certified Reference Material|Palmitic acid, SAJ first grade, >=95.0%|Palmitic acid, United States Pharmacopeia (USP) Reference Standard|Palmitic acid, Vetec(TM) reagent grade, 98%|Palmitic acid, analytical standard|Palmitic acid, certified reference material, TraceCERT(R)|Palmitic acid, for synthesis, 98.0%|Palmitic acid, natural, 98%, FG|Palmitic acid, pure|Palmitic acid, purum, >=98.0% (GC)|Palmitic acid; Hexadecanoic acid|Palmitic acid_RaGuSa|Palmitic acid_jeyam|Palmitinate|Palmitinic acid|Palmitinsaeure|Prifac 2960|Pristerene 4934|Q209727|QSPL 166|SCHEMBL6177|SR-01000944716|STL146733|SURFAXIN COMPONENT PALMITIC ACID|SY006518|Sodium Palmitate, Palmitic acid sodium salt, Sodium hexadecanoate, Sodium pentadecanecarboxylate, HSDB 759|Tox21_112105|Tox21_201671|Tox21_302966|UNII-2V16EO95H1|Univol U332|WLN: QV15|Z104474418|bmse000590|fatty acid 16:0|hexadecoic acid|hexaectylic acid|n-Hexadecoic acid|n-Hexadecyclic Acid|n-hexadecanoic acid|n-hexadecoate|palmic acid|palmitate|palmitic-acid|palmitoic acid|pentadecanecarboxylate|s3794|tridecanoic acid

>  <cas>  (1586) 
57-10-3|67701-02-4

$$$$

     RDKit          2D

 38 41  0  0  0  0  0  0  0  0999 V2000
    9.4033   -1.5087    0.0000 C   0  0  0  0  0  0  0  0  0  0  0  0
    8.2710   -0.5249    0.0000 O   0  0  0  0  0  0  0  0  0  0  0  0
    6.8528   -1.0137    0.0000 C   0  0  0  0  0  0  0  0  0  0  0  0
    6.5671   -2.4863    0.0000 C   0  0  0  0  0  0  0  0  0  0  0  0
    5.1490   -2.9751    0.0000 C   0  0  0  0  0  0  0  0  0  0  0  0
    4.0166   -1.9913    0.0000 C   0  0  0  0  0  0  0  0  0  0  0  0
    2.5985   -2.4802    0.0000 C   0  0  0  0  0  0  0  0  0  0  0  0
    1.4661   -1.4964    0.0000 C   0  0  0  0  0  0  0  0  0  0  0  0
    0.0480   -1.9852    0.0000 C   0  0  0  0  0  0  0  0  0  0  0  0
   -0.2378   -3.4578    0.0000 O   0  0  0  0  0  0  0  0  0  0  0  0
   -1.0844   -1.0015    0.0000 O   0  0  0  0  0  0  0  0  0  0  0  0
   -2.5025   -1.4903    0.0000 C   0  0  0  0  0  0  0  0  0  0  0  0
   -3.6349   -0.5066    0.0000 C   0  0  0  0  0  0  0  0  0  0  0  0
   -3.3492    0.9660    0.0000 O   0  0  0  0  0  0  0  0  0  0  0  0
   -1.9310    1.4548    0.0000 C   0  0  0  0  0  0  0  0  0  0  0  0
   -0.7987    0.4710    0.0000 O   0  0  0  0  0  0  0  0  0  0  0  0
    0.6195    0.9598    0.0000 C   0  0  0  0  0  0  0  0  0  0  0  0
    0.9052    2.4324    0.0000 C   0  0  0  0  0  0  0  0  0  0  0  0
    2.3233    2.9212    0.0000 C   0  0  0  0  0  0  0  0  0  0  0  0
    2.6091    4.3937    0.0000 O   0  0  0  0  0  0  0  0  0  0  0  0
    3.4557    1.9374    0.0000 O   0  0  0  0  0  0  0  0  0  0  0  0
   -0.2272    3.4161    0.0000 C   0  0  0  0  0  0  0  0  0  0  0  0
   -0.2538    4.9159    0.0000 C   0  0  0  0  0  0  0  0  0  0  0  0
   -1.6884    5.3540    0.0000 C   0  0  0  0  0  0  0  0  0  0  0  0
   -2.1772    6.7721    0.0000 O   0  0  0  0  0  0  0  0  0  0  0  0
   -2.5484    4.1250    0.0000 C   0  0  0  0  0  0  0  0  0  0  0  0
   -4.0482    4.0983    0.0000 C   0  0  0  0  0  0  0  0  0  0  0  0
   -1.6453    2.9273    0.0000 C   0  0  0  0  0  0  0  0  0  0  0  0
   -5.0530   -0.9954    0.0000 O   0  0  0  0  0  0  0  0  0  0  0  0
   -5.3388   -2.4679    0.0000 C   0  0  0  0  0  0  0  0  0  0  0  0
   -6.7569   -2.9567    0.0000 C   0  0  0  0  0  0  0  0  0  0  0  0
   -7.8893   -1.9730    0.0000 O   0  0  0  0  0  0  0  0  0  0  0  0
   -4.2064   -3.4516    0.0000 C   0  0  0  0  0  0  0  0  0  0  0  0
   -4.4922   -4.9242    0.0000 O   0  0  0  0  0  0  0  0  0  0  0  0
   -2.7883   -2.9628    0.0000 C   0  0  0  0  0  0  0  0  0  0  0  0
   -1.6559   -3.9466    0.0000 O   0  0  0  0  0  0  0  0  0  0  0  0
    4.3023   -0.5188    0.0000 C   0  0  0  0  0  0  0  0  0  0  0  0
    5.7205   -0.0300    0.0000 C   0  0  0  0  0  0  0  0  0  0  0  0
  1  2  1  0
  2  3  1  0
  3  4  2  0
  4  5  1  0
  5  6  2  0
  6  7  1  0
  7  8  2  0
  8  9  1  0
  9 10  2  0
  9 11  1  0
 12 11  1  6
 12 13  1  0
 13 14  1  1
 15 14  1  1
 15 16  1  0
 16 17  1  0
 17 18  2  0
 18 19  1  0
 19 20  2  0
 19 21  1  0
 18 22  1  0
 22 23  1  6
 23 24  1  0
 24 25  1  1
 24 26  1  0
 26 27  1  1
 26 28  1  0
 13 29  1  0
 29 30  1  0
 30 31  1  1
 31 32  1  0
 30 33  1  0
 33 34  1  6
 33 35  1  0
 35 36  1  1
  6 37  1  0
 37 38  2  0
 38  3  1  0
 35 12  1  0
 28 15  1  6
 28 22  1  0
M  END
>  <identifier>  (1587) 
CNP0196950.1

>  <canonical_smiles>  (1587) 
COC1=CC=C(/C=C/C(=O)O[C@H]2[C@H](O[C@@H]3OC=C(C(=O)O)[C@H]4C[C@H](O)[C@H](C)[C@@H]34)O[C@H](CO)[C@@H](O)[C@@H]2O)C=C1

>  <standard_inchi>  (1587) 
InChI=1S/C26H32O12/c1-12-17(28)9-15-16(24(32)33)11-35-25(20(12)15)38-26-23(22(31)21(30)18(10-27)36-26)37-19(29)8-5-13-3-6-14(34-2)7-4-13/h3-8,11-12,15,17-18,20-23,25-28,30-31H,9-10H2,1-2H3,(H,32,33)/b8-5+/t12-,15+,17-,18+,20+,21+,22-,23+,25-,26-/m0/s1

>  <standard_inchi_key>  (1587) 
NGGRQHCWDPKXGJ-XIZKTRHTSA-N

>  <name>  (1587) 
nan

>  <iupac_name>  (1587) 
(1~{S},4~{a}~{S},6~{S},7~{R},7~{a}~{S})-1-[(2~{S},3~{R},4~{S},5~{S},6~{R})-4,5-dihydroxy-6-(hydroxymethyl)-3-[(~{E})-3-(4-methoxyphenyl)prop-2-enoyl]oxy-tetrahydropyran-2-yl]oxy-6-hydroxy-7-methyl-1,4~{a},5,6,7,7~{a}-hexahydrocyclopenta[c]pyran-4-carboxylic acid

>  <annotation_level>  (1587) 
5

>  <total_atom_count>  (1587) 
70

>  <heavy_atom_count>  (1587) 
38

>  <molecular_weight>  (1587) 
536.53

>  <exact_molecular_weight>  (1587) 
536.18938

>  <molecular_formula>  (1587) 
C26H32O12

>  <alogp>  (1587) 
0.03

>  <topological_polar_surface_area>  (1587) 
181.44

>  <rotatable_bond_count>  (1587) 
8

>  <hydrogen_bond_acceptors>  (1587) 
11

>  <hydrogen_bond_donors>  (1587) 
5

>  <hydrogen_bond_acceptors_lipinski>  (1587) 
11

>  <hydrogen_bond_donors_lipinski>  (1587) 
5

>  <lipinski_rule_of_five_violations>  (1587) 
2

>  <aromatic_rings_count>  (1587) 
1

>  <qed_drug_likeliness>  (1587) 
0.22

>  <formal_charge>  (1587) 
0

>  <fractioncsp3>  (1587) 
0.54

>  <number_of_minimal_rings>  (1587) 
4

>  <van_der_walls_volume>  (1587) 
460.61

>  <contains_sugar>  (1587) 
True

>  <contains_ring_sugars>  (1587) 
True

>  <contains_linear_sugars>  (1587) 
False

>  <murcko_framework>  (1587) 
O1C=CC2CCCC2C1OC3OCCCC3OCC=Cc4ccccc4

>  <np_likeness>  (1587) 
2.29

>  <chemical_class>  (1587) 
Prenol lipids

>  <chemical_sub_class>  (1587) 
Terpene glycosides

>  <chemical_super_class>  (1587) 
Lipids and lipid-like molecules

>  <direct_parent_classification>  (1587) 
Iridoid O-glycosides

>  <np_classifier_pathway>  (1587) 
Terpenoids

>  <np_classifier_superclass>  (1587) 
Monoterpenoids

>  <np_classifier_class>  (1587) 
Iridoids monoterpenoids

>  <np_classifier_is_glycoside>  (1587) 
True

>  <organisms>  (1587) 
Chiococca alba

>  <collections>  (1587) 
ChemSpider NPs|Latin America dataset|NuBBEDB|Super Natural II|WikiData Natural Products|ZINC NP

>  <dois>  (1587) 
10.1016/S0031-9422(99)00105-3

>  <synonyms>  (1587) 
Alboside III

>  <cas>  (1587) 
nan

$$$$

     RDKit          2D

 33 37  0  0  0  0  0  0  0  0999 V2000
    4.4929   -2.8666    0.0000 C   0  0  0  0  0  0  0  0  0  0  0  0
    3.4335   -1.8047    0.0000 C   0  0  0  0  0  0  0  0  0  0  0  0
    3.8234   -0.3563    0.0000 C   0  0  0  0  0  0  0  0  0  0  0  0
    5.2728    0.0302    0.0000 C   0  0  0  0  0  0  0  0  0  0  0  0
    6.3322   -1.0317    0.0000 O   0  0  0  0  0  0  0  0  0  0  0  0
    5.6627    1.4786    0.0000 C   0  0  0  0  0  0  0  0  0  0  0  0
    5.2762    2.9280    0.0000 O   0  0  0  0  0  0  0  0  0  0  0  0
    6.7246    2.5381    0.0000 C   0  0  0  0  0  0  0  0  0  0  0  0
    7.3601    3.8968    0.0000 C   0  0  0  0  0  0  0  0  0  0  0  0
    7.9523    1.6762    0.0000 C   0  0  0  0  0  0  0  0  0  0  0  0
    1.9841   -2.1913    0.0000 C   0  0  0  0  0  0  0  0  0  0  0  0
    1.4449   -3.5910    0.0000 C   0  0  0  0  0  0  0  0  0  0  0  0
   -0.0529   -3.5107    0.0000 C   0  0  0  0  0  0  0  0  0  0  0  0
   -0.4394   -2.0614    0.0000 C   0  0  0  0  0  0  0  0  0  0  0  0
   -1.6063   -3.0040    0.0000 C   0  0  0  0  0  0  0  0  0  0  0  0
   -1.7751   -1.3788    0.0000 C   0  0  0  0  0  0  0  0  0  0  0  0
   -3.0341   -2.1943    0.0000 C   0  0  0  0  0  0  0  0  0  0  0  0
   -4.3698   -1.5117    0.0000 C   0  0  0  0  0  0  0  0  0  0  0  0
   -4.4466   -0.0137    0.0000 C   0  0  0  0  0  0  0  0  0  0  0  0
   -5.7823    0.6689    0.0000 C   0  0  0  0  0  0  0  0  0  0  0  0
   -7.2709    0.8534    0.0000 C   0  0  0  0  0  0  0  0  0  0  0  0
   -6.2225   -0.7651    0.0000 C   0  0  0  0  0  0  0  0  0  0  0  0
   -5.8590    2.1669    0.0000 C   0  0  0  0  0  0  0  0  0  0  0  0
   -7.1947    2.8495    0.0000 O   0  0  0  0  0  0  0  0  0  0  0  0
   -4.6000    2.9824    0.0000 C   0  0  0  0  0  0  0  0  0  0  0  0
   -3.2643    2.2998    0.0000 C   0  0  0  0  0  0  0  0  0  0  0  0
   -3.1876    0.8018    0.0000 C   0  0  0  0  0  0  0  0  0  0  0  0
   -1.9286    1.6173    0.0000 C   0  0  0  0  0  0  0  0  0  0  0  0
   -1.8519    0.1192    0.0000 C   0  0  0  0  0  0  0  0  0  0  0  0
   -0.5929    0.9347    0.0000 C   0  0  0  0  0  0  0  0  0  0  0  0
    0.7428    0.2521    0.0000 C   0  0  0  0  0  0  0  0  0  0  0  0
    0.8195   -1.2459    0.0000 C   0  0  0  0  0  0  0  0  0  0  0  0
    2.1568   -0.5665    0.0000 C   0  0  0  0  0  0  0  0  0  0  0  0
  2  1  1  6
  2  3  1  0
  3  4  1  0
  4  5  1  6
  4  6  1  0
  6  7  1  6
  7  8  1  0
  8  9  1  0
  8 10  1  0
  2 11  1  0
 11 12  1  6
 12 13  1  0
 13 14  1  0
 14 15  1  1
 14 16  1  0
 16 17  2  0
 17 18  1  0
 19 18  1  1
 19 20  1  0
 20 21  1  0
 20 22  1  0
 20 23  1  0
 23 24  2  0
 23 25  1  0
 25 26  1  0
 26 27  1  0
 27 28  1  1
 27 29  1  0
 29 30  1  1
 30 31  1  0
 31 32  1  0
 32 33  1  6
  8  6  1  0
 32 11  1  0
 32 14  1  0
 29 16  1  0
 27 19  1  0
M  END
>  <identifier>  (1588) 
CNP0256415.4

>  <canonical_smiles>  (1588) 
C[C@@H](C[C@@H](O)[C@@H]1OC1(C)C)[C@@H]1CC[C@]2(C)C3=CC[C@H]4C(C)(C)C(=O)CC[C@]4(C)[C@H]3CC[C@@]12C

>  <standard_inchi>  (1588) 
InChI=1S/C30H48O3/c1-18(17-22(31)25-27(4,5)33-25)19-11-15-30(8)21-9-10-23-26(2,3)24(32)13-14-28(23,6)20(21)12-16-29(19,30)7/h9,18-20,22-23,25,31H,10-17H2,1-8H3/t18-,19-,20-,22+,23-,25-,28+,29-,30+/m0/s1

>  <standard_inchi_key>  (1588) 
GKQMMZUXYRXFOH-QBLSGNHRSA-N

>  <name>  (1588) 
niloticin

>  <iupac_name>  (1588) 
(5~{R},9~{R},10~{R},13~{S},14~{S},17~{S})-17-[(1~{S},3~{R})-3-[(2~{S})-3,3-dimethyloxiran-2-yl]-3-hydroxy-1-methyl-propyl]-4,4,10,13,14-pentamethyl-1,2,5,6,9,11,12,15,16,17-decahydrocyclopenta[a]phenanthren-3-one

>  <annotation_level>  (1588) 
5

>  <total_atom_count>  (1588) 
81

>  <heavy_atom_count>  (1588) 
33

>  <molecular_weight>  (1588) 
456.71

>  <exact_molecular_weight>  (1588) 
456.36035

>  <molecular_formula>  (1588) 
C30H48O3

>  <alogp>  (1588) 
6.73

>  <topological_polar_surface_area>  (1588) 
49.83

>  <rotatable_bond_count>  (1588) 
4

>  <hydrogen_bond_acceptors>  (1588) 
3

>  <hydrogen_bond_donors>  (1588) 
1

>  <hydrogen_bond_acceptors_lipinski>  (1588) 
3

>  <hydrogen_bond_donors_lipinski>  (1588) 
1

>  <lipinski_rule_of_five_violations>  (1588) 
1

>  <aromatic_rings_count>  (1588) 
0

>  <qed_drug_likeliness>  (1588) 
0.38

>  <formal_charge>  (1588) 
0

>  <fractioncsp3>  (1588) 
0.90

>  <number_of_minimal_rings>  (1588) 
5

>  <van_der_walls_volume>  (1588) 
464.10

>  <contains_sugar>  (1588) 
False

>  <contains_ring_sugars>  (1588) 
False

>  <contains_linear_sugars>  (1588) 
False

>  <murcko_framework>  (1588) 
O1CC1CCCC2CCC3C4=CCC5CCCCC5C4CCC32

>  <np_likeness>  (1588) 
3.59

>  <chemical_class>  (1588) 
Steroids and steroid derivatives

>  <chemical_sub_class>  (1588) 
Bile acids, alcohols and derivatives

>  <chemical_super_class>  (1588) 
Lipids and lipid-like molecules

>  <direct_parent_classification>  (1588) 
Bile acids, alcohols and derivatives

>  <np_classifier_pathway>  (1588) 
Terpenoids

>  <np_classifier_superclass>  (1588) 
Triterpenoids

>  <np_classifier_class>  (1588) 
Lanostane, Tirucallane and Euphane triterpenoids

>  <np_classifier_is_glycoside>  (1588) 
False

>  <organisms>  (1588) 
Aglaia leucophylla|Aglaia rubiginosa|Boronia alata|Boronia inornata|Castela polyandra|Cedrela fissilis|Dysoxylum beddomei|Dysoxylum variabile|Eurycoma longifolia|Luvunga sarmentosa|Phellodendron amurense|Phellodendron chinense|Toona ciliata|Trichilia schomburgkii|Turraea nilotica|Vepris uguenensis

>  <collections>  (1588) 
ANPDB|KNApSaCK|Latin America dataset|NANPDB (Natural Products from Northern African Sources)|NuBBEDB|Super Natural II|TCMDB-Taiwan (Traditional Chinese Medicine database)|WikiData Natural Products

>  <dois>  (1588) 
10.1016/0031-9422(88)80312-1|10.1016/0031-9422(88)80448-5|10.1016/0031-9422(92)80285-M|10.1016/0031-9422(94)00567-D|10.1016/0031-9422(95)00415-4|10.1016/J.PHYMED.2009.10.015|10.1016/S0031-9422(02)00156-5|10.1016/S0031-9422(98)00589-5|10.1016/j.phytochem.2012.06.025|10.1021/NP0002841|10.1021/NP50076A008|10.1021/NP50093A018|10.1039/C1OB06150J|10.1055/S-0028-1088323|10.1055/s-0028-1088323|10.1071/CH9941783|10.1080/14786410310001626820|10.1248/CPB.38.1616|10.1248/CPB.40.1053

>  <synonyms>  (1588) 
(13,14,17,20S,23R,24S)-24,25-Epoxy-23-hydroxylanost-7-en-3-one|(23R,24S)-24,25-Epoxy-23-hydroxy-5alpha-tirucall-7-en-3-one|(5R,9R,10R,13S,14S,17S)-17-[(2S,4R)-4-[(2S)-3,3-dimethyloxiran-2-yl]-4-hydroxybutan-2-yl]-4,4,10,13,14-pentamethyl-1,2,5,6,9,11,12,15,16,17-decahydrocyclopenta[a]phenanthren-3-one|115404-57-4|AKOS040744637|CID 14021529|CS-0023535|FS-10176|HY-N3188|Lanost-7-en-3-one, 24,25-epoxy-23-hydroxy-, (13alpha,14beta,17alpha,20S,23R,24S)-|Nilocetin|Niloticin|niloticin

>  <cas>  (1588) 
115404-57-4

$$$$

     RDKit          2D

 22 26  0  0  0  0  0  0  0  0999 V2000
    3.5072    0.3220    0.0000 C   0  0  0  0  0  0  0  0  0  0  0  0
    2.0099    0.2325    0.0000 C   0  0  0  0  0  0  0  0  0  0  0  0
    2.5371    1.6368    0.0000 C   0  0  0  0  0  0  0  0  0  0  0  0
    3.9831    2.0357    0.0000 O   0  0  0  0  0  0  0  0  0  0  0  0
    1.3645    2.5721    0.0000 O   0  0  0  0  0  0  0  0  0  0  0  0
    0.1125    1.7459    0.0000 C   0  0  0  0  0  0  0  0  0  0  0  0
   -1.3919    1.8287    0.0000 C   0  0  0  0  0  0  0  0  0  0  0  0
   -2.3273    0.6560    0.0000 C   0  0  0  0  0  0  0  0  0  0  0  0
   -3.8105    0.8798    0.0000 C   0  0  0  0  0  0  0  0  0  0  0  0
   -4.3584    2.2761    0.0000 O   0  0  0  0  0  0  0  0  0  0  0  0
   -4.7459   -0.2929    0.0000 C   0  0  0  0  0  0  0  0  0  0  0  0
   -4.1980   -1.6892    0.0000 C   0  0  0  0  0  0  0  0  0  0  0  0
   -2.7148   -1.9130    0.0000 C   0  0  0  0  0  0  0  0  0  0  0  0
   -1.7794   -0.7403    0.0000 C   0  0  0  0  0  0  0  0  0  0  0  0
   -0.2962   -0.9641    0.0000 C   0  0  0  0  0  0  0  0  0  0  0  0
    0.3946   -2.2955    0.0000 C   0  0  0  0  0  0  0  0  0  0  0  0
    1.8931   -2.3630    0.0000 C   0  0  0  0  0  0  0  0  0  0  0  0
    2.7007   -1.0990    0.0000 C   0  0  0  0  0  0  0  0  0  0  0  0
    4.1992   -1.1664    0.0000 O   0  0  0  0  0  0  0  0  0  0  0  0
    1.8820   -1.0116    0.0000 O   0  0  0  0  0  0  0  0  0  0  0  0
    0.5271   -0.9506    0.0000 C   0  0  0  0  0  0  0  0  0  0  0  0
    0.5114    0.2999    0.0000 C   0  0  0  0  0  0  0  0  0  0  0  0
  2  1  1  6
  2  3  1  0
  3  4  2  0
  3  5  1  0
  5  6  1  0
  6  7  1  1
  8  7  1  6
  8  9  1  0
  9 10  2  0
  9 11  1  0
 11 12  1  0
 12 13  1  0
 13 14  1  0
 15 14  1  1
 15 16  1  0
 16 17  1  0
 17 18  1  0
 18 19  1  6
 18 20  1  0
 20 21  1  0
 15 22  1  0
 18  2  1  0
 22  2  1  0
 22  6  1  0
 14  8  1  0
 21 15  1  0
M  END
>  <identifier>  (1589) 
CNP0148018.1

>  <canonical_smiles>  (1589) 
C[C@]12C(=O)O[C@@H]3C[C@H]4C(=O)CCCC4[C@@]4(CC[C@@]1(O)OC4)C32

>  <standard_inchi>  (1589) 
InChI=1S/C17H22O5/c1-15-13-12(22-14(15)19)7-9-10(3-2-4-11(9)18)16(13)5-6-17(15,20)21-8-16/h9-10,12-13,20H,2-8H2,1H3/t9-,10?,12-,13?,15+,16+,17-/m1/s1

>  <standard_inchi_key>  (1589) 
UUEXLVLYJAIBND-AMDFBXLPSA-N

>  <name>  (1589) 
nan

>  <iupac_name>  (1589) 
(1~{S},7~{R},9~{R},12~{R},13~{R})-13-hydroxy-12-methyl-10,14-dioxapentacyclo[11.2.2.1^{1,9}.0^{2,7}.0^{12,18}]octadecane-6,11-dione

>  <annotation_level>  (1589) 
4

>  <total_atom_count>  (1589) 
44

>  <heavy_atom_count>  (1589) 
22

>  <molecular_weight>  (1589) 
306.36

>  <exact_molecular_weight>  (1589) 
306.14672

>  <molecular_formula>  (1589) 
C17H22O5

>  <alogp>  (1589) 
1.42

>  <topological_polar_surface_area>  (1589) 
72.83

>  <rotatable_bond_count>  (1589) 
0

>  <hydrogen_bond_acceptors>  (1589) 
5

>  <hydrogen_bond_donors>  (1589) 
1

>  <hydrogen_bond_acceptors_lipinski>  (1589) 
5

>  <hydrogen_bond_donors_lipinski>  (1589) 
1

>  <lipinski_rule_of_five_violations>  (1589) 
0

>  <aromatic_rings_count>  (1589) 
0

>  <qed_drug_likeliness>  (1589) 
0.69

>  <formal_charge>  (1589) 
0

>  <fractioncsp3>  (1589) 
0.88

>  <number_of_minimal_rings>  (1589) 
6

>  <van_der_walls_volume>  (1589) 
nan

>  <contains_sugar>  (1589) 
False

>  <contains_ring_sugars>  (1589) 
False

>  <contains_linear_sugars>  (1589) 
False

>  <murcko_framework>  (1589) 
O1CC2C3OCC4(CC3)C5CCCCC5CC1C24

>  <np_likeness>  (1589) 
2.90

>  <chemical_class>  (1589) 
Naphthopyrans

>  <chemical_sub_class>  (1589) 
Naphthopyrans

>  <chemical_super_class>  (1589) 
Organoheterocyclic compounds

>  <direct_parent_classification>  (1589) 
Naphthopyrans

>  <np_classifier_pathway>  (1589) 
Terpenoids

>  <np_classifier_superclass>  (1589) 
Diterpenoids

>  <np_classifier_class>  (1589) 
Norpimarane and Norisopimarane diterpenoids

>  <np_classifier_is_glycoside>  (1589) 
True

>  <organisms>  (1589) 
Casimirella rupestris|Humirianthera rupestris

>  <collections>  (1589) 
Latin America dataset|NuBBEDB|WikiData Natural Products

>  <dois>  (1589) 
10.1016/S0031-9422(00)98552-2

>  <synonyms>  (1589) 
Humirianthenolide E

>  <cas>  (1589) 
nan

$$$$

     RDKit          2D

 23 26  0  0  0  0  0  0  0  0999 V2000
    5.3699   -3.0174    0.0000 C   0  0  0  0  0  0  0  0  0  0  0  0
    5.6758   -1.5489    0.0000 O   0  0  0  0  0  0  0  0  0  0  0  0
    4.5570   -0.5497    0.0000 C   0  0  0  0  0  0  0  0  0  0  0  0
    3.1323   -1.0190    0.0000 C   0  0  0  0  0  0  0  0  0  0  0  0
    2.0136   -0.0198    0.0000 C   0  0  0  0  0  0  0  0  0  0  0  0
    2.3195    1.4487    0.0000 C   0  0  0  0  0  0  0  0  0  0  0  0
    3.7442    1.9179    0.0000 C   0  0  0  0  0  0  0  0  0  0  0  0
    4.8630    0.9188    0.0000 C   0  0  0  0  0  0  0  0  0  0  0  0
    6.2877    1.3880    0.0000 O   0  0  0  0  0  0  0  0  0  0  0  0
    1.2008    2.4479    0.0000 O   0  0  0  0  0  0  0  0  0  0  0  0
   -0.2239    1.9786    0.0000 C   0  0  0  0  0  0  0  0  0  0  0  0
   -0.5299    0.5101    0.0000 C   0  0  0  0  0  0  0  0  0  0  0  0
   -1.9546    0.0408    0.0000 C   0  0  0  0  0  0  0  0  0  0  0  0
   -2.2605   -1.4276    0.0000 C   0  0  0  0  0  0  0  0  0  0  0  0
   -3.6852   -1.8969    0.0000 C   0  0  0  0  0  0  0  0  0  0  0  0
   -4.8040   -0.8977    0.0000 C   0  0  0  0  0  0  0  0  0  0  0  0
   -6.2951   -1.0605    0.0000 O   0  0  0  0  0  0  0  0  0  0  0  0
   -6.9108    0.3073    0.0000 C   0  0  0  0  0  0  0  0  0  0  0  0
   -5.8001    1.3155    0.0000 O   0  0  0  0  0  0  0  0  0  0  0  0
   -4.4980    0.5707    0.0000 C   0  0  0  0  0  0  0  0  0  0  0  0
   -3.0733    1.0400    0.0000 C   0  0  0  0  0  0  0  0  0  0  0  0
    0.5889   -0.4891    0.0000 C   0  0  0  0  0  0  0  0  0  0  0  0
    0.2829   -1.9576    0.0000 O   0  0  0  0  0  0  0  0  0  0  0  0
  1  2  1  0
  2  3  1  0
  3  4  2  0
  4  5  1  0
  5  6  2  0
  6  7  1  0
  7  8  2  0
  8  9  1  0
  6 10  1  0
 10 11  1  0
 11 12  2  0
 12 13  1  0
 13 14  2  0
 14 15  1  0
 15 16  2  0
 16 17  1  0
 17 18  1  0
 18 19  1  0
 19 20  1  0
 20 21  2  0
 12 22  1  0
 22 23  2  0
  8  3  1  0
 21 13  1  0
 22  5  1  0
 20 16  1  0
M  END
>  <identifier>  (1590) 
CNP0320714.0

>  <canonical_smiles>  (1590) 
COC1=CC2=C(C=C1O)OC=C(C1=CC=C3OCOC3=C1)C2=O

>  <standard_inchi>  (1590) 
InChI=1S/C17H12O6/c1-20-15-5-10-14(6-12(15)18)21-7-11(17(10)19)9-2-3-13-16(4-9)23-8-22-13/h2-7,18H,8H2,1H3

>  <standard_inchi_key>  (1590) 
QMDVDQRHFDCVKB-UHFFFAOYSA-N

>  <name>  (1590) 
fujikinetin

>  <iupac_name>  (1590) 
3-(1,3-benzodioxol-5-yl)-7-hydroxy-6-methoxy-chromen-4-one

>  <annotation_level>  (1590) 
5

>  <total_atom_count>  (1590) 
35

>  <heavy_atom_count>  (1590) 
23

>  <molecular_weight>  (1590) 
312.28

>  <exact_molecular_weight>  (1590) 
312.06339

>  <molecular_formula>  (1590) 
C17H12O6

>  <alogp>  (1590) 
2.90

>  <topological_polar_surface_area>  (1590) 
78.13

>  <rotatable_bond_count>  (1590) 
2

>  <hydrogen_bond_acceptors>  (1590) 
6

>  <hydrogen_bond_donors>  (1590) 
1

>  <hydrogen_bond_acceptors_lipinski>  (1590) 
6

>  <hydrogen_bond_donors_lipinski>  (1590) 
1

>  <lipinski_rule_of_five_violations>  (1590) 
0

>  <aromatic_rings_count>  (1590) 
3

>  <qed_drug_likeliness>  (1590) 
0.78

>  <formal_charge>  (1590) 
0

>  <fractioncsp3>  (1590) 
0.12

>  <number_of_minimal_rings>  (1590) 
4

>  <van_der_walls_volume>  (1590) 
255.96

>  <contains_sugar>  (1590) 
False

>  <contains_ring_sugars>  (1590) 
False

>  <contains_linear_sugars>  (1590) 
False

>  <murcko_framework>  (1590) 
O1C=C(c2ccc3OCOc3c2)Cc4ccccc14

>  <np_likeness>  (1590) 
0.85

>  <chemical_class>  (1590) 
Isoflavonoids

>  <chemical_sub_class>  (1590) 
Isoflav-2-enes

>  <chemical_super_class>  (1590) 
Phenylpropanoids and polyketides

>  <direct_parent_classification>  (1590) 
Isoflavones

>  <np_classifier_pathway>  (1590) 
Shikimates and Phenylpropanoids

>  <np_classifier_superclass>  (1590) 
Isoflavonoids

>  <np_classifier_class>  (1590) 
Isoflavones

>  <np_classifier_is_glycoside>  (1590) 
False

>  <organisms>  (1590) 
Bowdichia virgilioides|Cyclopia intermedia|Dalbergia frutescens|Dalbergia riparia|Dalbergia sericea|Millettia conraui|Millettia griffoniana|Tephrosia maxima

>  <collections>  (1590) 
CMAUP (cCollective molecular activities of useful plants)|ConMedNP|Latin America dataset|NPASS|NPEdia|NuBBEDB|Super Natural II|UNPD (Universal Natural Products Database)|WikiData Natural Products|ZINC NP

>  <dois>  (1590) 
10.1016/0031-9422(73)85048-4|10.1016/S0031-9422(00)00400-3|10.1016/S0031-9422(00)80493-8|10.1016/S0031-9422(00)89097-4|10.1016/S0031-9422(97)00518-9|10.1016/S0367-326X(99)00084-2|10.1021/JF980258X|10.1021/NP000010D|10.1021/np000010d

>  <synonyms>  (1590) 
3-(1,3-benzodioxol-5-yl)-7-hydroxy-6-methoxychromen-4-one|38965-66-1|7-Hydroxy-6-methoxy-3',4'-methylendioxyisoflavon|CHEMBL485985|Fujikinetin|LMPK12050112

>  <cas>  (1590) 
38965-66-1

$$$$

     RDKit          2D

 14 15  0  0  0  0  0  0  0  0999 V2000
    3.7042   -1.2601    0.0000 C   0  0  0  0  0  0  0  0  0  0  0  0
    2.8286   -0.0422    0.0000 C   0  0  0  0  0  0  0  0  0  0  0  0
    3.4456    1.3251    0.0000 C   0  0  0  0  0  0  0  0  0  0  0  0
    1.3360   -0.1915    0.0000 C   0  0  0  0  0  0  0  0  0  0  0  0
    0.7191   -1.5587    0.0000 N   0  0  0  0  0  0  0  0  0  0  0  0
   -0.7735   -1.7080    0.0000 C   0  0  0  0  0  0  0  0  0  0  0  0
   -1.3904   -3.0753    0.0000 O   0  0  0  0  0  0  0  0  0  0  0  0
   -1.6490   -0.4901    0.0000 C   0  0  0  0  0  0  0  0  0  0  0  0
   -3.1400   -0.3259    0.0000 C   0  0  0  0  0  0  0  0  0  0  0  0
   -3.4445    1.1429    0.0000 C   0  0  0  0  0  0  0  0  0  0  0  0
   -2.1418    1.8864    0.0000 C   0  0  0  0  0  0  0  0  0  0  0  0
   -1.0321    0.8771    0.0000 N   0  0  0  0  0  0  0  0  0  0  0  0
    0.4605    1.0265    0.0000 C   0  0  0  0  0  0  0  0  0  0  0  0
    1.0774    2.3937    0.0000 O   0  0  0  0  0  0  0  0  0  0  0  0
  1  2  1  0
  2  3  1  0
  4  2  1  1
  4  5  1  0
  5  6  1  0
  6  7  2  0
  6  8  1  0
  8  9  1  6
  9 10  1  0
 10 11  1  0
 11 12  1  0
 12 13  1  0
 13 14  2  0
 13  4  1  0
 12  8  1  0
M  END
>  <identifier>  (1591) 
CNP0261443.4

>  <canonical_smiles>  (1591) 
CC(C)[C@H]1NC(=O)[C@@H]2CCCN2C1=O

>  <standard_inchi>  (1591) 
InChI=1S/C10H16N2O2/c1-6(2)8-10(14)12-5-3-4-7(12)9(13)11-8/h6-8H,3-5H2,1-2H3,(H,11,13)/t7-,8+/m0/s1

>  <standard_inchi_key>  (1591) 
XLUAWXQORJEMBD-JGVFFNPUSA-N

>  <name>  (1591) 
Cyclo(D-Val-L-Pro)

>  <iupac_name>  (1591) 
(3~{R},8~{a}~{S})-3-isopropyl-2,3,6,7,8,8~{a}-hexahydropyrrolo[1,2-a]pyrazine-1,4-dione

>  <annotation_level>  (1591) 
5

>  <total_atom_count>  (1591) 
30

>  <heavy_atom_count>  (1591) 
14

>  <molecular_weight>  (1591) 
196.25

>  <exact_molecular_weight>  (1591) 
196.12118

>  <molecular_formula>  (1591) 
C10H16N2O2

>  <alogp>  (1591) 
0.13

>  <topological_polar_surface_area>  (1591) 
49.41

>  <rotatable_bond_count>  (1591) 
1

>  <hydrogen_bond_acceptors>  (1591) 
2

>  <hydrogen_bond_donors>  (1591) 
1

>  <hydrogen_bond_acceptors_lipinski>  (1591) 
2

>  <hydrogen_bond_donors_lipinski>  (1591) 
1

>  <lipinski_rule_of_five_violations>  (1591) 
0

>  <aromatic_rings_count>  (1591) 
0

>  <qed_drug_likeliness>  (1591) 
0.65

>  <formal_charge>  (1591) 
0

>  <fractioncsp3>  (1591) 
0.80

>  <number_of_minimal_rings>  (1591) 
2

>  <van_der_walls_volume>  (1591) 
nan

>  <contains_sugar>  (1591) 
False

>  <contains_ring_sugars>  (1591) 
False

>  <contains_linear_sugars>  (1591) 
False

>  <murcko_framework>  (1591) 
N1CCN2CCCC2C1

>  <np_likeness>  (1591) 
1.27

>  <chemical_class>  (1591) 
Carboxylic acids and derivatives

>  <chemical_sub_class>  (1591) 
Amino acids, peptides, and analogues

>  <chemical_super_class>  (1591) 
Organic acids and derivatives

>  <direct_parent_classification>  (1591) 
Alpha amino acids

>  <np_classifier_pathway>  (1591) 
Amino acids and Peptides

>  <np_classifier_superclass>  (1591) 
Small peptides

>  <np_classifier_class>  (1591) 
Dipeptides

>  <np_classifier_is_glycoside>  (1591) 
False

>  <organisms>  (1591) 
Aspergillus fumigatus

>  <collections>  (1591) 
NuBBEDB|Super Natural II|WikiData Natural Products|ZINC NP

>  <dois>  (1591) 
10.1590/S0103-50532005000800026

>  <synonyms>  (1591) 
(3R,8AS)-3-isopropylhexahydropyrrolo[1,2-a]pyrazine-1,4-dione|(3R,8aS)-3-(propan-2-yl)-octahydropyrrolo[1,2-a]piperazine-1,4-dione|(3R,8aS)-3-propan-2-yl-2,3,6,7,8,8a-hexahydropyrrolo[1,2-a]pyrazine-1,4-dione|(3R,8aS)-Octahydro-3-(1-methylethyl)pyrrolo[1,2-a]pyrazine-1,4-dione|27483-18-7|AKOS032948976|CHEMBL460676|DTXSID201159678|EN300-20097826|FS-8688|cyclo (L)-Pro-(L)-Val

>  <cas>  (1591) 
27483-18-7

$$$$

     RDKit          2D

 52 57  0  0  0  0  0  0  0  0999 V2000
    6.4027    4.2612    0.0000 C   0  0  0  0  0  0  0  0  0  0  0  0
    5.0036    3.7204    0.0000 O   0  0  0  0  0  0  0  0  0  0  0  0
    4.7724    2.2383    0.0000 C   0  0  0  0  0  0  0  0  0  0  0  0
    5.9403    1.2971    0.0000 C   0  0  0  0  0  0  0  0  0  0  0  0
    7.3394    1.8379    0.0000 O   0  0  0  0  0  0  0  0  0  0  0  0
    8.5073    0.8966    0.0000 C   0  0  0  0  0  0  0  0  0  0  0  0
    8.2761   -0.5855    0.0000 O   0  0  0  0  0  0  0  0  0  0  0  0
    9.4440   -1.5268    0.0000 C   0  0  0  0  0  0  0  0  0  0  0  0
    9.2128   -3.0088    0.0000 C   0  0  0  0  0  0  0  0  0  0  0  0
   10.3807   -3.9501    0.0000 O   0  0  0  0  0  0  0  0  0  0  0  0
   10.8431   -0.9860    0.0000 C   0  0  0  0  0  0  0  0  0  0  0  0
   12.0110   -1.9273    0.0000 O   0  0  0  0  0  0  0  0  0  0  0  0
   11.0743    0.4961    0.0000 C   0  0  0  0  0  0  0  0  0  0  0  0
   12.4735    1.0369    0.0000 O   0  0  0  0  0  0  0  0  0  0  0  0
    9.9064    1.4374    0.0000 C   0  0  0  0  0  0  0  0  0  0  0  0
   10.1377    2.9194    0.0000 O   0  0  0  0  0  0  0  0  0  0  0  0
    5.7091   -0.1850    0.0000 C   0  0  0  0  0  0  0  0  0  0  0  0
    6.8770   -1.1263    0.0000 O   0  0  0  0  0  0  0  0  0  0  0  0
    6.6457   -2.6084    0.0000 C   0  0  0  0  0  0  0  0  0  0  0  0
    4.3100   -0.7258    0.0000 C   0  0  0  0  0  0  0  0  0  0  0  0
    3.1421    0.2155    0.0000 C   0  0  0  0  0  0  0  0  0  0  0  0
    1.7429   -0.3253    0.0000 C   0  0  0  0  0  0  0  0  0  0  0  0
    1.3581   -1.7751    0.0000 O   0  0  0  0  0  0  0  0  0  0  0  0
   -0.1397   -1.8571    0.0000 C   0  0  0  0  0  0  0  0  0  0  0  0
   -0.6805   -0.4579    0.0000 C   0  0  0  0  0  0  0  0  0  0  0  0
    0.4830    0.4887    0.0000 C   0  0  0  0  0  0  0  0  0  0  0  0
   -0.0578    1.8879    0.0000 C   0  0  0  0  0  0  0  0  0  0  0  0
   -1.5555    1.8059    0.0000 O   0  0  0  0  0  0  0  0  0  0  0  0
   -1.9404    0.3561    0.0000 C   0  0  0  0  0  0  0  0  0  0  0  0
   -3.3395   -0.1847    0.0000 C   0  0  0  0  0  0  0  0  0  0  0  0
   -4.5074    0.7566    0.0000 C   0  0  0  0  0  0  0  0  0  0  0  0
   -5.9065    0.2158    0.0000 C   0  0  0  0  0  0  0  0  0  0  0  0
   -7.0744    1.1571    0.0000 O   0  0  0  0  0  0  0  0  0  0  0  0
   -6.8432    2.6392    0.0000 C   0  0  0  0  0  0  0  0  0  0  0  0
   -6.1378   -1.2663    0.0000 C   0  0  0  0  0  0  0  0  0  0  0  0
   -7.5369   -1.8071    0.0000 O   0  0  0  0  0  0  0  0  0  0  0  0
   -8.7048   -0.8658    0.0000 C   0  0  0  0  0  0  0  0  0  0  0  0
   -8.4736    0.6163    0.0000 O   0  0  0  0  0  0  0  0  0  0  0  0
   -9.6415    1.5576    0.0000 C   0  0  0  0  0  0  0  0  0  0  0  0
   -9.4102    3.0397    0.0000 C   0  0  0  0  0  0  0  0  0  0  0  0
   -8.0111    3.5804    0.0000 O   0  0  0  0  0  0  0  0  0  0  0  0
  -11.0406    1.0168    0.0000 C   0  0  0  0  0  0  0  0  0  0  0  0
  -12.2085    1.9581    0.0000 O   0  0  0  0  0  0  0  0  0  0  0  0
  -11.2718   -0.4653    0.0000 C   0  0  0  0  0  0  0  0  0  0  0  0
  -12.6709   -1.0061    0.0000 O   0  0  0  0  0  0  0  0  0  0  0  0
  -10.1039   -1.4066    0.0000 C   0  0  0  0  0  0  0  0  0  0  0  0
  -10.3351   -2.8886    0.0000 O   0  0  0  0  0  0  0  0  0  0  0  0
   -4.9699   -2.2075    0.0000 C   0  0  0  0  0  0  0  0  0  0  0  0
   -5.2011   -3.6896    0.0000 O   0  0  0  0  0  0  0  0  0  0  0  0
   -4.0332   -4.6309    0.0000 C   0  0  0  0  0  0  0  0  0  0  0  0
   -3.5707   -1.6668    0.0000 C   0  0  0  0  0  0  0  0  0  0  0  0
    3.3733    1.6976    0.0000 C   0  0  0  0  0  0  0  0  0  0  0  0
  1  2  1  0
  2  3  1  0
  3  4  2  0
  4  5  1  0
  6  5  1  1
  6  7  1  0
  7  8  1  0
  8  9  1  1
  9 10  1  0
  8 11  1  0
 11 12  1  6
 11 13  1  0
 13 14  1  1
 13 15  1  0
 15 16  1  6
  4 17  1  0
 17 18  1  0
 18 19  1  0
 17 20  2  0
 20 21  1  0
 22 21  1  1
 22 23  1  0
 23 24  1  0
 25 24  1  6
 25 26  1  0
 26 27  1  6
 27 28  1  0
 28 29  1  0
 29 30  1  1
 30 31  2  0
 31 32  1  0
 32 33  1  0
 33 34  1  0
 32 35  2  0
 35 36  1  0
 37 36  1  1
 37 38  1  0
 38 39  1  0
 39 40  1  1
 40 41  1  0
 39 42  1  0
 42 43  1  6
 42 44  1  0
 44 45  1  1
 44 46  1  0
 46 47  1  6
 35 48  1  0
 48 49  1  0
 49 50  1  0
 48 51  2  0
 21 52  2  0
 52  3  1  0
 15  6  1  0
 26 22  1  0
 51 30  1  0
 29 25  1  0
 46 37  1  0
M  END
>  <identifier>  (1592) 
CNP0211821.1

>  <canonical_smiles>  (1592) 
COC1=C(O[C@@H]2O[C@H](CO)[C@@H](O)[C@H](O)[C@H]2O)C(OC)=CC([C@H]2OC[C@H]3[C@@H]2CO[C@@H]3C2=CC(OC)=C(O[C@@H]3O[C@H](CO)[C@@H](O)[C@H](O)[C@H]3O)C(OC)=C2)=C1

>  <standard_inchi>  (1592) 
InChI=1S/C34H46O18/c1-43-17-5-13(6-18(44-2)31(17)51-33-27(41)25(39)23(37)21(9-35)49-33)29-15-11-48-30(16(15)12-47-29)14-7-19(45-3)32(20(8-14)46-4)52-34-28(42)26(40)24(38)22(10-36)50-34/h5-8,15-16,21-30,33-42H,9-12H2,1-4H3/t15-,16-,21+,22+,23+,24+,25-,26-,27+,28+,29+,30+,33-,34-/m0/s1

>  <standard_inchi_key>  (1592) 
FFDULTAFAQRACT-XKBSQSBASA-N

>  <name>  (1592) 
Liriodendrin

>  <iupac_name>  (1592) 
(2~{S},3~{R},4~{S},5~{S},6~{R})-2-[4-[(3~{S},3~{a}~{R},6~{S},6~{a}~{R})-6-[3,5-dimethoxy-4-[(2~{S},3~{R},4~{S},5~{S},6~{R})-3,4,5-trihydroxy-6-(hydroxymethyl)tetrahydropyran-2-yl]oxy-phenyl]-1,3,3~{a},4,6,6~{a}-hexahydrofuro[3,4-c]furan-3-yl]-2,6-dimethoxy-phenoxy]-6-(hydroxymethyl)tetrahydropyran-3,4,5-triol

>  <annotation_level>  (1592) 
5

>  <total_atom_count>  (1592) 
98

>  <heavy_atom_count>  (1592) 
52

>  <molecular_weight>  (1592) 
742.72

>  <exact_molecular_weight>  (1592) 
742.26841

>  <molecular_formula>  (1592) 
C34H46O18

>  <alogp>  (1592) 
-1.85

>  <topological_polar_surface_area>  (1592) 
254.14

>  <rotatable_bond_count>  (1592) 
12

>  <hydrogen_bond_acceptors>  (1592) 
18

>  <hydrogen_bond_donors>  (1592) 
8

>  <hydrogen_bond_acceptors_lipinski>  (1592) 
18

>  <hydrogen_bond_donors_lipinski>  (1592) 
8

>  <lipinski_rule_of_five_violations>  (1592) 
3

>  <aromatic_rings_count>  (1592) 
2

>  <qed_drug_likeliness>  (1592) 
0.12

>  <formal_charge>  (1592) 
0

>  <fractioncsp3>  (1592) 
0.65

>  <number_of_minimal_rings>  (1592) 
6

>  <van_der_walls_volume>  (1592) 
630.58

>  <contains_sugar>  (1592) 
True

>  <contains_ring_sugars>  (1592) 
True

>  <contains_linear_sugars>  (1592) 
False

>  <murcko_framework>  (1592) 
O(c1ccc(cc1)C2OCC3C(OCC23)c4ccc(OC5OCCCC5)cc4)C6OCCCC6

>  <np_likeness>  (1592) 
1.08

>  <chemical_class>  (1592) 
Lignan glycosides

>  <chemical_sub_class>  (1592) 
Lignan glycosides

>  <chemical_super_class>  (1592) 
Lignans, neolignans and related compounds

>  <direct_parent_classification>  (1592) 
Lignan glycosides

>  <np_classifier_pathway>  (1592) 
Shikimates and Phenylpropanoids

>  <np_classifier_superclass>  (1592) 
Lignans

>  <np_classifier_class>  (1592) 
Furofuranoid lignans

>  <np_classifier_is_glycoside>  (1592) 
True

>  <organisms>  (1592) 
Alstonia angustiloba|Annona cherimola|Artemisia pectinata|Aspergillus microcysticus|Atelopus chiriquiensis|Baccharis grandicapitulata|Beesia calthifolia|Boschniakia rossica|Botrychium ternatum|Breynia androgyna|Bursera kerberi|Chrysanthemum indicum|Chrysanthemum x morifolium|Cistanche phelypaea|Cistanche tubulosa|Clausena pentaphylla|Clerodendrum trichotomum|Clinacanthus nutans|Coffea liberica var. dewevrei|Coleogyne ramosissima|Coriaria nepalensis|Costasiella ocellifera|Creosphaeria sassafras|Crotalaria stolzii|Curcuma aeruginosa|Daphne feddei|Delisea elegans|Delphinium giraldii|Dendrobium|Dendrobium brymerianum|Eleutherococcus senticosus|Emericellopsis minima|Eucalyptus albens|Euonymus fortunei|Euploca racemosa|Galium sinaicum|Gentiana crassicaulis|Gentiana dahurica|Gentiana macrophylla|Gentiana straminea|Globularia alypum|Gutierrezia dracunculoides|Hedysarum gmelini|Helenium integrifolium|Inga feuilleei|Inga feuillei|Iodes cirrhosa|Juniperus scopulorum|Kalopanax septemlobus|Lasianthaea podocephala|Lawsonia inermis|Linaria vulgaris|Liriodendron tulipifera|Luehea candicans|Lupinus cosentinii|Magnolia coco|Mallotus macrostachyus|Melampodium leucanthum|Micromonospora echinospora|Morella pensylvanica|Nolina microcarpa|Notholaena nivea|Ormosia dasycarpa|Papaver pseudocanescens|Pellacalyx axillaris|Penstemon deustus|Pestalotiopsis oenotherae|Phlomis aurea|Phlomis brunneogaleata|Phlomis crinita|Pimpinella nudicaulis|Piper brachystachyum|Plumeria rubra|Porcelia macrocarpa|Pseudocyphellaria australiensis|Psidium acutangulum|Renealmia alpinia|Rhodiola rosea|Rhododendron mucronulatum|Sarcophyton flexuosum|Sargentodoxa cuneata|Sauropus androgynus|Selinum libanotis|Senecio congestus|Sideritis dasygnaphala|Stellaria media|Streptomyces melanogenes|Streptomyces parvisporogenes|Strychnos axillaris|Strychnos lucida|Syringa reticulata|Takifugu niphobles|Tephroseris kirilowii|Vigna angularis|Vigna umbellata|Vigna umbeuata|Xenia crassa|Zephyranthes flava|ducrosia ismaelis

>  <collections>  (1592) 
AnalytiCon Discovery NPs|Australian natural products|CMAUP (cCollective molecular activities of useful plants)|ChemSpider NPs|GNPS (Global Natural Products Social Molecular Networking)|Latin America dataset|NPASS|NuBBEDB|Phyto4Health|Super Natural II|TCMDB-Taiwan (Traditional Chinese Medicine database)|WikiData Natural Products|ZINC NP

>  <dois>  (1592) 
10.1002/HLCA.19810640103|10.1002/JCCS.199800095|10.1007/BF00630606|10.1007/S10600-011-9773-Z|10.1007/s11418-005-0021-3|10.1016/J.BMCL.2010.06.118|10.1016/J.BMCL.2011.08.089|10.1016/J.BSE.2014.08.027|10.1016/J.PHYTOCHEM.2005.09.018|10.1016/J.PHYTOCHEM.2007.12.002|10.1016/J.PHYTOL.2011.07.007|10.1016/S0031-9422(00)00192-8|10.1016/S0031-9422(00)00331-9|10.1016/S0031-9422(03)00219-X|10.1016/S0031-9422(96)00881-3|10.1016/j.bmcl.2014.05.077|10.1016/j.phytochem.2007.12.002|10.1021/JO01096A007|10.1021/JO01295A038|10.1021/NP50072A008|10.1021/NP7007329|10.1021/NP8004166|10.1021/NP970571D|10.1021/np50072a008|10.1021/np8004166|10.1055/S-2001-18352|10.1055/S-2004-827200|10.1080/14786411003752102|10.1248/CPB.38.1763|10.1248/CPB.38.1927|10.1248/CPB.50.1393|10.1590/S0100-40422000000300004|10.3987/COM-03-9777|10.4314/TJPR.V14I11.15

>  <synonyms>  (1592) 
((1S,3AR,4S,6AR)-TETRAHYDRO-1H,3H-FURO(3,4-C)FURAN-1,4-DIYL)BIS(2,6-DIMETHOXY-4,1-PHENYLENE) BIS-.BETA.-D-GLUCOPYRANOSIDE|(+)-SYRINGARESINOL-DI-.BETA.-D-GLUCOPYRANOSIDE|(2S,3R,4S,5S,6R)-2-[4-[(3S,3aR,6S,6aR)-6-[3,5-dimethoxy-4-[(2S,3R,4S,5S,6R)-3,4,5-trihydroxy-6-(hydroxymethyl)oxan-2-yl]oxyphenyl]-1,3,3a,4,6,6a-hexahydrofuro[3,4-c]furan-3-yl]-2,6-dimethoxyphenoxy]-6-(hydroxymethyl)oxane-3,4,5-triol|.BETA.-D-GLUCOPYRANOSIDE, ((1S,3AR,4S,6AR)-TETRAHYDRO-1H,3H-FURO(3,4-C)FURAN-1,4-DIYL)BIS(2,6-DIMETHOXY-4,1-PHENYLENE) BIS-|.BETA.-D-GLUCOPYRANOSIDE, (TETRAHYDRO-1H,3H-FURO(3,4-C)FURAN-1,4-DIYL)BIS(2,6-DIMETHOXY-4,1-PHENYLENE) BIS-, (1S-(1.ALPHA.,3A.ALPHA.,4.ALPHA.,6A.ALPHA.))-|573-44-4|AKOS040760524|Acanthoside D|BDBM50480326|CHEMBL445823|CS-0024047|FS-10033|HY-N3377|Liriodendrin|MEGxp0_000893|SCHEMBL5081926|[(1s,3ar,4s,6ar)-tetrahydro-1h,3h-furo[3,4-c]furan-1,4-diyl]bis(2,6-dimethoxy-4,1-phenylene) bis-beta-d-glucopyranoside|[[(3S)-3aalpha,4,6,6aalpha-Tetrahydro-1H,3H-furo[3,4-c]furan]-3alpha,6alpha-diyl]bis(2,6-dimethoxy-4,1-phenylene)bis(beta-D-glucopyranoside)

>  <cas>  (1592) 
573-44-4

$$$$

     RDKit          2D

 30 34  0  0  0  0  0  0  0  0999 V2000
   -8.1159   -0.5143    0.0000 C   0  0  0  0  0  0  0  0  0  0  0  0
   -7.0974    0.5869    0.0000 O   0  0  0  0  0  0  0  0  0  0  0  0
   -5.6344    0.2555    0.0000 C   0  0  0  0  0  0  0  0  0  0  0  0
   -5.1900   -1.1772    0.0000 C   0  0  0  0  0  0  0  0  0  0  0  0
   -3.7271   -1.5087    0.0000 C   0  0  0  0  0  0  0  0  0  0  0  0
   -2.7086   -0.4075    0.0000 C   0  0  0  0  0  0  0  0  0  0  0  0
   -3.1530    1.0252    0.0000 C   0  0  0  0  0  0  0  0  0  0  0  0
   -4.6159    1.3567    0.0000 C   0  0  0  0  0  0  0  0  0  0  0  0
   -5.0603    2.7893    0.0000 O   0  0  0  0  0  0  0  0  0  0  0  0
   -4.0418    3.8905    0.0000 C   0  0  0  0  0  0  0  0  0  0  0  0
   -1.2457   -0.7389    0.0000 C   0  0  0  0  0  0  0  0  0  0  0  0
   -0.2272    0.3623    0.0000 C   0  0  0  0  0  0  0  0  0  0  0  0
   -0.6716    1.7949    0.0000 O   0  0  0  0  0  0  0  0  0  0  0  0
    1.2358    0.0308    0.0000 C   0  0  0  0  0  0  0  0  0  0  0  0
    1.6802   -1.4019    0.0000 C   0  0  0  0  0  0  0  0  0  0  0  0
    3.1431   -1.7333    0.0000 C   0  0  0  0  0  0  0  0  0  0  0  0
    4.1616   -0.6321    0.0000 C   0  0  0  0  0  0  0  0  0  0  0  0
    5.6245   -0.9636    0.0000 O   0  0  0  0  0  0  0  0  0  0  0  0
    6.6430    0.1376    0.0000 C   0  0  0  0  0  0  0  0  0  0  0  0
    7.9767    0.8240    0.0000 C   0  0  0  0  0  0  0  0  0  0  0  0
    7.5506   -1.0567    0.0000 C   0  0  0  0  0  0  0  0  0  0  0  0
    6.1986    1.5703    0.0000 C   0  0  0  0  0  0  0  0  0  0  0  0
    4.7357    1.9017    0.0000 C   0  0  0  0  0  0  0  0  0  0  0  0
    3.7172    0.8005    0.0000 C   0  0  0  0  0  0  0  0  0  0  0  0
    2.2543    1.1320    0.0000 C   0  0  0  0  0  0  0  0  0  0  0  0
    1.8099    2.5646    0.0000 O   0  0  0  0  0  0  0  0  0  0  0  0
    0.6616   -2.5031    0.0000 O   0  0  0  0  0  0  0  0  0  0  0  0
   -0.8013   -2.1716    0.0000 C   0  0  0  0  0  0  0  0  0  0  0  0
   -1.8198   -3.2728    0.0000 C   0  0  0  0  0  0  0  0  0  0  0  0
   -3.2827   -2.9413    0.0000 O   0  0  0  0  0  0  0  0  0  0  0  0
  1  2  1  0
  2  3  1  0
  3  4  2  0
  4  5  1  0
  5  6  2  0
  6  7  1  0
  7  8  2  0
  8  9  1  0
  9 10  1  0
  6 11  1  0
 11 12  1  6
 12 13  2  0
 12 14  1  0
 14 15  2  0
 15 16  1  0
 16 17  2  0
 17 18  1  0
 18 19  1  0
 19 20  1  0
 19 21  1  0
 19 22  1  0
 22 23  2  0
 23 24  1  0
 24 25  2  0
 25 26  1  0
 15 27  1  0
 27 28  1  0
 28 29  1  0
 29 30  1  0
  8  3  1  0
 28 11  1  0
 30  5  1  0
 25 14  1  0
 24 17  1  0
M  END
>  <identifier>  (1593) 
CNP0356416.1

>  <canonical_smiles>  (1593) 
COC1=CC2=C(C=C1OC)[C@@H]1C(=O)C3=C(C=C4OC(C)(C)C=CC4=C3O)OC1CO2

>  <standard_inchi>  (1593) 
InChI=1S/C23H22O7/c1-23(2)6-5-11-14(30-23)9-17-20(21(11)24)22(25)19-12-7-15(26-3)16(27-4)8-13(12)28-10-18(19)29-17/h5-9,18-19,24H,10H2,1-4H3/t18?,19-/m0/s1

>  <standard_inchi_key>  (1593) 
MTTUVGLGBORPBI-GGYWPGCISA-N

>  <name>  (1593) 
nan

>  <iupac_name>  (1593) 
(3~{S})-22-hydroxy-6,7-dimethoxy-18,18-dimethyl-10,13,17-trioxapentacyclo[12.8.0.0^{3,12}.0^{4,9}.0^{16,21}]docosa-1(14),4(9),5,7,15,19,21-heptaen-2-one

>  <annotation_level>  (1593) 
4

>  <total_atom_count>  (1593) 
52

>  <heavy_atom_count>  (1593) 
30

>  <molecular_weight>  (1593) 
410.42

>  <exact_molecular_weight>  (1593) 
410.13655

>  <molecular_formula>  (1593) 
C23H22O7

>  <alogp>  (1593) 
3.71

>  <topological_polar_surface_area>  (1593) 
83.45

>  <rotatable_bond_count>  (1593) 
2

>  <hydrogen_bond_acceptors>  (1593) 
7

>  <hydrogen_bond_donors>  (1593) 
1

>  <hydrogen_bond_acceptors_lipinski>  (1593) 
7

>  <hydrogen_bond_donors_lipinski>  (1593) 
1

>  <lipinski_rule_of_five_violations>  (1593) 
0

>  <aromatic_rings_count>  (1593) 
2

>  <qed_drug_likeliness>  (1593) 
0.81

>  <formal_charge>  (1593) 
0

>  <fractioncsp3>  (1593) 
0.35

>  <number_of_minimal_rings>  (1593) 
5

>  <van_der_walls_volume>  (1593) 
nan

>  <contains_sugar>  (1593) 
False

>  <contains_ring_sugars>  (1593) 
False

>  <contains_linear_sugars>  (1593) 
False

>  <murcko_framework>  (1593) 
O1c2cc3OC4COc5ccccc5C4Cc3cc2C=CC1

>  <np_likeness>  (1593) 
2.57

>  <chemical_class>  (1593) 
Isoflavonoids

>  <chemical_sub_class>  (1593) 
Rotenoids

>  <chemical_super_class>  (1593) 
Phenylpropanoids and polyketides

>  <direct_parent_classification>  (1593) 
Rotenones

>  <np_classifier_pathway>  (1593) 
Shikimates and Phenylpropanoids

>  <np_classifier_superclass>  (1593) 
Isoflavonoids

>  <np_classifier_class>  (1593) 
Isoflavanones

>  <np_classifier_is_glycoside>  (1593) 
False

>  <organisms>  (1593) 
Tephrosia candida

>  <collections>  (1593) 
Latin America dataset|NuBBEDB

>  <dois>  (1593) 
10.1002/(SICI)1521-4168(19980901)21:9<513::AID-JHRC513>3.0.CO,2-F

>  <synonyms>  (1593) 
\u221a\u00e9\u00ac\u2264-toxicarol

>  <cas>  (1593) 
nan

$$$$

     RDKit          2D

 16 16  0  0  0  0  0  0  0  0999 V2000
   -5.3229   -1.7520    0.0000 C   0  0  0  0  0  0  0  0  0  0  0  0
   -4.2958   -0.6589    0.0000 O   0  0  0  0  0  0  0  0  0  0  0  0
   -2.8355   -1.0019    0.0000 C   0  0  0  0  0  0  0  0  0  0  0  0
   -2.4024   -2.4381    0.0000 O   0  0  0  0  0  0  0  0  0  0  0  0
   -1.8083    0.0912    0.0000 C   0  0  0  0  0  0  0  0  0  0  0  0
   -2.2414    1.5273    0.0000 C   0  0  0  0  0  0  0  0  0  0  0  0
   -1.2142    2.6204    0.0000 C   0  0  0  0  0  0  0  0  0  0  0  0
    0.2461    2.2774    0.0000 C   0  0  0  0  0  0  0  0  0  0  0  0
    1.2732    3.3705    0.0000 O   0  0  0  0  0  0  0  0  0  0  0  0
    0.6791    0.8413    0.0000 C   0  0  0  0  0  0  0  0  0  0  0  0
    2.1394    0.4983    0.0000 C   0  0  0  0  0  0  0  0  0  0  0  0
    2.5724   -0.9379    0.0000 C   0  0  0  0  0  0  0  0  0  0  0  0
    4.0327   -1.2809    0.0000 C   0  0  0  0  0  0  0  0  0  0  0  0
    4.4658   -2.7170    0.0000 C   0  0  0  0  0  0  0  0  0  0  0  0
    5.0599   -0.1878    0.0000 C   0  0  0  0  0  0  0  0  0  0  0  0
   -0.3481   -0.2518    0.0000 C   0  0  0  0  0  0  0  0  0  0  0  0
  1  2  1  0
  2  3  1  0
  3  4  2  0
  3  5  1  0
  5  6  2  0
  6  7  1  0
  7  8  2  0
  8  9  1  0
  8 10  1  0
 10 11  1  0
 11 12  1  0
 12 13  2  0
 13 14  1  0
 13 15  1  0
 10 16  2  0
 16  5  1  0
M  END
>  <identifier>  (1594) 
CNP0310558.0

>  <canonical_smiles>  (1594) 
COC(=O)C1=CC=C(O)C(CC=C(C)C)=C1

>  <standard_inchi>  (1594) 
InChI=1S/C13H16O3/c1-9(2)4-5-10-8-11(13(15)16-3)6-7-12(10)14/h4,6-8,14H,5H2,1-3H3

>  <standard_inchi_key>  (1594) 
VTTIBUAIXVAPKR-UHFFFAOYSA-N

>  <name>  (1594) 
101511-34-6

>  <iupac_name>  (1594) 
methyl 4-hydroxy-3-(3-methylbut-2-enyl)benzoate

>  <annotation_level>  (1594) 
5

>  <total_atom_count>  (1594) 
32

>  <heavy_atom_count>  (1594) 
16

>  <molecular_weight>  (1594) 
220.27

>  <exact_molecular_weight>  (1594) 
220.10994

>  <molecular_formula>  (1594) 
C13H16O3

>  <alogp>  (1594) 
2.69

>  <topological_polar_surface_area>  (1594) 
46.53

>  <rotatable_bond_count>  (1594) 
3

>  <hydrogen_bond_acceptors>  (1594) 
3

>  <hydrogen_bond_donors>  (1594) 
1

>  <hydrogen_bond_acceptors_lipinski>  (1594) 
3

>  <hydrogen_bond_donors_lipinski>  (1594) 
1

>  <lipinski_rule_of_five_violations>  (1594) 
0

>  <aromatic_rings_count>  (1594) 
1

>  <qed_drug_likeliness>  (1594) 
0.63

>  <formal_charge>  (1594) 
0

>  <fractioncsp3>  (1594) 
0.31

>  <number_of_minimal_rings>  (1594) 
1

>  <van_der_walls_volume>  (1594) 
214.43

>  <contains_sugar>  (1594) 
False

>  <contains_ring_sugars>  (1594) 
False

>  <contains_linear_sugars>  (1594) 
False

>  <murcko_framework>  (1594) 
c1ccccc1

>  <np_likeness>  (1594) 
1.28

>  <chemical_class>  (1594) 
Benzene and substituted derivatives

>  <chemical_sub_class>  (1594) 
Benzoic acids and derivatives

>  <chemical_super_class>  (1594) 
Benzenoids

>  <direct_parent_classification>  (1594) 
p-Hydroxybenzoic acid alkyl esters

>  <np_classifier_pathway>  (1594) 
Shikimates and Phenylpropanoids

>  <np_classifier_superclass>  (1594) 
Phenolic acids (C6-C1)

>  <np_classifier_class>  (1594) 
Shikimic acids and derivatives

>  <np_classifier_is_glycoside>  (1594) 
False

>  <organisms>  (1594) 
Piper aduncum|Piper glabratum|Piper hostmannianum|Piper secundum|piper guanacastensis|piper sp.

>  <collections>  (1594) 
ChemSpider NPs|Latin America dataset|NPASS|NuBBEDB|Super Natural II|UNPD (Universal Natural Products Database)|WikiData Natural Products|ZINC NP

>  <dois>  (1594) 
10.1021/NP030530J|10.1021/NP800104P|10.1021/np030530j|10.1021/np800104p|10.1021/np960601x|10.1055/S-2006-959758

>  <synonyms>  (1594) 
Benzoic acid, 4-hydroxy-3-(3-methyl-2-butenyl)-, methyl ester|CHEMBL463294|DTXSID70143973|METHYL 4-HYDROXY-3-(3-METHYLBUT-2-EN-1-YL)BENZOATE|Methyl 4-hydroxy-3-(3'-methyl-2'-butenyl)benzoate|SCHEMBL10909155|methyl 4-hydroxy-3-(3-methylbut-2-enyl)benzoate

>  <cas>  (1594) 
nan

$$$$

     RDKit          2D

 27 30  0  0  0  0  0  0  0  0999 V2000
   -2.8323    3.9085    0.0000 C   0  0  0  0  0  0  0  0  0  0  0  0
   -3.6985    2.6839    0.0000 C   0  0  0  0  0  0  0  0  0  0  0  0
   -3.0710    1.3214    0.0000 C   0  0  0  0  0  0  0  0  0  0  0  0
   -4.5217    0.9401    0.0000 C   0  0  0  0  0  0  0  0  0  0  0  0
   -1.8382    2.1760    0.0000 C   0  0  0  0  0  0  0  0  0  0  0  0
   -0.4817    1.5356    0.0000 C   0  0  0  0  0  0  0  0  0  0  0  0
    0.7510    2.3902    0.0000 C   0  0  0  0  0  0  0  0  0  0  0  0
    0.6274    3.8851    0.0000 O   0  0  0  0  0  0  0  0  0  0  0  0
    2.1075    1.7498    0.0000 C   0  0  0  0  0  0  0  0  0  0  0  0
    3.3403    2.6044    0.0000 C   0  0  0  0  0  0  0  0  0  0  0  0
    2.2312    0.2549    0.0000 C   0  0  0  0  0  0  0  0  0  0  0  0
    2.3548   -1.2400    0.0000 O   0  0  0  0  0  0  0  0  0  0  0  0
    0.9984   -0.5996    0.0000 C   0  0  0  0  0  0  0  0  0  0  0  0
    1.1220   -2.0945    0.0000 C   0  0  0  0  0  0  0  0  0  0  0  0
    2.4785   -2.7349    0.0000 C   0  0  0  0  0  0  0  0  0  0  0  0
    3.7113   -1.8803    0.0000 C   0  0  0  0  0  0  0  0  0  0  0  0
    3.5876   -0.3854    0.0000 C   0  0  0  0  0  0  0  0  0  0  0  0
    3.9827    1.0616    0.0000 C   0  0  0  0  0  0  0  0  0  0  0  0
    5.0813   -0.5232    0.0000 C   0  0  0  0  0  0  0  0  0  0  0  0
   -0.3581    0.0407    0.0000 C   0  0  0  0  0  0  0  0  0  0  0  0
   -0.2344   -1.4542    0.0000 C   0  0  0  0  0  0  0  0  0  0  0  0
   -1.5909   -0.8138    0.0000 C   0  0  0  0  0  0  0  0  0  0  0  0
   -1.4672   -2.3087    0.0000 O   0  0  0  0  0  0  0  0  0  0  0  0
   -2.7000   -3.1632    0.0000 C   0  0  0  0  0  0  0  0  0  0  0  0
   -2.5763   -4.6581    0.0000 C   0  0  0  0  0  0  0  0  0  0  0  0
   -4.0564   -2.5229    0.0000 O   0  0  0  0  0  0  0  0  0  0  0  0
   -2.9473   -0.1735    0.0000 C   0  0  0  0  0  0  0  0  0  0  0  0
  1  2  2  0
  2  3  1  0
  3  4  1  1
  3  5  1  0
  5  6  1  0
  6  7  2  0
  7  8  1  0
  7  9  1  0
  9 10  2  0
  9 11  1  0
 11 12  1  1
 12 13  1  0
 13 14  1  1
 14 15  1  0
 15 16  1  0
 16 17  1  0
 17 18  1  0
 17 19  1  0
 13 20  1  0
 20 21  1  1
 20 22  1  0
 22 23  1  1
 23 24  1  0
 24 25  1  0
 24 26  2  0
 22 27  1  0
 27  3  1  0
 20  6  1  0
 13 11  1  0
 17 11  1  0
M  END
>  <identifier>  (1595) 
CNP0080601.1

>  <canonical_smiles>  (1595) 
C=C[C@]1(C)CC2=C(O)C(=C)[C@@]34O[C@]3(CCCC4(C)C)[C@]2(C)[C@@H](OC(C)=O)C1

>  <standard_inchi>  (1595) 
InChI=1S/C23H32O4/c1-8-20(6)12-16-18(25)14(2)23-19(4,5)10-9-11-22(23,27-23)21(16,7)17(13-20)26-15(3)24/h8,17,25H,1-2,9-13H2,3-7H3/t17-,20+,21-,22+,23-/m0/s1

>  <standard_inchi_key>  (1595) 
ZVOGIZLWXKVJFR-LNRUOBPOSA-N

>  <name>  (1595) 
[(1~{R},2~{S},3~{S},5~{R},10~{R})-8-hydroxy-2,5,11,11-tetramethyl-9-methylene-5-vinyl-15-oxatetracyclo[8.4.1.0^{1,10}.0^{2,7}]pentadec-7-en-3-yl] acetate

>  <iupac_name>  (1595) 
[(1~{R},2~{S},3~{S},5~{R},10~{R})-8-hydroxy-2,5,11,11-tetramethyl-9-methylene-5-vinyl-15-oxatetracyclo[8.4.1.0^{1,10}.0^{2,7}]pentadec-7-en-3-yl] acetate

>  <annotation_level>  (1595) 
3

>  <total_atom_count>  (1595) 
59

>  <heavy_atom_count>  (1595) 
27

>  <molecular_weight>  (1595) 
372.51

>  <exact_molecular_weight>  (1595) 
372.23006

>  <molecular_formula>  (1595) 
C23H32O4

>  <alogp>  (1595) 
5.01

>  <topological_polar_surface_area>  (1595) 
59.06

>  <rotatable_bond_count>  (1595) 
2

>  <hydrogen_bond_acceptors>  (1595) 
4

>  <hydrogen_bond_donors>  (1595) 
1

>  <hydrogen_bond_acceptors_lipinski>  (1595) 
4

>  <hydrogen_bond_donors_lipinski>  (1595) 
1

>  <lipinski_rule_of_five_violations>  (1595) 
1

>  <aromatic_rings_count>  (1595) 
0

>  <qed_drug_likeliness>  (1595) 
0.42

>  <formal_charge>  (1595) 
0

>  <fractioncsp3>  (1595) 
0.70

>  <number_of_minimal_rings>  (1595) 
4

>  <van_der_walls_volume>  (1595) 
nan

>  <contains_sugar>  (1595) 
False

>  <contains_ring_sugars>  (1595) 
False

>  <contains_linear_sugars>  (1595) 
False

>  <murcko_framework>  (1595) 
O1C23CC=C4CCCCC4C13CCCC2

>  <np_likeness>  (1595) 
2.32

>  <chemical_class>  (1595) 
Oxepanes

>  <chemical_sub_class>  (1595) 
Oxepanes

>  <chemical_super_class>  (1595) 
Organoheterocyclic compounds

>  <direct_parent_classification>  (1595) 
Oxepanes

>  <np_classifier_pathway>  (1595) 
Terpenoids

>  <np_classifier_superclass>  (1595) 
Diterpenoids

>  <np_classifier_class>  (1595) 
Pimarane and Isopimarane diterpenoids

>  <np_classifier_is_glycoside>  (1595) 
False

>  <organisms>  (1595) 
Vellozia candida

>  <collections>  (1595) 
Latin America dataset|NuBBEDB|WikiData Natural Products

>  <dois>  (1595) 
10.1016/S0040-4039(00)94036-X

>  <synonyms>  (1595) 
nan

>  <cas>  (1595) 
nan

$$$$

     RDKit          2D

 45 49  0  0  0  0  0  0  0  0999 V2000
    8.7766   -0.8544    0.0000 C   0  0  0  0  0  0  0  0  0  0  0  0
    7.2806   -0.9641    0.0000 O   0  0  0  0  0  0  0  0  0  0  0  0
    6.4376    0.2766    0.0000 C   0  0  0  0  0  0  0  0  0  0  0  0
    7.2504    1.5374    0.0000 O   0  0  0  0  0  0  0  0  0  0  0  0
    4.9417    0.1669    0.0000 C   0  0  0  0  0  0  0  0  0  0  0  0
    5.3095   -1.2873    0.0000 C   0  0  0  0  0  0  0  0  0  0  0  0
    5.0934    1.6592    0.0000 C   0  0  0  0  0  0  0  0  0  0  0  0
    6.3765    2.4362    0.0000 O   0  0  0  0  0  0  0  0  0  0  0  0
    3.8769    2.5368    0.0000 C   0  0  0  0  0  0  0  0  0  0  0  0
    2.5087    1.9221    0.0000 C   0  0  0  0  0  0  0  0  0  0  0  0
    2.3569    0.4298    0.0000 C   0  0  0  0  0  0  0  0  0  0  0  0
    1.1404    1.3074    0.0000 C   0  0  0  0  0  0  0  0  0  0  0  0
    3.5734   -0.4478    0.0000 C   0  0  0  0  0  0  0  0  0  0  0  0
    3.4217   -1.9401    0.0000 C   0  0  0  0  0  0  0  0  0  0  0  0
    4.6382   -2.8177    0.0000 O   0  0  0  0  0  0  0  0  0  0  0  0
    2.0534   -2.5548    0.0000 C   0  0  0  0  0  0  0  0  0  0  0  0
    1.9017   -4.0471    0.0000 O   0  0  0  0  0  0  0  0  0  0  0  0
    0.8369   -1.6772    0.0000 C   0  0  0  0  0  0  0  0  0  0  0  0
    0.6852   -3.1696    0.0000 C   0  0  0  0  0  0  0  0  0  0  0  0
   -0.5313   -2.2920    0.0000 C   0  0  0  0  0  0  0  0  0  0  0  0
   -0.9900   -3.7201    0.0000 C   0  0  0  0  0  0  0  0  0  0  0  0
   -2.4900   -3.7252    0.0000 C   0  0  0  0  0  0  0  0  0  0  0  0
   -2.9584   -2.3002    0.0000 C   0  0  0  0  0  0  0  0  0  0  0  0
   -4.3865   -1.8415    0.0000 C   0  0  0  0  0  0  0  0  0  0  0  0
   -5.5971   -2.7272    0.0000 C   0  0  0  0  0  0  0  0  0  0  0  0
   -6.8136   -1.8497    0.0000 C   0  0  0  0  0  0  0  0  0  0  0  0
   -8.2386   -2.3180    0.0000 O   0  0  0  0  0  0  0  0  0  0  0  0
   -6.3549   -0.4215    0.0000 O   0  0  0  0  0  0  0  0  0  0  0  0
   -4.8549   -0.4165    0.0000 C   0  0  0  0  0  0  0  0  0  0  0  0
   -3.9773    0.8000    0.0000 O   0  0  0  0  0  0  0  0  0  0  0  0
   -1.7478   -1.4144    0.0000 C   0  0  0  0  0  0  0  0  0  0  0  0
   -3.0494   -0.6688    0.0000 C   0  0  0  0  0  0  0  0  0  0  0  0
   -1.5961    0.0779    0.0000 C   0  0  0  0  0  0  0  0  0  0  0  0
   -2.8126    0.9555    0.0000 O   0  0  0  0  0  0  0  0  0  0  0  0
   -2.6608    2.4478    0.0000 C   0  0  0  0  0  0  0  0  0  0  0  0
   -2.0343    2.9407    0.0000 O   0  0  0  0  0  0  0  0  0  0  0  0
   -3.8773    3.3254    0.0000 C   0  0  0  0  0  0  0  0  0  0  0  0
   -3.7256    4.8177    0.0000 C   0  0  0  0  0  0  0  0  0  0  0  0
   -5.2456    2.7106    0.0000 C   0  0  0  0  0  0  0  0  0  0  0  0
   -0.2278    0.6926    0.0000 C   0  0  0  0  0  0  0  0  0  0  0  0
   -0.0761    2.1849    0.0000 O   0  0  0  0  0  0  0  0  0  0  0  0
   -1.2926    3.0625    0.0000 C   0  0  0  0  0  0  0  0  0  0  0  0
   -1.1408    4.5548    0.0000 C   0  0  0  0  0  0  0  0  0  0  0  0
   -2.7689    2.7971    0.0000 O   0  0  0  0  0  0  0  0  0  0  0  0
    0.9887   -0.1849    0.0000 C   0  0  0  0  0  0  0  0  0  0  0  0
  1  2  1  0
  2  3  1  0
  3  4  2  0
  3  5  1  0
  5  6  1  1
  5  7  1  0
  7  8  2  0
  7  9  1  0
  9 10  2  0
 10 11  1  0
 11 12  1  6
 11 13  1  0
 13 14  2  0
 14 15  1  0
 14 16  1  0
 16 17  2  0
 16 18  1  0
 18 19  1  6
 18 20  1  0
 20 21  2  0
 21 22  1  0
 22 23  1  0
 23 24  1  1
 24 25  2  0
 25 26  1  0
 26 27  1  0
 26 28  1  0
 28 29  1  0
 29 30  2  0
 23 31  1  0
 31 32  1  1
 31 33  1  0
 33 34  1  1
 34 35  1  0
 35 36  2  0
 35 37  1  0
 37 38  1  0
 37 39  1  0
 33 40  1  0
 40 41  1  6
 41 42  1  0
 42 43  1  0
 42 44  2  0
 40 45  1  0
 13  5  1  0
 45 18  1  0
 45 11  1  6
 31 20  1  0
 29 24  1  0
M  END
>  <identifier>  (1596) 
CNP0080447.1

>  <canonical_smiles>  (1596) 
COC(=O)[C@@]1(C)C(=O)C=C[C@@]2(C)C1=C(O)C(=O)[C@@]1(C)C3=CC[C@@H](C4=CC(O)OC4=O)[C@]3(C)[C@@H](OC(=O)C(C)C)[C@H](OC(C)=O)[C@@H]12

>  <standard_inchi>  (1596) 
InChI=1S/C33H38O12/c1-14(2)27(39)45-26-22(43-15(3)34)24-30(4)12-11-19(35)33(7,29(41)42-8)23(30)21(37)25(38)32(24,6)18-10-9-17(31(18,26)5)16-13-20(36)44-28(16)40/h10-14,17,20,22,24,26,36-37H,9H2,1-8H3/t17-,20?,22+,24+,26-,30-,31-,32-,33-/m0/s1

>  <standard_inchi_key>  (1596) 
LSLCJRYTIZGMGR-YIGGRTFZSA-N

>  <name>  (1596) 
nan

>  <iupac_name>  (1596) 
methyl (4~{R},8~{R},9~{R},10~{R},11~{R},12~{R},13~{S},17~{R})-11-acetoxy-6-hydroxy-17-(2-hydroxy-5-oxo-2~{H}-furan-4-yl)-4,8,10,13-tetramethyl-12-(2-methylpropanoyloxy)-3,7-dioxo-11,12,16,17-tetrahydro-9~{H}-cyclopenta[a]phenanthrene-4-carboxylate

>  <annotation_level>  (1596) 
4

>  <total_atom_count>  (1596) 
83

>  <heavy_atom_count>  (1596) 
45

>  <molecular_weight>  (1596) 
626.66

>  <exact_molecular_weight>  (1596) 
626.23633

>  <molecular_formula>  (1596) 
C33H38O12

>  <alogp>  (1596) 
2.60

>  <topological_polar_surface_area>  (1596) 
179.80

>  <rotatable_bond_count>  (1596) 
5

>  <hydrogen_bond_acceptors>  (1596) 
12

>  <hydrogen_bond_donors>  (1596) 
2

>  <hydrogen_bond_acceptors_lipinski>  (1596) 
12

>  <hydrogen_bond_donors_lipinski>  (1596) 
2

>  <lipinski_rule_of_five_violations>  (1596) 
2

>  <aromatic_rings_count>  (1596) 
0

>  <qed_drug_likeliness>  (1596) 
0.20

>  <formal_charge>  (1596) 
0

>  <fractioncsp3>  (1596) 
0.58

>  <number_of_minimal_rings>  (1596) 
5

>  <van_der_walls_volume>  (1596) 
nan

>  <contains_sugar>  (1596) 
False

>  <contains_ring_sugars>  (1596) 
False

>  <contains_linear_sugars>  (1596) 
False

>  <murcko_framework>  (1596) 
O1CC=C(C1)C2CC=C3C4CC=C5CCC=CC5C4CCC32

>  <np_likeness>  (1596) 
2.96

>  <chemical_class>  (1596) 
Steroids and steroid derivatives

>  <chemical_sub_class>  (1596) 
Steroid lactones

>  <chemical_super_class>  (1596) 
Lipids and lipid-like molecules

>  <direct_parent_classification>  (1596) 
Steroid lactones

>  <np_classifier_pathway>  (1596) 
Terpenoids

>  <np_classifier_superclass>  (1596) 
Triterpenoids

>  <np_classifier_class>  (1596) 
Limonoids

>  <np_classifier_is_glycoside>  (1596) 
True

>  <organisms>  (1596) 
Trichilia hirta

>  <collections>  (1596) 
Latin America dataset|NuBBEDB|WikiData Natural Products

>  <dois>  (1596) 
10.1016/0031-9422(92)90048-U

>  <synonyms>  (1596) 
methyl 11\u221a\u00e9\u00ac\u2264-acetoxy-623-dihydroxy-12\u221a\u00e9\u00ac\u00b1 -(2-methylpropionyloxy)-3721-trioxo-151420-meliacatetraen-29-oate

>  <cas>  (1596) 
nan

$$$$

     RDKit          2D

 21 21  0  0  0  0  0  0  0  0999 V2000
   -8.8989   -0.0932    0.0000 C   0  0  0  0  0  0  0  0  0  0  0  0
   -7.5020    0.4532    0.0000 C   0  0  0  0  0  0  0  0  0  0  0  0
   -7.2767    1.9362    0.0000 C   0  0  0  0  0  0  0  0  0  0  0  0
   -6.3303   -0.4834    0.0000 C   0  0  0  0  0  0  0  0  0  0  0  0
   -4.9333    0.0630    0.0000 C   0  0  0  0  0  0  0  0  0  0  0  0
   -3.7617   -0.8736    0.0000 C   0  0  0  0  0  0  0  0  0  0  0  0
   -2.3647   -0.3272    0.0000 C   0  0  0  0  0  0  0  0  0  0  0  0
   -2.1395    1.1558    0.0000 C   0  0  0  0  0  0  0  0  0  0  0  0
   -1.1931   -1.2637    0.0000 C   0  0  0  0  0  0  0  0  0  0  0  0
    0.2039   -0.7173    0.0000 C   0  0  0  0  0  0  0  0  0  0  0  0
    1.3756   -1.6539    0.0000 O   0  0  0  0  0  0  0  0  0  0  0  0
    2.7725   -1.1075    0.0000 C   0  0  0  0  0  0  0  0  0  0  0  0
    2.9978    0.3755    0.0000 C   0  0  0  0  0  0  0  0  0  0  0  0
    4.3947    0.9219    0.0000 C   0  0  0  0  0  0  0  0  0  0  0  0
    4.6200    2.4049    0.0000 C   0  0  0  0  0  0  0  0  0  0  0  0
    3.4483    3.3415    0.0000 O   0  0  0  0  0  0  0  0  0  0  0  0
    6.0169    2.9513    0.0000 O   0  0  0  0  0  0  0  0  0  0  0  0
    5.5664   -0.0147    0.0000 C   0  0  0  0  0  0  0  0  0  0  0  0
    5.3411   -1.4977    0.0000 C   0  0  0  0  0  0  0  0  0  0  0  0
    3.9442   -2.0441    0.0000 C   0  0  0  0  0  0  0  0  0  0  0  0
    3.7189   -3.5271    0.0000 O   0  0  0  0  0  0  0  0  0  0  0  0
  1  2  1  0
  2  3  1  0
  2  4  2  0
  4  5  1  0
  5  6  1  0
  6  7  1  0
  7  8  1  0
  7  9  2  0
  9 10  1  0
 10 11  1  0
 11 12  1  0
 12 13  2  0
 13 14  1  0
 14 15  1  0
 15 16  2  0
 15 17  1  0
 14 18  2  0
 18 19  1  0
 19 20  2  0
 20 21  1  0
 20 12  1  0
M  END
>  <identifier>  (1597) 
CNP0323770.1

>  <canonical_smiles>  (1597) 
CC(C)=CCC/C(C)=C/COC1=CC(C(=O)O)=CC=C1O

>  <standard_inchi>  (1597) 
InChI=1S/C17H22O4/c1-12(2)5-4-6-13(3)9-10-21-16-11-14(17(19)20)7-8-15(16)18/h5,7-9,11,18H,4,6,10H2,1-3H3,(H,19,20)/b13-9+

>  <standard_inchi_key>  (1597) 
PCIWHHWVYOFPEM-UKTHLTGXSA-N

>  <name>  (1597) 
nan

>  <iupac_name>  (1597) 
nan

>  <annotation_level>  (1597) 
0

>  <total_atom_count>  (1597) 
43

>  <heavy_atom_count>  (1597) 
21

>  <molecular_weight>  (1597) 
290.36

>  <exact_molecular_weight>  (1597) 
290.15181

>  <molecular_formula>  (1597) 
C17H22O4

>  <alogp>  (1597) 
4.16

>  <topological_polar_surface_area>  (1597) 
66.76

>  <rotatable_bond_count>  (1597) 
7

>  <hydrogen_bond_acceptors>  (1597) 
3

>  <hydrogen_bond_donors>  (1597) 
2

>  <hydrogen_bond_acceptors_lipinski>  (1597) 
3

>  <hydrogen_bond_donors_lipinski>  (1597) 
2

>  <lipinski_rule_of_five_violations>  (1597) 
0

>  <aromatic_rings_count>  (1597) 
1

>  <qed_drug_likeliness>  (1597) 
0.74

>  <formal_charge>  (1597) 
0

>  <fractioncsp3>  (1597) 
0.35

>  <number_of_minimal_rings>  (1597) 
1

>  <van_der_walls_volume>  (1597) 
283.70

>  <contains_sugar>  (1597) 
False

>  <contains_ring_sugars>  (1597) 
False

>  <contains_linear_sugars>  (1597) 
False

>  <murcko_framework>  (1597) 
c1ccccc1

>  <np_likeness>  (1597) 
1.54

>  <chemical_class>  (1597) 
nan

>  <chemical_sub_class>  (1597) 
nan

>  <chemical_super_class>  (1597) 
nan

>  <direct_parent_classification>  (1597) 
nan

>  <np_classifier_pathway>  (1597) 
Shikimates and Phenylpropanoids

>  <np_classifier_superclass>  (1597) 
Phenolic acids (C6-C1)

>  <np_classifier_class>  (1597) 
Simple phenolic acids

>  <np_classifier_is_glycoside>  (1597) 
False

>  <organisms>  (1597) 
Piper crassinervium

>  <collections>  (1597) 
ChemSpider NPs|Latin America dataset|NuBBEDB|Super Natural II|WikiData Natural Products|ZINC NP

>  <dois>  (1597) 
10.1016/J.BIORTECH.2010.01.041|10.1016/j.biortech.2010.01.041

>  <synonyms>  (1597) 
nan

>  <cas>  (1597) 
nan

$$$$

     RDKit          2D

 23 24  0  0  0  0  0  0  0  0999 V2000
   -9.1855    0.4061    0.0000 C   0  0  0  0  0  0  0  0  0  0  0  0
   -8.0913   -0.6199    0.0000 O   0  0  0  0  0  0  0  0  0  0  0  0
   -6.6557   -0.1854    0.0000 C   0  0  0  0  0  0  0  0  0  0  0  0
   -6.3142    1.2753    0.0000 C   0  0  0  0  0  0  0  0  0  0  0  0
   -4.8785    1.7098    0.0000 C   0  0  0  0  0  0  0  0  0  0  0  0
   -3.7843    0.6838    0.0000 C   0  0  0  0  0  0  0  0  0  0  0  0
   -2.3487    1.1184    0.0000 C   0  0  0  0  0  0  0  0  0  0  0  0
   -1.2545    0.0924    0.0000 C   0  0  0  0  0  0  0  0  0  0  0  0
    0.1812    0.5269    0.0000 C   0  0  0  0  0  0  0  0  0  0  0  0
    0.5227    1.9875    0.0000 O   0  0  0  0  0  0  0  0  0  0  0  0
    1.2754   -0.4991    0.0000 N   0  0  0  0  0  0  0  0  0  0  0  0
    2.7111   -0.0645    0.0000 C   0  0  0  0  0  0  0  0  0  0  0  0
    3.8052   -1.0905    0.0000 C   0  0  0  0  0  0  0  0  0  0  0  0
    5.2409   -0.6560    0.0000 C   0  0  0  0  0  0  0  0  0  0  0  0
    6.3351   -1.6820    0.0000 C   0  0  0  0  0  0  0  0  0  0  0  0
    7.7708   -1.2474    0.0000 C   0  0  0  0  0  0  0  0  0  0  0  0
    8.1122    0.2132    0.0000 C   0  0  0  0  0  0  0  0  0  0  0  0
    9.5479    0.6478    0.0000 O   0  0  0  0  0  0  0  0  0  0  0  0
    7.0181    1.2392    0.0000 C   0  0  0  0  0  0  0  0  0  0  0  0
    5.5824    0.8046    0.0000 C   0  0  0  0  0  0  0  0  0  0  0  0
   -4.1258   -0.7768    0.0000 C   0  0  0  0  0  0  0  0  0  0  0  0
   -5.5615   -1.2114    0.0000 C   0  0  0  0  0  0  0  0  0  0  0  0
   -5.9029   -2.6720    0.0000 O   0  0  0  0  0  0  0  0  0  0  0  0
  1  2  1  0
  2  3  1  0
  3  4  2  0
  4  5  1  0
  5  6  2  0
  6  7  1  0
  7  8  2  0
  8  9  1  0
  9 10  2  0
  9 11  1  0
 11 12  1  0
 12 13  1  0
 13 14  1  0
 14 15  2  0
 15 16  1  0
 16 17  2  0
 17 18  1  0
 17 19  1  0
 19 20  2  0
  6 21  1  0
 21 22  2  0
 22 23  1  0
 22  3  1  0
 20 14  1  0
M  END
>  <identifier>  (1598) 
CNP0230374.1

>  <canonical_smiles>  (1598) 
COC1=CC=C(/C=C/C(=O)NCCC2=CC=C(O)C=C2)C=C1O

>  <standard_inchi>  (1598) 
InChI=1S/C18H19NO4/c1-23-17-8-4-14(12-16(17)21)5-9-18(22)19-11-10-13-2-6-15(20)7-3-13/h2-9,12,20-21H,10-11H2,1H3,(H,19,22)/b9-5+

>  <standard_inchi_key>  (1598) 
YVJONNCAHSDDLZ-WEVVVXLNSA-N

>  <name>  (1598) 
nan

>  <iupac_name>  (1598) 
nan

>  <annotation_level>  (1598) 
0

>  <total_atom_count>  (1598) 
42

>  <heavy_atom_count>  (1598) 
23

>  <molecular_weight>  (1598) 
313.35

>  <exact_molecular_weight>  (1598) 
313.13141

>  <molecular_formula>  (1598) 
C18H19NO4

>  <alogp>  (1598) 
2.48

>  <topological_polar_surface_area>  (1598) 
78.79

>  <rotatable_bond_count>  (1598) 
6

>  <hydrogen_bond_acceptors>  (1598) 
4

>  <hydrogen_bond_donors>  (1598) 
3

>  <hydrogen_bond_acceptors_lipinski>  (1598) 
4

>  <hydrogen_bond_donors_lipinski>  (1598) 
3

>  <lipinski_rule_of_five_violations>  (1598) 
0

>  <aromatic_rings_count>  (1598) 
2

>  <qed_drug_likeliness>  (1598) 
0.72

>  <formal_charge>  (1598) 
0

>  <fractioncsp3>  (1598) 
0.17

>  <number_of_minimal_rings>  (1598) 
2

>  <van_der_walls_volume>  (1598) 
289.74

>  <contains_sugar>  (1598) 
False

>  <contains_ring_sugars>  (1598) 
False

>  <contains_linear_sugars>  (1598) 
False

>  <murcko_framework>  (1598) 
c1ccc(cc1)C=CCNCCc2ccccc2

>  <np_likeness>  (1598) 
0.31

>  <chemical_class>  (1598) 
nan

>  <chemical_sub_class>  (1598) 
nan

>  <chemical_super_class>  (1598) 
nan

>  <direct_parent_classification>  (1598) 
nan

>  <np_classifier_pathway>  (1598) 
Amino acids and Peptides

>  <np_classifier_superclass>  (1598) 
Phenylpropanoids (C6-C3)

>  <np_classifier_class>  (1598) 
Cinnamic acid amides

>  <np_classifier_is_glycoside>  (1598) 
False

>  <organisms>  (1598) 
Atriplex semibaccata|Conchocarpus gaudichaudianus|Lycium barbarum|Lycium chinense

>  <collections>  (1598) 
Australian natural products|CMAUP (cCollective molecular activities of useful plants)|Latin America dataset|NPASS|NuBBEDB|Super Natural II|WikiData Natural Products|ZINC NP

>  <dois>  (1598) 
10.1016/j.phytol.2019.09.016|10.1021/NP300655Y|10.1021/np300655y|10.3987/COM-09-11671

>  <synonyms>  (1598) 
nan

>  <cas>  (1598) 
nan

$$$$

     RDKit          2D

 23 25  0  0  0  0  0  0  0  0999 V2000
   -4.0362    3.4919    0.0000 C   0  0  0  0  0  0  0  0  0  0  0  0
   -4.8011    2.2016    0.0000 O   0  0  0  0  0  0  0  0  0  0  0  0
   -4.0661    0.8940    0.0000 C   0  0  0  0  0  0  0  0  0  0  0  0
   -2.5662    0.8767    0.0000 C   0  0  0  0  0  0  0  0  0  0  0  0
   -1.8312   -0.4308    0.0000 C   0  0  0  0  0  0  0  0  0  0  0  0
   -0.3313   -0.4481    0.0000 C   0  0  0  0  0  0  0  0  0  0  0  0
    0.4038   -1.7556    0.0000 C   0  0  0  0  0  0  0  0  0  0  0  0
   -0.3611   -3.0460    0.0000 O   0  0  0  0  0  0  0  0  0  0  0  0
    1.9037   -1.7729    0.0000 C   0  0  0  0  0  0  0  0  0  0  0  0
    2.6387   -3.0804    0.0000 O   0  0  0  0  0  0  0  0  0  0  0  0
    2.6685   -0.4825    0.0000 C   0  0  0  0  0  0  0  0  0  0  0  0
    4.1684   -0.4998    0.0000 C   0  0  0  0  0  0  0  0  0  0  0  0
    4.9035   -1.8073    0.0000 O   0  0  0  0  0  0  0  0  0  0  0  0
    4.9333    0.7906    0.0000 C   0  0  0  0  0  0  0  0  0  0  0  0
    4.1983    2.0981    0.0000 C   0  0  0  0  0  0  0  0  0  0  0  0
    4.9632    3.3885    0.0000 O   0  0  0  0  0  0  0  0  0  0  0  0
    2.6984    2.1154    0.0000 C   0  0  0  0  0  0  0  0  0  0  0  0
    1.9335    0.8250    0.0000 C   0  0  0  0  0  0  0  0  0  0  0  0
    0.4336    0.8423    0.0000 O   0  0  0  0  0  0  0  0  0  0  0  0
   -2.5960   -1.7212    0.0000 C   0  0  0  0  0  0  0  0  0  0  0  0
   -4.0959   -1.7039    0.0000 C   0  0  0  0  0  0  0  0  0  0  0  0
   -4.8310   -0.3963    0.0000 C   0  0  0  0  0  0  0  0  0  0  0  0
   -6.3309   -0.3791    0.0000 O   0  0  0  0  0  0  0  0  0  0  0  0
  1  2  1  0
  2  3  1  0
  3  4  2  0
  4  5  1  0
  5  6  1  0
  6  7  2  0
  7  8  1  0
  7  9  1  0
  9 10  2  0
  9 11  1  0
 11 12  2  0
 12 13  1  0
 12 14  1  0
 14 15  2  0
 15 16  1  0
 15 17  1  0
 17 18  2  0
 18 19  1  0
  5 20  2  0
 20 21  1  0
 21 22  2  0
 22 23  1  0
 22  3  1  0
 19  6  1  0
 18 11  1  0
M  END
>  <identifier>  (1599) 
CNP0304008.0

>  <canonical_smiles>  (1599) 
COC1=CC(C2=C(O)C(=O)C3=C(O)C=C(O)C=C3O2)=CC=C1O

>  <standard_inchi>  (1599) 
InChI=1S/C16H12O7/c1-22-11-4-7(2-3-9(11)18)16-15(21)14(20)13-10(19)5-8(17)6-12(13)23-16/h2-6,17-19,21H,1H3

>  <standard_inchi_key>  (1599) 
IZQSVPBOUDKVDZ-UHFFFAOYSA-N

>  <name>  (1599) 
Isorhamnetin

>  <iupac_name>  (1599) 
3,5,7-trihydroxy-2-(4-hydroxy-3-methoxy-phenyl)chromen-4-one

>  <annotation_level>  (1599) 
5

>  <total_atom_count>  (1599) 
35

>  <heavy_atom_count>  (1599) 
23

>  <molecular_weight>  (1599) 
316.27

>  <exact_molecular_weight>  (1599) 
316.0583

>  <molecular_formula>  (1599) 
C16H12O7

>  <alogp>  (1599) 
2.29

>  <topological_polar_surface_area>  (1599) 
120.36

>  <rotatable_bond_count>  (1599) 
2

>  <hydrogen_bond_acceptors>  (1599) 
7

>  <hydrogen_bond_donors>  (1599) 
4

>  <hydrogen_bond_acceptors_lipinski>  (1599) 
7

>  <hydrogen_bond_donors_lipinski>  (1599) 
4

>  <lipinski_rule_of_five_violations>  (1599) 
0

>  <aromatic_rings_count>  (1599) 
3

>  <qed_drug_likeliness>  (1599) 
0.57

>  <formal_charge>  (1599) 
0

>  <fractioncsp3>  (1599) 
0.06

>  <number_of_minimal_rings>  (1599) 
3

>  <van_der_walls_volume>  (1599) 
255.51

>  <contains_sugar>  (1599) 
False

>  <contains_ring_sugars>  (1599) 
False

>  <contains_linear_sugars>  (1599) 
False

>  <murcko_framework>  (1599) 
O1c2ccccc2CC=C1c3ccccc3

>  <np_likeness>  (1599) 
1.57

>  <chemical_class>  (1599) 
Flavonoids

>  <chemical_sub_class>  (1599) 
Flavones

>  <chemical_super_class>  (1599) 
Phenylpropanoids and polyketides

>  <direct_parent_classification>  (1599) 
Flavonols

>  <np_classifier_pathway>  (1599) 
Shikimates and Phenylpropanoids

>  <np_classifier_superclass>  (1599) 
Flavonoids

>  <np_classifier_class>  (1599) 
Flavonols

>  <np_classifier_is_glycoside>  (1599) 
False

>  <organisms>  (1599) 
Aaptos ciliata|Abies excelsa|Abies pinsapo var. marocana|Acacia aroma|Acacia caven|Acacia dealbata|Acacia latifolia|Acacia mearnsii|Acacia praecox|Acaena magellanica|Acer glabrum|Achillea millefolium|Achillea pannonica|Achillea spinulifolia|Achlya heterosexualis|Achlys triphylla|Achyrocline sp.|Adiantum malesianum|Aeonium decorum|Aframomum amaniense|Aglaia formosana|Agnorhiza bolanderi|Agnorhiza invenusta|Alangium premnifolium|Albizia julibrissin|Alectoria divergens|Alectra parasitica|Alhagi graecorum|Alhagi maurorum|Alhagi persarum|Alhagi pseudalhagi|Alhagi sparsifolia|Allium ascalonicum|Allium cepa|Allium erubescens|Allium sativum|Allium schoenoprasum|Allium waldsteinii|Alnus incana|Alnus japonica|Alpinia officinarum|Alstonia scholaris|Alternaria macrospora|Amaranthus hypochondriacus|Ambrosia ambrosioides|Ambrosia hispida|Ambrosia salsola|Ammi visnaga|Ampelocera edentula|Amphilophis odorata|Anethum graveolens|Angelica acutiloba|Annona muricata|Annona senegalensis|Anthemis altissima|Anthyllis onobrychioides|Anthyllis vulneraria|Aphis graminum|Aphis pini|Apis mellifera|Apium graveolens var. dulce|Arabidopsis thaliana|Arctotis revoluta|Argemone Mexicana|Argemone mexicana|Aristea lugens|Aristolochia heterophylla|Aristolochia kaempferi|Aristolochia zollingeriana|Armeria maritima|Arnica amplexicaulis|Arnica chamissonis|Arnica longifolia|Arnica mollis|Arnica montana|Arnica parryi|Arnica spp.|Aronia melanocarpa|Artemisia Annua|Artemisia Capillaris|Artemisia absinthium|Artemisia alba|Artemisia annua|Artemisia annua L.|Artemisia anomala|Artemisia campestris|Artemisia capillaries|Artemisia capillaris|Artemisia dracunculus|Artemisia gmelinii|Artemisia iwayomogi|Artemisia ludoviciana|Artemisia rehan|Artemisia vulgaris|Asclepias sp.|Aspergillus desertorum|Aster batangensis|Aster oharai|Aster spathulifolius|Astragalus angustifolius|Astragalus bornmuellerianus|Astragalus dasyanthus|Astragalus flexus|Astragalus floccosifolius|Astragalus kabadianus|Astragalus melilotoides|Astragalus membranaceus|Astragalus mongholicus|Astragalus mongolicus|Astragalus onobrychis|Astragalus propinquus|Astragalus trimestris|Aulosira fertilissima|Avrainvillea longicaulis|Baccharis bigelovii|Baccharis paniculata|Baccharis pteronioides|Baccharis salicifolia|Baccharis scandens|Baccharis viminea|Baeckea crenulata|Balanophora involucrata|Bartramia pomiformis|Bauhinia glauca|Beilschmiedia anacardioides|Berberis repens|Betula nigra|Binapsis arvense|Bistorta manshuriensis|Bistorta officinalis|Bletilla formosana|Boehmeria pannosa|Boltonia asteroides|Botrytis cinerea|Bougainvillea spectabilis|Brassica carinata|Brassica oleracea|Brassica rapa|Brickellia cavanillesii|Bryonia alba|Bryum argenteum|Bupleurum chinense|Bupleurum rotundifolium|Bupleurum rotundifolium L.|Bupleurum sp.|Bupleurum spinosum|Byssochlamys fulva|Cacalia pilgeriana|Cacumen tamaricis|Caesalpinia gilliesii|Calendula officinalis|Calendula sp.|Callicarpa japonica|Camellia sinensis|Campanula glomerata|Campanula glomerata L.|Campanula zangezura|Camphorosma monspeliaca|Capparicordis tweediana|Capparis tweediana|Capsicum annuum|Caragana frutex|Carduus nutans|Carex nigra|Carpha glomerata|Carthamus tinctorius|Cassia sp.|Cassytha filiformis|Cedrus atlantica|Cedrus atlantica Manetii cv.glauca|Cedrus libani|Centaurea cyanus|Centaurea deflexa|Centaurea sinaica|Cephalaria grossheimii|Cerinthe minor|Cheniella glauca|Chenopodium ambrosioides|Chenopodium quinoa|Chrysanthemum indicum|Chrysanthemum x morifolium|Chrysosporum ovalisporum|Chrysothamnus nauseosus|Chrysothamnus viscidiflorus|Cicer arietinum|Cicer flexuosum|Cicer pungens|Cicer songaricum|Cichorium sp.|Cicuta sp.|Cirsium carolinianum|Cirsium helenioides|Cirsium oligophyllum|Cistus albidus|Cistus creticus|Cistus incanus|Cistus ladanifer|Cistus laurifolius|Cistus monspeliensis|Citrullus lanatus|Cladrastis platycarpa|Clione antarctica|Coccus ilicis|Colocasia esculenta|Commelina communis|Coprosma areolata|Coriandrum sativum|Cortinarius orellanus|Corydalis ochotensis|Cota altissima|Craspidospermum verticillatum|Croton gratissimus|Croton laccifer|Croton sp.|Crucianella maritima|Cryptocarya alba|Cucumis sativus|Cuscuta australis|Cuscuta chinensis|Cuscuta hyalina|Cyanostegia angustifolia|Cyathochaeta avenacea|Cylindrospermum muscicola|Cyperus sesquiflorus|Dactylorhiza viridis|Dalbergia hupeana|Daucus carota|Delphinium semibarbartum|Delphinium semibarbatum|Delphinium zalil|Dendrilla cavernosa|Dendroctonus ponderosae|Descurainia Sophia|Descurainia sophia|Desmodium styracifolium|Dianthus caryophyllus|Dictyopteris acrostichoides|Dioscorea bulbifera|Dioscorea japonica|Diospyros japonica|Dipentodon sinicus|Diphasiastrum thyoides|Diplodia natalensis|Diplopterygium glaucum|Diplotaxis acris|Diplotaxis muralis|Diplotaxis simplex|Diplotaxis tenuifolia|Diplotaxis viminea|Dischidia formosana|Dodonaea Viscosa|Dodonaea viscosa|Dolichopentas longiflora|Doronicum grandiflorum|Dorycnium pentaphyllum|Draba nemorosa|Dysphania ambrosioides|Earina autumnalis|Ehretia dicksonii|Elaeagnus angustifolia|Elephantopus hirtiflorus|Empetrum nigrum|Entada phaseoloides|Ephydatia syriaca|Eremanthus goyazensis|Eremanthus seidelii|Ericameria laricifolia|Ericameria linearifolia|Eriodictyon sessilifolium|Eriophyllum staechadifolium|Eruca sativa|Eruca vesicaria|Eryngium campestre|Escallonia pulverulenta|Eucalyptus resinifera|Eucalyptus spp.|Eugenia axillaris|Eupatorium kiirunense|Euphorbia amygdaloides|Euphorbia hirta|Euphorbia myrsinites|Euphrasia genargentea|Euphydryas cynthia|Eurycoma harmandiana|Exallage auricularia|Fagonia mollis|Farsetia aegyptia|Ferulago sylvatica|Ficus nitida|Foeniculum sp.|Foeniculum vulgare|Fomes robiniae|Forsythia suspensa|Forsythia viridissima|Fritillaria raddeana|Fructus caryophylli|Fructus kochiae|Fuirena ciliaris|Fuirena incrassata|Gambierdiscus toxicus|Genista aetnensis|Genista cinerea|Ginkgo biloba|Ginkgo sp.|Glycyrrhiza sp.|Gmelina asiatica|Goniothalamus tamirensis|Grindelia nana|Guatteria ouregou|Gutierrezia wrightii|Gymnothorax javanicus|Gynostemma yixingense|Gynoxys nitida|Haematoxylum campechianum|Haematoxylum sp.|Halobacillus litoralis|Halobacterium salinarum|Halocnemum strobilaceum|Hamamelistes betulae|Haplopappus bailahuen|Haplopappus baylahuen|Haplopappus foliosus|Haplopappus multifolius|Haplopappus rengifoanus|Haplopappus scrobiculatus|Haplopappus sp.|Haplophyllum robustum|Hazardia squarrosa|Hedysarum setigerum|Helichrysum cephaloideum|Helichrysum forskahlii|Helicoverpa zea|Helicteres angustifolia|Heliotropium amplexicaule|Hemionitis japonica|Herba artemisiae scopariae|Herba meconpsis integrifoliae|Herba patriniae|Herba sedi sarmentosi|Herniaria mauritanica|Herniaria polygama|Hesperis matronalis|Hippeastrum papilio|Hippophae rhamnoides|Hippophae sp.|Holboellia fargesi|Homeria glauca|Homo sapiens|Hygrophorus chrysodon|Hylotelephium caucasicum|Hypericum ascyron|Hypericum balearicum|Hypericum oblongifolium|Hypericum perforatum|Iberis amara|Ilex affinis|Ilex ambigua|Ilex boliviana|Ilex brevicuspis|Ilex cassine|Ilex chamaedryfolia|Ilex colchica|Ilex dumosa|Ilex krugiana|Ilex leucoclada|Ilex longipes|Ilex ovalis|Ilex pseudobuxus|Ilex quercetorum|Ilex sideroxyloides|Ilex sp.|Ilex theezans|Ilex vitis-idaea|Inula britannica|Inula japonica|Ips confusus|Isaria felina|Isodon japonica var. glaucocalyx|Isodon rubescens|Ixeris debilis|Ixeris stolonifera|Jackiella javanica|Jatropha macrorhiza|Justicia paniculata|Khaya ivorensis|Khaya senegalensis|Kitaibela vitifolia|Klattia partita|Koanophyllon simillimum|Koelreuteria paniculata|Krascheninnikovia ceratoides|Lactuca sativa|Larix cajanderi|Larix sibirica|Larrea cuneifolia|Lasiolaena morii|Lecanora nipponica|Lepidium apetalum|Lepidium sativum|Lepidosperma costale|Lepidosperma effusum|Lepidosperma filiforme|Lepidosperma flexuosum|Lepidosperma lineare|Lepidosperma pruinosum|Lepidosperma tenue|Lepidosperma ustulatum|Leucanthemum sp.|Leucanthemum vulgare|Levisticum officinale|Libocedrus plumosa|Ligularia cymbulifera|Lilium candidum|Lilium umbellatum|Limnocharis flava|Lobophytum durum|Lobophytum laevigatum|Lomatia hirsuta|Lonicera tatarica var. morrowii|Lotus corniculatus|Lotus japonicus|Lotus maritimus|Lotus ucrainicus|Lupinus luteus|Lupinus verbasciformis|Lychnophora diamantina|Lychnophora diamantinana|Lysimachia christinae|Lysimachia fordiana|Lysimachia heterogenea|Lysimachia thyrsiflora|Magnolia montana|Malus domestica|Malus pumila|Marasmiellus troyanus|Maytenus chuchuhuasha|Meconopsis horridula|Medicago Sativa|Medicago sativa|Melaleuca rhaphiophylla|Melicope madagascariensis|Melissa officinalis|Menyanthes sp.|Menyanthes trifoliata|Mesomelaena preissii|Mesomelaena pseudostygia|Mesomelaena stygia|Meum sp.|Microcos paniculata|Millettia ferruginea|Minthostachys setosa|Mirabilis viscosa|Morus alba|Mutisia orbignyana|Myristica fragrans|Nama hispidum|Narcissus tazetta|Nasturtium officinale|Nelumbo nucifera|Nematolepis phebalioides|Neobellieria bullata|Neophaeosphaeria quadriseptata|Nephroma parile|Neurolaena lobata|Nitraria retusa|Nivenia fruticosa|Nothofagus obliqua|Notobasis syriaca|Nymphoides geminata|Nymphoides indica|Oedera squarrosa|Oenanthe Javanica|Oenanthe javanica|Oligomeris linifolia|Onobrychis biebersteinii|Oreopteris quelpaertensis|Origanum vulgare|Ornduffia reniformis|Orthosiphon spicatus|Oxytropis campestris|Oxytropis falcata|Oxytropis oxyphylla|Ozothamnus spp.|Paeonia rockii|Pangium edule|Passiflora palmeri|Pastinaca sativa|Patersonia fragilis|Patersonia occidentalis|Patersonia sericea|Patersonia umbrosa|Patrinia villosa|Penicillium paxilli|Penstemon mucronatus|Pericome caudata|Periploca calophylla|Perityle vaseyi|Persicaria hydropiper|Persicaria orientalis|Persicaria pubescens|Persicaria senticosa|Persicaria sp.|Persicaria thunbergii|Petasites hybridus|Petroselinum crispum|Peucedanum morisonii|Phaseolus vulgaris|Phlomoides rotata|Phora velutina|Phyllanthus emblica|Picea abies|Picramnia latifolia|Pieris napi|Pinus brutia|Pinus halepensis|Pinus uncinata|Piper lanceifolium|Plagius maghrebinus|Plantago major|Platanus sp.|Podocarpus fasciculus|Polygonum aviculare|Polygonum equisetiforme|Polygonum punctatum|Polygonum senticosum|Polyporus dryadeus|Polyzonium rosalbum|Populus deltoides|Porophyllum obscurum|Portulaca oleracea|Primula sp.|Prosopis argentina|Prosopis hassleri|Prosopis humilis|Prosopis reptans|Prosopis ruizlealii|Prosopis sericantha|Prosopis torquata|Prumnopitys ferruginoides|Prunus avium|Prunus dulcis|Pseudaegle trifoliata|Psidium friedrichsthalianum|Psidium guaijava|Psidium guajava|Ptarmica ptarmicifolia|Pterocaulon purpurascens|Pterolobium hexapetalum|Pulicaria arabica|Pulicaria dysenterica|Pulicaria gnaphalodes|Pulicaria gnaphaloides|Pyrus communis|Ranunculus asiaticus|Raphanus sativus|Reineckea carnea|Remirea maritima|Rhamnus lycioides|Rhamnus pallasii|Rhamnus sp.|Rhaponticum carthamoides|Rhizobium leguminosarum|Rhododendron spinuliferum|Rhus vulgaris|Rosa laevigata|Rosmarinus officinalis|Rubus arcticus|Ruellia rosea|Rumex patientia|Ruscus hypoglossum L.|Ruta angustifolia|Ruta chalepensis|Ruta graveolens|Ruta montana|Ruta pinnata|Saccharopolyspora hirsuta|Salsola collina|Salvia Farinacea|Salvia farinacea|Salvia limbata|Salvia officinalis|Sarcophyton elegans|Sarcotoxicum salicifolium|Schizophyllum lobatum|Searsia pyroides|Sedum Sarmentosum|Sedum acre|Sedum album|Sedum annuum|Sedum euxinum|Sedum lineare|Sedum litoreum|Sedum meyeri-johannis|Sedum obtuso-lineare|Sedum sarmentosum|Sedum urvillei|Senecio adenophyllus|Senecio renardii|Senecio subdentatus|Senecio viscosus|Senna alexandrina|Senna alexandrina var. alexandrina|Senna siamea|Sextonia rubra|Sideritis kuegleriana|Siegesbeckia jorullensis|Siegesbeckia pubescens|Sigesbeckia glabrescens|Sinapis alba|Sisymbrium sp.|Smilax bockii|Solanum lanceolatum|Solanum lycopersicum|Solanum melongena|Solidago canadensis|Solidago flexicaulis|Solidago sp.|Solidago virgaurea|Sonchus arvensis|Sophora Japonica|Sophora japonica|Sophora moorcroftiana|Sophora tomentosa|Sophora tometosa|Sphaeranthus confertifolius|Sphagnum rubellum|Stemona saxorum|Stephania epigaea|Sterculia foetida|Stizolobium deeringianum|Streptomyces matensis|Streptomyces paulus|Strychnos pseudoquina|Styphnolobium japonicum|Synoicum pulmonaria|Syzygium grande|Tagetes mandonii|Tagetes minuta|Tagetes stenophylla|Tamarix Chinensis|Tamarix chinensis|Tamarix hispida|Tanacetum sp.|Tanacetum vulgare|Targionia hypophylla|Taxus brevifolia|Taxus cuspidata|Taxus sp.|Tephrosia elata|Teucrium asiaticum|Thermopsis dolichocarpa|Thorecta marginalis|Thymus|Timothy-grass|Traversia baccharoides|Triaenophora rupestris|Trichophyton mentagrophytes|Trididemnum cyanophorum|Trifolium aureum|Trifolium pratense|Trifolium sp.|Trifolium subterraneum|Trigonella foenum-graecum|Trikentrion flabelliforme|Trollius chinensis|Typha Angustata|Typha Angustifolia|Typha angustata|Typha angustifolia|Typha domingensis|Typha latifolia|Typha orientalis|Umbelliferae|Umbilicaria esculenta|Vaccinium macrocarpon|Vaccinium vitis-idaea|Vachellia caven|Vellozia|Vellozia conicostigma|Vellozia streptophylla|Verbascum thapsus|Verbena officinalis|Vernonanthura montevidensis|Viburnum erubescens|Viburnum lantanoides|Vicia amurensis|Vigna mungo|Viguiera linearis|Villarsia capensis|Virola multinervia|Virola surinamensis|Viscum Album|Viscum album|Viscum cruciatum|Viscum sp.|Vitex agnus-castus|Vitis cinerea|Vitis vinifera|Wikstroemia viridiflora|Witsenia maura|Wyethia mollis|Xanthorhiza simplicissima|Zaluzania triloba|Zanthoxylum fraxineum|Zea mays|Zygophyllum simplex|basil|brickellia cavanillesii|broccoli|dragon's teeth|lettuce|parsley|tomato

>  <collections>  (1599) 
ANPDB|Australian natural products|BIOFACQUIM|BitterDB|CMAUP (cCollective molecular activities of useful plants)|ChEBI NPs|ChemSpider NPs|ETM (Ethiopian Traditional Medicine) DB|FooDB|GNPS (Global Natural Products Social Molecular Networking)|HIT (Herbal Ingredients Targets)|InflamNat|KNApSaCK|Latin America dataset|NANPDB (Natural Products from Northern African Sources)|NAPRORE-CR|NPASS|NPCARE|NPEdia|NuBBEDB|Phenol-explorer|Phyto4Health|PhytoLab phyproof® Reference Substances|ReSpect|Super Natural II|TCMDB-Taiwan (Traditional Chinese Medicine database)|TCMID (Traditional Chinese Medicine Integrated Database)|TIPdb (database of Taiwan indigenous plants)|UNPD (Universal Natural Products Database)|VietHerb|Watermelon|WikiData Natural Products

>  <dois>  (1599) 
10.1002/(SICI)1099-1573(199705)11:3<260::AID-PTR80>3.0.CO;2-N|10.1002/ARDP.19002380604|10.1002/CBDV.201000279|10.1002/CBDV.201100002|10.1002/HLCA.19490320143|10.1002/J.1537-2197.1978.TB06138.X|10.1002/J.1537-2197.1986.TB08521.X|10.1002/PTR.2650060509|10.1007/978-1-4020-4585-1_1518|10.1007/978-3-642-73686-5_3|10.1007/BF00563635|10.1007/BF00563641|10.1007/BF00563760|10.1007/BF00564011|10.1007/BF00564268|10.1007/BF00564355|10.1007/BF00565207|10.1007/BF00566099|10.1007/BF00566810|10.1007/BF00566816|10.1007/BF00567887|10.1007/BF00570202|10.1007/BF00570687|10.1007/BF00571238|10.1007/BF00574226|10.1007/BF00574349|10.1007/BF00574353|10.1007/BF00575722|10.1007/BF00576107|10.1007/BF00579160|10.1007/BF00579445|10.1007/BF00579657|10.1007/BF00579981|10.1007/BF00579982|10.1007/BF00580088|10.1007/BF00595086|10.1007/BF00597817|10.1007/BF00598093|10.1007/BF00598180|10.1007/BF00598181|10.1007/BF00598370|10.1007/BF00598374|10.1007/BF00598596|10.1007/BF00598598|10.1007/BF00598600|10.1007/BF00598696|10.1007/BF00599013|10.1007/BF00605215|10.1007/BF00607554|10.1007/BF00629810|10.1007/BF00629811|10.1007/BF00630091|10.1007/BF00630448|10.1007/BF00631362|10.1007/BF00633294|10.1007/BF00636588|10.1007/BF00713340|10.1007/BF00713341|10.1007/BF02238224|10.1007/BF02249145|10.1007/BF02257318|10.1007/BF02323285|10.1007/BF02908196|10.1007/BF02977667|10.1007/BF02977709|10.1007/S10600-006-0022-9|10.1007/S10600-008-9064-5|10.1007/S10600-009-9247-8|10.1007/S10600-009-9287-0|10.1007/S10600-009-9291-4|10.1007/S10600-009-9362-6|10.1007/S10600-009-9402-2|10.1007/S10600-009-9410-2|10.1007/S10600-011-9800-0|10.1007/S10600-011-9844-1|10.1007/S10600-011-9896-2|10.1007/S10600-011-9908-2|10.1007/S10600-013-0618-9|10.1007/S12272-010-0806-0|10.1016/0021-9673(92)85026-P|10.1016/0031-9422(73)80397-8|10.1016/0031-9422(73)80417-0|10.1016/0031-9422(74)85049-1|10.1016/0031-9422(83)80110-1|10.1016/0031-9422(84)83046-0|10.1016/0031-9422(88)83050-4|10.1016/0031-9422(88)84114-1|10.1016/0031-9422(88)87045-6|10.1016/0031-9422(90)80181-F|10.1016/0031-9422(90)85309-4|10.1016/0031-9422(90)85389-W|10.1016/0031-9422(90)85455-O|10.1016/0031-9422(90)89063-F|10.1016/0031-9422(91)83058-S|10.1016/0031-9422(91)83059-T|10.1016/0031-9422(91)83197-S|10.1016/0031-9422(92)80355-I|10.1016/0031-9422(92)80358-L|10.1016/0031-9422(92)83503-Q|10.1016/0031-9422(93)00074-P|10.1016/0031-9422(93)85359-Y|10.1016/0031-9422(94)00591-G|10.1016/0031-9422(95)00167-6|10.1016/0031-9422(95)00383-I|10.1016/0031-9422(95)00573-0|10.1016/0031-9422(96)00248-8|10.1016/0166-3542(93)90095-Z|10.1016/0305-1978(75)90037-X|10.1016/0305-1978(86)90060-8|10.1016/0305-1978(87)90085-8|10.1016/0305-1978(91)90068-B|10.1016/0305-1978(91)90082-B|10.1016/0305-1978(91)90084-D|10.1016/0305-1978(92)90062-I|10.1016/0305-1978(94)90049-3|10.1016/0305-1978(94)90063-9|10.1016/0305-1978(95)00014-L|10.1016/0305-1978(95)97456-7|10.1016/B978-0-08-028853-6.50009-7|10.1016/B978-0-12-804678-4.00006-3|10.1016/J.BMCL.2015.04.045|10.1016/J.BMCL.2015.05.089|10.1016/J.BSE.2006.07.002|10.1016/J.BSE.2007.03.023|10.1016/J.BSE.2013.03.020|10.1016/J.EJMECH.2011.03.011|10.1016/J.FCT.2013.05.049|10.1016/J.FCT.2016.02.009|10.1016/J.FOODCHEM.2005.02.007|10.1016/J.FOODCHEM.2019.125629|10.1016/J.FOODCHEM.2020.128444|10.1016/J.PHRS.2006.04.007|10.1016/J.PHYTOCHEM.2004.06.009|10.1016/J.PHYTOCHEM.2006.03.016|10.1016/J.PHYTOCHEM.2007.05.016|10.1016/J.PHYTOCHEM.2007.06.017|10.1016/J.PHYTOCHEM.2008.03.025|10.1016/J.PHYTOCHEM.2009.04.008|10.1016/S0021-9673(01)01294-8|10.1016/S0021-9673(01)84521-0|10.1016/S0021-9673(01)88918-4|10.1016/S0031-9422(00)00108-4|10.1016/S0031-9422(00)80549-X|10.1016/S0031-9422(00)81510-1|10.1016/S0031-9422(00)81696-9|10.1016/S0031-9422(00)82480-2|10.1016/S0031-9422(00)83143-X|10.1016/S0031-9422(00)83207-0|10.1016/S0031-9422(00)83767-X|10.1016/S0031-9422(00)84740-8|10.1016/S0031-9422(00)84889-X|10.1016/S0031-9422(00)85360-1|10.1016/S0031-9422(00)85667-8|10.1016/S0031-9422(00)85974-9|10.1016/S0031-9422(00)86519-X|10.1016/S0031-9422(00)86815-6|10.1016/S0031-9422(00)88397-1|10.1016/S0031-9422(00)89581-3|10.1016/S0031-9422(00)89801-5|10.1016/S0031-9422(00)90144-4|10.1016/S0031-9422(00)90466-7|10.1016/S0031-9422(00)90815-X|10.1016/S0031-9422(00)94254-7|10.1016/S0031-9422(00)94317-6|10.1016/S0031-9422(00)94581-3|10.1016/S0031-9422(00)95162-8|10.1016/S0031-9422(00)97763-X|10.1016/S0031-9422(00)97941-X|10.1016/S0031-9422(01)00273-4|10.1016/S0031-9422(01)00415-0|10.1016/S0031-9422(02)00666-0|10.1016/S0031-9422(96)00745-5|10.1016/S0031-9422(97)00127-1|10.1016/S0031-9422(99)00110-7|10.1016/S0305-1978(96)00081-6|10.1016/S0305-1978(97)00049-5|10.1016/S0305-1978(97)00054-9|10.1016/S0305-1978(97)00069-0|10.1016/S0305-1978(97)00092-6|10.1016/S0305-1978(97)00122-1|10.1016/S0305-1978(98)00019-2|10.1016/S0305-1978(98)00040-4|10.1016/S0308-8146(00)00091-1|10.1016/S0308-8146(01)00114-5|10.1016/S0378-8741(97)00038-X|10.1016/S0378-8741(97)00048-2|10.1016/S0968-0896(00)00225-X|10.1016/S1875-5364(12)60009-0|10.1016/j.bmcl.2015.04.045|10.1016/j.bmcl.2015.05.089|10.1016/j.fct.2013.05.049|10.1016/j.foodchem.2020.128444|10.1016/j.jfca.2018.09.012|10.1016/s0031-9422(00)97881-6|10.1021/ACS.JNATPROD.6B00839|10.1021/JF00020A011|10.1021/JF000661F|10.1021/JF0115894|10.1021/JF020396T|10.1021/JF020661A|10.1021/JF030813H|10.1021/JF072428O|10.1021/JF950310E|10.1021/JF960339Y|10.1021/JF9801264|10.1021/JF9909757|10.1021/JF991002+|10.1021/JO01048A037|10.1021/NP020472M|10.1021/NP0301083|10.1021/NP040219H|10.1021/NP070564H|10.1021/NP3001464|10.1021/NP300204P|10.1021/NP50015A010|10.1021/NP50019A012|10.1021/NP50020A014|10.1021/NP50021A021|10.1021/NP50028A007|10.1021/NP50032A028|10.1021/NP50036A007|10.1021/NP50046A053|10.1021/NP50047A040|10.1021/NP50051A033|10.1021/NP50052A045|10.1021/NP50099A032|10.1021/NP50125A019|10.1021/acs.jnatprod.8b01054|10.1021/np020472m|10.1021/np300204p|10.1021/np50036a007|10.1023/B:CONC.0000025456.09089.84|10.1023/B:CONC.0000025478.84294.5B|10.1038/sj.ejcn.1602744|10.1039/C004817H|10.1039/C29690000057|10.1039/CT8966901295|10.1039/CT8966901299|10.1039/CT8987300267|10.1039/CT9130302006|10.1039/J39690000830|10.1046/J.1432-1033.2003.03729.X|10.1055/S-2006-957620|10.1055/S-2006-957954|10.1055/S-2006-959501|10.1055/S-2006-960912|10.1055/S-2007-971700|10.1055/s-0031-1296905|10.1071/CH9610135|10.1080/01811797.1985.10824657|10.1080/1028602021000049087|10.1080/10286020290019622|10.1080/10826079808001950|10.1080/14786419.2016.1226831|10.1081/JLC-100102074|10.1081/JLC-120014270|10.1093/CHROMSCI/BMY030|10.1093/pcp/pcn183|10.1097/01.FJC.0000232064.64837.67|10.1104/PP.108.117754|10.1111/J.1438-8677.1992.TB00302.X|10.1139/V86-081|10.1155/2014/673286|10.1211/0022357001774075|10.1211/0022357021779014|10.1246/BCSJ.3.53|10.1246/NIKKASHI.1987.1853|10.1248/BPB.23.1216|10.1248/CPB.37.1616|10.1248/CPB.37.1802|10.1248/CPB.37.2136|10.1248/CPB.39.3261|10.1248/CPB.47.887|10.1248/CPB.52.1483|10.1248/CPB.53.1111|10.1248/CPB.56.585|10.1248/CPB.60.129|10.1515/ZNC-1977-11-1224|10.1515/ZNC-1980-5-605|10.1515/ZNC-1983-1-226|10.1515/ZNC-1983-5-614|10.1515/ZNC-1983-7-826|10.1515/ZNC-1984-11-1233|10.1515/ZNC-1984-3-418|10.1515/ZNC-1985-5-608|10.1515/ZNC-1986-1-214|10.1515/ZNC-1986-11-1204|10.1515/ZNC-1988-5-603|10.1515/ZNC-1991-1-207|10.1515/ZNC-1995-11-1223|10.1515/ZNC-1997-5-604|10.1515/ZNC-1998-11-1202|10.1515/ZNC-2003-7-826|10.18535/IJETST/V2I8.18|10.21548/25-2-2143|10.21608/BFSA.1998.67958|10.21608/BFSA.1999.66080|10.21608/BFSA.1999.66096|10.2298/HEMIND0704272R|10.3389/FPHAR.2020.01246|10.3390/MOLECULES16098076|10.3390/MOLECULES21111576|10.3390/NU11020402

>  <synonyms>  (1599) 
nan

>  <cas>  (1599) 
480-19-3

$$$$

     RDKit          2D

 45 50  0  0  0  0  0  0  0  0999 V2000
   -7.4200   -3.9436    0.0000 C   0  0  0  0  0  0  0  0  0  0  0  0
   -7.9316   -2.5336    0.0000 C   0  0  0  0  0  0  0  0  0  0  0  0
   -9.2314   -3.2823    0.0000 C   0  0  0  0  0  0  0  0  0  0  0  0
   -8.8947   -1.3836    0.0000 C   0  0  0  0  0  0  0  0  0  0  0  0
   -8.3803    0.0255    0.0000 C   0  0  0  0  0  0  0  0  0  0  0  0
   -6.9028    0.2845    0.0000 C   0  0  0  0  0  0  0  0  0  0  0  0
   -7.8659    1.4345    0.0000 C   0  0  0  0  0  0  0  0  0  0  0  0
   -9.3434    1.1755    0.0000 O   0  0  0  0  0  0  0  0  0  0  0  0
   -7.3515    2.8435    0.0000 O   0  0  0  0  0  0  0  0  0  0  0  0
   -6.3884    1.6935    0.0000 C   0  0  0  0  0  0  0  0  0  0  0  0
   -4.9110    1.9526    0.0000 C   0  0  0  0  0  0  0  0  0  0  0  0
   -3.9479    0.8026    0.0000 C   0  0  0  0  0  0  0  0  0  0  0  0
   -2.9848   -0.3475    0.0000 C   0  0  0  0  0  0  0  0  0  0  0  0
   -4.4623   -0.6065    0.0000 C   0  0  0  0  0  0  0  0  0  0  0  0
   -3.4992   -1.7565    0.0000 C   0  0  0  0  0  0  0  0  0  0  0  0
   -2.0218   -1.4975    0.0000 C   0  0  0  0  0  0  0  0  0  0  0  0
   -1.5074   -0.0884    0.0000 C   0  0  0  0  0  0  0  0  0  0  0  0
   -0.0299    0.1706    0.0000 C   0  0  0  0  0  0  0  0  0  0  0  0
   -0.5443   -1.2384    0.0000 C   0  0  0  0  0  0  0  0  0  0  0  0
    0.9331   -0.9794    0.0000 C   0  0  0  0  0  0  0  0  0  0  0  0
    2.4106   -0.7204    0.0000 C   0  0  0  0  0  0  0  0  0  0  0  0
    3.3737   -1.8704    0.0000 O   0  0  0  0  0  0  0  0  0  0  0  0
    2.9250    0.6887    0.0000 C   0  0  0  0  0  0  0  0  0  0  0  0
    4.4025    0.9477    0.0000 O   0  0  0  0  0  0  0  0  0  0  0  0
    5.3655   -0.2023    0.0000 C   0  0  0  0  0  0  0  0  0  0  0  0
    4.8511   -1.6114    0.0000 O   0  0  0  0  0  0  0  0  0  0  0  0
    6.8430    0.0567    0.0000 C   0  0  0  0  0  0  0  0  0  0  0  0
    7.8061   -1.0933    0.0000 C   0  0  0  0  0  0  0  0  0  0  0  0
    9.2835   -0.8343    0.0000 C   0  0  0  0  0  0  0  0  0  0  0  0
   10.2466   -1.9843    0.0000 C   0  0  0  0  0  0  0  0  0  0  0  0
   11.7241   -1.7253    0.0000 C   0  0  0  0  0  0  0  0  0  0  0  0
   12.2385   -0.3162    0.0000 C   0  0  0  0  0  0  0  0  0  0  0  0
   13.7159   -0.0572    0.0000 O   0  0  0  0  0  0  0  0  0  0  0  0
   11.2754    0.8338    0.0000 C   0  0  0  0  0  0  0  0  0  0  0  0
    9.7979    0.5748    0.0000 C   0  0  0  0  0  0  0  0  0  0  0  0
    1.9620    1.8387    0.0000 C   0  0  0  0  0  0  0  0  0  0  0  0
    1.4503    3.2487    0.0000 C   0  0  0  0  0  0  0  0  0  0  0  0
    3.2617    2.5874    0.0000 C   0  0  0  0  0  0  0  0  0  0  0  0
    0.4845    1.5796    0.0000 C   0  0  0  0  0  0  0  0  0  0  0  0
   -0.4786    2.7296    0.0000 C   0  0  0  0  0  0  0  0  0  0  0  0
   -1.9560    2.4706    0.0000 C   0  0  0  0  0  0  0  0  0  0  0  0
   -2.4704    1.0616    0.0000 C   0  0  0  0  0  0  0  0  0  0  0  0
   -3.4335    2.2116    0.0000 C   0  0  0  0  0  0  0  0  0  0  0  0
   -5.9398   -0.8655    0.0000 C   0  0  0  0  0  0  0  0  0  0  0  0
   -6.4542   -2.2745    0.0000 C   0  0  0  0  0  0  0  0  0  0  0  0
  1  2  1  0
  2  3  1  0
  2  4  1  0
  4  5  1  0
  5  6  1  0
  6  7  1  1
  7  8  2  0
  7  9  1  0
  6 10  1  0
 10 11  1  0
 11 12  1  0
 12 13  1  6
 12 14  1  0
 14 15  2  0
 15 16  1  0
 16 17  1  0
 17 18  1  0
 18 19  1  1
 18 20  1  0
 20 21  1  0
 21 22  1  1
 21 23  1  0
 23 24  1  6
 24 25  1  0
 25 26  2  0
 25 27  1  0
 27 28  2  0
 28 29  1  0
 29 30  2  0
 30 31  1  0
 31 32  2  0
 32 33  1  0
 32 34  1  0
 34 35  2  0
 23 36  1  0
 36 37  1  0
 36 38  1  0
 36 39  1  0
 39 40  1  0
 40 41  1  0
 41 42  1  0
 42 43  1  1
 14 44  1  0
 44 45  1  0
 45  2  1  0
 44  6  1  0
 42 12  1  0
 42 17  1  0
 39 18  1  0
 35 29  1  0
M  END
>  <identifier>  (1600) 
CNP0231176.5

>  <canonical_smiles>  (1600) 
CC1(C)CC[C@]2(C(=O)O)CC[C@]3(C)C(=CCC4[C@@]5(C)C[C@H](O)[C@@H](OC(=O)/C=C/C6=CC=C(O)C=C6)C(C)(C)C5CC[C@]43C)C2C1

>  <standard_inchi>  (1600) 
InChI=1S/C39H54O6/c1-34(2)18-20-39(33(43)44)21-19-37(6)26(27(39)22-34)13-14-30-36(5)23-28(41)32(35(3,4)29(36)16-17-38(30,37)7)45-31(42)15-10-24-8-11-25(40)12-9-24/h8-13,15,27-30,32,40-41H,14,16-23H2,1-7H3,(H,43,44)/b15-10+/t27?,28-,29?,30?,32+,36-,37+,38+,39-/m0/s1

>  <standard_inchi_key>  (1600) 
KWLOAKAXMOYBRK-QBXFDJIYSA-N

>  <name>  (1600) 
nan

>  <iupac_name>  (1600) 
(4~{a}~{S},6~{a}~{S},6~{b}~{R},10~{S},11~{S},12~{a}~{R})-11-hydroxy-10-[(~{E})-3-(4-hydroxyphenyl)prop-2-enoyl]oxy-2,2,6~{a},6~{b},9,9,12~{a}-heptamethyl-1,3,4,5,6,6~{a},7,8,8~{a},10,11,12,13,14~{b}-tetradecahydropicene-4~{a}-carboxylic acid

>  <annotation_level>  (1600) 
4

>  <total_atom_count>  (1600) 
99

>  <heavy_atom_count>  (1600) 
45

>  <molecular_weight>  (1600) 
618.85

>  <exact_molecular_weight>  (1600) 
618.39204

>  <molecular_formula>  (1600) 
C39H54O6

>  <alogp>  (1600) 
8.17

>  <topological_polar_surface_area>  (1600) 
104.06

>  <rotatable_bond_count>  (1600) 
4

>  <hydrogen_bond_acceptors>  (1600) 
5

>  <hydrogen_bond_donors>  (1600) 
3

>  <hydrogen_bond_acceptors_lipinski>  (1600) 
5

>  <hydrogen_bond_donors_lipinski>  (1600) 
3

>  <lipinski_rule_of_five_violations>  (1600) 
2

>  <aromatic_rings_count>  (1600) 
1

>  <qed_drug_likeliness>  (1600) 
0.18

>  <formal_charge>  (1600) 
0

>  <fractioncsp3>  (1600) 
0.69

>  <number_of_minimal_rings>  (1600) 
6

>  <van_der_walls_volume>  (1600) 
nan

>  <contains_sugar>  (1600) 
False

>  <contains_ring_sugars>  (1600) 
False

>  <contains_linear_sugars>  (1600) 
False

>  <murcko_framework>  (1600) 
O(CC=Cc1ccccc1)C2CCC3C(CCC4C5C(=CCC43)C6CCCCC6CC5)C2

>  <np_likeness>  (1600) 
2.86

>  <chemical_class>  (1600) 
Prenol lipids

>  <chemical_sub_class>  (1600) 
Triterpenoids

>  <chemical_super_class>  (1600) 
Lipids and lipid-like molecules

>  <direct_parent_classification>  (1600) 
Oleanane triterpenoids

>  <np_classifier_pathway>  (1600) 
Terpenoids

>  <np_classifier_superclass>  (1600) 
Triterpenoids

>  <np_classifier_class>  (1600) 
Oleanane triterpenoids

>  <np_classifier_is_glycoside>  (1600) 
False

>  <organisms>  (1600) 
Styrax camporum

>  <collections>  (1600) 
Latin America dataset|NuBBEDB|WikiData Natural Products

>  <dois>  (1600) 
10.1590/S0100-40422002000300002

>  <synonyms>  (1600) 
3\u221a\u00e9\u00ac\u2264-O-trans-p-coumaroylmaslinic acid

>  <cas>  (1600) 
nan

$$$$

     RDKit          2D

 23 25  0  0  0  0  0  0  0  0999 V2000
   -6.9999    1.4915    0.0000 C   0  0  0  0  0  0  0  0  0  0  0  0
   -6.3283    0.1502    0.0000 O   0  0  0  0  0  0  0  0  0  0  0  0
   -4.8310    0.0611    0.0000 C   0  0  0  0  0  0  0  0  0  0  0  0
   -4.0052    1.3133    0.0000 C   0  0  0  0  0  0  0  0  0  0  0  0
   -2.5078    1.2242    0.0000 C   0  0  0  0  0  0  0  0  0  0  0  0
   -1.8363   -0.1171    0.0000 C   0  0  0  0  0  0  0  0  0  0  0  0
   -0.3389   -0.2062    0.0000 C   0  0  0  0  0  0  0  0  0  0  0  0
    0.3326   -1.5474    0.0000 C   0  0  0  0  0  0  0  0  0  0  0  0
    1.8299   -1.6365    0.0000 O   0  0  0  0  0  0  0  0  0  0  0  0
    2.6558   -0.3843    0.0000 C   0  0  0  0  0  0  0  0  0  0  0  0
    4.1531   -0.4734    0.0000 C   0  0  0  0  0  0  0  0  0  0  0  0
    4.8247   -1.8147    0.0000 O   0  0  0  0  0  0  0  0  0  0  0  0
    3.9988   -3.0669    0.0000 C   0  0  0  0  0  0  0  0  0  0  0  0
    4.9790    0.7788    0.0000 C   0  0  0  0  0  0  0  0  0  0  0  0
    6.4763    0.6897    0.0000 O   0  0  0  0  0  0  0  0  0  0  0  0
    4.3074    2.1201    0.0000 C   0  0  0  0  0  0  0  0  0  0  0  0
    2.8101    2.2092    0.0000 C   0  0  0  0  0  0  0  0  0  0  0  0
    1.9842    0.9570    0.0000 C   0  0  0  0  0  0  0  0  0  0  0  0
    0.4869    1.0460    0.0000 C   0  0  0  0  0  0  0  0  0  0  0  0
   -0.1846    2.3873    0.0000 O   0  0  0  0  0  0  0  0  0  0  0  0
   -2.6621   -1.3693    0.0000 C   0  0  0  0  0  0  0  0  0  0  0  0
   -4.1595   -1.2802    0.0000 C   0  0  0  0  0  0  0  0  0  0  0  0
   -4.9853   -2.5324    0.0000 O   0  0  0  0  0  0  0  0  0  0  0  0
  1  2  1  0
  2  3  1  0
  3  4  2  0
  4  5  1  0
  5  6  2  0
  6  7  1  0
  7  8  2  0
  8  9  1  0
  9 10  1  0
 10 11  2  0
 11 12  1  0
 12 13  1  0
 11 14  1  0
 14 15  1  0
 14 16  2  0
 16 17  1  0
 17 18  2  0
 18 19  1  0
 19 20  2  0
  6 21  1  0
 21 22  2  0
 22 23  1  0
 22  3  1  0
 19  7  1  0
 18 10  1  0
M  END
>  <identifier>  (1601) 
CNP0268886.0

>  <canonical_smiles>  (1601) 
COC1=CC=C(C2=COC3=C(OC)C(O)=CC=C3C2=O)C=C1O

>  <standard_inchi>  (1601) 
InChI=1S/C17H14O6/c1-21-14-6-3-9(7-13(14)19)11-8-23-16-10(15(11)20)4-5-12(18)17(16)22-2/h3-8,18-19H,1-2H3

>  <standard_inchi_key>  (1601) 
YYWSNCLFZSMGCM-UHFFFAOYSA-N

>  <name>  (1601) 
3'-Hydroxy-8-O-methylretusin

>  <iupac_name>  (1601) 
7-hydroxy-3-(3-hydroxy-4-methoxy-phenyl)-8-methoxy-chromen-4-one

>  <annotation_level>  (1601) 
5

>  <total_atom_count>  (1601) 
37

>  <heavy_atom_count>  (1601) 
23

>  <molecular_weight>  (1601) 
314.29

>  <exact_molecular_weight>  (1601) 
314.07904

>  <molecular_formula>  (1601) 
C17H14O6

>  <alogp>  (1601) 
2.89

>  <topological_polar_surface_area>  (1601) 
89.13

>  <rotatable_bond_count>  (1601) 
3

>  <hydrogen_bond_acceptors>  (1601) 
6

>  <hydrogen_bond_donors>  (1601) 
2

>  <hydrogen_bond_acceptors_lipinski>  (1601) 
6

>  <hydrogen_bond_donors_lipinski>  (1601) 
2

>  <lipinski_rule_of_five_violations>  (1601) 
0

>  <aromatic_rings_count>  (1601) 
3

>  <qed_drug_likeliness>  (1601) 
0.77

>  <formal_charge>  (1601) 
0

>  <fractioncsp3>  (1601) 
0.12

>  <number_of_minimal_rings>  (1601) 
3

>  <van_der_walls_volume>  (1601) 
265.90

>  <contains_sugar>  (1601) 
False

>  <contains_ring_sugars>  (1601) 
False

>  <contains_linear_sugars>  (1601) 
False

>  <murcko_framework>  (1601) 
O1C=C(c2ccccc2)Cc3ccccc13

>  <np_likeness>  (1601) 
1.19

>  <chemical_class>  (1601) 
Isoflavonoids

>  <chemical_sub_class>  (1601) 
O-methylated isoflavonoids

>  <chemical_super_class>  (1601) 
Phenylpropanoids and polyketides

>  <direct_parent_classification>  (1601) 
3'-hydroxy,4'-methoxyisoflavonoids

>  <np_classifier_pathway>  (1601) 
Shikimates and Phenylpropanoids

>  <np_classifier_superclass>  (1601) 
Isoflavonoids

>  <np_classifier_class>  (1601) 
Isoflavones

>  <np_classifier_is_glycoside>  (1601) 
False

>  <organisms>  (1601) 
Dipteryx alata|Dipteryx odorata|Monopterix uaucu|Monopteryx uaucu|Myroxylon balsamum|Xanthocercis zambesiaca

>  <collections>  (1601) 
CMAUP (cCollective molecular activities of useful plants)|FooDB|Latin America dataset|NPASS|NPEdia|NuBBEDB|Super Natural II|UNPD (Universal Natural Products Database)|WikiData Natural Products

>  <dois>  (1601) 
10.1016/0031-9422(81)85097-2|10.1016/0031-9422(88)80154-7|10.1016/S0031-9422(00)89391-7|10.1021/NP020522N|10.3390/MOLECULES15118193

>  <synonyms>  (1601) 
3',7-Dihydroxy-4',8-dimethoxyisoflavone|3'-Hydroxy-8-O-methylretusin|4H-1-Benzopyran-4-one, 7-hydroxy-3-(3-hydroxy-4-methoxyphenyl)-8-methoxy-|53947-99-2|7,3'-dihydroxy-8,4'-dimethoxyisoflavone|7,3a(2)-Dihydroxy-8,4a(2)-dimethoxyisoflavone|7-hydroxy-3-(3-hydroxy-4-methoxyphenyl)-8-methoxychromen-4-one|CHEBI:175021|CHEMBL465572|DTXSID401277850|LMPK12050140

>  <cas>  (1601) 
53947-99-2

$$$$

     RDKit          2D

 29 31  0  0  0  0  0  0  0  0999 V2000
   -3.5052    3.7835    0.0000 C   0  0  0  0  0  0  0  0  0  0  0  0
   -4.4515    2.6197    0.0000 O   0  0  0  0  0  0  0  0  0  0  0  0
   -3.9168    1.2182    0.0000 C   0  0  0  0  0  0  0  0  0  0  0  0
   -2.4358    0.9806    0.0000 C   0  0  0  0  0  0  0  0  0  0  0  0
   -1.9010   -0.4209    0.0000 C   0  0  0  0  0  0  0  0  0  0  0  0
   -0.4200   -0.6585    0.0000 C   0  0  0  0  0  0  0  0  0  0  0  0
    0.1148   -2.0599    0.0000 C   0  0  0  0  0  0  0  0  0  0  0  0
    1.5958   -2.2976    0.0000 C   0  0  0  0  0  0  0  0  0  0  0  0
    2.1305   -3.6990    0.0000 O   0  0  0  0  0  0  0  0  0  0  0  0
    2.5421   -1.1338    0.0000 C   0  0  0  0  0  0  0  0  0  0  0  0
    4.0232   -1.3714    0.0000 C   0  0  0  0  0  0  0  0  0  0  0  0
    4.5579   -2.7729    0.0000 O   0  0  0  0  0  0  0  0  0  0  0  0
    6.0390   -3.0105    0.0000 C   0  0  0  0  0  0  0  0  0  0  0  0
    4.9695   -0.2076    0.0000 C   0  0  0  0  0  0  0  0  0  0  0  0
    4.4348    1.1939    0.0000 C   0  0  0  0  0  0  0  0  0  0  0  0
    5.3811    2.3577    0.0000 O   0  0  0  0  0  0  0  0  0  0  0  0
    6.8622    2.1200    0.0000 C   0  0  0  0  0  0  0  0  0  0  0  0
    2.9537    1.4315    0.0000 C   0  0  0  0  0  0  0  0  0  0  0  0
    2.4190    2.8329    0.0000 O   0  0  0  0  0  0  0  0  0  0  0  0
    3.3653    3.9968    0.0000 C   0  0  0  0  0  0  0  0  0  0  0  0
    2.0074    0.2677    0.0000 C   0  0  0  0  0  0  0  0  0  0  0  0
    0.5264    0.5053    0.0000 O   0  0  0  0  0  0  0  0  0  0  0  0
   -2.8474   -1.5847    0.0000 C   0  0  0  0  0  0  0  0  0  0  0  0
   -4.3284   -1.3470    0.0000 C   0  0  0  0  0  0  0  0  0  0  0  0
   -5.2747   -2.5108    0.0000 O   0  0  0  0  0  0  0  0  0  0  0  0
   -6.7558   -2.2732    0.0000 C   0  0  0  0  0  0  0  0  0  0  0  0
   -4.8631    0.0544    0.0000 C   0  0  0  0  0  0  0  0  0  0  0  0
   -6.3442    0.2921    0.0000 O   0  0  0  0  0  0  0  0  0  0  0  0
   -6.8789    1.6935    0.0000 C   0  0  0  0  0  0  0  0  0  0  0  0
  1  2  1  0
  2  3  1  0
  3  4  2  0
  4  5  1  0
  5  6  1  0
  6  7  2  0
  7  8  1  0
  8  9  2  0
  8 10  1  0
 10 11  2  0
 11 12  1  0
 12 13  1  0
 11 14  1  0
 14 15  2  0
 15 16  1  0
 16 17  1  0
 15 18  1  0
 18 19  1  0
 19 20  1  0
 18 21  2  0
 21 22  1  0
  5 23  2  0
 23 24  1  0
 24 25  1  0
 25 26  1  0
 24 27  2  0
 27 28  1  0
 28 29  1  0
 27  3  1  0
 22  6  1  0
 21 10  1  0
M  END
>  <identifier>  (1602) 
CNP0323105.0

>  <canonical_smiles>  (1602) 
COC1=CC(C2=CC(=O)C3=C(OC)C=C(OC)C(OC)=C3O2)=CC(OC)=C1OC

>  <standard_inchi>  (1602) 
InChI=1S/C21H22O8/c1-23-14-10-17(26-4)20(28-6)21-18(14)12(22)9-13(29-21)11-7-15(24-2)19(27-5)16(8-11)25-3/h7-10H,1-6H3

>  <standard_inchi_key>  (1602) 
QLVJRZMVFHRFAV-UHFFFAOYSA-N

>  <name>  (1602) 
Bannamurpanisin

>  <iupac_name>  (1602) 
5,7,8-trimethoxy-2-(3,4,5-trimethoxyphenyl)chromen-4-one

>  <annotation_level>  (1602) 
5

>  <total_atom_count>  (1602) 
51

>  <heavy_atom_count>  (1602) 
29

>  <molecular_weight>  (1602) 
402.4

>  <exact_molecular_weight>  (1602) 
402.13147

>  <molecular_formula>  (1602) 
C21H22O8

>  <alogp>  (1602) 
3.51

>  <topological_polar_surface_area>  (1602) 
85.59

>  <rotatable_bond_count>  (1602) 
7

>  <hydrogen_bond_acceptors>  (1602) 
8

>  <hydrogen_bond_donors>  (1602) 
0

>  <hydrogen_bond_acceptors_lipinski>  (1602) 
8

>  <hydrogen_bond_donors_lipinski>  (1602) 
0

>  <lipinski_rule_of_five_violations>  (1602) 
0

>  <aromatic_rings_count>  (1602) 
3

>  <qed_drug_likeliness>  (1602) 
0.59

>  <formal_charge>  (1602) 
0

>  <fractioncsp3>  (1602) 
0.29

>  <number_of_minimal_rings>  (1602) 
3

>  <van_der_walls_volume>  (1602) 
350.58

>  <contains_sugar>  (1602) 
False

>  <contains_ring_sugars>  (1602) 
False

>  <contains_linear_sugars>  (1602) 
False

>  <murcko_framework>  (1602) 
O1c2ccccc2CC=C1c3ccccc3

>  <np_likeness>  (1602) 
0.82

>  <chemical_class>  (1602) 
Flavonoids

>  <chemical_sub_class>  (1602) 
O-methylated flavonoids

>  <chemical_super_class>  (1602) 
Phenylpropanoids and polyketides

>  <direct_parent_classification>  (1602) 
5-O-methylated flavonoids

>  <np_classifier_pathway>  (1602) 
Shikimates and Phenylpropanoids

>  <np_classifier_superclass>  (1602) 
Flavonoids

>  <np_classifier_class>  (1602) 
Flavones

>  <np_classifier_is_glycoside>  (1602) 
False

>  <organisms>  (1602) 
Aniba burchellii|Murraya paniculata|Neoraputia alba

>  <collections>  (1602) 
Australian natural products|CMAUP (cCollective molecular activities of useful plants)|KNApSaCK|Latin America dataset|NPASS|NPEdia|NuBBEDB|Super Natural II|TCMDB-Taiwan (Traditional Chinese Medicine database)|TCMID (Traditional Chinese Medicine Integrated Database)|TIPdb (database of Taiwan indigenous plants)|UNPD (Universal Natural Products Database)|WikiData Natural Products|ZINC NP

>  <dois>  (1602) 
10.1016/S0031-9422(96)00853-9|10.1016/S0031-9422(97)00598-0|10.1016/s0031-9422(96)00853-9|10.1016/s0031-9422(97)00598-0|10.1039/c2ay25242b|10.1211/JPP.61.02.0017|10.1248/CPB.37.119|10.1248/CPB.37.358|10.1248/cpb.37.119|10.1248/cpb.37.358|10.1590/1809-43921982122377

>  <synonyms>  (1602) 
3',4',5',5,7,8-Hexamethoxyflavone|3'4'5'578-hexamethoxyflavone|5,7,8,3 inverted exclamation marka,4 inverted exclamation marka,5 inverted exclamation marka-Hexamethoxyflavone|5,7,8,3',4',5'-hexamethoxyflavone|5,7,8-Trimethoxy-2-(3,4,5-trimethoxyphenyl)-4H-chromen-4-one #|80324-51-2|AKOS040736726|Bannamurpanisin|Compound NP-025444|LMPK12111416|QLVJRZMVFHRFAV-UHFFFAOYSA-N|SCHEMBL16894618

>  <cas>  (1602) 
80324-51-2

$$$$

     RDKit          2D

 27 29  0  0  0  0  0  0  0  0999 V2000
   -7.0366    2.6437    0.0000 C   0  0  0  0  0  0  0  0  0  0  0  0
   -6.6318    1.1993    0.0000 O   0  0  0  0  0  0  0  0  0  0  0  0
   -5.1786    0.8277    0.0000 C   0  0  0  0  0  0  0  0  0  0  0  0
   -4.1302    1.9004    0.0000 C   0  0  0  0  0  0  0  0  0  0  0  0
   -2.6769    1.5288    0.0000 C   0  0  0  0  0  0  0  0  0  0  0  0
   -2.2721    0.0844    0.0000 C   0  0  0  0  0  0  0  0  0  0  0  0
   -0.8189   -0.2872    0.0000 C   0  0  0  0  0  0  0  0  0  0  0  0
   -0.4141   -1.7315    0.0000 C   0  0  0  0  0  0  0  0  0  0  0  0
    1.0391   -2.1032    0.0000 C   0  0  0  0  0  0  0  0  0  0  0  0
    1.4439   -3.5475    0.0000 O   0  0  0  0  0  0  0  0  0  0  0  0
    2.0876   -1.0305    0.0000 C   0  0  0  0  0  0  0  0  0  0  0  0
    3.5408   -1.4021    0.0000 C   0  0  0  0  0  0  0  0  0  0  0  0
    3.9456   -2.8464    0.0000 O   0  0  0  0  0  0  0  0  0  0  0  0
    5.3988   -3.2181    0.0000 C   0  0  0  0  0  0  0  0  0  0  0  0
    4.5893   -0.3294    0.0000 C   0  0  0  0  0  0  0  0  0  0  0  0
    4.1845    1.1150    0.0000 C   0  0  0  0  0  0  0  0  0  0  0  0
    5.2329    2.1877    0.0000 O   0  0  0  0  0  0  0  0  0  0  0  0
    6.6862    1.8161    0.0000 C   0  0  0  0  0  0  0  0  0  0  0  0
    2.7312    1.4866    0.0000 C   0  0  0  0  0  0  0  0  0  0  0  0
    2.3265    2.9310    0.0000 O   0  0  0  0  0  0  0  0  0  0  0  0
    3.3749    4.0037    0.0000 C   0  0  0  0  0  0  0  0  0  0  0  0
    1.6828    0.4139    0.0000 C   0  0  0  0  0  0  0  0  0  0  0  0
    0.2296    0.7855    0.0000 O   0  0  0  0  0  0  0  0  0  0  0  0
   -3.3206   -0.9883    0.0000 C   0  0  0  0  0  0  0  0  0  0  0  0
   -4.7738   -0.6167    0.0000 C   0  0  0  0  0  0  0  0  0  0  0  0
   -5.8223   -1.6894    0.0000 O   0  0  0  0  0  0  0  0  0  0  0  0
   -5.4175   -3.1337    0.0000 C   0  0  0  0  0  0  0  0  0  0  0  0
  1  2  1  0
  2  3  1  0
  3  4  2  0
  4  5  1  0
  5  6  2  0
  6  7  1  0
  7  8  2  0
  8  9  1  0
  9 10  2  0
  9 11  1  0
 11 12  2  0
 12 13  1  0
 13 14  1  0
 12 15  1  0
 15 16  2  0
 16 17  1  0
 17 18  1  0
 16 19  1  0
 19 20  1  0
 20 21  1  0
 19 22  2  0
 22 23  1  0
  6 24  1  0
 24 25  2  0
 25 26  1  0
 26 27  1  0
 25  3  1  0
 23  7  1  0
 22 11  1  0
M  END
>  <identifier>  (1603) 
CNP0103410.0

>  <canonical_smiles>  (1603) 
COC1=CC=C(C2=CC(=O)C3=C(OC)C=C(OC)C(OC)=C3O2)C=C1OC

>  <standard_inchi>  (1603) 
InChI=1S/C20H20O7/c1-22-13-7-6-11(8-15(13)23-2)14-9-12(21)18-16(24-3)10-17(25-4)19(26-5)20(18)27-14/h6-10H,1-5H3

>  <standard_inchi_key>  (1603) 
UYCWETIUOAGWIL-UHFFFAOYSA-N

>  <name>  (1603) 
Isosinensetin

>  <iupac_name>  (1603) 
2-(3,4-dimethoxyphenyl)-5,7,8-trimethoxy-chromen-4-one

>  <annotation_level>  (1603) 
5

>  <total_atom_count>  (1603) 
47

>  <heavy_atom_count>  (1603) 
27

>  <molecular_weight>  (1603) 
372.37

>  <exact_molecular_weight>  (1603) 
372.1209

>  <molecular_formula>  (1603) 
C20H20O7

>  <alogp>  (1603) 
3.50

>  <topological_polar_surface_area>  (1603) 
76.36

>  <rotatable_bond_count>  (1603) 
6

>  <hydrogen_bond_acceptors>  (1603) 
7

>  <hydrogen_bond_donors>  (1603) 
0

>  <hydrogen_bond_acceptors_lipinski>  (1603) 
7

>  <hydrogen_bond_donors_lipinski>  (1603) 
0

>  <lipinski_rule_of_five_violations>  (1603) 
0

>  <aromatic_rings_count>  (1603) 
3

>  <qed_drug_likeliness>  (1603) 
0.66

>  <formal_charge>  (1603) 
0

>  <fractioncsp3>  (1603) 
0.25

>  <number_of_minimal_rings>  (1603) 
3

>  <van_der_walls_volume>  (1603) 
324.95

>  <contains_sugar>  (1603) 
False

>  <contains_ring_sugars>  (1603) 
False

>  <contains_linear_sugars>  (1603) 
False

>  <murcko_framework>  (1603) 
O1c2ccccc2CC=C1c3ccccc3

>  <np_likeness>  (1603) 
0.78

>  <chemical_class>  (1603) 
Flavonoids

>  <chemical_sub_class>  (1603) 
O-methylated flavonoids

>  <chemical_super_class>  (1603) 
Phenylpropanoids and polyketides

>  <direct_parent_classification>  (1603) 
5-O-methylated flavonoids

>  <np_classifier_pathway>  (1603) 
Shikimates and Phenylpropanoids

>  <np_classifier_superclass>  (1603) 
Flavonoids

>  <np_classifier_class>  (1603) 
Flavones

>  <np_classifier_is_glycoside>  (1603) 
False

>  <organisms>  (1603) 
Aceriphyllum rossii|Acorus calamus|Agnorhiza bolanderi|Alligator mississippiensis|Anaxagorea clavata|Araujia sericifera|Aria pallescens|Arnica nevadensis|Artemisia monogyna|Bassia butyracea|Beyeria brevifolia|Bursaria spinosa|Cherry Orange|Chloranthus tianmushanensis|Chromolaena odorata|Chromolaena pulchella|Citrus Aurantifolia|Citrus Aurantium|Citrus Grandis|Citrus Paradisi|Citrus Reticulata|Citrus Sinensis|Citrus aurantifolia|Citrus aurantiifolia|Citrus aurantium|Citrus aurea|Citrus depressa|Citrus erythrosa|Citrus flavicarpa|Citrus grandis|Citrus grandis var. tomentosa|Citrus grandis var.tomentosa|Citrus hanaju|Citrus hassaku|Citrus japonica|Citrus japonica var. margarita|Citrus keraji|Citrus leiocarpa|Citrus madurensis|Citrus medica|Citrus myrtifolia|Citrus natsudaidai|Citrus nippokoreana|Citrus oto|Citrus paradisi|Citrus reticulata|Citrus reticulate|Citrus shunkokan|Citrus sinensis|Citrus spp.|Citrus tachibana|Citrus tankan|Citrus trifoliata|Citrus ujukitsu|Citrus unshiu|Citrus × deliciosa|Citrus ×iyo|Cladonia evansii|Clonostachys rosea|Coccus fagi|Dendrosenecio kilimanjari|Dipterocarpus alatus|Drosera peltata|Echinops amplexicaulis|Epaltes gariepina|Ficus Altissima|Ficus altissima|Ficus formosana|Fortunella Japonica|Fortunella japonica|Fortunella margarita|Fusarium gibbosum|Gardenia fosbergii|Ilex affinis|Isodon kameba|Kaempferia pulchra|Kumquat|Lactarius scrobiculatus|Mandarina satsuma|Muntingia calabura|Nelumbo Nucifera|Nelumbo nucifera|Neoraputia alba|Odixia angusta|Pheidole pallidula|Prosopis glandulosa|Prunus laurocerasus|Pseudopterogorgia kallos|Pteris prolifera|Pterocarpus grandiflorus|Pyrosoma giganteum|Quercus aegilops|Rhizobium phaseoli|Salvia officinalis|Securidaca inappendiculata|Senecio squalidus|Seriphidium cinum|Sesbania punicea|Sideritis incana|Simira eliezeriana|Stenostomum lucidum|Streptomyces althioticus|Taxodium mucronatum|Trifoliate orange|Vitex madiensis|pomelo

>  <collections>  (1603) 
AnalytiCon Discovery NPs|CMAUP (cCollective molecular activities of useful plants)|ETM (Ethiopian Traditional Medicine) DB|FooDB|KNApSaCK|Latin America dataset|NPASS|NPEdia|NuBBEDB|Phyto4Health|Super Natural II|TCMDB-Taiwan (Traditional Chinese Medicine database)|TCMID (Traditional Chinese Medicine Integrated Database)|TIPdb (database of Taiwan indigenous plants)|UNPD (Universal Natural Products Database)|VietHerb|WikiData Natural Products

>  <dois>  (1603) 
10.1007/BF02975340|10.1016/0031-9422(75)85074-6|10.1016/J.BMC.2008.11.039|10.1016/J.FOODCHEM.2009.06.059|10.1016/S0305-1978(99)00065-4|10.1021/JF960110I|10.1021/NP50073A019|10.1055/S-2007-969310|10.1248/CPB.28.717|10.1248/CPB.37.1092|10.1248/CPB.39.945|10.1248/CPB.41.714|10.1248/CPB.49.1356|10.1590/S0103-50532003000300007|10.5935/0103-5053.19930018

>  <synonyms>  (1603) 
17290-70-9|2-(3,4-DimethoIsosinensetinxyphenyl)-5,7,8-trimethoxy-4H-chromen-4-one|2-(3,4-Dimethoxyphenyl)-5,7,8-trimethoxy-4H-1-benzopyran-4-one|2-(3,4-Dimethoxyphenyl)-5,7,8-trimethoxy-4H-chromen-4-one|3',4',5,7,8-Pentamethoxyflavone|3'4'578-pentamethoxyflavone|4H-1-Benzopyran-4-one, 2-(3,4-dimethoxyphenyl)-5,7,8-trimethoxy-|5,7,8,3',4'-pentamethoxyflavone|6-Demethoxynobiletin|63Z99S38LE|A881826|AC-34952|AKOS016012041|AS-57493|CHEBI:175779|CHEMBL451707|CS-0018252|DTXCID60299271|DTXSID80348199|Flavone, 3',4',5,7,8-pentamethoxy-|HY-N1941|Isosinensetin|Isosinensetin pound>>3 inverted exclamation mark ,4 inverted exclamation mark  ,5,7,8-pentamethoxyflavone|Isosinensetin3',4' ,5,7,8-pentamethoxyflavone|LMPK12111403|Q27263667|SCHEMBL987761|UNII-63Z99S38LE|UYCWETIUOAGWIL-UHFFFAOYSA-N|XI161836

>  <cas>  (1603) 
17290-70-9

$$$$

     RDKit          2D

 19 21  0  0  0  0  0  0  0  0999 V2000
   -4.9357   -1.8671    0.0000 C   0  0  0  0  0  0  0  0  0  0  0  0
   -3.6952   -1.0238    0.0000 C   0  0  0  0  0  0  0  0  0  0  0  0
   -3.8053    0.4721    0.0000 C   0  0  0  0  0  0  0  0  0  0  0  0
   -2.5647    1.3154    0.0000 C   0  0  0  0  0  0  0  0  0  0  0  0
   -2.6748    2.8114    0.0000 O   0  0  0  0  0  0  0  0  0  0  0  0
   -1.2142    0.6627    0.0000 C   0  0  0  0  0  0  0  0  0  0  0  0
   -1.1042   -0.8332    0.0000 C   0  0  0  0  0  0  0  0  0  0  0  0
   -2.3447   -1.6765    0.0000 C   0  0  0  0  0  0  0  0  0  0  0  0
    0.2464   -1.4859    0.0000 C   0  0  0  0  0  0  0  0  0  0  0  0
    0.3564   -2.9819    0.0000 O   0  0  0  0  0  0  0  0  0  0  0  0
    1.4869   -0.6427    0.0000 C   0  0  0  0  0  0  0  0  0  0  0  0
    2.8375   -1.2953    0.0000 C   0  0  0  0  0  0  0  0  0  0  0  0
    4.0780   -0.4521    0.0000 C   0  0  0  0  0  0  0  0  0  0  0  0
    5.4286   -1.1048    0.0000 O   0  0  0  0  0  0  0  0  0  0  0  0
    3.9680    1.0439    0.0000 C   0  0  0  0  0  0  0  0  0  0  0  0
    2.6174    1.6966    0.0000 C   0  0  0  0  0  0  0  0  0  0  0  0
    1.3769    0.8533    0.0000 C   0  0  0  0  0  0  0  0  0  0  0  0
    0.0263    1.5060    0.0000 C   0  0  0  0  0  0  0  0  0  0  0  0
   -0.0837    3.0019    0.0000 O   0  0  0  0  0  0  0  0  0  0  0  0
  1  2  1  0
  2  3  2  0
  3  4  1  0
  4  5  1  0
  4  6  2  0
  6  7  1  0
  7  8  2  0
  7  9  1  0
  9 10  2  0
  9 11  1  0
 11 12  1  1
 12 13  1  0
 13 14  1  1
 13 15  1  0
 15 16  1  0
 17 16  1  6
 17 18  1  0
 18 19  1  1
  8  2  1  0
 17 11  1  0
 18  6  1  0
M  END
>  <identifier>  (1604) 
CNP0328776.1

>  <canonical_smiles>  (1604) 
CC1=CC(O)=C2C(=C1)C(=O)[C@@H]1C[C@H](O)CC[C@H]1[C@@H]2O

>  <standard_inchi>  (1604) 
InChI=1S/C15H18O4/c1-7-4-11-13(12(17)5-7)15(19)9-3-2-8(16)6-10(9)14(11)18/h4-5,8-10,15-17,19H,2-3,6H2,1H3/t8-,9-,10-,15+/m1/s1

>  <standard_inchi_key>  (1604) 
HXTXFLLILVIRFA-MSFDSXBXSA-N

>  <name>  (1604) 
Dendryol E

>  <iupac_name>  (1604) 
(2~{R},4~{a}~{R},9~{a}~{R},10~{S})-2,5,10-trihydroxy-7-methyl-2,3,4,4~{a},9~{a},10-hexahydro-1~{H}-anthracen-9-one

>  <annotation_level>  (1604) 
5

>  <total_atom_count>  (1604) 
37

>  <heavy_atom_count>  (1604) 
19

>  <molecular_weight>  (1604) 
262.3

>  <exact_molecular_weight>  (1604) 
262.12051

>  <molecular_formula>  (1604) 
C15H18O4

>  <alogp>  (1604) 
1.71

>  <topological_polar_surface_area>  (1604) 
77.76

>  <rotatable_bond_count>  (1604) 
0

>  <hydrogen_bond_acceptors>  (1604) 
4

>  <hydrogen_bond_donors>  (1604) 
3

>  <hydrogen_bond_acceptors_lipinski>  (1604) 
4

>  <hydrogen_bond_donors_lipinski>  (1604) 
3

>  <lipinski_rule_of_five_violations>  (1604) 
0

>  <aromatic_rings_count>  (1604) 
1

>  <qed_drug_likeliness>  (1604) 
0.66

>  <formal_charge>  (1604) 
0

>  <fractioncsp3>  (1604) 
0.53

>  <number_of_minimal_rings>  (1604) 
3

>  <van_der_walls_volume>  (1604) 
nan

>  <contains_sugar>  (1604) 
False

>  <contains_ring_sugars>  (1604) 
False

>  <contains_linear_sugars>  (1604) 
False

>  <murcko_framework>  (1604) 
c1ccc2c(c1)CC3CCCCC3C2

>  <np_likeness>  (1604) 
2.07

>  <chemical_class>  (1604) 
Tetralins

>  <chemical_sub_class>  (1604) 
Tetralins

>  <chemical_super_class>  (1604) 
Benzenoids

>  <direct_parent_classification>  (1604) 
Tetralins

>  <np_classifier_pathway>  (1604) 
Polyketides

>  <np_classifier_superclass>  (1604) 
Polycyclic aromatic polyketides

>  <np_classifier_class>  (1604) 
Anthraquinones and anthrones

>  <np_classifier_is_glycoside>  (1604) 
False

>  <organisms>  (1604) 
Epicoccum sorghinum|Phoma sorghina

>  <collections>  (1604) 
Latin America dataset|NPAtlas|NuBBEDB|WikiData Natural Products

>  <dois>  (1604) 
10.1590/S0103-50532006000500017|10.1590/s0103-50532006000500017

>  <synonyms>  (1604) 
(2R,4aR,9aR,10S)-2,5,10-trihydroxy-7-methyl-2,3,4,4a,9a,10-hexahydro-1H-anthracen-9-one|CHEBI:205187|Dendryol E

>  <cas>  (1604) 
nan

$$$$

     RDKit          2D

 18 18  0  0  0  0  0  0  0  0999 V2000
   -9.3251    0.3241    0.0000 C   0  0  0  0  0  0  0  0  0  0  0  0
   -7.9566    0.9382    0.0000 O   0  0  0  0  0  0  0  0  0  0  0  0
   -6.7405    0.0601    0.0000 C   0  0  0  0  0  0  0  0  0  0  0  0
   -6.8929   -1.4321    0.0000 O   0  0  0  0  0  0  0  0  0  0  0  0
   -5.3719    0.6743    0.0000 C   0  0  0  0  0  0  0  0  0  0  0  0
   -4.1558   -0.2038    0.0000 C   0  0  0  0  0  0  0  0  0  0  0  0
   -2.7873    0.4103    0.0000 C   0  0  0  0  0  0  0  0  0  0  0  0
   -1.5712   -0.4678    0.0000 C   0  0  0  0  0  0  0  0  0  0  0  0
   -0.2027    0.1464    0.0000 C   0  0  0  0  0  0  0  0  0  0  0  0
    1.0134   -0.7318    0.0000 C   0  0  0  0  0  0  0  0  0  0  0  0
    2.3819   -0.1176    0.0000 C   0  0  0  0  0  0  0  0  0  0  0  0
    3.5981   -0.9957    0.0000 C   0  0  0  0  0  0  0  0  0  0  0  0
    4.9666   -0.3816    0.0000 C   0  0  0  0  0  0  0  0  0  0  0  0
    5.1190    1.1107    0.0000 C   0  0  0  0  0  0  0  0  0  0  0  0
    6.4875    1.7248    0.0000 C   0  0  0  0  0  0  0  0  0  0  0  0
    7.7036    0.8467    0.0000 C   0  0  0  0  0  0  0  0  0  0  0  0
    7.5512   -0.6455    0.0000 C   0  0  0  0  0  0  0  0  0  0  0  0
    6.1827   -1.2597    0.0000 C   0  0  0  0  0  0  0  0  0  0  0  0
  1  2  1  0
  2  3  1  0
  3  4  2  0
  3  5  1  0
  5  6  1  0
  6  7  1  0
  7  8  1  0
  8  9  1  0
  9 10  1  0
 10 11  1  0
 11 12  1  0
 12 13  1  0
 13 14  2  0
 14 15  1  0
 15 16  2  0
 16 17  1  0
 17 18  2  0
 18 13  1  0
M  END
>  <identifier>  (1605) 
CNP0166309.0

>  <canonical_smiles>  (1605) 
COC(=O)CCCCCCCCC1=CC=CC=C1

>  <standard_inchi>  (1605) 
InChI=1S/C16H24O2/c1-18-16(17)14-10-5-3-2-4-7-11-15-12-8-6-9-13-15/h6,8-9,12-13H,2-5,7,10-11,14H2,1H3

>  <standard_inchi_key>  (1605) 
QIDSVRONUDDBDA-UHFFFAOYSA-N

>  <name>  (1605) 
Nonanoic acid, 9-phenyl-, methyl ester

>  <iupac_name>  (1605) 
methyl 9-phenylnonanoate

>  <annotation_level>  (1605) 
5

>  <total_atom_count>  (1605) 
42

>  <heavy_atom_count>  (1605) 
18

>  <molecular_weight>  (1605) 
248.37

>  <exact_molecular_weight>  (1605) 
248.17763

>  <molecular_formula>  (1605) 
C16H24O2

>  <alogp>  (1605) 
4.13

>  <topological_polar_surface_area>  (1605) 
26.30

>  <rotatable_bond_count>  (1605) 
9

>  <hydrogen_bond_acceptors>  (1605) 
2

>  <hydrogen_bond_donors>  (1605) 
0

>  <hydrogen_bond_acceptors_lipinski>  (1605) 
2

>  <hydrogen_bond_donors_lipinski>  (1605) 
0

>  <lipinski_rule_of_five_violations>  (1605) 
0

>  <aromatic_rings_count>  (1605) 
1

>  <qed_drug_likeliness>  (1605) 
0.48

>  <formal_charge>  (1605) 
0

>  <fractioncsp3>  (1605) 
0.56

>  <number_of_minimal_rings>  (1605) 
1

>  <van_der_walls_volume>  (1605) 
nan

>  <contains_sugar>  (1605) 
False

>  <contains_ring_sugars>  (1605) 
False

>  <contains_linear_sugars>  (1605) 
False

>  <murcko_framework>  (1605) 
c1ccccc1

>  <np_likeness>  (1605) 
0.14

>  <chemical_class>  (1605) 
Fatty Acyls

>  <chemical_sub_class>  (1605) 
Fatty acid esters

>  <chemical_super_class>  (1605) 
Lipids and lipid-like molecules

>  <direct_parent_classification>  (1605) 
Fatty acid methyl esters

>  <np_classifier_pathway>  (1605) 
Fatty acids

>  <np_classifier_superclass>  (1605) 
Fatty Acids and Conjugates

>  <np_classifier_class>  (1605) 
Carbocyclic fatty acids

>  <np_classifier_is_glycoside>  (1605) 
False

>  <organisms>  (1605) 
Trichilia claussenii

>  <collections>  (1605) 
Latin America dataset|NuBBEDB|WikiData Natural Products|ZINC NP

>  <dois>  (1605) 
10.1016/0031-9422(95)00969-8

>  <synonyms>  (1605) 
AKOS015949226|QIDSVRONUDDBDA-UHFFFAOYSA-N|phenyl nonanoic acid methyl ester

>  <cas>  (1605) 
nan

$$$$

     RDKit          2D

 30 33  0  0  0  0  0  0  0  0999 V2000
   -7.6633    3.6195    0.0000 C   0  0  0  0  0  0  0  0  0  0  0  0
   -7.3042    2.1631    0.0000 C   0  0  0  0  0  0  0  0  0  0  0  0
   -8.3859    1.1240    0.0000 C   0  0  0  0  0  0  0  0  0  0  0  0
   -5.8634    1.7459    0.0000 C   0  0  0  0  0  0  0  0  0  0  0  0
   -5.5043    0.2895    0.0000 C   0  0  0  0  0  0  0  0  0  0  0  0
   -4.0635   -0.1278    0.0000 C   0  0  0  0  0  0  0  0  0  0  0  0
   -3.7045   -1.5841    0.0000 C   0  0  0  0  0  0  0  0  0  0  0  0
   -4.7862   -2.6233    0.0000 C   0  0  0  0  0  0  0  0  0  0  0  0
   -2.2637   -2.0014    0.0000 C   0  0  0  0  0  0  0  0  0  0  0  0
   -1.7544   -3.4123    0.0000 C   0  0  0  0  0  0  0  0  0  0  0  0
   -0.2551   -3.3639    0.0000 C   0  0  0  0  0  0  0  0  0  0  0  0
    0.1621   -1.9231    0.0000 C   0  0  0  0  0  0  0  0  0  0  0  0
    1.5120   -1.2690    0.0000 C   0  0  0  0  0  0  0  0  0  0  0  0
    2.7534   -2.1111    0.0000 C   0  0  0  0  0  0  0  0  0  0  0  0
    4.1033   -1.4571    0.0000 C   0  0  0  0  0  0  0  0  0  0  0  0
    5.3446   -2.2991    0.0000 O   0  0  0  0  0  0  0  0  0  0  0  0
    4.2118    0.0390    0.0000 C   0  0  0  0  0  0  0  0  0  0  0  0
    5.4532   -0.8031    0.0000 O   0  0  0  0  0  0  0  0  0  0  0  0
    5.5618    0.6930    0.0000 C   0  0  0  0  0  0  0  0  0  0  0  0
    5.6703    2.1891    0.0000 C   0  0  0  0  0  0  0  0  0  0  0  0
    7.0202    2.8431    0.0000 O   0  0  0  0  0  0  0  0  0  0  0  0
    4.4290    3.0311    0.0000 C   0  0  0  0  0  0  0  0  0  0  0  0
    3.0791    2.3771    0.0000 C   0  0  0  0  0  0  0  0  0  0  0  0
    2.9705    0.8810    0.0000 C   0  0  0  0  0  0  0  0  0  0  0  0
    1.7292    1.7231    0.0000 C   0  0  0  0  0  0  0  0  0  0  0  0
    1.6206    0.2270    0.0000 C   0  0  0  0  0  0  0  0  0  0  0  0
    0.3792    1.0691    0.0000 C   0  0  0  0  0  0  0  0  0  0  0  0
   -0.9707    0.4151    0.0000 C   0  0  0  0  0  0  0  0  0  0  0  0
   -1.0792   -1.0810    0.0000 C   0  0  0  0  0  0  0  0  0  0  0  0
   -2.4018   -0.3733    0.0000 C   0  0  0  0  0  0  0  0  0  0  0  0
  1  2  1  0
  2  3  1  0
  2  4  1  0
  4  5  1  0
  5  6  1  0
  6  7  1  0
  7  8  1  6
  7  9  1  0
  9 10  1  6
 10 11  1  0
 12 11  1  6
 12 13  1  0
 13 14  1  0
 14 15  1  0
 15 16  2  0
 15 17  1  0
 17 18  1  1
 17 19  1  0
 19 20  1  0
 20 21  1  0
 20 22  1  0
 22 23  1  0
 23 24  1  0
 24 25  1  6
 24 26  1  0
 26 27  1  6
 27 28  1  0
 28 29  1  0
 29 30  1  6
 29  9  1  0
 29 12  1  0
 26 13  1  0
 24 17  1  0
M  END
>  <identifier>  (1606) 
CNP0352469.1

>  <canonical_smiles>  (1606) 
CC(C)CCC[C@@H](C)[C@H]1CC[C@H]2C3CC(=O)[C@@]4(O)CC(O)CC[C@]4(C)[C@H]3CC[C@]12C

>  <standard_inchi>  (1606) 
InChI=1S/C27H46O3/c1-17(2)7-6-8-18(3)21-9-10-22-20-15-24(29)27(30)16-19(28)11-14-26(27,5)23(20)12-13-25(21,22)4/h17-23,28,30H,6-16H2,1-5H3/t18-,19?,20?,21-,22+,23+,25-,26-,27+/m1/s1

>  <standard_inchi_key>  (1606) 
SJZZRXMQSAXCFD-KOBKNYFCSA-N

>  <name>  (1606) 
nan

>  <iupac_name>  (1606) 
(5~{R},9~{S},10~{R},13~{R},14~{S},17~{R})-17-[(1~{R})-1,5-dimethylhexyl]-3,5-dihydroxy-10,13-dimethyl-2,3,4,7,8,9,11,12,14,15,16,17-dodecahydro-1~{H}-cyclopenta[a]phenanthren-6-one

>  <annotation_level>  (1606) 
4

>  <total_atom_count>  (1606) 
76

>  <heavy_atom_count>  (1606) 
30

>  <molecular_weight>  (1606) 
418.66

>  <exact_molecular_weight>  (1606) 
418.3447

>  <molecular_formula>  (1606) 
C27H46O3

>  <alogp>  (1606) 
5.76

>  <topological_polar_surface_area>  (1606) 
57.53

>  <rotatable_bond_count>  (1606) 
5

>  <hydrogen_bond_acceptors>  (1606) 
3

>  <hydrogen_bond_donors>  (1606) 
2

>  <hydrogen_bond_acceptors_lipinski>  (1606) 
3

>  <hydrogen_bond_donors_lipinski>  (1606) 
2

>  <lipinski_rule_of_five_violations>  (1606) 
1

>  <aromatic_rings_count>  (1606) 
0

>  <qed_drug_likeliness>  (1606) 
0.60

>  <formal_charge>  (1606) 
0

>  <fractioncsp3>  (1606) 
0.96

>  <number_of_minimal_rings>  (1606) 
4

>  <van_der_walls_volume>  (1606) 
nan

>  <contains_sugar>  (1606) 
False

>  <contains_ring_sugars>  (1606) 
False

>  <contains_linear_sugars>  (1606) 
False

>  <murcko_framework>  (1606) 
C1CCC2C(C1)CCC3C4CCCC4CCC23

>  <np_likeness>  (1606) 
2.62

>  <chemical_class>  (1606) 
Steroids and steroid derivatives

>  <chemical_sub_class>  (1606) 
Cholestane steroids

>  <chemical_super_class>  (1606) 
Lipids and lipid-like molecules

>  <direct_parent_classification>  (1606) 
Cholesterols and derivatives

>  <np_classifier_pathway>  (1606) 
Terpenoids

>  <np_classifier_superclass>  (1606) 
Steroids

>  <np_classifier_class>  (1606) 
Cholestane steroids

>  <np_classifier_is_glycoside>  (1606) 
False

>  <organisms>  (1606) 
Podocarpus lambereis

>  <collections>  (1606) 
Latin America dataset|NuBBEDB

>  <dois>  (1606) 
10.1016/0031-9422(75)85047-3

>  <synonyms>  (1606) 
3\u221a\u00e9\u00ac\u22645\u221a\u00e9\u00ac\u00b1-dihydroxy-6-cholestanone

>  <cas>  (1606) 
nan

$$$$

     RDKit          2D

 22 25  0  0  0  0  0  0  0  0999 V2000
   -3.5074    0.1800    0.0000 C   0  0  0  0  0  0  0  0  0  0  0  0
   -2.4885   -0.9209    0.0000 C   0  0  0  0  0  0  0  0  0  0  0  0
   -2.7803   -2.3922    0.0000 C   0  0  0  0  0  0  0  0  0  0  0  0
   -4.1421   -3.0210    0.0000 O   0  0  0  0  0  0  0  0  0  0  0  0
   -1.4711   -3.1244    0.0000 O   0  0  0  0  0  0  0  0  0  0  0  0
   -0.3702   -2.1055    0.0000 C   0  0  0  0  0  0  0  0  0  0  0  0
    1.1236   -2.2419    0.0000 C   0  0  0  0  0  0  0  0  0  0  0  0
    1.9886   -1.0164    0.0000 C   0  0  0  0  0  0  0  0  0  0  0  0
    1.3598    0.3455    0.0000 C   0  0  0  0  0  0  0  0  0  0  0  0
    2.2247    1.5709    0.0000 C   0  0  0  0  0  0  0  0  0  0  0  0
    3.7185    1.4346    0.0000 C   0  0  0  0  0  0  0  0  0  0  0  0
    4.3473    0.0727    0.0000 C   0  0  0  0  0  0  0  0  0  0  0  0
    3.4824   -1.1527    0.0000 C   0  0  0  0  0  0  0  0  0  0  0  0
    4.1112   -2.5146    0.0000 O   0  0  0  0  0  0  0  0  0  0  0  0
   -0.1340    0.4818    0.0000 C   0  0  0  0  0  0  0  0  0  0  0  0
    0.7310    1.7073    0.0000 C   0  0  0  0  0  0  0  0  0  0  0  0
    0.1022    3.0691    0.0000 C   0  0  0  0  0  0  0  0  0  0  0  0
   -1.3916    3.2055    0.0000 C   0  0  0  0  0  0  0  0  0  0  0  0
   -2.0204    4.5673    0.0000 O   0  0  0  0  0  0  0  0  0  0  0  0
   -2.2566    1.9800    0.0000 O   0  0  0  0  0  0  0  0  0  0  0  0
   -1.6278    0.6182    0.0000 C   0  0  0  0  0  0  0  0  0  0  0  0
   -0.9990   -0.7437    0.0000 C   0  0  0  0  0  0  0  0  0  0  0  0
  2  1  1  1
  2  3  1  0
  3  4  2  0
  3  5  1  0
  5  6  1  0
  6  7  1  1
  8  7  1  6
  8  9  1  0
  9 10  1  6
 10 11  1  0
 11 12  1  0
 12 13  1  0
 13 14  1  6
  9 15  1  0
 15 16  1  6
 16 17  1  0
 17 18  1  0
 18 19  2  0
 18 20  1  0
 20 21  1  0
 15 22  1  0
 22  2  1  1
 22  6  1  0
 13  8  1  0
 21 15  1  0
M  END
>  <identifier>  (1607) 
CNP0102231.2

>  <canonical_smiles>  (1607) 
C[C@@H]1C(=O)O[C@@H]2C[C@@H]3[C@@H](CCC[C@@H]3O)[C@@]3(CCC(=O)OC3)[C@H]12

>  <standard_inchi>  (1607) 
InChI=1S/C17H24O5/c1-9-15-13(22-16(9)20)7-10-11(3-2-4-12(10)18)17(15)6-5-14(19)21-8-17/h9-13,15,18H,2-8H2,1H3/t9-,10+,11+,12-,13+,15+,17-/m0/s1

>  <standard_inchi_key>  (1607) 
FQIJIXDHDJNSIE-OZUALZOGSA-N

>  <name>  (1607) 
nan

>  <iupac_name>  (1607) 
(3~{S},3~{a}~{S},4~{S},4~{a}~{R},8~{S},8~{a}~{R},9~{a}~{R})-8-hydroxy-3-methyl-spiro[3,3~{a},4~{a},5,6,7,8,8~{a},9,9~{a}-decahydrobenzo[f]benzofuran-4,5'-tetrahydropyran]-2,2'-dione

>  <annotation_level>  (1607) 
3

>  <total_atom_count>  (1607) 
46

>  <heavy_atom_count>  (1607) 
22

>  <molecular_weight>  (1607) 
308.37

>  <exact_molecular_weight>  (1607) 
308.16237

>  <molecular_formula>  (1607) 
C17H24O5

>  <alogp>  (1607) 
1.67

>  <topological_polar_surface_area>  (1607) 
72.83

>  <rotatable_bond_count>  (1607) 
0

>  <hydrogen_bond_acceptors>  (1607) 
5

>  <hydrogen_bond_donors>  (1607) 
1

>  <hydrogen_bond_acceptors_lipinski>  (1607) 
5

>  <hydrogen_bond_donors_lipinski>  (1607) 
1

>  <lipinski_rule_of_five_violations>  (1607) 
0

>  <aromatic_rings_count>  (1607) 
0

>  <qed_drug_likeliness>  (1607) 
0.69

>  <formal_charge>  (1607) 
0

>  <fractioncsp3>  (1607) 
0.88

>  <number_of_minimal_rings>  (1607) 
4

>  <van_der_walls_volume>  (1607) 
nan

>  <contains_sugar>  (1607) 
False

>  <contains_ring_sugars>  (1607) 
False

>  <contains_linear_sugars>  (1607) 
False

>  <murcko_framework>  (1607) 
O1CCCC2(C1)C3CCOC3CC4CCCCC42

>  <np_likeness>  (1607) 
2.99

>  <chemical_class>  (1607) 
Naphthofurans

>  <chemical_sub_class>  (1607) 
Naphthofurans

>  <chemical_super_class>  (1607) 
Organoheterocyclic compounds

>  <direct_parent_classification>  (1607) 
Naphthofurans

>  <np_classifier_pathway>  (1607) 
nan

>  <np_classifier_superclass>  (1607) 
nan

>  <np_classifier_class>  (1607) 
nan

>  <np_classifier_is_glycoside>  (1607) 
False

>  <organisms>  (1607) 
Casimirella rupestris|Humirianthera rupestris

>  <collections>  (1607) 
Latin America dataset|NuBBEDB|WikiData Natural Products

>  <dois>  (1607) 
10.1016/S0031-9422(00)98552-2

>  <synonyms>  (1607) 
nan

>  <cas>  (1607) 
nan

$$$$

     RDKit          2D

 16 17  0  0  0  0  0  0  0  0999 V2000
   -3.7914    2.6124    0.0000 C   0  0  0  0  0  0  0  0  0  0  0  0
   -3.5917    1.1258    0.0000 O   0  0  0  0  0  0  0  0  0  0  0  0
   -2.2044    0.5553    0.0000 C   0  0  0  0  0  0  0  0  0  0  0  0
   -1.0168    1.4715    0.0000 C   0  0  0  0  0  0  0  0  0  0  0  0
    0.3705    0.9011    0.0000 C   0  0  0  0  0  0  0  0  0  0  0  0
    0.5701   -0.5856    0.0000 C   0  0  0  0  0  0  0  0  0  0  0  0
   -0.6175   -1.5018    0.0000 C   0  0  0  0  0  0  0  0  0  0  0  0
   -0.4179   -2.9884    0.0000 O   0  0  0  0  0  0  0  0  0  0  0  0
   -2.0048   -0.9313    0.0000 C   0  0  0  0  0  0  0  0  0  0  0  0
   -3.1925   -1.8475    0.0000 Cl  0  0  0  0  0  0  0  0  0  0  0  0
    1.9574   -1.1560    0.0000 C   0  0  0  0  0  0  0  0  0  0  0  0
    2.1571   -2.6427    0.0000 O   0  0  0  0  0  0  0  0  0  0  0  0
    3.1451   -0.2398    0.0000 O   0  0  0  0  0  0  0  0  0  0  0  0
    2.9455    1.2468    0.0000 C   0  0  0  0  0  0  0  0  0  0  0  0
    4.1332    2.1630    0.0000 C   0  0  0  0  0  0  0  0  0  0  0  0
    1.5582    1.8173    0.0000 C   0  0  0  0  0  0  0  0  0  0  0  0
  1  2  1  0
  2  3  1  0
  3  4  2  0
  4  5  1  0
  5  6  2  0
  6  7  1  0
  7  8  1  0
  7  9  2  0
  9 10  1  0
  6 11  1  0
 11 12  2  0
 11 13  1  0
 13 14  1  0
 14 15  1  0
 14 16  2  0
  9  3  1  0
 16  5  1  0
M  END
>  <identifier>  (1608) 
CNP0210231.0

>  <canonical_smiles>  (1608) 
COC1=CC2=C(C(O)=C1Cl)C(=O)OC(C)=C2

>  <standard_inchi>  (1608) 
InChI=1S/C11H9ClO4/c1-5-3-6-4-7(15-2)9(12)10(13)8(6)11(14)16-5/h3-4,13H,1-2H3

>  <standard_inchi_key>  (1608) 
UZRGHYXMRXHKKS-UHFFFAOYSA-N

>  <name>  (1608) 
7-chloro-8-hydroxy-6-methoxy-3-methylisocoumarin

>  <iupac_name>  (1608) 
7-chloro-8-hydroxy-6-methoxy-3-methyl-isochromen-1-one

>  <annotation_level>  (1608) 
5

>  <total_atom_count>  (1608) 
25

>  <heavy_atom_count>  (1608) 
16

>  <molecular_weight>  (1608) 
240.64

>  <exact_molecular_weight>  (1608) 
240.01894

>  <molecular_formula>  (1608) 
C11H9ClO4

>  <alogp>  (1608) 
2.47

>  <topological_polar_surface_area>  (1608) 
59.67

>  <rotatable_bond_count>  (1608) 
1

>  <hydrogen_bond_acceptors>  (1608) 
4

>  <hydrogen_bond_donors>  (1608) 
1

>  <hydrogen_bond_acceptors_lipinski>  (1608) 
4

>  <hydrogen_bond_donors_lipinski>  (1608) 
1

>  <lipinski_rule_of_five_violations>  (1608) 
0

>  <aromatic_rings_count>  (1608) 
2

>  <qed_drug_likeliness>  (1608) 
0.83

>  <formal_charge>  (1608) 
0

>  <fractioncsp3>  (1608) 
0.18

>  <number_of_minimal_rings>  (1608) 
2

>  <van_der_walls_volume>  (1608) 
nan

>  <contains_sugar>  (1608) 
False

>  <contains_ring_sugars>  (1608) 
False

>  <contains_linear_sugars>  (1608) 
False

>  <murcko_framework>  (1608) 
O1C=Cc2ccccc2C1

>  <np_likeness>  (1608) 
1.06

>  <chemical_class>  (1608) 
Isocoumarins and derivatives

>  <chemical_sub_class>  (1608) 
Isocoumarins and derivatives

>  <chemical_super_class>  (1608) 
Phenylpropanoids and polyketides

>  <direct_parent_classification>  (1608) 
Isocoumarins and derivatives

>  <np_classifier_pathway>  (1608) 
Shikimates and Phenylpropanoids

>  <np_classifier_superclass>  (1608) 
Coumarins

>  <np_classifier_class>  (1608) 
Isocoumarins

>  <np_classifier_is_glycoside>  (1608) 
False

>  <organisms>  (1608) 
Swartzia laevicarpa

>  <collections>  (1608) 
Latin America dataset|NPEdia|NuBBEDB|Super Natural II|UNPD (Universal Natural Products Database)|WikiData Natural Products|ZINC NP

>  <dois>  (1608) 
10.1016/0031-9422(80)83022-6|10.1590/1809-43921982124801

>  <synonyms>  (1608) 
7-Chloro-8-hydroxy-6-methoxy-3-methylisocoumarin

>  <cas>  (1608) 
nan

$$$$

     RDKit          2D

 27 30  0  0  0  0  0  0  0  0999 V2000
    6.4994   -3.1331    0.0000 C   0  0  0  0  0  0  0  0  0  0  0  0
    6.9463   -1.7012    0.0000 O   0  0  0  0  0  0  0  0  0  0  0  0
    5.9296   -0.5982    0.0000 C   0  0  0  0  0  0  0  0  0  0  0  0
    4.4661   -0.9272    0.0000 C   0  0  0  0  0  0  0  0  0  0  0  0
    3.4495    0.1757    0.0000 C   0  0  0  0  0  0  0  0  0  0  0  0
    1.9860   -0.1533    0.0000 C   0  0  0  0  0  0  0  0  0  0  0  0
    1.3919   -1.5306    0.0000 O   0  0  0  0  0  0  0  0  0  0  0  0
   -0.1016   -1.3913    0.0000 C   0  0  0  0  0  0  0  0  0  0  0  0
   -0.4305    0.0722    0.0000 C   0  0  0  0  0  0  0  0  0  0  0  0
    0.8597    0.8373    0.0000 C   0  0  0  0  0  0  0  0  0  0  0  0
    0.5307    2.3008    0.0000 C   0  0  0  0  0  0  0  0  0  0  0  0
   -0.9628    2.4402    0.0000 O   0  0  0  0  0  0  0  0  0  0  0  0
   -1.5569    1.0628    0.0000 C   0  0  0  0  0  0  0  0  0  0  0  0
   -3.0204    0.7339    0.0000 C   0  0  0  0  0  0  0  0  0  0  0  0
   -4.0370    1.8368    0.0000 C   0  0  0  0  0  0  0  0  0  0  0  0
   -5.5005    1.5078    0.0000 C   0  0  0  0  0  0  0  0  0  0  0  0
   -5.9473    0.0759    0.0000 C   0  0  0  0  0  0  0  0  0  0  0  0
   -7.4108   -0.2531    0.0000 O   0  0  0  0  0  0  0  0  0  0  0  0
   -8.4275    0.8499    0.0000 C   0  0  0  0  0  0  0  0  0  0  0  0
   -4.9307   -1.0270    0.0000 C   0  0  0  0  0  0  0  0  0  0  0  0
   -5.3775   -2.4589    0.0000 O   0  0  0  0  0  0  0  0  0  0  0  0
   -4.3609   -3.5618    0.0000 C   0  0  0  0  0  0  0  0  0  0  0  0
   -3.4672   -0.6980    0.0000 C   0  0  0  0  0  0  0  0  0  0  0  0
    3.8963    1.6076    0.0000 C   0  0  0  0  0  0  0  0  0  0  0  0
    5.3598    1.9366    0.0000 C   0  0  0  0  0  0  0  0  0  0  0  0
    6.3765    0.8337    0.0000 C   0  0  0  0  0  0  0  0  0  0  0  0
    7.8399    1.1626    0.0000 O   0  0  0  0  0  0  0  0  0  0  0  0
  1  2  1  0
  2  3  1  0
  3  4  2  0
  4  5  1  0
  6  5  1  1
  6  7  1  0
  7  8  1  0
  9  8  1  6
  9 10  1  0
 10 11  1  6
 11 12  1  0
 12 13  1  0
 13 14  1  6
 14 15  2  0
 15 16  1  0
 16 17  2  0
 17 18  1  0
 18 19  1  0
 17 20  1  0
 20 21  1  0
 21 22  1  0
 20 23  2  0
  5 24  2  0
 24 25  1  0
 25 26  2  0
 26 27  1  0
 26  3  1  0
 10  6  1  0
 23 14  1  0
 13  9  1  0
M  END
>  <identifier>  (1609) 
CNP0276676.3

>  <canonical_smiles>  (1609) 
COC1=CC([C@H]2OC[C@H]3[C@@H]2CO[C@H]3C2=CC=C(OC)C(OC)=C2)=CC=C1O

>  <standard_inchi>  (1609) 
InChI=1S/C21H24O6/c1-23-17-7-5-13(9-19(17)25-3)21-15-11-26-20(14(15)10-27-21)12-4-6-16(22)18(8-12)24-2/h4-9,14-15,20-22H,10-11H2,1-3H3/t14-,15-,20+,21-/m0/s1

>  <standard_inchi_key>  (1609) 
CPJKKWDCUOOTEW-YJPXFSGGSA-N

>  <name>  (1609) 
PHILLYGENIN

>  <iupac_name>  (1609) 
4-[(3~{S},3~{a}~{R},6~{R},6~{a}~{R})-6-(3,4-dimethoxyphenyl)-1,3,3~{a},4,6,6~{a}-hexahydrofuro[3,4-c]furan-3-yl]-2-methoxy-phenol

>  <annotation_level>  (1609) 
5

>  <total_atom_count>  (1609) 
51

>  <heavy_atom_count>  (1609) 
27

>  <molecular_weight>  (1609) 
372.42

>  <exact_molecular_weight>  (1609) 
372.15729

>  <molecular_formula>  (1609) 
C21H24O6

>  <alogp>  (1609) 
3.49

>  <topological_polar_surface_area>  (1609) 
66.38

>  <rotatable_bond_count>  (1609) 
5

>  <hydrogen_bond_acceptors>  (1609) 
6

>  <hydrogen_bond_donors>  (1609) 
1

>  <hydrogen_bond_acceptors_lipinski>  (1609) 
6

>  <hydrogen_bond_donors_lipinski>  (1609) 
1

>  <lipinski_rule_of_five_violations>  (1609) 
0

>  <aromatic_rings_count>  (1609) 
2

>  <qed_drug_likeliness>  (1609) 
0.87

>  <formal_charge>  (1609) 
0

>  <fractioncsp3>  (1609) 
0.43

>  <number_of_minimal_rings>  (1609) 
4

>  <van_der_walls_volume>  (1609) 
334.00

>  <contains_sugar>  (1609) 
False

>  <contains_ring_sugars>  (1609) 
False

>  <contains_linear_sugars>  (1609) 
False

>  <murcko_framework>  (1609) 
O1CC2C(OCC2C1c3ccccc3)c4ccccc4

>  <np_likeness>  (1609) 
0.94

>  <chemical_class>  (1609) 
Furanoid lignans

>  <chemical_sub_class>  (1609) 
Furan lignans

>  <chemical_super_class>  (1609) 
Lignans, neolignans and related compounds

>  <direct_parent_classification>  (1609) 
Furan lignans

>  <np_classifier_pathway>  (1609) 
Shikimates and Phenylpropanoids

>  <np_classifier_superclass>  (1609) 
Lignans

>  <np_classifier_class>  (1609) 
Furofuranoid lignans

>  <np_classifier_is_glycoside>  (1609) 
False

>  <organisms>  (1609) 
Anisacanthus virgularis|Aristolochia flos-avis|Aristolochia macrocarpa|Bellardia viscosa|Bupleurum wenchuanense|Chionanthus retusus|Chionanthus virginica|Dryopteris arguta|Eremophila macdonnellii|Forsythia europaea|Forsythia giraldiana|Forsythia intermedia|Forsythia japonica|Forsythia koreana|Forsythia suspensa|Forsythia viridissima|Gyalolechia fulgida|Hippocrepis emerus|Kopsia lapidilecta|Lancea tibetica|Lindera praecox|Magnolia biondii|Magnolia coco|Magnolia fargesii|Magnolia kobus var. borealis|Mitrephora vulpina|Oleaceae|Orophea enneandra|Osmanthus Fragrans|Osmanthus aquifolium|Osmanthus asiaticus|Osmanthus fragrans|Otoba parvifolia|Persea kurzii|Phillyrea latifolia|Pinus aristata|Piper sylvaticum|Plenckia populnea|Tephrosia semiglabra|Virola elongata|Virola michelii|pomegranate

>  <collections>  (1609) 
Australian natural products|CMAUP (cCollective molecular activities of useful plants)|InflamNat|KNApSaCK|Latin America dataset|NPASS|NPEdia|NuBBEDB|Specs Natural Products|Super Natural II|TIPdb (database of Taiwan indigenous plants)|VietHerb|WikiData Natural Products|ZINC NP

>  <dois>  (1609) 
10.1002/JCCS.199800116|10.1002/RCM.2875|10.1007/BF02266969|10.1016/0031-9422(88)80479-5|10.1016/0031-9422(89)80055-X|10.1016/0031-9422(90)85020-G|10.1016/0031-9422(92)83756-O|10.1016/0031-9422(95)00368-H|10.1016/0031-9422(95)00464-I|10.1016/J.JEP.2010.01.035|10.1016/S0031-9422(00)83456-1|10.1016/S0031-9422(00)84591-4|10.1016/j.fitote.2017.06.004|10.1021/JF203598M|10.1021/NP50024A003|10.1021/acs.jnatprod.6b01141|10.1039/C7RA06302D|10.1039/c7ra06302d|10.1055/S-1999-14026|10.1055/S-1999-14093|10.1248/CPB.36.3667|10.1248/YAKUSHI1947.107.6_435|10.3390/MOLECULES15117840

>  <synonyms>  (1609) 
(+)-MONOMETHYLPINORESINOL|(+)-Phillygenin|(+)-SYLVATESMIN|1ST156858|4-((1S,3aR,4R,6aR)-4-(3,4-Dimethoxyphenyl)tetrahydro-1H,3H-furo[3,4-c]furan-1-yl)-2-methoxyphenol|4-[(3S,3aR,6R,6aR)-6-(3,4-dimethoxyphenyl)-1,3,3a,4,6,6a-hexahydrofuro[3,4-c]furan-3-yl]-2-methoxyphenol|487-39-8|886IAL08GN|AC-34423|ACon1_001142|AKOS030524964|AS-56623|BRD-K69431605-001-01-7|CCG-268325|CHEMBL2260010|CPJKKWDCUOOTEW-YJPXFSGGSA-N|CS-5705|DTXSID80197588|Epipinoresinol methyl ether|Forsythigenol|HY-N0483|MEGxp0_000876|NCGC00169636-01|Oleaceae|PHENOL, 4-((1S,3AR,4R,6AR)-4-(3,4-DIMETHOXYPHENYL)TETRAHYDRO-1H,3H-FURO(3,4-C)FURAN-1-YL)-2-METHOXY-|PHILLYRIN AGLYCONE|Phenol, 4-(4-(3,4-dimethoxyphenyl)tetrahydro-1H,3H-furo(3,4-c)furan-1-yl)-2-methoxy-, (1S-(1alpha,3aalpha,4beta,6aalpha))-|PhillygeninForsythigenol; Phillygenol; Epipinoresinol methyl ether|Phillygenol|Phillygenol; Epipinoresinol methyl ether; (+)-Phillygenin|Q-100547|Q27269895|SCHEMBL10052265|Sylvatesmin|UNII-886IAL08GN|s9187

>  <cas>  (1609) 
487-39-8

$$$$

     RDKit          2D

 26 28  0  0  0  0  0  0  0  0999 V2000
   -7.6822   -1.7384    0.0000 O   0  0  0  0  0  0  0  0  0  0  0  0
   -7.2102   -0.3145    0.0000 C   0  0  0  0  0  0  0  0  0  0  0  0
   -8.2073    0.8061    0.0000 C   0  0  0  0  0  0  0  0  0  0  0  0
   -7.7353    2.2299    0.0000 C   0  0  0  0  0  0  0  0  0  0  0  0
   -6.2662    2.5331    0.0000 C   0  0  0  0  0  0  0  0  0  0  0  0
   -5.2692    1.4124    0.0000 C   0  0  0  0  0  0  0  0  0  0  0  0
   -3.8001    1.7156    0.0000 C   0  0  0  0  0  0  0  0  0  0  0  0
   -2.8031    0.5949    0.0000 C   0  0  0  0  0  0  0  0  0  0  0  0
   -1.3340    0.8981    0.0000 C   0  0  0  0  0  0  0  0  0  0  0  0
   -0.3370   -0.2226    0.0000 C   0  0  0  0  0  0  0  0  0  0  0  0
   -0.8090   -1.6464    0.0000 C   0  0  0  0  0  0  0  0  0  0  0  0
    0.1881   -2.7670    0.0000 C   0  0  0  0  0  0  0  0  0  0  0  0
   -0.2839   -4.1909    0.0000 O   0  0  0  0  0  0  0  0  0  0  0  0
    1.6572   -2.4639    0.0000 C   0  0  0  0  0  0  0  0  0  0  0  0
    2.6542   -3.5845    0.0000 O   0  0  0  0  0  0  0  0  0  0  0  0
    2.1291   -1.0401    0.0000 C   0  0  0  0  0  0  0  0  0  0  0  0
    3.5982   -0.7369    0.0000 C   0  0  0  0  0  0  0  0  0  0  0  0
    4.0702    0.6869    0.0000 C   0  0  0  0  0  0  0  0  0  0  0  0
    5.5392    0.9900    0.0000 C   0  0  0  0  0  0  0  0  0  0  0  0
    6.5363   -0.1306    0.0000 C   0  0  0  0  0  0  0  0  0  0  0  0
    8.0053    0.1725    0.0000 C   0  0  0  0  0  0  0  0  0  0  0  0
    8.4773    1.5963    0.0000 C   0  0  0  0  0  0  0  0  0  0  0  0
    7.4802    2.7170    0.0000 C   0  0  0  0  0  0  0  0  0  0  0  0
    6.0112    2.4138    0.0000 C   0  0  0  0  0  0  0  0  0  0  0  0
    1.1321    0.0806    0.0000 O   0  0  0  0  0  0  0  0  0  0  0  0
   -5.7412   -0.0114    0.0000 O   0  0  0  0  0  0  0  0  0  0  0  0
  1  2  2  0
  2  3  1  0
  3  4  2  0
  4  5  1  0
  5  6  1  0
  6  7  1  6
  7  8  2  0
  8  9  1  0
 10  9  1  6
 10 11  1  0
 11 12  1  0
 12 13  1  6
 12 14  1  0
 14 15  1  6
 14 16  1  0
 16 17  1  1
 17 18  2  0
 18 19  1  0
 19 20  2  0
 20 21  1  0
 21 22  2  0
 22 23  1  0
 23 24  2  0
 16 25  1  0
  6 26  1  0
 26  2  1  0
 25 10  1  0
 24 19  1  0
M  END
>  <identifier>  (1610) 
CNP0112930.3

>  <canonical_smiles>  (1610) 
O=C1C=CC[C@H](/C=C/C[C@H]2C[C@@H](O)[C@@H](O)[C@H](/C=C/C3=CC=CC=C3)O2)O1

>  <standard_inchi>  (1610) 
InChI=1S/C21H24O5/c22-18-14-17(10-4-8-16-9-5-11-20(23)26-16)25-19(21(18)24)13-12-15-6-2-1-3-7-15/h1-8,11-13,16-19,21-22,24H,9-10,14H2/b8-4+,13-12+/t16-,17-,18+,19-,21+/m0/s1

>  <standard_inchi_key>  (1610) 
ITOWMYXEGADZIR-HEZVQIKDSA-N

>  <name>  (1610) 
nan

>  <iupac_name>  (1610) 
(2~{R})-2-[(~{E})-3-[(2~{S},4~{R},5~{R},6~{S})-4,5-dihydroxy-6-[(~{E})-styryl]tetrahydropyran-2-yl]prop-1-enyl]-2,3-dihydropyran-6-one

>  <annotation_level>  (1610) 
5

>  <total_atom_count>  (1610) 
50

>  <heavy_atom_count>  (1610) 
26

>  <molecular_weight>  (1610) 
356.42

>  <exact_molecular_weight>  (1610) 
356.16237

>  <molecular_formula>  (1610) 
C21H24O5

>  <alogp>  (1610) 
2.40

>  <topological_polar_surface_area>  (1610) 
75.99

>  <rotatable_bond_count>  (1610) 
5

>  <hydrogen_bond_acceptors>  (1610) 
5

>  <hydrogen_bond_donors>  (1610) 
2

>  <hydrogen_bond_acceptors_lipinski>  (1610) 
5

>  <hydrogen_bond_donors_lipinski>  (1610) 
2

>  <lipinski_rule_of_five_violations>  (1610) 
0

>  <aromatic_rings_count>  (1610) 
1

>  <qed_drug_likeliness>  (1610) 
0.63

>  <formal_charge>  (1610) 
0

>  <fractioncsp3>  (1610) 
0.38

>  <number_of_minimal_rings>  (1610) 
3

>  <van_der_walls_volume>  (1610) 
329.93

>  <contains_sugar>  (1610) 
False

>  <contains_ring_sugars>  (1610) 
False

>  <contains_linear_sugars>  (1610) 
False

>  <murcko_framework>  (1610) 
O1CC=CCC1C=CCC2OC(C=Cc3ccccc3)CCC2

>  <np_likeness>  (1610) 
2.79

>  <chemical_class>  (1610) 
Pyrans

>  <chemical_sub_class>  (1610) 
Pyranones and derivatives

>  <chemical_super_class>  (1610) 
Organoheterocyclic compounds

>  <direct_parent_classification>  (1610) 
Dihydropyranones

>  <np_classifier_pathway>  (1610) 
Shikimates and Phenylpropanoids

>  <np_classifier_superclass>  (1610) 
Styrylpyrones

>  <np_classifier_class>  (1610) 
Kavalactones and derivatives

>  <np_classifier_is_glycoside>  (1610) 
False

>  <organisms>  (1610) 
Cryptocarya moschata

>  <collections>  (1610) 
ChemSpider NPs|Latin America dataset|NuBBEDB|Super Natural II|WikiData Natural Products

>  <dois>  (1610) 
10.1016/S0031-9422(99)00532-4

>  <synonyms>  (1610) 
Cryptopyranmoscatone B4, (6R)-56-dihydro-6-[(4'S6'R7'R8'S1'E9'E)-4'8'-epoxy-6'7'-dihydroxy-10'-phenyl-1'9'-decadienyl]-2-pyrone

>  <cas>  (1610) 
nan

$$$$

     RDKit          2D

 49 51  0  0  0  0  0  0  0  0999 V2000
    6.1014    6.4079    0.0000 C   0  0  0  0  0  0  0  0  0  0  0  0
    5.4493    5.0570    0.0000 C   0  0  0  0  0  0  0  0  0  0  0  0
    6.2932    3.8169    0.0000 C   0  0  0  0  0  0  0  0  0  0  0  0
    7.7891    3.9277    0.0000 C   0  0  0  0  0  0  0  0  0  0  0  0
    5.6412    2.4661    0.0000 C   0  0  0  0  0  0  0  0  0  0  0  0
    4.1453    2.3553    0.0000 C   0  0  0  0  0  0  0  0  0  0  0  0
    3.4932    1.0044    0.0000 C   0  0  0  0  0  0  0  0  0  0  0  0
    4.9368    0.5969    0.0000 C   0  0  0  0  0  0  0  0  0  0  0  0
    2.2761    1.8811    0.0000 C   0  0  0  0  0  0  0  0  0  0  0  0
    2.4268    3.3735    0.0000 C   0  0  0  0  0  0  0  0  0  0  0  0
    0.9083    1.2654    0.0000 C   0  0  0  0  0  0  0  0  0  0  0  0
   -0.3088    2.1421    0.0000 O   0  0  0  0  0  0  0  0  0  0  0  0
   -0.1581    3.6345    0.0000 C   0  0  0  0  0  0  0  0  0  0  0  0
   -1.3753    4.5112    0.0000 C   0  0  0  0  0  0  0  0  0  0  0  0
    1.2097    4.2502    0.0000 O   0  0  0  0  0  0  0  0  0  0  0  0
    0.7576   -0.2270    0.0000 C   0  0  0  0  0  0  0  0  0  0  0  0
   -0.6102   -0.8427    0.0000 O   0  0  0  0  0  0  0  0  0  0  0  0
   -1.8273    0.0340    0.0000 C   0  0  0  0  0  0  0  0  0  0  0  0
   -2.0422    1.5185    0.0000 O   0  0  0  0  0  0  0  0  0  0  0  0
   -3.1951   -0.5817    0.0000 C   0  0  0  0  0  0  0  0  0  0  0  0
   -4.4122    0.2950    0.0000 C   0  0  0  0  0  0  0  0  0  0  0  0
   -5.7801   -0.3207    0.0000 C   0  0  0  0  0  0  0  0  0  0  0  0
   -6.9972    0.5560    0.0000 C   0  0  0  0  0  0  0  0  0  0  0  0
   -8.3650   -0.0597    0.0000 C   0  0  0  0  0  0  0  0  0  0  0  0
   -9.5821    0.8170    0.0000 C   0  0  0  0  0  0  0  0  0  0  0  0
  -10.9499    0.2013    0.0000 C   0  0  0  0  0  0  0  0  0  0  0  0
  -12.1670    1.0780    0.0000 C   0  0  0  0  0  0  0  0  0  0  0  0
  -13.5349    0.4623    0.0000 C   0  0  0  0  0  0  0  0  0  0  0  0
    1.9747   -1.1037    0.0000 C   0  0  0  0  0  0  0  0  0  0  0  0
    1.8241   -2.5961    0.0000 C   0  0  0  0  0  0  0  0  0  0  0  0
    3.0412   -3.4728    0.0000 C   0  0  0  0  0  0  0  0  0  0  0  0
    4.4090   -2.8571    0.0000 C   0  0  0  0  0  0  0  0  0  0  0  0
    5.6261   -3.7338    0.0000 O   0  0  0  0  0  0  0  0  0  0  0  0
    5.4754   -5.2262    0.0000 C   0  0  0  0  0  0  0  0  0  0  0  0
    6.6926   -6.1029    0.0000 C   0  0  0  0  0  0  0  0  0  0  0  0
    4.1076   -5.8419    0.0000 O   0  0  0  0  0  0  0  0  0  0  0  0
    4.5597   -1.3647    0.0000 C   0  0  0  0  0  0  0  0  0  0  0  0
    3.3426   -0.4880    0.0000 C   0  0  0  0  0  0  0  0  0  0  0  0
    0.3581   -2.9140    0.0000 C   0  0  0  0  0  0  0  0  0  0  0  0
   -0.2464   -4.2868    0.0000 O   0  0  0  0  0  0  0  0  0  0  0  0
   -1.7375   -4.4497    0.0000 C   0  0  0  0  0  0  0  0  0  0  0  0
   -2.3420   -5.8225    0.0000 C   0  0  0  0  0  0  0  0  0  0  0  0
   -2.6241   -3.2398    0.0000 O   0  0  0  0  0  0  0  0  0  0  0  0
   -0.3972   -1.6180    0.0000 O   0  0  0  0  0  0  0  0  0  0  0  0
    0.6019   -0.4992    0.0000 C   0  0  0  0  0  0  0  0  0  0  0  0
    0.2841    0.9667    0.0000 O   0  0  0  0  0  0  0  0  0  0  0  0
   -1.1444    1.4244    0.0000 C   0  0  0  0  0  0  0  0  0  0  0  0
   -1.4623    2.8903    0.0000 C   0  0  0  0  0  0  0  0  0  0  0  0
   -2.4660    0.7149    0.0000 O   0  0  0  0  0  0  0  0  0  0  0  0
  1  2  2  0
  2  3  1  0
  3  4  2  0
  3  5  1  0
  5  6  1  0
  6  7  1  0
  7  8  1  6
  7  9  1  0
  9 10  1  1
  9 11  1  0
 11 12  1  6
 12 13  1  0
 13 14  1  0
 13 15  2  0
 11 16  1  0
 16 17  1  1
 17 18  1  0
 18 19  2  0
 18 20  1  0
 20 21  2  0
 21 22  1  0
 22 23  2  0
 23 24  1  0
 24 25  1  0
 25 26  1  0
 26 27  1  0
 27 28  1  0
 16 29  1  0
 29 30  1  6
 30 31  2  0
 31 32  1  0
 32 33  1  1
 33 34  1  0
 34 35  1  0
 34 36  2  0
 32 37  1  0
 38 37  1  6
 30 39  1  0
 39 40  1  1
 40 41  1  0
 41 42  1  0
 41 43  2  0
 39 44  1  0
 44 45  1  0
 45 46  1  6
 46 47  1  0
 47 48  1  0
 47 49  2  0
 38  7  1  0
 38 29  1  0
 45 29  1  0
M  END
>  <identifier>  (1611) 
CNP0131017.1

>  <canonical_smiles>  (1611) 
C=CC(=C)CC[C@]1(C)[C@H](C)[C@@H](OC(C)=O)[C@H](OC(=O)/C=C/C=C/CCCCC)[C@@]23C(=C[C@H](OC(C)=O)C[C@@H]12)[C@@H](OC(C)=O)O[C@@H]3OC(C)=O

>  <standard_inchi>  (1611) 
InChI=1S/C38H52O11/c1-10-12-13-14-15-16-17-18-32(43)48-34-33(45-26(6)40)24(4)37(9,20-19-23(3)11-2)31-22-29(44-25(5)39)21-30-35(46-27(7)41)49-36(38(30,31)34)47-28(8)42/h11,15-18,21,24,29,31,33-36H,2-3,10,12-14,19-20,22H2,1,4-9H3/b16-15+,18-17+/t24-,29+,31+,33-,34+,35+,36+,37-,38-/m1/s1

>  <standard_inchi_key>  (1611) 
QULKHTBAJDJGJB-RLAXPAQVSA-N

>  <name>  (1611) 
nan

>  <iupac_name>  (1611) 
[(1~{R},3~{R},5~{R},6~{a}~{S},7~{S},8~{S},9~{R},10~{R},10~{a}~{S})-1,3,5,9-tetraacetoxy-7,8-dimethyl-7-(3-methylenepent-4-enyl)-1,3,5,6,6~{a},8,9,10-octahydrobenzo[d]isobenzofuran-10-yl] (2~{E},4~{E})-deca-2,4-dienoate

>  <annotation_level>  (1611) 
5

>  <total_atom_count>  (1611) 
101

>  <heavy_atom_count>  (1611) 
49

>  <molecular_weight>  (1611) 
684.82

>  <exact_molecular_weight>  (1611) 
684.35096

>  <molecular_formula>  (1611) 
C38H52O11

>  <alogp>  (1611) 
6.37

>  <topological_polar_surface_area>  (1611) 
140.73

>  <rotatable_bond_count>  (1611) 
15

>  <hydrogen_bond_acceptors>  (1611) 
11

>  <hydrogen_bond_donors>  (1611) 
0

>  <hydrogen_bond_acceptors_lipinski>  (1611) 
11

>  <hydrogen_bond_donors_lipinski>  (1611) 
0

>  <lipinski_rule_of_five_violations>  (1611) 
3

>  <aromatic_rings_count>  (1611) 
0

>  <qed_drug_likeliness>  (1611) 
0.05

>  <formal_charge>  (1611) 
0

>  <fractioncsp3>  (1611) 
0.61

>  <number_of_minimal_rings>  (1611) 
3

>  <van_der_walls_volume>  (1611) 
645.02

>  <contains_sugar>  (1611) 
False

>  <contains_ring_sugars>  (1611) 
False

>  <contains_linear_sugars>  (1611) 
False

>  <murcko_framework>  (1611) 
O1CC2=CCCC3CCCCC23C1

>  <np_likeness>  (1611) 
3.03

>  <chemical_class>  (1611) 
Prenol lipids

>  <chemical_sub_class>  (1611) 
Diterpenoids

>  <chemical_super_class>  (1611) 
Lipids and lipid-like molecules

>  <direct_parent_classification>  (1611) 
Colensane and clerodane diterpenoids

>  <np_classifier_pathway>  (1611) 
Terpenoids

>  <np_classifier_superclass>  (1611) 
Diterpenoids

>  <np_classifier_class>  (1611) 
Colensane and Clerodane diterpenoids

>  <np_classifier_is_glycoside>  (1611) 
True

>  <organisms>  (1611) 
Casearia rupestris

>  <collections>  (1611) 
ChemSpider NPs|Latin America dataset|NuBBEDB|Super Natural II|WikiData Natural Products

>  <dois>  (1611) 
10.1021/NP100840W|10.1021/np100840w

>  <synonyms>  (1611) 
27-Di-O-acetylcasearupestrin A

>  <cas>  (1611) 
nan

$$$$

     RDKit          2D

 23 25  0  0  0  0  0  0  0  0999 V2000
   -7.4437    1.8096    0.0000 C   0  0  0  0  0  0  0  0  0  0  0  0
   -6.8961    0.4131    0.0000 O   0  0  0  0  0  0  0  0  0  0  0  0
   -5.4129    0.1892    0.0000 C   0  0  0  0  0  0  0  0  0  0  0  0
   -4.4773    1.3616    0.0000 C   0  0  0  0  0  0  0  0  0  0  0  0
   -2.9941    1.1376    0.0000 C   0  0  0  0  0  0  0  0  0  0  0  0
   -2.4465   -0.2588    0.0000 C   0  0  0  0  0  0  0  0  0  0  0  0
   -0.9633   -0.4828    0.0000 C   0  0  0  0  0  0  0  0  0  0  0  0
   -0.4157   -1.8793    0.0000 C   0  0  0  0  0  0  0  0  0  0  0  0
    1.0674   -2.1033    0.0000 C   0  0  0  0  0  0  0  0  0  0  0  0
    1.6150   -3.4998    0.0000 O   0  0  0  0  0  0  0  0  0  0  0  0
    2.0030   -0.9308    0.0000 C   0  0  0  0  0  0  0  0  0  0  0  0
    1.4554    0.4656    0.0000 C   0  0  0  0  0  0  0  0  0  0  0  0
    2.3910    1.6381    0.0000 C   0  0  0  0  0  0  0  0  0  0  0  0
    3.8742    1.4141    0.0000 C   0  0  0  0  0  0  0  0  0  0  0  0
    4.8098    2.5866    0.0000 O   0  0  0  0  0  0  0  0  0  0  0  0
    4.2622    3.9831    0.0000 C   0  0  0  0  0  0  0  0  0  0  0  0
    4.4218    0.0176    0.0000 C   0  0  0  0  0  0  0  0  0  0  0  0
    5.9050   -0.2063    0.0000 C   0  0  0  0  0  0  0  0  0  0  0  0
    3.4862   -1.1548    0.0000 C   0  0  0  0  0  0  0  0  0  0  0  0
    4.0338   -2.5513    0.0000 O   0  0  0  0  0  0  0  0  0  0  0  0
   -0.0278    0.6896    0.0000 O   0  0  0  0  0  0  0  0  0  0  0  0
   -3.3821   -1.4313    0.0000 C   0  0  0  0  0  0  0  0  0  0  0  0
   -4.8653   -1.2073    0.0000 C   0  0  0  0  0  0  0  0  0  0  0  0
  1  2  1  0
  2  3  1  0
  3  4  2  0
  4  5  1  0
  5  6  2  0
  7  6  1  6
  7  8  1  0
  8  9  1  0
  9 10  2  0
  9 11  1  0
 11 12  2  0
 12 13  1  0
 13 14  2  0
 14 15  1  0
 15 16  1  0
 14 17  1  0
 17 18  1  0
 17 19  2  0
 19 20  1  0
 12 21  1  0
  6 22  1  0
 22 23  2  0
 23  3  1  0
 21  7  1  0
 19 11  1  0
M  END
>  <identifier>  (1612) 
CNP0080617.1

>  <canonical_smiles>  (1612) 
COC1=CC=C([C@H]2CC(=O)C3=C(C=C(OC)C(C)=C3O)O2)C=C1

>  <standard_inchi>  (1612) 
InChI=1S/C18H18O5/c1-10-14(22-3)9-16-17(18(10)20)13(19)8-15(23-16)11-4-6-12(21-2)7-5-11/h4-7,9,15,20H,8H2,1-3H3/t15-/m1/s1

>  <standard_inchi_key>  (1612) 
JLCMSYSSWRCWBJ-OAHLLOKOSA-N

>  <name>  (1612) 
nan

>  <iupac_name>  (1612) 
(2~{R})-5-hydroxy-7-methoxy-2-(4-methoxyphenyl)-6-methyl-chroman-4-one

>  <annotation_level>  (1612) 
4

>  <total_atom_count>  (1612) 
41

>  <heavy_atom_count>  (1612) 
23

>  <molecular_weight>  (1612) 
314.34

>  <exact_molecular_weight>  (1612) 
314.11542

>  <molecular_formula>  (1612) 
C18H18O5

>  <alogp>  (1612) 
3.42

>  <topological_polar_surface_area>  (1612) 
64.99

>  <rotatable_bond_count>  (1612) 
3

>  <hydrogen_bond_acceptors>  (1612) 
5

>  <hydrogen_bond_donors>  (1612) 
1

>  <hydrogen_bond_acceptors_lipinski>  (1612) 
5

>  <hydrogen_bond_donors_lipinski>  (1612) 
1

>  <lipinski_rule_of_five_violations>  (1612) 
0

>  <aromatic_rings_count>  (1612) 
2

>  <qed_drug_likeliness>  (1612) 
0.94

>  <formal_charge>  (1612) 
0

>  <fractioncsp3>  (1612) 
0.28

>  <number_of_minimal_rings>  (1612) 
3

>  <van_der_walls_volume>  (1612) 
nan

>  <contains_sugar>  (1612) 
False

>  <contains_ring_sugars>  (1612) 
False

>  <contains_linear_sugars>  (1612) 
False

>  <murcko_framework>  (1612) 
O1c2ccccc2CCC1c3ccccc3

>  <np_likeness>  (1612) 
1.39

>  <chemical_class>  (1612) 
Flavonoids

>  <chemical_sub_class>  (1612) 
O-methylated flavonoids

>  <chemical_super_class>  (1612) 
Phenylpropanoids and polyketides

>  <direct_parent_classification>  (1612) 
4'-O-methylated flavonoids

>  <np_classifier_pathway>  (1612) 
Shikimates and Phenylpropanoids

>  <np_classifier_superclass>  (1612) 
Flavonoids

>  <np_classifier_class>  (1612) 
Flavanones

>  <np_classifier_is_glycoside>  (1612) 
False

>  <organisms>  (1612) 
Qualea labouriauana

>  <collections>  (1612) 
Latin America dataset|NuBBEDB|WikiData Natural Products|ZINC NP

>  <dois>  (1612) 
10.1016/0031-9422(81)85112-6

>  <synonyms>  (1612) 
(2R)-5-Hydroxy-74'-dimethoxy-6-methylflavanone

>  <cas>  (1612) 
nan

$$$$

     RDKit          2D

 21 24  0  0  0  0  0  0  0  0999 V2000
   -5.0708   -1.4483    0.0000 C   0  0  0  0  0  0  0  0  0  0  0  0
   -3.6832   -0.8785    0.0000 C   0  0  0  0  0  0  0  0  0  0  0  0
   -2.4067   -1.6661    0.0000 C   0  0  0  0  0  0  0  0  0  0  0  0
   -1.2631   -0.6955    0.0000 C   0  0  0  0  0  0  0  0  0  0  0  0
   -0.5514   -2.0159    0.0000 C   0  0  0  0  0  0  0  0  0  0  0  0
    0.9480   -2.0597    0.0000 C   0  0  0  0  0  0  0  0  0  0  0  0
    1.7356   -0.7832    0.0000 C   0  0  0  0  0  0  0  0  0  0  0  0
    3.2350   -0.8270    0.0000 C   0  0  0  0  0  0  0  0  0  0  0  0
    4.6289   -1.3811    0.0000 C   0  0  0  0  0  0  0  0  0  0  0  0
    2.9314   -2.2960    0.0000 C   0  0  0  0  0  0  0  0  0  0  0  0
    4.0226    0.4495    0.0000 C   0  0  0  0  0  0  0  0  0  0  0  0
    3.3110    1.7699    0.0000 C   0  0  0  0  0  0  0  0  0  0  0  0
    1.8116    1.8138    0.0000 C   0  0  0  0  0  0  0  0  0  0  0  0
    1.0239    0.5372    0.0000 C   0  0  0  0  0  0  0  0  0  0  0  0
    0.3122    1.8576    0.0000 C   0  0  0  0  0  0  0  0  0  0  0  0
   -0.4754    0.5811    0.0000 C   0  0  0  0  0  0  0  0  0  0  0  0
   -1.1871    1.9015    0.0000 C   0  0  0  0  0  0  0  0  0  0  0  0
   -0.3995    3.1781    0.0000 O   0  0  0  0  0  0  0  0  0  0  0  0
   -2.6865    1.9454    0.0000 C   0  0  0  0  0  0  0  0  0  0  0  0
   -3.4741    0.6688    0.0000 C   0  0  0  0  0  0  0  0  0  0  0  0
   -2.7624   -0.6516    0.0000 C   0  0  0  0  0  0  0  0  0  0  0  0
  1  2  2  0
  2  3  1  0
  4  3  1  6
  4  5  1  0
  5  6  1  0
  7  6  1  1
  7  8  1  0
  8  9  1  0
  8 10  1  0
  8 11  1  0
 11 12  1  0
 12 13  1  0
 13 14  1  0
 14 15  1  6
 14 16  1  0
 16 17  1  1
 17 18  2  0
 17 19  1  0
 20 19  1  6
 20 21  1  0
 20  2  1  0
 16  4  1  0
 21  4  1  0
 14  7  1  0
M  END
>  <identifier>  (1613) 
CNP0331999.1

>  <canonical_smiles>  (1613) 
C=C1C[C@@]23CC[C@@H]4C(C)(C)CCC[C@]4(C)[C@@H]2C(=O)C[C@@H]1C3

>  <standard_inchi>  (1613) 
InChI=1S/C20H30O/c1-13-11-20-9-6-16-18(2,3)7-5-8-19(16,4)17(20)15(21)10-14(13)12-20/h14,16-17H,1,5-12H2,2-4H3/t14-,16-,17+,19+,20-/m1/s1

>  <standard_inchi_key>  (1613) 
OBGDKDRUHRCMHT-WGLCMCTQSA-N

>  <name>  (1613) 
nan

>  <iupac_name>  (1613) 
(1~{S},4~{R},9~{S},10~{R},13~{S})-5,5,9-trimethyl-14-methylene-tetracyclo[11.2.1.0^{1,10}.0^{4,9}]hexadecan-11-one

>  <annotation_level>  (1613) 
3

>  <total_atom_count>  (1613) 
51

>  <heavy_atom_count>  (1613) 
21

>  <molecular_weight>  (1613) 
286.46

>  <exact_molecular_weight>  (1613) 
286.22967

>  <molecular_formula>  (1613) 
C20H30O

>  <alogp>  (1613) 
5.15

>  <topological_polar_surface_area>  (1613) 
17.07

>  <rotatable_bond_count>  (1613) 
0

>  <hydrogen_bond_acceptors>  (1613) 
1

>  <hydrogen_bond_donors>  (1613) 
0

>  <hydrogen_bond_acceptors_lipinski>  (1613) 
1

>  <hydrogen_bond_donors_lipinski>  (1613) 
0

>  <lipinski_rule_of_five_violations>  (1613) 
1

>  <aromatic_rings_count>  (1613) 
0

>  <qed_drug_likeliness>  (1613) 
0.56

>  <formal_charge>  (1613) 
0

>  <fractioncsp3>  (1613) 
0.85

>  <number_of_minimal_rings>  (1613) 
4

>  <van_der_walls_volume>  (1613) 
nan

>  <contains_sugar>  (1613) 
False

>  <contains_ring_sugars>  (1613) 
False

>  <contains_linear_sugars>  (1613) 
False

>  <murcko_framework>  (1613) 
C1CCC2C(C1)CCC34CCC(CCC23)C4

>  <np_likeness>  (1613) 
2.89

>  <chemical_class>  (1613) 
Prenol lipids

>  <chemical_sub_class>  (1613) 
Diterpenoids

>  <chemical_super_class>  (1613) 
Lipids and lipid-like molecules

>  <direct_parent_classification>  (1613) 
Kaurane diterpenoids

>  <np_classifier_pathway>  (1613) 
Terpenoids

>  <np_classifier_superclass>  (1613) 
Diterpenoids

>  <np_classifier_class>  (1613) 
Kaurane and Phyllocladane diterpenoids

>  <np_classifier_is_glycoside>  (1613) 
False

>  <organisms>  (1613) 
Vellozia caput-ardeae

>  <collections>  (1613) 
Latin America dataset|NuBBEDB|WikiData Natural Products

>  <dois>  (1613) 
10.1016/0031-9422(83)80035-1

>  <synonyms>  (1613) 
nan

>  <cas>  (1613) 
nan

$$$$

     RDKit          2D

 26 28  0  0  0  0  0  0  0  0999 V2000
   -3.4926    3.5949    0.0000 C   0  0  0  0  0  0  0  0  0  0  0  0
   -3.6494    2.1031    0.0000 O   0  0  0  0  0  0  0  0  0  0  0  0
   -2.4358    1.2215    0.0000 C   0  0  0  0  0  0  0  0  0  0  0  0
   -1.0655    1.8316    0.0000 C   0  0  0  0  0  0  0  0  0  0  0  0
    0.1480    0.9500    0.0000 C   0  0  0  0  0  0  0  0  0  0  0  0
   -0.0087   -0.5418    0.0000 C   0  0  0  0  0  0  0  0  0  0  0  0
    1.2048   -1.4235    0.0000 C   0  0  0  0  0  0  0  0  0  0  0  0
    1.0480   -2.9153    0.0000 O   0  0  0  0  0  0  0  0  0  0  0  0
    2.5751   -0.8133    0.0000 C   0  0  0  0  0  0  0  0  0  0  0  0
    2.7319    0.6785    0.0000 C   0  0  0  0  0  0  0  0  0  0  0  0
    3.3894    2.0267    0.0000 C   0  0  0  0  0  0  0  0  0  0  0  0
    4.1738    0.2650    0.0000 C   0  0  0  0  0  0  0  0  0  0  0  0
    4.5367   -1.1904    0.0000 C   0  0  0  0  0  0  0  0  0  0  0  0
    5.9786   -1.6038    0.0000 C   0  0  0  0  0  0  0  0  0  0  0  0
    7.0576   -0.5618    0.0000 C   0  0  0  0  0  0  0  0  0  0  0  0
    6.6946    0.8936    0.0000 C   0  0  0  0  0  0  0  0  0  0  0  0
    5.2527    1.3071    0.0000 C   0  0  0  0  0  0  0  0  0  0  0  0
    1.5183    1.5601    0.0000 O   0  0  0  0  0  0  0  0  0  0  0  0
   -1.3790   -1.1520    0.0000 C   0  0  0  0  0  0  0  0  0  0  0  0
   -1.5358   -2.6437    0.0000 O   0  0  0  0  0  0  0  0  0  0  0  0
   -2.5926   -0.2703    0.0000 C   0  0  0  0  0  0  0  0  0  0  0  0
   -3.9629   -0.8804    0.0000 C   0  0  0  0  0  0  0  0  0  0  0  0
   -5.1764    0.0012    0.0000 C   0  0  0  0  0  0  0  0  0  0  0  0
   -6.5468   -0.6089    0.0000 C   0  0  0  0  0  0  0  0  0  0  0  0
   -7.7603    0.2727    0.0000 C   0  0  0  0  0  0  0  0  0  0  0  0
   -6.7035   -2.1007    0.0000 C   0  0  0  0  0  0  0  0  0  0  0  0
  1  2  1  0
  2  3  1  0
  3  4  2  0
  4  5  1  0
  5  6  2  0
  6  7  1  0
  7  8  2  0
  7  9  1  0
  9 10  1  0
 10 11  1  1
 10 12  1  0
 12 13  2  0
 13 14  1  0
 14 15  2  0
 15 16  1  0
 16 17  2  0
 10 18  1  0
  6 19  1  0
 19 20  1  0
 19 21  2  0
 21 22  1  0
 22 23  1  0
 23 24  2  0
 24 25  1  0
 24 26  1  0
 21  3  1  0
 18  5  1  0
 17 12  1  0
M  END
>  <identifier>  (1614) 
CNP0080581.1

>  <canonical_smiles>  (1614) 
COC1=CC2=C(C(=O)C[C@@](C)(C3=CC=CC=C3)O2)C(O)=C1CC=C(C)C

>  <standard_inchi>  (1614) 
InChI=1S/C22H24O4/c1-14(2)10-11-16-18(25-4)12-19-20(21(16)24)17(23)13-22(3,26-19)15-8-6-5-7-9-15/h5-10,12,24H,11,13H2,1-4H3/t22-/m0/s1

>  <standard_inchi_key>  (1614) 
KRHAIYZCWJYTDS-QFIPXVFZSA-N

>  <name>  (1614) 
nan

>  <iupac_name>  (1614) 
(2~{S})-5-hydroxy-7-methoxy-2-methyl-6-(3-methylbut-2-enyl)-2-phenyl-chroman-4-one

>  <annotation_level>  (1614) 
4

>  <total_atom_count>  (1614) 
50

>  <heavy_atom_count>  (1614) 
26

>  <molecular_weight>  (1614) 
352.43

>  <exact_molecular_weight>  (1614) 
352.16746

>  <molecular_formula>  (1614) 
C22H24O4

>  <alogp>  (1614) 
4.79

>  <topological_polar_surface_area>  (1614) 
55.76

>  <rotatable_bond_count>  (1614) 
4

>  <hydrogen_bond_acceptors>  (1614) 
4

>  <hydrogen_bond_donors>  (1614) 
1

>  <hydrogen_bond_acceptors_lipinski>  (1614) 
4

>  <hydrogen_bond_donors_lipinski>  (1614) 
1

>  <lipinski_rule_of_five_violations>  (1614) 
0

>  <aromatic_rings_count>  (1614) 
2

>  <qed_drug_likeliness>  (1614) 
0.80

>  <formal_charge>  (1614) 
0

>  <fractioncsp3>  (1614) 
0.32

>  <number_of_minimal_rings>  (1614) 
3

>  <van_der_walls_volume>  (1614) 
nan

>  <contains_sugar>  (1614) 
False

>  <contains_ring_sugars>  (1614) 
False

>  <contains_linear_sugars>  (1614) 
False

>  <murcko_framework>  (1614) 
O1c2ccccc2CCC1c3ccccc3

>  <np_likeness>  (1614) 
1.77

>  <chemical_class>  (1614) 
Flavonoids

>  <chemical_sub_class>  (1614) 
O-methylated flavonoids

>  <chemical_super_class>  (1614) 
Phenylpropanoids and polyketides

>  <direct_parent_classification>  (1614) 
7-O-methylated flavonoids

>  <np_classifier_pathway>  (1614) 
Shikimates and Phenylpropanoids

>  <np_classifier_superclass>  (1614) 
Flavonoids

>  <np_classifier_class>  (1614) 
Flavanones

>  <np_classifier_is_glycoside>  (1614) 
False

>  <organisms>  (1614) 
Deguelia rariflora|Derris rariflora

>  <collections>  (1614) 
Latin America dataset|NuBBEDB|WikiData Natural Products|ZINC NP

>  <dois>  (1614) 
10.1016/0031-9422(75)85051-5

>  <synonyms>  (1614) 
(2S)-5-hydroxy-7-methoxy-6-prenylflavanone

>  <cas>  (1614) 
nan

$$$$

     RDKit          2D

 23 25  0  0  0  0  0  0  0  0999 V2000
    6.2087    2.5456    0.0000 C   0  0  0  0  0  0  0  0  0  0  0  0
    6.0066    1.0592    0.0000 C   0  0  0  0  0  0  0  0  0  0  0  0
    4.6184    0.4911    0.0000 C   0  0  0  0  0  0  0  0  0  0  0  0
    5.1866   -0.8972    0.0000 C   0  0  0  0  0  0  0  0  0  0  0  0
    4.0502    1.8793    0.0000 C   0  0  0  0  0  0  0  0  0  0  0  0
    3.2302   -0.0771    0.0000 C   0  0  0  0  0  0  0  0  0  0  0  0
    2.0440    0.8410    0.0000 C   0  0  0  0  0  0  0  0  0  0  0  0
    0.6558    0.2728    0.0000 C   0  0  0  0  0  0  0  0  0  0  0  0
   -0.5304    1.1910    0.0000 C   0  0  0  0  0  0  0  0  0  0  0  0
   -1.9186    0.6228    0.0000 C   0  0  0  0  0  0  0  0  0  0  0  0
   -2.1207   -0.8635    0.0000 C   0  0  0  0  0  0  0  0  0  0  0  0
   -0.9345   -1.7817    0.0000 C   0  0  0  0  0  0  0  0  0  0  0  0
    0.4537   -1.2135    0.0000 C   0  0  0  0  0  0  0  0  0  0  0  0
    1.6399   -2.1316    0.0000 O   0  0  0  0  0  0  0  0  0  0  0  0
    3.0281   -1.5635    0.0000 C   0  0  0  0  0  0  0  0  0  0  0  0
    4.2143   -2.4816    0.0000 O   0  0  0  0  0  0  0  0  0  0  0  0
   -3.5967   -1.1307    0.0000 O   0  0  0  0  0  0  0  0  0  0  0  0
   -4.3069    0.1906    0.0000 C   0  0  0  0  0  0  0  0  0  0  0  0
   -5.7932    0.3926    0.0000 C   0  0  0  0  0  0  0  0  0  0  0  0
   -5.9952   -1.0937    0.0000 C   0  0  0  0  0  0  0  0  0  0  0  0
   -5.5911    1.8790    0.0000 C   0  0  0  0  0  0  0  0  0  0  0  0
   -7.2795    0.5947    0.0000 O   0  0  0  0  0  0  0  0  0  0  0  0
   -3.2698    1.2743    0.0000 C   0  0  0  0  0  0  0  0  0  0  0  0
  1  2  2  0
  2  3  1  0
  3  4  1  0
  3  5  1  0
  3  6  1  0
  6  7  2  0
  7  8  1  0
  8  9  2  0
  9 10  1  0
 10 11  2  0
 11 12  1  0
 12 13  2  0
 13 14  1  0
 14 15  1  0
 15 16  2  0
 11 17  1  0
 17 18  1  0
 18 19  1  6
 19 20  1  0
 19 21  1  0
 19 22  1  0
 18 23  1  0
 15  6  1  0
 13  8  1  0
 23 10  1  0
M  END
>  <identifier>  (1615) 
CNP0210737.2

>  <canonical_smiles>  (1615) 
C=CC(C)(C)C1=CC2=CC3=C(C=C2OC1=O)O[C@H](C(C)(C)O)C3

>  <standard_inchi>  (1615) 
InChI=1S/C19H22O4/c1-6-18(2,3)13-8-11-7-12-9-16(19(4,5)21)22-14(12)10-15(11)23-17(13)20/h6-8,10,16,21H,1,9H2,2-5H3/t16-/m0/s1

>  <standard_inchi_key>  (1615) 
JCDLLLXYAICSQV-INIZCTEOSA-N

>  <name>  (1615) 
Rutamarin alcohol

>  <iupac_name>  (1615) 
(2~{S})-6-(1,1-dimethylallyl)-2-(1-hydroxy-1-methyl-ethyl)-2,3-dihydrofuro[3,2-g]chromen-7-one

>  <annotation_level>  (1615) 
5

>  <total_atom_count>  (1615) 
45

>  <heavy_atom_count>  (1615) 
23

>  <molecular_weight>  (1615) 
314.38

>  <exact_molecular_weight>  (1615) 
314.15181

>  <molecular_formula>  (1615) 
C19H22O4

>  <alogp>  (1615) 
3.33

>  <topological_polar_surface_area>  (1615) 
59.67

>  <rotatable_bond_count>  (1615) 
3

>  <hydrogen_bond_acceptors>  (1615) 
4

>  <hydrogen_bond_donors>  (1615) 
1

>  <hydrogen_bond_acceptors_lipinski>  (1615) 
4

>  <hydrogen_bond_donors_lipinski>  (1615) 
1

>  <lipinski_rule_of_five_violations>  (1615) 
0

>  <aromatic_rings_count>  (1615) 
2

>  <qed_drug_likeliness>  (1615) 
0.70

>  <formal_charge>  (1615) 
0

>  <fractioncsp3>  (1615) 
0.42

>  <number_of_minimal_rings>  (1615) 
3

>  <van_der_walls_volume>  (1615) 
290.94

>  <contains_sugar>  (1615) 
False

>  <contains_ring_sugars>  (1615) 
False

>  <contains_linear_sugars>  (1615) 
False

>  <murcko_framework>  (1615) 
O1c2cc3OCCc3cc2C=CC1

>  <np_likeness>  (1615) 
2.23

>  <chemical_class>  (1615) 
Coumarins and derivatives

>  <chemical_sub_class>  (1615) 
Furanocoumarins

>  <chemical_super_class>  (1615) 
Phenylpropanoids and polyketides

>  <direct_parent_classification>  (1615) 
Psoralens

>  <np_classifier_pathway>  (1615) 
Shikimates and Phenylpropanoids

>  <np_classifier_superclass>  (1615) 
Coumarins

>  <np_classifier_class>  (1615) 
Furocoumarins

>  <np_classifier_is_glycoside>  (1615) 
False

>  <organisms>  (1615) 
Clausena anisata|Esenbeckia almawillia|Pilocarpus spicatus|Ruta chalepensis L.|Ruta graveolens|Stauranthus perforatus

>  <collections>  (1615) 
AnalytiCon Discovery NPs|Australian natural products|DrugBankNP|GNPS (Global Natural Products Social Molecular Networking)|KNApSaCK|Latin America dataset|NuBBEDB|Super Natural II|WikiData Natural Products|ZINC NP

>  <dois>  (1615) 
10.1016/0031-9422(75)85267-8|10.1016/0031-9422(95)00564-1|10.1016/J.PHYTOCHEM.2004.12.028|10.1016/S0014-5793(02)02700-X|10.1016/j.fitote.2021.105094

>  <synonyms>  (1615) 
(+)-Chalepin|(+)-rutamarin alcohol|(2S)-6-(1,1-Dimethyl-2-propen-1-yl)-2,3-dihydro-2-(1-hydroxy-1-methylethyl)-7H-furo[3,2-g][1]benzopyran-7-one|(2S)-6-(1,1-dimethylprop-2-en-1-yl)-2-(1-hydroxy-1-methylethyl)-2,3-dihydro-7H-furo[3,2-g]chromen-7-one|118389-19-8|1268481-32-8|14755-47-6|6-(1,1-DIMETHYLALLYL)-2-(1-HYDROXY-1-METHYLETHYL)-2,3-DIHYDRO-7H-FURO[3,2-G]CHROMEN-7-ONE|7H-Furo(3,2-g)(1)benzopyran-7-one, 6-(1,1-dimethyl-2-propen-1-yl)-2,3-dihydro-2-(1-hydroxy-1-methylethyl)-, (+)-|ACon1_000926|AKOS040736203|BDBM50220736|BRD-K34596419-001-01-5|CHEMBL1231470|Chalepin|Chalepin, (+)-|DB02205|DTXSID301109014|MEGxp0_001084|NCGC00169223-01|NS00068419|Q27093253|Rutamarin alcohol, (+)-|UNII-V0632559OD|V0632559OD|chalepin

>  <cas>  (1615) 
14755-47-6|118389-19-8|1268481-32-8

$$$$

     RDKit          2D

 30 31  0  0  0  0  0  0  0  0999 V2000
    4.8257   -4.8562    0.0000 C   0  0  0  0  0  0  0  0  0  0  0  0
    3.3647   -4.5165    0.0000 O   0  0  0  0  0  0  0  0  0  0  0  0
    2.9283   -3.0814    0.0000 C   0  0  0  0  0  0  0  0  0  0  0  0
    1.4673   -2.7417    0.0000 C   0  0  0  0  0  0  0  0  0  0  0  0
    0.4426   -3.8372    0.0000 C   0  0  0  0  0  0  0  0  0  0  0  0
   -1.0184   -3.4975    0.0000 C   0  0  0  0  0  0  0  0  0  0  0  0
   -1.4548   -2.0624    0.0000 C   0  0  0  0  0  0  0  0  0  0  0  0
   -2.9158   -1.7227    0.0000 C   0  0  0  0  0  0  0  0  0  0  0  0
   -3.9405   -2.8182    0.0000 O   0  0  0  0  0  0  0  0  0  0  0  0
   -5.4016   -2.4785    0.0000 C   0  0  0  0  0  0  0  0  0  0  0  0
   -6.4262   -3.5740    0.0000 C   0  0  0  0  0  0  0  0  0  0  0  0
   -5.8379   -1.0434    0.0000 O   0  0  0  0  0  0  0  0  0  0  0  0
   -0.4301   -0.9669    0.0000 C   0  0  0  0  0  0  0  0  0  0  0  0
    1.0309   -1.3066    0.0000 C   0  0  0  0  0  0  0  0  0  0  0  0
    2.0556   -0.2111    0.0000 C   0  0  0  0  0  0  0  0  0  0  0  0
    3.5166   -0.5508    0.0000 O   0  0  0  0  0  0  0  0  0  0  0  0
    1.6192    1.2240    0.0000 C   0  0  0  0  0  0  0  0  0  0  0  0
    2.6439    2.3194    0.0000 O   0  0  0  0  0  0  0  0  0  0  0  0
    4.1049    1.9798    0.0000 C   0  0  0  0  0  0  0  0  0  0  0  0
    5.1296    3.0752    0.0000 C   0  0  0  0  0  0  0  0  0  0  0  0
    4.5413    0.5447    0.0000 O   0  0  0  0  0  0  0  0  0  0  0  0
    0.1582    1.5636    0.0000 C   0  0  0  0  0  0  0  0  0  0  0  0
   -0.2782    2.9988    0.0000 C   0  0  0  0  0  0  0  0  0  0  0  0
   -1.7133    2.5624    0.0000 C   0  0  0  0  0  0  0  0  0  0  0  0
    1.1569    3.4351    0.0000 C   0  0  0  0  0  0  0  0  0  0  0  0
   -0.7145    4.4339    0.0000 O   0  0  0  0  0  0  0  0  0  0  0  0
   -2.1756    4.7736    0.0000 C   0  0  0  0  0  0  0  0  0  0  0  0
   -2.6119    6.2087    0.0000 C   0  0  0  0  0  0  0  0  0  0  0  0
   -3.2003    3.6781    0.0000 O   0  0  0  0  0  0  0  0  0  0  0  0
   -0.8665    0.4682    0.0000 C   0  0  0  0  0  0  0  0  0  0  0  0
  1  2  1  0
  2  3  1  0
  3  4  1  0
  4  5  2  0
  5  6  1  0
  6  7  2  0
  7  8  1  0
  8  9  1  0
  9 10  1  0
 10 11  1  0
 10 12  2  0
  7 13  1  0
 13 14  2  0
 14 15  1  0
 15 16  2  0
 15 17  1  0
 17 18  1  1
 18 19  1  0
 19 20  1  0
 19 21  2  0
 17 22  1  0
 22 23  1  6
 23 24  1  0
 23 25  1  0
 23 26  1  0
 26 27  1  0
 27 28  1  0
 27 29  2  0
 22 30  1  0
 14  4  1  0
 30 13  1  0
M  END
>  <identifier>  (1616) 
CNP0080419.1

>  <canonical_smiles>  (1616) 
COCC1=CC=C(COC(C)=O)C2=C1C(=O)[C@H](OC(C)=O)[C@@H](C(C)(C)OC(C)=O)C2

>  <standard_inchi>  (1616) 
InChI=1S/C22H28O8/c1-12(23)28-11-15-7-8-16(10-27-6)19-17(15)9-18(22(4,5)30-14(3)25)21(20(19)26)29-13(2)24/h7-8,18,21H,9-11H2,1-6H3/t18-,21+/m0/s1

>  <standard_inchi_key>  (1616) 
FJOPARPZJSUZSY-GHTZIAJQSA-N

>  <name>  (1616) 
nan

>  <iupac_name>  (1616) 
[(2~{R},3~{S})-2-acetoxy-3-(1-acetoxy-1-methyl-ethyl)-8-(methoxymethyl)-1-oxo-tetralin-5-yl]methyl acetate

>  <annotation_level>  (1616) 
4

>  <total_atom_count>  (1616) 
58

>  <heavy_atom_count>  (1616) 
30

>  <molecular_weight>  (1616) 
420.46

>  <exact_molecular_weight>  (1616) 
420.17842

>  <molecular_formula>  (1616) 
C22H28O8

>  <alogp>  (1616) 
2.52

>  <topological_polar_surface_area>  (1616) 
105.20

>  <rotatable_bond_count>  (1616) 
7

>  <hydrogen_bond_acceptors>  (1616) 
8

>  <hydrogen_bond_donors>  (1616) 
0

>  <hydrogen_bond_acceptors_lipinski>  (1616) 
8

>  <hydrogen_bond_donors_lipinski>  (1616) 
0

>  <lipinski_rule_of_five_violations>  (1616) 
0

>  <aromatic_rings_count>  (1616) 
1

>  <qed_drug_likeliness>  (1616) 
0.49

>  <formal_charge>  (1616) 
0

>  <fractioncsp3>  (1616) 
0.55

>  <number_of_minimal_rings>  (1616) 
2

>  <van_der_walls_volume>  (1616) 
nan

>  <contains_sugar>  (1616) 
False

>  <contains_ring_sugars>  (1616) 
False

>  <contains_linear_sugars>  (1616) 
False

>  <murcko_framework>  (1616) 
c1ccc2c(c1)CCCC2

>  <np_likeness>  (1616) 
1.11

>  <chemical_class>  (1616) 
Tetralins

>  <chemical_sub_class>  (1616) 
Tetralins

>  <chemical_super_class>  (1616) 
Benzenoids

>  <direct_parent_classification>  (1616) 
Tetralins

>  <np_classifier_pathway>  (1616) 
Terpenoids

>  <np_classifier_superclass>  (1616) 
nan

>  <np_classifier_class>  (1616) 
nan

>  <np_classifier_is_glycoside>  (1616) 
False

>  <organisms>  (1616) 
Emmotum nitens

>  <collections>  (1616) 
Latin America dataset|NuBBEDB|WikiData Natural Products|ZINC NP

>  <dois>  (1616) 
10.1016/0031-9422(74)80100-7

>  <synonyms>  (1616) 
Emmotin B triacetate

>  <cas>  (1616) 
nan

$$$$

     RDKit          2D

 29 32  0  0  0  0  0  0  0  0999 V2000
   -4.7538   -3.1520    0.0000 C   0  0  0  0  0  0  0  0  0  0  0  0
   -3.5592   -2.2448    0.0000 C   0  0  0  0  0  0  0  0  0  0  0  0
   -2.1763   -2.8257    0.0000 O   0  0  0  0  0  0  0  0  0  0  0  0
   -3.7476   -0.7567    0.0000 O   0  0  0  0  0  0  0  0  0  0  0  0
   -2.5531    0.1506    0.0000 C   0  0  0  0  0  0  0  0  0  0  0  0
   -2.7415    1.6387    0.0000 C   0  0  0  0  0  0  0  0  0  0  0  0
   -4.1244    2.2196    0.0000 C   0  0  0  0  0  0  0  0  0  0  0  0
   -4.3128    3.7077    0.0000 C   0  0  0  0  0  0  0  0  0  0  0  0
   -5.3190    1.3124    0.0000 C   0  0  0  0  0  0  0  0  0  0  0  0
   -1.5469    2.5459    0.0000 C   0  0  0  0  0  0  0  0  0  0  0  0
   -0.1640    1.9650    0.0000 C   0  0  0  0  0  0  0  0  0  0  0  0
    0.0244    0.4769    0.0000 C   0  0  0  0  0  0  0  0  0  0  0  0
   -1.1701   -0.4303    0.0000 C   0  0  0  0  0  0  0  0  0  0  0  0
   -0.9817   -1.9185    0.0000 O   0  0  0  0  0  0  0  0  0  0  0  0
    0.4012   -2.4994    0.0000 C   0  0  0  0  0  0  0  0  0  0  0  0
    0.5896   -3.9875    0.0000 C   0  0  0  0  0  0  0  0  0  0  0  0
    1.1339   -2.1852    0.0000 O   0  0  0  0  0  0  0  0  0  0  0  0
    1.4074   -0.1040    0.0000 C   0  0  0  0  0  0  0  0  0  0  0  0
    1.5958   -1.5921    0.0000 C   0  0  0  0  0  0  0  0  0  0  0  0
    2.9787   -2.1730    0.0000 C   0  0  0  0  0  0  0  0  0  0  0  0
    4.1733   -1.2658    0.0000 C   0  0  0  0  0  0  0  0  0  0  0  0
    3.9849    0.2223    0.0000 C   0  0  0  0  0  0  0  0  0  0  0  0
    4.3168    1.6851    0.0000 C   0  0  0  0  0  0  0  0  0  0  0  0
    5.4831    0.1494    0.0000 C   0  0  0  0  0  0  0  0  0  0  0  0
    2.6019    0.8032    0.0000 C   0  0  0  0  0  0  0  0  0  0  0  0
    2.4135    2.2913    0.0000 C   0  0  0  0  0  0  0  0  0  0  0  0
    1.0306    2.8722    0.0000 C   0  0  0  0  0  0  0  0  0  0  0  0
    2.4135    2.2913    0.0000 O   0  0  0  0  0  0  0  0  0  0  0  0
    2.6019    0.8032    0.0000 C   0  0  0  0  0  0  0  0  0  0  0  0
  1  2  1  0
  2  3  2  0
  2  4  1  0
  4  5  1  0
  5  6  2  0
  6  7  1  0
  7  8  1  0
  7  9  1  0
  6 10  1  0
 10 11  2  0
 11 12  1  0
 12 13  2  0
 13 14  1  0
 14 15  1  0
 15 16  1  0
 15 17  2  0
 12 18  1  0
 18 19  1  0
 19 20  1  0
 20 21  1  0
 21 22  1  0
 22 23  1  0
 22 24  1  0
 22 25  1  0
 25 26  1  0
 27 26  1  6
 27 28  1  0
 28 29  1  0
 13  5  1  0
 25 18  1  0
 27 11  1  0
 29 18  1  0
M  END
>  <identifier>  (1617) 
CNP0080536.1

>  <canonical_smiles>  (1617) 
CC(=O)OC1=C(C(C)C)C=C2C(=C1OC(C)=O)[C@@]13CCCC(C)(C)C1C[C@@H]2OC3

>  <standard_inchi>  (1617) 
InChI=1S/C24H32O5/c1-13(2)16-10-17-18-11-19-23(5,6)8-7-9-24(19,12-27-18)20(17)22(29-15(4)26)21(16)28-14(3)25/h10,13,18-19H,7-9,11-12H2,1-6H3/t18-,19?,24+/m0/s1

>  <standard_inchi_key>  (1617) 
GINOEDXLNMHUDV-OOJICCNXSA-N

>  <name>  (1617) 
nan

>  <iupac_name>  (1617) 
[(1~{R},8~{S})-3-acetoxy-5-isopropyl-11,11-dimethyl-16-oxatetracyclo[6.6.2.0^{1,10}.0^{2,7}]hexadeca-2,4,6-trien-4-yl] acetate

>  <annotation_level>  (1617) 
4

>  <total_atom_count>  (1617) 
61

>  <heavy_atom_count>  (1617) 
29

>  <molecular_weight>  (1617) 
400.52

>  <exact_molecular_weight>  (1617) 
400.22497

>  <molecular_formula>  (1617) 
C24H32O5

>  <alogp>  (1617) 
5.20

>  <topological_polar_surface_area>  (1617) 
61.83

>  <rotatable_bond_count>  (1617) 
3

>  <hydrogen_bond_acceptors>  (1617) 
5

>  <hydrogen_bond_donors>  (1617) 
0

>  <hydrogen_bond_acceptors_lipinski>  (1617) 
5

>  <hydrogen_bond_donors_lipinski>  (1617) 
0

>  <lipinski_rule_of_five_violations>  (1617) 
1

>  <aromatic_rings_count>  (1617) 
1

>  <qed_drug_likeliness>  (1617) 
0.52

>  <formal_charge>  (1617) 
0

>  <fractioncsp3>  (1617) 
0.67

>  <number_of_minimal_rings>  (1617) 
5

>  <van_der_walls_volume>  (1617) 
nan

>  <contains_sugar>  (1617) 
False

>  <contains_ring_sugars>  (1617) 
False

>  <contains_linear_sugars>  (1617) 
False

>  <murcko_framework>  (1617) 
O1CC23c4ccccc4C1CC3CCCC2

>  <np_likeness>  (1617) 
1.92

>  <chemical_class>  (1617) 
Prenol lipids

>  <chemical_sub_class>  (1617) 
Diterpenoids

>  <chemical_super_class>  (1617) 
Lipids and lipid-like molecules

>  <direct_parent_classification>  (1617) 
Diterpenoids

>  <np_classifier_pathway>  (1617) 
Terpenoids

>  <np_classifier_superclass>  (1617) 
Diterpenoids

>  <np_classifier_class>  (1617) 
Abeoabietane diterpenoids

>  <np_classifier_is_glycoside>  (1617) 
False

>  <organisms>  (1617) 
Coleus barbatus|Plectranthus barbatus

>  <collections>  (1617) 
Latin America dataset|NuBBEDB|WikiData Natural Products

>  <dois>  (1617) 
10.1016/S0031-9422(00)83467-6

>  <synonyms>  (1617) 
2H-94a-(Epoxymethano)phenanthrene-56-diol 13491010a-hexahydro-11-dimethyl-7-(1-methylethyl)- diacetate [4aR-(4a\u221a\u00e9\u00ac\u00b19\u221a\u00e9\u00ac\u00b110a\u221a\u00e9\u00ac\u2264)], 20-deoxocarnosol diacetate

>  <cas>  (1617) 
nan

$$$$

     RDKit          2D

 24 27  0  0  0  0  0  0  0  0999 V2000
    3.7929    4.3600    0.0000 C   0  0  0  0  0  0  0  0  0  0  0  0
    3.7700    2.8602    0.0000 C   0  0  0  0  0  0  0  0  0  0  0  0
    2.4597    2.1301    0.0000 C   0  0  0  0  0  0  0  0  0  0  0  0
    2.4368    0.6302    0.0000 C   0  0  0  0  0  0  0  0  0  0  0  0
    3.7243   -0.1395    0.0000 C   0  0  0  0  0  0  0  0  0  0  0  0
    3.7014   -1.6393    0.0000 C   0  0  0  0  0  0  0  0  0  0  0  0
    4.9889   -2.4090    0.0000 O   0  0  0  0  0  0  0  0  0  0  0  0
    2.3911   -2.3694    0.0000 C   0  0  0  0  0  0  0  0  0  0  0  0
    2.3682   -3.8692    0.0000 O   0  0  0  0  0  0  0  0  0  0  0  0
    1.1036   -1.5997    0.0000 C   0  0  0  0  0  0  0  0  0  0  0  0
    1.1265   -0.0999    0.0000 C   0  0  0  0  0  0  0  0  0  0  0  0
   -0.1610    0.6698    0.0000 O   0  0  0  0  0  0  0  0  0  0  0  0
    0.2048   -0.3230    0.0000 C   0  0  0  0  0  0  0  0  0  0  0  0
   -1.2892   -0.4571    0.0000 C   0  0  0  0  0  0  0  0  0  0  0  0
   -1.9201   -1.8179    0.0000 C   0  0  0  0  0  0  0  0  0  0  0  0
   -3.4141   -1.9520    0.0000 C   0  0  0  0  0  0  0  0  0  0  0  0
   -4.2772   -0.7251    0.0000 C   0  0  0  0  0  0  0  0  0  0  0  0
   -5.7664   -0.5456    0.0000 O   0  0  0  0  0  0  0  0  0  0  0  0
   -6.0559    0.9262    0.0000 C   0  0  0  0  0  0  0  0  0  0  0  0
   -4.7456    1.6563    0.0000 O   0  0  0  0  0  0  0  0  0  0  0  0
   -3.6463    0.6357    0.0000 C   0  0  0  0  0  0  0  0  0  0  0  0
   -2.1523    0.7698    0.0000 C   0  0  0  0  0  0  0  0  0  0  0  0
    0.9745    0.9644    0.0000 C   0  0  0  0  0  0  0  0  0  0  0  0
    0.3854    2.3439    0.0000 C   0  0  0  0  0  0  0  0  0  0  0  0
  1  2  2  0
  2  3  1  0
  4  3  1  6
  4  5  1  0
  5  6  1  0
  6  7  2  0
  6  8  1  0
  8  9  1  1
  8 10  1  0
 10 11  1  1
 11 12  1  0
 10 13  1  0
 13 14  1  6
 14 15  2  0
 15 16  1  0
 16 17  2  0
 17 18  1  0
 18 19  1  0
 19 20  1  0
 20 21  1  0
 21 22  2  0
 13 23  1  0
 23 24  1  1
 11  4  1  0
 22 14  1  0
 23  4  1  0
 21 17  1  0
M  END
>  <identifier>  (1618) 
CNP0221368.1

>  <canonical_smiles>  (1618) 
C=CC[C@]12CC(=O)[C@@H](O)[C@@H](C1O)[C@H](C1=CC=C3OCOC3=C1)[C@H]2C

>  <standard_inchi>  (1618) 
InChI=1S/C19H22O5/c1-3-6-19-8-12(20)17(21)16(18(19)22)15(10(19)2)11-4-5-13-14(7-11)24-9-23-13/h3-5,7,10,15-18,21-22H,1,6,8-9H2,2H3/t10-,15+,16+,17-,18?,19-/m1/s1

>  <standard_inchi_key>  (1618) 
FBPLISOOTGTZGY-SRXJVQRQSA-N

>  <name>  (1618) 
nan

>  <iupac_name>  (1618) 
(1~{R},4~{S},5~{R},6~{R},7~{R})-1-allyl-6-(1,3-benzodioxol-5-yl)-4,8-dihydroxy-7-methyl-bicyclo[3.2.1]octan-3-one

>  <annotation_level>  (1618) 
4

>  <total_atom_count>  (1618) 
46

>  <heavy_atom_count>  (1618) 
24

>  <molecular_weight>  (1618) 
330.38

>  <exact_molecular_weight>  (1618) 
330.14672

>  <molecular_formula>  (1618) 
C19H22O5

>  <alogp>  (1618) 
2.02

>  <topological_polar_surface_area>  (1618) 
75.99

>  <rotatable_bond_count>  (1618) 
3

>  <hydrogen_bond_acceptors>  (1618) 
5

>  <hydrogen_bond_donors>  (1618) 
2

>  <hydrogen_bond_acceptors_lipinski>  (1618) 
5

>  <hydrogen_bond_donors_lipinski>  (1618) 
2

>  <lipinski_rule_of_five_violations>  (1618) 
0

>  <aromatic_rings_count>  (1618) 
1

>  <qed_drug_likeliness>  (1618) 
0.83

>  <formal_charge>  (1618) 
0

>  <fractioncsp3>  (1618) 
0.53

>  <number_of_minimal_rings>  (1618) 
4

>  <van_der_walls_volume>  (1618) 
nan

>  <contains_sugar>  (1618) 
False

>  <contains_ring_sugars>  (1618) 
False

>  <contains_linear_sugars>  (1618) 
False

>  <murcko_framework>  (1618) 
O1c2ccc(cc2OC1)C3CC4CCCC3C4

>  <np_likeness>  (1618) 
1.56

>  <chemical_class>  (1618) 
Benzodioxoles

>  <chemical_sub_class>  (1618) 
Benzodioxoles

>  <chemical_super_class>  (1618) 
Organoheterocyclic compounds

>  <direct_parent_classification>  (1618) 
Benzodioxoles

>  <np_classifier_pathway>  (1618) 
Shikimates and Phenylpropanoids

>  <np_classifier_superclass>  (1618) 
Lignans

>  <np_classifier_class>  (1618) 
Neolignans

>  <np_classifier_is_glycoside>  (1618) 
False

>  <organisms>  (1618) 
Aniba|Aniba sp.

>  <collections>  (1618) 
Latin America dataset|NuBBEDB|WikiData Natural Products

>  <dois>  (1618) 
10.1016/0031-9422(80)83208-0

>  <synonyms>  (1618) 
(7R8R1'R2'R3'S4'S)-(\u221a\u00e9\u201a\u00c4\u00f98')-2'4'-Dihydroxy-34-methylenedioxy-1'2'3'4'5'6'-hexahydro-5'-oxo-7.3'8.1'-neolignan

>  <cas>  (1618) 
nan

$$$$

     RDKit          2D

 30 32  0  0  0  0  0  0  0  0999 V2000
   -4.2300    3.8684    0.0000 C   0  0  0  0  0  0  0  0  0  0  0  0
   -5.0724    2.6273    0.0000 O   0  0  0  0  0  0  0  0  0  0  0  0
   -4.4188    1.2772    0.0000 C   0  0  0  0  0  0  0  0  0  0  0  0
   -2.9228    1.1682    0.0000 C   0  0  0  0  0  0  0  0  0  0  0  0
   -2.2692   -0.1819    0.0000 C   0  0  0  0  0  0  0  0  0  0  0  0
   -0.7732   -0.2910    0.0000 C   0  0  0  0  0  0  0  0  0  0  0  0
   -0.1196   -1.6411    0.0000 C   0  0  0  0  0  0  0  0  0  0  0  0
   -0.9621   -2.8822    0.0000 O   0  0  0  0  0  0  0  0  0  0  0  0
   -2.4581   -2.7731    0.0000 C   0  0  0  0  0  0  0  0  0  0  0  0
    1.3764   -1.7501    0.0000 C   0  0  0  0  0  0  0  0  0  0  0  0
    2.0300   -3.1003    0.0000 O   0  0  0  0  0  0  0  0  0  0  0  0
    2.2189   -0.5091    0.0000 C   0  0  0  0  0  0  0  0  0  0  0  0
    3.7149   -0.6181    0.0000 C   0  0  0  0  0  0  0  0  0  0  0  0
    4.3685   -1.9682    0.0000 O   0  0  0  0  0  0  0  0  0  0  0  0
    5.8645   -2.0773    0.0000 C   0  0  0  0  0  0  0  0  0  0  0  0
    4.5573    0.6230    0.0000 C   0  0  0  0  0  0  0  0  0  0  0  0
    6.0534    0.5139    0.0000 O   0  0  0  0  0  0  0  0  0  0  0  0
    6.7070   -0.8362    0.0000 C   0  0  0  0  0  0  0  0  0  0  0  0
    3.9038    1.9731    0.0000 C   0  0  0  0  0  0  0  0  0  0  0  0
    4.7462    3.2142    0.0000 O   0  0  0  0  0  0  0  0  0  0  0  0
    6.2422    3.1051    0.0000 C   0  0  0  0  0  0  0  0  0  0  0  0
    2.4077    2.0821    0.0000 C   0  0  0  0  0  0  0  0  0  0  0  0
    1.5653    0.8411    0.0000 C   0  0  0  0  0  0  0  0  0  0  0  0
    0.0692    0.9501    0.0000 O   0  0  0  0  0  0  0  0  0  0  0  0
   -3.1117   -1.4230    0.0000 C   0  0  0  0  0  0  0  0  0  0  0  0
   -4.6077   -1.3140    0.0000 C   0  0  0  0  0  0  0  0  0  0  0  0
   -5.4502   -2.5551    0.0000 O   0  0  0  0  0  0  0  0  0  0  0  0
   -5.2613    0.0361    0.0000 C   0  0  0  0  0  0  0  0  0  0  0  0
   -6.7573    0.1452    0.0000 O   0  0  0  0  0  0  0  0  0  0  0  0
   -7.4109    1.4953    0.0000 C   0  0  0  0  0  0  0  0  0  0  0  0
  1  2  1  0
  2  3  1  0
  3  4  2  0
  4  5  1  0
  5  6  1  0
  6  7  2  0
  7  8  1  0
  8  9  1  0
  7 10  1  0
 10 11  2  0
 10 12  1  0
 12 13  2  0
 13 14  1  0
 14 15  1  0
 13 16  1  0
 16 17  1  0
 17 18  1  0
 16 19  2  0
 19 20  1  0
 20 21  1  0
 19 22  1  0
 22 23  2  0
 23 24  1  0
  5 25  2  0
 25 26  1  0
 26 27  1  0
 26 28  2  0
 28 29  1  0
 29 30  1  0
 28  3  1  0
 24  6  1  0
 23 12  1  0
M  END
>  <identifier>  (1619) 
CNP0209480.0

>  <canonical_smiles>  (1619) 
COC1=CC(C2=C(OC)C(=O)C3=C(OC)C(OC)=C(OC)C=C3O2)=CC(O)=C1OC

>  <standard_inchi>  (1619) 
InChI=1S/C21H22O9/c1-24-13-8-10(7-11(22)18(13)26-3)17-21(29-6)16(23)15-12(30-17)9-14(25-2)19(27-4)20(15)28-5/h7-9,22H,1-6H3

>  <standard_inchi_key>  (1619) 
YVPMEHQFKWNMQP-UHFFFAOYSA-N

>  <name>  (1619) 
nan

>  <iupac_name>  (1619) 
2-(3-hydroxy-4,5-dimethoxy-phenyl)-3,5,6,7-tetramethoxy-chromen-4-one

>  <annotation_level>  (1619) 
4

>  <total_atom_count>  (1619) 
52

>  <heavy_atom_count>  (1619) 
30

>  <molecular_weight>  (1619) 
418.4

>  <exact_molecular_weight>  (1619) 
418.12638

>  <molecular_formula>  (1619) 
C21H22O9

>  <alogp>  (1619) 
3.22

>  <topological_polar_surface_area>  (1619) 
105.82

>  <rotatable_bond_count>  (1619) 
7

>  <hydrogen_bond_acceptors>  (1619) 
9

>  <hydrogen_bond_donors>  (1619) 
1

>  <hydrogen_bond_acceptors_lipinski>  (1619) 
9

>  <hydrogen_bond_donors_lipinski>  (1619) 
1

>  <lipinski_rule_of_five_violations>  (1619) 
0

>  <aromatic_rings_count>  (1619) 
3

>  <qed_drug_likeliness>  (1619) 
0.62

>  <formal_charge>  (1619) 
0

>  <fractioncsp3>  (1619) 
0.29

>  <number_of_minimal_rings>  (1619) 
3

>  <van_der_walls_volume>  (1619) 
359.62

>  <contains_sugar>  (1619) 
False

>  <contains_ring_sugars>  (1619) 
False

>  <contains_linear_sugars>  (1619) 
False

>  <murcko_framework>  (1619) 
O1c2ccccc2CC=C1c3ccccc3

>  <np_likeness>  (1619) 
1.21

>  <chemical_class>  (1619) 
Flavonoids

>  <chemical_sub_class>  (1619) 
O-methylated flavonoids

>  <chemical_super_class>  (1619) 
Phenylpropanoids and polyketides

>  <direct_parent_classification>  (1619) 
6-O-methylated flavonoids

>  <np_classifier_pathway>  (1619) 
Shikimates and Phenylpropanoids

>  <np_classifier_superclass>  (1619) 
Flavonoids

>  <np_classifier_class>  (1619) 
Flavonols

>  <np_classifier_is_glycoside>  (1619) 
False

>  <organisms>  (1619) 
Adiantum monochlamys|Apuleia leiocarpa|Baileya pauciradiata|Becium grandiflorum|Centaurea webbiana|Commiphora erythraea|Crinum yemense|Lissoclinum bistratum|Pachyphragma macrophyllum|Spilanthes mauritiana|Vernonanthura chamaedrys|Vicia faba

>  <collections>  (1619) 
CMAUP (cCollective molecular activities of useful plants)|Latin America dataset|NPASS|NuBBEDB|UNPD (Universal Natural Products Database)|WikiData Natural Products|ZINC NP

>  <dois>  (1619) 
10.1016/S0031-9422(00)89891-X

>  <synonyms>  (1619) 
Apuleirin

>  <cas>  (1619) 
nan

$$$$

     RDKit          2D

 16 15  0  0  0  0  0  0  0  0999 V2000
    8.7582    0.6334    0.0000 C   0  0  0  0  0  0  0  0  0  0  0  0
    7.4734   -0.1409    0.0000 C   0  0  0  0  0  0  0  0  0  0  0  0
    6.1605    0.5846    0.0000 O   0  0  0  0  0  0  0  0  0  0  0  0
    4.8758   -0.1897    0.0000 C   0  0  0  0  0  0  0  0  0  0  0  0
    4.9040   -1.6894    0.0000 O   0  0  0  0  0  0  0  0  0  0  0  0
    3.5629    0.5358    0.0000 C   0  0  0  0  0  0  0  0  0  0  0  0
    2.2782   -0.2385    0.0000 C   0  0  0  0  0  0  0  0  0  0  0  0
    0.9653    0.4870    0.0000 C   0  0  0  0  0  0  0  0  0  0  0  0
   -0.3194   -0.2873    0.0000 C   0  0  0  0  0  0  0  0  0  0  0  0
   -1.6323    0.4382    0.0000 C   0  0  0  0  0  0  0  0  0  0  0  0
   -2.9170   -0.3361    0.0000 C   0  0  0  0  0  0  0  0  0  0  0  0
   -4.2299    0.3893    0.0000 C   0  0  0  0  0  0  0  0  0  0  0  0
   -5.5147   -0.3849    0.0000 C   0  0  0  0  0  0  0  0  0  0  0  0
   -6.8276    0.3405    0.0000 C   0  0  0  0  0  0  0  0  0  0  0  0
   -8.1123   -0.4338    0.0000 C   0  0  0  0  0  0  0  0  0  0  0  0
   -9.4252    0.2917    0.0000 C   0  0  0  0  0  0  0  0  0  0  0  0
  1  2  2  0
  2  3  1  0
  3  4  1  0
  4  5  2  0
  4  6  1  0
  6  7  1  0
  7  8  1  0
  8  9  1  0
  9 10  1  0
 10 11  1  0
 11 12  1  0
 12 13  1  0
 13 14  1  0
 14 15  1  0
 15 16  1  0
M  END
>  <identifier>  (1620) 
CNP0315574.0

>  <canonical_smiles>  (1620) 
C=COC(=O)CCCCCCCCCCC

>  <standard_inchi>  (1620) 
InChI=1S/C14H26O2/c1-3-5-6-7-8-9-10-11-12-13-14(15)16-4-2/h4H,2-3,5-13H2,1H3

>  <standard_inchi_key>  (1620) 
GLVVKKSPKXTQRB-UHFFFAOYSA-N

>  <name>  (1620) 
Vinyl laurate

>  <iupac_name>  (1620) 
vinyl dodecanoate

>  <annotation_level>  (1620) 
5

>  <total_atom_count>  (1620) 
42

>  <heavy_atom_count>  (1620) 
16

>  <molecular_weight>  (1620) 
226.36

>  <exact_molecular_weight>  (1620) 
226.19328

>  <molecular_formula>  (1620) 
C14H26O2

>  <alogp>  (1620) 
4.59

>  <topological_polar_surface_area>  (1620) 
26.30

>  <rotatable_bond_count>  (1620) 
11

>  <hydrogen_bond_acceptors>  (1620) 
2

>  <hydrogen_bond_donors>  (1620) 
0

>  <hydrogen_bond_acceptors_lipinski>  (1620) 
2

>  <hydrogen_bond_donors_lipinski>  (1620) 
0

>  <lipinski_rule_of_five_violations>  (1620) 
0

>  <aromatic_rings_count>  (1620) 
0

>  <qed_drug_likeliness>  (1620) 
0.29

>  <formal_charge>  (1620) 
0

>  <fractioncsp3>  (1620) 
0.79

>  <number_of_minimal_rings>  (1620) 
0

>  <van_der_walls_volume>  (1620) 
251.95

>  <contains_sugar>  (1620) 
False

>  <contains_ring_sugars>  (1620) 
False

>  <contains_linear_sugars>  (1620) 
False

>  <murcko_framework>  (1620) 
nan

>  <np_likeness>  (1620) 
0.76

>  <chemical_class>  (1620) 
Fatty Acyls

>  <chemical_sub_class>  (1620) 
Fatty acid esters

>  <chemical_super_class>  (1620) 
Lipids and lipid-like molecules

>  <direct_parent_classification>  (1620) 
Fatty acid esters

>  <np_classifier_pathway>  (1620) 
Fatty acids

>  <np_classifier_superclass>  (1620) 
Fatty esters

>  <np_classifier_class>  (1620) 
Wax monoesters

>  <np_classifier_is_glycoside>  (1620) 
False

>  <organisms>  (1620) 
Pilocarpus jaborandi|Zanthoxylum planispinum

>  <collections>  (1620) 
CMAUP (cCollective molecular activities of useful plants)|Latin America dataset|NPASS|NuBBEDB|TCMID (Traditional Chinese Medicine Integrated Database)|WikiData Natural Products|ZINC NP

>  <dois>  (1620) 
10.1021/NP50006A014|10.1021/np50006a014

>  <synonyms>  (1620) 
2146-71-6|AKOS028108503|CAA14671|CP59R9UN62|CS-0167844|DB-045591|DTXSID7074953|Dodecanoic acid, ethenyl ester|EC 218-414-7|EINECS 218-414-7|HY-W106424|J-014086|L0090|LS-14354|Lauric Acid Vinyl Ester|Lauric acid, vinyl ester|MFCD00048421|NS00009930|NSC 32650|NSC-32650|SCHEMBL18055|UNII-CP59R9UN62|Vinyl dodecanoate|Vinyl laurate, >=99.0% (GC)|Vinyl laurate, produced by Wacker Chemie AG, Burghausen, Germany, >=98.0% (GC)|VinylLaurate(stabilizedwithMEHQ)|dodecanoic acid vinyl ester|ethenyl dodecanoate|vinyllaurate

>  <cas>  (1620) 
2146-71-6

$$$$

     RDKit          2D

 20 19  0  0  0  0  0  0  0  0999 V2000
  -11.8200   -0.4124    0.0000 C   0  0  0  0  0  0  0  0  0  0  0  0
  -10.5233    0.3417    0.0000 C   0  0  0  0  0  0  0  0  0  0  0  0
   -9.2219   -0.4041    0.0000 C   0  0  0  0  0  0  0  0  0  0  0  0
   -7.9253    0.3500    0.0000 C   0  0  0  0  0  0  0  0  0  0  0  0
   -6.6239   -0.3959    0.0000 C   0  0  0  0  0  0  0  0  0  0  0  0
   -5.3272    0.3582    0.0000 C   0  0  0  0  0  0  0  0  0  0  0  0
   -4.0258   -0.3877    0.0000 C   0  0  0  0  0  0  0  0  0  0  0  0
   -2.7292    0.3664    0.0000 C   0  0  0  0  0  0  0  0  0  0  0  0
   -1.4277   -0.3795    0.0000 C   0  0  0  0  0  0  0  0  0  0  0  0
   -0.1311    0.3746    0.0000 C   0  0  0  0  0  0  0  0  0  0  0  0
    1.1703   -0.3713    0.0000 C   0  0  0  0  0  0  0  0  0  0  0  0
    2.4670    0.3828    0.0000 C   0  0  0  0  0  0  0  0  0  0  0  0
    3.7684   -0.3631    0.0000 C   0  0  0  0  0  0  0  0  0  0  0  0
    5.0650    0.3910    0.0000 C   0  0  0  0  0  0  0  0  0  0  0  0
    5.0603    1.8910    0.0000 O   0  0  0  0  0  0  0  0  0  0  0  0
    6.3664   -0.3549    0.0000 N   0  0  0  0  0  0  0  0  0  0  0  0
    7.6631    0.3992    0.0000 C   0  0  0  0  0  0  0  0  0  0  0  0
    8.9645   -0.3467    0.0000 C   0  0  0  0  0  0  0  0  0  0  0  0
   10.2612    0.4074    0.0000 C   0  0  0  0  0  0  0  0  0  0  0  0
    8.9692   -1.8467    0.0000 C   0  0  0  0  0  0  0  0  0  0  0  0
  1  2  1  0
  2  3  1  0
  3  4  1  0
  4  5  1  0
  5  6  1  0
  6  7  1  0
  7  8  1  0
  8  9  1  0
  9 10  1  0
 10 11  2  0
 11 12  1  0
 12 13  2  0
 13 14  1  0
 14 15  2  0
 14 16  1  0
 16 17  1  0
 17 18  1  0
 18 19  1  0
 18 20  1  0
M  END
>  <identifier>  (1621) 
CNP0131538.1

>  <canonical_smiles>  (1621) 
CCCCCCCCC/C=C/C=C/C(=O)NCC(C)C

>  <standard_inchi>  (1621) 
InChI=1S/C18H33NO/c1-4-5-6-7-8-9-10-11-12-13-14-15-18(20)19-16-17(2)3/h12-15,17H,4-11,16H2,1-3H3,(H,19,20)/b13-12+,15-14+

>  <standard_inchi_key>  (1621) 
AGJAUFUNZWHLKE-SQIWNDBBSA-N

>  <name>  (1621) 
nan

>  <iupac_name>  (1621) 
nan

>  <annotation_level>  (1621) 
0

>  <total_atom_count>  (1621) 
53

>  <heavy_atom_count>  (1621) 
20

>  <molecular_weight>  (1621) 
279.47

>  <exact_molecular_weight>  (1621) 
279.25621

>  <molecular_formula>  (1621) 
C18H33NO

>  <alogp>  (1621) 
5.01

>  <topological_polar_surface_area>  (1621) 
29.10

>  <rotatable_bond_count>  (1621) 
12

>  <hydrogen_bond_acceptors>  (1621) 
1

>  <hydrogen_bond_donors>  (1621) 
1

>  <hydrogen_bond_acceptors_lipinski>  (1621) 
1

>  <hydrogen_bond_donors_lipinski>  (1621) 
1

>  <lipinski_rule_of_five_violations>  (1621) 
1

>  <aromatic_rings_count>  (1621) 
0

>  <qed_drug_likeliness>  (1621) 
0.30

>  <formal_charge>  (1621) 
0

>  <fractioncsp3>  (1621) 
0.72

>  <number_of_minimal_rings>  (1621) 
0

>  <van_der_walls_volume>  (1621) 
315.34

>  <contains_sugar>  (1621) 
False

>  <contains_ring_sugars>  (1621) 
False

>  <contains_linear_sugars>  (1621) 
False

>  <murcko_framework>  (1621) 
nan

>  <np_likeness>  (1621) 
0.90

>  <chemical_class>  (1621) 
nan

>  <chemical_sub_class>  (1621) 
nan

>  <chemical_super_class>  (1621) 
nan

>  <direct_parent_classification>  (1621) 
nan

>  <np_classifier_pathway>  (1621) 
Fatty acids

>  <np_classifier_superclass>  (1621) 
Fatty amides

>  <np_classifier_class>  (1621) 
N-acyl amines

>  <np_classifier_is_glycoside>  (1621) 
False

>  <organisms>  (1621) 
Abies webbiana|Acanthosyris paulo-alvinii|Acanthothamnus aphyllus|Achillea magnifica|Agaricus xanthodermus|Aglaia perviridis|Aloe berhana|Anacyclus pyrethrum|Anisomeles malabarica|Ardisia japonica|Arnebia decumbens|Artabotrys uncinatus|Baccharis polyphylla|Berkheya rhapontica|Betula alnoides|Blastochloris viridis|Brickellia longifolia|Bryonopsis laciniosa|Bupleurum rigidum|Canis latrans|Carpesium longifolium|Cephalotaxus hainanensis|Chrysanthemum|Cirsium canum|Cladrastis kentukea|Clerodendrum cyrtophyllum|Cochlearia officinalis|Codonopsis canescens|Coelogyne nitida|Comatula pectinata|Cortinarius viola|Crinum stuhlmannii|Crocus corsicus|Crotalaria mitchellii|Dichotomanthes tristaniicarpa|Didymosphaeria enalia|Dracaena ombet|Dracontium loretense|Euphorbia wangii|Ferula gummosa|Frullania brasiliensis|Glycosmis puberula|Homalium laurifolium|Hypericum latifolium|Iridaea membranacea|Iryanthera polyneura|Leifsonia aquatica|Leucocyclus formosus|Lissoclinum japonicum|Livistona chinensis|Maesa japonica|Matsumurella chinensis|Monascus rubropunctatus|Monochoria vaginalis|Mycoplasma mycoides|Myrica arborea|Nigella aristata|Notholaena pilifera|Oocystis polymorpha|Otanthus maritimus|Palisota barteri|Passerina vulgaris|Penicillium tardum|Phoebe grandis|Photorhabdus luminescens|Piper boucheanum|Piper formosum|Piper frutescens|Piper nigrum|Piper retrofractum|Piper sarmentosum|Podocarpus minor|Polygala aureocauda|Polypodium vulgare|Pothomorphe peltata|Pseudomonas stutzeri|Pseudomonas syringae|Pseudoxandra sclerocarpa|Rubus pileatus|Saccharothrix mutabilis subsp. capreolus|Sanguisorba longifolia|Schefflera venulosa|Scrophularia leucoclada|Silene banksia|Sinularia leptoclados|Steinernema carpocapsae|Streptomyces naraensis|Stypandra imbricata|Teclea trichocarpa|Verbesina virginica|Vincetoxicum hirundinaria|Zanthoxylum ailanthoides|Zanthoxylum caribaeum|Zanthoxylum integrifoliolum|Zanthoxylum lemairei|Zanthoxylum nigrum|Zanthoxylum petiolare

>  <collections>  (1621) 
CMAUP (cCollective molecular activities of useful plants)|ChemSpider NPs|Latin America dataset|NPASS|NuBBEDB|Super Natural II|WikiData Natural Products|ZINC NP

>  <dois>  (1621) 
10.1002/CBER.19671000113|10.1002/JCCS.200300178|10.1016/0031-9422(81)83098-1|10.1016/0031-9422(81)85199-0|10.1016/0031-9422(92)83738-K|10.1016/J.BMC.2009.08.050|10.1016/J.BMC.2013.09.017|10.1016/S0031-9422(00)89656-9|10.1016/S0031-9422(99)00175-2|10.1021/JF0481857|10.1021/NP980224J|10.1055/S-2006-960460|10.1080/14786410902757998|10.3390/MOLECULES15042398

>  <synonyms>  (1621) 
nan

>  <cas>  (1621) 
nan

$$$$

     RDKit          2D

 15 16  0  0  0  0  0  0  0  0999 V2000
    1.1159   -3.2673    0.0000 C   0  0  0  0  0  0  0  0  0  0  0  0
    0.2686   -2.0295    0.0000 C   0  0  0  0  0  0  0  0  0  0  0  0
   -1.1843   -2.4023    0.0000 C   0  0  0  0  0  0  0  0  0  0  0  0
   -2.5370   -1.7540    0.0000 C   0  0  0  0  0  0  0  0  0  0  0  0
   -3.1564   -0.3879    0.0000 C   0  0  0  0  0  0  0  0  0  0  0  0
   -2.7528    1.0568    0.0000 C   0  0  0  0  0  0  0  0  0  0  0  0
   -3.9724    1.9301    0.0000 C   0  0  0  0  0  0  0  0  0  0  0  0
   -1.5150    1.9041    0.0000 C   0  0  0  0  0  0  0  0  0  0  0  0
   -0.0222    1.7575    0.0000 C   0  0  0  0  0  0  0  0  0  0  0  0
    1.0271    0.6856    0.0000 C   0  0  0  0  0  0  0  0  0  0  0  0
    1.1420   -0.8100    0.0000 C   0  0  0  0  0  0  0  0  0  0  0  0
    2.6376   -0.6951    0.0000 C   0  0  0  0  0  0  0  0  0  0  0  0
    2.5227    0.8005    0.0000 C   0  0  0  0  0  0  0  0  0  0  0  0
    2.4078    2.2961    0.0000 C   0  0  0  0  0  0  0  0  0  0  0  0
    4.0183    0.9154    0.0000 C   0  0  0  0  0  0  0  0  0  0  0  0
  1  2  2  0
  2  3  1  0
  3  4  1  0
  4  5  1  0
  5  6  2  0
  6  7  1  0
  6  8  1  0
  8  9  1  0
 10  9  1  1
 10 11  1  0
 11 12  1  6
 12 13  1  0
 13 14  1  0
 13 15  1  0
 11  2  1  0
 13 10  1  0
M  END
>  <identifier>  (1622) 
CNP0212910.3

>  <canonical_smiles>  (1622) 
C=C1CC/C=C(/C)CC[C@@H]2[C@@H]1CC2(C)C

>  <standard_inchi>  (1622) 
InChI=1S/C15H24/c1-11-6-5-7-12(2)13-10-15(3,4)14(13)9-8-11/h6,13-14H,2,5,7-10H2,1,3-4H3/b11-6-/t13-,14-/m1/s1

>  <standard_inchi_key>  (1622) 
NPNUFJAVOOONJE-FLFDDASRSA-N

>  <name>  (1622) 
Isocaryophyllene

>  <iupac_name>  (1622) 
(1~{R},4~{Z},9~{S})-4,11,11-trimethyl-8-methylene-bicyclo[7.2.0]undec-4-ene

>  <annotation_level>  (1622) 
5

>  <total_atom_count>  (1622) 
39

>  <heavy_atom_count>  (1622) 
15

>  <molecular_weight>  (1622) 
204.36

>  <exact_molecular_weight>  (1622) 
204.1878

>  <molecular_formula>  (1622) 
C15H24

>  <alogp>  (1622) 
4.73

>  <topological_polar_surface_area>  (1622) 
0.00

>  <rotatable_bond_count>  (1622) 
0

>  <hydrogen_bond_acceptors>  (1622) 
0

>  <hydrogen_bond_donors>  (1622) 
0

>  <hydrogen_bond_acceptors_lipinski>  (1622) 
0

>  <hydrogen_bond_donors_lipinski>  (1622) 
0

>  <lipinski_rule_of_five_violations>  (1622) 
0

>  <aromatic_rings_count>  (1622) 
0

>  <qed_drug_likeliness>  (1622) 
0.50

>  <formal_charge>  (1622) 
0

>  <fractioncsp3>  (1622) 
0.73

>  <number_of_minimal_rings>  (1622) 
2

>  <van_der_walls_volume>  (1622) 
225.46

>  <contains_sugar>  (1622) 
False

>  <contains_ring_sugars>  (1622) 
False

>  <contains_linear_sugars>  (1622) 
False

>  <murcko_framework>  (1622) 
C1=CCCC2CCC2CCC1

>  <np_likeness>  (1622) 
3.43

>  <chemical_class>  (1622) 
Prenol lipids

>  <chemical_sub_class>  (1622) 
Sesquiterpenoids

>  <chemical_super_class>  (1622) 
Lipids and lipid-like molecules

>  <direct_parent_classification>  (1622) 
Sesquiterpenoids

>  <np_classifier_pathway>  (1622) 
Terpenoids

>  <np_classifier_superclass>  (1622) 
Sesquiterpenoids

>  <np_classifier_class>  (1622) 
Caryophyllane sesquiterpenoids

>  <np_classifier_is_glycoside>  (1622) 
False

>  <organisms>  (1622) 
Abies alba|Abies cilicica|Abies nordmanniana|Abies pinsapo subsp. marocana|Abies sachalinensis|Abies sibirica|Abutilon indicum|Acanthospermum hispidum|Acca sellowiana|Achillea abrotanoides|Achillea ageratum|Achillea arabica|Achillea asiatica|Achillea biebersteinii|Achillea collina|Achillea crithmifolia|Achillea erba-rotta|Achillea grandifolia|Achillea millefolium|Achillea moschata|Achillea nana|Achillea nobilis|Achillea ptarmica|Achyrospermum africanum|Acorus calamus|Actaea simplex|Actinodaphne acuminata|Actinodaphne longifolia|Aegle marmelos|Aeollanthus parvifolius|Aesculus hippocastanum|Aframomum melegueta|African blue basil|Afrocarpus mannii|Agastache foeniculum|Agastache rugosa|Ageratina anisochroma|Ageratina ligustrina|Ageratum conyzoides|Aglaia odoratissima|Agrimonia pilosa|Aguacate|Aiouea costaricensis|Aloysia citriodora|Aloysia citrodora|Aloysia gratissima|Aloysia triphylla|Alpinia breviligulata|Alpinia chinensis|Alpinia conchigera|Alpinia galanga|Alpinia latilabris|Alpinia zerumbet|Ambrosia artemisiifolia|Ambrosia artemisioides|Amomum longiligulare|Amomum villosum|Amomum xanthioides|Amomyrtus luma|Amyris elemifera|Anethum graveolens|Angelica archangelica|Angostura trifoliata|Aniba puchury-minor|Annona muricata|Annona reticulata|Annona squamosa|Anthemis cotula|Antidesma laciniatum|Apium graveolens|Arabidopsis thaliana|Araucaria araucana|Araucaria columnaris|Araucaria cunninghamii|Araucaria excelsa|Arctium lappa|Aristolochia birostris|Aristolochia cymbifera|Aristolochia debilis|Aristolochia didyma|Aristolochia elegans|Aristolochia gigantea|Aristolochia littoralis|Aristolochia macroura|Aristolochia triangularis|Aristolochia trilobata|Artabotrys hexapetalus|Artabotrys stenopetalus|Artemisia|Artemisia absinthium|Artemisia afra|Artemisia alba|Artemisia ammaniana|Artemisia annua|Artemisia annua L.|Artemisia apiacea|Artemisia arborescens|Artemisia argyi|Artemisia baldshuanica|Artemisia capillaris|Artemisia douglasiana|Artemisia filifolia|Artemisia frigida|Artemisia glauca|Artemisia gmelinii|Artemisia herba-alba|Artemisia indica|Artemisia iwayomogi|Artemisia lagocephala|Artemisia lagopus|Artemisia montana|Artemisia palustris|Artemisia princeps|Artemisia rubripes|Artemisia salsoloides|Artemisia schmidtiana|Artemisia sericea|Artemisia thuscula|Artemisia tridentata|Artemisia verlotiorum|Artemisia verlotorum|Artemisia vulgaris|Arum maculatum|Asarum asperum|Asarum celsum|Asarum dilatatum|Asarum fauriei|Asarum gusk|Asarum hatushimae|Asarum kumageanum|Asarum lutchuense|Asarum macranthum|Asarum megacalyx|Asarum nipponicum|Asarum rigescens|Asarum simile|Asarum takaoi|Asarum trigynum|Asarum yaeyamense|Asarum yakusimense|Aspilia paludosa|Aster scaber|Asteraceae|Atalantia buxifolia|Athamanta macedonica|Athrixia elata|Atractylodes chinensis|Atractylodes lancea|Aucklandia costus|Aucklandia lappa|Austrobaileya scandens|Austrobrickellia patens|Austroeupatorium inulaefolium|Austromyrtus dulcis|Austromyrtus tenuifolia|Avena sativa|Ayapana amygdalina|Azadirachta indica|Baccharis articulata|Baccharis coridifolia|Baccharis dracunculifolia|Baccharis eggersii|Baccharis gnidiifolia|Baccharis grandicapitulata|Baccharis halimifolia|Baccharis heterophylla|Baccharis pedunculata|Baccharis rufescens|Baccharis salicina|Baccharis sarothroides|Bahia ambrosioides|Balantiopsis rosea|Barkleyanthus salicifolius|Bazzania japonica|Bazzania trilobata|Bejaranoa semistriata|Bellardia trixago|Betula pendula|Betula pubescens litwinowii|Bidens bipinnata|Bidens pilosa|Bitter bush|Blepharispermum zanguebaricum|Blepharocalyx salicifolius|Blepharocalyx tweediei|Boronia latipinna|Boswellia carteri|Boswellia frereana|Boswellia sacra|Bothriochloa bladhii|Bothriochloa pertusa|Bouchardatia neurococca|Brassica napus|Brassica nigra|Brickellia californica|Brickellia laciniata|Brickellia lemmonii|Brickellia veronicaefolia|Brillantaisia lamium|Brucea javanica|Bupleurum acutifolium|Bupleurum fruticescens|Bupleurum fruticosum|Bupleurum gibraltaricum|Bystropogon canariensis|Bystropogon mollis|Calamintha incana|Calea hispida|Calea jamaicensis|Calea pilosa|Calea prunifolia|Calea rotundifolia|Calea triantha|Calendula officinalis|Calophyllum inophyllum|Calycolpus warszewiczianus|Camellia sinensis|Cananga odorata|Canarium luzonicum|Canella winterana|Cannabis sativa|Cantinoa mutabilis|Capillipedium parviflorum|Carapichea ipecacuanha|Carum carvi|Casimiroa greggii|Cassinia laevis|Cassinia subtropica|Cassinia uncata|Catha cassinoides|Cedrela odorata|Cedrus libani|Centaurea armena|Centaurea oltensis|Centaurea sessilis|Centaurea solstitialis|Centella asiatica|Centratherum punctatum|Centromadia fitchii|Cephalotaxus griffithii|Cephalotaxus harringtonia|Cephalotaxus harringtonii|Cephalotaxus mannii|Chamaecyparis formosensis|Chamaecyparis lawsoniana|Chamaecyparis pisifera|Chamomilla recutita|Cheilolejeunea trifaria|Chengiopanax sciadophylloides|Chenopodium ambrosioides|Chromolaena laevigata|Chromolaena pulchella|Chromolaena tunariensis|Chrysanthemum indicum|Chrysanthemum x morifolium|Chrysocephalum ambiguum|Cimicifuga simplex|Cinamomum cassia|Cinnamomum aromaticum|Cinnamomum burmanni|Cinnamomum camphora|Cinnamomum impressinervium|Cinnamomum sieboldii|Cinnamomum subavenium|Cinnamomum zeylanicum|Cinnamon|Cistus albidus|Cistus creticus|Cistus ladanifer|Cistus laurifolius|Cistus monspeliensis|Citrus aurantium|Citrus grandis|Citrus hystrix|Citrus medica|Citrus natsudaidai|Citrus reticulata|Citrus sinensis|Citrus sunki|Citrus trifoliata|Citrus unshiu|Citrus wilsonii|Citrus × deliciosa|Citrus × paradisi|Cladosporium cladosporioides|Clausena excavata|Cleistopholis patens|Cleonia lusitanica|Clinopodium barbatum|Clinopodium brevifolium|Clinopodium brownei|Clinopodium carolinianum|Clinopodium grandiflorum|Clinopodium insulare|Coleonema pulchellum|Coleus amboinicus|Commiphora africana|Commiphora gurreh|Commiphora kataf|Commiphora myrrha|Commiphora quadricincta|Comptonia peregrina|Conocephalum japonicum|Conocephalum supradecompositum|Conyza bonariensis|Conyza newii|Conyza sumatrensis|Copaifera|Copaifera duckei|Copaifera guianensis|Copaifera langsdorffii|Copaifera langsdorfii|Copaifera multijuga|Coreopsis senaria|Coriandrum sativum|Cornus officinalis|Corymbia citriodora|Corymbia maculata|Cotinus coggygria|Croton adenocalyx|Croton argyrophyllus|Croton cajucara|Croton conduplicatus|Croton essequiboensis|Croton flavens|Croton grewioides|Croton jacobinensis|Croton micans|Croton nepetifolius|Croton ovalifolius|Croton sonderianus|Croton triangularis|Croton tricolor|Croton zehntneri|Cryptocarya agathophylla|Cryptocarya cunninghamii|Cryptomeria japonica|Cullen plicatum|Cuminum cyminum|Cunila fasciculata|Cunila microcephala|Cupressus sempervirens|Curcuma aeruginosa|Curcuma amada|Curcuma aromatica|Curcuma kwangsiensis|Curcuma longa|Curcuma phaeocaulis|Curcuma pierreana|Curcuma trichosantha|Curcuma wenyujin|Curcuma zedoaria|Curio articulatus|Cyathocline purpurea|Cymbopogon flexuosus|Cymbopogon khasianus|Cymbopogon martinii|Cynanchum stauntoni|Cyperaceae|Cyperus alopecuroides|Cyperus erectus|Cyperus rotundus|Cyrtocymura scorpioides|Dacrydium cupressinum|Dacrydium nausoriense|Dacrydium nidulum|Daniellia oliveri|Daphne composita|Daphne genkwa|Daphne odora|Daucus carota|Decachaeta thieleana|Dendropanax trifidus|Dendrophorbium elatum|Dendrophorbium usgorense|Dictamnus albus|Diplolophium africanum|Diplotaenia cachrydifolia|Disynaphia multicrenulata|Dittrichia graveolens|Dolomiaea costus|Dolomiaea souliei|Dracocephalum kotschyi|Dumortiera hirsuta|Dysphania ambrosioides|Echinacea angustifolia|Echinacea pallida|Echinacea purpurea|Echinophora tenuifolia|Echinophora tournefortii|Echinops giganteus|Elettaria cardamomum|Elsholtzia ciliata|Elsholtzia eriostachya|Elsholtzia fruticosa|Elsholtzia pilosa|Elsholtzia stauntonii|Encelia canescens|Eremanthus arboreus|Eremanthus crotonoides|Erica manipuliflora|Erigeron bonariensis|Erigeron canadensis|Eriosolena composita|Eryngium|Etlingera cevuga|Etlingera elatior|Etlingera pavieana|Eucalyptus angulosa|Eucalyptus apodophylla|Eucalyptus behriana|Eucalyptus bosistoana|Eucalyptus brassiana|Eucalyptus camaldulensis|Eucalyptus ceratocorys|Eucalyptus cladocalyx|Eucalyptus cloeziana|Eucalyptus cuprea|Eucalyptus dealbata|Eucalyptus delegatensis|Eucalyptus dolichorhyncha|Eucalyptus exserta|Eucalyptus fasciculosa|Eucalyptus forrestiana|Eucalyptus grandis|Eucalyptus incrassata|Eucalyptus intertexta|Eucalyptus jensenii|Eucalyptus lansdowneana|Eucalyptus leucoxylon|Eucalyptus maidenii|Eucalyptus melanophloia|Eucalyptus moluccana|Eucalyptus ochrophloia|Eucalyptus odorata|Eucalyptus polyanthemos|Eucalyptus populnea|Eucalyptus porosa|Eucalyptus pulverulenta|Eucalyptus radiata|Eucalyptus sideroxylon|Eucalyptus sparsa|Eucalyptus stoatei|Eucalyptus tereticornis|Eucalyptus tetraptera|Eucalyptus viridis|Eugenia dysenterica|Eugenia uniflora|Eugenia zuchowskiae|Euodia bodinieri|Euodia hortensis|Euodia officinalis|Euodia ruticarpa|Eupatorium cannabinum|Eupatorium capillifolium|Eupatorium chinense|Eupatorium fortunei|Euphorbia sessiliflora|Euryops arabicus|Evodia rutaecarpa|Feijoa sellowiana|Ferula assafoetida|Ferula fukanensis|Ferula sinkiangensis|Ferulago nodosa|Ficus carica|Fitzalania heteropetala|Fleischmannia pratensis|Flourensia cernua|Foeniculum vulgare|Fossombronia alaskana|Fragaria|Freesia hybrida|Frullania|Frullania falciloba|Frullania monocera|Frullania probosciphora|Frullania pycnantha|Frullania spinifera|Fusarium oxysporum + Serratia sp. + Achromobacter sp|Gackstroemia magellanica|Geigeria burkei|Geigeria burkei var. burkei|Geigeria odontoptera|Geigeria plumosa|Geigeria schinzii|Geranium|Glebionis coronaria|Glebionis coronarium|Gossypium hirsutum|Grangea maderaspatana|Griffitharia vestita|Grindelia chiloensis|Grindelia hirsutula|Guarea guidonia|Guazuma ulmifolia|Gundelia tournefortii|Gutierrezia sarothrae|Gymnanthemum myrianthum|Halocarpus bidwillii|Halocarpus biformis|Hamamelis virginiana|Haplostichanthus johnsonii|Hebeclinium macrophyllum|Hedeoma mandoniana|Hedychium coronarium|Hedychium spicatum|Hedyosmum bonplandianum|Hedyosmum costaricense|Helichrysum ambiguum|Helichrysum amorginum|Helichrysum bracteiferum|Helichrysum dregeanum|Helichrysum forskahlii|Helichrysum italicum|Helichrysum kraussii|Helichrysum nudifolium|Helichrysum odoratissimum|Helichrysum oreophilum|Helichrysum revolutum|Helichrysum stenopterum|Helichrysum stoechas|Helichrysum subglomeratum|Helichrysum zeyheri|Heliopsis buphthalmoides|Heracleum antasiaticum|Heracleum dissectum|Heterotheca inuloides|Heterotheca subaxillaris|Heterotropa|Hexalobus crispiflorus|Hexastylis virginica|Homo sapiens|Houttuynia cordata|Humulus lupulus|Hydrocotyle sibthorpioides|Hymenocrater incanus|Hymenophyton flabellatum|Hymenothrix wislizeni|Hymenothrix wislizenii|Hymenoxys hoopesii|Hymenoxys integrifolia|Hypericum androsaemum|Hypericum australe|Hypericum chinense|Hypericum foliosum|Hypericum humifusum|Hypericum japonicum|Hypericum perfoliatum|Hypericum perforatum|Hypericum pulchrum|Hypericum rumeliacum|Hypericum scabrum|Hypericum tomentosum|Hypericum triquetrifolium|Hypericum undulatum|Hyptis emoryi|Hyptis goyazensis|Hyptis mutabilis|Hyptis pectinata|Hyptis spicigera|Hyptis suaveolens|Hyssopus officinalis|Illicium anisatum|Illicium difengpi|Illicium verum|Iris tectorum|Isocoma coronopifolia|Isocoma pluriflora|Iva annua|Jasminum|Jasminum spp.|Jugo|Juniperus comitana|Juniperus communis|Juniperus drupacea|Juniperus durangensis|Juniperus gamboana|Juniperus jaliscana|Juniperus monticola|Juniperus oxycedrus|Juniperus standleyi|Kippistia suaedifolia|Koanophyllon albicaule|Koanophyllon albicaulis|Kuloa usambarensis|Kumquat|Kunzea ericoides|Kunzea flavescens|Kunzea salina|Kunzea sinclairii|Laennecia filaginoides|Laggera alata|Laggera decurrens|Laggera pterodonta|Lallemantia peltata|Lantana camara|Lantana ukambensis|Lantana xenica|Larix kaempferi|Larix laricina|Larix lyallii|Larix occidentalis|Larix sibirica|Launea|Laurus|Lavandula angustifolia|Lavandula latifolia|Lavandula stoechas|Leonotis leonurus|Leonurus heterophyllus|Lepechinia caulescens|Lepechinia chamaedryoides|Lepechinia chilensis|Lepechinia floribunda|Lepidaploa lilacina|Lepidozia fauriana|Leplaea cedrata|Leptospermum scoparium|Lessingianthus linearis|Licaria puchuri-major|Licaria puchury-major|Ligularia dentata|Limnophila repens|Lindera glauca|Lindera neesiana|Lippia alba|Lippia dulcis|Lippia graveolens|Lippia integrifolia|Lippia javanica|Lippia multiflora|Lippia origanoides|Lippia rehmannii|Lippia sidoides|Lippia ukambensis|Liquidambar styraciflua|Litsea cubeba|Lonicera japonica|Loxothysanus sinuatus|Machilus thunbergii|Magnolia balansae|Magnolia biondii|Magnolia denudata|Magnolia kobus|Magnolia liliiflora|Magnolia obovata|Magnolia officinalis|Magnolia salicifolia|Magnolia sprengeri|Mallotus rhamnifolius|Malus|Mangifera indica|Manilkara zapota|Marrubium parviflorum|Marrubium velutinum|Marsypianthes chamaedrys|Matricaria chamomilla|Medicago sativa|Melaleuca alternifolia|Melaleuca quinquenervia|Melaleuca triumphalis|Melampodium camphoratum|Melissa officinalis|Mentha|Mentha arvensis|Mentha canadensis|Mentha longifolia|Mentha piperita|Mentha pulegium|Mentha spicata|Mentha suaveolens|Mesosphaerum pectinatum|Microcitrus|Microglossa pyrifolia|Micromeria biflora|Micromeria cremnophila|Micromeria juliana|Micromeria maderensis|Micromeria myrtifolia|Mikania banisteriae|Mikania congesta|Mikania cordifolia|Mikania parviflora|Minthostachys andina|Minthostachys glabrescens|Minthostachys mollis|Monanthotaxis capea|Monarda citriodora|Monarda fistulosa|Monardella hypoleuca|Monocyclanthus vignei|Monodora tenuifolia|Monosis parishii|Montanoa hibiscifolia|Montanoa leucantha|Montanoa speciosa|Montanoa tomentosa|Mosla cavaleriei|Mosla chinensis|Murraya exotica|Murraya gleniei|Murraya koenigii|Murraya paniculata|Myrcia hedraiophylla|Myrcia tricona|Myristica fragrans|Nardostachys chinensis|Nardostachys jatamansi|Nasutitermes gracilirostris|Nasutitermes nigriceps|Nasutitermes novarumhebridarum|Nasutitermes torresi|Nelumbo lutea|Nelumbo nucifera|Neolitsea aciculata|Nepeta caesarea|Nepeta cataria|Nepeta ciliaris|Nepeta fissa|Nepeta nepetella|Nepeta nuda|Nepeta racemosa|Nepeta tuberosa|Nepeta viscida|Nicotiana alata|Nicotiana cavicola|Nicotiana ingulba|Nicotiana langsdorffii|Nicotiana mutabilis|Nicotiana tabacum|Nidorella resedifolia|Ocimum americanum|Ocimum campechianum|Ocimum carnosum|Ocimum grandiflorum|Ocimum gratissimum|Ocimum micranthum|Ocimum selloi|Ocimum tenuiflorum|Ocotea usambarensis|Olearia phlogopappa|Oocephalus oppositiflorus|Ophrys sphegodes|Origanum|Origanum acutidens|Origanum cordifolium|Origanum dictamnus|Origanum hypericifolium|Origanum intercedens|Origanum laevigatum|Origanum minutiflorum|Origanum onites|Origanum paniculatum|Origanum spp.|Origanum syriacum|Origanum vulgare|Orthosiphon aristatus|Orthosiphon grandiflorus|Osmorhiza aristata|Osteospermum auriculatum|Othonna obtusiloba|Otostegia fruticosa|Oyedaea verbesinoides|Ozothamnus adnatus|Ozothamnus bilobus|Paeonia lactiflora|Panax ginseng|Panax notoginseng|Panax quinquefolius|Pandanus tectorius|Parthenium argentatum|Parthenium confertum|Parthenium fruticosum|Parthenium hysterophorus|Parthenium incanum|Parthenium schottii|Parthenium tomentosum|Pelargonium endlicherianum|Pelargonium quercifolium|Pelargonium ternifolium|Pelargonium vitifolium|Peperomia pellucida|Perilla frutescens|Perilla frutescens var. hirtella|Perityle emoryi|Perovskia|Perovskia atriplicifolia|Persea tolimanensis|Persicaria hydropiperoides|Persicaria minor|Perymenium klattianum|Petasites albus|Petasites hybridus|Peucedanum paniculatum|Peucedanum zenkeri|Phellodendron amurense|Philadelphia fleabane|Phlomis fruticosa|Phlomis lanata|Phlomis olivieri|Phyla nodiflora|Picea koraiensis|Picea orientalis|Pilocarpus grandiflorus|Pilocarpus jaborandi|Pilocarpus microphyllus|Pilocarpus pauciflorus|Pimenta dioica|Pimenta racemosa|Pimpinella serbica|Pimpinella spp.|Pinus brutia var. eldarica|Pinus brutia var. pityusa|Pinus densiflora|Pinus halepensis|Pinus heldreichii|Pinus massoniana|Pinus merkusii|Pinus monticola|Pinus pumila|Pinus sibirica|Pinus strobus|Pinus sylvestris|Piper aduncum|Piper angustifolium|Piper arboreum|Piper auritum|Piper betle|Piper cernuum|Piper cubeba|Piper fimbriulatum|Piper gaudichaudianum|Piper lamarckianum|Piper lanceaefolium|Piper longum|Piper marginatum|Piper nigrum|Piper obliquum|Piper regnellii|Piper retrofractum|Piper sylvestre|Piptostigma fasciculatum|Platostoma africanum|Platycladus orientalis|Plectranthus glabratus|Plectranthus marrubioides|Pleodendron costaricense|Pogostemon cablin|Polygala senega|Polygonum Minus|Polygonum minus|Porophyllum angustissimum|Porophyllum ruderale|Prangos uechtritzii|Prangos uloptera|Protium heptaphyllum|Pseudopegolettia tenella|Psiadia altissima|Psidium guajava|Psidium larueotteanum|Psidium rufum|Psidium salutare|Pterodon emarginatus|Pteronia eenii|Ptilidium ciliare|Ptilidium pulcherrimum|Ptychopetalum olacoides|Pulicaria dysenterica|Pulicaria paludosa|Pycnocycla spinosa|Renealmia floribunda|Rhanterium epapposum|Rhaponticum carthamoides|Rhodiola rosea|Rhododendron augustinii|Rhododendron baileyi|Rhododendron calostrotum|Rhododendron ciliatum|Rhododendron dauricum|Rhododendron davidsonianum|Rhododendron glaucophyllum|Rhododendron hippophaeoides|Rhododendron impeditum|Rhododendron intricatum|Rhododendron lepidotum|Rhododendron lutescens|Rhododendron micranthum|Rhododendron moupinense|Rhododendron nivale|Rhododendron rubiginosum|Rhododendron triflorum|Rhododendron virgatum|Rhododendron yunnanense|Rhododendron zaleucum|Rhus coriaria|Rolandra fruticosa|Roldana sundbergii|Rosmarinus Officinalis|Rosmarinus eriocalyx|Rosmarinus officinalis|Rosmarinus tomentosus|Rudbeckia subtomentosa|Ruta angustifolia|Ruta graveolens|Sagittaria sagittifolia|Salvadora persica|Salvia absconditiflora|Salvia atropatana|Salvia aurea|Salvia brandegeei|Salvia caespitosa|Salvia candidissima|Salvia cinnabarina|Salvia columbariae|Salvia dorisiana|Salvia dorystaechas|Salvia fruticosa|Salvia garedjii|Salvia granatensis|Salvia hydrangea|Salvia iodantha|Salvia jordanii|Salvia mellifera|Salvia multicaulis|Salvia munzii|Salvia nemorosa|Salvia officinalis|Salvia pomifera|Salvia sclarea|Salvia syriaca|Salvia tomentosa|Salvia triloba|Salvia vermifolia|Salvia virgata|Salvia × sylvestris|Santolina canescens|Santolina chamaecyparissus|Santolina corsica|Santolina insularis|Santolina rosmarinifolia|Satureja bachtiarica|Satureja boissieri|Satureja cilicica|Satureja cuneifolia|Satureja hortensis|Satureja montana|Satureja spicigera|Satureja thymbra|Satureja wiedemanniana|Sauromatum venosum|Saussurea costus|Saussurea lappa|Scaligeria lazica|Scandix australis|Scapania undulata|Schinus|Schinus lentiscifolia|Schinus lentiscifolius|Schinus molle|Schisandra chinensis|Schistostephium heptalobum|Scutellaria baicalensis|Scutellaria barbata|Senecio adenotrichius|Senecio alcicornis|Senecio chrysanthemoides|Senecio elegans|Senecio oerstedianus|Senecio reicheanus|Senecio subrubriflorus|Senecio subulatus|Senecio tricephalus|Senecio zapahuirensis|Sequoia sempervirens|Sequoiadendron giganteum|Seriphium plumosum|Sideritis amasiaca|Sideritis argyrea|Sideritis athoa|Sideritis brevidens|Sideritis chamaedryfolia|Sideritis condensata|Sideritis cretica|Sideritis curvidens|Sideritis dichotoma|Sideritis hispida|Sideritis lanata|Sideritis leucantha|Sideritis lyciae|Sideritis montana|Sideritis paulii|Sideritis perfoliata|Sideritis romana|Sideritis rubriflora|Sideritis syriaca|Sideritis tragoriganum|Simaba maiana|Smallanthus uvedalia|Solanum agrimoniifolium|Solanum habrochaites|Solanum incisum|Solanum stuckertii|Solidago canadensis|Solidago drummondii|Solidago litoralis|Solidago odora|Sorbus cuspidata|Sphagneticola trilobata|Spiranthera odoratissima|Spondias mombin|Stachys aegyptiaca|Stachys balansae|Stachys recta|Steganotaenia araliacea|Stockwellia|Stoebe plumosa|Stoebe vulgaris|Strobilanthes callosa|Strobilanthes zeylanica|Sundacarpus amarus|Swertia japonica|Synedrella nodiflora|Syzygium aromaticum|Syzygium cumini|Syzygium nervosum|Tagetes filifolia|Tagetes lucida|Tagetes minuta|Taiwania cryptomerioides|Tamarindus indica|Tanacetum annuum|Tanacetum millefolium|Tanacetum parthenium|Tanacetum vulgare|Tarchonanthus camphoratus|Terminalia bentzoe|Tessaria fastigiata|Tetradenia riparia|Teucrium asiaticum|Teucrium cyprium|Teucrium kotschyanum|Teucrium leucocladum|Teucrium melissoides|Teucrium micropodioides|Teucrium montanum|Teucrium oxylepis|Teucrium polium|Teucrium pseudoscorodonia|Teucrium salviastrum|Teucrium sandrasicum|Teucrium scorodonia|Thapsia villosa|Thecocarpus carvifolius|Thuja occidentalis|Thymbra capitata|Thymbra spicata|Thymus|Thymus baeticus|Thymus broussonetii|Thymus camphoratus|Thymus capitatus|Thymus eigii|Thymus fedtschenkoi|Thymus funkii|Thymus karamarianicus|Thymus kosteletzkyanus|Thymus kotschyanus|Thymus longicaulis|Thymus longiflorus|Thymus maroccanus|Thymus marschallianus|Thymus membranaceus|Thymus nummularius|Thymus orespedanus|Thymus pannonicus|Thymus piperella|Thymus pulegioides|Thymus quinquecostatus|Thymus revolutus|Thymus riatarum|Thymus saturejoides|Thymus schimperi|Thymus sibthorpii|Thymus subcollinus|Thymus thracicus|Thymus vulgaris|Thymus willkommii|Thymus zygioides|Thymus zygis|Tilesia baccata|Tithonia diversifolia|Tordylium apulum|Torilis arvensis|Trichocolea tomentella|Trichogonia grazielae|Trichogonia santosii|Trifoliate orange|Trifolium pratense|Tripleurospermum inodorum|Ursinia nana|Ursinia nudicaulis|Ursinia sericea|Ursinia speciosa|Uvaria chamae|Uvaria narum|Valeriana jatamansi|Valeriana officinalis|Varronia curassavica|Verbesina persicifolia|Verbesina sordescens|Verbesina subcordata|Vernonanthura fagifolia|Vernonia arkansana|Vernonia colorata|Vernonia galamensis|Vincetoxicum glaucescens|Vincetoxicum stauntonii|Virola surinamensis|Vismia baccifera|Vismia cayennensis|Vitex agnus-castus|Vitex limonifolia|Vitex negundo|Vitex trifolia|Vogtia annua|Warburgia stuhlmannii|Webera corymbosa|Wedelia hookeriana|West African Pepper|Wurfbainia villosa|Xanthium orientale|Xanthium strumarium|Xeranthemum annuum|Xylopia aethiopica|Xylopia sericea|Zanthoxylum armatum|Zanthoxylum bungeanum|Zanthoxylum chalybaeum|Zanthoxylum chalybeum|Zanthoxylum dipetalum|Zanthoxylum gardneri|Zanthoxylum hawaiiense|Zanthoxylum kauaense|Zanthoxylum piperitum|Zanthoxylum schinifolium|Zanthoxylum simulans|Zanthoxylum zanthoxyloides|Zataria multiflora|Zieria arborescens|Zieria chevalieri|Zieria compacta|Zieria cytisoides|Zieria laevigata|Zieria laxiflora|Zieria murphyi|Zieria smithii|Zingiber mioga|Zingiber montanum|Zingiber officinale|Zingiber ottensii|Zingiber zerumbet|Zinnia elegans|Zinnia violacea|Ziziphus jujuba|basil|bellis perennis|candyleaf|cicely|clove|common myrtle|common sunflower|corn mint|guarana|maize|parsley|pomegranate|pomelo|potato|tarragon|tomato|water mint

>  <collections>  (1622) 
ANPDB|Australian natural products|CMAUP (cCollective molecular activities of useful plants)|ChEBI NPs|ConMedNP|EMNPD|KNApSaCK|Latin America dataset|NANPDB (Natural Products from Northern African Sources)|NAPRORE-CR|NPACT|NPASS|NPEdia|NuBBEDB|Phyto4Health|TCMDB-Taiwan (Traditional Chinese Medicine database)|VietHerb|WikiData Natural Products|ZINC NP

>  <dois>  (1622) 
10.1002/(SICI)1097-0231(199608)10:11<1345::AID-RCM631>3.0.CO;2-4|10.1002/(SICI)1099-0690(199806)1998:6<1205::AID-EJOC1205>3.0.CO;2-K|10.1002/(SICI)1099-1026(199601)11:1<15::AID-FFJ541>3.0.CO;2-H|10.1002/(SICI)1099-1026(199607)11:4<231::AID-FFJ572>3.0.CO;2-0|10.1002/(SICI)1099-1026(199609)11:5<315::AID-FFJ594>3.0.CO;2-B|10.1002/(SICI)1099-1026(199611)11:6<367::AID-FFJ598>3.0.CO;2-R|10.1002/(SICI)1099-1026(199701)12:1<47::AID-FFJ610>3.0.CO;2-7|10.1002/(SICI)1099-1026(199705)12:3<215::AID-FFJ624>3.0.CO;2-O|10.1002/(SICI)1099-1026(199707)12:4<285::AID-FFJ649>3.0.CO;2-W|10.1002/(SICI)1099-1026(1998070)13:4<233::AID-FFJ730>3.0.CO;2-7|10.1002/(SICI)1099-1026(199901/02)14:1<38::AID-FFJ778>3.0.CO;2-8|10.1002/(SICI)1099-1026(199901/02)14:1<45::AID-FFJ774>3.0.CO;2-S|10.1002/(SICI)1099-1026(199901/02)14:1<47::AID-FFJ782>3.0.CO;2-R|10.1002/(SICI)1099-1026(199903/04)14:2<140::AID-FFJ800>3.0.CO;2-R|10.1002/(SICI)1099-1026(199903/04)14:2<82::AID-FFJ780>3.0.CO;2-Z|10.1002/(SICI)1099-1026(199905/06)14:3<195::AID-FFJ807>3.0.CO;2-C|10.1002/(SICI)1099-1026(199907/08)14:4<211::AID-FFJ812>3.0.CO;2-W|10.1002/(SICI)1099-1026(199907/08)14:4<230::AID-FFJ816>3.0.CO;2-L|10.1002/(SICI)1099-1026(199909/10)14:5<283::AID-FFJ826>3.0.CO;2-2|10.1002/(SICI)1099-1026(199909/10)14:5<290::AID-FFJ828>3.0.CO;2-4|10.1002/(SICI)1099-1026(199909/10)14:5<312::AID-FFJ835>3.0.CO;2-B|10.1002/(SICI)1099-1026(199911/12)14:6<393::AID-FFJ849>3.0.CO;2-5|10.1002/(SICI)1099-1026(200003/04)15:2<119::AID-FFJ878>3.0.CO;2-V|10.1002/(SICI)1099-1565(199909/10)10:5<241::AID-PCA460>3.0.CO;2-5|10.1002/(SICI)1099-1565(200003/04)11:2<99::AID-PCA494>3.0.CO;2-9|10.1002/(SICI)1099-1573(199605)10:3<248::AID-PTR807>3.0.CO;2-9|10.1002/(SICI)1099-1573(199702)11:1<67::AID-PTR29>3.0.CO;2-I|10.1002/(SICI)1099-1573(1998)12:1+<S117::AID-PTR269>3.0.CO;2-2|10.1002/(SICI)1099-1573(1998)12:1+<S92::AID-PTR261>3.0.CO;2-9|10.1002/(SICI)1099-1573(199805)12:3<172::AID-PTR212>3.0.CO;2-E|10.1002/1099-1026(200005/06)15:3<144::AID-FFJ882>3.0.CO;2-C|10.1002/1099-1026(200005/06)15:3<201::AID-FFJ893>3.0.CO;2-I|10.1002/1099-1565(200007/08)11:4<236::AID-PCA503>3.0.CO;2-B|10.1002/9780470114735.HAWLEY00961|10.1002/9780470114735.HAWLEY16880|10.1002/BSCB.19860950903|10.1002/CBDV.200900080|10.1002/CBDV.201100059|10.1002/CBDV.201400340|10.1002/CBDV.201700436|10.1002/CBDV.201800531|10.1002/CHIN.198339323|10.1002/CHIN.198414320|10.1002/CHIN.199050295|10.1002/CJOC.201180379|10.1002/ECE3.5390|10.1002/FFJ.1064|10.1002/FFJ.1156|10.1002/FFJ.1161|10.1002/FFJ.1174|10.1002/FFJ.1175|10.1002/FFJ.1305|10.1002/FFJ.1349|10.1002/FFJ.1582|10.1002/FFJ.1649|10.1002/FFJ.2730010103|10.1002/FFJ.2730010105|10.1002/FFJ.2730020106|10.1002/FFJ.2730020110|10.1002/FFJ.2730030107|10.1002/FFJ.2730030203|10.1002/FFJ.2730030204|10.1002/FFJ.2730030208|10.1002/FFJ.2730030406|10.1002/FFJ.2730050110|10.1002/FFJ.2730050209|10.1002/FFJ.2730050304|10.1002/FFJ.2730050307|10.1002/FFJ.2730060115|10.1002/FFJ.2730060206|10.1002/FFJ.2730060304|10.1002/FFJ.2730060314|10.1002/FFJ.2730060404|10.1002/FFJ.2730070111|10.1002/FFJ.2730070503|10.1002/FFJ.2730070603|10.1002/FFJ.2730080303|10.1002/FFJ.2730080504|10.1002/FFJ.2730090107|10.1002/FFJ.2730090206|10.1002/FFJ.2730090305|10.1002/FFJ.2730090309|10.1002/FFJ.2730100203|10.1002/FFJ.2730100204|10.1002/FFJ.2730100208|10.1002/FFJ.2730100310|10.1002/FFJ.2730100313|10.1002/FFJ.2730100317|10.1002/FFJ.2730100408|10.1002/FFJ.2730100605|10.1002/FFJ.2730100609|10.1002/FFJ.3227|10.1002/FFJ.983|10.1002/HLCA.19720550603|10.1002/HLCA.201200359|10.1002/JSFA.4146|10.1002/JSSC.200900378|10.1002/MCS.1220060107|10.1002/PCA.2800050503|10.1002/PCA.594|10.1002/PTR.1093|10.1002/PTR.2650010304|10.1002/PTR.2650040210|10.1002/PTR.2650040606|10.1002/PTR.2650070123|10.1002/PTR.2650090215|10.1002/PTR.856|10.1002/RCM.1290091307|10.1002/ffj.1649|10.1002/ffj.2730010405|10.1007/978-0-85729-323-7_1048|10.1007/978-0-85729-323-7_177|10.1007/978-3-030-30182-8_12|10.1007/BF00567053|10.1007/BF00567793|10.1007/BF00568367|10.1007/BF00570218|10.1007/BF00574326|10.1007/BF00574355|10.1007/BF00575062|10.1007/BF00575168|10.1007/BF00576230|10.1007/BF00577187|10.1007/BF00579141|10.1007/BF00579167|10.1007/BF00579447|10.1007/BF00580068|10.1007/BF00580452|10.1007/BF00580453|10.1007/BF00580907|10.1007/BF00596639|10.1007/BF00596742|10.1007/BF00599279|10.1007/BF00600858|10.1007/BF00629951|10.1007/BF00630135|10.1007/BF00630335|10.1007/BF00980588|10.1007/BF00988299|10.1007/BF01177415|10.1007/BF01267777|10.1007/BF01959201|10.1007/BF01961467|10.1007/BF01970171|10.1007/BF02236421|10.1007/BF02238211|10.1007/BF02266966|10.1007/BF02269705|10.1007/BF02282508|10.1007/BF02312888|10.1007/BF02857217|10.1007/BF02858924|10.1007/BF02860163|10.1007/BF02860485|10.1007/BF02866639|10.1007/BF02901380|10.1007/BF02902107|10.1007/BF02907824|10.1007/S004030050433|10.1007/S10068-015-0261-2|10.1007/S10086-018-1773-1|10.1007/S10600-011-0044-9|10.1007/S10600-020-02963-X|10.1007/S11418-007-0155-6|10.1007/S11418-007-0175-2|10.1007/S13765-012-1162-1|10.1007/SPRINGERREFERENCE_68068|10.1007/SPRINGERREFERENCE_69022|10.1016/0031-6865(94)00053-X|10.1016/0031-9422(72)80071-2|10.1016/0031-9422(74)85139-3|10.1016/0031-9422(75)85347-7|10.1016/0031-9422(80)85083-7|10.1016/0031-9422(81)80032-5|10.1016/0031-9422(81)80055-6|10.1016/0031-9422(81)80057-X|10.1016/0031-9422(81)83087-7|10.1016/0031-9422(81)85166-7|10.1016/0031-9422(82)80129-5|10.1016/0031-9422(82)80138-6|10.1016/0031-9422(82)80164-7|10.1016/0031-9422(82)83100-2|10.1016/0031-9422(82)83168-3|10.1016/0031-9422(82)83205-6|10.1016/0031-9422(82)85189-3|10.1016/0031-9422(82)85199-6|10.1016/0031-9422(82)85264-3|10.1016/0031-9422(82)85265-5|10.1016/0031-9422(83)80100-9|10.1016/0031-9422(83)80102-2|10.1016/0031-9422(83)83016-7|10.1016/0031-9422(83)83034-9|10.1016/0031-9422(83)83045-3|10.1016/0031-9422(83)85029-8|10.1016/0031-9422(83)85052-3|10.1016/0031-9422(83)85053-5|10.1016/0031-9422(84)83107-6|10.1016/0031-9422(86)80021-8|10.1016/0031-9422(86)88017-7|10.1016/0031-9422(88)80056-6|10.1016/0031-9422(88)80124-9|10.1016/0031-9422(88)80274-7|10.1016/0031-9422(88)80444-8|10.1016/0031-9422(88)80461-8|10.1016/0031-9422(88)80463-1|10.1016/0031-9422(88)80683-6|10.1016/0031-9422(88)80767-2|10.1016/0031-9422(88)80795-7|10.1016/0031-9422(88)83027-9|10.1016/0031-9422(88)83058-9|10.1016/0031-9422(88)83085-1|10.1016/0031-9422(88)83114-5|10.1016/0031-9422(88)87022-5|10.1016/0031-9422(89)80048-2|10.1016/0031-9422(89)80072-X|10.1016/0031-9422(89)80126-8|10.1016/0031-9422(89)80195-5|10.1016/0031-9422(89)80199-2|10.1016/0031-9422(89)80289-4|10.1016/0031-9422(90)80040-N|10.1016/0031-9422(90)80127-3|10.1016/0031-9422(90)80178-J|10.1016/0031-9422(90)83041-X|10.1016/0031-9422(90)85066-O|10.1016/0031-9422(90)85109-S|10.1016/0031-9422(90)85117-X|10.1016/0031-9422(90)85270-P|10.1016/0031-9422(90)85421-B|10.1016/0031-9422(90)85434-H|10.1016/0031-9422(90)89037-A|10.1016/0031-9422(91)83064-R|10.1016/0031-9422(91)83196-R|10.1016/0031-9422(91)83197-S|10.1016/0031-9422(91)83457-V|10.1016/0031-9422(91)83632-U|10.1016/0031-9422(91)84207-9|10.1016/0031-9422(91)84214-D|10.1016/0031-9422(91)85039-3|10.1016/0031-9422(91)85124-I|10.1016/0031-9422(91)85145-P|10.1016/0031-9422(92)80176-F|10.1016/0031-9422(92)80396-V|10.1016/0031-9422(92)80456-O|10.1016/0031-9422(92)83122-F|10.1016/0031-9422(92)83136-M|10.1016/0031-9422(92)83462-8|10.1016/0031-9422(92)83657-K|10.1016/0031-9422(92)90046-S|10.1016/0031-9422(93)85098-C|10.1016/0031-9422(93)85408-J|10.1016/0031-9422(94)85021-6|10.1016/0031-9422(95)00183-8|10.1016/0031-9422(95)00184-9|10.1016/0031-9422(95)00237-2|10.1016/0031-9422(95)00347-A|10.1016/0031-9422(95)00522-9|10.1016/0031-9422(95)00601-X|10.1016/0031-9422(95)00806-3|10.1016/0168-1656(95)00034-N|10.1016/0305-1978(84)90011-5|10.1016/0305-1978(87)90058-5|10.1016/0305-1978(88)90050-6|10.1016/0305-1978(89)90098-7|10.1016/0305-1978(89)90100-2|10.1016/0305-1978(91)90079-F|10.1016/0305-1978(92)90055-I|10.1016/0305-1978(92)90070-T|10.1016/0305-1978(93)90031-L|10.1016/0305-1978(94)90086-8|10.1016/0305-1978(94)90116-3|10.1016/0305-1978(95)00026-Q|10.1016/0305-1978(96)00023-3|10.1016/0308-8146(92)90304-K|10.1016/0378-8741(86)90105-4|10.1016/0378-8741(88)90088-8|10.1016/0378-8741(91)90062-I|10.1016/0378-8741(91)90063-J|10.1016/0740-0020(86)90017-1|10.1016/J.ACTATROPICA.2013.04.011|10.1016/J.APJTM.2016.06.009|10.1016/J.APJTM.2017.07.004|10.1016/J.BSE.2003.12.009|10.1016/J.BSE.2006.06.009|10.1016/J.BSE.2010.01.009|10.1016/J.CHROMA.2004.11.095|10.1016/J.CHROMA.2006.08.080|10.1016/J.CHROMA.2014.10.058|10.1016/J.FITOTE.2004.10.007|10.1016/J.FOODCHEM.2010.08.043|10.1016/J.FOODCHEM.2015.11.033|10.1016/J.FOODCONT.2013.06.056|10.1016/J.FOODRES.2010.03.001|10.1016/J.FOODRES.2018.12.054|10.1016/J.INDCROP.2014.04.048|10.1016/J.INDCROP.2014.11.043|10.1016/J.JEP.2004.09.044|10.1016/J.JEP.2008.07.023|10.1016/J.JEP.2012.11.045|10.1016/J.PHYMED.2007.03.013|10.1016/J.PHYMED.2008.04.018|10.1016/J.PHYMED.2010.03.020|10.1016/J.PHYMED.2011.12.003|10.1016/J.PHYTOCHEM.2003.08.004|10.1016/J.PHYTOCHEM.2003.10.018|10.1016/J.PHYTOCHEM.2004.03.019|10.1016/J.PHYTOCHEM.2004.04.003|10.1016/J.PHYTOCHEM.2005.04.006|10.1016/J.PHYTOCHEM.2005.07.001|10.1016/J.PHYTOCHEM.2006.04.025|10.1016/J.PHYTOCHEM.2006.05.038|10.1016/J.PHYTOCHEM.2006.06.003|10.1016/J.PHYTOCHEM.2006.08.003|10.1016/J.PHYTOCHEM.2008.02.017|10.1016/J.PHYTOCHEM.2008.12.018|10.1016/J.PHYTOCHEM.2009.03.012|10.1016/J.PHYTOCHEM.2009.06.013|10.1016/J.PHYTOCHEM.2009.07.031|10.1016/J.PHYTOCHEM.2011.01.021|10.1016/J.PHYTOCHEM.2011.09.002|10.1016/J.PHYTOL.2014.03.007|10.1016/J.PLANTSCI.2019.110277|10.1016/S0021-9673(00)00231-4|10.1016/S0021-9673(01)82096-3|10.1016/S0021-9673(01)90672-7|10.1016/S0021-9673(01)93725-2|10.1016/S0021-9673(01)95036-8|10.1016/S0021-9673(01)96050-9|10.1016/S0031-9422(00)00284-3|10.1016/S0031-9422(00)00374-5|10.1016/S0031-9422(00)00461-1|10.1016/S0031-9422(00)80081-3|10.1016/S0031-9422(00)80112-0|10.1016/S0031-9422(00)80325-8|10.1016/S0031-9422(00)80411-2|10.1016/S0031-9422(00)80481-1|10.1016/S0031-9422(00)80558-0|10.1016/S0031-9422(00)80600-7|10.1016/S0031-9422(00)80682-2|10.1016/S0031-9422(00)80683-4|10.1016/S0031-9422(00)80755-4|10.1016/S0031-9422(00)80757-8|10.1016/S0031-9422(00)80758-X|10.1016/S0031-9422(00)80814-6|10.1016/S0031-9422(00)81063-8|10.1016/S0031-9422(00)81119-X|10.1016/S0031-9422(00)81139-5|10.1016/S0031-9422(00)81166-8|10.1016/S0031-9422(00)81176-0|10.1016/S0031-9422(00)81225-X|10.1016/S0031-9422(00)81231-5|10.1016/S0031-9422(00)81276-5|10.1016/S0031-9422(00)81286-8|10.1016/S0031-9422(00)81445-4|10.1016/S0031-9422(00)81569-1|10.1016/S0031-9422(00)81573-3|10.1016/S0031-9422(00)81741-0|10.1016/S0031-9422(00)82268-2|10.1016/S0031-9422(00)82341-9|10.1016/S0031-9422(00)82348-1|10.1016/S0031-9422(00)82620-5|10.1016/S0031-9422(00)82719-3|10.1016/S0031-9422(00)82734-X|10.1016/S0031-9422(00)83061-7|10.1016/S0031-9422(00)83062-9|10.1016/S0031-9422(00)83171-4|10.1016/S0031-9422(00)83172-6|10.1016/S0031-9422(00)83174-X|10.1016/S0031-9422(00)83481-0|10.1016/S0031-9422(00)83762-0|10.1016/S0031-9422(00)83763-2|10.1016/S0031-9422(00)83872-8|10.1016/S0031-9422(00)84088-1|10.1016/S0031-9422(00)84169-2|10.1016/S0031-9422(00)84505-7|10.1016/S0031-9422(00)84581-1|10.1016/S0031-9422(00)84709-3|10.1016/S0031-9422(00)84713-5|10.1016/S0031-9422(00)84721-4|10.1016/S0031-9422(00)84802-5|10.1016/S0031-9422(00)84946-8|10.1016/S0031-9422(00)88484-8|10.1016/S0031-9422(00)89650-8|10.1016/S0031-9422(00)89739-3|10.1016/S0031-9422(00)90514-4|10.1016/S0031-9422(00)90717-9|10.1016/S0031-9422(00)91034-3|10.1016/S0031-9422(00)94384-X|10.1016/S0031-9422(00)94541-2|10.1016/S0031-9422(00)94756-3|10.1016/S0031-9422(00)94835-0|10.1016/S0031-9422(00)94990-2|10.1016/S0031-9422(00)95204-X|10.1016/S0031-9422(00)95279-8|10.1016/S0031-9422(00)97781-1|10.1016/S0031-9422(00)97879-8|10.1016/S0031-9422(00)97890-7|10.1016/S0031-9422(00)98080-4|10.1016/S0031-9422(00)98546-7|10.1016/S0031-9422(00)98547-9|10.1016/S0031-9422(01)00018-8|10.1016/S0031-9422(01)00322-3|10.1016/S0031-9422(01)00433-2|10.1016/S0031-9422(02)00004-3|10.1016/S0031-9422(02)00006-7|10.1016/S0031-9422(02)00265-0|10.1016/S0031-9422(02)00542-3|10.1016/S0031-9422(03)00188-2|10.1016/S0031-9422(82)85036-X|10.1016/S0031-9422(82)85038-3|10.1016/S0031-9422(82)85040-1|10.1016/S0031-9422(82)85042-5|10.1016/S0031-9422(82)85073-5|10.1016/S0031-9422(96)00386-X|10.1016/S0031-9422(96)00559-6|10.1016/S0031-9422(96)00691-7|10.1016/S0031-9422(96)00726-1|10.1016/S0031-9422(96)00749-2|10.1016/S0031-9422(97)00105-2|10.1016/S0031-9422(97)00117-9|10.1016/S0031-9422(97)00141-6|10.1016/S0031-9422(97)00172-6|10.1016/S0031-9422(97)00203-3|10.1016/S0031-9422(97)00292-6|10.1016/S0031-9422(97)00324-5|10.1016/S0031-9422(97)00400-7|10.1016/S0031-9422(97)00484-6|10.1016/S0031-9422(97)00737-1|10.1016/S0031-9422(97)00762-0|10.1016/S0031-9422(97)00795-4|10.1016/S0031-9422(97)00828-5|10.1016/S0031-9422(97)01124-2|10.1016/S0031-9422(99)00050-3|10.1016/S0031-9422(99)00061-8|10.1016/S0031-9422(99)00123-5|10.1016/S0031-9422(99)00500-2|10.1016/S0031-9422(99)00601-9|10.1016/S0040-4020(01)88015-7|10.1016/S0040-4020(01)98186-4|10.1016/S0091-3057(01)00543-3|10.1016/S0305-1978(00)00062-4|10.1016/S0305-1978(00)00103-4|10.1016/S0305-1978(00)00114-9|10.1016/S0305-1978(03)00039-5|10.1016/S0305-1978(97)00103-8|10.1016/S0305-1978(98)00110-0|10.1016/S0367-326X(01)00270-2|10.1016/S0367-326X(01)00327-6|10.1016/S0367-326X(01)00367-7|10.1016/S0367-326X(98)00016-1|10.1016/S0367-326X(98)00020-3|10.1016/S0367-326X(99)00038-6|10.1016/S0367-326X(99)00067-2|10.1016/S0378-8741(00)00214-2|10.1016/S0378-8741(01)00211-2|10.1016/S0378-8741(01)00238-0|10.1016/S0378-8741(97)01528-6|10.1016/S0378-8741(99)00072-0|10.1016/S0926-6690(03)00076-1|10.1016/S0944-7113(11)80031-0|10.1016/j.bse.2006.06.009|10.1016/j.phytochem.2004.08.035|10.1016/s0031-9422(00)86705-9|10.1021/JF00023A054|10.1021/JF00034A020|10.1021/JF00034A033|10.1021/JF00035A029|10.1021/JF00037A027|10.1021/JF00039A035|10.1021/JF00046A030|10.1021/JF00047A021|10.1021/JF00056A055|10.1021/JF00063A015|10.1021/JF00064A020|10.1021/JF00064A054|10.1021/JF00067A018|10.1021/JF00069A028|10.1021/JF00071A004|10.1021/JF00071A013|10.1021/JF00073A015|10.1021/JF00078A009|10.1021/JF00083A001|10.1021/JF00091A025|10.1021/JF00091A049|10.1021/JF00098A007|10.1021/JF00100A013|10.1021/JF00111A021|10.1021/JF00111A026|10.1021/JF00112A045|10.1021/JF00116A075|10.1021/JF00118A056|10.1021/JF00122A019|10.1021/JF00125A044|10.1021/JF0116303|10.1021/JF020872F|10.1021/JF040102Z|10.1021/JF040437G|10.1021/JF60071A008|10.1021/JF60155A014|10.1021/JF60160A012|10.1021/JF60196A027|10.1021/JF60198A031|10.1021/JF60199A051|10.1021/JF60200A011|10.1021/JF60206A038|10.1021/JF60210A021|10.1021/JF60215A043|10.1021/JF60217A066|10.1021/JF60218A022|10.1021/JF60218A031|10.1021/JF60232A044|10.1021/JF902669D|10.1021/JF950275B|10.1021/JF950540T|10.1021/JF950577D|10.1021/JF970031M|10.1021/JF970110Y|10.1021/JF9702149|10.1021/JF9708296|10.1021/JF980108M|10.1021/JF980204N|10.1021/JF981170M|10.1021/JF9911850|10.1021/JM201451H|10.1021/JO00200A028|10.1021/JO040272A|10.1021/NP000442O|10.1021/NP030475E|10.1021/NP0504863|10.1021/NP060180B|10.1021/NP400872M|10.1021/NP50001A004|10.1021/NP50006A014|10.1021/NP50008A001|10.1021/NP50009A015|10.1021/NP50012A010|10.1021/NP50017A019|10.1021/NP50018A028|10.1021/NP50028A031|10.1021/NP50033A002|10.1021/NP50034A015|10.1021/NP50034A016|10.1021/NP50034A038|10.1021/NP50034A039|10.1021/NP50034A042|10.1021/NP50034A044|10.1021/NP50035A008|10.1021/NP50035A036|10.1021/NP50035A037|10.1021/NP50038A026|10.1021/NP50039A032|10.1021/NP50039A037|10.1021/NP50040A037|10.1021/NP50040A040|10.1021/NP50041A034|10.1021/NP50041A038|10.1021/NP50043A034|10.1021/NP50044A039|10.1021/NP50045A046|10.1021/NP50046A033|10.1021/NP50046A035|10.1021/NP50046A047|10.1021/NP50047A038|10.1021/NP50047A039|10.1021/NP50048A037|10.1021/NP50048A039|10.1021/NP50050A051|10.1021/NP50051A035|10.1021/NP50052A041|10.1021/NP50062A008|10.1021/NP50083A010|10.1021/NP50085A029|10.1021/NP50094A002|10.1021/NP50121A011|10.1021/NP900109Y|10.1021/NP960732Y|10.1021/NP970282P|10.1021/NP980445P|10.1021/np50083a010|10.1021/np50125a018|10.1023/B:JOEC.0000042067.27698.30|10.1055/S-0028-1097977|10.1055/S-1999-14025|10.1055/S-2000-10685|10.1055/S-2000-8591|10.1055/S-2000-8627|10.1055/S-2000-9780|10.1055/S-2001-18363|10.1055/S-2002-33803|10.1055/S-2003-37032|10.1055/S-2003-39704|10.1055/S-2003-818011|10.1055/S-2006-957378|10.1055/S-2006-957420|10.1055/S-2006-957433|10.1055/S-2006-957458|10.1055/S-2006-957488|10.1055/S-2006-957489|10.1055/S-2006-957552|10.1055/S-2006-957640|10.1055/S-2006-957641|10.1055/S-2006-957672|10.1055/S-2006-957707|10.1055/S-2006-957814|10.1055/S-2006-957896|10.1055/S-2006-957911|10.1055/S-2006-957914|10.1055/S-2006-957932|10.1055/S-2006-959462|10.1055/S-2006-959474|10.1055/S-2006-959482|10.1055/S-2006-959506|10.1055/S-2006-959542|10.1055/S-2006-959548|10.1055/S-2006-959580|10.1055/S-2006-959674|10.1055/S-2006-959714|10.1055/S-2006-959755|10.1055/S-2006-959993|10.1055/S-2006-960032|10.1055/S-2006-960034|10.1055/S-2006-960081|10.1055/S-2006-960123|10.1055/S-2006-960128|10.1055/S-2006-960832|10.1055/S-2006-960872|10.1055/S-2006-960908|10.1055/S-2006-960930|10.1055/S-2006-960936|10.1055/S-2006-960939|10.1055/S-2006-961401|10.1055/S-2006-961434|10.1055/S-2006-961452|10.1055/S-2006-961490|10.1055/S-2006-961551|10.1055/S-2006-961701|10.1055/S-2006-962016|10.1055/S-2006-962018|10.1055/S-2006-962093|10.1055/S-2006-962450|10.1055/S-2006-962451|10.1055/S-2006-962452|10.1055/S-2006-962540|10.1055/S-2006-962640|10.1055/S-2006-962683|10.1055/S-2006-962688|10.1055/S-2006-962701|10.1055/S-2006-962781|10.1055/S-2007-969055|10.1055/S-2007-969104|10.1055/S-2007-969136|10.1055/S-2007-969160|10.1055/S-2007-969171|10.1055/S-2007-969172|10.1055/S-2007-969275|10.1055/S-2007-969442|10.1055/S-2007-969499|10.1055/S-2007-969570|10.1055/S-2007-969599|10.1055/S-2007-969632|10.1055/S-2007-969675|10.1055/S-2007-969862|10.1055/S-2007-969883|10.1055/S-2007-969948|10.1055/S-2008-1074841|10.1071/CH9600367|10.1071/CH9831895|10.1076/1388-0209(200004)3821-1FT106|10.1076/PHBI.35.1.66.13267|10.1076/PHBI.35.3.218.13295|10.1076/PHBI.39.5.388.5894|10.1076/PHBI.40.1.67.5852|10.1076/PHBI.40.4.311.8466|10.1080/00021369.1989.10869813|10.1080/0972060X.2005.10643413|10.1080/0972060X.2007.10643581|10.1080/0972060X.2014.895210|10.1080/10286020802514622|10.1080/10412905.1989.9697751|10.1080/10412905.1989.9697754|10.1080/10412905.1989.9697758|10.1080/10412905.1989.9697769|10.1080/10412905.1989.9697780|10.1080/10412905.1989.9697787|10.1080/10412905.1989.9697801|10.1080/10412905.1989.9699438|10.1080/10412905.1989.9699439|10.1080/10412905.1990.9697808|10.1080/10412905.1990.9697816|10.1080/10412905.1990.9697824|10.1080/10412905.1990.9697829|10.1080/10412905.1990.9697830|10.1080/10412905.1990.9697831|10.1080/10412905.1990.9697836|10.1080/10412905.1990.9697840|10.1080/10412905.1990.9697845|10.1080/10412905.1990.9697854|10.1080/10412905.1990.9697857|10.1080/10412905.1990.9697864|10.1080/10412905.1990.9697873|10.1080/10412905.1990.9697875|10.1080/10412905.1990.9697878|10.1080/10412905.1991.9697898|10.1080/10412905.1991.9697900|10.1080/10412905.1991.9697905|10.1080/10412905.1991.9697906|10.1080/10412905.1991.9697920|10.1080/10412905.1991.9697921|10.1080/10412905.1991.9697923|10.1080/10412905.1991.9697930|10.1080/10412905.1991.9697932|10.1080/10412905.1991.9697952|10.1080/10412905.1991.9697953|10.1080/10412905.1991.9697956|10.1080/10412905.1991.9697963|10.1080/10412905.1991.9697964|10.1080/10412905.1991.9697971|10.1080/10412905.1991.9697973|10.1080/10412905.1991.9697974|10.1080/10412905.1991.9697980|10.1080/10412905.1991.9697982|10.1080/10412905.1991.9697985|10.1080/10412905.1991.9697991|10.1080/10412905.1991.9697994|10.1080/10412905.1991.9700495|10.1080/10412905.1991.9700498|10.1080/10412905.1991.9700500|10.1080/10412905.1992.9698007|10.1080/10412905.1992.9698015|10.1080/10412905.1992.9698016|10.1080/10412905.1992.9698032|10.1080/10412905.1992.9698034|10.1080/10412905.1992.9698043|10.1080/10412905.1992.9698053|10.1080/10412905.1992.9698054|10.1080/10412905.1992.9698059|10.1080/10412905.1992.9698061|10.1080/10412905.1992.9698062|10.1080/10412905.1992.9698066|10.1080/10412905.1992.9698067|10.1080/10412905.1992.9698069|10.1080/10412905.1992.9698070|10.1080/10412905.1992.9698072|10.1080/10412905.1992.9698079|10.1080/10412905.1992.9698083|10.1080/10412905.1992.9698084|10.1080/10412905.1992.9698091|10.1080/10412905.1992.9698095|10.1080/10412905.1992.9698101|10.1080/10412905.1992.9698109|10.1080/10412905.1992.9698112|10.1080/10412905.1992.9698123|10.1080/10412905.1992.9698125|10.1080/10412905.1992.9698127|10.1080/10412905.1992.9698129|10.1080/10412905.1992.9698130|10.1080/10412905.1992.9698135|10.1080/10412905.1992.9698136|10.1080/10412905.1992.9698138|10.1080/10412905.1992.9698139|10.1080/10412905.1992.9698144|10.1080/10412905.1992.9698149|10.1080/10412905.1992.9698155|10.1080/10412905.1993.9698164|10.1080/10412905.1993.9698167|10.1080/10412905.1993.9698170|10.1080/10412905.1993.9698174|10.1080/10412905.1993.9698176|10.1080/10412905.1993.9698177|10.1080/10412905.1993.9698178|10.1080/10412905.1993.9698179|10.1080/10412905.1993.9698184|10.1080/10412905.1993.9698189|10.1080/10412905.1993.9698191|10.1080/10412905.1993.9698195|10.1080/10412905.1993.9698202|10.1080/10412905.1993.9698205|10.1080/10412905.1993.9698206|10.1080/10412905.1993.9698208|10.1080/10412905.1993.9698209|10.1080/10412905.1993.9698215|10.1080/10412905.1993.9698216|10.1080/10412905.1993.9698218|10.1080/10412905.1993.9698222|10.1080/10412905.1993.9698226|10.1080/10412905.1993.9698230|10.1080/10412905.1993.9698231|10.1080/10412905.1993.9698232|10.1080/10412905.1993.9698235|10.1080/10412905.1993.9698236|10.1080/10412905.1993.9698237|10.1080/10412905.1993.9698243|10.1080/10412905.1993.9698248|10.1080/10412905.1993.9698253|10.1080/10412905.1993.9698254|10.1080/10412905.1993.9698256|10.1080/10412905.1993.9698258|10.1080/10412905.1993.9698260|10.1080/10412905.1993.9698261|10.1080/10412905.1993.9698267|10.1080/10412905.1993.9698275|10.1080/10412905.1993.9698277|10.1080/10412905.1993.9698279|10.1080/10412905.1993.9698282|10.1080/10412905.1993.9698303|10.1080/10412905.1993.9698309|10.1080/10412905.1994.9698320|10.1080/10412905.1994.9698327|10.1080/10412905.1994.9698330|10.1080/10412905.1994.9698332|10.1080/10412905.1994.9698333|10.1080/10412905.1994.9698334|10.1080/10412905.1994.9698335|10.1080/10412905.1994.9698337|10.1080/10412905.1994.9698344|10.1080/10412905.1994.9698359|10.1080/10412905.1994.9698360|10.1080/10412905.1994.9698361|10.1080/10412905.1994.9698380|10.1080/10412905.1994.9698382|10.1080/10412905.1994.9698387|10.1080/10412905.1994.9698395|10.1080/10412905.1994.9698396|10.1080/10412905.1994.9698400|10.1080/10412905.1994.9698402|10.1080/10412905.1994.9698404|10.1080/10412905.1994.9698406|10.1080/10412905.1994.9698407|10.1080/10412905.1994.9698414|10.1080/10412905.1994.9698417|10.1080/10412905.1994.9698418|10.1080/10412905.1994.9698427|10.1080/10412905.1994.9698428|10.1080/10412905.1994.9698433|10.1080/10412905.1994.9698435|10.1080/10412905.1994.9698438|10.1080/10412905.1994.9698440|10.1080/10412905.1994.9698443|10.1080/10412905.1994.9698446|10.1080/10412905.1994.9698447|10.1080/10412905.1994.9698449|10.1080/10412905.1994.9699345|10.1080/10412905.1994.9699346|10.1080/10412905.1994.9699347|10.1080/10412905.1994.9699348|10.1080/10412905.1994.9699354|10.1080/10412905.1994.9699355|10.1080/10412905.1994.9699356|10.1080/10412905.1994.9699357|10.1080/10412905.1994.9699361|10.1080/10412905.1994.9699362|10.1080/10412905.1994.9699365|10.1080/10412905.1994.9699366|10.1080/10412905.1995.9698468|10.1080/10412905.1995.9698469|10.1080/10412905.1995.9698470|10.1080/10412905.1995.9698473|10.1080/10412905.1995.9698475|10.1080/10412905.1995.9698478|10.1080/10412905.1995.9698479|10.1080/10412905.1995.9698496|10.1080/10412905.1995.9698499|10.1080/10412905.1995.9698501|10.1080/10412905.1995.9698502|10.1080/10412905.1995.9698503|10.1080/10412905.1995.9698506|10.1080/10412905.1995.9698508|10.1080/10412905.1995.9698515|10.1080/10412905.1995.9698516|10.1080/10412905.1995.9698520|10.1080/10412905.1995.9698522|10.1080/10412905.1995.9698524|10.1080/10412905.1995.9698530|10.1080/10412905.1995.9698531|10.1080/10412905.1995.9698532|10.1080/10412905.1995.9698555|10.1080/10412905.1995.9698562|10.1080/10412905.1995.9698575|10.1080/10412905.1995.9698581|10.1080/10412905.1995.9698585|10.1080/10412905.1995.9698586|10.1080/10412905.1995.9698587|10.1080/10412905.1995.9698591|10.1080/10412905.1995.9700518|10.1080/10412905.1995.9700522|10.1080/10412905.1995.9700523|10.1080/10412905.1995.9700529|10.1080/10412905.1995.9700530|10.1080/10412905.1995.9700531|10.1080/10412905.1995.9700534|10.1080/10412905.1995.9700536|10.1080/10412905.1996.9700547|10.1080/10412905.1996.9700554|10.1080/10412905.1996.9700555|10.1080/10412905.1996.9700557|10.1080/10412905.1996.9700558|10.1080/10412905.1996.9700559|10.1080/10412905.1996.9700562|10.1080/10412905.1996.9700565|10.1080/10412905.1996.9700567|10.1080/10412905.1996.9700568|10.1080/10412905.1996.9700569|10.1080/10412905.1996.9701028|10.1080/10412905.1996.9701048|10.1080/10412905.1997.9699459|10.1080/10412905.1997.9700708|10.1080/10412905.1997.9700709|10.1080/10412905.1997.9700711|10.1080/10412905.1997.9700721|10.1080/10412905.1997.9700722|10.1080/10412905.1997.9700725|10.1080/10412905.1997.9700726|10.1080/10412905.1997.9700727|10.1080/10412905.1997.9700728|10.1080/10412905.1997.9700774|10.1080/10412905.1997.9700787|10.1080/10412905.1997.9700790|10.1080/10412905.1997.9700812|10.1080/10412905.1997.9700817|10.1080/10412905.1997.9700822|10.1080/10412905.1997.9700824|10.1080/10412905.1998.9700842|10.1080/10412905.1998.9700844|10.1080/10412905.1998.9700852|10.1080/10412905.1998.9700853|10.1080/10412905.1998.9700854|10.1080/10412905.1998.9700878|10.1080/10412905.1998.9700883|10.1080/10412905.1998.9700906|10.1080/10412905.1998.9700913|10.1080/10412905.1998.9700917|10.1080/10412905.1998.9700918|10.1080/10412905.1998.9700937|10.1080/10412905.1998.9700976|10.1080/10412905.1998.9700998|10.1080/10412905.1998.9701001|10.1080/10412905.1998.9701005|10.1080/10412905.1999.9701056|10.1080/10412905.1999.9701070|10.1080/10412905.1999.9701080|10.1080/10412905.1999.9701113|10.1080/10412905.1999.9701114|10.1080/10412905.1999.9701136|10.1080/10412905.1999.9701138|10.1080/10412905.1999.9701144|10.1080/10412905.1999.9701152|10.1080/10412905.1999.9701178|10.1080/10412905.1999.9701184|10.1080/10412905.1999.9701187|10.1080/10412905.1999.9711991|10.1080/10412905.2000.9699482|10.1080/10412905.2000.9699527|10.1080/10412905.2000.9699539|10.1080/10412905.2000.9699552|10.1080/10412905.2000.9699554|10.1080/10412905.2000.9699564|10.1080/10412905.2000.9699576|10.1080/10412905.2000.9712033|10.1080/10412905.2000.9712037|10.1080/10412905.2000.9712044|10.1080/10412905.2000.9712056|10.1080/10412905.2000.9712058|10.1080/10412905.2000.9712155|10.1080/10412905.2000.9712159|10.1080/10412905.2000.9712162|10.1080/10412905.2000.9712167|10.1080/10412905.2000.9712168|10.1080/10412905.2000.9712185|10.1080/10412905.2000.9712191|10.1080/10412905.2000.9712196|10.1080/10412905.2000.9712201|10.1080/10412905.2000.9712205|10.1080/10412905.2000.9712211|10.1080/10412905.2001.9699592|10.1080/10412905.2001.9699593|10.1080/10412905.2001.9699601|10.1080/10412905.2001.9699607|10.1080/10412905.2001.9699608|10.1080/10412905.2001.9699620|10.1080/10412905.2001.9699717|10.1080/10412905.2001.9712227|10.1080/10412905.2002.9699760|10.1080/10412905.2002.9699852|10.1080/10412905.2002.9699882|10.1080/10412905.2002.9699903|10.1080/10412905.2003.9698598|10.1080/10412905.2004.9698765|10.1080/10412905.2005.9698874|10.1080/10412905.2008.9699963|10.1080/10412905.2010.9700389|10.1080/10412905.2012.747271|10.1080/10412905.2012.755478|10.1080/1057563021000040790|10.1080/10575639808044941|10.1080/10942912.2016.1155057|10.1080/13880200500220268|10.1080/14786410500528478|10.1080/14786419.2010.513685|10.1088/1752-7155/8/1/014001|10.1093/JAOAC/83.3.621|10.1094/ASBCJ-59-0222|10.1094/ASBCJ-60-0204|10.1111/J.1365-2621.1985.TB10476.X|10.1111/J.1365-313X.2005.02417.X|10.1111/j.1365-2621.1985.tb01819.x|10.1111/j.1462-2920.2008.01805.x|10.1135/CCCC19582188|10.1135/CCCC19601656|10.1135/CCCC19611362|10.1135/CCCC19661113|10.1135/CCCC19912969|10.1139/B90-317|10.1163/1574-9347_DNP_E832720|10.1186/1471-2229-14-140|10.1186/1472-6882-6-39|10.1186/1752-153X-7-61|10.1201/B22102-8|10.1246/BCSJ.51.3395|10.1246/BCSJ.56.3477|10.1246/BCSJ.63.2239|10.1246/NIKKASHI1921.61.787|10.1246/NIKKASHI1921.64.1125|10.1248/BPB.23.359|10.1248/CPB.44.1656|10.1248/CPB.49.1380|10.1248/CPB.54.725|10.1248/CPB.54.936|10.1248/CPB.56.97|10.1248/CPB.57.245|10.1248/YAKUSHI1947.106.1_17|10.1248/YAKUSHI1947.107.3_209|10.1248/YAKUSHI1947.109.3_188|10.1248/YAKUSHI1947.116.9_728|10.1248/YAKUSHI1947.96.2_218|10.1248/YAKUSHI1947.99.11_1116|10.12692/IJB/12.4.370-382|10.1271/BBB1961.39.1517|10.1271/BBB1961.45.1493|10.1271/BBB1961.45.507|10.1271/BBB1961.47.483|10.1271/BBB1961.48.2843|10.1271/BBB1961.49.1583|10.1271/BBB1961.51.1449|10.1271/BBB1961.52.2961|10.1271/BBB1961.55.1655|10.1271/BBB1961.55.2571|10.1271/NOGEIKAGAKU1924.59.389|10.1271/NOGEIKAGAKU1924.67.1417|10.1300/J044V07N04_10|10.1515/ZNC-1984-7-802|10.1515/ZNC-1984-7-803|10.1515/ZNC-1988-5-604|10.1515/ZNC-1988-5-608|10.1515/ZNC-1990-9-1023|10.1515/ZNC-2002-9-1013|10.1515/ZNC-2006-7-801|10.1590/S0103-50532000000600012|10.1590/S0103-50532010000500012|10.1631/JZUS.B1200086|10.1673/031.011.15201|10.17660/ACTAHORTIC.1996.426.21|10.17660/ACTAHORTIC.1999.500.11|10.17660/ACTAHORTIC.2005.677.9|10.17678/BEUSCITECH.348447|10.21273/HORTSCI.25.5.556|10.2307/2423424|10.2307/4114957|10.23893/1307-2080.APS.05611|10.2478/V10007-009-0022-Y|10.2503/JJSHS.53.141|10.26510/2394-0859.PBE.2017.07|10.3109/13880208209055190|10.3109/13880208409070665|10.3109/13880208709060907|10.3109/13880208709060911|10.3109/13880209.2014.1001405|10.3109/13880209109082868|10.3109/13880209109082875|10.3390/12030283|10.3390/21100165|10.3390/MOLECULES17021437|10.3390/MOLECULES191119220|10.3390/MOLECULES21060814|10.3390/MOLECULES22030335|10.3390/MOLECULES24112053|10.3390/MOLECULES24234244|10.3390/S131013969|10.3906/KIM-1206-45|10.4103/0973-1296.62890|10.4268/CJCMM20142423|10.4314/BCSE.V12I1.21037|10.4314/BCSE.V15I1.71732|10.4324/9780203219430_CHAPTER_13|10.5650/JOS1956.31.151|10.5650/JOS1956.35.176|10.5694/J.1326-5377.1998.TB126732.X|10.5897/JMPR10.078|10.7235/HORT.2013.12200|10.7897/2230-8407.089160

>  <synonyms>  (1622) 
(-)-(E)-Caryophyllene;()--caryophyllene;()-trans-Caryophyllene|(-)-Caryophyllene sum of enantiomers|(-)-E-Caryophyllene|(-)-ISOCARYOPHYLLENE|(-)-Isocaryophyllene|(1R,4Z,9S)-4,11,11-trimethyl-8-methylidenebicyclo[7.2.0]undec-4-ene|(1R-(1R*,4Z,9S*))-4,11,11-Trimethyl-8-methylenebicyclo(7.2.0)undec-4-ene|(E)-caryophyllene|.beta.-cis-Caryophyllene|118-65-0|2-Methylene-6,10,10-trimethylbicyclo(7.2.0)undec-5-ene|4,11,11-Trimethyl-8-methylenebicyclo(7.2.0)undec-4-ene, (1R-(1R*,4E,9S))-|4,11,11-Trimethyl-8-methylenebicyclo[7.2.0]undec-4-ene #|87-44-5|AI3-36121|BS-48823|Bicyclo(7.2.0)undec-4-ene, 4,11,11-trimethyl-8-methylene-, (1R,4Z,9S)-|C09691|CARYOPHYLLENE ISOCARYOPHYLLENE|CARYOPHYLLENE, ALPHA + BETA MIXT.|CCRIS 8094|CHEBI:5993|CHEMBL448700|Caryophyllene|Caryophyllene (VAN)|Cis-caryophyllene|DTXCID401474828|DTXSID10881246|E75762|EINECS 201-746-1|EINECS 204-267-6|Isocaryophyllene (80%)|Isocaryophyllene (80per cent)|LMPR0103120002|NCGC00389957-01|NRY8I0KNIR|NS00013291|Q27106968|UNII-BHW853AU9H|UNII-NRY8I0KNIR|\u221a\u00e9\u00ac\u2264-caryophyllene trans-caryophyllene|beta-Caryophyllen|beta-Caryophyllene (natural)|gamma-caryophyllene|ss-Caryophyllene|trans-caryophyllene

>  <cas>  (1622) 
118-65-0|87-44-5

$$$$

     RDKit          2D

 24 25  0  0  0  0  0  0  0  0999 V2000
  -10.3740   -1.1217    0.0000 C   0  0  0  0  0  0  0  0  0  0  0  0
   -9.0619   -1.8485    0.0000 O   0  0  0  0  0  0  0  0  0  0  0  0
   -7.7764   -1.0756    0.0000 C   0  0  0  0  0  0  0  0  0  0  0  0
   -7.8030    0.4241    0.0000 C   0  0  0  0  0  0  0  0  0  0  0  0
   -6.5175    1.1971    0.0000 C   0  0  0  0  0  0  0  0  0  0  0  0
   -5.2053    0.4702    0.0000 C   0  0  0  0  0  0  0  0  0  0  0  0
   -3.9198    1.2432    0.0000 C   0  0  0  0  0  0  0  0  0  0  0  0
   -2.6076    0.5163    0.0000 C   0  0  0  0  0  0  0  0  0  0  0  0
   -1.3221    1.2892    0.0000 C   0  0  0  0  0  0  0  0  0  0  0  0
   -0.0100    0.5624    0.0000 C   0  0  0  0  0  0  0  0  0  0  0  0
    1.2756    1.3353    0.0000 C   0  0  0  0  0  0  0  0  0  0  0  0
    1.2489    2.8351    0.0000 O   0  0  0  0  0  0  0  0  0  0  0  0
    2.5877    0.6085    0.0000 C   0  0  0  0  0  0  0  0  0  0  0  0
    3.8732    1.3814    0.0000 C   0  0  0  0  0  0  0  0  0  0  0  0
    5.1854    0.6546    0.0000 C   0  0  0  0  0  0  0  0  0  0  0  0
    5.2120   -0.8452    0.0000 C   0  0  0  0  0  0  0  0  0  0  0  0
    6.5241   -1.5720    0.0000 C   0  0  0  0  0  0  0  0  0  0  0  0
    7.8096   -0.7991    0.0000 C   0  0  0  0  0  0  0  0  0  0  0  0
    9.1218   -1.5259    0.0000 O   0  0  0  0  0  0  0  0  0  0  0  0
    9.1484   -3.0257    0.0000 C   0  0  0  0  0  0  0  0  0  0  0  0
    7.7830    0.7007    0.0000 C   0  0  0  0  0  0  0  0  0  0  0  0
    6.4709    1.4275    0.0000 C   0  0  0  0  0  0  0  0  0  0  0  0
   -5.1787   -1.0295    0.0000 C   0  0  0  0  0  0  0  0  0  0  0  0
   -6.4642   -1.8025    0.0000 C   0  0  0  0  0  0  0  0  0  0  0  0
  1  2  1  0
  2  3  1  0
  3  4  2  0
  4  5  1  0
  5  6  2  0
  6  7  1  0
  7  8  1  0
  8  9  1  0
  9 10  1  0
 10 11  1  0
 11 12  1  1
 11 13  1  0
 13 14  1  0
 14 15  1  0
 15 16  2  0
 16 17  1  0
 17 18  2  0
 18 19  1  0
 19 20  1  0
 18 21  1  0
 21 22  2  0
  6 23  1  0
 23 24  2  0
 24  3  1  0
 22 15  1  0
M  END
>  <identifier>  (1623) 
CNP0246604.1

>  <canonical_smiles>  (1623) 
COC1=CC=C(CCCC[C@@H](O)CCC2=CC=C(OC)C=C2)C=C1

>  <standard_inchi>  (1623) 
InChI=1S/C21H28O3/c1-23-20-13-8-17(9-14-20)5-3-4-6-19(22)12-7-18-10-15-21(24-2)16-11-18/h8-11,13-16,19,22H,3-7,12H2,1-2H3/t19-/m1/s1

>  <standard_inchi_key>  (1623) 
ZPRCWTMOJIUUMV-LJQANCHMSA-N

>  <name>  (1623) 
nan

>  <iupac_name>  (1623) 
(3~{R})-1,7-bis(4-methoxyphenyl)heptan-3-ol

>  <annotation_level>  (1623) 
4

>  <total_atom_count>  (1623) 
52

>  <heavy_atom_count>  (1623) 
24

>  <molecular_weight>  (1623) 
328.45

>  <exact_molecular_weight>  (1623) 
328.20384

>  <molecular_formula>  (1623) 
C21H28O3

>  <alogp>  (1623) 
4.41

>  <topological_polar_surface_area>  (1623) 
38.69

>  <rotatable_bond_count>  (1623) 
10

>  <hydrogen_bond_acceptors>  (1623) 
3

>  <hydrogen_bond_donors>  (1623) 
1

>  <hydrogen_bond_acceptors_lipinski>  (1623) 
3

>  <hydrogen_bond_donors_lipinski>  (1623) 
1

>  <lipinski_rule_of_five_violations>  (1623) 
0

>  <aromatic_rings_count>  (1623) 
2

>  <qed_drug_likeliness>  (1623) 
0.66

>  <formal_charge>  (1623) 
0

>  <fractioncsp3>  (1623) 
0.43

>  <number_of_minimal_rings>  (1623) 
2

>  <van_der_walls_volume>  (1623) 
nan

>  <contains_sugar>  (1623) 
False

>  <contains_ring_sugars>  (1623) 
False

>  <contains_linear_sugars>  (1623) 
False

>  <murcko_framework>  (1623) 
c1ccc(cc1)CCCCCCCc2ccccc2

>  <np_likeness>  (1623) 
0.55

>  <chemical_class>  (1623) 
Diarylheptanoids

>  <chemical_sub_class>  (1623) 
Linear diarylheptanoids

>  <chemical_super_class>  (1623) 
Phenylpropanoids and polyketides

>  <direct_parent_classification>  (1623) 
Linear diarylheptanoids

>  <np_classifier_pathway>  (1623) 
Shikimates and Phenylpropanoids

>  <np_classifier_superclass>  (1623) 
Diarylheptanoids

>  <np_classifier_class>  (1623) 
Linear diarylheptanoids

>  <np_classifier_is_glycoside>  (1623) 
False

>  <organisms>  (1623) 
Centrolobium robustum

>  <collections>  (1623) 
Latin America dataset|NuBBEDB|WikiData Natural Products|ZINC NP

>  <dois>  (1623) 
10.1016/S0031-9422(00)85606-X

>  <synonyms>  (1623) 
(-)-di-O-methylcentrolobol

>  <cas>  (1623) 
nan

$$$$

     RDKit          2D

 28 31  0  0  0  0  0  0  0  0999 V2000
   -4.0287   -3.2211    0.0000 C   0  0  0  0  0  0  0  0  0  0  0  0
   -2.5801   -2.8318    0.0000 O   0  0  0  0  0  0  0  0  0  0  0  0
   -2.1929   -1.3826    0.0000 C   0  0  0  0  0  0  0  0  0  0  0  0
   -3.2544   -0.3227    0.0000 C   0  0  0  0  0  0  0  0  0  0  0  0
   -4.7030   -0.7120    0.0000 O   0  0  0  0  0  0  0  0  0  0  0  0
   -5.7644    0.3478    0.0000 C   0  0  0  0  0  0  0  0  0  0  0  0
   -7.2130   -0.0415    0.0000 C   0  0  0  0  0  0  0  0  0  0  0  0
   -8.2744    1.0184    0.0000 C   0  0  0  0  0  0  0  0  0  0  0  0
   -9.7230    0.6291    0.0000 C   0  0  0  0  0  0  0  0  0  0  0  0
   -7.8873    2.4676    0.0000 C   0  0  0  0  0  0  0  0  0  0  0  0
   -2.8672    1.1264    0.0000 C   0  0  0  0  0  0  0  0  0  0  0  0
   -1.4186    1.5157    0.0000 C   0  0  0  0  0  0  0  0  0  0  0  0
   -0.3571    0.4558    0.0000 C   0  0  0  0  0  0  0  0  0  0  0  0
   -0.7443   -0.9933    0.0000 C   0  0  0  0  0  0  0  0  0  0  0  0
    0.3171   -2.0532    0.0000 O   0  0  0  0  0  0  0  0  0  0  0  0
    1.7657   -1.6639    0.0000 C   0  0  0  0  0  0  0  0  0  0  0  0
    2.1529   -0.2147    0.0000 C   0  0  0  0  0  0  0  0  0  0  0  0
    3.6015    0.1746    0.0000 C   0  0  0  0  0  0  0  0  0  0  0  0
    3.9887    1.6237    0.0000 C   0  0  0  0  0  0  0  0  0  0  0  0
    5.4373    2.0130    0.0000 C   0  0  0  0  0  0  0  0  0  0  0  0
    6.4987    0.9531    0.0000 C   0  0  0  0  0  0  0  0  0  0  0  0
    7.9966    1.0327    0.0000 O   0  0  0  0  0  0  0  0  0  0  0  0
    8.5352   -0.3672    0.0000 C   0  0  0  0  0  0  0  0  0  0  0  0
    7.3701   -1.3121    0.0000 O   0  0  0  0  0  0  0  0  0  0  0  0
    6.1115   -0.4960    0.0000 C   0  0  0  0  0  0  0  0  0  0  0  0
    4.6629   -0.8853    0.0000 C   0  0  0  0  0  0  0  0  0  0  0  0
    1.0915    0.8451    0.0000 C   0  0  0  0  0  0  0  0  0  0  0  0
    1.4786    2.2943    0.0000 O   0  0  0  0  0  0  0  0  0  0  0  0
  1  2  1  0
  2  3  1  0
  3  4  2  0
  4  5  1  0
  5  6  1  0
  6  7  1  0
  7  8  2  0
  8  9  1  0
  8 10  1  0
  4 11  1  0
 11 12  2  0
 12 13  1  0
 13 14  2  0
 14 15  1  0
 15 16  1  0
 16 17  2  0
 17 18  1  0
 18 19  2  0
 19 20  1  0
 20 21  2  0
 21 22  1  0
 22 23  1  0
 23 24  1  0
 24 25  1  0
 25 26  2  0
 17 27  1  0
 27 28  2  0
 14  3  1  0
 26 18  1  0
 27 13  1  0
 25 21  1  0
M  END
>  <identifier>  (1624) 
CNP0217969.0

>  <canonical_smiles>  (1624) 
COC1=C(OCC=C(C)C)C=CC2=C1OC=C(C1=CC=C3OCOC3=C1)C2=O

>  <standard_inchi>  (1624) 
InChI=1S/C22H20O6/c1-13(2)8-9-25-18-7-5-15-20(23)16(11-26-21(15)22(18)24-3)14-4-6-17-19(10-14)28-12-27-17/h4-8,10-11H,9,12H2,1-3H3

>  <standard_inchi_key>  (1624) 
ALIAPFPESXJZKP-UHFFFAOYSA-N

>  <name>  (1624) 
7-Prenyloxy-8-methoxy-3',4'-methylenedioxyisoflavone

>  <iupac_name>  (1624) 
3-(1,3-benzodioxol-5-yl)-8-methoxy-7-(3-methylbut-2-enoxy)chromen-4-one

>  <annotation_level>  (1624) 
5

>  <total_atom_count>  (1624) 
48

>  <heavy_atom_count>  (1624) 
28

>  <molecular_weight>  (1624) 
380.4

>  <exact_molecular_weight>  (1624) 
380.12599

>  <molecular_formula>  (1624) 
C22H20O6

>  <alogp>  (1624) 
4.54

>  <topological_polar_surface_area>  (1624) 
67.13

>  <rotatable_bond_count>  (1624) 
5

>  <hydrogen_bond_acceptors>  (1624) 
6

>  <hydrogen_bond_donors>  (1624) 
0

>  <hydrogen_bond_acceptors_lipinski>  (1624) 
6

>  <hydrogen_bond_donors_lipinski>  (1624) 
0

>  <lipinski_rule_of_five_violations>  (1624) 
0

>  <aromatic_rings_count>  (1624) 
3

>  <qed_drug_likeliness>  (1624) 
0.61

>  <formal_charge>  (1624) 
0

>  <fractioncsp3>  (1624) 
0.23

>  <number_of_minimal_rings>  (1624) 
4

>  <van_der_walls_volume>  (1624) 
332.78

>  <contains_sugar>  (1624) 
False

>  <contains_ring_sugars>  (1624) 
False

>  <contains_linear_sugars>  (1624) 
False

>  <murcko_framework>  (1624) 
O1C=C(c2ccc3OCOc3c2)Cc4ccccc14

>  <np_likeness>  (1624) 
1.01

>  <chemical_class>  (1624) 
Isoflavonoids

>  <chemical_sub_class>  (1624) 
Isoflav-2-enes

>  <chemical_super_class>  (1624) 
Phenylpropanoids and polyketides

>  <direct_parent_classification>  (1624) 
Isoflavones

>  <np_classifier_pathway>  (1624) 
Shikimates and Phenylpropanoids

>  <np_classifier_superclass>  (1624) 
Isoflavonoids

>  <np_classifier_class>  (1624) 
Isoflavones

>  <np_classifier_is_glycoside>  (1624) 
False

>  <organisms>  (1624) 
Calopogonium mucunoides

>  <collections>  (1624) 
KNApSaCK|Latin America dataset|NPEdia|NuBBEDB|Super Natural II|TIPdb (database of Taiwan indigenous plants)|UNPD (Universal Natural Products Database)|WikiData Natural Products|ZINC NP

>  <dois>  (1624) 
10.1016/S0031-9422(00)95305-6

>  <synonyms>  (1624) 
7-O-\u221a\u00e9\u00ac\u2265\u221a\u00e9\u00ac\u2265- dimethylallyl-8-methoxy-3'4'-dioxymethyleneisoflavone|7-Prenyloxy-8-methoxy-3',4'-methylenedioxyisoflavone|C22H20O6|LMPK12050138

>  <cas>  (1624) 
nan

$$$$

     RDKit          2D

 23 25  0  0  0  0  0  0  0  0999 V2000
   -0.1069    4.0151    0.0000 C   0  0  0  0  0  0  0  0  0  0  0  0
   -0.7460    2.6581    0.0000 O   0  0  0  0  0  0  0  0  0  0  0  0
    0.1097    1.4261    0.0000 C   0  0  0  0  0  0  0  0  0  0  0  0
   -0.5293    0.0691    0.0000 C   0  0  0  0  0  0  0  0  0  0  0  0
   -2.0241   -0.0560    0.0000 C   0  0  0  0  0  0  0  0  0  0  0  0
   -2.8798    1.1760    0.0000 C   0  0  0  0  0  0  0  0  0  0  0  0
   -4.3746    1.0509    0.0000 C   0  0  0  0  0  0  0  0  0  0  0  0
   -5.0137   -0.3062    0.0000 C   0  0  0  0  0  0  0  0  0  0  0  0
   -6.5084   -0.4312    0.0000 O   0  0  0  0  0  0  0  0  0  0  0  0
   -4.1580   -1.5381    0.0000 C   0  0  0  0  0  0  0  0  0  0  0  0
   -4.7970   -2.8952    0.0000 O   0  0  0  0  0  0  0  0  0  0  0  0
   -2.6632   -1.4131    0.0000 C   0  0  0  0  0  0  0  0  0  0  0  0
    0.3264   -1.1629    0.0000 O   0  0  0  0  0  0  0  0  0  0  0  0
    1.8211   -1.0378    0.0000 C   0  0  0  0  0  0  0  0  0  0  0  0
    2.6768   -2.2698    0.0000 C   0  0  0  0  0  0  0  0  0  0  0  0
    4.1716   -2.1447    0.0000 C   0  0  0  0  0  0  0  0  0  0  0  0
    5.0273   -3.3767    0.0000 O   0  0  0  0  0  0  0  0  0  0  0  0
    4.8107   -0.7877    0.0000 C   0  0  0  0  0  0  0  0  0  0  0  0
    3.9550    0.4443    0.0000 C   0  0  0  0  0  0  0  0  0  0  0  0
    4.5941    1.8013    0.0000 O   0  0  0  0  0  0  0  0  0  0  0  0
    2.4602    0.3192    0.0000 C   0  0  0  0  0  0  0  0  0  0  0  0
    1.6045    1.5512    0.0000 C   0  0  0  0  0  0  0  0  0  0  0  0
    2.2436    2.9082    0.0000 O   0  0  0  0  0  0  0  0  0  0  0  0
  1  2  1  0
  2  3  1  0
  3  4  2  0
  4  5  1  0
  5  6  2  0
  6  7  1  0
  7  8  2  0
  8  9  1  0
  8 10  1  0
 10 11  1  0
 10 12  2  0
  4 13  1  0
 13 14  1  0
 14 15  2  0
 15 16  1  0
 16 17  1  0
 16 18  2  0
 18 19  1  0
 19 20  1  0
 19 21  2  0
 21 22  1  0
 22 23  2  0
 22  3  1  0
 12  5  1  0
 21 14  1  0
M  END
>  <identifier>  (1625) 
CNP0115195.0

>  <canonical_smiles>  (1625) 
COC1=C(C2=CC=C(O)C(O)=C2)OC2=CC(O)=CC(O)=C2C1=O

>  <standard_inchi>  (1625) 
InChI=1S/C16H12O7/c1-22-16-14(21)13-11(20)5-8(17)6-12(13)23-15(16)7-2-3-9(18)10(19)4-7/h2-6,17-20H,1H3

>  <standard_inchi_key>  (1625) 
WEPBGSIAWZTEJR-UHFFFAOYSA-N

>  <name>  (1625) 
3-O-Methylquercetin

>  <iupac_name>  (1625) 
2-(3,4-dihydroxyphenyl)-5,7-dihydroxy-3-methoxy-chromen-4-one

>  <annotation_level>  (1625) 
5

>  <total_atom_count>  (1625) 
35

>  <heavy_atom_count>  (1625) 
23

>  <molecular_weight>  (1625) 
316.27

>  <exact_molecular_weight>  (1625) 
316.0583

>  <molecular_formula>  (1625) 
C16H12O7

>  <alogp>  (1625) 
2.29

>  <topological_polar_surface_area>  (1625) 
120.36

>  <rotatable_bond_count>  (1625) 
2

>  <hydrogen_bond_acceptors>  (1625) 
7

>  <hydrogen_bond_donors>  (1625) 
4

>  <hydrogen_bond_acceptors_lipinski>  (1625) 
7

>  <hydrogen_bond_donors_lipinski>  (1625) 
4

>  <lipinski_rule_of_five_violations>  (1625) 
0

>  <aromatic_rings_count>  (1625) 
3

>  <qed_drug_likeliness>  (1625) 
0.54

>  <formal_charge>  (1625) 
0

>  <fractioncsp3>  (1625) 
0.06

>  <number_of_minimal_rings>  (1625) 
3

>  <van_der_walls_volume>  (1625) 
256.48

>  <contains_sugar>  (1625) 
False

>  <contains_ring_sugars>  (1625) 
False

>  <contains_linear_sugars>  (1625) 
False

>  <murcko_framework>  (1625) 
O1c2ccccc2CC=C1c3ccccc3

>  <np_likeness>  (1625) 
1.60

>  <chemical_class>  (1625) 
Flavonoids

>  <chemical_sub_class>  (1625) 
O-methylated flavonoids

>  <chemical_super_class>  (1625) 
Phenylpropanoids and polyketides

>  <direct_parent_classification>  (1625) 
3-O-methylated flavonoids

>  <np_classifier_pathway>  (1625) 
Shikimates and Phenylpropanoids

>  <np_classifier_superclass>  (1625) 
Flavonoids

>  <np_classifier_class>  (1625) 
Flavonols

>  <np_classifier_is_glycoside>  (1625) 
False

>  <organisms>  (1625) 
Aberia caffra|Acacia pycnantha|Acacia sutherlandii|Achillea holosericea|Achillea kotschyi|Achillea nobilis|Achyrocline alata|Achyrocline flaccida|Achyrocline tomentosa|Adenocarpus foliolosus|Aeonium decorum|Afrocarpus falcatus|Agelas nakamurai|Ageratina saltillensis|Agnorhiza bolanderi|Agnorhiza invenusta|Agrimonia pilosa|Allagopappus viscosissimus|Alnus cordata|Aloe deltoideodonta|Aloe vulgaris|Alpinia allughas|Ambrosia chamissonis|Ambrosia salsola|Anaphalis margaritacea|Anthemis altissima|Anthoxanthum nitens|Antillogorgia elisabethae|Aplysia juliana|Arenaria|Argemone mexicana|Artemisia alba|Artemisia annua|Artemisia annua L.|Artemisia filifolia|Artemisia incanescens|Artemisia transiliensis|Aster oharai|Asterogyne martiana|Baccharis intermedia|Baccharis linearis|Baccharis magellanica|Bahiopsis laciniata|Balsamorhiza macrophylla|Bauhinia glauca|Bauhinia purpurea|Beilschmiedia volckii|Berchemia formosana|Berkheya zeyheri|Beta vulgaris|Betula exilis|Bistorta manshuriensis|Bistorta officinalis|Bolboschoenus caldwellii|Brickellia glutinosa|Brickellia monocephala|Brickellia vernicosa|Bridelia ferruginea|Broussonetia papyrifera|Browallia grandiflora|Calceolaria chelidonioides|Calceolaria tripartita|Calonectria cylindrospora|Camarops microspora|Canella winterana|Caragana pygmaea|Cardopatium corymbosum|Carex folliculata|Carica papaya|Carlina acaulis|Centipeda minima|Centrosema pubescens|Cereus dumortieri|Chaetomium globosum|Chaetomium subaffine|Cheirolophus mauritanicus|Cheniella glauca|Chorizanthe diffusa|Chromolaena arnottiana|Chrysosplenium echinus|Chrysothamnus humilis|Chrysothamnus viscidiflorus|Cirsium tanakae|Cistus albidus|Cistus laurifolius|Cistus monspeliensis|Citrullus lanatus|Clausena lansium|Clethra macrophylla|Corchorus depressus|Corydalis ochotensis|Cota altissima|Crangon vulgaris|Crinum latifolium|Croton Glabellus|Croton glabellus|Cystoseira jabukae|Daphne giraldii|Decachaeta thieleana|Dendrobates tinctorius|Dendroctonus ponderosae|Dolichandra unguis-cati|Elmerrillia papuana|Endiandra xanthocarpa|Ephydatia syriaca|Eremosis triflosculosa|Ericameria diffusa|Ericameria laricifolia|Eriostemon thryptomenoides|Erythrina fusca|Eucalyptus intermedia|Eucryphia|Eumorphia sericea|Eupatorium birmanicum|Eupatorium capillifolium|Euphorbia lunulata|Euplotes vannus|Fagopyrum dibotrys|Ficus mucuso|Flaveria brownii|Flemingia chappar|Gahnia sieberiana|Garcinia pseudoguttifera|Geraea viscida|Glycyrrhiza uralensis|Gnaphalium oxyphyllum|Goldfussia yunnanensis|Goniothalamus tenuifolius|Goodenia strophiolata|Grindelia spathulata|Gutierrezia grandis|Gutierrezia microcephala|Gutierrezia sarothrae|Haematoxylon campechianum|Haematoxylum campechianum|Halimodendron halodendron|Halobacterium salinarum|Haplopappus foliosus|Haplopappus integerrimus|Haplopappus multifolius|Harbouria trachypleura|Hazardia squarrosa|Helenium thurberi|Helichrysum aureum|Helichrysum forskahlii|Helichrysum gymnocomum|Helichrysum melanacme|Helichrysum odoratissimum|Helichrysum subulifolium|Heliotropium amplexicaule|Heliotropium eichwaldii|Hemsleya graciliflora|Hippophae rhamnoides|Holboellia fargesi|Iberis amara|Ichthyothere terminalis|Ipomoea reptans|Isodon japonica var. glaucocalyx|Kuehneromyces mutabilis|Kunzea ericoides|Laurentia longiflora|Leitneria floridana|Lepidosperma ustulatum|Lepironia articulata|Lepraria citrina|Ligularia lamarum|Lippia mexicana|Lonchocarpus yucatanensis|Lotus corniculatus|Lotus ucrainicus|Lychnophora pohlii|Madia anomala|Madia capitata|Madia citrigracilis|Madia gracilis|Madia sativa|Marasmius prasiosmus|Maytenus laevis|Melaleuca cuticularis|Melia azedarach|Microglossa pyrrhopappa|Millettia zechiana|Monomorium pharaonis|Narcissus obesus|Neoporteria|Neurolaena oaxacana|Nicotiana debneyi|Nicotiana rustica|Nicotiana tabacum|Notholaena aschenborniana|Ocotea pulchella|Odixia angusta|Oedera squarrosa|Oenothera affinis|Oenothera fruticosa|Oenothera howardii|Oenothera linifolia|Oenothera pilosella|Oenothera spachiana|Oenothera texensis|Oncosiphon grandiflorum|Onopordum ambiguum|Ophioglossum Petiolatum|Ophioglossum costatum|Ophioglossum pedunculosum|Ophioglossum petiolatum|Opuntia ficus-indica|Opuntia ficus-indica var.saboten|Oreoherzogia fallax|Oricia gabonensis|Ozothamnus hookeri|Ozothamnus ledifolius|Ozothamnus lycopodioides|Ozothamnus scutellifolius|Paeonia lactiflora|Pallenis spinosa|Patiria miniata|Pelargonium quercifolium|Periploca calophylla|Persicaria amphibia|Persicaria orientalis|Petrosia hebes|Petunia|Phakellia dendyi|Phaseolus vulgaris|Phorbas amaranthus|Phyllanthus discoideus|Piliostigma malabaricum|Piper taboganum|Plagius maghrebinus|Plenodomus tracheiphilus|Plumbago scandens|Pogonomyrmex barbatus|Polanisia trachysperma|Polygala reinii|Polygonum aviculare|Polygonum cognatum|Populus cultivar beaupre|Populus deltoides|Prumnopitys ferruginoides|Pseudaegle trifoliata|Pseudognaphalium oxyphyllum|Psiadia viscosa|Pulicaria incisa|Purpura aperta|Retama duriaei|Rhamnus disperma|Rhamnus lycioides|Rhamnus nakaharae|Rhamnus nakaharai|Rhamnus prinoides|Rhynchosia rufescens|Rubia schumanniana|Sabal causiarum|Salvia compressa|Salvia digitaloides|Salvia limbata|Salvia pedicellata|Scopolia tangutica|Sedum album|Senna didymobotrya|Senna lindheimeriana|Serratula cichoracea|Sidastrum tehuacanum|Solanum incanum|Solanum paludosum|Sonchus erzincanicus|Sophora exigua|Sophora tometosa|Spinulum annotinum|Sporobolus cynosuroides|Stephanitis pyrioides|Stephanodoria tomentella|Streptomyces chattanoogensis|Suillus tridentinus|Syphonota geographica|Tagetes subulata|Thalictrum cultratum|Thermopsis alpina|Thermopsis mollis|Thorecta marginalis|Triantha glutinosa|Trichoderma polysporum|Turricula parryi|Uncaria laevigata|Usnea japonica|Vachellia pennatula|Vellozia stipitata|Vellozia streptophylla|Vidalia volubilis|Vitex agnus-castus|Vitex polygama|Wollastonia biflora|Xanthium pungens|siegesbeckia glabrescens

>  <collections>  (1625) 
ANPDB|AnalytiCon Discovery NPs|Australian natural products|CMAUP (cCollective molecular activities of useful plants)|ChEBI NPs|ConMedNP|ETM (Ethiopian Traditional Medicine) DB|FooDB|GNPS (Global Natural Products Social Molecular Networking)|KNApSaCK|Latin America dataset|Mitishamba database|NANPDB (Natural Products from Northern African Sources)|NPACT|NPASS|NPEdia|Nat-UV DB|NuBBEDB|Phyto4Health|PubChem NPs|SANCDB|Super Natural II|TCMDB-Taiwan (Traditional Chinese Medicine database)|TCMID (Traditional Chinese Medicine Integrated Database)|TIPdb (database of Taiwan indigenous plants)|UEFS (Natural Products Databse of the UEFS)|UNPD (Universal Natural Products Database)|VietHerb|Watermelon|WikiData Natural Products|ZINC NP|p-ANAPL

>  <dois>  (1625) 
10.1002/HLCA.19920750122|10.1002/J.1537-2197.1988.TB13465.X|10.1002/JCCS.199700056|10.1002/PTR.1200|10.1007/BF00595086|10.1007/BF00713341|10.1007/BF00714926|10.1007/BF01870610|10.1007/BF02488144|10.1007/BF02969393|10.1007/S10600-007-0208-9|10.1007/S10600-009-9362-6|10.1007/S10600-009-9411-1|10.1007/S10600-011-9844-1|10.1007/S10600-019-02792-7|10.1016/0003-9861(65)90017-2|10.1016/0031-9422(80)83210-9|10.1016/0031-9422(82)83123-3|10.1016/0031-9422(86)80029-2|10.1016/0031-9422(89)80041-X|10.1016/0031-9422(89)85071-X|10.1016/0031-9422(90)80127-3|10.1016/0031-9422(90)80181-F|10.1016/0031-9422(90)85309-4|10.1016/0031-9422(91)83059-T|10.1016/0031-9422(91)83067-U|10.1016/0031-9422(91)85027-W|10.1016/0031-9422(92)80483-U|10.1016/0031-9422(93)00074-P|10.1016/0031-9422(95)00780-6|10.1016/0031-9422(96)00248-8|10.1016/0305-1978(88)90032-4|10.1016/0305-1978(89)90096-3|10.1016/0305-1978(91)90113-E|10.1016/0305-1978(91)90116-H|10.1016/0305-1978(92)90038-F|10.1016/0305-1978(94)90035-3|10.1016/0305-1978(95)00017-O|10.1016/0305-1978(95)00019-Q|10.1016/0305-1978(95)00044-U|10.1016/0378-8741(84)90019-9|10.1016/J.BMCL.2015.05.089|10.1016/J.FITOTE.2004.10.013|10.1016/J.FITOTE.2006.01.007|10.1016/J.FITOTE.2010.12.003|10.1016/J.FOODCHEM.2007.06.037|10.1016/J.PHYTOCHEM.2005.07.006|10.1016/J.PHYTOCHEM.2006.04.009|10.1016/J.PHYTOCHEM.2008.02.022|10.1016/J.PHYTOCHEM.2008.03.025|10.1016/J.PHYTOL.2011.06.004|10.1016/S0021-9673(01)88918-4|10.1016/S0031-9422(00)81324-2|10.1016/S0031-9422(00)81506-X|10.1016/S0031-9422(00)81695-7|10.1016/S0031-9422(00)81697-0|10.1016/S0031-9422(00)83143-X|10.1016/S0031-9422(00)83207-0|10.1016/S0031-9422(00)83809-1|10.1016/S0031-9422(00)84740-8|10.1016/S0031-9422(00)84889-X|10.1016/S0031-9422(00)84904-3|10.1016/S0031-9422(00)86525-5|10.1016/S0031-9422(00)89537-0|10.1016/S0031-9422(00)94535-7|10.1016/S0031-9422(00)95162-8|10.1016/S0031-9422(00)97776-8|10.1016/S0031-9422(00)97941-X|10.1016/S0031-9422(00)97950-0|10.1016/S0031-9422(00)97976-7|10.1016/S0031-9422(00)98561-3|10.1016/S0031-9422(01)00415-0|10.1016/S0031-9422(97)00435-4|10.1016/S0031-9422(97)00514-1|10.1016/S0031-9422(98)00416-6|10.1016/S0031-9422(98)00667-0|10.1016/S0031-9422(99)00110-7|10.1016/S0031-9422(99)00262-9|10.1016/S0176-1617(11)80953-3|10.1016/S0305-1978(01)00105-3|10.1016/S0305-1978(97)00055-0|10.1016/S0367-326X(01)00303-3|10.1016/j.bmcl.2007.12.052|10.1016/j.bmcl.2015.05.089|10.1016/j.fitote.2006.01.007|10.1016/s0305-1978(99)00045-9|10.1021/ACS.JAFC.6B04155|10.1021/JF901716J|10.1021/JF980784O|10.1021/NP020472M|10.1021/NP0401819|10.1021/NP060515P|10.1021/NP100745Z|10.1021/NP100896W|10.1021/NP50021A021|10.1021/NP50034A026|10.1021/NP50040A032|10.1021/NP50046A051|10.1021/NP50048A063|10.1021/NP50126A023|10.1021/jf034990u|10.1021/np020472m|10.1021/np100745z|10.1021/np100896w|10.1021/np50034a026|10.1021/np50063a025|10.1021/np50064a038|10.1021/np50126a023|10.1055/S-0034-1382449|10.1055/S-1999-14059|10.1071/CH9682349|10.1071/ch9682349|10.1080/10575639508043197|10.1080/10826079208016365|10.1139/V06-164|10.1139/v06-164|10.1248/CPB.33.4091|10.1248/CPB.39.3272|10.1515/ZNC-1983-7-826|10.1515/ZNC-1984-11-1233|10.1515/ZNC-1984-3-418|10.1515/ZNC-1986-11-1204|10.1515/ZNC-1987-1-212|10.1515/ZNC-1990-0604|10.1515/ZNC-1991-1-207|10.1515/ZNC-1992-9-1025|10.1515/ZNC-1997-3-401|10.1515/ZNC-1997-9-1003|10.1515/ZNC-2003-1-202|10.1515/ZNC-2003-3-401|10.1515/ZNC-2008-5-611|10.1515/znc-1997-9-1003|10.1515/znc-2008-5-611|10.21608/BFSA.1999.66114|10.21608/ZJPS.1999.169705|10.3390/12092130|10.3390/IJMS19041049|10.3390/MOLECULES15042593|10.3390/MOLECULES15095998|10.3390/MOLECULES16108305|10.5246/jcps.2013.02.042

>  <synonyms>  (1625) 
1195659-35-8|1486-70-0|2-(3,4-Dihydroxyphenyl)-5,7-dihydroxy-3-methoxy-4H-1-benzopyran-4-one|2-(3,4-dihydroxyphenyl)-5,7-dihydroxy-3-methoxy-4H-chromen-4-one|3',4',5,7-Tetrahydroxy-3-methoxyflavone|3-Methoxy-3',4',5,7-tetrahydroxyflavone|3-Methoxy-5,7,3',4'-tetrahydroxyflavone|3-Methylquercetol|3-O-MQ|3-O-Methyl Quercetin|3-O-Methylquercetin, >=97% (HPLC)|3-O-methylquercetin|3-methoxyluteolin|4H-1-Benzopyran-4-one, 2-(3,4-dihydroxyphenyl)-5,7-dihydroxy-3-methoxy-|5,7,3',4'-Tetrahydroxy-3-methoxyflavone|7J92C373RH|A884341|ACon1_000818|AKOS015999072|BDBM50240896|C04443|C16H12O7|CHEBI:16860|CHEMBL163316|CS-0017729|DTXSID20164032|E87133|Flavone, 3',4',5,7-tetrahydroxy-3-methoxy-|GLXC-16648|HMS2271J03|HY-N1860|LMPK12112729|MEGxp0_000771|METHYLQUERCETIN, 3-O-|MFCD00210588|MLS000877018|MS-24652|NCGC00017391-01|NCGC00142365-01|NS00097338|NSC-154016|Oprea1_264124|PD150612|Q23068616|QUERCETIN 3-MONOMETHYL ETHER|Quercetin 3-methyl ether|SCHEMBL380558|SMR000440662|TNP00037|UNII-7J92C373RH|cid_5280681

>  <cas>  (1625) 
1486-70-0

$$$$

     RDKit          2D

 18 21  0  0  0  0  0  0  0  0999 V2000
   -0.0559    2.7180    0.0000 C   0  0  0  0  0  0  0  0  0  0  0  0
   -0.5250    1.2932    0.0000 N   0  0  0  0  0  0  0  0  0  0  0  0
   -1.9934    0.9871    0.0000 C   0  0  0  0  0  0  0  0  0  0  0  0
   -2.4625   -0.4377    0.0000 C   0  0  0  0  0  0  0  0  0  0  0  0
   -3.9625   -0.4318    0.0000 C   0  0  0  0  0  0  0  0  0  0  0  0
   -4.4204    0.9966    0.0000 C   0  0  0  0  0  0  0  0  0  0  0  0
   -3.2035    1.8735    0.0000 O   0  0  0  0  0  0  0  0  0  0  0  0
   -1.4632   -1.5563    0.0000 C   0  0  0  0  0  0  0  0  0  0  0  0
   -1.9323   -2.9811    0.0000 O   0  0  0  0  0  0  0  0  0  0  0  0
    0.0053   -1.2502    0.0000 C   0  0  0  0  0  0  0  0  0  0  0  0
    1.0046   -2.3688    0.0000 C   0  0  0  0  0  0  0  0  0  0  0  0
    2.4730   -2.0627    0.0000 C   0  0  0  0  0  0  0  0  0  0  0  0
    2.9421   -0.6379    0.0000 C   0  0  0  0  0  0  0  0  0  0  0  0
    4.3148   -0.0332    0.0000 O   0  0  0  0  0  0  0  0  0  0  0  0
    4.1638    1.4592    0.0000 C   0  0  0  0  0  0  0  0  0  0  0  0
    2.6978    1.7768    0.0000 O   0  0  0  0  0  0  0  0  0  0  0  0
    1.9428    0.4807    0.0000 C   0  0  0  0  0  0  0  0  0  0  0  0
    0.4744    0.1746    0.0000 C   0  0  0  0  0  0  0  0  0  0  0  0
  1  2  1  0
  2  3  1  0
  3  4  2  0
  4  5  1  0
  5  6  2  0
  6  7  1  0
  4  8  1  0
  8  9  2  0
  8 10  1  0
 10 11  2  0
 11 12  1  0
 12 13  2  0
 13 14  1  0
 14 15  1  0
 15 16  1  0
 16 17  1  0
 17 18  2  0
 18  2  1  0
  7  3  1  0
 18 10  1  0
 17 13  1  0
M  END
>  <identifier>  (1626) 
CNP0312892.0

>  <canonical_smiles>  (1626) 
CN1C2=C(C=CO2)C(=O)C2=CC=C3OCOC3=C21

>  <standard_inchi>  (1626) 
InChI=1S/C13H9NO4/c1-14-10-7(2-3-9-12(10)18-6-17-9)11(15)8-4-5-16-13(8)14/h2-5H,6H2,1H3

>  <standard_inchi_key>  (1626) 
NHZPBGFQJJMRDM-UHFFFAOYSA-N

>  <name>  (1626) 
nan

>  <iupac_name>  (1626) 
16-methyl-3,5,14-trioxa-16-azatetracyclo[7.7.0.0^{2,6}.0^{11,15}]hexadeca-1,6,8,11(15),12-pentaen-10-one

>  <annotation_level>  (1626) 
5

>  <total_atom_count>  (1626) 
27

>  <heavy_atom_count>  (1626) 
18

>  <molecular_weight>  (1626) 
243.22

>  <exact_molecular_weight>  (1626) 
243.05316

>  <molecular_formula>  (1626) 
C13H9NO4

>  <alogp>  (1626) 
2.01

>  <topological_polar_surface_area>  (1626) 
53.60

>  <rotatable_bond_count>  (1626) 
0

>  <hydrogen_bond_acceptors>  (1626) 
5

>  <hydrogen_bond_donors>  (1626) 
0

>  <hydrogen_bond_acceptors_lipinski>  (1626) 
5

>  <hydrogen_bond_donors_lipinski>  (1626) 
0

>  <lipinski_rule_of_five_violations>  (1626) 
0

>  <aromatic_rings_count>  (1626) 
3

>  <qed_drug_likeliness>  (1626) 
0.61

>  <formal_charge>  (1626) 
0

>  <fractioncsp3>  (1626) 
0.15

>  <number_of_minimal_rings>  (1626) 
4

>  <van_der_walls_volume>  (1626) 
195.18

>  <contains_sugar>  (1626) 
False

>  <contains_ring_sugars>  (1626) 
False

>  <contains_linear_sugars>  (1626) 
False

>  <murcko_framework>  (1626) 
o1ccc2c1Nc3c4OCOc4ccc3C2

>  <np_likeness>  (1626) 
1.29

>  <chemical_class>  (1626) 
Quinolines and derivatives

>  <chemical_sub_class>  (1626) 
Furanoquinolines

>  <chemical_super_class>  (1626) 
Organoheterocyclic compounds

>  <direct_parent_classification>  (1626) 
Furanoquinolines

>  <np_classifier_pathway>  (1626) 
Alkaloids

>  <np_classifier_superclass>  (1626) 
Anthranilic acid alkaloids

>  <np_classifier_class>  (1626) 
Acridone alkaloids

>  <np_classifier_is_glycoside>  (1626) 
False

>  <organisms>  (1626) 
Almeidea rubra

>  <collections>  (1626) 
KNApSaCK|Latin America dataset|NuBBEDB|UNPD (Universal Natural Products Database)|WikiData Natural Products

>  <dois>  (1626) 
10.1590/S0103-50532005000300018

>  <synonyms>  (1626) 
Isokokusagine

>  <cas>  (1626) 
nan

$$$$

     RDKit          2D

 26 28  0  0  0  0  0  0  0  0999 V2000
    3.8197   -4.4384    0.0000 C   0  0  0  0  0  0  0  0  0  0  0  0
    3.7728   -2.9392    0.0000 C   0  0  0  0  0  0  0  0  0  0  0  0
    2.4510   -2.2302    0.0000 C   0  0  0  0  0  0  0  0  0  0  0  0
    2.4040   -0.7309    0.0000 C   0  0  0  0  0  0  0  0  0  0  0  0
    3.6790    0.0594    0.0000 C   0  0  0  0  0  0  0  0  0  0  0  0
    3.6321    1.5586    0.0000 C   0  0  0  0  0  0  0  0  0  0  0  0
    4.9070    2.3489    0.0000 O   0  0  0  0  0  0  0  0  0  0  0  0
    6.2289    1.6399    0.0000 C   0  0  0  0  0  0  0  0  0  0  0  0
    2.3102    2.2676    0.0000 C   0  0  0  0  0  0  0  0  0  0  0  0
    2.2633    3.7669    0.0000 O   0  0  0  0  0  0  0  0  0  0  0  0
    1.0353    1.4774    0.0000 C   0  0  0  0  0  0  0  0  0  0  0  0
    0.0669    0.3318    0.0000 C   0  0  0  0  0  0  0  0  0  0  0  0
   -1.4290    0.4419    0.0000 C   0  0  0  0  0  0  0  0  0  0  0  0
   -2.0817    1.7924    0.0000 C   0  0  0  0  0  0  0  0  0  0  0  0
   -3.5777    1.9025    0.0000 C   0  0  0  0  0  0  0  0  0  0  0  0
   -4.4210    0.6620    0.0000 C   0  0  0  0  0  0  0  0  0  0  0  0
   -5.9169    0.7720    0.0000 O   0  0  0  0  0  0  0  0  0  0  0  0
   -6.5696    2.1226    0.0000 C   0  0  0  0  0  0  0  0  0  0  0  0
   -3.7683   -0.6886    0.0000 C   0  0  0  0  0  0  0  0  0  0  0  0
   -4.6116   -1.9291    0.0000 O   0  0  0  0  0  0  0  0  0  0  0  0
   -3.9589   -3.2797    0.0000 C   0  0  0  0  0  0  0  0  0  0  0  0
   -2.2723   -0.7987    0.0000 C   0  0  0  0  0  0  0  0  0  0  0  0
    0.8572   -0.9431    0.0000 C   0  0  0  0  0  0  0  0  0  0  0  0
    0.2902   -2.3319    0.0000 C   0  0  0  0  0  0  0  0  0  0  0  0
    1.0822   -0.0219    0.0000 C   0  0  0  0  0  0  0  0  0  0  0  0
   -0.1928   -0.8122    0.0000 O   0  0  0  0  0  0  0  0  0  0  0  0
  1  2  2  0
  2  3  1  0
  4  3  1  1
  4  5  1  0
  5  6  2  0
  6  7  1  0
  7  8  1  0
  6  9  1  0
  9 10  2  0
 11  9  1  6
 11 12  1  0
 12 13  1  1
 13 14  2  0
 14 15  1  0
 15 16  2  0
 16 17  1  0
 17 18  1  0
 16 19  1  0
 19 20  1  0
 20 21  1  0
 19 22  2  0
 12 23  1  0
 23 24  1  6
 11 25  1  0
 25 26  1  1
 23  4  1  0
 25  4  1  0
 22 13  1  0
M  END
>  <identifier>  (1627) 
CNP0179445.1

>  <canonical_smiles>  (1627) 
C=CC[C@@]12C=C(OC)C(=O)[C@@H]([C@H](C3=CC=C(OC)C(OC)=C3)[C@H]1C)[C@@H]2O

>  <standard_inchi>  (1627) 
InChI=1S/C21H26O5/c1-6-9-21-11-16(26-5)19(22)18(20(21)23)17(12(21)2)13-7-8-14(24-3)15(10-13)25-4/h6-8,10-12,17-18,20,23H,1,9H2,2-5H3/t12-,17+,18-,20+,21-/m1/s1

>  <standard_inchi_key>  (1627) 
WHHWCIFCUMPODM-LOPMHCFQSA-N

>  <name>  (1627) 
nan

>  <iupac_name>  (1627) 
(1~{S},5~{S},6~{R},7~{R},8~{S})-5-allyl-7-(3,4-dimethoxyphenyl)-8-hydroxy-3-methoxy-6-methyl-bicyclo[3.2.1]oct-3-en-2-one

>  <annotation_level>  (1627) 
5

>  <total_atom_count>  (1627) 
52

>  <heavy_atom_count>  (1627) 
26

>  <molecular_weight>  (1627) 
358.43

>  <exact_molecular_weight>  (1627) 
358.17802

>  <molecular_formula>  (1627) 
C21H26O5

>  <alogp>  (1627) 
3.09

>  <topological_polar_surface_area>  (1627) 
64.99

>  <rotatable_bond_count>  (1627) 
6

>  <hydrogen_bond_acceptors>  (1627) 
5

>  <hydrogen_bond_donors>  (1627) 
1

>  <hydrogen_bond_acceptors_lipinski>  (1627) 
5

>  <hydrogen_bond_donors_lipinski>  (1627) 
1

>  <lipinski_rule_of_five_violations>  (1627) 
0

>  <aromatic_rings_count>  (1627) 
1

>  <qed_drug_likeliness>  (1627) 
0.79

>  <formal_charge>  (1627) 
0

>  <fractioncsp3>  (1627) 
0.48

>  <number_of_minimal_rings>  (1627) 
3

>  <van_der_walls_volume>  (1627) 
335.22

>  <contains_sugar>  (1627) 
False

>  <contains_ring_sugars>  (1627) 
False

>  <contains_linear_sugars>  (1627) 
False

>  <murcko_framework>  (1627) 
c1ccc(cc1)C2CC3C=CCC2C3

>  <np_likeness>  (1627) 
1.86

>  <chemical_class>  (1627) 
Benzene and substituted derivatives

>  <chemical_sub_class>  (1627) 
Methoxybenzenes

>  <chemical_super_class>  (1627) 
Benzenoids

>  <direct_parent_classification>  (1627) 
Dimethoxybenzenes

>  <np_classifier_pathway>  (1627) 
Shikimates and Phenylpropanoids

>  <np_classifier_superclass>  (1627) 
Lignans

>  <np_classifier_class>  (1627) 
Neolignans

>  <np_classifier_is_glycoside>  (1627) 
False

>  <organisms>  (1627) 
Nectandra grandiflora

>  <collections>  (1627) 
ChemSpider NPs|Latin America dataset|NuBBEDB|WikiData Natural Products|ZINC NP

>  <dois>  (1627) 
10.1590/S0103-50532005000400005

>  <synonyms>  (1627) 
Piperol B

>  <cas>  (1627) 
nan

$$$$

     RDKit          2D

 20 23  0  0  0  0  0  0  0  0999 V2000
   -4.6780    1.0032    0.0000 C   0  0  0  0  0  0  0  0  0  0  0  0
   -4.1561   -0.4030    0.0000 O   0  0  0  0  0  0  0  0  0  0  0  0
   -2.6773   -0.6542    0.0000 N   0  0  0  0  0  0  0  0  0  0  0  0
   -2.1554   -2.0605    0.0000 C   0  0  0  0  0  0  0  0  0  0  0  0
   -3.1123   -3.2156    0.0000 O   0  0  0  0  0  0  0  0  0  0  0  0
   -0.6765   -2.3116    0.0000 C   0  0  0  0  0  0  0  0  0  0  0  0
    0.2804   -1.1565    0.0000 C   0  0  0  0  0  0  0  0  0  0  0  0
    1.7791   -1.0947    0.0000 C   0  0  0  0  0  0  0  0  0  0  0  0
    2.8279   -2.1671    0.0000 C   0  0  0  0  0  0  0  0  0  0  0  0
    4.2810   -1.7951    0.0000 C   0  0  0  0  0  0  0  0  0  0  0  0
    4.6854   -0.3506    0.0000 C   0  0  0  0  0  0  0  0  0  0  0  0
    3.6366    0.7218    0.0000 C   0  0  0  0  0  0  0  0  0  0  0  0
    2.1835    0.3498    0.0000 C   0  0  0  0  0  0  0  0  0  0  0  0
    0.9346    1.1807    0.0000 N   0  0  0  0  0  0  0  0  0  0  0  0
    0.4245    2.5985    0.0000 C   0  0  0  0  0  0  0  0  0  0  0  0
    1.4969    3.6472    0.0000 O   0  0  0  0  0  0  0  0  0  0  0  0
   -1.0200    3.0028    0.0000 C   0  0  0  0  0  0  0  0  0  0  0  0
   -2.0924    1.9541    0.0000 C   0  0  0  0  0  0  0  0  0  0  0  0
   -1.7204    0.5009    0.0000 C   0  0  0  0  0  0  0  0  0  0  0  0
   -0.2415    0.2498    0.0000 C   0  0  0  0  0  0  0  0  0  0  0  0
  1  2  1  0
  2  3  1  0
  3  4  1  0
  4  5  2  0
  4  6  1  0
  6  7  2  0
  7  8  1  0
  8  9  2  0
  9 10  1  0
 10 11  2  0
 11 12  1  0
 12 13  2  0
 13 14  1  0
 14 15  1  0
 15 16  2  0
 15 17  1  0
 17 18  2  0
 18 19  1  0
 19 20  2  0
 19  3  1  0
 20  7  1  0
 13  8  1  0
 20 14  1  0
M  END
>  <identifier>  (1628) 
CNP0242850.0

>  <canonical_smiles>  (1628) 
CON1C(=O)C=C2C3=CC=CC=C3N3C(=O)C=CC1=C23

>  <standard_inchi>  (1628) 
InChI=1S/C15H10N2O3/c1-20-17-12-6-7-13(18)16-11-5-3-2-4-9(11)10(15(12)16)8-14(17)19/h2-8H,1H3

>  <standard_inchi_key>  (1628) 
MGZZRRUKOPHKBA-UHFFFAOYSA-N

>  <name>  (1628) 
3H-Indolo(3,2,1-de)(1,5)naphthyridine-2,6-dione, 3-methoxy-

>  <iupac_name>  (1628) 
6-methoxy-1,6-diazatetracyclo[7.6.1.0^{5,16}.0^{10,15}]hexadeca-3,5(16),8,10,12,14-hexaene-2,7-dione

>  <annotation_level>  (1628) 
5

>  <total_atom_count>  (1628) 
30

>  <heavy_atom_count>  (1628) 
20

>  <molecular_weight>  (1628) 
266.26

>  <exact_molecular_weight>  (1628) 
266.06914

>  <molecular_formula>  (1628) 
C15H10N2O3

>  <alogp>  (1628) 
1.26

>  <topological_polar_surface_area>  (1628) 
52.71

>  <rotatable_bond_count>  (1628) 
1

>  <hydrogen_bond_acceptors>  (1628) 
5

>  <hydrogen_bond_donors>  (1628) 
0

>  <hydrogen_bond_acceptors_lipinski>  (1628) 
5

>  <hydrogen_bond_donors_lipinski>  (1628) 
0

>  <lipinski_rule_of_five_violations>  (1628) 
0

>  <aromatic_rings_count>  (1628) 
4

>  <qed_drug_likeliness>  (1628) 
0.52

>  <formal_charge>  (1628) 
0

>  <fractioncsp3>  (1628) 
0.07

>  <number_of_minimal_rings>  (1628) 
4

>  <van_der_walls_volume>  (1628) 
219.77

>  <contains_sugar>  (1628) 
False

>  <contains_ring_sugars>  (1628) 
False

>  <contains_linear_sugars>  (1628) 
False

>  <murcko_framework>  (1628) 
c1ccc2c(c1)c3=CCNC=4C=CCn2c43

>  <np_likeness>  (1628) 
0.67

>  <chemical_class>  (1628) 
Indolonaphthyridine alkaloids

>  <chemical_sub_class>  (1628) 
Indolonaphthyridine alkaloids

>  <chemical_super_class>  (1628) 
Alkaloids and derivatives

>  <direct_parent_classification>  (1628) 
Indolonaphthyridine alkaloids

>  <np_classifier_pathway>  (1628) 
Alkaloids

>  <np_classifier_superclass>  (1628) 
Tryptophan alkaloids

>  <np_classifier_class>  (1628) 
Carboline alkaloids

>  <np_classifier_is_glycoside>  (1628) 
False

>  <organisms>  (1628) 
Simaba cuspidata|Simaba multiflora

>  <collections>  (1628) 
CMAUP (cCollective molecular activities of useful plants)|Latin America dataset|NPASS|NuBBEDB|Super Natural II|UNPD (Universal Natural Products Database)

>  <dois>  (1628) 
10.1016/S0031-9422(00)81981-0|10.1021/np50026a016

>  <synonyms>  (1628) 
3-methoxycanthin-2,6-dione|74991-92-7|C15H10N2O3|CHEMBL454831|DTXSID80225951

>  <cas>  (1628) 
74991-92-7

$$$$

     RDKit          2D

 17 19  0  0  0  0  0  0  0  0999 V2000
   -1.3544   -3.4599    0.0000 C   0  0  0  0  0  0  0  0  0  0  0  0
   -1.2515   -1.9634    0.0000 C   0  0  0  0  0  0  0  0  0  0  0  0
   -2.4961   -1.1261    0.0000 N   0  0  0  0  0  0  0  0  0  0  0  0
   -2.3932    0.3704    0.0000 C   0  0  0  0  0  0  0  0  0  0  0  0
   -3.6377    1.2077    0.0000 C   0  0  0  0  0  0  0  0  0  0  0  0
   -4.9852    0.5486    0.0000 O   0  0  0  0  0  0  0  0  0  0  0  0
   -3.5349    2.7042    0.0000 O   0  0  0  0  0  0  0  0  0  0  0  0
   -1.0458    1.0295    0.0000 C   0  0  0  0  0  0  0  0  0  0  0  0
    0.1988    0.1922    0.0000 C   0  0  0  0  0  0  0  0  0  0  0  0
    0.0959   -1.3043    0.0000 C   0  0  0  0  0  0  0  0  0  0  0  0
    1.4873   -1.8645    0.0000 N   0  0  0  0  0  0  0  0  0  0  0  0
    2.4501   -0.7143    0.0000 C   0  0  0  0  0  0  0  0  0  0  0  0
    3.9492   -0.6602    0.0000 C   0  0  0  0  0  0  0  0  0  0  0  0
    4.6518    0.6650    0.0000 C   0  0  0  0  0  0  0  0  0  0  0  0
    3.8555    1.9361    0.0000 C   0  0  0  0  0  0  0  0  0  0  0  0
    2.3564    1.8820    0.0000 C   0  0  0  0  0  0  0  0  0  0  0  0
    1.6538    0.5568    0.0000 C   0  0  0  0  0  0  0  0  0  0  0  0
  1  2  1  0
  2  3  2  0
  3  4  1  0
  4  5  1  0
  5  6  2  0
  5  7  1  0
  4  8  2  0
  8  9  1  0
  9 10  2  0
 10 11  1  0
 11 12  1  0
 12 13  2  0
 13 14  1  0
 14 15  2  0
 15 16  1  0
 16 17  2  0
 10  2  1  0
 17 12  1  0
 17  9  1  0
M  END
>  <identifier>  (1629) 
CNP0393277.0

>  <canonical_smiles>  (1629) 
CC1=NC(C(=O)O)=CC2=C1NC1=CC=CC=C12

>  <standard_inchi>  (1629) 
InChI=1S/C13H10N2O2/c1-7-12-9(6-11(14-7)13(16)17)8-4-2-3-5-10(8)15-12/h2-6,15H,1H3,(H,16,17)

>  <standard_inchi_key>  (1629) 
MFEZJNMQTQMDRQ-UHFFFAOYSA-N

>  <name>  (1629) 
22329-38-0

>  <iupac_name>  (1629) 
1-methyl-9~{H}-pyrido[3,4-b]indole-3-carboxylic acid

>  <annotation_level>  (1629) 
5

>  <total_atom_count>  (1629) 
27

>  <heavy_atom_count>  (1629) 
17

>  <molecular_weight>  (1629) 
226.23

>  <exact_molecular_weight>  (1629) 
226.07423

>  <molecular_formula>  (1629) 
C13H10N2O2

>  <alogp>  (1629) 
2.72

>  <topological_polar_surface_area>  (1629) 
65.98

>  <rotatable_bond_count>  (1629) 
1

>  <hydrogen_bond_acceptors>  (1629) 
2

>  <hydrogen_bond_donors>  (1629) 
2

>  <hydrogen_bond_acceptors_lipinski>  (1629) 
2

>  <hydrogen_bond_donors_lipinski>  (1629) 
2

>  <lipinski_rule_of_five_violations>  (1629) 
0

>  <aromatic_rings_count>  (1629) 
3

>  <qed_drug_likeliness>  (1629) 
0.67

>  <formal_charge>  (1629) 
0

>  <fractioncsp3>  (1629) 
0.08

>  <number_of_minimal_rings>  (1629) 
3

>  <van_der_walls_volume>  (1629) 
195.67

>  <contains_sugar>  (1629) 
False

>  <contains_ring_sugars>  (1629) 
False

>  <contains_linear_sugars>  (1629) 
False

>  <murcko_framework>  (1629) 
n1ccc2c(c1)[nH]c3ccccc32

>  <np_likeness>  (1629) 
0.06

>  <chemical_class>  (1629) 
Harmala alkaloids

>  <chemical_sub_class>  (1629) 
Harmala alkaloids

>  <chemical_super_class>  (1629) 
Alkaloids and derivatives

>  <direct_parent_classification>  (1629) 
Harmala alkaloids

>  <np_classifier_pathway>  (1629) 
Alkaloids

>  <np_classifier_superclass>  (1629) 
Tryptophan alkaloids

>  <np_classifier_class>  (1629) 
Carboline alkaloids

>  <np_classifier_is_glycoside>  (1629) 
False

>  <organisms>  (1629) 
Aspidosperma exaltum|Chimarrhis turbinata

>  <collections>  (1629) 
Australian natural products|ChemSpider NPs|GNPS (Global Natural Products Social Molecular Networking)|InterBioScreen Ltd|KNApSaCK|Latin America dataset|NPASS|NuBBEDB|PubChem NPs|UNPD (Universal Natural Products Database)|WikiData Natural Products|ZINC NP

>  <dois>  (1629) 
10.1021/NP049863M|10.1021/np049863m|10.1590/S0102-695X2008000100007

>  <synonyms>  (1629) 
1-Mbcca|1-Methyl-9H-beta-carboline-3-carboxylic acid|1-methyl-9H-pyrido[3,4-b]indole-3-carboxylic acid|9H-Pyrido[3,4-b]indole-3-carboxylic acid, 1-methyl-|AKOS000291509|CCG-148652|CHEMBL504850|CS-0214277|Cambridge id 5131299|DTXSID30176868|HMS2271B10|InChI=1\/C13H10N2O2\/c1-7-12-9(6-11(14-7)13(16)17)8-4-2-3-5-10(8)15-12\/h2-6,15H,1H3,(H,16,17)|MFCD00436515|MFEZJNMQTQMDRQ-UHFFFAOYSA-|MLS000574991|MLS001203376|NCGC00245066-01|Oprea1_398090|Oprea1_794881|SCHEMBL3967948|SMR000054936|STL482847|XAA32938|harman-3-carboxylic acid

>  <cas>  (1629) 
nan

$$$$

     RDKit          2D

 20 22  0  0  0  0  0  0  0  0999 V2000
    2.4205    3.1879    0.0000 C   0  0  0  0  0  0  0  0  0  0  0  0
    1.0930    2.4895    0.0000 O   0  0  0  0  0  0  0  0  0  0  0  0
    1.0341    0.9906    0.0000 C   0  0  0  0  0  0  0  0  0  0  0  0
   -0.2934    0.2922    0.0000 C   0  0  0  0  0  0  0  0  0  0  0  0
   -0.3523   -1.2066    0.0000 C   0  0  0  0  0  0  0  0  0  0  0  0
    0.9162   -2.0070    0.0000 N   0  0  0  0  0  0  0  0  0  0  0  0
    2.2437   -1.3086    0.0000 C   0  0  0  0  0  0  0  0  0  0  0  0
    3.5123   -2.1091    0.0000 C   0  0  0  0  0  0  0  0  0  0  0  0
    4.8398   -1.4107    0.0000 C   0  0  0  0  0  0  0  0  0  0  0  0
    4.8987    0.0882    0.0000 C   0  0  0  0  0  0  0  0  0  0  0  0
    3.6302    0.8886    0.0000 C   0  0  0  0  0  0  0  0  0  0  0  0
    2.3027    0.1902    0.0000 C   0  0  0  0  0  0  0  0  0  0  0  0
   -1.7960   -1.6137    0.0000 O   0  0  0  0  0  0  0  0  0  0  0  0
   -2.6294   -0.3665    0.0000 C   0  0  0  0  0  0  0  0  0  0  0  0
   -4.1282   -0.3076    0.0000 C   0  0  0  0  0  0  0  0  0  0  0  0
   -4.0693    1.1912    0.0000 C   0  0  0  0  0  0  0  0  0  0  0  0
   -4.1871   -1.8064    0.0000 C   0  0  0  0  0  0  0  0  0  0  0  0
   -5.6270   -0.2487    0.0000 O   0  0  0  0  0  0  0  0  0  0  0  0
   -1.7007    0.8114    0.0000 C   0  0  0  0  0  0  0  0  0  0  0  0
   -2.1078    2.2551    0.0000 O   0  0  0  0  0  0  0  0  0  0  0  0
  1  2  1  0
  2  3  1  0
  3  4  2  0
  4  5  1  0
  5  6  2  0
  6  7  1  0
  7  8  2  0
  8  9  1  0
  9 10  2  0
 10 11  1  0
 11 12  2  0
  5 13  1  0
 13 14  1  0
 14 15  1  6
 15 16  1  0
 15 17  1  0
 15 18  1  0
 14 19  1  0
 19 20  1  1
 12  3  1  0
 19  4  1  0
 12  7  1  0
M  END
>  <identifier>  (1630) 
CNP0301945.1

>  <canonical_smiles>  (1630) 
COC1=C2C(=NC3=CC=CC=C13)O[C@H](C(C)(C)O)[C@H]2O

>  <standard_inchi>  (1630) 
InChI=1S/C15H17NO4/c1-15(2,18)13-11(17)10-12(19-3)8-6-4-5-7-9(8)16-14(10)20-13/h4-7,11,13,17-18H,1-3H3/t11-,13-/m0/s1

>  <standard_inchi_key>  (1630) 
IEHZFIKGZUDXED-AAEUAGOBSA-N

>  <name>  (1630) 
nan

>  <iupac_name>  (1630) 
(2~{S},3~{S})-2-(1-hydroxy-1-methyl-ethyl)-4-methoxy-2,3-dihydrofuro[2,3-b]quinolin-3-ol

>  <annotation_level>  (1630) 
4

>  <total_atom_count>  (1630) 
37

>  <heavy_atom_count>  (1630) 
20

>  <molecular_weight>  (1630) 
275.3

>  <exact_molecular_weight>  (1630) 
275.11576

>  <molecular_formula>  (1630) 
C15H17NO4

>  <alogp>  (1630) 
1.81

>  <topological_polar_surface_area>  (1630) 
71.81

>  <rotatable_bond_count>  (1630) 
2

>  <hydrogen_bond_acceptors>  (1630) 
5

>  <hydrogen_bond_donors>  (1630) 
2

>  <hydrogen_bond_acceptors_lipinski>  (1630) 
5

>  <hydrogen_bond_donors_lipinski>  (1630) 
2

>  <lipinski_rule_of_five_violations>  (1630) 
0

>  <aromatic_rings_count>  (1630) 
2

>  <qed_drug_likeliness>  (1630) 
0.87

>  <formal_charge>  (1630) 
0

>  <fractioncsp3>  (1630) 
0.40

>  <number_of_minimal_rings>  (1630) 
3

>  <van_der_walls_volume>  (1630) 
nan

>  <contains_sugar>  (1630) 
False

>  <contains_ring_sugars>  (1630) 
False

>  <contains_linear_sugars>  (1630) 
False

>  <murcko_framework>  (1630) 
n1c2OCCc2cc3ccccc13

>  <np_likeness>  (1630) 
1.47

>  <chemical_class>  (1630) 
Quinolines and derivatives

>  <chemical_sub_class>  (1630) 
Furanoquinolines

>  <chemical_super_class>  (1630) 
Organoheterocyclic compounds

>  <direct_parent_classification>  (1630) 
Furanoquinolines

>  <np_classifier_pathway>  (1630) 
Alkaloids

>  <np_classifier_superclass>  (1630) 
Tryptophan alkaloids

>  <np_classifier_class>  (1630) 
Quinoline alkaloids

>  <np_classifier_is_glycoside>  (1630) 
False

>  <organisms>  (1630) 
Haplophyllum griffithianum|Myrtopsis sellingii|Rauia resinosa

>  <collections>  (1630) 
Latin America dataset|NuBBEDB|Super Natural II|WikiData Natural Products|ZINC NP

>  <dois>  (1630) 
10.1007/BF00565160|10.1016/S0031-9422(00)86717-5|10.1055/S-0028-1097674|10.1590/S0100-40422010001000024

>  <synonyms>  (1630) 
myrtopsine

>  <cas>  (1630) 
nan

$$$$

     RDKit          2D

 33 36  0  0  0  0  0  0  0  0999 V2000
    5.9670   -2.1320    0.0000 C   0  0  0  0  0  0  0  0  0  0  0  0
    4.8659   -3.1508    0.0000 C   0  0  0  0  0  0  0  0  0  0  0  0
    3.7649   -4.1695    0.0000 C   0  0  0  0  0  0  0  0  0  0  0  0
    5.8846   -4.2518    0.0000 O   0  0  0  0  0  0  0  0  0  0  0  0
    3.8472   -2.0497    0.0000 C   0  0  0  0  0  0  0  0  0  0  0  0
    4.2914   -0.6170    0.0000 C   0  0  0  0  0  0  0  0  0  0  0  0
    3.2727    0.4840    0.0000 C   0  0  0  0  0  0  0  0  0  0  0  0
    1.8098    0.1523    0.0000 O   0  0  0  0  0  0  0  0  0  0  0  0
    3.7169    1.9168    0.0000 C   0  0  0  0  0  0  0  0  0  0  0  0
    5.1496    1.4726    0.0000 C   0  0  0  0  0  0  0  0  0  0  0  0
    4.1610    3.3495    0.0000 O   0  0  0  0  0  0  0  0  0  0  0  0
    2.2841    2.3609    0.0000 C   0  0  0  0  0  0  0  0  0  0  0  0
    1.8013    3.7811    0.0000 C   0  0  0  0  0  0  0  0  0  0  0  0
    0.3015    3.7608    0.0000 C   0  0  0  0  0  0  0  0  0  0  0  0
   -0.1427    2.3280    0.0000 C   0  0  0  0  0  0  0  0  0  0  0  0
   -1.5046    1.6994    0.0000 C   0  0  0  0  0  0  0  0  0  0  0  0
   -2.7300    2.5646    0.0000 C   0  0  0  0  0  0  0  0  0  0  0  0
   -4.0919    1.9360    0.0000 C   0  0  0  0  0  0  0  0  0  0  0  0
   -5.3173    2.8012    0.0000 O   0  0  0  0  0  0  0  0  0  0  0  0
   -4.2285    0.4422    0.0000 C   0  0  0  0  0  0  0  0  0  0  0  0
   -5.5904   -0.1864    0.0000 C   0  0  0  0  0  0  0  0  0  0  0  0
   -5.7270   -1.6802    0.0000 C   0  0  0  0  0  0  0  0  0  0  0  0
   -7.0889   -2.3088    0.0000 O   0  0  0  0  0  0  0  0  0  0  0  0
   -4.5016   -2.5453    0.0000 C   0  0  0  0  0  0  0  0  0  0  0  0
   -4.6382   -4.0391    0.0000 O   0  0  0  0  0  0  0  0  0  0  0  0
   -3.1397   -1.9167    0.0000 C   0  0  0  0  0  0  0  0  0  0  0  0
   -3.0031   -0.4229    0.0000 C   0  0  0  0  0  0  0  0  0  0  0  0
   -1.7778   -1.2881    0.0000 C   0  0  0  0  0  0  0  0  0  0  0  0
   -1.6412    0.2057    0.0000 C   0  0  0  0  0  0  0  0  0  0  0  0
   -0.4158   -0.6595    0.0000 C   0  0  0  0  0  0  0  0  0  0  0  0
    0.9461   -0.0309    0.0000 C   0  0  0  0  0  0  0  0  0  0  0  0
    1.0827    1.4629    0.0000 C   0  0  0  0  0  0  0  0  0  0  0  0
    2.3917    0.7305    0.0000 C   0  0  0  0  0  0  0  0  0  0  0  0
  1  2  1  0
  2  3  1  0
  2  4  1  0
  2  5  1  0
  5  6  1  0
  6  7  1  0
  7  8  1  1
  7  9  1  0
  9 10  1  6
  9 11  1  0
  9 12  1  0
 12 13  1  6
 13 14  1  0
 14 15  2  0
 15 16  1  0
 16 17  2  0
 17 18  1  0
 18 19  2  0
 18 20  1  0
 20 21  1  0
 21 22  1  0
 22 23  1  6
 22 24  1  0
 24 25  1  6
 24 26  1  0
 26 27  1  0
 27 28  1  6
 27 29  1  0
 29 30  1  0
 30 31  1  0
 31 32  1  0
 32 33  1  6
 32 12  1  0
 32 15  1  0
 29 16  1  0
 27 20  1  0
M  END
>  <identifier>  (1631) 
CNP0156494.1

>  <canonical_smiles>  (1631) 
CC(C)(O)CC[C@@H](O)[C@](C)(O)[C@H]1CC=C2C3=CC(=O)C4C[C@@H](O)[C@@H](O)C[C@]4(C)C3CC[C@@]21C

>  <standard_inchi>  (1631) 
InChI=1S/C27H42O6/c1-24(2,32)10-9-23(31)27(5,33)22-7-6-16-15-12-19(28)18-13-20(29)21(30)14-26(18,4)17(15)8-11-25(16,22)3/h6,12,17-18,20-23,29-33H,7-11,13-14H2,1-5H3/t17?,18?,20-,21+,22+,23-,25+,26-,27-/m1/s1

>  <standard_inchi_key>  (1631) 
ZYXLMHXQZHELAP-XQIKHSEISA-N

>  <name>  (1631) 
nan

>  <iupac_name>  (1631) 
(2~{S},3~{R},10~{R},13~{R},17~{S})-2,3-dihydroxy-10,13-dimethyl-17-[(1~{R},2~{R})-1,2,5-trihydroxy-1,5-dimethyl-hexyl]-1,2,3,4,5,9,11,12,16,17-decahydrocyclopenta[a]phenanthren-6-one

>  <annotation_level>  (1631) 
4

>  <total_atom_count>  (1631) 
75

>  <heavy_atom_count>  (1631) 
33

>  <molecular_weight>  (1631) 
462.63

>  <exact_molecular_weight>  (1631) 
462.29814

>  <molecular_formula>  (1631) 
C27H42O6

>  <alogp>  (1631) 
2.66

>  <topological_polar_surface_area>  (1631) 
118.22

>  <rotatable_bond_count>  (1631) 
5

>  <hydrogen_bond_acceptors>  (1631) 
6

>  <hydrogen_bond_donors>  (1631) 
5

>  <hydrogen_bond_acceptors_lipinski>  (1631) 
6

>  <hydrogen_bond_donors_lipinski>  (1631) 
5

>  <lipinski_rule_of_five_violations>  (1631) 
0

>  <aromatic_rings_count>  (1631) 
0

>  <qed_drug_likeliness>  (1631) 
0.43

>  <formal_charge>  (1631) 
0

>  <fractioncsp3>  (1631) 
0.82

>  <number_of_minimal_rings>  (1631) 
4

>  <van_der_walls_volume>  (1631) 
nan

>  <contains_sugar>  (1631) 
False

>  <contains_ring_sugars>  (1631) 
False

>  <contains_linear_sugars>  (1631) 
False

>  <murcko_framework>  (1631) 
C1=C2C3=CCC4CCCCC4C3CCC2CC1

>  <np_likeness>  (1631) 
3.22

>  <chemical_class>  (1631) 
Steroids and steroid derivatives

>  <chemical_sub_class>  (1631) 
Bile acids, alcohols and derivatives

>  <chemical_super_class>  (1631) 
Lipids and lipid-like molecules

>  <direct_parent_classification>  (1631) 
Bile acids, alcohols and derivatives

>  <np_classifier_pathway>  (1631) 
Terpenoids

>  <np_classifier_superclass>  (1631) 
Steroids

>  <np_classifier_class>  (1631) 
Ecdysteroids

>  <np_classifier_is_glycoside>  (1631) 
False

>  <organisms>  (1631) 
Vitex polygama

>  <collections>  (1631) 
Latin America dataset|NuBBEDB|WikiData Natural Products

>  <dois>  (1631) 
10.1002/ps.1278|10.1515/ZNC-2008-5-611

>  <synonyms>  (1631) 
stachysterone

>  <cas>  (1631) 
nan

$$$$

     RDKit          2D

 29 33  0  0  0  0  0  0  0  0999 V2000
   -6.5459    2.1527    0.0000 C   0  0  0  0  0  0  0  0  0  0  0  0
   -5.0536    2.0008    0.0000 C   0  0  0  0  0  0  0  0  0  0  0  0
   -4.1759    3.2172    0.0000 O   0  0  0  0  0  0  0  0  0  0  0  0
   -4.4391    0.6325    0.0000 O   0  0  0  0  0  0  0  0  0  0  0  0
   -2.9468    0.4806    0.0000 C   0  0  0  0  0  0  0  0  0  0  0  0
   -2.0691    1.6970    0.0000 C   0  0  0  0  0  0  0  0  0  0  0  0
   -0.5768    1.5450    0.0000 C   0  0  0  0  0  0  0  0  0  0  0  0
    0.4360    2.6449    0.0000 C   0  0  0  0  0  0  0  0  0  0  0  0
    1.9015    2.3249    0.0000 C   0  0  0  0  0  0  0  0  0  0  0  0
    2.3571    0.8958    0.0000 C   0  0  0  0  0  0  0  0  0  0  0  0
    3.8226    0.5758    0.0000 C   0  0  0  0  0  0  0  0  0  0  0  0
    5.0410    1.4507    0.0000 C   0  0  0  0  0  0  0  0  0  0  0  0
    6.2496    0.5624    0.0000 C   0  0  0  0  0  0  0  0  0  0  0  0
    7.6787    1.0180    0.0000 O   0  0  0  0  0  0  0  0  0  0  0  0
    5.7782   -0.8616    0.0000 C   0  0  0  0  0  0  0  0  0  0  0  0
    4.2782   -0.8533    0.0000 C   0  0  0  0  0  0  0  0  0  0  0  0
    4.8807   -2.2270    0.0000 C   0  0  0  0  0  0  0  0  0  0  0  0
    3.2683   -1.9625    0.0000 C   0  0  0  0  0  0  0  0  0  0  0  0
    1.8029   -1.6425    0.0000 C   0  0  0  0  0  0  0  0  0  0  0  0
    1.3472   -0.2133    0.0000 C   0  0  0  0  0  0  0  0  0  0  0  0
   -0.1182    0.1067    0.0000 C   0  0  0  0  0  0  0  0  0  0  0  0
    0.0434   -1.3846    0.0000 C   0  0  0  0  0  0  0  0  0  0  0  0
   -1.3249   -1.9992    0.0000 O   0  0  0  0  0  0  0  0  0  0  0  0
   -2.3322   -0.8878    0.0000 C   0  0  0  0  0  0  0  0  0  0  0  0
   -3.8235   -1.0494    0.0000 O   0  0  0  0  0  0  0  0  0  0  0  0
   -4.4291   -2.4217    0.0000 C   0  0  0  0  0  0  0  0  0  0  0  0
   -5.9204   -2.5834    0.0000 C   0  0  0  0  0  0  0  0  0  0  0  0
   -3.5435   -3.6324    0.0000 O   0  0  0  0  0  0  0  0  0  0  0  0
   -1.5865    0.4137    0.0000 C   0  0  0  0  0  0  0  0  0  0  0  0
  1  2  1  0
  2  3  2  0
  2  4  1  0
  5  4  1  1
  5  6  1  0
  7  6  1  6
  7  8  1  0
  8  9  1  0
 10  9  1  1
 10 11  1  0
 11 12  1  6
 12 13  1  0
 13 14  2  0
 13 15  1  0
 15 16  1  0
 16 17  1  6
 16 18  1  0
 18 19  1  0
 20 19  1  6
 20 21  1  0
 21 22  1  6
 22 23  1  0
 23 24  1  0
 24 25  1  1
 25 26  1  0
 26 27  1  0
 26 28  2  0
 24 29  1  0
 24  5  1  0
 21  7  1  0
 20 10  1  0
 29 21  1  0
 16 11  1  0
M  END
>  <identifier>  (1632) 
CNP0092008.1

>  <canonical_smiles>  (1632) 
CC(=O)O[C@H]1C[C@@H]2CC[C@H]3[C@@H]4CC(=O)C[C@@]4(C)CC[C@@H]3[C@]23CO[C@@]1(OC(C)=O)C3

>  <standard_inchi>  (1632) 
InChI=1S/C23H32O6/c1-13(24)28-20-8-15-4-5-17-18(6-7-21(3)10-16(26)9-19(17)21)22(15)11-23(20,27-12-22)29-14(2)25/h15,17-20H,4-12H2,1-3H3/t15-,17+,18-,19-,20-,21+,22+,23+/m0/s1

>  <standard_inchi_key>  (1632) 
AXUYMNBYBROCLN-ZCQLBBLLSA-N

>  <name>  (1632) 
nan

>  <iupac_name>  (1632) 
[(1~{R},2~{S},5~{R},9~{S},10~{S},13~{S},15~{S},16~{R})-16-acetoxy-5-methyl-7-oxo-17-oxapentacyclo[14.2.1.0^{1,13}.0^{2,10}.0^{5,9}]nonadecan-15-yl] acetate

>  <annotation_level>  (1632) 
4

>  <total_atom_count>  (1632) 
61

>  <heavy_atom_count>  (1632) 
29

>  <molecular_weight>  (1632) 
404.5

>  <exact_molecular_weight>  (1632) 
404.21989

>  <molecular_formula>  (1632) 
C23H32O6

>  <alogp>  (1632) 
3.41

>  <topological_polar_surface_area>  (1632) 
78.90

>  <rotatable_bond_count>  (1632) 
2

>  <hydrogen_bond_acceptors>  (1632) 
6

>  <hydrogen_bond_donors>  (1632) 
0

>  <hydrogen_bond_acceptors_lipinski>  (1632) 
6

>  <hydrogen_bond_donors_lipinski>  (1632) 
0

>  <lipinski_rule_of_five_violations>  (1632) 
0

>  <aromatic_rings_count>  (1632) 
0

>  <qed_drug_likeliness>  (1632) 
0.66

>  <formal_charge>  (1632) 
0

>  <fractioncsp3>  (1632) 
0.87

>  <number_of_minimal_rings>  (1632) 
5

>  <van_der_walls_volume>  (1632) 
nan

>  <contains_sugar>  (1632) 
False

>  <contains_ring_sugars>  (1632) 
False

>  <contains_linear_sugars>  (1632) 
False

>  <murcko_framework>  (1632) 
O1CC23CC1CCC3CCC4C5CCCC5CCC42

>  <np_likeness>  (1632) 
2.66

>  <chemical_class>  (1632) 
Steroids and steroid derivatives

>  <chemical_sub_class>  (1632) 
Steroid esters

>  <chemical_super_class>  (1632) 
Lipids and lipid-like molecules

>  <direct_parent_classification>  (1632) 
Steroid esters

>  <np_classifier_pathway>  (1632) 
Terpenoids

>  <np_classifier_superclass>  (1632) 
Steroids

>  <np_classifier_class>  (1632) 
Androstane steroids

>  <np_classifier_is_glycoside>  (1632) 
True

>  <organisms>  (1632) 
Trichilia claussenii

>  <collections>  (1632) 
Latin America dataset|NuBBEDB|WikiData Natural Products

>  <dois>  (1632) 
10.1016/S0031-9422(97)00167-2

>  <synonyms>  (1632) 
2\u221a\u00e9\u00ac\u00b13\u221a\u00e9\u00ac\u00b1-Diacetoxyandrostan-16-one 2\u221a\u00e9\u00ac\u226419-hemiketal

>  <cas>  (1632) 
nan

$$$$

     RDKit          2D

 48 56  0  0  0  0  0  0  0  0999 V2000
   -0.6106    5.5050    0.0000 C   0  0  0  0  0  0  0  0  0  0  0  0
   -0.4290    4.0160    0.0000 C   0  0  0  0  0  0  0  0  0  0  0  0
    0.9512    3.4288    0.0000 C   0  0  0  0  0  0  0  0  0  0  0  0
    2.1500    4.3305    0.0000 C   0  0  0  0  0  0  0  0  0  0  0  0
    3.5302    3.7432    0.0000 N   0  0  0  0  0  0  0  0  0  0  0  0
    4.7289    4.6449    0.0000 C   0  0  0  0  0  0  0  0  0  0  0  0
    3.8841    2.2752    0.0000 C   0  0  0  0  0  0  0  0  0  0  0  0
    4.6216    0.9691    0.0000 C   0  0  0  0  0  0  0  0  0  0  0  0
    4.2195   -0.4760    0.0000 C   0  0  0  0  0  0  0  0  0  0  0  0
    2.9134   -1.2136    0.0000 C   0  0  0  0  0  0  0  0  0  0  0  0
    3.2112   -2.6837    0.0000 N   0  0  0  0  0  0  0  0  0  0  0  0
    4.7014   -2.8548    0.0000 C   0  0  0  0  0  0  0  0  0  0  0  0
    5.5714   -4.0767    0.0000 C   0  0  0  0  0  0  0  0  0  0  0  0
    7.0646   -3.9341    0.0000 C   0  0  0  0  0  0  0  0  0  0  0  0
    7.6878   -2.5697    0.0000 C   0  0  0  0  0  0  0  0  0  0  0  0
    6.8178   -1.3478    0.0000 C   0  0  0  0  0  0  0  0  0  0  0  0
    5.3246   -1.4903    0.0000 C   0  0  0  0  0  0  0  0  0  0  0  0
    1.4683   -0.8115    0.0000 C   0  0  0  0  0  0  0  0  0  0  0  0
    0.5438   -1.9927    0.0000 C   0  0  0  0  0  0  0  0  0  0  0  0
   -0.9415   -1.7827    0.0000 C   0  0  0  0  0  0  0  0  0  0  0  0
   -1.7792   -0.5384    0.0000 N   0  0  0  0  0  0  0  0  0  0  0  0
   -3.2214   -0.9507    0.0000 C   0  0  0  0  0  0  0  0  0  0  0  0
   -3.2751   -2.4497    0.0000 C   0  0  0  0  0  0  0  0  0  0  0  0
   -4.4805   -3.3424    0.0000 C   0  0  0  0  0  0  0  0  0  0  0  0
   -5.9300   -2.9566    0.0000 C   0  0  0  0  0  0  0  0  0  0  0  0
   -6.5321   -1.5828    0.0000 N   0  0  0  0  0  0  0  0  0  0  0  0
   -8.0310   -1.6413    0.0000 C   0  0  0  0  0  0  0  0  0  0  0  0
   -8.8311   -0.3726    0.0000 C   0  0  0  0  0  0  0  0  0  0  0  0
   -8.1324    0.9548    0.0000 C   0  0  0  0  0  0  0  0  0  0  0  0
   -6.6335    1.0133    0.0000 C   0  0  0  0  0  0  0  0  0  0  0  0
   -5.9348    2.3407    0.0000 C   0  0  0  0  0  0  0  0  0  0  0  0
   -6.7350    3.6094    0.0000 C   0  0  0  0  0  0  0  0  0  0  0  0
   -5.8334   -0.2554    0.0000 C   0  0  0  0  0  0  0  0  0  0  0  0
   -4.3600    0.0259    0.0000 C   0  0  0  0  0  0  0  0  0  0  0  0
   -5.7205    0.6576    0.0000 C   0  0  0  0  0  0  0  0  0  0  0  0
   -1.8659   -2.9639    0.0000 C   0  0  0  0  0  0  0  0  0  0  0  0
   -1.3052   -4.3552    0.0000 C   0  0  0  0  0  0  0  0  0  0  0  0
    0.1800   -4.5652    0.0000 C   0  0  0  0  0  0  0  0  0  0  0  0
    1.1045   -3.3840    0.0000 C   0  0  0  0  0  0  0  0  0  0  0  0
    2.5897   -3.5940    0.0000 O   0  0  0  0  0  0  0  0  0  0  0  0
    3.1505   -4.9852    0.0000 C   0  0  0  0  0  0  0  0  0  0  0  0
    0.7307    0.4947    0.0000 C   0  0  0  0  0  0  0  0  0  0  0  0
    1.1328    1.9398    0.0000 C   0  0  0  0  0  0  0  0  0  0  0  0
    2.4390    2.6773    0.0000 C   0  0  0  0  0  0  0  0  0  0  0  0
    2.2574    4.1663    0.0000 C   0  0  0  0  0  0  0  0  0  0  0  0
    0.8771    4.7536    0.0000 O   0  0  0  0  0  0  0  0  0  0  0  0
    3.4561    5.0680    0.0000 O   0  0  0  0  0  0  0  0  0  0  0  0
    3.2746    6.5570    0.0000 C   0  0  0  0  0  0  0  0  0  0  0  0
  1  2  1  0
  2  3  2  3
  3  4  1  0
  4  5  1  0
  5  6  1  0
  5  7  1  0
  7  8  1  1
  8  9  1  0
  9 10  2  0
 10 11  1  0
 11 12  1  0
 12 13  2  0
 13 14  1  0
 14 15  2  0
 15 16  1  0
 16 17  2  0
 10 18  1  0
 18 19  1  1
 19 20  2  0
 20 21  1  0
 21 22  1  0
 22 23  2  0
 23 24  1  0
 24 25  1  0
 25 26  1  0
 26 27  1  0
 28 27  1  6
 28 29  1  0
 29 30  1  0
 30 31  1  6
 31 32  1  0
 30 33  1  0
 33 34  1  0
 34 35  1  0
 23 36  1  0
 36 37  2  0
 37 38  1  0
 38 39  2  0
 39 40  1  0
 40 41  1  0
 18 42  1  0
 43 42  1  1
 43 44  1  0
 44 45  1  1
 45 46  2  0
 45 47  1  0
 47 48  1  0
 43  3  1  0
 44  7  1  0
 17  9  1  0
 39 19  1  0
 17 12  1  0
 36 20  1  0
 34 22  1  1
 33 26  1  1
 35 28  1  0
M  END
>  <identifier>  (1633) 
CNP0195131.1

>  <canonical_smiles>  (1633) 
CC=C1CN(C)[C@H]2CC3=C(NC4=CC=CC=C34)[C@@H](C3=C4NC5=C(CCN6C[C@@H]7C[C@H](CC)[C@H]6[C@H]5C7)C4=CC=C3OC)C[C@@H]1[C@H]2C(=O)OC

>  <standard_inchi>  (1633) 
InChI=1S/C41H50N4O3/c1-6-23-16-22-17-31-37-27(14-15-45(20-22)40(23)31)26-12-13-34(47-4)36(39(26)43-37)30-18-28-24(7-2)21-44(3)33(35(28)41(46)48-5)19-29-25-10-8-9-11-32(25)42-38(29)30/h7-13,22-23,28,30-31,33,35,40,42-43H,6,14-21H2,1-5H3/t22-,23+,28+,30-,31+,33+,35-,40+/m1/s1

>  <standard_inchi_key>  (1633) 
CTUPMYJRNOILMK-DMLWTHNLSA-N

>  <name>  (1633) 
nan

>  <iupac_name>  (1633) 
methyl (1~{S},12~{R},14~{R},18~{R})-15-ethylidene-12-[(1~{R},15~{R},17~{S},18~{S})-17-ethyl-6-methoxy-3,13-diazapentacyclo[13.3.1.0^{2,10}.0^{4,9}.0^{13,18}]nonadeca-2(10),4,6,8-tetraen-5-yl]-17-methyl-10,17-diazatetracyclo[12.3.1.0^{3,11}.0^{4,9}]octadeca-3(11),4,6,8-tetraene-18-carboxylate

>  <annotation_level>  (1633) 
4

>  <total_atom_count>  (1633) 
98

>  <heavy_atom_count>  (1633) 
48

>  <molecular_weight>  (1633) 
646.88

>  <exact_molecular_weight>  (1633) 
646.38829

>  <molecular_formula>  (1633) 
C41H50N4O3

>  <alogp>  (1633) 
7.16

>  <topological_polar_surface_area>  (1633) 
73.59

>  <rotatable_bond_count>  (1633) 
4

>  <hydrogen_bond_acceptors>  (1633) 
5

>  <hydrogen_bond_donors>  (1633) 
2

>  <hydrogen_bond_acceptors_lipinski>  (1633) 
5

>  <hydrogen_bond_donors_lipinski>  (1633) 
2

>  <lipinski_rule_of_five_violations>  (1633) 
2

>  <aromatic_rings_count>  (1633) 
4

>  <qed_drug_likeliness>  (1633) 
0.18

>  <formal_charge>  (1633) 
0

>  <fractioncsp3>  (1633) 
0.54

>  <number_of_minimal_rings>  (1633) 
10

>  <van_der_walls_volume>  (1633) 
nan

>  <contains_sugar>  (1633) 
False

>  <contains_ring_sugars>  (1633) 
False

>  <contains_linear_sugars>  (1633) 
False

>  <murcko_framework>  (1633) 
c1ccc2c(c1)[nH]c3c2CC4NCCC(CC3c5cccc6c5[nH]c7c6CCN8CC9CCC8C7C9)C4

>  <np_likeness>  (1633) 
1.36

>  <chemical_class>  (1633) 
Ibogan-type alkaloids

>  <chemical_sub_class>  (1633) 
Ibogan-type alkaloids

>  <chemical_super_class>  (1633) 
Alkaloids and derivatives

>  <direct_parent_classification>  (1633) 
Ibogan-type alkaloids

>  <np_classifier_pathway>  (1633) 
Alkaloids

>  <np_classifier_superclass>  (1633) 
Tryptophan alkaloids

>  <np_classifier_class>  (1633) 
Iboga type

>  <np_classifier_is_glycoside>  (1633) 
False

>  <organisms>  (1633) 
Peschiera catharinensis

>  <collections>  (1633) 
Latin America dataset|NuBBEDB

>  <dois>  (1633) 
10.1016/S0031-9422(00)80552-X

>  <synonyms>  (1633) 
Conodurine

>  <cas>  (1633) 
nan

$$$$

     RDKit          2D

 26 29  0  0  0  0  0  0  0  0999 V2000
    6.8191   -2.4053    0.0000 C   0  0  0  0  0  0  0  0  0  0  0  0
    6.2482   -1.0183    0.0000 O   0  0  0  0  0  0  0  0  0  0  0  0
    4.7614   -0.8192    0.0000 C   0  0  0  0  0  0  0  0  0  0  0  0
    3.8457   -2.0072    0.0000 C   0  0  0  0  0  0  0  0  0  0  0  0
    2.3589   -1.8081    0.0000 C   0  0  0  0  0  0  0  0  0  0  0  0
    1.7880   -0.4210    0.0000 C   0  0  0  0  0  0  0  0  0  0  0  0
    2.7038    0.7670    0.0000 C   0  0  0  0  0  0  0  0  0  0  0  0
    4.1905    0.5679    0.0000 C   0  0  0  0  0  0  0  0  0  0  0  0
    5.1063    1.7559    0.0000 O   0  0  0  0  0  0  0  0  0  0  0  0
    6.5930    1.5568    0.0000 C   0  0  0  0  0  0  0  0  0  0  0  0
    2.1328    2.1541    0.0000 O   0  0  0  0  0  0  0  0  0  0  0  0
    0.6461    2.3532    0.0000 C   0  0  0  0  0  0  0  0  0  0  0  0
   -0.2697    1.1652    0.0000 C   0  0  0  0  0  0  0  0  0  0  0  0
   -1.7653    1.0508    0.0000 C   0  0  0  0  0  0  0  0  0  0  0  0
   -2.8511    2.0857    0.0000 C   0  0  0  0  0  0  0  0  0  0  0  0
   -4.2903    1.6629    0.0000 C   0  0  0  0  0  0  0  0  0  0  0  0
   -5.3760    2.6978    0.0000 O   0  0  0  0  0  0  0  0  0  0  0  0
   -4.6437    0.2051    0.0000 C   0  0  0  0  0  0  0  0  0  0  0  0
   -6.0828   -0.2177    0.0000 O   0  0  0  0  0  0  0  0  0  0  0  0
   -6.4362   -1.6755    0.0000 C   0  0  0  0  0  0  0  0  0  0  0  0
   -3.5579   -0.8298    0.0000 C   0  0  0  0  0  0  0  0  0  0  0  0
   -3.9113   -2.2876    0.0000 O   0  0  0  0  0  0  0  0  0  0  0  0
   -5.3505   -2.7104    0.0000 C   0  0  0  0  0  0  0  0  0  0  0  0
   -2.1187   -0.4070    0.0000 C   0  0  0  0  0  0  0  0  0  0  0  0
   -0.8415   -1.1936    0.0000 O   0  0  0  0  0  0  0  0  0  0  0  0
    0.3013   -0.2219    0.0000 C   0  0  0  0  0  0  0  0  0  0  0  0
  1  2  1  0
  2  3  1  0
  3  4  2  0
  4  5  1  0
  5  6  2  0
  6  7  1  0
  7  8  2  0
  8  9  1  0
  9 10  1  0
  7 11  1  0
 11 12  1  0
 13 12  1  6
 13 14  1  0
 14 15  2  0
 15 16  1  0
 16 17  1  0
 16 18  2  0
 18 19  1  0
 19 20  1  0
 18 21  1  0
 21 22  1  0
 22 23  1  0
 21 24  2  0
 24 25  1  0
 26 25  1  6
  8  3  1  0
 26 13  1  0
 26  6  1  0
 24 14  1  0
M  END
>  <identifier>  (1634) 
CNP0115074.2

>  <canonical_smiles>  (1634) 
COC1=CC=C2C(=C1OC)OC[C@H]1C3=CC(O)=C(OC)C(OC)=C3O[C@@H]21

>  <standard_inchi>  (1634) 
InChI=1S/C19H20O7/c1-21-13-6-5-9-14-11(8-25-15(9)18(13)23-3)10-7-12(20)17(22-2)19(24-4)16(10)26-14/h5-7,11,14,20H,8H2,1-4H3/t11-,14-/m0/s1

>  <standard_inchi_key>  (1634) 
AAAQSJHHXMDZCO-FZMZJTMJSA-N

>  <name>  (1634) 
nan

>  <iupac_name>  (1634) 
(6~{a}~{R},11~{a}~{R})-3,4,9,10-tetramethoxy-6~{a},11~{a}-dihydro-6~{H}-benzofuro[3,2-c]chromen-8-ol

>  <annotation_level>  (1634) 
4

>  <total_atom_count>  (1634) 
46

>  <heavy_atom_count>  (1634) 
26

>  <molecular_weight>  (1634) 
360.36

>  <exact_molecular_weight>  (1634) 
360.1209

>  <molecular_formula>  (1634) 
C19H20O7

>  <alogp>  (1634) 
3.04

>  <topological_polar_surface_area>  (1634) 
75.61

>  <rotatable_bond_count>  (1634) 
4

>  <hydrogen_bond_acceptors>  (1634) 
7

>  <hydrogen_bond_donors>  (1634) 
1

>  <hydrogen_bond_acceptors_lipinski>  (1634) 
7

>  <hydrogen_bond_donors_lipinski>  (1634) 
1

>  <lipinski_rule_of_five_violations>  (1634) 
0

>  <aromatic_rings_count>  (1634) 
2

>  <qed_drug_likeliness>  (1634) 
0.90

>  <formal_charge>  (1634) 
0

>  <fractioncsp3>  (1634) 
0.37

>  <number_of_minimal_rings>  (1634) 
4

>  <van_der_walls_volume>  (1634) 
nan

>  <contains_sugar>  (1634) 
False

>  <contains_ring_sugars>  (1634) 
False

>  <contains_linear_sugars>  (1634) 
False

>  <murcko_framework>  (1634) 
O1c2ccccc2C3Oc4ccccc4C3C1

>  <np_likeness>  (1634) 
2.08

>  <chemical_class>  (1634) 
Isoflavonoids

>  <chemical_sub_class>  (1634) 
Furanoisoflavonoids

>  <chemical_super_class>  (1634) 
Phenylpropanoids and polyketides

>  <direct_parent_classification>  (1634) 
Pterocarpans

>  <np_classifier_pathway>  (1634) 
Shikimates and Phenylpropanoids

>  <np_classifier_superclass>  (1634) 
Isoflavonoids

>  <np_classifier_class>  (1634) 
Pterocarpan

>  <np_classifier_is_glycoside>  (1634) 
False

>  <organisms>  (1634) 
Swartzia laevicarpa

>  <collections>  (1634) 
Latin America dataset|NuBBEDB|Super Natural II|WikiData Natural Products|ZINC NP

>  <dois>  (1634) 
10.1016/0031-9422(80)83022-6

>  <synonyms>  (1634) 
(6aR11aR)-8-Hydroxy-34910-tetramehtoxypterocarpan

>  <cas>  (1634) 
nan

$$$$

     RDKit          2D

 26 27  0  0  0  0  0  0  0  0999 V2000
   -5.9792    0.0155    0.0000 C   0  0  0  0  0  0  0  0  0  0  0  0
   -4.4823   -0.0811    0.0000 C   0  0  0  0  0  0  0  0  0  0  0  0
   -3.6502    1.1669    0.0000 C   0  0  0  0  0  0  0  0  0  0  0  0
   -3.8175   -1.4257    0.0000 C   0  0  0  0  0  0  0  0  0  0  0  0
   -2.3206   -1.5223    0.0000 C   0  0  0  0  0  0  0  0  0  0  0  0
   -1.6558   -2.8669    0.0000 C   0  0  0  0  0  0  0  0  0  0  0  0
   -0.1589   -2.9635    0.0000 C   0  0  0  0  0  0  0  0  0  0  0  0
   -0.5140   -4.4209    0.0000 C   0  0  0  0  0  0  0  0  0  0  0  0
   -0.3237   -1.4726    0.0000 O   0  0  0  0  0  0  0  0  0  0  0  0
    0.8850   -0.5844    0.0000 C   0  0  0  0  0  0  0  0  0  0  0  0
    0.7202    0.9065    0.0000 C   0  0  0  0  0  0  0  0  0  0  0  0
   -0.6534    1.5092    0.0000 C   0  0  0  0  0  0  0  0  0  0  0  0
   -0.8182    3.0001    0.0000 C   0  0  0  0  0  0  0  0  0  0  0  0
   -2.1918    3.6029    0.0000 C   0  0  0  0  0  0  0  0  0  0  0  0
   -2.3566    5.0938    0.0000 C   0  0  0  0  0  0  0  0  0  0  0  0
   -3.4006    2.7147    0.0000 C   0  0  0  0  0  0  0  0  0  0  0  0
    1.9290    1.7947    0.0000 C   0  0  0  0  0  0  0  0  0  0  0  0
    3.3025    1.1920    0.0000 C   0  0  0  0  0  0  0  0  0  0  0  0
    4.5113    2.0802    0.0000 C   0  0  0  0  0  0  0  0  0  0  0  0
    4.3465    3.5711    0.0000 O   0  0  0  0  0  0  0  0  0  0  0  0
    5.8849    1.4775    0.0000 O   0  0  0  0  0  0  0  0  0  0  0  0
    3.4674   -0.2989    0.0000 C   0  0  0  0  0  0  0  0  0  0  0  0
    2.2586   -1.1871    0.0000 C   0  0  0  0  0  0  0  0  0  0  0  0
    2.4234   -2.6780    0.0000 C   0  0  0  0  0  0  0  0  0  0  0  0
    1.2147   -3.5662    0.0000 C   0  0  0  0  0  0  0  0  0  0  0  0
    1.3795   -5.0572    0.0000 O   0  0  0  0  0  0  0  0  0  0  0  0
  1  2  1  0
  2  3  1  0
  2  4  2  0
  4  5  1  0
  5  6  1  0
  6  7  1  0
  7  8  1  6
  7  9  1  0
  9 10  1  0
 10 11  2  0
 11 12  1  0
 12 13  1  0
 13 14  2  0
 14 15  1  0
 14 16  1  0
 11 17  1  0
 17 18  2  0
 18 19  1  0
 19 20  2  0
 19 21  1  0
 18 22  1  0
 22 23  2  0
 23 24  1  0
 24 25  1  0
 25 26  1  6
 25  7  1  0
 23 10  1  0
M  END
>  <identifier>  (1635) 
CNP0152568.2

>  <canonical_smiles>  (1635) 
CC(C)=CCC[C@@]1(C)OC2=C(CC=C(C)C)C=C(C(=O)O)C=C2C[C@@H]1O

>  <standard_inchi>  (1635) 
InChI=1S/C22H30O4/c1-14(2)7-6-10-22(5)19(23)13-17-12-18(21(24)25)11-16(20(17)26-22)9-8-15(3)4/h7-8,11-12,19,23H,6,9-10,13H2,1-5H3,(H,24,25)/t19-,22+/m0/s1

>  <standard_inchi_key>  (1635) 
BZURYTKOXWYRAG-SIKLNZKXSA-N

>  <name>  (1635) 
nan

>  <iupac_name>  (1635) 
(2~{R},3~{S})-3-hydroxy-2-methyl-8-(3-methylbut-2-enyl)-2-(4-methylpent-3-enyl)chromane-6-carboxylic acid

>  <annotation_level>  (1635) 
4

>  <total_atom_count>  (1635) 
56

>  <heavy_atom_count>  (1635) 
26

>  <molecular_weight>  (1635) 
358.48

>  <exact_molecular_weight>  (1635) 
358.21441

>  <molecular_formula>  (1635) 
C22H30O4

>  <alogp>  (1635) 
4.69

>  <topological_polar_surface_area>  (1635) 
66.76

>  <rotatable_bond_count>  (1635) 
6

>  <hydrogen_bond_acceptors>  (1635) 
3

>  <hydrogen_bond_donors>  (1635) 
2

>  <hydrogen_bond_acceptors_lipinski>  (1635) 
3

>  <hydrogen_bond_donors_lipinski>  (1635) 
2

>  <lipinski_rule_of_five_violations>  (1635) 
0

>  <aromatic_rings_count>  (1635) 
1

>  <qed_drug_likeliness>  (1635) 
0.72

>  <formal_charge>  (1635) 
0

>  <fractioncsp3>  (1635) 
0.50

>  <number_of_minimal_rings>  (1635) 
2

>  <van_der_walls_volume>  (1635) 
nan

>  <contains_sugar>  (1635) 
False

>  <contains_ring_sugars>  (1635) 
False

>  <contains_linear_sugars>  (1635) 
False

>  <murcko_framework>  (1635) 
O1c2ccccc2CCC1

>  <np_likeness>  (1635) 
2.47

>  <chemical_class>  (1635) 
Benzopyrans

>  <chemical_sub_class>  (1635) 
1-benzopyrans

>  <chemical_super_class>  (1635) 
Organoheterocyclic compounds

>  <direct_parent_classification>  (1635) 
1-benzopyrans

>  <np_classifier_pathway>  (1635) 
Terpenoids

>  <np_classifier_superclass>  (1635) 
Diterpenoids

>  <np_classifier_class>  (1635) 
nan

>  <np_classifier_is_glycoside>  (1635) 
False

>  <organisms>  (1635) 
Myrsinaceae|Myrsine umbellata|Primulaceae|Rapanea guyanensis

>  <collections>  (1635) 
Latin America dataset|NuBBEDB|Super Natural II|WikiData Natural Products|ZINC NP

>  <dois>  (1635) 
10.1016/0031-9422(91)85060-D|10.1016/0031-9422(95)00504-Z

>  <synonyms>  (1635) 
2H-1-Benzopyran-6-carboxylic acid 34-dihydro-3-hydroxy-2-methyl-8-(3-methyl-2-butenyl)-2-(4-methyl-3-pentenyl)- trans-

>  <cas>  (1635) 
nan

$$$$

     RDKit          2D

 38 39  0  0  0  0  0  0  0  0999 V2000
    6.2628   -4.4286    0.0000 C   0  0  0  0  0  0  0  0  0  0  0  0
    6.8143   -3.0337    0.0000 O   0  0  0  0  0  0  0  0  0  0  0  0
    5.8820   -1.8586    0.0000 C   0  0  0  0  0  0  0  0  0  0  0  0
    4.3982   -2.0785    0.0000 C   0  0  0  0  0  0  0  0  0  0  0  0
    3.4659   -0.9034    0.0000 C   0  0  0  0  0  0  0  0  0  0  0  0
    1.9821   -1.1232    0.0000 C   0  0  0  0  0  0  0  0  0  0  0  0
    1.0498    0.0519    0.0000 C   0  0  0  0  0  0  0  0  0  0  0  0
    1.6013    1.4468    0.0000 C   0  0  0  0  0  0  0  0  0  0  0  0
    0.6690    2.6219    0.0000 O   0  0  0  0  0  0  0  0  0  0  0  0
    1.2205    4.0168    0.0000 C   0  0  0  0  0  0  0  0  0  0  0  0
    0.2882    5.1919    0.0000 C   0  0  0  0  0  0  0  0  0  0  0  0
    2.7043    4.2367    0.0000 O   0  0  0  0  0  0  0  0  0  0  0  0
   -0.4340   -0.1680    0.0000 C   0  0  0  0  0  0  0  0  0  0  0  0
   -0.9855   -1.5629    0.0000 C   0  0  0  0  0  0  0  0  0  0  0  0
   -2.4693   -1.7828    0.0000 O   0  0  0  0  0  0  0  0  0  0  0  0
   -3.0208   -3.1777    0.0000 C   0  0  0  0  0  0  0  0  0  0  0  0
   -4.5046   -3.3975    0.0000 C   0  0  0  0  0  0  0  0  0  0  0  0
   -2.0885   -4.3528    0.0000 O   0  0  0  0  0  0  0  0  0  0  0  0
   -1.3663    1.0071    0.0000 C   0  0  0  0  0  0  0  0  0  0  0  0
   -2.8501    0.7873    0.0000 C   0  0  0  0  0  0  0  0  0  0  0  0
   -3.7824    1.9623    0.0000 C   0  0  0  0  0  0  0  0  0  0  0  0
   -5.2662    1.7425    0.0000 C   0  0  0  0  0  0  0  0  0  0  0  0
   -5.8177    0.3476    0.0000 C   0  0  0  0  0  0  0  0  0  0  0  0
   -7.3015    0.1277    0.0000 O   0  0  0  0  0  0  0  0  0  0  0  0
   -8.2338    1.3028    0.0000 C   0  0  0  0  0  0  0  0  0  0  0  0
   -9.7176    1.0829    0.0000 C   0  0  0  0  0  0  0  0  0  0  0  0
   -7.6823    2.6977    0.0000 O   0  0  0  0  0  0  0  0  0  0  0  0
   -4.8854   -0.8275    0.0000 C   0  0  0  0  0  0  0  0  0  0  0  0
   -5.4369   -2.2225    0.0000 O   0  0  0  0  0  0  0  0  0  0  0  0
   -6.9207   -2.4423    0.0000 C   0  0  0  0  0  0  0  0  0  0  0  0
   -3.4016   -0.6077    0.0000 C   0  0  0  0  0  0  0  0  0  0  0  0
    4.0174    0.4916    0.0000 C   0  0  0  0  0  0  0  0  0  0  0  0
    5.5012    0.7114    0.0000 C   0  0  0  0  0  0  0  0  0  0  0  0
    6.4335   -0.4637    0.0000 C   0  0  0  0  0  0  0  0  0  0  0  0
    7.9173   -0.2438    0.0000 O   0  0  0  0  0  0  0  0  0  0  0  0
    8.4688    1.1511    0.0000 C   0  0  0  0  0  0  0  0  0  0  0  0
    9.9526    1.3710    0.0000 C   0  0  0  0  0  0  0  0  0  0  0  0
    7.5365    2.3262    0.0000 O   0  0  0  0  0  0  0  0  0  0  0  0
  1  2  1  0
  2  3  1  0
  3  4  2  0
  4  5  1  0
  5  6  1  0
  7  6  1  6
  7  8  1  0
  8  9  1  0
  9 10  1  0
 10 11  1  0
 10 12  2  0
  7 13  1  0
 13 14  1  6
 14 15  1  0
 15 16  1  0
 16 17  1  0
 16 18  2  0
 13 19  1  0
 19 20  1  0
 20 21  2  0
 21 22  1  0
 22 23  2  0
 23 24  1  0
 24 25  1  0
 25 26  1  0
 25 27  2  0
 23 28  1  0
 28 29  1  0
 29 30  1  0
 28 31  2  0
  5 32  2  0
 32 33  1  0
 33 34  2  0
 34 35  1  0
 35 36  1  0
 36 37  1  0
 36 38  2  0
 34  3  1  0
 31 20  1  0
M  END
>  <identifier>  (1636) 
CNP0280346.1

>  <canonical_smiles>  (1636) 
COC1=CC(C[C@@H](COC(C)=O)[C@H](COC(C)=O)CC2=CC=C(OC(C)=O)C(OC)=C2)=CC=C1OC(C)=O

>  <standard_inchi>  (1636) 
InChI=1S/C28H34O10/c1-17(29)35-15-23(11-21-7-9-25(37-19(3)31)27(13-21)33-5)24(16-36-18(2)30)12-22-8-10-26(38-20(4)32)28(14-22)34-6/h7-10,13-14,23-24H,11-12,15-16H2,1-6H3/t23-,24-/m0/s1

>  <standard_inchi_key>  (1636) 
APTNLHJOYOLQJB-ZEQRLZLVSA-N

>  <name>  (1636) 
bmse010322

>  <iupac_name>  (1636) 
[(2~{R},3~{R})-4-acetoxy-2,3-bis[(4-acetoxy-3-methoxy-phenyl)methyl]butyl] acetate

>  <annotation_level>  (1636) 
5

>  <total_atom_count>  (1636) 
72

>  <heavy_atom_count>  (1636) 
38

>  <molecular_weight>  (1636) 
530.57

>  <exact_molecular_weight>  (1636) 
530.2152

>  <molecular_formula>  (1636) 
C28H34O10

>  <alogp>  (1636) 
3.70

>  <topological_polar_surface_area>  (1636) 
123.66

>  <rotatable_bond_count>  (1636) 
13

>  <hydrogen_bond_acceptors>  (1636) 
10

>  <hydrogen_bond_donors>  (1636) 
0

>  <hydrogen_bond_acceptors_lipinski>  (1636) 
10

>  <hydrogen_bond_donors_lipinski>  (1636) 
0

>  <lipinski_rule_of_five_violations>  (1636) 
1

>  <aromatic_rings_count>  (1636) 
2

>  <qed_drug_likeliness>  (1636) 
0.28

>  <formal_charge>  (1636) 
0

>  <fractioncsp3>  (1636) 
0.43

>  <number_of_minimal_rings>  (1636) 
2

>  <van_der_walls_volume>  (1636) 
486.74

>  <contains_sugar>  (1636) 
False

>  <contains_ring_sugars>  (1636) 
False

>  <contains_linear_sugars>  (1636) 
False

>  <murcko_framework>  (1636) 
c1ccc(cc1)CCCCc2ccccc2

>  <np_likeness>  (1636) 
0.48

>  <chemical_class>  (1636) 
Dibenzylbutane lignans

>  <chemical_sub_class>  (1636) 
Dibenzylbutane lignans

>  <chemical_super_class>  (1636) 
Lignans, neolignans and related compounds

>  <direct_parent_classification>  (1636) 
Dibenzylbutane lignans

>  <np_classifier_pathway>  (1636) 
Shikimates and Phenylpropanoids

>  <np_classifier_superclass>  (1636) 
Lignans

>  <np_classifier_class>  (1636) 
Dibenzylbutane lignans

>  <np_classifier_is_glycoside>  (1636) 
False

>  <organisms>  (1636) 
Araucaria angustifolia|Breonia chinensis|Campylotropis hirtella|Ceropegia dichotoma|Crinum moorei|Crotalaria candicans|Cryptomeria japonica|Dendrobium loddigesii|Distephanus angulifolius|Eria japonica|Eucalyptus apodophylla|Eucalyptus globulus subsp. bicostata|Glehnia littoralis|Glycosmis macrophylla|Gypsophila perfoliata|Hypericum polyanthemum|Isatis tinctoria|Juniperus drupacea|Linum usitatissimum|Martensia denticulata|Mentha cardiaca|Ononis spinosa|Pentaclethra macrophylla|Periploca sepium|Persicaria tinctoria|Plectranthus myrianthus|Premna recinosa|Pterocaulon virgatum|Punica granatum|Rhodiola semenovii|Salvia sessei|Sonneratia caseolaris|Stephania zippeliana|Talaromyces variabilis|Tristania conferta|Vernonia cistifolia|Veronica polita

>  <collections>  (1636) 
ANPDB|CMAUP (cCollective molecular activities of useful plants)|Latin America dataset|NANPDB (Natural Products from Northern African Sources)|NPASS|NuBBEDB|Super Natural II|WikiData Natural Products

>  <dois>  (1636) 
10.1016/0031-9422(95)00269-D|10.1016/0305-1978(94)00066-P|10.1016/S0031-9422(00)89347-4

>  <synonyms>  (1636) 
(-)-seco-isolariciresinol|secoisolariciresinol tetraacetate

>  <cas>  (1636) 
nan

$$$$

     RDKit          2D

 19 19  0  0  0  0  0  0  0  0999 V2000
   -9.9757    0.3647    0.0000 C   0  0  0  0  0  0  0  0  0  0  0  0
   -8.7113   -0.4423    0.0000 O   0  0  0  0  0  0  0  0  0  0  0  0
   -7.3802    0.2492    0.0000 C   0  0  0  0  0  0  0  0  0  0  0  0
   -7.3136    1.7477    0.0000 O   0  0  0  0  0  0  0  0  0  0  0  0
   -6.1158   -0.5578    0.0000 C   0  0  0  0  0  0  0  0  0  0  0  0
   -4.7847    0.1338    0.0000 C   0  0  0  0  0  0  0  0  0  0  0  0
   -3.5203   -0.6732    0.0000 C   0  0  0  0  0  0  0  0  0  0  0  0
   -2.1892    0.0183    0.0000 C   0  0  0  0  0  0  0  0  0  0  0  0
   -0.9248   -0.7886    0.0000 C   0  0  0  0  0  0  0  0  0  0  0  0
    0.4063   -0.0971    0.0000 C   0  0  0  0  0  0  0  0  0  0  0  0
    1.6707   -0.9041    0.0000 C   0  0  0  0  0  0  0  0  0  0  0  0
    3.0018   -0.2125    0.0000 C   0  0  0  0  0  0  0  0  0  0  0  0
    4.2663   -1.0195    0.0000 C   0  0  0  0  0  0  0  0  0  0  0  0
    5.5973   -0.3280    0.0000 C   0  0  0  0  0  0  0  0  0  0  0  0
    5.6640    1.1705    0.0000 C   0  0  0  0  0  0  0  0  0  0  0  0
    6.9951    1.8621    0.0000 C   0  0  0  0  0  0  0  0  0  0  0  0
    8.2595    1.0551    0.0000 C   0  0  0  0  0  0  0  0  0  0  0  0
    8.1928   -0.4434    0.0000 C   0  0  0  0  0  0  0  0  0  0  0  0
    6.8618   -1.1350    0.0000 C   0  0  0  0  0  0  0  0  0  0  0  0
  1  2  1  0
  2  3  1  0
  3  4  2  0
  3  5  1  0
  5  6  1  0
  6  7  1  0
  7  8  1  0
  8  9  1  0
  9 10  1  0
 10 11  1  0
 11 12  1  0
 12 13  1  0
 13 14  1  0
 14 15  2  0
 15 16  1  0
 16 17  2  0
 17 18  1  0
 18 19  2  0
 19 14  1  0
M  END
>  <identifier>  (1637) 
CNP0080415.0

>  <canonical_smiles>  (1637) 
COC(=O)CCCCCCCCCC1=CC=CC=C1

>  <standard_inchi>  (1637) 
InChI=1S/C17H26O2/c1-19-17(18)15-11-6-4-2-3-5-8-12-16-13-9-7-10-14-16/h7,9-10,13-14H,2-6,8,11-12,15H2,1H3

>  <standard_inchi_key>  (1637) 
ITIIGCZVLUSYJQ-UHFFFAOYSA-N

>  <name>  (1637) 
Methyl 10-phenyldecanoate

>  <iupac_name>  (1637) 
methyl 10-phenyldecanoate

>  <annotation_level>  (1637) 
5

>  <total_atom_count>  (1637) 
45

>  <heavy_atom_count>  (1637) 
19

>  <molecular_weight>  (1637) 
262.39

>  <exact_molecular_weight>  (1637) 
262.19328

>  <molecular_formula>  (1637) 
C17H26O2

>  <alogp>  (1637) 
4.52

>  <topological_polar_surface_area>  (1637) 
26.30

>  <rotatable_bond_count>  (1637) 
10

>  <hydrogen_bond_acceptors>  (1637) 
2

>  <hydrogen_bond_donors>  (1637) 
0

>  <hydrogen_bond_acceptors_lipinski>  (1637) 
2

>  <hydrogen_bond_donors_lipinski>  (1637) 
0

>  <lipinski_rule_of_five_violations>  (1637) 
0

>  <aromatic_rings_count>  (1637) 
1

>  <qed_drug_likeliness>  (1637) 
0.46

>  <formal_charge>  (1637) 
0

>  <fractioncsp3>  (1637) 
0.59

>  <number_of_minimal_rings>  (1637) 
1

>  <van_der_walls_volume>  (1637) 
277.74

>  <contains_sugar>  (1637) 
False

>  <contains_ring_sugars>  (1637) 
False

>  <contains_linear_sugars>  (1637) 
False

>  <murcko_framework>  (1637) 
c1ccccc1

>  <np_likeness>  (1637) 
0.13

>  <chemical_class>  (1637) 
Fatty Acyls

>  <chemical_sub_class>  (1637) 
Fatty acid esters

>  <chemical_super_class>  (1637) 
Lipids and lipid-like molecules

>  <direct_parent_classification>  (1637) 
Fatty acid methyl esters

>  <np_classifier_pathway>  (1637) 
Fatty acids

>  <np_classifier_superclass>  (1637) 
Fatty Acids and Conjugates

>  <np_classifier_class>  (1637) 
Carbocyclic fatty acids

>  <np_classifier_is_glycoside>  (1637) 
False

>  <organisms>  (1637) 
Trichilia claussenii

>  <collections>  (1637) 
Latin America dataset|Marine Natural Products|NuBBEDB|WikiData Natural Products|ZINC NP

>  <dois>  (1637) 
10.1016/0031-9422(95)00969-8

>  <synonyms>  (1637) 
10-phenyldecanoic acid methyl ester|ITIIGCZVLUSYJQ-UHFFFAOYSA-N|SCHEMBL9404082

>  <cas>  (1637) 
nan

$$$$

     RDKit          2D

 26 28  0  0  0  0  0  0  0  0999 V2000
   -6.9657   -2.3330    0.0000 C   0  0  0  0  0  0  0  0  0  0  0  0
   -5.4901   -2.6027    0.0000 O   0  0  0  0  0  0  0  0  0  0  0  0
   -4.5188   -1.4597    0.0000 C   0  0  0  0  0  0  0  0  0  0  0  0
   -5.0230   -0.0470    0.0000 C   0  0  0  0  0  0  0  0  0  0  0  0
   -4.0517    1.0961    0.0000 C   0  0  0  0  0  0  0  0  0  0  0  0
   -4.5559    2.5088    0.0000 O   0  0  0  0  0  0  0  0  0  0  0  0
   -2.5761    0.8264    0.0000 C   0  0  0  0  0  0  0  0  0  0  0  0
   -1.6048    1.9694    0.0000 C   0  0  0  0  0  0  0  0  0  0  0  0
   -2.1090    3.3821    0.0000 O   0  0  0  0  0  0  0  0  0  0  0  0
   -0.1292    1.6997    0.0000 C   0  0  0  0  0  0  0  0  0  0  0  0
    0.8421    2.8427    0.0000 O   0  0  0  0  0  0  0  0  0  0  0  0
    2.3177    2.5730    0.0000 C   0  0  0  0  0  0  0  0  0  0  0  0
    0.3750    0.2870    0.0000 C   0  0  0  0  0  0  0  0  0  0  0  0
    1.8506    0.0173    0.0000 C   0  0  0  0  0  0  0  0  0  0  0  0
    2.8219    1.1603    0.0000 C   0  0  0  0  0  0  0  0  0  0  0  0
    4.2975    0.8906    0.0000 C   0  0  0  0  0  0  0  0  0  0  0  0
    4.8017   -0.5221    0.0000 C   0  0  0  0  0  0  0  0  0  0  0  0
    6.2772   -0.7918    0.0000 O   0  0  0  0  0  0  0  0  0  0  0  0
    7.2486    0.3513    0.0000 C   0  0  0  0  0  0  0  0  0  0  0  0
    3.8304   -1.6651    0.0000 C   0  0  0  0  0  0  0  0  0  0  0  0
    4.3346   -3.0778    0.0000 O   0  0  0  0  0  0  0  0  0  0  0  0
    2.3548   -1.3954    0.0000 C   0  0  0  0  0  0  0  0  0  0  0  0
    1.3835   -2.5384    0.0000 O   0  0  0  0  0  0  0  0  0  0  0  0
   -0.5963   -0.8560    0.0000 O   0  0  0  0  0  0  0  0  0  0  0  0
   -2.0719   -0.5863    0.0000 C   0  0  0  0  0  0  0  0  0  0  0  0
   -3.0432   -1.7294    0.0000 C   0  0  0  0  0  0  0  0  0  0  0  0
  1  2  1  0
  2  3  1  0
  3  4  2  0
  4  5  1  0
  5  6  1  0
  5  7  2  0
  7  8  1  0
  8  9  2  0
  8 10  1  0
 10 11  1  0
 11 12  1  0
 10 13  2  0
 13 14  1  0
 14 15  2  0
 15 16  1  0
 16 17  2  0
 17 18  1  0
 18 19  1  0
 17 20  1  0
 20 21  1  0
 20 22  2  0
 22 23  1  0
 13 24  1  0
 24 25  1  0
 25 26  2  0
 26  3  1  0
 25  7  1  0
 22 14  1  0
M  END
>  <identifier>  (1638) 
CNP0262531.0

>  <canonical_smiles>  (1638) 
COC1=CC(O)=C2C(=O)C(OC)=C(C3=CC=C(OC)C(O)=C3O)OC2=C1

>  <standard_inchi>  (1638) 
InChI=1S/C18H16O8/c1-23-8-6-10(19)13-12(7-8)26-17(18(25-3)16(13)22)9-4-5-11(24-2)15(21)14(9)20/h4-7,19-21H,1-3H3

>  <standard_inchi_key>  (1638) 
QXXWSXJTUHATSJ-UHFFFAOYSA-N

>  <name>  (1638) 
Apuleidin

>  <iupac_name>  (1638) 
2-(2,3-dihydroxy-4-methoxy-phenyl)-5-hydroxy-3,7-dimethoxy-chromen-4-one

>  <annotation_level>  (1638) 
5

>  <total_atom_count>  (1638) 
42

>  <heavy_atom_count>  (1638) 
26

>  <molecular_weight>  (1638) 
360.32

>  <exact_molecular_weight>  (1638) 
360.08452

>  <molecular_formula>  (1638) 
C18H16O8

>  <alogp>  (1638) 
2.60

>  <topological_polar_surface_area>  (1638) 
118.59

>  <rotatable_bond_count>  (1638) 
4

>  <hydrogen_bond_acceptors>  (1638) 
8

>  <hydrogen_bond_donors>  (1638) 
3

>  <hydrogen_bond_acceptors_lipinski>  (1638) 
8

>  <hydrogen_bond_donors_lipinski>  (1638) 
3

>  <lipinski_rule_of_five_violations>  (1638) 
0

>  <aromatic_rings_count>  (1638) 
3

>  <qed_drug_likeliness>  (1638) 
0.61

>  <formal_charge>  (1638) 
0

>  <fractioncsp3>  (1638) 
0.17

>  <number_of_minimal_rings>  (1638) 
3

>  <van_der_walls_volume>  (1638) 
298.47

>  <contains_sugar>  (1638) 
False

>  <contains_ring_sugars>  (1638) 
False

>  <contains_linear_sugars>  (1638) 
False

>  <murcko_framework>  (1638) 
O1c2ccccc2CC=C1c3ccccc3

>  <np_likeness>  (1638) 
1.25

>  <chemical_class>  (1638) 
Flavonoids

>  <chemical_sub_class>  (1638) 
O-methylated flavonoids

>  <chemical_super_class>  (1638) 
Phenylpropanoids and polyketides

>  <direct_parent_classification>  (1638) 
3-O-methylated flavonoids

>  <np_classifier_pathway>  (1638) 
Shikimates and Phenylpropanoids

>  <np_classifier_superclass>  (1638) 
Flavonoids

>  <np_classifier_class>  (1638) 
Flavonols

>  <np_classifier_is_glycoside>  (1638) 
False

>  <organisms>  (1638) 
Adiantum monochlamys|Apuleia leiocarpa|Baileya pauciradiata|Becium grandiflorum|Centaurea webbiana|Commiphora erythraea|Crinum yemense|Lissoclinum bistratum|Pachyphragma macrophyllum|Spilanthes mauritiana|Vernonanthura chamaedrys|Vicia faba

>  <collections>  (1638) 
CMAUP (cCollective molecular activities of useful plants)|KNApSaCK|Latin America dataset|NPASS|NPEdia|NuBBEDB|Super Natural II|UNPD (Universal Natural Products Database)|WikiData Natural Products|ZINC NP

>  <dois>  (1638) 
10.1016/S0031-9422(00)89891-X

>  <synonyms>  (1638) 
2'-hydroxy 3,7,4'-trimethylquercetin|2-(2,3-Dihydroxy-4-methoxyphenyl)-5-hydroxy-3,7-dimethoxy-4H-1-benzopyran-4-one|34318-36-0|Apuleidin|LMPK12112521

>  <cas>  (1638) 
34318-36-0

$$$$

     RDKit          2D

 18 19  0  0  0  0  0  0  0  0999 V2000
    3.0000   -2.7424    0.0000 C   0  0  0  0  0  0  0  0  0  0  0  0
    2.2500   -1.4434    0.0000 C   0  0  0  0  0  0  0  0  0  0  0  0
    0.7500   -1.4434    0.0000 C   0  0  0  0  0  0  0  0  0  0  0  0
    0.0000   -0.1443    0.0000 C   0  0  0  0  0  0  0  0  0  0  0  0
    0.7500    1.1547    0.0000 C   0  0  0  0  0  0  0  0  0  0  0  0
    2.2500    1.1547    0.0000 C   0  0  0  0  0  0  0  0  0  0  0  0
    3.0000   -0.1443    0.0000 C   0  0  0  0  0  0  0  0  0  0  0  0
    4.5000   -0.1443    0.0000 O   0  0  0  0  0  0  0  0  0  0  0  0
   -0.0000    2.4537    0.0000 C   0  0  0  0  0  0  0  0  0  0  0  0
    0.7500    3.7528    0.0000 C   0  0  0  0  0  0  0  0  0  0  0  0
   -1.5000    2.4537    0.0000 C   0  0  0  0  0  0  0  0  0  0  0  0
   -2.2500    3.7528    0.0000 O   0  0  0  0  0  0  0  0  0  0  0  0
   -2.2500    1.1547    0.0000 C   0  0  0  0  0  0  0  0  0  0  0  0
   -1.5000   -0.1443    0.0000 C   0  0  0  0  0  0  0  0  0  0  0  0
   -2.2500   -1.4434    0.0000 C   0  0  0  0  0  0  0  0  0  0  0  0
   -3.7500   -1.4434    0.0000 C   0  0  0  0  0  0  0  0  0  0  0  0
   -1.5000   -2.7424    0.0000 C   0  0  0  0  0  0  0  0  0  0  0  0
   -2.2500   -4.0415    0.0000 O   0  0  0  0  0  0  0  0  0  0  0  0
  1  2  1  0
  2  3  2  0
  3  4  1  0
  4  5  2  0
  5  6  1  0
  6  7  2  0
  7  8  1  0
  5  9  1  0
  9 10  1  6
  9 11  1  0
 11 12  1  6
 11 13  1  0
 14 13  1  6
 14 15  1  0
 15 16  1  1
 15 17  1  0
 17 18  1  0
  7  2  1  0
 14  4  1  0
M  END
>  <identifier>  (1639) 
CNP0173859.1

>  <canonical_smiles>  (1639) 
CC1=CC2=C(C=C1O)[C@@H](C)[C@@H](O)C[C@H]2[C@H](C)CO

>  <standard_inchi>  (1639) 
InChI=1S/C15H22O3/c1-8-4-13-11(9(2)7-16)5-15(18)10(3)12(13)6-14(8)17/h4,6,9-11,15-18H,5,7H2,1-3H3/t9-,10-,11+,15+/m1/s1

>  <standard_inchi_key>  (1639) 
MGBUZVXHLLSUJN-OZWUEAAUSA-N

>  <name>  (1639) 
nan

>  <iupac_name>  (1639) 
(1~{R},2~{S},4~{S})-4-[(1~{S})-2-hydroxy-1-methyl-ethyl]-1,6-dimethyl-tetralin-2,7-diol

>  <annotation_level>  (1639) 
5

>  <total_atom_count>  (1639) 
40

>  <heavy_atom_count>  (1639) 
18

>  <molecular_weight>  (1639) 
250.34

>  <exact_molecular_weight>  (1639) 
250.15689

>  <molecular_formula>  (1639) 
C15H22O3

>  <alogp>  (1639) 
2.28

>  <topological_polar_surface_area>  (1639) 
60.69

>  <rotatable_bond_count>  (1639) 
2

>  <hydrogen_bond_acceptors>  (1639) 
3

>  <hydrogen_bond_donors>  (1639) 
3

>  <hydrogen_bond_acceptors_lipinski>  (1639) 
3

>  <hydrogen_bond_donors_lipinski>  (1639) 
3

>  <lipinski_rule_of_five_violations>  (1639) 
0

>  <aromatic_rings_count>  (1639) 
1

>  <qed_drug_likeliness>  (1639) 
0.75

>  <formal_charge>  (1639) 
0

>  <fractioncsp3>  (1639) 
0.60

>  <number_of_minimal_rings>  (1639) 
2

>  <van_der_walls_volume>  (1639) 
244.54

>  <contains_sugar>  (1639) 
False

>  <contains_ring_sugars>  (1639) 
False

>  <contains_linear_sugars>  (1639) 
False

>  <murcko_framework>  (1639) 
c1ccc2c(c1)CCCC2

>  <np_likeness>  (1639) 
2.37

>  <chemical_class>  (1639) 
Prenol lipids

>  <chemical_sub_class>  (1639) 
Sesquiterpenoids

>  <chemical_super_class>  (1639) 
Lipids and lipid-like molecules

>  <direct_parent_classification>  (1639) 
Sesquiterpenoids

>  <np_classifier_pathway>  (1639) 
Terpenoids

>  <np_classifier_superclass>  (1639) 
Sesquiterpenoids

>  <np_classifier_class>  (1639) 
Cadinane sesquiterpenoids

>  <np_classifier_is_glycoside>  (1639) 
False

>  <organisms>  (1639) 
Phomopsis cassiae

>  <collections>  (1639) 
ChemSpider NPs|Latin America dataset|NuBBEDB|Super Natural II|WikiData Natural Products|ZINC NP

>  <dois>  (1639) 
10.1016/J.PHYTOCHEM.2006.06.004|10.1016/j.phytochem.2006.06.004

>  <synonyms>  (1639) 
Rel-(-)-(7S9S10S)-3912-trihydroxycalamenene

>  <cas>  (1639) 
nan

$$$$

     RDKit          2D

 21 23  0  0  0  0  0  0  0  0999 V2000
   -6.4503    1.8088    0.0000 C   0  0  0  0  0  0  0  0  0  0  0  0
   -5.8941    0.4157    0.0000 O   0  0  0  0  0  0  0  0  0  0  0  0
   -4.4096    0.2008    0.0000 C   0  0  0  0  0  0  0  0  0  0  0  0
   -3.4812    1.3790    0.0000 C   0  0  0  0  0  0  0  0  0  0  0  0
   -1.9967    1.1641    0.0000 C   0  0  0  0  0  0  0  0  0  0  0  0
   -1.4405   -0.2290    0.0000 C   0  0  0  0  0  0  0  0  0  0  0  0
    0.0440   -0.4439    0.0000 C   0  0  0  0  0  0  0  0  0  0  0  0
    0.6002   -1.8370    0.0000 C   0  0  0  0  0  0  0  0  0  0  0  0
    2.0847   -2.0519    0.0000 O   0  0  0  0  0  0  0  0  0  0  0  0
    3.0131   -0.8737    0.0000 C   0  0  0  0  0  0  0  0  0  0  0  0
    4.4976   -1.0886    0.0000 C   0  0  0  0  0  0  0  0  0  0  0  0
    5.4260    0.0896    0.0000 C   0  0  0  0  0  0  0  0  0  0  0  0
    6.9105   -0.1253    0.0000 O   0  0  0  0  0  0  0  0  0  0  0  0
    4.8698    1.4827    0.0000 C   0  0  0  0  0  0  0  0  0  0  0  0
    3.3853    1.6976    0.0000 C   0  0  0  0  0  0  0  0  0  0  0  0
    2.4569    0.5194    0.0000 C   0  0  0  0  0  0  0  0  0  0  0  0
    0.9724    0.7343    0.0000 C   0  0  0  0  0  0  0  0  0  0  0  0
    0.4162    2.1274    0.0000 O   0  0  0  0  0  0  0  0  0  0  0  0
   -2.3689   -1.4072    0.0000 C   0  0  0  0  0  0  0  0  0  0  0  0
   -3.8534   -1.1923    0.0000 C   0  0  0  0  0  0  0  0  0  0  0  0
   -4.7818   -2.3705    0.0000 O   0  0  0  0  0  0  0  0  0  0  0  0
  1  2  1  0
  2  3  1  0
  3  4  2  0
  4  5  1  0
  5  6  2  0
  6  7  1  0
  7  8  2  0
  8  9  1  0
  9 10  1  0
 10 11  2  0
 11 12  1  0
 12 13  1  0
 12 14  2  0
 14 15  1  0
 15 16  2  0
 16 17  1  0
 17 18  2  0
  6 19  1  0
 19 20  2  0
 20 21  1  0
 20  3  1  0
 17  7  1  0
 16 10  1  0
M  END
>  <identifier>  (1640) 
CNP0121394.0

>  <canonical_smiles>  (1640) 
COC1=CC=C(C2=COC3=CC(O)=CC=C3C2=O)C=C1O

>  <standard_inchi>  (1640) 
InChI=1S/C16H12O5/c1-20-14-5-2-9(6-13(14)18)12-8-21-15-7-10(17)3-4-11(15)16(12)19/h2-8,17-18H,1H3

>  <standard_inchi_key>  (1640) 
ZZAJQOPSWWVMBI-UHFFFAOYSA-N

>  <name>  (1640) 
Calycosin

>  <iupac_name>  (1640) 
7-hydroxy-3-(3-hydroxy-4-methoxy-phenyl)chromen-4-one

>  <annotation_level>  (1640) 
5

>  <total_atom_count>  (1640) 
33

>  <heavy_atom_count>  (1640) 
21

>  <molecular_weight>  (1640) 
284.27

>  <exact_molecular_weight>  (1640) 
284.06847

>  <molecular_formula>  (1640) 
C16H12O5

>  <alogp>  (1640) 
2.88

>  <topological_polar_surface_area>  (1640) 
79.90

>  <rotatable_bond_count>  (1640) 
2

>  <hydrogen_bond_acceptors>  (1640) 
5

>  <hydrogen_bond_donors>  (1640) 
2

>  <hydrogen_bond_acceptors_lipinski>  (1640) 
5

>  <hydrogen_bond_donors_lipinski>  (1640) 
2

>  <lipinski_rule_of_five_violations>  (1640) 
0

>  <aromatic_rings_count>  (1640) 
3

>  <qed_drug_likeliness>  (1640) 
0.76

>  <formal_charge>  (1640) 
0

>  <fractioncsp3>  (1640) 
0.06

>  <number_of_minimal_rings>  (1640) 
3

>  <van_der_walls_volume>  (1640) 
240.17

>  <contains_sugar>  (1640) 
False

>  <contains_ring_sugars>  (1640) 
False

>  <contains_linear_sugars>  (1640) 
False

>  <murcko_framework>  (1640) 
O1C=C(c2ccccc2)Cc3ccccc13

>  <np_likeness>  (1640) 
1.01

>  <chemical_class>  (1640) 
Isoflavonoids

>  <chemical_sub_class>  (1640) 
O-methylated isoflavonoids

>  <chemical_super_class>  (1640) 
Phenylpropanoids and polyketides

>  <direct_parent_classification>  (1640) 
3'-hydroxy,4'-methoxyisoflavonoids

>  <np_classifier_pathway>  (1640) 
Shikimates and Phenylpropanoids

>  <np_classifier_superclass>  (1640) 
Isoflavonoids

>  <np_classifier_class>  (1640) 
Isoflavones

>  <np_classifier_is_glycoside>  (1640) 
False

>  <organisms>  (1640) 
Aaptos ciliata|Abelia chinensis|Abies excelsa|Abies pinsapo var. marocana|Achlya heterosexualis|Aeschrion excelsa|Alternaria macrospora|Ammopiptanthus mongolicus|Amorpha fruticosa|Ampelocera edentula|Andira inermis|Andira sp.|Andira surinamensis|Angelica acutiloba|Angelica sinensis|Annona squamosa|Apis mellifera ligustica|Aplophyllum alberti-regelii|Arnica mollis|Artemisia anomala|Asimina parviflora|Aspilia parvifolia|Astragalus adsurgens|Astragalus complanatus|Astragalus membranaceus|Astragalus microcephalus|Astragalus mongholicus|Astragalus sp.|Astragalus trimestris|Atraphaxis spinosa|Baccharis neglecta|Baphicacanthus cusia|Baptisia spp|Baptisia spp.|Barringtonia acutangula|Bolusanthus sp.|Bolusanthus speciosus|Botrytis cinerea|Bowdichia nitida|Bowdichia spp|Bowdichia spp.|Bowdichia virgilioides|Brachymeris montana|Brassica carinata|Brazilian Red Propolis|Bryocaulon pseudosatoanum|Bryonia alba|Butea superba|Cacospongia scalaris|Cadia spp|Cadia spp.|Callerya cinerea|Calycotome villosa|Carpha glomerata|Caulis millettiae|Caulis spatholobi|Centaurea maculosa|Centrolobium paraense|Centrolobium sclerophyllum|Chlorocodon whitei|Chondrodendron tomentosum|Chrysosporum ovalisporum|Cicer arietinum|Cladrastis spp|Cladrastis spp.|Clerodendrum bungei|Conus mus|Cordia leucocephala|Corydalis densiflora|Craibiodendron yunnanense|Croton gratissimus|Croton megistocarpus|Croton zehntneri|Cyanostegia angustifolia|Cyclobium spp|Cyclobium spp.|Cyclolobium brasiliense|Cyclolobium clausseni|Cyclolobium claussenii|Cyclopia intermedia|Cystoseira mediterranea|Dactylorhiza viridis|Dalbergia congestiflora|Dalbergia parviflora|Dalbergia spp|Dalbergia spp.|Dendrobium farmeri|Dendronephthya griffini|Dermatophyllum secundiflorum|Desmodium canadense|Diospyros assimilis|Diplopterygium glaucum|Dolabella californica|Dorstenia dinklagei|Embelia parviflora|Embelia ribes|Embelia schimperi|Ephedra sinica|Epilobium hirsutum|Eria anomala|Erycibe expansa|Erycibe sp.|Erysimum leptophyllum|Erythrina latissima|Erythrina melanacantha|Erythrina sp.|Esenbeckia leiocarpa|Eucalyptus resinifera|Euphorbia nematocypha|Euphrasia genargentea|Eurycoma harmandiana|Faramea salicifolia|Geranium sibiricum|Glycine soja|Glycyrrhiza glabra|Glycyrrhiza inflata|Glycyrrhiza pallidiflora|Glycyrrhiza uralensis|Gymnocalycium schickendantzii|Halobacillus litoralis|Haplophyllum obtusifolium|Hedysarum polybotrys|Helichrysum tenuifolium|Hypericum styphelioides|Isatis tinctoria|Ixeris debilis|Jasminum sambac|Junceella gemmacea|Khaya grandifoliola|Lagerstroemia indica|Latrunculia magnifica|Lemaireocereus longispinus|Lentinus tigrinus|Lobophytum durum|Lycogala epidendrum|Lysimachia fordiana|Lythrum salicaria|Maackia amurensis|Mabea fistulifera|Machaerium aristulatum|Machaerium mucronulatum|Machaerium spp|Machaerium spp.|Marasmiellus troyanus|Maytenus chuchuhuasha|Megaselia flavescens|Melilotus messanensis|Melilotus siculus|Milletia laurentii|Millettia dielsiana|Millettia laurentii|Mitracarpus scaber|Monsonia senegalensis|Morella rubra|Mucuna membranacea|Myroxylon balsamum|Myroxylon peruiferum|Myroxylon spp|Myroxylon spp.|Myxococcus stipitatus|Napoleonaea vogelii|Neurymenia fraxinifolia|Onopordum acanthium|Origanum onites|Orthosiphon spicatus|Oxytropis falcata|Pancratium sickenbergeri|Persea kusanoi|Philodendron hederaceum|Phyllolobium chinense|Piper regnellii|Piptanthus nanus|Planchonia grandis|Plathymenia reticulata|Populus sieboldi|Propolis|Psorothamnus arborescens|Psorothamnus arborescens var. minutifolius|Pteridium esculentum|Pterocarpus spp|Pterocarpus spp.|Pterolobium hexapetalum|Pycnanthus angolensis|Rabdosia parvifolia|Ranunculus asiaticus|Remirea maritima|Rhinella marina|Sapium haematospermum|Sargassum pallidum|Schizophyllum lobatum|Schleichera trijuga|Schultesia guianensis|Semen astragali complanati|Senecio isatideus|Shigella dysenteriae|Simarouba glauca|Sinapis alba|Siphonaria capensis|Solanum lanceolatum|Sophora Flavescens|Sophora flavescens|Sophora fraseri|Sophora moorcroftiana|Sophora secundiflora|Sophora sp.|Sophora spp|Sophora spp.|Spatholobi sp.|Spatholobus suberectus|Streptomyces matensis|Styphnolobium japonicum|Syzygium polycephaloides|Tephrosia elata|Theonella conica|Thermopsis fabacea|Thermopsis lanceolata|Thermopsis spp|Thermopsis spp.|Tricholoma columbetta|Triclisia subcordata|Trididemnum cyanophorum|Trifolium pratense|Trifolium sp.|Trifolium spp|Trifolium spp.|Trigonella foenum-graecum|Vellozia nanuzae|Vernonia fagifolia|Viburnum erubescens|Virgilia oroboides|Wikstroemia viridiflora|Wisteria brachybotrys|Xanthorhiza simplicissima|Xanthorrhoea minor

>  <collections>  (1640) 
ANPDB|AfroDB|AnalytiCon Discovery NPs|Australian natural products|CMAUP (cCollective molecular activities of useful plants)|ChEBI NPs|ChemSpider NPs|ConMedNP|ETM (Ethiopian Traditional Medicine) DB|FooDB|GNPS (Global Natural Products Social Molecular Networking)|HIM (Herbal Ingredients in-vivo Metabolism database)|Latin America dataset|NANPDB (Natural Products from Northern African Sources)|NPASS|NPEdia|NuBBEDB|Phenol-explorer|Phyto4Health|PhytoLab phyproof® Reference Substances|PubChem NPs|Super Natural II|TCMDB-Taiwan (Traditional Chinese Medicine database)|TCMID (Traditional Chinese Medicine Integrated Database)|TIPdb (database of Taiwan indigenous plants)|UNPD (Universal Natural Products Database)|VietHerb|WikiData Natural Products|ZINC NP

>  <dois>  (1640) 
10.1002/(SICI)1099-1573(199712)11:8<603::AID-PTR161>3.0.CO;2-U|10.1002/(SICI)1099-1573(19980201)12:1<59::AID-PTR182>3.0.CO;2-R|10.1002/HLCA.200890108|10.1002/JCCS.199800035|10.1002/JLAC.197419740816|10.1002/MRC.1806|10.1002/MRC.2138|10.1007/BF00563758|10.1007/BF00574751|10.1007/S00299-006-0301-8|10.1007/S10600-009-9195-3|10.1007/S10600-011-9800-0|10.1007/S11418-010-0407-8|10.1007/S12272-010-0805-1|10.1007/s00299-006-0301-8|10.1016/0031-9422(75)80372-4|10.1016/0031-9422(79)80020-5|10.1016/0031-9422(88)80628-9|10.1016/0031-9422(90)80205-U|10.1016/0031-9422(95)00618-4|10.1016/0031-9422(95)93530-S|10.1016/J.BMC.2007.10.004|10.1016/J.BMC.2008.04.016|10.1016/J.CHROMA.2011.06.091|10.1016/J.PHYTOCHEM.2004.02.011|10.1016/J.PHYTOCHEM.2006.05.008|10.1016/S0003-2670(01)01370-8|10.1016/S0021-9673(00)00149-7|10.1016/S0021-9673(96)00578-X|10.1016/S0031-9422(00)89391-7|10.1016/S0031-9422(00)90868-9|10.1016/S0031-9422(00)94598-9|10.1016/S0031-9422(00)94679-X|10.1016/S0031-9422(00)97984-6|10.1016/S0031-9422(01)00268-0|10.1016/S0031-9422(01)00295-3|10.1016/S0031-9422(02)00671-4|10.1016/S0031-9422(96)00582-1|10.1016/S0031-9422(97)00960-6|10.1016/S0031-9422(97)00976-X|10.1016/S0031-9422(98)00453-1|10.1016/S0031-9422(99)00043-6|10.1016/S0040-4039(00)78784-3|10.1016/S0367-326X(03)00061-3|10.1016/S0378-8741(00)00285-3|10.1016/j.bmc.2006.09.024|10.1016/j.bmc.2007.10.004|10.1016/j.bmc.2008.04.016|10.1016/j.bmc.2009.02.050|10.1016/j.phytochem.2004.02.011|10.1016/s0031-9422(00)90868-9|10.1016/s0378-8741(00)00285-3|10.1021/JF801227Q|10.1021/JF980258X|10.1021/NP0502600|10.1021/NP100339U|10.1021/NP50075A009|10.1021/NP900676Y|10.1021/np0502600|10.1021/np900676y|10.1037/10946-009|10.1055/S-2006-960825|10.1055/S-2008-1034291|10.1080/14786410500160942|10.1080/14786419.2010.522577|10.1135/CCCC19901257|10.1248/CPB.28.3686|10.1248/CPB.32.3267|10.1248/CPB.33.3811|10.1248/CPB.36.2220|10.1248/CPB.45.1485|10.13005/bbra/2145|10.1515/ZNC-1987-11-1206|10.3987/COM-05-10350|10.3987/COM-89-5304

>  <synonyms>  (1640) 
09N3E8P7TA|20575-57-9|3',7-Dihydroxy 4'-methoxyisoflavone|3',7-dihydroxy-4'-methoxyisoflavone|3'-Hydroxyformononetin|3'-hydroxyformononetin|4H-1-Benzopyran-4-one, 7-hydroxy-3-(3-hydroxy-4-methoxyphenyl)-|7-hydroxy-3-(3-hydroxy-4-methoxyphenyl)-4H-1-benzopyran-4-one|7-hydroxy-3-(3-hydroxy-4-methoxyphenyl)chromen-4-one|?CALYCOSIN|A814711|AC-8043|ACon1_000650|AKOS015896719|B0005-464342|BCP28682|BRD-K05039497-001-01-6|C01562|CALYCOSIN (CONSTITUENT OF ASTRAGALUS) [DSC]|CALYCOSIN [USP-RS]|CHEBI:17793|CHEMBL241608|CS-3715|Calycosin|Cyclosin|DB-045290|DTXSID70174580|HMS2268B05|HSDB 8109|HY-N0519|LMPK12050056|LS-14468|MEGxp0_001325|MFCD00210598|MLS000876988|NCGC00169494-01|Q-100254|Q5024637|SCHEMBL73013|SMR000440659|UNII-09N3E8P7TA|calycosin|s9038

>  <cas>  (1640) 
20575-57-9

$$$$

     RDKit          2D

 34 38  0  0  0  0  0  0  0  0999 V2000
   -8.9338    1.3934    0.0000 C   0  0  0  0  0  0  0  0  0  0  0  0
   -7.4340    1.4161    0.0000 C   0  0  0  0  0  0  0  0  0  0  0  0
   -6.7037    2.7263    0.0000 O   0  0  0  0  0  0  0  0  0  0  0  0
   -6.6645    0.1285    0.0000 O   0  0  0  0  0  0  0  0  0  0  0  0
   -5.1646    0.1512    0.0000 C   0  0  0  0  0  0  0  0  0  0  0  0
   -4.4344    1.4614    0.0000 C   0  0  0  0  0  0  0  0  0  0  0  0
   -2.9345    1.4841    0.0000 C   0  0  0  0  0  0  0  0  0  0  0  0
   -2.1650    0.1965    0.0000 C   0  0  0  0  0  0  0  0  0  0  0  0
   -1.4347    1.5068    0.0000 C   0  0  0  0  0  0  0  0  0  0  0  0
   -0.6652    0.2192    0.0000 C   0  0  0  0  0  0  0  0  0  0  0  0
    0.0651    1.5294    0.0000 C   0  0  0  0  0  0  0  0  0  0  0  0
    1.5650    1.5521    0.0000 C   0  0  0  0  0  0  0  0  0  0  0  0
    2.3345    0.2646    0.0000 C   0  0  0  0  0  0  0  0  0  0  0  0
    3.0648    1.5748    0.0000 C   0  0  0  0  0  0  0  0  0  0  0  0
    1.6042   -1.0457    0.0000 C   0  0  0  0  0  0  0  0  0  0  0  0
    2.3738   -2.3332    0.0000 C   0  0  0  0  0  0  0  0  0  0  0  0
    3.8736   -2.3105    0.0000 C   0  0  0  0  0  0  0  0  0  0  0  0
    4.6039   -1.0003    0.0000 C   0  0  0  0  0  0  0  0  0  0  0  0
    5.3734   -2.2879    0.0000 C   0  0  0  0  0  0  0  0  0  0  0  0
    6.1037   -0.9776    0.0000 C   0  0  0  0  0  0  0  0  0  0  0  0
    6.8340    0.3326    0.0000 C   0  0  0  0  0  0  0  0  0  0  0  0
    6.0644    1.6201    0.0000 C   0  0  0  0  0  0  0  0  0  0  0  0
    5.7817    3.0932    0.0000 C   0  0  0  0  0  0  0  0  0  0  0  0
    7.4661    2.1544    0.0000 C   0  0  0  0  0  0  0  0  0  0  0  0
    4.5646    1.5975    0.0000 C   0  0  0  0  0  0  0  0  0  0  0  0
    3.8343    0.2872    0.0000 C   0  0  0  0  0  0  0  0  0  0  0  0
    0.1044   -1.0683    0.0000 C   0  0  0  0  0  0  0  0  0  0  0  0
    0.8740   -2.3559    0.0000 C   0  0  0  0  0  0  0  0  0  0  0  0
   -0.6259   -2.3786    0.0000 C   0  0  0  0  0  0  0  0  0  0  0  0
   -2.1257   -2.4012    0.0000 C   0  0  0  0  0  0  0  0  0  0  0  0
   -2.8953   -1.1137    0.0000 C   0  0  0  0  0  0  0  0  0  0  0  0
   -4.3951   -1.1364    0.0000 C   0  0  0  0  0  0  0  0  0  0  0  0
   -4.1123   -2.6095    0.0000 C   0  0  0  0  0  0  0  0  0  0  0  0
   -5.7967   -1.6706    0.0000 C   0  0  0  0  0  0  0  0  0  0  0  0
  1  2  1  0
  2  3  2  0
  2  4  1  0
  5  4  1  1
  5  6  1  0
  6  7  1  0
  7  8  1  0
  8  9  1  1
  8 10  1  0
 10 11  1  1
 11 12  1  0
 12 13  1  0
 13 14  1  6
 13 15  1  0
 15 16  2  0
 16 17  1  0
 17 18  1  0
 18 19  1  1
 18 20  1  0
 20 21  1  0
 21 22  1  0
 22 23  1  0
 22 24  1  0
 22 25  1  0
 26 25  1  6
 15 27  1  0
 27 28  1  1
 27 29  1  0
 29 30  1  0
 31 30  1  1
 31 32  1  0
 32 33  1  0
 32 34  1  0
 32  5  1  0
 31  8  1  0
 27 10  1  0
 26 13  1  0
 26 18  1  0
M  END
>  <identifier>  (1641) 
CNP0219181.3

>  <canonical_smiles>  (1641) 
CC(=O)O[C@H]1CC[C@]2(C)[C@H]3CC[C@]4(C)C(=CC[C@@]5(C)CCC(C)(C)C[C@H]54)[C@]3(C)CC[C@H]2C1(C)C

>  <standard_inchi>  (1641) 
InChI=1S/C32H52O2/c1-21(33)34-26-13-17-30(7)22(28(26,4)5)11-15-31(8)23-10-14-29(6)19-18-27(2,3)20-25(29)32(23,9)16-12-24(30)31/h10,22,24-26H,11-20H2,1-9H3/t22-,24+,25+,26-,29-,30-,31-,32+/m0/s1

>  <standard_inchi_key>  (1641) 
YWJGYBXHXATAQY-BOTWUFHUSA-N

>  <name>  (1641) 
Taraxerol acetate

>  <iupac_name>  (1641) 
[(3~{S},4~{a}~{R},6~{a}~{R},6~{a}~{S},8~{a}~{R},12~{a}~{R},14~{a}~{R},14~{b}~{R})-4,4,6~{a},6~{a},8~{a},11,11,14~{b}-octamethyl-1,2,3,4~{a},5,6,8,9,10,12,12~{a},13,14,14~{a}-tetradecahydropicen-3-yl] acetate

>  <annotation_level>  (1641) 
5

>  <total_atom_count>  (1641) 
86

>  <heavy_atom_count>  (1641) 
34

>  <molecular_weight>  (1641) 
468.77

>  <exact_molecular_weight>  (1641) 
468.39673

>  <molecular_formula>  (1641) 
C32H52O2

>  <alogp>  (1641) 
8.74

>  <topological_polar_surface_area>  (1641) 
26.30

>  <rotatable_bond_count>  (1641) 
1

>  <hydrogen_bond_acceptors>  (1641) 
2

>  <hydrogen_bond_donors>  (1641) 
0

>  <hydrogen_bond_acceptors_lipinski>  (1641) 
2

>  <hydrogen_bond_donors_lipinski>  (1641) 
0

>  <lipinski_rule_of_five_violations>  (1641) 
1

>  <aromatic_rings_count>  (1641) 
0

>  <qed_drug_likeliness>  (1641) 
0.28

>  <formal_charge>  (1641) 
0

>  <fractioncsp3>  (1641) 
0.91

>  <number_of_minimal_rings>  (1641) 
5

>  <van_der_walls_volume>  (1641) 
483.24

>  <contains_sugar>  (1641) 
False

>  <contains_ring_sugars>  (1641) 
False

>  <contains_linear_sugars>  (1641) 
False

>  <murcko_framework>  (1641) 
C1=C2C(CCC3C2CCC4CCCCC43)C5CCCCC5C1

>  <np_likeness>  (1641) 
2.90

>  <chemical_class>  (1641) 
Prenol lipids

>  <chemical_sub_class>  (1641) 
Sesterterpenoids

>  <chemical_super_class>  (1641) 
Lipids and lipid-like molecules

>  <direct_parent_classification>  (1641) 
Scalarane sesterterpenoids

>  <np_classifier_pathway>  (1641) 
Terpenoids

>  <np_classifier_superclass>  (1641) 
Triterpenoids

>  <np_classifier_class>  (1641) 
Taraxerane triterpenoids

>  <np_classifier_is_glycoside>  (1641) 
False

>  <organisms>  (1641) 
Abroma augusta|Abroma augustum|Aloe ballyi|Amblyraja radiata|Artemisia chinensis|Artemisia dalai-lamae|Artemisia vestita|Aster fruticosus|Atractylodes lancea|Atractylodes macrocephala|Baccharoides anthelmintica|Baeria californica|Betula alnoides|Broussonetia papyrifera|Cichorium intybus|Cissus quadrangularis|Codium arabicum|Codonopsis clematidea|Codonopsis lanceolata|Codonopsis ovata|Codonopsis pilosula|Codonopsis pilosula subsp. tangshen|Codonopsis pilosula var. modesta|Codonopsis subglobosa|Codonopsis ussuriensis|Dalbergia coromandeliana|Dalbergia horrida|Diospyros argentea|Diospyros blancoi|Diospyros ismailii|Diospyros lotus|Diospyros maingayi|Diospyros rhodocalyx|Diospyros siamang|Diospyros singaporensis|Diospyros sumatrana|Diospyros wallichii|Dorstenia cayapia|Eleutherococcus trifoliatus|Elliottia paniculata|Euphorbia antiquorum|Euphorbia maculata|Euphorbia sapinii|Euphorbia stygiana|Ficus pumila|Hibiscus rosa-sinensis|Ipomoea digitata|Ixeris chinensis|Koelpinia linearis|Pedicularis pectinata|Physocarpus capitatus|Pieris japonica|Pluchea sericea|Pouteria caimito|Pseudocodon convolvulaceus|Pseudostellaria heterophylla|Pterogyne nitens|Radix pseudostellariae|Scaevola spinescens|Smooth hawksbeard|Taraxacum japonicum|Tripetaleia paniculata|Uvaria macrophylla|Xanthium canadense Mill.|Xanthium orientale|Xanthium strumarium

>  <collections>  (1641) 
CMAUP (cCollective molecular activities of useful plants)|ChemSpider NPs|KNApSaCK|Latin America dataset|NPASS|NuBBEDB|Super Natural II|TCMDB-Taiwan (Traditional Chinese Medicine database)|WikiData Natural Products|ZINC NP

>  <dois>  (1641) 
10.1002/CHIN.200520210|10.1002/JCCS.200000075|10.1007/S11418-007-0219-7|10.1016/0031-9422(88)83136-4|10.1016/0031-9422(91)85270-A|10.1016/0031-9422(92)83142-L|10.1016/0305-1978(95)00082-8|10.1016/J.PHYTOL.2011.02.011|10.1016/J.PHYTOL.2011.04.001|10.1016/S0031-9422(00)80490-2|10.1016/S0031-9422(03)00007-4|10.1016/S0031-9422(97)01020-0|10.1016/S0031-9422(99)00490-2|10.1021/NP50024A014|10.1021/NP8005259|10.1021/NP800564Z|10.1055/S-0028-1099454|10.1055/S-2006-957961|10.1055/S-2006-958085|10.1055/S-2007-969813|10.1076/PHBI.39.3.191.5924|10.1080/10826079508009247|10.1135/CCCC19842661|10.1248/BPB.22.606|10.1248/CPB.24.1419|10.1248/CPB.31.1567|10.1248/CPB.44.509|10.1248/YAKUSHI1947.94.12_1634|10.1590/S0103-50531997000500016|10.3109/13880208909053946|10.3329/BPJ.V19I2.29286|10.3390/MOLECULES16043146|10.4067/S0717-97072009000300004|10.4268/CJCMM20102314|10.4268/CJCMM20141334

>  <synonyms>  (1641) 
1ST156749|2189-80-2|4,4,6a,8a,11,11,12b,14b-Octamethyl-1,2,3,4,4a,5,6,6a,8,8a,9,10,11,12,12a,12b,13,14,14a,14b-icosahydropicen-3-yl acetate|AC-35012|AKOS030573650|CS-0022976|D-Friedoolean-14-en-3-ol, acetate, (3beta)-|D-Friedoolean-14-en-3beta-ol acetate|DTXSID70944487|FS-9579|Friedoolean-14-en-3-yl acetate|HY-N2599|SCHEMBL23929102|Taraxenol acetate|Taraxeryl acetate|[(3S,4aR,6aR,6aS,8aR,12aR,14aR,14bR)-4,4,6a,6a,8a,11,11,14b-octamethyl-1,2,3,4a,5,6,8,9,10,12,12a,13,14,14a-tetradecahydropicen-3-yl] acetate

>  <cas>  (1641) 
2189-80-2

$$$$

     RDKit          2D

 32 37  0  0  0  0  0  0  0  0999 V2000
   -4.8206   -1.5114    0.0000 C   0  0  0  0  0  0  0  0  0  0  0  0
   -4.8094   -0.0114    0.0000 C   0  0  0  0  0  0  0  0  0  0  0  0
   -6.2885   -0.2608    0.0000 C   0  0  0  0  0  0  0  0  0  0  0  0
   -5.3118    1.4019    0.0000 C   0  0  0  0  0  0  0  0  0  0  0  0
   -6.7870    1.6735    0.0000 O   0  0  0  0  0  0  0  0  0  0  0  0
   -4.3391    2.5438    0.0000 C   0  0  0  0  0  0  0  0  0  0  0  0
   -2.8638    2.2722    0.0000 C   0  0  0  0  0  0  0  0  0  0  0  0
   -2.3614    0.8589    0.0000 C   0  0  0  0  0  0  0  0  0  0  0  0
   -1.3886    2.0007    0.0000 C   0  0  0  0  0  0  0  0  0  0  0  0
   -0.8862    0.5874    0.0000 C   0  0  0  0  0  0  0  0  0  0  0  0
    0.0866    1.7292    0.0000 C   0  0  0  0  0  0  0  0  0  0  0  0
    1.5618    1.4577    0.0000 C   0  0  0  0  0  0  0  0  0  0  0  0
    2.0643    0.0443    0.0000 C   0  0  0  0  0  0  0  0  0  0  0  0
    3.0370    1.1862    0.0000 C   0  0  0  0  0  0  0  0  0  0  0  0
    3.5395   -0.2272    0.0000 C   0  0  0  0  0  0  0  0  0  0  0  0
    4.5123    0.9146    0.0000 C   0  0  0  0  0  0  0  0  0  0  0  0
    4.1603    2.3728    0.0000 C   0  0  0  0  0  0  0  0  0  0  0  0
    5.4383    3.1581    0.0000 O   0  0  0  0  0  0  0  0  0  0  0  0
    6.5801    2.1853    0.0000 C   0  0  0  0  0  0  0  0  0  0  0  0
    6.0078    0.7988    0.0000 C   0  0  0  0  0  0  0  0  0  0  0  0
    4.0420   -1.6405    0.0000 O   0  0  0  0  0  0  0  0  0  0  0  0
    3.0692   -2.7823    0.0000 C   0  0  0  0  0  0  0  0  0  0  0  0
    3.5717   -4.1957    0.0000 O   0  0  0  0  0  0  0  0  0  0  0  0
    1.5940   -2.5108    0.0000 C   0  0  0  0  0  0  0  0  0  0  0  0
    0.1188   -2.2393    0.0000 O   0  0  0  0  0  0  0  0  0  0  0  0
    1.0915   -1.0975    0.0000 C   0  0  0  0  0  0  0  0  0  0  0  0
   -0.3837   -0.8260    0.0000 C   0  0  0  0  0  0  0  0  0  0  0  0
   -1.8589   -0.5544    0.0000 C   0  0  0  0  0  0  0  0  0  0  0  0
   -1.3564   -1.9678    0.0000 C   0  0  0  0  0  0  0  0  0  0  0  0
   -0.8540   -3.3811    0.0000 O   0  0  0  0  0  0  0  0  0  0  0  0
   -2.8317   -1.6963    0.0000 C   0  0  0  0  0  0  0  0  0  0  0  0
   -3.3341   -0.2829    0.0000 C   0  0  0  0  0  0  0  0  0  0  0  0
  1  2  1  0
  2  3  1  0
  2  4  1  0
  4  5  2  0
  4  6  1  0
  6  7  2  0
  7  8  1  0
  8  9  1  1
  8 10  1  0
 10 11  1  1
 11 12  1  0
 12 13  1  0
 13 14  1  6
 13 15  1  0
 15 16  1  6
 16 17  2  0
 17 18  1  0
 18 19  1  0
 19 20  2  0
 15 21  1  0
 21 22  1  0
 22 23  2  0
 22 24  1  0
 24 25  1  1
 26 25  1  1
 26 27  1  0
 27 28  1  1
 27 29  1  0
 29 30  1  6
 29 31  1  0
 32 31  1  1
 32  2  1  0
 32  8  1  0
 27 10  1  0
 26 13  1  0
 20 16  1  0
 26 24  1  0
M  END
>  <identifier>  (1642) 
CNP0227511.1

>  <canonical_smiles>  (1642) 
CC1(C)C(=O)C=C[C@]2(C)[C@H]3CC[C@@]4(C)[C@H](C5=COC=C5)OC(=O)[C@H]5O[C@]54[C@]3(C)[C@H](O)C[C@@H]12

>  <standard_inchi>  (1642) 
InChI=1S/C26H32O6/c1-22(2)16-12-18(28)25(5)15(23(16,3)9-7-17(22)27)6-10-24(4)19(14-8-11-30-13-14)31-21(29)20-26(24,25)32-20/h7-9,11,13,15-16,18-20,28H,6,10,12H2,1-5H3/t15-,16+,18-,19+,20-,23-,24+,25+,26-/m1/s1

>  <standard_inchi_key>  (1642) 
HCEYJYMNIQHPPK-DXTZDJJUSA-N

>  <name>  (1642) 
Deacetylgedunin

>  <iupac_name>  (1642) 
(1~{S},2~{R},4~{S},7~{S},8~{S},11~{R},12~{R},17~{R},19~{R})-7-(3-furyl)-19-hydroxy-1,8,12,16,16-pentamethyl-3,6-dioxapentacyclo[9.8.0.0^{2,4}.0^{2,8}.0^{12,17}]nonadec-13-ene-5,15-dione

>  <annotation_level>  (1642) 
5

>  <total_atom_count>  (1642) 
64

>  <heavy_atom_count>  (1642) 
32

>  <molecular_weight>  (1642) 
440.54

>  <exact_molecular_weight>  (1642) 
440.21989

>  <molecular_formula>  (1642) 
C26H32O6

>  <alogp>  (1642) 
3.99

>  <topological_polar_surface_area>  (1642) 
89.27

>  <rotatable_bond_count>  (1642) 
1

>  <hydrogen_bond_acceptors>  (1642) 
6

>  <hydrogen_bond_donors>  (1642) 
1

>  <hydrogen_bond_acceptors_lipinski>  (1642) 
6

>  <hydrogen_bond_donors_lipinski>  (1642) 
1

>  <lipinski_rule_of_five_violations>  (1642) 
0

>  <aromatic_rings_count>  (1642) 
1

>  <qed_drug_likeliness>  (1642) 
0.52

>  <formal_charge>  (1642) 
0

>  <fractioncsp3>  (1642) 
0.69

>  <number_of_minimal_rings>  (1642) 
6

>  <van_der_walls_volume>  (1642) 
395.85

>  <contains_sugar>  (1642) 
False

>  <contains_ring_sugars>  (1642) 
False

>  <contains_linear_sugars>  (1642) 
False

>  <murcko_framework>  (1642) 
o1ccc(c1)C2OCC3OC34C2CCC5C6C=CCCC6CCC54

>  <np_likeness>  (1642) 
3.41

>  <chemical_class>  (1642) 
Prenol lipids

>  <chemical_sub_class>  (1642) 
Triterpenoids

>  <chemical_super_class>  (1642) 
Lipids and lipid-like molecules

>  <direct_parent_classification>  (1642) 
Limonoids

>  <np_classifier_pathway>  (1642) 
Terpenoids

>  <np_classifier_superclass>  (1642) 
Triterpenoids

>  <np_classifier_class>  (1642) 
Limonoids

>  <np_classifier_is_glycoside>  (1642) 
False

>  <organisms>  (1642) 
Azadirachta indica|Cedrela odorata|Cedrela sinensis|Melia azedarach|Meliaceae|Meliaceae spp.|Pseudocedrela kotschyi|Swietenia aubrevilleana|Swietenia macrophylla|Toona sinensis|Xylocarpus granatum|Xylocarpus moluccensis

>  <collections>  (1642) 
Australian natural products|CMAUP (cCollective molecular activities of useful plants)|ChEBI NPs|InflamNat|KNApSaCK|Latin America dataset|NPASS|NuBBEDB|Super Natural II|WikiData Natural Products

>  <dois>  (1642) 
10.1016/J.BMCL.2011.06.010|10.1016/S0031-9422(96)00747-9|10.1021/NP068021F|10.1021/NP0680230|10.1021/NP100325Q|10.1021/NP100783K|10.1021/NP900640U|10.1021/NP9605394|10.1021/NP990199X|10.1021/np068021f|10.1039/C19670000278|10.1039/c19670000278|10.1080/10286020.2014.962523|10.1271/BBB.56.1835|10.18632/ONCOTARGET.19017|10.18632/oncotarget.19017|10.2174/187152010794728620

>  <synonyms>  (1642) 
(1S,2R,4S,7S,8S,11R,12R,17R,19R)-7-(furan-3-yl)-19-hydroxy-1,8,12,16,16-pentamethyl-3,6-dioxapentacyclo[9.8.0.02,4.02,8.012,17]nonadec-13-ene-5,15-dione|(1S,3aS,4aR,4bS,5R,6aR,10aR,10bR,12aS)-1-(furan-3-yl)-5-hydroxy-4b,7,7,10a,12a-pentamethyl-1,5,6,6a,7,10a,10b,11,12,12a-decahydronaphtho[2,1-f]oxireno[2,3-d]isochromene-3,8(3aH,4bH)-dione|(4aR,6R,6aS,6bR,7aS,10R,10aS,12aR,12bR)-10-(furan-3-yl)-6-hydroxy-4,4,6a,10a,12b-pentamethyl-4a,5,6,6a,10,10a,11,12,12a,12b-decahydronaphtho[2,1-f]oxireno[d]isochromene-3,8(4H,7aH)-dione|(5alpha,7alpha,13alpha,14beta,15beta,17aalpha)-14,15:21,23-diepoxy-7-hydroxy-4,4,8-trimethyl-D-homo-24-nor-17-oxachlola-1,20-,22-triene-3,16-dione|10314-90-6|14,15:21,23-Diepoxy-7-hydroxy-4,4,8-trimethyl-D-homo-24-nor-17-oxachlola-1,20-,22-triene-3,16-dione (5alpha,7alpha,13alpha,14beta,15beta,17aalpha)-|7-Deacetilgedunin|7-Deacetyl Genudin|7-deacetoxy-7alpha-hydroxygedunin|7-deacetylgedunin|7-deacetylgedunin, 7-deacetoxygedunin|AKOS040751429|CHEBI:67296|CHEMBL465423|CS-0089602|D-Homo-24-nor-17-oxachlola-1,20-,22-triene-3,16-dione, 14,15:21,23-diepoxy-7-hydroxy-4,4,8-trimethyl-, (5alpha,7alpha,13alpha,14beta,15beta,17aalpha)-|HMS2219M05|HY-124941|MLS000563459|Meliaceae|NSC 309912|Oxireno(c)phenanthro(1,2-d)pyran-3,8(3aH,4bH)-dione, 1-(3-furanyl)-1,5,6,6a,7,10a,10b,11,12,12a-decahydro-5-hydroxy-4b,7,7,10a,12a-pentamethyl-, (1S-(1alpha,3aalpha,4aS*,4bbeta,5alpha,6aalpha,10abeta,10balpha,12aalpha))-|Q27135754|SMR000232317|SR-01000712180

>  <cas>  (1642) 
10314-90-6

$$$$

     RDKit          2D

 30 32  0  0  0  0  0  0  0  0999 V2000
    7.3254   -2.7410    0.0000 C   0  0  0  0  0  0  0  0  0  0  0  0
    5.9637   -2.1118    0.0000 C   0  0  0  0  0  0  0  0  0  0  0  0
    5.8278   -0.6180    0.0000 C   0  0  0  0  0  0  0  0  0  0  0  0
    4.4661    0.0112    0.0000 C   0  0  0  0  0  0  0  0  0  0  0  0
    3.2404   -0.8535    0.0000 C   0  0  0  0  0  0  0  0  0  0  0  0
    1.8787   -0.2243    0.0000 C   0  0  0  0  0  0  0  0  0  0  0  0
    1.8578   -1.7242    0.0000 O   0  0  0  0  0  0  0  0  0  0  0  0
    3.1462   -2.4922    0.0000 C   0  0  0  0  0  0  0  0  0  0  0  0
    0.5000   -0.8153    0.0000 C   0  0  0  0  0  0  0  0  0  0  0  0
    0.1677   -2.2780    0.0000 C   0  0  0  0  0  0  0  0  0  0  0  0
   -0.4880    0.3134    0.0000 C   0  0  0  0  0  0  0  0  0  0  0  0
   -1.9819    0.1774    0.0000 C   0  0  0  0  0  0  0  0  0  0  0  0
   -2.8465    1.4031    0.0000 C   0  0  0  0  0  0  0  0  0  0  0  0
   -4.3404    1.2671    0.0000 C   0  0  0  0  0  0  0  0  0  0  0  0
   -5.2050    2.4928    0.0000 O   0  0  0  0  0  0  0  0  0  0  0  0
   -4.5758    3.8545    0.0000 C   0  0  0  0  0  0  0  0  0  0  0  0
   -4.9695   -0.0945    0.0000 C   0  0  0  0  0  0  0  0  0  0  0  0
   -6.4633   -0.2305    0.0000 O   0  0  0  0  0  0  0  0  0  0  0  0
   -7.0925   -1.5922    0.0000 C   0  0  0  0  0  0  0  0  0  0  0  0
   -4.1049   -1.3202    0.0000 C   0  0  0  0  0  0  0  0  0  0  0  0
   -4.7340   -2.6819    0.0000 O   0  0  0  0  0  0  0  0  0  0  0  0
   -3.8694   -3.9076    0.0000 C   0  0  0  0  0  0  0  0  0  0  0  0
   -2.6110   -1.1843    0.0000 C   0  0  0  0  0  0  0  0  0  0  0  0
    0.2800    1.6018    0.0000 O   0  0  0  0  0  0  0  0  0  0  0  0
    1.7427    1.2695    0.0000 C   0  0  0  0  0  0  0  0  0  0  0  0
    1.4514    2.7409    0.0000 O   0  0  0  0  0  0  0  0  0  0  0  0
    2.5800    3.7290    0.0000 C   0  0  0  0  0  0  0  0  0  0  0  0
    2.9684    2.1342    0.0000 C   0  0  0  0  0  0  0  0  0  0  0  0
    4.3301    1.5050    0.0000 C   0  0  0  0  0  0  0  0  0  0  0  0
    5.5558    2.3697    0.0000 O   0  0  0  0  0  0  0  0  0  0  0  0
  1  2  2  0
  2  3  1  0
  3  4  1  0
  4  5  2  0
  5  6  1  0
  6  7  1  1
  7  8  1  0
  6  9  1  0
  9 10  1  6
  9 11  1  0
 11 12  1  1
 12 13  2  0
 13 14  1  0
 14 15  1  0
 15 16  1  0
 14 17  2  0
 17 18  1  0
 18 19  1  0
 17 20  1  0
 20 21  1  0
 21 22  1  0
 20 23  2  0
 11 24  1  0
 24 25  1  0
 25 26  1  1
 26 27  1  0
 25 28  1  0
 28 29  1  0
 29 30  2  0
 29  4  1  0
 25  6  1  0
 23 12  1  0
M  END
>  <identifier>  (1643) 
CNP0166297.1

>  <canonical_smiles>  (1643) 
C=CCC1=C[C@]2(OC)[C@H](C)[C@@H](C3=CC(OC)=C(OC)C(OC)=C3)O[C@]2(OC)CC1=O

>  <standard_inchi>  (1643) 
InChI=1S/C23H30O7/c1-8-9-15-12-22(28-6)14(2)20(30-23(22,29-7)13-17(15)24)16-10-18(25-3)21(27-5)19(11-16)26-4/h8,10-12,14,20H,1,9,13H2,2-7H3/t14-,20+,22+,23-/m1/s1

>  <standard_inchi_key>  (1643) 
OWNOMYDKGUCRQF-KMHCDPRPSA-N

>  <name>  (1643) 
nan

>  <iupac_name>  (1643) 
(2~{S},3~{R},3~{a}~{S},7~{a}~{R})-5-allyl-3~{a},7~{a}-dimethoxy-3-methyl-2-(3,4,5-trimethoxyphenyl)-3,7-dihydro-2~{H}-benzofuran-6-one

>  <annotation_level>  (1643) 
3

>  <total_atom_count>  (1643) 
60

>  <heavy_atom_count>  (1643) 
30

>  <molecular_weight>  (1643) 
418.49

>  <exact_molecular_weight>  (1643) 
418.19915

>  <molecular_formula>  (1643) 
C23H30O7

>  <alogp>  (1643) 
3.62

>  <topological_polar_surface_area>  (1643) 
72.45

>  <rotatable_bond_count>  (1643) 
8

>  <hydrogen_bond_acceptors>  (1643) 
7

>  <hydrogen_bond_donors>  (1643) 
0

>  <hydrogen_bond_acceptors_lipinski>  (1643) 
7

>  <hydrogen_bond_donors_lipinski>  (1643) 
0

>  <lipinski_rule_of_five_violations>  (1643) 
0

>  <aromatic_rings_count>  (1643) 
1

>  <qed_drug_likeliness>  (1643) 
0.60

>  <formal_charge>  (1643) 
0

>  <fractioncsp3>  (1643) 
0.52

>  <number_of_minimal_rings>  (1643) 
3

>  <van_der_walls_volume>  (1643) 
nan

>  <contains_sugar>  (1643) 
False

>  <contains_ring_sugars>  (1643) 
False

>  <contains_linear_sugars>  (1643) 
False

>  <murcko_framework>  (1643) 
O1C(c2ccccc2)CC3C=CCCC13

>  <np_likeness>  (1643) 
1.92

>  <chemical_class>  (1643) 
Phenol ethers

>  <chemical_sub_class>  (1643) 
Anisoles

>  <chemical_super_class>  (1643) 
Benzenoids

>  <direct_parent_classification>  (1643) 
Anisoles

>  <np_classifier_pathway>  (1643) 
Shikimates and Phenylpropanoids

>  <np_classifier_superclass>  (1643) 
Lignans

>  <np_classifier_class>  (1643) 
Neolignans

>  <np_classifier_is_glycoside>  (1643) 
True

>  <organisms>  (1643) 
Nectandra|Nectandra sp.

>  <collections>  (1643) 
Latin America dataset|NuBBEDB|WikiData Natural Products

>  <dois>  (1643) 
10.1016/0031-9422(80)87033-6

>  <synonyms>  (1643) 
nan

>  <cas>  (1643) 
nan

$$$$

     RDKit          2D

 17 18  0  0  0  0  0  0  0  0999 V2000
   -3.0912   -2.6466    0.0000 C   0  0  0  0  0  0  0  0  0  0  0  0
   -2.7326   -1.1901    0.0000 C   0  0  0  0  0  0  0  0  0  0  0  0
   -3.8146   -0.1513    0.0000 C   0  0  0  0  0  0  0  0  0  0  0  0
   -3.4561    1.3052    0.0000 C   0  0  0  0  0  0  0  0  0  0  0  0
   -2.0154    1.7229    0.0000 C   0  0  0  0  0  0  0  0  0  0  0  0
   -1.6568    3.1794    0.0000 C   0  0  0  0  0  0  0  0  0  0  0  0
   -0.9333    0.6841    0.0000 C   0  0  0  0  0  0  0  0  0  0  0  0
   -1.2919   -0.7724    0.0000 C   0  0  0  0  0  0  0  0  0  0  0  0
   -0.2098   -1.8112    0.0000 C   0  0  0  0  0  0  0  0  0  0  0  0
    1.2308   -1.3935    0.0000 C   0  0  0  0  0  0  0  0  0  0  0  0
    2.3129   -2.4323    0.0000 O   0  0  0  0  0  0  0  0  0  0  0  0
    1.5894    0.0630    0.0000 C   0  0  0  0  0  0  0  0  0  0  0  0
    3.0301    0.4807    0.0000 C   0  0  0  0  0  0  0  0  0  0  0  0
    2.6124    1.9214    0.0000 C   0  0  0  0  0  0  0  0  0  0  0  0
    3.4478   -0.9599    0.0000 C   0  0  0  0  0  0  0  0  0  0  0  0
    4.4708    0.8984    0.0000 O   0  0  0  0  0  0  0  0  0  0  0  0
    0.5074    1.1018    0.0000 C   0  0  0  0  0  0  0  0  0  0  0  0
  1  2  1  0
  2  3  2  0
  3  4  1  0
  4  5  2  0
  5  6  1  0
  5  7  1  0
  7  8  2  0
  8  9  1  0
  9 10  1  0
 10 11  1  0
 10 12  1  0
 12 13  1  6
 13 14  1  0
 13 15  1  0
 13 16  1  0
 12 17  1  0
  8  2  1  0
 17  7  1  0
M  END
>  <identifier>  (1644) 
CNP0421565.2

>  <canonical_smiles>  (1644) 
CC1=CC=C(C)C2=C1CC(O)[C@@H](C(C)(C)O)C2

>  <standard_inchi>  (1644) 
InChI=1S/C15H22O2/c1-9-5-6-10(2)12-8-14(16)13(7-11(9)12)15(3,4)17/h5-6,13-14,16-17H,7-8H2,1-4H3/t13-,14?/m0/s1

>  <standard_inchi_key>  (1644) 
CHZJSQCDRSPCMD-LSLKUGRBSA-N

>  <name>  (1644) 
nan

>  <iupac_name>  (1644) 
(3~{S})-3-(1-hydroxy-1-methyl-ethyl)-5,8-dimethyl-tetralin-2-ol

>  <annotation_level>  (1644) 
4

>  <total_atom_count>  (1644) 
39

>  <heavy_atom_count>  (1644) 
17

>  <molecular_weight>  (1644) 
234.34

>  <exact_molecular_weight>  (1644) 
234.16198

>  <molecular_formula>  (1644) 
C15H22O2

>  <alogp>  (1644) 
2.15

>  <topological_polar_surface_area>  (1644) 
40.46

>  <rotatable_bond_count>  (1644) 
1

>  <hydrogen_bond_acceptors>  (1644) 
2

>  <hydrogen_bond_donors>  (1644) 
2

>  <hydrogen_bond_acceptors_lipinski>  (1644) 
2

>  <hydrogen_bond_donors_lipinski>  (1644) 
2

>  <lipinski_rule_of_five_violations>  (1644) 
0

>  <aromatic_rings_count>  (1644) 
1

>  <qed_drug_likeliness>  (1644) 
0.78

>  <formal_charge>  (1644) 
0

>  <fractioncsp3>  (1644) 
0.60

>  <number_of_minimal_rings>  (1644) 
2

>  <van_der_walls_volume>  (1644) 
nan

>  <contains_sugar>  (1644) 
False

>  <contains_ring_sugars>  (1644) 
False

>  <contains_linear_sugars>  (1644) 
False

>  <murcko_framework>  (1644) 
c1ccc2c(c1)CCCC2

>  <np_likeness>  (1644) 
1.05

>  <chemical_class>  (1644) 
Tetralins

>  <chemical_sub_class>  (1644) 
Tetralins

>  <chemical_super_class>  (1644) 
Benzenoids

>  <direct_parent_classification>  (1644) 
Tetralins

>  <np_classifier_pathway>  (1644) 
Terpenoids

>  <np_classifier_superclass>  (1644) 
Sesquiterpenoids

>  <np_classifier_class>  (1644) 
Cadinane sesquiterpenoids

>  <np_classifier_is_glycoside>  (1644) 
False

>  <organisms>  (1644) 
Emmotum nitens

>  <collections>  (1644) 
Latin America dataset|NuBBEDB|WikiData Natural Products

>  <dois>  (1644) 
10.1016/0031-9422(76)85091-1

>  <synonyms>  (1644) 
(2S3S)-2-Hydroxy-3-(2'-hydroxyisopropyl)-5-dimethyl-1234-tetrahydronaphthalene

>  <cas>  (1644) 
nan

$$$$

     RDKit          2D

 25 26  0  0  0  0  0  0  0  0999 V2000
   -7.7338   -0.2455    0.0000 C   0  0  0  0  0  0  0  0  0  0  0  0
   -6.6086   -1.2374    0.0000 S   0  0  0  0  0  0  0  0  0  0  0  0
   -5.1870   -0.7588    0.0000 C   0  0  0  0  0  0  0  0  0  0  0  0
   -4.8906    0.7116    0.0000 N   0  0  0  0  0  0  0  0  0  0  0  0
   -3.4690    1.1901    0.0000 C   0  0  0  0  0  0  0  0  0  0  0  0
   -3.1726    2.6605    0.0000 O   0  0  0  0  0  0  0  0  0  0  0  0
   -2.3437    0.1982    0.0000 C   0  0  0  0  0  0  0  0  0  0  0  0
   -1.5623    1.4786    0.0000 C   0  0  0  0  0  0  0  0  0  0  0  0
   -0.0627    1.4420    0.0000 C   0  0  0  0  0  0  0  0  0  0  0  0
    0.6554    0.1251    0.0000 C   0  0  0  0  0  0  0  0  0  0  0  0
    2.1549    0.0885    0.0000 C   0  0  0  0  0  0  0  0  0  0  0  0
    2.9364    1.3689    0.0000 C   0  0  0  0  0  0  0  0  0  0  0  0
    4.4359    1.3323    0.0000 O   0  0  0  0  0  0  0  0  0  0  0  0
    5.1540    0.0154    0.0000 C   0  0  0  0  0  0  0  0  0  0  0  0
    6.6536   -0.0212    0.0000 C   0  0  0  0  0  0  0  0  0  0  0  0
    7.3717   -1.3381    0.0000 C   0  0  0  0  0  0  0  0  0  0  0  0
    8.8713   -1.3747    0.0000 C   0  0  0  0  0  0  0  0  0  0  0  0
    6.5903   -2.6185    0.0000 C   0  0  0  0  0  0  0  0  0  0  0  0
    2.2182    2.6858    0.0000 C   0  0  0  0  0  0  0  0  0  0  0  0
    0.7187    2.7224    0.0000 C   0  0  0  0  0  0  0  0  0  0  0  0
   -0.9471   -0.3490    0.0000 S   0  0  0  0  0  0  0  0  0  0  0  0
   -0.7227   -1.8322    0.0000 C   0  0  0  0  0  0  0  0  0  0  0  0
   -2.6401   -1.2722    0.0000 N   0  0  0  0  0  0  0  0  0  0  0  0
   -4.0618   -1.7507    0.0000 C   0  0  0  0  0  0  0  0  0  0  0  0
   -4.3582   -3.2212    0.0000 O   0  0  0  0  0  0  0  0  0  0  0  0
  1  2  1  0
  3  2  1  1
  3  4  1  0
  4  5  1  0
  5  6  2  0
  5  7  1  0
  7  8  1  1
  8  9  1  0
  9 10  2  0
 10 11  1  0
 11 12  2  0
 12 13  1  0
 13 14  1  0
 14 15  1  0
 15 16  2  0
 16 17  1  0
 16 18  1  0
 12 19  1  0
 19 20  2  0
  7 21  1  0
 21 22  1  0
  7 23  1  0
 23 24  1  0
 24 25  2  0
 24  3  1  0
 20  9  1  0
M  END
>  <identifier>  (1645) 
CNP0259004.1

>  <canonical_smiles>  (1645) 
CS[C@H]1NC(=O)[C@](CC2=CC=C(OCC=C(C)C)C=C2)(SC)NC1=O

>  <standard_inchi>  (1645) 
InChI=1S/C18H24N2O3S2/c1-12(2)9-10-23-14-7-5-13(6-8-14)11-18(25-4)17(22)19-16(24-3)15(21)20-18/h5-9,16H,10-11H2,1-4H3,(H,19,22)(H,20,21)/t16-,18+/m1/s1

>  <standard_inchi_key>  (1645) 
OUPACRHVFRGERT-AEFFLSMTSA-N

>  <name>  (1645) 
Sch 54796

>  <iupac_name>  (1645) 
(3~{S},6~{R})-3-[[4-(3-methylbut-2-enoxy)phenyl]methyl]-3,6-bis(methylsulfanyl)piperazine-2,5-dione

>  <annotation_level>  (1645) 
5

>  <total_atom_count>  (1645) 
49

>  <heavy_atom_count>  (1645) 
25

>  <molecular_weight>  (1645) 
380.54

>  <exact_molecular_weight>  (1645) 
380.12283

>  <molecular_formula>  (1645) 
C18H24N2O3S2

>  <alogp>  (1645) 
2.57

>  <topological_polar_surface_area>  (1645) 
67.43

>  <rotatable_bond_count>  (1645) 
7

>  <hydrogen_bond_acceptors>  (1645) 
5

>  <hydrogen_bond_donors>  (1645) 
2

>  <hydrogen_bond_acceptors_lipinski>  (1645) 
5

>  <hydrogen_bond_donors_lipinski>  (1645) 
2

>  <lipinski_rule_of_five_violations>  (1645) 
0

>  <aromatic_rings_count>  (1645) 
1

>  <qed_drug_likeliness>  (1645) 
0.71

>  <formal_charge>  (1645) 
0

>  <fractioncsp3>  (1645) 
0.44

>  <number_of_minimal_rings>  (1645) 
2

>  <van_der_walls_volume>  (1645) 
nan

>  <contains_sugar>  (1645) 
False

>  <contains_ring_sugars>  (1645) 
False

>  <contains_linear_sugars>  (1645) 
False

>  <murcko_framework>  (1645) 
c1ccc(cc1)CC2NCCNC2

>  <np_likeness>  (1645) 
0.87

>  <chemical_class>  (1645) 
Carboxylic acids and derivatives

>  <chemical_sub_class>  (1645) 
Amino acids, peptides, and analogues

>  <chemical_super_class>  (1645) 
Organic acids and derivatives

>  <direct_parent_classification>  (1645) 
Alpha amino acids

>  <np_classifier_pathway>  (1645) 
Alkaloids

>  <np_classifier_superclass>  (1645) 
Peptide alkaloids

>  <np_classifier_class>  (1645) 
Thiodiketopiperazine alkaloids

>  <np_classifier_is_glycoside>  (1645) 
False

>  <organisms>  (1645) 
Fusarium|Fusarium chlamydosporum|Fusarium spp.|Tolypocladium|Tolypocladium sp.

>  <collections>  (1645) 
CMNPD|Latin America dataset|NPAtlas|NuBBEDB|Super Natural II|WikiData Natural Products|ZINC NP

>  <dois>  (1645) 
10.1016/J.PHYTOCHEM.2010.05.012|10.1016/S0040-4039(00)60393-3|10.1016/j.phytochem.2010.05.012|10.1016/s0040-4039(00)60393-3|10.1039/b305250h|10.7164/ANTIBIOTICS.55.655

>  <synonyms>  (1645) 
(3S,6R)-3-[[4-(3-methylbut-2-enoxy)phenyl]methyl]-3,6-bis(methylsulanyl)piperazine-2,5-dione|CHEBI:204797|No Data|Sch 54796

>  <cas>  (1645) 
nan

$$$$

     RDKit          2D

 21 24  0  0  0  0  0  0  0  0999 V2000
   -4.9940   -1.3336    0.0000 C   0  0  0  0  0  0  0  0  0  0  0  0
   -3.6072   -0.7619    0.0000 C   0  0  0  0  0  0  0  0  0  0  0  0
   -2.3295   -1.5478    0.0000 C   0  0  0  0  0  0  0  0  0  0  0  0
   -1.1873   -0.5755    0.0000 C   0  0  0  0  0  0  0  0  0  0  0  0
   -0.4738   -1.8950    0.0000 C   0  0  0  0  0  0  0  0  0  0  0  0
    1.0256   -1.9368    0.0000 C   0  0  0  0  0  0  0  0  0  0  0  0
    1.8116   -0.6591    0.0000 C   0  0  0  0  0  0  0  0  0  0  0  0
    3.3110   -0.7009    0.0000 C   0  0  0  0  0  0  0  0  0  0  0  0
    4.7057   -1.2530    0.0000 C   0  0  0  0  0  0  0  0  0  0  0  0
    3.0094   -2.1703    0.0000 C   0  0  0  0  0  0  0  0  0  0  0  0
    4.0969    0.5767    0.0000 C   0  0  0  0  0  0  0  0  0  0  0  0
    3.3834    1.8962    0.0000 C   0  0  0  0  0  0  0  0  0  0  0  0
    1.8839    1.9380    0.0000 C   0  0  0  0  0  0  0  0  0  0  0  0
    1.0980    0.6603    0.0000 C   0  0  0  0  0  0  0  0  0  0  0  0
    0.3845    1.9797    0.0000 C   0  0  0  0  0  0  0  0  0  0  0  0
   -0.4014    0.7021    0.0000 C   0  0  0  0  0  0  0  0  0  0  0  0
   -1.9008    0.7439    0.0000 O   0  0  0  0  0  0  0  0  0  0  0  0
   -1.1149    2.0215    0.0000 C   0  0  0  0  0  0  0  0  0  0  0  0
   -2.6143    2.0633    0.0000 C   0  0  0  0  0  0  0  0  0  0  0  0
   -3.4002    0.7857    0.0000 C   0  0  0  0  0  0  0  0  0  0  0  0
   -2.6867   -0.5337    0.0000 C   0  0  0  0  0  0  0  0  0  0  0  0
  1  2  2  0
  2  3  1  0
  4  3  1  6
  4  5  1  0
  5  6  1  0
  7  6  1  1
  7  8  1  0
  8  9  1  0
  8 10  1  0
  8 11  1  0
 11 12  1  0
 12 13  1  0
 13 14  1  0
 14 15  1  1
 14 16  1  0
 16 17  1  6
 16 18  1  0
 18 19  1  0
 20 19  1  6
 20 21  1  0
 20  2  1  0
 16  4  1  0
 21  4  1  0
 14  7  1  0
M  END
>  <identifier>  (1646) 
CNP0265403.1

>  <canonical_smiles>  (1646) 
C=C1C[C@@]23CC[C@@H]4C(C)(C)CCC[C@@]4(C)[C@]2(O)CC[C@@H]1C3

>  <standard_inchi>  (1646) 
InChI=1S/C20H32O/c1-14-12-19-10-7-16-17(2,3)8-5-9-18(16,4)20(19,21)11-6-15(14)13-19/h15-16,21H,1,5-13H2,2-4H3/t15-,16-,18-,19-,20-/m1/s1

>  <standard_inchi_key>  (1646) 
QQJJYYMKZXXMHH-YKXHTNLXSA-N

>  <name>  (1646) 
nan

>  <iupac_name>  (1646) 
(1~{S},4~{R},9~{R},10~{S},13~{R})-5,5,9-trimethyl-14-methylene-tetracyclo[11.2.1.0^{1,10}.0^{4,9}]hexadecan-10-ol

>  <annotation_level>  (1646) 
4

>  <total_atom_count>  (1646) 
53

>  <heavy_atom_count>  (1646) 
21

>  <molecular_weight>  (1646) 
288.48

>  <exact_molecular_weight>  (1646) 
288.24532

>  <molecular_formula>  (1646) 
C20H32O

>  <alogp>  (1646) 
5.09

>  <topological_polar_surface_area>  (1646) 
20.23

>  <rotatable_bond_count>  (1646) 
0

>  <hydrogen_bond_acceptors>  (1646) 
1

>  <hydrogen_bond_donors>  (1646) 
1

>  <hydrogen_bond_acceptors_lipinski>  (1646) 
1

>  <hydrogen_bond_donors_lipinski>  (1646) 
1

>  <lipinski_rule_of_five_violations>  (1646) 
1

>  <aromatic_rings_count>  (1646) 
0

>  <qed_drug_likeliness>  (1646) 
0.62

>  <formal_charge>  (1646) 
0

>  <fractioncsp3>  (1646) 
0.90

>  <number_of_minimal_rings>  (1646) 
4

>  <van_der_walls_volume>  (1646) 
nan

>  <contains_sugar>  (1646) 
False

>  <contains_ring_sugars>  (1646) 
False

>  <contains_linear_sugars>  (1646) 
False

>  <murcko_framework>  (1646) 
C1CCC2C(C1)CCC34CCC(CCC23)C4

>  <np_likeness>  (1646) 
3.22

>  <chemical_class>  (1646) 
Prenol lipids

>  <chemical_sub_class>  (1646) 
Diterpenoids

>  <chemical_super_class>  (1646) 
Lipids and lipid-like molecules

>  <direct_parent_classification>  (1646) 
Kaurane diterpenoids

>  <np_classifier_pathway>  (1646) 
Terpenoids

>  <np_classifier_superclass>  (1646) 
Diterpenoids

>  <np_classifier_class>  (1646) 
Kaurane and Phyllocladane diterpenoids

>  <np_classifier_is_glycoside>  (1646) 
False

>  <organisms>  (1646) 
Vellozia caput-ardeae

>  <collections>  (1646) 
Latin America dataset|NuBBEDB|Super Natural II|WikiData Natural Products

>  <dois>  (1646) 
10.1016/0031-9422(83)80035-1

>  <synonyms>  (1646) 
ent-9\u221a\u00e9\u00ac\u2264-hydroxy kaur-16-ene

>  <cas>  (1646) 
nan

$$$$

     RDKit          2D

 27 31  0  0  0  0  0  0  0  0999 V2000
    8.4844   -0.9638    0.0000 C   0  0  0  0  0  0  0  0  0  0  0  0
    7.4948    0.1635    0.0000 O   0  0  0  0  0  0  0  0  0  0  0  0
    6.0238   -0.1299    0.0000 C   0  0  0  0  0  0  0  0  0  0  0  0
    5.5423   -1.5506    0.0000 C   0  0  0  0  0  0  0  0  0  0  0  0
    4.0713   -1.8439    0.0000 C   0  0  0  0  0  0  0  0  0  0  0  0
    3.0817   -0.7167    0.0000 C   0  0  0  0  0  0  0  0  0  0  0  0
    1.6107   -1.0101    0.0000 C   0  0  0  0  0  0  0  0  0  0  0  0
    0.9834   -2.3726    0.0000 O   0  0  0  0  0  0  0  0  0  0  0  0
   -0.5063   -2.1971    0.0000 C   0  0  0  0  0  0  0  0  0  0  0  0
   -0.7997   -0.7260    0.0000 C   0  0  0  0  0  0  0  0  0  0  0  0
    0.5087    0.0076    0.0000 C   0  0  0  0  0  0  0  0  0  0  0  0
    0.2153    1.4786    0.0000 C   0  0  0  0  0  0  0  0  0  0  0  0
   -1.2744    1.6541    0.0000 O   0  0  0  0  0  0  0  0  0  0  0  0
   -1.9017    0.2916    0.0000 C   0  0  0  0  0  0  0  0  0  0  0  0
   -3.3727   -0.0018    0.0000 C   0  0  0  0  0  0  0  0  0  0  0  0
   -3.8542   -1.4224    0.0000 C   0  0  0  0  0  0  0  0  0  0  0  0
   -5.3252   -1.7158    0.0000 C   0  0  0  0  0  0  0  0  0  0  0  0
   -6.3148   -0.5886    0.0000 C   0  0  0  0  0  0  0  0  0  0  0  0
   -7.8147   -0.5697    0.0000 O   0  0  0  0  0  0  0  0  0  0  0  0
   -8.2602    0.8626    0.0000 C   0  0  0  0  0  0  0  0  0  0  0  0
   -7.0357    1.7290    0.0000 O   0  0  0  0  0  0  0  0  0  0  0  0
   -5.8333    0.8321    0.0000 C   0  0  0  0  0  0  0  0  0  0  0  0
   -4.3623    1.1255    0.0000 C   0  0  0  0  0  0  0  0  0  0  0  0
    3.5631    0.7039    0.0000 C   0  0  0  0  0  0  0  0  0  0  0  0
    5.0342    0.9973    0.0000 C   0  0  0  0  0  0  0  0  0  0  0  0
    5.5156    2.4180    0.0000 O   0  0  0  0  0  0  0  0  0  0  0  0
    4.5260    3.5452    0.0000 C   0  0  0  0  0  0  0  0  0  0  0  0
  1  2  1  0
  2  3  1  0
  3  4  2  0
  4  5  1  0
  5  6  2  0
  7  6  1  1
  7  8  1  0
  8  9  1  0
 10  9  1  1
 10 11  1  0
 11 12  1  1
 12 13  1  0
 13 14  1  0
 14 15  1  1
 15 16  2  0
 16 17  1  0
 17 18  2  0
 18 19  1  0
 19 20  1  0
 20 21  1  0
 21 22  1  0
 22 23  2  0
  6 24  1  0
 24 25  2  0
 25 26  1  0
 26 27  1  0
 25  3  1  0
 11  7  1  0
 23 15  1  0
 14 10  1  0
 22 18  1  0
M  END
>  <identifier>  (1647) 
CNP0140264.6

>  <canonical_smiles>  (1647) 
COC1=CC=C([C@H]2OC[C@@H]3[C@H]2CO[C@@H]3C2=CC=C3OCOC3=C2)C=C1OC

>  <standard_inchi>  (1647) 
InChI=1S/C21H22O6/c1-22-16-5-3-12(7-18(16)23-2)20-14-9-25-21(15(14)10-24-20)13-4-6-17-19(8-13)27-11-26-17/h3-8,14-15,20-21H,9-11H2,1-2H3/t14-,15-,20-,21-/m1/s1

>  <standard_inchi_key>  (1647) 
AWOGQCSIVCQXBT-MXKXFIQMSA-N

>  <name>  (1647) 
nan

>  <iupac_name>  (1647) 
5-[(3~{S},3~{a}~{S},6~{S},6~{a}~{S})-6-(3,4-dimethoxyphenyl)-1,3,3~{a},4,6,6~{a}-hexahydrofuro[3,4-c]furan-3-yl]-1,3-benzodioxole

>  <annotation_level>  (1647) 
4

>  <total_atom_count>  (1647) 
49

>  <heavy_atom_count>  (1647) 
27

>  <molecular_weight>  (1647) 
370.4

>  <exact_molecular_weight>  (1647) 
370.14164

>  <molecular_formula>  (1647) 
C21H22O6

>  <alogp>  (1647) 
3.51

>  <topological_polar_surface_area>  (1647) 
55.38

>  <rotatable_bond_count>  (1647) 
4

>  <hydrogen_bond_acceptors>  (1647) 
6

>  <hydrogen_bond_donors>  (1647) 
0

>  <hydrogen_bond_acceptors_lipinski>  (1647) 
6

>  <hydrogen_bond_donors_lipinski>  (1647) 
0

>  <lipinski_rule_of_five_violations>  (1647) 
0

>  <aromatic_rings_count>  (1647) 
2

>  <qed_drug_likeliness>  (1647) 
0.82

>  <formal_charge>  (1647) 
0

>  <fractioncsp3>  (1647) 
0.43

>  <number_of_minimal_rings>  (1647) 
5

>  <van_der_walls_volume>  (1647) 
nan

>  <contains_sugar>  (1647) 
False

>  <contains_ring_sugars>  (1647) 
False

>  <contains_linear_sugars>  (1647) 
False

>  <murcko_framework>  (1647) 
O1c2ccc(cc2OC1)C3OCC4C(OCC34)c5ccccc5

>  <np_likeness>  (1647) 
0.75

>  <chemical_class>  (1647) 
Furanoid lignans

>  <chemical_sub_class>  (1647) 
Furan lignans

>  <chemical_super_class>  (1647) 
Lignans, neolignans and related compounds

>  <direct_parent_classification>  (1647) 
Furan lignans

>  <np_classifier_pathway>  (1647) 
Shikimates and Phenylpropanoids

>  <np_classifier_superclass>  (1647) 
Lignans

>  <np_classifier_class>  (1647) 
Furofuranoid lignans

>  <np_classifier_is_glycoside>  (1647) 
False

>  <organisms>  (1647) 
Raulinoa echinata

>  <collections>  (1647) 
Latin America dataset|NuBBEDB|ZINC NP

>  <dois>  (1647) 
10.1002/1099-1565(200101/02)12:1<64::AID-PCA562>3.0.CO,2-3

>  <synonyms>  (1647) 
(+)-methylxanthoxylol

>  <cas>  (1647) 
nan

$$$$

     RDKit          2D

 21 23  0  0  0  0  0  0  0  0999 V2000
   -6.4012    1.7201    0.0000 C   0  0  0  0  0  0  0  0  0  0  0  0
   -5.8279    0.3340    0.0000 O   0  0  0  0  0  0  0  0  0  0  0  0
   -4.3409    0.1373    0.0000 C   0  0  0  0  0  0  0  0  0  0  0  0
   -3.4271    1.3268    0.0000 C   0  0  0  0  0  0  0  0  0  0  0  0
   -1.9400    1.1301    0.0000 C   0  0  0  0  0  0  0  0  0  0  0  0
   -1.0262    2.3196    0.0000 O   0  0  0  0  0  0  0  0  0  0  0  0
   -1.3668   -0.2560    0.0000 C   0  0  0  0  0  0  0  0  0  0  0  0
    0.1203   -0.4527    0.0000 C   0  0  0  0  0  0  0  0  0  0  0  0
    0.6935   -1.8388    0.0000 C   0  0  0  0  0  0  0  0  0  0  0  0
    2.1805   -2.0355    0.0000 O   0  0  0  0  0  0  0  0  0  0  0  0
    3.0944   -0.8460    0.0000 C   0  0  0  0  0  0  0  0  0  0  0  0
    4.5814   -1.0427    0.0000 C   0  0  0  0  0  0  0  0  0  0  0  0
    5.4953    0.1468    0.0000 C   0  0  0  0  0  0  0  0  0  0  0  0
    6.9823   -0.0499    0.0000 O   0  0  0  0  0  0  0  0  0  0  0  0
    4.9220    1.5330    0.0000 C   0  0  0  0  0  0  0  0  0  0  0  0
    3.4350    1.7296    0.0000 C   0  0  0  0  0  0  0  0  0  0  0  0
    2.5212    0.5401    0.0000 C   0  0  0  0  0  0  0  0  0  0  0  0
    1.0341    0.7368    0.0000 C   0  0  0  0  0  0  0  0  0  0  0  0
   -2.2806   -1.4455    0.0000 C   0  0  0  0  0  0  0  0  0  0  0  0
   -3.7677   -1.2488    0.0000 C   0  0  0  0  0  0  0  0  0  0  0  0
   -4.6815   -2.4383    0.0000 O   0  0  0  0  0  0  0  0  0  0  0  0
  1  2  1  0
  2  3  1  0
  3  4  2  0
  4  5  1  0
  5  6  2  0
  5  7  1  0
  8  7  1  1
  8  9  1  0
  9 10  1  0
 10 11  1  0
 11 12  2  0
 12 13  1  0
 13 14  1  0
 13 15  2  0
 15 16  1  0
 16 17  2  0
 17 18  1  0
  7 19  2  0
 19 20  1  0
 20 21  2  0
 20  3  1  0
 18  8  1  0
 17 11  1  0
M  END
>  <identifier>  (1648) 
CNP0117898.1

>  <canonical_smiles>  (1648) 
COC1=CC(=O)C([C@@H]2COC3=CC(O)=CC=C3C2)=CC1=O

>  <standard_inchi>  (1648) 
InChI=1S/C16H14O5/c1-20-16-7-13(18)12(6-14(16)19)10-4-9-2-3-11(17)5-15(9)21-8-10/h2-3,5-7,10,17H,4,8H2,1H3/t10-/m0/s1

>  <standard_inchi_key>  (1648) 
PDAKXMIQFUHWQC-JTQLQIEISA-N

>  <name>  (1648) 
(3R)-Claussequinone

>  <iupac_name>  (1648) 
2-[(3~{R})-7-hydroxychroman-3-yl]-5-methoxy-1,4-benzoquinone

>  <annotation_level>  (1648) 
5

>  <total_atom_count>  (1648) 
35

>  <heavy_atom_count>  (1648) 
21

>  <molecular_weight>  (1648) 
286.28

>  <exact_molecular_weight>  (1648) 
286.08412

>  <molecular_formula>  (1648) 
C16H14O5

>  <alogp>  (1648) 
1.55

>  <topological_polar_surface_area>  (1648) 
72.83

>  <rotatable_bond_count>  (1648) 
2

>  <hydrogen_bond_acceptors>  (1648) 
5

>  <hydrogen_bond_donors>  (1648) 
1

>  <hydrogen_bond_acceptors_lipinski>  (1648) 
5

>  <hydrogen_bond_donors_lipinski>  (1648) 
1

>  <lipinski_rule_of_five_violations>  (1648) 
0

>  <aromatic_rings_count>  (1648) 
1

>  <qed_drug_likeliness>  (1648) 
0.84

>  <formal_charge>  (1648) 
0

>  <fractioncsp3>  (1648) 
0.25

>  <number_of_minimal_rings>  (1648) 
3

>  <van_der_walls_volume>  (1648) 
248.82

>  <contains_sugar>  (1648) 
False

>  <contains_ring_sugars>  (1648) 
False

>  <contains_linear_sugars>  (1648) 
False

>  <murcko_framework>  (1648) 
O1c2ccccc2CC(C3=CCC=CC3)C1

>  <np_likeness>  (1648) 
1.99

>  <chemical_class>  (1648) 
Isoflavonoids

>  <chemical_sub_class>  (1648) 
Isoflavanquinones

>  <chemical_super_class>  (1648) 
Phenylpropanoids and polyketides

>  <direct_parent_classification>  (1648) 
Isoflavanquinones

>  <np_classifier_pathway>  (1648) 
Shikimates and Phenylpropanoids

>  <np_classifier_superclass>  (1648) 
Isoflavonoids

>  <np_classifier_class>  (1648) 
Pterocarpan

>  <np_classifier_is_glycoside>  (1648) 
False

>  <organisms>  (1648) 
Cyclobium clausseni|Cyclobium vecchi|Cyclolobium brasiliense|Cyclolobium clausseni|Cyclolobium claussenii|Cyclolobium vecchii|Dalbergia Candenatensis|Dalbergia candenatensis|Dalbergia odorifera|Lignum dalbergiae odoriferae rosewood|Milletia pendula|Millettia leucantha|Millettia pendula|Millettia vatkei|Pterocarpus soyauxii

>  <collections>  (1648) 
CMAUP (cCollective molecular activities of useful plants)|KNApSaCK|Latin America dataset|NPASS|NuBBEDB|Super Natural II|VietHerb|WikiData Natural Products|ZINC NP

>  <dois>  (1648) 
10.1016/S0031-9422(00)81448-X|10.1021/NP50052A020|10.1021/np50052a020|10.1107/S0108270183006149|10.1107/s0108270183006149|10.1248/CPB.37.979|10.1248/CPB.54.915

>  <synonyms>  (1648) 
(R)-2-(7-Hydroxychroman-3-yl)-5-methoxycyclohexa-2,5-diene-1,4-dione|3R-Claussequinone|7-Hydroxy-4'-methoxyisoflavanquinone|CHEMBL446542|DTXSID001345972|NSC331934|SCHEMBL571132

>  <cas>  (1648) 
nan

$$$$

     RDKit          2D

 18 20  0  0  0  0  0  0  0  0999 V2000
   -4.5202   -2.1802    0.0000 C   0  0  0  0  0  0  0  0  0  0  0  0
   -4.2707   -0.7011    0.0000 C   0  0  0  0  0  0  0  0  0  0  0  0
   -5.4269    0.2545    0.0000 C   0  0  0  0  0  0  0  0  0  0  0  0
   -2.8650   -0.1776    0.0000 C   0  0  0  0  0  0  0  0  0  0  0  0
   -1.6152   -1.0072    0.0000 C   0  0  0  0  0  0  0  0  0  0  0  0
   -0.4401   -0.0750    0.0000 C   0  0  0  0  0  0  0  0  0  0  0  0
   -0.9636    1.3307    0.0000 C   0  0  0  0  0  0  0  0  0  0  0  0
   -0.0079    2.4869    0.0000 C   0  0  0  0  0  0  0  0  0  0  0  0
    1.4712    2.2374    0.0000 C   0  0  0  0  0  0  0  0  0  0  0  0
    2.4268    3.3936    0.0000 O   0  0  0  0  0  0  0  0  0  0  0  0
    1.9946    0.8317    0.0000 C   0  0  0  0  0  0  0  0  0  0  0  0
    1.0390   -0.3245    0.0000 C   0  0  0  0  0  0  0  0  0  0  0  0
    1.5625   -1.7302    0.0000 O   0  0  0  0  0  0  0  0  0  0  0  0
    3.0416   -1.9797    0.0000 C   0  0  0  0  0  0  0  0  0  0  0  0
    3.5650   -3.3854    0.0000 O   0  0  0  0  0  0  0  0  0  0  0  0
    3.9972   -0.8235    0.0000 C   0  0  0  0  0  0  0  0  0  0  0  0
    3.4737    0.5822    0.0000 C   0  0  0  0  0  0  0  0  0  0  0  0
   -2.4622    1.2673    0.0000 O   0  0  0  0  0  0  0  0  0  0  0  0
  1  2  2  0
  2  3  1  0
  4  2  1  1
  4  5  1  0
  5  6  1  0
  6  7  2  0
  7  8  1  0
  8  9  2  0
  9 10  1  0
  9 11  1  0
 11 12  2  0
 12 13  1  0
 13 14  1  0
 14 15  2  0
 14 16  1  0
 16 17  2  0
  7 18  1  0
 18  4  1  0
 12  6  1  0
 17 11  1  0
M  END
>  <identifier>  (1649) 
CNP0138327.1

>  <canonical_smiles>  (1649) 
C=C(C)[C@@H]1CC2=C(C=C(O)C3=C2OC(=O)C=C3)O1

>  <standard_inchi>  (1649) 
InChI=1S/C14H12O4/c1-7(2)11-5-9-12(17-11)6-10(15)8-3-4-13(16)18-14(8)9/h3-4,6,11,15H,1,5H2,2H3/t11-/m0/s1

>  <standard_inchi_key>  (1649) 
ZKVAWHGWTAJAEK-NSHDSACASA-N

>  <name>  (1649) 
(8S)-5-hydroxy-8-prop-1-en-2-yl-8,9-dihydrofuro[2,3-h]chromen-2-one

>  <iupac_name>  (1649) 
(8~{S})-5-hydroxy-8-isopropenyl-8,9-dihydrofuro[2,3-h]chromen-2-one

>  <annotation_level>  (1649) 
5

>  <total_atom_count>  (1649) 
30

>  <heavy_atom_count>  (1649) 
18

>  <molecular_weight>  (1649) 
244.25

>  <exact_molecular_weight>  (1649) 
244.07356

>  <molecular_formula>  (1649) 
C14H12O4

>  <alogp>  (1649) 
2.38

>  <topological_polar_surface_area>  (1649) 
59.67

>  <rotatable_bond_count>  (1649) 
1

>  <hydrogen_bond_acceptors>  (1649) 
4

>  <hydrogen_bond_donors>  (1649) 
1

>  <hydrogen_bond_acceptors_lipinski>  (1649) 
4

>  <hydrogen_bond_donors_lipinski>  (1649) 
1

>  <lipinski_rule_of_five_violations>  (1649) 
0

>  <aromatic_rings_count>  (1649) 
2

>  <qed_drug_likeliness>  (1649) 
0.62

>  <formal_charge>  (1649) 
0

>  <fractioncsp3>  (1649) 
0.21

>  <number_of_minimal_rings>  (1649) 
3

>  <van_der_walls_volume>  (1649) 
210.90

>  <contains_sugar>  (1649) 
False

>  <contains_ring_sugars>  (1649) 
False

>  <contains_linear_sugars>  (1649) 
False

>  <murcko_framework>  (1649) 
O1c2ccc3C=CCOc3c2CC1

>  <np_likeness>  (1649) 
2.04

>  <chemical_class>  (1649) 
Coumarins and derivatives

>  <chemical_sub_class>  (1649) 
Furanocoumarins

>  <chemical_super_class>  (1649) 
Phenylpropanoids and polyketides

>  <direct_parent_classification>  (1649) 
Angular furanocoumarins

>  <np_classifier_pathway>  (1649) 
Shikimates and Phenylpropanoids

>  <np_classifier_superclass>  (1649) 
Coumarins

>  <np_classifier_class>  (1649) 
Furocoumarins

>  <np_classifier_is_glycoside>  (1649) 
False

>  <organisms>  (1649) 
Arachniodes mutica|Flavoparmelia caperata|Flueggea microcarpa|Gentiana strictiflora|Glinus oppositifolius|Helminthosporium victoriae|Jasione montana|Jurinea maxima|Machilus odoratissima|Machilus zuihoensis|Mycetia nutans|Naja naja|Notonia grandiflora|Ophiopholis aculeata|Pilocarpus grandiflorus|Psiadia anchusifolia|Rutaceae|Sideritis perfoliata|Streptomyces globisporus|Streptomyces griseocarneus|Streptomyces sulfonofaciens|Streptomyces tateyamensis|Takifugu rubripes|Zanthoxylum chiloperone

>  <collections>  (1649) 
CMAUP (cCollective molecular activities of useful plants)|Latin America dataset|NPASS|NuBBEDB|WikiData Natural Products|ZINC NP

>  <dois>  (1649) 
10.1351/PAC200173030617|10.1351/pac200173030617|10.1515/ZNB-2005-0715

>  <synonyms>  (1649) 
BDBM50404364|CHEMBL305510

>  <cas>  (1649) 
nan

$$$$

     RDKit          2D

 39 41  0  0  0  0  0  0  0  0999 V2000
    8.1399    1.1500    0.0000 C   0  0  0  0  0  0  0  0  0  0  0  0
    6.7310    0.6352    0.0000 C   0  0  0  0  0  0  0  0  0  0  0  0
    6.4724   -0.8423    0.0000 C   0  0  0  0  0  0  0  0  0  0  0  0
    7.6227   -1.8050    0.0000 C   0  0  0  0  0  0  0  0  0  0  0  0
    5.0635   -1.3571    0.0000 C   0  0  0  0  0  0  0  0  0  0  0  0
    3.9133   -0.3944    0.0000 C   0  0  0  0  0  0  0  0  0  0  0  0
    2.5044   -0.9092    0.0000 C   0  0  0  0  0  0  0  0  0  0  0  0
    3.2560   -2.2073    0.0000 C   0  0  0  0  0  0  0  0  0  0  0  0
    2.2420    0.5677    0.0000 C   0  0  0  0  0  0  0  0  0  0  0  0
    3.3899    1.5333    0.0000 C   0  0  0  0  0  0  0  0  0  0  0  0
    0.8318    1.0789    0.0000 C   0  0  0  0  0  0  0  0  0  0  0  0
    0.5695    2.5558    0.0000 O   0  0  0  0  0  0  0  0  0  0  0  0
   -0.3160    0.1133    0.0000 C   0  0  0  0  0  0  0  0  0  0  0  0
   -1.7262    0.6245    0.0000 O   0  0  0  0  0  0  0  0  0  0  0  0
   -1.9885    2.1014    0.0000 C   0  0  0  0  0  0  0  0  0  0  0  0
   -3.3987    2.6127    0.0000 C   0  0  0  0  0  0  0  0  0  0  0  0
   -1.1085    3.3161    0.0000 O   0  0  0  0  0  0  0  0  0  0  0  0
   -0.0537   -1.3636    0.0000 C   0  0  0  0  0  0  0  0  0  0  0  0
   -1.2015   -2.3292    0.0000 C   0  0  0  0  0  0  0  0  0  0  0  0
   -0.9392   -3.8061    0.0000 C   0  0  0  0  0  0  0  0  0  0  0  0
    0.4710   -4.3174    0.0000 C   0  0  0  0  0  0  0  0  0  0  0  0
    0.7333   -5.7942    0.0000 O   0  0  0  0  0  0  0  0  0  0  0  0
    1.6189   -3.3517    0.0000 C   0  0  0  0  0  0  0  0  0  0  0  0
    1.3565   -1.8748    0.0000 C   0  0  0  0  0  0  0  0  0  0  0  0
   -2.4746   -1.5360    0.0000 C   0  0  0  0  0  0  0  0  0  0  0  0
   -3.8647   -2.0996    0.0000 O   0  0  0  0  0  0  0  0  0  0  0  0
   -5.0478   -1.1776    0.0000 C   0  0  0  0  0  0  0  0  0  0  0  0
   -4.8410    0.3080    0.0000 O   0  0  0  0  0  0  0  0  0  0  0  0
   -6.4379   -1.7413    0.0000 C   0  0  0  0  0  0  0  0  0  0  0  0
   -7.6211   -0.8193    0.0000 C   0  0  0  0  0  0  0  0  0  0  0  0
   -9.0112   -1.3830    0.0000 C   0  0  0  0  0  0  0  0  0  0  0  0
   -2.1135   -0.0801    0.0000 O   0  0  0  0  0  0  0  0  0  0  0  0
   -0.6173    0.0265    0.0000 C   0  0  0  0  0  0  0  0  0  0  0  0
    0.1759    1.2995    0.0000 O   0  0  0  0  0  0  0  0  0  0  0  0
   -0.5299    2.6231    0.0000 C   0  0  0  0  0  0  0  0  0  0  0  0
   -1.9723    3.0348    0.0000 O   0  0  0  0  0  0  0  0  0  0  0  0
    0.2633    3.8961    0.0000 C   0  0  0  0  0  0  0  0  0  0  0  0
   -0.4426    5.2197    0.0000 C   0  0  0  0  0  0  0  0  0  0  0  0
    0.3507    6.4928    0.0000 C   0  0  0  0  0  0  0  0  0  0  0  0
  1  2  2  0
  2  3  1  0
  3  4  1  0
  3  5  2  0
  5  6  1  0
  6  7  1  0
  7  8  1  6
  7  9  1  0
  9 10  1  1
  9 11  1  0
 11 12  1  6
 11 13  1  0
 13 14  1  1
 14 15  1  0
 15 16  1  0
 15 17  2  0
 13 18  1  0
 18 19  1  6
 19 20  2  0
 20 21  1  0
 21 22  1  1
 21 23  1  0
 24 23  1  6
 19 25  1  0
 25 26  1  1
 26 27  1  0
 27 28  2  0
 27 29  1  0
 29 30  1  0
 30 31  1  0
 25 32  1  0
 32 33  1  0
 33 34  1  1
 34 35  1  0
 35 36  2  0
 35 37  1  0
 37 38  1  0
 38 39  1  0
 24  7  1  0
 24 18  1  0
 33 18  1  0
M  END
>  <identifier>  (1650) 
CNP0321101.1

>  <canonical_smiles>  (1650) 
C=C/C(C)=C\C[C@]1(C)[C@H](C)[C@@H](O)[C@H](OC(C)=O)[C@@]23C(=C[C@H](O)C[C@@H]12)[C@@H](OC(=O)CCC)O[C@H]3OC(=O)CCC

>  <standard_inchi>  (1650) 
InChI=1S/C30H44O9/c1-8-11-23(33)37-27-21-15-20(32)16-22-29(7,14-13-17(4)10-3)18(5)25(35)26(36-19(6)31)30(21,22)28(39-27)38-24(34)12-9-2/h10,13,15,18,20,22,25-28,32,35H,3,8-9,11-12,14,16H2,1-2,4-7H3/b17-13-/t18-,20+,22+,25-,26+,27+,28-,29-,30-/m1/s1

>  <standard_inchi_key>  (1650) 
KGWLIKQXAVVBFW-QCBPRUOOSA-N

>  <name>  (1650) 
nan

>  <iupac_name>  (1650) 
[(1~{S},3~{R},5~{R},6~{a}~{S},7~{S},8~{S},9~{R},10~{R},10~{a}~{S})-10-acetoxy-1-butanoyloxy-5,9-dihydroxy-7,8-dimethyl-7-[(2~{Z})-3-methylpenta-2,4-dienyl]-1,3,5,6,6~{a},8,9,10-octahydrobenzo[d]isobenzofuran-3-yl] butanoate

>  <annotation_level>  (1650) 
5

>  <total_atom_count>  (1650) 
83

>  <heavy_atom_count>  (1650) 
39

>  <molecular_weight>  (1650) 
548.67

>  <exact_molecular_weight>  (1650) 
548.29853

>  <molecular_formula>  (1650) 
C30H44O9

>  <alogp>  (1650) 
4.12

>  <topological_polar_surface_area>  (1650) 
128.59

>  <rotatable_bond_count>  (1650) 
10

>  <hydrogen_bond_acceptors>  (1650) 
9

>  <hydrogen_bond_donors>  (1650) 
2

>  <hydrogen_bond_acceptors_lipinski>  (1650) 
9

>  <hydrogen_bond_donors_lipinski>  (1650) 
2

>  <lipinski_rule_of_five_violations>  (1650) 
1

>  <aromatic_rings_count>  (1650) 
0

>  <qed_drug_likeliness>  (1650) 
0.18

>  <formal_charge>  (1650) 
0

>  <fractioncsp3>  (1650) 
0.70

>  <number_of_minimal_rings>  (1650) 
3

>  <van_der_walls_volume>  (1650) 
516.46

>  <contains_sugar>  (1650) 
False

>  <contains_ring_sugars>  (1650) 
False

>  <contains_linear_sugars>  (1650) 
False

>  <murcko_framework>  (1650) 
O1CC2=CCCC3CCCCC23C1

>  <np_likeness>  (1650) 
3.13

>  <chemical_class>  (1650) 
Prenol lipids

>  <chemical_sub_class>  (1650) 
Diterpenoids

>  <chemical_super_class>  (1650) 
Lipids and lipid-like molecules

>  <direct_parent_classification>  (1650) 
Colensane and clerodane diterpenoids

>  <np_classifier_pathway>  (1650) 
Terpenoids

>  <np_classifier_superclass>  (1650) 
Diterpenoids

>  <np_classifier_class>  (1650) 
Colensane and Clerodane diterpenoids

>  <np_classifier_is_glycoside>  (1650) 
True

>  <organisms>  (1650) 
Casearia sylvestris

>  <collections>  (1650) 
ChemSpider NPs|Latin America dataset|NuBBEDB|Super Natural II|WikiData Natural Products|ZINC NP

>  <dois>  (1650) 
10.1002/PCA.902|10.1002/pca.902|10.1248/CPB.39.693

>  <synonyms>  (1650) 
Casearin M

>  <cas>  (1650) 
nan

$$$$

     RDKit          2D

 12 11  0  0  0  0  0  0  0  0999 V2000
   -6.9435   -0.1938    0.0000 C   0  0  0  0  0  0  0  0  0  0  0  0
   -5.6127    0.4981    0.0000 C   0  0  0  0  0  0  0  0  0  0  0  0
   -4.3480   -0.3085    0.0000 C   0  0  0  0  0  0  0  0  0  0  0  0
   -3.0171    0.3835    0.0000 C   0  0  0  0  0  0  0  0  0  0  0  0
   -1.7524   -0.4231    0.0000 C   0  0  0  0  0  0  0  0  0  0  0  0
   -0.4216    0.2689    0.0000 C   0  0  0  0  0  0  0  0  0  0  0  0
    0.8431   -0.5377    0.0000 C   0  0  0  0  0  0  0  0  0  0  0  0
    2.1740    0.1542    0.0000 C   0  0  0  0  0  0  0  0  0  0  0  0
    3.4387   -0.6523    0.0000 C   0  0  0  0  0  0  0  0  0  0  0  0
    4.7695    0.0396    0.0000 C   0  0  0  0  0  0  0  0  0  0  0  0
    6.0342   -0.7670    0.0000 C   0  0  0  0  0  0  0  0  0  0  0  0
    4.8357    1.5381    0.0000 O   0  0  0  0  0  0  0  0  0  0  0  0
  1  2  1  0
  2  3  1  0
  3  4  1  0
  4  5  1  0
  5  6  1  0
  6  7  1  0
  7  8  1  0
  8  9  1  0
  9 10  1  0
 10 11  1  0
 10 12  2  0
M  END
>  <identifier>  (1651) 
CNP0310446.0

>  <canonical_smiles>  (1651) 
CCCCCCCCCC(C)=O

>  <standard_inchi>  (1651) 
InChI=1S/C11H22O/c1-3-4-5-6-7-8-9-10-11(2)12/h3-10H2,1-2H3

>  <standard_inchi_key>  (1651) 
KYWIYKKSMDLRDC-UHFFFAOYSA-N

>  <name>  (1651) 
2-Undecanone

>  <iupac_name>  (1651) 
undecan-2-one

>  <annotation_level>  (1651) 
5

>  <total_atom_count>  (1651) 
34

>  <heavy_atom_count>  (1651) 
12

>  <molecular_weight>  (1651) 
170.3

>  <exact_molecular_weight>  (1651) 
170.16707

>  <molecular_formula>  (1651) 
C11H22O

>  <alogp>  (1651) 
3.72

>  <topological_polar_surface_area>  (1651) 
17.07

>  <rotatable_bond_count>  (1651) 
8

>  <hydrogen_bond_acceptors>  (1651) 
1

>  <hydrogen_bond_donors>  (1651) 
0

>  <hydrogen_bond_acceptors_lipinski>  (1651) 
1

>  <hydrogen_bond_donors_lipinski>  (1651) 
0

>  <lipinski_rule_of_five_violations>  (1651) 
0

>  <aromatic_rings_count>  (1651) 
0

>  <qed_drug_likeliness>  (1651) 
0.51

>  <formal_charge>  (1651) 
0

>  <fractioncsp3>  (1651) 
0.91

>  <number_of_minimal_rings>  (1651) 
0

>  <van_der_walls_volume>  (1651) 
198.79

>  <contains_sugar>  (1651) 
False

>  <contains_ring_sugars>  (1651) 
False

>  <contains_linear_sugars>  (1651) 
False

>  <murcko_framework>  (1651) 
nan

>  <np_likeness>  (1651) 
0.60

>  <chemical_class>  (1651) 
Organooxygen compounds

>  <chemical_sub_class>  (1651) 
Carbonyl compounds

>  <chemical_super_class>  (1651) 
Organic oxygen compounds

>  <direct_parent_classification>  (1651) 
Ketones

>  <np_classifier_pathway>  (1651) 
Fatty acids

>  <np_classifier_superclass>  (1651) 
Fatty acyls

>  <np_classifier_class>  (1651) 
Oxygenated hydrocarbons

>  <np_classifier_is_glycoside>  (1651) 
False

>  <organisms>  (1651) 
Aca sellowiana|Acca sellowiana|Adelanthus decipiens|Akebia quinata|Akebia trifoliata|Allium cepa|Alpinia zerumbet|Angelica acutiloba|Angelica gigas|Angelica sinensis|Apium graveolens|Ardisiae japonicae|Artemisia arborescens|Aster tataricus|Azadirachta indica|Boronia ledifolia|Bulbus allii fistulosi|Cannabis sativa|Capsella bursa-pastoris|Capsicum annuum|Cinnamomum camphora|Cistus creticus|Citrus medica|Commiphora rostrata|Craibiodendron yunnanese|Crataegus pinnatifida|Croton eluteria|Croton jimenezii|Curcuma amada|Curcuma kwangsiensis|Curcuma longa|Curcuma phaeocaulis|Curcuma pierreana|Curcuma wenyujin|Curcuma zedoaria|Cymbopogon citratus|Etlingera cevuga|Etlingera elatior|Eucheuma muricatum|Eupatorium capillifolium|Evernia prunastri|Exodermis poria|Feijoa sellowiana|Festuca arundinacea|Festuca rubra|Frullania solanderiana|Ganoderma lucidum|Geum heterocarpum|Hamamelis virginiana|Hedychium spicatum|Hericium erinaceus|Homo sapiens|Houttuynia Cordata|Houttuynia cordata|Houttuynia cordata Thunb.|Houttuynia emeiensis|Humulus lupulus|Kaempferia galanga|Kobus ellipsiprymnus|Lippia alba|Litsea glaucescens|Magnolia liliflora|Magnolia liliiflora|Nicotiana tabacum|Ophrys sphegodes|Origanum vulgare|Passiflora edulis|Pilocarpus grandiflorus|Pilocarpus jaborandi|Pilocarpus pauciflorus|Pilocarpus spicatus|Pinellia ternata|Piper fimbriulatum|Pistacia lentiscus|Polygala senega|Psidium guajava|Ruta angustifolia|Ruta graveolens|Ruta montana|Sauromatum venosum|Schisandra chinensis|Sclerotium poriae cocos|Siparuna thecaphora|Solanum agrimoniifolium|Solanum habrochaites|Spongiporus leucomallellus (Murril)|Syzygium aromaticum|Terminalia chebula|Vaccinium ashei|Vaccinium corymbosum|Vaccinium virgatum|Vitis vinifera|Zanthoxylum armatum|Zanthoxylum brachyacanthum|Zanthoxylum dipetalum|Zanthoxylum hawaiiense|Zanthoxylum kauaense|Zanthoxylum myriacanthum|Zanthoxylum nitidum|Zanthoxylum ovalifolium|Zanthoxylum pinnatum|Zanthoxylum planispinum|Zanthoxylum rhetsa|Zingiber Officinale|Zingiber mioga|Zingiber officinale|Zingiber officinale ROSC.|common sunflower|maize|tomato

>  <collections>  (1651) 
ANPDB|Australian natural products|CMAUP (cCollective molecular activities of useful plants)|ChEBI NPs|DrugBankNP|EMNPD|ETM (Ethiopian Traditional Medicine) DB|FooDB|KNApSaCK|Latin America dataset|Mitishamba database|NANPDB (Natural Products from Northern African Sources)|NAPRORE-CR|NPASS|NPDBEjeCol|NuBBEDB|Phyto4Health|Super Natural II|TCMDB-Taiwan (Traditional Chinese Medicine database)|TCMID (Traditional Chinese Medicine Integrated Database)|TIPdb (database of Taiwan indigenous plants)|UNPD (Universal Natural Products Database)|VietHerb|WikiData Natural Products

>  <dois>  (1651) 
10.1002/(SICI)1099-1026(199907/08)14:4<225::AID-FFJ818>3.0.CO;2-1|10.1002/(SICI)1099-1573(199702)11:1<67::AID-PTR29>3.0.CO;2-I|10.1002/1099-1573(200011)14:7<549::AID-PTR623>3.0.CO;2-T|10.1002/FFJ.2730060307|10.1002/FFJ.2730060406|10.1002/FFJ.2730100310|10.1002/FFJ.2730100408|10.1002/HLCA.19720550603|10.1002/JSSC.201100457|10.1002/PCA.2778|10.1007/BF01020164|10.1007/BF02985250|10.1016/0010-7824(90)90054-Y|10.1016/0031-9422(88)87020-1|10.1016/0031-9422(91)84185-U|10.1016/0305-1978(92)90055-I|10.1016/J.FOODCHEM.2016.04.071|10.1016/J.IJFOODMICRO.2008.10.017|10.1016/J.INTIMP.2012.03.011|10.1016/J.PHYMED.2004.07.004|10.1016/J.PHYTOCHEM.2005.08.001|10.1016/J.PHYTOCHEM.2005.10.025|10.1016/J.PHYTOCHEM.2009.06.013|10.1016/S0031-9422(00)81276-5|10.1016/S0031-9422(00)84581-1|10.1016/S0031-9422(00)94756-3|10.1016/S0031-9422(00)97781-1|10.1016/S0031-9422(02)00542-3|10.1016/S0031-9422(97)00762-0|10.1016/S0031-9422(97)00806-6|10.1016/S0031-9422(99)00486-0|10.1016/S0308-8146(03)00014-1|10.1016/S0926-6690(03)00076-1|10.1016/j.foodchem.2020.127109|10.1021/JF00059A031|10.1021/JF00083A035|10.1021/JF00087A036|10.1021/JF00097A027|10.1021/JF60201A022|10.1021/JF60218A022|10.1021/NP50006A014|10.1021/NP50008A001|10.1021/NP50017A018|10.1021/np50017a018|10.1023/A:1015205716921|10.1023/B:JOEC.0000006466.63606.0D|10.1055/S-0028-1097777|10.1055/S-0028-1097798|10.1055/S-2006-957420|10.1055/S-2006-958063|10.1071/CH9721921|10.1071/ch9721921|10.1080/10412905.1989.9697787|10.1080/10412905.1991.9697956|10.1080/10412905.1993.9698170|10.1080/10412905.1993.9698191|10.1080/10412905.1994.9698398|10.1080/10412905.1995.9698516|10.1080/10412905.1996.9700547|10.1080/10412905.1998.9700844|10.1080/10412905.1998.9700962|10.1080/10412905.2000.9699517|10.1080/10412905.2002.9699883|10.1080/10412905.2010.9700338|10.1088/1752-7155/8/1/014001|10.1096/fj.06-6927com|10.1111/J.1365-2621.1983.TB14849.X|10.1248/CPB.53.1484|10.1248/CPB.54.725|10.1248/CPB.54.936|10.1271/BBB1961.52.2961|10.1271/BBB1961.55.1655|10.17660/ACTAHORTIC.2005.677.9|10.3403/30245698|10.4103/0974-8490.112421|10.4268/CJCMM20101516|10.5935/0103-5053.20160142

>  <synonyms>  (1651) 
112-12-9|2-Hendecanone|2-Methylundecanone,(S)|2-Oxoundecane|2-UNDECANONE [FCC]|2-UNDECANONE [FHFI]|2-UNDECANONE [HSDB]|2-Undecanone|2-Undecanone (natural)|2-Undecanone, 99%|2-Undecanone, >=98%, FCC, FG|2-Undecanone, analytical standard|2-Undecanone, natural, FCC, FG|53452-70-3|A802493|AI3-03081|AKOS005720838|BBL011441|BRN 1749573|BioUD|C01875|CAS-112-12-9|CCG-266363|CHEBI:17700|CHEMBL1236582|CS-W017685|Caswell No. 573O|DB-309480|DB08688|DTXCID301943|DTXSID2021943|EINECS 203-937-5|EN300-170519|EPA Pesticide Chemical Code 044102|Enodyl|F17694|FEMA 3093|FEMA No. 3093|HSDB 7431|HY-W016969|Ketone, methyl nonyl|LMFA12000002|Luparone|METHYL N-NONYL KETONE|METHYL NONYL KETONE [MI]|MFCD00009583|MGK Dog and Cat Repellent|MGK dog AMP MNK|MOSTIQUE EGX 101|Methyl nonyl ketone|Mgk dog & cat repellent|NCGC00164003-01|NCGC00255160-01|NS00008362|NSC4028|Nonyl methyl ketone|Q-201393|Q2024187|Rue ketone|SCHEMBL117635|SCHEMBL249443|STL146552|Tox21_301385|U0006|UNDECANONE|UNDECANONE, 2-|UNII-YV5DSO8CY9|Undecan-2-one|Undecanone-(2)|VS-02950|WLN: 9V1|YV5DSO8CY9|Z406376986|methyl n-nonylketone|s3762

>  <cas>  (1651) 
112-12-9|53452-70-3

$$$$

     RDKit          2D

 26 29  0  0  0  0  0  0  0  0999 V2000
    0.0178   -2.6819    0.0000 O   0  0  0  0  0  0  0  0  0  0  0  0
   -1.1066   -1.6890    0.0000 C   0  0  0  0  0  0  0  0  0  0  0  0
   -0.8090   -0.2188    0.0000 C   0  0  0  0  0  0  0  0  0  0  0  0
   -1.9333    0.7740    0.0000 C   0  0  0  0  0  0  0  0  0  0  0  0
   -3.3554    0.2967    0.0000 C   0  0  0  0  0  0  0  0  0  0  0  0
   -3.6530   -1.1735    0.0000 C   0  0  0  0  0  0  0  0  0  0  0  0
   -5.0750   -1.6508    0.0000 C   0  0  0  0  0  0  0  0  0  0  0  0
   -6.1994   -0.6580    0.0000 C   0  0  0  0  0  0  0  0  0  0  0  0
   -7.6896   -0.8292    0.0000 O   0  0  0  0  0  0  0  0  0  0  0  0
   -8.3130    0.5351    0.0000 C   0  0  0  0  0  0  0  0  0  0  0  0
   -7.2080    1.5496    0.0000 O   0  0  0  0  0  0  0  0  0  0  0  0
   -5.9018    0.8122    0.0000 C   0  0  0  0  0  0  0  0  0  0  0  0
   -4.4798    1.2895    0.0000 C   0  0  0  0  0  0  0  0  0  0  0  0
    0.6131    0.2585    0.0000 C   0  0  0  0  0  0  0  0  0  0  0  0
    0.9107    1.7287    0.0000 C   0  0  0  0  0  0  0  0  0  0  0  0
    2.3327    2.2060    0.0000 O   0  0  0  0  0  0  0  0  0  0  0  0
    1.7375   -0.7344    0.0000 C   0  0  0  0  0  0  0  0  0  0  0  0
    3.1595   -0.2570    0.0000 C   0  0  0  0  0  0  0  0  0  0  0  0
    3.4571    1.2132    0.0000 C   0  0  0  0  0  0  0  0  0  0  0  0
    4.8791    1.6905    0.0000 C   0  0  0  0  0  0  0  0  0  0  0  0
    6.0035    0.6976    0.0000 C   0  0  0  0  0  0  0  0  0  0  0  0
    7.4937    0.8689    0.0000 O   0  0  0  0  0  0  0  0  0  0  0  0
    8.1171   -0.4955    0.0000 C   0  0  0  0  0  0  0  0  0  0  0  0
    7.0122   -1.5099    0.0000 O   0  0  0  0  0  0  0  0  0  0  0  0
    5.7059   -0.7725    0.0000 C   0  0  0  0  0  0  0  0  0  0  0  0
    4.2839   -1.2499    0.0000 C   0  0  0  0  0  0  0  0  0  0  0  0
  1  2  1  0
  3  2  1  6
  3  4  1  0
  4  5  1  0
  5  6  2  0
  6  7  1  0
  7  8  2  0
  8  9  1  0
  9 10  1  0
 10 11  1  0
 11 12  1  0
 12 13  2  0
  3 14  1  0
 14 15  1  6
 15 16  1  0
 14 17  1  0
 17 18  1  0
 18 19  2  0
 19 20  1  0
 20 21  2  0
 21 22  1  0
 22 23  1  0
 23 24  1  0
 24 25  1  0
 25 26  2  0
 13  5  1  0
 26 18  1  0
 12  8  1  0
 25 21  1  0
M  END
>  <identifier>  (1652) 
CNP0282608.2

>  <canonical_smiles>  (1652) 
OC[C@H](CC1=CC=C2OCOC2=C1)[C@H](CO)CC1=CC=C2OCOC2=C1

>  <standard_inchi>  (1652) 
InChI=1S/C20H22O6/c21-9-15(5-13-1-3-17-19(7-13)25-11-23-17)16(10-22)6-14-2-4-18-20(8-14)26-12-24-18/h1-4,7-8,15-16,21-22H,5-6,9-12H2/t15-,16-/m0/s1

>  <standard_inchi_key>  (1652) 
JKCVMTYNARDGET-HOTGVXAUSA-N

>  <name>  (1652) 
Dihydrocubebin

>  <iupac_name>  (1652) 
(2~{R},3~{R})-2,3-bis(1,3-benzodioxol-5-ylmethyl)butane-1,4-diol

>  <annotation_level>  (1652) 
5

>  <total_atom_count>  (1652) 
48

>  <heavy_atom_count>  (1652) 
26

>  <molecular_weight>  (1652) 
358.39

>  <exact_molecular_weight>  (1652) 
358.14164

>  <molecular_formula>  (1652) 
C20H22O6

>  <alogp>  (1652) 
2.15

>  <topological_polar_surface_area>  (1652) 
77.38

>  <rotatable_bond_count>  (1652) 
7

>  <hydrogen_bond_acceptors>  (1652) 
6

>  <hydrogen_bond_donors>  (1652) 
2

>  <hydrogen_bond_acceptors_lipinski>  (1652) 
6

>  <hydrogen_bond_donors_lipinski>  (1652) 
2

>  <lipinski_rule_of_five_violations>  (1652) 
0

>  <aromatic_rings_count>  (1652) 
2

>  <qed_drug_likeliness>  (1652) 
0.79

>  <formal_charge>  (1652) 
0

>  <fractioncsp3>  (1652) 
0.40

>  <number_of_minimal_rings>  (1652) 
4

>  <van_der_walls_volume>  (1652) 
318.40

>  <contains_sugar>  (1652) 
False

>  <contains_ring_sugars>  (1652) 
False

>  <contains_linear_sugars>  (1652) 
False

>  <murcko_framework>  (1652) 
O1c2ccc(cc2OC1)CCCCc3ccc4OCOc4c3

>  <np_likeness>  (1652) 
0.55

>  <chemical_class>  (1652) 
Dibenzylbutane lignans

>  <chemical_sub_class>  (1652) 
Dibenzylbutane lignans

>  <chemical_super_class>  (1652) 
Lignans, neolignans and related compounds

>  <direct_parent_classification>  (1652) 
Dibenzylbutane lignans

>  <np_classifier_pathway>  (1652) 
Shikimates and Phenylpropanoids

>  <np_classifier_superclass>  (1652) 
Lignans

>  <np_classifier_class>  (1652) 
Arylnaphthalene and aryltetralin lignans

>  <np_classifier_is_glycoside>  (1652) 
False

>  <organisms>  (1652) 
Aralia bipinnata|Arctium lappa|Aristolochia constricta|Aristolochia pubescens|Bunodactis xanthogrammica|Cleistanthus collinus|Cnidoscolus texanus|Diospyros montana|Flaveria bidentis|Horsfieldia Irya|Horsfieldia glabra|Horsfieldia irya|Horsfieldia iryaghedhi|Hymenaea oblongifolia|Kryptoperidinium foliaceum|Lespedeza cyrtobotrya|Lychnophora ericoides|Phyllanthus angkorensis|Phyllanthus polyphyllus var.siamensis|Piper Cubeba|Piper cubeba|Piper guineense|Piper obliquum|Piper sanguineispicum|Piper trichostachyon|Piper umbellata|Podadenia thwaitesii|Podolepis rugata|Ptelea crenulata|Sansevieria ehrenbergii|Tarenna Attenuata|Tarenna attenuata|Tetracentron sinense|Teucrium fragile|Trichilia dregeana|Uvaria ferruginea|Veronica anagallis-aquatica|Virola flexuosa|Virola michelii|Virola multinervia|Virola surinamensis|Virola venosa|West African Pepper|aristolochia constricta

>  <collections>  (1652) 
CMAUP (cCollective molecular activities of useful plants)|ChEBI NPs|ChemSpider NPs|KNApSaCK|Latin America dataset|NPASS|NPEdia|NuBBEDB|Phyto4Health|Super Natural II|TCMDB-Taiwan (Traditional Chinese Medicine database)|TIPdb (database of Taiwan indigenous plants)|VietHerb|WikiData Natural Products

>  <dois>  (1652) 
10.1016/0031-9422(83)85040-7|10.1016/0031-9422(88)80219-X|10.1016/0031-9422(88)83067-X|10.1016/0031-9422(89)80372-3|10.1016/0031-9422(91)83055-P|10.1016/0031-9422(95)00072-F|10.1016/0031-9422(95)00464-I|10.1016/S0031-9422(00)00388-5|10.1016/S0031-9422(00)82577-7|10.1016/S0031-9422(00)83546-3|10.1016/S0031-9422(00)95299-3|10.1016/S0031-9422(02)00381-3|10.1016/S0031-9422(03)00335-2|10.1016/S0031-9422(97)00199-4|10.1016/S0040-4020(01)98893-3|10.1016/S0305-1978(02)00044-3|10.1021/NP0401765|10.1021/NP050001A|10.1021/NP0603931|10.1021/NP1005357|10.1021/NP800041T|10.1021/np0401765|10.1021/np1005357|10.1021/np800041t|10.1590/S0100-40422009000500005

>  <synonyms>  (1652) 
(-)-Dihydrocubebin|(2R,3R)-2,3-bis(1,3-benzodioxol-5-ylmethyl)butane-1,4-diol|(2R,3R)-2,3-bis(Benzo[d][1,3]dioxol-5-ylmethyl)butane-1,4-diol|1,4-Butanediol, 2,3-bis(1,3-benzodioxol-5-ylmethyl)-, (2R,3R)-|1,4-Butanediol, 2,3-bis(1,3-benzodioxol-5-ylmethyl)-, [R-(R*,R*)]-|1,4-Butanediol, 2,3-dipiperonyl-, (-)-|24563-03-9|BDBM50241937|CHEBI:543841|CHEMBL486597|Cubebin, dihydro-|DTXSID00179301|Dihydrocubebin|JKCVMTYNARDGET-HOTGVXAUSA-N|Q27105171|SCHEMBL15775181

>  <cas>  (1652) 
24563-03-9

$$$$

     RDKit          2D

 32 33  0  0  0  0  0  0  0  0999 V2000
   16.8801    1.4234    0.0000 O   0  0  0  0  0  0  0  0  0  0  0  0
   16.8170   -0.0752    0.0000 C   0  0  0  0  0  0  0  0  0  0  0  0
   18.0833   -0.8792    0.0000 O   0  0  0  0  0  0  0  0  0  0  0  0
   15.4875   -0.7699    0.0000 C   0  0  0  0  0  0  0  0  0  0  0  0
   14.2212    0.0342    0.0000 C   0  0  0  0  0  0  0  0  0  0  0  0
   12.8917   -0.6605    0.0000 C   0  0  0  0  0  0  0  0  0  0  0  0
   11.6254    0.1435    0.0000 C   0  0  0  0  0  0  0  0  0  0  0  0
   10.2960   -0.5511    0.0000 C   0  0  0  0  0  0  0  0  0  0  0  0
    9.0296    0.2529    0.0000 C   0  0  0  0  0  0  0  0  0  0  0  0
    7.7002   -0.4417    0.0000 C   0  0  0  0  0  0  0  0  0  0  0  0
    6.4339    0.3623    0.0000 C   0  0  0  0  0  0  0  0  0  0  0  0
    5.1044   -0.3324    0.0000 C   0  0  0  0  0  0  0  0  0  0  0  0
    3.8381    0.4717    0.0000 C   0  0  0  0  0  0  0  0  0  0  0  0
    2.5086   -0.2230    0.0000 C   0  0  0  0  0  0  0  0  0  0  0  0
    1.2423    0.5810    0.0000 C   0  0  0  0  0  0  0  0  0  0  0  0
   -0.0871   -0.1136    0.0000 C   0  0  0  0  0  0  0  0  0  0  0  0
   -1.3534    0.6904    0.0000 C   0  0  0  0  0  0  0  0  0  0  0  0
   -2.6829   -0.0042    0.0000 C   0  0  0  0  0  0  0  0  0  0  0  0
   -3.9492    0.7998    0.0000 C   0  0  0  0  0  0  0  0  0  0  0  0
   -5.2787    0.1051    0.0000 C   0  0  0  0  0  0  0  0  0  0  0  0
   -6.5450    0.9092    0.0000 C   0  0  0  0  0  0  0  0  0  0  0  0
   -7.8745    0.2145    0.0000 C   0  0  0  0  0  0  0  0  0  0  0  0
   -9.1408    1.0185    0.0000 C   0  0  0  0  0  0  0  0  0  0  0  0
  -10.4702    0.3239    0.0000 C   0  0  0  0  0  0  0  0  0  0  0  0
  -10.5334   -1.1748    0.0000 C   0  0  0  0  0  0  0  0  0  0  0  0
  -11.8628   -1.8694    0.0000 C   0  0  0  0  0  0  0  0  0  0  0  0
  -13.1291   -1.0654    0.0000 C   0  0  0  0  0  0  0  0  0  0  0  0
  -14.5740   -1.4685    0.0000 O   0  0  0  0  0  0  0  0  0  0  0  0
  -15.4038   -0.2189    0.0000 C   0  0  0  0  0  0  0  0  0  0  0  0
  -14.4718    0.9564    0.0000 O   0  0  0  0  0  0  0  0  0  0  0  0
  -13.0660    0.4333    0.0000 C   0  0  0  0  0  0  0  0  0  0  0  0
  -11.7365    1.1279    0.0000 C   0  0  0  0  0  0  0  0  0  0  0  0
  1  2  2  0
  2  3  1  0
  2  4  1  0
  4  5  1  0
  5  6  1  0
  6  7  1  0
  7  8  1  0
  8  9  1  0
  9 10  1  0
 10 11  1  0
 11 12  1  0
 12 13  1  0
 13 14  1  0
 14 15  1  0
 15 16  1  0
 16 17  1  0
 17 18  1  0
 18 19  1  0
 19 20  1  0
 20 21  1  0
 21 22  1  0
 22 23  1  0
 23 24  1  0
 24 25  2  0
 25 26  1  0
 26 27  2  0
 27 28  1  0
 28 29  1  0
 29 30  1  0
 30 31  1  0
 31 32  2  0
 32 24  1  0
 31 27  1  0
M  END
>  <identifier>  (1653) 
CNP0080338.0

>  <canonical_smiles>  (1653) 
O=C(O)CCCCCCCCCCCCCCCCCCCCC1=CC=C2OCOC2=C1

>  <standard_inchi>  (1653) 
InChI=1S/C28H46O4/c29-28(30)20-18-16-14-12-10-8-6-4-2-1-3-5-7-9-11-13-15-17-19-25-21-22-26-27(23-25)32-24-31-26/h21-23H,1-20,24H2,(H,29,30)

>  <standard_inchi_key>  (1653) 
KLBSBBUHUGIULX-UHFFFAOYSA-N

>  <name>  (1653) 
nan

>  <iupac_name>  (1653) 
21-(1,3-benzodioxol-5-yl)henicosanoic acid

>  <annotation_level>  (1653) 
5

>  <total_atom_count>  (1653) 
78

>  <heavy_atom_count>  (1653) 
32

>  <molecular_weight>  (1653) 
446.67

>  <exact_molecular_weight>  (1653) 
446.33961

>  <molecular_formula>  (1653) 
C28H46O4

>  <alogp>  (1653) 
8.45

>  <topological_polar_surface_area>  (1653) 
55.76

>  <rotatable_bond_count>  (1653) 
21

>  <hydrogen_bond_acceptors>  (1653) 
3

>  <hydrogen_bond_donors>  (1653) 
1

>  <hydrogen_bond_acceptors_lipinski>  (1653) 
3

>  <hydrogen_bond_donors_lipinski>  (1653) 
1

>  <lipinski_rule_of_five_violations>  (1653) 
1

>  <aromatic_rings_count>  (1653) 
1

>  <qed_drug_likeliness>  (1653) 
0.19

>  <formal_charge>  (1653) 
0

>  <fractioncsp3>  (1653) 
0.75

>  <number_of_minimal_rings>  (1653) 
2

>  <van_der_walls_volume>  (1653) 
467.75

>  <contains_sugar>  (1653) 
False

>  <contains_ring_sugars>  (1653) 
False

>  <contains_linear_sugars>  (1653) 
False

>  <murcko_framework>  (1653) 
O1c2ccccc2OC1

>  <np_likeness>  (1653) 
0.26

>  <chemical_class>  (1653) 
Fatty Acyls

>  <chemical_sub_class>  (1653) 
Fatty acids and conjugates

>  <chemical_super_class>  (1653) 
Lipids and lipid-like molecules

>  <direct_parent_classification>  (1653) 
Long-chain fatty acids

>  <np_classifier_pathway>  (1653) 
Fatty acids

>  <np_classifier_superclass>  (1653) 
Fatty Acids and Conjugates

>  <np_classifier_class>  (1653) 
Carbocyclic fatty acids

>  <np_classifier_is_glycoside>  (1653) 
False

>  <organisms>  (1653) 
Iryanthera juruensis

>  <collections>  (1653) 
ChemSpider NPs|Latin America dataset|NuBBEDB|Super Natural II|WikiData Natural Products|ZINC NP

>  <dois>  (1653) 
10.1021/JF063451X|10.1021/jf063451x

>  <synonyms>  (1653) 
21'-(34-Methylenedioxyphenyl)-henicosanoic acid

>  <cas>  (1653) 
nan

$$$$

     RDKit          2D

 15 15  0  0  0  0  0  0  0  0999 V2000
   -4.7495   -1.9371    0.0000 C   0  0  0  0  0  0  0  0  0  0  0  0
   -3.2513   -2.0098    0.0000 C   0  0  0  0  0  0  0  0  0  0  0  0
   -2.4392   -0.7487    0.0000 C   0  0  0  0  0  0  0  0  0  0  0  0
   -3.1253    0.5852    0.0000 C   0  0  0  0  0  0  0  0  0  0  0  0
   -2.3132    1.8464    0.0000 C   0  0  0  0  0  0  0  0  0  0  0  0
   -0.8150    1.7736    0.0000 C   0  0  0  0  0  0  0  0  0  0  0  0
   -0.0029    3.0348    0.0000 O   0  0  0  0  0  0  0  0  0  0  0  0
   -0.1288    0.4398    0.0000 C   0  0  0  0  0  0  0  0  0  0  0  0
    1.3694    0.3671    0.0000 C   0  0  0  0  0  0  0  0  0  0  0  0
    2.1815    1.6282    0.0000 O   0  0  0  0  0  0  0  0  0  0  0  0
    2.0555   -0.9668    0.0000 C   0  0  0  0  0  0  0  0  0  0  0  0
    3.5538   -1.0395    0.0000 C   0  0  0  0  0  0  0  0  0  0  0  0
    4.2399   -2.3734    0.0000 C   0  0  0  0  0  0  0  0  0  0  0  0
    4.3659    0.2216    0.0000 C   0  0  0  0  0  0  0  0  0  0  0  0
   -0.9409   -0.8214    0.0000 C   0  0  0  0  0  0  0  0  0  0  0  0
  1  2  2  0
  2  3  1  0
  3  4  2  0
  4  5  1  0
  5  6  2  0
  6  7  1  0
  6  8  1  0
  8  9  1  0
  9 10  2  0
  9 11  1  0
 11 12  2  0
 12 13  1  0
 12 14  1  0
  8 15  2  0
 15  3  1  0
M  END
>  <identifier>  (1654) 
CNP0270992.0

>  <canonical_smiles>  (1654) 
C=CC1=CC=C(O)C(C(=O)C=C(C)C)=C1

>  <standard_inchi>  (1654) 
InChI=1S/C13H14O2/c1-4-10-5-6-12(14)11(8-10)13(15)7-9(2)3/h4-8,14H,1H2,2-3H3

>  <standard_inchi_key>  (1654) 
UJIZCWIVJDTVIG-UHFFFAOYSA-N

>  <name>  (1654) 
2-senecioyl-4-vinylphenol

>  <iupac_name>  (1654) 
1-(2-hydroxy-5-vinyl-phenyl)-3-methyl-but-2-en-1-one

>  <annotation_level>  (1654) 
5

>  <total_atom_count>  (1654) 
29

>  <heavy_atom_count>  (1654) 
15

>  <molecular_weight>  (1654) 
202.25

>  <exact_molecular_weight>  (1654) 
202.09938

>  <molecular_formula>  (1654) 
C13H14O2

>  <alogp>  (1654) 
3.18

>  <topological_polar_surface_area>  (1654) 
37.30

>  <rotatable_bond_count>  (1654) 
3

>  <hydrogen_bond_acceptors>  (1654) 
2

>  <hydrogen_bond_donors>  (1654) 
1

>  <hydrogen_bond_acceptors_lipinski>  (1654) 
2

>  <hydrogen_bond_donors_lipinski>  (1654) 
1

>  <lipinski_rule_of_five_violations>  (1654) 
0

>  <aromatic_rings_count>  (1654) 
1

>  <qed_drug_likeliness>  (1654) 
0.60

>  <formal_charge>  (1654) 
0

>  <fractioncsp3>  (1654) 
0.15

>  <number_of_minimal_rings>  (1654) 
1

>  <van_der_walls_volume>  (1654) 
197.10

>  <contains_sugar>  (1654) 
False

>  <contains_ring_sugars>  (1654) 
False

>  <contains_linear_sugars>  (1654) 
False

>  <murcko_framework>  (1654) 
c1ccccc1

>  <np_likeness>  (1654) 
1.16

>  <chemical_class>  (1654) 
Benzene and substituted derivatives

>  <chemical_sub_class>  (1654) 
Benzoyl derivatives

>  <chemical_super_class>  (1654) 
Benzenoids

>  <direct_parent_classification>  (1654) 
Benzoyl derivatives

>  <np_classifier_pathway>  (1654) 
Shikimates and Phenylpropanoids

>  <np_classifier_superclass>  (1654) 
Flavonoids

>  <np_classifier_class>  (1654) 
Chalcones

>  <np_classifier_is_glycoside>  (1654) 
False

>  <organisms>  (1654) 
Calea cuneifolia|Platypodanthera melissifolia|Trichogonia santosii|Trichogonia villosa

>  <collections>  (1654) 
KNApSaCK|Latin America dataset|NuBBEDB|Super Natural II|UNPD (Universal Natural Products Database)|WikiData Natural Products|ZINC NP

>  <dois>  (1654) 
10.1002/CHIN.198414320|10.1002/JLAC.198419840117|10.1016/0031-9422(81)80032-5|10.1016/0031-9422(81)85172-2|10.1016/0031-9422(88)80060-8

>  <synonyms>  (1654) 
1-(5-Ethenyl-2-hydroxyphenyl)-3-methylbut-2-en-1-one|2-Senecioyl-4-vinylphenol|78916-38-8|DTXSID80555942|UJIZCWIVJDTVIG-UHFFFAOYSA-N

>  <cas>  (1654) 
nan

$$$$

     RDKit          2D

 16 16  0  0  0  0  0  0  0  0999 V2000
   -6.0409   -0.0935    0.0000 C   0  0  0  0  0  0  0  0  0  0  0  0
   -4.6287    0.4122    0.0000 C   0  0  0  0  0  0  0  0  0  0  0  0
   -4.3605    1.8881    0.0000 C   0  0  0  0  0  0  0  0  0  0  0  0
   -3.4847   -0.5579    0.0000 C   0  0  0  0  0  0  0  0  0  0  0  0
   -2.0725   -0.0522    0.0000 O   0  0  0  0  0  0  0  0  0  0  0  0
   -0.9284   -1.0224    0.0000 C   0  0  0  0  0  0  0  0  0  0  0  0
   -1.1966   -2.4982    0.0000 O   0  0  0  0  0  0  0  0  0  0  0  0
    0.4838   -0.5167    0.0000 C   0  0  0  0  0  0  0  0  0  0  0  0
    0.7519    0.9592    0.0000 C   0  0  0  0  0  0  0  0  0  0  0  0
    2.1641    1.4649    0.0000 C   0  0  0  0  0  0  0  0  0  0  0  0
    2.4322    2.9407    0.0000 O   0  0  0  0  0  0  0  0  0  0  0  0
    3.3081    0.4947    0.0000 C   0  0  0  0  0  0  0  0  0  0  0  0
    4.7203    1.0004    0.0000 O   0  0  0  0  0  0  0  0  0  0  0  0
    3.0400   -0.9811    0.0000 C   0  0  0  0  0  0  0  0  0  0  0  0
    4.1840   -1.9513    0.0000 O   0  0  0  0  0  0  0  0  0  0  0  0
    1.6278   -1.4868    0.0000 C   0  0  0  0  0  0  0  0  0  0  0  0
  1  2  1  0
  2  3  1  0
  2  4  1  0
  4  5  1  0
  5  6  1  0
  6  7  2  0
  6  8  1  0
  8  9  2  0
  9 10  1  0
 10 11  1  0
 10 12  2  0
 12 13  1  0
 12 14  1  0
 14 15  1  0
 14 16  2  0
 16  8  1  0
M  END
>  <identifier>  (1655) 
CNP0400586.0

>  <canonical_smiles>  (1655) 
CC(C)COC(=O)C1=CC(O)=C(O)C(O)=C1

>  <standard_inchi>  (1655) 
InChI=1S/C11H14O5/c1-6(2)5-16-11(15)7-3-8(12)10(14)9(13)4-7/h3-4,6,12-14H,5H2,1-2H3

>  <standard_inchi_key>  (1655) 
UCLHVCFKZSLALE-UHFFFAOYSA-N

>  <name>  (1655) 
Isobutyl gallate

>  <iupac_name>  (1655) 
isobutyl 3,4,5-trihydroxybenzoate

>  <annotation_level>  (1655) 
5

>  <total_atom_count>  (1655) 
30

>  <heavy_atom_count>  (1655) 
16

>  <molecular_weight>  (1655) 
226.23

>  <exact_molecular_weight>  (1655) 
226.08412

>  <molecular_formula>  (1655) 
C11H14O5

>  <alogp>  (1655) 
1.62

>  <topological_polar_surface_area>  (1655) 
86.99

>  <rotatable_bond_count>  (1655) 
3

>  <hydrogen_bond_acceptors>  (1655) 
5

>  <hydrogen_bond_donors>  (1655) 
3

>  <hydrogen_bond_acceptors_lipinski>  (1655) 
5

>  <hydrogen_bond_donors_lipinski>  (1655) 
3

>  <lipinski_rule_of_five_violations>  (1655) 
0

>  <aromatic_rings_count>  (1655) 
1

>  <qed_drug_likeliness>  (1655) 
0.54

>  <formal_charge>  (1655) 
0

>  <fractioncsp3>  (1655) 
0.36

>  <number_of_minimal_rings>  (1655) 
1

>  <van_der_walls_volume>  (1655) 
204.22

>  <contains_sugar>  (1655) 
False

>  <contains_ring_sugars>  (1655) 
False

>  <contains_linear_sugars>  (1655) 
False

>  <murcko_framework>  (1655) 
c1ccccc1

>  <np_likeness>  (1655) 
0.48

>  <chemical_class>  (1655) 
Benzene and substituted derivatives

>  <chemical_sub_class>  (1655) 
Benzoic acids and derivatives

>  <chemical_super_class>  (1655) 
Benzenoids

>  <direct_parent_classification>  (1655) 
p-Hydroxybenzoic acid alkyl esters

>  <np_classifier_pathway>  (1655) 
Shikimates and Phenylpropanoids

>  <np_classifier_superclass>  (1655) 
Phenolic acids (C6-C1)

>  <np_classifier_class>  (1655) 
Shikimic acids and derivatives

>  <np_classifier_is_glycoside>  (1655) 
False

>  <organisms>  (1655) 
Alchornea glandulosa

>  <collections>  (1655) 
ChemSpider NPs|Latin America dataset|NuBBEDB|Super Natural II|WikiData Natural Products|ZINC NP

>  <dois>  (1655) 
10.1080/14786410903335232

>  <synonyms>  (1655) 
2-methylpropyl 3,4,5-trihydroxybenzoate|3856-05-1|AKOS025293912|BS-49246|Benzoic acid, 3,4,5-trihydroxy-, 2-methylpropyl ester|CS-0154215|D81714|DTXSID00191886|EINECS 223-363-9|G0205|GALLIC ACID, ISOBUTYL ESTER|Gallic Acid Isobutyl Ester|Gallic acid iso-butyl ester|Isobutyl 3,4,5-trihydroxybenzoate|Isobutyl gallate|MFCD00016425|NS00044973|NSC-147482|SCHEMBL39620|SR016RR89P|UNII-SR016RR89P

>  <cas>  (1655) 
3856-05-1

$$$$

     RDKit          2D

 41 46  0  0  0  0  0  0  0  0999 V2000
   -8.5678   -2.7487    0.0000 C   0  0  0  0  0  0  0  0  0  0  0  0
   -7.2502   -2.0318    0.0000 C   0  0  0  0  0  0  0  0  0  0  0  0
   -5.9706   -2.8145    0.0000 C   0  0  0  0  0  0  0  0  0  0  0  0
   -6.0086   -4.3140    0.0000 C   0  0  0  0  0  0  0  0  0  0  0  0
   -4.6529   -2.0977    0.0000 C   0  0  0  0  0  0  0  0  0  0  0  0
   -3.3733   -2.8803    0.0000 O   0  0  0  0  0  0  0  0  0  0  0  0
   -4.6150   -0.5981    0.0000 O   0  0  0  0  0  0  0  0  0  0  0  0
   -3.2973    0.1187    0.0000 C   0  0  0  0  0  0  0  0  0  0  0  0
   -2.0177   -0.6639    0.0000 C   0  0  0  0  0  0  0  0  0  0  0  0
   -1.9797    0.8356    0.0000 C   0  0  0  0  0  0  0  0  0  0  0  0
   -2.7402    1.0746    0.0000 O   0  0  0  0  0  0  0  0  0  0  0  0
   -0.6621    1.5524    0.0000 C   0  0  0  0  0  0  0  0  0  0  0  0
   -0.6241    3.0519    0.0000 C   0  0  0  0  0  0  0  0  0  0  0  0
    0.6175    0.7698    0.0000 C   0  0  0  0  0  0  0  0  0  0  0  0
    1.9352    1.4866    0.0000 C   0  0  0  0  0  0  0  0  0  0  0  0
    3.2148    0.7039    0.0000 C   0  0  0  0  0  0  0  0  0  0  0  0
    3.1768   -0.7956    0.0000 C   0  0  0  0  0  0  0  0  0  0  0  0
    4.4944   -0.0787    0.0000 C   0  0  0  0  0  0  0  0  0  0  0  0
    1.8592   -1.5124    0.0000 C   0  0  0  0  0  0  0  0  0  0  0  0
    1.8212   -3.0119    0.0000 C   0  0  0  0  0  0  0  0  0  0  0  0
    3.1008   -3.7946    0.0000 C   0  0  0  0  0  0  0  0  0  0  0  0
    3.0628   -5.2941    0.0000 O   0  0  0  0  0  0  0  0  0  0  0  0
    4.4184   -3.0778    0.0000 O   0  0  0  0  0  0  0  0  0  0  0  0
    4.4564   -1.5782    0.0000 C   0  0  0  0  0  0  0  0  0  0  0  0
    5.7740   -0.8614    0.0000 C   0  0  0  0  0  0  0  0  0  0  0  0
    5.9686    0.6259    0.0000 C   0  0  0  0  0  0  0  0  0  0  0  0
    7.4432    0.9005    0.0000 O   0  0  0  0  0  0  0  0  0  0  0  0
    8.1601   -0.4171    0.0000 C   0  0  0  0  0  0  0  0  0  0  0  0
    7.1284   -1.5060    0.0000 C   0  0  0  0  0  0  0  0  0  0  0  0
    0.5795   -0.7298    0.0000 C   0  0  0  0  0  0  0  0  0  0  0  0
    0.5415   -2.2293    0.0000 O   0  0  0  0  0  0  0  0  0  0  0  0
   -0.7381   -1.4466    0.0000 C   0  0  0  0  0  0  0  0  0  0  0  0
   -1.9417    2.3351    0.0000 C   0  0  0  0  0  0  0  0  0  0  0  0
   -1.9037    3.8346    0.0000 C   0  0  0  0  0  0  0  0  0  0  0  0
   -0.5861    4.5515    0.0000 C   0  0  0  0  0  0  0  0  0  0  0  0
    0.6935    3.7688    0.0000 O   0  0  0  0  0  0  0  0  0  0  0  0
   -0.5481    6.0510    0.0000 O   0  0  0  0  0  0  0  0  0  0  0  0
    0.7695    6.7678    0.0000 C   0  0  0  0  0  0  0  0  0  0  0  0
   -3.2593    1.6182    0.0000 C   0  0  0  0  0  0  0  0  0  0  0  0
   -3.7365    3.0403    0.0000 C   0  0  0  0  0  0  0  0  0  0  0  0
   -4.7427    1.3953    0.0000 C   0  0  0  0  0  0  0  0  0  0  0  0
  1  2  1  0
  2  3  1  0
  3  4  1  0
  3  5  1  0
  5  6  2  0
  5  7  1  0
  8  7  1  1
  8  9  1  0
  9 10  1  1
 10 11  2  0
 10 12  1  0
 12 13  1  6
 12 14  1  0
 14 15  1  1
 15 16  1  0
 16 17  1  0
 17 18  1  6
 17 19  1  0
 19 20  1  1
 20 21  1  0
 21 22  2  0
 21 23  1  0
 23 24  1  0
 24 25  1  6
 25 26  2  0
 26 27  1  0
 27 28  1  0
 28 29  2  0
 19 30  1  0
 30 31  1  6
 32 31  1  6
 12 33  1  0
 33 34  1  6
 34 35  1  0
 35 36  2  0
 35 37  1  0
 37 38  1  0
 33 39  1  0
 39 40  1  0
 39 41  1  0
 39  8  1  0
 32  9  1  0
 30 14  1  0
 24 17  1  0
 29 25  1  0
 32 30  1  0
M  END
>  <identifier>  (1656) 
CNP0190287.1

>  <canonical_smiles>  (1656) 
CCC(C)C(=O)O[C@@H]1[C@@H]2C(=O)[C@](C)([C@H]3CC[C@]4(C)[C@@H](CC(=O)O[C@H]4C4=COC=C4)[C@]34O[C@H]24)[C@@H](CC(=O)OC)C1(C)C

>  <standard_inchi>  (1656) 
InChI=1S/C32H42O9/c1-8-16(2)28(36)40-26-23-24(35)31(6,19(29(26,3)4)13-21(33)37-7)18-9-11-30(5)20(32(18)27(23)41-32)14-22(34)39-25(30)17-10-12-38-15-17/h10,12,15-16,18-20,23,25-27H,8-9,11,13-14H2,1-7H3/t16?,18-,19+,20-,23+,25+,26-,27-,30-,31-,32-/m1/s1

>  <standard_inchi_key>  (1656) 
JFCFHKVHDISZHG-PQHIARGRSA-N

>  <name>  (1656) 
nan

>  <iupac_name>  (1656) 
[(1~{S},2~{R},4~{S},5~{R},9~{R},10~{R},13~{R},14~{S},15~{S},17~{R})-9-(3-furyl)-15-(2-methoxy-2-oxo-ethyl)-10,14,16,16-tetramethyl-7,18-dioxo-3,8-dioxapentacyclo[12.3.1.0^{2,4}.0^{4,13}.0^{5,10}]octadecan-17-yl] 2-methylbutanoate

>  <annotation_level>  (1656) 
4

>  <total_atom_count>  (1656) 
83

>  <heavy_atom_count>  (1656) 
41

>  <molecular_weight>  (1656) 
570.68

>  <exact_molecular_weight>  (1656) 
570.28288

>  <molecular_formula>  (1656) 
C32H42O9

>  <alogp>  (1656) 
4.82

>  <topological_polar_surface_area>  (1656) 
121.64

>  <rotatable_bond_count>  (1656) 
6

>  <hydrogen_bond_acceptors>  (1656) 
9

>  <hydrogen_bond_donors>  (1656) 
0

>  <hydrogen_bond_acceptors_lipinski>  (1656) 
9

>  <hydrogen_bond_donors_lipinski>  (1656) 
0

>  <lipinski_rule_of_five_violations>  (1656) 
1

>  <aromatic_rings_count>  (1656) 
1

>  <qed_drug_likeliness>  (1656) 
0.27

>  <formal_charge>  (1656) 
0

>  <fractioncsp3>  (1656) 
0.75

>  <number_of_minimal_rings>  (1656) 
6

>  <van_der_walls_volume>  (1656) 
nan

>  <contains_sugar>  (1656) 
False

>  <contains_ring_sugars>  (1656) 
False

>  <contains_linear_sugars>  (1656) 
False

>  <murcko_framework>  (1656) 
o1ccc(c1)C2OCCC3C2CCC4C5CCCC(C5)C6OC643

>  <np_likeness>  (1656) 
2.87

>  <chemical_class>  (1656) 
Prenol lipids

>  <chemical_sub_class>  (1656) 
Triterpenoids

>  <chemical_super_class>  (1656) 
Lipids and lipid-like molecules

>  <direct_parent_classification>  (1656) 
Limonoids

>  <np_classifier_pathway>  (1656) 
Terpenoids

>  <np_classifier_superclass>  (1656) 
Triterpenoids

>  <np_classifier_class>  (1656) 
Limonoids

>  <np_classifier_is_glycoside>  (1656) 
False

>  <organisms>  (1656) 
Cipadessa baccifera|Cipadessa fruticosa

>  <collections>  (1656) 
Latin America dataset|NuBBEDB|WikiData Natural Products

>  <dois>  (1656) 
10.1515/znc-2009-5-623|10.1590/S0102-695X2010000100002

>  <synonyms>  (1656) 
cipadesin A

>  <cas>  (1656) 
nan

$$$$

     RDKit          2D

 36 40  0  0  0  0  0  0  0  0999 V2000
   -1.4378   -5.2186    0.0000 C   0  0  0  0  0  0  0  0  0  0  0  0
   -0.6336   -3.9524    0.0000 C   0  0  0  0  0  0  0  0  0  0  0  0
    0.8650   -4.0157    0.0000 O   0  0  0  0  0  0  0  0  0  0  0  0
   -1.3281   -2.6229    0.0000 O   0  0  0  0  0  0  0  0  0  0  0  0
   -0.5240   -1.3566    0.0000 C   0  0  0  0  0  0  0  0  0  0  0  0
    0.9747   -1.4200    0.0000 C   0  0  0  0  0  0  0  0  0  0  0  0
    1.7789   -0.1537    0.0000 C   0  0  0  0  0  0  0  0  0  0  0  0
    2.8862   -1.1656    0.0000 C   0  0  0  0  0  0  0  0  0  0  0  0
    2.9676    0.7611    0.0000 C   0  0  0  0  0  0  0  0  0  0  0  0
    2.7697    2.2480    0.0000 O   0  0  0  0  0  0  0  0  0  0  0  0
    4.3542    0.1890    0.0000 C   0  0  0  0  0  0  0  0  0  0  0  0
    5.6321    0.9746    0.0000 C   0  0  0  0  0  0  0  0  0  0  0  0
    6.7741    0.0020    0.0000 O   0  0  0  0  0  0  0  0  0  0  0  0
    6.2020   -1.3846    0.0000 C   0  0  0  0  0  0  0  0  0  0  0  0
    6.9875   -2.6625    0.0000 O   0  0  0  0  0  0  0  0  0  0  0  0
    4.7064   -1.2691    0.0000 C   0  0  0  0  0  0  0  0  0  0  0  0
    1.0844    1.1758    0.0000 C   0  0  0  0  0  0  0  0  0  0  0  0
    1.8885    2.4420    0.0000 C   0  0  0  0  0  0  0  0  0  0  0  0
    1.1940    3.7716    0.0000 C   0  0  0  0  0  0  0  0  0  0  0  0
    1.9982    5.0378    0.0000 O   0  0  0  0  0  0  0  0  0  0  0  0
   -0.3046    3.8349    0.0000 O   0  0  0  0  0  0  0  0  0  0  0  0
   -1.1088    2.5687    0.0000 C   0  0  0  0  0  0  0  0  0  0  0  0
   -2.6075    2.6320    0.0000 C   0  0  0  0  0  0  0  0  0  0  0  0
   -3.4116    1.3658    0.0000 C   0  0  0  0  0  0  0  0  0  0  0  0
   -4.9103    1.4291    0.0000 C   0  0  0  0  0  0  0  0  0  0  0  0
   -5.6048    2.7586    0.0000 C   0  0  0  0  0  0  0  0  0  0  0  0
   -5.7145    0.1628    0.0000 C   0  0  0  0  0  0  0  0  0  0  0  0
   -5.0200   -1.1667    0.0000 C   0  0  0  0  0  0  0  0  0  0  0  0
   -5.8241   -2.4329    0.0000 O   0  0  0  0  0  0  0  0  0  0  0  0
   -3.5213   -1.2300    0.0000 C   0  0  0  0  0  0  0  0  0  0  0  0
   -2.8268   -2.5595    0.0000 O   0  0  0  0  0  0  0  0  0  0  0  0
   -2.7171    0.0362    0.0000 C   0  0  0  0  0  0  0  0  0  0  0  0
   -2.0226   -1.2933    0.0000 C   0  0  0  0  0  0  0  0  0  0  0  0
   -1.2185   -0.0271    0.0000 C   0  0  0  0  0  0  0  0  0  0  0  0
   -0.4143    1.2391    0.0000 C   0  0  0  0  0  0  0  0  0  0  0  0
   -1.9130    1.3024    0.0000 C   0  0  0  0  0  0  0  0  0  0  0  0
  1  2  1  0
  2  3  2  0
  2  4  1  0
  5  4  1  1
  5  6  1  0
  6  7  1  0
  7  8  1  1
  7  9  1  0
  9 10  2  0
 11  9  1  1
 11 12  1  0
 12 13  1  0
 13 14  1  0
 14 15  2  0
 14 16  1  0
  7 17  1  0
 17 18  1  1
 18 19  1  0
 19 20  2  0
 19 21  1  0
 21 22  1  0
 22 23  1  1
 24 23  1  6
 24 25  1  0
 25 26  1  1
 25 27  1  0
 27 28  1  0
 28 29  1  1
 28 30  1  0
 30 31  2  0
 30 32  1  0
 32 33  1  6
 32 34  1  0
 34 35  1  0
 35 36  1  6
 34  5  1  6
 16 11  1  0
 35 17  1  0
 35 22  1  0
 32 24  1  0
M  END
>  <identifier>  (1657) 
CNP0209099.3

>  <canonical_smiles>  (1657) 
CC(=O)O[C@@H]1C[C@@](C)(C(=O)[C@H]2COC(=O)C2)[C@@H]2CC(=O)O[C@@H]3C[C@H]4[C@H](C)C[C@H](O)C(=O)[C@]4(C)[C@@H]1[C@]23C

>  <standard_inchi>  (1657) 
InChI=1S/C27H36O9/c1-12-6-16(29)24(33)26(4)15(12)8-19-27(5)18(9-21(31)36-19)25(3,10-17(22(26)27)35-13(2)28)23(32)14-7-20(30)34-11-14/h12,14-19,22,29H,6-11H2,1-5H3/t12-,14-,15+,16+,17-,18+,19-,22-,25-,26+,27-/m1/s1

>  <standard_inchi_key>  (1657) 
XNXXVFZJNZBURI-WCMQAIAJSA-N

>  <name>  (1657) 
SIMAROLIDE

>  <iupac_name>  (1657) 
[(1~{S},2~{S},4~{S},6~{R},7~{S},9~{R},13~{R},14~{R},16~{R},17~{S})-4-hydroxy-2,6,14,17-tetramethyl-3,11-dioxo-14-[(3~{R})-5-oxotetrahydrofuran-3-carbonyl]-10-oxatetracyclo[7.7.1.0^{2,7}.0^{13,17}]heptadecan-16-yl] acetate

>  <annotation_level>  (1657) 
5

>  <total_atom_count>  (1657) 
72

>  <heavy_atom_count>  (1657) 
36

>  <molecular_weight>  (1657) 
504.58

>  <exact_molecular_weight>  (1657) 
504.23593

>  <molecular_formula>  (1657) 
C27H36O9

>  <alogp>  (1657) 
2.01

>  <topological_polar_surface_area>  (1657) 
133.27

>  <rotatable_bond_count>  (1657) 
3

>  <hydrogen_bond_acceptors>  (1657) 
9

>  <hydrogen_bond_donors>  (1657) 
1

>  <hydrogen_bond_acceptors_lipinski>  (1657) 
9

>  <hydrogen_bond_donors_lipinski>  (1657) 
1

>  <lipinski_rule_of_five_violations>  (1657) 
1

>  <aromatic_rings_count>  (1657) 
0

>  <qed_drug_likeliness>  (1657) 
0.45

>  <formal_charge>  (1657) 
0

>  <fractioncsp3>  (1657) 
0.82

>  <number_of_minimal_rings>  (1657) 
5

>  <van_der_walls_volume>  (1657) 
nan

>  <contains_sugar>  (1657) 
False

>  <contains_ring_sugars>  (1657) 
False

>  <contains_linear_sugars>  (1657) 
False

>  <murcko_framework>  (1657) 
O1CCC(C1)CC2CCC3C4CCCCC4CC5OCCC2C53

>  <np_likeness>  (1657) 
2.94

>  <chemical_class>  (1657) 
Prenol lipids

>  <chemical_sub_class>  (1657) 
Terpene lactones

>  <chemical_super_class>  (1657) 
Lipids and lipid-like molecules

>  <direct_parent_classification>  (1657) 
Quassinoids

>  <np_classifier_pathway>  (1657) 
Terpenoids

>  <np_classifier_superclass>  (1657) 
Triterpenoids

>  <np_classifier_class>  (1657) 
Quassinoids

>  <np_classifier_is_glycoside>  (1657) 
False

>  <organisms>  (1657) 
Homalolepis cuneata|Simaba cuneata

>  <collections>  (1657) 
Latin America dataset|NuBBEDB|Super Natural II|WikiData Natural Products

>  <dois>  (1657) 
10.1590/S0103-50531999000100012

>  <synonyms>  (1657) 
1260-58-8|2-Hydroxy-1,16-dioxo-13-(5-oxooxolane-3-carbonyl)picrasan-11-yl acetate|20(R)-simarolide|24-Nor-16,17-secocholane-16,23-dioic acid, 11-(acetyloxy)-2,7,21-trihydroxy-4,8-dimethyl-1,17-dioxo-, gamma-lactone delta-lactone, (2alpha,4alpha,5alpha,7alpha,11alpha,13alpha,14beta,20R)-|DTXSID10925351|NSC320953|[(1S,2S,4S,6R,7S,9R,13R,14R,16R,17S)-4-hydroxy-2,6,14,17-tetramethyl-3,11-dioxo-14-[(3R)-5-oxooxolane-3-carbonyl]-10-oxatetracyclo[7.7.1.02,7.013,17]heptadecan-16-yl] acetate

>  <cas>  (1657) 
1260-58-8

$$$$

     RDKit          2D

 18 20  0  0  0  0  0  0  0  0999 V2000
   -3.3822   -2.1365    0.0000 C   0  0  0  0  0  0  0  0  0  0  0  0
   -3.0734   -0.6686    0.0000 C   0  0  0  0  0  0  0  0  0  0  0  0
   -4.5726   -0.6194    0.0000 C   0  0  0  0  0  0  0  0  0  0  0  0
   -3.2853    0.8163    0.0000 C   0  0  0  0  0  0  0  0  0  0  0  0
   -2.1052    1.7423    0.0000 C   0  0  0  0  0  0  0  0  0  0  0  0
   -0.7132    1.1833    0.0000 C   0  0  0  0  0  0  0  0  0  0  0  0
   -0.5014   -0.3017    0.0000 C   0  0  0  0  0  0  0  0  0  0  0  0
   -1.6815   -1.2276    0.0000 O   0  0  0  0  0  0  0  0  0  0  0  0
    0.8906   -0.8607    0.0000 C   0  0  0  0  0  0  0  0  0  0  0  0
    1.1024   -2.3456    0.0000 C   0  0  0  0  0  0  0  0  0  0  0  0
    2.4944   -2.9046    0.0000 C   0  0  0  0  0  0  0  0  0  0  0  0
    3.6745   -1.9787    0.0000 C   0  0  0  0  0  0  0  0  0  0  0  0
    3.4626   -0.4937    0.0000 C   0  0  0  0  0  0  0  0  0  0  0  0
    2.0707    0.0653    0.0000 C   0  0  0  0  0  0  0  0  0  0  0  0
    1.8588    1.5502    0.0000 C   0  0  0  0  0  0  0  0  0  0  0  0
    3.0389    2.4762    0.0000 O   0  0  0  0  0  0  0  0  0  0  0  0
    0.4669    2.1093    0.0000 C   0  0  0  0  0  0  0  0  0  0  0  0
    0.2550    3.5942    0.0000 O   0  0  0  0  0  0  0  0  0  0  0  0
  1  2  1  0
  2  3  1  0
  2  4  1  0
  4  5  1  0
  5  6  1  0
  6  7  2  0
  7  8  1  0
  7  9  1  0
  9 10  2  0
 10 11  1  0
 11 12  2  0
 12 13  1  0
 13 14  2  0
 14 15  1  0
 15 16  2  0
 15 17  1  0
 17 18  2  0
  8  2  1  0
 14  9  1  0
 17  6  1  0
M  END
>  <identifier>  (1658) 
CNP0206923.0

>  <canonical_smiles>  (1658) 
CC1(C)CCC2=C(O1)C1=CC=CC=C1C(=O)C2=O

>  <standard_inchi>  (1658) 
InChI=1S/C15H14O3/c1-15(2)8-7-11-13(17)12(16)9-5-3-4-6-10(9)14(11)18-15/h3-6H,7-8H2,1-2H3

>  <standard_inchi_key>  (1658) 
QZPQTZZNNJUOLS-UHFFFAOYSA-N

>  <name>  (1658) 
beta-Lapachone

>  <iupac_name>  (1658) 
2,2-dimethyl-3,4-dihydrobenzo[h]chromene-5,6-dione

>  <annotation_level>  (1658) 
5

>  <total_atom_count>  (1658) 
32

>  <heavy_atom_count>  (1658) 
18

>  <molecular_weight>  (1658) 
242.27

>  <exact_molecular_weight>  (1658) 
242.09429

>  <molecular_formula>  (1658) 
C15H14O3

>  <alogp>  (1658) 
2.75

>  <topological_polar_surface_area>  (1658) 
43.37

>  <rotatable_bond_count>  (1658) 
0

>  <hydrogen_bond_acceptors>  (1658) 
3

>  <hydrogen_bond_donors>  (1658) 
0

>  <hydrogen_bond_acceptors_lipinski>  (1658) 
3

>  <hydrogen_bond_donors_lipinski>  (1658) 
0

>  <lipinski_rule_of_five_violations>  (1658) 
0

>  <aromatic_rings_count>  (1658) 
1

>  <qed_drug_likeliness>  (1658) 
0.66

>  <formal_charge>  (1658) 
0

>  <fractioncsp3>  (1658) 
0.33

>  <number_of_minimal_rings>  (1658) 
3

>  <van_der_walls_volume>  (1658) 
219.54

>  <contains_sugar>  (1658) 
False

>  <contains_ring_sugars>  (1658) 
False

>  <contains_linear_sugars>  (1658) 
False

>  <murcko_framework>  (1658) 
O1C=2c3ccccc3CCC2CCC1

>  <np_likeness>  (1658) 
1.52

>  <chemical_class>  (1658) 
Naphthopyrans

>  <chemical_sub_class>  (1658) 
Naphthopyrans

>  <chemical_super_class>  (1658) 
Organoheterocyclic compounds

>  <direct_parent_classification>  (1658) 
Naphthopyrans

>  <np_classifier_pathway>  (1658) 
Polyketides

>  <np_classifier_superclass>  (1658) 
Naphthalenes

>  <np_classifier_class>  (1658) 
Naphthoquinones

>  <np_classifier_is_glycoside>  (1658) 
False

>  <organisms>  (1658) 
Bignoniaceae|Catalpa longissima|Handroanthus guayacan|Handroanthus impetiginosum|Handroanthus impetiginosus|Haplophragma adenophyllum|Hydnellum zonatum|Lantana involucrata|Markhamia Stipulata|Markhamia lutea|Markhamia platycalyx|Markhamia stipulata|Orthantha lutea|Phyllarthron comorense|Tabebuia avellanedae|Tabebuia guayacan|Tecomaria capensis|Tectona Grandis|Tectona grandis

>  <collections>  (1658) 
Australian natural products|CMAUP (cCollective molecular activities of useful plants)|ChEBI NPs|ConMedNP|DrugBankNP|InflamNat|KNApSaCK|Latin America dataset|NCI DTP data|NPACT|NPASS|NPCARE|NPEdia|NuBBEDB|Specs Natural Products|Super Natural II|TCMDB-Taiwan (Traditional Chinese Medicine database)|TCMID (Traditional Chinese Medicine Integrated Database)|TIPdb (database of Taiwan indigenous plants)|UNPD (Universal Natural Products Database)|VietHerb|WikiData Natural Products|ZINC NP

>  <dois>  (1658) 
10.1016/0021-9673(95)00841-1|10.1016/J.BMC.2009.07.039|10.1016/S0031-9422(00)89096-2|10.1016/S0031-9422(01)00466-6|10.1016/S0040-4020(01)93769-X|10.1016/j.intimp.2006.12.006|10.1016/j.phytol.2013.08.014|10.1021/NP50037A031|10.1055/S-0028-1097442|10.1055/S-0028-1097458|10.1089/JMF.2006.9.161

>  <synonyms>  (1658) 
(c)micro-Lapachone pound>>ARQ 501|.beta.-Lapachone|2,2-Dimethyl-3,4-dihydro-2H-benzo[h]chromene-5,6-dione|2,2-dimethyl-2H,3H,4H,5H,6H-naphtho[1,2-b]pyran-5,6-dione|2005rm01ch01|2H-Naphtho[1,2-b]pyran-5,6-dione, 3,4-dihydro-2,2-dimethyl-|2H-Naphtho[1,6-dione, 3,4-dihydro-2,2-dimethyl-|3,4-Dihydro-2,2-dimethyl-2H-naphtho[1,2-B]pyran-5,6-dione|4707-32-8|5-17-11-00459 (Beilstein Handbook Reference)|6N4FA2QQ6A|A827146|AC-8965|AKOS005266281|ARQ 501|ARQ-501|ARQ-501 (beta lapachone)|ARQ-501;NSC-26326|AS-70326|AfAE'A centa' notA inverted exclamation markAfasA'A|AfAE'Adaggeratrade markAfA centA centasA notA em leaderA inverted exclamation mark-Lapachone|BCBcMAP01_000055|BCP09779|BDBM81348|BETA LAPACHONE [WHO-DD]|BP-28431|BRN 0181499|BSPBio_001306|Beta -Lapachone|Beta lapachone|Beta-lap-wj|Bignoniaceae|Bio2_000506|C75251|CCG-36362|CHEBI:10429|CHEMBL15192|CS-3680|DB-021896|DB11948|DTXSID90197019|EU-0100717|EX-A3011|HMS1361B08|HMS1791B08|HMS1989B08|HMS3262O15|HMS3402B08|HMS3653O04|HMS3866G13|HSCI1_000182|HY-13555|IDI1_033776|KBio2_000026|KBio2_002594|KBio2_005162|KBio3_000051|KBioGR_000026|KBioSS_000026|LAPACHONE [INCI]|LAPACHONE, BETA|LP00717|Lapachone, beta-|Lopac-L-2037|Lopac0_000717|MB-12066|MFCD01712233|MLS006011731|NCGC00015598-01|NCGC00094066-01|NCGC00261402-01|NCI60_009665|NS00018342|NSC 26326|NSC-26326|NSC-629749|NSC813862|Q27089386|QTL1_000048|R115 (Reactive Blue 2)|SCHEMBL107042|SDCCGSBI-0050695.P003|SL 11001|SMR001456339|SR-01000075957|SW219806-1|Tox21_500717|UNII-6N4FA2QQ6A|\u221a\u00e9\u00ac\u2264-lapachone|a-Lapachone|b-Lapachone (90%)|beta-Lapachone (ARQ-501, CO-501)|beta-Lapachone, >=98% (TLC)|beta-lap|lapachone|s7261|ss-Lapachone

>  <cas>  (1658) 
4707-32-8

$$$$

     RDKit          2D

 35 39  0  0  0  0  0  0  0  0999 V2000
   -8.9366   -2.1777    0.0000 C   0  0  0  0  0  0  0  0  0  0  0  0
   -7.7712   -1.2334    0.0000 C   0  0  0  0  0  0  0  0  0  0  0  0
   -8.0063    0.2481    0.0000 O   0  0  0  0  0  0  0  0  0  0  0  0
   -6.3706   -1.7705    0.0000 O   0  0  0  0  0  0  0  0  0  0  0  0
   -5.2052   -0.8261    0.0000 C   0  0  0  0  0  0  0  0  0  0  0  0
   -5.4404    0.6553    0.0000 C   0  0  0  0  0  0  0  0  0  0  0  0
   -6.8409    1.1924    0.0000 O   0  0  0  0  0  0  0  0  0  0  0  0
   -4.2749    1.5997    0.0000 C   0  0  0  0  0  0  0  0  0  0  0  0
   -4.5101    3.0811    0.0000 O   0  0  0  0  0  0  0  0  0  0  0  0
   -2.8744    1.0626    0.0000 C   0  0  0  0  0  0  0  0  0  0  0  0
   -1.7090    2.0069    0.0000 O   0  0  0  0  0  0  0  0  0  0  0  0
   -0.3084    1.4698    0.0000 C   0  0  0  0  0  0  0  0  0  0  0  0
   -0.0733   -0.0116    0.0000 C   0  0  0  0  0  0  0  0  0  0  0  0
    1.3272   -0.5487    0.0000 C   0  0  0  0  0  0  0  0  0  0  0  0
    2.4926    0.3956    0.0000 C   0  0  0  0  0  0  0  0  0  0  0  0
    2.2575    1.8771    0.0000 C   0  0  0  0  0  0  0  0  0  0  0  0
    0.8570    2.4142    0.0000 C   0  0  0  0  0  0  0  0  0  0  0  0
    0.6219    3.8956    0.0000 O   0  0  0  0  0  0  0  0  0  0  0  0
    3.4229    2.8214    0.0000 O   0  0  0  0  0  0  0  0  0  0  0  0
    4.8235    2.2843    0.0000 C   0  0  0  0  0  0  0  0  0  0  0  0
    5.9889    3.2287    0.0000 O   0  0  0  0  0  0  0  0  0  0  0  0
    5.0586    0.8029    0.0000 C   0  0  0  0  0  0  0  0  0  0  0  0
    6.4591    0.2658    0.0000 C   0  0  0  0  0  0  0  0  0  0  0  0
    6.6943   -1.2157    0.0000 C   0  0  0  0  0  0  0  0  0  0  0  0
    8.0948   -1.7528    0.0000 O   0  0  0  0  0  0  0  0  0  0  0  0
    5.5289   -2.1601    0.0000 C   0  0  0  0  0  0  0  0  0  0  0  0
    5.7640   -3.6415    0.0000 O   0  0  0  0  0  0  0  0  0  0  0  0
    4.1283   -1.6229    0.0000 C   0  0  0  0  0  0  0  0  0  0  0  0
    3.8932   -0.1415    0.0000 C   0  0  0  0  0  0  0  0  0  0  0  0
    2.9629   -2.5673    0.0000 O   0  0  0  0  0  0  0  0  0  0  0  0
    1.5624   -2.0302    0.0000 C   0  0  0  0  0  0  0  0  0  0  0  0
    0.3969   -2.9746    0.0000 O   0  0  0  0  0  0  0  0  0  0  0  0
   -2.6393   -0.4189    0.0000 O   0  0  0  0  0  0  0  0  0  0  0  0
   -3.8047   -1.3632    0.0000 C   0  0  0  0  0  0  0  0  0  0  0  0
   -3.5696   -2.8447    0.0000 C   0  0  0  0  0  0  0  0  0  0  0  0
  1  2  1  0
  2  3  2  0
  2  4  1  0
  5  4  1  6
  5  6  1  0
  6  7  1  1
  6  8  1  0
  8  9  1  1
  8 10  1  0
 10 11  1  6
 11 12  1  0
 12 13  2  0
 13 14  1  0
 14 15  2  0
 15 16  1  0
 16 17  2  0
 17 18  1  0
 16 19  1  0
 19 20  1  0
 20 21  2  0
 20 22  1  0
 22 23  2  0
 23 24  1  0
 24 25  1  0
 24 26  2  0
 26 27  1  0
 26 28  1  0
 28 29  2  0
 28 30  1  0
 30 31  1  0
 31 32  2  0
 10 33  1  0
 33 34  1  0
 34 35  1  1
 34  5  1  0
 17 12  1  0
 29 22  1  0
 31 14  1  0
 29 15  1  0
M  END
>  <identifier>  (1659) 
CNP0368307.1

>  <canonical_smiles>  (1659) 
CC(=O)O[C@@H]1[C@@H](O)[C@@H](O)[C@H](OC2=CC3=C4C(=C2O)OC(=O)C2=CC(O)=C(O)C(=C24)OC3=O)O[C@H]1C

>  <standard_inchi>  (1659) 
InChI=1S/C22H18O13/c1-5-17(32-6(2)23)15(27)16(28)22(31-5)33-10-4-8-12-11-7(20(29)35-19(12)14(10)26)3-9(24)13(25)18(11)34-21(8)30/h3-5,15-17,22,24-28H,1-2H3/t5-,15-,16+,17-,22-/m0/s1

>  <standard_inchi_key>  (1659) 
VOPUKLDLFBJYLS-SNJKDYRCSA-N

>  <name>  (1659) 
[(2S,3R,4S,5R,6S)-4,5-dihydroxy-2-methyl-6-[(7,13,14-trihydroxy-3,10-dioxo-2,9-dioxatetracyclo[6.6.2.04,16.011,15]hexadeca-1(15),4,6,8(16),11,13-hexaen-6-yl)oxy]oxan-3-yl] acetate

>  <iupac_name>  (1659) 
[(2~{S},3~{R},4~{S},5~{R},6~{S})-4,5-dihydroxy-2-methyl-6-[(7,13,14-trihydroxy-3,10-dioxo-2,9-dioxatetracyclo[6.6.2.0^{4,16}.0^{11,15}]hexadeca-1(15),4(16),5,7,11,13-hexaen-6-yl)oxy]tetrahydropyran-3-yl] acetate

>  <annotation_level>  (1659) 
5

>  <total_atom_count>  (1659) 
53

>  <heavy_atom_count>  (1659) 
35

>  <molecular_weight>  (1659) 
490.37

>  <exact_molecular_weight>  (1659) 
490.07474

>  <molecular_formula>  (1659) 
C22H18O13

>  <alogp>  (1659) 
0.38

>  <topological_polar_surface_area>  (1659) 
206.33

>  <rotatable_bond_count>  (1659) 
3

>  <hydrogen_bond_acceptors>  (1659) 
13

>  <hydrogen_bond_donors>  (1659) 
5

>  <hydrogen_bond_acceptors_lipinski>  (1659) 
13

>  <hydrogen_bond_donors_lipinski>  (1659) 
5

>  <lipinski_rule_of_five_violations>  (1659) 
1

>  <aromatic_rings_count>  (1659) 
4

>  <qed_drug_likeliness>  (1659) 
0.11

>  <formal_charge>  (1659) 
0

>  <fractioncsp3>  (1659) 
0.32

>  <number_of_minimal_rings>  (1659) 
5

>  <van_der_walls_volume>  (1659) 
nan

>  <contains_sugar>  (1659) 
True

>  <contains_ring_sugars>  (1659) 
True

>  <contains_linear_sugars>  (1659) 
False

>  <murcko_framework>  (1659) 
O1c2cccc3c2-c4c(OC3)cc(OC5OCCCC5)cc4C1

>  <np_likeness>  (1659) 
2.12

>  <chemical_class>  (1659) 
Tannins

>  <chemical_sub_class>  (1659) 
Hydrolyzable tannins

>  <chemical_super_class>  (1659) 
Phenylpropanoids and polyketides

>  <direct_parent_classification>  (1659) 
Hydrolyzable tannins

>  <np_classifier_pathway>  (1659) 
Shikimates and Phenylpropanoids

>  <np_classifier_superclass>  (1659) 
Coumarins

>  <np_classifier_class>  (1659) 
Simple coumarins

>  <np_classifier_is_glycoside>  (1659) 
True

>  <organisms>  (1659) 
Combretum yunnanensis|Siphoneugena densiflora

>  <collections>  (1659) 
Latin America dataset|NPASS|NuBBEDB|Super Natural II|TCMDB-Taiwan (Traditional Chinese Medicine database)|WikiData Natural Products|ZINC NP

>  <dois>  (1659) 
10.1590/S0103-50532006000200010

>  <synonyms>  (1659) 
BDBM50478559|CHEMBL477538|Ellagic acid 4-O-\u221a\u00e9\u00ac\u00b1-L-4-O-acetylrhamnopyranoside

>  <cas>  (1659) 
nan

$$$$

     RDKit          2D

 30 33  0  0  0  0  0  0  0  0999 V2000
    9.1901   -1.1628    0.0000 C   0  0  0  0  0  0  0  0  0  0  0  0
    8.2606    0.0145    0.0000 O   0  0  0  0  0  0  0  0  0  0  0  0
    6.7763   -0.2018    0.0000 C   0  0  0  0  0  0  0  0  0  0  0  0
    6.2215   -1.5955    0.0000 C   0  0  0  0  0  0  0  0  0  0  0  0
    4.7372   -1.8118    0.0000 C   0  0  0  0  0  0  0  0  0  0  0  0
    3.8076   -0.6345    0.0000 C   0  0  0  0  0  0  0  0  0  0  0  0
    2.3233   -0.8509    0.0000 C   0  0  0  0  0  0  0  0  0  0  0  0
    1.6259   -2.1789    0.0000 O   0  0  0  0  0  0  0  0  0  0  0  0
    0.1474   -1.9260    0.0000 C   0  0  0  0  0  0  0  0  0  0  0  0
   -0.0690   -0.4417    0.0000 C   0  0  0  0  0  0  0  0  0  0  0  0
    1.2758    0.2228    0.0000 C   0  0  0  0  0  0  0  0  0  0  0  0
    1.0595    1.7071    0.0000 C   0  0  0  0  0  0  0  0  0  0  0  0
   -0.4190    1.9600    0.0000 O   0  0  0  0  0  0  0  0  0  0  0  0
   -1.1165    0.6320    0.0000 C   0  0  0  0  0  0  0  0  0  0  0  0
   -2.6008    0.4156    0.0000 C   0  0  0  0  0  0  0  0  0  0  0  0
   -3.5303    1.5929    0.0000 C   0  0  0  0  0  0  0  0  0  0  0  0
   -5.0146    1.3765    0.0000 C   0  0  0  0  0  0  0  0  0  0  0  0
   -5.5694   -0.0171    0.0000 C   0  0  0  0  0  0  0  0  0  0  0  0
   -7.0537   -0.2334    0.0000 O   0  0  0  0  0  0  0  0  0  0  0  0
   -7.9833    0.9438    0.0000 C   0  0  0  0  0  0  0  0  0  0  0  0
   -9.4676    0.7275    0.0000 C   0  0  0  0  0  0  0  0  0  0  0  0
   -7.4285    2.3375    0.0000 O   0  0  0  0  0  0  0  0  0  0  0  0
   -4.6399   -1.1944    0.0000 C   0  0  0  0  0  0  0  0  0  0  0  0
   -5.1947   -2.5880    0.0000 O   0  0  0  0  0  0  0  0  0  0  0  0
   -4.2651   -3.7653    0.0000 C   0  0  0  0  0  0  0  0  0  0  0  0
   -3.1556   -0.9780    0.0000 C   0  0  0  0  0  0  0  0  0  0  0  0
    4.3624    0.7591    0.0000 C   0  0  0  0  0  0  0  0  0  0  0  0
    5.8467    0.9754    0.0000 C   0  0  0  0  0  0  0  0  0  0  0  0
    6.4015    2.3691    0.0000 O   0  0  0  0  0  0  0  0  0  0  0  0
    5.4720    3.5464    0.0000 C   0  0  0  0  0  0  0  0  0  0  0  0
  1  2  1  0
  2  3  1  0
  3  4  2  0
  4  5  1  0
  5  6  2  0
  7  6  1  1
  7  8  1  0
  8  9  1  0
 10  9  1  6
 10 11  1  0
 11 12  1  6
 12 13  1  0
 13 14  1  0
 14 15  1  1
 15 16  2  0
 16 17  1  0
 17 18  2  0
 18 19  1  0
 19 20  1  0
 20 21  1  0
 20 22  2  0
 18 23  1  0
 23 24  1  0
 24 25  1  0
 23 26  2  0
  6 27  1  0
 27 28  2  0
 28 29  1  0
 29 30  1  0
 28  3  1  0
 11  7  1  0
 26 15  1  0
 14 10  1  0
M  END
>  <identifier>  (1660) 
CNP0080476.1

>  <canonical_smiles>  (1660) 
COC1=CC=C([C@H]2OC[C@H]3[C@@H]2CO[C@@H]3C2=CC=C(OC(C)=O)C(OC)=C2)C=C1OC

>  <standard_inchi>  (1660) 
InChI=1S/C23H26O7/c1-13(24)30-19-8-6-15(10-21(19)27-4)23-17-12-28-22(16(17)11-29-23)14-5-7-18(25-2)20(9-14)26-3/h5-10,16-17,22-23H,11-12H2,1-4H3/t16-,17-,22+,23+/m0/s1

>  <standard_inchi_key>  (1660) 
FGPFMACOBGPDPV-ZCVTWQBDSA-N

>  <name>  (1660) 
nan

>  <iupac_name>  (1660) 
[4-[(3~{S},3~{a}~{R},6~{S},6~{a}~{R})-3-(3,4-dimethoxyphenyl)-1,3,3~{a},4,6,6~{a}-hexahydrofuro[3,4-c]furan-6-yl]-2-methoxy-phenyl] acetate

>  <annotation_level>  (1660) 
4

>  <total_atom_count>  (1660) 
56

>  <heavy_atom_count>  (1660) 
30

>  <molecular_weight>  (1660) 
414.45

>  <exact_molecular_weight>  (1660) 
414.16785

>  <molecular_formula>  (1660) 
C23H26O7

>  <alogp>  (1660) 
3.71

>  <topological_polar_surface_area>  (1660) 
72.45

>  <rotatable_bond_count>  (1660) 
6

>  <hydrogen_bond_acceptors>  (1660) 
7

>  <hydrogen_bond_donors>  (1660) 
0

>  <hydrogen_bond_acceptors_lipinski>  (1660) 
7

>  <hydrogen_bond_donors_lipinski>  (1660) 
0

>  <lipinski_rule_of_five_violations>  (1660) 
0

>  <aromatic_rings_count>  (1660) 
2

>  <qed_drug_likeliness>  (1660) 
0.53

>  <formal_charge>  (1660) 
0

>  <fractioncsp3>  (1660) 
0.44

>  <number_of_minimal_rings>  (1660) 
4

>  <van_der_walls_volume>  (1660) 
nan

>  <contains_sugar>  (1660) 
False

>  <contains_ring_sugars>  (1660) 
False

>  <contains_linear_sugars>  (1660) 
False

>  <murcko_framework>  (1660) 
O1CC2C(OCC2C1c3ccccc3)c4ccccc4

>  <np_likeness>  (1660) 
0.75

>  <chemical_class>  (1660) 
Furanoid lignans

>  <chemical_sub_class>  (1660) 
Furan lignans

>  <chemical_super_class>  (1660) 
Lignans, neolignans and related compounds

>  <direct_parent_classification>  (1660) 
Furan lignans

>  <np_classifier_pathway>  (1660) 
Shikimates and Phenylpropanoids

>  <np_classifier_superclass>  (1660) 
Lignans

>  <np_classifier_class>  (1660) 
Furofuranoid lignans

>  <np_classifier_is_glycoside>  (1660) 
False

>  <organisms>  (1660) 
Araucaria angustifolia

>  <collections>  (1660) 
Latin America dataset|NuBBEDB|WikiData Natural Products|ZINC NP

>  <dois>  (1660) 
10.1016/0031-9422(79)80188-0

>  <synonyms>  (1660) 
Pinoresinol-4''-methyl ether acetate

>  <cas>  (1660) 
nan

$$$$

     RDKit          2D

 36 40  0  0  0  0  0  0  0  0999 V2000
   -3.9114   -3.4479    0.0000 C   0  0  0  0  0  0  0  0  0  0  0  0
   -2.4140   -3.5364    0.0000 O   0  0  0  0  0  0  0  0  0  0  0  0
   -1.5887   -2.2838    0.0000 C   0  0  0  0  0  0  0  0  0  0  0  0
   -2.2608   -0.9428    0.0000 O   0  0  0  0  0  0  0  0  0  0  0  0
   -0.0913   -2.3723    0.0000 C   0  0  0  0  0  0  0  0  0  0  0  0
    0.7340   -1.1198    0.0000 C   0  0  0  0  0  0  0  0  0  0  0  0
    0.0620    0.2212    0.0000 C   0  0  0  0  0  0  0  0  0  0  0  0
   -0.8898   -0.9382    0.0000 C   0  0  0  0  0  0  0  0  0  0  0  0
   -1.3843    0.6191    0.0000 C   0  0  0  0  0  0  0  0  0  0  0  0
   -2.7882    0.0909    0.0000 C   0  0  0  0  0  0  0  0  0  0  0  0
   -3.1861   -1.3553    0.0000 C   0  0  0  0  0  0  0  0  0  0  0  0
   -3.7244    1.2629    0.0000 C   0  0  0  0  0  0  0  0  0  0  0  0
   -5.2228    1.1944    0.0000 C   0  0  0  0  0  0  0  0  0  0  0  0
   -6.0482   -0.0581    0.0000 C   0  0  0  0  0  0  0  0  0  0  0  0
   -7.4944    0.3398    0.0000 O   0  0  0  0  0  0  0  0  0  0  0  0
   -7.5629    1.8382    0.0000 C   0  0  0  0  0  0  0  0  0  0  0  0
   -6.1590    2.3664    0.0000 C   0  0  0  0  0  0  0  0  0  0  0  0
   -2.8991    2.5154    0.0000 C   0  0  0  0  0  0  0  0  0  0  0  0
   -1.4528    2.1175    0.0000 C   0  0  0  0  0  0  0  0  0  0  0  0
   -0.0489    2.6457    0.0000 O   0  0  0  0  0  0  0  0  0  0  0  0
    0.8873    1.4737    0.0000 C   0  0  0  0  0  0  0  0  0  0  0  0
    2.3847    1.3852    0.0000 C   0  0  0  0  0  0  0  0  0  0  0  0
    3.2100    2.6378    0.0000 O   0  0  0  0  0  0  0  0  0  0  0  0
    4.7074    2.5493    0.0000 C   0  0  0  0  0  0  0  0  0  0  0  0
    5.5327    3.8018    0.0000 C   0  0  0  0  0  0  0  0  0  0  0  0
    5.3795    1.2082    0.0000 O   0  0  0  0  0  0  0  0  0  0  0  0
    3.0567    0.0442    0.0000 C   0  0  0  0  0  0  0  0  0  0  0  0
    2.2314   -1.2083    0.0000 C   0  0  0  0  0  0  0  0  0  0  0  0
    1.4061   -2.4608    0.0000 C   0  0  0  0  0  0  0  0  0  0  0  0
    2.9035   -2.5493    0.0000 C   0  0  0  0  0  0  0  0  0  0  0  0
    2.0781   -3.8019    0.0000 O   0  0  0  0  0  0  0  0  0  0  0  0
    4.4008   -2.6378    0.0000 C   0  0  0  0  0  0  0  0  0  0  0  0
    5.2262   -1.3853    0.0000 C   0  0  0  0  0  0  0  0  0  0  0  0
    4.5541   -0.0443    0.0000 C   0  0  0  0  0  0  0  0  0  0  0  0
    4.3813    1.4457    0.0000 C   0  0  0  0  0  0  0  0  0  0  0  0
    5.9915    0.3847    0.0000 O   0  0  0  0  0  0  0  0  0  0  0  0
  1  2  1  0
  2  3  1  0
  3  4  2  0
  3  5  1  0
  6  5  1  1
  6  7  1  0
  7  8  1  1
  7  9  1  0
  9 10  2  0
 10 11  1  0
 10 12  1  0
 12 13  1  6
 13 14  2  0
 14 15  1  0
 15 16  1  0
 16 17  2  0
 12 18  1  0
 18 19  1  0
 19 20  1  0
 21 20  1  6
 21 22  1  0
 22 23  1  6
 23 24  1  0
 24 25  1  0
 24 26  2  0
 22 27  1  0
 27 28  1  0
 28 29  1  1
 28 30  1  0
 30 31  2  0
 30 32  1  0
 32 33  2  0
 33 34  1  0
 34 35  1  1
 34 36  1  0
 28  6  1  0
 21  7  1  0
 34 27  1  0
 19  9  1  0
 17 13  1  0
M  END
>  <identifier>  (1661) 
CNP0170939.2

>  <canonical_smiles>  (1661) 
COC(=O)C[C@H]1[C@]2(C)C3=C(C)[C@H](C4=COC=C4)CC3O[C@@H]2[C@H](OC(C)=O)C2[C@]1(C)C(=O)C=C[C@@]2(C)O

>  <standard_inchi>  (1661) 
InChI=1S/C28H34O8/c1-14-17(16-8-10-34-13-16)11-18-22(14)28(5)19(12-21(31)33-6)27(4)20(30)7-9-26(3,32)24(27)23(25(28)36-18)35-15(2)29/h7-10,13,17-19,23-25,32H,11-12H2,1-6H3/t17-,18?,19-,23-,24?,25-,26-,27+,28-/m1/s1

>  <standard_inchi_key>  (1661) 
PWFKLZWNGVGKBA-AQJVMKSRSA-N

>  <name>  (1661) 
nan

>  <iupac_name>  (1661) 
methyl 2-[(1~{S},2~{R},4~{R},8~{R},9~{S},10~{R},13~{R})-2-acetoxy-13-(3-furyl)-4-hydroxy-4,8,10,12-tetramethyl-7-oxo-16-oxatetracyclo[8.6.0.0^{3,8}.0^{11,15}]hexadeca-5,11-dien-9-yl]acetate

>  <annotation_level>  (1661) 
4

>  <total_atom_count>  (1661) 
70

>  <heavy_atom_count>  (1661) 
36

>  <molecular_weight>  (1661) 
498.57

>  <exact_molecular_weight>  (1661) 
498.22537

>  <molecular_formula>  (1661) 
C28H34O8

>  <alogp>  (1661) 
3.49

>  <topological_polar_surface_area>  (1661) 
112.27

>  <rotatable_bond_count>  (1661) 
4

>  <hydrogen_bond_acceptors>  (1661) 
8

>  <hydrogen_bond_donors>  (1661) 
1

>  <hydrogen_bond_acceptors_lipinski>  (1661) 
8

>  <hydrogen_bond_donors_lipinski>  (1661) 
1

>  <lipinski_rule_of_five_violations>  (1661) 
0

>  <aromatic_rings_count>  (1661) 
1

>  <qed_drug_likeliness>  (1661) 
0.50

>  <formal_charge>  (1661) 
0

>  <fractioncsp3>  (1661) 
0.61

>  <number_of_minimal_rings>  (1661) 
5

>  <van_der_walls_volume>  (1661) 
nan

>  <contains_sugar>  (1661) 
False

>  <contains_ring_sugars>  (1661) 
False

>  <contains_linear_sugars>  (1661) 
False

>  <murcko_framework>  (1661) 
o1ccc(c1)C2C=C3C(OC4CC5CC=CCC5CC34)C2

>  <np_likeness>  (1661) 
3.07

>  <chemical_class>  (1661) 
Naphthofurans

>  <chemical_sub_class>  (1661) 
Naphthofurans

>  <chemical_super_class>  (1661) 
Organoheterocyclic compounds

>  <direct_parent_classification>  (1661) 
Naphthofurans

>  <np_classifier_pathway>  (1661) 
Terpenoids

>  <np_classifier_superclass>  (1661) 
Triterpenoids

>  <np_classifier_class>  (1661) 
Limonoids

>  <np_classifier_is_glycoside>  (1661) 
False

>  <organisms>  (1661) 
Azadirachta indica

>  <collections>  (1661) 
Latin America dataset|NuBBEDB|WikiData Natural Products

>  <dois>  (1661) 
10.1002/PCA.1208|10.1002/pca.1208

>  <synonyms>  (1661) 
6-O-acetylnimbandiol

>  <cas>  (1661) 
nan

$$$$

     RDKit          2D

 29 32  0  0  0  0  0  0  0  0999 V2000
   -1.1606    2.6163    0.0000 C   0  0  0  0  0  0  0  0  0  0  0  0
    0.0744    1.7649    0.0000 C   0  0  0  0  0  0  0  0  0  0  0  0
   -0.0455    0.2697    0.0000 C   0  0  0  0  0  0  0  0  0  0  0  0
    1.1895   -0.5817    0.0000 C   0  0  0  0  0  0  0  0  0  0  0  0
    1.4650    0.8927    0.0000 C   0  0  0  0  0  0  0  0  0  0  0  0
    2.8796    1.3914    0.0000 C   0  0  0  0  0  0  0  0  0  0  0  0
    3.1551    2.8659    0.0000 O   0  0  0  0  0  0  0  0  0  0  0  0
    4.5698    3.3646    0.0000 C   0  0  0  0  0  0  0  0  0  0  0  0
    4.0188    0.4156    0.0000 C   0  0  0  0  0  0  0  0  0  0  0  0
    5.4335    0.9143    0.0000 O   0  0  0  0  0  0  0  0  0  0  0  0
    3.7434   -1.0589    0.0000 C   0  0  0  0  0  0  0  0  0  0  0  0
    4.8826   -2.0347    0.0000 O   0  0  0  0  0  0  0  0  0  0  0  0
    6.2972   -1.5360    0.0000 C   0  0  0  0  0  0  0  0  0  0  0  0
    2.3287   -1.5576    0.0000 C   0  0  0  0  0  0  0  0  0  0  0  0
    1.7526   -2.9425    0.0000 O   0  0  0  0  0  0  0  0  0  0  0  0
    0.2574   -2.8227    0.0000 C   0  0  0  0  0  0  0  0  0  0  0  0
   -0.7184   -3.9619    0.0000 C   0  0  0  0  0  0  0  0  0  0  0  0
   -0.0906   -1.3636    0.0000 C   0  0  0  0  0  0  0  0  0  0  0  0
   -1.4756   -0.7876    0.0000 C   0  0  0  0  0  0  0  0  0  0  0  0
   -1.6692    0.6998    0.0000 C   0  0  0  0  0  0  0  0  0  0  0  0
   -3.0542    1.2759    0.0000 C   0  0  0  0  0  0  0  0  0  0  0  0
   -3.2479    2.7633    0.0000 O   0  0  0  0  0  0  0  0  0  0  0  0
   -2.0565    3.6747    0.0000 C   0  0  0  0  0  0  0  0  0  0  0  0
   -4.2456    0.3644    0.0000 C   0  0  0  0  0  0  0  0  0  0  0  0
   -5.7201    0.6399    0.0000 O   0  0  0  0  0  0  0  0  0  0  0  0
   -6.4377   -0.6773    0.0000 C   0  0  0  0  0  0  0  0  0  0  0  0
   -5.4068   -1.7668    0.0000 O   0  0  0  0  0  0  0  0  0  0  0  0
   -4.0519   -1.1230    0.0000 C   0  0  0  0  0  0  0  0  0  0  0  0
   -2.6670   -1.6990    0.0000 C   0  0  0  0  0  0  0  0  0  0  0  0
  1  2  2  0
  2  3  1  0
  4  3  1  1
  4  5  1  0
  5  6  1  0
  6  7  1  0
  7  8  1  0
  6  9  1  0
  9 10  2  0
  9 11  1  0
 11 12  1  0
 12 13  1  0
 11 14  2  0
 14 15  1  0
 15 16  1  0
 16 17  1  6
 16 18  1  0
 18 19  1  1
 19 20  2  0
 20 21  1  0
 21 22  1  0
 22 23  1  0
 21 24  2  0
 24 25  1  0
 25 26  1  0
 26 27  1  0
 27 28  1  0
 28 29  2  0
 14  4  1  0
 29 19  1  0
 18  4  1  0
 28 24  1  0
M  END
>  <identifier>  (1662) 
CNP0152815.1

>  <canonical_smiles>  (1662) 
C=CC[C@@]12CC(OC)C(=O)C(OC)=C1O[C@H](C)[C@H]2C1=CC(OC)=C2OCOC2=C1

>  <standard_inchi>  (1662) 
InChI=1S/C22H26O7/c1-6-7-22-10-16(25-4)18(23)20(26-5)21(22)29-12(2)17(22)13-8-14(24-3)19-15(9-13)27-11-28-19/h6,8-9,12,16-17H,1,7,10-11H2,2-5H3/t12-,16?,17+,22+/m1/s1

>  <standard_inchi_key>  (1662) 
MZCDAJSGLQRPFP-ONFMOUSDSA-N

>  <name>  (1662) 
nan

>  <iupac_name>  (1662) 
(2~{R},3~{S},3~{a}~{S})-3~{a}-allyl-5,7-dimethoxy-3-(7-methoxy-1,3-benzodioxol-5-yl)-2-methyl-2,3,4,5-tetrahydrobenzofuran-6-one

>  <annotation_level>  (1662) 
4

>  <total_atom_count>  (1662) 
55

>  <heavy_atom_count>  (1662) 
29

>  <molecular_weight>  (1662) 
402.44

>  <exact_molecular_weight>  (1662) 
402.16785

>  <molecular_formula>  (1662) 
C22H26O7

>  <alogp>  (1662) 
3.33

>  <topological_polar_surface_area>  (1662) 
72.45

>  <rotatable_bond_count>  (1662) 
6

>  <hydrogen_bond_acceptors>  (1662) 
7

>  <hydrogen_bond_donors>  (1662) 
0

>  <hydrogen_bond_acceptors_lipinski>  (1662) 
7

>  <hydrogen_bond_donors_lipinski>  (1662) 
0

>  <lipinski_rule_of_five_violations>  (1662) 
0

>  <aromatic_rings_count>  (1662) 
1

>  <qed_drug_likeliness>  (1662) 
0.68

>  <formal_charge>  (1662) 
0

>  <fractioncsp3>  (1662) 
0.50

>  <number_of_minimal_rings>  (1662) 
4

>  <van_der_walls_volume>  (1662) 
nan

>  <contains_sugar>  (1662) 
False

>  <contains_ring_sugars>  (1662) 
False

>  <contains_linear_sugars>  (1662) 
False

>  <murcko_framework>  (1662) 
O1c2ccc(cc2OC1)C3COC4=CCCCC43

>  <np_likeness>  (1662) 
1.96

>  <chemical_class>  (1662) 
Benzodioxoles

>  <chemical_sub_class>  (1662) 
Benzodioxoles

>  <chemical_super_class>  (1662) 
Organoheterocyclic compounds

>  <direct_parent_classification>  (1662) 
Benzodioxoles

>  <np_classifier_pathway>  (1662) 
Shikimates and Phenylpropanoids

>  <np_classifier_superclass>  (1662) 
Lignans

>  <np_classifier_class>  (1662) 
Neolignans

>  <np_classifier_is_glycoside>  (1662) 
False

>  <organisms>  (1662) 
Licaria chrysophylla

>  <collections>  (1662) 
Latin America dataset|NuBBEDB

>  <dois>  (1662) 
10.1016/0031-9422(82)83121-X

>  <synonyms>  (1662) 
Chrysophyllin A

>  <cas>  (1662) 
nan

$$$$

     RDKit          2D

 30 34  0  0  0  0  0  0  0  0999 V2000
   -4.8450   -1.9475    0.0000 C   0  0  0  0  0  0  0  0  0  0  0  0
   -4.9795   -0.4535    0.0000 C   0  0  0  0  0  0  0  0  0  0  0  0
   -6.4274   -0.8454    0.0000 C   0  0  0  0  0  0  0  0  0  0  0  0
   -5.6168    0.9044    0.0000 C   0  0  0  0  0  0  0  0  0  0  0  0
   -7.1114    1.0313    0.0000 O   0  0  0  0  0  0  0  0  0  0  0  0
   -4.7595    2.1352    0.0000 C   0  0  0  0  0  0  0  0  0  0  0  0
   -3.2649    2.0083    0.0000 C   0  0  0  0  0  0  0  0  0  0  0  0
   -2.6276    0.6504    0.0000 C   0  0  0  0  0  0  0  0  0  0  0  0
   -1.7703    1.8813    0.0000 C   0  0  0  0  0  0  0  0  0  0  0  0
   -1.1330    0.5234    0.0000 C   0  0  0  0  0  0  0  0  0  0  0  0
   -0.2757    1.7543    0.0000 C   0  0  0  0  0  0  0  0  0  0  0  0
    1.2189    1.6273    0.0000 C   0  0  0  0  0  0  0  0  0  0  0  0
    1.8563    0.2694    0.0000 C   0  0  0  0  0  0  0  0  0  0  0  0
    3.2918   -0.1655    0.0000 C   0  0  0  0  0  0  0  0  0  0  0  0
    4.4875    0.7402    0.0000 C   0  0  0  0  0  0  0  0  0  0  0  0
    3.4618    1.8347    0.0000 C   0  0  0  0  0  0  0  0  0  0  0  0
    5.4687    1.8747    0.0000 C   0  0  0  0  0  0  0  0  0  0  0  0
    6.8510    1.2921    0.0000 C   0  0  0  0  0  0  0  0  0  0  0  0
    6.7240   -0.2025    0.0000 C   0  0  0  0  0  0  0  0  0  0  0  0
    7.8585   -1.1838    0.0000 O   0  0  0  0  0  0  0  0  0  0  0  0
    5.2633   -0.5436    0.0000 O   0  0  0  0  0  0  0  0  0  0  0  0
    3.3218   -1.6652    0.0000 C   0  0  0  0  0  0  0  0  0  0  0  0
    1.9047   -2.1571    0.0000 C   0  0  0  0  0  0  0  0  0  0  0  0
    0.9990   -0.9615    0.0000 C   0  0  0  0  0  0  0  0  0  0  0  0
    0.2751   -2.2752    0.0000 C   0  0  0  0  0  0  0  0  0  0  0  0
   -0.4956   -0.8345    0.0000 C   0  0  0  0  0  0  0  0  0  0  0  0
   -1.9902   -0.7075    0.0000 C   0  0  0  0  0  0  0  0  0  0  0  0
   -1.3529   -2.0653    0.0000 C   0  0  0  0  0  0  0  0  0  0  0  0
   -2.8475   -1.9384    0.0000 C   0  0  0  0  0  0  0  0  0  0  0  0
   -3.4849   -0.5805    0.0000 C   0  0  0  0  0  0  0  0  0  0  0  0
  1  2  1  0
  2  3  1  0
  2  4  1  0
  4  5  2  0
  4  6  1  0
  6  7  1  0
  7  8  1  0
  8  9  1  1
  8 10  1  0
 10 11  1  1
 11 12  1  0
 13 12  1  6
 13 14  1  0
 14 15  1  0
 15 16  1  1
 15 17  1  0
 17 18  1  0
 18 19  1  0
 19 20  2  0
 19 21  1  0
 14 22  1  1
 22 23  1  0
 23 24  1  0
 24 25  1  6
 24 26  1  0
 26 27  1  1
 26 28  1  0
 28 29  1  0
 30 29  1  1
 30  2  1  0
 30  8  1  0
 26 10  1  0
 24 13  1  0
 21 15  1  0
M  END
>  <identifier>  (1663) 
CNP0239412.1

>  <canonical_smiles>  (1663) 
CC1(C)C(=O)CC[C@]2(C)[C@H]3CC[C@@H]4[C@@H]([C@]5(C)CCC(=O)O5)CC[C@@]4(C)[C@]3(C)CC[C@@H]12

>  <standard_inchi>  (1663) 
InChI=1S/C27H42O3/c1-23(2)19-10-15-26(5)20(24(19,3)13-11-21(23)28)8-7-17-18(9-14-25(17,26)4)27(6)16-12-22(29)30-27/h17-20H,7-16H2,1-6H3/t17-,18+,19+,20-,24+,25-,26-,27+/m1/s1

>  <standard_inchi_key>  (1663) 
NOLGXQBEFHYZHI-QPBHWVAKSA-N

>  <name>  (1663) 
Cabralealactone

>  <iupac_name>  (1663) 
(5~{S})-5-methyl-5-[(5~{R},8~{R},9~{R},10~{R},13~{R},14~{R},17~{S})-4,4,8,10,14-pentamethyl-3-oxo-1,2,5,6,7,9,11,12,13,15,16,17-dodecahydrocyclopenta[a]phenanthren-17-yl]tetrahydrofuran-2-one

>  <annotation_level>  (1663) 
5

>  <total_atom_count>  (1663) 
72

>  <heavy_atom_count>  (1663) 
30

>  <molecular_weight>  (1663) 
414.63

>  <exact_molecular_weight>  (1663) 
414.3134

>  <molecular_formula>  (1663) 
C27H42O3

>  <alogp>  (1663) 
6.34

>  <topological_polar_surface_area>  (1663) 
43.37

>  <rotatable_bond_count>  (1663) 
1

>  <hydrogen_bond_acceptors>  (1663) 
3

>  <hydrogen_bond_donors>  (1663) 
0

>  <hydrogen_bond_acceptors_lipinski>  (1663) 
3

>  <hydrogen_bond_donors_lipinski>  (1663) 
0

>  <lipinski_rule_of_five_violations>  (1663) 
1

>  <aromatic_rings_count>  (1663) 
0

>  <qed_drug_likeliness>  (1663) 
0.47

>  <formal_charge>  (1663) 
0

>  <fractioncsp3>  (1663) 
0.93

>  <number_of_minimal_rings>  (1663) 
5

>  <van_der_walls_volume>  (1663) 
410.65

>  <contains_sugar>  (1663) 
False

>  <contains_ring_sugars>  (1663) 
False

>  <contains_linear_sugars>  (1663) 
False

>  <murcko_framework>  (1663) 
O1CCCC1C2CCC3C2CCC4C5CCCCC5CCC43

>  <np_likeness>  (1663) 
2.86

>  <chemical_class>  (1663) 
Steroids and steroid derivatives

>  <chemical_sub_class>  (1663) 
Oxosteroids

>  <chemical_super_class>  (1663) 
Lipids and lipid-like molecules

>  <direct_parent_classification>  (1663) 
3-oxosteroids

>  <np_classifier_pathway>  (1663) 
Terpenoids

>  <np_classifier_superclass>  (1663) 
Triterpenoids

>  <np_classifier_class>  (1663) 
Dammarane and Protostane triterpenoids

>  <np_classifier_is_glycoside>  (1663) 
False

>  <organisms>  (1663) 
Agave lecheguilla|Aglaia abbreviata|Aglaia elaeagnoidea|Aglaia leucophylla|Aglaia tomentosa|Ailanthus altissima|Betula platyphylla|Betula platyphylla var. japonica|Boreostereum vibrans|Cabralea eichleriana|Cabralea polytricha|Cassia pudibunda|Cleome africana|Cleome amblyocarpa|Dysoxylum binectariferum|Dysoxylum cauliflorum|Dysoxylum ficiforme|Dysoxylum gotadhora|Esenbeckia almawillia|Tylophora crebriflora|dysoxylum binecteriferum

>  <collections>  (1663) 
ANPDB|Australian natural products|CMAUP (cCollective molecular activities of useful plants)|ChEBI NPs|KNApSaCK|Latin America dataset|NANPDB (Natural Products from Northern African Sources)|NPACT|NPASS|NuBBEDB|Super Natural II|WikiData Natural Products|ZINC NP

>  <dois>  (1663) 
10.1016/0040-4020(72)80138-8|10.1016/S0031-9422(00)89545-X|10.1016/S0031-9422(96)00681-4|10.1016/S0031-9422(99)00053-9|10.1016/S0040-4039(98)02657-4|10.1016/j.phytochem.2012.10.008|10.1021/NP060631S|10.1021/NP100599G|10.1021/NP400700G|10.1021/acs.jnatprod.8b00208|10.1021/np060631s|10.1021/np100599g|10.1021/np400700g

>  <synonyms>  (1663) 
(20S)-23,24-epoxy-25,26,27-trinordammarane-3,24-dione|(5S)-5-methyl-5-[(5R,8R,9R,10R,13R,14R,17S)-4,4,8,10,14-pentamethyl-3-oxo-1,2,5,6,7,9,11,12,13,15,16,17-dodecahydrocyclopenta[a]phenanthren-17-yl]oxolan-2-one|(5alpha)-4,4,8,14-tetramethyl-20,24-epoxy-18-norcholane-3,24-dione|18-Nor-5-cholan-24-oic acid, 20-hydroxy-4,4,8,14-tetramethyl-3-oxo-, -lactone, (20S)-; 18-Nor-5-cholanic acid, 20-hydroxy-4,4,8,14-tetramethyl-3-oxo-, -lactone|18-Norcholan-24-oic acid, 20-hydroxy-4,4,8,14-tetramethyl-3-oxo-, gamma-lactone, (5alpha)-|19865-87-3|AKOS032962392|CHEBI:70268|CHEMBL225315|Cabralealactone|DTXSID801316890|FS-9520|Q27138607|cabralelactone

>  <cas>  (1663) 
19865-87-3

$$$$

     RDKit          2D

 31 33  0  0  0  0  0  0  0  0999 V2000
   -5.2903    4.6981    0.0000 C   0  0  0  0  0  0  0  0  0  0  0  0
   -4.0305    3.8839    0.0000 C   0  0  0  0  0  0  0  0  0  0  0  0
   -2.6955    4.5679    0.0000 O   0  0  0  0  0  0  0  0  0  0  0  0
   -4.1057    2.3858    0.0000 C   0  0  0  0  0  0  0  0  0  0  0  0
   -5.4407    1.7019    0.0000 C   0  0  0  0  0  0  0  0  0  0  0  0
   -2.8459    1.5716    0.0000 C   0  0  0  0  0  0  0  0  0  0  0  0
   -1.5109    2.2556    0.0000 O   0  0  0  0  0  0  0  0  0  0  0  0
   -2.9211    0.0735    0.0000 C   0  0  0  0  0  0  0  0  0  0  0  0
   -4.1773   -0.7462    0.0000 C   0  0  0  0  0  0  0  0  0  0  0  0
   -5.5788   -0.2117    0.0000 O   0  0  0  0  0  0  0  0  0  0  0  0
   -3.7859   -2.1942    0.0000 O   0  0  0  0  0  0  0  0  0  0  0  0
   -2.2878   -2.2694    0.0000 C   0  0  0  0  0  0  0  0  0  0  0  0
   -2.9658   -3.6074    0.0000 C   0  0  0  0  0  0  0  0  0  0  0  0
   -1.3412   -3.4331    0.0000 C   0  0  0  0  0  0  0  0  0  0  0  0
   -1.8757   -4.8346    0.0000 O   0  0  0  0  0  0  0  0  0  0  0  0
    0.1398   -3.1952    0.0000 C   0  0  0  0  0  0  0  0  0  0  0  0
    1.0864   -4.3588    0.0000 Cl  0  0  0  0  0  0  0  0  0  0  0  0
    0.6743   -1.7936    0.0000 C   0  0  0  0  0  0  0  0  0  0  0  0
    2.1553   -1.5557    0.0000 C   0  0  0  0  0  0  0  0  0  0  0  0
    2.6897   -0.1541    0.0000 C   0  0  0  0  0  0  0  0  0  0  0  0
    4.1708    0.0838    0.0000 C   0  0  0  0  0  0  0  0  0  0  0  0
    4.7052    1.4853    0.0000 C   0  0  0  0  0  0  0  0  0  0  0  0
    6.1862    1.7233    0.0000 C   0  0  0  0  0  0  0  0  0  0  0  0
    6.7207    3.1248    0.0000 C   0  0  0  0  0  0  0  0  0  0  0  0
    7.1328    0.5596    0.0000 C   0  0  0  0  0  0  0  0  0  0  0  0
    8.6138    0.7975    0.0000 C   0  0  0  0  0  0  0  0  0  0  0  0
    6.5983   -0.8419    0.0000 O   0  0  0  0  0  0  0  0  0  0  0  0
    1.7432    1.0095    0.0000 O   0  0  0  0  0  0  0  0  0  0  0  0
    0.2622    0.7716    0.0000 C   0  0  0  0  0  0  0  0  0  0  0  0
   -0.2723   -0.6300    0.0000 C   0  0  0  0  0  0  0  0  0  0  0  0
   -1.7533   -0.8679    0.0000 C   0  0  0  0  0  0  0  0  0  0  0  0
  2  1  1  6
  2  3  1  0
  2  4  1  0
  4  5  1  1
  4  6  1  0
  6  7  2  0
  8  6  1  1
  8  9  1  0
  9 10  2  0
  9 11  1  0
 11 12  1  0
 12 13  1  6
 12 14  1  0
 14 15  2  0
 14 16  1  0
 16 17  1  0
 16 18  2  0
 18 19  1  0
 19 20  2  0
 20 21  1  0
 21 22  2  0
 22 23  1  0
 23 24  1  1
 23 25  1  0
 25 26  1  1
 25 27  1  0
 20 28  1  0
 28 29  1  0
 29 30  2  0
 31 30  1  1
 31  8  1  0
 31 12  1  0
 30 18  1  0
M  END
>  <identifier>  (1664) 
CNP0187259.1

>  <canonical_smiles>  (1664) 
C[C@H](O)[C@H](C)C(=O)[C@@H]1C(=O)O[C@]2(C)C(=O)C(Cl)=C3C=C(/C=C/[C@@H](C)[C@@H](C)O)OC=C3[C@H]12

>  <standard_inchi>  (1664) 
InChI=1S/C23H27ClO7/c1-10(12(3)25)6-7-14-8-15-16(9-30-14)18-17(20(27)11(2)13(4)26)22(29)31-23(18,5)21(28)19(15)24/h6-13,17-18,25-26H,1-5H3/b7-6+/t10-,11+,12-,13+,17-,18-,23+/m1/s1

>  <standard_inchi_key>  (1664) 
MEPQPODJTXSHEP-HETSEVKPSA-N

>  <name>  (1664) 
12Beta-Hydroxychaetoviridin C

>  <iupac_name>  (1664) 
(6~{a}~{S},9~{R},9~{a}~{S})-5-chloro-9-[(2~{S},3~{S})-3-hydroxy-2-methyl-butanoyl]-3-[(~{E},3~{R},4~{R})-4-hydroxy-3-methyl-pent-1-enyl]-6~{a}-methyl-9,9~{a}-dihydrofuro[2,3-h]isochromene-6,8-dione

>  <annotation_level>  (1664) 
5

>  <total_atom_count>  (1664) 
58

>  <heavy_atom_count>  (1664) 
31

>  <molecular_weight>  (1664) 
450.92

>  <exact_molecular_weight>  (1664) 
450.14453

>  <molecular_formula>  (1664) 
C23H27ClO7

>  <alogp>  (1664) 
2.57

>  <topological_polar_surface_area>  (1664) 
110.13

>  <rotatable_bond_count>  (1664) 
6

>  <hydrogen_bond_acceptors>  (1664) 
7

>  <hydrogen_bond_donors>  (1664) 
2

>  <hydrogen_bond_acceptors_lipinski>  (1664) 
7

>  <hydrogen_bond_donors_lipinski>  (1664) 
2

>  <lipinski_rule_of_five_violations>  (1664) 
0

>  <aromatic_rings_count>  (1664) 
0

>  <qed_drug_likeliness>  (1664) 
0.47

>  <formal_charge>  (1664) 
0

>  <fractioncsp3>  (1664) 
0.52

>  <number_of_minimal_rings>  (1664) 
3

>  <van_der_walls_volume>  (1664) 
393.30

>  <contains_sugar>  (1664) 
False

>  <contains_ring_sugars>  (1664) 
False

>  <contains_linear_sugars>  (1664) 
False

>  <murcko_framework>  (1664) 
O1C=CC2=CCC3OCCC3C2=C1

>  <np_likeness>  (1664) 
2.69

>  <chemical_class>  (1664) 
Organooxygen compounds

>  <chemical_sub_class>  (1664) 
Carbonyl compounds

>  <chemical_super_class>  (1664) 
Organic oxygen compounds

>  <direct_parent_classification>  (1664) 
Cyclohexenones

>  <np_classifier_pathway>  (1664) 
Polyketides

>  <np_classifier_superclass>  (1664) 
Chromanes

>  <np_classifier_class>  (1664) 
Azaphilones

>  <np_classifier_is_glycoside>  (1664) 
False

>  <organisms>  (1664) 
Chaetomium globosum

>  <collections>  (1664) 
ChEBI NPs|Latin America dataset|NPASS|NuBBEDB|WikiData Natural Products

>  <dois>  (1664) 
10.1021/NP200110F|10.1021/np200110f

>  <synonyms>  (1664) 
12\u221a\u00e9\u00ac\u2264-hydroxychaetoviridin C|CHEBI:67618|CHEMBL1802157|Q27136085|rel-(6aS,9R,9aS)-5-chloro-9-[(2S,3S)-3-hydroxy-2-methylbutanoyl]-3-[(1E,3R,4R)-4-hydroxy-3-methylpent-1-en-1-yl]-6a-methyl-9,9a-dihydro-6H-furo[2,3-h]isochromene-6,8(6aH)-dione

>  <cas>  (1664) 
nan

$$$$

     RDKit          2D

 34 38  0  0  0  0  0  0  0  0999 V2000
   -8.8628    1.3299    0.0000 C   0  0  0  0  0  0  0  0  0  0  0  0
   -7.3631    1.3605    0.0000 C   0  0  0  0  0  0  0  0  0  0  0  0
   -6.6398    2.6746    0.0000 O   0  0  0  0  0  0  0  0  0  0  0  0
   -6.5868    0.0770    0.0000 O   0  0  0  0  0  0  0  0  0  0  0  0
   -5.0871    0.1076    0.0000 C   0  0  0  0  0  0  0  0  0  0  0  0
   -4.3638    1.4217    0.0000 C   0  0  0  0  0  0  0  0  0  0  0  0
   -2.8641    1.4523    0.0000 C   0  0  0  0  0  0  0  0  0  0  0  0
   -2.0877    0.1688    0.0000 C   0  0  0  0  0  0  0  0  0  0  0  0
   -1.3644    1.4829    0.0000 C   0  0  0  0  0  0  0  0  0  0  0  0
   -0.5880    0.1994    0.0000 C   0  0  0  0  0  0  0  0  0  0  0  0
    0.1353    1.5135    0.0000 C   0  0  0  0  0  0  0  0  0  0  0  0
    1.6350    1.5441    0.0000 C   0  0  0  0  0  0  0  0  0  0  0  0
    2.4113    0.2606    0.0000 C   0  0  0  0  0  0  0  0  0  0  0  0
    3.1347    1.5747    0.0000 C   0  0  0  0  0  0  0  0  0  0  0  0
    3.9110    0.2912    0.0000 C   0  0  0  0  0  0  0  0  0  0  0  0
    4.6344    1.6053    0.0000 C   0  0  0  0  0  0  0  0  0  0  0  0
    3.8580    2.8887    0.0000 C   0  0  0  0  0  0  0  0  0  0  0  0
    6.1341    1.6358    0.0000 C   0  0  0  0  0  0  0  0  0  0  0  0
    6.8574    2.9499    0.0000 C   0  0  0  0  0  0  0  0  0  0  0  0
    6.9104    0.3524    0.0000 C   0  0  0  0  0  0  0  0  0  0  0  0
    6.1870   -0.9617    0.0000 C   0  0  0  0  0  0  0  0  0  0  0  0
    4.6874   -0.9923    0.0000 C   0  0  0  0  0  0  0  0  0  0  0  0
    5.4637   -2.2758    0.0000 C   0  0  0  0  0  0  0  0  0  0  0  0
    3.9640   -2.3063    0.0000 C   0  0  0  0  0  0  0  0  0  0  0  0
    2.4643   -2.3369    0.0000 C   0  0  0  0  0  0  0  0  0  0  0  0
    1.6880   -1.0535    0.0000 C   0  0  0  0  0  0  0  0  0  0  0  0
    0.9646   -2.3675    0.0000 C   0  0  0  0  0  0  0  0  0  0  0  0
    0.1883   -1.0841    0.0000 C   0  0  0  0  0  0  0  0  0  0  0  0
   -0.5351   -2.3981    0.0000 C   0  0  0  0  0  0  0  0  0  0  0  0
   -2.0347   -2.4287    0.0000 C   0  0  0  0  0  0  0  0  0  0  0  0
   -2.8111   -1.1452    0.0000 C   0  0  0  0  0  0  0  0  0  0  0  0
   -4.3108   -1.1758    0.0000 C   0  0  0  0  0  0  0  0  0  0  0  0
   -4.0202   -2.6474    0.0000 C   0  0  0  0  0  0  0  0  0  0  0  0
   -5.7095   -1.7175    0.0000 C   0  0  0  0  0  0  0  0  0  0  0  0
  1  2  1  0
  2  3  2  0
  2  4  1  0
  5  4  1  1
  5  6  1  0
  6  7  1  0
  7  8  1  0
  8  9  1  1
  8 10  1  0
 10 11  1  1
 11 12  1  0
 12 13  1  0
 13 14  1  6
 13 15  1  0
 15 16  1  0
 16 17  1  1
 16 18  1  0
 18 19  1  6
 18 20  1  0
 20 21  1  0
 21 22  1  0
 22 23  1  1
 22 24  1  0
 24 25  1  0
 25 26  1  0
 26 27  1  1
 26 28  1  0
 28 29  2  0
 29 30  1  0
 31 30  1  1
 31 32  1  0
 32 33  1  0
 32 34  1  0
 32  5  1  0
 31  8  1  0
 28 10  1  0
 26 13  1  0
 15 22  1  6
M  END
>  <identifier>  (1665) 
CNP0261089.1

>  <canonical_smiles>  (1665) 
CC(=O)O[C@H]1CC[C@]2(C)[C@H]3CC[C@@]4(C)[C@@H]5[C@@H](C)[C@H](C)CC[C@]5(C)CC[C@]4(C)C3=CC[C@H]2C1(C)C

>  <standard_inchi>  (1665) 
InChI=1S/C32H52O2/c1-20-12-15-29(6)18-19-31(8)24-10-11-25-28(4,5)26(34-22(3)33)14-16-30(25,7)23(24)13-17-32(31,9)27(29)21(20)2/h10,20-21,23,25-27H,11-19H2,1-9H3/t20-,21+,23+,25+,26+,27-,29-,30-,31-,32+/m1/s1

>  <standard_inchi_key>  (1665) 
DTHUXXMWYWKQKX-QXZXTIJDSA-N

>  <name>  (1665) 
Bauerenol acetate

>  <iupac_name>  (1665) 
[(3~{S},4~{a}~{R},6~{a}~{S},6~{b}~{S},8~{a}~{R},11~{R},12~{S},12~{a}~{R},14~{a}~{R},14~{b}~{R})-4,4,6~{a},6~{b},8~{a},11,12,14~{b}-octamethyl-2,3,4~{a},5,7,8,9,10,11,12,12~{a},13,14,14~{a}-tetradecahydro-1~{H}-picen-3-yl] acetate

>  <annotation_level>  (1665) 
5

>  <total_atom_count>  (1665) 
86

>  <heavy_atom_count>  (1665) 
34

>  <molecular_weight>  (1665) 
468.77

>  <exact_molecular_weight>  (1665) 
468.39673

>  <molecular_formula>  (1665) 
C32H52O2

>  <alogp>  (1665) 
8.60

>  <topological_polar_surface_area>  (1665) 
26.30

>  <rotatable_bond_count>  (1665) 
1

>  <hydrogen_bond_acceptors>  (1665) 
2

>  <hydrogen_bond_donors>  (1665) 
0

>  <hydrogen_bond_acceptors_lipinski>  (1665) 
2

>  <hydrogen_bond_donors_lipinski>  (1665) 
0

>  <lipinski_rule_of_five_violations>  (1665) 
1

>  <aromatic_rings_count>  (1665) 
0

>  <qed_drug_likeliness>  (1665) 
0.28

>  <formal_charge>  (1665) 
0

>  <fractioncsp3>  (1665) 
0.91

>  <number_of_minimal_rings>  (1665) 
5

>  <van_der_walls_volume>  (1665) 
482.87

>  <contains_sugar>  (1665) 
False

>  <contains_ring_sugars>  (1665) 
False

>  <contains_linear_sugars>  (1665) 
False

>  <murcko_framework>  (1665) 
C1=C2C(CCC3C2CCC4CCCCC43)C5CCCCC5C1

>  <np_likeness>  (1665) 
3.29

>  <chemical_class>  (1665) 
Prenol lipids

>  <chemical_sub_class>  (1665) 
Triterpenoids

>  <chemical_super_class>  (1665) 
Lipids and lipid-like molecules

>  <direct_parent_classification>  (1665) 
Taraxastane, ursane, and bauerane triterpenoids

>  <np_classifier_pathway>  (1665) 
Terpenoids

>  <np_classifier_superclass>  (1665) 
Triterpenoids

>  <np_classifier_class>  (1665) 
Bauerane triterpenoids

>  <np_classifier_is_glycoside>  (1665) 
False

>  <organisms>  (1665) 
Actinopyga lecanora|Ardisia japonica|Artemisia rubripes|Asteraceae|Bellis perennis|Dioscorea japonica|Eupatorium japonicum|Ixeris chinensis|Lactuca indica|Mochinea polymorpha|Pandanus amaryllifolius|Picris hieracioides|Pterospermum lanceaefolium|Salvia mellifera|Sium lineare|Stevia salicifolia|Taxus chienii|Thymus godayanus|Wallemia sebi

>  <collections>  (1665) 
Australian natural products|CMAUP (cCollective molecular activities of useful plants)|Latin America dataset|NPASS|NuBBEDB|Super Natural II|TCMDB-Taiwan (Traditional Chinese Medicine database)|WikiData Natural Products|ZINC NP

>  <dois>  (1665) 
10.1016/0031-9422(96)00108-2|10.1021/NP060359M|10.1021/NP50032A021|10.1021/np50032a021|10.1248/CPB.43.1634|10.1248/CPB.44.509|10.1248/CPB.59.767|10.1248/cpb.43.1634

>  <synonyms>  (1665) 
(3S,4AR,6BS,8AR,11R,12S,12AR,12BS,14AR,14BR)-4,4,6B,8A,11,12,12B,14B-OCTAMETHYL-2,3,4A,5,7,8,9,10,11,12,12A,13,14,14A-TETRADECAHYDRO-1H-PICEN-3-YL ACETATE|(4,4,6a,6b,8a,11,12,14b-octamethyl-2,3,4a,5,7,8,9,10,11,12,12a,13,14,14a-tetradecahydro-1H-picen-3-yl) acetate|17020-04-1|26-Norurs-7-en-3-ol, 13-methyl-, 3-acetate, (3b,13a,14b)-|26-Norurs-7-en-3-ol, 13-methyl-, acetate, (3,13,14)- ; Bauerenol acetate ; D:C-Friedours-7-en-3-ol, acetate, (3)-; D:C-Friedours-7-en-3-ol, acetate; Bauerenyl acetate|4,4,6b,8a,11,12,12b,14b-octamethyl-1,2,3,4,4a,5,6b,7,8,8a,9,10,11,12,12a,12b,13,14,14a,14b-icosahydropicen-3-yl acetate|AKOS040761405|Bauerenol (7-bauerenenol) acetate|Bauerenyl acetate|CHEBI:179066|DTHUXXMWYWKQKX-QXZXTIJDSA-N|DTXSID00937746|FS-10473|Ilexol, acetate|NSC741684|[(3S,4aR,6aS,6bS,8aR,11R,12S,12aR,14aR,14bR)-4,4,6a,6b,8a,11,12,14b-octamethyl-2,3,4a,5,7,8,9,10,11,12,12a,13,14,14a-tetradecahydro-1H-picen-3-yl] acetate

>  <cas>  (1665) 
17020-04-1

$$$$

     RDKit          2D

 24 25  0  0  0  0  0  0  0  0999 V2000
   -8.7096    1.1544    0.0000 C   0  0  0  0  0  0  0  0  0  0  0  0
   -7.4590    0.3261    0.0000 C   0  0  0  0  0  0  0  0  0  0  0  0
   -7.5510   -1.1711    0.0000 C   0  0  0  0  0  0  0  0  0  0  0  0
   -6.1164    0.9950    0.0000 C   0  0  0  0  0  0  0  0  0  0  0  0
   -4.8658    0.1667    0.0000 C   0  0  0  0  0  0  0  0  0  0  0  0
   -3.5232    0.8356    0.0000 C   0  0  0  0  0  0  0  0  0  0  0  0
   -2.2726    0.0073    0.0000 C   0  0  0  0  0  0  0  0  0  0  0  0
   -3.3055   -1.0804    0.0000 C   0  0  0  0  0  0  0  0  0  0  0  0
   -1.6741    1.3827    0.0000 C   0  0  0  0  0  0  0  0  0  0  0  0
   -0.1837    1.5521    0.0000 C   0  0  0  0  0  0  0  0  0  0  0  0
    0.7082    0.3460    0.0000 C   0  0  0  0  0  0  0  0  0  0  0  0
    0.1097   -1.0294    0.0000 C   0  0  0  0  0  0  0  0  0  0  0  0
    1.0015   -2.2355    0.0000 C   0  0  0  0  0  0  0  0  0  0  0  0
    2.4919   -2.0661    0.0000 C   0  0  0  0  0  0  0  0  0  0  0  0
    3.3838   -3.2722    0.0000 C   0  0  0  0  0  0  0  0  0  0  0  0
    3.0905   -0.6907    0.0000 C   0  0  0  0  0  0  0  0  0  0  0  0
    4.5809   -0.5214    0.0000 C   0  0  0  0  0  0  0  0  0  0  0  0
    5.1794    0.8540    0.0000 C   0  0  0  0  0  0  0  0  0  0  0  0
    6.6698    1.0234    0.0000 C   0  0  0  0  0  0  0  0  0  0  0  0
    7.2684    2.3988    0.0000 C   0  0  0  0  0  0  0  0  0  0  0  0
    7.5617   -0.1827    0.0000 C   0  0  0  0  0  0  0  0  0  0  0  0
    2.1986    0.5153    0.0000 C   0  0  0  0  0  0  0  0  0  0  0  0
    2.7972    1.8908    0.0000 O   0  0  0  0  0  0  0  0  0  0  0  0
   -1.3808   -1.1988    0.0000 O   0  0  0  0  0  0  0  0  0  0  0  0
  1  2  1  0
  2  3  1  0
  2  4  2  0
  4  5  1  0
  5  6  2  0
  6  7  1  0
  7  8  1  0
  7  9  1  0
  9 10  1  0
 10 11  1  0
 11 12  2  0
 12 13  1  0
 13 14  2  0
 14 15  1  0
 14 16  1  0
 16 17  1  0
 17 18  1  0
 18 19  2  0
 19 20  1  0
 19 21  1  0
 16 22  2  0
 22 23  1  0
 12 24  1  0
 24  7  1  0
 22 11  1  0
M  END
>  <identifier>  (1666) 
CNP0301997.3

>  <canonical_smiles>  (1666) 
CC(C)=C/C=C/C1(C)CCC2=C(C=C(C)C(CC=C(C)C)=C2O)O1

>  <standard_inchi>  (1666) 
InChI=1S/C22H30O2/c1-15(2)8-7-12-22(6)13-11-19-20(24-22)14-17(5)18(21(19)23)10-9-16(3)4/h7-9,12,14,23H,10-11,13H2,1-6H3/b12-7+

>  <standard_inchi_key>  (1666) 
ORUDNNWDGASPOM-KPKJPENVSA-N

>  <name>  (1666) 
nan

>  <iupac_name>  (1666) 
nan

>  <annotation_level>  (1666) 
0

>  <total_atom_count>  (1666) 
54

>  <heavy_atom_count>  (1666) 
24

>  <molecular_weight>  (1666) 
326.48

>  <exact_molecular_weight>  (1666) 
326.22458

>  <molecular_formula>  (1666) 
C22H30O2

>  <alogp>  (1666) 
5.82

>  <topological_polar_surface_area>  (1666) 
29.46

>  <rotatable_bond_count>  (1666) 
4

>  <hydrogen_bond_acceptors>  (1666) 
2

>  <hydrogen_bond_donors>  (1666) 
1

>  <hydrogen_bond_acceptors_lipinski>  (1666) 
2

>  <hydrogen_bond_donors_lipinski>  (1666) 
1

>  <lipinski_rule_of_five_violations>  (1666) 
1

>  <aromatic_rings_count>  (1666) 
1

>  <qed_drug_likeliness>  (1666) 
0.56

>  <formal_charge>  (1666) 
0

>  <fractioncsp3>  (1666) 
0.46

>  <number_of_minimal_rings>  (1666) 
2

>  <van_der_walls_volume>  (1666) 
336.62

>  <contains_sugar>  (1666) 
False

>  <contains_ring_sugars>  (1666) 
False

>  <contains_linear_sugars>  (1666) 
False

>  <murcko_framework>  (1666) 
O1c2ccccc2CCC1

>  <np_likeness>  (1666) 
2.64

>  <chemical_class>  (1666) 
nan

>  <chemical_sub_class>  (1666) 
nan

>  <chemical_super_class>  (1666) 
nan

>  <direct_parent_classification>  (1666) 
nan

>  <np_classifier_pathway>  (1666) 
Polyketides

>  <np_classifier_superclass>  (1666) 
Meroterpenoids

>  <np_classifier_class>  (1666) 
Polyprenylated cyclic polyketides (Hop meroterpenoids)

>  <np_classifier_is_glycoside>  (1666) 
False

>  <organisms>  (1666) 
Peperomia obtusifolia

>  <collections>  (1666) 
Latin America dataset|NuBBEDB|WikiData Natural Products

>  <dois>  (1666) 
10.1055/S-0029-1185364|10.1055/s-0029-1185364

>  <synonyms>  (1666) 
nan

>  <cas>  (1666) 
nan

$$$$

     RDKit          2D

 26 28  0  0  0  0  0  0  0  0999 V2000
   -4.5766   -3.1905    0.0000 C   0  0  0  0  0  0  0  0  0  0  0  0
   -3.0853   -3.0289    0.0000 O   0  0  0  0  0  0  0  0  0  0  0  0
   -2.4797   -1.6566    0.0000 C   0  0  0  0  0  0  0  0  0  0  0  0
   -0.9884   -1.4950    0.0000 C   0  0  0  0  0  0  0  0  0  0  0  0
   -0.1028   -2.7057    0.0000 C   0  0  0  0  0  0  0  0  0  0  0  0
    1.3885   -2.5441    0.0000 C   0  0  0  0  0  0  0  0  0  0  0  0
    1.9941   -1.1718    0.0000 C   0  0  0  0  0  0  0  0  0  0  0  0
    3.4854   -1.0102    0.0000 O   0  0  0  0  0  0  0  0  0  0  0  0
    4.3710   -2.2209    0.0000 C   0  0  0  0  0  0  0  0  0  0  0  0
    5.8623   -2.0593    0.0000 C   0  0  0  0  0  0  0  0  0  0  0  0
    3.7653   -3.5931    0.0000 O   0  0  0  0  0  0  0  0  0  0  0  0
    1.1085    0.0389    0.0000 C   0  0  0  0  0  0  0  0  0  0  0  0
    0.6904    1.4794    0.0000 C   0  0  0  0  0  0  0  0  0  0  0  0
    1.7289    2.5618    0.0000 C   0  0  0  0  0  0  0  0  0  0  0  0
    1.3108    4.0023    0.0000 C   0  0  0  0  0  0  0  0  0  0  0  0
    2.3493    5.0847    0.0000 C   0  0  0  0  0  0  0  0  0  0  0  0
   -0.1458    4.3605    0.0000 C   0  0  0  0  0  0  0  0  0  0  0  0
    2.4546    0.7008    0.0000 O   0  0  0  0  0  0  0  0  0  0  0  0
    2.5544    2.1975    0.0000 C   0  0  0  0  0  0  0  0  0  0  0  0
   -0.3827   -0.1227    0.0000 C   0  0  0  0  0  0  0  0  0  0  0  0
   -1.2683    1.0879    0.0000 N   0  0  0  0  0  0  0  0  0  0  0  0
   -2.7596    0.9263    0.0000 C   0  0  0  0  0  0  0  0  0  0  0  0
   -3.3653   -0.4460    0.0000 C   0  0  0  0  0  0  0  0  0  0  0  0
   -4.8575   -0.2940    0.0000 C   0  0  0  0  0  0  0  0  0  0  0  0
   -5.1741    1.1722    0.0000 C   0  0  0  0  0  0  0  0  0  0  0  0
   -3.8775    1.9264    0.0000 O   0  0  0  0  0  0  0  0  0  0  0  0
  1  2  1  0
  2  3  1  0
  3  4  2  0
  4  5  1  0
  5  6  1  0
  6  7  1  0
  7  8  1  6
  8  9  1  0
  9 10  1  0
  9 11  2  0
  7 12  1  0
 12 13  1  6
 13 14  1  0
 14 15  2  0
 15 16  1  0
 15 17  1  0
 12 18  1  0
 18 19  1  0
 12 20  1  0
 20 21  2  0
 21 22  1  0
 22 23  2  0
 23 24  1  0
 24 25  2  0
 25 26  1  0
 23  3  1  0
 20  4  1  0
 26 22  1  0
M  END
>  <identifier>  (1667) 
CNP0170211.1

>  <canonical_smiles>  (1667) 
COC1=C2CC[C@@H](OC(C)=O)[C@](CC=C(C)C)(OC)C2=NC2=C1C=CO2

>  <standard_inchi>  (1667) 
InChI=1S/C20H25NO5/c1-12(2)8-10-20(24-5)16(26-13(3)22)7-6-14-17(23-4)15-9-11-25-19(15)21-18(14)20/h8-9,11,16H,6-7,10H2,1-5H3/t16-,20+/m1/s1

>  <standard_inchi_key>  (1667) 
OXMDOZHTPUDSEE-UZLBHIALSA-N

>  <name>  (1667) 
nan

>  <iupac_name>  (1667) 
[(7~{R},8~{R})-4,8-dimethoxy-8-(3-methylbut-2-enyl)-6,7-dihydro-5~{H}-furo[2,3-b]quinolin-7-yl] acetate

>  <annotation_level>  (1667) 
5

>  <total_atom_count>  (1667) 
51

>  <heavy_atom_count>  (1667) 
26

>  <molecular_weight>  (1667) 
359.42

>  <exact_molecular_weight>  (1667) 
359.17327

>  <molecular_formula>  (1667) 
C20H25NO5

>  <alogp>  (1667) 
3.91

>  <topological_polar_surface_area>  (1667) 
70.79

>  <rotatable_bond_count>  (1667) 
5

>  <hydrogen_bond_acceptors>  (1667) 
6

>  <hydrogen_bond_donors>  (1667) 
0

>  <hydrogen_bond_acceptors_lipinski>  (1667) 
6

>  <hydrogen_bond_donors_lipinski>  (1667) 
0

>  <lipinski_rule_of_five_violations>  (1667) 
0

>  <aromatic_rings_count>  (1667) 
2

>  <qed_drug_likeliness>  (1667) 
0.60

>  <formal_charge>  (1667) 
0

>  <fractioncsp3>  (1667) 
0.50

>  <number_of_minimal_rings>  (1667) 
3

>  <van_der_walls_volume>  (1667) 
331.51

>  <contains_sugar>  (1667) 
False

>  <contains_ring_sugars>  (1667) 
False

>  <contains_linear_sugars>  (1667) 
False

>  <murcko_framework>  (1667) 
n1c2occc2cc3c1CCCC3

>  <np_likeness>  (1667) 
2.25

>  <chemical_class>  (1667) 
Furopyridines

>  <chemical_sub_class>  (1667) 
Furopyridines

>  <chemical_super_class>  (1667) 
Organoheterocyclic compounds

>  <direct_parent_classification>  (1667) 
Furopyridines

>  <np_classifier_pathway>  (1667) 
Alkaloids

>  <np_classifier_superclass>  (1667) 
Tryptophan alkaloids

>  <np_classifier_class>  (1667) 
Quinoline alkaloids

>  <np_classifier_is_glycoside>  (1667) 
False

>  <organisms>  (1667) 
Almeidea coerulea|Almeidia coerulea|Conchocarpus coeruleus|Haplophyllum acutifolium|Hypericum perforatum

>  <collections>  (1667) 
KNApSaCK|Latin America dataset|NuBBEDB|Super Natural II|WikiData Natural Products|ZINC NP

>  <dois>  (1667) 
10.1007/BF02323307|10.1590/S0103-50531998000100007

>  <synonyms>  (1667) 
7-(O-Acetyl)haplophyllidine

>  <cas>  (1667) 
nan

$$$$

     RDKit          2D

 11 11  0  0  0  0  0  0  0  0999 V2000
   -3.6025   -1.3505    0.0000 O   0  0  0  0  0  0  0  0  0  0  0  0
   -3.1764    0.0877    0.0000 C   0  0  0  0  0  0  0  0  0  0  0  0
   -4.2089    1.1758    0.0000 O   0  0  0  0  0  0  0  0  0  0  0  0
   -1.7178    0.4378    0.0000 C   0  0  0  0  0  0  0  0  0  0  0  0
   -0.6853   -0.6503    0.0000 C   0  0  0  0  0  0  0  0  0  0  0  0
    0.7732   -0.3002    0.0000 C   0  0  0  0  0  0  0  0  0  0  0  0
    1.1993    1.1380    0.0000 C   0  0  0  0  0  0  0  0  0  0  0  0
    2.6579    1.4881    0.0000 C   0  0  0  0  0  0  0  0  0  0  0  0
    3.6904    0.4000    0.0000 C   0  0  0  0  0  0  0  0  0  0  0  0
    3.2643   -1.0382    0.0000 C   0  0  0  0  0  0  0  0  0  0  0  0
    1.8057   -1.3883    0.0000 C   0  0  0  0  0  0  0  0  0  0  0  0
  1  2  2  0
  2  3  1  0
  2  4  1  0
  4  5  1  0
  5  6  1  0
  6  7  2  0
  7  8  1  0
  8  9  2  0
  9 10  1  0
 10 11  2  0
 11  6  1  0
M  END
>  <identifier>  (1668) 
CNP0298094.0

>  <canonical_smiles>  (1668) 
O=C(O)CCC1=CC=CC=C1

>  <standard_inchi>  (1668) 
InChI=1S/C9H10O2/c10-9(11)7-6-8-4-2-1-3-5-8/h1-5H,6-7H2,(H,10,11)

>  <standard_inchi_key>  (1668) 
XMIIGOLPHOKFCH-UHFFFAOYSA-N

>  <name>  (1668) 
hydrocinnamic acid

>  <iupac_name>  (1668) 
3-phenylpropanoic acid

>  <annotation_level>  (1668) 
5

>  <total_atom_count>  (1668) 
21

>  <heavy_atom_count>  (1668) 
11

>  <molecular_weight>  (1668) 
150.18

>  <exact_molecular_weight>  (1668) 
150.06808

>  <molecular_formula>  (1668) 
C9H10O2

>  <alogp>  (1668) 
1.70

>  <topological_polar_surface_area>  (1668) 
37.30

>  <rotatable_bond_count>  (1668) 
3

>  <hydrogen_bond_acceptors>  (1668) 
1

>  <hydrogen_bond_donors>  (1668) 
1

>  <hydrogen_bond_acceptors_lipinski>  (1668) 
1

>  <hydrogen_bond_donors_lipinski>  (1668) 
1

>  <lipinski_rule_of_five_violations>  (1668) 
0

>  <aromatic_rings_count>  (1668) 
1

>  <qed_drug_likeliness>  (1668) 
0.71

>  <formal_charge>  (1668) 
0

>  <fractioncsp3>  (1668) 
0.22

>  <number_of_minimal_rings>  (1668) 
1

>  <van_der_walls_volume>  (1668) 
145.30

>  <contains_sugar>  (1668) 
False

>  <contains_ring_sugars>  (1668) 
False

>  <contains_linear_sugars>  (1668) 
False

>  <murcko_framework>  (1668) 
c1ccccc1

>  <np_likeness>  (1668) 
0.14

>  <chemical_class>  (1668) 
Phenylpropanoic acids

>  <chemical_sub_class>  (1668) 
Phenylpropanoic acids

>  <chemical_super_class>  (1668) 
Phenylpropanoids and polyketides

>  <direct_parent_classification>  (1668) 
Phenylpropanoic acids

>  <np_classifier_pathway>  (1668) 
Shikimates and Phenylpropanoids

>  <np_classifier_superclass>  (1668) 
nan

>  <np_classifier_class>  (1668) 
nan

>  <np_classifier_is_glycoside>  (1668) 
False

>  <organisms>  (1668) 
Aloe africana|Aloe ferox|Aloe spicata|Aloe vera|Alpinia officinarum|Amaranthus hypochondriacus|Amphilophis odorata|Aptenia cordifolia|Aquilaria sinensis|Artemisia judaica|Bacillus licheniformis|Berberis repens|Campanula kemulariae|Cannabis sativa|Cinamomum cassia|Cinnamomum aromaticum|Croton laccifer|Cucumis sativus|Dendrilla cavernosa|Diphasiastrum thyoides|Escherichia coli|Euphorbia myrsinites|Fomes robiniae|Fragaria|Globularia cordifolia|Gymnothorax javanicus|Helicteres angustifolia|Hesperis matronalis|Hippeastrum papilio|Homo sapiens|Hoya australis|Hoya bandaensis|Hoya bella|Hoya cinnamomifolia|Hoya coronaria|Hoya crassipes|Hoya diversifolia|Hoya fraterna|Hoya imperialis|Hoya lacunosa|Hoya latifolia|Hoya longifolia|Hoya macrophylla|Hoya multiflora|Hoya obovata|Hoya pseudolanceolata|Hoya shepherdii|Hoya tsangii|Hygrophorus chrysodon|Imperata cylindrica|Ips confusus|Limnocharis flava|Liquidambar orientalis|Lonchocarpus violaceus|Medicago sativa|Millettia ferruginea|Mycale parishi|Osmorhiza aristata|Oxalis pes-caprae|Phaseolus vulgaris|Piper lolot|Piper sarmentosum|Polylepis racemosa|Polyporus dryadeus|Populus alba|Populus balsamifera|Populus candicans|Potentilla kleiniana|Prunus mume|Ptarmica ptarmicifolia|Sedum litoreum|Senecio viscosus|Streptomyces|Streptomyces ANU 6277|Streptomyces ambofaciens|Streptomyces ambofaciens BI0048|Syzygium aromaticum|Teucrium asiaticum|Thermopsis dolichocarpa|Trichilia claussenii|Vicia amurensis|Viscum coloratum|Wyethia mollis|Zanthoxylum fraxineum|Ziziphus jujuba|liquorice

>  <collections>  (1668) 
Australian natural products|CMAUP (cCollective molecular activities of useful plants)|ChEBI NPs|ChemSpider NPs|DrugBankNP|EMNPD|Exposome-explorer|FooDB|HIM (Herbal Ingredients in-vivo Metabolism database)|Latin America dataset|NPASS|NuBBEDB|Phenol-explorer|StreptomeDB|Super Natural II|TCMDB-Taiwan (Traditional Chinese Medicine database)|TCMID (Traditional Chinese Medicine Integrated Database)|UNPD (Universal Natural Products Database)|WikiData Natural Products

>  <dois>  (1668) 
10.1002/CBDV.200800179|10.1002/cbdv.200790016|10.1007/BF02065988|10.1016/0031-9422(94)00332-N|10.1016/J.BMC.2005.08.003|10.1016/J.BMC.2009.06.057|10.1016/S0031-9422(00)82606-0|10.1016/j.bmc.2009.06.057|10.1021/JF071110T|10.1021/JF071963L|10.1021/JF60199A018|10.1021/JF60214A042|10.1021/NP50008A001|10.1021/pr2003598|10.1038/MSB.2011.65|10.1038/msb.2011.65|10.1046/J.1439-037X.2002.00574.X|10.1073/pnas.1114410109|10.1080/10412905.1990.9697881|10.1248/YAKUSHI1947.99.11_1116|10.1515/ZNC-1989-5-603|10.1590/S0100-40422010000900005|10.3389/fmicb.2017.01201|10.3390/MD15120389|10.3390/MD8041203|10.3390/METABO4030599|10.3390/md15120389|10.3945/jn.109.113613

>  <synonyms>  (1668) 
.beta.-Phenylpropanoic acid|1ahx|1tog|1toi|1toj|3-PHENYLPROPIONIC ACID [FHFI]|3-PHENYLPROPIONIC ACID3-Phenyl-propionic acid|3-Phenyl-n-propionate|3-Phenyl-n-propionic acid|3-Phenylpropanoic acid|3-Phenylpropionic acid, 99%, FG|3-Phenylpropionic acid;3-Phenylpropanoic acid;3-Phenyl-n-propionic acid|3-Phenylpropionsaeure|3-phenylpropanoic acid;3-Phenylpropionic Acid|3-phenylpropionic acid|35845-62-6|3PP|3PP; 3-PHENYLPROPIONIC ACID|4-09-00-01752 (Beilstein Handbook Reference)|501-52-0|5Q445IN5CU|A851541|AI3-00892|AKOS000119624|AMY39410|BBL011572|BDBM50304072|BETA-PHENYLPROPIONIC ACID|BP-21020|BRN 0907515|BS-3829|Benzenepropanoic acid|Benzenepropionate|Benzylacetic acid|C05629|CAS-501-52-0|CCRIS 3199|CHEBI:28631|CHEMBL851|CS-W019781|DB-014319|DB02024|DTXCID0027064|DTXSID2047064|Dihydrocinnamic acid|E76D1F9D-CBB1-4B91-8949-75B4F6F4C481|EINECS 207-924-5|EN300-17962|F2191-0065|FEMA No. 2889|H0183|HCI|HY-Y1088|HYDROCINNAMIC ACID [MI]|HYDROCINNAMIC-D5 ACID|Hydrocinnamic Acid (3-Phenylpropanoic Acid)|Hydrocinnamic acid, 99%|Hydrocinnamic acid, analytical standard|Hydrocinnamic acid; 3-Phenylpropanoic acid; beta-Phenylpropionic acid|Hydrozimtsaeure|Hyrocinnamic acid|I(2)-phenylpropionic acid|InChI=1\/C9H10O2\/c10-9(11)7-6-8-4-2-1-3-5-8\/h1-5H,6-7H2,(H,10,11|MFCD00002771|NCGC00256189-01|NS00002042|NSC 9272|NSC-9272|PHENYL PROPIONIC ACID|Phenylpropanoate|Q4358522|SCHEMBL3419|STK286011|SY001654|Tox21_302329|UNII-5Q445IN5CU|W-105981|Z57127332|\u221a\u00e8\u201a\u00c4\u221e-fenil alcanoic acid|b-Phenylpropionate|beta-phenylpropionate|bmse000675|hydrocinnamate|omega-Phenylpropanoate|omega-Phenylpropanoic acid|s6254

>  <cas>  (1668) 
501-52-0|35845-62-6

$$$$

     RDKit          2D

 27 30  0  0  0  0  0  0  0  0999 V2000
    3.3943   -3.5574    0.0000 C   0  0  0  0  0  0  0  0  0  0  0  0
    3.3582   -2.0579    0.0000 C   0  0  0  0  0  0  0  0  0  0  0  0
    2.0415   -1.3393    0.0000 C   0  0  0  0  0  0  0  0  0  0  0  0
    2.0054    0.1602    0.0000 C   0  0  0  0  0  0  0  0  0  0  0  0
    3.3900   -0.4167    0.0000 C   0  0  0  0  0  0  0  0  0  0  0  0
    4.5819    0.4939    0.0000 C   0  0  0  0  0  0  0  0  0  0  0  0
    5.9665   -0.0830    0.0000 O   0  0  0  0  0  0  0  0  0  0  0  0
    6.1592   -1.5706    0.0000 C   0  0  0  0  0  0  0  0  0  0  0  0
    4.3893    1.9815    0.0000 C   0  0  0  0  0  0  0  0  0  0  0  0
    5.5812    2.8921    0.0000 O   0  0  0  0  0  0  0  0  0  0  0  0
    3.0047    2.5584    0.0000 C   0  0  0  0  0  0  0  0  0  0  0  0
    1.8127    1.6478    0.0000 C   0  0  0  0  0  0  0  0  0  0  0  0
    0.3384    1.9243    0.0000 O   0  0  0  0  0  0  0  0  0  0  0  0
   -0.3801    0.6076    0.0000 C   0  0  0  0  0  0  0  0  0  0  0  0
   -1.8677    0.4149    0.0000 C   0  0  0  0  0  0  0  0  0  0  0  0
   -2.4446   -0.9697    0.0000 C   0  0  0  0  0  0  0  0  0  0  0  0
   -3.9322   -1.1623    0.0000 C   0  0  0  0  0  0  0  0  0  0  0  0
   -4.5092   -2.5469    0.0000 O   0  0  0  0  0  0  0  0  0  0  0  0
   -3.5985   -3.7389    0.0000 C   0  0  0  0  0  0  0  0  0  0  0  0
   -4.8428    0.0296    0.0000 C   0  0  0  0  0  0  0  0  0  0  0  0
   -6.3380    0.1505    0.0000 O   0  0  0  0  0  0  0  0  0  0  0  0
   -6.6851    1.6098    0.0000 C   0  0  0  0  0  0  0  0  0  0  0  0
   -5.4044    2.3908    0.0000 O   0  0  0  0  0  0  0  0  0  0  0  0
   -4.2659    1.4142    0.0000 C   0  0  0  0  0  0  0  0  0  0  0  0
   -2.7783    1.6069    0.0000 C   0  0  0  0  0  0  0  0  0  0  0  0
    0.6501   -0.4827    0.0000 C   0  0  0  0  0  0  0  0  0  0  0  0
    0.3737   -1.9570    0.0000 C   0  0  0  0  0  0  0  0  0  0  0  0
  1  2  2  0
  2  3  1  0
  4  3  1  1
  4  5  1  0
  5  6  2  0
  6  7  1  0
  7  8  1  0
  6  9  1  0
  9 10  2  0
  9 11  1  0
 11 12  2  0
 12 13  1  0
 13 14  1  0
 14 15  1  6
 15 16  2  0
 16 17  1  0
 17 18  1  0
 18 19  1  0
 17 20  2  0
 20 21  1  0
 21 22  1  0
 22 23  1  0
 23 24  1  0
 24 25  2  0
 14 26  1  0
 26 27  1  6
 12  4  1  0
 25 15  1  0
 26  4  1  0
 24 20  1  0
M  END
>  <identifier>  (1669) 
CNP0383772.1

>  <canonical_smiles>  (1669) 
C=CC[C@]12C=C(OC)C(=O)C=C1O[C@@H](C1=CC(OC)=C3OCOC3=C1)[C@H]2C

>  <standard_inchi>  (1669) 
InChI=1S/C21H22O6/c1-5-6-21-10-17(24-4)14(22)9-18(21)27-19(12(21)2)13-7-15(23-3)20-16(8-13)25-11-26-20/h5,7-10,12,19H,1,6,11H2,2-4H3/t12-,19-,21-/m1/s1

>  <standard_inchi_key>  (1669) 
URBCBHTUEUNACZ-PCFDJQJPSA-N

>  <name>  (1669) 
(2R,3S,3aS)-5-methoxy-2-(7-methoxy-1,3-benzodioxol-5-yl)-3-methyl-3a-prop-2-enyl-2,3-dihydro-1-benzofuran-6-one

>  <iupac_name>  (1669) 
(2~{R},3~{S},3~{a}~{S})-3~{a}-allyl-5-methoxy-2-(7-methoxy-1,3-benzodioxol-5-yl)-3-methyl-2,3-dihydrobenzofuran-6-one

>  <annotation_level>  (1669) 
5

>  <total_atom_count>  (1669) 
49

>  <heavy_atom_count>  (1669) 
27

>  <molecular_weight>  (1669) 
370.4

>  <exact_molecular_weight>  (1669) 
370.14164

>  <molecular_formula>  (1669) 
C21H22O6

>  <alogp>  (1669) 
3.69

>  <topological_polar_surface_area>  (1669) 
63.22

>  <rotatable_bond_count>  (1669) 
5

>  <hydrogen_bond_acceptors>  (1669) 
6

>  <hydrogen_bond_donors>  (1669) 
0

>  <hydrogen_bond_acceptors_lipinski>  (1669) 
6

>  <hydrogen_bond_donors_lipinski>  (1669) 
0

>  <lipinski_rule_of_five_violations>  (1669) 
0

>  <aromatic_rings_count>  (1669) 
1

>  <qed_drug_likeliness>  (1669) 
0.74

>  <formal_charge>  (1669) 
0

>  <fractioncsp3>  (1669) 
0.38

>  <number_of_minimal_rings>  (1669) 
4

>  <van_der_walls_volume>  (1669) 
nan

>  <contains_sugar>  (1669) 
False

>  <contains_ring_sugars>  (1669) 
False

>  <contains_linear_sugars>  (1669) 
False

>  <murcko_framework>  (1669) 
O1c2ccc(cc2OC1)C3OC4=CCC=CC4C3

>  <np_likeness>  (1669) 
2.36

>  <chemical_class>  (1669) 
2-arylbenzofuran flavonoids

>  <chemical_sub_class>  (1669) 
2-arylbenzofuran flavonoids

>  <chemical_super_class>  (1669) 
Phenylpropanoids and polyketides

>  <direct_parent_classification>  (1669) 
2-arylbenzofuran flavonoids

>  <np_classifier_pathway>  (1669) 
Shikimates and Phenylpropanoids

>  <np_classifier_superclass>  (1669) 
Lignans

>  <np_classifier_class>  (1669) 
Neolignans

>  <np_classifier_is_glycoside>  (1669) 
False

>  <organisms>  (1669) 
Aniba riparia|Aniba simulans|Aniba taubertiana|Endlicheria dysodantha

>  <collections>  (1669) 
Latin America dataset|NPASS|NuBBEDB|Super Natural II|WikiData Natural Products|ZINC NP

>  <dois>  (1669) 
10.1016/S0031-9422(00)83890-X|10.1016/S0031-9422(00)89244-4|10.1021/NP50076A045|10.1021/np50076a045

>  <synonyms>  (1669) 
(2R3S3aS)-3a-allyl-5-methoxy-2-(3'-methoxy-4'5'-methylenedioxyphenyl)-3-methyl-233a6-tetrahydro-6-oxobenzofuran|CHEMBL524122

>  <cas>  (1669) 
nan

$$$$

     RDKit          2D

 29 32  0  0  0  0  0  0  0  0999 V2000
   -2.3236    4.1000    0.0000 C   0  0  0  0  0  0  0  0  0  0  0  0
   -1.7717    2.7052    0.0000 O   0  0  0  0  0  0  0  0  0  0  0  0
   -2.7037    1.5298    0.0000 C   0  0  0  0  0  0  0  0  0  0  0  0
   -4.1876    1.7493    0.0000 O   0  0  0  0  0  0  0  0  0  0  0  0
   -2.1518    0.1351    0.0000 C   0  0  0  0  0  0  0  0  0  0  0  0
   -3.0838   -1.0403    0.0000 C   0  0  0  0  0  0  0  0  0  0  0  0
   -2.5319   -2.4351    0.0000 C   0  0  0  0  0  0  0  0  0  0  0  0
   -1.0481   -2.6545    0.0000 C   0  0  0  0  0  0  0  0  0  0  0  0
   -0.1161   -1.4792    0.0000 C   0  0  0  0  0  0  0  0  0  0  0  0
   -0.6680   -0.0844    0.0000 C   0  0  0  0  0  0  0  0  0  0  0  0
    0.2640    1.0909    0.0000 C   0  0  0  0  0  0  0  0  0  0  0  0
   -0.2878    2.4857    0.0000 O   0  0  0  0  0  0  0  0  0  0  0  0
    0.6441    3.6611    0.0000 C   0  0  0  0  0  0  0  0  0  0  0  0
    0.0923    5.0558    0.0000 C   0  0  0  0  0  0  0  0  0  0  0  0
    2.1280    3.4416    0.0000 O   0  0  0  0  0  0  0  0  0  0  0  0
    1.7479    0.8715    0.0000 C   0  0  0  0  0  0  0  0  0  0  0  0
    2.6799    2.0468    0.0000 O   0  0  0  0  0  0  0  0  0  0  0  0
    2.2998   -0.5233    0.0000 C   0  0  0  0  0  0  0  0  0  0  0  0
    3.7836   -0.7428    0.0000 C   0  0  0  0  0  0  0  0  0  0  0  0
    5.2531   -0.4415    0.0000 C   0  0  0  0  0  0  0  0  0  0  0  0
    3.7421    0.7567    0.0000 C   0  0  0  0  0  0  0  0  0  0  0  0
    4.3355   -2.1375    0.0000 C   0  0  0  0  0  0  0  0  0  0  0  0
    3.4035   -3.3129    0.0000 C   0  0  0  0  0  0  0  0  0  0  0  0
    1.9197   -3.0934    0.0000 C   0  0  0  0  0  0  0  0  0  0  0  0
    1.3678   -1.6986    0.0000 C   0  0  0  0  0  0  0  0  0  0  0  0
    0.4358   -2.8740    0.0000 C   0  0  0  0  0  0  0  0  0  0  0  0
   -3.6879   -3.3909    0.0000 O   0  0  0  0  0  0  0  0  0  0  0  0
   -4.9542   -2.5869    0.0000 C   0  0  0  0  0  0  0  0  0  0  0  0
   -4.5809   -1.1341    0.0000 C   0  0  0  0  0  0  0  0  0  0  0  0
  1  2  1  0
  2  3  1  0
  3  4  2  0
  5  3  1  1
  5  6  1  0
  6  7  2  0
  7  8  1  0
  9  8  1  1
  9 10  1  0
 10 11  1  0
 11 12  1  1
 12 13  1  0
 13 14  1  0
 13 15  2  0
 11 16  1  0
 16 17  1  6
 16 18  1  0
 18 19  1  1
 19 20  1  0
 19 21  1  0
 19 22  1  0
 22 23  1  0
 23 24  1  0
 24 25  1  0
 25 26  1  1
  7 27  1  0
 27 28  1  0
 28 29  2  0
 10  5  1  6
 25 18  1  0
 29  6  1  0
 25  9  1  0
M  END
>  <identifier>  (1670) 
CNP0351844.1

>  <canonical_smiles>  (1670) 
COC(=O)[C@@H]1C2=C(C[C@H]3[C@H]1[C@@H](OC(C)=O)[C@H](O)[C@H]1C(C)(C)CCC[C@]31C)OC=C2

>  <standard_inchi>  (1670) 
InChI=1S/C23H32O6/c1-12(24)29-19-17-14(11-15-13(7-10-28-15)16(17)21(26)27-5)23(4)9-6-8-22(2,3)20(23)18(19)25/h7,10,14,16-20,25H,6,8-9,11H2,1-5H3/t14-,16+,17+,18-,19+,20-,23+/m0/s1

>  <standard_inchi_key>  (1670) 
IEJMZROVWPJSHD-BJXFMLEZSA-N

>  <name>  (1670) 
methyl (4aS,5R,6R,6aR,7S,11aS,11bR)-6-acetyloxy-5-hydroxy-4,4,11b-trimethyl-1,2,3,4a,5,6,6a,7,11,11a-decahydronaphtho[2,1-f][1]benzofuran-7-carboxylate

>  <iupac_name>  (1670) 
methyl (4~{a}~{S},5~{R},6~{R},6~{a}~{R},7~{S},11~{a}~{S},11~{b}~{R})-6-acetoxy-5-hydroxy-4,4,11~{b}-trimethyl-1,2,3,4~{a},5,6,6~{a},7,11,11~{a}-decahydronaphtho[2,1-f]benzofuran-7-carboxylate

>  <annotation_level>  (1670) 
5

>  <total_atom_count>  (1670) 
61

>  <heavy_atom_count>  (1670) 
29

>  <molecular_weight>  (1670) 
404.5

>  <exact_molecular_weight>  (1670) 
404.21989

>  <molecular_formula>  (1670) 
C23H32O6

>  <alogp>  (1670) 
3.46

>  <topological_polar_surface_area>  (1670) 
85.97

>  <rotatable_bond_count>  (1670) 
2

>  <hydrogen_bond_acceptors>  (1670) 
6

>  <hydrogen_bond_donors>  (1670) 
1

>  <hydrogen_bond_acceptors_lipinski>  (1670) 
6

>  <hydrogen_bond_donors_lipinski>  (1670) 
1

>  <lipinski_rule_of_five_violations>  (1670) 
0

>  <aromatic_rings_count>  (1670) 
1

>  <qed_drug_likeliness>  (1670) 
0.76

>  <formal_charge>  (1670) 
0

>  <fractioncsp3>  (1670) 
0.74

>  <number_of_minimal_rings>  (1670) 
4

>  <van_der_walls_volume>  (1670) 
nan

>  <contains_sugar>  (1670) 
False

>  <contains_ring_sugars>  (1670) 
False

>  <contains_linear_sugars>  (1670) 
False

>  <murcko_framework>  (1670) 
o1ccc2c1CC3C(C2)CCC4CCCCC43

>  <np_likeness>  (1670) 
2.68

>  <chemical_class>  (1670) 
Prenol lipids

>  <chemical_sub_class>  (1670) 
Diterpenoids

>  <chemical_super_class>  (1670) 
Lipids and lipid-like molecules

>  <direct_parent_classification>  (1670) 
Diterpenoids

>  <np_classifier_pathway>  (1670) 
Terpenoids

>  <np_classifier_superclass>  (1670) 
Diterpenoids

>  <np_classifier_class>  (1670) 
Cassane diterpenoids

>  <np_classifier_is_glycoside>  (1670) 
False

>  <organisms>  (1670) 
Bowdichia virgilioides|Pterodon emarginatus|Pterodon pubescens

>  <collections>  (1670) 
Latin America dataset|NPASS|NuBBEDB|WikiData Natural Products

>  <dois>  (1670) 
10.1016/S0031-9422(00)89084-6

>  <synonyms>  (1670) 
CHEMBL4169222|methyl 6a-hydroxy-7b-acetoxyvouacapan-17b-oate

>  <cas>  (1670) 
nan

$$$$

     RDKit          2D

 47 51  0  0  0  0  0  0  0  0999 V2000
    0.2233   -4.4210    0.0000 C   0  0  0  0  0  0  0  0  0  0  0  0
    1.5533   -3.7274    0.0000 C   0  0  0  0  0  0  0  0  0  0  0  0
    2.8190   -4.5324    0.0000 O   0  0  0  0  0  0  0  0  0  0  0  0
    1.6176   -2.2288    0.0000 O   0  0  0  0  0  0  0  0  0  0  0  0
    2.9475   -1.5351    0.0000 C   0  0  0  0  0  0  0  0  0  0  0  0
    3.0118   -0.0365    0.0000 C   0  0  0  0  0  0  0  0  0  0  0  0
    4.4765   -0.3601    0.0000 C   0  0  0  0  0  0  0  0  0  0  0  0
    4.9287   -1.7903    0.0000 O   0  0  0  0  0  0  0  0  0  0  0  0
    6.3934   -2.1138    0.0000 C   0  0  0  0  0  0  0  0  0  0  0  0
    6.8455   -3.5441    0.0000 C   0  0  0  0  0  0  0  0  0  0  0  0
    7.4059   -1.0071    0.0000 O   0  0  0  0  0  0  0  0  0  0  0  0
    3.5848    1.3497    0.0000 C   0  0  0  0  0  0  0  0  0  0  0  0
    5.0718    1.5467    0.0000 O   0  0  0  0  0  0  0  0  0  0  0  0
    5.9859    0.3573    0.0000 C   0  0  0  0  0  0  0  0  0  0  0  0
    5.4129   -1.0289    0.0000 C   0  0  0  0  0  0  0  0  0  0  0  0
    7.4729    0.5543    0.0000 O   0  0  0  0  0  0  0  0  0  0  0  0
    2.6708    2.5391    0.0000 C   0  0  0  0  0  0  0  0  0  0  0  0
    3.2437    3.9253    0.0000 O   0  0  0  0  0  0  0  0  0  0  0  0
    4.7307    4.1223    0.0000 C   0  0  0  0  0  0  0  0  0  0  0  0
    5.3037    5.5085    0.0000 C   0  0  0  0  0  0  0  0  0  0  0  0
    5.6448    2.9329    0.0000 O   0  0  0  0  0  0  0  0  0  0  0  0
    1.1837    2.3422    0.0000 C   0  0  0  0  0  0  0  0  0  0  0  0
    0.6108    0.9559    0.0000 C   0  0  0  0  0  0  0  0  0  0  0  0
   -0.3033    2.1452    0.0000 C   0  0  0  0  0  0  0  0  0  0  0  0
   -0.8763    0.7590    0.0000 C   0  0  0  0  0  0  0  0  0  0  0  0
   -1.7903    1.9483    0.0000 C   0  0  0  0  0  0  0  0  0  0  0  0
   -3.2773    1.7514    0.0000 C   0  0  0  0  0  0  0  0  0  0  0  0
   -3.8503    0.3651    0.0000 C   0  0  0  0  0  0  0  0  0  0  0  0
   -5.3373    0.1682    0.0000 C   0  0  0  0  0  0  0  0  0  0  0  0
   -5.9103   -1.2180    0.0000 C   0  0  0  0  0  0  0  0  0  0  0  0
   -6.4832   -2.6043    0.0000 C   0  0  0  0  0  0  0  0  0  0  0  0
   -7.3973   -1.4149    0.0000 C   0  0  0  0  0  0  0  0  0  0  0  0
   -8.3113   -0.2256    0.0000 C   0  0  0  0  0  0  0  0  0  0  0  0
   -7.7384    1.1606    0.0000 C   0  0  0  0  0  0  0  0  0  0  0  0
   -8.6524    2.3500    0.0000 C   0  0  0  0  0  0  0  0  0  0  0  0
   -6.2514    1.3576    0.0000 C   0  0  0  0  0  0  0  0  0  0  0  0
   -4.9214    2.0512    0.0000 C   0  0  0  0  0  0  0  0  0  0  0  0
   -6.7035    2.7878    0.0000 O   0  0  0  0  0  0  0  0  0  0  0  0
   -4.9962   -2.4074    0.0000 C   0  0  0  0  0  0  0  0  0  0  0  0
   -3.5092   -2.2104    0.0000 C   0  0  0  0  0  0  0  0  0  0  0  0
   -2.9362   -0.8242    0.0000 C   0  0  0  0  0  0  0  0  0  0  0  0
   -2.3633    0.5621    0.0000 C   0  0  0  0  0  0  0  0  0  0  0  0
   -1.4492   -0.6273    0.0000 C   0  0  0  0  0  0  0  0  0  0  0  0
   -2.0222   -2.0135    0.0000 C   0  0  0  0  0  0  0  0  0  0  0  0
   -0.5352   -1.8166    0.0000 C   0  0  0  0  0  0  0  0  0  0  0  0
    0.9518   -1.6197    0.0000 C   0  0  0  0  0  0  0  0  0  0  0  0
    1.5248   -0.2334    0.0000 C   0  0  0  0  0  0  0  0  0  0  0  0
  1  2  1  0
  2  3  2  0
  2  4  1  0
  4  5  1  0
  5  6  1  0
  6  7  1  0
  7  8  1  0
  8  9  1  0
  9 10  1  0
  9 11  2  0
  6 12  1  0
 12 13  1  6
 13 14  1  0
 14 15  1  0
 14 16  2  0
 12 17  1  0
 17 18  1  1
 18 19  1  0
 19 20  1  0
 19 21  2  0
 17 22  1  0
 22 23  1  0
 23 24  1  6
 23 25  1  0
 25 26  1  6
 26 27  1  0
 27 28  2  0
 29 28  1  1
 29 30  1  0
 30 31  1  6
 30 32  1  0
 32 33  1  0
 33 34  1  0
 34 35  1  1
 34 36  1  0
 36 37  1  6
 36 38  1  0
 30 39  1  0
 39 40  1  0
 40 41  1  0
 41 42  1  1
 41 43  1  0
 43 44  1  6
 43 45  1  0
 45 46  1  0
 47 46  1  6
 47  6  1  0
 47 23  1  0
 43 25  1  0
 41 28  1  0
 36 29  1  0
M  END
>  <identifier>  (1671) 
CNP0113411.1

>  <canonical_smiles>  (1671) 
CC(=O)OCC1(COC(C)=O)[C@@H](OC(C)=O)[C@H](OC(C)=O)C[C@]2(C)[C@H]3CC=C4[C@H]5[C@](C)(CC[C@@H](C)[C@@]5(C)O)CC[C@@]4(C)[C@]3(C)CC[C@@H]12

>  <standard_inchi>  (1671) 
InChI=1S/C38H58O9/c1-22-13-15-33(6)17-18-35(8)27(31(33)37(22,10)43)11-12-29-34(7)19-28(46-25(4)41)32(47-26(5)42)38(20-44-23(2)39,21-45-24(3)40)30(34)14-16-36(29,35)9/h11,22,28-32,43H,12-21H2,1-10H3/t22-,28-,29-,30-,31+,32+,33-,34-,35-,36-,37-/m1/s1

>  <standard_inchi_key>  (1671) 
MWTMFRDDMNGKJJ-FTSPISAHSA-N

>  <name>  (1671) 
nan

>  <iupac_name>  (1671) 
[(2~{R},3~{R},4~{a}~{R},6~{a}~{R},6~{b}~{S},8~{a}~{R},11~{R},12~{R},12~{a}~{R},14~{a}~{R},14~{b}~{R})-2,3-diacetoxy-4-(acetoxymethyl)-12-hydroxy-6~{a},6~{b},8~{a},11,12,14~{b}-hexamethyl-1,2,3,4~{a},5,6,7,8,9,10,11,12~{a},14,14~{a}-tetradecahydropicen-4-yl]methyl acetate

>  <annotation_level>  (1671) 
5

>  <total_atom_count>  (1671) 
105

>  <heavy_atom_count>  (1671) 
47

>  <molecular_weight>  (1671) 
658.87

>  <exact_molecular_weight>  (1671) 
658.40808

>  <molecular_formula>  (1671) 
C38H58O9

>  <alogp>  (1671) 
6.34

>  <topological_polar_surface_area>  (1671) 
125.43

>  <rotatable_bond_count>  (1671) 
6

>  <hydrogen_bond_acceptors>  (1671) 
9

>  <hydrogen_bond_donors>  (1671) 
1

>  <hydrogen_bond_acceptors_lipinski>  (1671) 
9

>  <hydrogen_bond_donors_lipinski>  (1671) 
1

>  <lipinski_rule_of_five_violations>  (1671) 
2

>  <aromatic_rings_count>  (1671) 
0

>  <qed_drug_likeliness>  (1671) 
0.20

>  <formal_charge>  (1671) 
0

>  <fractioncsp3>  (1671) 
0.84

>  <number_of_minimal_rings>  (1671) 
5

>  <van_der_walls_volume>  (1671) 
626.68

>  <contains_sugar>  (1671) 
False

>  <contains_ring_sugars>  (1671) 
False

>  <contains_linear_sugars>  (1671) 
False

>  <murcko_framework>  (1671) 
C1=C2C3CCCCC3CCC2C4CCC5CCCCC5C4C1

>  <np_likeness>  (1671) 
2.72

>  <chemical_class>  (1671) 
Prenol lipids

>  <chemical_sub_class>  (1671) 
Triterpenoids

>  <chemical_super_class>  (1671) 
Lipids and lipid-like molecules

>  <direct_parent_classification>  (1671) 
Taraxastane, ursane, and bauerane triterpenoids

>  <np_classifier_pathway>  (1671) 
Terpenoids

>  <np_classifier_superclass>  (1671) 
Triterpenoids

>  <np_classifier_class>  (1671) 
Ursane and Taraxastane triterpenoids

>  <np_classifier_is_glycoside>  (1671) 
False

>  <organisms>  (1671) 
Rudgea viburnioides|Rudgea viburnoides

>  <collections>  (1671) 
ChemSpider NPs|Latin America dataset|NuBBEDB|WikiData Natural Products

>  <dois>  (1671) 
10.1021/NP9704617|10.1021/np9704617

>  <synonyms>  (1671) 
Viburgenin tetraacetate

>  <cas>  (1671) 
nan

$$$$

     RDKit          2D

 34 36  0  0  0  0  0  0  0  0999 V2000
   -3.5782    5.5605    0.0000 C   0  0  0  0  0  0  0  0  0  0  0  0
   -2.5695    4.4503    0.0000 C   0  0  0  0  0  0  0  0  0  0  0  0
   -1.1037    4.7689    0.0000 C   0  0  0  0  0  0  0  0  0  0  0  0
   -0.6467    6.1975    0.0000 C   0  0  0  0  0  0  0  0  0  0  0  0
   -0.0949    3.6587    0.0000 C   0  0  0  0  0  0  0  0  0  0  0  0
   -0.5520    2.2300    0.0000 C   0  0  0  0  0  0  0  0  0  0  0  0
    0.4568    1.1199    0.0000 C   0  0  0  0  0  0  0  0  0  0  0  0
    1.3749    2.3061    0.0000 C   0  0  0  0  0  0  0  0  0  0  0  0
   -0.8117    0.3192    0.0000 C   0  0  0  0  0  0  0  0  0  0  0  0
   -2.1393    1.0174    0.0000 C   0  0  0  0  0  0  0  0  0  0  0  0
   -0.7525   -1.1796    0.0000 C   0  0  0  0  0  0  0  0  0  0  0  0
   -2.0209   -1.9802    0.0000 O   0  0  0  0  0  0  0  0  0  0  0  0
   -3.3485   -1.2821    0.0000 C   0  0  0  0  0  0  0  0  0  0  0  0
   -3.4077    0.2168    0.0000 O   0  0  0  0  0  0  0  0  0  0  0  0
   -4.6170   -2.0827    0.0000 C   0  0  0  0  0  0  0  0  0  0  0  0
   -5.9446   -1.3846    0.0000 C   0  0  0  0  0  0  0  0  0  0  0  0
   -7.2130   -2.1852    0.0000 C   0  0  0  0  0  0  0  0  0  0  0  0
    0.5751   -1.8778    0.0000 C   0  0  0  0  0  0  0  0  0  0  0  0
    1.8436   -1.0771    0.0000 C   0  0  0  0  0  0  0  0  0  0  0  0
    3.1712   -1.7753    0.0000 C   0  0  0  0  0  0  0  0  0  0  0  0
    4.4396   -0.9746    0.0000 C   0  0  0  0  0  0  0  0  0  0  0  0
    4.3805    0.5242    0.0000 C   0  0  0  0  0  0  0  0  0  0  0  0
    5.6489    1.3249    0.0000 O   0  0  0  0  0  0  0  0  0  0  0  0
    6.9765    0.6267    0.0000 C   0  0  0  0  0  0  0  0  0  0  0  0
    3.0528    1.2224    0.0000 C   0  0  0  0  0  0  0  0  0  0  0  0
    1.7844    0.4217    0.0000 C   0  0  0  0  0  0  0  0  0  0  0  0
    3.0285   -1.2410    0.0000 C   0  0  0  0  0  0  0  0  0  0  0  0
    3.9643   -4.3279    0.0000 O   0  0  0  0  0  0  0  0  0  0  0  0
    2.4104   -1.6105    0.0000 O   0  0  0  0  0  0  0  0  0  0  0  0
    2.3647   -0.8919    0.0000 C   0  0  0  0  0  0  0  0  0  0  0  0
   -0.7091   -1.8702    0.0000 O   0  0  0  0  0  0  0  0  0  0  0  0
   -1.6680   -3.0237    0.0000 C   0  0  0  0  0  0  0  0  0  0  0  0
   -3.1464   -2.7699    0.0000 C   0  0  0  0  0  0  0  0  0  0  0  0
   -1.1486   -4.4309    0.0000 O   0  0  0  0  0  0  0  0  0  0  0  0
  1  2  2  0
  2  3  1  0
  3  4  1  0
  3  5  2  0
  5  6  1  0
  6  7  1  0
  7  8  1  6
  7  9  1  0
  9 10  1  1
  9 11  1  0
 11 12  1  6
 12 13  1  0
 13 14  2  0
 13 15  1  0
 15 16  1  0
 16 17  1  0
 11 18  1  0
 19 18  1  1
 19 20  1  0
 20 21  2  0
 21 22  1  0
 22 23  1  1
 23 24  1  0
 22 25  1  0
 26 25  1  6
 20 27  1  0
 27 28  2  0
 27 29  1  0
 29 30  1  0
 30 31  1  6
 31 32  1  0
 32 33  1  0
 32 34  2  0
 26  7  1  0
 26 19  1  0
 30 19  1  0
M  END
>  <identifier>  (1672) 
CNP0219062.1

>  <canonical_smiles>  (1672) 
C=C/C(C)=C\C[C@]1(C)[C@H](C)[C@@H](OC(=O)CCC)C[C@@]23C(=C[C@H](OC)C[C@@H]12)C(=O)O[C@H]3OC(C)=O

>  <standard_inchi>  (1672) 
InChI=1S/C27H38O7/c1-8-10-23(29)33-21-15-27-20(24(30)34-25(27)32-18(5)28)13-19(31-7)14-22(27)26(6,17(21)4)12-11-16(3)9-2/h9,11,13,17,19,21-22,25H,2,8,10,12,14-15H2,1,3-7H3/b16-11-/t17-,19+,21+,22+,25-,26-,27-/m1/s1

>  <standard_inchi_key>  (1672) 
JSWBVYDAGNPQEZ-USDDFDHHSA-N

>  <name>  (1672) 
nan

>  <iupac_name>  (1672) 
[(1~{R},5~{R},6~{a}~{S},7~{S},8~{S},9~{S},10~{a}~{S})-1-acetoxy-5-methoxy-7,8-dimethyl-7-[(2~{Z})-3-methylpenta-2,4-dienyl]-3-oxo-5,6,6~{a},8,9,10-hexahydro-1~{H}-benzo[d]isobenzofuran-9-yl] butanoate

>  <annotation_level>  (1672) 
5

>  <total_atom_count>  (1672) 
72

>  <heavy_atom_count>  (1672) 
34

>  <molecular_weight>  (1672) 
474.59

>  <exact_molecular_weight>  (1672) 
474.26175

>  <molecular_formula>  (1672) 
C27H38O7

>  <alogp>  (1672) 
4.66

>  <topological_polar_surface_area>  (1672) 
88.13

>  <rotatable_bond_count>  (1672) 
8

>  <hydrogen_bond_acceptors>  (1672) 
7

>  <hydrogen_bond_donors>  (1672) 
0

>  <hydrogen_bond_acceptors_lipinski>  (1672) 
7

>  <hydrogen_bond_donors_lipinski>  (1672) 
0

>  <lipinski_rule_of_five_violations>  (1672) 
0

>  <aromatic_rings_count>  (1672) 
0

>  <qed_drug_likeliness>  (1672) 
0.37

>  <formal_charge>  (1672) 
0

>  <fractioncsp3>  (1672) 
0.67

>  <number_of_minimal_rings>  (1672) 
3

>  <van_der_walls_volume>  (1672) 
450.36

>  <contains_sugar>  (1672) 
False

>  <contains_ring_sugars>  (1672) 
False

>  <contains_linear_sugars>  (1672) 
False

>  <murcko_framework>  (1672) 
O1CC2=CCCC3CCCCC23C1

>  <np_likeness>  (1672) 
3.18

>  <chemical_class>  (1672) 
Prenol lipids

>  <chemical_sub_class>  (1672) 
Terpene lactones

>  <chemical_super_class>  (1672) 
Lipids and lipid-like molecules

>  <direct_parent_classification>  (1672) 
Diterpene lactones

>  <np_classifier_pathway>  (1672) 
Terpenoids

>  <np_classifier_superclass>  (1672) 
Diterpenoids

>  <np_classifier_class>  (1672) 
Colensane and Clerodane diterpenoids

>  <np_classifier_is_glycoside>  (1672) 
True

>  <organisms>  (1672) 
Casearia sylvestris

>  <collections>  (1672) 
ChemSpider NPs|Latin America dataset|NuBBEDB|Super Natural II|WikiData Natural Products|ZINC NP

>  <dois>  (1672) 
10.1016/S0031-9422(98)00249-0

>  <synonyms>  (1672) 
Casearin S

>  <cas>  (1672) 
nan

$$$$

     RDKit          2D

 15 16  0  0  0  0  0  0  0  0999 V2000
    4.3069    0.4856    0.0000 C   0  0  0  0  0  0  0  0  0  0  0  0
    3.1386   -0.4551    0.0000 C   0  0  0  0  0  0  0  0  0  0  0  0
    3.3690   -1.9373    0.0000 C   0  0  0  0  0  0  0  0  0  0  0  0
    1.7397    0.0864    0.0000 C   0  0  0  0  0  0  0  0  0  0  0  0
    1.6206    1.5817    0.0000 C   0  0  0  0  0  0  0  0  0  0  0  0
    0.3774    2.4208    0.0000 C   0  0  0  0  0  0  0  0  0  0  0  0
   -1.0539    1.9720    0.0000 C   0  0  0  0  0  0  0  0  0  0  0  0
   -2.0793    3.0668    0.0000 C   0  0  0  0  0  0  0  0  0  0  0  0
   -1.5954    0.5732    0.0000 C   0  0  0  0  0  0  0  0  0  0  0  0
   -0.8394   -0.7223    0.0000 C   0  0  0  0  0  0  0  0  0  0  0  0
    0.6449   -0.9390    0.0000 C   0  0  0  0  0  0  0  0  0  0  0  0
   -1.8379   -1.8417    0.0000 C   0  0  0  0  0  0  0  0  0  0  0  0
   -1.5191   -3.3075    0.0000 C   0  0  0  0  0  0  0  0  0  0  0  0
   -3.2110   -1.2380    0.0000 C   0  0  0  0  0  0  0  0  0  0  0  0
   -3.0612    0.2545    0.0000 C   0  0  0  0  0  0  0  0  0  0  0  0
  1  2  2  0
  2  3  1  0
  4  2  1  1
  4  5  1  0
  5  6  1  0
  6  7  1  0
  7  8  1  1
  7  9  1  0
  9 10  2  0
 10 11  1  0
 10 12  1  0
 12 13  1  1
 12 14  1  0
 14 15  1  0
 11  4  1  0
 15  9  1  0
M  END
>  <identifier>  (1673) 
CNP0266970.1

>  <canonical_smiles>  (1673) 
C=C(C)[C@@H]1CC[C@H](C)C2=C(C1)[C@@H](C)CC2

>  <standard_inchi>  (1673) 
InChI=1S/C15H24/c1-10(2)13-7-5-11(3)14-8-6-12(4)15(14)9-13/h11-13H,1,5-9H2,2-4H3/t11-,12-,13+/m0/s1

>  <standard_inchi_key>  (1673) 
ADIDQIZBYUABQK-RWMBFGLXSA-N

>  <name>  (1673) 
alpha-Guaiene

>  <iupac_name>  (1673) 
(1~{S},4~{S},7~{R})-7-isopropenyl-1,4-dimethyl-1,2,3,4,5,6,7,8-octahydroazulene

>  <annotation_level>  (1673) 
5

>  <total_atom_count>  (1673) 
39

>  <heavy_atom_count>  (1673) 
15

>  <molecular_weight>  (1673) 
204.36

>  <exact_molecular_weight>  (1673) 
204.1878

>  <molecular_formula>  (1673) 
C15H24

>  <alogp>  (1673) 
4.73

>  <topological_polar_surface_area>  (1673) 
0.00

>  <rotatable_bond_count>  (1673) 
1

>  <hydrogen_bond_acceptors>  (1673) 
0

>  <hydrogen_bond_donors>  (1673) 
0

>  <hydrogen_bond_acceptors_lipinski>  (1673) 
0

>  <hydrogen_bond_donors_lipinski>  (1673) 
0

>  <lipinski_rule_of_five_violations>  (1673) 
0

>  <aromatic_rings_count>  (1673) 
0

>  <qed_drug_likeliness>  (1673) 
0.54

>  <formal_charge>  (1673) 
0

>  <fractioncsp3>  (1673) 
0.73

>  <number_of_minimal_rings>  (1673) 
2

>  <van_der_walls_volume>  (1673) 
226.34

>  <contains_sugar>  (1673) 
False

>  <contains_ring_sugars>  (1673) 
False

>  <contains_linear_sugars>  (1673) 
False

>  <murcko_framework>  (1673) 
C12=C(CCC1)CCCCC2

>  <np_likeness>  (1673) 
2.15

>  <chemical_class>  (1673) 
Prenol lipids

>  <chemical_sub_class>  (1673) 
Sesquiterpenoids

>  <chemical_super_class>  (1673) 
Lipids and lipid-like molecules

>  <direct_parent_classification>  (1673) 
Sesquiterpenoids

>  <np_classifier_pathway>  (1673) 
Terpenoids

>  <np_classifier_superclass>  (1673) 
Sesquiterpenoids

>  <np_classifier_class>  (1673) 
Guaiane sesquiterpenoids

>  <np_classifier_is_glycoside>  (1673) 
False

>  <organisms>  (1673) 
Aframomum melegueta|Aiouea costaricensis|Alstonia muelleriana|Apium graveolens|Aquilaria malaccensis|Arctium lappa|Aristolochia debilis|Artemisia ammaniana|Artemisia annua|Artemisia cina|Artemisia sericea|Arum maculatum|Asarum asperum var. geaster|Asarum heterotropoides|Asarum sieboldii|Asiasarum heterotropoides|Asiasarum sieboldii|Astragalus membranaceus|Astragalus mongholicus|Atractylodes chinensis|Atractylodes lancea|Atractylodes macrocephala|Bulnesia sarmienti|Callicarpa japonica|Callitris columellaris|Callitris intratropica|Canella winterana|Carapichea ipecacuanha|Chamomilla recutita|Chenopodium ambrosioides|Chrysanthemum indicum|Chrysanthemum x morifolium|Cistus creticus|Citrus maxima|Citrus reticulata|Citrus unshiu|Citrus × deliciosa|Commiphora quadricincta|Commiphora sphaerocarpa|Conyza incana|Coreopsis nodosa|Cryptomeria japonica|Curcuma amanda Roxb|Cymbopogon schoenanthus|Cyperus rotundus|Dacrydium cupressinum|Daldinia eschscholtzii|Dumortiera hirsuta|Dysphania ambrosioides|Eucalyptus maidenii|Frullania anomala|Gardenia jasminoides|Glycine tomentella|Guajacum officinale|Haematococcus lacustris|Humulus lupulus|Hypoxylon rubiginosum|Hyptis suaveolens|Lepechinia floribunda|Lindera aggregata|Lindera glauca|Lindera strichnifolia|Magnolia officinalis|Mangifera indica|Matricaria chamomilla|Murraya gleniei|Nicotiana undulata|Ocotea austinii|Ocotea morae|Oenanthe javanica|Origanum syriacum|Orthosiphon aristatus|Orthosiphon grandiflorus|Panax ginseng|Panax notoginseng|Panax pseudo-ginseng wall. var. notoginseng (burk.) hoo et tseng|Panax schinseng|Passiflora incarnata|Pelargonium quercifolium|Pelargonium ternifolium|Petasites hybridus|Pilocarpus jaborandi|Pilocarpus microphyllus|Pilocarpus pauciflorus|Pinus halepensis|Piper fimbriulatum|Piper nigrum|Pogostemon Cablin|Pogostemon cablin|Postegmon patchouli|Pterocladiella tenuis|Ptychopetalum olacoides|Rhaponticum carthamoides|Saccharomyces pastori|Scutellaria barbata|Senecio paludaffinis|Sphaeranthus kirkii var. cyathuloides|Streptomyces flocculus|Tachigalia paniculata|Teucrium polium subsp. polium|Toona ciliata|Trigonella grandiflora|Tripolium pannonicum|Uvaria calamistrata|Valeriana jatamansi|Valeriana officinalis|Virola surinamensis|Vitex negundo|Zanthoxylum kauaense|Zingiber officinale|basil|common myrtle

>  <collections>  (1673) 
ANPDB|Australian natural products|CMAUP (cCollective molecular activities of useful plants)|ChEBI NPs|EMNPD|KNApSaCK|Latin America dataset|NANPDB (Natural Products from Northern African Sources)|NAPRORE-CR|NPASS|NuBBEDB|Super Natural II|TCMDB-Taiwan (Traditional Chinese Medicine database)|VietHerb|WikiData Natural Products

>  <dois>  (1673) 
10.1002/CBDV.201800531|10.1002/ECE3.5390|10.1002/FFJ.2730080303|10.1002/JSFA.6397|10.1002/JSSC.200900378|10.1006/JFCA.1999.0841|10.1016/0305-1978(92)90055-I|10.1016/0305-1978(95)00026-Q|10.1016/J.ABB.2006.08.006|10.1016/J.APJTM.2016.06.009|10.1016/J.FITOTE.2006.09.016|10.1016/J.FOODCHEM.2008.09.107|10.1016/J.FOODCHEM.2018.09.082|10.1016/J.JPBA.2005.09.015|10.1016/J.PHYTOCHEM.2008.12.018|10.1016/J.PHYTOCHEM.2009.06.013|10.1016/S0031-9422(00)81445-4|10.1016/S0031-9422(00)90469-2|10.1016/S0031-9422(02)00207-8|10.1016/S0031-9422(02)00542-3|10.1016/S0031-9422(96)00559-6|10.1016/S0031-9422(97)00324-5|10.1016/S0031-9422(97)00484-6|10.1016/S0031-9422(97)00762-0|10.1016/S0031-9422(98)00158-7|10.1016/S0367-326X(01)00367-7|10.1016/j.phytochem.2012.05.019|10.1016/s0031-9422(98)00158-7|10.1021/JF00118A056|10.1021/JF0402633|10.1021/JO040272A|10.1021/NP030475E|10.1021/NP50006A014|10.1021/NP50034A044|10.1021/NP50052A041|10.1021/acsomega.3c03865|10.1055/S-2006-959580|10.1055/S-2006-961701|10.1055/S-2006-962688|10.1055/S-2007-969136|10.1055/S-2007-969917|10.1080/0972060X.2007.10643581|10.1080/0972060X.2014.895210|10.1080/10412905.1989.9697758|10.1080/10412905.1991.9697923|10.1080/10412905.1991.9697953|10.1080/10412905.1992.9698084|10.1080/10412905.1993.9698174|10.1080/10412905.1993.9698221|10.1080/10412905.1993.9698230|10.1080/10412905.1994.9698428|10.1080/10412905.1994.9698446|10.1080/10412905.1995.9698494|10.1080/10412905.1995.9698501|10.1080/10412905.1995.9698506|10.1080/10412905.2001.9699592|10.1080/10412905.2002.9699852|10.1080/10412905.2007.9699946|10.1080/10412905.2010.9700389|10.1155/2015/863913|10.1248/CPB.36.2452|10.1248/YAKUSHI1947.107.3_209|10.1271/BBB1961.45.1493|10.1271/NOGEIKAGAKU1924.59.389|10.1365/S10337-008-0921-Y|10.1590/S0103-50532000000600012|10.1590/S0103-50532011000400018|10.3109/13880209109082876|10.3390/MOLECULES24234244|10.4268/CJCMM20142423|10.5694/J.1326-5377.1998.TB126732.X|10.5897/JMPR11.972

>  <synonyms>  (1673) 
(1S,4S,7R)-1,4-dimethyl-7-prop-1-en-2-yl-1,2,3,4,5,6,7,8-octahydroazulene|3691-12-1|7-Isopropenyl-1,4-dimethyl-1,2,3,4,5,6,7,8-octahydroazulene-, [1S-(1.alpha.,4.alpha.,7.alpha.)]-|ABQ2CB7VAC|Azulene, 1,2,3,4,5,6,7,8-octahydro-1,4-dimethyl-7-(1-methylethenyl)-, (1S,4S,7R)-|Azulene, 1,2,3,4,5,6,7,8-octahydro-1,4-dimethyl-7-(1-methylethenyl)-, [1S-(1.alpha.,4.alpha.,7.alpha.)]-|C20161|CHEBI:63443|DTXCID0030613|DTXSID5052046|Guaia-1(5),11-diene|Q5613309|\u221a\u00e9\u00ac\u00b1-guaiene|_-guaiene|a-Guaiene (>85%)|alpha-Guaiene|alpha-guaiene,guaia-1(5),11-diene,[1S-(1a,4a,7a)]-1,2,3,4,5,6,7,8-octahydro-1,4-dimethyl-7-(1-methylethenyl)-azulene

>  <cas>  (1673) 
3691-12-1

$$$$

     RDKit          2D

 20 20  0  0  0  0  0  0  0  0999 V2000
   -9.1221   -0.1420    0.0000 C   0  0  0  0  0  0  0  0  0  0  0  0
   -7.7375    0.4350    0.0000 C   0  0  0  0  0  0  0  0  0  0  0  0
   -7.5448    1.9225    0.0000 C   0  0  0  0  0  0  0  0  0  0  0  0
   -6.5456   -0.4757    0.0000 C   0  0  0  0  0  0  0  0  0  0  0  0
   -5.1609    0.1013    0.0000 C   0  0  0  0  0  0  0  0  0  0  0  0
   -3.9690   -0.8094    0.0000 C   0  0  0  0  0  0  0  0  0  0  0  0
   -2.5844   -0.2325    0.0000 C   0  0  0  0  0  0  0  0  0  0  0  0
   -2.3917    1.2551    0.0000 C   0  0  0  0  0  0  0  0  0  0  0  0
   -1.3925   -1.1431    0.0000 C   0  0  0  0  0  0  0  0  0  0  0  0
   -0.0078   -0.5662    0.0000 C   0  0  0  0  0  0  0  0  0  0  0  0
    1.1841   -1.4768    0.0000 O   0  0  0  0  0  0  0  0  0  0  0  0
    2.5687   -0.8999    0.0000 C   0  0  0  0  0  0  0  0  0  0  0  0
    2.7614    0.5877    0.0000 C   0  0  0  0  0  0  0  0  0  0  0  0
    4.1460    1.1646    0.0000 C   0  0  0  0  0  0  0  0  0  0  0  0
    5.3379    0.2540    0.0000 C   0  0  0  0  0  0  0  0  0  0  0  0
    6.7226    0.8309    0.0000 C   0  0  0  0  0  0  0  0  0  0  0  0
    6.9152    2.3185    0.0000 O   0  0  0  0  0  0  0  0  0  0  0  0
    7.9145   -0.0798    0.0000 O   0  0  0  0  0  0  0  0  0  0  0  0
    5.1453   -1.2336    0.0000 C   0  0  0  0  0  0  0  0  0  0  0  0
    3.7607   -1.8105    0.0000 C   0  0  0  0  0  0  0  0  0  0  0  0
  1  2  1  0
  2  3  1  0
  2  4  2  0
  4  5  1  0
  5  6  1  0
  6  7  1  0
  7  8  1  0
  7  9  2  0
  9 10  1  0
 10 11  1  0
 11 12  1  0
 12 13  2  0
 13 14  1  0
 14 15  2  0
 15 16  1  0
 16 17  2  0
 16 18  1  0
 15 19  1  0
 19 20  2  0
 20 12  1  0
M  END
>  <identifier>  (1674) 
CNP0080492.1

>  <canonical_smiles>  (1674) 
CC(C)=CCC/C(C)=C/COC1=CC=C(C(=O)O)C=C1

>  <standard_inchi>  (1674) 
InChI=1S/C17H22O3/c1-13(2)5-4-6-14(3)11-12-20-16-9-7-15(8-10-16)17(18)19/h5,7-11H,4,6,12H2,1-3H3,(H,18,19)/b14-11+

>  <standard_inchi_key>  (1674) 
RMDHZUUXNBGDEM-SDNWHVSQSA-N

>  <name>  (1674) 
nan

>  <iupac_name>  (1674) 
nan

>  <annotation_level>  (1674) 
0

>  <total_atom_count>  (1674) 
42

>  <heavy_atom_count>  (1674) 
20

>  <molecular_weight>  (1674) 
274.36

>  <exact_molecular_weight>  (1674) 
274.15689

>  <molecular_formula>  (1674) 
C17H22O3

>  <alogp>  (1674) 
4.46

>  <topological_polar_surface_area>  (1674) 
46.53

>  <rotatable_bond_count>  (1674) 
7

>  <hydrogen_bond_acceptors>  (1674) 
2

>  <hydrogen_bond_donors>  (1674) 
1

>  <hydrogen_bond_acceptors_lipinski>  (1674) 
2

>  <hydrogen_bond_donors_lipinski>  (1674) 
1

>  <lipinski_rule_of_five_violations>  (1674) 
0

>  <aromatic_rings_count>  (1674) 
1

>  <qed_drug_likeliness>  (1674) 
0.75

>  <formal_charge>  (1674) 
0

>  <fractioncsp3>  (1674) 
0.35

>  <number_of_minimal_rings>  (1674) 
1

>  <van_der_walls_volume>  (1674) 
274.90

>  <contains_sugar>  (1674) 
False

>  <contains_ring_sugars>  (1674) 
False

>  <contains_linear_sugars>  (1674) 
False

>  <murcko_framework>  (1674) 
c1ccccc1

>  <np_likeness>  (1674) 
1.20

>  <chemical_class>  (1674) 
nan

>  <chemical_sub_class>  (1674) 
nan

>  <chemical_super_class>  (1674) 
nan

>  <direct_parent_classification>  (1674) 
nan

>  <np_classifier_pathway>  (1674) 
Shikimates and Phenylpropanoids

>  <np_classifier_superclass>  (1674) 
Phenolic acids (C6-C1)

>  <np_classifier_class>  (1674) 
Simple phenolic acids

>  <np_classifier_is_glycoside>  (1674) 
False

>  <organisms>  (1674) 
Piper crassinervium

>  <collections>  (1674) 
ChemSpider NPs|Latin America dataset|NPASS|NuBBEDB|Super Natural II|WikiData Natural Products|ZINC NP

>  <dois>  (1674) 
10.1016/J.BIORTECH.2010.01.041|10.1016/j.biortech.2010.01.041|10.1016/j.bmcl.2012.03.057

>  <synonyms>  (1674) 
nan

>  <cas>  (1674) 
nan

$$$$

     RDKit          2D

 42 46  0  0  0  0  0  0  0  0999 V2000
    1.9895   -0.8569    0.0000 C   0  0  0  0  0  0  0  0  0  0  0  0
    1.1333    0.3747    0.0000 C   0  0  0  0  0  0  0  0  0  0  0  0
   -0.3614    0.2489    0.0000 O   0  0  0  0  0  0  0  0  0  0  0  0
   -1.2177    1.4806    0.0000 C   0  0  0  0  0  0  0  0  0  0  0  0
   -2.7124    1.3548    0.0000 O   0  0  0  0  0  0  0  0  0  0  0  0
   -3.3509   -0.0025    0.0000 C   0  0  0  0  0  0  0  0  0  0  0  0
   -4.8456   -0.1282    0.0000 C   0  0  0  0  0  0  0  0  0  0  0  0
   -5.7018    1.1034    0.0000 C   0  0  0  0  0  0  0  0  0  0  0  0
   -5.0633    2.4607    0.0000 C   0  0  0  0  0  0  0  0  0  0  0  0
   -5.9196    3.6923    0.0000 C   0  0  0  0  0  0  0  0  0  0  0  0
   -7.4143    3.5666    0.0000 C   0  0  0  0  0  0  0  0  0  0  0  0
   -8.2705    4.7982    0.0000 O   0  0  0  0  0  0  0  0  0  0  0  0
   -8.0528    2.2093    0.0000 C   0  0  0  0  0  0  0  0  0  0  0  0
   -7.1966    0.9777    0.0000 C   0  0  0  0  0  0  0  0  0  0  0  0
   -5.4841   -1.4855    0.0000 O   0  0  0  0  0  0  0  0  0  0  0  0
   -4.6278   -2.7172    0.0000 C   0  0  0  0  0  0  0  0  0  0  0  0
   -5.2663   -4.0745    0.0000 C   0  0  0  0  0  0  0  0  0  0  0  0
   -4.4101   -5.3061    0.0000 C   0  0  0  0  0  0  0  0  0  0  0  0
   -5.0486   -6.6634    0.0000 O   0  0  0  0  0  0  0  0  0  0  0  0
   -2.9154   -5.1804    0.0000 C   0  0  0  0  0  0  0  0  0  0  0  0
   -2.2769   -3.8230    0.0000 C   0  0  0  0  0  0  0  0  0  0  0  0
   -0.7821   -3.6973    0.0000 O   0  0  0  0  0  0  0  0  0  0  0  0
   -3.1331   -2.5914    0.0000 C   0  0  0  0  0  0  0  0  0  0  0  0
   -2.4946   -1.2341    0.0000 C   0  0  0  0  0  0  0  0  0  0  0  0
   -0.9999   -1.1084    0.0000 O   0  0  0  0  0  0  0  0  0  0  0  0
   -0.5792    2.8379    0.0000 C   0  0  0  0  0  0  0  0  0  0  0  0
   -1.4354    4.0695    0.0000 O   0  0  0  0  0  0  0  0  0  0  0  0
    0.9155    2.9636    0.0000 C   0  0  0  0  0  0  0  0  0  0  0  0
    1.5540    4.3209    0.0000 O   0  0  0  0  0  0  0  0  0  0  0  0
    1.7718    1.7320    0.0000 C   0  0  0  0  0  0  0  0  0  0  0  0
    3.2665    1.8577    0.0000 O   0  0  0  0  0  0  0  0  0  0  0  0
    4.1227    0.6261    0.0000 C   0  0  0  0  0  0  0  0  0  0  0  0
    3.4843   -0.7312    0.0000 O   0  0  0  0  0  0  0  0  0  0  0  0
    5.6175    0.7518    0.0000 C   0  0  0  0  0  0  0  0  0  0  0  0
    6.4737   -0.4798    0.0000 C   0  0  0  0  0  0  0  0  0  0  0  0
    7.9684   -0.3540    0.0000 C   0  0  0  0  0  0  0  0  0  0  0  0
    8.8247   -1.5856    0.0000 C   0  0  0  0  0  0  0  0  0  0  0  0
   10.3194   -1.4599    0.0000 C   0  0  0  0  0  0  0  0  0  0  0  0
   10.9579   -0.1026    0.0000 C   0  0  0  0  0  0  0  0  0  0  0  0
   12.4526    0.0231    0.0000 O   0  0  0  0  0  0  0  0  0  0  0  0
   10.1016    1.1290    0.0000 C   0  0  0  0  0  0  0  0  0  0  0  0
    8.6069    1.0033    0.0000 C   0  0  0  0  0  0  0  0  0  0  0  0
  2  1  1  6
  2  3  1  0
  3  4  1  0
  4  5  1  1
  5  6  1  0
  6  7  2  0
  7  8  1  0
  8  9  2  0
  9 10  1  0
 10 11  2  0
 11 12  1  0
 11 13  1  0
 13 14  2  0
  7 15  1  0
 15 16  1  0
 16 17  2  0
 17 18  1  0
 18 19  1  0
 18 20  2  0
 20 21  1  0
 21 22  1  0
 21 23  2  0
 23 24  1  0
 24 25  2  0
  4 26  1  0
 26 27  1  6
 26 28  1  0
 28 29  1  6
 28 30  1  0
 30 31  1  1
 31 32  1  0
 32 33  2  0
 32 34  1  0
 34 35  2  0
 35 36  1  0
 36 37  2  0
 37 38  1  0
 38 39  2  0
 39 40  1  0
 39 41  1  0
 41 42  2  0
 30  2  1  0
 42 36  1  0
 24  6  1  0
 14  8  1  0
 23 16  1  0
M  END
>  <identifier>  (1675) 
CNP0182926.1

>  <canonical_smiles>  (1675) 
C[C@@H]1O[C@@H](OC2=C(C3=CC=C(O)C=C3)OC3=CC(O)=CC(O)=C3C2=O)[C@H](O)[C@H](O)[C@H]1OC(=O)/C=C/C1=CC=C(O)C=C1

>  <standard_inchi>  (1675) 
InChI=1S/C30H26O12/c1-14-27(41-22(35)11-4-15-2-7-17(31)8-3-15)25(37)26(38)30(39-14)42-29-24(36)23-20(34)12-19(33)13-21(23)40-28(29)16-5-9-18(32)10-6-16/h2-14,25-27,30-34,37-38H,1H3/b11-4+/t14-,25-,26+,27-,30-/m0/s1

>  <standard_inchi_key>  (1675) 
RFTKNPGPPJOOBI-NTWDEFLTSA-N

>  <name>  (1675) 
4''-O-(4-Hydroxycinnaamoyl)afzelin

>  <iupac_name>  (1675) 
[(2~{S},3~{R},4~{S},5~{R},6~{S})-6-[5,7-dihydroxy-2-(4-hydroxyphenyl)-4-oxo-chromen-3-yl]oxy-4,5-dihydroxy-2-methyl-tetrahydropyran-3-yl] (~{E})-3-(4-hydroxyphenyl)prop-2-enoate

>  <annotation_level>  (1675) 
5

>  <total_atom_count>  (1675) 
68

>  <heavy_atom_count>  (1675) 
42

>  <molecular_weight>  (1675) 
578.53

>  <exact_molecular_weight>  (1675) 
578.14243

>  <molecular_formula>  (1675) 
C30H26O12

>  <alogp>  (1675) 
2.75

>  <topological_polar_surface_area>  (1675) 
196.35

>  <rotatable_bond_count>  (1675) 
6

>  <hydrogen_bond_acceptors>  (1675) 
12

>  <hydrogen_bond_donors>  (1675) 
6

>  <hydrogen_bond_acceptors_lipinski>  (1675) 
12

>  <hydrogen_bond_donors_lipinski>  (1675) 
6

>  <lipinski_rule_of_five_violations>  (1675) 
3

>  <aromatic_rings_count>  (1675) 
4

>  <qed_drug_likeliness>  (1675) 
0.14

>  <formal_charge>  (1675) 
0

>  <fractioncsp3>  (1675) 
0.20

>  <number_of_minimal_rings>  (1675) 
5

>  <van_der_walls_volume>  (1675) 
481.98

>  <contains_sugar>  (1675) 
True

>  <contains_ring_sugars>  (1675) 
True

>  <contains_linear_sugars>  (1675) 
False

>  <murcko_framework>  (1675) 
O1c2ccccc2CC(OC3OCC(OCC=Cc4ccccc4)CC3)=C1c5ccccc5

>  <np_likeness>  (1675) 
1.82

>  <chemical_class>  (1675) 
Flavonoids

>  <chemical_sub_class>  (1675) 
Flavonoid glycosides

>  <chemical_super_class>  (1675) 
Phenylpropanoids and polyketides

>  <direct_parent_classification>  (1675) 
Flavonoid-3-O-glycosides

>  <np_classifier_pathway>  (1675) 
Shikimates and Phenylpropanoids

>  <np_classifier_superclass>  (1675) 
Flavonoids

>  <np_classifier_class>  (1675) 
Flavonols

>  <np_classifier_is_glycoside>  (1675) 
True

>  <organisms>  (1675) 
Complex-toothed flying squirrel|Corylus avellana|Qualea grandiflora

>  <collections>  (1675) 
Australian natural products|ChemSpider NPs|Latin America dataset|NPASS|NuBBEDB|Super Natural II|WikiData Natural Products|ZINC NP

>  <dois>  (1675) 
10.1080/14786419.2010.482057|10.1590/S0100-40422008000600038

>  <synonyms>  (1675) 
166321-98-8|4''-O-trans-p-Coumaroylafzelin|623927-14-0|AKOS040763179|CHEMBL4213526|Kaempferol-3-O-\u221a\u00e9\u00ac\u00b1-L-(4''-E-p-coumaroyl)-rhamnoside|[(2S,3R,4S,5R,6S)-6-[5,7-dihydroxy-2-(4-hydroxyphenyl)-4-oxochromen-3-yl]oxy-4,5-dihydroxy-2-methyloxan-3-yl] (E)-3-(4-hydroxyphenyl)prop-2-enoate

>  <cas>  (1675) 
166321-98-8|623927-14-0

$$$$

     RDKit          2D

 26 30  0  0  0  0  0  0  0  0999 V2000
    2.7365    2.8660    0.0000 O   0  0  0  0  0  0  0  0  0  0  0  0
    1.2811    3.2290    0.0000 C   0  0  0  0  0  0  0  0  0  0  0  0
    0.7193    4.6199    0.0000 O   0  0  0  0  0  0  0  0  0  0  0  0
   -0.7770    4.5154    0.0000 C   0  0  0  0  0  0  0  0  0  0  0  0
   -1.1401    3.0600    0.0000 C   0  0  0  0  0  0  0  0  0  0  0  0
   -2.5309    2.4982    0.0000 C   0  0  0  0  0  0  0  0  0  0  0  0
   -2.7398    1.0128    0.0000 C   0  0  0  0  0  0  0  0  0  0  0  0
   -1.5579    0.0892    0.0000 C   0  0  0  0  0  0  0  0  0  0  0  0
   -1.7668   -1.3962    0.0000 C   0  0  0  0  0  0  0  0  0  0  0  0
   -3.1576   -1.9579    0.0000 C   0  0  0  0  0  0  0  0  0  0  0  0
   -3.6708   -3.3674    0.0000 O   0  0  0  0  0  0  0  0  0  0  0  0
   -5.1699   -3.3149    0.0000 C   0  0  0  0  0  0  0  0  0  0  0  0
   -5.5832   -1.8730    0.0000 O   0  0  0  0  0  0  0  0  0  0  0  0
   -4.3395   -1.0343    0.0000 C   0  0  0  0  0  0  0  0  0  0  0  0
   -4.1306    0.4510    0.0000 C   0  0  0  0  0  0  0  0  0  0  0  0
    0.1319    2.2650    0.0000 C   0  0  0  0  0  0  0  0  0  0  0  0
    0.2364    0.7686    0.0000 C   0  0  0  0  0  0  0  0  0  0  0  0
    1.5845    0.1109    0.0000 C   0  0  0  0  0  0  0  0  0  0  0  0
    2.8282    0.9496    0.0000 C   0  0  0  0  0  0  0  0  0  0  0  0
    4.1763    0.2919    0.0000 C   0  0  0  0  0  0  0  0  0  0  0  0
    4.2808   -1.2045    0.0000 C   0  0  0  0  0  0  0  0  0  0  0  0
    5.4627   -2.1281    0.0000 O   0  0  0  0  0  0  0  0  0  0  0  0
    4.9496   -3.5376    0.0000 C   0  0  0  0  0  0  0  0  0  0  0  0
    3.4505   -3.4851    0.0000 O   0  0  0  0  0  0  0  0  0  0  0  0
    3.0372   -2.0431    0.0000 C   0  0  0  0  0  0  0  0  0  0  0  0
    1.6890   -1.3854    0.0000 C   0  0  0  0  0  0  0  0  0  0  0  0
  1  2  2  0
  2  3  1  0
  3  4  1  0
  4  5  1  0
  5  6  1  1
  6  7  1  0
  7  8  2  0
  8  9  1  0
  9 10  2  0
 10 11  1  0
 11 12  1  0
 12 13  1  0
 13 14  1  0
 14 15  2  0
  5 16  1  0
 16 17  1  6
 17 18  1  0
 18 19  2  0
 19 20  1  0
 20 21  2  0
 21 22  1  0
 22 23  1  0
 23 24  1  0
 24 25  1  0
 25 26  2  0
 16  2  1  0
 26 18  1  0
 15  7  1  0
 25 21  1  0
 14 10  1  0
M  END
>  <identifier>  (1676) 
CNP0212422.3

>  <canonical_smiles>  (1676) 
O=C1OC[C@H](CC2=CC=C3OCOC3=C2)[C@H]1CC1=CC=C2OCOC2=C1

>  <standard_inchi>  (1676) 
InChI=1S/C20H18O6/c21-20-15(6-13-2-4-17-19(8-13)26-11-24-17)14(9-22-20)5-12-1-3-16-18(7-12)25-10-23-16/h1-4,7-8,14-15H,5-6,9-11H2/t14-,15+/m0/s1

>  <standard_inchi_key>  (1676) 
DDWGQGZPYDSYEL-LSDHHAIUSA-N

>  <name>  (1676) 
Hinokinin

>  <iupac_name>  (1676) 
(3~{R},4~{R})-3,4-bis(1,3-benzodioxol-5-ylmethyl)tetrahydrofuran-2-one

>  <annotation_level>  (1676) 
5

>  <total_atom_count>  (1676) 
44

>  <heavy_atom_count>  (1676) 
26

>  <molecular_weight>  (1676) 
354.36

>  <exact_molecular_weight>  (1676) 
354.11034

>  <molecular_formula>  (1676) 
C20H18O6

>  <alogp>  (1676) 
2.72

>  <topological_polar_surface_area>  (1676) 
63.22

>  <rotatable_bond_count>  (1676) 
4

>  <hydrogen_bond_acceptors>  (1676) 
6

>  <hydrogen_bond_donors>  (1676) 
0

>  <hydrogen_bond_acceptors_lipinski>  (1676) 
6

>  <hydrogen_bond_donors_lipinski>  (1676) 
0

>  <lipinski_rule_of_five_violations>  (1676) 
0

>  <aromatic_rings_count>  (1676) 
2

>  <qed_drug_likeliness>  (1676) 
0.79

>  <formal_charge>  (1676) 
0

>  <fractioncsp3>  (1676) 
0.35

>  <number_of_minimal_rings>  (1676) 
5

>  <van_der_walls_volume>  (1676) 
303.34

>  <contains_sugar>  (1676) 
False

>  <contains_ring_sugars>  (1676) 
False

>  <contains_linear_sugars>  (1676) 
False

>  <murcko_framework>  (1676) 
O1c2ccc(cc2OC1)CC3COCC3Cc4ccc5OCOc5c4

>  <np_likeness>  (1676) 
1.10

>  <chemical_class>  (1676) 
Furanoid lignans

>  <chemical_sub_class>  (1676) 
Tetrahydrofuran lignans

>  <chemical_super_class>  (1676) 
Lignans, neolignans and related compounds

>  <direct_parent_classification>  (1676) 
Dibenzylbutyrolactone lignans

>  <np_classifier_pathway>  (1676) 
Shikimates and Phenylpropanoids

>  <np_classifier_superclass>  (1676) 
Lignans

>  <np_classifier_class>  (1676) 
Dibenzylbutyrolactone lignans

>  <np_classifier_is_glycoside>  (1676) 
False

>  <organisms>  (1676) 
Acanthopanax sp.|Aglaia meridionalis|Allium ursinum|Ammi majus|Amycolatopsis lurida|Anacystis cyanea|Anthriscus sylvestris|Aralia bipinnata|Arcangelisia gusanlung|Aristolochia Indica|Aristolochia chamissonis|Aristolochia constricta|Aristolochia cucurbitifolia|Aristolochia cymbifera|Aristolochia elegans|Aristolochia gehrtii|Aristolochia indica|Aristolochia littoralis|Aristolochia pubescens|Aristolochia sp.|Aristolochia triangularis|Artemisia schmidtiana|Aspergillus pseudodeflectus|Asplenium adiantum-nigrum|Babylonia japonica|Brickellia pendula|Bursera simaruba|Callitris sp.|Callyspongia truncata|Calocedrus formosana|Chaetomium retardatum|Chamaecyparis formosensis|Chamaecyparis obtusa|Chamaecyparis obtusa var. formosana|Chamaemelum scariosum|Cinnamomum Camphora|Cinnamomum camphora|Cinnamomum sp.|Citrus tankan|Cladonia pseudodidyma|Cladosporium herbarum|Cleidion brevipetiolatum|Coleus carnosus|Copaifera paupera|Cortinarius basirubescens|Crotalaria lechnaultii|Distemonanthus benthamianus|Dunaliella acidophila|Eleutherococcus divaricatus|Entandrophragma cylindricum|Escallonia philippiana|Ficus maxima|Gleichenia glauca|Helipterum strictum|Hesperocyparis nevadensis|Hippocratea indica|Horsfieldia glabra|Hypenia salzmannii|Hypoestes aristata|Hypoestes purpurea|Hyptis salzmanii|Illicium merrillianum|Illicium verum|Juniperus sabina|Juniperus semiglobosa|Juniperus thurifera|Lactobacillus acidophilus|Lathyrus macrorrhizus|Laurencia elata|Lentinellus omphalodes|Leptospermum scoparium|Libocedrus formosana|Linum corymbulosum|Linum sp.|Lychnophora ericoides|Machaerium mucronulatum|Macrosiphum liriodendri|Magnolia acuminata|Matteuccia struthiopteris|Millettia racemosa|Myristica cinnamomea|Ochtodes crockeri|Ophioglossum vulgatum|Parmelia conspersa|Phyfnnvik eyyfn|Phyllanthus Virgatus|Phyllanthus niruri|Phyllanthus urinaria|Phyllanthus virgatus|Piper Cubeba|Piper clusii|Piper cubeba|Piper nigrum|Piper philippinum|Piper ribesioides|Piper ribesoides|Piper sp.|Piper trichostachyon|Plumbago europaea|Podolepis canescens|Polyporus sulphureus|Pyrocystis lunula|Senecio erraticus|Simmondsia chinensis|Tabebuia rosea|Taiwania cryptomerioides|Talaromyces wortmanni|Tanacetum santolina|Thujopsis dolabrata|Thujopsis sp.|Timonius kaniensis|Virola carinata|Virola elongata|Virola michelii|Virola multinervia|Virola sebifera|Virola surinamensis|Virola venosa|West African Pepper|Zanthoxylum ailanthoides|Zanthoxylum dimorphophyllum|Zanthoxylum lemairie|Zanthoxylum naranjillo|Zanthoxylum petiolare|Zanthoxylum simulans|Zanthoxylum sp.|aristolochia constricta

>  <collections>  (1676) 
Australian natural products|CMAUP (cCollective molecular activities of useful plants)|ChEBI NPs|FooDB|KNApSaCK|Latin America dataset|NPACT|NPASS|NPEdia|NuBBEDB|PhytoLab phyproof® Reference Substances|Super Natural II|TCMDB-Taiwan (Traditional Chinese Medicine database)|TIPdb (database of Taiwan indigenous plants)|VietHerb|WikiData Natural Products|ZINC NP

>  <dois>  (1676) 
10.1002/HLCA.200790074|10.1002/JCCS.200400099|10.1002/PTR.1167|10.1007/BF02980142|10.1007/S11418-007-0159-2|10.1016/0031-9422(83)85040-7|10.1016/0031-9422(88)80219-X|10.1016/0031-9422(89)80081-0|10.1016/0031-9422(89)80372-3|10.1016/0031-9422(90)85020-G|10.1016/0031-9422(90)85139-7|10.1016/0031-9422(90)87139-L|10.1016/0031-9422(90)89065-H|10.1016/0031-9422(91)83055-P|10.1016/0031-9422(92)83285-7|10.1016/0031-9422(92)83495-K|10.1016/0031-9422(95)00464-I|10.1016/J.BMC.2003.10.031|10.1016/J.JCHROMB.2013.04.006|10.1016/J.PHYTOCHEM.2007.05.003|10.1016/J.PHYTOCHEM.2009.02.009|10.1016/S0031-9422(00)00275-2|10.1016/S0031-9422(00)00388-5|10.1016/S0031-9422(00)82577-7|10.1016/S0031-9422(00)83181-7|10.1016/S0031-9422(00)83546-3|10.1016/S0031-9422(00)84055-8|10.1016/S0031-9422(00)98111-1|10.1016/S0031-9422(03)00335-2|10.1016/S0031-9422(97)00199-4|10.1016/S0031-9422(98)00583-4|10.1016/S0031-9422(99)00074-6|10.1016/S0305-1978(02)00044-3|10.1016/S0968-0896(02)00130-X|10.1021/JO020045D|10.1021/NP0401765|10.1021/NP0401765.S001|10.1021/NP0497402|10.1021/NP50111A003|10.1021/NP800041T|10.1021/NP800689B|10.1021/NP9603380|10.1055/S-0029-1240952|10.1055/S-2006-947238|10.1055/S-2006-961520|10.1055/S-2006-961923|10.1080/10575639608043580|10.1248/CPB.46.875|10.1248/CPB.48.1006|10.1248/CPB.50.133|10.1248/CPB.50.978|10.1590/S0103-50532001000400004

>  <synonyms>  (1676) 
nan

>  <cas>  (1676) 
nan

$$$$

     RDKit          2D

 38 39  0  0  0  0  0  0  0  0999 V2000
  -15.0693    2.7424    0.0000 C   0  0  0  0  0  0  0  0  0  0  0  0
  -13.9407    1.7543    0.0000 C   0  0  0  0  0  0  0  0  0  0  0  0
  -14.2320    0.2829    0.0000 O   0  0  0  0  0  0  0  0  0  0  0  0
  -12.5207    2.2377    0.0000 C   0  0  0  0  0  0  0  0  0  0  0  0
  -11.3921    1.2497    0.0000 C   0  0  0  0  0  0  0  0  0  0  0  0
   -9.9721    1.7331    0.0000 C   0  0  0  0  0  0  0  0  0  0  0  0
   -8.8435    0.7451    0.0000 C   0  0  0  0  0  0  0  0  0  0  0  0
   -7.4235    1.2285    0.0000 C   0  0  0  0  0  0  0  0  0  0  0  0
   -6.2949    0.2404    0.0000 C   0  0  0  0  0  0  0  0  0  0  0  0
   -4.8749    0.7238    0.0000 C   0  0  0  0  0  0  0  0  0  0  0  0
   -3.7463   -0.2642    0.0000 C   0  0  0  0  0  0  0  0  0  0  0  0
   -2.3263    0.2192    0.0000 C   0  0  0  0  0  0  0  0  0  0  0  0
   -1.1977   -0.7689    0.0000 C   0  0  0  0  0  0  0  0  0  0  0  0
    0.2223   -0.2855    0.0000 C   0  0  0  0  0  0  0  0  0  0  0  0
    1.3509   -1.2735    0.0000 C   0  0  0  0  0  0  0  0  0  0  0  0
    2.7709   -0.7901    0.0000 C   0  0  0  0  0  0  0  0  0  0  0  0
    3.0622    0.6813    0.0000 C   0  0  0  0  0  0  0  0  0  0  0  0
    4.4822    1.1647    0.0000 C   0  0  0  0  0  0  0  0  0  0  0  0
    5.6108    0.1767    0.0000 C   0  0  0  0  0  0  0  0  0  0  0  0
    7.0308    0.6601    0.0000 O   0  0  0  0  0  0  0  0  0  0  0  0
    7.3221    2.1315    0.0000 C   0  0  0  0  0  0  0  0  0  0  0  0
    6.1935    3.1196    0.0000 O   0  0  0  0  0  0  0  0  0  0  0  0
    8.7421    2.6149    0.0000 O   0  0  0  0  0  0  0  0  0  0  0  0
    9.0335    4.0864    0.0000 C   0  0  0  0  0  0  0  0  0  0  0  0
   10.5049    3.7950    0.0000 C   0  0  0  0  0  0  0  0  0  0  0  0
    7.5620    4.3777    0.0000 C   0  0  0  0  0  0  0  0  0  0  0  0
    9.3248    5.5578    0.0000 C   0  0  0  0  0  0  0  0  0  0  0  0
    5.3195   -1.2947    0.0000 C   0  0  0  0  0  0  0  0  0  0  0  0
    6.4481   -2.2828    0.0000 C   0  0  0  0  0  0  0  0  0  0  0  0
    3.8995   -1.7781    0.0000 N   0  0  0  0  0  0  0  0  0  0  0  0
    3.6081   -3.2496    0.0000 C   0  0  0  0  0  0  0  0  0  0  0  0
    4.7368   -4.2376    0.0000 O   0  0  0  0  0  0  0  0  0  0  0  0
    2.1882   -3.7330    0.0000 C   0  0  0  0  0  0  0  0  0  0  0  0
    1.0595   -2.7449    0.0000 C   0  0  0  0  0  0  0  0  0  0  0  0
   -0.3604   -3.2283    0.0000 C   0  0  0  0  0  0  0  0  0  0  0  0
   -0.6518   -4.6997    0.0000 C   0  0  0  0  0  0  0  0  0  0  0  0
    0.4768   -5.6878    0.0000 C   0  0  0  0  0  0  0  0  0  0  0  0
    1.8968   -5.2044    0.0000 C   0  0  0  0  0  0  0  0  0  0  0  0
  1  2  1  0
  2  3  2  0
  2  4  1  0
  4  5  1  0
  5  6  1  0
  6  7  1  0
  7  8  1  0
  8  9  1  0
  9 10  1  0
 10 11  1  0
 11 12  1  0
 12 13  1  0
 13 14  1  0
 14 15  1  0
 16 15  1  1
 16 17  1  0
 17 18  1  0
 18 19  1  0
 19 20  1  1
 20 21  1  0
 21 22  2  0
 21 23  1  0
 23 24  1  0
 24 25  1  0
 24 26  1  0
 24 27  1  0
 19 28  1  0
 28 29  1  1
 28 30  1  0
 30 31  1  0
 31 32  2  0
 31 33  1  0
 33 34  2  0
 34 35  1  0
 35 36  2  0
 36 37  1  0
 37 38  2  0
 30 16  1  0
 38 33  1  0
M  END
>  <identifier>  (1677) 
CNP0099323.1

>  <canonical_smiles>  (1677) 
CC(=O)CCCCCCCCCCCC[C@H]1CC[C@@H](OC(=O)OC(C)(C)C)[C@@H](C)N1C(=O)C1=CC=CC=C1

>  <standard_inchi>  (1677) 
InChI=1S/C32H51NO5/c1-25(34)19-15-12-10-8-6-7-9-11-13-18-22-28-23-24-29(37-31(36)38-32(3,4)5)26(2)33(28)30(35)27-20-16-14-17-21-27/h14,16-17,20-21,26,28-29H,6-13,15,18-19,22-24H2,1-5H3/t26-,28+,29-/m1/s1

>  <standard_inchi_key>  (1677) 
IMVZSUXDXLTMEX-XNFLFYSQSA-N

>  <name>  (1677) 
nan

>  <iupac_name>  (1677) 
[(2~{R},3~{R},6~{S})-1-benzoyl-2-methyl-6-(13-oxotetradecyl)-3-piperidyl] ~{tert}-butyl carbonate

>  <annotation_level>  (1677) 
5

>  <total_atom_count>  (1677) 
89

>  <heavy_atom_count>  (1677) 
38

>  <molecular_weight>  (1677) 
529.76

>  <exact_molecular_weight>  (1677) 
529.37672

>  <molecular_formula>  (1677) 
C32H51NO5

>  <alogp>  (1677) 
8.27

>  <topological_polar_surface_area>  (1677) 
72.91

>  <rotatable_bond_count>  (1677) 
15

>  <hydrogen_bond_acceptors>  (1677) 
5

>  <hydrogen_bond_donors>  (1677) 
0

>  <hydrogen_bond_acceptors_lipinski>  (1677) 
5

>  <hydrogen_bond_donors_lipinski>  (1677) 
0

>  <lipinski_rule_of_five_violations>  (1677) 
2

>  <aromatic_rings_count>  (1677) 
1

>  <qed_drug_likeliness>  (1677) 
0.17

>  <formal_charge>  (1677) 
0

>  <fractioncsp3>  (1677) 
0.72

>  <number_of_minimal_rings>  (1677) 
2

>  <van_der_walls_volume>  (1677) 
540.68

>  <contains_sugar>  (1677) 
False

>  <contains_ring_sugars>  (1677) 
False

>  <contains_linear_sugars>  (1677) 
False

>  <murcko_framework>  (1677) 
c1ccc(cc1)CN2CCCCC2

>  <np_likeness>  (1677) 
0.65

>  <chemical_class>  (1677) 
Piperidines

>  <chemical_sub_class>  (1677) 
N-acylpiperidines

>  <chemical_super_class>  (1677) 
Organoheterocyclic compounds

>  <direct_parent_classification>  (1677) 
N-benzoylpiperidines

>  <np_classifier_pathway>  (1677) 
nan

>  <np_classifier_superclass>  (1677) 
nan

>  <np_classifier_class>  (1677) 
nan

>  <np_classifier_is_glycoside>  (1677) 
False

>  <organisms>  (1677) 
Senna spectabilis

>  <collections>  (1677) 
ChemSpider NPs|Latin America dataset|NuBBEDB|Super Natural II|WikiData Natural Products|ZINC NP

>  <dois>  (1677) 
10.1248/CPB.56.407|10.1248/cpb.56.407

>  <synonyms>  (1677) 
N-Benzoyl-2-(R)-methyl-6-(S)-(tetradecyl-13'-one)-3-(R)-O-tert-butoxycarbonyl-piperidine

>  <cas>  (1677) 
nan

$$$$

     RDKit          2D

 20 22  0  0  0  0  0  0  0  0999 V2000
    1.7994   -3.1938    0.0000 O   0  0  0  0  0  0  0  0  0  0  0  0
    1.2309   -1.8057    0.0000 C   0  0  0  0  0  0  0  0  0  0  0  0
   -0.2555   -1.6040    0.0000 C   0  0  0  0  0  0  0  0  0  0  0  0
   -0.8240   -0.2159    0.0000 C   0  0  0  0  0  0  0  0  0  0  0  0
   -2.3104   -0.0142    0.0000 C   0  0  0  0  0  0  0  0  0  0  0  0
   -2.8789    1.3738    0.0000 C   0  0  0  0  0  0  0  0  0  0  0  0
   -4.3653    1.5755    0.0000 C   0  0  0  0  0  0  0  0  0  0  0  0
   -5.2832    0.3891    0.0000 C   0  0  0  0  0  0  0  0  0  0  0  0
   -6.7695    0.5908    0.0000 O   0  0  0  0  0  0  0  0  0  0  0  0
   -4.7146   -0.9989    0.0000 C   0  0  0  0  0  0  0  0  0  0  0  0
   -3.2282   -1.2006    0.0000 C   0  0  0  0  0  0  0  0  0  0  0  0
    0.0938    0.9705    0.0000 O   0  0  0  0  0  0  0  0  0  0  0  0
    1.5802    0.7688    0.0000 C   0  0  0  0  0  0  0  0  0  0  0  0
    2.4981    1.9552    0.0000 C   0  0  0  0  0  0  0  0  0  0  0  0
    3.9845    1.7535    0.0000 C   0  0  0  0  0  0  0  0  0  0  0  0
    4.9023    2.9399    0.0000 O   0  0  0  0  0  0  0  0  0  0  0  0
    4.5530    0.3654    0.0000 C   0  0  0  0  0  0  0  0  0  0  0  0
    3.6351   -0.8210    0.0000 C   0  0  0  0  0  0  0  0  0  0  0  0
    4.2036   -2.2091    0.0000 O   0  0  0  0  0  0  0  0  0  0  0  0
    2.1487   -0.6193    0.0000 C   0  0  0  0  0  0  0  0  0  0  0  0
  1  2  2  0
  2  3  1  0
  3  4  1  0
  4  5  1  1
  5  6  2  0
  6  7  1  0
  7  8  2  0
  8  9  1  0
  8 10  1  0
 10 11  2  0
  4 12  1  0
 12 13  1  0
 13 14  2  0
 14 15  1  0
 15 16  1  0
 15 17  2  0
 17 18  1  0
 18 19  1  0
 18 20  2  0
 20  2  1  0
 11  5  1  0
 20 13  1  0
M  END
>  <identifier>  (1678) 
CNP0218028.1

>  <canonical_smiles>  (1678) 
O=C1C[C@@H](C2=CC=C(O)C=C2)OC2=CC(O)=CC(O)=C12

>  <standard_inchi>  (1678) 
InChI=1S/C15H12O5/c16-9-3-1-8(2-4-9)13-7-12(19)15-11(18)5-10(17)6-14(15)20-13/h1-6,13,16-18H,7H2/t13-/m0/s1

>  <standard_inchi_key>  (1678) 
FTVWIRXFELQLPI-ZDUSSCGKSA-N

>  <name>  (1678) 
naringenin

>  <iupac_name>  (1678) 
(2~{S})-5,7-dihydroxy-2-(4-hydroxyphenyl)chroman-4-one

>  <annotation_level>  (1678) 
5

>  <total_atom_count>  (1678) 
32

>  <heavy_atom_count>  (1678) 
20

>  <molecular_weight>  (1678) 
272.26

>  <exact_molecular_weight>  (1678) 
272.06847

>  <molecular_formula>  (1678) 
C15H12O5

>  <alogp>  (1678) 
2.51

>  <topological_polar_surface_area>  (1678) 
86.99

>  <rotatable_bond_count>  (1678) 
1

>  <hydrogen_bond_acceptors>  (1678) 
5

>  <hydrogen_bond_donors>  (1678) 
3

>  <hydrogen_bond_acceptors_lipinski>  (1678) 
5

>  <hydrogen_bond_donors_lipinski>  (1678) 
3

>  <lipinski_rule_of_five_violations>  (1678) 
0

>  <aromatic_rings_count>  (1678) 
2

>  <qed_drug_likeliness>  (1678) 
0.74

>  <formal_charge>  (1678) 
0

>  <fractioncsp3>  (1678) 
0.13

>  <number_of_minimal_rings>  (1678) 
3

>  <van_der_walls_volume>  (1678) 
231.30

>  <contains_sugar>  (1678) 
False

>  <contains_ring_sugars>  (1678) 
False

>  <contains_linear_sugars>  (1678) 
False

>  <murcko_framework>  (1678) 
O1c2ccccc2CCC1c3ccccc3

>  <np_likeness>  (1678) 
1.76

>  <chemical_class>  (1678) 
Flavonoids

>  <chemical_sub_class>  (1678) 
Flavans

>  <chemical_super_class>  (1678) 
Phenylpropanoids and polyketides

>  <direct_parent_classification>  (1678) 
Flavanones

>  <np_classifier_pathway>  (1678) 
Shikimates and Phenylpropanoids

>  <np_classifier_superclass>  (1678) 
Flavonoids

>  <np_classifier_class>  (1678) 
Flavanones

>  <np_classifier_is_glycoside>  (1678) 
False

>  <organisms>  (1678) 
Acacia dealbata|Acacia longifolia|Acacia speckii|Acer pictum|Achyrocline flaccida|Actinidia chinensis var. deliciosa|Actinidia chinensis var. hispida|Adenothamnus validus|Aeonium lindleyi|Aeschynanthus bracteatus|Aglaia formosana|Aglaia rubiginosa|Allagopappus viscosissimus|Alpinia katsumadai|Alpinia zerumbet|Ambrosia bidentata|Anacardium Occidentale|Anacardium occidentale|Anastatica hierochuntica|Andira inermis|Anethum graveolens|Antiphiona fragrans|Antiphiona pinnatisecta|Aphis graminum|Aphis pini|Apis mellifera ligustica|Apium graveolens|Apium graveolens var. dulce|Arabidopsis thaliana|Aronia arbutifolia|Artemisia argyi|Artemisia barrelieri|Artemisia campestris|Artemisia campestris ssp.maritima|Artemisia crithmifolia|Artemisia dracunculus|Artemisia glutinosa|Artemisia rehan|Artemisia spp.|Arum maximum|Asarum heterotropoides|Asarum sieboldii|Asiasarum heterotropoides|Asiasarum sieboldii|Aspergillus desertorum|Aspergillus oryzae SaMF2103a-68 [C4T318 mdh3 and pyc]|Aster koraiensis|Aulosira fertilissima|Avena sativa|Avrainvillea longicaulis|Baccharis brachylaenoides var. ligustrina|Baccharis dracunculifolia|Baccharis heterophylla|Baccharis linearifolia|Baccharis retusa|Baccharis salzmannii|Baccharis spp.|Baccharis thesioides|Baccharis varians|Bahiopsis laciniata|Baphicacanthus cusia|Bauhinia guianensis|Berchemia floribunda|Berchemia formosana|Berchemia racemosa|Betula maximowicziana|Betula pendula|Betula pubescens|Bonnemaisonia asparagoides|Bonnetia dinizii|Bracteantha acuminata|Brassica oleracea|Brassica oleracea var. viridis|Brazilian Red Propolis|Breea segeta|Brosimum acutifolium|Broussonetia Papyrifera|Broussonetia papyrifera|Bryum argenteum|Cacospongia scalaris|Calea urticifolia|Callicarpa japonica|Camellia Sinensis|Camellia sinensis|Camellia sinensis var.assamica|Candida albicans|Capnella erecta|Capsicum annuum|Carapa guianensis|Carduus tenuiflorus|Catharanthus roseus|Cedrus deodara|Centaurea cyanus|Centaurea spp.|Centromadia fitchii|Cerbera manghas|Chamomilla recutita|Chromolaena connivens|Chromolaena tyleri|Chrysanthemum morifolium|Chrysanthemum x morifolium|Chrysocephalum ambiguum|Chrysothamnus humilis|Chrysothamnus viscidiflorus|Cicer arietinum|Cirsium setosum|Cistus laurifolius|Citrus|Citrus Aurantium|Citrus Grandis|Citrus aurantiifolia|Citrus aurantium|Citrus aurantium L. var. amara|Citrus depressa|Citrus grandis|Citrus grandis var.tomentosa|Citrus japonica|Citrus latifolia|Citrus limon|Citrus maxima|Citrus medica|Citrus medica var. sarcodactylis|Citrus natsudaidai|Citrus nobilis|Citrus paradisi|Citrus reticulata|Citrus sinensis|Citrus spp.|Citrus sudachi|Citrus trifoliata|Citrus unshiu|Citrus × deliciosa|Citrus × paradisi|Cladrastis platycarpa|Clibadium mexiae|Clinopodium laxiflorum|Clione antarctica|Cochlospermum gillivraei|Cocos nucifera|Combretum imberbe|Commiphora socotrana|Commiphora wightii|Coprosma areolata|Coriandrum sativum|Cortinarius orellanus|Cota palaestina|Cotoneaster orbicularis|Couepia paraensis|Craspedolobium schochii|Craspedolobium unijugum|Crocus sativus|Crotalaria Assamica|Crotalaria Pallida|Crotalaria assamica|Crotalaria juncea|Crotalaria pallida|Crotalaria sericea|Crotalaria spectabilis|Croton megistocarpus|Cryptomeria japonica|Cudrania cochinchinensis|Cudrania cochinchinensis var. gerontogea|Cudrania tricuspidata|Curcuma mangga|Cycas circinalis|Cycas revoluta|Cyclopia intermedia|Cylindrospermum muscicola|Dahlia spp.|Dalbergia odorifera|Dalbergia parviflora|Dalbergia stevensonii|Deinandra arida|Deinandra corymbosa|Deinandra halliana|Deinandra kelloggii|Deinandra lobbii|Deinandra minthornii|Deinandra pallida|Deinandra paniculata|Deinandra pentactis|Deinandra streetsii|Dendroaspis angusticeps|Dendrobium candidum|Dendrobium catenatum|Dendrobium chrysanthum|Dendrobium chrysotoxum|Dendrobium densiflorum|Dendrobium densiflorum Lindl.ex.Wall.|Dendrobium fimbriatum|Dendrobium loddigesii|Dendrobium nobile|Desmodium styracifolium|Dioscorea alata|Diplodia natalensis|Diplostephium cinereum|Discaria serratifolia|Dracocephalum tanguticum|Elaeodendron croceum|Elephantopus hirtiflorus|Entada phaseoloides|Equisetum arvense|Equsetum arvense|Eragrostis tef|Eremanthus seidelii|Erigeron breviscapus|Erythrina addisoniae|Euonymus alatus|Euphorbia amygdaloides|Euphorbia hirta|Fallopia multiflora|Ficus nervosa|Ficus pumila|Flemingia Stricta|Flemingia macrophylla|Flemingia prostrata|Flemingia stricta|Foeniculum vulgare|Fragaria|Fragaria x ananassa|Gambierdiscus toxicus|Garcinia multiflora|Geranium sibiricum|Glycine Max|Glycine max|Glycosmis ovoidea|Glycyrrhiza Uralensis|Glycyrrhiza echinata|Glycyrrhiza glabra|Glycyrrhiza inflata|Glycyrrhiza uralensis|Gmelina asiatica|Goniothalamus dolichocarpus|Goniothalamus montanus|Great yellow gentian|Gutierrezia microcephala|Gynerium sagittatum|Hedysarum polybotrys|Helichrysum arenarium|Helichrysum armenium|Helichrysum bracteatum (Vent.)Andr.|Helichrysum cephaloideum|Helichrysum graveolen|Heliotropium chenopodiaceum|Heliotropium hirsutissimum|Heliotropium sclerocarpum|Heliotropium sinuatum|Heliotropium taltalense|Hemionitis japonica|Hesperis matronalis|Homo sapiens|Humulus lupulus|Hypericum balearicum|Hyssopus officinalis|Ideopsis similis|Intsia Bijuga|Intsia bijuga|Inula salsoloides|Inulanthera calva|Inulanthera dregeana|Jackiella javanica|Jatropha macrorhiza|Juniperus chinensis|Justicia hayatai|Kumquat|Lagerstroemia indica|Laguncularia racemosa|Lamyropsis cynaroides|Lentinus tigrinus|Lepechinia caulescens|Lespedeza cyrtobotrya|Leucanthemopsis pallida|Lichtheimia blakesleeana|Ligularia cymbulifera|Lilium umbellatum|Limonium sinense|Lippia graveolens|Lippia origanoides|Lobophytum laevigatum|Lupinus subcarnosus|Lupinus texensis|Lychnophora ericoides|Lysimachia christinae|Maackia amurensis|Mabea caudata|Maclura cochinchinensis|Maclura pomifera|Maclura tinctoria|Maclura tricuspidata|Magnolia denudata|Magnolia liliiflora|Magnolia montana|Malus domestica|Malus pumila|Mandevilla hirsuta|Maprounea guianensis|Matricaria chamomilla|Matthiola incana|Maytenus retusa|Medicago truncatula|Melissa officinalis|Menispermum dauricum|Mentha spicata|Mexican propolis|Micromeria graeca|Millettia brandisiana|Mimosa hostilis|Mimosa tenuiflora|Mitracarpus scaber|Moghania philippinensis|Momordica charantia|Monopterix inpae|Monopteryx inpae|Nematolepis phebalioides|Nicotiana raimondii|Nymphaea caerulea|Opuntia|Oreopteris quelpaertensis|Origanum dictamnus|Ormosia henryi|Ormosia monosperma|Oryza Sativa|Oryza sativa|Panax ginseng|Pangium edule|Paulownia coreana|Paulownia tomentosa|Peritassa campestris|Persea kusanoi|Persicaria orientalis|Phaseolus vulgaris|Phlomis aurea|Phlomis caucasica|Phlomis floccosa|Phora velutina|Phyllanthus Emblica|Phyllanthus emblica|Pimpinella anisum|Piper crassinervium|Piper crassinervium Kunth|Pistacia vera|Pisum sativum|Pittocaulon praecox|Pittocaulon velatum|Plazia daphnoides|Podocarpus fasciculus|Polymnia fruticosa|Polyzonium rosalbum|Populus alba|Populus balsamifera|Populus candicans|Populus cathayana|Populus deltoides|Populus szechuanica|Populus tomentosa|Populus tremula|Populus tremuloides|Populus trichocarpa|Populus tristis|Premna fulva|Premna resinosa|Propolis|Prunus Mume|Prunus Persica|Prunus armeniaca|Prunus avium|Prunus cerasus|Prunus cornuta|Prunus davidiana|Prunus domestica|Prunus dulcis|Prunus mume|Prunus persica|Prunus serrulata var. spontanea|Prunus yedoensis|Pseudomonas fluorescens|Pseudotsuga sinensis var. sinensis|Pseudotsuga sinensis var. wilsoniana|Pseudotsuga wilsoniana|Psidium guajava|Pteris dactylina|Pterocarpus marsupium|Pyrostegia venusta|Rana amurensis|Raphanus sativus|Raukaua simplex|Retama raetam|Rhizobium leguminosarum|Rhododendron dauricum|Rhus vulgaris|Rhynchosia beddomei|Ribes nigrum|Ribes rubrum|Roccella fucoides|Rosmarinus officinalis|Rubritalea squalenifaciens|Rubus idaeus|Salix caprea|Salvia mexicana|Salvia officinalis|Salvia xalapensis|Sapindus emarginatus|Sarcophyte sanguinea|Sarcophyton elegans|Satureja cuneifolia|Satureja montana|Savoy cabbage|Scalesia baurii|Scarlet firethorn|Schnella guianensis|Scolopia chinensis|Scutellaria barbata|Sedum obtuso-lineare|Senecio adenophyllus|Senecio isatideus|Senna tora|Sinningia cardinalis|Siparuna|Smallanthus fruticosus|Smilax bracteata|Smilax china|Smilax corbularia|Smilax excelsa|Smilax glabra|Solanum lycopersicum|Solanum nigrum|Solidago flexicaulis|Sophora japonica|Sorghum bicolor|Spatholobus sinensis|Spatholobus suberectus|Stachys aegyptiaca|Stauranthus perforatus|Steiractinia sodiroi|Sterculia foetida|Stizolobium deeringianum|Streptomyces clavuligerus|Streptomyces filamentosus|Streptomyces graminofaciens|Streptomyces halstedii|Streptomyces jumonjinensis|Streptomyces katsurahamanus|Streptomyces venezuelae|Strombus gigas|Swartzia polyphylla|Syzygium jambos|Taxus wallichiana|Teucrium betonicum|Teucrium chamaedrys|Teucrium gnaphalodes|Theobroma Cacao|Theobroma cacao L.|Thymus|Thymus herba-barona|Thymus numidicus|Thymus piperella|Thymus quinquecostatus|Thymus vulgaris|Tilia mandshurica|Tilia tomentosa|Trichophyton mentagrophytes|Trifoliate orange|Trigonella foenum-graecum|Trollius chinensis|Trollius europaeus|Turpinia arguta|Typha Angustifolia|Typha angustifolia|Typha orientalis|Umbilicaria esculenta|Urospermum dalechampii|Vaccinium vitis-idaea|Veronica chamaedrys|Viburnum cotinifolium|Vigna angularis|Vigna mungo|Viguiera linearis|Viscaria viscosa|Viscum angulatum|Viscum coloratum|Vitex agnus-castus|Vitex negundo|Vitis vinifera|Wisteriopsis reticulata|Wyethia angustifolia|Xanthoceras sorbifolia|Xanthoceras sorbifolium|Xanthorrhoea fulva|Xanthorrhoea glauca|Xerochrysum bracteatum|Xerochrysum subundulatum|Zingiber officinale|asparagus|basil|broad bean|broccoli|garlic|lettuce|liquorice|parsley|pomegranate|soybean|tarragon|tomato

>  <collections>  (1678) 
ANPDB|Australian natural products|CMAUP (cCollective molecular activities of useful plants)|ChEBI NPs|ChemSpider NPs|ConMedNP|DrugBankNP|ETM (Ethiopian Traditional Medicine) DB|Exposome-explorer|FooDB|GNPS (Global Natural Products Social Molecular Networking)|KNApSaCK|Latin America dataset|NANPDB (Natural Products from Northern African Sources)|NPASS|NPEdia|NuBBEDB|Phenol-explorer|Phyto4Health|SANCDB|StreptomeDB|Super Natural II|TCMDB-Taiwan (Traditional Chinese Medicine database)|TIPdb (database of Taiwan indigenous plants)|UEFS (Natural Products Databse of the UEFS)|VietHerb|WikiData Natural Products

>  <dois>  (1678) 
10.1002/(SICI)1099-1565(199707)8:4<176::AID-PCA351>3.0.CO;2-K|10.1002/(SICI)1099-1565(200003/04)11:2<69::AID-PCA499>3.0.CO;2-Y|10.1002/(SICI)1099-1573(199602)10:1<13::AID-PTR764>3.0.CO;2-1|10.1002/CBDV.200900227|10.1002/CBDV.201100002|10.1002/CBDV.201100219|10.1002/CBER.19731060432|10.1002/CHIN.200315207|10.1002/CHIN.200329185|10.1002/CHIN.200340218|10.1002/CHIN.200402241|10.1002/CHIN.200441208|10.1002/ELPS.201300646|10.1002/JCCS.198400042|10.1002/JCCS.199500018|10.1002/JCCS.200000028|10.1002/JPS.2600680236|10.1002/JSFA.1035|10.1002/JSSC.200500003|10.1002/JSSC.200900365|10.1002/MCS.1047|10.1007/BF00381261|10.1007/BF00567046|10.1007/BF00571226|10.1007/BF00571236|10.1007/BF00574601|10.1007/BF00580092|10.1007/BF02002621|10.1007/BF02236417|10.1007/BF02262470|10.1007/BF02858178|10.1007/BF02976600|10.1007/S00217-004-0943-0|10.1007/S00299-017-2236-7|10.1007/S10600-009-9195-3|10.1007/S10600-010-9462-3|10.1007/S10600-010-9594-5|10.1007/s00253-013-5132-2|10.1016/0003-9861(58)90205-4|10.1016/0003-9861(86)90738-1|10.1016/0021-9673(95)00765-2|10.1016/0031-9422(73)80461-3|10.1016/0031-9422(75)80380-3|10.1016/0031-9422(80)85153-3|10.1016/0031-9422(81)85097-2|10.1016/0031-9422(81)85107-2|10.1016/0031-9422(82)83054-9|10.1016/0031-9422(86)88052-9|10.1016/0031-9422(88)80455-2|10.1016/0031-9422(88)80695-2|10.1016/0031-9422(88)83135-2|10.1016/0031-9422(88)84093-7|10.1016/0031-9422(88)87035-3|10.1016/0031-9422(89)80072-X|10.1016/0031-9422(89)80200-6|10.1016/0031-9422(91)80088-I|10.1016/0031-9422(91)83067-U|10.1016/0031-9422(91)83491-3|10.1016/0031-9422(91)83628-X|10.1016/0031-9422(92)80399-Y|10.1016/0031-9422(92)83119-J|10.1016/0031-9422(93)85108-4|10.1016/0031-9422(93)85293-Z|10.1016/0031-9422(94)00971-U|10.1016/0031-9422(95)00217-U|10.1016/0031-9422(95)00277-E|10.1016/0031-9422(95)00395-N|10.1016/0031-9422(95)00807-1|10.1016/0098-8472(86)90054-7|10.1016/0305-1978(87)90101-3|10.1016/0305-1978(87)90107-4|10.1016/0305-1978(89)90096-3|10.1016/0305-1978(91)90071-7|10.1016/0305-1978(91)90088-H|10.1016/0305-1978(94)00092-U|10.1016/J.BMC.2007.10.004|10.1016/J.BMC.2008.04.016|10.1016/J.BMC.2009.07.041|10.1016/J.BMC.2010.01.046|10.1016/J.BMC.2012.02.044|10.1016/J.BMC.2017.05.009|10.1016/J.BMCL.2003.11.074|10.1016/J.BMCL.2010.09.086|10.1016/J.BMCL.2015.07.017|10.1016/J.BSE.2012.11.001|10.1016/J.BSE.2015.01.015|10.1016/J.FBIO.2018.07.004|10.1016/J.FBP.2011.10.004|10.1016/J.FITOTE.2011.10.007|10.1016/J.FOODCHEM.2008.11.094|10.1016/J.FOODRES.2017.03.019|10.1016/J.JBIOTEC.2009.03.013|10.1016/J.JFCA.2006.09.005|10.1016/J.JFF.2015.12.019|10.1016/J.JNUTBIO.2005.05.009|10.1016/J.JPBA.2019.03.056|10.1016/J.LWT.2018.02.024|10.1016/J.NUTRES.2007.12.002|10.1016/J.PHYTOCHEM.2003.09.003|10.1016/J.PHYTOCHEM.2006.10.023|10.1016/J.PHYTOCHEM.2007.03.007|10.1016/J.PHYTOCHEM.2007.05.016|10.1016/J.PHYTOCHEM.2008.05.012|10.1016/J.PHYTOCHEM.2009.08.018|10.1016/J.PHYTOCHEM.2009.11.008|10.1016/J.PHYTOCHEM.2010.12.018|10.1016/J.PLAPHY.2015.04.008|10.1016/S0021-9673(00)94139-6|10.1016/S0021-9673(01)88918-4|10.1016/S0021-9673(97)01061-3|10.1016/S0031-9422(00)80546-4|10.1016/S0031-9422(00)81244-3|10.1016/S0031-9422(00)81304-7|10.1016/S0031-9422(00)84139-4|10.1016/S0031-9422(00)84791-3|10.1016/S0031-9422(00)84904-3|10.1016/S0031-9422(00)85805-7|10.1016/S0031-9422(00)89805-2|10.1016/S0031-9422(00)90378-9|10.1016/S0031-9422(00)94338-3|10.1016/S0031-9422(00)94801-5|10.1016/S0031-9422(00)95009-X|10.1016/S0031-9422(00)95195-1|10.1016/S0031-9422(00)97033-X|10.1016/S0031-9422(00)97556-3|10.1016/S0031-9422(00)97569-1|10.1016/S0031-9422(01)00154-6|10.1016/S0031-9422(01)00168-6|10.1016/S0031-9422(01)00273-4|10.1016/S0031-9422(03)00299-1|10.1016/S0031-9422(03)00503-X|10.1016/S0031-9422(97)00464-0|10.1016/S0031-9422(97)00671-7|10.1016/S0031-9422(98)00180-0|10.1016/S0031-9422(99)00110-7|10.1016/S0031-9422(99)00598-1|10.1016/S0305-1978(02)00149-7|10.1016/S0305-1978(97)00031-8|10.1016/S0305-1978(97)00070-7|10.1016/S0305-1978(97)00096-3|10.1016/S0305-1978(99)00064-2|10.1016/S0305-1978(99)00121-0|10.1016/S0367-326X(00)00218-5|10.1016/S0378-8741(00)00304-4|10.1016/S0960-894X(03)00088-X|10.1016/j.bmc.2007.10.004|10.1016/j.bmc.2008.04.016|10.1016/j.bmc.2010.01.046|10.1016/j.bmc.2012.02.044|10.1016/j.bmc.2017.05.009|10.1016/j.bmcl.2009.07.098|10.1016/j.bmcl.2010.09.086|10.1016/j.bmcl.2015.07.017|10.1016/j.jbiotec.2009.03.013|10.1016/s0960-894x(03)00088-x|10.1017/S0007114509993679|10.1021/ACS.JNATPROD.6B00783|10.1021/ACS.JNATPROD.9B01120.S001|10.1021/JF000661F|10.1021/JF030813H|10.1021/JF040083T|10.1021/JF903216R|10.1021/JF904596M|10.1021/JF980258X|10.1021/JF980936F|10.1021/NP000406P|10.1021/NP010288L|10.1021/NP010338M|10.1021/NP020241F|10.1021/NP030065Q|10.1021/NP030127C|10.1021/NP0304417.S001|10.1021/NP0497907|10.1021/NP050034Q|10.1021/NP050041E.S001|10.1021/NP060217S|10.1021/NP0703904|10.1021/NP200188W|10.1021/NP50020A005|10.1021/NP50025A019|10.1021/NP50040A007|10.1021/NP50041A040|10.1021/NP50043A035|10.1021/NP50103A006|10.1021/NP50118A028|10.1021/NP800535G|10.1021/NP9004129|10.1021/NP900676Y|10.1021/NP9902441|10.1021/acs.jnatprod.6b00440|10.1021/acs.jnatprod.6b00783|10.1021/jf1017143|10.1021/np000406p|10.1021/np010288l|10.1021/np030127c|10.1021/np0703904|10.1021/np070417j|10.1021/np200188w|10.1021/np50103a006|10.1021/np800535g|10.1021/np900676y|10.1021/np900681y|10.1021/np900772m|10.1039/P19730001737|10.1046/J.1365-313X.2003.01834.X|10.1046/J.1463-1318.2003.00444.X|10.1055/S-0028-1097462|10.1055/S-0029-1240743|10.1055/S-0030-1250144|10.1055/S-2000-8547|10.1055/S-2006-957876|10.1055/S-2006-960148|10.1055/S-2006-960950|10.1055/S-2006-961488|10.1055/S-2006-961937|10.1055/S-2006-962469|10.1055/S-2007-969549|10.1071/ch9640428|10.1080/10575630108041254|10.1080/10575639508043197|10.1080/10575639908048829|10.1080/10575639908048834|10.1080/14786410310001617668|10.1080/14786410903052399|10.1080/14786419.2010.538924|10.1093/jn/132.11.3349|10.1104/PP.105.4.1427|10.1104/PP.106.078428|10.1104/PP.114.253682|10.1104/PP.18.00549|10.1104/PP.69.2.522|10.1104/PP.93.1.20|10.1111/J.1745-4557.2006.00096.X|10.1111/J.1750-3841.2012.02803.X|10.1186/S12864-015-1547-8|10.1201/B19644-31|10.1248/BPB.21.1062|10.1248/BPB.28.527|10.1248/BPB.34.160|10.1248/CPB.31.919|10.1248/CPB.35.229|10.1248/CPB.40.2970|10.1248/CPB.42.2588|10.1248/CPB.44.1748|10.1248/CPB.45.1485|10.1248/CPB.48.1286|10.1248/CPB.50.583|10.1248/CPB.50.841|10.1248/CPB.54.1063|10.1248/CPB.54.1465|10.1248/CPB.54.1728|10.1248/CPB.56.585|10.1248/CPB.58.971|10.1248/YAKUSHI1947.110.5_354|10.1271/BBB1961.51.349|10.1371/JOURNAL.PONE.0121164|10.1371/JOURNAL.PONE.0142777|10.1371/JOURNAL.PONE.0212062|10.1371/JOURNAL.PONE.0219973|10.14233/AJCHEM.2014.16143A|10.1515/ZNB-1992-0125|10.1515/ZNC-1983-11-1201|10.1515/ZNC-1983-7-810|10.1515/ZNC-1986-1-214|10.1515/ZNC-1987-11-1206|10.1515/ZNC-1990-0604|10.1515/ZNC-1991-1-207|10.1515/ZNC-1992-3-423|10.1515/ZNC-1992-7-804|10.21608/BFSA.2003.65468|10.3389/fmicb.2019.02550|10.3390/IJMS19041049|10.3390/MOLECULES14061980|10.3390/MOLECULES14114625|10.3390/MOLECULES19010122|10.3390/MOLECULES23020469|10.3390/MOLECULES23071558|10.3390/NU11020402|10.3987/COM-08-11625|10.3987/COM-99-8524|10.3998/ARK.5550190.0011.213|10.4014/JMB.1108.08012|10.4014/jmb.1108.08012|10.5012/BKCS.2010.31.01.227|10.5539/JPS.V1N2P61|10.7164/ANTIBIOTICS.43.1533

>  <synonyms>  (1678) 
(-)-(2S)-Naringenin|(2S)-4',5,7-trihydroxyflavanone|(2S)-5,7,4'-trihydroxyflavone|(2S)-5,7-dihydroxy-2-(4-hydroxyphenyl)-2,3-dihydro-4H-chromen-4-one|(2S)-5,7-dihydroxy-2-(4-hydroxyphenyl)-3,4-dihydro-2H-1-benzopyran-4-one|(S)-2,3-Dihydro-5,7-dihydroxy-2-(4-hydroxyphenyl)-4H-1-benzopyran-4-one|(S)-5,7-Dihydroxy-2-(4-hydroxyphenyl)chroman-4-one|(S)-Naringenin|13308-00-4|1ST40170|2uxu|4',5,7-Trihydroxyflavanon|4',5,7-triOH-Flavone|4',5,7-trihydroxyflavan-4-one|480-41-1|4H-1-Benzopyran-4-one, 2,3-dihydro-5,7-dihydroxy-2-(4-hydroxyphenyl)-, (2S)-|4deu|4eh3|5,7,4'-Trihydroxyflavanone|A827427|AC-33954|AI3-23355|AIDS001417|AKOS016843490|Asahina|BDBM23419|BE-14348A|BIDD:ER0116|BRD-K08832567-001-02-4|BSPBio_001954|C00509|C15H12O5|CAS-480-41-1|CCG-38601|CCRIS 5839|CHEBI:17846|CHEMBL9352|CS-6421|DB03467|DTXCID302392|DTXSID1022392|DivK1c_000118|EINECS 207-550-2|EN300-303163|FS-4072|FSL0714|Flavanone, 4',5,7-trihydroxy-|HMS2202M06|HMS500F20|HN5425SBF2|HY-N0100|IDI1_000118|KBio1_000118|KBio2_000727|KBio2_003295|KBio2_005863|KBio3_001454|KBioGR_000508|KBioSS_000727|LMPK12140001|MLS000574861|NARIGENIN|NARINGENIN [INCI]|NARINGENIN [MI]|NARINGENIN, (-)-|NCGC00016457-01|NCGC00017346-01|NCGC00163598-01|NINDS_000118|NS00068233|NSC 11855|NSC 34875|NSC-11855|NSC-34875|Nari|Naringenine|Phytochemistry 8: 127 (1969)|Q-100666|Q418374|SCHEMBL20570|SDCCGMLS-0066570.P001|SMR000156272|SPBio_000329|SPECTRUM1500746|SR-01000721771|SW219329-1|Salipurol|Spectrum2_000325|Spectrum3_000567|Spectrum5_001423|Spectrum_000247|TNP00287|UNII-HN5425SBF2|YSO1|naringenin|naringetol|pelargidanon|pelargidanon 1602|s2394|salipurpol

>  <cas>  (1678) 
480-41-1|13308-00-4

$$$$

     RDKit          2D

 17 18  0  0  0  0  0  0  0  0999 V2000
   -4.9131    1.7077    0.0000 C   0  0  0  0  0  0  0  0  0  0  0  0
   -3.4225    1.5396    0.0000 C   0  0  0  0  0  0  0  0  0  0  0  0
   -2.8229    0.1647    0.0000 C   0  0  0  0  0  0  0  0  0  0  0  0
   -1.3323   -0.0035    0.0000 C   0  0  0  0  0  0  0  0  0  0  0  0
   -0.7327   -1.3784    0.0000 C   0  0  0  0  0  0  0  0  0  0  0  0
   -1.6236   -2.5852    0.0000 O   0  0  0  0  0  0  0  0  0  0  0  0
   -1.0239   -3.9601    0.0000 C   0  0  0  0  0  0  0  0  0  0  0  0
    0.7579   -1.5466    0.0000 C   0  0  0  0  0  0  0  0  0  0  0  0
    1.3575   -2.9215    0.0000 O   0  0  0  0  0  0  0  0  0  0  0  0
    1.6488   -0.3398    0.0000 C   0  0  0  0  0  0  0  0  0  0  0  0
    3.1393   -0.5080    0.0000 C   0  0  0  0  0  0  0  0  0  0  0  0
    4.0302    0.6988    0.0000 C   0  0  0  0  0  0  0  0  0  0  0  0
    3.4306    2.0737    0.0000 C   0  0  0  0  0  0  0  0  0  0  0  0
    1.9400    2.2419    0.0000 C   0  0  0  0  0  0  0  0  0  0  0  0
    1.0491    1.0351    0.0000 C   0  0  0  0  0  0  0  0  0  0  0  0
   -0.4414    1.2033    0.0000 N   0  0  0  0  0  0  0  0  0  0  0  0
   -1.0411    2.5782    0.0000 C   0  0  0  0  0  0  0  0  0  0  0  0
  1  2  1  0
  2  3  1  0
  3  4  1  0
  4  5  2  0
  5  6  1  0
  6  7  1  0
  5  8  1  0
  8  9  2  0
  8 10  1  0
 10 11  2  0
 11 12  1  0
 12 13  2  0
 13 14  1  0
 14 15  2  0
 15 16  1  0
 16 17  1  0
 16  4  1  0
 15 10  1  0
M  END
>  <identifier>  (1679) 
CNP0167382.0

>  <canonical_smiles>  (1679) 
CCCC1=C(OC)C(=O)C2=CC=CC=C2N1C

>  <standard_inchi>  (1679) 
InChI=1S/C14H17NO2/c1-4-7-12-14(17-3)13(16)10-8-5-6-9-11(10)15(12)2/h5-6,8-9H,4,7H2,1-3H3

>  <standard_inchi_key>  (1679) 
GEGKYZYCKNLWLI-UHFFFAOYSA-N

>  <name>  (1679) 
Leiokinine A

>  <iupac_name>  (1679) 
3-methoxy-1-methyl-2-propyl-quinolin-4-one

>  <annotation_level>  (1679) 
5

>  <total_atom_count>  (1679) 
34

>  <heavy_atom_count>  (1679) 
17

>  <molecular_weight>  (1679) 
231.29

>  <exact_molecular_weight>  (1679) 
231.12593

>  <molecular_formula>  (1679) 
C14H17NO2

>  <alogp>  (1679) 
2.50

>  <topological_polar_surface_area>  (1679) 
31.23

>  <rotatable_bond_count>  (1679) 
3

>  <hydrogen_bond_acceptors>  (1679) 
3

>  <hydrogen_bond_donors>  (1679) 
0

>  <hydrogen_bond_acceptors_lipinski>  (1679) 
3

>  <hydrogen_bond_donors_lipinski>  (1679) 
0

>  <lipinski_rule_of_five_violations>  (1679) 
0

>  <aromatic_rings_count>  (1679) 
2

>  <qed_drug_likeliness>  (1679) 
0.81

>  <formal_charge>  (1679) 
0

>  <fractioncsp3>  (1679) 
0.36

>  <number_of_minimal_rings>  (1679) 
2

>  <van_der_walls_volume>  (1679) 
220.96

>  <contains_sugar>  (1679) 
False

>  <contains_ring_sugars>  (1679) 
False

>  <contains_linear_sugars>  (1679) 
False

>  <murcko_framework>  (1679) 
c1ccc2c(c1)NC=CC2

>  <np_likeness>  (1679) 
0.06

>  <chemical_class>  (1679) 
Quinolines and derivatives

>  <chemical_sub_class>  (1679) 
Quinolones and derivatives

>  <chemical_super_class>  (1679) 
Organoheterocyclic compounds

>  <direct_parent_classification>  (1679) 
Hydroquinolones

>  <np_classifier_pathway>  (1679) 
Alkaloids

>  <np_classifier_superclass>  (1679) 
Tryptophan alkaloids

>  <np_classifier_class>  (1679) 
Acridone alkaloids

>  <np_classifier_is_glycoside>  (1679) 
False

>  <organisms>  (1679) 
Esenbeckia leiocarpa

>  <collections>  (1679) 
ChEBI NPs|ChemSpider NPs|KNApSaCK|Latin America dataset|NPEdia|NuBBEDB|Super Natural II|UNPD (Universal Natural Products Database)|WikiData Natural Products|ZINC NP

>  <dois>  (1679) 
10.1021/NP50072A017|10.3390/MOLECULES15129205|10.3390/molecules15129205

>  <synonyms>  (1679) 
132587-63-4|3-Methoxy-1-methyl-2-propyl-4-quinolone|3-methoxy-1-methyl-2-propylquinolin-4-one|AC1L2ZBU|AKOS040752466|C10703|CHEBI:6404|DTXSID10157650|Leiokinine A|Q27107193

>  <cas>  (1679) 
132587-63-4

$$$$

     RDKit          2D

 25 29  0  0  0  0  0  0  0  0999 V2000
   -0.3902   -3.2589    0.0000 C   0  0  0  0  0  0  0  0  0  0  0  0
    0.7219   -2.2523    0.0000 C   0  0  0  0  0  0  0  0  0  0  0  0
    0.4062   -0.7859    0.0000 C   0  0  0  0  0  0  0  0  0  0  0  0
   -1.0216   -0.3261    0.0000 C   0  0  0  0  0  0  0  0  0  0  0  0
   -1.3372    1.1403    0.0000 C   0  0  0  0  0  0  0  0  0  0  0  0
   -2.7650    1.6002    0.0000 C   0  0  0  0  0  0  0  0  0  0  0  0
   -3.8771    0.5936    0.0000 C   0  0  0  0  0  0  0  0  0  0  0  0
   -5.3693    0.7465    0.0000 O   0  0  0  0  0  0  0  0  0  0  0  0
   -5.9759   -0.6254    0.0000 C   0  0  0  0  0  0  0  0  0  0  0  0
   -4.8585   -1.6262    0.0000 O   0  0  0  0  0  0  0  0  0  0  0  0
   -3.5614   -0.8728    0.0000 C   0  0  0  0  0  0  0  0  0  0  0  0
   -2.1337   -1.3327    0.0000 C   0  0  0  0  0  0  0  0  0  0  0  0
    1.5183    0.2207    0.0000 C   0  0  0  0  0  0  0  0  0  0  0  0
    2.9461   -0.2392    0.0000 C   0  0  0  0  0  0  0  0  0  0  0  0
    4.0582    0.7674    0.0000 C   0  0  0  0  0  0  0  0  0  0  0  0
    3.7426    2.2338    0.0000 C   0  0  0  0  0  0  0  0  0  0  0  0
    2.3148    2.6937    0.0000 C   0  0  0  0  0  0  0  0  0  0  0  0
    1.2027    1.6871    0.0000 C   0  0  0  0  0  0  0  0  0  0  0  0
   -0.0983    2.4337    0.0000 O   0  0  0  0  0  0  0  0  0  0  0  0
    0.2098    3.9017    0.0000 C   0  0  0  0  0  0  0  0  0  0  0  0
    1.7012    4.0624    0.0000 O   0  0  0  0  0  0  0  0  0  0  0  0
    3.2618   -1.7056    0.0000 C   0  0  0  0  0  0  0  0  0  0  0  0
    4.6896   -2.1654    0.0000 O   0  0  0  0  0  0  0  0  0  0  0  0
    2.1497   -2.7122    0.0000 C   0  0  0  0  0  0  0  0  0  0  0  0
    2.4653   -4.1786    0.0000 C   0  0  0  0  0  0  0  0  0  0  0  0
  2  1  1  6
  2  3  1  0
  3  4  1  1
  4  5  2  0
  5  6  1  0
  6  7  2  0
  7  8  1  0
  8  9  1  0
  9 10  1  0
 10 11  1  0
 11 12  2  0
  3 13  1  0
 13 14  2  0
 14 15  1  0
 15 16  2  0
 16 17  1  0
 17 18  2  0
 18 19  1  0
 19 20  1  0
 20 21  1  0
 14 22  1  0
 22 23  2  0
 22 24  1  0
 24 25  1  1
 24  2  1  0
 12  4  1  0
 18 13  1  0
 11  7  1  0
 21 17  1  0
M  END
>  <identifier>  (1680) 
CNP0192821.1

>  <canonical_smiles>  (1680) 
C[C@@H]1[C@@H](C2=CC=C3OCOC3=C2)C2=C(C=CC3=C2OCO3)C(=O)[C@H]1C

>  <standard_inchi>  (1680) 
InChI=1S/C20H18O5/c1-10-11(2)19(21)13-4-6-15-20(25-9-23-15)18(13)17(10)12-3-5-14-16(7-12)24-8-22-14/h3-7,10-11,17H,8-9H2,1-2H3/t10-,11-,17-/m0/s1

>  <standard_inchi_key>  (1680) 
ZTOORMQTJNUZOQ-DINDLPBHSA-N

>  <name>  (1680) 
Otobanone

>  <iupac_name>  (1680) 
(7~{S},8~{R},9~{S})-9-(1,3-benzodioxol-5-yl)-7,8-dimethyl-8,9-dihydro-7~{H}-benzo[e][1,3]benzodioxol-6-one

>  <annotation_level>  (1680) 
5

>  <total_atom_count>  (1680) 
43

>  <heavy_atom_count>  (1680) 
25

>  <molecular_weight>  (1680) 
338.36

>  <exact_molecular_weight>  (1680) 
338.11542

>  <molecular_formula>  (1680) 
C20H18O5

>  <alogp>  (1680) 
3.74

>  <topological_polar_surface_area>  (1680) 
53.99

>  <rotatable_bond_count>  (1680) 
1

>  <hydrogen_bond_acceptors>  (1680) 
5

>  <hydrogen_bond_donors>  (1680) 
0

>  <hydrogen_bond_acceptors_lipinski>  (1680) 
5

>  <hydrogen_bond_donors_lipinski>  (1680) 
0

>  <lipinski_rule_of_five_violations>  (1680) 
0

>  <aromatic_rings_count>  (1680) 
2

>  <qed_drug_likeliness>  (1680) 
0.79

>  <formal_charge>  (1680) 
0

>  <fractioncsp3>  (1680) 
0.35

>  <number_of_minimal_rings>  (1680) 
5

>  <van_der_walls_volume>  (1680) 
292.61

>  <contains_sugar>  (1680) 
False

>  <contains_ring_sugars>  (1680) 
False

>  <contains_linear_sugars>  (1680) 
False

>  <murcko_framework>  (1680) 
O1c2ccc(cc2OC1)C3c4c5OCOc5ccc4CCC3

>  <np_likeness>  (1680) 
1.31

>  <chemical_class>  (1680) 
Aryltetralin lignans

>  <chemical_sub_class>  (1680) 
Aryltetralin lignans

>  <chemical_super_class>  (1680) 
Lignans, neolignans and related compounds

>  <direct_parent_classification>  (1680) 
Aryltetralin lignans

>  <np_classifier_pathway>  (1680) 
Shikimates and Phenylpropanoids

>  <np_classifier_superclass>  (1680) 
Lignans

>  <np_classifier_class>  (1680) 
Arylnaphthalene and aryltetralin lignans

>  <np_classifier_is_glycoside>  (1680) 
False

>  <organisms>  (1680) 
Chamaecyparis obtusa|Myristica cagayanensis|Virola elongata|Virola sebifera

>  <collections>  (1680) 
ChemSpider NPs|Latin America dataset|NuBBEDB|Super Natural II|WikiData Natural Products

>  <dois>  (1680) 
10.1002/1099-1565(200011/12)11:6<383::AID-PCA543>3.0.CO,2-M|10.1016/0031-9422(90)85020-G|10.1016/S0040-4039(01)01272-2|10.1248/CPB.37.2310

>  <synonyms>  (1680) 
(7S,8R,9S)-9-(1,3-Benzodioxol-5-yl)-8,9-dihydro-7,8-dimethylnaphtho[1,2-d]-1,3-dioxol-6(7H)-one|(7S,8R,9S)-9-(1,3-benzodioxol-5-yl)-7,8-dimethyl-8,9-dihydro-7H-benzo[g][1,3]benzodioxol-6-one|1-Oxo-otobain|329365-50-6|34426-79-4|9-(1,3-Benzodioxol-5-yl)-8,9-dihydro-7,8-dimethylnaphtho[1,2-d]-1,3-dioxol-6(7H)-one, (7S,8R,9S)-|CHEBI:191826|DTXSID50188004|Naphtho(1,2-d)-1,3-dioxol-6(7H)-one, 9-(1,3-benzodioxol-5-yl)-8,9-dihydro-7,8-dimethyl-, (7R-(7alpha,8beta,9alpha))-|Naphtho[1,2-d]-1,3-dioxol-6(7H)-one, 9-(1,3-benzodioxol-5-yl)-8,9-dihydro-7,8-dimethyl-, (7S,8R,9S)-|VZU5TKC74T

>  <cas>  (1680) 
34426-79-4|329365-50-6

$$$$

     RDKit          2D

 22 23  0  0  0  0  0  0  0  0999 V2000
   -7.1906    0.9975    0.0000 C   0  0  0  0  0  0  0  0  0  0  0  0
   -5.7009    1.1727    0.0000 O   0  0  0  0  0  0  0  0  0  0  0  0
   -4.8043   -0.0299    0.0000 C   0  0  0  0  0  0  0  0  0  0  0  0
   -5.3974   -1.4076    0.0000 O   0  0  0  0  0  0  0  0  0  0  0  0
   -3.3146    0.1453    0.0000 C   0  0  0  0  0  0  0  0  0  0  0  0
   -2.4180   -1.0573    0.0000 C   0  0  0  0  0  0  0  0  0  0  0  0
   -0.9282   -0.8821    0.0000 C   0  0  0  0  0  0  0  0  0  0  0  0
   -0.0317   -2.0846    0.0000 C   0  0  0  0  0  0  0  0  0  0  0  0
    1.4581   -1.9094    0.0000 C   0  0  0  0  0  0  0  0  0  0  0  0
    2.3547   -3.1120    0.0000 O   0  0  0  0  0  0  0  0  0  0  0  0
    1.7615   -4.4897    0.0000 C   0  0  0  0  0  0  0  0  0  0  0  0
    2.0512   -0.5317    0.0000 C   0  0  0  0  0  0  0  0  0  0  0  0
    3.5410   -0.3565    0.0000 O   0  0  0  0  0  0  0  0  0  0  0  0
    4.1341    1.0213    0.0000 C   0  0  0  0  0  0  0  0  0  0  0  0
    5.1627    2.1130    0.0000 C   0  0  0  0  0  0  0  0  0  0  0  0
    5.3879    0.1979    0.0000 C   0  0  0  0  0  0  0  0  0  0  0  0
    3.2375    2.2238    0.0000 C   0  0  0  0  0  0  0  0  0  0  0  0
    1.7478    2.0486    0.0000 C   0  0  0  0  0  0  0  0  0  0  0  0
    1.1546    0.6709    0.0000 C   0  0  0  0  0  0  0  0  0  0  0  0
   -0.3351    0.4957    0.0000 C   0  0  0  0  0  0  0  0  0  0  0  0
   -1.2317    1.6982    0.0000 O   0  0  0  0  0  0  0  0  0  0  0  0
   -0.6385    3.0760    0.0000 C   0  0  0  0  0  0  0  0  0  0  0  0
  1  2  1  0
  2  3  1  0
  3  4  2  0
  3  5  1  0
  5  6  1  0
  6  7  1  0
  7  8  2  0
  8  9  1  0
  9 10  1  0
 10 11  1  0
  9 12  2  0
 12 13  1  0
 13 14  1  0
 14 15  1  0
 14 16  1  0
 14 17  1  0
 17 18  2  0
 18 19  1  0
 19 20  2  0
 20 21  1  0
 21 22  1  0
 20  7  1  0
 19 12  1  0
M  END
>  <identifier>  (1681) 
CNP0207130.0

>  <canonical_smiles>  (1681) 
COC(=O)CCC1=CC(OC)=C2OC(C)(C)C=CC2=C1OC

>  <standard_inchi>  (1681) 
InChI=1S/C17H22O5/c1-17(2)9-8-12-15(21-5)11(6-7-14(18)20-4)10-13(19-3)16(12)22-17/h8-10H,6-7H2,1-5H3

>  <standard_inchi_key>  (1681) 
KECOJQKMSOIXHK-UHFFFAOYSA-N

>  <name>  (1681) 
nan

>  <iupac_name>  (1681) 
methyl 3-(5,8-dimethoxy-2,2-dimethyl-chromen-6-yl)propanoate

>  <annotation_level>  (1681) 
4

>  <total_atom_count>  (1681) 
44

>  <heavy_atom_count>  (1681) 
22

>  <molecular_weight>  (1681) 
306.36

>  <exact_molecular_weight>  (1681) 
306.14672

>  <molecular_formula>  (1681) 
C17H22O5

>  <alogp>  (1681) 
2.99

>  <topological_polar_surface_area>  (1681) 
53.99

>  <rotatable_bond_count>  (1681) 
5

>  <hydrogen_bond_acceptors>  (1681) 
5

>  <hydrogen_bond_donors>  (1681) 
0

>  <hydrogen_bond_acceptors_lipinski>  (1681) 
5

>  <hydrogen_bond_donors_lipinski>  (1681) 
0

>  <lipinski_rule_of_five_violations>  (1681) 
0

>  <aromatic_rings_count>  (1681) 
1

>  <qed_drug_likeliness>  (1681) 
0.78

>  <formal_charge>  (1681) 
0

>  <fractioncsp3>  (1681) 
0.47

>  <number_of_minimal_rings>  (1681) 
2

>  <van_der_walls_volume>  (1681) 
nan

>  <contains_sugar>  (1681) 
False

>  <contains_ring_sugars>  (1681) 
False

>  <contains_linear_sugars>  (1681) 
False

>  <murcko_framework>  (1681) 
O1c2ccccc2C=CC1

>  <np_likeness>  (1681) 
1.78

>  <chemical_class>  (1681) 
Benzopyrans

>  <chemical_sub_class>  (1681) 
1-benzopyrans

>  <chemical_super_class>  (1681) 
Organoheterocyclic compounds

>  <direct_parent_classification>  (1681) 
2,2-dimethyl-1-benzopyrans

>  <np_classifier_pathway>  (1681) 
Terpenoids

>  <np_classifier_superclass>  (1681) 
Meroterpenoids

>  <np_classifier_class>  (1681) 
Merohemiterpenoids

>  <np_classifier_is_glycoside>  (1681) 
False

>  <organisms>  (1681) 
Hortia brasiliana|Hortia oreadica

>  <collections>  (1681) 
Latin America dataset|NuBBEDB|WikiData Natural Products|ZINC NP

>  <dois>  (1681) 
10.1016/J.BSE.2012.03.005|10.1016/j.bse.2012.03.005

>  <synonyms>  (1681) 
Methyl 58-dimethoxy-22-dimethyl-2H-1-benzopyran-6-propanoate

>  <cas>  (1681) 
nan

$$$$

     RDKit          2D

 23 24  0  0  0  0  0  0  0  0999 V2000
  -10.0327   -0.1100    0.0000 C   0  0  0  0  0  0  0  0  0  0  0  0
   -8.6145    0.3785    0.0000 C   0  0  0  0  0  0  0  0  0  0  0  0
   -8.3283    1.8509    0.0000 O   0  0  0  0  0  0  0  0  0  0  0  0
   -7.4823   -0.6056    0.0000 C   0  0  0  0  0  0  0  0  0  0  0  0
   -6.0641   -0.1171    0.0000 C   0  0  0  0  0  0  0  0  0  0  0  0
   -4.9320   -1.1012    0.0000 O   0  0  0  0  0  0  0  0  0  0  0  0
   -3.5137   -0.6127    0.0000 C   0  0  0  0  0  0  0  0  0  0  0  0
   -3.2276    0.8597    0.0000 C   0  0  0  0  0  0  0  0  0  0  0  0
   -1.8093    1.3482    0.0000 C   0  0  0  0  0  0  0  0  0  0  0  0
   -0.6772    0.3641    0.0000 C   0  0  0  0  0  0  0  0  0  0  0  0
    0.7410    0.8526    0.0000 C   0  0  0  0  0  0  0  0  0  0  0  0
    1.8732   -0.1315    0.0000 C   0  0  0  0  0  0  0  0  0  0  0  0
    3.2914    0.3570    0.0000 N   0  0  0  0  0  0  0  0  0  0  0  0
    4.4235   -0.6271    0.0000 C   0  0  0  0  0  0  0  0  0  0  0  0
    4.1374   -2.0995    0.0000 O   0  0  0  0  0  0  0  0  0  0  0  0
    5.8418   -0.1386    0.0000 C   0  0  0  0  0  0  0  0  0  0  0  0
    6.9739   -1.1227    0.0000 C   0  0  0  0  0  0  0  0  0  0  0  0
    8.3921   -0.6342    0.0000 C   0  0  0  0  0  0  0  0  0  0  0  0
    8.6783    0.8382    0.0000 C   0  0  0  0  0  0  0  0  0  0  0  0
    7.5462    1.8223    0.0000 C   0  0  0  0  0  0  0  0  0  0  0  0
    6.1279    1.3338    0.0000 C   0  0  0  0  0  0  0  0  0  0  0  0
   -0.9633   -1.1083    0.0000 C   0  0  0  0  0  0  0  0  0  0  0  0
   -2.3816   -1.5968    0.0000 C   0  0  0  0  0  0  0  0  0  0  0  0
  1  2  1  0
  2  3  2  0
  2  4  1  0
  4  5  1  0
  5  6  1  0
  6  7  1  0
  7  8  2  0
  8  9  1  0
  9 10  2  0
 10 11  1  0
 11 12  1  0
 12 13  1  0
 13 14  1  0
 14 15  2  0
 14 16  1  0
 16 17  2  0
 17 18  1  0
 18 19  2  0
 19 20  1  0
 20 21  2  0
 10 22  1  0
 22 23  2  0
 23  7  1  0
 21 16  1  0
M  END
>  <identifier>  (1682) 
CNP0254510.0

>  <canonical_smiles>  (1682) 
CC(=O)CCOC1=CC=C(CCNC(=O)C2=CC=CC=C2)C=C1

>  <standard_inchi>  (1682) 
InChI=1S/C19H21NO3/c1-15(21)12-14-23-18-9-7-16(8-10-18)11-13-20-19(22)17-5-3-2-4-6-17/h2-10H,11-14H2,1H3,(H,20,22)

>  <standard_inchi_key>  (1682) 
YGGUVPJVOHWWNU-UHFFFAOYSA-N

>  <name>  (1682) 
nan

>  <iupac_name>  (1682) 
~{N}-[2-[4-(3-oxobutoxy)phenyl]ethyl]benzamide

>  <annotation_level>  (1682) 
4

>  <total_atom_count>  (1682) 
44

>  <heavy_atom_count>  (1682) 
23

>  <molecular_weight>  (1682) 
311.38

>  <exact_molecular_weight>  (1682) 
311.15214

>  <molecular_formula>  (1682) 
C19H21NO3

>  <alogp>  (1682) 
3.02

>  <topological_polar_surface_area>  (1682) 
55.40

>  <rotatable_bond_count>  (1682) 
8

>  <hydrogen_bond_acceptors>  (1682) 
3

>  <hydrogen_bond_donors>  (1682) 
1

>  <hydrogen_bond_acceptors_lipinski>  (1682) 
3

>  <hydrogen_bond_donors_lipinski>  (1682) 
1

>  <lipinski_rule_of_five_violations>  (1682) 
0

>  <aromatic_rings_count>  (1682) 
2

>  <qed_drug_likeliness>  (1682) 
0.82

>  <formal_charge>  (1682) 
0

>  <fractioncsp3>  (1682) 
0.26

>  <number_of_minimal_rings>  (1682) 
2

>  <van_der_walls_volume>  (1682) 
nan

>  <contains_sugar>  (1682) 
False

>  <contains_ring_sugars>  (1682) 
False

>  <contains_linear_sugars>  (1682) 
False

>  <murcko_framework>  (1682) 
c1ccc(cc1)CNCCc2ccccc2

>  <np_likeness>  (1682) 
-0.75

>  <chemical_class>  (1682) 
Benzene and substituted derivatives

>  <chemical_sub_class>  (1682) 
Benzoic acids and derivatives

>  <chemical_super_class>  (1682) 
Benzenoids

>  <direct_parent_classification>  (1682) 
Benzamides

>  <np_classifier_pathway>  (1682) 
Shikimates and Phenylpropanoids

>  <np_classifier_superclass>  (1682) 
nan

>  <np_classifier_class>  (1682) 
nan

>  <np_classifier_is_glycoside>  (1682) 
False

>  <organisms>  (1682) 
Swinglea glutinosa

>  <collections>  (1682) 
Latin America dataset|NuBBEDB|WikiData Natural Products|ZINC NP

>  <dois>  (1682) 
10.1590/S0100-40422012001100015|10.1590/S0100-40422012001100015√Ç¬†

>  <synonyms>  (1682) 
N-{2-[4-(butoxyl-3-one)phenyl]ethyl}benzamide

>  <cas>  (1682) 
nan

$$$$

     RDKit          2D

 40 46  0  0  0  0  0  0  0  0999 V2000
    1.2696   -4.5258    0.0000 C   0  0  0  0  0  0  0  0  0  0  0  0
    0.8830   -3.0765    0.0000 O   0  0  0  0  0  0  0  0  0  0  0  0
   -0.5655   -2.6866    0.0000 C   0  0  0  0  0  0  0  0  0  0  0  0
   -1.4903   -3.8675    0.0000 O   0  0  0  0  0  0  0  0  0  0  0  0
   -0.9520   -1.2372    0.0000 C   0  0  0  0  0  0  0  0  0  0  0  0
    0.1099   -0.1778    0.0000 O   0  0  0  0  0  0  0  0  0  0  0  0
   -2.4005   -0.8473    0.0000 C   0  0  0  0  0  0  0  0  0  0  0  0
   -3.5673   -1.7900    0.0000 C   0  0  0  0  0  0  0  0  0  0  0  0
   -4.5878   -2.8893    0.0000 C   0  0  0  0  0  0  0  0  0  0  0  0
   -4.0091   -0.3565    0.0000 C   0  0  0  0  0  0  0  0  0  0  0  0
   -2.9886    0.7428    0.0000 C   0  0  0  0  0  0  0  0  0  0  0  0
   -3.4304    2.1763    0.0000 O   0  0  0  0  0  0  0  0  0  0  0  0
   -4.8927    2.5104    0.0000 C   0  0  0  0  0  0  0  0  0  0  0  0
   -5.3345    3.9439    0.0000 C   0  0  0  0  0  0  0  0  0  0  0  0
   -5.9132    1.4111    0.0000 O   0  0  0  0  0  0  0  0  0  0  0  0
   -1.5262    0.4087    0.0000 C   0  0  0  0  0  0  0  0  0  0  0  0
   -1.0844   -1.0247    0.0000 C   0  0  0  0  0  0  0  0  0  0  0  0
    0.4154   -1.0475    0.0000 O   0  0  0  0  0  0  0  0  0  0  0  0
    0.9005    0.3718    0.0000 C   0  0  0  0  0  0  0  0  0  0  0  0
    0.7211   -1.1174    0.0000 C   0  0  0  0  0  0  0  0  0  0  0  0
    1.9211   -2.0174    0.0000 C   0  0  0  0  0  0  0  0  0  0  0  0
    1.7417   -3.5066    0.0000 O   0  0  0  0  0  0  0  0  0  0  0  0
    3.3005   -1.4282    0.0000 O   0  0  0  0  0  0  0  0  0  0  0  0
    3.4800    0.0611    0.0000 C   0  0  0  0  0  0  0  0  0  0  0  0
    4.8594    0.6503    0.0000 C   0  0  0  0  0  0  0  0  0  0  0  0
    5.1935    2.1126    0.0000 C   0  0  0  0  0  0  0  0  0  0  0  0
    6.6875    2.2467    0.0000 O   0  0  0  0  0  0  0  0  0  0  0  0
    7.2767    0.8673    0.0000 C   0  0  0  0  0  0  0  0  0  0  0  0
    6.1469   -0.1194    0.0000 C   0  0  0  0  0  0  0  0  0  0  0  0
    2.2800    0.9611    0.0000 C   0  0  0  0  0  0  0  0  0  0  0  0
    3.6594    1.5503    0.0000 C   0  0  0  0  0  0  0  0  0  0  0  0
    2.4594    2.4503    0.0000 C   0  0  0  0  0  0  0  0  0  0  0  0
    1.2594    3.3503    0.0000 C   0  0  0  0  0  0  0  0  0  0  0  0
   -0.1200    2.7611    0.0000 C   0  0  0  0  0  0  0  0  0  0  0  0
   -2.5034    2.1622    0.0000 C   0  0  0  0  0  0  0  0  0  0  0  0
   -3.3666    3.3890    0.0000 C   0  0  0  0  0  0  0  0  0  0  0  0
   -0.2995    1.2719    0.0000 C   0  0  0  0  0  0  0  0  0  0  0  0
   -1.5870    2.0415    0.0000 O   0  0  0  0  0  0  0  0  0  0  0  0
   -2.1049   -2.1241    0.0000 C   0  0  0  0  0  0  0  0  0  0  0  0
   -1.8412   -3.6007    0.0000 O   0  0  0  0  0  0  0  0  0  0  0  0
  1  2  1  0
  2  3  1  0
  3  4  2  0
  3  5  1  0
  5  6  1  6
  7  5  1  1
  7  8  1  0
  8  9  1  1
  8 10  1  0
 10 11  1  0
 11 12  1  6
 12 13  1  0
 13 14  1  0
 13 15  2  0
 11 16  1  0
 16 17  1  1
 17 18  1  0
 18 19  1  0
 19 20  1  6
 20 21  1  0
 21 22  2  0
 21 23  1  0
 23 24  1  0
 24 25  1  6
 25 26  2  0
 26 27  1  0
 27 28  1  0
 28 29  2  0
 24 30  1  0
 30 31  1  6
 30 32  1  0
 32 33  1  0
 34 33  1  1
 34 35  1  0
 35 36  1  1
 34 37  1  0
 37 38  1  6
 17 39  1  0
 39 40  1  1
 35  7  1  0
 39  8  1  0
 35 11  1  0
 37 16  1  0
 30 19  1  0
 37 19  1  0
 29 25  1  0
M  END
>  <identifier>  (1683) 
CNP0080502.2

>  <canonical_smiles>  (1683) 
COC(=O)[C@@H](O)[C@H]1[C@@]2(C)C[C@]3(OC(C)=O)[C@@H]4C(O[C@]56CC(=O)O[C@@H](C7=COC=C7)[C@]5(C)CC[C@H]([C@]13C)[C@]46O)[C@H]2O

>  <standard_inchi>  (1683) 
InChI=1S/C29H36O11/c1-13(30)39-27-12-24(2)19(17(32)23(34)36-5)26(27,4)15-6-8-25(3)22(14-7-9-37-11-14)38-16(31)10-28(25)29(15,35)20(27)18(40-28)21(24)33/h7,9,11,15,17-22,32-33,35H,6,8,10,12H2,1-5H3/t15-,17+,18?,19+,20+,21-,22+,24-,25+,26-,27+,28-,29+/m1/s1

>  <standard_inchi_key>  (1683) 
NVAICDOAKPCBRQ-MZUCUKMYSA-N

>  <name>  (1683) 
nan

>  <iupac_name>  (1683) 
methyl (2~{S})-2-[(1~{S},2~{R},3~{S},4~{R},7~{S},8~{S},12~{R},15~{S},16~{R},17~{S},18~{S})-1-acetoxy-8-(3-furyl)-3,15-dihydroxy-7,16,18-trimethyl-10-oxo-9,13-dioxahexacyclo[14.2.1.0^{2,14}.0^{3,12}.0^{4,18}.0^{7,12}]nonadecan-17-yl]-2-hydroxy-acetate

>  <annotation_level>  (1683) 
4

>  <total_atom_count>  (1683) 
76

>  <heavy_atom_count>  (1683) 
40

>  <molecular_weight>  (1683) 
560.6

>  <exact_molecular_weight>  (1683) 
560.22576

>  <molecular_formula>  (1683) 
C29H36O11

>  <alogp>  (1683) 
1.43

>  <topological_polar_surface_area>  (1683) 
161.96

>  <rotatable_bond_count>  (1683) 
4

>  <hydrogen_bond_acceptors>  (1683) 
11

>  <hydrogen_bond_donors>  (1683) 
3

>  <hydrogen_bond_acceptors_lipinski>  (1683) 
11

>  <hydrogen_bond_donors_lipinski>  (1683) 
3

>  <lipinski_rule_of_five_violations>  (1683) 
2

>  <aromatic_rings_count>  (1683) 
1

>  <qed_drug_likeliness>  (1683) 
0.36

>  <formal_charge>  (1683) 
0

>  <fractioncsp3>  (1683) 
0.76

>  <number_of_minimal_rings>  (1683) 
7

>  <van_der_walls_volume>  (1683) 
nan

>  <contains_sugar>  (1683) 
False

>  <contains_ring_sugars>  (1683) 
False

>  <contains_linear_sugars>  (1683) 
False

>  <murcko_framework>  (1683) 
o1ccc(c1)C2OCCC34OC5CC6CC7C(CCC23)C4C5C7C6

>  <np_likeness>  (1683) 
3.02

>  <chemical_class>  (1683) 
Carboxylic acids and derivatives

>  <chemical_sub_class>  (1683) 
Tricarboxylic acids and derivatives

>  <chemical_super_class>  (1683) 
Organic acids and derivatives

>  <direct_parent_classification>  (1683) 
Tricarboxylic acids and derivatives

>  <np_classifier_pathway>  (1683) 
Terpenoids

>  <np_classifier_superclass>  (1683) 
Triterpenoids

>  <np_classifier_class>  (1683) 
Limonoids

>  <np_classifier_is_glycoside>  (1683) 
False

>  <organisms>  (1683) 
Khaya senegalensis

>  <collections>  (1683) 
Latin America dataset|NuBBEDB|WikiData Natural Products

>  <dois>  (1683) 
10.1016/0031-9422(95)00093-3

>  <synonyms>  (1683) 
methyl 1\u221a\u00e9\u00ac\u00b1-acetoxy-2\u221a\u00e9\u00ac\u22643\u221a\u00e9\u00ac\u00b168\u221a\u00e9\u00ac\u00b114\u221a\u00e9\u00ac\u2264-pentahydroxy-[4.2.1(1030).1(14)]-tricyclomeliac-7-oate

>  <cas>  (1683) 
nan

$$$$

     RDKit          2D

 24 27  0  0  0  0  0  0  0  0999 V2000
    4.0219   -3.7571    0.0000 C   0  0  0  0  0  0  0  0  0  0  0  0
    2.7690   -2.9323    0.0000 C   0  0  0  0  0  0  0  0  0  0  0  0
    2.8569   -1.4349    0.0000 C   0  0  0  0  0  0  0  0  0  0  0  0
    4.1976   -0.7623    0.0000 C   0  0  0  0  0  0  0  0  0  0  0  0
    5.4505   -1.5871    0.0000 O   0  0  0  0  0  0  0  0  0  0  0  0
    4.2855    0.7352    0.0000 C   0  0  0  0  0  0  0  0  0  0  0  0
    5.6263    1.4078    0.0000 O   0  0  0  0  0  0  0  0  0  0  0  0
    5.7141    2.9052    0.0000 C   0  0  0  0  0  0  0  0  0  0  0  0
    3.0326    1.5600    0.0000 C   0  0  0  0  0  0  0  0  0  0  0  0
    1.6919    0.8874    0.0000 C   0  0  0  0  0  0  0  0  0  0  0  0
    1.6040   -0.6101    0.0000 C   0  0  0  0  0  0  0  0  0  0  0  0
    0.1527   -0.9892    0.0000 O   0  0  0  0  0  0  0  0  0  0  0  0
   -0.6563    0.2739    0.0000 C   0  0  0  0  0  0  0  0  0  0  0  0
   -2.1538    0.3618    0.0000 C   0  0  0  0  0  0  0  0  0  0  0  0
   -2.8264    1.7025    0.0000 C   0  0  0  0  0  0  0  0  0  0  0  0
   -4.3238    1.7904    0.0000 C   0  0  0  0  0  0  0  0  0  0  0  0
   -5.1486    0.5375    0.0000 C   0  0  0  0  0  0  0  0  0  0  0  0
   -6.6316    0.3121    0.0000 O   0  0  0  0  0  0  0  0  0  0  0  0
   -6.8755   -1.1679    0.0000 C   0  0  0  0  0  0  0  0  0  0  0  0
   -5.5433   -1.8572    0.0000 O   0  0  0  0  0  0  0  0  0  0  0  0
   -4.4760   -0.8032    0.0000 C   0  0  0  0  0  0  0  0  0  0  0  0
   -2.9786   -0.8911    0.0000 C   0  0  0  0  0  0  0  0  0  0  0  0
    0.2949    1.4337    0.0000 C   0  0  0  0  0  0  0  0  0  0  0  0
   -0.0842    2.8850    0.0000 C   0  0  0  0  0  0  0  0  0  0  0  0
  1  2  2  0
  2  3  1  0
  3  4  2  0
  4  5  1  0
  4  6  1  0
  6  7  1  0
  7  8  1  0
  6  9  2  0
  9 10  1  0
 10 11  2  0
 11 12  1  0
 12 13  1  0
 13 14  1  6
 14 15  2  0
 15 16  1  0
 16 17  2  0
 17 18  1  0
 18 19  1  0
 19 20  1  0
 20 21  1  0
 21 22  2  0
 13 23  1  0
 23 24  1  1
 11  3  1  0
 22 14  1  0
 23 10  1  0
 21 17  1  0
M  END
>  <identifier>  (1684) 
CNP0322978.1

>  <canonical_smiles>  (1684) 
C=CC1=C(O)C(OC)=CC2=C1O[C@H](C1=CC=C3OCOC3=C1)[C@H]2C

>  <standard_inchi>  (1684) 
InChI=1S/C19H18O5/c1-4-12-17(20)16(21-3)8-13-10(2)18(24-19(12)13)11-5-6-14-15(7-11)23-9-22-14/h4-8,10,18,20H,1,9H2,2-3H3/t10-,18-/m0/s1

>  <standard_inchi_key>  (1684) 
OTPSUPTYLZWNMH-YPMLDQLKSA-N

>  <name>  (1684) 
nan

>  <iupac_name>  (1684) 
(2~{S},3~{S})-2-(1,3-benzodioxol-5-yl)-5-methoxy-3-methyl-7-vinyl-2,3-dihydrobenzofuran-6-ol

>  <annotation_level>  (1684) 
4

>  <total_atom_count>  (1684) 
42

>  <heavy_atom_count>  (1684) 
24

>  <molecular_weight>  (1684) 
326.35

>  <exact_molecular_weight>  (1684) 
326.11542

>  <molecular_formula>  (1684) 
C19H18O5

>  <alogp>  (1684) 
4.01

>  <topological_polar_surface_area>  (1684) 
57.15

>  <rotatable_bond_count>  (1684) 
3

>  <hydrogen_bond_acceptors>  (1684) 
5

>  <hydrogen_bond_donors>  (1684) 
1

>  <hydrogen_bond_acceptors_lipinski>  (1684) 
5

>  <hydrogen_bond_donors_lipinski>  (1684) 
1

>  <lipinski_rule_of_five_violations>  (1684) 
0

>  <aromatic_rings_count>  (1684) 
2

>  <qed_drug_likeliness>  (1684) 
0.92

>  <formal_charge>  (1684) 
0

>  <fractioncsp3>  (1684) 
0.26

>  <number_of_minimal_rings>  (1684) 
4

>  <van_der_walls_volume>  (1684) 
nan

>  <contains_sugar>  (1684) 
False

>  <contains_ring_sugars>  (1684) 
False

>  <contains_linear_sugars>  (1684) 
False

>  <murcko_framework>  (1684) 
O1c2ccc(cc2OC1)C3Oc4ccccc4C3

>  <np_likeness>  (1684) 
1.63

>  <chemical_class>  (1684) 
2-arylbenzofuran flavonoids

>  <chemical_sub_class>  (1684) 
2-arylbenzofuran flavonoids

>  <chemical_super_class>  (1684) 
Phenylpropanoids and polyketides

>  <direct_parent_classification>  (1684) 
2-arylbenzofuran flavonoids

>  <np_classifier_pathway>  (1684) 
Shikimates and Phenylpropanoids

>  <np_classifier_superclass>  (1684) 
Lignans

>  <np_classifier_class>  (1684) 
Neolignans

>  <np_classifier_is_glycoside>  (1684) 
False

>  <organisms>  (1684) 
Aniba burchellii

>  <collections>  (1684) 
Latin America dataset|NuBBEDB|WikiData Natural Products|ZINC NP

>  <dois>  (1684) 
10.1016/0031-9422(75)85358-1

>  <synonyms>  (1684) 
(2S3S)-7-allyl-6-hydroxy-5-methoxy-2-(34-methylenedioxy-phenyl)-3-methyl-23-dihydrobenzofuran

>  <cas>  (1684) 
nan

$$$$

     RDKit          2D

 35 39  0  0  0  0  0  0  0  0999 V2000
   -5.3677   -4.3312    0.0000 C   0  0  0  0  0  0  0  0  0  0  0  0
   -5.4389   -2.8329    0.0000 C   0  0  0  0  0  0  0  0  0  0  0  0
   -6.7721   -2.1454    0.0000 O   0  0  0  0  0  0  0  0  0  0  0  0
   -4.1770   -2.0220    0.0000 O   0  0  0  0  0  0  0  0  0  0  0  0
   -4.2482   -0.5237    0.0000 C   0  0  0  0  0  0  0  0  0  0  0  0
   -5.5814    0.1637    0.0000 C   0  0  0  0  0  0  0  0  0  0  0  0
   -6.8433   -0.6471    0.0000 O   0  0  0  0  0  0  0  0  0  0  0  0
   -5.6526    1.6620    0.0000 C   0  0  0  0  0  0  0  0  0  0  0  0
   -6.9858    2.3495    0.0000 C   0  0  0  0  0  0  0  0  0  0  0  0
   -4.3906    2.4729    0.0000 O   0  0  0  0  0  0  0  0  0  0  0  0
   -3.0575    1.7854    0.0000 C   0  0  0  0  0  0  0  0  0  0  0  0
   -1.7955    2.5962    0.0000 O   0  0  0  0  0  0  0  0  0  0  0  0
   -0.4623    1.9088    0.0000 C   0  0  0  0  0  0  0  0  0  0  0  0
   -0.3911    0.4105    0.0000 C   0  0  0  0  0  0  0  0  0  0  0  0
    0.9421   -0.2770    0.0000 C   0  0  0  0  0  0  0  0  0  0  0  0
    2.2041    0.5338    0.0000 C   0  0  0  0  0  0  0  0  0  0  0  0
    2.1328    2.0321    0.0000 C   0  0  0  0  0  0  0  0  0  0  0  0
    0.7996    2.7196    0.0000 C   0  0  0  0  0  0  0  0  0  0  0  0
    0.7284    4.2179    0.0000 O   0  0  0  0  0  0  0  0  0  0  0  0
    3.3948    2.8430    0.0000 O   0  0  0  0  0  0  0  0  0  0  0  0
    4.7280    2.1555    0.0000 C   0  0  0  0  0  0  0  0  0  0  0  0
    5.9899    2.9663    0.0000 O   0  0  0  0  0  0  0  0  0  0  0  0
    4.7992    0.6572    0.0000 C   0  0  0  0  0  0  0  0  0  0  0  0
    6.1324   -0.0303    0.0000 C   0  0  0  0  0  0  0  0  0  0  0  0
    6.2036   -1.5286    0.0000 C   0  0  0  0  0  0  0  0  0  0  0  0
    7.5368   -2.2160    0.0000 O   0  0  0  0  0  0  0  0  0  0  0  0
    4.9417   -2.3394    0.0000 C   0  0  0  0  0  0  0  0  0  0  0  0
    5.0129   -3.8377    0.0000 O   0  0  0  0  0  0  0  0  0  0  0  0
    3.6085   -1.6519    0.0000 C   0  0  0  0  0  0  0  0  0  0  0  0
    3.5372   -0.1536    0.0000 C   0  0  0  0  0  0  0  0  0  0  0  0
    2.3465   -2.4628    0.0000 O   0  0  0  0  0  0  0  0  0  0  0  0
    1.0133   -1.7753    0.0000 C   0  0  0  0  0  0  0  0  0  0  0  0
   -0.2486   -2.5862    0.0000 O   0  0  0  0  0  0  0  0  0  0  0  0
   -2.9862    0.2871    0.0000 C   0  0  0  0  0  0  0  0  0  0  0  0
   -1.6530   -0.4004    0.0000 O   0  0  0  0  0  0  0  0  0  0  0  0
  1  2  1  0
  2  3  2  0
  2  4  1  0
  5  4  1  6
  5  6  1  0
  6  7  1  1
  6  8  1  0
  8  9  1  6
  8 10  1  0
 10 11  1  0
 11 12  1  1
 12 13  1  0
 13 14  2  0
 14 15  1  0
 15 16  2  0
 16 17  1  0
 17 18  2  0
 18 19  1  0
 17 20  1  0
 20 21  1  0
 21 22  2  0
 21 23  1  0
 23 24  2  0
 24 25  1  0
 25 26  1  0
 25 27  2  0
 27 28  1  0
 27 29  1  0
 29 30  2  0
 29 31  1  0
 31 32  1  0
 32 33  2  0
 11 34  1  0
 34 35  1  6
 34  5  1  0
 18 13  1  0
 30 23  1  0
 32 15  1  0
 30 16  1  0
M  END
>  <identifier>  (1685) 
CNP0350096.1

>  <canonical_smiles>  (1685) 
CC(=O)O[C@@H]1[C@@H](O)[C@H](C)O[C@@H](OC2=CC3=C4C(=C2O)OC(=O)C2=CC(O)=C(O)C(=C24)OC3=O)[C@@H]1O

>  <standard_inchi>  (1685) 
InChI=1S/C22H18O13/c1-5-13(25)19(32-6(2)23)16(28)22(31-5)33-10-4-8-12-11-7(20(29)35-18(12)15(10)27)3-9(24)14(26)17(11)34-21(8)30/h3-5,13,16,19,22,24-28H,1-2H3/t5-,13-,16+,19+,22-/m0/s1

>  <standard_inchi_key>  (1685) 
FWLMKEVVQAYJNO-BGTADKINSA-N

>  <name>  (1685) 
nan

>  <iupac_name>  (1685) 
[(2~{S},3~{S},4~{R},5~{R},6~{S})-3,5-dihydroxy-2-methyl-6-[(7,13,14-trihydroxy-3,10-dioxo-2,9-dioxatetracyclo[6.6.2.0^{4,16}.0^{11,15}]hexadeca-1(15),4(16),5,7,11,13-hexaen-6-yl)oxy]tetrahydropyran-4-yl] acetate

>  <annotation_level>  (1685) 
4

>  <total_atom_count>  (1685) 
53

>  <heavy_atom_count>  (1685) 
35

>  <molecular_weight>  (1685) 
490.37

>  <exact_molecular_weight>  (1685) 
490.07474

>  <molecular_formula>  (1685) 
C22H18O13

>  <alogp>  (1685) 
0.38

>  <topological_polar_surface_area>  (1685) 
206.33

>  <rotatable_bond_count>  (1685) 
3

>  <hydrogen_bond_acceptors>  (1685) 
13

>  <hydrogen_bond_donors>  (1685) 
5

>  <hydrogen_bond_acceptors_lipinski>  (1685) 
13

>  <hydrogen_bond_donors_lipinski>  (1685) 
5

>  <lipinski_rule_of_five_violations>  (1685) 
1

>  <aromatic_rings_count>  (1685) 
4

>  <qed_drug_likeliness>  (1685) 
0.11

>  <formal_charge>  (1685) 
0

>  <fractioncsp3>  (1685) 
0.32

>  <number_of_minimal_rings>  (1685) 
5

>  <van_der_walls_volume>  (1685) 
nan

>  <contains_sugar>  (1685) 
True

>  <contains_ring_sugars>  (1685) 
True

>  <contains_linear_sugars>  (1685) 
False

>  <murcko_framework>  (1685) 
O1c2cccc3c2-c4c(OC3)cc(OC5OCCCC5)cc4C1

>  <np_likeness>  (1685) 
2.06

>  <chemical_class>  (1685) 
Tannins

>  <chemical_sub_class>  (1685) 
Hydrolyzable tannins

>  <chemical_super_class>  (1685) 
Phenylpropanoids and polyketides

>  <direct_parent_classification>  (1685) 
Hydrolyzable tannins

>  <np_classifier_pathway>  (1685) 
Shikimates and Phenylpropanoids

>  <np_classifier_superclass>  (1685) 
Coumarins

>  <np_classifier_class>  (1685) 
Simple coumarins

>  <np_classifier_is_glycoside>  (1685) 
True

>  <organisms>  (1685) 
Siphoneugena densiflora

>  <collections>  (1685) 
Latin America dataset|NuBBEDB|WikiData Natural Products|ZINC NP

>  <dois>  (1685) 
10.1002/PS.1278|10.1002/ps.1278|10.1590/S0103-50532006000200010

>  <synonyms>  (1685) 
Ellagic acid 4-O-\u221a\u00e9\u00ac\u00b1-L-3''-O-acetylrhamnopyranoside

>  <cas>  (1685) 
nan

$$$$

     RDKit          2D

 18 20  0  0  0  0  0  0  0  0999 V2000
    3.9989   -1.0177    0.0000 C   0  0  0  0  0  0  0  0  0  0  0  0
    2.8054   -0.1091    0.0000 C   0  0  0  0  0  0  0  0  0  0  0  0
    1.4218   -0.6885    0.0000 C   0  0  0  0  0  0  0  0  0  0  0  0
    0.9265   -2.1044    0.0000 C   0  0  0  0  0  0  0  0  0  0  0  0
    1.7809   -3.3373    0.0000 O   0  0  0  0  0  0  0  0  0  0  0  0
   -0.5731   -2.0709    0.0000 O   0  0  0  0  0  0  0  0  0  0  0  0
   -1.0047   -0.6343    0.0000 C   0  0  0  0  0  0  0  0  0  0  0  0
   -2.4205   -0.1391    0.0000 C   0  0  0  0  0  0  0  0  0  0  0  0
   -3.6534   -0.9935    0.0000 C   0  0  0  0  0  0  0  0  0  0  0  0
   -4.8470   -0.0849    0.0000 O   0  0  0  0  0  0  0  0  0  0  0  0
   -4.3517    1.3310    0.0000 C   0  0  0  0  0  0  0  0  0  0  0  0
   -2.8521    1.2975    0.0000 C   0  0  0  0  0  0  0  0  0  0  0  0
    0.2282    0.2200    0.0000 C   0  0  0  0  0  0  0  0  0  0  0  0
   -1.0537    0.9989    0.0000 C   0  0  0  0  0  0  0  0  0  0  0  0
    0.4183    1.7080    0.0000 C   0  0  0  0  0  0  0  0  0  0  0  0
    1.8019    2.2873    0.0000 C   0  0  0  0  0  0  0  0  0  0  0  0
    2.9954    1.3788    0.0000 C   0  0  0  0  0  0  0  0  0  0  0  0
    4.3790    1.9582    0.0000 O   0  0  0  0  0  0  0  0  0  0  0  0
  1  2  1  0
  2  3  2  0
  3  4  1  0
  4  5  2  0
  4  6  1  0
  6  7  1  0
  7  8  1  1
  8  9  2  0
  9 10  1  0
 10 11  1  0
 11 12  2  0
  7 13  1  0
 13 14  1  1
 13 15  1  0
 15 16  1  0
 16 17  1  0
 17 18  2  0
 17  2  1  0
 13  3  1  0
 12  8  1  0
M  END
>  <identifier>  (1686) 
CNP0273089.1

>  <canonical_smiles>  (1686) 
CC1=C2C(=O)O[C@@H](C3=COC=C3)[C@]2(C)CCC1=O

>  <standard_inchi>  (1686) 
InChI=1S/C14H14O4/c1-8-10(15)3-5-14(2)11(8)13(16)18-12(14)9-4-6-17-7-9/h4,6-7,12H,3,5H2,1-2H3/t12-,14+/m0/s1

>  <standard_inchi_key>  (1686) 
CGHVUSLIWOGTID-GXTWGEPZSA-N

>  <name>  (1686) 
Fraxinellonone

>  <iupac_name>  (1686) 
(3~{R},3~{a}~{R})-3-(3-furyl)-3~{a},7-dimethyl-4,5-dihydro-3~{H}-isobenzofuran-1,6-dione

>  <annotation_level>  (1686) 
5

>  <total_atom_count>  (1686) 
32

>  <heavy_atom_count>  (1686) 
18

>  <molecular_weight>  (1686) 
246.26

>  <exact_molecular_weight>  (1686) 
246.08921

>  <molecular_formula>  (1686) 
C14H14O4

>  <alogp>  (1686) 
2.56

>  <topological_polar_surface_area>  (1686) 
56.51

>  <rotatable_bond_count>  (1686) 
1

>  <hydrogen_bond_acceptors>  (1686) 
4

>  <hydrogen_bond_donors>  (1686) 
0

>  <hydrogen_bond_acceptors_lipinski>  (1686) 
4

>  <hydrogen_bond_donors_lipinski>  (1686) 
0

>  <lipinski_rule_of_five_violations>  (1686) 
0

>  <aromatic_rings_count>  (1686) 
1

>  <qed_drug_likeliness>  (1686) 
0.71

>  <formal_charge>  (1686) 
0

>  <fractioncsp3>  (1686) 
0.43

>  <number_of_minimal_rings>  (1686) 
3

>  <van_der_walls_volume>  (1686) 
218.14

>  <contains_sugar>  (1686) 
False

>  <contains_ring_sugars>  (1686) 
False

>  <contains_linear_sugars>  (1686) 
False

>  <murcko_framework>  (1686) 
o1ccc(c1)C2OCC3=CCCCC32

>  <np_likeness>  (1686) 
2.72

>  <chemical_class>  (1686) 
Organooxygen compounds

>  <chemical_sub_class>  (1686) 
Carbonyl compounds

>  <chemical_super_class>  (1686) 
Organic oxygen compounds

>  <direct_parent_classification>  (1686) 
Cyclohexenones

>  <np_classifier_pathway>  (1686) 
Terpenoids

>  <np_classifier_superclass>  (1686) 
nan

>  <np_classifier_class>  (1686) 
nan

>  <np_classifier_is_glycoside>  (1686) 
False

>  <organisms>  (1686) 
Boophone disticha|Chrysanthemum poteriifolium|Cyathus earlei|Dictamnus|Dictamnus albus|Dictamnus angustifolius|Dictamnus dasycarpus|Dictamnus radicis Cortex|Fagaropsis glabra|Mammillaria infernillensis|Melia azedarach|Raulinoa echinata

>  <collections>  (1686) 
Australian natural products|CMAUP (cCollective molecular activities of useful plants)|KNApSaCK|Latin America dataset|NPASS|NuBBEDB|Super Natural II|TIPdb (database of Taiwan indigenous plants)|WikiData Natural Products

>  <dois>  (1686) 
10.1016/0031-9422(90)80152-7|10.1016/S0031-9422(98)00262-3|10.1016/S0031-9422(98)00519-6|10.1016/s0031-9422(98)00262-3|10.1021/NP070588O|10.1248/CPB.56.102|10.1590/S0103-50532005000800025

>  <synonyms>  (1686) 
ACon1_000877|CHEMBL403869|Fraxinellonone|MEGxp0_000827|NCGC00169272-01|NCI60_036419|NSC701399

>  <cas>  (1686) 
nan

$$$$

     RDKit          2D

 15 15  0  0  0  0  0  0  0  0999 V2000
   -5.2330    0.7391    0.0000 C   0  0  0  0  0  0  0  0  0  0  0  0
   -4.0783   -0.2184    0.0000 C   0  0  0  0  0  0  0  0  0  0  0  0
   -2.6718    0.3029    0.0000 O   0  0  0  0  0  0  0  0  0  0  0  0
   -1.5171   -0.6546    0.0000 C   0  0  0  0  0  0  0  0  0  0  0  0
   -1.7689   -2.1333    0.0000 O   0  0  0  0  0  0  0  0  0  0  0  0
   -0.1106   -0.1333    0.0000 C   0  0  0  0  0  0  0  0  0  0  0  0
    0.1413    1.3454    0.0000 C   0  0  0  0  0  0  0  0  0  0  0  0
   -1.0134    2.3028    0.0000 O   0  0  0  0  0  0  0  0  0  0  0  0
    1.5478    1.8666    0.0000 C   0  0  0  0  0  0  0  0  0  0  0  0
    2.7025    0.9092    0.0000 C   0  0  0  0  0  0  0  0  0  0  0  0
    4.1090    1.4304    0.0000 O   0  0  0  0  0  0  0  0  0  0  0  0
    2.4506   -0.5695    0.0000 C   0  0  0  0  0  0  0  0  0  0  0  0
    3.6053   -1.5270    0.0000 C   0  0  0  0  0  0  0  0  0  0  0  0
    1.0441   -1.0908    0.0000 C   0  0  0  0  0  0  0  0  0  0  0  0
    0.7923   -2.5695    0.0000 C   0  0  0  0  0  0  0  0  0  0  0  0
  1  2  1  0
  2  3  1  0
  3  4  1  0
  4  5  2  0
  4  6  1  0
  6  7  2  0
  7  8  1  0
  7  9  1  0
  9 10  2  0
 10 11  1  0
 10 12  1  0
 12 13  1  0
 12 14  2  0
 14 15  1  0
 14  6  1  0
M  END
>  <identifier>  (1687) 
CNP0321188.0

>  <canonical_smiles>  (1687) 
CCOC(=O)C1=C(O)C=C(O)C(C)=C1C

>  <standard_inchi>  (1687) 
InChI=1S/C11H14O4/c1-4-15-11(14)10-7(3)6(2)8(12)5-9(10)13/h5,12-13H,4H2,1-3H3

>  <standard_inchi_key>  (1687) 
OGNOLMYPLBZLBQ-UHFFFAOYSA-N

>  <name>  (1687) 
ethyl 2,4-dihydroxy-5,6-dimethylbenzoate

>  <iupac_name>  (1687) 
ethyl 4,6-dihydroxy-2,3-dimethyl-benzoate

>  <annotation_level>  (1687) 
5

>  <total_atom_count>  (1687) 
29

>  <heavy_atom_count>  (1687) 
15

>  <molecular_weight>  (1687) 
210.23

>  <exact_molecular_weight>  (1687) 
210.08921

>  <molecular_formula>  (1687) 
C11H14O4

>  <alogp>  (1687) 
1.89

>  <topological_polar_surface_area>  (1687) 
66.76

>  <rotatable_bond_count>  (1687) 
2

>  <hydrogen_bond_acceptors>  (1687) 
4

>  <hydrogen_bond_donors>  (1687) 
2

>  <hydrogen_bond_acceptors_lipinski>  (1687) 
4

>  <hydrogen_bond_donors_lipinski>  (1687) 
2

>  <lipinski_rule_of_five_violations>  (1687) 
0

>  <aromatic_rings_count>  (1687) 
1

>  <qed_drug_likeliness>  (1687) 
0.73

>  <formal_charge>  (1687) 
0

>  <fractioncsp3>  (1687) 
0.36

>  <number_of_minimal_rings>  (1687) 
1

>  <van_der_walls_volume>  (1687) 
192.54

>  <contains_sugar>  (1687) 
False

>  <contains_ring_sugars>  (1687) 
False

>  <contains_linear_sugars>  (1687) 
False

>  <murcko_framework>  (1687) 
c1ccccc1

>  <np_likeness>  (1687) 
0.68

>  <chemical_class>  (1687) 
Benzene and substituted derivatives

>  <chemical_sub_class>  (1687) 
Benzoic acids and derivatives

>  <chemical_super_class>  (1687) 
Benzenoids

>  <direct_parent_classification>  (1687) 
p-Hydroxybenzoic acid alkyl esters

>  <np_classifier_pathway>  (1687) 
Shikimates and Phenylpropanoids

>  <np_classifier_superclass>  (1687) 
Phenolic acids (C6-C1)

>  <np_classifier_class>  (1687) 
Shikimic acids and derivatives

>  <np_classifier_is_glycoside>  (1687) 
False

>  <organisms>  (1687) 
Phomopsis cassiae

>  <collections>  (1687) 
ChemSpider NPs|Latin America dataset|NPAtlas|NuBBEDB|Super Natural II|UNPD (Universal Natural Products Database)|WikiData Natural Products|ZINC NP

>  <dois>  (1687) 
10.1590/S0103-50532005000800029|10.1590/s0103-50532005000800029

>  <synonyms>  (1687) 
CHEBI:211949|Ethyl 24-dihydroxy-56-dimethylbenzoate|ethyl 4,6-dihydroxy-2,3-dimethylbenzoate|ethyl 5-methylorsellinate

>  <cas>  (1687) 
nan

$$$$

     RDKit          2D

 17 19  0  0  0  0  0  0  0  0999 V2000
   -5.3404   -1.4688    0.0000 C   0  0  0  0  0  0  0  0  0  0  0  0
   -4.6536   -0.1353    0.0000 C   0  0  0  0  0  0  0  0  0  0  0  0
   -5.4651    1.1262    0.0000 C   0  0  0  0  0  0  0  0  0  0  0  0
   -3.1553   -0.0633    0.0000 C   0  0  0  0  0  0  0  0  0  0  0  0
   -2.3329    1.1911    0.0000 C   0  0  0  0  0  0  0  0  0  0  0  0
   -0.8857    0.7966    0.0000 C   0  0  0  0  0  0  0  0  0  0  0  0
    0.3758    1.6081    0.0000 C   0  0  0  0  0  0  0  0  0  0  0  0
    1.7094    0.9214    0.0000 C   0  0  0  0  0  0  0  0  0  0  0  0
    1.7814   -0.5769    0.0000 C   0  0  0  0  0  0  0  0  0  0  0  0
    0.5198   -1.3884    0.0000 C   0  0  0  0  0  0  0  0  0  0  0  0
   -0.8137   -0.7016    0.0000 C   0  0  0  0  0  0  0  0  0  0  0  0
   -2.2164   -1.2331    0.0000 O   0  0  0  0  0  0  0  0  0  0  0  0
    3.1149   -1.2637    0.0000 O   0  0  0  0  0  0  0  0  0  0  0  0
    4.3764   -0.4522    0.0000 C   0  0  0  0  0  0  0  0  0  0  0  0
    5.7100   -1.1390    0.0000 O   0  0  0  0  0  0  0  0  0  0  0  0
    4.3044    1.0461    0.0000 C   0  0  0  0  0  0  0  0  0  0  0  0
    2.9709    1.7328    0.0000 C   0  0  0  0  0  0  0  0  0  0  0  0
  1  2  2  0
  2  3  1  0
  4  2  1  6
  4  5  1  0
  5  6  1  0
  6  7  2  0
  7  8  1  0
  8  9  2  0
  9 10  1  0
 10 11  2  0
 11 12  1  0
  9 13  1  0
 13 14  1  0
 14 15  2  0
 14 16  1  0
 16 17  2  0
 12  4  1  0
 11  6  1  0
 17  8  1  0
M  END
>  <identifier>  (1688) 
CNP0250557.2

>  <canonical_smiles>  (1688) 
C=C(C)[C@@H]1CC2=CC3=C(C=C2O1)OC(=O)C=C3

>  <standard_inchi>  (1688) 
InChI=1S/C14H12O3/c1-8(2)11-6-10-5-9-3-4-14(15)17-12(9)7-13(10)16-11/h3-5,7,11H,1,6H2,2H3/t11-/m0/s1

>  <standard_inchi_key>  (1688) 
VMWUHWZFDITAOL-NSHDSACASA-N

>  <name>  (1688) 
2-(PROP-1-EN-2-YL)-2H,3H,7H-FURO[3,2-G]CHROMEN-7-ONE

>  <iupac_name>  (1688) 
(2~{S})-2-isopropenyl-2,3-dihydrofuro[3,2-g]chromen-7-one

>  <annotation_level>  (1688) 
5

>  <total_atom_count>  (1688) 
29

>  <heavy_atom_count>  (1688) 
17

>  <molecular_weight>  (1688) 
228.25

>  <exact_molecular_weight>  (1688) 
228.07864

>  <molecular_formula>  (1688) 
C14H12O3

>  <alogp>  (1688) 
2.67

>  <topological_polar_surface_area>  (1688) 
39.44

>  <rotatable_bond_count>  (1688) 
1

>  <hydrogen_bond_acceptors>  (1688) 
3

>  <hydrogen_bond_donors>  (1688) 
0

>  <hydrogen_bond_acceptors_lipinski>  (1688) 
3

>  <hydrogen_bond_donors_lipinski>  (1688) 
0

>  <lipinski_rule_of_five_violations>  (1688) 
0

>  <aromatic_rings_count>  (1688) 
2

>  <qed_drug_likeliness>  (1688) 
0.56

>  <formal_charge>  (1688) 
0

>  <fractioncsp3>  (1688) 
0.21

>  <number_of_minimal_rings>  (1688) 
3

>  <van_der_walls_volume>  (1688) 
203.18

>  <contains_sugar>  (1688) 
False

>  <contains_ring_sugars>  (1688) 
False

>  <contains_linear_sugars>  (1688) 
False

>  <murcko_framework>  (1688) 
O1c2cc3OCCc3cc2C=CC1

>  <np_likeness>  (1688) 
1.48

>  <chemical_class>  (1688) 
Coumarins and derivatives

>  <chemical_sub_class>  (1688) 
Furanocoumarins

>  <chemical_super_class>  (1688) 
Phenylpropanoids and polyketides

>  <direct_parent_classification>  (1688) 
Psoralens

>  <np_classifier_pathway>  (1688) 
Shikimates and Phenylpropanoids

>  <np_classifier_superclass>  (1688) 
Coumarins

>  <np_classifier_class>  (1688) 
Furocoumarins

>  <np_classifier_is_glycoside>  (1688) 
False

>  <organisms>  (1688) 
Rutaceae|Scaevola lobelia|Scaevola plumieri|Scaevola sericea|Scaevola taccada|Scutellaria barbata

>  <collections>  (1688) 
CMAUP (cCollective molecular activities of useful plants)|Latin America dataset|NPASS|NuBBEDB|Super Natural II|WikiData Natural Products|ZINC NP

>  <dois>  (1688) 
10.1002/CBER.19751080207|10.1351/PAC200173030617|10.1351/pac200173030617

>  <synonyms>  (1688) 
(2S)-2-isopropenyl-2,3-dihydrofuro[3,2-g]chromen-7-one|AKOS021983163|HMS1607E15

>  <cas>  (1688) 
nan

$$$$

     RDKit          2D

 15 16  0  0  0  0  0  0  0  0999 V2000
   -6.6934    0.8992    0.0000 C   0  0  0  0  0  0  0  0  0  0  0  0
   -5.2029    1.0677    0.0000 C   0  0  0  0  0  0  0  0  0  0  0  0
   -4.3117   -0.1388    0.0000 C   0  0  0  0  0  0  0  0  0  0  0  0
   -2.8212    0.0297    0.0000 C   0  0  0  0  0  0  0  0  0  0  0  0
   -1.9300   -1.1769    0.0000 C   0  0  0  0  0  0  0  0  0  0  0  0
   -0.4395   -1.0084    0.0000 C   0  0  0  0  0  0  0  0  0  0  0  0
    0.4517   -2.2149    0.0000 C   0  0  0  0  0  0  0  0  0  0  0  0
    1.9422   -2.0464    0.0000 C   0  0  0  0  0  0  0  0  0  0  0  0
    2.5415   -0.6714    0.0000 C   0  0  0  0  0  0  0  0  0  0  0  0
    4.0320   -0.5029    0.0000 C   0  0  0  0  0  0  0  0  0  0  0  0
    4.6313    0.8722    0.0000 C   0  0  0  0  0  0  0  0  0  0  0  0
    3.7402    2.0788    0.0000 C   0  0  0  0  0  0  0  0  0  0  0  0
    2.2496    1.9103    0.0000 C   0  0  0  0  0  0  0  0  0  0  0  0
    1.6503    0.5352    0.0000 C   0  0  0  0  0  0  0  0  0  0  0  0
    0.1598    0.3667    0.0000 N   0  0  0  0  0  0  0  0  0  0  0  0
  1  2  1  0
  2  3  1  0
  3  4  1  0
  4  5  1  0
  5  6  1  0
  6  7  2  0
  7  8  1  0
  8  9  2  0
  9 10  1  0
 10 11  2  0
 11 12  1  0
 12 13  2  0
 13 14  1  0
 14 15  2  0
 15  6  1  0
 14  9  1  0
M  END
>  <identifier>  (1689) 
CNP0150480.0

>  <canonical_smiles>  (1689) 
CCCCCC1=CC=C2C=CC=CC2=N1

>  <standard_inchi>  (1689) 
InChI=1S/C14H17N/c1-2-3-4-8-13-11-10-12-7-5-6-9-14(12)15-13/h5-7,9-11H,2-4,8H2,1H3

>  <standard_inchi_key>  (1689) 
GMTGCIAJHZEUNB-UHFFFAOYSA-N

>  <name>  (1689) 
2-Pentylquinoline

>  <iupac_name>  (1689) 
2-pentylquinoline

>  <annotation_level>  (1689) 
5

>  <total_atom_count>  (1689) 
32

>  <heavy_atom_count>  (1689) 
15

>  <molecular_weight>  (1689) 
199.3

>  <exact_molecular_weight>  (1689) 
199.1361

>  <molecular_formula>  (1689) 
C14H17N

>  <alogp>  (1689) 
3.97

>  <topological_polar_surface_area>  (1689) 
12.89

>  <rotatable_bond_count>  (1689) 
4

>  <hydrogen_bond_acceptors>  (1689) 
1

>  <hydrogen_bond_donors>  (1689) 
0

>  <hydrogen_bond_acceptors_lipinski>  (1689) 
1

>  <hydrogen_bond_donors_lipinski>  (1689) 
0

>  <lipinski_rule_of_five_violations>  (1689) 
0

>  <aromatic_rings_count>  (1689) 
2

>  <qed_drug_likeliness>  (1689) 
0.68

>  <formal_charge>  (1689) 
0

>  <fractioncsp3>  (1689) 
0.36

>  <number_of_minimal_rings>  (1689) 
2

>  <van_der_walls_volume>  (1689) 
203.89

>  <contains_sugar>  (1689) 
False

>  <contains_ring_sugars>  (1689) 
False

>  <contains_linear_sugars>  (1689) 
False

>  <murcko_framework>  (1689) 
n1cccc2ccccc12

>  <np_likeness>  (1689) 
-0.33

>  <chemical_class>  (1689) 
Quinolines and derivatives

>  <chemical_sub_class>  (1689) 
Quinolines and derivatives

>  <chemical_super_class>  (1689) 
Organoheterocyclic compounds

>  <direct_parent_classification>  (1689) 
Quinolines and derivatives

>  <np_classifier_pathway>  (1689) 
Alkaloids

>  <np_classifier_superclass>  (1689) 
Anthranilic acid alkaloids

>  <np_classifier_class>  (1689) 
Quinoline alkaloids

>  <np_classifier_is_glycoside>  (1689) 
False

>  <organisms>  (1689) 
Angostura bracteata|Angostura longiflora|Astropecten indicus|Ateleia herbert-smithii|Cephalosporium gregatum|Eucryphia glutinosa|Galipea bracteata|Haminoea orteai|Iochroma coccineum|Nigrosabulum globosum|Peperomia pellucida|Pinus abies|Saccharina angustata|Tecoma peroba|Tylosema esculentum|Xanthoparmelia quintaria

>  <collections>  (1689) 
CMAUP (cCollective molecular activities of useful plants)|Latin America dataset|NPASS|NuBBEDB|Super Natural II|TCMDB-Taiwan (Traditional Chinese Medicine database)|TCMID (Traditional Chinese Medicine Integrated Database)|UNPD (Universal Natural Products Database)|WikiData Natural Products|ZINC NP

>  <dois>  (1689) 
10.1016/0031-9422(90)80024-B

>  <synonyms>  (1689) 
2-N-Pentylquinoleine|2-Pentyl-quinoline|93005-16-4|AKOS006321316|Amylchinolin|CHEMBL170722|DTXSID50239242|GMTGCIAJHZEUNB-UHFFFAOYSA-N|Quinoline, 2-pentyl|SCHEMBL860157

>  <cas>  (1689) 
93005-16-4

$$$$

     RDKit          2D

 25 26  0  0  0  0  0  0  0  0999 V2000
   -0.0815   -1.7896    0.0000 O   0  0  0  0  0  0  0  0  0  0  0  0
    0.2871   -0.3356    0.0000 C   0  0  0  0  0  0  0  0  0  0  0  0
    1.7307    0.0722    0.0000 C   0  0  0  0  0  0  0  0  0  0  0  0
    2.8055   -0.9741    0.0000 C   0  0  0  0  0  0  0  0  0  0  0  0
    4.2491   -0.5663    0.0000 C   0  0  0  0  0  0  0  0  0  0  0  0
    5.3239   -1.6125    0.0000 C   0  0  0  0  0  0  0  0  0  0  0  0
    6.7674   -1.2048    0.0000 C   0  0  0  0  0  0  0  0  0  0  0  0
    7.1361    0.2492    0.0000 C   0  0  0  0  0  0  0  0  0  0  0  0
    8.5796    0.6570    0.0000 O   0  0  0  0  0  0  0  0  0  0  0  0
    6.0612    1.2954    0.0000 C   0  0  0  0  0  0  0  0  0  0  0  0
    6.4298    2.7494    0.0000 O   0  0  0  0  0  0  0  0  0  0  0  0
    4.6177    0.8877    0.0000 C   0  0  0  0  0  0  0  0  0  0  0  0
   -0.7877    0.7107    0.0000 O   0  0  0  0  0  0  0  0  0  0  0  0
   -2.2313    0.3029    0.0000 C   0  0  0  0  0  0  0  0  0  0  0  0
   -3.3061    1.3492    0.0000 C   0  0  0  0  0  0  0  0  0  0  0  0
   -4.7497    0.9414    0.0000 C   0  0  0  0  0  0  0  0  0  0  0  0
   -4.9006    2.4338    0.0000 O   0  0  0  0  0  0  0  0  0  0  0  0
   -6.2456    1.0520    0.0000 C   0  0  0  0  0  0  0  0  0  0  0  0
   -7.0893   -0.1883    0.0000 O   0  0  0  0  0  0  0  0  0  0  0  0
   -6.8978    2.4028    0.0000 O   0  0  0  0  0  0  0  0  0  0  0  0
   -5.1183   -0.5126    0.0000 C   0  0  0  0  0  0  0  0  0  0  0  0
   -4.0434   -1.5588    0.0000 C   0  0  0  0  0  0  0  0  0  0  0  0
   -4.4120   -3.0128    0.0000 O   0  0  0  0  0  0  0  0  0  0  0  0
   -2.5999   -1.1511    0.0000 C   0  0  0  0  0  0  0  0  0  0  0  0
   -1.5250   -2.1973    0.0000 O   0  0  0  0  0  0  0  0  0  0  0  0
  1  2  2  0
  2  3  1  0
  3  4  2  0
  4  5  1  0
  5  6  2  0
  6  7  1  0
  7  8  2  0
  8  9  1  0
  8 10  1  0
 10 11  1  0
 10 12  2  0
  2 13  1  0
 14 13  1  1
 14 15  1  0
 15 16  1  0
 16 17  1  6
 16 18  1  0
 18 19  2  0
 18 20  1  0
 16 21  1  0
 21 22  1  0
 22 23  1  6
 22 24  1  0
 24 25  1  6
 12  5  1  0
 24 14  1  0
M  END
>  <identifier>  (1690) 
CNP0148557.1

>  <canonical_smiles>  (1690) 
O=C(/C=C/C1=CC=C(O)C(O)=C1)O[C@@H]1C[C@](O)(C(=O)O)C[C@@H](O)[C@H]1O

>  <standard_inchi>  (1690) 
InChI=1S/C16H18O9/c17-9-3-1-8(5-10(9)18)2-4-13(20)25-12-7-16(24,15(22)23)6-11(19)14(12)21/h1-5,11-12,14,17-19,21,24H,6-7H2,(H,22,23)/b4-2+/t11-,12-,14-,16+/m1/s1

>  <standard_inchi_key>  (1690) 
CWVRJTMFETXNAD-JUHZACGLSA-N

>  <name>  (1690) 
CHLOROGENIC ACID

>  <iupac_name>  (1690) 
(1~{S},3~{R},4~{R},5~{R})-3-[(~{E})-3-(3,4-dihydroxyphenyl)prop-2-enoyl]oxy-1,4,5-trihydroxy-cyclohexanecarboxylic acid

>  <annotation_level>  (1690) 
5

>  <total_atom_count>  (1690) 
43

>  <heavy_atom_count>  (1690) 
25

>  <molecular_weight>  (1690) 
354.31

>  <exact_molecular_weight>  (1690) 
354.09508

>  <molecular_formula>  (1690) 
C16H18O9

>  <alogp>  (1690) 
-0.65

>  <topological_polar_surface_area>  (1690) 
164.75

>  <rotatable_bond_count>  (1690) 
4

>  <hydrogen_bond_acceptors>  (1690) 
8

>  <hydrogen_bond_donors>  (1690) 
6

>  <hydrogen_bond_acceptors_lipinski>  (1690) 
8

>  <hydrogen_bond_donors_lipinski>  (1690) 
6

>  <lipinski_rule_of_five_violations>  (1690) 
1

>  <aromatic_rings_count>  (1690) 
1

>  <qed_drug_likeliness>  (1690) 
0.23

>  <formal_charge>  (1690) 
0

>  <fractioncsp3>  (1690) 
0.38

>  <number_of_minimal_rings>  (1690) 
2

>  <van_der_walls_volume>  (1690) 
298.88

>  <contains_sugar>  (1690) 
False

>  <contains_ring_sugars>  (1690) 
False

>  <contains_linear_sugars>  (1690) 
False

>  <murcko_framework>  (1690) 
O(CC=Cc1ccccc1)C2CCCCC2

>  <np_likeness>  (1690) 
2.25

>  <chemical_class>  (1690) 
Organooxygen compounds

>  <chemical_sub_class>  (1690) 
Alcohols and polyols

>  <chemical_super_class>  (1690) 
Organic oxygen compounds

>  <direct_parent_classification>  (1690) 
Quinic acids and derivatives

>  <np_classifier_pathway>  (1690) 
Shikimates and Phenylpropanoids

>  <np_classifier_superclass>  (1690) 
Phenylpropanoids (C6-C3)

>  <np_classifier_class>  (1690) 
Cinnamic acids and derivatives

>  <np_classifier_is_glycoside>  (1690) 
False

>  <organisms>  (1690) 
Abrus pulchellus subsp. cantoniensis|Abutilon theophrasti|Acacia Nilotica|Acacia armata|Acacia aulacocarpa|Acacia nilotica|Acer pictum|Acer truncatum|Achillea Millefolium|Achillea cartilaginea|Achillea clypeolata|Achillea millefolium|Achillea sibirica|Achyrocline alata|Achyrocline flaccida|Achyrocline tomentosa|Aconitum pseudohuiliense|Aconitum sachalinense|Acrocarpia paniculata|Actaea elata|Actinidia chinensis var. deliciosa|Actinidia chinensis var. hispida|Actinidia deliciosa|Actinomadura hibisca|Adenia volkensii|Adina racemosa|Adonis sutchuenensis|Agaricus hortensis|Agave salmiana|Ageratina adenophora|Aglaia laxiflora|Agrimonia nipponica|Agrimonia pilosa|Ajania fruticulosa|Akebia quinata|Akebia trifoliata|Alangium villosum|Alcyonium molle|Aleuritopteris farinosa|Aleuritopteris formosana|Allium cepa|Aloe africana|Aloe barbadensis|Aloe ferox|Aloe spicata|Aloe vera|Alstonia deplanchei|Amanita cokeri|Ambrosia artemisiifolia var. elatior|Amelanchier alnifolia|Amelanchier alnifolia var. semiintegrifolia|Amelanchier bartramiana|Amelanchier sanguinea|Anastrepha suspensa|Andrographis Paniculata|Andrographis paniculata|Anemone flaccida|Anethum graveolens|Angelica acutiloba|Angelica furcijuga KITAGAWA|Angelica gigas|Angelica pubescens|Angelica sinensis|Anisotome pilifera|Annona muricata|Anodendron affine|Antennaria dioica|Anthemis altissima|Antonia ovata|Apiaceae|Apis mellifera|Apium graveolens|Aplophyllum popovii|Apocynum cannabinum|Apocynum venetum|Arabidopsis thaliana|Aralia continentalis|Arctium Lappa|Arctium lappa|Arcytophyllum thymifolium|Ardisia japonica|Ardisia neriifolia|Argemone grandiflora|Aria edulis|Arnica montana|Arnica montana cv.ARBO|Aronia melanocarpa|Artemisia absinthium|Artemisia annua|Artemisia annua L.|Artemisia apiacea|Artemisia argyi|Artemisia armeniaca|Artemisia capillaries|Artemisia capillaris|Artemisia carvifolia|Artemisia dracunculus|Artemisia glabella|Artemisia gmelinii|Artemisia iwayomogi|Artemisia jacutica|Artemisia maritima|Artemisia montana|Artemisia princeps|Artemisia scoparia|Artemisia scoparia.|Artemisia siversiana|Artemisia stelleriana|Artocarpus altilis|Arum maculatum|Aspergillus caespitosus|Aspidosperma subincanum|Asplenium obovatum|Aster koraiensis|Aster salignus|Aster scaber|Aster tataricus|Asteraceae|Asteriscus graveolens|Astilbe koreana|Astragalus arguricus|Astragalus asper|Astragalus bungeanus|Astragalus captiosus|Astragalus cicer|Astragalus ciceroides|Astragalus circassicus|Astragalus ernestii|Astragalus eximius|Astragalus floccosifolius|Astragalus goktschaicus|Astragalus levieri|Astragalus membranaceus|Astragalus mongholicus|Astragalus onobrychis|Astragalus robustus|Astragalus saganlugensis|Astragalus sevangensis|Astragalus trimestris|Athanasia crithmifolia|Athrixia phylicoides|Athyrium filix-femina|Baccharis angustifolia|Baccharis megapotamica|Baccharis ochracea|Baccharis spp.|Ballota hispanica|Bambusa chungii|Baptisia versicolor|Benzoin praecox|Berberis heteropoda|Berberis julianae|Berberis koreana|Berberis repens|Berberis sieboldii|Berberis vulgaris|Berneuxia thibetica|Betula obscura|Betula pendula|Betula pubescens|Bidens pilosa|Bistorta manshuriensis|Bistorta officinalis|Blechnopsis orientalis|Blechnum Orientale|Blechnum orientale|Bombus muscorum|Bongardia chrysogonum|Boronia muelleri|Brassica oleracea var. sabauda|Brassica oleracea var.capitata|Briareum asbestinum|Bridelia ferruginea|Brugmansia arborea|Brunfelsia grandiflora|Brunfelsia grandiflora D.DON|Bunodosoma caissarum|Burkholderia cepacia|Bystropogon origanifolius|Cacalia bicolor|Cacalia hastata L. (1753)|Callicarpa maingayi|Calligonum leucocladum|Calluna vulgaris|Camellia Sinensis|Camellia crassicolumna|Camellia crassicolumna var. multiplex|Camellia oleifera|Camellia sinensis|Campanula glomerata|Campanula persicifolia|Capsicum annuum var. annuum|Caragana spinosa|Carallia brachiata|Cardamine pinnata|Carpinus laxiflora|Carthamus lanatus|Cassia carnaval|Castanea sativa|Castanopsis fissa|Cathormion altissimum|Cecropia hololeuca|Cecropia pachystachya|Cedrela salvadorensis|Centaurea bracteata|Centaurea cyanus|Centaurea deflexa|Centaurea gigantea|Centaurea horrida|Centaurea pseudomaculosa|Centaurea pseudoscabiosa|Centaurea solstitialis|Centella asiatica|Centipeda minima|Centroceras clavulatum|Centrosema pascuorum|Cephalaria ambrosioides|Cephalaria uralensis|Ceratozamia fuscoviridis|Cerbera dilatata|Chaenomeles sinensis|Chaenomeles speciosa|Chaerophyllum hirsutum|Chamaemelum nobile|Chamerion dodonaei|Chamomilla recutita|Chara ceratophylla|Chenopodium album|Chimarrhis turbinata|Chondrilla juncea|Chrozophora gracilis|Chrozophora sabulosa|Chrozophora spp.|Chrysanthemum Indicum|Chrysanthemum Morifolium|Chrysanthemum indicum|Chrysanthemum indicum L.|Chrysanthemum morifolium|Chrysanthemum x morifolium|Chrysothamnus parryi|Cichorium endivia|Cichorium glandulosum|Cichorium intybus|Cichorium pumilum|Cinchona spp.|Cirsium setosum|Citrullus colocynthis|Citrus glauca|Cladogynos orientalis|Cladonia fallax|Clathria basilana|Clusia ellipticifolia|Cneorum pulverulentum|Cnidium officinale|Cocos nucifera|Codiaeum variegatum|Codium decorticatum|Codonocarpus australis|Coffea|Coffea Arabica|Coffea arabica|Coffea canephora|Colchicum macedonicum|Commelina communis|Conioselinum anthriscoides|Conoideocrella tenuis|Coprosma acerosa|Coptis chinensis|Coptis deltoidea|Coptis japonica|Coptis teeta|Corchorus olitorius|Cordiera sessilis|Coriandrum sativum|Cortex eucommiae|Cosmos diversifolius|Cota altissima|Cotoneaster simonsii|Cranfillia vulcanica|Crataegus cuneata|Crataegus laevigata|Crataegus monogyna|Crataegus oxyacantha|Crataegus oxyacantha L. (1753)|Crataegus pinnatifida|Crataegus pinnatifida var. major|Crataegus pinnatifida var.major|Crataegus rhipidophylla|Crataegus viridis|Crateva nurvala|Critonia quadrangularis|Crotalaria aegyptiaca|Croton tiglium|Cryptocarya aschersoniana|Cryptocarya oblata|Cryptogramma crispa|Cryptolepis obtusa|Cryptotermes cynocephalus|Cucurbita maxima|Cucurbita moschata|Curculigo capitulata|Curculigo orchioides|Curcuma caesia|Cuscuta australis|Cuscuta campestris|Cuscuta chinensis|Cuscuta europea|Cuscuta gronovii|Cuscuta lupuliformis|Cuscuta odorata|Cuscuta pedicellata|Cuscuta platyloba|Cuscuta reflexa|Cussonia arborea|Cyamopsis tetragonoloba|Cyanospira rippkae|Cyanthillium cinereum|Cyanthillium patulum|Cyclocarya paliurus|Cydonia|Cydonia oblonga|Cydonia vulgaris|Cylindrospermopsis raciborskii|Cymathere triplicata|Cymbaria borysthenica|Cymbopogon citratus|Cynara cardunculus|Cynara cardunculus scolymus|Cynara cardunculus var. scolymus|Cynara cornigera|Cynara humilis|Cynara scolymus|Dacrydium fonki|Dactylis glomerata|Dalbergia frutescens|Daucus carota|Desmodium styracifolium|Dichrocephala bicolor|Dicliptera riparia|Dicoma capensis|Digitalis isabelliana|Digitalis viridiflora|Dillenia papuana|Diospyros tricolor|Diospyros verrucosa|Dipsacus asper|Dipsacus asperoides|Dodonaea Viscosa|Dodonaea viscosa|Dolichandra unguis-cati|Dracocephalum ruyschiana|Drymonia macrophylla|Dryopteris filix-mas|Duhaldea cappa|Dumoria heckeli|Echinacea angustifolia|Echinacea atrorubens|Echinacea pallida|Echinacea paradoxa|Echinacea purpurea|Eclipta prostrata|Eleutherococcus senticosus|Eleutherococcus trichodon|Elizabethkingia meningoseptica|Embelia schimperi|Encyothalia cliftonii|Ephedra campylopoda|Ephedra foeminea|Epilobium dodonaei|Epilobium parviflorum|Epilobium roseum|Epimedium brevicornu|Epimedium grandiflorum|Epimedium koreanum|Epimedium pubescens|Epimedium sagittatum|Epimedium sempervirens|Epimedium wushanense|Equisetum arvense|Equisetum fluviatile|Equisetum hyemale|Equisetum pratense|Equisetum x litorale|Eragrostis curvula|Eremochloa ophiuroides|Erigeron breviscapus|Erigeron canadensis|Erigeron crispus|Eriobotrya Japonica|Eriobotrya japonica|Eriocaulon buergerianum|Eriostemon deserti|Erwinia rhapontici|Erycibe hainanensis|Erycibe obtusifolia|Erycibe schimidtii|Erycibe schmidtii|Eryngium campestre|Erythrina americana|Erythrina pallida|Erythrophleum couminga|Etlingera elatior|Eucalyptus australiana|Eucalyptus cypellocarpa|Eucalyptus globulus|Eucommia Ulmoides|Eucommia ulmoides|Eucommia ulmoides Oliver|Eugenia jambolana|Euonymus alatus|Euonymus nanoides|Eupatorium argentinum|Eupatorium cannabinum|Eupatorium gracile|Eupatorium lindleyanum|Eupatorium perfoliatum|Eupatorium petiolare|Eupatorium rebaudianum|Euphorbia caducifolia|Euphorbia clarkeana|Euphorbia hirta|Euphorbia turczaninowii|Euphorbia watanabei|Fagara chalybea|Fagopyrum cymosum|Falcaria vulgaris|Fallopia multiflora|Farfugium japonicum|Ficus elastica|Ficus simplicissima|Filipendula camtschatica|Filipendula purpurea|Flemingia congesta|Foeniculum vulgare|Fomes cajanderi|Fontanesia fortunei|Forsythia europaea|Forsythia suspensa|Forsythia suspense|Forsythia viridissima|Fragaria|Fragaria iinumae|Fragaria nipponica|Fraxinus chinensis|Fraxinus chinensis subsp. rhynchophylla|Fraxinus stylosa|Fraxinus szaboana|Fritillaria meleagris|Fructus mori|Fumaria officinalis|Galactites tomentosus|Galium aparine|Galium heldreichii|Galium melanantherum|Galium tricornutum|Galium verum|Garcinia cambogia|Garcinia jasminoides|Gardenia jasminoides|Gentiana pyrenaica|Geranium sylvaticum|Geum aleppicum|Geum calthifolium|Ginkgo biloba|Glebionis coronaria|Glebionis coronarium|Glebionis segetum|Glechoma grandis|Glechoma longituba|Glehnia Littoralis|Glehnia littoralis|Gloxinia erinoides|Glycine max|Gossypium Barbadense|Gossypium barbadense|Grataegus pinnatifida|Guatteria boliviana|Gynura elliptica|Haematoxylum campechianum|Haliclona mucosa|Hamamelis virginiana|Haplophyllum dauricum|Haplophyllum ferganicum|Hedeoma drummondii|Hedera helix|Hedysarum coronarium|Helianthopsis bishopii|Helianthus Annuus|Helianthus annuus L.cv.Peredovick|Helichrysum arenarium|Helichrysum italicum|Helichrysum stoechas|Heliopsis helianthoides var. scabra|Helleborus atrorubens|Helminthotheca echioides|Hemarthria altissima|Hemerocallis fulva|Hertia cheirifolia|Heteropappus altaicus|Hibiscus sabdariffa|Hieracium coloriscapum|Hieracium guentheri-beckii|Hieracium gymnocephalum|Hieracium naegelianum|Hieracium rotundatum|Hintonia standleyana|Hippophae rhamnoides|Homo sapiens|Hordeum vulgare|Houttuynia Cordata|Houttuynia cordata|Humulus lupulus|Hydrangea macrophylla|Hydrastis canadensis|Hydrophyllum tenuipes|Hydrophyllum virginianum|Hydrostachys angustisecta|Hydrostachys insignis|Hydrostachys polymorpha|Hypericum androsaemum|Hypericum aucheri|Hypericum australe|Hypericum calycinum|Hypericum carinatum|Hypericum connatum|Hypericum hirsutum|Hypericum humifusum|Hypericum japonicum|Hypericum maculatum|Hypericum montbretii|Hypericum myrianthum|Hypericum papuanum|Hypericum perforatum|Hypericum pulchrum|Hypericum sikokumontanum|Hypericum spp.|Hypericum ternum|Hypericum triquetrifolium|Hypericum undulatum|Hypochoeris radicata|Hypselodoris cantabrica|Ilex argentina|Ilex brevicuspis|Ilex canariensis|Ilex dumosa|Ilex kaushue|Ilex microdonta|Ilex pseudobuxus|Ilex taubertiana|Ilex theezans|Imperata cylindrica var. major|Inga velutina|Inula britannica|Inula helenium|Inula japonica|Inula thapsoides|Inulanthera nuda|Ipomoea Nil|Ipomoea fistulosa|Ipomoea nil|Ipomoea njil cv. Danjuro|Ircinia spinosula|Iris pallasii|Isatis quadrialata|Isatis tinctoria|Isodon japonicus|Isodon rubescens|Isophysis tasmanica|Jacobaea subalpina|Juglans regia|Jugo|Juniperus brevifolia|Kalopanax septemlobus|Kandelia candel|Kaunia arbuscularis|Lactobacillus casei|Lactuca indica|Lactuca serriola|Lactuca viminea|Lagerstroemia speciosa|Lagochilus leiacanthus|Lamium album|Lamium amplexicaule|Lamium moschatum|Lapsana communis|Laserpitium latifolium|Lavandula pedunculata|Lecanora planaica|Lecocarpus pinnatifidus|Leontodon autumnalis|Leontodon taraxacoides|Leontopodium alpinum|Leucanthemum maximum|Licaria chrysophylla|Ligularia speciosa|Ligusticum chuanxiong|Ligusticum sinense|Ligusticum striatum|Ligustrum obtusifolium|Lilium brownii|Lilium brownii f. e. brown var. colchesteri wils|Lilium lancifolium|Lilium pumilum|Limeum pterocarpum|Linaria macroura|Linaria maroccana|Linum usitatissimum|Lomatium macrocarpum|Lonchocarpus laxiflorus|Lonicera Confusa|Lonicera Hypoglauca|Lonicera Japonica|Lonicera bournei|Lonicera confusa|Lonicera confuse|Lonicera dasystyla|Lonicera fulvotomentosa|Lonicera hypoglauca|Lonicera implexa|Lonicera japonica|Lonicera macrantha|Lonicera macranthoides|Lonicera similis|Lophatherum gracile|Loropetalum chinense|Lupinus formosus|Lycium barbarum|Lycium chinense|Lycopus europaeus|Lysimachia christinae|Lythrum salicaria|Macaranga sinensis|Macrocystidia cucumis|Maesa chisia|Magnolia denudata|Magnolia liliiflora|Mahonia simonsii|Malus domestica|Malus pumila|Mandragora autumnalis|Mandragora officinarum|Manilkara zapota|Mantella aurantiaca|Marrubium supinum|Marrubium velutinum|Marrubium vulgare|Marsdenia cundurango|Marsdenia tenacissima|Matricaria chamomilla|Matricaria matricarioides|Matteuccia struthiopteris|Melia azedarach|Melia azedarach var. toosendan|Mentha spicata|Mentzelia cordifolia|Merendera sobolifera|Metalasia bolusii|Metasequoia glyptostroboides|Meum athamanticum|Mimosa pudica|Molineria capitulata|Momordica charantia|Moringa peregrina|Mortierella elongata|Morus Alba|Morus alba|Morus bombycis|Murraya exotica|Murraya paniculata|Musa cavendishii|Musanga cecropioides|Mycobacterium tuberculosis|Myosotis krylovii|Myosotis laxa|Myosotis scorpioides|Nanodea muscosa|Nardostachys jatamansi|Neillia tanakae|Nelumbo nucifera|Neolamarckia cadamba|Neolentinus lepideus|Nerita albicilla|Nicotiana Tabacum|Nicotiana plumbaginifolia|Nicotiana tabacum|Ocimum pilosum|Ocimum tenuiflorum|Oenothera speciosa|Olea europaea|Onobrychis cyri|Onobrychis tanaitica|Onobrychis viciifolia|Onoclea sensibilis|Onopordum acanthium|Ophiorrhiza kuroiwae|Ophiorrhiza liukiuensis|Ophiorrhiza pumila|Oreopteris limbosperma|Origanum vulgare|Ormosia hosiei|Ormosia nobilis|Ornithoglossum viride|Orthosphenia mexicana|Oryza sativa|Osmunda regalis|Ostrinia nubilalis|Oxandra xylopioides|Oxyanthus speciosus|Paeonia lactiflora|Paeonia rockii|Paeonia suffruticosa|Palicourea alpina|Panax quinquefolius|Panzerina lanata|Parasenecio hastata|Parmelia enteromorpha|Paronychia kapela|Passiflora murucuja|Passiflora pittieri|Pavetta indica|Pavetta owariensis|Pelargonium roseum|Peltophorum africanum|Penicillium alutaceum|Perilla frutescens|Peritassa compta|Perovskia abrotanoides|Persicaria amphibia|Persicaria hydropiper|Persicaria lapathifolia|Persicaria pensylvanica|Persicaria thunbergii|Persicaria tinctoria|Pertusaria truncata|Petasites formosanus|Petasites japonicus|Petasites laevigatus|Peucedanum japonicum|Peucedanum officinale|Phacelia campanularia|Phaseolus vulgaris|Phelline lucida|Phellodendron amurense|Phellodendron chinense|Phellodendron chinese|Phlomis brunneogaleata|Phlomis kotschyana|Phlomis lycia|Phlomoides rotata|Phoma medicaginis|Phyllanthus sellowianus|Phyllostachys nigra|Phyteuma orbiculare|Picea abies|Picris echioides|Piptostigma fugax|Pisum sativum|Plantago Major|Plantago bellardi|Plantago bellardii|Plantago cretica|Plantago depressa|Plantago lagopus|Plantago lanceolata|Plantago lundborgii|Plantago major|Platyphora ligata|Pleogyne cunninghami|Pleogyne cunninghamii|Pluchea lanceolata|Pocillopora eydouxi|Podocarpus philippinensis|Pogostemon cablin|Polygala amara|Polygonum Aviculare|Polygonum aviculare|Polygonum bistorta|Polygonum cuspidatum|Polypodium decumanum|Polypodium virginianum|Polypodium vulgare|Polysiphonia elongata|Polystichum aculeatum|Polystichum braunii|Polystichum lonchitis|Populus lasiocarpa|Porophyllum obscurum|Porophyllum ruderale|Portulaca oleracea|Posoqueria latifolia|Potentilla centigrana|Potentilla cryptotaeniae|Potentilla erecta|Potentilla freyniana|Potentilla tormentilla|Potentilla wallichiana|Pourthiaea villosa|Preussia aemulans|Prunella vulgaris|Prunus Mume|Prunus armeniaca|Prunus avium|Prunus buergeriana|Prunus cerasus|Prunus domestica|Prunus dulcis|Prunus grayana|Prunus itosakura|Prunus laurocerasus|Prunus mume|Prunus padus|Prunus persica|Prunus salicina|Prunus sargentii|Prunus serrulata|Prunus spachiana|Prunus ssiori|Prunus zippeliana|Pseudallescheria boydii|Pseudocyphellaria impressa|Psiadia dentata|Psorothamnus spinosus|Psychotria correae|Pteridium aquilinum|Pteridium esculentum|Pteris radiata|Pterocaulon virgatum|Punica Granatum|Punica granatum|Pyrethrum corymbosum|Pyrola decorata|Pyrrosia Lingua|Pyrrosia Sheareri|Pyrrosia davidii|Pyrrosia drakeana|Pyrrosia gralla|Pyrrosia lingua|Pyrrosia petiolosa|Pyrrosia pseudocalvata|Pyrrosia sheareri|Pyrrosia tricuspis|Pyrus calleryana|Pyrus communis|Pyrus pyrifolia|Pyxine coccifera|Quercus dentata|Quercus glauca|Quercus serrata|Raphanus sativus|Reichardia picroides|Reichardia tingitana|Relhania pumila|Relicina connivens|Reseda muricata|Reseda muricata C.Presl.|Rhaponticum carthamoides|Rheedia acuminata|Rheum tanguticum|Rhinella arenarum|Rhinoceros sondaicus|Rhododendron dauricum|Rhododendron groenlandicum|Rhododendron mucronatum|Rhododendron ungerni|Rhodomyrtus tomentosa|Ribes nigrum|Ribes rubrum|Ribes uva-crispa|Ripariosida hermaphrodita|Robinia pseudoacacia|Rosa chinensis|Rosa multiflora|Rosa rugosa|Rosmarinus officinalis|Rubia tetragona|Rubia tinctorum|Rubus|Rubus babae|Rubus chingii|Rubus cochinchinensis|Rubus coreanus|Rubus crataegifolius|Rubus deliciosus|Rubus foliosus|Rubus hiraseanus|Rubus hirsutus|Rubus idaeus|Rubus lambertianus|Rubus loganobaccus|Rubus masakii|Rubus medius|Rubus microphyllus|Rubus nigakuma|Rubus nikaii|Rubus nishimuranus|Rubus ohmineanus|Rubus palmatus|Rubus parvifolius|Rubus pedatus|Rubus phoenicolasius|Rubus plicatus|Rubus pseudochingii|Rubus rosa|Rubus sieboldii|Rubus sumatranus|Rubus tawadanus|Rubus toyorensis|Rubus trifidus|Rubus ulmifolius|Rubus utchinensis|Rudbeckia laciniata|Russula japonica|Ruta oreojasme|Rydingia integrifolia|Salacia prinoides|Salia triloba|Salix myrsinifolia|Salix pentandroides|Salix sieboldiana|Salmonella enterica subsp. enterica serovar typhimurium|Salvia albimaculata|Salvia bicolor|Salvia fruticosa|Salvia hispanica|Salvia horminum|Salvia lineata|Salvia miltiorrhiza|Salvia officinalis|Salvia officinalis L.|Salvia triloba|Salvia viridis|Salvia xalapensis|Sambucus ebulus|Sanguisorba officinalis|Sanguisorba tenuifolia|Sanicula graveolens|Sapium sebiferum|Sarcandra glabra|Sargentodoxa Cuneata|Sargentodoxa cuneata|Saussurea involucrata|Saxifraga azizoon|Saxifraga stolonifera|Scabiosa spp.|Schinus molle|Schisandra chinensis|Schizanthus tricolor|Schizonepeta multifida|Scolymus hispanicus|Scopolia carniolica|Scopolia hladnikiana|Scopolia japonica|Scopolia parviflora|Scorzonera divaricata|Scorzonera humilis|Scorzonera veratrifolia|Scorzonera virgata|Scorzoneroides autumnalis|Scrophularia|Scrophularia cryptophila|Scrophularia smithii|Scutellaria baicalensis|Scutellaria barbata|Secamone afzelii|Senecio Nemorensis|Senecio latifolius|Senecio nemorensis|Senecio rivularis|Senecio scandens|Senecio spp.|Septoria pistaciarum|Seseli mucronatum|Sida hermaphrodita|Sideritis arborescens|Sideritis catillaris|Sieversia pentapetala|Sinoadina racemosa|Smallanthus sonchifolius|Smilax china|Solanum Tuberosum|Solanum corymbosum|Solanum elaeagnifolium|Solanum habrochaites|Solanum incanum|Solanum lycopersicum|Solanum meridense|Solanum neorickii|Solanum nigrum|Solanum paniculatum|Solanum parviflorum|Solanum pennellii|Solanum peruvianum|Solanum pimpinellifolium|Solanum pimpinellifollium|Solanum pseudoquina|Solanum torvum|Solanum tuberosum L.|Solenopsis punctaticeps|Solidago altissima|Solidago altissima L.|Solidago canadensis|Solidago decurrens|Solidago virgaurea|Sonchus asper|Sonchus maritimus|Sonchus ortunoi|Sophora gypsophila|Sophora microphylla|Sorbus alnifolia|Sorbus aria|Sorbus aucuparia|Sorbus tianschanica|Spathodea campanulata|Sphaeranthus confertifolius|Spinacia oleracea|Spiraea blumei|Spiraea japonica|Spiraea nipponica|Spiraea nipponica var. tosaensis|Spiraea thunbergii|Spondias mombin|Stachys albens|Stachys byzantina|Stachys officinalis|Stachys palaestina|Stachys palustris|Stachys rigida|Stachytapheta jamaicensis|Stachytarpheta Jamaicensis|Stachytarpheta jamaicensis|Stenostomum acreanum|Stephania sutchuenensis|Stevia mercedensis|Stilpnopappus pickelii|Streptomyces|Streptomyces PM9|Streptomyces alboverticillatus|Streptomyces ehimensis|Streptomyces fulvoviridis|Streptomyces fumanus|Streptomyces lavendofoliae|Streptomyces odorifer|Streptomyces roseoviolaceus|Streptomyces viridogenes|Streptomyces xantholiticus|Strychnos Nux|Strychnos colubrina|Strychnos lucida|Strychnos nux-vomica|Strychnos tabascana|Strychnos tricalysioides|Styrax ferrugineus|Styrax perkinsiae|Sulla coronaria|Swertia japonica|Swinglea glutinosa|Symphyocladia latiuscula|Symphytum officinale|Symploca hydnoides|Syzygium cumini|Talaromyces pinophilus|Tanacetum balsamita|Tanacetum coccineum|Tanacetum santolinoides|Taraxacum borealisinense|Taraxacum coreanum|Taraxacum formosanum|Taraxacum mongolicum|Taraxacum officinale|Taraxacum platycarpum|Taraxacum scariosum|Taraxacum sinicum|Tecoma stans|Tethya amamensis|Tetragonia tetragonioides|Tetraneuris acaulis|Thea sinensis|Thelypteris palustris|Theobroma Cacao|Theobroma cacao|Thuja standishii|Thymus|Thymus bashkiriensis|Thymus quinquecostatus|Thymus vulgaris|Tillandsia brachycaulos|Torminalis glaberrima|Toxicodendron vernicifluum|Trachelospermum asiaticum|Trachelospermum asiaticum var.intermedium|Trachelospermum jasminoides|Tragopogon orientalis|Tragopogon pratensis|Triadica sebifera|Trichodesma incanum|Trifolium alexandrium|Trifolium alpestre|Trifolium medium|Trifolium pratense|Trifolium pratense L.|Trigonella foenum-graecum|Triticum aestivum|Triticum durum|Tropaeolum majus|Turbo argyrostoma|Tussilago farfara|Tylophora flava|Uncaria hirsuta|Uncaria macrophylla|Uncaria rhynchophylla|Uncaria sinensis|Unonopsis glaucopetala|Urceola rosea|Urochloa decumbens|Urospermum dalechampii|Urospermum picroides|Urtica dioica|Urtica urens|Vaccinium angustifolium|Vaccinium arctostaphylos|Vaccinium corymbosum|Vaccinium deliciosum|Vaccinium dunalianum|Vaccinium macrocarpon|Vaccinium myrtillus|Vaccinium ovalifolium|Vaccinium ovatum|Vaccinium oxycoccos|Vaccinium parvifolium|Vachellia nilotica|Valeriana Jatamansi|Valeriana amurensis|Valeriana jatamansii|Valeriana prionophylla|Valeriana rossica|Valeriana spp.|Verbesina rupestris|Viburnum dilatatum|Vigna radiata|Vinca erecta|Vinca major|Vincetoxicum hirundinaria|Vincetoxicum scandens|Viscum album|Vitex negundo|Vitis vinifera|Werneria nubigena|Wunderlichia mirabilis|Xanthium chinense|Xanthium occidentale|Xanthium orientale|Xanthium sibiricum|Xanthium strumarium|Xanthorrhoea resinosa|Xenia florida|Xenia obscuronata|Zanthoxylum ailanthoides|Zieria smithii|Zilla spinosa|Ziziphus jujuba|asparagus|basil|bog bilberry|broccoli|cacao|chia|common dandelion|common sunflower|dracocephalum ruyschiana|erycibe hainanesis|garlic|lettuce|maize|peanut|pomegranate|potato|soybean|sweet potato|tomato|yerba mate|zigzag clover

>  <collections>  (1690) 
ANPDB|AnalytiCon Discovery NPs|BIOFACQUIM|CMAUP (cCollective molecular activities of useful plants)|ChEBI NPs|ChemSpider NPs|DrugBankNP|EMNPD|ETM (Ethiopian Traditional Medicine) DB|FooDB|GNPS (Global Natural Products Social Molecular Networking)|Indofine Chemical Company|KNApSaCK|Latin America dataset|NANPDB (Natural Products from Northern African Sources)|NPACT|NPASS|NPEdia|NuBBEDB|Phenol-explorer|Phyto4Health|SANCDB|Specs Natural Products|StreptomeDB|Super Natural II|TCMDB-Taiwan (Traditional Chinese Medicine database)|TIPdb (database of Taiwan indigenous plants)|VietHerb|WikiData Natural Products

>  <dois>  (1690) 
10.1002/(SICI)1097-0010(200003)80:4<459::AID-JSFA549>3.0.CO;2-O|10.1002/(SICI)1099-1565(199603)7:2<97::AID-PCA286>3.0.CO;2-M|10.1002/(SICI)1099-1565(199909/10)10:5<268::AID-PCA467>3.0.CO;2-Z|10.1002/(SICI)1099-1573(199908/09)13:5<422::AID-PTR462>3.0.CO;2-M|10.1002/(SICI)1521-4168(19990401)22:4<222::AID-JHRC222>3.0.CO;2-6|10.1002/(SICI)1522-2675(19981111)81:11<2062::AID-HLCA2062>3.0.CO;2-8|10.1002/1099-1573(200011)14:7<501::AID-PTR655>3.0.CO;2-B|10.1002/1099-1573(200011)14:7<510::AID-PTR646>3.0.CO;2-B|10.1002/9780470514344.CH14|10.1002/ARDP.19612940503|10.1002/ARDP.19853181207|10.1002/ARDP.19913240207|10.1002/CBDV.201000284|10.1002/CHIN.200342212|10.1002/CHIN.200612187|10.1002/ELAN.200403102|10.1002/ELPS.200500714|10.1002/HLCA.200890199|10.1002/J.1537-2197.1979.TB06321.X|10.1002/JCCS.199400031|10.1002/JCCS.200000029|10.1002/JSFA.1035|10.1002/JSFA.2740330512|10.1002/JSFA.2740500306|10.1002/JSFA.6627|10.1002/JSSC.200500003|10.1002/MCS.1047|10.1002/MNFR.200400064|10.1002/MNFR.200500064|10.1002/PCA.2800020310|10.1002/PCA.2800050607|10.1002/PCA.647|10.1002/PCA.663|10.1002/PTR.1062|10.1002/PTR.1834|10.1002/PTR.2650040505|10.1002/PTR.2650090307|10.1002/RCM.3166|10.1002/RCM.5123|10.1006/JFCA.2002.1071|10.1007/978-3-540-69934-7_22|10.1007/978-3-540-71095-0_9011|10.1007/BF00487242|10.1007/BF00563488|10.1007/BF00563901|10.1007/BF00564607|10.1007/BF00564764|10.1007/BF00564784|10.1007/BF00564821|10.1007/BF00565061|10.1007/BF00565848|10.1007/BF00566073|10.1007/BF00566097|10.1007/BF00567720|10.1007/BF00567943|10.1007/BF00568247|10.1007/BF00570721|10.1007/BF00570871|10.1007/BF00571239|10.1007/BF00573563|10.1007/BF00574347|10.1007/BF00574351|10.1007/BF00574353|10.1007/BF00574596|10.1007/BF00574748|10.1007/BF00575726|10.1007/BF00576105|10.1007/BF00579083|10.1007/BF00579446|10.1007/BF00579662|10.1007/BF00579785|10.1007/BF00579788|10.1007/BF00579837|10.1007/BF00580083|10.1007/BF00580914|10.1007/BF00595084|10.1007/BF00597593|10.1007/BF00597729|10.1007/BF00597869|10.1007/BF00598180|10.1007/BF00598278|10.1007/BF00598599|10.1007/BF00598601|10.1007/BF00600846|10.1007/BF00600855|10.1007/BF00602476|10.1007/BF00602480|10.1007/BF00607552|10.1007/BF00629790|10.1007/BF00629813|10.1007/BF00629850|10.1007/BF00629948|10.1007/BF00630225|10.1007/BF00630375|10.1007/BF00630446|10.1007/BF00630451|10.1007/BF00630667|10.1007/BF00713337|10.1007/BF00713343|10.1007/BF00941699|10.1007/BF01193268|10.1007/BF01202512|10.1007/BF02035155|10.1007/BF02059590|10.1007/BF02254798|10.1007/BF02275920|10.1007/BF02323304|10.1007/BF02467553|10.1007/BF02490607|10.1007/BF02490693|10.1007/BF02902313|10.1007/BF02908196|10.1007/BF02972973|10.1007/BF02974002|10.1007/BF02976549|10.1007/S00216-007-1298-8|10.1007/S00217-003-0664-9|10.1007/S00217-003-0845-6|10.1007/S002170100328|10.1007/S002170100354|10.1007/S002990050656|10.1007/S00425-015-2460-8|10.1007/S10600-005-0115-X|10.1007/S10600-007-0166-2|10.1007/S10600-008-9130-Z|10.1007/S10600-010-9595-4|10.1007/S10600-010-9597-2|10.1007/S10600-011-0065-4|10.1007/S10600-011-9872-X|10.1007/S10600-012-0124-5|10.1007/S11130-020-00822-2|10.1007/S11418-005-0021-3|10.1007/S11418-005-0026-Y|10.1007/S11418-006-0027-5|10.1007/S11418-007-0139-6|10.1007/S11418-008-0232-5|10.1007/S13659-014-0041-3|10.1007/s00425-015-2460-8|10.1016/0003-9861(87)90339-0|10.1016/0021-9673(94)80541-5|10.1016/0021-9673(95)00765-2|10.1016/0021-9673(95)00877-2|10.1016/0021-9673(96)00169-0|10.1016/0031-9422(73)80043-3|10.1016/0031-9422(75)85190-9|10.1016/0031-9422(75)85315-5|10.1016/0031-9422(82)80150-7|10.1016/0031-9422(83)83029-5|10.1016/0031-9422(88)80664-2|10.1016/0031-9422(88)80758-1|10.1016/0031-9422(88)84119-0|10.1016/0031-9422(88)84132-3|10.1016/0031-9422(89)80037-8|10.1016/0031-9422(90)85096-X|10.1016/0031-9422(92)80169-F|10.1016/0031-9422(92)80344-E|10.1016/0031-9422(92)83451-4|10.1016/0031-9422(92)83711-7|10.1016/0031-9422(93)85090-E|10.1016/0031-9422(93)85251-L|10.1016/0031-9422(94)00658-G|10.1016/0031-9422(94)00683-K|10.1016/0031-9422(94)00689-Q|10.1016/0031-9422(94)00727-B|10.1016/0031-9422(94)85019-4|10.1016/0031-9422(94)85033-X|10.1016/0031-9422(95)00023-2|10.1016/0031-9422(95)00369-I|10.1016/0031-9422(95)00536-G|10.1016/0031-9422(95)00865-9|10.1016/0305-1978(88)90032-4|10.1016/0305-1978(90)90051-G|10.1016/0305-1978(92)90085-R|10.1016/0305-1978(93)90051-R|10.1016/0305-1978(93)90061-U|10.1016/0305-1978(93)90062-V|10.1016/0305-1978(94)00092-U|10.1016/0305-1978(94)90049-3|10.1016/0305-1978(94)90063-9|10.1016/0305-1978(95)93846-U|10.1016/0308-8146(91)90008-C|10.1016/0308-8146(92)90223-O|10.1016/0308-8146(95)00068-2|10.1016/0378-4347(95)00265-9|10.1016/0378-8741(88)90069-4|10.1016/0378-8741(90)90043-S|10.1016/0952-3278(94)90141-4|10.1016/0963-9969(94)00046-B|10.1016/J.ARABJC.2013.12.011|10.1016/J.BMC.2007.01.035|10.1016/J.BMC.2013.09.019|10.1016/J.BMCL.2007.10.046|10.1016/J.BMCL.2015.02.048|10.1016/J.CANLET.2003.10.002|10.1016/J.CARRES.2010.11.007|10.1016/J.CCLET.2010.02.022|10.1016/J.CHROMA.2007.01.090|10.1016/J.EJMECH.2011.03.011|10.1016/J.FBIO.2018.07.004|10.1016/J.FITOTE.2004.05.007|10.1016/J.FITOTE.2004.09.019|10.1016/J.FITOTE.2011.05.008|10.1016/J.FITOTE.2011.11.005|10.1016/J.FOODCHEM.2005.01.013|10.1016/J.FOODCHEM.2006.11.008|10.1016/J.FOODCHEM.2008.11.094|10.1016/J.FOODCHEM.2009.04.098|10.1016/J.FOODCHEM.2009.09.031|10.1016/J.FOODCHEM.2010.03.064|10.1016/J.FOODCHEM.2012.08.018|10.1016/J.FOODCHEM.2012.08.025|10.1016/J.IFSET.2018.01.008|10.1016/J.INDCROP.2012.12.022|10.1016/J.JEP.2004.08.010|10.1016/J.JEP.2006.06.006|10.1016/J.JEP.2012.11.025|10.1016/J.JEP.2015.02.036|10.1016/J.JEP.2015.12.016|10.1016/J.JFCA.2006.05.007|10.1016/J.JFF.2015.12.019|10.1016/J.JPBA.2008.02.013|10.1016/J.JPBA.2012.01.015|10.1016/J.LFS.2005.02.028|10.1016/J.LWT.2006.07.003|10.1016/J.LWT.2014.11.023|10.1016/J.LWT.2018.02.024|10.1016/J.PHYMED.2006.08.005|10.1016/J.PHYMED.2007.01.010|10.1016/J.PHYTOCHEM.2004.05.008|10.1016/J.PHYTOCHEM.2005.07.016|10.1016/J.PHYTOCHEM.2005.09.018|10.1016/J.PHYTOCHEM.2005.10.019|10.1016/J.PHYTOCHEM.2005.11.018|10.1016/J.PHYTOCHEM.2005.12.024|10.1016/J.PHYTOCHEM.2006.11.026|10.1016/J.PHYTOCHEM.2007.05.035|10.1016/J.PHYTOCHEM.2008.06.001|10.1016/J.PHYTOCHEM.2008.06.010|10.1016/J.PHYTOCHEM.2008.08.019|10.1016/J.PHYTOCHEM.2008.11.006|10.1016/J.PHYTOCHEM.2009.11.007|10.1016/J.PHYTOCHEM.2011.07.007|10.1016/J.PHYTOCHEM.2013.07.003|10.1016/J.PHYTOCHEM.2014.09.004|10.1016/J.PHYTOL.2011.02.005|10.1016/J.TALANTA.2012.11.012|10.1016/S0003-2670(01)01241-7|10.1016/S0021-9673(00)01030-X|10.1016/S0021-9673(01)00513-1|10.1016/S0021-9673(01)87147-8|10.1016/S0021-9673(01)87172-7|10.1016/S0021-9673(01)87655-X|10.1016/S0021-9673(01)92486-0|10.1016/S0021-9673(97)00900-X|10.1016/S0021-9673(97)01259-4|10.1016/S0021-9673(98)00294-5|10.1016/S0021-9673(98)00697-9|10.1016/S0021-9673(99)00043-6|10.1016/S0023-6438(03)00143-9|10.1016/S0031-9422(00)00143-6|10.1016/S0031-9422(00)00306-X|10.1016/S0031-9422(00)00479-9|10.1016/S0031-9422(00)80080-1|10.1016/S0031-9422(00)80722-0|10.1016/S0031-9422(00)81102-4|10.1016/S0031-9422(00)83015-0|10.1016/S0031-9422(00)84139-4|10.1016/S0031-9422(00)84542-2|10.1016/S0031-9422(00)85038-4|10.1016/S0031-9422(00)86978-2|10.1016/S0031-9422(00)88206-0|10.1016/S0031-9422(00)89605-3|10.1016/S0031-9422(00)90397-2|10.1016/S0031-9422(00)90588-0|10.1016/S0031-9422(00)90786-6|10.1016/S0031-9422(00)95107-0|10.1016/S0031-9422(00)97305-9|10.1016/S0031-9422(00)97746-X|10.1016/S0031-9422(01)00066-8|10.1016/S0031-9422(01)00365-X|10.1016/S0031-9422(01)00415-0|10.1016/S0031-9422(02)00229-7|10.1016/S0031-9422(02)00714-8|10.1016/S0031-9422(03)00273-5|10.1016/S0031-9422(06)80122-6|10.1016/S0031-9422(96)00565-1|10.1016/S0031-9422(97)00341-5|10.1016/S0031-9422(98)00536-6|10.1016/S0031-9422(99)00087-4|10.1016/S0040-4039(97)10404-X|10.1016/S0304-4238(02)00127-9|10.1016/S0305-1978(02)00029-7|10.1016/S0305-1978(02)00047-9|10.1016/S0305-1978(02)00054-6|10.1016/S0305-1978(02)00055-8|10.1016/S0305-1978(97)00015-X|10.1016/S0305-1978(97)00032-X|10.1016/S0305-1978(98)00128-8|10.1016/S0308-8146(00)00134-5|10.1016/S0308-8146(01)00204-7|10.1016/S0308-8146(96)00311-1|10.1016/S0367-326X(01)00299-4|10.1016/S0367-326X(01)00327-6|10.1016/S0367-326X(01)00331-8|10.1016/S0367-326X(99)00052-0|10.1016/S0378-8741(00)00304-4|10.1016/S0378-8741(01)00363-4|10.1016/S0731-7085(00)00264-8|10.1016/S0731-7085(00)00431-3|10.1016/S0731-7085(00)00455-6|10.1016/S0731-7085(00)00541-0|10.1016/S0889-1575(02)91071-9|10.1016/S0928-0987(97)86374-9|10.1016/S0944-7113(96)80010-9|10.1016/S0963-9969(00)00072-7|10.1016/S0968-0896(00)00225-X|10.1016/S0981-9428(99)00111-4|10.1016/S1875-5364(19)30114-1|10.1016/j.bmcl.2014.09.087|10.1016/j.bmcl.2015.02.048|10.1016/j.jep.2012.11.025|10.1017/CBO9781139095655.005|10.1021/JF000150T|10.1021/JF0001637|10.1021/JF000171N|10.1021/JF00017A016|10.1021/JF00019A027|10.1021/JF00021A005|10.1021/JF00023A022|10.1021/JF00035A032|10.1021/JF000422S|10.1021/JF000439A|10.1021/JF00050A015|10.1021/JF00056A011|10.1021/JF00056A057|10.1021/JF00063A052|10.1021/JF00065A007|10.1021/JF00088A050|10.1021/JF00088A051|10.1021/JF00091A019|10.1021/JF00097A031|10.1021/JF00102A008|10.1021/JF00107A003|10.1021/JF001331Y|10.1021/JF0013407|10.1021/JF0104681|10.1021/JF011439T|10.1021/JF0200164|10.1021/JF020028P|10.1021/JF020120L|10.1021/JF0201327|10.1021/JF020660I|10.1021/JF020728U|10.1021/JF020735I|10.1021/JF0257547|10.1021/JF0258858|10.1021/JF025929C|10.1021/JF0262458|10.1021/JF0302557|10.1021/JF030595S|10.1021/JF0307595|10.1021/JF030813H|10.1021/JF034475W|10.1021/JF0346298|10.1021/JF035416L|10.1021/JF0479766|10.1021/JF0485436|10.1021/JF049317Z|10.1021/JF050721N|10.1021/JF060460X|10.1021/JF0620968|10.1021/JF0624796|10.1021/JF062785J|10.1021/JF0734727|10.1021/JF2014759|10.1021/JF60196A035|10.1021/JF60197A017|10.1021/JF60204A042|10.1021/JF802974M|10.1021/JF900695S|10.1021/JF900963P|10.1021/JF903836K|10.1021/JF970831X|10.1021/JF9708554|10.1021/JF980936F|10.1021/JF990347P|10.1021/JF990677+|10.1021/JF9909095|10.1021/JF990972U|10.1021/NP000061A|10.1021/NP0001981|10.1021/NP010035S|10.1021/NP0105578|10.1021/NP020058M|10.1021/NP020472M|10.1021/NP0205349|10.1021/NP030217H|10.1021/NP040046W|10.1021/NP0496901|10.1021/NP049868J|10.1021/NP049868J.S002|10.1021/NP049879C|10.1021/NP050522Y|10.1021/NP060511K|10.1021/NP060511K.S001|10.1021/NP070013R|10.1021/NP0780046|10.1021/NP200646E|10.1021/NP300609U|10.1021/NP50024A030|10.1021/NP50030A026|10.1021/NP50034A037|10.1021/NP50054A027|10.1021/NP50101A022|10.1021/NP8001805|10.1021/NP900593Q|10.1021/NP960037Q|10.1021/NP9605551|10.1021/NP980153O|10.1021/NP990406T|10.1021/acs.jnatprod.6b01026|10.1021/jf9810261|10.1021/np050522y|10.1021/np300609u|10.1023/B:CONC.0000033925.00693.7B|10.1023/B:CONC.0000033945.16862.19|10.1024/0300-9831.73.2.152|10.1034/J.1399-3054.2003.00068.X|10.1038/SCIENTIFICAMERICAN03201858-219|10.1039/AI9943100261|10.1039/AN9840900263|10.1046/J.1365-3040.1998.00282.X|10.1055/A-0594-9527|10.1055/S-0028-1097578|10.1055/S-0028-1099474|10.1055/S-0033-1352106|10.1055/S-1999-14006|10.1055/S-2001-14337|10.1055/S-2001-18338|10.1055/S-2002-32561|10.1055/S-2002-34417|10.1055/S-2003-45114|10.1055/S-2003-45150|10.1055/S-2004-815543|10.1055/S-2004-827200|10.1055/S-2005-873181|10.1055/S-2006-957449|10.1055/S-2006-957540|10.1055/S-2006-957620|10.1055/S-2006-957627|10.1055/S-2006-957639|10.1055/S-2006-957738|10.1055/S-2006-958024|10.1055/S-2006-959503|10.1055/S-2006-959675|10.1055/S-2006-960147|10.1055/S-2006-960190|10.1055/S-2006-960413|10.1055/S-2006-961394|10.1055/S-2006-961558|10.1055/S-2006-961904|10.1055/S-2006-962050|10.1055/S-2006-962579|10.1055/S-2007-969776|10.1055/S-2007-979339|10.1055/S-2007-979340|10.1055/S-2008-1034316|10.1055/a-0594-9527|10.1076/PHBI.37.1.92.6318|10.1078/0944-7113-00003|10.1078/094471103322331476|10.1080/00380768.2014.945390|10.1080/01483918808076763|10.1080/09637480500524299|10.1080/09637486.2017.1418845|10.1080/1057563021000060149|10.1080/10575630290030720|10.1080/1071576021000006707|10.1080/10826079408013630|10.1080/10826079808003594|10.1080/13102818.2006.10817302|10.1080/13880200490505663|10.1080/13880200500408491|10.1080/13880200902988645|10.1080/14786410902800699|10.1080/14786410903230359|10.1080/14786419.2010.537271|10.1081/JLC-100101655|10.1081/JLC-100108744|10.1081/JLC-120027086|10.1081/JLC-200028369|10.1089/JMF.2007.531|10.1089/JMF.2009.0041|10.1093/CHROMSCI/42.4.173|10.1093/CHROMSCI/45.6.354|10.1093/CHROMSCI/BMY030|10.1093/OXFORDJOURNALS.PCP.A078100|10.1093/OXFORDJOURNALS.PCP.A078661|10.1111/1750-3841.12404|10.1111/1750-3841.12781|10.1111/J.1365-2621.1983.TB10787.X|10.1111/J.1365-2621.1983.TB14842.X|10.1111/J.1365-2621.1986.TB13100.X|10.1111/J.1365-2621.1987.TB14056.X|10.1111/J.1365-2621.1994.TB05584.X|10.1111/J.1365-2621.1994.TB08189.X|10.1111/J.1365-2621.1995.TB05668.X|10.1111/J.1365-2621.1995.TB05680.X|10.1111/J.1365-2621.2003.TB12340.X|10.1111/J.1365-313X.2008.03576.X|10.1111/J.1399-3054.1965.TB06888.X|10.1111/J.1399-3054.1994.TB03025.X|10.1111/J.1438-8677.1992.TB00281.X|10.1111/J.1439-0434.1984.TB00743.X|10.1111/J.1744-7348.1988.TB02036.X|10.1111/J.1745-4557.2003.TB00243.X|10.1111/J.2042-7158.1998.TB02423.X|10.1155/2017/6873651|10.1177/095632029700800108|10.1177/1934578X0900400602|10.1177/1934578X1501000714|10.1201/9780203022320.CH4|10.1211/0022357001773904|10.1248/BPB.19.1227|10.1248/BPB.19.1515|10.1248/BPB.25.1320|10.1248/BPB.27.136|10.1248/BPB.30.935|10.1248/BPB.32.247|10.1248/CPB.33.2028|10.1248/CPB.33.3142|10.1248/CPB.33.690|10.1248/CPB.36.87|10.1248/CPB.38.1763|10.1248/CPB.38.1844|10.1248/CPB.39.639|10.1248/CPB.39.865|10.1248/CPB.44.1293|10.1248/CPB.45.367|10.1248/CPB.45.464|10.1248/CPB.47.340|10.1248/CPB.47.375|10.1248/CPB.48.1796|10.1248/CPB.48.651|10.1248/CPB.48.687|10.1248/CPB.50.73|10.1248/CPB.53.1355|10.1248/CPB.56.93|10.1248/YAKUSHI1947.106.10_894|10.1248/YAKUSHI1947.108.7_647|10.12691/JFNR-2-5-9|10.1271/BBB.59.1780|10.1271/BBB.59.1887|10.1271/BBB.64.2689|10.1271/BBB.66.2336|10.1271/BBB.70.172|10.1271/BBB.80832|10.1271/BBB1961.46.1079|10.1271/BBB1961.49.263|10.1300/J044V08N01_03|10.1300/J044V09N04_12|10.1371/JOURNAL.PONE.0214193|10.14233/AJCHEM.2014.16143A|10.14271/DMS-19177-DE|10.1515/ZNB-2001-0812|10.1515/ZNC-1986-1-204|10.1515/ZNC-1986-11-1215|10.1515/ZNC-1992-1-204|10.1515/ZNC-1992-7-807|10.1515/ZNC-1993-5-603|10.1515/ZNC-1995-3-423|10.1515/ZNC-1996-9-1003|10.1515/ZNC-1998-11-1224|10.1515/ZNC-1998-9-1004|10.1515/ZNC-2000-11-1205|10.1515/ZNC-2000-5-607|10.1515/ZNC-2001-1-203|10.1515/ZNC-2001-9-1012|10.1515/ZNC-2003-7-826|10.1515/ZNC-2003-9-1009|10.1515/ZNC-2003-9-1019|10.1590/S0100-40422008000400018|10.17660/ACTAHORTIC.1999.479.17|10.17660/ACTAHORTIC.2003.597.15|10.18535/IJETST/V2I8.18|10.3109/13880208409070652|10.3109/13880209109082884|10.3109/13880209509055217|10.3136/FSTR.10.75|10.3136/FSTR.7.307|10.3136/FSTR.9.79|10.3136/NSKKK.42.1027|10.3136/NSKKK.48.857|10.32388/BMPM9K|10.3358/SHOKUEISHI.32.504|10.3390/11121009|10.3390/IJMS160715625|10.3390/METABO4030599|10.3390/MOLECULES13112796|10.3390/MOLECULES14010036|10.3390/MOLECULES14041456|10.3390/MOLECULES15118251|10.3390/MOLECULES23020469|10.3390/MOLECULES23071558|10.3390/MOLECULES23123330|10.3390/MOLECULES24213958|10.3390/NU11061377|10.3797/SCIPHARM.2006.74.203|10.3892/OR.7.6.1213|10.3987/COM-06-10858|10.3987/COM-91-S49|10.3987/COM-98-S(H)76|10.4268/CJCMM20121914|10.4268/CJCMM20141019|10.4268/CJCMM20142423|10.5012/BKCS.2010.31.01.199|10.5586/ASBP.1977.015|10.5586/ASBP.1980.025|10.5586/ASBP.1988.009|10.5586/ASBP.1998.029|10.5650/JOS1996.46.1399

>  <synonyms>  (1690) 
(+)-Chlorogenic acid|(1S,3R,4R,5R)-3-(((3-(3,4-dihydroxyphenyl)acryloyl)oxy)-1,4,5-trihydroxycyclohexanecarboxylic acid|(1S,3R,4R,5R)-3-[(E)-3-(3,4-DIHYDROXY-PHENYL)-ACRYLOYLOXY]-1,4,5-TRIHYDROXY-CYCLOHEXANECARBOXYLIC ACID|(1S,3R,4R,5R)-3-[(E)-3-(3,4-dihydroxyphenyl)prop-2-enoyl]oxy-1,4,5-trihydroxycyclohexane-1-carboxylic acid|1,3,4,5-tetrahydroxycyclohexanecarboxylic acid 3-(3,4-dihydroxycinnamate)|1ST40089|202650-88-2|3 Caffeoylquinic Acid|3-(3,4-Dihydroxycinnamoyl)quinate|3-(3,4-Dihydroxycinnamoyl)quinic acid|3-Caffeoylquinate|3-O-Caffeoylquinic acid|3-O-caffeoyl-D-quinic acid|3-[(E)-3-(3,4-Dihydroxy-phenyl)-acryloyloxy]-1,4,5-trihydroxy-cyclohexanecarboxylic acid|3-[[3-(3,4-Dihydroxyphenyl)-1-oxo-2-propenyl]oxy] 1,4,5-trihydroxycyclohexanecarboxylic acid|3-trans-Caffeoylquinic acid|318ADP12RI|327-97-9|32CF6D13-8F08-485F-B79E-F8A6AC318E07|5-CQA|AC-6032|ACon1_000581|AKOS015955866|AS-12284|Acid, 3-Caffeoylquinic|Acid, Chlorogenic|BDBM50327036|BDBM513080|BIDD:ER0453|BPBio1_000456|BRD-K47114202-001-06-2|BSPBio_000414|BSPBio_003353|C00852|CAS-327-97-9|CCG-38471|CCRIS 1400|CHEBI:16112|CHEBI:95271|CHEMBL284616|CHLOROGENIC ACID (USP-RS)|CHLOROGENIC ACID with HPLC|CP chlorogenic acid|CS-3766|CYCLOHEXANECARBOXYLIC ACID, 3-((3-(3,4-DIHYDROXYPHENYL)-1-OXO-2-PROPENYL)OXY)-1,4,5-TRIHYDROXY-, (1S-(1-.ALPHA.,3-.BETA.,4-.ALPHA.,5-.ALPHA.))-|Caffeoyl quinic acid|Caffetannic acid|Chlorogenate|Chlorogenic Acid1510|Chlorogenic acid (8CI)|Chlorogenic acid (constituent of echinacea angustifolia root, echinacea pallida root, echinacea purpurea root and echinacea purpurea aerial parts)|Chlorogenic acid (constituent of st. john's wort) [DSC]|Chlorogenic acid 1000 microg\/mL in Acetone|Chlorogenic acid [MI]|Chlorogenic acid [WHO-DD]|Chlorogenic acid hemihydrate|Chlorogenic acid, >=95% (titration)|Chlorogenic acid, European Pharmacopoeia (EP) Reference Standard|Chlorogenic acid, United States Pharmacopeia (USP) Reference Standard|Chlorogenic acid, primary pharmaceutical reference standard|Chlorogenicacid|Cyclohexanecarboxylic acid, 3-(((2E)-3-(3,4-dihydroxyphenyl)-1-oxo-2-propen-1-yl)oxy)-1,4,5-trihydroxy-, (1S,3R,4R,5R)-|Cyclohexanecarboxylic acid, 3-((3-(3,4-dihydroxyphenyl)-1-oxo-2-propenyl)oxy)-1,4,5-trihydroxy-, (1S-(1-alpha,3-beta,4-alpha,5-alpha))-|D54CAE3D-CDDA-455D-A28E-77FC9EFE4A43|DB12029|DTXCID604786|DTXSID101318952|DTXSID3024786|EINECS 206-325-6|F16266|FSL0458|GTPL12477|HMS1569E16|HMS1923C11|HMS2096E16|HMS2235F03|HMS3649E06|HY-N0055|Helianthic acid|Heriguard|Hlorogenate|Hlorogenic acid|Igasuric acid|MFCD00003862|MLS002153805|NCGC00168941-01|NCGC00260044-01|NS00015066|NSC 70861|NSC-407296|NSC-70861|Prestwick2_000427|Prestwick_112|Q421964|Quinic acid, 3-caffeoyl-, E-|Quinic acid, 5-caffeoyl-|SCHEMBL19466|SDCCGMLS-0066467.P001|SMR000857273|SPECTRUM210800|SR-01000841185|SR-01000946600|Spectrum5_000733|Tox21_202495|UNII-318ADP12RI|[1S-(1alpha,3beta,4alpha,5alpha)]-3-[[3-(3,4-Dihydroxyphenyl)-1-oxo-2-propenyl]oxy]-1,4,5-trihydroxycyclohexanecarboxylic acid|bmse000387|s2280|trans-5-O-Caffeoylquinic acid|trans-5-O-caffeoyl-D-quinate|trans-Caffeic acid 5-o-D-quinate|trans-Chlorogenic acid

>  <cas>  (1690) 
327-97-9|202650-88-2

$$$$

     RDKit          2D

 30 33  0  0  0  0  0  0  0  0999 V2000
   -7.2343    3.0259    0.0000 C   0  0  0  0  0  0  0  0  0  0  0  0
   -6.8319    1.5809    0.0000 C   0  0  0  0  0  0  0  0  0  0  0  0
   -5.3793    1.2068    0.0000 C   0  0  0  0  0  0  0  0  0  0  0  0
   -4.9769   -0.2382    0.0000 C   0  0  0  0  0  0  0  0  0  0  0  0
   -3.5243   -0.6123    0.0000 C   0  0  0  0  0  0  0  0  0  0  0  0
   -3.1220   -2.0573    0.0000 C   0  0  0  0  0  0  0  0  0  0  0  0
   -4.1722   -3.1283    0.0000 C   0  0  0  0  0  0  0  0  0  0  0  0
   -1.6694   -2.4314    0.0000 C   0  0  0  0  0  0  0  0  0  0  0  0
   -1.1182   -3.8264    0.0000 C   0  0  0  0  0  0  0  0  0  0  0  0
    0.3789   -3.7333    0.0000 C   0  0  0  0  0  0  0  0  0  0  0  0
    0.7530   -2.2807    0.0000 C   0  0  0  0  0  0  0  0  0  0  0  0
    2.0828   -1.5867    0.0000 C   0  0  0  0  0  0  0  0  0  0  0  0
    3.3487   -2.3913    0.0000 C   0  0  0  0  0  0  0  0  0  0  0  0
    4.6785   -1.6973    0.0000 C   0  0  0  0  0  0  0  0  0  0  0  0
    4.7424   -0.1987    0.0000 C   0  0  0  0  0  0  0  0  0  0  0  0
    6.0722    0.4953    0.0000 C   0  0  0  0  0  0  0  0  0  0  0  0
    6.1361    1.9940    0.0000 C   0  0  0  0  0  0  0  0  0  0  0  0
    7.4659    2.6880    0.0000 O   0  0  0  0  0  0  0  0  0  0  0  0
    4.8701    2.7986    0.0000 C   0  0  0  0  0  0  0  0  0  0  0  0
    3.5403    2.1046    0.0000 C   0  0  0  0  0  0  0  0  0  0  0  0
    3.4765    0.6060    0.0000 C   0  0  0  0  0  0  0  0  0  0  0  0
    2.2105    1.4106    0.0000 C   0  0  0  0  0  0  0  0  0  0  0  0
    2.1467   -0.0880    0.0000 C   0  0  0  0  0  0  0  0  0  0  0  0
    0.8807    0.7166    0.0000 C   0  0  0  0  0  0  0  0  0  0  0  0
   -0.4490    0.0226    0.0000 C   0  0  0  0  0  0  0  0  0  0  0  0
   -0.5129   -1.4761    0.0000 C   0  0  0  0  0  0  0  0  0  0  0  0
   -1.8560   -0.8081    0.0000 C   0  0  0  0  0  0  0  0  0  0  0  0
   -4.3291    2.2778    0.0000 C   0  0  0  0  0  0  0  0  0  0  0  0
   -4.7314    3.7228    0.0000 C   0  0  0  0  0  0  0  0  0  0  0  0
   -2.8764    1.9037    0.0000 C   0  0  0  0  0  0  0  0  0  0  0  0
  1  2  1  0
  3  2  1  1
  3  4  1  0
  4  5  1  0
  5  6  1  0
  6  7  1  6
  6  8  1  0
  8  9  1  6
  9 10  1  0
 11 10  1  6
 11 12  1  0
 12 13  1  1
 13 14  1  0
 14 15  2  0
 15 16  1  0
 16 17  1  0
 17 18  1  6
 17 19  1  0
 19 20  1  0
 20 21  1  0
 21 22  1  6
 21 23  1  0
 23 24  1  6
 24 25  1  0
 25 26  1  0
 26 27  1  6
  3 28  1  0
 28 29  1  0
 28 30  1  0
 26  8  1  0
 26 11  1  0
 23 12  1  0
 21 15  1  0
M  END
>  <identifier>  (1691) 
CNP0236620.1

>  <canonical_smiles>  (1691) 
CC[C@H](CC[C@@H](C)[C@H]1CC[C@H]2[C@@H]3CC=C4C[C@@H](O)CC[C@]4(C)[C@H]3CC[C@]12C)C(C)C

>  <standard_inchi>  (1691) 
InChI=1S/C29H50O/c1-7-21(19(2)3)9-8-20(4)25-12-13-26-24-11-10-22-18-23(30)14-16-28(22,5)27(24)15-17-29(25,26)6/h10,19-21,23-27,30H,7-9,11-18H2,1-6H3/t20-,21-,23+,24+,25-,26+,27+,28+,29-/m1/s1

>  <standard_inchi_key>  (1691) 
KZJWDPNRJALLNS-VJSFXXLFSA-N

>  <name>  (1691) 
BETA-SITOSTEROL

>  <iupac_name>  (1691) 
(3~{S},8~{S},9~{S},10~{R},13~{R},14~{S},17~{R})-17-[(1~{R},4~{R})-4-ethyl-1,5-dimethyl-hexyl]-10,13-dimethyl-2,3,4,7,8,9,11,12,14,15,16,17-dodecahydro-1~{H}-cyclopenta[a]phenanthren-3-ol

>  <annotation_level>  (1691) 
5

>  <total_atom_count>  (1691) 
80

>  <heavy_atom_count>  (1691) 
30

>  <molecular_weight>  (1691) 
414.72

>  <exact_molecular_weight>  (1691) 
414.38617

>  <molecular_formula>  (1691) 
C29H50O

>  <alogp>  (1691) 
8.02

>  <topological_polar_surface_area>  (1691) 
20.23

>  <rotatable_bond_count>  (1691) 
6

>  <hydrogen_bond_acceptors>  (1691) 
1

>  <hydrogen_bond_donors>  (1691) 
1

>  <hydrogen_bond_acceptors_lipinski>  (1691) 
1

>  <hydrogen_bond_donors_lipinski>  (1691) 
1

>  <lipinski_rule_of_five_violations>  (1691) 
1

>  <aromatic_rings_count>  (1691) 
0

>  <qed_drug_likeliness>  (1691) 
0.44

>  <formal_charge>  (1691) 
0

>  <fractioncsp3>  (1691) 
0.93

>  <number_of_minimal_rings>  (1691) 
4

>  <van_der_walls_volume>  (1691) 
445.51

>  <contains_sugar>  (1691) 
False

>  <contains_ring_sugars>  (1691) 
False

>  <contains_linear_sugars>  (1691) 
False

>  <murcko_framework>  (1691) 
C1=C2CCCCC2C3CCC4CCCC4C3C1

>  <np_likeness>  (1691) 
2.68

>  <chemical_class>  (1691) 
Steroids and steroid derivatives

>  <chemical_sub_class>  (1691) 
Stigmastanes and derivatives

>  <chemical_super_class>  (1691) 
Lipids and lipid-like molecules

>  <direct_parent_classification>  (1691) 
Stigmastanes and derivatives

>  <np_classifier_pathway>  (1691) 
Terpenoids

>  <np_classifier_superclass>  (1691) 
Steroids

>  <np_classifier_class>  (1691) 
Stigmastane steroids

>  <np_classifier_is_glycoside>  (1691) 
False

>  <organisms>  (1691) 
Aaptos aaptos|Abies balsamea|Abies firma|Abies koreana|Abies nordmanniana|Abies pinsapo|Abies pinsapo subsp. marocana|Abies sachalinensis|Abies spectabilis|Absidia caerulea|Abuta velutina|Abutilon indicum|Abutilon pakistanicum|Acacia acuminata|Acacia angustissima|Acacia discolor|Acacia lasiopetala|Acacia linarioides|Acacia pulchella|Acaciella angustissima|Acaena magellanica|Acaena pinnatifida|Acaena splendens|Acalypha marginata|Acalypha spiciflora|Acalypha wilkesiana|Acanthias vulgaris|Acanthopanax brachypus|Acanthopanax gracilistylus|Acanthopanax sessiliflorum|Acanthothamnus aphyllus|Acanthus ilicifolius|Acer nikoense|Acer oblongum|Acer triflorum|Achillea ageratifolia|Achillea ageratum|Achillea alexandri-regis|Achillea alexandri-regis Bornm.& Rudski|Achillea arabica|Achillea clypeolata|Achillea magnifica|Achillea micrantha|Achillea millefolium|Achillea pratensis|Achillea schischkinii|Achillea serbica|Achlys triphylla|Achyranthes aspera|Achyrocline tomentosa|Acicarpha tribuloides|Acinetobacter junii|Aconitum campylorrhynchum|Aconitum carmichaelii|Aconitum contortum|Aconitum fauriei|Aconitum japonicum|Aconitum karakolicum|Aconitum leucostomum|Aconitum nevadense|Aconitum subcuneatum|Aconitum tanguticum|Aconitum tianschanicum|Aconitum turczaninowii|Aconitum zuccarini|Acorus calamus|Acrisione denticulata|Acritopappus longifolius|Acronychia laurifolia|Acronychia muelleri|Acronychia octandra|Acroptilon repens|Acrostichum aureum|Actaea elata|Actaea heracleifolia|Actinidia chinensis|Actinidia chinensis var. deliciosa|Actinidia chinensis var. hispida|Actinopolyspora erythraea|Adansonia digitata|Adenium obesum|Adenocarpus hispanicus|Adenophora capillaris|Adenophora coelestis|Adenophora hunanensis|Adenophora lamarckii|Adenophora potaninii|Adenophora stenophylla|Adenophora stricta|Adesmia boronioides|Adiantum Caudatum|Adiantum capillus-veneris|Adiantum caudatum|Adiantum lunulatum|Adiantum poiretii|Adina racemosa|Aegilops geniculata|Aegiphila obducta|Aegiphila verticillata|Aegle marmelos|Aegopodium podagraria|Aeollanthus buchnerianus|Aeollanthus rydingianus|Aerva lanata|Aeschynanthus parvifolius|Aesculus hippocastanum|Aesculus parviflora|Aesculus punduana|Aframomum alboviolaceum|Aframomum cereum|Aframomum giganteum|Aframomum sceptrum|Aframomum sulcatum|Aganosma caryophyllata|Agardhiella tenera|Agaricus integer|Agarista salicifolia|Agathis australis|Agathis macrophylla|Agathis vitiensis|Agave cantala|Agave decipiens|Agave melliflua|Agave palmaris|Agave vivipara|Agelas longissima|Agelas sceptrum|Ageratina adenophora|Ageratina gilbertii|Ageratina glechonophylla|Ageratina saltillensis|Ageratum corymbosum|Aglaia andamanica|Aglaia elaeagnoidea|Aglaia elliptica|Aglaia lawii|Aglaia odorata|Aglaia pyramidata|Aglaia roxburghiana|Aglaia rubiginosa|Agrostis epigeios|Ailanthus Altissima|Ailanthus altissima|Ailanthus triphysa|Aiouea montana|Ajania fruticulosa|Ajania nubigena|Ajuga australis|Ajuga bracteosa|Ajuga integrifolia|Ajuga lupulina|Ajuga parviflora|Ajuga postii|Ajuga relicta|Ajuga taiwanensis|Aka coralliphagum|Akebia quinata|Alafia barteri|Alangium platanifolium|Albatrellus caeruleoporus|Alchornea cordifolia|Alchornea sidifolia|Aldama latibracteata|Aldina heterophylla|Alectoria rigida|Aleurites fordii Hemsl.|Aleurites moluccanus|Alexandrian laurel|Alexandrium excavatum|Alexandrium hiranoi|Alhagi persarum|Alhagi sparsifolia|Alibertia macrophylla|Alisma plantago-aquatica|Alitta succinea|Allanblackia gabonensis|Allium neapolitanum|Allium stipitatum|Allium victorialis|Allomyces macrogynus|Allophylus laevigatus|Almeidea coerulea|Alnus cordata|Alnus glutinosa|Alnus japonica|Alnus rubra|Aloe africana|Aloe arborescens|Aloe rubroviolacea|Aloe sinkatana|Aloe vera|Alphitonia petriei|Alphitonia whitei|Alpinia flabellata|Alpinia galanga|Alpinia hainanensis|Alpinia katsumadai|Alpinia malaccensis|Alpinia mutica|Alpinia officinarum|Alpinia oxyphylla|Alpinia pinnanensis|Alpinia pulcherrima|Alpinia tonkinensis|Alpinia zerumbet|Alseodaphne corneri|Alsidium corallinum|Alsophila gigantea|Alsophila spinulosa|Alstonia pittieri|Alstonia spectabilis|Alstroemeria aurantiaca|Alstroemeria aurea|Alternaria bataticola|Amanita caesarea|Amanoa oblongifolia|Amaranthus caudatus|Amaranthus cruentus|Amaranthus hybr|Amaranthus hybridus|Amaranthus hypochondriacus|Amaranthus tricolor|Ambrosia artemisioides|Ambrosia confertiflora|Ambrosia trifida|Amelanchier canadensis|Amentotaxus yunnanensis|American ginseng|Ammannia baccifera|Ammi majus|Amomum daniellii|Amomum longiligulare|Amomum sceptrum|Amomum sulcatum|Amomum zambesiacum|Amoora rohituka|Amphilectus digitatus|Amphilectus fucorum|Amphipterygium adstringens|Amsonia angustifolia|Amycolatopsis sulphurea|Amyris barbata|Anabaena sphaerica|Anacardium parvifolium|Anacystis montana|Anadenanthera colubrina|Anaphalis araneosa|Anaphalis busua|Anaphalis lactea|Anaphalis margaritacea|Anaptychia heterochroa|Anaptychia obscura|Anaptychia speciosa|Anarsia lineatella|Anastatica hierochuntica|Anaxagorea crassipetala|Ancathia igniaria|Andira inermis|Andrachne rotundifolia|Andrachne telephioides|Andrographis Paniculata|Andrographis paniculata|Anemone coronaria|Anemone tomentosa|Angelica decurrens|Angelica decursiva|Angelica furcijuga KITAGAWA|Angelica genuflexa|Angelica komarovii|Angelica officinalis|Angelica pubescens|Angelica sinensis|Angelica taiwaniana|Angiopteris evecta|Angostura granulosa|Aniba|Aniba affinis|Aniba canelilla|Aniba citrifolia|Aniba gigantifolia|Aniba kappleri|Aniba puchury-minor|Aniba riparia|Aniba rosaeodora|Aniba terminalis|Anisacanthus quadrifidus|Anisacanthus virgularis|Anisomeles Indica|Anisomeles indica|Annona ambotay|Annona cherimola|Annona cherimolia|Annona coriacea|Annona cornifolia|Annona glabra|Annona montana|Annona purpurea|Annona reticulata|Annona squamosa|Annulohypoxylon truncatum|Anoectochilus koshunensis|Anomala albopilosa|Antennaria cana|Antennaria dioica|Anthemis cotula|Anthocleista djalonensis|Anthopleura xanthogrammica|Anthotroche myoporoides|Anthriscus sylvestris|Antirrhinum majus|Antitrogus consanguineus|Antizoma angustifolia|Antrodia cinnamomea|Antrodia sinuosa|Apis mellifera|Apium graveolens|Apium petroselinum|Aplidium conicum|Aplidium orthium|Aplophyllum pedicellatum|Aplophyllum versicolor|Aplysia punctata|Aplysina fulva|Apollonias barbujana|Apuleia leiocarpa|Aquilaria sinensis|Aquilegia ecalcarata|Aquilegia viridiflora|Arabidopsis thaliana|Arachniodes standishii|Aralia continentalis|Aralia hispida|Aralia leschenaultii|Aralia nudicaulis|Araucaria angustifolia|Arbacia pustulosa|Arbutus menziesii|Arbutus unedo|Archidendron chevalieri|Arctium lappa|Arctostaphylos columbiana|Arctostaphylos patula|Arctotis arctotoides|Ardisia elliptica|Ardisia japonica|Ardisia kivuensis|Ardisia staudtii|Arenaria oreophila|Argyranthemum frutescens|Argyreia nervosa|Aria elegans|Aria kumaonensis|Ariocarpus fissuratus|Arisaema flavum|Aristea ecklonii|Aristolochia Kaempferi|Aristolochia acuminata|Aristolochia arcuata|Aristolochia birostris|Aristolochia chamissonis|Aristolochia clematitis|Aristolochia constricta|Aristolochia contorta|Aristolochia cucurbitifolia|Aristolochia cymbifera|Aristolochia debilis|Aristolochia elegans|Aristolochia fontanesii|Aristolochia galeata|Aristolochia gehrtii|Aristolochia grandiflora|Aristolochia heterophylla|Aristolochia heterophylla Hemsl|Aristolochia indica|Aristolochia kaempferi|Aristolochia kwangsiensis|Aristolochia labiata|Aristolochia littoralis|Aristolochia manshuriensis|Aristolochia mollissima|Aristolochia pubescens|Aristolochia ringens|Aristolochia tagala|Aristolochia triangularis|Aristolochia zollingeriana|Aristolochiaceae|Armillaria mellea|Arnebia decumbens|Arnebia hispidissima|Arnica amplexicaulis|Arnica lanceolata|Arnica mollis|Artabotrys Uncinatus|Artabotrys hexapetalus|Artabotrys uncinatus|Artemisia Annua|Artemisia Vulgaris|Artemisia anethifolia|Artemisia annua|Artemisia annua L.|Artemisia anomala|Artemisia apiacea|Artemisia arborescens|Artemisia argentea|Artemisia argyi|Artemisia assoana|Artemisia austriaca|Artemisia brevifolia|Artemisia campestris|Artemisia capillaris|Artemisia eriopoda|Artemisia feddei|Artemisia giraldii|Artemisia hanseniana|Artemisia herba-alba|Artemisia igniaria|Artemisia keiskeana|Artemisia lancea|Artemisia ludoviciana|Artemisia minor|Artemisia mongolica|Artemisia monosperma|Artemisia montana|Artemisia pedemontana|Artemisia phaeolepis|Artemisia rutifolia|Artemisia santolina|Artemisia santolinifolia|Artemisia scoparia|Artemisia sieversiana|Artemisia siversiana|Artemisia splendens|Artemisia stechmanniana|Artemisia subchrysolepis|Artemisia taurica|Artemisia thuscula|Artemisia vestita|Artemisia vulgaris|Arthrinium sacchari|Arthrobotrys oligospora|Artocarpus elasticus|Artocarpus integer|Arum italicum|Arum montanum|Aruncus dioicus|Arundo donax|Asarum chingchengense|Asarum splendens|Asclepias curassavica|Asclepias mellodora|Asclepias speciosa|Asclepias subulata|Asclepias syriaca|Ascodesmis sphaerospora|Asparagus adscendens|Asparagus tenuifolium|Aspergillus candidus|Aspergillus duricaulis|Aspergillus microcysticus|Aspergillus multicolor|Aspergillus oryzae|Aspergillus petrakii|Aspergillus unguis|Asphodeline globifera|Asphodeline lutea|Asplenium indicum|Asplenium laciniatum|Asplenium ruprechtii|Asplenium septentrionale|Aster acuminatus|Aster altaicus|Aster himalaicus|Aster indicus|Aster tongolensis|Asteraceae|Asterias forbesi|Asterias glacialis|Asteriscus aquaticus|Asterococcus muratae|Astilbe chinensis|Astilbe myriantha|Astilbe rubra|Astragalus altaicola|Astragalus altaicus|Astragalus amarus|Astragalus caspicus|Astragalus complanatus|Astragalus densifolius|Astragalus dissectus|Astragalus glycyphyllos|Astragalus gummifer|Astragalus kulabensis|Astragalus macropus|Astragalus membranaceus|Astragalus orbiculatus|Astragalus pamirensis|Astragalus pterocephalus|Astragalus schahrudensis|Astragalus sempervirens|Astragalus sieversianus|Astroloma humifusum|Atalantia buxifolia|Atalantia ceylanica|Atalantia monophylla|Atalantia wightii|Athamanta vayredana|Athanasia linifolia|Atractylodes lancea|Atractylodes macrocephala|Atriplex stocksii|Atta sexdens rubropilosa|Attagenus elongatulus|Atylosia trinervia|Aulacocephalus temmincki|Aureoumbra lagunensis|Auricularia auricula-judae|Austrobaileya scandens|Austroeupatorium inulaefolium|Austroeupatorium inulifolium|Austroplenckia populnea|Auxemma oncocalyx|Avena sativa|Avicennia officinalis|Axinella aruensis|Axinella cannabina|Axinyssa tethyoides|Azadirachta indica|Azolla nilotica|Baccharis grandicapitulata|Baccharis minutiflora|Baccharis truncata|Baccharoides anthelmintica|Bacillus subtilis|Bacterial strain|Bactris plumeriana|Badilloa salicina|Bagassa guianensis|Bahia xylopoda|Baileya pauciradiata|Baillonella toxisperma|Balanophora fungosa|Balanophora indica|Balanophora japonica|Ballota limbata|Ballota nigra|Baphicacanthus cusia|Barbados nut|Barringtonia acutangula|Barringtonia asiatica|Bassia longifolia|Batatas edulis|Bauhinia candicans|Bauhinia divaricata|Bauhinia purpurea|Bauhinia racemosa|Bauhinia vahlii L.|Bazzania spiralis|Beaumontia brevituba|Beauveria felina|Beesia calthifolia|Begonia malabarica|Begonia nantoensis|Beilschmiedia anacardioides|Beilschmiedia anacardiolides|Beilschmiedia tsangii|Beilschmiedia zenkeri|Bellardia trixago|Bellium bellidioides|Benkara malabarica|Berberis aquifolium|Berberis orthobotrys|Berberis pseudanubalata|Berchemia floribunda|Berchemia pakistanica|Berchemia racemosa|Bergenia ligulata|Bergenia pacumbis|Bergenia stracheyi|Berkheya radula|Berkheya rhapontica|Bersama abyssinica|Betula alnoides|Betula costata|Betula dahurica|Betula ermanii|Betula maximowicziana|Betula pendula|Betula platyphylla|Bhesa paniculata|Biancaea sappan|Bidens pilosa|Bidens tripartita|Biebersteinia heterostemon|Bishofia javanica|Bishopanthus soliceps|Bishovia boliviensis|Bitter bush|Bituminaria bituminosa|Blainvillea acmella|Blastochloris viridis|Blechnum fluviatile|Blepharis sindica|Blumea aromatica|Blumea eriantha|Blumea mollis|Blutaparon portulacoides|Boehmeria excelsa|Boehmeria holosericea|Boehmeria japonica tenera|Boehmeria nivea|Boehmeria tricuspis|Boerhavia diffusa|Boerhavia repens|Bohadschia vitiensis|Boletus bovinus|Boletus edulis|Bombax ceiba|Bombus pascuorum|Bombyx mori|Bongardia chrysogonum|Bonnetia paniculata|Boraginaceae|Borassus Flabellifer|Borassus flabellifer|Boronia alata|Boronia lanceolata|Boronia pancheri|Boschniakia rossica|Bosistoa floydii|Bosistoa pentacocca|Boswellia papyrifera|Bothriocline longipes|Botrychium ternatum|Botryosphaeria berengeriana|Bourreria pulchra|Bowdichia virgilioides|Brachystegia nigerica|Brandisia hancei|Brassica oleracea|Brassica oleracea var. sabauda|Brassica rapa|Bredia tuberculata|Brenneria rubrifaciens|Breynia fruticosa|Bridelia ferruginea|Bridelia ovata|Brodiaea californica|Brombya platynema|Brosimum acutifolium|Brosimum gaudichaudii|Brosimum rubescens|Brucea javanica|Bruguiera cylindrica|Bruguiera gymnorhiza|Bruguiera gymnorrhiza|Brunfelsia grandiflora|Bryum rutilans|Bryum weigelii|Buchenavia tetraphylla|Buddleja asiatica|Buddleja cordata|Buddleja madagascariensis|Buddleja yunnanensis|Bufo bankorensis|Bufo bufo|Bugula neritina|Bulbinella floribunda|Bulbophyllum odoratissimum|Bulbophyllum protractum|Bulbophyllum wendlandianum|Bunium ferulaceum|Bunium incrassatum|Bunium pachypodum|Bunodactis xanthogrammica|Bupleurum scorzonerifolium|Burkholderia pyrrocinia|Buxus hildebrandtii|Byrsonima crassifolia|Byssothecium obiones|Cabralea canjerana|Cabucala madagascariensis|Cacalia delphiniifolia|Cacalia hastata L. (1753)|Cacalia robusta|Cadlina luteomarginata|Caesalpinia Pulcherrima|Caesalpinia bonducella|Caesalpinia pulcherrima|Caesalpinia volkensii|Caiman crocodilus|Cajanus cajan|Cakile maritima|Calea crocinervosa|Calea cuneifolia|Calea harleyi|Calea jamaicensis|Calea pinnatifida|Calea prunifolia|Callicarpa Arborea|Callicarpa Macrophylla|Callicarpa arborea|Callicarpa integerrima|Callicarpa macrophylla|Callicarpa pilosissima|Callilepis laureola|Callistemon coccineus|Callitris drummondii|Calluna vulgaris|Callyspongia|Callyspongia spinosissima|Calocedrus formosana|Caloncoba lophocarpa|Calophyllum bracteatum|Calophyllum cordato-oblongum|Calophyllum gracilipes|Calophyllum macrocarpum|Calophyllum moonii|Calophyllum polyanthum|Calophyllum soulattri|Calophyllum thwaitesii|Calophyllum tomentosum|Calophyllum trapezifolium|Caloscypha fulgens|Calostephane divaricata|Calotropis procera|Calpurnia aurea|Calycanthus floridus|Calycotome villosa|Calyptranthes pallens|Calyptranthes williamsii|Calyx podatypa|Camchaya loloana|Campanula medium|Cananga odorata|Canarium muelleri|Canarium schweinfurthii|Canarium zeylanicum|Canavalia ensiformis|Candida sp.|Candida utilis|Cannabis sativa|Cantharellus cibarius|Capparis aegyptia|Capparis angulata|Capparis deserti|Capparis leucophylla|Capparis ovata|Capparis spinosa|Capparis zeylanica|Capsella bursa-pastoris|Capsicum annuum|Capsicum baccatum|Caragana aurantiaca|Caragana conferta|Caragana microphylla|Caragana spinosa|Carapichea ipecacuanha|Carcinus maenas|Cardiocrinum cordatum|Cardiospermum hirsutum|Cardopatium corymbosum|Carex|Carpesium faberi|Carpesium lipskyi|Carpesium longifolium|Carpesium macrocephalum|Carthamus tinctorius|Caryopteris tangutica|Casearia corymbosa|Casearia graveolens|Casearia ilicifolia|Casearia membranacea|Casimiroa edulis|Casimiroa pubescens|Cassia Javanica|Cassia Siamea|Cassia dentata|Cassia fistula|Cassia grandis|Cassia javanica|Cassia macrantha|Cassia multijuga|Cassia roxburghii|Cassia siamea|Cassia speciosa|Cassine papillosa|Castanopsis cuspidata|Castanopsis indica|Casuarina Equisetifolia|Casuarina equisetifolia L.|Casuarina junghaniana|Casuarina rigida|Catharanthus roseus|Caulerpa racemosa|Ceanothus americanus|Ceanothus velutinus|Cecropia pachystachya|Cedrela montana|Cedrela odorata|Cedrela salvadorensis|Ceiba Pentandra|Ceiba insignis|Ceiba pentandra|Celastrus hypoleucus|Celastrus paniculatus|Celosia argentea|Celtis laevigata|Centaurea aegyptiaca|Centaurea africana|Centaurea amanicola|Centaurea amara|Centaurea aspera|Centaurea benedicta|Centaurea calcitrapa|Centaurea cana|Centaurea cineraria L.|Centaurea collina|Centaurea cuneifolia|Centaurea dealbata|Centaurea deflexa|Centaurea derventana|Centaurea horrida|Centaurea iberica|Centaurea musimomum|Centaurea napifolia|Centaurea nicolai|Centaurea nigra|Centaurea nigrescens|Centaurea paniculata|Centaurea phyllocephala|Centaurea regia|Centaurium|Centella asiatica|Centipeda minima|Centrosema pubescens|Centrosema sagittatum|Cephalocroton cordofanus|Cephalotaxus sinensis|Ceramium botryocarpum|Ceratocystis variospora|Cercospora melonis|Cereus chrysacanthus|Ceriops decandra|Ceriops tagal|Cestrum dumetorum|Cetorhinus maximus|Cetraria pinastri|Chaenomeles sinensis|Chaenomeles sinensis KOEHNE|Chaenomeles speciosa|Chaetomella raphigera|Chaetomium arcuatum|Chaiturus marrubiastrum|Chalina arbuscula|Chamaecrista dentata|Chamaecrista kleinii|Chamaecyparis formosensis|Chamaecyparis obtusa|Chamaecyparis pisifera|Chamaemelum nobile|Chamomilla recutita|Chara corallina|Charpentiera obovata|Cheilanthes mysurensis|Cheiropleuria bicuspis|Chelonanthus albus|Chelonia japonica|Chengiopanax sciadophylloides|Chenopodium ficifolium|Chenopodium rubrum|Cherry Orange|Chilo auricilius|Chione venosa|Chione venosa (sw.) Urban var.venosa|Chisocheton macrophyllus|Chisocheton siamensis|Chiton tuberculatus|Chlamydomonas allensworthii|Chloranthus fortunei|Chloranthus holostegius|Chlorophytum borivilianum|Chlorurus gibbus|Choisya arizonica|Choisya ternata|Chondrophycus papillosus|Chorisia insignis|Chromodoris cavae|Chromodoris hamiltoni|Chromolaena arnottiana|Chromolaena subscandens|Chrozophora obliqua|Chrozophora plicata|Chrozophora tinctoria|Chrozophora verbascifolia|Chrysactinia mexicana|Chrysobalanus icaco|Chrysolaena cognata|Chrysolaena platensis|Chrysolaena propinqua|Chrysoma pauciflosculosa|Chrysosplenium americanum|Chrysosplenium oppositifolium|Chrysosporium queenslandicum|Chukrasia tabularis|Chuquiraga erinacea|Chuquiraga ulicina|Cichorium endivia|Cichorium glandulosum|Cichorium intybus|Cichorium spinosum|Cinchona tucujensis|Cineraria aspera|Cineraria atriplicifolia|Cineraria grandibracteata|Cineraria parvifolia|Cinnamomum Subavenium|Cinnamomum burmanni|Cinnamomum camphora|Cinnamomum kotoense|Cinnamomum macrostemon|Cinnamomum philippinense|Cinnamomum subavenium|Cinnamomum tenuifolium|Cinnamosma madagascariensis|Cipadessa baccifera|Cipadessa boivinina|Cipadessa cinerascens|Cirsium carolinianum|Cirsium japonicum|Cirsium setosum|Cissus discolor|Cissus quadrangularis|Cissus rheifolia|Cissus sicyoides|Cistanche salsa|Citr|Citropsis articulata|Citrus aurantium|Citrus depressa|Citrus grandis|Citrus hystrix|Citrus japonica|Citrus karna|Citrus limon|Citrus medica|Citrus reshni|Citrus reticulata|Citrus sinensis|Citrus tankan|Citrus trifoliata|Citrus unshiu|Citrus wilsonii|Citrus × deliciosa|Citrus × paradisi|Cladonia impexa|Cladonia macaronesica|Cladonia pityrea|Cladrastis kentukea|Clarisia racemosa R.et P.|Clarkia exilis|Clausena anisata|Clausena dunniana|Clausena indica|Clausena lansium|Clausena pentaphylla|Clausena pentaphylla (Roxb.)DC.|Claviceps microcephala|Cleidion Spiciflorum|Cleidion spiciflorum|Cleidion spiciflorum (Burm. f.) Merr.|Cleistanthus collinus|Cleistanthus patulus|Cleistocalyx Operculatus|Cleistocalyx operculatus|Cleistopholis glauca|Cleistopholis patens|Clematis chinensis|Clematis hexapetala|Clematis manshurica|Clematis tangutica|Clematis terniflora var. mandshurica|Cleome brachycarpa|Cleome chrysantha|Clerodendron neutens|Clerodendrum chinense|Clerodendrum colebrookianum|Clerodendrum glandulosum|Clerodendrum nutans|Clinacanthus nutans|Clinopodium acinos|Clinopodium gracile|Clinopodium umbrosum|Clinopodium vulgare|Clintonia borealis|Clitocybe fasciculata|Clusia columnaris|Cnestis ferruginea|Cnidoscolus multilobus|Cnidoscolus texanus|Coccoloba acrostichoides|Coccoloba excoriata|Cocculus hirsutus|Cochliobolus heterostrophus|Cocos nucifera|Codium dwarkense|Codonopsis benthamii|Codonopsis bhutanica|Codonopsis bulleyana|Codonopsis canescens|Codonopsis chlorocodon|Codonopsis clematidea|Codonopsis javanica|Codonopsis lanceolata|Codonopsis macrocalyx|Codonopsis meleagris|Codonopsis pilosula|Codonopsis pilosula subsp. tangshen|Codonopsis subglobosa|Codonopsis subscaposa|Codonopsis tubulosa|Codonopsis ussuriensis|Coelogyne flavida|Coelogyne ovalis|Coffea canephora|Coffea charrieriana|Coffea congensis|Coffea eugenioides|Coffea hetero calyx|Coffea heterocalyx|Coffea humblotiana|Coffea humilis|Coffea kapakata|Coffea liberica var. dewevrei|Coffea liberica var. liberica|Coffea liberica var.dewevrei|Coffea liberica var.liberica|Coffea pseudozanguebariae|Coffea racemosa|Coffea salvatrix|Coffea sessiliflora|Coffea stenophylla|Coix lacryma-jobi|Coleus coerulescens|Coleus scutellarioides|Colletia spinosissima|Colletotrichum dematium|Colpomenia sinuosa|Comanthosphace stellipila|Combretum molle|Combretum punctatum|Combretum quadrangulare|Commelina chamissonis|Commelina undulata|Commiphora confusa|Commiphora gileadensis|Commiphora opobalsamum|Concha mauritiae arabicae|Conchocarpus heterophyllus|Condea albida|Condea verticillata|Conger myriaster|Coniogramme japonica|Conium maculatum|Conocephalum japonicum|Conocephalum supradecompositum|Consolida pubescens|Conus pulicarius|Convolvulus arvensis|Convolvulus microphyllus|Convolvulus prostratus|Conyza bonariensis|Coprinellus flocculosus|Coprinus similis|Coprosma australis|Coptis chinensis|Coptis deltoidea|Coptis japonica|Coptis teeta|Coptis trifolia|Corchorus aestuans|Corchorus depressus|Cordia oncocalyx|Cordia trichotoma|Cordiera macrophylla|Cordiera sessilis|Cordyceps sinensis|Cordylanthus kingii|Corethrodendron scoparium|Coriaria ruscifolia|Coriolus versicolor|Cornus canadensis|Cornus capitata|Cornus kousa|Cornus mas|Cortinarius evernius|Cortinarius rubellus|Cortinarius venetus|Cortinarius viola|Corydalis claviculata|Corydalis conspersa|Corydalis sewerzowi|Corylus avellana|Corylus maxima|Corymbia citriodora|Corynanthe pachyceras|Coscinium fenestratum|Costus Speciosus|Costus speciosus|Costus spiralis|Costus tonkinensis|Cota tinctoria|Couepia paraensis|Couepia polyandra|Coussarea brevicaulis|Crambe kotschyana|Crataegus pentagyna|Crataegus pinnatifida|Cratoxylum maingayi|Cratystylis conocephala|Cremanthodium arnicoides|Cremanthodium discoideum|Cremanthodium ellisii|Cremastra appendiculata|Crematogaster africana|Crematogaster brevis|Crepidiastrum chelidoniifolium|Crepidiastrum denticulatum|Crepis foetida|Crepis phoenix|Crinipellis scabella|Crinum stuhlmannii|Critonia morifolia|Cronquistianthus bishopii|Crotalaria Assamica|Crotalaria Pallida|Crotalaria assamica|Crotalaria laburnifolia|Crotalaria mitchellii|Crotalaria pallida|Crotalaria pallida var. obovata|Crotalaria podocarpa|Crotalaria walkeri|Croton arboreous|Croton arboreus|Croton cajucara|Croton celtidifolius|Croton cumingii|Croton diasii|Croton geayi|Croton glabellus|Croton hieronymi|Croton laevigatus|Croton lechleri|Croton lechleri Mull.Arg.|Croton megalocarpus|Croton montevidensis|Croton pulegiodorus|Croton regelianus|Croton ruizianus|Croton steenkampianus|Croton sublyratus|Croton tetradenius|Croton urucurana|Croton urucurana Baill.|Croton zambesicus|Crotone hieronymi|Cryptocarya agathophylla|Cryptocarya amygdalina|Cryptocarya idenburgensis|Cryptocoryne spiralis|Cryptolestes pusillus|Cryptonemia angustata|Cryptosporium pinicola|Cryptotermes brevis|Cucumis sativus|Cucurbita|Cucurbita maxima|Cucurbita pepo|Culcitium canescens|Cullen corylifolia|Cullen corylifolium|Cunila lythrifolia|Cunila spicata|Cunninghamella echinulata|Cupania vernalis|Cuphea carthagenensis|Cuphea epilobiifolia|Cuphea infundibulum|Cupressus macrocarpa|Curculigo orchioides|Curcuma kwangsiensis|Curcuma mangga|Curcuma phaeocaulis|Curcuma wenyujin|Curcuma zedoaria|Cuscuta campestris|Cusparia macrocarpa|Cussonia paniculata|Cyanotis arachnoidea|Cyanthillium cinereum|Cyanthillium patulum|Cyathula tomentosa|Cyathus helenae|Cyathus intermedius|Cyberlindnera jadinii|Cybister confusus|Cybister lateralimarginalis|Cycas armstrongii|Cyclolobium clausseni|Cyclotrichium niveum|Cydonia oblonga|Cydonia vulgaris|Cylas formicarius|Cylindropuntia echinocarpus|Cymbastela coralliophila|Cymbidium aloifolium|Cymbidium giganteum|Cymbidium iridioides|Cymbopogon Flexuosus|Cymbopogon flexuosus|Cymbopogon martinii|Cymodocea nodosa|Cynanchum taiwanianum|Cynara humilis|Cynoglossum amabile|Cynoglossum gansuense|Cynoglossum viridiflorum|Cynomorium songaricum|Cynthia savignyi|Cyperus conglomeratus|Cyperus rotundus|Cypripedium acaule|Cyrtocarpa procera|Cystophora scalaris|Cystoseira barbata|Cystoseira crinita|Cytisus canariensis|Cytisus supinus|Dacrycarpus imbricatus|Dacrycarpus vieillardii|Dacryodes normandii|Dactylorhiza hatagirea|Dactylosporangium thailandense|Daemonorops draco|Dahlstedtia pentaphylla|Dalbergia Volubilis|Dalbergia assamica|Dalbergia ecastaphyllum|Dalbergia monetaria|Dalbergia nitidula|Dalbergia ovalis|Dalbergia sissoo|Dalbergia volubilis|Daldinia concentrica|Dalea purpurea|Dalea tinctoria|Dalea tuberculata|Damburneya purpurea|Damnacanthus indicus|Danae racemosa|Daphne arisanensis|Daphne aurantiaca|Daphne esquirolii|Daphne genkwa|Daphne gnidioides|Daphne pedunculata|Daphniphyllum calycinum|Dasiphora fruticosa|Daucus carota|Debaromyces hansenii|Debregeasia saeneb|Debregeasia salicifolia|Decachaeta scabrella|Decaisnea fargesii|Decaneuropsis cumingiana|Decaspermum blancoi|Degeneria vitiensis|Deguelia spruceana|Delairea odorata|Delphinium shawurense|Delphinium staphisagria|Delphinium tatsienense|Delphinium tricorne|Delphinium venulosum|Delphinium winklerianum|Dendrobates tinctorius|Dendrobium|Dendrobium Nobile|Dendrobium amplum|Dendrobium chryseum|Dendrobium crepidatum|Dendrobium densiflorum|Dendrobium fimbriatum|Dendrobium loddigesii|Dendrobium longicornu|Dendrobium moniliforme|Dendrobium nobile|Dendrobium nobile Lindl.|Dendrobium officinale|Dendrobium polyanthum|Dendrobium thyrsiflorum|Dendroctonus pseudotsugae|Dendropanax arboreus|Dentitheca habereri|Dermocybe semisanguinea|Derris amazonica|Derris obtusa|Derris rariflora|Derris trifoliata|Desmodium gangeticum|Desmodium incanum|Desmos cochinchinensis|Desmostachya bipinnata|Dialium excelsum|Dianthus armeria|Diaphus suborbitalis|Diaporthe longicolla|Dichrostachys cinerea|Dichrostachys cinerea Maab.|Dicliptera japonica|Dicliptera riparia|Dictamnus albus|Dictamnus angustifolius|Dictamnus dasycarpus|Dictamnus hispanicus|Dictyoloma vandellianum|Dictyota linearis|Didymium bahiense|Digitalis canariensis|Digitalis obscura|Dilodendron bipinnatum|Dimerostemma brasilianum|Dimorphocarpa wislizeni|Dinosperma stipitatum|Dioscorea bartlettii|Dioscorea colletii|Dioscorea collettii|Dioscorea communis|Dioscorea convolvulacea|Dioscorea cyphocarpa|Dioscorea dregeana|Dioscorea dumetorum|Dioscorea floribunda|Dioscorea gracillima|Dioscorea hondurensis|Dioscorea japonica|Dioscorea mangenotiana|Dioscorea membranacea|Dioscorea mexicana|Dioscorea nelsonii|Dioscorea olfersiana|Dioscorea opposita|Dioscorea oppositifolia|Dioscorea polystachya|Dioscorea spongiosa|Dioscoreophyllum cumminsii|Diospyros Ebenum|Diospyros Kaki|Diospyros Lotus|Diospyros Montana|Diospyros acuta|Diospyros blancoi|Diospyros buxifolia|Diospyros chaetocarpa|Diospyros chloroxylon|Diospyros cordifolia|Diospyros discolor|Diospyros ebenaster|Diospyros ebenum|Diospyros eriantha|Diospyros ferrea|Diospyros hirsuta|Diospyros indica|Diospyros kaki|Diospyros kirkii|Diospyros lotus|Diospyros malabarica|Diospyros malanonilau|Diospyros maritima|Diospyros melanoxylon|Diospyros montana|Diospyros moonii|Diospyros morrisiana|Diospyros nigra|Diospyros oblongifolia|Diospyros oppositifolia|Diospyros peregrina|Diospyros quaesita|Diospyros revoluta|Diospyros rheophytica|Diospyros rhodocalyx|Diospyros spinescens|Diospyros srilankana|Diospyros sylvatica|Diospyros texana|Diospyros thwaitesii|Diospyros tomentosa|Diospyros walkeri|Dipentodon sinicus|Diphysa americana|Diphysa carthagenensis|Diphysa robinioides|Diplazium esculentum|Diplopteraster multipes|Diplopterygium glaucum|Diploschistes cretaceus|Diplotaxis harra|Diplotropis purpurea|Dipsacus asperoides|Dipterocarpus dyeri|Discaria chacaye|Disporopsis Aspera|Disporopsis aspera|Distemonanthus benthamianus|Distimake tuberosus|Disynaphia halimifolia|Dodonaea viscosa|Doellingeria umbellata var. umbellata|Dolichandra unguis-cati|Dolichandrone crispa|Dolichospermum viguieri|Doodia picta|Doris montereyensis|Dorstenia|Dorstenia angusticornis|Dorstenia barteri|Dorstenia barteri var. subtriangularis|Dorstenia brasiliensis|Dorstenia drakena|Dorstenia elliptica|Dorstenia mannii|Dorstenia prorepens|Dorstenia psilurus|Dorstenia zenkeri|Dorycnium hirsutum|Dracaena cinnabari|Dracaena draco|Dracaena ombet|Dracocephalum kotschyi|Dracocephalum moldavica|Dragmacidon lunaecharta|Drimia fugax|Drimia indica|Drynaria quercifolia|Dryopteris crassirhizoma|Dryopteris fragrans|Drypetes gossweileri|Drypetes inaequalis|Drypetes paxii|Drypetes tessmanniana|Duddingtonia flagrans|Duguetia eximia|Duguetia glabriuscula|Duguetia hadrantha|Duhaldea cappa|Dumortiera hirsuta|Duranta plumieri|Durio carinatus|Durio zibethinus|Dysidea fragilis|Dysosma aurantiocaulis|Dysosma pleiantha|Dysosma versipellis|Dysoxylum lenticellatum|Dysoxylum macranthum|Dysoxylum malabaricum|Dysoxylum roseum|Dystaenia takesimana|Dytiscus marginalis|Ecballium elaterium|Ecbolium linneanum|Echinacea angustifolia|Echinacea pallida|Echinacea purpurea|Echinacea simulata|Echinocardium cordatum|Echinocereus blanckii|Echinocereus triglochidiatus|Echinoclathria subhispida|Echinodontium tsugicola|Echinometra lucunter|Echinometra mathaei|Echinops galalensis|Echinops niveus|Echinopsis tubiflora|Echinosophora koreensis|Echinus microtuberculatus|Echiochilon pauciflorum|Echium plantagineum|Echium vulgare|Eclipta alba|Eclipta prostrata|Eddoe|Egregia menziesii|Ekebergia capensis|Ekebergia pterophylla|Elaeagnus angustifolia|Elaeagnus pungens|Elaeagnus triflora|Elaeodendron glaucum|Elaphoglossum lindbergii|Electranthera mutica|Eleocharis acutangula|Eleocharis dulcis|Eleocharis sellowiana|Eleutherococcus brachypus|Eleutherococcus senticosus|Eleutherococcus senticosus Rupr.and Maxim.|Eleutherococcus sessiliflorus|Elliottia paniculata|Elodea canadensis|Elsholtzia ciliata|Embelia Ribes|Embelia ribes|Embelia ribes Burm.|Embothrium coccineum|Emmotum nitens|Empetrum nigrum|Empleurum unicapsulare|Endiandra palmerstoni|Endiandra palmerstonii|Endlicheria sericea|Endosamara racemosa|Engelhardia roxburghiana|Engelhardia spicata|Enkianthus campanulatus|Enkianthus cernuus|Entada africana|Entada polystachya|Entada scandens|Entandrophragma angolense|Entandrophragma candollei|Enterococcus faecalis|Enteromorpha linza|Enterospermum pruinosum|Entodon luridus|Epaltes mexicana|Ephedra altissima|Ephedra aphylla|Ephedra equisetina|Ephestia kuehniella|Epidendrum fulgens|Epigaea asiatica|Epigaea repens|Epimedium grandiflorum|Epimedium koreanum|Epimedium sempervirens|Epimedium wushanense|Epinetrum cordifolium|Epipedobates anthonyi|Epiphyllum|Equisetum arvense|Eragrostis tef|Eremanthus bicolor|Eremanthus incanus|Eremurus chinensis|Eria siamensis|Eria tomentosa|Erica cinerea|Erigeron bonariensis|Erigeron canadensis|Erigeron multiradiatus|Eriobotrya japonica|Eriococcus coriaceus|Erioderma chilense|Eriogaster lanestris|Eriogonum nudum|Eriogonum umbellatum|Eriolaena hookeriana|Eriolarynx australis|Eriostemon brucei|Erucaria microcarpa|Erycibe expansa|Erylus nobilis|Eryngium foetidum|Erysimum carniolicum|Erysimum cuspidatum|Erysimum diffusum|Erythrina americana|Erythrina arborescens Roxb.|Erythrina chiriquensis|Erythrina mildbraedii|Erythrina sandwicensis|Erythrina senegalensis|Erythrina standleyana|Erythrina stricta|Erythrochiton brasiliensis|Erythrophleum africanum|Erythrophleum fordii|Erythroxylum barbatum|Erythroxylum gonoclados|Erythroxylum gonocladum|Erythroxylum passerinum|Erythroxylum pictum|Esenbeckia conspecta|Esenbeckia grandiflora|Esenbeckia hartmanii|Esenbeckia nesiotica|Esenbeckia stephanii|Eskemukerjea megacarpum|Espeletia killipii|Espeletia moritziana|Espeletia weddelii|Ethulia conyzoides|Etlingera elatior|Etlingera philippinensis|Eucalyptus Camaldulensis|Eucalyptus bakeri|Eucalyptus camaldulensis|Eucalyptus camaldulensis var.obtusa|Eucalyptus campanulata|Eucalyptus citriodora|Eucalyptus cladocalyx|Eucalyptus globulus|Eucalyptus hybr|Eucalyptus kitsoni|Eucalyptus kitsoniana|Eucalyptus nova-anglica|Eucalyptus perriniana|Eucalyptus rubida|Eucalyptus tereticornis|Euchresta formosana|Euchresta japonica|Eucommia ulmoides|Eugenia modesta|Eugenia moraviana|Eugenia wallichii|Eunicea knighti|Eunicella cavolinii|Euodia rutaecarpa|Euodia ruticarpa|Euonymus alatus|Euonymus japonicus|Euonymus laxiflorus|Euonymus nanus|Euonymus pendulus|Euonymus revolutus|Eupatorium adenophorum|Eupatorium altissimum|Eupatorium cannabinum|Eupatorium macrocephalum Lee.|Eupatorium perfoliatum|Euphausia superba|Euphorbia Pulcherrima|Euphorbia Sessiliflora|Euphorbia Tirucalli|Euphorbia aleppica|Euphorbia altotibetica|Euphorbia antiquorum|Euphorbia bivonae|Euphorbia boetica|Euphorbia bupleuroides|Euphorbia cattimandoo|Euphorbia chamaesyce|Euphorbia characias|Euphorbia cyparissias|Euphorbia dendroides|Euphorbia erythraeae|Euphorbia esula|Euphorbia fischeri|Euphorbia fischeriana|Euphorbia formosana|Euphorbia granulata|Euphorbia guyoniana|Euphorbia helioscopia|Euphorbia hirta|Euphorbia indica|Euphorbia ingens|Euphorbia jaxartica|Euphorbia kansui|Euphorbia lamprocarpa|Euphorbia lathyris|Euphorbia macroclada|Euphorbia maculata|Euphorbia mellifera|Euphorbia micractina|Euphorbia milii|Euphorbia nicaeensis|Euphorbia nivulia|Euphorbia palustris|Euphorbia paralias|Euphorbia petiolata|Euphorbia piscatoria|Euphorbia plumerioides|Euphorbia polygonifolia|Euphorbia pulcherrima|Euphorbia quinquecostata|Euphorbia rothiana|Euphorbia sancta|Euphorbia segetalis|Euphorbia sessiliflora|Euphorbia sessiliflora Roxb.|Euphorbia stygiana|Euphorbia tirucalli|Euphorbia tithymaloides|Euphorbia tortilis|Euphorbiaceae|Euphrasia nemorosa|Euphrasia rubra|Euploca scabra|Euplotes vannus|Euptelea polyandra|Eurya japonica|Euryops algoensis|Euryops lateriflorus|Euthamia graminifolia|Eutreptia viridis|Eutrochium purpureum|Euxylophora paraensis|Evea brasiliensis|Evodia rutaecarpa|Evolvulus nummularius|Excoecaria agallocha|Exochorda giraldii|Eysenhardtia platycarpa|Eysenhardtia polystachya|Fagara budrunga|Fagara heitzii|Fagara tessmannii Engl.|Fagopyrum esculentum|Falcaria vulgaris|Falcatifolium taxoides|Fallopia multiflora|Faramea occidentalis|Farfugium hiberniflorum|Farfugium japonicum|Fenneropenaeus orientalis|Ferula ammoniacum|Ferula assa-foetida|Ferula diversivittata|Ferula jaeschkeana|Ferula kirialovii|Ferula marmarica|Ferula persica|Ferula szowitsiana|Ferula transiliensis|Ferulago capillaris|Ferulago lutea|Festuca argentina|Festuca hieronymi|Fibraurea tinctoria|Ficus Carica|Ficus beecheyana|Ficus bengalensis|Ficus benjamina|Ficus carica|Ficus erecta var. beecheyana|Ficus eriobotryoides|Ficus microcarpa|Ficus mucuso|Ficus obtusifolia|Ficus padifolia|Ficus palmata|Ficus pandurata|Ficus pertusa|Ficus pumila|Ficus sagittata|Ficus septica|Filago congesta|Flacourtia indica|Flaveria bidentis|Flavoparmelia caperata|Flavoparmelia euplecta|Flemingia macrophylla|Flemingia paniculata|Flemingia strobilifera|Flindersia collina|Flindersia dissosperma|Flindersia ifflaiana|Flindersia laevicarpa|Flindersia laevicarpa C.T.White et Francis.|Flindersia maculosa|Flueggea microcarpa|Flueggea virosa|Foeniculum vulgare|Forsythia suspensa|Forsythia viridissima|Fouquieria diguetii|Fragaria vesca|Fraxinus angustifolia|Fraxinus chinensis subsp. rhynchophylla|Friesodielsia velutina|Fritillaria hupehensis|Fritillaria pallidiflora|Fritillaria thunbergii|Fructusgleditsia|Frullania brasiliensis|Frullania falciloba|Frullania monocera|Fuligo candida|Fumaria indica|Furcraea cabuya|Fusarium avenaceum|Fusarium sporotrichioides|Fusarium sulphureum|Gadus brandti|Gaertnera morindoides|Gaillardia aristata|Galeana pratensis|Galega officinalis|Galium uliginosum|Ganoderma lucidum|Garcia parviflora|Garcinia Mangostana|Garcinia afzelii|Garcinia afzelii ENGL.|Garcinia cambogia|Garcinia celebica|Garcinia conrauana|Garcinia diospyrifolia|Garcinia echinocarpa|Garcinia griffithii|Garcinia huillensis|Garcinia intermedia|Garcinia lateriflora|Garcinia latissima|Garcinia mangostana|Garcinia mangostana L.|Garcinia multiflora|Garcinia opaca|Garcinia pyrifera|Garcinia scortechinii|Garcinia speciosa|Garcinia spicata|Garcinia staudtii|Garcinia terpnophylla|Garcinia thwaitesii|Gardenia jasminoides|Garuga floribunda var. gamblei|Garuga pinnata|Gasterosteus aculeatus|Gastrodia elata|Gaultheria borneensis|Gaultheria itoana|Gaultheria procumbens|Gavia immer|Gazania rigens|Geigeria burkei|Genista anglica|Genista hystrix|Genista sessilifolia|Gentiana algida|Gentiana asclepiadea|Gentiana bellidifolia|Gentiana crassicaulis|Gentiana davidii var. formosana|Gentiana lutea|Gentiana lutea L.|Gentiana macrophylla|Gentiana siphonantha|Gentiana tibetica|Geranium macrorrhizum L.|Geum elatum|Geum japonicum|Geum rupestre|Ginkgo biloba|Ginkgo biloba L.|Gladiolus italicus|Glechoma hirsuta|Gleditsia sinensis|Gleditsia sinensis LAM.|Gleichenia japonica|Glenodinium halli|Glochidion puberum|Glochidion sphaerogynum|Glochidion zeylanicum|Gloiopeltis furcata|Glomus mosseae|Glossocardia bidens|Glossogyne tenuifolia|Glycine Max|Glycine max|Glycine sp.|Glycosmis citrifolia|Glycosmis mauritiana|Glycosmis parviflora|Glycosmis puberula|Glycyrrhiza inflata|Glycyrrhiza triphylla|Glyptopetalum sclerocarpum|Gmelina arborea|Gmelina vitiensis|Gnaphalium liebmannii|Gnaphalium oligandrum|Gnaphalium oxyphyllum|Gnaphalium pellitum|Gnetum cleistostachyum|Gnetum latifolium|Gnetum montanum|Gnidia subcordata|Goldfussia yunnanensis|Gomortega keule|Gomphocarpus fruticosus|Gomphostemma parviflorum|Gomphrena Celosioides|Gomphrena celosioides|Goniophlebium formosanum|Goniophlebium niponicum|Goniothalamus amuyon|Goniothalamus malayanus|Goniothalamus sesquipedalis|Goniothalamus umbrosus|Gonospermum canariense|Gonospermum ferulaceum|Gorgonocephalus chilensis|Gossypium hirsutum|Gossypium sp.|Gossypium sturtianum|Gouania ulmifolia|Goupia glabra|Grataegus pinnatifida|Gratiola officinalis|Great yellow gentian|Grewia bicolor|Grewia damine|Grewia mollis|Grewia villosa|Grosmannia wageneri|Grosvenoria rimbachii|Guaiacum officinale|Guarea guidonia|Guarea macrophylla|Guatteria blepharophylla|Guatteria dumetorum|Guazuma tomentosa|Guazuma ulmifolia|Guettarda platypoda|Guilandina bonduc|Guilandina volkensii|Gundelia tournefortii|Gutierrezia dracunculoides|Gutierrezia gilliesii|Gutierrezia gymnospermoides|Gymnocarpium robertianum|Gymnopus androsaceus|Gymnosporia arbutifolia|Gymnosporia emarginata|Gymnosporia senegalensis|Gynocardia odorata|Gynochthodes officinalis|Gynura japonica|Gypsophila patrini|Habenaria intermedia|Hakea amplexicaulis|Halidrys siliquosa|Halimium halimifolium|Halimium umbellatum|Halimium viscosum|Halimodendron halodendron|Halocharis hispida|Halothamnus somalensis|Hansenia forbesii|Haplocarpha lyrata|Haploclathra leiantha|Haploclathra paniculata|Haplopappus arbutoides|Haplophragma adenophyllum|Haplophyllum acutifolium|Haplophyllum bucharicum|Haplophyllum griffithianum|Haplophyllum latifolium|Haplophyllum multicaule|Haplophyllum obtusifolium|Haplophyllum schelkovnikovii|Harrisonia abyssinica|Harrisonia perforata|Harungana madagascariensis|Hawkesiophyton ulei|Hebanthe erianthos|Hedeoma pulegioides|Hedera canariensis|Hedera rhombea|Hedychium coronarium|Hedychium villosum|Hedychium yunnanense|Hedyosmum arborescens|Hedysarum gmelini|Hedysarum multijugum|Hedysarum sachalinense|Hedysarum sajanicum|Hedysarum setigerum|Heisteria nitida|Helenium aromaticum|Helianthus annuus|Helianthus maximiliani|Helianthus porteri|Helianthus radula|Helichrysum auriceps|Helichrysum cameroonense|Helichrysum dendroideum|Helichrysum graveolens|Helichrysum lindleyi|Helichrysum nudifolium|Helicteres Angustifolia|Helicteres angustifolia|Helietta apiculata|Heliocarpus donnellsmithii|Heliotropium Indicum|Heliotropium ellipticum|Heliotropium filifolium|Heliotropium glutinosum|Heliotropium indicum|Heliotropium marifolium|Helipterum gnaphaloides|Helipterum roseum|Helix pomatia|Helleborus multifidus|Hellenia speciosa|Hemerocallis fulva|Hemerocallus minor|Hemidesmus indicus|Hemiphragma heterophyllum|Hemiselmis virescens|Hendersonula toruloidea|Henriettea fascicularis|Henriettella fascicularis|Heracleum granatense|Heracleum grandiflorum|Hernandia sonora|Herrania albiflora|Hertia cheirifolia|Heteromma simplicifolium|Heteropolygonatum alte-lobatum|Heteropsis integerrima|Heterothalamus spartioides|Heterotheca grandiflora|Heterotheca inuloides|Hexabranchus sanguineus|Hexagonia speciosa|Hibiscus|Hibiscus cannabinus|Hibiscus taiwanensis|Hibiscus × rosa-sinensis|Hieracium canadense|Hieracium kalmii|Hieronyma alchorneoides|Hijmania angusticornis|Himalaiella deltoidea|Himalrandia tetrasperma|Himantoglossum hircinum|Himatanthus articulatus|Hippasteria phrygiana|Hippobroma longiflora|Hippocratea volubilis|Hippophae rhamnoides|Hippophae rhamnoides L.|Hirschfeldia incana|Hohenbuehelia serotina|Holarrhena floribunda|Holothuria squamifera|Homalium longifolium|Homalolepis cuneata|Homo sapiens|Hordeum Vulgare|Hordeum bulbosum|Hordeum vulgare L.cv Mammut|Hordeum vulgare var. distichon|Hornschuchia citriodora|Horsfieldia irya|Hortia brasiliana|Hortia longifolia|Hortia superba|Hortonia floribunda|Hoslundia opposita|Houttuynia cordata|Hubera cerasoides|Hubera pendula|Hubertia tomentosa|Hultholia mimosoides|Humboldtia laurifolia|Humirianthera rupestris|Hunteria corymbosa|Hyalis argentea|Hydnellum caeruleum|Hydnocarpus anthelminthicus|Hydnocarpus octandra|Hydnocarpus pentandrus|Hydrallmania falcata|Hydrangea chinensis|Hydrangea febrifuga|Hydrangea heteromalla|Hydrophyllum capitatum|Hygrophila polysperma|Hygrophorus eburneus|Hylocereus undatus|Hymenaea courbaril|Hymenaea oblongifolia|Hymenea coubaril|Hymeniacidon perleve|Hymenidium densiflorum|Hymenodictyon excelsum|Hymenodictyon orixense|Hymenopappus scabiosaeus|Hymenothrix glandulopubescens|Hyoscyamus niger|Hyperbaena columbica|Hypericum ascyron|Hypericum brasiliense|Hypericum caprifoliatum|Hypericum carinatum|Hypericum erectum|Hypericum geminiflorum|Hypericum japonicum|Hypericum laricifolium|Hypericum oblongifolium|Hypericum patulum|Hypericum perforatum|Hypericum reptans|Hyphear tanakae|Hyphochytrium catenoides|Hypogymnia vittata|Hypolepis punctata|Hypopitys monotropa|Hypotrachyna quaesita|Hypoxis nyasica|Hypselodoris porterae|Hyptis suaveolens|Hyrtios eubamma|Hyssopus seravschanicus|Ibacus peronii|Idea leuconoe|Ifloga spicata|Ilex brevicuspis|Ilex taubertiana|Illicium difengpi|Incarvillea delavayi|Indigofera oblongifolia|Indigofera tetrantha|Inula Cappa|Inula Racemosa|Inula britannica|Inula cappa|Inula crithmoides|Inula japonica|Inula multicaulis|Inula nervosa|Inula racemosa|Inula salsoloides|Inula thapsoides|Inula viscosa|Iodes cirrhosa|Iostephane heterophylla|Iotrochota purpurea|Ipheion uniflorum|Iphiona grantioides|Ipomoea cairica|Ipomoea nil|Iresine diffusa|Iris ensata|Iris germanica L.|Iris nertchinskia|Iris nigricans|Iris pallida|Iris sofarana|Iris tenuifolia|Iris versicolor|Iris x germanica|Iryanthera coriacea|Iryanthera elliptica|Iryanthera grandis|Iryanthera hostmannii|Iryanthera juruensis|Iryanthera laevis|Iryanthera polyneura|Iryanthera ulei|Isaria cretacea|Isodon eriocalyx|Isodon grandifolius|Isodon irroratus|Isodon japonica|Isodon japonicus|Isodon lophanthoides|Isodon loxothyrsus|Isodon rubescens|Isodon rugosus|Isodon scoparius|Isodon serra|Isodon trichocarpus|Isodon umbrosus|Isodon yuennanensis|Isolona congolana|Isolona maitlandii|Isolona pilosa|Isoplexis chalcantha|Ixeridium gracile|Ixeris denticulata|Ixora chinensis|Ixora coccinea|Jacobaea cannabifolia|Jacobaea maritima|Jacobaea pancicii|Jacobaea vulgaris|Jasione montana|Jasminum azoricum|Jasminum fluminense|Jateorhiza palmata|Jatropha dioica|Jatropha gossypiifolia|Jatropha integerrima|Jatropha maheshwarii|Jatropha weddeliana|Jatropha weddelliana|Juglans Regia|Juglans regia|Jugo|Juncus effusus|Junellia tridens|Jungia polita|Juniperus brevifolia|Juniperus communis|Juniperus formosana|Juniperus horizontalis|Juniperus occidentalis|Juniperus osteosperma|Juniperus pinchotii|Juniperus rigida|Juniperus sabina|Juniperus scopulorum|Jurinea albicaulis|Jurinea maxima|Justicia betonica|Justicia heterocarpa|Justicia heterocarpa T.ANDERS|Kadsura Heteroclita|Kadsura ananosma|Kadsura coccinea|Kadsura heteroclita|Kaempferia Angustifolia|Kalanchoe daigremontiana|Kalanchoe petitiana|Kalanchoe pinnata|Kalanchoe spathulata|Kalmia angustifolia|Kalmia latifolia L.|Karelinia|Kaunia lasiophthalma|Keiferia lycopersicella|Khaya Senegalensis|Khaya anthotheca|Khaya ivorensis|Khaya senegalensis|Khaya senegalensis L.|Kielmeyera albopunctata|Kielmeyera excelsa|Kielmeyera pumila|Kielmeyera rubriflora|Kingiella taenialis|Klaseopsis chinensis|Klebsiella pneumoniae|Kleinia madagascariensis|Knautia arvensis|Koanophyllon albicaule|Koanophyllon albicaulis|Kochia trichophylla|Koelreuteria paniculata|Koenigia coriaria|Kopsia grandifolia|Kopsia longiflora|Kothala himbutu|Krameria bicolor|Krameria grayi|Krameria sonorae|Krameria tomentosa|Kryptoperidinium foliaceum|Kumquat|Kyrsteniopsis dibollii|Kyrsteniopsis spinaciifolia|Laburnum watereri|Lactarius atroviridis|Lactarius sanguifluus|Lactarius subpiperatus|Lactobacillus delbrueckii subsp. bulgaricus|Lactococcus lactis|Laennecia sophiifolia|Laennecia sophiifolia (Kunth) G.L.Nesom|Laetiporus versisporus|Lagenaria siceraria|Lagerstroemia|Lagerstroemia speciosa|Laggera alata|Laggera pterodonta|Lagochilus proskorjakovii|Lagochilus pubescens|Lagochilus setulosus|Lagotis yunnanensis|Lamium amplexicaule|Lancea tibetica|Lantana achyranthifolia|Lantana camara|Lantana montevidensis|Lanurocerasus officinalis|Lanxangia tsao-ko|Larix gmelinii|Larix kaempferi|Larix kaempferi (Lamb.) Carr|Larix sibirica|Laser trilobum|Laserpitium siler|Lasianthaea podocephala|Lasianthus gardneri|Lasianthus wallichii|Lasiosiphon kraussianus|Lathraea squamaria|Lathyrus aphaca|Lathyrus tingitanus|Launaea nudicaulis|Laurencia pacifica|Laurencia rigida|Laurentia longiflora|Lavandula gibsonii|Lawrencella rosea|Lawsonia inermis|Leathesia nana|Lebeckia plukenetiana|Lecanora conizaeoides|Lecanora straminea|Lecidea carpathica|Leitneria floridana|Lemna minor|Lens culinaris|Leontodon filii|Leontopodium alpinum|Leontopodium nanum|Leonurus persicus|Lepechinia caulescens|Lepidiota negatoria|Lepidium meyenii|Lepidium virginicum|Lepidophorum repandum|Lepisorus contortus|Lepista irina|Lepraria citrina|Leptolyngbya lurida|Leptopus chinensis|Leptospermum recurvum|Leptospermum scoparium|Lespedeza bicolor|Lespedeza cyrtobotrya|Lespedeza davidii|Lespedeza juncea|Lessingianthus linearis|Lessingianthus rubricaulis|Lethariella cladonioides|Lethasterias fusca|Leucaena leucocephala|Leucanthemella serotina|Leucas aspera|Leucas cephalotes|Leucas nutans|Leucheria runcinata|Leucoblepharis subsessilis|Leucocarpus perfoliatus|Leucophyllum frutescens|Leucophyllum texanum|Leucosyke quadrinervia|Leucothoe grayana|Leucothoe grayana Max.|Liabum floribundum|Liabum solidagineum|Liatris squarrosa|Libanotis intermedia|Licaria armeniaca|Licaria canella|Licaria chrysophylla|Licaria macrophylla|Licaria mahuba|Licaria puchury-major|Licaria rigida|Ligularia amplexicaulis|Ligularia atroviolacea|Ligularia duciformis|Ligularia hodgsonii|Ligularia intermedia|Ligularia macrophylla|Ligularia nanchuanica|Ligularia nelumbifolia|Ligularia odontomanes|Ligularia przewalskii|Ligularia sagitta|Ligularia stenocephala|Ligularia thyrsoidea|Ligularia tongolensis|Ligularia veitchiana|Ligusticum porteri|Ligusticum sinense|Ligusticum tenuissimum|Ligustrum obtusifolium|Ligustrum robustum|Limnophila heterophylla|Limonium aureum|Limonium axillare|Linaria vulgaris|Lindera communis|Lindera glauca|Lindera umbellata|Linum usitatissimum|Liochlaena subulata|Liparis nakaharai|Lippia americana|Lippia origanoides|Lippia sidoides|Lipschitziella deltoidea|Liriodendron tulipifera|Lissoclinum bistratum|Lithocarpus glaber|Lithodora fruticosa|Lithospermum canescens|Lithospermum officinale|Litsea acutivena|Litsea lii|Litsea nitida|Litsea szemaois|Litsea umbellata|Litsea zeylanica|Littorina littorea|Lobaria oregana|Lobatiriccardia lobata|Lobelia chinensis|Lobelia davidii|Lobelia langeana|Lobophora variegata|Lobophytum cristatum|Lobophytum schoedei|Lomandra hastilis|Lomentaria catenata|Lonchocarpus castilloi|Lonchocarpus minimiflorus|Lonchocarpus urucu|Lonicera angustifolia|Lonicera hypoleuca|Lonicera korolkovii|Lonicera macranthoides|Lonicera quinquelocularis|Lophanthus chinensis|Loranthus falcatus|Loranthus tanakae|Lotus creticus|Lotus hirsutus|Lotus tenuis|Lotus ucrainicus|Lotus villosus|Lucilia caesar|Luisia volucris|Luma chequen|Lupinus albus|Lupinus cosentinii|Lupinus mutabilis|Luxemburgia nobilis|Luxemburgia octandra|Lychnophora markgravii|Lycium barbarum|Lycium chinense|Lycopodium paniculatum|Lycopus europaeus|Lydenburgia cassinoides|Lygodium pinnatifidum|Lyngbya majuscula|Lyophyllum connatum|Lysiloma acapulcense|Lysimachia japonica|Lysimachia mauritiana|Lysionotus denticulosus|Lythrum salicaria|Maackia amurensis|Macaranga sampsonii|Macaranga sinensis|Machilus japonica|Machilus obovatifolia|Machilus odoratissima|Machilus robusta|Machilus thunbergii|Machilus zuihoensis|Maclura cochinchinensis|Maclura pomifera|Macroclinidium robustum|Macrolobium bifolium|Macrozamia communis|Maerua oblongifolia|Magnolia compressa|Magnolia denudata|Magnolia garrettii|Magnolia kachirachirai|Magnolia liliiflora|Magnolia obovata|Magnolia odora|Magnolia sieboldii|Magnolia sinica|Maianthemum canadense|Malacosoma americanum|Malleastrum boivinianum|Mallotus apelta|Mallotus pallidus|Mallotus peltatus|Malpighia glabra|Malus sylvestris|Malvaviscus arboreus|Mamestra brassicae|Mammillaria coronata|Mammillaria magnimamma|Mangifera indica|Manilkara hexandra|Manilkara kauki|Mannia fragrans|Mansoa alliacea|Maprounea guianensis|Maquira coriacea|Marchantia polymorpha|Markhamia Stipulata|Markhamia lutea|Markhamia stipulata|Marrubium anisodon|Marrubium peregrinum|Marrubium vulgare|Maschalostachys markgrafii|Massa hanshi fermentata|Matricaria chamomilla|Matricaria suffruticosa|Matteuccia struthiopteris|Maytenus buxifolia|Maytenus canariensis|Maytenus emarginata|Maytenus guianensis|Maytenus laevis|Maytenus loevis|Maytenus obtusifolia|Maytenus salicifolia|Medicago monspeliaca|Megaceros flagellaris|Meiogyne virgata|Melaleuca leucadendra|Melaleuca quinquenervia|Melampodium cinereum|Melanelixia fuliginosa subsp. glabratula|Melanochyla caesia|Melastoma intermedium|Melia azedarach|Melia toosendan|Melianthus major|Melicope indica|Melicope latifolia|Melicope octandra|Melicope perspicuinervia|Melicope reticulata|Melicope semecarpifolia|Melicope ternata|Melicope triphylla|Melilotus indicus|Meliosma lanceolata|Melissa officinalis|Melodorum fruticosum|Meloidogyne incognita|Mentha canadensis|Mentha longifolia|Mentha spicata|Mercurialis leiocarpa|Mespilodaphne cymbarum|Mespilus germanica|Mesua elegans|Mesua ferrea|Metanarthecium luteoviride|Metarhizium indigoticum|Metatrichia vesparium|Methanosarcina barkeri|Methanothermobacter thermautotrophicus|Methylosinus trichosporium|Metrodorea flavida|Metrodorea nigra|Mezilaurus itauba|Microbiota decussata|Microglossa pyrifolia|Microgramma nitida|Micromelum falcatum|Micromelum integerrimum|Micromelum minutum|Microtropis fokienensis|Microtropis japonica|Mikania campanulata|Mikania glomerata|Mikania goyazensis|Mikania haenkeana|Mikania hoehnei|Mikania micrantha|Mikania microptera|Mikania minima|Mikania oblongifolia|Mikania stipulacea|Millettia brandisiana|Millettia conraui|Millettia pinnata|Mimosa rubicaulis|Mimusops elengi|Mirabilis himalaica|Mirabilis jalapa|Mirabilis jalpa|Mitchella repens|Mitrephora heyneana|Mitrephora tomentosa|Moghania macrophylla|Moghania strobilifera|Mollinedia costaricensis|Mollinedia marliae|Momordica Charantia|Momordica charantia|Momordica cochinchinensis|Monanthotaxis trichocarpa|Monascus pilosus|Monascus pilosus BCRC38072|Mondia whitei|Monochaetum vulcanicum|Monocyclanthus vignei|Monodora brevipes|Monodora undulata|Monomeria barbata|Monopteryx uaucu|Monotropa hypopitys|Monotropa uniflora|Montanoa guatemalensis|Montanoa karwinskii|Montanoa leucantha|Montanoa speciosa|Montanoa tomentosa|Monteverdia aquifolium|Monteverdia guyanensis|Monteverdia ilioppjfeowneviufheiuwfew fgr|Monteverdia laevis|Monteverdia truncata|Moquilea pyrifolia|Moraceae|Morella cerifera|Morella rubra|Morina kokanica|Morinda Citrifolia|Morinda citrifolia|Morinda citrifolia L|Morinda morindoides|Moringa oleifera|Moringa pterygosperma|Morus alba|Morus alba var. multicaulis|Morus insignis|Morus yunnanensis|Mosla dianthera|Mucor hiemalis|Mucuna membranacea|Mucuna urens|Muellera obtusa|Mulguraea tridens|Munronia delavayi|Munronia pinnata|Muntingia calabura|Muricea californica|Murraya euchrestifolia|Murraya koenigii|Murraya paniculata|Mussaenda macrophylla|Mutisia acerosa|Mycale laxissima|Mycale tenuis|Mycena viridimarginata|Mycetia nutans|Myelobia smerintha|Myelochroa rhytidodes|Myoporum platycarpum|Myrcia neopallens|Myriactis humilis|Myrianthus arboreus|Myrica cerifera|Myrica rubra|Myristica argentea|Myristica dactyloides|Myristica malabarica|Myrsine africana|Mytilus edulis|Nabalus trifoliolatus|Nageia nagi|Nageia wallichiana|Naja naja|Nandina domestica|Nannoglottis ravida|Nanodea muscosa|Narcissus concolor|Narcissus tazetta|Narcissus triandrus|Nardostachys jatamansi|Nassauvia pyramidalis|Nassauvia uniflora|Nasutitermes ephratae|Nauclea Orientalis|Nauclea diderrichii|Nauclea gambir|Nauclea officinalis|Nauclea orientalis|Naucleopsis caloneura|Nealchornea yapurensis|Nectandra hihua|Nectandra miranda|Nectandra oppositifolia|Nectandra puberula|Nectandra turbacensis|Nematochrysopsis marina|Neoboutonia glabrescens|Neoboutonia glabrescens Prain|Neoboutonia mannii|Neoboutonia melleri|Neochamaelea pulverulenta|Neoesperiopsis digitata|Neolitsea aciculata|Neolitsea acuminatissima|Neolitsea buisanensis|Neolitsea daibuensis|Neolitsea dealbata|Neolitsea hiiranensis|Neolitsea konishii|Neolitsea parvigemma|Neolitsea sericea|Neolitsea villosa|Neoraputia alba|Neoraputia magnifica|Nepeta caesarea|Nepeta eriostachya|Nepeta suavis|Nepeta tuberosa|Nephthea pacifica|Nerium oleander|Nervilia aragoana|Nervilia concolor|Nervilia plicata|Neuraputia magnifica|Neurolaena macrophylla|Neurospora santi-florii|Newbouldia laevis|Nicotiana alata|Nicotiana benthamiana|Nicotiana debneyi|Nicotiana forsteri|Nicotiana fragrans|Nicotiana glauca|Nicotiana paniculata|Nicotiana tabacum|Nigella sativa|Nonomuraea dietziae|Nothapodytes nimmoniana|Nothofagus pumilio|Notholaena lemmonii|Nothoscordum montevidense|Nymphaea alba|Nymphaea elegans|Nymphaea nouchali var. caerulea|Nymphaea odorata|Ochna calodendron|Ochradenus baccatus|Ochrocarpos odoratus|Ocimum basilicum|Ocimum spicatum|Oclemena acuminata|Ocotea argyrophylla|Ocotea catharinensis|Ocotea corymbosa|Ocotea foetens|Ocotea macrophylla|Ocotea pretiosa|Oenanthe javanica|Oenothera biennis|Oeosporangium kuhnii|Olea capensis|Olea europaea|Oleandra wallichii|Oncorhynchus keta|Onobrychis bobrovii|Onobrychis ebenoides|Ononis natrix|Ononis speciosa|Ononis viscosa|Onopordum ambiguum|Onopordum macrocanthum|Onychium japonicum|Onychium siliculosum|Oocephala staehelinoides|Oocystis polymorpha|Oophaga histrionica|Ophidiaster ophidianus|Ophiocoma echinata|Ophiocordyceps heteropoda|Ophiocordyceps sinensis|Ophiolepis superba|Ophiopogon intermedius|Ophiorrhiza kuroiwae|Ophiorrhiza liukiuensis|Ophiorrhiza pumila|Opuntia comonduensis|Opuntia ficus-indica|Opuntia humifusa|Opuntia humifusa humifusa|Opuntia vulgaris|Oreaster nodosus|Oreocnide frutescens|Oriastrum lycopodioides|Oriciopsis glaberrima|Oriciopsis glaberrima ENGL.|Ormosia coarctata|Ormosia dasycarpa|Ormosia elata|Ormosia hosiei|Ornithogalum montanum|Ornithopus sativus|Orobanche coerulescens|Oroxylum indicum|Orthopterygium|Orthosiphon aristatus|Orthosiphon aristatus var. aristatus|Orthosiphon grandiflorus|Orthosiphon stamineus|Oryza coarctata|Oryza sativa|Oscillatoria limosa|Oscillatoria princeps|Osmanthus fragrans|Osmanthus heterophyllus|Osmanthus ilicifolius|Osmanthus × fortunei|Osmitopsis osmitoides|Ostericum grosseserratum|Otanthus maritimus|Otoba parvifolia|Otostegia fruticosa|Ouratea semiserrata|Oxybasis rubra|Oxyceros horridus|Oxylobus arbutifolius|Oxytropis altaica|Oxytropis muricata|Oxytropis myriophylla|Ozoroa insignis|Ozothamnus obcordatus|Pachycereus tehuantepecanus|Pachygone dasycarpa|Pachylaena atriplicifolia|Pachyphragma macrophyllum|Pachysandra terminalis|Packera toluccana|Padina gymnospora|Padina vickersiae|Paederia Foetida|Paederia foetida|Paeonia anomala|Paeonia clusii|Paeonia emodi|Paeonia lactiflora|Paeonia rockii|Paeonia × suffruticosa|Palhinhaea cernua|Paliurus hemsleyanus|Pamburus missionis|Panax ginseng|Panax innovans|Panax pseudoginseng|Pancovia laurentii|Pandalus borealis|Panicum miliaceum|Panopsis sessilifolia|Panus rudis|Panzerina lanata|Papaver glaucum|Papaver macrostomum|Papaver persicum|Papaver pseudocanescens|Papaver rhoeas|Papilio phorcas|Paramignya monophylla|Paramyrothecium roridum|Paranephelius uniflorus|Parasenecio auriculata|Parasenecio auriculatus|Parasenecio hastata|Parastrephia lepidophylla|Pardachirus pavoninus|Parectatosoma mocquerysi|Parentucellia latifolia|Parinari campestris|Paris polyphylla var. chinensis|Parkia javanica|Parkinsonia aculeata|Parmelia damaziana|Parmelia gigas|Parmelia tinctina|Parmelia zollingeri|Parmentiera aculeata|Parmentiera cereifera|Parthenium hysterophorus|Parthenocissus tricuspidata|Paspalum scrobiculatum|Passiflora morifolia|Passiflora oerstedii|Pastinaca sativa|Patrinia rupestris|Patrinia scabiosifolia|Paullinia pinnata|Paullinia tomentosa|Pavetta indica|Pavonia alba|Pavonia schiedeana|Pecten irradians|Pectinophora gossypiella|Pedalium murex|Pedilanthus Tithymaloides|Pedilanthus tithymaloides|Pelargonium reniforme|Pelargonium sidoides|Pelea madagascarica|Pellia epiphylla|Pellia neesiana|Peltogyne confertiflora|Peltogyne venosa|Peltophorum dubium|Peltostigma guatemalense|Penianthus zenkeri|Penicilliopsis clavariiformis|Penicillium abidjanum|Penicillium cinerascens|Penicillium daleae|Penicillium implicatum|Penicillium solitum|Penstemon confertus|Pentacalia streptothamna|Pentaceraster regulus|Pentzia calva|Peperomia heyneana|Peperomia humilis|Peperomia leptostachya|Peperomia pellucida|Perenniporia ochroleuca|Pereskia aculeata|Periconia atropurpurea|Perilla frutescens|Periploca aphylla|Periploca forrestii|Periploca laevigata|Periploca sepium|Peritassa campestris|Perovskia atriplicifolia|Perrottetia arisanensis|Persea americana|Persea mexicana|Persica vulgaris|Persicaria hydropiper|Persicaria pubescens|Persicaria stagnina|Peschiera affinis|Pestalotiopsis guepinii|Pestalotiopsis virgatula|Petalostemon purpureum|Petasites formosanus|Petasites georgicus|Petasites tricholobus|Peteravenia malvaefolia|Peteravenia schultzii|Petersianthus macrocarpus|Petiveria alliacea|Petrosia corticata|Petrosia durissima|Petrosia ficiformis|Petrosia hebes|Petrosia similis|Petteria ramentacea|Petunia nyctaginiflora|Peucedanum alsaticum|Peucedanum oroselinum|Peucedanum ruthenicum|Peyronellaea glomerata|Pfaffia iresinoides|Pfaffia pulverulenta|Phagnalon purpurascens|Phallusia nigra|Phanera retusa|Pharbitis nil|Phascolosoma vulgare|Phaseolus vulgaris|Phebalium dentatum|Phebalium ozothamnoides|Phedimus kamtschaticus|Phegopteris subaurita|Phellodendron Amurense|Phellodendron amurense var. wilsonii|Phellodendron amurense var.wilsonii|Phellodendron chinense|Phellodendron chinense var. glabriusculum|Phellodendron japonicum MAXIM|Phenax angustifolius|Phlebodium decumanum|Phleum africanum|Phlogacanthus thyrsiflorus|Phlogacanthus tubiflorus|Phlomis crinita|Phlomis regelii|Phlomoides hamosa|Phlomoides ostrowskiana|Phoebe grandis|Phoenix canariensis|Phoenix dactylifera|Pholidota yunnanensis|Phora atra|Phora gregaria|Phoradendron reichenbachianum|Phormia regina|Phormidium sp|Phormium cookianum|Phormium tenax|Photinia lucida|Phyfnnvik eyyfn|Phyllanthus Reticulatus|Phyllanthus emblica|Phyllanthus flexuosus|Phyllanthus niruri|Phyllanthus oligospermus|Phyllanthus oxyphyllus|Phyllanthus puberus|Phyllanthus reticulatus|Phyllanthus sellowianus|Phyllanthus sphaerogynus|Phyllanthus urinaria|Phyllanthus watsonii|Phyllidia ocellata|Phyllostachys edulis|Physalis coztomatl|Physalis lagascae|Physalis minima|Physalis peruviana|Physalis pubescens|Physalis sordida|Physarum polycephalum|Physocarpus intermedius|Physochlaina physaloides|Physostigma venenosum|Phytolacca acinosa|Phytolacca dioica|Picea jezoensis|Picea mariana|Picea neoveitchii|Picea obovata|Picradeniopsis pringlei|Picradeniopsis schaffneri|Picradeniopsis xylopoda|Picramnia P. Antidesma|Picramnia antidesma|Picramnia hirsuta|Picramnia latifolia|Picramnia sellowii|Picramnia teapensis|Picrolemma|Pieris japonica|Pieris japonica D.Don.|Pierreodendron kerstingii|Pilocarpus grandiflorus|Pimpinella thellungiana|Pinalia spicata|Pinellia pedatisecta|Pinellia ternata|Pinus armandi|Pinus austriaca|Pinus edulis|Pinus luchuensis|Pinus sibirica|Pinus sitchensis|Pinus sylvestris|Pinus taeda|Pinus thunbergii|Pinus wallichiana|Piper Betle|Piper Nigrum|Piper Retrofractum|Piper acutifolium|Piper acutisleginum|Piper aduncum|Piper aleyreanum|Piper amalago|Piper arboreum|Piper attenuatum|Piper auritum|Piper betle|Piper brachystachyum|Piper decurrens|Piper divaricatum|Piper elongatum|Piper falconeri|Piper futokadsura|Piper hispidum|Piper hostmannianum|Piper khasiana|Piper khasianum|Piper lolot|Piper longum|Piper marginatum|Piper mullesua|Piper neesii|Piper nigrum|Piper nigrum L.|Piper pedicellatum|Piper pedicellosum|Piper peepuloides|Piper philippinum|Piper puberulum|Piper retrofractum|Piper retrofractum Vahl.|Piper ribesioides|Piper sarmentosum|Piper schmidtii|Piper sintenense|Piper solmsianum|Piper sumatranum|Piper sylvaticum|Piper thomsoni|Piper thomsonii|Piper umbellatum|Piper wallichii|Piptadenia macrocarpa|Piptocarpha opaca|Piptostigma fugax|Piptostigma glabrescens|Pisonia aculeata|Pisum sativum|Pittosporum brevicalyx|Pittosporum tobira|Pittosporum viridiflorum|Plagiochila acanthophylla|Plagiomnium cuspidatum|Plagius maghrebinus|Plakinastrella clathrata|Plakobranchus ocellatus|Plakortis lita|Plantago asiatica|Plantago cornuti|Plantago major|Plantago ovata|Plantago uniflora|Platostoma palustre|Platycladus orientalis|Platycodon grandiflorum|Platycodon grandiflorus|Platymiscium praecox|Platypodium elegans|Plazia daphnoides|Plectocephalus chilensis|Plectosphaerella cucumerina|Plectranthus hereroensis|Plectranthus lanuginosus|Plectranthus nummularius|Plectranthus rugosus|Plectranthus sylvestris|Pleione bulbocodioides|Pleione yunnanensis|Plenckia populnea|Pleodendron costaricense|Pleurolobus gangeticus|Pleurostylia opposita|Pleurotus citrinopileatus|Pleurotus eryngii|Pleurotus ostreatus|Pleurozia gigantea|Plexaurella grisea|Ploiarium alternifolium|Ploiarium elegans|Pluchea indica|Pluchea lanceolata|Pluchea odorata|Pluchea sericea|Plumbago Zeylanica|Plumbago indica|Plumbago scandens|Plumbago zeylanica|Plumeria|Plumeria obtusa|Poacynum venetum|Pocillopora eydouxi|Podadenia thwaitesii|Podocarpus amarus|Podocarpus blumei|Podocarpus lambereis|Podocarpus sellowii|Podophyllum hexandrum|Podophyllum peltatum|Podophyllum versipelle|Podospora curvicolla|Pogostemon cablin|Pogostemon parviflorus|Poinsettia pulcherrima|Polyalthia longifolia var.pendula|Polyalthia suberosa|Polycephalomyces nipponicus|Polygala aureocauda|Polygonatum stenophyllum|Polygonum|Polygonum bistorta|Polygonum cognatum|Polygonum glaucum|Polygonum maritimum|Polypodium aureum|Polypodium decumanum|Polypodium virginianum|Polypodium vulgare|Polyporus confluens|Polyscias bracteata|Polytrichum commune|Polyzoa opuntia|Poncirus trifoliata|Pongamia pinnata|Pontederia cordata|Populus angustifolia|Populus euphratica|Populus nigra|Populus pseudosimonii|Populus tremula|Populus tremuloides|Populus yunnanensis|Poraqueiba guianensis|Porophyllum riedelii|Portulaca oleracea|Portulaca pilosa|Posidonia australis|Posidonia oceanica|Postia guttulata|Potamogeton malaianus|Potentilla argentea|Potentilla erecta|Potentilla fruticosa|Potentilla multifida|Pourouma guianensis|Pourthiaea arguta|Pouteria caimito|Pouzolzia occidentalis|Premna odorata|Prenanthes trifoliolata|Primula denticulata|Primula macrophylla|Primulina hedyotidea|Prismatomeris tetrandra|Propylea quatuordecimpunctata|Prorocentrum micans|Prosopis alpataco|Prosopis cineraria|Prosopis denudans|Prosopis glandulosa|Prosopis spicigera|Protium heptaphyllum|Protohermes grandis|Prototheca zopfii|Prumnopitys ferruginoides|Prunella vulgaris|Prunus africana|Prunus amygdalus|Prunus armeniaca|Prunus avium|Prunus cerasoides|Prunus cornuta|Prunus dulcis|Prunus laurocerasus|Prunus mahaleb|Prunus mume|Prunus padus|Prunus persica|Prunus prostrata|Prunus pseudocerasus|Prunus puddum|Prunus samydoides|Prunus serrulata|Prunus sibirica|Prunus ssiori|Prunus zippeliana|Psacalium megaphyllum|Pseudoalteromonas luteoviolacea|Pseudocedrela kotschyi|Pseudocodon convolvulaceus|Pseudocyphellaria australiensis|Pseudocyphellaria coronata|Pseudocyphellaria rubella|Pseudognaphalium cheiranthifolium|Pseudognaphalium lanuginosum|Pseudognaphalium pellitum|Pseudognaphalium schraderi|Pseudognaphalium viscosum|Pseudomonas putida|Pseudomonas syringae|Pseudophegopteris subaurita|Pseudoscleropodium purum|Pseudosophora alopecuroides|Pseudostellaria heterophylla|Pseudotaxus chienii|Pseudotsuga japonica|Pseudotsuga sinensis var. sinensis|Pseudotsuga sinensis var. wilsoniana|Pseudotsuga wilsoniana|Pseudowintera colorata|Pseudoxandra sclerocarpa|Pseuduvaria indochinensis|Psidium acutangulum|Psidium cattleyanum|Psidium guajava|Psilopeganum sinense|Psilostrophe tagetina|Psilostrophe villosa|Psilotum nudum|Psittacanthus cucullaris|Psophocarpus tetragonolobus|Psoralea acaulis|Psychotria Adenophylla|Psychotria adenophylla|Psydrax livida|Ptelea crenulata|Pteridium Aquilinum|Pteridium aquilinum|Pteris ensiformis|Pteris multifida|Pteris pacifica|Pteris setuloso-costulata|Pteris wallichiana|Pterocarpus macrocarpus|Pterocarpus marsupium|Pterocarpus santalinus|Pterocaulon polystachyum|Pterodon apraricioi|Pterogyne nitens|Pteromys volans|Pterospermum xylocarpum|Pteryxia terebinthina|Ptilidium pulcherrimum|Pueraria montana var. lobata|Pulicaria angustifolia|Pulicaria arabica|Pulicaria crispa|Pulicaria gnaphalodes|Pulicaria incisa|Pulicaria mauritanica|Pulicaria wightiana|Pullularia pullulans|Punica granatum|Pycnothymus rigidus|Pyrus bourgaeana|Pyrus pashia|Pyrus x bretschneideri|Qualea labouriauana|Quercus glauca|Quercus glauca Thunb.|Quercus ilex|Quercus imbricaria|Quercus incana|Quercus laurifolia|Quercus leucotrichophora|Quercus macrocarpa|Quercus microphylla|Quercus myrsenaefolia|Quercus myrsinaefolia|Quercus oblongata|Quercus robur|Quercus rotundifolia|Quercus salicina|Quercus stenophylla Makino.|Quercus suber|Rabdosia weisiensis|Radermachera sinica|Radula complanata|Radula kojana|Ramalina africana|Ramalina hierrensis|Ramuius wallichii seu puberulii|Ranunculus bulbosus|Ranunculus sceleratus|Ranunculus silerifolius|Raphanus sativus|Rathayibacter rathayi|Ratibida columnifera|Rauia resinosa|Raulinoa echinata|Rauvolfia mattfeldiana|Rauvolfia salicifolia|Rauvolfia serpentina|Rauvolfia vomitoria|Reinwardtiodendron anamalaiense|Reissantia buchananii|Relhania acerosa|Reniera cratera|Retama raetam|Retanilla trinervia|Reticulitermes flavipes|Retrophyllum rospigliosii|Rhamnus cathartica|Rhamnus formosana|Rhamnus saxatilis|Rhamnus wightii|Rhaponticoides africana|Rhaponticum repens|Rheedia gardneriana|Rheum|Rheum hotaoense|Rhinacanthus nasutus|Rhinella arenarum|Rhinella icterica|Rhizophagus intraradices|Rhizophora apiculata|Rhizophora mangle|Rhizophora mucronata|Rhizophora tagal|Rhizoplaca baranowii|Rhizopus japonicus|Rhizosolenia setigera|Rhodanthe maryonii|Rhodiola crenulata|Rhodiola kirilowii|Rhodiola linearifolia|Rhodiola rosea|Rhodiola sinuata|Rhododendron aureum|Rhododendron barbatum|Rhododendron campylocarpum|Rhododendron catawbiense|Rhododendron ellipticum|Rhododendron formosanum|Rhododendron fulgens|Rhododendron groenlandicum|Rhododendron latoucheae|Rhododendron ledebourii|Rhododendron macrophyllum|Rhododendron mucronulatum|Rhododendron ovatum|Rhododendron ponticum|Rhododendron tomentosum|Rhododendron veitchianum|Rhus chinensis|Rhus sylvestris|Rhus wallichi|Rhyzophlyctis rosea|Richardia grandiflora|Robinsonecio gerberifolius|Roemeria refracta|Rogeria adenophylla|Rohdea wattii|Rolandra fruticosa|Rosa mutiflora|Rosa taiwanensis|Rosa transmorrisonensis|Rostrinucula dependens|Rothmannia macrophylla|Rothmannia urcelliformis|Rourea santaloides|Rubia Cordifolia|Rubia cordifolia L.|Rubia wallichiana|Rubia wallichiana DECNE|Rubia yunnanensis|Rubrivivax gelatinosus|Rubus allegheniensis|Rubus chingii|Rubus chingii var. suavissimus|Rubus coreanus|Rubus ellipticus|Rubus foliolosus|Rubus idaeus|Rubus laciniatus|Rubus niveus|Rubus pileatus|Rubus rosa|Rubus rosaefolius|Rubus rosifolius|Rudbeckia hirta var. pulcherrima|Rudbeckia mollis|Rudbeckia subtomentosa|Rudgea jasminoides|Ruellia Tuberosa|Ruellia tuberosa|Rumex maritimus|Rumex paulsenianus|Ruppia maritima|Ruscus hypoglossum|Russian comfrey|Ruta graveolens|Ruta microcarpa|Ruta pinnata|Rutaceae|Rydingia limbata|Sabal causiarum|Sabia parviflora|Saccharomyces cerevisiae|Saccharothrix mutabilis subsp. capreolus|Saguinus oedipus|Salacia beddomei|Salix babylonica|Salix cheilophila|Salix sachalinensis|Salmea scandens|Salpa thompsoni|Salsola collina|Salta triflora|Salvia|Salvia abrotanoides|Salvia aegyptiaca|Salvia aethiopis|Salvia amplexicaulis|Salvia amplexicaulis Lam.|Salvia aspera|Salvia broussonetii|Salvia bucharica|Salvia caespitosa|Salvia canariensis L.|Salvia candelabrum|Salvia cardiophylla|Salvia carduacea|Salvia ceratophylla|Salvia cyanescens|Salvia divaricata|Salvia divinorum|Salvia dorrii|Salvia eriophora|Salvia fruticosa|Salvia fulgens|Salvia glutinosa|Salvia hians|Salvia hispanica|Salvia horminum|Salvia hydrangea|Salvia hypargeia|Salvia kronenburgii|Salvia lasiantha|Salvia lavanduloides|Salvia limbata|Salvia lineata|Salvia macrosiphon|Salvia melissodora|Salvia mellifera|Salvia microphylla|Salvia miltiorrhiza|Salvia miniata|Salvia montbretii|Salvia moorcroftiana|Salvia multicaulis|Salvia munzii|Salvia nemorosa|Salvia nicolsoniana|Salvia officinalis|Salvia palaestina|Salvia parryi|Salvia polystachya|Salvia pomifera|Salvia prionitis|Salvia przewalskii|Salvia puberula|Salvia reflexa|Salvia regla|Salvia reptans|Salvia rhyacophila|Salvia sahendica|Salvia sapinea|Salvia sclarea|Salvia sclareoides|Salvia staminea|Salvia syriaca|Salvia syriaca L.|Salvia tchihatcheffii|Salvia thymoides|Salvia tiliaefolia|Salvia tomentosa|Salvia tonalensis|Salvia trijuga|Salvia triloba|Salvia verticillata|Salvia × sylvestris|Sambucus adnata|Sambucus canadensis|Sambucus chinensis|Sambucus nigra.|Sandoricum koetjape|Sanguinaria canadensis|Sanguisorba alpina|Sanicula epipactis|Sansevieria cylindrica|Sansevieria ehrenbergii|Santol|Santolina rosmarinifolia|Sapium rigidifolium|Saposhnikovia divaricata|Sapranthus palanga|Saraca asoca|Sarcococca hookeriana|Sarcococca vagans|Sarcomyxa serotina|Sarcophyton latum|Sarcopoterium spinosum|Sargentodoxa Cuneata|Sargentodoxa cuneata|Sarocladium zeae|Sarracenia flava|Sarracenia purpurea|Sassafras randaiense|Satureja montana|Saurauia excelsa|Sauromatum giganteum|Saururus cernuus|Saussurea controversa|Saussurea cordifolia|Saussurea hieracioides|Saussurea involucrata|Saussurea japonica|Saussurea laniceps|Saussurea muliensis|Saussurea neopulchella|Saussurea parviflora|Saussurea superba|Saussurea triangulata|Saxidomus giganteus|Saxifraga stolonifera|Scabiosa comosa|Scabiosa soongorica|Scaevola spinescens|Scapania aequiloba|Scaphium affine|Scarlet firethorn|Schefflera bodinieri|Schefflera rhododendrifolia|Schisandra bicolor|Schisandra lancifolia|Schisandra propinqua|Schisandra sphaerandra|Schizanthus tricolor|Schleichera Oleosa|Schleichera oleosa|Schleichera trijuga|Schlumbergera bridgesii|Schlumbergera truncata|Schnabelia tetradonta|Schnella guianensis|Schrebera swietenoides|Scleromitrion diffusum|Scleropyrum Wallichianum|Scleropyrum pentandrum|Scleropyrum wallichianum|Scolopia spinosa|Scopolia atropoides|Scorzonera hispanica|Scorzonera laciniata|Scorzoneroides autumnalis|Scrophularia Ningpoensis|Scrophularia buergeriana|Scrophularia koelzii|Scrophularia leucoclada|Scrophularia ningpoensis|Scutellaria altissima|Scutellaria amoena|Scutellaria baicalensis|Scutellaria columnae|Scutellaria lateriflora|Sea peach|Searsia thyrsiflora|Sebastiania schottiana|Securigera securidaca|Sedum forsteri|Sedum sarmentosum|Selaginella labordei|Selaginella tamariscina|Selenicereus undatus|Selinum carvi|Selinum carvifolia|Selliguea moulmeinensis|Semecarpus anacardium|Semenovia|Semiaquilegia adoxoides|Senecio chionophilus|Senecio coahuilensis|Senecio densiflorus|Senecio dryophyllus|Senecio gilliesi|Senecio glastifolius|Senecio glutinosus|Senecio grandiflorus|Senecio heliopsis|Senecio hygrophilus|Senecio lyratus|Senecio madagascariensis|Senecio othonniformis|Senecio roseus|Senecio scandens|Senecio tauricola|Senecio tauricolus|Senecio viravira|Senecio viscosus|Senegalia catechu|Senna alata|Senna auriculata|Senna corymbosa|Senna didymobotrya|Senna italica|Senna macranthera|Senna multijuga|Senna obtusifolia|Senna petersiana|Senna polyantha|Senna racemosa|Senna reticulata|Senna siamea|Senna singueana|Senna sophera|Senna spectabilis var. spectabilis|Sequoia sempervirens|Serenoa repens|Serenoa sp.|Serjania confertiflora|Serratula tinctoria|Serratula xeranthemoides|Sesamum alatum|Sesamum angustifolium|Sesamum orientale|Sesamum radiatum|Seseli buchtormense|Seseli cuneifolium|Seseli grandivittatum|Seseli tortuosum LBS.Eur.|Sesuvium portulacastrum|Setaria glauca|Setaria italica|Severinia buxifolia|Shirakiopsis elliptica|Shorea maranti|Shorea robusta|Sickingia rubra|Sida veronicaefolia|Sideritis argosphacelus|Sideritis argosphacelus var. spicata|Sideritis canariensis|Sideritis candicans|Sideritis candicans var.eriocephala|Sideritis cystosiphon|Sideritis dasygnaphala|Sideritis dendro-chahorra|Sideritis discolor|Sideritis ferrensis|Sideritis kuegleriana|Sideritis lotsyi|Sideritis lotsyi var. mascaensis|Sideritis macrostachyos|Sideritis perfoliata|Sideritis soluta|Sideritis syriaca|Sideritis taurica|Sideritis tenoi|Siegesbeckia orientalis|Siegesbeckia pubescens|Sigesbeckia glabrescens|Sigesbeckia pubescens|Sigillina signifera|Simaba cuneata|Simarouba versicolor|Simplicillium lanosoniveum|Simsia cronquistii|Sinacalia tangutica|Sinapis alba|Sinapis arvensis|Sinapis nigra|Sindora sumatrana|Sinomenium acutum|Sinopodophyllum hexandrum|Sinularia depressa|Sinularia inelegans|Sinularia leptoclados|Sinularia manaarensis|Siphocampylus verticillatus|Siphonaria normalis|Siphonaria pectinata|Siphoneugena densiflora|Siphonoglossa sessilis|Siphonostegia chinensis|Sipunculus nudus|Skimmia japonica|Skimmia laureola|Skimmia wallachii|Smilax China|Smilax china|Smilax glabra|Smilax lanceaefolia|Smooth hawksbeard|Smyrnium cordifolium|Smyrnium galaticum|Smyrnium olusatrum|Smythea bombaiensis|Solanum Tuberosum|Solanum aethiopicum|Solanum americanum|Solanum andigena|Solanum argentinum|Solanum arundo|Solanum asperum|Solanum aviculare|Solanum cardiophyllum|Solanum caudatum|Solanum chacoense Bitt.|Solanum curtipes|Solanum dasyphyllum|Solanum diflorum|Solanum dulcamara|Solanum euacanthum|Solanum glaucophyllum|Solanum hirtum|Solanum incanum|Solanum jasminoides|Solanum lanceolatum|Solanum lasiocarpum|Solanum laxum|Solanum lycopersicum|Solanum mammosum|Solanum melongena|Solanum nigrum|Solanum olgae|Solanum palitans|Solanum pseudocapsicum|Solanum sisymbriifolium|Solanum torvum|Solanum transcaucasicum|Solanum trilobatum|Solanum tuberosum|Solanum tuberosum L.|Solanum violaceum|Solanum virginianum|Solenostemma argel|Solenostemma oleifolium|Solidago leavenworthii|Solidago petiolaris|Solidago puberula|Solidago rugosa|Solidago sempervirens|Sonchus arvensis|Sonchus macrocarpus|Sonchus neriifolius|Sonneratia alba|Sophora Japonica|Sophora alopecuroides|Sophora japonica L.|Sophora leachiana|Sophora mollis|Sophora viciifolia|Sorbus aucuparia|Sordaria araneosa|Sorghum bicolor|Soroseris hookeriana|Soymida febrifuga|Sparganium stoloniferum|Spartina cynosuroides|Spartium junceum|Speranskia tuberculata|Sphaeranthus confertifolius|Sphaeranthus suaveolens|Sphaerella rubella|Sphaerophysa salsula|Spheciospongia vagabunda|Sphenoclea zeylanica|Spilanthes ocymifolia|Spilanthes paniculata|Spiracantha cornifolia|Spiraea formosana|Spongia bilamellata|Spongionella gracilis|Stachys annua|Stachys lavandulifolia|Stachys plumosa|Stachys recta|Staehelina fruticosa|Stangeria eriopus|Staphisagria macrosperma|Stauranthus perforatus|Stellaria dichotoma|Stellaria media|Stellera chamaejasme|Stelodoryx chlorophylla|Stemodia foliosa|Stenocarpella macrospora|Stenocarpella maydis|Stephania sasakii|Stephania sinica|Stephania sutchuenensis|Stephania tetrandra|Stereocaulon azoreum|Stereospermum kunthianum|Stevia jujuyensis|Stevia lemmoni|Stevia monardifolia|Stevia polycephala|Stevia serrata|Sticta santessonii|Stizophyllum riparium|Stolonica socialis|Strachybotrys alternans|Streblus asper|Streptococcus pneumoniae|Streptomyces anulatus|Streptomyces argenteolus|Streptomyces atratus|Streptomyces aurantiacus|Streptomyces avermectinius|Streptomyces caelestis|Streptomyces caespitosus|Streptomyces chryseus|Streptomyces erythrochromogenes|Streptomyces fradiae|Streptomyces globisporus|Streptomyces griseocarneus|Streptomyces maritimus|Streptomyces melanogenes|Streptomyces naraensis|Streptomyces netropsis|Streptomyces noursei|Streptomyces platensis|Streptomyces purpurogeneiscleroticus|Streptomyces ramocissimus|Streptomyces sclerotialus|Streptomyces sulfonofaciens|Streptomyces xanthochromogenes|Streptomyces xanthocidicus|Striga asiatica|Striga lutea|Strobilanthes dimorphotricha|Strobilanthes pentstemonoides|Strobilanthes psilostachys|Strobilanthes yunnanensis|Strobilomyces floccopus|Strophanthus hispidus|Strychnos aculeata|Strychnos amazonica|Strychnos dolichothyrsa|Strychnos dolychothyrsa|Strychnos fendleri|Strychnos henningsii|Strychnos nitida|Strychnos potatorum|Strychnos spinosa|Stylotrichium rotundifolium|Stypandra imbricata|Styphnolobium japonicum|Styrax ferrugineus|Styrax formosanus|Styrax japonicus|Suaeda maritima|Suillus bovinus|Suregada lanceolata|Suregada multiflora|Swamp dewberry|Swartzia apetala|Swartzia simplex|Swertia franchetiana|Swertia verticillifolia|Symphonia globulifera|Symphoricarpos albus|Symphyotrichum novi-belgii var. novi-belgii|Symphyotrichum subulatum var. squamatum|Symphytum asperum|Symphytum officinale|Symphytum tuberosum|Symplocarpus foetidus|Symplocos Racemosa|Symplocos racemosa|Syncolostemon parviflorus|Synedrellopsis grisebachii|Synsepalum dulcificum|Syphonota geographica|Syringa reticulata|Syringantha coulteri|Syzygium aromaticum|Syzygium grande|Syzygium kurzii|Syzygium nervosum|Syzygium samarangense|Syzygium siamense|Tabebuia aurea|Tabebuia ochracea|Tabebuia rosea|Tabernaemontana divaricata|Tabernaemontana heterophylla|Tabernaemontana laeta|Tabernaemontana pachysiphon|Tacca plantaginea|Tachigali paniculata|Tadehagi triquetrum|Tadorna ferruginea|Taenitis|Tagetes erecta|Taiwanofungus camphoratus|Talaromyces helicus|Talinum fruticosum|Talipariti tiliaceum|Tamarindus indica|Tamarix gallica|Tambja ceutae|Tamus communis|Tamus communis L.|Tanacetum argenteum|Tanacetum artemisioides|Tanacetum balsamitoides|Tanacetum chiliophyllum|Tanacetum densum|Tanacetum longifolium|Tanacetum parthenium|Tanacetum sinaicum|Tanacetum vulgare|Tapinoma erraticum|Tapirira guianensis|Taraxacum borealisinense|Taraxacum formosanum|Taraxacum hallaisanense|Taraxacum mongolicum|Taraxacum platycarpum|Taraxacum wallichii|Taricha granulosa|Taro|Taxodium lanceolata|Taxus Wallichiana|Taxus baccata|Taxus brevifolia|Taxus canadensis|Taxus cuspidata|Taxus floridana|Taxus mairei|Taxus wallichiana|Tecoma pentaphylla|Tecoma stans|Tectaria heracleifolia|Tectona grandis|Telekia speciosa|Tephroseris kirilowii|Tephrosia Purpurea|Tephrosia apollinea|Tephrosia bidwilli|Tephrosia bracteolata|Tephrosia candida|Tephrosia carrollii|Tephrosia crassifolia|Tephrosia egregia|Tephrosia leiocarpa|Tephrosia madrensis|Tephrosia major|Tephrosia odorata|Tephrosia pentaphylla|Tephrosia polyphylla|Tephrosia purpurea|Tephrosia tepicana|Tephrosia uniflora|Tephrosia villosa|Tephrosia viridiflora|Tephrosia watsoniana|Terminalia alata|Terminalia arjuna|Terminalia brassii|Terminalia complanata|Terminalia glabrescens|Terminalia impediens|Terminalia pallida|Terminalia superba|Ternstroemia Gymnanthera|Ternstroemia gymnanthera|Tessaria dodoneaefolia|Tetracentron sinense|Tetradium daniellii|Tetradium glabrifolium|Tetragonia tetragonoides|Tetraneuris linearifolia|Tetrapanax papyrifer|Teucrium alyssifolium|Teucrium chamaedrys|Teucrium divaricatum|Teucrium fragile|Teucrium heterophyllum|Teucrium nuchense|Teucrium orientale|Teucrium pilosum|Thalia multiflora|Thalictrum aquilegiifolium|Thalictrum pubescens|Thalysias juniperina|Thapsia tenuifolia|Thapsia villosa|Thelepus setosus|Theobroma grandiflorum|Theobroma speciosum|Theobroma sylvestre|Theonella cupola|Thermopsis mollis|Thevetia Peruviana|Thevetia peruviana|Thielavia terricola|Thomandersia laurifolia|Thuja dolabrata|Thuja occidentalis|Thujopsis dolabrata|Thujopsis dolabrata var. dolabrata|Thulinella chrysantha|Thymus piperella|Thynnus thynnus|Thyrsanospermum diffusum|Tichocarpus crinitus|Ticorea longiflora|Tilia americana|Tilia tomentosa|Tillandsia brachycaulos|Tillandsia fasciculata|Tillandsia streptocarpa|Tinomiscium petiolare|Tinospora cordifolia|Tinospora sinensis|Tipuana tipu|Tithonia longiradiata|Tithonia rotundifolia|Todaroa aurea|Toddalia asiatica|Tolypocladium ophioglossoides|Tolypothrix byssoidea|Toona ciliata|Toona sinensis|Tornabea scutellifera|Torreya grandis|Tovomita brasiliensis|Tovomita choisyana|Tovomita excelsa|Tovomita fructipendula|Toxicodendron sylvestre|Toxicodendron wallichii|Trachelospermum lucidum|Tragopogon orientalis|Tragopogon pratensis|Trapa bicornis|Trattinnickia rhoifolia|Trema micrantha|Trema orientale|Triadica sebifera|Trianthema portulacastrum|Tribulus Terrestris|Tribulus alatus|Tribulus terrestris|Tricalysia okelensis|Trichadenia zeylanica|Trichilia|Trichilia claussenii|Trichilia estipulata|Trichilia havanensis|Trichilia hirta|Trichilia lepidota|Trichilia rubescens|Trichilia schomburgkii|Trichoderma citrinum|Trichoderma vinosum|Trichosanthes Kirilowi|Trichosanthes kirilowii|Trichosanthes rosthornii|Tridax procumbens|Tridentata marginata|Trifoliate orange|Trifolium hybridum|Trifolium montanum|Trifolium repens|Trifolium strepens|Triglochin maritima|Trigonella balansae|Trigonella caerulea|Trigonella calliceras|Trigonella corniculata|Trigonella cretica|Trigonella foenum-graceum|Trigonella foenum-graecum|Trikentrion flabelliforme|Tripetaleia paniculata|Tripterospermum lanceolatum|Tripterygium hypoglaucum|Tripterygium wilfordii|Triticum aestivum|Triticum sp.|Triticum spp.|Triumfetta rhomboidea|Triumfetta semitriloba|Triunia erythrocarpa|Trixis grisebachii|Trixis praestans|Trollius chinensis|Tsitsikamma favus|Tsuga chinensis|Tuber melanosporum|Tulipa sylvestris|Tupistra chinensis|Tussilago farfara|Tydemania expeditionis|Tylophora tanakae|Tylopilus neofelleus|Tylosema esculentum|Typha angustata|Typha angustifolia|Typha domingensis|Typha latifolia|Typha orientalis|Udotea petiolata|Ulmus davidiana|Ulva lactuca|Ulva linza|Ulva rigida|Umbilicaria cinereorufescens|Uncaria elliptica|Uncaria macrophylla|Uncaria sinensis|Ungernia minor|Ungernia victoris|Unonopsis guatterioides|Urceola rosea|Urceolaria bryophila|Urceolaria scruposa|Urera|Uresiphita reversalis|Ursinia anthemoides|Ursinia nana|Ursinia rigidula|Urtica dioica|Urtica fissa|Urtica triangularis|Uruparia pilosa|Utricularia vulgaris|Uvaria concava|Uvaria hookeri|Uvaria kirkii|Uvaria lucida|Uvaria mocoli|Uvaria narum|Uvaria puguensis|Uvaria scheffleri|Vaccinium macrocarpon|Vaccinium myrtillus|Vachellia jacquemontii|Vachellia karroo|Vachellia pennatula|Vahlia capensis|Valeriana officinalis|Valeriana rossica|Valeriana wolgensis|Vallaris heynei|Vanilla planifolia|Vanilla tahitensis|Vatica cinerea|Vatica oblongifolia|Vellozia declinans|Vellozia nanuzae|Vellozia piresiana|Vellozia pusilla|Vellozia stipitata|Vellozia streptophylla|Veltheimia viridifolia|Venidium hirsutum|Vepris glaberrima|Veratrum eschscholtzii|Veratrum formosanum|Verbascum spinosum|Verbascum thapsus|Verbena brasiliensis|Verbena brasiliensis VELL|Verbena officinalis|Verbesina luetzelburgii|Verbesina myriocephala|Vernicia fordii|Vernonanthura chamaedrys|Vernonanthura discolor|Vernonanthura divaricata|Vernonanthura montevidensis|Vernonanthura nudiflora|Vernonanthura phosphorica|Vernonanthura polyanthes|Vernonanthura squamulosa|Vernonia arkansana|Vernonia aurea|Vernonia chloropappa|Vernonia fasciculata|Vernonia galamensis|Vernonia incana|Vernonia leopoldi|Vernonia lilacina|Vernonia mollissima|Vernonia polyantha|Vernonia scorpioides|Vernonia tufnellae|Veronica austriaca|Veronica cupressoides|Veronica liwanensis|Vibrio fluvialis|Viburnum cylindricum|Viburnum davidii|Viburnum dilatatum|Viburnum furcatum|Viburnum jucundum|Viburnum opulus|Viburnum wrightii|Vicoa vestita|Vigna angularis|Viguiera dentata|Viguiera incana|Viguiera oblongifolia|Viguiera pinnatilobata|Vincetoxicum mongolicum|Vincetoxicum versicolor|Viola formosana|Viola odorata|Viola yedoensis|Virola caducifolia|Virola calophylla|Virola carinata|Virola divergens|Virola elongata|Virola melinonii|Virola michelii|Virola multinervia|Virola pavonis|Virola peruviana|Virola sebifera|Virola surinamensis|Virola venosa|Viscum album|Viscum coloratum|Vismia baccifera|Vismia cayennensis|Vismia guianensis|Vismia japurensis|Vismia martiana|Vismia micrantha|Vismia parviflora|Vitex Trifolia|Vitex negundo|Vitex negundo var. cannabifolia|Vitex peduncularis|Vitex quinata|Vitex trifolia|Vitis vinifera|Vladimiria muliensis|Vochysia divergens|Vouacapoua macropetala|Vouacapoua pallidior|Vulpicida juniperinus|Walsura chrysogyne|Walsura trifoliolata|Water net|Watersipora cucullata|Wedelia prostrata|Wendlandia tinctoria|West African Pepper|Wettsteinia inversa|White sapote|Wiesnerella denudata|Wikstroemia chamaedaphne|Wikstroemia lanceolata|Wikstroemia retusa|Wisteria floribunda|Withania somnifera|Witheringia solanacea|Woodsia manchuriensis|Woodsia scopulina|Woodwardia radicans|Wrightia tinctoria|Wulfenia orientalis|Xanthium canadense|Xanthium catharticum|Xanthium sibiricum|Xanthium strumarium|Xanthogalum sachokianum|Xanthosoma robustum|Xerotus discolor|Xylocarpus granatum|Xylocarpus moluccensis|Xylonagra arborea|Xylopia aethiopica|Xylopia aromatica|Xylopia emarginata|Xylopia frutescens|Xylosalsola arbuscula|Xylosma flexuosa|Xyris pterygoblephara|Yucca gloriosa|Zaluzania grayana|Zantedeschia aethiopica|Zanthoxylum acutifolium|Zanthoxylum ailanthoides|Zanthoxylum asiaticum|Zanthoxylum avicennae|Zanthoxylum bungeanum|Zanthoxylum capense|Zanthoxylum caudatum|Zanthoxylum chiloperone|Zanthoxylum culantrillo|Zanthoxylum gilletii|Zanthoxylum heitzii|Zanthoxylum integrifoliolum|Zanthoxylum monophyllum|Zanthoxylum myriacanthum|Zanthoxylum nitidum|Zanthoxylum petiolare|Zanthoxylum piasezkii|Zanthoxylum podocarpum Hemsl.|Zanthoxylum rhoifolium|Zanthoxylum schinifolium|Zanthoxylum setulosum|Zanthoxylum simulans|Zanthoxylum sprucei|Zanthoxylum tetraspermum|Zanthoxylum wutaiense|Zanthoxylum zanthoxyloides|Zataria multiflora|Zea Mays|Zea mays|Zea mays mays|Zephyranthes flava|Zerynthia polyxena|Zingiber Officinale|Zingiber aromaticum|Zingiber cassumunar|Zingiber montanum|Zingiber officinale|Zingiber purpureum|Zinnia citrea|Ziziphora pamiroalaica|Ziziphora pedicellata|Ziziphus mauritiana|Ziziphus spina-christi|Zygophyllum simplex|asparagus|basil|beadlet anemone|blue water-speedwell|breadfruit|caesalpinia volkensii|clove|common dandelion|common myrtle|common sunflower|corn mint|crumb-of-bread sponge|green bristle-grass|housefly|lettuce|liquorice|maize|moringa|peanut|pomegranate|pomelo|sesame|snap bean|soybean|sweet potato|tomato

>  <collections>  (1691) 
ANPDB|AnalytiCon Discovery NPs|Australian natural products|BIOFACQUIM|CMAUP (cCollective molecular activities of useful plants)|ChEBI NPs|ChemSpider NPs|DrugBankNP|EMNPD|FooDB|GNPS (Global Natural Products Social Molecular Networking)|KNApSaCK|Latin America dataset|NANPDB (Natural Products from Northern African Sources)|NAPRORE-CR|NPACT|NPASS|NPEdia|Nat-UV DB|NuBBEDB|Phyto4Health|PhytoLab phyproof® Reference Substances|SANCDB|Specs Natural Products|Super Natural II|TCMDB-Taiwan (Traditional Chinese Medicine database)|TIPdb (database of Taiwan indigenous plants)|VietHerb|WikiData Natural Products

>  <dois>  (1691) 
10.1002/(SICI)1099-1573(199711)11:7<504::AID-PTR145>3.0.CO;2-O|10.1002/(SICI)1099-1573(1998)12:1+<S138::AID-PTR276>3.0.CO;2-5|10.1002/(SICI)1099-1573(1998)12:1+<S74::AID-PTR255>3.0.CO;2-V|10.1002/(SICI)1099-1573(199805)12:3<209::AID-PTR215>3.0.CO;2-P|10.1002/(SICI)1099-1573(199902)13:1<78::AID-PTR384>3.0.CO;2-F|10.1002/(SICI)1099-1573(199903)13:2<175::AID-PTR395>3.0.CO;2-N|10.1002/(SICI)1099-1573(199906)13:4<329::AID-PTR458>3.0.CO;2-U|10.1002/(SICI)1099-1573(200002)14:1<63::AID-PTR567>3.0.CO;2-5|10.1002/0471684228.EGP01775|10.1002/1099-1565(200011/12)11:6<345::AID-PCA540>3.0.CO;2-T|10.1002/1099-1573(200009)14:6<463::AID-PTR611>3.0.CO;2-G|10.1002/1521-4184(20008)333:8<275::AID-ARDP275>3.0.CO;2-4|10.1002/1521-4184(200208)335:6<267::AID-ARDP267>3.0.CO;2-E|10.1002/ARDP.19803130202|10.1002/ARDP.19803130604|10.1002/ARDP.19893220211|10.1002/ARDP.19963291005|10.1002/CBDV.200800128|10.1002/CBDV.200800266|10.1002/CBDV.200800270|10.1002/CBDV.200900007|10.1002/CBDV.200900198|10.1002/CHIN.197348479|10.1002/CHIN.200052207|10.1002/CHIN.200307137|10.1002/CHIN.200317162|10.1002/CHIN.200324150|10.1002/CHIN.200324205|10.1002/CHIN.200338184|10.1002/CHIN.200340213|10.1002/CHIN.200342184|10.1002/CHIN.200342212|10.1002/CHIN.200343156|10.1002/CHIN.200345176|10.1002/CHIN.200345199|10.1002/CHIN.200352191|10.1002/CHIN.200401163|10.1002/CHIN.200402179|10.1002/CHIN.200402233|10.1002/CHIN.200403232|10.1002/CHIN.200406148|10.1002/CHIN.200412183|10.1002/CHIN.200412218|10.1002/CHIN.200430200|10.1002/CHIN.200431151|10.1002/CHIN.200434239|10.1002/CHIN.200436206|10.1002/CHIN.200447158|10.1002/CHIN.200502185|10.1002/CHIN.200502192|10.1002/CHIN.200505221|10.1002/CHIN.200517207|10.1002/CHIN.200517223|10.1002/CHIN.200523216|10.1002/CHIN.200533256|10.1002/CHIN.200535206|10.1002/CHIN.200537180|10.1002/CHIN.200539164|10.1002/CHIN.200612187|10.1002/CHIN.200612191|10.1002/CHIN.200652188|10.1002/CHIN.200706168|10.1002/CHIN.200716196|10.1002/CHIN.200729163|10.1002/CHIN.200844207|10.1002/CHIN.201034210|10.1002/CJOC.20030210222|10.1002/CJOC.201190024|10.1002/EJOC.200500936|10.1002/EJOC.200600742|10.1002/HLCA.19880710806|10.1002/HLCA.200390194|10.1002/HLCA.200390259|10.1002/HLCA.200490183|10.1002/HLCA.200490257|10.1002/HLCA.200590094|10.1002/HLCA.200790079|10.1002/HLCA.200790187|10.1002/HLCA.200800331|10.1002/HLCA.200890092|10.1002/HLCA.200890115|10.1002/HLCA.200890222|10.1002/HLCA.200890226|10.1002/HLCA.200900201|10.1002/HLCA.200900220|10.1002/HLCA.200900431|10.1002/HLCA.201000078|10.1002/HLCA.201000138|10.1002/HLCA.201000199|10.1002/HLCA.201000207|10.1002/HLCA.201000289|10.1002/JCCS.197600017|10.1002/JCCS.198200006|10.1002/JCCS.198300029|10.1002/JCCS.198400021|10.1002/JCCS.198400042|10.1002/JCCS.198500015|10.1002/JCCS.198500075|10.1002/JCCS.199200061|10.1002/JCCS.199300014|10.1002/JCCS.199300096|10.1002/JCCS.199500016|10.1002/JCCS.199500073|10.1002/JCCS.199500076|10.1002/JCCS.199500107|10.1002/JCCS.199700056|10.1002/JCCS.199800016|10.1002/JCCS.199800018|10.1002/JCCS.199800035|10.1002/JCCS.199800048|10.1002/JCCS.199900028|10.1002/JCCS.199900084|10.1002/JCCS.199900110|10.1002/JCCS.200000048|10.1002/JCCS.200000050|10.1002/JCCS.200000074|10.1002/JCCS.200000075|10.1002/JCCS.200000124|10.1002/JCCS.200000152|10.1002/JCCS.200100154|10.1002/JCCS.200100177|10.1002/JCCS.200200019|10.1002/JCCS.200200022|10.1002/JCCS.200200040|10.1002/JCCS.200200041|10.1002/JCCS.200200066|10.1002/JCCS.200200068|10.1002/JCCS.200200069|10.1002/JCCS.200300022|10.1002/JCCS.200300024|10.1002/JCCS.200400067|10.1002/JCCS.200400094|10.1002/JCCS.200400100|10.1002/JCCS.200400131|10.1002/JCCS.200500117|10.1002/JCCS.200700064|10.1002/JCCS.200700071|10.1002/JCCS.200700112|10.1002/JCCS.200700228|10.1002/JCCS.200800059|10.1002/JCCS.200800190|10.1002/JCCS.200900089|10.1002/JCCS.200900093|10.1002/JHRC.1240090210|10.1002/JLAC.19666920122|10.1002/JLAC.198319830514|10.1002/JPS.2600551130|10.1002/JPS.2600551210|10.1002/JPS.2600571138|10.1002/JPS.2600610534|10.1002/JPS.2600620431|10.1002/JPS.2600620945|10.1002/JPS.2600630733|10.1002/JPS.2600650226|10.1002/JPS.2600710621|10.1002/JSFA.1510|10.1002/JSFA.2740580210|10.1002/JSFA.2740590309|10.1002/JSFA.2740630116|10.1002/MRC.1550|10.1002/MRC.1844|10.1002/MRC.1954|10.1002/MRC.2426|10.1002/PCA.656|10.1002/PCA.757|10.1002/PTR.1003|10.1002/PTR.1088|10.1002/PTR.1210|10.1002/PTR.1731|10.1002/PTR.2467|10.1002/PTR.2650080603|10.1002/PTR.3346|10.1002/PTR.759|10.1002/PTR.837|10.1002/PTR.910|10.1002/RECL.19470660309|10.1002/fsn3.3317|10.1002/hlca.200790187|10.1006/BIOO.1993.1007|10.1006/FSTL.2001.0775|10.1007/978-3-7091-1084-3_5|10.1007/BF00267653|10.1007/BF00269127|10.1007/BF00269298|10.1007/BF00269322|10.1007/BF00563344|10.1007/BF00563632|10.1007/BF00563844|10.1007/BF00563888|10.1007/BF00563909|10.1007/BF00563974|10.1007/BF00564089|10.1007/BF00564330|10.1007/BF00564927|10.1007/BF00564955|10.1007/BF00565153|10.1007/BF00565258|10.1007/BF00565522|10.1007/BF00565890|10.1007/BF00566351|10.1007/BF00567162|10.1007/BF00567280|10.1007/BF00567726|10.1007/BF00567827|10.1007/BF00567972|10.1007/BF00568228|10.1007/BF00568258|10.1007/BF00568641|10.1007/BF00568712|10.1007/BF00568713|10.1007/BF00569022|10.1007/BF00569581|10.1007/BF00569611|10.1007/BF00569805|10.1007/BF00570659|10.1007/BF00570696|10.1007/BF00570708|10.1007/BF00570863|10.1007/BF00573559|10.1007/BF00574230|10.1007/BF00574273|10.1007/BF00574351|10.1007/BF00574357|10.1007/BF00574383|10.1007/BF00574580|10.1007/BF00574586|10.1007/BF00574606|10.1007/BF00574643|10.1007/BF00574731|10.1007/BF00575174|10.1007/BF00575204|10.1007/BF00575205|10.1007/BF00575732|10.1007/BF00575774|10.1007/BF00576204|10.1007/BF00576208|10.1007/BF00576234|10.1007/BF00579060|10.1007/BF00579142|10.1007/BF00579458|10.1007/BF00579640|10.1007/BF00580456|10.1007/BF00580573|10.1007/BF00581591|10.1007/BF00581614|10.1007/BF00597595|10.1007/BF00597724|10.1007/BF00597825|10.1007/BF00598098|10.1007/BF00598265|10.1007/BF00598277|10.1007/BF00598279|10.1007/BF00598318|10.1007/BF00598555|10.1007/BF00598697|10.1007/BF00598704|10.1007/BF00599280|10.1007/BF00599286|10.1007/BF00600847|10.1007/BF00600861|10.1007/BF00601276|10.1007/BF00601286|10.1007/BF00601301|10.1007/BF00601303|10.1007/BF00629753|10.1007/BF00629775|10.1007/BF00629791|10.1007/BF00629852|10.1007/BF00629945|10.1007/BF00630021|10.1007/BF00630093|10.1007/BF00630226|10.1007/BF00630230|10.1007/BF00630332|10.1007/BF00630417|10.1007/BF00630431|10.1007/BF00630448|10.1007/BF00630587|10.1007/BF00630666|10.1007/BF00633404|10.1007/BF00633411|10.1007/BF00633412|10.1007/BF00633415|10.1007/BF00634727|10.1007/BF00636560|10.1007/BF00713348|10.1007/BF00810115|10.1007/BF00937619|10.1007/BF00986610|10.1007/BF01012274|10.1007/BF01032020|10.1007/BF01032047|10.1007/BF01100682|10.1007/BF01134438|10.1007/BF01164901|10.1007/BF01196983|10.1007/BF01922181|10.1007/BF01952468|10.1007/BF02033462|10.1007/BF02066230|10.1007/BF02236284|10.1007/BF02238348|10.1007/BF02249130|10.1007/BF02249134|10.1007/BF02249626|10.1007/BF02249629|10.1007/BF02249647|10.1007/BF02249680|10.1007/BF02249700|10.1007/BF02282420|10.1007/BF02282514|10.1007/BF02534857|10.1007/BF02535183|10.1007/BF02536432|10.1007/BF02537347|10.1007/BF02540460|10.1007/BF02540958|10.1007/BF02541498|10.1007/BF02541591|10.1007/BF02541638|10.1007/BF02545312|10.1007/BF02637687|10.1007/BF02660305|10.1007/BF02662286|10.1007/BF02679791|10.1007/BF02855699|10.1007/BF02856537|10.1007/BF02857191|10.1007/BF02968244|10.1007/BF02975104|10.1007/BF02975159|10.1007/BF02975302|10.1007/BF02976999|10.1007/BF02977339|10.1007/BF02977708|10.1007/BF02986020|10.1007/BF03046367|10.1007/BFB0119198|10.1007/S00044-004-0041-7|10.1007/S00044-017-2033-4|10.1007/S00217-004-0943-0|10.1007/S10565-006-0033-0|10.1007/S10600-005-0048-4|10.1007/S10600-005-0108-9|10.1007/S10600-005-0133-8|10.1007/S10600-005-0172-1|10.1007/S10600-005-0207-7|10.1007/S10600-005-0219-3|10.1007/S10600-006-0002-0|10.1007/S10600-006-0099-1|10.1007/S10600-007-0083-4|10.1007/S10600-007-0109-Y|10.1007/S10600-007-0134-X|10.1007/S10600-007-0152-8|10.1007/S10600-007-0232-9|10.1007/S10600-007-0234-7|10.1007/S10600-008-0003-2|10.1007/S10600-008-0043-7|10.1007/S10600-008-9052-9|10.1007/S10600-008-9064-5|10.1007/S10600-008-9078-Z|10.1007/S10600-008-9080-5|10.1007/S10600-008-9091-2|10.1007/S10600-008-9096-X|10.1007/S10600-008-9111-2|10.1007/S10600-008-9127-7|10.1007/S10600-008-9141-9|10.1007/S10600-009-9176-6|10.1007/S10600-009-9329-7|10.1007/S10600-009-9361-7|10.1007/S10600-009-9377-Z|10.1007/S10600-009-9387-X|10.1007/S10600-009-9403-1|10.1007/S10600-009-9412-0|10.1007/S10600-009-9451-6|10.1007/S10600-010-9463-2|10.1007/S10600-010-9477-9|10.1007/S10600-010-9512-X|10.1007/S10600-010-9595-4|10.1007/S10600-010-9596-3|10.1007/S10600-010-9598-1|10.1007/S10600-010-9599-0|10.1007/S10600-010-9645-Y|10.1007/S10600-010-9658-6|10.1007/S10600-010-9659-5|10.1007/S10600-010-9673-7|10.1007/S10600-010-9708-0|10.1007/S10600-010-9722-2|10.1007/S10600-010-9742-Y|10.1007/S10600-010-9752-9|10.1007/S10600-011-0021-3|10.1007/S10600-011-0026-Y|10.1007/S10600-011-0065-4|10.1007/S10600-011-0083-2|10.1007/S10600-011-9788-5|10.1007/S10600-011-9794-7|10.1007/S10600-011-9801-Z|10.1007/S10600-011-9810-Y|10.1007/S10600-011-9844-1|10.1007/S10600-011-9852-1|10.1007/S10600-011-9862-Z|10.1007/S10600-011-9892-6|10.1007/S10600-011-9905-5|10.1007/S10600-011-9914-4|10.1007/S10600-011-9920-6|10.1007/S10600-011-9944-Y|10.1007/S10600-011-9953-X|10.1007/S10600-011-9959-4|10.1007/S10600-011-9964-7|10.1007/S10600-011-9968-3|10.1007/S10600-011-9969-2|10.1007/S10600-012-0124-5|10.1007/S10600-012-0126-3|10.1007/S10600-012-0136-1|10.1007/S10600-012-0138-Z|10.1007/S10600-012-0139-Y|10.1007/S10600-012-0141-4|10.1007/S10600-012-0194-4|10.1007/S10600-013-0479-2|10.1007/S10600-014-1068-8|10.1007/S10600-014-1113-7|10.1007/S10600-014-1163-X|10.1007/S10600-014-1165-8|10.1007/S10600-015-1220-0|10.1007/S10600-015-1336-2|10.1007/S10600-015-1345-1|10.1007/S10600-016-1771-8|10.1007/S10600-017-1933-3|10.1007/S10600-017-1993-4|10.1007/S10600-017-2181-2|10.1007/S10600-018-2437-5|10.1007/S10600-018-2544-3|10.1007/S10600-018-2583-9|10.1007/S10600-021-03481-0|10.1007/S11094-015-1200-5|10.1007/S11101-023-09858-Z|10.1007/S11418-007-0144-9|10.1007/S11418-007-0182-3|10.1007/S11418-008-0225-4|10.1007/S11418-008-0253-0|10.1007/S11418-008-0256-X|10.1007/S11418-008-0273-9|10.1007/S11418-010-0389-6|10.1007/S11745-997-0026-Z|10.1007/S11746-000-0107-4|10.1007/S11746-004-1019-Z|10.1007/S11746-998-0009-8|10.1007/S12272-009-1510-9|10.1007/S12272-010-0903-0|10.1007/S12272-011-0305-Y|10.1007/S13580-020-00235-9|10.1007/S13659-014-0041-3|10.1007/S13765-017-0340-6|10.1007/s003940050048|10.1016/0022-1910(65)90072-7|10.1016/0031-9422(71)85090-2|10.1016/0031-9422(73)80027-5|10.1016/0031-9422(73)80031-7|10.1016/0031-9422(73)80047-0|10.1016/0031-9422(73)80421-2|10.1016/0031-9422(73)80719-8|10.1016/0031-9422(73)85045-9|10.1016/0031-9422(73)85046-0|10.1016/0031-9422(74)80100-7|10.1016/0031-9422(74)80105-6|10.1016/0031-9422(74)80252-9|10.1016/0031-9422(74)85034-X|10.1016/0031-9422(74)85041-7|10.1016/0031-9422(74)85043-0|10.1016/0031-9422(74)85139-3|10.1016/0031-9422(74)85147-2|10.1016/0031-9422(74)85150-2|10.1016/0031-9422(75)80372-4|10.1016/0031-9422(75)80395-5|10.1016/0031-9422(75)80397-9|10.1016/0031-9422(75)80399-2|10.1016/0031-9422(75)85047-3|10.1016/0031-9422(75)85051-5|10.1016/0031-9422(75)85143-0|10.1016/0031-9422(75)85303-9|10.1016/0031-9422(75)85305-2|10.1016/0031-9422(75)85316-7|10.1016/0031-9422(75)85322-2|10.1016/0031-9422(75)85324-6|10.1016/0031-9422(75)85358-1|10.1016/0031-9422(75)85390-8|10.1016/0031-9422(77)84038-7|10.1016/0031-9422(77)84040-5|10.1016/0031-9422(77)84045-4|10.1016/0031-9422(80)80200-7|10.1016/0031-9422(80)80202-0|10.1016/0031-9422(80)83019-6|10.1016/0031-9422(80)83035-4|10.1016/0031-9422(80)83046-9|10.1016/0031-9422(80)83076-7|10.1016/0031-9422(80)83082-2|10.1016/0031-9422(80)83083-4|10.1016/0031-9422(80)83101-3|10.1016/0031-9422(80)85077-1|10.1016/0031-9422(80)85124-7|10.1016/0031-9422(80)85126-0|10.1016/0031-9422(80)85143-0|10.1016/0031-9422(81)80055-6|10.1016/0031-9422(81)80057-X|10.1016/0031-9422(81)80065-9|10.1016/0031-9422(81)83035-X|10.1016/0031-9422(81)83059-2|10.1016/0031-9422(81)83092-0|10.1016/0031-9422(81)84045-9|10.1016/0031-9422(81)84067-8|10.1016/0031-9422(81)84071-X|10.1016/0031-9422(81)85097-2|10.1016/0031-9422(81)85100-X|10.1016/0031-9422(81)85112-6|10.1016/0031-9422(81)85164-3|10.1016/0031-9422(81)85172-2|10.1016/0031-9422(82)80030-7|10.1016/0031-9422(82)80062-9|10.1016/0031-9422(82)80068-X|10.1016/0031-9422(82)80131-3|10.1016/0031-9422(82)80139-8|10.1016/0031-9422(82)80140-4|10.1016/0031-9422(82)80143-X|10.1016/0031-9422(82)80164-7|10.1016/0031-9422(82)83042-2|10.1016/0031-9422(82)83106-3|10.1016/0031-9422(82)83143-9|10.1016/0031-9422(82)83156-7|10.1016/0031-9422(82)83180-4|10.1016/0031-9422(82)83183-X|10.1016/0031-9422(82)85225-4|10.1016/0031-9422(82)85226-6|10.1016/0031-9422(82)85245-X|10.1016/0031-9422(82)85251-5|10.1016/0031-9422(83)80016-8|10.1016/0031-9422(83)80025-9|10.1016/0031-9422(83)80038-7|10.1016/0031-9422(83)80045-4|10.1016/0031-9422(83)80054-5|10.1016/0031-9422(83)80160-5|10.1016/0031-9422(83)80162-9|10.1016/0031-9422(83)80164-2|10.1016/0031-9422(83)80186-1|10.1016/0031-9422(83)80232-5|10.1016/0031-9422(83)80245-3|10.1016/0031-9422(83)80247-7|10.1016/0031-9422(83)80255-6|10.1016/0031-9422(83)83027-1|10.1016/0031-9422(83)83043-X|10.1016/0031-9422(83)83047-7|10.1016/0031-9422(83)83066-0|10.1016/0031-9422(83)83069-6|10.1016/0031-9422(83)83070-2|10.1016/0031-9422(83)85033-X|10.1016/0031-9422(83)85034-1|10.1016/0031-9422(83)85039-0|10.1016/0031-9422(83)85040-7|10.1016/0031-9422(83)85058-4|10.1016/0031-9422(84)83024-1|10.1016/0031-9422(84)83043-5|10.1016/0031-9422(84)83081-2|10.1016/0031-9422(84)83094-0|10.1016/0031-9422(84)83111-8|10.1016/0031-9422(85)80024-8|10.1016/0031-9422(85)80026-1|10.1016/0031-9422(85)80028-5|10.1016/0031-9422(85)80030-3|10.1016/0031-9422(86)80039-5|10.1016/0031-9422(86)80087-5|10.1016/0031-9422(86)88039-6|10.1016/0031-9422(86)88046-3|10.1016/0031-9422(86)88047-5|10.1016/0031-9422(88)80057-8|10.1016/0031-9422(88)80058-X|10.1016/0031-9422(88)80139-0|10.1016/0031-9422(88)80141-9|10.1016/0031-9422(88)80153-5|10.1016/0031-9422(88)80157-2|10.1016/0031-9422(88)80204-8|10.1016/0031-9422(88)80455-2|10.1016/0031-9422(88)80612-5|10.1016/0031-9422(88)80613-7|10.1016/0031-9422(88)80623-X|10.1016/0031-9422(88)80685-X|10.1016/0031-9422(88)80696-4|10.1016/0031-9422(88)80706-4|10.1016/0031-9422(88)80711-8|10.1016/0031-9422(88)80760-X|10.1016/0031-9422(88)80767-2|10.1016/0031-9422(88)80772-6|10.1016/0031-9422(88)80790-8|10.1016/0031-9422(88)80795-7|10.1016/0031-9422(88)80797-0|10.1016/0031-9422(88)80815-X|10.1016/0031-9422(88)83017-6|10.1016/0031-9422(88)83042-5|10.1016/0031-9422(88)83043-7|10.1016/0031-9422(88)83047-4|10.1016/0031-9422(88)83055-3|10.1016/0031-9422(88)83061-9|10.1016/0031-9422(88)83068-1|10.1016/0031-9422(88)83069-3|10.1016/0031-9422(88)83098-X|10.1016/0031-9422(88)83120-0|10.1016/0031-9422(88)83133-9|10.1016/0031-9422(88)83134-0|10.1016/0031-9422(88)83136-4|10.1016/0031-9422(88)83152-2|10.1016/0031-9422(88)83160-1|10.1016/0031-9422(88)84108-6|10.1016/0031-9422(88)84116-5|10.1016/0031-9422(88)84133-5|10.1016/0031-9422(88)87045-6|10.1016/0031-9422(89)80037-8|10.1016/0031-9422(89)80048-2|10.1016/0031-9422(89)80051-2|10.1016/0031-9422(89)80054-8|10.1016/0031-9422(89)80057-3|10.1016/0031-9422(89)80201-8|10.1016/0031-9422(89)80205-5|10.1016/0031-9422(89)80208-0|10.1016/0031-9422(89)80275-4|10.1016/0031-9422(89)80296-1|10.1016/0031-9422(89)80308-5|10.1016/0031-9422(89)80368-1|10.1016/0031-9422(89)80383-8|10.1016/0031-9422(89)80396-6|10.1016/0031-9422(89)85030-7|10.1016/0031-9422(89)85035-6|10.1016/0031-9422(90)80042-F|10.1016/0031-9422(90)80052-I|10.1016/0031-9422(90)80125-Z|10.1016/0031-9422(90)80134-3|10.1016/0031-9422(90)80142-4|10.1016/0031-9422(90)80150-F|10.1016/0031-9422(90)80154-9|10.1016/0031-9422(90)80156-B|10.1016/0031-9422(90)80182-G|10.1016/0031-9422(90)80195-M|10.1016/0031-9422(90)80196-N|10.1016/0031-9422(90)80216-4|10.1016/0031-9422(90)80218-6|10.1016/0031-9422(90)83037-2|10.1016/0031-9422(90)83042-Y|10.1016/0031-9422(90)83068-C|10.1016/0031-9422(90)85028-E|10.1016/0031-9422(90)85035-E|10.1016/0031-9422(90)85045-H|10.1016/0031-9422(90)85058-N|10.1016/0031-9422(90)85097-Y|10.1016/0031-9422(90)85117-X|10.1016/0031-9422(90)85139-7|10.1016/0031-9422(90)85192-I|10.1016/0031-9422(90)85193-J|10.1016/0031-9422(90)85196-M|10.1016/0031-9422(90)85217-4|10.1016/0031-9422(90)85233-6|10.1016/0031-9422(90)85251-A|10.1016/0031-9422(90)85282-K|10.1016/0031-9422(90)85294-P|10.1016/0031-9422(90)85309-4|10.1016/0031-9422(90)85356-K|10.1016/0031-9422(90)85367-O|10.1016/0031-9422(90)85371-L|10.1016/0031-9422(90)85406-6|10.1016/0031-9422(90)85431-E|10.1016/0031-9422(90)85432-F|10.1016/0031-9422(90)85438-L|10.1016/0031-9422(90)85468-U|10.1016/0031-9422(90)87107-6|10.1016/0031-9422(90)87138-K|10.1016/0031-9422(90)89045-B|10.1016/0031-9422(90)89059-I|10.1016/0031-9422(90)89077-M|10.1016/0031-9422(91)80015-S|10.1016/0031-9422(91)80079-G|10.1016/0031-9422(91)80085-F|10.1016/0031-9422(91)80113-F|10.1016/0031-9422(91)80121-G|10.1016/0031-9422(91)80129-O|10.1016/0031-9422(91)83015-D|10.1016/0031-9422(91)83027-I|10.1016/0031-9422(91)83035-J|10.1016/0031-9422(91)83055-P|10.1016/0031-9422(91)83058-S|10.1016/0031-9422(91)83081-U|10.1016/0031-9422(91)83196-R|10.1016/0031-9422(91)83210-C|10.1016/0031-9422(91)83456-U|10.1016/0031-9422(91)83479-5|10.1016/0031-9422(91)83488-7|10.1016/0031-9422(91)83497-9|10.1016/0031-9422(91)83498-A|10.1016/0031-9422(91)83500-K|10.1016/0031-9422(91)83502-C|10.1016/0031-9422(91)83503-D|10.1016/0031-9422(91)83644-Z|10.1016/0031-9422(91)83652-2|10.1016/0031-9422(91)83653-3|10.1016/0031-9422(91)83667-A|10.1016/0031-9422(91)84129-G|10.1016/0031-9422(91)84139-J|10.1016/0031-9422(91)84157-N|10.1016/0031-9422(91)84160-T|10.1016/0031-9422(91)85045-2|10.1016/0031-9422(91)85047-4|10.1016/0031-9422(91)85049-6|10.1016/0031-9422(91)85053-3|10.1016/0031-9422(91)85148-S|10.1016/0031-9422(91)85157-U|10.1016/0031-9422(91)85270-A|10.1016/0031-9422(91)85274-4|10.1016/0031-9422(91)85276-6|10.1016/0031-9422(91)85278-8|10.1016/0031-9422(91)85279-9|10.1016/0031-9422(91)85303-H|10.1016/0031-9422(91)85309-N|10.1016/0031-9422(92)80123-V|10.1016/0031-9422(92)80125-X|10.1016/0031-9422(92)80132-X|10.1016/0031-9422(92)80165-B|10.1016/0031-9422(92)80176-F|10.1016/0031-9422(92)80177-G|10.1016/0031-9422(92)80185-H|10.1016/0031-9422(92)80203-Q|10.1016/0031-9422(92)80212-W|10.1016/0031-9422(92)80279-N|10.1016/0031-9422(92)80283-K|10.1016/0031-9422(92)80289-Q|10.1016/0031-9422(92)80296-Q|10.1016/0031-9422(92)80301-T|10.1016/0031-9422(92)80304-W|10.1016/0031-9422(92)80313-4|10.1016/0031-9422(92)80361-H|10.1016/0031-9422(92)80371-K|10.1016/0031-9422(92)80374-N|10.1016/0031-9422(92)80386-S|10.1016/0031-9422(92)80448-N|10.1016/0031-9422(92)80451-J|10.1016/0031-9422(92)80452-K|10.1016/0031-9422(92)80456-O|10.1016/0031-9422(92)80483-U|10.1016/0031-9422(92)80485-W|10.1016/0031-9422(92)80488-Z|10.1016/0031-9422(92)83142-L|10.1016/0031-9422(92)83156-S|10.1016/0031-9422(92)83157-T|10.1016/0031-9422(92)83285-7|10.1016/0031-9422(92)83289-B|10.1016/0031-9422(92)83440-A|10.1016/0031-9422(92)83460-G|10.1016/0031-9422(92)83503-Q|10.1016/0031-9422(92)83637-E|10.1016/0031-9422(92)83647-H|10.1016/0031-9422(92)83653-G|10.1016/0031-9422(92)83709-8|10.1016/0031-9422(92)83713-9|10.1016/0031-9422(92)83720-J|10.1016/0031-9422(92)83738-K|10.1016/0031-9422(92)83741-G|10.1016/0031-9422(92)83750-S|10.1016/0031-9422(92)83754-M|10.1016/0031-9422(92)90044-Q|10.1016/0031-9422(92)90045-R|10.1016/0031-9422(92)90046-S|10.1016/0031-9422(92)90048-U|10.1016/0031-9422(92)90070-7|10.1016/0031-9422(92)90073-Y|10.1016/0031-9422(93)80053-U|10.1016/0031-9422(93)85032-M|10.1016/0031-9422(93)85036-Q|10.1016/0031-9422(93)85095-9|10.1016/0031-9422(93)85112-5|10.1016/0031-9422(93)85164-M|10.1016/0031-9422(93)85167-P|10.1016/0031-9422(93)85192-T|10.1016/0031-9422(93)85234-I|10.1016/0031-9422(93)85257-R|10.1016/0031-9422(93)85405-G|10.1016/0031-9422(93)85451-V|10.1016/0031-9422(93)85483-8|10.1016/0031-9422(93)85543-Z|10.1016/0031-9422(93)85550-B|10.1016/0031-9422(93)85552-3|10.1016/0031-9422(94)00314-J|10.1016/0031-9422(94)00485-C|10.1016/0031-9422(94)00603-Q|10.1016/0031-9422(94)00675-J|10.1016/0031-9422(94)00710-B|10.1016/0031-9422(94)00732-9|10.1016/0031-9422(94)00743-D|10.1016/0031-9422(94)00791-Q|10.1016/0031-9422(94)00851-J|10.1016/0031-9422(94)00854-M|10.1016/0031-9422(94)00901-5|10.1016/0031-9422(94)00905-9|10.1016/0031-9422(94)00930-R|10.1016/0031-9422(94)00935-M|10.1016/0031-9422(94)00950-X|10.1016/0031-9422(94)00971-U|10.1016/0031-9422(94)00977-2|10.1016/0031-9422(94)85021-6|10.1016/0031-9422(94)85025-9|10.1016/0031-9422(94)85027-5|10.1016/0031-9422(94)85100-X|10.1016/0031-9422(94)85101-8|10.1016/0031-9422(95)00060-K|10.1016/0031-9422(95)00091-K|10.1016/0031-9422(95)00093-3|10.1016/0031-9422(95)00105-G|10.1016/0031-9422(95)00121-M|10.1016/0031-9422(95)00122-N|10.1016/0031-9422(95)00248-6|10.1016/0031-9422(95)00261-5|10.1016/0031-9422(95)00264-8|10.1016/0031-9422(95)00333-3|10.1016/0031-9422(95)00341-4|10.1016/0031-9422(95)00361-A|10.1016/0031-9422(95)00368-H|10.1016/0031-9422(95)00370-M|10.1016/0031-9422(95)00397-P|10.1016/0031-9422(95)00400-2|10.1016/0031-9422(95)00416-5|10.1016/0031-9422(95)00424-6|10.1016/0031-9422(95)00427-9|10.1016/0031-9422(95)00428-A|10.1016/0031-9422(95)00435-A|10.1016/0031-9422(95)00447-F|10.1016/0031-9422(95)00452-D|10.1016/0031-9422(95)00494-R|10.1016/0031-9422(95)00504-Z|10.1016/0031-9422(95)00507-4|10.1016/0031-9422(95)00557-9|10.1016/0031-9422(95)00599-4|10.1016/0031-9422(95)00648-6|10.1016/0031-9422(95)00658-3|10.1016/0031-9422(95)00671-0|10.1016/0031-9422(95)00700-8|10.1016/0031-9422(95)00754-7|10.1016/0031-9422(95)00760-1|10.1016/0031-9422(95)00765-2|10.1016/0031-9422(95)00794-6|10.1016/0031-9422(95)00841-1|10.1016/0031-9422(95)00877-2|10.1016/0031-9422(95)00907-8|10.1016/0031-9422(95)00942-6|10.1016/0031-9422(95)00969-8|10.1016/0031-9422(95)00973-6|10.1016/0031-9422(95)98170-L|10.1016/0031-9422(96)00084-2|10.1016/0031-9422(96)00113-6|10.1016/0031-9422(96)00149-5|10.1016/0031-9422(96)00156-2|10.1016/0031-9422(96)00160-4|10.1016/0031-9422(96)00232-4|10.1016/0031-9422(96)00248-8|10.1016/0031-9422(96)00271-3|10.1016/0031-9422(96)00293-2|10.1016/0031-9422(96)00325-1|10.1016/0031-9422(96)00886-2|10.1016/0039-128X(80)90095-1|10.1016/0039-128X(81)90070-2|10.1016/0039-128X(82)90021-6|10.1016/0039-128X(83)90093-4|10.1016/0039-128X(86)90008-5|10.1016/0039-128X(89)90015-9|10.1016/0039-128X(89)90036-6|10.1016/0039-128X(94)90124-4|10.1016/0039-128X(95)00055-U|10.1016/0039-128X(95)00167-O|10.1016/0040-4020(67)80031-0|10.1016/0040-4020(69)80025-6|10.1016/0040-4020(75)80169-4|10.1016/0040-4020(77)80444-4|10.1016/0040-4020(79)85042-5|10.1016/0040-4020(86)80004-7|10.1016/0041-0101(89)90151-7|10.1016/0041-0101(94)90207-0|10.1016/0049-3848(90)90162-6|10.1016/0165-1218(84)90058-2|10.1016/0168-9452(91)90045-A|10.1016/0168-9452(92)90135-9|10.1016/0305-1978(84)90026-7|10.1016/0305-1978(87)90052-4|10.1016/0305-1978(88)90011-7|10.1016/0305-1978(88)90060-9|10.1016/0305-1978(88)90078-6|10.1016/0305-1978(91)90009-O|10.1016/0305-1978(92)90061-H|10.1016/0305-1978(92)90104-L|10.1016/0305-1978(93)90078-6|10.1016/0305-1978(94)90037-X|10.1016/0305-1978(94)90107-4|10.1016/0305-1978(95)00010-R|10.1016/0305-1978(95)00082-8|10.1016/0305-1978(95)00105-0|10.1016/0305-1978(96)00011-7|10.1016/0305-1978(96)88874-0|10.1016/0378-8741(82)90022-8|10.1016/0378-8741(82)90058-7|10.1016/0378-8741(83)90042-9|10.1016/0378-8741(83)90070-3|10.1016/0378-8741(84)90002-3|10.1016/0378-8741(84)90075-8|10.1016/0378-8741(84)90087-4|10.1016/0378-8741(85)90002-9|10.1016/0378-8741(86)90109-1|10.1016/0378-8741(87)90096-1|10.1016/0378-8741(93)90066-E|10.1016/0378-8741(94)90005-1|10.1016/0378-8741(95)01260-K|10.1016/0960-8524(92)90053-Z|10.1016/0965-1748(93)90098-D|10.1016/B978-0-12-818162-1.00006-7|10.1016/J.ARABJC.2011.01.022|10.1016/J.ARABJC.2011.03.011|10.1016/J.BMC.2003.10.031|10.1016/J.BMC.2004.06.009|10.1016/J.BMC.2005.07.050|10.1016/J.BMC.2006.08.012|10.1016/J.BMC.2007.04.044|10.1016/J.BMC.2007.10.072|10.1016/J.BMC.2008.09.021|10.1016/J.BMC.2008.09.023|10.1016/J.BMC.2009.06.009|10.1016/J.BMC.2010.01.010|10.1016/J.BMC.2011.07.006|10.1016/J.BMCL.2003.11.074|10.1016/J.BMCL.2005.07.020|10.1016/J.BMCL.2009.04.129|10.1016/J.BMCL.2009.08.048|10.1016/J.BMCL.2010.10.058|10.1016/J.BMCL.2010.12.025|10.1016/J.BMCL.2011.02.003|10.1016/J.BMCL.2011.09.129|10.1016/J.BMCL.2013.03.007|10.1016/J.BMCL.2013.04.081|10.1016/J.BSE.2003.08.010|10.1016/J.BSE.2013.03.002|10.1016/J.BSE.2014.02.028|10.1016/J.BSE.2014.12.019|10.1016/J.BSE.2015.09.007|10.1016/J.BSE.2021.104264|10.1016/J.CCLET.2009.10.028|10.1016/J.CCLET.2010.02.022|10.1016/J.CHMED.2022.08.010|10.1016/J.EJMECH.2011.03.011|10.1016/J.FCT.2004.01.008|10.1016/J.FITOTE.2003.07.012|10.1016/J.FITOTE.2003.08.003|10.1016/J.FITOTE.2003.09.001|10.1016/J.FITOTE.2003.11.004|10.1016/J.FITOTE.2004.03.009|10.1016/J.FITOTE.2004.04.012|10.1016/J.FITOTE.2004.06.002|10.1016/J.FITOTE.2004.09.018|10.1016/J.FITOTE.2004.11.003|10.1016/J.FITOTE.2005.06.006|10.1016/J.FITOTE.2005.06.010|10.1016/J.FITOTE.2006.01.013|10.1016/J.FITOTE.2006.09.009|10.1016/J.FITOTE.2009.01.008|10.1016/J.FITOTE.2009.11.003|10.1016/J.FITOTE.2010.03.019|10.1016/J.FITOTE.2010.05.008|10.1016/J.FITOTE.2014.01.007|10.1016/J.FOODCHEM.2008.11.094|10.1016/J.FOODCHEM.2009.04.098|10.1016/J.FOODCHEM.2019.125649|10.1016/J.FOODRES.2020.109416|10.1016/J.JEP.2004.01.022|10.1016/J.JEP.2004.07.022|10.1016/J.JEP.2005.01.029|10.1016/J.JEP.2008.06.025|10.1016/J.JEP.2010.01.009|10.1016/J.JEP.2010.11.057|10.1016/J.JFMA.2013.08.003|10.1016/J.JICS.2021.100253|10.1016/J.JPBA.2019.03.056|10.1016/J.LFS.2004.08.017|10.1016/J.LFS.2005.05.078|10.1016/J.PHYMED.2006.09.006|10.1016/J.PHYMED.2006.11.021|10.1016/J.PHYMED.2006.12.020|10.1016/J.PHYMED.2007.03.018|10.1016/J.PHYMED.2009.09.008|10.1016/J.PHYTOCHEM.2003.08.023|10.1016/J.PHYTOCHEM.2003.10.011|10.1016/J.PHYTOCHEM.2003.10.021|10.1016/J.PHYTOCHEM.2003.10.024|10.1016/J.PHYTOCHEM.2003.10.028|10.1016/J.PHYTOCHEM.2003.11.002|10.1016/J.PHYTOCHEM.2003.12.012|10.1016/J.PHYTOCHEM.2004.02.026|10.1016/J.PHYTOCHEM.2004.03.007|10.1016/J.PHYTOCHEM.2004.03.011|10.1016/J.PHYTOCHEM.2004.04.002|10.1016/J.PHYTOCHEM.2004.04.024|10.1016/J.PHYTOCHEM.2004.05.008|10.1016/J.PHYTOCHEM.2004.06.021|10.1016/J.PHYTOCHEM.2004.07.001|10.1016/J.PHYTOCHEM.2004.07.007|10.1016/J.PHYTOCHEM.2004.08.019|10.1016/J.PHYTOCHEM.2004.10.016|10.1016/J.PHYTOCHEM.2004.11.012|10.1016/J.PHYTOCHEM.2004.12.018|10.1016/J.PHYTOCHEM.2004.12.028|10.1016/J.PHYTOCHEM.2005.02.016|10.1016/J.PHYTOCHEM.2005.02.027|10.1016/J.PHYTOCHEM.2005.03.020|10.1016/J.PHYTOCHEM.2005.03.023|10.1016/J.PHYTOCHEM.2005.03.032|10.1016/J.PHYTOCHEM.2005.04.001|10.1016/J.PHYTOCHEM.2005.05.001|10.1016/J.PHYTOCHEM.2005.07.002|10.1016/J.PHYTOCHEM.2005.07.017|10.1016/J.PHYTOCHEM.2005.12.019|10.1016/J.PHYTOCHEM.2006.03.005|10.1016/J.PHYTOCHEM.2006.03.012|10.1016/J.PHYTOCHEM.2006.03.024|10.1016/J.PHYTOCHEM.2006.08.013|10.1016/J.PHYTOCHEM.2006.10.026|10.1016/J.PHYTOCHEM.2007.01.017|10.1016/J.PHYTOCHEM.2007.02.020|10.1016/J.PHYTOCHEM.2007.05.003|10.1016/J.PHYTOCHEM.2007.07.026|10.1016/J.PHYTOCHEM.2007.10.024|10.1016/J.PHYTOCHEM.2007.11.019|10.1016/J.PHYTOCHEM.2008.02.018|10.1016/J.PHYTOCHEM.2008.03.011|10.1016/J.PHYTOCHEM.2008.04.009|10.1016/J.PHYTOCHEM.2008.09.021|10.1016/J.PHYTOCHEM.2008.12.008|10.1016/J.PHYTOCHEM.2008.12.017|10.1016/J.PHYTOCHEM.2009.02.012|10.1016/J.PHYTOCHEM.2009.03.021|10.1016/J.PHYTOCHEM.2009.04.024|10.1016/J.PHYTOCHEM.2009.05.011|10.1016/J.PHYTOCHEM.2009.06.008|10.1016/J.PHYTOCHEM.2009.06.020|10.1016/J.PHYTOCHEM.2009.08.007|10.1016/J.PHYTOCHEM.2009.10.013|10.1016/J.PHYTOCHEM.2009.12.016|10.1016/J.PHYTOCHEM.2010.04.001|10.1016/J.PHYTOCHEM.2010.06.020|10.1016/J.PHYTOCHEM.2011.01.006|10.1016/J.PHYTOCHEM.2011.01.018|10.1016/J.PHYTOCHEM.2017.08.009|10.1016/J.PHYTOL.2009.03.002|10.1016/J.PHYTOL.2009.10.002|10.1016/J.PHYTOL.2011.02.011|10.1016/J.PHYTOL.2011.03.007|10.1016/J.PHYTOL.2011.04.003|10.1016/J.PHYTOL.2011.04.006|10.1016/J.PHYTOL.2011.05.002|10.1016/J.PHYTOL.2011.06.004|10.1016/J.PHYTOL.2012.07.012|10.1016/J.PHYTOL.2012.10.012|10.1016/J.PHYTOL.2014.04.013|10.1016/J.PHYTOL.2014.09.011|10.1016/J.POSTHARVBIO.2013.11.004|10.1016/J.SAJB.2011.09.001|10.1016/J.STEROIDS.2006.03.001|10.1016/J.SUPFLU.2015.03.016|10.1016/J.TET.2003.08.029|10.1016/J.TET.2003.10.023|10.1016/J.TETLET.2010.08.033|10.1016/S0014-2999(03)01664-9|10.1016/S0021-9673(01)81925-7|10.1016/S0021-9673(98)00049-1|10.1016/S0024-3205(99)00652-9|10.1016/S0031-9422(00)00035-2|10.1016/S0031-9422(00)00108-4|10.1016/S0031-9422(00)00131-X|10.1016/S0031-9422(00)00215-6|10.1016/S0031-9422(00)00225-9|10.1016/S0031-9422(00)00290-9|10.1016/S0031-9422(00)00294-6|10.1016/S0031-9422(00)00296-X|10.1016/S0031-9422(00)00302-2|10.1016/S0031-9422(00)00402-7|10.1016/S0031-9422(00)00413-1|10.1016/S0031-9422(00)80073-4|10.1016/S0031-9422(00)80074-6|10.1016/S0031-9422(00)80079-5|10.1016/S0031-9422(00)80080-1|10.1016/S0031-9422(00)80087-4|10.1016/S0031-9422(00)80096-5|10.1016/S0031-9422(00)80098-9|10.1016/S0031-9422(00)80113-2|10.1016/S0031-9422(00)80173-9|10.1016/S0031-9422(00)80284-8|10.1016/S0031-9422(00)80326-X|10.1016/S0031-9422(00)80328-3|10.1016/S0031-9422(00)80341-6|10.1016/S0031-9422(00)80343-X|10.1016/S0031-9422(00)80345-3|10.1016/S0031-9422(00)80353-2|10.1016/S0031-9422(00)80354-4|10.1016/S0031-9422(00)80358-1|10.1016/S0031-9422(00)80395-7|10.1016/S0031-9422(00)80418-5|10.1016/S0031-9422(00)80444-6|10.1016/S0031-9422(00)80530-0|10.1016/S0031-9422(00)80539-7|10.1016/S0031-9422(00)80565-8|10.1016/S0031-9422(00)80604-4|10.1016/S0031-9422(00)80606-8|10.1016/S0031-9422(00)80608-1|10.1016/S0031-9422(00)80644-5|10.1016/S0031-9422(00)80650-0|10.1016/S0031-9422(00)80691-3|10.1016/S0031-9422(00)80711-6|10.1016/S0031-9422(00)80719-0|10.1016/S0031-9422(00)80760-8|10.1016/S0031-9422(00)80766-9|10.1016/S0031-9422(00)80785-2|10.1016/S0031-9422(00)80787-6|10.1016/S0031-9422(00)80792-X|10.1016/S0031-9422(00)80830-4|10.1016/S0031-9422(00)80837-7|10.1016/S0031-9422(00)80840-7|10.1016/S0031-9422(00)80844-4|10.1016/S0031-9422(00)81125-5|10.1016/S0031-9422(00)81126-7|10.1016/S0031-9422(00)81170-X|10.1016/S0031-9422(00)81171-1|10.1016/S0031-9422(00)81177-2|10.1016/S0031-9422(00)81182-6|10.1016/S0031-9422(00)81196-6|10.1016/S0031-9422(00)81222-4|10.1016/S0031-9422(00)81232-7|10.1016/S0031-9422(00)81263-7|10.1016/S0031-9422(00)81437-5|10.1016/S0031-9422(00)81449-1|10.1016/S0031-9422(00)81462-4|10.1016/S0031-9422(00)81502-2|10.1016/S0031-9422(00)81515-0|10.1016/S0031-9422(00)81516-2|10.1016/S0031-9422(00)81525-3|10.1016/S0031-9422(00)81526-5|10.1016/S0031-9422(00)81558-7|10.1016/S0031-9422(00)81560-5|10.1016/S0031-9422(00)81583-6|10.1016/S0031-9422(00)81694-5|10.1016/S0031-9422(00)81700-8|10.1016/S0031-9422(00)81703-3|10.1016/S0031-9422(00)81713-6|10.1016/S0031-9422(00)81735-5|10.1016/S0031-9422(00)81759-8|10.1016/S0031-9422(00)81835-X|10.1016/S0031-9422(00)81855-5|10.1016/S0031-9422(00)81969-X|10.1016/S0031-9422(00)82230-X|10.1016/S0031-9422(00)82341-9|10.1016/S0031-9422(00)82356-0|10.1016/S0031-9422(00)82427-9|10.1016/S0031-9422(00)82439-5|10.1016/S0031-9422(00)82491-7|10.1016/S0031-9422(00)82509-1|10.1016/S0031-9422(00)82510-8|10.1016/S0031-9422(00)82541-8|10.1016/S0031-9422(00)82549-2|10.1016/S0031-9422(00)82550-9|10.1016/S0031-9422(00)82558-3|10.1016/S0031-9422(00)82564-9|10.1016/S0031-9422(00)83040-X|10.1016/S0031-9422(00)83050-2|10.1016/S0031-9422(00)83068-X|10.1016/S0031-9422(00)83075-7|10.1016/S0031-9422(00)83106-4|10.1016/S0031-9422(00)83115-5|10.1016/S0031-9422(00)83133-7|10.1016/S0031-9422(00)83182-9|10.1016/S0031-9422(00)83184-2|10.1016/S0031-9422(00)83187-8|10.1016/S0031-9422(00)83190-8|10.1016/S0031-9422(00)83194-5|10.1016/S0031-9422(00)83204-5|10.1016/S0031-9422(00)83209-4|10.1016/S0031-9422(00)83481-0|10.1016/S0031-9422(00)83488-3|10.1016/S0031-9422(00)83499-8|10.1016/S0031-9422(00)83507-4|10.1016/S0031-9422(00)83533-5|10.1016/S0031-9422(00)83542-6|10.1016/S0031-9422(00)83544-X|10.1016/S0031-9422(00)83589-X|10.1016/S0031-9422(00)83594-3|10.1016/S0031-9422(00)83890-X|10.1016/S0031-9422(00)83902-3|10.1016/S0031-9422(00)84079-0|10.1016/S0031-9422(00)84080-7|10.1016/S0031-9422(00)84109-6|10.1016/S0031-9422(00)84110-2|10.1016/S0031-9422(00)84114-X|10.1016/S0031-9422(00)84127-8|10.1016/S0031-9422(00)84129-1|10.1016/S0031-9422(00)84169-2|10.1016/S0031-9422(00)84186-2|10.1016/S0031-9422(00)84396-4|10.1016/S0031-9422(00)84516-1|10.1016/S0031-9422(00)84521-5|10.1016/S0031-9422(00)84543-4|10.1016/S0031-9422(00)84605-1|10.1016/S0031-9422(00)84703-2|10.1016/S0031-9422(00)84721-4|10.1016/S0031-9422(00)84722-6|10.1016/S0031-9422(00)84771-8|10.1016/S0031-9422(00)84774-3|10.1016/S0031-9422(00)84778-0|10.1016/S0031-9422(00)84784-6|10.1016/S0031-9422(00)84792-5|10.1016/S0031-9422(00)84913-4|10.1016/S0031-9422(00)84916-X|10.1016/S0031-9422(00)84947-X|10.1016/S0031-9422(00)85002-5|10.1016/S0031-9422(00)85067-0|10.1016/S0031-9422(00)85161-4|10.1016/S0031-9422(00)85499-0|10.1016/S0031-9422(00)85509-0|10.1016/S0031-9422(00)85510-7|10.1016/S0031-9422(00)85638-1|10.1016/S0031-9422(00)85714-3|10.1016/S0031-9422(00)85837-9|10.1016/S0031-9422(00)85859-8|10.1016/S0031-9422(00)86134-8|10.1016/S0031-9422(00)86395-5|10.1016/S0031-9422(00)86539-5|10.1016/S0031-9422(00)86541-3|10.1016/S0031-9422(00)86768-0|10.1016/S0031-9422(00)86810-7|10.1016/S0031-9422(00)86844-2|10.1016/S0031-9422(00)86888-0|10.1016/S0031-9422(00)86904-6|10.1016/S0031-9422(00)86967-8|10.1016/S0031-9422(00)88243-6|10.1016/S0031-9422(00)88402-2|10.1016/S0031-9422(00)88489-7|10.1016/S0031-9422(00)88544-1|10.1016/S0031-9422(00)88692-6|10.1016/S0031-9422(00)88765-8|10.1016/S0031-9422(00)88855-X|10.1016/S0031-9422(00)88867-6|10.1016/S0031-9422(00)88935-9|10.1016/S0031-9422(00)88971-2|10.1016/S0031-9422(00)89103-7|10.1016/S0031-9422(00)89105-0|10.1016/S0031-9422(00)89245-6|10.1016/S0031-9422(00)89350-4|10.1016/S0031-9422(00)89541-2|10.1016/S0031-9422(00)89542-4|10.1016/S0031-9422(00)89547-3|10.1016/S0031-9422(00)89651-X|10.1016/S0031-9422(00)89656-9|10.1016/S0031-9422(00)89704-6|10.1016/S0031-9422(00)89705-8|10.1016/S0031-9422(00)89739-3|10.1016/S0031-9422(00)89743-5|10.1016/S0031-9422(00)89799-X|10.1016/S0031-9422(00)89808-8|10.1016/S0031-9422(00)89812-X|10.1016/S0031-9422(00)89849-0|10.1016/S0031-9422(00)89891-X|10.1016/S0031-9422(00)89914-8|10.1016/S0031-9422(00)90054-2|10.1016/S0031-9422(00)90117-1|10.1016/S0031-9422(00)90379-0|10.1016/S0031-9422(00)90410-2|10.1016/S0031-9422(00)90411-4|10.1016/S0031-9422(00)90415-1|10.1016/S0031-9422(00)90433-3|10.1016/S0031-9422(00)90438-2|10.1016/S0031-9422(00)90455-2|10.1016/S0031-9422(00)90474-6|10.1016/S0031-9422(00)90483-7|10.1016/S0031-9422(00)90497-7|10.1016/S0031-9422(00)90526-0|10.1016/S0031-9422(00)90593-4|10.1016/S0031-9422(00)90605-8|10.1016/S0031-9422(00)90663-0|10.1016/S0031-9422(00)90671-X|10.1016/S0031-9422(00)90672-1|10.1016/S0031-9422(00)90675-7|10.1016/S0031-9422(00)90717-9|10.1016/S0031-9422(00)90719-2|10.1016/S0031-9422(00)90740-4|10.1016/S0031-9422(00)90814-8|10.1016/S0031-9422(00)90867-7|10.1016/S0031-9422(00)91033-1|10.1016/S0031-9422(00)91124-5|10.1016/S0031-9422(00)91467-5|10.1016/S0031-9422(00)94227-4|10.1016/S0031-9422(00)94260-2|10.1016/S0031-9422(00)94278-X|10.1016/S0031-9422(00)94343-7|10.1016/S0031-9422(00)94440-6|10.1016/S0031-9422(00)94448-0|10.1016/S0031-9422(00)94522-9|10.1016/S0031-9422(00)94531-X|10.1016/S0031-9422(00)94551-5|10.1016/S0031-9422(00)94613-2|10.1016/S0031-9422(00)94801-5|10.1016/S0031-9422(00)94829-5|10.1016/S0031-9422(00)94835-0|10.1016/S0031-9422(00)94842-8|10.1016/S0031-9422(00)95009-X|10.1016/S0031-9422(00)95012-X|10.1016/S0031-9422(00)95020-9|10.1016/S0031-9422(00)95023-4|10.1016/S0031-9422(00)95102-1|10.1016/S0031-9422(00)95112-4|10.1016/S0031-9422(00)95166-5|10.1016/S0031-9422(00)95204-X|10.1016/S0031-9422(00)95206-3|10.1016/S0031-9422(00)95214-2|10.1016/S0031-9422(00)95277-4|10.1016/S0031-9422(00)95279-8|10.1016/S0031-9422(00)97025-0|10.1016/S0031-9422(00)97033-X|10.1016/S0031-9422(00)97039-0|10.1016/S0031-9422(00)97041-9|10.1016/S0031-9422(00)97081-X|10.1016/S0031-9422(00)97086-9|10.1016/S0031-9422(00)97131-0|10.1016/S0031-9422(00)97240-6|10.1016/S0031-9422(00)97305-9|10.1016/S0031-9422(00)97427-2|10.1016/S0031-9422(00)97525-3|10.1016/S0031-9422(00)97552-6|10.1016/S0031-9422(00)97553-8|10.1016/S0031-9422(00)97558-7|10.1016/S0031-9422(00)97560-5|10.1016/S0031-9422(00)97582-4|10.1016/S0031-9422(00)97767-7|10.1016/S0031-9422(00)97769-0|10.1016/S0031-9422(00)97770-7|10.1016/S0031-9422(00)97823-3|10.1016/S0031-9422(00)97825-7|10.1016/S0031-9422(00)97846-4|10.1016/S0031-9422(00)97890-7|10.1016/S0031-9422(00)97897-X|10.1016/S0031-9422(00)97906-8|10.1016/S0031-9422(00)97910-X|10.1016/S0031-9422(00)97935-4|10.1016/S0031-9422(00)97953-6|10.1016/S0031-9422(00)98011-7|10.1016/S0031-9422(00)98014-2|10.1016/S0031-9422(00)98019-1|10.1016/S0031-9422(00)98076-2|10.1016/S0031-9422(00)98078-6|10.1016/S0031-9422(00)98083-X|10.1016/S0031-9422(00)98107-X|10.1016/S0031-9422(00)98241-4|10.1016/S0031-9422(00)98248-7|10.1016/S0031-9422(00)98279-7|10.1016/S0031-9422(00)98280-3|10.1016/S0031-9422(00)98552-2|10.1016/S0031-9422(00)98664-3|10.1016/S0031-9422(01)00114-5|10.1016/S0031-9422(01)00121-2|10.1016/S0031-9422(01)00135-2|10.1016/S0031-9422(01)00168-6|10.1016/S0031-9422(01)00176-5|10.1016/S0031-9422(01)00188-1|10.1016/S0031-9422(01)00245-X|10.1016/S0031-9422(01)00271-0|10.1016/S0031-9422(01)00329-6|10.1016/S0031-9422(01)00341-7|10.1016/S0031-9422(01)00364-8|10.1016/S0031-9422(01)00389-2|10.1016/S0031-9422(01)00395-8|10.1016/S0031-9422(01)00414-9|10.1016/S0031-9422(01)00452-6|10.1016/S0031-9422(01)00466-6|10.1016/S0031-9422(01)00483-6|10.1016/S0031-9422(01)00490-3|10.1016/S0031-9422(02)00089-4|10.1016/S0031-9422(02)00243-1|10.1016/S0031-9422(02)00268-6|10.1016/S0031-9422(02)00283-2|10.1016/S0031-9422(02)00385-0|10.1016/S0031-9422(02)00396-5|10.1016/S0031-9422(02)00542-3|10.1016/S0031-9422(02)00555-1|10.1016/S0031-9422(02)00758-6|10.1016/S0031-9422(03)00006-2|10.1016/S0031-9422(03)00075-X|10.1016/S0031-9422(03)00158-4|10.1016/S0031-9422(03)00183-3|10.1016/S0031-9422(03)00190-0|10.1016/S0031-9422(03)00202-4|10.1016/S0031-9422(03)00225-5|10.1016/S0031-9422(03)00268-1|10.1016/S0031-9422(03)00356-X|10.1016/S0031-9422(03)00371-6|10.1016/S0031-9422(03)00422-9|10.1016/S0031-9422(05)80098-6|10.1016/S0031-9422(82)85040-1|10.1016/S0031-9422(82)85045-0|10.1016/S0031-9422(82)85050-4|10.1016/S0031-9422(82)85078-4|10.1016/S0031-9422(82)85080-2|10.1016/S0031-9422(96)00402-5|10.1016/S0031-9422(96)00479-7|10.1016/S0031-9422(96)00517-1|10.1016/S0031-9422(96)00541-9|10.1016/S0031-9422(96)00560-2|10.1016/S0031-9422(96)00588-2|10.1016/S0031-9422(96)00644-9|10.1016/S0031-9422(96)00652-8|10.1016/S0031-9422(96)00680-2|10.1016/S0031-9422(96)00709-1|10.1016/S0031-9422(96)00714-5|10.1016/S0031-9422(96)00718-2|10.1016/S0031-9422(96)00747-9|10.1016/S0031-9422(96)00818-7|10.1016/S0031-9422(96)00843-6|10.1016/S0031-9422(96)00877-1|10.1016/S0031-9422(97)00042-3|10.1016/S0031-9422(97)00075-7|10.1016/S0031-9422(97)00093-9|10.1016/S0031-9422(97)00097-6|10.1016/S0031-9422(97)00101-5|10.1016/S0031-9422(97)00114-3|10.1016/S0031-9422(97)00140-4|10.1016/S0031-9422(97)00146-5|10.1016/S0031-9422(97)00167-2|10.1016/S0031-9422(97)00168-4|10.1016/S0031-9422(97)00172-6|10.1016/S0031-9422(97)00195-7|10.1016/S0031-9422(97)00225-2|10.1016/S0031-9422(97)00235-5|10.1016/S0031-9422(97)00251-3|10.1016/S0031-9422(97)00280-X|10.1016/S0031-9422(97)00312-9|10.1016/S0031-9422(97)00313-0|10.1016/S0031-9422(97)00399-3|10.1016/S0031-9422(97)00414-7|10.1016/S0031-9422(97)00418-4|10.1016/S0031-9422(97)00472-X|10.1016/S0031-9422(97)00493-7|10.1016/S0031-9422(97)00497-4|10.1016/S0031-9422(97)00540-2|10.1016/S0031-9422(97)00541-4|10.1016/S0031-9422(97)00542-6|10.1016/S0031-9422(97)00628-6|10.1016/S0031-9422(97)00671-7|10.1016/S0031-9422(97)00698-5|10.1016/S0031-9422(97)00747-4|10.1016/S0031-9422(97)00760-7|10.1016/S0031-9422(97)00783-8|10.1016/S0031-9422(97)00786-3|10.1016/S0031-9422(97)00828-5|10.1016/S0031-9422(97)00872-8|10.1016/S0031-9422(97)00873-X|10.1016/S0031-9422(97)00889-3|10.1016/S0031-9422(97)01011-X|10.1016/S0031-9422(97)01020-0|10.1016/S0031-9422(97)01045-5|10.1016/S0031-9422(97)01073-X|10.1016/S0031-9422(97)01086-8|10.1016/S0031-9422(97)01126-6|10.1016/S0031-9422(97)80021-0|10.1016/S0031-9422(97)80029-5|10.1016/S0031-9422(97)80031-3|10.1016/S0031-9422(97)80032-5|10.1016/S0031-9422(98)00017-X|10.1016/S0031-9422(98)00092-2|10.1016/S0031-9422(98)00159-9|10.1016/S0031-9422(98)00208-8|10.1016/S0031-9422(98)00214-3|10.1016/S0031-9422(98)00223-4|10.1016/S0031-9422(98)00234-9|10.1016/S0031-9422(98)00302-1|10.1016/S0031-9422(98)00325-2|10.1016/S0031-9422(98)00354-9|10.1016/S0031-9422(98)00383-5|10.1016/S0031-9422(98)00519-6|10.1016/S0031-9422(98)00520-2|10.1016/S0031-9422(98)00555-X|10.1016/S0031-9422(98)00583-4|10.1016/S0031-9422(98)00634-7|10.1016/S0031-9422(98)00656-6|10.1016/S0031-9422(98)00709-2|10.1016/S0031-9422(98)00771-7|10.1016/S0031-9422(98)80009-5|10.1016/S0031-9422(98)80068-X|10.1016/S0031-9422(98)80083-6|10.1016/S0031-9422(99)00074-6|10.1016/S0031-9422(99)00097-7|10.1016/S0031-9422(99)00158-2|10.1016/S0031-9422(99)00176-4|10.1016/S0031-9422(99)00183-1|10.1016/S0031-9422(99)00207-1|10.1016/S0031-9422(99)00251-4|10.1016/S0031-9422(99)00291-5|10.1016/S0031-9422(99)00336-2|10.1016/S0031-9422(99)00390-8|10.1016/S0031-9422(99)00412-4|10.1016/S0031-9422(99)00426-4|10.1016/S0031-9422(99)00455-0|10.1016/S0031-9422(99)00457-4|10.1016/S0031-9422(99)00524-5|10.1016/S0031-9422(99)00578-6|10.1016/S0031-9422(99)00584-1|10.1016/S0031-9422(99)00606-8|10.1016/S0031-9422(99)00608-1|10.1016/S0039-128X(02)00033-8|10.1016/S0040-4020(01)82575-8|10.1016/S0040-4020(01)85914-7|10.1016/S0040-4020(01)88936-5|10.1016/S0040-4020(01)90428-4|10.1016/S0040-4020(01)98893-3|10.1016/S0040-4039(00)00428-7|10.1016/S0040-4039(00)80097-0|10.1016/S0040-4039(00)90885-2|10.1016/S0040-4039(01)97003-0|10.1016/S0040-4039(97)01032-0|10.1016/S0040-4039(97)10404-X|10.1016/S0090-4295(99)00549-X|10.1016/S0168-9452(97)00241-0|10.1016/S0304-3835(96)04463-1|10.1016/S0305-1978(00)00010-7|10.1016/S0305-1978(00)00054-5|10.1016/S0305-1978(00)00063-6|10.1016/S0305-1978(01)00072-2|10.1016/S0305-1978(01)00095-3|10.1016/S0305-1978(01)00096-5|10.1016/S0305-1978(01)00126-0|10.1016/S0305-1978(01)00127-2|10.1016/S0305-1978(01)00130-2|10.1016/S0305-1978(02)00041-8|10.1016/S0305-1978(02)00084-4|10.1016/S0305-1978(02)00180-1|10.1016/S0305-1978(02)00249-1|10.1016/S0305-1978(97)00048-3|10.1016/S0305-1978(97)00080-X|10.1016/S0305-1978(97)00128-2|10.1016/S0305-1978(98)00055-6|10.1016/S0305-1978(98)00061-1|10.1016/S0305-1978(98)00107-0|10.1016/S0305-1978(99)00064-2|10.1016/S0305-1978(99)00081-2|10.1016/S0305-1978(99)00085-X|10.1016/S0305-1978(99)00092-7|10.1016/S0367-326X(00)00149-0|10.1016/S0367-326X(00)00155-6|10.1016/S0367-326X(00)00223-9|10.1016/S0367-326X(00)00233-1|10.1016/S0367-326X(00)00239-2|10.1016/S0367-326X(00)00242-2|10.1016/S0367-326X(00)00258-6|10.1016/S0367-326X(00)00265-3|10.1016/S0367-326X(00)00279-3|10.1016/S0367-326X(00)00287-2|10.1016/S0367-326X(00)00316-6|10.1016/S0367-326X(00)00319-1|10.1016/S0367-326X(00)00338-5|10.1016/S0367-326X(01)00267-2|10.1016/S0367-326X(01)00269-6|10.1016/S0367-326X(01)00287-8|10.1016/S0367-326X(01)00290-8|10.1016/S0367-326X(01)00303-3|10.1016/S0367-326X(01)00307-0|10.1016/S0367-326X(01)00317-3|10.1016/S0367-326X(01)00327-6|10.1016/S0367-326X(01)00342-2|10.1016/S0367-326X(01)00366-5|10.1016/S0367-326X(01)00370-7|10.1016/S0367-326X(02)00069-2|10.1016/S0367-326X(03)00056-X|10.1016/S0367-326X(03)00107-2|10.1016/S0367-326X(98)00026-4|10.1016/S0367-326X(99)00019-2|10.1016/S0367-326X(99)00022-2|10.1016/S0367-326X(99)00057-X|10.1016/S0367-326X(99)00060-X|10.1016/S0367-326X(99)00064-7|10.1016/S0367-326X(99)00163-X|10.1016/S0378-8741(01)00352-X|10.1016/S0378-8741(01)00414-7|10.1016/S0378-8741(02)00165-4|10.1016/S0378-8741(02)00172-1|10.1016/S0378-8741(97)00039-1|10.1016/S0378-8741(99)00159-2|10.1016/S0731-7085(00)00404-0|10.1016/S0896-8446(01)00110-3|10.1016/S0896-8446(02)00012-8|10.1016/S0926-6690(01)00091-7|10.1016/S0928-3420(99)80040-8|10.1016/S0944-7113(96)80073-0|10.1016/S0944-7113(98)80005-6|10.1016/S0944-7113(98)80006-8|10.1016/S0944-7113(98)80020-2|10.1016/S0944-7113(99)80033-6|10.1016/S0960-894X(97)10220-7|10.1016/S1383-5718(99)00025-X|10.1016/S1572-5995(97)80031-2|10.1016/j.bmc.2007.10.072|10.1016/j.bmc.2010.01.010|10.1016/j.bmcl.2009.04.129|10.1016/j.bmcl.2010.12.025|10.1016/j.bmcl.2011.02.003|10.1016/j.bmcl.2013.03.007|10.1016/j.bse.2005.10.012|10.1016/j.clnu.2005.01.001|10.1016/j.foodres.2020.109416|10.1016/j.jep.2010.11.057|10.1016/j.sajb.2011.09.001|10.1016/s0031-9422(98)00092-2|10.1021/ACS.JAFC.6B01323|10.1021/ACSOMEGA.3C03071|10.1021/JF000135O|10.1021/JF00043A032|10.1021/JF000467T|10.1021/JF00048A018|10.1021/JF00077A037|10.1021/JF00089A034|10.1021/JF00102A014|10.1021/JF00114A018|10.1021/JF010701V|10.1021/JF010813M|10.1021/JF020262F|10.1021/JF020486Y|10.1021/JF020660I|10.1021/JF025848G|10.1021/JF040017R|10.1021/JF0483117|10.1021/JF061058L|10.1021/JF071963L|10.1021/JF100323Q|10.1021/JF60200A011|10.1021/JF60213A026|10.1021/JF60232A043|10.1021/JF903629J|10.1021/JO00134A007|10.1021/JO00252A010|10.1021/JO00298A026|10.1021/JO00829A053|10.1021/JO01064A066|10.1021/JO01273A049|10.1021/NP000071B|10.1021/NP000093Y|10.1021/NP000155K|10.1021/NP000176E|10.1021/NP0002233|10.1021/NP000257A|10.1021/NP0002583|10.1021/NP0002886|10.1021/NP000486X|10.1021/NP0005107|10.1021/NP0005309|10.1021/NP010004X|10.1021/NP010042G|10.1021/NP010073B|10.1021/NP0100744|10.1021/NP010091T|10.1021/NP010122K|10.1021/NP010236W|10.1021/NP020038K|10.1021/NP020099I|10.1021/NP0201164|10.1021/NP020127X|10.1021/NP0201523|10.1021/NP020178U|10.1021/NP020233Z|10.1021/NP0203739|10.1021/NP020513E|10.1021/NP020517J|10.1021/NP0205856|10.1021/NP0206108|10.1021/NP030034V|10.1021/NP030069V|10.1021/NP0301083|10.1021/NP030117B|10.1021/NP0301238|10.1021/NP0301893|10.1021/NP030235Z|10.1021/NP030241V|10.1021/NP030241V.S001|10.1021/NP030278F|10.1021/NP030359B|10.1021/NP030374G|10.1021/NP0304417|10.1021/NP0304417.S001|10.1021/NP030479J|10.1021/NP030479J.S001|10.1021/NP030485F|10.1021/NP030531B|10.1021/NP030556A|10.1021/NP040006S|10.1021/NP040041Z|10.1021/NP040142X|10.1021/NP040149E|10.1021/NP040219H|10.1021/NP0496688|10.1021/NP0496845|10.1021/NP0497245|10.1021/NP049831Z|10.1021/NP0499158|10.1021/NP0501740|10.1021/NP050383K|10.1021/NP0504863|10.1021/NP0580210|10.1021/NP060038A.S001|10.1021/NP060107L|10.1021/NP0601354.S001|10.1021/NP0601354.S002|10.1021/NP060166Z|10.1021/NP060284M|10.1021/NP060284M.S001|10.1021/NP060425K|10.1021/NP060430O|10.1021/NP060500R|10.1021/NP070019G|10.1021/NP070038Q|10.1021/NP070154T|10.1021/NP070174V|10.1021/NP070186G|10.1021/NP070474C|10.1021/NP070594K|10.1021/NP070618N|10.1021/NP100127K|10.1021/NP1002516|10.1021/NP100373F|10.1021/NP100440P|10.1021/NP100531X|10.1021/NP100566V|10.1021/NP1008575|10.1021/NP100874F|10.1021/NP100896W|10.1021/NP100902F|10.1021/NP100923Z|10.1021/NP2000914|10.1021/NP200279R|10.1021/NP2002918|10.1021/NP200559C|10.1021/NP50004A011|10.1021/NP50008A001|10.1021/NP50008A007|10.1021/NP50009A006|10.1021/NP50009A016|10.1021/NP50010A017|10.1021/NP50013A020|10.1021/NP50015A025|10.1021/NP50017A002|10.1021/NP50018A023|10.1021/NP50024A017|10.1021/NP50025A019|10.1021/NP50027A018|10.1021/NP50027A025|10.1021/NP50028A035|10.1021/NP50029A027|10.1021/NP50030A017|10.1021/NP50030A021|10.1021/NP50030A022|10.1021/NP50030A026|10.1021/NP50031A028|10.1021/NP50031A033|10.1021/NP50031A037|10.1021/NP50032A017|10.1021/NP50032A024|10.1021/NP50032A029|10.1021/NP50032A034|10.1021/NP50033A005|10.1021/NP50033A041|10.1021/NP50034A036|10.1021/NP50034A043|10.1021/NP50035A008|10.1021/NP50035A032|10.1021/NP50035A039|10.1021/NP50036A047|10.1021/NP50037A031|10.1021/NP50037A033|10.1021/NP50037A035|10.1021/NP50039A027|10.1021/NP50040A039|10.1021/NP50040A042|10.1021/NP50041A017|10.1021/NP50041A019|10.1021/NP50041A043|10.1021/NP50042A027|10.1021/NP50042A030|10.1021/NP50042A034|10.1021/NP50044A005|10.1021/NP50044A011|10.1021/NP50044A019|10.1021/NP50044A031|10.1021/NP50045A034|10.1021/NP50045A039|10.1021/NP50046A026|10.1021/NP50046A034|10.1021/NP50046A035|10.1021/NP50047A044|10.1021/NP50048A014|10.1021/NP50048A050|10.1021/NP50048A054|10.1021/NP50050A017|10.1021/NP50050A045|10.1021/NP50050A057|10.1021/NP50051A034|10.1021/NP50052A029|10.1021/NP50052A039|10.1021/NP50053A018|10.1021/NP50054A029|10.1021/NP50054A035|10.1021/NP50055A011|10.1021/NP50055A035|10.1021/NP50056A021|10.1021/NP50057A012|10.1021/NP50057A023|10.1021/NP50057A031|10.1021/NP50057A040|10.1021/NP50058A014|10.1021/NP50060A034|10.1021/NP50061A015|10.1021/NP50063A023|10.1021/NP50064A021|10.1021/NP50064A024|10.1021/NP50064A028|10.1021/NP50066A029|10.1021/NP50067A028|10.1021/NP50068A032|10.1021/NP50068A044|10.1021/NP50069A024|10.1021/NP50071A032|10.1021/NP50071A033|10.1021/NP50072A005|10.1021/NP50072A032|10.1021/NP50074A017|10.1021/NP50074A033|10.1021/NP50076A008|10.1021/NP50077A010|10.1021/NP50077A012|10.1021/NP50078A015|10.1021/NP50080A002|10.1021/NP50085A015|10.1021/NP50085A018|10.1021/NP50088A020|10.1021/NP50089A008|10.1021/NP50090A007|10.1021/NP50091A003|10.1021/NP50092A016|10.1021/NP50094A023|10.1021/NP50094A024|10.1021/NP50096A031|10.1021/NP50100A022|10.1021/NP50101A008|10.1021/NP50101A026|10.1021/NP50102A017|10.1021/NP50103A022|10.1021/NP50104A001|10.1021/NP50105A012|10.1021/NP50114A003|10.1021/NP50116A023|10.1021/NP50121A011|10.1021/NP700719E|10.1021/NP800001V|10.1021/NP800041T|10.1021/NP800093A|10.1021/NP800097T|10.1021/NP800106X|10.1021/NP8001145|10.1021/NP800307H|10.1021/NP800509U|10.1021/NP8006364|10.1021/NP800643N|10.1021/NP800721F|10.1021/NP800762X|10.1021/NP800830V|10.1021/NP900068T|10.1021/NP900158F|10.1021/NP900225P|10.1021/NP900305J|10.1021/NP900341F|10.1021/NP960134J|10.1021/NP9601824|10.1021/NP960330Q|10.1021/NP960385S|10.1021/NP9603941|10.1021/NP960402D|10.1021/NP960412E|10.1021/NP960452I|10.1021/NP960515X|10.1021/NP9606153|10.1021/NP9700782|10.1021/NP970422V|10.1021/NP9804278|10.1021/NP9804740|10.1021/NP980543A|10.1021/NP990009I|10.1021/NP990029K|10.1021/NP990092+|10.1021/NP990226J|10.1021/NP990426V|10.1021/NP990483O|10.1021/NP990495+|10.1021/NP990523O|10.1021/NP990548N|10.1021/NP9905923|10.1021/acs.jnatprod.5b00858|10.1021/acs.jnatprod.8b00079|10.1021/acs.jnatprod.9b00363|10.1021/acs.jnatprod.9b00674|10.1021/jf071801p|10.1021/np030034v|10.1021/np030241v|10.1021/np030556a|10.1021/np0496845|10.1021/np060284m|10.1021/np060500r|10.1021/np070038q|10.1021/np100373f|10.1021/np100440p|10.1021/np100531x|10.1021/np100566v|10.1021/np1008575|10.1021/np100874f|10.1021/np100896w|10.1021/np100902f|10.1021/np100923z|10.1021/np2000914|10.1021/np200279r|10.1021/np2002918|10.1021/np800001v|10.1021/np800097t|10.1021/np900068t|10.1021/np900305j|10.1023/B:CONC.0000025478.84294.5B|10.1038/177935A0|10.1038/NPLANTS.2016.205|10.1038/s41598-022-14381-w|10.1039/C39850000148|10.1039/C39860001139|10.1039/C39940000773|10.1039/J39670000329|10.1039/J39680001974|10.1039/JR9440000336|10.1039/P19720001935|10.1039/P19770000483|10.1039/P19790002696|10.1039/P19810002717|10.1039/P19810002724|10.1039/P19810002764|10.1039/P19830000147|10.1039/P19830001681|10.1039/P19860001181|10.1039/P19870000629|10.1039/P19880002407|10.1042/BJ0990735|10.1042/BST021462S|10.1051/CTV/20163101031|10.1055/S-0028-1084385|10.1055/S-0028-1084416|10.1055/S-0028-1084474|10.1055/S-0028-1097297|10.1055/S-0028-1097371|10.1055/S-0028-1097442|10.1055/S-0028-1097462|10.1055/S-0028-1097490|10.1055/S-0028-1097580|10.1055/S-0028-1097592|10.1055/S-0028-1097595|10.1055/S-0028-1097596|10.1055/S-0028-1097667|10.1055/S-0028-1097670|10.1055/S-0028-1097836|10.1055/S-0028-1097949|10.1055/S-0028-1097973|10.1055/S-0028-1099456|10.1055/S-0028-1099493|10.1055/S-0028-1099512|10.1055/S-0028-1099516|10.1055/S-0028-1099537|10.1055/S-0028-1099554|10.1055/S-0028-1099670|10.1055/S-0028-1099866|10.1055/S-0029-1234987|10.1055/S-0029-1234988|10.1055/S-0029-1241017|10.1055/S-0029-1243132|10.1055/S-0030-1264773|10.1055/S-0035-1545209|10.1055/S-0035-1545721|10.1055/S-1999-13965|10.1055/S-1999-14026|10.1055/S-2000-11120|10.1055/S-2000-8538|10.1055/S-2000-8544|10.1055/S-2000-8564|10.1055/S-2000-8595|10.1055/S-2000-8607|10.1055/S-2000-8629|10.1055/S-2000-8632|10.1055/S-2000-8648|10.1055/S-2000-8654|10.1055/S-2000-9901|10.1055/S-2001-11496|10.1055/S-2001-15813|10.1055/S-2001-15823|10.1055/S-2001-16480|10.1055/S-2001-17357|10.1055/S-2001-18359|10.1055/S-2001-18840|10.1055/S-2002-20260|10.1055/S-2002-26750|10.1055/S-2002-32898|10.1055/S-2002-32899|10.1055/S-2002-34408|10.1055/S-2002-35660|10.1055/S-2003-38872|10.1055/S-2003-39705|10.1055/S-2003-41109|10.1055/S-2003-41120|10.1055/S-2003-41123|10.1055/S-2003-42796|10.1055/S-2003-45098|10.1055/S-2003-45110|10.1055/S-2004-815540|10.1055/S-2004-818920|10.1055/S-2004-818980|10.1055/S-2004-827159|10.1055/S-2005-837786|10.1055/S-2005-837818|10.1055/S-2005-864107|10.1055/S-2005-873125|10.1055/S-2005-873169|10.1055/S-2005-916220|10.1055/S-2006-946638|10.1055/S-2006-951766|10.1055/S-2006-957356|10.1055/S-2006-957375|10.1055/S-2006-957406|10.1055/S-2006-957414|10.1055/S-2006-957431|10.1055/S-2006-957481|10.1055/S-2006-957535|10.1055/S-2006-957544|10.1055/S-2006-957574|10.1055/S-2006-957678|10.1055/S-2006-957683|10.1055/S-2006-957688|10.1055/S-2006-957703|10.1055/S-2006-957741|10.1055/S-2006-957773|10.1055/S-2006-957780|10.1055/S-2006-957793|10.1055/S-2006-957841|10.1055/S-2006-957846|10.1055/S-2006-957847|10.1055/S-2006-957857|10.1055/S-2006-957961|10.1055/S-2006-957987|10.1055/S-2006-958023|10.1055/S-2006-958035|10.1055/S-2006-958083|10.1055/S-2006-958085|10.1055/S-2006-959380|10.1055/S-2006-959392|10.1055/S-2006-959455|10.1055/S-2006-959472|10.1055/S-2006-959482|10.1055/S-2006-959567|10.1055/S-2006-959579|10.1055/S-2006-959585|10.1055/S-2006-959637|10.1055/S-2006-959736|10.1055/S-2006-959742|10.1055/S-2006-960187|10.1055/S-2006-960188|10.1055/S-2006-960452|10.1055/S-2006-960835|10.1055/S-2006-960850|10.1055/S-2006-960854|10.1055/S-2006-960893|10.1055/S-2006-960942|10.1055/S-2006-960945|10.1055/S-2006-960977|10.1055/S-2006-960999|10.1055/S-2006-961433|10.1055/S-2006-961453|10.1055/S-2006-961486|10.1055/S-2006-961488|10.1055/S-2006-961492|10.1055/S-2006-961513|10.1055/S-2006-961529|10.1055/S-2006-961827|10.1055/S-2006-961923|10.1055/S-2006-962030|10.1055/S-2006-962041|10.1055/S-2006-962108|10.1055/S-2006-962397|10.1055/S-2006-962409|10.1055/S-2006-962459|10.1055/S-2006-962517|10.1055/S-2006-962619|10.1055/S-2006-962665|10.1055/S-2006-962679|10.1055/S-2006-962793|10.1055/S-2006-962794|10.1055/S-2007-967166|10.1055/S-2007-967195|10.1055/S-2007-969047|10.1055/S-2007-969163|10.1055/S-2007-969178|10.1055/S-2007-969186|10.1055/S-2007-969208|10.1055/S-2007-969393|10.1055/S-2007-969440|10.1055/S-2007-969445|10.1055/S-2007-969451|10.1055/S-2007-969478|10.1055/S-2007-969511|10.1055/S-2007-969569|10.1055/S-2007-969590|10.1055/S-2007-969764|10.1055/S-2007-969783|10.1055/S-2007-969792|10.1055/S-2007-969807|10.1055/S-2007-969816|10.1055/S-2007-969854|10.1055/S-2007-969993|10.1055/S-2007-971241|10.1055/S-2007-971248|10.1055/S-2007-981529|10.1055/S-2007-981593|10.1055/S-2007-981619|10.1055/S-2008-1034301|10.1055/S-2008-1074536|10.1055/S-2008-1081295|10.1071/C97195|10.1071/CH00100|10.1071/CH01101|10.1071/CH02151|10.1071/CH9570480|10.1071/CH9620314|10.1071/CH9652043|10.1071/CH9660175|10.1071/CH9720843|10.1071/CH9740187|10.1071/CH9760695|10.1071/CH9762023|10.1071/CH9940587|10.1071/ch9570480|10.1071/ch9630491|10.1076/1388-0209(200007)3831-SFT210|10.1076/PHBI.35.1.49.13273|10.1076/PHBI.35.2.121.13280|10.1076/PHBI.37.1.54.6310|10.1076/PHBI.37.2.148.6082|10.1076/PHBI.39.1.20.5941|10.1076/PHBI.39.3.202.5930|10.1076/PHBI.40.2.96.5848|10.1076/PHBI.41.5.375.15938|10.1078/0944-7113-00016|10.1078/0944-7113-00339|10.1078/0944-7113-00381|10.1078/094471102321621386|10.1080/00021369.1977.10862472|10.1080/00021369.1989.10869818|10.1080/00021369.1991.10870794|10.1080/00387019909350045|10.1080/02652030701216727|10.1080/10.575630290015736|10.1080/10286020.2010.485933|10.1080/10286020.2010.503652|10.1080/10286020.2010.543130|10.1080/10286020.2010.546355|10.1080/10286020.2011.602015|10.1080/10286020.2011.619183|10.1080/10286020108040371|10.1080/10286020108040373|10.1080/10286020290019631|10.1080/10286020290019730|10.1080/10286020290027443|10.1080/10286020290028992|10.1080/1028602031000082016|10.1080/1028602031000093384|10.1080/1028602031000147393|10.1080/10286020310001596024|10.1080/10286020310001653291|10.1080/1028602042000204081|10.1080/10286020903482810|10.1080/10286021003730330|10.1080/10286021003762028|10.1080/10412905.1991.9697919|10.1080/10412905.1994.9698432|10.1080/10575630108041267|10.1080/10575630108041297|10.1080/10575630108041299|10.1080/1057563029001/4845|10.1080/10575630290020046|10.1080/10575630290020578|10.1080/10575630290020604|10.1080/10575630290034302|10.1080/10575639208048902|10.1080/10575639408043928|10.1080/10575639408044918|10.1080/10575639508043184|10.1080/10575639508043204|10.1080/10575639608043574|10.1080/10575639608043580|10.1080/10575639608044930|10.1080/10575639708043696|10.1080/10575639708043746|10.1080/10575639908045430|10.1080/10575639908048785|10.1080/13102818.2001.10819125|10.1080/13880200500220268|10.1080/13880200902933039|10.1080/14786410310001605841|10.1080/14786410310001608019|10.1080/14786410310001608136|10.1080/14786410310001630519|10.1080/14786410310001643902|10.1080/14786410412331272095|10.1080/14786410500161205|10.1080/14786410802116725|10.1080/14786410802214009|10.1080/14786410802228439|10.1080/14786410802253197|10.1080/14786410802362204|10.1080/14786410802401432|10.1080/14786410802435679|10.1080/14786410802682239|10.1080/14786410802696247|10.1080/14786410802696429|10.1080/14786410902726183|10.1080/14786410902757899|10.1080/14786410902833948|10.1080/14786410903040402|10.1080/14786410903387688|10.1080/14786411003754223|10.1080/14786411003754298|10.1080/14786419.2010.482052|10.1080/14786419.2010.506181|10.1080/14786419.2010.534735|10.1080/14786419.2010.538924|10.1080/14786419.2010.539182|10.1080/14786419.2010.541879|10.1080/14786419.2011.606219|10.1093/JXB/ERG184|10.1111/1750-3841.15463|10.1111/J.1365-2621.1990.TB06074.X|10.1111/J.1399-3054.1987.TB04313.X|10.1111/J.1744-7909.2005.00060.X|10.1111/J.1744-7909.2005.00127.X|10.1111/J.1744-7909.2006.00279.X|10.1126/SCIENCE.161.3846.1145|10.1135/CCCC19773487|10.1135/CCCC19820664|10.1135/CCCC19840852|10.1135/CCCC19842661|10.1135/CCCC19861509|10.1139/V06-164|10.1139/V08-097|10.1139/V61-225|10.1139/V61-339|10.1139/V87-002|10.1139/V87-023|10.1139/V92-182|10.1142/S0192415X93000108|10.1155/2017/2840718|10.1155/2017/7436259|10.1177/1934578X0600100104|10.1177/1934578X0900400302|10.1177/1934578X1000501117|10.1186/2191-2858-2-1|10.1186/S12906-017-1561-2|10.1201/9780203022320.CH4|10.1201/B14669-29|10.1207/S15327914NC3602_14|10.1211/0022357021779014|10.1246/BCSJ.3.53|10.1246/BCSJ.39.2532|10.1246/BCSJ.45.223|10.1246/BCSJ.45.930|10.1246/CL.1985.443|10.1246/NIKKASHI.1992.423|10.1246/NIKKASHI.1994.493|10.1248/BPB.21.1072|10.1248/BPB.25.1053|10.1248/BPB.30.999|10.1248/BPB.33.316|10.1248/CPB.16.326|10.1248/CPB.17.124|10.1248/CPB.22.971|10.1248/CPB.28.717|10.1248/CPB.29.261|10.1248/CPB.29.2807|10.1248/CPB.30.1496|10.1248/CPB.30.4518|10.1248/CPB.31.1366|10.1248/CPB.32.1729|10.1248/CPB.32.3003|10.1248/CPB.32.325|10.1248/CPB.33.4132|10.1248/CPB.34.1672|10.1248/CPB.34.4562|10.1248/CPB.34.726|10.1248/CPB.35.1610|10.1248/CPB.35.3292|10.1248/CPB.36.1180|10.1248/CPB.36.3147|10.1248/CPB.37.1300|10.1248/CPB.37.2431|10.1248/CPB.37.3214|10.1248/CPB.37.560|10.1248/CPB.38.2130|10.1248/CPB.38.3195|10.1248/CPB.38.342|10.1248/CPB.39.1310|10.1248/CPB.39.2271|10.1248/CPB.40.1510|10.1248/CPB.41.1238|10.1248/CPB.41.1472|10.1248/CPB.41.2007|10.1248/CPB.41.617|10.1248/CPB.41.624|10.1248/CPB.41.832|10.1248/CPB.41.923|10.1248/CPB.42.138|10.1248/CPB.42.228|10.1248/CPB.43.1462|10.1248/CPB.46.1408|10.1248/CPB.46.1647|10.1248/CPB.47.1152|10.1248/CPB.47.141|10.1248/CPB.47.1448|10.1248/CPB.47.1618|10.1248/CPB.47.375|10.1248/CPB.47.571|10.1248/CPB.47.887|10.1248/CPB.48.1190|10.1248/CPB.48.1427|10.1248/CPB.48.1711|10.1248/CPB.48.1726|10.1248/CPB.48.357|10.1248/CPB.48.496|10.1248/CPB.49.1226|10.1248/CPB.49.1356|10.1248/CPB.49.1380|10.1248/CPB.51.1318|10.1248/CPB.51.1439|10.1248/CPB.51.483|10.1248/CPB.51.599|10.1248/CPB.51.885|10.1248/CPB.51.948|10.1248/CPB.52.1235|10.1248/CPB.52.1249|10.1248/CPB.52.1255|10.1248/CPB.52.1349|10.1248/CPB.52.1462|10.1248/CPB.52.345|10.1248/CPB.52.441|10.1248/CPB.52.507|10.1248/CPB.53.1327|10.1248/CPB.53.1335|10.1248/CPB.53.1338|10.1248/CPB.53.1355|10.1248/CPB.53.378|10.1248/CPB.53.561|10.1248/CPB.53.616|10.1248/CPB.53.836|10.1248/CPB.54.1017|10.1248/CPB.54.1030|10.1248/CPB.54.1063|10.1248/CPB.54.1223|10.1248/CPB.54.1421|10.1248/CPB.54.149|10.1248/CPB.54.1530|10.1248/CPB.54.292|10.1248/CPB.54.448|10.1248/CPB.54.542|10.1248/CPB.54.920|10.1248/CPB.55.1258|10.1248/CPB.55.1402|10.1248/CPB.55.15|10.1248/CPB.55.1528|10.1248/CPB.55.153|10.1248/CPB.55.1597|10.1248/CPB.55.1744|10.1248/CPB.55.308|10.1248/CPB.55.577|10.1248/CPB.55.784|10.1248/CPB.55.902|10.1248/CPB.56.115|10.1248/CPB.56.1321|10.1248/CPB.56.1628|10.1248/CPB.56.203|10.1248/CPB.56.394|10.1248/CPB.56.711|10.1248/CPB.56.835|10.1248/CPB.56.839|10.1248/CPB.56.847|10.1248/CPB.56.97|10.1248/CPB.57.1119|10.1248/CPB.57.1227|10.1248/CPB.57.1267|10.1248/CPB.57.1352|10.1248/CPB.57.411|10.1248/CPB.57.415|10.1248/CPB.57.532|10.1248/CPB.57.860|10.1248/CPB.58.1646|10.1248/CPB.58.549|10.1248/CPB.58.628|10.1248/CPB.58.971|10.1248/CPB.59.1396|10.1248/CPB.59.365|10.1248/CPB.59.778|10.1248/YAKUSHI1947.103.1_43|10.1248/YAKUSHI1947.103.6_612|10.1248/YAKUSHI1947.103.9_997|10.1248/YAKUSHI1947.104.10_1030|10.1248/YAKUSHI1947.104.4_390|10.1248/YAKUSHI1947.104.5_535|10.1248/YAKUSHI1947.104.7_753|10.1248/YAKUSHI1947.105.5_442|10.1248/YAKUSHI1947.105.6_542|10.1248/YAKUSHI1947.106.12_1092|10.1248/YAKUSHI1947.107.1_23|10.1248/YAKUSHI1947.108.7_647|10.1248/YAKUSHI1947.109.3_175|10.1248/YAKUSHI1947.109.3_188|10.1248/YAKUSHI1947.110.5_354|10.1248/YAKUSHI1947.111.2_120|10.1248/YAKUSHI1947.111.6_299|10.1248/YAKUSHI1947.112.2_115|10.1248/YAKUSHI1947.115.4_295|10.1248/YAKUSHI1947.94.12_1593|10.1248/YAKUSHI1947.94.12_1634|10.1248/YAKUSHI1947.95.1_108|10.1248/YAKUSHI1947.96.10_1202|10.1262/JRD.49.175|10.1271/BBB.56.834|10.1271/BBB.59.526|10.1271/BBB.60.654|10.1271/BBB.63.1800|10.1271/BBB1961.43.2297|10.1271/BBB1961.48.2523|10.1271/BBB1961.55.1627|10.1271/NOGEIKAGAKU1924.59.895|10.1300/J044V05N02_05|10.1365/S10337-008-0921-Y|10.1371/JOURNAL.PONE.0214193|10.14232/FGYKF.2018.A2|10.14233/AJCHEM.2013.13000|10.14233/AJCHEM.2014.16935|10.1515/ZNB-1978-0231|10.1515/ZNB-1997-0319|10.1515/ZNB-1999-0616|10.1515/ZNB-2000-0116|10.1515/ZNB-2002-0817|10.1515/ZNB-2004-0316|10.1515/ZNB-2004-0809|10.1515/ZNB-2005-0418|10.1515/ZNB-2005-0715|10.1515/ZNB-2006-0910|10.1515/ZNB-2006-0914|10.1515/ZNB-2008-0518|10.1515/ZNB-2011-0610|10.1515/ZNC-1983-5-628|10.1515/ZNC-1985-5-607|10.1515/ZNC-1988-3-404|10.1515/ZNC-1991-1-203|10.1515/ZNC-1992-7-805|10.1515/ZNC-1997-3-420|10.1515/ZNC-1999-1113|10.1515/ZNC-1999-1220|10.1515/ZNC-2000-5-629|10.1515/ZNC-2000-7-802|10.1515/ZNC-2000-9-1029|10.1515/ZNC-2001-1-203|10.1515/ZNC-2001-11-1210|10.1515/ZNC-2002-1-214|10.1515/ZNC-2002-11-1203|10.1515/ZNC-2002-3-406|10.1515/ZNC-2002-7-804|10.1515/ZNC-2002-7-805|10.1515/ZNC-2002-7-808|10.1515/ZNC-2002-9-1003|10.1515/ZNC-2003-3-411|10.1515/ZNC-2003-9-1002|10.1515/ZNC-2003-9-1009|10.1524/ZKRI.1996.211.10.725|10.1556/ACHROM.21.2009.4.11|10.1590/1809-43921977071041|10.1590/1809-43921982123668|10.1590/1809-43921982124801|10.1590/1809-43921982124805|10.1590/1809-43921983132409|10.1590/1809-43921984143453|10.1590/S0001-37652002000300004|10.1590/S0074-02761991000600044|10.1590/S0100-40422008000400005|10.1590/S0100-40422009000800010|10.1590/S0100-40422010001000014|10.1590/S0100-40422010001000024|10.1590/S0100-40422012001100004|10.1590/S0100-46702002000100009|10.1590/S0102-695X2006000200006|10.1590/S0102-695X2008000100003|10.1590/S0102-695X2008000100011|10.1590/S0102-695X2009000300005|10.1590/S0102-695X2011005000107|10.1590/S0103-50531997000300009|10.1590/S0103-50531997000300013|10.1590/S0103-50531997000500011|10.1590/S0103-50531997000500016|10.1590/S0103-50531998000100016|10.1590/S0103-50531998000500004|10.1590/S0103-50531999000200005|10.1590/S0103-50531999000200009|10.1590/S0103-50531999000200015|10.1590/S0103-50531999000300013|10.1590/S0103-50531999000600017|10.1590/S0103-50532000000300005|10.1590/S0103-50532001000200009|10.1590/S0103-50532001000300008|10.1590/S0103-50532001000300010|10.1590/S0103-50532001000300014|10.1590/S0103-50532001000400004|10.1590/S0103-50532001000400019|10.1590/S0103-50532001000600016|10.1590/S0103-50532002000100020|10.1590/S0103-50532002000200023|10.1590/S0103-50532002000300014|10.1590/S0103-50532002000500021|10.1590/S0103-50532003000300021|10.1590/S0103-50532003000500006|10.1590/S0103-50532004000100023|10.1590/S0103-50532004000300008|10.1590/S0103-50532005000800007|10.1590/S0103-50532006000200010|10.1590/S0103-50532009000900006|10.1590/S0103-50532011000600016|10.1590/S1516-89132011000100008|10.1663/0013-0001(2003)057[0054:NIFHEA]2.0.CO;2|10.19261/CJM.2008.03(2).07|10.21608/BFSA.1984.89566|10.21608/BFSA.1984.89568|10.21608/BFSA.1984.89869|10.21608/BFSA.1985.75704|10.21608/BFSA.1985.75705|10.21608/BFSA.1985.75707|10.21608/BFSA.1985.75886|10.21608/BFSA.1986.74466|10.21608/BFSA.1987.74392|10.21608/BFSA.1995.69668|10.21608/BFSA.1995.69697|10.21608/BFSA.1997.68739|10.21608/BFSA.1999.66114|10.21608/BFSA.2000.66323|10.21608/BFSA.2000.66324|10.21608/BFSA.2001.65761|10.21608/BFSA.2001.65958|10.21608/BFSA.2002.65703|10.21608/BFSA.2003.65472|10.21608/BFSA.2003.65484|10.21608/ZJPS.1993.187357|10.21608/ZJPS.1993.187366|10.21608/ZJPS.1994.186612|10.21608/ZJPS.1997.169710|10.2174/1381612825666190313121608|10.2298/JSC110206128R|10.25073/2588-1140/VNUNST.5500|10.25258/IJPAPR.V9I1.8041|10.26459/JNS.V116I2.3763|10.3109/08958378.2013.878005|10.3109/10915819309140647|10.3109/13880206909066289|10.3109/13880208309070642|10.3109/13880208409070644|10.3109/13880208509069005|10.3109/13880208509070678|10.3109/13880209009082796|10.3109/13880209009082803|10.3109/13880209009082805|10.3109/13880209309082963|10.3109/13880209409082993|10.3109/13880209409083017|10.3109/13880209509088143|10.3109/13880209509088144|10.3184/030823401103169315|10.3184/030823409X12526892025865|10.3390/MOLECULES13020212|10.3390/MOLECULES13020255|10.3390/MOLECULES15118469|10.3390/MOLECULES16043018|10.3390/MOLECULES16043146|10.3390/MOLECULES16064539|10.3390/MOLECULES16076010|10.3390/MOLECULES16097249|10.3390/MOLECULES18044477|10.3390/MOLECULES190812031|10.3390/MOLECULES22101606|10.3390/MOLECULES24234322|10.3390/NU11020402|10.3390/foods9060770|10.3390/molecules190812031|10.3390/molecules23123219|10.3390/molecules27020483|10.3724/SP.J.1009.2008.00251|10.3797/SCIPHARM.AUT-00-39|10.3891/ACTA.CHEM.SCAND.11-0997|10.3891/ACTA.CHEM.SCAND.19-0913|10.3923/JBS.2001.843.845|10.3987/COM-02-9470|10.3987/COM-02-9518|10.3987/COM-02-9615|10.3987/COM-02-9647|10.3987/COM-03-9777|10.3987/COM-04-10221|10.3987/COM-08-11630|10.3987/COM-88-S2|10.3987/COM-90-5497|10.3987/COM-91-5862|10.3987/COM-98-S12|10.3987/COM-99-8782|10.3987/R-1983-07-1347|10.3987/R-1984-04-0813|10.3989/GYA.1999.V50.I5.678|10.3998/ark.5550190.0005.606|10.4067/S0717-97072009000300004|10.4103/0974-8490.102269|10.4268/CJCMM20121011|10.4268/CJCMM20132321|10.4268/CJCMM20141227|10.4268/CJCMM20142015|10.4268/CJCMM20150818|10.4268/CJCMM20151817|10.4268/CJCMM20151919|10.4314/TJPR.V14I11.15|10.48141/SBJCHEM.V7.N8.1999.52_1999.PDF|10.5012/BKCS.2009.30.9.2098|10.5012/BKCS.2010.31.01.199|10.5012/BKCS.2010.31.04.1081|10.5012/BKCS.2010.31.10.3025|10.5012/BKCS.2011.32.6.2079|10.5246/JCPS.2011.02.019|10.5586/ASBP.1977.015|10.5586/ASBP.1988.008|10.5650/JOS.50.259|10.5650/JOS1956.44.1012|10.5650/JOS1996.46.1499|10.5650/JOS1996.46.687|10.5650/JOS1996.47.605|10.5650/JOS1996.49.727|10.5650/jos.ess19091|10.5650/jos.ess20128|10.5650/jos.ess21076

>  <synonyms>  (1691) 
nan

>  <cas>  (1691) 
83-46-5|76772-70-8

$$$$

     RDKit          2D

 25 28  0  0  0  0  0  0  0  0999 V2000
    4.1252   -2.9560    0.0000 C   0  0  0  0  0  0  0  0  0  0  0  0
    3.8395   -1.4835    0.0000 O   0  0  0  0  0  0  0  0  0  0  0  0
    2.4214   -0.9947    0.0000 C   0  0  0  0  0  0  0  0  0  0  0  0
    1.2890   -1.9785    0.0000 C   0  0  0  0  0  0  0  0  0  0  0  0
   -0.1291   -1.4897    0.0000 C   0  0  0  0  0  0  0  0  0  0  0  0
   -0.4149   -0.0171    0.0000 C   0  0  0  0  0  0  0  0  0  0  0  0
    0.7175    0.9666    0.0000 C   0  0  0  0  0  0  0  0  0  0  0  0
    2.1356    0.4778    0.0000 C   0  0  0  0  0  0  0  0  0  0  0  0
    3.2680    1.4615    0.0000 O   0  0  0  0  0  0  0  0  0  0  0  0
    4.6861    0.9728    0.0000 C   0  0  0  0  0  0  0  0  0  0  0  0
   -1.8330    0.4716    0.0000 C   0  0  0  0  0  0  0  0  0  0  0  0
   -0.6176    0.9328    0.0000 C   0  0  0  0  0  0  0  0  0  0  0  0
   -0.1359    1.5716    0.0000 C   0  0  0  0  0  0  0  0  0  0  0  0
    2.0476    1.3028    0.0000 O   0  0  0  0  0  0  0  0  0  0  0  0
    2.9507    2.5005    0.0000 C   0  0  0  0  0  0  0  0  0  0  0  0
   -0.4483    2.3081    0.0000 C   0  0  0  0  0  0  0  0  0  0  0  0
   -1.2423    2.4058    0.0000 C   0  0  0  0  0  0  0  0  0  0  0  0
   -2.4187    1.8526    0.0000 C   0  0  0  0  0  0  0  0  0  0  0  0
   -3.9130    1.7223    0.0000 C   0  0  0  0  0  0  0  0  0  0  0  0
   -4.2509    0.2609    0.0000 C   0  0  0  0  0  0  0  0  0  0  0  0
   -2.9654   -0.5121    0.0000 N   0  0  0  0  0  0  0  0  0  0  0  0
   -4.1944   -1.3721    0.0000 O   0  0  0  0  0  0  0  0  0  0  0  0
   -2.6796   -1.9846    0.0000 C   0  0  0  0  0  0  0  0  0  0  0  0
   -1.2615   -2.4734    0.0000 C   0  0  0  0  0  0  0  0  0  0  0  0
   -0.9757   -3.9459    0.0000 O   0  0  0  0  0  0  0  0  0  0  0  0
  1  2  1  0
  2  3  1  0
  3  4  2  0
  4  5  1  0
  5  6  2  0
  6  7  1  0
  7  8  2  0
  8  9  1  0
  9 10  1  0
  6 11  1  0
 11 12  1  6
 12 13  1  0
 13 14  1  6
 14 15  1  0
 13 16  1  0
 16 17  2  0
 17 18  1  0
 18 19  2  0
 19 20  1  0
 20 21  1  0
 21 22  1  6
 21 23  1  0
 23 24  1  0
 24 25  1  1
  8  3  1  0
 18 11  1  0
 24  5  1  0
 21 11  1  0
M  CHG  2  21   1  22  -1
M  END
>  <identifier>  (1692) 
CNP0480732.2

>  <canonical_smiles>  (1692) 
COC1=CC2=C(C=C1OC)[C@]13C[C@@H](OC)C=CC1=CC[N@+]3([O-])C[C@@H]2O

>  <standard_inchi>  (1692) 
InChI=1S/C19H23NO5/c1-23-13-5-4-12-6-7-20(22)11-16(21)14-8-17(24-2)18(25-3)9-15(14)19(12,20)10-13/h4-6,8-9,13,16,21H,7,10-11H2,1-3H3/t13-,16-,19-,20-/m0/s1

>  <standard_inchi_key>  (1692) 
DWXDTNCZRDEMJI-PQTDTLSBSA-N

>  <name>  (1692) 
nan

>  <iupac_name>  (1692) 
(2~{R},7~{S},9~{R},13~{b}~{S})-2,11,12-trimethoxy-7-oxido-2,6,8,9-tetrahydro-1~{H}-indolo[7~{a},1-a]isoquinolin-7-ium-9-ol

>  <annotation_level>  (1692) 
4

>  <total_atom_count>  (1692) 
48

>  <heavy_atom_count>  (1692) 
25

>  <molecular_weight>  (1692) 
345.4

>  <exact_molecular_weight>  (1692) 
345.15762

>  <molecular_formula>  (1692) 
C19H23NO5

>  <alogp>  (1692) 
2.18

>  <topological_polar_surface_area>  (1692) 
70.98

>  <rotatable_bond_count>  (1692) 
3

>  <hydrogen_bond_acceptors>  (1692) 
5

>  <hydrogen_bond_donors>  (1692) 
1

>  <hydrogen_bond_acceptors_lipinski>  (1692) 
5

>  <hydrogen_bond_donors_lipinski>  (1692) 
1

>  <lipinski_rule_of_five_violations>  (1692) 
0

>  <aromatic_rings_count>  (1692) 
1

>  <qed_drug_likeliness>  (1692) 
0.67

>  <formal_charge>  (1692) 
0

>  <fractioncsp3>  (1692) 
0.47

>  <number_of_minimal_rings>  (1692) 
4

>  <van_der_walls_volume>  (1692) 
307.93

>  <contains_sugar>  (1692) 
False

>  <contains_ring_sugars>  (1692) 
False

>  <contains_linear_sugars>  (1692) 
False

>  <murcko_framework>  (1692) 
c1ccc2c(c1)CCN3CC=C4C=CCCC423

>  <np_likeness>  (1692) 
2.03

>  <chemical_class>  (1692) 
Erythrina alkaloids

>  <chemical_sub_class>  (1692) 
Erythrinanes

>  <chemical_super_class>  (1692) 
Alkaloids and derivatives

>  <direct_parent_classification>  (1692) 
Erythrinanes

>  <np_classifier_pathway>  (1692) 
Alkaloids

>  <np_classifier_superclass>  (1692) 
Lysine alkaloids

>  <np_classifier_class>  (1692) 
Indolizidine alkaloids

>  <np_classifier_is_glycoside>  (1692) 
False

>  <organisms>  (1692) 
Erythrina mulungu

>  <collections>  (1692) 
Latin America dataset|NuBBEDB|Supernatural3|WikiData Natural Products|ZINC NP

>  <dois>  (1692) 
10.1139/V81-400|10.1139/v81-400

>  <synonyms>  (1692) 
(1R,8R,16R)-8-hydroxy-4,5,16-trimethoxy-10-azatetracyclo[8.7.0.0\u00b9,\u00b9\u00b3.0\u00b2,\u2077]heptadeca-2(7),3,5,12,14-pentaen-10-ium-10-olate|Erythrartine N-oxide

>  <cas>  (1692) 
nan

$$$$

     RDKit          2D

 19 21  0  0  0  0  0  0  0  0999 V2000
    1.3568   -3.2007    0.0000 O   0  0  0  0  0  0  0  0  0  0  0  0
    0.8261   -1.7977    0.0000 C   0  0  0  0  0  0  0  0  0  0  0  0
   -0.6542   -1.5557    0.0000 C   0  0  0  0  0  0  0  0  0  0  0  0
   -1.1849   -0.1527    0.0000 C   0  0  0  0  0  0  0  0  0  0  0  0
   -2.6652    0.0892    0.0000 C   0  0  0  0  0  0  0  0  0  0  0  0
   -3.1959    1.4922    0.0000 C   0  0  0  0  0  0  0  0  0  0  0  0
   -4.6763    1.7341    0.0000 C   0  0  0  0  0  0  0  0  0  0  0  0
   -5.6260    0.5730    0.0000 C   0  0  0  0  0  0  0  0  0  0  0  0
   -5.0953   -0.8300    0.0000 C   0  0  0  0  0  0  0  0  0  0  0  0
   -3.6149   -1.0719    0.0000 C   0  0  0  0  0  0  0  0  0  0  0  0
   -0.2352    1.0083    0.0000 O   0  0  0  0  0  0  0  0  0  0  0  0
    1.2452    0.7664    0.0000 C   0  0  0  0  0  0  0  0  0  0  0  0
    2.1949    1.9275    0.0000 C   0  0  0  0  0  0  0  0  0  0  0  0
    3.6752    1.6855    0.0000 C   0  0  0  0  0  0  0  0  0  0  0  0
    4.6249    2.8466    0.0000 O   0  0  0  0  0  0  0  0  0  0  0  0
    4.2059    0.2825    0.0000 C   0  0  0  0  0  0  0  0  0  0  0  0
    3.2562   -0.8785    0.0000 C   0  0  0  0  0  0  0  0  0  0  0  0
    3.7869   -2.2815    0.0000 O   0  0  0  0  0  0  0  0  0  0  0  0
    1.7758   -0.6366    0.0000 C   0  0  0  0  0  0  0  0  0  0  0  0
  1  2  2  0
  2  3  1  0
  3  4  2  0
  4  5  1  0
  5  6  2  0
  6  7  1  0
  7  8  2  0
  8  9  1  0
  9 10  2  0
  4 11  1  0
 11 12  1  0
 12 13  2  0
 13 14  1  0
 14 15  1  0
 14 16  2  0
 16 17  1  0
 17 18  1  0
 17 19  2  0
 19  2  1  0
 10  5  1  0
 19 12  1  0
M  END
>  <identifier>  (1693) 
CNP0280624.0

>  <canonical_smiles>  (1693) 
O=C1C=C(C2=CC=CC=C2)OC2=CC(O)=CC(O)=C12

>  <standard_inchi>  (1693) 
InChI=1S/C15H10O4/c16-10-6-11(17)15-12(18)8-13(19-14(15)7-10)9-4-2-1-3-5-9/h1-8,16-17H

>  <standard_inchi_key>  (1693) 
RTIXKCRFFJGDFG-UHFFFAOYSA-N

>  <name>  (1693) 
chrysin

>  <iupac_name>  (1693) 
5,7-dihydroxy-2-phenyl-chromen-4-one

>  <annotation_level>  (1693) 
5

>  <total_atom_count>  (1693) 
29

>  <heavy_atom_count>  (1693) 
19

>  <molecular_weight>  (1693) 
254.24

>  <exact_molecular_weight>  (1693) 
254.05791

>  <molecular_formula>  (1693) 
C15H10O4

>  <alogp>  (1693) 
2.87

>  <topological_polar_surface_area>  (1693) 
70.67

>  <rotatable_bond_count>  (1693) 
1

>  <hydrogen_bond_acceptors>  (1693) 
4

>  <hydrogen_bond_donors>  (1693) 
2

>  <hydrogen_bond_acceptors_lipinski>  (1693) 
4

>  <hydrogen_bond_donors_lipinski>  (1693) 
2

>  <lipinski_rule_of_five_violations>  (1693) 
0

>  <aromatic_rings_count>  (1693) 
3

>  <qed_drug_likeliness>  (1693) 
0.70

>  <formal_charge>  (1693) 
0

>  <fractioncsp3>  (1693) 
0.00

>  <number_of_minimal_rings>  (1693) 
3

>  <van_der_walls_volume>  (1693) 
213.82

>  <contains_sugar>  (1693) 
False

>  <contains_ring_sugars>  (1693) 
False

>  <contains_linear_sugars>  (1693) 
False

>  <murcko_framework>  (1693) 
O1c2ccccc2CC=C1c3ccccc3

>  <np_likeness>  (1693) 
1.23

>  <chemical_class>  (1693) 
Flavonoids

>  <chemical_sub_class>  (1693) 
Hydroxyflavonoids

>  <chemical_super_class>  (1693) 
Phenylpropanoids and polyketides

>  <direct_parent_classification>  (1693) 
5-hydroxyflavonoids

>  <np_classifier_pathway>  (1693) 
Shikimates and Phenylpropanoids

>  <np_classifier_superclass>  (1693) 
Flavonoids

>  <np_classifier_class>  (1693) 
Flavones

>  <np_classifier_is_glycoside>  (1693) 
False

>  <organisms>  (1693) 
Aaptos ciliata|Abies excelsa|Abies pinsapo var. marocana|Acacia|Acacia aulacocarpa|Acacia constricta|Acacia neovernicosa|Achlya heterosexualis|Aconitum contortum|Acrocarpia paniculata|Acronychia haplophylla|Acrosiphonia coalita|Adina cordifolia|Adina cordifolia Roxb.|Aerva sp.|Agardhiella tenera|Ageratum mexicanum|Aglaia cucullata|Agrobacterium rhizogenes|Alligator sinensis|Alnus cordata|Alnus sieboldiana|Aloe deltoideodonta|Alpinia katsumadai|Alpinia oxyphylla|Alpinia zerumbet|Alstonia spectabilis|Alternanthera sessilis|Alternaria macrospora|Amauris niavius|Ambrosia salsola|Ammodendron karelinii|Ampelocera edentula|Anacyclus pyrethrum|Anaxagorea luzonensis|Anaxagorea luzonensis A.GRAY|Anemone flaccida|Angelica acutiloba|Anodendron affine|Anomianthus Dulcis|Anomianthus dulcis|Apis|Apis mellifera|Apis mellifera ligustica|Arabidopsis thaliana|Ardisia neriifolia|Aria edulis|Arnica mollis|Arnica parryi|Arrabidaea samydoides|Artemisia campestris ssp. glutinosa|Ascotricha chartarum|Aspidosperma subincanum|Aster tataricus|Atractylis carduus|Atractylis flava|Axinyssa tethyoides|Baccharis bigelovii|Baccharis salicifolia|Baccharis viminea|Bacillus litoralis|Bauhinia purpurea|Bombus terrestris|Bonnemaisonia asparagoides|Botrytis cinerea|Brachylaena perrieri|Brassica carinata|Brickellia laciniata|Bryonia alba|Buglossoides arvensis|Bulbophyllum odoratissimum|Buxus hildebrandtii|Callicarpa acuminata|Callistemon coccineus|Calycotome villosa|Camchaya loloana|Carpha glomerata|Cedrela salvadorensis|Centaurea pseudoscabiosa|Centaurea pseudoscabiosa subsp.pseudoscabiosa Boiss.et aBuhse|Cereus bridgesii|Cetraria komarovii|Chaetomium globosum|Chamaemespilus alpina|Cheilanthes kaulfussii|Chenopodium graveolens|Chromodoris hamiltoni|Chrysanthemum morifolium|Chrysanthemum uliginosum|Chrysosporum ovalisporum|Cistus populifolius|Citrullus lanatus|Citrus funadoko|Clathria basilana|Colebrookea oppositifolia|Conyza japonica|Corydalis mucronifera|Cotinus coggygria|Crambe hispanica subsp. abyssinica|Crinum giganteum|Crinum latifolium|Crotalus atrox|Croton geayi|Croton gratissimus|Cryptocarya aschersoniana|Cuscuta australis|Cusparia macrocarpa|Cyanostegia angustifolia|Cyperus pilosus|Cypripedium macranthos|Cypripedium macranthos var. rebunense|Dactylorhiza viridis|Dalbergia nitidula|Daucus carota|Dendrobium candidum|Dendrobium moniliforme|Dendrodoris limbata|Desmos cochinchinensis|Diplopterygium glaucum|Diplotropis ferruginea|Dolichandrone falcata|Drypetes tessmanniana|Dysphania graveolens|Echinacea simulata|Elettaria cardamomum|Elmerrillia papuana|Elsholtzia bodinieri|Eremurus chinensis|Eriodictyon californicum|Eriodictyon sessilifolium|Eriodictyon sp.|Erysimum siliculosum|Escallonia spp.|Escontria chiotilla|Eucalyptus resinifera|Eucalyptus viminalis|Eucryphia cordifolia|Eunicea knighti|Eupatorium argentinum|Euphorbia lata|Euphrasia genargentea|Euphrasia regelii|Euphrasia stricta|Eurycoma harmandiana|Ficus pumila|Flourensia laurifolia|Flourensia resinosa|Fridericia samydoides|Gaga kaulfussii|Garcinia cambogia|Ginkgo biloba|Goldfussia yunnanensis|Goniobranchus kuniei|Gratiola officinalis|Grindelia discoidea|Guatteria boliviana|Gutenbergia cordifolia|Hakea acicularis|Halobacillus litoralis|Halostachys belangeriana|Halostachys caspica|Hedychium spicatum|Helichrysum kraussii|Helichrysum lindleyi|Helichrysum platypterum|Heliotropium pycnophyllum|Hemiselmis virescens|Hertia cheirifolia|Holothuria atra|Hortonia angustifolia|Humicola grisea|Hylotrupes bajulus|Hypericum perforatum|Hypericum reptans|Indigofera kirilowi|Ixeris debilis|Julbernardia globifera|Juniperus brevifolia|Justicia betonica|Kaempferia rotunda|Kalanchoe spathulata|Kniphofia foliosa|Laggera pterodonta|Lagochilus leiacanthus|Laguncularia racemosa|Laurentia longiflora|Lebeckia plukenetiana|Leitneria floridana|Lepechinia caulescens|Lepraria citrina|Leucanthemella serotina|Leucanthemum vulgare|Licaria chrysophylla|Lobophytum durum|Lonicera Japonica|Lonicera japonica|Lychnophora ericoides|Lychnophora staavioides|Lysimachia fordiana|Malagasy connaraceous|Malus doumeri|Malus doumeri varl formosana|Maprounea guianensis|Marasmiellus troyanus|Maytenus chuchuhuasha|Medicosma fareana|Melodorum fruticosum|Mentha sylvestris|Methanosarcina barkeri|Mexican Brown Propolis|Mexican propolis|Mikania banisteriae|Mikania hirsutissima|Miliusa balansae|Mimulus moschatus|Mimusops laurifolia|Muntingia calabura|Myrrhis odorata|Neolentinus lepideus|Neolitsea villosa|Neonauclea zeylanica|Nonomuraea dietziae|Notholaena aschenborniana|Ononis angustissima|Ononis vaginalis|Ophiocordyceps heteropoda|Ophiomastix mixta|Ormosia hosiei|Ornithoglossum viride|Oroxylum Indicum|Oroxylum indicum|Orthosiphon spicatus|Oscillatoria raoi|Othonna macrophylla|Oxytropis falcata|Oxytropis pseudoglandulosa|Pachygone dasycarpa|Pajanelia longifolia|Pajanelia multijuga|Panzeria canescens|Parinari campestris|Passiflora Caerulea|Passiflora caerulea|Passiflora serratodigitata|Passiflora sp.|Passifloraceae|Pelargonium crispum|Pentachondra pumila|Peritassa campestris|Peritassa compta|Pertusaria truncata|Petasites laevigatus|Petrosia hebes|Petunia nyctaginiflora|Phagnalon rupestre|Phlomis ostrowskiana|Phlox decussata|Phoma linga|Phyllostachys edulis|Physocarpus intermedius|Picea abies var. abies|Picea smithiana|Piliostigma thonningii|Pimpinella peregrina|Pinus aristata|Pinus armandi|Pinus excelsa|Pinus monticola|Pinus morrisonicola|Pinus parviflora|Pinus sibirica|Pinus sp.|Pinus spp.|Piper guanacostense|Pocillopora eydouxi|Podocytisus caramanicus|Polygonum cognatum|Polypodium decumanum|Polyporus confluens|Populus alba|Populus alba var.pyramdalis|Populus balsamifera|Populus bejingensis|Populus canadensis|Populus candicans|Populus cathayana|Populus davidiana|Populus deltoides|Populus koreana|Populus laurifolia|Populus maximowiczii|Populus nigra|Populus pseudo-simonii|Populus pseudosimonii|Populus simonii|Populus spp.|Populus suaveolens|Populus szechuanica|Populus tomentosa|Populus violascens|Populus xiaohei|Populus yunnanensis|Primnoa reseda|Propolis|Prunus avium|Prunus cerasus|Prunus persica|Pseudomonas fluorescens|Pseudotsuga sinensis var. sinensis|Pseudotsuga sinensis var. wilsoniana|Pseudotsuga wilsoniana|Psiadia dentata|Pterolobium hexapetalum|Pteryxia terebinthina|Purpura aperta|Radula complanata|Ranunculus asiaticus|Remirea maritima|Rheedia acuminata|Rhizobium rhizogenes|Rhizophora tagal|Rhizopus microsporus var. chinensis|Rhododendron dauricum|Rubia tetragona|Rubus laciniatus|Salix petiolaris|Salvia lanigera|Salvia lavandulifolia|Salvia pisidica|Sansevieria trifasciata|Saraca asoca|Saussurea salicifolia|Scarlet firethorn|Schizanthus tricolor|Schizophyllum lobatum|Scutellaria Baicalensis|Scutellaria adenostegia|Scutellaria adsurgens|Scutellaria alpina|Scutellaria amoena|Scutellaria baicalensis|Scutellaria comosa|Scutellaria discolor|Scutellaria glabra|Scutellaria glabrata|Scutellaria grossa|Scutellaria immaculata|Scutellaria indica|Scutellaria lateriflora|Scutellaria oreophila|Scutellaria orientalis|Scutellaria ovata|Scutellaria oxystegia|Scutellaria phyllostachya|Scutellaria prostrata|Scutellaria scandens|Scutellaria schachristanica|Scutellaria squarrosa|Scutellaria strigillosa|Scymnorhinus lichia|Securigera securidaca|Sinapis alba|Solanum crinitum|Solanum lanceolatum|Spartium junceum|Sphaeranthus confertifolius|Sphaerocoryne gracilis ssp. gracilis|Sporidesmium bakeri|Stenocarpella maydis|Stizophyllum riparium|Streptomyces corchorusii|Streptomyces matensis|Streptomyces ramocissimus|Streptomyces venezuelae|Strychnos amazonica|Symphyocladia latiuscula|Syphonota geographica|Syzygium jambos|Tephrosia elata|Thermopsis mollis|Tilia tomentosa|Trichocoleopsis sacculata|Trididemnum cyanophorum|Tsitsikamma favus|Tubocapsicum anomalum|Ulmus sieboldiana|Uncaria africana|Uncaria longiflora|Uperoleia inundata|Ursinia speciosa|Utricularia vulgaris|Uvaria littoralis|Uvaria lucida|Uvaria macrophylla|Vachellia constricta|Vachellia vernicosa|Viburnum erubescens|Viguiera pinnatilobata|Vincetoxicum amplexicaule|Vladimiria muliensis|Wikstroemia viridiflora|Xanthorhiza simplicissima|Zebrina pendula|Ziziphora clinopodioides|broad bean|chinese propolis|pomegranate

>  <collections>  (1693) 
ANPDB|AnalytiCon Discovery NPs|Australian natural products|BIOFACQUIM|BitterDB|CMAUP (cCollective molecular activities of useful plants)|ChEBI NPs|ChemSpider NPs|ETM (Ethiopian Traditional Medicine) DB|FooDB|GNPS (Global Natural Products Social Molecular Networking)|HIM (Herbal Ingredients in-vivo Metabolism database)|HIT (Herbal Ingredients Targets)|InflamNat|KNApSaCK|Latin America dataset|Mitishamba database|NANPDB (Natural Products from Northern African Sources)|NPACT|NPASS|NPAtlas|NPCARE|NPEdia|NuBBEDB|Phenol-explorer|Phyto4Health|PhytoLab phyproof® Reference Substances|PubChem NPs|StreptomeDB|Super Natural II|TCMDB-Taiwan (Traditional Chinese Medicine database)|TCMID (Traditional Chinese Medicine Integrated Database)|TIPdb (database of Taiwan indigenous plants)|UNPD (Universal Natural Products Database)|VietHerb|Watermelon|WikiData Natural Products|p-ANAPL

>  <dois>  (1693) 
10.1002/(SICI)1099-1565(199707)8:4<176::AID-PCA351>3.0.CO;2-K|10.1002/(SICI)1099-1565(200003/04)11:2<69::AID-PCA499>3.0.CO;2-Y|10.1002/CHIN.200052210|10.1002/ELPS.201300646|10.1002/JCCS.200200042|10.1002/JPS.3080110306|10.1002/PCA.730|10.1007/BF00381261|10.1007/BF00567051|10.1007/BF00568487|10.1007/BF00571144|10.1007/BF00599011|10.1007/BF00599013|10.1007/BF00607554|10.1007/BF00630019|10.1007/BF00630555|10.1007/BF00630627|10.1007/BF00631041|10.1007/BF00636588|10.1007/BF01372624|10.1007/BF02976430|10.1007/BF03046650|10.1007/S10600-005-0068-0|10.1007/S10600-008-0008-X|10.1007/S10600-009-9291-4|10.1007/S10600-010-9481-0|10.1007/S10600-010-9482-Z|10.1007/S10600-010-9647-9|10.1007/S11418-005-0023-1|10.1016/0006-2952(90)90716-X|10.1016/0031-9422(88)80201-2|10.1016/0031-9422(89)80195-5|10.1016/0031-9422(90)83041-X|10.1016/0031-9422(90)85186-J|10.1016/0031-9422(90)85309-4|10.1016/0031-9422(91)85078-E|10.1016/0031-9422(91)85123-H|10.1016/0031-9422(93)85092-6|10.1016/0031-9422(93)85108-4|10.1016/0031-9422(95)00433-8|10.1016/0031-9422(95)00975-2|10.1016/0378-8741(94)90098-1|10.1016/J.ARABJC.2011.05.013|10.1016/J.BMCL.2009.09.032|10.1016/J.BMCL.2009.11.024|10.1016/J.FITOTE.2011.11.023|10.1016/J.JCHROMB.2004.06.048|10.1016/J.PHYTOCHEM.2005.10.002|10.1016/J.PHYTOCHEM.2007.03.006|10.1016/J.PHYTOCHEM.2009.11.008|10.1016/J.PHYTOCHEM.2011.07.002|10.1016/J.PHYTOL.2012.10.004|10.1016/J.PLAPHY.2015.04.008|10.1016/S0021-9673(00)94139-6|10.1016/S0021-9673(01)01294-8|10.1016/S0031-9422(00)80175-2|10.1016/S0031-9422(00)81509-5|10.1016/S0031-9422(00)81569-1|10.1016/S0031-9422(00)82416-4|10.1016/S0031-9422(00)82434-6|10.1016/S0031-9422(00)83877-7|10.1016/S0031-9422(00)90041-4|10.1016/S0031-9422(00)94792-7|10.1016/S0031-9422(00)98080-4|10.1016/S0031-9422(01)00215-1|10.1016/S0031-9422(02)00229-7|10.1016/S0031-9422(03)00112-2|10.1016/S0031-9422(96)00443-8|10.1016/S0031-9422(97)00514-1|10.1016/S0031-9422(97)00671-7|10.1016/S0031-9422(98)00646-3|10.1016/S0305-1978(02)00178-3|10.1016/S0305-1978(02)00184-9|10.1016/S0305-1978(99)00064-2|10.1016/S0367-326X(03)00061-3|10.1016/S0944-7113(98)80020-2|10.1016/j.bmcl.2009.09.032|10.1016/j.bmcl.2009.11.024|10.1016/j.phytol.2012.10.004|10.1021/JF00108A021|10.1021/JF400779W|10.1021/JF980936F|10.1021/NP50020A019|10.1021/NP50028A007|10.1021/NP50050A009|10.1021/NP50081A012|10.1021/NP50103A006|10.1021/NP900068T|10.1021/NP960601X|10.1021/acs.jnatprod.8b00581|10.1021/acs.jnatprod.9b00721|10.1021/np010486c|10.1021/np030020p|10.1021/np50081a012|10.1021/np50103a006|10.1021/np900068t|10.1021/np900772m|10.1038/S41598-020-72497-3|10.1038/s41598-020-72497-3|10.1039/C6RA16251G|10.1039/JR9610002714|10.1039/P19750001776|10.1055/S-2005-871223|10.1055/S-2007-969712|10.1055/S-2007-990248|10.1055/S-2009-1216474|10.1055/s-2005-864140|10.1071/ch9640428|10.1078/094471103322331430|10.1080/14786411003675667|10.1104/PP.69.2.522|10.1111/J.1365-4632.2009.04269.X|10.1111/J.1600-0609.2009.01365.X|10.1139/V83-312|10.1246/BCSJ.44.2761|10.1248/BPB.29.740|10.1248/CPB.32.5051|10.1248/CPB.33.2411|10.1248/CPB.36.2371|10.1248/CPB.36.3654|10.1248/CPB.37.3128|10.1248/CPB.37.794|10.1248/CPB.39.1047|10.1248/CPB.39.1051|10.1248/CPB.39.1466|10.1248/CPB.39.199|10.1248/CPB.47.1436|10.1248/CPB.48.1219|10.1248/CPB.56.1477|10.1248/CPB.56.592|10.1248/CPB.58.1116|10.1248/CPB.59.1535|10.1248/YAKUSHI1947.104.5_529|10.1248/YAKUSHI1947.105.2_148|10.1515/ZNC-1982-11-1231|10.1515/ZNC-1983-7-826|10.1515/ZNC-1986-1-214|10.1515/ZNC-1987-9-1004|10.1515/ZNC-1988-1-202|10.1515/ZNC-1988-5-603|10.1515/ZNC-1990-0604|10.1515/ZNC-1992-0624|10.1515/ZNC-1992-3-423|10.1515/ZNC-1992-3-424|10.1515/ZNC-1992-9-1022|10.1515/ZNC-1992-9-1023|10.1515/ZNC-1997-5-604|10.1515/ZNC-1997-7-817|10.1515/ZNC-2000-1-203|10.1590/S0100-40422003000500003|10.17660/ACTAHORTIC.1992.306.10|10.3109/13880209309082922|10.3390/IJMS15022327|10.3390/MOLECULES15117933|10.3390/MOLECULES23040852|10.3390/molecules23040852|10.3891/ACTA.CHEM.SCAND.03-1147|10.3891/ACTA.CHEM.SCAND.03-1375|10.3892/IJO_00000748|10.3987/COM-11-12354|10.4014/JMB.1108.08012|10.4014/jmb.1108.08012|10.4268/CJCMM20101114

>  <synonyms>  (1693) 
nan

>  <cas>  (1693) 
480-40-0

$$$$

     RDKit          2D

 26 31  0  0  0  0  0  0  0  0999 V2000
    7.2694   -0.8004    0.0000 C   0  0  0  0  0  0  0  0  0  0  0  0
    6.1766    0.2271    0.0000 C   0  0  0  0  0  0  0  0  0  0  0  0
    7.3783    1.1249    0.0000 C   0  0  0  0  0  0  0  0  0  0  0  0
    5.5011    1.5664    0.0000 C   0  0  0  0  0  0  0  0  0  0  0  0
    4.0035    1.6511    0.0000 C   0  0  0  0  0  0  0  0  0  0  0  0
    3.1814    0.3965    0.0000 C   0  0  0  0  0  0  0  0  0  0  0  0
    3.8569   -0.9428    0.0000 C   0  0  0  0  0  0  0  0  0  0  0  0
    3.0347   -2.1975    0.0000 C   0  0  0  0  0  0  0  0  0  0  0  0
    1.5371   -2.1128    0.0000 C   0  0  0  0  0  0  0  0  0  0  0  0
    0.8616   -0.7735    0.0000 C   0  0  0  0  0  0  0  0  0  0  0  0
    1.6838    0.4811    0.0000 C   0  0  0  0  0  0  0  0  0  0  0  0
    1.0083    1.8204    0.0000 O   0  0  0  0  0  0  0  0  0  0  0  0
   -0.4893    1.9051    0.0000 C   0  0  0  0  0  0  0  0  0  0  0  0
   -1.3114    0.6505    0.0000 C   0  0  0  0  0  0  0  0  0  0  0  0
   -2.7939    0.4219    0.0000 C   0  0  0  0  0  0  0  0  0  0  0  0
   -3.9557    1.3707    0.0000 C   0  0  0  0  0  0  0  0  0  0  0  0
   -5.3583    0.8389    0.0000 C   0  0  0  0  0  0  0  0  0  0  0  0
   -5.5991   -0.6416    0.0000 C   0  0  0  0  0  0  0  0  0  0  0  0
   -4.4372   -1.5904    0.0000 C   0  0  0  0  0  0  0  0  0  0  0  0
   -3.0347   -1.0586    0.0000 C   0  0  0  0  0  0  0  0  0  0  0  0
   -1.7010   -1.7451    0.0000 O   0  0  0  0  0  0  0  0  0  0  0  0
   -0.6360   -0.6888    0.0000 C   0  0  0  0  0  0  0  0  0  0  0  0
   -7.0816   -0.8702    0.0000 O   0  0  0  0  0  0  0  0  0  0  0  0
   -7.7570    0.4691    0.0000 C   0  0  0  0  0  0  0  0  0  0  0  0
   -6.6920    1.5254    0.0000 O   0  0  0  0  0  0  0  0  0  0  0  0
    5.3545   -1.0275    0.0000 O   0  0  0  0  0  0  0  0  0  0  0  0
  1  2  1  0
  2  3  1  0
  2  4  1  0
  4  5  2  0
  5  6  1  0
  6  7  2  0
  7  8  1  0
  8  9  2  0
  9 10  1  0
 10 11  2  0
 11 12  1  0
 12 13  1  0
 14 13  1  1
 14 15  1  0
 15 16  2  0
 16 17  1  0
 17 18  2  0
 18 19  1  0
 19 20  2  0
 20 21  1  0
 22 21  1  1
 18 23  1  0
 23 24  1  0
 24 25  1  0
  7 26  1  0
 26  2  1  0
 11  6  1  0
 22 14  1  0
 22 10  1  0
 20 15  1  0
 25 17  1  0
M  END
>  <identifier>  (1694) 
CNP0158282.1

>  <canonical_smiles>  (1694) 
CC1(C)C=CC2=C(C=CC3=C2OC[C@@H]2C4=CC5=C(C=C4O[C@H]32)OCO5)O1

>  <standard_inchi>  (1694) 
InChI=1S/C21H18O5/c1-21(2)6-5-11-15(26-21)4-3-12-19(11)22-9-14-13-7-17-18(24-10-23-17)8-16(13)25-20(12)14/h3-8,14,20H,9-10H2,1-2H3/t14-,20-/m1/s1

>  <standard_inchi_key>  (1694) 
PAAJONLTKBLVPE-JLTOFOAXSA-N

>  <name>  (1694) 
nan

>  <iupac_name>  (1694) 
(1~{S},14~{S})-7,7-dimethyl-6,12,18,20,24-pentaoxahexacyclo[12.10.0.0^{2,11}.0^{5,10}.0^{15,23}.0^{17,21}]tetracosa-2(11),3,5(10),8,15,17(21),22-heptaene

>  <annotation_level>  (1694) 
4

>  <total_atom_count>  (1694) 
44

>  <heavy_atom_count>  (1694) 
26

>  <molecular_weight>  (1694) 
350.37

>  <exact_molecular_weight>  (1694) 
350.11542

>  <molecular_formula>  (1694) 
C21H18O5

>  <alogp>  (1694) 
4.21

>  <topological_polar_surface_area>  (1694) 
46.15

>  <rotatable_bond_count>  (1694) 
0

>  <hydrogen_bond_acceptors>  (1694) 
5

>  <hydrogen_bond_donors>  (1694) 
0

>  <hydrogen_bond_acceptors_lipinski>  (1694) 
5

>  <hydrogen_bond_donors_lipinski>  (1694) 
0

>  <lipinski_rule_of_five_violations>  (1694) 
0

>  <aromatic_rings_count>  (1694) 
2

>  <qed_drug_likeliness>  (1694) 
0.71

>  <formal_charge>  (1694) 
0

>  <fractioncsp3>  (1694) 
0.33

>  <number_of_minimal_rings>  (1694) 
6

>  <van_der_walls_volume>  (1694) 
299.36

>  <contains_sugar>  (1694) 
False

>  <contains_ring_sugars>  (1694) 
False

>  <contains_linear_sugars>  (1694) 
False

>  <murcko_framework>  (1694) 
O1c2cc3OC4c5ccc6OCC=Cc6c5OCC4c3cc2OC1

>  <np_likeness>  (1694) 
2.60

>  <chemical_class>  (1694) 
Isoflavonoids

>  <chemical_sub_class>  (1694) 
Furanoisoflavonoids

>  <chemical_super_class>  (1694) 
Phenylpropanoids and polyketides

>  <direct_parent_classification>  (1694) 
Pterocarpans

>  <np_classifier_pathway>  (1694) 
Shikimates and Phenylpropanoids

>  <np_classifier_superclass>  (1694) 
Isoflavonoids

>  <np_classifier_class>  (1694) 
Pterocarpan

>  <np_classifier_is_glycoside>  (1694) 
False

>  <organisms>  (1694) 
Adiantum monochlamys|Apuleia leiocarpa|Baileya pauciradiata|Becium grandiflorum|Berchemia discolor|Centaurea webbiana|Commiphora erythraea|Crinum yemense|Dalbergia nitidula|Lissoclinum bistratum|Pachyphragma macrophyllum|Spilanthes mauritiana|Vernonanthura chamaedrys|Vicia faba

>  <collections>  (1694) 
CMAUP (cCollective molecular activities of useful plants)|KNApSaCK|Latin America dataset|NPASS|NuBBEDB|Super Natural II|WikiData Natural Products|ZINC NP

>  <dois>  (1694) 
10.1016/S0031-9422(00)89891-X|10.1021/NP060418W|10.1039/P19780000137

>  <synonyms>  (1694) 
Leiocarpin

>  <cas>  (1694) 
nan

$$$$

     RDKit          2D

 25 28  0  0  0  0  0  0  0  0999 V2000
    6.5724    0.3251    0.0000 C   0  0  0  0  0  0  0  0  0  0  0  0
    5.3423    1.1835    0.0000 O   0  0  0  0  0  0  0  0  0  0  0  0
    3.9838    0.5474    0.0000 C   0  0  0  0  0  0  0  0  0  0  0  0
    3.8555   -0.9471    0.0000 C   0  0  0  0  0  0  0  0  0  0  0  0
    2.4971   -1.5832    0.0000 C   0  0  0  0  0  0  0  0  0  0  0  0
    1.2670   -0.7248    0.0000 C   0  0  0  0  0  0  0  0  0  0  0  0
   -0.0915   -1.3610    0.0000 C   0  0  0  0  0  0  0  0  0  0  0  0
   -1.3216   -0.5026    0.0000 C   0  0  0  0  0  0  0  0  0  0  0  0
   -1.1933    0.9919    0.0000 C   0  0  0  0  0  0  0  0  0  0  0  0
   -2.4234    1.8503    0.0000 C   0  0  0  0  0  0  0  0  0  0  0  0
   -3.7818    1.2142    0.0000 C   0  0  0  0  0  0  0  0  0  0  0  0
   -3.9101   -0.2803    0.0000 C   0  0  0  0  0  0  0  0  0  0  0  0
   -2.6800   -1.1387    0.0000 C   0  0  0  0  0  0  0  0  0  0  0  0
   -2.8084   -2.6332    0.0000 C   0  0  0  0  0  0  0  0  0  0  0  0
   -1.5782   -3.4916    0.0000 C   0  0  0  0  0  0  0  0  0  0  0  0
   -1.7066   -4.9861    0.0000 C   0  0  0  0  0  0  0  0  0  0  0  0
   -0.2198   -2.8555    0.0000 C   0  0  0  0  0  0  0  0  0  0  0  0
    1.0103   -3.7138    0.0000 C   0  0  0  0  0  0  0  0  0  0  0  0
   -4.8066    2.3096    0.0000 O   0  0  0  0  0  0  0  0  0  0  0  0
   -4.0815    3.6227    0.0000 C   0  0  0  0  0  0  0  0  0  0  0  0
   -2.6086    3.3388    0.0000 O   0  0  0  0  0  0  0  0  0  0  0  0
    1.3953    0.7697    0.0000 C   0  0  0  0  0  0  0  0  0  0  0  0
    2.7537    1.4058    0.0000 C   0  0  0  0  0  0  0  0  0  0  0  0
    2.8821    2.9003    0.0000 O   0  0  0  0  0  0  0  0  0  0  0  0
    1.6519    3.7587    0.0000 C   0  0  0  0  0  0  0  0  0  0  0  0
  1  2  1  0
  2  3  1  0
  3  4  2  0
  4  5  1  0
  5  6  2  0
  7  6  1  6
  7  8  1  0
  8  9  2  0
  9 10  1  0
 10 11  2  0
 11 12  1  0
 12 13  2  0
 13 14  1  0
 14 15  1  0
 15 16  1  6
 15 17  1  0
 17 18  1  1
 11 19  1  0
 19 20  1  0
 20 21  1  0
  6 22  1  0
 22 23  2  0
 23 24  1  0
 24 25  1  0
 23  3  1  0
 17  7  1  0
 13  8  1  0
 21 10  1  0
M  END
>  <identifier>  (1695) 
CNP0220270.1

>  <canonical_smiles>  (1695) 
COC1=CC=C([C@H]2C3=CC4=C(C=C3C[C@@H](C)[C@@H]2C)OCO4)C=C1OC

>  <standard_inchi>  (1695) 
InChI=1S/C21H24O4/c1-12-7-15-9-19-20(25-11-24-19)10-16(15)21(13(12)2)14-5-6-17(22-3)18(8-14)23-4/h5-6,8-10,12-13,21H,7,11H2,1-4H3/t12-,13+,21+/m1/s1

>  <standard_inchi_key>  (1695) 
KLVQONDOFFKFBN-BHVCSQLQSA-N

>  <name>  (1695) 
(5S,6S,7R)-5-(3,4-dimethoxyphenyl)-6,7-dimethyl-5,6,7,8-tetrahydrobenzo[f][1,3]benzodioxole

>  <iupac_name>  (1695) 
(5~{S},6~{S},7~{R})-5-(3,4-dimethoxyphenyl)-6,7-dimethyl-5,6,7,8-tetrahydrobenzo[f][1,3]benzodioxole

>  <annotation_level>  (1695) 
5

>  <total_atom_count>  (1695) 
49

>  <heavy_atom_count>  (1695) 
25

>  <molecular_weight>  (1695) 
340.42

>  <exact_molecular_weight>  (1695) 
340.16746

>  <molecular_formula>  (1695) 
C21H24O4

>  <alogp>  (1695) 
4.39

>  <topological_polar_surface_area>  (1695) 
36.92

>  <rotatable_bond_count>  (1695) 
3

>  <hydrogen_bond_acceptors>  (1695) 
4

>  <hydrogen_bond_donors>  (1695) 
0

>  <hydrogen_bond_acceptors_lipinski>  (1695) 
4

>  <hydrogen_bond_donors_lipinski>  (1695) 
0

>  <lipinski_rule_of_five_violations>  (1695) 
0

>  <aromatic_rings_count>  (1695) 
2

>  <qed_drug_likeliness>  (1695) 
0.83

>  <formal_charge>  (1695) 
0

>  <fractioncsp3>  (1695) 
0.43

>  <number_of_minimal_rings>  (1695) 
4

>  <van_der_walls_volume>  (1695) 
315.79

>  <contains_sugar>  (1695) 
False

>  <contains_ring_sugars>  (1695) 
False

>  <contains_linear_sugars>  (1695) 
False

>  <murcko_framework>  (1695) 
O1c2cc3c(cc2OC1)C(c4ccccc4)CCC3

>  <np_likeness>  (1695) 
1.24

>  <chemical_class>  (1695) 
Aryltetralin lignans

>  <chemical_sub_class>  (1695) 
Aryltetralin lignans

>  <chemical_super_class>  (1695) 
Lignans, neolignans and related compounds

>  <direct_parent_classification>  (1695) 
Aryltetralin lignans

>  <np_classifier_pathway>  (1695) 
Shikimates and Phenylpropanoids

>  <np_classifier_superclass>  (1695) 
Lignans

>  <np_classifier_class>  (1695) 
Arylnaphthalene and aryltetralin lignans

>  <np_classifier_is_glycoside>  (1695) 
False

>  <organisms>  (1695) 
Galbulimima belgraveana|Himantandra belgraveana|Otoba novogranatensis|Schisandra glaucescens|Virola carinata|Virola elongata|Virola surinamensis

>  <collections>  (1695) 
Australian natural products|CMAUP (cCollective molecular activities of useful plants)|Latin America dataset|NPASS|NuBBEDB|Super Natural II|WikiData Natural Products|ZINC NP

>  <dois>  (1695) 
10.1016/0031-9422(86)80038-3|10.1016/0031-9422(90)85020-G|10.1016/S0031-9422(00)94440-6|10.1016/S0031-9422(96)00408-6|10.1039/JR9580004471|10.1039/jr9580004471

>  <synonyms>  (1695) 
(-)-Galcatin|CHEMBL3290509|galcatin

>  <cas>  (1695) 
nan

$$$$

     RDKit          2D

 19 19  0  0  0  0  0  0  0  0999 V2000
   -6.6248    1.5110    0.0000 C   0  0  0  0  0  0  0  0  0  0  0  0
   -5.1502    1.2366    0.0000 C   0  0  0  0  0  0  0  0  0  0  0  0
   -4.1752    2.3765    0.0000 C   0  0  0  0  0  0  0  0  0  0  0  0
   -4.6505   -0.1777    0.0000 C   0  0  0  0  0  0  0  0  0  0  0  0
   -3.1758   -0.4522    0.0000 C   0  0  0  0  0  0  0  0  0  0  0  0
   -2.6761   -1.8665    0.0000 C   0  0  0  0  0  0  0  0  0  0  0  0
   -1.2014   -2.1409    0.0000 C   0  0  0  0  0  0  0  0  0  0  0  0
   -0.7018   -3.5552    0.0000 C   0  0  0  0  0  0  0  0  0  0  0  0
   -0.2264   -1.0010    0.0000 C   0  0  0  0  0  0  0  0  0  0  0  0
    1.2482   -1.2755    0.0000 C   0  0  0  0  0  0  0  0  0  0  0  0
    1.7479   -2.6898    0.0000 O   0  0  0  0  0  0  0  0  0  0  0  0
    2.2233   -0.1356    0.0000 C   0  0  0  0  0  0  0  0  0  0  0  0
    1.7236    1.2788    0.0000 C   0  0  0  0  0  0  0  0  0  0  0  0
    2.6986    2.4187    0.0000 C   0  0  0  0  0  0  0  0  0  0  0  0
    2.1989    3.8330    0.0000 O   0  0  0  0  0  0  0  0  0  0  0  0
    4.1733    2.1442    0.0000 C   0  0  0  0  0  0  0  0  0  0  0  0
    4.6729    0.7299    0.0000 C   0  0  0  0  0  0  0  0  0  0  0  0
    3.6979   -0.4100    0.0000 C   0  0  0  0  0  0  0  0  0  0  0  0
    4.1976   -1.8243    0.0000 O   0  0  0  0  0  0  0  0  0  0  0  0
  1  2  1  0
  2  3  1  0
  2  4  2  0
  4  5  1  0
  5  6  1  0
  6  7  1  0
  7  8  1  0
  7  9  2  0
  9 10  1  0
 10 11  2  0
 10 12  1  0
 12 13  2  0
 13 14  1  0
 14 15  1  0
 14 16  2  0
 16 17  1  0
 17 18  2  0
 18 19  1  0
 18 12  1  0
M  END
>  <identifier>  (1696) 
CNP0115661.1

>  <canonical_smiles>  (1696) 
CC(C)=CCC/C(C)=C/C(=O)C1=CC(O)=CC=C1O

>  <standard_inchi>  (1696) 
InChI=1S/C16H20O3/c1-11(2)5-4-6-12(3)9-16(19)14-10-13(17)7-8-15(14)18/h5,7-10,17-18H,4,6H2,1-3H3/b12-9+

>  <standard_inchi_key>  (1696) 
GUDWMKNWJMHSCP-FMIVXFBMSA-N

>  <name>  (1696) 
nan

>  <iupac_name>  (1696) 
nan

>  <annotation_level>  (1696) 
0

>  <total_atom_count>  (1696) 
39

>  <heavy_atom_count>  (1696) 
19

>  <molecular_weight>  (1696) 
260.33

>  <exact_molecular_weight>  (1696) 
260.14124

>  <molecular_formula>  (1696) 
C16H20O3

>  <alogp>  (1696) 
3.97

>  <topological_polar_surface_area>  (1696) 
57.53

>  <rotatable_bond_count>  (1696) 
5

>  <hydrogen_bond_acceptors>  (1696) 
3

>  <hydrogen_bond_donors>  (1696) 
2

>  <hydrogen_bond_acceptors_lipinski>  (1696) 
3

>  <hydrogen_bond_donors_lipinski>  (1696) 
2

>  <lipinski_rule_of_five_violations>  (1696) 
0

>  <aromatic_rings_count>  (1696) 
1

>  <qed_drug_likeliness>  (1696) 
0.36

>  <formal_charge>  (1696) 
0

>  <fractioncsp3>  (1696) 
0.31

>  <number_of_minimal_rings>  (1696) 
1

>  <van_der_walls_volume>  (1696) 
256.42

>  <contains_sugar>  (1696) 
False

>  <contains_ring_sugars>  (1696) 
False

>  <contains_linear_sugars>  (1696) 
False

>  <murcko_framework>  (1696) 
c1ccccc1

>  <np_likeness>  (1696) 
1.80

>  <chemical_class>  (1696) 
nan

>  <chemical_sub_class>  (1696) 
nan

>  <chemical_super_class>  (1696) 
nan

>  <direct_parent_classification>  (1696) 
nan

>  <np_classifier_pathway>  (1696) 
Terpenoids

>  <np_classifier_superclass>  (1696) 
Meroterpenoids

>  <np_classifier_class>  (1696) 
Meromonoterpenoids

>  <np_classifier_is_glycoside>  (1696) 
False

>  <organisms>  (1696) 
Cymopolia barbata|Piper crassinervium|piper sp.

>  <collections>  (1696) 
CMNPD|ChemSpider NPs|KNApSaCK|Latin America dataset|NPASS|NuBBEDB|Super Natural II|TCMDB-Taiwan (Traditional Chinese Medicine database)|WikiData Natural Products|ZINC NP

>  <dois>  (1696) 
10.1016/J.PHYTOCHEM.2006.03.001|10.1016/S0031-9422(03)00299-1|10.1021/NP030530J|10.1021/np030530j|10.1039/c005001f|10.1080/14786410802243271|10.3184/030823409X416901

>  <synonyms>  (1696) 
nan

>  <cas>  (1696) 
nan

$$$$

     RDKit          2D

 32 33  0  0  0  0  0  0  0  0999 V2000
   -9.6217   -3.6362    0.0000 C   0  0  0  0  0  0  0  0  0  0  0  0
   -8.5140   -2.6248    0.0000 C   0  0  0  0  0  0  0  0  0  0  0  0
   -8.8361   -1.1598    0.0000 O   0  0  0  0  0  0  0  0  0  0  0  0
   -7.0843   -3.0783    0.0000 O   0  0  0  0  0  0  0  0  0  0  0  0
   -5.9766   -2.0669    0.0000 C   0  0  0  0  0  0  0  0  0  0  0  0
   -4.5468   -2.5204    0.0000 C   0  0  0  0  0  0  0  0  0  0  0  0
   -3.4391   -1.5090    0.0000 C   0  0  0  0  0  0  0  0  0  0  0  0
   -2.0093   -1.9625    0.0000 C   0  0  0  0  0  0  0  0  0  0  0  0
   -3.7612   -0.0440    0.0000 C   0  0  0  0  0  0  0  0  0  0  0  0
   -2.6535    0.9675    0.0000 O   0  0  0  0  0  0  0  0  0  0  0  0
   -2.9756    2.4325    0.0000 C   0  0  0  0  0  0  0  0  0  0  0  0
   -2.7772    3.9193    0.0000 C   0  0  0  0  0  0  0  0  0  0  0  0
   -1.4769    2.4953    0.0000 C   0  0  0  0  0  0  0  0  0  0  0  0
   -0.6732    1.2288    0.0000 C   0  0  0  0  0  0  0  0  0  0  0  0
    0.8255    1.2916    0.0000 C   0  0  0  0  0  0  0  0  0  0  0  0
    1.5204    2.6209    0.0000 C   0  0  0  0  0  0  0  0  0  0  0  0
    0.7167    3.8874    0.0000 C   0  0  0  0  0  0  0  0  0  0  0  0
    3.0191    2.6837    0.0000 C   0  0  0  0  0  0  0  0  0  0  0  0
    3.8229    1.4173    0.0000 C   0  0  0  0  0  0  0  0  0  0  0  0
    5.3215    1.4801    0.0000 C   0  0  0  0  0  0  0  0  0  0  0  0
    6.1253    0.2136    0.0000 C   0  0  0  0  0  0  0  0  0  0  0  0
    5.4303   -1.1157    0.0000 C   0  0  0  0  0  0  0  0  0  0  0  0
    7.6240    0.2764    0.0000 C   0  0  0  0  0  0  0  0  0  0  0  0
    8.4277   -0.9901    0.0000 C   0  0  0  0  0  0  0  0  0  0  0  0
    9.9264   -0.9273    0.0000 C   0  0  0  0  0  0  0  0  0  0  0  0
   10.7301   -2.1938    0.0000 C   0  0  0  0  0  0  0  0  0  0  0  0
   12.2288   -2.1310    0.0000 C   0  0  0  0  0  0  0  0  0  0  0  0
   10.0352   -3.5231    0.0000 C   0  0  0  0  0  0  0  0  0  0  0  0
   -4.4054    2.8861    0.0000 C   0  0  0  0  0  0  0  0  0  0  0  0
   -5.5131    1.8746    0.0000 C   0  0  0  0  0  0  0  0  0  0  0  0
   -5.1910    0.4096    0.0000 C   0  0  0  0  0  0  0  0  0  0  0  0
   -6.2987   -0.6019    0.0000 C   0  0  0  0  0  0  0  0  0  0  0  0
  1  2  1  0
  2  3  2  0
  2  4  1  0
  4  5  1  0
  5  6  2  0
  6  7  1  0
  7  8  1  0
  7  9  2  0
  9 10  1  0
 10 11  1  0
 11 12  1  0
 11 13  1  0
 13 14  1  0
 14 15  1  0
 15 16  2  0
 16 17  1  0
 16 18  1  0
 18 19  1  0
 19 20  1  0
 20 21  2  0
 21 22  1  0
 21 23  1  0
 23 24  1  0
 24 25  1  0
 25 26  2  0
 26 27  1  0
 26 28  1  0
 11 29  1  0
 29 30  1  0
 30 31  1  0
 31 32  2  0
 32  5  1  0
 31  9  1  0
M  END
>  <identifier>  (1697) 
CNP0080410.2

>  <canonical_smiles>  (1697) 
CC(=O)OC1=CC(C)=C2OC(C)(CC/C=C(\C)CC/C=C(\C)CCC=C(C)C)CCC2=C1

>  <standard_inchi>  (1697) 
InChI=1S/C29H42O3/c1-21(2)11-8-12-22(3)13-9-14-23(4)15-10-17-29(7)18-16-26-20-27(31-25(6)30)19-24(5)28(26)32-29/h11,13,15,19-20H,8-10,12,14,16-18H2,1-7H3/b22-13+,23-15+

>  <standard_inchi_key>  (1697) 
LSPZGEMJFARJSN-JWIKZEKMSA-N

>  <name>  (1697) 
nan

>  <iupac_name>  (1697) 
nan

>  <annotation_level>  (1697) 
0

>  <total_atom_count>  (1697) 
74

>  <heavy_atom_count>  (1697) 
32

>  <molecular_weight>  (1697) 
438.65

>  <exact_molecular_weight>  (1697) 
438.3134

>  <molecular_formula>  (1697) 
C29H42O3

>  <alogp>  (1697) 
8.20

>  <topological_polar_surface_area>  (1697) 
35.53

>  <rotatable_bond_count>  (1697) 
10

>  <hydrogen_bond_acceptors>  (1697) 
3

>  <hydrogen_bond_donors>  (1697) 
0

>  <hydrogen_bond_acceptors_lipinski>  (1697) 
3

>  <hydrogen_bond_donors_lipinski>  (1697) 
0

>  <lipinski_rule_of_five_violations>  (1697) 
1

>  <aromatic_rings_count>  (1697) 
1

>  <qed_drug_likeliness>  (1697) 
0.21

>  <formal_charge>  (1697) 
0

>  <fractioncsp3>  (1697) 
0.55

>  <number_of_minimal_rings>  (1697) 
2

>  <van_der_walls_volume>  (1697) 
456.37

>  <contains_sugar>  (1697) 
False

>  <contains_ring_sugars>  (1697) 
False

>  <contains_linear_sugars>  (1697) 
False

>  <murcko_framework>  (1697) 
O1c2ccccc2CCC1

>  <np_likeness>  (1697) 
1.84

>  <chemical_class>  (1697) 
nan

>  <chemical_sub_class>  (1697) 
nan

>  <chemical_super_class>  (1697) 
nan

>  <direct_parent_classification>  (1697) 
nan

>  <np_classifier_pathway>  (1697) 
Terpenoids

>  <np_classifier_superclass>  (1697) 
Meroterpenoids

>  <np_classifier_class>  (1697) 
Prenyl quinone meroterpenoids

>  <np_classifier_is_glycoside>  (1697) 
False

>  <organisms>  (1697) 
Iryanthera grandis

>  <collections>  (1697) 
Latin America dataset|NuBBEDB|WikiData Natural Products

>  <dois>  (1697) 
10.1016/S0031-9422(00)80162-4

>  <synonyms>  (1697) 
nan

>  <cas>  (1697) 
nan

$$$$

     RDKit          2D

 20 22  0  0  0  0  0  0  0  0999 V2000
   -6.7603    1.3794    0.0000 C   0  0  0  0  0  0  0  0  0  0  0  0
   -6.1404    0.0135    0.0000 O   0  0  0  0  0  0  0  0  0  0  0  0
   -4.6475   -0.1326    0.0000 C   0  0  0  0  0  0  0  0  0  0  0  0
   -3.7746    1.0872    0.0000 C   0  0  0  0  0  0  0  0  0  0  0  0
   -2.2817    0.9411    0.0000 C   0  0  0  0  0  0  0  0  0  0  0  0
   -1.6618   -0.4248    0.0000 C   0  0  0  0  0  0  0  0  0  0  0  0
   -0.1689   -0.5708    0.0000 C   0  0  0  0  0  0  0  0  0  0  0  0
    0.4510   -1.9367    0.0000 C   0  0  0  0  0  0  0  0  0  0  0  0
    1.9439   -2.0828    0.0000 O   0  0  0  0  0  0  0  0  0  0  0  0
    2.8168   -0.8630    0.0000 C   0  0  0  0  0  0  0  0  0  0  0  0
    4.3097   -1.0091    0.0000 C   0  0  0  0  0  0  0  0  0  0  0  0
    5.1827    0.2108    0.0000 C   0  0  0  0  0  0  0  0  0  0  0  0
    6.6755    0.0647    0.0000 O   0  0  0  0  0  0  0  0  0  0  0  0
    4.5627    1.5767    0.0000 C   0  0  0  0  0  0  0  0  0  0  0  0
    3.0699    1.7227    0.0000 C   0  0  0  0  0  0  0  0  0  0  0  0
    2.1969    0.5029    0.0000 C   0  0  0  0  0  0  0  0  0  0  0  0
    0.7040    0.6490    0.0000 C   0  0  0  0  0  0  0  0  0  0  0  0
    0.0841    2.0149    0.0000 O   0  0  0  0  0  0  0  0  0  0  0  0
   -2.5347   -1.6446    0.0000 C   0  0  0  0  0  0  0  0  0  0  0  0
   -4.0276   -1.4985    0.0000 C   0  0  0  0  0  0  0  0  0  0  0  0
  1  2  1  0
  2  3  1  0
  3  4  2  0
  4  5  1  0
  5  6  2  0
  6  7  1  0
  7  8  2  0
  8  9  1  0
  9 10  1  0
 10 11  2  0
 11 12  1  0
 12 13  1  0
 12 14  2  0
 14 15  1  0
 15 16  2  0
 16 17  1  0
 17 18  2  0
  6 19  1  0
 19 20  2  0
 20  3  1  0
 17  7  1  0
 16 10  1  0
M  END
>  <identifier>  (1698) 
CNP0225909.0

>  <canonical_smiles>  (1698) 
COC1=CC=C(C2=COC3=CC(O)=CC=C3C2=O)C=C1

>  <standard_inchi>  (1698) 
InChI=1S/C16H12O4/c1-19-12-5-2-10(3-6-12)14-9-20-15-8-11(17)4-7-13(15)16(14)18/h2-9,17H,1H3

>  <standard_inchi_key>  (1698) 
HKQYGTCOTHHOMP-UHFFFAOYSA-N

>  <name>  (1698) 
formononetin

>  <iupac_name>  (1698) 
7-hydroxy-3-(4-methoxyphenyl)chromen-4-one

>  <annotation_level>  (1698) 
5

>  <total_atom_count>  (1698) 
32

>  <heavy_atom_count>  (1698) 
20

>  <molecular_weight>  (1698) 
268.27

>  <exact_molecular_weight>  (1698) 
268.07356

>  <molecular_formula>  (1698) 
C16H12O4

>  <alogp>  (1698) 
3.17

>  <topological_polar_surface_area>  (1698) 
59.67

>  <rotatable_bond_count>  (1698) 
2

>  <hydrogen_bond_acceptors>  (1698) 
4

>  <hydrogen_bond_donors>  (1698) 
1

>  <hydrogen_bond_acceptors_lipinski>  (1698) 
4

>  <hydrogen_bond_donors_lipinski>  (1698) 
1

>  <lipinski_rule_of_five_violations>  (1698) 
0

>  <aromatic_rings_count>  (1698) 
3

>  <qed_drug_likeliness>  (1698) 
0.78

>  <formal_charge>  (1698) 
0

>  <fractioncsp3>  (1698) 
0.06

>  <number_of_minimal_rings>  (1698) 
3

>  <van_der_walls_volume>  (1698) 
230.86

>  <contains_sugar>  (1698) 
False

>  <contains_ring_sugars>  (1698) 
False

>  <contains_linear_sugars>  (1698) 
False

>  <murcko_framework>  (1698) 
O1C=C(c2ccccc2)Cc3ccccc13

>  <np_likeness>  (1698) 
0.67

>  <chemical_class>  (1698) 
Isoflavonoids

>  <chemical_sub_class>  (1698) 
Isoflav-2-enes

>  <chemical_super_class>  (1698) 
Phenylpropanoids and polyketides

>  <direct_parent_classification>  (1698) 
Isoflavones

>  <np_classifier_pathway>  (1698) 
Shikimates and Phenylpropanoids

>  <np_classifier_superclass>  (1698) 
Isoflavonoids

>  <np_classifier_class>  (1698) 
Isoflavones

>  <np_classifier_is_glycoside>  (1698) 
False

>  <organisms>  (1698) 
Aaptos ciliata|Abelia chinensis|Abies excelsa|Abies pinsapo var. marocana|Achillea pseudopectinata|Achlya heterosexualis|Acnistus breviflorus|Actaea racemosa|Aeschrion excelsa|Aglaia australiensis|Albizia Procera|Albizia inundata|Albizia julibrissin|Albizia procera|Allagopappus viscosissimus|Alternaria macrospora|Amburana cearensis|Ammopiptanthus mongolicus|Amorpha fruticosa|Ampelocera edentula|Andira inermis|Angelica acutiloba|Annona squamosa|Aplophyllum alberti-regelii|Ardisia colorata|Arnica mollis|Asimina parviflora|Astragalus Membranaceus|Astragalus clusii|Astragalus membranaceus|Astragalus mongholicus|Astragalus propinquus|Astragalus pycnanthus|Astragalus sp.|Astragalus spinosus|Astragalus trimestris|Atraphaxis spinosa|Atuna racemosa|Avena sativa|Baccharis neglecta|Baphicacanthus cusia|Baptisia alba|Baptisia arachnifera|Baptisia australis|Baptisia bracteata|Baptisia calycosa|Baptisia cinerea|Baptisia lanceolata|Baptisia lecontei|Baptisia megacarpa|Baptisia nuttalliana|Baptisia perfoliata|Baptisia simplicifolia|Baptisia sp.|Baptisia sphaerocarpa|Baptisia tinctoria|Berberis floribunda|Berlinia tomentosa|Bolusanthus speciosus|Bonamia spectabilis|Bos taurus|Botrytis cinerea|Brachymeris montana|Brassica carinata|Brazilian Red Propolis|Bryocaulon pseudosatoanum|Bryonia alba|Butea frondosa|Butea monosperma|Butea superba|Cacospongia scalaris|Caragana conferta|Caragana intermedia|Caragana jubata|Caragana microphylla|Carpha glomerata|Castanospermum australe|Centaurea maculosa|Centrolobium robustum|Centrolobium sclerophyllum|Centrolobium tomentosum|Centrosema pubescens|Centrosema virginianum|Chondrodendron tomentosum|Chrysosporum ovalisporum|Cicer anatolicum|Cicer arietinum|Cicer baldshuanicum|Cicer bijugum|Cicer canariense|Cicer canariensis|Cicer chorassanicum|Cicer cuneatum|Cicer echinospermum|Cicer flexuosum|Cicer judaicum|Cicer judicum|Cicer kopetdaghense|Cicer macracanthum|Cicer microphyllum|Cicer mogolatvicum|Cicer mogoltavicum|Cicer montbretii|Cicer nuristanicum|Cicer oxyodon|Cicer pinnatifidum|Cicer pungens|Cicer rechingeri|Cicer reticulatum|Cicer songaricum|Cicer tragacanthoides|Cicer yamashitae|Citrus rugulosa|Cladrastis kentukea|Cladrastis sikokiana|Clerodendrum bungei|Conus mus|Cordia leucocephala|Croton gratissimus|Croton megistocarpus|Croton zehntneri|Cyanostegia angustifolia|Cyclopia intermedia|Cyclopia sessiliflora|Cymodocea nodosa|Cytisus proliferus|Dactylorhiza viridis|Dalbergia Candenatensis|Dalbergia Lanceolaria|Dalbergia Volubilis|Dalbergia assamica|Dalbergia baronii|Dalbergia barretoana|Dalbergia candenatensis|Dalbergia cearensis|Dalbergia cultrata|Dalbergia ecastaphyllum|Dalbergia ecastophyllum|Dalbergia frutescens|Dalbergia inundata|Dalbergia lanceolaria|Dalbergia monetaria|Dalbergia nigrescens|Dalbergia nitidula|Dalbergia odorifera|Dalbergia oliveri|Dalbergia ovalis|Dalbergia parviflora|Dalbergia sissoides|Dalbergia sissoo|Dalbergia spruceana|Dalbergia stevensonii|Dalbergia villosa var. barretoana|Dalbergia volubilis|Dasycladus vermicularis|Dendronephthya griffini|Dermatophyllum secundiflorum|Derris canarensis|Derris cuneifolia|Derris oblonga|Desmodium styracifolium|Dinophysis fortii|Diospyros assimilis|Diplacus longiflorus|Diplopterygium glaucum|Diplotropis purpurea|Dolabella californica|Dorstenia dinklagei|Dunalia solanacea|Echinops transiliensis|Echinospartum horridum|Embelia parviflora|Embelia schimperi|Ephedra sinica|Epilobium hirsutum|Eria anomala|Erycibe expansa|Erysimum leptophyllum|Erythrina melanacantha|Eschscholzia californica|Esenbeckia leiocarpa|Eucalyptus resinifera|Euchresta formosana|Euphorbia nematocypha|Euphorbia portlandica|Euphrasia genargentea|Eurycoma harmandiana|Eysenhardtia polystachya|Fabaceae|Fallopia multiflora|Faramea salicifolia|Fordia cauliflora|Fraxinus angustifolia subsp. oxycarpa|Fumaria micrantha|Ganoderma lucidum|Ganoderma sinense|Garrya elliptica|Genista aetnensis|Genista canariensis|Genista nissana|Genista pulchella|Genista salzmannii|Genista sessilifolia|Genista subcapitata|Genista teretifolia|Genista tinctoria|Geranium sibiricum|Ginkgo biloba|Glinus lotoides|Gliricidia Sepium|Gliricidia sepium|Glycine|Glycine Max|Glycine max|Glycine soja|Glycine sp.|Glycyrrhiza Uralensis|Glycyrrhiza echinata|Glycyrrhiza glabra|Glycyrrhiza glara|Glycyrrhiza inflata|Glycyrrhiza palidiflora|Glycyrrhiza pallidiflora|Glycyrrhiza sp.|Glycyrrhiza uralensis|Gymnocalycium schickendantzii|Haemanthus amarylloides|Halobacillus litoralis|Haplophyllum obtusifolium|Hedysarum multijugum|Hedysarum polybotrys|Hedysarum theinum|Helianthus annuus|Helichrysum tenuifolium|Homo sapiens|Hydrangea serrata|Hypericum styphelioides|Ircinia dendroides|Ixeris debilis|Iyengaria stellata|Jamesoniella colorata|Junceella gemmacea|Knema glomerata|Lagerstroemia indica|Lantana montevidensis|Lathyrus sativus|Latrunculia magnifica|Lemaireocereus longispinus|Lentinus tigrinus|Lepidosperma ustulatum|Lobophytum durum|Lunularia cruciata|Lycogala epidendrum|Lysimachia fordiana|Lythrum salicaria|Maackia amurensis|Maackia fauriei|Maackia floribunda|Macadamia ternifolia|Machaerium aristulatum|Machaerium kuhlmannii|Machaerium nyctitans|Machaerium vestitum|Marasmiellus troyanus|Maytenus chuchuhuasha|Medicago Sativa|Medicago arabica|Medicago intertexta|Medicago monspeliaca|Medicago orthoceras|Medicago polyceratia|Medicago radiata|Medicago sativa|Medicago truncatula|Megaselia flavescens|Melilotus italica|Melilotus messanensis|Melilotus siculus|Menegazzia asahinae|Millettia dielsiana|Millettia dura|Millettia pendula|Millettia pinnata|Millettia vatkei|Mitracarpus scaber|Monsonia senegalensis|Morella rubra|Mucuna membranacea|Murraya exotica|Murraya paniculata|Muscari botryoides|Mycena sanguinolenta|Myroxylon balsamum|Myroxylon sp.|Myxococcus stipitatus|Nassauvia cumingii|Neurymenia fraxinifolia|Olearia pimeleoides|Onobrychis cyri|Onobrychis ebenoides|Onobrychis viciifolia|Ononis sp.|Ononis speciosa|Ononis spinosa|Onopordum acanthium|Orthosiphon spicatus|Otholobium bracteolatum|Otholobium sericeum|Otholobium uncinatum|Oxalis purpurea|Oxytropis falcata|Pancratium sickenbergeri|Papaver tatricum|Parmelia subrudecta|Peltogyne pubescens|Pericopsis laxiflora|Persea kusanoi|Pickeringia montana|Picrorhiza kurrooa|Piper regnellii|Piptanthus nepalensis|Pisum Sativum|Pisum sativum|Planchonia grandis|Plathymenia reticulata|Pleurotus japonicus|Polyporus pini|Pongamia pinnata|Propolis|Pseudoceratina arabica|Psoralea fascicularis|Pteridium esculentum|Pterocarpus Indicus|Pterocarpus indicus|Pterocarpus marsupium|Pterocarpus soyauxii|Pterocarpus sp.|Pterodon emarginatus|Pterolobium hexapetalum|Pueraria lobata|Pueraria montana var. lobata|Pueraria montana var. thomsonii|Pulsatilla campanella|Pycnanthus angolensis|Ranunculus asiaticus|Ranunculus peltatus|Remirea maritima|Rhinella marina|Rosulabryum capillare|Salvia castanea|Salvia miltiorrhiza|Sapium haematospermum|Schizophyllum lobatum|Senecio isatideus|Senecio suaveolens|Shigella dysenteriae|Shimwellia blattae (p424IbPSO pIZpntAB) [AdhA; pntAB]|Simarouba glauca|Sinapis alba|Siphonaria capensis|Solanum lanceolatum|Sophora Flavescens|Sophora Japonica|Sophora Tomentosa|Sophora flavescens|Sophora japonica|Sophora secundiflora|Sophora tomentosa|Sophora tonkinensis|Sparganium stoloniferum|Spartium junceum|Spatholobus suberectus|Stellaria holostea|Streptomyces griseochromogenes|Streptomyces lydicus|Streptomyces matensis|Streptomyces nobilis|Styphnolobium japonicum|Swartzia polyphylla|Swertia decussata|Syzygium jambos|Syzygium nervosum|Syzygium polycephaloides|Taverniera abyssinica|Teclea gerrardii|Tephrosia elata|Tephrosia maxima|Thalictrum flavum|Theonella conica|Thermopsis alterniflora|Thermopsis fabacea|Thermopsis lanceolata|Thermopsis macrophylla|Thermopsis mollis|Thermopsis rhombifolia|Thermopsis villosa|Tipuana tipu|Tricholoma columbetta|Trididemnum cyanophorum|Trifolium alpestre|Trifolium arvense|Trifolium fragiferum|Trifolium incarnatum|Trifolium medium|Trifolium pannonicum|Trifolium polyphyllum|Trifolium pratense|Trifolium pratense L.|Trifolium pratense,|Trifolium repens|Trifolium repens L.|Trifolium resupinatum|Trifolium rubens|Trifolium sp.|Trifolium subterraneum|Trifolium willdenovii|Trigonella anguina|Trigonella arabica|Trigonella cylindracea|Trigonella foenum-graecum|Trigonella glabra|Trigonella laciniata|Trigonella maritima|Trigonella sp.|Trigonella spicata|Trigonella stellata|Trogoderma granarium|Tropicoporus linteus|Ulex micranthus|Vatairea heteroptera|Vellozia nanuzae|Vernonia fagifolia|Viburnum erubescens|Vigna Radiata|Vigna radiata|Vigna radiata var. radiata|Virgilia oroboides|Virola caducifolia|Virola multinervia|Virola surinamensis|Wikstroemia viridiflora|Wisteria brachybotrys|Wisteriopsis reticulata|Xanthium strumarium|Xanthorhiza simplicissima|Zollernia paraensis|broad bean|garlic|liquorice|mountain clover|peanut|soybean|zigzag clover

>  <collections>  (1698) 
ANPDB|AnalytiCon Discovery NPs|Australian natural products|BitterDB|CMAUP (cCollective molecular activities of useful plants)|ChEBI NPs|ChemSpider NPs|ConMedNP|ETM (Ethiopian Traditional Medicine) DB|FooDB|GNPS (Global Natural Products Social Molecular Networking)|HIM (Herbal Ingredients in-vivo Metabolism database)|HIT (Herbal Ingredients Targets)|KNApSaCK|Latin America dataset|Mitishamba database|NANPDB (Natural Products from Northern African Sources)|NPASS|NPEdia|NuBBEDB|Phenol-explorer|Phyto4Health|PhytoLab phyproof® Reference Substances|PubChem NPs|ReSpect|Super Natural II|TCMDB-Taiwan (Traditional Chinese Medicine database)|TCMID (Traditional Chinese Medicine Integrated Database)|TIPdb (database of Taiwan indigenous plants)|TPPT (Toxic Plants–PhytoToxins)|UNPD (Universal Natural Products Database)|VietHerb|WikiData Natural Products

>  <dois>  (1698) 
10.1002/(SICI)1099-1565(199707)8:4<176::AID-PCA351>3.0.CO;2-K|10.1002/(SICI)1099-1573(199702)11:1<51::AID-PTR949>3.0.CO;2-H|10.1002/(SICI)1099-1573(199712)11:8<603::AID-PTR161>3.0.CO;2-U|10.1002/(SICI)1099-1573(19980201)12:1<59::AID-PTR182>3.0.CO;2-R|10.1002/(SICI)1099-1573(199903)13:2<163::AID-PTR405>3.0.CO;2-|10.1002/9780470744307.gat218|10.1002/CHIN.200407267|10.1002/CHIN.200432208|10.1002/ELPS.201300646|10.1002/HLCA.200890108|10.1002/JCCS.199800035|10.1002/JCCS.200200066|10.1002/JPS.2600640504|10.1002/PCA.742|10.1002/PCA.901|10.1002/RCM.1936|10.1007/978-1-4615-3476-1_53|10.1007/BF00563758|10.1007/BF00564617|10.1007/BF00564927|10.1007/BF00574751|10.1007/BF00575726|10.1007/BF00576208|10.1007/BF00577206|10.1007/BF00597707|10.1007/BF00598182|10.1007/BF00599277|10.1007/BF00629810|10.1007/BF00629811|10.1007/BF00630020|10.1007/BF00630203|10.1007/BF00630268|10.1007/BF00630331|10.1007/BF00633405|10.1007/BF01170227|10.1007/BF01374033|10.1007/BF02114110|10.1007/BF02249145|10.1007/BF02973946|10.1007/BF02977714|10.1007/S10600-006-0215-2|10.1007/S10600-007-0052-Y|10.1007/S10600-007-0083-4|10.1007/S10600-007-0206-Y|10.1007/S10600-008-0007-Y|10.1007/S10600-008-0009-9|10.1007/S10600-008-9008-0|10.1007/S10600-009-9248-7|10.1007/S10600-010-9725-Z|10.1007/S11418-010-0407-8|10.1016/0031-9422(73)80031-7|10.1016/0031-9422(73)85033-2|10.1016/0031-9422(73)85046-0|10.1016/0031-9422(73)85048-4|10.1016/0031-9422(76)85130-8|10.1016/0031-9422(81)80130-6|10.1016/0031-9422(83)80013-2|10.1016/0031-9422(83)80106-X|10.1016/0031-9422(88)80628-9|10.1016/0031-9422(89)85030-7|10.1016/0031-9422(90)80205-U|10.1016/0031-9422(93)85025-M|10.1016/0031-9422(95)93530-S|10.1016/0160-9327(76)90004-1|10.1016/0168-9452(96)04387-7|10.1016/0305-1978(81)90030-2|10.1016/0305-1978(82)90048-5|10.1016/0305-1978(93)90090-E|10.1016/J.BMC.2007.03.011|10.1016/J.BMC.2007.10.004|10.1016/J.BMC.2008.04.016|10.1016/J.BMC.2008.12.033|10.1016/J.BMC.2017.05.009|10.1016/J.BMCL.2008.12.064|10.1016/J.BMCL.2013.04.032|10.1016/J.BMCL.2014.11.015|10.1016/J.CCLET.2010.03.021|10.1016/J.FITOTE.2009.06.002|10.1016/J.JPBA.2016.01.021|10.1016/J.PHYTOCHEM.2003.08.010|10.1016/J.PHYTOCHEM.2006.05.008|10.1016/J.PHYTOCHEM.2006.10.023|10.1016/J.PHYTOCHEM.2007.02.015|10.1016/J.PHYTOCHEM.2007.05.016|10.1016/J.PHYTOCHEM.2010.04.011|10.1016/J.TALANTA.2009.03.011|10.1016/S0003-2670(01)01370-8|10.1016/S0021-9150(99)00029-5|10.1016/S0021-9673(00)00149-7|10.1016/S0021-9673(00)91555-3|10.1016/S0021-9673(01)01231-6|10.1016/S0021-9673(01)89464-4|10.1016/S0021-9673(01)96392-7|10.1016/S0021-9673(96)00578-X|10.1016/S0021-9673(99)00110-7|10.1016/S0021-9673(99)00945-0|10.1016/S0024-3205(02)01864-7|10.1016/S0031-9422(00)81448-X|10.1016/S0031-9422(00)82219-0|10.1016/S0031-9422(00)82901-5|10.1016/S0031-9422(00)85740-4|10.1016/S0031-9422(00)88458-7|10.1016/S0031-9422(00)88812-3|10.1016/S0031-9422(00)89039-1|10.1016/S0031-9422(00)89103-7|10.1016/S0031-9422(00)89391-7|10.1016/S0031-9422(00)89914-8|10.1016/S0031-9422(00)91022-7|10.1016/S0031-9422(00)91408-0|10.1016/S0031-9422(00)94255-9|10.1016/S0031-9422(00)94594-1|10.1016/S0031-9422(00)94599-0|10.1016/S0031-9422(00)94600-4|10.1016/S0031-9422(00)94601-6|10.1016/S0031-9422(00)97051-1|10.1016/S0031-9422(00)97984-6|10.1016/S0031-9422(00)98663-1|10.1016/S0031-9422(01)00273-4|10.1016/S0031-9422(01)00295-3|10.1016/S0031-9422(96)00408-6|10.1016/S0031-9422(96)00582-1|10.1016/S0031-9422(97)00517-7|10.1016/S0031-9422(97)00798-X|10.1016/S0031-9422(97)00802-9|10.1016/S0031-9422(97)00920-5|10.1016/S0031-9422(97)00960-6|10.1016/S0031-9422(97)01092-3|10.1016/S0031-9422(98)00066-1|10.1016/S0031-9422(98)00453-1|10.1016/S0031-9422(98)00709-2|10.1016/S0040-4020(01)82536-9|10.1016/S0040-4020(01)82920-3|10.1016/S0305-1978(96)00101-9|10.1016/S0367-326X(00)00129-5|10.1016/S0367-326X(00)00165-9|10.1016/S0378-8741(00)00285-3|10.1016/S0378-8741(01)00325-7|10.1016/S0887-2333(00)00041-2|10.1016/S0891-5849(97)00089-0|10.1016/S1570-0232(02)00079-X|10.1016/j.phytochem.2004.02.011|10.1021/ACS.JNATPROD.6B00783|10.1021/JF00025A009|10.1021/JF00049A020|10.1021/JF050448P|10.1021/JF052431C|10.1021/JF60116A026|10.1021/JF801227Q|10.1021/JF903216R|10.1021/JF980258X|10.1021/JF991002+|10.1021/NP000010D|10.1021/NP0103158|10.1021/NP0302450|10.1021/NP070478H|10.1021/NP100339U|10.1021/NP50008A004|10.1021/NP50042A015|10.1021/NP50052A020|10.1021/NP50060A038|10.1021/NP50075A009|10.1021/NP5009416|10.1021/NP50100A012|10.1021/NP50105A007|10.1021/NP900676Y|10.1021/NP9007393|10.1021/NP9605955|10.1021/NP970503R|10.1021/NP980566P|10.1021/NP990567X|10.1021/acs.jnatprod.8b00131|10.1021/es200567b|10.1021/es901034u|10.1021/jf071661j|10.1023/B:CONC.0000018120.22592.36|10.1039/P19730001737|10.1039/P19760000186|10.1039/P19840002831|10.1055/S-2005-916261|10.1055/S-2006-957394|10.1055/S-2006-957534|10.1055/S-2006-957682|10.1055/S-2006-960825|10.1055/S-2006-962420|10.1055/S-2007-969907|10.1071/AR9670047|10.1071/CH9630188|10.1071/CH9640379|10.1071/CH9841127|10.1071/ch9640428|10.1078/09447110260571733|10.1080/10286020290019622|10.1080/1478641031000103669|10.1093/JEXBOT/52.357.681|10.1093/OXFORDJOURNALS.JHERED.A102397|10.1093/pcp/pcn183|10.1097/GME.0B013E318156F9D6|10.1111/J.1365-3059.1995.TB01679.X|10.1128/AEM.57.2.434-439.1991|10.1135/CCCC19901257|10.1177/1934578X1000501210|10.1207/S15327914NC5402_5|10.1248/CPB.20.2488|10.1248/CPB.21.2733|10.1248/CPB.26.1274|10.1248/CPB.28.3686|10.1248/CPB.32.3267|10.1248/CPB.33.3811|10.1248/CPB.33.5130|10.1248/CPB.33.5606|10.1248/CPB.34.2094|10.1248/CPB.35.4846|10.1248/CPB.37.979|10.1248/CPB.40.2452|10.1248/CPB.40.2970|10.1248/CPB.51.1095|10.1248/CPB.54.915|10.1248/CPB.57.428|10.1271/BBB.63.1618|10.1271/BBB.64.2276|10.1300/J044V07N02_03|10.13005/bbra/2145|10.14233/AJCHEM.2014.16143A|10.1515/ZNC-1980-11-1208|10.1515/ZNC-1988-7-809|10.1515/ZNC-1991-1-208|10.1515/ZNC-2003-7-826|10.1533/9781845698188.5.242|10.1590/S0103-50532010000900022|10.2134/jeq2010.0121|10.22456/2527-2616.102027|10.2307/1222144|10.3906/KIM-1206-45|10.3987/COM-05-10350|10.3987/COM-11-12275|10.3987/COM-89-4998|10.3987/COM-89-5304|10.3987/COM-92-6288|10.3987/COM-95-7069|10.3987/S-1978-01-0085|10.4268/CJCMM20102314|10.4327/JSNFS.44.123|10.48141/SBJCHEM.V1.N1.1993.16_1993.PDF

>  <synonyms>  (1698) 
nan

>  <cas>  (1698) 
485-72-3

$$$$

     RDKit          2D

 15 16  0  0  0  0  0  0  0  0999 V2000
   -3.0000   -2.7713    0.0000 C   0  0  0  0  0  0  0  0  0  0  0  0
   -2.2500   -1.4722    0.0000 C   0  0  0  0  0  0  0  0  0  0  0  0
   -3.0000   -0.1732    0.0000 C   0  0  0  0  0  0  0  0  0  0  0  0
   -2.2500    1.1258    0.0000 C   0  0  0  0  0  0  0  0  0  0  0  0
   -0.7500    1.1258    0.0000 C   0  0  0  0  0  0  0  0  0  0  0  0
   -0.0000   -0.1732    0.0000 C   0  0  0  0  0  0  0  0  0  0  0  0
   -0.7500   -1.4722    0.0000 C   0  0  0  0  0  0  0  0  0  0  0  0
    1.5000   -0.1732    0.0000 C   0  0  0  0  0  0  0  0  0  0  0  0
    2.2500   -1.4722    0.0000 C   0  0  0  0  0  0  0  0  0  0  0  0
    3.7500   -1.4722    0.0000 C   0  0  0  0  0  0  0  0  0  0  0  0
    1.5000   -2.7713    0.0000 C   0  0  0  0  0  0  0  0  0  0  0  0
    2.2500    1.1258    0.0000 C   0  0  0  0  0  0  0  0  0  0  0  0
    1.5000    2.4249    0.0000 C   0  0  0  0  0  0  0  0  0  0  0  0
    0.0000    2.4249    0.0000 C   0  0  0  0  0  0  0  0  0  0  0  0
   -0.7500    3.7239    0.0000 C   0  0  0  0  0  0  0  0  0  0  0  0
  1  2  1  0
  2  3  2  0
  3  4  1  0
  4  5  2  0
  5  6  1  0
  6  7  2  0
  6  8  1  0
  8  9  1  1
  9 10  1  0
  9 11  1  0
  8 12  1  0
 12 13  1  0
 13 14  1  0
 14 15  1  1
  7  2  1  0
 14  5  1  0
M  END
>  <identifier>  (1699) 
CNP0275435.1

>  <canonical_smiles>  (1699) 
CC1=CC=C2C(=C1)[C@H](C(C)C)CC[C@@H]2C

>  <standard_inchi>  (1699) 
InChI=1S/C15H22/c1-10(2)13-8-6-12(4)14-7-5-11(3)9-15(13)14/h5,7,9-10,12-13H,6,8H2,1-4H3/t12-,13-/m0/s1

>  <standard_inchi_key>  (1699) 
PGTJIOWQJWHTJJ-STQMWFEESA-N

>  <name>  (1699) 
CALAMENENE

>  <iupac_name>  (1699) 
(1~{S},4~{S})-4-isopropyl-1,6-dimethyl-tetralin

>  <annotation_level>  (1699) 
5

>  <total_atom_count>  (1699) 
37

>  <heavy_atom_count>  (1699) 
15

>  <molecular_weight>  (1699) 
202.34

>  <exact_molecular_weight>  (1699) 
202.17215

>  <molecular_formula>  (1699) 
C15H22

>  <alogp>  (1699) 
4.63

>  <topological_polar_surface_area>  (1699) 
0.00

>  <rotatable_bond_count>  (1699) 
1

>  <hydrogen_bond_acceptors>  (1699) 
0

>  <hydrogen_bond_donors>  (1699) 
0

>  <hydrogen_bond_acceptors_lipinski>  (1699) 
0

>  <hydrogen_bond_donors_lipinski>  (1699) 
0

>  <lipinski_rule_of_five_violations>  (1699) 
0

>  <aromatic_rings_count>  (1699) 
1

>  <qed_drug_likeliness>  (1699) 
0.62

>  <formal_charge>  (1699) 
0

>  <fractioncsp3>  (1699) 
0.60

>  <number_of_minimal_rings>  (1699) 
2

>  <van_der_walls_volume>  (1699) 
219.49

>  <contains_sugar>  (1699) 
False

>  <contains_ring_sugars>  (1699) 
False

>  <contains_linear_sugars>  (1699) 
False

>  <murcko_framework>  (1699) 
c1ccc2c(c1)CCCC2

>  <np_likeness>  (1699) 
1.02

>  <chemical_class>  (1699) 
Prenol lipids

>  <chemical_sub_class>  (1699) 
Sesquiterpenoids

>  <chemical_super_class>  (1699) 
Lipids and lipid-like molecules

>  <direct_parent_classification>  (1699) 
Sesquiterpenoids

>  <np_classifier_pathway>  (1699) 
Terpenoids

>  <np_classifier_superclass>  (1699) 
Sesquiterpenoids

>  <np_classifier_class>  (1699) 
Cadinane sesquiterpenoids

>  <np_classifier_is_glycoside>  (1699) 
False

>  <organisms>  (1699) 
Abies pinsapo|Abies pinsapo subsp. marocana|Acorus calamus|Agathosma betulina|Aloysia gratissima|Alpinia breviligulata|Alpinia latilabris|Anethum graveolens|Annona squamosa|Antillogorgia americana|Aristolochia debilis|Artemisia alba|Artemisia ammaniana|Artemisia annua|Artemisia arborescens|Artemisia judaica|Artemisia sericea|Artemisia xerophytica|Aster scaber|Baccharis dracunculifolia|Bazzania trilobata|Bitter bush|Bupleurum gibraltaricum|Callitropsis nootkatensis|Calypogeia muelleriana|Camellia sinensis|Cananga odorata|Cannabis sativa|Cedrela odorata|Chamaecyparis lawsoniana|Chamaecyparis nootkatensis|Chamaecyparis pisifera|Cinnamomum illicioides|Cinnamomum parthenoxylon|Cinnamomum sieboldii|Cistus creticus|Citrus aurantifolia|Citrus hystrix|Citrus limon|Citrus reticulata|Citrus × deliciosa|Cleistopholis patens|Croton eluteria|Cryptomeria japonica|Culcitium canescens|Cupressus bakeri|Cupressus dupreziana|Cupressus macnabiana|Cupressus sempervirens|Curcuma pierreana|Cymbopogon martinii|Cyperus rotundus|Dendropanax trifidus|Duguetia confinis|Eucalyptus angulosa|Eucalyptus behriana|Eucalyptus ceratocorys|Eucalyptus cuprea|Eucalyptus dolichorhyncha|Eucalyptus fasciculosa|Eucalyptus forrestiana|Eucalyptus incrassata|Eucalyptus intertexta|Eucalyptus lansdowneana|Eucalyptus leucoxylon|Eucalyptus melanophloia|Eucalyptus nova-anglica|Eucalyptus ochrophloia|Eucalyptus odorata|Eucalyptus populnea|Eucalyptus porosa|Eucalyptus sparsa|Eucalyptus stoatei|Eucalyptus tetraptera|Eucalyptus viridis|Gymnodinium nagasakiense|Helichrysum bracteiferum|Herbertus dicranus|Herbertus norenus|Herbertus sakuraii|Heteranthemis viscidehirta|Hexalobus crispiflorus|Humulus lupulus|Hypericum coris|Hypericum hyssopifolium|Hypericum lysimachioides|Hypericum perforatum|Juniperus durangensis|Juniperus jaliscana|Karenia mikimotoi|Kunzea salina|Larix gmelinii var. gmelinii|Larix gmelinii var. olgensis|Larix sibirica|Lavandula latifolia|Leonotis leonurus|Liquidambar styraciflua|Lophocolea heterophylla|Magnolia liliiflora|Mangifera indica|Mastigophora diclados|Melaleuca alternifolia|Melaleuca leucadendra|Metrosideros sclerocarpa|Murraya paniculata|Nepeta racemosa|Oocephalus oppositiflorus|Osbornia octodonta|Pectis brevipedunculata|Pelargonium quercifolium|Phyla nodiflora|Picea koraiensis|Pimenta dioica|Pimenta racemosa|Pinus sylvestris|Piper fimbriulatum|Pittosporum angustifolium|Pittosporum phillyraeoides|Pittosporum undulatum|Pseudopterogorgia americana|Psidium guajava|Renealmia chrysotricha|Renealmia chrysotrycha|Rosmarinus officinalis|Salvia absconditiflora|Salvia caespitosa|Salvia dorisiana|Salvia dorystaechas|Saxifraga stolonifera|Schinus molle|Schistochila aligera|Scutellaria lateriflora|Scytosiphon lomentaria|Sequoiadendron giganteum|Sideritis argyrea|Sideritis athoa|Sideritis brevidens|Sideritis lyciae|Sideritis tragoriganum|Siparuna macrotepala|Stockwellia|Streptomyces|Streptomyces fimicarius BWL-H1|Streptomyces sp. strain GWS-BW-H5|Swertia japonica|Syzygium nervosum|Tambourissa leptophylla|Tanacetum vulgare|Tasmannia lanceolata|Teucrium asiaticum|Teucrium oxylepis|Teucrium pseudoscorodonia|Teucrium salviastrum|Teucrium scorodonia|Teucrium siculum|Toona australis|Toona ciliata|Toona hexandra|Tordylium apulum|Trigonella foenum-graecum|Ulmus thomasii|Uvaria chamae|Uvaria narum|West African Pepper|Widdringtonia whytei|Xanthocyparis nootkatensis|Xylopia sericea|Zingiber officinale|basil|candyleaf|clove

>  <collections>  (1699) 
ANPDB|Australian natural products|CMAUP (cCollective molecular activities of useful plants)|EMNPD|ETM (Ethiopian Traditional Medicine) DB|FooDB|KNApSaCK|Latin America dataset|NANPDB (Natural Products from Northern African Sources)|NPASS|NPAtlas|NuBBEDB|StreptomeDB|TIPdb (database of Taiwan indigenous plants)|WikiData Natural Products|ZINC NP

>  <dois>  (1699) 
10.1002/(SICI)1099-1026(199601)11:1<15::AID-FFJ541>3.0.CO;2-H|10.1002/CBDV.200590062|10.1002/CBDV.201100039|10.1002/FFJ.1547|10.1002/FFJ.2730010103|10.1002/FFJ.2730030106|10.1002/FFJ.2730030204|10.1002/FFJ.2730030303|10.1002/FFJ.2730060307|10.1002/FFJ.2730090305|10.1002/FFJ.2730100605|10.1002/JSFA.8889|10.1002/cbdv.200590062|10.1002/ffj.2730030109|10.1002/ffj.2730080306|10.1006/JFCA.2000.0968|10.1007/BF00567053|10.1007/BF00567284|10.1007/BF00568367|10.1007/BF00570218|10.1007/BF00579988|10.1007/BF02238211|10.1007/S11418-006-0112-9|10.1007/S13765-012-1162-1|10.1016/0031-9422(73)80412-1|10.1016/0031-9422(75)85347-7|10.1016/0031-9422(83)85029-8|10.1016/0031-9422(83)85052-3|10.1016/0031-9422(90)85421-B|10.1016/0031-9422(91)83064-R|10.1016/0031-9422(91)83456-U|10.1016/0031-9422(91)85017-T|10.1016/0031-9422(92)80160-G|10.1016/0031-9422(92)90046-S|10.1016/0031-9422(95)00405-V|10.1016/0031-9422(95)00601-X|10.1016/0305-1978(85)90081-X|10.1016/0305-1978(94)90030-2|10.1016/J.CHROMA.2014.10.058|10.1016/J.FITOTE.2005.08.019|10.1016/J.FOODCHEM.2018.09.082|10.1016/J.JEP.2012.12.019|10.1016/J.PHYTOCHEM.2003.08.004|10.1016/J.PHYTOCHEM.2009.06.013|10.1016/J.PHYTOCHEM.2009.07.031|10.1016/S0031-9422(00)00291-0|10.1016/S0031-9422(00)00317-4|10.1016/S0031-9422(00)81286-8|10.1016/S0031-9422(00)83062-9|10.1016/S0031-9422(00)85326-1|10.1016/S0031-9422(00)86883-1|10.1016/S0031-9422(00)90472-2|10.1016/S0031-9422(00)95102-1|10.1016/S0031-9422(00)95206-3|10.1016/S0031-9422(00)97558-7|10.1016/S0031-9422(00)97879-8|10.1016/S0031-9422(96)00747-9|10.1016/S0031-9422(97)00762-0|10.1016/S0031-9422(98)00283-0|10.1016/S0031-9422(99)00123-5|10.1016/S0031-9422(99)00321-0|10.1016/S0040-4039(01)99055-0|10.1016/S0367-326X(00)00154-4|10.1016/S0367-326X(02)00171-5|10.1016/j.jep.2012.12.019|10.1016/s0040-4039(01)99055-0|10.1021/JA02260A021|10.1021/JF00034A020|10.1021/JF00034A033|10.1021/JF00069A028|10.1021/JF00073A015|10.1021/JF00083A001|10.1021/JF00116A075|10.1021/JF00118A056|10.1021/JF0402633|10.1021/JF60199A051|10.1021/JF60201A021|10.1021/JF970808B|10.1021/NP50008A001|10.1021/NP50039A037|10.1021/NP50040A037|10.1021/NP50044A039|10.1021/NP50048A039|10.1021/NP50052A041|10.1021/NP960732Y|10.1055/S-2000-9780|10.1055/S-2001-12001|10.1055/S-2006-959674|10.1055/S-2006-962016|10.1055/S-2006-962450|10.1055/S-2007-969591|10.1055/S-2007-969917|10.1080/10412905.1990.9697873|10.1080/10412905.1990.9697881|10.1080/10412905.1991.9697898|10.1080/10412905.1991.9697930|10.1080/10412905.1991.9697936|10.1080/10412905.1991.9697952|10.1080/10412905.1991.9697953|10.1080/10412905.1991.9697985|10.1080/10412905.1992.9698006|10.1080/10412905.1992.9698087|10.1080/10412905.1992.9698112|10.1080/10412905.1992.9698125|10.1080/10412905.1993.9698162|10.1080/10412905.1993.9698167|10.1080/10412905.1993.9698205|10.1080/10412905.1993.9698303|10.1080/10412905.1994.9698327|10.1080/10412905.1994.9698350|10.1080/10412905.1994.9698447|10.1080/10412905.1994.9699366|10.1080/10412905.1995.9698462|10.1080/10412905.1995.9698479|10.1080/10412905.1995.9698496|10.1080/10412905.1995.9698501|10.1080/10412905.1995.9698508|10.1080/10412905.1995.9698516|10.1080/10412905.1996.9701048|10.1080/10412905.1997.9700812|10.1080/10412905.1999.9701070|10.1080/10412905.2000.9712201|10.1080/10412905.2003.9698598|10.1080/10412905.2013.796498|10.1080/14786411003792165|10.1135/CCCC19823164|10.1135/CCCC19850080|10.1246/BCSJ.51.3395|10.1246/BCSJ.56.3477|10.1248/CPB.52.354|10.1248/YAKUSHI1947.106.1_17|10.1271/BBB1961.45.1493|10.1271/BBB1961.49.1583|10.1271/BBB1961.52.2961|10.1515/ZNB-1990-1118|10.2307/2423424|10.3390/MOLECULES21111576|10.3390/molecules23020358|10.5650/JOS1956.23.246

>  <synonyms>  (1699) 
(+\/-)-Cadina-1,3,5-triene|(-)-CADINA-1,3,5-TRIENE|(-)-Calamenene|(1S,4S)-1,2,3,4-TETRAHYDRO-1,6-DIMETHYL-4-(1-METHYLETHYL)NAPHTHALENE|(1S,4S)-1,6-dimethyl-4-propan-2-yl-1,2,3,4-tetrahydronaphthalene|(1S,4S)-4-Isopropyl-1,6-dimethyl-1,2,3,4-tetrahydronaphthalene|(1S-cis)-1,6-Dimethyl-4-(1-methylethyl)-1,2,3,4-tetrahydronaphthalene|(Z)-calamenene|1,2,3,4-tetrahydro-1,6-dimethyl-4(1-methylethyl)-(1s-cis)-naphthalene|1-S-cis-Calamenene|1S-CIS-CALAMENENE|483-77-2|5C6W67N6XM|72937-55-4|CALAMENENE, (-)-|CALAMENENE, CIS-(-)-|CHEBI:218611|Cadina-1,3,5-triene|Calamenene|Calamenene, cis-(+\/-)-|DTXSID40880702|DTXSID501042907|IT SHOULD BE NOTED THAT cis-calamenene is eluted late vs trans-calamenene|NAPHTHALENE, 1,6-DIMETHYL-4-(1-METHYLETHYL)-1,2,3,4-TETRAHYDRO-, (1S-Z)-|NS00095902|Naphthalene, 1,2,3,4-tetrahydro-1,6-dimethyl-4-(1-methylethyl)-, (1S-cis)-|PGTJIOWQJWHTJJ-STQMWFEESA-N|Q63398612|R8O22WBF8L|UNII-5C6W67N6XM|UNII-R8O22WBF8L|cis-Calamenene|nor beta-calamenene|trans-Calamenene

>  <cas>  (1699) 
483-77-2|72937-55-4

$$$$

     RDKit          2D

 20 22  0  0  0  0  0  0  0  0999 V2000
   -4.1225    2.9772    0.0000 C   0  0  0  0  0  0  0  0  0  0  0  0
   -4.0445    1.4792    0.0000 O   0  0  0  0  0  0  0  0  0  0  0  0
   -2.7082    0.7978    0.0000 C   0  0  0  0  0  0  0  0  0  0  0  0
   -1.4499    1.6143    0.0000 C   0  0  0  0  0  0  0  0  0  0  0  0
   -0.1136    0.9329    0.0000 C   0  0  0  0  0  0  0  0  0  0  0  0
   -0.0356   -0.5651    0.0000 C   0  0  0  0  0  0  0  0  0  0  0  0
   -1.2939   -1.3817    0.0000 C   0  0  0  0  0  0  0  0  0  0  0  0
   -1.2159   -2.8796    0.0000 O   0  0  0  0  0  0  0  0  0  0  0  0
   -2.6302   -0.7002    0.0000 C   0  0  0  0  0  0  0  0  0  0  0  0
   -3.8885   -1.5167    0.0000 O   0  0  0  0  0  0  0  0  0  0  0  0
   -5.2247   -0.8353    0.0000 C   0  0  0  0  0  0  0  0  0  0  0  0
    1.3007   -1.2466    0.0000 C   0  0  0  0  0  0  0  0  0  0  0  0
    1.3787   -2.7445    0.0000 O   0  0  0  0  0  0  0  0  0  0  0  0
    2.5589   -0.4300    0.0000 C   0  0  0  0  0  0  0  0  0  0  0  0
    3.8952   -1.1115    0.0000 C   0  0  0  0  0  0  0  0  0  0  0  0
    5.1535   -0.2949    0.0000 C   0  0  0  0  0  0  0  0  0  0  0  0
    5.0755    1.2030    0.0000 C   0  0  0  0  0  0  0  0  0  0  0  0
    3.7392    1.8845    0.0000 C   0  0  0  0  0  0  0  0  0  0  0  0
    2.4809    1.0680    0.0000 C   0  0  0  0  0  0  0  0  0  0  0  0
    1.1447    1.7494    0.0000 N   0  0  0  0  0  0  0  0  0  0  0  0
  1  2  1  0
  2  3  1  0
  3  4  2  0
  4  5  1  0
  5  6  2  0
  6  7  1  0
  7  8  1  0
  7  9  2  0
  9 10  1  0
 10 11  1  0
  6 12  1  0
 12 13  2  0
 12 14  1  0
 14 15  2  0
 15 16  1  0
 16 17  2  0
 17 18  1  0
 18 19  2  0
 19 20  1  0
  9  3  1  0
 19 14  1  0
 20  5  1  0
M  END
>  <identifier>  (1700) 
CNP0233688.0

>  <canonical_smiles>  (1700) 
COC1=CC2=C(C(O)=C1OC)C(=O)C1=CC=CC=C1N2

>  <standard_inchi>  (1700) 
InChI=1S/C15H13NO4/c1-19-11-7-10-12(14(18)15(11)20-2)13(17)8-5-3-4-6-9(8)16-10/h3-7,18H,1-2H3,(H,16,17)

>  <standard_inchi_key>  (1700) 
CYPILPIHKOUTNO-UHFFFAOYSA-N

>  <name>  (1700) 
Xanthoxoline

>  <iupac_name>  (1700) 
1-hydroxy-2,3-dimethoxy-10~{H}-acridin-9-one

>  <annotation_level>  (1700) 
5

>  <total_atom_count>  (1700) 
33

>  <heavy_atom_count>  (1700) 
20

>  <molecular_weight>  (1700) 
271.27

>  <exact_molecular_weight>  (1700) 
271.08446

>  <molecular_formula>  (1700) 
C15H13NO4

>  <alogp>  (1700) 
2.40

>  <topological_polar_surface_area>  (1700) 
71.55

>  <rotatable_bond_count>  (1700) 
2

>  <hydrogen_bond_acceptors>  (1700) 
4

>  <hydrogen_bond_donors>  (1700) 
2

>  <hydrogen_bond_acceptors_lipinski>  (1700) 
4

>  <hydrogen_bond_donors_lipinski>  (1700) 
2

>  <lipinski_rule_of_five_violations>  (1700) 
0

>  <aromatic_rings_count>  (1700) 
3

>  <qed_drug_likeliness>  (1700) 
0.70

>  <formal_charge>  (1700) 
0

>  <fractioncsp3>  (1700) 
0.13

>  <number_of_minimal_rings>  (1700) 
3

>  <van_der_walls_volume>  (1700) 
231.33

>  <contains_sugar>  (1700) 
False

>  <contains_ring_sugars>  (1700) 
False

>  <contains_linear_sugars>  (1700) 
False

>  <murcko_framework>  (1700) 
c1ccc2c(c1)Nc3ccccc3C2

>  <np_likeness>  (1700) 
0.90

>  <chemical_class>  (1700) 
Quinolines and derivatives

>  <chemical_sub_class>  (1700) 
Benzoquinolines

>  <chemical_super_class>  (1700) 
Organoheterocyclic compounds

>  <direct_parent_classification>  (1700) 
Acridones

>  <np_classifier_pathway>  (1700) 
Alkaloids

>  <np_classifier_superclass>  (1700) 
Anthranilic acid alkaloids

>  <np_classifier_class>  (1700) 
Acridone alkaloids

>  <np_classifier_is_glycoside>  (1700) 
False

>  <organisms>  (1700) 
Conchocarpus inopinatus|Euodia xanthoxyloides|Fagara macrophylla|Zanthoxylum leprieurii

>  <collections>  (1700) 
AfroCancer|AfroMalariaDB|Australian natural products|ConMedNP|FooDB|KNApSaCK|Latin America dataset|NuBBEDB|UNPD (Universal Natural Products Database)|WikiData Natural Products

>  <dois>  (1700) 
10.1016/J.BMC.2010.03.040|10.1021/NP50048A057|10.1071/ch9520406|10.1590/S0100-40422012001100006

>  <synonyms>  (1700) 
1-Hydroxy-2,3-dimethoxy-9(10H)-acridinone #|1-Hydroxy-2,3-dimethoxyacridan-9-one|1-hydroxy-2,3-dimethoxy-10H-acridin-9-one|17014-43-6|9(10H)-Acridinone, 1-hydroxy-2,3-dimethoxy-|CYPILPIHKOUTNO-UHFFFAOYSA-N|DTXSID10168807|XX163679|Xanthoxoline|Xanthoxotin

>  <cas>  (1700) 
17014-43-6

$$$$

     RDKit          2D

 43 48  0  0  0  0  0  0  0  0999 V2000
    6.5008   -6.5973    0.0000 C   0  0  0  0  0  0  0  0  0  0  0  0
    7.3962   -5.3939    0.0000 O   0  0  0  0  0  0  0  0  0  0  0  0
    6.8016   -4.0167    0.0000 C   0  0  0  0  0  0  0  0  0  0  0  0
    5.3117   -3.8431    0.0000 C   0  0  0  0  0  0  0  0  0  0  0  0
    4.7172   -2.4659    0.0000 C   0  0  0  0  0  0  0  0  0  0  0  0
    5.6125   -1.2625    0.0000 C   0  0  0  0  0  0  0  0  0  0  0  0
    5.0179    0.1147    0.0000 C   0  0  0  0  0  0  0  0  0  0  0  0
    5.9133    1.3181    0.0000 C   0  0  0  0  0  0  0  0  0  0  0  0
    5.3187    2.6953    0.0000 C   0  0  0  0  0  0  0  0  0  0  0  0
    6.2141    3.8987    0.0000 O   0  0  0  0  0  0  0  0  0  0  0  0
    3.8288    2.8689    0.0000 C   0  0  0  0  0  0  0  0  0  0  0  0
    3.2343    4.2461    0.0000 C   0  0  0  0  0  0  0  0  0  0  0  0
    4.1296    5.4495    0.0000 O   0  0  0  0  0  0  0  0  0  0  0  0
    1.7443    4.4197    0.0000 C   0  0  0  0  0  0  0  0  0  0  0  0
    0.8490    3.2162    0.0000 C   0  0  0  0  0  0  0  0  0  0  0  0
   -0.6409    3.3899    0.0000 O   0  0  0  0  0  0  0  0  0  0  0  0
   -1.2355    4.7670    0.0000 C   0  0  0  0  0  0  0  0  0  0  0  0
    1.4436    1.8391    0.0000 C   0  0  0  0  0  0  0  0  0  0  0  0
    0.5482    0.6356    0.0000 C   0  0  0  0  0  0  0  0  0  0  0  0
   -0.9417    0.8093    0.0000 C   0  0  0  0  0  0  0  0  0  0  0  0
   -1.8371   -0.3942    0.0000 C   0  0  0  0  0  0  0  0  0  0  0  0
   -3.3270   -0.2205    0.0000 C   0  0  0  0  0  0  0  0  0  0  0  0
   -3.9215    1.1566    0.0000 C   0  0  0  0  0  0  0  0  0  0  0  0
   -5.4114    1.3303    0.0000 C   0  0  0  0  0  0  0  0  0  0  0  0
   -6.0060    2.7074    0.0000 O   0  0  0  0  0  0  0  0  0  0  0  0
   -6.3068    0.1268    0.0000 C   0  0  0  0  0  0  0  0  0  0  0  0
   -7.7967    0.3005    0.0000 C   0  0  0  0  0  0  0  0  0  0  0  0
   -8.3913    1.6776    0.0000 O   0  0  0  0  0  0  0  0  0  0  0  0
   -8.6921   -0.9030    0.0000 C   0  0  0  0  0  0  0  0  0  0  0  0
   -8.0975   -2.2801    0.0000 C   0  0  0  0  0  0  0  0  0  0  0  0
   -8.9928   -3.4836    0.0000 O   0  0  0  0  0  0  0  0  0  0  0  0
  -10.4828   -3.3100    0.0000 C   0  0  0  0  0  0  0  0  0  0  0  0
   -6.6076   -2.4538    0.0000 C   0  0  0  0  0  0  0  0  0  0  0  0
   -5.7122   -1.2503    0.0000 C   0  0  0  0  0  0  0  0  0  0  0  0
   -4.2223   -1.4240    0.0000 O   0  0  0  0  0  0  0  0  0  0  0  0
   -1.2425   -1.7713    0.0000 C   0  0  0  0  0  0  0  0  0  0  0  0
    0.2474   -1.9450    0.0000 C   0  0  0  0  0  0  0  0  0  0  0  0
    1.1428   -0.7415    0.0000 C   0  0  0  0  0  0  0  0  0  0  0  0
    2.6327   -0.9152    0.0000 O   0  0  0  0  0  0  0  0  0  0  0  0
    2.9335    1.6655    0.0000 C   0  0  0  0  0  0  0  0  0  0  0  0
    3.5280    0.2883    0.0000 O   0  0  0  0  0  0  0  0  0  0  0  0
    7.1024   -1.4361    0.0000 C   0  0  0  0  0  0  0  0  0  0  0  0
    7.6970   -2.8133    0.0000 C   0  0  0  0  0  0  0  0  0  0  0  0
  1  2  1  0
  2  3  1  0
  3  4  2  0
  4  5  1  0
  5  6  2  0
  6  7  1  0
  7  8  2  0
  8  9  1  0
  9 10  2  0
  9 11  1  0
 11 12  2  0
 12 13  1  0
 12 14  1  0
 14 15  2  0
 15 16  1  0
 16 17  1  0
 15 18  1  0
 18 19  1  0
 19 20  2  0
 20 21  1  0
 21 22  1  0
 22 23  2  0
 23 24  1  0
 24 25  2  0
 24 26  1  0
 26 27  2  0
 27 28  1  0
 27 29  1  0
 29 30  2  0
 30 31  1  0
 31 32  1  0
 30 33  1  0
 33 34  2  0
 34 35  1  0
 21 36  2  0
 36 37  1  0
 37 38  2  0
 38 39  1  0
 18 40  2  0
 40 41  1  0
  6 42  1  0
 42 43  2  0
 43  3  1  0
 41  7  1  0
 40 11  1  0
 38 19  1  0
 35 22  1  0
 34 26  1  0
M  END
>  <identifier>  (1701) 
CNP0353995.0

>  <canonical_smiles>  (1701) 
COC1=CC=C(C2=CC(=O)C3=C(O)C=C(OC)C(C4=CC(C5=CC(=O)C6=C(O)C=C(OC)C=C6O5)=CC=C4O)=C3O2)C=C1

>  <standard_inchi>  (1701) 
InChI=1S/C33H24O10/c1-39-18-7-4-16(5-8-18)26-14-24(37)32-25(38)15-28(41-3)30(33(32)43-26)20-10-17(6-9-21(20)34)27-13-23(36)31-22(35)11-19(40-2)12-29(31)42-27/h4-15,34-35,38H,1-3H3

>  <standard_inchi_key>  (1701) 
NXPAGAZHSWSUFJ-UHFFFAOYSA-N

>  <name>  (1701) 
HEVEAFLAVONE

>  <iupac_name>  (1701) 
5-hydroxy-8-[2-hydroxy-5-(5-hydroxy-7-methoxy-4-oxo-chromen-2-yl)phenyl]-7-methoxy-2-(4-methoxyphenyl)chromen-4-one

>  <annotation_level>  (1701) 
5

>  <total_atom_count>  (1701) 
67

>  <heavy_atom_count>  (1701) 
43

>  <molecular_weight>  (1701) 
580.55

>  <exact_molecular_weight>  (1701) 
580.13695

>  <molecular_formula>  (1701) 
C33H24O10

>  <alogp>  (1701) 
6.04

>  <topological_polar_surface_area>  (1701) 
148.80

>  <rotatable_bond_count>  (1701) 
6

>  <hydrogen_bond_acceptors>  (1701) 
10

>  <hydrogen_bond_donors>  (1701) 
3

>  <hydrogen_bond_acceptors_lipinski>  (1701) 
10

>  <hydrogen_bond_donors_lipinski>  (1701) 
3

>  <lipinski_rule_of_five_violations>  (1701) 
2

>  <aromatic_rings_count>  (1701) 
6

>  <qed_drug_likeliness>  (1701) 
0.21

>  <formal_charge>  (1701) 
0

>  <fractioncsp3>  (1701) 
0.09

>  <number_of_minimal_rings>  (1701) 
6

>  <van_der_walls_volume>  (1701) 
483.59

>  <contains_sugar>  (1701) 
False

>  <contains_ring_sugars>  (1701) 
False

>  <contains_linear_sugars>  (1701) 
False

>  <murcko_framework>  (1701) 
O1c2ccccc2CC=C1c3cccc(c3)-c4cccc5c4OC(=CC5)c6ccccc6

>  <np_likeness>  (1701) 
0.98

>  <chemical_class>  (1701) 
Flavonoids

>  <chemical_sub_class>  (1701) 
Biflavonoids and polyflavonoids

>  <chemical_super_class>  (1701) 
Phenylpropanoids and polyketides

>  <direct_parent_classification>  (1701) 
Biflavonoids and polyflavonoids

>  <np_classifier_pathway>  (1701) 
Shikimates and Phenylpropanoids

>  <np_classifier_superclass>  (1701) 
Flavonoids

>  <np_classifier_class>  (1701) 
Flavones

>  <np_classifier_is_glycoside>  (1701) 
False

>  <organisms>  (1701) 
Actinobacillus equuli|Aerva javanica|Atergatis integerrimus|Cissus rheifolia|Cytisus uniflorus|Eremurus sogdianus|Etlingera elatior|Exostema caribaeum|Herba selaginellae doederleinii|Hevea Brasiliensis|Hevea brasiliensis|Hymenoxys lemmoni|Leptosphaeria maculans|Lychnophora staavioides|Myrmicaria striata|Ouratea castaneifolia|Ouratea multiflora|Phyllophora nervosa|Pinus caribaea|Podocarpus fasciculus|Podocarpus latifolius|Prumnopitys montana|Pseudochlorella pringsheimii|Psidium araca|Retrophyllum rospigliosii|Selaginella delicatula|Selaginella doederleinii|Selaginella lepidophylla|Selaginella tamariscina

>  <collections>  (1701) 
CMAUP (cCollective molecular activities of useful plants)|ChemSpider NPs|KNApSaCK|Latin America dataset|NPASS|NPEdia|NuBBEDB|Super Natural II|TCMDB-Taiwan (Traditional Chinese Medicine database)|TCMID (Traditional Chinese Medicine Integrated Database)|TIPdb (database of Taiwan indigenous plants)|UNPD (Universal Natural Products Database)|VietHerb|WikiData Natural Products|ZINC NP

>  <dois>  (1701) 
10.1007/978-1-4615-3476-1_53|10.1007/S10600-011-0013-3|10.1016/S0031-9422(00)81743-4|10.1016/S0040-4039(01)88074-6|10.1055/S-2006-959443|10.1055/S-2007-990218|10.1248/CPB.56.585|10.1248/CPB.56.982|10.1248/CPB.58.549|10.1590/S0102-695X2007000300003|10.1590/S0102-695X2009000600004

>  <synonyms>  (1701) 
23132-13-0|3''',8-Biflavone, 4''',5,5''-trihydroxy-4',7,7''-trimethoxy- (8CI); 5-Hydroxy-8-[2-hydroxy-5-(5-hydroxy-7-methoxy-4-oxo-4H-1-benzopyran-2-yl)phenyl]-7-methoxy-2-(4-methoxyphenyl)-4H-1-benzopyran-4-one|4H-1-Benzopyran-4-one, 5-hydroxy-8-[2-hydroxy-5-(5-hydroxy-7-methoxy-4-oxo-4H-1-benzopyran-2-yl)phenyl]-7-methoxy-2-(4-methoxyphenyl)-|5-hydroxy-8-[2-hydroxy-5-(5-hydroxy-7-methoxy-4-oxochromen-2-yl)phenyl]-7-methoxy-2-(4-methoxyphenyl)chromen-4-one|AKOS032948160|B0005-175502|CS-0024527|FS-9629|HY-N4047|Heveaflavone|YAA13213

>  <cas>  (1701) 
23132-13-0

$$$$

     RDKit          2D

 28 30  0  0  0  0  0  0  0  0999 V2000
    5.6229   -3.9121    0.0000 C   0  0  0  0  0  0  0  0  0  0  0  0
    4.2989   -3.2071    0.0000 O   0  0  0  0  0  0  0  0  0  0  0  0
    4.2474   -1.7080    0.0000 C   0  0  0  0  0  0  0  0  0  0  0  0
    5.5200   -0.9139    0.0000 O   0  0  0  0  0  0  0  0  0  0  0  0
    2.9234   -1.0030    0.0000 C   0  0  0  0  0  0  0  0  0  0  0  0
    1.6509   -1.7972    0.0000 C   0  0  0  0  0  0  0  0  0  0  0  0
    0.3269   -1.0922    0.0000 O   0  0  0  0  0  0  0  0  0  0  0  0
    0.2754    0.4069    0.0000 C   0  0  0  0  0  0  0  0  0  0  0  0
   -1.0486    1.1119    0.0000 O   0  0  0  0  0  0  0  0  0  0  0  0
   -2.3211    0.3178    0.0000 C   0  0  0  0  0  0  0  0  0  0  0  0
   -3.6451    1.0228    0.0000 O   0  0  0  0  0  0  0  0  0  0  0  0
   -4.9177    0.2286    0.0000 C   0  0  0  0  0  0  0  0  0  0  0  0
   -6.2417    0.9336    0.0000 C   0  0  0  0  0  0  0  0  0  0  0  0
   -6.2931    2.4327    0.0000 O   0  0  0  0  0  0  0  0  0  0  0  0
   -4.8662   -1.2705    0.0000 C   0  0  0  0  0  0  0  0  0  0  0  0
   -6.1387   -2.0646    0.0000 O   0  0  0  0  0  0  0  0  0  0  0  0
   -3.5422   -1.9755    0.0000 C   0  0  0  0  0  0  0  0  0  0  0  0
   -3.4907   -3.4746    0.0000 O   0  0  0  0  0  0  0  0  0  0  0  0
   -2.2697   -1.1813    0.0000 C   0  0  0  0  0  0  0  0  0  0  0  0
   -0.9456   -1.8863    0.0000 O   0  0  0  0  0  0  0  0  0  0  0  0
    1.5480    1.2011    0.0000 C   0  0  0  0  0  0  0  0  0  0  0  0
    1.8093    2.6781    0.0000 C   0  0  0  0  0  0  0  0  0  0  0  0
    0.7680    3.7577    0.0000 C   0  0  0  0  0  0  0  0  0  0  0  0
    1.1823    5.1994    0.0000 O   0  0  0  0  0  0  0  0  0  0  0  0
    3.2948    2.8860    0.0000 C   0  0  0  0  0  0  0  0  0  0  0  0
    3.9516    1.5374    0.0000 C   0  0  0  0  0  0  0  0  0  0  0  0
    5.4287    1.2761    0.0000 O   0  0  0  0  0  0  0  0  0  0  0  0
    2.8720    0.4961    0.0000 C   0  0  0  0  0  0  0  0  0  0  0  0
  1  2  1  0
  2  3  1  0
  3  4  2  0
  3  5  1  0
  5  6  2  0
  6  7  1  0
  7  8  1  0
  8  9  1  1
 10  9  1  1
 10 11  1  0
 11 12  1  0
 12 13  1  1
 13 14  1  0
 12 15  1  0
 15 16  1  6
 15 17  1  0
 17 18  1  1
 17 19  1  0
 19 20  1  6
  8 21  1  0
 21 22  1  6
 22 23  1  0
 23 24  1  0
 22 25  2  0
 25 26  1  0
 26 27  1  1
 26 28  1  0
 28  5  1  6
 19 10  1  0
 28 21  1  0
M  END
>  <identifier>  (1702) 
CNP0228090.2

>  <canonical_smiles>  (1702) 
COC(=O)C1=CO[C@@H](O[C@@H]2O[C@H](CO)[C@@H](O)[C@H](O)[C@H]2O)[C@@H]2C(CO)=C[C@@H](O)[C@H]12

>  <standard_inchi>  (1702) 
InChI=1S/C17H24O11/c1-25-15(24)7-5-26-16(10-6(3-18)2-8(20)11(7)10)28-17-14(23)13(22)12(21)9(4-19)27-17/h2,5,8-14,16-23H,3-4H2,1H3/t8-,9-,10-,11+,12-,13+,14-,16+,17+/m1/s1

>  <standard_inchi_key>  (1702) 
WSGPLSDARZNMCW-LPGRTNKPSA-N

>  <name>  (1702) 
Feretoside

>  <iupac_name>  (1702) 
methyl (1~{S},4~{a}~{S},5~{R},7~{a}~{S})-5-hydroxy-7-(hydroxymethyl)-1-[(2~{S},3~{R},4~{S},5~{S},6~{R})-3,4,5-trihydroxy-6-(hydroxymethyl)tetrahydropyran-2-yl]oxy-1,4~{a},5,7~{a}-tetrahydrocyclopenta[c]pyran-4-carboxylate

>  <annotation_level>  (1702) 
5

>  <total_atom_count>  (1702) 
52

>  <heavy_atom_count>  (1702) 
28

>  <molecular_weight>  (1702) 
404.37

>  <exact_molecular_weight>  (1702) 
404.13186

>  <molecular_formula>  (1702) 
C17H24O11

>  <alogp>  (1702) 
-3.26

>  <topological_polar_surface_area>  (1702) 
175.37

>  <rotatable_bond_count>  (1702) 
5

>  <hydrogen_bond_acceptors>  (1702) 
11

>  <hydrogen_bond_donors>  (1702) 
6

>  <hydrogen_bond_acceptors_lipinski>  (1702) 
11

>  <hydrogen_bond_donors_lipinski>  (1702) 
6

>  <lipinski_rule_of_five_violations>  (1702) 
2

>  <aromatic_rings_count>  (1702) 
0

>  <qed_drug_likeliness>  (1702) 
0.20

>  <formal_charge>  (1702) 
0

>  <fractioncsp3>  (1702) 
0.71

>  <number_of_minimal_rings>  (1702) 
3

>  <van_der_walls_volume>  (1702) 
338.17

>  <contains_sugar>  (1702) 
True

>  <contains_ring_sugars>  (1702) 
True

>  <contains_linear_sugars>  (1702) 
False

>  <murcko_framework>  (1702) 
O1C=CC2CC=CC2C1OC3OCCCC3

>  <np_likeness>  (1702) 
2.69

>  <chemical_class>  (1702) 
Prenol lipids

>  <chemical_sub_class>  (1702) 
Terpene glycosides

>  <chemical_super_class>  (1702) 
Lipids and lipid-like molecules

>  <direct_parent_classification>  (1702) 
Iridoid O-glycosides

>  <np_classifier_pathway>  (1702) 
Terpenoids

>  <np_classifier_superclass>  (1702) 
Monoterpenoids

>  <np_classifier_class>  (1702) 
Iridoids monoterpenoids

>  <np_classifier_is_glycoside>  (1702) 
True

>  <organisms>  (1702) 
Adina polycephala Benth|Adina trichotoma|Alibertia macrophylla|Anthocercis frondosa|Astroloma humifusum|Catunaregam spinosa|Cordiera macrophylla|Eucommia ulmoides|Feretia apodanthera|Galeopsis bifida|Galium mollugo|Gardenia jasminoides|Gardenia jasminoides cv.fortuneana HARA|Genipa americana|Morinda citrifolia|Oldenlandia corymbosa|Oldenlandia herbacea var. herbacea|Paederia foetida|Paederia scandens|Phlomoides tuberosa|Pterospermum heyneanum|Randia spinosa|Rhododendron latoucheae|Ridsdalea wittii|Rosenbergiodendron formosum|Rothmannia macrophylla|Singaporandia macrophylla|Spermacoce verticillata|Stigmaphyllon palmatum|Styphelia humifusa|Thymus membranaceus|Torilis scabra|Triphyophyllum peltatum

>  <collections>  (1702) 
Australian natural products|CMAUP (cCollective molecular activities of useful plants)|ChEBI NPs|ChemSpider NPs|KNApSaCK|Latin America dataset|NPASS|NuBBEDB|Super Natural II|TCMDB-Taiwan (Traditional Chinese Medicine database)|TIPdb (database of Taiwan indigenous plants)|WikiData Natural Products|ZINC NP

>  <dois>  (1702) 
10.1002/HLCA.200790187|10.1002/HLCA.200890068|10.1002/HLCA.200900457|10.1002/HLCA.201000129|10.1002/RCM.4643|10.1002/hlca.200790187|10.1016/0031-9422(93)85522-S|10.1016/0031-9422(93)85522-s|10.1016/J.BMCL.2012.11.099|10.1016/J.PHYTOCHEM.2009.03.008|10.1016/S0031-9422(00)84093-5|10.1016/S0031-9422(00)89240-7|10.1016/S0031-9422(03)00109-2|10.1016/S0367-326X(00)00316-6|10.1021/NP000524C|10.1021/NP0580816|10.1021/NP50024A004|10.1021/NP700758Q|10.1055/S-0028-1097344|10.1055/S-2007-969406|10.1248/CPB.39.2049|10.1248/CPB.51.1417|10.1248/CPB.52.1356|10.1248/CPB.55.632|10.3987/COM-02-9622

>  <synonyms>  (1702) 
27530-67-2|6\u221a\u00e9\u00ac\u2264-Hydroxygeniposide Scandoside methyl ester|6alpha-Hydroxygeniposide|6beta-hydroxygeniposide|AKOS015896743|C09798|CHEBI:9046|CHEMBL516850|CS-0032784|Cyclopenta(c)pyran-4-carboxylic acid, 1-(beta-D-glucopyranosyloxy)-1,4aalpha,5,7aalpha-tetrahydro-5beta-hydroxy-7-(hydroxymethyl)-, hexaacetate|DTXSID80950211|FS-9701|HY-N6249|Methyl 1-(hexopyranosyloxy)-5-hydroxy-7-(hydroxymethyl)-1,4a,5,7a-tetrahydrocyclopenta[c]pyran-4-carboxylate|Q27108249|SCHEMBL20572206|Scandoside methyl ester|methyl (1S,4aS,5R,7aS)-5-hydroxy-7-(hydroxymethyl)-1-[(2S,3R,4S,5S,6R)-3,4,5-trihydroxy-6-(hydroxymethyl)oxan-2-yl]oxy-1,4a,5,7a-tetrahydrocyclopenta[c]pyran-4-carboxylate

>  <cas>  (1702) 
27530-67-2

$$$$

     RDKit          2D

  9  9  0  0  0  0  0  0  0  0999 V2000
    3.3914   -1.1523    0.0000 O   0  0  0  0  0  0  0  0  0  0  0  0
    2.7545    0.2058    0.0000 C   0  0  0  0  0  0  0  0  0  0  0  0
    1.2600    0.3333    0.0000 C   0  0  0  0  0  0  0  0  0  0  0  0
    0.4846    1.6173    0.0000 C   0  0  0  0  0  0  0  0  0  0  0  0
   -0.9762    1.2767    0.0000 C   0  0  0  0  0  0  0  0  0  0  0  0
   -1.1037   -0.2178    0.0000 C   0  0  0  0  0  0  0  0  0  0  0  0
   -2.3878   -0.9932    0.0000 C   0  0  0  0  0  0  0  0  0  0  0  0
   -3.7013   -0.2688    0.0000 O   0  0  0  0  0  0  0  0  0  0  0  0
    0.2783   -0.8009    0.0000 O   0  0  0  0  0  0  0  0  0  0  0  0
  1  2  2  0
  2  3  1  0
  3  4  2  0
  4  5  1  0
  5  6  2  0
  6  7  1  0
  7  8  1  0
  6  9  1  0
  9  3  1  0
M  END
>  <identifier>  (1703) 
CNP0222574.0

>  <canonical_smiles>  (1703) 
O=CC1=CC=C(CO)O1

>  <standard_inchi>  (1703) 
InChI=1S/C6H6O3/c7-3-5-1-2-6(4-8)9-5/h1-3,8H,4H2

>  <standard_inchi_key>  (1703) 
NOEGNKMFWQHSLB-UHFFFAOYSA-N

>  <name>  (1703) 
5-HYDROXYMETHYLFURFURAL

>  <iupac_name>  (1703) 
5-(hydroxymethyl)furan-2-carbaldehyde

>  <annotation_level>  (1703) 
5

>  <total_atom_count>  (1703) 
15

>  <heavy_atom_count>  (1703) 
9

>  <molecular_weight>  (1703) 
126.11

>  <exact_molecular_weight>  (1703) 
126.03169

>  <molecular_formula>  (1703) 
C6H6O3

>  <alogp>  (1703) 
0.58

>  <topological_polar_surface_area>  (1703) 
50.44

>  <rotatable_bond_count>  (1703) 
2

>  <hydrogen_bond_acceptors>  (1703) 
3

>  <hydrogen_bond_donors>  (1703) 
1

>  <hydrogen_bond_acceptors_lipinski>  (1703) 
3

>  <hydrogen_bond_donors_lipinski>  (1703) 
1

>  <lipinski_rule_of_five_violations>  (1703) 
0

>  <aromatic_rings_count>  (1703) 
1

>  <qed_drug_likeliness>  (1703) 
0.59

>  <formal_charge>  (1703) 
0

>  <fractioncsp3>  (1703) 
0.17

>  <number_of_minimal_rings>  (1703) 
1

>  <van_der_walls_volume>  (1703) 
109.97

>  <contains_sugar>  (1703) 
False

>  <contains_ring_sugars>  (1703) 
False

>  <contains_linear_sugars>  (1703) 
False

>  <murcko_framework>  (1703) 
o1cccc1

>  <np_likeness>  (1703) 
0.62

>  <chemical_class>  (1703) 
Organooxygen compounds

>  <chemical_sub_class>  (1703) 
Carbonyl compounds

>  <chemical_super_class>  (1703) 
Organic oxygen compounds

>  <direct_parent_classification>  (1703) 
Aryl-aldehydes

>  <np_classifier_pathway>  (1703) 
Polyketides

>  <np_classifier_superclass>  (1703) 
Cyclic polyketides

>  <np_classifier_class>  (1703) 
Furans

>  <np_classifier_is_glycoside>  (1703) 
False

>  <organisms>  (1703) 
Acalypha spiciflora|Achyranthes bidentata|Achyranthes fauriei|Achyranthes japonica|Aconitum bullatifolium|Aconitum zuccarini|Acorus calamus|Acorus gramineus|Acorus tatarinowii|Aka coralliphagum|Albizia julibrissin|Alisma orientalis|Allium Cepa|Allium cepa|Alsidium triquetrum|Anemarrhena asphodeloides|Aralia bipinnata|Aristolochia gehrtii|Aristolochia kaempferi|Asparagus cochinchinensis|Asparagus racemosus|Atractylodes chinensis|Bryothamnion triquetrum|Capparis spinosa|Carica papaya|Carthamus tinctorius|Cassia fistula|Chamaecyparis pisifera|Chondria oppositiclada|Chondrophycus undulatus|Cleistopholis glauca|Clematis chinensis|Clerodendron cyrtophyllum|Clerodendrum trichotomum|Clivia miniata|Codonopsis pilosula|Codonopsis pilosula subsp. tangshen|Cornus officinalis|Cortinarius vinosipes|Crocus sativus|Cronquistia pringlei|Curculigo orchioides|Dendrobium candidum|Dendrobium chrysanthum|Dendrobium chrysotoxum|Dendrobium fimbriatum|Dendrobium loddigesii|Dendrobium nobile|Dendrobium officinale|Dioscorea collettii var. hypoglauca|Dioscorea japonica|Dioscorea opposita|Dioscorea polystachya|Disporopsis|Disporopsis Aspera|Disporopsis aspera|Dorstenia excentrica|Duhaldea cappa|Eleutherococcus senticosus|Equisetum debile|Eucalyptus leucoxylon|Eucalyptus melliodora|Eucommia Ulmoides|Eucommia ulmoides|Eucommia ulmoides Oliver|Euphorbia hirta|FOOD SAKE|Foeniculum vulgare|Forficula auricularia|Fructus galangae|Fructus mori|Garcinia subelliptica|Gastrodia elata|Gonocaryum calleryanum|Gymnadenia conopsea|Gymnadenia conopsea R.BR.|Herba cichorii|Herba serissae|Hippophae rhamnoides|Homalomena occulta|Houttuynia cordata|Hydrastis canadensis|Hymenoxys microcephala|Hyoscyamus niger|Idriella Idriella spp|Imperata cylindrica|Isatis tinctoria|Jatropha curcas|Juniperus rigida|Laurencia undulata|Liquidambar orientalis|Liriope muscari|Lobelia chinensis|Lycium barbarum|Lycium chinense|Lygodium japonicum|Lygodium reticulatum|Melia azedarach|Mentzelia arborescens|Monascus pilosus|Monascus pilosus BCRC38072|Morinda citrifolia|Nicotiana tabacum|Ophiopogon japonicus|Parmelia pokornyi|Peperomia humilis|Peperomia leptostachya|Persicaria perfoliata|Picea abies|Pinellia ternata|Planochloris|Pluchea sagittalis|Pogostemon cablin|Polygonatum cyrtonema|Polygonatum falcatum|Polygonatum kingianum|Polygonatum sibiricum|Polyporus umbellatus|Prunus mume|Radix adenophorae|Ranunculus ternatus|Rehmannia Glutinosa|Rehmannia glutinosa|Rehmannia glutinosa (Gaertn) Libosch|Rhizoma acori graminei|Rhizoma dioscoreae hypoglaucae|Rhizoma homalomenae occultae|Rhododendron dauricum|Saussurea cordifolia|Saussurea lappa|Schefflera divaricata|Schisandra chinensis|Sclerodoris tanya|Scrophularia Ningpoensis|Scrophularia buergeriana|Scrophularia ningpoensis|Scrophularia nodosa|Siphoneugena densiflora|Sraitia grosvenorii|Stellaria dichotoma|Swertia cuneata|Syzygium cumini|Talaromyces flavus|Tecoma heptaphylla|Tithonia rotundifolia|Trichosanthes bracteata|Trichosanthes kirilowii|Trichosanthes rosthornii|Tropicoporus linteus|Tussilago farfara|Verruculina enalia|Verruculina enalia No. 2606|Vitis vinifera|Xanthium strumarium|Ziziphus jujuba var. spinosa

>  <collections>  (1703) 
Australian natural products|CMAUP (cCollective molecular activities of useful plants)|ChEBI NPs|DrugBankNP|EMNPD|FooDB|KNApSaCK|Latin America dataset|NPASS|NPAtlas|NPCARE|NPEdia|Nat-UV DB|NuBBEDB|Phyto4Health|PubChem NPs|Seaweed Metabolite Database (SWMD)|Super Natural II|TCMDB-Taiwan (Traditional Chinese Medicine database)|TCMID (Traditional Chinese Medicine Integrated Database)|TIPdb (database of Taiwan indigenous plants)|UNPD (Universal Natural Products Database)|VietHerb|WikiData Natural Products

>  <dois>  (1703) 
10.1002/1099-1573(200012)14:8<612::AID-PTR677>3.0.CO;2-T|10.1002/CHIN.200348199|10.1002/HLCA.201000425|10.1002/ps.1278|10.1007/BF02975842|10.1007/BF02980143|10.1007/S00226-009-0282-1|10.1007/S10337-010-1825-1|10.1007/S10600-010-9595-4|10.1007/S11418-005-0026-Y|10.1016/0008-6215(87)80175-1|10.1016/0031-9422(94)00943-N|10.1016/0031-9422(95)00072-F|10.1016/J.ACA.2004.09.082|10.1016/J.CHROMA.2004.03.057|10.1016/J.FOODCHEM.2013.07.026|10.1016/J.FOODRES.2011.01.009|10.1016/J.JPBA.2007.01.050|10.1016/J.PHYTOCHEM.2005.03.023|10.1016/J.PHYTOCHEM.2006.03.024|10.1016/J.PHYTOCHEM.2006.06.021|10.1016/J.PHYTOCHEM.2007.01.021|10.1016/J.PHYTOCHEM.2009.12.016|10.1016/S0031-9422(01)00470-8|10.1016/S0031-9422(03)00183-3|10.1016/S0031-9422(98)00520-2|10.1016/S0031-9422(98)80075-7|10.1016/s0031-9422(01)00470-8|10.1021/JF960625+|10.1021/JF970894F|10.1021/JF980960T|10.1021/NP020003K|10.1021/NP040080A|10.1021/NP050084V|10.1021/NP0605182|10.1021/NP9901478|10.1021/jf1025345|10.1021/jf60224a046|10.1021/jf960625+|10.1021/np040080a|10.1055/S-2001-15801|10.1055/S-2007-981619|10.1055/S-2008-1081295|10.1080/10286020.2011.596829|10.1080/10286020.2011.600251|10.1080/14786410903075457|10.1080/14786419.2017.1396587|10.1080/14786419.2018.1530231|10.1093/CHROMSCI/BMX083|10.1139/V90-318|10.1155/2017/7436259|10.1248/BPB.23.1216|10.1248/CPB.37.345|10.1248/CPB.52.1194|10.1248/CPB.54.506|10.1248/CPB.54.538|10.1248/CPB.56.394|10.1248/yakushi.131.423|10.1515/ZNC-2008-5-611|10.1590/S0103-50532001000400004|10.3109/13880209.2012.720689|10.3184/030823406779173497|10.3184/030823409X12562954717147|10.4014/JMB.0901.00004|10.4014/jmb.0901.00004|10.4268/CJCMM20101314

>  <synonyms>  (1703) 
2-Furaldehyde, 5-(hydroxymethyl)-|2-Furancarboxaldehyde, 5-(hydroxymethyl)-|2-Hydroxymethyl-5-furfural|2-formyl-5-hydroxymethylfuran|5-(HYDROXYMETHYL)-2-FURALDEHYDE [MI]|5-(Hydroxymethyl)-2-furancarbonal|5-(Hydroxymethyl)-2-furancarboxaldehyde|5-(Hydroxymethyl)furfural|5-(Hydroxymethyl)furfural, >=99%, FG|5-(Hydroxymethyl)furfural, analytical standard|5-(hydroxymethyl)-2-furfural (HMF)|5-(hydroxymethyl)furan-2-carbaldehyde|5-(hydroxymethyl)furan-2-carbaldehyde;5-(Hydroxymethyl)furfural|5-18-01-00130 (Beilstein Handbook Reference)|5-HMF|5-HYDROXYMETHYL-FURFURAL|5-Hydroxymethyl-2-formylfuran|5-Hydroxymethyl-2-furaldehyde|5-Hydroxymethylfuran-2-aldehyde|5-Oxymethylfurfurole|5-formylfurfuryl alcohol|5-hydroxymethyl furfural|5-hydroxymethyl- 2-furancarboxaldehyde, 5-hydroxymethyl-2-furfuraldehyde|5-hydroxymethylfurfural; 5-(hydroxymethyl)-2-furaldehyde|5-methylolfurfural|5HMF|67-47-0|70ETD81LF0|801 - Honey essential composition and quality factors|A9037|AC-1262|AKOS005166879|AM20100616|Aes 103|Aes-103|BBL100102|BCP31207|BDBM50487911|BRN 0110889|CAS-67-47-0|CBiol_000485|CCG-266098|CCRIS 3160|CHEBI:412516|CHEMBL185885|CS-D1116|DB-007058|DB12298|DTXCID1010428|DTXSID3030428|EINECS 200-654-9|EN300-82764|Epitope ID:136033|F2191-0155|FC-801-QC sample 801 - Essential composition and quality factors - Honey|GEO-01528|GLUCOSAMINE SULFATE POTASSIUM CHLORIDE IMPURITY E [ EP IMPURITY]|GS-3074|GTPL10939|H0269|HMF|HSDB 7982|HY-Y0051|HYDROXYMETHYLFURFURAL, 5-|Hydroxymethylfurfuraldehyde|Hydroxymethylfurfurole|ICCB3_000133|InChI=1\/C6H6O3\/c7-3-5-1-2-6(4-8)9-5\/h1-3,8H,4H|MFCD00003234|MLS002454379|NCGC00091513-01|NCGC00257266-01|NCGC00259441-01|NS00014938|NSC 40738|NSC-40738|Q-200545|Q414606|QSPL 022|SCHEMBL19176|SMR000393981|STL451297|SY010869|Tox21_201892|Tox21_303551|UNII-70ETD81LF0|Z1238542812|s3772

>  <cas>  (1703) 
67-47-0

$$$$

     RDKit          2D

 22 24  0  0  0  0  0  0  0  0999 V2000
    7.8274   -1.4521    0.0000 O   0  0  0  0  0  0  0  0  0  0  0  0
    6.3741   -1.0807    0.0000 C   0  0  0  0  0  0  0  0  0  0  0  0
    5.3258   -2.1535    0.0000 C   0  0  0  0  0  0  0  0  0  0  0  0
    3.8725   -1.7821    0.0000 C   0  0  0  0  0  0  0  0  0  0  0  0
    3.4675   -0.3378    0.0000 C   0  0  0  0  0  0  0  0  0  0  0  0
    2.0143    0.0337    0.0000 C   0  0  0  0  0  0  0  0  0  0  0  0
    1.6093    1.4780    0.0000 C   0  0  0  0  0  0  0  0  0  0  0  0
    0.1560    1.8494    0.0000 C   0  0  0  0  0  0  0  0  0  0  0  0
   -0.2489    3.2937    0.0000 C   0  0  0  0  0  0  0  0  0  0  0  0
   -1.7022    3.6652    0.0000 C   0  0  0  0  0  0  0  0  0  0  0  0
   -2.7505    2.5923    0.0000 C   0  0  0  0  0  0  0  0  0  0  0  0
   -2.3456    1.1480    0.0000 C   0  0  0  0  0  0  0  0  0  0  0  0
   -3.3939    0.0752    0.0000 C   0  0  0  0  0  0  0  0  0  0  0  0
   -4.8472    0.4466    0.0000 C   0  0  0  0  0  0  0  0  0  0  0  0
   -5.8955   -0.6262    0.0000 C   0  0  0  0  0  0  0  0  0  0  0  0
   -5.4906   -2.0705    0.0000 C   0  0  0  0  0  0  0  0  0  0  0  0
   -6.5389   -3.1434    0.0000 O   0  0  0  0  0  0  0  0  0  0  0  0
   -4.0373   -2.4420    0.0000 C   0  0  0  0  0  0  0  0  0  0  0  0
   -2.9890   -1.3691    0.0000 C   0  0  0  0  0  0  0  0  0  0  0  0
   -0.8923    0.7766    0.0000 O   0  0  0  0  0  0  0  0  0  0  0  0
    4.5159    0.7351    0.0000 C   0  0  0  0  0  0  0  0  0  0  0  0
    5.9691    0.3636    0.0000 C   0  0  0  0  0  0  0  0  0  0  0  0
  1  2  1  0
  2  3  2  0
  3  4  1  0
  4  5  2  0
  5  6  1  0
  6  7  1  0
  8  7  1  6
  8  9  1  0
  9 10  1  0
 10 11  1  0
 11 12  1  0
 12 13  1  6
 13 14  2  0
 14 15  1  0
 15 16  2  0
 16 17  1  0
 16 18  1  0
 18 19  2  0
 12 20  1  0
  5 21  1  0
 21 22  2  0
 22  2  1  0
 20  8  1  0
 19 13  1  0
M  END
>  <identifier>  (1704) 
CNP0208643.2

>  <canonical_smiles>  (1704) 
OC1=CC=C(CC[C@H]2CCC[C@@H](C3=CC=C(O)C=C3)O2)C=C1

>  <standard_inchi>  (1704) 
InChI=1S/C19H22O3/c20-16-9-4-14(5-10-16)6-13-18-2-1-3-19(22-18)15-7-11-17(21)12-8-15/h4-5,7-12,18-21H,1-3,6,13H2/t18-,19+/m1/s1

>  <standard_inchi_key>  (1704) 
PFPVUGVMSODGGR-MOPGFXCFSA-N

>  <name>  (1704) 
2alpha-(4-Hydroxyphenyl)-6alpha-(4-hydroxyphenethyl)tetrahydro-2H-pyran

>  <iupac_name>  (1704) 
4-[2-[(2~{R},6~{S})-6-(4-hydroxyphenyl)tetrahydropyran-2-yl]ethyl]phenol

>  <annotation_level>  (1704) 
5

>  <total_atom_count>  (1704) 
44

>  <heavy_atom_count>  (1704) 
22

>  <molecular_weight>  (1704) 
298.38

>  <exact_molecular_weight>  (1704) 
298.15689

>  <molecular_formula>  (1704) 
C19H22O3

>  <alogp>  (1704) 
4.34

>  <topological_polar_surface_area>  (1704) 
49.69

>  <rotatable_bond_count>  (1704) 
4

>  <hydrogen_bond_acceptors>  (1704) 
3

>  <hydrogen_bond_donors>  (1704) 
2

>  <hydrogen_bond_acceptors_lipinski>  (1704) 
3

>  <hydrogen_bond_donors_lipinski>  (1704) 
2

>  <lipinski_rule_of_five_violations>  (1704) 
0

>  <aromatic_rings_count>  (1704) 
2

>  <qed_drug_likeliness>  (1704) 
0.88

>  <formal_charge>  (1704) 
0

>  <fractioncsp3>  (1704) 
0.37

>  <number_of_minimal_rings>  (1704) 
3

>  <van_der_walls_volume>  (1704) 
nan

>  <contains_sugar>  (1704) 
False

>  <contains_ring_sugars>  (1704) 
False

>  <contains_linear_sugars>  (1704) 
False

>  <murcko_framework>  (1704) 
O1C(c2ccccc2)CCCC1CCc3ccccc3

>  <np_likeness>  (1704) 
0.81

>  <chemical_class>  (1704) 
Diarylheptanoids

>  <chemical_sub_class>  (1704) 
Linear diarylheptanoids

>  <chemical_super_class>  (1704) 
Phenylpropanoids and polyketides

>  <direct_parent_classification>  (1704) 
Linear diarylheptanoids

>  <np_classifier_pathway>  (1704) 
Shikimates and Phenylpropanoids

>  <np_classifier_superclass>  (1704) 
Diarylheptanoids

>  <np_classifier_class>  (1704) 
Linear diarylheptanoids

>  <np_classifier_is_glycoside>  (1704) 
False

>  <organisms>  (1704) 
Centrolobium robustum|Centrolobium sclerophyllum|Centrolobium tomentosum

>  <collections>  (1704) 
Latin America dataset|NuBBEDB|Super Natural II|WikiData Natural Products|ZINC NP

>  <dois>  (1704) 
10.1016/S0031-9422(00)85606-X|10.1016/S0031-9422(00)97984-6|10.1016/S0031-9422(97)00976-X|10.1071/CH9841127

>  <synonyms>  (1704) 
(-)-De-O-methylcentrolobin|30359-00-3|4-[2-[(2R,6S)-6-(4-hydroxyphenyl)oxan-2-yl]ethyl]phenol|AKOS040735108

>  <cas>  (1704) 
30359-00-3

$$$$

     RDKit          2D

 27 31  0  0  0  0  0  0  0  0999 V2000
    3.1677   -3.9986    0.0000 C   0  0  0  0  0  0  0  0  0  0  0  0
    2.0966   -2.9485    0.0000 C   0  0  0  0  0  0  0  0  0  0  0  0
    0.6516   -3.3510    0.0000 N   0  0  0  0  0  0  0  0  0  0  0  0
   -0.4195   -2.3009    0.0000 C   0  0  0  0  0  0  0  0  0  0  0  0
   -1.8645   -2.7034    0.0000 O   0  0  0  0  0  0  0  0  0  0  0  0
   -0.0456   -0.8482    0.0000 C   0  0  0  0  0  0  0  0  0  0  0  0
   -1.1167    0.2019    0.0000 C   0  0  0  0  0  0  0  0  0  0  0  0
   -2.5617   -0.2006    0.0000 C   0  0  0  0  0  0  0  0  0  0  0  0
   -3.0854   -1.6062    0.0000 C   0  0  0  0  0  0  0  0  0  0  0  0
   -4.5840   -1.5425    0.0000 N   0  0  0  0  0  0  0  0  0  0  0  0
   -4.9865   -0.0976    0.0000 C   0  0  0  0  0  0  0  0  0  0  0  0
   -6.3297    0.5702    0.0000 C   0  0  0  0  0  0  0  0  0  0  0  0
   -6.4230    2.0673    0.0000 C   0  0  0  0  0  0  0  0  0  0  0  0
   -5.1731    2.8966    0.0000 C   0  0  0  0  0  0  0  0  0  0  0  0
   -3.8299    2.2289    0.0000 C   0  0  0  0  0  0  0  0  0  0  0  0
   -3.7366    0.7318    0.0000 C   0  0  0  0  0  0  0  0  0  0  0  0
    1.3994   -0.4457    0.0000 N   0  0  0  0  0  0  0  0  0  0  0  0
    2.4705   -1.4958    0.0000 C   0  0  0  0  0  0  0  0  0  0  0  0
    3.9155   -1.0933    0.0000 N   0  0  0  0  0  0  0  0  0  0  0  0
    4.2894    0.3593    0.0000 C   0  0  0  0  0  0  0  0  0  0  0  0
    5.7343    0.7619    0.0000 C   0  0  0  0  0  0  0  0  0  0  0  0
    6.1082    2.2145    0.0000 C   0  0  0  0  0  0  0  0  0  0  0  0
    5.0371    3.2646    0.0000 C   0  0  0  0  0  0  0  0  0  0  0  0
    3.5922    2.8621    0.0000 C   0  0  0  0  0  0  0  0  0  0  0  0
    3.2183    1.4095    0.0000 C   0  0  0  0  0  0  0  0  0  0  0  0
    1.7733    1.0069    0.0000 C   0  0  0  0  0  0  0  0  0  0  0  0
    0.7022    2.0571    0.0000 O   0  0  0  0  0  0  0  0  0  0  0  0
  2  1  1  6
  2  3  1  0
  3  4  1  0
  4  5  2  0
  4  6  1  0
  6  7  1  1
  7  8  1  0
  8  9  2  0
  9 10  1  0
 10 11  1  0
 11 12  2  0
 12 13  1  0
 13 14  2  0
 14 15  1  0
 15 16  2  0
  6 17  1  0
 17 18  1  0
 18 19  2  0
 19 20  1  0
 20 21  2  0
 21 22  1  0
 22 23  2  0
 23 24  1  0
 24 25  2  0
 25 26  1  0
 26 27  2  0
 18  2  1  0
 25 20  1  0
 16  8  1  0
 26 17  1  0
 16 11  1  0
M  END
>  <identifier>  (1705) 
CNP0310939.1

>  <canonical_smiles>  (1705) 
C[C@@H]1NC(=O)[C@@H](CC2=CNC3=CC=CC=C23)N2C1=NC1=CC=CC=C1C2=O

>  <standard_inchi>  (1705) 
InChI=1S/C21H18N4O2/c1-12-19-24-17-9-5-3-7-15(17)21(27)25(19)18(20(26)23-12)10-13-11-22-16-8-4-2-6-14(13)16/h2-9,11-12,18,22H,10H2,1H3,(H,23,26)/t12-,18+/m0/s1

>  <standard_inchi_key>  (1705) 
SUVZUTHVKIBYOH-KPZWWZAWSA-N

>  <name>  (1705) 
FUMIQUINAZOLINE F

>  <iupac_name>  (1705) 
(1~{S},4~{R})-4-(1~{H}-indol-3-ylmethyl)-1-methyl-2,4-dihydro-1~{H}-pyrazino[2,1-b]quinazoline-3,6-dione

>  <annotation_level>  (1705) 
5

>  <total_atom_count>  (1705) 
45

>  <heavy_atom_count>  (1705) 
27

>  <molecular_weight>  (1705) 
358.4

>  <exact_molecular_weight>  (1705) 
358.14298

>  <molecular_formula>  (1705) 
C21H18N4O2

>  <alogp>  (1705) 
2.85

>  <topological_polar_surface_area>  (1705) 
79.78

>  <rotatable_bond_count>  (1705) 
2

>  <hydrogen_bond_acceptors>  (1705) 
4

>  <hydrogen_bond_donors>  (1705) 
2

>  <hydrogen_bond_acceptors_lipinski>  (1705) 
4

>  <hydrogen_bond_donors_lipinski>  (1705) 
2

>  <lipinski_rule_of_five_violations>  (1705) 
0

>  <aromatic_rings_count>  (1705) 
4

>  <qed_drug_likeliness>  (1705) 
0.58

>  <formal_charge>  (1705) 
0

>  <fractioncsp3>  (1705) 
0.19

>  <number_of_minimal_rings>  (1705) 
5

>  <van_der_walls_volume>  (1705) 
311.61

>  <contains_sugar>  (1705) 
False

>  <contains_ring_sugars>  (1705) 
False

>  <contains_linear_sugars>  (1705) 
False

>  <murcko_framework>  (1705) 
N=1c2ccccc2CN3C1CNCC3Cc4c[nH]c5ccccc54

>  <np_likeness>  (1705) 
0.38

>  <chemical_class>  (1705) 
Diazanaphthalenes

>  <chemical_sub_class>  (1705) 
Benzodiazines

>  <chemical_super_class>  (1705) 
Organoheterocyclic compounds

>  <direct_parent_classification>  (1705) 
Quinazolines

>  <np_classifier_pathway>  (1705) 
Alkaloids

>  <np_classifier_superclass>  (1705) 
Anthranilic acid alkaloids

>  <np_classifier_class>  (1705) 
Quinazoline alkaloids

>  <np_classifier_is_glycoside>  (1705) 
False

>  <organisms>  (1705) 
Aspergillus|Aspergillus fumigatus|Penicillium aethiopicum|Penicillium corylophilum|Penicillium thymicola

>  <collections>  (1705) 
CMNPD|EMNPD|KNApSaCK|Latin America dataset|NPAtlas|NuBBEDB|WikiData Natural Products

>  <dois>  (1705) 
10.1016/J.MICRES.2004.06.003|10.1016/j.micres.2004.06.003|10.1021/JF300146N|10.1021/NP500683U|10.1021/NP980056V|10.1039/P19950002345|10.1039/np9971400259|10.1039/p19950002345

>  <synonyms>  (1705) 
(1S,4R)-4-(1H-indol-3-ylmethyl)-1-methyl-2,4-dihydro-1H-pyrazino[2,1-b]quinazoline-3,6-dione|(1S,4R)-4-(1H-indol-3-ylmethyl)-1-methyl-2H-pyrazino[2,1-b]quinazoline-3,6(1H,4H)-dione|169626-35-1|C22145|CHEBI:64550|CHEMBL2229117|DTXSID30891847|Fumiquinazoline F|NS00094962|Q27133342|fumiquinozoline F

>  <cas>  (1705) 
169626-35-1

$$$$

     RDKit          2D

 30 34  0  0  0  0  0  0  0  0999 V2000
    6.0452   -3.2811    0.0000 C   0  0  0  0  0  0  0  0  0  0  0  0
    4.6918   -2.6343    0.0000 C   0  0  0  0  0  0  0  0  0  0  0  0
    4.2898   -4.0794    0.0000 C   0  0  0  0  0  0  0  0  0  0  0  0
    3.1988   -2.4893    0.0000 C   0  0  0  0  0  0  0  0  0  0  0  0
    2.5779   -1.1239    0.0000 C   0  0  0  0  0  0  0  0  0  0  0  0
    3.4499    0.0966    0.0000 C   0  0  0  0  0  0  0  0  0  0  0  0
    4.9429   -0.0484    0.0000 C   0  0  0  0  0  0  0  0  0  0  0  0
    5.8149    1.1721    0.0000 C   0  0  0  0  0  0  0  0  0  0  0  0
    5.1940    2.5375    0.0000 C   0  0  0  0  0  0  0  0  0  0  0  0
    3.7010    2.6825    0.0000 C   0  0  0  0  0  0  0  0  0  0  0  0
    2.8290    1.4620    0.0000 C   0  0  0  0  0  0  0  0  0  0  0  0
    1.3988    1.9142    0.0000 C   0  0  0  0  0  0  0  0  0  0  0  0
    0.1923    1.0230    0.0000 C   0  0  0  0  0  0  0  0  0  0  0  0
   -1.1828    1.6222    0.0000 C   0  0  0  0  0  0  0  0  0  0  0  0
   -2.3893    0.7309    0.0000 N   0  0  0  0  0  0  0  0  0  0  0  0
   -3.7645    1.3302    0.0000 C   0  0  0  0  0  0  0  0  0  0  0  0
   -3.9331    2.8206    0.0000 O   0  0  0  0  0  0  0  0  0  0  0  0
   -4.9710    0.4389    0.0000 C   0  0  0  0  0  0  0  0  0  0  0  0
   -6.3461    1.0381    0.0000 C   0  0  0  0  0  0  0  0  0  0  0  0
   -7.5526    0.1468    0.0000 C   0  0  0  0  0  0  0  0  0  0  0  0
   -7.3840   -1.3436    0.0000 C   0  0  0  0  0  0  0  0  0  0  0  0
   -6.0089   -1.9429    0.0000 C   0  0  0  0  0  0  0  0  0  0  0  0
   -4.8023   -1.0516    0.0000 C   0  0  0  0  0  0  0  0  0  0  0  0
   -3.4272   -1.6508    0.0000 N   0  0  0  0  0  0  0  0  0  0  0  0
   -3.2586   -3.1413    0.0000 O   0  0  0  0  0  0  0  0  0  0  0  0
   -2.2207   -0.7596    0.0000 C   0  0  0  0  0  0  0  0  0  0  0  0
   -0.8456   -1.3588    0.0000 O   0  0  0  0  0  0  0  0  0  0  0  0
    1.3869    3.4142    0.0000 C   0  0  0  0  0  0  0  0  0  0  0  0
    2.8097    3.8890    0.0000 N   0  0  0  0  0  0  0  0  0  0  0  0
    5.5638   -1.4138    0.0000 O   0  0  0  0  0  0  0  0  0  0  0  0
  1  2  1  0
  2  3  1  0
  2  4  1  0
  4  5  2  0
  5  6  1  0
  6  7  2  0
  7  8  1  0
  8  9  2  0
  9 10  1  0
 10 11  2  0
 11 12  1  0
 12 13  1  0
 13 14  1  0
 14 15  1  0
 15 16  1  0
 16 17  2  0
 16 18  1  0
 18 19  2  0
 19 20  1  0
 20 21  2  0
 21 22  1  0
 22 23  2  0
 23 24  1  0
 24 25  1  0
 24 26  1  0
 26 27  2  0
 12 28  2  0
 28 29  1  0
  7 30  1  0
 30  2  1  0
 11  6  1  0
 26 15  1  0
 29 10  1  0
 23 18  1  0
M  END
>  <identifier>  (1706) 
CNP0080599.0

>  <canonical_smiles>  (1706) 
CC1(C)C=CC2=C(C=CC3=C2C(CCN2C(=O)C4=CC=CC=C4N(O)C2=O)=CN3)O1

>  <standard_inchi>  (1706) 
InChI=1S/C23H21N3O4/c1-23(2)11-9-16-19(30-23)8-7-17-20(16)14(13-24-17)10-12-25-21(27)15-5-3-4-6-18(15)26(29)22(25)28/h3-9,11,13,24,29H,10,12H2,1-2H3

>  <standard_inchi_key>  (1706) 
UCLJKGKYMLEYMJ-UHFFFAOYSA-N

>  <name>  (1706) 
nan

>  <iupac_name>  (1706) 
3-[2-(7,7-dimethyl-3~{H}-pyrano[3,2-e]indol-1-yl)ethyl]-1-hydroxy-quinazoline-2,4-dione

>  <annotation_level>  (1706) 
4

>  <total_atom_count>  (1706) 
51

>  <heavy_atom_count>  (1706) 
30

>  <molecular_weight>  (1706) 
403.44

>  <exact_molecular_weight>  (1706) 
403.15321

>  <molecular_formula>  (1706) 
C23H21N3O4

>  <alogp>  (1706) 
3.31

>  <topological_polar_surface_area>  (1706) 
89.25

>  <rotatable_bond_count>  (1706) 
3

>  <hydrogen_bond_acceptors>  (1706) 
6

>  <hydrogen_bond_donors>  (1706) 
2

>  <hydrogen_bond_acceptors_lipinski>  (1706) 
6

>  <hydrogen_bond_donors_lipinski>  (1706) 
2

>  <lipinski_rule_of_five_violations>  (1706) 
0

>  <aromatic_rings_count>  (1706) 
4

>  <qed_drug_likeliness>  (1706) 
0.51

>  <formal_charge>  (1706) 
0

>  <fractioncsp3>  (1706) 
0.22

>  <number_of_minimal_rings>  (1706) 
5

>  <van_der_walls_volume>  (1706) 
nan

>  <contains_sugar>  (1706) 
False

>  <contains_ring_sugars>  (1706) 
False

>  <contains_linear_sugars>  (1706) 
False

>  <murcko_framework>  (1706) 
O1c2ccc3[nH]cc(c3c2C=CC1)CCN4CNc5ccccc5C4

>  <np_likeness>  (1706) 
0.57

>  <chemical_class>  (1706) 
Benzopyrans

>  <chemical_sub_class>  (1706) 
1-benzopyrans

>  <chemical_super_class>  (1706) 
Organoheterocyclic compounds

>  <direct_parent_classification>  (1706) 
2,2-dimethyl-1-benzopyrans

>  <np_classifier_pathway>  (1706) 
Alkaloids

>  <np_classifier_superclass>  (1706) 
Anthranilic acid alkaloids

>  <np_classifier_class>  (1706) 
nan

>  <np_classifier_is_glycoside>  (1706) 
False

>  <organisms>  (1706) 
Conchocarpus gaudichaudianus

>  <collections>  (1706) 
Latin America dataset|NuBBEDB

>  <dois>  (1706) 
10.3987/COM-09-11671

>  <synonyms>  (1706) 
3-(2-(77-dimethyl-37-dihydropyrano[32-e]indol-1-yl)ethyl)-1-hydroxyquinazoline-24(1H3H)-dione

>  <cas>  (1706) 
nan

$$$$

     RDKit          2D

 32 33  0  0  0  0  0  0  0  0999 V2000
    4.5954   -4.7707    0.0000 C   0  0  0  0  0  0  0  0  0  0  0  0
    3.3525   -3.9309    0.0000 O   0  0  0  0  0  0  0  0  0  0  0  0
    3.4583   -2.4347    0.0000 C   0  0  0  0  0  0  0  0  0  0  0  0
    4.3891   -2.1150    0.0000 O   0  0  0  0  0  0  0  0  0  0  0  0
    2.2154   -1.5949    0.0000 C   0  0  0  0  0  0  0  0  0  0  0  0
    0.8667   -2.2514    0.0000 C   0  0  0  0  0  0  0  0  0  0  0  0
   -0.3762   -1.4116    0.0000 O   0  0  0  0  0  0  0  0  0  0  0  0
   -0.2703    0.0847    0.0000 C   0  0  0  0  0  0  0  0  0  0  0  0
   -1.5132    0.9244    0.0000 O   0  0  0  0  0  0  0  0  0  0  0  0
   -2.8619    0.2680    0.0000 C   0  0  0  0  0  0  0  0  0  0  0  0
   -4.1048    1.1077    0.0000 O   0  0  0  0  0  0  0  0  0  0  0  0
   -5.4535    0.4513    0.0000 C   0  0  0  0  0  0  0  0  0  0  0  0
   -6.6964    1.2910    0.0000 C   0  0  0  0  0  0  0  0  0  0  0  0
   -6.5906    2.7873    0.0000 O   0  0  0  0  0  0  0  0  0  0  0  0
   -5.5594   -1.0450    0.0000 C   0  0  0  0  0  0  0  0  0  0  0  0
   -6.9081   -1.7015    0.0000 O   0  0  0  0  0  0  0  0  0  0  0  0
   -4.3165   -1.8848    0.0000 C   0  0  0  0  0  0  0  0  0  0  0  0
   -4.4223   -3.3810    0.0000 O   0  0  0  0  0  0  0  0  0  0  0  0
   -2.9678   -1.2283    0.0000 C   0  0  0  0  0  0  0  0  0  0  0  0
   -1.7249   -2.0681    0.0000 O   0  0  0  0  0  0  0  0  0  0  0  0
    1.0784    0.7411    0.0000 C   0  0  0  0  0  0  0  0  0  0  0  0
    1.1842    2.2374    0.0000 C   0  0  0  0  0  0  0  0  0  0  0  0
   -0.0587    3.0772    0.0000 C   0  0  0  0  0  0  0  0  0  0  0  0
    2.5329    2.8939    0.0000 O   0  0  0  0  0  0  0  0  0  0  0  0
    2.6388    4.3902    0.0000 C   0  0  0  0  0  0  0  0  0  0  0  0
    3.9875    5.0466    0.0000 C   0  0  0  0  0  0  0  0  0  0  0  0
    1.3959    5.2299    0.0000 O   0  0  0  0  0  0  0  0  0  0  0  0
    2.3213   -0.0986    0.0000 C   0  0  0  0  0  0  0  0  0  0  0  0
    3.6700    0.5579    0.0000 C   0  0  0  0  0  0  0  0  0  0  0  0
    4.9129   -0.2819    0.0000 C   0  0  0  0  0  0  0  0  0  0  0  0
    6.2616    0.3746    0.0000 O   0  0  0  0  0  0  0  0  0  0  0  0
    4.9636   -1.2648    0.0000 O   0  0  0  0  0  0  0  0  0  0  0  0
  1  2  1  0
  2  3  1  0
  3  4  2  0
  3  5  1  0
  5  6  2  0
  6  7  1  0
  7  8  1  0
  8  9  1  1
 10  9  1  1
 10 11  1  0
 11 12  1  0
 12 13  1  1
 13 14  1  0
 12 15  1  0
 15 16  1  6
 15 17  1  0
 17 18  1  1
 17 19  1  0
 19 20  1  6
  8 21  1  0
 21 22  1  0
 22 23  1  6
 22 24  1  0
 24 25  1  0
 25 26  1  0
 25 27  2  0
 21 28  1  0
 28 29  1  6
 29 30  1  0
 30 31  2  0
 30 32  1  0
 28  5  1  0
 19 10  1  0
M  END
>  <identifier>  (1707) 
CNP0219881.4

>  <canonical_smiles>  (1707) 
COC(=O)C1=CO[C@@H](O[C@@H]2O[C@H](CO)[C@@H](O)[C@H](O)[C@H]2O)C([C@H](C)OC(C)=O)[C@@H]1CC(=O)O

>  <standard_inchi>  (1707) 
InChI=1S/C19H28O13/c1-7(30-8(2)21)13-9(4-12(22)23)10(17(27)28-3)6-29-18(13)32-19-16(26)15(25)14(24)11(5-20)31-19/h6-7,9,11,13-16,18-20,24-26H,4-5H2,1-3H3,(H,22,23)/t7-,9+,11+,13?,14+,15-,16+,18-,19-/m0/s1

>  <standard_inchi_key>  (1707) 
OPKOYMHTMXJHRG-DKBFPROZSA-N

>  <name>  (1707) 
nan

>  <iupac_name>  (1707) 
2-[(2~{S},4~{S})-3-[(1~{S})-1-acetoxyethyl]-5-methoxycarbonyl-2-[(2~{S},3~{R},4~{S},5~{S},6~{R})-3,4,5-trihydroxy-6-(hydroxymethyl)tetrahydropyran-2-yl]oxy-3,4-dihydro-2~{H}-pyran-4-yl]acetic acid

>  <annotation_level>  (1707) 
4

>  <total_atom_count>  (1707) 
60

>  <heavy_atom_count>  (1707) 
32

>  <molecular_weight>  (1707) 
464.42

>  <exact_molecular_weight>  (1707) 
464.15299

>  <molecular_formula>  (1707) 
C19H28O13

>  <alogp>  (1707) 
-2.13

>  <topological_polar_surface_area>  (1707) 
198.51

>  <rotatable_bond_count>  (1707) 
8

>  <hydrogen_bond_acceptors>  (1707) 
12

>  <hydrogen_bond_donors>  (1707) 
5

>  <hydrogen_bond_acceptors_lipinski>  (1707) 
12

>  <hydrogen_bond_donors_lipinski>  (1707) 
5

>  <lipinski_rule_of_five_violations>  (1707) 
1

>  <aromatic_rings_count>  (1707) 
0

>  <qed_drug_likeliness>  (1707) 
0.24

>  <formal_charge>  (1707) 
0

>  <fractioncsp3>  (1707) 
0.74

>  <number_of_minimal_rings>  (1707) 
2

>  <van_der_walls_volume>  (1707) 
nan

>  <contains_sugar>  (1707) 
True

>  <contains_ring_sugars>  (1707) 
True

>  <contains_linear_sugars>  (1707) 
False

>  <murcko_framework>  (1707) 
O1C=CCCC1OC2OCCCC2

>  <np_likeness>  (1707) 
2.28

>  <chemical_class>  (1707) 
Prenol lipids

>  <chemical_sub_class>  (1707) 
Monoterpenoids

>  <chemical_super_class>  (1707) 
Lipids and lipid-like molecules

>  <direct_parent_classification>  (1707) 
Iridoids and derivatives

>  <np_classifier_pathway>  (1707) 
Terpenoids

>  <np_classifier_superclass>  (1707) 
Monoterpenoids

>  <np_classifier_class>  (1707) 
Secoiridoid monoterpenoids

>  <np_classifier_is_glycoside>  (1707) 
True

>  <organisms>  (1707) 
Calycophyllum spruceanum

>  <collections>  (1707) 
Latin America dataset|NuBBEDB

>  <dois>  (1707) 
10.1016/S0031-9422(03)00153-5

>  <synonyms>  (1707) 
Diderroside

>  <cas>  (1707) 
nan

$$$$

     RDKit          2D

 33 36  0  0  0  0  0  0  0  0999 V2000
    9.9986    0.6521    0.0000 C   0  0  0  0  0  0  0  0  0  0  0  0
    8.6837   -0.0697    0.0000 C   0  0  0  0  0  0  0  0  0  0  0  0
    8.6513   -1.5693    0.0000 C   0  0  0  0  0  0  0  0  0  0  0  0
    7.4012    0.7082    0.0000 C   0  0  0  0  0  0  0  0  0  0  0  0
    6.0862   -0.0135    0.0000 C   0  0  0  0  0  0  0  0  0  0  0  0
    4.8037    0.7644    0.0000 C   0  0  0  0  0  0  0  0  0  0  0  0
    3.4887    0.0426    0.0000 C   0  0  0  0  0  0  0  0  0  0  0  0
    3.4563   -1.4570    0.0000 C   0  0  0  0  0  0  0  0  0  0  0  0
    2.1414   -2.1788    0.0000 O   0  0  0  0  0  0  0  0  0  0  0  0
    4.7389   -2.2349    0.0000 O   0  0  0  0  0  0  0  0  0  0  0  0
    2.2062    0.8205    0.0000 C   0  0  0  0  0  0  0  0  0  0  0  0
    2.0817    2.3153    0.0000 C   0  0  0  0  0  0  0  0  0  0  0  0
    0.6216    2.6588    0.0000 C   0  0  0  0  0  0  0  0  0  0  0  0
   -0.1563    1.3763    0.0000 C   0  0  0  0  0  0  0  0  0  0  0  0
   -1.0116    2.6086    0.0000 C   0  0  0  0  0  0  0  0  0  0  0  0
   -1.6300    1.0962    0.0000 C   0  0  0  0  0  0  0  0  0  0  0  0
   -2.6093    2.2324    0.0000 C   0  0  0  0  0  0  0  0  0  0  0  0
   -4.0829    1.9523    0.0000 C   0  0  0  0  0  0  0  0  0  0  0  0
   -4.5772    0.5360    0.0000 C   0  0  0  0  0  0  0  0  0  0  0  0
   -6.0508    0.2560    0.0000 C   0  0  0  0  0  0  0  0  0  0  0  0
   -7.5314    0.4968    0.0000 C   0  0  0  0  0  0  0  0  0  0  0  0
   -6.0708    1.7558    0.0000 C   0  0  0  0  0  0  0  0  0  0  0  0
   -6.5451   -1.1603    0.0000 C   0  0  0  0  0  0  0  0  0  0  0  0
   -8.0187   -1.4404    0.0000 O   0  0  0  0  0  0  0  0  0  0  0  0
   -5.5657   -2.2964    0.0000 C   0  0  0  0  0  0  0  0  0  0  0  0
   -4.0921   -2.0163    0.0000 C   0  0  0  0  0  0  0  0  0  0  0  0
   -3.5978   -0.6001    0.0000 C   0  0  0  0  0  0  0  0  0  0  0  0
   -2.6184   -1.7362    0.0000 C   0  0  0  0  0  0  0  0  0  0  0  0
   -2.1242   -0.3200    0.0000 C   0  0  0  0  0  0  0  0  0  0  0  0
   -1.1448   -1.4562    0.0000 C   0  0  0  0  0  0  0  0  0  0  0  0
    0.3288   -1.1761    0.0000 C   0  0  0  0  0  0  0  0  0  0  0  0
    0.8230    0.2402    0.0000 C   0  0  0  0  0  0  0  0  0  0  0  0
    1.9158   -0.7874    0.0000 C   0  0  0  0  0  0  0  0  0  0  0  0
  1  2  1  0
  2  3  1  0
  2  4  2  0
  4  5  1  0
  5  6  1  0
  7  6  1  6
  7  8  1  0
  8  9  2  0
  8 10  1  0
  7 11  1  0
 11 12  1  1
 12 13  1  0
 13 14  1  0
 14 15  1  6
 14 16  1  0
 16 17  2  0
 17 18  1  0
 19 18  1  6
 19 20  1  0
 20 21  1  0
 20 22  1  0
 20 23  1  0
 23 24  1  1
 23 25  1  0
 25 26  1  0
 26 27  1  0
 27 28  1  6
 27 29  1  0
 29 30  1  6
 30 31  1  0
 31 32  1  0
 32 33  1  1
 32 11  1  0
 32 14  1  0
 29 16  1  0
 27 19  1  0
M  END
>  <identifier>  (1708) 
CNP0270776.1

>  <canonical_smiles>  (1708) 
CC(C)=CCC[C@H](C(=O)O)[C@@H]1CC[C@]2(C)C3=CC[C@H]4C(C)(C)[C@H](O)CC[C@]4(C)[C@H]3CC[C@@]12C

>  <standard_inchi>  (1708) 
InChI=1S/C30H48O3/c1-19(2)9-8-10-20(26(32)33)21-13-17-30(7)23-11-12-24-27(3,4)25(31)15-16-28(24,5)22(23)14-18-29(21,30)6/h9,11,20-22,24-25,31H,8,10,12-18H2,1-7H3,(H,32,33)/t20-,21-,22-,24-,25+,28+,29-,30+/m0/s1

>  <standard_inchi_key>  (1708) 
CGPBVNAIDFBRJG-HVGLGGOPSA-N

>  <name>  (1708) 
82509-40-8

>  <iupac_name>  (1708) 
(2~{S})-2-[(3~{R},5~{R},9~{R},10~{R},13~{S},14~{S},17~{S})-3-hydroxy-4,4,10,13,14-pentamethyl-2,3,5,6,9,11,12,15,16,17-decahydro-1~{H}-cyclopenta[a]phenanthren-17-yl]-6-methyl-hept-5-enoic acid

>  <annotation_level>  (1708) 
5

>  <total_atom_count>  (1708) 
81

>  <heavy_atom_count>  (1708) 
33

>  <molecular_weight>  (1708) 
456.71

>  <exact_molecular_weight>  (1708) 
456.36035

>  <molecular_formula>  (1708) 
C30H48O3

>  <alogp>  (1708) 
7.40

>  <topological_polar_surface_area>  (1708) 
57.53

>  <rotatable_bond_count>  (1708) 
5

>  <hydrogen_bond_acceptors>  (1708) 
2

>  <hydrogen_bond_donors>  (1708) 
2

>  <hydrogen_bond_acceptors_lipinski>  (1708) 
2

>  <hydrogen_bond_donors_lipinski>  (1708) 
2

>  <lipinski_rule_of_five_violations>  (1708) 
1

>  <aromatic_rings_count>  (1708) 
0

>  <qed_drug_likeliness>  (1708) 
0.42

>  <formal_charge>  (1708) 
0

>  <fractioncsp3>  (1708) 
0.83

>  <number_of_minimal_rings>  (1708) 
4

>  <van_der_walls_volume>  (1708) 
465.16

>  <contains_sugar>  (1708) 
False

>  <contains_ring_sugars>  (1708) 
False

>  <contains_linear_sugars>  (1708) 
False

>  <murcko_framework>  (1708) 
C1=C2C3CCCC3CCC2C4CCCCC4C1

>  <np_likeness>  (1708) 
3.52

>  <chemical_class>  (1708) 
Steroids and steroid derivatives

>  <chemical_sub_class>  (1708) 
Hydroxysteroids

>  <chemical_super_class>  (1708) 
Lipids and lipid-like molecules

>  <direct_parent_classification>  (1708) 
Hydroxysteroids

>  <np_classifier_pathway>  (1708) 
Terpenoids

>  <np_classifier_superclass>  (1708) 
Triterpenoids

>  <np_classifier_class>  (1708) 
Lanostane, Tirucallane and Euphane triterpenoids

>  <np_classifier_is_glycoside>  (1708) 
False

>  <organisms>  (1708) 
Aucoumea klaineana|Dodonaea viscosa|Trattinnickia rhoifolia|boswellia spp.

>  <collections>  (1708) 
Australian natural products|CMAUP (cCollective molecular activities of useful plants)|Latin America dataset|NPASS|NuBBEDB|Super Natural II|WikiData Natural Products

>  <dois>  (1708) 
10.1002/cbdv.201800426|10.1016/0031-9422(88)80143-2|10.1021/np500198g|10.1590/S0103-50532004000300008

>  <synonyms>  (1708) 
(2S)-2-[(3R,5R,9R,10R,13S,14S,17S)-3-hydroxy-4,4,10,13,14-pentamethyl-2,3,5,6,9,11,12,15,16,17-decahydro-1H-cyclopenta[a]phenanthren-17-yl]-6-methylhept-5-enoic acid|3|3-Hydroxylanosta-7,24-dien-21-oic acid|3??-Hydroxy tirucall-7,24-dien-21-oic acid|3\u221a\u00e9\u00ac\u00b1-Hydroxytirucalla-724-dien-21-oic acid|3alpha-Hydroxytirucalla-7,24-dien-21-oic acid|AKOS040760836|BDBM50019159|CHEMBL3289099|CS-0149097|DTXSID701002747|HY-N8800|Lanosta-7,24-dien-21-oic acid, 3-hydroxy-, (3alpha,13alpha,14beta,17alpha,20S)-

>  <cas>  (1708) 
nan

$$$$

     RDKit          2D

 16 17  0  0  0  0  0  0  0  0999 V2000
   -0.0433    2.2770    0.0000 C   0  0  0  0  0  0  0  0  0  0  0  0
    1.1298    1.3423    0.0000 C   0  0  0  0  0  0  0  0  0  0  0  0
    2.5259    1.8910    0.0000 C   0  0  0  0  0  0  0  0  0  0  0  0
    3.6991    0.9563    0.0000 C   0  0  0  0  0  0  0  0  0  0  0  0
    3.4762   -0.5271    0.0000 C   0  0  0  0  0  0  0  0  0  0  0  0
    2.0802   -1.0757    0.0000 C   0  0  0  0  0  0  0  0  0  0  0  0
    1.8573   -2.5591    0.0000 C   0  0  0  0  0  0  0  0  0  0  0  0
    0.9070   -0.1410    0.0000 C   0  0  0  0  0  0  0  0  0  0  0  0
    0.5303   -1.5930    0.0000 C   0  0  0  0  0  0  0  0  0  0  0  0
   -0.9670   -1.6834    0.0000 C   0  0  0  0  0  0  0  0  0  0  0  0
   -1.5157   -0.2873    0.0000 C   0  0  0  0  0  0  0  0  0  0  0  0
   -2.9676    0.0894    0.0000 C   0  0  0  0  0  0  0  0  0  0  0  0
   -3.3443   -1.3626    0.0000 C   0  0  0  0  0  0  0  0  0  0  0  0
   -2.5909    1.5413    0.0000 C   0  0  0  0  0  0  0  0  0  0  0  0
   -4.4195    0.4661    0.0000 O   0  0  0  0  0  0  0  0  0  0  0  0
   -0.3575    0.6659    0.0000 C   0  0  0  0  0  0  0  0  0  0  0  0
  1  2  1  0
  2  3  2  0
  3  4  1  0
  4  5  1  0
  5  6  1  0
  6  7  1  6
  6  8  1  0
  8  9  1  1
  9 10  1  0
 10 11  1  0
 11 12  1  1
 12 13  1  0
 12 14  1  0
 12 15  1  0
 11 16  1  0
  8  2  1  0
 16  8  1  0
M  END
>  <identifier>  (1709) 
CNP0209626.1

>  <canonical_smiles>  (1709) 
CC1=CCC[C@H](C)[C@@]12CC[C@@H](C(C)(C)O)C2

>  <standard_inchi>  (1709) 
InChI=1S/C15H26O/c1-11-6-5-7-12(2)15(11)9-8-13(10-15)14(3,4)16/h6,12-13,16H,5,7-10H2,1-4H3/t12-,13+,15+/m0/s1

>  <standard_inchi_key>  (1709) 
ICWHTQRTTHCUHW-GZBFAFLISA-N

>  <name>  (1709) 
Hinesol

>  <iupac_name>  (1709) 
2-[(3~{R},5~{S},6~{S})-6,10-dimethylspiro[4.5]dec-9-en-3-yl]propan-2-ol

>  <annotation_level>  (1709) 
5

>  <total_atom_count>  (1709) 
42

>  <heavy_atom_count>  (1709) 
16

>  <molecular_weight>  (1709) 
222.37

>  <exact_molecular_weight>  (1709) 
222.19837

>  <molecular_formula>  (1709) 
C15H26O

>  <alogp>  (1709) 
3.92

>  <topological_polar_surface_area>  (1709) 
20.23

>  <rotatable_bond_count>  (1709) 
1

>  <hydrogen_bond_acceptors>  (1709) 
1

>  <hydrogen_bond_donors>  (1709) 
1

>  <hydrogen_bond_acceptors_lipinski>  (1709) 
1

>  <hydrogen_bond_donors_lipinski>  (1709) 
1

>  <lipinski_rule_of_five_violations>  (1709) 
0

>  <aromatic_rings_count>  (1709) 
0

>  <qed_drug_likeliness>  (1709) 
0.67

>  <formal_charge>  (1709) 
0

>  <fractioncsp3>  (1709) 
0.87

>  <number_of_minimal_rings>  (1709) 
2

>  <van_der_walls_volume>  (1709) 
238.94

>  <contains_sugar>  (1709) 
False

>  <contains_ring_sugars>  (1709) 
False

>  <contains_linear_sugars>  (1709) 
False

>  <murcko_framework>  (1709) 
C1=CC2(CCC1)CCCC2

>  <np_likeness>  (1709) 
2.82

>  <chemical_class>  (1709) 
Prenol lipids

>  <chemical_sub_class>  (1709) 
Sesquiterpenoids

>  <chemical_super_class>  (1709) 
Lipids and lipid-like molecules

>  <direct_parent_classification>  (1709) 
Sesquiterpenoids

>  <np_classifier_pathway>  (1709) 
Terpenoids

>  <np_classifier_superclass>  (1709) 
Sesquiterpenoids

>  <np_classifier_class>  (1709) 
Spirovetivane sesquiterpenoids

>  <np_classifier_is_glycoside>  (1709) 
False

>  <organisms>  (1709) 
Akebia quinata|Akebia trifoliata|Aquilaria agallochum|Aquilaria sinensis|Atractylodes|Atractylodes chinensis|Atractylodes lancea|Atractylodes macrocephala|Atractylodes rhizomes|Cistus creticus|Corymbia maculata|Eucalyptus|Eucalyptus maculata|Ferula assafoetida|Ferula fukanensis|Ferula sinkiangensis|Guatteriopsis friesiana|Magnolia officinalis|Petasites hybridus|Piper lhotzkyanum|Psidium guajava|Siparuna thecaphora|Valeriana officinalis

>  <collections>  (1709) 
Australian natural products|CMAUP (cCollective molecular activities of useful plants)|KNApSaCK|Latin America dataset|NAPRORE-CR|NPASS|NuBBEDB|Super Natural II|WikiData Natural Products|ZINC NP

>  <dois>  (1709) 
10.1002/CBDV.201800531|10.1002/JCCS.200000075|10.1002/JSSC.200900378|10.1016/0378-8741(90)90044-T|10.1016/J.CHROMA.2007.12.011|10.1016/J.PHYTOCHEM.2009.06.013|10.1016/J.PHYTOCHEM.2018.06.006|10.1016/S0031-9422(98)00067-3|10.1021/NP50029A010|10.1021/np50029a010|10.1023/B:JOEC.0000042400.14451.08|10.1023/b:joec.0000042400.14451.08|10.1055/S-2006-957936|10.1076/PHBI.39.3.191.5924|10.1080/10412905.2000.9699524|10.1080/10412905.2010.9700338|10.1093/ECAM/NEQ006|10.1248/CPB.34.3854|10.1248/CPB.38.2033|10.1248/CPB.44.1603|10.1248/YAKUSHI1947.115.7_543|10.1248/YAKUSHI1947.116.9_728

>  <synonyms>  (1709) 
(-)-Hinesol|2-((2R,5S,10S)-6,10-dimethylspiro[4.5]dec-6-en-2-yl)propan-2-ol|2-[(3R,5S,6S)-6,10-Dimethylspiro[4.5]dec-9-en-3-yl]propan-2-ol|23811-08-7|AKOS040744479|C16970|CHEBI:80833|CHEMBL505813|CS-0018242|HY-N1930|Hinesol|Q27149875|Spiro(4.5)dec-6-ene-2-methanol, alpha,alpha,6,10-tetramethyl-, (2R-(2alpha,5alpha(S*)))-|hinesol

>  <cas>  (1709) 
23811-08-7

$$$$

     RDKit          2D

 12 14  0  0  0  0  0  0  0  0999 V2000
   -2.5173    1.8029    0.0000 C   0  0  0  0  0  0  0  0  0  0  0  0
   -2.2963    0.3193    0.0000 C   0  0  0  0  0  0  0  0  0  0  0  0
   -3.4708   -0.6139    0.0000 C   0  0  0  0  0  0  0  0  0  0  0  0
   -0.9010   -0.2312    0.0000 C   0  0  0  0  0  0  0  0  0  0  0  0
   -0.3505    1.1641    0.0000 C   0  0  0  0  0  0  0  0  0  0  0  0
    1.1331    1.3850    0.0000 C   0  0  0  0  0  0  0  0  0  0  0  0
    2.0663    0.2106    0.0000 C   0  0  0  0  0  0  0  0  0  0  0  0
    3.2407    1.1438    0.0000 C   0  0  0  0  0  0  0  0  0  0  0  0
    2.9994   -0.9638    0.0000 O   0  0  0  0  0  0  0  0  0  0  0  0
    1.5158   -1.1847    0.0000 C   0  0  0  0  0  0  0  0  0  0  0  0
    0.0321   -1.4056    0.0000 C   0  0  0  0  0  0  0  0  0  0  0  0
   -1.4515   -1.6266    0.0000 O   0  0  0  0  0  0  0  0  0  0  0  0
  1  2  1  0
  2  3  1  0
  4  2  1  6
  4  5  1  0
  5  6  1  0
  6  7  1  0
  7  8  1  6
  7  9  1  0
 10  9  1  1
 10 11  1  0
 11 12  1  1
 11  4  1  0
 12  4  1  0
 10  7  1  0
M  END
>  <identifier>  (1710) 
CNP0080672.1

>  <canonical_smiles>  (1710) 
CC(C)[C@]12CC[C@@]3(C)O[C@H]3[C@H]1O2

>  <standard_inchi>  (1710) 
InChI=1S/C10H16O2/c1-6(2)10-5-4-9(3)7(11-9)8(10)12-10/h6-8H,4-5H2,1-3H3/t7-,8+,9+,10+/m0/s1

>  <standard_inchi_key>  (1710) 
LEZWCCRTFNBOBU-SGIHWFKDSA-N

>  <name>  (1710) 
ISOASCARIDOLE

>  <iupac_name>  (1710) 
(1~{S},2~{R},4~{R},7~{R})-4-isopropyl-7-methyl-3,8-dioxatricyclo[5.1.0.0^{2,4}]octane

>  <annotation_level>  (1710) 
5

>  <total_atom_count>  (1710) 
28

>  <heavy_atom_count>  (1710) 
12

>  <molecular_weight>  (1710) 
168.24

>  <exact_molecular_weight>  (1710) 
168.11503

>  <molecular_formula>  (1710) 
C10H16O2

>  <alogp>  (1710) 
1.73

>  <topological_polar_surface_area>  (1710) 
25.06

>  <rotatable_bond_count>  (1710) 
1

>  <hydrogen_bond_acceptors>  (1710) 
2

>  <hydrogen_bond_donors>  (1710) 
0

>  <hydrogen_bond_acceptors_lipinski>  (1710) 
2

>  <hydrogen_bond_donors_lipinski>  (1710) 
0

>  <lipinski_rule_of_five_violations>  (1710) 
0

>  <aromatic_rings_count>  (1710) 
0

>  <qed_drug_likeliness>  (1710) 
0.56

>  <formal_charge>  (1710) 
0

>  <fractioncsp3>  (1710) 
1.00

>  <number_of_minimal_rings>  (1710) 
3

>  <van_der_walls_volume>  (1710) 
nan

>  <contains_sugar>  (1710) 
False

>  <contains_ring_sugars>  (1710) 
False

>  <contains_linear_sugars>  (1710) 
False

>  <murcko_framework>  (1710) 
O1C2CCC3OC3C12

>  <np_likeness>  (1710) 
3.28

>  <chemical_class>  (1710) 
Oxepanes

>  <chemical_sub_class>  (1710) 
Oxepanes

>  <chemical_super_class>  (1710) 
Organoheterocyclic compounds

>  <direct_parent_classification>  (1710) 
Oxepanes

>  <np_classifier_pathway>  (1710) 
Terpenoids

>  <np_classifier_superclass>  (1710) 
Monoterpenoids

>  <np_classifier_class>  (1710) 
Menthane monoterpenoids

>  <np_classifier_is_glycoside>  (1710) 
False

>  <organisms>  (1710) 
Chenopodium ambrosioides|Chenopodium ambrosioides L.|Croton mucronifolius|Dysphania ambrosioides

>  <collections>  (1710) 
Australian natural products|Latin America dataset|NuBBEDB|TPPT (Toxic Plants–PhytoToxins)|WikiData Natural Products

>  <dois>  (1710) 
10.1002/biuz.19840140514|10.1021/NP50017A019|10.1021/np50017a019|10.1300/J044V07N02_02

>  <synonyms>  (1710) 
CHEMBL2286983|Isoascaridole|LEZWCCRTFNBOBU-SGIHWFKDSA-N|NS00093942|Q67879940|iso-Ascaridole|trans-ascaridol

>  <cas>  (1710) 
nan

$$$$

     RDKit          2D

 25 28  0  0  0  0  0  0  0  0999 V2000
   -5.9681    1.5060    0.0000 C   0  0  0  0  0  0  0  0  0  0  0  0
   -4.8045    0.5594    0.0000 O   0  0  0  0  0  0  0  0  0  0  0  0
   -3.4029    1.0938    0.0000 C   0  0  0  0  0  0  0  0  0  0  0  0
   -3.1650    2.5748    0.0000 C   0  0  0  0  0  0  0  0  0  0  0  0
   -1.7634    3.1092    0.0000 C   0  0  0  0  0  0  0  0  0  0  0  0
   -0.5998    2.1626    0.0000 C   0  0  0  0  0  0  0  0  0  0  0  0
    0.8018    2.6969    0.0000 C   0  0  0  0  0  0  0  0  0  0  0  0
    1.9654    1.7503    0.0000 C   0  0  0  0  0  0  0  0  0  0  0  0
    1.7274    0.2693    0.0000 C   0  0  0  0  0  0  0  0  0  0  0  0
    2.8910   -0.6773    0.0000 C   0  0  0  0  0  0  0  0  0  0  0  0
    2.6530   -2.1583    0.0000 C   0  0  0  0  0  0  0  0  0  0  0  0
    1.2514   -2.6927    0.0000 C   0  0  0  0  0  0  0  0  0  0  0  0
    1.0134   -4.1737    0.0000 O   0  0  0  0  0  0  0  0  0  0  0  0
   -0.3882   -4.7080    0.0000 C   0  0  0  0  0  0  0  0  0  0  0  0
    0.0878   -1.7460    0.0000 C   0  0  0  0  0  0  0  0  0  0  0  0
   -1.3138   -2.2804    0.0000 O   0  0  0  0  0  0  0  0  0  0  0  0
   -1.5518   -3.7614    0.0000 C   0  0  0  0  0  0  0  0  0  0  0  0
    0.3258   -0.2651    0.0000 C   0  0  0  0  0  0  0  0  0  0  0  0
   -0.8378    0.6816    0.0000 C   0  0  0  0  0  0  0  0  0  0  0  0
   -2.2394    0.1472    0.0000 C   0  0  0  0  0  0  0  0  0  0  0  0
   -2.4774   -1.3338    0.0000 O   0  0  0  0  0  0  0  0  0  0  0  0
    4.2926   -0.1429    0.0000 C   0  0  0  0  0  0  0  0  0  0  0  0
    4.5305    1.3381    0.0000 C   0  0  0  0  0  0  0  0  0  0  0  0
    3.3670    2.2847    0.0000 N   0  0  0  0  0  0  0  0  0  0  0  0
    3.6049    3.7657    0.0000 C   0  0  0  0  0  0  0  0  0  0  0  0
  1  2  1  0
  2  3  1  0
  3  4  2  0
  4  5  1  0
  5  6  2  0
  6  7  1  0
  8  7  1  6
  8  9  1  0
  9 10  2  0
 10 11  1  0
 11 12  2  0
 12 13  1  0
 13 14  1  0
 12 15  1  0
 15 16  1  0
 16 17  1  0
 15 18  2  0
 18 19  1  0
 19 20  2  0
 20 21  1  0
 10 22  1  0
 22 23  1  0
 23 24  1  0
 24 25  1  0
 20  3  1  0
 19  6  1  0
 24  8  1  0
 18  9  1  0
M  END
>  <identifier>  (1711) 
CNP0211797.1

>  <canonical_smiles>  (1711) 
COC1=CC=C2C[C@H]3C4=C(C=C(OC)C(OC)=C4C2=C1O)CCN3C

>  <standard_inchi>  (1711) 
InChI=1S/C20H23NO4/c1-21-8-7-12-10-15(24-3)20(25-4)18-16(12)13(21)9-11-5-6-14(23-2)19(22)17(11)18/h5-6,10,13,22H,7-9H2,1-4H3/t13-/m0/s1

>  <standard_inchi_key>  (1711) 
QELDJEKNFOQJOY-ZDUSSCGKSA-N

>  <name>  (1711) 
Isocorydine

>  <iupac_name>  (1711) 
(6~{a}~{S})-1,2,10-trimethoxy-6-methyl-5,6,6~{a},7-tetrahydro-4~{H}-dibenzo[de,g]quinolin-11-ol

>  <annotation_level>  (1711) 
5

>  <total_atom_count>  (1711) 
48

>  <heavy_atom_count>  (1711) 
25

>  <molecular_weight>  (1711) 
341.41

>  <exact_molecular_weight>  (1711) 
341.16271

>  <molecular_formula>  (1711) 
C20H23NO4

>  <alogp>  (1711) 
3.17

>  <topological_polar_surface_area>  (1711) 
51.16

>  <rotatable_bond_count>  (1711) 
3

>  <hydrogen_bond_acceptors>  (1711) 
5

>  <hydrogen_bond_donors>  (1711) 
1

>  <hydrogen_bond_acceptors_lipinski>  (1711) 
5

>  <hydrogen_bond_donors_lipinski>  (1711) 
1

>  <lipinski_rule_of_five_violations>  (1711) 
0

>  <aromatic_rings_count>  (1711) 
2

>  <qed_drug_likeliness>  (1711) 
0.93

>  <formal_charge>  (1711) 
0

>  <fractioncsp3>  (1711) 
0.40

>  <number_of_minimal_rings>  (1711) 
4

>  <van_der_walls_volume>  (1711) 
307.61

>  <contains_sugar>  (1711) 
False

>  <contains_ring_sugars>  (1711) 
False

>  <contains_linear_sugars>  (1711) 
False

>  <murcko_framework>  (1711) 
c1ccc2c(c1)-c3cccc4c3C(NCC4)C2

>  <np_likeness>  (1711) 
1.47

>  <chemical_class>  (1711) 
Aporphines

>  <chemical_sub_class>  (1711) 
Aporphines

>  <chemical_super_class>  (1711) 
Alkaloids and derivatives

>  <direct_parent_classification>  (1711) 
Aporphines

>  <np_classifier_pathway>  (1711) 
Alkaloids

>  <np_classifier_superclass>  (1711) 
Tyrosine alkaloids

>  <np_classifier_class>  (1711) 
Aporphine alkaloids

>  <np_classifier_is_glycoside>  (1711) 
False

>  <organisms>  (1711) 
Aiouea tonduzii|Alstonia angustiloba|Annickia polycarpa|Annona cherimola|Annona glabra|Annona purpurea|Annona senegalensis|Annona squamosa|Ardisia hortorum|Argemone mexicana|Argemone mexicana L.|Aristolochia lagesiana|Aristolochia pubescens|Artabotrys Uncinatus|Artabotrys hexapetalus|Artabotrys stenopetalus|Artabotrys suaveolens|Artabotrys uncinatus|Artabotrys zeylanicus|Artemisia pectinata|Artocarpus incisa|Asimina triloba|Aspergillus microcysticus|Atherosperma moschatum|Baccharis grandicapitulata|Beesia calthifolia|Berberis densiflora|Berberis heterobotrys|Berberis integerrima|Berberis nummularia|Berberis oblonga|Berberis repens|Berberis thunbergii|Berberis turcomanica|Berberis vulgaris|Berberis vulgaris L.|Bohadschia marmorata|Boschniakia rossica|Botrychium ternatum|Bursera kerberi|Bursera simaruba|Callistemon speciosus|Camptorrhiza strumosa|Cephalaria leucantha|Cetraria australiensis|Chrysanthemum myconis|Cissus quadrangularis|Clerodendrum trichotomum|Clinacanthus nutans|Coffea liberica var. dewevrei|Coleus wulfenioides|Conus gladiator|Corydalis alba (Mill.) Mansf.|Corydalis cava|Corydalis cava (L.) Schweigg & Koerte|Corydalis gortschakovii|Corydalis govaniana|Corydalis lutea|Corydalis lutea (L.) DC.|Corydalis ochroleuca|Corydalis solida|Corydalis solida (L.) Clairv.|Corydalis ternata|Corydalis tuberosa|Corydalis turtschaninovii|Corydalis yanhusuo|Costasiella ocellifera|Creosphaeria sassafras|Crotalaria stolzii|Croton chilensis|Croton hemiargyreus|Curcuma aeruginosa|Dactylocapnos torulosa|Damburneya salicifolia|Dehaasia incrassata|Dehaasia triandra|Delisea elegans|Delphinium denudatum|Delphinium giraldii|Dicentra canadensis|Dicentra peregrina|Dicranostigma franchetianum|Dicranostigma leptopodum|Dictyodendrilla cavernosa|Dilophus guineensis|Diplacus aurantiacus|Doronicum grandiflorum|Dovyalis hebecarpa|Emericellopsis minima|Eremophila oppositifolia|Ericameria laricifolia|Eschscholzia californica|Eucalyptus albens|Euonymus fortunei|Eupatorium rebaudianum|Euphorbia characias subsp. wulfenii|Euploca racemosa|Fumaria vaillantii|Glaucium corniculatum|Glaucium fimbrilligerum|Glaucium flavum|Glaucium flavum Crantz|Glaucium spp.|Glossocalyx brevipes|Glossocalyx longicuspis|Grifola frondosa|Guatteria oliviformis|Gutierrezia dracunculoides|Hedysarum gmelini|Helenium integrifolium|Hernandia nymphaeifolia|Hernandia peltata|Hernandia sonora|Hydnum aurantiacum|Hypecoum leptocarpum|Hypecoum procumbens|Isopyrum thalictroides|Isopyrum thalictroides L.|Ixeris repens|Juniperus scopulorum|Lasianthaea podocephala|Leibnitzia anandria|Ligularia nelumbifolia|Lithocarpus haipinii|Litsea Cubeba|Litsea cubeba|Litsea deccanensis|Litsea ligustrina|Lora quadra|Loranthus longiflorus|Lupinus cosentinii|Lycopodium chinense|Mahonia aquifolium|Mahonia aquifolium (Pursh) Nutt.|Melampodium leucanthum|Mentha incana|Micromonospora echinospora|Miliusa velutina|Moesziomyces antarcticus|Morella pensylvanica|Nandina domestica|Ocotea benesii|Ocotea brenesii|Ocotea holdridgeiana|Ocotea holdrigeana|Ocotea holdrigeiana|Ocotea macrophylla|Ocotea vellosiana|Ocotea velloziana|Ormosia dasycarpa|Ormosia fordiana|Oxytropis lanata|Papaver Rhoeas|Papaver alpinum aggr. (P. aurantacum Loisel., P. ocidentale (Markgr.) H. E. Hess & Landolt and P. sendtneri Hayek)|Papaver argemone|Papaver argemone L.|Papaver commutatum|Papaver confine|Papaver croceum Ledeb.|Papaver dubium|Papaver dubium L.|Papaver glaucum|Papaver guerlekense|Papaver lisae|Papaver pavoninum|Papaver pinnatifidum|Papaver pseudocanescens|Papaver rhoeas|Papaver rhoeas L.|Papaver rhopalothece|Papaver somniferum L.|Papaver spp.|Papaver stevenianum|Pellacalyx axillaris|Penicillium vulpinum|Pestalotiopsis oenotherae|Phlomis crinita|Phoebe clemensii|Phoebe forbesii|Phylica rogersii|Piper brachystachyum|Plectranthus ernstii|Podocarpus elatus|Polanisia trachysperma|Polygala senega|Populus balsamifera|Pseudocyphellaria australiensis|Pseudofumaria lutea|Psidium acutangulum|Pteridophyllum racemosum|Ramalina farinacea|Renealmia alpinia|Reseda lutea|Rhododendron mucronulatum|Roemeria carica|Sarcocapnos enneaphylla|Sarcocapnos saetabensis|Sarcophyton flexuosum|Sargassum fulvellum|Selinum libanotis|Senecio congestus|Sideritis dasygnaphala|Siparuna gesnerioides|Siparuna griseo-flavescens|Solanum boerhaavii|Sphaerophysa salsula|Spongia vaginalis|Stellaria media|Stephania brachyandra|Stephania cephalantha|Stephania cepharantha|Stephania corymbosa|Stephania dinklagei|Stephania dinklaget|Stephania lincangensis|Stephania macrantha|Stephania merrillii|Stephania officinarum|Stephania pierii|Stephania pierrei|Stephania sasakii|Streptomyces melanogenes|Streptomyces nigrescens|Streptomyces parvisporogenes|Strychnopsis thouarsii|Strychnos gossweileri|Taxillus yadoriki|Tephroseris kirilowii|Tephrosia falciformis|Thalictrum aquilegiifolium|Thalictrum delavayi|Thalictrum pedunculatum|Thalictrum tuberiferum|Thalictrum urbainii|Tylopilus plumbeoviolaceus|Vachellia karroo|Xanthoxylum brachyacanthum|Yan Hu Suo|Zephyranthes flava|nectandra salicifolia|árnica

>  <collections>  (1711) 
ANPDB|AfroDB|AfroMalariaDB|Australian natural products|CMAUP (cCollective molecular activities of useful plants)|ChEBI NPs|ConMedNP|FooDB|GNPS (Global Natural Products Social Molecular Networking)|KNApSaCK|Latin America dataset|NANPDB (Natural Products from Northern African Sources)|NPASS|NPEdia|NuBBEDB|Phyto4Health|Super Natural II|TCMDB-Taiwan (Traditional Chinese Medicine database)|TIPdb (database of Taiwan indigenous plants)|TPPT (Toxic Plants–PhytoToxins)|VietHerb|WikiData Natural Products

>  <dois>  (1711) 
10.1002/(SICI)1099-1565(199909/10)10:5<254::AID-PCA462>3.0.CO;2-Q|10.1002/9780470744307.gat218|10.1002/JCCS.199700047|10.1002/JPS.2600600835|10.1007/978-1-4899-1783-6_3|10.1007/BF00564415|10.1007/BF00565526|10.1007/BF00573572|10.1007/BF00573573|10.1007/BF00575177|10.1007/BF00579509|10.1007/BF00598384|10.1007/BF00629649|10.1007/BF00630233|10.1007/BF00630564|10.1007/BF00631016|10.1007/BF00638780|10.1007/BF00772226|10.1007/BF01134640|10.1007/BF01165220|10.1007/BF01374018|10.1007/BF02234886|10.1007/BF02236441|10.1007/BF02254817|10.1007/BF02273928|10.1016/0021-9673(94)89083-8|10.1016/0031-9422(72)85042-8|10.1016/0031-9422(75)85390-8|10.1016/0031-9422(83)80048-X|10.1016/0031-9422(88)80265-6|10.1016/0031-9422(88)84134-7|10.1016/0031-9422(89)80062-7|10.1016/0031-9422(89)80403-0|10.1016/0031-9422(90)85036-F|10.1016/0031-9422(90)85037-G|10.1016/0031-9422(91)85069-C|10.1016/0031-9422(91)85296-C|10.1016/0031-9422(92)80319-A|10.1016/0031-9422(92)80479-X|10.1016/0031-9422(93)85313-G|10.1016/0031-9422(94)00673-H|10.1016/0031-9422(94)00961-R|10.1016/0031-9422(95)00561-7|10.1016/0031-9422(96)00181-1|10.1016/0040-4020(95)00422-5|10.1016/0040-4039(64)83163-4|10.1016/0305-1978(94)00096-Y|10.1016/0305-1978(95)00051-8|10.1016/J.PHYTOCHEM.2009.11.010|10.1016/S0021-9673(01)82099-9|10.1016/S0031-9422(00)00068-6|10.1016/S0031-9422(00)00486-6|10.1016/S0031-9422(00)80650-0|10.1016/S0031-9422(00)83953-9|10.1016/S0031-9422(00)88990-6|10.1016/S0031-9422(00)95198-7|10.1016/S0031-9422(03)00335-2|10.1016/S0040-4020(01)82640-5|10.1016/S0040-4039(00)79894-7|10.1016/S0305-1978(99)00083-6|10.1021/NP010036K|10.1021/NP040078J|10.1021/NP50018A011|10.1021/NP50027A020|10.1021/NP50040A036|10.1021/NP50041A025|10.1021/NP50041A037|10.1021/NP50050A033|10.1021/NP50062A043|10.1021/NP50064A031|10.1021/NP50118A021|10.1021/NP960002Q|10.1021/NP960195H|10.1021/NP970282P|10.1021/NP9801920|10.1021/NP990548N|10.1039/JR9640002244|10.1055/S-0028-1097597|10.1055/S-2006-959620|10.1055/S-2006-960124|10.1055/S-2006-960934|10.1055/S-2006-961545|10.1055/S-2006-961926|10.1055/S-2007-970033|10.1055/S-2007-971675|10.1055/s-2007-970033|10.1071/CH9560111|10.1071/CH9671277|10.1071/ch9560111|10.1076/PHBI.34.2.146.13187|10.1080/10575630008041232|10.1080/10575630008043773|10.1080/14786410902904418|10.1135/CCCC19641689|10.1135/CCCC19862232|10.1135/CCCC19870508|10.1135/CCCC19881845|10.1135/CCCC19891118|10.1135/CCCC19941879|10.1139/V61-237|10.1155/2014/281342|10.1201/B16160-69|10.1248/CPB.45.470|10.1248/CPB.45.545|10.1248/YAKUSHI1947.85.1_77|10.1248/YAKUSHI1947.92.2_207|10.2307/4117899|10.3109/13880209409083024|10.3987/R-1986-05-1227

>  <synonyms>  (1711) 
(+)-(S)-Isocorydine|(+)-Isocorydine|(+)-isocorynoline|(9S)-4,15,16-trimethoxy-10-methyl-10-azatetracyclo[7.7.1.0^{2,7}.0^{13,17}]heptadeca-1(17),2,4,6,13,15-hexaen-3-ol|(S)-(+)-Isocorydine|(S)-1,2,10-trimethoxy-6-methyl-5,6,6a,7-tetrahydro-4H-dibenzo[de,g]quinolin-11-ol|(S)-isocorydine|1,2,10-Trimethoxy-6a-alpha-Aporphin-11-ol|3B5E87JEOX|475-67-2|4H-DIBENZO(DE,G)QUINOLIN-11-OL, 5,6,6A,7-TETRAHYDRO-1,2,10-TRIMETHOXY-6-METHYL-, (6AS)-|4H-Dibenzo(de,g)quinolin-11-ol, 5,6,6a,7-tetrahydro-1,2,10-trimethoxy-6-methyl-, (S)-|5-21-06-00132 (Beilstein Handbook Reference)|6A-.ALPHA.-APORPHIN-11-OL, 1,2,10-TRIMETHOXY-|6a-alpha-APORPHIN-11-OL, 1,2,10-TRIMETHOXY-|6aalpha-Aporphin-11-ol, 1,2,10-trimethoxy-|A902020|AC-35030|AKOS015896784|Aporphin-11-ol, 1,2,10-trimethoxy-|Artabotrin|BDBM50250273|BPBio1_000522|BRD-K37049577-001-05-1|BRN 0094792|BSPBio_000474|BSPBio_002533|C09549|CAS-475-67-2|CCG-38732|CHEBI:6000|CHEMBL489525|CS-0022943|DTXSID201023580|DivK1c_006613|HMS1569H16|HMS1921K18|HMS2096H16|HMS2230M17|HMS3886N20|HY-N2591|I-7850|ISOCORYDINE [MI]|ISOCORYDINE, (+)-|Isocorydine (+)|Isocorydine hydrochloride|KBio1_001557|KBio2_001687|KBio2_004255|KBio2_006823|KBio3_001753|KBioGR_001998|KBioSS_001687|Lindcarpine, N,O-dimethyl-|Luteanin|Luteanine (VAN)|Luteanine (aporphine)|MLS002153898|MS-25214|NCGC00016453-01|NCGC00142508-01|NCGC00178615-01|NP113|NS00067011|NSC 32979|NSC 645316|NSC-32979|Prestwick0_000597|Prestwick_281|Q27106973|S-Artabotrine|S-ISOCORYDINE (+)|S-Luteanine|SCHEMBL679908|SDCCGMLS-0066694.P001|SMR001233247|SPBio_000352|SPBio_002693|SPECTRUM1500860|SR-01000841246|STL565301|SpecPlus_000517|Spectrum2_000566|Spectrum3_000717|Spectrum4_001699|Spectrum5_000378|Spectrum_001207|TNP00260|UNII-3B5E87JEOX|Uzokoridin|d-Isocorydine|isocorydine|s9258

>  <cas>  (1711) 
475-67-2

$$$$

     RDKit          2D

 22 23  0  0  0  0  0  0  0  0999 V2000
   -9.8355   -0.6209    0.0000 C   0  0  0  0  0  0  0  0  0  0  0  0
   -8.5068    0.0753    0.0000 C   0  0  0  0  0  0  0  0  0  0  0  0
   -8.4455    1.5741    0.0000 C   0  0  0  0  0  0  0  0  0  0  0  0
   -7.2396   -0.7272    0.0000 C   0  0  0  0  0  0  0  0  0  0  0  0
   -5.9109   -0.0310    0.0000 C   0  0  0  0  0  0  0  0  0  0  0  0
   -4.6437   -0.8335    0.0000 C   0  0  0  0  0  0  0  0  0  0  0  0
   -3.3150   -0.1372    0.0000 C   0  0  0  0  0  0  0  0  0  0  0  0
   -3.2537    1.3615    0.0000 C   0  0  0  0  0  0  0  0  0  0  0  0
   -2.0478   -0.9398    0.0000 C   0  0  0  0  0  0  0  0  0  0  0  0
   -0.7191   -0.2435    0.0000 C   0  0  0  0  0  0  0  0  0  0  0  0
    0.5481   -1.0460    0.0000 O   0  0  0  0  0  0  0  0  0  0  0  0
    1.8768   -0.3498    0.0000 C   0  0  0  0  0  0  0  0  0  0  0  0
    1.9381    1.1490    0.0000 C   0  0  0  0  0  0  0  0  0  0  0  0
    3.2668    1.8452    0.0000 C   0  0  0  0  0  0  0  0  0  0  0  0
    4.5340    1.0427    0.0000 C   0  0  0  0  0  0  0  0  0  0  0  0
    5.8627    1.7389    0.0000 C   0  0  0  0  0  0  0  0  0  0  0  0
    7.1299    0.9364    0.0000 C   0  0  0  0  0  0  0  0  0  0  0  0
    7.0686   -0.5623    0.0000 C   0  0  0  0  0  0  0  0  0  0  0  0
    8.3358   -1.3648    0.0000 O   0  0  0  0  0  0  0  0  0  0  0  0
    5.7399   -1.2586    0.0000 O   0  0  0  0  0  0  0  0  0  0  0  0
    4.4727   -0.4561    0.0000 C   0  0  0  0  0  0  0  0  0  0  0  0
    3.1440   -1.1523    0.0000 C   0  0  0  0  0  0  0  0  0  0  0  0
  1  2  1  0
  2  3  1  0
  2  4  2  0
  4  5  1  0
  5  6  1  0
  6  7  1  0
  7  8  1  0
  7  9  2  0
  9 10  1  0
 10 11  1  0
 11 12  1  0
 12 13  2  0
 13 14  1  0
 14 15  2  0
 15 16  1  0
 16 17  2  0
 17 18  1  0
 18 19  2  0
 18 20  1  0
 20 21  1  0
 21 22  2  0
 22 12  1  0
 21 15  1  0
M  END
>  <identifier>  (1712) 
CNP0234675.1

>  <canonical_smiles>  (1712) 
CC(C)=CCC/C(C)=C/COC1=CC=C2C=CC(=O)OC2=C1

>  <standard_inchi>  (1712) 
InChI=1S/C19H22O3/c1-14(2)5-4-6-15(3)11-12-21-17-9-7-16-8-10-19(20)22-18(16)13-17/h5,7-11,13H,4,6,12H2,1-3H3/b15-11+

>  <standard_inchi_key>  (1712) 
RSDDHGSKLOSQFK-RVDMUPIBSA-N

>  <name>  (1712) 
nan

>  <iupac_name>  (1712) 
nan

>  <annotation_level>  (1712) 
0

>  <total_atom_count>  (1712) 
44

>  <heavy_atom_count>  (1712) 
22

>  <molecular_weight>  (1712) 
298.38

>  <exact_molecular_weight>  (1712) 
298.15689

>  <molecular_formula>  (1712) 
C19H22O3

>  <alogp>  (1712) 
4.86

>  <topological_polar_surface_area>  (1712) 
39.44

>  <rotatable_bond_count>  (1712) 
6

>  <hydrogen_bond_acceptors>  (1712) 
3

>  <hydrogen_bond_donors>  (1712) 
0

>  <hydrogen_bond_acceptors_lipinski>  (1712) 
3

>  <hydrogen_bond_donors_lipinski>  (1712) 
0

>  <lipinski_rule_of_five_violations>  (1712) 
0

>  <aromatic_rings_count>  (1712) 
2

>  <qed_drug_likeliness>  (1712) 
0.56

>  <formal_charge>  (1712) 
0

>  <fractioncsp3>  (1712) 
0.32

>  <number_of_minimal_rings>  (1712) 
2

>  <van_der_walls_volume>  (1712) 
291.14

>  <contains_sugar>  (1712) 
False

>  <contains_ring_sugars>  (1712) 
False

>  <contains_linear_sugars>  (1712) 
False

>  <murcko_framework>  (1712) 
O1c2ccccc2C=CC1

>  <np_likeness>  (1712) 
1.41

>  <chemical_class>  (1712) 
nan

>  <chemical_sub_class>  (1712) 
nan

>  <chemical_super_class>  (1712) 
nan

>  <direct_parent_classification>  (1712) 
nan

>  <np_classifier_pathway>  (1712) 
Shikimates and Phenylpropanoids

>  <np_classifier_superclass>  (1712) 
Coumarins

>  <np_classifier_class>  (1712) 
Simple coumarins

>  <np_classifier_is_glycoside>  (1712) 
False

>  <organisms>  (1712) 
Aegle marmelos|Afraegle paniculata|Arivela viscosa|Atalantia Monophylla|Atalantia buxifolia|Atalantia monophylla|Baccharis darwinii|Baccharis eggersii|Boronella koniambiensis|Boronia koniambiensis|Citrus aurantium|Citrus canaliculata|Citrus grandis|Citrus hassaku|Citrus junos|Citrus maxima|Citrus medica|Citrus natsudaidai|Citrus reticulata|Citrus sinensis|Citrus sp.|Citrus trifoliata|Citrus unshiu|Citrus wilsonii|Citrus × deliciosa|Citrus × paradisi|Clausena anisum-olens|Cleme viscosa|Cystoseira caespitosa|Dictamnus albus|Dictamnus albus L.|Dictamnus sp.|Diplotaenia damavandica|Esenbeckia conspecta|Esenbeckia grandiflora|Ferula microloba|Ferula penninervis|Ferula szowitsiana|Ferula szowitziana|Ferulago brachyloba|Geijera parviflora|Hypholoma capnoides|Krubera peregrina|Lactarius deliciosus var. deterrimus|Limonia acidissima|Metrodorea nigra|Murraya paniculata|Phebalium filifolium|Phebalium squamulosum|Phebalium stenophyllum|Phebalium tuberculosum|Pilocarpus riedelianus|Pleiospermium alatum|Polygala paniculata|Poncirus trifoliata|Ptelea sp.|Rosa transmorrisonensis|Rutaceae|Severinia buxifolia|Sinacalia tangutica|Skimmia reevesiana|Solidago drummondii|Sophora flavescens|Spiranthera odoratissima|Spiranthera odoratissima St. odoratissima|Toddalia asiatica|Trifoliate orange|Triphasia trifolia|Zanthoxylum ailanthoides|Zanthoxylum asiaticum|Zanthoxylum coco|Zanthoxylum rhoifolium|Zanthoxylum schinifolium|Zanthoxylum sp.|pomelo

>  <collections>  (1712) 
ANPDB|AnalytiCon Discovery NPs|Australian natural products|CMAUP (cCollective molecular activities of useful plants)|ChEBI NPs|FooDB|GNPS (Global Natural Products Social Molecular Networking)|InflamNat|KNApSaCK|Latin America dataset|NANPDB (Natural Products from Northern African Sources)|NPACT|NPASS|NPEdia|NuBBEDB|PhytoLab phyproof® Reference Substances|PubChem NPs|Specs Natural Products|Super Natural II|TCMDB-Taiwan (Traditional Chinese Medicine database)|TIPdb (database of Taiwan indigenous plants)|TPPT (Toxic Plants–PhytoToxins)|UEFS (Natural Products Databse of the UEFS)|VietHerb|WikiData Natural Products

>  <dois>  (1712) 
10.1002/BIOF.5520330103|10.1002/CBER.19701031125|10.1002/HLCA.200890203|10.1002/JCCS.199800017|10.1002/JCCS.200100136|10.1002/food.19880321030|10.1007/978-0-85729-323-7_2697|10.1007/BF00575163|10.1007/BF00577219|10.1007/S10753-013-9695-Y|10.1016/0031-9422(72)80045-1|10.1016/0031-9422(73)85149-0|10.1016/0031-9422(88)80163-8|10.1016/0031-9422(89)80215-8|10.1016/0031-9422(92)80291-L|10.1016/0031-9422(92)83450-D|10.1016/0031-9422(93)80055-W|10.1016/0031-9422(95)00054-B|10.1016/0031-9422(95)00504-Z|10.1016/0031-9422(96)00255-5|10.1016/0040-4020(73)80105-X|10.1016/0305-1978(92)90104-L|10.1016/J.ARABJC.2011.03.019|10.1016/J.BBRC.2007.11.119|10.1016/J.BMC.2005.07.050|10.1016/J.BMC.2008.11.039|10.1016/J.BMC.2013.01.048|10.1016/J.EJPHAR.2012.11.043|10.1016/J.FEBSLET.2006.08.072|10.1016/J.PHYTOCHEM.2006.03.012|10.1016/J.PHYTOCHEM.2008.08.007|10.1016/S0031-9422(00)80758-X|10.1016/S0031-9422(00)83754-1|10.1016/S0031-9422(00)84814-1|10.1016/S0031-9422(97)00771-1|10.1016/S0031-9422(98)00432-4|10.1016/S0031-9422(99)00524-5|10.1016/S0040-4020(01)80874-7|10.1016/S0305-1978(01)00096-5|10.1016/S0305-1978(03)00039-5|10.1016/j.arabjc.2011.03.019|10.1016/j.bmcl.2004.02.009|10.1021/JF1020329|10.1021/JF303060B|10.1021/JF9905525|10.1021/NP0005309|10.1021/NP050013W|10.1021/NP50021A023|10.1021/NP50085A003|10.1021/NP50087A013|10.1021/NP900266M|10.1021/np50085a003|10.1055/S-0028-1099989|10.1055/S-2000-8648|10.1055/S-2006-960014|10.1055/S-2006-962355|10.1055/S-2007-969460|10.1055/S-2007-969570|10.1080/00021369.1987.10868055|10.1080/00021369.1987.10868137|10.1080/01635580701308216|10.1080/10575630108041281|10.1089/JMF.2013.0029|10.1093/CARCIN/20.8.1471|10.1093/CARCIN/21.10.1843|10.1093/JN/135.12.2987S|10.1111/J.1349-7006.1997.TB00402.X|10.1111/J.1349-7006.2007.00417.X|10.1155/2014/408503|10.1155/2015/402385|10.1159/000078001|10.1186/1471-2407-9-259|10.1207/S15327914NC3602_8|10.1211/146080800128735502|10.1246/NIKKASHI1921.51.478|10.1248/CPB.44.1261|10.1248/CPB.56.839|10.1248/CPB.58.971|10.1248/YAKUSHI1947.103.3_279|10.1271/BBB.100143|10.1271/BBB.56.1257|10.1271/BBB1961.51.1105|10.1271/BBB1961.51.419|10.1590/S0100-40422009000800010|10.1590/S0103-50532005000800007|10.1590/S0103-50532011000100024|10.3109/13880209.2012.747546|10.3390/IJMS13055338|10.3390/MOLECULES15074898|10.5012/BKCS.2010.31.04.1081|10.5650/JOS.56.253

>  <synonyms>  (1712) 
7-Geranyloxycoumarin

>  <cas>  (1712) 
495-02-3

$$$$

     RDKit          2D

 46 51  0  0  0  0  0  0  0  0999 V2000
   -4.5006   -3.4172    0.0000 C   0  0  0  0  0  0  0  0  0  0  0  0
   -5.5319   -2.3280    0.0000 C   0  0  0  0  0  0  0  0  0  0  0  0
   -6.9908   -2.6765    0.0000 C   0  0  0  0  0  0  0  0  0  0  0  0
   -7.4185   -4.1143    0.0000 C   0  0  0  0  0  0  0  0  0  0  0  0
   -8.0222   -1.5873    0.0000 C   0  0  0  0  0  0  0  0  0  0  0  0
   -7.5945   -0.1495    0.0000 C   0  0  0  0  0  0  0  0  0  0  0  0
   -6.1356    0.1990    0.0000 C   0  0  0  0  0  0  0  0  0  0  0  0
   -7.1669    1.2882    0.0000 C   0  0  0  0  0  0  0  0  0  0  0  0
   -8.6258    0.9397    0.0000 O   0  0  0  0  0  0  0  0  0  0  0  0
   -6.7393    2.7260    0.0000 O   0  0  0  0  0  0  0  0  0  0  0  0
   -5.7079    1.6368    0.0000 C   0  0  0  0  0  0  0  0  0  0  0  0
   -4.2490    1.9853    0.0000 C   0  0  0  0  0  0  0  0  0  0  0  0
   -3.2177    0.8961    0.0000 C   0  0  0  0  0  0  0  0  0  0  0  0
   -2.1864   -0.1931    0.0000 C   0  0  0  0  0  0  0  0  0  0  0  0
   -0.6864   -0.2080    0.0000 O   0  0  0  0  0  0  0  0  0  0  0  0
   -2.2220   -0.9895    0.0000 O   0  0  0  0  0  0  0  0  0  0  0  0
   -3.6453   -0.5417    0.0000 C   0  0  0  0  0  0  0  0  0  0  0  0
   -2.6140   -1.6309    0.0000 C   0  0  0  0  0  0  0  0  0  0  0  0
   -1.1551   -1.2824    0.0000 C   0  0  0  0  0  0  0  0  0  0  0  0
   -0.7274    0.1554    0.0000 C   0  0  0  0  0  0  0  0  0  0  0  0
    0.7315    0.5039    0.0000 C   0  0  0  0  0  0  0  0  0  0  0  0
    0.3039   -0.9338    0.0000 C   0  0  0  0  0  0  0  0  0  0  0  0
    1.7628   -0.5853    0.0000 C   0  0  0  0  0  0  0  0  0  0  0  0
    3.2218   -0.2368    0.0000 C   0  0  0  0  0  0  0  0  0  0  0  0
    3.6494    1.2010    0.0000 C   0  0  0  0  0  0  0  0  0  0  0  0
    5.1084    1.5495    0.0000 O   0  0  0  0  0  0  0  0  0  0  0  0
    6.1397    0.4603    0.0000 C   0  0  0  0  0  0  0  0  0  0  0  0
    5.7120   -0.9774    0.0000 O   0  0  0  0  0  0  0  0  0  0  0  0
    6.7434   -2.0666    0.0000 C   0  0  0  0  0  0  0  0  0  0  0  0
    6.3157   -3.5044    0.0000 C   0  0  0  0  0  0  0  0  0  0  0  0
    4.8568   -3.8529    0.0000 O   0  0  0  0  0  0  0  0  0  0  0  0
    8.2023   -1.7181    0.0000 C   0  0  0  0  0  0  0  0  0  0  0  0
    9.2336   -2.8073    0.0000 O   0  0  0  0  0  0  0  0  0  0  0  0
    8.6299   -0.2804    0.0000 C   0  0  0  0  0  0  0  0  0  0  0  0
   10.0889    0.0682    0.0000 O   0  0  0  0  0  0  0  0  0  0  0  0
    7.5986    0.8089    0.0000 C   0  0  0  0  0  0  0  0  0  0  0  0
    8.0262    2.2466    0.0000 O   0  0  0  0  0  0  0  0  0  0  0  0
    2.6181    2.2902    0.0000 C   0  0  0  0  0  0  0  0  0  0  0  0
    2.0215    3.6665    0.0000 C   0  0  0  0  0  0  0  0  0  0  0  0
    3.8699    3.1167    0.0000 C   0  0  0  0  0  0  0  0  0  0  0  0
    1.1592    1.9417    0.0000 C   0  0  0  0  0  0  0  0  0  0  0  0
    0.1278    3.0309    0.0000 C   0  0  0  0  0  0  0  0  0  0  0  0
   -1.3311    2.6824    0.0000 C   0  0  0  0  0  0  0  0  0  0  0  0
   -1.7587    1.2446    0.0000 C   0  0  0  0  0  0  0  0  0  0  0  0
   -2.7901    2.3338    0.0000 C   0  0  0  0  0  0  0  0  0  0  0  0
   -5.1043   -0.8902    0.0000 C   0  0  0  0  0  0  0  0  0  0  0  0
  2  1  1  1
  2  3  1  0
  3  4  1  6
  3  5  1  0
  5  6  1  0
  6  7  1  0
  7  8  1  1
  8  9  2  0
  8 10  1  0
  7 11  1  0
 11 12  1  0
 12 13  1  0
 13 14  1  6
 14 15  2  0
 14 16  1  0
 13 17  1  0
 17 18  2  0
 18 19  1  0
 20 19  1  1
 20 21  1  0
 21 22  1  1
 21 23  1  0
 23 24  1  0
 24 25  1  0
 25 26  1  1
 27 26  1  1
 27 28  1  0
 28 29  1  0
 29 30  1  1
 30 31  1  0
 29 32  1  0
 32 33  1  6
 32 34  1  0
 34 35  1  1
 34 36  1  0
 36 37  1  6
 25 38  1  0
 38 39  1  0
 38 40  1  0
 38 41  1  0
 41 42  1  1
 42 43  1  0
 43 44  1  0
 44 45  1  1
 46 17  1  6
 46  2  1  0
 46  7  1  0
 44 13  1  0
 44 20  1  0
 41 21  1  0
 36 27  1  0
M  END
>  <identifier>  (1713) 
CNP0111030.2

>  <canonical_smiles>  (1713) 
C[C@H]1[C@H](C)CC[C@]2(C(=O)O)CC[C@]3(C(=O)O)C(=CC[C@@H]4[C@@]5(C)CC[C@H](O[C@@H]6O[C@H](CO)[C@@H](O)[C@H](O)[C@H]6O)C(C)(C)[C@@H]5CC[C@]43C)[C@H]12

>  <standard_inchi>  (1713) 
InChI=1S/C36H56O10/c1-18-9-14-35(30(41)42)15-16-36(31(43)44)20(25(35)19(18)2)7-8-23-33(5)12-11-24(32(3,4)22(33)10-13-34(23,36)6)46-29-28(40)27(39)26(38)21(17-37)45-29/h7,18-19,21-29,37-40H,8-17H2,1-6H3,(H,41,42)(H,43,44)/t18-,19+,21-,22+,23-,24+,25+,26-,27+,28-,29+,33+,34-,35+,36-/m1/s1

>  <standard_inchi_key>  (1713) 
AXNXSFBKZQIMPF-ZZZTYRQWSA-N

>  <name>  (1713) 
Quinovic acid 3-O-beta-D-glucoside

>  <iupac_name>  (1713) 
(1~{S},2~{R},4~{a}~{S},6~{a}~{R},6~{a}~{R},6~{b}~{R},8~{a}~{R},10~{S},12~{a}~{R},14~{b}~{S})-1,2,6~{b},9,9,12~{a}-hexamethyl-10-[(2~{R},3~{R},4~{S},5~{S},6~{R})-3,4,5-trihydroxy-6-(hydroxymethyl)tetrahydropyran-2-yl]oxy-2,3,4,5,6,6~{a},7,8,8~{a},10,11,12,13,14~{b}-tetradecahydro-1~{H}-picene-4~{a},6~{a}-dicarboxylic acid

>  <annotation_level>  (1713) 
5

>  <total_atom_count>  (1713) 
102

>  <heavy_atom_count>  (1713) 
46

>  <molecular_weight>  (1713) 
648.83

>  <exact_molecular_weight>  (1713) 
648.38735

>  <molecular_formula>  (1713) 
C36H56O10

>  <alogp>  (1713) 
3.98

>  <topological_polar_surface_area>  (1713) 
173.98

>  <rotatable_bond_count>  (1713) 
5

>  <hydrogen_bond_acceptors>  (1713) 
8

>  <hydrogen_bond_donors>  (1713) 
6

>  <hydrogen_bond_acceptors_lipinski>  (1713) 
8

>  <hydrogen_bond_donors_lipinski>  (1713) 
6

>  <lipinski_rule_of_five_violations>  (1713) 
2

>  <aromatic_rings_count>  (1713) 
0

>  <qed_drug_likeliness>  (1713) 
0.19

>  <formal_charge>  (1713) 
0

>  <fractioncsp3>  (1713) 
0.89

>  <number_of_minimal_rings>  (1713) 
6

>  <van_der_walls_volume>  (1713) 
600.86

>  <contains_sugar>  (1713) 
True

>  <contains_ring_sugars>  (1713) 
True

>  <contains_linear_sugars>  (1713) 
False

>  <murcko_framework>  (1713) 
O1CCCCC1OC2CCC3C(CCC4C5C(=CCC43)C6CCCCC6CC5)C2

>  <np_likeness>  (1713) 
2.92

>  <chemical_class>  (1713) 
Steroids and steroid derivatives

>  <chemical_sub_class>  (1713) 
Oxosteroids

>  <chemical_super_class>  (1713) 
Lipids and lipid-like molecules

>  <direct_parent_classification>  (1713) 
Oxosteroids

>  <np_classifier_pathway>  (1713) 
Terpenoids

>  <np_classifier_superclass>  (1713) 
Triterpenoids

>  <np_classifier_class>  (1713) 
Ursane and Taraxastane triterpenoids

>  <np_classifier_is_glycoside>  (1713) 
True

>  <organisms>  (1713) 
Acritopappus confertus|Adina trichotoma|Aria edulis|Brachylaena discolor var. rotundata|Cephalanthus occidentalis|Dialium excelsum|Guettarda angelica|Guettarda platypoda|Metadina trichotoma|Nauclea diderrichii|Neonauclea sessilifolia|Pulicaria uliginosa|Strychnos parvifolia|Tetraena coccinea|Tocoyena brasiliensis|Uncaria tomentosa

>  <collections>  (1713) 
CMAUP (cCollective molecular activities of useful plants)|ChemSpider NPs|Latin America dataset|NPASS|NuBBEDB|Super Natural II|WikiData Natural Products|ZINC NP

>  <dois>  (1713) 
10.1016/0031-9422(83)85034-1|10.1016/0031-9422(94)00566-C|10.1016/S0031-9422(00)84104-7|10.1016/S0031-9422(96)00552-3|10.1021/NP50064A002|10.1021/np50064a002|10.1055/S-0031-1273569|10.1055/S-2005-864103|10.1248/CPB.51.1335|10.1248/CPB.52.1258|10.1515/ZNB-2007-0521|10.1515/ZNB-2011-0610|10.1590/S0100-40422005000400009

>  <synonyms>  (1713) 
(1S,2R,4aS,6aR,6aR,6bR,8aR,10S,12aR,14bS)-1,2,6b,9,9,12a-hexamethyl-10-[(2R,3R,4S,5S,6R)-3,4,5-trihydroxy-6-(hydroxymethyl)oxan-2-yl]oxy-2,3,4,5,6,6a,7,8,8a,10,11,12,13,14b-tetradecahydro-1H-picene-4a,6a-dicarboxylic acid|(1S,2R,4aS,6aR,6bR,8aR,10S,12aR,12bR,14bS)-1,2,6b,9,9,12a-hexamethyl-10-((2R,3R,4S,5S,6R)-3,4,5-trihydroxy-6-(hydroxymethyl)tetrahydro-2H-pyran-2-yloxy)-1,2,3,4,4a,5,6,6a,6b,7,8,8a,9,10,11,12,12a,12b,13,14b-icosahydropicene-4a,6a-dicarboxylic acid|3-O-\u221a\u00e9\u00ac\u2264-D-glucopyranosyl quinovic acid|3-o-beta-d-glucopyranosyl quinovic acid|79955-41-2|AKOS032962167|BDBM50317554|CHEMBL508407|Cinchonaglycoside C|FS-9042|Quinovic acid 3-O--D-glucoside; Quinovin glycoside C|Quinovic acid 3-O-glucoside

>  <cas>  (1713) 
79955-41-2

$$$$

     RDKit          2D

 18 20  0  0  0  0  0  0  0  0999 V2000
   -3.9178    2.4321    0.0000 O   0  0  0  0  0  0  0  0  0  0  0  0
   -2.7381    1.5056    0.0000 C   0  0  0  0  0  0  0  0  0  0  0  0
   -1.3459    2.0640    0.0000 N   0  0  0  0  0  0  0  0  0  0  0  0
   -0.1662    1.1375    0.0000 C   0  0  0  0  0  0  0  0  0  0  0  0
    1.2259    1.6959    0.0000 C   0  0  0  0  0  0  0  0  0  0  0  0
    2.4056    0.7695    0.0000 C   0  0  0  0  0  0  0  0  0  0  0  0
    2.1931   -0.7154    0.0000 C   0  0  0  0  0  0  0  0  0  0  0  0
    3.3728   -1.6419    0.0000 C   0  0  0  0  0  0  0  0  0  0  0  0
    4.7650   -1.0835    0.0000 C   0  0  0  0  0  0  0  0  0  0  0  0
    4.9775    0.4014    0.0000 C   0  0  0  0  0  0  0  0  0  0  0  0
    3.7978    1.3279    0.0000 C   0  0  0  0  0  0  0  0  0  0  0  0
   -0.3788   -0.3473    0.0000 C   0  0  0  0  0  0  0  0  0  0  0  0
    0.8009   -1.2738    0.0000 O   0  0  0  0  0  0  0  0  0  0  0  0
   -1.7709   -0.9058    0.0000 N   0  0  0  0  0  0  0  0  0  0  0  0
   -2.2875   -2.3140    0.0000 C   0  0  0  0  0  0  0  0  0  0  0  0
   -3.7865   -2.2579    0.0000 C   0  0  0  0  0  0  0  0  0  0  0  0
   -4.1963   -0.8149    0.0000 C   0  0  0  0  0  0  0  0  0  0  0  0
   -2.9506    0.0207    0.0000 C   0  0  0  0  0  0  0  0  0  0  0  0
  1  2  2  0
  2  3  1  0
  3  4  1  0
  4  5  1  1
  5  6  1  0
  6  7  2  0
  7  8  1  0
  8  9  2  0
  9 10  1  0
 10 11  2  0
  4 12  1  0
 12 13  2  0
 12 14  1  0
 14 15  1  0
 15 16  1  0
 16 17  1  0
 18 17  1  1
 18  2  1  0
 11  6  1  0
 18 14  1  0
M  END
>  <identifier>  (1714) 
CNP0184686.1

>  <canonical_smiles>  (1714) 
O=C1N[C@@H](CC2=CC=CC=C2)C(=O)N2CCC[C@@H]12

>  <standard_inchi>  (1714) 
InChI=1S/C14H16N2O2/c17-13-12-7-4-8-16(12)14(18)11(15-13)9-10-5-2-1-3-6-10/h1-3,5-6,11-12H,4,7-9H2,(H,15,17)/t11-,12-/m0/s1

>  <standard_inchi_key>  (1714) 
QZBUWPVZSXDWSB-RYUDHWBXSA-N

>  <name>  (1714) 
Cyclo(-Phe-Pro)

>  <iupac_name>  (1714) 
(3~{S},8~{a}~{S})-3-benzyl-2,3,6,7,8,8~{a}-hexahydropyrrolo[1,2-a]pyrazine-1,4-dione

>  <annotation_level>  (1714) 
5

>  <total_atom_count>  (1714) 
34

>  <heavy_atom_count>  (1714) 
18

>  <molecular_weight>  (1714) 
244.29

>  <exact_molecular_weight>  (1714) 
244.12118

>  <molecular_formula>  (1714) 
C14H16N2O2

>  <alogp>  (1714) 
0.72

>  <topological_polar_surface_area>  (1714) 
49.41

>  <rotatable_bond_count>  (1714) 
2

>  <hydrogen_bond_acceptors>  (1714) 
2

>  <hydrogen_bond_donors>  (1714) 
1

>  <hydrogen_bond_acceptors_lipinski>  (1714) 
2

>  <hydrogen_bond_donors_lipinski>  (1714) 
1

>  <lipinski_rule_of_five_violations>  (1714) 
0

>  <aromatic_rings_count>  (1714) 
1

>  <qed_drug_likeliness>  (1714) 
0.83

>  <formal_charge>  (1714) 
0

>  <fractioncsp3>  (1714) 
0.43

>  <number_of_minimal_rings>  (1714) 
3

>  <van_der_walls_volume>  (1714) 
225.75

>  <contains_sugar>  (1714) 
False

>  <contains_ring_sugars>  (1714) 
False

>  <contains_linear_sugars>  (1714) 
False

>  <murcko_framework>  (1714) 
c1ccc(cc1)CC2NCC3N(CCC3)C2

>  <np_likeness>  (1714) 
0.71

>  <chemical_class>  (1714) 
Carboxylic acids and derivatives

>  <chemical_sub_class>  (1714) 
Amino acids, peptides, and analogues

>  <chemical_super_class>  (1714) 
Organic acids and derivatives

>  <direct_parent_classification>  (1714) 
Alpha amino acids

>  <np_classifier_pathway>  (1714) 
Amino acids and Peptides

>  <np_classifier_superclass>  (1714) 
Small peptides

>  <np_classifier_class>  (1714) 
Dipeptides

>  <np_classifier_is_glycoside>  (1714) 
False

>  <organisms>  (1714) 
Aspergillus flavipes|Aspergillus fumigatus|Bacillus cereus|Bacillus subtilis|Callyspongia|Coffea arabica|Epichloe typhina|Macrocystidia cucumis|Nigrospora oryzae|Nigrospora sphaerica|Ophiocordyceps sinensis|Penicillium|Penicillium bilaiae|Penicillium bilaii|Penicillium canescens|Penicillium striatisporum|Peroneutypa scoparia|Portulaca oleracea|Pseudomonas aeruginosa|Stelletta clavosa|Streptomyces|Streptomyces AMLK-335|Streptomyces NPS008187|Streptomyces SUK 25|Streptomyces TS-2-2|Streptomyces antioxidans MUSC 164|Streptomyces asenjonii|Streptomyces asenjonii strain KNN 42.f|Streptomyces chrestomyceticus|Streptomyces chrestomyceticus strain ADP4|Streptomyces fungicidicus|Streptomyces nigra|Streptomyces nigra 452T|Streptomyces olivaceus|Streptomyces olivaceus SCSIO T05|Streptomyces puniceus|Streptomyces puniceus Act1085|Streptomyces scabrisporus|Streptomyces sp. (USC-16018)|Streptomyces sp. Call-36|Streptomyces sp. G248|Streptomyces sp. MUM273b|Streptomyces sp. PNM-161a|Streptomyces sp. SCA3-4|Streptomyces xiamenensis MCCC 1A01570

>  <collections>  (1714) 
ANPDB|Australian natural products|ChEBI NPs|ChemSpider NPs|EMNPD|InterBioScreen Ltd|KNApSaCK|Latin America dataset|NANPDB (Natural Products from Northern African Sources)|NuBBEDB|StreptomeDB|Super Natural II|WikiData Natural Products|ZINC NP

>  <dois>  (1714) 
10.1002/(SICI)1099-0690(199801)1998:1<73::AID-EJOC73>3.0.CO;2-F|10.1002/CBDV.200800336|10.1002/RCM.3526|10.1002/mbo3.859|10.1002/rcm.3526|10.1007/S10600-010-9680-8|10.1007/s10482-015-0492-5|10.1007/s11033-018-4424-0|10.1016/J.BMC.2004.07.061|10.1016/J.BMCL.2011.05.002|10.1016/J.BMCL.2012.03.045|10.1016/J.BMCL.2015.06.010|10.1016/J.PHYTOL.2013.09.001|10.1016/J.TET.2008.03.016|10.1016/j.bmcl.2015.06.010|10.1016/j.phytol.2013.09.001|10.1021/JF991256V|10.1021/NP0702483|10.1021/NP100902F|10.1021/NP50106A005|10.1021/NP960095B|10.1021/np0702483|10.1038/S41429-017-0012-0|10.1038/ja.2013.113|10.1038/s41429-017-0012-0|10.1038/s41429-019-0201-0|10.1080/14786419.2018.1508148|10.1271/BBB.69.1515|10.1590/S0103-50532005000800026|10.2174/1568026618666180711154110|10.2323/jgam.48.321|10.3389/FMICB.2018.01587|10.3389/fmicb.2016.00899|10.3389/fmicb.2018.01587|10.3389/fmicb.2019.01390|10.3390/MD17080442|10.3390/MOLECULES24112111|10.3390/md16060189|10.3390/md17080442|10.3390/md17090529|10.3390/md17100584|10.3390/molecules24112111|10.4014/jmb.1608.08032

>  <synonyms>  (1714) 
(3S,8aS)-3-Benzylhexahydropyrrolo[1,2-a]pyrazine-1,4-dione|(3S,8aS)-3-benzyl-2,3,6,7,8,8a-hexahydropyrrolo[1,2-a]pyrazine-1,4-dione|(3S-trans)-3-Benzylhexahydropyrrolo(1,2-a)pyrazine-1,4-dione|3-Benzyl-hexahydro-pyrrolo[1,2-a]pyrazine-1,4-dione|3705-26-8|AC6021|AKOS000739487|AS-56632|Aspergillus diketopiperazine 7|BDBM163710|CHEBI:69440|CHEMBL512845|Cyclo (L)-Pro-(L)-Phe|Cyclo L-Pro-L-Phe (Fr. 2-2)|Cyclo(L-Phe-L-Pro)|Cyclo(L-prolyl-L-phenylalanyl)|Cyclo(Pro-Phe)|Cyclo(phenylalanylprolyl)|Cyclo-L-phenylalanyl-L-proline|DTXSID101316106|Diketopiperazine cyclo(D-Pro-D-Phe)|EX-A3331|HMS2843P17|InChI=1\/C14H16N2O2\/c17-13-12-7-4-8-16(12)14(18)11(15-13)9-10-5-2-1-3-6-10\/h1-3,5-6,11-12H,4,7-9H2,(H,15,17)\/t11-,12-\/m0\/s|KUC100417N|L-Phe-D-Pro lactam|MFCD00038604|MLS001208545|NS00047284|Q27104973|QZBUWPVZSXDWSB-RYUDHWBXSA-N|SCHEMBL2019443|SMR000504521|cyclo(L-phenylalanyl-L-prolyl)|pyrrolo[1,2-a]pyrazine-1,4-dione, hexahydro-3-(phenylmethyl)-, (3S,8aS)-

>  <cas>  (1714) 
3705-26-8

$$$$

     RDKit          2D

 29 32  0  0  0  0  0  0  0  0999 V2000
    3.5329   -4.1341    0.0000 C   0  0  0  0  0  0  0  0  0  0  0  0
    4.6590   -3.1432    0.0000 O   0  0  0  0  0  0  0  0  0  0  0  0
    4.3640   -1.6725    0.0000 C   0  0  0  0  0  0  0  0  0  0  0  0
    2.9428   -1.1927    0.0000 C   0  0  0  0  0  0  0  0  0  0  0  0
    2.6477    0.2780    0.0000 C   0  0  0  0  0  0  0  0  0  0  0  0
    1.2265    0.7578    0.0000 C   0  0  0  0  0  0  0  0  0  0  0  0
    0.0030   -0.1100    0.0000 O   0  0  0  0  0  0  0  0  0  0  0  0
   -1.2004    0.7855    0.0000 C   0  0  0  0  0  0  0  0  0  0  0  0
   -2.6322    0.3383    0.0000 C   0  0  0  0  0  0  0  0  0  0  0  0
   -2.9608   -1.1252    0.0000 C   0  0  0  0  0  0  0  0  0  0  0  0
   -4.3926   -1.5724    0.0000 C   0  0  0  0  0  0  0  0  0  0  0  0
   -4.7212   -3.0360    0.0000 O   0  0  0  0  0  0  0  0  0  0  0  0
   -3.6180   -4.0524    0.0000 C   0  0  0  0  0  0  0  0  0  0  0  0
   -5.4958   -0.5561    0.0000 C   0  0  0  0  0  0  0  0  0  0  0  0
   -6.9893   -0.6958    0.0000 O   0  0  0  0  0  0  0  0  0  0  0  0
   -7.5837    0.6814    0.0000 C   0  0  0  0  0  0  0  0  0  0  0  0
   -6.4576    1.6723    0.0000 O   0  0  0  0  0  0  0  0  0  0  0  0
   -5.1672    0.9075    0.0000 C   0  0  0  0  0  0  0  0  0  0  0  0
   -3.7354    1.3547    0.0000 C   0  0  0  0  0  0  0  0  0  0  0  0
   -0.7206    2.2067    0.0000 C   0  0  0  0  0  0  0  0  0  0  0  0
   -1.5884    3.4302    0.0000 C   0  0  0  0  0  0  0  0  0  0  0  0
    0.7793    2.1896    0.0000 C   0  0  0  0  0  0  0  0  0  0  0  0
    1.6747    3.3930    0.0000 C   0  0  0  0  0  0  0  0  0  0  0  0
    3.7738    1.2689    0.0000 C   0  0  0  0  0  0  0  0  0  0  0  0
    5.1950    0.7891    0.0000 C   0  0  0  0  0  0  0  0  0  0  0  0
    6.3211    1.7800    0.0000 O   0  0  0  0  0  0  0  0  0  0  0  0
    7.7423    1.3002    0.0000 C   0  0  0  0  0  0  0  0  0  0  0  0
    5.4901   -0.6816    0.0000 C   0  0  0  0  0  0  0  0  0  0  0  0
    6.9113   -1.1614    0.0000 O   0  0  0  0  0  0  0  0  0  0  0  0
  1  2  1  0
  2  3  1  0
  3  4  2  0
  4  5  1  0
  6  5  1  6
  6  7  1  0
  7  8  1  0
  8  9  1  6
  9 10  2  0
 10 11  1  0
 11 12  1  0
 12 13  1  0
 11 14  2  0
 14 15  1  0
 15 16  1  0
 16 17  1  0
 17 18  1  0
 18 19  2  0
  8 20  1  0
 20 21  1  1
 20 22  1  0
 22 23  1  6
  5 24  2  0
 24 25  1  0
 25 26  1  0
 26 27  1  0
 25 28  2  0
 28 29  1  0
 28  3  1  0
 22  6  1  0
 19  9  1  0
 18 14  1  0
M  END
>  <identifier>  (1715) 
CNP0180831.1

>  <canonical_smiles>  (1715) 
COC1=CC([C@@H]2O[C@H](C3=CC(OC)=C4OCOC4=C3)[C@@H](C)[C@@H]2C)=CC(OC)=C1O

>  <standard_inchi>  (1715) 
InChI=1S/C22H26O7/c1-11-12(2)21(14-8-17(26-5)22-18(9-14)27-10-28-22)29-20(11)13-6-15(24-3)19(23)16(7-13)25-4/h6-9,11-12,20-21,23H,10H2,1-5H3/t11-,12-,20+,21-/m0/s1

>  <standard_inchi_key>  (1715) 
JRKSCKPVDJGMNY-RNOWOOBNSA-N

>  <name>  (1715) 
nan

>  <iupac_name>  (1715) 
2,6-dimethoxy-4-[(2~{R},3~{S},4~{S},5~{S})-5-(7-methoxy-1,3-benzodioxol-5-yl)-3,4-dimethyl-tetrahydrofuran-2-yl]phenol

>  <annotation_level>  (1715) 
5

>  <total_atom_count>  (1715) 
55

>  <heavy_atom_count>  (1715) 
29

>  <molecular_weight>  (1715) 
402.44

>  <exact_molecular_weight>  (1715) 
402.16785

>  <molecular_formula>  (1715) 
C22H26O7

>  <alogp>  (1715) 
4.23

>  <topological_polar_surface_area>  (1715) 
75.61

>  <rotatable_bond_count>  (1715) 
5

>  <hydrogen_bond_acceptors>  (1715) 
7

>  <hydrogen_bond_donors>  (1715) 
1

>  <hydrogen_bond_acceptors_lipinski>  (1715) 
7

>  <hydrogen_bond_donors_lipinski>  (1715) 
1

>  <lipinski_rule_of_five_violations>  (1715) 
0

>  <aromatic_rings_count>  (1715) 
2

>  <qed_drug_likeliness>  (1715) 
0.80

>  <formal_charge>  (1715) 
0

>  <fractioncsp3>  (1715) 
0.46

>  <number_of_minimal_rings>  (1715) 
4

>  <van_der_walls_volume>  (1715) 
357.97

>  <contains_sugar>  (1715) 
False

>  <contains_ring_sugars>  (1715) 
False

>  <contains_linear_sugars>  (1715) 
False

>  <murcko_framework>  (1715) 
O1c2ccc(cc2OC1)C3OC(c4ccccc4)CC3

>  <np_likeness>  (1715) 
1.12

>  <chemical_class>  (1715) 
Furanoid lignans

>  <chemical_sub_class>  (1715) 
Tetrahydrofuran lignans

>  <chemical_super_class>  (1715) 
Lignans, neolignans and related compounds

>  <direct_parent_classification>  (1715) 
7,7'-epoxylignans

>  <np_classifier_pathway>  (1715) 
Shikimates and Phenylpropanoids

>  <np_classifier_superclass>  (1715) 
Lignans

>  <np_classifier_class>  (1715) 
Furanoid lignans

>  <np_classifier_is_glycoside>  (1715) 
False

>  <organisms>  (1715) 
Peperomia blanda

>  <collections>  (1715) 
ChemSpider NPs|Latin America dataset|NuBBEDB|Super Natural II|WikiData Natural Products|ZINC NP

>  <dois>  (1715) 
10.1016/J.PHYTOCHEM.2007.08.012|10.1016/j.phytochem.2007.08.012

>  <synonyms>  (1715) 
Rel-(7R8S7'S8'S)-4-hydroxy-4'5'-methylenedioxy-353'-trimethoxy-77'-epoxylignan

>  <cas>  (1715) 
nan

$$$$

     RDKit          2D

 45 50  0  0  0  0  0  0  0  0999 V2000
   -4.4507   -3.4288    0.0000 C   0  0  0  0  0  0  0  0  0  0  0  0
   -5.4636   -2.3224    0.0000 C   0  0  0  0  0  0  0  0  0  0  0  0
   -6.9282   -2.6465    0.0000 C   0  0  0  0  0  0  0  0  0  0  0  0
   -7.3798   -4.0769    0.0000 C   0  0  0  0  0  0  0  0  0  0  0  0
   -7.9411   -1.5401    0.0000 C   0  0  0  0  0  0  0  0  0  0  0  0
   -7.4895   -0.1098    0.0000 C   0  0  0  0  0  0  0  0  0  0  0  0
   -6.0249    0.2143    0.0000 C   0  0  0  0  0  0  0  0  0  0  0  0
   -7.0378    1.3206    0.0000 C   0  0  0  0  0  0  0  0  0  0  0  0
   -8.5024    0.9966    0.0000 O   0  0  0  0  0  0  0  0  0  0  0  0
   -6.5862    2.7510    0.0000 O   0  0  0  0  0  0  0  0  0  0  0  0
   -5.5733    1.6447    0.0000 C   0  0  0  0  0  0  0  0  0  0  0  0
   -4.1087    1.9687    0.0000 C   0  0  0  0  0  0  0  0  0  0  0  0
   -3.0957    0.8624    0.0000 C   0  0  0  0  0  0  0  0  0  0  0  0
   -2.0828   -0.2439    0.0000 C   0  0  0  0  0  0  0  0  0  0  0  0
   -0.5834   -0.2839    0.0000 O   0  0  0  0  0  0  0  0  0  0  0  0
   -2.1318   -1.0396    0.0000 O   0  0  0  0  0  0  0  0  0  0  0  0
   -3.5474   -0.5680    0.0000 C   0  0  0  0  0  0  0  0  0  0  0  0
   -2.5345   -1.6743    0.0000 C   0  0  0  0  0  0  0  0  0  0  0  0
   -1.0699   -1.3503    0.0000 C   0  0  0  0  0  0  0  0  0  0  0  0
   -0.6182    0.0801    0.0000 C   0  0  0  0  0  0  0  0  0  0  0  0
    0.8463    0.4042    0.0000 C   0  0  0  0  0  0  0  0  0  0  0  0
    0.3947   -1.0262    0.0000 C   0  0  0  0  0  0  0  0  0  0  0  0
    1.8593   -0.7021    0.0000 C   0  0  0  0  0  0  0  0  0  0  0  0
    3.3238   -0.3781    0.0000 C   0  0  0  0  0  0  0  0  0  0  0  0
    3.7755    1.0523    0.0000 C   0  0  0  0  0  0  0  0  0  0  0  0
    5.2401    1.3764    0.0000 O   0  0  0  0  0  0  0  0  0  0  0  0
    6.2530    0.2700    0.0000 C   0  0  0  0  0  0  0  0  0  0  0  0
    5.8014   -1.1604    0.0000 O   0  0  0  0  0  0  0  0  0  0  0  0
    6.8143   -2.2667    0.0000 C   0  0  0  0  0  0  0  0  0  0  0  0
    6.3626   -3.6971    0.0000 C   0  0  0  0  0  0  0  0  0  0  0  0
    8.2789   -1.9426    0.0000 C   0  0  0  0  0  0  0  0  0  0  0  0
    9.2918   -3.0490    0.0000 O   0  0  0  0  0  0  0  0  0  0  0  0
    8.7305   -0.5122    0.0000 C   0  0  0  0  0  0  0  0  0  0  0  0
   10.1951   -0.1882    0.0000 O   0  0  0  0  0  0  0  0  0  0  0  0
    7.7176    0.5941    0.0000 C   0  0  0  0  0  0  0  0  0  0  0  0
    8.1692    2.0245    0.0000 O   0  0  0  0  0  0  0  0  0  0  0  0
    2.7626    2.1586    0.0000 C   0  0  0  0  0  0  0  0  0  0  0  0
    2.1891    3.5447    0.0000 C   0  0  0  0  0  0  0  0  0  0  0  0
    4.0280    2.9641    0.0000 C   0  0  0  0  0  0  0  0  0  0  0  0
    1.2980    1.8346    0.0000 C   0  0  0  0  0  0  0  0  0  0  0  0
    0.2851    2.9409    0.0000 C   0  0  0  0  0  0  0  0  0  0  0  0
   -1.1795    2.6169    0.0000 C   0  0  0  0  0  0  0  0  0  0  0  0
   -1.6312    1.1865    0.0000 C   0  0  0  0  0  0  0  0  0  0  0  0
   -2.6441    2.2928    0.0000 C   0  0  0  0  0  0  0  0  0  0  0  0
   -5.0120   -0.8920    0.0000 C   0  0  0  0  0  0  0  0  0  0  0  0
  2  1  1  1
  2  3  1  0
  3  4  1  6
  3  5  1  0
  5  6  1  0
  6  7  1  0
  7  8  1  1
  8  9  2  0
  8 10  1  0
  7 11  1  0
 11 12  1  0
 12 13  1  0
 13 14  1  6
 14 15  2  0
 14 16  1  0
 13 17  1  0
 17 18  2  0
 18 19  1  0
 20 19  1  1
 20 21  1  0
 21 22  1  1
 21 23  1  0
 23 24  1  0
 24 25  1  0
 25 26  1  1
 27 26  1  6
 27 28  1  0
 28 29  1  0
 29 30  1  6
 29 31  1  0
 31 32  1  1
 31 33  1  0
 33 34  1  6
 33 35  1  0
 35 36  1  1
 25 37  1  0
 37 38  1  0
 37 39  1  0
 37 40  1  0
 40 41  1  1
 41 42  1  0
 42 43  1  0
 43 44  1  1
 45 17  1  6
 45  2  1  0
 45  7  1  0
 43 13  1  0
 43 20  1  0
 40 21  1  0
 35 27  1  0
M  END
>  <identifier>  (1716) 
CNP0229488.1

>  <canonical_smiles>  (1716) 
C[C@H]1[C@H](C)CC[C@]2(C(=O)O)CC[C@]3(C(=O)O)C(=CC[C@@H]4[C@@]5(C)CC[C@H](O[C@H]6O[C@@H](C)[C@H](O)[C@@H](O)[C@@H]6O)C(C)(C)[C@@H]5CC[C@]43C)[C@H]12

>  <standard_inchi>  (1716) 
InChI=1S/C36H56O9/c1-18-10-15-35(30(40)41)16-17-36(31(42)43)21(25(35)19(18)2)8-9-23-33(6)13-12-24(32(4,5)22(33)11-14-34(23,36)7)45-29-28(39)27(38)26(37)20(3)44-29/h8,18-20,22-29,37-39H,9-17H2,1-7H3,(H,40,41)(H,42,43)/t18-,19+,20+,22+,23-,24+,25+,26+,27-,28+,29-,33+,34-,35+,36-/m1/s1

>  <standard_inchi_key>  (1716) 
PUOQHFWXBKTHST-ZIEJEMOWSA-N

>  <name>  (1716) 
nan

>  <iupac_name>  (1716) 
(1~{S},2~{R},4~{a}~{S},6~{a}~{R},6~{a}~{R},6~{b}~{R},8~{a}~{R},10~{S},12~{a}~{R},14~{b}~{S})-1,2,6~{b},9,9,12~{a}-hexamethyl-10-[(2~{S},3~{S},4~{R},5~{R},6~{S})-3,4,5-trihydroxy-6-methyl-tetrahydropyran-2-yl]oxy-2,3,4,5,6,6~{a},7,8,8~{a},10,11,12,13,14~{b}-tetradecahydro-1~{H}-picene-4~{a},6~{a}-dicarboxylic acid

>  <annotation_level>  (1716) 
5

>  <total_atom_count>  (1716) 
101

>  <heavy_atom_count>  (1716) 
45

>  <molecular_weight>  (1716) 
632.84

>  <exact_molecular_weight>  (1716) 
632.39243

>  <molecular_formula>  (1716) 
C36H56O9

>  <alogp>  (1716) 
5.01

>  <topological_polar_surface_area>  (1716) 
153.75

>  <rotatable_bond_count>  (1716) 
4

>  <hydrogen_bond_acceptors>  (1716) 
7

>  <hydrogen_bond_donors>  (1716) 
5

>  <hydrogen_bond_acceptors_lipinski>  (1716) 
7

>  <hydrogen_bond_donors_lipinski>  (1716) 
5

>  <lipinski_rule_of_five_violations>  (1716) 
2

>  <aromatic_rings_count>  (1716) 
0

>  <qed_drug_likeliness>  (1716) 
0.21

>  <formal_charge>  (1716) 
0

>  <fractioncsp3>  (1716) 
0.89

>  <number_of_minimal_rings>  (1716) 
6

>  <van_der_walls_volume>  (1716) 
589.57

>  <contains_sugar>  (1716) 
True

>  <contains_ring_sugars>  (1716) 
True

>  <contains_linear_sugars>  (1716) 
False

>  <murcko_framework>  (1716) 
O1CCCCC1OC2CCC3C(CCC4C5C(=CCC43)C6CCCCC6CC5)C2

>  <np_likeness>  (1716) 
2.93

>  <chemical_class>  (1716) 
Steroids and steroid derivatives

>  <chemical_sub_class>  (1716) 
Oxosteroids

>  <chemical_super_class>  (1716) 
Lipids and lipid-like molecules

>  <direct_parent_classification>  (1716) 
Oxosteroids

>  <np_classifier_pathway>  (1716) 
Terpenoids

>  <np_classifier_superclass>  (1716) 
Triterpenoids

>  <np_classifier_class>  (1716) 
Ursane and Taraxastane triterpenoids

>  <np_classifier_is_glycoside>  (1716) 
True

>  <organisms>  (1716) 
Tocoyena brasiliensis

>  <collections>  (1716) 
ChemSpider NPs|Latin America dataset|NuBBEDB

>  <dois>  (1716) 
10.1590/S0100-40422005000400009

>  <synonyms>  (1716) 
3-O-\u221a\u00e9\u00ac\u2264-D-quinovopyranosyl quinovic acid

>  <cas>  (1716) 
nan

$$$$

     RDKit          2D

 27 30  0  0  0  0  0  0  0  0999 V2000
   -1.5508   -3.5663    0.0000 C   0  0  0  0  0  0  0  0  0  0  0  0
   -2.8268   -2.7778    0.0000 N   0  0  0  0  0  0  0  0  0  0  0  0
   -4.1477   -3.4886    0.0000 C   0  0  0  0  0  0  0  0  0  0  0  0
   -5.4237   -2.7000    0.0000 C   0  0  0  0  0  0  0  0  0  0  0  0
   -5.3788   -1.2007    0.0000 C   0  0  0  0  0  0  0  0  0  0  0  0
   -4.0579   -0.4899    0.0000 C   0  0  0  0  0  0  0  0  0  0  0  0
   -2.7819   -1.2784    0.0000 C   0  0  0  0  0  0  0  0  0  0  0  0
   -1.4610   -0.5677    0.0000 C   0  0  0  0  0  0  0  0  0  0  0  0
   -0.1850   -1.3562    0.0000 C   0  0  0  0  0  0  0  0  0  0  0  0
    1.1359   -0.6454    0.0000 N   0  0  0  0  0  0  0  0  0  0  0  0
    2.4119   -1.4339    0.0000 C   0  0  0  0  0  0  0  0  0  0  0  0
    2.3670   -2.9332    0.0000 C   0  0  0  0  0  0  0  0  0  0  0  0
    3.6430   -3.7218    0.0000 C   0  0  0  0  0  0  0  0  0  0  0  0
    4.9639   -3.0110    0.0000 C   0  0  0  0  0  0  0  0  0  0  0  0
    5.0088   -1.5117    0.0000 C   0  0  0  0  0  0  0  0  0  0  0  0
    3.7328   -0.7231    0.0000 C   0  0  0  0  0  0  0  0  0  0  0  0
    3.7777    0.7762    0.0000 S   0  0  0  0  0  0  0  0  0  0  0  0
    2.5017    1.5647    0.0000 C   0  0  0  0  0  0  0  0  0  0  0  0
    2.5466    3.0641    0.0000 C   0  0  0  0  0  0  0  0  0  0  0  0
    1.2705    3.8526    0.0000 C   0  0  0  0  0  0  0  0  0  0  0  0
   -0.0504    3.1418    0.0000 C   0  0  0  0  0  0  0  0  0  0  0  0
   -1.3264    3.9303    0.0000 S   0  0  0  0  0  0  0  0  0  0  0  0
   -2.6024    4.7189    0.0000 C   0  0  0  0  0  0  0  0  0  0  0  0
   -2.1149    2.6543    0.0000 O   0  0  0  0  0  0  0  0  0  0  0  0
   -0.5378    5.2064    0.0000 O   0  0  0  0  0  0  0  0  0  0  0  0
   -0.0952    1.6425    0.0000 C   0  0  0  0  0  0  0  0  0  0  0  0
    1.1808    0.8539    0.0000 C   0  0  0  0  0  0  0  0  0  0  0  0
  1  2  1  0
  2  3  1  0
  3  4  1  0
  4  5  1  0
  5  6  1  0
  6  7  1  0
  7  8  1  0
  8  9  1  0
  9 10  1  0
 10 11  1  0
 11 12  2  0
 12 13  1  0
 13 14  2  0
 14 15  1  0
 15 16  2  0
 16 17  1  0
 17 18  1  0
 18 19  2  0
 19 20  1  0
 20 21  2  0
 21 22  1  0
 22 23  1  0
 22 24  2  0
 22 25  2  0
 21 26  1  0
 26 27  2  0
  7  2  1  0
 27 10  1  0
 16 11  1  0
 27 18  1  0
M  END
>  <identifier>  (1717) 
CNP0319397.0

>  <canonical_smiles>  (1717) 
CN1CCCCC1CCN1C2=CC=CC=C2SC2=CC=C(S(C)(=O)=O)C=C21

>  <standard_inchi>  (1717) 
InChI=1S/C21H26N2O2S2/c1-22-13-6-5-7-16(22)12-14-23-18-8-3-4-9-20(18)26-21-11-10-17(15-19(21)23)27(2,24)25/h3-4,8-11,15-16H,5-7,12-14H2,1-2H3

>  <standard_inchi_key>  (1717) 
FLGCRGJDQJIJAW-UHFFFAOYSA-N

>  <name>  (1717) 
Sulforidazine

>  <iupac_name>  (1717) 
10-[2-(1-methyl-2-piperidyl)ethyl]-2-methylsulfonyl-phenothiazine

>  <annotation_level>  (1717) 
5

>  <total_atom_count>  (1717) 
53

>  <heavy_atom_count>  (1717) 
27

>  <molecular_weight>  (1717) 
402.59

>  <exact_molecular_weight>  (1717) 
402.14357

>  <molecular_formula>  (1717) 
C21H26N2O2S2

>  <alogp>  (1717) 
4.57

>  <topological_polar_surface_area>  (1717) 
40.62

>  <rotatable_bond_count>  (1717) 
4

>  <hydrogen_bond_acceptors>  (1717) 
5

>  <hydrogen_bond_donors>  (1717) 
0

>  <hydrogen_bond_acceptors_lipinski>  (1717) 
5

>  <hydrogen_bond_donors_lipinski>  (1717) 
0

>  <lipinski_rule_of_five_violations>  (1717) 
0

>  <aromatic_rings_count>  (1717) 
2

>  <qed_drug_likeliness>  (1717) 
0.75

>  <formal_charge>  (1717) 
0

>  <fractioncsp3>  (1717) 
0.43

>  <number_of_minimal_rings>  (1717) 
4

>  <van_der_walls_volume>  (1717) 
nan

>  <contains_sugar>  (1717) 
False

>  <contains_ring_sugars>  (1717) 
False

>  <contains_linear_sugars>  (1717) 
False

>  <murcko_framework>  (1717) 
S1c2ccccc2N(c3ccccc13)CCC4NCCCC4

>  <np_likeness>  (1717) 
-1.19

>  <chemical_class>  (1717) 
Benzothiazines

>  <chemical_sub_class>  (1717) 
Phenothiazines

>  <chemical_super_class>  (1717) 
Organoheterocyclic compounds

>  <direct_parent_classification>  (1717) 
Phenothiazines

>  <np_classifier_pathway>  (1717) 
Alkaloids

>  <np_classifier_superclass>  (1717) 
Tryptophan alkaloids

>  <np_classifier_class>  (1717) 
nan

>  <np_classifier_is_glycoside>  (1717) 
False

>  <organisms>  (1717) 
Aspergillus fumigatus|Phomopsis sp.

>  <collections>  (1717) 
Latin America dataset|NuBBEDB|WikiData Natural Products

>  <dois>  (1717) 
10.1007/S00253-007-1171-X|10.1007/s00253-007-1171-x

>  <synonyms>  (1717) 
(+\/-)-Thioridazine-2-sulfone|10-(2-(1-METHYL-2-PIPERIDINYL)ETHYL)-2-(METHYLSULFONYL)-10H-PHENOTHIAZINE|10-(2-(1-Methyl-2-piperidyl)ethyl)-2-methylsulfonylphenothiazine|10-[2-(1-Methyl-2-piperidinyl)ethyl]-2-(methylsulfonyl)-10H-phenothiazine #|10-[2-(1-methylpiperidin-2-yl)ethyl]-2-methylsulfonylphenothiazine|10H-Phenothiazine, 10-[2-(1-methyl-2-piperidinyl)ethyl]-2-(methylsulfonyl)-|14759-06-9|2-METHANESULFONYL-10-[2-(1-METHYLPIPERIDIN-2-YL)ETHYL]-10H-PHENOTHIAZINE|2-METHYLSULFONYL-10-(2-(1-METHYL-2-PIPERIDYL)ETHYL)PHENOTHIAZINE|2-Methylsulfonyl-10-[2-(1-methyl-2-piperidyl)ethyl]phenothiazine|AKOS030239787|B7599I244X|BDBM86723|BRN 1230366|CAS_14759-06-9|CHEBI:135644|CHEMBL2107268|DTXSID30864531|EINECS 238-818-7|Imagotan|Inofal|J-008369|L000789|NS00015416|NSC_31765|PHENOTHIAZINE, 10-(2-(1-METHYL-2-PIPERIDYL)ETHYL)-2-(METHYLSULFONYL)-|Psychoson|Q7636215|SCHEMBL145025|SULFORIDAZINE [MART.]|SULFORIDAZINE [MI]|SULFORIDAZINE [WHO-DD]|Solforidazina|Solforidazina [DCIT]|Sulforidazina [INN-Spanish]|Sulforidazine [INN:DCF]|Sulforidazinum|Sulforidazinum [INN-Latin]|THIORIDAZINE HYDROCHLORIDE IMPURITY E [EP IMPURITY]|THIORIDAZINE IMPURITY E [EP IMPURITY]|TPN 12|TPN-12|Thioridazine 2-Sulfone|Thioridazine sulphone|UNII-B7599I244X

>  <cas>  (1717) 
14759-06-9

$$$$

     RDKit          2D

 23 25  0  0  0  0  0  0  0  0999 V2000
   -5.2902   -2.0450    0.0000 C   0  0  0  0  0  0  0  0  0  0  0  0
   -3.7987   -1.8848    0.0000 O   0  0  0  0  0  0  0  0  0  0  0  0
   -3.1917   -0.5131    0.0000 C   0  0  0  0  0  0  0  0  0  0  0  0
   -4.0761    0.6984    0.0000 C   0  0  0  0  0  0  0  0  0  0  0  0
   -5.5676    0.5382    0.0000 C   0  0  0  0  0  0  0  0  0  0  0  0
   -3.4691    2.0701    0.0000 C   0  0  0  0  0  0  0  0  0  0  0  0
   -4.3535    3.2816    0.0000 O   0  0  0  0  0  0  0  0  0  0  0  0
   -1.9777    2.2302    0.0000 C   0  0  0  0  0  0  0  0  0  0  0  0
   -1.0933    1.0187    0.0000 C   0  0  0  0  0  0  0  0  0  0  0  0
   -1.7003   -0.3530    0.0000 C   0  0  0  0  0  0  0  0  0  0  0  0
   -0.8159   -1.5645    0.0000 C   0  0  0  0  0  0  0  0  0  0  0  0
   -1.4229   -2.9362    0.0000 O   0  0  0  0  0  0  0  0  0  0  0  0
    0.6755   -1.4044    0.0000 C   0  0  0  0  0  0  0  0  0  0  0  0
    1.5600   -2.6159    0.0000 O   0  0  0  0  0  0  0  0  0  0  0  0
    1.2826   -0.0327    0.0000 C   0  0  0  0  0  0  0  0  0  0  0  0
    2.7740    0.1275    0.0000 C   0  0  0  0  0  0  0  0  0  0  0  0
    3.6584   -1.0841    0.0000 C   0  0  0  0  0  0  0  0  0  0  0  0
    5.1498   -0.9239    0.0000 C   0  0  0  0  0  0  0  0  0  0  0  0
    5.7568    0.4478    0.0000 C   0  0  0  0  0  0  0  0  0  0  0  0
    7.2483    0.6079    0.0000 O   0  0  0  0  0  0  0  0  0  0  0  0
    4.8724    1.6593    0.0000 C   0  0  0  0  0  0  0  0  0  0  0  0
    3.3810    1.4991    0.0000 C   0  0  0  0  0  0  0  0  0  0  0  0
    0.3982    1.1788    0.0000 O   0  0  0  0  0  0  0  0  0  0  0  0
  1  2  1  0
  2  3  1  0
  3  4  2  0
  4  5  1  0
  4  6  1  0
  6  7  1  0
  6  8  2  0
  8  9  1  0
  9 10  2  0
 10 11  1  0
 11 12  2  0
 11 13  1  0
 13 14  1  6
 13 15  1  0
 15 16  1  1
 16 17  2  0
 17 18  1  0
 18 19  2  0
 19 20  1  0
 19 21  1  0
 21 22  2  0
 15 23  1  0
 10  3  1  0
 22 16  1  0
 23  9  1  0
M  END
>  <identifier>  (1718) 
CNP0204619.2

>  <canonical_smiles>  (1718) 
COC1=C(C)C(O)=CC2=C1C(=O)[C@@H](O)[C@H](C1=CC=C(O)C=C1)O2

>  <standard_inchi>  (1718) 
InChI=1S/C17H16O6/c1-8-11(19)7-12-13(16(8)22-2)14(20)15(21)17(23-12)9-3-5-10(18)6-4-9/h3-7,15,17-19,21H,1-2H3/t15-,17+/m1/s1

>  <standard_inchi_key>  (1718) 
ACBMIOXLRKBKCN-WBVHZDCISA-N

>  <name>  (1718) 
ACBMIOXLRKBKCN-WBVHZDCISA-N

>  <iupac_name>  (1718) 
(2~{S},3~{S})-3,7-dihydroxy-2-(4-hydroxyphenyl)-5-methoxy-6-methyl-chroman-4-one

>  <annotation_level>  (1718) 
5

>  <total_atom_count>  (1718) 
39

>  <heavy_atom_count>  (1718) 
23

>  <molecular_weight>  (1718) 
316.31

>  <exact_molecular_weight>  (1718) 
316.09469

>  <molecular_formula>  (1718) 
C17H16O6

>  <alogp>  (1718) 
2.09

>  <topological_polar_surface_area>  (1718) 
96.22

>  <rotatable_bond_count>  (1718) 
2

>  <hydrogen_bond_acceptors>  (1718) 
6

>  <hydrogen_bond_donors>  (1718) 
3

>  <hydrogen_bond_acceptors_lipinski>  (1718) 
6

>  <hydrogen_bond_donors_lipinski>  (1718) 
3

>  <lipinski_rule_of_five_violations>  (1718) 
0

>  <aromatic_rings_count>  (1718) 
2

>  <qed_drug_likeliness>  (1718) 
0.78

>  <formal_charge>  (1718) 
0

>  <fractioncsp3>  (1718) 
0.24

>  <number_of_minimal_rings>  (1718) 
3

>  <van_der_walls_volume>  (1718) 
nan

>  <contains_sugar>  (1718) 
False

>  <contains_ring_sugars>  (1718) 
False

>  <contains_linear_sugars>  (1718) 
False

>  <murcko_framework>  (1718) 
O1c2ccccc2CCC1c3ccccc3

>  <np_likeness>  (1718) 
2.11

>  <chemical_class>  (1718) 
Flavonoids

>  <chemical_sub_class>  (1718) 
O-methylated flavonoids

>  <chemical_super_class>  (1718) 
Phenylpropanoids and polyketides

>  <direct_parent_classification>  (1718) 
5-O-methylated flavonoids

>  <np_classifier_pathway>  (1718) 
Shikimates and Phenylpropanoids

>  <np_classifier_superclass>  (1718) 
Flavonoids

>  <np_classifier_class>  (1718) 
Dihydroflavonols

>  <np_classifier_is_glycoside>  (1718) 
False

>  <organisms>  (1718) 
Qualea labouriauana

>  <collections>  (1718) 
Latin America dataset|NPEdia|NuBBEDB|Super Natural II|WikiData Natural Products|ZINC NP

>  <dois>  (1718) 
10.1016/0031-9422(81)85112-6

>  <synonyms>  (1718) 
(2S,3S)-3,7,4'-Trihydroxy-5-methoxy-6-methylflavanone|3,7-Dihydroxy-2-(4-hydroxyphenyl)-5-methoxy-6-methyl-2,3-dihydro-4H-chromen-4-one #

>  <cas>  (1718) 
nan

$$$$

     RDKit          2D

 29 33  0  0  0  0  0  0  0  0999 V2000
   -7.6793    1.5403    0.0000 C   0  0  0  0  0  0  0  0  0  0  0  0
   -6.9322    0.2396    0.0000 O   0  0  0  0  0  0  0  0  0  0  0  0
   -5.4322    0.2362    0.0000 C   0  0  0  0  0  0  0  0  0  0  0  0
   -4.6793    1.5335    0.0000 C   0  0  0  0  0  0  0  0  0  0  0  0
   -3.1793    1.5302    0.0000 C   0  0  0  0  0  0  0  0  0  0  0  0
   -2.4322    0.2294    0.0000 C   0  0  0  0  0  0  0  0  0  0  0  0
   -3.1851   -1.0679    0.0000 C   0  0  0  0  0  0  0  0  0  0  0  0
   -4.6851   -1.0645    0.0000 C   0  0  0  0  0  0  0  0  0  0  0  0
   -5.4380   -2.3619    0.0000 O   0  0  0  0  0  0  0  0  0  0  0  0
   -6.9380   -2.3585    0.0000 C   0  0  0  0  0  0  0  0  0  0  0  0
   -0.9322    0.2261    0.0000 C   0  0  0  0  0  0  0  0  0  0  0  0
   -0.1851   -1.0747    0.0000 C   0  0  0  0  0  0  0  0  0  0  0  0
   -0.9380   -2.3720    0.0000 O   0  0  0  0  0  0  0  0  0  0  0  0
    1.3149   -1.0780    0.0000 C   0  0  0  0  0  0  0  0  0  0  0  0
    2.0620   -2.3787    0.0000 C   0  0  0  0  0  0  0  0  0  0  0  0
    3.5620   -2.3821    0.0000 C   0  0  0  0  0  0  0  0  0  0  0  0
    4.3149   -1.0848    0.0000 C   0  0  0  0  0  0  0  0  0  0  0  0
    5.8149   -1.0881    0.0000 O   0  0  0  0  0  0  0  0  0  0  0  0
    6.5678    0.2092    0.0000 C   0  0  0  0  0  0  0  0  0  0  0  0
    7.7190    1.1708    0.0000 C   0  0  0  0  0  0  0  0  0  0  0  0
    7.7147   -0.7576    0.0000 C   0  0  0  0  0  0  0  0  0  0  0  0
    5.8207    1.5099    0.0000 C   0  0  0  0  0  0  0  0  0  0  0  0
    4.3207    1.5133    0.0000 C   0  0  0  0  0  0  0  0  0  0  0  0
    3.5678    0.2160    0.0000 C   0  0  0  0  0  0  0  0  0  0  0  0
    2.0678    0.2193    0.0000 C   0  0  0  0  0  0  0  0  0  0  0  0
    1.3207    1.5200    0.0000 O   0  0  0  0  0  0  0  0  0  0  0  0
   -0.1793    1.5234    0.0000 C   0  0  0  0  0  0  0  0  0  0  0  0
   -0.9263    2.8241    0.0000 C   0  0  0  0  0  0  0  0  0  0  0  0
   -2.4263    2.8275    0.0000 O   0  0  0  0  0  0  0  0  0  0  0  0
  1  2  1  0
  2  3  1  0
  3  4  2  0
  4  5  1  0
  5  6  2  0
  6  7  1  0
  7  8  2  0
  8  9  1  0
  9 10  1  0
  6 11  1  0
 11 12  1  1
 12 13  2  0
 12 14  1  0
 14 15  2  0
 15 16  1  0
 16 17  2  0
 17 18  1  0
 18 19  1  0
 19 20  1  0
 19 21  1  0
 19 22  1  0
 22 23  2  0
 23 24  1  0
 24 25  2  0
 25 26  1  0
 26 27  1  0
 27 28  1  1
 28 29  1  0
  8  3  1  0
 27 11  1  0
 29  5  1  0
 25 14  1  0
 24 17  1  0
M  END
>  <identifier>  (1719) 
CNP0319845.2

>  <canonical_smiles>  (1719) 
COC1=CC2=C(C=C1OC)[C@@H]1C(=O)C3=CC=C4OC(C)(C)C=CC4=C3O[C@@H]1CO2

>  <standard_inchi>  (1719) 
InChI=1S/C23H22O6/c1-23(2)8-7-12-15(29-23)6-5-13-21(24)20-14-9-17(25-3)18(26-4)10-16(14)27-11-19(20)28-22(12)13/h5-10,19-20H,11H2,1-4H3/t19-,20+/m1/s1

>  <standard_inchi_key>  (1719) 
ORDAZKGHSNRHTD-UXHICEINSA-N

>  <name>  (1719) 
Deguelin

>  <iupac_name>  (1719) 
(1~{S},14~{S})-17,18-dimethoxy-7,7-dimethyl-2,8,21-trioxapentacyclo[12.8.0.0^{3,12}.0^{4,9}.0^{15,20}]docosa-3,5,9,11,15(20),16,18-heptaen-13-one

>  <annotation_level>  (1719) 
5

>  <total_atom_count>  (1719) 
51

>  <heavy_atom_count>  (1719) 
29

>  <molecular_weight>  (1719) 
394.42

>  <exact_molecular_weight>  (1719) 
394.14164

>  <molecular_formula>  (1719) 
C23H22O6

>  <alogp>  (1719) 
4.01

>  <topological_polar_surface_area>  (1719) 
63.22

>  <rotatable_bond_count>  (1719) 
2

>  <hydrogen_bond_acceptors>  (1719) 
6

>  <hydrogen_bond_donors>  (1719) 
0

>  <hydrogen_bond_acceptors_lipinski>  (1719) 
6

>  <hydrogen_bond_donors_lipinski>  (1719) 
0

>  <lipinski_rule_of_five_violations>  (1719) 
0

>  <aromatic_rings_count>  (1719) 
2

>  <qed_drug_likeliness>  (1719) 
0.77

>  <formal_charge>  (1719) 
0

>  <fractioncsp3>  (1719) 
0.35

>  <number_of_minimal_rings>  (1719) 
5

>  <van_der_walls_volume>  (1719) 
345.20

>  <contains_sugar>  (1719) 
False

>  <contains_ring_sugars>  (1719) 
False

>  <contains_linear_sugars>  (1719) 
False

>  <murcko_framework>  (1719) 
O1c2ccc3c(OC4COc5ccccc5C4C3)c2C=CC1

>  <np_likeness>  (1719) 
2.26

>  <chemical_class>  (1719) 
Isoflavonoids

>  <chemical_sub_class>  (1719) 
Rotenoids

>  <chemical_super_class>  (1719) 
Phenylpropanoids and polyketides

>  <direct_parent_classification>  (1719) 
Rotenones

>  <np_classifier_pathway>  (1719) 
Shikimates and Phenylpropanoids

>  <np_classifier_superclass>  (1719) 
Isoflavonoids

>  <np_classifier_class>  (1719) 
Isoflavanones

>  <np_classifier_is_glycoside>  (1719) 
False

>  <organisms>  (1719) 
Achillea cretica|Allium macrostemon|Amorpha fruticosa|Amorpha fruticosa L.|Chadsia grevei|Cordia americana|Crotalaria paniculata|Deguelia spruceana|Deguelia urucu|Derris|Derris Elliptica|Derris Trifoliata|Derris elliptica|Derris malaccensis|Derris montana|Derris trifoliata|Erycibe expansa|Eupatorium riparium|Geijera parviflora|Glycosmis montana|Leguminosae|Lonchocarpus heptaphyllus|Lonchocarpus nicou|Lonchocarpus salvadorensis|Lonchocarpus unifoliolatus|Lonchocarpus utilis|Millettia dura|Millettia pachycarpa|Millettia taiwaniana|Muellera unifoliolata|Mundulea sericea|Pedicularis semitorta|Piscidia mollis|Piscidia piscipula|Scopolia japonica|Spiraea japonica|Tephrosia Purpurea|Tephrosia abbottiae|Tephrosia candida|Tephrosia elata|Tephrosia falciformis|Tephrosia fulvinervis|Tephrosia interrupta|Tephrosia interrupta Engl.|Tephrosia linearis|Tephrosia linearis (Willd.) Pers.|Tephrosia nitens|Tephrosia purpurea|Tephrosia strigosa|Tephrosia vogelii|Tricholoma panaeolum|derris malaccensis plain

>  <collections>  (1719) 
ANPDB|AfroDB|Australian natural products|CMAUP (cCollective molecular activities of useful plants)|ChEBI NPs|FooDB|InflamNat|KNApSaCK|Latin America dataset|NANPDB (Natural Products from Northern African Sources)|NPASS|NPEdia|NuBBEDB|Super Natural II|TCMDB-Taiwan (Traditional Chinese Medicine database)|TIPdb (database of Taiwan indigenous plants)|VietHerb|WikiData Natural Products|ZINC NP

>  <dois>  (1719) 
10.1002/(SICI)1521-4168(19980901)21:9<513::AID-JHRC513>3.0.CO,2-F|10.1016/0031-9422(84)83047-2|10.1016/0031-9422(85)80019-4|10.1016/0031-9422(89)80308-5|10.1016/J.PHYTOCHEM.2005.02.005|10.1016/S0031-9422(00)80349-0|10.1016/S0031-9422(00)80597-X|10.1016/S0031-9422(00)83511-6|10.1016/S0031-9422(00)88713-0|10.1016/S0031-9422(00)89755-1|10.1016/S0031-9422(00)90838-0|10.1016/S0031-9422(02)00078-X|10.1016/S0031-9422(97)00405-6|10.1016/j.phytochem.2012.02.025|10.1016/j.phytol.2009.01.002|10.1021/JF981188X|10.1021/NP010126P|10.1021/NP030554Q|10.1021/NP50044A013|10.1021/NP800383Q|10.1038/NM0395-260|10.1039/C39860000352|10.1039/C39860000353|10.1055/S-0028-1097406|10.1055/S-2004-815447|10.1055/S-2006-959591|10.1055/S-2006-961936|10.1073/PNAS.95.7.3380|10.1080/00021369.1980.10864439|10.1093/CHROMSCI/38.4.174|10.1139/V07-120|10.1248/CPB.54.1530|10.3987/COM-07-11214|10.7150/ijbs.17238

>  <synonyms>  (1719) 
(-)-Deguelin|(-)-Deguelin, >98% (HPLC), powder|(-)-Deguelin;(-)-cis-Deguelin|(-)-cis-deguelin|(1S,14S)-17,18-dimethoxy-7,7-dimethyl-2,8,21-trioxapentacyclo[12.8.0.03,12.04,9.015,20]docosa-3(12),4(9),5,10,15,17,19-heptaen-13-one|(7AS,13AS)-13,13A-DIHYDRO-9,10-DIMETHOXY-3,3-DIMETHYL-3H-(1)BENZOPYRANO(3,4-B)PYRANO(2,3-H)(1)BENZOPYRAN-7(7AH)-ONE|(7aS,13aS)-9,10-Dimethoxy-3,3-dimethyl-13,13a-dihydro-3H-pyrano[2,3-c:6,5-f']dichromen-7(7aH)-one|(7as,13as)-13,13a-dihydro-9,10-dimethoxy-3,3-dimethyl-3h-bis[1]benzopyrano[3,4-b:6',5'-e]pyran-7(7ah)-one|13,13aS-Dihydro-9,10-dimethoxy-3,3-dimethyl-3H-[1]benzopyrano[3,4-b]pyrano[2,3-h][1]benzopyran-7(7aS)-one|3H-Bis(1)benzopyrano(3,4-b:6',5'-e)pyran-7(7aH)-one, 13,13a-dihydro-9,10-dimethoxy-3,3-dimethyl-, (7aS-cis)-|3H-[1]Benzopyrano[3,4-b]pyrano[2,3-h][1]benzopyran-7(7aH)-one, 13,13a-dihydro-9,10-dimethoxy-3,3-dimethyl-, (7aS,13aS)-|522-17-8|AC-35505|AKOS024456769|AS-56004|BCP9000596|BDBM50505204|BRD-K61401890-001-02-0|BSPBio_002583|CCG-39856|CCRIS 8104|CHEBI:4357|CHEMBL393417|CS-1802|D5646|DEGUELIN [MI]|DEGUELIN(-)|DTXSID10200231|Deguelin|EX-A4158|HMS1923A05|HMS3268E12|HY-13425|K5Z93K66IE|KBio2_001524|KBio2_004092|KBio2_006660|KBio3_002083|KBioGR_002434|KBioSS_001524|LMPK12060019|Legumelin|Leguminosae|MFCD01740600|MLS006010295|NCGC00025288-01|Q5251862|SCHEMBL73183|SDCCGMLS-0066380.P001|SMR004701363|SPBio_000236|SPECTRUM201138|SR-01000597503|Spectrum2_000298|Spectrum3_001122|Spectrum4_001965|Spectrum5_001852|Spectrum_001044|Tocris-1770|UNII-K5Z93K66IE|deguelin|s8132

>  <cas>  (1719) 
522-17-8

$$$$

     RDKit          2D

 40 43  0  0  0  0  0  0  0  0999 V2000
   -8.7740   -6.1197    0.0000 C   0  0  0  0  0  0  0  0  0  0  0  0
   -7.8716   -4.9215    0.0000 C   0  0  0  0  0  0  0  0  0  0  0  0
   -6.3827   -5.1039    0.0000 C   0  0  0  0  0  0  0  0  0  0  0  0
   -5.7962   -6.4845    0.0000 C   0  0  0  0  0  0  0  0  0  0  0  0
   -5.4803   -3.9057    0.0000 C   0  0  0  0  0  0  0  0  0  0  0  0
   -6.0668   -2.5251    0.0000 C   0  0  0  0  0  0  0  0  0  0  0  0
   -5.1644   -1.3269    0.0000 C   0  0  0  0  0  0  0  0  0  0  0  0
   -5.7508    0.0537    0.0000 C   0  0  0  0  0  0  0  0  0  0  0  0
   -4.8484    1.2519    0.0000 C   0  0  0  0  0  0  0  0  0  0  0  0
   -5.4349    2.6325    0.0000 C   0  0  0  0  0  0  0  0  0  0  0  0
   -4.5325    3.8307    0.0000 C   0  0  0  0  0  0  0  0  0  0  0  0
   -5.1190    5.2113    0.0000 O   0  0  0  0  0  0  0  0  0  0  0  0
   -3.0436    3.6483    0.0000 C   0  0  0  0  0  0  0  0  0  0  0  0
   -3.4826    5.0826    0.0000 C   0  0  0  0  0  0  0  0  0  0  0  0
   -1.9118    4.6327    0.0000 O   0  0  0  0  0  0  0  0  0  0  0  0
   -0.6259    3.8605    0.0000 C   0  0  0  0  0  0  0  0  0  0  0  0
    0.7547    4.4469    0.0000 O   0  0  0  0  0  0  0  0  0  0  0  0
   -0.9629    2.3988    0.0000 C   0  0  0  0  0  0  0  0  0  0  0  0
    0.0215    1.2670    0.0000 C   0  0  0  0  0  0  0  0  0  0  0  0
   -0.4665   -0.1514    0.0000 O   0  0  0  0  0  0  0  0  0  0  0  0
    1.4938    1.5536    0.0000 C   0  0  0  0  0  0  0  0  0  0  0  0
    1.9818    2.9720    0.0000 C   0  0  0  0  0  0  0  0  0  0  0  0
    2.4782    0.4218    0.0000 C   0  0  0  0  0  0  0  0  0  0  0  0
    1.9903   -0.9966    0.0000 C   0  0  0  0  0  0  0  0  0  0  0  0
    3.9506    0.7084    0.0000 O   0  0  0  0  0  0  0  0  0  0  0  0
    4.9350   -0.4234    0.0000 C   0  0  0  0  0  0  0  0  0  0  0  0
    4.4470   -1.8418    0.0000 O   0  0  0  0  0  0  0  0  0  0  0  0
    6.4074   -0.1368    0.0000 C   0  0  0  0  0  0  0  0  0  0  0  0
    6.8953    1.2816    0.0000 O   0  0  0  0  0  0  0  0  0  0  0  0
    8.3677    1.5683    0.0000 C   0  0  0  0  0  0  0  0  0  0  0  0
    7.3918   -1.2686    0.0000 C   0  0  0  0  0  0  0  0  0  0  0  0
    6.9038   -2.6870    0.0000 C   0  0  0  0  0  0  0  0  0  0  0  0
    7.8882   -3.8188    0.0000 C   0  0  0  0  0  0  0  0  0  0  0  0
    9.3605   -3.5322    0.0000 C   0  0  0  0  0  0  0  0  0  0  0  0
    9.8485   -2.1138    0.0000 C   0  0  0  0  0  0  0  0  0  0  0  0
    8.8641   -0.9820    0.0000 C   0  0  0  0  0  0  0  0  0  0  0  0
   -2.4572    2.2677    0.0000 C   0  0  0  0  0  0  0  0  0  0  0  0
   -3.3596    1.0695    0.0000 C   0  0  0  0  0  0  0  0  0  0  0  0
   -2.7731   -0.3111    0.0000 C   0  0  0  0  0  0  0  0  0  0  0  0
   -3.6755   -1.5093    0.0000 O   0  0  0  0  0  0  0  0  0  0  0  0
  1  2  1  0
  2  3  1  0
  3  4  1  1
  3  5  1  0
  5  6  2  0
  6  7  1  0
  7  8  2  0
  8  9  1  0
  9 10  2  0
 10 11  1  0
 11 12  2  0
 11 13  1  0
 13 14  1  6
 13 15  1  0
 15 16  1  0
 16 17  2  0
 16 18  1  0
 18 19  1  0
 19 20  2  0
 19 21  1  0
 21 22  1  1
 21 23  1  0
 23 24  1  6
 23 25  1  0
 25 26  1  0
 26 27  2  0
 26 28  1  0
 28 29  1  1
 29 30  1  0
 28 31  1  0
 31 32  2  0
 32 33  1  0
 33 34  2  0
 34 35  1  0
 35 36  2  0
 18 37  2  0
 37 38  1  0
 38 39  2  0
 39 40  1  0
 40  7  1  0
 38  9  1  0
 37 13  1  0
 36 31  1  0
M  END
>  <identifier>  (1720) 
CNP0080403.1

>  <canonical_smiles>  (1720) 
CC[C@H](C)/C=C/C1=CC2=CC(=O)[C@@]3(C)OC(=O)C(C(=O)[C@@H](C)[C@@H](C)OC(=O)[C@@H](OC)C4=CC=CC=C4)=C3C2=CO1

>  <standard_inchi>  (1720) 
InChI=1S/C32H34O8/c1-7-18(2)13-14-23-15-22-16-25(33)32(5)27(24(22)17-38-23)26(30(35)40-32)28(34)19(3)20(4)39-31(36)29(37-6)21-11-9-8-10-12-21/h8-20,29H,7H2,1-6H3/b14-13+/t18-,19-,20+,29-,32+/m0/s1

>  <standard_inchi_key>  (1720) 
QZJDERIUMCEBDJ-SKANTBMTSA-N

>  <name>  (1720) 
nan

>  <iupac_name>  (1720) 
[(1~{R},2~{S})-3-[(6~{a}~{S})-6~{a}-methyl-3-[(~{E},3~{S})-3-methylpent-1-enyl]-6,8-dioxo-furo[2,3-h]isochromen-9-yl]-1,2-dimethyl-3-oxo-propyl] (2~{S})-2-methoxy-2-phenyl-acetate

>  <annotation_level>  (1720) 
4

>  <total_atom_count>  (1720) 
74

>  <heavy_atom_count>  (1720) 
40

>  <molecular_weight>  (1720) 
546.62

>  <exact_molecular_weight>  (1720) 
546.22537

>  <molecular_formula>  (1720) 
C32H34O8

>  <alogp>  (1720) 
5.03

>  <topological_polar_surface_area>  (1720) 
105.20

>  <rotatable_bond_count>  (1720) 
10

>  <hydrogen_bond_acceptors>  (1720) 
8

>  <hydrogen_bond_donors>  (1720) 
0

>  <hydrogen_bond_acceptors_lipinski>  (1720) 
8

>  <hydrogen_bond_donors_lipinski>  (1720) 
0

>  <lipinski_rule_of_five_violations>  (1720) 
2

>  <aromatic_rings_count>  (1720) 
1

>  <qed_drug_likeliness>  (1720) 
0.30

>  <formal_charge>  (1720) 
0

>  <fractioncsp3>  (1720) 
0.38

>  <number_of_minimal_rings>  (1720) 
4

>  <van_der_walls_volume>  (1720) 
nan

>  <contains_sugar>  (1720) 
False

>  <contains_ring_sugars>  (1720) 
False

>  <contains_linear_sugars>  (1720) 
False

>  <murcko_framework>  (1720) 
O1C=CC2=CCC3OCC(=C3C2=C1)CCCOCCc4ccccc4

>  <np_likeness>  (1720) 
2.00

>  <chemical_class>  (1720) 
Benzene and substituted derivatives

>  <chemical_sub_class>  (1720) 
Benzylethers

>  <chemical_super_class>  (1720) 
Benzenoids

>  <direct_parent_classification>  (1720) 
Benzylethers

>  <np_classifier_pathway>  (1720) 
Polyketides

>  <np_classifier_superclass>  (1720) 
Chromanes

>  <np_classifier_class>  (1720) 
Azaphilones

>  <np_classifier_is_glycoside>  (1720) 
False

>  <organisms>  (1720) 
Chaetomium globosum

>  <collections>  (1720) 
Latin America dataset|NuBBEDB|WikiData Natural Products

>  <dois>  (1720) 
10.1021/NP200110F|10.1021/np200110f

>  <synonyms>  (1720) 
(S)-MPA-chaetoviridin H

>  <cas>  (1720) 
nan

$$$$

     RDKit          2D

 53 58  0  0  0  0  0  0  0  0999 V2000
    8.6896   -3.7533    0.0000 C   0  0  0  0  0  0  0  0  0  0  0  0
    7.2836   -3.2306    0.0000 C   0  0  0  0  0  0  0  0  0  0  0  0
    7.0333   -1.7516    0.0000 O   0  0  0  0  0  0  0  0  0  0  0  0
    5.6273   -1.2290    0.0000 C   0  0  0  0  0  0  0  0  0  0  0  0
    5.3769    0.2500    0.0000 O   0  0  0  0  0  0  0  0  0  0  0  0
    3.9709    0.7726    0.0000 C   0  0  0  0  0  0  0  0  0  0  0  0
    3.7206    2.2516    0.0000 C   0  0  0  0  0  0  0  0  0  0  0  0
    2.3146    2.7743    0.0000 O   0  0  0  0  0  0  0  0  0  0  0  0
    2.0642    4.2532    0.0000 C   0  0  0  0  0  0  0  0  0  0  0  0
    0.6582    4.7759    0.0000 O   0  0  0  0  0  0  0  0  0  0  0  0
   -0.4974    3.8196    0.0000 C   0  0  0  0  0  0  0  0  0  0  0  0
   -1.9034    4.3423    0.0000 C   0  0  0  0  0  0  0  0  0  0  0  0
   -2.1538    5.8212    0.0000 O   0  0  0  0  0  0  0  0  0  0  0  0
   -3.0591    3.3860    0.0000 C   0  0  0  0  0  0  0  0  0  0  0  0
   -4.4650    3.9087    0.0000 O   0  0  0  0  0  0  0  0  0  0  0  0
   -2.8087    1.9070    0.0000 C   0  0  0  0  0  0  0  0  0  0  0  0
   -3.9643    0.9507    0.0000 O   0  0  0  0  0  0  0  0  0  0  0  0
   -3.7140   -0.5282    0.0000 C   0  0  0  0  0  0  0  0  0  0  0  0
   -4.8696   -1.4845    0.0000 C   0  0  0  0  0  0  0  0  0  0  0  0
   -6.2756   -0.9618    0.0000 C   0  0  0  0  0  0  0  0  0  0  0  0
   -6.5260    0.5171    0.0000 C   0  0  0  0  0  0  0  0  0  0  0  0
   -7.9320    1.0398    0.0000 C   0  0  0  0  0  0  0  0  0  0  0  0
   -9.0876    0.0835    0.0000 C   0  0  0  0  0  0  0  0  0  0  0  0
  -10.4936    0.6062    0.0000 O   0  0  0  0  0  0  0  0  0  0  0  0
   -8.8373   -1.3955    0.0000 C   0  0  0  0  0  0  0  0  0  0  0  0
   -7.4313   -1.9181    0.0000 C   0  0  0  0  0  0  0  0  0  0  0  0
   -4.6193   -2.9635    0.0000 O   0  0  0  0  0  0  0  0  0  0  0  0
   -3.2133   -3.4861    0.0000 C   0  0  0  0  0  0  0  0  0  0  0  0
   -2.9629   -4.9651    0.0000 C   0  0  0  0  0  0  0  0  0  0  0  0
   -1.5569   -5.4878    0.0000 C   0  0  0  0  0  0  0  0  0  0  0  0
   -1.3066   -6.9667    0.0000 O   0  0  0  0  0  0  0  0  0  0  0  0
   -0.4013   -4.5315    0.0000 C   0  0  0  0  0  0  0  0  0  0  0  0
   -0.6516   -3.0525    0.0000 C   0  0  0  0  0  0  0  0  0  0  0  0
    0.5040   -2.0962    0.0000 O   0  0  0  0  0  0  0  0  0  0  0  0
   -2.0576   -2.5299    0.0000 C   0  0  0  0  0  0  0  0  0  0  0  0
   -2.3080   -1.0509    0.0000 C   0  0  0  0  0  0  0  0  0  0  0  0
   -1.1524   -0.0946    0.0000 O   0  0  0  0  0  0  0  0  0  0  0  0
   -1.4027    1.3844    0.0000 O   0  0  0  0  0  0  0  0  0  0  0  0
   -0.2471    2.3407    0.0000 C   0  0  0  0  0  0  0  0  0  0  0  0
    1.1589    1.8180    0.0000 C   0  0  0  0  0  0  0  0  0  0  0  0
    1.4093    0.3390    0.0000 O   0  0  0  0  0  0  0  0  0  0  0  0
    3.2199    5.2095    0.0000 C   0  0  0  0  0  0  0  0  0  0  0  0
    2.9695    6.6885    0.0000 O   0  0  0  0  0  0  0  0  0  0  0  0
    4.6259    4.6869    0.0000 C   0  0  0  0  0  0  0  0  0  0  0  0
    5.7815    5.6432    0.0000 O   0  0  0  0  0  0  0  0  0  0  0  0
    4.8762    3.2079    0.0000 C   0  0  0  0  0  0  0  0  0  0  0  0
    6.2822    2.6852    0.0000 O   0  0  0  0  0  0  0  0  0  0  0  0
    4.4716   -2.1853    0.0000 C   0  0  0  0  0  0  0  0  0  0  0  0
    3.0656   -1.6626    0.0000 O   0  0  0  0  0  0  0  0  0  0  0  0
    4.7220   -3.6642    0.0000 C   0  0  0  0  0  0  0  0  0  0  0  0
    3.5663   -4.6205    0.0000 O   0  0  0  0  0  0  0  0  0  0  0  0
    6.1280   -4.1869    0.0000 C   0  0  0  0  0  0  0  0  0  0  0  0
    6.3783   -5.6659    0.0000 O   0  0  0  0  0  0  0  0  0  0  0  0
  2  1  1  1
  2  3  1  0
  3  4  1  0
  4  5  1  6
  5  6  1  0
  7  6  1  6
  7  8  1  0
  8  9  1  0
  9 10  1  1
 11 10  1  6
 11 12  1  0
 12 13  1  1
 12 14  1  0
 14 15  1  6
 14 16  1  0
 16 17  1  1
 17 18  1  0
 18 19  2  0
 19 20  1  0
 20 21  2  0
 21 22  1  0
 22 23  2  0
 23 24  1  0
 23 25  1  0
 25 26  2  0
 19 27  1  0
 27 28  1  0
 28 29  2  0
 29 30  1  0
 30 31  1  0
 30 32  2  0
 32 33  1  0
 33 34  1  0
 33 35  2  0
 35 36  1  0
 36 37  2  0
 16 38  1  0
 38 39  1  0
 39 40  1  1
 40 41  1  0
  9 42  1  0
 42 43  1  6
 42 44  1  0
 44 45  1  6
 44 46  1  0
 46 47  1  1
  4 48  1  0
 48 49  1  1
 48 50  1  0
 50 51  1  1
 50 52  1  0
 52 53  1  6
 52  2  1  0
 46  7  1  0
 39 11  1  0
 36 18  1  0
 26 20  1  0
 35 28  1  0
M  END
>  <identifier>  (1721) 
CNP0080423.1

>  <canonical_smiles>  (1721) 
C[C@@H]1O[C@@H](OC[C@@H]2O[C@@H](O[C@H]3[C@H](O)[C@@H](O)[C@H](OC4=C(C5=CC=C(O)C=C5)OC5=CC(O)=CC(O)=C5C4=O)O[C@@H]3CO)[C@H](O)[C@H](O)[C@H]2O)[C@H](O)[C@H](O)[C@H]1O

>  <standard_inchi>  (1721) 
InChI=1S/C33H40O20/c1-10-19(38)22(41)25(44)31(48-10)47-9-17-20(39)23(42)26(45)32(51-17)52-29-16(8-34)50-33(27(46)24(29)43)53-30-21(40)18-14(37)6-13(36)7-15(18)49-28(30)11-2-4-12(35)5-3-11/h2-7,10,16-17,19-20,22-27,29,31-39,41-46H,8-9H2,1H3/t10-,16+,17-,19-,20-,22+,23+,24+,25+,26+,27+,29+,31+,32-,33-/m0/s1

>  <standard_inchi_key>  (1721) 
ROHKXIYITDSHAJ-GZMWNWTGSA-N

>  <name>  (1721) 
nan

>  <iupac_name>  (1721) 
3-[(2~{S},3~{R},4~{R},5~{S},6~{R})-3,4-dihydroxy-6-(hydroxymethyl)-5-[(2~{S},3~{R},4~{R},5~{R},6~{S})-3,4,5-trihydroxy-6-[[(2~{R},3~{R},4~{R},5~{R},6~{S})-3,4,5-trihydroxy-6-methyl-tetrahydropyran-2-yl]oxymethyl]tetrahydropyran-2-yl]oxy-tetrahydropyran-2-yl]oxy-5,7-dihydroxy-2-(4-hydroxyphenyl)chromen-4-one

>  <annotation_level>  (1721) 
5

>  <total_atom_count>  (1721) 
93

>  <heavy_atom_count>  (1721) 
53

>  <molecular_weight>  (1721) 
756.66

>  <exact_molecular_weight>  (1721) 
756.21129

>  <molecular_formula>  (1721) 
C33H40O20

>  <alogp>  (1721) 
-3.57

>  <topological_polar_surface_area>  (1721) 
328.35

>  <rotatable_bond_count>  (1721) 
9

>  <hydrogen_bond_acceptors>  (1721) 
20

>  <hydrogen_bond_donors>  (1721) 
12

>  <hydrogen_bond_acceptors_lipinski>  (1721) 
20

>  <hydrogen_bond_donors_lipinski>  (1721) 
12

>  <lipinski_rule_of_five_violations>  (1721) 
3

>  <aromatic_rings_count>  (1721) 
3

>  <qed_drug_likeliness>  (1721) 
0.10

>  <formal_charge>  (1721) 
0

>  <fractioncsp3>  (1721) 
0.55

>  <number_of_minimal_rings>  (1721) 
6

>  <van_der_walls_volume>  (1721) 
617.53

>  <contains_sugar>  (1721) 
True

>  <contains_ring_sugars>  (1721) 
True

>  <contains_linear_sugars>  (1721) 
False

>  <murcko_framework>  (1721) 
O1c2ccccc2CC(OC3OCC(OC4OC(COC5OCCCC5)CCC4)CC3)=C1c6ccccc6

>  <np_likeness>  (1721) 
1.93

>  <chemical_class>  (1721) 
Flavonoids

>  <chemical_sub_class>  (1721) 
Flavonoid glycosides

>  <chemical_super_class>  (1721) 
Phenylpropanoids and polyketides

>  <direct_parent_classification>  (1721) 
Flavonoid-3-O-glycosides

>  <np_classifier_pathway>  (1721) 
Shikimates and Phenylpropanoids

>  <np_classifier_superclass>  (1721) 
Flavonoids

>  <np_classifier_class>  (1721) 
Flavonols

>  <np_classifier_is_glycoside>  (1721) 
True

>  <organisms>  (1721) 
Chimarrhis turbinata

>  <collections>  (1721) 
ChemSpider NPs|Latin America dataset|NuBBEDB|WikiData Natural Products|ZINC NP

>  <dois>  (1721) 
10.1590/S0103-50532005000800008

>  <synonyms>  (1721) 
Kaempferol-3-O-\u221a\u00e9\u00ac\u00b1-L-rhamnopyranosyl-(1-6)-\u221a\u00e9\u00ac\u00b1-L-rhamnopyranosyl-(1-4)-\u221a\u00e9\u00ac\u2264-D-glucopyranoside

>  <cas>  (1721) 
nan

$$$$

     RDKit          2D

 36 40  0  0  0  0  0  0  0  0999 V2000
    5.7132   -4.5869    0.0000 C   0  0  0  0  0  0  0  0  0  0  0  0
    5.8005   -3.0894    0.0000 O   0  0  0  0  0  0  0  0  0  0  0  0
    4.5472   -2.2651    0.0000 C   0  0  0  0  0  0  0  0  0  0  0  0
    3.2068   -2.9383    0.0000 O   0  0  0  0  0  0  0  0  0  0  0  0
    4.6345   -0.7677    0.0000 C   0  0  0  0  0  0  0  0  0  0  0  0
    6.0940   -1.1136    0.0000 C   0  0  0  0  0  0  0  0  0  0  0  0
    3.1446   -0.9418    0.0000 C   0  0  0  0  0  0  0  0  0  0  0  0
    2.2489    0.2614    0.0000 C   0  0  0  0  0  0  0  0  0  0  0  0
    2.8430    1.6387    0.0000 C   0  0  0  0  0  0  0  0  0  0  0  0
    3.4371    3.0160    0.0000 C   0  0  0  0  0  0  0  0  0  0  0  0
    1.9473    2.8419    0.0000 C   0  0  0  0  0  0  0  0  0  0  0  0
    0.4574    2.6678    0.0000 C   0  0  0  0  0  0  0  0  0  0  0  0
   -0.4383    3.8710    0.0000 C   0  0  0  0  0  0  0  0  0  0  0  0
   -0.1367    1.2905    0.0000 C   0  0  0  0  0  0  0  0  0  0  0  0
   -1.6266    1.1163    0.0000 C   0  0  0  0  0  0  0  0  0  0  0  0
   -2.5223    2.3195    0.0000 C   0  0  0  0  0  0  0  0  0  0  0  0
   -4.0122    2.1454    0.0000 C   0  0  0  0  0  0  0  0  0  0  0  0
   -4.6063    0.7681    0.0000 C   0  0  0  0  0  0  0  0  0  0  0  0
   -3.7106   -0.4351    0.0000 C   0  0  0  0  0  0  0  0  0  0  0  0
   -4.3047   -1.8125    0.0000 C   0  0  0  0  0  0  0  0  0  0  0  0
   -5.7946   -1.9866    0.0000 C   0  0  0  0  0  0  0  0  0  0  0  0
   -6.3887   -3.3639    0.0000 O   0  0  0  0  0  0  0  0  0  0  0  0
   -6.6903   -0.7834    0.0000 C   0  0  0  0  0  0  0  0  0  0  0  0
   -8.1801   -0.9575    0.0000 O   0  0  0  0  0  0  0  0  0  0  0  0
   -6.0962    0.5939    0.0000 C   0  0  0  0  0  0  0  0  0  0  0  0
   -6.9919    1.7971    0.0000 C   0  0  0  0  0  0  0  0  0  0  0  0
   -2.2207   -0.2610    0.0000 C   0  0  0  0  0  0  0  0  0  0  0  0
   -2.8148   -1.6383    0.0000 C   0  0  0  0  0  0  0  0  0  0  0  0
   -1.3250   -1.4642    0.0000 C   0  0  0  0  0  0  0  0  0  0  0  0
    0.1649   -1.2901    0.0000 C   0  0  0  0  0  0  0  0  0  0  0  0
    0.7590    0.0873    0.0000 C   0  0  0  0  0  0  0  0  0  0  0  0
    1.6547   -1.1159    0.0000 C   0  0  0  0  0  0  0  0  0  0  0  0
    4.3329    1.8128    0.0000 C   0  0  0  0  0  0  0  0  0  0  0  0
    4.9270    3.1902    0.0000 O   0  0  0  0  0  0  0  0  0  0  0  0
    5.2286    0.6097    0.0000 C   0  0  0  0  0  0  0  0  0  0  0  0
    6.7184    0.7838    0.0000 O   0  0  0  0  0  0  0  0  0  0  0  0
  1  2  1  0
  2  3  1  0
  3  4  2  0
  3  5  1  0
  5  6  1  6
  5  7  1  0
  8  7  1  1
  8  9  1  0
  9 10  1  6
  9 11  1  0
 11 12  1  0
 12 13  1  0
 12 14  2  0
 14 15  1  0
 15 16  2  0
 16 17  1  0
 17 18  2  0
 18 19  1  0
 19 20  2  0
 20 21  1  0
 21 22  2  0
 21 23  1  0
 23 24  1  0
 23 25  2  0
 25 26  1  0
 19 27  1  0
 27 28  1  6
 27 29  1  0
 29 30  1  0
 30 31  1  0
 31 32  1  1
  9 33  1  0
 33 34  1  6
 33 35  1  0
 35 36  1  6
 35  5  1  0
 31  8  1  0
 31 14  1  0
 27 15  1  0
 25 18  1  0
M  END
>  <identifier>  (1722) 
CNP0144120.1

>  <canonical_smiles>  (1722) 
COC(=O)[C@@]1(C)C[C@@H]2[C@@](C)(CC(C)=C3C4=CC=C5C(=CC(=O)C(O)=C5C)[C@]4(C)CC[C@]32C)[C@H](O)[C@@H]1O

>  <standard_inchi>  (1722) 
InChI=1S/C30H38O6/c1-15-13-29(5)21(14-30(6,26(35)36-7)25(34)24(29)33)28(4)11-10-27(3)18(22(15)28)9-8-17-16(2)23(32)20(31)12-19(17)27/h8-9,12,21,24-25,32-34H,10-11,13-14H2,1-7H3/t21-,24+,25-,27+,28-,29+,30-/m0/s1

>  <standard_inchi_key>  (1722) 
APGPWXZLGUDEGW-BTAXULIISA-N

>  <name>  (1722) 
Netzahualcoyondiol

>  <iupac_name>  (1722) 
methyl (2~{S},3~{R},4~{S},4~{a}~{R},6~{a}~{S},14~{a}~{S},14~{b}~{S})-3,4,10-trihydroxy-2,4~{a},6,6~{a},9,14~{a}-hexamethyl-11-oxo-3,4,5,13,14,14~{b}-hexahydro-1~{H}-picene-2-carboxylate

>  <annotation_level>  (1722) 
5

>  <total_atom_count>  (1722) 
74

>  <heavy_atom_count>  (1722) 
36

>  <molecular_weight>  (1722) 
494.63

>  <exact_molecular_weight>  (1722) 
494.26684

>  <molecular_formula>  (1722) 
C30H38O6

>  <alogp>  (1722) 
4.65

>  <topological_polar_surface_area>  (1722) 
104.06

>  <rotatable_bond_count>  (1722) 
1

>  <hydrogen_bond_acceptors>  (1722) 
6

>  <hydrogen_bond_donors>  (1722) 
3

>  <hydrogen_bond_acceptors_lipinski>  (1722) 
6

>  <hydrogen_bond_donors_lipinski>  (1722) 
3

>  <lipinski_rule_of_five_violations>  (1722) 
0

>  <aromatic_rings_count>  (1722) 
0

>  <qed_drug_likeliness>  (1722) 
0.46

>  <formal_charge>  (1722) 
0

>  <fractioncsp3>  (1722) 
0.60

>  <number_of_minimal_rings>  (1722) 
5

>  <van_der_walls_volume>  (1722) 
457.34

>  <contains_sugar>  (1722) 
False

>  <contains_ring_sugars>  (1722) 
False

>  <contains_linear_sugars>  (1722) 
False

>  <murcko_framework>  (1722) 
C=1C=C2C3=CCC4CCCCC4C3CCC2C5=CCC=CC15

>  <np_likeness>  (1722) 
2.91

>  <chemical_class>  (1722) 
Steroids and steroid derivatives

>  <chemical_sub_class>  (1722) 
Hydroxysteroids

>  <chemical_super_class>  (1722) 
Lipids and lipid-like molecules

>  <direct_parent_classification>  (1722) 
3-hydroxysteroids

>  <np_classifier_pathway>  (1722) 
Terpenoids

>  <np_classifier_superclass>  (1722) 
Triterpenoids

>  <np_classifier_class>  (1722) 
nan

>  <np_classifier_is_glycoside>  (1722) 
False

>  <organisms>  (1722) 
Cheiloclinium cognatum|Orthosphenia mexicana

>  <collections>  (1722) 
ChemSpider NPs|KNApSaCK|Latin America dataset|NuBBEDB|Super Natural II|WikiData Natural Products|ZINC NP

>  <dois>  (1722) 
10.1002/CHIN.198821298|10.1016/0031-9422(88)83123-6|10.1016/J.PHYTOCHEM.2004.03.039|10.1016/j.phytochem.2004.03.039|10.1021/NP50066A028

>  <synonyms>  (1722) 
113579-08-1|AKOS040753255|D:A-Friedo-24,26-dinoroleana-1(10),3,5,7,14-pentaen-29-oic acid, 3,21,22-trihydroxy-15-methyl-2-oxo-, methyl ester, (20alpha,21beta,22beta)-|Netzahualcoyondiol|methyl (2S,3R,4S,4aR,6aS,14aS,14bS)-3,4,10-trihydroxy-2,4a,6,6a,9,14a-hexamethyl-11-oxo-3,4,5,13,14,14b-hexahydro-1H-picene-2-carboxylate

>  <cas>  (1722) 
113579-08-1

$$$$

     RDKit          2D

 36 40  0  0  0  0  0  0  0  0999 V2000
    5.5548   -4.6275    0.0000 C   0  0  0  0  0  0  0  0  0  0  0  0
    4.2352   -3.9143    0.0000 O   0  0  0  0  0  0  0  0  0  0  0  0
    4.1931   -2.4149    0.0000 C   0  0  0  0  0  0  0  0  0  0  0  0
    5.4705   -1.6287    0.0000 O   0  0  0  0  0  0  0  0  0  0  0  0
    2.8735   -1.7017    0.0000 C   0  0  0  0  0  0  0  0  0  0  0  0
    2.8314   -0.2023    0.0000 C   0  0  0  0  0  0  0  0  0  0  0  0
    4.1088    0.5839    0.0000 C   0  0  0  0  0  0  0  0  0  0  0  0
    4.6612   -0.8107    0.0000 C   0  0  0  0  0  0  0  0  0  0  0  0
    5.5781    0.8858    0.0000 C   0  0  0  0  0  0  0  0  0  0  0  0
    4.0667    2.0833    0.0000 C   0  0  0  0  0  0  0  0  0  0  0  0
    5.3441    2.8695    0.0000 O   0  0  0  0  0  0  0  0  0  0  0  0
    2.7471    2.7965    0.0000 C   0  0  0  0  0  0  0  0  0  0  0  0
    1.4696    2.0103    0.0000 C   0  0  0  0  0  0  0  0  0  0  0  0
    0.1697    2.0238    0.0000 O   0  0  0  0  0  0  0  0  0  0  0  0
   -0.5116    1.6045    0.0000 C   0  0  0  0  0  0  0  0  0  0  0  0
   -2.5967    1.6355    0.0000 C   0  0  0  0  0  0  0  0  0  0  0  0
   -1.6798    3.3319    0.0000 O   0  0  0  0  0  0  0  0  0  0  0  0
   -1.0853    0.4380    0.0000 C   0  0  0  0  0  0  0  0  0  0  0  0
    0.2343   -0.2752    0.0000 C   0  0  0  0  0  0  0  0  0  0  0  0
   -0.0362   -1.7507    0.0000 C   0  0  0  0  0  0  0  0  0  0  0  0
   -1.5230   -1.9493    0.0000 C   0  0  0  0  0  0  0  0  0  0  0  0
   -2.1714   -0.5966    0.0000 C   0  0  0  0  0  0  0  0  0  0  0  0
   -3.1434   -1.7391    0.0000 C   0  0  0  0  0  0  0  0  0  0  0  0
   -3.6104   -0.1734    0.0000 C   0  0  0  0  0  0  0  0  0  0  0  0
   -4.6965   -1.2080    0.0000 C   0  0  0  0  0  0  0  0  0  0  0  0
   -4.4979   -2.6948    0.0000 C   0  0  0  0  0  0  0  0  0  0  0  0
   -5.8505   -3.3431    0.0000 O   0  0  0  0  0  0  0  0  0  0  0  0
   -6.8851   -2.2570    0.0000 C   0  0  0  0  0  0  0  0  0  0  0  0
   -6.1719   -0.9374    0.0000 C   0  0  0  0  0  0  0  0  0  0  0  0
   -3.9634    1.2845    0.0000 O   0  0  0  0  0  0  0  0  0  0  0  0
   -2.8773    2.3191    0.0000 C   0  0  0  0  0  0  0  0  0  0  0  0
   -3.2302    3.7770    0.0000 O   0  0  0  0  0  0  0  0  0  0  0  0
   -1.4382    1.8959    0.0000 C   0  0  0  0  0  0  0  0  0  0  0  0
   -0.6348    3.1625    0.0000 O   0  0  0  0  0  0  0  0  0  0  0  0
    1.5118    0.5109    0.0000 C   0  0  0  0  0  0  0  0  0  0  0  0
    1.5539   -0.9885    0.0000 C   0  0  0  0  0  0  0  0  0  0  0  0
  1  2  1  0
  2  3  1  0
  3  4  2  0
  3  5  1  0
  6  5  1  6
  6  7  1  0
  7  8  1  0
  7  9  1  0
  7 10  1  0
 10 11  2  0
 10 12  1  0
 12 13  2  0
 13 14  1  0
 14 15  1  0
 15 16  1  6
 15 17  1  0
 15 18  1  0
 18 19  1  1
 19 20  2  0
 20 21  1  0
 21 22  1  0
 22 23  1  6
 22 24  1  0
 24 25  1  6
 25 26  2  0
 26 27  1  0
 27 28  1  0
 28 29  2  0
 24 30  1  0
 30 31  1  0
 31 32  2  0
 31 33  1  0
 33 34  1  6
 19 35  1  0
 35 36  1  6
 35  6  1  0
 35 13  1  0
 22 18  1  0
 29 25  1  0
 33 18  1  0
M  END
>  <identifier>  (1723) 
CNP0080565.1

>  <canonical_smiles>  (1723) 
COC(=O)C[C@H]1C(C)(C)C(=O)C=C2O[C@](C)(O)[C@]34C(=CC[C@@]3(C)[C@H](C3=COC=C3)OC(=O)[C@@H]4O)[C@@]21C

>  <standard_inchi>  (1723) 
InChI=1S/C27H32O9/c1-23(2)16(11-19(29)33-6)25(4)15-7-9-24(3)21(14-8-10-34-13-14)35-22(31)20(30)27(15,24)26(5,32)36-18(25)12-17(23)28/h7-8,10,12-13,16,20-21,30,32H,9,11H2,1-6H3/t16-,20-,21-,24-,25+,26-,27-/m0/s1

>  <standard_inchi_key>  (1723) 
ZQNPCPJQKGDUCI-VMLVFVTNSA-N

>  <name>  (1723) 
methyl 2-(3-furyl-dihydroxy-pentamethyl-dioxo-[?]yl)acetate

>  <iupac_name>  (1723) 
methyl 2-[(1~{R},2~{S},8~{R},9~{S},13~{R},14~{R},17~{R})-14-(3-furyl)-2,17-dihydroxy-2,7,7,9,13-pentamethyl-6,16-dioxo-3,15-dioxatetracyclo[8.7.0.0^{1,13}.0^{4,9}]heptadeca-4,10-dien-8-yl]acetate

>  <annotation_level>  (1723) 
5

>  <total_atom_count>  (1723) 
68

>  <heavy_atom_count>  (1723) 
36

>  <molecular_weight>  (1723) 
500.54

>  <exact_molecular_weight>  (1723) 
500.20463

>  <molecular_formula>  (1723) 
C27H32O9

>  <alogp>  (1723) 
2.98

>  <topological_polar_surface_area>  (1723) 
132.50

>  <rotatable_bond_count>  (1723) 
3

>  <hydrogen_bond_acceptors>  (1723) 
9

>  <hydrogen_bond_donors>  (1723) 
2

>  <hydrogen_bond_acceptors_lipinski>  (1723) 
9

>  <hydrogen_bond_donors_lipinski>  (1723) 
2

>  <lipinski_rule_of_five_violations>  (1723) 
1

>  <aromatic_rings_count>  (1723) 
1

>  <qed_drug_likeliness>  (1723) 
0.47

>  <formal_charge>  (1723) 
0

>  <fractioncsp3>  (1723) 
0.59

>  <number_of_minimal_rings>  (1723) 
5

>  <van_der_walls_volume>  (1723) 
nan

>  <contains_sugar>  (1723) 
False

>  <contains_ring_sugars>  (1723) 
False

>  <contains_linear_sugars>  (1723) 
False

>  <murcko_framework>  (1723) 
o1ccc(c1)C2OCCC34C(=CCC23)C5C(OC4)=CCCC5

>  <np_likeness>  (1723) 
2.43

>  <chemical_class>  (1723) 
Oxocins

>  <chemical_sub_class>  (1723) 
Oxocins

>  <chemical_super_class>  (1723) 
Organoheterocyclic compounds

>  <direct_parent_classification>  (1723) 
Oxocins

>  <np_classifier_pathway>  (1723) 
Terpenoids

>  <np_classifier_superclass>  (1723) 
Triterpenoids

>  <np_classifier_class>  (1723) 
Limonoids

>  <np_classifier_is_glycoside>  (1723) 
True

>  <organisms>  (1723) 
Hortia oreadica|Hortia superba

>  <collections>  (1723) 
Latin America dataset|NuBBEDB|WikiData Natural Products

>  <dois>  (1723) 
10.1016/j.phytochem.2011.12.016|10.3390/MOLECULES190812031|10.3390/molecules190812031

>  <synonyms>  (1723) 
hortiolide D

>  <cas>  (1723) 
nan

$$$$

     RDKit          2D

 15 15  0  0  0  0  0  0  0  0999 V2000
    1.5153   -3.3139    0.0000 C   0  0  0  0  0  0  0  0  0  0  0  0
    2.1034   -1.9340    0.0000 C   0  0  0  0  0  0  0  0  0  0  0  0
    1.2024   -0.7347    0.0000 C   0  0  0  0  0  0  0  0  0  0  0  0
    2.5399   -0.0557    0.0000 C   0  0  0  0  0  0  0  0  0  0  0  0
    0.1778   -1.8303    0.0000 C   0  0  0  0  0  0  0  0  0  0  0  0
   -1.2832   -1.4907    0.0000 C   0  0  0  0  0  0  0  0  0  0  0  0
   -1.7197   -0.0556    0.0000 C   0  0  0  0  0  0  0  0  0  0  0  0
   -3.1807    0.2840    0.0000 C   0  0  0  0  0  0  0  0  0  0  0  0
   -3.6172    1.7191    0.0000 C   0  0  0  0  0  0  0  0  0  0  0  0
   -4.2053   -0.8116    0.0000 C   0  0  0  0  0  0  0  0  0  0  0  0
   -0.6951    1.0399    0.0000 C   0  0  0  0  0  0  0  0  0  0  0  0
    0.7660    0.7004    0.0000 C   0  0  0  0  0  0  0  0  0  0  0  0
    1.7906    1.7959    0.0000 C   0  0  0  0  0  0  0  0  0  0  0  0
    1.3541    3.2310    0.0000 C   0  0  0  0  0  0  0  0  0  0  0  0
    3.2516    1.4563    0.0000 C   0  0  0  0  0  0  0  0  0  0  0  0
  1  2  2  0
  2  3  1  0
  3  4  1  6
  3  5  1  0
  5  6  1  0
  6  7  1  0
  7  8  1  0
  8  9  1  0
  8 10  1  0
  7 11  2  0
 11 12  1  0
 12 13  1  6
 13 14  2  0
 13 15  1  0
 12  3  1  0
M  END
>  <identifier>  (1724) 
CNP0312384.5

>  <canonical_smiles>  (1724) 
C=C[C@@]1(C)CCC(C(C)C)=C[C@@H]1C(=C)C

>  <standard_inchi>  (1724) 
InChI=1S/C15H24/c1-7-15(6)9-8-13(11(2)3)10-14(15)12(4)5/h7,10-11,14H,1,4,8-9H2,2-3,5-6H3/t14-,15+/m1/s1

>  <standard_inchi_key>  (1724) 
MXDMETWAEGIFOE-CABCVRRESA-N

>  <name>  (1724) 
delta-Elemene

>  <iupac_name>  (1724) 
(3~{R},4~{R})-3-isopropenyl-1-isopropyl-4-methyl-4-vinyl-cyclohexene

>  <annotation_level>  (1724) 
5

>  <total_atom_count>  (1724) 
39

>  <heavy_atom_count>  (1724) 
15

>  <molecular_weight>  (1724) 
204.36

>  <exact_molecular_weight>  (1724) 
204.1878

>  <molecular_formula>  (1724) 
C15H24

>  <alogp>  (1724) 
4.75

>  <topological_polar_surface_area>  (1724) 
0.00

>  <rotatable_bond_count>  (1724) 
3

>  <hydrogen_bond_acceptors>  (1724) 
0

>  <hydrogen_bond_donors>  (1724) 
0

>  <hydrogen_bond_acceptors_lipinski>  (1724) 
0

>  <hydrogen_bond_donors_lipinski>  (1724) 
0

>  <lipinski_rule_of_five_violations>  (1724) 
0

>  <aromatic_rings_count>  (1724) 
0

>  <qed_drug_likeliness>  (1724) 
0.58

>  <formal_charge>  (1724) 
0

>  <fractioncsp3>  (1724) 
0.60

>  <number_of_minimal_rings>  (1724) 
1

>  <van_der_walls_volume>  (1724) 
229.61

>  <contains_sugar>  (1724) 
False

>  <contains_ring_sugars>  (1724) 
False

>  <contains_linear_sugars>  (1724) 
False

>  <murcko_framework>  (1724) 
C1=CCCCC1

>  <np_likeness>  (1724) 
2.92

>  <chemical_class>  (1724) 
Prenol lipids

>  <chemical_sub_class>  (1724) 
Sesquiterpenoids

>  <chemical_super_class>  (1724) 
Lipids and lipid-like molecules

>  <direct_parent_classification>  (1724) 
Sesquiterpenoids

>  <np_classifier_pathway>  (1724) 
Terpenoids

>  <np_classifier_superclass>  (1724) 
Sesquiterpenoids

>  <np_classifier_class>  (1724) 
Elemane sesquiterpenoids

>  <np_classifier_is_glycoside>  (1724) 
False

>  <organisms>  (1724) 
Abrus pulchellus|Acorus calamus|Aguacate|Aiouea costaricensis|Alisma orientale|Aloysia citriodora|Aloysia citrodora|Aloysia triphylla|Alpinia conchigera|Alpinia latilabris|Anastrophyllum auritum|Angelica archangelica|Apium graveolens|Aristolochia birostris|Aristolochia cymbifera|Aristolochia gigantea|Aristolochia macroura|Aristolochia triangularis|Artabotrys lastoursvillensis|Artemisia Annua|Artemisia annua|Artemisia argyi|Artemisia vulgaris|Asarum epigynum|Atalantia buxifolia|Azadirachta indica|Baccharis dracunculifolia|Beilschmiedia pendula|Bidens bipinnata|Bitter bush|Callicarpa japonica|Cantinoa mutabilis|Chamaecyparis lawsoniana|Chamomilla recutita|Chukrasia tabularis|Cinnamomum camphora|Citrus Aurantifolia|Citrus Hystrix|Citrus aurantifolia|Citrus hystrix|Citrus medica|Citrus reticulata|Citrus sunki|Citrus unshiu|Citrus × deliciosa|Clausena excavata|Commiphora holtziana|Commiphora kataf|Commiphora myrrha|Conyza incana|Croton adenocalyx|Croton jacobinensis|Croton micans|Croton nepetifolius|Curcuma amada|Curcuma amanda Roxb|Curcuma aromatica|Curcuma xanthorrhiza|Curcuma zedoaria|Dacrydium cupressinum|Daucus carota|Dendropanax trifidus|Dysoxylum fraseranum|Eremanthus arboreus|Eucalyptus angulosa|Eucalyptus behriana|Eucalyptus ceratocorys|Eucalyptus cuprea|Eucalyptus dolichorhyncha|Eucalyptus fasciculosa|Eucalyptus forrestiana|Eucalyptus incrassata|Eucalyptus intertexta|Eucalyptus lansdowneana|Eucalyptus leucoxylon|Eucalyptus melanophloia|Eucalyptus ochrophloia|Eucalyptus odorata|Eucalyptus populnea|Eucalyptus porosa|Eucalyptus sparsa|Eucalyptus stoatei|Eucalyptus tetraptera|Eucalyptus viridis|Eugenia uniflora|Eupatorium capillifolium|Frullania probosciphora|Frullania pycnantha|Grindelia hirsutula|Heteroscyphus aselliformis|Heterotropa|Hyptis mutabilis|Hyptis suaveolens|Kumquat|Larix sibirica|Launea|Lavandula angustifolia|Lepidozia fauriana|Lepidozia vitrea|Magnolia balansae|Marchantia quadrata|Matricaria chamomilla|Melaleuca globifera|Melaleuca leucadendra|Mikania banisteriae|Mikania congesta|Mikania cordifolia|Mikania parviflora|Murraya exotica|Murraya paniculata|Ocimum gratissimum|Ocotea austinii|Origanum cordifolium|Panax ginseng|Pectis brevipedunculata|Pelargonium endlicherianum|Perilla frutescens|Persea tolimanensis|Persicaria hydropiperoides|Persicaria minor|Petasites albus|Phania cajalbanica|Pinus halepensis|Pinus sylvestris|Piper augustum|Piper auritum|Piper fimbriulatum|Piper marginatum|Piper nigrum|Plagiochila pulcherrima|Platycladus orientalis|Podachaenium eminens|Polygala senega|Polygonum Minus|Polygonum minus|Preissia quadrata|Protium heptaphyllum|Prumnopitys andina|Prumnopitys ferruginoides|Prumnopitys taxifolia|Psiadia altissima|Rhanterium epapposum|Rhaponticum carthamoides|Rhizoma curcumae|Salvia sahendica|Schistochila aligera|Smallanthus maculatus|Solanum agrimoniifolium|Solanum habrochaites|Solanum lycopersicum|Solanum pseudocapsicum|Solidago canadensis|Tagetes minuta|Thymus funkii|Thymus longiflorus|Thymus vulgaris|Trifoliate orange|Trigonella foenum-graecum|Uvaria narum|Valeriana officinalis|Virola surinamensis|Vitex megapotamica|West African Pepper|Xanthium orientale|Xanthium strumarium|Xylopia phloiodora|Xylopia sericea|Zingiber mioga|bellis perennis|common myrtle

>  <collections>  (1724) 
Australian natural products|CMAUP (cCollective molecular activities of useful plants)|ChEBI NPs|EMNPD|KNApSaCK|Latin America dataset|NAPRORE-CR|NPASS|NPEdia|NuBBEDB|Super Natural II|TCMDB-Taiwan (Traditional Chinese Medicine database)|TIPdb (database of Taiwan indigenous plants)|VietHerb|WikiData Natural Products|ZINC NP

>  <dois>  (1724) 
10.1002/(SICI)1099-1026(199601)11:1<15::AID-FFJ541>3.0.CO;2-H|10.1002/CBDV.201800531|10.1002/ECE3.5390|10.1002/FFJ.2730020106|10.1002/FFJ.2730090305|10.1002/FFJ.2730100408|10.1002/FFJ.2730100605|10.1002/FFJ.2730100609|10.1002/JSFA.6397|10.1002/PCA.2800060604|10.1002/ffj.2730030109|10.1002/ffj.2730050108|10.1007/BF00567053|10.1007/BF02269705|10.1007/S11418-007-0175-2|10.1016/0031-9422(88)80209-7|10.1016/0031-9422(91)83456-U|10.1016/0031-9422(95)00183-8|10.1016/0031-9422(96)00354-8|10.1016/0278-6915(94)90200-3|10.1016/0378-8741(91)90063-J|10.1016/J.CHROMA.2007.12.011|10.1016/J.FOODCHEM.2010.08.043|10.1016/J.FOODRES.2018.12.054|10.1016/J.INDCROP.2013.06.023|10.1016/J.INDCROP.2014.04.048|10.1016/J.PHYTOCHEM.2003.08.004|10.1016/J.PHYTOCHEM.2008.02.017|10.1016/J.PHYTOCHEM.2008.12.018|10.1016/J.PHYTOCHEM.2009.07.031|10.1016/S0021-9673(00)00231-4|10.1016/S0031-9422(00)80558-0|10.1016/S0031-9422(00)80600-7|10.1016/S0031-9422(00)80683-4|10.1016/S0031-9422(00)82471-1|10.1016/S0031-9422(00)83062-9|10.1016/S0031-9422(00)90359-5|10.1016/S0031-9422(01)00322-3|10.1016/S0031-9422(02)00207-8|10.1016/S0031-9422(02)00542-3|10.1016/S0031-9422(97)00324-5|10.1016/S0031-9422(97)00762-0|10.1016/S0367-326X(01)00367-7|10.1021/JF00035A029|10.1021/JF00046A030|10.1021/JF00083A001|10.1021/JF00087A036|10.1021/JF980108M|10.1021/JO040272A|10.1021/NP030475E|10.1021/NP50012A010|10.1021/NP50017A019|10.1021/NP50034A044|10.1021/NP50038A026|10.1021/NP50044A039|10.1021/NP50046A033|10.1021/np50017a019|10.1055/S-1999-14025|10.1055/S-2006-957488|10.1055/S-2006-959673|10.1055/S-2006-959674|10.1055/S-2006-960872|10.1055/S-2006-960930|10.1055/S-2007-969591|10.1080/0972060X.2005.10643413|10.1080/0972060X.2010.10643835|10.1080/0972060X.2014.895210|10.1080/10412905.1989.9697801|10.1080/10412905.1990.9697845|10.1080/10412905.1992.9698068|10.1080/10412905.1992.9698069|10.1080/10412905.1992.9698112|10.1080/10412905.1993.9698177|10.1080/10412905.1994.9698337|10.1080/10412905.1994.9698400|10.1080/10412905.1994.9698409|10.1080/10412905.1994.9698447|10.1080/10412905.1994.9699344|10.1080/10412905.1994.9699347|10.1080/10412905.1995.9698469|10.1080/10412905.1995.9698499|10.1080/10412905.1995.9698562|10.1080/10412905.1995.9698581|10.1080/10412905.1996.9700559|10.1080/10412905.1997.9700727|10.1080/10412905.1997.9700820|10.1080/10412905.1998.9700844|10.1080/10412905.1999.9701189|10.1080/10412905.2000.9699574|10.1080/10412905.2001.9699608|10.1080/10412905.2003.9698598|10.1080/10412905.2004.9698740|10.1080/10412905.2004.9698744|10.1080/10412905.2007.9699946|10.1080/10412905.2010.9700320|10.1080/10412905.2010.9700389|10.1080/10412905.2018.1431966|10.1080/14786419.2012.696258|10.1089/JMF.2006.230|10.1246/BCSJ.51.3395|10.1248/YAKUSHI1947.107.3_209|10.1271/BBB1961.55.1655|10.1515/ZNC-1984-7-803|10.1515/ZNC-1990-9-1023|10.1590/S0103-50532010000500012|10.17660/ACTAHORTIC.1999.500.11|10.17660/ACTAHORTIC.2005.679.1|10.2503/JJSHS.53.141|10.3109/13880209109082876|10.3166/SDA.22.249-264|10.3390/MOLECULES191119220|10.3390/MOLECULES21060814|10.3390/MOLECULES24234244|10.5650/JOS1956.31.151

>  <synonyms>  (1724) 
(1R,2R)-delta-elemene|(3R,4R)-4-ethenyl-4-methyl-1-propan-2-yl-3-prop-1-en-2-ylcyclohexene|(3R-trans)-4-ethenyl-4-methyl-3-(1-methylethenyl)-1-(1-methylethyl)-cyclohexene|(R,R)-1-isopropyl-4-methyl-3-(prop-1-en-2-yl)-4-vinylcyclohexene|11029-06-4|CHEBI:132830|Q63409802|\u221a\u00e9\u00ac\u00a5-Elemene|delta-Elemene|elemene

>  <cas>  (1724) 
11029-06-4

$$$$

     RDKit          2D

 14 13  0  0  0  0  0  0  0  0999 V2000
   -6.4952    0.7500    0.0000 C   0  0  0  0  0  0  0  0  0  0  0  0
   -5.1962   -0.0000    0.0000 C   0  0  0  0  0  0  0  0  0  0  0  0
   -5.1962   -1.5000    0.0000 O   0  0  0  0  0  0  0  0  0  0  0  0
   -3.8971    0.7500    0.0000 O   0  0  0  0  0  0  0  0  0  0  0  0
   -2.5981   -0.0000    0.0000 C   0  0  0  0  0  0  0  0  0  0  0  0
   -1.2990    0.7500    0.0000 C   0  0  0  0  0  0  0  0  0  0  0  0
    0.0000    0.0000    0.0000 C   0  0  0  0  0  0  0  0  0  0  0  0
    0.0000   -1.5000    0.0000 C   0  0  0  0  0  0  0  0  0  0  0  0
    1.2990    0.7500    0.0000 C   0  0  0  0  0  0  0  0  0  0  0  0
    2.5981    0.0000    0.0000 C   0  0  0  0  0  0  0  0  0  0  0  0
    3.8971    0.7500    0.0000 C   0  0  0  0  0  0  0  0  0  0  0  0
    5.1962    0.0000    0.0000 C   0  0  0  0  0  0  0  0  0  0  0  0
    6.4952    0.7500    0.0000 C   0  0  0  0  0  0  0  0  0  0  0  0
    5.1962   -1.5000    0.0000 C   0  0  0  0  0  0  0  0  0  0  0  0
  1  2  1  0
  2  3  2  0
  2  4  1  0
  4  5  1  0
  5  6  1  0
  6  7  2  0
  7  8  1  0
  7  9  1  0
  9 10  1  0
 10 11  1  0
 11 12  2  0
 12 13  1  0
 12 14  1  0
M  END
>  <identifier>  (1725) 
CNP0301697.2

>  <canonical_smiles>  (1725) 
CC(=O)OC/C=C(\C)CCC=C(C)C

>  <standard_inchi>  (1725) 
InChI=1S/C12H20O2/c1-10(2)6-5-7-11(3)8-9-14-12(4)13/h6,8H,5,7,9H2,1-4H3/b11-8+

>  <standard_inchi_key>  (1725) 
HIGQPQRQIQDZMP-DHZHZOJOSA-N

>  <name>  (1725) 
GERANYL ACETATE

>  <iupac_name>  (1725) 
[(2E)-3,7-dimethylocta-2,6-dienyl] acetate

>  <annotation_level>  (1725) 
0

>  <total_atom_count>  (1725) 
34

>  <heavy_atom_count>  (1725) 
14

>  <molecular_weight>  (1725) 
196.29

>  <exact_molecular_weight>  (1725) 
196.14633

>  <molecular_formula>  (1725) 
C12H20O2

>  <alogp>  (1725) 
3.24

>  <topological_polar_surface_area>  (1725) 
26.30

>  <rotatable_bond_count>  (1725) 
5

>  <hydrogen_bond_acceptors>  (1725) 
2

>  <hydrogen_bond_donors>  (1725) 
0

>  <hydrogen_bond_acceptors_lipinski>  (1725) 
2

>  <hydrogen_bond_donors_lipinski>  (1725) 
0

>  <lipinski_rule_of_five_violations>  (1725) 
0

>  <aromatic_rings_count>  (1725) 
0

>  <qed_drug_likeliness>  (1725) 
0.50

>  <formal_charge>  (1725) 
0

>  <fractioncsp3>  (1725) 
0.58

>  <number_of_minimal_rings>  (1725) 
0

>  <van_der_walls_volume>  (1725) 
211.98

>  <contains_sugar>  (1725) 
False

>  <contains_ring_sugars>  (1725) 
False

>  <contains_linear_sugars>  (1725) 
False

>  <murcko_framework>  (1725) 
nan

>  <np_likeness>  (1725) 
2.40

>  <chemical_class>  (1725) 
nan

>  <chemical_sub_class>  (1725) 
nan

>  <chemical_super_class>  (1725) 
nan

>  <direct_parent_classification>  (1725) 
nan

>  <np_classifier_pathway>  (1725) 
Terpenoids

>  <np_classifier_superclass>  (1725) 
Monoterpenoids

>  <np_classifier_class>  (1725) 
Acyclic monoterpenoids

>  <np_classifier_is_glycoside>  (1725) 
False

>  <organisms>  (1725) 
Abutilon indicum|Achillea erba-rotta|Achillea moschata|Achillea nana|Achillea nobilis|Achillea ptarmica|Achillea wilhelmsii|Acorus calamus|Aframomum angustifolium|Ageratina viscosa|Agrimonia pilosa|Allium victorialis|Aloysia citriodora|Aloysia citrodora|Aloysia triphylla|Alpinia chinensis|Alpinia galanga|Alpinia hainanensis|Alpinia katsumadai|Antidesma laciniatum|Apiaceae|Apium graveolens|Artemisia ammaniana|Artemisia argyi|Artemisia capillaries|Artemisia capillaris|Artemisia judaica|Artemisia klotzchiana|Artemisia montana|Artemisia princeps|Artemisia schmidtiana|Artemisia scoparia|Artemisia sericea|Arthrophytum leptocladum|Asarum canadense|Asteraceae|Athanasia linifolia|Baccharis dracunculifolia|Baccharis salicifolia|Baccharis salicina|Bidens andicola|Blepharis sindica|Blepharocalyx salicifolius|Blepharocalyx tweediei|Bombina maxima|Boswellia carteri|Boswellia carterii|Boswellia papyrifera|Boswellia sacra|Bothriochloa bladhii|Brassica hirta|Bunium paucifolium|Cananga odorata|Carpesium abrotanoides|Cellulomonas biazotea|Ceratitis capitata|Chaerophyllum bulbosum|Chaerophyllum macrospermum|Chamaecyparis lawsoniana|Chamomilla recutita|Cinnamomum osmophloeum|Cinnamomum sieboldii|Cinnamomum zeylanicum|Cinnamon|Citrus Sinensis|Citrus aurantium|Citrus grandis|Citrus hystrix|Citrus limon|Citrus limonia|Citrus maxima|Citrus medica|Citrus reticulata|Citrus sinensis L.|Citrus unshiu|Citrus vulgaris|Citrus wilsonii|Citrus × deliciosa|Citrus × paradisi|Citrus ×iyo|Cladosporium tenuissimum|Coelogyne corymbosa|Commiphora quadricincta|Compositae|Conyza newii|Corbicula fluminea|Coriandrum sativum|Cunila spicata|Curcuma kwangsiensis|Curcuma longa|Curcuma phaeocaulis|Curcuma wenyujin|Cymbopogon Martinii|Cymbopogon citratus|Cymbopogon distans|Cymbopogon flexuosus|Cymbopogon khasianus|Cymbopogon martinii|Cymbopogon nardus|Cymbopogon winterianus|Daphne odora|Daucus carota|Daucus carota subsp. sativus|Diospyros iturensis|Dracocephalum moldavica|Dysphania graveolens|Elettaria cardamomum|Elionurus muticus|Elsholtzia ciliata|Elsholtzia splendens|Erythrina bidwillii|Etlingera cevuga|Eucalyptus agglomerata|Eupatorium fortunei|Fragaria indica|Frullania brittoniae|Gaillardia amblyodon|Geranium|Helichrysum amorginum|Helichrysum italicum|Helminthosporium velutinum|Heracleum antasiaticum|Heracleum dissectum|Houttuynia Cordata|Houttuynia cordata|Houttuynia emeiensis|Illicium merrillianum|Juniperus communis|Juniperus taxifolia|Lamellodysidea herbacea|Lantana camara|Lanxangia tsao-ko|Larix laricina|Larix lyallii|Larix occidentalis|Latua pubiflora|Lavandula angustifolia|Lepechinia chamaedryoides|Lepechinia chilensis|Leptospermum scoparium|Levisticum officinale|Ligularia hodgsonii|Ligularia stenocephala|Ligusticum chuanxiong|Ligusticum sinense|Lindera aggregata|Lindera strichnifolia|Lindera umbellata|Liparis nervosa|Lippia alba|Litsea aurata|Litsea cubeba|Lobelia salicifolia|Lobelia st|Lophozia attenuata|Machilus japonica|Magnolia liliflora|Magnolia liliiflora|Magnolia obovata|Malus domestica|Malus pumila|Mangifera indica|Matricaria chamomilla|Melampodium camphoratum|Mentha|Mentha Piperita|Mentha piperita|Mentha piperita L.|Microcitrus|Micromeria biflora|Mikania banisteriae|Mikania congesta|Mikania cordifolia|Mikania parviflora|Monodora tenuifolia|Mosla chinensis|Murraya kwangsiensis|Mutisia spinosa|Nepeta glomerulosa|Nepeta nepetella|Nepeta racemosa|Nepeta tuberosa|Origanum acutidens|Origanum dubium|Origanum vulgare|Pandanus tectorius|Pectis elongata|Pelargonium odoratissimum|Pelargonium quercifolium|Pelargonium ternifolium|Petasites albus|Phebalium gracile|Picea schrenkiana|Picridium crystallinum|Pimenta racemosa|Pinus densiflora var. densiflora|Pinus halepensis|Piper aduncum|Piper cubeba|Plantago psyllium|Plectranthus glabratus|Prunus Armeniaca|Prunus armeniaca L. (K33-81)|Pteris dispar|Radix chuanxiong|Remijia pedunculata|Rhizoma chuanxiong|Rhodiola rosea|Rhododendron groenlandicum|Rhododendron mucronulatum|Rhododendron tomentosum|Rosa gallica|Rosa rugosa|Rosa × centifolia|Rosa × damascena|Rudbeckia hirta|Salvia absconditiflora|Salvia candidissima|Salvia dorystaechas|Salvia fruticosa|Salvia officinalis|Salvia sclarea|Salvia tomentosa|Salvia triloba|Saracha viscosa|Sarcodon aspratus|Saxifraga Stolonifera|Saxifraga stolonifera|Saxifraga stolonifera Meerb.|Scytosiphon lomentaria|Sinopodophyllum emodi|Solanum toxicarum|Solidago odora|Spondias mombin|Spongia australis|Stachys recta|Stelletta inconspicua|Strobilanthes callosa|Strobilanthes zeylanica|Syzygium nervosum|Tanacetum longifolium|Terminalia bentzoe|Teucrium pseudoscorodonia|Teucrium scorodonia L. subsp. baeticum|Thapsia maxima|Thapsia villosa|Thuja occidentalis|Thymus baeticus|Thymus camphoratus|Thymus carnosus|Thymus membranaceus|Thymus nummularius|Thymus quinquecostatus|Thymus thracicus|Thymus villosus|Thymus vulgaris|Thymus willkommii|Thymus zygis|Tordylium apulum|Trichia favoginea|Trifoliate orange|Vitex negundo|Vitis vinifera|Wurfbainia villosa|Xylopia sericea|Zanthoxylum bungeanum|Zanthoxylum chalybaeum|Zanthoxylum chalybeum|Zanthoxylum gilletii|Zanthoxylum piperitum|Zanthoxylum schinifolium|Zanthoxylum simulans|Zingiber officinale|basil|bellis perennis|common myrtle|marjoram|pomelo

>  <collections>  (1725) 
ANPDB|Australian natural products|CMAUP (cCollective molecular activities of useful plants)|ChEBI NPs|KNApSaCK|Latin America dataset|NANPDB (Natural Products from Northern African Sources)|NAPRORE-CR|NPACT|NPASS|NPEdia|NuBBEDB|Phyto4Health|PubChem NPs|Super Natural II|TCMDB-Taiwan (Traditional Chinese Medicine database)|TIPdb (database of Taiwan indigenous plants)|VietHerb|WikiData Natural Products|ZINC NP

>  <dois>  (1725) 
10.1002/(SICI)1099-1026(199601)11:1<15::AID-FFJ541>3.0.CO;2-H|10.1002/(SICI)1099-1026(199703)12:2<117::AID-FFJ612>3.0.CO;2-X|10.1002/(SICI)1099-1026(199901/02)14:1<15::AID-FFJ777>3.0.CO;2-M|10.1002/(SICI)1099-1026(200003/04)15:2<100::AID-FFJ874>3.0.CO;2-Y|10.1002/CBDV.201100039|10.1002/CBDV.201800531|10.1002/CHIN.198844339|10.1002/FFJ.1582|10.1002/FFJ.2730030305|10.1002/FFJ.2730040411|10.1002/FFJ.2730040414|10.1002/FFJ.2730090206|10.1002/PTR.2650010304|10.1002/PTR.2650070123|10.1007/BF00565149|10.1007/BF00579167|10.1007/BF00579447|10.1007/BF00580068|10.1007/BF00600859|10.1007/BF00629663|10.1007/BF00629777|10.1007/BF00630022|10.1007/BF00937609|10.1007/BF01386197|10.1007/BF02236436|10.1007/BF02866639|10.1016/0031-9422(83)85064-X|10.1016/0031-9422(88)80703-9|10.1016/0031-9422(90)83041-X|10.1016/0031-9422(91)83632-U|10.1016/0031-9422(91)85017-T|10.1016/0031-9422(95)00183-8|10.1016/0031-9422(95)00347-A|10.1016/0305-1978(85)90081-X|10.1016/0378-8741(91)90187-I|10.1016/J.APJTM.2016.06.009|10.1016/J.ARABJC.2014.11.043|10.1016/J.JEP.2005.11.018|10.1016/J.PHYTOCHEM.2003.08.004|10.1016/J.PHYTOCHEM.2004.03.019|10.1016/J.PHYTOCHEM.2006.04.025|10.1016/J.PHYTOCHEM.2011.09.002|10.1016/S0021-9673(00)94572-2|10.1016/S0021-9673(01)84593-3|10.1016/S0021-9673(01)95036-8|10.1016/S0031-9422(00)80558-0|10.1016/S0031-9422(00)80814-6|10.1016/S0031-9422(00)81231-5|10.1016/S0031-9422(00)81284-4|10.1016/S0031-9422(00)81509-5|10.1016/S0031-9422(00)81573-3|10.1016/S0031-9422(00)84581-1|10.1016/S0031-9422(00)84802-5|10.1016/S0031-9422(00)85512-0|10.1016/S0031-9422(00)97409-0|10.1016/S0031-9422(02)00004-3|10.1016/S0031-9422(02)00396-5|10.1016/S0031-9422(03)00226-7|10.1016/S0031-9422(96)00386-X|10.1016/S0031-9422(96)00559-6|10.1016/S0031-9422(97)00117-9|10.1016/S0031-9422(97)00828-5|10.1016/S0305-1978(97)00103-8|10.1016/S0367-326X(01)00327-6|10.1016/S0378-8741(01)00273-2|10.1021/JF00008A025|10.1021/JF00011A018|10.1021/JF00025A025|10.1021/JF00029A021|10.1021/JF00059A031|10.1021/JF00065A004|10.1021/JF00069A028|10.1021/JF00073A015|10.1021/JF0402633|10.1021/JF60218A031|10.1021/JF950577D|10.1021/JF970031M|10.1021/JF9800559|10.1021/NP50035A036|10.1021/NP50042A025|10.1021/NP50048A039|10.1021/NP50050A051|10.1039/C39850000824|10.1055/S-0028-1097281|10.1055/S-0028-1100058|10.1055/S-0028-1100098|10.1055/S-2006-957810|10.1055/S-2006-957914|10.1055/S-2006-959637|10.1055/S-2006-960024|10.1055/S-2006-960128|10.1055/S-2006-960939|10.1055/S-2006-961434|10.1055/S-2006-961452|10.1055/S-2006-962745|10.1055/S-2007-969171|10.1055/S-2007-969275|10.1055/S-2007-969632|10.1076/PHBI.35.3.218.13295|10.1080/10412905.1989.9697751|10.1080/10412905.1989.9697780|10.1080/10412905.1990.9697808|10.1080/10412905.1990.9697831|10.1080/10412905.1990.9697857|10.1080/10412905.1990.9697877|10.1080/10412905.1990.9697881|10.1080/10412905.1991.9697952|10.1080/10412905.1991.9697953|10.1080/10412905.1991.9697955|10.1080/10412905.1991.9700498|10.1080/10412905.1992.9698020|10.1080/10412905.1992.9698062|10.1080/10412905.1992.9698084|10.1080/10412905.1992.9698087|10.1080/10412905.1992.9698088|10.1080/10412905.1992.9698111|10.1080/10412905.1992.9698144|10.1080/10412905.1993.9698167|10.1080/10412905.1993.9698170|10.1080/10412905.1993.9698179|10.1080/10412905.1993.9698189|10.1080/10412905.1993.9698205|10.1080/10412905.1993.9698209|10.1080/10412905.1993.9698225|10.1080/10412905.1993.9698226|10.1080/10412905.1993.9698231|10.1080/10412905.1993.9698254|10.1080/10412905.1994.9698332|10.1080/10412905.1994.9698334|10.1080/10412905.1994.9698405|10.1080/10412905.1994.9698440|10.1080/10412905.1994.9698443|10.1080/10412905.1994.9699345|10.1080/10412905.1994.9699346|10.1080/10412905.1994.9699366|10.1080/10412905.1995.9698464|10.1080/10412905.1995.9698472|10.1080/10412905.1995.9698585|10.1080/10412905.1995.9700518|10.1080/10412905.1995.9700523|10.1080/10412905.1996.9700547|10.1080/10412905.1996.9700565|10.1080/10412905.1996.9700569|10.1080/10412905.1997.9699459|10.1080/10412905.1997.9700709|10.1080/10412905.1997.9700721|10.1080/10412905.1997.9700727|10.1080/10412905.1998.9700853|10.1080/10412905.1999.9701070|10.1080/10412905.1999.9701080|10.1080/10412905.2000.9699564|10.1080/10412905.2001.9699713|10.1080/10412905.2003.9698598|10.1080/10412905.2005.9698874|10.1080/10412905.2018.1431966|10.1111/J.1600-0536.1991.TB01726.X|10.1139/V69-334|10.1248/CPB.50.133|10.1248/CPB.54.725|10.1248/CPB.54.936|10.1248/YAKUSHI1947.106.1_17|10.1271/BBB1961.47.1841|10.1271/BBB1961.47.483|10.1271/BBB1961.52.2961|10.1271/BBB1961.55.2571|10.1300/J044V06N02_01|10.1590/S0100-40422002000700009|10.2503/JJSHS.53.141|10.3109/13880209.2015.1078384|10.3390/MOLECULES16043077|10.3390/MOLECULES21060814|10.36953/ECJ.2007.080323|10.5897/JMPR10.078|10.7897/2230-8407.089160

>  <synonyms>  (1725) 
|((2E)-3,7-dimethylocta-2,6-dienyl) acetate|(2E)-3,7-Dimethyl-2,6-octadienyl acetate|(2E)-3,7-Dimethyl-2,6-octadienyl acetate #|(2E)-3,7-dimethylocta-2,6-dien-1-yl acetate|(2E)-geranyl acetate|(E)-3,7-Dimethyl-2,6-octadien-1-yl acetate|(E)-3,7-Dimethylocta-2,6-dien-1-yl acetate|(Z)-3,7-Dimethyl-2,6-octadienyl acetate|1-Octanol, 3,7-dimethyl-, 1-acetate, tetradehydro deriv.|1-Octanol, 3,7-dimethyl-, acetate, tetradehydro deriv.|105-87-3|2, 3,7-dimethyl-, acetate, (E)-|2, 3,7-dimethyl-, acetate, trans-|2, 3,7-dimethyl-, acetate,(E)-|2,6-Dimethyl-2,6-octadiene-8-yl acetate|2,6-Octadien-1-ol, 3,7-dimethyl-, 1-acetate|2,6-Octadien-1-ol, 3,7-dimethyl-, 1-acetate, (2E)-|2,6-Octadien-1-ol, 3,7-dimethyl-, acetate|2,6-Octadien-1-ol, 3,7-dimethyl-, acetate, (2E)-|2,6-Octadien-1-ol, 3,7-dimethyl-, acetate, (E)-|2,6-Octadien-1-ol, 3,7-dimethyl-, acetate, trans-|2,6-Octadien-1-ol, 3,7-dimethyl-, acetate,(E)-|2,6-Octadien-1-ol,3,7-dimethyl-,1-acetate,(2E)-|203-341-5|3, 6-octadienyl acetate|3,7-Dimethyl-1-acetate(2E)-2,6-Octadien-1-ol|3,7-Dimethyl-1-acetate(2Z)-2,6-Octadien-1-ol|3,7-Dimethyl-2,6-octadien-1-ol acetate|3,7-Dimethyl-2,6-octadien-1-yl ethanoate, trans-|3,7-Dimethyl-2,6-octadien-1-ylacetate|3,7-Dimethyl-2,6-octadien-1-ylacetic acid|3,7-Dimethyl-2-trans, 6-octadienyl acetate|3,7-Dimethyl-2E,6-octadienyl acetate|3,7-Dimethyl-acetate(2E)-2,6-Octadien-1-ol|3,7-Dimethyl-acetate(2Z)-2,6-Octadien-1-ol|3,7-Dimethyl-acetate(E)-2,6-Octadien-1-ol|3,7-Dimethyl-acetatetrans-2,6-Octadien-1-ol|3,7-Dimethyloctyl acetate, tetradehydro derivative|3,7-dimethylocta-2,6-dien-1-yl acetate|33843-18-4|3W81YG7P9R|4-02-00-00204 (Beilstein Handbook Reference)|68311-13-7|8022-83-1|AI3-00207|AKOS015837938|Acetic acid geraniol ester|Acetic acid, geraniol ester|Acetic acid, geranyl ester|BDBM50037025|BRN 1722815|C09861|CAS-105-87-3|CCG-266559|CCRIS 877|CHEBI:5331|CHEBI:88568|CHEMBL1369384|CS-W015698|D70281|DA-70490|DTXCID80654|DTXSID0020654|EBC-615372|EBC-618549|EC 203-341-5|EINECS 203-341-5|EINECS 269-749-0|F544743|FEMA 2509|FEMA No. 2509|FEMA Number 2509|FG34600|G0028|GERANYL ACETATE|GERANYL ACETATE [FCC]|GERANYL ACETATE [FHFI]|GERANYL ACETATE [HSDB]|Geraniol acetate|Geranyl acetate (Standard)|Geranyl acetate (natural)|Geranyl acetate 100 microg\/mL in Acetonitrile|Geranyl acetate A|Geranyl acetate, >=97%|Geranyl acetate, FCC|Geranyl acetate, analytical standard|Geranyl acetate, cis-|Geranyl acetate, food grade (71% geranyl acetate, 29% citronellyl acetate)|Geranyl acetate, mixture of isomers|Geranyl acetate, natural, FCC|Geranyl acetate, primary pharmaceutical reference standard|Geranyl ethanoate|HMS2268G10|HMS5084P03|HSDB 586|HY-N7070|HY-N7070R|LMFA07010189|LS-14126|MFCD00015037|MLS002152904|MSK40220|Meraneine|NCGC00091394-01|NCGC00091394-02|NCGC00091394-03|NCGC00091394-04|NCGC00254482-01|NCGC00259638-01|NCI-C54728|NS00003036|NSC 2584|NSC-2584|NSC2584|Nerol acetate (6CI)|Neryl acetate?|Q426437|RefChem:37722|SCHEMBL56913|SCHEMBL7894411|SMR000127400|SY058455|Sou|Tox21_202089|Tox21_300355|Trans-3,7-dimethyl-2,6-octadien-1-yl ethanoate|UNII-3W81YG7P9R|WLN: 1Y & U3YU2OV1-T|[(2E)-3,7-dimethylocta-2,6-dienyl] acetate|[(2E)-3,7-dimethylocta-2,6-dienyl] ethanoate|acetic acid geranyl ester|acetic acid trans-3,7-dimethyl-oct-2,6-dien-1-yl ester|acetyl geraniol|b-Geranyl Acetate|beta-Geranyl Acetate|cis-3,7-dimethyl-2,6-octadien-1-yl ethanoate|geranylacetat|geranylacetate|s5091|starbld0004670|trans-2,6-Dimethyl-2,6-octadien-8-yl ethanoate|trans-3,6-octadien-1-ol, acetate|trans-3,7-Dimethyl-2,6-octadien-1-ol, acetate|trans-3,7-Dimethyl-2,6-octadien-1-yl acetate|trans-3,7-Dimethyl-2,6-octadienyl acetate|trans-Geraniol acetate|trans-geranyl acetate

>  <cas>  (1725) 
105-87-3|68311-13-7|CAS-105-87-3|8022-83-1|33843-18-4

$$$$

     RDKit          2D

 17 18  0  0  0  0  0  0  0  0999 V2000
   -1.0760   -3.3879    0.0000 C   0  0  0  0  0  0  0  0  0  0  0  0
   -1.6122   -1.9870    0.0000 C   0  0  0  0  0  0  0  0  0  0  0  0
   -3.0935   -1.7510    0.0000 C   0  0  0  0  0  0  0  0  0  0  0  0
   -3.6297   -0.3501    0.0000 C   0  0  0  0  0  0  0  0  0  0  0  0
   -2.6846    0.8147    0.0000 C   0  0  0  0  0  0  0  0  0  0  0  0
   -3.2209    2.2156    0.0000 C   0  0  0  0  0  0  0  0  0  0  0  0
   -1.2033    0.5787    0.0000 C   0  0  0  0  0  0  0  0  0  0  0  0
   -0.6671   -0.8222    0.0000 C   0  0  0  0  0  0  0  0  0  0  0  0
    0.8142   -1.0583    0.0000 C   0  0  0  0  0  0  0  0  0  0  0  0
    1.7593    0.1065    0.0000 C   0  0  0  0  0  0  0  0  0  0  0  0
    3.2406   -0.1295    0.0000 C   0  0  0  0  0  0  0  0  0  0  0  0
    3.4766    1.3518    0.0000 C   0  0  0  0  0  0  0  0  0  0  0  0
    3.0045   -1.6108    0.0000 C   0  0  0  0  0  0  0  0  0  0  0  0
    4.7219   -0.3656    0.0000 O   0  0  0  0  0  0  0  0  0  0  0  0
    1.2231    1.5074    0.0000 C   0  0  0  0  0  0  0  0  0  0  0  0
   -0.2582    1.7435    0.0000 C   0  0  0  0  0  0  0  0  0  0  0  0
   -0.7945    3.1444    0.0000 O   0  0  0  0  0  0  0  0  0  0  0  0
  1  2  1  0
  2  3  2  0
  3  4  1  0
  4  5  2  0
  5  6  1  0
  5  7  1  0
  7  8  2  0
  8  9  1  0
  9 10  1  0
 10 11  1  1
 11 12  1  0
 11 13  1  0
 11 14  1  0
 10 15  1  0
 15 16  1  0
 16 17  2  0
  8  2  1  0
 16  7  1  0
M  END
>  <identifier>  (1726) 
CNP0080669.1

>  <canonical_smiles>  (1726) 
CC1=CC=C(C)C2=C1C[C@H](C(C)(C)O)CC2=O

>  <standard_inchi>  (1726) 
InChI=1S/C15H20O2/c1-9-5-6-10(2)14-12(9)7-11(8-13(14)16)15(3,4)17/h5-6,11,17H,7-8H2,1-4H3/t11-/m0/s1

>  <standard_inchi_key>  (1726) 
YSQRFFYEEJPEGR-NSHDSACASA-N

>  <name>  (1726) 
DTXSID901134122

>  <iupac_name>  (1726) 
(3~{S})-3-(1-hydroxy-1-methyl-ethyl)-5,8-dimethyl-tetralin-1-one

>  <annotation_level>  (1726) 
5

>  <total_atom_count>  (1726) 
37

>  <heavy_atom_count>  (1726) 
17

>  <molecular_weight>  (1726) 
232.32

>  <exact_molecular_weight>  (1726) 
232.14633

>  <molecular_formula>  (1726) 
C15H20O2

>  <alogp>  (1726) 
2.82

>  <topological_polar_surface_area>  (1726) 
37.30

>  <rotatable_bond_count>  (1726) 
1

>  <hydrogen_bond_acceptors>  (1726) 
2

>  <hydrogen_bond_donors>  (1726) 
1

>  <hydrogen_bond_acceptors_lipinski>  (1726) 
2

>  <hydrogen_bond_donors_lipinski>  (1726) 
1

>  <lipinski_rule_of_five_violations>  (1726) 
0

>  <aromatic_rings_count>  (1726) 
1

>  <qed_drug_likeliness>  (1726) 
0.81

>  <formal_charge>  (1726) 
0

>  <fractioncsp3>  (1726) 
0.53

>  <number_of_minimal_rings>  (1726) 
2

>  <van_der_walls_volume>  (1726) 
nan

>  <contains_sugar>  (1726) 
False

>  <contains_ring_sugars>  (1726) 
False

>  <contains_linear_sugars>  (1726) 
False

>  <murcko_framework>  (1726) 
c1ccc2c(c1)CCCC2

>  <np_likeness>  (1726) 
1.10

>  <chemical_class>  (1726) 
Tetralins

>  <chemical_sub_class>  (1726) 
Tetralins

>  <chemical_super_class>  (1726) 
Benzenoids

>  <direct_parent_classification>  (1726) 
Tetralins

>  <np_classifier_pathway>  (1726) 
Terpenoids

>  <np_classifier_superclass>  (1726) 
nan

>  <np_classifier_class>  (1726) 
nan

>  <np_classifier_is_glycoside>  (1726) 
False

>  <organisms>  (1726) 
Emmotum nitens

>  <collections>  (1726) 
Latin America dataset|NuBBEDB|WikiData Natural Products|ZINC NP

>  <dois>  (1726) 
10.1016/0031-9422(76)85091-1

>  <synonyms>  (1726) 
1(2H)-Naphthalenone, 3,4-dihydro-3-(1-hydroxy-1-methylethyl)-5,8-dimethyl-, (S)-|61302-57-6

>  <cas>  (1726) 
61302-57-6

$$$$

     RDKit          2D

 18 19  0  0  0  0  0  0  0  0999 V2000
   -7.3622   -0.6001    0.0000 C   0  0  0  0  0  0  0  0  0  0  0  0
   -7.1006    0.8769    0.0000 C   0  0  0  0  0  0  0  0  0  0  0  0
   -5.6907    1.3888    0.0000 C   0  0  0  0  0  0  0  0  0  0  0  0
   -4.5423    0.4237    0.0000 C   0  0  0  0  0  0  0  0  0  0  0  0
   -3.1324    0.9357    0.0000 C   0  0  0  0  0  0  0  0  0  0  0  0
   -1.9841   -0.0294    0.0000 S   0  0  0  0  0  0  0  0  0  0  0  0
   -0.5742    0.4825    0.0000 S   0  0  0  0  0  0  0  0  0  0  0  0
    0.5742   -0.4825    0.0000 S   0  0  0  0  0  0  0  0  0  0  0  0
    1.9841    0.0294    0.0000 S   0  0  0  0  0  0  0  0  0  0  0  0
    3.1324   -0.9357    0.0000 C   0  0  0  0  0  0  0  0  0  0  0  0
    4.5423   -0.4237    0.0000 C   0  0  0  0  0  0  0  0  0  0  0  0
    5.6907   -1.3888    0.0000 C   0  0  0  0  0  0  0  0  0  0  0  0
    7.1006   -0.8769    0.0000 C   0  0  0  0  0  0  0  0  0  0  0  0
    7.3622    0.6001    0.0000 C   0  0  0  0  0  0  0  0  0  0  0  0
    6.2139    1.5652    0.0000 C   0  0  0  0  0  0  0  0  0  0  0  0
    4.8040    1.0533    0.0000 C   0  0  0  0  0  0  0  0  0  0  0  0
   -4.8040   -1.0533    0.0000 C   0  0  0  0  0  0  0  0  0  0  0  0
   -6.2139   -1.5652    0.0000 C   0  0  0  0  0  0  0  0  0  0  0  0
  1  2  2  0
  2  3  1  0
  3  4  2  0
  4  5  1  0
  5  6  1  0
  6  7  1  0
  7  8  1  0
  8  9  1  0
  9 10  1  0
 10 11  1  0
 11 12  2  0
 12 13  1  0
 13 14  2  0
 14 15  1  0
 15 16  2  0
  4 17  1  0
 17 18  2  0
 18  1  1  0
 16 11  1  0
M  END
>  <identifier>  (1727) 
CNP0322300.0

>  <canonical_smiles>  (1727) 
C1=CC=C(CSSSSCC2=CC=CC=C2)C=C1

>  <standard_inchi>  (1727) 
InChI=1S/C14H14S4/c1-3-7-13(8-4-1)11-15-17-18-16-12-14-9-5-2-6-10-14/h1-10H,11-12H2

>  <standard_inchi_key>  (1727) 
FLLHZLOYVPKTTJ-UHFFFAOYSA-N

>  <name>  (1727) 
Dibenzyltetrasulfid

>  <iupac_name>  (1727) 
(benzyltetrasulfanyl)methylbenzene

>  <annotation_level>  (1727) 
5

>  <total_atom_count>  (1727) 
32

>  <heavy_atom_count>  (1727) 
18

>  <molecular_weight>  (1727) 
310.53

>  <exact_molecular_weight>  (1727) 
309.99783

>  <molecular_formula>  (1727) 
C14H14S4

>  <alogp>  (1727) 
6.06

>  <topological_polar_surface_area>  (1727) 
0.00

>  <rotatable_bond_count>  (1727) 
7

>  <hydrogen_bond_acceptors>  (1727) 
4

>  <hydrogen_bond_donors>  (1727) 
0

>  <hydrogen_bond_acceptors_lipinski>  (1727) 
4

>  <hydrogen_bond_donors_lipinski>  (1727) 
0

>  <lipinski_rule_of_five_violations>  (1727) 
1

>  <aromatic_rings_count>  (1727) 
2

>  <qed_drug_likeliness>  (1727) 
0.45

>  <formal_charge>  (1727) 
0

>  <fractioncsp3>  (1727) 
0.14

>  <number_of_minimal_rings>  (1727) 
2

>  <van_der_walls_volume>  (1727) 
262.21

>  <contains_sugar>  (1727) 
False

>  <contains_ring_sugars>  (1727) 
False

>  <contains_linear_sugars>  (1727) 
False

>  <murcko_framework>  (1727) 
S(SSCc1ccccc1)SCc2ccccc2

>  <np_likeness>  (1727) 
0.16

>  <chemical_class>  (1727) 
Benzene and substituted derivatives

>  <chemical_sub_class>  (1727) 
Benzene and substituted derivatives

>  <chemical_super_class>  (1727) 
Benzenoids

>  <direct_parent_classification>  (1727) 
Benzene and substituted derivatives

>  <np_classifier_pathway>  (1727) 
Shikimates and Phenylpropanoids

>  <np_classifier_superclass>  (1727) 
nan

>  <np_classifier_class>  (1727) 
nan

>  <np_classifier_is_glycoside>  (1727) 
False

>  <organisms>  (1727) 
Petiveria alliacea

>  <collections>  (1727) 
ChemSpider NPs|Latin America dataset|NuBBEDB|Super Natural II|TCMDB-Taiwan (Traditional Chinese Medicine database)|TCMID (Traditional Chinese Medicine Integrated Database)|UNPD (Universal Natural Products Database)|WikiData Natural Products|ZINC NP

>  <dois>  (1727) 
10.1016/S0031-9422(01)00079-6

>  <synonyms>  (1727) 
Dibenzyl tetrasulphide|SCHEMBL1255779

>  <cas>  (1727) 
nan

$$$$

     RDKit          2D

 30 34  0  0  0  0  0  0  0  0999 V2000
    2.5863   -2.5558    0.0000 C   0  0  0  0  0  0  0  0  0  0  0  0
    2.4135   -1.0658    0.0000 N   0  0  0  0  0  0  0  0  0  0  0  0
    3.6175   -0.1711    0.0000 C   0  0  0  0  0  0  0  0  0  0  0  0
    4.9943   -0.7665    0.0000 C   0  0  0  0  0  0  0  0  0  0  0  0
    5.1671   -2.2565    0.0000 O   0  0  0  0  0  0  0  0  0  0  0  0
    6.1983    0.1282    0.0000 C   0  0  0  0  0  0  0  0  0  0  0  0
    6.0255    1.6182    0.0000 C   0  0  0  0  0  0  0  0  0  0  0  0
    4.6487    2.2135    0.0000 C   0  0  0  0  0  0  0  0  0  0  0  0
    3.4447    1.3189    0.0000 C   0  0  0  0  0  0  0  0  0  0  0  0
    2.0680    1.9143    0.0000 C   0  0  0  0  0  0  0  0  0  0  0  0
    1.8952    3.4043    0.0000 O   0  0  0  0  0  0  0  0  0  0  0  0
    0.8640    1.0196    0.0000 C   0  0  0  0  0  0  0  0  0  0  0  0
   -0.5128    1.6150    0.0000 C   0  0  0  0  0  0  0  0  0  0  0  0
   -0.6856    3.1050    0.0000 O   0  0  0  0  0  0  0  0  0  0  0  0
   -1.7168    0.7203    0.0000 C   0  0  0  0  0  0  0  0  0  0  0  0
   -3.0936    1.3157    0.0000 C   0  0  0  0  0  0  0  0  0  0  0  0
   -3.2664    2.8057    0.0000 C   0  0  0  0  0  0  0  0  0  0  0  0
   -4.6432    3.4011    0.0000 C   0  0  0  0  0  0  0  0  0  0  0  0
   -5.8472    2.5064    0.0000 C   0  0  0  0  0  0  0  0  0  0  0  0
   -5.6744    1.0164    0.0000 C   0  0  0  0  0  0  0  0  0  0  0  0
   -4.2976    0.4211    0.0000 C   0  0  0  0  0  0  0  0  0  0  0  0
   -1.5440   -0.7697    0.0000 C   0  0  0  0  0  0  0  0  0  0  0  0
   -2.7480   -1.6643    0.0000 O   0  0  0  0  0  0  0  0  0  0  0  0
   -2.5752   -3.1543    0.0000 C   0  0  0  0  0  0  0  0  0  0  0  0
   -2.9225   -4.6136    0.0000 C   0  0  0  0  0  0  0  0  0  0  0  0
   -4.0726   -3.0658    0.0000 C   0  0  0  0  0  0  0  0  0  0  0  0
   -1.1984   -3.7497    0.0000 C   0  0  0  0  0  0  0  0  0  0  0  0
    0.0056   -2.8551    0.0000 C   0  0  0  0  0  0  0  0  0  0  0  0
   -0.1672   -1.3650    0.0000 C   0  0  0  0  0  0  0  0  0  0  0  0
    1.0368   -0.4704    0.0000 C   0  0  0  0  0  0  0  0  0  0  0  0
  1  2  1  0
  2  3  1  0
  3  4  2  0
  4  5  1  0
  4  6  1  0
  6  7  2  0
  7  8  1  0
  8  9  2  0
  9 10  1  0
 10 11  2  0
 10 12  1  0
 12 13  2  0
 13 14  1  0
 13 15  1  0
 15 16  1  0
 16 17  2  0
 17 18  1  0
 18 19  2  0
 19 20  1  0
 20 21  2  0
 15 22  2  0
 22 23  1  0
 23 24  1  0
 24 25  1  0
 24 26  1  0
 24 27  1  0
 27 28  2  0
 28 29  1  0
 29 30  2  0
 30  2  1  0
  9  3  1  0
 30 12  1  0
 21 16  1  0
 29 22  1  0
M  END
>  <identifier>  (1728) 
CNP0080650.0

>  <canonical_smiles>  (1728) 
CN1C2=C(O)C=CC=C2C(=O)C2=C(O)C(C3=CC=CC=C3)=C3OC(C)(C)C=CC3=C21

>  <standard_inchi>  (1728) 
InChI=1S/C25H21NO4/c1-25(2)13-12-16-21-19(22(28)15-10-7-11-17(27)20(15)26(21)3)23(29)18(24(16)30-25)14-8-5-4-6-9-14/h4-13,27,29H,1-3H3

>  <standard_inchi_key>  (1728) 
XUKLYSDKXYYBGC-UHFFFAOYSA-N

>  <name>  (1728) 
nan

>  <iupac_name>  (1728) 
6,11-dihydroxy-3,3,12-trimethyl-5-phenyl-pyrano[2,3-c]acridin-7-one

>  <annotation_level>  (1728) 
4

>  <total_atom_count>  (1728) 
51

>  <heavy_atom_count>  (1728) 
30

>  <molecular_weight>  (1728) 
399.45

>  <exact_molecular_weight>  (1728) 
399.14706

>  <molecular_formula>  (1728) 
C25H21NO4

>  <alogp>  (1728) 
4.95

>  <topological_polar_surface_area>  (1728) 
71.69

>  <rotatable_bond_count>  (1728) 
1

>  <hydrogen_bond_acceptors>  (1728) 
5

>  <hydrogen_bond_donors>  (1728) 
2

>  <hydrogen_bond_acceptors_lipinski>  (1728) 
5

>  <hydrogen_bond_donors_lipinski>  (1728) 
2

>  <lipinski_rule_of_five_violations>  (1728) 
0

>  <aromatic_rings_count>  (1728) 
4

>  <qed_drug_likeliness>  (1728) 
0.44

>  <formal_charge>  (1728) 
0

>  <fractioncsp3>  (1728) 
0.16

>  <number_of_minimal_rings>  (1728) 
5

>  <van_der_walls_volume>  (1728) 
nan

>  <contains_sugar>  (1728) 
False

>  <contains_ring_sugars>  (1728) 
False

>  <contains_linear_sugars>  (1728) 
False

>  <murcko_framework>  (1728) 
O1c2c(C=CC1)c3Nc4ccccc4Cc3cc2-c5ccccc5

>  <np_likeness>  (1728) 
1.77

>  <chemical_class>  (1728) 
Quinolines and derivatives

>  <chemical_sub_class>  (1728) 
Phenylquinolines

>  <chemical_super_class>  (1728) 
Organoheterocyclic compounds

>  <direct_parent_classification>  (1728) 
Phenylquinolines

>  <np_classifier_pathway>  (1728) 
Alkaloids

>  <np_classifier_superclass>  (1728) 
Anthranilic acid alkaloids

>  <np_classifier_class>  (1728) 
Acridone alkaloids

>  <np_classifier_is_glycoside>  (1728) 
False

>  <organisms>  (1728) 
Swinglea glutinosa

>  <collections>  (1728) 
Latin America dataset|NuBBEDB|WikiData Natural Products

>  <dois>  (1728) 
10.1080/14786410600907002

>  <synonyms>  (1728) 
5-hydroxy-N-methylseverifoline

>  <cas>  (1728) 
nan

$$$$

     RDKit          2D

 40 44  0  0  0  0  0  0  0  0999 V2000
    8.5630    2.7776    0.0000 C   0  0  0  0  0  0  0  0  0  0  0  0
    7.2432    2.0649    0.0000 C   0  0  0  0  0  0  0  0  0  0  0  0
    5.9660    2.8516    0.0000 C   0  0  0  0  0  0  0  0  0  0  0  0
    6.0087    4.3509    0.0000 C   0  0  0  0  0  0  0  0  0  0  0  0
    4.6461    2.1388    0.0000 C   0  0  0  0  0  0  0  0  0  0  0  0
    3.3690    2.9255    0.0000 O   0  0  0  0  0  0  0  0  0  0  0  0
    4.6034    0.6394    0.0000 O   0  0  0  0  0  0  0  0  0  0  0  0
    3.2836   -0.0733    0.0000 C   0  0  0  0  0  0  0  0  0  0  0  0
    2.0064    0.7134    0.0000 C   0  0  0  0  0  0  0  0  0  0  0  0
    0.7293    1.5001    0.0000 C   0  0  0  0  0  0  0  0  0  0  0  0
   -0.5906    0.7873    0.0000 C   0  0  0  0  0  0  0  0  0  0  0  0
   -1.8678    1.5740    0.0000 C   0  0  0  0  0  0  0  0  0  0  0  0
   -1.8251    3.0734    0.0000 C   0  0  0  0  0  0  0  0  0  0  0  0
   -3.1022    3.8601    0.0000 C   0  0  0  0  0  0  0  0  0  0  0  0
   -3.0595    5.3595    0.0000 O   0  0  0  0  0  0  0  0  0  0  0  0
   -4.4221    3.1474    0.0000 O   0  0  0  0  0  0  0  0  0  0  0  0
   -4.4648    1.6480    0.0000 C   0  0  0  0  0  0  0  0  0  0  0  0
   -5.7847    0.9353    0.0000 C   0  0  0  0  0  0  0  0  0  0  0  0
   -5.9838   -0.5515    0.0000 C   0  0  0  0  0  0  0  0  0  0  0  0
   -7.4594   -0.8214    0.0000 O   0  0  0  0  0  0  0  0  0  0  0  0
   -8.1721    0.4984    0.0000 C   0  0  0  0  0  0  0  0  0  0  0  0
   -7.1371    1.5841    0.0000 C   0  0  0  0  0  0  0  0  0  0  0  0
   -3.1876    0.8613    0.0000 C   0  0  0  0  0  0  0  0  0  0  0  0
   -4.5075    0.1486    0.0000 C   0  0  0  0  0  0  0  0  0  0  0  0
   -3.2303   -0.6381    0.0000 C   0  0  0  0  0  0  0  0  0  0  0  0
   -1.9532   -1.4248    0.0000 C   0  0  0  0  0  0  0  0  0  0  0  0
   -0.6333   -0.7120    0.0000 C   0  0  0  0  0  0  0  0  0  0  0  0
    0.6439   -1.4987    0.0000 C   0  0  0  0  0  0  0  0  0  0  0  0
    0.6012   -2.9981    0.0000 C   0  0  0  0  0  0  0  0  0  0  0  0
    1.9637   -0.7860    0.0000 C   0  0  0  0  0  0  0  0  0  0  0  0
    2.7234   -1.0274    0.0000 O   0  0  0  0  0  0  0  0  0  0  0  0
    1.9210   -2.2854    0.0000 C   0  0  0  0  0  0  0  0  0  0  0  0
    1.8783   -3.7848    0.0000 C   0  0  0  0  0  0  0  0  0  0  0  0
    0.5585   -4.4975    0.0000 C   0  0  0  0  0  0  0  0  0  0  0  0
   -0.7187   -3.7108    0.0000 O   0  0  0  0  0  0  0  0  0  0  0  0
    0.5158   -5.9969    0.0000 O   0  0  0  0  0  0  0  0  0  0  0  0
   -0.8041   -6.7096    0.0000 C   0  0  0  0  0  0  0  0  0  0  0  0
    3.2409   -1.5727    0.0000 C   0  0  0  0  0  0  0  0  0  0  0  0
    3.7136   -2.9962    0.0000 C   0  0  0  0  0  0  0  0  0  0  0  0
    4.7249   -1.3544    0.0000 C   0  0  0  0  0  0  0  0  0  0  0  0
  1  2  1  0
  2  3  1  0
  3  4  1  1
  3  5  1  0
  5  6  2  0
  5  7  1  0
  8  7  1  1
  8  9  1  0
  9 10  1  1
 10 11  2  0
 11 12  1  0
 12 13  1  1
 13 14  1  0
 14 15  2  0
 14 16  1  0
 16 17  1  0
 17 18  1  6
 18 19  2  0
 19 20  1  0
 20 21  1  0
 21 22  2  0
 17 23  1  0
 23 24  1  6
 23 25  1  0
 25 26  1  0
 27 26  1  1
 27 28  1  0
 28 29  1  6
 28 30  1  0
 30 31  2  0
 28 32  1  0
 32 33  1  6
 33 34  1  0
 34 35  2  0
 34 36  1  0
 36 37  1  0
 32 38  1  0
 38 39  1  0
 38 40  1  0
 38  8  1  0
 30  9  1  0
 27 11  1  0
 23 12  1  0
 22 18  1  0
M  END
>  <identifier>  (1729) 
CNP0280335.1

>  <canonical_smiles>  (1729) 
CC[C@H](C)C(=O)O[C@@H]1[C@@H]2C=C3[C@@H]4CC(=O)O[C@@H](C5=COC=C5)[C@]4(C)CC[C@@H]3[C@@](C)(C2=O)[C@@H](CC(=O)OC)C1(C)C

>  <standard_inchi>  (1729) 
InChI=1S/C32H42O8/c1-8-17(2)29(36)40-28-20-13-19-21(32(6,26(20)35)23(30(28,3)4)15-24(33)37-7)9-11-31(5)22(19)14-25(34)39-27(31)18-10-12-38-16-18/h10,12-13,16-17,20-23,27-28H,8-9,11,14-15H2,1-7H3/t17-,20+,21-,22-,23-,27-,28+,31+,32+/m0/s1

>  <standard_inchi_key>  (1729) 
VJNCOPXREONOMO-LTNYHKAUSA-N

>  <name>  (1729) 
nan

>  <iupac_name>  (1729) 
[(1~{R},2~{S},5~{R},6~{R},10~{S},13~{S},14~{R},16~{S})-6-(3-furyl)-16-(2-methoxy-2-oxo-ethyl)-1,5,15,15-tetramethyl-8,17-dioxo-7-oxatetracyclo[11.3.1.0^{2,11}.0^{5,10}]heptadec-11-en-14-yl] (2~{S})-2-methylbutanoate

>  <annotation_level>  (1729) 
5

>  <total_atom_count>  (1729) 
82

>  <heavy_atom_count>  (1729) 
40

>  <molecular_weight>  (1729) 
554.68

>  <exact_molecular_weight>  (1729) 
554.28797

>  <molecular_formula>  (1729) 
C32H42O8

>  <alogp>  (1729) 
5.61

>  <topological_polar_surface_area>  (1729) 
109.11

>  <rotatable_bond_count>  (1729) 
6

>  <hydrogen_bond_acceptors>  (1729) 
8

>  <hydrogen_bond_donors>  (1729) 
0

>  <hydrogen_bond_acceptors_lipinski>  (1729) 
8

>  <hydrogen_bond_donors_lipinski>  (1729) 
0

>  <lipinski_rule_of_five_violations>  (1729) 
2

>  <aromatic_rings_count>  (1729) 
1

>  <qed_drug_likeliness>  (1729) 
0.25

>  <formal_charge>  (1729) 
0

>  <fractioncsp3>  (1729) 
0.69

>  <number_of_minimal_rings>  (1729) 
5

>  <van_der_walls_volume>  (1729) 
510.32

>  <contains_sugar>  (1729) 
False

>  <contains_ring_sugars>  (1729) 
False

>  <contains_linear_sugars>  (1729) 
False

>  <murcko_framework>  (1729) 
o1ccc(c1)C2OCCC3C4=CC5CCCC(C5)C4CCC23

>  <np_likeness>  (1729) 
2.71

>  <chemical_class>  (1729) 
Naphthopyrans

>  <chemical_sub_class>  (1729) 
Naphthopyrans

>  <chemical_super_class>  (1729) 
Organoheterocyclic compounds

>  <direct_parent_classification>  (1729) 
Naphthopyrans

>  <np_classifier_pathway>  (1729) 
Terpenoids

>  <np_classifier_superclass>  (1729) 
Triterpenoids

>  <np_classifier_class>  (1729) 
Limonoids

>  <np_classifier_is_glycoside>  (1729) 
False

>  <organisms>  (1729) 
Cipadessa baccifera|Cipadessa baccifera (Roth) Miq.|Cipadessa fruticosa

>  <collections>  (1729) 
KNApSaCK|Latin America dataset|NuBBEDB|WikiData Natural Products

>  <dois>  (1729) 
10.1016/S0031-9422(00)00247-8|10.1515/znc-2009-5-623|10.1590/S0102-695X2010000100002

>  <synonyms>  (1729) 
Cipadesin|cipadesin

>  <cas>  (1729) 
nan

$$$$

     RDKit          2D

 23 25  0  0  0  0  0  0  0  0999 V2000
   -3.7383    2.5704    0.0000 C   0  0  0  0  0  0  0  0  0  0  0  0
   -4.2027    1.1441    0.0000 C   0  0  0  0  0  0  0  0  0  0  0  0
   -3.1996    0.0288    0.0000 C   0  0  0  0  0  0  0  0  0  0  0  0
   -4.4722   -0.7653    0.0000 C   0  0  0  0  0  0  0  0  0  0  0  0
   -2.2755    1.2103    0.0000 C   0  0  0  0  0  0  0  0  0  0  0  0
   -0.7902    1.0007    0.0000 C   0  0  0  0  0  0  0  0  0  0  0  0
   -0.2291   -0.3904    0.0000 C   0  0  0  0  0  0  0  0  0  0  0  0
   -1.1533   -1.5719    0.0000 C   0  0  0  0  0  0  0  0  0  0  0  0
   -0.5922   -2.9630    0.0000 O   0  0  0  0  0  0  0  0  0  0  0  0
   -2.6385   -1.3623    0.0000 C   0  0  0  0  0  0  0  0  0  0  0  0
   -3.5627   -2.5438    0.0000 O   0  0  0  0  0  0  0  0  0  0  0  0
    1.2562   -0.6000    0.0000 C   0  0  0  0  0  0  0  0  0  0  0  0
    0.3320   -1.7815    0.0000 C   0  0  0  0  0  0  0  0  0  0  0  0
    1.8173   -1.9911    0.0000 C   0  0  0  0  0  0  0  0  0  0  0  0
    3.3026   -2.2008    0.0000 C   0  0  0  0  0  0  0  0  0  0  0  0
    4.2268   -1.0193    0.0000 C   0  0  0  0  0  0  0  0  0  0  0  0
    3.6657    0.3718    0.0000 C   0  0  0  0  0  0  0  0  0  0  0  0
    3.6142    1.8709    0.0000 C   0  0  0  0  0  0  0  0  0  0  0  0
    5.1331    0.6828    0.0000 C   0  0  0  0  0  0  0  0  0  0  0  0
    2.1804    0.5814    0.0000 C   0  0  0  0  0  0  0  0  0  0  0  0
    1.6193    1.9725    0.0000 C   0  0  0  0  0  0  0  0  0  0  0  0
    0.1340    2.1822    0.0000 C   0  0  0  0  0  0  0  0  0  0  0  0
   -0.4271    3.5733    0.0000 O   0  0  0  0  0  0  0  0  0  0  0  0
  1  2  2  0
  2  3  1  0
  3  4  1  1
  3  5  1  0
  5  6  1  0
  6  7  2  0
  7  8  1  0
  8  9  2  0
  8 10  1  0
 10 11  1  1
  7 12  1  0
 12 13  1  1
 12 14  1  0
 14 15  1  0
 15 16  1  0
 16 17  1  0
 17 18  1  0
 17 19  1  0
 17 20  1  0
 20 21  1  1
 21 22  1  0
 22 23  2  0
 10  3  1  0
 20 12  1  0
 22  6  1  0
M  END
>  <identifier>  (1730) 
CNP0226355.1

>  <canonical_smiles>  (1730) 
C=C[C@]1(C)CC2=C(C(=O)[C@H]1O)[C@@]1(C)CCCC(C)(C)[C@@H]1CC2=O

>  <standard_inchi>  (1730) 
InChI=1S/C20H28O3/c1-6-19(4)11-12-13(21)10-14-18(2,3)8-7-9-20(14,5)15(12)16(22)17(19)23/h6,14,17,23H,1,7-11H2,2-5H3/t14-,17+,19+,20-/m0/s1

>  <standard_inchi_key>  (1730) 
NENSRVNWZVYARF-GVXRKXQCSA-N

>  <name>  (1730) 
nan

>  <iupac_name>  (1730) 
(2~{S},3~{S},4~{b}~{S},8~{a}~{S})-3-hydroxy-2,4~{b},8,8-tetramethyl-2-vinyl-3,5,6,7,8~{a},9-hexahydro-1~{H}-phenanthrene-4,10-dione

>  <annotation_level>  (1730) 
4

>  <total_atom_count>  (1730) 
51

>  <heavy_atom_count>  (1730) 
23

>  <molecular_weight>  (1730) 
316.44

>  <exact_molecular_weight>  (1730) 
316.20384

>  <molecular_formula>  (1730) 
C20H28O3

>  <alogp>  (1730) 
3.61

>  <topological_polar_surface_area>  (1730) 
54.37

>  <rotatable_bond_count>  (1730) 
1

>  <hydrogen_bond_acceptors>  (1730) 
3

>  <hydrogen_bond_donors>  (1730) 
1

>  <hydrogen_bond_acceptors_lipinski>  (1730) 
3

>  <hydrogen_bond_donors_lipinski>  (1730) 
1

>  <lipinski_rule_of_five_violations>  (1730) 
0

>  <aromatic_rings_count>  (1730) 
0

>  <qed_drug_likeliness>  (1730) 
0.75

>  <formal_charge>  (1730) 
0

>  <fractioncsp3>  (1730) 
0.70

>  <number_of_minimal_rings>  (1730) 
3

>  <van_der_walls_volume>  (1730) 
nan

>  <contains_sugar>  (1730) 
False

>  <contains_ring_sugars>  (1730) 
False

>  <contains_linear_sugars>  (1730) 
False

>  <murcko_framework>  (1730) 
C12=C(CCCC1)C3CCCCC3CC2

>  <np_likeness>  (1730) 
2.96

>  <chemical_class>  (1730) 
Prenol lipids

>  <chemical_sub_class>  (1730) 
Diterpenoids

>  <chemical_super_class>  (1730) 
Lipids and lipid-like molecules

>  <direct_parent_classification>  (1730) 
Diterpenoids

>  <np_classifier_pathway>  (1730) 
Terpenoids

>  <np_classifier_superclass>  (1730) 
Diterpenoids

>  <np_classifier_class>  (1730) 
Norpimarane and Norisopimarane diterpenoids

>  <np_classifier_is_glycoside>  (1730) 
False

>  <organisms>  (1730) 
Vellozia compacta

>  <collections>  (1730) 
Latin America dataset|NuBBEDB|Super Natural II|WikiData Natural Products|ZINC NP

>  <dois>  (1730) 
10.1016/0031-9422(83)80034-X

>  <synonyms>  (1730) 
12\u221a\u00e9\u00ac\u2264-hydroxy-711-dioxopimar-8(9)15-diene

>  <cas>  (1730) 
nan

$$$$

     RDKit          2D

 30 33  0  0  0  0  0  0  0  0999 V2000
  -11.1471   -0.0021    0.0000 C   0  0  0  0  0  0  0  0  0  0  0  0
   -9.7105    0.4294    0.0000 C   0  0  0  0  0  0  0  0  0  0  0  0
   -9.3658    1.8893    0.0000 C   0  0  0  0  0  0  0  0  0  0  0  0
   -8.6185   -0.5990    0.0000 C   0  0  0  0  0  0  0  0  0  0  0  0
   -7.1819   -0.1676    0.0000 C   0  0  0  0  0  0  0  0  0  0  0  0
   -6.0900   -1.1960    0.0000 O   0  0  0  0  0  0  0  0  0  0  0  0
   -4.6533   -0.7645    0.0000 C   0  0  0  0  0  0  0  0  0  0  0  0
   -4.3087    0.6953    0.0000 C   0  0  0  0  0  0  0  0  0  0  0  0
   -2.8721    1.1268    0.0000 C   0  0  0  0  0  0  0  0  0  0  0  0
   -1.7801    0.0984    0.0000 C   0  0  0  0  0  0  0  0  0  0  0  0
   -0.3435    0.5298    0.0000 C   0  0  0  0  0  0  0  0  0  0  0  0
    0.0012    1.9897    0.0000 C   0  0  0  0  0  0  0  0  0  0  0  0
    1.4378    2.4211    0.0000 O   0  0  0  0  0  0  0  0  0  0  0  0
    2.5297    1.3927    0.0000 C   0  0  0  0  0  0  0  0  0  0  0  0
    3.9663    1.8241    0.0000 C   0  0  0  0  0  0  0  0  0  0  0  0
    5.0583    0.7957    0.0000 C   0  0  0  0  0  0  0  0  0  0  0  0
    4.7136   -0.6641    0.0000 C   0  0  0  0  0  0  0  0  0  0  0  0
    5.8056   -1.6926    0.0000 C   0  0  0  0  0  0  0  0  0  0  0  0
    7.2422   -1.2611    0.0000 C   0  0  0  0  0  0  0  0  0  0  0  0
    7.5868    0.1988    0.0000 C   0  0  0  0  0  0  0  0  0  0  0  0
    8.4100    1.4527    0.0000 C   0  0  0  0  0  0  0  0  0  0  0  0
    8.9647   -0.3942    0.0000 C   0  0  0  0  0  0  0  0  0  0  0  0
    6.4949    1.2272    0.0000 O   0  0  0  0  0  0  0  0  0  0  0  0
    3.2770   -1.0956    0.0000 C   0  0  0  0  0  0  0  0  0  0  0  0
    2.9323   -2.5554    0.0000 O   0  0  0  0  0  0  0  0  0  0  0  0
    2.1851   -0.0672    0.0000 C   0  0  0  0  0  0  0  0  0  0  0  0
    0.7484   -0.4986    0.0000 C   0  0  0  0  0  0  0  0  0  0  0  0
    0.4038   -1.9585    0.0000 O   0  0  0  0  0  0  0  0  0  0  0  0
   -2.1248   -1.3615    0.0000 C   0  0  0  0  0  0  0  0  0  0  0  0
   -3.5614   -1.7930    0.0000 C   0  0  0  0  0  0  0  0  0  0  0  0
  1  2  1  0
  2  3  1  0
  2  4  2  0
  4  5  1  0
  5  6  1  0
  6  7  1  0
  7  8  2  0
  8  9  1  0
  9 10  2  0
 10 11  1  0
 11 12  2  0
 12 13  1  0
 13 14  1  0
 14 15  2  0
 15 16  1  0
 16 17  2  0
 17 18  1  0
 18 19  2  0
 19 20  1  0
 20 21  1  0
 20 22  1  0
 20 23  1  0
 17 24  1  0
 24 25  1  0
 24 26  2  0
 26 27  1  0
 27 28  2  0
 10 29  1  0
 29 30  2  0
 30  7  1  0
 27 11  1  0
 26 14  1  0
 23 16  1  0
M  END
>  <identifier>  (1731) 
CNP0172540.0

>  <canonical_smiles>  (1731) 
CC(C)=CCOC1=CC=C(C2=COC3=CC4=C(C=CC(C)(C)O4)C(O)=C3C2=O)C=C1

>  <standard_inchi>  (1731) 
InChI=1S/C25H24O5/c1-15(2)10-12-28-17-7-5-16(6-8-17)19-14-29-21-13-20-18(9-11-25(3,4)30-20)23(26)22(21)24(19)27/h5-11,13-14,26H,12H2,1-4H3

>  <standard_inchi_key>  (1731) 
OHVOXMFXCZKNPR-UHFFFAOYSA-N

>  <name>  (1731) 
Deoxyisoauriculatin

>  <iupac_name>  (1731) 
5-hydroxy-2,2-dimethyl-7-[4-(3-methylbut-2-enoxy)phenyl]pyrano[3,2-g]chromen-6-one

>  <annotation_level>  (1731) 
5

>  <total_atom_count>  (1731) 
54

>  <heavy_atom_count>  (1731) 
30

>  <molecular_weight>  (1731) 
404.46

>  <exact_molecular_weight>  (1731) 
404.16237

>  <molecular_formula>  (1731) 
C25H24O5

>  <alogp>  (1731) 
5.69

>  <topological_polar_surface_area>  (1731) 
68.90

>  <rotatable_bond_count>  (1731) 
4

>  <hydrogen_bond_acceptors>  (1731) 
5

>  <hydrogen_bond_donors>  (1731) 
1

>  <hydrogen_bond_acceptors_lipinski>  (1731) 
5

>  <hydrogen_bond_donors_lipinski>  (1731) 
1

>  <lipinski_rule_of_five_violations>  (1731) 
1

>  <aromatic_rings_count>  (1731) 
3

>  <qed_drug_likeliness>  (1731) 
0.57

>  <formal_charge>  (1731) 
0

>  <fractioncsp3>  (1731) 
0.24

>  <number_of_minimal_rings>  (1731) 
4

>  <van_der_walls_volume>  (1731) 
364.97

>  <contains_sugar>  (1731) 
False

>  <contains_ring_sugars>  (1731) 
False

>  <contains_linear_sugars>  (1731) 
False

>  <murcko_framework>  (1731) 
O1C=C(c2ccccc2)Cc3cc4C=CCOc4cc13

>  <np_likeness>  (1731) 
2.07

>  <chemical_class>  (1731) 
Isoflavonoids

>  <chemical_sub_class>  (1731) 
Isoflav-2-enes

>  <chemical_super_class>  (1731) 
Phenylpropanoids and polyketides

>  <direct_parent_classification>  (1731) 
Isoflavones

>  <np_classifier_pathway>  (1731) 
Shikimates and Phenylpropanoids

>  <np_classifier_superclass>  (1731) 
Isoflavonoids

>  <np_classifier_class>  (1731) 
Isoflavones

>  <np_classifier_is_glycoside>  (1731) 
False

>  <organisms>  (1731) 
Derris|Derris sp.|Derris spp.|Millettia auriculata|Millettia extensa

>  <collections>  (1731) 
KNApSaCK|Latin America dataset|NPASS|NPEdia|NuBBEDB|Super Natural II|UNPD (Universal Natural Products Database)|WikiData Natural Products|ZINC NP

>  <dois>  (1731) 
10.1021/acs.jnatprod.8b00321|10.1590/1809-43921982123615

>  <synonyms>  (1731) 
4'-O-Prenylalpinumisoflavone|CHEMBL1970103|LMPK12050206|NCI60_018445|NSC652733

>  <cas>  (1731) 
nan

$$$$

     RDKit          2D

 24 26  0  0  0  0  0  0  0  0999 V2000
   -3.1442    4.0021    0.0000 C   0  0  0  0  0  0  0  0  0  0  0  0
   -4.0524    2.8083    0.0000 O   0  0  0  0  0  0  0  0  0  0  0  0
   -3.4727    1.4248    0.0000 C   0  0  0  0  0  0  0  0  0  0  0  0
   -1.9847    1.2352    0.0000 C   0  0  0  0  0  0  0  0  0  0  0  0
   -1.4050   -0.1483    0.0000 C   0  0  0  0  0  0  0  0  0  0  0  0
    0.0829   -0.3380    0.0000 C   0  0  0  0  0  0  0  0  0  0  0  0
    0.6626   -1.7214    0.0000 C   0  0  0  0  0  0  0  0  0  0  0  0
    2.1506   -1.9111    0.0000 C   0  0  0  0  0  0  0  0  0  0  0  0
    2.7303   -3.2945    0.0000 O   0  0  0  0  0  0  0  0  0  0  0  0
    3.0588   -0.7173    0.0000 C   0  0  0  0  0  0  0  0  0  0  0  0
    4.5468   -0.9070    0.0000 C   0  0  0  0  0  0  0  0  0  0  0  0
    5.1265   -2.2904    0.0000 O   0  0  0  0  0  0  0  0  0  0  0  0
    5.4551    0.2868    0.0000 C   0  0  0  0  0  0  0  0  0  0  0  0
    4.8753    1.6702    0.0000 C   0  0  0  0  0  0  0  0  0  0  0  0
    5.7836    2.8640    0.0000 O   0  0  0  0  0  0  0  0  0  0  0  0
    3.3874    1.8599    0.0000 C   0  0  0  0  0  0  0  0  0  0  0  0
    2.4791    0.6661    0.0000 C   0  0  0  0  0  0  0  0  0  0  0  0
    0.9912    0.8558    0.0000 O   0  0  0  0  0  0  0  0  0  0  0  0
   -2.3133   -1.3421    0.0000 C   0  0  0  0  0  0  0  0  0  0  0  0
   -3.8012   -1.1524    0.0000 C   0  0  0  0  0  0  0  0  0  0  0  0
   -4.7095   -2.3462    0.0000 O   0  0  0  0  0  0  0  0  0  0  0  0
   -6.1974   -2.1565    0.0000 C   0  0  0  0  0  0  0  0  0  0  0  0
   -4.3809    0.2311    0.0000 C   0  0  0  0  0  0  0  0  0  0  0  0
   -5.8689    0.4207    0.0000 O   0  0  0  0  0  0  0  0  0  0  0  0
  1  2  1  0
  2  3  1  0
  3  4  2  0
  4  5  1  0
  5  6  1  0
  6  7  2  0
  7  8  1  0
  8  9  2  0
  8 10  1  0
 10 11  2  0
 11 12  1  0
 11 13  1  0
 13 14  2  0
 14 15  1  0
 14 16  1  0
 16 17  2  0
 17 18  1  0
  5 19  2  0
 19 20  1  0
 20 21  1  0
 21 22  1  0
 20 23  2  0
 23 24  1  0
 23  3  1  0
 18  6  1  0
 17 10  1  0
M  END
>  <identifier>  (1732) 
CNP0147465.0

>  <canonical_smiles>  (1732) 
COC1=CC(C2=CC(=O)C3=C(O)C=C(O)C=C3O2)=CC(OC)=C1O

>  <standard_inchi>  (1732) 
InChI=1S/C17H14O7/c1-22-14-3-8(4-15(23-2)17(14)21)12-7-11(20)16-10(19)5-9(18)6-13(16)24-12/h3-7,18-19,21H,1-2H3

>  <standard_inchi_key>  (1732) 
HRGUSFBJBOKSML-UHFFFAOYSA-N

>  <name>  (1732) 
Tricin

>  <iupac_name>  (1732) 
5,7-dihydroxy-2-(4-hydroxy-3,5-dimethoxy-phenyl)chromen-4-one

>  <annotation_level>  (1732) 
5

>  <total_atom_count>  (1732) 
38

>  <heavy_atom_count>  (1732) 
24

>  <molecular_weight>  (1732) 
330.29

>  <exact_molecular_weight>  (1732) 
330.07395

>  <molecular_formula>  (1732) 
C17H14O7

>  <alogp>  (1732) 
2.59

>  <topological_polar_surface_area>  (1732) 
109.36

>  <rotatable_bond_count>  (1732) 
3

>  <hydrogen_bond_acceptors>  (1732) 
7

>  <hydrogen_bond_donors>  (1732) 
3

>  <hydrogen_bond_acceptors_lipinski>  (1732) 
7

>  <hydrogen_bond_donors_lipinski>  (1732) 
3

>  <lipinski_rule_of_five_violations>  (1732) 
0

>  <aromatic_rings_count>  (1732) 
3

>  <qed_drug_likeliness>  (1732) 
0.68

>  <formal_charge>  (1732) 
0

>  <fractioncsp3>  (1732) 
0.12

>  <number_of_minimal_rings>  (1732) 
3

>  <van_der_walls_volume>  (1732) 
274.07

>  <contains_sugar>  (1732) 
False

>  <contains_ring_sugars>  (1732) 
False

>  <contains_linear_sugars>  (1732) 
False

>  <murcko_framework>  (1732) 
O1c2ccccc2CC=C1c3ccccc3

>  <np_likeness>  (1732) 
1.33

>  <chemical_class>  (1732) 
Flavonoids

>  <chemical_sub_class>  (1732) 
O-methylated flavonoids

>  <chemical_super_class>  (1732) 
Phenylpropanoids and polyketides

>  <direct_parent_classification>  (1732) 
3'-O-methylated flavonoids

>  <np_classifier_pathway>  (1732) 
Shikimates and Phenylpropanoids

>  <np_classifier_superclass>  (1732) 
Flavonoids

>  <np_classifier_class>  (1732) 
Flavones

>  <np_classifier_is_glycoside>  (1732) 
False

>  <organisms>  (1732) 
Acer carpinifolium|Acia oblonga|Actinidia chinensis var. deliciosa|Actinidia chinensis var. hispida|Aechmea glomerata|Agathis lanceolata|Agelaea pentagyna|Aglaia tsangii|Albizia julibrissin|Alloberberis fremontii|Alternaria kikuchiana|Anaphalis lactea|Anaxagorea dolichocarpa|Annulohypoxylon cohaerens|Anthemis pseudocotula|Apis mellifera|Artemisia anomala|Artemisia copa|Artemisia giraldii|Artemisia ludoviciana|Artemisia ludoviciana subsp. mexicana|Artemisia mesatlantica|Artemisia minor|Artemisia rutifolia|Artemisia santolina|Artemisia sublessingiana|Artemisia vulgaris|Artemisia xerophytica|Arthrostylis aphylla|Arundo donax|Asparagus africanus|Atractylodes macrocephala|Avena sp.|Baccharis sagittalis|Bambusa emeiensis|Baphicacanthus cusia|Berberis trifoliata|Berberis trifoliolata|Boehmeria nivea|Bolboschoenus caldwellii|Bolboschoenus fluviatilis|Bontia bontioides|Bulbostylis barbata|Bulbostylis densa|Cacospongia scalaris|Caesalpinia crista|Camellia sinensis|Capsicum annuum|Capsicum tetragonum|Carex appressa|Carex fraseriana|Carex nigra|Carex sp.|Carpha alpina|Carpha nivicola|Castilleja fissifolia|Caustis dioica|Caustis flexuosa|Caustis recurvata|Cedrela fissilis|Centipeda minima|Choriaster granulatus|Chrysanthemum indicum|Chrysanthemum x morifolium|Chrysolaena verbascifolia|Cirsium setosum|Cleistopholis staudtii|Clerodendron trichotomum|Clerodendrum japonicum|Clerodendrum trichotomum|Coptis chinensis|Crocus heuffelianus|Crosslandia setifolia|Crotalaria anagyroides|Croton megistocarpus|Croton poilanei|Cyanthillium patulum|Cyathochaeta avenacea|Cyathochaeta diandra|Cynanchum chinense|Cyperus congestus|Cyperus enervis|Cyperus gunnii|Cyperus haspan|Cyperus iria|Cyperus leptocarpus|Cyperus microcephalus|Cyperus scariosus|Cyperus sculptus|Cyperus sphaeroideus|Cyperus trinervis|Dasymaschalon sootepense|Dendrobates azureus|Deschampsia antarctica|Dichilus reflexus|Dictyoloma incanescens|Dictyopteris undulata|Dioscorea gracillima|Dipteryx odorata|Dorycnium suffruticosum|Dracaena concinna|Dysidea tupha|Echinacea pallida|Echinochloa esculenta|Echium rubrum|Eichhornia crassipes|Eleocharis brassii|Eleocharis cylindrostachys|Eleocharis dietrichiana|Eleocharis dulcis|Eleocharis geniculata|Eleocharis minuta|Eleocharis pallens|Eleocharis pusilla|Eleocharis sphacelata|Elymus repens|Entada africana|Entada polystachya|Eperua bijuga|Ephedra sinica|Epimedium acuminatum|Epimedium brevicornu|Epimedium brevicornum|Epimedium coactum|Epimedium grandiflorum|Epimedium grandiflorum var. koreanum|Epimedium hunanense|Epimedium koreanum|Epimedium pubescens|Epimedium sagittatum|Epimedium sempervirens|Epimedium truncatum|Epimedium wushanense|Eremogone kansuensis|Ericerus pela|Eriophorum scheuchzeri|Espeletia lutescens|Euonymus sachalinensis|Eupatorium adenophorum|Eupatorium mikanioides|Eutrema scapiflorum|Evernia vulpina|Exocarya sclerioides|Exostema mexicanum|Fagara chiloperone|Fallopia multiflora|Felicia erigeroides|Ficinia nodosa|Fimbristylis bisumbellata|Fimbristylis caespitosa|Fimbristylis cephalophora|Fimbristylis dichotoma|Fimbristylis eremophila|Fimbristylis ferruginea|Fimbristylis littoralis|Fimbristylis macrantha|Fimbristylis nutans|Fimbristylis oxystachya|Fimbristylis pachyptera|Fimbristylis schultzii|Fimbristylis squarrulosa|Fimbristylis tetragona|Fuligo candida|Fumaria indica|Gahnia aspera|Gahnia deusta|Gahnia filifolia|Gahnia lanigera|Gahnia microstachya|Gahnia radula|Gahnia sieberiana|Gahnia subaequiglumis|Galium dasypodum|Gastrophysa cyanea|Geranium sibiricum|Gnaphalium sylvaticum|Goniothalamus thwaitesii|Guatteria melosma|Gymnocolea inflata|Gynerium sagittatum|Halichondria melanadocia|Helichrysum lepidissimum|Helicteres angustifolia|Helleborus multifidus|Hendersonula toruloidea|Herba lagotidis|Herba meconpsis integrifoliae|Herba sedi sarmentosi|Heterochordaria abietina|Holotrichia diomphalia|Hopea utilis|Hoya carnosa|Hydnocarpus setumpul|Hymenaea oblongifolia var. palustris|Hymenaea palustris Ducke|Hymeneae palustris|Hyparrhenia hirta|Hypericum revolutum|Iberis sempervirens|Inocybe geophylla|Isodon amethystoides|Isodon japonica var. glaucocalyx|Isolepis habra|Isolepis humillima|Isolepis inundata|Isolepis producta|Isolepis prolifera|Isolepis sepulcralis|Kadsura interior|Kniphofia pumila|Lagerstroemia indica|Laurencia saitoi|Ledebouria floribunda|Lepidaploa remotiflora|Lepidosperma costale|Lepidosperma effusum|Lepidosperma filiforme|Lepidosperma flexuosum|Lepidosperma forsythii|Lepidosperma laterale|Lepidosperma lineare|Lepidosperma neesii|Lepidosperma pruinosum|Lepidosperma tenue|Lepidosperma urophorum|Lepidosperma ustulatum|Lepraria membranacea|Lespedeza virgata|Leucas cephalotes|Leucas cephalotes SPRENG.|Leuzea centauroides|Liparis keitaoensis|Liparis loeselii|Lipocarpha microcephala|Litsea salicifolia|Livistona australis|Lobophytum chevalieri|Lonicera japonica|Lupinus paniculatus|Lycopodium japonicum|Lycopodium sp.|Lycoris traubii|Lygodium flexuosum|Magnolia pterocarpa|Malagasy connaraceous|Malassezia furfur|Mangifera indica|Meconopsis punicea|Medicago Sativa|Medicago sativa|Medicago sp.|Medicago truncatula|Melanargia galathea|Mesembryanthemum expansum|Mesomelaena graciliceps|Mesomelaena pseudostygia|Mesomelaena tetragona|Methylobacterium rhodinum|Millettia laurentii|Miscanthus Sinensis|Miscanthus sinensis|Monascus pilosus|Monomeria barbata|Myoporum bontioides|Myoporum tenuifolium|Myrtopsis novae-caledoniae|Neocosmospora tenuicristata|Neodiprion sertifer|Neolitsea pulchella|Oenanthe pimpinelloides|Omalotheca sylvatica|Ophelia neglecta|Ophiorrhiza kuroiwae|Oreobolus distichus|Oreobolus pumilio|Orobanche speciosa|Oroxylum indicum|Oryza sativa|Osmorhiza aristata|Pachyrhizus tuberosus|Panax ginseng|Papaver macrostomum|Patersonia fragilis|Pedicularis longiflora|Pedicularis procera|Penstemon newberryi|Persea kusanoi|Petalonia fascia|Phellodendron chinense|Phlomoides rotata|Phoenix canariensis|Phoma violacea|Phragmites Communis|Phragmites australis|Phragmites communis|Plectranthus nummularius|Plexaurella nutans|Poa annua|Poa huecu|Polyalthia acuminata|Polygonum multiflorum|Populus tomentosa|Premna microphylla|Pseudocyphellaria faveolata|Pseudocyphellaria hirsuta|Pseuduvaria indochinensis|Psychotria serpens|Pteris setuloso-costulata|Ptilothrix deusta|Pycnandra acuminata|Ranunculus japonicus|Ranunculus sieboldii|Rhodiola crenulata|Rhodiola rosea|Rhodiola sachalinensis|Rhodiola sp.|Rhynchospora brownii|Rhynchospora heterochaeta|Rhynchospora leae|Rhynchospora rubra|Roemeria carica|Saccharum spontaneum|Salsola collina|Salvinia imbricata|Sasa veitchii|Scabiosa succisa|Schefferomitra subaequalis|Schoenoplectiella mucronata|Schoenoplectus tabernaemontani|Schoenus apogon|Schoenus asperocarpus|Schoenus bifidus|Schoenus brevifolius|Schoenus calostachyus|Schoenus clandestinus|Schoenus fluitans|Schoenus hexandrus|Schoenus latitans|Schoenus moorei|Schoenus sesquispicula|Schoenus sesquispiculus|Schoenus sparteus|Schoenus submicrostachyus|Schoenus unispiculatus|Schumanniophyton magnificum|Scirpus polystachyus|Scleria novae-hollandiae|Scleria sphacelata|Scleria tricuspidata|Scutellaria amoena|Scutellaria baicalensis|Scutellaria balcalensis|Securinega melanthesoides|Senecio ambraceus|Senecio isatideus|Simaba orinocensis|Sinocalamus affinis|Smilax Bracteata|Smilax bracteata|Solanum chilense|Spartina cynosuroides|Spongia agaricina|Sporobolus cynosuroides|Stereospermum acuminatissimum|Stigmatella erecta|Stipa vaseyi|Strychnos staudtii|Suberea mollis|Sugarcane|Tanacetum larvatum|Tephrosia fulvinervis|Tetraria capillaris|Tetraria octandra|Teucrium heterophyllum|Thelephora palmata|Thiocystis gelatinosa|Thorectandra excavatus|Thunnus orientalis|Timothy-grass|Trachystylis stradbrokensis|Trichocereus peruvianus|Trichophorum cespitosum|Trichosanthes rosthornii|Tricostularia neesii|Tricostularia pauciflora|Trigonella foenum|Trigonella foenum-graecum|Triticum estivum|Tsuga mertensiana|Valeriana laxiflora|Vernonia anisochaetoides|Veronica polita|Veronica sp.|Vigna angularis|Viola formosana|Viola reichenbachiana|Vitex limonifolia|Wikstroemia Indica|Wikstroemia indica|Wikstroemia lanceolata|Wikstroemia retusa|Wikstroemia sp.|Xanthocephalum gymnospermoides|Xerophyta retinervis|pomegranate

>  <collections>  (1732) 
ANPDB|AfroCancer|Australian natural products|CMAUP (cCollective molecular activities of useful plants)|ChEBI NPs|ConMedNP|ETM (Ethiopian Traditional Medicine) DB|FooDB|GNPS (Global Natural Products Social Molecular Networking)|HIM (Herbal Ingredients in-vivo Metabolism database)|HIT (Herbal Ingredients Targets)|KNApSaCK|Latin America dataset|NANPDB (Natural Products from Northern African Sources)|NPACT|NPASS|NPEdia|NuBBEDB|Phyto4Health|PhytoLab phyproof® Reference Substances|Super Natural II|TCMDB-Taiwan (Traditional Chinese Medicine database)|TCMID (Traditional Chinese Medicine Integrated Database)|TIPdb (database of Taiwan indigenous plants)|UNPD (Universal Natural Products Database)|VietHerb|WikiData Natural Products|ZINC NP

>  <dois>  (1732) 
10.1002/JCCS.199300046|10.1002/JCCS.200400094|10.1007/BF00575035|10.1007/BF00579497|10.1007/BF00581612|10.1007/BF00597728|10.1007/BF00598093|10.1007/BF00713339|10.1007/BF01880089|10.1007/BF02323285|10.1007/S10600-005-0108-9|10.1007/S10600-006-0265-5|10.1007/S10600-011-9795-6|10.1007/S10600-011-9848-X|10.1007/S10600-011-9896-2|10.1007/S10600-015-1519-X|10.1016/0021-9673(93)80317-2|10.1016/0031-9422(73)85046-0|10.1016/0031-9422(80)85088-6|10.1016/0031-9422(82)80045-9|10.1016/0031-9422(82)83200-7|10.1016/0031-9422(86)80079-6|10.1016/0031-9422(91)80015-S|10.1016/0031-9422(94)85097-6|10.1016/0031-9422(95)00715-6|10.1016/0305-1978(88)90056-7|10.1016/J.BSE.2014.02.015|10.1016/J.CHROMA.2019.460472|10.1016/J.FITOTE.2006.11.018|10.1016/J.FOODCHEM.2008.11.094|10.1016/J.FOODCHEM.2019.125629|10.1016/J.PHYTOCHEM.2007.03.007|10.1016/J.PHYTOCHEM.2007.05.016|10.1016/J.PHYTOCHEM.2007.05.035|10.1016/J.PHYTOCHEM.2008.01.002|10.1016/J.PHYTOCHEM.2008.07.002|10.1016/J.TET.2003.08.026|10.1016/S0031-9422(00)81782-3|10.1016/S0031-9422(00)82492-9|10.1016/S0031-9422(00)82535-2|10.1016/S0031-9422(00)83142-8|10.1016/S0031-9422(00)84808-6|10.1016/S0031-9422(00)84889-X|10.1016/S0031-9422(00)89660-0|10.1016/S0031-9422(00)90814-8|10.1016/S0031-9422(01)00273-4|10.1016/S0305-1978(00)00093-4|10.1016/S0305-1978(01)00025-4|10.1016/S0305-1978(01)00028-X|10.1016/S1875-5364(19)30114-1|10.1016/j.indcrop.2017.10.057|10.1021/JF00043A032|10.1021/JF9801264|10.1021/JF990498S|10.1021/NP020231E|10.1021/NP030020P|10.1021/NP0580107|10.1021/NP200117Y|10.1021/NP50013A020|10.1021/NP50017A003|10.1021/NP50028A035|10.1021/NP50048A053|10.1021/NP50096A021|10.1021/NP800016E|10.1021/NP800643N|10.1021/np020231e|10.1021/np030020p|10.1021/np0580107|10.1021/np200117y|10.1021/np50017a003|10.1055/S-0036-1596440|10.1055/S-2004-815540|10.1055/S-2004-827149|10.1055/S-2005-873169|10.1055/S-2005-873177|10.1055/S-2006-957690|10.1055/S-2006-957841|10.1055/S-2006-959387|10.1055/S-2006-961557|10.1055/S-2007-969512|10.1055/S-2008-1074547|10.1080/13880200701538948|10.1080/14786419.2011.587188|10.1093/CHROMSCI/35.3.117|10.1135/CCCC19883193|10.1177/1934578X1000500521|10.1248/CPB.38.2281|10.1248/CPB.54.1370|10.1248/CPB.55.1505|10.1248/CPB.60.129|10.1271/BBB.64.443|10.1515/ZNC-1984-1-204|10.3987/COM-04-10314|10.4268/CJCMM20100613|10.4268/CJCMM20141334|10.4268/CJCMM20151817|10.4268/CJCMM20151921

>  <synonyms>  (1732) 
3',5'-DIMETHOXY-4',5,7-TRIHYDROXYFLAVONE|3',5'-O-dimethyltricetin|3',5'-di-O-methyltricetin|4',5,7-TRIHYDROXY-3',5'-DIMETHOXY-FLAVONE|4',5,7-Trihydroxy 3',5'-dimethoxyflavone|4H-1-BENZOPYRAN-4-ONE, 5,7-DIHYDROXY-2-(4-HYDROXY-3,5-DIMETHOXYPHENYL)-|5,7,4'-trihydroxy-3',5'-dimethoxyflavone|5,7-Dihydroxy-2-(4-hydroxy-3,5-dimethoxyphenyl)-4H-1-benzopyran-4-one|5,7-dihydroxy-2-(4-hydroxy-3,5-dimethoxyphenyl)-4H-chromen-4-one|520-32-1|AC-34503|AKOS005606119|AMY33321|AS-78676|BDBM50487758|CHEBI:59979|CHEMBL454320|CS-0016415|D51JZL38TQ|DTXCID80122456|DTXSID20199965|EX-A6798|F0001-1352|FLAVONE, 4',5,7-TRIHYDROXY-3',5'-DIMETHOXY-|HRGUSFBJBOKSML-UHFFFAOYSA-N|HY-N1127|LMPK12110873|MFCD00210580|NS00122041|NSC-294579|Q3055452|SCHEMBL44475|STK694538|Tricetin 3',5'-di-methyl ether|Tricin 5-diglucoside|Tricin 7-triglucuronoside|Tricin, 574-trihydroxy-35-dimethoxyflavone|Tricin?|UNII-D51JZL38TQ|tricin

>  <cas>  (1732) 
520-32-1

$$$$

     RDKit          2D

 25 28  0  0  0  0  0  0  0  0999 V2000
    4.0924   -4.7918    0.0000 C   0  0  0  0  0  0  0  0  0  0  0  0
    4.0840   -3.2918    0.0000 C   0  0  0  0  0  0  0  0  0  0  0  0
    2.7809   -2.5490    0.0000 C   0  0  0  0  0  0  0  0  0  0  0  0
    2.7725   -1.0490    0.0000 C   0  0  0  0  0  0  0  0  0  0  0  0
    4.0674   -0.2918    0.0000 C   0  0  0  0  0  0  0  0  0  0  0  0
    5.3706   -1.0346    0.0000 O   0  0  0  0  0  0  0  0  0  0  0  0
    4.0590    1.2082    0.0000 C   0  0  0  0  0  0  0  0  0  0  0  0
    5.3539    1.9654    0.0000 O   0  0  0  0  0  0  0  0  0  0  0  0
    5.3455    3.4653    0.0000 C   0  0  0  0  0  0  0  0  0  0  0  0
    2.7558    1.9509    0.0000 C   0  0  0  0  0  0  0  0  0  0  0  0
    1.4610    1.1937    0.0000 C   0  0  0  0  0  0  0  0  0  0  0  0
    1.4693   -0.3063    0.0000 C   0  0  0  0  0  0  0  0  0  0  0  0
    0.0453   -0.7777    0.0000 O   0  0  0  0  0  0  0  0  0  0  0  0
   -0.8431    0.4309    0.0000 C   0  0  0  0  0  0  0  0  0  0  0  0
   -2.3430    0.4225    0.0000 C   0  0  0  0  0  0  0  0  0  0  0  0
   -3.1003    1.7174    0.0000 C   0  0  0  0  0  0  0  0  0  0  0  0
   -4.6002    1.7091    0.0000 C   0  0  0  0  0  0  0  0  0  0  0  0
   -5.3430    0.4059    0.0000 C   0  0  0  0  0  0  0  0  0  0  0  0
   -6.8085    0.0858    0.0000 O   0  0  0  0  0  0  0  0  0  0  0  0
   -6.9570   -1.4068    0.0000 C   0  0  0  0  0  0  0  0  0  0  0  0
   -5.5833   -2.0093    0.0000 O   0  0  0  0  0  0  0  0  0  0  0  0
   -4.5858   -0.8890    0.0000 C   0  0  0  0  0  0  0  0  0  0  0  0
   -3.0858   -0.8806    0.0000 C   0  0  0  0  0  0  0  0  0  0  0  0
    0.0318    1.6493    0.0000 C   0  0  0  0  0  0  0  0  0  0  0  0
   -0.4396    3.0733    0.0000 C   0  0  0  0  0  0  0  0  0  0  0  0
  1  2  2  0
  2  3  1  0
  3  4  1  0
  4  5  2  0
  5  6  1  0
  5  7  1  0
  7  8  1  0
  8  9  1  0
  7 10  2  0
 10 11  1  0
 11 12  2  0
 12 13  1  0
 13 14  1  0
 14 15  1  6
 15 16  2  0
 16 17  1  0
 17 18  2  0
 18 19  1  0
 19 20  1  0
 20 21  1  0
 21 22  1  0
 22 23  2  0
 14 24  1  0
 24 25  1  1
 12  4  1  0
 23 15  1  0
 24 11  1  0
 22 18  1  0
M  END
>  <identifier>  (1733) 
CNP0229639.1

>  <canonical_smiles>  (1733) 
C=CCC1=C(O)C(OC)=CC2=C1O[C@H](C1=CC=C3OCOC3=C1)[C@H]2C

>  <standard_inchi>  (1733) 
InChI=1S/C20H20O5/c1-4-5-13-18(21)17(22-3)9-14-11(2)19(25-20(13)14)12-6-7-15-16(8-12)24-10-23-15/h4,6-9,11,19,21H,1,5,10H2,2-3H3/t11-,19-/m0/s1

>  <standard_inchi_key>  (1733) 
FQNCUTFRYXECPL-WLRWDXFRSA-N

>  <name>  (1733) 
(2S,3S)-2-(1,3-benzodioxol-5-yl)-5-methoxy-3-methyl-7-prop-2-enyl-2,3-dihydro-1-benzofuran-6-ol

>  <iupac_name>  (1733) 
(2~{S},3~{S})-7-allyl-2-(1,3-benzodioxol-5-yl)-5-methoxy-3-methyl-2,3-dihydrobenzofuran-6-ol

>  <annotation_level>  (1733) 
5

>  <total_atom_count>  (1733) 
45

>  <heavy_atom_count>  (1733) 
25

>  <molecular_weight>  (1733) 
340.38

>  <exact_molecular_weight>  (1733) 
340.13107

>  <molecular_formula>  (1733) 
C20H20O5

>  <alogp>  (1733) 
4.10

>  <topological_polar_surface_area>  (1733) 
57.15

>  <rotatable_bond_count>  (1733) 
4

>  <hydrogen_bond_acceptors>  (1733) 
5

>  <hydrogen_bond_donors>  (1733) 
1

>  <hydrogen_bond_acceptors_lipinski>  (1733) 
5

>  <hydrogen_bond_donors_lipinski>  (1733) 
1

>  <lipinski_rule_of_five_violations>  (1733) 
0

>  <aromatic_rings_count>  (1733) 
2

>  <qed_drug_likeliness>  (1733) 
0.85

>  <formal_charge>  (1733) 
0

>  <fractioncsp3>  (1733) 
0.30

>  <number_of_minimal_rings>  (1733) 
4

>  <van_der_walls_volume>  (1733) 
nan

>  <contains_sugar>  (1733) 
False

>  <contains_ring_sugars>  (1733) 
False

>  <contains_linear_sugars>  (1733) 
False

>  <murcko_framework>  (1733) 
O1c2ccc(cc2OC1)C3Oc4ccccc4C3

>  <np_likeness>  (1733) 
1.83

>  <chemical_class>  (1733) 
2-arylbenzofuran flavonoids

>  <chemical_sub_class>  (1733) 
2-arylbenzofuran flavonoids

>  <chemical_super_class>  (1733) 
Phenylpropanoids and polyketides

>  <direct_parent_classification>  (1733) 
2-arylbenzofuran flavonoids

>  <np_classifier_pathway>  (1733) 
Shikimates and Phenylpropanoids

>  <np_classifier_superclass>  (1733) 
Lignans

>  <np_classifier_class>  (1733) 
Neolignans

>  <np_classifier_is_glycoside>  (1733) 
False

>  <organisms>  (1733) 
Aniba citrifolia|Aniba terminalis|Mezilaurus itauba

>  <collections>  (1733) 
Latin America dataset|NPASS|NuBBEDB|Super Natural II|WikiData Natural Products|ZINC NP

>  <dois>  (1733) 
10.1016/0031-9422(75)85303-9|10.1016/S0031-9422(00)81182-6|10.1021/acs.jnatprod.9b00724

>  <synonyms>  (1733) 
2S3S)-7-alIyI-6-hydroxy-5-methoxy-3-methyI-2- piperonyl-23-dihydrobenzofuran|CHEMBL4644374

>  <cas>  (1733) 
nan

$$$$

     RDKit          2D

 45 50  0  0  0  0  0  0  0  0999 V2000
    5.2488    3.8669    0.0000 C   0  0  0  0  0  0  0  0  0  0  0  0
    6.1923    2.7008    0.0000 C   0  0  0  0  0  0  0  0  0  0  0  0
    7.1768    3.8326    0.0000 C   0  0  0  0  0  0  0  0  0  0  0  0
    7.4778    1.9278    0.0000 C   0  0  0  0  0  0  0  0  0  0  0  0
    8.7900    2.6546    0.0000 O   0  0  0  0  0  0  0  0  0  0  0  0
    7.4512    0.4281    0.0000 C   0  0  0  0  0  0  0  0  0  0  0  0
    6.1390   -0.2987    0.0000 C   0  0  0  0  0  0  0  0  0  0  0  0
    4.8535    0.4743    0.0000 C   0  0  0  0  0  0  0  0  0  0  0  0
    4.8268   -1.0255    0.0000 C   0  0  0  0  0  0  0  0  0  0  0  0
    3.5413   -0.2525    0.0000 C   0  0  0  0  0  0  0  0  0  0  0  0
    3.5146   -1.7522    0.0000 C   0  0  0  0  0  0  0  0  0  0  0  0
    2.2025   -2.4790    0.0000 C   0  0  0  0  0  0  0  0  0  0  0  0
    0.9170   -1.7060    0.0000 C   0  0  0  0  0  0  0  0  0  0  0  0
   -0.3952   -2.4328    0.0000 C   0  0  0  0  0  0  0  0  0  0  0  0
   -0.7331   -3.8942    0.0000 C   0  0  0  0  0  0  0  0  0  0  0  0
    0.2506   -5.0266    0.0000 C   0  0  0  0  0  0  0  0  0  0  0  0
    1.7231   -4.7409    0.0000 O   0  0  0  0  0  0  0  0  0  0  0  0
   -0.2382   -6.4448    0.0000 C   0  0  0  0  0  0  0  0  0  0  0  0
    0.7455   -7.5771    0.0000 O   0  0  0  0  0  0  0  0  0  0  0  0
   -2.2275   -4.0245    0.0000 C   0  0  0  0  0  0  0  0  0  0  0  0
   -2.8131   -2.6435    0.0000 C   0  0  0  0  0  0  0  0  0  0  0  0
   -1.6807   -1.6598    0.0000 C   0  0  0  0  0  0  0  0  0  0  0  0
   -3.0399   -1.0254    0.0000 C   0  0  0  0  0  0  0  0  0  0  0  0
   -4.2690   -1.8854    0.0000 O   0  0  0  0  0  0  0  0  0  0  0  0
   -3.1702    0.4689    0.0000 O   0  0  0  0  0  0  0  0  0  0  0  0
   -4.5294    1.1033    0.0000 C   0  0  0  0  0  0  0  0  0  0  0  0
   -4.6597    2.5976    0.0000 O   0  0  0  0  0  0  0  0  0  0  0  0
   -6.0189    3.2320    0.0000 C   0  0  0  0  0  0  0  0  0  0  0  0
   -6.1491    4.7263    0.0000 C   0  0  0  0  0  0  0  0  0  0  0  0
   -4.9201    5.5863    0.0000 O   0  0  0  0  0  0  0  0  0  0  0  0
   -7.2479    2.3721    0.0000 C   0  0  0  0  0  0  0  0  0  0  0  0
   -8.6072    3.0064    0.0000 O   0  0  0  0  0  0  0  0  0  0  0  0
   -7.1177    0.8777    0.0000 C   0  0  0  0  0  0  0  0  0  0  0  0
   -8.3467    0.0178    0.0000 O   0  0  0  0  0  0  0  0  0  0  0  0
   -5.7584    0.2433    0.0000 C   0  0  0  0  0  0  0  0  0  0  0  0
   -5.6282   -1.2510    0.0000 O   0  0  0  0  0  0  0  0  0  0  0  0
   -1.6540   -0.1600    0.0000 C   0  0  0  0  0  0  0  0  0  0  0  0
   -0.3418    0.5667    0.0000 C   0  0  0  0  0  0  0  0  0  0  0  0
    0.9437   -0.2063    0.0000 C   0  0  0  0  0  0  0  0  0  0  0  0
    0.9703    1.2935    0.0000 C   0  0  0  0  0  0  0  0  0  0  0  0
    2.2558    0.5205    0.0000 C   0  0  0  0  0  0  0  0  0  0  0  0
    3.5680    1.2473    0.0000 C   0  0  0  0  0  0  0  0  0  0  0  0
    2.2825    2.0203    0.0000 C   0  0  0  0  0  0  0  0  0  0  0  0
    3.5947    2.7470    0.0000 C   0  0  0  0  0  0  0  0  0  0  0  0
    4.8802    1.9741    0.0000 C   0  0  0  0  0  0  0  0  0  0  0  0
  1  2  1  0
  2  3  1  0
  2  4  1  0
  4  5  1  1
  4  6  1  0
  6  7  1  0
  7  8  1  0
  8  9  1  1
  8 10  1  0
 10 11  1  1
 11 12  1  0
 13 12  1  6
 13 14  1  0
 14 15  1  1
 15 16  1  6
 16 17  2  0
 16 18  1  0
 18 19  1  0
 15 20  1  0
 20 21  1  0
 21 22  1  0
 22 23  1  1
 23 24  2  0
 23 25  1  0
 26 25  1  1
 26 27  1  0
 27 28  1  0
 28 29  1  1
 29 30  1  0
 28 31  1  0
 31 32  1  6
 31 33  1  0
 33 34  1  1
 33 35  1  0
 35 36  1  6
 22 37  1  0
 37 38  1  0
 38 39  1  0
 39 40  1  6
 39 41  1  0
 41 42  1  1
 41 43  1  0
 43 44  1  0
 45 44  1  1
 45  2  1  0
 45  8  1  0
 41 10  1  0
 39 13  1  0
 22 14  1  0
 35 26  1  0
M  END
>  <identifier>  (1734) 
CNP0226687.1

>  <canonical_smiles>  (1734) 
CC1(C)[C@@H](O)CC[C@]2(C)[C@H]3CC[C@@H]4[C@H]5[C@H](C(=O)CO)CC[C@]5(C(=O)O[C@@H]5O[C@H](CO)[C@@H](O)[C@H](O)[C@H]5O)CC[C@@]4(C)[C@]3(C)CC[C@@H]12

>  <standard_inchi>  (1734) 
InChI=1S/C35H56O10/c1-31(2)22-9-12-34(5)23(32(22,3)11-10-24(31)39)7-6-19-25-18(20(38)16-36)8-13-35(25,15-14-33(19,34)4)30(43)45-29-28(42)27(41)26(40)21(17-37)44-29/h18-19,21-29,36-37,39-42H,6-17H2,1-5H3/t18-,19+,21+,22-,23+,24-,25+,26+,27-,28+,29-,32-,33+,34+,35-/m0/s1

>  <standard_inchi_key>  (1734) 
PLXXELYYJOUNNL-GSNRUCFYSA-N

>  <name>  (1734) 
nan

>  <iupac_name>  (1734) 
[(2~{S},3~{R},4~{S},5~{S},6~{R})-3,4,5-trihydroxy-6-(hydroxymethyl)tetrahydropyran-2-yl] (1~{R},3~{a}~{S},5~{a}~{R},5~{b}~{R},7~{a}~{R},9~{S},11~{a}~{R},11~{b}~{R},13~{a}~{R},13~{b}~{S})-9-hydroxy-1-(2-hydroxyacetyl)-5~{a},5~{b},8,8,11~{a}-pentamethyl-1,2,3,4,5,6,7,7~{a},9,10,11,11~{b},12,13,13~{a},13~{b}-hexadecahydrocyclopenta[a]chrysene-3~{a}-carboxylate

>  <annotation_level>  (1734) 
4

>  <total_atom_count>  (1734) 
101

>  <heavy_atom_count>  (1734) 
45

>  <molecular_weight>  (1734) 
636.82

>  <exact_molecular_weight>  (1734) 
636.38735

>  <molecular_formula>  (1734) 
C35H56O10

>  <alogp>  (1734) 
2.33

>  <topological_polar_surface_area>  (1734) 
173.98

>  <rotatable_bond_count>  (1734) 
5

>  <hydrogen_bond_acceptors>  (1734) 
10

>  <hydrogen_bond_donors>  (1734) 
6

>  <hydrogen_bond_acceptors_lipinski>  (1734) 
10

>  <hydrogen_bond_donors_lipinski>  (1734) 
6

>  <lipinski_rule_of_five_violations>  (1734) 
2

>  <aromatic_rings_count>  (1734) 
0

>  <qed_drug_likeliness>  (1734) 
0.25

>  <formal_charge>  (1734) 
0

>  <fractioncsp3>  (1734) 
0.94

>  <number_of_minimal_rings>  (1734) 
6

>  <van_der_walls_volume>  (1734) 
nan

>  <contains_sugar>  (1734) 
True

>  <contains_ring_sugars>  (1734) 
True

>  <contains_linear_sugars>  (1734) 
False

>  <murcko_framework>  (1734) 
O1CCCCC1OCC23CCCC3C4CCC5C6CCCCC6CCC5C4CC2

>  <np_likeness>  (1734) 
2.74

>  <chemical_class>  (1734) 
Organooxygen compounds

>  <chemical_sub_class>  (1734) 
Carbohydrates and carbohydrate conjugates

>  <chemical_super_class>  (1734) 
Organic oxygen compounds

>  <direct_parent_classification>  (1734) 
Monosaccharides

>  <np_classifier_pathway>  (1734) 
Terpenoids

>  <np_classifier_superclass>  (1734) 
Triterpenoids

>  <np_classifier_class>  (1734) 
Lupane triterpenoids

>  <np_classifier_is_glycoside>  (1734) 
True

>  <organisms>  (1734) 
Eugenia florida

>  <collections>  (1734) 
Latin America dataset|NuBBEDB|WikiData Natural Products

>  <dois>  (1734) 
10.1590/S0103-50531999000400011

>  <synonyms>  (1734) 
28-O-\u221a\u00e9\u00ac\u2264-D-glucopyranosyl ester of 29-hydroxyplatanic acid

>  <cas>  (1734) 
nan

$$$$

     RDKit          2D

 67 74  0  0  0  0  0  0  0  0999 V2000
   -1.1315    0.3398    0.0000 O   0  0  0  0  0  0  0  0  0  0  0  0
   -1.0425   -1.1575    0.0000 C   0  0  0  0  0  0  0  0  0  0  0  0
    0.0964   -2.1337    0.0000 O   0  0  0  0  0  0  0  0  0  0  0  0
    1.5113   -1.6355    0.0000 C   0  0  0  0  0  0  0  0  0  0  0  0
    2.3879   -2.8526    0.0000 C   0  0  0  0  0  0  0  0  0  0  0  0
    3.7835   -3.4026    0.0000 O   0  0  0  0  0  0  0  0  0  0  0  0
    5.2548   -3.1108    0.0000 C   0  0  0  0  0  0  0  0  0  0  0  0
    5.9493   -4.4403    0.0000 O   0  0  0  0  0  0  0  0  0  0  0  0
    6.3348   -2.0698    0.0000 C   0  0  0  0  0  0  0  0  0  0  0  0
    7.4260   -3.0990    0.0000 C   0  0  0  0  0  0  0  0  0  0  0  0
    8.8629   -2.6687    0.0000 C   0  0  0  0  0  0  0  0  0  0  0  0
    9.9541   -3.6979    0.0000 O   0  0  0  0  0  0  0  0  0  0  0  0
    9.2087   -1.2091    0.0000 C   0  0  0  0  0  0  0  0  0  0  0  0
   10.6456   -0.7787    0.0000 O   0  0  0  0  0  0  0  0  0  0  0  0
    8.1175   -0.1798    0.0000 C   0  0  0  0  0  0  0  0  0  0  0  0
    8.3945    0.5677    0.0000 O   0  0  0  0  0  0  0  0  0  0  0  0
    6.6806   -0.6102    0.0000 C   0  0  0  0  0  0  0  0  0  0  0  0
    6.1823    0.8046    0.0000 C   0  0  0  0  0  0  0  0  0  0  0  0
    4.9983    1.7255    0.0000 C   0  0  0  0  0  0  0  0  0  0  0  0
    5.2037    3.2114    0.0000 C   0  0  0  0  0  0  0  0  0  0  0  0
    6.5932    3.7764    0.0000 C   0  0  0  0  0  0  0  0  0  0  0  0
    6.7987    5.2622    0.0000 O   0  0  0  0  0  0  0  0  0  0  0  0
    7.7773    2.8555    0.0000 C   0  0  0  0  0  0  0  0  0  0  0  0
    9.1668    3.4205    0.0000 O   0  0  0  0  0  0  0  0  0  0  0  0
    7.5719    1.3696    0.0000 C   0  0  0  0  0  0  0  0  0  0  0  0
    8.2561    0.9606    0.0000 O   0  0  0  0  0  0  0  0  0  0  0  0
    3.5043    1.8600    0.0000 C   0  0  0  0  0  0  0  0  0  0  0  0
    3.2125    3.3314    0.0000 O   0  0  0  0  0  0  0  0  0  0  0  0
    2.1748    1.1655    0.0000 O   0  0  0  0  0  0  0  0  0  0  0  0
    1.4318   -0.1376    0.0000 C   0  0  0  0  0  0  0  0  0  0  0  0
   -0.0278    0.2082    0.0000 C   0  0  0  0  0  0  0  0  0  0  0  0
   -0.8077   -1.0731    0.0000 O   0  0  0  0  0  0  0  0  0  0  0  0
   -2.1918   -1.6513    0.0000 C   0  0  0  0  0  0  0  0  0  0  0  0
   -1.7114   -3.0723    0.0000 O   0  0  0  0  0  0  0  0  0  0  0  0
   -3.6514   -1.3055    0.0000 C   0  0  0  0  0  0  0  0  0  0  0  0
   -4.1478   -2.7210    0.0000 C   0  0  0  0  0  0  0  0  0  0  0  0
   -5.6219   -2.9988    0.0000 C   0  0  0  0  0  0  0  0  0  0  0  0
   -6.1183   -4.4143    0.0000 O   0  0  0  0  0  0  0  0  0  0  0  0
   -6.5995   -1.8611    0.0000 C   0  0  0  0  0  0  0  0  0  0  0  0
   -8.0735   -2.1389    0.0000 O   0  0  0  0  0  0  0  0  0  0  0  0
   -6.1030   -0.4457    0.0000 C   0  0  0  0  0  0  0  0  0  0  0  0
   -7.2120    0.5643    0.0000 O   0  0  0  0  0  0  0  0  0  0  0  0
   -4.6290   -0.1679    0.0000 C   0  0  0  0  0  0  0  0  0  0  0  0
   -4.7512    1.3271    0.0000 C   0  0  0  0  0  0  0  0  0  0  0  0
   -6.2508    1.3619    0.0000 C   0  0  0  0  0  0  0  0  0  0  0  0
   -7.1810    0.1852    0.0000 O   0  0  0  0  0  0  0  0  0  0  0  0
   -6.9705    2.6779    0.0000 C   0  0  0  0  0  0  0  0  0  0  0  0
   -8.4701    2.7127    0.0000 O   0  0  0  0  0  0  0  0  0  0  0  0
   -6.1906    3.9593    0.0000 C   0  0  0  0  0  0  0  0  0  0  0  0
   -6.9103    5.2753    0.0000 O   0  0  0  0  0  0  0  0  0  0  0  0
   -4.6910    3.9245    0.0000 C   0  0  0  0  0  0  0  0  0  0  0  0
   -3.9713    2.6085    0.0000 C   0  0  0  0  0  0  0  0  0  0  0  0
   -2.5872    3.1867    0.0000 C   0  0  0  0  0  0  0  0  0  0  0  0
   -2.5263    4.6854    0.0000 O   0  0  0  0  0  0  0  0  0  0  0  0
   -1.1276    2.8409    0.0000 O   0  0  0  0  0  0  0  0  0  0  0  0
   -0.1500    1.7032    0.0000 C   0  0  0  0  0  0  0  0  0  0  0  0
   -3.2058    3.7140    0.0000 C   0  0  0  0  0  0  0  0  0  0  0  0
   -2.7159    5.1318    0.0000 O   0  0  0  0  0  0  0  0  0  0  0  0
   -2.4573   -1.6558    0.0000 C   0  0  0  0  0  0  0  0  0  0  0  0
   -3.5962   -0.6796    0.0000 C   0  0  0  0  0  0  0  0  0  0  0  0
   -5.0111   -1.1779    0.0000 C   0  0  0  0  0  0  0  0  0  0  0  0
   -6.3523   -0.5063    0.0000 O   0  0  0  0  0  0  0  0  0  0  0  0
   -5.2870   -2.6523    0.0000 C   0  0  0  0  0  0  0  0  0  0  0  0
   -6.7018   -3.1505    0.0000 O   0  0  0  0  0  0  0  0  0  0  0  0
   -4.1481   -3.6284    0.0000 C   0  0  0  0  0  0  0  0  0  0  0  0
   -4.4240   -5.1028    0.0000 O   0  0  0  0  0  0  0  0  0  0  0  0
   -2.7332   -3.1302    0.0000 C   0  0  0  0  0  0  0  0  0  0  0  0
  1  2  2  0
  2  3  1  0
  3  4  1  0
  4  5  1  0
  5  6  1  0
  6  7  1  0
  7  8  2  0
  7  9  1  0
  9 10  2  0
 10 11  1  0
 11 12  1  0
 11 13  2  0
 13 14  1  0
 13 15  1  0
 15 16  1  0
 15 17  2  0
 17 18  1  0
 18 19  2  0
 19 20  1  0
 20 21  2  0
 21 22  1  0
 21 23  1  0
 23 24  1  0
 23 25  2  0
 25 26  1  0
 19 27  1  0
 27 28  2  0
 27 29  1  0
 29 30  1  0
 30 31  1  0
 31 32  1  0
 32 33  1  0
 33 34  2  0
 33 35  1  0
 35 36  2  0
 36 37  1  0
 37 38  1  0
 37 39  2  0
 39 40  1  0
 39 41  1  0
 41 42  1  0
 41 43  2  0
 43 44  1  0
 44 45  2  0
 45 46  1  0
 45 47  1  0
 47 48  1  0
 47 49  2  0
 49 50  1  0
 49 51  1  0
 51 52  2  0
 52 53  1  0
 53 54  2  0
 53 55  1  0
 55 56  1  0
 56 57  1  0
 57 58  1  6
  2 59  1  0
 59 60  2  0
 60 61  1  0
 61 62  1  0
 61 63  2  0
 63 64  1  0
 63 65  1  0
 65 66  1  0
 65 67  2  0
 30  4  1  0
 56 31  1  0
 67 59  1  0
 17  9  1  0
 25 18  1  0
 43 35  1  0
 52 44  1  0
 57 51  1  0
M  END
>  <identifier>  (1735) 
CNP0218615.8

>  <canonical_smiles>  (1735) 
O=C(OC1COC(=O)C2=CC(O)=C(O)C(O)=C2C2=C(C=C(O)C(O)=C2O)C(=O)OC1C1OC(=O)C2=CC(O)=C(O)C(O)=C2C2=C(O)C(O)=C(O)C3=C2C(=O)OC1[C@H]3O)C1=CC(O)=C(O)C(O)=C1

>  <standard_inchi>  (1735) 
InChI=1S/C41H28O26/c42-11-1-7(2-12(43)23(11)47)37(58)64-16-6-63-38(59)8-3-13(44)24(48)27(51)17(8)18-9(4-14(45)25(49)28(18)52)39(60)65-34(16)36-35-32(56)22-21(41(62)66-35)20(30(54)33(57)31(22)55)19-10(40(61)67-36)5-15(46)26(50)29(19)53/h1-5,16,32,34-36,42-57H,6H2/t16?,32-,34?,35?,36?/m0/s1

>  <standard_inchi_key>  (1735) 
MMQXBTULXAEKQE-VGLLKXDGSA-N

>  <name>  (1735) 
nan

>  <iupac_name>  (1735) 
[10-[(19~{S})-2,3,4,7,8,9,19-heptahydroxy-12,17-dioxo-13,16-dioxatetracyclo[13.3.1.0^{5,18}.0^{6,11}]nonadeca-1(18),2,4,6,8,10-hexaen-14-yl]-3,4,5,17,18,19-hexahydroxy-8,14-dioxo-9,13-dioxatricyclo[13.4.0.0^{2,7}]nonadeca-1(19),2(7),3,5,15,17-hexaen-11-yl] 3,4,5-trihydroxybenzoate

>  <annotation_level>  (1735) 
4

>  <total_atom_count>  (1735) 
95

>  <heavy_atom_count>  (1735) 
67

>  <molecular_weight>  (1735) 
936.65

>  <exact_molecular_weight>  (1735) 
936.08688

>  <molecular_formula>  (1735) 
C41H28O26

>  <alogp>  (1735) 
1.34

>  <topological_polar_surface_area>  (1735) 
455.18

>  <rotatable_bond_count>  (1735) 
3

>  <hydrogen_bond_acceptors>  (1735) 
26

>  <hydrogen_bond_donors>  (1735) 
16

>  <hydrogen_bond_acceptors_lipinski>  (1735) 
26

>  <hydrogen_bond_donors_lipinski>  (1735) 
16

>  <lipinski_rule_of_five_violations>  (1735) 
3

>  <aromatic_rings_count>  (1735) 
5

>  <qed_drug_likeliness>  (1735) 
0.07

>  <formal_charge>  (1735) 
0

>  <fractioncsp3>  (1735) 
0.15

>  <number_of_minimal_rings>  (1735) 
9

>  <van_der_walls_volume>  (1735) 
nan

>  <contains_sugar>  (1735) 
False

>  <contains_ring_sugars>  (1735) 
False

>  <contains_linear_sugars>  (1735) 
False

>  <murcko_framework>  (1735) 
O1Cc2ccccc2-c3ccccc3COC(C(OCc4ccccc4)C1)C5OCc6ccccc6-c7cccc8c7COC5C8

>  <np_likeness>  (1735) 
1.06

>  <chemical_class>  (1735) 
Tannins

>  <chemical_sub_class>  (1735) 
Hydrolyzable tannins

>  <chemical_super_class>  (1735) 
Phenylpropanoids and polyketides

>  <direct_parent_classification>  (1735) 
Hydrolyzable tannins

>  <np_classifier_pathway>  (1735) 
Shikimates and Phenylpropanoids

>  <np_classifier_superclass>  (1735) 
Phenolic acids (C6-C1)

>  <np_classifier_class>  (1735) 
Gallotannins

>  <np_classifier_is_glycoside>  (1735) 
False

>  <organisms>  (1735) 
Siphoneugena densiflora

>  <collections>  (1735) 
Latin America dataset|NuBBEDB

>  <dois>  (1735) 
10.1590/S0103-50532006000200010

>  <synonyms>  (1735) 
casuarinin

>  <cas>  (1735) 
nan

$$$$

     RDKit          2D

 21 24  0  0  0  0  0  0  0  0999 V2000
    5.9599    0.6053    0.0000 C   0  0  0  0  0  0  0  0  0  0  0  0
    4.5789    1.1909    0.0000 C   0  0  0  0  0  0  0  0  0  0  0  0
    3.3813    0.2878    0.0000 C   0  0  0  0  0  0  0  0  0  0  0  0
    3.4080   -1.2120    0.0000 C   0  0  0  0  0  0  0  0  0  0  0  0
    4.6370   -2.0719    0.0000 O   0  0  0  0  0  0  0  0  0  0  0  0
    1.9899   -1.7008    0.0000 O   0  0  0  0  0  0  0  0  0  0  0  0
    1.0867   -0.5032    0.0000 C   0  0  0  0  0  0  0  0  0  0  0  0
    0.5356   -1.8983    0.0000 C   0  0  0  0  0  0  0  0  0  0  0  0
   -0.9616   -1.8051    0.0000 C   0  0  0  0  0  0  0  0  0  0  0  0
   -1.3356   -0.3525    0.0000 C   0  0  0  0  0  0  0  0  0  0  0  0
   -2.6654    0.3415    0.0000 C   0  0  0  0  0  0  0  0  0  0  0  0
   -3.9313   -0.4632    0.0000 C   0  0  0  0  0  0  0  0  0  0  0  0
   -3.8675   -1.9618    0.0000 O   0  0  0  0  0  0  0  0  0  0  0  0
   -5.2611    0.2308    0.0000 O   0  0  0  0  0  0  0  0  0  0  0  0
   -6.5271   -0.5738    0.0000 C   0  0  0  0  0  0  0  0  0  0  0  0
   -2.7293    1.8401    0.0000 C   0  0  0  0  0  0  0  0  0  0  0  0
   -1.4634    2.6448    0.0000 O   0  0  0  0  0  0  0  0  0  0  0  0
   -0.1336    1.9508    0.0000 C   0  0  0  0  0  0  0  0  0  0  0  0
    1.3502    2.1709    0.0000 O   0  0  0  0  0  0  0  0  0  0  0  0
    2.0181    0.8278    0.0000 C   0  0  0  0  0  0  0  0  0  0  0  0
   -0.0697    0.4521    0.0000 C   0  0  0  0  0  0  0  0  0  0  0  0
  1  2  1  0
  2  3  2  3
  3  4  1  0
  4  5  2  0
  4  6  1  0
  7  6  1  1
  7  8  1  0
  8  9  2  0
 10  9  1  6
 10 11  1  0
 11 12  1  0
 12 13  2  0
 12 14  1  0
 14 15  1  0
 11 16  2  0
 16 17  1  0
 18 17  1  6
 18 19  1  0
 20 19  1  1
 21 18  1  6
 20  3  1  0
 20  7  1  0
 21  7  1  0
 21 10  1  0
M  END
>  <identifier>  (1736) 
CNP0206987.7

>  <canonical_smiles>  (1736) 
CC=C1C(=O)O[C@]23C=C[C@@H]4C(C(=O)OC)=CO[C@H](O[C@@H]12)[C@@H]43

>  <standard_inchi>  (1736) 
InChI=1S/C15H14O6/c1-3-7-11-15(21-13(7)17)5-4-8-9(12(16)18-2)6-19-14(20-11)10(8)15/h3-6,8,10-11,14H,1-2H3/t8-,10-,11+,14-,15+/m1/s1

>  <standard_inchi_key>  (1736) 
VFXXNAVZODKBIW-YUVXLREMSA-N

>  <name>  (1736) 
NCI60_000264

>  <iupac_name>  (1736) 
methyl (1~{S},4~{S},8~{R},10~{S},14~{S})-11-ethylidene-12-oxo-7,9,13-trioxatetracyclo[6.5.1.0^{1,10}.0^{4,14}]tetradeca-2,5-diene-5-carboxylate

>  <annotation_level>  (1736) 
5

>  <total_atom_count>  (1736) 
35

>  <heavy_atom_count>  (1736) 
21

>  <molecular_weight>  (1736) 
290.27

>  <exact_molecular_weight>  (1736) 
290.07904

>  <molecular_formula>  (1736) 
C15H14O6

>  <alogp>  (1736) 
0.84

>  <topological_polar_surface_area>  (1736) 
71.06

>  <rotatable_bond_count>  (1736) 
1

>  <hydrogen_bond_acceptors>  (1736) 
6

>  <hydrogen_bond_donors>  (1736) 
0

>  <hydrogen_bond_acceptors_lipinski>  (1736) 
6

>  <hydrogen_bond_donors_lipinski>  (1736) 
0

>  <lipinski_rule_of_five_violations>  (1736) 
0

>  <aromatic_rings_count>  (1736) 
0

>  <qed_drug_likeliness>  (1736) 
0.40

>  <formal_charge>  (1736) 
0

>  <fractioncsp3>  (1736) 
0.47

>  <number_of_minimal_rings>  (1736) 
4

>  <van_der_walls_volume>  (1736) 
nan

>  <contains_sugar>  (1736) 
False

>  <contains_ring_sugars>  (1736) 
False

>  <contains_linear_sugars>  (1736) 
False

>  <murcko_framework>  (1736) 
O1C=CC2C=CC34OCCC4OC1C23

>  <np_likeness>  (1736) 
3.11

>  <chemical_class>  (1736) 
Prenol lipids

>  <chemical_sub_class>  (1736) 
Terpene lactones

>  <chemical_super_class>  (1736) 
Lipids and lipid-like molecules

>  <direct_parent_classification>  (1736) 
Terpene lactones

>  <np_classifier_pathway>  (1736) 
Terpenoids

>  <np_classifier_superclass>  (1736) 
Monoterpenoids

>  <np_classifier_class>  (1736) 
Iridoids monoterpenoids

>  <np_classifier_is_glycoside>  (1736) 
False

>  <organisms>  (1736) 
Himatanthus sucuuba

>  <collections>  (1736) 
Latin America dataset|NuBBEDB

>  <dois>  (1736) 
10.1590/S0100-40421998000600005

>  <synonyms>  (1736) 
Plumericin

>  <cas>  (1736) 
nan

$$$$

     RDKit          2D

 27 30  0  0  0  0  0  0  0  0999 V2000
    3.1379    5.0690    0.0000 C   0  0  0  0  0  0  0  0  0  0  0  0
    3.2639    3.5743    0.0000 C   0  0  0  0  0  0  0  0  0  0  0  0
    2.0324    2.7179    0.0000 C   0  0  0  0  0  0  0  0  0  0  0  0
    2.1584    1.2232    0.0000 C   0  0  0  0  0  0  0  0  0  0  0  0
    3.5158    0.5849    0.0000 C   0  0  0  0  0  0  0  0  0  0  0  0
    3.6418   -0.9098    0.0000 C   0  0  0  0  0  0  0  0  0  0  0  0
    4.9992   -1.5480    0.0000 O   0  0  0  0  0  0  0  0  0  0  0  0
    5.1252   -3.0427    0.0000 C   0  0  0  0  0  0  0  0  0  0  0  0
    2.4103   -1.7662    0.0000 C   0  0  0  0  0  0  0  0  0  0  0  0
    2.5363   -3.2609    0.0000 O   0  0  0  0  0  0  0  0  0  0  0  0
    1.0529   -1.1280    0.0000 C   0  0  0  0  0  0  0  0  0  0  0  0
   -0.1786   -1.9844    0.0000 O   0  0  0  0  0  0  0  0  0  0  0  0
   -0.0526   -3.4791    0.0000 C   0  0  0  0  0  0  0  0  0  0  0  0
    0.9269    0.3667    0.0000 C   0  0  0  0  0  0  0  0  0  0  0  0
   -0.4305    1.0050    0.0000 O   0  0  0  0  0  0  0  0  0  0  0  0
    0.0319    0.0533    0.0000 C   0  0  0  0  0  0  0  0  0  0  0  0
   -1.4414   -0.2282    0.0000 C   0  0  0  0  0  0  0  0  0  0  0  0
   -1.9343   -1.6449    0.0000 C   0  0  0  0  0  0  0  0  0  0  0  0
   -3.4077   -1.9264    0.0000 C   0  0  0  0  0  0  0  0  0  0  0  0
   -4.3881   -0.7912    0.0000 C   0  0  0  0  0  0  0  0  0  0  0  0
   -5.8878   -0.7603    0.0000 O   0  0  0  0  0  0  0  0  0  0  0  0
   -6.3218    0.6756    0.0000 C   0  0  0  0  0  0  0  0  0  0  0  0
   -5.0903    1.5320    0.0000 O   0  0  0  0  0  0  0  0  0  0  0  0
   -3.8953    0.6255    0.0000 C   0  0  0  0  0  0  0  0  0  0  0  0
   -2.4219    0.9070    0.0000 C   0  0  0  0  0  0  0  0  0  0  0  0
    0.6702    1.4107    0.0000 C   0  0  0  0  0  0  0  0  0  0  0  0
   -0.0529    2.7250    0.0000 C   0  0  0  0  0  0  0  0  0  0  0  0
  1  2  2  0
  2  3  1  0
  4  3  1  1
  4  5  1  0
  5  6  2  0
  6  7  1  0
  7  8  1  0
  6  9  1  0
  9 10  1  6
  9 11  1  0
 11 12  1  1
 12 13  1  0
 11 14  1  0
 14 15  1  0
 11 16  1  0
 16 17  1  1
 17 18  2  0
 18 19  1  0
 19 20  2  0
 20 21  1  0
 21 22  1  0
 22 23  1  0
 23 24  1  0
 24 25  2  0
 16 26  1  0
 26 27  1  6
 14  4  1  0
 25 17  1  0
 26  4  1  0
 24 20  1  0
M  END
>  <identifier>  (1737) 
CNP0189154.3

>  <canonical_smiles>  (1737) 
C=CC[C@@]12C=C(OC)[C@H](O)[C@@](OC)(C1O)[C@@H](C1=CC=C3OCOC3=C1)[C@@H]2C

>  <standard_inchi>  (1737) 
InChI=1S/C21H26O6/c1-5-8-20-10-16(24-3)18(22)21(25-4,19(20)23)17(12(20)2)13-6-7-14-15(9-13)27-11-26-14/h5-7,9-10,12,17-19,22-23H,1,8,11H2,2-4H3/t12-,17+,18-,19?,20-,21+/m0/s1

>  <standard_inchi_key>  (1737) 
UIDBVRIGTICCQN-UIPXPTPISA-N

>  <name>  (1737) 
nan

>  <iupac_name>  (1737) 
(1~{S},2~{S},5~{R},6~{S},7~{R})-5-allyl-7-(1,3-benzodioxol-5-yl)-1,3-dimethoxy-6-methyl-bicyclo[3.2.1]oct-3-ene-2,8-diol

>  <annotation_level>  (1737) 
4

>  <total_atom_count>  (1737) 
53

>  <heavy_atom_count>  (1737) 
27

>  <molecular_weight>  (1737) 
374.43

>  <exact_molecular_weight>  (1737) 
374.17294

>  <molecular_formula>  (1737) 
C21H26O6

>  <alogp>  (1737) 
2.36

>  <topological_polar_surface_area>  (1737) 
77.38

>  <rotatable_bond_count>  (1737) 
5

>  <hydrogen_bond_acceptors>  (1737) 
6

>  <hydrogen_bond_donors>  (1737) 
2

>  <hydrogen_bond_acceptors_lipinski>  (1737) 
6

>  <hydrogen_bond_donors_lipinski>  (1737) 
2

>  <lipinski_rule_of_five_violations>  (1737) 
0

>  <aromatic_rings_count>  (1737) 
1

>  <qed_drug_likeliness>  (1737) 
0.77

>  <formal_charge>  (1737) 
0

>  <fractioncsp3>  (1737) 
0.52

>  <number_of_minimal_rings>  (1737) 
4

>  <van_der_walls_volume>  (1737) 
nan

>  <contains_sugar>  (1737) 
False

>  <contains_ring_sugars>  (1737) 
False

>  <contains_linear_sugars>  (1737) 
False

>  <murcko_framework>  (1737) 
O1c2ccc(cc2OC1)C3CC4C=CCC3C4

>  <np_likeness>  (1737) 
1.99

>  <chemical_class>  (1737) 
Benzodioxoles

>  <chemical_sub_class>  (1737) 
Benzodioxoles

>  <chemical_super_class>  (1737) 
Organoheterocyclic compounds

>  <direct_parent_classification>  (1737) 
Benzodioxoles

>  <np_classifier_pathway>  (1737) 
Shikimates and Phenylpropanoids

>  <np_classifier_superclass>  (1737) 
Lignans

>  <np_classifier_class>  (1737) 
Neolignans

>  <np_classifier_is_glycoside>  (1737) 
False

>  <organisms>  (1737) 
Ocotea catharinensis

>  <collections>  (1737) 
Latin America dataset|NuBBEDB|WikiData Natural Products

>  <dois>  (1737) 
10.1016/0031-9422(83)83046-5

>  <synonyms>  (1737) 
rel-(7R8S1'R2'R3'S 4'S)-D-2'4'-Dihydroxy-3'5'-dimethoxy-34-methylenedioxy-1'2'3'4'-tetrahydro-73'81'-neolignan

>  <cas>  (1737) 
nan

$$$$

     RDKit          2D

 30 34  0  0  0  0  0  0  0  0999 V2000
   -7.7375    1.5932    0.0000 C   0  0  0  0  0  0  0  0  0  0  0  0
   -6.9788    0.2993    0.0000 O   0  0  0  0  0  0  0  0  0  0  0  0
   -5.4788    0.3094    0.0000 C   0  0  0  0  0  0  0  0  0  0  0  0
   -4.7376    1.6135    0.0000 C   0  0  0  0  0  0  0  0  0  0  0  0
   -3.2377    1.6236    0.0000 C   0  0  0  0  0  0  0  0  0  0  0  0
   -2.4789    0.3297    0.0000 C   0  0  0  0  0  0  0  0  0  0  0  0
   -3.2201   -0.9744    0.0000 C   0  0  0  0  0  0  0  0  0  0  0  0
   -4.7201   -0.9845    0.0000 C   0  0  0  0  0  0  0  0  0  0  0  0
   -5.4613   -2.2886    0.0000 O   0  0  0  0  0  0  0  0  0  0  0  0
   -6.9612   -2.2988    0.0000 C   0  0  0  0  0  0  0  0  0  0  0  0
   -0.9789    0.3398    0.0000 C   0  0  0  0  0  0  0  0  0  0  0  0
   -0.2202   -0.9541    0.0000 C   0  0  0  0  0  0  0  0  0  0  0  0
   -0.9614   -2.2582    0.0000 O   0  0  0  0  0  0  0  0  0  0  0  0
    1.2798   -0.9440    0.0000 C   0  0  0  0  0  0  0  0  0  0  0  0
    2.0386   -2.2379    0.0000 C   0  0  0  0  0  0  0  0  0  0  0  0
    1.2974   -3.5420    0.0000 O   0  0  0  0  0  0  0  0  0  0  0  0
    3.5385   -2.2278    0.0000 C   0  0  0  0  0  0  0  0  0  0  0  0
    4.2797   -0.9237    0.0000 C   0  0  0  0  0  0  0  0  0  0  0  0
    5.7797   -0.9136    0.0000 O   0  0  0  0  0  0  0  0  0  0  0  0
    6.5209    0.3905    0.0000 C   0  0  0  0  0  0  0  0  0  0  0  0
    7.6634    1.3624    0.0000 C   0  0  0  0  0  0  0  0  0  0  0  0
    7.6765   -0.5659    0.0000 C   0  0  0  0  0  0  0  0  0  0  0  0
    5.7621    1.6844    0.0000 C   0  0  0  0  0  0  0  0  0  0  0  0
    4.2622    1.6743    0.0000 C   0  0  0  0  0  0  0  0  0  0  0  0
    3.5210    0.3702    0.0000 C   0  0  0  0  0  0  0  0  0  0  0  0
    2.0210    0.3601    0.0000 C   0  0  0  0  0  0  0  0  0  0  0  0
    1.2622    1.6540    0.0000 O   0  0  0  0  0  0  0  0  0  0  0  0
   -0.2377    1.6439    0.0000 C   0  0  0  0  0  0  0  0  0  0  0  0
   -0.9965    2.9378    0.0000 C   0  0  0  0  0  0  0  0  0  0  0  0
   -2.4964    2.9277    0.0000 O   0  0  0  0  0  0  0  0  0  0  0  0
  1  2  1  0
  2  3  1  0
  3  4  2  0
  4  5  1  0
  5  6  2  0
  6  7  1  0
  7  8  2  0
  8  9  1  0
  9 10  1  0
  6 11  1  0
 11 12  1  6
 12 13  2  0
 12 14  1  0
 14 15  2  0
 15 16  1  0
 15 17  1  0
 17 18  2  0
 18 19  1  0
 19 20  1  0
 20 21  1  0
 20 22  1  0
 20 23  1  0
 23 24  2  0
 24 25  1  0
 25 26  2  0
 26 27  1  0
 27 28  1  0
 28 29  1  0
 29 30  1  0
  8  3  1  0
 28 11  1  0
 30  5  1  0
 26 14  1  0
 25 18  1  0
M  END
>  <identifier>  (1738) 
CNP0306395.2

>  <canonical_smiles>  (1738) 
COC1=CC2=C(C=C1OC)[C@H]1C(=O)C3=C(O)C=C4OC(C)(C)C=CC4=C3OC1CO2

>  <standard_inchi>  (1738) 
InChI=1S/C23H22O7/c1-23(2)6-5-11-15(30-23)8-13(24)20-21(25)19-12-7-16(26-3)17(27-4)9-14(12)28-10-18(19)29-22(11)20/h5-9,18-19,24H,10H2,1-4H3/t18?,19-/m1/s1

>  <standard_inchi_key>  (1738) 
JLTNCZQNGBLBGO-MUMRKEEXSA-N

>  <name>  (1738) 
nan

>  <iupac_name>  (1738) 
(14~{R})-11-hydroxy-17,18-dimethoxy-7,7-dimethyl-2,8,21-trioxapentacyclo[12.8.0.0^{3,12}.0^{4,9}.0^{15,20}]docosa-3,5,9,11,15(20),16,18-heptaen-13-one

>  <annotation_level>  (1738) 
4

>  <total_atom_count>  (1738) 
52

>  <heavy_atom_count>  (1738) 
30

>  <molecular_weight>  (1738) 
410.42

>  <exact_molecular_weight>  (1738) 
410.13655

>  <molecular_formula>  (1738) 
C23H22O7

>  <alogp>  (1738) 
3.71

>  <topological_polar_surface_area>  (1738) 
83.45

>  <rotatable_bond_count>  (1738) 
2

>  <hydrogen_bond_acceptors>  (1738) 
7

>  <hydrogen_bond_donors>  (1738) 
1

>  <hydrogen_bond_acceptors_lipinski>  (1738) 
7

>  <hydrogen_bond_donors_lipinski>  (1738) 
1

>  <lipinski_rule_of_five_violations>  (1738) 
0

>  <aromatic_rings_count>  (1738) 
2

>  <qed_drug_likeliness>  (1738) 
0.81

>  <formal_charge>  (1738) 
0

>  <fractioncsp3>  (1738) 
0.35

>  <number_of_minimal_rings>  (1738) 
5

>  <van_der_walls_volume>  (1738) 
nan

>  <contains_sugar>  (1738) 
False

>  <contains_ring_sugars>  (1738) 
False

>  <contains_linear_sugars>  (1738) 
False

>  <murcko_framework>  (1738) 
O1c2ccc3c(OC4COc5ccccc5C4C3)c2C=CC1

>  <np_likeness>  (1738) 
2.60

>  <chemical_class>  (1738) 
Isoflavonoids

>  <chemical_sub_class>  (1738) 
Rotenoids

>  <chemical_super_class>  (1738) 
Phenylpropanoids and polyketides

>  <direct_parent_classification>  (1738) 
Rotenones

>  <np_classifier_pathway>  (1738) 
Shikimates and Phenylpropanoids

>  <np_classifier_superclass>  (1738) 
Isoflavonoids

>  <np_classifier_class>  (1738) 
Isoflavanones

>  <np_classifier_is_glycoside>  (1738) 
False

>  <organisms>  (1738) 
Tephrosia candida

>  <collections>  (1738) 
Latin America dataset|NuBBEDB

>  <dois>  (1738) 
10.1002/(SICI)1521-4168(19980901)21:9<513::AID-JHRC513>3.0.CO,2-F

>  <synonyms>  (1738) 
\u221a\u00e9\u00ac\u00b1-toxicarol

>  <cas>  (1738) 
nan

$$$$

     RDKit          2D

 35 38  0  0  0  0  0  0  0  0999 V2000
    6.2279   -2.0674    0.0000 C   0  0  0  0  0  0  0  0  0  0  0  0
    5.1598   -3.1205    0.0000 C   0  0  0  0  0  0  0  0  0  0  0  0
    4.0917   -4.1737    0.0000 C   0  0  0  0  0  0  0  0  0  0  0  0
    6.2130   -4.1886    0.0000 O   0  0  0  0  0  0  0  0  0  0  0  0
    4.1067   -2.0524    0.0000 C   0  0  0  0  0  0  0  0  0  0  0  0
    4.5051   -0.6063    0.0000 C   0  0  0  0  0  0  0  0  0  0  0  0
    3.4519    0.4618    0.0000 C   0  0  0  0  0  0  0  0  0  0  0  0
    2.0003    0.0838    0.0000 O   0  0  0  0  0  0  0  0  0  0  0  0
    3.8503    1.9079    0.0000 C   0  0  0  0  0  0  0  0  0  0  0  0
    5.2965    1.5095    0.0000 C   0  0  0  0  0  0  0  0  0  0  0  0
    4.2488    3.3540    0.0000 O   0  0  0  0  0  0  0  0  0  0  0  0
    2.4042    2.3063    0.0000 C   0  0  0  0  0  0  0  0  0  0  0  0
    1.8766    3.7105    0.0000 C   0  0  0  0  0  0  0  0  0  0  0  0
    0.3781    3.6425    0.0000 C   0  0  0  0  0  0  0  0  0  0  0  0
   -0.0203    2.1964    0.0000 C   0  0  0  0  0  0  0  0  0  0  0  0
   -1.1794    3.1486    0.0000 O   0  0  0  0  0  0  0  0  0  0  0  0
   -1.3616    1.5248    0.0000 C   0  0  0  0  0  0  0  0  0  0  0  0
   -2.6138    2.3506    0.0000 C   0  0  0  0  0  0  0  0  0  0  0  0
   -3.9551    1.6791    0.0000 C   0  0  0  0  0  0  0  0  0  0  0  0
   -5.2073    2.5049    0.0000 O   0  0  0  0  0  0  0  0  0  0  0  0
   -4.0442    0.1817    0.0000 C   0  0  0  0  0  0  0  0  0  0  0  0
   -5.2964    1.0075    0.0000 O   0  0  0  0  0  0  0  0  0  0  0  0
   -5.3854   -0.4898    0.0000 C   0  0  0  0  0  0  0  0  0  0  0  0
   -5.4745   -1.9872    0.0000 C   0  0  0  0  0  0  0  0  0  0  0  0
   -6.8158   -2.6587    0.0000 O   0  0  0  0  0  0  0  0  0  0  0  0
   -4.2223   -2.8130    0.0000 C   0  0  0  0  0  0  0  0  0  0  0  0
   -4.3113   -4.3103    0.0000 O   0  0  0  0  0  0  0  0  0  0  0  0
   -2.8810   -2.1414    0.0000 C   0  0  0  0  0  0  0  0  0  0  0  0
   -2.7919   -0.6441    0.0000 C   0  0  0  0  0  0  0  0  0  0  0  0
   -1.5397   -1.4699    0.0000 C   0  0  0  0  0  0  0  0  0  0  0  0
   -1.4507    0.0275    0.0000 C   0  0  0  0  0  0  0  0  0  0  0  0
   -0.1984   -0.7983    0.0000 C   0  0  0  0  0  0  0  0  0  0  0  0
    1.1428   -0.1268    0.0000 C   0  0  0  0  0  0  0  0  0  0  0  0
    1.2319    1.3706    0.0000 C   0  0  0  0  0  0  0  0  0  0  0  0
    2.5636    0.6802    0.0000 C   0  0  0  0  0  0  0  0  0  0  0  0
  1  2  1  0
  2  3  1  0
  2  4  1  0
  2  5  1  0
  5  6  1  0
  6  7  1  0
  7  8  1  1
  7  9  1  0
  9 10  1  6
  9 11  1  0
  9 12  1  0
 12 13  1  6
 13 14  1  0
 14 15  1  0
 15 16  1  1
 15 17  1  0
 17 18  2  0
 18 19  1  0
 19 20  2  0
 19 21  1  0
 21 22  1  6
 21 23  1  0
 23 24  1  0
 24 25  1  6
 24 26  1  0
 26 27  1  6
 26 28  1  0
 28 29  1  0
 29 30  1  6
 29 31  1  0
 31 32  1  0
 32 33  1  0
 33 34  1  0
 34 35  1  6
 34 12  1  0
 34 15  1  0
 31 17  1  0
 29 21  1  0
M  END
>  <identifier>  (1739) 
CNP0253243.5

>  <canonical_smiles>  (1739) 
CC(C)(O)CC[C@@H](O)[C@](C)(O)[C@H]1CC[C@@]2(O)C3=CC(=O)[C@]4(O)C[C@@H](O)[C@@H](O)C[C@]4(C)C3CC[C@]12C

>  <standard_inchi>  (1739) 
InChI=1S/C27H44O8/c1-22(2,32)9-8-20(30)25(5,33)19-7-11-26(34)16-12-21(31)27(35)14-18(29)17(28)13-24(27,4)15(16)6-10-23(19,26)3/h12,15,17-20,28-30,32-35H,6-11,13-14H2,1-5H3/t15?,17-,18+,19-,20+,23+,24+,25+,26+,27+/m0/s1

>  <standard_inchi_key>  (1739) 
GMFLGNRCCFYOKL-HQXCPKAJSA-N

>  <name>  (1739) 
nan

>  <iupac_name>  (1739) 
(2~{S},3~{R},5~{S},10~{R},13~{R},14~{S},17~{S})-2,3,5,14-tetrahydroxy-10,13-dimethyl-17-[(1~{R},2~{R})-1,2,5-trihydroxy-1,5-dimethyl-hexyl]-1,2,3,4,9,11,12,15,16,17-decahydrocyclopenta[a]phenanthren-6-one

>  <annotation_level>  (1739) 
4

>  <total_atom_count>  (1739) 
79

>  <heavy_atom_count>  (1739) 
35

>  <molecular_weight>  (1739) 
496.64

>  <exact_molecular_weight>  (1739) 
496.30362

>  <molecular_formula>  (1739) 
C27H44O8

>  <alogp>  (1739) 
0.97

>  <topological_polar_surface_area>  (1739) 
158.68

>  <rotatable_bond_count>  (1739) 
5

>  <hydrogen_bond_acceptors>  (1739) 
8

>  <hydrogen_bond_donors>  (1739) 
7

>  <hydrogen_bond_acceptors_lipinski>  (1739) 
8

>  <hydrogen_bond_donors_lipinski>  (1739) 
7

>  <lipinski_rule_of_five_violations>  (1739) 
1

>  <aromatic_rings_count>  (1739) 
0

>  <qed_drug_likeliness>  (1739) 
0.30

>  <formal_charge>  (1739) 
0

>  <fractioncsp3>  (1739) 
0.89

>  <number_of_minimal_rings>  (1739) 
4

>  <van_der_walls_volume>  (1739) 
nan

>  <contains_sugar>  (1739) 
False

>  <contains_ring_sugars>  (1739) 
False

>  <contains_linear_sugars>  (1739) 
False

>  <murcko_framework>  (1739) 
C1=C2C3CCCC3CCC2C4CCCCC4C1

>  <np_likeness>  (1739) 
3.12

>  <chemical_class>  (1739) 
Steroids and steroid derivatives

>  <chemical_sub_class>  (1739) 
Bile acids, alcohols and derivatives

>  <chemical_super_class>  (1739) 
Lipids and lipid-like molecules

>  <direct_parent_classification>  (1739) 
Bile acids, alcohols and derivatives

>  <np_classifier_pathway>  (1739) 
Terpenoids

>  <np_classifier_superclass>  (1739) 
Steroids

>  <np_classifier_class>  (1739) 
Ecdysteroids

>  <np_classifier_is_glycoside>  (1739) 
False

>  <organisms>  (1739) 
Vitex polygama

>  <collections>  (1739) 
Latin America dataset|NuBBEDB

>  <dois>  (1739) 
10.1002/ps.1278

>  <synonyms>  (1739) 
polypodine B

>  <cas>  (1739) 
nan

$$$$

     RDKit          2D

 18 20  0  0  0  0  0  0  0  0999 V2000
    1.3570    3.4185    0.0000 O   0  0  0  0  0  0  0  0  0  0  0  0
    0.9147    1.9852    0.0000 C   0  0  0  0  0  0  0  0  0  0  0  0
   -0.5477    1.6516    0.0000 C   0  0  0  0  0  0  0  0  0  0  0  0
   -0.9900    0.2183    0.0000 C   0  0  0  0  0  0  0  0  0  0  0  0
   -2.4524   -0.1153    0.0000 C   0  0  0  0  0  0  0  0  0  0  0  0
   -3.4726    0.9844    0.0000 C   0  0  0  0  0  0  0  0  0  0  0  0
   -4.9350    0.6507    0.0000 C   0  0  0  0  0  0  0  0  0  0  0  0
   -5.3773   -0.7826    0.0000 C   0  0  0  0  0  0  0  0  0  0  0  0
   -4.3572   -1.8823    0.0000 C   0  0  0  0  0  0  0  0  0  0  0  0
   -2.8947   -1.5486    0.0000 C   0  0  0  0  0  0  0  0  0  0  0  0
    0.0301   -0.8814    0.0000 O   0  0  0  0  0  0  0  0  0  0  0  0
    1.4926   -0.5478    0.0000 C   0  0  0  0  0  0  0  0  0  0  0  0
    2.5127   -1.6475    0.0000 C   0  0  0  0  0  0  0  0  0  0  0  0
    3.9751   -1.3138    0.0000 C   0  0  0  0  0  0  0  0  0  0  0  0
    4.9953   -2.4135    0.0000 O   0  0  0  0  0  0  0  0  0  0  0  0
    4.4174    0.1195    0.0000 C   0  0  0  0  0  0  0  0  0  0  0  0
    3.3973    1.2192    0.0000 C   0  0  0  0  0  0  0  0  0  0  0  0
    1.9348    0.8855    0.0000 C   0  0  0  0  0  0  0  0  0  0  0  0
  1  2  2  0
  2  3  1  0
  3  4  1  0
  4  5  1  1
  5  6  2  0
  6  7  1  0
  7  8  2  0
  8  9  1  0
  9 10  2  0
  4 11  1  0
 11 12  1  0
 12 13  2  0
 13 14  1  0
 14 15  1  0
 14 16  2  0
 16 17  1  0
 17 18  2  0
 18  2  1  0
 10  5  1  0
 18 12  1  0
M  END
>  <identifier>  (1740) 
CNP0316345.2

>  <canonical_smiles>  (1740) 
O=C1C[C@H](C2=CC=CC=C2)OC2=CC(O)=CC=C12

>  <standard_inchi>  (1740) 
InChI=1S/C15H12O3/c16-11-6-7-12-13(17)9-14(18-15(12)8-11)10-4-2-1-3-5-10/h1-8,14,16H,9H2/t14-/m1/s1

>  <standard_inchi_key>  (1740) 
SWAJPHCXKPCPQZ-CQSZACIVSA-N

>  <name>  (1740) 
(2R)-7-hydroxyflavanone

>  <iupac_name>  (1740) 
(2~{R})-7-hydroxy-2-phenyl-chroman-4-one

>  <annotation_level>  (1740) 
5

>  <total_atom_count>  (1740) 
30

>  <heavy_atom_count>  (1740) 
18

>  <molecular_weight>  (1740) 
240.26

>  <exact_molecular_weight>  (1740) 
240.07864

>  <molecular_formula>  (1740) 
C15H12O3

>  <alogp>  (1740) 
3.10

>  <topological_polar_surface_area>  (1740) 
46.53

>  <rotatable_bond_count>  (1740) 
1

>  <hydrogen_bond_acceptors>  (1740) 
3

>  <hydrogen_bond_donors>  (1740) 
1

>  <hydrogen_bond_acceptors_lipinski>  (1740) 
3

>  <hydrogen_bond_donors_lipinski>  (1740) 
1

>  <lipinski_rule_of_five_violations>  (1740) 
0

>  <aromatic_rings_count>  (1740) 
2

>  <qed_drug_likeliness>  (1740) 
0.83

>  <formal_charge>  (1740) 
0

>  <fractioncsp3>  (1740) 
0.13

>  <number_of_minimal_rings>  (1740) 
3

>  <van_der_walls_volume>  (1740) 
212.91

>  <contains_sugar>  (1740) 
False

>  <contains_ring_sugars>  (1740) 
False

>  <contains_linear_sugars>  (1740) 
False

>  <murcko_framework>  (1740) 
O1c2ccccc2CCC1c3ccccc3

>  <np_likeness>  (1740) 
1.29

>  <chemical_class>  (1740) 
Flavonoids

>  <chemical_sub_class>  (1740) 
Flavans

>  <chemical_super_class>  (1740) 
Phenylpropanoids and polyketides

>  <direct_parent_classification>  (1740) 
Flavanones

>  <np_classifier_pathway>  (1740) 
Shikimates and Phenylpropanoids

>  <np_classifier_superclass>  (1740) 
Flavonoids

>  <np_classifier_class>  (1740) 
Flavanones

>  <np_classifier_is_glycoside>  (1740) 
False

>  <organisms>  (1740) 
Dalbergia cochinchinensis|Diplotropis purpurea

>  <collections>  (1740) 
Latin America dataset|NPACT|NPASS|NuBBEDB|Super Natural II|TCMDB-Taiwan (Traditional Chinese Medicine database)|ZINC NP

>  <dois>  (1740) 
10.1016/0031-9422(73)85046-0

>  <synonyms>  (1740) 
(2R)-7-hydroxy-2-phenyl-2,3-dihydro-4H-chromen-4-one|(2R)-7-hydroxyflavanone|(R)-7-Hydroxy-2-phenylchroman-4-one|2H-1-Benzopyran-7-yloxy|41680-08-4|AKOS040734927|CHEBI:48020|FS-7890|Q27120907|SCHEMBL126599

>  <cas>  (1740) 
41680-08-4

$$$$

     RDKit          2D

 36 38  0  0  0  0  0  0  0  0999 V2000
    6.8306   -2.0016    0.0000 C   0  0  0  0  0  0  0  0  0  0  0  0
    5.3365   -1.8681    0.0000 C   0  0  0  0  0  0  0  0  0  0  0  0
    4.4739   -3.0953    0.0000 C   0  0  0  0  0  0  0  0  0  0  0  0
    5.1053   -4.4559    0.0000 C   0  0  0  0  0  0  0  0  0  0  0  0
    2.9798   -2.9617    0.0000 C   0  0  0  0  0  0  0  0  0  0  0  0
    2.3484   -1.6011    0.0000 C   0  0  0  0  0  0  0  0  0  0  0  0
    0.8544   -1.4676    0.0000 C   0  0  0  0  0  0  0  0  0  0  0  0
    0.9823   -2.9621    0.0000 C   0  0  0  0  0  0  0  0  0  0  0  0
    1.2453   -0.0194    0.0000 C   0  0  0  0  0  0  0  0  0  0  0  0
    2.6949    0.3661    0.0000 C   0  0  0  0  0  0  0  0  0  0  0  0
    0.1866    1.0432    0.0000 C   0  0  0  0  0  0  0  0  0  0  0  0
    0.5775    2.4914    0.0000 O   0  0  0  0  0  0  0  0  0  0  0  0
    2.0271    2.8769    0.0000 C   0  0  0  0  0  0  0  0  0  0  0  0
    3.0858    1.8143    0.0000 O   0  0  0  0  0  0  0  0  0  0  0  0
    2.4181    4.3251    0.0000 C   0  0  0  0  0  0  0  0  0  0  0  0
    3.8677    4.7106    0.0000 C   0  0  0  0  0  0  0  0  0  0  0  0
    4.2586    6.1588    0.0000 C   0  0  0  0  0  0  0  0  0  0  0  0
   -1.2630    0.6577    0.0000 C   0  0  0  0  0  0  0  0  0  0  0  0
   -1.6539   -0.7905    0.0000 C   0  0  0  0  0  0  0  0  0  0  0  0
   -3.1035   -1.1760    0.0000 C   0  0  0  0  0  0  0  0  0  0  0  0
   -3.4945   -2.6242    0.0000 C   0  0  0  0  0  0  0  0  0  0  0  0
   -2.4358   -3.6868    0.0000 C   0  0  0  0  0  0  0  0  0  0  0  0
   -2.8267   -5.1350    0.0000 O   0  0  0  0  0  0  0  0  0  0  0  0
   -0.9862   -3.3013    0.0000 C   0  0  0  0  0  0  0  0  0  0  0  0
   -0.5952   -1.8531    0.0000 C   0  0  0  0  0  0  0  0  0  0  0  0
   -2.6367   -1.4725    0.0000 C   0  0  0  0  0  0  0  0  0  0  0  0
   -5.4159    0.1648    0.0000 O   0  0  0  0  0  0  0  0  0  0  0  0
   -6.0944    1.5026    0.0000 C   0  0  0  0  0  0  0  0  0  0  0  0
   -7.5922    1.5838    0.0000 C   0  0  0  0  0  0  0  0  0  0  0  0
   -5.2752    2.7590    0.0000 O   0  0  0  0  0  0  0  0  0  0  0  0
   -2.4323   -0.7820    0.0000 O   0  0  0  0  0  0  0  0  0  0  0  0
   -1.9118   -1.2797    0.0000 C   0  0  0  0  0  0  0  0  0  0  0  0
   -0.3131    1.5219    0.0000 O   0  0  0  0  0  0  0  0  0  0  0  0
   -0.3888    3.0200    0.0000 C   0  0  0  0  0  0  0  0  0  0  0  0
    0.8707    3.8346    0.0000 C   0  0  0  0  0  0  0  0  0  0  0  0
   -1.7241    3.7035    0.0000 O   0  0  0  0  0  0  0  0  0  0  0  0
  1  2  2  0
  2  3  1  0
  3  4  1  0
  3  5  2  0
  5  6  1  0
  6  7  1  0
  7  8  1  6
  7  9  1  0
  9 10  1  1
  9 11  1  0
 11 12  1  6
 12 13  1  0
 13 14  2  0
 13 15  1  0
 15 16  1  0
 16 17  1  0
 11 18  1  0
 19 18  1  1
 19 20  1  0
 20 21  2  0
 21 22  1  0
 22 23  1  1
 22 24  1  0
 25 24  1  6
 20 26  1  0
 26 27  1  6
 27 28  1  0
 28 29  1  0
 28 30  2  0
 26 31  1  0
 31 32  1  0
 32 33  1  6
 33 34  1  0
 34 35  1  0
 34 36  2  0
 25  7  1  0
 25 19  1  0
 32 19  1  0
M  END
>  <identifier>  (1741) 
CNP0107514.1

>  <canonical_smiles>  (1741) 
C=C/C(C)=C\C[C@]1(C)[C@H](C)[C@@H](OC(=O)CCC)C[C@@]23C(=C[C@H](O)C[C@@H]12)[C@@H](OC(C)=O)O[C@H]3OC(C)=O

>  <standard_inchi>  (1741) 
InChI=1S/C28H40O8/c1-8-10-24(32)35-22-15-28-21(25(33-18(5)29)36-26(28)34-19(6)30)13-20(31)14-23(28)27(7,17(22)4)12-11-16(3)9-2/h9,11,13,17,20,22-23,25-26,31H,2,8,10,12,14-15H2,1,3-7H3/b16-11-/t17-,20+,22+,23+,25+,26-,27-,28-/m1/s1

>  <standard_inchi_key>  (1741) 
QXQAUWAARWFHKZ-ZAQWCCOOSA-N

>  <name>  (1741) 
nan

>  <iupac_name>  (1741) 
[(1~{S},3~{R},5~{R},6~{a}~{S},7~{S},8~{S},9~{S},10~{a}~{S})-1,3-diacetoxy-5-hydroxy-7,8-dimethyl-7-[(2~{Z})-3-methylpenta-2,4-dienyl]-1,3,5,6,6~{a},8,9,10-octahydrobenzo[d]isobenzofuran-9-yl] butanoate

>  <annotation_level>  (1741) 
5

>  <total_atom_count>  (1741) 
76

>  <heavy_atom_count>  (1741) 
36

>  <molecular_weight>  (1741) 
504.62

>  <exact_molecular_weight>  (1741) 
504.27232

>  <molecular_formula>  (1741) 
C28H40O8

>  <alogp>  (1741) 
4.37

>  <topological_polar_surface_area>  (1741) 
108.36

>  <rotatable_bond_count>  (1741) 
8

>  <hydrogen_bond_acceptors>  (1741) 
8

>  <hydrogen_bond_donors>  (1741) 
1

>  <hydrogen_bond_acceptors_lipinski>  (1741) 
8

>  <hydrogen_bond_donors_lipinski>  (1741) 
1

>  <lipinski_rule_of_five_violations>  (1741) 
1

>  <aromatic_rings_count>  (1741) 
0

>  <qed_drug_likeliness>  (1741) 
0.22

>  <formal_charge>  (1741) 
0

>  <fractioncsp3>  (1741) 
0.68

>  <number_of_minimal_rings>  (1741) 
3

>  <van_der_walls_volume>  (1741) 
475.04

>  <contains_sugar>  (1741) 
False

>  <contains_ring_sugars>  (1741) 
False

>  <contains_linear_sugars>  (1741) 
False

>  <murcko_framework>  (1741) 
O1CC2=CCCC3CCCCC23C1

>  <np_likeness>  (1741) 
3.22

>  <chemical_class>  (1741) 
Prenol lipids

>  <chemical_sub_class>  (1741) 
Diterpenoids

>  <chemical_super_class>  (1741) 
Lipids and lipid-like molecules

>  <direct_parent_classification>  (1741) 
Colensane and clerodane diterpenoids

>  <np_classifier_pathway>  (1741) 
Terpenoids

>  <np_classifier_superclass>  (1741) 
Diterpenoids

>  <np_classifier_class>  (1741) 
Colensane and Clerodane diterpenoids

>  <np_classifier_is_glycoside>  (1741) 
True

>  <organisms>  (1741) 
Casearia sylvestris

>  <collections>  (1741) 
ChemSpider NPs|Latin America dataset|NuBBEDB|Super Natural II|WikiData Natural Products|ZINC NP

>  <dois>  (1741) 
10.1002/PCA.902|10.1002/pca.902|10.1248/CPB.39.693

>  <synonyms>  (1741) 
Casearin H

>  <cas>  (1741) 
nan

$$$$

     RDKit          2D

 41 44  0  0  0  0  0  0  0  0999 V2000
   -8.4612   -6.3837    0.0000 C   0  0  0  0  0  0  0  0  0  0  0  0
   -7.5864   -5.1652    0.0000 C   0  0  0  0  0  0  0  0  0  0  0  0
   -6.0938   -5.3134    0.0000 C   0  0  0  0  0  0  0  0  0  0  0  0
   -5.4759   -6.6803    0.0000 C   0  0  0  0  0  0  0  0  0  0  0  0
   -5.2191   -4.0949    0.0000 C   0  0  0  0  0  0  0  0  0  0  0  0
   -5.8370   -2.7281    0.0000 C   0  0  0  0  0  0  0  0  0  0  0  0
   -4.9622   -1.5096    0.0000 C   0  0  0  0  0  0  0  0  0  0  0  0
   -5.5802   -0.1427    0.0000 C   0  0  0  0  0  0  0  0  0  0  0  0
   -4.7054    1.0758    0.0000 C   0  0  0  0  0  0  0  0  0  0  0  0
   -5.3233    2.4426    0.0000 C   0  0  0  0  0  0  0  0  0  0  0  0
   -6.8160    2.5909    0.0000 Cl  0  0  0  0  0  0  0  0  0  0  0  0
   -4.4486    3.6612    0.0000 C   0  0  0  0  0  0  0  0  0  0  0  0
   -5.0665    5.0280    0.0000 O   0  0  0  0  0  0  0  0  0  0  0  0
   -2.9560    3.5129    0.0000 C   0  0  0  0  0  0  0  0  0  0  0  0
   -3.4276    4.9368    0.0000 C   0  0  0  0  0  0  0  0  0  0  0  0
   -1.8470    4.5229    0.0000 O   0  0  0  0  0  0  0  0  0  0  0  0
   -0.5437    3.7803    0.0000 C   0  0  0  0  0  0  0  0  0  0  0  0
    0.8231    4.3983    0.0000 O   0  0  0  0  0  0  0  0  0  0  0  0
   -0.8472    2.3114    0.0000 C   0  0  0  0  0  0  0  0  0  0  0  0
    0.1629    1.2024    0.0000 C   0  0  0  0  0  0  0  0  0  0  0  0
   -0.2925   -0.2268    0.0000 O   0  0  0  0  0  0  0  0  0  0  0  0
    1.6283    1.5226    0.0000 C   0  0  0  0  0  0  0  0  0  0  0  0
    2.0837    2.9518    0.0000 C   0  0  0  0  0  0  0  0  0  0  0  0
    2.6383    0.4137    0.0000 C   0  0  0  0  0  0  0  0  0  0  0  0
    2.1830   -1.0155    0.0000 C   0  0  0  0  0  0  0  0  0  0  0  0
    4.1037    0.7339    0.0000 O   0  0  0  0  0  0  0  0  0  0  0  0
    5.1138   -0.3751    0.0000 C   0  0  0  0  0  0  0  0  0  0  0  0
    4.6584   -1.8043    0.0000 O   0  0  0  0  0  0  0  0  0  0  0  0
    6.5792   -0.0548    0.0000 C   0  0  0  0  0  0  0  0  0  0  0  0
    7.0346    1.3744    0.0000 O   0  0  0  0  0  0  0  0  0  0  0  0
    8.5000    1.6946    0.0000 C   0  0  0  0  0  0  0  0  0  0  0  0
    7.5893   -1.1638    0.0000 C   0  0  0  0  0  0  0  0  0  0  0  0
    7.1339   -2.5930    0.0000 C   0  0  0  0  0  0  0  0  0  0  0  0
    8.1439   -3.7020    0.0000 C   0  0  0  0  0  0  0  0  0  0  0  0
    9.6093   -3.3817    0.0000 C   0  0  0  0  0  0  0  0  0  0  0  0
   10.0647   -1.9525    0.0000 C   0  0  0  0  0  0  0  0  0  0  0  0
    9.0547   -0.8436    0.0000 C   0  0  0  0  0  0  0  0  0  0  0  0
   -2.3380    2.1461    0.0000 C   0  0  0  0  0  0  0  0  0  0  0  0
   -3.2128    0.9275    0.0000 C   0  0  0  0  0  0  0  0  0  0  0  0
   -2.5949   -0.4393    0.0000 C   0  0  0  0  0  0  0  0  0  0  0  0
   -3.4696   -1.6578    0.0000 O   0  0  0  0  0  0  0  0  0  0  0  0
  1  2  1  0
  2  3  1  0
  3  4  1  1
  3  5  1  0
  5  6  2  0
  6  7  1  0
  7  8  2  0
  8  9  1  0
  9 10  2  0
 10 11  1  0
 10 12  1  0
 12 13  2  0
 12 14  1  0
 14 15  1  6
 14 16  1  0
 16 17  1  0
 17 18  2  0
 17 19  1  0
 19 20  1  0
 20 21  2  0
 20 22  1  0
 22 23  1  6
 22 24  1  0
 24 25  1  6
 24 26  1  0
 26 27  1  0
 27 28  2  0
 27 29  1  0
 29 30  1  6
 30 31  1  0
 29 32  1  0
 32 33  2  0
 33 34  1  0
 34 35  2  0
 35 36  1  0
 36 37  2  0
 19 38  2  0
 38 39  1  0
 39 40  2  0
 40 41  1  0
 41  7  1  0
 39  9  1  0
 38 14  1  0
 37 32  1  0
M  END
>  <identifier>  (1742) 
CNP0080401.3

>  <canonical_smiles>  (1742) 
CC[C@H](C)/C=C/C1=CC2=C(Cl)C(=O)[C@@]3(C)OC(=O)C(C(=O)[C@H](C)[C@@H](C)OC(=O)[C@H](OC)C4=CC=CC=C4)=C3C2=CO1

>  <standard_inchi>  (1742) 
InChI=1S/C32H33ClO8/c1-7-17(2)13-14-21-15-22-23(16-39-21)25-24(30(36)41-32(25,5)29(35)26(22)33)27(34)18(3)19(4)40-31(37)28(38-6)20-11-9-8-10-12-20/h8-19,28H,7H2,1-6H3/b14-13+/t17-,18+,19+,28+,32-/m0/s1

>  <standard_inchi_key>  (1742) 
JLOJAJHRUNYSHQ-OZMCVSSJSA-N

>  <name>  (1742) 
nan

>  <iupac_name>  (1742) 
[(1~{R},2~{R})-3-[(6~{a}~{S})-5-chloro-6~{a}-methyl-3-[(~{E},3~{S})-3-methylpent-1-enyl]-6,8-dioxo-furo[2,3-h]isochromen-9-yl]-1,2-dimethyl-3-oxo-propyl] (2~{R})-2-methoxy-2-phenyl-acetate

>  <annotation_level>  (1742) 
4

>  <total_atom_count>  (1742) 
74

>  <heavy_atom_count>  (1742) 
41

>  <molecular_weight>  (1742) 
581.06

>  <exact_molecular_weight>  (1742) 
580.1864

>  <molecular_formula>  (1742) 
C32H33ClO8

>  <alogp>  (1742) 
5.60

>  <topological_polar_surface_area>  (1742) 
105.20

>  <rotatable_bond_count>  (1742) 
10

>  <hydrogen_bond_acceptors>  (1742) 
8

>  <hydrogen_bond_donors>  (1742) 
0

>  <hydrogen_bond_acceptors_lipinski>  (1742) 
8

>  <hydrogen_bond_donors_lipinski>  (1742) 
0

>  <lipinski_rule_of_five_violations>  (1742) 
2

>  <aromatic_rings_count>  (1742) 
1

>  <qed_drug_likeliness>  (1742) 
0.26

>  <formal_charge>  (1742) 
0

>  <fractioncsp3>  (1742) 
0.38

>  <number_of_minimal_rings>  (1742) 
4

>  <van_der_walls_volume>  (1742) 
nan

>  <contains_sugar>  (1742) 
False

>  <contains_ring_sugars>  (1742) 
False

>  <contains_linear_sugars>  (1742) 
False

>  <murcko_framework>  (1742) 
O1C=CC2=CCC3OCC(=C3C2=C1)CCCOCCc4ccccc4

>  <np_likeness>  (1742) 
1.89

>  <chemical_class>  (1742) 
Benzene and substituted derivatives

>  <chemical_sub_class>  (1742) 
Benzylethers

>  <chemical_super_class>  (1742) 
Benzenoids

>  <direct_parent_classification>  (1742) 
Benzylethers

>  <np_classifier_pathway>  (1742) 
Polyketides

>  <np_classifier_superclass>  (1742) 
Chromanes

>  <np_classifier_class>  (1742) 
Azaphilones

>  <np_classifier_is_glycoside>  (1742) 
False

>  <organisms>  (1742) 
Chaetomium globosum

>  <collections>  (1742) 
NuBBEDB|WikiData Natural Products|ZINC NP

>  <dois>  (1742) 
10.1021/NP200110F|10.1021/np200110f

>  <synonyms>  (1742) 
(R)-MPA-4'-epichaetoviridin A

>  <cas>  (1742) 
nan

$$$$

     RDKit          2D

 30 32  0  0  0  0  0  0  0  0999 V2000
   -2.8849    4.1286    0.0000 C   0  0  0  0  0  0  0  0  0  0  0  0
   -3.9194    3.0424    0.0000 O   0  0  0  0  0  0  0  0  0  0  0  0
   -3.4959    1.6034    0.0000 C   0  0  0  0  0  0  0  0  0  0  0  0
   -2.0380    1.2506    0.0000 C   0  0  0  0  0  0  0  0  0  0  0  0
   -1.6146   -0.1884    0.0000 C   0  0  0  0  0  0  0  0  0  0  0  0
   -0.1567   -0.5412    0.0000 C   0  0  0  0  0  0  0  0  0  0  0  0
    0.2667   -1.9802    0.0000 C   0  0  0  0  0  0  0  0  0  0  0  0
   -0.7678   -3.0664    0.0000 O   0  0  0  0  0  0  0  0  0  0  0  0
   -2.2257   -2.7136    0.0000 C   0  0  0  0  0  0  0  0  0  0  0  0
    1.7246   -2.3331    0.0000 C   0  0  0  0  0  0  0  0  0  0  0  0
    2.1480   -3.7721    0.0000 O   0  0  0  0  0  0  0  0  0  0  0  0
    2.7591   -1.2469    0.0000 C   0  0  0  0  0  0  0  0  0  0  0  0
    4.2170   -1.5997    0.0000 C   0  0  0  0  0  0  0  0  0  0  0  0
    4.6405   -3.0387    0.0000 O   0  0  0  0  0  0  0  0  0  0  0  0
    5.2516   -0.5135    0.0000 C   0  0  0  0  0  0  0  0  0  0  0  0
    4.8281    0.9255    0.0000 C   0  0  0  0  0  0  0  0  0  0  0  0
    5.8626    2.0117    0.0000 O   0  0  0  0  0  0  0  0  0  0  0  0
    7.3206    1.6589    0.0000 C   0  0  0  0  0  0  0  0  0  0  0  0
    3.3702    1.2783    0.0000 C   0  0  0  0  0  0  0  0  0  0  0  0
    2.9468    2.7173    0.0000 O   0  0  0  0  0  0  0  0  0  0  0  0
    3.9813    3.8035    0.0000 C   0  0  0  0  0  0  0  0  0  0  0  0
    2.3357    0.1921    0.0000 C   0  0  0  0  0  0  0  0  0  0  0  0
    0.8778    0.5449    0.0000 O   0  0  0  0  0  0  0  0  0  0  0  0
   -2.6491   -1.2746    0.0000 C   0  0  0  0  0  0  0  0  0  0  0  0
   -4.1070   -0.9218    0.0000 C   0  0  0  0  0  0  0  0  0  0  0  0
   -5.1415   -2.0080    0.0000 O   0  0  0  0  0  0  0  0  0  0  0  0
   -6.5995   -1.6552    0.0000 C   0  0  0  0  0  0  0  0  0  0  0  0
   -4.5305    0.5172    0.0000 C   0  0  0  0  0  0  0  0  0  0  0  0
   -5.9884    0.8700    0.0000 O   0  0  0  0  0  0  0  0  0  0  0  0
   -6.4118    2.3090    0.0000 C   0  0  0  0  0  0  0  0  0  0  0  0
  1  2  1  0
  2  3  1  0
  3  4  2  0
  4  5  1  0
  5  6  1  0
  6  7  2  0
  7  8  1  0
  8  9  1  0
  7 10  1  0
 10 11  2  0
 10 12  1  0
 12 13  2  0
 13 14  1  0
 13 15  1  0
 15 16  2  0
 16 17  1  0
 17 18  1  0
 16 19  1  0
 19 20  1  0
 20 21  1  0
 19 22  2  0
 22 23  1  0
  5 24  2  0
 24 25  1  0
 25 26  1  0
 26 27  1  0
 25 28  2  0
 28 29  1  0
 29 30  1  0
 28  3  1  0
 23  6  1  0
 22 12  1  0
M  END
>  <identifier>  (1743) 
CNP0189471.0

>  <canonical_smiles>  (1743) 
COC1=CC(C2=C(OC)C(=O)C3=C(O)C=C(OC)C(OC)=C3O2)=CC(OC)=C1OC

>  <standard_inchi>  (1743) 
InChI=1S/C21H22O9/c1-24-12-7-10(8-13(25-2)18(12)27-4)17-21(29-6)16(23)15-11(22)9-14(26-3)19(28-5)20(15)30-17/h7-9,22H,1-6H3

>  <standard_inchi_key>  (1743) 
YBWGYGWOYCKNFB-UHFFFAOYSA-N

>  <name>  (1743) 
5-Hydroxy-3,3',4',5',7,8-hexamethoxyflavone

>  <iupac_name>  (1743) 
5-hydroxy-3,7,8-trimethoxy-2-(3,4,5-trimethoxyphenyl)chromen-4-one

>  <annotation_level>  (1743) 
5

>  <total_atom_count>  (1743) 
52

>  <heavy_atom_count>  (1743) 
30

>  <molecular_weight>  (1743) 
418.4

>  <exact_molecular_weight>  (1743) 
418.12638

>  <molecular_formula>  (1743) 
C21H22O9

>  <alogp>  (1743) 
3.22

>  <topological_polar_surface_area>  (1743) 
105.82

>  <rotatable_bond_count>  (1743) 
7

>  <hydrogen_bond_acceptors>  (1743) 
9

>  <hydrogen_bond_donors>  (1743) 
1

>  <hydrogen_bond_acceptors_lipinski>  (1743) 
9

>  <hydrogen_bond_donors_lipinski>  (1743) 
1

>  <lipinski_rule_of_five_violations>  (1743) 
0

>  <aromatic_rings_count>  (1743) 
3

>  <qed_drug_likeliness>  (1743) 
0.62

>  <formal_charge>  (1743) 
0

>  <fractioncsp3>  (1743) 
0.29

>  <number_of_minimal_rings>  (1743) 
3

>  <van_der_walls_volume>  (1743) 
359.56

>  <contains_sugar>  (1743) 
False

>  <contains_ring_sugars>  (1743) 
False

>  <contains_linear_sugars>  (1743) 
False

>  <murcko_framework>  (1743) 
O1c2ccccc2CC=C1c3ccccc3

>  <np_likeness>  (1743) 
1.12

>  <chemical_class>  (1743) 
Flavonoids

>  <chemical_sub_class>  (1743) 
O-methylated flavonoids

>  <chemical_super_class>  (1743) 
Phenylpropanoids and polyketides

>  <direct_parent_classification>  (1743) 
3-O-methylated flavonoids

>  <np_classifier_pathway>  (1743) 
Shikimates and Phenylpropanoids

>  <np_classifier_superclass>  (1743) 
Flavonoids

>  <np_classifier_class>  (1743) 
Flavonols

>  <np_classifier_is_glycoside>  (1743) 
False

>  <organisms>  (1743) 
Murraya paniculata

>  <collections>  (1743) 
Australian natural products|KNApSaCK|Latin America dataset|NPEdia|NuBBEDB|Super Natural II|TIPdb (database of Taiwan indigenous plants)|UNPD (Universal Natural Products Database)|WikiData Natural Products|ZINC NP

>  <dois>  (1743) 
10.1016/S0031-9422(97)00598-0|10.1016/s0031-9422(97)00598-0|10.1211/JPP.61.02.0017

>  <synonyms>  (1743) 
5-Hydroxy-3,3',4',5',7,8-hexamethoxyflavone|5-hydroxy-3'4'5'378-hexamethoxyflavonol|LMPK12113281

>  <cas>  (1743) 
nan

$$$$

     RDKit          2D

 30 34  0  0  0  0  0  0  0  0999 V2000
   -7.2919   -2.6081    0.0000 C   0  0  0  0  0  0  0  0  0  0  0  0
   -7.2162   -1.1100    0.0000 C   0  0  0  0  0  0  0  0  0  0  0  0
   -8.4757   -0.2954    0.0000 C   0  0  0  0  0  0  0  0  0  0  0  0
   -5.8809   -0.4266    0.0000 C   0  0  0  0  0  0  0  0  0  0  0  0
   -4.5431   -1.1050    0.0000 C   0  0  0  0  0  0  0  0  0  0  0  0
   -3.4845   -0.0424    0.0000 C   0  0  0  0  0  0  0  0  0  0  0  0
   -4.1680    1.2928    0.0000 C   0  0  0  0  0  0  0  0  0  0  0  0
   -3.3534    2.5524    0.0000 C   0  0  0  0  0  0  0  0  0  0  0  0
   -1.8553    2.4767    0.0000 C   0  0  0  0  0  0  0  0  0  0  0  0
   -1.0407    3.7362    0.0000 O   0  0  0  0  0  0  0  0  0  0  0  0
   -1.1718    1.1414    0.0000 C   0  0  0  0  0  0  0  0  0  0  0  0
   -1.9864   -0.1181    0.0000 C   0  0  0  0  0  0  0  0  0  0  0  0
   -1.3029   -1.4533    0.0000 O   0  0  0  0  0  0  0  0  0  0  0  0
    0.1952   -1.5290    0.0000 C   0  0  0  0  0  0  0  0  0  0  0  0
    0.8787   -2.8642    0.0000 C   0  0  0  0  0  0  0  0  0  0  0  0
    2.3768   -2.9399    0.0000 O   0  0  0  0  0  0  0  0  0  0  0  0
    3.1914   -1.6804    0.0000 C   0  0  0  0  0  0  0  0  0  0  0  0
    4.6895   -1.7561    0.0000 C   0  0  0  0  0  0  0  0  0  0  0  0
    5.5041   -0.4966    0.0000 C   0  0  0  0  0  0  0  0  0  0  0  0
    7.0021   -0.5723    0.0000 O   0  0  0  0  0  0  0  0  0  0  0  0
    7.6856   -1.9075    0.0000 C   0  0  0  0  0  0  0  0  0  0  0  0
    4.8206    0.8387    0.0000 C   0  0  0  0  0  0  0  0  0  0  0  0
    5.6352    2.0982    0.0000 O   0  0  0  0  0  0  0  0  0  0  0  0
    7.1333    2.0225    0.0000 C   0  0  0  0  0  0  0  0  0  0  0  0
    3.3225    0.9144    0.0000 C   0  0  0  0  0  0  0  0  0  0  0  0
    2.5079   -0.3452    0.0000 C   0  0  0  0  0  0  0  0  0  0  0  0
    1.0098   -0.2695    0.0000 C   0  0  0  0  0  0  0  0  0  0  0  0
    0.3263    1.0658    0.0000 C   0  0  0  0  0  0  0  0  0  0  0  0
    1.1409    2.3253    0.0000 O   0  0  0  0  0  0  0  0  0  0  0  0
   -5.6491    1.0554    0.0000 O   0  0  0  0  0  0  0  0  0  0  0  0
  1  2  2  0
  2  3  1  0
  4  2  1  6
  4  5  1  0
  5  6  1  0
  6  7  2  0
  7  8  1  0
  8  9  2  0
  9 10  1  0
  9 11  1  0
 11 12  2  0
 12 13  1  0
 13 14  1  0
 14 15  1  1
 15 16  1  0
 16 17  1  0
 17 18  2  0
 18 19  1  0
 19 20  1  0
 20 21  1  0
 19 22  2  0
 22 23  1  0
 23 24  1  0
 22 25  1  0
 25 26  2  0
 26 27  1  0
 27 28  1  1
 28 29  2  0
  7 30  1  0
 30  4  1  0
 12  6  1  0
 27 14  1  0
 28 11  1  0
 26 17  1  0
M  END
>  <identifier>  (1744) 
CNP0221435.1

>  <canonical_smiles>  (1744) 
C=C(C)[C@H]1CC2=C(C=C(O)C3=C2O[C@@H]2COC4=CC(OC)=C(OC)C=C4[C@@H]2C3=O)O1

>  <standard_inchi>  (1744) 
InChI=1S/C23H22O7/c1-10(2)14-6-12-16(29-14)7-13(24)21-22(25)20-11-5-17(26-3)18(27-4)8-15(11)28-9-19(20)30-23(12)21/h5,7-8,14,19-20,24H,1,6,9H2,2-4H3/t14-,19-,20+/m1/s1

>  <standard_inchi_key>  (1744) 
ZPEHYKMRUBEPSQ-XMCHAPAWSA-N

>  <name>  (1744) 
Sumatrol

>  <iupac_name>  (1744) 
(1~{S},6~{R},13~{S})-10-hydroxy-6-isopropenyl-16,17-dimethoxy-2,7,20-trioxapentacyclo[11.8.0.0^{3,11}.0^{4,8}.0^{14,19}]henicosa-3(11),4(8),9,14,16,18-hexaen-12-one

>  <annotation_level>  (1744) 
5

>  <total_atom_count>  (1744) 
52

>  <heavy_atom_count>  (1744) 
30

>  <molecular_weight>  (1744) 
410.42

>  <exact_molecular_weight>  (1744) 
410.13655

>  <molecular_formula>  (1744) 
C23H22O7

>  <alogp>  (1744) 
3.41

>  <topological_polar_surface_area>  (1744) 
83.45

>  <rotatable_bond_count>  (1744) 
3

>  <hydrogen_bond_acceptors>  (1744) 
7

>  <hydrogen_bond_donors>  (1744) 
1

>  <hydrogen_bond_acceptors_lipinski>  (1744) 
7

>  <hydrogen_bond_donors_lipinski>  (1744) 
1

>  <lipinski_rule_of_five_violations>  (1744) 
0

>  <aromatic_rings_count>  (1744) 
2

>  <qed_drug_likeliness>  (1744) 
0.78

>  <formal_charge>  (1744) 
0

>  <fractioncsp3>  (1744) 
0.35

>  <number_of_minimal_rings>  (1744) 
5

>  <van_der_walls_volume>  (1744) 
353.73

>  <contains_sugar>  (1744) 
False

>  <contains_ring_sugars>  (1744) 
False

>  <contains_linear_sugars>  (1744) 
False

>  <murcko_framework>  (1744) 
O1c2ccc3c(OC4COc5ccccc5C4C3)c2CC1

>  <np_likeness>  (1744) 
2.22

>  <chemical_class>  (1744) 
Isoflavonoids

>  <chemical_sub_class>  (1744) 
Rotenoids

>  <chemical_super_class>  (1744) 
Phenylpropanoids and polyketides

>  <direct_parent_classification>  (1744) 
Rotenones

>  <np_classifier_pathway>  (1744) 
Shikimates and Phenylpropanoids

>  <np_classifier_superclass>  (1744) 
Isoflavonoids

>  <np_classifier_class>  (1744) 
Isoflavanones

>  <np_classifier_is_glycoside>  (1744) 
False

>  <organisms>  (1744) 
Aflatunia ulmifolia|Allium macrostemon|Asparagopsis sandfordiana|Crotalaria burha|Crotalaria burhia|Crotalaria paniculata|Dahlstedtia pinnata|Derris canarensis|Derris cuneifolia|Derris elliptica|Derris malaccensis|Derris montana|Derris oblonga|Dysoxylum spectabile|Geijera parviflora|Macaranga indica|Macaranga vedeliana|Millettia auriculata|Millettia extensa|Ochrosia sandwicensis|Piscidia erythrina|Rubia cordifolia|Spiraea japonica|Tephrosia candida|Tephrosia cinerea|Tephrosia major|Tephrosia pentaphylla|Tephrosia procumbens|Tephrosia sinapou|Tephrosia toxicaria|Tephrosia villosa|Tephrosia vogelii|Trachelanthus hissaricus|Tricholoma panaeolum

>  <collections>  (1744) 
ANPDB|Australian natural products|CMAUP (cCollective molecular activities of useful plants)|ChEBI NPs|KNApSaCK|Latin America dataset|NANPDB (Natural Products from Northern African Sources)|NPACT|NPASS|NPEdia|NuBBEDB|Super Natural II|TCMDB-Taiwan (Traditional Chinese Medicine database)|WikiData Natural Products|ZINC NP

>  <dois>  (1744) 
10.1002/(SICI)1521-4168(19980901)21:9<513::AID-JHRC513>3.0.CO,2-F|10.1002/RECL.19390580304|10.1016/0031-9422(80)83114-1|10.1016/0031-9422(88)80277-2|10.1016/0031-9422(89)80308-5|10.1016/0031-9422(92)80206-T|10.1016/S0040-4039(01)83698-4|10.1016/j.phytol.2014.09.002|10.1021/NP0302100|10.1039/JR9400001178|10.1039/P19870002723|10.1055/S-0028-1097463|10.1515/ZNC-2002-7-805|10.3987/COM-92-6288|10.3987/COM-95-7069

>  <synonyms>  (1744) 
(-)-11-hydroxyrotenone|(-)-sumatrol|(1)BENZOPYRANO(3,4-B)FURO(2,3-H)(1)BENZOPYRAN-6(6AH)-ONE, 1,2,12,12A-TETRAHYDRO-5-HYDROXY-8,9-DIMETHOXY-2-(1-METHYLETHENYL)-, (2R,6AS,12AS)-|(1)Benzopyrano(3,4-b)furo(2,3-h)(1)benzopyran-6(6aH)-one, 1,2,12,12a-tetrahydro-5-hydroxy-2-isopropenyl-8,9-dimethoxy-, (-)-|(1S,6R,13S)-10-hydroxy-16,17-dimethoxy-6-prop-1-en-2-yl-2,7,20-trioxapentacyclo[11.8.0.03,11.04,8.014,19]henicosa-3(11),4(8),9,14,16,18-hexaen-12-one|(2R-(2.ALPHA.,6A.ALPHA.,12A.ALPHA.))-1,2,12,12A-TETRAHYDRO-5-HYDROXY-8,9-DIMETHOXY-2-(1-METHYLETHENYL)-(1)BENZOPYRANO(3,4-B)FURO(2,3-H)(1)BENZOPYRAN-6(6AH)-ONE|11-hydroxy-rotenone|69G1LPQ7X0|82-10-0|CHEBI:9358|CHEMBL518045|DTXSID90231503|DivK1c_006541|KBio1_001485|LMPK12060024|Q27108358|SCHEMBL4739987|SUMATROL [MI]|SUMATROL, (-)-|SpecPlus_000445|Sumatrol|UNII-69G1LPQ7X0|XS161532|sumatrol

>  <cas>  (1744) 
82-10-0

$$$$

     RDKit          2D

 22 24  0  0  0  0  0  0  0  0999 V2000
   -4.5684    2.9639    0.0000 C   0  0  0  0  0  0  0  0  0  0  0  0
   -4.9210    1.5059    0.0000 O   0  0  0  0  0  0  0  0  0  0  0  0
   -3.8347    0.4715    0.0000 C   0  0  0  0  0  0  0  0  0  0  0  0
   -4.1873   -0.9864    0.0000 C   0  0  0  0  0  0  0  0  0  0  0  0
   -5.6263   -1.4100    0.0000 O   0  0  0  0  0  0  0  0  0  0  0  0
   -3.1010   -2.0208    0.0000 C   0  0  0  0  0  0  0  0  0  0  0  0
   -1.6621   -1.5972    0.0000 C   0  0  0  0  0  0  0  0  0  0  0  0
   -0.5757   -2.6316    0.0000 O   0  0  0  0  0  0  0  0  0  0  0  0
    0.8632   -2.2080    0.0000 C   0  0  0  0  0  0  0  0  0  0  0  0
    1.2158   -0.7500    0.0000 C   0  0  0  0  0  0  0  0  0  0  0  0
    2.6548   -0.3264    0.0000 C   0  0  0  0  0  0  0  0  0  0  0  0
    3.7411   -1.3608    0.0000 C   0  0  0  0  0  0  0  0  0  0  0  0
    5.1800   -0.9372    0.0000 C   0  0  0  0  0  0  0  0  0  0  0  0
    5.5327    0.5207    0.0000 C   0  0  0  0  0  0  0  0  0  0  0  0
    6.9716    0.9443    0.0000 O   0  0  0  0  0  0  0  0  0  0  0  0
    4.4464    1.5551    0.0000 C   0  0  0  0  0  0  0  0  0  0  0  0
    3.0074    1.1315    0.0000 C   0  0  0  0  0  0  0  0  0  0  0  0
    0.1295    0.2843    0.0000 C   0  0  0  0  0  0  0  0  0  0  0  0
    0.4822    1.7423    0.0000 O   0  0  0  0  0  0  0  0  0  0  0  0
   -1.3094   -0.1393    0.0000 C   0  0  0  0  0  0  0  0  0  0  0  0
   -2.3957    0.8951    0.0000 C   0  0  0  0  0  0  0  0  0  0  0  0
   -2.0431    2.3531    0.0000 O   0  0  0  0  0  0  0  0  0  0  0  0
  1  2  1  0
  2  3  1  0
  3  4  2  0
  4  5  1  0
  4  6  1  0
  6  7  2  0
  7  8  1  0
  8  9  1  0
  9 10  2  0
 10 11  1  0
 11 12  2  0
 12 13  1  0
 13 14  2  0
 14 15  1  0
 14 16  1  0
 16 17  2  0
 10 18  1  0
 18 19  2  0
 18 20  1  0
 20 21  2  0
 21 22  1  0
 21  3  1  0
 20  7  1  0
 17 11  1  0
M  END
>  <identifier>  (1745) 
CNP0224875.0

>  <canonical_smiles>  (1745) 
COC1=C(O)C=C2OC=C(C3=CC=C(O)C=C3)C(=O)C2=C1O

>  <standard_inchi>  (1745) 
InChI=1S/C16H12O6/c1-21-16-11(18)6-12-13(15(16)20)14(19)10(7-22-12)8-2-4-9(17)5-3-8/h2-7,17-18,20H,1H3

>  <standard_inchi_key>  (1745) 
OBBCRPUNCUPUOS-UHFFFAOYSA-N

>  <name>  (1745) 
Tectorigenin

>  <iupac_name>  (1745) 
5,7-dihydroxy-3-(4-hydroxyphenyl)-6-methoxy-chromen-4-one

>  <annotation_level>  (1745) 
5

>  <total_atom_count>  (1745) 
34

>  <heavy_atom_count>  (1745) 
22

>  <molecular_weight>  (1745) 
300.27

>  <exact_molecular_weight>  (1745) 
300.06339

>  <molecular_formula>  (1745) 
C16H12O6

>  <alogp>  (1745) 
2.59

>  <topological_polar_surface_area>  (1745) 
100.13

>  <rotatable_bond_count>  (1745) 
2

>  <hydrogen_bond_acceptors>  (1745) 
6

>  <hydrogen_bond_donors>  (1745) 
3

>  <hydrogen_bond_acceptors_lipinski>  (1745) 
6

>  <hydrogen_bond_donors_lipinski>  (1745) 
3

>  <lipinski_rule_of_five_violations>  (1745) 
0

>  <aromatic_rings_count>  (1745) 
3

>  <qed_drug_likeliness>  (1745) 
0.67

>  <formal_charge>  (1745) 
0

>  <fractioncsp3>  (1745) 
0.06

>  <number_of_minimal_rings>  (1745) 
3

>  <van_der_walls_volume>  (1745) 
248.99

>  <contains_sugar>  (1745) 
False

>  <contains_ring_sugars>  (1745) 
False

>  <contains_linear_sugars>  (1745) 
False

>  <murcko_framework>  (1745) 
O1C=C(c2ccccc2)Cc3ccccc13

>  <np_likeness>  (1745) 
1.48

>  <chemical_class>  (1745) 
Isoflavonoids

>  <chemical_sub_class>  (1745) 
Isoflav-2-enes

>  <chemical_super_class>  (1745) 
Phenylpropanoids and polyketides

>  <direct_parent_classification>  (1745) 
Isoflavones

>  <np_classifier_pathway>  (1745) 
Shikimates and Phenylpropanoids

>  <np_classifier_superclass>  (1745) 
Isoflavonoids

>  <np_classifier_class>  (1745) 
Isoflavones

>  <np_classifier_is_glycoside>  (1745) 
False

>  <organisms>  (1745) 
Amorphinopsis foetida|Artemisia minor|Aspidosperma megalocarpon|Asterias rathbuni|Astragalus wiedemannianus|Baptisia|Baptisia sp.|Baptisia spp.|Bassia scoparia|Belamcanda Chinensis|Belamcanda chinensis|Bertya dimerostigma|Centrosema|Centrosema spp.|Choriaster granulatus|Dalbergia Volubilis|Dalbergia monetaria|Dalbergia ovalis|Dalbergia parviflora|Dalbergia riparia|Dalbergia sissoides|Dalbergia sissoo|Dalbergia sp|Dalbergia sp.|Dalbergia stevensonii|Dalbergia stevensonii Standl.|Dalbergia volubilis|Delphinium barbeyi|Dioscorea gracillima|Echium rubrum|Eichhornia crassipes|Entada africana|Entada polystachya|Erythrina excelsa|Erythrina mildbraedii|Erythrina senegalensis|Euchresta formosana|Fomes fastuosus|Fuligo candida|Fumaria indica|Grona adscendens|Hendersonula toruloidea|Iberis sempervirens|Iris crocea|Iris dichotoma|Iris domestica|Iris germanica|Iris japonica|Iris kemaonensis|Iris kumaonensis|Iris milesii|Iris pseudacorus|Iris sp.|Iris spuria|Iris tectorum|Iris x germanica|Lantana camara|Lignum dalbergiae odoriferae rosewood|Maackia amurensis|Monomeria barbata|Nocardiopsaceae|Ononis spinosa|Patersonia umbrosa|Perophora namei|Platycladus|Plectranthus nummularius|Pseuduvaria indochinensis|Pteris setuloso-costulata|Pueraria montana var. lobata|Pueraria montana var. thomsonii|Pueraria sp.|Roemeria carica|Schumanniophyton magnificum|Senecio triangularis|Streptoverticillium album K-251|Thenea muricata|Thiocystis gelatinosa|Vitex limonifolia

>  <collections>  (1745) 
ANPDB|AnalytiCon Discovery NPs|Australian natural products|CMAUP (cCollective molecular activities of useful plants)|ChEBI NPs|ChemSpider NPs|ConMedNP|FooDB|GNPS (Global Natural Products Social Molecular Networking)|HIM (Herbal Ingredients in-vivo Metabolism database)|HIT (Herbal Ingredients Targets)|KNApSaCK|Latin America dataset|NANPDB (Natural Products from Northern African Sources)|NPACT|NPASS|NPCARE|NPEdia|NuBBEDB|Phenol-explorer|Phyto4Health|PhytoLab phyproof® Reference Substances|Super Natural II|TCMDB-Taiwan (Traditional Chinese Medicine database)|TCMID (Traditional Chinese Medicine Integrated Database)|TIPdb (database of Taiwan indigenous plants)|UNPD (Universal Natural Products Database)|VietHerb|WikiData Natural Products

>  <dois>  (1745) 
10.1007/BF02975425|10.1007/BF02976430|10.1007/BF02976631|10.1007/BF02976633|10.1007/BF02976832|10.1007/S10600-007-0235-6|10.1007/S10600-015-1519-X|10.1007/S10600-019-02831-3|10.1007/S11418-008-0291-7|10.1007/S11418-010-0411-Z|10.1007/s11418-008-0291-7|10.1016/0031-9422(73)85048-4|10.1016/0031-9422(91)84117-B|10.1016/0031-9422(92)80300-4|10.1016/0031-9422(95)00736-9|10.1016/J.BMCL.2010.05.038|10.1016/J.JEP.2008.04.006|10.1016/J.PHYMED.2004.01.003|10.1016/S0031-9422(00)80460-4|10.1016/S0031-9422(00)84998-5|10.1016/S0031-9422(00)85740-4|10.1016/S0031-9422(00)89103-7|10.1016/S0031-9422(02)00474-0|10.1016/s0031-9422(00)97881-6|10.1021/NP040175C|10.1021/NP800643N|10.1021/NP900676Y|10.1021/np900676y|10.1023/B:CONC.0000018120.22592.36|10.1055/S-2003-41125|10.1055/S-2006-960868|10.1055/S-2006-960976|10.1076/PHBI.37.1.54.6310|10.1080/10286020008039908|10.1080/10826079208016365|10.1080/1478641031000103669|10.1111/J.1744-7909.2005.00142.X|10.1124/DMD.109.028555|10.1248/BPB.24.1117|10.1248/CPB.43.1260|10.1248/CPB.49.1229|10.1271/BBB.65.939|10.1515/ZNC-1980-11-1208

>  <synonyms>  (1745) 
3-(4-hydroxyphenyl)-6-methoxy-5,7-bis(oxidanyl)chromen-4-one|4',5,7-Trihydroxy 6-methoxyisoflavone|4',5,7-Trihydroxy-6-methoxyisoflavone|4H-1-Benzopyran-4-one, 5,7-dihydroxy-3-(4-hydroxyphenyl)-6-methoxy-|5,7-dihydroxy-3-(4-hydroxyphenyl)-6-methoxy-4H-1-benzopyran-4-one|5,7-dihydroxy-3-(4-hydroxyphenyl)-6-methoxy-4H-chromen-4-one|5-18-05-00311 (Beilstein Handbook Reference)|548-77-6|855130H9CO|A870334|AKOS015897084|AS-56397|BDBM50241222|BRN 0305601|CCG-267463|CHEBI:9429|CHEMBL242740|CS-0009804|DTXSID50203286|DivK1c_006241|EX-A6676|GTPL9738|HY-N0792|ISOFLAVONE, 4',5,7-TRIHYDROXY-6-METHOXY-|K 251T|KBio1_001185|KBio2_001241|KBio2_003809|KBio2_006377|KBioSS_001241|LMPK12050385|MFCD00597094|Q-100619|Q3517006|R0U|SCHEMBL351641|SpecPlus_000145|Spectrum_000761|T3729|TECTORIGENIN [MI]|Tectorigenin, analytical standard|Tectorigenine|Tectrigenin|UNII-855130H9CO|s9122|tectorigenin

>  <cas>  (1745) 
548-77-6

$$$$

     RDKit          2D

 20 21  0  0  0  0  0  0  0  0999 V2000
  -10.0295    0.5522    0.0000 C   0  0  0  0  0  0  0  0  0  0  0  0
   -8.6068    1.0275    0.0000 C   0  0  0  0  0  0  0  0  0  0  0  0
   -7.4838    0.0332    0.0000 C   0  0  0  0  0  0  0  0  0  0  0  0
   -6.0611    0.5085    0.0000 C   0  0  0  0  0  0  0  0  0  0  0  0
   -4.9381   -0.4858    0.0000 C   0  0  0  0  0  0  0  0  0  0  0  0
   -3.5154   -0.0105    0.0000 C   0  0  0  0  0  0  0  0  0  0  0  0
   -2.3924   -1.0048    0.0000 C   0  0  0  0  0  0  0  0  0  0  0  0
   -0.9697   -0.5295    0.0000 C   0  0  0  0  0  0  0  0  0  0  0  0
    0.1533   -1.5238    0.0000 C   0  0  0  0  0  0  0  0  0  0  0  0
    1.5760   -1.0485    0.0000 C   0  0  0  0  0  0  0  0  0  0  0  0
    2.6991   -2.0428    0.0000 C   0  0  0  0  0  0  0  0  0  0  0  0
    4.1217   -1.5675    0.0000 C   0  0  0  0  0  0  0  0  0  0  0  0
    5.2448   -2.5618    0.0000 O   0  0  0  0  0  0  0  0  0  0  0  0
    4.4214   -0.0977    0.0000 C   0  0  0  0  0  0  0  0  0  0  0  0
    5.8441    0.3777    0.0000 C   0  0  0  0  0  0  0  0  0  0  0  0
    6.1437    1.8475    0.0000 C   0  0  0  0  0  0  0  0  0  0  0  0
    5.0207    2.8418    0.0000 C   0  0  0  0  0  0  0  0  0  0  0  0
    3.5980    2.3665    0.0000 C   0  0  0  0  0  0  0  0  0  0  0  0
    3.2983    0.8967    0.0000 C   0  0  0  0  0  0  0  0  0  0  0  0
    1.8757    0.4213    0.0000 N   0  0  0  0  0  0  0  0  0  0  0  0
  1  2  1  0
  2  3  1  0
  3  4  1  0
  4  5  1  0
  5  6  1  0
  6  7  1  0
  7  8  1  0
  8  9  1  0
  9 10  1  0
 10 11  2  0
 11 12  1  0
 12 13  2  0
 12 14  1  0
 14 15  2  0
 15 16  1  0
 16 17  2  0
 17 18  1  0
 18 19  2  0
 19 20  1  0
 20 10  1  0
 19 14  1  0
M  END
>  <identifier>  (1746) 
CNP0242693.0

>  <canonical_smiles>  (1746) 
CCCCCCCCCC1=CC(=O)C2=CC=CC=C2N1

>  <standard_inchi>  (1746) 
InChI=1S/C18H25NO/c1-2-3-4-5-6-7-8-11-15-14-18(20)16-12-9-10-13-17(16)19-15/h9-10,12-14H,2-8,11H2,1H3,(H,19,20)

>  <standard_inchi_key>  (1746) 
KKRXDNYRUZGPFM-UHFFFAOYSA-N

>  <name>  (1746) 
2-Nonylquinolin-4(1h)-One

>  <iupac_name>  (1746) 
2-nonyl-1~{H}-quinolin-4-one

>  <annotation_level>  (1746) 
5

>  <total_atom_count>  (1746) 
45

>  <heavy_atom_count>  (1746) 
20

>  <molecular_weight>  (1746) 
271.4

>  <exact_molecular_weight>  (1746) 
271.19361

>  <molecular_formula>  (1746) 
C18H25NO

>  <alogp>  (1746) 
4.82

>  <topological_polar_surface_area>  (1746) 
32.86

>  <rotatable_bond_count>  (1746) 
8

>  <hydrogen_bond_acceptors>  (1746) 
1

>  <hydrogen_bond_donors>  (1746) 
1

>  <hydrogen_bond_acceptors_lipinski>  (1746) 
1

>  <hydrogen_bond_donors_lipinski>  (1746) 
1

>  <lipinski_rule_of_five_violations>  (1746) 
0

>  <aromatic_rings_count>  (1746) 
2

>  <qed_drug_likeliness>  (1746) 
0.69

>  <formal_charge>  (1746) 
0

>  <fractioncsp3>  (1746) 
0.50

>  <number_of_minimal_rings>  (1746) 
2

>  <van_der_walls_volume>  (1746) 
278.79

>  <contains_sugar>  (1746) 
False

>  <contains_ring_sugars>  (1746) 
False

>  <contains_linear_sugars>  (1746) 
False

>  <murcko_framework>  (1746) 
c1ccc2c(c1)NC=CC2

>  <np_likeness>  (1746) 
0.16

>  <chemical_class>  (1746) 
Quinolines and derivatives

>  <chemical_sub_class>  (1746) 
Quinolones and derivatives

>  <chemical_super_class>  (1746) 
Organoheterocyclic compounds

>  <direct_parent_classification>  (1746) 
Hydroquinolones

>  <np_classifier_pathway>  (1746) 
Alkaloids

>  <np_classifier_superclass>  (1746) 
Tryptophan alkaloids

>  <np_classifier_class>  (1746) 
Quinoline alkaloids

>  <np_classifier_is_glycoside>  (1746) 
False

>  <organisms>  (1746) 
Boronia bowmanii|Boronia coerulescens|Boronia lanceolata|Boronia ramosa|Cyanothamnus coerulescens|Cyanothamnus ramosus|Evodia rutaecarpa|Flindersia maculosa|Haplophyllum acutifolium|Pseudomonas|Pseudomonas aeruginosa|Pseudomonas sp.|Raulinoa echinata|Ruta graveolens

>  <collections>  (1746) 
AnalytiCon Discovery NPs|Australian natural products|CMAUP (cCollective molecular activities of useful plants)|CMNPD|GNPS (Global Natural Products Social Molecular Networking)|KNApSaCK|Latin America dataset|Marine Natural Products|NPASS|NPEdia|NuBBEDB|Phyto4Health|TCMID (Traditional Chinese Medicine Integrated Database)|WikiData Natural Products|ZINC NP

>  <dois>  (1746) 
10.1002/PTR.999|10.1002/ptr.999|10.1007/PL00011792|10.1007/S007060050230|10.1016/J.PHYTOCHEM.2009.05.004|10.1016/S0021-9258(17)41580-8|10.1016/j.phytochem.2018.04.011|10.1021/JF0259361|10.1021/acs.jnatprod.0c00026|10.1021/jf0259361|10.1021/np50107a020|10.1039/b006897g|10.1590/S0103-50532002000100010

>  <synonyms>  (1746) 
2-NONYLQUINOLIN-4-OL|2-Nonyl-4(1H)-quinolinone|2-Nonyl-quinonyl-4-ol, data see keto form|2-Nonylquinolin-4(1H)-One(WXC01678)|2-Nonylquinolin-4(1H)-one|2-nonyl-1H-quinolin-4-one|2-nonyl-4(1h)-quinolone|2-nonyl-4-hydroxyquinoline|2503-81-3|4-Quinolinol, 2-nonyl-|55396-45-7|AKOS027255815|AS-54937|CAA50381|CHEMBL2270128|CS-0667372|DTXSID30431883|EN300-7415282|HY-W555382|MFCD28096829|NNQ|No Data|PD133700|Pseudane IX|Q27463885|SB70222|SCHEMBL21065454|SCHEMBL2126335|W11285|Z3247535644

>  <cas>  (1746) 
55396-45-7|2503-81-3

$$$$

     RDKit          2D

 47 53  0  0  0  0  0  0  0  0999 V2000
   -9.3476   -1.9359    0.0000 C   0  0  0  0  0  0  0  0  0  0  0  0
   -8.4457   -0.7373    0.0000 N   0  0  0  0  0  0  0  0  0  0  0  0
   -9.0327    0.6430    0.0000 C   0  0  0  0  0  0  0  0  0  0  0  0
  -10.5216    0.8249    0.0000 C   0  0  0  0  0  0  0  0  0  0  0  0
  -11.1086    2.2053    0.0000 C   0  0  0  0  0  0  0  0  0  0  0  0
  -10.2067    3.4038    0.0000 C   0  0  0  0  0  0  0  0  0  0  0  0
   -8.7177    3.2220    0.0000 C   0  0  0  0  0  0  0  0  0  0  0  0
   -8.1307    1.8416    0.0000 C   0  0  0  0  0  0  0  0  0  0  0  0
   -6.6418    1.6598    0.0000 C   0  0  0  0  0  0  0  0  0  0  0  0
   -5.7399    2.8583    0.0000 O   0  0  0  0  0  0  0  0  0  0  0  0
   -6.0548    0.2794    0.0000 O   0  0  0  0  0  0  0  0  0  0  0  0
   -4.5659    0.0975    0.0000 C   0  0  0  0  0  0  0  0  0  0  0  0
   -3.6639    1.2961    0.0000 C   0  0  0  0  0  0  0  0  0  0  0  0
   -2.1750    1.1143    0.0000 C   0  0  0  0  0  0  0  0  0  0  0  0
   -1.5880   -0.2661    0.0000 C   0  0  0  0  0  0  0  0  0  0  0  0
   -0.6861    0.9324    0.0000 C   0  0  0  0  0  0  0  0  0  0  0  0
   -0.0991   -0.4480    0.0000 C   0  0  0  0  0  0  0  0  0  0  0  0
    0.8029    0.7506    0.0000 C   0  0  0  0  0  0  0  0  0  0  0  0
    2.2918    0.5688    0.0000 C   0  0  0  0  0  0  0  0  0  0  0  0
    2.8788   -0.8116    0.0000 C   0  0  0  0  0  0  0  0  0  0  0  0
    3.4658   -2.1920    0.0000 C   0  0  0  0  0  0  0  0  0  0  0  0
    1.9769   -2.0102    0.0000 C   0  0  0  0  0  0  0  0  0  0  0  0
    2.8380   -3.2383    0.0000 C   0  0  0  0  0  0  0  0  0  0  0  0
    4.2722   -2.7988    0.0000 C   0  0  0  0  0  0  0  0  0  0  0  0
    4.2974   -1.2990    0.0000 C   0  0  0  0  0  0  0  0  0  0  0  0
    5.5256   -0.4379    0.0000 C   0  0  0  0  0  0  0  0  0  0  0  0
    5.5508    1.0619    0.0000 C   0  0  0  0  0  0  0  0  0  0  0  0
    6.9850    1.5014    0.0000 C   0  0  0  0  0  0  0  0  0  0  0  0
    7.4724    2.9200    0.0000 C   0  0  0  0  0  0  0  0  0  0  0  0
    6.4876    4.0514    0.0000 O   0  0  0  0  0  0  0  0  0  0  0  0
    8.9446    3.2072    0.0000 C   0  0  0  0  0  0  0  0  0  0  0  0
    9.2318    1.7349    0.0000 C   0  0  0  0  0  0  0  0  0  0  0  0
    8.6575    4.6794    0.0000 C   0  0  0  0  0  0  0  0  0  0  0  0
   10.4169    3.4943    0.0000 O   0  0  0  0  0  0  0  0  0  0  0  0
    7.8461    0.2732    0.0000 O   0  0  0  0  0  0  0  0  0  0  0  0
    6.9442   -0.9253    0.0000 C   0  0  0  0  0  0  0  0  0  0  0  0
    7.3837   -2.3595    0.0000 O   0  0  0  0  0  0  0  0  0  0  0  0
    8.8454   -2.6959    0.0000 C   0  0  0  0  0  0  0  0  0  0  0  0
    0.4879   -1.8283    0.0000 C   0  0  0  0  0  0  0  0  0  0  0  0
    1.0749   -3.2087    0.0000 C   0  0  0  0  0  0  0  0  0  0  0  0
   -0.4140   -3.0269    0.0000 C   0  0  0  0  0  0  0  0  0  0  0  0
    0.1730   -4.4072    0.0000 O   0  0  0  0  0  0  0  0  0  0  0  0
   -1.9029   -2.8450    0.0000 C   0  0  0  0  0  0  0  0  0  0  0  0
   -2.4899   -1.4647    0.0000 C   0  0  0  0  0  0  0  0  0  0  0  0
   -3.9789   -1.2828    0.0000 C   0  0  0  0  0  0  0  0  0  0  0  0
   -5.4402   -1.6212    0.0000 C   0  0  0  0  0  0  0  0  0  0  0  0
   -3.8994   -2.7807    0.0000 C   0  0  0  0  0  0  0  0  0  0  0  0
  1  2  1  0
  2  3  1  0
  3  4  2  0
  4  5  1  0
  5  6  2  0
  6  7  1  0
  7  8  2  0
  8  9  1  0
  9 10  2  0
  9 11  1  0
 12 11  1  1
 12 13  1  0
 13 14  1  0
 14 15  1  0
 15 16  1  1
 15 17  1  0
 17 18  1  1
 18 19  1  0
 20 19  1  6
 20 21  1  0
 22 21  1  6
 22 23  1  0
 23 24  1  0
 25 24  1  6
 25 26  1  0
 26 27  1  6
 28 27  1  6
 28 29  1  0
 29 30  1  6
 29 31  1  0
 31 32  1  0
 31 33  1  0
 31 34  1  0
 28 35  1  0
 35 36  1  0
 36 37  1  1
 37 38  1  0
 22 39  1  0
 39 40  1  1
 39 41  1  0
 41 42  1  6
 41 43  1  0
 44 43  1  1
 44 45  1  0
 45 46  1  0
 45 47  1  0
  8  3  1  0
 45 12  1  0
 44 15  1  0
 39 17  1  0
 22 20  1  0
 36 26  1  0
 25 20  1  0
M  END
>  <identifier>  (1747) 
CNP0113714.2

>  <canonical_smiles>  (1747) 
CNC1=CC=CC=C1C(=O)O[C@H]1CC[C@]2(C)[C@H]3CC[C@]45C[C@]4(CC[C@H]5[C@@H]4C[C@H]([C@H](O)C(C)(C)O)O[C@H]4OC)[C@]3(C)[C@H](O)C[C@H]2C1(C)C

>  <standard_inchi>  (1747) 
InChI=1S/C39H59NO7/c1-34(2)28-20-29(41)37(6)27(36(28,5)16-15-30(34)47-32(43)22-11-9-10-12-25(22)40-7)14-17-38-21-39(37,38)18-13-24(38)23-19-26(46-33(23)45-8)31(42)35(3,4)44/h9-12,23-24,26-31,33,40-42,44H,13-21H2,1-8H3/t23-,24-,26+,27+,28-,29+,30-,31-,33+,36+,37-,38+,39+/m0/s1

>  <standard_inchi_key>  (1747) 
YERUMUXLLQMXCB-RYYKTKLLSA-N

>  <name>  (1747) 
[(1S,2R,3R,5R,7S,10S,11R,14R,15S)-15-[(2R,3S,5R)-5-[(1S)-1,2-dihydroxy-2-methylpropyl]-2-methoxyoxolan-3-yl]-3-hydroxy-2,6,6,10-tetramethyl-7-pentacyclo[12.3.1.01,14.02,11.05,10]octadecanyl] 2-(methylamino)benzoate

>  <iupac_name>  (1747) 
[(1~{S},2~{R},3~{R},5~{R},7~{S},10~{S},11~{R},14~{R},15~{S})-15-[(2~{R},3~{S},5~{R})-5-[(1~{S})-1,2-dihydroxy-2-methyl-propyl]-2-methoxy-tetrahydrofuran-3-yl]-3-hydroxy-2,6,6,10-tetramethyl-7-pentacyclo[12.3.1.0^{1,14}.0^{2,11}.0^{5,10}]octadecanyl] 2-(methylamino)benzoate

>  <annotation_level>  (1747) 
5

>  <total_atom_count>  (1747) 
106

>  <heavy_atom_count>  (1747) 
47

>  <molecular_weight>  (1747) 
653.9

>  <exact_molecular_weight>  (1747) 
653.42915

>  <molecular_formula>  (1747) 
C39H59NO7

>  <alogp>  (1747) 
6.17

>  <topological_polar_surface_area>  (1747) 
117.48

>  <rotatable_bond_count>  (1747) 
7

>  <hydrogen_bond_acceptors>  (1747) 
8

>  <hydrogen_bond_donors>  (1747) 
4

>  <hydrogen_bond_acceptors_lipinski>  (1747) 
8

>  <hydrogen_bond_donors_lipinski>  (1747) 
4

>  <lipinski_rule_of_five_violations>  (1747) 
2

>  <aromatic_rings_count>  (1747) 
1

>  <qed_drug_likeliness>  (1747) 
0.26

>  <formal_charge>  (1747) 
0

>  <fractioncsp3>  (1747) 
0.82

>  <number_of_minimal_rings>  (1747) 
7

>  <van_der_walls_volume>  (1747) 
nan

>  <contains_sugar>  (1747) 
False

>  <contains_ring_sugars>  (1747) 
False

>  <contains_linear_sugars>  (1747) 
False

>  <murcko_framework>  (1747) 
O1CCC(C1)C2CCC34CC24CCC5C6CCC(OCc7ccccc7)CC6CCC53

>  <np_likeness>  (1747) 
2.73

>  <chemical_class>  (1747) 
Steroids and steroid derivatives

>  <chemical_sub_class>  (1747) 
Hydroxysteroids

>  <chemical_super_class>  (1747) 
Lipids and lipid-like molecules

>  <direct_parent_classification>  (1747) 
Hydroxysteroids

>  <np_classifier_pathway>  (1747) 
Terpenoids

>  <np_classifier_superclass>  (1747) 
Steroids

>  <np_classifier_class>  (1747) 
Apotirucallane triterpenoids

>  <np_classifier_is_glycoside>  (1747) 
True

>  <organisms>  (1747) 
Feroniella lucida|Raulinoa echinata

>  <collections>  (1747) 
Latin America dataset|NPASS|NuBBEDB|Super Natural II|WikiData Natural Products|ZINC NP

>  <dois>  (1747) 
10.1016/J.TETLET.2006.11.132|10.1021/NP0103970|10.1021/np0103970

>  <synonyms>  (1747) 
(21S23S)-Epoxy-21\u221a\u00e9\u00ac\u00b1-methoxy-7\u221a\u00e9\u00ac\u00b124S25-trihydroxy- 4\u221a\u00e9\u00ac\u00b14\u221a\u00e9\u00ac\u22648\u221a\u00e9\u00ac\u226410\u221a\u00e9\u00ac\u2264-tetramethyl-25-dimethyl-1418-cyclo-5\u221a\u00e9\u00ac\u00b113 \u221a\u00e9\u00ac\u00b1- 14 \u221a\u00e9\u00ac\u00b117\u221a\u00e9\u00ac\u00b1-cholestan-3\u221a\u00e9\u00ac\u2264-N-methylanthranilic acid ester|CHEMBL448218

>  <cas>  (1747) 
nan

$$$$

     RDKit          2D

 40 43  0  0  0  0  0  0  0  0999 V2000
   -8.6737   -6.0834    0.0000 C   0  0  0  0  0  0  0  0  0  0  0  0
   -7.7741   -4.8831    0.0000 C   0  0  0  0  0  0  0  0  0  0  0  0
   -6.2848   -5.0620    0.0000 C   0  0  0  0  0  0  0  0  0  0  0  0
   -5.6951   -6.4412    0.0000 C   0  0  0  0  0  0  0  0  0  0  0  0
   -5.3852   -3.8617    0.0000 C   0  0  0  0  0  0  0  0  0  0  0  0
   -5.9749   -2.4825    0.0000 C   0  0  0  0  0  0  0  0  0  0  0  0
   -5.0753   -1.2821    0.0000 C   0  0  0  0  0  0  0  0  0  0  0  0
   -5.6651    0.0971    0.0000 C   0  0  0  0  0  0  0  0  0  0  0  0
   -4.7655    1.2974    0.0000 C   0  0  0  0  0  0  0  0  0  0  0  0
   -5.3552    2.6766    0.0000 C   0  0  0  0  0  0  0  0  0  0  0  0
   -6.8445    2.8555    0.0000 Cl  0  0  0  0  0  0  0  0  0  0  0  0
   -4.4556    3.8769    0.0000 C   0  0  0  0  0  0  0  0  0  0  0  0
   -5.0453    5.2561    0.0000 O   0  0  0  0  0  0  0  0  0  0  0  0
   -2.9663    3.6980    0.0000 C   0  0  0  0  0  0  0  0  0  0  0  0
   -1.8368    4.6851    0.0000 O   0  0  0  0  0  0  0  0  0  0  0  0
   -0.5490    3.9159    0.0000 C   0  0  0  0  0  0  0  0  0  0  0  0
    0.8302    4.5056    0.0000 O   0  0  0  0  0  0  0  0  0  0  0  0
   -0.8826    2.4534    0.0000 C   0  0  0  0  0  0  0  0  0  0  0  0
    0.1044    1.3240    0.0000 C   0  0  0  0  0  0  0  0  0  0  0  0
   -0.3802   -0.0956    0.0000 O   0  0  0  0  0  0  0  0  0  0  0  0
    1.5761    1.6140    0.0000 C   0  0  0  0  0  0  0  0  0  0  0  0
    2.0607    3.0336    0.0000 C   0  0  0  0  0  0  0  0  0  0  0  0
    2.5631    0.4845    0.0000 C   0  0  0  0  0  0  0  0  0  0  0  0
    2.0785   -0.9350    0.0000 C   0  0  0  0  0  0  0  0  0  0  0  0
    4.0348    0.7746    0.0000 O   0  0  0  0  0  0  0  0  0  0  0  0
    5.0219   -0.3549    0.0000 C   0  0  0  0  0  0  0  0  0  0  0  0
    4.5372   -1.7744    0.0000 O   0  0  0  0  0  0  0  0  0  0  0  0
    6.4936   -0.0648    0.0000 C   0  0  0  0  0  0  0  0  0  0  0  0
    6.9782    1.3547    0.0000 O   0  0  0  0  0  0  0  0  0  0  0  0
    8.4499    1.6448    0.0000 C   0  0  0  0  0  0  0  0  0  0  0  0
    7.4806   -1.1943    0.0000 C   0  0  0  0  0  0  0  0  0  0  0  0
    6.9960   -2.6138    0.0000 C   0  0  0  0  0  0  0  0  0  0  0  0
    7.9830   -3.7433    0.0000 C   0  0  0  0  0  0  0  0  0  0  0  0
    9.4547   -3.4533    0.0000 C   0  0  0  0  0  0  0  0  0  0  0  0
    9.9393   -2.0337    0.0000 C   0  0  0  0  0  0  0  0  0  0  0  0
    8.9523   -0.9042    0.0000 C   0  0  0  0  0  0  0  0  0  0  0  0
   -2.3766    2.3188    0.0000 C   0  0  0  0  0  0  0  0  0  0  0  0
   -3.2762    1.1185    0.0000 C   0  0  0  0  0  0  0  0  0  0  0  0
   -2.6865   -0.2607    0.0000 C   0  0  0  0  0  0  0  0  0  0  0  0
   -3.5860   -1.4610    0.0000 O   0  0  0  0  0  0  0  0  0  0  0  0
  1  2  1  0
  2  3  1  0
  3  4  1  1
  3  5  1  0
  5  6  2  0
  6  7  1  0
  7  8  2  0
  8  9  1  0
  9 10  2  0
 10 11  1  0
 10 12  1  0
 12 13  2  0
 12 14  1  0
 14 15  1  0
 15 16  1  0
 16 17  2  0
 16 18  1  0
 18 19  1  0
 19 20  2  0
 19 21  1  0
 21 22  1  1
 21 23  1  0
 23 24  1  1
 23 25  1  0
 25 26  1  0
 26 27  2  0
 26 28  1  0
 28 29  1  6
 29 30  1  0
 28 31  1  0
 31 32  2  0
 32 33  1  0
 33 34  2  0
 34 35  1  0
 35 36  2  0
 18 37  2  0
 37 38  1  0
 38 39  2  0
 39 40  1  0
 40  7  1  0
 38  9  1  0
 37 14  1  0
 36 31  1  0
M  END
>  <identifier>  (1748) 
CNP0080402.1

>  <canonical_smiles>  (1748) 
CC[C@H](C)/C=C/C1=CC2=C(Cl)C(=O)C3OC(=O)C(C(=O)[C@@H](C)[C@H](C)OC(=O)[C@H](OC)C4=CC=CC=C4)=C3C2=CO1

>  <standard_inchi>  (1748) 
InChI=1S/C31H31ClO8/c1-6-16(2)12-13-20-14-21-22(15-38-20)23-24(30(35)40-29(23)27(34)25(21)32)26(33)17(3)18(4)39-31(36)28(37-5)19-10-8-7-9-11-19/h7-18,28-29H,6H2,1-5H3/b13-12+/t16-,17-,18-,28+,29?/m0/s1

>  <standard_inchi_key>  (1748) 
AHNBTXOECDZQFQ-SYJSAGKOSA-N

>  <name>  (1748) 
nan

>  <iupac_name>  (1748) 
[(1~{S},2~{S})-3-[5-chloro-3-[(~{E},3~{S})-3-methylpent-1-enyl]-6,8-dioxo-6~{a}~{H}-furo[2,3-h]isochromen-9-yl]-1,2-dimethyl-3-oxo-propyl] (2~{R})-2-methoxy-2-phenyl-acetate

>  <annotation_level>  (1748) 
4

>  <total_atom_count>  (1748) 
71

>  <heavy_atom_count>  (1748) 
40

>  <molecular_weight>  (1748) 
567.03

>  <exact_molecular_weight>  (1748) 
566.17075

>  <molecular_formula>  (1748) 
C31H31ClO8

>  <alogp>  (1748) 
5.21

>  <topological_polar_surface_area>  (1748) 
105.20

>  <rotatable_bond_count>  (1748) 
10

>  <hydrogen_bond_acceptors>  (1748) 
8

>  <hydrogen_bond_donors>  (1748) 
0

>  <hydrogen_bond_acceptors_lipinski>  (1748) 
8

>  <hydrogen_bond_donors_lipinski>  (1748) 
0

>  <lipinski_rule_of_five_violations>  (1748) 
2

>  <aromatic_rings_count>  (1748) 
1

>  <qed_drug_likeliness>  (1748) 
0.28

>  <formal_charge>  (1748) 
0

>  <fractioncsp3>  (1748) 
0.36

>  <number_of_minimal_rings>  (1748) 
4

>  <van_der_walls_volume>  (1748) 
nan

>  <contains_sugar>  (1748) 
False

>  <contains_ring_sugars>  (1748) 
False

>  <contains_linear_sugars>  (1748) 
False

>  <murcko_framework>  (1748) 
O1C=CC2=CCC3OCC(=C3C2=C1)CCCOCCc4ccccc4

>  <np_likeness>  (1748) 
1.45

>  <chemical_class>  (1748) 
Benzene and substituted derivatives

>  <chemical_sub_class>  (1748) 
Benzylethers

>  <chemical_super_class>  (1748) 
Benzenoids

>  <direct_parent_classification>  (1748) 
Benzylethers

>  <np_classifier_pathway>  (1748) 
Polyketides

>  <np_classifier_superclass>  (1748) 
Chromanes

>  <np_classifier_class>  (1748) 
Azaphilones

>  <np_classifier_is_glycoside>  (1748) 
False

>  <organisms>  (1748) 
Chaetomium globosum

>  <collections>  (1748) 
Latin America dataset|NuBBEDB|WikiData Natural Products

>  <dois>  (1748) 
10.1021/NP200110F|10.1021/np200110f

>  <synonyms>  (1748) 
(R)-MPA- 5'-epichaetoviridin A

>  <cas>  (1748) 
nan

$$$$

     RDKit          2D

 29 33  0  0  0  0  0  0  0  0999 V2000
   -7.3459   -2.4251    0.0000 C   0  0  0  0  0  0  0  0  0  0  0  0
   -7.2591   -0.9276    0.0000 C   0  0  0  0  0  0  0  0  0  0  0  0
   -8.5126   -0.1037    0.0000 C   0  0  0  0  0  0  0  0  0  0  0  0
   -5.9189   -0.2540    0.0000 C   0  0  0  0  0  0  0  0  0  0  0  0
   -4.5861   -0.9423    0.0000 C   0  0  0  0  0  0  0  0  0  0  0  0
   -3.5196    0.1125    0.0000 C   0  0  0  0  0  0  0  0  0  0  0  0
   -4.1932    1.4527    0.0000 C   0  0  0  0  0  0  0  0  0  0  0  0
   -3.3693    2.7062    0.0000 C   0  0  0  0  0  0  0  0  0  0  0  0
   -1.8718    2.6194    0.0000 C   0  0  0  0  0  0  0  0  0  0  0  0
   -1.1982    1.2792    0.0000 C   0  0  0  0  0  0  0  0  0  0  0  0
   -2.0221    0.0257    0.0000 C   0  0  0  0  0  0  0  0  0  0  0  0
   -1.3485   -1.3146    0.0000 O   0  0  0  0  0  0  0  0  0  0  0  0
    0.1490   -1.4013    0.0000 C   0  0  0  0  0  0  0  0  0  0  0  0
    0.8226   -2.7416    0.0000 C   0  0  0  0  0  0  0  0  0  0  0  0
    2.3200   -2.8283    0.0000 O   0  0  0  0  0  0  0  0  0  0  0  0
    3.1439   -1.5749    0.0000 C   0  0  0  0  0  0  0  0  0  0  0  0
    4.6414   -1.6616    0.0000 C   0  0  0  0  0  0  0  0  0  0  0  0
    5.4653   -0.4081    0.0000 C   0  0  0  0  0  0  0  0  0  0  0  0
    6.9628   -0.4949    0.0000 O   0  0  0  0  0  0  0  0  0  0  0  0
    7.6364   -1.8352    0.0000 C   0  0  0  0  0  0  0  0  0  0  0  0
    4.7917    0.9321    0.0000 C   0  0  0  0  0  0  0  0  0  0  0  0
    5.6156    2.1856    0.0000 O   0  0  0  0  0  0  0  0  0  0  0  0
    7.1131    2.0988    0.0000 C   0  0  0  0  0  0  0  0  0  0  0  0
    3.2942    1.0189    0.0000 C   0  0  0  0  0  0  0  0  0  0  0  0
    2.4703   -0.2346    0.0000 C   0  0  0  0  0  0  0  0  0  0  0  0
    0.9728   -0.1478    0.0000 C   0  0  0  0  0  0  0  0  0  0  0  0
    0.2992    1.1924    0.0000 C   0  0  0  0  0  0  0  0  0  0  0  0
    1.1231    2.4459    0.0000 O   0  0  0  0  0  0  0  0  0  0  0  0
   -5.6760    1.2262    0.0000 O   0  0  0  0  0  0  0  0  0  0  0  0
  1  2  2  0
  2  3  1  0
  4  2  1  6
  4  5  1  0
  5  6  1  0
  6  7  2  0
  7  8  1  0
  8  9  2  0
  9 10  1  0
 10 11  2  0
 11 12  1  0
 12 13  1  0
 13 14  1  6
 14 15  1  0
 15 16  1  0
 16 17  2  0
 17 18  1  0
 18 19  1  0
 19 20  1  0
 18 21  2  0
 21 22  1  0
 22 23  1  0
 21 24  1  0
 24 25  2  0
 25 26  1  0
 26 27  1  6
 27 28  2  0
  7 29  1  0
 29  4  1  0
 11  6  1  0
 26 13  1  0
 27 10  1  0
 25 16  1  0
M  END
>  <identifier>  (1749) 
CNP0370102.6

>  <canonical_smiles>  (1749) 
C=C(C)[C@H]1CC2=C(C=CC3=C2O[C@H]2COC4=CC(OC)=C(OC)C=C4[C@H]2C3=O)O1

>  <standard_inchi>  (1749) 
InChI=1S/C23H22O6/c1-11(2)16-8-14-15(28-16)6-5-12-22(24)21-13-7-18(25-3)19(26-4)9-17(13)27-10-20(21)29-23(12)14/h5-7,9,16,20-21H,1,8,10H2,2-4H3/t16-,20+,21-/m1/s1

>  <standard_inchi_key>  (1749) 
JUVIOZPCNVVQFO-TYCQWZJGSA-N

>  <name>  (1749) 
Epirotenone

>  <iupac_name>  (1749) 
(1~{R},6~{R},13~{R})-6-isopropenyl-16,17-dimethoxy-2,7,20-trioxapentacyclo[11.8.0.0^{3,11}.0^{4,8}.0^{14,19}]henicosa-3(11),4(8),9,14,16,18-hexaen-12-one

>  <annotation_level>  (1749) 
5

>  <total_atom_count>  (1749) 
51

>  <heavy_atom_count>  (1749) 
29

>  <molecular_weight>  (1749) 
394.42

>  <exact_molecular_weight>  (1749) 
394.14164

>  <molecular_formula>  (1749) 
C23H22O6

>  <alogp>  (1749) 
3.70

>  <topological_polar_surface_area>  (1749) 
63.22

>  <rotatable_bond_count>  (1749) 
3

>  <hydrogen_bond_acceptors>  (1749) 
6

>  <hydrogen_bond_donors>  (1749) 
0

>  <hydrogen_bond_acceptors_lipinski>  (1749) 
6

>  <hydrogen_bond_donors_lipinski>  (1749) 
0

>  <lipinski_rule_of_five_violations>  (1749) 
0

>  <aromatic_rings_count>  (1749) 
2

>  <qed_drug_likeliness>  (1749) 
0.74

>  <formal_charge>  (1749) 
0

>  <fractioncsp3>  (1749) 
0.35

>  <number_of_minimal_rings>  (1749) 
5

>  <van_der_walls_volume>  (1749) 
nan

>  <contains_sugar>  (1749) 
False

>  <contains_ring_sugars>  (1749) 
False

>  <contains_linear_sugars>  (1749) 
False

>  <murcko_framework>  (1749) 
O1c2ccc3c(OC4COc5ccccc5C4C3)c2CC1

>  <np_likeness>  (1749) 
1.84

>  <chemical_class>  (1749) 
Isoflavonoids

>  <chemical_sub_class>  (1749) 
Rotenoids

>  <chemical_super_class>  (1749) 
Phenylpropanoids and polyketides

>  <direct_parent_classification>  (1749) 
Rotenones

>  <np_classifier_pathway>  (1749) 
Shikimates and Phenylpropanoids

>  <np_classifier_superclass>  (1749) 
Isoflavonoids

>  <np_classifier_class>  (1749) 
Rotenoids

>  <np_classifier_is_glycoside>  (1749) 
False

>  <organisms>  (1749) 
Pachyrhizus tuberosus|Tephrosia candida

>  <collections>  (1749) 
Australian natural products|Latin America dataset|NuBBEDB|WikiData Natural Products|ZINC NP

>  <dois>  (1749) 
10.1002/(SICI)1521-4168(19980901)21:9<513::AID-JHRC513>3.0.CO,2-F|10.1002/(SICI)1521-4168(19980901)21:9<513::AID-JHRC513>3.0.CO;2-F|10.1002/(sici)1521-4168(19980901)21:9<513::aid-jhrc513>3.0.co;2-f|10.1016/0031-9422(92)83161-Q

>  <synonyms>  (1749) 
(+)-Epirotenone|(1)-Benzopyrano(3,4-b)furo(2,3-h)(1)benzopyran-6(6aH)-one, 1,2,12,12a-tetrahydro-8,9-dimethoxy-2-(1-methylethenyl)-, (2R-(2alpha,6abeta,12abeta))-|24946-59-6|5'beta-Epiroenone|CHEMBL267461|SCHEMBL20152380|\u221a\u00e9\u00ac\u2264\u221a\u00e9\u00ac\u2264-rotenone

>  <cas>  (1749) 
24946-59-6

$$$$

     RDKit          2D

 10 10  0  0  0  0  0  0  0  0999 V2000
    3.7500    0.0000    0.0000 C   0  0  0  0  0  0  0  0  0  0  0  0
    2.2500   -0.0000    0.0000 C   0  0  0  0  0  0  0  0  0  0  0  0
    1.5000   -1.2990    0.0000 C   0  0  0  0  0  0  0  0  0  0  0  0
   -0.0000   -1.2990    0.0000 C   0  0  0  0  0  0  0  0  0  0  0  0
   -0.7500    0.0000    0.0000 C   0  0  0  0  0  0  0  0  0  0  0  0
   -2.2500    0.0000    0.0000 C   0  0  0  0  0  0  0  0  0  0  0  0
   -3.0000    1.2990    0.0000 C   0  0  0  0  0  0  0  0  0  0  0  0
   -3.0000   -1.2990    0.0000 C   0  0  0  0  0  0  0  0  0  0  0  0
    0.0000    1.2990    0.0000 C   0  0  0  0  0  0  0  0  0  0  0  0
    1.5000    1.2990    0.0000 C   0  0  0  0  0  0  0  0  0  0  0  0
  1  2  1  0
  2  3  2  0
  3  4  1  0
  4  5  1  0
  5  6  2  0
  6  7  1  0
  6  8  1  0
  5  9  1  0
  9 10  1  0
 10  2  1  0
M  END
>  <identifier>  (1750) 
CNP0160264.0

>  <canonical_smiles>  (1750) 
CC1=CCC(=C(C)C)CC1

>  <standard_inchi>  (1750) 
InChI=1S/C10H16/c1-8(2)10-6-4-9(3)5-7-10/h4H,5-7H2,1-3H3

>  <standard_inchi_key>  (1750) 
MOYAFQVGZZPNRA-UHFFFAOYSA-N

>  <name>  (1750) 
TERPINOLENE

>  <iupac_name>  (1750) 
4-isopropylidene-1-methyl-cyclohexene

>  <annotation_level>  (1750) 
5

>  <total_atom_count>  (1750) 
26

>  <heavy_atom_count>  (1750) 
10

>  <molecular_weight>  (1750) 
136.24

>  <exact_molecular_weight>  (1750) 
136.1252

>  <molecular_formula>  (1750) 
C10H16

>  <alogp>  (1750) 
3.45

>  <topological_polar_surface_area>  (1750) 
0.00

>  <rotatable_bond_count>  (1750) 
0

>  <hydrogen_bond_acceptors>  (1750) 
0

>  <hydrogen_bond_donors>  (1750) 
0

>  <hydrogen_bond_acceptors_lipinski>  (1750) 
0

>  <hydrogen_bond_donors_lipinski>  (1750) 
0

>  <lipinski_rule_of_five_violations>  (1750) 
0

>  <aromatic_rings_count>  (1750) 
0

>  <qed_drug_likeliness>  (1750) 
0.45

>  <formal_charge>  (1750) 
0

>  <fractioncsp3>  (1750) 
0.60

>  <number_of_minimal_rings>  (1750) 
1

>  <van_der_walls_volume>  (1750) 
154.89

>  <contains_sugar>  (1750) 
False

>  <contains_ring_sugars>  (1750) 
False

>  <contains_linear_sugars>  (1750) 
False

>  <murcko_framework>  (1750) 
C1=CCCCC1

>  <np_likeness>  (1750) 
2.58

>  <chemical_class>  (1750) 
Prenol lipids

>  <chemical_sub_class>  (1750) 
Monoterpenoids

>  <chemical_super_class>  (1750) 
Lipids and lipid-like molecules

>  <direct_parent_classification>  (1750) 
Monocyclic monoterpenoids

>  <np_classifier_pathway>  (1750) 
Terpenoids

>  <np_classifier_superclass>  (1750) 
Monoterpenoids

>  <np_classifier_class>  (1750) 
nan

>  <np_classifier_is_glycoside>  (1750) 
False

>  <organisms>  (1750) 
Abies balsamea|Abies grandis|Abies sachalinensis|Abies sibirica|Abrus pulchellus|Aceriphyllum rossii|Achillea abrotanoides|Achillea arabica|Achillea biebersteinii|Achillea millefolium|Acmella ciliata|Aconitum episcopale|Aconitum kamtschaticum|Aconitum vilmorinianum|Aconitum violaceum|Acorus calamus|Acorus calanus L.|Acronychia haplophylla|Actinidia kolomikta|Actinoalloteichus cyanogriseus|Actinodium cunninghamii|Adina trichotoma|Aethalium septicum|Afraegle paniculata|Agathosma betulina|Agathosma capensis|Agelas linnaei|Ageratum conyzoides|Agnorhiza bolanderi|Aguacate|Aiouea costaricensis|Alcea rosea|Alcyonium utinomii|Aldisa sanguinea|Alligator mississippiensis|Alligator sinensis|Aloysia citriodora|Aloysia citrodora|Aloysia gratissima|Aloysia triphylla|Alphinia galanga|Alpinia blepharocalyx|Alpinia conchigera|Alpinia galanga|Alpinia latilabris|Alpinia zerumbet|Alternaria japonica|Amauris niavius|Ambrosia eriocentra|Amelanchier alnifolia|Amitermes beaumonti|Amitermes papuanus|Ammodendron karelinii|Amomum compactum|Amomum kravanh|Amomum krervanh|Amomum villosum|Amyris marshii|Anacyclus pyrethrum|Anaxagorea clavata|Anethum graveolens|Angelica acutiloba|Angelica archangelica|Angelica gigas|Angelica sinensis|Anguilla japonica|Anisotome antipoda|Annona cascarilloides|Annona squamosa|Anthemis aciphylla|Anthemis aciphylla BOISS.var.discoidea BOISS|Aonidiella aurantii|Apium graveolens|Aplysina archeri|Araiostegiella perdurans|Araucaria cunninghamii|Araujia sericifera|Ardisia arborescens|Aria pallescens|Armina maculata|Arnica nevadensis|Aromia moschata|Artemisia Annua|Artemisia absinthium|Artemisia afra|Artemisia annua|Artemisia arborescens|Artemisia argyi|Artemisia capillaris|Artemisia herba-alba|Artemisia lagocephala|Artemisia messerschmidtiana|Artemisia monogyna|Artemisia montana|Artemisia princeps|Artemisia rubripes|Artemisia spicigera|Artemisia thuscula|Arum maculatum|Asarum canadense|Asarum heterotropoides|Asarum heterotropoides f. schm. var. mandshuricum (maxim.) kitag.|Asarum heterotropoides var. mandshuricum|Asarum heterotropoides var.mandshuricum|Asarum sieboldii|Ascidia ahodori|Ascotricha chartarum|Asiasarum heterotropoides|Asiasarum sieboldii|Aspergillus carneus|Aspergillus falconensis|Aspergillus ruber|Aspergillus striatus|Aspergillus violaceus|Aster scaber|Aster tataricus|Asterolasia squamuligera|Astragalus glycyphyllos|Athamanta macedonica|Athrixia elata|Austrobaileya scandens|Azadirachta indica|Baccharis articulata|Baccharis dracunculifolia|Baccharis rufescens|Baeckea frutescens|Baeckea frutescens L.|Balanops australiana|Bassia butyracea|Beauveria bassiana|Beauveria sulfurescens|Beilschmiedia pendula|Beyeria brevifolia|Bidens andicola|Bitter bush|Bleekeria vitiensis|Blepharocalyx salicifolius|Blepharocalyx tweediei|Boronella koniambiensis|Boronia latipinna|Boswellia carteri|Boswellia carterii|Boswellia sacra|Botryotrichum murorum|Brachylaena perrieri|Brachyspira hyodysenteriae|Brevibacillus laterosporus|Buglossoides arvensis|Bunium paucifolium|Bupleurum fruticosum|Bursaria spinosa|Bystropogon canariensis|Bystropogon mollis|Cacia concinna|Caesulia axillaris|Calamintha incana|Callistemon linearis|Callitropsis nootkatensis|Camellia sinensis|Canarium luzonicum|Canarium strictum|Canella winterana|Cannabis sativa|Cantinoa mutabilis|Carica papaya|Carum carvi|Cassinia subtropica|Catha edulis|Catharanthus roseus|Caulerpa serrulata|Cedrus atlantica|Cedrus deodara|Cedrus libani|Centaurea cheiranthifolia|Centranthus longiflorus ssp. longiflorus|Ceramium rubrum|Ceratiomyxa fruticulosa|Cetraria aculeata|Cetraria komarovii|Chaerophyllum azoricum|Chamaecyparis lawsoniana|Chamaecyparis obtusa|Chamaecyparis pisifera|Chamelaucium uncinatum|Chloranthus tianmushanensis|Chondromyces crocatus|Chresta sphaerocephala|Chromolaena odorata|Chromolaena pulchella|Chrysanthemum indicum|Chrysanthemum morifolium|Chrysanthemum x morifolium|Chrysanthemum zawadskii|Cinamomum cassia|Cinnamomum aromaticum|Cinnamomum camphora|Cinnamomum illicioides|Cinnamomum sieboldii|Cinnamomum tenuifolium|Cinnamomum verum|Cinnamomum zeylanicum|Cinnamon|Cistus albidus|Cistus creticus|Cistus ladanifer|Cistus laurifolius|Cistus monspeliensis|Citrullus lanatus|Citrus|Citrus Aurantifolia|Citrus Aurantium|Citrus Hystrix|Citrus Paradisi|Citrus Reticulata|Citrus Sinensis|Citrus aurantifolia|Citrus aurantiifolia|Citrus aurantium|Citrus aurantium var. amara|Citrus aurantium var. amara engl.|Citrus grandis|Citrus hystrix|Citrus junos|Citrus limon|Citrus maxima|Citrus medica|Citrus natsudaidai|Citrus paradisi|Citrus reticulata|Citrus reticulate|Citrus sinensis|Citrus spp.|Citrus trifoliata|Citrus unshiu|Citrus unshiu Marc.|Citrus wilsonii|Citrus × deliciosa|Citrus × paradisi|Cladanthus arabicus|Cladonia evansii|Clausena excavata|Cleistopholis patens|Cleonia lusitanica|Clinopodium album|Clinopodium barbatum|Clinopodium brevifolium|Clinopodium carolinianum|Clinopodium congestum|Clinopodium grandiflorum|Clinopodium insulare|Clinopodium thymifolium|Clonostachys rosea|Cnidium officinale|Coccus fagi|Codium fragile|Codonopsis pilosula|Coelogorgia palmosa|Coespeletia timotensis|Colchicum arenarium|Commiphora quadricincta|Conyza bonariensis|Conyza incana|Conyza newii|Coreopsis grandiflora|Coriandrum sativum|Cornulaca monacantha|Cornus officinalis|Cortinarius odoratus|Cortinellus berkeleyanus|Corydalis nakaii|Corymbia citriodora|Cotinus coggygria|Couroupita guianensis|Cratoxylum pruniflorum|Crinum giganteum|Crithmum maritimum|Croton eluteria|Croton jacobinensis|Croton jimenezii|Croton nepetaefolius|Croton nepetifolius|Croton sonderianus|Croton stellulifer|Croton stelluliferus|Cryptocarya agathophylla|Cryptomeria japonica|Cryptomeria japonica var. sinensis|Cuminum cyminum|Cupressus macrocarpa|Cupressus sempervirens|Curcuma Xanthorrhiza|Curcuma aromatica|Curcuma kwangsiensis|Curcuma longa|Curcuma phaeocaulis|Curcuma pierreana|Curcuma wenyujin|Curcuma xanthorrhiza|Curcuma zedoaria|Cuscuta australis|Cyberlindnera jadinii|Cyclotrichium niveum|Cymbopogon citratus|Cymbopogon flexuosus|Cymbopogon martinii|Cyperaceae|Cyperus Rotundus|Cyperus rotundus|Cyperus rotundus L.|Dacrydium nausoriense|Dacrydium nidulum|Daphnandra johnsonii|Daucus carota|Delphinium shawurense|Dendrodoris limbata|Dendrosenecio kilimanjari|Dianella revoluta|Diplotropis ferruginea|Dipterocarpus alatus|Dipteronia dyeriana|Dodonaea polyandra|Drosera peltata|Dryopteris abbreviata|Dysidea amblia|Echinophora chrysantha|Echinophora tenuifolia|Echinops amplexicaulis|Ectropis bicolor|Eirmocephala megaphylla|Elettaria cardamomum|Eleutherobia albiflora|Elsholtzia ciliata|Elsholtzia fruticosa|Elsholtzia pilosa|Elsholtzia splendens|Epaltes gariepina|Ephedra sinica|Erigeron bonariensis|Erigeron canadensis|Erinaceus europaeus|Erodendrum neriifolium|Erythrina burttii|Eschweilera coriacea|Esox saurus|Espeletia timotensis|Etlingera cevuga|Etlingera elatior|Etlingera pavieana|Eucalyptus angulosa|Eucalyptus apodophylla|Eucalyptus approximans|Eucalyptus behriana|Eucalyptus brassiana|Eucalyptus bridgesiana|Eucalyptus camaldulensis|Eucalyptus ceratocorys|Eucalyptus cladocalyx|Eucalyptus cloeziana|Eucalyptus crenulata|Eucalyptus cuprea|Eucalyptus delegatensis|Eucalyptus dendromorpha|Eucalyptus deuaensis|Eucalyptus dolichorhyncha|Eucalyptus fasciculosa|Eucalyptus forrestiana|Eucalyptus globulus|Eucalyptus grandis|Eucalyptus hybrid|Eucalyptus incrassata|Eucalyptus intertexta|Eucalyptus jenseni|Eucalyptus jensenii|Eucalyptus lansdowneana|Eucalyptus leucoxylon|Eucalyptus maidenii|Eucalyptus melanophloia|Eucalyptus nitens|Eucalyptus ochrophloia|Eucalyptus odorata|Eucalyptus paliformis|Eucalyptus populnea|Eucalyptus porosa|Eucalyptus pulverulenta|Eucalyptus radiata|Eucalyptus sparsa|Eucalyptus stenostoma|Eucalyptus stoatei|Eucalyptus tereticornis|Eucalyptus tetraptera|Eucalyptus triflora|Eucalyptus viminalis|Eucalyptus viridis|Euonymus tingens|Eupatorium cannabinum|Eupatorium fortunei|Euphorbia bivonae|Euphorbia cornigera|Euphrasia regelii|Euplotes raikovi|Fagraea gracilipes|Ferulago nodosa|Ferulago trachycarpa|Ficus formosana|Flacourtia inermis|Foeniculum Vulgare|Foeniculum vulgare|Forsythia suspensa|Forsythia viridissima|Fructus amomi|Fructus galangae|Fructus schiandrae|Fusarium gibbosum|Garcinia dulcis|Garcinia macrophylla|Garcinia oligantha|Garcinia xipshuanbannaensis|Gardenia fosbergii|Geranium|Glehnia littoralis|Gossypium hirsutum|Gouania microcarpa|Gutierrezia lucida|Gymnanthemum amygdalinum|Gymnopus confluens|Gyrothyra underwoodiana|Hansenia forbesii|Hansenia weberbaueriana|Haplostichanthus johnsonii|Hardwickia pinnata|Hedeoma mandoniana|Hedychium coronarium|Helenium mexicanum|Helichrysum bracteiferum|Helichrysum graveolens|Helichrysum odoratissimum|Helichrysum taenari|Heracleum antasiaticum|Heracleum dissectum|Heracleum persicum|Heracleum stevenii|Herba ecliptae prostratae|Hippeastrum aulicum|Homo sapiens|Hortonia angustifolia|Houttuynia Cordata|Houttuynia cordata|Houttuynia cordata Thunb.|Humicola grisea|Humulus lupulus|Hylocomium splendens|Hypericum foliosum|Hypericum hyssopifolium|Hypericum perforatum|Hypericum rumeliacum|Hyptis emoryi|Hyptis goyazensis|Hyptis mutabilis|Hyptis pectinata|Hyptis spicigera|Hyptis suaveolens|Hyssopus officinalis|Hyssopus seravschanicus|Ilex affinis|Illicium anisatum|Illicium difengpi|Illicium verum|Inga umbellifera|Iris spuria|Iryanthera paraensis|Isodon kameba|Isodon macrophyllus|Isodon rugosus|Ixora chinensis|Jacobaea argunensis|Jaspis stellifera|Jugo|Julbernardia globifera|Jungermannia vulcanicola|Juniperus|Juniperus chinensis|Juniperus communis|Juniperus drupacea|Juniperus durangensis|Juniperus jaliscana|Juniperus monticola|Juniperus spp.|Juniperus taxifolia|Kaempferia pulchra|Kippistia suaedifolia|Kokoona ochracea|Kokoona reflexa|Kunzea salina|Lactarius flavidulus|Lactarius scrobiculatus|Laggera aurita|Laggera pterodonta|Lamprolobium fruticosum|Lantana camara|Lantana xenica|Larix gmelinii var. gmelinii|Larix laricina|Larix lyallii|Larix occidentalis|Larix sibirica|Larix sukaczewii|Lathyrus nissolia|Laurus nobilis|Lavandula angustifolia|Lavandula latifolia|Lavandula stoechas|Leonotis leonurus|Leonurus persicus|Lepechinia chamaedryoides|Lepechinia chilensis|Lepraria chlorina|Leptospermum scoparium|Leptosphaeria doliolum|Leucopaxillus giganteus|Levisticum officinale|Libocedrus bidwillii|Ligularia hodgsonii|Ligusticum chuanxiong|Ligusticum sinense|Lindera aggregata|Lindera neesiana|Lindera strichnifolia|Lippia Myriocephala|Lippia dulcis|Lippia gracilis|Lippia grata|Lippia origanoides|Lippia rehmannii|Lippia ukambensis|Liquidambar orientalis|Liquidambar styraciflua|Liriodendron tulipifera|Litchi chinensis|Litsea cubeba|Litsea glaucescens|Macrolepiota neomastoidea|Maesa ramentacea|Magnolia liliflora|Magnolia liliiflora|Magnolia officinalis|Magnolia sieboldii|Magnolia x soulangiana|Malus domestica|Malus pumila|Manekia naranjoana|Mangifera indica|Marasmius graminum|Marrubium vulgare|Marrubium vulgare L.|Maytenus loeseneri|Maytenus serrata|Medicosma fareana|Melaleuca alternifolia|Melaleuca decussata|Melaleuca linariifolia|Melaleuca parviflora|Melaleuca quinquenervia|Melaleuca squarrosa|Melampodium camphoratum|Melia azadirach|Melolontha melolontha|Mentha|Mentha Piperita|Mentha aquatica|Mentha arvensis|Mentha arvensis L.|Mentha canadensis|Mentha piperita|Mentha piperita L.|Mentha pulegium|Mentha spicata|Mentha spp.|Mentha sylvestris|Mesosphaerum pectinatum|Microcitrus|Micromeria biflora|Micromeria croatica|Micromeria maderensis|Micromeria myrtifolia|Micromeria teneriffae|Mikania banisteriae|Mikania congesta|Mikania cordifolia|Mikania grazielae|Mikania parviflora|Miliusa balansae|Millettia laurentii|Mimusops laurifolia|Minthostachys andina|Minthostachys mollis|Molopospermum peloponnesiacum|Monnina sylvatica|Monodora tenuifolia|Monomorium floricola|Moringa oleifera|Mosla chinensis|Murraya kwangsiensis|Murraya paniculata|Myrcianthes fragrans|Myristica fragrans|Myristica spp|Myristica spp.|Myrrhis odorata|Myrtus communis|Nasutitermes|Nasutitermes ephratae|Nasutitermes nigriceps|Nelumbo lutea|Nelumbo nucifera|Nepeta annua|Nepeta crispa|Nepeta viscida|Notopterygium incisum|Nototodarus sloanii|Ocimum americanum|Ocimum basilicum|Ocimum gratissimum|Ocimum kilimandscharicum|Ocimum tenuiflorum|Ocotea austinii|Ocotea morae|Odixia angusta|Odontites rubra|Oenanthe japonica|Oenanthe javanica|Ongokea klaineana|Ophiomastix mixta|Ophioparma ventosa|Ophiorrhiza blumeana|Origanum acutidens|Origanum cordifolium|Origanum dictamnus|Origanum dubium|Origanum laevigatum|Origanum majorana|Origanum minutiflorum|Origanum onites|Origanum paniculatum|Origanum sipyleum|Origanum syriacum|Origanum vulgare|Ormosia balansae|Osbornia octodonta|Oscillatoria raoi|Osmorhiza aristata|Osmorhiza longistylis|Ostericum grosseserratum|Othonna macrophylla|Otostegia fruticosa|Pagrus major|Panax quinquefolius|Parmelia vittata|Parthenium argentatum|Parthenium confertum|Parthenium fruticosum|Parthenium hysterophorus|Parthenium incanum|Parthenium schottii|Parthenium tomentosum|Pastinaca sativa|Pelargonium citronellum|Pelargonium endlicherianum|Pelargonium graveolens|Pelargonium quercifolium|Pelargonium ternifolium|Pelargonium x hortorum|Pellia epiphylla|Peltodon longipes|Peltogyne porphyrocardia|Penicillium digitatum|Penicillium janczewskii|Pentachondra pumila|Pericarpium citri|Pericarpium citri reticulatae|Pericarpium citri reticulatae viride|Perilla frutescens|Perovskia atriplicifolia|Persea obovatifolia|Persea tolimanensis|Petasites albus|Petriella guttulata|Petroselinum crispum|Peucedanum palustre|Peucedanum paniculatum|Peucedanum paniculatum L.|Peucedanum zenkeri|Phagnalon rupestre|Phalaenopsis aphrodite|Pheidole pallidula|Phlomis lanata|Phlomis ostrowskiana|Phlox decussata|Phoma linga|Phyla nodiflora|Phyllobates aurotaenia|Physalis solanaceus|Picea abies|Picea glehnii|Picea glehnii L.|Picea koraiensis|Picea schrenkiana|Picridium crystallinum|Piliostigma thonningii|Pimelea linifolia|Pimenta dioica|Pimenta racemosa|Pimpinella peregrina|Pimpinella serbica|Pinna muricata|Pinus aristata|Pinus brutia var. eldarica|Pinus brutia var. pityusa|Pinus cembra|Pinus cembroides|Pinus flexilis|Pinus halepensis|Pinus heldreichii|Pinus lambertiana|Pinus longaeva|Pinus merkusii|Pinus monticola|Pinus ponderosa|Pinus pumila|Pinus remota|Pinus spp.|Pinus strobus|Pinus sylvestris|Piper aduncum|Piper arboreum|Piper augustum|Piper auritum|Piper callosum|Piper capense|Piper cubeba|Piper fimbriulatum|Piper gibbilimbum|Piper lanceaefolium|Piper marginatum|Piper nigrum|Piper sylvestre|Pistacia integerrima|Pistacia vera|Pittocaulon bombycophole|Pittosporum tenuifolium|Plagiochila rutilans|Platycladus orientalis|Plectranthus marrubioides|Plectranthus mollis|Pluchea dioscoridis|Pluchea odorata|Plumeria rubra|Pocillopora damicornis|Podachaenium eminens|Podocarpus elongata|Podocarpus salignus|Polyachyrus sphaerocephalus|Porophyllum ruderale|Porphyra tenera|Poterium sanguisorba|Primula macrophylla|Prosopis glandulosa|Prosopis ruscifolia|Protaetia cuprea|Protium heptaphyllum|Prunus Armeniaca|Prunus armeniaca|Prunus armeniaca l. var. ansu maxim.|Prunus armeniaca var. ansu|Prunus armeniaca var.ansu|Prunus laurocerasus|Pseudeurotium zonatum|Pseudoplexaura flagellosa|Pseudopterogorgia kallos|Pseudotsuga menziesii|Psiadia altissima|Psidium friedrichsthalianum|Psidium guajava|Psidium salutare|Psychotria bahiensis|Pteris prolifera|Pterocarpus grandiflorus|Pyrola rotundifolia|Pyropia tenera|Pyrosoma giganteum|Quercus aegilops|Quercus coccifera|Radix chuanxiong|Ratibida mexicana|Renealmia floribunda|Rhanterium epapposum|Rhizobium phaseoli|Rhizoma chuanxiong|Rhizoma homalomenae occultae|Rhodiola rosea|Rhodiola rosea L.|Rhododendron mucronulatum|Rhodomicrobium vannielii|Ribes nigrum|Roboastra tigris|Rosmarinus Officinalis|Rosmarinus eriocalyx|Rosmarinus officinalis|Rosmarinus tomentosus|Rubus pungens|Rubus trifidus|Rusavskia elegans|Russula queletii|Salacia lehmbachii|Salix petiolaris|Salvadora persica|Salvia|Salvia abrotanoides|Salvia absconditiflora|Salvia brandegeei|Salvia caespitosa|Salvia columbariae|Salvia dichroa|Salvia dorisiana|Salvia dorystaechas|Salvia fruticosa|Salvia granatensis|Salvia jordanii|Salvia lanigera|Salvia mellifera|Salvia munzii|Salvia officinalis|Salvia pisidica|Salvia sahendica|Salvia sclarea|Salvia syriaca|Salvia tomentosa|Salvia triloba|Salvia yosgadensis|Santolina chamaecyparissus|Santolina corsica|Santolina corsica Jordan et Fourr|Satureja cuneifolia|Satureja montana|Satureja wiedemanniana|Saussurea lappa|Saxifraga Stolonifera|Saxifraga stolonifera|Saxifraga stolonifera Meerb.|Scalesia aspera|Scaligeria lazica|Schinus|Schinus molle|Schinus terebinthus|Schisandra chinensis|Schistostephium rotundifolium|Scutellaria baicalensis|Scymnorhinus lichia|Scytalidium uredinicola|Securidaca inappendiculata|Senecio alcicornis|Senecio chrysanthemoides|Senecio squalidus|Senna alexandrina|Sequoia sempervirens|Sequoiadendron giganteum|Seriphidium cinum|Sesbania punicea|Seseli farrenyi|Sideritis brevibracteata|Sideritis chamaedryfolia|Sideritis dichotoma|Sideritis hirsuta|Sideritis hispida|Sideritis lanata|Sideritis leucantha|Sideritis lyciae|Sideritis paulii|Sideritis perfoliata|Sideritis syriaca|Sideroxylon cubense|Simira eliezeriana|Siparuna thecaphora|Siphocampylus verticillatus|Siphula roccellaeformis|Smallanthus maculatus|Solanum crinitum|Solanum grandiflorum|Solanum incisum|Solanum lycopersicum|Solanum stuckertii|Solidago canadensis|Solidago odora|Stachys aegyptiaca|Stenostomum lucidum|Stereocaulon sasakii|Stevia alpina|Stichopus parvimensis|Stockwellia|Stoeba extensa|Streptomyces althioticus|Streptomyces fervens|Streptomyces lavendulae|Streptomyces violaceochromogenes|Strobilanthes callosa|Strobilanthes zeylanica|Strophanthus eminii|Suillus granulatus|Syringa vulgaris|Syzygium aromaticum|Syzygium cumini|Syzygium nervosum|Tagetes minuta|Taiwania cryptomerioides|Talaromyces coalescens|Tamarix gallica|Tanacetum annuum|Tanacetum parthenium|Tanacetum tanacetoides|Tanacetum vulgare|Tarchonanthus camphoratus|Taxodium mucronatum|Teucrium cyprium|Teucrium kotschyanum|Teucrium leucocladum|Teucrium micropodioides|Thuja occidentalis|Thuja standishii|Thujopsis dolabrata|Thujopsis dolabrata var. dolabrata|Thymbra capitata|Thymbra spicata|Thymus|Thymus broussonetii|Thymus camphoratus|Thymus capitatus|Thymus cilicicus|Thymus eigii|Thymus fedtschenkoi|Thymus funkii|Thymus kotschyanus|Thymus longicaulis|Thymus longiflorus|Thymus maroccanus|Thymus orespedanus|Thymus quinquecostatus|Thymus revolutus|Thymus riatarum|Thymus saturejoides|Thymus sibthorpii|Thymus sipyleus|Thymus thracicus|Thymus vulgaris|Thymus willkommii|Thymus zygioides|Thymus zygis|Toddalia asiatica|Trachyspermum ammi|Trichostema dichotomum|Trichostema lanceolatum|Tuber borchii|Tubocapsicum anomalum|Ulva clathrata|Ulva pertusa|Umbellularia californica|Umbilicaria pustulata|Uncaria longiflora|Uperoleia inundata|Ursinia speciosa|Usnea florida|Vaccinium ashei|Vaccinium corymbosum|Vaccinium virgatum|Valeriana officinalis|Valeriana wolgensis|Vallesia glabra|Varronia curassavica|Vepris pilosa|Veratrum stenophyllum|Viburnum chingii|Viburnum orientale|Viguiera decurrens|Viola hondoensis|Virola surinamensis|Vitex agnus-castus|Vitex madiensis|Vitex negundo|Vitex trifolia|Vitis vinifera|Vogtia annua|West African Pepper|Wurfbainia villosa|Xanthocyparis nootkatensis|Xylopia aromatica|Xylopia sericea|Zanthoxylum asiaticum|Zanthoxylum bungeanum|Zanthoxylum chalybaeum|Zanthoxylum chalybeum|Zanthoxylum chiriquinum|Zanthoxylum leprieurii|Zanthoxylum piperitum|Zanthoxylum schinifolium|Zanthoxylum simulans|Zanthoxylum suberosum|Zieria arborescens|Zieria aspalathoides|Zieria furfuracea|Zieria granulata|Zieria smithii|Zingiber Officinale|Zingiber montanum (Koenig) Theilade|Zingiber officinale|Zingiber officinale ROSC.|Zingiber ottensii|Zingiber zerumbet|basil|bellis perennis|candyleaf|cicely|common myrtle|common sunflower|corn mint|garlic|marjoram|parsley|pomegranate|pomelo|water mint

>  <collections>  (1750) 
ANPDB|Australian natural products|CMAUP (cCollective molecular activities of useful plants)|ChEBI NPs|EMNPD|ETM (Ethiopian Traditional Medicine) DB|FooDB|KNApSaCK|Latin America dataset|Mitishamba database|NANPDB (Natural Products from Northern African Sources)|NAPRORE-CR|NPACT|NPASS|NPDBEjeCol|NPEdia|NuBBEDB|Phyto4Health|Super Natural II|TCMDB-Taiwan (Traditional Chinese Medicine database)|TCMID (Traditional Chinese Medicine Integrated Database)|TIPdb (database of Taiwan indigenous plants)|UNPD (Universal Natural Products Database)|VietHerb|Watermelon|WikiData Natural Products

>  <dois>  (1750) 
10.1002/(SICI)1097-0231(199608)10:11<1345::AID-RCM631>3.0.CO;2-4|10.1002/(SICI)1099-1026(199601)11:1<15::AID-FFJ541>3.0.CO;2-H|10.1002/(SICI)1099-1026(199611)11:6<367::AID-FFJ598>3.0.CO;2-R|10.1002/(SICI)1099-1026(1998070)13:4<245::AID-FFJ736>3.0.CO;2-J|10.1002/(SICI)1099-1026(199909/10)14:5<283::AID-FFJ826>3.0.CO;2-2|10.1002/(SICI)1099-1026(199909/10)14:5<287::AID-FFJ827>3.0.CO;2-O|10.1002/(SICI)1099-1026(199911/12)14:6<393::AID-FFJ849>3.0.CO;2-5|10.1002/(SICI)1099-1565(199909/10)10:5<241::AID-PCA460>3.0.CO;2-5|10.1002/(SICI)1522-2675(19990113)82:1<53::AID-HLCA53>3.0.CO;2-7|10.1002/1099-1573(200011)14:7<549::AID-PTR623>3.0.CO;2-T|10.1002/CBDV.201700436|10.1002/CBDV.201800531|10.1002/CJOC.201180379|10.1002/ECE3.5390|10.1002/FFJ.1053|10.1002/FFJ.1105|10.1002/FFJ.1175|10.1002/FFJ.1187|10.1002/FFJ.1279|10.1002/FFJ.1305|10.1002/FFJ.1417|10.1002/FFJ.1547|10.1002/FFJ.1804|10.1002/FFJ.2730010103|10.1002/FFJ.2730020106|10.1002/FFJ.2730030204|10.1002/FFJ.2730030208|10.1002/FFJ.2730040105|10.1002/FFJ.2730040206|10.1002/FFJ.2730040411|10.1002/FFJ.2730060307|10.1002/FFJ.2730070108|10.1002/FFJ.2730070109|10.1002/FFJ.2730070111|10.1002/FFJ.2730080504|10.1002/FFJ.2730090305|10.1002/FFJ.2730100313|10.1002/FFJ.2730100605|10.1002/FFJ.2730100609|10.1002/HLCA.19840670504|10.1002/HLCA.201200359|10.1002/JCTB.5000681206|10.1002/JCTB.5000681208|10.1002/JSFA.2740580109|10.1002/JSFA.4146|10.1002/JSSC.200900378|10.1002/PCA.2778|10.1002/PCA.759|10.1002/PRAC.19301260101|10.1002/PTR.1093|10.1006/JFCA.2000.0968|10.1007/BF00567053|10.1007/BF00567171|10.1007/BF00567284|10.1007/BF00567793|10.1007/BF00568256|10.1007/BF00570218|10.1007/BF00574605|10.1007/BF00575168|10.1007/BF00576212|10.1007/BF00579167|10.1007/BF00579447|10.1007/BF00580452|10.1007/BF00580453|10.1007/BF00598430|10.1007/BF00600859|10.1007/BF00629852|10.1007/BF00629870|10.1007/BF00629951|10.1007/BF00630335|10.1007/BF00713346|10.1007/BF01014700|10.1007/BF01386197|10.1007/BF01959201|10.1007/BF02236436|10.1007/BF02536610|10.1007/BF02751105|10.1007/BF02858924|10.1007/BF02860485|10.1007/BF02866639|10.1007/BF02985250|10.1007/S11418-007-0175-2|10.1016/0031-9422(74)85146-0|10.1016/0031-9422(75)85347-7|10.1016/0031-9422(81)85188-6|10.1016/0031-9422(82)80084-8|10.1016/0031-9422(82)80129-5|10.1016/0031-9422(82)83156-7|10.1016/0031-9422(82)83205-6|10.1016/0031-9422(82)85188-1|10.1016/0031-9422(83)85029-8|10.1016/0031-9422(83)85064-X|10.1016/0031-9422(88)80124-9|10.1016/0031-9422(88)80461-8|10.1016/0031-9422(88)83114-5|10.1016/0031-9422(90)85269-L|10.1016/0031-9422(91)83064-R|10.1016/0031-9422(91)83632-U|10.1016/0031-9422(92)80396-V|10.1016/0031-9422(92)83136-M|10.1016/0031-9422(93)85408-J|10.1016/0031-9422(95)00183-8|10.1016/0031-9422(95)00328-5|10.1016/0031-9422(95)00347-A|10.1016/0031-9422(95)00492-P|10.1016/0031-9422(95)00601-X|10.1016/0031-9422(96)00119-7|10.1016/0300-483X(95)03242-8|10.1016/0305-1978(82)90045-X|10.1016/0305-1978(85)90081-X|10.1016/0305-1978(86)90043-8|10.1016/0305-1978(86)90078-5|10.1016/0305-1978(88)90075-0|10.1016/0305-1978(89)90100-2|10.1016/0305-1978(91)90079-F|10.1016/0305-1978(92)90070-T|10.1016/0305-1978(93)90029-Q|10.1016/0305-1978(93)90031-L|10.1016/0305-1978(93)90070-8|10.1016/0305-1978(94)90033-7|10.1016/0305-1978(95)00026-Q|10.1016/0305-1978(95)00033-Q|10.1016/0305-1978(95)00094-1|10.1016/0305-1978(96)00023-3|10.1016/0378-8741(86)90105-4|10.1016/0378-8741(91)90062-I|10.1016/0378-8741(91)90063-J|10.1016/J.BSE.2003.12.009|10.1016/J.CHROMA.2014.10.058|10.1016/J.FOODCHEM.2010.08.043|10.1016/J.FOODRES.2018.12.054|10.1016/J.INDCROP.2013.06.023|10.1016/J.INDCROP.2014.04.048|10.1016/J.PHYMED.2004.04.006|10.1016/J.PHYMED.2007.03.013|10.1016/J.PHYMED.2011.12.003|10.1016/J.PHYTOCHEM.2004.03.019|10.1016/J.PHYTOCHEM.2005.01.007|10.1016/J.PHYTOCHEM.2005.07.001|10.1016/J.PHYTOCHEM.2005.08.001|10.1016/J.PHYTOCHEM.2006.04.025|10.1016/J.PHYTOCHEM.2007.04.027|10.1016/J.PHYTOCHEM.2009.03.012|10.1016/J.PHYTOCHEM.2009.06.013|10.1016/J.PHYTOCHEM.2009.07.031|10.1016/J.PHYTOCHEM.2015.02.003|10.1016/J.PLANTSCI.2019.110277|10.1016/S0021-9673(00)00231-4|10.1016/S0021-9673(01)93725-2|10.1016/S0021-9673(01)95036-8|10.1016/S0031-9422(00)00308-3|10.1016/S0031-9422(00)80081-3|10.1016/S0031-9422(00)80268-X|10.1016/S0031-9422(00)80325-8|10.1016/S0031-9422(00)80441-0|10.1016/S0031-9422(00)80558-0|10.1016/S0031-9422(00)80682-2|10.1016/S0031-9422(00)80745-1|10.1016/S0031-9422(00)80814-6|10.1016/S0031-9422(00)81063-8|10.1016/S0031-9422(00)81286-8|10.1016/S0031-9422(00)81741-0|10.1016/S0031-9422(00)82268-2|10.1016/S0031-9422(00)83061-7|10.1016/S0031-9422(00)83062-9|10.1016/S0031-9422(00)84581-1|10.1016/S0031-9422(00)84802-5|10.1016/S0031-9422(00)84946-8|10.1016/S0031-9422(00)85772-6|10.1016/S0031-9422(00)85875-6|10.1016/S0031-9422(00)90514-4|10.1016/S0031-9422(00)94384-X|10.1016/S0031-9422(00)94539-4|10.1016/S0031-9422(00)94990-2|10.1016/S0031-9422(01)00056-5|10.1016/S0031-9422(02)00004-3|10.1016/S0031-9422(02)00038-9|10.1016/S0031-9422(96)00559-6|10.1016/S0031-9422(96)00691-7|10.1016/S0031-9422(97)00016-2|10.1016/S0031-9422(97)00117-9|10.1016/S0031-9422(97)00324-5|10.1016/S0031-9422(97)00762-0|10.1016/S0031-9422(97)00795-4|10.1016/S0031-9422(98)00105-8|10.1016/S0031-9422(99)00050-3|10.1016/S0031-9422(99)00346-5|10.1016/S0305-1978(00)00062-4|10.1016/S0305-1978(00)00103-4|10.1016/S0305-1978(99)00071-X|10.1016/S0367-326X(01)00327-6|10.1016/S0367-326X(98)00002-1|10.1016/S0926-6690(03)00076-1|10.1016/S0944-7113(11)80031-0|10.1016/S0944-7113(98)80048-2|10.1016/j.cgh.2013.02.015|10.1016/j.phytochem.2004.08.035|10.1021/JF00023A054|10.1021/JF00025A025|10.1021/JF00029A021|10.1021/JF00034A020|10.1021/JF00034A033|10.1021/JF00035A029|10.1021/JF00046A030|10.1021/JF00063A015|10.1021/JF00064A020|10.1021/JF00065A004|10.1021/JF00073A015|10.1021/JF00083A001|10.1021/JF00094A032|10.1021/JF00098A007|10.1021/JF00104A026|10.1021/JF00106A055|10.1021/JF00116A075|10.1021/JF010219C|10.1021/JF0116303|10.1021/JF035377D|10.1021/JF60160A012|10.1021/JF60198A031|10.1021/JF60199A051|10.1021/JF60200A011|10.1021/JF60201A021|10.1021/JF60218A031|10.1021/JF60223A016|10.1021/JF60230A021|10.1021/JF950577D|10.1021/JF970031M|10.1021/JO01199A001|10.1021/JO040272A|10.1021/NP030475E|10.1021/NP50008A001|10.1021/NP50009A015|10.1021/NP50017A019|10.1021/NP50018A028|10.1021/NP50027A022|10.1021/NP50028A031|10.1021/NP50034A039|10.1021/NP50034A044|10.1021/NP50035A036|10.1021/NP50035A037|10.1021/NP50038A026|10.1021/NP50039A037|10.1021/NP50040A037|10.1021/NP50043A034|10.1021/NP50045A046|10.1021/NP50046A033|10.1021/NP50046A047|10.1021/NP50047A039|10.1021/NP50048A037|10.1021/NP50048A039|10.1021/NP50050A051|10.1021/NP50051A035|10.1021/NP50062A008|10.1021/jf011456i|10.1021/np50017a019|10.1039/J39690000541|10.1055/S-0028-1097363|10.1055/S-0028-1097609|10.1055/S-0028-1097957|10.1055/S-0028-1097977|10.1055/S-0028-1099571|10.1055/S-2000-8623|10.1055/S-2002-33803|10.1055/S-2003-39695|10.1055/S-2006-957378|10.1055/S-2006-957433|10.1055/S-2006-957641|10.1055/S-2006-957814|10.1055/S-2006-959506|10.1055/S-2006-959548|10.1055/S-2006-959580|10.1055/S-2006-959673|10.1055/S-2006-959714|10.1055/S-2006-960024|10.1055/S-2006-960096|10.1055/S-2006-960128|10.1055/S-2006-960872|10.1055/S-2006-961434|10.1055/S-2006-961452|10.1055/S-2006-961490|10.1055/S-2006-962018|10.1055/S-2006-962450|10.1055/S-2006-962540|10.1055/S-2006-962640|10.1055/S-2006-962745|10.1055/S-2007-969160|10.1055/S-2007-969171|10.1055/S-2007-969172|10.1055/S-2007-969176|10.1055/S-2007-969187|10.1055/S-2007-969275|10.1055/S-2007-969442|10.1055/S-2007-969599|10.1055/S-2007-969621|10.1055/S-2007-969883|10.1055/S-2007-969897|10.1055/S-2007-969948|10.1055/S-2008-1074841|10.1071/CH9600367|10.1071/CH9640283|10.1071/CH9742061|10.1071/bru9860105|10.1076/PHBI.35.3.218.13295|10.1076/PHBI.39.5.388.5894|10.1080/00021369.1989.10869813|10.1080/10412905.1989.9697780|10.1080/10412905.1989.9697797|10.1080/10412905.1989.9699438|10.1080/10412905.1989.9699439|10.1080/10412905.1990.9697824|10.1080/10412905.1990.9697829|10.1080/10412905.1990.9697830|10.1080/10412905.1990.9697847|10.1080/10412905.1990.9697857|10.1080/10412905.1990.9697864|10.1080/10412905.1990.9697878|10.1080/10412905.1991.9697898|10.1080/10412905.1991.9697905|10.1080/10412905.1991.9697906|10.1080/10412905.1991.9697923|10.1080/10412905.1991.9697930|10.1080/10412905.1991.9697932|10.1080/10412905.1991.9697936|10.1080/10412905.1991.9697950|10.1080/10412905.1991.9697952|10.1080/10412905.1991.9697953|10.1080/10412905.1991.9697971|10.1080/10412905.1991.9697980|10.1080/10412905.1991.9697982|10.1080/10412905.1991.9697984|10.1080/10412905.1991.9697985|10.1080/10412905.1991.9697994|10.1080/10412905.1991.9700498|10.1080/10412905.1992.9698015|10.1080/10412905.1992.9698034|10.1080/10412905.1992.9698035|10.1080/10412905.1992.9698053|10.1080/10412905.1992.9698055|10.1080/10412905.1992.9698061|10.1080/10412905.1992.9698062|10.1080/10412905.1992.9698067|10.1080/10412905.1992.9698069|10.1080/10412905.1992.9698070|10.1080/10412905.1992.9698071|10.1080/10412905.1992.9698072|10.1080/10412905.1992.9698084|10.1080/10412905.1992.9698086|10.1080/10412905.1992.9698087|10.1080/10412905.1992.9698088|10.1080/10412905.1992.9698095|10.1080/10412905.1992.9698109|10.1080/10412905.1992.9698125|10.1080/10412905.1992.9698149|10.1080/10412905.1992.9698155|10.1080/10412905.1993.9698162|10.1080/10412905.1993.9698164|10.1080/10412905.1993.9698169|10.1080/10412905.1993.9698170|10.1080/10412905.1993.9698176|10.1080/10412905.1993.9698178|10.1080/10412905.1993.9698179|10.1080/10412905.1993.9698181|10.1080/10412905.1993.9698184|10.1080/10412905.1993.9698189|10.1080/10412905.1993.9698191|10.1080/10412905.1993.9698192|10.1080/10412905.1993.9698202|10.1080/10412905.1993.9698206|10.1080/10412905.1993.9698209|10.1080/10412905.1993.9698214|10.1080/10412905.1993.9698215|10.1080/10412905.1993.9698216|10.1080/10412905.1993.9698218|10.1080/10412905.1993.9698222|10.1080/10412905.1993.9698230|10.1080/10412905.1993.9698235|10.1080/10412905.1993.9698248|10.1080/10412905.1993.9698250|10.1080/10412905.1993.9698253|10.1080/10412905.1993.9698254|10.1080/10412905.1993.9698256|10.1080/10412905.1993.9698260|10.1080/10412905.1993.9698261|10.1080/10412905.1993.9698277|10.1080/10412905.1993.9698309|10.1080/10412905.1994.9698316|10.1080/10412905.1994.9698326|10.1080/10412905.1994.9698327|10.1080/10412905.1994.9698330|10.1080/10412905.1994.9698337|10.1080/10412905.1994.9698359|10.1080/10412905.1994.9698380|10.1080/10412905.1994.9698387|10.1080/10412905.1994.9698394|10.1080/10412905.1994.9698402|10.1080/10412905.1994.9698404|10.1080/10412905.1994.9698406|10.1080/10412905.1994.9698408|10.1080/10412905.1994.9698409|10.1080/10412905.1994.9698412|10.1080/10412905.1994.9698417|10.1080/10412905.1994.9698418|10.1080/10412905.1994.9698427|10.1080/10412905.1994.9698428|10.1080/10412905.1994.9698440|10.1080/10412905.1994.9698444|10.1080/10412905.1994.9699346|10.1080/10412905.1994.9699347|10.1080/10412905.1994.9699348|10.1080/10412905.1994.9699356|10.1080/10412905.1994.9699358|10.1080/10412905.1994.9699365|10.1080/10412905.1994.9699366|10.1080/10412905.1995.9698468|10.1080/10412905.1995.9698473|10.1080/10412905.1995.9698475|10.1080/10412905.1995.9698479|10.1080/10412905.1995.9698496|10.1080/10412905.1995.9698499|10.1080/10412905.1995.9698501|10.1080/10412905.1995.9698503|10.1080/10412905.1995.9698507|10.1080/10412905.1995.9698508|10.1080/10412905.1995.9698516|10.1080/10412905.1995.9698522|10.1080/10412905.1995.9698524|10.1080/10412905.1995.9698528|10.1080/10412905.1995.9698530|10.1080/10412905.1995.9698532|10.1080/10412905.1995.9698553|10.1080/10412905.1995.9698558|10.1080/10412905.1995.9698575|10.1080/10412905.1995.9698581|10.1080/10412905.1995.9698591|10.1080/10412905.1995.9700515|10.1080/10412905.1995.9700518|10.1080/10412905.1995.9700523|10.1080/10412905.1995.9700529|10.1080/10412905.1995.9700530|10.1080/10412905.1995.9700534|10.1080/10412905.1995.9700537|10.1080/10412905.1996.9700547|10.1080/10412905.1996.9700555|10.1080/10412905.1996.9700562|10.1080/10412905.1996.9700565|10.1080/10412905.1996.9700567|10.1080/10412905.1996.9700568|10.1080/10412905.1996.9701028|10.1080/10412905.1996.9701048|10.1080/10412905.1997.9700709|10.1080/10412905.1997.9700721|10.1080/10412905.1997.9700725|10.1080/10412905.1997.9700727|10.1080/10412905.1997.9700728|10.1080/10412905.1997.9700773|10.1080/10412905.1997.9700780|10.1080/10412905.1997.9700812|10.1080/10412905.1997.9700820|10.1080/10412905.1998.9700853|10.1080/10412905.1998.9700854|10.1080/10412905.1998.9700865|10.1080/10412905.1998.9700913|10.1080/10412905.1998.9700918|10.1080/10412905.1998.9700962|10.1080/10412905.1998.9701003|10.1080/10412905.1998.9701015|10.1080/10412905.1999.9701118|10.1080/10412905.1999.9701154|10.1080/10412905.2000.9712167|10.1080/10412905.2001.9712227|10.1080/10412905.2002.9699883|10.1080/10412905.2004.9698688|10.1080/10412905.2004.9698740|10.1080/10412905.2004.9698744|10.1080/10412905.2007.9699946|10.1080/10412905.2010.9700320|10.1080/10412905.2010.9700338|10.1080/10412905.2010.9700389|10.1080/10412905.2013.796498|10.1080/10412905.2018.1431966|10.1080/10575630108041259|10.1080/10942912.2016.1155057|10.1080/14786410701848154|10.1080/14786419.2010.513685|10.1093/CHROMSCI/46.2.127|10.1111/J.1095-8339.1986.TB01826.X|10.1111/J.1365-2621.1985.TB10476.X|10.1111/J.1365-2621.1985.TB13419.X|10.1128/CMR.19.1.50-62.2006|10.1135/CCCC19661113|10.1135/CCCC19862884|10.1135/CCCC19912969|10.1139/V69-334|10.1177/1934578X1100600135|10.1246/CL.1979.1137|10.1248/CPB.53.1484|10.1248/CPB.54.222|10.1248/YAKUSHI1947.106.1_17|10.1248/YAKUSHI1947.99.11_1116|10.1271/BBB1961.45.1493|10.1271/BBB1961.52.2961|10.1271/BBB1961.55.2571|10.1271/NOGEIKAGAKU1924.67.1417|10.1515/ZNC-1984-7-802|10.1515/ZNC-1988-5-608|10.1515/ZNC-1990-9-1023|10.1590/S0103-50532011000400018|10.2172/6984924|10.2307/2423424|10.2307/3242952|10.23850/24220582.3465|10.23893/1307-2080.APS.05611|10.2478/V10007-009-0022-Y|10.3109/13880209109082875|10.3109/13880209109082876|10.3109/13880209309082924|10.3390/12030283|10.3390/12030389|10.3390/60100092|10.3390/FOODS8020053|10.3390/MOLECULES14082909|10.3390/MOLECULES24234244|10.3891/ACTA.CHEM.SCAND.15-1003|10.5040/9781474215718.CH-010|10.5897/JMPR10.078

>  <synonyms>  (1750) 
.alpha.- Terpinolen|.gamma.-Terpinolene|1,4(8)-Terpadiene|1,4(8)-p-Menthadiene|1-Methyl-4-(1-methylethylidene)cyclohexene|1-Methyl-4-isopropylidene-1-cyclohexene|1-methyl-4-(propan-2-ylidene)cyclohex-1-ene|1-methyl-4-(propan-2-ylidene)cyclohexene p-mentha-1,4(8)-diene|4-ISOPROPYLIDENE-1-METHYLCYCLOHEXANE|4-Isopropylidene-1-methylcyclohexene|586-62-9|9LR|AI3-24378|AKOS028108377|C06075|CAS-586-62-9|CHEBI:9457|CHEMBL454697|CYCLOHEXENE, 1-METHYL-4-(1-METHYLETHYLIDENE)-, (R)-|Cyclohexene, 1-methyl-4-(1-methylethylidene)-|Cyclohexene, 3-methyl-6-(1-methylethylidene)- (9CI)|DB-053242|DTXCID507222|DTXSID0027222|EC 209-578-0|EINECS 209-578-0|EN300-125038|FEMA 3046|FEMA No. 3046|FEMA Number 3046|FS-6812|HSDB 5702|Isoterpinene|LMPR0102090062|MFCD00049191|N9830X5KSL|NCGC00256963-01|NS00005520|Nofmer TP|Q-201793|Q2405051|T0817|TERPINOLENE [FHFI]|TERPINOLENE [HSDB]|TERPINOLENE with GC|Tereben|Terpinolen|Terpinolene (>85%)|Terpinolene 1000 microg\/mL in Isopropanol|Terpinolene [UN2541]  [Flammable liquid]|Terpinolene, >=90%|Terpinolene, analytical standard|Terpinolene, purum, >=95.0% (GC)|Terpinolene, technical, >=85% (GC)|Tox21_303268|UN2541|UNII-N9830X5KSL|Z1255360533|\u221a\u00e9\u00ac\u00b1-Terpineol|alpha-Terpinolene|bmse000504|d-1-methyl-4-isopropenyl-1-cyclohexene|delta-Terpinene|p-Mentha-1,4(8)-diene|p-Meth-1-en-8-yl-formate|terpinolene

>  <cas>  (1750) 
586-62-9

$$$$

     RDKit          2D

 29 32  0  0  0  0  0  0  0  0999 V2000
   -4.7033    4.1635    0.0000 C   0  0  0  0  0  0  0  0  0  0  0  0
   -4.4022    2.6941    0.0000 C   0  0  0  0  0  0  0  0  0  0  0  0
   -2.9790    2.2201    0.0000 C   0  0  0  0  0  0  0  0  0  0  0  0
   -5.5242    1.6986    0.0000 C   0  0  0  0  0  0  0  0  0  0  0  0
   -6.9474    2.1725    0.0000 C   0  0  0  0  0  0  0  0  0  0  0  0
   -5.2231    0.2291    0.0000 C   0  0  0  0  0  0  0  0  0  0  0  0
   -3.7999   -0.2448    0.0000 C   0  0  0  0  0  0  0  0  0  0  0  0
   -3.4988   -1.7143    0.0000 C   0  0  0  0  0  0  0  0  0  0  0  0
   -4.6209   -2.7098    0.0000 C   0  0  0  0  0  0  0  0  0  0  0  0
   -2.0757   -2.1883    0.0000 C   0  0  0  0  0  0  0  0  0  0  0  0
   -1.6226   -3.6182    0.0000 C   0  0  0  0  0  0  0  0  0  0  0  0
   -0.1226   -3.6292    0.0000 C   0  0  0  0  0  0  0  0  0  0  0  0
    0.3513   -2.2060    0.0000 C   0  0  0  0  0  0  0  0  0  0  0  0
    1.7261   -1.6060    0.0000 C   0  0  0  0  0  0  0  0  0  0  0  0
    2.9331   -2.4965    0.0000 C   0  0  0  0  0  0  0  0  0  0  0  0
    4.3078   -1.8965    0.0000 C   0  0  0  0  0  0  0  0  0  0  0  0
    4.4756   -0.4059    0.0000 C   0  0  0  0  0  0  0  0  0  0  0  0
    5.8503    0.1942    0.0000 C   0  0  0  0  0  0  0  0  0  0  0  0
    6.0180    1.6848    0.0000 C   0  0  0  0  0  0  0  0  0  0  0  0
    7.3928    2.2848    0.0000 O   0  0  0  0  0  0  0  0  0  0  0  0
    4.8110    2.5753    0.0000 C   0  0  0  0  0  0  0  0  0  0  0  0
    3.4362    1.9753    0.0000 C   0  0  0  0  0  0  0  0  0  0  0  0
    3.2685    0.4847    0.0000 C   0  0  0  0  0  0  0  0  0  0  0  0
    2.0615    1.3752    0.0000 C   0  0  0  0  0  0  0  0  0  0  0  0
    1.8938   -0.1154    0.0000 C   0  0  0  0  0  0  0  0  0  0  0  0
    0.6867    0.7751    0.0000 C   0  0  0  0  0  0  0  0  0  0  0  0
   -0.6880    0.1751    0.0000 C   0  0  0  0  0  0  0  0  0  0  0  0
   -0.8557   -1.3155    0.0000 C   0  0  0  0  0  0  0  0  0  0  0  0
   -2.1492   -0.5560    0.0000 C   0  0  0  0  0  0  0  0  0  0  0  0
  1  2  1  0
  2  3  1  0
  2  4  1  0
  4  5  1  1
  4  6  1  0
  6  7  2  0
  7  8  1  0
  8  9  1  6
  8 10  1  0
 10 11  1  6
 11 12  1  0
 12 13  1  0
 13 14  2  0
 14 15  1  0
 15 16  2  0
 16 17  1  0
 17 18  2  0
 18 19  1  0
 19 20  2  0
 19 21  1  0
 21 22  1  0
 22 23  1  0
 23 24  1  6
 23 25  1  0
 25 26  1  6
 26 27  1  0
 27 28  1  0
 28 29  1  6
 28 10  1  0
 28 13  1  0
 25 14  1  0
 23 17  1  0
M  END
>  <identifier>  (1751) 
CNP0193956.2

>  <canonical_smiles>  (1751) 
CC(C)[C@H](C)/C=C/[C@@H](C)[C@H]1CCC2=C3C=CC4=CC(=O)CC[C@]4(C)[C@H]3CC[C@@]21C

>  <standard_inchi>  (1751) 
InChI=1S/C28H40O/c1-18(2)19(3)7-8-20(4)24-11-12-25-23-10-9-21-17-22(29)13-15-27(21,5)26(23)14-16-28(24,25)6/h7-10,17-20,24,26H,11-16H2,1-6H3/b8-7+/t19-,20-,24-,26+,27+,28-/m1/s1

>  <standard_inchi_key>  (1751) 
OIMXTYUHMBQQJM-RUEXCWEXSA-N

>  <name>  (1751) 
(9R,10R,13R,17R)-17-[(E,2R,5S)-5,6-dimethylhept-3-en-2-yl]-10,13-dimethyl-1,2,9,11,12,15,16,17-octahydrocyclopenta[a]phenanthren-3-one

>  <iupac_name>  (1751) 
(9~{R},10~{R},13~{R},17~{R})-10,13-dimethyl-17-[(~{E},1~{R},4~{S})-1,4,5-trimethylhex-2-enyl]-1,2,9,11,12,15,16,17-octahydrocyclopenta[a]phenanthren-3-one

>  <annotation_level>  (1751) 
5

>  <total_atom_count>  (1751) 
69

>  <heavy_atom_count>  (1751) 
29

>  <molecular_weight>  (1751) 
392.63

>  <exact_molecular_weight>  (1751) 
392.30792

>  <molecular_formula>  (1751) 
C28H40O

>  <alogp>  (1751) 
7.46

>  <topological_polar_surface_area>  (1751) 
17.07

>  <rotatable_bond_count>  (1751) 
4

>  <hydrogen_bond_acceptors>  (1751) 
1

>  <hydrogen_bond_donors>  (1751) 
0

>  <hydrogen_bond_acceptors_lipinski>  (1751) 
1

>  <hydrogen_bond_donors_lipinski>  (1751) 
0

>  <lipinski_rule_of_five_violations>  (1751) 
1

>  <aromatic_rings_count>  (1751) 
0

>  <qed_drug_likeliness>  (1751) 
0.45

>  <formal_charge>  (1751) 
0

>  <fractioncsp3>  (1751) 
0.68

>  <number_of_minimal_rings>  (1751) 
4

>  <van_der_walls_volume>  (1751) 
407.79

>  <contains_sugar>  (1751) 
False

>  <contains_ring_sugars>  (1751) 
False

>  <contains_linear_sugars>  (1751) 
False

>  <murcko_framework>  (1751) 
C1=CC2=C3CCCC3CCC2C4C1=CCCC4

>  <np_likeness>  (1751) 
2.94

>  <chemical_class>  (1751) 
Steroids and steroid derivatives

>  <chemical_sub_class>  (1751) 
Ergostane steroids

>  <chemical_super_class>  (1751) 
Lipids and lipid-like molecules

>  <direct_parent_classification>  (1751) 
Ergosterols and derivatives

>  <np_classifier_pathway>  (1751) 
Terpenoids

>  <np_classifier_superclass>  (1751) 
Steroids

>  <np_classifier_class>  (1751) 
Ergostane steroids

>  <np_classifier_is_glycoside>  (1751) 
False

>  <organisms>  (1751) 
Achillea leptophylla|Alibertia macrophylla|Aspergillus pseudodeflectus|Asplenium adiantum-nigrum|Dioscorea futschauensis|Distemonanthus benthamianus|Dorstenia barnimiana|Dysidea herbacea|Erythrina sigmoidea|Lamellodysidea herbacea|Macrosiphum liriodendri|Oxybasis urbica|Papulaspora immersa|Piper kwashoense|Piper philippinum|Rubia ustulata|Scleroderma polyrhizum|Sedum forsterianum|Umbilicaria proboscidea|Uvaria mocoli|Verbascum georgicum|Viguiera cordifolia|Zieria chevalieri|tripolium vulgare

>  <collections>  (1751) 
CMAUP (cCollective molecular activities of useful plants)|Latin America dataset|NPASS|NuBBEDB|Super Natural II|WikiData Natural Products

>  <dois>  (1751) 
10.1002/CBDV.201000011|10.1002/cbdv.201000011|10.1016/0031-9422(83)85062-6|10.1016/J.PHYTOCHEM.2007.05.003|10.1080/10286020.2010.546352|10.1248/CPB.40.72

>  <synonyms>  (1751) 
(22E24R)-ergosta-468(14)22-tetraen-3-one|CHEMBL3588947

>  <cas>  (1751) 
nan

$$$$

     RDKit          2D

 21 23  0  0  0  0  0  0  0  0999 V2000
    3.7325    2.4472    0.0000 O   0  0  0  0  0  0  0  0  0  0  0  0
    3.6820    0.9481    0.0000 C   0  0  0  0  0  0  0  0  0  0  0  0
    2.3585    0.2422    0.0000 C   0  0  0  0  0  0  0  0  0  0  0  0
    1.0854    1.0355    0.0000 C   0  0  0  0  0  0  0  0  0  0  0  0
   -0.2381    0.3296    0.0000 C   0  0  0  0  0  0  0  0  0  0  0  0
   -1.5112    1.1229    0.0000 C   0  0  0  0  0  0  0  0  0  0  0  0
   -2.8347    0.4171    0.0000 C   0  0  0  0  0  0  0  0  0  0  0  0
   -2.8852   -1.0821    0.0000 C   0  0  0  0  0  0  0  0  0  0  0  0
   -4.2088   -1.7879    0.0000 C   0  0  0  0  0  0  0  0  0  0  0  0
   -5.4818   -0.9947    0.0000 C   0  0  0  0  0  0  0  0  0  0  0  0
   -6.9232   -1.4099    0.0000 O   0  0  0  0  0  0  0  0  0  0  0  0
   -7.7635   -0.1674    0.0000 C   0  0  0  0  0  0  0  0  0  0  0  0
   -6.8415    1.0158    0.0000 O   0  0  0  0  0  0  0  0  0  0  0  0
   -5.4313    0.5045    0.0000 C   0  0  0  0  0  0  0  0  0  0  0  0
   -4.1078    1.2104    0.0000 C   0  0  0  0  0  0  0  0  0  0  0  0
    4.9551    0.1548    0.0000 N   0  0  0  0  0  0  0  0  0  0  0  0
    4.9046   -1.3444    0.0000 C   0  0  0  0  0  0  0  0  0  0  0  0
    6.1777   -2.1377    0.0000 C   0  0  0  0  0  0  0  0  0  0  0  0
    7.5012   -1.4318    0.0000 C   0  0  0  0  0  0  0  0  0  0  0  0
    7.5517    0.0673    0.0000 C   0  0  0  0  0  0  0  0  0  0  0  0
    6.2786    0.8606    0.0000 C   0  0  0  0  0  0  0  0  0  0  0  0
  1  2  2  0
  2  3  1  0
  3  4  2  0
  4  5  1  0
  5  6  1  0
  6  7  1  0
  7  8  2  0
  8  9  1  0
  9 10  2  0
 10 11  1  0
 11 12  1  0
 12 13  1  0
 13 14  1  0
 14 15  2  0
  2 16  1  0
 16 17  1  0
 17 18  1  0
 18 19  1  0
 19 20  1  0
 20 21  1  0
 15  7  1  0
 21 16  1  0
 14 10  1  0
M  END
>  <identifier>  (1752) 
CNP0245662.1

>  <canonical_smiles>  (1752) 
O=C(/C=C/CCC1=CC=C2OCOC2=C1)N1CCCCC1

>  <standard_inchi>  (1752) 
InChI=1S/C17H21NO3/c19-17(18-10-4-1-5-11-18)7-3-2-6-14-8-9-15-16(12-14)21-13-20-15/h3,7-9,12H,1-2,4-6,10-11,13H2/b7-3+

>  <standard_inchi_key>  (1752) 
QHWOFMXDKFORMO-XVNBXDOJSA-N

>  <name>  (1752) 
nan

>  <iupac_name>  (1752) 
nan

>  <annotation_level>  (1752) 
0

>  <total_atom_count>  (1752) 
42

>  <heavy_atom_count>  (1752) 
21

>  <molecular_weight>  (1752) 
287.36

>  <exact_molecular_weight>  (1752) 
287.15214

>  <molecular_formula>  (1752) 
C17H21NO3

>  <alogp>  (1752) 
2.92

>  <topological_polar_surface_area>  (1752) 
38.77

>  <rotatable_bond_count>  (1752) 
4

>  <hydrogen_bond_acceptors>  (1752) 
3

>  <hydrogen_bond_donors>  (1752) 
0

>  <hydrogen_bond_acceptors_lipinski>  (1752) 
3

>  <hydrogen_bond_donors_lipinski>  (1752) 
0

>  <lipinski_rule_of_five_violations>  (1752) 
0

>  <aromatic_rings_count>  (1752) 
1

>  <qed_drug_likeliness>  (1752) 
0.80

>  <formal_charge>  (1752) 
0

>  <fractioncsp3>  (1752) 
0.47

>  <number_of_minimal_rings>  (1752) 
3

>  <van_der_walls_volume>  (1752) 
272.34

>  <contains_sugar>  (1752) 
False

>  <contains_ring_sugars>  (1752) 
False

>  <contains_linear_sugars>  (1752) 
False

>  <murcko_framework>  (1752) 
O1c2ccc(cc2OC1)CCC=CCN3CCCCC3

>  <np_likeness>  (1752) 
0.22

>  <chemical_class>  (1752) 
nan

>  <chemical_sub_class>  (1752) 
nan

>  <chemical_super_class>  (1752) 
nan

>  <direct_parent_classification>  (1752) 
nan

>  <np_classifier_pathway>  (1752) 
Alkaloids

>  <np_classifier_superclass>  (1752) 
Lysine alkaloids

>  <np_classifier_class>  (1752) 
Piperidine alkaloids

>  <np_classifier_is_glycoside>  (1752) 
False

>  <organisms>  (1752) 
Abies webbiana|Agaricus xanthodermus|Brickellia longifolia|Bupleurum rigidum|Carpesium longifolium|Cochlearia officinalis|Coelogyne nitida|Crocus corsicus|Dichotomanthes tristaniicarpa|Didymosphaeria enalia|Dracontium loretense|Euphorbia wangii|Frullania brasiliensis|Homalium laurifolium|Leifsonia aquatica|Macropiper|Matsumurella chinensis|Monascus rubropunctatus|Mycoplasma mycoides|Palisota barteri|Penicillium tardum|Photorhabdus luminescens|Pinus koraiensis|Piper capense|Piper chaba|Piper hederaceum|Piper longum|Piper nigrum|Piper novae-hollandiae|Piper retrofractum|Piper swartzianum|Piper tuberculatum|Podocarpus minor|Pothomorphe peltata|Pseudomonas stutzeri|Schefflera venulosa|Silene banksia|Verbesina virginica|West African Pepper

>  <collections>  (1752) 
AnalytiCon Discovery NPs|Australian natural products|CMAUP (cCollective molecular activities of useful plants)|ChemSpider NPs|ETM (Ethiopian Traditional Medicine) DB|FooDB|GNPS (Global Natural Products Social Molecular Networking)|Latin America dataset|NPASS|NuBBEDB|PubChem NPs|Super Natural II|TCMDB-Taiwan (Traditional Chinese Medicine database)|WikiData Natural Products

>  <dois>  (1752) 
10.1007/S00044-008-9161-9|10.1016/J.BMC.2009.08.050|10.1016/J.BMC.2010.03.013|10.1016/J.CHROMA.2004.03.056|10.1016/S0031-9422(00)00226-0|10.1016/S0031-9422(00)94334-6|10.1016/S0031-9422(00)94379-6|10.1016/S0031-9422(01)00431-9|10.1021/JF60178A026|10.1021/NP030475E|10.1021/NP900656G|10.1039/C3AN00016H|10.1055/S-0035-1546106|10.1071/CH9691531|10.1071/ch9691531|10.1177/1934578X0600100101|10.3390/MOLECULES14093833

>  <synonyms>  (1752) 
nan

>  <cas>  (1752) 
23512-46-1

$$$$

     RDKit          2D

 26 29  0  0  0  0  0  0  0  0999 V2000
    4.7633   -3.1872    0.0000 C   0  0  0  0  0  0  0  0  0  0  0  0
    4.1819   -1.8045    0.0000 C   0  0  0  0  0  0  0  0  0  0  0  0
    2.6937   -1.6166    0.0000 C   0  0  0  0  0  0  0  0  0  0  0  0
    2.1123   -0.2339    0.0000 C   0  0  0  0  0  0  0  0  0  0  0  0
    3.6120   -0.2652    0.0000 C   0  0  0  0  0  0  0  0  0  0  0  0
    4.3889    1.0180    0.0000 C   0  0  0  0  0  0  0  0  0  0  0  0
    5.8886    0.9867    0.0000 O   0  0  0  0  0  0  0  0  0  0  0  0
    6.6113   -0.3277    0.0000 C   0  0  0  0  0  0  0  0  0  0  0  0
    3.6661    2.3323    0.0000 C   0  0  0  0  0  0  0  0  0  0  0  0
    4.4430    3.6155    0.0000 O   0  0  0  0  0  0  0  0  0  0  0  0
    2.1665    2.3636    0.0000 C   0  0  0  0  0  0  0  0  0  0  0  0
    1.3895    1.0805    0.0000 C   0  0  0  0  0  0  0  0  0  0  0  0
   -0.0839    0.7993    0.0000 O   0  0  0  0  0  0  0  0  0  0  0  0
   -0.2717   -0.6889    0.0000 C   0  0  0  0  0  0  0  0  0  0  0  0
   -1.5861   -1.4117    0.0000 C   0  0  0  0  0  0  0  0  0  0  0  0
   -2.8692   -0.6348    0.0000 C   0  0  0  0  0  0  0  0  0  0  0  0
   -2.8380    0.8649    0.0000 C   0  0  0  0  0  0  0  0  0  0  0  0
   -4.1211    1.6418    0.0000 C   0  0  0  0  0  0  0  0  0  0  0  0
   -5.4355    0.9191    0.0000 C   0  0  0  0  0  0  0  0  0  0  0  0
   -6.8521    1.4122    0.0000 O   0  0  0  0  0  0  0  0  0  0  0  0
   -7.7589    0.2173    0.0000 C   0  0  0  0  0  0  0  0  0  0  0  0
   -6.9027   -1.0143    0.0000 O   0  0  0  0  0  0  0  0  0  0  0  0
   -5.4667   -0.5806    0.0000 C   0  0  0  0  0  0  0  0  0  0  0  0
   -4.1836   -1.3575    0.0000 C   0  0  0  0  0  0  0  0  0  0  0  0
    1.0856   -1.3275    0.0000 C   0  0  0  0  0  0  0  0  0  0  0  0
    1.3668   -2.8009    0.0000 C   0  0  0  0  0  0  0  0  0  0  0  0
  1  2  2  0
  2  3  1  0
  4  3  1  1
  4  5  1  0
  5  6  2  0
  6  7  1  0
  7  8  1  0
  6  9  1  0
  9 10  2  0
  9 11  1  0
 11 12  2  0
 12 13  1  0
 13 14  1  0
 14 15  1  6
 15 16  1  0
 16 17  2  0
 17 18  1  0
 18 19  2  0
 19 20  1  0
 20 21  1  0
 21 22  1  0
 22 23  1  0
 23 24  2  0
 14 25  1  0
 25 26  1  1
 12  4  1  0
 24 16  1  0
 25  4  1  0
 23 19  1  0
M  END
>  <identifier>  (1753) 
CNP0136749.1

>  <canonical_smiles>  (1753) 
C=CC[C@]12C=C(OC)C(=O)C=C1O[C@@H](CC1=CC=C3OCOC3=C1)[C@@H]2C

>  <standard_inchi>  (1753) 
InChI=1S/C21H22O5/c1-4-7-21-11-19(23-3)15(22)10-20(21)26-17(13(21)2)8-14-5-6-16-18(9-14)25-12-24-16/h4-6,9-11,13,17H,1,7-8,12H2,2-3H3/t13-,17-,21+/m0/s1

>  <standard_inchi_key>  (1753) 
NCVHFCDNGBVWBR-IBNJYYFUSA-N

>  <name>  (1753) 
nan

>  <iupac_name>  (1753) 
(2~{S},3~{R},3~{a}~{S})-3~{a}-allyl-2-(1,3-benzodioxol-5-ylmethyl)-5-methoxy-3-methyl-2,3-dihydrobenzofuran-6-one

>  <annotation_level>  (1753) 
3

>  <total_atom_count>  (1753) 
48

>  <heavy_atom_count>  (1753) 
26

>  <molecular_weight>  (1753) 
354.4

>  <exact_molecular_weight>  (1753) 
354.14672

>  <molecular_formula>  (1753) 
C21H22O5

>  <alogp>  (1753) 
3.55

>  <topological_polar_surface_area>  (1753) 
53.99

>  <rotatable_bond_count>  (1753) 
5

>  <hydrogen_bond_acceptors>  (1753) 
5

>  <hydrogen_bond_donors>  (1753) 
0

>  <hydrogen_bond_acceptors_lipinski>  (1753) 
5

>  <hydrogen_bond_donors_lipinski>  (1753) 
0

>  <lipinski_rule_of_five_violations>  (1753) 
0

>  <aromatic_rings_count>  (1753) 
1

>  <qed_drug_likeliness>  (1753) 
0.76

>  <formal_charge>  (1753) 
0

>  <fractioncsp3>  (1753) 
0.38

>  <number_of_minimal_rings>  (1753) 
4

>  <van_der_walls_volume>  (1753) 
nan

>  <contains_sugar>  (1753) 
False

>  <contains_ring_sugars>  (1753) 
False

>  <contains_linear_sugars>  (1753) 
False

>  <murcko_framework>  (1753) 
O1c2ccc(cc2OC1)CC3OC4=CCC=CC4C3

>  <np_likeness>  (1753) 
1.93

>  <chemical_class>  (1753) 
Benzofurans

>  <chemical_sub_class>  (1753) 
Benzofuranones

>  <chemical_super_class>  (1753) 
Organoheterocyclic compounds

>  <direct_parent_classification>  (1753) 
Benzofuranones

>  <np_classifier_pathway>  (1753) 
Shikimates and Phenylpropanoids

>  <np_classifier_superclass>  (1753) 
Lignans

>  <np_classifier_class>  (1753) 
Neolignans

>  <np_classifier_is_glycoside>  (1753) 
False

>  <organisms>  (1753) 
Aniba|Aniba sp.

>  <collections>  (1753) 
Latin America dataset|NuBBEDB|WikiData Natural Products|ZINC NP

>  <dois>  (1753) 
10.1016/0031-9422(80)83208-0

>  <synonyms>  (1753) 
nan

>  <cas>  (1753) 
nan

$$$$

     RDKit          2D

 32 36  0  0  0  0  0  0  0  0999 V2000
    5.4002   -4.2563    0.0000 C   0  0  0  0  0  0  0  0  0  0  0  0
    6.7235   -3.5499    0.0000 C   0  0  0  0  0  0  0  0  0  0  0  0
    7.9969   -4.3428    0.0000 C   0  0  0  0  0  0  0  0  0  0  0  0
    6.7735   -2.0508    0.0000 C   0  0  0  0  0  0  0  0  0  0  0  0
    8.0967   -1.3444    0.0000 O   0  0  0  0  0  0  0  0  0  0  0  0
    5.5001   -1.2579    0.0000 C   0  0  0  0  0  0  0  0  0  0  0  0
    5.5501    0.2412    0.0000 O   0  0  0  0  0  0  0  0  0  0  0  0
    4.2767    1.0341    0.0000 C   0  0  0  0  0  0  0  0  0  0  0  0
    2.9534    0.3277    0.0000 C   0  0  0  0  0  0  0  0  0  0  0  0
    1.6801    1.1206    0.0000 C   0  0  0  0  0  0  0  0  0  0  0  0
    0.3568    0.4142    0.0000 C   0  0  0  0  0  0  0  0  0  0  0  0
    0.1504   -1.0715    0.0000 O   0  0  0  0  0  0  0  0  0  0  0  0
   -1.3264   -1.3343    0.0000 C   0  0  0  0  0  0  0  0  0  0  0  0
   -2.0327   -0.0110    0.0000 C   0  0  0  0  0  0  0  0  0  0  0  0
   -0.9925    1.0696    0.0000 C   0  0  0  0  0  0  0  0  0  0  0  0
   -1.6988    2.3929    0.0000 C   0  0  0  0  0  0  0  0  0  0  0  0
   -3.1756    2.1301    0.0000 O   0  0  0  0  0  0  0  0  0  0  0  0
   -3.3820    0.6444    0.0000 C   0  0  0  0  0  0  0  0  0  0  0  0
   -4.7052   -0.0620    0.0000 C   0  0  0  0  0  0  0  0  0  0  0  0
   -4.7552   -1.5611    0.0000 C   0  0  0  0  0  0  0  0  0  0  0  0
   -6.0785   -2.2675    0.0000 C   0  0  0  0  0  0  0  0  0  0  0  0
   -7.3518   -1.4746    0.0000 C   0  0  0  0  0  0  0  0  0  0  0  0
   -8.7931   -1.8904    0.0000 O   0  0  0  0  0  0  0  0  0  0  0  0
   -9.6338   -0.6482    0.0000 C   0  0  0  0  0  0  0  0  0  0  0  0
   -8.7122    0.5353    0.0000 O   0  0  0  0  0  0  0  0  0  0  0  0
   -7.3019    0.0245    0.0000 C   0  0  0  0  0  0  0  0  0  0  0  0
   -5.9786    0.7309    0.0000 C   0  0  0  0  0  0  0  0  0  0  0  0
    1.7300    2.6197    0.0000 C   0  0  0  0  0  0  0  0  0  0  0  0
    3.0533    3.3261    0.0000 C   0  0  0  0  0  0  0  0  0  0  0  0
    4.3267    2.5332    0.0000 C   0  0  0  0  0  0  0  0  0  0  0  0
    5.6499    3.2396    0.0000 O   0  0  0  0  0  0  0  0  0  0  0  0
    5.6999    4.7387    0.0000 C   0  0  0  0  0  0  0  0  0  0  0  0
  1  2  2  0
  2  3  1  0
  2  4  1  0
  4  5  1  0
  4  6  1  0
  6  7  1  0
  7  8  1  0
  8  9  2  0
  9 10  1  0
 11 10  1  1
 11 12  1  0
 12 13  1  0
 14 13  1  6
 14 15  1  0
 15 16  1  6
 16 17  1  0
 17 18  1  0
 18 19  1  1
 19 20  2  0
 20 21  1  0
 21 22  2  0
 22 23  1  0
 23 24  1  0
 24 25  1  0
 25 26  1  0
 26 27  2  0
 10 28  2  0
 28 29  1  0
 29 30  2  0
 30 31  1  0
 31 32  1  0
 30  8  1  0
 15 11  1  0
 27 19  1  0
 18 14  1  0
 26 22  1  0
M  END
>  <identifier>  (1754) 
CNP0080470.1

>  <canonical_smiles>  (1754) 
C=C(C)C(O)COC1=CC([C@H]2OC[C@H]3[C@@H]2CO[C@@H]3C2=CC=C3OCOC3=C2)=CC=C1OC

>  <standard_inchi>  (1754) 
InChI=1S/C25H28O7/c1-14(2)19(26)12-28-22-8-15(4-6-20(22)27-3)24-17-10-30-25(18(17)11-29-24)16-5-7-21-23(9-16)32-13-31-21/h4-9,17-19,24-26H,1,10-13H2,2-3H3/t17-,18-,19?,24+,25+/m0/s1

>  <standard_inchi_key>  (1754) 
XWZIRJAEAHXWSP-YAKUADMYSA-N

>  <name>  (1754) 
nan

>  <iupac_name>  (1754) 
1-[5-[(3~{S},3~{a}~{R},6~{S},6~{a}~{R})-3-(1,3-benzodioxol-5-yl)-1,3,3~{a},4,6,6~{a}-hexahydrofuro[3,4-c]furan-6-yl]-2-methoxy-phenoxy]-3-methyl-but-3-en-2-ol

>  <annotation_level>  (1754) 
3

>  <total_atom_count>  (1754) 
60

>  <heavy_atom_count>  (1754) 
32

>  <molecular_weight>  (1754) 
440.49

>  <exact_molecular_weight>  (1754) 
440.1835

>  <molecular_formula>  (1754) 
C25H28O7

>  <alogp>  (1754) 
3.81

>  <topological_polar_surface_area>  (1754) 
75.61

>  <rotatable_bond_count>  (1754) 
7

>  <hydrogen_bond_acceptors>  (1754) 
7

>  <hydrogen_bond_donors>  (1754) 
1

>  <hydrogen_bond_acceptors_lipinski>  (1754) 
7

>  <hydrogen_bond_donors_lipinski>  (1754) 
1

>  <lipinski_rule_of_five_violations>  (1754) 
0

>  <aromatic_rings_count>  (1754) 
2

>  <qed_drug_likeliness>  (1754) 
0.66

>  <formal_charge>  (1754) 
0

>  <fractioncsp3>  (1754) 
0.44

>  <number_of_minimal_rings>  (1754) 
5

>  <van_der_walls_volume>  (1754) 
nan

>  <contains_sugar>  (1754) 
False

>  <contains_ring_sugars>  (1754) 
False

>  <contains_linear_sugars>  (1754) 
False

>  <murcko_framework>  (1754) 
O1c2ccc(cc2OC1)C3OCC4C(OCC34)c5ccccc5

>  <np_likeness>  (1754) 
1.22

>  <chemical_class>  (1754) 
Furanoid lignans

>  <chemical_sub_class>  (1754) 
Furan lignans

>  <chemical_super_class>  (1754) 
Lignans, neolignans and related compounds

>  <direct_parent_classification>  (1754) 
Furan lignans

>  <np_classifier_pathway>  (1754) 
Shikimates and Phenylpropanoids

>  <np_classifier_superclass>  (1754) 
Lignans

>  <np_classifier_class>  (1754) 
Furofuranoid lignans

>  <np_classifier_is_glycoside>  (1754) 
False

>  <organisms>  (1754) 
Zanthoxylum petiolare

>  <collections>  (1754) 
Latin America dataset|NuBBEDB|WikiData Natural Products

>  <dois>  (1754) 
10.1016/S0031-9422(00)89656-9

>  <synonyms>  (1754) 
nan

>  <cas>  (1754) 
nan

$$$$

     RDKit          2D

 36 37  0  0  0  0  0  0  0  0999 V2000
   13.1228   -2.3830    0.0000 C   0  0  0  0  0  0  0  0  0  0  0  0
   13.3051   -0.8941    0.0000 O   0  0  0  0  0  0  0  0  0  0  0  0
   12.1068    0.0082    0.0000 C   0  0  0  0  0  0  0  0  0  0  0  0
   10.7263   -0.5784    0.0000 C   0  0  0  0  0  0  0  0  0  0  0  0
    9.5280    0.3238    0.0000 C   0  0  0  0  0  0  0  0  0  0  0  0
    8.1474   -0.2628    0.0000 C   0  0  0  0  0  0  0  0  0  0  0  0
    6.9491    0.6395    0.0000 C   0  0  0  0  0  0  0  0  0  0  0  0
    5.5686    0.0529    0.0000 C   0  0  0  0  0  0  0  0  0  0  0  0
    5.3863   -1.4360    0.0000 O   0  0  0  0  0  0  0  0  0  0  0  0
    4.3703    0.9552    0.0000 O   0  0  0  0  0  0  0  0  0  0  0  0
    2.9898    0.3686    0.0000 C   0  0  0  0  0  0  0  0  0  0  0  0
    1.7915    1.2709    0.0000 C   0  0  0  0  0  0  0  0  0  0  0  0
    0.4110    0.6843    0.0000 C   0  0  0  0  0  0  0  0  0  0  0  0
    0.2287   -0.8046    0.0000 C   0  0  0  0  0  0  0  0  0  0  0  0
   -1.1519   -1.3912    0.0000 C   0  0  0  0  0  0  0  0  0  0  0  0
   -2.3501   -0.4889    0.0000 C   0  0  0  0  0  0  0  0  0  0  0  0
   -3.7307   -1.0755    0.0000 C   0  0  0  0  0  0  0  0  0  0  0  0
   -4.9290   -0.1732    0.0000 C   0  0  0  0  0  0  0  0  0  0  0  0
   -6.3095   -0.7598    0.0000 C   0  0  0  0  0  0  0  0  0  0  0  0
   -7.5078    0.1425    0.0000 C   0  0  0  0  0  0  0  0  0  0  0  0
   -8.8883   -0.4441    0.0000 C   0  0  0  0  0  0  0  0  0  0  0  0
  -10.0866    0.4582    0.0000 C   0  0  0  0  0  0  0  0  0  0  0  0
  -11.4672   -0.1284    0.0000 C   0  0  0  0  0  0  0  0  0  0  0  0
  -12.6654    0.7738    0.0000 C   0  0  0  0  0  0  0  0  0  0  0  0
  -14.0460    0.1872    0.0000 C   0  0  0  0  0  0  0  0  0  0  0  0
  -15.2443    1.0895    0.0000 C   0  0  0  0  0  0  0  0  0  0  0  0
  -16.6248    0.5029    0.0000 C   0  0  0  0  0  0  0  0  0  0  0  0
  -17.8231    1.4052    0.0000 C   0  0  0  0  0  0  0  0  0  0  0  0
  -16.8071   -0.9859    0.0000 O   0  0  0  0  0  0  0  0  0  0  0  0
    1.4270   -1.7069    0.0000 N   0  0  0  0  0  0  0  0  0  0  0  0
    2.8075   -1.1203    0.0000 C   0  0  0  0  0  0  0  0  0  0  0  0
    4.0058   -2.0226    0.0000 C   0  0  0  0  0  0  0  0  0  0  0  0
    9.7102    1.8127    0.0000 C   0  0  0  0  0  0  0  0  0  0  0  0
   11.0908    2.3993    0.0000 C   0  0  0  0  0  0  0  0  0  0  0  0
   12.2891    1.4970    0.0000 C   0  0  0  0  0  0  0  0  0  0  0  0
   13.6696    2.0836    0.0000 O   0  0  0  0  0  0  0  0  0  0  0  0
  1  2  1  0
  2  3  1  0
  3  4  2  0
  4  5  1  0
  5  6  1  0
  6  7  2  0
  7  8  1  0
  8  9  2  0
  8 10  1  0
 10 11  1  0
 11 12  1  0
 12 13  1  0
 13 14  1  0
 14 15  1  0
 15 16  1  0
 16 17  1  0
 17 18  1  0
 18 19  1  0
 19 20  1  0
 20 21  1  0
 21 22  1  0
 22 23  1  0
 23 24  1  0
 24 25  1  0
 25 26  1  0
 26 27  1  0
 27 28  1  0
 27 29  2  0
 14 30  1  0
 30 31  1  0
 31 32  1  0
  5 33  2  0
 33 34  1  0
 34 35  2  0
 35 36  1  0
 35  3  1  0
 31 11  1  0
M  END
>  <identifier>  (1755) 
CNP0368444.3

>  <canonical_smiles>  (1755) 
COC1=CC(/C=C/C(=O)OC2CCC(CCCCCCCCCCCCC(C)=O)NC2C)=CC=C1O

>  <standard_inchi>  (1755) 
InChI=1S/C30H47NO5/c1-23(32)14-12-10-8-6-4-5-7-9-11-13-15-26-18-20-28(24(2)31-26)36-30(34)21-17-25-16-19-27(33)29(22-25)35-3/h16-17,19,21-22,24,26,28,31,33H,4-15,18,20H2,1-3H3/b21-17+

>  <standard_inchi_key>  (1755) 
ZIMSZIZHJOVZFZ-HEHNFIMWSA-N

>  <name>  (1755) 
nan

>  <iupac_name>  (1755) 
nan

>  <annotation_level>  (1755) 
0

>  <total_atom_count>  (1755) 
83

>  <heavy_atom_count>  (1755) 
36

>  <molecular_weight>  (1755) 
501.71

>  <exact_molecular_weight>  (1755) 
501.34542

>  <molecular_formula>  (1755) 
C30H47NO5

>  <alogp>  (1755) 
6.74

>  <topological_polar_surface_area>  (1755) 
84.86

>  <rotatable_bond_count>  (1755) 
17

>  <hydrogen_bond_acceptors>  (1755) 
6

>  <hydrogen_bond_donors>  (1755) 
2

>  <hydrogen_bond_acceptors_lipinski>  (1755) 
6

>  <hydrogen_bond_donors_lipinski>  (1755) 
2

>  <lipinski_rule_of_five_violations>  (1755) 
2

>  <aromatic_rings_count>  (1755) 
1

>  <qed_drug_likeliness>  (1755) 
0.14

>  <formal_charge>  (1755) 
0

>  <fractioncsp3>  (1755) 
0.67

>  <number_of_minimal_rings>  (1755) 
2

>  <van_der_walls_volume>  (1755) 
511.02

>  <contains_sugar>  (1755) 
False

>  <contains_ring_sugars>  (1755) 
False

>  <contains_linear_sugars>  (1755) 
False

>  <murcko_framework>  (1755) 
O(CC=Cc1ccccc1)C2CNCCC2

>  <np_likeness>  (1755) 
1.52

>  <chemical_class>  (1755) 
nan

>  <chemical_sub_class>  (1755) 
nan

>  <chemical_super_class>  (1755) 
nan

>  <direct_parent_classification>  (1755) 
nan

>  <np_classifier_pathway>  (1755) 
Alkaloids

>  <np_classifier_superclass>  (1755) 
Lysine alkaloids

>  <np_classifier_class>  (1755) 
Piperidine alkaloids

>  <np_classifier_is_glycoside>  (1755) 
False

>  <organisms>  (1755) 
Senna spectabilis

>  <collections>  (1755) 
Latin America dataset|NuBBEDB|WikiData Natural Products

>  <dois>  (1755) 
10.1590/S0103-50532005000800023

>  <synonyms>  (1755) 
nan

>  <cas>  (1755) 
nan

$$$$

     RDKit          2D

 24 26  0  0  0  0  0  0  0  0999 V2000
   -6.4748   -2.2920    0.0000 C   0  0  0  0  0  0  0  0  0  0  0  0
   -5.9398   -0.8907    0.0000 C   0  0  0  0  0  0  0  0  0  0  0  0
   -7.4127   -0.6071    0.0000 C   0  0  0  0  0  0  0  0  0  0  0  0
   -5.9163    0.6092    0.0000 C   0  0  0  0  0  0  0  0  0  0  0  0
   -4.6057    1.3388    0.0000 C   0  0  0  0  0  0  0  0  0  0  0  0
   -3.3186    0.5686    0.0000 C   0  0  0  0  0  0  0  0  0  0  0  0
   -3.3420   -0.9313    0.0000 C   0  0  0  0  0  0  0  0  0  0  0  0
   -2.0549   -1.7015    0.0000 C   0  0  0  0  0  0  0  0  0  0  0  0
   -0.7443   -0.9719    0.0000 C   0  0  0  0  0  0  0  0  0  0  0  0
   -0.7208    0.5280    0.0000 C   0  0  0  0  0  0  0  0  0  0  0  0
    0.5898    1.2576    0.0000 C   0  0  0  0  0  0  0  0  0  0  0  0
    0.6132    2.7574    0.0000 O   0  0  0  0  0  0  0  0  0  0  0  0
    1.8769    0.4874    0.0000 C   0  0  0  0  0  0  0  0  0  0  0  0
    3.1876    1.2170    0.0000 C   0  0  0  0  0  0  0  0  0  0  0  0
    4.4747    0.4468    0.0000 C   0  0  0  0  0  0  0  0  0  0  0  0
    4.4513   -1.0531    0.0000 C   0  0  0  0  0  0  0  0  0  0  0  0
    5.7384   -1.8233    0.0000 C   0  0  0  0  0  0  0  0  0  0  0  0
    7.0490   -1.0937    0.0000 C   0  0  0  0  0  0  0  0  0  0  0  0
    8.3362   -1.8639    0.0000 O   0  0  0  0  0  0  0  0  0  0  0  0
    7.0725    0.4061    0.0000 C   0  0  0  0  0  0  0  0  0  0  0  0
    5.7853    1.1764    0.0000 C   0  0  0  0  0  0  0  0  0  0  0  0
   -2.0080    1.2982    0.0000 C   0  0  0  0  0  0  0  0  0  0  0  0
   -1.9845    2.7980    0.0000 O   0  0  0  0  0  0  0  0  0  0  0  0
   -4.6526   -1.6609    0.0000 O   0  0  0  0  0  0  0  0  0  0  0  0
  1  2  1  0
  2  3  1  0
  2  4  1  0
  4  5  2  0
  5  6  1  0
  6  7  2  0
  7  8  1  0
  8  9  2  0
  9 10  1  0
 10 11  1  0
 11 12  2  0
 11 13  1  0
 13 14  2  0
 14 15  1  0
 15 16  2  0
 16 17  1  0
 17 18  2  0
 18 19  1  0
 18 20  1  0
 20 21  2  0
 10 22  2  0
 22 23  1  0
  7 24  1  0
 24  2  1  0
 22  6  1  0
 21 15  1  0
M  END
>  <identifier>  (1756) 
CNP0333285.1

>  <canonical_smiles>  (1756) 
CC1(C)C=CC2=C(C=CC(C(=O)/C=C/C3=CC=C(O)C=C3)=C2O)O1

>  <standard_inchi>  (1756) 
InChI=1S/C20H18O4/c1-20(2)12-11-16-18(24-20)10-8-15(19(16)23)17(22)9-5-13-3-6-14(21)7-4-13/h3-12,21,23H,1-2H3/b9-5+

>  <standard_inchi_key>  (1756) 
IQHPDUUSMBMDGN-WEVVVXLNSA-N

>  <name>  (1756) 
nan

>  <iupac_name>  (1756) 
nan

>  <annotation_level>  (1756) 
0

>  <total_atom_count>  (1756) 
42

>  <heavy_atom_count>  (1756) 
24

>  <molecular_weight>  (1756) 
322.36

>  <exact_molecular_weight>  (1756) 
322.12051

>  <molecular_formula>  (1756) 
C20H18O4

>  <alogp>  (1756) 
4.18

>  <topological_polar_surface_area>  (1756) 
66.76

>  <rotatable_bond_count>  (1756) 
3

>  <hydrogen_bond_acceptors>  (1756) 
4

>  <hydrogen_bond_donors>  (1756) 
2

>  <hydrogen_bond_acceptors_lipinski>  (1756) 
4

>  <hydrogen_bond_donors_lipinski>  (1756) 
2

>  <lipinski_rule_of_five_violations>  (1756) 
0

>  <aromatic_rings_count>  (1756) 
2

>  <qed_drug_likeliness>  (1756) 
0.66

>  <formal_charge>  (1756) 
0

>  <fractioncsp3>  (1756) 
0.15

>  <number_of_minimal_rings>  (1756) 
3

>  <van_der_walls_volume>  (1756) 
292.49

>  <contains_sugar>  (1756) 
False

>  <contains_ring_sugars>  (1756) 
False

>  <contains_linear_sugars>  (1756) 
False

>  <murcko_framework>  (1756) 
O1c2ccc(cc2C=CC1)CC=Cc3ccccc3

>  <np_likeness>  (1756) 
1.79

>  <chemical_class>  (1756) 
nan

>  <chemical_sub_class>  (1756) 
nan

>  <chemical_super_class>  (1756) 
nan

>  <direct_parent_classification>  (1756) 
nan

>  <np_classifier_pathway>  (1756) 
Shikimates and Phenylpropanoids

>  <np_classifier_superclass>  (1756) 
Flavonoids

>  <np_classifier_class>  (1756) 
Chalcones

>  <np_classifier_is_glycoside>  (1756) 
False

>  <organisms>  (1756) 
Achillea cretica|Agrobacterium tumefaciens|Brosimum acutifolium|Cordia americana|Cullen corylifolia|Cullen corylifolium|Derris floribunda|Derris sericea|Derris trifoliata|Dorstenia barteri|Dorstenia barteri var. subtriangularis|Dorstenia dinklagei|Dorstenia mannii|Dorstenia poinsettifolia|Dorstenia prorepens|Dorstenia zenkeri|Endiandra palmerstonii|Eupatorium riparium|Fructus psoraleae corylifoliae|Glycosmis montana|Helichrysum arenarium subsp. aucheri|Hijmania turbinata|Lactuca floridana|Lonchocarpus neuroscapha|Lonchocarpus utilis|Lonchocarpus xuul|Millettia dura|Millettia ferruginea|Mundulea sericea|Pedicularis semitorta|Prosopis alba|Scopolia japonica|Scorzoneroides autumnalis|Sophora prostrata|Ulex jussiaei|Ulex minor|Ventilago leiocarpa|Zanthoxylum rhetsum|liquorice

>  <collections>  (1756) 
AfroCancer|AfroDB|CMAUP (cCollective molecular activities of useful plants)|ConMedNP|KNApSaCK|Latin America dataset|Mitishamba database|NPASS|NPEdia|NuBBEDB|Super Natural II|TCMDB-Taiwan (Traditional Chinese Medicine database)|WikiData Natural Products|ZINC NP|p-ANAPL

>  <dois>  (1756) 
10.1016/0031-9422(94)00721-5|10.1016/J.PHYTOCHEM.2004.10.016|10.1016/J.PHYTOCHEM.2006.09.017|10.1016/S0031-9422(00)00215-6|10.1016/S0031-9422(00)80349-0|10.1016/S0031-9422(00)89755-1|10.1016/S0031-9422(00)97882-8|10.1016/S0031-9422(00)98664-3|10.1016/S0031-9422(01)00483-6|10.1016/S0031-9422(02)00130-9|10.1016/S0031-9422(97)00591-8|10.1016/S0031-9422(97)01114-X|10.1016/S0031-9422(97)01120-5|10.1016/S0031-9422(98)00621-9|10.1016/S0031-9422(99)00608-1|10.1016/j.bmc.2009.02.050|10.1073/PNAS.95.7.3380|10.1248/BPB.28.2253|10.1515/ZNC-2000-7-804|10.1515/ZNC-2002-7-810

>  <synonyms>  (1756) 
nan

>  <cas>  (1756) 
nan

$$$$

     RDKit          2D

 13 13  0  0  0  0  0  0  0  0999 V2000
   -4.6042    0.6994    0.0000 C   0  0  0  0  0  0  0  0  0  0  0  0
   -3.1132    0.8635    0.0000 O   0  0  0  0  0  0  0  0  0  0  0  0
   -2.2255   -0.3456    0.0000 C   0  0  0  0  0  0  0  0  0  0  0  0
   -2.8289   -1.7189    0.0000 O   0  0  0  0  0  0  0  0  0  0  0  0
   -0.7346   -0.1814    0.0000 C   0  0  0  0  0  0  0  0  0  0  0  0
   -0.1312    1.1919    0.0000 C   0  0  0  0  0  0  0  0  0  0  0  0
    1.3597    1.3561    0.0000 C   0  0  0  0  0  0  0  0  0  0  0  0
    1.9630    2.7294    0.0000 O   0  0  0  0  0  0  0  0  0  0  0  0
    2.2474    0.1469    0.0000 C   0  0  0  0  0  0  0  0  0  0  0  0
    3.7384    0.3111    0.0000 O   0  0  0  0  0  0  0  0  0  0  0  0
    1.6441   -1.2264    0.0000 C   0  0  0  0  0  0  0  0  0  0  0  0
    2.5318   -2.4355    0.0000 O   0  0  0  0  0  0  0  0  0  0  0  0
    0.1531   -1.3906    0.0000 C   0  0  0  0  0  0  0  0  0  0  0  0
  1  2  1  0
  2  3  1  0
  3  4  2  0
  3  5  1  0
  5  6  2  0
  6  7  1  0
  7  8  1  0
  7  9  2  0
  9 10  1  0
  9 11  1  0
 11 12  1  0
 11 13  2  0
 13  5  1  0
M  END
>  <identifier>  (1757) 
CNP0110273.0

>  <canonical_smiles>  (1757) 
COC(=O)C1=CC(O)=C(O)C(O)=C1

>  <standard_inchi>  (1757) 
InChI=1S/C8H8O5/c1-13-8(12)4-2-5(9)7(11)6(10)3-4/h2-3,9-11H,1H3

>  <standard_inchi_key>  (1757) 
FBSFWRHWHYMIOG-UHFFFAOYSA-N

>  <name>  (1757) 
METHYL GALLATE

>  <iupac_name>  (1757) 
methyl 3,4,5-trihydroxybenzoate

>  <annotation_level>  (1757) 
5

>  <total_atom_count>  (1757) 
21

>  <heavy_atom_count>  (1757) 
13

>  <molecular_weight>  (1757) 
184.15

>  <exact_molecular_weight>  (1757) 
184.03717

>  <molecular_formula>  (1757) 
C8H8O5

>  <alogp>  (1757) 
0.59

>  <topological_polar_surface_area>  (1757) 
86.99

>  <rotatable_bond_count>  (1757) 
1

>  <hydrogen_bond_acceptors>  (1757) 
5

>  <hydrogen_bond_donors>  (1757) 
3

>  <hydrogen_bond_acceptors_lipinski>  (1757) 
5

>  <hydrogen_bond_donors_lipinski>  (1757) 
3

>  <lipinski_rule_of_five_violations>  (1757) 
0

>  <aromatic_rings_count>  (1757) 
1

>  <qed_drug_likeliness>  (1757) 
0.44

>  <formal_charge>  (1757) 
0

>  <fractioncsp3>  (1757) 
0.13

>  <number_of_minimal_rings>  (1757) 
1

>  <van_der_walls_volume>  (1757) 
154.46

>  <contains_sugar>  (1757) 
False

>  <contains_ring_sugars>  (1757) 
False

>  <contains_linear_sugars>  (1757) 
False

>  <murcko_framework>  (1757) 
c1ccccc1

>  <np_likeness>  (1757) 
0.71

>  <chemical_class>  (1757) 
Benzene and substituted derivatives

>  <chemical_sub_class>  (1757) 
Benzoic acids and derivatives

>  <chemical_super_class>  (1757) 
Benzenoids

>  <direct_parent_classification>  (1757) 
p-Hydroxybenzoic acid alkyl esters

>  <np_classifier_pathway>  (1757) 
Shikimates and Phenylpropanoids

>  <np_classifier_superclass>  (1757) 
Phenolic acids (C6-C1)

>  <np_classifier_class>  (1757) 
Simple phenolic acids

>  <np_classifier_is_glycoside>  (1757) 
False

>  <organisms>  (1757) 
Aaptos aaptos|Absidia caerulea|Acacia farnesiana|Acacia nilotica subsp. tomentosa|Acacia speckii|Acer barbinerve|Acer negundo|Acer pictum subsp. okamotoanum|Acer rubrum|Acer rubrum L.|Acer saccharinum|Acer truncatum|Aconitum nevadense|Aconitum violaceum|Actinoplanes friuliensis|Agaricus blazei|Agelas linnaei|Aglaia elaeagnoidea|Agrostis epigeios|Ailanthus giraldii|Aizopsis selskiana|Albizia myriophylla|Alchornea cordifolia|Alchornea glandulosa|Alchornea triplinervia|Alexandrium excavatum|Alnus sieboldiana|Alseodaphne corneri|Alsidium corallinum|Alternaria japonica|Amomum daniellii|Amphimedon paraviridis|Amphorogyne spicata|Anacardium humile|Anaphalis lactea|Anchusa azurea|Annona impressivenia|Annulohypoxylon truncatum|Anthotroche myoporoides|Aplidium orthium|Apterostigma dentigerum|Arctostaphylos uva-ursi|Aristolochia elegans|Ascidia ahodori|Aspergillus candidus|Aspergillus falconensis|Aspergillus unguis|Astragalus flexus|Astragalus gummifer|Atalantia wightii|Aulacocephalus temmincki|Axinella weltneri|Bacillus thuringiensis|Balanophora japonica|Balanophora laxiflora|Bauhinia glauca|Beauveria felina|Benincasa hispida|Bersama yangambiensis|Biancaea decapetala|Bipolaris heveae|Bleekeria vitiensis|Brenneria rubrifaciens|Brucea javanica|Bryum pseudotriquetrum|Butea monosperma|Byrsonima crassifolia|Calcarisporium thermophilum|Calodendrum capense|Camellia japonica|Camellia pitardii|Camellia sinensis|Canavalia gladiata|Cardiospermum halicacabum|Carduus tenuiflorus|Carpinus cordata|Caryocar microcarpum|Castanopsis sclerophylla|Castela texana|Castela tortuosa|Casuarina Equisetifolia|Casuarina equisetifolia|Caulerpa peltata|Caulerpa serrulata|Centaurea nigrescens|Centaurea squarrosa|Cephalaria paphlagonica|Ceramium rubrum|Cercidiphyllum japonicum|Cercis chinensis|Chaetomium carinthiacum|Chaiturus marrubiastrum|Championella japonica|Cheniella glauca|Chilo suppressalis|Cirsium japonicum|Cissus discolor|Cissus sicyoides|Cladiella krempfi|Clematis tangutica|Coccinia grandis|Codonopsis pilosula|Colchicum brachyphyllum|Combretum punctatum|Combretum quadrangulare|Commelina communis|Conocephalum japonicum|Conyza canadensis|Cordylanthus kingii|Coreopsis fasciculata|Corydalis persica|Corynanthe pachyceras|Cota tinctoria|Cotinus coggygria|Cotinus obovatus|Cratena peregrina|Crepis foetida|Crinipellis scabella|Crinum defixum|Croton caudatus|Croton celtidifolius|Croton cumingii|Cuphea carthagenensis|Cyberlindnera jadinii|Cymbopogon proximus|Cynoglossum amabile|Cynoglossum germanicum|Cystophora scalaris|Cytinus hypocistis|Cytinus ruber|Dactynotus ambrosiae|Dalbergia lanceolaria subsp. paniculata|Degenia velebitica|Delphinium nuttallianum|Delphinium shawurense|Delphinium virgatum|Dillenia indica|Dioscorea membranacea|Dioscoreophyllum cumminsii|Diospyros lotus|Dipsacus azureus|Dipteracanthus prostratus|Distylium racemosum|Disynaphia halimifolia|Doodia picta|Dorstenia lindeniana|Drynaria quercifolia|Dryopteris polylepis|Dysidea amblia|Ekebergia senegalensis|Elaeagnus formosana|Elaeocarpus fuscoides|Elephantorrhiza goetzei|Epilobium hirsutum|Eragrostis viscosa|Eriogonum umbellatum|Erodium cicutarium|Erodium moschatum|Erythrina vogelii|Erythrophleum ivorense|Eskemukerjea megacarpum|Eucalyptus globulus|Eucalyptus gomphocephala|Eunicella cavolinii|Euonymus atropurpureus|Euonymus verrucosus|Euphorbia ebracteolata|Euphorbia fischeriana|Euphorbia humifusa|Euphorbia hyssopifolia|Euphorbia jolkini|Euphorbia pekinensis|Euphorbia segetalis|Euphorbia teheranica|Euplotes raikovi|Evodia rutaecarpa|Excoecaria agallocha|Fagaropsis glabra|Fagraea gracilipes|Falconeria insignis|Festuca versuta|Forsteronia refracta|Fridericia chica|Fusarium larvarum|Galdieria sulphuraria|Galphimia glauca|Garcinia hombroniana|Garcinia xipshuanbannaensis|Gemmingia chinensis|Geranium finitimum|Geranium niveum|Geranium pratense|Geranium pratense subsp.finitimum (Woronow) Knuth|Glaucium corniculatum|Glechoma grandis|Glechoma longituba|Gleichenia quadripartita|Glycosmis pseudoracemosa|Grangea maderaspatana|Grewia mollis|Gutierrezia lucida|Gymnocarpium robertianum|Haematoxylon brasiletto|Haematoxylon campechianum|Haematoxylum brasiletto|Haematoxylum campechianum|Harpephyllum afrum|Harpephyllum caffrum|Harrisonia perforata|Helenium virginicum|Helichrysum chionosphaerum|Helichrysum graveolens|Heliotropium digynum|Heliotropium floridum|Heterometra savignii|Heterotheca grandiflora|Hovenia acerba|Hygrophorus eburneus|Hypericum caprifoliatum|Hypericum mysorense|Inella verrucosa|Inula grantioides|Iryanthera paraensis|Jacobaea adonidifolia|Jacquemontia paniculata|Jasminum humile|Juglans nigra|Juniperus horizontalis|Kaempferia marginata|Kaunia saltensis|Koelreuteria paniculata|Lactarius camphoratus|Lactococcus lactis|Lagerstroemia Indica|Lagerstroemia indica|Larix decidua|Lathyrus nissolia|Lathyrus tingitanus|Lechevalieria aerocolonigenes|Leontopodium nanum|Leonurus persicus|Lepraria xanthina|Leptocereus quadricostatus|Lespedeza tomentosa|Libidibia ferrea|Limonium axillare|Limonium bicolor|Litsea rotundifolia|Litsea zeylanica|Lupinus corymbosus|Lythrum salicaria|Macaranga barteri|Macaranga tanarius|Macowania glandulosa|Magnolia sieboldii|Mallotus villosus|Mandragora autumnalis|Mangifera indica|Mangifera sp.|Martynia louisiana|Meconopsis horridula|Melaphis chinensis|Melastoma dodecandrum|Metrodorea nigra|Mezoneuron benthamianum|Micromonospora inositola|Mimosa hamata|Modiolus demissus|Morus cathayana|Mosquitoxylum jamaicense|Muntingia calabura|Mycoacia fuscoatra|Myrmica rubra|Nannoglottis ravida|Narcissus concolor|Nauclea officinalis|Neolitsea zeylanica|Nepeta granatensis|Nephthea brassica|Nymphaea alba|Nymphaea ampla|Ocimum tenuiflorum|Oenothera speciosa|Oncoba echinata|Onobrychis arenaria|Oophaga granulifera|Ophiolepis superba|Ormosia balansae|Orostachys fimbriata|Orostachys japonicus|Osbeckia chinensis|Oscillatoria princeps|Ostrea chilensis|Oxera splendida|Ozoroa insignis|Paeonia clusii|Paeonia emodi|Paeonia hybrida|Paeonia lactiflora|Paeonia rockii|Paeonia suffruticosa|Paeonia tenuifolia|Paeonia × suffruticosa|Papilio phorcas|Parabenzoin trilobum|Parastrephia lepidophylla|Pelargonium sidoides|Peltogyne porphyrocardia|Penicillium bilaiae|Penicillium crustaceum|Penicillium kewense|Penicillium shearii|Penstemon secundiflorus|Perenniporia subacida|Petunia integrifolia subsp. inflata|Peucedanum oroselinum|Phanera japonica|Phedimus aizoon|Phedimus kamtschaticus|Phlogacanthus thyrsiflorus|Phormia regina|Photinia serratifolia|Phyllagathis rotundifolia|Phyllanthus emblica|Phyllanthus urinaria|Phyllanthus virgatus|Phyllidia ocellata|Phyllopsora haemophaea|Phytolacca acinosa|Picea rubens|Pinalia stricta|Pinus brutia var. eldarica|Piper arboreum|Pistacia Weinmannifolia|Pistacia weinmannifolia|Pistacia weinmannifolia J.Pisson ex.Franch|Plectosphaerella cucumerina|Plectranthus caninus|Polyalthia insignis|Polycephalomyces nipponicus|Polyporus betulinus|Potentilla erecta|Potentilla tormentilla|Pouzolzia occidentalis|Prunus cerasifera|Pseudeurotium zonatum|Pseudophryne coriacea|Psidium guajava|Pterolobium hexapetalum|Punica Granatum|Punica granatum|Pyrus calleryana|Quercus lusitanica|Quercus robur|Quercus rubra|Ranunculus repens|Ratibida mexicana|Rauvolfia salicifolia|Rheum officinale|Rhizoplaca baranowii|Rhodiola rosea|Rhododendron dahuricum|Rhus chinensis|Rhus coriaria|Rhus glabra|Rhus potaninii|Rhus punjabensis|Rhus typhina|Rhynchophorus ferrugineus|Rhynchosia volubilis|Ribes nigrum|Roboastra tigris|Rosa Multiflora|Rosa multiflora|Rosa pomifera|Rubrivivax gelatinosus|Rubus coreanus|Ruta microcarpa|Ruta pinnata|Salacia fruticosa|Salmonella enterica subsp. enterica serovar bovismorbificans|Salvia dorrii|Salvia greggii|Schinus molle|Schlechtendalia chinensis|Schnella guianensis|Schnella microstachya|Sedum takesimense|Sedum takesimense Nakai|Selinum carvifolium|Senecio behnii|Senecio praecox|Sidastrum acuminatum|Sophora angustifolia|Spatoglossum variabile|Sphaerella rosigena|Stephanitis takeyai|Stevia polycephala|Stevia purpurea|Streptomyces diastatochromogenes|Streptomyces kanamyceticus|Streptomyces parvisporogenes|Strophanthus preussii|Strychnos spinosa|Swartzia madagascariensis|Swintonia foxworthyi|Syncolostemon parviflorus|Syneilesis palmata|Syzygium cumini|Tachigali paniculata|Tachigalia paniculata|Tagetes filifolia|Tamarix nilotica|Tamarix senegalensis|Tanacetum coccineum|Taraxacum mongolicum|Terminalia bellirica|Terminalia chebula|Terminalia myriocarpa|Terminalia superba|Tetradium glabrifolium|Teucrium depressum|Thuja plicata|Thymus piperella|Toona sinensis|Toxicodendron succedaneum|Triadica sebifera|Trichilia rubescens|Triglochin maritima|Turpinia arguta|Uncaria donisii|Urtica triangularis|Vachellia nilotica|Verbascum thapsiforme|Vernicia fordii|Vitex pinnata|Vitis vinifera|Wolfiporia cocos|Zanthoxylum monophyllum|pomegranate

>  <collections>  (1757) 
ANPDB|Australian natural products|BIOFACQUIM|CMAUP (cCollective molecular activities of useful plants)|ChemSpider NPs|ConMedNP|EMNPD|FooDB|GNPS (Global Natural Products Social Molecular Networking)|InterBioScreen Ltd|KNApSaCK|Latin America dataset|Marine Natural Products|NANPDB (Natural Products from Northern African Sources)|NPACT|NPASS|NPCARE|NuBBEDB|Phyto4Health|PhytoLab phyproof® Reference Substances|PubChem NPs|SANCDB|Super Natural II|TCMDB-Taiwan (Traditional Chinese Medicine database)|TCMID (Traditional Chinese Medicine Integrated Database)|TIPdb (database of Taiwan indigenous plants)|UNPD (Universal Natural Products Database)|VietHerb|WikiData Natural Products|ZINC NP

>  <dois>  (1757) 
10.1002/(SICI)1096-9888(199706)32:6<645::AID-JMS518>3.0.CO;2-P|10.1002/(SICI)1099-1573(199702)11:1<22::AID-PTR951>3.0.CO;2-3|10.1002/1521-4184(20008)333:8<275::AID-ARDP275>3.0.CO;2-4|10.1002/ARDP.19582910602|10.1002/CHIN.200412178|10.1002/JCCS.199500128|10.1002/JCCS.200500117|10.1002/PTR.1834|10.1002/PTR.3439|10.1002/PTR.785|10.1007/BF00568650|10.1007/BF00575776|10.1007/BF00597729|10.1007/BF00629750|10.1007/BF01128975|10.1007/BF02273935|10.1007/BF02975503|10.1007/BF02977342|10.1007/S002109900081|10.1007/S10600-005-0050-X|10.1007/S10600-005-0148-1|10.1007/S10600-008-0027-7|10.1007/S10600-011-0015-1|10.1007/S10600-011-0016-0|10.1007/S10600-011-9968-3|10.1007/S10600-019-02638-2|10.1007/S11130-009-0133-0|10.1016/0031-9422(73)85145-3|10.1016/0031-9422(75)80383-9|10.1016/0031-9422(88)80184-5|10.1016/0031-9422(88)80455-2|10.1016/0031-9422(88)80779-9|10.1016/0031-9422(90)80075-R|10.1016/0031-9422(92)83658-L|10.1016/0031-9422(93)85540-8|10.1016/0031-9422(95)00924-8|10.1016/0305-1978(94)90063-9|10.1016/0378-8741(94)90102-3|10.1016/J.BMCL.2011.10.073|10.1016/J.BMCL.2014.03.014|10.1016/J.BMCL.2015.05.089|10.1016/J.CARRES.2010.11.007|10.1016/J.FCT.2004.01.008|10.1016/J.FCT.2007.07.003|10.1016/J.FITOTE.2011.08.020|10.1016/J.FOODCHEM.2020.128444|10.1016/J.JEP.2008.06.005|10.1016/J.PHYMED.2010.10.005|10.1016/J.PHYTOCHEM.2003.10.012|10.1016/J.PHYTOCHEM.2005.02.027|10.1016/J.PHYTOCHEM.2007.02.020|10.1016/J.PHYTOCHEM.2007.05.031|10.1016/J.PHYTOCHEM.2008.02.016|10.1016/J.PHYTOCHEM.2009.07.020|10.1016/J.PHYTOCHEM.2010.03.018|10.1016/J.PHYTOCHEM.2011.01.010|10.1016/S0031-9422(00)00367-8|10.1016/S0031-9422(01)00365-X|10.1016/S0031-9422(02)00435-1|10.1016/S0031-9422(96)00888-6|10.1016/S0031-9422(97)00370-1|10.1016/S0031-9422(98)00667-0|10.1016/S0031-9422(99)00236-8|10.1016/S0040-4039(01)91145-1|10.1016/S0045-6535(98)00565-7|10.1016/S0304-3835(01)00708-X|10.1016/S0305-1978(02)00057-1|10.1016/S0367-326X(99)00068-4|10.1016/S0378-8741(02)00047-8|10.1016/S0944-7113(97)80046-3|10.1016/j.bmcl.2011.10.073|10.1016/j.bmcl.2015.05.089|10.1016/j.foodchem.2020.128444|10.1016/j.jep.2008.06.005|10.1016/j.jep.2013.09.016|10.1021/ACS.JNATPROD.8B00507|10.1021/JF011064B|10.1021/JF100233Y|10.1021/JF9912506|10.1021/NP000292H|10.1021/NP010393V|10.1021/NP020048L|10.1021/NP0200764|10.1021/NP0201063|10.1021/NP50005A014|10.1021/NP50048A040|10.1021/NP50048A056|10.1021/NP8004634|10.1021/NP970336V|10.1021/NP980163P|10.1021/NP980368Y|10.1021/NP980467B|10.1021/NP990581+|10.1021/jf100233y|10.1021/jf101029a|10.1021/np000292h|10.1021/np020048l|10.1021/np0200764|10.1021/np970171q|10.1021/np980467b|10.1055/S-0028-1097641|10.1055/S-0028-1097868|10.1055/S-0028-1099524|10.1055/S-0028-1100049|10.1055/S-2000-8633|10.1055/S-2002-32549|10.1055/S-2006-959635|10.1055/S-2006-960977|10.1055/S-2006-961558|10.1055/S-2006-962094|10.1055/S-2007-967196|10.1055/s-2006-962094|10.1076/1388-0209(200009)3841-AFT284|10.1080/14786410802420457|10.1080/14786419.2010.488625|10.1093/CHROMSCI/BMY030|10.1159/000235378|10.1159/000236088|10.1177/1934578x1000501025|10.1248/BPB.22.647|10.1248/BPB.23.1328|10.1248/BPB.24.1443|10.1248/BPB.24.707|10.1248/CPB.14.877|10.1248/CPB.30.1525|10.1248/CPB.48.1114|10.1248/CPB.48.1771|10.1248/CPB.50.1297|10.1248/CPB.51.1142|10.1248/CPB.55.293|10.1248/CPB.55.57|10.1248/CPB.55.606|10.1248/CPB.57.1089|10.1248/CPB.57.1289|10.1248/YAKUSHI1947.117.12_1028|10.1248/YAKUSHI1947.96.10_1217|10.1515/ZNB-2005-0513|10.1515/ZNC-2001-1-203|10.1515/ZNC-2001-11-1204|10.1515/ZNC-2002-3-406|10.21608/BFSA.1998.67765|10.21608/BFSA.2003.65470|10.3109/13880209509088143|10.3390/MOLECULES14041456|10.3390/MOLECULES15107153|10.3390/MOLECULES23030580|10.3797/SCIPHARM.1409-12|10.38212/2224-6614.2935|10.3987/COM-01-9284|10.3987/COM-11-12275|10.4268/CJCMM20122316|10.5539/JPS.V1N2P61|10.5586/ASBP.1991.011

>  <synonyms>  (1757) 
nan

>  <cas>  (1757) 
99-24-1

$$$$

     RDKit          2D

 23 25  0  0  0  0  0  0  0  0999 V2000
    2.3107    3.1056    0.0000 O   0  0  0  0  0  0  0  0  0  0  0  0
    1.7418    1.7177    0.0000 C   0  0  0  0  0  0  0  0  0  0  0  0
    0.2554    1.5165    0.0000 C   0  0  0  0  0  0  0  0  0  0  0  0
   -0.6622    2.7031    0.0000 O   0  0  0  0  0  0  0  0  0  0  0  0
   -0.3136    0.1285    0.0000 C   0  0  0  0  0  0  0  0  0  0  0  0
   -1.8000   -0.0727    0.0000 C   0  0  0  0  0  0  0  0  0  0  0  0
   -2.7175    1.1139    0.0000 C   0  0  0  0  0  0  0  0  0  0  0  0
   -4.2040    0.9127    0.0000 C   0  0  0  0  0  0  0  0  0  0  0  0
   -5.1215    2.0993    0.0000 O   0  0  0  0  0  0  0  0  0  0  0  0
   -4.7729   -0.4753    0.0000 C   0  0  0  0  0  0  0  0  0  0  0  0
   -6.2593   -0.6765    0.0000 O   0  0  0  0  0  0  0  0  0  0  0  0
   -3.8553   -1.6619    0.0000 C   0  0  0  0  0  0  0  0  0  0  0  0
   -4.4243   -3.0499    0.0000 O   0  0  0  0  0  0  0  0  0  0  0  0
   -2.3689   -1.4607    0.0000 C   0  0  0  0  0  0  0  0  0  0  0  0
    0.6040   -1.0581    0.0000 O   0  0  0  0  0  0  0  0  0  0  0  0
    2.0904   -0.8569    0.0000 C   0  0  0  0  0  0  0  0  0  0  0  0
    3.0079   -2.0435    0.0000 C   0  0  0  0  0  0  0  0  0  0  0  0
    4.4944   -1.8423    0.0000 C   0  0  0  0  0  0  0  0  0  0  0  0
    5.4119   -3.0289    0.0000 O   0  0  0  0  0  0  0  0  0  0  0  0
    5.0633   -0.4543    0.0000 C   0  0  0  0  0  0  0  0  0  0  0  0
    4.1457    0.7323    0.0000 C   0  0  0  0  0  0  0  0  0  0  0  0
    4.7147    2.1203    0.0000 O   0  0  0  0  0  0  0  0  0  0  0  0
    2.6593    0.5311    0.0000 C   0  0  0  0  0  0  0  0  0  0  0  0
  1  2  2  0
  2  3  1  0
  3  4  1  0
  3  5  2  0
  5  6  1  0
  6  7  2  0
  7  8  1  0
  8  9  1  0
  8 10  2  0
 10 11  1  0
 10 12  1  0
 12 13  1  0
 12 14  2  0
  5 15  1  0
 15 16  1  0
 16 17  2  0
 17 18  1  0
 18 19  1  0
 18 20  2  0
 20 21  1  0
 21 22  1  0
 21 23  2  0
 23  2  1  0
 14  6  1  0
 23 16  1  0
M  END
>  <identifier>  (1758) 
CNP0105429.0

>  <canonical_smiles>  (1758) 
O=C1C(O)=C(C2=CC(O)=C(O)C(O)=C2)OC2=CC(O)=CC(O)=C12

>  <standard_inchi>  (1758) 
InChI=1S/C15H10O8/c16-6-3-7(17)11-10(4-6)23-15(14(22)13(11)21)5-1-8(18)12(20)9(19)2-5/h1-4,16-20,22H

>  <standard_inchi_key>  (1758) 
IKMDFBPHZNJCSN-UHFFFAOYSA-N

>  <name>  (1758) 
myricetin

>  <iupac_name>  (1758) 
3,5,7-trihydroxy-2-(3,4,5-trihydroxyphenyl)chromen-4-one

>  <annotation_level>  (1758) 
5

>  <total_atom_count>  (1758) 
33

>  <heavy_atom_count>  (1758) 
23

>  <molecular_weight>  (1758) 
318.24

>  <exact_molecular_weight>  (1758) 
318.03757

>  <molecular_formula>  (1758) 
C15H10O8

>  <alogp>  (1758) 
1.69

>  <topological_polar_surface_area>  (1758) 
151.59

>  <rotatable_bond_count>  (1758) 
1

>  <hydrogen_bond_acceptors>  (1758) 
8

>  <hydrogen_bond_donors>  (1758) 
6

>  <hydrogen_bond_acceptors_lipinski>  (1758) 
8

>  <hydrogen_bond_donors_lipinski>  (1758) 
6

>  <lipinski_rule_of_five_violations>  (1758) 
1

>  <aromatic_rings_count>  (1758) 
3

>  <qed_drug_likeliness>  (1758) 
0.37

>  <formal_charge>  (1758) 
0

>  <fractioncsp3>  (1758) 
0.00

>  <number_of_minimal_rings>  (1758) 
3

>  <van_der_walls_volume>  (1758) 
248.42

>  <contains_sugar>  (1758) 
False

>  <contains_ring_sugars>  (1758) 
False

>  <contains_linear_sugars>  (1758) 
False

>  <murcko_framework>  (1758) 
O1c2ccccc2CC=C1c3ccccc3

>  <np_likeness>  (1758) 
1.70

>  <chemical_class>  (1758) 
Flavonoids

>  <chemical_sub_class>  (1758) 
Flavones

>  <chemical_super_class>  (1758) 
Phenylpropanoids and polyketides

>  <direct_parent_classification>  (1758) 
Flavonols

>  <np_classifier_pathway>  (1758) 
Shikimates and Phenylpropanoids

>  <np_classifier_superclass>  (1758) 
Flavonoids

>  <np_classifier_class>  (1758) 
Flavonols

>  <np_classifier_is_glycoside>  (1758) 
False

>  <organisms>  (1758) 
Aaptos ciliata|Abelmoschus manihot|Abelmoschus moschatus|Abies excelsa|Abies pinsapo var. marocana|Abies spectabilis|Abutilon theophrasti|Acacia adunca|Acacia aroma|Acacia confusa|Acacia cyanophylla|Acacia dealbata|Acacia saligna|Achlya heterosexualis|Aconitum violaceum|Actinidia chinensis|Adiantum lunulatum|Adina sessilifolia|Aeollanthus parvifolius|Aframomum amaniense|Agastache rugosa|Agave gracilipes|Agelas conifera|Agelas linnaei|Aglaia elaeagnoidea|Aguacate|Ajuga genevensis|Albertisia papuana|Alectoria divergens|Aleuroglyphus ovatus|Allium ampeloprasum|Allium cepa|Allium ericetorum|Allium fistulosum|Allium odorum|Allium ramosum|Allium sativum|Allium schoenoprasum|Aloe perryi|Alstonia spathulata|Alternaria japonica|Alternaria macrospora|Althaea sp.|Alyxia reinwardtii|Amaranthus hypochondriacus|Amathia pinnata|Ambrosia tenuifolia|Ampelocera edentula|Ampelopsis grossedentata|Amphilophis odorata|Amyris texana|Anabaena minutissima|Anacystis montana|Ananas comosus|Anethum graveolens|Angelica acutiloba|Angelica lucida|Annona cornifolia|Annona muricata|Apium graveolens|Apium graveolens var. dulce|Aplidium orthium|Apocynum venetum|Apterostigma dentigerum|Arctostaphylos sp.|Ardisia Colorata|Ardisia colorata|Aristolochia elegans|Aristolochia zollingeriana|Armeria maritima|Armoracia rusticana|Arnica mollis|Aronia arbutifolia|Artabotrys blumei|Artabotrys hexapetalus|Artemisia afra|Artemisia assoana|Artemisia biennis|Artemisia klotzchiana|Artemisia pedemontana|Artemisia tournefortiana|Ascidia ahodori|Aspergillus candidus|Aspergillus falconensis|Asterospicularia laurae|Astraeus pteridis|Astragalus asper|Astragalus complanatus|Astragalus gummifer|Astragalus sempervirens|Aulacomnium androgynum|Azadirachta indica|Baeckea frutescens|Balanophora involucrata|Baphia bancoensis|Bartramia pomiformis|Beauveria felina|Beilschmiedia anacardioides|Berberis repens|Bertholletia excelsa|Beta vulgaris|Betula ermanii|Bipolaris oryzae|Bishovia boliviensis|Bitis gabonica|Blastochloris viridis|Bleekeria vitiensis|Boehmeria pannosa|Boronia pinnata|Botrytis cinerea|Brassica carinata|Brassica napus|Brassica oleracea|Brassica oleracea var. botrytis|Brassica oleracea var. sabauda|Brassica oleracea var. viridis|Brassica rapa|Brassica rapa subsp. chinensis|Brenneria rubrifaciens|Brickellia kellermanii|Bridelia ferruginea|Bryonia alba|Bunias orientalis|Byrsonima coccolobifolia|Cacalia floridana|Caesalpinia crista|Calluna sp.|Calostephane divaricata|Camellia sinensis|Capsicum annuum|Caragana aurantiaca|Caragana frutex|Caragana jubata|Caragana spinosa|Cardiospermum halicacabum|Carica papaya|Carpha glomerata|Carya illinoinensis|Cashew|Castanea sp.|Castanea vesca|Catha edulis|Catharanthus roseus|Catunaregam spinosa|Caulerpa serrulata|Cedrus deodara|Cedrus libani|Centaurea linifolia|Centaurea nigrescens|Centaurea squarrosa|Cephalanthus occidentalis|Cephalaria grossheimii|Ceramium rubrum|Ceratonia siliqua|Ceratonia sp.|Ceratostigma willmottianum|Cercidiphyllum japonicum|Cerinthe minor|Chaenomeles sinensis|Chamaecyparis obtusa|Chondropetalum|Chondropetalum paniculatum|Chrysanthemum indicum|Chrysanthemum morifolium|Chrysanthemum ornatum|Chrysosporum ovalisporum|Cinchona pubescens|Cinnamomum tamala|Cirsium carolinianum|Cirsium japonicum|Cistus creticus|Cistus ladanifer|Cistus laurifolius|Citrullus lanatus|Citrus grandis|Citrus limon|Citrus maxima|Citrus medica|Citrus paradisi|Citrus reticulata|Citrus sinensis|Citrus × deliciosa|Citrus × paradisi|Cladiella krempfi|Cleistanthus indochinensis|Clibadium mexiae|Cneoridium dumosum|Coccus ilicis|Cochlospermum sp.|Cocos nucifera|Codonopsis pilosula|Coffea arabica|Coffea canephora|Colocasia esculenta|Conyza canadensis|Corchorus olitorius|Cordia curassavica|Coreopsis fasciculata|Corylus|Corylus avellana|Cosmos pringlei|Cotula cinerea|Cotyledon secunda|Craspidospermum verticillatum|Crepis foetida|Crescentia cujete|Crinum defixum|Crocus sativus|Croton gratissimus|Croton laccifer|Cryptosporium pinicola|Cryptotaenia japonica|Cucumis melo|Cucumis sativus|Cucurbita maxima|Cucurbita moschata|Cuphea carthagenensis|Cupressus sempervirens|Curcuma longa|Curvularia coicis|Cyanostegia angustifolia|Cyberlindnera jadinii|Cyclamen purpurascens|Cydonia|Cyrtomium falcatum|Dacrydium comosum|Dactylorhiza viridis|Daemonorops draco|Dahlstedtia araripensis|Daphne lancifolia|Daphniphyllum paxianum|Daphnopsis macrophylla|Daucus carota|Davidsonia pruriens|Delia paludosa|Delphinium shawurense|Dendrilla cavernosa|Dendrobium wardianum|Derris brevipes|Derris uliginosa|Dichotomaria marginata|Dictyopteris acrostichoides|Dioscorea alata|Dioscorea althaeoides|Dioscorea bulbifera|Dioscorea japonica|Dioscoreophyllum cumminsii|Diospyros glaucifolia|Diospyros japonica|Diospyros lotus|Diospyros virginiana|Diotis maritima|Dipentodon sinicus|Diphasiastrum thyoides|Diploknema butyracea|Diplopterygium glaucum|Discaria serratifolia|Dorstenia lindeniana|Drechslera avenae|Drosera sp.|Dumortiera hirsuta|Dysidea amblia|Ebenaceae|Ehretia dicksonii|Elegia deusta|Elegia microcarpa|Elymus repens|Embelia keniensis|Embelia schimperi|Empetrum nigrum|Endosamara racemosa|Entomophthora virulenta|Epilobium hirsutum|Epilobium sp.|Epipactis palustris|Erica manipuliflora|Erica sp.|Erica verticillata|Erysimum canescens|Erythrina sacleuxii|Eskemukerjea megacarpum|Eskemukerjea megacarpum HARA|Etlingera elatior|Eucalyptus Globulus|Eucalyptus camaldulensis|Eucalyptus globulus|Eucalyptus maideni|Eucalyptus maidenii|Eucalyptus melliodora|Eucalyptus resinifera|Eucalyptus sp.|Eugenia axillaris|Eugenia choapamensis|Eugenia doubledayi|Eugenia hirta|Eugenia jambolana|Eugenia prasina|Eugenia sp.|Eugenia uniflora|Euphorbia lunulata|Euphorbia myrsinites|Euphorbia palustris|Euphorbia segetalis|Euphorbia sp.|Euphorbia stepposa|Euphrasia genargentea|Euplotes raikovi|Eurycoma harmandiana|Excoecaria acerifolia|Fabaceae|Fagopyrum megacarpum|Fagraea gracilipes|Fagus sp.|Fallopia multiflora|Ficus auriculata|Ficus carica|Ficus cordata subsp. salicifolia|Ficus sarmentosa var. thunbergii|Filipendula ulmaria|Foeniculum vulgare|Fomes robiniae|Fomitopsis insularis|Fragaria|Fragaria x ananassa|Fusarium avenaceum|Fusarium oxysporum|Fusarium roseum|Fusarium sacchari|Galium sp.|Ganoderma lucidum|Ganoderma sinense|Garcinia hombroniana|Garcinia xipshuanbannaensis|Gardneria insularis|Garrya laurifolia|Gastrodia elata|Gaultheria leucocarpa var. yunnanensis|Gaultheria yunnanensis|Gaylussacia baccata|Geranium sp.|Ginkgo biloba|Globularia davisiana|Glochidion sphaerogynum|Glycyrrhiza lepidota|Gnetum latifolium|Goniothalamus malayanus|Goupia glabra|Guiera senegalensis|Gutierrezia lucida|Gymnothorax javanicus|Haematomma ventosum|Haematoxylum sp.|Halobacillus litoralis|Halophila johnsonii|Hamamelis sp.|Haplopappus canescens|Hedeoma multiflora|Hedysarum connatum|Helichrysum graveolens|Helicteres angustifolia|Helipterum gnaphaloides|Helipterum roseum|Hibiscus Sabdariffa|Hibiscus sabdariffa|Hibiscus sabdariffa L.|Hibiscus vitifolius|Hippeastrum papilio|Hippocratea excelsa|Hippophae rhamnoides|Homo sapiens|Hovenia dulcis|Hydrophyllum sp.|Hydrophyllum tenuipes|Hydrophyllum virginianum|Hygrophorus chrysodon|Hymenoxys insignis|Hypericum ascyron|Hypericum hirsutum|Hypericum laricifolium|Hypericum montbretii|Hypericum oblongifolium|Hypericum perforatum|Hypericum scabrum|Hypericum sp.|Hypocalyptus sophoroides|Hypsizygus ulmarius|Idea leuconoe|Ideopsis similis|Ilex lepta|Indigofera spicata|Intsia Bijuga|Intsia bijuga|Intsia palembanica|Ipomoea aquatica|Ipomoea batatas|Ipomoea digitata|Ips confusus|Iryanthera paraensis|Isaria felina|Ixeris debilis|Ixeris stolonifera|Jovibarba heuffelii|Juglans mandshurica|Juglans nigra|Juglans regia|Jugo|Justicia hayatai|Justicia paniculata|Kadsura sp.|Khaya ivorensis|Khaya senegalensis|Klattia partita|Koelreuteria henryi|Kunzea ericoides|Lactarius camphoratus|Lactuca sativa|Lafoensia glyptocarpa|Laggera alata|Lagochilus platycalyx|Larix cajanderi|Lasiosiphon kraussianus|Lathyrus aphaca|Lathyrus nissolia|Lathyrus spp.|Laurencia spectabilis|Leathesia nana|Leonurus japonicus|Leonurus persicus|Lepisorus ussuriensis|Lespedeza bicolor|Lespedeza juncea|Lilium brownii|Lilium lancifolium|Lilium pumilum|Limnocharis flava|Limonium aureum|Limonium axillare|Limonium caspium|Limonium gmelini|Limonium gmelinii|Limonium popovii|Limonium sinense|Linaria macroura|Liquidambar formosana|Liquidambar sp.|Lithothamnion corallioides|Litsea rotundifolia|Litsea triflora|Lobophytum durum|Lonchocarpus orotinus|Lotus japonicus|Lotus maritimus|Lotus polyphyllos|Lotus polyphyllus|Luffa aegyptiaca|Lupinus verbasciformis|Lysimachia fordiana|Lysimachia mauritiana|Lysimachia sp.|Macadamia|Machilus macrantha|Madhuca longifolia|Maesa lanceolata|Magnolia sieboldii|Magnolia sprengeri|Malbranchea cinnamomea|Malus domestica|Malus pumila|Mangifera indica|Marasmiellus troyanus|Marine actinobacterium|Marrubium anisodon|Maytenus chuchuhuasha|Medicago Sativa|Medicago arabica|Medicago blancheana|Medicago cancellata|Medicago cretacea|Medicago doliata|Medicago falcata|Medicago glomerata|Medicago glutinosa|Medicago hybrida|Medicago intertexta|Medicago laciniata|Medicago lupulina|Medicago monantha|Medicago monspeliaca|Medicago murex|Medicago nigra|Medicago orbicularis|Medicago orthoceras|Medicago polyceratia|Medicago polymorpha|Medicago radiata|Medicago rotata|Medicago sativa|Medicago scutellata|Medicago truncatula|Medicago turbinata|Medinilla magnifica|Melaleuca ericifolia|Melaleuca quinquenervia|Melaleuca rhaphiophylla|Melaleuca sp.|Melicope pteleifolia|Melilotus italica|Melilotus italicus|Melilotus messanensis|Melilotus officinalis|Melilotus siculus|Melilotus sulcatus|Melilotus wolgicus|Mesua ferrea|Micromelum tephrocarpum|Microtea debilis|Microtropis fokienensis|Millettia ferruginea|Millettia racemosa|Mimosa pudica|Mimusops caffra|Modiolus demissus|Momordica charantia|Monochaetia compta|Monopteryx uaucu|Moquilea pyrifolia|Morella esculenta|Morella nana|Morella rubra|Morinda morindoides|Moringa oleifera|Morus alba|Morus bombycis|Musa|Musa cavendishii|Myrica nagi|Myrica rubra|Myrsine africana|Myrtus sp.|Nageia nagi|Nama hispidum|Nasturtium officinale|Nasutitermes ephratae|Naucleopsis ternstroemiiflora|Nekemias grossedentata|Nelumbo nucifera|Neophaeosphaeria quadriseptata|Nerine bowdenii|Nothofagus antarctica|Nymphaea lotus|Nymphaea odorata|Oenothera speciosa|Onobrychis bobrovii|Oophaga pumilio|Ormosia balansae|Orthosiphon spicatus|Oscillatoria princeps|Oscillochloris trichoides|Osteophloeum platyspermum|Oxycoccus quadripetalis|Oxytropis falcata|Ozoroa insignis|Papaver persicum|Parastrephia lepidophylla|Paronychia kapela|Pastinaca sativa|Patersonia occidentalis|Patersonia sericea|Pedalium murex|Pelargonium reniforme|Pelophylax nigromaculatus|Peltogyne porphyrocardia|Peltophorum africanum|Peltostigma guatemalense|Penicillium herquei|Penicillium paxilli|Penstemon secundiflorus|Pericome caudata|Pestalotiopsis guepinii|Petriella sordida|Petrosedum pruinatum|Petroselinum crispum|Petteria ramentacea|Phaseolus vulgaris|Phedimus aizoon|Phedimus kamtschaticus|Phlogacanthus thyrsiflorus|Phoebe pittieri|Phoenix dactylifera|Phormia regina|Phycopsis terpnis|Physalis peruviana|Phytolacca acinosa|Picea abies|Picea sp.|Pieris napi|Pimenta dioica|Pinguicula vulgaris|Pinus|Pinus brutia|Pinus brutia var. eldarica|Pinus brutia var. pityusa|Pinus contorta|Pinus halepensis|Pinus sp.|Piper arboreum|Piper lanceifolium|Pistacia sp.|Pistacia vera|Pisum sativum|Plantago bellardi|Platanus sp.|Platycladus orientalis|Plinia pennata|Plinia pinnata|Plumeria acutifolia|Podospora curvicolla|Pojarkovia stenocephala|Polygonatum multiflorum|Polygonum aviculare|Polyporus dryadeus|Pongamiopsis pervilleana|Popillia japonica|Populus angustifolia|Porophyllum ruderale|Portulaca oleracea|Potentilla sp.|Pouzolzia occidentalis|Premna odorata|Primula sp.|Prosopis reptans|Prunus armeniaca|Prunus avium|Prunus cerasus|Prunus domestica|Prunus dulcis|Prunus persica|Pseudeurotium zonatum|Pseudoalteromonas luteoviolacea|Pseudodistoma arborescens|Pseudolarix amabilis|Psidium guajava|Ptarmica ptarmicifolia|Pteris dactylina|Pterogyne nitens|Pterolobium hexapetalum|Punica granatum|Pyrostegia venusta|Pyrus communis|Rana amurensis|Ranunculus asiaticus|Raphanus sativus subsp. niger|Raphanus sativus var. sativus|Ratibida mexicana|Rauvolfia vomitoria|Remirea maritima|Resina liquidambaris|Rhododendron abietifolium|Rhododendron acuminatum|Rhododendron aurigeranum|Rhododendron bagobonum|Rhododendron beyerinckianum|Rhododendron brookeanum|Rhododendron buxifolium|Rhododendron christi|Rhododendron christianae|Rhododendron crassifolium|Rhododendron culminicola|Rhododendron culminicolum|Rhododendron dauricum|Rhododendron decorum|Rhododendron dianthosmum|Rhododendron durionifolium|Rhododendron ellipticum|Rhododendron farrerae|Rhododendron gracilentum|Rhododendron hooglandii|Rhododendron inconspicuum|Rhododendron intranervatum|Rhododendron irroratum|Rhododendron jasminiflorum|Rhododendron javanicum|Rhododendron kawakamii|Rhododendron konori|Rhododendron laetum|Rhododendron lanceolatum|Rhododendron latoucheae|Rhododendron ledebourii|Rhododendron leptanthum|Rhododendron leucogigas|Rhododendron luteum|Rhododendron macgregoriae|Rhododendron meijeri|Rhododendron micromalayanum|Rhododendron mucronatum|Rhododendron mucronulatum|Rhododendron nervulosum|Rhododendron nieuwenhuisii|Rhododendron orbiculatum|Rhododendron phaeochitum|Rhododendron planecostatum|Rhododendron pneumonanthum|Rhododendron polyanthemum|Rhododendron praetervisum|Rhododendron rarum|Rhododendron retusum|Rhododendron robinsonii|Rhododendron rugosum|Rhododendron searleanum|Rhododendron sichotense|Rhododendron sp.|Rhododendron spinuliferum|Rhododendron stapfianum|Rhododendron stenophyllum|Rhododendron suaveolens|Rhododendron superbum|Rhododendron vandeursenii|Rhododendron womersleyi|Rhododendron wrightianum|Rhododendron yelliottii|Rhododendron zoelleri|Rhus coriaria|Rhus parviflora|Rhus sp.|Rhus wallichi|Ribes alpinum|Ribes nigrum|Ribes rubrum|Ribes sp.|Ribes uva-crispa|Roboastra tigris|Rubus|Rubus idaeus|Rumex maritimus|Rumex obtusifolius|Ruta microcarpa|Sabina sargentii|Salix pantosericea|Salix sachalinensis|Salvia officinalis|Salvia syriaca|Sargassum muticum|Sargassum thunbergii|Sasa paniculata|Savoy cabbage|Schinus sp.|Schizophyllum lobatum|Scilla maritima|Sclerocarya birrea|Scutellaria amoena|Searsia dregeana|Searsia lancea|Sedum album|Sedum anglicum|Sedum brevifolium|Sedum crassularia|Sedum euxinum|Sedum farinosum|Sedum forsteri|Sedum forsterianum|Sedum grisebachii|Sedum laconicum|Sedum litoreum|Sedum meyeri-johannis|Sedum montanum|Sedum multiceps|Sedum ochroleucum|Sedum rupestre|Sedum sediforme|Sedum sexangulare|Sedum takesimense|Sedum takesimense Nakai|Sedum ursi|Selinum carvifolium|Semecarpus vitiensis|Sempervivum altum|Sempervivum arachnoideum|Sempervivum atlanticum|Sempervivum borissovae|Sempervivum calcareum|Sempervivum caucasicum|Sempervivum ciliosum|Sempervivum dzhavachischvilii|Sempervivum furseorum|Sempervivum grandiflorum|Sempervivum ingwersenii|Sempervivum kindingeri|Sempervivum leucanthum|Sempervivum marmoreum|Sempervivum montanum|Sempervivum ossetiense|Sempervivum pumilum|Sempervivum tectorum|Sempervivum thompsonianum|Senecio cathcartensis|Senecio renardii|Senecio viscosus|Senna siamea|Sequoia sempervirens|Serratula inermis|Sesbania bispinosa|Sextonia rubra|Shuteria vestita|Sidastrum acuminatum|Siegesbeckia pubescens|Sigesbeckia glabrescens|Silene tatarica|Sinapis alba|Sinularia depressa|Sinularia molesta|Smallanthus sonchifolius|Solanum lanceolatum|Solanum laxum|Solanum lycopersicum|Solanum melongena|Solanum nigrum|Solanum tuberosum|Solidago serotina|Sorbaria sorbifolia|Soymida febrifuga|Spinacia oleracea|Spongia cerebriformis|Streptomyces albidoflavus|Streptomyces albus|Streptomyces avermectinius|Streptomyces coelicolor|Streptomyces matensis|Streptomyces paulus|Streptomyces sp. KCTC 0041BP|Streptomyces sparsogenes|Strophanthus kombe|Swertia franchetiana|Symplocos lancifolia|Syncolostemon parviflorus|Syzygium Cumini|Syzygium Samarangense|Syzygium aromaticum|Syzygium cumini|Syzygium grande|Syzygium jambos|Syzygium samarangense|Syzygium sp.|Taraxacum bicorne|Taraxacum borealisinense|Taraxacum coreanum|Taraxacum mongolicum|Taraxacum officinale|Taraxacum platycarpum|Tarenaya spinosa|Tephrosia elata|Teucrium asiaticum|Thalictrum filamentosum|Thermopsis dolichocarpa|Thuja orientalis|Thuja plicata|Thuja sp.|Thymus vulgaris|Tiarella trifoliata|Toddalia floribunda|Toxicodendron succedaneum|Toxicodendron wallichii|Triaenophora rupestris|Trichosanthes rosthornii|Tridachia crispata|Trididemnum cyanophorum|Trifolium Repens|Trifolium repens|Trifolium strepens|Triglochin maritima|Trigonella balansae|Trigonella calliceras|Trigonella corniculata|Trigonella cretica|Trigonella geminiflora|Trikentrion flabelliforme|Turbinaria ornata|Turnera angustifolia|Urtica triangularis|Uvaria littoralis|Uvaria macrophylla|Vaccinium alaskaense|Vaccinium angustifolium|Vaccinium corymbosum|Vaccinium deliciosum|Vaccinium macrocarpon|Vaccinium myrtillus|Vaccinium ovalifolium|Vaccinium ovatum|Vaccinium oxycoccos|Vaccinium parvifolium|Vaccinium sp.|Vaccinium uliginosum|Vaccinium vitis-idaea|Vachellia aroma|Valeriana fedtschenkoi|Vellozia epidendroides|Vernonia hirsuta|Veronica arvensis|Viburnum erubescens|Vicia Faba|Vicia amurensis|Vicia bithynica|Vicia faba|Vicia johannis|Vigna unguiculata|Viguiera incana|Vincetoxicum sp.|Virola multinervia|Viscaria viscosa|Visnea mocanera|Vitellaria paradoxa|Vitis riparia|Vitis vinifera|Vitis vulpina|Warburgia ugandensis|Welsh onion|Wikstroemia retusa|Wikstroemia viridiflora|Witsenia maura|Wyethia mollis|Xanthoceras sorbifolia|Xanthoceras sorbifolia Bunge|Xanthoceras sorbifolium|Xanthorhiza simplicissima|Xylaria cubensis|Zanthoxylum fagara|Zanthoxylum fraxineum|Zanthoxylum monophyllum|Zanthoxylum tetraspermum|Ziziphus jujuba|asparagus|bog bilberry|broad bean|broccoli|byrsonima coccolobifolia|clove|common myrtle|dragon's teeth|gai lan|garlic|kohlrabi|lettuce|microtea debilis|moringa|parsley|peanut|pomegranate|pomelo|potato|tomato

>  <collections>  (1758) 
ANPDB|AnalytiCon Discovery NPs|Australian natural products|BitterDB|CMAUP (cCollective molecular activities of useful plants)|ChEBI NPs|ChemSpider NPs|ConMedNP|DrugBankNP|ETM (Ethiopian Traditional Medicine) DB|FooDB|GNPS (Global Natural Products Social Molecular Networking)|HIM (Herbal Ingredients in-vivo Metabolism database)|HIT (Herbal Ingredients Targets)|InflamNat|KNApSaCK|Latin America dataset|Mitishamba database|NANPDB (Natural Products from Northern African Sources)|NAPRORE-CR|NPASS|NPCARE|NPEdia|NuBBEDB|PeruNPDB|Phenol-explorer|Phyto4Health|PhytoLab phyproof® Reference Substances|PubChem NPs|ReSpect|StreptomeDB|Super Natural II|TCMDB-Taiwan (Traditional Chinese Medicine database)|TCMID (Traditional Chinese Medicine Integrated Database)|TIPdb (database of Taiwan indigenous plants)|UNPD (Universal Natural Products Database)|VietHerb|Watermelon|WikiData Natural Products

>  <dois>  (1758) 
10.1002/(SICI)1096-9888(199706)32:6<645::AID-JMS518>3.0.CO;2-P|10.1002/(SICI)1097-0010(200004)80:5<561::AID-JSFA574>3.0.CO;2-|10.1002/1521-4184(20008)333:8<275::AID-ARDP275>3.0.CO;2-4|10.1002/CHIN.200117207|10.1002/CHIN.200317212|10.1002/CHIN.200352233|10.1002/CJOC.201180280|10.1002/ELPS.201300646|10.1002/J.1537-2197.1979.TB06321.X|10.1002/JSFA.1820|10.1002/JSFA.955|10.1002/JSSC.200500003|10.1002/PTR.1628|10.1007/0-387-28822-8_8|10.1007/BF00381261|10.1007/BF00563831|10.1007/BF00565207|10.1007/BF00566808|10.1007/BF00566809|10.1007/BF00568230|10.1007/BF00576105|10.1007/BF00579788|10.1007/BF00580083|10.1007/BF00597817|10.1007/BF00598319|10.1007/BF00636587|10.1007/BF00683855|10.1007/BF00779271|10.1007/BF01012523|10.1007/BF01374035|10.1007/BF02257318|10.1007/BF02275745|10.1007/BF02311521|10.1007/BF02329610|10.1007/BF02899003|10.1007/BF02976598|10.1007/S002160100898|10.1007/S10529-015-1825-1|10.1007/S10600-005-0012-3|10.1007/S10600-005-0148-1|10.1007/S10600-006-0089-3|10.1007/S10600-008-0028-6|10.1007/S10600-008-9091-2|10.1007/S10600-009-9245-X|10.1007/S10600-009-9291-4|10.1007/S10600-009-9410-2|10.1007/S10600-011-0025-Z|10.1007/S10600-011-0040-0|10.1007/S10600-012-0124-5|10.1007/S10600-017-2124-Y|10.1007/S11130-009-0133-0|10.1007/S11130-011-0236-2|10.1007/S11240-014-0506-4|10.1007/S11746-002-0542-2|10.1007/S12272-009-1408-6|10.1007/SPRINGERREFERENCE_68290|10.1016/0021-9673(92)85026-P|10.1016/0031-6865(96)00009-X|10.1016/0031-9422(73)80461-3|10.1016/0031-9422(73)80517-5|10.1016/0031-9422(73)85143-X|10.1016/0031-9422(77)83041-0|10.1016/0031-9422(89)80141-4|10.1016/0031-9422(92)80128-2|10.1016/0031-9422(92)80355-I|10.1016/0031-9422(93)85448-Z|10.1016/0031-9422(94)00905-9|10.1016/0031-9422(95)00383-I|10.1016/0031-9422(95)00573-0|10.1016/0305-1978(75)90037-X|10.1016/0305-1978(82)90020-5|10.1016/0305-1978(87)90085-8|10.1016/0305-1978(91)90115-G|10.1016/0305-1978(92)90062-I|10.1016/0305-1978(95)97456-7|10.1016/0378-8741(87)90128-0|10.1016/0734-9750(93)90042-L|10.1016/J.BSE.2016.02.030|10.1016/J.ENZMICTEC.2018.02.007|10.1016/J.FITOTE.2009.07.003|10.1016/J.FITOTE.2009.09.013|10.1016/J.FOODCHEM.2005.02.007|10.1016/J.FOODCHEM.2007.08.038|10.1016/J.FOODCHEM.2019.125629|10.1016/J.FOODRES.2004.10.005|10.1016/J.FOODRES.2017.03.019|10.1016/J.JFCA.2003.09.010|10.1016/J.LWT.2018.02.024|10.1016/J.PHYMED.2006.11.021|10.1016/J.PHYTOCHEM.2007.03.010|10.1016/J.PHYTOCHEM.2007.05.031|10.1016/J.PHYTOCHEM.2007.06.017|10.1016/J.PHYTOCHEM.2008.07.007|10.1016/J.PLAPHY.2015.04.008|10.1016/S0021-9673(00)01030-X|10.1016/S0021-9673(01)00598-2|10.1016/S0021-9673(01)81355-8|10.1016/S0021-9673(97)01061-3|10.1016/S0031-9422(00)80124-7|10.1016/S0031-9422(00)81226-1|10.1016/S0031-9422(00)83456-1|10.1016/S0031-9422(00)83536-0|10.1016/S0031-9422(00)85849-5|10.1016/S0031-9422(00)88569-6|10.1016/S0031-9422(00)89780-0|10.1016/S0031-9422(00)90058-X|10.1016/S0031-9422(00)90500-4|10.1016/S0031-9422(00)94254-7|10.1016/S0031-9422(00)97768-9|10.1016/S0031-9422(00)98014-2|10.1016/S0031-9422(01)00365-X|10.1016/S0031-9422(02)00483-1|10.1016/S0031-9422(02)00666-0|10.1016/S0031-9422(03)00238-3|10.1016/S0031-9422(03)00374-1|10.1016/S0031-9422(96)00329-9|10.1016/S0031-9422(96)00706-6|10.1016/S0031-9422(96)00745-5|10.1016/S0031-9422(97)00370-1|10.1016/S0041-0101(97)00032-9|10.1016/S0305-1978(01)00086-2|10.1016/S0305-1978(97)00049-5|10.1016/S0305-1978(97)00092-6|10.1016/S0305-1978(98)00019-2|10.1016/S0308-8146(00)00091-1|10.1016/S0367-326X(02)00009-6|10.1016/S0963-9969(00)00086-7|10.1016/S0963-9969(00)00156-3|10.1016/S0963-9969(99)00095-2|10.1016/S2221-1691(12)60050-1|10.1016/j.enzmictec.2018.02.007|10.1017/S0007114511004272|10.1021/ACS.JNATPROD.6B00839|10.1021/JF00024A011|10.1021/JF00032A015|10.1021/JF00052A008|10.1021/JF00062A017|10.1021/JF000661F|10.1021/JF00070A001|10.1021/JF0010228|10.1021/JF011682S|10.1021/JF0202234|10.1021/JF025781X|10.1021/JF0307595|10.1021/JF061478A|10.1021/JF0620968|10.1021/JF900695S|10.1021/JF9505335|10.1021/JF960339Y|10.1021/JF9909757|10.1021/JF991274C|10.1021/NP000005+|10.1021/NP020442J|10.1021/NP040024+|10.1021/NP0501031|10.1021/NP0705615|10.1021/NP300212C|10.1021/NP400717M|10.1021/NP50021A021|10.1021/NP50045A034|10.1021/NP50103A006|10.1021/NP50121A012|10.1021/NP900530N|10.1021/NP960451Q|10.1021/NP970025K|10.1021/NP970044U|10.1021/NP980469W|10.1021/NP9902441|10.1021/NP990482W|10.1023/B:CONC.0000033945.16862.19|10.1038/SREP31361|10.1039/CT8966901287|10.1039/CT8966901299|10.1039/CT9028100585|10.1039/CT9028101160|10.1055/S-0028-1097578|10.1055/S-0028-1099955|10.1055/S-0031-1282668|10.1055/S-0035-1545201|10.1055/S-1999-14059|10.1055/S-2000-8540|10.1055/S-2000-8547|10.1055/S-2002-35657|10.1055/S-2004-835859|10.1055/S-2005-871266|10.1055/S-2006-957860|10.1055/S-2006-957919|10.1055/S-2007-969308|10.1055/S-2007-979339|10.1055/S-2007-979340|10.1055/S-2007-981577|10.1071/ch9640428|10.1076/PHBI.37.1.28.6327|10.1080/09168451.2016.1171697|10.1080/09637486.2017.1418845|10.1080/10408390802145377|10.1080/14786419.2010.516749|10.1080/14786419.2017.1278596|10.1081/JLC-100100418|10.1089/JMF.2007.571|10.1093/pcp/pcn183|10.1104/PP.106.078428|10.1104/PP.69.2.522|10.1111/J.1365-2621.1986.TB11220.X|10.1111/J.1469-8137.1960.TB06211.X|10.1139/B88-058|10.1139/B89-200|10.1211/0022357011775893|10.1248/BPB.18.1148|10.1248/BPB.20.381|10.1248/BPB.24.259|10.1248/BPB.25.1241|10.1248/CPB.49.768|10.1248/CPB.50.1484|10.1248/CPB.50.208|10.1248/CPB.54.136|10.1248/CPB.54.435|10.1248/CPB.58.1408|10.1248/CPB.58.1646|10.1371/JOURNAL.PONE.0207278|10.1371/JOURNAL.PONE.0219973|10.1371/journal.pone.0207278|10.14233/AJCHEM.2014.16143A|10.1508/CYTOLOGIA.26.213|10.1515/ZNC-1985-5-608|10.1515/ZNC-1997-7-817|10.1515/ZNC-2001-9-1012|10.1556/AALIM.29.2000.4.4|10.1556/AALIM.31.2002.1.7|10.21548/25-2-2143|10.2307/1222144|10.3109/13880209109082884|10.3109/13880209409083017|10.3184/030823409X447754|10.3390/MOLECULES14041456|10.3390/MOLECULES15096244|10.3390/MOLECULES16108305|10.3390/MOLECULES22101606|10.3390/molecules27134238|10.3923/rjphyto.2011.22.31|10.3987/COM-03-9882|10.3987/COM-11-12354|10.3987/COM-90-5425|10.3998/ARK.5550190.0012.214|10.5040/9781474215718.CH-010|10.5344/AJEV.1996.47.2.186|10.5530/phrev.2020.14.7|10.5586/ASBP.1991.010|10.5897/AJB08.883

>  <synonyms>  (1758) 
nan

>  <cas>  (1758) 
529-44-2|Myricetin - CAS 529-44-2

$$$$

     RDKit          2D

 36 38  0  0  0  0  0  0  0  0999 V2000
    2.2354   -7.1469    0.0000 C   0  0  0  0  0  0  0  0  0  0  0  0
    3.0069   -5.8605    0.0000 O   0  0  0  0  0  0  0  0  0  0  0  0
    2.2787   -4.5492    0.0000 C   0  0  0  0  0  0  0  0  0  0  0  0
    0.7789   -4.5242    0.0000 C   0  0  0  0  0  0  0  0  0  0  0  0
    0.0506   -3.2128    0.0000 C   0  0  0  0  0  0  0  0  0  0  0  0
    0.8222   -1.9264    0.0000 C   0  0  0  0  0  0  0  0  0  0  0  0
    2.3220   -1.9514    0.0000 C   0  0  0  0  0  0  0  0  0  0  0  0
    3.0502   -3.2628    0.0000 C   0  0  0  0  0  0  0  0  0  0  0  0
    4.5500   -3.2878    0.0000 O   0  0  0  0  0  0  0  0  0  0  0  0
    5.3215   -2.0014    0.0000 C   0  0  0  0  0  0  0  0  0  0  0  0
    0.0939   -0.6151    0.0000 C   0  0  0  0  0  0  0  0  0  0  0  0
    0.8655    0.6713    0.0000 C   0  0  0  0  0  0  0  0  0  0  0  0
    2.3653    0.6463    0.0000 C   0  0  0  0  0  0  0  0  0  0  0  0
    3.1368    1.9326    0.0000 C   0  0  0  0  0  0  0  0  0  0  0  0
    2.4086    3.2440    0.0000 C   0  0  0  0  0  0  0  0  0  0  0  0
    3.1801    4.5303    0.0000 O   0  0  0  0  0  0  0  0  0  0  0  0
    4.6799    4.5053    0.0000 C   0  0  0  0  0  0  0  0  0  0  0  0
    5.4515    5.7917    0.0000 C   0  0  0  0  0  0  0  0  0  0  0  0
    5.4082    3.1940    0.0000 O   0  0  0  0  0  0  0  0  0  0  0  0
    0.9088    3.2690    0.0000 C   0  0  0  0  0  0  0  0  0  0  0  0
    0.1805    4.5803    0.0000 O   0  0  0  0  0  0  0  0  0  0  0  0
   -1.3193    4.6053    0.0000 C   0  0  0  0  0  0  0  0  0  0  0  0
    0.1372    1.9826    0.0000 C   0  0  0  0  0  0  0  0  0  0  0  0
   -1.4059   -0.5901    0.0000 C   0  0  0  0  0  0  0  0  0  0  0  0
   -2.1341    0.7213    0.0000 C   0  0  0  0  0  0  0  0  0  0  0  0
   -3.6339    0.7463    0.0000 O   0  0  0  0  0  0  0  0  0  0  0  0
   -4.3621    2.0576    0.0000 C   0  0  0  0  0  0  0  0  0  0  0  0
   -5.8619    2.0826    0.0000 C   0  0  0  0  0  0  0  0  0  0  0  0
   -3.5906    3.3440    0.0000 O   0  0  0  0  0  0  0  0  0  0  0  0
   -2.1774   -1.8764    0.0000 C   0  0  0  0  0  0  0  0  0  0  0  0
   -3.6772   -1.8514    0.0000 C   0  0  0  0  0  0  0  0  0  0  0  0
   -4.4054   -0.5401    0.0000 O   0  0  0  0  0  0  0  0  0  0  0  0
   -5.9052   -0.5151    0.0000 C   0  0  0  0  0  0  0  0  0  0  0  0
   -6.6335    0.7963    0.0000 C   0  0  0  0  0  0  0  0  0  0  0  0
   -6.6768   -1.8014    0.0000 O   0  0  0  0  0  0  0  0  0  0  0  0
   -1.4492   -3.1878    0.0000 C   0  0  0  0  0  0  0  0  0  0  0  0
  1  2  1  0
  2  3  1  0
  3  4  2  0
  4  5  1  0
  5  6  2  0
  6  7  1  0
  7  8  2  0
  8  9  1  0
  9 10  1  0
  6 11  1  0
 11 12  1  1
 12 13  2  0
 13 14  1  0
 14 15  2  0
 15 16  1  0
 16 17  1  0
 17 18  1  0
 17 19  2  0
 15 20  1  0
 20 21  1  0
 21 22  1  0
 20 23  2  0
 11 24  1  0
 24 25  1  6
 25 26  1  0
 26 27  1  0
 27 28  1  0
 27 29  2  0
 24 30  1  0
 30 31  1  1
 31 32  1  0
 32 33  1  0
 33 34  1  0
 33 35  2  0
 30 36  1  0
  8  3  1  0
 23 12  1  0
 36  5  1  0
M  END
>  <identifier>  (1759) 
CNP0080385.1

>  <canonical_smiles>  (1759) 
COC1=CC2=C(C=C1OC)[C@H](C1=CC=C(OC(C)=O)C(OC)=C1)[C@@H](COC(C)=O)[C@H](COC(C)=O)C2

>  <standard_inchi>  (1759) 
InChI=1S/C27H32O9/c1-15(28)34-13-20-9-19-11-25(32-5)26(33-6)12-21(19)27(22(20)14-35-16(2)29)18-7-8-23(36-17(3)30)24(10-18)31-4/h7-8,10-12,20,22,27H,9,13-14H2,1-6H3/t20-,22-,27-/m0/s1

>  <standard_inchi_key>  (1759) 
KMNIDUTWKKDKSD-CLHVYKLBSA-N

>  <name>  (1759) 
nan

>  <iupac_name>  (1759) 
[(2~{R},3~{R},4~{S})-4-(4-acetoxy-3-methoxy-phenyl)-3-(acetoxymethyl)-6,7-dimethoxy-tetralin-2-yl]methyl acetate

>  <annotation_level>  (1759) 
4

>  <total_atom_count>  (1759) 
68

>  <heavy_atom_count>  (1759) 
36

>  <molecular_weight>  (1759) 
500.54

>  <exact_molecular_weight>  (1759) 
500.20463

>  <molecular_formula>  (1759) 
C27H32O9

>  <alogp>  (1759) 
3.68

>  <topological_polar_surface_area>  (1759) 
106.59

>  <rotatable_bond_count>  (1759) 
9

>  <hydrogen_bond_acceptors>  (1759) 
9

>  <hydrogen_bond_donors>  (1759) 
0

>  <hydrogen_bond_acceptors_lipinski>  (1759) 
9

>  <hydrogen_bond_donors_lipinski>  (1759) 
0

>  <lipinski_rule_of_five_violations>  (1759) 
1

>  <aromatic_rings_count>  (1759) 
2

>  <qed_drug_likeliness>  (1759) 
0.38

>  <formal_charge>  (1759) 
0

>  <fractioncsp3>  (1759) 
0.44

>  <number_of_minimal_rings>  (1759) 
3

>  <van_der_walls_volume>  (1759) 
nan

>  <contains_sugar>  (1759) 
False

>  <contains_ring_sugars>  (1759) 
False

>  <contains_linear_sugars>  (1759) 
False

>  <murcko_framework>  (1759) 
c1ccc(cc1)C2c3ccccc3CCC2

>  <np_likeness>  (1759) 
1.11

>  <chemical_class>  (1759) 
Aryltetralin lignans

>  <chemical_sub_class>  (1759) 
Aryltetralin lignans

>  <chemical_super_class>  (1759) 
Lignans, neolignans and related compounds

>  <direct_parent_classification>  (1759) 
Aryltetralin lignans

>  <np_classifier_pathway>  (1759) 
Shikimates and Phenylpropanoids

>  <np_classifier_superclass>  (1759) 
Lignans

>  <np_classifier_class>  (1759) 
Arylnaphthalene and aryltetralin lignans

>  <np_classifier_is_glycoside>  (1759) 
False

>  <organisms>  (1759) 
Araucaria angustifolia

>  <collections>  (1759) 
Latin America dataset|NuBBEDB|WikiData Natural Products|ZINC NP

>  <dois>  (1759) 
10.1016/S0031-9422(00)89347-4

>  <synonyms>  (1759) 
isolariciresinol-4'-methylether triacetate

>  <cas>  (1759) 
nan

$$$$

     RDKit          2D

 15 14  0  0  0  0  0  0  0  0999 V2000
   -9.0933   -0.3500    0.0000 C   0  0  0  0  0  0  0  0  0  0  0  0
   -7.7942    0.4000    0.0000 O   0  0  0  0  0  0  0  0  0  0  0  0
   -6.4952   -0.3500    0.0000 O   0  0  0  0  0  0  0  0  0  0  0  0
   -5.1962    0.4000    0.0000 C   0  0  0  0  0  0  0  0  0  0  0  0
   -3.8971   -0.3500    0.0000 C   0  0  0  0  0  0  0  0  0  0  0  0
   -2.5981    0.4000    0.0000 C   0  0  0  0  0  0  0  0  0  0  0  0
   -1.2990   -0.3500    0.0000 C   0  0  0  0  0  0  0  0  0  0  0  0
    0.0000    0.4000    0.0000 C   0  0  0  0  0  0  0  0  0  0  0  0
    1.2990   -0.3500    0.0000 C   0  0  0  0  0  0  0  0  0  0  0  0
    2.5981    0.4000    0.0000 C   0  0  0  0  0  0  0  0  0  0  0  0
    3.8971   -0.3500    0.0000 C   0  0  0  0  0  0  0  0  0  0  0  0
    5.1962    0.4000    0.0000 C   0  0  0  0  0  0  0  0  0  0  0  0
    6.4952   -0.3500    0.0000 O   0  0  0  0  0  0  0  0  0  0  0  0
    7.7942    0.4000    0.0000 O   0  0  0  0  0  0  0  0  0  0  0  0
    9.0933   -0.3500    0.0000 C   0  0  0  0  0  0  0  0  0  0  0  0
  1  2  1  0
  2  3  1  0
  3  4  1  0
  4  5  1  0
  5  6  1  0
  6  7  1  0
  7  8  1  0
  8  9  1  0
  9 10  1  0
 10 11  1  0
 11 12  1  0
 12 13  1  0
 13 14  1  0
 14 15  1  0
M  END
>  <identifier>  (1760) 
CNP0080398.0

>  <canonical_smiles>  (1760) 
COOCCCCCCCCCOOC

>  <standard_inchi>  (1760) 
InChI=1S/C11H24O4/c1-12-14-10-8-6-4-3-5-7-9-11-15-13-2/h3-11H2,1-2H3

>  <standard_inchi_key>  (1760) 
VZDQIAQTIXINMV-UHFFFAOYSA-N

>  <name>  (1760) 
nan

>  <iupac_name>  (1760) 
1,9-bis(methylperoxy)nonane

>  <annotation_level>  (1760) 
3

>  <total_atom_count>  (1760) 
39

>  <heavy_atom_count>  (1760) 
15

>  <molecular_weight>  (1760) 
220.31

>  <exact_molecular_weight>  (1760) 
220.16746

>  <molecular_formula>  (1760) 
C11H24O4

>  <alogp>  (1760) 
2.87

>  <topological_polar_surface_area>  (1760) 
36.92

>  <rotatable_bond_count>  (1760) 
12

>  <hydrogen_bond_acceptors>  (1760) 
4

>  <hydrogen_bond_donors>  (1760) 
0

>  <hydrogen_bond_acceptors_lipinski>  (1760) 
4

>  <hydrogen_bond_donors_lipinski>  (1760) 
0

>  <lipinski_rule_of_five_violations>  (1760) 
0

>  <aromatic_rings_count>  (1760) 
0

>  <qed_drug_likeliness>  (1760) 
0.29

>  <formal_charge>  (1760) 
0

>  <fractioncsp3>  (1760) 
1.00

>  <number_of_minimal_rings>  (1760) 
0

>  <van_der_walls_volume>  (1760) 
nan

>  <contains_sugar>  (1760) 
False

>  <contains_ring_sugars>  (1760) 
False

>  <contains_linear_sugars>  (1760) 
False

>  <murcko_framework>  (1760) 
nan

>  <np_likeness>  (1760) 
0.72

>  <chemical_class>  (1760) 
Organic oxides

>  <chemical_sub_class>  (1760) 
Organic peroxides

>  <chemical_super_class>  (1760) 
Organic oxygen compounds

>  <direct_parent_classification>  (1760) 
Dialkyl peroxides

>  <np_classifier_pathway>  (1760) 
Fatty acids

>  <np_classifier_superclass>  (1760) 
Fatty Acids and Conjugates

>  <np_classifier_class>  (1760) 
Hydroperoxy fatty acids

>  <np_classifier_is_glycoside>  (1760) 
False

>  <organisms>  (1760) 
Nectandra rubra|Sextonia rubra

>  <collections>  (1760) 
Latin America dataset|NuBBEDB|WikiData Natural Products|ZINC NP

>  <dois>  (1760) 
10.1016/S0031-9422(00)86797-7

>  <synonyms>  (1760) 
nan

>  <cas>  (1760) 
nan

$$$$

     RDKit          2D

 11 11  0  0  0  0  0  0  0  0999 V2000
   -5.7833    0.6272    0.0000 C   0  0  0  0  0  0  0  0  0  0  0  0
   -4.5858   -0.2762    0.0000 C   0  0  0  0  0  0  0  0  0  0  0  0
   -3.2047    0.3092    0.0000 C   0  0  0  0  0  0  0  0  0  0  0  0
   -2.0072   -0.5942    0.0000 C   0  0  0  0  0  0  0  0  0  0  0  0
   -0.6262   -0.0089    0.0000 C   0  0  0  0  0  0  0  0  0  0  0  0
    0.5713   -0.9122    0.0000 C   0  0  0  0  0  0  0  0  0  0  0  0
    1.9524   -0.3269    0.0000 C   0  0  0  0  0  0  0  0  0  0  0  0
    3.2377   -1.1001    0.0000 C   0  0  0  0  0  0  0  0  0  0  0  0
    4.3703   -0.1167    0.0000 C   0  0  0  0  0  0  0  0  0  0  0  0
    3.7849    1.2644    0.0000 C   0  0  0  0  0  0  0  0  0  0  0  0
    2.2906    1.1345    0.0000 C   0  0  0  0  0  0  0  0  0  0  0  0
  1  2  1  0
  2  3  1  0
  3  4  1  0
  4  5  1  0
  5  6  1  0
  6  7  1  0
  7  8  1  0
  8  9  1  0
  9 10  1  0
 10 11  1  0
 11  7  1  0
M  END
>  <identifier>  (1761) 
CNP0324091.0

>  <canonical_smiles>  (1761) 
CCCCCCC1CCCC1

>  <standard_inchi>  (1761) 
InChI=1S/C11H22/c1-2-3-4-5-8-11-9-6-7-10-11/h11H,2-10H2,1H3

>  <standard_inchi_key>  (1761) 
LKHGKBBAJAFMSQ-UHFFFAOYSA-N

>  <name>  (1761) 
Hexylcyclopentane

>  <iupac_name>  (1761) 
hexylcyclopentane

>  <annotation_level>  (1761) 
5

>  <total_atom_count>  (1761) 
33

>  <heavy_atom_count>  (1761) 
11

>  <molecular_weight>  (1761) 
154.3

>  <exact_molecular_weight>  (1761) 
154.17215

>  <molecular_formula>  (1761) 
C11H22

>  <alogp>  (1761) 
4.15

>  <topological_polar_surface_area>  (1761) 
0.00

>  <rotatable_bond_count>  (1761) 
5

>  <hydrogen_bond_acceptors>  (1761) 
0

>  <hydrogen_bond_donors>  (1761) 
0

>  <hydrogen_bond_acceptors_lipinski>  (1761) 
0

>  <hydrogen_bond_donors_lipinski>  (1761) 
0

>  <lipinski_rule_of_five_violations>  (1761) 
0

>  <aromatic_rings_count>  (1761) 
0

>  <qed_drug_likeliness>  (1761) 
0.52

>  <formal_charge>  (1761) 
0

>  <fractioncsp3>  (1761) 
1.00

>  <number_of_minimal_rings>  (1761) 
1

>  <van_der_walls_volume>  (1761) 
nan

>  <contains_sugar>  (1761) 
False

>  <contains_ring_sugars>  (1761) 
False

>  <contains_linear_sugars>  (1761) 
False

>  <murcko_framework>  (1761) 
C1CCCC1

>  <np_likeness>  (1761) 
0.59

>  <chemical_class>  (1761) 
Saturated hydrocarbons

>  <chemical_sub_class>  (1761) 
Cycloalkanes

>  <chemical_super_class>  (1761) 
Hydrocarbons

>  <direct_parent_classification>  (1761) 
Cycloalkanes

>  <np_classifier_pathway>  (1761) 
Fatty acids

>  <np_classifier_superclass>  (1761) 
Fatty acyls

>  <np_classifier_class>  (1761) 
Hydrocarbons

>  <np_classifier_is_glycoside>  (1761) 
False

>  <organisms>  (1761) 
Caryocar coriaceum

>  <collections>  (1761) 
Latin America dataset|NuBBEDB|WikiData Natural Products|ZINC NP

>  <dois>  (1761) 
10.1021/JF00120A031|10.1021/jf00120a031

>  <synonyms>  (1761) 
(1-Methylpentyl)cyclopentane|4457-00-5|Cyclopentane, hexyl-|DTXSID90196224|Hexylcyclopentane #|J-500246|LKHGKBBAJAFMSQ-UHFFFAOYSA-N|NS00123183|n-hexylcyclopentane

>  <cas>  (1761) 
4457-00-5

$$$$

     RDKit          2D

 25 27  0  0  0  0  0  0  0  0999 V2000
    8.6827    0.9233    0.0000 C   0  0  0  0  0  0  0  0  0  0  0  0
    7.3395    0.2556    0.0000 C   0  0  0  0  0  0  0  0  0  0  0  0
    6.0897    1.0850    0.0000 C   0  0  0  0  0  0  0  0  0  0  0  0
    4.7465    0.4173    0.0000 C   0  0  0  0  0  0  0  0  0  0  0  0
    3.4966    1.2467    0.0000 C   0  0  0  0  0  0  0  0  0  0  0  0
    2.1534    0.5790    0.0000 C   0  0  0  0  0  0  0  0  0  0  0  0
    2.0601   -0.9180    0.0000 C   0  0  0  0  0  0  0  0  0  0  0  0
    3.3099   -1.7474    0.0000 C   0  0  0  0  0  0  0  0  0  0  0  0
    4.6531   -1.0798    0.0000 C   0  0  0  0  0  0  0  0  0  0  0  0
    5.9030   -1.9092    0.0000 O   0  0  0  0  0  0  0  0  0  0  0  0
    0.6074   -1.2919    0.0000 O   0  0  0  0  0  0  0  0  0  0  0  0
   -0.1970   -0.0258    0.0000 C   0  0  0  0  0  0  0  0  0  0  0  0
   -1.6941    0.0675    0.0000 C   0  0  0  0  0  0  0  0  0  0  0  0
   -2.3618    1.4107    0.0000 C   0  0  0  0  0  0  0  0  0  0  0  0
   -3.8589    1.5041    0.0000 C   0  0  0  0  0  0  0  0  0  0  0  0
   -4.5266    2.8473    0.0000 O   0  0  0  0  0  0  0  0  0  0  0  0
   -3.6972    4.0971    0.0000 C   0  0  0  0  0  0  0  0  0  0  0  0
   -4.6883    0.2543    0.0000 C   0  0  0  0  0  0  0  0  0  0  0  0
   -6.1854    0.3476    0.0000 O   0  0  0  0  0  0  0  0  0  0  0  0
   -7.0148   -0.9022    0.0000 C   0  0  0  0  0  0  0  0  0  0  0  0
   -4.0206   -1.0889    0.0000 C   0  0  0  0  0  0  0  0  0  0  0  0
   -4.8500   -2.3388    0.0000 O   0  0  0  0  0  0  0  0  0  0  0  0
   -4.1823   -3.6820    0.0000 C   0  0  0  0  0  0  0  0  0  0  0  0
   -2.5235   -1.1823    0.0000 C   0  0  0  0  0  0  0  0  0  0  0  0
    0.7585    1.1305    0.0000 C   0  0  0  0  0  0  0  0  0  0  0  0
  1  2  2  0
  2  3  1  0
  3  4  1  0
  4  5  2  0
  5  6  1  0
  6  7  2  0
  7  8  1  0
  8  9  2  0
  9 10  1  0
  7 11  1  0
 11 12  1  0
 12 13  1  6
 13 14  2  0
 14 15  1  0
 15 16  1  0
 16 17  1  0
 15 18  2  0
 18 19  1  0
 19 20  1  0
 18 21  1  0
 21 22  1  0
 22 23  1  0
 21 24  2  0
 12 25  1  0
  9  4  1  0
 24 13  1  0
 25  6  1  0
M  END
>  <identifier>  (1762) 
CNP0403416.1

>  <canonical_smiles>  (1762) 
C=CCC1=CC2=C(C=C1O)O[C@H](C1=CC(OC)=C(OC)C(OC)=C1)C2

>  <standard_inchi>  (1762) 
InChI=1S/C20H22O5/c1-5-6-12-7-13-8-16(25-17(13)11-15(12)21)14-9-18(22-2)20(24-4)19(10-14)23-3/h5,7,9-11,16,21H,1,6,8H2,2-4H3/t16-/m0/s1

>  <standard_inchi_key>  (1762) 
XWBGDLYANYGUJK-INIZCTEOSA-N

>  <name>  (1762) 
nan

>  <iupac_name>  (1762) 
(2~{S})-5-allyl-2-(3,4,5-trimethoxyphenyl)-2,3-dihydrobenzofuran-6-ol

>  <annotation_level>  (1762) 
4

>  <total_atom_count>  (1762) 
47

>  <heavy_atom_count>  (1762) 
25

>  <molecular_weight>  (1762) 
342.39

>  <exact_molecular_weight>  (1762) 
342.14672

>  <molecular_formula>  (1762) 
C20H22O5

>  <alogp>  (1762) 
3.82

>  <topological_polar_surface_area>  (1762) 
57.15

>  <rotatable_bond_count>  (1762) 
6

>  <hydrogen_bond_acceptors>  (1762) 
5

>  <hydrogen_bond_donors>  (1762) 
1

>  <hydrogen_bond_acceptors_lipinski>  (1762) 
5

>  <hydrogen_bond_donors_lipinski>  (1762) 
1

>  <lipinski_rule_of_five_violations>  (1762) 
0

>  <aromatic_rings_count>  (1762) 
2

>  <qed_drug_likeliness>  (1762) 
0.81

>  <formal_charge>  (1762) 
0

>  <fractioncsp3>  (1762) 
0.30

>  <number_of_minimal_rings>  (1762) 
3

>  <van_der_walls_volume>  (1762) 
nan

>  <contains_sugar>  (1762) 
False

>  <contains_ring_sugars>  (1762) 
False

>  <contains_linear_sugars>  (1762) 
False

>  <murcko_framework>  (1762) 
O1c2ccccc2CC1c3ccccc3

>  <np_likeness>  (1762) 
1.20

>  <chemical_class>  (1762) 
2-arylbenzofuran flavonoids

>  <chemical_sub_class>  (1762) 
2-arylbenzofuran flavonoids

>  <chemical_super_class>  (1762) 
Phenylpropanoids and polyketides

>  <direct_parent_classification>  (1762) 
2-arylbenzofuran flavonoids

>  <np_classifier_pathway>  (1762) 
Shikimates and Phenylpropanoids

>  <np_classifier_superclass>  (1762) 
Isoflavonoids

>  <np_classifier_class>  (1762) 
nan

>  <np_classifier_is_glycoside>  (1762) 
False

>  <organisms>  (1762) 
Nectandra miranda|Rhodostemonodaphne miranda

>  <collections>  (1762) 
Latin America dataset|NuBBEDB|WikiData Natural Products|ZINC NP

>  <dois>  (1762) 
10.1016/S0031-9422(00)89245-6

>  <synonyms>  (1762) 
(2S3S)-5-Allyl-6-hydroxy-2-(345-trimethoxyphenyl)-3-methyl-23-dihydrobenzofuran

>  <cas>  (1762) 
nan

$$$$

     RDKit          2D

 24 27  0  0  0  0  0  0  0  0999 V2000
    3.8387   -3.8562    0.0000 C   0  0  0  0  0  0  0  0  0  0  0  0
    3.7184   -2.3610    0.0000 C   0  0  0  0  0  0  0  0  0  0  0  0
    2.3634   -1.7176    0.0000 C   0  0  0  0  0  0  0  0  0  0  0  0
    2.2431   -0.2225    0.0000 C   0  0  0  0  0  0  0  0  0  0  0  0
    3.6580   -0.7207    0.0000 C   0  0  0  0  0  0  0  0  0  0  0  0
    4.7969    0.2554    0.0000 C   0  0  0  0  0  0  0  0  0  0  0  0
    4.5210    1.7298    0.0000 C   0  0  0  0  0  0  0  0  0  0  0  0
    3.1061    2.2281    0.0000 C   0  0  0  0  0  0  0  0  0  0  0  0
    2.8302    3.7025    0.0000 O   0  0  0  0  0  0  0  0  0  0  0  0
    1.9672    1.2519    0.0000 C   0  0  0  0  0  0  0  0  0  0  0  0
    1.5387    2.6894    0.0000 O   0  0  0  0  0  0  0  0  0  0  0  0
    0.4797    1.4452    0.0000 O   0  0  0  0  0  0  0  0  0  0  0  0
   -0.1637    0.0902    0.0000 C   0  0  0  0  0  0  0  0  0  0  0  0
   -1.6381   -0.1858    0.0000 C   0  0  0  0  0  0  0  0  0  0  0  0
   -2.1364   -1.6006    0.0000 C   0  0  0  0  0  0  0  0  0  0  0  0
   -3.6108   -1.8765    0.0000 C   0  0  0  0  0  0  0  0  0  0  0  0
   -4.5869   -0.7376    0.0000 C   0  0  0  0  0  0  0  0  0  0  0  0
   -6.0865   -0.7009    0.0000 O   0  0  0  0  0  0  0  0  0  0  0  0
   -6.5150    0.7366    0.0000 C   0  0  0  0  0  0  0  0  0  0  0  0
   -5.2803    1.5883    0.0000 O   0  0  0  0  0  0  0  0  0  0  0  0
   -4.0887    0.6772    0.0000 C   0  0  0  0  0  0  0  0  0  0  0  0
   -2.6143    0.9532    0.0000 C   0  0  0  0  0  0  0  0  0  0  0  0
    0.9262   -0.9405    0.0000 C   0  0  0  0  0  0  0  0  0  0  0  0
    0.7329   -2.4280    0.0000 C   0  0  0  0  0  0  0  0  0  0  0  0
  1  2  2  0
  2  3  1  0
  4  3  1  6
  4  5  1  0
  5  6  1  0
  6  7  2  0
  7  8  1  0
  8  9  2  0
  8 10  1  0
 10 11  1  1
 10 12  1  0
 12 13  1  0
 13 14  1  6
 14 15  2  0
 15 16  1  0
 16 17  2  0
 17 18  1  0
 18 19  1  0
 19 20  1  0
 20 21  1  0
 21 22  2  0
 13 23  1  0
 23 24  1  6
 10  4  1  0
 22 14  1  0
 23  4  1  0
 21 17  1  0
M  END
>  <identifier>  (1763) 
CNP0365907.3

>  <canonical_smiles>  (1763) 
C=CC[C@@]12CC=CC(=O)[C@@]1(O)O[C@@H](C1=CC=C3OCOC3=C1)[C@H]2C

>  <standard_inchi>  (1763) 
InChI=1S/C19H20O5/c1-3-8-18-9-4-5-16(20)19(18,21)24-17(12(18)2)13-6-7-14-15(10-13)23-11-22-14/h3-7,10,12,17,21H,1,8-9,11H2,2H3/t12-,17-,18+,19-/m1/s1

>  <standard_inchi_key>  (1763) 
ZWZOJVXHAOTSDM-GBRSUSRYSA-N

>  <name>  (1763) 
nan

>  <iupac_name>  (1763) 
(2~{R},3~{S},3~{a}~{S},7~{a}~{S})-3~{a}-allyl-2-(1,3-benzodioxol-5-yl)-7~{a}-hydroxy-3-methyl-3,4-dihydro-2~{H}-benzofuran-7-one

>  <annotation_level>  (1763) 
5

>  <total_atom_count>  (1763) 
44

>  <heavy_atom_count>  (1763) 
24

>  <molecular_weight>  (1763) 
328.36

>  <exact_molecular_weight>  (1763) 
328.13107

>  <molecular_formula>  (1763) 
C19H20O5

>  <alogp>  (1763) 
2.90

>  <topological_polar_surface_area>  (1763) 
64.99

>  <rotatable_bond_count>  (1763) 
3

>  <hydrogen_bond_acceptors>  (1763) 
5

>  <hydrogen_bond_donors>  (1763) 
1

>  <hydrogen_bond_acceptors_lipinski>  (1763) 
5

>  <hydrogen_bond_donors_lipinski>  (1763) 
1

>  <lipinski_rule_of_five_violations>  (1763) 
0

>  <aromatic_rings_count>  (1763) 
1

>  <qed_drug_likeliness>  (1763) 
0.86

>  <formal_charge>  (1763) 
0

>  <fractioncsp3>  (1763) 
0.42

>  <number_of_minimal_rings>  (1763) 
4

>  <van_der_walls_volume>  (1763) 
289.28

>  <contains_sugar>  (1763) 
False

>  <contains_ring_sugars>  (1763) 
False

>  <contains_linear_sugars>  (1763) 
False

>  <murcko_framework>  (1763) 
O1c2ccc(cc2OC1)C3OC4CC=CCC4C3

>  <np_likeness>  (1763) 
1.84

>  <chemical_class>  (1763) 
Benzodioxoles

>  <chemical_sub_class>  (1763) 
Benzodioxoles

>  <chemical_super_class>  (1763) 
Organoheterocyclic compounds

>  <direct_parent_classification>  (1763) 
Benzodioxoles

>  <np_classifier_pathway>  (1763) 
Shikimates and Phenylpropanoids

>  <np_classifier_superclass>  (1763) 
Lignans

>  <np_classifier_class>  (1763) 
Neolignans

>  <np_classifier_is_glycoside>  (1763) 
True

>  <organisms>  (1763) 
Aniba ferrea|Diaporthe phaseolorum|Euphorbia splendens|Leptotaenia multifida|Lunasia costulata|Ocotea aciphylla|Rudbeckia speciosa|Woodsia manchuriensis

>  <collections>  (1763) 
CMAUP (cCollective molecular activities of useful plants)|Latin America dataset|NPASS|NuBBEDB|Super Natural II|WikiData Natural Products

>  <dois>  (1763) 
10.1016/0031-9422(80)83081-0|10.1016/S0031-9422(00)81240-6|10.1016/S0031-9422(00)84995-X

>  <synonyms>  (1763) 
Ferrearin-B

>  <cas>  (1763) 
nan

$$$$

     RDKit          2D

 28 31  0  0  0  0  0  0  0  0999 V2000
   -3.8613   -1.1374    0.0000 C   0  0  0  0  0  0  0  0  0  0  0  0
   -2.5889   -1.9316    0.0000 C   0  0  0  0  0  0  0  0  0  0  0  0
   -2.4835   -3.4279    0.0000 C   0  0  0  0  0  0  0  0  0  0  0  0
   -3.6321   -4.3927    0.0000 O   0  0  0  0  0  0  0  0  0  0  0  0
   -1.0279   -3.7901    0.0000 O   0  0  0  0  0  0  0  0  0  0  0  0
   -0.2336   -2.5176    0.0000 C   0  0  0  0  0  0  0  0  0  0  0  0
   -1.1984   -1.3690    0.0000 C   0  0  0  0  0  0  0  0  0  0  0  0
   -1.1991    0.1310    0.0000 C   0  0  0  0  0  0  0  0  0  0  0  0
   -2.6089    0.6433    0.0000 O   0  0  0  0  0  0  0  0  0  0  0  0
   -2.8701    2.1204    0.0000 C   0  0  0  0  0  0  0  0  0  0  0  0
   -1.7215    3.0851    0.0000 O   0  0  0  0  0  0  0  0  0  0  0  0
   -4.2799    2.6327    0.0000 C   0  0  0  0  0  0  0  0  0  0  0  0
   -4.5411    4.1098    0.0000 C   0  0  0  0  0  0  0  0  0  0  0  0
   -5.4285    1.6680    0.0000 C   0  0  0  0  0  0  0  0  0  0  0  0
   -0.2355    1.2805    0.0000 C   0  0  0  0  0  0  0  0  0  0  0  0
    1.2416    1.5417    0.0000 C   0  0  0  0  0  0  0  0  0  0  0  0
    1.5014    3.0190    0.0000 C   0  0  0  0  0  0  0  0  0  0  0  0
    2.5410    0.7923    0.0000 O   0  0  0  0  0  0  0  0  0  0  0  0
    3.0547   -0.6170    0.0000 C   0  0  0  0  0  0  0  0  0  0  0  0
    4.5547   -0.6162    0.0000 O   0  0  0  0  0  0  0  0  0  0  0  0
    3.8490    0.6555    0.0000 C   0  0  0  0  0  0  0  0  0  0  0  0
    2.8842    1.8041    0.0000 C   0  0  0  0  0  0  0  0  0  0  0  0
    3.2464    3.2597    0.0000 O   0  0  0  0  0  0  0  0  0  0  0  0
    4.6881    3.6739    0.0000 C   0  0  0  0  0  0  0  0  0  0  0  0
    2.5424   -2.0268    0.0000 C   0  0  0  0  0  0  0  0  0  0  0  0
    4.0197   -2.2865    0.0000 C   0  0  0  0  0  0  0  0  0  0  0  0
    2.5431   -3.5268    0.0000 O   0  0  0  0  0  0  0  0  0  0  0  0
    1.2437   -2.7774    0.0000 C   0  0  0  0  0  0  0  0  0  0  0  0
  1  2  2  0
  2  3  1  0
  3  4  2  0
  3  5  1  0
  6  5  1  1
  6  7  1  0
  7  8  1  0
  8  9  1  6
  9 10  1  0
 10 11  2  0
 10 12  1  0
 12 13  1  0
 12 14  1  0
  8 15  1  0
 15 16  1  0
 16 17  1  6
 16 18  1  0
 18 19  1  0
 19 20  1  6
 19 21  1  0
 21 22  1  0
 22 23  1  6
 23 24  1  0
 19 25  1  0
 25 26  1  6
 25 27  1  0
 28 27  1  1
  7  2  1  6
 22 16  1  0
 28 25  1  0
 28  6  1  0
M  END
>  <identifier>  (1764) 
CNP0240929.1

>  <canonical_smiles>  (1764) 
C=C1C(=O)O[C@H]2[C@H]1[C@H](OC(=O)C(C)C)C[C@]1(C)O[C@@](O)(C[C@H]1OC)[C@@]1(C)O[C@@H]21

>  <standard_inchi>  (1764) 
InChI=1S/C20H28O8/c1-9(2)16(21)25-11-7-18(4)12(24-6)8-20(23,28-18)19(5)15(27-19)14-13(11)10(3)17(22)26-14/h9,11-15,23H,3,7-8H2,1-2,4-6H3/t11-,12-,13-,14+,15+,18+,19+,20+/m1/s1

>  <standard_inchi_key>  (1764) 
WHYIWLWSSUFSOL-HNUINFLBSA-N

>  <name>  (1764) 
nan

>  <iupac_name>  (1764) 
[(1~{S},2~{S},4~{S},5~{S},9~{R},10~{R},12~{S},13~{R})-1-hydroxy-13-methoxy-2,12-dimethyl-8-methylene-7-oxo-3,6,15-trioxatetracyclo[10.2.1.0^{2,4}.0^{5,9}]pentadecan-10-yl] 2-methylpropanoate

>  <annotation_level>  (1764) 
4

>  <total_atom_count>  (1764) 
56

>  <heavy_atom_count>  (1764) 
28

>  <molecular_weight>  (1764) 
396.44

>  <exact_molecular_weight>  (1764) 
396.17842

>  <molecular_formula>  (1764) 
C20H28O8

>  <alogp>  (1764) 
1.10

>  <topological_polar_surface_area>  (1764) 
103.82

>  <rotatable_bond_count>  (1764) 
3

>  <hydrogen_bond_acceptors>  (1764) 
8

>  <hydrogen_bond_donors>  (1764) 
1

>  <hydrogen_bond_acceptors_lipinski>  (1764) 
8

>  <hydrogen_bond_donors_lipinski>  (1764) 
1

>  <lipinski_rule_of_five_violations>  (1764) 
0

>  <aromatic_rings_count>  (1764) 
0

>  <qed_drug_likeliness>  (1764) 
0.43

>  <formal_charge>  (1764) 
0

>  <fractioncsp3>  (1764) 
0.80

>  <number_of_minimal_rings>  (1764) 
4

>  <van_der_walls_volume>  (1764) 
nan

>  <contains_sugar>  (1764) 
False

>  <contains_ring_sugars>  (1764) 
False

>  <contains_linear_sugars>  (1764) 
False

>  <murcko_framework>  (1764) 
O1CCC2CCC3OC(CC3)C4OC4C12

>  <np_likeness>  (1764) 
2.81

>  <chemical_class>  (1764) 
Prenol lipids

>  <chemical_sub_class>  (1764) 
Terpene lactones

>  <chemical_super_class>  (1764) 
Lipids and lipid-like molecules

>  <direct_parent_classification>  (1764) 
Germacranolides and derivatives

>  <np_classifier_pathway>  (1764) 
Terpenoids

>  <np_classifier_superclass>  (1764) 
Sesquiterpenoids

>  <np_classifier_class>  (1764) 
Germacrane sesquiterpenoids

>  <np_classifier_is_glycoside>  (1764) 
True

>  <organisms>  (1764) 
Aspergillus terreus

>  <collections>  (1764) 
Latin America dataset|NuBBEDB|WikiData Natural Products

>  <dois>  (1764) 
10.1007/S10295-012-1165-2|10.1007/s10295-012-1165-2

>  <synonyms>  (1764) 
1-methoxy-3-hydroxy-310b-45a-diepoxy-8b-isobutyroyloxygermacr-11(13)-en-6a12-olide

>  <cas>  (1764) 
nan

$$$$

     RDKit          2D

 17 19  0  0  0  0  0  0  0  0999 V2000
   -3.5660   -1.4539    0.0000 C   0  0  0  0  0  0  0  0  0  0  0  0
   -2.6751   -0.2471    0.0000 C   0  0  0  0  0  0  0  0  0  0  0  0
   -3.1278    1.1829    0.0000 C   0  0  0  0  0  0  0  0  0  0  0  0
   -1.9076    2.0553    0.0000 C   0  0  0  0  0  0  0  0  0  0  0  0
   -0.7008    1.1645    0.0000 C   0  0  0  0  0  0  0  0  0  0  0  0
    0.7991    1.1531    0.0000 C   0  0  0  0  0  0  0  0  0  0  0  0
    0.6537    2.6460    0.0000 C   0  0  0  0  0  0  0  0  0  0  0  0
    2.2687    1.4538    0.0000 C   0  0  0  0  0  0  0  0  0  0  0  0
    2.7430    2.8768    0.0000 O   0  0  0  0  0  0  0  0  0  0  0  0
    1.4228   -0.2783    0.0000 C   0  0  0  0  0  0  0  0  0  0  0  0
    0.1295    0.4815    0.0000 C   0  0  0  0  0  0  0  0  0  0  0  0
   -1.1752   -0.2586    0.0000 C   0  0  0  0  0  0  0  0  0  0  0  0
   -1.1866   -1.7585    0.0000 C   0  0  0  0  0  0  0  0  0  0  0  0
    0.1067   -2.5184    0.0000 C   0  0  0  0  0  0  0  0  0  0  0  0
    1.4114   -1.7783    0.0000 C   0  0  0  0  0  0  0  0  0  0  0  0
    2.8906   -1.5290    0.0000 C   0  0  0  0  0  0  0  0  0  0  0  0
    1.9137   -3.1917    0.0000 O   0  0  0  0  0  0  0  0  0  0  0  0
  2  1  1  6
  2  3  1  0
  3  4  1  0
  5  4  1  1
  5  6  1  0
  6  7  1  6
  6  8  1  0
  8  9  1  0
  6 10  1  0
 10 11  1  1
 11 12  1  0
 12 13  1  6
 13 14  1  0
 14 15  1  0
 15 16  1  6
 15 17  1  0
 12  2  1  0
 12  5  1  0
 15 10  1  0
M  END
>  <identifier>  (1765) 
CNP0171635.1

>  <canonical_smiles>  (1765) 
C[C@@H]1CC[C@H]2[C@@](C)(CO)[C@H]3C[C@@]12CC[C@]3(C)O

>  <standard_inchi>  (1765) 
InChI=1S/C15H26O2/c1-10-4-5-11-13(2,9-16)12-8-15(10,11)7-6-14(12,3)17/h10-12,16-17H,4-9H2,1-3H3/t10-,11+,12-,13-,14+,15+/m1/s1

>  <standard_inchi_key>  (1765) 
YULHLOUAHSEHLD-QLKXBERHSA-N

>  <name>  (1765) 
8,13-Cedranediol

>  <iupac_name>  (1765) 
(1~{S},2~{R},5~{R},6~{R},7~{R},8~{S})-6-(hydroxymethyl)-2,6,8-trimethyl-tricyclo[5.3.1.0^{1,5}]undecan-8-ol

>  <annotation_level>  (1765) 
5

>  <total_atom_count>  (1765) 
43

>  <heavy_atom_count>  (1765) 
17

>  <molecular_weight>  (1765) 
238.37

>  <exact_molecular_weight>  (1765) 
238.19328

>  <molecular_formula>  (1765) 
C15H26O2

>  <alogp>  (1765) 
2.58

>  <topological_polar_surface_area>  (1765) 
40.46

>  <rotatable_bond_count>  (1765) 
1

>  <hydrogen_bond_acceptors>  (1765) 
2

>  <hydrogen_bond_donors>  (1765) 
2

>  <hydrogen_bond_acceptors_lipinski>  (1765) 
2

>  <hydrogen_bond_donors_lipinski>  (1765) 
2

>  <lipinski_rule_of_five_violations>  (1765) 
0

>  <aromatic_rings_count>  (1765) 
0

>  <qed_drug_likeliness>  (1765) 
0.74

>  <formal_charge>  (1765) 
0

>  <fractioncsp3>  (1765) 
1.00

>  <number_of_minimal_rings>  (1765) 
3

>  <van_der_walls_volume>  (1765) 
nan

>  <contains_sugar>  (1765) 
False

>  <contains_ring_sugars>  (1765) 
False

>  <contains_linear_sugars>  (1765) 
False

>  <murcko_framework>  (1765) 
C1CC2CC3CCCC3(C1)C2

>  <np_likeness>  (1765) 
2.86

>  <chemical_class>  (1765) 
Prenol lipids

>  <chemical_sub_class>  (1765) 
Sesquiterpenoids

>  <chemical_super_class>  (1765) 
Lipids and lipid-like molecules

>  <direct_parent_classification>  (1765) 
Cedrane and isocedrane sesquiterpenoids

>  <np_classifier_pathway>  (1765) 
Terpenoids

>  <np_classifier_superclass>  (1765) 
Sesquiterpenoids

>  <np_classifier_class>  (1765) 
Cedrane and Isocedrane sesquiterpenoids

>  <np_classifier_is_glycoside>  (1765) 
False

>  <organisms>  (1765) 
Cedrela odorata

>  <collections>  (1765) 
Latin America dataset|NuBBEDB|WikiData Natural Products

>  <dois>  (1765) 
10.1590/S0103-50532000000600012

>  <synonyms>  (1765) 
62600-04-8|8S,13-Cedranediol|Cedrane diol

>  <cas>  (1765) 
62600-04-8

$$$$

     RDKit          2D

 24 27  0  0  0  0  0  0  0  0999 V2000
    6.3813   -1.1593    0.0000 C   0  0  0  0  0  0  0  0  0  0  0  0
    4.9142   -1.4718    0.0000 C   0  0  0  0  0  0  0  0  0  0  0  0
    3.9100   -0.3575    0.0000 C   0  0  0  0  0  0  0  0  0  0  0  0
    4.2212    1.1099    0.0000 C   0  0  0  0  0  0  0  0  0  0  0  0
    5.5913    1.7206    0.0000 O   0  0  0  0  0  0  0  0  0  0  0  0
    2.9219    1.8593    0.0000 C   0  0  0  0  0  0  0  0  0  0  0  0
    1.8076    0.8552    0.0000 C   0  0  0  0  0  0  0  0  0  0  0  0
    0.3157    1.0113    0.0000 C   0  0  0  0  0  0  0  0  0  0  0  0
   -0.2949    2.3814    0.0000 C   0  0  0  0  0  0  0  0  0  0  0  0
   -1.7868    2.5375    0.0000 C   0  0  0  0  0  0  0  0  0  0  0  0
   -2.6680    1.3236    0.0000 C   0  0  0  0  0  0  0  0  0  0  0  0
   -4.1598    1.4798    0.0000 C   0  0  0  0  0  0  0  0  0  0  0  0
   -5.0410    0.2659    0.0000 C   0  0  0  0  0  0  0  0  0  0  0  0
   -6.5328    0.4221    0.0000 O   0  0  0  0  0  0  0  0  0  0  0  0
   -4.4303   -1.1042    0.0000 C   0  0  0  0  0  0  0  0  0  0  0  0
   -5.3114   -2.3181    0.0000 O   0  0  0  0  0  0  0  0  0  0  0  0
   -2.9384   -1.2603    0.0000 C   0  0  0  0  0  0  0  0  0  0  0  0
   -2.0573   -0.0464    0.0000 C   0  0  0  0  0  0  0  0  0  0  0  0
   -1.4466   -1.4165    0.0000 C   0  0  0  0  0  0  0  0  0  0  0  0
   -0.5654   -0.2026    0.0000 C   0  0  0  0  0  0  0  0  0  0  0  0
    0.0453   -1.5726    0.0000 C   0  0  0  0  0  0  0  0  0  0  0  0
    1.5371   -1.7288    0.0000 C   0  0  0  0  0  0  0  0  0  0  0  0
    2.4183   -0.5149    0.0000 C   0  0  0  0  0  0  0  0  0  0  0  0
    3.1688   -1.8136    0.0000 C   0  0  0  0  0  0  0  0  0  0  0  0
  1  2  1  0
  3  2  1  6
  3  4  1  0
  4  5  2  0
  4  6  1  0
  6  7  1  0
  7  8  1  0
  8  9  1  0
  9 10  1  0
 10 11  1  0
 11 12  1  0
 12 13  1  0
 13 14  1  6
 13 15  1  0
 15 16  1  6
 15 17  1  0
 17 18  1  0
 18 19  1  6
 18 20  1  0
 20 21  1  0
 21 22  1  0
 22 23  1  0
 23 24  1  6
 23  3  1  0
 23  7  1  0
 20  8  1  0
 18 11  1  0
M  END
>  <identifier>  (1766) 
CNP0270409.3

>  <canonical_smiles>  (1766) 
CC[C@H]1C(=O)CC2C3CCC4C[C@@H](O)[C@@H](O)C[C@]4(C)C3CC[C@@]21C

>  <standard_inchi>  (1766) 
InChI=1S/C21H34O3/c1-4-14-17(22)10-16-13-6-5-12-9-18(23)19(24)11-21(12,3)15(13)7-8-20(14,16)2/h12-16,18-19,23-24H,4-11H2,1-3H3/t12?,13?,14-,15?,16?,18+,19-,20+,21-/m0/s1

>  <standard_inchi_key>  (1766) 
RFTIRMPAYWBDKJ-APLSLBTASA-N

>  <name>  (1766) 
nan

>  <iupac_name>  (1766) 
(2~{S},3~{R},10~{S},13~{S},17~{R})-17-ethyl-2,3-dihydroxy-10,13-dimethyl-1,2,3,4,5,6,7,8,9,11,12,14,15,17-tetradecahydrocyclopenta[a]phenanthren-16-one

>  <annotation_level>  (1766) 
4

>  <total_atom_count>  (1766) 
58

>  <heavy_atom_count>  (1766) 
24

>  <molecular_weight>  (1766) 
334.5

>  <exact_molecular_weight>  (1766) 
334.25079

>  <molecular_formula>  (1766) 
C21H34O3

>  <alogp>  (1766) 
3.57

>  <topological_polar_surface_area>  (1766) 
57.53

>  <rotatable_bond_count>  (1766) 
1

>  <hydrogen_bond_acceptors>  (1766) 
3

>  <hydrogen_bond_donors>  (1766) 
2

>  <hydrogen_bond_acceptors_lipinski>  (1766) 
3

>  <hydrogen_bond_donors_lipinski>  (1766) 
2

>  <lipinski_rule_of_five_violations>  (1766) 
0

>  <aromatic_rings_count>  (1766) 
0

>  <qed_drug_likeliness>  (1766) 
0.77

>  <formal_charge>  (1766) 
0

>  <fractioncsp3>  (1766) 
0.95

>  <number_of_minimal_rings>  (1766) 
4

>  <van_der_walls_volume>  (1766) 
nan

>  <contains_sugar>  (1766) 
False

>  <contains_ring_sugars>  (1766) 
False

>  <contains_linear_sugars>  (1766) 
False

>  <murcko_framework>  (1766) 
C1CCC2C(C1)CCC3C4CCCC4CCC23

>  <np_likeness>  (1766) 
2.84

>  <chemical_class>  (1766) 
Steroids and steroid derivatives

>  <chemical_sub_class>  (1766) 
Pregnane steroids

>  <chemical_super_class>  (1766) 
Lipids and lipid-like molecules

>  <direct_parent_classification>  (1766) 
Gluco\/mineralocorticoids, progestogins and derivatives

>  <np_classifier_pathway>  (1766) 
Terpenoids

>  <np_classifier_superclass>  (1766) 
Steroids

>  <np_classifier_class>  (1766) 
Pregnane steroids

>  <np_classifier_is_glycoside>  (1766) 
False

>  <organisms>  (1766) 
Trichilia claussenii

>  <collections>  (1766) 
Latin America dataset|NuBBEDB

>  <dois>  (1766) 
10.1016/S0031-9422(97)00167-2

>  <synonyms>  (1766) 
2\u221a\u00e9\u00ac\u22643\u221a\u00e9\u00ac\u2264-Dihydroxypregnan-16-one

>  <cas>  (1766) 
nan

$$$$

     RDKit          2D

 31 34  0  0  0  0  0  0  0  0999 V2000
    3.1457    4.7979    0.0000 C   0  0  0  0  0  0  0  0  0  0  0  0
    2.0334    3.7914    0.0000 O   0  0  0  0  0  0  0  0  0  0  0  0
    2.3489    2.3250    0.0000 C   0  0  0  0  0  0  0  0  0  0  0  0
    3.7766    1.8650    0.0000 C   0  0  0  0  0  0  0  0  0  0  0  0
    4.0920    0.3985    0.0000 C   0  0  0  0  0  0  0  0  0  0  0  0
    2.9798   -0.6079    0.0000 C   0  0  0  0  0  0  0  0  0  0  0  0
    3.2953   -2.0744    0.0000 C   0  0  0  0  0  0  0  0  0  0  0  0
    4.7230   -2.5344    0.0000 C   0  0  0  0  0  0  0  0  0  0  0  0
    5.8352   -1.5280    0.0000 C   0  0  0  0  0  0  0  0  0  0  0  0
    7.2246   -0.9626    0.0000 C   0  0  0  0  0  0  0  0  0  0  0  0
    6.6332   -2.7981    0.0000 C   0  0  0  0  0  0  0  0  0  0  0  0
    5.5198   -0.0615    0.0000 O   0  0  0  0  0  0  0  0  0  0  0  0
    1.5521   -0.1479    0.0000 C   0  0  0  0  0  0  0  0  0  0  0  0
    1.2366    1.3186    0.0000 C   0  0  0  0  0  0  0  0  0  0  0  0
   -0.1911    1.7786    0.0000 C   0  0  0  0  0  0  0  0  0  0  0  0
   -0.5066    3.2450    0.0000 O   0  0  0  0  0  0  0  0  0  0  0  0
   -1.3034    0.7722    0.0000 C   0  0  0  0  0  0  0  0  0  0  0  0
   -2.7311    1.2322    0.0000 C   0  0  0  0  0  0  0  0  0  0  0  0
   -3.8433    0.2258    0.0000 C   0  0  0  0  0  0  0  0  0  0  0  0
   -5.2710    0.6858    0.0000 O   0  0  0  0  0  0  0  0  0  0  0  0
   -5.5865    2.1522    0.0000 C   0  0  0  0  0  0  0  0  0  0  0  0
   -7.0142    2.6123    0.0000 C   0  0  0  0  0  0  0  0  0  0  0  0
   -4.4743    3.1587    0.0000 O   0  0  0  0  0  0  0  0  0  0  0  0
   -3.5279   -1.2407    0.0000 C   0  0  0  0  0  0  0  0  0  0  0  0
   -4.6401   -2.2471    0.0000 O   0  0  0  0  0  0  0  0  0  0  0  0
   -4.3246   -3.7136    0.0000 C   0  0  0  0  0  0  0  0  0  0  0  0
   -5.4369   -4.7200    0.0000 C   0  0  0  0  0  0  0  0  0  0  0  0
   -2.8969   -4.1736    0.0000 O   0  0  0  0  0  0  0  0  0  0  0  0
   -2.1001   -1.7007    0.0000 C   0  0  0  0  0  0  0  0  0  0  0  0
   -0.9879   -0.6943    0.0000 C   0  0  0  0  0  0  0  0  0  0  0  0
    0.4398   -1.1543    0.0000 O   0  0  0  0  0  0  0  0  0  0  0  0
  1  2  1  0
  2  3  1  0
  3  4  2  0
  4  5  1  0
  5  6  2  0
  6  7  1  0
  7  8  2  0
  8  9  1  0
  9 10  1  0
  9 11  1  0
  9 12  1  0
  6 13  1  0
 13 14  2  0
 14 15  1  0
 15 16  2  0
 15 17  1  0
 17 18  2  0
 18 19  1  0
 19 20  1  0
 20 21  1  0
 21 22  1  0
 21 23  2  0
 19 24  2  0
 24 25  1  0
 25 26  1  0
 26 27  1  0
 26 28  2  0
 24 29  1  0
 29 30  2  0
 30 31  1  0
 14  3  1  0
 30 17  1  0
 12  5  1  0
 31 13  1  0
M  END
>  <identifier>  (1767) 
CNP0080531.0

>  <canonical_smiles>  (1767) 
COC1=CC2=C(C=CC(C)(C)O2)C2=C1C(=O)C1=CC(OC(C)=O)=C(OC(C)=O)C=C1O2

>  <standard_inchi>  (1767) 
InChI=1S/C23H20O8/c1-11(24)28-17-8-14-15(9-18(17)29-12(2)25)30-22-13-6-7-23(3,4)31-16(13)10-19(27-5)20(22)21(14)26/h6-10H,1-5H3

>  <standard_inchi_key>  (1767) 
JSAPLENOPLKLFH-UHFFFAOYSA-N

>  <name>  (1767) 
nan

>  <iupac_name>  (1767) 
(10-acetoxy-6-methoxy-3,3-dimethyl-7-oxo-chromeno[5,6-b]chromen-9-yl) acetate

>  <annotation_level>  (1767) 
4

>  <total_atom_count>  (1767) 
51

>  <heavy_atom_count>  (1767) 
31

>  <molecular_weight>  (1767) 
424.41

>  <exact_molecular_weight>  (1767) 
424.11582

>  <molecular_formula>  (1767) 
C23H20O8

>  <alogp>  (1767) 
3.99

>  <topological_polar_surface_area>  (1767) 
101.27

>  <rotatable_bond_count>  (1767) 
3

>  <hydrogen_bond_acceptors>  (1767) 
8

>  <hydrogen_bond_donors>  (1767) 
0

>  <hydrogen_bond_acceptors_lipinski>  (1767) 
8

>  <hydrogen_bond_donors_lipinski>  (1767) 
0

>  <lipinski_rule_of_five_violations>  (1767) 
0

>  <aromatic_rings_count>  (1767) 
3

>  <qed_drug_likeliness>  (1767) 
0.35

>  <formal_charge>  (1767) 
0

>  <fractioncsp3>  (1767) 
0.26

>  <number_of_minimal_rings>  (1767) 
4

>  <van_der_walls_volume>  (1767) 
nan

>  <contains_sugar>  (1767) 
False

>  <contains_ring_sugars>  (1767) 
False

>  <contains_linear_sugars>  (1767) 
False

>  <murcko_framework>  (1767) 
O1c2ccccc2Cc3ccc4OCC=Cc4c13

>  <np_likeness>  (1767) 
1.80

>  <chemical_class>  (1767) 
Benzopyrans

>  <chemical_sub_class>  (1767) 
1-benzopyrans

>  <chemical_super_class>  (1767) 
Organoheterocyclic compounds

>  <direct_parent_classification>  (1767) 
Pyranoxanthones

>  <np_classifier_pathway>  (1767) 
Shikimates and Phenylpropanoids

>  <np_classifier_superclass>  (1767) 
Xanthones

>  <np_classifier_class>  (1767) 
Plant xanthones

>  <np_classifier_is_glycoside>  (1767) 
False

>  <organisms>  (1767) 
Lorostemon coelhoi

>  <collections>  (1767) 
Latin America dataset|NuBBEDB|WikiData Natural Products|ZINC NP

>  <dois>  (1767) 
10.1016/0031-9422(73)80714-9

>  <synonyms>  (1767) 
Di-O-Acetyllorostemin

>  <cas>  (1767) 
nan

$$$$

     RDKit          2D

 49 51  0  0  0  0  0  0  0  0999 V2000
   -2.2712    6.7270    0.0000 C   0  0  0  0  0  0  0  0  0  0  0  0
   -1.3083    5.5769    0.0000 C   0  0  0  0  0  0  0  0  0  0  0  0
    0.1692    5.8358    0.0000 C   0  0  0  0  0  0  0  0  0  0  0  0
    0.6837    7.2448    0.0000 C   0  0  0  0  0  0  0  0  0  0  0  0
    1.1322    4.6857    0.0000 C   0  0  0  0  0  0  0  0  0  0  0  0
    0.6177    3.2767    0.0000 C   0  0  0  0  0  0  0  0  0  0  0  0
    1.5807    2.1266    0.0000 C   0  0  0  0  0  0  0  0  0  0  0  0
    2.5460    3.2747    0.0000 C   0  0  0  0  0  0  0  0  0  0  0  0
    0.2808    1.3780    0.0000 C   0  0  0  0  0  0  0  0  0  0  0  0
   -1.0174    2.1294    0.0000 C   0  0  0  0  0  0  0  0  0  0  0  0
    0.2792   -0.1220    0.0000 C   0  0  0  0  0  0  0  0  0  0  0  0
   -1.0206   -0.8706    0.0000 O   0  0  0  0  0  0  0  0  0  0  0  0
   -2.3188   -0.1193    0.0000 C   0  0  0  0  0  0  0  0  0  0  0  0
   -2.3173    1.3807    0.0000 O   0  0  0  0  0  0  0  0  0  0  0  0
   -3.6187   -0.8679    0.0000 C   0  0  0  0  0  0  0  0  0  0  0  0
   -4.9169   -0.1165    0.0000 C   0  0  0  0  0  0  0  0  0  0  0  0
   -6.2167   -0.8652    0.0000 C   0  0  0  0  0  0  0  0  0  0  0  0
   -7.5150   -0.1138    0.0000 C   0  0  0  0  0  0  0  0  0  0  0  0
   -8.8148   -0.8624    0.0000 C   0  0  0  0  0  0  0  0  0  0  0  0
  -10.1131   -0.1110    0.0000 C   0  0  0  0  0  0  0  0  0  0  0  0
  -11.4129   -0.8597    0.0000 C   0  0  0  0  0  0  0  0  0  0  0  0
  -12.7111   -0.1083    0.0000 C   0  0  0  0  0  0  0  0  0  0  0  0
  -14.0110   -0.8569    0.0000 C   0  0  0  0  0  0  0  0  0  0  0  0
    1.5775   -0.8734    0.0000 C   0  0  0  0  0  0  0  0  0  0  0  0
    1.5759   -2.3734    0.0000 O   0  0  0  0  0  0  0  0  0  0  0  0
    0.2761   -3.1220    0.0000 C   0  0  0  0  0  0  0  0  0  0  0  0
    0.2745   -4.6220    0.0000 C   0  0  0  0  0  0  0  0  0  0  0  0
   -1.1654   -2.7071    0.0000 O   0  0  0  0  0  0  0  0  0  0  0  0
    2.8773   -0.1247    0.0000 C   0  0  0  0  0  0  0  0  0  0  0  0
    4.1756   -0.8761    0.0000 C   0  0  0  0  0  0  0  0  0  0  0  0
    5.4754   -0.1275    0.0000 C   0  0  0  0  0  0  0  0  0  0  0  0
    5.4770    1.3725    0.0000 C   0  0  0  0  0  0  0  0  0  0  0  0
    6.7768    2.1212    0.0000 O   0  0  0  0  0  0  0  0  0  0  0  0
    8.0750    1.3698    0.0000 C   0  0  0  0  0  0  0  0  0  0  0  0
    9.3749    2.1184    0.0000 C   0  0  0  0  0  0  0  0  0  0  0  0
    8.0735   -0.1302    0.0000 O   0  0  0  0  0  0  0  0  0  0  0  0
    4.1787    2.1239    0.0000 C   0  0  0  0  0  0  0  0  0  0  0  0
    2.8789    1.3753    0.0000 C   0  0  0  0  0  0  0  0  0  0  0  0
    3.8621   -2.3430    0.0000 C   0  0  0  0  0  0  0  0  0  0  0  0
    4.8647   -3.4588    0.0000 O   0  0  0  0  0  0  0  0  0  0  0  0
    4.3996   -4.8849    0.0000 C   0  0  0  0  0  0  0  0  0  0  0  0
    5.4022   -6.0006    0.0000 C   0  0  0  0  0  0  0  0  0  0  0  0
    2.9321   -5.1952    0.0000 O   0  0  0  0  0  0  0  0  0  0  0  0
    2.3702   -2.4982    0.0000 O   0  0  0  0  0  0  0  0  0  0  0  0
    1.7615   -1.1273    0.0000 C   0  0  0  0  0  0  0  0  0  0  0  0
    0.2946   -0.8138    0.0000 O   0  0  0  0  0  0  0  0  0  0  0  0
   -0.7102   -1.9275    0.0000 C   0  0  0  0  0  0  0  0  0  0  0  0
   -2.1771   -1.6141    0.0000 C   0  0  0  0  0  0  0  0  0  0  0  0
   -0.6072   -3.4240    0.0000 O   0  0  0  0  0  0  0  0  0  0  0  0
  1  2  2  0
  2  3  1  0
  3  4  2  0
  3  5  1  0
  5  6  1  0
  6  7  1  0
  7  8  1  6
  7  9  1  0
  9 10  1  1
  9 11  1  0
 11 12  1  6
 12 13  1  0
 13 14  2  0
 13 15  1  0
 15 16  2  0
 16 17  1  0
 17 18  2  0
 18 19  1  0
 19 20  1  0
 20 21  1  0
 21 22  1  0
 22 23  1  0
 11 24  1  0
 24 25  1  1
 25 26  1  0
 26 27  1  0
 26 28  2  0
 24 29  1  0
 29 30  1  6
 30 31  2  0
 31 32  1  0
 32 33  1  1
 33 34  1  0
 34 35  1  0
 34 36  2  0
 32 37  1  0
 38 37  1  6
 30 39  1  0
 39 40  1  1
 40 41  1  0
 41 42  1  0
 41 43  2  0
 39 44  1  0
 44 45  1  0
 45 46  1  6
 46 47  1  0
 47 48  1  0
 47 49  2  0
 38  7  1  0
 38 29  1  0
 45 29  1  0
M  END
>  <identifier>  (1768) 
CNP0080339.1

>  <canonical_smiles>  (1768) 
C=CC(=C)CC[C@]1(C)[C@H](C)[C@@H](OC(=O)/C=C/C=C/CCCCC)[C@H](OC(C)=O)[C@@]23C(=C[C@H](OC(C)=O)C[C@@H]12)[C@@H](OC(C)=O)O[C@@H]3OC(C)=O

>  <standard_inchi>  (1768) 
InChI=1S/C38H52O11/c1-10-12-13-14-15-16-17-18-32(43)48-33-24(4)37(9,20-19-23(3)11-2)31-22-29(44-25(5)39)21-30-35(46-27(7)41)49-36(47-28(8)42)38(30,31)34(33)45-26(6)40/h11,15-18,21,24,29,31,33-36H,2-3,10,12-14,19-20,22H2,1,4-9H3/b16-15+,18-17+/t24-,29+,31+,33-,34+,35+,36+,37-,38-/m1/s1

>  <standard_inchi_key>  (1768) 
AFXBWHVQHRYSGA-RLAXPAQVSA-N

>  <name>  (1768) 
nan

>  <iupac_name>  (1768) 
[(1~{R},3~{R},5~{R},6~{a}~{S},7~{S},8~{S},9~{R},10~{R},10~{a}~{S})-1,3,5,10-tetraacetoxy-7,8-dimethyl-7-(3-methylenepent-4-enyl)-1,3,5,6,6~{a},8,9,10-octahydrobenzo[d]isobenzofuran-9-yl] (2~{E},4~{E})-deca-2,4-dienoate

>  <annotation_level>  (1768) 
5

>  <total_atom_count>  (1768) 
101

>  <heavy_atom_count>  (1768) 
49

>  <molecular_weight>  (1768) 
684.82

>  <exact_molecular_weight>  (1768) 
684.35096

>  <molecular_formula>  (1768) 
C38H52O11

>  <alogp>  (1768) 
6.37

>  <topological_polar_surface_area>  (1768) 
140.73

>  <rotatable_bond_count>  (1768) 
15

>  <hydrogen_bond_acceptors>  (1768) 
11

>  <hydrogen_bond_donors>  (1768) 
0

>  <hydrogen_bond_acceptors_lipinski>  (1768) 
11

>  <hydrogen_bond_donors_lipinski>  (1768) 
0

>  <lipinski_rule_of_five_violations>  (1768) 
3

>  <aromatic_rings_count>  (1768) 
0

>  <qed_drug_likeliness>  (1768) 
0.05

>  <formal_charge>  (1768) 
0

>  <fractioncsp3>  (1768) 
0.61

>  <number_of_minimal_rings>  (1768) 
3

>  <van_der_walls_volume>  (1768) 
642.48

>  <contains_sugar>  (1768) 
False

>  <contains_ring_sugars>  (1768) 
False

>  <contains_linear_sugars>  (1768) 
False

>  <murcko_framework>  (1768) 
O1CC2=CCCC3CCCCC23C1

>  <np_likeness>  (1768) 
3.03

>  <chemical_class>  (1768) 
Prenol lipids

>  <chemical_sub_class>  (1768) 
Diterpenoids

>  <chemical_super_class>  (1768) 
Lipids and lipid-like molecules

>  <direct_parent_classification>  (1768) 
Colensane and clerodane diterpenoids

>  <np_classifier_pathway>  (1768) 
Terpenoids

>  <np_classifier_superclass>  (1768) 
Diterpenoids

>  <np_classifier_class>  (1768) 
Colensane and Clerodane diterpenoids

>  <np_classifier_is_glycoside>  (1768) 
True

>  <organisms>  (1768) 
Casearia rupestris

>  <collections>  (1768) 
ChemSpider NPs|Latin America dataset|NuBBEDB|Super Natural II|WikiData Natural Products|ZINC NP

>  <dois>  (1768) 
10.1021/NP100840W|10.1021/np100840w

>  <synonyms>  (1768) 
26-di-O-acetylcasearupestrin D

>  <cas>  (1768) 
nan

$$$$

     RDKit          2D

 39 43  0  0  0  0  0  0  0  0999 V2000
    0.2516    5.7935    0.0000 C   0  0  0  0  0  0  0  0  0  0  0  0
   -0.0350    4.3212    0.0000 C   0  0  0  0  0  0  0  0  0  0  0  0
    1.0968    3.3368    0.0000 C   0  0  0  0  0  0  0  0  0  0  0  0
    2.5152    3.8247    0.0000 C   0  0  0  0  0  0  0  0  0  0  0  0
    0.8101    1.8644    0.0000 C   0  0  0  0  0  0  0  0  0  0  0  0
    1.7125    0.6662    0.0000 C   0  0  0  0  0  0  0  0  0  0  0  0
    3.2123    0.6920    0.0000 C   0  0  0  0  0  0  0  0  0  0  0  0
    3.9845   -0.5940    0.0000 C   0  0  0  0  0  0  0  0  0  0  0  0
    3.3980   -1.9746    0.0000 C   0  0  0  0  0  0  0  0  0  0  0  0
    4.5298   -2.9590    0.0000 N   0  0  0  0  0  0  0  0  0  0  0  0
    5.8158   -2.1868    0.0000 C   0  0  0  0  0  0  0  0  0  0  0  0
    7.2501   -2.6258    0.0000 C   0  0  0  0  0  0  0  0  0  0  0  0
    8.3474   -1.6031    0.0000 C   0  0  0  0  0  0  0  0  0  0  0  0
    8.0104   -0.1414    0.0000 C   0  0  0  0  0  0  0  0  0  0  0  0
    6.5761    0.2975    0.0000 C   0  0  0  0  0  0  0  0  0  0  0  0
    5.4787   -0.7252    0.0000 C   0  0  0  0  0  0  0  0  0  0  0  0
    0.8518   -0.5623    0.0000 N   0  0  0  0  0  0  0  0  0  0  0  0
   -0.5825   -0.1233    0.0000 C   0  0  0  0  0  0  0  0  0  0  0  0
   -1.2193   -0.6029    0.0000 O   0  0  0  0  0  0  0  0  0  0  0  0
   -0.6083    1.3765    0.0000 C   0  0  0  0  0  0  0  0  0  0  0  0
   -0.7164    0.5869    0.0000 C   0  0  0  0  0  0  0  0  0  0  0  0
    0.3086    0.2141    0.0000 O   0  0  0  0  0  0  0  0  0  0  0  0
   -1.5443   -1.0273    0.0000 C   0  0  0  0  0  0  0  0  0  0  0  0
   -2.0095   -1.7146    0.0000 C   0  0  0  0  0  0  0  0  0  0  0  0
   -2.7408   -2.1070    0.0000 C   0  0  0  0  0  0  0  0  0  0  0  0
   -2.0212   -4.9162    0.0000 O   0  0  0  0  0  0  0  0  0  0  0  0
   -3.5707   -2.1145    0.0000 C   0  0  0  0  0  0  0  0  0  0  0  0
   -4.2390   -4.9365    0.0000 O   0  0  0  0  0  0  0  0  0  0  0  0
   -4.3091   -1.7356    0.0000 C   0  0  0  0  0  0  0  0  0  0  0  0
   -6.2123   -3.9237    0.0000 C   0  0  0  0  0  0  0  0  0  0  0  0
   -4.7867   -1.0569    0.0000 C   0  0  0  0  0  0  0  0  0  0  0  0
   -4.8943   -0.2340    0.0000 C   0  0  0  0  0  0  0  0  0  0  0  0
   -7.7762    0.0893    0.0000 C   0  0  0  0  0  0  0  0  0  0  0  0
   -4.6071    0.5447    0.0000 C   0  0  0  0  0  0  0  0  0  0  0  0
   -3.9909    1.1007    0.0000 C   0  0  0  0  0  0  0  0  0  0  0  0
   -2.5070    2.1444    0.0000 C   0  0  0  0  0  0  0  0  0  0  0  0
   -1.7401    2.3609    0.0000 C   0  0  0  0  0  0  0  0  0  0  0  0
   -1.4534    3.8332    0.0000 C   0  0  0  0  0  0  0  0  0  0  0  0
   -2.5852    4.8176    0.0000 O   0  0  0  0  0  0  0  0  0  0  0  0
  1  2  2  0
  2  3  1  0
  3  4  1  1
  3  5  1  0
  5  6  1  1
  6  7  1  0
  7  8  1  0
  8  9  2  0
  9 10  1  0
 10 11  1  0
 11 12  2  0
 12 13  1  0
 13 14  2  0
 14 15  1  0
 15 16  2  0
  6 17  1  0
 17 18  1  0
 18 19  2  0
 20 18  1  1
 20 21  1  0
 21 22  2  0
 21 23  1  0
 23 24  2  0
 24 25  1  0
 25 26  2  0
 25 27  1  0
 27 28  1  1
 27 29  1  0
 29 30  1  0
 29 31  2  0
 31 32  1  0
 32 33  1  6
 32 34  1  0
 34 35  1  0
 35 36  2  3
 37 36  1  1
 37 38  1  0
 38 39  1  6
 38  2  1  0
 20  5  1  0
 16  8  1  0
 37 20  1  0
 16 11  1  0
M  END
>  <identifier>  (1769) 
CNP0116036.4

>  <canonical_smiles>  (1769) 
C=C1[C@@H](C)[C@H]2C(CC3=CNC4=CC=CC=C34)NC(=O)[C@]23C(=O)/C=C\C(=O)[C@@H](O)/C(C)=C\[C@H](C)CC=C[C@H]3[C@@H]1O

>  <standard_inchi>  (1769) 
InChI=1S/C32H36N2O5/c1-17-8-7-10-23-30(38)20(4)19(3)28-25(15-21-16-33-24-11-6-5-9-22(21)24)34-31(39)32(23,28)27(36)13-12-26(35)29(37)18(2)14-17/h5-7,9-14,16-17,19,23,25,28-30,33,37-38H,4,8,15H2,1-3H3,(H,34,39)/b10-7?,13-12-,18-14-/t17-,19-,23+,25?,28+,29+,30-,32-/m1/s1

>  <standard_inchi_key>  (1769) 
FTBNYQWFSWKCKW-ZVBYSYHLSA-N

>  <name>  (1769) 
Chaetoglobosin D

>  <iupac_name>  (1769) 
(1~{R},3~{Z},6~{S},7~{Z},9~{R},13~{R},14~{S},16~{S},17~{R})-6,14-dihydroxy-18-(1~{H}-indol-3-ylmethyl)-7,9,16-trimethyl-15-methylene-19-azatricyclo[11.7.0.0^{1,17}]icosa-3,7,11-triene-2,5,20-trione

>  <annotation_level>  (1769) 
5

>  <total_atom_count>  (1769) 
75

>  <heavy_atom_count>  (1769) 
39

>  <molecular_weight>  (1769) 
528.65

>  <exact_molecular_weight>  (1769) 
528.26242

>  <molecular_formula>  (1769) 
C32H36N2O5

>  <alogp>  (1769) 
3.59

>  <topological_polar_surface_area>  (1769) 
119.49

>  <rotatable_bond_count>  (1769) 
2

>  <hydrogen_bond_acceptors>  (1769) 
5

>  <hydrogen_bond_donors>  (1769) 
4

>  <hydrogen_bond_acceptors_lipinski>  (1769) 
5

>  <hydrogen_bond_donors_lipinski>  (1769) 
4

>  <lipinski_rule_of_five_violations>  (1769) 
1

>  <aromatic_rings_count>  (1769) 
2

>  <qed_drug_likeliness>  (1769) 
0.35

>  <formal_charge>  (1769) 
0

>  <fractioncsp3>  (1769) 
0.41

>  <number_of_minimal_rings>  (1769) 
5

>  <van_der_walls_volume>  (1769) 
nan

>  <contains_sugar>  (1769) 
False

>  <contains_ring_sugars>  (1769) 
False

>  <contains_linear_sugars>  (1769) 
False

>  <murcko_framework>  (1769) 
c1ccc2c(c1)[nH]cc2CC3NCC45CC=CCCC=CCCC=CC5CCCC34

>  <np_likeness>  (1769) 
2.56

>  <chemical_class>  (1769) 
Isoindoles and derivatives

>  <chemical_sub_class>  (1769) 
Isoindolines

>  <chemical_super_class>  (1769) 
Organoheterocyclic compounds

>  <direct_parent_classification>  (1769) 
Isoindolones

>  <np_classifier_pathway>  (1769) 
Alkaloids

>  <np_classifier_superclass>  (1769) 
Pseudoalkaloids

>  <np_classifier_class>  (1769) 
Cytochalasan alkaloids

>  <np_classifier_is_glycoside>  (1769) 
False

>  <organisms>  (1769) 
Chaetomium globosum

>  <collections>  (1769) 
Latin America dataset|NuBBEDB

>  <dois>  (1769) 
10.1590/s0100-40422008000700015

>  <synonyms>  (1769) 
Chaetoglobosin D

>  <cas>  (1769) 
nan

$$$$

     RDKit          2D

 30 32  0  0  0  0  0  0  0  0999 V2000
   -3.3545    4.0700    0.0000 C   0  0  0  0  0  0  0  0  0  0  0  0
   -4.2819    2.8910    0.0000 O   0  0  0  0  0  0  0  0  0  0  0  0
   -3.7245    1.4984    0.0000 C   0  0  0  0  0  0  0  0  0  0  0  0
   -2.2398    1.2848    0.0000 C   0  0  0  0  0  0  0  0  0  0  0  0
   -1.6825   -0.1079    0.0000 C   0  0  0  0  0  0  0  0  0  0  0  0
   -0.1978   -0.3215    0.0000 C   0  0  0  0  0  0  0  0  0  0  0  0
    0.3595   -1.7141    0.0000 C   0  0  0  0  0  0  0  0  0  0  0  0
   -0.5679   -2.8931    0.0000 O   0  0  0  0  0  0  0  0  0  0  0  0
   -2.0526   -2.6794    0.0000 C   0  0  0  0  0  0  0  0  0  0  0  0
    1.8442   -1.9278    0.0000 C   0  0  0  0  0  0  0  0  0  0  0  0
    2.4015   -3.3204    0.0000 O   0  0  0  0  0  0  0  0  0  0  0  0
    2.7716   -0.7488    0.0000 C   0  0  0  0  0  0  0  0  0  0  0  0
    4.2563   -0.9625    0.0000 C   0  0  0  0  0  0  0  0  0  0  0  0
    4.8136   -2.3551    0.0000 O   0  0  0  0  0  0  0  0  0  0  0  0
    6.2983   -2.5688    0.0000 C   0  0  0  0  0  0  0  0  0  0  0  0
    5.1837    0.2165    0.0000 C   0  0  0  0  0  0  0  0  0  0  0  0
    4.6264    1.6091    0.0000 C   0  0  0  0  0  0  0  0  0  0  0  0
    5.5538    2.7881    0.0000 O   0  0  0  0  0  0  0  0  0  0  0  0
    7.0385    2.5744    0.0000 C   0  0  0  0  0  0  0  0  0  0  0  0
    3.1417    1.8228    0.0000 C   0  0  0  0  0  0  0  0  0  0  0  0
    2.5843    3.2154    0.0000 O   0  0  0  0  0  0  0  0  0  0  0  0
    2.2143    0.6438    0.0000 C   0  0  0  0  0  0  0  0  0  0  0  0
    0.7296    0.8575    0.0000 O   0  0  0  0  0  0  0  0  0  0  0  0
   -2.6099   -1.2868    0.0000 C   0  0  0  0  0  0  0  0  0  0  0  0
   -4.0946   -1.0732    0.0000 C   0  0  0  0  0  0  0  0  0  0  0  0
   -5.0220   -2.2521    0.0000 O   0  0  0  0  0  0  0  0  0  0  0  0
   -6.5067   -2.0385    0.0000 C   0  0  0  0  0  0  0  0  0  0  0  0
   -4.6519    0.3195    0.0000 C   0  0  0  0  0  0  0  0  0  0  0  0
   -6.1366    0.5331    0.0000 O   0  0  0  0  0  0  0  0  0  0  0  0
   -6.6940    1.9257    0.0000 C   0  0  0  0  0  0  0  0  0  0  0  0
  1  2  1  0
  2  3  1  0
  3  4  2  0
  4  5  1  0
  5  6  1  0
  6  7  2  0
  7  8  1  0
  8  9  1  0
  7 10  1  0
 10 11  2  0
 10 12  1  0
 12 13  2  0
 13 14  1  0
 14 15  1  0
 13 16  1  0
 16 17  2  0
 17 18  1  0
 18 19  1  0
 17 20  1  0
 20 21  1  0
 20 22  2  0
 22 23  1  0
  5 24  2  0
 24 25  1  0
 25 26  1  0
 26 27  1  0
 25 28  2  0
 28 29  1  0
 29 30  1  0
 28  3  1  0
 23  6  1  0
 22 12  1  0
M  END
>  <identifier>  (1770) 
CNP0221204.0

>  <canonical_smiles>  (1770) 
COC1=CC(C2=C(OC)C(=O)C3=C(OC)C=C(OC)C(O)=C3O2)=CC(OC)=C1OC

>  <standard_inchi>  (1770) 
InChI=1S/C21H22O9/c1-24-11-9-12(25-2)16(22)20-15(11)17(23)21(29-6)18(30-20)10-7-13(26-3)19(28-5)14(8-10)27-4/h7-9,22H,1-6H3

>  <standard_inchi_key>  (1770) 
VZZSHWGQMLXLPF-UHFFFAOYSA-N

>  <name>  (1770) 
8-Hydroxy-3,5,7,3',4',5'-hexamethoxyflavone

>  <iupac_name>  (1770) 
8-hydroxy-3,5,7-trimethoxy-2-(3,4,5-trimethoxyphenyl)chromen-4-one

>  <annotation_level>  (1770) 
5

>  <total_atom_count>  (1770) 
52

>  <heavy_atom_count>  (1770) 
30

>  <molecular_weight>  (1770) 
418.4

>  <exact_molecular_weight>  (1770) 
418.12638

>  <molecular_formula>  (1770) 
C21H22O9

>  <alogp>  (1770) 
3.22

>  <topological_polar_surface_area>  (1770) 
105.82

>  <rotatable_bond_count>  (1770) 
7

>  <hydrogen_bond_acceptors>  (1770) 
9

>  <hydrogen_bond_donors>  (1770) 
1

>  <hydrogen_bond_acceptors_lipinski>  (1770) 
9

>  <hydrogen_bond_donors_lipinski>  (1770) 
1

>  <lipinski_rule_of_five_violations>  (1770) 
0

>  <aromatic_rings_count>  (1770) 
3

>  <qed_drug_likeliness>  (1770) 
0.62

>  <formal_charge>  (1770) 
0

>  <fractioncsp3>  (1770) 
0.29

>  <number_of_minimal_rings>  (1770) 
3

>  <van_der_walls_volume>  (1770) 
359.14

>  <contains_sugar>  (1770) 
False

>  <contains_ring_sugars>  (1770) 
False

>  <contains_linear_sugars>  (1770) 
False

>  <murcko_framework>  (1770) 
O1c2ccccc2CC=C1c3ccccc3

>  <np_likeness>  (1770) 
1.15

>  <chemical_class>  (1770) 
Flavonoids

>  <chemical_sub_class>  (1770) 
O-methylated flavonoids

>  <chemical_super_class>  (1770) 
Phenylpropanoids and polyketides

>  <direct_parent_classification>  (1770) 
3-O-methylated flavonoids

>  <np_classifier_pathway>  (1770) 
Shikimates and Phenylpropanoids

>  <np_classifier_superclass>  (1770) 
Flavonoids

>  <np_classifier_class>  (1770) 
Flavonols

>  <np_classifier_is_glycoside>  (1770) 
False

>  <organisms>  (1770) 
Murraya Paniculata|Murraya paniculata

>  <collections>  (1770) 
Australian natural products|KNApSaCK|Latin America dataset|NPEdia|NuBBEDB|Super Natural II|TIPdb (database of Taiwan indigenous plants)|UNPD (Universal Natural Products Database)|VietHerb|WikiData Natural Products|ZINC NP

>  <dois>  (1770) 
10.1016/S0031-9422(97)00598-0|10.1016/s0031-9422(97)00598-0|10.1211/JPP.61.02.0017

>  <synonyms>  (1770) 
202846-95-5|4H-1-Benzopyran-4-one, 8-hydroxy-3,5,7-trimethoxy-2-(3,4,5-trimethoxyphenyl)-|8-Hydroxy-3,5,7,3',4',5'-hexamethoxyflavone|8-Hydroxy-3,5,7-trimethoxy-2-(3,4,5-trimethoxyphenyl)-4H-1-benzopyran-4-one|8-hydroxy-3,5,7-trimethoxy-2-(3,4,5-trimethoxyphenyl)chromen-4-one|8-hydroxy-3573'4'5'-hexamethoxyflavonol|AKOS022184784|CHEBI:166623|CS-0023283|FS-9533|HY-N2774|LMPK12113280

>  <cas>  (1770) 
202846-95-5

$$$$

     RDKit          2D

 19 21  0  0  0  0  0  0  0  0999 V2000
   -4.3481    0.8049    0.0000 C   0  0  0  0  0  0  0  0  0  0  0  0
   -3.1941   -0.1533    0.0000 C   0  0  0  0  0  0  0  0  0  0  0  0
   -4.3381   -1.1235    0.0000 C   0  0  0  0  0  0  0  0  0  0  0  0
   -2.4373   -1.4485    0.0000 O   0  0  0  0  0  0  0  0  0  0  0  0
   -0.9374   -1.4407    0.0000 C   0  0  0  0  0  0  0  0  0  0  0  0
   -0.1806   -2.7358    0.0000 C   0  0  0  0  0  0  0  0  0  0  0  0
    1.3194   -2.7280    0.0000 C   0  0  0  0  0  0  0  0  0  0  0  0
    2.0626   -1.4251    0.0000 C   0  0  0  0  0  0  0  0  0  0  0  0
    3.5626   -1.4173    0.0000 C   0  0  0  0  0  0  0  0  0  0  0  0
    4.3058   -0.1144    0.0000 C   0  0  0  0  0  0  0  0  0  0  0  0
    3.5491    1.1807    0.0000 C   0  0  0  0  0  0  0  0  0  0  0  0
    4.2923    2.4837    0.0000 O   0  0  0  0  0  0  0  0  0  0  0  0
    2.0491    1.1730    0.0000 O   0  0  0  0  0  0  0  0  0  0  0  0
    1.3059   -0.1300    0.0000 C   0  0  0  0  0  0  0  0  0  0  0  0
   -0.1941   -0.1378    0.0000 C   0  0  0  0  0  0  0  0  0  0  0  0
   -0.9509    1.1574    0.0000 C   0  0  0  0  0  0  0  0  0  0  0  0
   -0.2076    2.4603    0.0000 O   0  0  0  0  0  0  0  0  0  0  0  0
   -2.4508    1.1496    0.0000 C   0  0  0  0  0  0  0  0  0  0  0  0
   -3.2076    2.4447    0.0000 O   0  0  0  0  0  0  0  0  0  0  0  0
  1  2  1  0
  2  3  1  0
  2  4  1  0
  4  5  1  0
  5  6  2  0
  6  7  1  0
  7  8  2  0
  8  9  1  0
  9 10  2  0
 10 11  1  0
 11 12  2  0
 11 13  1  0
 13 14  1  0
 14 15  2  0
 15 16  1  0
 16 17  1  1
 16 18  1  0
 18 19  1  6
 18  2  1  0
 15  5  1  0
 14  8  1  0
M  END
>  <identifier>  (1771) 
CNP0179420.4

>  <canonical_smiles>  (1771) 
CC1(C)OC2=CC=C3C=CC(=O)OC3=C2[C@H](O)[C@H]1O

>  <standard_inchi>  (1771) 
InChI=1S/C14H14O5/c1-14(2)13(17)11(16)10-8(19-14)5-3-7-4-6-9(15)18-12(7)10/h3-6,11,13,16-17H,1-2H3/t11-,13+/m0/s1

>  <standard_inchi_key>  (1771) 
HKXQUNNSKMWIKJ-WCQYABFASA-N

>  <name>  (1771) 
trans-Khellactone

>  <iupac_name>  (1771) 
(9~{R},10~{S})-9,10-dihydroxy-8,8-dimethyl-9,10-dihydropyrano[2,3-f]chromen-2-one

>  <annotation_level>  (1771) 
5

>  <total_atom_count>  (1771) 
33

>  <heavy_atom_count>  (1771) 
19

>  <molecular_weight>  (1771) 
262.26

>  <exact_molecular_weight>  (1771) 
262.08412

>  <molecular_formula>  (1771) 
C14H14O5

>  <alogp>  (1771) 
1.36

>  <topological_polar_surface_area>  (1771) 
79.90

>  <rotatable_bond_count>  (1771) 
0

>  <hydrogen_bond_acceptors>  (1771) 
5

>  <hydrogen_bond_donors>  (1771) 
2

>  <hydrogen_bond_acceptors_lipinski>  (1771) 
5

>  <hydrogen_bond_donors_lipinski>  (1771) 
2

>  <lipinski_rule_of_five_violations>  (1771) 
0

>  <aromatic_rings_count>  (1771) 
2

>  <qed_drug_likeliness>  (1771) 
0.70

>  <formal_charge>  (1771) 
0

>  <fractioncsp3>  (1771) 
0.36

>  <number_of_minimal_rings>  (1771) 
3

>  <van_der_walls_volume>  (1771) 
223.14

>  <contains_sugar>  (1771) 
False

>  <contains_ring_sugars>  (1771) 
False

>  <contains_linear_sugars>  (1771) 
False

>  <murcko_framework>  (1771) 
O1c2ccc3C=CCOc3c2CCC1

>  <np_likeness>  (1771) 
2.21

>  <chemical_class>  (1771) 
Coumarins and derivatives

>  <chemical_sub_class>  (1771) 
Pyranocoumarins

>  <chemical_super_class>  (1771) 
Phenylpropanoids and polyketides

>  <direct_parent_classification>  (1771) 
Angular pyranocoumarins

>  <np_classifier_pathway>  (1771) 
Shikimates and Phenylpropanoids

>  <np_classifier_superclass>  (1771) 
Coumarins

>  <np_classifier_class>  (1771) 
Pyranocoumarins

>  <np_classifier_is_glycoside>  (1771) 
False

>  <organisms>  (1771) 
Ammi visnaga|Angelica decursiva|Angelica furcijuga|Angelica tenuisecta var. furcijuga|Apium leptophyllum|Citrus japonica|Citrus sinensis|Cyclospermum leptophyllum|Hyuganatsu|Kitagawia praeruptora|Kumquat|Peucedanum praeruptorum|Seseli campestre|Visnaga daucoides

>  <collections>  (1771) 
Australian natural products|CMAUP (cCollective molecular activities of useful plants)|Latin America dataset|NPASS|NuBBEDB|Super Natural II|WikiData Natural Products|ZINC NP

>  <dois>  (1771) 
10.1002/ARDP.19572900609|10.1007/BF00579631|10.1016/0031-9422(80)80223-8|10.1016/0031-9422(95)00783-0|10.1016/S0960-894X(98)00391-6|10.1021/jf801103p|10.1248/CPB.38.2586

>  <synonyms>  (1771) 
(-)-trans-khellactone|(9R,10S)-9,10-Dihydro-9,10-dihydroxy-8,8-dimethyl-2H,8H-benzo(1,2-b:3,4-b')dipyran-2-one|(9R,10S)-9,10-dihydroxy-8,8-dimethyl-9,10-dihydropyrano[2,3-f]chromen-2-one|15575-68-5|17SSV9BI4T|23458-04-0|2H,8H-BENZO(1,2-B:3,4-B')DIPYRAN-2-ONE, 9,10-DIHYDRO-9.ALPHA.,10.BETA.-DIHYDROXY-8,8-DIMETHYL-|2H,8H-Benzo(1,2-b:3,4-b')dipyran-2-one, 9,10-dihydro-9,10-dihydroxy-8,8-dimethyl-, (9R,10S)-|2H,8H-Benzo(1,2-b:3,4-b')dipyran-2-one, 9,10-dihydro-9alpha,10beta-dihydroxy-8,8-dimethyl-|AKOS040762443|CHEMBL72096|CIJ6HK1AGB|HMS2198O10|Khellactone, trans-(-)-|MLS002472926|SMR001397037|Trans-kellactone|UNII-17SSV9BI4T|UNII-CIJ6HK1AGB|XK163681|trans-(-)-Khellactone

>  <cas>  (1771) 
23458-04-0|15575-68-5

$$$$

     RDKit          2D

 22 24  0  0  0  0  0  0  0  0999 V2000
   -4.3384    3.7777    0.0000 C   0  0  0  0  0  0  0  0  0  0  0  0
   -3.0776    2.9651    0.0000 O   0  0  0  0  0  0  0  0  0  0  0  0
   -3.1509    1.4669    0.0000 C   0  0  0  0  0  0  0  0  0  0  0  0
   -4.4851    0.7813    0.0000 C   0  0  0  0  0  0  0  0  0  0  0  0
   -4.5584   -0.7169    0.0000 C   0  0  0  0  0  0  0  0  0  0  0  0
   -3.2976   -1.5295    0.0000 C   0  0  0  0  0  0  0  0  0  0  0  0
   -1.9634   -0.8439    0.0000 C   0  0  0  0  0  0  0  0  0  0  0  0
   -1.8901    0.6543    0.0000 C   0  0  0  0  0  0  0  0  0  0  0  0
   -0.5560    1.3399    0.0000 C   0  0  0  0  0  0  0  0  0  0  0  0
    0.7049    0.5273    0.0000 C   0  0  0  0  0  0  0  0  0  0  0  0
    2.0390    1.2129    0.0000 C   0  0  0  0  0  0  0  0  0  0  0  0
    3.2998    0.4003    0.0000 C   0  0  0  0  0  0  0  0  0  0  0  0
    3.2265   -1.0979    0.0000 C   0  0  0  0  0  0  0  0  0  0  0  0
    4.4874   -1.9105    0.0000 C   0  0  0  0  0  0  0  0  0  0  0  0
    5.8215   -1.2249    0.0000 C   0  0  0  0  0  0  0  0  0  0  0  0
    7.0823   -2.0375    0.0000 O   0  0  0  0  0  0  0  0  0  0  0  0
    5.8948    0.2733    0.0000 C   0  0  0  0  0  0  0  0  0  0  0  0
    4.6340    1.0859    0.0000 C   0  0  0  0  0  0  0  0  0  0  0  0
    4.7073    2.5841    0.0000 O   0  0  0  0  0  0  0  0  0  0  0  0
   -3.6808   -2.9797    0.0000 O   0  0  0  0  0  0  0  0  0  0  0  0
   -5.1784   -3.0634    0.0000 C   0  0  0  0  0  0  0  0  0  0  0  0
   -5.7208   -1.6649    0.0000 O   0  0  0  0  0  0  0  0  0  0  0  0
  1  2  1  0
  2  3  1  0
  3  4  2  0
  4  5  1  0
  5  6  2  0
  6  7  1  0
  7  8  2  0
  8  9  1  0
  9 10  1  0
 10 11  1  0
 11 12  1  0
 12 13  2  0
 13 14  1  0
 14 15  2  0
 15 16  1  0
 15 17  1  0
 17 18  2  0
 18 19  1  0
  6 20  1  0
 20 21  1  0
 21 22  1  0
  8  3  1  0
 18 12  1  0
 22  5  1  0
M  END
>  <identifier>  (1772) 
CNP0169612.0

>  <canonical_smiles>  (1772) 
COC1=CC2=C(C=C1CCCC1=CC=C(O)C=C1O)OCO2

>  <standard_inchi>  (1772) 
InChI=1S/C17H18O5/c1-20-15-9-17-16(21-10-22-17)7-12(15)4-2-3-11-5-6-13(18)8-14(11)19/h5-9,18-19H,2-4,10H2,1H3

>  <standard_inchi_key>  (1772) 
USLUDJXONKCWOO-UHFFFAOYSA-N

>  <name>  (1772) 
nan

>  <iupac_name>  (1772) 
4-[3-(6-methoxy-1,3-benzodioxol-5-yl)propyl]benzene-1,3-diol

>  <annotation_level>  (1772) 
4

>  <total_atom_count>  (1772) 
40

>  <heavy_atom_count>  (1772) 
22

>  <molecular_weight>  (1772) 
302.33

>  <exact_molecular_weight>  (1772) 
302.11542

>  <molecular_formula>  (1772) 
C17H18O5

>  <alogp>  (1772) 
3.01

>  <topological_polar_surface_area>  (1772) 
68.15

>  <rotatable_bond_count>  (1772) 
5

>  <hydrogen_bond_acceptors>  (1772) 
5

>  <hydrogen_bond_donors>  (1772) 
2

>  <hydrogen_bond_acceptors_lipinski>  (1772) 
5

>  <hydrogen_bond_donors_lipinski>  (1772) 
2

>  <lipinski_rule_of_five_violations>  (1772) 
0

>  <aromatic_rings_count>  (1772) 
2

>  <qed_drug_likeliness>  (1772) 
0.89

>  <formal_charge>  (1772) 
0

>  <fractioncsp3>  (1772) 
0.29

>  <number_of_minimal_rings>  (1772) 
3

>  <van_der_walls_volume>  (1772) 
nan

>  <contains_sugar>  (1772) 
False

>  <contains_ring_sugars>  (1772) 
False

>  <contains_linear_sugars>  (1772) 
False

>  <murcko_framework>  (1772) 
O1c2ccc(cc2OC1)CCCc3ccccc3

>  <np_likeness>  (1772) 
0.77

>  <chemical_class>  (1772) 
Benzodioxoles

>  <chemical_sub_class>  (1772) 
Benzodioxoles

>  <chemical_super_class>  (1772) 
Organoheterocyclic compounds

>  <direct_parent_classification>  (1772) 
Benzodioxoles

>  <np_classifier_pathway>  (1772) 
Shikimates and Phenylpropanoids

>  <np_classifier_superclass>  (1772) 
nan

>  <np_classifier_class>  (1772) 
nan

>  <np_classifier_is_glycoside>  (1772) 
False

>  <organisms>  (1772) 
Iryanthera grandis|Iryanthera hostmannii|Iryanthera laevis|Iryanthera ulei

>  <collections>  (1772) 
Latin America dataset|NuBBEDB|Super Natural II|UNPD (Universal Natural Products Database)|WikiData Natural Products|ZINC NP

>  <dois>  (1772) 
10.1016/0031-9422(80)83082-2|10.1016/0031-9422(90)85388-V|10.1016/S0031-9422(00)81703-3

>  <synonyms>  (1772) 
4-(3-(5-methoxybenzo[d][13]dioxol-6-yl)propyl)benzene-13-diol

>  <cas>  (1772) 
nan

$$$$

     RDKit          2D

 47 52  0  0  0  0  0  0  0  0999 V2000
   -1.3994   -5.9952    0.0000 C   0  0  0  0  0  0  0  0  0  0  0  0
   -2.2705   -4.7740    0.0000 C   0  0  0  0  0  0  0  0  0  0  0  0
   -3.3218   -5.8439    0.0000 C   0  0  0  0  0  0  0  0  0  0  0  0
   -3.5067   -3.9245    0.0000 C   0  0  0  0  0  0  0  0  0  0  0  0
   -3.3891   -2.4291    0.0000 C   0  0  0  0  0  0  0  0  0  0  0  0
   -2.0352   -1.7833    0.0000 C   0  0  0  0  0  0  0  0  0  0  0  0
   -3.2714   -0.9337    0.0000 C   0  0  0  0  0  0  0  0  0  0  0  0
   -4.6253   -1.5795    0.0000 O   0  0  0  0  0  0  0  0  0  0  0  0
   -3.1538    0.5617    0.0000 O   0  0  0  0  0  0  0  0  0  0  0  0
   -4.3900    1.4113    0.0000 C   0  0  0  0  0  0  0  0  0  0  0  0
   -4.2723    2.9066    0.0000 O   0  0  0  0  0  0  0  0  0  0  0  0
   -5.5085    3.7562    0.0000 C   0  0  0  0  0  0  0  0  0  0  0  0
   -5.3909    5.2516    0.0000 C   0  0  0  0  0  0  0  0  0  0  0  0
   -4.0370    5.8974    0.0000 O   0  0  0  0  0  0  0  0  0  0  0  0
   -6.8624    3.1104    0.0000 C   0  0  0  0  0  0  0  0  0  0  0  0
   -8.0986    3.9600    0.0000 O   0  0  0  0  0  0  0  0  0  0  0  0
   -6.9800    1.6150    0.0000 C   0  0  0  0  0  0  0  0  0  0  0  0
   -8.3339    0.9692    0.0000 O   0  0  0  0  0  0  0  0  0  0  0  0
   -5.7438    0.7655    0.0000 C   0  0  0  0  0  0  0  0  0  0  0  0
   -5.8615   -0.7299    0.0000 O   0  0  0  0  0  0  0  0  0  0  0  0
   -1.9175   -0.2879    0.0000 C   0  0  0  0  0  0  0  0  0  0  0  0
   -0.5637    0.3579    0.0000 C   0  0  0  0  0  0  0  0  0  0  0  0
    0.6725   -0.4917    0.0000 C   0  0  0  0  0  0  0  0  0  0  0  0
    1.9087   -1.3413    0.0000 C   0  0  0  0  0  0  0  0  0  0  0  0
    0.5549   -1.9871    0.0000 C   0  0  0  0  0  0  0  0  0  0  0  0
    1.7911   -2.8366    0.0000 C   0  0  0  0  0  0  0  0  0  0  0  0
    3.1449   -2.1908    0.0000 C   0  0  0  0  0  0  0  0  0  0  0  0
    3.2626   -0.6955    0.0000 C   0  0  0  0  0  0  0  0  0  0  0  0
    4.6165   -0.0497    0.0000 C   0  0  0  0  0  0  0  0  0  0  0  0
    4.4988   -1.5450    0.0000 C   0  0  0  0  0  0  0  0  0  0  0  0
    5.8527   -0.8992    0.0000 C   0  0  0  0  0  0  0  0  0  0  0  0
    7.2065   -0.2534    0.0000 C   0  0  0  0  0  0  0  0  0  0  0  0
    8.4427   -1.1030    0.0000 O   0  0  0  0  0  0  0  0  0  0  0  0
    7.3242    1.2419    0.0000 C   0  0  0  0  0  0  0  0  0  0  0  0
    8.6780    1.8877    0.0000 O   0  0  0  0  0  0  0  0  0  0  0  0
    6.0880    2.0915    0.0000 C   0  0  0  0  0  0  0  0  0  0  0  0
    5.2169    3.3127    0.0000 C   0  0  0  0  0  0  0  0  0  0  0  0
    7.1393    3.1614    0.0000 C   0  0  0  0  0  0  0  0  0  0  0  0
    6.7384    4.6069    0.0000 O   0  0  0  0  0  0  0  0  0  0  0  0
    4.7341    1.4457    0.0000 C   0  0  0  0  0  0  0  0  0  0  0  0
    3.4979    2.2953    0.0000 C   0  0  0  0  0  0  0  0  0  0  0  0
    2.1440    1.6495    0.0000 C   0  0  0  0  0  0  0  0  0  0  0  0
    2.0264    0.1541    0.0000 C   0  0  0  0  0  0  0  0  0  0  0  0
    0.7902    1.0037    0.0000 C   0  0  0  0  0  0  0  0  0  0  0  0
   -0.7990   -2.6329    0.0000 C   0  0  0  0  0  0  0  0  0  0  0  0
   -0.9166   -4.1282    0.0000 C   0  0  0  0  0  0  0  0  0  0  0  0
    0.3196   -4.9778    0.0000 O   0  0  0  0  0  0  0  0  0  0  0  0
  1  2  1  0
  2  3  1  0
  2  4  1  0
  4  5  1  0
  5  6  1  0
  6  7  1  1
  7  8  2  0
  7  9  1  0
 10  9  1  1
 10 11  1  0
 11 12  1  0
 12 13  1  1
 13 14  1  0
 12 15  1  0
 15 16  1  6
 15 17  1  0
 17 18  1  1
 17 19  1  0
 19 20  1  6
  6 21  1  0
 21 22  1  0
 22 23  1  0
 23 24  1  6
 23 25  1  0
 25 26  2  0
 26 27  1  0
 28 27  1  1
 28 29  1  0
 29 30  1  1
 29 31  1  0
 31 32  1  0
 32 33  1  6
 32 34  1  0
 34 35  1  1
 34 36  1  0
 36 37  1  1
 36 38  1  0
 38 39  1  0
 36 40  1  0
 40 41  1  1
 41 42  1  0
 42 43  1  0
 43 44  1  1
 45 25  1  6
 45 46  1  0
 46 47  1  6
 46  2  1  0
 45  6  1  0
 19 10  1  0
 43 23  1  0
 43 28  1  0
 40 29  1  0
M  END
>  <identifier>  (1773) 
CNP0226326.1

>  <canonical_smiles>  (1773) 
CC1(C)CC[C@]2(C(=O)O[C@@H]3O[C@H](CO)[C@@H](O)[C@H](O)[C@H]3O)CC[C@]3(C)C(=CC[C@@H]4[C@@]5(C)C[C@@H](O)[C@H](O)[C@@](C)(CO)[C@@H]5CC[C@]43C)[C@@H]2[C@@H]1O

>  <standard_inchi>  (1773) 
InChI=1S/C36H58O11/c1-31(2)11-13-36(30(45)47-29-26(42)25(41)24(40)20(16-37)46-29)14-12-34(5)18(23(36)28(31)44)7-8-22-32(3)15-19(39)27(43)33(4,17-38)21(32)9-10-35(22,34)6/h7,19-29,37-44H,8-17H2,1-6H3/t19-,20-,21-,22-,23-,24-,25+,26-,27+,28+,29+,32+,33+,34-,35-,36+/m1/s1

>  <standard_inchi_key>  (1773) 
CMZFNIMQBCBHEX-APNSOIJXSA-N

>  <name>  (1773) 
arjunglucoside I

>  <iupac_name>  (1773) 
[(2~{S},3~{R},4~{S},5~{S},6~{R})-3,4,5-trihydroxy-6-(hydroxymethyl)tetrahydropyran-2-yl] (1~{S},4~{a}~{R},6~{a}~{R},6~{a}~{S},6~{b}~{R},8~{a}~{R},9~{R},10~{R},11~{R},12~{a}~{R},14~{b}~{S})-1,10,11-trihydroxy-9-(hydroxymethyl)-2,2,6~{a},6~{b},9,12~{a}-hexamethyl-1,3,4,5,6,6~{a},7,8,8~{a},10,11,12,13,14~{b}-tetradecahydropicene-4~{a}-carboxylate

>  <annotation_level>  (1773) 
5

>  <total_atom_count>  (1773) 
105

>  <heavy_atom_count>  (1773) 
47

>  <molecular_weight>  (1773) 
666.85

>  <exact_molecular_weight>  (1773) 
666.39791

>  <molecular_formula>  (1773) 
C36H58O11

>  <alogp>  (1773) 
1.41

>  <topological_polar_surface_area>  (1773) 
197.37

>  <rotatable_bond_count>  (1773) 
4

>  <hydrogen_bond_acceptors>  (1773) 
11

>  <hydrogen_bond_donors>  (1773) 
8

>  <hydrogen_bond_acceptors_lipinski>  (1773) 
11

>  <hydrogen_bond_donors_lipinski>  (1773) 
8

>  <lipinski_rule_of_five_violations>  (1773) 
3

>  <aromatic_rings_count>  (1773) 
0

>  <qed_drug_likeliness>  (1773) 
0.16

>  <formal_charge>  (1773) 
0

>  <fractioncsp3>  (1773) 
0.92

>  <number_of_minimal_rings>  (1773) 
6

>  <van_der_walls_volume>  (1773) 
613.60

>  <contains_sugar>  (1773) 
True

>  <contains_ring_sugars>  (1773) 
True

>  <contains_linear_sugars>  (1773) 
False

>  <murcko_framework>  (1773) 
O1CCCCC1OCC23CCCCC3C4=CCC5C(CCC6CCCCC65)C4CC2

>  <np_likeness>  (1773) 
2.96

>  <chemical_class>  (1773) 
Steroids and steroid derivatives

>  <chemical_sub_class>  (1773) 
Hydroxysteroids

>  <chemical_super_class>  (1773) 
Lipids and lipid-like molecules

>  <direct_parent_classification>  (1773) 
Hydroxysteroids

>  <np_classifier_pathway>  (1773) 
Terpenoids

>  <np_classifier_superclass>  (1773) 
Triterpenoids

>  <np_classifier_class>  (1773) 
Oleanane triterpenoids

>  <np_classifier_is_glycoside>  (1773) 
True

>  <organisms>  (1773) 
Adinandra nitida|Combretum molle|Combretum quadrangulare|Cornus officinalis|Prunella vulgaris|Pteleopsis suberosa Engl.et Diels|Rubus crataegifolius|Rudgea viburnioides|Rudgea viburnoides|Terminalia arjuna|Terminalia bellirica|Terminalia brownii|Terminalia chebula|Terminalia engleri|Terminalia glabrescens|Terminalia macroptera|Terminalia tropophylla|Trachelospermum asiaticum

>  <collections>  (1773) 
ANPDB|Australian natural products|CMAUP (cCollective molecular activities of useful plants)|ChemSpider NPs|ConMedNP|KNApSaCK|Latin America dataset|NANPDB (Natural Products from Northern African Sources)|NPASS|NuBBEDB|Super Natural II|TCMDB-Taiwan (Traditional Chinese Medicine database)|WikiData Natural Products|ZINC NP

>  <dois>  (1773) 
10.1002/PCA.643|10.1002/ptr.724|10.1002/ptr.724/full|10.1002/ptr.897/full|10.1007/BF02975185|10.1016/0031-9422(82)83042-2|10.1016/0031-9422(93)85243-K|10.1016/0031-9422(93)85243-k|10.1016/J.PHYTOCHEM.2006.07.017|10.1016/J.PHYTOCHEM.2009.09.027|10.1016/S0031-9422(00)98085-3|10.1016/S0031-9422(98)00154-X|10.1021/NP000486X|10.1021/NP060101W|10.1021/NP060101W.S001|10.1021/NP9704617|10.1021/NP990581+|10.1021/np9704617|10.1021/np990581+|10.1246/BCSJ.49.3213|10.1248/BPB.23.1328|10.1248/CPB.35.1833|10.1248/CPB.48.1114|10.1590/S0103-50532003000300021|10.3109/13880209409083014

>  <synonyms>  (1773) 
(2S,3R,4S,5S,6R)-3,4,5-TRIHYDROXY-6-(HYDROXYMETHYL)OXAN-2-YL (1S,4AR,6AS,6BR,8AR,9R,10R,11R,12AR,12BR,14BS)-1,10,11-TRIHYDROXY-9-(HYDROXYMETHYL)-2,2,6A,6B,9,12A-HEXAMETHYL-1,3,4,5,6,7,8,8A,10,11,12,12B,13,14B-TETRADECAHYDROPICENE-4A-CARBOXYLATE|2alpha,3beta,19alpha,23-Tetrahydroxyolean-12-en-28-oic acid beta-D-glucopyranosyl ester|4-episericoside|62319-70-4|AKOS040761373|Arjunglucoside I|Arjunglucoside I, >=95% (LC\/MS-ELSD)|CHEMBL446040|CS-0143342|FS-8179|HY-N8343|NS00057484|SCHEMBL21571937|[(2S,3R,4S,5S,6R)-3,4,5-trihydroxy-6-(hydroxymethyl)oxan-2-yl] (1S,4aR,6aR,6aS,6bR,8aR,9R,10R,11R,12aR,14bS)-1,10,11-trihydroxy-9-(hydroxymethyl)-2,2,6a,6b,9,12a-hexamethyl-1,3,4,5,6,6a,7,8,8a,10,11,12,13,14b-tetradecahydropicene-4a-carboxylate|arjunglucoside

>  <cas>  (1773) 
62319-70-4

$$$$

     RDKit          2D

  6  5  0  0  0  0  0  0  0  0999 V2000
   -3.2624   -0.2097    0.0000 C   0  0  0  0  0  0  0  0  0  0  0  0
   -1.9270    0.4734    0.0000 C   0  0  0  0  0  0  0  0  0  0  0  0
   -0.6677   -0.3416    0.0000 C   0  0  0  0  0  0  0  0  0  0  0  0
    0.6677    0.3416    0.0000 S   0  0  0  0  0  0  0  0  0  0  0  0
    1.9270   -0.4734    0.0000 S   0  0  0  0  0  0  0  0  0  0  0  0
    3.2624    0.2097    0.0000 C   0  0  0  0  0  0  0  0  0  0  0  0
  1  2  2  0
  2  3  1  0
  3  4  1  0
  4  5  1  0
  5  6  1  0
M  END
>  <identifier>  (1774) 
CNP0333880.0

>  <canonical_smiles>  (1774) 
C=CCSSC

>  <standard_inchi>  (1774) 
InChI=1S/C4H8S2/c1-3-4-6-5-2/h3H,1,4H2,2H3

>  <standard_inchi_key>  (1774) 
XNZOTQPMYMCTBZ-UHFFFAOYSA-N

>  <name>  (1774) 
ALLYL METHYL DISULFIDE

>  <iupac_name>  (1774) 
3-(methyldisulfanyl)prop-1-ene

>  <annotation_level>  (1774) 
5

>  <total_atom_count>  (1774) 
14

>  <heavy_atom_count>  (1774) 
6

>  <molecular_weight>  (1774) 
120.24

>  <exact_molecular_weight>  (1774) 
120.00674

>  <molecular_formula>  (1774) 
C4H8S2

>  <alogp>  (1774) 
2.18

>  <topological_polar_surface_area>  (1774) 
0.00

>  <rotatable_bond_count>  (1774) 
3

>  <hydrogen_bond_acceptors>  (1774) 
2

>  <hydrogen_bond_donors>  (1774) 
0

>  <hydrogen_bond_acceptors_lipinski>  (1774) 
2

>  <hydrogen_bond_donors_lipinski>  (1774) 
0

>  <lipinski_rule_of_five_violations>  (1774) 
0

>  <aromatic_rings_count>  (1774) 
0

>  <qed_drug_likeliness>  (1774) 
0.32

>  <formal_charge>  (1774) 
0

>  <fractioncsp3>  (1774) 
0.50

>  <number_of_minimal_rings>  (1774) 
0

>  <van_der_walls_volume>  (1774) 
110.26

>  <contains_sugar>  (1774) 
False

>  <contains_ring_sugars>  (1774) 
False

>  <contains_linear_sugars>  (1774) 
False

>  <murcko_framework>  (1774) 
nan

>  <np_likeness>  (1774) 
1.45

>  <chemical_class>  (1774) 
Organic disulfides

>  <chemical_sub_class>  (1774) 
Dialkyldisulfides

>  <chemical_super_class>  (1774) 
Organosulfur compounds

>  <direct_parent_classification>  (1774) 
Dialkyldisulfides

>  <np_classifier_pathway>  (1774) 
nan

>  <np_classifier_superclass>  (1774) 
nan

>  <np_classifier_class>  (1774) 
nan

>  <np_classifier_is_glycoside>  (1774) 
False

>  <organisms>  (1774) 
Adenocalymma alliaceum|Allium Sativum|Allium Tuberosum|Allium ampeloprasum|Allium cepa|Allium chinense|Allium macrochaetum|Allium macrostemon|Allium sativum|Allium spp.|Allium tuberosum|Allium victorialis|Aniba megaphylla|Berberis integerrima|Capsella bursa-pastoris|Elephantopus angustifolius|Harrisonia perforata|Herbertus sakuraii|Homo sapiens|Isoplexis sceptrum|Libocedrus decurrens|Loranthus parasiticus|Mansoa alliacea|Nauclea latifolia|Ovibos moschatus|Rhodospirillum rubrum|garlic

>  <collections>  (1774) 
CMAUP (cCollective molecular activities of useful plants)|ChEBI NPs|ETM (Ethiopian Traditional Medicine) DB|FooDB|KNApSaCK|Latin America dataset|NPASS|NPEdia|NuBBEDB|Super Natural II|TCMDB-Taiwan (Traditional Chinese Medicine database)|TCMID (Traditional Chinese Medicine Integrated Database)|UNPD (Universal Natural Products Database)|VietHerb|WikiData Natural Products

>  <dois>  (1774) 
10.1016/0021-9673(94)80162-2|10.1016/j.cgh.2013.02.015|10.1021/JF00025A008|10.1021/JF00034A054|10.1021/JF00059A033|10.1021/JF00097A029|10.1021/JF00125A014|10.1021/JF801220B|10.1021/JF9803076|10.1021/jf00125a014|10.1055/S-2007-969089|10.1080/10412905.1991.9697935|10.1080/10412905.1997.9700732|10.1155/2017/6873651|10.1186/1756-3305-7-184|10.1271/BBB.56.1865|10.1603/EC12191|10.1603/ec12191

>  <synonyms>  (1774) 
1-allyl-2-methyldisulfane|2-propenylmethyldisulfide|2179-58-0|3-(Methyldisulfanyl)-1-propene|3-(methyldisulfanyl)prop-1-ene|3-(methyldithio)prop-1-ene|4,5-dithia-1-hexene|?Methyl allylic ii sulfur ether|A815666|AKOS006344179|ALLYL METHYL DISULFIDE [FHFI]|ALLYLMETHYLDISULFIDE|Allyl methyl disulphide|BS-44089|C08383|CCRIS 3266|CHEBI:6854|CS-0204953|D88486|DB-003718|DISULFIDE, METHYL-2-PROPENYL|DTXSID60176199|Disulfide, allyl methyl|Disulfide, methyl 2-propenyl|EINECS 218-549-1|EN300-1610756|FEMA 3127|FEMA No. 3127|MFCD00040023|Methyl 2-propenyl disulfide|Methyl allyl disulfide|NS00021855|OXW45UTR7B|Q27107347|SCHEMBL548935|SCHEMBL9535067|UNII-OXW45UTR7B|methylallyl disulphide

>  <cas>  (1774) 
2179-58-0

$$$$

     RDKit          2D

 21 23  0  0  0  0  0  0  0  0999 V2000
    3.7325    2.4472    0.0000 O   0  0  0  0  0  0  0  0  0  0  0  0
    3.6820    0.9481    0.0000 C   0  0  0  0  0  0  0  0  0  0  0  0
    2.3585    0.2422    0.0000 C   0  0  0  0  0  0  0  0  0  0  0  0
    1.0854    1.0355    0.0000 C   0  0  0  0  0  0  0  0  0  0  0  0
   -0.2381    0.3296    0.0000 C   0  0  0  0  0  0  0  0  0  0  0  0
   -1.5112    1.1229    0.0000 C   0  0  0  0  0  0  0  0  0  0  0  0
   -2.8347    0.4171    0.0000 C   0  0  0  0  0  0  0  0  0  0  0  0
   -2.8852   -1.0821    0.0000 C   0  0  0  0  0  0  0  0  0  0  0  0
   -4.2088   -1.7879    0.0000 C   0  0  0  0  0  0  0  0  0  0  0  0
   -5.4818   -0.9947    0.0000 C   0  0  0  0  0  0  0  0  0  0  0  0
   -6.9232   -1.4099    0.0000 O   0  0  0  0  0  0  0  0  0  0  0  0
   -7.7635   -0.1674    0.0000 C   0  0  0  0  0  0  0  0  0  0  0  0
   -6.8415    1.0158    0.0000 O   0  0  0  0  0  0  0  0  0  0  0  0
   -5.4313    0.5045    0.0000 C   0  0  0  0  0  0  0  0  0  0  0  0
   -4.1078    1.2104    0.0000 C   0  0  0  0  0  0  0  0  0  0  0  0
    4.9551    0.1548    0.0000 N   0  0  0  0  0  0  0  0  0  0  0  0
    4.9046   -1.3444    0.0000 C   0  0  0  0  0  0  0  0  0  0  0  0
    6.1777   -2.1377    0.0000 C   0  0  0  0  0  0  0  0  0  0  0  0
    7.5012   -1.4318    0.0000 C   0  0  0  0  0  0  0  0  0  0  0  0
    7.5517    0.0673    0.0000 C   0  0  0  0  0  0  0  0  0  0  0  0
    6.2786    0.8606    0.0000 C   0  0  0  0  0  0  0  0  0  0  0  0
  1  2  2  0
  2  3  1  0
  3  4  1  0
  4  5  1  0
  5  6  1  0
  6  7  1  0
  7  8  2  0
  8  9  1  0
  9 10  2  0
 10 11  1  0
 11 12  1  0
 12 13  1  0
 13 14  1  0
 14 15  2  0
  2 16  1  0
 16 17  1  0
 17 18  1  0
 18 19  1  0
 19 20  1  0
 20 21  1  0
 15  7  1  0
 21 16  1  0
 14 10  1  0
M  END
>  <identifier>  (1775) 
CNP0116175.0

>  <canonical_smiles>  (1775) 
O=C(CCCCC1=CC=C2OCOC2=C1)N1CCCCC1

>  <standard_inchi>  (1775) 
InChI=1S/C17H23NO3/c19-17(18-10-4-1-5-11-18)7-3-2-6-14-8-9-15-16(12-14)21-13-20-15/h8-9,12H,1-7,10-11,13H2

>  <standard_inchi_key>  (1775) 
APZYKUZPJCQGPP-UHFFFAOYSA-N

>  <name>  (1775) 
Tetrahydropiperine

>  <iupac_name>  (1775) 
5-(1,3-benzodioxol-5-yl)-1-(1-piperidyl)pentan-1-one

>  <annotation_level>  (1775) 
5

>  <total_atom_count>  (1775) 
44

>  <heavy_atom_count>  (1775) 
21

>  <molecular_weight>  (1775) 
289.38

>  <exact_molecular_weight>  (1775) 
289.16779

>  <molecular_formula>  (1775) 
C17H23NO3

>  <alogp>  (1775) 
3.14

>  <topological_polar_surface_area>  (1775) 
38.77

>  <rotatable_bond_count>  (1775) 
5

>  <hydrogen_bond_acceptors>  (1775) 
3

>  <hydrogen_bond_donors>  (1775) 
0

>  <hydrogen_bond_acceptors_lipinski>  (1775) 
3

>  <hydrogen_bond_donors_lipinski>  (1775) 
0

>  <lipinski_rule_of_five_violations>  (1775) 
0

>  <aromatic_rings_count>  (1775) 
1

>  <qed_drug_likeliness>  (1775) 
0.78

>  <formal_charge>  (1775) 
0

>  <fractioncsp3>  (1775) 
0.59

>  <number_of_minimal_rings>  (1775) 
3

>  <van_der_walls_volume>  (1775) 
278.58

>  <contains_sugar>  (1775) 
False

>  <contains_ring_sugars>  (1775) 
False

>  <contains_linear_sugars>  (1775) 
False

>  <murcko_framework>  (1775) 
O1c2ccc(cc2OC1)CCCCCN3CCCCC3

>  <np_likeness>  (1775) 
-0.40

>  <chemical_class>  (1775) 
Benzodioxoles

>  <chemical_sub_class>  (1775) 
Benzodioxoles

>  <chemical_super_class>  (1775) 
Organoheterocyclic compounds

>  <direct_parent_classification>  (1775) 
Benzodioxoles

>  <np_classifier_pathway>  (1775) 
Alkaloids

>  <np_classifier_superclass>  (1775) 
Lysine alkaloids

>  <np_classifier_class>  (1775) 
Piperidine alkaloids

>  <np_classifier_is_glycoside>  (1775) 
False

>  <organisms>  (1775) 
Piper longum|Piper sp.|Piper swartzianum|Piper tuberculatum

>  <collections>  (1775) 
ChemSpider NPs|Latin America dataset|NuBBEDB|PhytoLab phyproof® Reference Substances|Super Natural II|WikiData Natural Products|ZINC NP

>  <dois>  (1775) 
10.1007/S00044-008-9161-9|10.1007/s00044-008-9161-9|10.1016/S0305-1978(00)00083-1

>  <synonyms>  (1775) 
1-Pentanone, 5-(1,3-benzodioxol-5-yl)-1-(1-piperidinyl)-|1-[5-(1,3-Benzodioxol-5-yl)pentanoyl]piperidine #|1ST175423|23434-88-0|5-(1,3-benzodioxol-5-yl)-1-(1-piperidinyl)-1-pentanone|5-(1,3-benzodioxol-5-yl)-1-piperidin-1-ylpentan-1-one|5-(2H-1,3-BENZODIOXOL-5-YL)-1-(PIPERIDIN-1-YL)PENTAN-1-ONE|5-(3,4-Methylenedioxyphenyl) Pentanoicacid Piperidine Amide|5-(3,4-methylenedioxyphenyl)-pentanoylpiperidine|5-(Benzo[d][1,3]dioxol-5-yl)-1-(piperidin-1-yl)pentan-1-one|8904DO502T|AC-34775|AKOS030631903|BDBM50381233|BS-51886|CCG-267372|CHEBI:184110|CHEMBL332479|CS-0032425|Cosmoperine|DTXSID00177988|E77130|HMS3886A15|HY-N4205|MFCD17167032|NS00027417|Piperidine, 1-(5-(1,3-benzodioxol-5-yl)-1-oxopentyl)-|Piperidine, 1-(5-(3,4-(methylenedioxy)phenyl)valeryl)-|Q27269974|SCHEMBL4898699|TETRAHYDROPIPERINE [INCI]|Tetrahydropiperidine|TetrahydropiperinTetrahydropiperidine; Tetrahydropiperin|Tetrahydropiperine|UNII-8904DO502T|YAA43488|s5154

>  <cas>  (1775) 
23434-88-0

$$$$

     RDKit          2D

 30 33  0  0  0  0  0  0  0  0999 V2000
   -8.5562   -2.1316    0.0000 C   0  0  0  0  0  0  0  0  0  0  0  0
   -8.0224   -0.7298    0.0000 C   0  0  0  0  0  0  0  0  0  0  0  0
   -9.4956   -0.4475    0.0000 C   0  0  0  0  0  0  0  0  0  0  0  0
   -8.0002    0.7701    0.0000 C   0  0  0  0  0  0  0  0  0  0  0  0
   -6.6902    1.5008    0.0000 C   0  0  0  0  0  0  0  0  0  0  0  0
   -5.4024    0.7316    0.0000 C   0  0  0  0  0  0  0  0  0  0  0  0
   -4.0924    1.4623    0.0000 C   0  0  0  0  0  0  0  0  0  0  0  0
   -2.8046    0.6932    0.0000 C   0  0  0  0  0  0  0  0  0  0  0  0
   -1.4946    1.4239    0.0000 C   0  0  0  0  0  0  0  0  0  0  0  0
   -0.2068    0.6547    0.0000 C   0  0  0  0  0  0  0  0  0  0  0  0
    1.1032    1.3854    0.0000 C   0  0  0  0  0  0  0  0  0  0  0  0
    1.1253    2.8853    0.0000 O   0  0  0  0  0  0  0  0  0  0  0  0
    2.3910    0.6163    0.0000 C   0  0  0  0  0  0  0  0  0  0  0  0
    2.3688   -0.8835    0.0000 C   0  0  0  0  0  0  0  0  0  0  0  0
    1.0588   -1.6142    0.0000 O   0  0  0  0  0  0  0  0  0  0  0  0
    3.6566   -1.6527    0.0000 C   0  0  0  0  0  0  0  0  0  0  0  0
    4.9665   -0.9220    0.0000 C   0  0  0  0  0  0  0  0  0  0  0  0
    6.2543   -1.6911    0.0000 O   0  0  0  0  0  0  0  0  0  0  0  0
    7.5643   -0.9604    0.0000 C   0  0  0  0  0  0  0  0  0  0  0  0
    9.0452   -0.7218    0.0000 C   0  0  0  0  0  0  0  0  0  0  0  0
    8.0565   -2.3774    0.0000 C   0  0  0  0  0  0  0  0  0  0  0  0
    7.5865    0.5394    0.0000 C   0  0  0  0  0  0  0  0  0  0  0  0
    6.2987    1.3086    0.0000 C   0  0  0  0  0  0  0  0  0  0  0  0
    4.9887    0.5779    0.0000 C   0  0  0  0  0  0  0  0  0  0  0  0
    3.7009    1.3470    0.0000 C   0  0  0  0  0  0  0  0  0  0  0  0
    3.7231    2.8468    0.0000 O   0  0  0  0  0  0  0  0  0  0  0  0
   -2.8268   -0.8067    0.0000 C   0  0  0  0  0  0  0  0  0  0  0  0
   -4.1368   -1.5374    0.0000 C   0  0  0  0  0  0  0  0  0  0  0  0
   -5.4246   -0.7682    0.0000 C   0  0  0  0  0  0  0  0  0  0  0  0
   -6.7346   -1.4989    0.0000 O   0  0  0  0  0  0  0  0  0  0  0  0
  1  2  1  0
  2  3  1  0
  2  4  1  0
  4  5  1  0
  5  6  1  0
  6  7  2  0
  7  8  1  0
  8  9  1  0
  9 10  1  0
 10 11  1  0
 11 12  2  0
 11 13  1  0
 13 14  2  0
 14 15  1  0
 14 16  1  0
 16 17  2  0
 17 18  1  0
 18 19  1  0
 19 20  1  0
 19 21  1  0
 19 22  1  0
 22 23  1  0
 23 24  1  0
 24 25  2  0
 25 26  1  0
  8 27  2  0
 27 28  1  0
 28 29  2  0
 29 30  1  0
 30  2  1  0
 29  6  1  0
 25 13  1  0
 24 17  1  0
M  END
>  <identifier>  (1776) 
CNP0080574.0

>  <canonical_smiles>  (1776) 
CC1(C)CCC2=CC(CCC(=O)C3=C(O)C=C4OC(C)(C)CCC4=C3O)=CC=C2O1

>  <standard_inchi>  (1776) 
InChI=1S/C25H30O5/c1-24(2)11-9-16-13-15(6-8-20(16)29-24)5-7-18(26)22-19(27)14-21-17(23(22)28)10-12-25(3,4)30-21/h6,8,13-14,27-28H,5,7,9-12H2,1-4H3

>  <standard_inchi_key>  (1776) 
ROJMZFPQONDKBB-UHFFFAOYSA-N

>  <name>  (1776) 
1-(5,7-dihydroxy-2,2-dimethyl-3,4-dihydrochromen-6-yl)-3-(2,2-dimethyl-3,4-dihydrochromen-6-yl)propan-1-one

>  <iupac_name>  (1776) 
1-(5,7-dihydroxy-2,2-dimethyl-chroman-6-yl)-3-(2,2-dimethylchroman-6-yl)propan-1-one

>  <annotation_level>  (1776) 
5

>  <total_atom_count>  (1776) 
60

>  <heavy_atom_count>  (1776) 
30

>  <molecular_weight>  (1776) 
410.51

>  <exact_molecular_weight>  (1776) 
410.20932

>  <molecular_formula>  (1776) 
C25H30O5

>  <alogp>  (1776) 
5.12

>  <topological_polar_surface_area>  (1776) 
75.99

>  <rotatable_bond_count>  (1776) 
4

>  <hydrogen_bond_acceptors>  (1776) 
5

>  <hydrogen_bond_donors>  (1776) 
2

>  <hydrogen_bond_acceptors_lipinski>  (1776) 
5

>  <hydrogen_bond_donors_lipinski>  (1776) 
2

>  <lipinski_rule_of_five_violations>  (1776) 
1

>  <aromatic_rings_count>  (1776) 
2

>  <qed_drug_likeliness>  (1776) 
0.68

>  <formal_charge>  (1776) 
0

>  <fractioncsp3>  (1776) 
0.48

>  <number_of_minimal_rings>  (1776) 
4

>  <van_der_walls_volume>  (1776) 
nan

>  <contains_sugar>  (1776) 
False

>  <contains_ring_sugars>  (1776) 
False

>  <contains_linear_sugars>  (1776) 
False

>  <murcko_framework>  (1776) 
O1c2ccc(cc2CCC1)CCCc3ccc4OCCCc4c3

>  <np_likeness>  (1776) 
1.20

>  <chemical_class>  (1776) 
Linear 1,3-diarylpropanoids

>  <chemical_sub_class>  (1776) 
Chalcones and dihydrochalcones

>  <chemical_super_class>  (1776) 
Phenylpropanoids and polyketides

>  <direct_parent_classification>  (1776) 
2'-Hydroxy-dihydrochalcones

>  <np_classifier_pathway>  (1776) 
Shikimates and Phenylpropanoids

>  <np_classifier_superclass>  (1776) 
Flavonoids

>  <np_classifier_class>  (1776) 
Chalcones

>  <np_classifier_is_glycoside>  (1776) 
False

>  <organisms>  (1776) 
Metrodorea stipularis

>  <collections>  (1776) 
Latin America dataset|NPASS|NuBBEDB|WikiData Natural Products|ZINC NP

>  <dois>  (1776) 
10.1021/NP500453X|10.1021/np500453x

>  <synonyms>  (1776) 
1- (57-dihydroxy-22-dimethylchroman-6-yl)-3-(22-dimethylchroman- 6-yl)propan-1-one|1-(5,7-dihydroxy-2,2-dimethyl-chroman-6-yl)-3-(2,2-dimethylchroman-6-yl)propan-1-one|BDBM50032240|CHEMBL3352910

>  <cas>  (1776) 
nan

$$$$

     RDKit          2D

 30 33  0  0  0  0  0  0  0  0999 V2000
    1.0091   -5.0325    0.0000 C   0  0  0  0  0  0  0  0  0  0  0  0
    1.1280   -3.5372    0.0000 C   0  0  0  0  0  0  0  0  0  0  0  0
    2.4824   -2.8925    0.0000 O   0  0  0  0  0  0  0  0  0  0  0  0
   -0.1076   -2.6866    0.0000 O   0  0  0  0  0  0  0  0  0  0  0  0
    0.0113   -1.1913    0.0000 C   0  0  0  0  0  0  0  0  0  0  0  0
    1.3657   -0.5467    0.0000 C   0  0  0  0  0  0  0  0  0  0  0  0
    2.6012   -1.3972    0.0000 O   0  0  0  0  0  0  0  0  0  0  0  0
    3.9556   -0.7526    0.0000 C   0  0  0  0  0  0  0  0  0  0  0  0
    5.1911   -1.6031    0.0000 C   0  0  0  0  0  0  0  0  0  0  0  0
    4.0745    0.7427    0.0000 O   0  0  0  0  0  0  0  0  0  0  0  0
    1.4846    0.9486    0.0000 C   0  0  0  0  0  0  0  0  0  0  0  0
    2.8390    1.5933    0.0000 C   0  0  0  0  0  0  0  0  0  0  0  0
    4.3322    1.7359    0.0000 C   0  0  0  0  0  0  0  0  0  0  0  0
    3.2387    0.1476    0.0000 C   0  0  0  0  0  0  0  0  0  0  0  0
    2.9579    3.0886    0.0000 C   0  0  0  0  0  0  0  0  0  0  0  0
    1.7223    3.9392    0.0000 C   0  0  0  0  0  0  0  0  0  0  0  0
    0.3680    3.2945    0.0000 C   0  0  0  0  0  0  0  0  0  0  0  0
    0.2491    1.7992    0.0000 C   0  0  0  0  0  0  0  0  0  0  0  0
   -0.9864    2.6498    0.0000 C   0  0  0  0  0  0  0  0  0  0  0  0
   -1.1053    1.1545    0.0000 C   0  0  0  0  0  0  0  0  0  0  0  0
   -2.3408    2.0051    0.0000 C   0  0  0  0  0  0  0  0  0  0  0  0
   -3.6952    1.3604    0.0000 C   0  0  0  0  0  0  0  0  0  0  0  0
   -3.8141   -0.1349    0.0000 C   0  0  0  0  0  0  0  0  0  0  0  0
   -5.2729   -0.4839    0.0000 C   0  0  0  0  0  0  0  0  0  0  0  0
   -6.0557    0.7957    0.0000 C   0  0  0  0  0  0  0  0  0  0  0  0
   -5.0806    1.9356    0.0000 O   0  0  0  0  0  0  0  0  0  0  0  0
   -2.5786   -0.9854    0.0000 C   0  0  0  0  0  0  0  0  0  0  0  0
   -2.6975   -2.4807    0.0000 C   0  0  0  0  0  0  0  0  0  0  0  0
   -4.0518   -3.1254    0.0000 O   0  0  0  0  0  0  0  0  0  0  0  0
   -1.2242   -0.3408    0.0000 C   0  0  0  0  0  0  0  0  0  0  0  0
  1  2  1  0
  2  3  2  0
  2  4  1  0
  5  4  1  1
  5  6  1  0
  6  7  1  6
  7  8  1  0
  8  9  1  0
  8 10  2  0
  6 11  1  0
 11 12  1  1
 12 13  1  0
 12 14  1  0
 12 15  1  0
 15 16  1  0
 16 17  1  0
 17 18  1  0
 18 19  1  1
 18 20  1  0
 20 21  1  1
 21 22  1  0
 22 23  2  0
 23 24  1  0
 24 25  2  0
 25 26  1  0
 23 27  1  0
 27 28  1  1
 28 29  2  0
 30 27  1  6
 30  5  1  0
 18 11  1  0
 30 20  1  0
 26 22  1  0
M  END
>  <identifier>  (1777) 
CNP0204797.1

>  <canonical_smiles>  (1777) 
CC(=O)O[C@@H]1[C@@H](OC(C)=O)[C@@H]2C(C)(C)CCC[C@@]2(C)[C@@H]2CC3=C(C=CO3)[C@H](C=O)[C@@H]12

>  <standard_inchi>  (1777) 
InChI=1S/C24H32O6/c1-13(26)29-20-19-16(12-25)15-7-10-28-18(15)11-17(19)24(5)9-6-8-23(3,4)22(24)21(20)30-14(2)27/h7,10,12,16-17,19-22H,6,8-9,11H2,1-5H3/t16-,17+,19+,20-,21+,22+,24-/m0/s1

>  <standard_inchi_key>  (1777) 
VKJKBBJUKMCREH-KDNADUPVSA-N

>  <name>  (1777) 
nan

>  <iupac_name>  (1777) 
[(4~{a}~{R},5~{S},6~{S},6~{a}~{S},7~{R},11~{a}~{R},11~{b}~{S})-5-acetoxy-7-formyl-4,4,11~{b}-trimethyl-1,2,3,4~{a},5,6,6~{a},7,11,11~{a}-decahydronaphtho[2,1-f]benzofuran-6-yl] acetate

>  <annotation_level>  (1777) 
4

>  <total_atom_count>  (1777) 
62

>  <heavy_atom_count>  (1777) 
30

>  <molecular_weight>  (1777) 
416.51

>  <exact_molecular_weight>  (1777) 
416.21989

>  <molecular_formula>  (1777) 
C24H32O6

>  <alogp>  (1777) 
4.06

>  <topological_polar_surface_area>  (1777) 
82.81

>  <rotatable_bond_count>  (1777) 
3

>  <hydrogen_bond_acceptors>  (1777) 
6

>  <hydrogen_bond_donors>  (1777) 
0

>  <hydrogen_bond_acceptors_lipinski>  (1777) 
6

>  <hydrogen_bond_donors_lipinski>  (1777) 
0

>  <lipinski_rule_of_five_violations>  (1777) 
0

>  <aromatic_rings_count>  (1777) 
1

>  <qed_drug_likeliness>  (1777) 
0.55

>  <formal_charge>  (1777) 
0

>  <fractioncsp3>  (1777) 
0.71

>  <number_of_minimal_rings>  (1777) 
4

>  <van_der_walls_volume>  (1777) 
nan

>  <contains_sugar>  (1777) 
False

>  <contains_ring_sugars>  (1777) 
False

>  <contains_linear_sugars>  (1777) 
False

>  <murcko_framework>  (1777) 
o1ccc2c1CC3C(C2)CCC4CCCCC43

>  <np_likeness>  (1777) 
2.44

>  <chemical_class>  (1777) 
Prenol lipids

>  <chemical_sub_class>  (1777) 
Diterpenoids

>  <chemical_super_class>  (1777) 
Lipids and lipid-like molecules

>  <direct_parent_classification>  (1777) 
Diterpenoids

>  <np_classifier_pathway>  (1777) 
Terpenoids

>  <np_classifier_superclass>  (1777) 
Diterpenoids

>  <np_classifier_class>  (1777) 
Cassane diterpenoids

>  <np_classifier_is_glycoside>  (1777) 
False

>  <organisms>  (1777) 
Pterodon emarginatus|Pterodon pubescens

>  <collections>  (1777) 
Latin America dataset|NuBBEDB|WikiData Natural Products

>  <dois>  (1777) 
10.1016/S0031-9422(00)89084-6

>  <synonyms>  (1777) 
6\u221a\u00e9\u00ac\u00b17\u221a\u00e9\u00ac\u2264-Diacetoxyvouacapan-14\u221a\u00e9\u00ac\u2264-al

>  <cas>  (1777) 
nan

$$$$

     RDKit          2D

 45 50  0  0  0  0  0  0  0  0999 V2000
  -10.3576    0.0269    0.0000 C   0  0  0  0  0  0  0  0  0  0  0  0
   -8.8970   -0.3144    0.0000 C   0  0  0  0  0  0  0  0  0  0  0  0
   -7.8710    0.7799    0.0000 O   0  0  0  0  0  0  0  0  0  0  0  0
   -6.4104    0.4385    0.0000 C   0  0  0  0  0  0  0  0  0  0  0  0
   -5.3845    1.5328    0.0000 O   0  0  0  0  0  0  0  0  0  0  0  0
   -3.9238    1.1914    0.0000 C   0  0  0  0  0  0  0  0  0  0  0  0
   -3.4891   -0.2442    0.0000 C   0  0  0  0  0  0  0  0  0  0  0  0
   -2.0285   -0.5855    0.0000 C   0  0  0  0  0  0  0  0  0  0  0  0
   -1.0025    0.5088    0.0000 C   0  0  0  0  0  0  0  0  0  0  0  0
   -0.5678   -0.9269    0.0000 C   0  0  0  0  0  0  0  0  0  0  0  0
    0.4581    0.1674    0.0000 C   0  0  0  0  0  0  0  0  0  0  0  0
    0.8928   -1.2682    0.0000 C   0  0  0  0  0  0  0  0  0  0  0  0
    2.3535   -1.6096    0.0000 C   0  0  0  0  0  0  0  0  0  0  0  0
    3.3794   -0.5153    0.0000 C   0  0  0  0  0  0  0  0  0  0  0  0
    4.8401   -0.8566    0.0000 C   0  0  0  0  0  0  0  0  0  0  0  0
    5.2748   -2.2923    0.0000 C   0  0  0  0  0  0  0  0  0  0  0  0
    6.7354   -2.6336    0.0000 C   0  0  0  0  0  0  0  0  0  0  0  0
    7.9912   -3.4539    0.0000 C   0  0  0  0  0  0  0  0  0  0  0  0
    6.1456   -4.0128    0.0000 C   0  0  0  0  0  0  0  0  0  0  0  0
    7.7613   -1.5393    0.0000 C   0  0  0  0  0  0  0  0  0  0  0  0
    7.3266   -0.1037    0.0000 C   0  0  0  0  0  0  0  0  0  0  0  0
    5.8660    0.2377    0.0000 C   0  0  0  0  0  0  0  0  0  0  0  0
    6.8919    1.3319    0.0000 C   0  0  0  0  0  0  0  0  0  0  0  0
    6.4572    2.7676    0.0000 O   0  0  0  0  0  0  0  0  0  0  0  0
    8.3526    0.9906    0.0000 O   0  0  0  0  0  0  0  0  0  0  0  0
    5.4313    1.6733    0.0000 C   0  0  0  0  0  0  0  0  0  0  0  0
    3.9706    2.0146    0.0000 C   0  0  0  0  0  0  0  0  0  0  0  0
    2.9447    0.9203    0.0000 C   0  0  0  0  0  0  0  0  0  0  0  0
    1.9188   -0.1739    0.0000 C   0  0  0  0  0  0  0  0  0  0  0  0
    1.1217   -0.1858    0.0000 O   0  0  0  0  0  0  0  0  0  0  0  0
    1.9932   -1.6721    0.0000 O   0  0  0  0  0  0  0  0  0  0  0  0
    1.4841    1.2617    0.0000 C   0  0  0  0  0  0  0  0  0  0  0  0
    2.5100    2.3560    0.0000 C   0  0  0  0  0  0  0  0  0  0  0  0
    1.0493    2.6973    0.0000 C   0  0  0  0  0  0  0  0  0  0  0  0
   -0.4113    3.0387    0.0000 C   0  0  0  0  0  0  0  0  0  0  0  0
   -1.4372    1.9444    0.0000 C   0  0  0  0  0  0  0  0  0  0  0  0
   -2.8979    2.2857    0.0000 C   0  0  0  0  0  0  0  0  0  0  0  0
   -4.1537    3.1061    0.0000 C   0  0  0  0  0  0  0  0  0  0  0  0
   -2.3081    3.6649    0.0000 C   0  0  0  0  0  0  0  0  0  0  0  0
   -5.9757   -0.9971    0.0000 C   0  0  0  0  0  0  0  0  0  0  0  0
   -4.5150   -1.3385    0.0000 O   0  0  0  0  0  0  0  0  0  0  0  0
   -7.0016   -2.0914    0.0000 C   0  0  0  0  0  0  0  0  0  0  0  0
   -6.5669   -3.5270    0.0000 O   0  0  0  0  0  0  0  0  0  0  0  0
   -8.4623   -1.7501    0.0000 C   0  0  0  0  0  0  0  0  0  0  0  0
   -9.4882   -2.8443    0.0000 O   0  0  0  0  0  0  0  0  0  0  0  0
  2  1  1  6
  2  3  1  0
  3  4  1  0
  4  5  1  6
  6  5  1  6
  6  7  1  0
  7  8  1  0
  8  9  1  0
  9 10  1  6
  9 11  1  0
 11 12  1  6
 12 13  1  0
 13 14  2  0
 14 15  1  0
 15 16  1  1
 16 17  1  0
 17 18  1  0
 17 19  1  0
 17 20  1  0
 20 21  1  0
 21 22  1  0
 22 23  1  6
 23 24  2  0
 23 25  1  0
 22 26  1  0
 26 27  1  0
 27 28  1  0
 28 29  1  1
 29 30  2  0
 29 31  1  0
 28 32  1  0
 32 33  1  6
 32 34  1  0
 34 35  1  0
 36 35  1  6
 36 37  1  0
 37 38  1  0
 37 39  1  0
  4 40  1  0
 40 41  1  1
 40 42  1  0
 42 43  1  6
 42 44  1  0
 44 45  1  1
 44  2  1  0
 37  6  1  0
 36  9  1  0
 32 11  1  0
 28 14  1  0
 22 15  1  0
M  END
>  <identifier>  (1778) 
CNP0270117.2

>  <canonical_smiles>  (1778) 
C[C@@H]1O[C@H](O[C@H]2CC[C@]3(C)[C@H]4CC=C5[C@@H]6CC(C)(C)CC[C@]6(C(=O)O)CC[C@@]5(C(=O)O)[C@]4(C)CC[C@H]3C2(C)C)[C@@H](O)[C@H](O)[C@H]1O

>  <standard_inchi>  (1778) 
InChI=1S/C36H56O9/c1-19-25(37)26(38)27(39)28(44-19)45-24-11-12-33(6)22(32(24,4)5)10-13-34(7)23(33)9-8-20-21-18-31(2,3)14-15-35(21,29(40)41)16-17-36(20,34)30(42)43/h8,19,21-28,37-39H,9-18H2,1-7H3,(H,40,41)(H,42,43)/t19-,21-,22-,23+,24-,25-,26+,27-,28+,33-,34+,35-,36+/m0/s1

>  <standard_inchi_key>  (1778) 
SBEFEKWSETYQKS-RAHPTWMSSA-N

>  <name>  (1778) 
nan

>  <iupac_name>  (1778) 
(4~{a}~{S},6~{a}~{R},6~{a}~{R},6~{b}~{R},8~{a}~{R},10~{S},12~{a}~{R},14~{b}~{S})-2,2,6~{b},9,9,12~{a}-hexamethyl-10-[(2~{S},3~{S},4~{R},5~{R},6~{S})-3,4,5-trihydroxy-6-methyl-tetrahydropyran-2-yl]oxy-1,3,4,5,6,6~{a},7,8,8~{a},10,11,12,13,14~{b}-tetradecahydropicene-4~{a},6~{a}-dicarboxylic acid

>  <annotation_level>  (1778) 
5

>  <total_atom_count>  (1778) 
101

>  <heavy_atom_count>  (1778) 
45

>  <molecular_weight>  (1778) 
632.84

>  <exact_molecular_weight>  (1778) 
632.39243

>  <molecular_formula>  (1778) 
C36H56O9

>  <alogp>  (1778) 
5.15

>  <topological_polar_surface_area>  (1778) 
153.75

>  <rotatable_bond_count>  (1778) 
4

>  <hydrogen_bond_acceptors>  (1778) 
7

>  <hydrogen_bond_donors>  (1778) 
5

>  <hydrogen_bond_acceptors_lipinski>  (1778) 
7

>  <hydrogen_bond_donors_lipinski>  (1778) 
5

>  <lipinski_rule_of_five_violations>  (1778) 
2

>  <aromatic_rings_count>  (1778) 
0

>  <qed_drug_likeliness>  (1778) 
0.21

>  <formal_charge>  (1778) 
0

>  <fractioncsp3>  (1778) 
0.89

>  <number_of_minimal_rings>  (1778) 
6

>  <van_der_walls_volume>  (1778) 
589.87

>  <contains_sugar>  (1778) 
True

>  <contains_ring_sugars>  (1778) 
True

>  <contains_linear_sugars>  (1778) 
False

>  <murcko_framework>  (1778) 
O1CCCCC1OC2CCC3C(CCC4C5C(=CCC43)C6CCCCC6CC5)C2

>  <np_likeness>  (1778) 
3.02

>  <chemical_class>  (1778) 
Steroids and steroid derivatives

>  <chemical_sub_class>  (1778) 
Oxosteroids

>  <chemical_super_class>  (1778) 
Lipids and lipid-like molecules

>  <direct_parent_classification>  (1778) 
Oxosteroids

>  <np_classifier_pathway>  (1778) 
Terpenoids

>  <np_classifier_superclass>  (1778) 
Triterpenoids

>  <np_classifier_class>  (1778) 
Oleanane triterpenoids

>  <np_classifier_is_glycoside>  (1778) 
True

>  <organisms>  (1778) 
Tocoyena brasiliensis

>  <collections>  (1778) 
ChemSpider NPs|Latin America dataset|NuBBEDB

>  <dois>  (1778) 
10.1590/S0100-40422005000400009

>  <synonyms>  (1778) 
3-O-\u221a\u00e9\u00ac\u2264-D-quinovopyranosyl cincholic acid

>  <cas>  (1778) 
nan

$$$$

     RDKit          2D

 22 23  0  0  0  0  0  0  0  0999 V2000
   -8.0468   -0.2400    0.0000 C   0  0  0  0  0  0  0  0  0  0  0  0
   -6.8383   -1.1286    0.0000 O   0  0  0  0  0  0  0  0  0  0  0  0
   -5.4645   -0.5262    0.0000 C   0  0  0  0  0  0  0  0  0  0  0  0
   -5.2993    0.9646    0.0000 C   0  0  0  0  0  0  0  0  0  0  0  0
   -3.9255    1.5670    0.0000 C   0  0  0  0  0  0  0  0  0  0  0  0
   -2.7170    0.6784    0.0000 C   0  0  0  0  0  0  0  0  0  0  0  0
   -1.3433    1.2808    0.0000 C   0  0  0  0  0  0  0  0  0  0  0  0
   -0.1348    0.3922    0.0000 C   0  0  0  0  0  0  0  0  0  0  0  0
    1.2390    0.9946    0.0000 C   0  0  0  0  0  0  0  0  0  0  0  0
    1.4042    2.4854    0.0000 O   0  0  0  0  0  0  0  0  0  0  0  0
    2.4475    0.1060    0.0000 C   0  0  0  0  0  0  0  0  0  0  0  0
    2.2823   -1.3848    0.0000 C   0  0  0  0  0  0  0  0  0  0  0  0
    0.9085   -1.9872    0.0000 O   0  0  0  0  0  0  0  0  0  0  0  0
    3.4908   -2.2734    0.0000 C   0  0  0  0  0  0  0  0  0  0  0  0
    4.8645   -1.6710    0.0000 C   0  0  0  0  0  0  0  0  0  0  0  0
    6.0731   -2.5596    0.0000 O   0  0  0  0  0  0  0  0  0  0  0  0
    5.0298   -0.1802    0.0000 C   0  0  0  0  0  0  0  0  0  0  0  0
    3.8213    0.7084    0.0000 C   0  0  0  0  0  0  0  0  0  0  0  0
    3.9865    2.1992    0.0000 O   0  0  0  0  0  0  0  0  0  0  0  0
    5.3602    2.8016    0.0000 C   0  0  0  0  0  0  0  0  0  0  0  0
   -2.8823   -0.8124    0.0000 C   0  0  0  0  0  0  0  0  0  0  0  0
   -4.2560   -1.4148    0.0000 C   0  0  0  0  0  0  0  0  0  0  0  0
  1  2  1  0
  2  3  1  0
  3  4  2  0
  4  5  1  0
  5  6  2  0
  6  7  1  0
  7  8  1  0
  8  9  1  0
  9 10  2  0
  9 11  1  0
 11 12  2  0
 12 13  1  0
 12 14  1  0
 14 15  2  0
 15 16  1  0
 15 17  1  0
 17 18  2  0
 18 19  1  0
 19 20  1  0
  6 21  1  0
 21 22  2  0
 22  3  1  0
 18 11  1  0
M  END
>  <identifier>  (1779) 
CNP0273972.0

>  <canonical_smiles>  (1779) 
COC1=CC=C(CCC(=O)C2=C(O)C=C(O)C=C2OC)C=C1

>  <standard_inchi>  (1779) 
InChI=1S/C17H18O5/c1-21-13-6-3-11(4-7-13)5-8-14(19)17-15(20)9-12(18)10-16(17)22-2/h3-4,6-7,9-10,18,20H,5,8H2,1-2H3

>  <standard_inchi_key>  (1779) 
SGAQUVXWXIVPKX-UHFFFAOYSA-N

>  <name>  (1779) 
2',4'-Dihydroxy-4,6'-dimethoxydihydrochalcone

>  <iupac_name>  (1779) 
1-(2,4-dihydroxy-6-methoxy-phenyl)-3-(4-methoxyphenyl)propan-1-one

>  <annotation_level>  (1779) 
5

>  <total_atom_count>  (1779) 
40

>  <heavy_atom_count>  (1779) 
22

>  <molecular_weight>  (1779) 
302.33

>  <exact_molecular_weight>  (1779) 
302.11542

>  <molecular_formula>  (1779) 
C17H18O5

>  <alogp>  (1779) 
2.93

>  <topological_polar_surface_area>  (1779) 
75.99

>  <rotatable_bond_count>  (1779) 
6

>  <hydrogen_bond_acceptors>  (1779) 
5

>  <hydrogen_bond_donors>  (1779) 
2

>  <hydrogen_bond_acceptors_lipinski>  (1779) 
5

>  <hydrogen_bond_donors_lipinski>  (1779) 
2

>  <lipinski_rule_of_five_violations>  (1779) 
0

>  <aromatic_rings_count>  (1779) 
2

>  <qed_drug_likeliness>  (1779) 
0.80

>  <formal_charge>  (1779) 
0

>  <fractioncsp3>  (1779) 
0.24

>  <number_of_minimal_rings>  (1779) 
2

>  <van_der_walls_volume>  (1779) 
273.11

>  <contains_sugar>  (1779) 
False

>  <contains_ring_sugars>  (1779) 
False

>  <contains_linear_sugars>  (1779) 
False

>  <murcko_framework>  (1779) 
c1ccc(cc1)CCCc2ccccc2

>  <np_likeness>  (1779) 
0.84

>  <chemical_class>  (1779) 
Linear 1,3-diarylpropanoids

>  <chemical_sub_class>  (1779) 
Chalcones and dihydrochalcones

>  <chemical_super_class>  (1779) 
Phenylpropanoids and polyketides

>  <direct_parent_classification>  (1779) 
2'-Hydroxy-dihydrochalcones

>  <np_classifier_pathway>  (1779) 
Shikimates and Phenylpropanoids

>  <np_classifier_superclass>  (1779) 
Flavonoids

>  <np_classifier_class>  (1779) 
Chalcones

>  <np_classifier_is_glycoside>  (1779) 
False

>  <organisms>  (1779) 
Goniothalamus gardneri|Iryanthera grandis|Iryanthera hostmannii|Iryanthera juruensis|Iryanthera laevis|Iryanthera lancifolia|Iryanthera paraensis|Iryanthera sagotiana|Iryanthera ulei|Peruvian amazonian|Sarcandra glabra

>  <collections>  (1779) 
CMAUP (cCollective molecular activities of useful plants)|KNApSaCK|Latin America dataset|NPASS|NPEdia|NuBBEDB|Super Natural II|TCMDB-Taiwan (Traditional Chinese Medicine database)|TCMID (Traditional Chinese Medicine Integrated Database)|UNPD (Universal Natural Products Database)|WikiData Natural Products|ZINC NP

>  <dois>  (1779) 
10.1016/0031-9422(80)83082-2|10.1016/0031-9422(90)85234-7|10.1016/0031-9422(90)85388-V|10.1016/0031-9422(96)00352-4|10.1016/J.BMC.2007.12.003|10.1016/S0031-9422(00)00346-0|10.1016/S0031-9422(00)80162-4|10.1016/S0031-9422(00)83600-6|10.1016/S0031-9422(97)00306-3|10.1016/j.bmc.2007.12.003|10.1021/NP980509W|10.1021/np070560c|10.1021/np980509w

>  <synonyms>  (1779) 
1-(2,4-dihydroxy-6-methoxyphenyl)-3-(4-methoxyphenyl)propan-1-one|1-propanone, 1-(2,4-dihydroxy-6-methoxyphenyl)-3-(4-methoxyphenyl)-|2,4-Dihydroxy-4,6-dimethoxydihydrochalcone|75679-58-2|AKOS032948926|CHEMBL255287|CS-0149089|DTXSID00348414|FS-10547|HY-N8796|InChI=1\/C17H18O5\/c1-21-13-6-3-11(4-7-13)5-8-14(19)17-15(20)9-12(18)10-16(17)22-2\/h3-4,6-7,9-10,18,20H,5,8H2,1-2H|LMPK12120538|SCHEMBL1938352

>  <cas>  (1779) 
75679-58-2

$$$$

     RDKit          2D

 24 27  0  0  0  0  0  0  0  0999 V2000
    3.8387   -3.8562    0.0000 C   0  0  0  0  0  0  0  0  0  0  0  0
    3.7184   -2.3610    0.0000 C   0  0  0  0  0  0  0  0  0  0  0  0
    2.3634   -1.7176    0.0000 C   0  0  0  0  0  0  0  0  0  0  0  0
    2.2431   -0.2225    0.0000 C   0  0  0  0  0  0  0  0  0  0  0  0
    3.6580   -0.7207    0.0000 C   0  0  0  0  0  0  0  0  0  0  0  0
    4.7969    0.2554    0.0000 C   0  0  0  0  0  0  0  0  0  0  0  0
    4.5210    1.7298    0.0000 C   0  0  0  0  0  0  0  0  0  0  0  0
    3.1061    2.2281    0.0000 C   0  0  0  0  0  0  0  0  0  0  0  0
    2.8302    3.7025    0.0000 O   0  0  0  0  0  0  0  0  0  0  0  0
    1.9672    1.2519    0.0000 C   0  0  0  0  0  0  0  0  0  0  0  0
    1.5387    2.6894    0.0000 O   0  0  0  0  0  0  0  0  0  0  0  0
    0.4797    1.4452    0.0000 O   0  0  0  0  0  0  0  0  0  0  0  0
   -0.1637    0.0902    0.0000 C   0  0  0  0  0  0  0  0  0  0  0  0
   -1.6381   -0.1858    0.0000 C   0  0  0  0  0  0  0  0  0  0  0  0
   -2.1364   -1.6006    0.0000 C   0  0  0  0  0  0  0  0  0  0  0  0
   -3.6108   -1.8765    0.0000 C   0  0  0  0  0  0  0  0  0  0  0  0
   -4.5869   -0.7376    0.0000 C   0  0  0  0  0  0  0  0  0  0  0  0
   -6.0865   -0.7009    0.0000 O   0  0  0  0  0  0  0  0  0  0  0  0
   -6.5150    0.7366    0.0000 C   0  0  0  0  0  0  0  0  0  0  0  0
   -5.2803    1.5883    0.0000 O   0  0  0  0  0  0  0  0  0  0  0  0
   -4.0887    0.6772    0.0000 C   0  0  0  0  0  0  0  0  0  0  0  0
   -2.6143    0.9532    0.0000 C   0  0  0  0  0  0  0  0  0  0  0  0
    0.9262   -0.9405    0.0000 C   0  0  0  0  0  0  0  0  0  0  0  0
    0.7329   -2.4280    0.0000 C   0  0  0  0  0  0  0  0  0  0  0  0
  1  2  2  0
  2  3  1  0
  4  3  1  6
  4  5  1  0
  5  6  1  0
  6  7  2  0
  7  8  1  0
  8  9  2  0
  8 10  1  0
 10 11  1  1
 10 12  1  0
 12 13  1  0
 13 14  1  1
 14 15  2  0
 15 16  1  0
 16 17  2  0
 17 18  1  0
 18 19  1  0
 19 20  1  0
 20 21  1  0
 21 22  2  0
 13 23  1  0
 23 24  1  6
 10  4  1  0
 22 14  1  0
 23  4  1  0
 21 17  1  0
M  END
>  <identifier>  (1780) 
CNP0365907.2

>  <canonical_smiles>  (1780) 
C=CC[C@@]12CC=CC(=O)[C@@]1(O)O[C@H](C1=CC=C3OCOC3=C1)[C@H]2C

>  <standard_inchi>  (1780) 
InChI=1S/C19H20O5/c1-3-8-18-9-4-5-16(20)19(18,21)24-17(12(18)2)13-6-7-14-15(10-13)23-11-22-14/h3-7,10,12,17,21H,1,8-9,11H2,2H3/t12-,17+,18+,19-/m1/s1

>  <standard_inchi_key>  (1780) 
ZWZOJVXHAOTSDM-NVAWSTJUSA-N

>  <name>  (1780) 
nan

>  <iupac_name>  (1780) 
(2~{S},3~{S},3~{a}~{S},7~{a}~{S})-3~{a}-allyl-2-(1,3-benzodioxol-5-yl)-7~{a}-hydroxy-3-methyl-3,4-dihydro-2~{H}-benzofuran-7-one

>  <annotation_level>  (1780) 
4

>  <total_atom_count>  (1780) 
44

>  <heavy_atom_count>  (1780) 
24

>  <molecular_weight>  (1780) 
328.36

>  <exact_molecular_weight>  (1780) 
328.13107

>  <molecular_formula>  (1780) 
C19H20O5

>  <alogp>  (1780) 
2.90

>  <topological_polar_surface_area>  (1780) 
64.99

>  <rotatable_bond_count>  (1780) 
3

>  <hydrogen_bond_acceptors>  (1780) 
5

>  <hydrogen_bond_donors>  (1780) 
1

>  <hydrogen_bond_acceptors_lipinski>  (1780) 
5

>  <hydrogen_bond_donors_lipinski>  (1780) 
1

>  <lipinski_rule_of_five_violations>  (1780) 
0

>  <aromatic_rings_count>  (1780) 
1

>  <qed_drug_likeliness>  (1780) 
0.86

>  <formal_charge>  (1780) 
0

>  <fractioncsp3>  (1780) 
0.42

>  <number_of_minimal_rings>  (1780) 
4

>  <van_der_walls_volume>  (1780) 
290.58

>  <contains_sugar>  (1780) 
False

>  <contains_ring_sugars>  (1780) 
False

>  <contains_linear_sugars>  (1780) 
False

>  <murcko_framework>  (1780) 
O1c2ccc(cc2OC1)C3OC4CC=CCC4C3

>  <np_likeness>  (1780) 
1.84

>  <chemical_class>  (1780) 
Benzodioxoles

>  <chemical_sub_class>  (1780) 
Benzodioxoles

>  <chemical_super_class>  (1780) 
Organoheterocyclic compounds

>  <direct_parent_classification>  (1780) 
Benzodioxoles

>  <np_classifier_pathway>  (1780) 
Shikimates and Phenylpropanoids

>  <np_classifier_superclass>  (1780) 
Lignans

>  <np_classifier_class>  (1780) 
Neolignans

>  <np_classifier_is_glycoside>  (1780) 
True

>  <organisms>  (1780) 
Diaporthe phaseolorum|Euphorbia splendens|Leptotaenia multifida|Lunasia costulata|Ocotea aciphylla|Rudbeckia speciosa|Woodsia manchuriensis

>  <collections>  (1780) 
CMAUP (cCollective molecular activities of useful plants)|Latin America dataset|NPASS|NuBBEDB|WikiData Natural Products

>  <dois>  (1780) 
10.1016/S0031-9422(00)81240-6|10.1016/S0031-9422(00)84995-X

>  <synonyms>  (1780) 
Ferrarin C

>  <cas>  (1780) 
nan

$$$$

     RDKit          2D

 15 14  0  0  0  0  0  0  0  0999 V2000
   -9.0933   -0.3500    0.0000 C   0  0  0  0  0  0  0  0  0  0  0  0
   -7.7942    0.4000    0.0000 C   0  0  0  0  0  0  0  0  0  0  0  0
   -6.4952   -0.3500    0.0000 C   0  0  0  0  0  0  0  0  0  0  0  0
   -5.1962    0.4000    0.0000 C   0  0  0  0  0  0  0  0  0  0  0  0
   -3.8971   -0.3500    0.0000 C   0  0  0  0  0  0  0  0  0  0  0  0
   -2.5981    0.4000    0.0000 C   0  0  0  0  0  0  0  0  0  0  0  0
   -1.2990   -0.3500    0.0000 C   0  0  0  0  0  0  0  0  0  0  0  0
    0.0000    0.4000    0.0000 C   0  0  0  0  0  0  0  0  0  0  0  0
    1.2990   -0.3500    0.0000 C   0  0  0  0  0  0  0  0  0  0  0  0
    2.5981    0.4000    0.0000 C   0  0  0  0  0  0  0  0  0  0  0  0
    3.8971   -0.3500    0.0000 C   0  0  0  0  0  0  0  0  0  0  0  0
    5.1962    0.4000    0.0000 C   0  0  0  0  0  0  0  0  0  0  0  0
    6.4952   -0.3500    0.0000 C   0  0  0  0  0  0  0  0  0  0  0  0
    7.7942    0.4000    0.0000 C   0  0  0  0  0  0  0  0  0  0  0  0
    9.0933   -0.3500    0.0000 C   0  0  0  0  0  0  0  0  0  0  0  0
  1  2  1  0
  2  3  1  0
  3  4  1  0
  4  5  1  0
  5  6  1  0
  6  7  1  0
  7  8  1  0
  8  9  1  0
  9 10  1  0
 10 11  1  0
 11 12  1  0
 12 13  1  0
 13 14  1  0
 14 15  1  0
M  END
>  <identifier>  (1781) 
CNP0314547.0

>  <canonical_smiles>  (1781) 
CCCCCCCCCCCCCCC

>  <standard_inchi>  (1781) 
InChI=1S/C15H32/c1-3-5-7-9-11-13-15-14-12-10-8-6-4-2/h3-15H2,1-2H3

>  <standard_inchi_key>  (1781) 
YCOZIPAWZNQLMR-UHFFFAOYSA-N

>  <name>  (1781) 
Pentadecane

>  <iupac_name>  (1781) 
pentadecane

>  <annotation_level>  (1781) 
5

>  <total_atom_count>  (1781) 
47

>  <heavy_atom_count>  (1781) 
15

>  <molecular_weight>  (1781) 
212.42

>  <exact_molecular_weight>  (1781) 
212.2504

>  <molecular_formula>  (1781) 
C15H32

>  <alogp>  (1781) 
6.10

>  <topological_polar_surface_area>  (1781) 
0.00

>  <rotatable_bond_count>  (1781) 
12

>  <hydrogen_bond_acceptors>  (1781) 
0

>  <hydrogen_bond_donors>  (1781) 
0

>  <hydrogen_bond_acceptors_lipinski>  (1781) 
0

>  <hydrogen_bond_donors_lipinski>  (1781) 
0

>  <lipinski_rule_of_five_violations>  (1781) 
1

>  <aromatic_rings_count>  (1781) 
0

>  <qed_drug_likeliness>  (1781) 
0.34

>  <formal_charge>  (1781) 
0

>  <fractioncsp3>  (1781) 
1.00

>  <number_of_minimal_rings>  (1781) 
0

>  <van_der_walls_volume>  (1781) 
260.81

>  <contains_sugar>  (1781) 
False

>  <contains_ring_sugars>  (1781) 
False

>  <contains_linear_sugars>  (1781) 
False

>  <murcko_framework>  (1781) 
nan

>  <np_likeness>  (1781) 
0.16

>  <chemical_class>  (1781) 
Saturated hydrocarbons

>  <chemical_sub_class>  (1781) 
Alkanes

>  <chemical_super_class>  (1781) 
Hydrocarbons

>  <direct_parent_classification>  (1781) 
Alkanes

>  <np_classifier_pathway>  (1781) 
Fatty acids

>  <np_classifier_superclass>  (1781) 
Fatty acyls

>  <np_classifier_class>  (1781) 
Hydrocarbons

>  <np_classifier_is_glycoside>  (1781) 
False

>  <organisms>  (1781) 
Aconitum episcopale|Actaea dahurica|Actaea heracleifolia|Actaea simplex|Aethus indicus|Agaricus bisporus|Albatrellus cristatus|Alpinia galanga|Alstonia muelleriana|Angelica acutiloba|Angelica gigas|Angelica pubescens|Angelica sinensis|Aphanizomenon|Ardisia arborescens|Argyreia nervosa|Armoracia rusticana|Aromia moschata|Artemisia cina|Asarum dilatatum|Asarum epigynum|Asarum fauriei|Asarum heterotropoides|Asarum heterotropoides f. schm. var. mandshuricum (maxim.) kitag.|Asarum heterotropoides var. mandshuricum|Asarum megacalyx|Asarum nipponicum|Asarum nipponicum var. nankaiense|Asarum sieboldii|Asarum takaoi|Asiasarum heterotropoides|Asiasarum sieboldii|Aster scaber|Brassica campestris|Brassica juncea|Brassica rapa|Bupleurum chinense|Bupleurum falcatum|Bupleurum scorzonerifolium|Cacia concinna|Callitropsis nootkatensis|Camellia sinensis var.Yabukita|Cannabis sativa|Capsicum annuum|Chaenomeles speciosa|Cimicifuga foetida|Cirsium dipsacolepis|Cistus creticus|Cistus ladanifer|Cistus laurifolius|Cistus monspeliensis|Citrullus lanatus|Citrus Hystrix|Citrus Reticulata|Citrus Sinensis|Citrus hystrix|Citrus limonia|Citrus reticulata|Citrus sinensis|Citrus × deliciosa|Cnidium officinale|Codonopsis pilosula|Commiphora rostrata|Coreopsis nodosa|Cornus officinalis|Crocus sativus|Dacrydium cupressinum|Daphne odora|Daucus carota|Dendrobium officinale|Dictyota dichotoma|Digitalis purpurea|Dryopteris assimilis|Dryopteris carthusiana|Dryopteris expansa|Dryopteris filix-mas|Dryopteris spinulosa|Eclipta prostrata|Elaeis guineensis|Eucalyptus hybrid|Eucalyptus leucoxylon|Eucalyptus melliodora|Euphorbia wallichii|Festuca arundinacea|Festuca rubra|Fragaria|Fragaria x ananassa|Fructus hippophae|Garcinia oligantha|Gardenia jasminoides|Geitlerinema splendidum|Glycine tomentella|Gossypium hirsutum|Gymnodinium nagasakiense|Haematococcus lacustris|Hamamelis virginiana|Herrania cuatrecasana|Heterotropa|Homo sapiens|Homo sapiens (Exhaled breath)|Hypoxylon rubiginosum|Ipomoea hederacea|Iris spuria|Jaaginema geminatum|Kaempferia galanga|Karenia mikimotoi|Lantana camara|Leonurus heterophyllus|Ligusticum sinense|Magnolia acuminata|Mangifera indica|Manilkara bidentata|Melia azedarach|Melia azedarach var. toosendan|Meliosma simplicifolia|Melissa officinalis|Microcoleus amoenus|Microcystis aeruginosa|Mimusops elengi|Morina persica|Mosla chinensis|Nelumbo lutea|Nelumbo nucifera|Nicotiana undulata|Nothomyrmecia macrops|Oecophylla smaragdina|Ophrys sphegodes|Orbignya martiana|Oryza sativa|Oscillatoria amoena|Oscillatoria geminata|Oscillatoria splendida|Pagrus major|Panax ginseng|Panax notoginseng|Panax pseudo - ginseng var. notoginseng|Panax pseudo-ginseng var. notoginseng|Panax pseudo-ginseng wall. var. notoginseng (burk.) hoo et tseng|Panax schinseng|Parmelia vittata|Passiflora incarnata|Pelargonium endlicherianum|Persicaria hydropiperoides|Persicaria minor|Phallus impudicus|Pistacia vera|Plakortis lita|Platynereis dumerilii|Pocillopora damicornis|Polygonum Minus|Polygonum minus|Porphyra tenera|Protaetia cuprea|Pterocladiella tenuis|Puta graveolens|Pyrus pyrifolia|Quercus myrsinifolia|Rhaponticum uniflorum|Rhizoprionodon acutus|Rhytidoponera metallica|Rubus trifidus|Ruta graveolens|Saccharomyces pastori|Sauromatum venosum|Scandix balansae|Scutellaria baicalensis|Scytosiphon lomentaria|Senecio paludaffinis|Senna alexandrina|Sideritis hispida|Sophora flavescens|Streptomyces flocculus|Tachigalia paniculata|Theobroma mammosum|Theobroma simiarum|Trametes lilacinogilva|Trigonella foenum-graecum|Trigonella grandiflora|Tripolium pannonicum|Typhonium flagelliforme|Uvaria calamistrata|Valeriana officinalis|Vanilla madagascariensis|Vanilla planifolia|Vanilla tahitensis|Xanthocyparis nootkatensis|Xylopia sericea|Zanthoxylum bungeanum|Zanthoxylum piperitum|Zanthoxylum schinifolium|Zingiber mioga|cacao|liquorice|watermelon

>  <collections>  (1781) 
Australian natural products|CMAUP (cCollective molecular activities of useful plants)|ChEBI NPs|EMNPD|FooDB|KNApSaCK|Latin America dataset|Marine Natural Products|Mitishamba database|NPASS|NPEdia|NuBBEDB|Phyto4Health|Super Natural II|TCMDB-Taiwan (Traditional Chinese Medicine database)|TCMID (Traditional Chinese Medicine Integrated Database)|UNPD (Universal Natural Products Database)|VietHerb|Watermelon|WikiData Natural Products|ZINC NP

>  <dois>  (1781) 
10.1002/(SICI)1099-1026(199901/02)14:1<15::AID-FFJ777>3.0.CO;2-M|10.1002/CBDV.201300106|10.1002/CJOC.201180379|10.1002/JEZ.1402460308|10.1002/cbdv.201300106|10.1007/978-3-662-03331-9_2|10.1007/BF01959170|10.1016/0031-9422(88)87020-1|10.1016/0031-9422(90)83036-Z|10.1016/0031-9422(91)84185-U|10.1016/0031-9422(91)85017-T|10.1016/0031-9422(92)80160-G|10.1016/J.BSE.2016.02.030|10.1016/J.FOODCHEM.2012.09.111|10.1016/J.PHYTOCHEM.2009.07.031|10.1016/J.RENENE.2017.12.012|10.1016/S0031-9422(00)80814-6|10.1016/S0031-9422(00)81276-5|10.1016/S0031-9422(00)81427-2|10.1016/S0031-9422(00)85772-6|10.1016/S0031-9422(00)94756-3|10.1016/S0031-9422(97)00943-6|10.1016/S0378-8741(01)00274-4|10.1017/S1742758400005282|10.1021/JF00034A033|10.1021/JF00120A031|10.1021/JF60200A011|10.1021/JF960625+|10.1021/JF960927B|10.1021/NP000159P|10.1021/NP50008A001|10.1021/NP50048A039|10.1021/NP50052A041|10.1021/NP50055A014|10.1021/NP800631T|10.1021/NP970146K|10.1021/jf00120a031|10.1021/jf960625+|10.1039/JR9630000677|10.1055/S-0028-1099475|10.1055/S-2006-957420|10.1055/S-2006-960872|10.1055/S-2007-969591|10.1055/S-2007-969987|10.1071/CH08343|10.1071/bi9810115|10.1080/00021369.1989.10869813|10.1080/00021369.1990.10870456|10.1080/10412905.1989.9697787|10.1080/10412905.1991.9697919|10.1080/10412905.1991.9697932|10.1080/10412905.1992.9698151|10.1080/10412905.1994.9698331|10.1080/10412905.1994.9698418|10.1080/10412905.1994.9698425|10.1080/10412905.1995.9698546|10.1080/10412905.1995.9698558|10.1080/10412905.1998.9700856|10.1088/1752-7155/8/1/014001|10.1155/2017/7436259|10.1248/YAKUSHI1947.101.9_852|10.1248/YAKUSHI1947.107.3_209|10.1248/YAKUSHI1947.107.3_219|10.1271/BBB1961.47.483|10.1271/BBB1961.49.3145|10.1271/BBB1961.50.205|10.1271/BBB1961.51.1449|10.1271/BBB1961.54.3335|10.1271/BBB1961.55.1655|10.1271/NOGEIKAGAKU1924.61.1119|10.1365/S10337-008-0921-Y|10.1515/ZNC-1984-3-422|10.1515/ZNC-1984-7-802|10.1515/ZNC-1984-7-803|10.1515/ZNC-1988-5-604|10.3390/MOLECULES191119220|10.3724/SP.J.1238.2012.00106|10.7235/HORT.2013.12200

>  <synonyms>  (1781) 
1-Penfadecane,(S)|16H6K2S8M2|4-01-00-00529 (Beilstein Handbook Reference)|629-62-9|896D4B7E-BF33-4D54-82CE-7360D88E8DC8|AKOS015902386|BRN 1698194|C08388|CAS-629-62-9|CH3-(CH2)13-CH3|CH3-[CH2]13-CH3|CHEBI:28897|CHEMBL1234557|D97801|DTXCID107268|DTXSID6027268|EC 211-098-1|EINECS 211-098-1|HSDB 5729|LMFA11000006|LS-14458|MFCD00008990|Medicinal Plant|N-PENTADECANE|N-PENTADECANE [HSDB]|NCGC00164185-01|NCGC00254392-01|NS00003105|NSC 172781|P0606|PENTADECANE (N)|PENTADECANE [INCI]|Pentadecane|Pentadecane, >=98.0% (GC)|Pentadecane, >=99%|Pentadecane, analytical standard|Pentadecane, n-|Pentadecane; NSC 172781; n-Pentadecane|Pentadecane_Ramanathan &Gurudeeban|Pentadekan|Q150831|STL280516|Tox21_300535|UNII-16H6K2S8M2|dipentylfumarate|ghl.PD_Mitscher_leg0.43|n-Pentadecane 100 microg\/mL in Acetonitrile|n-pentadecane|pentadecan|pentadecylidenehydrogen

>  <cas>  (1781) 
629-62-9

$$$$

     RDKit          2D

 22 24  0  0  0  0  0  0  0  0999 V2000
   -4.2652    2.7861    0.0000 C   0  0  0  0  0  0  0  0  0  0  0  0
   -3.5793    1.4521    0.0000 C   0  0  0  0  0  0  0  0  0  0  0  0
   -2.0969    1.2229    0.0000 C   0  0  0  0  0  0  0  0  0  0  0  0
   -1.8568   -0.2577    0.0000 C   0  0  0  0  0  0  0  0  0  0  0  0
   -0.4584    0.2850    0.0000 C   0  0  0  0  0  0  0  0  0  0  0  0
    0.7108   -0.6547    0.0000 C   0  0  0  0  0  0  0  0  0  0  0  0
    2.1092   -0.1119    0.0000 C   0  0  0  0  0  0  0  0  0  0  0  0
    3.2784   -1.0516    0.0000 C   0  0  0  0  0  0  0  0  0  0  0  0
    4.0557   -2.3345    0.0000 C   0  0  0  0  0  0  0  0  0  0  0  0
    2.1500   -2.0399    0.0000 C   0  0  0  0  0  0  0  0  0  0  0  0
    4.6768   -0.5089    0.0000 C   0  0  0  0  0  0  0  0  0  0  0  0
    4.9059    0.9735    0.0000 C   0  0  0  0  0  0  0  0  0  0  0  0
    3.7367    1.9132    0.0000 C   0  0  0  0  0  0  0  0  0  0  0  0
    2.3384    1.3704    0.0000 C   0  0  0  0  0  0  0  0  0  0  0  0
    0.8387    1.3387    0.0000 C   0  0  0  0  0  0  0  0  0  0  0  0
    2.0467    2.8418    0.0000 O   0  0  0  0  0  0  0  0  0  0  0  0
   -3.0260    0.6820    0.0000 C   0  0  0  0  0  0  0  0  0  0  0  0
   -4.4243    0.1392    0.0000 C   0  0  0  0  0  0  0  0  0  0  0  0
   -4.6535   -1.3432    0.0000 C   0  0  0  0  0  0  0  0  0  0  0  0
   -3.4843   -2.2828    0.0000 C   0  0  0  0  0  0  0  0  0  0  0  0
   -2.0859   -1.7401    0.0000 C   0  0  0  0  0  0  0  0  0  0  0  0
   -0.9167   -2.6798    0.0000 O   0  0  0  0  0  0  0  0  0  0  0  0
  1  2  2  0
  2  3  1  0
  3  4  1  0
  4  5  1  6
  5  6  1  0
  7  6  1  1
  7  8  1  0
  8  9  1  0
  8 10  1  0
  8 11  1  0
 11 12  1  0
 12 13  1  0
 13 14  1  0
 14 15  1  1
 14 16  1  0
  4 17  1  0
 17 18  1  0
 18 19  1  1
 19 20  1  0
 20 21  1  0
 21 22  2  0
 18  2  1  0
 21  4  1  0
 14  7  1  0
M  END
>  <identifier>  (1782) 
CNP0182488.1

>  <canonical_smiles>  (1782) 
C=C1C[C@]2(CC[C@@H]3C(C)(C)CCC[C@@]3(C)O)C[C@H]1CCC2=O

>  <standard_inchi>  (1782) 
InChI=1S/C20H32O2/c1-14-12-20(13-15(14)6-7-17(20)21)11-8-16-18(2,3)9-5-10-19(16,4)22/h15-16,22H,1,5-13H2,2-4H3/t15-,16-,19-,20-/m1/s1

>  <standard_inchi_key>  (1782) 
SFJNAVQAJIAZPT-XNFNUYLZSA-N

>  <name>  (1782) 
nan

>  <iupac_name>  (1782) 
(1~{S},5~{R})-1-[2-[(1~{R},2~{R})-2-hydroxy-2,6,6-trimethyl-cyclohexyl]ethyl]-6-methylene-bicyclo[3.2.1]octan-2-one

>  <annotation_level>  (1782) 
4

>  <total_atom_count>  (1782) 
54

>  <heavy_atom_count>  (1782) 
22

>  <molecular_weight>  (1782) 
304.47

>  <exact_molecular_weight>  (1782) 
304.24023

>  <molecular_formula>  (1782) 
C20H32O2

>  <alogp>  (1782) 
4.66

>  <topological_polar_surface_area>  (1782) 
37.30

>  <rotatable_bond_count>  (1782) 
3

>  <hydrogen_bond_acceptors>  (1782) 
2

>  <hydrogen_bond_donors>  (1782) 
1

>  <hydrogen_bond_acceptors_lipinski>  (1782) 
2

>  <hydrogen_bond_donors_lipinski>  (1782) 
1

>  <lipinski_rule_of_five_violations>  (1782) 
0

>  <aromatic_rings_count>  (1782) 
0

>  <qed_drug_likeliness>  (1782) 
0.77

>  <formal_charge>  (1782) 
0

>  <fractioncsp3>  (1782) 
0.85

>  <number_of_minimal_rings>  (1782) 
3

>  <van_der_walls_volume>  (1782) 
nan

>  <contains_sugar>  (1782) 
False

>  <contains_ring_sugars>  (1782) 
False

>  <contains_linear_sugars>  (1782) 
False

>  <murcko_framework>  (1782) 
C1CCC(CC1)CCC23CCCC(CC2)C3

>  <np_likeness>  (1782) 
2.41

>  <chemical_class>  (1782) 
Organooxygen compounds

>  <chemical_sub_class>  (1782) 
Alcohols and polyols

>  <chemical_super_class>  (1782) 
Organic oxygen compounds

>  <direct_parent_classification>  (1782) 
Cyclohexanols

>  <np_classifier_pathway>  (1782) 
Terpenoids

>  <np_classifier_superclass>  (1782) 
Diterpenoids

>  <np_classifier_class>  (1782) 
Secokaurane diterpenoids

>  <np_classifier_is_glycoside>  (1782) 
False

>  <organisms>  (1782) 
Vellozia caput-ardeae

>  <collections>  (1782) 
Latin America dataset|NuBBEDB|Super Natural II|WikiData Natural Products|ZINC NP

>  <dois>  (1782) 
10.1016/S0040-4039(00)85815-3

>  <synonyms>  (1782) 
Velloziolone

>  <cas>  (1782) 
nan

$$$$

     RDKit          2D

 32 35  0  0  0  0  0  0  0  0999 V2000
   -0.9943   -4.9455    0.0000 C   0  0  0  0  0  0  0  0  0  0  0  0
   -1.7846   -3.6705    0.0000 C   0  0  0  0  0  0  0  0  0  0  0  0
   -1.0756   -2.3487    0.0000 O   0  0  0  0  0  0  0  0  0  0  0  0
   -1.8658   -1.0737    0.0000 C   0  0  0  0  0  0  0  0  0  0  0  0
   -1.1568    0.2481    0.0000 O   0  0  0  0  0  0  0  0  0  0  0  0
    0.3425    0.2950    0.0000 C   0  0  0  0  0  0  0  0  0  0  0  0
    1.1327   -0.9799    0.0000 C   0  0  0  0  0  0  0  0  0  0  0  0
    0.4237   -2.3018    0.0000 O   0  0  0  0  0  0  0  0  0  0  0  0
    2.6320   -0.9331    0.0000 C   0  0  0  0  0  0  0  0  0  0  0  0
    3.4222   -2.2080    0.0000 C   0  0  0  0  0  0  0  0  0  0  0  0
    2.7132   -3.5299    0.0000 O   0  0  0  0  0  0  0  0  0  0  0  0
    4.9215   -2.1611    0.0000 C   0  0  0  0  0  0  0  0  0  0  0  0
    5.6305   -0.8393    0.0000 C   0  0  0  0  0  0  0  0  0  0  0  0
    7.1298   -0.7924    0.0000 O   0  0  0  0  0  0  0  0  0  0  0  0
    4.8403    0.4357    0.0000 C   0  0  0  0  0  0  0  0  0  0  0  0
    3.3410    0.3888    0.0000 C   0  0  0  0  0  0  0  0  0  0  0  0
    2.5508    1.6637    0.0000 O   0  0  0  0  0  0  0  0  0  0  0  0
    1.0515    1.6169    0.0000 C   0  0  0  0  0  0  0  0  0  0  0  0
    0.2613    2.8918    0.0000 C   0  0  0  0  0  0  0  0  0  0  0  0
    0.9703    4.2137    0.0000 C   0  0  0  0  0  0  0  0  0  0  0  0
    0.1801    5.4886    0.0000 C   0  0  0  0  0  0  0  0  0  0  0  0
   -1.3192    5.4417    0.0000 C   0  0  0  0  0  0  0  0  0  0  0  0
   -2.1094    6.7167    0.0000 O   0  0  0  0  0  0  0  0  0  0  0  0
   -2.0282    4.1199    0.0000 C   0  0  0  0  0  0  0  0  0  0  0  0
   -3.5275    4.0730    0.0000 O   0  0  0  0  0  0  0  0  0  0  0  0
   -1.2380    2.8449    0.0000 C   0  0  0  0  0  0  0  0  0  0  0  0
   -3.3651   -1.1206    0.0000 C   0  0  0  0  0  0  0  0  0  0  0  0
   -4.1553    0.1544    0.0000 O   0  0  0  0  0  0  0  0  0  0  0  0
   -4.0741   -2.4424    0.0000 C   0  0  0  0  0  0  0  0  0  0  0  0
   -5.5734   -2.4893    0.0000 O   0  0  0  0  0  0  0  0  0  0  0  0
   -3.2838   -3.7174    0.0000 C   0  0  0  0  0  0  0  0  0  0  0  0
   -3.9929   -5.0393    0.0000 O   0  0  0  0  0  0  0  0  0  0  0  0
  2  1  1  1
  2  3  1  0
  3  4  1  0
  4  5  1  6
  6  5  1  6
  6  7  1  0
  7  8  2  0
  7  9  1  0
  9 10  2  0
 10 11  1  0
 10 12  1  0
 12 13  2  0
 13 14  1  0
 13 15  1  0
 15 16  2  0
 16 17  1  0
 17 18  1  0
 18 19  1  6
 19 20  2  0
 20 21  1  0
 21 22  2  0
 22 23  1  0
 22 24  1  0
 24 25  1  0
 24 26  2  0
  4 27  1  0
 27 28  1  1
 27 29  1  0
 29 30  1  1
 29 31  1  0
 31 32  1  6
 31  2  1  0
 18  6  1  0
 26 19  1  0
 16  9  1  0
M  END
>  <identifier>  (1783) 
CNP0162136.9

>  <canonical_smiles>  (1783) 
C[C@@H]1O[C@@H](O[C@H]2C(=O)C3=C(O)C=C(O)C=C3O[C@H]2C2=CC=C(O)C(O)=C2)[C@H](O)[C@H](O)[C@H]1O

>  <standard_inchi>  (1783) 
InChI=1S/C21H22O11/c1-7-15(26)17(28)18(29)21(30-7)32-20-16(27)14-12(25)5-9(22)6-13(14)31-19(20)8-2-3-10(23)11(24)4-8/h2-7,15,17-26,28-29H,1H3/t7-,15-,17+,18+,19-,20-,21-/m0/s1

>  <standard_inchi_key>  (1783) 
ZROGCCBNZBKLEL-XEXNSLJOSA-N

>  <name>  (1783) 
Neoisoastilbin

>  <iupac_name>  (1783) 
(2~{S},3~{R})-2-(3,4-dihydroxyphenyl)-5,7-dihydroxy-3-[(2~{S},3~{R},4~{R},5~{R},6~{S})-3,4,5-trihydroxy-6-methyl-tetrahydropyran-2-yl]oxy-chroman-4-one

>  <annotation_level>  (1783) 
5

>  <total_atom_count>  (1783) 
54

>  <heavy_atom_count>  (1783) 
32

>  <molecular_weight>  (1783) 
450.4

>  <exact_molecular_weight>  (1783) 
450.11621

>  <molecular_formula>  (1783) 
C21H22O11

>  <alogp>  (1783) 
0.04

>  <topological_polar_surface_area>  (1783) 
186.37

>  <rotatable_bond_count>  (1783) 
3

>  <hydrogen_bond_acceptors>  (1783) 
11

>  <hydrogen_bond_donors>  (1783) 
7

>  <hydrogen_bond_acceptors_lipinski>  (1783) 
11

>  <hydrogen_bond_donors_lipinski>  (1783) 
7

>  <lipinski_rule_of_five_violations>  (1783) 
2

>  <aromatic_rings_count>  (1783) 
2

>  <qed_drug_likeliness>  (1783) 
0.31

>  <formal_charge>  (1783) 
0

>  <fractioncsp3>  (1783) 
0.38

>  <number_of_minimal_rings>  (1783) 
4

>  <van_der_walls_volume>  (1783) 
368.93

>  <contains_sugar>  (1783) 
True

>  <contains_ring_sugars>  (1783) 
True

>  <contains_linear_sugars>  (1783) 
False

>  <murcko_framework>  (1783) 
O1c2ccccc2CC(OC3OCCCC3)C1c4ccccc4

>  <np_likeness>  (1783) 
2.51

>  <chemical_class>  (1783) 
Flavonoids

>  <chemical_sub_class>  (1783) 
Flavonoid glycosides

>  <chemical_super_class>  (1783) 
Phenylpropanoids and polyketides

>  <direct_parent_classification>  (1783) 
Flavonoid-3-O-glycosides

>  <np_classifier_pathway>  (1783) 
Shikimates and Phenylpropanoids

>  <np_classifier_superclass>  (1783) 
Flavonoids

>  <np_classifier_class>  (1783) 
Dihydroflavonols

>  <np_classifier_is_glycoside>  (1783) 
True

>  <organisms>  (1783) 
Chamerion dodonaei|Dimorphandra mollis|Engelhardia roxburghiana|Epilobium dodonaei|Epilobium prantlii|Helenium arizonicum|Iryanthera sagotiana|Litsea sericea|Neolitsea aurata|Neolitsea sericea|Neoscopelus microchir|Petiveria alliacea|Pittosporum phillyraeoides|Placida dendritica|Sarcandra glabra|Smilax china|Smilax corbularia|Smilax glabra|Triticum aestivum

>  <collections>  (1783) 
CMAUP (cCollective molecular activities of useful plants)|Latin America dataset|NPASS|NuBBEDB|Super Natural II|WikiData Natural Products|ZINC NP

>  <dois>  (1783) 
10.1002/JCCS.200800067|10.1016/0031-9422(92)83304-H|10.1016/0031-9422(94)00629-8|10.1016/J.PHYTOCHEM.2010.12.018|10.1016/S0031-9422(97)00306-3|10.1248/CPB.36.4167|10.1590/S0103-50532002000100019|10.3987/COM-03-9775

>  <synonyms>  (1783) 
(2R-cis)-isomer of astilbin|(2S,3R)-2-(3,4-dihydroxyphenyl)-5,7-dihydroxy-3-[(2S,3R,4R,5R,6S)-3,4,5-trihydroxy-6-methyloxan-2-yl]oxy-2,3-dihydrochromen-4-one|(2S,3R)-Astilbin|4H-1-BENZOPYRAN-4-ONE, 3-((6-DEOXY-.ALPHA.-L-MANNOPYRANOSYL)OXY)-2-(3,4-DIHYDROXYPHENYL)-2,3-DIHYDRO-5,7-DIHYDROXY-, (2S,3R)-|4H-1-Benzopyran-4-one, 3-((6-deoxy-alpha-L-mannopyranosyl)oxy)-2-(3,4-dihydroxyphenyl)-2,3-dihydro-5,7-dihydroxy-, (2S,3R)-|54141-72-9|AKOS030553615|CS-0032432|DTXSID30311792|E88592|HY-N5116|KA92CW3M68|MS-28162|NSC-245342|UNII-KA92CW3M68|neoisoastilbin

>  <cas>  (1783) 
54141-72-9

$$$$

     RDKit          2D

 24 27  0  0  0  0  0  0  0  0999 V2000
    6.3813   -1.1593    0.0000 C   0  0  0  0  0  0  0  0  0  0  0  0
    4.9142   -1.4718    0.0000 C   0  0  0  0  0  0  0  0  0  0  0  0
    3.9100   -0.3575    0.0000 C   0  0  0  0  0  0  0  0  0  0  0  0
    4.2212    1.1099    0.0000 C   0  0  0  0  0  0  0  0  0  0  0  0
    5.5913    1.7206    0.0000 O   0  0  0  0  0  0  0  0  0  0  0  0
    2.9219    1.8593    0.0000 C   0  0  0  0  0  0  0  0  0  0  0  0
    1.8076    0.8552    0.0000 C   0  0  0  0  0  0  0  0  0  0  0  0
    0.3157    1.0113    0.0000 C   0  0  0  0  0  0  0  0  0  0  0  0
   -0.2949    2.3814    0.0000 C   0  0  0  0  0  0  0  0  0  0  0  0
   -1.7868    2.5375    0.0000 C   0  0  0  0  0  0  0  0  0  0  0  0
   -2.6680    1.3236    0.0000 C   0  0  0  0  0  0  0  0  0  0  0  0
   -4.1598    1.4798    0.0000 C   0  0  0  0  0  0  0  0  0  0  0  0
   -5.0410    0.2659    0.0000 C   0  0  0  0  0  0  0  0  0  0  0  0
   -6.5328    0.4221    0.0000 O   0  0  0  0  0  0  0  0  0  0  0  0
   -4.4303   -1.1042    0.0000 C   0  0  0  0  0  0  0  0  0  0  0  0
   -5.3114   -2.3181    0.0000 O   0  0  0  0  0  0  0  0  0  0  0  0
   -2.9384   -1.2603    0.0000 C   0  0  0  0  0  0  0  0  0  0  0  0
   -2.0573   -0.0464    0.0000 C   0  0  0  0  0  0  0  0  0  0  0  0
   -1.4466   -1.4165    0.0000 C   0  0  0  0  0  0  0  0  0  0  0  0
   -0.5654   -0.2026    0.0000 C   0  0  0  0  0  0  0  0  0  0  0  0
    0.0453   -1.5726    0.0000 C   0  0  0  0  0  0  0  0  0  0  0  0
    1.5371   -1.7288    0.0000 C   0  0  0  0  0  0  0  0  0  0  0  0
    2.4183   -0.5149    0.0000 C   0  0  0  0  0  0  0  0  0  0  0  0
    3.1688   -1.8136    0.0000 C   0  0  0  0  0  0  0  0  0  0  0  0
  1  2  1  0
  3  2  1  6
  3  4  1  0
  4  5  2  0
  4  6  1  0
  7  6  1  6
  7  8  1  0
  8  9  1  1
  9 10  1  0
 11 10  1  6
 11 12  1  0
 12 13  1  0
 13 14  1  6
 13 15  1  0
 15 16  1  6
 15 17  1  0
 17 18  1  0
 18 19  1  6
 18 20  1  0
 20 21  1  6
 21 22  1  0
 22 23  1  0
 23 24  1  6
 23  3  1  0
 23  7  1  0
 20  8  1  0
 18 11  1  0
M  END
>  <identifier>  (1784) 
CNP0270409.1

>  <canonical_smiles>  (1784) 
CC[C@H]1C(=O)C[C@H]2[C@@H]3CC[C@H]4C[C@@H](O)[C@@H](O)C[C@]4(C)[C@H]3CC[C@]12C

>  <standard_inchi>  (1784) 
InChI=1S/C21H34O3/c1-4-14-17(22)10-16-13-6-5-12-9-18(23)19(24)11-21(12,3)15(13)7-8-20(14,16)2/h12-16,18-19,23-24H,4-11H2,1-3H3/t12-,13+,14-,15-,16-,18+,19-,20+,21-/m0/s1

>  <standard_inchi_key>  (1784) 
RFTIRMPAYWBDKJ-GSTFJIRZSA-N

>  <name>  (1784) 
nan

>  <iupac_name>  (1784) 
(2~{S},3~{R},5~{S},8~{R},9~{S},10~{S},13~{S},14~{S},17~{R})-17-ethyl-2,3-dihydroxy-10,13-dimethyl-1,2,3,4,5,6,7,8,9,11,12,14,15,17-tetradecahydrocyclopenta[a]phenanthren-16-one

>  <annotation_level>  (1784) 
4

>  <total_atom_count>  (1784) 
58

>  <heavy_atom_count>  (1784) 
24

>  <molecular_weight>  (1784) 
334.5

>  <exact_molecular_weight>  (1784) 
334.25079

>  <molecular_formula>  (1784) 
C21H34O3

>  <alogp>  (1784) 
3.57

>  <topological_polar_surface_area>  (1784) 
57.53

>  <rotatable_bond_count>  (1784) 
1

>  <hydrogen_bond_acceptors>  (1784) 
3

>  <hydrogen_bond_donors>  (1784) 
2

>  <hydrogen_bond_acceptors_lipinski>  (1784) 
3

>  <hydrogen_bond_donors_lipinski>  (1784) 
2

>  <lipinski_rule_of_five_violations>  (1784) 
0

>  <aromatic_rings_count>  (1784) 
0

>  <qed_drug_likeliness>  (1784) 
0.77

>  <formal_charge>  (1784) 
0

>  <fractioncsp3>  (1784) 
0.95

>  <number_of_minimal_rings>  (1784) 
4

>  <van_der_walls_volume>  (1784) 
329.97

>  <contains_sugar>  (1784) 
False

>  <contains_ring_sugars>  (1784) 
False

>  <contains_linear_sugars>  (1784) 
False

>  <murcko_framework>  (1784) 
C1CCC2C(C1)CCC3C4CCCC4CCC23

>  <np_likeness>  (1784) 
2.84

>  <chemical_class>  (1784) 
Steroids and steroid derivatives

>  <chemical_sub_class>  (1784) 
Pregnane steroids

>  <chemical_super_class>  (1784) 
Lipids and lipid-like molecules

>  <direct_parent_classification>  (1784) 
Gluco\/mineralocorticoids, progestogins and derivatives

>  <np_classifier_pathway>  (1784) 
Terpenoids

>  <np_classifier_superclass>  (1784) 
Steroids

>  <np_classifier_class>  (1784) 
Pregnane steroids

>  <np_classifier_is_glycoside>  (1784) 
False

>  <organisms>  (1784) 
Acer spicatum|Aglaia grandis|Cephalaria procera|Citrus paradisi|Cytisus ciliatus|Diospyros maritima|Domohinea perrieri|Dracaena mannii|Helipterum propinquum|Limnodynastes interioris|Lobophytum denticulatum|Mannia fragrans|Mesua beccariana|Millettia pinnata|Nephthea armata|Parthenium bipinnatifidum|Pittosporum undulatum|Stephanitis rhododendri|Streptomyces luteosporeus|Trichilia claussenii

>  <collections>  (1784) 
CMAUP (cCollective molecular activities of useful plants)|Latin America dataset|NPASS|NuBBEDB|Super Natural II|WikiData Natural Products

>  <dois>  (1784) 
10.1016/S0031-9422(97)00145-3|10.1016/S0031-9422(97)00167-2

>  <synonyms>  (1784) 
2\u221a\u00e9\u00ac\u22643\u221a\u00e9\u00ac\u2264-Dihydroxypregnan-16-one

>  <cas>  (1784) 
nan

$$$$

     RDKit          2D

 11 11  0  0  0  0  0  0  0  0999 V2000
    3.4740   -0.7463    0.0000 C   0  0  0  0  0  0  0  0  0  0  0  0
    1.9898   -0.5295    0.0000 C   0  0  0  0  0  0  0  0  0  0  0  0
    1.0599   -1.7064    0.0000 C   0  0  0  0  0  0  0  0  0  0  0  0
   -0.4244   -1.4895    0.0000 C   0  0  0  0  0  0  0  0  0  0  0  0
   -0.9787   -0.0957    0.0000 C   0  0  0  0  0  0  0  0  0  0  0  0
   -2.4629    0.1212    0.0000 C   0  0  0  0  0  0  0  0  0  0  0  0
   -3.0172    1.5150    0.0000 C   0  0  0  0  0  0  0  0  0  0  0  0
   -3.3929   -1.0557    0.0000 C   0  0  0  0  0  0  0  0  0  0  0  0
   -0.0487    1.0813    0.0000 C   0  0  0  0  0  0  0  0  0  0  0  0
    1.4355    0.8644    0.0000 C   0  0  0  0  0  0  0  0  0  0  0  0
    2.3655    2.0413    0.0000 O   0  0  0  0  0  0  0  0  0  0  0  0
  1  2  1  0
  2  3  2  0
  3  4  1  0
  4  5  2  0
  5  6  1  0
  6  7  1  0
  6  8  1  0
  5  9  1  0
  9 10  2  0
 10 11  1  0
 10  2  1  0
M  END
>  <identifier>  (1785) 
CNP0210919.0

>  <canonical_smiles>  (1785) 
CC1=CC=C(C(C)C)C=C1O

>  <standard_inchi>  (1785) 
InChI=1S/C10H14O/c1-7(2)9-5-4-8(3)10(11)6-9/h4-7,11H,1-3H3

>  <standard_inchi_key>  (1785) 
RECUKUPTGUEGMW-UHFFFAOYSA-N

>  <name>  (1785) 
CARVACROL

>  <iupac_name>  (1785) 
5-isopropyl-2-methyl-phenol

>  <annotation_level>  (1785) 
5

>  <total_atom_count>  (1785) 
25

>  <heavy_atom_count>  (1785) 
11

>  <molecular_weight>  (1785) 
150.22

>  <exact_molecular_weight>  (1785) 
150.10447

>  <molecular_formula>  (1785) 
C10H14O

>  <alogp>  (1785) 
2.82

>  <topological_polar_surface_area>  (1785) 
20.23

>  <rotatable_bond_count>  (1785) 
1

>  <hydrogen_bond_acceptors>  (1785) 
1

>  <hydrogen_bond_donors>  (1785) 
1

>  <hydrogen_bond_acceptors_lipinski>  (1785) 
1

>  <hydrogen_bond_donors_lipinski>  (1785) 
1

>  <lipinski_rule_of_five_violations>  (1785) 
0

>  <aromatic_rings_count>  (1785) 
1

>  <qed_drug_likeliness>  (1785) 
0.65

>  <formal_charge>  (1785) 
0

>  <fractioncsp3>  (1785) 
0.40

>  <number_of_minimal_rings>  (1785) 
1

>  <van_der_walls_volume>  (1785) 
158.23

>  <contains_sugar>  (1785) 
False

>  <contains_ring_sugars>  (1785) 
False

>  <contains_linear_sugars>  (1785) 
False

>  <murcko_framework>  (1785) 
c1ccccc1

>  <np_likeness>  (1785) 
0.27

>  <chemical_class>  (1785) 
Prenol lipids

>  <chemical_sub_class>  (1785) 
Monoterpenoids

>  <chemical_super_class>  (1785) 
Lipids and lipid-like molecules

>  <direct_parent_classification>  (1785) 
Aromatic monoterpenoids

>  <np_classifier_pathway>  (1785) 
Terpenoids

>  <np_classifier_superclass>  (1785) 
Monoterpenoids

>  <np_classifier_class>  (1785) 
Menthane monoterpenoids

>  <np_classifier_is_glycoside>  (1785) 
False

>  <organisms>  (1785) 
Acacia aulacocarpa|Aceriphyllum rossii|Achillea abrotanoides|Achillea ageratum|Achillea arabica|Achillea biebersteinii|Achillea crithmifolia|Achillea fragrantissima|Achillea grandifolia|Achillea millefolium|Achillea wilhelmsii|Actinomadura hibisca|Agastache rugosa|Agnorhiza bolanderi|Aguacate|Ajania fastigiata|Ajuga chamaepitys|Akebia quinata|Akebia trifoliata|Alangium premnifolium|Alligator mississippiensis|Aloysia citriodora|Aloysia citrodora|Aloysia triphylla|Alpinia latilabris|Amphimedon terpenensis|Anabasis setifera|Anastrepha suspensa|Anaxagorea clavata|Anemone flaccida|Anethum graveolens|Angelica Sinensis|Angelica dahurica|Angelica sinensis|Angelica tarokoensis|Anthemis aciphylla|Anthemis aciphylla BOISS.var.discoidea BOISS|Arabidopsis thaliana|Araujia sericifera|Ardisia neriifolia|Ardisiae japonicae|Aria pallescens|Aristolochia debilis|Arnica nevadensis|Artemisia Annua|Artemisia annua|Artemisia annua L.|Artemisia apiacea|Artemisia argyi|Artemisia capillaris|Artemisia carvifolia|Artemisia coerulescens|Artemisia dracunculus|Artemisia herba-alba|Artemisia judaica|Artemisia ludoviciana|Artemisia monogyna|Artemisia montana|Artemisia princeps|Artemisia scoparia|Artemisia tridentata|Asarum sieboldii|Ascocoryne sarcoides|Aspergillus caespitosus|Aspidosperma subincanum|Astilbe koreana|Astilbe odontophylla|Athamanta macedonica|Baccharis dracunculifolia|Baeckea frutescens|Baeckea frutescens L.|Barbarea vulgaris subsp. arcuata|Bassia butyracea|Beilschmiedia oreophila|Betula pubescens litwinowii|Beyeria brevifolia|Blepharocalyx salicifolius|Blepharocalyx tweediei|Bombax ceiba|Boronia muelleri|Bothriospermum secundum|Botryosphaeria rhodina|Bowdichia nitida|Bragantia wallichii|Bupleurum fruticescens|Bupleurum fruticosum|Burkholderia cepacia|Bursaria spinosa|Calamintha sp.|Callistemon citrinus|Canarium Album|Canarium album|Cannabis sativa|Cantinoa mutabilis|Carthamus tinctorius|Carum carvi|Caryocar glabrum|Cassia carnaval|Centipeda minima|Chamaemelum nobile|Chamomilla recutita|Chenopodium ambrosioides|Chiliadenus lopadusanus|Chloranthus tianmushanensis|Chromolaena odorata|Chromolaena pulchella|Cinnamomum Camphora|Cinnamomum aromaticum|Cinnamomum burmanni|Cinnamomum camphora|Cinnamomum cassia|Cinnamomum illicioides|Cinnamomum iners|Cinnamomum pachyphyllum|Cinnamomum zeylanicum|Cinnamon|Citrus Reticulata|Citrus aurantium|Citrus maxima|Citrus medica|Citrus natsudaidai|Citrus reticulata|Citrus reticulate|Citrus sinensis|Citrus trifoliata|Citrus unshiu|Citrus ×iyo|Cladonia evansii|Clinopodium barbatum|Clinopodium carolinianum|Clinopodium congestum|Clinopodium grandiflorum|Clonostachys rosea|Coccus fagi|Colchicum macedonicum|Coleus amboinicus|Colobocentrotus atratus|Conoideocrella tenuis|Coprosma acerosa|Coptis deltoidea|Coriandrum sativum|Coridothymus capitatus|Corydalis stricta|Cranfillia vulcanica|Croton mucronifolius|Cryptocarya agathophylla|Cryptocarya aschersoniana|Cryptocarya triplinervis|Cuminum cyminum|Cupressus torulosa|Curcuma longa|Cyanospira rippkae|Cyclotrichium niveum|Cymathere triplicata|Cymbopogon schoenanthus|Cyperus rotundus|Dacrydium falciforme|Dalbergia frutescens|Daucus carota|Delphinium andersoni|Dendrosenecio kilimanjari|Derris sericea|Dicliptera riparia|Dictamnus albus|Dillenia papuana|Dimocarpus fumatus|Diphasia angolensis|Dipterocarpus alatus|Drosera peltata|Dysphania ambrosioides|Echinophora orientalis|Echinophora tenuifolia|Echinophora tournefortii|Echinops amplexicaulis|Elaeagnus umbellata|Elsholtzia ciliata|Elsholtzia splendens|Epaltes gariepina|Ephedra sinica|Epimedium davidii|Erwinia rhapontici|Erysimum odoratum|Eucalyptus dealbata|Eucalyptus tereticornis|Eupatorium argentinum|Eupatorium fortunei|Euphorbia caducifolia|Euphorbia officinarum subsp. echinus|Eupolyphaga sinensis|Eutypella scoparia|Fagara ailanthoides|Ferula jaeschkeana|Ferula ovina|Ficus elastica|Ficus formosana|Foeniculum vulgare|Frullania tamarisci|Fusarium gibbosum|Galenia africana|Gardenia fosbergii|Gentiana lutea|Geum heterocarpum|Globba malaccensis|Gnidia lamprantha|Gossypium hirsutum|Great yellow gentian|Guatteria boliviana|Gundelia tournefortii|Helianthopsis bishopii|Helichrysum arenarium|Helichrysum odoratissimum|Heterotheca inuloides|Homo sapiens|Houttuynia Cordata|Houttuynia cordata|Houttuynia emeiensis|Humulus japonicus|Hydnocarpus venenata|Hypericum papuanum|Hypselodoris cantabrica|Hyptis mutabilis|Hyptis pectinata|Hyssopus officinalis|Hyssopus seravschanicus|Ilex affinis|Ilex amara|Ilex kaushue|Illicium verum|Inula thapsoides|Isodon japonicus|Isodon kameba|Isodon melissoides|Juglans nigra|Juniperus brevifolia|Juniperus sp.|Kaempferia pulchra|Kaunia arbuscularis|Knightia excelsa|Kobus ellipsiprymnus|Labiatae|Lactarius scrobiculatus|Lagoecia cuminoides|Lamiaceae|Laser trilobum|Lasius carniolicus|Laurencia distichophylla|Lavandula latifolia|Lavandula multifida|Ledum columbianum|Leonurus glaucescens|Lepechinia chamaedryoides|Lepechinia chilensis|Lepidium draba|Levisticum officinale|Limeum pterocarpum|Lippia abyssinica|Lippia adoensis|Lippia alnifolia|Lippia chevalieri|Lippia gracilis|Lippia grata|Lippia graveolens|Lippia micromera|Lippia multiflora|Lippia origanoides|Lippia sidoides|Lippia sp.|Lobelia chinensis|Lonicera Japonica|Lonicera japonica|Lupinus formosus|Lycopodium casuarinoides|Maba buxifolia|Macleaya cordata|Macrocystidia cucumis|Maesopsis eminii|Magnolia liliflora|Magnolia liliiflora|Mangifera indica|Marrubium parviflorum|Matricaria chamomilla|Melissa officinalis|Mentha longifolia|Mentha piperita|Mentha pulegium|Mentha spicata|Mentha suaveolens|Mesosphaerum pectinatum|Micromeria juliana|Micromeria myrtifolia|Micromeria nervosa|Micromeria pineolens|Minthostachys glabrescens|Minthostachys mollis|Monarda citriodora|Monarda fistulosa|Monarda punctata|Morus alba|Mosla Chinensis|Mosla cavaleriei|Mosla chinensis|Murraya paniculata|Mycale cecilia|Myristica fragrans|Nemalion vermiculare|Neolentinus lepideus|Nepeta annua|Nepeta mussini|Nepeta racemosa|Nepeta trachonitica|Nerita albicilla|Nidula candida|Nigella sativa|Nigella sativa L|Ocimum gratissimum|Ocimum tenuiflorum|Ocotea corymbosa|Odixia angusta|Ophiocoma scolopendrina|Origanum|Origanum acutidens|Origanum adanense|Origanum bilgeri|Origanum cordifolium|Origanum dictamnus|Origanum floribundum|Origanum hypericifolium|Origanum intercedens|Origanum majorana|Origanum minutiflorum|Origanum munzurense|Origanum onites|Origanum sipyleum|Origanum sp.|Origanum syriacum|Origanum vulgare|Orthodon hadai|Otostegia fruticosa|Oxandra xylopioides|Paeonia lactiflora|Palicourea alpina|Palicourea fendleri|Parmelia enteromorpha|Pelargonium endlicherianum|Pelargonium quercifolium|Penicillium citreonigrum|Pericarpium citri reticulatae viride|Perilla frutescens|Perilla frutescens var. hirtella|Peritassa compta|Persea tolimanensis|Persicaria thunbergii|Pheidole pallidula|Phlomis lanata|Phyla nodiflora|Phyllarthron comorense|Pimenta dioica|Pimenta racemosa|Pimpinella anisum|Pinus cembra|Pinus halepensis|Piper Betle|Piper betle|Piper crassinervium|Piper nigrum|Pistacia vera|Polygala senega|Portulaca okinawensis|Portulaca oleracea|Posoqueria latifolia|Prangos uechtritzii|Prosopis glandulosa|Prunus laurocerasus|Prunus persica|Pseudopterogorgia kallos|Psiadia dentata|Psidium guajava|Pteris prolifera|Pterocarpus grandiflorus|Pyrosoma giganteum|Quercus aegilops|Quercus sessiliflora|Rhanterium epapposum|Rheedia acuminata|Rhizobium phaseoli|Rhodiola rosea|Rhodiola rosea L.|Rhodomyrtus tomentosa|Rosmarinus officinalis|Salacia madagascariensis|Salix sieboldiana|Salvia absconditiflora|Salvia caespitosa|Salvia fruticosa|Salvia officinalis|Salvia pomifera|Salvia sclarea|Salvia triloba|Salvia xalapensis|Sambucus ebulus|Sambucus nigra|Santolina chamaecyparissus|Santolina corsica|Santolina insularis|Satureja boissieri|Satureja cilicica|Satureja cuneifolia|Satureja hortensis|Satureja kitaibelii|Satureja montana|Satureja parnassica|Satureja sp.|Satureja spicigera|Satureja thymbra|Satureja wiedemanniana|Saussurea carthamoides|Scrophularia smithii|Scutellaria lateriflora|Securidaca inappendiculata|Senecio squalidus|Senegalia tenuifolia|Senna alexandrina|Seriphidium cinum|Sesbania punicea|Sideritis amasiaca|Sideritis arborescens|Sideritis cretica|Sideritis curvidens|Sideritis dichotoma|Sideritis hirsuta|Sideritis hispida|Sideritis lanata|Sideritis lyciae|Sideritis montana|Sideritis reverchonii|Sideritis romana|Sideritis rubriflora|Sideritis syriaca|Simira eliezeriana|Solanum acaule|Solanum torvum|Sphagneticola trilobata|Spodoptera eridania|Spongia maynardii|Stachys cretica|Stellera chamaejasme|Stenostomum lucidum|Stoebe plumosa|Stoebe vulgaris|Stolonica socialis|Streptomyces althioticus|Streptomyces fulvoviridis|Streptomyces griseovariabilis|Strobilanthes callosa|Strobilanthes zeylanica|Stypopodium flabelliforme|Swertia delavayi|Symphyocladia latiuscula|Talaromyces luteus|Tamarindus indica|Tanacetum annuum|Tanacetum parthenium|Tanacetum santolinoides|Taxodium mucronatum|Tephrosia crassifolia|Tetraclinis articulata|Tetraclinis sp.|Teucrium cyprium|Teucrium kotschyanum|Teucrium leucocladum|Teucrium micropodioides|Teucrium polium|Thermotoga maritima|Thuja occidentalis|Thuja sp.|Thujopsis dolabrata|Thymbra capitata|Thymbra sintenisii|Thymbra spicata|Thyme|Thymus|Thymus Carmanicus|Thymus Vulgaris|Thymus broussonetii|Thymus capitatus|Thymus cilicicus|Thymus daghestanicus|Thymus eigii|Thymus fedtschenkoi|Thymus funkii|Thymus karamarianicus|Thymus kosteletzkyanus|Thymus kotschyanus|Thymus leucostomus|Thymus longicaulis|Thymus longiflorus|Thymus magnus|Thymus maroccanus|Thymus marschallianus|Thymus membranaceus|Thymus migricus|Thymus nummularius|Thymus orespedanus|Thymus pannonicus|Thymus pastoralis|Thymus pectinatus|Thymus piperella|Thymus praecox|Thymus pubescens|Thymus pulegioides|Thymus quinquecostatus|Thymus revolutus|Thymus riatarum|Thymus saturejoides|Thymus schimperi|Thymus sibthorpii|Thymus sp.|Thymus thracicus|Thymus vulgaris|Thymus vulgaris L.|Thymus zygioides|Thymus zygis|Torulopsis magnoliae|Trachyspermum Roxburghianum|Trachyspermum ammi|Trachyspermum roxburghianum|Trichocolea tomentella|Trifolium alexandrium|Trifolium pratense|Trypetheliopsis boninensis|Tussilago farfara|Tylophora flava|Uvaria chamae|Vaccinium ashei|Vaccinium corymbosum|Vaccinium macrocarpon|Vaccinium virgatum|Vaccinium vitis-idaea|Valeriana officinalis|Vallota purpurea|Vismia jefensis|Vitex madiensis|Vogtia annua|Wunderlichia mirabilis|Xanthium orientale|Xanthium strumarium|Xenia puertogalerae|Xylocarpus moluccensis|Xylopia aromatica|Xylopia sericea|Zataria multiflora|Zea mays|Zilla spinosa|Zingiber|Zingiber officinale|basil|candyleaf|clove|common myrtle|guarana|liquorice|maize|marjoram|tarragon|tomato

>  <collections>  (1785) 
ANPDB|Australian natural products|CMAUP (cCollective molecular activities of useful plants)|ChEBI NPs|EMNPD|ETM (Ethiopian Traditional Medicine) DB|FooDB|InflamNat|KNApSaCK|Latin America dataset|NANPDB (Natural Products from Northern African Sources)|NPACT|NPASS|NPCARE|NPDBEjeCol|NPEdia|NuBBEDB|PeruNPDB|Phenol-explorer|Phyto4Health|PhytoLab phyproof® Reference Substances|Super Natural II|TCMDB-Taiwan (Traditional Chinese Medicine database)|TCMID (Traditional Chinese Medicine Integrated Database)|TIPdb (database of Taiwan indigenous plants)|TPPT (Toxic Plants–PhytoToxins)|UNPD (Universal Natural Products Database)|VietHerb|WikiData Natural Products

>  <dois>  (1785) 
10.1002/(SICI)1096-9063(199702)49:2<119::AID-PS512>3.0.CO;2-A|10.1002/(SICI)1099-1026(199611)11:6<367::AID-FFJ598>3.0.CO;2-R|10.1002/(SICI)1099-1026(1998070)13:4<245::AID-FFJ736>3.0.CO;2-J|10.1002/(SICI)1099-1026(199911/12)14:6<405::AID-FFJ853>3.0.CO;2-M|10.1002/(SICI)1099-1573(199605)10:3<248::AID-PTR807>3.0.CO;2-9|10.1002/1099-1026(200011/12)15:6<373::AID-FFJ923>3.0.CO;2-9|10.1002/1099-1573(200008)14:5<323::AID-PTR621>3.0.CO;2-Q|10.1002/9780470744307.gat218|10.1002/CBDV.201100039|10.1002/CBER.19470800613|10.1002/CJOC.201180379|10.1002/FFJ.1029|10.1002/FFJ.1036|10.1002/FFJ.1305|10.1002/FFJ.1547|10.1002/FFJ.2730010103|10.1002/FFJ.2730020106|10.1002/FFJ.2730020110|10.1002/FFJ.2730040206|10.1002/FFJ.2730070110|10.1002/FFJ.2730090107|10.1002/FFJ.2730100408|10.1002/FFJ.2730100609|10.1002/FFJ.3227|10.1002/FFJ.984|10.1002/HLCA.19430260503|10.1002/JLAC.199619960115|10.1002/JPS.2600531215|10.1002/JPS.3080230706|10.1002/JSFA.2740430304|10.1002/PTR.1238|10.1002/PTR.2650010304|10.1002/PTR.2650040210|10.1002/PTR.2650040606|10.1002/PTR.2650070508|10.1002/PTR.2650090215|10.1002/PTR.7003|10.1002/biuz.19840140514|10.1002/ffj.2730090103|10.1007/BF00568252|10.1007/BF00568256|10.1007/BF00575062|10.1007/BF00576231|10.1007/BF00579141|10.1007/BF00598430|10.1007/BF00599279|10.1007/BF01042130|10.1007/BF01167568|10.1007/BF01267777|10.1007/BF01959201|10.1007/BF01961467|10.1007/BF02036716|10.1007/BF02236421|10.1007/BF02238211|10.1007/BF02858924|10.1007/BF02860163|10.1007/BF02908196|10.1007/BF03045450|10.1007/S00580-015-2192-Y|10.1007/S10600-006-0204-5|10.1007/S11418-006-0039-1|10.1007/S11418-007-0175-2|10.1007/S12272-011-1218-5|10.1016/0031-9422(80)80207-X|10.1016/0031-9422(81)85270-3|10.1016/0031-9422(83)85052-3|10.1016/0031-9422(89)80069-X|10.1016/0031-9422(90)85109-S|10.1016/0031-9422(92)83136-M|10.1016/0031-9422(94)00977-2|10.1016/0031-9422(95)00347-A|10.1016/0305-1978(84)90011-5|10.1016/0305-1978(92)90070-T|10.1016/0305-1978(93)90031-L|10.1016/0305-1978(94)90086-8|10.1016/0378-8741(91)90062-I|10.1016/0378-8741(91)90063-J|10.1016/0378-8741(94)90094-9|10.1016/J.APJTM.2016.06.009|10.1016/J.ARABJC.2012.04.042|10.1016/J.BSE.2003.12.009|10.1016/J.BSE.2010.01.009|10.1016/J.FITOTE.2004.05.002|10.1016/J.IJFOODMICRO.2008.10.017|10.1016/J.INDCROP.2014.11.043|10.1016/J.JPBA.2006.01.024|10.1016/J.JPLPH.2018.10.006|10.1016/J.PHYMED.2004.02.007|10.1016/J.PHYMED.2007.11.022|10.1016/J.PHYMED.2010.03.020|10.1016/J.PHYMED.2011.12.003|10.1016/J.PHYTOCHEM.2005.09.020|10.1016/J.PHYTOCHEM.2010.08.009|10.1016/S0021-9673(00)00231-4|10.1016/S0021-9673(01)82096-3|10.1016/S0021-9673(01)84593-3|10.1016/S0031-9422(00)80081-3|10.1016/S0031-9422(00)80325-8|10.1016/S0031-9422(00)90514-4|10.1016/S0031-9422(00)94541-2|10.1016/S0031-9422(02)00004-3|10.1016/S0031-9422(02)00477-6|10.1016/S0031-9422(97)00737-1|10.1016/S0031-9422(97)00795-4|10.1016/S0031-9422(98)00022-3|10.1016/S0367-326X(01)00327-6|10.1016/S0378-8741(01)00238-0|10.1016/S0378-8741(02)00318-5|10.1016/S0378-8741(97)00088-3|10.1016/S0378-8741(97)01528-6|10.1016/S0378-8741(99)00209-3|10.1016/S0925-5214(02)00250-8|10.1021/JF00029A021|10.1021/JF00035A029|10.1021/JF00056A055|10.1021/JF00068A009|10.1021/JF0402633|10.1021/JF051513Y|10.1021/JF60200A011|10.1021/JF60206A038|10.1021/JF60210A021|10.1021/JF60214A042|10.1021/JF60218A022|10.1021/JF950275B|10.1021/JF950540T|10.1021/JF9603893|10.1021/JF970031M|10.1021/JF970110Y|10.1021/JF9708296|10.1021/NP50008A001|10.1021/NP50017A018|10.1021/NP50034A044|10.1021/NP50035A036|10.1021/NP50039A032|10.1021/NP50039A037|10.1021/NP50041A038|10.1021/NP50044A019|10.1021/NP50045A046|10.1021/NP50047A039|10.1021/NP50048A037|10.1021/NP50048A039|10.1021/NP50051A029|10.1021/NP50062A008|10.1021/np50017a018|10.1023/A:1015205716921|10.1023/A:1022927615442|10.1055/S-0028-1099434|10.1055/S-0028-1099572|10.1055/S-0028-1100098|10.1055/S-0029-1243136|10.1055/S-2000-8627|10.1055/S-2000-8631|10.1055/S-2003-37032|10.1055/S-2004-832654|10.1055/S-2006-957640|10.1055/S-2006-957707|10.1055/S-2006-957810|10.1055/S-2006-959542|10.1055/S-2006-959548|10.1055/S-2006-959714|10.1055/S-2006-959755|10.1055/S-2006-960081|10.1055/S-2006-960872|10.1055/S-2006-961401|10.1055/S-2006-961452|10.1055/S-2006-962540|10.1055/S-2006-962640|10.1055/S-2006-962781|10.1055/S-2007-969050|10.1055/S-2007-969172|10.1055/S-2007-969176|10.1055/S-2007-969854|10.1055/S-2007-969862|10.1055/S-2007-970006|10.1076/1388-0209(200004)3821-1FT106|10.1076/PHBI.35.1.66.13267|10.1076/PHBI.35.3.218.13295|10.1076/PHBI.40.4.263.8465|10.1078/094471103321648674|10.1078/094471103322004785|10.1080/0972060X.2010.10643892|10.1080/0972060X.2013.813219|10.1080/0972060X.2014.895210|10.1080/10412905.1989.9697753|10.1080/10412905.1990.9697881|10.1080/10412905.1991.9697905|10.1080/10412905.1991.9697923|10.1080/10412905.1991.9697952|10.1080/10412905.1991.9697953|10.1080/10412905.1991.9697971|10.1080/10412905.1991.9697982|10.1080/10412905.1991.9697994|10.1080/10412905.1991.9700494|10.1080/10412905.1991.9700495|10.1080/10412905.1991.9700498|10.1080/10412905.1992.9698015|10.1080/10412905.1992.9698019|10.1080/10412905.1992.9698035|10.1080/10412905.1992.9698062|10.1080/10412905.1992.9698067|10.1080/10412905.1992.9698070|10.1080/10412905.1992.9698084|10.1080/10412905.1992.9698088|10.1080/10412905.1992.9698091|10.1080/10412905.1992.9698109|10.1080/10412905.1992.9698128|10.1080/10412905.1992.9698129|10.1080/10412905.1992.9698136|10.1080/10412905.1992.9698138|10.1080/10412905.1992.9698149|10.1080/10412905.1992.9698152|10.1080/10412905.1993.9698169|10.1080/10412905.1993.9698176|10.1080/10412905.1993.9698178|10.1080/10412905.1993.9698181|10.1080/10412905.1993.9698205|10.1080/10412905.1993.9698222|10.1080/10412905.1993.9698236|10.1080/10412905.1993.9698237|10.1080/10412905.1993.9698250|10.1080/10412905.1993.9698253|10.1080/10412905.1993.9698255|10.1080/10412905.1993.9698275|10.1080/10412905.1993.9698294|10.1080/10412905.1993.9698309|10.1080/10412905.1994.9698316|10.1080/10412905.1994.9698320|10.1080/10412905.1994.9698359|10.1080/10412905.1994.9698398|10.1080/10412905.1994.9698406|10.1080/10412905.1994.9698418|10.1080/10412905.1994.9698427|10.1080/10412905.1994.9698440|10.1080/10412905.1994.9698447|10.1080/10412905.1994.9698448|10.1080/10412905.1994.9698449|10.1080/10412905.1994.9699354|10.1080/10412905.1994.9699355|10.1080/10412905.1995.9698473|10.1080/10412905.1995.9698478|10.1080/10412905.1995.9698479|10.1080/10412905.1995.9698501|10.1080/10412905.1995.9698506|10.1080/10412905.1995.9698508|10.1080/10412905.1995.9698522|10.1080/10412905.1995.9698524|10.1080/10412905.1995.9698532|10.1080/10412905.1995.9698558|10.1080/10412905.1995.9698577|10.1080/10412905.1995.9700523|10.1080/10412905.1995.9700536|10.1080/10412905.1996.9700554|10.1080/10412905.1996.9700562|10.1080/10412905.1996.9700567|10.1080/10412905.1996.9701028|10.1080/10412905.1996.9701048|10.1080/10412905.1997.9700721|10.1080/10412905.1997.9700812|10.1080/10412905.1998.9700854|10.1080/10412905.1998.9700875|10.1080/10412905.1998.9700895|10.1080/10412905.1998.9700918|10.1080/10412905.1998.9700975|10.1080/10412905.1998.9701001|10.1080/10412905.1999.9701059|10.1080/10412905.1999.9701080|10.1080/10412905.1999.9701111|10.1080/10412905.1999.9701113|10.1080/10412905.1999.9701138|10.1080/10412905.1999.9701147|10.1080/10412905.1999.9701184|10.1080/10412905.2000.9699569|10.1080/10412905.2000.9712167|10.1080/10412905.2000.9712202|10.1080/10412905.2000.9712208|10.1080/10412905.2002.9699754|10.1080/10412905.2002.9699760|10.1080/10412905.2004.9698641|10.1080/10412905.2005.9698829|10.1080/10412905.2013.796498|10.1080/13880200500220268|10.1080/14786410500528478|10.1080/14786419.2010.532796|10.1080/14786419.2010.535150|10.1089/jmf.2012.0102|10.1093/OXFORDJOURNALS.AOB.A086958|10.1094/PHYTO.2000.90.7.710|10.1096/fj.06-6927com|10.1111/J.1365-2621.1985.TB13419.X|10.1111/J.1365-2672.1994.TB01661.X|10.1142/S0192415X87000151|10.1159/000381175|10.1186/1472-6882-6-39|10.1201/B14669-29|10.1246/NIKKASHI.1973.775|10.1246/NIKKASHI1948.81.6_981|10.1248/BPB.23.359|10.1248/BPB.24.307|10.1248/CPB.54.1465|10.1248/CPB.54.222|10.1248/CPB.54.725|10.1248/YAKUSHI1947.112.8_571|10.1271/BBB1961.47.1841|10.1271/BBB1961.48.2847|10.1271/NOGEIKAGAKU1924.61.1119|10.1371/journal.pone.0073076|10.1515/ZNC-2003-9-1004|10.1590/S1517-83822011000400049|10.21608/ZJPS.1998.184801|10.23850/24220582.3465|10.23893/1307-2080.APS.05611|10.3109/10408447709082600|10.3109/13880208409070665|10.3109/13880208709060907|10.3109/13880209109082875|10.3390/MOLECULES21111576|10.3891/ACTA.CHEM.SCAND.15-1313|10.3891/ACTA.CHEM.SCAND.16-1291|10.3891/ACTA.CHEM.SCAND.21-0945|10.3891/ACTA.CHEM.SCAND.21-2076|10.3906/KIM-1206-45|10.4268/CJCMM20111319|10.4314/BCSE.V12I1.21037|10.48347/IMIST.PRSM/ajmap-v5i1.15684|10.5897/JMPR10.078

>  <synonyms>  (1785) 
nan

>  <cas>  (1785) 
499-75-2

$$$$

     RDKit          2D

 24 27  0  0  0  0  0  0  0  0999 V2000
    6.7428   -0.6364    0.0000 C   0  0  0  0  0  0  0  0  0  0  0  0
    5.2550   -0.8276    0.0000 O   0  0  0  0  0  0  0  0  0  0  0  0
    4.3456    0.3652    0.0000 C   0  0  0  0  0  0  0  0  0  0  0  0
    4.9238    1.7493    0.0000 O   0  0  0  0  0  0  0  0  0  0  0  0
    2.8578    0.1740    0.0000 C   0  0  0  0  0  0  0  0  0  0  0  0
    2.9278    1.6724    0.0000 C   0  0  0  0  0  0  0  0  0  0  0  0
    3.3045   -1.2579    0.0000 C   0  0  0  0  0  0  0  0  0  0  0  0
    2.2877   -2.3607    0.0000 C   0  0  0  0  0  0  0  0  0  0  0  0
    0.8243   -2.0316    0.0000 C   0  0  0  0  0  0  0  0  0  0  0  0
    0.3776   -0.5996    0.0000 C   0  0  0  0  0  0  0  0  0  0  0  0
   -0.6392   -1.7025    0.0000 C   0  0  0  0  0  0  0  0  0  0  0  0
    1.3944    0.5032    0.0000 C   0  0  0  0  0  0  0  0  0  0  0  0
    0.9477    1.9351    0.0000 C   0  0  0  0  0  0  0  0  0  0  0  0
   -0.5158    2.2643    0.0000 C   0  0  0  0  0  0  0  0  0  0  0  0
   -1.5325    1.1614    0.0000 C   0  0  0  0  0  0  0  0  0  0  0  0
   -2.9960    1.4906    0.0000 C   0  0  0  0  0  0  0  0  0  0  0  0
   -3.4426    2.9225    0.0000 C   0  0  0  0  0  0  0  0  0  0  0  0
   -4.0127    0.3878    0.0000 C   0  0  0  0  0  0  0  0  0  0  0  0
   -3.5661   -1.0442    0.0000 C   0  0  0  0  0  0  0  0  0  0  0  0
   -2.1026   -1.3733    0.0000 C   0  0  0  0  0  0  0  0  0  0  0  0
   -1.0859   -0.2705    0.0000 C   0  0  0  0  0  0  0  0  0  0  0  0
   -4.7899   -1.9115    0.0000 O   0  0  0  0  0  0  0  0  0  0  0  0
   -5.9930   -1.0155    0.0000 C   0  0  0  0  0  0  0  0  0  0  0  0
   -5.5126    0.4055    0.0000 C   0  0  0  0  0  0  0  0  0  0  0  0
  1  2  1  0
  2  3  1  0
  3  4  2  0
  3  5  1  0
  5  6  1  6
  5  7  1  0
  7  8  1  0
  8  9  1  0
  9 10  1  0
 10 11  1  1
 10 12  1  0
 12 13  1  1
 13 14  1  0
 15 14  1  6
 15 16  1  0
 16 17  1  6
 16 18  1  0
 18 19  2  0
 19 20  1  0
 21 20  1  1
 19 22  1  0
 22 23  1  0
 23 24  2  0
 12  5  1  0
 21 15  1  0
 21 10  1  0
 24 18  1  0
M  END
>  <identifier>  (1786) 
CNP0340521.3

>  <canonical_smiles>  (1786) 
COC(=O)[C@@]1(C)CCC[C@@]2(C)[C@H]1CC[C@H]1[C@@H](C)C3=C(C[C@@H]12)OC=C3

>  <standard_inchi>  (1786) 
InChI=1S/C21H30O3/c1-13-14-6-7-18-20(2,9-5-10-21(18,3)19(22)23-4)16(14)12-17-15(13)8-11-24-17/h8,11,13-14,16,18H,5-7,9-10,12H2,1-4H3/t13-,14+,16+,18-,20-,21+/m1/s1

>  <standard_inchi_key>  (1786) 
CKWZZMAZBSXPHZ-WVDARTDPSA-N

>  <name>  (1786) 
nan

>  <iupac_name>  (1786) 
methyl (4~{S},4~{a}~{R},6~{a}~{S},7~{R},11~{a}~{S},11~{b}~{R})-4,7,11~{b}-trimethyl-1,2,3,4~{a},5,6,6~{a},7,11,11~{a}-decahydronaphtho[2,1-f]benzofuran-4-carboxylate

>  <annotation_level>  (1786) 
4

>  <total_atom_count>  (1786) 
54

>  <heavy_atom_count>  (1786) 
24

>  <molecular_weight>  (1786) 
330.47

>  <exact_molecular_weight>  (1786) 
330.21949

>  <molecular_formula>  (1786) 
C21H30O3

>  <alogp>  (1786) 
4.95

>  <topological_polar_surface_area>  (1786) 
39.44

>  <rotatable_bond_count>  (1786) 
1

>  <hydrogen_bond_acceptors>  (1786) 
3

>  <hydrogen_bond_donors>  (1786) 
0

>  <hydrogen_bond_acceptors_lipinski>  (1786) 
3

>  <hydrogen_bond_donors_lipinski>  (1786) 
0

>  <lipinski_rule_of_five_violations>  (1786) 
0

>  <aromatic_rings_count>  (1786) 
1

>  <qed_drug_likeliness>  (1786) 
0.68

>  <formal_charge>  (1786) 
0

>  <fractioncsp3>  (1786) 
0.76

>  <number_of_minimal_rings>  (1786) 
4

>  <van_der_walls_volume>  (1786) 
321.35

>  <contains_sugar>  (1786) 
False

>  <contains_ring_sugars>  (1786) 
False

>  <contains_linear_sugars>  (1786) 
False

>  <murcko_framework>  (1786) 
o1ccc2c1CC3C(C2)CCC4CCCCC43

>  <np_likeness>  (1786) 
2.75

>  <chemical_class>  (1786) 
Prenol lipids

>  <chemical_sub_class>  (1786) 
Diterpenoids

>  <chemical_super_class>  (1786) 
Lipids and lipid-like molecules

>  <direct_parent_classification>  (1786) 
Diterpenoids

>  <np_classifier_pathway>  (1786) 
Terpenoids

>  <np_classifier_superclass>  (1786) 
Diterpenoids

>  <np_classifier_class>  (1786) 
Cassane diterpenoids

>  <np_classifier_is_glycoside>  (1786) 
False

>  <organisms>  (1786) 
Andira aubletii|Caesalpinia benthamiana|Mezoneuron benthamianum|Vouacapoua americana|Vouacapoua pallidior

>  <collections>  (1786) 
KNApSaCK|Latin America dataset|NPASS|NuBBEDB|TCMDB-Taiwan (Traditional Chinese Medicine database)|WikiData Natural Products|ZINC NP

>  <dois>  (1786) 
10.1002/RECL.19300490310|10.1016/J.PHYTOCHEM.2007.03.008|10.1590/1809-43921984143453

>  <synonyms>  (1786) 
Deoxycaesaldekarin C|Deoxycaesaldekarin C (+)-methyl vouacapenate

>  <cas>  (1786) 
nan

$$$$

     RDKit          2D

 15 16  0  0  0  0  0  0  0  0999 V2000
   -4.1713    0.1008    0.0000 C   0  0  0  0  0  0  0  0  0  0  0  0
   -2.6761    0.2204    0.0000 C   0  0  0  0  0  0  0  0  0  0  0  0
   -2.0320    1.5751    0.0000 O   0  0  0  0  0  0  0  0  0  0  0  0
   -0.5368    1.6947    0.0000 C   0  0  0  0  0  0  0  0  0  0  0  0
    0.1073    3.0493    0.0000 O   0  0  0  0  0  0  0  0  0  0  0  0
    0.3144    0.4595    0.0000 C   0  0  0  0  0  0  0  0  0  0  0  0
   -0.3297   -0.8952    0.0000 C   0  0  0  0  0  0  0  0  0  0  0  0
    0.5215   -2.1303    0.0000 C   0  0  0  0  0  0  0  0  0  0  0  0
    2.0167   -2.0107    0.0000 C   0  0  0  0  0  0  0  0  0  0  0  0
    2.6608   -0.6560    0.0000 C   0  0  0  0  0  0  0  0  0  0  0  0
    4.1560   -0.5364    0.0000 O   0  0  0  0  0  0  0  0  0  0  0  0
    1.8096    0.5791    0.0000 C   0  0  0  0  0  0  0  0  0  0  0  0
    2.4537    1.9338    0.0000 O   0  0  0  0  0  0  0  0  0  0  0  0
   -1.8249   -1.0147    0.0000 C   0  0  0  0  0  0  0  0  0  0  0  0
   -2.4690   -2.3694    0.0000 O   0  0  0  0  0  0  0  0  0  0  0  0
  2  1  1  1
  2  3  1  0
  3  4  1  0
  4  5  2  0
  4  6  1  0
  6  7  2  0
  7  8  1  0
  8  9  2  0
  9 10  1  0
 10 11  1  0
 10 12  2  0
 12 13  1  0
  7 14  1  0
 14 15  1  1
 14  2  1  0
 12  6  1  0
M  END
>  <identifier>  (1787) 
CNP0122298.2

>  <canonical_smiles>  (1787) 
C[C@H]1OC(=O)C2=C(C=CC(O)=C2O)[C@H]1O

>  <standard_inchi>  (1787) 
InChI=1S/C10H10O5/c1-4-8(12)5-2-3-6(11)9(13)7(5)10(14)15-4/h2-4,8,11-13H,1H3/t4-,8+/m1/s1

>  <standard_inchi_key>  (1787) 
AWJLARVNMUSPPN-VHWMUFPASA-N

>  <name>  (1787) 
nan

>  <iupac_name>  (1787) 
(3~{R},4~{R})-4,7,8-trihydroxy-3-methyl-isochroman-1-one

>  <annotation_level>  (1787) 
5

>  <total_atom_count>  (1787) 
25

>  <heavy_atom_count>  (1787) 
15

>  <molecular_weight>  (1787) 
210.18

>  <exact_molecular_weight>  (1787) 
210.05282

>  <molecular_formula>  (1787) 
C10H10O5

>  <alogp>  (1787) 
0.69

>  <topological_polar_surface_area>  (1787) 
86.99

>  <rotatable_bond_count>  (1787) 
0

>  <hydrogen_bond_acceptors>  (1787) 
5

>  <hydrogen_bond_donors>  (1787) 
3

>  <hydrogen_bond_acceptors_lipinski>  (1787) 
5

>  <hydrogen_bond_donors_lipinski>  (1787) 
3

>  <lipinski_rule_of_five_violations>  (1787) 
0

>  <aromatic_rings_count>  (1787) 
1

>  <qed_drug_likeliness>  (1787) 
0.43

>  <formal_charge>  (1787) 
0

>  <fractioncsp3>  (1787) 
0.30

>  <number_of_minimal_rings>  (1787) 
2

>  <van_der_walls_volume>  (1787) 
175.14

>  <contains_sugar>  (1787) 
False

>  <contains_ring_sugars>  (1787) 
False

>  <contains_linear_sugars>  (1787) 
False

>  <murcko_framework>  (1787) 
O1Cc2ccccc2CC1

>  <np_likeness>  (1787) 
2.27

>  <chemical_class>  (1787) 
Benzopyrans

>  <chemical_sub_class>  (1787) 
2-benzopyrans

>  <chemical_super_class>  (1787) 
Organoheterocyclic compounds

>  <direct_parent_classification>  (1787) 
2-benzopyrans

>  <np_classifier_pathway>  (1787) 
Shikimates and Phenylpropanoids

>  <np_classifier_superclass>  (1787) 
Coumarins

>  <np_classifier_class>  (1787) 
Isocoumarins

>  <np_classifier_is_glycoside>  (1787) 
False

>  <organisms>  (1787) 
Cordiera macrophylla|Penicillium|Penicillium sp.

>  <collections>  (1787) 
ChemSpider NPs|Latin America dataset|NuBBEDB|Super Natural II|WikiData Natural Products|ZINC NP

>  <dois>  (1787) 
10.1016/J.PHYTOL.2010.11.003|10.1016/j.phytol.2010.11.003

>  <synonyms>  (1787) 
(3R4R)-47-Dihydroxymellein

>  <cas>  (1787) 
nan

$$$$

     RDKit          2D

 13 14  0  0  0  0  0  0  0  0999 V2000
    1.1102    2.8060    0.0000 O   0  0  0  0  0  0  0  0  0  0  0  0
    0.0496    1.7454    0.0000 C   0  0  0  0  0  0  0  0  0  0  0  0
   -1.3993    2.1336    0.0000 C   0  0  0  0  0  0  0  0  0  0  0  0
   -2.4600    1.0730    0.0000 C   0  0  0  0  0  0  0  0  0  0  0  0
   -2.0717   -0.3759    0.0000 C   0  0  0  0  0  0  0  0  0  0  0  0
   -3.1324   -1.4366    0.0000 O   0  0  0  0  0  0  0  0  0  0  0  0
   -0.6229   -0.7642    0.0000 C   0  0  0  0  0  0  0  0  0  0  0  0
   -0.2346   -2.2131    0.0000 C   0  0  0  0  0  0  0  0  0  0  0  0
    1.2143   -2.6013    0.0000 C   0  0  0  0  0  0  0  0  0  0  0  0
    2.2749   -1.5406    0.0000 C   0  0  0  0  0  0  0  0  0  0  0  0
    1.8867   -0.0917    0.0000 C   0  0  0  0  0  0  0  0  0  0  0  0
    2.9474    0.9689    0.0000 O   0  0  0  0  0  0  0  0  0  0  0  0
    0.4378    0.2965    0.0000 C   0  0  0  0  0  0  0  0  0  0  0  0
  1  2  2  0
  2  3  1  0
  3  4  1  0
  4  5  1  0
  5  6  1  6
  5  7  1  0
  7  8  2  0
  8  9  1  0
  9 10  2  0
 10 11  1  0
 11 12  1  0
 11 13  2  0
 13  2  1  0
 13  7  1  0
M  END
>  <identifier>  (1788) 
CNP0252911.1

>  <canonical_smiles>  (1788) 
O=C1CC[C@@H](O)C2=CC=CC(O)=C12

>  <standard_inchi>  (1788) 
InChI=1S/C10H10O3/c11-7-4-5-9(13)10-6(7)2-1-3-8(10)12/h1-3,7,11-12H,4-5H2/t7-/m1/s1

>  <standard_inchi_key>  (1788) 
ZXYYTDCENDYKBR-SSDOTTSWSA-N

>  <name>  (1788) 
Regiolone

>  <iupac_name>  (1788) 
(4~{R})-4,8-dihydroxytetralin-1-one

>  <annotation_level>  (1788) 
5

>  <total_atom_count>  (1788) 
23

>  <heavy_atom_count>  (1788) 
13

>  <molecular_weight>  (1788) 
178.19

>  <exact_molecular_weight>  (1788) 
178.06299

>  <molecular_formula>  (1788) 
C10H10O3

>  <alogp>  (1788) 
1.40

>  <topological_polar_surface_area>  (1788) 
57.53

>  <rotatable_bond_count>  (1788) 
0

>  <hydrogen_bond_acceptors>  (1788) 
3

>  <hydrogen_bond_donors>  (1788) 
2

>  <hydrogen_bond_acceptors_lipinski>  (1788) 
3

>  <hydrogen_bond_donors_lipinski>  (1788) 
2

>  <lipinski_rule_of_five_violations>  (1788) 
0

>  <aromatic_rings_count>  (1788) 
1

>  <qed_drug_likeliness>  (1788) 
0.63

>  <formal_charge>  (1788) 
0

>  <fractioncsp3>  (1788) 
0.30

>  <number_of_minimal_rings>  (1788) 
2

>  <van_der_walls_volume>  (1788) 
157.30

>  <contains_sugar>  (1788) 
False

>  <contains_ring_sugars>  (1788) 
False

>  <contains_linear_sugars>  (1788) 
False

>  <murcko_framework>  (1788) 
c1ccc2c(c1)CCCC2

>  <np_likeness>  (1788) 
1.71

>  <chemical_class>  (1788) 
Tetralins

>  <chemical_sub_class>  (1788) 
Tetralins

>  <chemical_super_class>  (1788) 
Benzenoids

>  <direct_parent_classification>  (1788) 
Tetralins

>  <np_classifier_pathway>  (1788) 
Polyketides

>  <np_classifier_superclass>  (1788) 
Naphthalenes

>  <np_classifier_class>  (1788) 
Naphthalenones

>  <np_classifier_is_glycoside>  (1788) 
False

>  <organisms>  (1788) 
Colletotrichum gloeosporioides|Engelhardia roxburghiana|Juglans mandshurica|Juglans mandshurica MAXIM.var.sieboldiana MAKINO|Juglans mandshurica var. sieboldiana|Juglans regia|Jugo

>  <collections>  (1788) 
CMAUP (cCollective molecular activities of useful plants)|ChemSpider NPs|EMNPD|KNApSaCK|Latin America dataset|NPASS|NPEdia|NuBBEDB|Phyto4Health|Super Natural II|TCMDB-Taiwan (Traditional Chinese Medicine database)|WikiData Natural Products

>  <dois>  (1788) 
10.1016/J.BSE.2006.06.007|10.1016/j.bse.2006.06.007|10.1055/S-2008-1074536|10.1248/CPB.53.934

>  <synonyms>  (1788) 
(-)-isosclerone|(4R)-3,4-Dihydro-4,8-dihydroxy-1(2H)-naphthalenone|(4R)-4,8-DIHYDROXY-.ALPHA.-TETRALONE|(4R)-4,8-Dihydroxy-3,4-dihydro-2H-naphthalen-1-one|(4R)-4,8-Dihydroxy-alpha-tetralone|(4R)-48-dihydroxy-\u221a\u00e9\u00ac\u00b1-tetralone|(R)-(-)-Regiolone|1(2H)-Naphthalenone, 3,4-dihydro-4,8-dihydroxy-, (4R)-|137494-04-3|AKOS028109227|CHEMBL482610|CP52QT43RP|CS-0144126|HY-N8416|ISOSCLERONE, (R)-|Regiolone, (R)-(-)-|UNII-CP52QT43RP

>  <cas>  (1788) 
137494-04-3

$$$$

     RDKit          2D

 24 24  0  0  0  0  0  0  0  0999 V2000
  -13.1272    0.8249    0.0000 C   0  0  0  0  0  0  0  0  0  0  0  0
  -11.8837   -0.0140    0.0000 C   0  0  0  0  0  0  0  0  0  0  0  0
  -10.5355    0.6435    0.0000 C   0  0  0  0  0  0  0  0  0  0  0  0
   -9.2920   -0.1954    0.0000 C   0  0  0  0  0  0  0  0  0  0  0  0
   -7.9437    0.4621    0.0000 C   0  0  0  0  0  0  0  0  0  0  0  0
   -6.7002   -0.3768    0.0000 C   0  0  0  0  0  0  0  0  0  0  0  0
   -5.3520    0.2806    0.0000 C   0  0  0  0  0  0  0  0  0  0  0  0
   -4.1085   -0.5582    0.0000 C   0  0  0  0  0  0  0  0  0  0  0  0
   -2.7603    0.0992    0.0000 C   0  0  0  0  0  0  0  0  0  0  0  0
   -1.5168   -0.7396    0.0000 C   0  0  0  0  0  0  0  0  0  0  0  0
   -0.1685   -0.0822    0.0000 C   0  0  0  0  0  0  0  0  0  0  0  0
    1.0750   -0.9211    0.0000 C   0  0  0  0  0  0  0  0  0  0  0  0
    2.4232   -0.2636    0.0000 O   0  0  0  0  0  0  0  0  0  0  0  0
    3.6667   -1.1025    0.0000 C   0  0  0  0  0  0  0  0  0  0  0  0
    3.5620   -2.5988    0.0000 O   0  0  0  0  0  0  0  0  0  0  0  0
    5.0149   -0.4450    0.0000 C   0  0  0  0  0  0  0  0  0  0  0  0
    5.1197    1.0513    0.0000 C   0  0  0  0  0  0  0  0  0  0  0  0
    6.4679    1.7088    0.0000 C   0  0  0  0  0  0  0  0  0  0  0  0
    6.5727    3.2051    0.0000 O   0  0  0  0  0  0  0  0  0  0  0  0
    7.7114    0.8699    0.0000 C   0  0  0  0  0  0  0  0  0  0  0  0
    9.0597    1.5274    0.0000 O   0  0  0  0  0  0  0  0  0  0  0  0
    7.6067   -0.6264    0.0000 C   0  0  0  0  0  0  0  0  0  0  0  0
    8.8502   -1.4653    0.0000 O   0  0  0  0  0  0  0  0  0  0  0  0
    6.2584   -1.2839    0.0000 C   0  0  0  0  0  0  0  0  0  0  0  0
  1  2  1  0
  2  3  1  0
  3  4  1  0
  4  5  1  0
  5  6  1  0
  6  7  1  0
  7  8  1  0
  8  9  1  0
  9 10  1  0
 10 11  1  0
 11 12  1  0
 12 13  1  0
 13 14  1  0
 14 15  2  0
 14 16  1  0
 16 17  2  0
 17 18  1  0
 18 19  1  0
 18 20  2  0
 20 21  1  0
 20 22  1  0
 22 23  1  0
 22 24  2  0
 24 16  1  0
M  END
>  <identifier>  (1789) 
CNP0125250.0

>  <canonical_smiles>  (1789) 
CCCCCCCCCCCCOC(=O)C1=CC(O)=C(O)C(O)=C1

>  <standard_inchi>  (1789) 
InChI=1S/C19H30O5/c1-2-3-4-5-6-7-8-9-10-11-12-24-19(23)15-13-16(20)18(22)17(21)14-15/h13-14,20-22H,2-12H2,1H3

>  <standard_inchi_key>  (1789) 
RPWFJAMTCNSJKK-UHFFFAOYSA-N

>  <name>  (1789) 
Dodecyl gallate

>  <iupac_name>  (1789) 
dodecyl 3,4,5-trihydroxybenzoate

>  <annotation_level>  (1789) 
5

>  <total_atom_count>  (1789) 
54

>  <heavy_atom_count>  (1789) 
24

>  <molecular_weight>  (1789) 
338.44

>  <exact_molecular_weight>  (1789) 
338.20932

>  <molecular_formula>  (1789) 
C19H30O5

>  <alogp>  (1789) 
4.88

>  <topological_polar_surface_area>  (1789) 
86.99

>  <rotatable_bond_count>  (1789) 
12

>  <hydrogen_bond_acceptors>  (1789) 
5

>  <hydrogen_bond_donors>  (1789) 
3

>  <hydrogen_bond_acceptors_lipinski>  (1789) 
5

>  <hydrogen_bond_donors_lipinski>  (1789) 
3

>  <lipinski_rule_of_five_violations>  (1789) 
0

>  <aromatic_rings_count>  (1789) 
1

>  <qed_drug_likeliness>  (1789) 
0.29

>  <formal_charge>  (1789) 
0

>  <fractioncsp3>  (1789) 
0.63

>  <number_of_minimal_rings>  (1789) 
1

>  <van_der_walls_volume>  (1789) 
336.37

>  <contains_sugar>  (1789) 
False

>  <contains_ring_sugars>  (1789) 
False

>  <contains_linear_sugars>  (1789) 
False

>  <murcko_framework>  (1789) 
c1ccccc1

>  <np_likeness>  (1789) 
0.46

>  <chemical_class>  (1789) 
Benzene and substituted derivatives

>  <chemical_sub_class>  (1789) 
Benzoic acids and derivatives

>  <chemical_super_class>  (1789) 
Benzenoids

>  <direct_parent_classification>  (1789) 
p-Hydroxybenzoic acid alkyl esters

>  <np_classifier_pathway>  (1789) 
Shikimates and Phenylpropanoids

>  <np_classifier_superclass>  (1789) 
Phenolic acids (C6-C1)

>  <np_classifier_class>  (1789) 
Shikimic acids and derivatives

>  <np_classifier_is_glycoside>  (1789) 
False

>  <organisms>  (1789) 
Alchornea glandulosa|Crocus sativus

>  <collections>  (1789) 
CMAUP (cCollective molecular activities of useful plants)|ChemSpider NPs|FooDB|Latin America dataset|NPASS|NuBBEDB|Phyto4Health|Super Natural II|UNPD (Universal Natural Products Database)|WikiData Natural Products

>  <dois>  (1789) 
10.1021/JF100233Y|10.1021/jf100233y

>  <synonyms>  (1789) 
1166-52-5|149030-04-6|3,4,5-TRIHYDROXYBENZOIC ACID DODECYL ESTER|3,4,5-Trihydroxybenzoic acid, dodecyl ester|4-10-00-02006 (Beilstein Handbook Reference)|45612DY463|A803659|AKOS001482340|BCP15874|BDBM50093887|BENZOIC ACID, 3,4,5-TRIHYDROXY-, DODECYL ESTER|BIDD:ER0314|BRN 2701981|Benzoic acid,4,5-trihydroxy-, dodecyl ester|CAS-1166-52-5|CCRIS 5568|CHEBI:175304|CHEMBL16121|CS-0084125|D70249|DB-108599|DODECYL ESTER OF GALLIC ACID|DODECYL GALLATE [EP MONOGRAPH]|DODECYL GALLATE [INCI]|DODECYL GALLATE [MART.]|DTXCID5028164|DTXSID0048189|Dodecyl 3,4,5-trihydroxybenzoate|Dodecyl gallate, European Pharmacopoeia (EP) Reference Standard|Dodecyl gallate; Dodecyl 3,4,5-trihydroxybenzoate|Dodecylester kyseliny gallove|Dodecylester kyseliny gallove [Czech]|E 312 antioxidant|E-312|E312|EINECS 214-620-6|G0015|GALLIC ACID LAURYL ESTER|GS-3008|Gallic Acid Dodecyl Ester|Gallic acid, dodecyl ester|Gallic acid, dodecyl ester (8CI)|Gallic acid, lauryl ester|HY-124082|INS NO.312|INS-312|Lauryl 3,4,5-trihydroxybenzoate|Lauryl Gallate(Dodecyl Gallate)|Lauryl gallate|Lauryl gallate, analytical reference material|Lauryl gallate, antioxidant, >=99.0% (HPLC)|MFCD00002195|N-DODECYL (OR LAURYL) ESTER OF 3,4,5-TRIHYDROXYBENZOIC ACID|NCGC00257297-01|NCGC00260272-01|NS00013651|NSC 133463|Nipagallin LA|Progallin LA|Q418209|SCHEMBL36820|SY048252|Tox21_202724|Tox21_303487|UNII-45612DY463|W-108577|WLN: QR BQ CQ EVO12|antioxidant E 312|dodecyl 3,4,5-tris(oxidanyl)benzoate|dodecylgallat|n-Dodecyl gallate|s6229

>  <cas>  (1789) 
1166-52-5|149030-04-6

$$$$

     RDKit          2D

 30 30  0  0  0  0  0  0  0  0999 V2000
  -14.4197    1.9106    0.0000 C   0  0  0  0  0  0  0  0  0  0  0  0
  -13.3012    0.9111    0.0000 C   0  0  0  0  0  0  0  0  0  0  0  0
  -13.6076   -0.5573    0.0000 O   0  0  0  0  0  0  0  0  0  0  0  0
  -11.8764    1.3799    0.0000 C   0  0  0  0  0  0  0  0  0  0  0  0
  -10.7579    0.3804    0.0000 C   0  0  0  0  0  0  0  0  0  0  0  0
   -9.3331    0.8492    0.0000 C   0  0  0  0  0  0  0  0  0  0  0  0
   -8.2146   -0.1503    0.0000 C   0  0  0  0  0  0  0  0  0  0  0  0
   -6.7898    0.3186    0.0000 C   0  0  0  0  0  0  0  0  0  0  0  0
   -5.6713   -0.6810    0.0000 C   0  0  0  0  0  0  0  0  0  0  0  0
   -4.2465   -0.2121    0.0000 C   0  0  0  0  0  0  0  0  0  0  0  0
   -3.1280   -1.2116    0.0000 C   0  0  0  0  0  0  0  0  0  0  0  0
   -1.7032   -0.7428    0.0000 C   0  0  0  0  0  0  0  0  0  0  0  0
   -0.5847   -1.7423    0.0000 C   0  0  0  0  0  0  0  0  0  0  0  0
    0.8401   -1.2734    0.0000 C   0  0  0  0  0  0  0  0  0  0  0  0
    1.9586   -2.2730    0.0000 C   0  0  0  0  0  0  0  0  0  0  0  0
    3.3834   -1.8041    0.0000 C   0  0  0  0  0  0  0  0  0  0  0  0
    3.6898   -0.3357    0.0000 C   0  0  0  0  0  0  0  0  0  0  0  0
    5.1147    0.1331    0.0000 C   0  0  0  0  0  0  0  0  0  0  0  0
    6.2331   -0.8664    0.0000 C   0  0  0  0  0  0  0  0  0  0  0  0
    7.6580   -0.3976    0.0000 O   0  0  0  0  0  0  0  0  0  0  0  0
    7.9643    1.0708    0.0000 Si  0  0  0  0  0  4  0  0  0  0  0  0
    9.4327    0.7644    0.0000 C   0  0  0  0  0  0  0  0  0  0  0  0
    6.4960    1.3772    0.0000 C   0  0  0  0  0  0  0  0  0  0  0  0
    8.2707    2.5392    0.0000 C   0  0  0  0  0  0  0  0  0  0  0  0
    6.8024    2.8456    0.0000 C   0  0  0  0  0  0  0  0  0  0  0  0
    9.7391    2.2328    0.0000 C   0  0  0  0  0  0  0  0  0  0  0  0
    8.5771    4.0076    0.0000 C   0  0  0  0  0  0  0  0  0  0  0  0
    5.9267   -2.3348    0.0000 C   0  0  0  0  0  0  0  0  0  0  0  0
    7.0452   -3.3343    0.0000 C   0  0  0  0  0  0  0  0  0  0  0  0
    4.5019   -2.8036    0.0000 N   0  0  0  0  0  0  0  0  0  0  0  0
  1  2  1  0
  2  3  2  0
  2  4  1  0
  4  5  1  0
  5  6  1  0
  6  7  1  0
  7  8  1  0
  8  9  1  0
  9 10  1  0
 10 11  1  0
 11 12  1  0
 12 13  1  0
 13 14  1  0
 14 15  1  0
 16 15  1  1
 16 17  1  0
 17 18  1  0
 18 19  1  0
 19 20  1  1
 20 21  1  0
 21 22  1  0
 21 23  1  0
 21 24  1  0
 24 25  1  0
 24 26  1  0
 24 27  1  0
 19 28  1  0
 28 29  1  1
 28 30  1  0
 30 16  1  0
M  END
>  <identifier>  (1790) 
CNP0080349.1

>  <canonical_smiles>  (1790) 
CC(=O)CCCCCCCCCCCC[C@H]1CC[C@@H](O[Si](C)(C)C(C)(C)C)[C@@H](C)N1

>  <standard_inchi>  (1790) 
InChI=1S/C26H53NO2Si/c1-22(28)18-16-14-12-10-8-9-11-13-15-17-19-24-20-21-25(23(2)27-24)29-30(6,7)26(3,4)5/h23-25,27H,8-21H2,1-7H3/t23-,24+,25-/m1/s1

>  <standard_inchi_key>  (1790) 
UOWPWXFFEDRGOE-DSNGMDLFSA-N

>  <name>  (1790) 
nan

>  <iupac_name>  (1790) 
14-[(2~{S},5~{R},6~{R})-5-[~{tert}-butyl(dimethyl)silyl]oxy-6-methyl-2-piperidyl]tetradecan-2-one

>  <annotation_level>  (1790) 
5

>  <total_atom_count>  (1790) 
83

>  <heavy_atom_count>  (1790) 
30

>  <molecular_weight>  (1790) 
439.8

>  <exact_molecular_weight>  (1790) 
439.38456

>  <molecular_formula>  (1790) 
C26H53NO2Si

>  <alogp>  (1790) 
7.79

>  <topological_polar_surface_area>  (1790) 
38.33

>  <rotatable_bond_count>  (1790) 
15

>  <hydrogen_bond_acceptors>  (1790) 
3

>  <hydrogen_bond_donors>  (1790) 
1

>  <hydrogen_bond_acceptors_lipinski>  (1790) 
3

>  <hydrogen_bond_donors_lipinski>  (1790) 
1

>  <lipinski_rule_of_five_violations>  (1790) 
1

>  <aromatic_rings_count>  (1790) 
0

>  <qed_drug_likeliness>  (1790) 
0.21

>  <formal_charge>  (1790) 
0

>  <fractioncsp3>  (1790) 
0.96

>  <number_of_minimal_rings>  (1790) 
1

>  <van_der_walls_volume>  (1790) 
483.93

>  <contains_sugar>  (1790) 
False

>  <contains_ring_sugars>  (1790) 
False

>  <contains_linear_sugars>  (1790) 
False

>  <murcko_framework>  (1790) 
N1CCCCC1

>  <np_likeness>  (1790) 
1.11

>  <chemical_class>  (1790) 
nan

>  <chemical_sub_class>  (1790) 
Alkaloids and derivatives

>  <chemical_super_class>  (1790) 
Alkaloids and derivatives

>  <direct_parent_classification>  (1790) 
Alkaloids and derivatives

>  <np_classifier_pathway>  (1790) 
Alkaloids

>  <np_classifier_superclass>  (1790) 
nan

>  <np_classifier_class>  (1790) 
nan

>  <np_classifier_is_glycoside>  (1790) 
False

>  <organisms>  (1790) 
Senna spectabilis

>  <collections>  (1790) 
ChemSpider NPs|Latin America dataset|NuBBEDB|WikiData Natural Products|ZINC NP

>  <dois>  (1790) 
10.1248/CPB.56.407|10.1248/cpb.56.407

>  <synonyms>  (1790) 
2-(R)-Methyl-6-(S)-(tetradecyl-13'-one)-3(R)-O-tert-butyldimethylsilyl-piperidine

>  <cas>  (1790) 
nan

$$$$

     RDKit          2D

 25 27  0  0  0  0  0  0  0  0999 V2000
   -6.9401    2.9349    0.0000 C   0  0  0  0  0  0  0  0  0  0  0  0
   -6.8999    1.4354    0.0000 O   0  0  0  0  0  0  0  0  0  0  0  0
   -5.5812    0.7205    0.0000 C   0  0  0  0  0  0  0  0  0  0  0  0
   -4.3028    1.5051    0.0000 C   0  0  0  0  0  0  0  0  0  0  0  0
   -2.9841    0.7902    0.0000 C   0  0  0  0  0  0  0  0  0  0  0  0
   -2.9438   -0.7092    0.0000 C   0  0  0  0  0  0  0  0  0  0  0  0
   -1.6252   -1.4241    0.0000 C   0  0  0  0  0  0  0  0  0  0  0  0
   -1.5849   -2.9236    0.0000 O   0  0  0  0  0  0  0  0  0  0  0  0
   -0.3467   -0.6395    0.0000 C   0  0  0  0  0  0  0  0  0  0  0  0
    0.9720   -1.3544    0.0000 C   0  0  0  0  0  0  0  0  0  0  0  0
    2.2504   -0.5698    0.0000 C   0  0  0  0  0  0  0  0  0  0  0  0
    3.5691   -1.2847    0.0000 C   0  0  0  0  0  0  0  0  0  0  0  0
    4.8476   -0.5001    0.0000 C   0  0  0  0  0  0  0  0  0  0  0  0
    6.1663   -1.2150    0.0000 O   0  0  0  0  0  0  0  0  0  0  0  0
    6.2065   -2.7145    0.0000 C   0  0  0  0  0  0  0  0  0  0  0  0
    4.8073    0.9993    0.0000 C   0  0  0  0  0  0  0  0  0  0  0  0
    6.0858    1.7839    0.0000 O   0  0  0  0  0  0  0  0  0  0  0  0
    6.0456    3.2834    0.0000 C   0  0  0  0  0  0  0  0  0  0  0  0
    3.4887    1.7142    0.0000 C   0  0  0  0  0  0  0  0  0  0  0  0
    2.2102    0.9296    0.0000 C   0  0  0  0  0  0  0  0  0  0  0  0
    0.8915    1.6445    0.0000 C   0  0  0  0  0  0  0  0  0  0  0  0
   -0.3869    0.8599    0.0000 O   0  0  0  0  0  0  0  0  0  0  0  0
   -4.2223   -1.4938    0.0000 C   0  0  0  0  0  0  0  0  0  0  0  0
   -4.1821   -2.9933    0.0000 O   0  0  0  0  0  0  0  0  0  0  0  0
   -5.5410   -0.7789    0.0000 C   0  0  0  0  0  0  0  0  0  0  0  0
  1  2  1  0
  2  3  1  0
  3  4  2  0
  4  5  1  0
  5  6  2  0
  6  7  1  0
  7  8  2  0
  7  9  1  0
  9 10  2  0
 10 11  1  0
 11 12  2  0
 12 13  1  0
 13 14  1  0
 14 15  1  0
 13 16  2  0
 16 17  1  0
 17 18  1  0
 16 19  1  0
 19 20  2  0
 20 21  1  0
 21 22  1  0
  6 23  1  0
 23 24  1  0
 23 25  2  0
 25  3  1  0
 22  9  1  0
 20 11  1  0
M  END
>  <identifier>  (1791) 
CNP0191783.0

>  <canonical_smiles>  (1791) 
COC1=CC=C(C(=O)C2=CC3=CC(OC)=C(OC)C=C3CO2)C(O)=C1

>  <standard_inchi>  (1791) 
InChI=1S/C19H18O6/c1-22-13-4-5-14(15(20)9-13)19(21)18-7-11-6-16(23-2)17(24-3)8-12(11)10-25-18/h4-9,20H,10H2,1-3H3

>  <standard_inchi_key>  (1791) 
QPHPZUZXUDCPEI-UHFFFAOYSA-N

>  <name>  (1791) 
nan

>  <iupac_name>  (1791) 
(6,7-dimethoxy-1~{H}-isochromen-3-yl)-(2-hydroxy-4-methoxy-phenyl)methanone

>  <annotation_level>  (1791) 
3

>  <total_atom_count>  (1791) 
43

>  <heavy_atom_count>  (1791) 
25

>  <molecular_weight>  (1791) 
342.35

>  <exact_molecular_weight>  (1791) 
342.11034

>  <molecular_formula>  (1791) 
C19H18O6

>  <alogp>  (1791) 
3.17

>  <topological_polar_surface_area>  (1791) 
74.22

>  <rotatable_bond_count>  (1791) 
5

>  <hydrogen_bond_acceptors>  (1791) 
6

>  <hydrogen_bond_donors>  (1791) 
1

>  <hydrogen_bond_acceptors_lipinski>  (1791) 
6

>  <hydrogen_bond_donors_lipinski>  (1791) 
1

>  <lipinski_rule_of_five_violations>  (1791) 
0

>  <aromatic_rings_count>  (1791) 
2

>  <qed_drug_likeliness>  (1791) 
0.84

>  <formal_charge>  (1791) 
0

>  <fractioncsp3>  (1791) 
0.21

>  <number_of_minimal_rings>  (1791) 
3

>  <van_der_walls_volume>  (1791) 
nan

>  <contains_sugar>  (1791) 
False

>  <contains_ring_sugars>  (1791) 
False

>  <contains_linear_sugars>  (1791) 
False

>  <murcko_framework>  (1791) 
O1C(=Cc2ccccc2C1)Cc3ccccc3

>  <np_likeness>  (1791) 
0.53

>  <chemical_class>  (1791) 
Phenols

>  <chemical_sub_class>  (1791) 
Methoxyphenols

>  <chemical_super_class>  (1791) 
Benzenoids

>  <direct_parent_classification>  (1791) 
Methoxyphenols

>  <np_classifier_pathway>  (1791) 
Polyketides

>  <np_classifier_superclass>  (1791) 
nan

>  <np_classifier_class>  (1791) 
nan

>  <np_classifier_is_glycoside>  (1791) 
False

>  <organisms>  (1791) 
Goniorrhachis marginata

>  <collections>  (1791) 
Latin America dataset|NuBBEDB|UNPD (Universal Natural Products Database)|WikiData Natural Products|ZINC NP

>  <dois>  (1791) 
10.1016/0031-9422(74)80106-8

>  <synonyms>  (1791) 
nan

>  <cas>  (1791) 
nan

$$$$

     RDKit          2D

 21 23  0  0  0  0  0  0  0  0999 V2000
   -4.5183   -2.2406    0.0000 C   0  0  0  0  0  0  0  0  0  0  0  0
   -3.0202   -2.1645    0.0000 C   0  0  0  0  0  0  0  0  0  0  0  0
   -2.3371   -0.8291    0.0000 C   0  0  0  0  0  0  0  0  0  0  0  0
   -3.1520    0.4302    0.0000 C   0  0  0  0  0  0  0  0  0  0  0  0
   -4.6501    0.3541    0.0000 C   0  0  0  0  0  0  0  0  0  0  0  0
   -5.4651    1.6134    0.0000 O   0  0  0  0  0  0  0  0  0  0  0  0
   -2.4689    1.7657    0.0000 C   0  0  0  0  0  0  0  0  0  0  0  0
   -0.9709    1.8418    0.0000 C   0  0  0  0  0  0  0  0  0  0  0  0
   -0.1559    0.5825    0.0000 C   0  0  0  0  0  0  0  0  0  0  0  0
   -0.8390   -0.7529    0.0000 C   0  0  0  0  0  0  0  0  0  0  0  0
   -0.0241   -2.0122    0.0000 C   0  0  0  0  0  0  0  0  0  0  0  0
    1.4740   -1.9361    0.0000 C   0  0  0  0  0  0  0  0  0  0  0  0
    2.1571   -0.6007    0.0000 C   0  0  0  0  0  0  0  0  0  0  0  0
    3.6552   -0.5246    0.0000 C   0  0  0  0  0  0  0  0  0  0  0  0
    5.0889   -0.9654    0.0000 C   0  0  0  0  0  0  0  0  0  0  0  0
    3.4700   -2.0131    0.0000 C   0  0  0  0  0  0  0  0  0  0  0  0
    4.3383    0.8109    0.0000 C   0  0  0  0  0  0  0  0  0  0  0  0
    3.5233    2.0702    0.0000 C   0  0  0  0  0  0  0  0  0  0  0  0
    2.0253    1.9940    0.0000 C   0  0  0  0  0  0  0  0  0  0  0  0
    1.3422    0.6586    0.0000 C   0  0  0  0  0  0  0  0  0  0  0  0
    0.5272    1.9179    0.0000 C   0  0  0  0  0  0  0  0  0  0  0  0
  1  2  1  0
  2  3  1  0
  3  4  2  0
  4  5  1  0
  5  6  1  0
  4  7  1  0
  7  8  2  0
  8  9  1  0
  9 10  2  0
 10 11  1  0
 11 12  1  0
 13 12  1  6
 13 14  1  0
 14 15  1  0
 14 16  1  0
 14 17  1  0
 17 18  1  0
 18 19  1  0
 19 20  1  0
 20 21  1  6
 10  3  1  0
 20 13  1  0
 20  9  1  0
M  END
>  <identifier>  (1792) 
CNP0175103.1

>  <canonical_smiles>  (1792) 
CCC1=C(CO)C=CC2=C1CC[C@H]1C(C)(C)CCC[C@]21C

>  <standard_inchi>  (1792) 
InChI=1S/C20H30O/c1-5-15-14(13-21)7-9-17-16(15)8-10-18-19(2,3)11-6-12-20(17,18)4/h7,9,18,21H,5-6,8,10-13H2,1-4H3/t18-,20+/m0/s1

>  <standard_inchi_key>  (1792) 
PUZFEMFUMHPTLQ-AZUAARDMSA-N

>  <name>  (1792) 
nan

>  <iupac_name>  (1792) 
[(4~{b}~{S},8~{a}~{S})-1-ethyl-4~{b},8,8-trimethyl-5,6,7,8~{a},9,10-hexahydrophenanthren-2-yl]methanol

>  <annotation_level>  (1792) 
4

>  <total_atom_count>  (1792) 
51

>  <heavy_atom_count>  (1792) 
21

>  <molecular_weight>  (1792) 
286.46

>  <exact_molecular_weight>  (1792) 
286.22967

>  <molecular_formula>  (1792) 
C20H30O

>  <alogp>  (1792) 
4.77

>  <topological_polar_surface_area>  (1792) 
20.23

>  <rotatable_bond_count>  (1792) 
2

>  <hydrogen_bond_acceptors>  (1792) 
1

>  <hydrogen_bond_donors>  (1792) 
1

>  <hydrogen_bond_acceptors_lipinski>  (1792) 
1

>  <hydrogen_bond_donors_lipinski>  (1792) 
1

>  <lipinski_rule_of_five_violations>  (1792) 
0

>  <aromatic_rings_count>  (1792) 
1

>  <qed_drug_likeliness>  (1792) 
0.83

>  <formal_charge>  (1792) 
0

>  <fractioncsp3>  (1792) 
0.70

>  <number_of_minimal_rings>  (1792) 
3

>  <van_der_walls_volume>  (1792) 
nan

>  <contains_sugar>  (1792) 
False

>  <contains_ring_sugars>  (1792) 
False

>  <contains_linear_sugars>  (1792) 
False

>  <murcko_framework>  (1792) 
c1ccc2c(c1)CCC3CCCCC23

>  <np_likeness>  (1792) 
2.15

>  <chemical_class>  (1792) 
Prenol lipids

>  <chemical_sub_class>  (1792) 
Diterpenoids

>  <chemical_super_class>  (1792) 
Lipids and lipid-like molecules

>  <direct_parent_classification>  (1792) 
Diterpenoids

>  <np_classifier_pathway>  (1792) 
Terpenoids

>  <np_classifier_superclass>  (1792) 
Diterpenoids

>  <np_classifier_class>  (1792) 
Cleistanthane diterpenoids

>  <np_classifier_is_glycoside>  (1792) 
False

>  <organisms>  (1792) 
Vellozia flavicans|Vellozia squamata

>  <collections>  (1792) 
Latin America dataset|NuBBEDB|WikiData Natural Products

>  <dois>  (1792) 
10.1016/S0031-9422(00)84734-2|10.1016/S0031-9422(00)94671-5

>  <synonyms>  (1792) 
Veadeirol

>  <cas>  (1792) 
nan

$$$$

     RDKit          2D

 29 32  0  0  0  0  0  0  0  0999 V2000
    1.3519   -5.0349    0.0000 C   0  0  0  0  0  0  0  0  0  0  0  0
    1.3287   -3.5351    0.0000 C   0  0  0  0  0  0  0  0  0  0  0  0
    2.6160   -2.7652    0.0000 O   0  0  0  0  0  0  0  0  0  0  0  0
    0.0183   -2.8053    0.0000 O   0  0  0  0  0  0  0  0  0  0  0  0
   -0.0049   -1.3054    0.0000 C   0  0  0  0  0  0  0  0  0  0  0  0
    1.2824   -0.5355    0.0000 C   0  0  0  0  0  0  0  0  0  0  0  0
    2.5929   -1.2653    0.0000 O   0  0  0  0  0  0  0  0  0  0  0  0
    3.8802   -0.4954    0.0000 C   0  0  0  0  0  0  0  0  0  0  0  0
    5.1906   -1.2253    0.0000 C   0  0  0  0  0  0  0  0  0  0  0  0
    3.8570    1.0044    0.0000 O   0  0  0  0  0  0  0  0  0  0  0  0
    1.2593    0.9643    0.0000 C   0  0  0  0  0  0  0  0  0  0  0  0
    2.5466    1.7343    0.0000 C   0  0  0  0  0  0  0  0  0  0  0  0
    4.0196    2.0175    0.0000 C   0  0  0  0  0  0  0  0  0  0  0  0
    3.0813    0.3328    0.0000 C   0  0  0  0  0  0  0  0  0  0  0  0
    2.5234    3.2341    0.0000 C   0  0  0  0  0  0  0  0  0  0  0  0
    1.2130    3.9640    0.0000 C   0  0  0  0  0  0  0  0  0  0  0  0
   -0.0743    3.1940    0.0000 C   0  0  0  0  0  0  0  0  0  0  0  0
   -0.0512    1.6942    0.0000 C   0  0  0  0  0  0  0  0  0  0  0  0
   -1.3616    2.4241    0.0000 C   0  0  0  0  0  0  0  0  0  0  0  0
   -1.3385    0.9243    0.0000 C   0  0  0  0  0  0  0  0  0  0  0  0
   -2.6489    1.6541    0.0000 C   0  0  0  0  0  0  0  0  0  0  0  0
   -3.9363    0.8842    0.0000 C   0  0  0  0  0  0  0  0  0  0  0  0
   -3.9131   -0.6157    0.0000 C   0  0  0  0  0  0  0  0  0  0  0  0
   -5.3324   -1.1011    0.0000 C   0  0  0  0  0  0  0  0  0  0  0  0
   -6.2327    0.0986    0.0000 C   0  0  0  0  0  0  0  0  0  0  0  0
   -5.3698    1.3256    0.0000 O   0  0  0  0  0  0  0  0  0  0  0  0
   -2.6027   -1.3455    0.0000 C   0  0  0  0  0  0  0  0  0  0  0  0
   -2.5795   -2.8453    0.0000 C   0  0  0  0  0  0  0  0  0  0  0  0
   -1.3153   -0.5756    0.0000 C   0  0  0  0  0  0  0  0  0  0  0  0
  1  2  1  0
  2  3  2  0
  2  4  1  0
  5  4  1  6
  5  6  1  0
  6  7  1  1
  7  8  1  0
  8  9  1  0
  8 10  2  0
  6 11  1  0
 11 12  1  6
 12 13  1  0
 12 14  1  0
 12 15  1  0
 15 16  1  0
 16 17  1  0
 17 18  1  0
 18 19  1  6
 18 20  1  0
 20 21  1  6
 21 22  1  0
 22 23  2  0
 23 24  1  0
 24 25  2  0
 25 26  1  0
 23 27  1  0
 27 28  1  1
 29 27  1  1
 29  5  1  0
 18 11  1  0
 29 20  1  0
 26 22  1  0
M  END
>  <identifier>  (1793) 
CNP0167572.1

>  <canonical_smiles>  (1793) 
CC(=O)O[C@H]1[C@H](OC(C)=O)[C@H]2C(C)(C)CCC[C@]2(C)[C@H]2CC3=C(C=CO3)[C@H](C)[C@H]12

>  <standard_inchi>  (1793) 
InChI=1S/C24H34O5/c1-13-16-8-11-27-18(16)12-17-19(13)20(28-14(2)25)21(29-15(3)26)22-23(4,5)9-7-10-24(17,22)6/h8,11,13,17,19-22H,7,9-10,12H2,1-6H3/t13-,17-,19-,20+,21-,22-,24+/m0/s1

>  <standard_inchi_key>  (1793) 
ZRIFHZYKUAYXCS-PPKADXTISA-N

>  <name>  (1793) 
6alpha,7beta-diacetoxyvouacapane

>  <iupac_name>  (1793) 
[(4~{a}~{S},5~{R},6~{R},6~{a}~{S},7~{R},11~{a}~{S},11~{b}~{R})-5-acetoxy-4,4,7,11~{b}-tetramethyl-1,2,3,4~{a},5,6,6~{a},7,11,11~{a}-decahydronaphtho[2,1-f]benzofuran-6-yl] acetate

>  <annotation_level>  (1793) 
5

>  <total_atom_count>  (1793) 
63

>  <heavy_atom_count>  (1793) 
29

>  <molecular_weight>  (1793) 
402.53

>  <exact_molecular_weight>  (1793) 
402.24062

>  <molecular_formula>  (1793) 
C24H34O5

>  <alogp>  (1793) 
4.88

>  <topological_polar_surface_area>  (1793) 
65.74

>  <rotatable_bond_count>  (1793) 
2

>  <hydrogen_bond_acceptors>  (1793) 
5

>  <hydrogen_bond_donors>  (1793) 
0

>  <hydrogen_bond_acceptors_lipinski>  (1793) 
5

>  <hydrogen_bond_donors_lipinski>  (1793) 
0

>  <lipinski_rule_of_five_violations>  (1793) 
0

>  <aromatic_rings_count>  (1793) 
1

>  <qed_drug_likeliness>  (1793) 
0.66

>  <formal_charge>  (1793) 
0

>  <fractioncsp3>  (1793) 
0.75

>  <number_of_minimal_rings>  (1793) 
4

>  <van_der_walls_volume>  (1793) 
382.42

>  <contains_sugar>  (1793) 
False

>  <contains_ring_sugars>  (1793) 
False

>  <contains_linear_sugars>  (1793) 
False

>  <murcko_framework>  (1793) 
o1ccc2c1CC3C(C2)CCC4CCCCC43

>  <np_likeness>  (1793) 
2.50

>  <chemical_class>  (1793) 
Prenol lipids

>  <chemical_sub_class>  (1793) 
Diterpenoids

>  <chemical_super_class>  (1793) 
Lipids and lipid-like molecules

>  <direct_parent_classification>  (1793) 
Diterpenoids

>  <np_classifier_pathway>  (1793) 
Terpenoids

>  <np_classifier_superclass>  (1793) 
Diterpenoids

>  <np_classifier_class>  (1793) 
Cassane diterpenoids

>  <np_classifier_is_glycoside>  (1793) 
False

>  <organisms>  (1793) 
Bowdichia nitida|Pterodon apparicioi

>  <collections>  (1793) 
CMAUP (cCollective molecular activities of useful plants)|Latin America dataset|NPASS|NuBBEDB|Super Natural II|WikiData Natural Products

>  <dois>  (1793) 
10.1016/J.BMCL.2008.05.035|10.1016/S0031-9422(00)89084-6|10.1016/j.bmcl.2008.05.035|10.1021/NP900023D

>  <synonyms>  (1793) 
6\u221a\u00e9\u00ac\u00b17\u221a\u00e9\u00ac\u2264-Diacetoxyvouacapane|CHEMBL514599

>  <cas>  (1793) 
nan

$$$$

     RDKit          2D

 28 30  0  0  0  0  0  0  0  0999 V2000
    4.9375   -4.6406    0.0000 C   0  0  0  0  0  0  0  0  0  0  0  0
    4.8320   -3.1443    0.0000 C   0  0  0  0  0  0  0  0  0  0  0  0
    3.4834   -2.4876    0.0000 C   0  0  0  0  0  0  0  0  0  0  0  0
    3.3779   -0.9913    0.0000 C   0  0  0  0  0  0  0  0  0  0  0  0
    4.6209   -0.1518    0.0000 C   0  0  0  0  0  0  0  0  0  0  0  0
    5.9695   -0.8085    0.0000 O   0  0  0  0  0  0  0  0  0  0  0  0
    4.5154    1.3445    0.0000 C   0  0  0  0  0  0  0  0  0  0  0  0
    5.7584    2.1841    0.0000 O   0  0  0  0  0  0  0  0  0  0  0  0
    5.6529    3.6803    0.0000 C   0  0  0  0  0  0  0  0  0  0  0  0
    3.1668    2.0013    0.0000 C   0  0  0  0  0  0  0  0  0  0  0  0
    1.9237    1.1617    0.0000 C   0  0  0  0  0  0  0  0  0  0  0  0
    2.0293   -0.3345    0.0000 C   0  0  0  0  0  0  0  0  0  0  0  0
    0.6388   -0.8973    0.0000 O   0  0  0  0  0  0  0  0  0  0  0  0
   -0.3260    0.2512    0.0000 C   0  0  0  0  0  0  0  0  0  0  0  0
   -1.8223    0.1457    0.0000 C   0  0  0  0  0  0  0  0  0  0  0  0
   -2.6618    1.3887    0.0000 C   0  0  0  0  0  0  0  0  0  0  0  0
   -4.1581    1.2832    0.0000 C   0  0  0  0  0  0  0  0  0  0  0  0
   -4.9977    2.5263    0.0000 O   0  0  0  0  0  0  0  0  0  0  0  0
   -4.3409    3.8749    0.0000 C   0  0  0  0  0  0  0  0  0  0  0  0
   -4.8149   -0.0654    0.0000 C   0  0  0  0  0  0  0  0  0  0  0  0
   -6.3112   -0.1709    0.0000 O   0  0  0  0  0  0  0  0  0  0  0  0
   -6.9679   -1.5195    0.0000 C   0  0  0  0  0  0  0  0  0  0  0  0
   -3.9754   -1.3084    0.0000 C   0  0  0  0  0  0  0  0  0  0  0  0
   -4.6321   -2.6570    0.0000 O   0  0  0  0  0  0  0  0  0  0  0  0
   -3.7926   -3.9001    0.0000 C   0  0  0  0  0  0  0  0  0  0  0  0
   -2.4791   -1.2029    0.0000 C   0  0  0  0  0  0  0  0  0  0  0  0
    0.4681    1.5238    0.0000 C   0  0  0  0  0  0  0  0  0  0  0  0
   -0.0946    2.9142    0.0000 C   0  0  0  0  0  0  0  0  0  0  0  0
  1  2  2  0
  2  3  1  0
  3  4  1  0
  4  5  2  0
  5  6  1  0
  5  7  1  0
  7  8  1  0
  8  9  1  0
  7 10  2  0
 10 11  1  0
 11 12  2  0
 12 13  1  0
 13 14  1  0
 14 15  1  1
 15 16  2  0
 16 17  1  0
 17 18  1  0
 18 19  1  0
 17 20  2  0
 20 21  1  0
 21 22  1  0
 20 23  1  0
 23 24  1  0
 24 25  1  0
 23 26  2  0
 14 27  1  0
 27 28  1  1
 12  4  1  0
 26 15  1  0
 27 11  1  0
M  END
>  <identifier>  (1794) 
CNP0080481.1

>  <canonical_smiles>  (1794) 
C=CCC1=C(O)C(OC)=CC2=C1O[C@@H](C1=CC(OC)=C(OC)C(OC)=C1)[C@H]2C

>  <standard_inchi>  (1794) 
InChI=1S/C22H26O6/c1-7-8-14-19(23)16(24-3)11-15-12(2)20(28-21(14)15)13-9-17(25-4)22(27-6)18(10-13)26-5/h7,9-12,20,23H,1,8H2,2-6H3/t12-,20+/m0/s1

>  <standard_inchi_key>  (1794) 
AJYMYDPCSNAOAB-FKIZINRSSA-N

>  <name>  (1794) 
nan

>  <iupac_name>  (1794) 
(2~{R},3~{S})-7-allyl-5-methoxy-3-methyl-2-(3,4,5-trimethoxyphenyl)-2,3-dihydrobenzofuran-6-ol

>  <annotation_level>  (1794) 
4

>  <total_atom_count>  (1794) 
54

>  <heavy_atom_count>  (1794) 
28

>  <molecular_weight>  (1794) 
386.44

>  <exact_molecular_weight>  (1794) 
386.17294

>  <molecular_formula>  (1794) 
C22H26O6

>  <alogp>  (1794) 
4.39

>  <topological_polar_surface_area>  (1794) 
66.38

>  <rotatable_bond_count>  (1794) 
7

>  <hydrogen_bond_acceptors>  (1794) 
6

>  <hydrogen_bond_donors>  (1794) 
1

>  <hydrogen_bond_acceptors_lipinski>  (1794) 
6

>  <hydrogen_bond_donors_lipinski>  (1794) 
1

>  <lipinski_rule_of_five_violations>  (1794) 
0

>  <aromatic_rings_count>  (1794) 
2

>  <qed_drug_likeliness>  (1794) 
0.71

>  <formal_charge>  (1794) 
0

>  <fractioncsp3>  (1794) 
0.36

>  <number_of_minimal_rings>  (1794) 
3

>  <van_der_walls_volume>  (1794) 
nan

>  <contains_sugar>  (1794) 
False

>  <contains_ring_sugars>  (1794) 
False

>  <contains_linear_sugars>  (1794) 
False

>  <murcko_framework>  (1794) 
O1c2ccccc2CC1c3ccccc3

>  <np_likeness>  (1794) 
1.68

>  <chemical_class>  (1794) 
2-arylbenzofuran flavonoids

>  <chemical_sub_class>  (1794) 
2-arylbenzofuran flavonoids

>  <chemical_super_class>  (1794) 
Phenylpropanoids and polyketides

>  <direct_parent_classification>  (1794) 
2-arylbenzofuran flavonoids

>  <np_classifier_pathway>  (1794) 
Shikimates and Phenylpropanoids

>  <np_classifier_superclass>  (1794) 
Lignans

>  <np_classifier_class>  (1794) 
Neolignans

>  <np_classifier_is_glycoside>  (1794) 
False

>  <organisms>  (1794) 
Aniba|Aniba sp.

>  <collections>  (1794) 
Latin America dataset|NuBBEDB|WikiData Natural Products|ZINC NP

>  <dois>  (1794) 
10.1016/0031-9422(75)85358-1

>  <synonyms>  (1794) 
(2R3S)-6-hydroxy-5-methoxy-2-(345-trimethoxyphenyl)-3-methyl-23-dihydrobenzofuran

>  <cas>  (1794) 
nan

$$$$

     RDKit          2D

 31 34  0  0  0  0  0  0  0  0999 V2000
   -6.0860    3.2887    0.0000 C   0  0  0  0  0  0  0  0  0  0  0  0
   -6.4358    1.8301    0.0000 O   0  0  0  0  0  0  0  0  0  0  0  0
   -5.3474    0.7978    0.0000 C   0  0  0  0  0  0  0  0  0  0  0  0
   -3.9093    1.2243    0.0000 C   0  0  0  0  0  0  0  0  0  0  0  0
   -2.8210    0.1921    0.0000 C   0  0  0  0  0  0  0  0  0  0  0  0
   -1.3829    0.6185    0.0000 C   0  0  0  0  0  0  0  0  0  0  0  0
   -1.0331    2.0771    0.0000 C   0  0  0  0  0  0  0  0  0  0  0  0
    0.4050    2.5036    0.0000 C   0  0  0  0  0  0  0  0  0  0  0  0
    0.7547    3.9622    0.0000 O   0  0  0  0  0  0  0  0  0  0  0  0
    1.4934    1.4714    0.0000 C   0  0  0  0  0  0  0  0  0  0  0  0
    2.9315    1.8978    0.0000 C   0  0  0  0  0  0  0  0  0  0  0  0
    3.2812    3.3564    0.0000 O   0  0  0  0  0  0  0  0  0  0  0  0
    4.0198    0.8656    0.0000 C   0  0  0  0  0  0  0  0  0  0  0  0
    3.6701   -0.5931    0.0000 C   0  0  0  0  0  0  0  0  0  0  0  0
    4.7584   -1.6253    0.0000 O   0  0  0  0  0  0  0  0  0  0  0  0
    6.1965   -1.1989    0.0000 C   0  0  0  0  0  0  0  0  0  0  0  0
    7.6938   -1.2900    0.0000 C   0  0  0  0  0  0  0  0  0  0  0  0
    6.3668   -2.6892    0.0000 C   0  0  0  0  0  0  0  0  0  0  0  0
    6.5463    0.2598    0.0000 C   0  0  0  0  0  0  0  0  0  0  0  0
    5.4579    1.2920    0.0000 C   0  0  0  0  0  0  0  0  0  0  0  0
    2.2320   -1.0195    0.0000 C   0  0  0  0  0  0  0  0  0  0  0  0
    1.8822   -2.4782    0.0000 O   0  0  0  0  0  0  0  0  0  0  0  0
    0.4441   -2.9046    0.0000 C   0  0  0  0  0  0  0  0  0  0  0  0
    1.1436    0.0127    0.0000 C   0  0  0  0  0  0  0  0  0  0  0  0
   -0.2945   -0.4137    0.0000 O   0  0  0  0  0  0  0  0  0  0  0  0
   -3.1707   -1.2666    0.0000 C   0  0  0  0  0  0  0  0  0  0  0  0
   -4.6088   -1.6930    0.0000 C   0  0  0  0  0  0  0  0  0  0  0  0
   -4.9586   -3.1517    0.0000 O   0  0  0  0  0  0  0  0  0  0  0  0
   -6.3967   -3.5781    0.0000 C   0  0  0  0  0  0  0  0  0  0  0  0
   -5.6972   -0.6608    0.0000 C   0  0  0  0  0  0  0  0  0  0  0  0
   -7.1353   -1.0873    0.0000 O   0  0  0  0  0  0  0  0  0  0  0  0
  1  2  1  0
  2  3  1  0
  3  4  2  0
  4  5  1  0
  5  6  1  0
  6  7  2  0
  7  8  1  0
  8  9  2  0
  8 10  1  0
 10 11  2  0
 11 12  1  0
 11 13  1  0
 13 14  2  0
 14 15  1  0
 15 16  1  0
 16 17  1  0
 16 18  1  0
 16 19  1  0
 19 20  2  0
 14 21  1  0
 21 22  1  0
 22 23  1  0
 21 24  2  0
 24 25  1  0
  5 26  2  0
 26 27  1  0
 27 28  1  0
 28 29  1  0
 27 30  2  0
 30 31  1  0
 30  3  1  0
 25  6  1  0
 24 10  1  0
 20 13  1  0
M  END
>  <identifier>  (1795) 
CNP0173273.0

>  <canonical_smiles>  (1795) 
COC1=CC(C2=CC(=O)C3=C(O)C4=C(OC(C)(C)C=C4)C(OC)=C3O2)=CC(OC)=C1O

>  <standard_inchi>  (1795) 
InChI=1S/C23H22O8/c1-23(2)7-6-12-18(25)17-13(24)10-14(30-21(17)22(29-5)20(12)31-23)11-8-15(27-3)19(26)16(9-11)28-4/h6-10,25-26H,1-5H3

>  <standard_inchi_key>  (1795) 
QOXJILVSGINTCU-UHFFFAOYSA-N

>  <name>  (1795) 
5-Hydroxy-8-(4-hydroxy-3,5-dimethoxyphenyl)-10-methoxy-2,2-dimethyl-2H,6H-benzo[1,2-b:5,4-b']dipyran-6-one

>  <iupac_name>  (1795) 
5-hydroxy-8-(4-hydroxy-3,5-dimethoxy-phenyl)-10-methoxy-2,2-dimethyl-pyrano[3,2-g]chromen-6-one

>  <annotation_level>  (1795) 
5

>  <total_atom_count>  (1795) 
53

>  <heavy_atom_count>  (1795) 
31

>  <molecular_weight>  (1795) 
426.42

>  <exact_molecular_weight>  (1795) 
426.13147

>  <molecular_formula>  (1795) 
C23H22O8

>  <alogp>  (1795) 
4.08

>  <topological_polar_surface_area>  (1795) 
107.59

>  <rotatable_bond_count>  (1795) 
4

>  <hydrogen_bond_acceptors>  (1795) 
8

>  <hydrogen_bond_donors>  (1795) 
2

>  <hydrogen_bond_acceptors_lipinski>  (1795) 
8

>  <hydrogen_bond_donors_lipinski>  (1795) 
2

>  <lipinski_rule_of_five_violations>  (1795) 
0

>  <aromatic_rings_count>  (1795) 
3

>  <qed_drug_likeliness>  (1795) 
0.64

>  <formal_charge>  (1795) 
0

>  <fractioncsp3>  (1795) 
0.26

>  <number_of_minimal_rings>  (1795) 
4

>  <van_der_walls_volume>  (1795) 
365.66

>  <contains_sugar>  (1795) 
False

>  <contains_ring_sugars>  (1795) 
False

>  <contains_linear_sugars>  (1795) 
False

>  <murcko_framework>  (1795) 
O1c2cc3OCC=Cc3cc2CC=C1c4ccccc4

>  <np_likeness>  (1795) 
2.07

>  <chemical_class>  (1795) 
Flavonoids

>  <chemical_sub_class>  (1795) 
Pyranoflavonoids

>  <chemical_super_class>  (1795) 
Phenylpropanoids and polyketides

>  <direct_parent_classification>  (1795) 
Pyranoflavonoids

>  <np_classifier_pathway>  (1795) 
Shikimates and Phenylpropanoids

>  <np_classifier_superclass>  (1795) 
Flavonoids

>  <np_classifier_class>  (1795) 
Flavones

>  <np_classifier_is_glycoside>  (1795) 
False

>  <organisms>  (1795) 
Neoraputia paraensis

>  <collections>  (1795) 
KNApSaCK|Latin America dataset|NPEdia|NuBBEDB|Super Natural II|UNPD (Universal Natural Products Database)|WikiData Natural Products|ZINC NP

>  <dois>  (1795) 
10.1016/S0031-9422(99)00197-1

>  <synonyms>  (1795) 
5-Hydroxy-8-(4-hydroxy-3,5-dimethoxyphenyl)-10-methoxy-2,2-dimethyl-2H,6H-benzo[1,2-b:5,4-b']dipyran-6-one|54'-dihydroxy-83'5'-trimethoxy-67-(2''2''-dimethylpyran)-flavone|LMPK12111410

>  <cas>  (1795) 
nan

$$$$

     RDKit          2D

 52 60  0  0  0  0  0  0  0  0999 V2000
   -0.6304    5.3022    0.0000 C   0  0  0  0  0  0  0  0  0  0  0  0
   -0.3699    3.8250    0.0000 C   0  0  0  0  0  0  0  0  0  0  0  0
    1.0396    3.3120    0.0000 C   0  0  0  0  0  0  0  0  0  0  0  0
    2.1887    4.2762    0.0000 C   0  0  0  0  0  0  0  0  0  0  0  0
    3.5982    3.7631    0.0000 N   0  0  0  0  0  0  0  0  0  0  0  0
    4.7473    4.7273    0.0000 C   0  0  0  0  0  0  0  0  0  0  0  0
    4.0296    2.3161    0.0000 C   0  0  0  0  0  0  0  0  0  0  0  0
    4.8356    1.0510    0.0000 C   0  0  0  0  0  0  0  0  0  0  0  0
    4.5109   -0.4135    0.0000 C   0  0  0  0  0  0  0  0  0  0  0  0
    3.2458   -1.2194    0.0000 C   0  0  0  0  0  0  0  0  0  0  0  0
    3.6214   -2.6716    0.0000 N   0  0  0  0  0  0  0  0  0  0  0  0
    5.1186   -2.7632    0.0000 C   0  0  0  0  0  0  0  0  0  0  0  0
    6.0524   -3.9371    0.0000 C   0  0  0  0  0  0  0  0  0  0  0  0
    7.5359   -3.7154    0.0000 C   0  0  0  0  0  0  0  0  0  0  0  0
    8.0856   -2.3198    0.0000 C   0  0  0  0  0  0  0  0  0  0  0  0
    7.1519   -1.1458    0.0000 C   0  0  0  0  0  0  0  0  0  0  0  0
    5.6683   -1.3676    0.0000 C   0  0  0  0  0  0  0  0  0  0  0  0
    1.7814   -0.8948    0.0000 C   0  0  0  0  0  0  0  0  0  0  0  0
    0.9210   -2.1235    0.0000 C   0  0  0  0  0  0  0  0  0  0  0  0
   -0.5733   -1.9928    0.0000 C   0  0  0  0  0  0  0  0  0  0  0  0
   -1.4760   -0.7948    0.0000 N   0  0  0  0  0  0  0  0  0  0  0  0
   -2.8943   -1.2832    0.0000 C   0  0  0  0  0  0  0  0  0  0  0  0
   -2.8681   -2.7829    0.0000 C   0  0  0  0  0  0  0  0  0  0  0  0
   -4.0243   -3.7385    0.0000 C   0  0  0  0  0  0  0  0  0  0  0  0
   -5.4923   -3.4303    0.0000 C   0  0  0  0  0  0  0  0  0  0  0  0
   -6.1666   -2.0904    0.0000 N   0  0  0  0  0  0  0  0  0  0  0  0
   -7.6603   -2.2286    0.0000 C   0  0  0  0  0  0  0  0  0  0  0  0
   -8.5268   -1.0042    0.0000 C   0  0  0  0  0  0  0  0  0  0  0  0
   -7.8996    0.3584    0.0000 C   0  0  0  0  0  0  0  0  0  0  0  0
   -6.4060    0.4966    0.0000 C   0  0  0  0  0  0  0  0  0  0  0  0
   -5.7789    1.8592    0.0000 C   0  0  0  0  0  0  0  0  0  0  0  0
   -6.6454    3.0836    0.0000 C   0  0  0  0  0  0  0  0  0  0  0  0
   -5.5395   -0.7278    0.0000 C   0  0  0  0  0  0  0  0  0  0  0  0
   -4.0832   -0.3686    0.0000 C   0  0  0  0  0  0  0  0  0  0  0  0
   -3.7750    1.0994    0.0000 C   0  0  0  0  0  0  0  0  0  0  0  0
   -4.8922    2.1003    0.0000 O   0  0  0  0  0  0  0  0  0  0  0  0
   -2.3495    1.5665    0.0000 O   0  0  0  0  0  0  0  0  0  0  0  0
   -2.0413    3.0345    0.0000 C   0  0  0  0  0  0  0  0  0  0  0  0
   -5.4753    0.1899    0.0000 C   0  0  0  0  0  0  0  0  0  0  0  0
   -1.4336   -3.2215    0.0000 C   0  0  0  0  0  0  0  0  0  0  0  0
   -0.7997   -4.5810    0.0000 C   0  0  0  0  0  0  0  0  0  0  0  0
    0.6946   -4.7117    0.0000 C   0  0  0  0  0  0  0  0  0  0  0  0
    1.5550   -3.4830    0.0000 C   0  0  0  0  0  0  0  0  0  0  0  0
    3.0492   -3.6137    0.0000 O   0  0  0  0  0  0  0  0  0  0  0  0
    3.6832   -4.9731    0.0000 C   0  0  0  0  0  0  0  0  0  0  0  0
    0.9754    0.3703    0.0000 C   0  0  0  0  0  0  0  0  0  0  0  0
    1.3001    1.8348    0.0000 C   0  0  0  0  0  0  0  0  0  0  0  0
    2.5652    2.6407    0.0000 C   0  0  0  0  0  0  0  0  0  0  0  0
    2.3047    4.1179    0.0000 C   0  0  0  0  0  0  0  0  0  0  0  0
    0.8951    4.6310    0.0000 O   0  0  0  0  0  0  0  0  0  0  0  0
    3.4537    5.0821    0.0000 O   0  0  0  0  0  0  0  0  0  0  0  0
    3.1933    6.5593    0.0000 C   0  0  0  0  0  0  0  0  0  0  0  0
  1  2  1  0
  2  3  2  3
  3  4  1  0
  4  5  1  0
  5  6  1  0
  5  7  1  0
  7  8  1  0
  8  9  1  0
  9 10  2  0
 10 11  1  0
 11 12  1  0
 12 13  2  0
 13 14  1  0
 14 15  2  0
 15 16  1  0
 16 17  2  0
 10 18  1  0
 18 19  1  6
 19 20  2  0
 20 21  1  0
 21 22  1  0
 22 23  2  0
 23 24  1  0
 24 25  1  0
 25 26  1  0
 26 27  1  0
 27 28  1  0
 28 29  1  0
 29 30  1  0
 30 31  1  0
 31 32  1  0
 30 33  1  0
 33 34  1  0
 34 35  1  0
 35 36  2  0
 35 37  1  0
 37 38  1  0
 34 39  1  0
 23 40  1  0
 40 41  2  0
 41 42  1  0
 42 43  2  0
 43 44  1  0
 44 45  1  0
 18 46  1  0
 46 47  1  0
 47 48  1  0
 48 49  1  0
 49 50  2  0
 49 51  1  0
 51 52  1  0
 47  3  1  0
 48  7  1  0
 17  9  1  0
 43 19  1  0
 17 12  1  0
 40 20  1  0
 34 22  1  0
 33 26  1  0
 39 28  1  0
M  END
>  <identifier>  (1796) 
CNP0199430.2

>  <canonical_smiles>  (1796) 
CC=C1CN(C)C2CC3=C(NC4=CC=CC=C34)[C@H](C3=C4NC5=C(CCN6CC7CC(CC)C6C5(C(=O)OC)C7)C4=CC=C3OC)CC1C2C(=O)OC

>  <standard_inchi>  (1796) 
InChI=1S/C43H52N4O5/c1-7-24-17-23-20-43(42(49)52-6)39-28(15-16-47(21-23)40(24)43)27-13-14-34(50-4)36(38(27)45-39)31-18-29-25(8-2)22-46(3)33(35(29)41(48)51-5)19-30-26-11-9-10-12-32(26)44-37(30)31/h8-14,23-24,29,31,33,35,40,44-45H,7,15-22H2,1-6H3/t23?,24?,29?,31-,33?,35?,40?,43?/m0/s1

>  <standard_inchi_key>  (1796) 
QJHYXWBJZHUJGS-QGLZUYQQSA-N

>  <name>  (1796) 
nan

>  <iupac_name>  (1796) 
methyl 17-ethyl-5-[(12~{S})-15-ethylidene-18-methoxycarbonyl-17-methyl-10,17-diazatetracyclo[12.3.1.0^{3,11}.0^{4,9}]octadeca-3(11),4,6,8-tetraen-12-yl]-6-methoxy-3,13-diazapentacyclo[13.3.1.0^{2,10}.0^{4,9}.0^{13,18}]nonadeca-2(10),4,6,8-tetraene-1-carboxylate

>  <annotation_level>  (1796) 
4

>  <total_atom_count>  (1796) 
104

>  <heavy_atom_count>  (1796) 
52

>  <molecular_weight>  (1796) 
704.91

>  <exact_molecular_weight>  (1796) 
704.39377

>  <molecular_formula>  (1796) 
C43H52N4O5

>  <alogp>  (1796) 
6.49

>  <topological_polar_surface_area>  (1796) 
99.89

>  <rotatable_bond_count>  (1796) 
5

>  <hydrogen_bond_acceptors>  (1796) 
7

>  <hydrogen_bond_donors>  (1796) 
2

>  <hydrogen_bond_acceptors_lipinski>  (1796) 
7

>  <hydrogen_bond_donors_lipinski>  (1796) 
2

>  <lipinski_rule_of_five_violations>  (1796) 
2

>  <aromatic_rings_count>  (1796) 
4

>  <qed_drug_likeliness>  (1796) 
0.18

>  <formal_charge>  (1796) 
0

>  <fractioncsp3>  (1796) 
0.54

>  <number_of_minimal_rings>  (1796) 
10

>  <van_der_walls_volume>  (1796) 
nan

>  <contains_sugar>  (1796) 
False

>  <contains_ring_sugars>  (1796) 
False

>  <contains_linear_sugars>  (1796) 
False

>  <murcko_framework>  (1796) 
c1ccc2c(c1)[nH]c3c2CC4NCCC(CC3c5cccc6c5[nH]c7c6CCN8CC9CCC8C7C9)C4

>  <np_likeness>  (1796) 
1.62

>  <chemical_class>  (1796) 
Ibogan-type alkaloids

>  <chemical_sub_class>  (1796) 
Ibogan-type alkaloids

>  <chemical_super_class>  (1796) 
Alkaloids and derivatives

>  <direct_parent_classification>  (1796) 
Ibogan-type alkaloids

>  <np_classifier_pathway>  (1796) 
Alkaloids

>  <np_classifier_superclass>  (1796) 
Tryptophan alkaloids

>  <np_classifier_class>  (1796) 
Iboga type

>  <np_classifier_is_glycoside>  (1796) 
False

>  <organisms>  (1796) 
Peschiera catharinensis

>  <collections>  (1796) 
Latin America dataset|NuBBEDB

>  <dois>  (1796) 
10.1016/S0031-9422(00)80552-X

>  <synonyms>  (1796) 
decarbomethoxyvoacamine

>  <cas>  (1796) 
nan

$$$$

     RDKit          2D

 34 37  0  0  0  0  0  0  0  0999 V2000
    4.3042    2.8130    0.0000 C   0  0  0  0  0  0  0  0  0  0  0  0
    3.2363    1.7596    0.0000 C   0  0  0  0  0  0  0  0  0  0  0  0
    3.6146    0.3081    0.0000 C   0  0  0  0  0  0  0  0  0  0  0  0
    5.0608   -0.0900    0.0000 C   0  0  0  0  0  0  0  0  0  0  0  0
    6.1287    0.9633    0.0000 O   0  0  0  0  0  0  0  0  0  0  0  0
    5.4391   -1.5416    0.0000 C   0  0  0  0  0  0  0  0  0  0  0  0
    4.3712   -2.5949    0.0000 O   0  0  0  0  0  0  0  0  0  0  0  0
    6.8853   -1.9397    0.0000 C   0  0  0  0  0  0  0  0  0  0  0  0
    7.2834   -0.4935    0.0000 C   0  0  0  0  0  0  0  0  0  0  0  0
    6.4871   -3.3859    0.0000 C   0  0  0  0  0  0  0  0  0  0  0  0
    8.3315   -2.3379    0.0000 O   0  0  0  0  0  0  0  0  0  0  0  0
    1.7901    2.1578    0.0000 C   0  0  0  0  0  0  0  0  0  0  0  0
    1.2622    3.5618    0.0000 C   0  0  0  0  0  0  0  0  0  0  0  0
   -0.2362    3.4936    0.0000 C   0  0  0  0  0  0  0  0  0  0  0  0
   -0.6344    2.0474    0.0000 C   0  0  0  0  0  0  0  0  0  0  0  0
   -1.7936    2.9993    0.0000 C   0  0  0  0  0  0  0  0  0  0  0  0
   -1.9755    1.3756    0.0000 C   0  0  0  0  0  0  0  0  0  0  0  0
   -3.2279    2.2012    0.0000 C   0  0  0  0  0  0  0  0  0  0  0  0
   -4.5691    1.5294    0.0000 C   0  0  0  0  0  0  0  0  0  0  0  0
   -4.6578    0.0320    0.0000 C   0  0  0  0  0  0  0  0  0  0  0  0
   -5.9990   -0.6398    0.0000 C   0  0  0  0  0  0  0  0  0  0  0  0
   -7.4890   -0.8124    0.0000 C   0  0  0  0  0  0  0  0  0  0  0  0
   -6.4277    0.7976    0.0000 C   0  0  0  0  0  0  0  0  0  0  0  0
   -6.0878   -2.1372    0.0000 C   0  0  0  0  0  0  0  0  0  0  0  0
   -7.4289   -2.8090    0.0000 O   0  0  0  0  0  0  0  0  0  0  0  0
   -4.8354   -2.9628    0.0000 C   0  0  0  0  0  0  0  0  0  0  0  0
   -3.4942   -2.2910    0.0000 C   0  0  0  0  0  0  0  0  0  0  0  0
   -3.4055   -0.7936    0.0000 C   0  0  0  0  0  0  0  0  0  0  0  0
   -2.1531   -1.6192    0.0000 C   0  0  0  0  0  0  0  0  0  0  0  0
   -2.0643   -0.1218    0.0000 C   0  0  0  0  0  0  0  0  0  0  0  0
   -0.8120   -0.9474    0.0000 C   0  0  0  0  0  0  0  0  0  0  0  0
    0.5292   -0.2755    0.0000 C   0  0  0  0  0  0  0  0  0  0  0  0
    0.6180    1.2218    0.0000 C   0  0  0  0  0  0  0  0  0  0  0  0
    1.9498    0.5317    0.0000 C   0  0  0  0  0  0  0  0  0  0  0  0
  2  1  1  1
  2  3  1  0
  3  4  1  0
  4  5  1  1
  4  6  1  0
  6  7  1  1
  6  8  1  0
  8  9  1  0
  8 10  1  0
  8 11  1  0
  2 12  1  0
 12 13  1  1
 13 14  1  0
 14 15  1  0
 15 16  1  6
 15 17  1  0
 17 18  2  0
 18 19  1  0
 20 19  1  6
 20 21  1  0
 21 22  1  0
 21 23  1  0
 21 24  1  0
 24 25  2  0
 24 26  1  0
 26 27  1  0
 27 28  1  0
 28 29  1  6
 28 30  1  0
 30 31  1  6
 31 32  1  0
 32 33  1  0
 33 34  1  1
 33 12  1  0
 33 15  1  0
 30 17  1  0
 28 20  1  0
M  END
>  <identifier>  (1797) 
CNP0195771.1

>  <canonical_smiles>  (1797) 
C[C@@H](C[C@@H](O)[C@H](O)C(C)(C)O)[C@@H]1CC[C@]2(C)C3=CC[C@H]4C(C)(C)C(=O)CC[C@]4(C)[C@H]3CC[C@@]12C

>  <standard_inchi>  (1797) 
InChI=1S/C30H50O4/c1-18(17-22(31)25(33)27(4,5)34)19-11-15-30(8)21-9-10-23-26(2,3)24(32)13-14-28(23,6)20(21)12-16-29(19,30)7/h9,18-20,22-23,25,31,33-34H,10-17H2,1-8H3/t18-,19-,20-,22+,23-,25-,28+,29-,30+/m0/s1

>  <standard_inchi_key>  (1797) 
DCGUKHULKAAOPB-QBLSGNHRSA-N

>  <name>  (1797) 
Piscidinol A

>  <iupac_name>  (1797) 
(5~{R},9~{R},10~{R},13~{S},14~{S},17~{S})-4,4,10,13,14-pentamethyl-17-[(1~{S},3~{R},4~{S})-3,4,5-trihydroxy-1,5-dimethyl-hexyl]-1,2,5,6,9,11,12,15,16,17-decahydrocyclopenta[a]phenanthren-3-one

>  <annotation_level>  (1797) 
5

>  <total_atom_count>  (1797) 
84

>  <heavy_atom_count>  (1797) 
34

>  <molecular_weight>  (1797) 
474.73

>  <exact_molecular_weight>  (1797) 
474.37091

>  <molecular_formula>  (1797) 
C30H50O4

>  <alogp>  (1797) 
5.68

>  <topological_polar_surface_area>  (1797) 
77.76

>  <rotatable_bond_count>  (1797) 
5

>  <hydrogen_bond_acceptors>  (1797) 
4

>  <hydrogen_bond_donors>  (1797) 
3

>  <hydrogen_bond_acceptors_lipinski>  (1797) 
4

>  <hydrogen_bond_donors_lipinski>  (1797) 
3

>  <lipinski_rule_of_five_violations>  (1797) 
1

>  <aromatic_rings_count>  (1797) 
0

>  <qed_drug_likeliness>  (1797) 
0.45

>  <formal_charge>  (1797) 
0

>  <fractioncsp3>  (1797) 
0.90

>  <number_of_minimal_rings>  (1797) 
4

>  <van_der_walls_volume>  (1797) 
479.56

>  <contains_sugar>  (1797) 
False

>  <contains_ring_sugars>  (1797) 
False

>  <contains_linear_sugars>  (1797) 
False

>  <murcko_framework>  (1797) 
C1=C2C3CCCC3CCC2C4CCCCC4C1

>  <np_likeness>  (1797) 
3.42

>  <chemical_class>  (1797) 
Steroids and steroid derivatives

>  <chemical_sub_class>  (1797) 
Bile acids, alcohols and derivatives

>  <chemical_super_class>  (1797) 
Lipids and lipid-like molecules

>  <direct_parent_classification>  (1797) 
Bile acids, alcohols and derivatives

>  <np_classifier_pathway>  (1797) 
Terpenoids

>  <np_classifier_superclass>  (1797) 
Triterpenoids

>  <np_classifier_class>  (1797) 
Apotirucallane triterpenoids

>  <np_classifier_is_glycoside>  (1797) 
False

>  <organisms>  (1797) 
Aglaia leucophylla|Aglaia rubiginosa|Ailanthus altissima|Aphanamixis grandifolia|Aphanamixis polystachya|Boronia inornata|Castela texana|Castela tortuosa|Cedrela fissilis|Cedrela sinensis|Chisocheton cumingianus|Eurycoma longifolia|Eurycoma sp.|Phellodendron amurense|Phellodendron chinense|Phellodendron chinense var. glabriusculum|Toona sinensis|Trichilia schomburgkii|Turraea nilotica|Walsura piscidia|Walsura robusta|Walsura trifoliolata

>  <collections>  (1797) 
ANPDB|Australian natural products|CMAUP (cCollective molecular activities of useful plants)|KNApSaCK|Latin America dataset|NANPDB (Natural Products from Northern African Sources)|NPASS|NuBBEDB|Super Natural II|WikiData Natural Products

>  <dois>  (1797) 
10.1002/MRC.2768|10.1007/BF02575975|10.1016/0031-9422(88)80448-5|10.1016/0031-9422(92)80285-M|10.1016/0031-9422(94)00567-D|10.1016/0031-9422(94)00567-d|10.1016/0031-9422(94)00851-J|10.1016/0031-9422(95)00415-4|10.1016/J.PHYMED.2009.10.015|10.1016/S0031-9422(00)83040-X|10.1016/j.jep.2015.08.039|10.1021/NP50076A008|10.1021/NP50093A018|10.1021/NP900485T|10.1021/NP960013J|10.1021/acs.jnatprod.5b00952|10.1021/acs.jnatprod.8b00208|10.1055/S-0028-1088323|10.1055/s-0028-1088323|10.1248/CPB.40.1053|10.1248/CPB.55.1442

>  <synonyms>  (1797) 
(13,14,17,20S,23R,24S)-23,24,25-Trihydroxylanost-7-en-3-one|(1S,3AS,5AR,9AR,9BR,11AS)-3A,6,6,9A,11A-PENTAMETHYL-1-[(2S,4R,5S)-4,5,6-TRIHYDROXY-6-METHYLHEPTAN-2-YL]-1H,2H,3H,5H,5AH,8H,9H,9BH,10H,11H-CYCLOPENTA[A]PHENANTHREN-7-ONE|(5R,9R,10R,13S,14S,17S)-4,4,10,13,14-Pentamethyl-17-((2S,4R,5S)-4,5,6-trihydroxy-6-methylheptan-2-yl)-4,5,6,9,10,11,12,13,14,15,16,17-dodecahydro-1H-cyclopenta|(5R,9R,10R,13S,14S,17S)-4,4,10,13,14-pentamethyl-17-[(2S,4R,5S)-4,5,6-trihydroxy-6-methylheptan-2-yl]-1,2,5,6,9,11,12,15,16,17-decahydrocyclopenta[a]phenanthren-3-one|100198-09-2|AKOS030230287|BDBM57506|CHEMBL1508930|CS-0023082|DTXSID901318049|F92717|FS-10063|HY-N3044|MLS000563510|Piscidil A|SMR000232320|cid_12004524|piscidinol A

>  <cas>  (1797) 
100198-09-2

$$$$

     RDKit          2D

 24 27  0  0  0  0  0  0  0  0999 V2000
    5.6325   -1.0538    0.0000 C   0  0  0  0  0  0  0  0  0  0  0  0
    5.2771    0.4035    0.0000 O   0  0  0  0  0  0  0  0  0  0  0  0
    3.8374    0.8244    0.0000 C   0  0  0  0  0  0  0  0  0  0  0  0
    2.7530   -0.2120    0.0000 C   0  0  0  0  0  0  0  0  0  0  0  0
    1.3133    0.2089    0.0000 C   0  0  0  0  0  0  0  0  0  0  0  0
    0.2289   -0.8275    0.0000 C   0  0  0  0  0  0  0  0  0  0  0  0
   -1.2109   -0.4065    0.0000 C   0  0  0  0  0  0  0  0  0  0  0  0
   -1.5662    1.0508    0.0000 C   0  0  0  0  0  0  0  0  0  0  0  0
   -3.0059    1.4717    0.0000 C   0  0  0  0  0  0  0  0  0  0  0  0
   -4.0903    0.4353    0.0000 C   0  0  0  0  0  0  0  0  0  0  0  0
   -3.7350   -1.0220    0.0000 C   0  0  0  0  0  0  0  0  0  0  0  0
   -2.2952   -1.4429    0.0000 C   0  0  0  0  0  0  0  0  0  0  0  0
   -1.9399   -2.9002    0.0000 C   0  0  0  0  0  0  0  0  0  0  0  0
   -0.5001   -3.3211    0.0000 C   0  0  0  0  0  0  0  0  0  0  0  0
   -0.1448   -4.7785    0.0000 C   0  0  0  0  0  0  0  0  0  0  0  0
    0.5842   -2.2848    0.0000 C   0  0  0  0  0  0  0  0  0  0  0  0
    2.0240   -2.7057    0.0000 C   0  0  0  0  0  0  0  0  0  0  0  0
   -5.4111    1.1463    0.0000 O   0  0  0  0  0  0  0  0  0  0  0  0
   -5.1430    2.6222    0.0000 C   0  0  0  0  0  0  0  0  0  0  0  0
   -3.6565    2.8232    0.0000 O   0  0  0  0  0  0  0  0  0  0  0  0
    0.9579    1.6662    0.0000 C   0  0  0  0  0  0  0  0  0  0  0  0
    2.0423    2.7026    0.0000 C   0  0  0  0  0  0  0  0  0  0  0  0
    3.4820    2.2817    0.0000 C   0  0  0  0  0  0  0  0  0  0  0  0
    4.5664    3.3181    0.0000 O   0  0  0  0  0  0  0  0  0  0  0  0
  1  2  1  0
  2  3  1  0
  3  4  2  0
  4  5  1  0
  6  5  1  6
  6  7  1  0
  7  8  2  0
  8  9  1  0
  9 10  2  0
 10 11  1  0
 11 12  2  0
 12 13  1  0
 13 14  1  0
 14 15  1  6
 14 16  1  0
 16 17  1  1
 10 18  1  0
 18 19  1  0
 19 20  1  0
  5 21  2  0
 21 22  1  0
 22 23  2  0
 23 24  1  0
 23  3  1  0
 16  6  1  0
 12  7  1  0
 20  9  1  0
M  END
>  <identifier>  (1798) 
CNP0268896.1

>  <canonical_smiles>  (1798) 
COC1=CC([C@H]2C3=CC4=C(C=C3C[C@@H](C)[C@@H]2C)OCO4)=CC=C1O

>  <standard_inchi>  (1798) 
InChI=1S/C20H22O4/c1-11-6-14-8-18-19(24-10-23-18)9-15(14)20(12(11)2)13-4-5-16(21)17(7-13)22-3/h4-5,7-9,11-12,20-21H,6,10H2,1-3H3/t11-,12+,20+/m1/s1

>  <standard_inchi_key>  (1798) 
ZTNZPWXCSNAVLW-JGRMJRGVSA-N

>  <name>  (1798) 
4-[(5S,6S,7R)-6,7-dimethyl-5,6,7,8-tetrahydrobenzo[f][1,3]benzodioxol-5-yl]-2-methoxyphenol

>  <iupac_name>  (1798) 
4-[(5~{S},6~{S},7~{R})-6,7-dimethyl-5,6,7,8-tetrahydrobenzo[f][1,3]benzodioxol-5-yl]-2-methoxy-phenol

>  <annotation_level>  (1798) 
5

>  <total_atom_count>  (1798) 
46

>  <heavy_atom_count>  (1798) 
24

>  <molecular_weight>  (1798) 
326.39

>  <exact_molecular_weight>  (1798) 
326.15181

>  <molecular_formula>  (1798) 
C20H22O4

>  <alogp>  (1798) 
4.09

>  <topological_polar_surface_area>  (1798) 
47.92

>  <rotatable_bond_count>  (1798) 
2

>  <hydrogen_bond_acceptors>  (1798) 
4

>  <hydrogen_bond_donors>  (1798) 
1

>  <hydrogen_bond_acceptors_lipinski>  (1798) 
4

>  <hydrogen_bond_donors_lipinski>  (1798) 
1

>  <lipinski_rule_of_five_violations>  (1798) 
0

>  <aromatic_rings_count>  (1798) 
2

>  <qed_drug_likeliness>  (1798) 
0.90

>  <formal_charge>  (1798) 
0

>  <fractioncsp3>  (1798) 
0.40

>  <number_of_minimal_rings>  (1798) 
4

>  <van_der_walls_volume>  (1798) 
299.30

>  <contains_sugar>  (1798) 
False

>  <contains_ring_sugars>  (1798) 
False

>  <contains_linear_sugars>  (1798) 
False

>  <murcko_framework>  (1798) 
O1c2cc3c(cc2OC1)C(c4ccccc4)CCC3

>  <np_likeness>  (1798) 
1.61

>  <chemical_class>  (1798) 
Aryltetralin lignans

>  <chemical_sub_class>  (1798) 
Aryltetralin lignans

>  <chemical_super_class>  (1798) 
Lignans, neolignans and related compounds

>  <direct_parent_classification>  (1798) 
Aryltetralin lignans

>  <np_classifier_pathway>  (1798) 
Shikimates and Phenylpropanoids

>  <np_classifier_superclass>  (1798) 
Lignans

>  <np_classifier_class>  (1798) 
Arylnaphthalene and aryltetralin lignans

>  <np_classifier_is_glycoside>  (1798) 
False

>  <organisms>  (1798) 
Andinobates fulguritus|Catalpa bignonioides|Cephalonoplos segetum|Comaster multifida|Esenbeckia nesiotica|Helipterum tenellum|Hyptis tomentosa|Ipomoea cristulata|Lachnoanaerobaculum saburreum|Lens phaseoloides|Lophozonia menziesii|Myristica fragrans|Pancratium trianthum|Piper pedicellosum|Rhodotypos scandens|Schisandra bicolor var. tuberculata|Schisandra glaucescens|Virola carinata|Xanthostemon oppositifolius

>  <collections>  (1798) 
CMAUP (cCollective molecular activities of useful plants)|Latin America dataset|NPASS|NuBBEDB|Super Natural II|WikiData Natural Products|ZINC NP

>  <dois>  (1798) 
10.1016/J.BMCL.2007.10.098|10.1016/S0031-9422(00)94440-6

>  <synonyms>  (1798) 
(-)-Isootobaphenol, (2R3S4S)-4-guaiacyl-23-dimethyl-67-methylenedioxytetralin|80483-35-8|CHEMBL428239|DTXSID701112942|Phenol, 2-methoxy-4-[(5R,6R,7S)-5,6,7,8-tetrahydro-6,7-dimethylnaphtho[2,3-d]-1,3-dioxol-5-yl]-, rel-

>  <cas>  (1798) 
80483-35-8

$$$$

     RDKit          2D

 32 36  0  0  0  0  0  0  0  0999 V2000
   -7.4630   -2.1477    0.0000 C   0  0  0  0  0  0  0  0  0  0  0  0
   -6.0302   -1.7037    0.0000 C   0  0  0  0  0  0  0  0  0  0  0  0
   -5.6984   -0.2409    0.0000 C   0  0  0  0  0  0  0  0  0  0  0  0
   -4.2656    0.2032    0.0000 C   0  0  0  0  0  0  0  0  0  0  0  0
   -3.9338    1.6660    0.0000 C   0  0  0  0  0  0  0  0  0  0  0  0
   -5.0347    2.6848    0.0000 C   0  0  0  0  0  0  0  0  0  0  0  0
   -2.5010    2.1101    0.0000 C   0  0  0  0  0  0  0  0  0  0  0  0
   -2.0181    3.5302    0.0000 C   0  0  0  0  0  0  0  0  0  0  0  0
   -0.5183    3.5098    0.0000 C   0  0  0  0  0  0  0  0  0  0  0  0
   -0.0742    2.0770    0.0000 C   0  0  0  0  0  0  0  0  0  0  0  0
    1.0541    3.0654    0.0000 C   0  0  0  0  0  0  0  0  0  0  0  0
    1.2877    1.4483    0.0000 C   0  0  0  0  0  0  0  0  0  0  0  0
    2.5131    2.3133    0.0000 C   0  0  0  0  0  0  0  0  0  0  0  0
    3.8750    1.6846    0.0000 C   0  0  0  0  0  0  0  0  0  0  0  0
    4.0114    0.1908    0.0000 C   0  0  0  0  0  0  0  0  0  0  0  0
    5.3733   -0.4379    0.0000 C   0  0  0  0  0  0  0  0  0  0  0  0
    6.8681   -0.5629    0.0000 C   0  0  0  0  0  0  0  0  0  0  0  0
    5.7560    1.0125    0.0000 C   0  0  0  0  0  0  0  0  0  0  0  0
    5.5097   -1.9317    0.0000 C   0  0  0  0  0  0  0  0  0  0  0  0
    6.8716   -2.5604    0.0000 O   0  0  0  0  0  0  0  0  0  0  0  0
    4.2843   -2.7967    0.0000 C   0  0  0  0  0  0  0  0  0  0  0  0
    2.9224   -2.1680    0.0000 C   0  0  0  0  0  0  0  0  0  0  0  0
    2.7860   -0.6742    0.0000 C   0  0  0  0  0  0  0  0  0  0  0  0
    1.5606   -1.5393    0.0000 C   0  0  0  0  0  0  0  0  0  0  0  0
    1.4241   -0.0455    0.0000 C   0  0  0  0  0  0  0  0  0  0  0  0
    0.1987   -0.9106    0.0000 C   0  0  0  0  0  0  0  0  0  0  0  0
   -1.1632   -0.2818    0.0000 C   0  0  0  0  0  0  0  0  0  0  0  0
   -1.2996    1.2119    0.0000 C   0  0  0  0  0  0  0  0  0  0  0  0
   -2.6088    0.4797    0.0000 C   0  0  0  0  0  0  0  0  0  0  0  0
   -4.9293   -2.7225    0.0000 C   0  0  0  0  0  0  0  0  0  0  0  0
   -5.2611   -4.1853    0.0000 C   0  0  0  0  0  0  0  0  0  0  0  0
   -3.4965   -2.2784    0.0000 C   0  0  0  0  0  0  0  0  0  0  0  0
  1  2  2  0
  2  3  1  0
  3  4  1  0
  4  5  1  0
  5  6  1  1
  5  7  1  0
  7  8  1  1
  8  9  1  0
  9 10  1  0
 10 11  1  6
 10 12  1  0
 12 13  1  6
 13 14  1  0
 15 14  1  1
 15 16  1  0
 16 17  1  0
 16 18  1  0
 16 19  1  0
 19 20  1  1
 19 21  1  0
 21 22  1  0
 23 22  1  6
 23 24  1  0
 25 24  1  1
 25 26  1  0
 26 27  1  0
 27 28  1  0
 28 29  1  1
  2 30  1  0
 30 31  1  0
 30 32  1  0
 28  7  1  0
 28 10  1  0
 25 12  1  0
 23 15  1  0
 25 23  1  0
M  END
>  <identifier>  (1799) 
CNP0164563.4

>  <canonical_smiles>  (1799) 
C=C(CC[C@@H](C)[C@H]1CC[C@@]2(C)[C@@H]3CC[C@H]4C(C)(C)[C@@H](O)CC[C@@]45C[C@@]35CC[C@]12C)C(C)C

>  <standard_inchi>  (1799) 
InChI=1S/C31H52O/c1-20(2)21(3)9-10-22(4)23-13-15-29(8)25-12-11-24-27(5,6)26(32)14-16-30(24)19-31(25,30)18-17-28(23,29)7/h20,22-26,32H,3,9-19H2,1-2,4-8H3/t22-,23-,24+,25+,26+,28-,29+,30-,31+/m1/s1

>  <standard_inchi_key>  (1799) 
BDHQMRXFDYJGII-UEBIAWITSA-N

>  <name>  (1799) 
24-Methylenecycloartanol

>  <iupac_name>  (1799) 
(1~{S},3~{R},6~{S},8~{R},11~{S},12~{S},15~{R},16~{R})-15-[(1~{R})-1,5-dimethyl-4-methylene-hexyl]-7,7,12,16-tetramethyl-pentacyclo[9.7.0.0^{1,3}.0^{3,8}.0^{12,16}]octadecan-6-ol

>  <annotation_level>  (1799) 
5

>  <total_atom_count>  (1799) 
84

>  <heavy_atom_count>  (1799) 
32

>  <molecular_weight>  (1799) 
440.76

>  <exact_molecular_weight>  (1799) 
440.40182

>  <molecular_formula>  (1799) 
C31H52O

>  <alogp>  (1799) 
8.41

>  <topological_polar_surface_area>  (1799) 
20.23

>  <rotatable_bond_count>  (1799) 
5

>  <hydrogen_bond_acceptors>  (1799) 
1

>  <hydrogen_bond_donors>  (1799) 
1

>  <hydrogen_bond_acceptors_lipinski>  (1799) 
1

>  <hydrogen_bond_donors_lipinski>  (1799) 
1

>  <lipinski_rule_of_five_violations>  (1799) 
1

>  <aromatic_rings_count>  (1799) 
0

>  <qed_drug_likeliness>  (1799) 
0.43

>  <formal_charge>  (1799) 
0

>  <fractioncsp3>  (1799) 
0.94

>  <number_of_minimal_rings>  (1799) 
5

>  <van_der_walls_volume>  (1799) 
467.59

>  <contains_sugar>  (1799) 
False

>  <contains_ring_sugars>  (1799) 
False

>  <contains_linear_sugars>  (1799) 
False

>  <murcko_framework>  (1799) 
C1CCC23CC43CCC5CCCC5C4CCC2C1

>  <np_likeness>  (1799) 
3.27

>  <chemical_class>  (1799) 
Steroids and steroid derivatives

>  <chemical_sub_class>  (1799) 
Cycloartanols and derivatives

>  <chemical_super_class>  (1799) 
Lipids and lipid-like molecules

>  <direct_parent_classification>  (1799) 
Cycloartanols and derivatives

>  <np_classifier_pathway>  (1799) 
Terpenoids

>  <np_classifier_superclass>  (1799) 
Triterpenoids

>  <np_classifier_class>  (1799) 
Cycloartane triterpenoids

>  <np_classifier_is_glycoside>  (1799) 
False

>  <organisms>  (1799) 
Aaptos aaptos|Acer spicatum|Aconitum nevadense|Actaea simplex|Ageratina riparia|Ajuga reptans|Alseodaphne corneri|Amaranthus blitum|Amaranthus caudatus|Amaranthus cruentus|Amaranthus hybridus|Amaranthus hypochondriacus|Amaranthus leucocarpus|Amaranthus lividus|Amaranthus retroflexus|Amaranthus tricolor|American ginseng|Ammocharis coranica|Annona impressivenia|Antitrogus consanguineus|Arabidopsis thaliana|Archidendron chevalieri|Arctium lappa|Aristolochia tagala|Armoracia rusticana|Asparagus thunbergianus|Aspergillus unguis|Aspergillus wentii|Aster conspicuus|Astragalus interpositus|Aulacocephalus temmincki|Avena sativa|Berberis aquifolium|Bersama yangambiensis|Beta vulgaris|Botryotrichum piluliferum|Caesalpinia pulcherrima|Cajanus cajan|Calea clausseniana|Calendula officinalis|Camellia japonica|Camellia oleifera|Camellia reticulata|Camellia sasanqua|Camellia sinensis|Carthamus tinctorius|Castanopsis sclerophylla|Celosia argentea|Centaurea napifolia|Cephalaria procera|Chalciporus piperatus|Chamomilla suaveolens|Chromodoris inornata|Chromodoris willani|Chrysanthemum morifolium|Cicer arietinum|Cimicifuga simplex|Cineraria saxifraga|Cirsium nipponicum|Citrus paradisi|Citrus × paradisi|Clerodendrum splendens|Clitocybula oculus|Comamonas testosteroni|Conocephalum japonicum|Conus marmoreus|Cordylanthus kingii|Cosmos bipinnatus|Costus tonkinensis|Crinipellis scabella|Crotalaria ferruginea|Croton cumingii|Cucumis melo|Cylicodaphne sebifera|Cynara cardunculus|Cystophora scalaris|Cytisus ciliatus|Dactylosporangium aurantiacum|Dendranthema morifolium|Diospyros maritima|Diplopteraster multipes|Diplopterygium glaucum|Disynaphia halimifolia|Dolichothele uberiformis|Domohinea perrieri|Doodia picta|Dracaena cinnabari|Dracaena mannii|Dryopteris sacrosancta|Elaeagnus angustifolia|Eleusine indica|Enteromorpha intestinalis|Epidendrum fulgens|Eragrostis viscosa|Eucalyptus microcorys|Eunicella cavolinii|Euphorbia aleppica|Euphorbia antiquorum|Euphorbia boetica|Euphorbia broteri|Euphorbia cyparissias|Euphorbia ebracteolata|Euphorbia esula|Euphorbia esula l. var. cyparissoides boiss.|Euphorbia fischeriana|Euphorbia guyoniana|Euphorbia heteradena|Euphorbia iberica|Euphorbia kansui|Euphorbia lactea|Euphorbia lathyris|Euphorbia myrsinites|Euphorbia nicaeensis|Euphorbia oxyphylla|Euphorbia peplus|Euphorbia piscatoria|Euphorbia retusa|Euphorbia rigida|Euphorbia segetalis|Euphorbia seguieri|Euphorbia seguieriana|Euphorbia sulcata|Ficus Carica|Ficus carica|Ficus fistulosa|Forsteronia refracta|Fridericia chica|Girgensohnia diptera|Gleichenia japonica|Gmelina arborea|Goniophlebium formosanum|Grewia mollis|Gymnocarpium robertianum|Gymnocladus dioicus|Haminoea orbignyana|Heimia salicifolia|Helianthus debilis|Heliotropium floridum|Helipterum propinquum|Helleborus thibetanus|Heterotheca grandiflora|Hippophae rhamnoides|Hornschuchia citriodora|Hovenia acerba|Hoya australis|Hydnocarpus octandra|Ixeris chinensis|Juglans nigra|Jungermannia subulata|Justicia simplex|Kaempferia marginata|Kaunia saltensis|Kleinia tomentosa|Knema attenuata|Lagerstroemia speciosa|Larix gmelinii|Larix kaempferi|Larix kaempferi (Lamb.) Carr|Lathyrus sativus|Lemna trisulca|Lens culinaris|Libocedrus yateensis|Limnodynastes interioris|Lithocarpus polystachyus|Lobophytum denticulatum|Lophostemon confertus|Lotus albus|Lycium chinense|Mangifera indica|Mannia fragrans|Matricaria discoidea|Matricaria matricarioides|Melanocarpus albomyces|Melia azedarach|Melia azedarach var. toosendan|Mesua beccariana|Microlepia speluncae|Millettia pinnata|Murrayella periclados|Mycena haematopus|Mycobacterium avium subsp. paratuberculosis|Narcissus asturiensis|Narcissus concolor|Nauclea officinalis|Neolitsea sericea|Nephthea armata|Nicotiana tabacum|Nigella sativa|Niphogeton ternata|Oenothera biennis|Olea europaea|Oncoba echinata|Ononis natrix|Ophiolepis superba|Oryza sativa|Paeonia emodi|Paeonia lactiflora|Panax ginseng|Pandanus boninensis|Papaver commutatum|Papilio phorcas|Parabenzoin trilobum|Parthenium bipinnatifidum|Petasites fragrans|Phellodendron amurense|Phytolacca americana|Piptadenia peregrina|Pisum sativum|Pittosporum undulatum|Polycephalomyces nipponicus|Populus tremuloides|Psilotum nudum|Radix adenophorae|Rhizopogon pumilionus|Rhoiptelea chiliantha|Rubrivivax gelatinosus|Rubus koehneanus|Ruscus hypophyllum|Ruta pinnata|Salvia dorrii|Salvia nemorosa|Salvia × sylvestris|Sambucus nigra|Scutellaria discolor|Scutellaria orientalis|Sea lettuce|Senna didymobotrya|Sesamum alatum|Sesamum angustifolium|Sesamum radiatum|Sideritis discolor|Silybum marianum|Smallanthus glabratus|Solanum chacoense Bitt.|Solanum melongena|Sophora angustifolia|Sorocea ilicifolia|Sparganium stoloniferum|Stauntonia hexaphylla|Stemphylium radicinum|Stephanitis rhododendri|Stevia polycephala|Streptomyces aureus|Streptomyces ipomoeae|Streptomyces luteosporeus|Streptomyces microflavus|Streptomyces parvisporogenes|Symphoricarpos albus|Taraxacum platycarpum|Teucrium depressum|Thymus piperella|Tillandsia recurvata|Tillandsia usneoides|Trichilia claussenii|Trichilia rubescens|Trichormus hallensis|Tripteris vaillantii|Tristania conferta|Ulva intestinalis|Ulva lactuca|Vahlia capensis|Vigna angularis|Vigna cylindrica|Vigna mungo|Viola formosana|Xanthoceras sorbifolia|Xanthoceras sorbifolium|Zantedeschia aethiopica|Zanthoxylum parviflorum|common dandelion|common sunflower|maize|potato|sesame|soybean|tomato

>  <collections>  (1799) 
ANPDB|Australian natural products|CMAUP (cCollective molecular activities of useful plants)|ChEBI NPs|FooDB|KNApSaCK|Latin America dataset|NANPDB (Natural Products from Northern African Sources)|NPASS|NPEdia|NuBBEDB|Phyto4Health|Super Natural II|TCMDB-Taiwan (Traditional Chinese Medicine database)|VietHerb|WikiData Natural Products

>  <dois>  (1799) 
10.1002/CHIN.199841193|10.1002/JPS.2600570604|10.1002/JSFA.2740590309|10.1007/BF00574580|10.1007/BF00580456|10.1007/BF00630024|10.1007/BF02249647|10.1007/BF02249650|10.1007/BF02534064|10.1007/BF02537347|10.1007/BF02537832|10.1007/BF02541591|10.1007/BF02541638|10.1007/BF02545312|10.1007/BF02637687|10.1007/BF02645749|10.1007/BF02660305|10.1007/BF02679791|10.1007/S12272-010-0404-1|10.1016/0031-9422(72)85062-3|10.1016/0031-9422(73)80529-1|10.1016/0031-9422(74)80221-9|10.1016/0031-9422(82)85222-9|10.1016/0031-9422(83)80038-7|10.1016/0031-9422(83)80143-5|10.1016/0031-9422(84)83081-2|10.1016/0031-9422(86)88046-3|10.1016/0031-9422(88)80603-4|10.1016/0031-9422(88)83136-4|10.1016/0031-9422(90)80052-I|10.1016/0031-9422(90)80134-3|10.1016/0031-9422(92)80289-Q|10.1016/0031-9422(92)83139-P|10.1016/0031-9422(94)00710-B|10.1016/0031-9422(94)00743-D|10.1016/0031-9422(94)00806-5|10.1016/0031-9422(95)00514-8|10.1016/0031-9422(95)00778-4|10.1016/0031-9422(95)00889-6|10.1016/0031-9422(95)00969-8|10.1016/B978-0-12-812491-8.00030-8|10.1016/J.FOODRES.2020.109416|10.1016/J.JEP.2008.06.025|10.1016/J.PHYTOCHEM.2005.08.019|10.1016/J.PHYTOCHEM.2007.01.017|10.1016/J.PHYTOCHEM.2009.05.011|10.1016/S0031-9422(00)00039-X|10.1016/S0031-9422(00)00062-5|10.1016/S0031-9422(00)80074-6|10.1016/S0031-9422(00)81167-X|10.1016/S0031-9422(00)82185-8|10.1016/S0031-9422(00)82286-4|10.1016/S0031-9422(00)83042-3|10.1016/S0031-9422(00)83192-1|10.1016/S0031-9422(00)90191-2|10.1016/S0031-9422(00)90672-1|10.1016/S0031-9422(00)94844-1|10.1016/S0031-9422(00)97034-1|10.1016/S0031-9422(00)97767-7|10.1016/S0031-9422(01)00219-9|10.1016/S0031-9422(96)00343-3|10.1016/S0031-9422(97)00101-5|10.1016/S0031-9422(97)01011-X|10.1016/S0031-9422(98)00092-2|10.1016/S0031-9422(98)00302-1|10.1016/S0031-9422(98)00578-0|10.1016/S0031-9422(98)00656-6|10.1016/S0031-9422(99)00169-7|10.1016/j.foodres.2020.109416|10.1016/j.phytochem.2007.01.017|10.1016/s0031-9422(98)00092-2|10.1021/JF000135O|10.1021/JF00039A021|10.1021/JF010701V|10.1021/JF010813M|10.1021/NP50063A024|10.1021/NP50126A020|10.1021/NP900127J|10.1021/NP960075+|10.1021/NP990081G|10.1021/NP9902441|10.1021/np9902441|10.1038/NPLANTS.2016.205|10.1042/BJ0990735|10.1055/S-0028-1097188|10.1055/S-0028-1097228|10.1055/S-2006-959392|10.1055/S-2006-959579|10.1055/S-2006-959586|10.1055/S-2006-959736|10.1055/S-2006-960819|10.1055/S-2006-962522|10.1055/s-0028-1097228|10.1071/CH9610471|10.1071/ch9610471|10.1080/10286020310001596024|10.1111/1750-3841.15463|10.1139/V63-343|10.1211/0022357001773607|10.1248/BPB.21.1072|10.1248/CPB.18.1276|10.1248/CPB.41.624|10.1248/CPB.44.1255|10.1248/CPB.44.1540|10.1248/CPB.44.509|10.1248/CPB.45.2016|10.1248/CPB.47.1157|10.1248/YAKUSHI1947.105.8_742|10.1271/NOGEIKAGAKU1924.59.895|10.1515/ZNB-1985-0420|10.3390/MOLECULES24234322|10.4268/CJCMM20142015|10.5650/JOS1996.49.719

>  <synonyms>  (1799) 
(1S,3R,6S,8R,11S,12S,15R,16R)-7,7,12,16-tetramethyl-15-[(2R)-6-methyl-5-methylideneheptan-2-yl]pentacyclo[9.7.0.01,3.03,8.012,16]octadecan-6-ol|(3|(3beta,9beta)-24-methylene-9,19-cyclolanostan-3-ol|1449-09-8|24(28)-methylenecycloartanol|24-Methylenecycloartan-3-ol|24-Methylenecycloartanol; 24-Methylidenecycloartanol|24-methylene-9,19-cyclolanostan-3-ol|24-methylene-9beta,19-cyclo-lanostan-3beta-ol|24-methylenecycloartan-3beta-ol|3 beta-Hydroxy-24-methylenecycloartane|3-benzoyloxy-5,15-diacetoxy-9,14-dioxojatropha-6(17),11-diene|3.BETA.-HYDROXY-24-METHYLENECYCLOARTANE|4alpha,4beta,14alpha-Trimethyl-9beta,19-cyclo-5alpha-ergost-24(24(1))-en-3beta-ol|9,19-Cyclolanostan-3-o1, 24-methylene-, (3beta)-|A,9|AC1L3RQE|AKOS032948480|BDBM50478903|C08830|CHEBI:1307|CHEMBL376350|CS-0017365|CYCLOARTANOL, 24-METHYLENE-|DTXSID90932442|FI34181G3X|FS-10372|GLXC-16620|HY-N1703|Q27105441|SCHEMBL1653320|UNII-FI34181G3X

>  <cas>  (1799) 
1449-09-8

$$$$

     RDKit          2D

 14 13  0  0  0  0  0  0  0  0999 V2000
   -8.4468   -0.2996    0.0000 C   0  0  0  0  0  0  0  0  0  0  0  0
   -7.1411    0.4388    0.0000 C   0  0  0  0  0  0  0  0  0  0  0  0
   -5.8488   -0.3228    0.0000 C   0  0  0  0  0  0  0  0  0  0  0  0
   -4.5431    0.4156    0.0000 C   0  0  0  0  0  0  0  0  0  0  0  0
   -3.2508   -0.3460    0.0000 C   0  0  0  0  0  0  0  0  0  0  0  0
   -1.9451    0.3924    0.0000 C   0  0  0  0  0  0  0  0  0  0  0  0
   -0.6528   -0.3692    0.0000 C   0  0  0  0  0  0  0  0  0  0  0  0
    0.6528    0.3692    0.0000 C   0  0  0  0  0  0  0  0  0  0  0  0
    1.9451   -0.3924    0.0000 C   0  0  0  0  0  0  0  0  0  0  0  0
    3.2508    0.3460    0.0000 C   0  0  0  0  0  0  0  0  0  0  0  0
    4.5431   -0.4156    0.0000 C   0  0  0  0  0  0  0  0  0  0  0  0
    5.8488    0.3228    0.0000 C   0  0  0  0  0  0  0  0  0  0  0  0
    7.1411   -0.4388    0.0000 C   0  0  0  0  0  0  0  0  0  0  0  0
    8.4468    0.2996    0.0000 C   0  0  0  0  0  0  0  0  0  0  0  0
  1  2  2  0
  2  3  1  0
  3  4  1  0
  4  5  1  0
  5  6  1  0
  6  7  1  0
  7  8  1  0
  8  9  1  0
  9 10  1  0
 10 11  1  0
 11 12  1  0
 12 13  1  0
 13 14  1  0
M  END
>  <identifier>  (1800) 
CNP0137398.0

>  <canonical_smiles>  (1800) 
C=CCCCCCCCCCCCC

>  <standard_inchi>  (1800) 
InChI=1S/C14H28/c1-3-5-7-9-11-13-14-12-10-8-6-4-2/h3H,1,4-14H2,2H3

>  <standard_inchi_key>  (1800) 
HFDVRLIODXPAHB-UHFFFAOYSA-N

>  <name>  (1800) 
1-TETRADECENE

>  <iupac_name>  (1800) 
tetradec-1-ene

>  <annotation_level>  (1800) 
5

>  <total_atom_count>  (1800) 
42

>  <heavy_atom_count>  (1800) 
14

>  <molecular_weight>  (1800) 
196.38

>  <exact_molecular_weight>  (1800) 
196.2191

>  <molecular_formula>  (1800) 
C14H28

>  <alogp>  (1800) 
5.48

>  <topological_polar_surface_area>  (1800) 
0.00

>  <rotatable_bond_count>  (1800) 
11

>  <hydrogen_bond_acceptors>  (1800) 
0

>  <hydrogen_bond_donors>  (1800) 
0

>  <hydrogen_bond_acceptors_lipinski>  (1800) 
0

>  <hydrogen_bond_donors_lipinski>  (1800) 
0

>  <lipinski_rule_of_five_violations>  (1800) 
1

>  <aromatic_rings_count>  (1800) 
0

>  <qed_drug_likeliness>  (1800) 
0.30

>  <formal_charge>  (1800) 
0

>  <fractioncsp3>  (1800) 
0.86

>  <number_of_minimal_rings>  (1800) 
0

>  <van_der_walls_volume>  (1800) 
238.24

>  <contains_sugar>  (1800) 
False

>  <contains_ring_sugars>  (1800) 
False

>  <contains_linear_sugars>  (1800) 
False

>  <murcko_framework>  (1800) 
nan

>  <np_likeness>  (1800) 
0.73

>  <chemical_class>  (1800) 
Unsaturated hydrocarbons

>  <chemical_sub_class>  (1800) 
Olefins

>  <chemical_super_class>  (1800) 
Hydrocarbons

>  <direct_parent_classification>  (1800) 
Alkenes

>  <np_classifier_pathway>  (1800) 
Fatty acids

>  <np_classifier_superclass>  (1800) 
Fatty acyls

>  <np_classifier_class>  (1800) 
Hydrocarbons

>  <np_classifier_is_glycoside>  (1800) 
False

>  <organisms>  (1800) 
Alpinia katsumadai|Angelica dahurica|Angelica pubescens|Angelica sinensis|Apium graveolens|Aspergillus ustus|Bulbus allii fistulosi|Bupleurum chinense|Cacumen tamaricis|Camellia saluenensis|Carthamus tinctorius|Caryocar coriaceum|Cassia alata|Caulocystis cephalornithos|Cirsium dipsacolepis|Cleome gynandra|Combretum indicum|Confused flour beetle|Coptis chinensis|Coptis deltoidea|Coptis japonica|Coptis teeta|Croton tiglium|Culcitium canescens|Dendrobium fimbriatum var. oculatum|Elaeis guineensis|Eucheuma muricatum|Festuca arundinacea|Festuca rubra|Fructus galangae|Fructus syzygii|Hansenia weberbaueriana|Hericium erinaceus|Homo sapiens|Ligusticum chuanxiong|Ligusticum sinense|Michelia alba|Notopterygium incisum|Panax ginseng|Panax pseudo - ginseng var. notoginseng|Panax pseudo-ginseng var. notoginseng|Pericarpium arecae|Perilla frutescens var. arguta|Peucedanum govanianum var. bicolo|Phallus impudicus|Pseudoceratina purpurea|Radix chuanxiong|Rhizoma chuanxiong|Saposhnikovia divaricata|Semen astragali complanati|Strychnos nitida|Syringa vulgaris|Tribolium castaneum|Trichosanthes kirilowii|Trigonella foenum-graecum|Uncaria macrophylla|Vanilla madagascariensis|Vanilla planifolia|Vanilla tahitensis

>  <collections>  (1800) 
Australian natural products|CMAUP (cCollective molecular activities of useful plants)|EMNPD|FooDB|Latin America dataset|NPASS|NPAtlas|NuBBEDB|Phyto4Health|Super Natural II|TCMDB-Taiwan (Traditional Chinese Medicine database)|TCMID (Traditional Chinese Medicine Integrated Database)|UNPD (Universal Natural Products Database)|WikiData Natural Products|ZINC NP

>  <dois>  (1800) 
10.1007/S10600-011-0066-3|10.1007/s10600-011-0066-3|10.1016/0031-9422(91)84185-U|10.1016/J.BSE.2006.03.004|10.1016/S0031-9422(00)81427-2|10.1016/S0031-9422(00)97558-7|10.1016/j.bse.2006.03.004|10.1021/JF00120A031|10.1021/JF960927B|10.1021/jf00120a031|10.1055/S-2007-969591|10.1080/10412905.2005.9698946|10.1271/BBB1961.39.2207|10.1515/ZNB-2005-0815|10.17660/ACTAHORTIC.2005.677.9

>  <synonyms>  (1800) 
1-TETRADECENE [HSDB]|1-Tetradecene [Standard Material for GC]|1-Tetradecene, >=97.0% (GC)|1-Tetradecene, analytical standard|1-Tetradecene, technical grade, 92%|1-Tetradecylene|1-butadecene|1-tetradecene|1120-36-1|25608-58-6|68855-58-3|AI3-10509|AKOS015904124|Alkenes, C10-16 .alpha.-|Alkenes, C14-18 alpha-|BAA12036|CAS-1120-36-1|CCRIS 3785|CHEBI:77505|CHEMBL1892257|CS-0314332|DTXCID907367|DTXSID4027367|EC 214-306-9|EINECS 214-306-9|EINECS 272-493-2|EINECS 272-494-8|FW23481S7S|HSDB 1087|J-002695|LMFA11000329|LS-14356|MFCD00008981|NCGC00164372-01|NCGC00257042-01|NS00005576|NSC 66434|NSC-66434|Neodene 14|Q27147080|T0087|TETRADECENE [INCI]|Tetradec-1-ene|Tetradecene|Tox21_303051|UNII-FW23481S7S|alpha-Tetradecene|dodecylethylene

>  <cas>  (1800) 
1120-36-1|68855-58-3|25608-58-6

$$$$

     RDKit          2D

 32 33  0  0  0  0  0  0  0  0999 V2000
   -7.6957    2.1395    0.0000 C   0  0  0  0  0  0  0  0  0  0  0  0
   -6.7434    0.9806    0.0000 O   0  0  0  0  0  0  0  0  0  0  0  0
   -5.2636    1.2260    0.0000 C   0  0  0  0  0  0  0  0  0  0  0  0
   -4.7361    2.6302    0.0000 C   0  0  0  0  0  0  0  0  0  0  0  0
   -5.6885    3.7891    0.0000 O   0  0  0  0  0  0  0  0  0  0  0  0
   -3.2563    2.8755    0.0000 C   0  0  0  0  0  0  0  0  0  0  0  0
   -2.3040    1.7166    0.0000 C   0  0  0  0  0  0  0  0  0  0  0  0
   -0.8242    1.9620    0.0000 C   0  0  0  0  0  0  0  0  0  0  0  0
    0.1282    0.8031    0.0000 C   0  0  0  0  0  0  0  0  0  0  0  0
    1.6080    1.0484    0.0000 C   0  0  0  0  0  0  0  0  0  0  0  0
    2.1354    2.4526    0.0000 O   0  0  0  0  0  0  0  0  0  0  0  0
    2.5604   -0.1105    0.0000 C   0  0  0  0  0  0  0  0  0  0  0  0
    2.0329   -1.5147    0.0000 C   0  0  0  0  0  0  0  0  0  0  0  0
    0.5531   -1.7600    0.0000 O   0  0  0  0  0  0  0  0  0  0  0  0
    2.9853   -2.6736    0.0000 C   0  0  0  0  0  0  0  0  0  0  0  0
    4.4651   -2.4282    0.0000 C   0  0  0  0  0  0  0  0  0  0  0  0
    5.4175   -3.5871    0.0000 O   0  0  0  0  0  0  0  0  0  0  0  0
    4.9925   -1.0240    0.0000 C   0  0  0  0  0  0  0  0  0  0  0  0
    6.4723   -0.7787    0.0000 C   0  0  0  0  0  0  0  0  0  0  0  0
    6.9998    0.6255    0.0000 C   0  0  0  0  0  0  0  0  0  0  0  0
    8.4796    0.8709    0.0000 C   0  0  0  0  0  0  0  0  0  0  0  0
    9.0070    2.2751    0.0000 C   0  0  0  0  0  0  0  0  0  0  0  0
    9.4319   -0.2880    0.0000 C   0  0  0  0  0  0  0  0  0  0  0  0
    4.0402    0.1349    0.0000 C   0  0  0  0  0  0  0  0  0  0  0  0
    4.5676    1.5391    0.0000 O   0  0  0  0  0  0  0  0  0  0  0  0
   -2.8314    0.3124    0.0000 C   0  0  0  0  0  0  0  0  0  0  0  0
   -4.3112    0.0671    0.0000 C   0  0  0  0  0  0  0  0  0  0  0  0
   -4.8386   -1.3371    0.0000 C   0  0  0  0  0  0  0  0  0  0  0  0
   -6.3184   -1.5825    0.0000 C   0  0  0  0  0  0  0  0  0  0  0  0
   -6.8459   -2.9867    0.0000 C   0  0  0  0  0  0  0  0  0  0  0  0
   -8.3257   -3.2320    0.0000 C   0  0  0  0  0  0  0  0  0  0  0  0
   -5.8935   -4.1456    0.0000 C   0  0  0  0  0  0  0  0  0  0  0  0
  1  2  1  0
  2  3  1  0
  3  4  2  0
  4  5  1  0
  4  6  1  0
  6  7  2  0
  7  8  1  0
  8  9  1  0
  9 10  1  0
 10 11  2  0
 10 12  1  0
 12 13  2  0
 13 14  1  0
 13 15  1  0
 15 16  2  0
 16 17  1  0
 16 18  1  0
 18 19  1  0
 19 20  1  0
 20 21  2  0
 21 22  1  0
 21 23  1  0
 18 24  2  0
 24 25  1  0
  7 26  1  0
 26 27  2  0
 27 28  1  0
 28 29  1  0
 29 30  2  0
 30 31  1  0
 30 32  1  0
 27  3  1  0
 24 12  1  0
M  END
>  <identifier>  (1801) 
CNP0300538.0

>  <canonical_smiles>  (1801) 
COC1=C(O)C=C(CCC(=O)C2=C(O)C=C(O)C(CC=C(C)C)=C2O)C=C1CC=C(C)C

>  <standard_inchi>  (1801) 
InChI=1S/C26H32O6/c1-15(2)6-9-18-12-17(13-23(30)26(18)32-5)8-11-20(27)24-22(29)14-21(28)19(25(24)31)10-7-16(3)4/h6-7,12-14,28-31H,8-11H2,1-5H3

>  <standard_inchi_key>  (1801) 
BIIFTUNBVKLFER-UHFFFAOYSA-N

>  <name>  (1801) 
3,2',4',6'-Tetrahydroxy-4-methoxy-3',5-diprenyldihydrochalcone

>  <iupac_name>  (1801) 
3-[3-hydroxy-4-methoxy-5-(3-methylbut-2-enyl)phenyl]-1-[2,4,6-trihydroxy-3-(3-methylbut-2-enyl)phenyl]propan-1-one

>  <annotation_level>  (1801) 
5

>  <total_atom_count>  (1801) 
64

>  <heavy_atom_count>  (1801) 
32

>  <molecular_weight>  (1801) 
440.54

>  <exact_molecular_weight>  (1801) 
440.21989

>  <molecular_formula>  (1801) 
C26H32O6

>  <alogp>  (1801) 
5.35

>  <topological_polar_surface_area>  (1801) 
107.22

>  <rotatable_bond_count>  (1801) 
9

>  <hydrogen_bond_acceptors>  (1801) 
6

>  <hydrogen_bond_donors>  (1801) 
4

>  <hydrogen_bond_acceptors_lipinski>  (1801) 
6

>  <hydrogen_bond_donors_lipinski>  (1801) 
4

>  <lipinski_rule_of_five_violations>  (1801) 
1

>  <aromatic_rings_count>  (1801) 
2

>  <qed_drug_likeliness>  (1801) 
0.31

>  <formal_charge>  (1801) 
0

>  <fractioncsp3>  (1801) 
0.35

>  <number_of_minimal_rings>  (1801) 
2

>  <van_der_walls_volume>  (1801) 
420.40

>  <contains_sugar>  (1801) 
False

>  <contains_ring_sugars>  (1801) 
False

>  <contains_linear_sugars>  (1801) 
False

>  <murcko_framework>  (1801) 
c1ccc(cc1)CCCc2ccccc2

>  <np_likeness>  (1801) 
1.71

>  <chemical_class>  (1801) 
Linear 1,3-diarylpropanoids

>  <chemical_sub_class>  (1801) 
Chalcones and dihydrochalcones

>  <chemical_super_class>  (1801) 
Phenylpropanoids and polyketides

>  <direct_parent_classification>  (1801) 
2'-Hydroxy-dihydrochalcones

>  <np_classifier_pathway>  (1801) 
Shikimates and Phenylpropanoids

>  <np_classifier_superclass>  (1801) 
Flavonoids

>  <np_classifier_class>  (1801) 
Chalcones

>  <np_classifier_is_glycoside>  (1801) 
False

>  <organisms>  (1801) 
Metrodorea nigra

>  <collections>  (1801) 
KNApSaCK|Latin America dataset|NPEdia|NuBBEDB|Super Natural II|UNPD (Universal Natural Products Database)|WikiData Natural Products|ZINC NP

>  <dois>  (1801) 
10.1016/0031-9422(95)00504-Z

>  <synonyms>  (1801) 
1-Propanone 3-[3-hydroxy-4-methoxy-5-(3-methyl-2-buten-1-yl)phenyl]-1-[246-trihydroxy-3-(3-methyl-2-buten-1-yl)phenyl]-|3,2',4',6'-Tetrahydroxy-4-methoxy-3',5-diprenyldihydrochalcone|3-[3-hydroxy-4-methoxy-5-(3-methylbut-2-enyl)phenyl]-1-[2,4,6-trihydroxy-3-(3-methylbut-2-enyl)phenyl]propan-1-one|CHEBI:185644|LMPK12120535|SCHEMBL7194957

>  <cas>  (1801) 
nan

$$$$

     RDKit          2D

 16 15  0  0  0  0  0  0  0  0999 V2000
   -9.7451   -0.3086    0.0000 C   0  0  0  0  0  0  0  0  0  0  0  0
   -8.4410    0.4326    0.0000 C   0  0  0  0  0  0  0  0  0  0  0  0
   -7.1471   -0.3263    0.0000 C   0  0  0  0  0  0  0  0  0  0  0  0
   -5.8430    0.4149    0.0000 C   0  0  0  0  0  0  0  0  0  0  0  0
   -4.5491   -0.3440    0.0000 C   0  0  0  0  0  0  0  0  0  0  0  0
   -3.2450    0.3971    0.0000 C   0  0  0  0  0  0  0  0  0  0  0  0
   -1.9511   -0.3617    0.0000 C   0  0  0  0  0  0  0  0  0  0  0  0
   -0.6469    0.3794    0.0000 C   0  0  0  0  0  0  0  0  0  0  0  0
    0.6469   -0.3794    0.0000 C   0  0  0  0  0  0  0  0  0  0  0  0
    1.9511    0.3617    0.0000 C   0  0  0  0  0  0  0  0  0  0  0  0
    3.2450   -0.3971    0.0000 C   0  0  0  0  0  0  0  0  0  0  0  0
    4.5491    0.3440    0.0000 C   0  0  0  0  0  0  0  0  0  0  0  0
    5.8430   -0.4149    0.0000 C   0  0  0  0  0  0  0  0  0  0  0  0
    7.1471    0.3263    0.0000 C   0  0  0  0  0  0  0  0  0  0  0  0
    8.4410   -0.4326    0.0000 C   0  0  0  0  0  0  0  0  0  0  0  0
    9.7451    0.3086    0.0000 C   0  0  0  0  0  0  0  0  0  0  0  0
  1  2  1  0
  2  3  1  0
  3  4  1  0
  4  5  1  0
  5  6  1  0
  6  7  1  0
  7  8  1  0
  8  9  1  0
  9 10  1  0
 10 11  1  0
 11 12  1  0
 12 13  1  0
 13 14  1  0
 14 15  1  0
 15 16  1  0
M  END
>  <identifier>  (1802) 
CNP0250856.0

>  <canonical_smiles>  (1802) 
CCCCCCCCCCCCCCCC

>  <standard_inchi>  (1802) 
InChI=1S/C16H34/c1-3-5-7-9-11-13-15-16-14-12-10-8-6-4-2/h3-16H2,1-2H3

>  <standard_inchi_key>  (1802) 
DCAYPVUWAIABOU-UHFFFAOYSA-N

>  <name>  (1802) 
HEXADECANE

>  <iupac_name>  (1802) 
hexadecane

>  <annotation_level>  (1802) 
5

>  <total_atom_count>  (1802) 
50

>  <heavy_atom_count>  (1802) 
16

>  <molecular_weight>  (1802) 
226.45

>  <exact_molecular_weight>  (1802) 
226.26605

>  <molecular_formula>  (1802) 
C16H34

>  <alogp>  (1802) 
6.49

>  <topological_polar_surface_area>  (1802) 
0.00

>  <rotatable_bond_count>  (1802) 
13

>  <hydrogen_bond_acceptors>  (1802) 
0

>  <hydrogen_bond_donors>  (1802) 
0

>  <hydrogen_bond_acceptors_lipinski>  (1802) 
0

>  <hydrogen_bond_donors_lipinski>  (1802) 
0

>  <lipinski_rule_of_five_violations>  (1802) 
1

>  <aromatic_rings_count>  (1802) 
0

>  <qed_drug_likeliness>  (1802) 
0.31

>  <formal_charge>  (1802) 
0

>  <fractioncsp3>  (1802) 
1.00

>  <number_of_minimal_rings>  (1802) 
0

>  <van_der_walls_volume>  (1802) 
277.22

>  <contains_sugar>  (1802) 
False

>  <contains_ring_sugars>  (1802) 
False

>  <contains_linear_sugars>  (1802) 
False

>  <murcko_framework>  (1802) 
nan

>  <np_likeness>  (1802) 
0.15

>  <chemical_class>  (1802) 
Saturated hydrocarbons

>  <chemical_sub_class>  (1802) 
Alkanes

>  <chemical_super_class>  (1802) 
Hydrocarbons

>  <direct_parent_classification>  (1802) 
Alkanes

>  <np_classifier_pathway>  (1802) 
Fatty acids

>  <np_classifier_superclass>  (1802) 
Fatty acyls

>  <np_classifier_class>  (1802) 
Hydrocarbons

>  <np_classifier_is_glycoside>  (1802) 
False

>  <organisms>  (1802) 
Agave decipiens|Aguacate|Aiouea costaricensis|Albatrellus cristatus|Aloe vera|Alstonia muelleriana|Angelica acutiloba|Angelica gigas|Angelica sinensis|Armoracia rusticana|Artemisia cina|Arum maculatum|Aster scaber|Atractylodes lancea|Atractylodes macrocephala|Brassica campestris|Brassica juncea|Brassica rapa|Camellia sinensis|Camptotheca acuminata|Cannabis sativa|Capsicum annuum|Caryocar coriaceum|Chrysanthemum macrocarpum|Cirsium dipsacolepis|Cistus creticus|Cistus ladanifer|Cistus laurifolius|Cistus monspeliensis|Citrullus lanatus|Citrullus lanatus subsp. vulgaris|Coreopsis nodosa|Cornus officinalis|Curcuma amada|Curcuma amanda Roxb|Cynanchum stauntoni|Cynanchum stauntonii|Dacrydium cupressinum|Daphne odora|Dendrobium officinale|Digitalis purpurea|Diplotaxis harra|Dryopteris assimilis|Dryopteris carthusiana|Dryopteris expansa|Dryopteris filix-mas|Dryopteris spinulosa|Elaeis guineensis|Erucaria microcarpa|Escherichia coli|Etlingera elatior|Eucommia ulmoides|Fructus hippophae|Gallus gallus|Glycine tomentella|Gomphrena globosa|Gymnodinium nagasakiense|Haematococcus lacustris|Hamamelis virginiana|Hedgehog-shaped lip Bulbophyllum|Heterotropa|Homo sapiens|Hypoxylon rubiginosum|Jerusalem artichoke|Juglans nigra|Karenia mikimotoi|Lantana camara|Lavandula angustifolia|Leonurus heterophyllus|Leonurus japonicus|Litchi chinensis|Malus domestica|Malus pumila|Mandragora autumnalis|Mandragora officinarum|Mangifera indica|Manilkara bidentata|Medicago sativa|Melaleuca quinquenervia|Melia azedarach|Melia azedarach var. toosendan|Meliosma simplicifolia|Melissa officinalis|Mimusops elengi|Mosla chinensis|Nelumbo lutea|Nicotiana tabacum|Nicotiana undulata|Oecophylla smaragdina|Ophrys sphegodes|Oryza sativa|Panax ginseng|Panax notoginseng|Panax quinquefolium|Panax schinseng|Passiflora incarnata|Perilla frutescens|Petasites hybridus|Piper auritum|Piper longum|Piper nigrum|Pistacia vera|Plantago ovata|Plectranthus glabratus|Porphyra tenera|Pterocladiella tenuis|Quercus myrsinifolia|Rhizoprionodon acutus|Rhodiola crenulata|Rhododendron dauricum|Rosa multiflora|Rosa rugosa|Saccharomyces pastori|Salvia fruticosa|Salvia triloba|Sauromatum venosum|Saussurea involucrata|Scutellaria baicalensis|Senecio cerberoanus|Senecio paludaffinis|Senegalia catechu|Sideritis hispida|Sideritis syriaca|Sideritis taurica|Streptomyces flocculus|Tachigalia paniculata|Tagetes erecta|Terminalia chebula|Tetrapanax papyrifer|Trametes lilacinogilva|Trigonella foenum-graecum|Trigonella grandiflora|Tripolium pannonicum|Typhonium flagelliforme|Uvaria calamistrata|Vanilla madagascariensis|Vanilla planifolia|Vanilla tahitensis|Vincetoxicum glaucescens|Vincetoxicum stauntonii|Vitis rotundifolia|Xylopia sericea|Zanthoxylum bungeanum|Zanthoxylum piperitum|Zanthoxylum schinifolium|bellis perennis|potato|tomato|watermelon

>  <collections>  (1802) 
ANPDB|Australian natural products|CMAUP (cCollective molecular activities of useful plants)|ChEBI NPs|EMNPD|ETM (Ethiopian Traditional Medicine) DB|FooDB|HIT (Herbal Ingredients Targets)|KNApSaCK|Latin America dataset|NANPDB (Natural Products from Northern African Sources)|NAPRORE-CR|NPASS|NuBBEDB|Phyto4Health|Super Natural II|TCMDB-Taiwan (Traditional Chinese Medicine database)|TCMID (Traditional Chinese Medicine Integrated Database)|UNPD (Universal Natural Products Database)|Watermelon|WikiData Natural Products

>  <dois>  (1802) 
10.1002/(SICI)1099-1026(199901/02)14:1<15::AID-FFJ777>3.0.CO;2-M|10.1002/(SICI)1099-1573(199906)13:4<329::AID-PTR458>3.0.CO;2-U|10.1002/CBDV.201800531|10.1002/CJOC.201180379|10.1002/PTR.2137|10.1007/S00709-019-01372-4|10.1007/S10600-011-9905-5|10.1007/S11104-010-0583-Z|10.1007/S11306-007-0058-2|10.1007/s10600-009-9209-1|10.1016/0031-9422(90)83036-Z|10.1016/0031-9422(92)80160-G|10.1016/0031-9422(95)00183-8|10.1016/0305-1978(95)00026-Q|10.1016/J.BSE.2016.02.030|10.1016/J.CHROMA.2014.10.058|10.1016/J.FOODCHEM.2008.09.107|10.1016/J.FOODCHEM.2012.09.111|10.1016/J.INDCROP.2012.02.029|10.1016/J.INDCROP.2014.04.048|10.1016/J.PHYTOCHEM.2005.07.016|10.1016/J.RENENE.2017.12.012|10.1016/S0031-9422(00)81276-5|10.1016/S0031-9422(00)81427-2|10.1016/S0031-9422(00)88097-8|10.1016/S0031-9422(00)94756-3|10.1016/S0031-9422(82)85033-4|10.1016/S0305-1978(99)00075-7|10.1016/S0367-326X(01)00327-6|10.1016/S0367-326X(99)00057-X|10.1016/S0378-8741(01)00274-4|10.1016/S0378-8741(02)00172-1|10.1021/JF00019A020|10.1021/JF00025A025|10.1021/JF00034A033|10.1021/JF00087A036|10.1021/JF00112A014|10.1021/JF00120A031|10.1021/JF60230A021|10.1021/JF960927B|10.1021/NP50008A001|10.1021/NP50038A026|10.1021/NP50048A039|10.1021/jf00120a031|10.1038/NCHEMBIO.1476|10.1039/JR9630000677|10.1055/S-0028-1099475|10.1055/S-2006-957420|10.1055/S-2007-969591|10.1055/S-2007-969987|10.1071/bi9810115|10.1080/00021369.1989.10869813|10.1080/00021369.1990.10870456|10.1080/03235400902927246|10.1080/10412905.1991.9697919|10.1080/10412905.1991.9697932|10.1080/10412905.1992.9698080|10.1080/10412905.1992.9698128|10.1080/10412905.1993.9698191|10.1080/10412905.1993.9698226|10.1080/10412905.1994.9698418|10.1080/10412905.1994.9698425|10.1080/10412905.1995.9698558|10.1080/10412905.1997.9700727|10.1080/10412905.2010.9700389|10.1096/fj.06-6927com|10.1128/AEM.00362-14|10.1155/2017/7436259|10.1186/S12936-016-1386-3|10.1186/s12936-016-1386-3|10.1271/BBB.57.1350|10.1271/BBB1961.47.483|10.1271/BBB1961.49.3145|10.1271/BBB1961.50.205|10.1271/BBB1961.51.1449|10.1271/BBB1961.54.3335|10.1300/J044V05N02_05|10.1515/ZNC-1984-7-802|10.1515/ZNC-1984-7-803|10.1631/JZUS.B1200086|10.21608/ZJPS.1997.169710|10.3390/MOLECULES18010963|10.3724/SP.J.1238.2012.00106|10.4103/0974-8490.112421

>  <synonyms>  (1802) 
4-01-00-00537 (Beilstein Handbook Reference)|5166841B-BF92-4A7D-8CEF-0B01B374ED0E|544-76-3|A830206|AI3-06522|AKOS025212855|AS-56424|BRN 1736592|CAS-544-76-3|CCRIS 5833|CH3-(CH2)14-CH3|CH3-[CH2]14-CH3|CHEBI:45296|CHEMBL134994|CNS|CS-0152222|Cetane|D97389|DB-052582|DTXCID607195|DTXSID0027195|EC 208-878-9|EINECS 208-878-9|F8Z00SHP6Q|H0066|HEXADECANE [HSDB]|HEXADECANE [INCI]|HEXADECANE, N-|HSDB 6854|Hexadecane solution|Hexadecane, >=99%|Hexadecane, ReagentPlus(R), 99%|Hexadecane, Vetec(TM) reagent grade, 98%|Hexadecane, analytical standard|Hexadecane, anhydrous, >=99%|Hexadecane, p.a., 99%|Hexadecane, purum, >=98.0% (GC)|Hexadecane-1-D  98 atom % d|Hexadecane; Cetane; NSC 7334; S 6 (alkane); n-Cetane; n-Hexadecane|Hexadecane_RamanathanGurudeeban|Hexadekan|InChI=1\/C16H34\/c1-3-5-7-9-11-13-15-16-14-12-10-8-6-4-2\/h3-16H2,1-2H|LMFA11000577|MFCD00008998|NCGC00164132-01|NCGC00254306-01|NS00009955|NSC 7334|NSC-7334|PARAFOL 16-97|Pentadecane, methyl-|Q150843|QSPL 025|QSPL 078|QSPL 116|S0288|STL453674|SY010655|Tox21_300485|UNII-F8Z00SHP6Q|Zetan|hexadecan|n-Cetane|n-Hexadecane|n-Hexadecane 10 microg\/mL in Acetone

>  <cas>  (1802) 
544-76-3

$$$$

     RDKit          2D

 35 39  0  0  0  0  0  0  0  0999 V2000
  -11.0098    0.8670    0.0000 O   0  0  0  0  0  0  0  0  0  0  0  0
   -9.5429    0.5535    0.0000 C   0  0  0  0  0  0  0  0  0  0  0  0
   -8.5380    1.6671    0.0000 C   0  0  0  0  0  0  0  0  0  0  0  0
   -7.0711    1.3536    0.0000 C   0  0  0  0  0  0  0  0  0  0  0  0
   -6.6092   -0.0735    0.0000 C   0  0  0  0  0  0  0  0  0  0  0  0
   -5.1423   -0.3870    0.0000 C   0  0  0  0  0  0  0  0  0  0  0  0
   -4.1374    0.7266    0.0000 C   0  0  0  0  0  0  0  0  0  0  0  0
   -2.6705    0.4131    0.0000 C   0  0  0  0  0  0  0  0  0  0  0  0
   -2.2086   -1.0140    0.0000 C   0  0  0  0  0  0  0  0  0  0  0  0
   -0.7417   -1.3275    0.0000 C   0  0  0  0  0  0  0  0  0  0  0  0
   -0.2798   -2.7546    0.0000 O   0  0  0  0  0  0  0  0  0  0  0  0
    0.2633   -0.2139    0.0000 C   0  0  0  0  0  0  0  0  0  0  0  0
   -0.1987    1.2132    0.0000 C   0  0  0  0  0  0  0  0  0  0  0  0
   -1.6655    1.5267    0.0000 C   0  0  0  0  0  0  0  0  0  0  0  0
    1.0158    2.0935    0.0000 O   0  0  0  0  0  0  0  0  0  0  0  0
    2.2284    1.2105    0.0000 C   0  0  0  0  0  0  0  0  0  0  0  0
    3.6555    1.6724    0.0000 C   0  0  0  0  0  0  0  0  0  0  0  0
    4.7691    0.6674    0.0000 C   0  0  0  0  0  0  0  0  0  0  0  0
    6.1962    1.1294    0.0000 C   0  0  0  0  0  0  0  0  0  0  0  0
    6.5097    2.5962    0.0000 C   0  0  0  0  0  0  0  0  0  0  0  0
    7.9368    3.0582    0.0000 O   0  0  0  0  0  0  0  0  0  0  0  0
    5.3961    3.6012    0.0000 C   0  0  0  0  0  0  0  0  0  0  0  0
    3.9690    3.1392    0.0000 C   0  0  0  0  0  0  0  0  0  0  0  0
    2.8554    4.1442    0.0000 O   0  0  0  0  0  0  0  0  0  0  0  0
    1.7633   -0.2156    0.0000 C   0  0  0  0  0  0  0  0  0  0  0  0
    2.6436   -1.4301    0.0000 C   0  0  0  0  0  0  0  0  0  0  0  0
    2.0319   -2.7998    0.0000 C   0  0  0  0  0  0  0  0  0  0  0  0
    2.9123   -4.0143    0.0000 C   0  0  0  0  0  0  0  0  0  0  0  0
    2.3006   -5.3839    0.0000 O   0  0  0  0  0  0  0  0  0  0  0  0
    4.4042   -3.8592    0.0000 C   0  0  0  0  0  0  0  0  0  0  0  0
    5.0159   -2.4895    0.0000 C   0  0  0  0  0  0  0  0  0  0  0  0
    6.5078   -2.3344    0.0000 O   0  0  0  0  0  0  0  0  0  0  0  0
    4.1355   -1.2750    0.0000 C   0  0  0  0  0  0  0  0  0  0  0  0
   -7.6141   -1.1871    0.0000 C   0  0  0  0  0  0  0  0  0  0  0  0
   -9.0810   -0.8736    0.0000 C   0  0  0  0  0  0  0  0  0  0  0  0
  1  2  1  0
  2  3  2  0
  3  4  1  0
  4  5  2  0
  5  6  1  0
  6  7  2  0
  7  8  1  0
  8  9  2  0
  9 10  1  0
 10 11  1  0
 10 12  2  0
 12 13  1  0
 13 14  2  0
 13 15  1  0
 15 16  1  0
 16 17  1  6
 17 18  2  0
 18 19  1  0
 19 20  2  0
 20 21  1  0
 20 22  1  0
 22 23  2  0
 23 24  1  0
 16 25  1  0
 25 26  1  1
 26 27  2  0
 27 28  1  0
 28 29  1  0
 28 30  2  0
 30 31  1  0
 31 32  1  0
 31 33  2  0
  5 34  1  0
 34 35  2  0
 35  2  1  0
 14  8  1  0
 23 17  1  0
 33 26  1  0
 25 12  1  0
M  END
>  <identifier>  (1803) 
CNP0156611.2

>  <canonical_smiles>  (1803) 
OC1=CC=C(/C=C/C2=CC(O)=C3C(=C2)O[C@H](C2=CC=C(O)C=C2O)[C@H]3C2=CC(O)=CC(O)=C2)C=C1

>  <standard_inchi>  (1803) 
InChI=1S/C28H22O7/c29-18-5-3-15(4-6-18)1-2-16-9-24(34)27-25(10-16)35-28(22-8-7-19(30)14-23(22)33)26(27)17-11-20(31)13-21(32)12-17/h1-14,26,28-34H/b2-1+/t26-,28+/m0/s1

>  <standard_inchi_key>  (1803) 
SEFNUEXMMDHMHO-PDCCCBJGSA-N

>  <name>  (1803) 
AKOS040759439

>  <iupac_name>  (1803) 
4-[(2~{S},3~{S})-3-(3,5-dihydroxyphenyl)-4-hydroxy-6-[(~{E})-2-(4-hydroxyphenyl)vinyl]-2,3-dihydrobenzofuran-2-yl]benzene-1,3-diol

>  <annotation_level>  (1803) 
5

>  <total_atom_count>  (1803) 
57

>  <heavy_atom_count>  (1803) 
35

>  <molecular_weight>  (1803) 
470.48

>  <exact_molecular_weight>  (1803) 
470.13655

>  <molecular_formula>  (1803) 
C28H22O7

>  <alogp>  (1803) 
5.36

>  <topological_polar_surface_area>  (1803) 
130.61

>  <rotatable_bond_count>  (1803) 
4

>  <hydrogen_bond_acceptors>  (1803) 
7

>  <hydrogen_bond_donors>  (1803) 
6

>  <hydrogen_bond_acceptors_lipinski>  (1803) 
7

>  <hydrogen_bond_donors_lipinski>  (1803) 
6

>  <lipinski_rule_of_five_violations>  (1803) 
2

>  <aromatic_rings_count>  (1803) 
4

>  <qed_drug_likeliness>  (1803) 
0.22

>  <formal_charge>  (1803) 
0

>  <fractioncsp3>  (1803) 
0.07

>  <number_of_minimal_rings>  (1803) 
5

>  <van_der_walls_volume>  (1803) 
nan

>  <contains_sugar>  (1803) 
False

>  <contains_ring_sugars>  (1803) 
False

>  <contains_linear_sugars>  (1803) 
False

>  <murcko_framework>  (1803) 
O1c2cc(C=Cc3ccccc3)ccc2C(c4ccccc4)C1c5ccccc5

>  <np_likeness>  (1803) 
1.40

>  <chemical_class>  (1803) 
2-arylbenzofuran flavonoids

>  <chemical_sub_class>  (1803) 
2-arylbenzofuran flavonoids

>  <chemical_super_class>  (1803) 
Phenylpropanoids and polyketides

>  <direct_parent_classification>  (1803) 
2-arylbenzofuran flavonoids

>  <np_classifier_pathway>  (1803) 
Shikimates and Phenylpropanoids

>  <np_classifier_superclass>  (1803) 
Stilbenoids

>  <np_classifier_class>  (1803) 
Oligomeric stibenes

>  <np_classifier_is_glycoside>  (1803) 
False

>  <organisms>  (1803) 
Gnetum Latifolium|Gnetum gnemon|Gnetum gnemonoides|Gnetum latifolium|Gnetum leybodii|Gnetum leyboldii|Spirotropis longifolia

>  <collections>  (1803) 
Latin America dataset|NPEdia|NuBBEDB|Super Natural II|VietHerb|WikiData Natural Products|ZINC NP

>  <dois>  (1803) 
10.1016/J.PHYTOCHEM.2011.10.011|10.1016/S0031-9422(02)00289-3|10.1021/NP50024A022|10.1021/np50024a022|10.3987/COM-01-9317

>  <synonyms>  (1803) 
Gnetin D|Gnetin-D

>  <cas>  (1803) 
nan

$$$$

     RDKit          2D

 23 26  0  0  0  0  0  0  0  0999 V2000
   -7.9723    0.1883    0.0000 C   0  0  0  0  0  0  0  0  0  0  0  0
   -6.7543   -0.6872    0.0000 O   0  0  0  0  0  0  0  0  0  0  0  0
   -5.3871   -0.0702    0.0000 C   0  0  0  0  0  0  0  0  0  0  0  0
   -5.2378    1.4224    0.0000 C   0  0  0  0  0  0  0  0  0  0  0  0
   -3.8706    2.0394    0.0000 C   0  0  0  0  0  0  0  0  0  0  0  0
   -2.6526    1.1638    0.0000 C   0  0  0  0  0  0  0  0  0  0  0  0
   -1.1870    1.4831    0.0000 N   0  0  0  0  0  0  0  0  0  0  0  0
   -0.4305    0.1878    0.0000 C   0  0  0  0  0  0  0  0  0  0  0  0
    1.0383   -0.1166    0.0000 C   0  0  0  0  0  0  0  0  0  0  0  0
    2.0364    1.0031    0.0000 C   0  0  0  0  0  0  0  0  0  0  0  0
    3.5051    0.6986    0.0000 C   0  0  0  0  0  0  0  0  0  0  0  0
    3.9759   -0.7256    0.0000 C   0  0  0  0  0  0  0  0  0  0  0  0
    5.4446   -1.0301    0.0000 C   0  0  0  0  0  0  0  0  0  0  0  0
    6.4427    0.0897    0.0000 C   0  0  0  0  0  0  0  0  0  0  0  0
    7.9115   -0.2148    0.0000 O   0  0  0  0  0  0  0  0  0  0  0  0
    5.9720    1.5139    0.0000 C   0  0  0  0  0  0  0  0  0  0  0  0
    4.5032    1.8184    0.0000 C   0  0  0  0  0  0  0  0  0  0  0  0
    1.5090   -1.5409    0.0000 N   0  0  0  0  0  0  0  0  0  0  0  0
    0.5109   -2.6606    0.0000 C   0  0  0  0  0  0  0  0  0  0  0  0
   -0.9578   -2.3562    0.0000 C   0  0  0  0  0  0  0  0  0  0  0  0
   -1.4285   -0.9319    0.0000 C   0  0  0  0  0  0  0  0  0  0  0  0
   -2.8019   -0.3287    0.0000 C   0  0  0  0  0  0  0  0  0  0  0  0
   -4.1691   -0.9458    0.0000 C   0  0  0  0  0  0  0  0  0  0  0  0
  1  2  1  0
  2  3  1  0
  3  4  2  0
  4  5  1  0
  5  6  2  0
  6  7  1  0
  7  8  1  0
  8  9  2  0
  9 10  1  0
 10 11  1  0
 11 12  2  0
 12 13  1  0
 13 14  2  0
 14 15  1  0
 14 16  1  0
 16 17  2  0
  9 18  1  0
 18 19  2  0
 19 20  1  0
 20 21  2  0
 21 22  1  0
 22 23  2  0
 23  3  1  0
 22  6  1  0
 21  8  1  0
 17 11  1  0
M  END
>  <identifier>  (1804) 
CNP0196012.0

>  <canonical_smiles>  (1804) 
COC1=CC=C2NC3=C(CC4=CC=C(O)C=C4)N=CC=C3C2=C1

>  <standard_inchi>  (1804) 
InChI=1S/C19H16N2O2/c1-23-14-6-7-17-16(11-14)15-8-9-20-18(19(15)21-17)10-12-2-4-13(22)5-3-12/h2-9,11,21-22H,10H2,1H3

>  <standard_inchi_key>  (1804) 
BHOQLEQHXKFSAO-UHFFFAOYSA-N

>  <name>  (1804) 
Ceceline

>  <iupac_name>  (1804) 
4-[(6-methoxy-9~{H}-pyrido[3,4-b]indol-1-yl)methyl]phenol

>  <annotation_level>  (1804) 
5

>  <total_atom_count>  (1804) 
39

>  <heavy_atom_count>  (1804) 
23

>  <molecular_weight>  (1804) 
304.35

>  <exact_molecular_weight>  (1804) 
304.12118

>  <molecular_formula>  (1804) 
C19H16N2O2

>  <alogp>  (1804) 
4.02

>  <topological_polar_surface_area>  (1804) 
58.14

>  <rotatable_bond_count>  (1804) 
3

>  <hydrogen_bond_acceptors>  (1804) 
3

>  <hydrogen_bond_donors>  (1804) 
2

>  <hydrogen_bond_acceptors_lipinski>  (1804) 
3

>  <hydrogen_bond_donors_lipinski>  (1804) 
2

>  <lipinski_rule_of_five_violations>  (1804) 
0

>  <aromatic_rings_count>  (1804) 
4

>  <qed_drug_likeliness>  (1804) 
0.60

>  <formal_charge>  (1804) 
0

>  <fractioncsp3>  (1804) 
0.11

>  <number_of_minimal_rings>  (1804) 
4

>  <van_der_walls_volume>  (1804) 
272.84

>  <contains_sugar>  (1804) 
False

>  <contains_ring_sugars>  (1804) 
False

>  <contains_linear_sugars>  (1804) 
False

>  <murcko_framework>  (1804) 
n1ccc2c3ccccc3[nH]c2c1Cc4ccccc4

>  <np_likeness>  (1804) 
0.41

>  <chemical_class>  (1804) 
Harmala alkaloids

>  <chemical_sub_class>  (1804) 
Harmala alkaloids

>  <chemical_super_class>  (1804) 
Alkaloids and derivatives

>  <direct_parent_classification>  (1804) 
Harmala alkaloids

>  <np_classifier_pathway>  (1804) 
Alkaloids

>  <np_classifier_superclass>  (1804) 
Tryptophan alkaloids

>  <np_classifier_class>  (1804) 
Carboline alkaloids

>  <np_classifier_is_glycoside>  (1804) 
False

>  <organisms>  (1804) 
Aniba santalodora

>  <collections>  (1804) 
ChEBI NPs|KNApSaCK|Latin America dataset|NPEdia|NuBBEDB|UNPD (Universal Natural Products Database)|WikiData Natural Products

>  <dois>  (1804) 
10.1016/S0031-9422(00)83834-0

>  <synonyms>  (1804) 
4-[(6-methoxy-9H-pyrido[3,4-b]indol-1-yl)methyl]phenol|76525-09-2|AC1NQYED|C09130|CHEBI:3477|Caceline|DTXSID20415112|Q27106101

>  <cas>  (1804) 
76525-09-2

$$$$

     RDKit          2D

 21 23  0  0  0  0  0  0  0  0999 V2000
   -6.9452    1.6079    0.0000 C   0  0  0  0  0  0  0  0  0  0  0  0
   -6.3968    0.2117    0.0000 O   0  0  0  0  0  0  0  0  0  0  0  0
   -4.9135   -0.0114    0.0000 C   0  0  0  0  0  0  0  0  0  0  0  0
   -3.9786    1.1616    0.0000 C   0  0  0  0  0  0  0  0  0  0  0  0
   -2.4953    0.9384    0.0000 C   0  0  0  0  0  0  0  0  0  0  0  0
   -1.9469   -0.4578    0.0000 C   0  0  0  0  0  0  0  0  0  0  0  0
   -0.4636   -0.6809    0.0000 C   0  0  0  0  0  0  0  0  0  0  0  0
    0.0848   -2.0771    0.0000 C   0  0  0  0  0  0  0  0  0  0  0  0
    1.5681   -2.3002    0.0000 O   0  0  0  0  0  0  0  0  0  0  0  0
    2.5030   -1.1272    0.0000 C   0  0  0  0  0  0  0  0  0  0  0  0
    3.9863   -1.3504    0.0000 C   0  0  0  0  0  0  0  0  0  0  0  0
    4.9212   -0.1774    0.0000 C   0  0  0  0  0  0  0  0  0  0  0  0
    6.4045   -0.4005    0.0000 O   0  0  0  0  0  0  0  0  0  0  0  0
    4.3728    1.2188    0.0000 C   0  0  0  0  0  0  0  0  0  0  0  0
    5.3078    2.3918    0.0000 O   0  0  0  0  0  0  0  0  0  0  0  0
    2.8895    1.4419    0.0000 C   0  0  0  0  0  0  0  0  0  0  0  0
    1.9546    0.2689    0.0000 C   0  0  0  0  0  0  0  0  0  0  0  0
    0.4713    0.4921    0.0000 C   0  0  0  0  0  0  0  0  0  0  0  0
   -0.0771    1.8882    0.0000 O   0  0  0  0  0  0  0  0  0  0  0  0
   -2.8818   -1.6308    0.0000 C   0  0  0  0  0  0  0  0  0  0  0  0
   -4.3651   -1.4076    0.0000 C   0  0  0  0  0  0  0  0  0  0  0  0
  1  2  1  0
  2  3  1  0
  3  4  2  0
  4  5  1  0
  5  6  2  0
  6  7  1  0
  7  8  2  0
  8  9  1  0
  9 10  1  0
 10 11  2  0
 11 12  1  0
 12 13  1  0
 12 14  2  0
 14 15  1  0
 14 16  1  0
 16 17  2  0
 17 18  1  0
 18 19  2  0
  6 20  1  0
 20 21  2  0
 21  3  1  0
 18  7  1  0
 17 10  1  0
M  END
>  <identifier>  (1805) 
CNP0301466.0

>  <canonical_smiles>  (1805) 
COC1=CC=C(C2=COC3=CC(O)=C(O)C=C3C2=O)C=C1

>  <standard_inchi>  (1805) 
InChI=1S/C16H12O5/c1-20-10-4-2-9(3-5-10)12-8-21-15-7-14(18)13(17)6-11(15)16(12)19/h2-8,17-18H,1H3

>  <standard_inchi_key>  (1805) 
GCWOYVFHJDNKIN-UHFFFAOYSA-N

>  <name>  (1805) 
Texasin

>  <iupac_name>  (1805) 
6,7-dihydroxy-3-(4-methoxyphenyl)chromen-4-one

>  <annotation_level>  (1805) 
5

>  <total_atom_count>  (1805) 
33

>  <heavy_atom_count>  (1805) 
21

>  <molecular_weight>  (1805) 
284.27

>  <exact_molecular_weight>  (1805) 
284.06847

>  <molecular_formula>  (1805) 
C16H12O5

>  <alogp>  (1805) 
2.88

>  <topological_polar_surface_area>  (1805) 
79.90

>  <rotatable_bond_count>  (1805) 
2

>  <hydrogen_bond_acceptors>  (1805) 
5

>  <hydrogen_bond_donors>  (1805) 
2

>  <hydrogen_bond_acceptors_lipinski>  (1805) 
5

>  <hydrogen_bond_donors_lipinski>  (1805) 
2

>  <lipinski_rule_of_five_violations>  (1805) 
0

>  <aromatic_rings_count>  (1805) 
3

>  <qed_drug_likeliness>  (1805) 
0.71

>  <formal_charge>  (1805) 
0

>  <fractioncsp3>  (1805) 
0.06

>  <number_of_minimal_rings>  (1805) 
3

>  <van_der_walls_volume>  (1805) 
239.98

>  <contains_sugar>  (1805) 
False

>  <contains_ring_sugars>  (1805) 
False

>  <contains_linear_sugars>  (1805) 
False

>  <murcko_framework>  (1805) 
O1C=C(c2ccccc2)Cc3ccccc13

>  <np_likeness>  (1805) 
0.71

>  <chemical_class>  (1805) 
Isoflavonoids

>  <chemical_sub_class>  (1805) 
Isoflav-2-enes

>  <chemical_super_class>  (1805) 
Phenylpropanoids and polyketides

>  <direct_parent_classification>  (1805) 
Isoflavones

>  <np_classifier_pathway>  (1805) 
Shikimates and Phenylpropanoids

>  <np_classifier_superclass>  (1805) 
Isoflavonoids

>  <np_classifier_class>  (1805) 
Isoflavones

>  <np_classifier_is_glycoside>  (1805) 
False

>  <organisms>  (1805) 
Baptisia australis|Baptisia leucantha|Glycyrrhiza glabra|Glycyrrhiza inflata|Glycyrrhiza uralensis|Myroxylon peruiferum|Platymiscium praecox|Trifolium pratense

>  <collections>  (1805) 
CMAUP (cCollective molecular activities of useful plants)|ChEBI NPs|HIM (Herbal Ingredients in-vivo Metabolism database)|KNApSaCK|Latin America dataset|NPASS|NPEdia|NuBBEDB|Phyto4Health|Specs Natural Products|Super Natural II|UNPD (Universal Natural Products Database)|WikiData Natural Products|ZINC NP

>  <dois>  (1805) 
10.1016/S0003-2670(01)01370-8|10.1016/S0031-9422(00)85740-4|10.1016/S0031-9422(00)89849-0

>  <synonyms>  (1805) 
4H-1-Benzopyran-4-one, 6,7-dihydroxy-3-(4-methoxyphenyl)-|6,7-DIHYDROXY-3-(4-METHOXYPHENYL)-4H-1-BENZOPYRAN-4-ONE|6,7-Dihydroxy-3-(4-methoxyphenyl)-4-benzopyrone|6,7-Dihydroxy-4'-methoxyisoflavone|6,7-dihydroxy-3-(4-methoxyphenyl)chromen-4-one|67-dihydroxy-4'-methoxyisoflavone, texasin|897-46-1|AC-31488|AKOS027381682|BDBM50222287|CHEBI:9507|CHEMBL239028|CS-0078074|DTXSID10237860|EINECS 212-980-9|FORMONETIN|HY-119822|LMPK12050101|MMX87X8ZF3|Q27108415|SCHEMBL4728656|Texasin|UNII-MMX87X8ZF3

>  <cas>  (1805) 
897-46-1

$$$$

     RDKit          2D

 18 18  0  0  0  0  0  0  0  0999 V2000
   -6.8750    0.5638    0.0000 C   0  0  0  0  0  0  0  0  0  0  0  0
   -5.4252    0.9488    0.0000 O   0  0  0  0  0  0  0  0  0  0  0  0
   -4.3670   -0.1143    0.0000 C   0  0  0  0  0  0  0  0  0  0  0  0
   -4.7584   -1.5623    0.0000 O   0  0  0  0  0  0  0  0  0  0  0  0
   -2.9172    0.2707    0.0000 C   0  0  0  0  0  0  0  0  0  0  0  0
   -1.8589   -0.7923    0.0000 C   0  0  0  0  0  0  0  0  0  0  0  0
   -0.4092   -0.4073    0.0000 C   0  0  0  0  0  0  0  0  0  0  0  0
   -0.0177    1.0407    0.0000 C   0  0  0  0  0  0  0  0  0  0  0  0
    1.4321    1.4257    0.0000 C   0  0  0  0  0  0  0  0  0  0  0  0
    1.8235    2.8737    0.0000 O   0  0  0  0  0  0  0  0  0  0  0  0
    3.2733    3.2587    0.0000 C   0  0  0  0  0  0  0  0  0  0  0  0
    2.4903    0.3626    0.0000 C   0  0  0  0  0  0  0  0  0  0  0  0
    3.9401    0.7476    0.0000 O   0  0  0  0  0  0  0  0  0  0  0  0
    4.9984   -0.3154    0.0000 C   0  0  0  0  0  0  0  0  0  0  0  0
    2.0989   -1.0854    0.0000 C   0  0  0  0  0  0  0  0  0  0  0  0
    3.1572   -2.1484    0.0000 O   0  0  0  0  0  0  0  0  0  0  0  0
    2.7657   -3.5964    0.0000 C   0  0  0  0  0  0  0  0  0  0  0  0
    0.6491   -1.4704    0.0000 C   0  0  0  0  0  0  0  0  0  0  0  0
  1  2  1  0
  2  3  1  0
  3  4  2  0
  3  5  1  0
  5  6  2  0
  6  7  1  0
  7  8  2  0
  8  9  1  0
  9 10  1  0
 10 11  1  0
  9 12  2  0
 12 13  1  0
 13 14  1  0
 12 15  1  0
 15 16  1  0
 16 17  1  0
 15 18  2  0
 18  7  1  0
M  END
>  <identifier>  (1806) 
CNP0232168.1

>  <canonical_smiles>  (1806) 
COC(=O)/C=C/C1=CC(OC)=C(OC)C(OC)=C1

>  <standard_inchi>  (1806) 
InChI=1S/C13H16O5/c1-15-10-7-9(5-6-12(14)17-3)8-11(16-2)13(10)18-4/h5-8H,1-4H3/b6-5+

>  <standard_inchi_key>  (1806) 
KLXHCGFNNUQTEY-AATRIKPKSA-N

>  <name>  (1806) 
nan

>  <iupac_name>  (1806) 
nan

>  <annotation_level>  (1806) 
0

>  <total_atom_count>  (1806) 
34

>  <heavy_atom_count>  (1806) 
18

>  <molecular_weight>  (1806) 
252.27

>  <exact_molecular_weight>  (1806) 
252.09977

>  <molecular_formula>  (1806) 
C13H16O5

>  <alogp>  (1806) 
1.90

>  <topological_polar_surface_area>  (1806) 
53.99

>  <rotatable_bond_count>  (1806) 
5

>  <hydrogen_bond_acceptors>  (1806) 
5

>  <hydrogen_bond_donors>  (1806) 
0

>  <hydrogen_bond_acceptors_lipinski>  (1806) 
5

>  <hydrogen_bond_donors_lipinski>  (1806) 
0

>  <lipinski_rule_of_five_violations>  (1806) 
0

>  <aromatic_rings_count>  (1806) 
1

>  <qed_drug_likeliness>  (1806) 
0.59

>  <formal_charge>  (1806) 
0

>  <fractioncsp3>  (1806) 
0.31

>  <number_of_minimal_rings>  (1806) 
1

>  <van_der_walls_volume>  (1806) 
232.84

>  <contains_sugar>  (1806) 
False

>  <contains_ring_sugars>  (1806) 
False

>  <contains_linear_sugars>  (1806) 
False

>  <murcko_framework>  (1806) 
c1ccccc1

>  <np_likeness>  (1806) 
0.53

>  <chemical_class>  (1806) 
nan

>  <chemical_sub_class>  (1806) 
nan

>  <chemical_super_class>  (1806) 
nan

>  <direct_parent_classification>  (1806) 
nan

>  <np_classifier_pathway>  (1806) 
Shikimates and Phenylpropanoids

>  <np_classifier_superclass>  (1806) 
Phenylpropanoids (C6-C3)

>  <np_classifier_class>  (1806) 
Cinnamic acids and derivatives

>  <np_classifier_is_glycoside>  (1806) 
False

>  <organisms>  (1806) 
Aragoa lucidula|Atractylodes lancea|Cephalaria gigantea|Couroupita guianensis|Curcuma zedoaria|Ganoderma capense|Goniodoma pseudogoniaulax|Hedysarum polybotrys|Melampyrum elatius|Oyedaea buphthalmoides|Peperomia oreophila|Piper arborescens|Piper bantamense|Piper caninum|Piper lanatum|Piper longum|Piper macropiper|Piper miniatum|Piper swartzianum|Piper tuberculatum|Polygonum aubertii|Streptomyces mediolani|Streptomyces nashvillensis

>  <collections>  (1806) 
AnalytiCon Discovery NPs|CMAUP (cCollective molecular activities of useful plants)|ChemSpider NPs|FooDB|GNPS (Global Natural Products Social Molecular Networking)|Latin America dataset|NPASS|NuBBEDB|Super Natural II|TIPdb (database of Taiwan indigenous plants)|WikiData Natural Products

>  <dois>  (1806) 
10.1007/S00044-008-9161-9|10.1007/s00044-008-9161-9|10.1016/S0031-9422(01)00431-9|10.1055/S-0028-1097783|10.1055/S-2005-864155|10.1248/CPB.32.3267|10.1590/S0103-50532012000400025

>  <synonyms>  (1806) 
nan

>  <cas>  (1806) 
20329-96-8

$$$$

     RDKit          2D

 13 14  0  0  0  0  0  0  0  0999 V2000
    5.7884   -0.4662    0.0000 O   0  0  0  0  0  0  0  0  0  0  0  0
    4.6160    0.4694    0.0000 C   0  0  0  0  0  0  0  0  0  0  0  0
    3.2194   -0.0781    0.0000 C   0  0  0  0  0  0  0  0  0  0  0  0
    2.0470    0.8576    0.0000 C   0  0  0  0  0  0  0  0  0  0  0  0
    0.6505    0.3101    0.0000 C   0  0  0  0  0  0  0  0  0  0  0  0
    0.4264   -1.1730    0.0000 C   0  0  0  0  0  0  0  0  0  0  0  0
   -0.9701   -1.7205    0.0000 C   0  0  0  0  0  0  0  0  0  0  0  0
   -2.1425   -0.7848    0.0000 C   0  0  0  0  0  0  0  0  0  0  0  0
   -3.6223   -1.0300    0.0000 O   0  0  0  0  0  0  0  0  0  0  0  0
   -4.3128    0.3016    0.0000 C   0  0  0  0  0  0  0  0  0  0  0  0
   -3.2597    1.3698    0.0000 O   0  0  0  0  0  0  0  0  0  0  0  0
   -1.9184    0.6983    0.0000 C   0  0  0  0  0  0  0  0  0  0  0  0
   -0.5219    1.2458    0.0000 C   0  0  0  0  0  0  0  0  0  0  0  0
  1  2  2  0
  2  3  1  0
  3  4  2  0
  4  5  1  0
  5  6  2  0
  6  7  1  0
  7  8  2  0
  8  9  1  0
  9 10  1  0
 10 11  1  0
 11 12  1  0
 12 13  2  0
 13  5  1  0
 12  8  1  0
M  END
>  <identifier>  (1807) 
CNP0233065.1

>  <canonical_smiles>  (1807) 
O=C/C=C/C1=CC=C2OCOC2=C1

>  <standard_inchi>  (1807) 
InChI=1S/C10H8O3/c11-5-1-2-8-3-4-9-10(6-8)13-7-12-9/h1-6H,7H2/b2-1+

>  <standard_inchi_key>  (1807) 
HZUFMSJUNLSDSZ-OWOJBTEDSA-N

>  <name>  (1807) 
nan

>  <iupac_name>  (1807) 
nan

>  <annotation_level>  (1807) 
0

>  <total_atom_count>  (1807) 
21

>  <heavy_atom_count>  (1807) 
13

>  <molecular_weight>  (1807) 
176.17

>  <exact_molecular_weight>  (1807) 
176.04734

>  <molecular_formula>  (1807) 
C10H8O3

>  <alogp>  (1807) 
1.63

>  <topological_polar_surface_area>  (1807) 
35.53

>  <rotatable_bond_count>  (1807) 
2

>  <hydrogen_bond_acceptors>  (1807) 
3

>  <hydrogen_bond_donors>  (1807) 
0

>  <hydrogen_bond_acceptors_lipinski>  (1807) 
3

>  <hydrogen_bond_donors_lipinski>  (1807) 
0

>  <lipinski_rule_of_five_violations>  (1807) 
0

>  <aromatic_rings_count>  (1807) 
1

>  <qed_drug_likeliness>  (1807) 
0.51

>  <formal_charge>  (1807) 
0

>  <fractioncsp3>  (1807) 
0.10

>  <number_of_minimal_rings>  (1807) 
2

>  <van_der_walls_volume>  (1807) 
154.93

>  <contains_sugar>  (1807) 
False

>  <contains_ring_sugars>  (1807) 
False

>  <contains_linear_sugars>  (1807) 
False

>  <murcko_framework>  (1807) 
O1c2ccccc2OC1

>  <np_likeness>  (1807) 
0.91

>  <chemical_class>  (1807) 
nan

>  <chemical_sub_class>  (1807) 
nan

>  <chemical_super_class>  (1807) 
nan

>  <direct_parent_classification>  (1807) 
nan

>  <np_classifier_pathway>  (1807) 
Shikimates and Phenylpropanoids

>  <np_classifier_superclass>  (1807) 
nan

>  <np_classifier_class>  (1807) 
nan

>  <np_classifier_is_glycoside>  (1807) 
False

>  <organisms>  (1807) 
Aspergillus pseudodeflectus|Asplenium adiantum-nigrum|Brombya platynema|Distemonanthus benthamianus|Licaria puchury-major|Macrosiphum liriodendri|Piper philippinum|Sassafras albidum

>  <collections>  (1807) 
Australian natural products|CMAUP (cCollective molecular activities of useful plants)|ChemSpider NPs|KNApSaCK|Latin America dataset|NPASS|NuBBEDB|Super Natural II|TIPdb (database of Taiwan indigenous plants)|WikiData Natural Products|ZINC NP

>  <dois>  (1807) 
10.1016/0031-9422(73)80047-0|10.1016/0031-9422(93)85543-Z|10.1016/0031-9422(93)85543-z|10.1016/J.PHYTOCHEM.2007.05.003

>  <synonyms>  (1807) 
nan

>  <cas>  (1807) 
nan

$$$$

     RDKit          2D

 35 36  0  0  0  0  0  0  0  0999 V2000
   -9.7058    3.5281    0.0000 C   0  0  0  0  0  0  0  0  0  0  0  0
   -8.6573    2.4555    0.0000 C   0  0  0  0  0  0  0  0  0  0  0  0
   -7.2041    2.8272    0.0000 O   0  0  0  0  0  0  0  0  0  0  0  0
   -9.0619    1.0111    0.0000 O   0  0  0  0  0  0  0  0  0  0  0  0
   -8.0133   -0.0615    0.0000 C   0  0  0  0  0  0  0  0  0  0  0  0
   -6.5601    0.3102    0.0000 C   0  0  0  0  0  0  0  0  0  0  0  0
   -5.5116   -0.7624    0.0000 C   0  0  0  0  0  0  0  0  0  0  0  0
   -4.0584   -0.3906    0.0000 C   0  0  0  0  0  0  0  0  0  0  0  0
   -3.6537    1.0538    0.0000 C   0  0  0  0  0  0  0  0  0  0  0  0
   -2.2005    1.4255    0.0000 C   0  0  0  0  0  0  0  0  0  0  0  0
   -1.7959    2.8699    0.0000 C   0  0  0  0  0  0  0  0  0  0  0  0
   -2.8445    3.9426    0.0000 C   0  0  0  0  0  0  0  0  0  0  0  0
   -0.3427    3.2417    0.0000 C   0  0  0  0  0  0  0  0  0  0  0  0
    0.7058    2.1691    0.0000 C   0  0  0  0  0  0  0  0  0  0  0  0
    2.1590    2.5409    0.0000 C   0  0  0  0  0  0  0  0  0  0  0  0
    3.2076    1.4682    0.0000 C   0  0  0  0  0  0  0  0  0  0  0  0
    2.8030    0.0238    0.0000 C   0  0  0  0  0  0  0  0  0  0  0  0
    4.6608    1.8400    0.0000 C   0  0  0  0  0  0  0  0  0  0  0  0
    5.7094    0.7674    0.0000 C   0  0  0  0  0  0  0  0  0  0  0  0
    7.1626    1.1392    0.0000 C   0  0  0  0  0  0  0  0  0  0  0  0
    8.2111    0.0665    0.0000 C   0  0  0  0  0  0  0  0  0  0  0  0
    7.8065   -1.3778    0.0000 C   0  0  0  0  0  0  0  0  0  0  0  0
    9.6643    0.4383    0.0000 C   0  0  0  0  0  0  0  0  0  0  0  0
   10.7129   -0.6343    0.0000 C   0  0  0  0  0  0  0  0  0  0  0  0
   12.1661   -0.2625    0.0000 C   0  0  0  0  0  0  0  0  0  0  0  0
   13.2147   -1.3352    0.0000 C   0  0  0  0  0  0  0  0  0  0  0  0
   14.6679   -0.9634    0.0000 C   0  0  0  0  0  0  0  0  0  0  0  0
   12.8100   -2.7795    0.0000 C   0  0  0  0  0  0  0  0  0  0  0  0
   -5.9162   -2.2068    0.0000 C   0  0  0  0  0  0  0  0  0  0  0  0
   -5.1136   -3.4740    0.0000 O   0  0  0  0  0  0  0  0  0  0  0  0
   -6.0707   -4.6289    0.0000 C   0  0  0  0  0  0  0  0  0  0  0  0
   -5.6989   -6.0821    0.0000 O   0  0  0  0  0  0  0  0  0  0  0  0
   -7.4649   -4.0755    0.0000 C   0  0  0  0  0  0  0  0  0  0  0  0
   -7.3694   -2.5786    0.0000 C   0  0  0  0  0  0  0  0  0  0  0  0
   -8.4180   -1.5059    0.0000 C   0  0  0  0  0  0  0  0  0  0  0  0
  1  2  1  0
  2  3  2  0
  2  4  1  0
  4  5  1  0
  5  6  2  0
  6  7  1  0
  7  8  1  0
  8  9  1  0
  9 10  1  0
 10 11  2  0
 11 12  1  0
 11 13  1  0
 13 14  1  0
 14 15  1  0
 15 16  2  0
 16 17  1  0
 16 18  1  0
 18 19  1  0
 19 20  1  0
 20 21  2  0
 21 22  1  0
 21 23  1  0
 23 24  1  0
 24 25  1  0
 25 26  2  0
 26 27  1  0
 26 28  1  0
  7 29  2  0
 29 30  1  0
 30 31  1  0
 31 32  2  0
 31 33  1  0
 33 34  1  0
 34 35  2  0
 35  5  1  0
 34 29  1  0
M  END
>  <identifier>  (1808) 
CNP0080366.1

>  <canonical_smiles>  (1808) 
CC(=O)OC1=CC(CC/C=C(\C)CC/C=C(\C)CC/C=C(\C)CCC=C(C)C)=C2OC(=O)CC2=C1

>  <standard_inchi>  (1808) 
InChI=1S/C31H42O4/c1-22(2)11-7-12-23(3)13-8-14-24(4)15-9-16-25(5)17-10-18-27-19-29(34-26(6)32)20-28-21-30(33)35-31(27)28/h11,13,15,17,19-20H,7-10,12,14,16,18,21H2,1-6H3/b23-13+,24-15+,25-17+

>  <standard_inchi_key>  (1808) 
CAHNZEPESFYOFB-HBKYZHKXSA-N

>  <name>  (1808) 
nan

>  <iupac_name>  (1808) 
nan

>  <annotation_level>  (1808) 
0

>  <total_atom_count>  (1808) 
77

>  <heavy_atom_count>  (1808) 
35

>  <molecular_weight>  (1808) 
478.67

>  <exact_molecular_weight>  (1808) 
478.30831

>  <molecular_formula>  (1808) 
C31H42O4

>  <alogp>  (1808) 
8.15

>  <topological_polar_surface_area>  (1808) 
52.60

>  <rotatable_bond_count>  (1808) 
13

>  <hydrogen_bond_acceptors>  (1808) 
4

>  <hydrogen_bond_donors>  (1808) 
0

>  <hydrogen_bond_acceptors_lipinski>  (1808) 
4

>  <hydrogen_bond_donors_lipinski>  (1808) 
0

>  <lipinski_rule_of_five_violations>  (1808) 
1

>  <aromatic_rings_count>  (1808) 
1

>  <qed_drug_likeliness>  (1808) 
0.16

>  <formal_charge>  (1808) 
0

>  <fractioncsp3>  (1808) 
0.48

>  <number_of_minimal_rings>  (1808) 
2

>  <van_der_walls_volume>  (1808) 
489.40

>  <contains_sugar>  (1808) 
False

>  <contains_ring_sugars>  (1808) 
False

>  <contains_linear_sugars>  (1808) 
False

>  <murcko_framework>  (1808) 
O1c2ccccc2CC1

>  <np_likeness>  (1808) 
1.36

>  <chemical_class>  (1808) 
nan

>  <chemical_sub_class>  (1808) 
nan

>  <chemical_super_class>  (1808) 
nan

>  <direct_parent_classification>  (1808) 
nan

>  <np_classifier_pathway>  (1808) 
Terpenoids

>  <np_classifier_superclass>  (1808) 
Meroterpenoids

>  <np_classifier_class>  (1808) 
nan

>  <np_classifier_is_glycoside>  (1808) 
False

>  <organisms>  (1808) 
Iryanthera grandis

>  <collections>  (1808) 
Latin America dataset|NuBBEDB|WikiData Natural Products|ZINC NP

>  <dois>  (1808) 
10.1016/S0031-9422(00)80162-4

>  <synonyms>  (1808) 
nan

>  <cas>  (1808) 
nan

$$$$

     RDKit          2D

 26 29  0  0  0  0  0  0  0  0999 V2000
    5.4999   -2.6813    0.0000 C   0  0  0  0  0  0  0  0  0  0  0  0
    5.1038   -1.2345    0.0000 O   0  0  0  0  0  0  0  0  0  0  0  0
    3.6528   -0.8542    0.0000 C   0  0  0  0  0  0  0  0  0  0  0  0
    2.5979   -1.9206    0.0000 C   0  0  0  0  0  0  0  0  0  0  0  0
    1.1469   -1.5403    0.0000 C   0  0  0  0  0  0  0  0  0  0  0  0
    0.7508   -0.0935    0.0000 C   0  0  0  0  0  0  0  0  0  0  0  0
    1.8057    0.9729    0.0000 C   0  0  0  0  0  0  0  0  0  0  0  0
    3.2567    0.5926    0.0000 C   0  0  0  0  0  0  0  0  0  0  0  0
    4.3115    1.6590    0.0000 O   0  0  0  0  0  0  0  0  0  0  0  0
    3.9154    3.1058    0.0000 C   0  0  0  0  0  0  0  0  0  0  0  0
   -0.7002    0.2868    0.0000 C   0  0  0  0  0  0  0  0  0  0  0  0
   -1.0963    1.7336    0.0000 C   0  0  0  0  0  0  0  0  0  0  0  0
   -0.0414    2.8000    0.0000 O   0  0  0  0  0  0  0  0  0  0  0  0
   -0.4375    4.2468    0.0000 C   0  0  0  0  0  0  0  0  0  0  0  0
   -2.5473    2.1139    0.0000 C   0  0  0  0  0  0  0  0  0  0  0  0
   -2.9434    3.5607    0.0000 O   0  0  0  0  0  0  0  0  0  0  0  0
   -1.8885    4.6271    0.0000 C   0  0  0  0  0  0  0  0  0  0  0  0
   -3.6021    1.0475    0.0000 C   0  0  0  0  0  0  0  0  0  0  0  0
   -3.2060   -0.3993    0.0000 C   0  0  0  0  0  0  0  0  0  0  0  0
   -1.7550   -0.7796    0.0000 C   0  0  0  0  0  0  0  0  0  0  0  0
   -1.3589   -2.2263    0.0000 C   0  0  0  0  0  0  0  0  0  0  0  0
    0.0921   -2.6067    0.0000 C   0  0  0  0  0  0  0  0  0  0  0  0
   -2.4138   -3.2928    0.0000 N   0  0  0  0  0  0  0  0  0  0  0  0
   -2.0177   -4.7395    0.0000 C   0  0  0  0  0  0  0  0  0  0  0  0
   -3.8648   -2.9124    0.0000 C   0  0  0  0  0  0  0  0  0  0  0  0
   -4.2609   -1.4657    0.0000 C   0  0  0  0  0  0  0  0  0  0  0  0
  1  2  1  0
  2  3  1  0
  3  4  2  0
  4  5  1  0
  5  6  2  0
  6  7  1  0
  7  8  2  0
  8  9  1  0
  9 10  1  0
  6 11  1  0
 11 12  2  0
 12 13  1  0
 13 14  1  0
 12 15  1  0
 15 16  1  0
 16 17  1  0
 15 18  2  0
 18 19  1  0
 19 20  2  0
 20 21  1  0
 21 22  1  6
 21 23  1  0
 23 24  1  0
 23 25  1  0
 25 26  1  0
  8  3  1  0
 20 11  1  0
 22  5  1  0
 26 19  1  0
M  END
>  <identifier>  (1809) 
CNP0233604.1

>  <canonical_smiles>  (1809) 
COC1=CC2=C(C=C1OC)C1=C(OC)C(OC)=CC3=C1[C@H](C2)N(C)CC3

>  <standard_inchi>  (1809) 
InChI=1S/C21H25NO4/c1-22-7-6-12-9-18(25-4)21(26-5)20-14-11-17(24-3)16(23-2)10-13(14)8-15(22)19(12)20/h9-11,15H,6-8H2,1-5H3/t15-/m0/s1

>  <standard_inchi_key>  (1809) 
RUZIUYOSRDWYQF-HNNXBMFYSA-N

>  <name>  (1809) 
Glaucine

>  <iupac_name>  (1809) 
(6~{a}~{S})-1,2,9,10-tetramethoxy-6-methyl-5,6,6~{a},7-tetrahydro-4~{H}-dibenzo[de,g]quinoline

>  <annotation_level>  (1809) 
5

>  <total_atom_count>  (1809) 
51

>  <heavy_atom_count>  (1809) 
26

>  <molecular_weight>  (1809) 
355.43

>  <exact_molecular_weight>  (1809) 
355.17836

>  <molecular_formula>  (1809) 
C21H25NO4

>  <alogp>  (1809) 
3.47

>  <topological_polar_surface_area>  (1809) 
40.16

>  <rotatable_bond_count>  (1809) 
4

>  <hydrogen_bond_acceptors>  (1809) 
5

>  <hydrogen_bond_donors>  (1809) 
0

>  <hydrogen_bond_acceptors_lipinski>  (1809) 
5

>  <hydrogen_bond_donors_lipinski>  (1809) 
0

>  <lipinski_rule_of_five_violations>  (1809) 
0

>  <aromatic_rings_count>  (1809) 
2

>  <qed_drug_likeliness>  (1809) 
0.84

>  <formal_charge>  (1809) 
0

>  <fractioncsp3>  (1809) 
0.43

>  <number_of_minimal_rings>  (1809) 
4

>  <van_der_walls_volume>  (1809) 
326.84

>  <contains_sugar>  (1809) 
False

>  <contains_ring_sugars>  (1809) 
False

>  <contains_linear_sugars>  (1809) 
False

>  <murcko_framework>  (1809) 
c1ccc2c(c1)-c3cccc4c3C(NCC4)C2

>  <np_likeness>  (1809) 
1.18

>  <chemical_class>  (1809) 
Aporphines

>  <chemical_sub_class>  (1809) 
Aporphines

>  <chemical_super_class>  (1809) 
Alkaloids and derivatives

>  <direct_parent_classification>  (1809) 
Aporphines

>  <np_classifier_pathway>  (1809) 
Alkaloids

>  <np_classifier_superclass>  (1809) 
Tyrosine alkaloids

>  <np_classifier_class>  (1809) 
Aporphine alkaloids

>  <np_classifier_is_glycoside>  (1809) 
False

>  <organisms>  (1809) 
Aloe microstigma|Annona mucosa|Annona purpurea|Annona reticulata|Annona squamosa|Aplidium multiplicatum|Artabotrys lastoursvillensis|Balaenoptera borealis|Beilschmiedia podagrica|Berberis cretica|Berberis densiflora|Berberis heteropoda|Berberis integerrima|Berberis nummularia|Berberis numularis|Berberis oblonga|Berberis repens|Berberis thunbergii|Berberis turcomanica|Brickellia paniculata|Ceratocapnos claviculata|Ceratocapnos heterocarpa|Ceratocapnos palaestinus|Ceratocapnos turbinata|Chrozophora prostrata|Coccoloba dugandiana|Cocculus laurifolius|Corydalis alba (Mill.) Mansf.|Corydalis ambigua|Corydalis bulbosa|Corydalis cava|Corydalis cava (L.) Schweigg & Koerte|Corydalis lutea (L.) DC.|Corydalis marchalliana|Corydalis ternata|Corydalis turtschaninovii|Corydalis yanhusuo|Croton draco|Croton draconoides|Croton hemiargyreus|Croton lechleri|Cryptocarya chinensis|Curculigo breviscapa|Delphinium ternatum|Dicentra eximia|Dicentra formosa|Epinetrum mangenotii|Eschscholzia californica|Fissistigma oldhamii|Fumaria macrosepala|Glaucium corniculatum|Glaucium elegans|Glaucium flavum|Glaucium flavum Crantz|Glaucium grandiflorum|Hedycarya angustifolia|Hypecoum procumbens|Iris decora|Lamprocapnos spectabilis|Liriodendron tulipifera|Litsea wightiana|Magnolia obovata|Musca autumnalis|Nandina domestica|Neolitsea parvigemma|Ocotea macrophylla|Ocotea vellosiana|Ocotea velloziana|Papaver pilosum|Papaver somniferum|Papaveraceae|Paronychia argentea|Pedicularis chinensis|Phoenicanthus obliqua|Phoenicanthus obliquus|Platycapnos saxicola|Platycapnos spicata|Platycapnos spicatus|Platycapnos tenuiloba|Platycapnos tenuilobus|Platytaenia dasycarpa|Prunus humilis|Pycnarrhena novoguineensis|Rollinia mucosa|Rupicapnos africana|Sarcocapnos baetica|Sarcocapnos crassifolia|Sarcocapnos enneaphylla|Sarcocapnos saetabensis|Stizolobium capitatum|Thalictrum baicalense|Thalictrum flavum|Thalictrum foetidum|Thalictrum hernandezii|Thalictrum ichangense|Thalictrum ichengense|Thalictrum minus|Thalictrum triternatum|Xylopia holtzii|Xylopia laevigata|Yan Hu Suo|Zanthoxylum ailanthoides

>  <collections>  (1809) 
ANPDB|AfroDB|Australian natural products|CMAUP (cCollective molecular activities of useful plants)|ChEBI NPs|ETM (Ethiopian Traditional Medicine) DB|InflamNat|KNApSaCK|Latin America dataset|NANPDB (Natural Products from Northern African Sources)|NPASS|NPEdia|NuBBEDB|Phyto4Health|Super Natural II|TCMDB-Taiwan (Traditional Chinese Medicine database)|TIPdb (database of Taiwan indigenous plants)|TPPT (Toxic Plants–PhytoToxins)|WikiData Natural Products|ZINC NP

>  <dois>  (1809) 
10.1002/(SICI)1099-1565(199909/10)10:5<254::AID-PCA462>3.0.CO;2-Q|10.1002/(SICI)1099-1573(199602)10:1<62::AID-PTR777>3.0.CO;2-Q|10.1002/9780470744307.gat218|10.1002/JCCS.199800018|10.1002/JCCS.200300178|10.1002/JPS.2600640512|10.1002/food.19880321030|10.1002/jms.3112|10.1007/978-1-4899-1783-6_3|10.1007/978-3-642-22144-6_19|10.1007/BF00565767|10.1007/BF00568496|10.1007/BF00569619|10.1007/BF00574282|10.1007/BF00574761|10.1007/BF00579453|10.1007/BF00579510|10.1007/BF00579793|10.1007/BF00579794|10.1007/BF00630233|10.1007/BF00630532|10.1007/BF00630533|10.1007/BF00630556|10.1007/BF00630564|10.1007/BF00630680|10.1007/BF00630681|10.1007/BF00631012|10.1007/BF00631015|10.1007/BF00631016|10.1007/BF00757845|10.1007/BF01165220|10.1007/BF01373805|10.1007/BF01374018|10.1007/BF01374020|10.1007/BF02234886|10.1007/BF02236441|10.1007/BF02254817|10.1007/BF02273928|10.1007/s11010-015-2339-9|10.1016/0031-9422(72)85042-8|10.1016/0031-9422(75)85390-8|10.1016/0031-9422(88)80265-6|10.1016/0031-9422(88)84134-7|10.1016/0031-9422(89)85050-2|10.1016/0031-9422(91)83200-5|10.1016/0031-9422(91)85069-C|10.1016/0031-9422(91)85296-C|10.1016/0031-9422(93)85255-P|10.1016/0031-9422(93)85312-F|10.1016/0031-9422(94)00576-F|10.1016/0031-9422(94)00961-R|10.1016/0040-4020(80)88040-9|10.1016/0305-1978(92)90059-M|10.1016/J.BMC.2006.10.034|10.1016/J.BMC.2014.09.004|10.1016/J.BSE.2003.08.012|10.1016/J.FOODCHEM.2012.09.059|10.1016/J.PHYTOCHEM.2006.07.011|10.1016/S0021-9673(00)00919-5|10.1016/S0031-9422(00)81913-5|10.1016/S0031-9422(00)95198-7|10.1016/S0031-9422(97)00764-4|10.1016/S0040-4020(01)82640-5|10.1016/S0040-4039(01)97099-6|10.1016/S0367-326X(00)00193-3|10.1016/j.bmc.2006.10.034|10.1016/j.bmc.2014.09.004|10.1016/j.chroma.2007.06.029|10.1016/j.fitote.2009.05.016|10.1016/j.foodchem.2012.09.059|10.1021/NP000270V|10.1021/NP0102399|10.1021/NP010258I|10.1021/NP50018A011|10.1021/NP50021A011|10.1021/NP50027A020|10.1021/NP50032A030|10.1021/NP50036A046|10.1021/NP50041A037|10.1021/NP50043A025|10.1021/NP50070A040|10.1021/NP960321H|10.1021/NP960414Z|10.1021/NP9800046|10.1039/jr9610001896|10.1055/S-0030-1249972|10.1055/S-2006-962324|10.1055/S-2007-969652|10.1055/S-2007-969878|10.1055/S-2007-971208|10.1074/JBC.M116.747261|10.1080/14786410902904418|10.1080/14786419.2014.921166|10.11110/KJPT.1985.15.3.145|10.1139/CJR34-047|10.1155/2014/281342|10.1248/BPB.17.262|10.1248/CPB.33.5369|10.1248/CPB.49.1292|10.1515/HFSG.1991.45.5.325|10.3389/FPLS.2019.01329|10.3390/IJMS141223533|10.3390/MOLECULES21070890|10.3390/ijms141223533|10.3390/molecules21070890|10.3987/COM-90-5356|10.3987/R-1987-02-0447|10.4268/CJCMM20150118

>  <synonyms>  (1809) 
(6AS)-5,6,6A,7-TETRAHYDRO-1,2,9,10-TETRAMETHOXY-6-METHYL-4H-DIBENZO(DE,G)QUINOLINE|(9S)-4,5,15,16-TETRAMETHOXY-10-METHYL-10-AZATETRACYCLO[7.7.1.0(2),?.0(1)(3),(1)?]HEPTADECA-1(16),2,4,6,13(17),14-HEXAENE|(S)-1,2,9,10-tetramethoxy-6-methyl-5,6,6a,7-tetrahydro-4H-dibenzo[de,g]quinoline|(S)-5,6,6a,7-Tetrahydro-1,2,9,10-tetramethoxy-6-methyl-4H-dibenzo(de,g)quinoline|(s)-(+)-1,2,9,10-tetramethoxyaporphine|08V|1,2,9,10-Tetramethoxy-6a-alpha-aporphine|1,2,9,10-tetramethoxyaporphine|1ST159501|475-81-0|4H-Dibenzo(de,g)quinoline, 5,6,6a,7-tetrahydro-1,2,9,10-tetramethoxy-6-methyl-, (S)-|6a-alpha-APORPHINE, 1,2,9,10-TETRAMETHOXY-|6aalpha-Aporphine, 1,2,9,10-tetramethoxy-|AKOS000276780|BDBM50197829|Boldine dimethyl ether|Bromcholitin|C09446|CHEBI:5373|CHEMBL228082|CS-0024496|D08014|DTXSID8031100|E87122|EINECS 207-501-5|GLAUCINE [INCI]|GLAUCINE [MART.]|GLAUCINE [MI]|GLAUCINE [WHO-DD]|GLAUCINE,(D)|Glaucine|Glaucine fumarate|Glaucine, d|Glaucine; S-(+)-Glaucine|Glaucined-Glaucine; Bromcholitin; Glauvent|Glauvent|HY-N3945|MD-0233|NSC34396|NU19306XA7|O,O-Dimethylisoboldine; S-(+)-Glaucine; NSC 34396|Papaveraceae|Q2398298|S-(+)-Glaucine|SCHEMBL146441|Tusidil (TN)|UNII-NU19306XA7|d-Glaucine|glaucine

>  <cas>  (1809) 
475-81-0

$$$$

     RDKit          2D

 42 46  0  0  0  0  0  0  0  0999 V2000
   -9.0880    1.4853    0.0000 C   0  0  0  0  0  0  0  0  0  0  0  0
   -7.7524    0.8024    0.0000 C   0  0  0  0  0  0  0  0  0  0  0  0
   -6.4933    1.6177    0.0000 O   0  0  0  0  0  0  0  0  0  0  0  0
   -5.1577    0.9348    0.0000 C   0  0  0  0  0  0  0  0  0  0  0  0
   -3.8986    1.7501    0.0000 O   0  0  0  0  0  0  0  0  0  0  0  0
   -2.5630    1.0672    0.0000 C   0  0  0  0  0  0  0  0  0  0  0  0
   -1.3039    1.8824    0.0000 C   0  0  0  0  0  0  0  0  0  0  0  0
    0.0317    1.1996    0.0000 O   0  0  0  0  0  0  0  0  0  0  0  0
    1.2908    2.0148    0.0000 C   0  0  0  0  0  0  0  0  0  0  0  0
    2.6264    1.3320    0.0000 O   0  0  0  0  0  0  0  0  0  0  0  0
    2.7028   -0.1661    0.0000 C   0  0  0  0  0  0  0  0  0  0  0  0
    4.0384   -0.8489    0.0000 C   0  0  0  0  0  0  0  0  0  0  0  0
    5.2975   -0.0337    0.0000 C   0  0  0  0  0  0  0  0  0  0  0  0
    5.2211    1.4644    0.0000 C   0  0  0  0  0  0  0  0  0  0  0  0
    6.4802    2.2796    0.0000 C   0  0  0  0  0  0  0  0  0  0  0  0
    7.8158    1.5968    0.0000 C   0  0  0  0  0  0  0  0  0  0  0  0
    9.0749    2.4120    0.0000 O   0  0  0  0  0  0  0  0  0  0  0  0
    7.8922    0.0987    0.0000 C   0  0  0  0  0  0  0  0  0  0  0  0
    6.6331   -0.7165    0.0000 C   0  0  0  0  0  0  0  0  0  0  0  0
    4.1148   -2.3469    0.0000 O   0  0  0  0  0  0  0  0  0  0  0  0
    2.8557   -3.1622    0.0000 C   0  0  0  0  0  0  0  0  0  0  0  0
    2.9321   -4.6602    0.0000 C   0  0  0  0  0  0  0  0  0  0  0  0
    1.6730   -5.4754    0.0000 C   0  0  0  0  0  0  0  0  0  0  0  0
    1.7494   -6.9735    0.0000 O   0  0  0  0  0  0  0  0  0  0  0  0
    0.3374   -4.7926    0.0000 C   0  0  0  0  0  0  0  0  0  0  0  0
    0.2610   -3.2946    0.0000 C   0  0  0  0  0  0  0  0  0  0  0  0
   -1.0746   -2.6117    0.0000 O   0  0  0  0  0  0  0  0  0  0  0  0
    1.5201   -2.4793    0.0000 C   0  0  0  0  0  0  0  0  0  0  0  0
    1.4437   -0.9813    0.0000 C   0  0  0  0  0  0  0  0  0  0  0  0
    0.1081   -0.2984    0.0000 O   0  0  0  0  0  0  0  0  0  0  0  0
    1.2144    3.5129    0.0000 C   0  0  0  0  0  0  0  0  0  0  0  0
    2.4735    4.3281    0.0000 O   0  0  0  0  0  0  0  0  0  0  0  0
   -0.1212    4.1957    0.0000 C   0  0  0  0  0  0  0  0  0  0  0  0
   -0.1976    5.6938    0.0000 O   0  0  0  0  0  0  0  0  0  0  0  0
   -1.3803    3.3805    0.0000 C   0  0  0  0  0  0  0  0  0  0  0  0
   -2.7159    4.0633    0.0000 O   0  0  0  0  0  0  0  0  0  0  0  0
   -5.0813   -0.5632    0.0000 C   0  0  0  0  0  0  0  0  0  0  0  0
   -3.7457   -1.2461    0.0000 O   0  0  0  0  0  0  0  0  0  0  0  0
   -6.3404   -1.3784    0.0000 C   0  0  0  0  0  0  0  0  0  0  0  0
   -6.2640   -2.8765    0.0000 O   0  0  0  0  0  0  0  0  0  0  0  0
   -7.6760   -0.6956    0.0000 C   0  0  0  0  0  0  0  0  0  0  0  0
   -8.9351   -1.5108    0.0000 O   0  0  0  0  0  0  0  0  0  0  0  0
  2  1  1  6
  2  3  1  0
  3  4  1  0
  4  5  1  1
  5  6  1  0
  7  6  1  6
  7  8  1  0
  8  9  1  0
  9 10  1  6
 10 11  1  0
 11 12  2  0
 12 13  1  0
 13 14  2  0
 14 15  1  0
 15 16  2  0
 16 17  1  0
 16 18  1  0
 18 19  2  0
 12 20  1  0
 20 21  1  0
 21 22  2  0
 22 23  1  0
 23 24  1  0
 23 25  2  0
 25 26  1  0
 26 27  1  0
 26 28  2  0
 28 29  1  0
 29 30  2  0
  9 31  1  0
 31 32  1  1
 31 33  1  0
 33 34  1  6
 33 35  1  0
 35 36  1  6
  4 37  1  0
 37 38  1  6
 37 39  1  0
 39 40  1  6
 39 41  1  0
 41 42  1  1
 41  2  1  0
 35  7  1  0
 29 11  1  0
 19 13  1  0
 28 21  1  0
M  END
>  <identifier>  (1810) 
CNP0222584.1

>  <canonical_smiles>  (1810) 
C[C@@H]1O[C@@H](OC[C@H]2O[C@@H](OC3=C(C4=CC=C(O)C=C4)OC4=CC(O)=CC(O)=C4C3=O)[C@H](O)[C@@H](O)[C@H]2O)[C@H](O)[C@H](O)[C@H]1O

>  <standard_inchi>  (1810) 
InChI=1S/C27H30O15/c1-9-17(31)20(34)22(36)26(39-9)38-8-15-18(32)21(35)23(37)27(41-15)42-25-19(33)16-13(30)6-12(29)7-14(16)40-24(25)10-2-4-11(28)5-3-10/h2-7,9,15,17-18,20-23,26-32,34-37H,8H2,1H3/t9-,15+,17-,18-,20+,21-,22+,23+,26+,27-/m0/s1

>  <standard_inchi_key>  (1810) 
RTATXGUCZHCSNG-KYGWAIEOSA-N

>  <name>  (1810) 
Biorobin

>  <iupac_name>  (1810) 
5,7-dihydroxy-2-(4-hydroxyphenyl)-3-[(2~{S},3~{R},4~{S},5~{R},6~{R})-3,4,5-trihydroxy-6-[[(2~{R},3~{R},4~{R},5~{R},6~{S})-3,4,5-trihydroxy-6-methyl-tetrahydropyran-2-yl]oxymethyl]tetrahydropyran-2-yl]oxy-chromen-4-one

>  <annotation_level>  (1810) 
5

>  <total_atom_count>  (1810) 
72

>  <heavy_atom_count>  (1810) 
42

>  <molecular_weight>  (1810) 
594.52

>  <exact_molecular_weight>  (1810) 
594.15847

>  <molecular_formula>  (1810) 
C27H30O15

>  <alogp>  (1810) 
-1.39

>  <topological_polar_surface_area>  (1810) 
249.20

>  <rotatable_bond_count>  (1810) 
6

>  <hydrogen_bond_acceptors>  (1810) 
15

>  <hydrogen_bond_donors>  (1810) 
9

>  <hydrogen_bond_acceptors_lipinski>  (1810) 
15

>  <hydrogen_bond_donors_lipinski>  (1810) 
9

>  <lipinski_rule_of_five_violations>  (1810) 
3

>  <aromatic_rings_count>  (1810) 
3

>  <qed_drug_likeliness>  (1810) 
0.16

>  <formal_charge>  (1810) 
0

>  <fractioncsp3>  (1810) 
0.44

>  <number_of_minimal_rings>  (1810) 
5

>  <van_der_walls_volume>  (1810) 
484.70

>  <contains_sugar>  (1810) 
True

>  <contains_ring_sugars>  (1810) 
True

>  <contains_linear_sugars>  (1810) 
False

>  <murcko_framework>  (1810) 
O1c2ccccc2CC(OC3OC(COC4OCCCC4)CCC3)=C1c5ccccc5

>  <np_likeness>  (1810) 
1.94

>  <chemical_class>  (1810) 
Flavonoids

>  <chemical_sub_class>  (1810) 
Flavonoid glycosides

>  <chemical_super_class>  (1810) 
Phenylpropanoids and polyketides

>  <direct_parent_classification>  (1810) 
Flavonoid-3-O-glycosides

>  <np_classifier_pathway>  (1810) 
Shikimates and Phenylpropanoids

>  <np_classifier_superclass>  (1810) 
Flavonoids

>  <np_classifier_class>  (1810) 
Flavonols

>  <np_classifier_is_glycoside>  (1810) 
True

>  <organisms>  (1810) 
Aaptos ciliata|Abies excelsa|Abies pinsapo var. marocana|Acalypha indica|Achlya heterosexualis|Alternaria macrospora|Ampelocera edentula|Angelica acutiloba|Anthyllis henoniana|Anthyllis lagascana|Anthyllis subsimplex|Arnica mollis|Atropanthe sinensis|Botrytis cinerea|Brassica carinata|Bryonia alba|Camellia sinensis|Cananga odorata|Carpha glomerata|Cassytha filiformis|Chimarrhis turbinata|Chrysosporum ovalisporum|Clitoria Ternatea|Cordia dichotoma|Crotalaria trichotoma|Croton gratissimus|Cyanostegia angustifolia|Dactylorhiza viridis|Delphinium oliverianum|Diplopterygium glaucum|Ebenus sibthorpii|Eucalyptus resinifera|Euphrasia genargentea|Eurycoma harmandiana|Fraxinus americana|Glycyrrhiza glabra|Glycyrrhiza inflata|Glycyrrhiza uralensis|Gymnema sylvestre|Halobacillus litoralis|Hylocereus undatus|Ixeris debilis|Lespedeza Juncea|Lobophytum durum|Lysimachia fordiana|Lysimachia mauritiana|Marasmiellus troyanus|Maytenus chuchuhuasha|Monteverdia ilioppjfeowneviufheiuwfew fgr|Nelumbo nucifera|Orthosiphon spicatus|Oxytropis falcata|Peltophorum pterocarpum|Physalis Peruviana|Planchonella obovata|Pterolobium hexapetalum|Ranunculus asiaticus|Remirea maritima|Rhamnus disperma|Salvadora persica|Schizophyllum lobatum|Scolymus hispanicus|Silphium perfoliatum|Sinapis alba|Sinoadina racemosa|Solanum lanceolatum|Solidago virgaurea|Spinulum annotinum|Streptomyces matensis|Strychnos variabilis|Styphnolobium japonicum|Suillus tridentinus|Tephrosia elata|Trididemnum cyanophorum|Viburnum erubescens|Wikstroemia viridiflora|Xanthorhiza simplicissima|soybean

>  <collections>  (1810) 
Australian natural products|CMAUP (cCollective molecular activities of useful plants)|ChemSpider NPs|Latin America dataset|NPASS|NuBBEDB|Phyto4Health|Super Natural II|VietHerb|WikiData Natural Products|ZINC NP

>  <dois>  (1810) 
10.1002/hlca.200900264|10.1007/s11418-014-0843-y|10.1016/0021-9673(91)80135-4|10.1016/0031-9422(88)80698-8|10.1016/J.ACA.2012.02.051|10.1016/J.CARRES.2003.12.017|10.1016/J.FITOTE.2006.04.007|10.1016/J.PHYTOCHEM.2007.03.004|10.1016/S0031-9422(00)00319-8|10.1016/S0031-9422(00)82393-6|10.1016/S0031-9422(00)85534-X|10.1016/S0031-9422(02)00133-4|10.1016/S0031-9422(99)00262-9|10.1016/S0305-1978(00)00053-3|10.1016/j.bse.2008.06.007|10.1021/NP030440E|10.1021/NP070564H|10.1021/NP300292F|10.1055/S-2002-32545|10.1055/S-2008-1034278|10.1248/CPB.55.598|10.1248/CPB.56.1297|10.1248/CPB.58.1026|10.1590/S0103-50532005000800008|10.1590/S0103-50532010000200009|10.21608/BFSA.1997.68759|10.3390/molecules24020240

>  <synonyms>  (1810) 
17297-56-2|1ST169526|5,7-DIHYDROXY-2-(4-HYDROXYPHENYL)-3-{[(2S,3R,4S,5R,6R)-3,4,5-TRIHYDROXY-6-({[(2R,3R,4R,5R,6S)-3,4,5-TRIHYDROXY-6-METHYLOXAN-2-YL]OXY}METHYL)OXAN-2-YL]OXY}CHROMEN-4-ONE|5,7-Dihydroxy-2-(4-hydroxyphenyl)-3-[(2S,3R,4S,5R,6R)-3,4,5-trihydroxy-6-[[(2R,3R,4R,5R,6S)-3,4,5-trihydroxy-6-methyloxan-2-yl]oxymethyl]oxan-2-yl]oxychromen-4-one|AKOS040760299|CHEMBL79790|CS-0023561|DTXSID601308649|E88938|FS-9351|HY-N2938|Kaempferol 3-O-robinobioside|Kaempferol-3-O-\u221a\u00e9\u00ac\u00b1-L-rhamnopyranosyl-(1\u221a\u00a2\u201a\u00c4\u2020\u201a\u00c4\u00f46)-\u221a\u00e9\u00ac\u2264-D-galactopyranoside|Kaempferol-3-O-rhamnosyl galactoside|MLS000574999|PD171515|SMR000232373

>  <cas>  (1810) 
17297-56-2

$$$$

     RDKit          2D

 21 23  0  0  0  0  0  0  0  0999 V2000
    1.9071   -3.1913    0.0000 O   0  0  0  0  0  0  0  0  0  0  0  0
    1.4102   -1.7760    0.0000 C   0  0  0  0  0  0  0  0  0  0  0  0
   -0.0639   -1.4986    0.0000 C   0  0  0  0  0  0  0  0  0  0  0  0
   -0.5608   -0.0833    0.0000 C   0  0  0  0  0  0  0  0  0  0  0  0
   -2.0349    0.1940    0.0000 C   0  0  0  0  0  0  0  0  0  0  0  0
   -2.5318    1.6093    0.0000 C   0  0  0  0  0  0  0  0  0  0  0  0
   -4.0059    1.8867    0.0000 C   0  0  0  0  0  0  0  0  0  0  0  0
   -4.9832    0.7487    0.0000 C   0  0  0  0  0  0  0  0  0  0  0  0
   -6.4573    1.0261    0.0000 O   0  0  0  0  0  0  0  0  0  0  0  0
   -4.4863   -0.6666    0.0000 C   0  0  0  0  0  0  0  0  0  0  0  0
   -5.4636   -1.8045    0.0000 O   0  0  0  0  0  0  0  0  0  0  0  0
   -3.0122   -0.9439    0.0000 C   0  0  0  0  0  0  0  0  0  0  0  0
    0.4165    1.0546    0.0000 O   0  0  0  0  0  0  0  0  0  0  0  0
    1.8906    0.7773    0.0000 C   0  0  0  0  0  0  0  0  0  0  0  0
    2.8679    1.9152    0.0000 C   0  0  0  0  0  0  0  0  0  0  0  0
    4.3420    1.6379    0.0000 C   0  0  0  0  0  0  0  0  0  0  0  0
    5.3193    2.7759    0.0000 O   0  0  0  0  0  0  0  0  0  0  0  0
    4.8389    0.2226    0.0000 C   0  0  0  0  0  0  0  0  0  0  0  0
    3.8616   -0.9154    0.0000 C   0  0  0  0  0  0  0  0  0  0  0  0
    4.3585   -2.3307    0.0000 O   0  0  0  0  0  0  0  0  0  0  0  0
    2.3875   -0.6380    0.0000 C   0  0  0  0  0  0  0  0  0  0  0  0
  1  2  2  0
  2  3  1  0
  3  4  1  0
  4  5  1  6
  5  6  2  0
  6  7  1  0
  7  8  2  0
  8  9  1  0
  8 10  1  0
 10 11  1  0
 10 12  2  0
  4 13  1  0
 13 14  1  0
 14 15  2  0
 15 16  1  0
 16 17  1  0
 16 18  2  0
 18 19  1  0
 19 20  1  0
 19 21  2  0
 21  2  1  0
 12  5  1  0
 21 14  1  0
M  END
>  <identifier>  (1811) 
CNP0229912.2

>  <canonical_smiles>  (1811) 
O=C1C[C@H](C2=CC=C(O)C(O)=C2)OC2=CC(O)=CC(O)=C12

>  <standard_inchi>  (1811) 
InChI=1S/C15H12O6/c16-8-4-11(19)15-12(20)6-13(21-14(15)5-8)7-1-2-9(17)10(18)3-7/h1-5,13,16-19H,6H2/t13-/m1/s1

>  <standard_inchi_key>  (1811) 
SBHXYTNGIZCORC-CYBMUJFWSA-N

>  <name>  (1811) 
NSC649412

>  <iupac_name>  (1811) 
(2~{R})-2-(3,4-dihydroxyphenyl)-5,7-dihydroxy-chroman-4-one

>  <annotation_level>  (1811) 
5

>  <total_atom_count>  (1811) 
33

>  <heavy_atom_count>  (1811) 
21

>  <molecular_weight>  (1811) 
288.26

>  <exact_molecular_weight>  (1811) 
288.06339

>  <molecular_formula>  (1811) 
C15H12O6

>  <alogp>  (1811) 
2.22

>  <topological_polar_surface_area>  (1811) 
107.22

>  <rotatable_bond_count>  (1811) 
1

>  <hydrogen_bond_acceptors>  (1811) 
6

>  <hydrogen_bond_donors>  (1811) 
4

>  <hydrogen_bond_acceptors_lipinski>  (1811) 
6

>  <hydrogen_bond_donors_lipinski>  (1811) 
4

>  <lipinski_rule_of_five_violations>  (1811) 
0

>  <aromatic_rings_count>  (1811) 
2

>  <qed_drug_likeliness>  (1811) 
0.60

>  <formal_charge>  (1811) 
0

>  <fractioncsp3>  (1811) 
0.13

>  <number_of_minimal_rings>  (1811) 
3

>  <van_der_walls_volume>  (1811) 
239.52

>  <contains_sugar>  (1811) 
False

>  <contains_ring_sugars>  (1811) 
False

>  <contains_linear_sugars>  (1811) 
False

>  <murcko_framework>  (1811) 
O1c2ccccc2CCC1c3ccccc3

>  <np_likeness>  (1811) 
1.88

>  <chemical_class>  (1811) 
Flavonoids

>  <chemical_sub_class>  (1811) 
Flavans

>  <chemical_super_class>  (1811) 
Phenylpropanoids and polyketides

>  <direct_parent_classification>  (1811) 
Flavanones

>  <np_classifier_pathway>  (1811) 
Shikimates and Phenylpropanoids

>  <np_classifier_superclass>  (1811) 
Flavonoids

>  <np_classifier_class>  (1811) 
Flavanones

>  <np_classifier_is_glycoside>  (1811) 
False

>  <organisms>  (1811) 
Alnus cordata|Aloe deltoideodonta|Arachis hypogaea|Asclepias eriocarpa|Bauhinia purpurea|Caulis millettiae|Caulis spatholobi|Chrysanthemum indicum|Crinum latifolium|Dipteryx lacunifera|Drynaria fortunei|Elmerrillia papuana|Eupatorium subhastatum|Fructus ligustri lucidi|Goldfussia yunnanensis|Herba meconpsis integrifoliae|Laurentia longiflora|Leitneria floridana|Lepraria citrina|Ligustrum lucidum|Lyonia ovalifolia|Mentha longifolia|Notholaena aschenborniana|Onopordum acanthium|Petrosia hebes|Phyllanthus emblica|Prunus amygdalus|Prunus dulcis|Pteris multifida|Purpura aperta|Scutellaria baicalensis|Scutellaria barbata|Syphonota geographica|Thermopsis mollis|Viscum album

>  <collections>  (1811) 
CMAUP (cCollective molecular activities of useful plants)|ChemSpider NPs|Latin America dataset|NPASS|NuBBEDB|Phyto4Health|Super Natural II|TCMDB-Taiwan (Traditional Chinese Medicine database)|WikiData Natural Products|ZINC NP

>  <dois>  (1811) 
10.1002/HLCA.200890233|10.1002/JCCS.199700056|10.1002/hlca.200890233

>  <synonyms>  (1811) 
(-)-Eriodictyol, (2R)-2-(34-dihydroxyphenyl)-23-dihydro-57-dihydroxy-4H-chromen-4-one|(2R)-Eriodictyol|116301-03-2|CHEMBL1975989|Eriodyctiol (flavanone)|NCI60_017216|NSC-649412|SCHEMBL23686074

>  <cas>  (1811) 
116301-03-2

$$$$

     RDKit          2D

 17 18  0  0  0  0  0  0  0  0999 V2000
   -3.8236    2.9439    0.0000 C   0  0  0  0  0  0  0  0  0  0  0  0
   -3.7839    1.4444    0.0000 O   0  0  0  0  0  0  0  0  0  0  0  0
   -2.4654    0.7291    0.0000 C   0  0  0  0  0  0  0  0  0  0  0  0
   -1.1867    1.5132    0.0000 C   0  0  0  0  0  0  0  0  0  0  0  0
    0.1317    0.7979    0.0000 C   0  0  0  0  0  0  0  0  0  0  0  0
    0.1715   -0.7016    0.0000 C   0  0  0  0  0  0  0  0  0  0  0  0
   -1.1073   -1.4857    0.0000 C   0  0  0  0  0  0  0  0  0  0  0  0
   -1.0675   -2.9852    0.0000 O   0  0  0  0  0  0  0  0  0  0  0  0
   -2.4257   -0.7704    0.0000 C   0  0  0  0  0  0  0  0  0  0  0  0
   -3.7044   -1.5545    0.0000 C   0  0  0  0  0  0  0  0  0  0  0  0
    1.4899   -1.4169    0.0000 C   0  0  0  0  0  0  0  0  0  0  0  0
    1.5296   -2.9164    0.0000 O   0  0  0  0  0  0  0  0  0  0  0  0
    2.7686   -0.6328    0.0000 C   0  0  0  0  0  0  0  0  0  0  0  0
    2.7289    0.8667    0.0000 C   0  0  0  0  0  0  0  0  0  0  0  0
    4.0076    1.6508    0.0000 C   0  0  0  0  0  0  0  0  0  0  0  0
    5.3261    0.9355    0.0000 O   0  0  0  0  0  0  0  0  0  0  0  0
    1.4105    1.5820    0.0000 O   0  0  0  0  0  0  0  0  0  0  0  0
  1  2  1  0
  2  3  1  0
  3  4  2  0
  4  5  1  0
  5  6  2  0
  6  7  1  0
  7  8  1  0
  7  9  2  0
  9 10  1  0
  6 11  1  0
 11 12  2  0
 11 13  1  0
 13 14  2  0
 14 15  1  0
 15 16  1  0
 14 17  1  0
  9  3  1  0
 17  5  1  0
M  END
>  <identifier>  (1812) 
CNP0080645.0

>  <canonical_smiles>  (1812) 
COC1=CC2=C(C(O)=C1C)C(=O)C=C(CO)O2

>  <standard_inchi>  (1812) 
InChI=1S/C12H12O5/c1-6-9(16-2)4-10-11(12(6)15)8(14)3-7(5-13)17-10/h3-4,13,15H,5H2,1-2H3

>  <standard_inchi_key>  (1812) 
XFEMHOWGRYGXDK-UHFFFAOYSA-N

>  <name>  (1812) 
5-hydroxy-2-(hydroxymethyl)-7-methoxy-6-methylchromen-4-one

>  <iupac_name>  (1812) 
5-hydroxy-2-(hydroxymethyl)-7-methoxy-6-methyl-chromen-4-one

>  <annotation_level>  (1812) 
5

>  <total_atom_count>  (1812) 
29

>  <heavy_atom_count>  (1812) 
17

>  <molecular_weight>  (1812) 
236.22

>  <exact_molecular_weight>  (1812) 
236.06847

>  <molecular_formula>  (1812) 
C12H12O5

>  <alogp>  (1812) 
1.31

>  <topological_polar_surface_area>  (1812) 
79.90

>  <rotatable_bond_count>  (1812) 
2

>  <hydrogen_bond_acceptors>  (1812) 
5

>  <hydrogen_bond_donors>  (1812) 
2

>  <hydrogen_bond_acceptors_lipinski>  (1812) 
5

>  <hydrogen_bond_donors_lipinski>  (1812) 
2

>  <lipinski_rule_of_five_violations>  (1812) 
0

>  <aromatic_rings_count>  (1812) 
2

>  <qed_drug_likeliness>  (1812) 
0.82

>  <formal_charge>  (1812) 
0

>  <fractioncsp3>  (1812) 
0.25

>  <number_of_minimal_rings>  (1812) 
2

>  <van_der_walls_volume>  (1812) 
nan

>  <contains_sugar>  (1812) 
False

>  <contains_ring_sugars>  (1812) 
False

>  <contains_linear_sugars>  (1812) 
False

>  <murcko_framework>  (1812) 
O1C=CCc2ccccc12

>  <np_likeness>  (1812) 
1.63

>  <chemical_class>  (1812) 
Benzopyrans

>  <chemical_sub_class>  (1812) 
1-benzopyrans

>  <chemical_super_class>  (1812) 
Organoheterocyclic compounds

>  <direct_parent_classification>  (1812) 
Chromones

>  <np_classifier_pathway>  (1812) 
Polyketides

>  <np_classifier_superclass>  (1812) 
Chromanes

>  <np_classifier_class>  (1812) 
Chromones

>  <np_classifier_is_glycoside>  (1812) 
False

>  <organisms>  (1812) 
Muyocopron sahnii|Mycoleptodiscus indicus

>  <collections>  (1812) 
Latin America dataset|NPASS|NuBBEDB|WikiData Natural Products|ZINC NP

>  <dois>  (1812) 
10.1021/NP4006822|10.1021/np4006822

>  <synonyms>  (1812) 
9-hydroxyeugenin|CHEMBL3104958

>  <cas>  (1812) 
nan

$$$$

     RDKit          2D

 23 25  0  0  0  0  0  0  0  0999 V2000
    6.0912   -2.0202    0.0000 C   0  0  0  0  0  0  0  0  0  0  0  0
    4.6975   -1.4656    0.0000 C   0  0  0  0  0  0  0  0  0  0  0  0
    4.4809    0.0187    0.0000 C   0  0  0  0  0  0  0  0  0  0  0  0
    5.6581    0.9484    0.0000 C   0  0  0  0  0  0  0  0  0  0  0  0
    3.0872    0.5733    0.0000 C   0  0  0  0  0  0  0  0  0  0  0  0
    2.8707    2.0575    0.0000 O   0  0  0  0  0  0  0  0  0  0  0  0
    1.9101   -0.3564    0.0000 O   0  0  0  0  0  0  0  0  0  0  0  0
    0.5164    0.1982    0.0000 C   0  0  0  0  0  0  0  0  0  0  0  0
    0.2998    1.6824    0.0000 C   0  0  0  0  0  0  0  0  0  0  0  0
   -1.1571    2.0781    0.0000 C   0  0  0  0  0  0  0  0  0  0  0  0
   -0.1990    3.2322    0.0000 C   0  0  0  0  0  0  0  0  0  0  0  0
   -0.7866    0.6246    0.0000 O   0  0  0  0  0  0  0  0  0  0  0  0
   -2.0545   -0.1769    0.0000 C   0  0  0  0  0  0  0  0  0  0  0  0
   -3.2086    0.7812    0.0000 C   0  0  0  0  0  0  0  0  0  0  0  0
   -2.6540    2.1749    0.0000 C   0  0  0  0  0  0  0  0  0  0  0  0
   -3.4556    3.4428    0.0000 O   0  0  0  0  0  0  0  0  0  0  0  0
   -3.0126   -1.3311    0.0000 C   0  0  0  0  0  0  0  0  0  0  0  0
   -4.5095   -1.2343    0.0000 C   0  0  0  0  0  0  0  0  0  0  0  0
   -5.3417   -2.4822    0.0000 O   0  0  0  0  0  0  0  0  0  0  0  0
   -2.2111   -2.5989    0.0000 C   0  0  0  0  0  0  0  0  0  0  0  0
   -0.7575   -2.2284    0.0000 C   0  0  0  0  0  0  0  0  0  0  0  0
    0.3966   -3.1865    0.0000 O   0  0  0  0  0  0  0  0  0  0  0  0
   -0.6608   -0.7315    0.0000 C   0  0  0  0  0  0  0  0  0  0  0  0
  1  2  1  0
  2  3  2  3
  3  4  1  0
  3  5  1  0
  5  6  2  0
  5  7  1  0
  8  7  1  1
  8  9  1  0
  9 10  1  0
 10 11  1  6
 10 12  1  0
 12 13  1  0
 13 14  1  1
 14 15  1  0
 15 16  2  0
 13 17  1  0
 17 18  1  0
 18 19  1  0
 17 20  2  0
 20 21  1  0
 21 22  1  6
 23 21  1  1
 23  8  1  0
 15 10  1  0
 23 13  1  0
M  END
>  <identifier>  (1813) 
CNP0399825.1

>  <canonical_smiles>  (1813) 
CC=C(C)C(=O)O[C@@H]1C[C@@]2(C)O[C@@]3(CC2=O)C(CO)=C[C@@H](O)[C@H]13

>  <standard_inchi>  (1813) 
InChI=1S/C17H22O6/c1-4-9(2)15(21)22-12-6-16(3)13(20)7-17(23-16)10(8-18)5-11(19)14(12)17/h4-5,11-12,14,18-19H,6-8H2,1-3H3/t11-,12-,14-,16-,17+/m1/s1

>  <standard_inchi_key>  (1813) 
CTKLVKWVJNHUGO-XWBAZOGBSA-N

>  <name>  (1813) 
nan

>  <iupac_name>  (1813) 
[(1~{R},4~{R},5~{R},6~{R},8~{R})-4-hydroxy-2-(hydroxymethyl)-8-methyl-9-oxo-11-oxatricyclo[6.2.1.0^{1,5}]undec-2-en-6-yl] 2-methylbut-2-enoate

>  <annotation_level>  (1813) 
4

>  <total_atom_count>  (1813) 
45

>  <heavy_atom_count>  (1813) 
23

>  <molecular_weight>  (1813) 
322.36

>  <exact_molecular_weight>  (1813) 
322.14164

>  <molecular_formula>  (1813) 
C17H22O6

>  <alogp>  (1813) 
0.66

>  <topological_polar_surface_area>  (1813) 
93.06

>  <rotatable_bond_count>  (1813) 
3

>  <hydrogen_bond_acceptors>  (1813) 
6

>  <hydrogen_bond_donors>  (1813) 
2

>  <hydrogen_bond_acceptors_lipinski>  (1813) 
6

>  <hydrogen_bond_donors_lipinski>  (1813) 
2

>  <lipinski_rule_of_five_violations>  (1813) 
0

>  <aromatic_rings_count>  (1813) 
0

>  <qed_drug_likeliness>  (1813) 
0.45

>  <formal_charge>  (1813) 
0

>  <fractioncsp3>  (1813) 
0.65

>  <number_of_minimal_rings>  (1813) 
3

>  <van_der_walls_volume>  (1813) 
nan

>  <contains_sugar>  (1813) 
False

>  <contains_ring_sugars>  (1813) 
False

>  <contains_linear_sugars>  (1813) 
False

>  <murcko_framework>  (1813) 
O1C2CCC3CC=CC13CC2

>  <np_likeness>  (1813) 
3.06

>  <chemical_class>  (1813) 
Fatty Acyls

>  <chemical_sub_class>  (1813) 
Fatty acid esters

>  <chemical_super_class>  (1813) 
Lipids and lipid-like molecules

>  <direct_parent_classification>  (1813) 
Fatty acid esters

>  <np_classifier_pathway>  (1813) 
Terpenoids

>  <np_classifier_superclass>  (1813) 
Sesquiterpenoids

>  <np_classifier_class>  (1813) 
Germacrane sesquiterpenoids

>  <np_classifier_is_glycoside>  (1813) 
False

>  <organisms>  (1813) 
Aspergillus terreus

>  <collections>  (1813) 
Latin America dataset|NuBBEDB

>  <dois>  (1813) 
10.1016/j.phytochem.2013.09.022

>  <synonyms>  (1813) 
5-((1S2R4aS8aR)-12344a788a-octahydro-124a5-tetramethyl-7-oxonaphthalen-1-yl)-3-methylpentanoic acid

>  <cas>  (1813) 
nan

$$$$

     RDKit          2D

 35 37  0  0  0  0  0  0  0  0999 V2000
   -6.2826   -3.8593    0.0000 C   0  0  0  0  0  0  0  0  0  0  0  0
   -4.7915   -3.6966    0.0000 O   0  0  0  0  0  0  0  0  0  0  0  0
   -4.1868   -2.3238    0.0000 C   0  0  0  0  0  0  0  0  0  0  0  0
   -5.0734   -1.1138    0.0000 C   0  0  0  0  0  0  0  0  0  0  0  0
   -4.4688    0.2589    0.0000 C   0  0  0  0  0  0  0  0  0  0  0  0
   -5.3553    1.4689    0.0000 O   0  0  0  0  0  0  0  0  0  0  0  0
   -6.8464    1.3061    0.0000 C   0  0  0  0  0  0  0  0  0  0  0  0
   -7.7330    2.5161    0.0000 C   0  0  0  0  0  0  0  0  0  0  0  0
   -7.4511   -0.0666    0.0000 O   0  0  0  0  0  0  0  0  0  0  0  0
   -2.9776    0.4217    0.0000 C   0  0  0  0  0  0  0  0  0  0  0  0
   -2.3730    1.7944    0.0000 C   0  0  0  0  0  0  0  0  0  0  0  0
   -3.2596    3.0044    0.0000 O   0  0  0  0  0  0  0  0  0  0  0  0
   -0.8819    1.9572    0.0000 C   0  0  0  0  0  0  0  0  0  0  0  0
   -0.2773    3.3300    0.0000 O   0  0  0  0  0  0  0  0  0  0  0  0
    1.2139    3.4927    0.0000 C   0  0  0  0  0  0  0  0  0  0  0  0
    0.0047    0.7472    0.0000 C   0  0  0  0  0  0  0  0  0  0  0  0
    1.4958    0.9100    0.0000 C   0  0  0  0  0  0  0  0  0  0  0  0
    2.1004    2.2827    0.0000 C   0  0  0  0  0  0  0  0  0  0  0  0
    3.5916    2.4455    0.0000 C   0  0  0  0  0  0  0  0  0  0  0  0
    4.4781    1.2355    0.0000 C   0  0  0  0  0  0  0  0  0  0  0  0
    5.9692    1.3983    0.0000 O   0  0  0  0  0  0  0  0  0  0  0  0
    6.5738    2.7711    0.0000 C   0  0  0  0  0  0  0  0  0  0  0  0
    3.8735   -0.1372    0.0000 C   0  0  0  0  0  0  0  0  0  0  0  0
    4.7600   -1.3472    0.0000 O   0  0  0  0  0  0  0  0  0  0  0  0
    6.2512   -1.1844    0.0000 C   0  0  0  0  0  0  0  0  0  0  0  0
    7.1377   -2.3944    0.0000 C   0  0  0  0  0  0  0  0  0  0  0  0
    6.8558    0.1883    0.0000 O   0  0  0  0  0  0  0  0  0  0  0  0
    2.3823   -0.3000    0.0000 C   0  0  0  0  0  0  0  0  0  0  0  0
    1.7777   -1.6727    0.0000 O   0  0  0  0  0  0  0  0  0  0  0  0
    2.6643   -2.8827    0.0000 C   0  0  0  0  0  0  0  0  0  0  0  0
    2.0596   -4.2555    0.0000 C   0  0  0  0  0  0  0  0  0  0  0  0
    4.1554   -2.7200    0.0000 O   0  0  0  0  0  0  0  0  0  0  0  0
   -0.6000   -0.6255    0.0000 O   0  0  0  0  0  0  0  0  0  0  0  0
   -2.0911   -0.7883    0.0000 C   0  0  0  0  0  0  0  0  0  0  0  0
   -2.6957   -2.1610    0.0000 C   0  0  0  0  0  0  0  0  0  0  0  0
  1  2  1  0
  2  3  1  0
  3  4  2  0
  4  5  1  0
  5  6  1  0
  6  7  1  0
  7  8  1  0
  7  9  2  0
  5 10  2  0
 10 11  1  0
 11 12  2  0
 11 13  1  0
 13 14  1  0
 14 15  1  0
 13 16  2  0
 16 17  1  0
 17 18  2  0
 18 19  1  0
 19 20  2  0
 20 21  1  0
 21 22  1  0
 20 23  1  0
 23 24  1  0
 24 25  1  0
 25 26  1  0
 25 27  2  0
 23 28  2  0
 28 29  1  0
 29 30  1  0
 30 31  1  0
 30 32  2  0
 16 33  1  0
 33 34  1  0
 34 35  2  0
 35  3  1  0
 34 10  1  0
 28 17  1  0
M  END
>  <identifier>  (1814) 
CNP0082831.0

>  <canonical_smiles>  (1814) 
COC1=CC(OC(C)=O)=C2C(=O)C(OC)=C(C3=CC=C(OC)C(OC(C)=O)=C3OC(C)=O)OC2=C1

>  <standard_inchi>  (1814) 
InChI=1S/C24H22O11/c1-11(25)32-17-9-14(29-4)10-18-19(17)20(28)24(31-6)22(35-18)15-7-8-16(30-5)23(34-13(3)27)21(15)33-12(2)26/h7-10H,1-6H3

>  <standard_inchi_key>  (1814) 
LGFPQTPSTXZVLZ-UHFFFAOYSA-N

>  <name>  (1814) 
nan

>  <iupac_name>  (1814) 
[2-(2,3-diacetoxy-4-methoxy-phenyl)-3,7-dimethoxy-4-oxo-chromen-5-yl] acetate

>  <annotation_level>  (1814) 
4

>  <total_atom_count>  (1814) 
57

>  <heavy_atom_count>  (1814) 
35

>  <molecular_weight>  (1814) 
486.43

>  <exact_molecular_weight>  (1814) 
486.11621

>  <molecular_formula>  (1814) 
C24H22O11

>  <alogp>  (1814) 
3.26

>  <topological_polar_surface_area>  (1814) 
136.80

>  <rotatable_bond_count>  (1814) 
7

>  <hydrogen_bond_acceptors>  (1814) 
11

>  <hydrogen_bond_donors>  (1814) 
0

>  <hydrogen_bond_acceptors_lipinski>  (1814) 
11

>  <hydrogen_bond_donors_lipinski>  (1814) 
0

>  <lipinski_rule_of_five_violations>  (1814) 
1

>  <aromatic_rings_count>  (1814) 
3

>  <qed_drug_likeliness>  (1814) 
0.36

>  <formal_charge>  (1814) 
0

>  <fractioncsp3>  (1814) 
0.25

>  <number_of_minimal_rings>  (1814) 
3

>  <van_der_walls_volume>  (1814) 
nan

>  <contains_sugar>  (1814) 
False

>  <contains_ring_sugars>  (1814) 
False

>  <contains_linear_sugars>  (1814) 
False

>  <murcko_framework>  (1814) 
O1c2ccccc2CC=C1c3ccccc3

>  <np_likeness>  (1814) 
0.85

>  <chemical_class>  (1814) 
Flavonoids

>  <chemical_sub_class>  (1814) 
O-methylated flavonoids

>  <chemical_super_class>  (1814) 
Phenylpropanoids and polyketides

>  <direct_parent_classification>  (1814) 
3-O-methylated flavonoids

>  <np_classifier_pathway>  (1814) 
Shikimates and Phenylpropanoids

>  <np_classifier_superclass>  (1814) 
Flavonoids

>  <np_classifier_class>  (1814) 
Flavonols

>  <np_classifier_is_glycoside>  (1814) 
False

>  <organisms>  (1814) 
Apuleia leiocarpa

>  <collections>  (1814) 
Latin America dataset|NuBBEDB|WikiData Natural Products|ZINC NP

>  <dois>  (1814) 
10.1016/S0031-9422(00)89891-X

>  <synonyms>  (1814) 
Apuleidin triacetate

>  <cas>  (1814) 
nan

$$$$

     RDKit          2D

 28 31  0  0  0  0  0  0  0  0999 V2000
    1.3709   -3.2933    0.0000 C   0  0  0  0  0  0  0  0  0  0  0  0
    2.6895   -2.5784    0.0000 O   0  0  0  0  0  0  0  0  0  0  0  0
    2.7298   -1.0789    0.0000 C   0  0  0  0  0  0  0  0  0  0  0  0
    1.4513   -0.2944    0.0000 C   0  0  0  0  0  0  0  0  0  0  0  0
    0.1326   -1.0092    0.0000 C   0  0  0  0  0  0  0  0  0  0  0  0
    0.0924   -2.5087    0.0000 O   0  0  0  0  0  0  0  0  0  0  0  0
   -1.1458   -0.2247    0.0000 C   0  0  0  0  0  0  0  0  0  0  0  0
   -2.4645   -0.9396    0.0000 C   0  0  0  0  0  0  0  0  0  0  0  0
   -2.5047   -2.4390    0.0000 O   0  0  0  0  0  0  0  0  0  0  0  0
   -3.7430   -0.1550    0.0000 C   0  0  0  0  0  0  0  0  0  0  0  0
   -3.7027    1.3445    0.0000 C   0  0  0  0  0  0  0  0  0  0  0  0
   -4.9812    2.1290    0.0000 C   0  0  0  0  0  0  0  0  0  0  0  0
   -6.2999    1.4141    0.0000 C   0  0  0  0  0  0  0  0  0  0  0  0
   -7.7135    1.9158    0.0000 O   0  0  0  0  0  0  0  0  0  0  0  0
   -8.6274    0.7263    0.0000 C   0  0  0  0  0  0  0  0  0  0  0  0
   -7.7786   -0.5104    0.0000 O   0  0  0  0  0  0  0  0  0  0  0  0
   -6.3401   -0.0853    0.0000 C   0  0  0  0  0  0  0  0  0  0  0  0
   -5.0617   -0.8699    0.0000 C   0  0  0  0  0  0  0  0  0  0  0  0
    1.4915    1.2051    0.0000 C   0  0  0  0  0  0  0  0  0  0  0  0
    2.8102    1.9200    0.0000 C   0  0  0  0  0  0  0  0  0  0  0  0
    4.0887    1.1354    0.0000 C   0  0  0  0  0  0  0  0  0  0  0  0
    4.0485   -0.3640    0.0000 C   0  0  0  0  0  0  0  0  0  0  0  0
    5.3269   -1.1486    0.0000 C   0  0  0  0  0  0  0  0  0  0  0  0
    6.6456   -0.4337    0.0000 C   0  0  0  0  0  0  0  0  0  0  0  0
    6.6858    1.0658    0.0000 C   0  0  0  0  0  0  0  0  0  0  0  0
    7.2365    2.4610    0.0000 C   0  0  0  0  0  0  0  0  0  0  0  0
    8.1555    0.7658    0.0000 C   0  0  0  0  0  0  0  0  0  0  0  0
    5.4074    1.8503    0.0000 O   0  0  0  0  0  0  0  0  0  0  0  0
  1  2  1  0
  2  3  1  0
  3  4  2  0
  4  5  1  0
  5  6  2  0
  5  7  1  0
  7  8  1  0
  8  9  2  0
  8 10  1  0
 10 11  2  0
 11 12  1  0
 12 13  2  0
 13 14  1  0
 14 15  1  0
 15 16  1  0
 16 17  1  0
 17 18  2  0
  4 19  1  0
 19 20  2  0
 20 21  1  0
 21 22  2  0
 22 23  1  0
 23 24  2  0
 24 25  1  0
 25 26  1  0
 25 27  1  0
 25 28  1  0
 22  3  1  0
 18 10  1  0
 28 21  1  0
 17 13  1  0
M  END
>  <identifier>  (1815) 
CNP0229212.0

>  <canonical_smiles>  (1815) 
COC1=C(C(=O)CC(=O)C2=CC=C3OCOC3=C2)C=CC2=C1C=CC(C)(C)O2

>  <standard_inchi>  (1815) 
InChI=1S/C22H20O6/c1-22(2)9-8-15-18(28-22)7-5-14(21(15)25-3)17(24)11-16(23)13-4-6-19-20(10-13)27-12-26-19/h4-10H,11-12H2,1-3H3

>  <standard_inchi_key>  (1815) 
LHCSKOARRBVEJM-UHFFFAOYSA-N

>  <name>  (1815) 
nan

>  <iupac_name>  (1815) 
1-(1,3-benzodioxol-5-yl)-3-(5-methoxy-2,2-dimethyl-chromen-6-yl)propane-1,3-dione

>  <annotation_level>  (1815) 
4

>  <total_atom_count>  (1815) 
48

>  <heavy_atom_count>  (1815) 
28

>  <molecular_weight>  (1815) 
380.4

>  <exact_molecular_weight>  (1815) 
380.12599

>  <molecular_formula>  (1815) 
C22H20O6

>  <alogp>  (1815) 
4.06

>  <topological_polar_surface_area>  (1815) 
71.06

>  <rotatable_bond_count>  (1815) 
5

>  <hydrogen_bond_acceptors>  (1815) 
6

>  <hydrogen_bond_donors>  (1815) 
0

>  <hydrogen_bond_acceptors_lipinski>  (1815) 
6

>  <hydrogen_bond_donors_lipinski>  (1815) 
0

>  <lipinski_rule_of_five_violations>  (1815) 
0

>  <aromatic_rings_count>  (1815) 
2

>  <qed_drug_likeliness>  (1815) 
0.58

>  <formal_charge>  (1815) 
0

>  <fractioncsp3>  (1815) 
0.27

>  <number_of_minimal_rings>  (1815) 
4

>  <van_der_walls_volume>  (1815) 
335.06

>  <contains_sugar>  (1815) 
False

>  <contains_ring_sugars>  (1815) 
False

>  <contains_linear_sugars>  (1815) 
False

>  <murcko_framework>  (1815) 
O1c2ccc(cc2OC1)CCCc3ccc4OCC=Cc4c3

>  <np_likeness>  (1815) 
1.21

>  <chemical_class>  (1815) 
Linear 1,3-diarylpropanoids

>  <chemical_sub_class>  (1815) 
Chalcones and dihydrochalcones

>  <chemical_super_class>  (1815) 
Phenylpropanoids and polyketides

>  <direct_parent_classification>  (1815) 
Retro-dihydrochalcones

>  <np_classifier_pathway>  (1815) 
Shikimates and Phenylpropanoids

>  <np_classifier_superclass>  (1815) 
Flavonoids

>  <np_classifier_class>  (1815) 
Chalcones

>  <np_classifier_is_glycoside>  (1815) 
False

>  <organisms>  (1815) 
Lonchocarpus subglaucescens

>  <collections>  (1815) 
KNApSaCK|Latin America dataset|NuBBEDB|Super Natural II|UNPD (Universal Natural Products Database)|WikiData Natural Products|ZINC NP

>  <dois>  (1815) 
10.1016/0031-9422(96)00134-3|10.1211/JPP.61.02.0017|10.1211/jpp/61.02.0017

>  <synonyms>  (1815) 
3,4-Methylenedioxy-2'-methoxy-6'',6''-dimethlchromeno-[2'',3'':4',3']-beta-hydroxychalcone|34-methylenedioxy-2'-methoxy-6''6''-dimethylchromeno[2''3'':4'3']-\u221a\u00e9\u00ac\u2264-oxochalcone

>  <cas>  (1815) 
nan

$$$$

     RDKit          2D

 33 36  0  0  0  0  0  0  0  0999 V2000
    5.2488    0.1875    0.0000 C   0  0  0  0  0  0  0  0  0  0  0  0
    4.1160    1.1708    0.0000 C   0  0  0  0  0  0  0  0  0  0  0  0
    2.6981    0.6814    0.0000 O   0  0  0  0  0  0  0  0  0  0  0  0
    1.5653    1.6646    0.0000 C   0  0  0  0  0  0  0  0  0  0  0  0
    0.1474    1.1752    0.0000 O   0  0  0  0  0  0  0  0  0  0  0  0
   -0.1378   -0.2974    0.0000 C   0  0  0  0  0  0  0  0  0  0  0  0
   -1.5557   -0.7868    0.0000 C   0  0  0  0  0  0  0  0  0  0  0  0
   -2.6885    0.1965    0.0000 C   0  0  0  0  0  0  0  0  0  0  0  0
   -2.4033    1.6691    0.0000 C   0  0  0  0  0  0  0  0  0  0  0  0
   -3.5361    2.6524    0.0000 C   0  0  0  0  0  0  0  0  0  0  0  0
   -3.2510    4.1250    0.0000 O   0  0  0  0  0  0  0  0  0  0  0  0
   -4.9540    2.1630    0.0000 C   0  0  0  0  0  0  0  0  0  0  0  0
   -6.0868    3.1462    0.0000 O   0  0  0  0  0  0  0  0  0  0  0  0
   -5.2392    0.6903    0.0000 C   0  0  0  0  0  0  0  0  0  0  0  0
   -6.6571    0.2009    0.0000 O   0  0  0  0  0  0  0  0  0  0  0  0
   -4.1064   -0.2929    0.0000 C   0  0  0  0  0  0  0  0  0  0  0  0
   -1.8408   -2.2595    0.0000 O   0  0  0  0  0  0  0  0  0  0  0  0
   -0.7081   -3.2427    0.0000 C   0  0  0  0  0  0  0  0  0  0  0  0
   -0.9932   -4.7154    0.0000 C   0  0  0  0  0  0  0  0  0  0  0  0
    0.1396   -5.6986    0.0000 C   0  0  0  0  0  0  0  0  0  0  0  0
   -0.1455   -7.1713    0.0000 O   0  0  0  0  0  0  0  0  0  0  0  0
    1.5575   -5.2092    0.0000 C   0  0  0  0  0  0  0  0  0  0  0  0
    1.8427   -3.7366    0.0000 C   0  0  0  0  0  0  0  0  0  0  0  0
    3.2606   -3.2472    0.0000 O   0  0  0  0  0  0  0  0  0  0  0  0
    0.7099   -2.7533    0.0000 C   0  0  0  0  0  0  0  0  0  0  0  0
    0.9950   -1.2807    0.0000 C   0  0  0  0  0  0  0  0  0  0  0  0
    2.4129   -0.7913    0.0000 O   0  0  0  0  0  0  0  0  0  0  0  0
    1.8504    3.1373    0.0000 C   0  0  0  0  0  0  0  0  0  0  0  0
    0.7176    4.1205    0.0000 O   0  0  0  0  0  0  0  0  0  0  0  0
    3.2683    3.6267    0.0000 C   0  0  0  0  0  0  0  0  0  0  0  0
    3.5535    5.0993    0.0000 O   0  0  0  0  0  0  0  0  0  0  0  0
    4.4011    2.6434    0.0000 C   0  0  0  0  0  0  0  0  0  0  0  0
    5.8190    3.1328    0.0000 O   0  0  0  0  0  0  0  0  0  0  0  0
  2  1  1  6
  2  3  1  0
  3  4  1  0
  4  5  1  0
  5  6  1  0
  6  7  2  0
  7  8  1  0
  8  9  2  0
  9 10  1  0
 10 11  1  0
 10 12  2  0
 12 13  1  0
 12 14  1  0
 14 15  1  0
 14 16  2  0
  7 17  1  0
 17 18  1  0
 18 19  2  0
 19 20  1  0
 20 21  1  0
 20 22  2  0
 22 23  1  0
 23 24  1  0
 23 25  2  0
 25 26  1  0
 26 27  2  0
  4 28  1  0
 28 29  1  6
 28 30  1  0
 30 31  1  1
 30 32  1  0
 32 33  1  1
 32  2  1  0
 26  6  1  0
 16  8  1  0
 25 18  1  0
M  END
>  <identifier>  (1816) 
CNP0365444.12

>  <canonical_smiles>  (1816) 
C[C@@H]1OC(OC2=C(C3=CC(O)=C(O)C(O)=C3)OC3=CC(O)=CC(O)=C3C2=O)[C@H](O)[C@@H](O)[C@H]1O

>  <standard_inchi>  (1816) 
InChI=1S/C21H20O12/c1-6-14(26)17(29)18(30)21(31-6)33-20-16(28)13-9(23)4-8(22)5-12(13)32-19(20)7-2-10(24)15(27)11(25)3-7/h2-6,14,17-18,21-27,29-30H,1H3/t6-,14-,17-,18+,21?/m0/s1

>  <standard_inchi_key>  (1816) 
DCYOADKBABEMIQ-WZMJHPEHSA-N

>  <name>  (1816) 
nan

>  <iupac_name>  (1816) 
5,7-dihydroxy-3-[(3~{R},4~{S},5~{R},6~{S})-3,4,5-trihydroxy-6-methyl-tetrahydropyran-2-yl]oxy-2-(3,4,5-trihydroxyphenyl)chromen-4-one

>  <annotation_level>  (1816) 
4

>  <total_atom_count>  (1816) 
53

>  <heavy_atom_count>  (1816) 
33

>  <molecular_weight>  (1816) 
464.38

>  <exact_molecular_weight>  (1816) 
464.09548

>  <molecular_formula>  (1816) 
C21H20O12

>  <alogp>  (1816) 
0.19

>  <topological_polar_surface_area>  (1816) 
210.51

>  <rotatable_bond_count>  (1816) 
3

>  <hydrogen_bond_acceptors>  (1816) 
12

>  <hydrogen_bond_donors>  (1816) 
8

>  <hydrogen_bond_acceptors_lipinski>  (1816) 
12

>  <hydrogen_bond_donors_lipinski>  (1816) 
8

>  <lipinski_rule_of_five_violations>  (1816) 
2

>  <aromatic_rings_count>  (1816) 
3

>  <qed_drug_likeliness>  (1816) 
0.24

>  <formal_charge>  (1816) 
0

>  <fractioncsp3>  (1816) 
0.29

>  <number_of_minimal_rings>  (1816) 
4

>  <van_der_walls_volume>  (1816) 
nan

>  <contains_sugar>  (1816) 
True

>  <contains_ring_sugars>  (1816) 
True

>  <contains_linear_sugars>  (1816) 
False

>  <murcko_framework>  (1816) 
O1c2ccccc2CC(OC3OCCCC3)=C1c4ccccc4

>  <np_likeness>  (1816) 
2.19

>  <chemical_class>  (1816) 
Flavonoids

>  <chemical_sub_class>  (1816) 
Flavonoid glycosides

>  <chemical_super_class>  (1816) 
Phenylpropanoids and polyketides

>  <direct_parent_classification>  (1816) 
Flavonoid-3-O-glycosides

>  <np_classifier_pathway>  (1816) 
Shikimates and Phenylpropanoids

>  <np_classifier_superclass>  (1816) 
Flavonoids

>  <np_classifier_class>  (1816) 
Flavonols

>  <np_classifier_is_glycoside>  (1816) 
True

>  <organisms>  (1816) 
Euxylophora paraensis

>  <collections>  (1816) 
Latin America dataset|NuBBEDB

>  <dois>  (1816) 
10.1590/S0100-40422012001100004

>  <synonyms>  (1816) 
Myricetin-3-O-\u221a\u00e9\u00ac\u00b1-L-rhamnopyranoside

>  <cas>  (1816) 
nan

$$$$

     RDKit          2D

 30 32  0  0  0  0  0  0  0  0999 V2000
   -3.7367   -4.4435    0.0000 C   0  0  0  0  0  0  0  0  0  0  0  0
   -2.3451   -3.8837    0.0000 O   0  0  0  0  0  0  0  0  0  0  0  0
   -2.1341   -2.3986    0.0000 C   0  0  0  0  0  0  0  0  0  0  0  0
   -3.3146   -1.4733    0.0000 C   0  0  0  0  0  0  0  0  0  0  0  0
   -4.7063   -2.0331    0.0000 O   0  0  0  0  0  0  0  0  0  0  0  0
   -3.1036    0.0118    0.0000 C   0  0  0  0  0  0  0  0  0  0  0  0
   -4.2842    0.9371    0.0000 C   0  0  0  0  0  0  0  0  0  0  0  0
   -4.0732    2.4222    0.0000 C   0  0  0  0  0  0  0  0  0  0  0  0
   -5.2538    3.3475    0.0000 C   0  0  0  0  0  0  0  0  0  0  0  0
   -5.0427    4.8326    0.0000 C   0  0  0  0  0  0  0  0  0  0  0  0
   -6.6454    2.7877    0.0000 C   0  0  0  0  0  0  0  0  0  0  0  0
   -1.7120    0.5716    0.0000 C   0  0  0  0  0  0  0  0  0  0  0  0
   -1.5009    2.0566    0.0000 O   0  0  0  0  0  0  0  0  0  0  0  0
   -0.5314   -0.3538    0.0000 C   0  0  0  0  0  0  0  0  0  0  0  0
   -0.7424   -1.8388    0.0000 C   0  0  0  0  0  0  0  0  0  0  0  0
    0.4382   -2.7641    0.0000 N   0  0  0  0  0  0  0  0  0  0  0  0
    1.8298   -2.2044    0.0000 C   0  0  0  0  0  0  0  0  0  0  0  0
    3.0104   -3.1297    0.0000 C   0  0  0  0  0  0  0  0  0  0  0  0
    2.7994   -4.6148    0.0000 O   0  0  0  0  0  0  0  0  0  0  0  0
    4.4021   -2.5699    0.0000 C   0  0  0  0  0  0  0  0  0  0  0  0
    4.6131   -1.0848    0.0000 C   0  0  0  0  0  0  0  0  0  0  0  0
    3.4325   -0.1595    0.0000 C   0  0  0  0  0  0  0  0  0  0  0  0
    3.6435    1.3256    0.0000 C   0  0  0  0  0  0  0  0  0  0  0  0
    5.0352    1.8853    0.0000 C   0  0  0  0  0  0  0  0  0  0  0  0
    5.2462    3.3704    0.0000 C   0  0  0  0  0  0  0  0  0  0  0  0
    6.6379    3.9302    0.0000 C   0  0  0  0  0  0  0  0  0  0  0  0
    4.0656    4.2957    0.0000 C   0  0  0  0  0  0  0  0  0  0  0  0
    2.0409   -0.7193    0.0000 C   0  0  0  0  0  0  0  0  0  0  0  0
    0.8603    0.2060    0.0000 C   0  0  0  0  0  0  0  0  0  0  0  0
    1.0713    1.6911    0.0000 O   0  0  0  0  0  0  0  0  0  0  0  0
  1  2  1  0
  2  3  1  0
  3  4  2  0
  4  5  1  0
  4  6  1  0
  6  7  1  0
  7  8  1  0
  8  9  2  0
  9 10  1  0
  9 11  1  0
  6 12  2  0
 12 13  1  0
 12 14  1  0
 14 15  2  0
 15 16  1  0
 16 17  1  0
 17 18  2  0
 18 19  1  0
 18 20  1  0
 20 21  2  0
 21 22  1  0
 22 23  1  0
 23 24  1  0
 24 25  2  0
 25 26  1  0
 25 27  1  0
 22 28  2  0
 28 29  1  0
 29 30  2  0
 15  3  1  0
 28 17  1  0
 29 14  1  0
M  END
>  <identifier>  (1817) 
CNP0290385.0

>  <canonical_smiles>  (1817) 
COC1=C(O)C(CC=C(C)C)=C(O)C2=C1NC1=C(O)C=CC(CC=C(C)C)=C1C2=O

>  <standard_inchi>  (1817) 
InChI=1S/C24H27NO5/c1-12(2)6-8-14-9-11-16(26)19-17(14)23(29)18-20(25-19)24(30-5)22(28)15(21(18)27)10-7-13(3)4/h6-7,9,11,26-28H,8,10H2,1-5H3,(H,25,29)

>  <standard_inchi_key>  (1817) 
RQAZXQAGQYDOQC-UHFFFAOYSA-N

>  <name>  (1817) 
nan

>  <iupac_name>  (1817) 
1,3,5-trihydroxy-4-methoxy-2,8-bis(3-methylbut-2-enyl)-10~{H}-acridin-9-one

>  <annotation_level>  (1817) 
4

>  <total_atom_count>  (1817) 
57

>  <heavy_atom_count>  (1817) 
30

>  <molecular_weight>  (1817) 
409.48

>  <exact_molecular_weight>  (1817) 
409.18892

>  <molecular_formula>  (1817) 
C24H27NO5

>  <alogp>  (1817) 
4.82

>  <topological_polar_surface_area>  (1817) 
102.78

>  <rotatable_bond_count>  (1817) 
5

>  <hydrogen_bond_acceptors>  (1817) 
5

>  <hydrogen_bond_donors>  (1817) 
4

>  <hydrogen_bond_acceptors_lipinski>  (1817) 
5

>  <hydrogen_bond_donors_lipinski>  (1817) 
4

>  <lipinski_rule_of_five_violations>  (1817) 
0

>  <aromatic_rings_count>  (1817) 
3

>  <qed_drug_likeliness>  (1817) 
0.36

>  <formal_charge>  (1817) 
0

>  <fractioncsp3>  (1817) 
0.29

>  <number_of_minimal_rings>  (1817) 
3

>  <van_der_walls_volume>  (1817) 
nan

>  <contains_sugar>  (1817) 
False

>  <contains_ring_sugars>  (1817) 
False

>  <contains_linear_sugars>  (1817) 
False

>  <murcko_framework>  (1817) 
c1ccc2c(c1)Nc3ccccc3C2

>  <np_likeness>  (1817) 
1.76

>  <chemical_class>  (1817) 
Quinolines and derivatives

>  <chemical_sub_class>  (1817) 
Benzoquinolines

>  <chemical_super_class>  (1817) 
Organoheterocyclic compounds

>  <direct_parent_classification>  (1817) 
Acridones

>  <np_classifier_pathway>  (1817) 
Alkaloids

>  <np_classifier_superclass>  (1817) 
Anthranilic acid alkaloids

>  <np_classifier_class>  (1817) 
Acridone alkaloids

>  <np_classifier_is_glycoside>  (1817) 
False

>  <organisms>  (1817) 
Swinglea glutinosa

>  <collections>  (1817) 
Latin America dataset|NuBBEDB|WikiData Natural Products

>  <dois>  (1817) 
10.1080/14786410600907002

>  <synonyms>  (1817) 
135-trihydroxy-28-bis(3-methylbut-2-enyl)-10-methyl-9-acridone

>  <cas>  (1817) 
nan

$$$$

     RDKit          2D

 20 22  0  0  0  0  0  0  0  0999 V2000
    6.9608    0.6289    0.0000 C   0  0  0  0  0  0  0  0  0  0  0  0
    5.4884    0.9154    0.0000 C   0  0  0  0  0  0  0  0  0  0  0  0
    5.0003    2.3338    0.0000 C   0  0  0  0  0  0  0  0  0  0  0  0
    4.5041   -0.2165    0.0000 C   0  0  0  0  0  0  0  0  0  0  0  0
    3.0317    0.0700    0.0000 C   0  0  0  0  0  0  0  0  0  0  0  0
    2.0474   -1.0618    0.0000 O   0  0  0  0  0  0  0  0  0  0  0  0
    0.5750   -0.7754    0.0000 C   0  0  0  0  0  0  0  0  0  0  0  0
    0.0869    0.6430    0.0000 C   0  0  0  0  0  0  0  0  0  0  0  0
   -1.3855    0.9295    0.0000 C   0  0  0  0  0  0  0  0  0  0  0  0
   -2.3698   -0.2024    0.0000 C   0  0  0  0  0  0  0  0  0  0  0  0
   -3.8422    0.0841    0.0000 C   0  0  0  0  0  0  0  0  0  0  0  0
   -4.3302    1.5025    0.0000 C   0  0  0  0  0  0  0  0  0  0  0  0
   -3.3459    2.6344    0.0000 C   0  0  0  0  0  0  0  0  0  0  0  0
   -3.8340    4.0528    0.0000 O   0  0  0  0  0  0  0  0  0  0  0  0
   -1.8736    2.3479    0.0000 O   0  0  0  0  0  0  0  0  0  0  0  0
   -1.8817   -1.6207    0.0000 C   0  0  0  0  0  0  0  0  0  0  0  0
   -0.4093   -1.9072    0.0000 C   0  0  0  0  0  0  0  0  0  0  0  0
   -0.2268   -3.3961    0.0000 O   0  0  0  0  0  0  0  0  0  0  0  0
   -1.5864   -4.0297    0.0000 C   0  0  0  0  0  0  0  0  0  0  0  0
   -2.6092   -2.9325    0.0000 O   0  0  0  0  0  0  0  0  0  0  0  0
  1  2  1  0
  2  3  1  0
  2  4  2  0
  4  5  1  0
  5  6  1  0
  6  7  1  0
  7  8  2  0
  8  9  1  0
  9 10  2  0
 10 11  1  0
 11 12  2  0
 12 13  1  0
 13 14  2  0
 13 15  1  0
 10 16  1  0
 16 17  2  0
 17 18  1  0
 18 19  1  0
 19 20  1  0
 17  7  1  0
 15  9  1  0
 20 16  1  0
M  END
>  <identifier>  (1818) 
CNP0331233.0

>  <canonical_smiles>  (1818) 
CC(C)=CCOC1=CC2=C(C=CC(=O)O2)C2=C1OCO2

>  <standard_inchi>  (1818) 
InChI=1S/C15H14O5/c1-9(2)5-6-17-12-7-11-10(3-4-13(16)20-11)14-15(12)19-8-18-14/h3-5,7H,6,8H2,1-2H3

>  <standard_inchi_key>  (1818) 
JHGZOAUSPBHOGM-UHFFFAOYSA-N

>  <name>  (1818) 
68691-87-2

>  <iupac_name>  (1818) 
4-(3-methylbut-2-enoxy)-[1,3]dioxolo[4,5-f]chromen-7-one

>  <annotation_level>  (1818) 
5

>  <total_atom_count>  (1818) 
34

>  <heavy_atom_count>  (1818) 
20

>  <molecular_weight>  (1818) 
274.27

>  <exact_molecular_weight>  (1818) 
274.08412

>  <molecular_formula>  (1818) 
C15H14O5

>  <alogp>  (1818) 
2.87

>  <topological_polar_surface_area>  (1818) 
57.90

>  <rotatable_bond_count>  (1818) 
3

>  <hydrogen_bond_acceptors>  (1818) 
5

>  <hydrogen_bond_donors>  (1818) 
0

>  <hydrogen_bond_acceptors_lipinski>  (1818) 
5

>  <hydrogen_bond_donors_lipinski>  (1818) 
0

>  <lipinski_rule_of_five_violations>  (1818) 
0

>  <aromatic_rings_count>  (1818) 
2

>  <qed_drug_likeliness>  (1818) 
0.64

>  <formal_charge>  (1818) 
0

>  <fractioncsp3>  (1818) 
0.27

>  <number_of_minimal_rings>  (1818) 
3

>  <van_der_walls_volume>  (1818) 
nan

>  <contains_sugar>  (1818) 
False

>  <contains_ring_sugars>  (1818) 
False

>  <contains_linear_sugars>  (1818) 
False

>  <murcko_framework>  (1818) 
O1c2ccc3OCC=Cc3c2OC1

>  <np_likeness>  (1818) 
1.20

>  <chemical_class>  (1818) 
Coumarins and derivatives

>  <chemical_sub_class>  (1818) 
Coumarins and derivatives

>  <chemical_super_class>  (1818) 
Phenylpropanoids and polyketides

>  <direct_parent_classification>  (1818) 
Coumarins and derivatives

>  <np_classifier_pathway>  (1818) 
Shikimates and Phenylpropanoids

>  <np_classifier_superclass>  (1818) 
Coumarins

>  <np_classifier_class>  (1818) 
Furocoumarins

>  <np_classifier_is_glycoside>  (1818) 
False

>  <organisms>  (1818) 
Pterocaulon balansae

>  <collections>  (1818) 
Latin America dataset|NuBBEDB|UNPD (Universal Natural Products Database)|WikiData Natural Products|ZINC NP

>  <dois>  (1818) 
10.1016/0031-9422(81)80042-8

>  <synonyms>  (1818) 
4-[(3-Methylbut-2-en-1-yl)oxy]-2H,7H-[1,3]dioxolo[4,5-f][1]benzopyran-7-one|7-(3-Methyl-2-butenylloxy)-56-methylenedioxycoumarin|DTXSID70564604

>  <cas>  (1818) 
nan

$$$$

     RDKit          2D

 34 38  0  0  0  0  0  0  0  0999 V2000
    2.9412   -5.4709    0.0000 C   0  0  0  0  0  0  0  0  0  0  0  0
    3.8157   -4.2522    0.0000 O   0  0  0  0  0  0  0  0  0  0  0  0
    3.1976   -2.8855    0.0000 C   0  0  0  0  0  0  0  0  0  0  0  0
    1.7049   -2.7375    0.0000 O   0  0  0  0  0  0  0  0  0  0  0  0
    4.0721   -1.6668    0.0000 C   0  0  0  0  0  0  0  0  0  0  0  0
    3.4540   -0.3001    0.0000 C   0  0  0  0  0  0  0  0  0  0  0  0
    4.3285    0.9186    0.0000 C   0  0  0  0  0  0  0  0  0  0  0  0
    5.3768   -0.1543    0.0000 C   0  0  0  0  0  0  0  0  0  0  0  0
    5.5671    1.7646    0.0000 C   0  0  0  0  0  0  0  0  0  0  0  0
    3.7104    2.2853    0.0000 C   0  0  0  0  0  0  0  0  0  0  0  0
    4.5849    3.5040    0.0000 O   0  0  0  0  0  0  0  0  0  0  0  0
    2.2177    2.4333    0.0000 C   0  0  0  0  0  0  0  0  0  0  0  0
    0.7250    2.5813    0.0000 C   0  0  0  0  0  0  0  0  0  0  0  0
   -0.1495    1.3627    0.0000 C   0  0  0  0  0  0  0  0  0  0  0  0
   -1.6422    1.5107    0.0000 C   0  0  0  0  0  0  0  0  0  0  0  0
   -2.2604    2.8774    0.0000 C   0  0  0  0  0  0  0  0  0  0  0  0
   -3.7530    3.0254    0.0000 C   0  0  0  0  0  0  0  0  0  0  0  0
   -4.3712    4.3921    0.0000 O   0  0  0  0  0  0  0  0  0  0  0  0
   -4.6276    1.8067    0.0000 O   0  0  0  0  0  0  0  0  0  0  0  0
   -4.0094    0.4400    0.0000 C   0  0  0  0  0  0  0  0  0  0  0  0
   -4.8840   -0.7786    0.0000 C   0  0  0  0  0  0  0  0  0  0  0  0
   -4.4121   -2.2025    0.0000 C   0  0  0  0  0  0  0  0  0  0  0  0
   -5.6204   -3.0913    0.0000 O   0  0  0  0  0  0  0  0  0  0  0  0
   -6.8391   -2.2167    0.0000 C   0  0  0  0  0  0  0  0  0  0  0  0
   -6.3839   -0.7875    0.0000 C   0  0  0  0  0  0  0  0  0  0  0  0
   -2.5168    0.2920    0.0000 C   0  0  0  0  0  0  0  0  0  0  0  0
   -3.3913   -0.9267    0.0000 C   0  0  0  0  0  0  0  0  0  0  0  0
   -1.8986   -1.0747    0.0000 C   0  0  0  0  0  0  0  0  0  0  0  0
   -0.4059   -1.2227    0.0000 C   0  0  0  0  0  0  0  0  0  0  0  0
    0.4686   -0.0041    0.0000 C   0  0  0  0  0  0  0  0  0  0  0  0
    1.9613   -0.1521    0.0000 C   0  0  0  0  0  0  0  0  0  0  0  0
    2.5794   -1.5188    0.0000 C   0  0  0  0  0  0  0  0  0  0  0  0
    2.8358    1.0666    0.0000 C   0  0  0  0  0  0  0  0  0  0  0  0
    3.6246    1.1822    0.0000 O   0  0  0  0  0  0  0  0  0  0  0  0
  1  2  1  0
  2  3  1  0
  3  4  2  0
  3  5  1  0
  6  5  1  6
  6  7  1  0
  7  8  1  0
  7  9  1  0
  7 10  1  0
 10 11  1  1
 10 12  1  0
 12 13  1  1
 13 14  1  0
 14 15  2  0
 15 16  1  0
 16 17  1  0
 17 18  2  0
 17 19  1  0
 19 20  1  0
 20 21  1  6
 21 22  2  0
 22 23  1  0
 23 24  1  0
 24 25  2  0
 20 26  1  0
 26 27  1  6
 26 28  1  0
 28 29  1  0
 30 29  1  1
 30 31  1  0
 31 32  1  6
 31 33  1  0
 33 34  2  0
 31  6  1  0
 33 12  1  0
 30 14  1  0
 26 15  1  0
 25 21  1  0
M  END
>  <identifier>  (1819) 
CNP0182900.1

>  <canonical_smiles>  (1819) 
COC(=O)C[C@H]1C(C)(C)[C@H](O)[C@@H]2CC3=C4CC(=O)O[C@@H](C5=COC=C5)[C@]4(C)CC[C@@H]3[C@@]1(C)C2=O

>  <standard_inchi>  (1819) 
InChI=1S/C27H34O7/c1-25(2)19(12-20(28)32-5)27(4)17-6-8-26(3)18(15(17)10-16(22(25)30)23(27)31)11-21(29)34-24(26)14-7-9-33-13-14/h7,9,13,16-17,19,22,24,30H,6,8,10-12H2,1-5H3/t16-,17-,19-,22+,24-,26+,27+/m0/s1

>  <standard_inchi_key>  (1819) 
WAIKPAHSFOBDTD-OLJNMEOCSA-N

>  <name>  (1819) 
Proceranolide

>  <iupac_name>  (1819) 
methyl 2-[(1~{R},2~{S},5~{R},6~{R},13~{S},14~{R},16~{S})-6-(3-furyl)-14-hydroxy-1,5,15,15-tetramethyl-8,17-dioxo-7-oxatetracyclo[11.3.1.0^{2,11}.0^{5,10}]heptadec-10-en-16-yl]acetate

>  <annotation_level>  (1819) 
5

>  <total_atom_count>  (1819) 
68

>  <heavy_atom_count>  (1819) 
34

>  <molecular_weight>  (1819) 
470.56

>  <exact_molecular_weight>  (1819) 
470.23045

>  <molecular_formula>  (1819) 
C27H34O7

>  <alogp>  (1819) 
4.16

>  <topological_polar_surface_area>  (1819) 
103.04

>  <rotatable_bond_count>  (1819) 
3

>  <hydrogen_bond_acceptors>  (1819) 
7

>  <hydrogen_bond_donors>  (1819) 
1

>  <hydrogen_bond_acceptors_lipinski>  (1819) 
7

>  <hydrogen_bond_donors_lipinski>  (1819) 
1

>  <lipinski_rule_of_five_violations>  (1819) 
0

>  <aromatic_rings_count>  (1819) 
1

>  <qed_drug_likeliness>  (1819) 
0.52

>  <formal_charge>  (1819) 
0

>  <fractioncsp3>  (1819) 
0.67

>  <number_of_minimal_rings>  (1819) 
5

>  <van_der_walls_volume>  (1819) 
425.00

>  <contains_sugar>  (1819) 
False

>  <contains_ring_sugars>  (1819) 
False

>  <contains_linear_sugars>  (1819) 
False

>  <murcko_framework>  (1819) 
o1ccc(c1)C2OCCC3=C4CC5CCCC(C5)C4CCC32

>  <np_likeness>  (1819) 
2.99

>  <chemical_class>  (1819) 
Prenol lipids

>  <chemical_sub_class>  (1819) 
Triterpenoids

>  <chemical_super_class>  (1819) 
Lipids and lipid-like molecules

>  <direct_parent_classification>  (1819) 
Limonoids

>  <np_classifier_pathway>  (1819) 
Terpenoids

>  <np_classifier_superclass>  (1819) 
Triterpenoids

>  <np_classifier_class>  (1819) 
Limonoids

>  <np_classifier_is_glycoside>  (1819) 
False

>  <organisms>  (1819) 
Cabralea canjerana|Carapa procera|Cedrela odorata|Chisocheton ceramicus|Ekebergia capensis|Swietenia macrophylla|Swietenia mahagoni|Turraea|Xylocarpus Granatum|Xylocarpus granatum|Xylocarpus moluccensis

>  <collections>  (1819) 
ANPDB|CMAUP (cCollective molecular activities of useful plants)|ChEBI NPs|KNApSaCK|Latin America dataset|NANPDB (Natural Products from Northern African Sources)|NPASS|NuBBEDB|Super Natural II|VietHerb|WikiData Natural Products

>  <dois>  (1819) 
10.1002/CHIN.200544199|10.1016/J.BMCL.2011.06.010|10.1016/J.PHYTOCHEM.2005.03.002|10.1016/J.PHYTOCHEM.2007.12.015|10.1016/S0031-9422(96)00747-9|10.1016/j.bmcl.2011.06.010|10.1021/NP060622J|10.1021/NP060622J.S001|10.1021/NP0780093|10.1021/NP200013G|10.1021/NP900640U|10.1021/NP990199X|10.1021/np200013g|10.1021/np900640u|10.1248/CPB.38.1495|10.1248/CPB.38.639|10.1515/ZNC-2011-5-607

>  <synonyms>  (1819) 
(4R)-4beta-(3-Furyl)-1,4,4a,5,6,6abeta,7,8,9,10,11,12-dodecahydro-10alpha-hydroxy-4abeta,7,9,9-tetramethyl-2,13-d|1915-68-0|3-\u221a\u00e9\u00ac\u2264-deacetylfissinolide|3Beta-Deacetylfissinolide|CHEBI:68099|CHEMBL1081393|InChI=1\/C27H34O7\/c1-25(2)19(12-20(28)32-5)27(4)17-6-8-26(3)18(15(17)10-16(22(25)30)23(27)31)11-21(29)34-24(26)14-7-9-33-13-14\/h7,9,13,16-17,19,22,24,30H,6,8,10-12H2,1-5H3\/t16-,17-,19-,22+,24-,26+,27+\/m0\/s1|Proceranolide|Q27136589|WAIKPAHSFOBDTD-OLJNMEOCSA-|methyl 2-[(1R,2S,5R,6R,13S,14R,16S)-6-(furan-3-yl)-14-hydroxy-1,5,15,15-tetramethyl-8,17-dioxo-7-oxatetracyclo[11.3.1.02,11.05,10]heptadec-10-en-16-yl]acetate

>  <cas>  (1819) 
1915-68-0

$$$$

     RDKit          2D

 40 43  0  0  0  0  0  0  0  0999 V2000
    8.9704   -2.0714    0.0000 C   0  0  0  0  0  0  0  0  0  0  0  0
    7.8917   -1.0291    0.0000 O   0  0  0  0  0  0  0  0  0  0  0  0
    6.4497   -1.4420    0.0000 C   0  0  0  0  0  0  0  0  0  0  0  0
    6.0863   -2.8973    0.0000 C   0  0  0  0  0  0  0  0  0  0  0  0
    4.6443   -3.3103    0.0000 C   0  0  0  0  0  0  0  0  0  0  0  0
    3.5656   -2.2679    0.0000 C   0  0  0  0  0  0  0  0  0  0  0  0
    2.1236   -2.6808    0.0000 C   0  0  0  0  0  0  0  0  0  0  0  0
    1.0449   -1.6385    0.0000 C   0  0  0  0  0  0  0  0  0  0  0  0
   -0.3971   -2.0514    0.0000 C   0  0  0  0  0  0  0  0  0  0  0  0
   -0.7605   -3.5067    0.0000 O   0  0  0  0  0  0  0  0  0  0  0  0
   -1.4757   -1.0090    0.0000 O   0  0  0  0  0  0  0  0  0  0  0  0
   -2.9178   -1.4220    0.0000 C   0  0  0  0  0  0  0  0  0  0  0  0
   -3.9964   -0.3796    0.0000 C   0  0  0  0  0  0  0  0  0  0  0  0
   -3.6330    1.0757    0.0000 O   0  0  0  0  0  0  0  0  0  0  0  0
   -2.1910    1.4887    0.0000 C   0  0  0  0  0  0  0  0  0  0  0  0
   -1.1123    0.4463    0.0000 O   0  0  0  0  0  0  0  0  0  0  0  0
    0.3297    0.8592    0.0000 C   0  0  0  0  0  0  0  0  0  0  0  0
    0.6931    2.3145    0.0000 C   0  0  0  0  0  0  0  0  0  0  0  0
    2.1351    2.7275    0.0000 C   0  0  0  0  0  0  0  0  0  0  0  0
    2.4985    4.1828    0.0000 O   0  0  0  0  0  0  0  0  0  0  0  0
    3.2138    1.6851    0.0000 O   0  0  0  0  0  0  0  0  0  0  0  0
   -0.3855    3.3569    0.0000 C   0  0  0  0  0  0  0  0  0  0  0  0
   -0.3326    4.8560    0.0000 C   0  0  0  0  0  0  0  0  0  0  0  0
   -1.7420    5.3695    0.0000 C   0  0  0  0  0  0  0  0  0  0  0  0
   -2.1549    6.8116    0.0000 O   0  0  0  0  0  0  0  0  0  0  0  0
   -2.6659    4.1878    0.0000 C   0  0  0  0  0  0  0  0  0  0  0  0
   -4.1650    4.2407    0.0000 C   0  0  0  0  0  0  0  0  0  0  0  0
   -1.8276    2.9440    0.0000 C   0  0  0  0  0  0  0  0  0  0  0  0
   -5.4385   -0.7925    0.0000 O   0  0  0  0  0  0  0  0  0  0  0  0
   -5.8019   -2.2479    0.0000 C   0  0  0  0  0  0  0  0  0  0  0  0
   -7.2439   -2.6608    0.0000 C   0  0  0  0  0  0  0  0  0  0  0  0
   -8.3225   -1.6184    0.0000 O   0  0  0  0  0  0  0  0  0  0  0  0
   -4.7232   -3.2902    0.0000 C   0  0  0  0  0  0  0  0  0  0  0  0
   -5.0866   -4.7455    0.0000 O   0  0  0  0  0  0  0  0  0  0  0  0
   -3.2812   -2.8773    0.0000 C   0  0  0  0  0  0  0  0  0  0  0  0
   -2.2025   -3.9197    0.0000 O   0  0  0  0  0  0  0  0  0  0  0  0
    3.9290   -0.8126    0.0000 C   0  0  0  0  0  0  0  0  0  0  0  0
    5.3711   -0.3996    0.0000 C   0  0  0  0  0  0  0  0  0  0  0  0
    5.7345    1.0557    0.0000 O   0  0  0  0  0  0  0  0  0  0  0  0
    7.1765    1.4686    0.0000 C   0  0  0  0  0  0  0  0  0  0  0  0
  1  2  1  0
  2  3  1  0
  3  4  2  0
  4  5  1  0
  5  6  2  0
  6  7  1  0
  7  8  2  0
  8  9  1  0
  9 10  2  0
  9 11  1  0
 12 11  1  6
 12 13  1  0
 13 14  1  1
 15 14  1  1
 15 16  1  0
 16 17  1  0
 17 18  2  0
 18 19  1  0
 19 20  2  0
 19 21  1  0
 18 22  1  0
 22 23  1  6
 23 24  1  0
 24 25  1  1
 24 26  1  0
 26 27  1  1
 26 28  1  0
 13 29  1  0
 29 30  1  0
 30 31  1  1
 31 32  1  0
 30 33  1  0
 33 34  1  6
 33 35  1  0
 35 36  1  1
  6 37  1  0
 37 38  2  0
 38 39  1  0
 39 40  1  0
 38  3  1  0
 35 12  1  0
 28 15  1  6
 28 22  1  0
M  END
>  <identifier>  (1820) 
CNP0348498.1

>  <canonical_smiles>  (1820) 
COC1=CC=C(/C=C/C(=O)O[C@H]2[C@H](O[C@@H]3OC=C(C(=O)O)[C@H]4C[C@H](O)[C@H](C)[C@@H]34)O[C@H](CO)[C@@H](O)[C@@H]2O)C=C1OC

>  <standard_inchi>  (1820) 
InChI=1S/C27H34O13/c1-12-16(29)9-14-15(25(33)34)11-37-26(21(12)14)40-27-24(23(32)22(31)19(10-28)38-27)39-20(30)7-5-13-4-6-17(35-2)18(8-13)36-3/h4-8,11-12,14,16,19,21-24,26-29,31-32H,9-10H2,1-3H3,(H,33,34)/b7-5+/t12-,14+,16-,19+,21+,22+,23-,24+,26-,27-/m0/s1

>  <standard_inchi_key>  (1820) 
KVCCHIDBNDFTEZ-NPDXYTPCSA-N

>  <name>  (1820) 
C27H34O13

>  <iupac_name>  (1820) 
(1~{S},4~{a}~{S},6~{S},7~{R},7~{a}~{S})-1-[(2~{S},3~{R},4~{S},5~{S},6~{R})-3-[(~{E})-3-(3,4-dimethoxyphenyl)prop-2-enoyl]oxy-4,5-dihydroxy-6-(hydroxymethyl)tetrahydropyran-2-yl]oxy-6-hydroxy-7-methyl-1,4~{a},5,6,7,7~{a}-hexahydrocyclopenta[c]pyran-4-carboxylic acid

>  <annotation_level>  (1820) 
5

>  <total_atom_count>  (1820) 
74

>  <heavy_atom_count>  (1820) 
40

>  <molecular_weight>  (1820) 
566.56

>  <exact_molecular_weight>  (1820) 
566.19994

>  <molecular_formula>  (1820) 
C27H34O13

>  <alogp>  (1820) 
0.04

>  <topological_polar_surface_area>  (1820) 
190.67

>  <rotatable_bond_count>  (1820) 
9

>  <hydrogen_bond_acceptors>  (1820) 
12

>  <hydrogen_bond_donors>  (1820) 
5

>  <hydrogen_bond_acceptors_lipinski>  (1820) 
12

>  <hydrogen_bond_donors_lipinski>  (1820) 
5

>  <lipinski_rule_of_five_violations>  (1820) 
2

>  <aromatic_rings_count>  (1820) 
1

>  <qed_drug_likeliness>  (1820) 
0.20

>  <formal_charge>  (1820) 
0

>  <fractioncsp3>  (1820) 
0.56

>  <number_of_minimal_rings>  (1820) 
4

>  <van_der_walls_volume>  (1820) 
487.28

>  <contains_sugar>  (1820) 
True

>  <contains_ring_sugars>  (1820) 
True

>  <contains_linear_sugars>  (1820) 
False

>  <murcko_framework>  (1820) 
O1C=CC2CCCC2C1OC3OCCCC3OCC=Cc4ccccc4

>  <np_likeness>  (1820) 
2.22

>  <chemical_class>  (1820) 
Prenol lipids

>  <chemical_sub_class>  (1820) 
Terpene glycosides

>  <chemical_super_class>  (1820) 
Lipids and lipid-like molecules

>  <direct_parent_classification>  (1820) 
Iridoid O-glycosides

>  <np_classifier_pathway>  (1820) 
Terpenoids

>  <np_classifier_superclass>  (1820) 
Monoterpenoids

>  <np_classifier_class>  (1820) 
Iridoids monoterpenoids

>  <np_classifier_is_glycoside>  (1820) 
True

>  <organisms>  (1820) 
Chiococca alba

>  <collections>  (1820) 
ChemSpider NPs|Latin America dataset|NuBBEDB|Super Natural II|WikiData Natural Products|ZINC NP

>  <dois>  (1820) 
10.1016/S0031-9422(99)00105-3

>  <synonyms>  (1820) 
Alboside II

>  <cas>  (1820) 
nan

$$$$

     RDKit          2D

 11 12  0  0  0  0  0  0  0  0999 V2000
   -0.9718   -1.5266    0.0000 C   0  0  0  0  0  0  0  0  0  0  0  0
    0.0244   -0.4052    0.0000 C   0  0  0  0  0  0  0  0  0  0  0  0
   -1.4624   -0.2066    0.0000 C   0  0  0  0  0  0  0  0  0  0  0  0
    1.2736   -1.2356    0.0000 C   0  0  0  0  0  0  0  0  0  0  0  0
    2.4494   -0.3042    0.0000 C   0  0  0  0  0  0  0  0  0  0  0  0
    1.9268    1.1019    0.0000 C   0  0  0  0  0  0  0  0  0  0  0  0
    0.4281    1.0394    0.0000 C   0  0  0  0  0  0  0  0  0  0  0  0
   -0.5033    2.2152    0.0000 C   0  0  0  0  0  0  0  0  0  0  0  0
   -0.7476    0.1080    0.0000 C   0  0  0  0  0  0  0  0  0  0  0  0
   -2.1923    0.5117    0.0000 O   0  0  0  0  0  0  0  0  0  0  0  0
   -0.2251   -1.2981    0.0000 C   0  0  0  0  0  0  0  0  0  0  0  0
  1  2  1  0
  2  3  1  0
  2  4  1  0
  4  5  1  6
  5  6  1  0
  6  7  1  0
  7  8  1  1
  7  9  1  0
  9 10  1  6
  9 11  1  0
  7  2  1  0
 11  4  1  0
M  END
>  <identifier>  (1821) 
CNP0259481.3

>  <canonical_smiles>  (1821) 
CC1(C)[C@@H]2CC[C@@]1(C)[C@@H](O)C2

>  <standard_inchi>  (1821) 
InChI=1S/C10H18O/c1-9(2)7-4-5-10(9,3)8(11)6-7/h7-8,11H,4-6H2,1-3H3/t7-,8+,10+/m1/s1

>  <standard_inchi_key>  (1821) 
DTGKSKDOIYIVQL-WEDXCCLWSA-N

>  <name>  (1821) 
(+)-Borneol

>  <iupac_name>  (1821) 
(1~{R},2~{S},4~{R})-1,7,7-trimethylnorbornan-2-ol

>  <annotation_level>  (1821) 
5

>  <total_atom_count>  (1821) 
29

>  <heavy_atom_count>  (1821) 
11

>  <molecular_weight>  (1821) 
154.25

>  <exact_molecular_weight>  (1821) 
154.13577

>  <molecular_formula>  (1821) 
C10H18O

>  <alogp>  (1821) 
2.19

>  <topological_polar_surface_area>  (1821) 
20.23

>  <rotatable_bond_count>  (1821) 
0

>  <hydrogen_bond_acceptors>  (1821) 
1

>  <hydrogen_bond_donors>  (1821) 
1

>  <hydrogen_bond_acceptors_lipinski>  (1821) 
1

>  <hydrogen_bond_donors_lipinski>  (1821) 
1

>  <lipinski_rule_of_five_violations>  (1821) 
0

>  <aromatic_rings_count>  (1821) 
0

>  <qed_drug_likeliness>  (1821) 
0.57

>  <formal_charge>  (1821) 
0

>  <fractioncsp3>  (1821) 
1.00

>  <number_of_minimal_rings>  (1821) 
2

>  <van_der_walls_volume>  (1821) 
162.90

>  <contains_sugar>  (1821) 
False

>  <contains_ring_sugars>  (1821) 
False

>  <contains_linear_sugars>  (1821) 
False

>  <murcko_framework>  (1821) 
C1CC2CCC1C2

>  <np_likeness>  (1821) 
2.54

>  <chemical_class>  (1821) 
Prenol lipids

>  <chemical_sub_class>  (1821) 
Monoterpenoids

>  <chemical_super_class>  (1821) 
Lipids and lipid-like molecules

>  <direct_parent_classification>  (1821) 
Bicyclic monoterpenoids

>  <np_classifier_pathway>  (1821) 
Terpenoids

>  <np_classifier_superclass>  (1821) 
Monoterpenoids

>  <np_classifier_class>  (1821) 
Camphane monoterpenoids

>  <np_classifier_is_glycoside>  (1821) 
False

>  <organisms>  (1821) 
Abies alba|Abies sibirica|Acacia simplicifolia|Achillea millefolium|Acorus gramineus|Acorus tatarinowii|Actaea dahurica|Actaea heracleifolia|Actaea simplex|Adina trichotoma|Aethalium septicum|Afraegle paniculata|Ageratina viscosa|Aglaia elaeagnoidea|Agrimonia pilosa|Akebia quinata|Akebia trifoliata|Aloysia citriodora|Aloysia citrodora|Aloysia triphylla|Amomum kravanh|Amomum krervanh|Amomum longiligulare|Amomum villosum|Amomum xanthioides|Andropogon laniger|Aplidium orthium|Apterostigma dentigerum|Aria rostellata|Aristolochia elegans|Armina maculata|Arnebia euchroma|Arnebia guttata|Artemisia annua L.|Artemisia apiacea|Artemisia argyi|Artemisia capillaris|Artemisia gmelinii|Artemisia iwayomogi|Artemisia klotzchiana|Artemisia montana|Artemisia princeps|Artemisia scoparia|Artemisia splendens|Artemisia vulgaris|Asarum heterotropoides|Asarum sieboldii|Asiasarum heterotropoides|Asiasarum sieboldii|Aspergillus candidus|Aspergillus ruber|Astragalus glycyphyllos|Astragalus gummifer|Athrixia elata|Baccharis sarothroides|Beauveria felina|Bombina maxima|Botryotrichum murorum|Bowdichia virgilioides|Brenneria rubrifaciens|Capparis flavicans|Cardiospermum halicacabum|Cassinia subtropica|Centaurea cheiranthifolia|Centaurea nigrescens|Centaurea zuccariniana|Ceratiomyxa fruticulosa|Chamaecyparis obtusa|Chrysanthemum indicum|Chrysanthemum x morifolium|Chrysanthemum zawadskii|Cimicifuga foetida|Cinamomum cassia|Cinnamomum Camphora|Cinnamomum aromaticum|Cirsium japonicum|Citrus medica|Cladanthus arabicus|Cladiella krempfi|Coelogyne corymbosa|Colchicum arenarium|Conyza canadensis|Coreopsis fasciculata|Cortinellus berkeleyanus|Cousinia canescens|Cratoxylum pruniflorum|Crepis foetida|Crinum defixum|Croton grewioides|Croton mucronifolius|Croton tiglium|Croton zehntneri|Cuphea carthagenensis|Cupressus dupreziana var. dupreziana|Cupressus sempervirens var. dupreziana|Curcuma Aromatica|Curcuma kwangsiensis|Curcuma longa|Curcuma phaeocaulis|Curcuma wenyujin|Curcuma zedoaria|Cymbopogon flexuosus|Cyperus rotundus|Daphnandra johnsonii|Daucus carota|Dendroctonus frontalis|Dianella revoluta|Dioscoreophyllum cumminsii|Diospyros iturensis|Dorstenia lindeniana|Dryobalanops aromatica|Elettaria cardamomum|Elsholtzia ciliata|Erodendrum neriifolium|Erythrina bidwillii|Erythrina burttii|Eskemukerjea megacarpum|Eucalyptus perriniana|Eucalyptus viminalis|Eucommia ulmoides|Euphorbia hirta|Euphorbia segetalis|Firmiana simplex|Gaillardia amblyodon|Garcinia hombroniana|Gyrothyra underwoodiana|Hansenia forbesii|Hansenia weberbaueriana|Hardwickia pinnata|Hazunta membranacea|Hedychium coronarium|Helminthosporium velutinum|Heterotheca subaxillaris|Hippeastrum aulicum|Homo sapiens|Houttuynia cordata|Ipomoea hederacea|Isocoma pluriflora|Jacobaea argunensis|Juniperus communis|Kaempferia galanga|Kokoona ochracea|Laggera aurita|Lamprolobium fruticosum|Lasioderma serricorne|Leonurus heterophyllus|Ligularia stenocephala|Lindera aggregata|Lindera strichnifolia|Lithospermum erythrorhizon|Litsea aurata|Litsea cubeba|Lobelia salicifolia|Lophozia attenuata|Magnolia obovata|Magnolia officinalis|Malus sieboldii|Marasmius graminum|Melanothamnus afaqhusainii|Mentha insularis|Mentha pulegium|Mentha suaveolens|Micranthes stellaris|Mikania grazielae|Modiolus demissus|Mosla chinensis|Nauclea parva|Oldenlandia diffusa|Oscillatoria princeps|Ostericum grosseserratum|Oxytropis pseudoglandulosa|Ozoroa insignis|Panax ginseng|Panzerina lanata|Parastrephia lepidophylla|Pedicularis plicata|Pelargonium x hortorum|Peltigera venosa|Penstemon secundiflorus|Periploca sepium|Persea obovatifolia|Phedimus kamtschaticus|Phlogacanthus thyrsiflorus|Pholas dactylus|Phormia regina|Phyllanthus emblica|Phytolacca acinosa|Picea abies|Picea koraiensis|Pinellia ternata|Pinna muricata|Pinus koraiensis|Pinus pumila|Piper arboreum|Piper callosum|Piper cubeba|Pittocaulon bombycophole|Plantago psyllium|Platycladus orientalis|Polyachyrus sphaerocephalus|Poterium sanguisorba|Pouzolzia occidentalis|Pteris dispar|Punica granatum|Rabdosia flexicaulis|Rubus pungens|Russula queletii|Ruta microcarpa|Salvia dichroa|Salvia officinalis|Salvia sclarea|Santolina canescens|Scaphechinus mirabilis|Schisandra chinensis|Scytalidium uredinicola|Selinum carvifolium|Senna alexandrina|Sidastrum acuminatum|Sideritis hirsuta|Sideritis ibanezii|Sideritis lanata|Sideritis leucantha|Sideritis tragoriganum|Siphula roccellaeformis|Sonchus gummifer|Stephania hispidula|Streptomyces tsukubensis|Streptomyces vinaceusdrappus|Suillus granulatus|Syncolostemon parviflorus|Syzygium cumini|Tamarix gallica|Tanacetum vulgare|Tetradenia glauca|Teucrium scorodonia|Thuja plicata|Thymus broussonetii|Thymus maroccanus|Thymus quinquecostatus|Thymus vulgaris|Tinospora hainanensis|Titanotrichum oldhamii|Triglochin maritima|Umbilicaria pustulata|Umbilicaria spodochroa|Urtica triangularis|Uvaria microcarpa|Vaccaria hispanica|Valeriana jatamansi|Veronica anagallis|Viola hondoensis|Vitex agnus-castus|Waitzia acuminata|West African Pepper|Wrightia tinctoria|Xylaria hypoxylon|Xylosalsola richteri|Xyris semifuscata|Zanthoxylum bungeanum|Zanthoxylum monophyllum|Zanthoxylum piperitum|Zanthoxylum schinifolium|Zingiber officinale

>  <collections>  (1821) 
Australian natural products|CMAUP (cCollective molecular activities of useful plants)|ChEBI NPs|ETM (Ethiopian Traditional Medicine) DB|Latin America dataset|NPASS|NPDBEjeCol|NuBBEDB|Phyto4Health|Super Natural II|TCMDB-Taiwan (Traditional Chinese Medicine database)|TIPdb (database of Taiwan indigenous plants)|VietHerb|WikiData Natural Products

>  <dois>  (1821) 
10.1002/CHIN.200303162|10.1007/BF00565149|10.1007/BF00568368|10.1007/BF00574818|10.1007/BF00579987|10.1007/BF00629753|10.1007/BF01024117|10.1016/0003-9861(85)90656-3|10.1016/0003-9861(90)90593-N|10.1016/0031-9422(86)80022-X|10.1016/J.APJTM.2016.06.009|10.1016/J.BSE.2003.09.006|10.1016/J.PHYMED.2011.12.003|10.1016/J.PHYTOCHEM.2008.09.026|10.1016/J.PHYTOCHEM.2019.112227|10.1016/S0031-9422(00)80081-3|10.1016/S0031-9422(00)80325-8|10.1016/S0031-9422(00)82205-0|10.1016/S0031-9422(00)90710-6|10.1021/JF00083A001|10.1021/JF0210369|10.1021/NP50001A004|10.1021/np50017a019|10.1039/J39690000541|10.1055/S-0028-1097609|10.1055/S-0028-1097719|10.1055/S-0028-1097815|10.1055/S-0028-1097956|10.1055/S-0028-1097962|10.1055/S-0028-1099422|10.1055/S-0028-1099455|10.1055/S-0028-1100098|10.1055/S-0028-1100131|10.1055/S-2006-957433|10.1055/S-2006-961434|10.1248/YAKUSHI1947.90.11_1367|10.4103/0973-7847.65327

>  <synonyms>  (1821) 
(+)-Borneol 100 microg\/mL in Methanol|(+)-Borneol, 97%|(+)-Borneol, analytical standard|(+)?-?Borneol|(+-)-borneol|(-) Borneol|(1R,2S,4R)-1,7,7-trimethylbicyclo[2.2.1]heptan-2-ol|(1R,2S,4R)-Borneol|(1R-endo)-1,7,7-Trimethylbicyclo(2.2.1)heptan-2-ol|1,7,7-Trimethyl-bicyclo(2.2.1)heptan-2-ol, endo-|124-76-5|2-Bornanol, endo-|2-Camphanol|2-Hydroxy-1,7,7-trimethylnorbornane, endo-|2-Hydroxybornane|2-Hydroxycamphane|2-endo-Bornyl alcohol|4-06-00-00281 (Beilstein Handbook Reference)|464-43-7|507-70-0|8D24LWT4FK|AI3-00116|AKOS016004136|BDBM36265|BICYCLO(2.2.1)HEPTAN-2-OL, 1,7,7-TRIMETHYL-, endo-|BORNEOL (CONSTITUENT OF BLACK PEPPER)|BORNEOL (MART.)|BORNEOL D-FORM|BORNEOL D-FORM [MI]|BORNEOL [FCC]|BORNEOL [FHFI]|BORNEOL [HSDB]|BORNEOL [INCI]|BORNEOL [MART.]|BORNEOL [MI]|BORNEOL [WHO-DD]|BORNEOL, (+\/-)-|BORNEOL, D-|BORNEOLUM SYNTHETICUM [CHP]|BRN 2038056|BS-42578|Baros camphor|Bhimsaim camphor|Bicyclo(2.2.1)heptan-2-ol, 1,7,7-trimethyl-, (1R-endo)-|Bicyclo[2.2.1]heptan-2-ol, 1,7,7-trimethyl-, (1R,2S,4R)-|Bingpian|Borneocamphor|Borneol|Borneol (contains ca. 20% Isoborneol)|Borneol [UN1312]  [Flammable solid]|Borneol, (+)-|Borneol, dl-|Borneolum syntheticum|Bornyl alcohol|CCG-36088|CCRIS 6550|CCRIS 7300|CHEBI:15393|CHEMBL486208|CS-7758|Camphane, 2-hydroxy-|Camphol|D-(+)-Borneol|D-CAMPHANOL|D96054|DL-Borneol|DL-Isoborneol|DTGKSKDOIYIVQL-WEDXCCLWSA-N|DTXSID2058700|DTXSID3052143|Dexborneol|Dryobalanops camphor|EINECS 207-352-6|EINECS 208-080-0|EN300-84951|ENDO-(+-)-BORNAN-2-OL|Endo-2-camphanol|Endo-2-hydroxycamphane|Enokon Pain relief patch|F0001-1255|FEMA NO. 2157, (+)-|FEMA No. 2157|Flavor and Extract Manufacturers' Association Number 2157|GTPL6413|HSDB 946|HY-N1368A|Hechenglongnao|Isoborneol|M89NIB437X|MFCD00066427|MFCD00074821|Malayan camphor|NS00080677|NSC 60223|NSC-60223|Pain relief patch-acupoint pressure stimulation|Q-100570|Q412435|REL-(1S,2R,4S)-1,7,7-TRIMETHYLBICYCLO(2.2.1)HEPTAN-2-OL|SCHEMBL56713|Sumatra camphor|UN1312|UNII-8D24LWT4FK|UNII-M89NIB437X|Varicose Veins Patch|Z1255372631|borneol|camphol|d-Borneol|endo-(1R)-1,7,7-Trimethylbicyclo[2.2.1]heptan-2-ol|endo-1,7,7-Trimethylbicyclo|endo-2-Hydroxy-1,7,7-trimethylnorbornane|endo-Borneol|trans-Borneol

>  <cas>  (1821) 
464-43-7|507-70-0|124-76-5

$$$$

     RDKit          2D

 38 41  0  0  0  0  0  0  0  0999 V2000
   -9.3637    0.4104    0.0000 C   0  0  0  0  0  0  0  0  0  0  0  0
   -8.5071   -0.8210    0.0000 O   0  0  0  0  0  0  0  0  0  0  0  0
   -7.0125   -0.6948    0.0000 C   0  0  0  0  0  0  0  0  0  0  0  0
   -6.3744    0.6627    0.0000 C   0  0  0  0  0  0  0  0  0  0  0  0
   -4.8797    0.7888    0.0000 C   0  0  0  0  0  0  0  0  0  0  0  0
   -4.2416    2.1464    0.0000 O   0  0  0  0  0  0  0  0  0  0  0  0
   -5.0982    3.3777    0.0000 C   0  0  0  0  0  0  0  0  0  0  0  0
   -4.0231   -0.4425    0.0000 C   0  0  0  0  0  0  0  0  0  0  0  0
   -2.5284   -0.3163    0.0000 C   0  0  0  0  0  0  0  0  0  0  0  0
   -1.6718   -1.5477    0.0000 C   0  0  0  0  0  0  0  0  0  0  0  0
   -0.1771   -1.4215    0.0000 O   0  0  0  0  0  0  0  0  0  0  0  0
    0.4610   -0.0640    0.0000 C   0  0  0  0  0  0  0  0  0  0  0  0
    1.9556    0.0622    0.0000 C   0  0  0  0  0  0  0  0  0  0  0  0
    2.5937    1.4197    0.0000 C   0  0  0  0  0  0  0  0  0  0  0  0
    4.0884    1.5458    0.0000 O   0  0  0  0  0  0  0  0  0  0  0  0
    4.9450    0.3145    0.0000 C   0  0  0  0  0  0  0  0  0  0  0  0
    4.3069   -1.0430    0.0000 O   0  0  0  0  0  0  0  0  0  0  0  0
    5.1635   -2.2744    0.0000 C   0  0  0  0  0  0  0  0  0  0  0  0
    4.5255   -3.6319    0.0000 C   0  0  0  0  0  0  0  0  0  0  0  0
    3.0308   -3.7581    0.0000 O   0  0  0  0  0  0  0  0  0  0  0  0
    6.6582   -2.1482    0.0000 C   0  0  0  0  0  0  0  0  0  0  0  0
    7.5148   -3.3796    0.0000 O   0  0  0  0  0  0  0  0  0  0  0  0
    7.2963   -0.7907    0.0000 C   0  0  0  0  0  0  0  0  0  0  0  0
    8.7910   -0.6645    0.0000 O   0  0  0  0  0  0  0  0  0  0  0  0
    6.4397    0.4406    0.0000 C   0  0  0  0  0  0  0  0  0  0  0  0
    7.0778    1.7982    0.0000 O   0  0  0  0  0  0  0  0  0  0  0  0
    1.7371    2.6510    0.0000 C   0  0  0  0  0  0  0  0  0  0  0  0
    2.3752    4.0085    0.0000 O   0  0  0  0  0  0  0  0  0  0  0  0
    3.8699    4.1347    0.0000 C   0  0  0  0  0  0  0  0  0  0  0  0
    0.2424    2.5249    0.0000 C   0  0  0  0  0  0  0  0  0  0  0  0
   -0.6142    3.7562    0.0000 O   0  0  0  0  0  0  0  0  0  0  0  0
   -0.3956    1.1673    0.0000 C   0  0  0  0  0  0  0  0  0  0  0  0
   -1.8903    1.0412    0.0000 C   0  0  0  0  0  0  0  0  0  0  0  0
   -2.7469    2.2725    0.0000 O   0  0  0  0  0  0  0  0  0  0  0  0
   -4.6612   -1.8000    0.0000 C   0  0  0  0  0  0  0  0  0  0  0  0
   -6.1559   -1.9262    0.0000 C   0  0  0  0  0  0  0  0  0  0  0  0
   -6.7939   -3.2837    0.0000 O   0  0  0  0  0  0  0  0  0  0  0  0
   -5.9373   -4.5151    0.0000 C   0  0  0  0  0  0  0  0  0  0  0  0
  1  2  1  0
  2  3  1  0
  3  4  2  0
  4  5  1  0
  5  6  1  0
  6  7  1  0
  5  8  2  0
  8  9  1  0
  9 10  2  0
 10 11  1  0
 11 12  1  0
 12 13  2  0
 13 14  1  0
 14 15  1  0
 16 15  1  1
 16 17  1  0
 17 18  1  0
 18 19  1  1
 19 20  1  0
 18 21  1  0
 21 22  1  6
 21 23  1  0
 23 24  1  1
 23 25  1  0
 25 26  1  6
 14 27  2  0
 27 28  1  0
 28 29  1  0
 27 30  1  0
 30 31  1  0
 30 32  2  0
 32 33  1  0
 33 34  2  0
  8 35  1  0
 35 36  2  0
 36 37  1  0
 37 38  1  0
 36  3  1  0
 33  9  1  0
 32 12  1  0
 25 16  1  0
M  END
>  <identifier>  (1822) 
CNP0277300.1

>  <canonical_smiles>  (1822) 
COC1=CC(OC)=C(C2=COC3=CC(O[C@@H]4O[C@H](CO)[C@@H](O)[C@H](O)[C@H]4O)=C(OC)C(O)=C3C2=O)C=C1OC

>  <standard_inchi>  (1822) 
InChI=1S/C25H28O13/c1-32-12-6-14(34-3)13(33-2)5-10(12)11-9-36-15-7-16(24(35-4)21(29)18(15)19(11)27)37-25-23(31)22(30)20(28)17(8-26)38-25/h5-7,9,17,20,22-23,25-26,28-31H,8H2,1-4H3/t17-,20-,22+,23-,25-/m1/s1

>  <standard_inchi_key>  (1822) 
AMUAOTIJXYEFIP-VIUVDTKASA-N

>  <name>  (1822) 
5-hydroxy-6-methoxy-7-[(2S,3R,4S,5S,6R)-3,4,5-trihydroxy-6-(hydroxymethyl)oxan-2-yl]oxy-3-(2,4,5-trimethoxyphenyl)chromen-4-one

>  <iupac_name>  (1822) 
5-hydroxy-6-methoxy-7-[(2~{S},3~{R},4~{S},5~{S},6~{R})-3,4,5-trihydroxy-6-(hydroxymethyl)tetrahydropyran-2-yl]oxy-3-(2,4,5-trimethoxyphenyl)chromen-4-one

>  <annotation_level>  (1822) 
5

>  <total_atom_count>  (1822) 
66

>  <heavy_atom_count>  (1822) 
38

>  <molecular_weight>  (1822) 
536.49

>  <exact_molecular_weight>  (1822) 
536.15299

>  <molecular_formula>  (1822) 
C25H28O13

>  <alogp>  (1822) 
0.38

>  <topological_polar_surface_area>  (1822) 
186.74

>  <rotatable_bond_count>  (1822) 
8

>  <hydrogen_bond_acceptors>  (1822) 
13

>  <hydrogen_bond_donors>  (1822) 
5

>  <hydrogen_bond_acceptors_lipinski>  (1822) 
13

>  <hydrogen_bond_donors_lipinski>  (1822) 
5

>  <lipinski_rule_of_five_violations>  (1822) 
2

>  <aromatic_rings_count>  (1822) 
3

>  <qed_drug_likeliness>  (1822) 
0.27

>  <formal_charge>  (1822) 
0

>  <fractioncsp3>  (1822) 
0.40

>  <number_of_minimal_rings>  (1822) 
4

>  <van_der_walls_volume>  (1822) 
447.40

>  <contains_sugar>  (1822) 
True

>  <contains_ring_sugars>  (1822) 
True

>  <contains_linear_sugars>  (1822) 
False

>  <murcko_framework>  (1822) 
O1C=C(c2ccccc2)Cc3ccc(OC4OCCCC4)cc13

>  <np_likeness>  (1822) 
1.75

>  <chemical_class>  (1822) 
Isoflavonoids

>  <chemical_sub_class>  (1822) 
Isoflavonoid O-glycosides

>  <chemical_super_class>  (1822) 
Phenylpropanoids and polyketides

>  <direct_parent_classification>  (1822) 
Isoflavonoid O-glycosides

>  <np_classifier_pathway>  (1822) 
Shikimates and Phenylpropanoids

>  <np_classifier_superclass>  (1822) 
Isoflavonoids

>  <np_classifier_class>  (1822) 
Isoflavones

>  <np_classifier_is_glycoside>  (1822) 
True

>  <organisms>  (1822) 
Dalbergia riparia|Dalbergia sissoo

>  <collections>  (1822) 
CMAUP (cCollective molecular activities of useful plants)|Latin America dataset|NPASS|NuBBEDB|WikiData Natural Products|ZINC NP

>  <dois>  (1822) 
10.1016/0031-9422(73)85048-4|10.1016/J.BMCL.2011.12.036|10.1016/j.bmcl.2011.12.036

>  <synonyms>  (1822) 
7-O-glycosylcaviunin|CHEMBL1945736

>  <cas>  (1822) 
nan

$$$$

     RDKit          2D

 35 39  0  0  0  0  0  0  0  0999 V2000
    5.4746   -4.7170    0.0000 C   0  0  0  0  0  0  0  0  0  0  0  0
    4.2033   -3.9208    0.0000 O   0  0  0  0  0  0  0  0  0  0  0  0
    4.2573   -2.4218    0.0000 C   0  0  0  0  0  0  0  0  0  0  0  0
    5.5825   -1.7190    0.0000 O   0  0  0  0  0  0  0  0  0  0  0  0
    2.9861   -1.6255    0.0000 C   0  0  0  0  0  0  0  0  0  0  0  0
    3.0400   -0.1265    0.0000 C   0  0  0  0  0  0  0  0  0  0  0  0
    4.3652    0.5763    0.0000 C   0  0  0  0  0  0  0  0  0  0  0  0
    4.8272   -0.8508    0.0000 C   0  0  0  0  0  0  0  0  0  0  0  0
    5.8509    0.7834    0.0000 C   0  0  0  0  0  0  0  0  0  0  0  0
    4.4192    2.0753    0.0000 C   0  0  0  0  0  0  0  0  0  0  0  0
    5.7444    2.7781    0.0000 O   0  0  0  0  0  0  0  0  0  0  0  0
    3.1480    2.8716    0.0000 C   0  0  0  0  0  0  0  0  0  0  0  0
    1.8228    2.1688    0.0000 C   0  0  0  0  0  0  0  0  0  0  0  0
    0.4138    2.6833    0.0000 O   0  0  0  0  0  0  0  0  0  0  0  0
   -0.5110    1.5023    0.0000 C   0  0  0  0  0  0  0  0  0  0  0  0
   -1.2137    2.8275    0.0000 C   0  0  0  0  0  0  0  0  0  0  0  0
   -2.0074    1.3993    0.0000 C   0  0  0  0  0  0  0  0  0  0  0  0
   -2.8449    2.6437    0.0000 C   0  0  0  0  0  0  0  0  0  0  0  0
   -4.3413    2.5407    0.0000 C   0  0  0  0  0  0  0  0  0  0  0  0
   -5.1788    3.7852    0.0000 O   0  0  0  0  0  0  0  0  0  0  0  0
   -5.0003    1.1932    0.0000 O   0  0  0  0  0  0  0  0  0  0  0  0
   -4.1629   -0.0512    0.0000 C   0  0  0  0  0  0  0  0  0  0  0  0
   -4.8219   -1.3987    0.0000 C   0  0  0  0  0  0  0  0  0  0  0  0
   -4.1191   -2.7239    0.0000 C   0  0  0  0  0  0  0  0  0  0  0  0
   -5.1622   -3.8018    0.0000 O   0  0  0  0  0  0  0  0  0  0  0  0
   -6.5097   -3.1428    0.0000 C   0  0  0  0  0  0  0  0  0  0  0  0
   -6.2994   -1.6576    0.0000 C   0  0  0  0  0  0  0  0  0  0  0  0
   -2.6664    0.0518    0.0000 C   0  0  0  0  0  0  0  0  0  0  0  0
   -3.3254   -1.2957    0.0000 C   0  0  0  0  0  0  0  0  0  0  0  0
   -1.8290   -1.1927    0.0000 C   0  0  0  0  0  0  0  0  0  0  0  0
   -0.3325   -1.0896    0.0000 C   0  0  0  0  0  0  0  0  0  0  0  0
    0.3265    0.2578    0.0000 C   0  0  0  0  0  0  0  0  0  0  0  0
    0.5369    1.7430    0.0000 O   0  0  0  0  0  0  0  0  0  0  0  0
    1.7688    0.6697    0.0000 C   0  0  0  0  0  0  0  0  0  0  0  0
    1.5585   -0.8154    0.0000 C   0  0  0  0  0  0  0  0  0  0  0  0
  1  2  1  0
  2  3  1  0
  3  4  2  0
  3  5  1  0
  6  5  1  6
  6  7  1  0
  7  8  1  0
  7  9  1  0
  7 10  1  0
 10 11  2  0
 10 12  1  0
 12 13  2  0
 13 14  1  0
 14 15  1  0
 15 16  1  6
 15 17  1  0
 17 18  2  0
 18 19  1  0
 19 20  2  0
 19 21  1  0
 21 22  1  0
 22 23  1  6
 23 24  2  0
 24 25  1  0
 25 26  1  0
 26 27  2  0
 22 28  1  0
 28 29  1  6
 28 30  1  0
 30 31  1  0
 31 32  1  0
 32 33  1  6
 32 34  1  0
 34 35  1  6
 34  6  1  0
 34 13  1  0
 32 15  1  0
 28 17  1  0
 27 23  1  0
M  END
>  <identifier>  (1823) 
CNP0080568.1

>  <canonical_smiles>  (1823) 
COC(=O)C[C@H]1C(C)(C)C(=O)C=C2O[C@]3(C)C4=CC(=O)O[C@@H](C5=COC=C5)[C@]4(C)CC[C@]3(O)[C@@]21C

>  <standard_inchi>  (1823) 
InChI=1S/C27H32O8/c1-23(2)16(11-20(29)32-6)25(4)19(13-18(23)28)35-26(5)17-12-21(30)34-22(15-7-10-33-14-15)24(17,3)8-9-27(25,26)31/h7,10,12-14,16,22,31H,8-9,11H2,1-6H3/t16-,22-,24+,25+,26+,27-/m0/s1

>  <standard_inchi_key>  (1823) 
CSJFWPRZNAQWMC-WALPXJTHSA-N

>  <name>  (1823) 
nan

>  <iupac_name>  (1823) 
methyl 2-[(4~{R},4~{a}~{R},6~{a}~{S},6~{b}~{S},7~{R},11~{a}~{R})-4-(3-furyl)-6~{a}-hydroxy-4~{a},6~{b},8,8,11~{a}-pentamethyl-2,9-dioxo-4,5,6,7-tetrahydrobenzofuro[2,3-f]isochromen-7-yl]acetate

>  <annotation_level>  (1823) 
4

>  <total_atom_count>  (1823) 
67

>  <heavy_atom_count>  (1823) 
35

>  <molecular_weight>  (1823) 
484.55

>  <exact_molecular_weight>  (1823) 
484.20972

>  <molecular_formula>  (1823) 
C27H32O8

>  <alogp>  (1823) 
3.80

>  <topological_polar_surface_area>  (1823) 
112.27

>  <rotatable_bond_count>  (1823) 
3

>  <hydrogen_bond_acceptors>  (1823) 
8

>  <hydrogen_bond_donors>  (1823) 
1

>  <hydrogen_bond_acceptors_lipinski>  (1823) 
8

>  <hydrogen_bond_donors_lipinski>  (1823) 
1

>  <lipinski_rule_of_five_violations>  (1823) 
0

>  <aromatic_rings_count>  (1823) 
1

>  <qed_drug_likeliness>  (1823) 
0.64

>  <formal_charge>  (1823) 
0

>  <fractioncsp3>  (1823) 
0.59

>  <number_of_minimal_rings>  (1823) 
5

>  <van_der_walls_volume>  (1823) 
nan

>  <contains_sugar>  (1823) 
False

>  <contains_ring_sugars>  (1823) 
False

>  <contains_linear_sugars>  (1823) 
False

>  <murcko_framework>  (1823) 
o1ccc(c1)C2OCC=C3C4OC5=CCCCC5C4CCC32

>  <np_likeness>  (1823) 
2.44

>  <chemical_class>  (1823) 
Pyrans

>  <chemical_sub_class>  (1823) 
Pyranones and derivatives

>  <chemical_super_class>  (1823) 
Organoheterocyclic compounds

>  <direct_parent_classification>  (1823) 
Dihydropyranones

>  <np_classifier_pathway>  (1823) 
Terpenoids

>  <np_classifier_superclass>  (1823) 
Triterpenoids

>  <np_classifier_class>  (1823) 
Limonoids

>  <np_classifier_is_glycoside>  (1823) 
False

>  <organisms>  (1823) 
Hortia oreadica

>  <collections>  (1823) 
Latin America dataset|NuBBEDB|WikiData Natural Products

>  <dois>  (1823) 
10.3390/MOLECULES190812031|10.3390/molecules190812031

>  <synonyms>  (1823) 
9\u221a\u00e9\u00ac\u00b1-hydroxyhortiolide A

>  <cas>  (1823) 
nan

$$$$

     RDKit          2D

 15 17  0  0  0  0  0  0  0  0999 V2000
    2.5765    0.1988    0.0000 C   0  0  0  0  0  0  0  0  0  0  0  0
    1.0772    0.2427    0.0000 C   0  0  0  0  0  0  0  0  0  0  0  0
    0.2338   -2.9349    0.0000 C   0  0  0  0  0  0  0  0  0  0  0  0
    1.5542   -2.2233    0.0000 C   0  0  0  0  0  0  0  0  0  0  0  0
    1.5981   -0.7239    0.0000 C   0  0  0  0  0  0  0  0  0  0  0  0
    0.3216    0.0638    0.0000 C   0  0  0  0  0  0  0  0  0  0  0  0
    1.6421    0.7755    0.0000 C   0  0  0  0  0  0  0  0  0  0  0  0
   -0.9988   -0.6478    0.0000 C   0  0  0  0  0  0  0  0  0  0  0  0
   -1.0427   -2.1472    0.0000 C   0  0  0  0  0  0  0  0  0  0  0  0
   -2.2753    0.1399    0.0000 C   0  0  0  0  0  0  0  0  0  0  0  0
   -3.5958   -0.5717    0.0000 C   0  0  0  0  0  0  0  0  0  0  0  0
   -2.2314    1.6392    0.0000 C   0  0  0  0  0  0  0  0  0  0  0  0
   -0.9110    2.3509    0.0000 C   0  0  0  0  0  0  0  0  0  0  0  0
    0.3655    1.5632    0.0000 C   0  0  0  0  0  0  0  0  0  0  0  0
    1.6860    2.2748    0.0000 C   0  0  0  0  0  0  0  0  0  0  0  0
  1  2  2  0
  2  3  1  0
  3  4  1  6
  4  5  1  0
  5  6  1  0
  6  7  1  6
  6  8  1  0
  8  9  1  1
  8 10  1  0
 10 11  1  1
 10 12  1  0
 12 13  1  0
 13 14  1  0
 14 15  1  6
 14  2  1  0
  9  3  1  0
 14  6  1  0
M  END
>  <identifier>  (1824) 
CNP0208701.2

>  <canonical_smiles>  (1824) 
C=C1[C@@H]2CC[C@@]3(C)[C@@H](C2)[C@@H](C)CC[C@@]13C

>  <standard_inchi>  (1824) 
InChI=1S/C15H24/c1-10-5-7-14(3)11(2)12-6-8-15(14,4)13(10)9-12/h10,12-13H,2,5-9H2,1,3-4H3/t10-,12+,13-,14-,15-/m0/s1

>  <standard_inchi_key>  (1824) 
QQWUXXGYAQMTAT-KLLKFSIISA-N

>  <name>  (1824) 
DTXSID101021181

>  <iupac_name>  (1824) 
(1~{R},3~{S},6~{S},7~{S},8~{S})-3,6,8-trimethyl-2-methylene-tricyclo[5.3.1.0^{3,8}]undecane

>  <annotation_level>  (1824) 
5

>  <total_atom_count>  (1824) 
39

>  <heavy_atom_count>  (1824) 
15

>  <molecular_weight>  (1824) 
204.36

>  <exact_molecular_weight>  (1824) 
204.1878

>  <molecular_formula>  (1824) 
C15H24

>  <alogp>  (1824) 
4.42

>  <topological_polar_surface_area>  (1824) 
0.00

>  <rotatable_bond_count>  (1824) 
0

>  <hydrogen_bond_acceptors>  (1824) 
0

>  <hydrogen_bond_donors>  (1824) 
0

>  <hydrogen_bond_acceptors_lipinski>  (1824) 
0

>  <hydrogen_bond_donors_lipinski>  (1824) 
0

>  <lipinski_rule_of_five_violations>  (1824) 
0

>  <aromatic_rings_count>  (1824) 
0

>  <qed_drug_likeliness>  (1824) 
0.51

>  <formal_charge>  (1824) 
0

>  <fractioncsp3>  (1824) 
0.87

>  <number_of_minimal_rings>  (1824) 
4

>  <van_der_walls_volume>  (1824) 
219.55

>  <contains_sugar>  (1824) 
False

>  <contains_ring_sugars>  (1824) 
False

>  <contains_linear_sugars>  (1824) 
False

>  <murcko_framework>  (1824) 
C1CC2CC3CCC2C(C1)C3

>  <np_likeness>  (1824) 
3.15

>  <chemical_class>  (1824) 
Polycyclic hydrocarbons

>  <chemical_sub_class>  (1824) 
Polycyclic hydrocarbons

>  <chemical_super_class>  (1824) 
Hydrocarbons

>  <direct_parent_classification>  (1824) 
Polycyclic hydrocarbons

>  <np_classifier_pathway>  (1824) 
Terpenoids

>  <np_classifier_superclass>  (1824) 
Sesquiterpenoids

>  <np_classifier_class>  (1824) 
Rotundane sesquiterpenoids

>  <np_classifier_is_glycoside>  (1824) 
False

>  <organisms>  (1824) 
Ipomoea obscura|Nardostachys chinensis|Nardostachys jatamansi|Persicaria hydropiperoides|Persicaria minor|Pogostemon cablin|Pogostemon patchouli Pellet.|Polygonum minus|Toona ciliata|common myrtle

>  <collections>  (1824) 
Australian natural products|KNApSaCK|Latin America dataset|NuBBEDB|Super Natural II|WikiData Natural Products

>  <dois>  (1824) 
10.1002/JSFA.6397|10.1016/J.JPBA.2005.09.015|10.1080/14786419.2015.1010085|10.1590/S0103-50532000000600012|10.3390/MOLECULES191119220

>  <synonyms>  (1824) 
Seychellene

>  <cas>  (1824) 
nan

$$$$

     RDKit          2D

 22 24  0  0  0  0  0  0  0  0999 V2000
    1.9184   -3.0941    0.0000 O   0  0  0  0  0  0  0  0  0  0  0  0
    1.4381   -1.6731    0.0000 C   0  0  0  0  0  0  0  0  0  0  0  0
    2.4286   -0.5466    0.0000 C   0  0  0  0  0  0  0  0  0  0  0  0
    3.8994   -0.8412    0.0000 C   0  0  0  0  0  0  0  0  0  0  0  0
    4.3797   -2.2622    0.0000 O   0  0  0  0  0  0  0  0  0  0  0  0
    4.8899    0.2853    0.0000 C   0  0  0  0  0  0  0  0  0  0  0  0
    4.4096    1.7063    0.0000 C   0  0  0  0  0  0  0  0  0  0  0  0
    5.4001    2.8328    0.0000 O   0  0  0  0  0  0  0  0  0  0  0  0
    2.9388    2.0009    0.0000 C   0  0  0  0  0  0  0  0  0  0  0  0
    1.9483    0.8744    0.0000 C   0  0  0  0  0  0  0  0  0  0  0  0
    0.4775    1.1690    0.0000 O   0  0  0  0  0  0  0  0  0  0  0  0
   -0.5130    0.0425    0.0000 C   0  0  0  0  0  0  0  0  0  0  0  0
   -1.9838    0.3371    0.0000 C   0  0  0  0  0  0  0  0  0  0  0  0
   -2.4641    1.7581    0.0000 C   0  0  0  0  0  0  0  0  0  0  0  0
   -3.9349    2.0527    0.0000 C   0  0  0  0  0  0  0  0  0  0  0  0
   -4.9254    0.9262    0.0000 C   0  0  0  0  0  0  0  0  0  0  0  0
   -6.3962    1.2208    0.0000 O   0  0  0  0  0  0  0  0  0  0  0  0
   -4.4451   -0.4948    0.0000 C   0  0  0  0  0  0  0  0  0  0  0  0
   -5.4356   -1.6213    0.0000 O   0  0  0  0  0  0  0  0  0  0  0  0
   -2.9743   -0.7894    0.0000 C   0  0  0  0  0  0  0  0  0  0  0  0
   -0.0327   -1.3785    0.0000 C   0  0  0  0  0  0  0  0  0  0  0  0
   -1.0232   -2.5050    0.0000 O   0  0  0  0  0  0  0  0  0  0  0  0
  1  2  2  0
  2  3  1  0
  3  4  2  0
  4  5  1  0
  4  6  1  0
  6  7  2  0
  7  8  1  0
  7  9  1  0
  9 10  2  0
 10 11  1  0
 11 12  1  0
 12 13  1  1
 13 14  2  0
 14 15  1  0
 15 16  2  0
 16 17  1  0
 16 18  1  0
 18 19  1  0
 18 20  2  0
 12 21  1  0
 21 22  1  6
 21  2  1  0
 10  3  1  0
 20 13  1  0
M  END
>  <identifier>  (1825) 
CNP0268073.2

>  <canonical_smiles>  (1825) 
O=C1C2=C(O)C=C(O)C=C2O[C@H](C2=CC=C(O)C(O)=C2)[C@H]1O

>  <standard_inchi>  (1825) 
InChI=1S/C15H12O7/c16-7-4-10(19)12-11(5-7)22-15(14(21)13(12)20)6-1-2-8(17)9(18)3-6/h1-5,14-19,21H/t14-,15+/m0/s1

>  <standard_inchi_key>  (1825) 
CXQWRCVTCMQVQX-LSDHHAIUSA-N

>  <name>  (1825) 
TAXIFOLIN

>  <iupac_name>  (1825) 
(2~{R},3~{R})-2-(3,4-dihydroxyphenyl)-3,5,7-trihydroxy-chroman-4-one

>  <annotation_level>  (1825) 
5

>  <total_atom_count>  (1825) 
34

>  <heavy_atom_count>  (1825) 
22

>  <molecular_weight>  (1825) 
304.25

>  <exact_molecular_weight>  (1825) 
304.0583

>  <molecular_formula>  (1825) 
C15H12O7

>  <alogp>  (1825) 
1.19

>  <topological_polar_surface_area>  (1825) 
127.45

>  <rotatable_bond_count>  (1825) 
1

>  <hydrogen_bond_acceptors>  (1825) 
7

>  <hydrogen_bond_donors>  (1825) 
5

>  <hydrogen_bond_acceptors_lipinski>  (1825) 
7

>  <hydrogen_bond_donors_lipinski>  (1825) 
5

>  <lipinski_rule_of_five_violations>  (1825) 
0

>  <aromatic_rings_count>  (1825) 
2

>  <qed_drug_likeliness>  (1825) 
0.50

>  <formal_charge>  (1825) 
0

>  <fractioncsp3>  (1825) 
0.13

>  <number_of_minimal_rings>  (1825) 
3

>  <van_der_walls_volume>  (1825) 
247.78

>  <contains_sugar>  (1825) 
False

>  <contains_ring_sugars>  (1825) 
False

>  <contains_linear_sugars>  (1825) 
False

>  <murcko_framework>  (1825) 
O1c2ccccc2CCC1c3ccccc3

>  <np_likeness>  (1825) 
2.30

>  <chemical_class>  (1825) 
Flavonoids

>  <chemical_sub_class>  (1825) 
Flavans

>  <chemical_super_class>  (1825) 
Phenylpropanoids and polyketides

>  <direct_parent_classification>  (1825) 
Flavanonols

>  <np_classifier_pathway>  (1825) 
Shikimates and Phenylpropanoids

>  <np_classifier_superclass>  (1825) 
Flavonoids

>  <np_classifier_class>  (1825) 
Dihydroflavonols

>  <np_classifier_is_glycoside>  (1825) 
False

>  <organisms>  (1825) 
A new engineered strain of Corynebacterium glutamicum [hom lysC pys]|Abedus herberti|Abies nephrolepis|Abies sp.|Absidia repens|Abuta panurensis|Acacia Catechu|Acacia carnei|Acacia carneorum|Acacia catechu|Acacia mearnsii|Adenocarpus foliolosus|Adoxophyes orana|Aeschrion excelsa|Aglaia formosana|Agrimonia pilosa|Agrimonia sp.|Agrobacterium tumefaciens|Albizia julibrissin|Alcea rosea|Alcyonium utinomii|Aldisa sanguinea|Allium aflatunense|Allium cepa|Allium minutiflorum|Alpinia blepharocalyx|Alpinia rafflesiana|Ambrosia artemisioides|Anastatica hierochuntica|Anaxagorea luzonensis|Anaxagorea luzonensis A.GRAY|Andira inermis|Anguilla japonica|Anigozanthos pulcherrimus|Anigozanthos rufus|Annona ambotay|Annona muricata|Another Engineered Escherichia coli strain [n.a.]|Anthemis altissima|Anthoxanthum nitens|Antillogorgia elisabethae|Aonidiella aurantii|Aphis graminum|Aphis pini|Aplysina archeri|Arabidopsis thaliana|Araiostegiella perdurans|Aristeomorpha foliacea|Artabotrys hexapetalus|Artemisia incanescens|Artemisia rehan|Aspergillus carneus|Aspergillus desertorum|Aspergillus striatus|Asteraceae|Aulosira fertilissima|Austrocedrus chilensis|Avrainvillea longicaulis|Baccharis scandens|Balanops australiana|Baphia bancoensis|Bauhinia purpurea|Berchemia floribunda|Berchemia formosana|Berchemia racemosa|Betula exilis|Betula platyphylla var. japonica|Bistorta manshuriensis|Bistorta officinalis|Boletus pini|Bostrychia scorpioides|Brachymeris montana|Brassica carinata|Brassica carinata Y line|Breonia chinensis|Brucea javanica|Bryocaulon pseudosatoanum|Bryum argenteum|Calceolaria hypericina|Calea clematidea|Callicarpa japonica|Callitris sp.|Calluna sp.|Caloboletus calopus|Camellia Sinensis|Camellia reticulata|Camellia sinensis|Campylotropis hirtella|Capnella erecta|Casuarina glauca|Cedrus deodara|Cerbera manghas|Cercidiphyllum japonicum|Cereus dumortieri|Ceropegia dichotoma|Chromolaena arnottiana|Chrysophyllum africanum|Cirsium oligophyllum|Citrus grandis|Citrus medica|Citrus sp.|Cladrastis platycarpa|Cleistopholis glauca|Clethra macrophylla|Clione antarctica|Colophospermum mopane|Coprosma areolata|Cortinarius odoratus|Cortinarius orellanus|Cota altissima|Crataegus flava|Crataegus sinaica|Crinum moorei|Crotalaria Assamica|Crotalaria Pallida|Crotalaria assamica|Crotalaria candicans|Crotalaria nitens|Crotalaria pallida|Croton zehntneri|Cryptomeria japonica|Cryptosporium pinicola|Curvularia falcata|Cuscuta reflexa|Cydonia vulgaris|Cylindrospermum muscicola|Cyperus papyrus|Dalbergia hupeana|Dalbergia inundata|Dalbergia retusa|Dendrobium loddigesii|Dillenia spp.|Dimorphotheca aurantiaca|Dioscorea alata|Diplodia natalensis|Discoglossus pictus|Distephanus angulifolius|Dolomedes okefinokensis|Dorstenia dinklagei|Drimys sp.|Drimys winteri|Duboisia leichhardtii|Echinus auritus|Elaeocarpus ganitrus|Elephantopus hirtiflorus|Eleutherobia albiflora|Engineered Escherichia coli strain [GPP; sabinene synthase genes]|Entada phaseoloides|Ephedra frustillata|Equisetum arvense|Equisetum sp.|Equsetum arvense|Eremanthus seidelii|Eria japonica|Erythroxylum rufum|Eucalyptus apodophylla|Eucalyptus consideniana|Eucalyptus dunnii|Eucalyptus globulus|Eucalyptus globulus subsp. bicostata|Eucalyptus grossa|Eucalyptus jenseni|Eucalyptus maidenii|Eucomis autumnalis|Euonymus tingens|Euphorbia amygdaloides|Euphorbia cornigera|Euphorbia laurifolia|Euryspongia arenaria|Fagus grandifolia|Fagus sp.|Ficus cordata|Ficus pumila|Fragaria|Gambeya africana|Gambierdiscus toxicus|Genista corsica|Glycine soja|Glycosmis macrophylla|Gmelina asiatica|Gongora quinquenervis|Grazielia serrata|Great yellow gentian|Gymnopus confluens|Gypsophila perfoliata|Helichrysum cephaloideum|Hemionitis japonica|Hesperis matronalis|Heywoodiella oligocephala|Humulus lupulus|Hydrocotyle vulgaris|Hylocereus undatus|Hylocomium splendens|Hypericum balearicum|Hypericum japonicum|Hypericum patulum|Hypericum polyanthemum|Hypoxylon tinctor|Ichthyothere latifolia|Ichthyothere terminalis|Idea leuconoe|Inula britannica|Inula japonica|Inula sp.|Ipomoea reptans|Islaya minor|Jackiella javanica|Jatropha macrorhiza|Juglans mandshurica|Junceella gemmacea|Juniperus chinensis|Juniperus drupacea|Kadsura Heteroclita|Kadsura heteroclita|Kokoona reflexa|Lachnophyllum gossypinum|Larix decidua|Larix gmelinii|Larix gmelinii var. gmelinii|Larix laricina|Larix sibirica|Lasiosiphon kraussianus|Lepraria lobificans|Leucanthemopsis pallida|Libanotis condensata|Lichtheimia blakesleeana|Ligularia cymbulifera|Lilium umbellatum|Lippia origanoides|Lippia sidoides|Lobelia cardinalis|Lobophytum laevigatum|Lonicera racemosa|Lotus pedunculatus|Lotus uliginosus|Maclura cochinchinensis|Maclura pomifera|Macrolepiota neomastoidea|Maesa ramentacea|Magnolia denudata|Magnolia liliiflora|Magnolia montana|Mallotus metcalfianus|Martensia denticulata|Matthiola incana|Maytenus retusa|Melanorrhoea spp.|Melolontha melolontha|Menispermum dauricum|Mentha cardiaca|Meum athamanticum|Microglossa pyrrhopappa|Millettia laurentii|Mimusops elengi|Mitragyna inermis|Momordica charantia|Monodora tenuifolia|Morinda morindoides|Morus alba|Mucuna membranacea|Myrsine lancifolia|Nelumbo nucifera|Nematolepis phebalioides|Neobellieria bullata|Neomoorea wallisii|Neorautanenia ficifolia|Nepeta argolica|Neurada procumbens|Neurymenia fraxinifolia|Nothofagus spp.|Nototodarus sloanii|Ocimum tenuiflorum|Ononis spinosa|Opuntia ficus-indica|Opuntia ficus-indica var.saboten|Opuntia humifusa|Opuntia humifusa humifusa|Opuntia vulgaris|Orchis fusca|Oreoherzogia fallax|Oreopteris quelpaertensis|Origanum dictamnus|Origanum vulgare|Othonna dentata|Oxalis repens|Paeonia rockii|Pangium edule|Paramecium tetraurelia|Paulownia tomentosa|Pelargonium reniforme|Penicillium janczewskii|Pentaclethra macrophylla|Periploca sepium|Perralderia coronopifolia|Perriera orientalis|Persicaria decipiens|Persicaria lapathifolia|Persicaria orientalis|Persicaria perfoliata|Persicaria salicifolia|Petunia hybrid|Phaseolus vulgaris|Phoebe formosana|Phora velutina|Phyllanthus emblica|Picea abies|Picea jezoensis|Picea obovata|Picea sp.|Pinus contorta|Pinus massoniana|Pinus ponderosa|Pinus sp.|Pinus strobus|Pinus sylvestris|Piper taboganum|Pistacia chinensis|Pittocaulon praecox|Pittocaulon velatum|Platycodon Grandiflorum|Platycodon grandiflorum|Platycodon grandiflorus|Plectocephalus chilensis|Plectranthus myrianthus|Plenodomus tracheiphilus|Pluchea odorata|Podocarpus nivalis|Polianthes tuberosa|Polygala caudata|Polygala reinii|Polygonum aviculare|Polygonum nodosum|Polyzonium rosalbum|Populus angustifolia|Prunus avium|Prunus cerasoides|Prunus cerasus|Prunus fruticosa|Prunus grayana|Prunus prostrata|Pseudofumaria lutea|Pseudoplexaura flagellosa|Pseudotsuga menziesii|Pseudotsuga taxifolia|Pseudozuga sp.|Psorospermum molluscum|Pteris cretica var. nervosa|Pterocarpus indica|Pterocaulon virgatum|Pterodon emarginatus|Pulicaria undulata|Rapanea lancifolia|Retama duriaei|Rhamnus disperma|Rhamnus lycioides|Rhamnus pallasii|Rhizobium leguminosarum|Rhodiola semenovii|Rhodococcus fascians|Rhododendron abietifolium|Rhododendron acuminatum|Rhododendron aurigeranum|Rhododendron bagobonum|Rhododendron beyerinckianum|Rhododendron brookeanum|Rhododendron buxifolium|Rhododendron christi|Rhododendron christianae|Rhododendron crassifolium|Rhododendron culminicola|Rhododendron culminicolum|Rhododendron dauricum|Rhododendron decorum|Rhododendron dianthosmum|Rhododendron durionifolium|Rhododendron gracilentum|Rhododendron hooglandii|Rhododendron inconspicuum|Rhododendron intranervatum|Rhododendron jasminiflorum|Rhododendron javanicum|Rhododendron kawakamii|Rhododendron konori|Rhododendron laetum|Rhododendron lanceolatum|Rhododendron latoucheae|Rhododendron leptanthum|Rhododendron leucogigas|Rhododendron macgregoriae|Rhododendron meijeri|Rhododendron micromalayanum|Rhododendron nervulosum|Rhododendron nieuwenhuisii|Rhododendron orbiculatum|Rhododendron phaeochitum|Rhododendron planecostatum|Rhododendron pneumonanthum|Rhododendron polyanthemum|Rhododendron praetervisum|Rhododendron rarum|Rhododendron retusum|Rhododendron robinsonii|Rhododendron rugosum|Rhododendron searleanum|Rhododendron sp.|Rhododendron spinuliferum|Rhododendron spp.|Rhododendron stapfianum|Rhododendron stenophyllum|Rhododendron suaveolens|Rhododendron superbum|Rhododendron vandeursenii|Rhododendron womersleyi|Rhododendron wrightianum|Rhododendron yelliottii|Rhododendron zoelleri|Rhus vulgaris|Ribes nigrum|Rosa canina|Rubia schumanniana|Sabal blackburniana|Sabal causiarum|Salacia lehmbachii|Salix caprea|Salix sachalinensis|Salix sp.|Salvia sessei|Salvia yosgadensis|Sapindus emarginatus|Sapium haematospermum|Sarcophyton elegans|Sasa paniculata|Scarlet firethorn|Scrophularia umbrosa|Sedum anglicum|Sedum forsteri|Sedum obtuso-lineare|Sedum reflexum|Sedum rupestre|Selenicereus undatus|Senecio adenophyllus|Senecio algens|Senecio anteuphorbium|Siberian larch|Sicana odorifera|Sideritis brevibracteata|Sideroxylon cubense|Silybum marianum|Silybum sp.|Sinularia facile|Sinularia granosa|Smilax Glabra|Smilax china|Smilax corbularia|Smilax glabra|Solanum habrochaites|Solanum sublobatum|Solidago flexicaulis|Sonneratia caseolaris|Sorghum bicolor|Spatholobus suberectus|Spatholobus suberectus Dunn|Sphyraena japonica|Spinulum annotinum|Stauranthus perforatus|Stephania zippeliana|Sterculia foetida|Stevia yaconensis|Stizolobium deeringianum|Stocksia brahuica|Streptomyces albidoflavus|Streptomyces sampsonii|Streptomyces sampsonii PM33|Strychnos erichsonii|Strychnos tomentosa|Suillus tridentinus|Swertia pseudochinensis|Talaromyces variabilis|Taxus mairei|Tephrosia virginiana|Thuja sp.|Thymus Vulgaris|Thymus quinquecostatus|Thymus sp.|Thymus vulgaris|Trachelospermum asiaticum|Trachelospermum jasminoides|Trichophyton mentagrophytes|Trichothecium sympodiale|Tristania conferta|Trollius chinensis|Umbilicaria esculenta|Vernonia cistifolia|Veronica polita|Vidalia volubilis|Vigna mungo|Viguiera decurrens|Viguiera linearis|Virola calophylloidea|Vitis cinerea|Xanthoceras sorbifolia|Xanthoceras sorbifolium|Ziziphus jujuba|Ziziphus mauritiana|Ziziphus spina-christi|asparagus|green tea|peanut|pomegranate|pomelo

>  <collections>  (1825) 
ANPDB|AnalytiCon Discovery NPs|Australian natural products|CMAUP (cCollective molecular activities of useful plants)|ChEBI NPs|ChemSpider NPs|DrugBankNP|ETM (Ethiopian Traditional Medicine) DB|FooDB|KNApSaCK|NANPDB (Natural Products from Northern African Sources)|NPACT|NPASS|NPEdia|NuBBEDB|Phyto4Health|PhytoLab phyproof® Reference Substances|SANCDB|StreptomeDB|Super Natural II|TCMDB-Taiwan (Traditional Chinese Medicine database)|TIPdb (database of Taiwan indigenous plants)|UEFS (Natural Products Databse of the UEFS)|VietHerb|WikiData Natural Products|ZINC NP

>  <dois>  (1825) 
10.1002/(SICI)1099-1565(199601)7:1<42::AID-PCA282>3.0.CO;2-K|10.1002/(SICI)1099-1573(199609)10:6<478::AID-PTR883>3.0.CO;2-S|10.1002/CBDV.201000373|10.1002/CBDV.201100002|10.1002/CBDV.201100021|10.1002/CHIN.200052210|10.1002/CHIN.200329185|10.1002/CHIN.200338195|10.1002/HLCA.200890142|10.1002/JCCS.199500018|10.1002/JCCS.199700056|10.1002/JCCS.199900034|10.1002/JCCS.200800033|10.1002/cbdv.201100021|10.1007/978-3-540-71095-0_9380|10.1007/BF00564126|10.1007/BF00564927|10.1007/BF00565363|10.1007/BF00571226|10.1007/BF00571236|10.1007/BF02542580|10.1007/BF02636221|10.1007/BF02859211|10.1007/BF02907158|10.1007/BF02975503|10.1007/BF02976598|10.1007/BF02976600|10.1007/S00425-015-2256-X|10.1007/S10600-009-9245-X|10.1007/S10600-009-9410-2|10.1007/S13197-014-1289-7|10.1007/s00253-001-0883-6|10.1007/s00425-015-2256-x|10.1016/0021-9673(95)00755-5|10.1016/0031-9422(80)85133-8|10.1016/0031-9422(82)80105-2|10.1016/0031-9422(82)83123-3|10.1016/0031-9422(83)80110-1|10.1016/0031-9422(88)83164-9|10.1016/0031-9422(88)84132-3|10.1016/0031-9422(88)87039-0|10.1016/0031-9422(90)80181-F|10.1016/0031-9422(90)89063-F|10.1016/0031-9422(93)85108-4|10.1016/0031-9422(95)00269-D|10.1016/0031-9422(95)00690-7|10.1016/0031-9422(96)00122-7|10.1016/0040-4020(59)80074-0|10.1016/0304-4238(78)90069-9|10.1016/J.BMC.2009.07.016|10.1016/J.BMC.2010.01.046|10.1016/J.BMCL.2003.11.074|10.1016/J.BMCL.2013.04.013|10.1016/J.BSE.2004.10.015|10.1016/J.BSE.2013.04.001|10.1016/J.FITOTE.2004.05.004|10.1016/J.FITOTE.2007.07.008|10.1016/J.FOODCHEM.2020.128444|10.1016/J.FOODRES.2017.06.052|10.1016/J.JFF.2014.08.013|10.1016/J.PHYTOCHEM.2005.09.015|10.1016/J.PHYTOCHEM.2006.04.009|10.1016/J.PHYTOCHEM.2006.05.008|10.1016/J.PHYTOCHEM.2007.11.019|10.1016/J.PHYTOCHEM.2010.12.018|10.1016/J.PHYTOL.2012.03.010|10.1016/S0021-9673(01)81355-8|10.1016/S0031-9422(00)80826-2|10.1016/S0031-9422(00)81226-1|10.1016/S0031-9422(00)81304-7|10.1016/S0031-9422(00)83902-3|10.1016/S0031-9422(00)84968-7|10.1016/S0031-9422(00)97773-2|10.1016/S0031-9422(01)00403-4|10.1016/S0031-9422(01)00441-1|10.1016/S0031-9422(02)00488-0|10.1016/S0031-9422(97)00012-5|10.1016/S0031-9422(97)00245-8|10.1016/S0031-9422(98)00106-X|10.1016/S0031-9422(99)00059-X|10.1016/S0031-9422(99)00262-9|10.1016/S0305-1978(02)00060-1|10.1016/S0305-1978(99)00064-2|10.1016/S0367-326X(01)00315-X|10.1016/S0378-8741(98)00069-5|10.1016/S0731-7085(98)00231-3|10.1016/S0944-7113(98)80010-X|10.1016/S0960-894X(03)00088-X|10.1016/S0960-894X(98)00528-9|10.1016/j.biortech.2017.06.058|10.1016/j.bmc.2010.01.046|10.1016/j.bmcl.2003.09.018|10.1016/j.foodchem.2020.128444|10.1016/s0021-9673(00)99190-8|10.1016/s0031-9422(00)86101-4|10.1016/s0960-894x(03)00088-x|10.1021/ACS.JNATPROD.9B01120|10.1021/JF00110A049|10.1021/JF048404O|10.1021/JF904596M|10.1021/NP0005917|10.1021/NP010636J|10.1021/NP020472M|10.1021/NP070104O|10.1021/NP100372T|10.1021/NP200188W|10.1021/NP50018A009|10.1021/NP50040A007|10.1021/NP50102A017|10.1021/NP9901478|10.1021/NP9902441|10.1021/NP990282K|10.1021/acs.jnatprod.7b00063|10.1021/acs.jnatprod.9b01120|10.1021/np020472m|10.1021/np100372t|10.1021/np200188w|10.1021/np200639s|10.1021/np400943b|10.1021/np4009738|10.1021/np900681y|10.1038/S41598-019-49478-2|10.1038/s41598-019-49478-2|10.1039/B105576N|10.1039/B300099K|10.1039/C39890000217|10.1039/J39660001644|10.1039/P19810000514|10.1046/J.1365-313X.2003.01834.X|10.1055/S-0028-1099931|10.1055/S-1999-13963|10.1055/S-2002-34416|10.1055/S-2002-35657|10.1055/S-2006-962330|10.1055/S-2007-971441|10.1055/s-0033-1352136|10.1080/09637486.2017.1418845|10.1080/10286020.2011.586944|10.1080/11263508209428058|10.1104/PP.100.1.444|10.1111/J.1750-3841.2008.00854.X|10.1139/V59-232|10.1158/0008-5472.CAN-04-4662|10.1177/095632029700800108|10.1177/1534735407301825|10.1186/1475-2859-13-20|10.1186/S12864-015-1547-8|10.1248/BPB.26.1042|10.1248/BPB.30.595|10.1248/CPB.39.803|10.1248/CPB.40.3081|10.1248/CPB.48.1219|10.1248/CPB.48.194|10.1248/CPB.60.129|10.1248/YAKUSHI1947.110.5_354|10.1271/BBB.90181|10.1300/J044V10N01_08|10.1371/JOURNAL.PONE.0121164|10.1371/JOURNAL.PONE.0142777|10.1371/JOURNAL.PONE.0212062|10.1371/JOURNAL.PONE.0219973|10.1515/ZNB-2008-1113|10.1515/ZNC-1983-7-810|10.1515/ZNC-1986-11-1204|10.1590/S0102-695X2010000100002|10.1590/S0103-50532000000200015|10.21608/BFSA.1985.75704|10.3390/MOLECULES13112796|10.3390/MOLECULES21111586|10.3390/MOLECULES23020469|10.3390/MOLECULES23071558|10.3746/JKFN.2011.40.4.517|10.3891/ACTA.CHEM.SCAND.06-1152|10.3891/ACTA.CHEM.SCAND.09-1728|10.3987/COM-08-11625|10.3987/COM-90-5425|10.4268/CJCMM20101316|10.4268/CJCMM20162420

>  <synonyms>  (1825) 
nan

>  <cas>  (1825) 
480-18-2|24198-97-8|17654-26-1|20254-28-8

$$$$

     RDKit          2D

 35 39  0  0  0  0  0  0  0  0999 V2000
   -0.5989   -4.5264    0.0000 C   0  0  0  0  0  0  0  0  0  0  0  0
   -1.8046   -3.6340    0.0000 O   0  0  0  0  0  0  0  0  0  0  0  0
   -1.6346   -2.1437    0.0000 C   0  0  0  0  0  0  0  0  0  0  0  0
   -0.2589   -1.5457    0.0000 C   0  0  0  0  0  0  0  0  0  0  0  0
   -0.0889   -0.0554    0.0000 C   0  0  0  0  0  0  0  0  0  0  0  0
    1.2868    0.5425    0.0000 C   0  0  0  0  0  0  0  0  0  0  0  0
    2.4924   -0.3499    0.0000 C   0  0  0  0  0  0  0  0  0  0  0  0
    3.8681    0.2481    0.0000 C   0  0  0  0  0  0  0  0  0  0  0  0
    5.0738   -0.6443    0.0000 O   0  0  0  0  0  0  0  0  0  0  0  0
    6.4494   -0.0464    0.0000 C   0  0  0  0  0  0  0  0  0  0  0  0
    7.6551   -0.9388    0.0000 O   0  0  0  0  0  0  0  0  0  0  0  0
    9.0308   -0.3409    0.0000 C   0  0  0  0  0  0  0  0  0  0  0  0
   10.2364   -1.2333    0.0000 C   0  0  0  0  0  0  0  0  0  0  0  0
   10.0664   -2.7236    0.0000 O   0  0  0  0  0  0  0  0  0  0  0  0
    9.2008    1.1495    0.0000 C   0  0  0  0  0  0  0  0  0  0  0  0
   10.5764    1.7474    0.0000 O   0  0  0  0  0  0  0  0  0  0  0  0
    7.9951    2.0419    0.0000 C   0  0  0  0  0  0  0  0  0  0  0  0
    8.1651    3.5322    0.0000 O   0  0  0  0  0  0  0  0  0  0  0  0
    6.6194    1.4439    0.0000 C   0  0  0  0  0  0  0  0  0  0  0  0
    5.4138    2.3363    0.0000 O   0  0  0  0  0  0  0  0  0  0  0  0
   -1.2946    0.8370    0.0000 C   0  0  0  0  0  0  0  0  0  0  0  0
   -2.6702    0.2391    0.0000 C   0  0  0  0  0  0  0  0  0  0  0  0
   -2.8403   -1.2513    0.0000 C   0  0  0  0  0  0  0  0  0  0  0  0
   -4.3102   -1.5501    0.0000 O   0  0  0  0  0  0  0  0  0  0  0  0
   -5.0486   -0.2445    0.0000 C   0  0  0  0  0  0  0  0  0  0  0  0
   -6.5390   -0.0745    0.0000 C   0  0  0  0  0  0  0  0  0  0  0  0
   -7.4314   -1.2801    0.0000 C   0  0  0  0  0  0  0  0  0  0  0  0
   -8.9217   -1.1101    0.0000 C   0  0  0  0  0  0  0  0  0  0  0  0
   -9.5196    0.2656    0.0000 C   0  0  0  0  0  0  0  0  0  0  0  0
  -10.9421    0.7417    0.0000 O   0  0  0  0  0  0  0  0  0  0  0  0
  -10.9288    2.2416    0.0000 C   0  0  0  0  0  0  0  0  0  0  0  0
   -9.4981    2.6925    0.0000 O   0  0  0  0  0  0  0  0  0  0  0  0
   -8.6272    1.4712    0.0000 C   0  0  0  0  0  0  0  0  0  0  0  0
   -7.1369    1.3012    0.0000 C   0  0  0  0  0  0  0  0  0  0  0  0
   -4.0351    0.8613    0.0000 C   0  0  0  0  0  0  0  0  0  0  0  0
  1  2  1  0
  2  3  1  0
  3  4  2  0
  4  5  1  0
  5  6  1  0
  6  7  1  0
  7  8  1  0
  8  9  1  0
 10  9  1  1
 10 11  1  0
 11 12  1  0
 12 13  1  1
 13 14  1  0
 12 15  1  0
 15 16  1  6
 15 17  1  0
 17 18  1  1
 17 19  1  0
 19 20  1  6
  5 21  2  0
 21 22  1  0
 22 23  2  0
 23 24  1  0
 24 25  1  0
 25 26  1  0
 26 27  2  0
 27 28  1  0
 28 29  2  0
 29 30  1  0
 30 31  1  0
 31 32  1  0
 32 33  1  0
 33 34  2  0
 25 35  2  0
 23  3  1  0
 34 26  1  0
 19 10  1  0
 35 22  1  0
 33 29  1  0
M  END
>  <identifier>  (1826) 
CNP0257432.1

>  <canonical_smiles>  (1826) 
COC1=CC(CCCO[C@@H]2O[C@H](CO)[C@@H](O)[C@H](O)[C@H]2O)=CC2=C1OC(C1=CC=C3OCOC3=C1)=C2

>  <standard_inchi>  (1826) 
InChI=1S/C25H28O10/c1-30-19-8-13(3-2-6-31-25-23(29)22(28)21(27)20(11-26)35-25)7-15-10-17(34-24(15)19)14-4-5-16-18(9-14)33-12-32-16/h4-5,7-10,20-23,25-29H,2-3,6,11-12H2,1H3/t20-,21-,22+,23-,25-/m1/s1

>  <standard_inchi_key>  (1826) 
RAMYDZNQLYKTGB-MXCHMSEPSA-N

>  <name>  (1826) 
egonol glucoside

>  <iupac_name>  (1826) 
(2~{R},3~{R},4~{S},5~{S},6~{R})-2-[3-[2-(1,3-benzodioxol-5-yl)-7-methoxy-benzofuran-5-yl]propoxy]-6-(hydroxymethyl)tetrahydropyran-3,4,5-triol

>  <annotation_level>  (1826) 
5

>  <total_atom_count>  (1826) 
63

>  <heavy_atom_count>  (1826) 
35

>  <molecular_weight>  (1826) 
488.49

>  <exact_molecular_weight>  (1826) 
488.16825

>  <molecular_formula>  (1826) 
C25H28O10

>  <alogp>  (1826) 
1.59

>  <topological_polar_surface_area>  (1826) 
140.21

>  <rotatable_bond_count>  (1826) 
8

>  <hydrogen_bond_acceptors>  (1826) 
10

>  <hydrogen_bond_donors>  (1826) 
4

>  <hydrogen_bond_acceptors_lipinski>  (1826) 
10

>  <hydrogen_bond_donors_lipinski>  (1826) 
4

>  <lipinski_rule_of_five_violations>  (1826) 
0

>  <aromatic_rings_count>  (1826) 
3

>  <qed_drug_likeliness>  (1826) 
0.35

>  <formal_charge>  (1826) 
0

>  <fractioncsp3>  (1826) 
0.44

>  <number_of_minimal_rings>  (1826) 
5

>  <van_der_walls_volume>  (1826) 
419.54

>  <contains_sugar>  (1826) 
True

>  <contains_ring_sugars>  (1826) 
True

>  <contains_linear_sugars>  (1826) 
False

>  <murcko_framework>  (1826) 
o1c2ccc(cc2cc1-c3ccc4OCOc4c3)CCCOC5OCCCC5

>  <np_likeness>  (1826) 
1.27

>  <chemical_class>  (1826) 
2-arylbenzofuran flavonoids

>  <chemical_sub_class>  (1826) 
2-arylbenzofuran flavonoids

>  <chemical_super_class>  (1826) 
Phenylpropanoids and polyketides

>  <direct_parent_classification>  (1826) 
2-arylbenzofuran flavonoids

>  <np_classifier_pathway>  (1826) 
Shikimates and Phenylpropanoids

>  <np_classifier_superclass>  (1826) 
Lignans

>  <np_classifier_class>  (1826) 
Neolignans

>  <np_classifier_is_glycoside>  (1826) 
True

>  <organisms>  (1826) 
Laetiporus sulphureus|Laetiporus sulphureus var. miniatus|Styrax ferrugineus|Styrax hookeri|Styrax japonicus|Styrax obassia

>  <collections>  (1826) 
CMAUP (cCollective molecular activities of useful plants)|ChEBI NPs|ChemSpider NPs|Latin America dataset|NPASS|NuBBEDB|Super Natural II|TCMDB-Taiwan (Traditional Chinese Medicine database)|WikiData Natural Products|ZINC NP

>  <dois>  (1826) 
10.1016/0031-9422(88)80314-5|10.1016/J.FITOTE.2007.01.001|10.1016/S0031-9422(00)00225-9|10.1248/CPB.49.327

>  <synonyms>  (1826) 
(2R,3R,4S,5S,6R)-2-[3-[2-(1,3-benzodioxol-5-yl)-7-methoxy-1-benzofuran-5-yl]propoxy]-6-(hydroxymethyl)oxane-3,4,5-triol|3-[2-(1,3-Benzodioxol-5-yl)-7-methoxy-5-benzofuranyl]propyl I(2)-D-glucopyranoside|3-[2-(2H-1,3-benzodioxol-5-yl)-7-methoxy-1-benzofuran-5-yl]propyl beta-D-glucopyranoside|5-[3''-(.beta.-D-glucopyranosyloxy)propyl]-7-methoxy-2-(3',4'-methylenedioxyphenyl)benzofuran|77690-83-6|CHEBI:134480|CHEMBL470983|DTXSID101136055|egonol beta-D-glucopyranoside|egonol beta-glucoside

>  <cas>  (1826) 
77690-83-6

$$$$

     RDKit          2D

 29 33  0  0  0  0  0  0  0  0999 V2000
   -5.9979   -3.1112    0.0000 C   0  0  0  0  0  0  0  0  0  0  0  0
   -6.2839   -1.6387    0.0000 O   0  0  0  0  0  0  0  0  0  0  0  0
   -5.1518   -0.6547    0.0000 C   0  0  0  0  0  0  0  0  0  0  0  0
   -3.7336   -1.1432    0.0000 C   0  0  0  0  0  0  0  0  0  0  0  0
   -2.6014   -0.1592    0.0000 C   0  0  0  0  0  0  0  0  0  0  0  0
   -1.1832   -0.6477    0.0000 C   0  0  0  0  0  0  0  0  0  0  0  0
    0.0456    0.2126    0.0000 O   0  0  0  0  0  0  0  0  0  0  0  0
    1.2435   -0.6903    0.0000 C   0  0  0  0  0  0  0  0  0  0  0  0
    2.6780   -0.2519    0.0000 C   0  0  0  0  0  0  0  0  0  0  0  0
    3.0156    1.2097    0.0000 C   0  0  0  0  0  0  0  0  0  0  0  0
    4.4501    1.6481    0.0000 C   0  0  0  0  0  0  0  0  0  0  0  0
    4.7876    3.1096    0.0000 O   0  0  0  0  0  0  0  0  0  0  0  0
    3.6907    4.1327    0.0000 C   0  0  0  0  0  0  0  0  0  0  0  0
    5.5470    0.6250    0.0000 C   0  0  0  0  0  0  0  0  0  0  0  0
    7.0413    0.7556    0.0000 O   0  0  0  0  0  0  0  0  0  0  0  0
    7.6273   -0.6252    0.0000 C   0  0  0  0  0  0  0  0  0  0  0  0
    6.4951   -1.6092    0.0000 O   0  0  0  0  0  0  0  0  0  0  0  0
    5.2094   -0.8365    0.0000 C   0  0  0  0  0  0  0  0  0  0  0  0
    3.7749   -1.2749    0.0000 C   0  0  0  0  0  0  0  0  0  0  0  0
    0.7550   -2.1085    0.0000 C   0  0  0  0  0  0  0  0  0  0  0  0
    1.6153   -3.3373    0.0000 C   0  0  0  0  0  0  0  0  0  0  0  0
   -0.7447   -2.0822    0.0000 C   0  0  0  0  0  0  0  0  0  0  0  0
   -1.6476   -3.2801    0.0000 C   0  0  0  0  0  0  0  0  0  0  0  0
   -2.8875    1.3132    0.0000 C   0  0  0  0  0  0  0  0  0  0  0  0
   -4.3057    1.8017    0.0000 C   0  0  0  0  0  0  0  0  0  0  0  0
   -5.4379    0.8177    0.0000 C   0  0  0  0  0  0  0  0  0  0  0  0
   -6.7236    1.5904    0.0000 O   0  0  0  0  0  0  0  0  0  0  0  0
   -6.3860    3.0519    0.0000 C   0  0  0  0  0  0  0  0  0  0  0  0
   -4.8917    3.1825    0.0000 O   0  0  0  0  0  0  0  0  0  0  0  0
  1  2  1  0
  2  3  1  0
  3  4  2  0
  4  5  1  0
  6  5  1  1
  6  7  1  0
  7  8  1  0
  8  9  1  1
  9 10  2  0
 10 11  1  0
 11 12  1  0
 12 13  1  0
 11 14  2  0
 14 15  1  0
 15 16  1  0
 16 17  1  0
 17 18  1  0
 18 19  2  0
  8 20  1  0
 20 21  1  1
 20 22  1  0
 22 23  1  6
  5 24  2  0
 24 25  1  0
 25 26  2  0
 26 27  1  0
 27 28  1  0
 28 29  1  0
 26  3  1  0
 22  6  1  0
 29 25  1  0
 19  9  1  0
 18 14  1  0
M  END
>  <identifier>  (1827) 
CNP0114716.1

>  <canonical_smiles>  (1827) 
COC1=CC([C@H]2O[C@@H](C3=CC(OC)=C4OCOC4=C3)[C@@H](C)[C@@H]2C)=CC2=C1OCO2

>  <standard_inchi>  (1827) 
InChI=1S/C22H24O7/c1-11-12(2)20(14-6-16(24-4)22-18(8-14)26-10-28-22)29-19(11)13-5-15(23-3)21-17(7-13)25-9-27-21/h5-8,11-12,19-20H,9-10H2,1-4H3/t11-,12-,19-,20+/m0/s1

>  <standard_inchi_key>  (1827) 
ISBKEYQPAWAMRF-HKKFXGGESA-N

>  <name>  (1827) 
rel-Dimethylenedioxy-dimethoxy-epoxylignan

>  <iupac_name>  (1827) 
4-methoxy-6-[(2~{R},3~{S},4~{S},5~{S})-5-(7-methoxy-1,3-benzodioxol-5-yl)-3,4-dimethyl-tetrahydrofuran-2-yl]-1,3-benzodioxole

>  <annotation_level>  (1827) 
5

>  <total_atom_count>  (1827) 
53

>  <heavy_atom_count>  (1827) 
29

>  <molecular_weight>  (1827) 
400.43

>  <exact_molecular_weight>  (1827) 
400.1522

>  <molecular_formula>  (1827) 
C22H24O7

>  <alogp>  (1827) 
4.25

>  <topological_polar_surface_area>  (1827) 
64.61

>  <rotatable_bond_count>  (1827) 
4

>  <hydrogen_bond_acceptors>  (1827) 
7

>  <hydrogen_bond_donors>  (1827) 
0

>  <hydrogen_bond_acceptors_lipinski>  (1827) 
7

>  <hydrogen_bond_donors_lipinski>  (1827) 
0

>  <lipinski_rule_of_five_violations>  (1827) 
0

>  <aromatic_rings_count>  (1827) 
2

>  <qed_drug_likeliness>  (1827) 
0.76

>  <formal_charge>  (1827) 
0

>  <fractioncsp3>  (1827) 
0.46

>  <number_of_minimal_rings>  (1827) 
5

>  <van_der_walls_volume>  (1827) 
351.30

>  <contains_sugar>  (1827) 
False

>  <contains_ring_sugars>  (1827) 
False

>  <contains_linear_sugars>  (1827) 
False

>  <murcko_framework>  (1827) 
O1c2ccc(cc2OC1)C3OC(c4ccc5OCOc5c4)CC3

>  <np_likeness>  (1827) 
0.92

>  <chemical_class>  (1827) 
Furanoid lignans

>  <chemical_sub_class>  (1827) 
Tetrahydrofuran lignans

>  <chemical_super_class>  (1827) 
Lignans, neolignans and related compounds

>  <direct_parent_classification>  (1827) 
7,7'-epoxylignans

>  <np_classifier_pathway>  (1827) 
Shikimates and Phenylpropanoids

>  <np_classifier_superclass>  (1827) 
Lignans

>  <np_classifier_class>  (1827) 
Furanoid lignans

>  <np_classifier_is_glycoside>  (1827) 
False

>  <organisms>  (1827) 
Peperomia blanda

>  <collections>  (1827) 
ChemSpider NPs|Latin America dataset|NuBBEDB|Super Natural II|WikiData Natural Products|ZINC NP

>  <dois>  (1827) 
10.1016/J.PHYTOCHEM.2007.08.012|10.1016/j.phytochem.2007.08.012

>  <synonyms>  (1827) 
4-methoxy-6-[(2R,3S,4S,5S)-5-(7-methoxy-1,3-benzodioxol-5-yl)-3,4-dimethyl-tetrahydrofuran-2-yl]-1,3-benzodioxole|Rel-(7R8S7'S8'S)-454'5'-dimethylenedioxy-33'-dimethoxy-77'-epoxylignan

>  <cas>  (1827) 
nan

$$$$

     RDKit          2D

 23 27  0  0  0  0  0  0  0  0999 V2000
   -4.9217   -1.8791    0.0000 C   0  0  0  0  0  0  0  0  0  0  0  0
   -4.0809   -0.6370    0.0000 O   0  0  0  0  0  0  0  0  0  0  0  0
   -2.5847   -0.7441    0.0000 C   0  0  0  0  0  0  0  0  0  0  0  0
   -1.9294   -2.0934    0.0000 C   0  0  0  0  0  0  0  0  0  0  0  0
   -0.4332   -2.2005    0.0000 C   0  0  0  0  0  0  0  0  0  0  0  0
    0.4076   -0.9583    0.0000 C   0  0  0  0  0  0  0  0  0  0  0  0
   -0.4085   -0.8493    0.0000 C   0  0  0  0  0  0  0  0  0  0  0  0
   -1.7614   -0.7525    0.0000 O   0  0  0  0  0  0  0  0  0  0  0  0
    1.9021   -0.7660    0.0000 C   0  0  0  0  0  0  0  0  0  0  0  0
    2.6948   -2.0394    0.0000 C   0  0  0  0  0  0  0  0  0  0  0  0
    4.1940   -1.9896    0.0000 C   0  0  0  0  0  0  0  0  0  0  0  0
    4.9004   -0.6663    0.0000 C   0  0  0  0  0  0  0  0  0  0  0  0
    4.1076    0.6071    0.0000 C   0  0  0  0  0  0  0  0  0  0  0  0
    4.8141    1.9303    0.0000 O   0  0  0  0  0  0  0  0  0  0  0  0
    2.6085    0.5572    0.0000 C   0  0  0  0  0  0  0  0  0  0  0  0
    1.8157    1.8306    0.0000 C   0  0  0  0  0  0  0  0  0  0  0  0
    0.3165    1.7808    0.0000 C   0  0  0  0  0  0  0  0  0  0  0  0
   -0.8309    2.7469    0.0000 O   0  0  0  0  0  0  0  0  0  0  0  0
   -2.1043    1.9541    0.0000 C   0  0  0  0  0  0  0  0  0  0  0  0
   -3.4941    2.5183    0.0000 O   0  0  0  0  0  0  0  0  0  0  0  0
   -1.7438    0.4981    0.0000 C   0  0  0  0  0  0  0  0  0  0  0  0
   -3.2206    0.7610    0.0000 C   0  0  0  0  0  0  0  0  0  0  0  0
   -0.2477    0.3909    0.0000 C   0  0  0  0  0  0  0  0  0  0  0  0
  1  2  1  0
  3  2  1  1
  3  4  1  0
  4  5  1  0
  5  6  1  0
  6  7  1  0
  7  8  1  0
  6  9  1  6
  9 10  1  0
 10 11  1  0
 11 12  1  0
 12 13  1  0
 13 14  1  1
 13 15  1  0
 15 16  1  0
 17 16  1  6
 17 18  1  0
 18 19  1  0
 19 20  2  0
 19 21  1  0
 21 22  1  1
 21 23  1  0
  8  3  1  0
 15  9  1  0
 23 17  1  0
 21  3  1  0
 23  6  1  0
M  END
>  <identifier>  (1828) 
CNP0272088.1

>  <canonical_smiles>  (1828) 
CO[C@]12CC[C@]3(CO1)C1CCC[C@H](O)C1C[C@H]1OC(=O)[C@]2(C)C13

>  <standard_inchi>  (1828) 
InChI=1S/C18H26O5/c1-16-14-13(23-15(16)20)8-10-11(4-3-5-12(10)19)17(14)6-7-18(16,21-2)22-9-17/h10-14,19H,3-9H2,1-2H3/t10?,11?,12-,13+,14?,16-,17-,18+/m0/s1

>  <standard_inchi_key>  (1828) 
ABTVKQSARLIFSE-WTNJYCAOSA-N

>  <name>  (1828) 
nan

>  <iupac_name>  (1828) 
(1~{S},6~{S},9~{R},12~{R},13~{R})-6-hydroxy-13-methoxy-12-methyl-10,14-dioxapentacyclo[11.2.2.1^{1,9}.0^{2,7}.0^{12,18}]octadecan-11-one

>  <annotation_level>  (1828) 
3

>  <total_atom_count>  (1828) 
49

>  <heavy_atom_count>  (1828) 
23

>  <molecular_weight>  (1828) 
322.4

>  <exact_molecular_weight>  (1828) 
322.17802

>  <molecular_formula>  (1828) 
C18H26O5

>  <alogp>  (1828) 
1.87

>  <topological_polar_surface_area>  (1828) 
64.99

>  <rotatable_bond_count>  (1828) 
1

>  <hydrogen_bond_acceptors>  (1828) 
5

>  <hydrogen_bond_donors>  (1828) 
1

>  <hydrogen_bond_acceptors_lipinski>  (1828) 
5

>  <hydrogen_bond_donors_lipinski>  (1828) 
1

>  <lipinski_rule_of_five_violations>  (1828) 
0

>  <aromatic_rings_count>  (1828) 
0

>  <qed_drug_likeliness>  (1828) 
0.75

>  <formal_charge>  (1828) 
0

>  <fractioncsp3>  (1828) 
0.94

>  <number_of_minimal_rings>  (1828) 
6

>  <van_der_walls_volume>  (1828) 
nan

>  <contains_sugar>  (1828) 
False

>  <contains_ring_sugars>  (1828) 
False

>  <contains_linear_sugars>  (1828) 
False

>  <murcko_framework>  (1828) 
O1CC2C3OCC4(CC3)C5CCCCC5CC1C24

>  <np_likeness>  (1828) 
2.92

>  <chemical_class>  (1828) 
Naphthopyrans

>  <chemical_sub_class>  (1828) 
Naphthopyrans

>  <chemical_super_class>  (1828) 
Organoheterocyclic compounds

>  <direct_parent_classification>  (1828) 
Naphthopyrans

>  <np_classifier_pathway>  (1828) 
Terpenoids

>  <np_classifier_superclass>  (1828) 
Diterpenoids

>  <np_classifier_class>  (1828) 
nan

>  <np_classifier_is_glycoside>  (1828) 
True

>  <organisms>  (1828) 
Casimirella rupestris|Humirianthera rupestris

>  <collections>  (1828) 
Latin America dataset|NuBBEDB|WikiData Natural Products

>  <dois>  (1828) 
10.1016/S0031-9422(00)98552-2

>  <synonyms>  (1828) 
nan

>  <cas>  (1828) 
nan

$$$$

     RDKit          2D

 37 41  0  0  0  0  0  0  0  0999 V2000
    6.5261   -3.3412    0.0000 C   0  0  0  0  0  0  0  0  0  0  0  0
    5.8267   -2.0142    0.0000 O   0  0  0  0  0  0  0  0  0  0  0  0
    4.3278   -1.9565    0.0000 C   0  0  0  0  0  0  0  0  0  0  0  0
    3.5283   -3.2256    0.0000 O   0  0  0  0  0  0  0  0  0  0  0  0
    3.6284   -0.6295    0.0000 C   0  0  0  0  0  0  0  0  0  0  0  0
    5.1273   -0.6873    0.0000 C   0  0  0  0  0  0  0  0  0  0  0  0
    5.9268    0.5819    0.0000 C   0  0  0  0  0  0  0  0  0  0  0  0
    5.2274    1.9089    0.0000 C   0  0  0  0  0  0  0  0  0  0  0  0
    6.0268    3.1781    0.0000 C   0  0  0  0  0  0  0  0  0  0  0  0
    3.7285    1.9667    0.0000 C   0  0  0  0  0  0  0  0  0  0  0  0
    2.3397    2.5336    0.0000 C   0  0  0  0  0  0  0  0  0  0  0  0
    4.0456    3.4327    0.0000 O   0  0  0  0  0  0  0  0  0  0  0  0
    2.9290    0.6975    0.0000 C   0  0  0  0  0  0  0  0  0  0  0  0
    1.4301    0.7552    0.0000 C   0  0  0  0  0  0  0  0  0  0  0  0
    0.7307    2.0822    0.0000 C   0  0  0  0  0  0  0  0  0  0  0  0
   -0.7682    2.1400    0.0000 C   0  0  0  0  0  0  0  0  0  0  0  0
   -1.5677    0.8708    0.0000 C   0  0  0  0  0  0  0  0  0  0  0  0
   -3.0666    0.9286    0.0000 C   0  0  0  0  0  0  0  0  0  0  0  0
   -2.2671    2.1978    0.0000 C   0  0  0  0  0  0  0  0  0  0  0  0
   -3.7660    2.2555    0.0000 C   0  0  0  0  0  0  0  0  0  0  0  0
   -5.2649    2.3133    0.0000 C   0  0  0  0  0  0  0  0  0  0  0  0
   -6.0643    1.0441    0.0000 C   0  0  0  0  0  0  0  0  0  0  0  0
   -7.5632    1.1019    0.0000 O   0  0  0  0  0  0  0  0  0  0  0  0
   -5.3649   -0.2829    0.0000 C   0  0  0  0  0  0  0  0  0  0  0  0
   -5.1615   -1.7690    0.0000 C   0  0  0  0  0  0  0  0  0  0  0  0
   -3.7728   -2.3359    0.0000 O   0  0  0  0  0  0  0  0  0  0  0  0
   -6.7932   -0.7412    0.0000 C   0  0  0  0  0  0  0  0  0  0  0  0
   -7.1104   -2.2073    0.0000 O   0  0  0  0  0  0  0  0  0  0  0  0
   -3.8660   -0.3406    0.0000 C   0  0  0  0  0  0  0  0  0  0  0  0
   -3.1666   -1.6676    0.0000 C   0  0  0  0  0  0  0  0  0  0  0  0
   -1.6677   -1.7254    0.0000 C   0  0  0  0  0  0  0  0  0  0  0  0
   -0.8683   -0.4562    0.0000 C   0  0  0  0  0  0  0  0  0  0  0  0
   -0.1689   -1.7831    0.0000 C   0  0  0  0  0  0  0  0  0  0  0  0
    0.6306   -0.5139    0.0000 C   0  0  0  0  0  0  0  0  0  0  0  0
    2.1295   -0.5717    0.0000 C   0  0  0  0  0  0  0  0  0  0  0  0
    1.3300   -1.8409    0.0000 C   0  0  0  0  0  0  0  0  0  0  0  0
    2.8289   -1.8987    0.0000 C   0  0  0  0  0  0  0  0  0  0  0  0
  1  2  1  0
  2  3  1  0
  3  4  2  0
  5  3  1  1
  5  6  1  0
  6  7  1  0
  7  8  1  0
  8  9  1  6
  8 10  1  0
 10 11  1  1
 10 12  1  0
 10 13  1  0
 13 14  1  0
 14 15  2  0
 15 16  1  0
 16 17  1  0
 17 18  1  0
 18 19  1  1
 18 20  1  0
 20 21  1  0
 21 22  1  0
 22 23  1  1
 22 24  1  0
 24 25  1  0
 25 26  1  0
 24 27  1  0
 27 28  1  0
 24 29  1  0
 29 30  1  0
 30 31  1  0
 31 32  1  0
 32 33  1  1
 32 34  1  0
 34 35  1  6
 34 36  1  0
 36 37  1  0
 13  5  1  0
 34 14  1  0
 37  5  1  0
 32 17  1  0
 29 18  1  0
M  END
>  <identifier>  (1829) 
CNP0080564.1

>  <canonical_smiles>  (1829) 
COC(=O)[C@]12CC[C@@H](C)[C@@](C)(O)C1C1=CCC3[C@@]4(C)CC[C@H](O)C(CO)(CO)C4CC[C@@]3(C)[C@]1(C)CC2

>  <standard_inchi>  (1829) 
InChI=1S/C31H50O6/c1-19-9-14-30(25(35)37-6)16-15-27(3)20(24(30)29(19,5)36)7-8-21-26(2)12-11-23(34)31(17-32,18-33)22(26)10-13-28(21,27)4/h7,19,21-24,32-34,36H,8-18H2,1-6H3/t19-,21?,22?,23+,24?,26-,27-,28-,29-,30+/m1/s1

>  <standard_inchi_key>  (1829) 
TXJQTZQVBOZFPM-BGMKYFIISA-N

>  <name>  (1829) 
nan

>  <iupac_name>  (1829) 
methyl (1~{R},2~{R},4~{a}~{S},6~{a}~{S},6~{b}~{R},10~{S},12~{a}~{R})-1,10-dihydroxy-9,9-bis(hydroxymethyl)-1,2,6~{a},6~{b},12~{a}-pentamethyl-2,3,4,5,6,6~{a},7,8,8~{a},10,11,12,13,14~{b}-tetradecahydropicene-4~{a}-carboxylate

>  <annotation_level>  (1829) 
3

>  <total_atom_count>  (1829) 
87

>  <heavy_atom_count>  (1829) 
37

>  <molecular_weight>  (1829) 
518.74

>  <exact_molecular_weight>  (1829) 
518.36074

>  <molecular_formula>  (1829) 
C31H50O6

>  <alogp>  (1829) 
4.24

>  <topological_polar_surface_area>  (1829) 
107.22

>  <rotatable_bond_count>  (1829) 
3

>  <hydrogen_bond_acceptors>  (1829) 
6

>  <hydrogen_bond_donors>  (1829) 
4

>  <hydrogen_bond_acceptors_lipinski>  (1829) 
6

>  <hydrogen_bond_donors_lipinski>  (1829) 
4

>  <lipinski_rule_of_five_violations>  (1829) 
1

>  <aromatic_rings_count>  (1829) 
0

>  <qed_drug_likeliness>  (1829) 
0.33

>  <formal_charge>  (1829) 
0

>  <fractioncsp3>  (1829) 
0.90

>  <number_of_minimal_rings>  (1829) 
5

>  <van_der_walls_volume>  (1829) 
nan

>  <contains_sugar>  (1829) 
False

>  <contains_ring_sugars>  (1829) 
False

>  <contains_linear_sugars>  (1829) 
False

>  <murcko_framework>  (1829) 
C1=C2C3CCCCC3CCC2C4CCC5CCCCC5C4C1

>  <np_likeness>  (1829) 
3.16

>  <chemical_class>  (1829) 
Prenol lipids

>  <chemical_sub_class>  (1829) 
Triterpenoids

>  <chemical_super_class>  (1829) 
Lipids and lipid-like molecules

>  <direct_parent_classification>  (1829) 
Taraxastane, ursane, and bauerane triterpenoids

>  <np_classifier_pathway>  (1829) 
Terpenoids

>  <np_classifier_superclass>  (1829) 
Triterpenoids

>  <np_classifier_class>  (1829) 
Ursane and Taraxastane triterpenoids

>  <np_classifier_is_glycoside>  (1829) 
False

>  <organisms>  (1829) 
Alibertia edulis

>  <collections>  (1829) 
Latin America dataset|NuBBEDB|WikiData Natural Products

>  <dois>  (1829) 
10.1016/S0031-9422(00)89654-5

>  <synonyms>  (1829) 
nan

>  <cas>  (1829) 
nan

$$$$

     RDKit          2D

 20 22  0  0  0  0  0  0  0  0999 V2000
   -0.4295   -3.3626    0.0000 C   0  0  0  0  0  0  0  0  0  0  0  0
    0.8312   -2.5498    0.0000 O   0  0  0  0  0  0  0  0  0  0  0  0
    0.7575   -1.0516    0.0000 C   0  0  0  0  0  0  0  0  0  0  0  0
   -0.5767   -0.3662    0.0000 C   0  0  0  0  0  0  0  0  0  0  0  0
   -1.9789   -0.8992    0.0000 O   0  0  0  0  0  0  0  0  0  0  0  0
   -2.9190    0.2696    0.0000 C   0  0  0  0  0  0  0  0  0  0  0  0
   -4.4172    0.1959    0.0000 C   0  0  0  0  0  0  0  0  0  0  0  0
   -4.3436   -1.3022    0.0000 C   0  0  0  0  0  0  0  0  0  0  0  0
   -4.4908    1.6941    0.0000 C   0  0  0  0  0  0  0  0  0  0  0  0
   -5.9154    0.1223    0.0000 O   0  0  0  0  0  0  0  0  0  0  0  0
   -2.0980    1.5249    0.0000 C   0  0  0  0  0  0  0  0  0  0  0  0
   -0.6504    1.1319    0.0000 C   0  0  0  0  0  0  0  0  0  0  0  0
    0.6103    1.9448    0.0000 C   0  0  0  0  0  0  0  0  0  0  0  0
    1.9446    1.2595    0.0000 C   0  0  0  0  0  0  0  0  0  0  0  0
    2.0182   -0.2387    0.0000 C   0  0  0  0  0  0  0  0  0  0  0  0
    3.3525   -0.9241    0.0000 O   0  0  0  0  0  0  0  0  0  0  0  0
    4.6131   -0.1112    0.0000 C   0  0  0  0  0  0  0  0  0  0  0  0
    5.9474   -0.7966    0.0000 O   0  0  0  0  0  0  0  0  0  0  0  0
    4.5395    1.3870    0.0000 C   0  0  0  0  0  0  0  0  0  0  0  0
    3.2052    2.0723    0.0000 C   0  0  0  0  0  0  0  0  0  0  0  0
  1  2  1  0
  2  3  1  0
  3  4  2  0
  4  5  1  0
  5  6  1  0
  6  7  1  6
  7  8  1  0
  7  9  1  0
  7 10  1  0
  6 11  1  0
 11 12  1  0
 12 13  2  0
 13 14  1  0
 14 15  2  0
 15 16  1  0
 16 17  1  0
 17 18  2  0
 17 19  1  0
 19 20  2  0
 15  3  1  0
 12  4  1  0
 20 14  1  0
M  END
>  <identifier>  (1830) 
CNP0293466.1

>  <canonical_smiles>  (1830) 
COC1=C2O[C@H](C(C)(C)O)CC2=CC2=C1OC(=O)C=C2

>  <standard_inchi>  (1830) 
InChI=1S/C15H16O5/c1-15(2,17)10-7-9-6-8-4-5-11(16)20-12(8)14(18-3)13(9)19-10/h4-6,10,17H,7H2,1-3H3/t10-/m0/s1

>  <standard_inchi_key>  (1830) 
KMOMCIKYMUNSPU-JTQLQIEISA-N

>  <name>  (1830) 
Methoxy rutaretin

>  <iupac_name>  (1830) 
(2~{S})-2-(1-hydroxy-1-methyl-ethyl)-9-methoxy-2,3-dihydrofuro[3,2-g]chromen-7-one

>  <annotation_level>  (1830) 
5

>  <total_atom_count>  (1830) 
36

>  <heavy_atom_count>  (1830) 
20

>  <molecular_weight>  (1830) 
276.29

>  <exact_molecular_weight>  (1830) 
276.09977

>  <molecular_formula>  (1830) 
C15H16O5

>  <alogp>  (1830) 
1.88

>  <topological_polar_surface_area>  (1830) 
68.90

>  <rotatable_bond_count>  (1830) 
2

>  <hydrogen_bond_acceptors>  (1830) 
5

>  <hydrogen_bond_donors>  (1830) 
1

>  <hydrogen_bond_acceptors_lipinski>  (1830) 
5

>  <hydrogen_bond_donors_lipinski>  (1830) 
1

>  <lipinski_rule_of_five_violations>  (1830) 
0

>  <aromatic_rings_count>  (1830) 
2

>  <qed_drug_likeliness>  (1830) 
0.85

>  <formal_charge>  (1830) 
0

>  <fractioncsp3>  (1830) 
0.40

>  <number_of_minimal_rings>  (1830) 
3

>  <van_der_walls_volume>  (1830) 
nan

>  <contains_sugar>  (1830) 
False

>  <contains_ring_sugars>  (1830) 
False

>  <contains_linear_sugars>  (1830) 
False

>  <murcko_framework>  (1830) 
O1c2cc3OCCc3cc2C=CC1

>  <np_likeness>  (1830) 
2.23

>  <chemical_class>  (1830) 
Coumarins and derivatives

>  <chemical_sub_class>  (1830) 
Furanocoumarins

>  <chemical_super_class>  (1830) 
Phenylpropanoids and polyketides

>  <direct_parent_classification>  (1830) 
Psoralens

>  <np_classifier_pathway>  (1830) 
Shikimates and Phenylpropanoids

>  <np_classifier_superclass>  (1830) 
Coumarins

>  <np_classifier_class>  (1830) 
Furocoumarins

>  <np_classifier_is_glycoside>  (1830) 
False

>  <organisms>  (1830) 
Euxylophora paraensis|Fatoua pilosa|Fatoua villosa

>  <collections>  (1830) 
Latin America dataset|NuBBEDB|Super Natural II|WikiData Natural Products|ZINC NP

>  <dois>  (1830) 
10.1002/CBDV.200900326|10.1590/S0100-40422012001100004

>  <synonyms>  (1830) 
13895-93-7|2,3-dihydro-2-(1-hydroxy-1-methylethyl)-9-methoxy-7H-furo[3,2-g][1]benzopyran- 7-one|8-Methoxymarmesin

>  <cas>  (1830) 
13895-93-7

$$$$

     RDKit          2D

 28 32  0  0  0  0  0  0  0  0999 V2000
   -7.1618    1.8068    0.0000 C   0  0  0  0  0  0  0  0  0  0  0  0
   -5.6656    1.7000    0.0000 O   0  0  0  0  0  0  0  0  0  0  0  0
   -5.0100    0.3509    0.0000 C   0  0  0  0  0  0  0  0  0  0  0  0
   -5.8505   -0.8915    0.0000 O   0  0  0  0  0  0  0  0  0  0  0  0
   -3.5138    0.2442    0.0000 C   0  0  0  0  0  0  0  0  0  0  0  0
   -3.8787   -1.2108    0.0000 C   0  0  0  0  0  0  0  0  0  0  0  0
   -3.6685    1.7362    0.0000 C   0  0  0  0  0  0  0  0  0  0  0  0
   -2.4537    2.6161    0.0000 C   0  0  0  0  0  0  0  0  0  0  0  0
   -1.0842    2.0041    0.0000 C   0  0  0  0  0  0  0  0  0  0  0  0
   -0.9296    0.5121    0.0000 C   0  0  0  0  0  0  0  0  0  0  0  0
   -2.1443   -0.3679    0.0000 C   0  0  0  0  0  0  0  0  0  0  0  0
   -1.9897   -1.8599    0.0000 C   0  0  0  0  0  0  0  0  0  0  0  0
   -0.6202   -2.4719    0.0000 C   0  0  0  0  0  0  0  0  0  0  0  0
    0.8714   -2.6308    0.0000 O   0  0  0  0  0  0  0  0  0  0  0  0
    1.4834   -1.2614    0.0000 C   0  0  0  0  0  0  0  0  0  0  0  0
    2.2800   -1.2904    0.0000 O   0  0  0  0  0  0  0  0  0  0  0  0
    0.4399   -0.1000    0.0000 C   0  0  0  0  0  0  0  0  0  0  0  0
    1.6547    0.7800    0.0000 C   0  0  0  0  0  0  0  0  0  0  0  0
    3.0241    0.1680    0.0000 C   0  0  0  0  0  0  0  0  0  0  0  0
    4.2389    1.0479    0.0000 C   0  0  0  0  0  0  0  0  0  0  0  0
    4.2410    2.5479    0.0000 C   0  0  0  0  0  0  0  0  0  0  0  0
    5.6682    3.0094    0.0000 O   0  0  0  0  0  0  0  0  0  0  0  0
    6.5482    1.7946    0.0000 C   0  0  0  0  0  0  0  0  0  0  0  0
    5.6648    0.5824    0.0000 C   0  0  0  0  0  0  0  0  0  0  0  0
    3.1788   -1.3241    0.0000 O   0  0  0  0  0  0  0  0  0  0  0  0
    1.9640   -2.2040    0.0000 C   0  0  0  0  0  0  0  0  0  0  0  0
    2.1187   -3.6960    0.0000 O   0  0  0  0  0  0  0  0  0  0  0  0
    0.5946   -1.5920    0.0000 C   0  0  0  0  0  0  0  0  0  0  0  0
  1  2  1  0
  2  3  1  0
  3  4  2  0
  3  5  1  0
  5  6  1  6
  5  7  1  0
  7  8  1  0
  8  9  1  0
 10  9  1  1
 10 11  1  0
 11 12  1  1
 13 12  1  1
 13 14  1  0
 14 15  1  0
 15 16  2  0
 15 17  1  0
 17 18  1  6
 18 19  1  0
 19 20  1  1
 20 21  2  0
 21 22  1  0
 22 23  1  0
 23 24  2  0
 19 25  1  0
 25 26  1  0
 26 27  2  0
 28 26  1  1
 11  5  1  0
 28 13  1  0
 17 10  1  0
 24 20  1  0
 28 17  1  0
M  END
>  <identifier>  (1831) 
CNP0324993.1

>  <canonical_smiles>  (1831) 
COC(=O)[C@@]1(C)CCC[C@@H]2[C@H]1C[C@@H]1OC(=O)[C@]23C[C@@H](C2=COC=C2)OC(=O)[C@@H]13

>  <standard_inchi>  (1831) 
InChI=1S/C21H24O7/c1-20(18(23)25-2)6-3-4-12-13(20)8-14-16-17(22)27-15(11-5-7-26-10-11)9-21(12,16)19(24)28-14/h5,7,10,12-16H,3-4,6,8-9H2,1-2H3/t12-,13-,14+,15+,16-,20+,21-/m1/s1

>  <standard_inchi_key>  (1831) 
ZGRXZVQQLDOVAT-OQEDXQOPSA-N

>  <name>  (1831) 
nan

>  <iupac_name>  (1831) 
methyl (1~{R},2~{R},6~{S},7~{R},9~{S},10~{R},13~{S})-13-(3-furyl)-6-methyl-11,15-dioxo-12,16-dioxatetracyclo[7.5.2.0^{1,10}.0^{2,7}]hexadecane-6-carboxylate

>  <annotation_level>  (1831) 
5

>  <total_atom_count>  (1831) 
52

>  <heavy_atom_count>  (1831) 
28

>  <molecular_weight>  (1831) 
388.42

>  <exact_molecular_weight>  (1831) 
388.1522

>  <molecular_formula>  (1831) 
C21H24O7

>  <alogp>  (1831) 
2.79

>  <topological_polar_surface_area>  (1831) 
92.04

>  <rotatable_bond_count>  (1831) 
2

>  <hydrogen_bond_acceptors>  (1831) 
7

>  <hydrogen_bond_donors>  (1831) 
0

>  <hydrogen_bond_acceptors_lipinski>  (1831) 
7

>  <hydrogen_bond_donors_lipinski>  (1831) 
0

>  <lipinski_rule_of_five_violations>  (1831) 
0

>  <aromatic_rings_count>  (1831) 
1

>  <qed_drug_likeliness>  (1831) 
0.57

>  <formal_charge>  (1831) 
0

>  <fractioncsp3>  (1831) 
0.67

>  <number_of_minimal_rings>  (1831) 
5

>  <van_der_walls_volume>  (1831) 
335.90

>  <contains_sugar>  (1831) 
False

>  <contains_ring_sugars>  (1831) 
False

>  <contains_linear_sugars>  (1831) 
False

>  <murcko_framework>  (1831) 
o1ccc(c1)C2OCC3C4OCC3(C2)C5CCCCC5C4

>  <np_likeness>  (1831) 
2.86

>  <chemical_class>  (1831) 
Naphthopyrans

>  <chemical_sub_class>  (1831) 
Naphthopyrans

>  <chemical_super_class>  (1831) 
Organoheterocyclic compounds

>  <direct_parent_classification>  (1831) 
Naphthopyrans

>  <np_classifier_pathway>  (1831) 
Terpenoids

>  <np_classifier_superclass>  (1831) 
Diterpenoids

>  <np_classifier_class>  (1831) 
Colensane and Clerodane diterpenoids

>  <np_classifier_is_glycoside>  (1831) 
False

>  <organisms>  (1831) 
Croton diasii

>  <collections>  (1831) 
ChemSpider NPs|NuBBEDB|Super Natural II|WikiData Natural Products|ZINC NP

>  <dois>  (1831) 
10.1016/S0031-9422(00)88692-6

>  <synonyms>  (1831) 
Isodiasin

>  <cas>  (1831) 
nan

$$$$

     RDKit          2D

 24 26  0  0  0  0  0  0  0  0999 V2000
   -6.9641    2.0041    0.0000 C   0  0  0  0  0  0  0  0  0  0  0  0
   -6.2856    0.6664    0.0000 C   0  0  0  0  0  0  0  0  0  0  0  0
   -7.1049   -0.5901    0.0000 C   0  0  0  0  0  0  0  0  0  0  0  0
   -4.7878    0.5851    0.0000 C   0  0  0  0  0  0  0  0  0  0  0  0
   -4.1093   -0.7527    0.0000 C   0  0  0  0  0  0  0  0  0  0  0  0
   -2.6115   -0.8340    0.0000 C   0  0  0  0  0  0  0  0  0  0  0  0
   -1.9330   -2.1718    0.0000 C   0  0  0  0  0  0  0  0  0  0  0  0
   -2.7523   -3.4282    0.0000 O   0  0  0  0  0  0  0  0  0  0  0  0
   -0.4352   -2.2530    0.0000 C   0  0  0  0  0  0  0  0  0  0  0  0
    0.3841   -0.9966    0.0000 C   0  0  0  0  0  0  0  0  0  0  0  0
    1.8819   -1.0778    0.0000 O   0  0  0  0  0  0  0  0  0  0  0  0
    2.7011    0.1786    0.0000 C   0  0  0  0  0  0  0  0  0  0  0  0
    4.1989    0.0974    0.0000 C   0  0  0  0  0  0  0  0  0  0  0  0
    4.8774   -1.2404    0.0000 C   0  0  0  0  0  0  0  0  0  0  0  0
    6.3752   -1.3217    0.0000 C   0  0  0  0  0  0  0  0  0  0  0  0
    7.1945   -0.0652    0.0000 C   0  0  0  0  0  0  0  0  0  0  0  0
    6.5160    1.2726    0.0000 C   0  0  0  0  0  0  0  0  0  0  0  0
    5.0182    1.3538    0.0000 C   0  0  0  0  0  0  0  0  0  0  0  0
    2.0226    1.5164    0.0000 C   0  0  0  0  0  0  0  0  0  0  0  0
    0.5249    1.5977    0.0000 C   0  0  0  0  0  0  0  0  0  0  0  0
   -0.1537    2.9355    0.0000 O   0  0  0  0  0  0  0  0  0  0  0  0
   -0.2944    0.3412    0.0000 C   0  0  0  0  0  0  0  0  0  0  0  0
   -1.7922    0.4225    0.0000 C   0  0  0  0  0  0  0  0  0  0  0  0
   -2.4707    1.7603    0.0000 O   0  0  0  0  0  0  0  0  0  0  0  0
  1  2  1  0
  2  3  1  0
  2  4  2  0
  4  5  1  0
  5  6  1  0
  6  7  2  0
  7  8  1  0
  7  9  1  0
  9 10  2  0
 10 11  1  0
 11 12  1  0
 12 13  1  1
 13 14  2  0
 14 15  1  0
 15 16  2  0
 16 17  1  0
 17 18  2  0
 12 19  1  0
 19 20  1  0
 20 21  2  0
 20 22  1  0
 22 23  2  0
 23 24  1  0
 23  6  1  0
 22 10  1  0
 18 13  1  0
M  END
>  <identifier>  (1832) 
CNP0331467.2

>  <canonical_smiles>  (1832) 
CC(C)=CCC1=C(O)C=C2O[C@H](C3=CC=CC=C3)CC(=O)C2=C1O

>  <standard_inchi>  (1832) 
InChI=1S/C20H20O4/c1-12(2)8-9-14-15(21)10-18-19(20(14)23)16(22)11-17(24-18)13-6-4-3-5-7-13/h3-8,10,17,21,23H,9,11H2,1-2H3/t17-/m0/s1

>  <standard_inchi_key>  (1832) 
UOWOIGNEFLTNAW-KRWDZBQOSA-N

>  <name>  (1832) 
(2S)-5,7-dihydroxy-6-(3-methylbut-2-enyl)-2-phenyl-2,3-dihydrochromen-4-one

>  <iupac_name>  (1832) 
(2~{S})-5,7-dihydroxy-6-(3-methylbut-2-enyl)-2-phenyl-chroman-4-one

>  <annotation_level>  (1832) 
5

>  <total_atom_count>  (1832) 
44

>  <heavy_atom_count>  (1832) 
24

>  <molecular_weight>  (1832) 
324.38

>  <exact_molecular_weight>  (1832) 
324.13616

>  <molecular_formula>  (1832) 
C20H20O4

>  <alogp>  (1832) 
4.31

>  <topological_polar_surface_area>  (1832) 
66.76

>  <rotatable_bond_count>  (1832) 
3

>  <hydrogen_bond_acceptors>  (1832) 
4

>  <hydrogen_bond_donors>  (1832) 
2

>  <hydrogen_bond_acceptors_lipinski>  (1832) 
4

>  <hydrogen_bond_donors_lipinski>  (1832) 
2

>  <lipinski_rule_of_five_violations>  (1832) 
0

>  <aromatic_rings_count>  (1832) 
2

>  <qed_drug_likeliness>  (1832) 
0.83

>  <formal_charge>  (1832) 
0

>  <fractioncsp3>  (1832) 
0.25

>  <number_of_minimal_rings>  (1832) 
3

>  <van_der_walls_volume>  (1832) 
297.48

>  <contains_sugar>  (1832) 
False

>  <contains_ring_sugars>  (1832) 
False

>  <contains_linear_sugars>  (1832) 
False

>  <murcko_framework>  (1832) 
O1c2ccccc2CCC1c3ccccc3

>  <np_likeness>  (1832) 
2.06

>  <chemical_class>  (1832) 
Flavonoids

>  <chemical_sub_class>  (1832) 
Flavans

>  <chemical_super_class>  (1832) 
Phenylpropanoids and polyketides

>  <direct_parent_classification>  (1832) 
Flavanones

>  <np_classifier_pathway>  (1832) 
Shikimates and Phenylpropanoids

>  <np_classifier_superclass>  (1832) 
Flavonoids

>  <np_classifier_class>  (1832) 
Flavanones

>  <np_classifier_is_glycoside>  (1832) 
False

>  <organisms>  (1832) 
Acritopappus longifolius|Adenocarpus hispanicus|Amycolatopsis sulphurea|Anemone rivularis|Brosimum rubescens|Callicarpa nudiflora|Campylopus clavatus|Canarium samoense|Capnophyllum peregrinum|Ceanothus americanus|Cissus tricuspidata|Conger myriaster|Cynometra ananta|Dalea elegans|Dermocybe semisanguinea|Derris floribunda|Derris rariflora|Derris trifoliata|Eysenhardtia platycarpa|Ficus formosana|Ficus glumosa|Ficus subcuneata|Halichondria okadai|Helichrysum forskahlii|Helichrysum thapsus|Hippasteria phrygiana|Illicium parviflorum|Lepidiota negatoria|Liparis nakaharai|Macaranga kurzii|Methylosinus trichosporium|Podocarpus elongatus|Ramalina pollinaria|Rhododendron maximum|Sarracenia flava|Schnabelia terniflora|Tasmannia lanceolata|Tessmannia densiflora|Viola odorata|Virola oleifera|liquorice

>  <collections>  (1832) 
CMAUP (cCollective molecular activities of useful plants)|InterBioScreen Ltd|Latin America dataset|NPASS|NuBBEDB|Phyto4Health|SANCDB|Super Natural II|WikiData Natural Products

>  <dois>  (1832) 
10.1007/BF00574601|10.1007/BF02759632|10.1016/J.PHYTOCHEM.2008.03.025|10.1016/S0031-9422(00)90498-9|10.1016/S0031-9422(00)97725-2|10.1016/S0031-9422(00)98664-3|10.1021/np300660y|10.1055/S-2005-873163|10.1590/S0103-50532012000300015|10.3390/molecules20047143

>  <synonyms>  (1832) 
5,7-DIHYDROXY-6-(3-METHYLBUT-2-EN-1-YL)-2-PHENYL-3,4-DIHYDRO-2H-1-BENZOPYRAN-4-ONE|57-Dihydroxy-6-prenylflavanone|6-Prenylpinocembrin|AB01333873-02|AKOS002134406|BDBM50394652|CCG-202844|CHEMBL2165236|DTXSID301315611|Isoglabranin|NCGC00342337-01|SCHEMBL24075694

>  <cas>  (1832) 
nan

$$$$

     RDKit          2D

 24 26  0  0  0  0  0  0  0  0999 V2000
   -2.5598    4.2923    0.0000 C   0  0  0  0  0  0  0  0  0  0  0  0
   -3.3813    3.0372    0.0000 O   0  0  0  0  0  0  0  0  0  0  0  0
   -2.7051    1.6983    0.0000 C   0  0  0  0  0  0  0  0  0  0  0  0
   -1.2075    1.6144    0.0000 C   0  0  0  0  0  0  0  0  0  0  0  0
   -0.5313    0.2755    0.0000 C   0  0  0  0  0  0  0  0  0  0  0  0
   -1.3528   -0.9796    0.0000 C   0  0  0  0  0  0  0  0  0  0  0  0
   -0.6766   -2.3186    0.0000 C   0  0  0  0  0  0  0  0  0  0  0  0
    0.8210   -2.4024    0.0000 C   0  0  0  0  0  0  0  0  0  0  0  0
    1.4972   -3.7414    0.0000 O   0  0  0  0  0  0  0  0  0  0  0  0
    0.6757   -4.9965    0.0000 C   0  0  0  0  0  0  0  0  0  0  0  0
    1.6425   -1.1474    0.0000 C   0  0  0  0  0  0  0  0  0  0  0  0
    3.1402   -1.2313    0.0000 C   0  0  0  0  0  0  0  0  0  0  0  0
    3.9617    0.0238    0.0000 C   0  0  0  0  0  0  0  0  0  0  0  0
    5.4593   -0.0601    0.0000 C   0  0  0  0  0  0  0  0  0  0  0  0
    3.2855    1.3627    0.0000 C   0  0  0  0  0  0  0  0  0  0  0  0
    4.1070    2.6178    0.0000 O   0  0  0  0  0  0  0  0  0  0  0  0
    3.4308    3.9567    0.0000 C   0  0  0  0  0  0  0  0  0  0  0  0
    1.7878    1.4466    0.0000 C   0  0  0  0  0  0  0  0  0  0  0  0
    0.9664    0.1916    0.0000 C   0  0  0  0  0  0  0  0  0  0  0  0
   -2.8504   -0.8957    0.0000 C   0  0  0  0  0  0  0  0  0  0  0  0
   -2.6730   -2.3852    0.0000 C   0  0  0  0  0  0  0  0  0  0  0  0
   -4.2865   -1.3291    0.0000 C   0  0  0  0  0  0  0  0  0  0  0  0
   -3.5266    0.4432    0.0000 C   0  0  0  0  0  0  0  0  0  0  0  0
   -5.0243    0.5271    0.0000 O   0  0  0  0  0  0  0  0  0  0  0  0
  1  2  1  0
  2  3  1  0
  3  4  2  0
  4  5  1  0
  5  6  2  0
  6  7  1  0
  7  8  2  0
  8  9  1  0
  9 10  1  0
  8 11  1  0
 11 12  2  0
 12 13  1  0
 13 14  1  0
 13 15  2  0
 15 16  1  0
 16 17  1  0
 15 18  1  0
 18 19  2  0
  6 20  1  0
 20 21  1  0
 20 22  1  0
 20 23  1  0
 23 24  2  0
 23  3  1  0
 19  5  1  0
 19 11  1  0
M  END
>  <identifier>  (1833) 
CNP0308968.0

>  <canonical_smiles>  (1833) 
COC1=CC2=C(C=C(OC)C3=CC(C)=C(OC)C=C23)C(C)(C)C1=O

>  <standard_inchi>  (1833) 
InChI=1S/C20H22O4/c1-11-7-14-12(8-16(11)22-4)13-9-18(24-6)19(21)20(2,3)15(13)10-17(14)23-5/h7-10H,1-6H3

>  <standard_inchi_key>  (1833) 
SVSYTLDPFSIEJY-UHFFFAOYSA-N

>  <name>  (1833) 
trigonostemone

>  <iupac_name>  (1833) 
3,6,9-trimethoxy-1,1,7-trimethyl-phenanthren-2-one

>  <annotation_level>  (1833) 
5

>  <total_atom_count>  (1833) 
46

>  <heavy_atom_count>  (1833) 
24

>  <molecular_weight>  (1833) 
326.39

>  <exact_molecular_weight>  (1833) 
326.15181

>  <molecular_formula>  (1833) 
C20H22O4

>  <alogp>  (1833) 
4.01

>  <topological_polar_surface_area>  (1833) 
44.76

>  <rotatable_bond_count>  (1833) 
3

>  <hydrogen_bond_acceptors>  (1833) 
4

>  <hydrogen_bond_donors>  (1833) 
0

>  <hydrogen_bond_acceptors_lipinski>  (1833) 
4

>  <hydrogen_bond_donors_lipinski>  (1833) 
0

>  <lipinski_rule_of_five_violations>  (1833) 
0

>  <aromatic_rings_count>  (1833) 
2

>  <qed_drug_likeliness>  (1833) 
0.85

>  <formal_charge>  (1833) 
0

>  <fractioncsp3>  (1833) 
0.35

>  <number_of_minimal_rings>  (1833) 
3

>  <van_der_walls_volume>  (1833) 
302.36

>  <contains_sugar>  (1833) 
False

>  <contains_ring_sugars>  (1833) 
False

>  <contains_linear_sugars>  (1833) 
False

>  <murcko_framework>  (1833) 
c1ccc2c(c1)ccc3c2C=CCC3

>  <np_likeness>  (1833) 
1.61

>  <chemical_class>  (1833) 
Phenanthrenes and derivatives

>  <chemical_sub_class>  (1833) 
Phenanthrols

>  <chemical_super_class>  (1833) 
Benzenoids

>  <direct_parent_classification>  (1833) 
Phenanthrols

>  <np_classifier_pathway>  (1833) 
Terpenoids

>  <np_classifier_superclass>  (1833) 
Diterpenoids

>  <np_classifier_class>  (1833) 
Podocarpane diterpenoids

>  <np_classifier_is_glycoside>  (1833) 
False

>  <organisms>  (1833) 
Byrsonima coccolobifolia|Strophioblachia fimbricalyx|Trigonostemon chinensis|Trigonostemon reidioides|Trigonostemon reidioides Craib|byrsonima coccolobifolia

>  <collections>  (1833) 
CMAUP (cCollective molecular activities of useful plants)|KNApSaCK|Latin America dataset|NPASS|NuBBEDB|Super Natural II|UNPD (Universal Natural Products Database)|WikiData Natural Products|ZINC NP

>  <dois>  (1833) 
10.1021/NP400717M|10.1021/NP50071A002|10.1021/NP800256X|10.1021/NP900352N|10.1021/np400717m|10.1021/np900352n

>  <synonyms>  (1833) 
BDBM50446569|CHEMBL1078766|Trigonostemone

>  <cas>  (1833) 
nan

$$$$

     RDKit          2D

 20 19  0  0  0  0  0  0  0  0999 V2000
  -11.8200   -0.4124    0.0000 C   0  0  0  0  0  0  0  0  0  0  0  0
  -10.5233    0.3417    0.0000 C   0  0  0  0  0  0  0  0  0  0  0  0
   -9.2219   -0.4041    0.0000 C   0  0  0  0  0  0  0  0  0  0  0  0
   -7.9253    0.3500    0.0000 C   0  0  0  0  0  0  0  0  0  0  0  0
   -6.6239   -0.3959    0.0000 C   0  0  0  0  0  0  0  0  0  0  0  0
   -5.3272    0.3582    0.0000 C   0  0  0  0  0  0  0  0  0  0  0  0
   -4.0258   -0.3877    0.0000 C   0  0  0  0  0  0  0  0  0  0  0  0
   -2.7292    0.3664    0.0000 C   0  0  0  0  0  0  0  0  0  0  0  0
   -1.4277   -0.3795    0.0000 C   0  0  0  0  0  0  0  0  0  0  0  0
   -0.1311    0.3746    0.0000 C   0  0  0  0  0  0  0  0  0  0  0  0
    1.1703   -0.3713    0.0000 C   0  0  0  0  0  0  0  0  0  0  0  0
    2.4670    0.3828    0.0000 C   0  0  0  0  0  0  0  0  0  0  0  0
    3.7684   -0.3631    0.0000 C   0  0  0  0  0  0  0  0  0  0  0  0
    5.0650    0.3910    0.0000 C   0  0  0  0  0  0  0  0  0  0  0  0
    5.0603    1.8910    0.0000 O   0  0  0  0  0  0  0  0  0  0  0  0
    6.3664   -0.3549    0.0000 N   0  0  0  0  0  0  0  0  0  0  0  0
    7.6631    0.3992    0.0000 C   0  0  0  0  0  0  0  0  0  0  0  0
    8.9645   -0.3467    0.0000 C   0  0  0  0  0  0  0  0  0  0  0  0
   10.2612    0.4074    0.0000 C   0  0  0  0  0  0  0  0  0  0  0  0
    8.9692   -1.8467    0.0000 C   0  0  0  0  0  0  0  0  0  0  0  0
  1  2  1  0
  2  3  1  0
  3  4  1  0
  4  5  1  0
  5  6  1  0
  6  7  2  3
  7  8  1  0
  8  9  1  0
  9 10  1  0
 10 11  2  0
 11 12  1  0
 12 13  2  0
 13 14  1  0
 14 15  2  0
 14 16  1  0
 16 17  1  0
 17 18  1  0
 18 19  1  0
 18 20  1  0
M  END
>  <identifier>  (1834) 
CNP0382644.2

>  <canonical_smiles>  (1834) 
CCCCCC=CCC/C=C/C=C/C(=O)NCC(C)C

>  <standard_inchi>  (1834) 
InChI=1S/C18H31NO/c1-4-5-6-7-8-9-10-11-12-13-14-15-18(20)19-16-17(2)3/h8-9,12-15,17H,4-7,10-11,16H2,1-3H3,(H,19,20)/b9-8?,13-12+,15-14+

>  <standard_inchi_key>  (1834) 
RVYUTDKHUFWTFC-FZHHQQLZSA-N

>  <name>  (1834) 
nan

>  <iupac_name>  (1834) 
nan

>  <annotation_level>  (1834) 
0

>  <total_atom_count>  (1834) 
51

>  <heavy_atom_count>  (1834) 
20

>  <molecular_weight>  (1834) 
277.45

>  <exact_molecular_weight>  (1834) 
277.24056

>  <molecular_formula>  (1834) 
C18H31NO

>  <alogp>  (1834) 
4.79

>  <topological_polar_surface_area>  (1834) 
29.10

>  <rotatable_bond_count>  (1834) 
11

>  <hydrogen_bond_acceptors>  (1834) 
1

>  <hydrogen_bond_donors>  (1834) 
1

>  <hydrogen_bond_acceptors_lipinski>  (1834) 
1

>  <hydrogen_bond_donors_lipinski>  (1834) 
1

>  <lipinski_rule_of_five_violations>  (1834) 
0

>  <aromatic_rings_count>  (1834) 
0

>  <qed_drug_likeliness>  (1834) 
0.25

>  <formal_charge>  (1834) 
0

>  <fractioncsp3>  (1834) 
0.61

>  <number_of_minimal_rings>  (1834) 
0

>  <van_der_walls_volume>  (1834) 
308.98

>  <contains_sugar>  (1834) 
False

>  <contains_ring_sugars>  (1834) 
False

>  <contains_linear_sugars>  (1834) 
False

>  <murcko_framework>  (1834) 
nan

>  <np_likeness>  (1834) 
1.13

>  <chemical_class>  (1834) 
nan

>  <chemical_sub_class>  (1834) 
nan

>  <chemical_super_class>  (1834) 
nan

>  <direct_parent_classification>  (1834) 
nan

>  <np_classifier_pathway>  (1834) 
Fatty acids

>  <np_classifier_superclass>  (1834) 
Fatty amides

>  <np_classifier_class>  (1834) 
N-acyl amines

>  <np_classifier_is_glycoside>  (1834) 
False

>  <organisms>  (1834) 
Zanthoxylum petiolare

>  <collections>  (1834) 
Latin America dataset|NuBBEDB

>  <dois>  (1834) 
10.1016/S0031-9422(00)89656-9

>  <synonyms>  (1834) 
nan

>  <cas>  (1834) 
nan

$$$$

     RDKit          2D

 30 33  0  0  0  0  0  0  0  0999 V2000
    7.0171    3.1724    0.0000 C   0  0  0  0  0  0  0  0  0  0  0  0
    5.5493    2.8635    0.0000 O   0  0  0  0  0  0  0  0  0  0  0  0
    5.0828    1.4379    0.0000 C   0  0  0  0  0  0  0  0  0  0  0  0
    6.0842    0.3211    0.0000 C   0  0  0  0  0  0  0  0  0  0  0  0
    7.5521    0.6300    0.0000 O   0  0  0  0  0  0  0  0  0  0  0  0
    5.6177   -1.1045    0.0000 C   0  0  0  0  0  0  0  0  0  0  0  0
    6.6191   -2.2213    0.0000 O   0  0  0  0  0  0  0  0  0  0  0  0
    6.1527   -3.6469    0.0000 C   0  0  0  0  0  0  0  0  0  0  0  0
    4.1499   -1.4133    0.0000 C   0  0  0  0  0  0  0  0  0  0  0  0
    3.1485   -0.2966    0.0000 C   0  0  0  0  0  0  0  0  0  0  0  0
    1.6806   -0.6054    0.0000 C   0  0  0  0  0  0  0  0  0  0  0  0
    1.0677   -1.9745    0.0000 O   0  0  0  0  0  0  0  0  0  0  0  0
   -0.4238   -1.8146    0.0000 C   0  0  0  0  0  0  0  0  0  0  0  0
   -0.7326   -0.3467    0.0000 C   0  0  0  0  0  0  0  0  0  0  0  0
    0.5680    0.4006    0.0000 C   0  0  0  0  0  0  0  0  0  0  0  0
    0.2591    1.8685    0.0000 C   0  0  0  0  0  0  0  0  0  0  0  0
   -1.2323    2.0283    0.0000 O   0  0  0  0  0  0  0  0  0  0  0  0
   -1.8452    0.6593    0.0000 C   0  0  0  0  0  0  0  0  0  0  0  0
   -3.3131    0.3504    0.0000 C   0  0  0  0  0  0  0  0  0  0  0  0
   -4.3145    1.4672    0.0000 C   0  0  0  0  0  0  0  0  0  0  0  0
   -5.7824    1.1584    0.0000 C   0  0  0  0  0  0  0  0  0  0  0  0
   -6.7838    2.2751    0.0000 O   0  0  0  0  0  0  0  0  0  0  0  0
   -6.3173    3.7008    0.0000 C   0  0  0  0  0  0  0  0  0  0  0  0
   -6.2488   -0.2673    0.0000 C   0  0  0  0  0  0  0  0  0  0  0  0
   -7.7167   -0.5761    0.0000 O   0  0  0  0  0  0  0  0  0  0  0  0
   -5.2474   -1.3841    0.0000 C   0  0  0  0  0  0  0  0  0  0  0  0
   -5.7139   -2.8097    0.0000 O   0  0  0  0  0  0  0  0  0  0  0  0
   -4.7125   -3.9265    0.0000 C   0  0  0  0  0  0  0  0  0  0  0  0
   -3.7796   -1.0752    0.0000 C   0  0  0  0  0  0  0  0  0  0  0  0
    3.6150    1.1291    0.0000 C   0  0  0  0  0  0  0  0  0  0  0  0
  1  2  1  0
  2  3  1  0
  3  4  2  0
  4  5  1  0
  4  6  1  0
  6  7  1  0
  7  8  1  0
  6  9  2  0
  9 10  1  0
 11 10  1  1
 11 12  1  0
 12 13  1  0
 14 13  1  6
 14 15  1  0
 15 16  1  6
 16 17  1  0
 17 18  1  0
 18 19  1  1
 19 20  2  0
 20 21  1  0
 21 22  1  0
 22 23  1  0
 21 24  2  0
 24 25  1  0
 24 26  1  0
 26 27  1  0
 27 28  1  0
 26 29  2  0
 10 30  2  0
 30  3  1  0
 15 11  1  0
 29 19  1  0
 18 14  1  0
M  END
>  <identifier>  (1835) 
CNP0249408.3

>  <canonical_smiles>  (1835) 
COC1=C(O)C(OC)=CC([C@H]2OC[C@H]3[C@@H]2CO[C@@H]3C2=CC(OC)=C(O)C(OC)=C2)=C1

>  <standard_inchi>  (1835) 
InChI=1S/C22H26O8/c1-25-15-5-11(6-16(26-2)19(15)23)21-13-9-30-22(14(13)10-29-21)12-7-17(27-3)20(24)18(8-12)28-4/h5-8,13-14,21-24H,9-10H2,1-4H3/t13-,14-,21+,22+/m0/s1

>  <standard_inchi_key>  (1835) 
KOWMJRJXZMEZLD-HCIHMXRSSA-N

>  <name>  (1835) 
(+)-Syringaresinol

>  <iupac_name>  (1835) 
4-[(3~{S},3~{a}~{R},6~{S},6~{a}~{R})-6-(4-hydroxy-3,5-dimethoxy-phenyl)-1,3,3~{a},4,6,6~{a}-hexahydrofuro[3,4-c]furan-3-yl]-2,6-dimethoxy-phenol

>  <annotation_level>  (1835) 
5

>  <total_atom_count>  (1835) 
56

>  <heavy_atom_count>  (1835) 
30

>  <molecular_weight>  (1835) 
418.44

>  <exact_molecular_weight>  (1835) 
418.16277

>  <molecular_formula>  (1835) 
C22H26O8

>  <alogp>  (1835) 
3.21

>  <topological_polar_surface_area>  (1835) 
95.84

>  <rotatable_bond_count>  (1835) 
6

>  <hydrogen_bond_acceptors>  (1835) 
8

>  <hydrogen_bond_donors>  (1835) 
2

>  <hydrogen_bond_acceptors_lipinski>  (1835) 
8

>  <hydrogen_bond_donors_lipinski>  (1835) 
2

>  <lipinski_rule_of_five_violations>  (1835) 
0

>  <aromatic_rings_count>  (1835) 
2

>  <qed_drug_likeliness>  (1835) 
0.74

>  <formal_charge>  (1835) 
0

>  <fractioncsp3>  (1835) 
0.46

>  <number_of_minimal_rings>  (1835) 
4

>  <van_der_walls_volume>  (1835) 
369.05

>  <contains_sugar>  (1835) 
False

>  <contains_ring_sugars>  (1835) 
False

>  <contains_linear_sugars>  (1835) 
False

>  <murcko_framework>  (1835) 
O1CC2C(OCC2C1c3ccccc3)c4ccccc4

>  <np_likeness>  (1835) 
0.84

>  <chemical_class>  (1835) 
Furanoid lignans

>  <chemical_sub_class>  (1835) 
Furan lignans

>  <chemical_super_class>  (1835) 
Lignans, neolignans and related compounds

>  <direct_parent_classification>  (1835) 
Furan lignans

>  <np_classifier_pathway>  (1835) 
Shikimates and Phenylpropanoids

>  <np_classifier_superclass>  (1835) 
Lignans

>  <np_classifier_class>  (1835) 
Furofuranoid lignans

>  <np_classifier_is_glycoside>  (1835) 
False

>  <organisms>  (1835) 
Acacia pachyphloia|Acanthopanax sessiliflorus|Acer pictum|Achyrocline bogotensis|Actinidia arguta|Actinidia chinensis|Actinodaphne lancifolia|Aglaia Odorata|Aglaia odorata|Ailanthus altissima|Albizia Julibrissin|Albizia Myriophylla|Albizia falcataria|Albizia julibrissin|Albizia myriophylla|Allamanda Neriifolia|Allamanda neriifolia|Allamanda schottii|Allium Tuberosum|Allium cepa|Allium tuberosum|Alstonia angustiloba|Ananas comosus|Ancistrocladus korupensis|Anemone narcissiflora|Annona cherimola|Annona montana|Annona senegalensis|Antidesma membranaceum|Apollonias barbujana|Aquilaria malaccensis|Aquilaria sinensis|Arachniodes mutica|Aralia bipinnata|Aralia elata|Arcangelisia gusanlung|Artabotrys Uncinatus|Artabotrys hexapetalus|Artabotrys uncinatus|Artemisia Apiacea|Artemisia apiacea|Artemisia caruifolia|Artemisia carvifolia|Artemisia minor|Artemisia pectinata|Artemisia reptans|Arthrinium arundinis|Arum italicum|Asclepias curassavica|Asclepias curassavica L.|Asimina parviflora|Asimina triloba|Asparagus officinalis|Aspergillus microcysticus|Astragalus mongholicus|Avena sativa|Avicennia germinans|Baccharis grandicapitulata|Bacillus pumilus|Beaumontia brevituba|Beaumontia grandiflora|Beesia calthifolia|Berberis buxifolia|Berberis chilensis|Berberis darwinii|Berberis microphylla|Berberis repens|Boerhavia Diffusa|Boerhavia diffusa|Bombus consobrinus|Boschniakia rossica|Botrychium ternatum|Botrydium granulatum|Brazilian Red Propolis|Breynia vitis-idaea|Buddleja davidii|Bulbophyllum vaginatum|Bupleurum salicifolium|Bursera kerberi|Byrsonima coccolobifolia|Cajanus scarabaeoides|Callophycus serratus|Camptotheca acuminata|Capparis flavicans|Caragana tibetica|Carduus tenuiflorus|Cassytha Filiformis|Cassytha filiformis|Celastrus flagellaris|Centaurea solstitialis|Centipeda cunninghami|Chamomilla aurea|Chelonanthus albus|Choriaster granulatus|Chrysanthemum indicum|Chrysanthemum x morifolium|Cinnamomum Subavenium|Cinnamomum aromaticum|Cinnamomum burmanni|Cinnamomum burmannii Nees ex BI|Cinnamomum cassia|Cinnamomum iners|Cinnamomum kotoense|Cinnamomum macrostemon|Cinnamomum pachyphyllum|Cinnamomum reticulatum|Cinnamomum subavenium|Cinnamomum tenuifolium|Cinnamon|Cistanche deserticola|Cistanche salsa|Cistanche tubulosa|Citrus medica|Citrus medica var. sarcodactylis|Cladosporium cladosporioides|Clematis Chinensis|Clematis armandii|Clematis chinensis|Clematis montana|Clerodendrum trichotomum|Clinacanthus nutans|Cocculus hirsutus|Cocculus orbiculatus|Coffea liberica var. dewevrei|Coix lacryma-jobi|Coleogyne ramosissima|Comptonia asplenifolia|Coptis japonica var. dissecta|Corydalis conspersa|Corynebacterium matruchotii|Costasiella ocellifera|Cremastra appendiculata|Creosphaeria sassafras|Crotalaria stolzii|Cryptocarya kurzii|Cryptolestes ferrugineus|Curcuma aeruginosa|Cyanostegia microphylla|Cynanchum aphyllum|Daemonorops draco|Daphne feddei|Daphne genkwa|Daphne mezereum|Daphne tangutica|Datura quercifolia|Delisea elegans|Delphinium giraldii|Dendrobium candidum|Dendrobium chrysanthum|Dendrobium chrysotoxum|Dendrobium fimbriatum|Dendrobium loddigesii|Dendrobium moniliforme|Dendrobium nobile|Dendrobium plicatile|Dendrobium spp.|Dendropanax Chevalieri|Dendropanax chevalieri|Descurainia sophia|Desfontainia fulgens|Desfontainia spinosa|Dioscorea gracillima|Dioscorea nipponica|Dioscorea spongiosa|Diospyros eriantha|Diphasia klaineana|Dirca occidentalis|Discodermia dissoluta|Doliocarpus dentatus|Dorstenia cayapia|Dracaena draco|Drypetes molunduana|Echium rubrum|Eichhornia crassipes|Eleutherococcus brachypus|Eleutherococcus divaricatus|Eleutherococcus divaricatus var. chiisanensis|Eleutherococcus giraldii|Eleutherococcus henryi|Eleutherococcus koreanus|Eleutherococcus obovatus|Eleutherococcus senticosus|Eleutherococcus sessiliflorus|Eleutherococcus setchuenensis|Elymus repens|Emericellopsis minima|Entada africana|Entada polystachya|Ephedra alata|Ephemerantha fimbriata|Epimedium brevicornu|Epimedium grandiflorum|Epimedium koreanum|Epimedium pubescens|Epimedium sagittatum|Epimedium sempervirens|Epimedium wushanense|Erigeron breviscapus|Erythrina latissima|Erythroxylum argentinum|Eucalyptus albens|Euchresta formosana|Eucommia Ulmoides|Eucommia ulmoides|Euonymus alatus|Euonymus fortunei|Euphorbia leuconeura|Euphorbia sororia|Euploca racemosa|Euterpe oleracea|Fagopyrum esculentum|Fagus sylvatica|Firmiana simplex|Flavoparmelia caperata|Flueggea microcarpa|Fraxinus mandshurica var. japonica|Friesodielsia enghiana|Fritillaria thunbergii|Fuligo candida|Fumaria indica|Gaillardia powellii|Galium sinaicum|Garcia parviflora|Gentiana strictiflora|Ginkgo biloba|Glinus oppositifolius|Globularia alypum|Globularia trichosantha|Gmelina vitiensis|Gnetum Gnemon|Gnetum gnemon|Gnetum montanum|Graphis rikuzensis|Great yellow gentian|Gutierrezia dracunculoides|Gymnosporia pyria|Gymnosporia trigyna|Gynochthodes parvifolia|Gyrinops walla|Haplophyllum vulcanicum|Hedyotis lawsoniae|Hedysarum gmelini|Hedysarum polybotrys|Helenium integrifolium|Helicteres angustifolia|Helminthosporium victoriae|Hendersonula toruloidea|Hibiscus Cannabinus|Hibiscus Syriacus|Hibiscus cannabinus|Hibiscus syriacus|Hibiscus taiwanensis|Holacantha emoryi|Hordeum vulgare|Hornstedtia reticulata|Hovenia trichocarea|Hyperbaena columbica|Iberis sempervirens|Idesia polycarpa|Ilex asprella|Ipomoea purpurea|Iris versicolor|Isatis tinctoria|Isocoma pluriflora|Ixeris sonchifolia|Jasione montana|Juniperus scopulorum|Jurinea maxima|Justicia glauca|Kalopanax pictus|Kalopanax septemlobus|Kmeria duperreana|Kopsia dasyrachis|Krascheninnikovia ceratoides|Lasianthaea podocephala|Lasiosiphon eriocephalus|Lavandula dentata|Leitneria floridana|Lepidium apetalum|Leptadenia arborea|Ligustrum lucidum|Ligustrum ovalifolium|Limonia Acidissima|Limonia acidissima|Linaria vulgaris|Lindera obtusiloba|Liriodendron tulipifera|Litsea hypophaea|Lonicera gracilipes var. glandulosa|Luisia volucris|Lupinus cosentinii|Lycopus asper|Lycopus lucidus|Machilus Thunbergii|Machilus odoratissima|Machilus thunbergii|Machilus zuihoensis|Magnolia Coco|Magnolia coco|Magnolia compressa|Magnolia crassipes|Magnolia denudata|Magnolia grandiflora|Magnolia grandiflora var. rubra|Magnolia kobus|Magnolia obovata|Magnolia officinalis|Magnolia sinica|Mahonia aquifolium|Malus domestica|Manglietia crassipes|Manglietiastrum sinicum|Marsdenia oreophila|Matricaria aurea|Maytenus aquifolium|Maytenus cuzcoina|Melampodium leucanthum|Mespilus germanica|Michelia champaca|Michelia fuscata|Michelia sphaerantha|Micromonospora echinospora|Mikania luetzelburgii|Miliusa cuneata|Monomeria barbata|Monteverdia aquifolium|Montipora mollis|Morella pensylvanica|Morinda citrifolia|Morus mongolica|Mycetia nutans|Naja naja|Nectandra rodiei|Neolitsea acuminatissima|Nephroma arcticum|Nicotiana acuminata|Nolina microcarpa|Notonia grandiflora|Ocotea duckei|Ocotea fasciculata|Onopordum acaulon|Ophiopholis aculeata|Ophryosporus piquerioides|Ormosia dasycarpa|Oscillatoria borneti|Osmanthus asiaticus|Papaver pseudocanescens|Parthenium Hysterophorus|Parthenium hysterophorus|Passerina corymbosa|Passerina vulgaris|Pedicularis alaschanica|Pedicularis chinensis|Pedicularis muscicola|Pedicularis semitorta|Pellacalyx axillaris|Penstemon deustus|Peperomia heyneana|Pestalotiopsis oenotherae|Pharbitis nil|Phellodendron Amurense|Phellodendron amurense|Phlogacanthus Curviflorus|Phlogacanthus curviflorus|Phlomis aurea|Phlomis crinita|Phlomis fruticosa|Phyllanthus Virgatus|Phyllanthus virgatus|Pilocarpus grandiflorus|Piper brachystachyum|Piptanthus nanus|Pittosporum brevicalyx|Plectranthus nummularius|Pleione bulbocodioides|Pleione yunnanensis|Pluchea Indica|Pluchea indica|Plumeria Rubra|Plumeria rubra|Poacynum hendersonii|Polygonatum odoratum|Polygonatum sibiricum|Polygonum aviculare|Populus spp.|Pratia nummularia|Primula integrifolia|Propolis|Pseudocyphellaria australiensis|Pseuduvaria indochinensis|Psiadia anchusifolia|Psidium acutangulum|Pteris setuloso-costulata|Pteroceltis tatarinowii|Punica granatum|Putoria calabrica|Pyrus ussuriensis|Radermachera xylocarpa|Ranunculus sceleratus|Raphanus sativus|Renealmia alpinia|Rhaphidophora Decursiva|Rhaphidophora decursiva|Rhizopus stolonifer|Rhododendron mucronulatum|Rinorea anguifera|Roemeria carica|Rollinia emarginata|Salix sachalinensis|Salvadora persica|Sambucus sieboldiana|Sambucus williamsii|Santalum album|Sarcophyton flexuosum|Sargentodoxa Cuneata|Sargentodoxa cuneata|Saussurea lappa|Saussurea macrota|Saussurea medusa|Schnella guianensis|Schumanniophyton magnificum|Scorzonera hispanica|Scutellaria Baicalensis|Scutellaria albida ssp. colchica|Scutellaria baicalensis|Scutellaria scandens|Scutellaria strigillosa|Secale cereale|Selaginella Doederleinii|Selaginella doederleinii|Selinum libanotis|Senecio congestus|Senecio provincialis|Sesamum orientale|Sideritis dasygnaphala|Sideritis grandiflora|Sideritis perfoliata|Sinomenium acutum|Solanum euacanthum|Solanum lycopersicum|Solanum melongena|Solanum nigrum|Solanum violaceum|Sophora substrata|Sophora tonkinensis var. tonkinensis|Stellaria media|Stellera chamaejasme|Stephania tetrandra|Stereum complicatum|Stevia viscida|Streptomyces clavifer|Streptomyces globisporus|Streptomyces griseocarneus|Streptomyces melanogenes|Streptomyces parvisporogenes|Streptomyces sulfonofaciens|Streptomyces tateyamensis|Strychnos dinklagei|Styrax camporum|Sugarcane|Swertia chirata|Symplocos Lancifolia|Symplocos lancifolia|Syringa velutina|Syringa vulgaris|Syzygium claviflorum|Takifugu rubripes|Tamarix nilotica|Tarenna Attenuata|Tarenna attenuata|Tephroseris kirilowii|Thiocystis gelatinosa|Toddalia asiatica|Trichogonia prancii|Trifoliate orange|Trigonostemon Reidioides|Trigonostemon reidioides|Tripterygium wilfordii|Triticum aestivum|Trochodendron aralioides|Tupistra chinensis|Uga sinensis|Ungernia victoris|Valeriana wolgensis|Vepris glomerata|Viburnum foetidum|Viburnum grandifolium|Vinca major var. variegata|Vinca minor|Viscum Album|Viscum album|Viscum album var. coloratum|Viscum coloratum|Vismia guaramirangae|Vitex limonifolia|Wikstroemia Indica|Wikstroemia elliptica|Wikstroemia hainanensis|Wikstroemia indica|Wikstroemia spp.|Wisteria floribunda|Zanthoxylum Acanthopodium|Zanthoxylum Nitidum|Zanthoxylum acanthopodium|Zanthoxylum ailanthoides|Zanthoxylum arnottianum|Zanthoxylum asiaticum|Zanthoxylum avicennae|Zanthoxylum chiloperone|Zanthoxylum inerme|Zanthoxylum integrifoliolum|Zanthoxylum myriacanthum|Zanthoxylum nitidum|Zanthoxylum oxyphyllum|Zanthoxylum setulosum|Zanthoxylum simulans|Zanthoxylum wutaiense|Zephyranthes flava|byrsonima coccolobifolia|common sunflower|solanum violaceum

>  <collections>  (1835) 
ANPDB|CMAUP (cCollective molecular activities of useful plants)|ChEBI NPs|ChemSpider NPs|FooDB|KNApSaCK|Latin America dataset|NANPDB (Natural Products from Northern African Sources)|NAPRORE-CR|NPASS|NPEdia|NuBBEDB|Phyto4Health|Super Natural II|TCMDB-Taiwan (Traditional Chinese Medicine database)|TIPdb (database of Taiwan indigenous plants)|VietHerb|WikiData Natural Products

>  <dois>  (1835) 
10.1002/9780470514344.CH14|10.1002/CBDV.201000127|10.1002/CHIN.200516160|10.1002/CHIN.200533256|10.1002/CHIN.200612184|10.1002/HLCA.200690014|10.1002/HLCA.200790183|10.1002/JCCS.199800095|10.1002/JCCS.199800116|10.1002/JCCS.200200066|10.1002/JPS.2600721112|10.1002/RECL.19470660309|10.1007/BF00629948|10.1007/BF00776644|10.1007/BF01170231|10.1007/BF02114110|10.1007/BF02234867|10.1007/BF02975132|10.1007/BF02975842|10.1007/BF02979069|10.1007/BF02980142|10.1007/BF02994750|10.1007/S10600-008-0043-7|10.1007/S10600-009-9325-Y|10.1007/S10600-009-9361-7|10.1007/S10600-010-9463-2|10.1007/S10600-010-9708-0|10.1007/S10600-011-9773-Z|10.1007/S10600-011-9959-4|10.1007/S10600-012-0139-Y|10.1007/S10600-012-0141-4|10.1007/S10600-015-1519-X|10.1007/S11418-007-0143-X|10.1016/0031-9422(88)80455-2|10.1016/0031-9422(88)83144-3|10.1016/0031-9422(90)85290-V|10.1016/0031-9422(92)83742-H|10.1016/0031-9422(95)00060-K|10.1016/0031-9422(95)00072-F|10.1016/0031-9422(96)00062-3|10.1016/B978-1-4377-2333-5.00134-6|10.1016/J.BMC.2004.06.009|10.1016/J.BMC.2005.07.050|10.1016/J.BMC.2007.10.004|10.1016/J.BMC.2008.04.016|10.1016/J.BMCL.2004.10.095|10.1016/J.BMCL.2011.02.102|10.1016/J.BMCL.2013.02.060|10.1016/J.BMCL.2015.01.034|10.1016/J.PHYTOCHEM.2005.12.021|10.1016/J.PHYTOCHEM.2006.03.005|10.1016/J.PHYTOCHEM.2007.02.021|10.1016/J.TET.2010.01.016|10.1016/S0031-9422(00)00040-6|10.1016/S0031-9422(00)00473-8|10.1016/S0031-9422(00)80092-8|10.1016/S0031-9422(00)80557-9|10.1016/S0031-9422(00)81172-3|10.1016/S0031-9422(00)83113-1|10.1016/S0031-9422(00)84901-8|10.1016/S0031-9422(00)84920-1|10.1016/S0031-9422(00)89536-9|10.1016/S0031-9422(00)97569-1|10.1016/S0031-9422(01)00311-9|10.1016/S0031-9422(01)00429-0|10.1016/S0031-9422(02)00268-6|10.1016/S0031-9422(02)00670-2|10.1016/S0031-9422(97)00488-3|10.1016/S0031-9422(97)00678-X|10.1016/S0031-9422(97)00824-8|10.1016/S0031-9422(98)00721-3|10.1016/S0031-9422(98)00751-1|10.1016/S0305-1978(00)00050-8|10.1016/S0367-326X(02)00314-3|10.1016/S0367-326X(98)00014-8|10.1016/S0944-7113(97)80047-5|10.1016/j.bmc.2007.10.004|10.1016/j.bmc.2008.04.016|10.1016/j.bmcl.2011.02.102|10.1016/j.bmcl.2013.02.060|10.1016/j.bmcl.2015.01.034|10.1021/JF048945D|10.1021/JF060251C|10.1021/JF801792N|10.1021/NP000084P|10.1021/NP000260U|10.1021/NP010236W|10.1021/NP040187Y|10.1021/NP050082A|10.1021/NP0580210|10.1021/NP0603931|10.1021/NP060425K|10.1021/NP0604533|10.1021/NP100022S|10.1021/NP100440P|10.1021/NP100900K|10.1021/NP400533H|10.1021/NP400717M|10.1021/NP50018A011|10.1021/NP50040A043|10.1021/NP50081A011|10.1021/NP50086A022|10.1021/NP50088A012|10.1021/NP50118A021|10.1021/NP50120A010|10.1021/NP50124A009|10.1021/NP8004166|10.1021/NP800494E|10.1021/NP900225P|10.1021/NP9006298|10.1021/NP970348G|10.1021/NP970571D|10.1021/acs.jnatprod.5b01054|10.1021/np0580210|10.1021/np100900k|10.1021/np400533h|10.1021/np400717m|10.1021/np50046a031|10.1021/np8004166|10.1021/np9006298|10.1055/S-0028-1084416|10.1055/S-1999-14093|10.1055/S-2000-8654|10.1055/S-2002-32891|10.1055/S-2003-41127|10.1055/S-2003-818005|10.1055/S-2006-958035|10.1055/S-2006-960221|10.1055/S-2006-960841|10.1055/S-2007-969695|10.1055/S-2008-1074537|10.1055/S-2008-1081340|10.1076/PHBI.37.2.144.6084|10.1080/10286020.2011.641535|10.1080/10286021003745452|10.1080/10575639308043877|10.1080/10575639608043251|10.1080/14786410412331271979|10.1080/14786411003757929|10.11110/KJPT.1985.15.3.145|10.1248/BPB.27.583|10.1248/CPB.32.1612|10.1248/CPB.32.5066|10.1248/CPB.33.1444|10.1248/CPB.35.1785|10.1248/CPB.35.2717|10.1248/CPB.39.2024|10.1248/CPB.39.865|10.1248/CPB.41.1346|10.1248/CPB.43.2014|10.1248/CPB.46.988|10.1248/CPB.48.832|10.1248/CPB.49.183|10.1248/CPB.50.137|10.1248/CPB.53.1204|10.1248/CPB.53.1321|10.1248/CPB.53.1416|10.1248/CPB.55.1597|10.1248/CPB.56.1159|10.1248/CPB.56.97|10.1248/CPB.57.1129|10.1248/CPB.57.397|10.1248/CPB.58.394|10.1248/CPB.58.587|10.1248/CPB.58.61|10.1248/CPB.58.971|10.1248/YAKUSHI1947.103.3_279|10.1248/YAKUSHI1947.104.10_1030|10.1271/BBB.60.1714|10.14233/AJCHEM.2014.16432|10.1515/ZNB-2005-0715|10.1515/znb-2005-0715|10.1590/S0100-46702007000300002|10.2307/3754908|10.4268/CJCMM20141019|10.5012/BKCS.2011.32.6.2079|10.5772/INTECHOPEN.75133

>  <synonyms>  (1835) 
(+)-Syringaresinol|(+)-lirioresinol B|(+)-syringaresinol|(+\/-)-Syringaresinol|(-) Syringaresinol|(7alpha,7'alpha,8alpha,8'alpha)-3,3',5,5'-tetramethoxy-7,9':7',9-diepoxylignane-4,4'-diol|155K1084GO|21453-69-0|4,4'-(1S,3aR,4S,6aR)-tetrahydro-1H,3H-furo(3,4-c)furan-1,4-diylbis(2,6-dimethoxyphenol)|4-[(3S,3aR,6S,6aR)-6-(4-hydroxy-3,5-dimethoxyphenyl)-1,3,3a,4,6,6a-hexahydrofuro[3,4-c]furan-3-yl]-2,6-dimethoxyphenol|6YWP8N8R9S|AKOS030573572|BDBM50349826|CHEBI:47|CHEMBL361362|CS-0090281|DL-Syringaresinol|F92974|G60953|HY-126030|KOWMJRJXZMEZLD-HCIHMXRSSA-N|MS-27315|NS00097022|NSC-329246|PHENOL, 4,4'-((1S,3AR,4S,6AR)-TETRAHYDRO-1H,3H-FURO(3,4-C)FURAN-1,4-DIYL)BIS(2,6-DIMETHOXY-|PHENOL, 4,4'-(TETRAHYDRO-1H,3H-FURO(3,4-C)FURAN-1,4-DIYL)BIS(2,6-DIMETHOXY-, (1.ALPHA.,3A.ALPHA.,4.ALPHA.,6A.ALPHA.)-(+\/-)-|Phenol, 4,4'-(tetrahydro-1H,3H-furo(3,4-C)furan-1,4-diyl)bis(2,6-dimethoxy-, (1R,3aS,4R,6aS)-rel-|Phenol, 4,4'-(tetrahydro-1H,3H-furo(3,4-c)furan-1,4-diyl)bis(2,6-dimethoxy-, (1S-(1alpha,3aalpha,4alpha,6aalpha))-|Q7663351|Rel-(1R,3aS,4R,6aS)-4,4'-(tetrahydro-1H,3H-furo(3,4-C)furan-1,4-diyl)bis(2,6-dimethoxyphenol)|SCHEMBL120484|Syringaresinol, (+)-|UNII-155K1084GO|UNII-6YWP8N8R9S|dl-Syringaresinol|syringaresinol

>  <cas>  (1835) 
21453-69-0

$$$$

     RDKit          2D

 10  9  0  0  0  0  0  0  0  0999 V2000
   -4.6765    0.0000    0.0000 C   0  0  0  0  0  0  0  0  0  0  0  0
   -3.3775   -0.7500    0.0000 C   0  0  0  0  0  0  0  0  0  0  0  0
   -2.0785    0.0000    0.0000 C   0  0  0  0  0  0  0  0  0  0  0  0
   -2.0785    1.5000    0.0000 C   0  0  0  0  0  0  0  0  0  0  0  0
   -0.7794   -0.7500    0.0000 C   0  0  0  0  0  0  0  0  0  0  0  0
    0.5196   -0.0000    0.0000 C   0  0  0  0  0  0  0  0  0  0  0  0
    1.8187   -0.7500    0.0000 C   0  0  0  0  0  0  0  0  0  0  0  0
    3.1177   -0.0000    0.0000 C   0  0  0  0  0  0  0  0  0  0  0  0
    4.4167   -0.7500    0.0000 C   0  0  0  0  0  0  0  0  0  0  0  0
    3.1177    1.5000    0.0000 C   0  0  0  0  0  0  0  0  0  0  0  0
  1  2  2  0
  2  3  1  0
  3  4  1  0
  3  5  2  0
  5  6  1  0
  6  7  1  0
  7  8  2  0
  8  9  1  0
  8 10  1  0
M  END
>  <identifier>  (1836) 
CNP0295010.1

>  <canonical_smiles>  (1836) 
C=C/C(C)=C/CC=C(C)C

>  <standard_inchi>  (1836) 
InChI=1S/C10H16/c1-5-10(4)8-6-7-9(2)3/h5,7-8H,1,6H2,2-4H3/b10-8+

>  <standard_inchi_key>  (1836) 
IHPKGUQCSIINRJ-CSKARUKUSA-N

>  <name>  (1836) 
(E)-beta-ocimene

>  <iupac_name>  (1836) 
(3E)-3,7-dimethylocta-1,3,6-triene

>  <annotation_level>  (1836) 
0

>  <total_atom_count>  (1836) 
26

>  <heavy_atom_count>  (1836) 
10

>  <molecular_weight>  (1836) 
136.24

>  <exact_molecular_weight>  (1836) 
136.1252

>  <molecular_formula>  (1836) 
C10H16

>  <alogp>  (1836) 
3.48

>  <topological_polar_surface_area>  (1836) 
0.00

>  <rotatable_bond_count>  (1836) 
3

>  <hydrogen_bond_acceptors>  (1836) 
0

>  <hydrogen_bond_donors>  (1836) 
0

>  <hydrogen_bond_acceptors_lipinski>  (1836) 
0

>  <hydrogen_bond_donors_lipinski>  (1836) 
0

>  <lipinski_rule_of_five_violations>  (1836) 
0

>  <aromatic_rings_count>  (1836) 
0

>  <qed_drug_likeliness>  (1836) 
0.41

>  <formal_charge>  (1836) 
0

>  <fractioncsp3>  (1836) 
0.40

>  <number_of_minimal_rings>  (1836) 
0

>  <van_der_walls_volume>  (1836) 
159.73

>  <contains_sugar>  (1836) 
False

>  <contains_ring_sugars>  (1836) 
False

>  <contains_linear_sugars>  (1836) 
False

>  <murcko_framework>  (1836) 
nan

>  <np_likeness>  (1836) 
2.78

>  <chemical_class>  (1836) 
nan

>  <chemical_sub_class>  (1836) 
nan

>  <chemical_super_class>  (1836) 
nan

>  <direct_parent_classification>  (1836) 
nan

>  <np_classifier_pathway>  (1836) 
Terpenoids

>  <np_classifier_superclass>  (1836) 
Monoterpenoids

>  <np_classifier_class>  (1836) 
Acyclic monoterpenoids

>  <np_classifier_is_glycoside>  (1836) 
False

>  <organisms>  (1836) 
Acca sellowiana|Achillea grandifolia|Aconitum violaceum|Acorus calamus|Acorus gramineus|Actinoalloteichus cyanogriseus|Actinodium cunninghamii|Aframomum melegueta|Agastache foeniculum|Agathosma betulina|Agelas linnaei|Ageratum conyzoides|Aloysia citriodora|Aloysia citrodora|Aloysia triphylla|Alphinia galanga|Alpinia breviligulata|Alpinia latilabris|Alpinia zerumbet|Alternaria japonica|Ambrosia eriocentra|Amelanchier alnifolia|Amomum compactum|Amomum krervanh|Amorphophallus margaritifer|Anethum graveolens|Angelica acutiloba|Angelica archangelica|Angelica gigas|Angelica sinensis|Annona reticulata|Annona squamosa|Anthemis aciphylla|Anthemis aciphylla BOISS.var.discoidea BOISS|Apium graveolens|Arabidopsis thaliana|Aristolochia debilis|Artemisia Annua|Artemisia absinthium|Artemisia annua|Artemisia arborescens|Artemisia argyi|Artemisia capillaris|Artemisia lagocephala|Artemisia monosperma|Artemisia montana|Artemisia princeps|Artemisia rubripes|Artemisia salsoloides|Artemisia scoparia|Asarum fauriei|Asarum heterotropoides|Asarum sieboldii|Asarum takaoi|Ascidia ahodori|Asiasarum heterotropoides|Asiasarum sieboldii|Aspergillus falconensis|Aspilia paludosa|Aster scaber|Athamanta macedonica|Atractylodes chinensis|Atractylodes lancea|Austrobaileya scandens|Avena sativa|Azadirachta indica|Baccharis articulata|Baccharis rufescens|Beilschmiedia pendula|Bitter bush|Bleekeria vitiensis|Boswellia carteri|Boswellia carterii|Boswellia papyrifera|Boswellia sacra|Brassica napus|Brassica nigra|Bupleurum fruticosum|Callistemon linearis|Camellia sinensis|Canarium luzonicum|Canella winterana|Cannabis sativa|Cantinoa mutabilis|Capsicum annuum|Carapichea ipecacuanha|Carica papaya|Carum carvi|Catha edulis|Caulerpa serrulata|Centaurea solstitialis|Ceramium rubrum|Chaerophyllum macrospermum|Chamaecyparis pisifera|Chamaemelum nobile|Chamomilla recutita|Chimonanthus praecox|Chondromyces crocatus|Chrysanthemum indicum|Chrysanthemum x morifolium|Chrysanthemum zawadskii|Cinamomum cassia|Cinnamomum aromaticum|Cinnamomum camphora|Cinnamomum zeylanicum|Cinnamon|Citrus aurantium|Citrus grandis|Citrus limon|Citrus maxima|Citrus medica|Citrus medica var. sarcodactylis|Citrus natsudaidai|Citrus reticulata|Citrus sinensis|Citrus trifoliata|Citrus unshiu|Citrus wilsonii|Citrus × deliciosa|Citrus × paradisi|Clausena excavata|Cleistopholis patens|Clinopodium barbatum|Clinopodium carolinianum|Clinopodium grandiflorum|Cnidium officinale|Codonopsis pilosula|Coleonema pulchellum|Commiphora gurreh|Conyza bonariensis|Conyza incana|Conyza sumatrensis|Coriandrum sativum|Corymbia torelliana|Craibiodendron yunnanese|Croton eluteria|Croton jimenezii|Curcuma Xanthorrhiza|Curcuma amada|Curcuma amanda Roxb|Curcuma kwangsiensis|Curcuma longa|Curcuma mangga|Curcuma phaeocaulis|Curcuma wenyujin|Curcuma xanthorrhiza|Curcuma zedoaria|Curio articulatus|Cyberlindnera jadinii|Cymbopogon citratus|Cymbopogon khasianus|Cymbopogon nardus|Daphne mezereum|Daphne odora|Daucus carota|Delphinium shawurense|Dendranthema indicum|Dendrobium chrysanthum|Dendrobium fimbriatum var. oculatum|Dendrobium officinale|Descurainia sophia|Diplotaenia cachrydifolia|Duguetia confinis|Dysidea amblia|Echinophora tenuifolia|Echinophora trichophylla|Eirmocephala megaphylla|Elettaria cardamomum|Elsholtzia blanda|Elsholtzia ciliata|Elsholtzia fruticosa|Elsholtzia pilosa|Enydra fluctuans|Erigeron bonariensis|Erigeron canadensis|Etlingera cevuga|Etlingera elatior|Etlingera pavieana|Eucalyptus angulosa|Eucalyptus behriana|Eucalyptus brassiana|Eucalyptus bridgesiana|Eucalyptus campanulata|Eucalyptus ceratocorys|Eucalyptus cloeziana|Eucalyptus cuprea|Eucalyptus delegatensis|Eucalyptus dolichorhyncha|Eucalyptus fasciculosa|Eucalyptus forrestiana|Eucalyptus globulus|Eucalyptus incrassata|Eucalyptus intertexta|Eucalyptus lansdowneana|Eucalyptus leucoxylon|Eucalyptus maidenii|Eucalyptus melanophloia|Eucalyptus ochrophloia|Eucalyptus odorata|Eucalyptus perriniana|Eucalyptus polyanthemos|Eucalyptus populnea|Eucalyptus porosa|Eucalyptus radiata|Eucalyptus sparsa|Eucalyptus stoatei|Eucalyptus tetraptera|Eucalyptus urophylla|Eucalyptus viridis|Eugenia uniflora|Euodia bodinieri|Euodia officinalis|Euodia ruticarpa|Eupatorium capillifolium|Euphorbia bivonae|Euplotes raikovi|Evodia rutaecarpa|Fagraea gracilipes|Fallopia sachalinensis|Ferula assa-foetida|Ferula assafoetida|Ferula fukanensis|Ferula sinkiangensis|Ferulago nodosa|Ficus carica|Foeniculum vulgare|Forsythia suspensa|Forsythia viridissima|Fructus galangae|Fructus schiandrae|Fructus syzygii|Garcinia dulcis|Garcinia xipshuanbannaensis|Gaultheria mucronata|Gossypium herbaceum|Gossypium hirsutum|Grindelia hirsutula|Gutierrezia lucida|Gynandropsis gynandra|Hansenia weberbaueriana|Hedeoma mandoniana|Hedychium coronarium|Hedyosmum bonplandianum|Hedyosmum costaricense|Hedyosmum mexicanum|Helichrysum amorginum|Helichrysum graveolens|Helichrysum italicum|Helichrysum odoratissimum|Heracleum dissectum|Heracleum persicum|Hesperis matronalis|Homo sapiens|Houttuynia Cordata|Houttuynia cordata|Houttuynia emeiensis|Humulus lupulus|Hymenocrater incanus|Hypericum hyssopifolium|Hypericum japonicum|Hypericum perforatum|Hyptis mutabilis|Hyptis spicigera|Hyptis suaveolens|Hyssopus officinalis|Illicium anisatum|Illicium verum|Iryanthera paraensis|Isodon macrophyllus|Juglans regia|Jugo|Juniperus durangensis|Juniperus jaliscana|Juniperus monticola|Kippistia suaedifolia|Laggera crispata|Laggera pterodonta|Lallemantia peltata|Lantana xenica|Lathyrus nissolia|Launea|Lavandula angustifolia|Lavandula angustifolia Mill.|Lavandula latifolia|Leonotis leonurus|Leonurus persicus|Leptospermum scoparium|Leptosphaeria doliolum|Levisticum officinale|Ligusticum chuanxiong|Ligusticum sinense|Lindera aggregata|Lindera strichnifolia|Lippia Myriocephala|Lippia alba|Lippia multiflora|Liquidambar styraciflua|Litsea cubeba|Litsea glutinosa|Magnolia officinalis|Magnolia sieboldii|Magnolia x soulangiana|Malus|Mangifera indica|Matricaria chamomilla|Medicago sativa|Melaleuca acacioides|Melaleuca alternifolia|Melissa officinalis|Mentha arvensis|Mentha canadensis|Mentha insularis|Mentha piperita|Mentha spicata|Mentha suaveolens|Microcitrus|Micromeria biflora|Micromeria myrtifolia|Micromeria sinaica|Mikania banisteriae|Mikania congesta|Mikania cordifolia|Mikania parviflora|Minthostachys andina|Minthostachys glabrescens|Minthostachys mollis|Monarda fistulosa|Monnina sylvatica|Montanoa tomentosa|Mosla chinensis|Murraya paniculata|Myristica fragrans|Nelumbo lutea|Nepeta glomerulosa|Nepeta nepetella|Nepeta nuda|Nepeta viscida|Nicotiana alata|Nicotiana bonariensis|Nicotiana langsdorffii|Nicotiana mutabilis|Ocimum basilicum|Ocimum campechianum|Ocimum gratissimum|Ocimum micranthum|Ocimum tenuiflorum|Ocotea austinii|Ocotea morae|Oplopanax elatus|Origanum laevigatum|Origanum minutiflorum|Origanum onites|Origanum sipyleum|Origanum syriacum|Origanum vulgare|Ormosia balansae|Orytes rinojaponyes|Osbornia octodonta|Osmorhiza aristata|Pandanus tectorius|Parthenium argentatum|Parthenium confertum|Parthenium fruticosum|Parthenium hysterophorus|Parthenium incanum|Parthenium schottii|Parthenium tomentosum|Passiflora edulis|Pelargonium citronellum|Pelargonium endlicherianum|Pelargonium graveolens|Pelargonium quercifolium|Pelargonium vitifolium|Peltogyne porphyrocardia|Perilla frutescens|Perilla frutescens var. hirtella|Periploca sepium|Pernettya mucronata|Persicaria hydropiperoides|Persicaria minor|Petasites hybridus|Peucedanum paniculatum|Peucedanum paniculatum L.|Phallus impudicus|Phaseolus lunatus|Phlomis lanata|Picea abies|Pilocarpus microphyllus|Pilocarpus mycrophyllus|Pimelea linifolia|Pimenta dioica|Pimenta racemosa|Pinus brutia var. eldarica|Pinus flexilis|Pinus halepensis|Pinus heldreichii|Pinus pinea|Pinus sylvestris|Pinus tabulaefomis|Piper aduncum|Piper arboreum|Piper augustum|Piper auritum|Piper capense|Piper cernuum|Piper cubeba|Piper fimbriulatum|Piper gaudichaudianum|Piper marginatum|Piper nigrum|Pistacia integerrima|Pistacia vera|Platycladus orientalis|Plumeria rubra|Podachaenium eminens|Polygonum Minus|Polygonum minus|Porophyllum ruderale|Prangos uechtritzii|Prangos uloptera|Protium heptaphyllum|Prunus avium|Pseudeurotium zonatum|Pseudotsuga menziesii|Psiadia altissima|Psidium friedrichsthalianum|Psidium guajava|Psidium larueotteanum|Psidium rufum|Psidium salutare|Quercus ilex|Ratibida mexicana|Reynoutria sachalinensis|Ribes nigrum|Roboastra tigris|Rosmarinus Officinalis|Rosmarinus eriocalyx|Rosmarinus officinalis|Rosmarinus officinalis L.|Rosmarinus tomentosus|Salvia absconditiflora|Salvia brandegeei|Salvia columbariae|Salvia dorystaechas|Salvia granatensis|Salvia ianthina|Salvia iodantha|Salvia jordanii|Salvia mellifera|Salvia munzii|Salvia officinalis|Salvia reuteriana|Salvia sclarea|Salvia syriaca|Salvia tomentosa|Satureja cuneifolia|Satureja spicigera|Satureja wiedemanniana|Saussurea lappa|Scalesia aspera|Scandix australis|Schinus molle|Schisandra chinensis|Semenovia suffruticosa|Senecio subsessilis|Sideritis dichotoma|Sideritis hispida|Sinapis alba|Siparuna thecaphora|Smallanthus maculatus|Solanecio biafrae|Solanum grandiflorum|Solanum lycopersicum|Solidago canadensis|Solidago odora|Sphagneticola trilobata|Spondias mombin|Spongiporus leucomallellus (Murril)|Stachys aegyptiaca|Stichopus parvimensis|Stockwellia|Syzygium aromaticum|Syzygium cumini|Syzygium nervosum|Tagetes erecta|Tagetes filifolia|Tagetes lucida|Tagetes minuta|Tanacetum parthenium|Tanacetum tanacetoides|Teucrium bidentatum|Teucrium leucocladum|Teucrium pestalozzae|Teucrium pseudoscorodonia|Thymbra capitata|Thymbra spicata|Thymus camphoratus|Thymus capitatus|Thymus eigii|Thymus funkii|Thymus longiflorus|Thymus quinquecostatus|Thymus riatarum|Thymus schimperi|Thymus sipyleus|Thymus thracicus|Thymus vulgaris|Thymus willkommii|Thymus zygioides|Tilesia baccata|Tithonia diversifolia|Tordylium apulum|Trichostema dichotomum|Trifoliate orange|Trifolium pratense|Uvariopsis tripetala|Varronia curassavica|Virola surinamensis|Vitex agnus-castus|Vitex negundo|Warburgia stuhlmannii|Warburgia ugandensis|Xylopia aromatica|Xylopia holtzii|Xylopia sericea|Zanthoxylum bungeanum|Zanthoxylum gilletii|Zanthoxylum leprieurii|Zanthoxylum piperitum|Zanthoxylum schinifolium|Zanthoxylum simulans|Zanthoxylum suberosum|Zieria aspalathoides|Zingiber mioga|Zingiber officinale|basil|bellis perennis|clove|common myrtle|corn mint|parsley|pomelo|tarragon|tomato

>  <collections>  (1836) 
ANPDB|Australian natural products|CMAUP (cCollective molecular activities of useful plants)|ChEBI NPs|EMNPD|ETM (Ethiopian Traditional Medicine) DB|FooDB|KNApSaCK|Latin America dataset|NANPDB (Natural Products from Northern African Sources)|NAPRORE-CR|NPACT|NPASS|NPEdia|NuBBEDB|Phyto4Health|Super Natural II|TCMDB-Taiwan (Traditional Chinese Medicine database)|TIPdb (database of Taiwan indigenous plants)|TPPT (Toxic Plants–PhytoToxins)|VietHerb|WikiData Natural Products

>  <dois>  (1836) 
10.1002/(SICI)1097-0231(199608)10:11<1345::AID-RCM631>3.0.CO;2-4|10.1002/(SICI)1099-1026(199701)12:1<47::AID-FFJ610>3.0.CO;2-7|10.1002/(SICI)1099-1026(199907/08)14:4<230::AID-FFJ816>3.0.CO;2-L|10.1002/(SICI)1099-1026(199909/10)14:5<265::AID-FFJ822>3.0.CO;2-A|10.1002/(SICI)1099-1026(199911/12)14:6<393::AID-FFJ849>3.0.CO;2-5|10.1002/(SICI)1099-1026(200003/04)15:2<100::AID-FFJ874>3.0.CO;2-Y|10.1002/(SICI)1099-1565(199909/10)10:5<241::AID-PCA460>3.0.CO;2-5|10.1002/(SICI)1099-1573(199605)10:3<211::AID-PTR813>3.0.CO;2-7|10.1002/(SICI)1099-1573(199702)11:1<67::AID-PTR29>3.0.CO;2-I|10.1002/(SICI)1099-1573(1998)12:1+<S117::AID-PTR269>3.0.CO;2-2|10.1002/1099-1026(200005/06)15:3<201::AID-FFJ893>3.0.CO;2-I|10.1002/1099-1026(200009/10)15:5<299::AID-FFJ911>3.0.CO;2-I|10.1002/9780470744307.gat218|10.1002/CBDV.201100135|10.1002/CBDV.201400051|10.1002/CBDV.201400340|10.1002/CBDV.201700436|10.1002/CBDV.201800531|10.1002/CJOC.201180379|10.1002/ECE3.5390|10.1002/FFJ.1175|10.1002/FFJ.1187|10.1002/FFJ.1279|10.1002/FFJ.1305|10.1002/FFJ.1582|10.1002/FFJ.1804|10.1002/FFJ.2730020110|10.1002/FFJ.2730030208|10.1002/FFJ.2730040206|10.1002/FFJ.2730040411|10.1002/FFJ.2730050205|10.1002/FFJ.2730060307|10.1002/FFJ.2730070108|10.1002/FFJ.2730070603|10.1002/FFJ.2730090305|10.1002/FFJ.2730100204|10.1002/FFJ.2730100605|10.1002/FFJ.2730100609|10.1002/FFJ.3227|10.1002/FFJ.983|10.1002/HLCA.19840670504|10.1002/HLCA.201200359|10.1002/JSFA.980|10.1002/JSSC.200900378|10.1002/ffj.2730010405|10.1002/hlca.201200359/pdf|10.1002/jsfa.980|10.1002/ptr.1103|10.1006/ABBI.1999.1669|10.1006/JFCA.1999.0841|10.1006/JFCA.2000.0968|10.1007/BF00579447|10.1007/BF00580907|10.1007/BF00629951|10.1007/BF00630335|10.1007/BF01959201|10.1007/BF02266966|10.1007/BF02269705|10.1007/BF02312888|10.1007/BF02536610|10.1007/BF02866639|10.1007/BF02901380|10.1007/S004030050433|10.1007/S11418-006-0112-9|10.1007/S11418-007-0175-2|10.1016/0031-9422(82)83205-6|10.1016/0031-9422(88)80461-8|10.1016/0031-9422(88)83085-1|10.1016/0031-9422(90)85270-P|10.1016/0031-9422(91)83064-R|10.1016/0031-9422(91)83632-U|10.1016/0031-9422(91)84186-V|10.1016/0031-9422(94)00332-N|10.1016/0031-9422(95)00183-8|10.1016/0031-9422(95)00801-2|10.1016/0031-9422(96)00119-7|10.1016/0305-1978(85)90037-7|10.1016/0305-1978(93)90029-Q|10.1016/0305-1978(95)00033-Q|10.1016/0378-8741(89)90113-X|10.1016/J.APJTM.2016.06.009|10.1016/J.ARABJC.2010.11.006|10.1016/J.BSE.2003.12.009|10.1016/J.BSE.2010.01.009|10.1016/J.BSE.2020.104004|10.1016/J.CHROMA.2004.11.095|10.1016/J.CHROMA.2014.10.058|10.1016/J.FOODCHEM.2012.09.111|10.1016/J.FOODCHEM.2013.10.093|10.1016/J.FOODCHEM.2013.11.092|10.1016/J.FOODCHEM.2018.09.082|10.1016/J.FOODRES.2018.12.054|10.1016/J.INDCROP.2009.02.010|10.1016/J.INDCROP.2013.06.023|10.1016/J.JPLPH.2019.152994|10.1016/J.LWT.2008.09.015|10.1016/J.PHYMED.2008.04.018|10.1016/J.PHYTOCHEM.2003.08.004|10.1016/J.PHYTOCHEM.2004.03.019|10.1016/J.PHYTOCHEM.2005.07.001|10.1016/J.PHYTOCHEM.2006.04.025|10.1016/J.PHYTOCHEM.2006.05.038|10.1016/J.PHYTOCHEM.2006.12.009|10.1016/J.PHYTOCHEM.2009.03.012|10.1016/J.PHYTOCHEM.2011.09.002|10.1016/S0021-9673(01)95036-8|10.1016/S0031-9422(00)80558-0|10.1016/S0031-9422(00)80682-2|10.1016/S0031-9422(00)81063-8|10.1016/S0031-9422(00)83061-7|10.1016/S0031-9422(00)83062-9|10.1016/S0031-9422(00)83942-4|10.1016/S0031-9422(00)84709-3|10.1016/S0031-9422(00)84802-5|10.1016/S0031-9422(00)84946-8|10.1016/S0031-9422(00)94756-3|10.1016/S0031-9422(00)97781-1|10.1016/S0031-9422(96)00386-X|10.1016/S0031-9422(97)00117-9|10.1016/S0031-9422(97)00141-6|10.1016/S0031-9422(97)00221-5|10.1016/S0031-9422(97)00324-5|10.1016/S0031-9422(97)00762-0|10.1016/S0031-9422(98)00507-X|10.1016/S0367-326X(99)00038-6|10.1016/S0925-5214(02)00250-8|10.1016/S1465-9972(01)00011-3|10.1016/S2221-1691(14)60204-5|10.1016/j.arabjc.2010.11.006|10.1016/s1465-9972(01)00011-3|10.1021/ACS.JAFC.5B00546|10.1021/JF00023A054|10.1021/JF00034A033|10.1021/JF00037A027|10.1021/JF00046A030|10.1021/JF00047A021|10.1021/JF00064A020|10.1021/JF00071A004|10.1021/JF00071A013|10.1021/JF00091A025|10.1021/JF00094A032|10.1021/JF00112A045|10.1021/JF00122A019|10.1021/JF0116303|10.1021/JF030212Q|10.1021/JF040102Z|10.1021/JF0402633|10.1021/JF60200A011|10.1021/JF60201A021|10.1021/JF60218A031|10.1021/JF60223A016|10.1021/JF950577D|10.1021/JF9708296|10.1021/JF980108M|10.1021/JO040272A|10.1021/NP030475E|10.1021/NP50006A014|10.1021/NP50008A001|10.1021/NP50009A015|10.1021/NP50027A022|10.1021/NP50028A031|10.1021/NP50034A044|10.1021/NP50040A037|10.1021/NP50041A034|10.1021/NP50046A033|10.1021/NP50048A039|10.1021/NP50051A035|10.1021/NP50052A041|10.1021/NP50053A047|10.1021/NP50062A008|10.1021/acs.est.7b02240|10.1021/jf00089a027|10.1021/jf011456i|10.1021/np50006a014|10.1023/B:JOEC.0000042067.27698.30|10.1038/S41598-020-66866-1|10.1055/S-0028-1097962|10.1055/S-0028-1099571|10.1055/S-0028-1100058|10.1055/S-2000-8627|10.1055/S-2001-18363|10.1055/S-2002-33803|10.1055/S-2004-827162|10.1055/S-2006-957378|10.1055/S-2006-957488|10.1055/S-2006-957489|10.1055/S-2006-957640|10.1055/S-2006-957914|10.1055/S-2006-959580|10.1055/S-2006-959673|10.1055/S-2006-959714|10.1055/S-2006-960032|10.1055/S-2006-960872|10.1055/S-2006-961401|10.1055/S-2006-961490|10.1055/S-2006-961495|10.1055/S-2006-962450|10.1055/S-2006-962452|10.1055/S-2006-962745|10.1055/S-2006-962781|10.1055/S-2007-969160|10.1055/S-2007-969171|10.1055/S-2007-969176|10.1055/S-2007-969275|10.1055/S-2007-969372|10.1055/S-2007-969621|10.1055/S-2007-969632|10.1055/S-2008-1074841|10.1071/CH9600357|10.1071/CH9721921|10.1071/CH9742061|10.1071/ch9721921|10.1073/PNAS.93.18.9966|10.1076/PHBI.35.3.218.13295|10.1080/0972060X.2007.10643581|10.1080/0972060X.2013.813219|10.1080/0972060X.2014.895210|10.1080/10412905.1989.9697790|10.1080/10412905.1990.9697808|10.1080/10412905.1990.9697824|10.1080/10412905.1990.9697829|10.1080/10412905.1990.9697830|10.1080/10412905.1990.9697838|10.1080/10412905.1990.9697847|10.1080/10412905.1990.9697854|10.1080/10412905.1990.9697864|10.1080/10412905.1991.9697905|10.1080/10412905.1991.9697906|10.1080/10412905.1991.9697932|10.1080/10412905.1991.9697935|10.1080/10412905.1991.9697936|10.1080/10412905.1991.9697952|10.1080/10412905.1991.9697953|10.1080/10412905.1991.9697973|10.1080/10412905.1991.9697982|10.1080/10412905.1991.9697984|10.1080/10412905.1991.9697985|10.1080/10412905.1991.9697991|10.1080/10412905.1991.9697994|10.1080/10412905.1991.9700498|10.1080/10412905.1992.9698015|10.1080/10412905.1992.9698035|10.1080/10412905.1992.9698061|10.1080/10412905.1992.9698065|10.1080/10412905.1992.9698069|10.1080/10412905.1992.9698083|10.1080/10412905.1992.9698087|10.1080/10412905.1992.9698088|10.1080/10412905.1992.9698091|10.1080/10412905.1992.9698095|10.1080/10412905.1992.9698110|10.1080/10412905.1992.9698123|10.1080/10412905.1992.9698127|10.1080/10412905.1992.9698130|10.1080/10412905.1992.9698149|10.1080/10412905.1992.9698153|10.1080/10412905.1993.9698162|10.1080/10412905.1993.9698164|10.1080/10412905.1993.9698167|10.1080/10412905.1993.9698170|10.1080/10412905.1993.9698174|10.1080/10412905.1993.9698177|10.1080/10412905.1993.9698178|10.1080/10412905.1993.9698179|10.1080/10412905.1993.9698184|10.1080/10412905.1993.9698206|10.1080/10412905.1993.9698214|10.1080/10412905.1993.9698215|10.1080/10412905.1993.9698216|10.1080/10412905.1993.9698235|10.1080/10412905.1993.9698250|10.1080/10412905.1993.9698253|10.1080/10412905.1993.9698256|10.1080/10412905.1993.9698258|10.1080/10412905.1993.9698282|10.1080/10412905.1994.9698337|10.1080/10412905.1994.9698380|10.1080/10412905.1994.9698395|10.1080/10412905.1994.9698406|10.1080/10412905.1994.9698408|10.1080/10412905.1994.9698409|10.1080/10412905.1994.9698417|10.1080/10412905.1994.9698418|10.1080/10412905.1994.9698427|10.1080/10412905.1994.9698428|10.1080/10412905.1994.9698447|10.1080/10412905.1994.9699347|10.1080/10412905.1994.9699353|10.1080/10412905.1994.9699358|10.1080/10412905.1994.9699365|10.1080/10412905.1994.9699366|10.1080/10412905.1995.9698470|10.1080/10412905.1995.9698473|10.1080/10412905.1995.9698479|10.1080/10412905.1995.9698501|10.1080/10412905.1995.9698515|10.1080/10412905.1995.9698524|10.1080/10412905.1995.9698531|10.1080/10412905.1995.9698532|10.1080/10412905.1995.9698558|10.1080/10412905.1995.9698581|10.1080/10412905.1995.9698585|10.1080/10412905.1995.9700523|10.1080/10412905.1995.9700529|10.1080/10412905.1996.9700547|10.1080/10412905.1996.9700554|10.1080/10412905.1996.9700559|10.1080/10412905.1996.9700562|10.1080/10412905.1996.9700565|10.1080/10412905.1996.9700567|10.1080/10412905.1996.9700569|10.1080/10412905.1996.9701028|10.1080/10412905.1997.9699459|10.1080/10412905.1997.9700709|10.1080/10412905.1997.9700727|10.1080/10412905.1997.9700774|10.1080/10412905.1998.9700844|10.1080/10412905.1998.9700913|10.1080/10412905.1998.9701010|10.1080/10412905.1999.9701056|10.1080/10412905.1999.9701113|10.1080/10412905.1999.9701151|10.1080/10412905.1999.9701156|10.1080/10412905.2000.9699486|10.1080/10412905.2000.9699552|10.1080/10412905.2000.9712152|10.1080/10412905.2000.9712167|10.1080/10412905.2000.9712191|10.1080/10412905.2002.9699826|10.1080/10412905.2002.9699883|10.1080/10412905.2003.9698598|10.1080/10412905.2004.9698688|10.1080/10412905.2004.9698740|10.1080/10412905.2004.9698744|10.1080/10412905.2007.9699946|10.1080/10412905.2010.9700320|10.1080/10412905.2010.9700338|10.1080/10412905.2012.747271|10.1080/10412905.2013.796498|10.1080/10412905.2016.1140090|10.1080/10412905.2018.1431966|10.1080/14620316.1988.11515884|10.1080/14786410701848154|10.1080/14786419.2010.513685|10.1088/1752-7155/8/1/014001|10.1093/JXB/ERZ422|10.1104/PP.009670|10.1104/pp.009670|10.1111/J.1095-8339.1986.TB01826.X|10.1111/J.1365-313X.2005.02417.X|10.1111/JFBC.12935|10.1155/2017/7436259|10.1186/1471-2229-14-140|10.1186/1472-6882-14-125|10.1248/BPB.23.359|10.1248/CPB.53.1484|10.1248/CPB.54.222|10.1248/CPB.54.725|10.1248/CPB.54.936|10.1248/YAKUSHI1947.99.11_1116|10.1271/BBB1961.47.483|10.1271/BBB1961.55.1655|10.1371/JOURNAL.PONE.0207097|10.14233/AJCHEM.2013.14346|10.1515/ZNC-1988-5-604|10.1515/ZNC-1988-5-608|10.1515/ZNC-1990-9-1023|10.1590/S0103-50532010000500012|10.1590/S0103-50532011000400018|10.17660/ACTAHORTIC.2005.677.9|10.23893/1307-2080.APS.05611|10.24200/JAMS.VOL5ISS1PP25-27|10.2478/V10007-009-0022-Y|10.3109/13880208709060907|10.3109/13880209109082875|10.3109/13880209109082876|10.3109/13880209109082877|10.3109/13880209309082924|10.3329/bjb.v37i1.1568|10.3390/12030283|10.3390/12030389|10.3390/MOLECULES16086481|10.3390/MOLECULES191119220|10.3390/MOLECULES20045346|10.3390/MOLECULES21060814|10.3390/MOLECULES24112053|10.3390/MOLECULES24234244|10.4314/BCSE.V12I1.21037|10.4324/9780203303603|10.5040/9781474215718.CH-010|10.5694/J.1326-5377.1998.TB126732.X|10.5897/JMPR11.972

>  <synonyms>  (1836) 
|(3E)-3,7-Dimethyl-1,3,6-octatriene|(3E)-3,7-dimethyl-octa-1,3,6-triene|(3E)-3,7-dimethylocta-1,3,6-triene|(3E)-beta-ocimene|(E) beta-ocimene|(E)- .beta.-Ocimene|(E)-3,7-Dimethylocta-1,3,6-triene|(E)-3,7-Dimethyloctatriene|(E)-Ocimene|(E)-beta -Ocimene|(E)-beta ocimene|(E)-beta-ocimene|(e)-3,7-dimethyl-1,3,6-octatriene|.BETA.-OCIMENE, (3E)-|.beta.-(E)-Ocimene|.beta.-Ocimene|.beta.-Ocimene, (E)-|.beta.-trans-Ocimene|1,3,6-Octatriene, 3,7-dimethyl-, (3E)-|1,3,6-Octatriene, 3,7-dimethyl-, (E)-|223-241-5|27400-72-2|3,7-DIMETHYLOCTA-1,3,6-TRIENE, (3E)-|3,7-DIMETHYLOCTA-1,3,6-TRIENE, (E)-|3,7-Dimethyl-(E)-1,3,6-Octatriene|3,7-Dimethyl-(E)-Octatriene|3,7-Dimethyl-1,3,6-octatriene (natural)|3,7-Dimethylocta-1,3,6-triene|3,7-dimethyl-1,3E,6-octatriene|3,7-dimethyl-E-1,3,6-octatriene|3779-61-1|3779-61-1 13877-91-3|38BQ4UYY06|AKOS015903787|AS-80273|C09873|CHEBI:64280|CHEMBL2228374|CS-0064406|CS-0143761|DIMETHYL-1,3,6-OCTATRIENE|DIMETHYL-1,3,6-OCTATRIENE [FHFI]|DTXSID8040567|E-3,7-Dimethyl-1,3,6-octatriene|E-beta-Ocimene|EINECS 223-241-5|EINECS 237-641-2|FD158989|HY-117215|HY-117215A|LMPR0102010021|MFCD00026437|MSK014081|NS00013049|OCIMENE TRANS-.BETA.-FORM|OCIMENE TRANS-.BETA.-FORM [MI]|Ocimene (E)|Ocimene trans-beta-form|Ocimene(mixture of isomers)|Ocimene, trans|Ocimene, trans-.beta.-|Ocimene, trans-beta-|Octatriene, 3,7-dimethyl-, (E)-|Q26777012|RefChem:29805|SCHEMBL157852|UNII-38BQ4UYY06|UNII-V96I2PX4L5|beta -(E)-Ocimene|beta -trans-Ocimene|beta-(E)-Ocimene|beta-OCIMENE, (3E)-|beta-trans-Ocimene|bmse000964|ocimene (e-beta-)|orb2299233|p-Ocimene|t-.beta.-Ocimene|trans-.beta.-Ocimene|trans-3,7-Dimethyl-1,3,6-Octatriene|trans-3,7-dimethylocta-1,3,6-triene|trans-?-Ocimene|trans-Ocimene|trans-beta -Ocimene|trans-beta-Ocimene|trans-|A-Ocimene

>  <cas>  (1836) 
3779-61-1|3779-61-1 13877-91-3|27400-72-2

$$$$

     RDKit          2D

 42 46  0  0  0  0  0  0  0  0999 V2000
   -0.6609    4.2047    0.0000 O   0  0  0  0  0  0  0  0  0  0  0  0
   -0.1210    2.8052    0.0000 C   0  0  0  0  0  0  0  0  0  0  0  0
    1.3610    2.5731    0.0000 C   0  0  0  0  0  0  0  0  0  0  0  0
    2.3029    3.7405    0.0000 C   0  0  0  0  0  0  0  0  0  0  0  0
    3.7849    3.5084    0.0000 C   0  0  0  0  0  0  0  0  0  0  0  0
    4.3248    2.1089    0.0000 C   0  0  0  0  0  0  0  0  0  0  0  0
    5.8068    1.8769    0.0000 C   0  0  0  0  0  0  0  0  0  0  0  0
    6.7487    3.0442    0.0000 C   0  0  0  0  0  0  0  0  0  0  0  0
    8.2307    2.8121    0.0000 O   0  0  0  0  0  0  0  0  0  0  0  0
    6.2088    4.4436    0.0000 C   0  0  0  0  0  0  0  0  0  0  0  0
    7.1507    5.6110    0.0000 O   0  0  0  0  0  0  0  0  0  0  0  0
    4.7268    4.6757    0.0000 C   0  0  0  0  0  0  0  0  0  0  0  0
   -1.0629    1.6379    0.0000 O   0  0  0  0  0  0  0  0  0  0  0  0
   -2.5449    1.8700    0.0000 C   0  0  0  0  0  0  0  0  0  0  0  0
   -3.0848    3.2694    0.0000 C   0  0  0  0  0  0  0  0  0  0  0  0
   -2.1429    4.4368    0.0000 O   0  0  0  0  0  0  0  0  0  0  0  0
   -4.5668    3.5015    0.0000 C   0  0  0  0  0  0  0  0  0  0  0  0
   -5.1068    4.9009    0.0000 O   0  0  0  0  0  0  0  0  0  0  0  0
   -5.5088    2.3342    0.0000 C   0  0  0  0  0  0  0  0  0  0  0  0
   -6.9907    2.5663    0.0000 C   0  0  0  0  0  0  0  0  0  0  0  0
   -7.9327    1.3989    0.0000 O   0  0  0  0  0  0  0  0  0  0  0  0
   -4.9688    0.9347    0.0000 O   0  0  0  0  0  0  0  0  0  0  0  0
   -3.4868    0.7026    0.0000 C   0  0  0  0  0  0  0  0  0  0  0  0
   -2.9469   -0.6968    0.0000 C   0  0  0  0  0  0  0  0  0  0  0  0
   -3.8888   -1.8642    0.0000 C   0  0  0  0  0  0  0  0  0  0  0  0
   -5.3708   -1.6321    0.0000 O   0  0  0  0  0  0  0  0  0  0  0  0
   -3.3489   -3.2636    0.0000 C   0  0  0  0  0  0  0  0  0  0  0  0
   -1.8669   -3.4957    0.0000 C   0  0  0  0  0  0  0  0  0  0  0  0
   -1.3270   -4.8951    0.0000 O   0  0  0  0  0  0  0  0  0  0  0  0
    0.1550   -5.1272    0.0000 C   0  0  0  0  0  0  0  0  0  0  0  0
    0.6949   -6.5267    0.0000 C   0  0  0  0  0  0  0  0  0  0  0  0
    2.1769   -6.7588    0.0000 C   0  0  0  0  0  0  0  0  0  0  0  0
    2.7168   -8.1582    0.0000 O   0  0  0  0  0  0  0  0  0  0  0  0
    3.1188   -5.5914    0.0000 C   0  0  0  0  0  0  0  0  0  0  0  0
    4.6008   -5.8235    0.0000 O   0  0  0  0  0  0  0  0  0  0  0  0
    2.5789   -4.1920    0.0000 C   0  0  0  0  0  0  0  0  0  0  0  0
    1.0969   -3.9599    0.0000 C   0  0  0  0  0  0  0  0  0  0  0  0
    0.5570   -2.5604    0.0000 C   0  0  0  0  0  0  0  0  0  0  0  0
    1.4989   -1.3931    0.0000 O   0  0  0  0  0  0  0  0  0  0  0  0
   -0.9250   -2.3283    0.0000 C   0  0  0  0  0  0  0  0  0  0  0  0
   -1.4649   -0.9289    0.0000 C   0  0  0  0  0  0  0  0  0  0  0  0
   -0.5230    0.2384    0.0000 O   0  0  0  0  0  0  0  0  0  0  0  0
  1  2  2  0
  2  3  1  0
  3  4  2  0
  4  5  1  0
  5  6  2  0
  6  7  1  0
  7  8  2  0
  8  9  1  0
  8 10  1  0
 10 11  1  0
 10 12  2  0
  2 13  1  0
 14 13  1  1
 14 15  1  0
 15 16  1  6
 15 17  1  0
 17 18  1  1
 17 19  1  0
 19 20  1  6
 20 21  1  0
 19 22  1  0
 22 23  1  0
 23 24  1  6
 24 25  2  0
 25 26  1  0
 25 27  1  0
 27 28  2  0
 28 29  1  0
 29 30  1  0
 30 31  2  0
 31 32  1  0
 32 33  1  0
 32 34  2  0
 34 35  1  0
 34 36  1  0
 36 37  2  0
 37 38  1  0
 38 39  2  0
 38 40  1  0
 40 41  2  0
 41 42  1  0
 12  5  1  0
 23 14  1  0
 41 24  1  0
 40 28  1  0
 37 30  1  0
M  END
>  <identifier>  (1837) 
CNP0237660.1

>  <canonical_smiles>  (1837) 
O=C(/C=C/C1=CC=C(O)C(O)=C1)O[C@@H]1[C@@H](O)[C@H](O)[C@@H](CO)O[C@H]1C1=C(O)C=C2OC3=CC(O)=C(O)C=C3C(=O)C2=C1O

>  <standard_inchi>  (1837) 
InChI=1S/C28H24O14/c29-9-19-24(37)26(39)28(42-20(35)4-2-10-1-3-12(30)13(31)5-10)27(41-19)21-16(34)8-18-22(25(21)38)23(36)11-6-14(32)15(33)7-17(11)40-18/h1-8,19,24,26-34,37-39H,9H2/b4-2+/t19-,24-,26+,27+,28-/m1/s1

>  <standard_inchi_key>  (1837) 
KJGSFWHQWXCZRH-GIPHEDKVSA-N

>  <name>  (1837) 
[(2S,3R,4S,5S,6R)-4,5-dihydroxy-6-(hydroxymethyl)-2-(1,3,6,7-tetrahydroxy-9-oxoxanthen-2-yl)oxan-3-yl] (E)-3-(3,4-dihydroxyphenyl)prop-2-enoate

>  <iupac_name>  (1837) 
[(2~{S},3~{R},4~{S},5~{S},6~{R})-4,5-dihydroxy-6-(hydroxymethyl)-2-(1,3,6,7-tetrahydroxy-9-oxo-xanthen-2-yl)tetrahydropyran-3-yl] (~{E})-3-(3,4-dihydroxyphenyl)prop-2-enoate

>  <annotation_level>  (1837) 
5

>  <total_atom_count>  (1837) 
66

>  <heavy_atom_count>  (1837) 
42

>  <molecular_weight>  (1837) 
584.49

>  <exact_molecular_weight>  (1837) 
584.11661

>  <molecular_formula>  (1837) 
C28H24O14

>  <alogp>  (1837) 
0.96

>  <topological_polar_surface_area>  (1837) 
247.81

>  <rotatable_bond_count>  (1837) 
5

>  <hydrogen_bond_acceptors>  (1837) 
14

>  <hydrogen_bond_donors>  (1837) 
9

>  <hydrogen_bond_acceptors_lipinski>  (1837) 
14

>  <hydrogen_bond_donors_lipinski>  (1837) 
9

>  <lipinski_rule_of_five_violations>  (1837) 
3

>  <aromatic_rings_count>  (1837) 
4

>  <qed_drug_likeliness>  (1837) 
0.07

>  <formal_charge>  (1837) 
0

>  <fractioncsp3>  (1837) 
0.21

>  <number_of_minimal_rings>  (1837) 
5

>  <van_der_walls_volume>  (1837) 
467.39

>  <contains_sugar>  (1837) 
True

>  <contains_ring_sugars>  (1837) 
True

>  <contains_linear_sugars>  (1837) 
False

>  <murcko_framework>  (1837) 
O1c2ccccc2Cc3cc(ccc13)C4OCCCC4OCC=Cc5ccccc5

>  <np_likeness>  (1837) 
1.89

>  <chemical_class>  (1837) 
Benzopyrans

>  <chemical_sub_class>  (1837) 
1-benzopyrans

>  <chemical_super_class>  (1837) 
Organoheterocyclic compounds

>  <direct_parent_classification>  (1837) 
Xanthones

>  <np_classifier_pathway>  (1837) 
Shikimates and Phenylpropanoids

>  <np_classifier_superclass>  (1837) 
Xanthones

>  <np_classifier_class>  (1837) 
Plant xanthones

>  <np_classifier_is_glycoside>  (1837) 
False

>  <organisms>  (1837) 
Arrabidaea samydoides|Fridericia samydoides

>  <collections>  (1837) 
ChemSpider NPs|Latin America dataset|NPASS|NuBBEDB|Super Natural II|WikiData Natural Products|ZINC NP

>  <dois>  (1837) 
10.1021/NP030100T|10.1021/np030100t

>  <synonyms>  (1837) 
2-(2'-O-trans-caffeoyl)-C-\u221a\u00e9\u00ac\u2264-D-glucopyranosyl-1367-tetrahydroxyxanthone|CHEMBL504852

>  <cas>  (1837) 
nan

$$$$

     RDKit          2D

 41 43  0  0  0  0  0  0  0  0999 V2000
   -1.1549    6.2378    0.0000 C   0  0  0  0  0  0  0  0  0  0  0  0
   -0.2634    5.0315    0.0000 C   0  0  0  0  0  0  0  0  0  0  0  0
    1.2270    5.2004    0.0000 C   0  0  0  0  0  0  0  0  0  0  0  0
    1.8260    6.5756    0.0000 C   0  0  0  0  0  0  0  0  0  0  0  0
    2.1186    3.9941    0.0000 C   0  0  0  0  0  0  0  0  0  0  0  0
    1.5196    2.6189    0.0000 C   0  0  0  0  0  0  0  0  0  0  0  0
    2.4111    1.4125    0.0000 C   0  0  0  0  0  0  0  0  0  0  0  0
    3.4443    2.5000    0.0000 C   0  0  0  0  0  0  0  0  0  0  0  0
    1.0683    0.7441    0.0000 C   0  0  0  0  0  0  0  0  0  0  0  0
   -0.1820    1.5727    0.0000 C   0  0  0  0  0  0  0  0  0  0  0  0
    0.9758   -0.7531    0.0000 C   0  0  0  0  0  0  0  0  0  0  0  0
   -0.3670   -1.4216    0.0000 O   0  0  0  0  0  0  0  0  0  0  0  0
   -1.6173   -0.5929    0.0000 C   0  0  0  0  0  0  0  0  0  0  0  0
   -1.5248    0.9042    0.0000 O   0  0  0  0  0  0  0  0  0  0  0  0
   -2.9601   -1.2614    0.0000 C   0  0  0  0  0  0  0  0  0  0  0  0
   -4.2104   -0.4328    0.0000 C   0  0  0  0  0  0  0  0  0  0  0  0
   -5.5532   -1.1013    0.0000 C   0  0  0  0  0  0  0  0  0  0  0  0
   -6.8036   -0.2726    0.0000 C   0  0  0  0  0  0  0  0  0  0  0  0
   -8.1464   -0.9411    0.0000 C   0  0  0  0  0  0  0  0  0  0  0  0
   -9.3967   -0.1124    0.0000 C   0  0  0  0  0  0  0  0  0  0  0  0
  -10.7395   -0.7809    0.0000 C   0  0  0  0  0  0  0  0  0  0  0  0
  -11.9898    0.0477    0.0000 C   0  0  0  0  0  0  0  0  0  0  0  0
  -13.3326   -0.6208    0.0000 C   0  0  0  0  0  0  0  0  0  0  0  0
    2.2262   -1.5818    0.0000 C   0  0  0  0  0  0  0  0  0  0  0  0
    1.7742   -3.0120    0.0000 O   0  0  0  0  0  0  0  0  0  0  0  0
    3.5690   -0.9133    0.0000 C   0  0  0  0  0  0  0  0  0  0  0  0
    4.8193   -1.7419    0.0000 C   0  0  0  0  0  0  0  0  0  0  0  0
    6.1621   -1.0734    0.0000 C   0  0  0  0  0  0  0  0  0  0  0  0
    6.2546    0.4237    0.0000 C   0  0  0  0  0  0  0  0  0  0  0  0
    7.5974    1.0922    0.0000 O   0  0  0  0  0  0  0  0  0  0  0  0
    5.0043    1.2524    0.0000 C   0  0  0  0  0  0  0  0  0  0  0  0
    3.6615    0.5839    0.0000 C   0  0  0  0  0  0  0  0  0  0  0  0
    4.7313   -1.1959    0.0000 C   0  0  0  0  0  0  0  0  0  0  0  0
    5.3507   -4.3616    0.0000 O   0  0  0  0  0  0  0  0  0  0  0  0
    4.8001   -5.7569    0.0000 C   0  0  0  0  0  0  0  0  0  0  0  0
    4.0791   -1.5012    0.0000 O   0  0  0  0  0  0  0  0  0  0  0  0
    4.1061   -0.7816    0.0000 C   0  0  0  0  0  0  0  0  0  0  0  0
    0.9493   -1.4446    0.0000 O   0  0  0  0  0  0  0  0  0  0  0  0
   -0.1212   -2.4953    0.0000 C   0  0  0  0  0  0  0  0  0  0  0  0
   -1.5664   -2.0936    0.0000 C   0  0  0  0  0  0  0  0  0  0  0  0
    0.2535   -3.9478    0.0000 O   0  0  0  0  0  0  0  0  0  0  0  0
  1  2  2  0
  2  3  1  0
  3  4  2  0
  3  5  1  0
  5  6  1  0
  6  7  1  0
  7  8  1  6
  7  9  1  0
  9 10  1  1
  9 11  1  0
 11 12  1  6
 12 13  1  0
 13 14  2  0
 13 15  1  0
 15 16  2  0
 16 17  1  0
 17 18  2  0
 18 19  1  0
 19 20  1  0
 20 21  1  0
 21 22  1  0
 22 23  1  0
 11 24  1  0
 24 25  1  1
 24 26  1  0
 26 27  1  6
 27 28  2  0
 28 29  1  0
 29 30  1  1
 29 31  1  0
 32 31  1  6
 27 33  1  0
 33 34  1  6
 34 35  1  0
 33 36  1  0
 36 37  1  0
 37 38  1  1
 38 39  1  0
 39 40  1  0
 39 41  2  0
 32  7  1  0
 32 26  1  0
 37 26  1  0
M  END
>  <identifier>  (1838) 
CNP0316395.1

>  <canonical_smiles>  (1838) 
C=CC(=C)CC[C@]1(C)[C@H](C)[C@@H](OC(=O)/C=C/C=C/CCCCC)[C@H](O)[C@@]23C(=C[C@H](O)C[C@@H]12)[C@@H](OC)O[C@@H]3OC(C)=O

>  <standard_inchi>  (1838) 
InChI=1S/C33H48O8/c1-8-10-11-12-13-14-15-16-27(36)40-28-22(4)32(6,18-17-21(3)9-2)26-20-24(35)19-25-30(38-7)41-31(39-23(5)34)33(25,26)29(28)37/h9,13-16,19,22,24,26,28-31,35,37H,2-3,8,10-12,17-18,20H2,1,4-7H3/b14-13+,16-15+/t22-,24+,26+,28-,29+,30+,31+,32-,33-/m1/s1

>  <standard_inchi_key>  (1838) 
IIKQVONZJJQKFU-UVUKTTTMSA-N

>  <name>  (1838) 
nan

>  <iupac_name>  (1838) 
[(1~{R},3~{S},5~{R},6~{a}~{S},7~{S},8~{S},9~{R},10~{R},10~{a}~{S})-1-acetoxy-5,10-dihydroxy-3-methoxy-7,8-dimethyl-7-(3-methylenepent-4-enyl)-1,3,5,6,6~{a},8,9,10-octahydrobenzo[d]isobenzofuran-9-yl] (2~{E},4~{E})-deca-2,4-dienoate

>  <annotation_level>  (1838) 
5

>  <total_atom_count>  (1838) 
89

>  <heavy_atom_count>  (1838) 
41

>  <molecular_weight>  (1838) 
572.74

>  <exact_molecular_weight>  (1838) 
572.33492

>  <molecular_formula>  (1838) 
C33H48O8

>  <alogp>  (1838) 
5.32

>  <topological_polar_surface_area>  (1838) 
111.52

>  <rotatable_bond_count>  (1838) 
13

>  <hydrogen_bond_acceptors>  (1838) 
8

>  <hydrogen_bond_donors>  (1838) 
2

>  <hydrogen_bond_acceptors_lipinski>  (1838) 
8

>  <hydrogen_bond_donors_lipinski>  (1838) 
2

>  <lipinski_rule_of_five_violations>  (1838) 
2

>  <aromatic_rings_count>  (1838) 
0

>  <qed_drug_likeliness>  (1838) 
0.10

>  <formal_charge>  (1838) 
0

>  <fractioncsp3>  (1838) 
0.64

>  <number_of_minimal_rings>  (1838) 
3

>  <van_der_walls_volume>  (1838) 
550.78

>  <contains_sugar>  (1838) 
False

>  <contains_ring_sugars>  (1838) 
False

>  <contains_linear_sugars>  (1838) 
False

>  <murcko_framework>  (1838) 
O1CC2=CCCC3CCCCC23C1

>  <np_likeness>  (1838) 
3.50

>  <chemical_class>  (1838) 
Prenol lipids

>  <chemical_sub_class>  (1838) 
Diterpenoids

>  <chemical_super_class>  (1838) 
Lipids and lipid-like molecules

>  <direct_parent_classification>  (1838) 
Colensane and clerodane diterpenoids

>  <np_classifier_pathway>  (1838) 
Terpenoids

>  <np_classifier_superclass>  (1838) 
Diterpenoids

>  <np_classifier_class>  (1838) 
Colensane and Clerodane diterpenoids

>  <np_classifier_is_glycoside>  (1838) 
True

>  <organisms>  (1838) 
Casearia rupestris

>  <collections>  (1838) 
ChemSpider NPs|Latin America dataset|NuBBEDB|Super Natural II|WikiData Natural Products|ZINC NP

>  <dois>  (1838) 
10.1021/NP100840W|10.1021/np100840w

>  <synonyms>  (1838) 
Casearupestrin C

>  <cas>  (1838) 
nan

$$$$

     RDKit          2D

  9  9  0  0  0  0  0  0  0  0999 V2000
   -4.0444    0.0606    0.0000 C   0  0  0  0  0  0  0  0  0  0  0  0
   -2.5865    0.4135    0.0000 C   0  0  0  0  0  0  0  0  0  0  0  0
   -1.5520   -0.6727    0.0000 C   0  0  0  0  0  0  0  0  0  0  0  0
   -0.0941   -0.3198    0.0000 C   0  0  0  0  0  0  0  0  0  0  0  0
    0.3293    1.1192    0.0000 C   0  0  0  0  0  0  0  0  0  0  0  0
    1.7872    1.4721    0.0000 C   0  0  0  0  0  0  0  0  0  0  0  0
    2.8217    0.3860    0.0000 C   0  0  0  0  0  0  0  0  0  0  0  0
    2.3984   -1.0531    0.0000 C   0  0  0  0  0  0  0  0  0  0  0  0
    0.9405   -1.4059    0.0000 C   0  0  0  0  0  0  0  0  0  0  0  0
  1  2  1  0
  2  3  1  0
  3  4  1  0
  4  5  1  0
  5  6  1  0
  6  7  1  0
  7  8  1  0
  8  9  1  0
  9  4  1  0
M  END
>  <identifier>  (1839) 
CNP0158548.0

>  <canonical_smiles>  (1839) 
CCCC1CCCCC1

>  <standard_inchi>  (1839) 
InChI=1S/C9H18/c1-2-6-9-7-4-3-5-8-9/h9H,2-8H2,1H3

>  <standard_inchi_key>  (1839) 
DEDZSLCZHWTGOR-UHFFFAOYSA-N

>  <name>  (1839) 
Propylcyclohexane

>  <iupac_name>  (1839) 
propylcyclohexane

>  <annotation_level>  (1839) 
5

>  <total_atom_count>  (1839) 
27

>  <heavy_atom_count>  (1839) 
9

>  <molecular_weight>  (1839) 
126.24

>  <exact_molecular_weight>  (1839) 
126.14085

>  <molecular_formula>  (1839) 
C9H18

>  <alogp>  (1839) 
3.37

>  <topological_polar_surface_area>  (1839) 
0.00

>  <rotatable_bond_count>  (1839) 
2

>  <hydrogen_bond_acceptors>  (1839) 
0

>  <hydrogen_bond_donors>  (1839) 
0

>  <hydrogen_bond_acceptors_lipinski>  (1839) 
0

>  <hydrogen_bond_donors_lipinski>  (1839) 
0

>  <lipinski_rule_of_five_violations>  (1839) 
0

>  <aromatic_rings_count>  (1839) 
0

>  <qed_drug_likeliness>  (1839) 
0.53

>  <formal_charge>  (1839) 
0

>  <fractioncsp3>  (1839) 
1.00

>  <number_of_minimal_rings>  (1839) 
1

>  <van_der_walls_volume>  (1839) 
149.75

>  <contains_sugar>  (1839) 
False

>  <contains_ring_sugars>  (1839) 
False

>  <contains_linear_sugars>  (1839) 
False

>  <murcko_framework>  (1839) 
C1CCCCC1

>  <np_likeness>  (1839) 
0.19

>  <chemical_class>  (1839) 
Saturated hydrocarbons

>  <chemical_sub_class>  (1839) 
Cycloalkanes

>  <chemical_super_class>  (1839) 
Hydrocarbons

>  <direct_parent_classification>  (1839) 
Cycloalkanes

>  <np_classifier_pathway>  (1839) 
Fatty acids

>  <np_classifier_superclass>  (1839) 
Fatty acyls

>  <np_classifier_class>  (1839) 
Hydrocarbons

>  <np_classifier_is_glycoside>  (1839) 
False

>  <organisms>  (1839) 
Carica papaya|Caryocar coriaceum|Crataegus pinnatifida|Viverra zibetha

>  <collections>  (1839) 
CMAUP (cCollective molecular activities of useful plants)|Latin America dataset|NPASS|NuBBEDB|Super Natural II|TCMDB-Taiwan (Traditional Chinese Medicine database)|TCMID (Traditional Chinese Medicine Integrated Database)|UNPD (Universal Natural Products Database)|WikiData Natural Products|ZINC NP

>  <dois>  (1839) 
10.1021/JF00120A031|10.1021/JF60209A051|10.1021/jf00120a031

>  <synonyms>  (1839) 
1,2-DI-n-PROPYL CYCLOHEXANE|1-Cyclohexylpropane|1678-92-8|AKOS015906916|BAA67892|CHEBI:229284|Cyclohexane, propyl-|D91999|DB-043718|DTXSID4074699|EINECS 216-836-6|J-010407|LMFA11000661|LS-13698|MFCD00013770|N-PROPYLCYCLOHEXANE|NS00025507|NSC 44885|NSC-44885|P0681|Propylcyclohexane, 99%|Q63392603|SY051883|T6QU2W806V|UNII-T6QU2W806V|propyl-cyclohexane

>  <cas>  (1839) 
1678-92-8

$$$$

     RDKit          2D

 32 36  0  0  0  0  0  0  0  0999 V2000
   -7.4630   -2.1477    0.0000 C   0  0  0  0  0  0  0  0  0  0  0  0
   -6.0302   -1.7037    0.0000 C   0  0  0  0  0  0  0  0  0  0  0  0
   -5.6984   -0.2409    0.0000 C   0  0  0  0  0  0  0  0  0  0  0  0
   -4.2656    0.2032    0.0000 C   0  0  0  0  0  0  0  0  0  0  0  0
   -3.9338    1.6660    0.0000 C   0  0  0  0  0  0  0  0  0  0  0  0
   -5.0347    2.6848    0.0000 C   0  0  0  0  0  0  0  0  0  0  0  0
   -2.5010    2.1101    0.0000 C   0  0  0  0  0  0  0  0  0  0  0  0
   -2.0181    3.5302    0.0000 C   0  0  0  0  0  0  0  0  0  0  0  0
   -0.5183    3.5098    0.0000 C   0  0  0  0  0  0  0  0  0  0  0  0
   -0.0742    2.0770    0.0000 C   0  0  0  0  0  0  0  0  0  0  0  0
    1.0541    3.0654    0.0000 C   0  0  0  0  0  0  0  0  0  0  0  0
    1.2877    1.4483    0.0000 C   0  0  0  0  0  0  0  0  0  0  0  0
    2.5131    2.3133    0.0000 C   0  0  0  0  0  0  0  0  0  0  0  0
    3.8750    1.6846    0.0000 C   0  0  0  0  0  0  0  0  0  0  0  0
    4.0114    0.1908    0.0000 C   0  0  0  0  0  0  0  0  0  0  0  0
    5.3733   -0.4379    0.0000 C   0  0  0  0  0  0  0  0  0  0  0  0
    6.8681   -0.5629    0.0000 C   0  0  0  0  0  0  0  0  0  0  0  0
    5.7560    1.0125    0.0000 C   0  0  0  0  0  0  0  0  0  0  0  0
    5.5097   -1.9317    0.0000 C   0  0  0  0  0  0  0  0  0  0  0  0
    6.8716   -2.5604    0.0000 O   0  0  0  0  0  0  0  0  0  0  0  0
    4.2843   -2.7967    0.0000 C   0  0  0  0  0  0  0  0  0  0  0  0
    2.9224   -2.1680    0.0000 C   0  0  0  0  0  0  0  0  0  0  0  0
    2.7860   -0.6742    0.0000 C   0  0  0  0  0  0  0  0  0  0  0  0
    1.5606   -1.5393    0.0000 C   0  0  0  0  0  0  0  0  0  0  0  0
    1.4241   -0.0455    0.0000 C   0  0  0  0  0  0  0  0  0  0  0  0
    0.1987   -0.9106    0.0000 C   0  0  0  0  0  0  0  0  0  0  0  0
   -1.1632   -0.2818    0.0000 C   0  0  0  0  0  0  0  0  0  0  0  0
   -1.2996    1.2119    0.0000 C   0  0  0  0  0  0  0  0  0  0  0  0
   -2.6088    0.4797    0.0000 C   0  0  0  0  0  0  0  0  0  0  0  0
   -4.9293   -2.7225    0.0000 C   0  0  0  0  0  0  0  0  0  0  0  0
   -5.2611   -4.1853    0.0000 C   0  0  0  0  0  0  0  0  0  0  0  0
   -3.4965   -2.2784    0.0000 C   0  0  0  0  0  0  0  0  0  0  0  0
  1  2  2  0
  2  3  1  0
  3  4  1  0
  4  5  1  0
  5  6  1  1
  5  7  1  0
  7  8  1  1
  8  9  1  0
  9 10  1  0
 10 11  1  6
 10 12  1  0
 12 13  1  6
 13 14  1  0
 14 15  2  0
 15 16  1  0
 16 17  1  0
 16 18  1  0
 16 19  1  0
 19 20  1  1
 19 21  1  0
 21 22  1  0
 23 22  1  6
 23 24  1  0
 25 24  1  1
 25 26  1  0
 26 27  1  0
 27 28  1  0
 28 29  1  1
  2 30  1  0
 30 31  1  0
 30 32  1  0
 28  7  1  0
 28 10  1  0
 25 12  1  0
 23 15  1  0
 25 23  1  0
M  END
>  <identifier>  (1840) 
CNP0080530.1

>  <canonical_smiles>  (1840) 
C=C(CC[C@@H](C)[C@H]1CC[C@@]2(C)[C@@H]3CC=C4C(C)(C)[C@@H](O)CC[C@@]45C[C@@]35CC[C@]12C)C(C)C

>  <standard_inchi>  (1840) 
InChI=1S/C31H50O/c1-20(2)21(3)9-10-22(4)23-13-15-29(8)25-12-11-24-27(5,6)26(32)14-16-30(24)19-31(25,30)18-17-28(23,29)7/h11,20,22-23,25-26,32H,3,9-10,12-19H2,1-2,4-8H3/t22-,23-,25+,26+,28-,29+,30-,31+/m1/s1

>  <standard_inchi_key>  (1840) 
IEUYPKKOHSWZRJ-BOPOUWLVSA-N

>  <name>  (1840) 
nan

>  <iupac_name>  (1840) 
(1~{S},3~{S},6~{S},11~{S},12~{S},15~{R},16~{R})-15-[(1~{R})-1,5-dimethyl-4-methylene-hexyl]-7,7,12,16-tetramethyl-pentacyclo[9.7.0.0^{1,3}.0^{3,8}.0^{12,16}]octadec-8-en-6-ol

>  <annotation_level>  (1840) 
4

>  <total_atom_count>  (1840) 
82

>  <heavy_atom_count>  (1840) 
32

>  <molecular_weight>  (1840) 
438.74

>  <exact_molecular_weight>  (1840) 
438.38617

>  <molecular_formula>  (1840) 
C31H50O

>  <alogp>  (1840) 
8.34

>  <topological_polar_surface_area>  (1840) 
20.23

>  <rotatable_bond_count>  (1840) 
5

>  <hydrogen_bond_acceptors>  (1840) 
1

>  <hydrogen_bond_donors>  (1840) 
1

>  <hydrogen_bond_acceptors_lipinski>  (1840) 
1

>  <hydrogen_bond_donors_lipinski>  (1840) 
1

>  <lipinski_rule_of_five_violations>  (1840) 
1

>  <aromatic_rings_count>  (1840) 
0

>  <qed_drug_likeliness>  (1840) 
0.43

>  <formal_charge>  (1840) 
0

>  <fractioncsp3>  (1840) 
0.87

>  <number_of_minimal_rings>  (1840) 
5

>  <van_der_walls_volume>  (1840) 
nan

>  <contains_sugar>  (1840) 
False

>  <contains_ring_sugars>  (1840) 
False

>  <contains_linear_sugars>  (1840) 
False

>  <murcko_framework>  (1840) 
C1=C2CCCCC23CC43CCC5CCCC5C4C1

>  <np_likeness>  (1840) 
3.55

>  <chemical_class>  (1840) 
Steroids and steroid derivatives

>  <chemical_sub_class>  (1840) 
Cycloartanols and derivatives

>  <chemical_super_class>  (1840) 
Lipids and lipid-like molecules

>  <direct_parent_classification>  (1840) 
Cycloartanols and derivatives

>  <np_classifier_pathway>  (1840) 
Terpenoids

>  <np_classifier_superclass>  (1840) 
Triterpenoids

>  <np_classifier_class>  (1840) 
Cycloartane triterpenoids

>  <np_classifier_is_glycoside>  (1840) 
False

>  <organisms>  (1840) 
Dilodendron bipinnatum

>  <collections>  (1840) 
Latin America dataset|NuBBEDB|WikiData Natural Products

>  <dois>  (1840) 
10.1590/S0100-40422010001000014

>  <synonyms>  (1840) 
24-methylenecycloartenol

>  <cas>  (1840) 
nan

$$$$

     RDKit          2D

 26 30  0  0  0  0  0  0  0  0999 V2000
    6.6668   -2.8758    0.0000 C   0  0  0  0  0  0  0  0  0  0  0  0
    6.9765   -1.4081    0.0000 O   0  0  0  0  0  0  0  0  0  0  0  0
    5.8603   -0.4061    0.0000 C   0  0  0  0  0  0  0  0  0  0  0  0
    4.4344   -0.8717    0.0000 C   0  0  0  0  0  0  0  0  0  0  0  0
    3.3182    0.1303    0.0000 C   0  0  0  0  0  0  0  0  0  0  0  0
    1.8923   -0.3353    0.0000 C   0  0  0  0  0  0  0  0  0  0  0  0
    1.4309   -1.7626    0.0000 O   0  0  0  0  0  0  0  0  0  0  0  0
   -0.0691   -1.7648    0.0000 C   0  0  0  0  0  0  0  0  0  0  0  0
   -0.5347   -0.3389    0.0000 C   0  0  0  0  0  0  0  0  0  0  0  0
    0.6775    0.5446    0.0000 C   0  0  0  0  0  0  0  0  0  0  0  0
    0.2119    1.9705    0.0000 C   0  0  0  0  0  0  0  0  0  0  0  0
   -1.2881    1.9683    0.0000 O   0  0  0  0  0  0  0  0  0  0  0  0
   -1.7495    0.5410    0.0000 C   0  0  0  0  0  0  0  0  0  0  0  0
   -3.1754    0.0754    0.0000 C   0  0  0  0  0  0  0  0  0  0  0  0
   -3.4851   -1.3923    0.0000 C   0  0  0  0  0  0  0  0  0  0  0  0
   -4.9110   -1.8579    0.0000 C   0  0  0  0  0  0  0  0  0  0  0  0
   -6.0272   -0.8559    0.0000 C   0  0  0  0  0  0  0  0  0  0  0  0
   -7.5188   -1.0149    0.0000 O   0  0  0  0  0  0  0  0  0  0  0  0
   -8.1309    0.3545    0.0000 C   0  0  0  0  0  0  0  0  0  0  0  0
   -7.0177    1.3599    0.0000 O   0  0  0  0  0  0  0  0  0  0  0  0
   -5.7175    0.6118    0.0000 C   0  0  0  0  0  0  0  0  0  0  0  0
   -4.2916    1.0774    0.0000 C   0  0  0  0  0  0  0  0  0  0  0  0
    3.6279    1.5980    0.0000 C   0  0  0  0  0  0  0  0  0  0  0  0
    5.0538    2.0637    0.0000 C   0  0  0  0  0  0  0  0  0  0  0  0
    6.1700    1.0616    0.0000 C   0  0  0  0  0  0  0  0  0  0  0  0
    7.5959    1.5273    0.0000 O   0  0  0  0  0  0  0  0  0  0  0  0
  1  2  1  0
  2  3  1  0
  3  4  2  0
  4  5  1  0
  6  5  1  1
  6  7  1  0
  7  8  1  0
  9  8  1  6
  9 10  1  0
 10 11  1  6
 11 12  1  0
 12 13  1  0
 13 14  1  6
 14 15  2  0
 15 16  1  0
 16 17  2  0
 17 18  1  0
 18 19  1  0
 19 20  1  0
 20 21  1  0
 21 22  2  0
  5 23  2  0
 23 24  1  0
 24 25  2  0
 25 26  1  0
 25  3  1  0
 10  6  1  0
 22 14  1  0
 13  9  1  0
 21 17  1  0
M  END
>  <identifier>  (1841) 
CNP0248930.7

>  <canonical_smiles>  (1841) 
COC1=CC([C@H]2OC[C@H]3[C@@H]2CO[C@H]3C2=CC=C3OCOC3=C2)=CC=C1O

>  <standard_inchi>  (1841) 
InChI=1S/C20H20O6/c1-22-17-6-11(2-4-15(17)21)19-13-8-24-20(14(13)9-23-19)12-3-5-16-18(7-12)26-10-25-16/h2-7,13-14,19-21H,8-10H2,1H3/t13-,14-,19+,20-/m0/s1

>  <standard_inchi_key>  (1841) 
VBIRCRCPHNUJAS-LHHVKLHASA-N

>  <name>  (1841) 
nan

>  <iupac_name>  (1841) 
4-[(3~{R},3~{a}~{R},6~{S},6~{a}~{R})-3-(1,3-benzodioxol-5-yl)-1,3,3~{a},4,6,6~{a}-hexahydrofuro[3,4-c]furan-6-yl]-2-methoxy-phenol

>  <annotation_level>  (1841) 
4

>  <total_atom_count>  (1841) 
46

>  <heavy_atom_count>  (1841) 
26

>  <molecular_weight>  (1841) 
356.37

>  <exact_molecular_weight>  (1841) 
356.12599

>  <molecular_formula>  (1841) 
C20H20O6

>  <alogp>  (1841) 
3.20

>  <topological_polar_surface_area>  (1841) 
66.38

>  <rotatable_bond_count>  (1841) 
3

>  <hydrogen_bond_acceptors>  (1841) 
6

>  <hydrogen_bond_donors>  (1841) 
1

>  <hydrogen_bond_acceptors_lipinski>  (1841) 
6

>  <hydrogen_bond_donors_lipinski>  (1841) 
1

>  <lipinski_rule_of_five_violations>  (1841) 
0

>  <aromatic_rings_count>  (1841) 
2

>  <qed_drug_likeliness>  (1841) 
0.91

>  <formal_charge>  (1841) 
0

>  <fractioncsp3>  (1841) 
0.40

>  <number_of_minimal_rings>  (1841) 
5

>  <van_der_walls_volume>  (1841) 
307.59

>  <contains_sugar>  (1841) 
False

>  <contains_ring_sugars>  (1841) 
False

>  <contains_linear_sugars>  (1841) 
False

>  <murcko_framework>  (1841) 
O1c2ccc(cc2OC1)C3OCC4C(OCC34)c5ccccc5

>  <np_likeness>  (1841) 
1.07

>  <chemical_class>  (1841) 
Furanoid lignans

>  <chemical_sub_class>  (1841) 
Furan lignans

>  <chemical_super_class>  (1841) 
Lignans, neolignans and related compounds

>  <direct_parent_classification>  (1841) 
Furan lignans

>  <np_classifier_pathway>  (1841) 
Shikimates and Phenylpropanoids

>  <np_classifier_superclass>  (1841) 
Lignans

>  <np_classifier_class>  (1841) 
Furofuranoid lignans

>  <np_classifier_is_glycoside>  (1841) 
False

>  <organisms>  (1841) 
Asarum heterotropoides var. mandshuricum|Asarum sieboldii|Chamaecyparis obtusa|Cinnamomum camphora|Juniperus chinensis|Justicia orbiculata|Knema austrosiamensis|Otoba parvifolia|Zanthoxylum piperitum

>  <collections>  (1841) 
KNApSaCK|Latin America dataset|NuBBEDB|Super Natural II|TIPdb (database of Taiwan indigenous plants)|WikiData Natural Products|ZINC NP

>  <dois>  (1841) 
10.1016/0031-9422(89)80055-X|10.1016/0031-9422(92)83753-L|10.1016/0031-9422(95)00368-H|10.1016/J.BMCL.2012.01.136|10.1016/S0031-9422(00)95010-6

>  <synonyms>  (1841) 
(+)-Xanthoxylol|Xanthoxylol

>  <cas>  (1841) 
nan

$$$$

     RDKit          2D

 27 29  0  0  0  0  0  0  0  0999 V2000
    6.7816   -2.2431    0.0000 C   0  0  0  0  0  0  0  0  0  0  0  0
    6.4282   -0.7853    0.0000 O   0  0  0  0  0  0  0  0  0  0  0  0
    4.9890   -0.3625    0.0000 C   0  0  0  0  0  0  0  0  0  0  0  0
    3.9033   -1.3974    0.0000 C   0  0  0  0  0  0  0  0  0  0  0  0
    2.4641   -0.9746    0.0000 C   0  0  0  0  0  0  0  0  0  0  0  0
    2.1107    0.4831    0.0000 C   0  0  0  0  0  0  0  0  0  0  0  0
    3.1964    1.5181    0.0000 C   0  0  0  0  0  0  0  0  0  0  0  0
    4.6356    1.0953    0.0000 C   0  0  0  0  0  0  0  0  0  0  0  0
    5.7213    2.1303    0.0000 O   0  0  0  0  0  0  0  0  0  0  0  0
    7.1605    1.7074    0.0000 C   0  0  0  0  0  0  0  0  0  0  0  0
    0.6715    0.9059    0.0000 C   0  0  0  0  0  0  0  0  0  0  0  0
    0.3180    2.3637    0.0000 O   0  0  0  0  0  0  0  0  0  0  0  0
   -0.4143   -0.1290    0.0000 C   0  0  0  0  0  0  0  0  0  0  0  0
   -1.8535    0.2938    0.0000 C   0  0  0  0  0  0  0  0  0  0  0  0
   -2.2069    1.7516    0.0000 C   0  0  0  0  0  0  0  0  0  0  0  0
   -3.6461    2.1744    0.0000 C   0  0  0  0  0  0  0  0  0  0  0  0
   -4.7318    1.1394    0.0000 C   0  0  0  0  0  0  0  0  0  0  0  0
   -6.1710    1.5622    0.0000 O   0  0  0  0  0  0  0  0  0  0  0  0
   -6.5244    3.0200    0.0000 C   0  0  0  0  0  0  0  0  0  0  0  0
   -4.3784   -0.3184    0.0000 C   0  0  0  0  0  0  0  0  0  0  0  0
   -5.4641   -1.3533    0.0000 O   0  0  0  0  0  0  0  0  0  0  0  0
   -5.1107   -2.8111    0.0000 C   0  0  0  0  0  0  0  0  0  0  0  0
   -2.9392   -0.7412    0.0000 C   0  0  0  0  0  0  0  0  0  0  0  0
   -2.5858   -2.1989    0.0000 O   0  0  0  0  0  0  0  0  0  0  0  0
   -3.6715   -3.2339    0.0000 C   0  0  0  0  0  0  0  0  0  0  0  0
   -0.0608   -1.5868    0.0000 C   0  0  0  0  0  0  0  0  0  0  0  0
    1.3783   -2.0096    0.0000 O   0  0  0  0  0  0  0  0  0  0  0  0
  1  2  1  0
  2  3  1  0
  3  4  2  0
  4  5  1  0
  5  6  2  0
  6  7  1  0
  7  8  2  0
  8  9  1  0
  9 10  1  0
  6 11  1  0
 11 12  2  0
 11 13  1  0
 13 14  1  0
 14 15  2  0
 15 16  1  0
 16 17  2  0
 17 18  1  0
 18 19  1  0
 17 20  1  0
 20 21  1  0
 21 22  1  0
 20 23  2  0
 23 24  1  0
 24 25  1  0
 13 26  2  0
 26 27  1  0
  8  3  1  0
 23 14  1  0
 27  5  1  0
M  END
>  <identifier>  (1842) 
CNP0199315.0

>  <canonical_smiles>  (1842) 
COC1=CC2=C(C=C1OC)C(=O)C(C1=CC=C(OC)C(OC)=C1OC)=CO2

>  <standard_inchi>  (1842) 
InChI=1S/C20H20O7/c1-22-14-7-6-11(19(25-4)20(14)26-5)13-10-27-15-9-17(24-3)16(23-2)8-12(15)18(13)21/h6-10H,1-5H3

>  <standard_inchi_key>  (1842) 
PQBJXCFVHIZLIF-UHFFFAOYSA-N

>  <name>  (1842) 
6,7,2',3',4'-Pentamethoxyisoflavone

>  <iupac_name>  (1842) 
6,7-dimethoxy-3-(2,3,4-trimethoxyphenyl)chromen-4-one

>  <annotation_level>  (1842) 
5

>  <total_atom_count>  (1842) 
47

>  <heavy_atom_count>  (1842) 
27

>  <molecular_weight>  (1842) 
372.37

>  <exact_molecular_weight>  (1842) 
372.1209

>  <molecular_formula>  (1842) 
C20H20O7

>  <alogp>  (1842) 
3.50

>  <topological_polar_surface_area>  (1842) 
76.36

>  <rotatable_bond_count>  (1842) 
6

>  <hydrogen_bond_acceptors>  (1842) 
7

>  <hydrogen_bond_donors>  (1842) 
0

>  <hydrogen_bond_acceptors_lipinski>  (1842) 
7

>  <hydrogen_bond_donors_lipinski>  (1842) 
0

>  <lipinski_rule_of_five_violations>  (1842) 
0

>  <aromatic_rings_count>  (1842) 
3

>  <qed_drug_likeliness>  (1842) 
0.66

>  <formal_charge>  (1842) 
0

>  <fractioncsp3>  (1842) 
0.25

>  <number_of_minimal_rings>  (1842) 
3

>  <van_der_walls_volume>  (1842) 
nan

>  <contains_sugar>  (1842) 
False

>  <contains_ring_sugars>  (1842) 
False

>  <contains_linear_sugars>  (1842) 
False

>  <murcko_framework>  (1842) 
O1C=C(c2ccccc2)Cc3ccccc13

>  <np_likeness>  (1842) 
0.62

>  <chemical_class>  (1842) 
Isoflavonoids

>  <chemical_sub_class>  (1842) 
O-methylated isoflavonoids

>  <chemical_super_class>  (1842) 
Phenylpropanoids and polyketides

>  <direct_parent_classification>  (1842) 
7-O-methylisoflavones

>  <np_classifier_pathway>  (1842) 
Shikimates and Phenylpropanoids

>  <np_classifier_superclass>  (1842) 
Isoflavonoids

>  <np_classifier_class>  (1842) 
Isoflavones

>  <np_classifier_is_glycoside>  (1842) 
False

>  <organisms>  (1842) 
Astropecten aurantiacus|Eucalyptus mckieana|Hibiscus mutabilis|Pterodon emarginatus|Pterodon pubescens

>  <collections>  (1842) 
Latin America dataset|NPASS|NPEdia|NuBBEDB|Super Natural II|UNPD (Universal Natural Products Database)|WikiData Natural Products|ZINC NP

>  <dois>  (1842) 
10.1016/S0031-9422(00)97301-1

>  <synonyms>  (1842) 
2'3'4'67-pentamethoxyisoflavone|33978-66-4|6,7,2',3',4'-Pentamethoxyisoflavone|6,7-Dimethoxy-3-(2,3,4-trimethoxyphenyl)-4H-1-benzopyran-4-one|6,7-Dimethoxy-3-(2,3,4-trimethoxyphenyl)-4H-chromen-4-one|CCG-214166|LMPK12050119

>  <cas>  (1842) 
33978-66-4

$$$$

     RDKit          2D

 18 21  0  0  0  0  0  0  0  0999 V2000
    0.1254   -2.4902    0.0000 O   0  0  0  0  0  0  0  0  0  0  0  0
    0.4642   -1.0290    0.0000 C   0  0  0  0  0  0  0  0  0  0  0  0
    1.8991   -0.5918    0.0000 C   0  0  0  0  0  0  0  0  0  0  0  0
    2.9951   -1.6158    0.0000 C   0  0  0  0  0  0  0  0  0  0  0  0
    4.4300   -1.1786    0.0000 C   0  0  0  0  0  0  0  0  0  0  0  0
    4.7688    0.2826    0.0000 C   0  0  0  0  0  0  0  0  0  0  0  0
    3.6728    1.3067    0.0000 C   0  0  0  0  0  0  0  0  0  0  0  0
    2.2379    0.8695    0.0000 C   0  0  0  0  0  0  0  0  0  0  0  0
    1.1419    1.8935    0.0000 O   0  0  0  0  0  0  0  0  0  0  0  0
   -0.2930    1.4563    0.0000 C   0  0  0  0  0  0  0  0  0  0  0  0
   -1.3891    2.4804    0.0000 C   0  0  0  0  0  0  0  0  0  0  0  0
   -2.8239    2.0432    0.0000 C   0  0  0  0  0  0  0  0  0  0  0  0
   -3.1628    0.5819    0.0000 C   0  0  0  0  0  0  0  0  0  0  0  0
   -4.4754   -0.1440    0.0000 O   0  0  0  0  0  0  0  0  0  0  0  0
   -4.1906   -1.6167    0.0000 C   0  0  0  0  0  0  0  0  0  0  0  0
   -2.7019   -1.8010    0.0000 O   0  0  0  0  0  0  0  0  0  0  0  0
   -2.0667   -0.4421    0.0000 C   0  0  0  0  0  0  0  0  0  0  0  0
   -0.6318   -0.0049    0.0000 C   0  0  0  0  0  0  0  0  0  0  0  0
  1  2  2  0
  2  3  1  0
  3  4  2  0
  4  5  1  0
  5  6  2  0
  6  7  1  0
  7  8  2  0
  8  9  1  0
  9 10  1  0
 10 11  2  0
 11 12  1  0
 12 13  2  0
 13 14  1  0
 14 15  1  0
 15 16  1  0
 16 17  1  0
 17 18  2  0
 18  2  1  0
  8  3  1  0
 18 10  1  0
 17 13  1  0
M  END
>  <identifier>  (1843) 
CNP0229863.0

>  <canonical_smiles>  (1843) 
O=C1C2=CC=CC=C2OC2=CC=C3OCOC3=C12

>  <standard_inchi>  (1843) 
InChI=1S/C14H8O4/c15-13-8-3-1-2-4-9(8)18-10-5-6-11-14(12(10)13)17-7-16-11/h1-6H,7H2

>  <standard_inchi_key>  (1843) 
FFZOJIXJAMHBEG-UHFFFAOYSA-N

>  <name>  (1843) 
1,2-Methylendioxyxanthon

>  <iupac_name>  (1843) 
[1,3]dioxolo[4,5-a]xanthen-11-one

>  <annotation_level>  (1843) 
5

>  <total_atom_count>  (1843) 
26

>  <heavy_atom_count>  (1843) 
18

>  <molecular_weight>  (1843) 
240.21

>  <exact_molecular_weight>  (1843) 
240.04226

>  <molecular_formula>  (1843) 
C14H8O4

>  <alogp>  (1843) 
2.67

>  <topological_polar_surface_area>  (1843) 
48.67

>  <rotatable_bond_count>  (1843) 
0

>  <hydrogen_bond_acceptors>  (1843) 
4

>  <hydrogen_bond_donors>  (1843) 
0

>  <hydrogen_bond_acceptors_lipinski>  (1843) 
4

>  <hydrogen_bond_donors_lipinski>  (1843) 
0

>  <lipinski_rule_of_five_violations>  (1843) 
0

>  <aromatic_rings_count>  (1843) 
3

>  <qed_drug_likeliness>  (1843) 
0.57

>  <formal_charge>  (1843) 
0

>  <fractioncsp3>  (1843) 
0.07

>  <number_of_minimal_rings>  (1843) 
4

>  <van_der_walls_volume>  (1843) 
nan

>  <contains_sugar>  (1843) 
False

>  <contains_ring_sugars>  (1843) 
False

>  <contains_linear_sugars>  (1843) 
False

>  <murcko_framework>  (1843) 
O1c2ccccc2Cc3c1ccc4OCOc43

>  <np_likeness>  (1843) 
0.85

>  <chemical_class>  (1843) 
Benzopyrans

>  <chemical_sub_class>  (1843) 
1-benzopyrans

>  <chemical_super_class>  (1843) 
Organoheterocyclic compounds

>  <direct_parent_classification>  (1843) 
Xanthones

>  <np_classifier_pathway>  (1843) 
Polyketides

>  <np_classifier_superclass>  (1843) 
Xanthones

>  <np_classifier_class>  (1843) 
nan

>  <np_classifier_is_glycoside>  (1843) 
False

>  <organisms>  (1843) 
Iphigenia indica|Kielmeyera excelsa|Mangifera odorata|Peliosanthes sinica

>  <collections>  (1843) 
Latin America dataset|NPASS|NuBBEDB|Super Natural II|UNPD (Universal Natural Products Database)|WikiData Natural Products|ZINC NP

>  <dois>  (1843) 
10.1016/S0031-9422(00)85161-4

>  <synonyms>  (1843) 
12-Methylenedioxyxanthone|27825-57-6|2H,11H-[1,3]DIOXOLO[4,5-A]XANTHEN-11-ONE|DTXSID00782910

>  <cas>  (1843) 
27825-57-6

$$$$

     RDKit          2D

 16 18  0  0  0  0  0  0  0  0999 V2000
    0.1378   -2.7346    0.0000 O   0  0  0  0  0  0  0  0  0  0  0  0
    0.2405   -1.2381    0.0000 C   0  0  0  0  0  0  0  0  0  0  0  0
    1.5879   -0.5788    0.0000 C   0  0  0  0  0  0  0  0  0  0  0  0
    2.8325   -1.4160    0.0000 C   0  0  0  0  0  0  0  0  0  0  0  0
    4.1799   -0.7568    0.0000 C   0  0  0  0  0  0  0  0  0  0  0  0
    4.2826    0.7397    0.0000 C   0  0  0  0  0  0  0  0  0  0  0  0
    3.0380    1.5769    0.0000 C   0  0  0  0  0  0  0  0  0  0  0  0
    1.6906    0.9176    0.0000 C   0  0  0  0  0  0  0  0  0  0  0  0
    0.4460    1.7548    0.0000 O   0  0  0  0  0  0  0  0  0  0  0  0
   -0.9014    1.0955    0.0000 C   0  0  0  0  0  0  0  0  0  0  0  0
   -2.1460    1.9327    0.0000 C   0  0  0  0  0  0  0  0  0  0  0  0
   -3.4934    1.2735    0.0000 C   0  0  0  0  0  0  0  0  0  0  0  0
   -3.5961   -0.2230    0.0000 C   0  0  0  0  0  0  0  0  0  0  0  0
   -4.9434   -0.8823    0.0000 O   0  0  0  0  0  0  0  0  0  0  0  0
   -2.3514   -1.0602    0.0000 C   0  0  0  0  0  0  0  0  0  0  0  0
   -1.0041   -0.4009    0.0000 C   0  0  0  0  0  0  0  0  0  0  0  0
  1  2  2  0
  2  3  1  0
  3  4  2  0
  4  5  1  0
  5  6  2  0
  6  7  1  0
  7  8  2  0
  8  9  1  0
  9 10  1  0
 10 11  2  0
 11 12  1  0
 12 13  2  0
 13 14  1  0
 13 15  1  0
 15 16  2  0
 16  2  1  0
  8  3  1  0
 16 10  1  0
M  END
>  <identifier>  (1844) 
CNP0260625.0

>  <canonical_smiles>  (1844) 
O=C1C2=CC=CC=C2OC2=CC=C(O)C=C12

>  <standard_inchi>  (1844) 
InChI=1S/C13H8O3/c14-8-5-6-12-10(7-8)13(15)9-3-1-2-4-11(9)16-12/h1-7,14H

>  <standard_inchi_key>  (1844) 
WSACHQJPCNOREV-UHFFFAOYSA-N

>  <name>  (1844) 
2-Hydroxyxanthone

>  <iupac_name>  (1844) 
2-hydroxyxanthen-9-one

>  <annotation_level>  (1844) 
5

>  <total_atom_count>  (1844) 
24

>  <heavy_atom_count>  (1844) 
16

>  <molecular_weight>  (1844) 
212.2

>  <exact_molecular_weight>  (1844) 
212.04734

>  <molecular_formula>  (1844) 
C13H8O3

>  <alogp>  (1844) 
2.65

>  <topological_polar_surface_area>  (1844) 
50.44

>  <rotatable_bond_count>  (1844) 
0

>  <hydrogen_bond_acceptors>  (1844) 
3

>  <hydrogen_bond_donors>  (1844) 
1

>  <hydrogen_bond_acceptors_lipinski>  (1844) 
3

>  <hydrogen_bond_donors_lipinski>  (1844) 
1

>  <lipinski_rule_of_five_violations>  (1844) 
0

>  <aromatic_rings_count>  (1844) 
3

>  <qed_drug_likeliness>  (1844) 
0.58

>  <formal_charge>  (1844) 
0

>  <fractioncsp3>  (1844) 
0.00

>  <number_of_minimal_rings>  (1844) 
3

>  <van_der_walls_volume>  (1844) 
177.86

>  <contains_sugar>  (1844) 
False

>  <contains_ring_sugars>  (1844) 
False

>  <contains_linear_sugars>  (1844) 
False

>  <murcko_framework>  (1844) 
O1c2ccccc2Cc3ccccc13

>  <np_likeness>  (1844) 
0.58

>  <chemical_class>  (1844) 
Benzopyrans

>  <chemical_sub_class>  (1844) 
1-benzopyrans

>  <chemical_super_class>  (1844) 
Organoheterocyclic compounds

>  <direct_parent_classification>  (1844) 
Xanthones

>  <np_classifier_pathway>  (1844) 
Shikimates and Phenylpropanoids

>  <np_classifier_superclass>  (1844) 
Xanthones

>  <np_classifier_class>  (1844) 
Plant xanthones

>  <np_classifier_is_glycoside>  (1844) 
False

>  <organisms>  (1844) 
Calophyllum Membranaceum|Calophyllum caledonicum|Calophyllum cordata-oblongum|Calophyllum cordato-oblongum|Calophyllum inophyllum|Calophyllum membranaceum|Calophyllum teysmannii|Calophyllum teysmannii Miq.var.inophylloide|Calophyllum trapezifolium|Garcinia kola|Hypericum canariense|Hypericum chinense|Hypericum ericoides|Hypericum inodorum|Hypericum japonicum|Hypericum mysorense|Hypericum mysurense|Hypericum roeperianum|Hypericum sampsonii|Hypericum spp.|Iphigenia indica|Kayea assamica|Kielmeyera excelsa|Kielmeyera rubriflora|Kielmeyera speciosa|Mammea acuminata|Mammea americana|Mammea americana L.|Mangifera odorata|Mesua assamica|Ochrocarpos odoratus|Peliosanthes sinica|Psorospermum molluscum|Vismia guianensis

>  <collections>  (1844) 
Australian natural products|FooDB|KNApSaCK|Latin America dataset|NPASS|NPEdia|NuBBEDB|Super Natural II|TCMDB-Taiwan (Traditional Chinese Medicine database)|UNPD (Universal Natural Products Database)|VietHerb|WikiData Natural Products|p-ANAPL

>  <dois>  (1844) 
10.1002/CHIN.198839309|10.1002/CHIN.200402240|10.1002/CHIN.200511237|10.1002/CHIN.200632228|10.1002/JPS.2600540431|10.1016/0031-9422(82)83122-1|10.1016/0031-9422(95)00908-6|10.1016/0031-9422(96)00284-1|10.1016/J.PHYTOCHEM.2004.08.014|10.1016/J.PHYTOCHEM.2006.05.043|10.1016/S0031-9422(00)00289-2|10.1016/S0031-9422(00)80095-3|10.1016/S0031-9422(00)85161-4|10.1016/S0031-9422(00)85774-X|10.1016/S0031-9422(00)97240-6|10.1016/S0031-9422(00)97372-2|10.1016/S0031-9422(03)00243-7|10.1016/S0031-9422(82)85053-X|10.1016/S0031-9422(99)00520-8|10.1021/NP000215M|10.1021/NP0502342|10.1021/NP070523L|10.1021/NP50020A004|10.1021/NP50039A018|10.1021/NP50043A010|10.1039/J39670002545|10.1039/P19720001896|10.1039/P19720002241|10.1039/P19720002255|10.1039/P19750002215|10.1055/S-2002-19867|10.1080/10519990802240387|10.1080/10575639908041215|10.1248/CPB.33.557|10.3987/COM-91-5909

>  <synonyms>  (1844) 
1915-98-6|2-Hydroxy-9H-xanthen-9-one|2-Hydroxyxanthone|2-METHOXYXANTHONE_met006|2-hydroxy-9H-9-xanthenone|2-hydroxyxanthen-9-one|9H-XANTHEN-9-ONE, 2-HYDROXY-|AKOS022650645|AM20030247|BDBM50155409|BRD-K12336887-001-02-3|BSPBio_002839|CCG-38792|CHEBI:108579|CHEMBL185960|CS-0148992|DTXSID60172676|HY-N8739|KBio2_000581|KBio2_003149|KBio2_005717|KBio3_002339|KBioGR_001991|KBioSS_000581|MFCD01313127|NCGC00178442-01|PD118985|Q27187504|SCHEMBL1675981|SDCCGMLS-0066534.P001|SPBio_001764|Spectrum2_001722|Spectrum3_001190|Spectrum4_001616|Spectrum5_000371|Spectrum_000121|Xanthen-9-one, 2-hydroxy-

>  <cas>  (1844) 
1915-98-6

$$$$

     RDKit          2D

 10  9  0  0  0  0  0  0  0  0999 V2000
   -5.8514   -0.2717    0.0000 C   0  0  0  0  0  0  0  0  0  0  0  0
   -4.5393    0.4553    0.0000 C   0  0  0  0  0  0  0  0  0  0  0  0
   -3.2537   -0.3176    0.0000 C   0  0  0  0  0  0  0  0  0  0  0  0
   -1.9416    0.4094    0.0000 S   0  0  0  0  0  0  0  0  0  0  0  0
   -0.6560   -0.3635    0.0000 S   0  0  0  0  0  0  0  0  0  0  0  0
    0.6560    0.3635    0.0000 S   0  0  0  0  0  0  0  0  0  0  0  0
    1.9416   -0.4094    0.0000 S   0  0  0  0  0  0  0  0  0  0  0  0
    3.2537    0.3176    0.0000 C   0  0  0  0  0  0  0  0  0  0  0  0
    4.5393   -0.4553    0.0000 C   0  0  0  0  0  0  0  0  0  0  0  0
    5.8514    0.2717    0.0000 C   0  0  0  0  0  0  0  0  0  0  0  0
  1  2  2  0
  2  3  1  0
  3  4  1  0
  4  5  1  0
  5  6  1  0
  6  7  1  0
  7  8  1  0
  8  9  1  0
  9 10  2  0
M  END
>  <identifier>  (1845) 
CNP0292840.0

>  <canonical_smiles>  (1845) 
C=CCSSSSCC=C

>  <standard_inchi>  (1845) 
InChI=1S/C6H10S4/c1-3-5-7-9-10-8-6-4-2/h3-4H,1-2,5-6H2

>  <standard_inchi_key>  (1845) 
RMKCQUWJDRTEHE-UHFFFAOYSA-N

>  <name>  (1845) 
Diallyl tetrasulfide

>  <iupac_name>  (1845) 
3-(allyltetrasulfanyl)prop-1-ene

>  <annotation_level>  (1845) 
5

>  <total_atom_count>  (1845) 
20

>  <heavy_atom_count>  (1845) 
10

>  <molecular_weight>  (1845) 
210.41

>  <exact_molecular_weight>  (1845) 
209.96653

>  <molecular_formula>  (1845) 
C6H10S4

>  <alogp>  (1845) 
4.04

>  <topological_polar_surface_area>  (1845) 
0.00

>  <rotatable_bond_count>  (1845) 
7

>  <hydrogen_bond_acceptors>  (1845) 
4

>  <hydrogen_bond_donors>  (1845) 
0

>  <hydrogen_bond_acceptors_lipinski>  (1845) 
4

>  <hydrogen_bond_donors_lipinski>  (1845) 
0

>  <lipinski_rule_of_five_violations>  (1845) 
0

>  <aromatic_rings_count>  (1845) 
0

>  <qed_drug_likeliness>  (1845) 
0.35

>  <formal_charge>  (1845) 
0

>  <fractioncsp3>  (1845) 
0.33

>  <number_of_minimal_rings>  (1845) 
0

>  <van_der_walls_volume>  (1845) 
177.18

>  <contains_sugar>  (1845) 
False

>  <contains_ring_sugars>  (1845) 
False

>  <contains_linear_sugars>  (1845) 
False

>  <murcko_framework>  (1845) 
nan

>  <np_likeness>  (1845) 
1.15

>  <chemical_class>  (1845) 
Allyl sulfur compounds

>  <chemical_sub_class>  (1845) 
Allyl sulfur compounds

>  <chemical_super_class>  (1845) 
Organosulfur compounds

>  <direct_parent_classification>  (1845) 
Allyl sulfur compounds

>  <np_classifier_pathway>  (1845) 
nan

>  <np_classifier_superclass>  (1845) 
nan

>  <np_classifier_class>  (1845) 
nan

>  <np_classifier_is_glycoside>  (1845) 
False

>  <organisms>  (1845) 
Adenocalymma alliaceum|Allium|Allium ericetorum|Allium odorum|Allium ramosum|Allium sativum|Allium sativum L.|Allium ursinum|Allium ursinum L.|Aniba megaphylla|Berberis integerrima|Carya illinoinensis|Elephantopus angustifolius|Herbertus sakuraii|Isoplexis sceptrum|Libocedrus decurrens|Loranthus parasiticus|Mansoa alliacea|Nauclea latifolia|Ovibos moschatus|Rhodospirillum rubrum|Zanthoxylum dissitum|garlic

>  <collections>  (1845) 
CMAUP (cCollective molecular activities of useful plants)|ETM (Ethiopian Traditional Medicine) DB|FooDB|Latin America dataset|NPASS|NPCARE|NuBBEDB|Super Natural II|TCMDB-Taiwan (Traditional Chinese Medicine database)|TCMID (Traditional Chinese Medicine Integrated Database)|TPPT (Toxic Plants–PhytoToxins)|UNPD (Universal Natural Products Database)|WikiData Natural Products|ZINC NP

>  <dois>  (1845) 
10.1002/biuz.19840140514|10.1002/mnfr.200700072|10.1007/S10495-009-0328-8|10.1007/S11101-013-9295-3|10.1016/j.bse.2003.10.001|10.1016/j.chroma.2005.12.016|10.1021/JF00125A014|10.1021/NP0503350|10.1021/jf00024a017|10.1021/jf00125a014|10.1021/jf0504768|10.1055/S-2006-961517|10.1099/0022-1317-50-7-646

>  <synonyms>  (1845) 
1,4-Diallyltetrasulfane #|2444-49-7|3-(allyltetrasulfanyl)prop-1-ene|3-(prop-2-enyltetrasulfanyl)prop-1-ene|4,5,6,7-Tetrathia-1,9-decadiene|AKOS040755018|Allyl tetrasulfide, 8CI|BIS(PROP-2-EN-1-YL)TETRASULFANE|CHEBI:177763|CHEMBL1947232|CS-0182809|DB-254396|DTXSID70179196|Di-2-propenyl tetrasulfide|Di-allyl-tetrasulfide|Diallyl tetrasulphide|Diallyltetrasulfane|EINECS 219-485-7|FEMA NO. 3533, TETRASULFIDE|HY-N9515|NS00047724|NSC750226|Q27292795|SCHEMBL389609|TETRASULFIDE, DIALLYL|Tetrasulfide, di-2-propenyl|UNII-WRP12IW1D7|WRP12IW1D7|allyl tetrasulfide

>  <cas>  (1845) 
2444-49-7

$$$$

     RDKit          2D

 40 41  0  0  0  0  0  0  0  0999 V2000
   -7.6593    1.8195    0.0000 C   0  0  0  0  0  0  0  0  0  0  0  0
   -7.4606    0.3327    0.0000 C   0  0  0  0  0  0  0  0  0  0  0  0
   -8.6488   -0.5828    0.0000 C   0  0  0  0  0  0  0  0  0  0  0  0
   -6.0736   -0.2385    0.0000 C   0  0  0  0  0  0  0  0  0  0  0  0
   -4.8854    0.6770    0.0000 C   0  0  0  0  0  0  0  0  0  0  0  0
   -3.4984    0.1057    0.0000 C   0  0  0  0  0  0  0  0  0  0  0  0
   -2.3102    1.0212    0.0000 C   0  0  0  0  0  0  0  0  0  0  0  0
   -0.9233    0.4500    0.0000 C   0  0  0  0  0  0  0  0  0  0  0  0
   -1.7267   -0.8167    0.0000 C   0  0  0  0  0  0  0  0  0  0  0  0
   -1.0314   -2.1458    0.0000 C   0  0  0  0  0  0  0  0  0  0  0  0
   -1.8348   -3.4125    0.0000 C   0  0  0  0  0  0  0  0  0  0  0  0
   -1.1396   -4.7417    0.0000 C   0  0  0  0  0  0  0  0  0  0  0  0
   -3.3335   -3.3501    0.0000 C   0  0  0  0  0  0  0  0  0  0  0  0
    0.1847   -0.5612    0.0000 C   0  0  0  0  0  0  0  0  0  0  0  0
   -0.1371   -2.0263    0.0000 O   0  0  0  0  0  0  0  0  0  0  0  0
    1.6143   -0.1073    0.0000 C   0  0  0  0  0  0  0  0  0  0  0  0
    2.7223   -1.1185    0.0000 C   0  0  0  0  0  0  0  0  0  0  0  0
    2.4005   -2.5836    0.0000 C   0  0  0  0  0  0  0  0  0  0  0  0
    3.5085   -3.5947    0.0000 C   0  0  0  0  0  0  0  0  0  0  0  0
    3.1867   -5.0598    0.0000 C   0  0  0  0  0  0  0  0  0  0  0  0
    4.1520   -0.6646    0.0000 C   0  0  0  0  0  0  0  0  0  0  0  0
    5.2599   -1.6757    0.0000 C   0  0  0  0  0  0  0  0  0  0  0  0
    4.9381   -3.1408    0.0000 O   0  0  0  0  0  0  0  0  0  0  0  0
    6.6896   -1.2218    0.0000 O   0  0  0  0  0  0  0  0  0  0  0  0
    7.7975   -2.2330    0.0000 C   0  0  0  0  0  0  0  0  0  0  0  0
    1.9361    1.3578    0.0000 C   0  0  0  0  0  0  0  0  0  0  0  0
    3.3658    1.8117    0.0000 O   0  0  0  0  0  0  0  0  0  0  0  0
    3.6875    3.2768    0.0000 C   0  0  0  0  0  0  0  0  0  0  0  0
    5.1172    3.7307    0.0000 C   0  0  0  0  0  0  0  0  0  0  0  0
    2.5796    4.2880    0.0000 C   0  0  0  0  0  0  0  0  0  0  0  0
    2.9013    5.7531    0.0000 C   0  0  0  0  0  0  0  0  0  0  0  0
    1.1499    3.8341    0.0000 C   0  0  0  0  0  0  0  0  0  0  0  0
    0.0420    4.8452    0.0000 O   0  0  0  0  0  0  0  0  0  0  0  0
    0.8282    2.3690    0.0000 C   0  0  0  0  0  0  0  0  0  0  0  0
   -0.6015    1.9151    0.0000 C   0  0  0  0  0  0  0  0  0  0  0  0
   -1.7095    2.9263    0.0000 O   0  0  0  0  0  0  0  0  0  0  0  0
   -1.3877    4.3913    0.0000 C   0  0  0  0  0  0  0  0  0  0  0  0
   -3.2997   -1.3810    0.0000 C   0  0  0  0  0  0  0  0  0  0  0  0
   -1.9127   -1.9523    0.0000 C   0  0  0  0  0  0  0  0  0  0  0  0
   -4.4879   -2.2966    0.0000 C   0  0  0  0  0  0  0  0  0  0  0  0
  1  2  2  0
  2  3  1  0
  2  4  1  0
  4  5  1  0
  5  6  1  0
  6  7  1  0
  7  8  1  0
  8  9  1  0
  9 10  1  0
 10 11  2  0
 11 12  1  0
 11 13  1  0
  8 14  1  0
 14 15  2  0
 14 16  1  0
 16 17  1  0
 17 18  1  0
 18 19  1  0
 19 20  1  0
 17 21  1  0
 21 22  1  0
 22 23  2  0
 22 24  1  0
 24 25  1  0
 16 26  2  0
 26 27  1  0
 27 28  1  0
 28 29  1  1
 28 30  1  0
 30 31  1  6
 30 32  1  0
 32 33  2  0
 32 34  1  0
 34 35  2  0
 35 36  1  0
 36 37  1  0
  6 38  1  0
 38 39  2  0
 38 40  1  0
 35  8  1  0
 34 26  1  0
M  END
>  <identifier>  (1846) 
CNP0308299.1

>  <canonical_smiles>  (1846) 
C=C(C)CCC(CC1(CC=C(C)C)C(=O)C(C(CCC)CC(=O)OC)=C2O[C@H](C)[C@@H](C)C(=O)C2=C1OC)C(=C)C

>  <standard_inchi>  (1846) 
InChI=1S/C34H50O6/c1-12-13-25(18-27(35)38-10)28-31-29(30(36)23(8)24(9)40-31)33(39-11)34(32(28)37,17-16-21(4)5)19-26(22(6)7)15-14-20(2)3/h16,23-26H,2,6,12-15,17-19H2,1,3-5,7-11H3/t23-,24-,25?,26?,34?/m1/s1

>  <standard_inchi_key>  (1846) 
XFDFEAMAXLJKIR-ORZQDWANSA-N

>  <name>  (1846) 
nan

>  <iupac_name>  (1846) 
methyl 3-[(2~{R},3~{R})-6-(2-isopropenyl-5-methyl-hex-5-enyl)-5-methoxy-2,3-dimethyl-6-(3-methylbut-2-enyl)-4,7-dioxo-2,3-dihydrochromen-8-yl]hexanoate

>  <annotation_level>  (1846) 
4

>  <total_atom_count>  (1846) 
90

>  <heavy_atom_count>  (1846) 
40

>  <molecular_weight>  (1846) 
554.77

>  <exact_molecular_weight>  (1846) 
554.36074

>  <molecular_formula>  (1846) 
C34H50O6

>  <alogp>  (1846) 
7.61

>  <topological_polar_surface_area>  (1846) 
78.90

>  <rotatable_bond_count>  (1846) 
14

>  <hydrogen_bond_acceptors>  (1846) 
6

>  <hydrogen_bond_donors>  (1846) 
0

>  <hydrogen_bond_acceptors_lipinski>  (1846) 
6

>  <hydrogen_bond_donors_lipinski>  (1846) 
0

>  <lipinski_rule_of_five_violations>  (1846) 
2

>  <aromatic_rings_count>  (1846) 
0

>  <qed_drug_likeliness>  (1846) 
0.16

>  <formal_charge>  (1846) 
0

>  <fractioncsp3>  (1846) 
0.62

>  <number_of_minimal_rings>  (1846) 
2

>  <van_der_walls_volume>  (1846) 
nan

>  <contains_sugar>  (1846) 
False

>  <contains_ring_sugars>  (1846) 
False

>  <contains_linear_sugars>  (1846) 
False

>  <murcko_framework>  (1846) 
O1C2=CCCC=C2CCC1

>  <np_likeness>  (1846) 
2.18

>  <chemical_class>  (1846) 
Fatty Acyls

>  <chemical_sub_class>  (1846) 
Fatty acid esters

>  <chemical_super_class>  (1846) 
Lipids and lipid-like molecules

>  <direct_parent_classification>  (1846) 
Fatty acid methyl esters

>  <np_classifier_pathway>  (1846) 
Polyketides

>  <np_classifier_superclass>  (1846) 
Meroterpenoids

>  <np_classifier_class>  (1846) 
Polyprenylated cyclic polyketides (Hop meroterpenoids)

>  <np_classifier_is_glycoside>  (1846) 
False

>  <organisms>  (1846) 
Calophyllum brasiliense

>  <collections>  (1846) 
Latin America dataset|NuBBEDB|WikiData Natural Products

>  <dois>  (1846) 
10.1080/14786410701582282

>  <synonyms>  (1846) 
6-O-methyl brasiliensic acid methyl ester

>  <cas>  (1846) 
nan

$$$$

     RDKit          2D

 17 18  0  0  0  0  0  0  0  0999 V2000
   -4.7690   -1.8417    0.0000 C   0  0  0  0  0  0  0  0  0  0  0  0
   -4.2753   -0.4253    0.0000 C   0  0  0  0  0  0  0  0  0  0  0  0
   -2.8018   -0.1447    0.0000 C   0  0  0  0  0  0  0  0  0  0  0  0
   -3.0825    1.3288    0.0000 C   0  0  0  0  0  0  0  0  0  0  0  0
   -2.5212   -1.6182    0.0000 C   0  0  0  0  0  0  0  0  0  0  0  0
   -1.3283    0.1360    0.0000 C   0  0  0  0  0  0  0  0  0  0  0  0
   -0.3485   -0.9998    0.0000 C   0  0  0  0  0  0  0  0  0  0  0  0
    1.1250   -0.7192    0.0000 C   0  0  0  0  0  0  0  0  0  0  0  0
    2.1048   -1.8550    0.0000 C   0  0  0  0  0  0  0  0  0  0  0  0
    3.5783   -1.5743    0.0000 C   0  0  0  0  0  0  0  0  0  0  0  0
    4.0720   -0.1579    0.0000 C   0  0  0  0  0  0  0  0  0  0  0  0
    5.5455    0.1227    0.0000 O   0  0  0  0  0  0  0  0  0  0  0  0
    3.0922    0.9779    0.0000 C   0  0  0  0  0  0  0  0  0  0  0  0
    1.6187    0.6972    0.0000 C   0  0  0  0  0  0  0  0  0  0  0  0
    0.6389    1.8330    0.0000 O   0  0  0  0  0  0  0  0  0  0  0  0
   -0.8346    1.5524    0.0000 C   0  0  0  0  0  0  0  0  0  0  0  0
   -1.8144    2.6882    0.0000 O   0  0  0  0  0  0  0  0  0  0  0  0
  1  2  2  0
  2  3  1  0
  3  4  1  0
  3  5  1  0
  3  6  1  0
  6  7  2  0
  7  8  1  0
  8  9  2  0
  9 10  1  0
 10 11  2  0
 11 12  1  0
 11 13  1  0
 13 14  2  0
 14 15  1  0
 15 16  1  0
 16 17  2  0
 16  6  1  0
 14  8  1  0
M  END
>  <identifier>  (1847) 
CNP0322887.0

>  <canonical_smiles>  (1847) 
C=CC(C)(C)C1=CC2=CC=C(O)C=C2OC1=O

>  <standard_inchi>  (1847) 
InChI=1S/C14H14O3/c1-4-14(2,3)11-7-9-5-6-10(15)8-12(9)17-13(11)16/h4-8,15H,1H2,2-3H3

>  <standard_inchi_key>  (1847) 
MZBAWTYBJIIUQC-UHFFFAOYSA-N

>  <name>  (1847) 
56881-08-4

>  <iupac_name>  (1847) 
3-(1,1-dimethylallyl)-7-hydroxy-chromen-2-one

>  <annotation_level>  (1847) 
5

>  <total_atom_count>  (1847) 
31

>  <heavy_atom_count>  (1847) 
17

>  <molecular_weight>  (1847) 
230.26

>  <exact_molecular_weight>  (1847) 
230.09429

>  <molecular_formula>  (1847) 
C14H14O3

>  <alogp>  (1847) 
2.96

>  <topological_polar_surface_area>  (1847) 
50.44

>  <rotatable_bond_count>  (1847) 
2

>  <hydrogen_bond_acceptors>  (1847) 
3

>  <hydrogen_bond_donors>  (1847) 
1

>  <hydrogen_bond_acceptors_lipinski>  (1847) 
3

>  <hydrogen_bond_donors_lipinski>  (1847) 
1

>  <lipinski_rule_of_five_violations>  (1847) 
0

>  <aromatic_rings_count>  (1847) 
2

>  <qed_drug_likeliness>  (1847) 
0.64

>  <formal_charge>  (1847) 
0

>  <fractioncsp3>  (1847) 
0.21

>  <number_of_minimal_rings>  (1847) 
2

>  <van_der_walls_volume>  (1847) 
nan

>  <contains_sugar>  (1847) 
False

>  <contains_ring_sugars>  (1847) 
False

>  <contains_linear_sugars>  (1847) 
False

>  <murcko_framework>  (1847) 
O1c2ccccc2C=CC1

>  <np_likeness>  (1847) 
1.65

>  <chemical_class>  (1847) 
Coumarins and derivatives

>  <chemical_sub_class>  (1847) 
Hydroxycoumarins

>  <chemical_super_class>  (1847) 
Phenylpropanoids and polyketides

>  <direct_parent_classification>  (1847) 
7-hydroxycoumarins

>  <np_classifier_pathway>  (1847) 
Shikimates and Phenylpropanoids

>  <np_classifier_superclass>  (1847) 
Coumarins

>  <np_classifier_class>  (1847) 
Simple coumarins

>  <np_classifier_is_glycoside>  (1847) 
False

>  <organisms>  (1847) 
Atalantia buxifolia|Clausena lansium|Dictamnus albus|Ruta angustifolia|Rutaceae

>  <collections>  (1847) 
Latin America dataset|NPASS|NuBBEDB|Super Natural II|UNPD (Universal Natural Products Database)|WikiData Natural Products|ZINC NP

>  <dois>  (1847) 
10.1016/0031-9422(95)00452-D|10.1016/S0031-9422(00)84991-2|10.1016/S0031-9422(98)00519-6|10.1021/acs.jnatprod.7b00938|10.1351/PAC200173030617|10.1351/pac200173030617

>  <synonyms>  (1847) 
3-(1,1-Dimethyl-2-propenyl)-7-hydroxy-2H-chromen-2-one #|7-Hydroxy-3-(1,1-dimethylprop-2-enyl)coumarin|7-hydroxy-3-(2-methylbut-3-en-2-yl)chromen-2-one|BDBM50404370|CHEBI:183588|CHEMBL71850|DB-264108|DTXSID20418603|MZBAWTYBJIIUQC-UHFFFAOYSA-N

>  <cas>  (1847) 
nan

$$$$

     RDKit          2D

 34 38  0  0  0  0  0  0  0  0999 V2000
    4.8870   -2.6450    0.0000 C   0  0  0  0  0  0  0  0  0  0  0  0
    3.7711   -1.6426    0.0000 C   0  0  0  0  0  0  0  0  0  0  0  0
    4.0812   -0.1750    0.0000 C   0  0  0  0  0  0  0  0  0  0  0  0
    3.0762    0.9385    0.0000 O   0  0  0  0  0  0  0  0  0  0  0  0
    3.8246    2.2384    0.0000 C   0  0  0  0  0  0  0  0  0  0  0  0
    2.4536    2.8469    0.0000 C   0  0  0  0  0  0  0  0  0  0  0  0
    4.2864    3.6656    0.0000 C   0  0  0  0  0  0  0  0  0  0  0  0
    5.2922    1.9283    0.0000 C   0  0  0  0  0  0  0  0  0  0  0  0
    6.4057    2.9334    0.0000 O   0  0  0  0  0  0  0  0  0  0  0  0
    5.4508    0.4367    0.0000 C   0  0  0  0  0  0  0  0  0  0  0  0
    6.7507   -0.3117    0.0000 O   0  0  0  0  0  0  0  0  0  0  0  0
    2.3450   -2.1078    0.0000 C   0  0  0  0  0  0  0  0  0  0  0  0
    1.8832   -3.5350    0.0000 C   0  0  0  0  0  0  0  0  0  0  0  0
    0.3832   -3.5368    0.0000 C   0  0  0  0  0  0  0  0  0  0  0  0
   -0.0820   -2.1107    0.0000 C   0  0  0  0  0  0  0  0  0  0  0  0
   -1.1955   -3.1158    0.0000 C   0  0  0  0  0  0  0  0  0  0  0  0
   -1.4531   -1.5023    0.0000 C   0  0  0  0  0  0  0  0  0  0  0  0
   -2.6655   -2.3854    0.0000 C   0  0  0  0  0  0  0  0  0  0  0  0
   -4.0366   -1.7769    0.0000 C   0  0  0  0  0  0  0  0  0  0  0  0
   -4.1951   -0.2853    0.0000 C   0  0  0  0  0  0  0  0  0  0  0  0
   -5.5662    0.3231    0.0000 C   0  0  0  0  0  0  0  0  0  0  0  0
   -7.0627    0.4260    0.0000 C   0  0  0  0  0  0  0  0  0  0  0  0
   -5.9273   -1.1327    0.0000 C   0  0  0  0  0  0  0  0  0  0  0  0
   -5.7248    1.8147    0.0000 C   0  0  0  0  0  0  0  0  0  0  0  0
   -7.0958    2.4232    0.0000 O   0  0  0  0  0  0  0  0  0  0  0  0
   -4.5123    2.6979    0.0000 C   0  0  0  0  0  0  0  0  0  0  0  0
   -3.1413    2.0894    0.0000 C   0  0  0  0  0  0  0  0  0  0  0  0
   -2.9827    0.5978    0.0000 C   0  0  0  0  0  0  0  0  0  0  0  0
   -1.7702    1.4809    0.0000 C   0  0  0  0  0  0  0  0  0  0  0  0
   -1.6116   -0.0107    0.0000 C   0  0  0  0  0  0  0  0  0  0  0  0
   -0.3992    0.8725    0.0000 C   0  0  0  0  0  0  0  0  0  0  0  0
    0.9719    0.2640    0.0000 C   0  0  0  0  0  0  0  0  0  0  0  0
    1.1305   -1.2276    0.0000 C   0  0  0  0  0  0  0  0  0  0  0  0
    2.4286   -0.4761    0.0000 C   0  0  0  0  0  0  0  0  0  0  0  0
  2  1  1  6
  2  3  1  0
  3  4  1  0
  4  5  1  0
  5  6  1  0
  5  7  1  0
  5  8  1  0
  8  9  1  6
  8 10  1  0
 10 11  1  1
  2 12  1  0
 12 13  1  6
 13 14  1  0
 14 15  1  0
 15 16  1  1
 15 17  1  0
 17 18  2  0
 18 19  1  0
 20 19  1  1
 20 21  1  0
 21 22  1  0
 21 23  1  0
 21 24  1  0
 24 25  1  6
 24 26  1  0
 26 27  1  0
 27 28  1  0
 28 29  1  1
 28 30  1  0
 30 31  1  1
 31 32  1  0
 32 33  1  0
 33 34  1  6
 10  3  1  0
 33 12  1  0
 33 15  1  0
 30 17  1  0
 28 20  1  0
M  END
>  <identifier>  (1848) 
CNP0119487.1

>  <canonical_smiles>  (1848) 
C[C@@H](C1OC(C)(C)[C@H](O)[C@H]1O)[C@@H]1CC[C@]2(C)C3=CC[C@H]4C(C)(C)[C@H](O)CC[C@]4(C)[C@H]3CC[C@@]12C

>  <standard_inchi>  (1848) 
InChI=1S/C30H50O4/c1-17(24-23(32)25(33)27(4,5)34-24)18-11-15-30(8)20-9-10-21-26(2,3)22(31)13-14-28(21,6)19(20)12-16-29(18,30)7/h9,17-19,21-25,31-33H,10-16H2,1-8H3/t17-,18+,19+,21+,22-,23+,24?,25-,28-,29+,30-/m1/s1

>  <standard_inchi_key>  (1848) 
YOUXXTAYUXXFPG-NBTVFRAUSA-N

>  <name>  (1848) 
nan

>  <iupac_name>  (1848) 
(3~{R},4~{R})-5-[(1~{R})-1-[(3~{R},5~{R},9~{R},10~{R},13~{S},14~{S},17~{S})-3-hydroxy-4,4,10,13,14-pentamethyl-2,3,5,6,9,11,12,15,16,17-decahydro-1~{H}-cyclopenta[a]phenanthren-17-yl]ethyl]-2,2-dimethyl-tetrahydrofuran-3,4-diol

>  <annotation_level>  (1848) 
4

>  <total_atom_count>  (1848) 
84

>  <heavy_atom_count>  (1848) 
34

>  <molecular_weight>  (1848) 
474.73

>  <exact_molecular_weight>  (1848) 
474.37091

>  <molecular_formula>  (1848) 
C30H50O4

>  <alogp>  (1848) 
5.49

>  <topological_polar_surface_area>  (1848) 
69.92

>  <rotatable_bond_count>  (1848) 
2

>  <hydrogen_bond_acceptors>  (1848) 
4

>  <hydrogen_bond_donors>  (1848) 
3

>  <hydrogen_bond_acceptors_lipinski>  (1848) 
4

>  <hydrogen_bond_donors_lipinski>  (1848) 
3

>  <lipinski_rule_of_five_violations>  (1848) 
1

>  <aromatic_rings_count>  (1848) 
0

>  <qed_drug_likeliness>  (1848) 
0.46

>  <formal_charge>  (1848) 
0

>  <fractioncsp3>  (1848) 
0.93

>  <number_of_minimal_rings>  (1848) 
5

>  <van_der_walls_volume>  (1848) 
nan

>  <contains_sugar>  (1848) 
False

>  <contains_ring_sugars>  (1848) 
False

>  <contains_linear_sugars>  (1848) 
False

>  <murcko_framework>  (1848) 
O1CCCC1CC2CCC3C4=CCC5CCCCC5C4CCC32

>  <np_likeness>  (1848) 
3.24

>  <chemical_class>  (1848) 
Steroids and steroid derivatives

>  <chemical_sub_class>  (1848) 
Hydroxysteroids

>  <chemical_super_class>  (1848) 
Lipids and lipid-like molecules

>  <direct_parent_classification>  (1848) 
3-hydroxysteroids

>  <np_classifier_pathway>  (1848) 
Terpenoids

>  <np_classifier_superclass>  (1848) 
Triterpenoids

>  <np_classifier_class>  (1848) 
Lanostane, Tirucallane and Euphane triterpenoids

>  <np_classifier_is_glycoside>  (1848) 
False

>  <organisms>  (1848) 
Cedrela odorata

>  <collections>  (1848) 
Latin America dataset|NuBBEDB|WikiData Natural Products

>  <dois>  (1848) 
10.2174/187152010794728620

>  <synonyms>  (1848) 
Odoratone

>  <cas>  (1848) 
nan

$$$$

     RDKit          2D

 38 43  0  0  0  0  0  0  0  0999 V2000
   -6.4305   -1.6192    0.0000 C   0  0  0  0  0  0  0  0  0  0  0  0
   -5.5370   -0.4143    0.0000 C   0  0  0  0  0  0  0  0  0  0  0  0
   -6.1338    0.9619    0.0000 O   0  0  0  0  0  0  0  0  0  0  0  0
   -4.0469   -0.5856    0.0000 O   0  0  0  0  0  0  0  0  0  0  0  0
   -3.1534    0.6193    0.0000 C   0  0  0  0  0  0  0  0  0  0  0  0
   -3.7502    1.9955    0.0000 C   0  0  0  0  0  0  0  0  0  0  0  0
   -2.8568    3.2004    0.0000 C   0  0  0  0  0  0  0  0  0  0  0  0
   -3.4536    4.5766    0.0000 O   0  0  0  0  0  0  0  0  0  0  0  0
   -1.3666    3.0292    0.0000 O   0  0  0  0  0  0  0  0  0  0  0  0
   -0.7699    1.6530    0.0000 C   0  0  0  0  0  0  0  0  0  0  0  0
   -1.6633    0.4481    0.0000 C   0  0  0  0  0  0  0  0  0  0  0  0
   -0.1731    0.2768    0.0000 C   0  0  0  0  0  0  0  0  0  0  0  0
    0.7203    1.4818    0.0000 C   0  0  0  0  0  0  0  0  0  0  0  0
    2.2105    1.3105    0.0000 C   0  0  0  0  0  0  0  0  0  0  0  0
    2.8073   -0.0657    0.0000 C   0  0  0  0  0  0  0  0  0  0  0  0
    3.7007    1.1393    0.0000 C   0  0  0  0  0  0  0  0  0  0  0  0
    4.2975   -0.2369    0.0000 C   0  0  0  0  0  0  0  0  0  0  0  0
    5.1909    0.9680    0.0000 C   0  0  0  0  0  0  0  0  0  0  0  0
    4.7413    2.3990    0.0000 C   0  0  0  0  0  0  0  0  0  0  0  0
    5.9633    3.2689    0.0000 O   0  0  0  0  0  0  0  0  0  0  0  0
    7.1682    2.3755    0.0000 C   0  0  0  0  0  0  0  0  0  0  0  0
    6.6908    0.9534    0.0000 C   0  0  0  0  0  0  0  0  0  0  0  0
    4.8943   -1.6131    0.0000 O   0  0  0  0  0  0  0  0  0  0  0  0
    4.0009   -2.8180    0.0000 C   0  0  0  0  0  0  0  0  0  0  0  0
    4.5977   -4.1942    0.0000 O   0  0  0  0  0  0  0  0  0  0  0  0
    2.5107   -2.6468    0.0000 C   0  0  0  0  0  0  0  0  0  0  0  0
    1.0205   -2.4755    0.0000 O   0  0  0  0  0  0  0  0  0  0  0  0
    1.9139   -1.2706    0.0000 C   0  0  0  0  0  0  0  0  0  0  0  0
    0.4237   -1.0993    0.0000 C   0  0  0  0  0  0  0  0  0  0  0  0
   -1.0665   -0.9281    0.0000 C   0  0  0  0  0  0  0  0  0  0  0  0
   -0.4697   -2.3042    0.0000 C   0  0  0  0  0  0  0  0  0  0  0  0
    0.1271   -3.6804    0.0000 O   0  0  0  0  0  0  0  0  0  0  0  0
   -1.9599   -2.1330    0.0000 C   0  0  0  0  0  0  0  0  0  0  0  0
   -2.5567   -0.7568    0.0000 C   0  0  0  0  0  0  0  0  0  0  0  0
   -4.0469   -0.5856    0.0000 C   0  0  0  0  0  0  0  0  0  0  0  0
   -3.8756    0.9046    0.0000 C   0  0  0  0  0  0  0  0  0  0  0  0
   -4.2181   -2.0758    0.0000 C   0  0  0  0  0  0  0  0  0  0  0  0
   -5.4513   -0.0588    0.0000 O   0  0  0  0  0  0  0  0  0  0  0  0
  1  2  1  0
  2  3  2  0
  2  4  1  0
  5  4  1  1
  5  6  1  0
  6  7  1  0
  7  8  2  0
  7  9  1  0
  9 10  1  0
 11 10  1  1
 11 12  1  0
 12 13  1  0
 13 14  1  0
 14 15  1  0
 15 16  1  6
 15 17  1  0
 17 18  1  6
 18 19  2  0
 19 20  1  0
 20 21  1  0
 21 22  2  0
 17 23  1  0
 23 24  1  0
 24 25  2  0
 24 26  1  0
 26 27  1  1
 28 27  1  1
 28 29  1  0
 29 30  1  1
 29 31  1  0
 31 32  1  6
 31 33  1  0
 33 34  1  0
 34 35  1  1
 35 36  1  0
 35 37  1  0
 35 38  1  0
 11  5  1  0
 29 12  1  0
 34 11  1  0
 28 15  1  0
 22 18  1  0
 28 26  1  0
M  END
>  <identifier>  (1849) 
CNP0080558.1

>  <canonical_smiles>  (1849) 
CC(=O)O[C@H]1CC(=O)OC[C@]12C1CC[C@@]3(C)[C@H](C4=COC=C4)OC(=O)[C@H]4O[C@]43[C@]1(C)[C@H](O)C[C@H]2C(C)(C)O

>  <standard_inchi>  (1849) 
InChI=1S/C28H36O10/c1-14(29)36-19-11-20(31)35-13-27(19)16-6-8-25(4)21(15-7-9-34-12-15)37-23(32)22-28(25,38-22)26(16,5)18(30)10-17(27)24(2,3)33/h7,9,12,16-19,21-22,30,33H,6,8,10-11,13H2,1-5H3/t16?,17-,18+,19-,21-,22+,25-,26-,27+,28+/m0/s1

>  <standard_inchi_key>  (1849) 
LVLWRZVQBWKGSH-NVAKPGBBSA-N

>  <name>  (1849) 
nan

>  <iupac_name>  (1849) 
[(1~{R},2~{S},3~{R},4'~{S},5~{R},6~{R},10~{S},11~{S},14~{S})-11-(3-furyl)-3-hydroxy-5-(1-hydroxy-1-methyl-ethyl)-2,10-dimethyl-2',13-dioxo-spiro[12,15-dioxatetracyclo[8.5.0.0^{1,14}.0^{2,7}]pentadecane-6,5'-tetrahydropyran]-4'-yl] acetate

>  <annotation_level>  (1849) 
4

>  <total_atom_count>  (1849) 
74

>  <heavy_atom_count>  (1849) 
38

>  <molecular_weight>  (1849) 
532.59

>  <exact_molecular_weight>  (1849) 
532.23085

>  <molecular_formula>  (1849) 
C28H36O10

>  <alogp>  (1849) 
2.45

>  <topological_polar_surface_area>  (1849) 
145.03

>  <rotatable_bond_count>  (1849) 
3

>  <hydrogen_bond_acceptors>  (1849) 
10

>  <hydrogen_bond_donors>  (1849) 
2

>  <hydrogen_bond_acceptors_lipinski>  (1849) 
10

>  <hydrogen_bond_donors_lipinski>  (1849) 
2

>  <lipinski_rule_of_five_violations>  (1849) 
1

>  <aromatic_rings_count>  (1849) 
1

>  <qed_drug_likeliness>  (1849) 
0.34

>  <formal_charge>  (1849) 
0

>  <fractioncsp3>  (1849) 
0.75

>  <number_of_minimal_rings>  (1849) 
6

>  <van_der_walls_volume>  (1849) 
nan

>  <contains_sugar>  (1849) 
False

>  <contains_ring_sugars>  (1849) 
False

>  <contains_linear_sugars>  (1849) 
False

>  <murcko_framework>  (1849) 
o1ccc(c1)C2OCC3OC34C2CCC5C4CCCC65COCCC6

>  <np_likeness>  (1849) 
3.24

>  <chemical_class>  (1849) 
Steroids and steroid derivatives

>  <chemical_sub_class>  (1849) 
Steroid lactones

>  <chemical_super_class>  (1849) 
Lipids and lipid-like molecules

>  <direct_parent_classification>  (1849) 
Steroid lactones

>  <np_classifier_pathway>  (1849) 
Terpenoids

>  <np_classifier_superclass>  (1849) 
Triterpenoids

>  <np_classifier_class>  (1849) 
Limonoids

>  <np_classifier_is_glycoside>  (1849) 
False

>  <organisms>  (1849) 
Hortia oreadica

>  <collections>  (1849) 
Latin America dataset|NuBBEDB|WikiData Natural Products

>  <dois>  (1849) 
10.3390/MOLECULES190812031|10.3390/molecules190812031

>  <synonyms>  (1849) 
1(S*)-acetoxy-7(R*)-hydroxy-7-deoxoinchangin

>  <cas>  (1849) 
nan

$$$$

     RDKit          2D

 26 29  0  0  0  0  0  0  0  0999 V2000
    3.8476    4.5652    0.0000 C   0  0  0  0  0  0  0  0  0  0  0  0
    3.8123    3.0656    0.0000 C   0  0  0  0  0  0  0  0  0  0  0  0
    2.4960    2.3464    0.0000 C   0  0  0  0  0  0  0  0  0  0  0  0
    2.4607    0.8468    0.0000 C   0  0  0  0  0  0  0  0  0  0  0  0
    3.7417    0.0664    0.0000 C   0  0  0  0  0  0  0  0  0  0  0  0
    3.7064   -1.4332    0.0000 C   0  0  0  0  0  0  0  0  0  0  0  0
    4.9875   -2.2135    0.0000 O   0  0  0  0  0  0  0  0  0  0  0  0
    2.3901   -2.1524    0.0000 C   0  0  0  0  0  0  0  0  0  0  0  0
    2.3548   -3.6520    0.0000 O   0  0  0  0  0  0  0  0  0  0  0  0
    1.1091   -1.3720    0.0000 C   0  0  0  0  0  0  0  0  0  0  0  0
   -0.2073   -2.0913    0.0000 O   0  0  0  0  0  0  0  0  0  0  0  0
   -0.2426   -3.5908    0.0000 C   0  0  0  0  0  0  0  0  0  0  0  0
    1.1444    0.1275    0.0000 C   0  0  0  0  0  0  0  0  0  0  0  0
   -0.1367    0.9079    0.0000 O   0  0  0  0  0  0  0  0  0  0  0  0
    0.2209   -0.0880    0.0000 C   0  0  0  0  0  0  0  0  0  0  0  0
   -1.2742   -0.2096    0.0000 C   0  0  0  0  0  0  0  0  0  0  0  0
   -1.9164   -1.5652    0.0000 C   0  0  0  0  0  0  0  0  0  0  0  0
   -3.4114   -1.6868    0.0000 C   0  0  0  0  0  0  0  0  0  0  0  0
   -4.2643   -0.4529    0.0000 C   0  0  0  0  0  0  0  0  0  0  0  0
   -5.7520   -0.2610    0.0000 O   0  0  0  0  0  0  0  0  0  0  0  0
   -6.0293    1.2131    0.0000 C   0  0  0  0  0  0  0  0  0  0  0  0
   -4.7129    1.9323    0.0000 O   0  0  0  0  0  0  0  0  0  0  0  0
   -3.6221    0.9027    0.0000 C   0  0  0  0  0  0  0  0  0  0  0  0
   -2.1271    1.0243    0.0000 C   0  0  0  0  0  0  0  0  0  0  0  0
    1.0012    1.1931    0.0000 C   0  0  0  0  0  0  0  0  0  0  0  0
    0.4235    2.5774    0.0000 C   0  0  0  0  0  0  0  0  0  0  0  0
  1  2  2  0
  2  3  1  0
  4  3  1  6
  4  5  1  0
  5  6  2  0
  6  7  1  0
  6  8  1  0
  8  9  2  0
  8 10  1  0
 10 11  1  6
 11 12  1  0
 10 13  1  0
 13 14  1  0
 10 15  1  0
 15 16  1  6
 16 17  2  0
 17 18  1  0
 18 19  2  0
 19 20  1  0
 20 21  1  0
 21 22  1  0
 22 23  1  0
 23 24  2  0
 15 25  1  0
 25 26  1  1
 13  4  1  0
 24 16  1  0
 25  4  1  0
 23 19  1  0
M  END
>  <identifier>  (1850) 
CNP0366058.2

>  <canonical_smiles>  (1850) 
C=CC[C@]12C=C(O)C(=O)[C@](OC)(C1O)[C@H](C1=CC=C3OCOC3=C1)[C@H]2C

>  <standard_inchi>  (1850) 
InChI=1S/C20H22O6/c1-4-7-19-9-13(21)17(22)20(24-3,18(19)23)16(11(19)2)12-5-6-14-15(8-12)26-10-25-14/h4-6,8-9,11,16,18,21,23H,1,7,10H2,2-3H3/t11-,16+,18?,19-,20+/m1/s1

>  <standard_inchi_key>  (1850) 
TXEDTYYHGZODBU-CAPWSWEQSA-N

>  <name>  (1850) 
nan

>  <iupac_name>  (1850) 
(1~{R},5~{S},6~{R},7~{S})-5-allyl-7-(1,3-benzodioxol-5-yl)-3,8-dihydroxy-1-methoxy-6-methyl-bicyclo[3.2.1]oct-3-en-2-one

>  <annotation_level>  (1850) 
4

>  <total_atom_count>  (1850) 
48

>  <heavy_atom_count>  (1850) 
26

>  <molecular_weight>  (1850) 
358.39

>  <exact_molecular_weight>  (1850) 
358.14164

>  <molecular_formula>  (1850) 
C20H22O6

>  <alogp>  (1850) 
2.48

>  <topological_polar_surface_area>  (1850) 
85.22

>  <rotatable_bond_count>  (1850) 
4

>  <hydrogen_bond_acceptors>  (1850) 
6

>  <hydrogen_bond_donors>  (1850) 
2

>  <hydrogen_bond_acceptors_lipinski>  (1850) 
6

>  <hydrogen_bond_donors_lipinski>  (1850) 
2

>  <lipinski_rule_of_five_violations>  (1850) 
0

>  <aromatic_rings_count>  (1850) 
1

>  <qed_drug_likeliness>  (1850) 
0.80

>  <formal_charge>  (1850) 
0

>  <fractioncsp3>  (1850) 
0.45

>  <number_of_minimal_rings>  (1850) 
4

>  <van_der_walls_volume>  (1850) 
nan

>  <contains_sugar>  (1850) 
False

>  <contains_ring_sugars>  (1850) 
False

>  <contains_linear_sugars>  (1850) 
False

>  <murcko_framework>  (1850) 
O1c2ccc(cc2OC1)C3CC4C=CCC3C4

>  <np_likeness>  (1850) 
2.21

>  <chemical_class>  (1850) 
Benzodioxoles

>  <chemical_sub_class>  (1850) 
Benzodioxoles

>  <chemical_super_class>  (1850) 
Organoheterocyclic compounds

>  <direct_parent_classification>  (1850) 
Benzodioxoles

>  <np_classifier_pathway>  (1850) 
Shikimates and Phenylpropanoids

>  <np_classifier_superclass>  (1850) 
Lignans

>  <np_classifier_class>  (1850) 
Neolignans

>  <np_classifier_is_glycoside>  (1850) 
False

>  <organisms>  (1850) 
Ocotea catharinensis

>  <collections>  (1850) 
Latin America dataset|NuBBEDB|WikiData Natural Products

>  <dois>  (1850) 
10.1016/0031-9422(91)83479-5

>  <synonyms>  (1850) 
(7S8R1'S5'R6S')-D-3'6'-Dihydroxy-5'-methoxy-34-methylenedioxy-4'-oxo-8.1'7.5'-neolignan

>  <cas>  (1850) 
nan

$$$$

     RDKit          2D

 25 27  0  0  0  0  0  0  0  0999 V2000
   -5.6054    0.9121    0.0000 C   0  0  0  0  0  0  0  0  0  0  0  0
   -5.0840   -0.4944    0.0000 C   0  0  0  0  0  0  0  0  0  0  0  0
   -3.6053   -0.7462    0.0000 C   0  0  0  0  0  0  0  0  0  0  0  0
   -4.1100   -2.1587    0.0000 C   0  0  0  0  0  0  0  0  0  0  0  0
   -3.6142    0.7538    0.0000 C   0  0  0  0  0  0  0  0  0  0  0  0
   -2.3196    1.5115    0.0000 C   0  0  0  0  0  0  0  0  0  0  0  0
   -1.0161    0.7691    0.0000 C   0  0  0  0  0  0  0  0  0  0  0  0
   -1.0073   -0.7308    0.0000 C   0  0  0  0  0  0  0  0  0  0  0  0
   -0.9984   -2.2308    0.0000 C   0  0  0  0  0  0  0  0  0  0  0  0
    0.2962   -1.4732    0.0000 C   0  0  0  0  0  0  0  0  0  0  0  0
    1.5907   -0.7155    0.0000 C   0  0  0  0  0  0  0  0  0  0  0  0
    2.8942   -1.4578    0.0000 O   0  0  0  0  0  0  0  0  0  0  0  0
    2.9030   -2.9578    0.0000 C   0  0  0  0  0  0  0  0  0  0  0  0
    4.2065   -3.7001    0.0000 C   0  0  0  0  0  0  0  0  0  0  0  0
    1.6085   -3.7154    0.0000 O   0  0  0  0  0  0  0  0  0  0  0  0
    1.5819    0.7845    0.0000 C   0  0  0  0  0  0  0  0  0  0  0  0
    2.8765    1.5421    0.0000 C   0  0  0  0  0  0  0  0  0  0  0  0
    4.3521    1.8113    0.0000 C   0  0  0  0  0  0  0  0  0  0  0  0
    3.3978    0.1356    0.0000 C   0  0  0  0  0  0  0  0  0  0  0  0
    2.8676    3.0421    0.0000 C   0  0  0  0  0  0  0  0  0  0  0  0
    1.5642    3.7844    0.0000 C   0  0  0  0  0  0  0  0  0  0  0  0
    0.2696    3.0268    0.0000 C   0  0  0  0  0  0  0  0  0  0  0  0
    0.2784    1.5268    0.0000 C   0  0  0  0  0  0  0  0  0  0  0  0
   -1.0250    2.2691    0.0000 C   0  0  0  0  0  0  0  0  0  0  0  0
   -2.3019   -1.4885    0.0000 O   0  0  0  0  0  0  0  0  0  0  0  0
  1  2  2  0
  2  3  1  0
  3  4  1  6
  3  5  1  0
  5  6  1  0
  6  7  1  0
  7  8  1  0
  8  9  1  6
  8 10  1  0
 10 11  1  0
 11 12  1  1
 12 13  1  0
 13 14  1  0
 13 15  2  0
 11 16  1  0
 16 17  1  6
 17 18  1  0
 17 19  1  0
 17 20  1  0
 20 21  1  0
 21 22  1  0
 22 23  1  0
 23 24  1  6
  8 25  1  0
 25  3  1  0
 23  7  1  0
 23 16  1  0
M  END
>  <identifier>  (1851) 
CNP0226108.2

>  <canonical_smiles>  (1851) 
C=C[C@@]1(C)CCC2[C@@](C)(C[C@H](OC(C)=O)[C@H]3C(C)(C)CCC[C@]23C)O1

>  <standard_inchi>  (1851) 
InChI=1S/C22H36O3/c1-8-20(5)13-10-17-21(6)12-9-11-19(3,4)18(21)16(24-15(2)23)14-22(17,7)25-20/h8,16-18H,1,9-14H2,2-7H3/t16-,17?,18-,20-,21+,22+/m0/s1

>  <standard_inchi_key>  (1851) 
BUUWAVBPGOHICZ-BNXSCYGZSA-N

>  <name>  (1851) 
nan

>  <iupac_name>  (1851) 
[(3~{R},4~{a}~{R},6~{S},6~{a}~{S},10~{a}~{S})-3,4~{a},7,7,10~{a}-pentamethyl-3-vinyl-2,5,6,6~{a},8,9,10,10~{b}-octahydro-1~{H}-benzo[f]chromen-6-yl] acetate

>  <annotation_level>  (1851) 
4

>  <total_atom_count>  (1851) 
61

>  <heavy_atom_count>  (1851) 
25

>  <molecular_weight>  (1851) 
348.53

>  <exact_molecular_weight>  (1851) 
348.26645

>  <molecular_formula>  (1851) 
C22H36O3

>  <alogp>  (1851) 
5.28

>  <topological_polar_surface_area>  (1851) 
35.53

>  <rotatable_bond_count>  (1851) 
2

>  <hydrogen_bond_acceptors>  (1851) 
3

>  <hydrogen_bond_donors>  (1851) 
0

>  <hydrogen_bond_acceptors_lipinski>  (1851) 
3

>  <hydrogen_bond_donors_lipinski>  (1851) 
0

>  <lipinski_rule_of_five_violations>  (1851) 
1

>  <aromatic_rings_count>  (1851) 
0

>  <qed_drug_likeliness>  (1851) 
0.50

>  <formal_charge>  (1851) 
0

>  <fractioncsp3>  (1851) 
0.86

>  <number_of_minimal_rings>  (1851) 
3

>  <van_der_walls_volume>  (1851) 
nan

>  <contains_sugar>  (1851) 
False

>  <contains_ring_sugars>  (1851) 
False

>  <contains_linear_sugars>  (1851) 
False

>  <murcko_framework>  (1851) 
O1CCCC2C1CCC3CCCCC32

>  <np_likeness>  (1851) 
3.40

>  <chemical_class>  (1851) 
Prenol lipids

>  <chemical_sub_class>  (1851) 
Triterpenoids

>  <chemical_super_class>  (1851) 
Lipids and lipid-like molecules

>  <direct_parent_classification>  (1851) 
Triterpenoids

>  <np_classifier_pathway>  (1851) 
Terpenoids

>  <np_classifier_superclass>  (1851) 
Diterpenoids

>  <np_classifier_class>  (1851) 
Labdane diterpenoids

>  <np_classifier_is_glycoside>  (1851) 
False

>  <organisms>  (1851) 
Stemodia foliosa

>  <collections>  (1851) 
Latin America dataset|NuBBEDB

>  <dois>  (1851) 
10.1021/np800106x

>  <synonyms>  (1851) 
6\u221a\u00e9\u00ac\u00b1-acetoxymanoyl oxide

>  <cas>  (1851) 
nan

$$$$

     RDKit          2D

 29 31  0  0  0  0  0  0  0  0999 V2000
   -7.7819    2.1613    0.0000 C   0  0  0  0  0  0  0  0  0  0  0  0
   -7.1244    0.8130    0.0000 O   0  0  0  0  0  0  0  0  0  0  0  0
   -5.6281    0.7083    0.0000 C   0  0  0  0  0  0  0  0  0  0  0  0
   -4.7892    1.9518    0.0000 C   0  0  0  0  0  0  0  0  0  0  0  0
   -3.2929    1.8470    0.0000 C   0  0  0  0  0  0  0  0  0  0  0  0
   -2.6354    0.4988    0.0000 C   0  0  0  0  0  0  0  0  0  0  0  0
   -1.1391    0.3941    0.0000 C   0  0  0  0  0  0  0  0  0  0  0  0
   -0.4816   -0.9542    0.0000 C   0  0  0  0  0  0  0  0  0  0  0  0
    1.0147   -1.0589    0.0000 O   0  0  0  0  0  0  0  0  0  0  0  0
    1.8536    0.1846    0.0000 C   0  0  0  0  0  0  0  0  0  0  0  0
    3.3500    0.0798    0.0000 C   0  0  0  0  0  0  0  0  0  0  0  0
    4.1888    1.3233    0.0000 C   0  0  0  0  0  0  0  0  0  0  0  0
    5.6852    1.2186    0.0000 O   0  0  0  0  0  0  0  0  0  0  0  0
    6.3426   -0.1297    0.0000 C   0  0  0  0  0  0  0  0  0  0  0  0
    7.8390   -0.2344    0.0000 C   0  0  0  0  0  0  0  0  0  0  0  0
    8.4964   -1.5826    0.0000 C   0  0  0  0  0  0  0  0  0  0  0  0
    9.9928   -1.6874    0.0000 C   0  0  0  0  0  0  0  0  0  0  0  0
    7.6576   -2.8261    0.0000 C   0  0  0  0  0  0  0  0  0  0  0  0
    3.5314    2.6716    0.0000 C   0  0  0  0  0  0  0  0  0  0  0  0
    2.0350    2.7763    0.0000 C   0  0  0  0  0  0  0  0  0  0  0  0
    1.1962    1.5328    0.0000 C   0  0  0  0  0  0  0  0  0  0  0  0
   -0.3002    1.6376    0.0000 C   0  0  0  0  0  0  0  0  0  0  0  0
   -0.9576    2.9858    0.0000 O   0  0  0  0  0  0  0  0  0  0  0  0
   -3.4743   -0.7447    0.0000 C   0  0  0  0  0  0  0  0  0  0  0  0
   -4.9706   -0.6399    0.0000 C   0  0  0  0  0  0  0  0  0  0  0  0
   -5.8095   -1.8834    0.0000 O   0  0  0  0  0  0  0  0  0  0  0  0
   -5.1520   -3.2317    0.0000 C   0  0  0  0  0  0  0  0  0  0  0  0
   -5.9909   -4.4752    0.0000 C   0  0  0  0  0  0  0  0  0  0  0  0
   -3.6557   -3.3364    0.0000 O   0  0  0  0  0  0  0  0  0  0  0  0
  1  2  1  0
  2  3  1  0
  3  4  2  0
  4  5  1  0
  5  6  2  0
  6  7  1  0
  7  8  2  0
  8  9  1  0
  9 10  1  0
 10 11  2  0
 11 12  1  0
 12 13  1  0
 13 14  1  0
 14 15  1  0
 15 16  2  0
 16 17  1  0
 16 18  1  0
 12 19  2  0
 19 20  1  0
 20 21  2  0
 21 22  1  0
 22 23  2  0
  6 24  1  0
 24 25  2  0
 25 26  1  0
 26 27  1  0
 27 28  1  0
 27 29  2  0
 25  3  1  0
 22  7  1  0
 21 10  1  0
M  END
>  <identifier>  (1852) 
CNP0080479.0

>  <canonical_smiles>  (1852) 
COC1=CC=C(C2=COC3=CC(OCC=C(C)C)=CC=C3C2=O)C=C1OC(C)=O

>  <standard_inchi>  (1852) 
InChI=1S/C23H22O6/c1-14(2)9-10-27-17-6-7-18-21(12-17)28-13-19(23(18)25)16-5-8-20(26-4)22(11-16)29-15(3)24/h5-9,11-13H,10H2,1-4H3

>  <standard_inchi_key>  (1852) 
QLKYJUBBIKGKSJ-UHFFFAOYSA-N

>  <name>  (1852) 
nan

>  <iupac_name>  (1852) 
[2-methoxy-5-[7-(3-methylbut-2-enoxy)-4-oxo-chromen-3-yl]phenyl] acetate

>  <annotation_level>  (1852) 
4

>  <total_atom_count>  (1852) 
51

>  <heavy_atom_count>  (1852) 
29

>  <molecular_weight>  (1852) 
394.42

>  <exact_molecular_weight>  (1852) 
394.14164

>  <molecular_formula>  (1852) 
C23H22O6

>  <alogp>  (1852) 
4.74

>  <topological_polar_surface_area>  (1852) 
74.97

>  <rotatable_bond_count>  (1852) 
6

>  <hydrogen_bond_acceptors>  (1852) 
6

>  <hydrogen_bond_donors>  (1852) 
0

>  <hydrogen_bond_acceptors_lipinski>  (1852) 
6

>  <hydrogen_bond_donors_lipinski>  (1852) 
0

>  <lipinski_rule_of_five_violations>  (1852) 
0

>  <aromatic_rings_count>  (1852) 
3

>  <qed_drug_likeliness>  (1852) 
0.34

>  <formal_charge>  (1852) 
0

>  <fractioncsp3>  (1852) 
0.22

>  <number_of_minimal_rings>  (1852) 
3

>  <van_der_walls_volume>  (1852) 
nan

>  <contains_sugar>  (1852) 
False

>  <contains_ring_sugars>  (1852) 
False

>  <contains_linear_sugars>  (1852) 
False

>  <murcko_framework>  (1852) 
O1C=C(c2ccccc2)Cc3ccccc13

>  <np_likeness>  (1852) 
0.79

>  <chemical_class>  (1852) 
Isoflavonoids

>  <chemical_sub_class>  (1852) 
Isoflav-2-enes

>  <chemical_super_class>  (1852) 
Phenylpropanoids and polyketides

>  <direct_parent_classification>  (1852) 
Isoflavones

>  <np_classifier_pathway>  (1852) 
Shikimates and Phenylpropanoids

>  <np_classifier_superclass>  (1852) 
Isoflavonoids

>  <np_classifier_class>  (1852) 
Isoflavones

>  <np_classifier_is_glycoside>  (1852) 
False

>  <organisms>  (1852) 
Calopogonium mucunoides

>  <collections>  (1852) 
Latin America dataset|NuBBEDB|WikiData Natural Products|ZINC NP

>  <dois>  (1852) 
10.1016/S0031-9422(00)95305-6

>  <synonyms>  (1852) 
7-O-\u221a\u00e9\u00ac\u2265\u221a\u00e9\u00ac\u2265-dimethylallyl-3'-acetate-4'-methoxyisoflavone

>  <cas>  (1852) 
nan

$$$$

     RDKit          2D

 25 26  0  0  0  0  0  0  0  0999 V2000
    1.9120   -4.1683    0.0000 C   0  0  0  0  0  0  0  0  0  0  0  0
    1.8601   -2.6692    0.0000 O   0  0  0  0  0  0  0  0  0  0  0  0
    0.5359   -1.9646    0.0000 C   0  0  0  0  0  0  0  0  0  0  0  0
   -0.7364   -2.7591    0.0000 C   0  0  0  0  0  0  0  0  0  0  0  0
   -2.0606   -2.0544    0.0000 C   0  0  0  0  0  0  0  0  0  0  0  0
   -2.1125   -0.5553    0.0000 C   0  0  0  0  0  0  0  0  0  0  0  0
   -3.4367    0.1493    0.0000 C   0  0  0  0  0  0  0  0  0  0  0  0
   -4.7090   -0.6452    0.0000 C   0  0  0  0  0  0  0  0  0  0  0  0
   -6.0332    0.0594    0.0000 C   0  0  0  0  0  0  0  0  0  0  0  0
   -6.0851    1.5585    0.0000 O   0  0  0  0  0  0  0  0  0  0  0  0
   -7.3055   -0.7351    0.0000 O   0  0  0  0  0  0  0  0  0  0  0  0
   -0.8402    0.2392    0.0000 C   0  0  0  0  0  0  0  0  0  0  0  0
    0.4840   -0.4655    0.0000 C   0  0  0  0  0  0  0  0  0  0  0  0
    1.7564    0.3290    0.0000 C   0  0  0  0  0  0  0  0  0  0  0  0
    3.0806   -0.3756    0.0000 C   0  0  0  0  0  0  0  0  0  0  0  0
    3.1325   -1.8747    0.0000 O   0  0  0  0  0  0  0  0  0  0  0  0
    4.3529    0.4189    0.0000 C   0  0  0  0  0  0  0  0  0  0  0  0
    3.5584    1.6912    0.0000 C   0  0  0  0  0  0  0  0  0  0  0  0
    5.1474   -0.8534    0.0000 C   0  0  0  0  0  0  0  0  0  0  0  0
    5.6252    1.2134    0.0000 O   0  0  0  0  0  0  0  0  0  0  0  0
    1.7045    1.8281    0.0000 O   0  0  0  0  0  0  0  0  0  0  0  0
    0.3803    2.5327    0.0000 C   0  0  0  0  0  0  0  0  0  0  0  0
   -0.6231    3.6478    0.0000 C   0  0  0  0  0  0  0  0  0  0  0  0
    1.3041    3.7145    0.0000 C   0  0  0  0  0  0  0  0  0  0  0  0
   -0.8920    1.7383    0.0000 O   0  0  0  0  0  0  0  0  0  0  0  0
  1  2  1  0
  2  3  1  0
  3  4  2  0
  4  5  1  0
  5  6  2  0
  6  7  1  0
  7  8  1  0
  8  9  1  0
  9 10  2  0
  9 11  1  0
  6 12  1  0
 12 13  2  0
 13 14  1  0
 14 15  1  0
 15 16  1  1
 15 17  1  0
 17 18  1  0
 17 19  1  0
 17 20  1  0
 14 21  1  6
 21 22  1  0
 22 23  1  0
 22 24  1  0
 22 25  1  0
 13  3  1  0
 25 12  1  0
M  END
>  <identifier>  (1853) 
CNP0271231.1

>  <canonical_smiles>  (1853) 
COC1=CC=C(CCC(=O)O)C2=C1[C@@H]([C@H](O)C(C)(C)O)OC(C)(C)O2

>  <standard_inchi>  (1853) 
InChI=1S/C18H26O7/c1-17(2,22)16(21)15-13-11(23-5)8-6-10(7-9-12(19)20)14(13)24-18(3,4)25-15/h6,8,15-16,21-22H,7,9H2,1-5H3,(H,19,20)/t15-,16-/m0/s1

>  <standard_inchi_key>  (1853) 
APMMATLSOWXISW-HOTGVXAUSA-N

>  <name>  (1853) 
nan

>  <iupac_name>  (1853) 
3-[(4~{S})-4-[(1~{S})-1,2-dihydroxy-2-methyl-propyl]-5-methoxy-2,2-dimethyl-4~{H}-1,3-benzodioxin-8-yl]propanoic acid

>  <annotation_level>  (1853) 
4

>  <total_atom_count>  (1853) 
51

>  <heavy_atom_count>  (1853) 
25

>  <molecular_weight>  (1853) 
354.4

>  <exact_molecular_weight>  (1853) 
354.16785

>  <molecular_formula>  (1853) 
C18H26O7

>  <alogp>  (1853) 
2.03

>  <topological_polar_surface_area>  (1853) 
105.45

>  <rotatable_bond_count>  (1853) 
6

>  <hydrogen_bond_acceptors>  (1853) 
6

>  <hydrogen_bond_donors>  (1853) 
3

>  <hydrogen_bond_acceptors_lipinski>  (1853) 
6

>  <hydrogen_bond_donors_lipinski>  (1853) 
3

>  <lipinski_rule_of_five_violations>  (1853) 
0

>  <aromatic_rings_count>  (1853) 
1

>  <qed_drug_likeliness>  (1853) 
0.72

>  <formal_charge>  (1853) 
0

>  <fractioncsp3>  (1853) 
0.61

>  <number_of_minimal_rings>  (1853) 
2

>  <van_der_walls_volume>  (1853) 
nan

>  <contains_sugar>  (1853) 
False

>  <contains_ring_sugars>  (1853) 
False

>  <contains_linear_sugars>  (1853) 
False

>  <murcko_framework>  (1853) 
O1c2ccccc2COC1

>  <np_likeness>  (1853) 
1.23

>  <chemical_class>  (1853) 
Benzodioxanes

>  <chemical_sub_class>  (1853) 
Benzo-1,3-dioxanes

>  <chemical_super_class>  (1853) 
Organoheterocyclic compounds

>  <direct_parent_classification>  (1853) 
Benzo-1,3-dioxanes

>  <np_classifier_pathway>  (1853) 
Polyketides

>  <np_classifier_superclass>  (1853) 
nan

>  <np_classifier_class>  (1853) 
nan

>  <np_classifier_is_glycoside>  (1853) 
False

>  <organisms>  (1853) 
Hortia brasiliana

>  <collections>  (1853) 
Latin America dataset|NuBBEDB|WikiData Natural Products|ZINC NP

>  <dois>  (1853) 
10.1016/J.BSE.2012.03.005|10.1016/j.bse.2012.03.005

>  <synonyms>  (1853) 
Erythro-5-methoxy-22-dimethyl-4-(12-dihydroxy-2-methylpropyl)-4H-13-benzodioxin-8-propanoic acid

>  <cas>  (1853) 
nan

$$$$

     RDKit          2D

 14 14  0  0  0  0  0  0  0  0999 V2000
   -4.0827   -0.7500    0.0000 C   0  0  0  0  0  0  0  0  0  0  0  0
   -2.7837    0.0000    0.0000 C   0  0  0  0  0  0  0  0  0  0  0  0
   -2.7837    1.5000    0.0000 O   0  0  0  0  0  0  0  0  0  0  0  0
   -1.4846   -0.7500    0.0000 O   0  0  0  0  0  0  0  0  0  0  0  0
   -0.1856    0.0000    0.0000 C   0  0  0  0  0  0  0  0  0  0  0  0
   -0.1856    1.5000    0.0000 C   0  0  0  0  0  0  0  0  0  0  0  0
    1.1135    2.2500    0.0000 C   0  0  0  0  0  0  0  0  0  0  0  0
    1.1135    3.7500    0.0000 C   0  0  0  0  0  0  0  0  0  0  0  0
    2.4125    1.5000    0.0000 C   0  0  0  0  0  0  0  0  0  0  0  0
    2.4125   -0.0000    0.0000 C   0  0  0  0  0  0  0  0  0  0  0  0
    1.1135   -0.7500    0.0000 C   0  0  0  0  0  0  0  0  0  0  0  0
    1.1135   -2.2500    0.0000 C   0  0  0  0  0  0  0  0  0  0  0  0
   -0.1856   -3.0000    0.0000 C   0  0  0  0  0  0  0  0  0  0  0  0
    2.4125   -3.0000    0.0000 C   0  0  0  0  0  0  0  0  0  0  0  0
  1  2  1  0
  2  3  2  0
  2  4  1  0
  4  5  1  0
  5  6  2  0
  6  7  1  0
  7  8  1  0
  7  9  2  0
  9 10  1  0
 10 11  2  0
 11 12  1  0
 12 13  1  0
 12 14  1  0
 11  5  1  0
M  END
>  <identifier>  (1854) 
CNP0236593.0

>  <canonical_smiles>  (1854) 
CC(=O)OC1=CC(C)=CC=C1C(C)C

>  <standard_inchi>  (1854) 
InChI=1S/C12H16O2/c1-8(2)11-6-5-9(3)7-12(11)14-10(4)13/h5-8H,1-4H3

>  <standard_inchi_key>  (1854) 
WFMIUXMJJBBOGJ-UHFFFAOYSA-N

>  <name>  (1854) 
Thymol acetate

>  <iupac_name>  (1854) 
(2-isopropyl-5-methyl-phenyl) acetate

>  <annotation_level>  (1854) 
5

>  <total_atom_count>  (1854) 
30

>  <heavy_atom_count>  (1854) 
14

>  <molecular_weight>  (1854) 
192.26

>  <exact_molecular_weight>  (1854) 
192.11503

>  <molecular_formula>  (1854) 
C12H16O2

>  <alogp>  (1854) 
3.04

>  <topological_polar_surface_area>  (1854) 
26.30

>  <rotatable_bond_count>  (1854) 
2

>  <hydrogen_bond_acceptors>  (1854) 
2

>  <hydrogen_bond_donors>  (1854) 
0

>  <hydrogen_bond_acceptors_lipinski>  (1854) 
2

>  <hydrogen_bond_donors_lipinski>  (1854) 
0

>  <lipinski_rule_of_five_violations>  (1854) 
0

>  <aromatic_rings_count>  (1854) 
1

>  <qed_drug_likeliness>  (1854) 
0.53

>  <formal_charge>  (1854) 
0

>  <fractioncsp3>  (1854) 
0.42

>  <number_of_minimal_rings>  (1854) 
1

>  <van_der_walls_volume>  (1854) 
194.17

>  <contains_sugar>  (1854) 
False

>  <contains_ring_sugars>  (1854) 
False

>  <contains_linear_sugars>  (1854) 
False

>  <murcko_framework>  (1854) 
c1ccccc1

>  <np_likeness>  (1854) 
-0.06

>  <chemical_class>  (1854) 
Prenol lipids

>  <chemical_sub_class>  (1854) 
Monoterpenoids

>  <chemical_super_class>  (1854) 
Lipids and lipid-like molecules

>  <direct_parent_classification>  (1854) 
Aromatic monoterpenoids

>  <np_classifier_pathway>  (1854) 
Terpenoids

>  <np_classifier_superclass>  (1854) 
Monoterpenoids

>  <np_classifier_class>  (1854) 
Menthane monoterpenoids

>  <np_classifier_is_glycoside>  (1854) 
False

>  <organisms>  (1854) 
Anchusa strigosa|Brucea mollis|Carissa opaca|Casearia esculenta|Elsholtzia ciliata|Elsholtzia splendens|Eusynstyela misakiensis|Fagara leprieurii|Heterocondylus didymus|Laggera decurrens|Laurilia sulcata|Lippia gracilis|Lippia grata|Lippia multiflora|Mespilodaphne pretiosa|Minthostachys glabrescens|Mosla cavaleriei|Mosla chinensis|Origanum acutidens|Origanum onites|Otostegia fruticosa|Penstemon acuminatus|Pimenta dioica|Polygala crotalarioides|Pyracantha fortuneana|Rumphella aggregata|Stereocaulon ramulosum|Teucrium luteum|Thymus|Thymus Vulgaris|Thymus longicaulis|Thymus quinquecostatus|Thymus sibthorpii|Thymus vulgaris|Urolepis hecatantha|Zataria multiflora|basil

>  <collections>  (1854) 
CMAUP (cCollective molecular activities of useful plants)|ChEBI NPs|EMNPD|FooDB|KNApSaCK|Latin America dataset|NPASS|NPEdia|NuBBEDB|Phyto4Health|Super Natural II|TCMDB-Taiwan (Traditional Chinese Medicine database)|TCMID (Traditional Chinese Medicine Integrated Database)|UNPD (Universal Natural Products Database)|VietHerb|WikiData Natural Products|ZINC NP

>  <dois>  (1854) 
10.1002/(SICI)1099-1026(199605)11:3<153::AID-FFJ558>3.0.CO;2-L|10.1002/1099-1026(200011/12)15:6<373::AID-FFJ923>3.0.CO;2-9|10.1002/CJOC.201180379|10.1002/FFJ.2730020110|10.1016/0031-9422(90)85109-S|10.1016/0305-1978(93)90031-L|10.1016/S0031-9422(00)80757-8|10.1016/S0031-9422(02)00477-6|10.1021/NP50017A018|10.1021/np50017a018|10.1080/0972060X.2010.10643892|10.1080/10412905.1992.9698067|10.1080/10412905.1992.9698070|10.1080/10412905.1993.9698309|10.1080/10412905.1994.9698359|10.1080/10412905.1994.9699354|10.1080/10412905.1995.9698478|10.1080/10412905.1995.9698522|10.1080/10412905.1997.9700721|10.5897/JMPR10.078

>  <synonyms>  (1854) 
(5-methyl-2-propan-2-ylphenyl) acetate|2-Isopropyl-5-methylphenol acetate|528-79-0|6I29126I5V|AI3-03427|Acetylthymol|BDBM248169|C09909|CHEBI:9583|CHEMBL3343661|DTXSID40862124|EINECS 208-442-8|EN300-22486452|G26065|HMS1728G14|NS00013240|NSC-406522|Phenol, 5-methyl-2-(1-methylethyl)-, acetate|Q27108438|SCHEMBL250091|THYMOL ACETATE [MI]|Thymol derivative, 17|Thymol, acetate|Thymyl acetate|UNII-6I29126I5V

>  <cas>  (1854) 
528-79-0

$$$$

     RDKit          2D

 27 30  0  0  0  0  0  0  0  0999 V2000
    3.1379    5.0690    0.0000 C   0  0  0  0  0  0  0  0  0  0  0  0
    3.2639    3.5743    0.0000 C   0  0  0  0  0  0  0  0  0  0  0  0
    2.0324    2.7179    0.0000 C   0  0  0  0  0  0  0  0  0  0  0  0
    2.1584    1.2232    0.0000 C   0  0  0  0  0  0  0  0  0  0  0  0
    3.5158    0.5849    0.0000 C   0  0  0  0  0  0  0  0  0  0  0  0
    3.6418   -0.9098    0.0000 C   0  0  0  0  0  0  0  0  0  0  0  0
    4.9992   -1.5480    0.0000 O   0  0  0  0  0  0  0  0  0  0  0  0
    5.1252   -3.0427    0.0000 C   0  0  0  0  0  0  0  0  0  0  0  0
    2.4103   -1.7662    0.0000 C   0  0  0  0  0  0  0  0  0  0  0  0
    2.5363   -3.2609    0.0000 O   0  0  0  0  0  0  0  0  0  0  0  0
    1.0529   -1.1280    0.0000 C   0  0  0  0  0  0  0  0  0  0  0  0
   -0.1786   -1.9844    0.0000 O   0  0  0  0  0  0  0  0  0  0  0  0
   -0.0526   -3.4791    0.0000 C   0  0  0  0  0  0  0  0  0  0  0  0
    0.9269    0.3667    0.0000 C   0  0  0  0  0  0  0  0  0  0  0  0
   -0.4305    1.0050    0.0000 O   0  0  0  0  0  0  0  0  0  0  0  0
    0.0319    0.0533    0.0000 C   0  0  0  0  0  0  0  0  0  0  0  0
   -1.4414   -0.2282    0.0000 C   0  0  0  0  0  0  0  0  0  0  0  0
   -1.9343   -1.6449    0.0000 C   0  0  0  0  0  0  0  0  0  0  0  0
   -3.4077   -1.9264    0.0000 C   0  0  0  0  0  0  0  0  0  0  0  0
   -4.3881   -0.7912    0.0000 C   0  0  0  0  0  0  0  0  0  0  0  0
   -5.8878   -0.7603    0.0000 O   0  0  0  0  0  0  0  0  0  0  0  0
   -6.3218    0.6756    0.0000 C   0  0  0  0  0  0  0  0  0  0  0  0
   -5.0903    1.5320    0.0000 O   0  0  0  0  0  0  0  0  0  0  0  0
   -3.8953    0.6255    0.0000 C   0  0  0  0  0  0  0  0  0  0  0  0
   -2.4219    0.9070    0.0000 C   0  0  0  0  0  0  0  0  0  0  0  0
    0.6702    1.4107    0.0000 C   0  0  0  0  0  0  0  0  0  0  0  0
   -0.0529    2.7250    0.0000 C   0  0  0  0  0  0  0  0  0  0  0  0
  1  2  2  0
  2  3  1  0
  4  3  1  1
  4  5  1  0
  5  6  1  0
  6  7  1  1
  7  8  1  0
  6  9  1  0
  9 10  1  6
  9 11  1  0
 11 12  1  1
 12 13  1  0
 11 14  1  0
 14 15  1  6
 11 16  1  0
 16 17  1  1
 17 18  2  0
 18 19  1  0
 19 20  2  0
 20 21  1  0
 21 22  1  0
 22 23  1  0
 23 24  1  0
 24 25  2  0
 16 26  1  0
 26 27  1  6
 14  4  1  0
 25 17  1  0
 26  4  1  0
 24 20  1  0
M  END
>  <identifier>  (1855) 
CNP0201956.1

>  <canonical_smiles>  (1855) 
C=CC[C@@]12C[C@@H](OC)[C@H](O)[C@@](OC)([C@@H]1O)[C@@H](C1=CC=C3OCOC3=C1)[C@@H]2C

>  <standard_inchi>  (1855) 
InChI=1S/C21H28O6/c1-5-8-20-10-16(24-3)18(22)21(25-4,19(20)23)17(12(20)2)13-6-7-14-15(9-13)27-11-26-14/h5-7,9,12,16-19,22-23H,1,8,10-11H2,2-4H3/t12-,16+,17+,18-,19+,20-,21+/m0/s1

>  <standard_inchi_key>  (1855) 
ARPWINJFGMKMTO-HFCKHCKESA-N

>  <name>  (1855) 
nan

>  <iupac_name>  (1855) 
(1~{S},2~{S},3~{R},5~{S},6~{S},7~{R},8~{R})-5-allyl-7-(1,3-benzodioxol-5-yl)-1,3-dimethoxy-6-methyl-bicyclo[3.2.1]octane-2,8-diol

>  <annotation_level>  (1855) 
5

>  <total_atom_count>  (1855) 
55

>  <heavy_atom_count>  (1855) 
27

>  <molecular_weight>  (1855) 
376.45

>  <exact_molecular_weight>  (1855) 
376.18859

>  <molecular_formula>  (1855) 
C21H28O6

>  <alogp>  (1855) 
2.24

>  <topological_polar_surface_area>  (1855) 
77.38

>  <rotatable_bond_count>  (1855) 
5

>  <hydrogen_bond_acceptors>  (1855) 
6

>  <hydrogen_bond_donors>  (1855) 
2

>  <hydrogen_bond_acceptors_lipinski>  (1855) 
6

>  <hydrogen_bond_donors_lipinski>  (1855) 
2

>  <lipinski_rule_of_five_violations>  (1855) 
0

>  <aromatic_rings_count>  (1855) 
1

>  <qed_drug_likeliness>  (1855) 
0.77

>  <formal_charge>  (1855) 
0

>  <fractioncsp3>  (1855) 
0.62

>  <number_of_minimal_rings>  (1855) 
4

>  <van_der_walls_volume>  (1855) 
343.29

>  <contains_sugar>  (1855) 
False

>  <contains_ring_sugars>  (1855) 
False

>  <contains_linear_sugars>  (1855) 
False

>  <murcko_framework>  (1855) 
O1c2ccc(cc2OC1)C3CC4CCCC3C4

>  <np_likeness>  (1855) 
2.16

>  <chemical_class>  (1855) 
Benzodioxoles

>  <chemical_sub_class>  (1855) 
Benzodioxoles

>  <chemical_super_class>  (1855) 
Organoheterocyclic compounds

>  <direct_parent_classification>  (1855) 
Benzodioxoles

>  <np_classifier_pathway>  (1855) 
Shikimates and Phenylpropanoids

>  <np_classifier_superclass>  (1855) 
Lignans

>  <np_classifier_class>  (1855) 
Neolignans

>  <np_classifier_is_glycoside>  (1855) 
False

>  <organisms>  (1855) 
Diaporthe phaseolorum|Euphorbia splendens|Leptotaenia multifida|Licaria canella|Licaria rigida|Lunasia costulata|Ocotea aciphylla|Rudbeckia speciosa|Woodsia manchuriensis

>  <collections>  (1855) 
CMAUP (cCollective molecular activities of useful plants)|Latin America dataset|NPASS|NuBBEDB|WikiData Natural Products|ZINC NP

>  <dois>  (1855) 
10.1016/0031-9422(81)84071-X|10.1016/S0031-9422(00)81240-6|10.1016/S0031-9422(00)84995-X

>  <synonyms>  (1855) 
canellin A

>  <cas>  (1855) 
nan

$$$$

     RDKit          2D

 26 31  0  0  0  0  0  0  0  0999 V2000
    1.6210   -3.9112    0.0000 C   0  0  0  0  0  0  0  0  0  0  0  0
    0.5582   -2.8527    0.0000 C   0  0  0  0  0  0  0  0  0  0  0  0
   -0.8314   -3.4175    0.0000 O   0  0  0  0  0  0  0  0  0  0  0  0
    0.9434   -1.4030    0.0000 N   0  0  0  0  0  0  0  0  0  0  0  0
    2.3427   -0.8626    0.0000 C   0  0  0  0  0  0  0  0  0  0  0  0
    3.6806   -1.5409    0.0000 C   0  0  0  0  0  0  0  0  0  0  0  0
    4.9370   -0.7214    0.0000 C   0  0  0  0  0  0  0  0  0  0  0  0
    4.8554    0.7764    0.0000 C   0  0  0  0  0  0  0  0  0  0  0  0
    3.5175    1.4547    0.0000 C   0  0  0  0  0  0  0  0  0  0  0  0
    2.2612    0.6351    0.0000 C   0  0  0  0  0  0  0  0  0  0  0  0
    0.8115    1.0204    0.0000 C   0  0  0  0  0  0  0  0  0  0  0  0
    1.0121    2.3041    0.0000 C   0  0  0  0  0  0  0  0  0  0  0  0
    0.9856    2.1347    0.0000 C   0  0  0  0  0  0  0  0  0  0  0  0
    1.1863    3.4184    0.0000 N   0  0  0  0  0  0  0  0  0  0  0  0
   -2.7299    2.6501    0.0000 C   0  0  0  0  0  0  0  0  0  0  0  0
   -3.6548    1.4692    0.0000 C   0  0  0  0  0  0  0  0  0  0  0  0
   -4.8043    0.5056    0.0000 C   0  0  0  0  0  0  0  0  0  0  0  0
   -4.7676   -0.9940    0.0000 C   0  0  0  0  0  0  0  0  0  0  0  0
   -3.5723   -1.9002    0.0000 O   0  0  0  0  0  0  0  0  0  0  0  0
   -2.1186   -1.5308    0.0000 C   0  0  0  0  0  0  0  0  0  0  0  0
   -1.3022   -2.7892    0.0000 O   0  0  0  0  0  0  0  0  0  0  0  0
   -1.5010   -0.1638    0.0000 C   0  0  0  0  0  0  0  0  0  0  0  0
   -0.0029   -0.2392    0.0000 C   0  0  0  0  0  0  0  0  0  0  0  0
   -2.1847    1.1713    0.0000 C   0  0  0  0  0  0  0  0  0  0  0  0
   -1.3703    2.4310    0.0000 C   0  0  0  0  0  0  0  0  0  0  0  0
    0.1278    2.3555    0.0000 C   0  0  0  0  0  0  0  0  0  0  0  0
  1  2  1  0
  2  3  2  0
  2  4  1  0
  4  5  1  0
  5  6  2  0
  6  7  1  0
  7  8  2  0
  8  9  1  0
  9 10  2  0
 10 11  1  0
 11 12  1  6
 12 13  1  0
 13 14  1  0
 14 15  1  0
 15 16  1  0
 16 17  2  0
 17 18  1  0
 18 19  1  0
 19 20  1  0
 20 21  1  6
 22 20  1  6
 22 23  1  0
 22 24  1  0
 24 25  1  6
 26 25  1  6
 23  4  1  1
 10  5  1  0
 23 11  1  0
 26 11  1  0
 26 14  1  0
 24 16  1  0
M  END
>  <identifier>  (1856) 
CNP0348773.1

>  <canonical_smiles>  (1856) 
CC(=O)N1C2=CC=CC=C2[C@@]23CCN4CC5=CCO[C@@H](O)[C@@H]([C@H]12)[C@H]5C[C@H]43

>  <standard_inchi>  (1856) 
InChI=1S/C21H24N2O3/c1-12(24)23-16-5-3-2-4-15(16)21-7-8-22-11-13-6-9-26-20(25)18(19(21)23)14(13)10-17(21)22/h2-6,14,17-20,25H,7-11H2,1H3/t14-,17-,18+,19-,20+,21+/m0/s1

>  <standard_inchi_key>  (1856) 
QSDMAJZSSDNJPO-YJQMPPAXSA-N

>  <name>  (1856) 
DIABOLINE

>  <iupac_name>  (1856) 
1-[(4~{R},12~{S},13~{R},14~{R},19~{R},21~{S})-14-hydroxy-15-oxa-1,11-diazahexacyclo[16.3.1.0^{4,12}.0^{4,21}.0^{5,10}.0^{13,19}]docosa-5,7,9,17-tetraen-11-yl]ethanone

>  <annotation_level>  (1856) 
5

>  <total_atom_count>  (1856) 
50

>  <heavy_atom_count>  (1856) 
26

>  <molecular_weight>  (1856) 
352.43

>  <exact_molecular_weight>  (1856) 
352.17869

>  <molecular_formula>  (1856) 
C21H24N2O3

>  <alogp>  (1856) 
1.66

>  <topological_polar_surface_area>  (1856) 
53.01

>  <rotatable_bond_count>  (1856) 
0

>  <hydrogen_bond_acceptors>  (1856) 
4

>  <hydrogen_bond_donors>  (1856) 
1

>  <hydrogen_bond_acceptors_lipinski>  (1856) 
4

>  <hydrogen_bond_donors_lipinski>  (1856) 
1

>  <lipinski_rule_of_five_violations>  (1856) 
0

>  <aromatic_rings_count>  (1856) 
1

>  <qed_drug_likeliness>  (1856) 
0.72

>  <formal_charge>  (1856) 
0

>  <fractioncsp3>  (1856) 
0.57

>  <number_of_minimal_rings>  (1856) 
6

>  <van_der_walls_volume>  (1856) 
312.58

>  <contains_sugar>  (1856) 
False

>  <contains_ring_sugars>  (1856) 
False

>  <contains_linear_sugars>  (1856) 
False

>  <murcko_framework>  (1856) 
O1CC=C2CN3CCC45c6ccccc6NC5C(C1)C2CC34

>  <np_likeness>  (1856) 
2.52

>  <chemical_class>  (1856) 
Strychnos alkaloids

>  <chemical_sub_class>  (1856) 
Strychnos alkaloids

>  <chemical_super_class>  (1856) 
Alkaloids and derivatives

>  <direct_parent_classification>  (1856) 
Strychnos alkaloids

>  <np_classifier_pathway>  (1856) 
Alkaloids

>  <np_classifier_superclass>  (1856) 
Tryptophan alkaloids

>  <np_classifier_class>  (1856) 
Corynanthe type

>  <np_classifier_is_glycoside>  (1856) 
False

>  <organisms>  (1856) 
Strychnos atlantica|Strychnos castelnaeana|Strychnos diaboli|Strychnos fendleri|Strychnos henningsii|Strychnos jobertiana|Strychnos longicaudata|Strychnos lucida|Strychnos matopensis|Strychnos mimfiensis|Strychnos potatorum|Strychnos pseudoquina|Strychnos pungens|Strychnos spinosa

>  <collections>  (1856) 
KNApSaCK|Latin America dataset|NuBBEDB|Super Natural II|WikiData Natural Products

>  <dois>  (1856) 
10.1002/JLAC.19687120122|10.1007/S11418-005-0021-3|10.1016/0031-9422(80)85164-8|10.1016/0031-9422(82)85213-8|10.1016/0031-9422(88)80046-3|10.1016/0031-9422(90)83087-H|10.1016/0031-9422(90)85151-5|10.1016/0031-9422(92)83650-N|10.1016/B978-1-4831-9671-8.50013-X|10.1016/S0040-4020(01)88603-8|10.1021/NP50012A003|10.1021/NP50036A007|10.1021/np50036a007|10.1039/JR9490000955|10.1128/AAC.43.9.2328

>  <synonyms>  (1856) 
509-40-0|9ZF1MM6TXS|Curan-17-ol, 1-acetyl-19,20-didehydro-17,18-epoxy-, (17R)-|DIABOLINE [MI]|Diaboline|N-ACETYL-WGA|N-acetyl-Wieland-Gumlich aldehyde|NSC 277458|Q27273423|UNII-9ZF1MM6TXS

>  <cas>  (1856) 
509-40-0

$$$$

     RDKit          2D

 13 13  0  0  0  0  0  0  0  0999 V2000
   -7.1917    0.6386    0.0000 C   0  0  0  0  0  0  0  0  0  0  0  0
   -5.9658   -0.2258    0.0000 C   0  0  0  0  0  0  0  0  0  0  0  0
   -4.6043    0.4036    0.0000 C   0  0  0  0  0  0  0  0  0  0  0  0
   -3.3784   -0.4609    0.0000 C   0  0  0  0  0  0  0  0  0  0  0  0
   -2.0168    0.1685    0.0000 C   0  0  0  0  0  0  0  0  0  0  0  0
   -0.7910   -0.6959    0.0000 C   0  0  0  0  0  0  0  0  0  0  0  0
    0.5706   -0.0665    0.0000 C   0  0  0  0  0  0  0  0  0  0  0  0
    1.7964   -0.9310    0.0000 C   0  0  0  0  0  0  0  0  0  0  0  0
    3.1580   -0.3015    0.0000 C   0  0  0  0  0  0  0  0  0  0  0  0
    4.4675   -1.0331    0.0000 C   0  0  0  0  0  0  0  0  0  0  0  0
    5.5679   -0.0138    0.0000 C   0  0  0  0  0  0  0  0  0  0  0  0
    4.9385    1.3478    0.0000 C   0  0  0  0  0  0  0  0  0  0  0  0
    3.4491    1.1699    0.0000 C   0  0  0  0  0  0  0  0  0  0  0  0
  1  2  1  0
  2  3  1  0
  3  4  1  0
  4  5  1  0
  5  6  1  0
  6  7  1  0
  7  8  1  0
  8  9  1  0
  9 10  1  0
 10 11  1  0
 11 12  1  0
 12 13  1  0
 13  9  1  0
M  END
>  <identifier>  (1857) 
CNP0080496.0

>  <canonical_smiles>  (1857) 
CCCCCCCCC1CCCC1

>  <standard_inchi>  (1857) 
InChI=1S/C13H26/c1-2-3-4-5-6-7-10-13-11-8-9-12-13/h13H,2-12H2,1H3

>  <standard_inchi_key>  (1857) 
HARXDULSBROLME-UHFFFAOYSA-N

>  <name>  (1857) 
n-Octylcyclopentane

>  <iupac_name>  (1857) 
octylcyclopentane

>  <annotation_level>  (1857) 
5

>  <total_atom_count>  (1857) 
39

>  <heavy_atom_count>  (1857) 
13

>  <molecular_weight>  (1857) 
182.35

>  <exact_molecular_weight>  (1857) 
182.20345

>  <molecular_formula>  (1857) 
C13H26

>  <alogp>  (1857) 
4.93

>  <topological_polar_surface_area>  (1857) 
0.00

>  <rotatable_bond_count>  (1857) 
7

>  <hydrogen_bond_acceptors>  (1857) 
0

>  <hydrogen_bond_donors>  (1857) 
0

>  <hydrogen_bond_acceptors_lipinski>  (1857) 
0

>  <hydrogen_bond_donors_lipinski>  (1857) 
0

>  <lipinski_rule_of_five_violations>  (1857) 
0

>  <aromatic_rings_count>  (1857) 
0

>  <qed_drug_likeliness>  (1857) 
0.49

>  <formal_charge>  (1857) 
0

>  <fractioncsp3>  (1857) 
1.00

>  <number_of_minimal_rings>  (1857) 
1

>  <van_der_walls_volume>  (1857) 
nan

>  <contains_sugar>  (1857) 
False

>  <contains_ring_sugars>  (1857) 
False

>  <contains_linear_sugars>  (1857) 
False

>  <murcko_framework>  (1857) 
C1CCCC1

>  <np_likeness>  (1857) 
0.50

>  <chemical_class>  (1857) 
Saturated hydrocarbons

>  <chemical_sub_class>  (1857) 
Cycloalkanes

>  <chemical_super_class>  (1857) 
Hydrocarbons

>  <direct_parent_classification>  (1857) 
Cycloalkanes

>  <np_classifier_pathway>  (1857) 
Fatty acids

>  <np_classifier_superclass>  (1857) 
Fatty acyls

>  <np_classifier_class>  (1857) 
Hydrocarbons

>  <np_classifier_is_glycoside>  (1857) 
False

>  <organisms>  (1857) 
Caryocar coriaceum

>  <collections>  (1857) 
Latin America dataset|NuBBEDB|WikiData Natural Products|ZINC NP

>  <dois>  (1857) 
10.1021/JF00120A031|10.1021/jf00120a031

>  <synonyms>  (1857) 
1795-20-6|Cyclopentane, octyl-|DTXSID00170818|HARXDULSBROLME-UHFFFAOYSA-N|octylcyclopentane

>  <cas>  (1857) 
1795-20-6

$$$$

     RDKit          2D

 21 22  0  0  0  0  0  0  0  0999 V2000
    6.4356   -1.6960    0.0000 C   0  0  0  0  0  0  0  0  0  0  0  0
    7.2840   -0.4590    0.0000 C   0  0  0  0  0  0  0  0  0  0  0  0
    8.1325    0.7779    0.0000 C   0  0  0  0  0  0  0  0  0  0  0  0
    8.5210   -1.3075    0.0000 O   0  0  0  0  0  0  0  0  0  0  0  0
    6.0471    0.3894    0.0000 C   0  0  0  0  0  0  0  0  0  0  0  0
    4.6938   -0.2576    0.0000 N   0  0  0  0  0  0  0  0  0  0  0  0
    3.4568    0.5909    0.0000 C   0  0  0  0  0  0  0  0  0  0  0  0
    3.5731    2.0864    0.0000 O   0  0  0  0  0  0  0  0  0  0  0  0
    2.1035   -0.0561    0.0000 C   0  0  0  0  0  0  0  0  0  0  0  0
    0.8666    0.7923    0.0000 C   0  0  0  0  0  0  0  0  0  0  0  0
   -0.4867    0.1453    0.0000 C   0  0  0  0  0  0  0  0  0  0  0  0
   -1.7237    0.9938    0.0000 C   0  0  0  0  0  0  0  0  0  0  0  0
   -3.0770    0.3468    0.0000 C   0  0  0  0  0  0  0  0  0  0  0  0
   -3.1933   -1.1487    0.0000 C   0  0  0  0  0  0  0  0  0  0  0  0
   -4.5466   -1.7957    0.0000 C   0  0  0  0  0  0  0  0  0  0  0  0
   -5.7835   -0.9473    0.0000 C   0  0  0  0  0  0  0  0  0  0  0  0
   -7.2418   -1.2988    0.0000 O   0  0  0  0  0  0  0  0  0  0  0  0
   -8.0267   -0.0205    0.0000 C   0  0  0  0  0  0  0  0  0  0  0  0
   -7.0536    1.1210    0.0000 O   0  0  0  0  0  0  0  0  0  0  0  0
   -5.6672    0.5482    0.0000 C   0  0  0  0  0  0  0  0  0  0  0  0
   -4.3140    1.1952    0.0000 C   0  0  0  0  0  0  0  0  0  0  0  0
  1  2  1  0
  2  3  1  0
  2  4  1  0
  2  5  1  0
  5  6  1  0
  6  7  1  0
  7  8  2  0
  7  9  1  0
  9 10  2  0
 10 11  1  0
 11 12  2  0
 12 13  1  0
 13 14  2  0
 14 15  1  0
 15 16  2  0
 16 17  1  0
 17 18  1  0
 18 19  1  0
 19 20  1  0
 20 21  2  0
 21 13  1  0
 20 16  1  0
M  END
>  <identifier>  (1858) 
CNP0080549.1

>  <canonical_smiles>  (1858) 
CC(C)(O)CNC(=O)/C=C/C=C/C1=CC=C2OCOC2=C1

>  <standard_inchi>  (1858) 
InChI=1S/C16H19NO4/c1-16(2,19)10-17-15(18)6-4-3-5-12-7-8-13-14(9-12)21-11-20-13/h3-9,19H,10-11H2,1-2H3,(H,17,18)/b5-3+,6-4+

>  <standard_inchi_key>  (1858) 
KNAGLFRHSWIJBB-GGWOSOGESA-N

>  <name>  (1858) 
nan

>  <iupac_name>  (1858) 
nan

>  <annotation_level>  (1858) 
0

>  <total_atom_count>  (1858) 
40

>  <heavy_atom_count>  (1858) 
21

>  <molecular_weight>  (1858) 
289.33

>  <exact_molecular_weight>  (1858) 
289.13141

>  <molecular_formula>  (1858) 
C16H19NO4

>  <alogp>  (1858) 
1.87

>  <topological_polar_surface_area>  (1858) 
67.79

>  <rotatable_bond_count>  (1858) 
5

>  <hydrogen_bond_acceptors>  (1858) 
4

>  <hydrogen_bond_donors>  (1858) 
2

>  <hydrogen_bond_acceptors_lipinski>  (1858) 
4

>  <hydrogen_bond_donors_lipinski>  (1858) 
2

>  <lipinski_rule_of_five_violations>  (1858) 
0

>  <aromatic_rings_count>  (1858) 
1

>  <qed_drug_likeliness>  (1858) 
0.64

>  <formal_charge>  (1858) 
0

>  <fractioncsp3>  (1858) 
0.31

>  <number_of_minimal_rings>  (1858) 
2

>  <van_der_walls_volume>  (1858) 
269.94

>  <contains_sugar>  (1858) 
False

>  <contains_ring_sugars>  (1858) 
False

>  <contains_linear_sugars>  (1858) 
False

>  <murcko_framework>  (1858) 
O1c2ccccc2OC1

>  <np_likeness>  (1858) 
0.60

>  <chemical_class>  (1858) 
nan

>  <chemical_sub_class>  (1858) 
nan

>  <chemical_super_class>  (1858) 
nan

>  <direct_parent_classification>  (1858) 
nan

>  <np_classifier_pathway>  (1858) 
nan

>  <np_classifier_superclass>  (1858) 
nan

>  <np_classifier_class>  (1858) 
nan

>  <np_classifier_is_glycoside>  (1858) 
False

>  <organisms>  (1858) 
Ottonia corcovadensis|Piper corcovadense

>  <collections>  (1858) 
Latin America dataset|NuBBEDB|WikiData Natural Products|ZINC NP

>  <dois>  (1858) 
10.1016/0031-9422(81)80027-1

>  <synonyms>  (1858) 
nan

>  <cas>  (1858) 
nan

$$$$

     RDKit          2D

 31 34  0  0  0  0  0  0  0  0999 V2000
   -3.5588    3.4261    0.0000 C   0  0  0  0  0  0  0  0  0  0  0  0
   -3.5239    1.9265    0.0000 C   0  0  0  0  0  0  0  0  0  0  0  0
   -2.2077    1.2070    0.0000 O   0  0  0  0  0  0  0  0  0  0  0  0
   -2.1728   -0.2926    0.0000 C   0  0  0  0  0  0  0  0  0  0  0  0
   -0.8567   -1.0122    0.0000 O   0  0  0  0  0  0  0  0  0  0  0  0
    0.4246   -0.2321    0.0000 C   0  0  0  0  0  0  0  0  0  0  0  0
    1.7407   -0.9517    0.0000 C   0  0  0  0  0  0  0  0  0  0  0  0
    1.7756   -2.4513    0.0000 C   0  0  0  0  0  0  0  0  0  0  0  0
    0.4944   -3.2313    0.0000 C   0  0  0  0  0  0  0  0  0  0  0  0
    0.5293   -4.7309    0.0000 C   0  0  0  0  0  0  0  0  0  0  0  0
    1.8455   -5.4504    0.0000 C   0  0  0  0  0  0  0  0  0  0  0  0
    1.8804   -6.9500    0.0000 O   0  0  0  0  0  0  0  0  0  0  0  0
    3.1267   -4.6704    0.0000 C   0  0  0  0  0  0  0  0  0  0  0  0
    3.0918   -3.1708    0.0000 C   0  0  0  0  0  0  0  0  0  0  0  0
    3.0219   -0.1716    0.0000 O   0  0  0  0  0  0  0  0  0  0  0  0
    2.9870    1.3280    0.0000 C   0  0  0  0  0  0  0  0  0  0  0  0
    4.2682    2.1080    0.0000 C   0  0  0  0  0  0  0  0  0  0  0  0
    4.2333    3.6076    0.0000 C   0  0  0  0  0  0  0  0  0  0  0  0
    5.5145    4.3876    0.0000 O   0  0  0  0  0  0  0  0  0  0  0  0
    2.9172    4.3272    0.0000 C   0  0  0  0  0  0  0  0  0  0  0  0
    1.6359    3.5471    0.0000 C   0  0  0  0  0  0  0  0  0  0  0  0
    0.3198    4.2667    0.0000 O   0  0  0  0  0  0  0  0  0  0  0  0
    1.6709    2.0475    0.0000 C   0  0  0  0  0  0  0  0  0  0  0  0
    0.3896    1.2675    0.0000 C   0  0  0  0  0  0  0  0  0  0  0  0
   -0.9265    1.9870    0.0000 O   0  0  0  0  0  0  0  0  0  0  0  0
   -3.4540   -1.0726    0.0000 C   0  0  0  0  0  0  0  0  0  0  0  0
   -3.4191   -2.5722    0.0000 O   0  0  0  0  0  0  0  0  0  0  0  0
   -4.7702   -0.3531    0.0000 C   0  0  0  0  0  0  0  0  0  0  0  0
   -6.0514   -1.1331    0.0000 O   0  0  0  0  0  0  0  0  0  0  0  0
   -4.8051    1.1465    0.0000 C   0  0  0  0  0  0  0  0  0  0  0  0
   -6.1213    1.8661    0.0000 O   0  0  0  0  0  0  0  0  0  0  0  0
  2  1  1  6
  2  3  1  0
  3  4  1  0
  4  5  1  1
  5  6  1  0
  6  7  2  0
  7  8  1  0
  8  9  2  0
  9 10  1  0
 10 11  2  0
 11 12  1  0
 11 13  1  0
 13 14  2  0
  7 15  1  0
 15 16  1  0
 16 17  2  0
 17 18  1  0
 18 19  1  0
 18 20  2  0
 20 21  1  0
 21 22  1  0
 21 23  2  0
 23 24  1  0
 24 25  2  0
  4 26  1  0
 26 27  1  6
 26 28  1  0
 28 29  1  6
 28 30  1  0
 30 31  1  1
 30  2  1  0
 24  6  1  0
 14  8  1  0
 23 16  1  0
M  END
>  <identifier>  (1859) 
CNP0167643.2

>  <canonical_smiles>  (1859) 
C[C@@H]1O[C@@H](OC2=C(C3=CC=C(O)C=C3)OC3=CC(O)=CC(O)=C3C2=O)[C@H](O)[C@H](O)[C@H]1O

>  <standard_inchi>  (1859) 
InChI=1S/C21H20O10/c1-8-15(25)17(27)18(28)21(29-8)31-20-16(26)14-12(24)6-11(23)7-13(14)30-19(20)9-2-4-10(22)5-3-9/h2-8,15,17-18,21-25,27-28H,1H3/t8-,15-,17+,18+,21-/m0/s1

>  <standard_inchi_key>  (1859) 
SOSLMHZOJATCCP-AEIZVZFYSA-N

>  <name>  (1859) 
Afzelin

>  <iupac_name>  (1859) 
5,7-dihydroxy-2-(4-hydroxyphenyl)-3-[(2~{S},3~{R},4~{R},5~{R},6~{S})-3,4,5-trihydroxy-6-methyl-tetrahydropyran-2-yl]oxy-chromen-4-one

>  <annotation_level>  (1859) 
5

>  <total_atom_count>  (1859) 
51

>  <heavy_atom_count>  (1859) 
31

>  <molecular_weight>  (1859) 
432.38

>  <exact_molecular_weight>  (1859) 
432.10565

>  <molecular_formula>  (1859) 
C21H20O10

>  <alogp>  (1859) 
0.78

>  <topological_polar_surface_area>  (1859) 
170.05

>  <rotatable_bond_count>  (1859) 
3

>  <hydrogen_bond_acceptors>  (1859) 
10

>  <hydrogen_bond_donors>  (1859) 
6

>  <hydrogen_bond_acceptors_lipinski>  (1859) 
10

>  <hydrogen_bond_donors_lipinski>  (1859) 
6

>  <lipinski_rule_of_five_violations>  (1859) 
1

>  <aromatic_rings_count>  (1859) 
3

>  <qed_drug_likeliness>  (1859) 
0.35

>  <formal_charge>  (1859) 
0

>  <fractioncsp3>  (1859) 
0.29

>  <number_of_minimal_rings>  (1859) 
4

>  <van_der_walls_volume>  (1859) 
353.56

>  <contains_sugar>  (1859) 
True

>  <contains_ring_sugars>  (1859) 
True

>  <contains_linear_sugars>  (1859) 
False

>  <murcko_framework>  (1859) 
O1c2ccccc2CC(OC3OCCCC3)=C1c4ccccc4

>  <np_likeness>  (1859) 
2.08

>  <chemical_class>  (1859) 
Flavonoids

>  <chemical_sub_class>  (1859) 
Flavonoid glycosides

>  <chemical_super_class>  (1859) 
Phenylpropanoids and polyketides

>  <direct_parent_classification>  (1859) 
Flavonoid-3-O-glycosides

>  <np_classifier_pathway>  (1859) 
Shikimates and Phenylpropanoids

>  <np_classifier_superclass>  (1859) 
Flavonoids

>  <np_classifier_class>  (1859) 
Flavonols

>  <np_classifier_is_glycoside>  (1859) 
True

>  <organisms>  (1859) 
Abies homolepis|Acer carpinifolium|Acer pictum subsp. okamotoanum|Aconitum gigas|Actinidia chinensis var. deliciosa|Actinidia chinensis var. hispida|Actinidia deliciosa|Actinobole uliginosum|Actinoplanes friuliensis|Afzelia bipindensis|Afzelia sp.|Agrimonia eupatoria|Agrimonia pilosa|Aguacate|Ailanthus triphysa|Ajuga genevensis|Ajuga integrifolia|Albizia julibrissin|Alcea rosea|Alchornea glandulosa|Alcyonium utinomii|Aldisa sanguinea|Alectoria japonica|Alnus japonica|Alpinia blepharocalyx|Alstonia undulifolia|Alstroemeria pulchra|Alternaria kikuchiana|Amelanchier vulgaris|Amyema miquelii|Anguilla japonica|Angylocalyx braunii|Anisodus tanguticus|Aonidiella aurantii|Aplysina archeri|Aplysina laevis|Araiostegiella perdurans|Aralia elata|Araliopsis soyauxii|Arbutus sp.|Archidendron lucidum|Artemisia anomala|Artemisia ludoviciana subsp. mexicana|Artemisia mesatlantica|Aspergillus carneus|Aspergillus striatus|Aster ageratoides|Asteriscus aquaticus|Astilbe chinensis|Astilbe rubra|Astilbe thunbergii|Austrocedrus chilensis|Balanops australiana|Balanus glandula|Bauhinia multinervia|Betula pendula|Betula platyphylla|Betula pubescens|Boronia pinnata|Brachychiton populneum|Brickellia diffusa|Bufotes viridis|Burkholderia gladioli|Calea pilosa|Callerya cinerea|Calophyllum inophyllum|Camellia crassicolumna|Camellia crassicolumna var. multiplex|Camellia oleifera|Camellia reticulata|Canarium album|Capparis ovata|Carduus nutans|Carduus tenuiflorus|Carlina acanthifolia|Cassia nodosa|Cassine papillosa|Cassinia laevis|Cassipourea gummiflua|Casuarina sp.|Ceanothus sanguineus|Centaurea bornmuelleri|Centaurea horrida|Centipeda orbicularis|Ceratonia siliqua|Chamaecyparis formosensis|Charpentiera obovata|Chavica betle|Chrysocoma peduncularis|Chrysotila lamellosa|Cichorium endivia|Cineraria geifolia|Cinnamomum philippinense|Cinnamomum subavenium|Cissus discolor|Cissus sicyoides|Cissus sp.|Clathria prolifera|Clausena excavata|Cleistanthus indochinensis|Cleistopholis staudtii|Clematis angustifolia|Clostridium butyricum|Complex-toothed flying squirrel|Conus pulicarius|Coprinopsis cinerea|Cornus controversa|Cornus macrophylla|Cortinarius odoratus|Corylus avellana|Costus afer|Crassostrea gigas|Cratena peregrina|Croton montevidensis|Crypteronia paniculata|Cryptomeria japonica|Cucumis myriocarpus|Cynoglossum germanicum|Cyrtomium falcatum|Daphne oleoides|Datisca glomerata|Delphinium cashmerianum|Dendrilla membranosa|Dendronephthya gigantea|Dendrophthoe falcata|Dendrophthoe longiflora|Diaporthe helianthi|Dichotomophthora lutea|Dicranopteris dichotoma|Dicranopteris pedata|Dioscorea olfersiana|Diospyros kaki|Dipteryx odorata|Dorycnium hirsutum|Doryopteris decipiens|Dysidea tupha|Dysosma versipellis|Ecballium elaterium|Echinacea pallida|Echinus microtuberculatus|Ekebergia senegalensis|Eleutherobia albiflora|Elymus repens|Ephedra Sinica|Ephedra alata|Epilobium hirsutum|Epimedium brevicornu|Epimedium grandiflorum|Epimedium koreanum|Epimedium pubescens|Epimedium sagittatum|Epimedium sempervirens|Epimedium wushanense|Eremanthus arboreus|Eremocarpus setiger|Eremostachys moluccelloides|Eria multiflora|Eriobotrya japonica|Erythrophleum fordii|Erythroxylum laurifolium|Erythroxylum pruinosum|Erythroxylum tenue|Erythroxylum vacciniifolium|Esenbeckia grandiflora|Eucalyptus jenseni|Eucalyptus sideroxylon|Euonymus tingens|Euphorbia cornigera|Euphorbia hirta|Euphorbia petiolata|Euphorbia sieboldiana|Euphorbia sp.|Euphorbia tirucalli|Eurya tigang|Evernia vulpina|Excoecaria agallocha|Excoecaria cochinchinensis|Fagara zanthoxyloides|Fagus fusca|Fallopia japonica var. japonica|Fallopia multiflora|Fissistigma pallens|Flemingia Stricta|Flemingia stricta|Foeniculum vulgare|Fraxinus insularis|Fuchsia excorticata|Galium dasypodum|Garcinia bancana|Ginkgo biloba|Glochidion sphaerogynum|Gremmeniella abietina|Guarea trichilioides|Gymnopus confluens|Halocarpus biformis|Haloxylon recurvum|Hamamelis sp.|Havardia albicans|Helichrysum auriceps|Helichrysum davenportii|Helichrysum lepidissimum|Heliotropium ternatum|Helleborus multifidus|Herba glechomae longitubae|Heuchera cylindrica|Hippocratea excelsa|Homalocladium platycladum|Hopea utilis|Houttuynia Cordata|Houttuynia cordata|Hubertia tomentosa|Humulus lupulus|Hylocomium splendens|Hymenidium lindleyanum|Hypericum mysorense|Hypericum revolutum|Hyphear tanakae|Ilex hainanensis|Inella verrucosa|Inocybe geophylla|Inula salicifolia|Iochroma australe|Iotrochota purpurea|Iryanthera sagotiana|Ixora coccinea|Jacobaea analoga|Jatropha variegata|Juglans mandshurica|Juniperus communis|Juniperus communis depressa|Juniperus communis var. depressa|Kalanchoe Spathulata|Kandelia candel|Kigelia pinnata|Koelreuteria paniculata|Kokoona reflexa|Krascheninnikovia ceratoides|Larix decidua|Lastrea thelypteris|Lecidella chodati|Leontopodium nanum|Leptothyrsa sprucei|Lespedeza virgata|Leuzea centauroides|Ligustrum obtusifolium|Ligustrum vulgare|Litsea salicifolia|Litsea sericea|Loranthus tanakae|Lotus hirsutus|Lotus tenuis|Lotus ucrainicus|Luculia pinceana|Machilus thunbergii|Macrolepiota neomastoidea|Macrothelypteris torresiana|Maesa ramentacea|Mallotus metcalfianus|Malpighia emarginata|Maytenus hookeri|Melaleuca quinquenervia|Melanophryniscus moreirae|Melicope sarcococca|Melolontha melolontha|Mesembryanthemum expansum|Metridium senile|Mikania cordata|Millettia laurentii|Millettia zechiana|Monascus pilosus|Monodora tenuifolia|Moquilea licaniaeflora|Moquilea pyrifolia|Morinda morindoides|Moringa oleifera|Morus rubra|Muehlenbeckia platyclada|Mussaenda parviflora|Myelobia smerintha|Myristica cagayanensis|Myrothamnus flabellifolia|Myrothamnus flabellifolius|Narthecium asiaticum|Nectandra gardneri|Nectandra grandiflora|Neolitsea aurata|Neolitsea sericea|Nepeta multifida|Nephelium lappaceum|Nototodarus sloanii|Nymphaea caerulea|Nymphaea nouchali var. caerulea|Nymphaea odorata|Ochradenus baccatus|Ocimum tenuiflorum|Ocotea velloziana|Oenothera glaucifolia|Onobrychis cyri|Onobrychis viciifolia|Ophidiaster ophidianus|Orostachys japonica|Osmanthus heterophyllus|Osmorhiza aristata|Osteospermum junceum|Panax papyrifer|Passiflora edulis|Passiflora foetida|Penicillium janczewskii|Penicillium meleagrinum|Penicillium olsonii|Petrorhagia dubia|Phebalium ambiens|Phebalium dentatum|Phellodendron Amurense|Philotheca pinoides|Phoebe formosana|Phyllanthus Emblica|Phyllanthus oligospermus|Picea alba|Pilocarpus spicatus|Pinguicula vulgaris|Pinus strobus|Pinus sylvestris|Piper sanctum|Plectranthus purpuratus|Plinia cauliflora|Pluchea odorata|Pluchea suaveolens|Polygala Chinensis|Polygonum cuspidatum|Polygonum flaccidum|Pongamiopsis pervilleana|Premna flavescens|Premna odorata|Premna tomentosa|Prunus lusitanica|Psephellus bornmuelleri|Psephellus huber-morathii|Psephellus schischkinii|Pseudoplexaura flagellosa|Pseudowintera colorata|Psychotria serpens|Pteris australis|Pterogyne nitens|Pycnandra acuminata|Quercus imbricaria|Ranunculus acris|Ranunculus fluitans|Raphanus raphanistrum|Reseda luteola|Reseda muricata|Rodgersia pinnata|Rodgersia podophylla|Rodgersia sambucifolia|Rosa chinensis|Rosa gallica|Rosa × damascena|Rubus pungens|Sageretia thea|Salacia lehmbachii|Salvia bucharica|Salvia yosgadensis|Sargassum muticum|Saussurea mongolica|Scabiosa succisa|Schnella microstachya|Sclerocarya birrea|Scrophularia koelzii|Sedum crassularia|Sedum sediforme|Senecio carthamoides|Senecio dolichodoryius|Senecio oryzetorum|Senecio rupestris|Senna didymobotrya|Sideritis brevibracteata|Sideritis nutans|Sideroxylon cubense|Sindora Siamensis|Solanum andigena|Solanum orbignianum|Solidago sp.|Spiracantha cornifolia|Stachyurus himalaicus|Stenomesson miniatum|Stereocaulon corticatulum|Stereocaulon leprocauloides|Stevia connata|Sticherus quadripartitus|Stichopus chloronotus|Stipa vaseyi|Streptomyces blastmyceticus|Streptomyces lomondensis|Streptomyces platensis|Streptomyces sparsogenes|Strophanthus preussii|Strychnos mellodora|Syneilesis aconitifolia|Tadehagi triquetrum|Tamarix hispida|Tarenaya spinosa|Tephrosia pumila|Tephrosia vogelii|Tetrapanax Papyriferus|Tetrapanax papyrifer|Thaminophyllum multiflorum|Thuja sp.|Tilia mandshurica|Tilia sp.|Tilia tomentosa|Toona sinensis|Tripterygium regelii|Tsuga diversifolia|Tylophora tanakae|Uncaria guianensis|Uncaria hirsuta|Uvaria afzelii|Vahlia capensis|Vancouveria hexandra|Vateria indica|Vernonanthura pinguis|Vernonia anisochaetoides|Veronica persica|Viburnum tinus|Vicia benghalensis|Vicia cracca|Vicia tenuifolia|Vicia variabilis|Viguiera decurrens|Vismia orientalis|Vitis silvestris|Viviparus japonicus|Walsura tubulata|Warburgia stuhlmannii|Warburgia ugandensis|Wedelia scaberrima|Xylopia brasiliensis|Zanthoxylum culantrillo|Zingiber Zerumbet|Zingiber aromaticum|Zingiber officinale|Zingiber zerumbet

>  <collections>  (1859) 
ANPDB|AnalytiCon Discovery NPs|Australian natural products|CMAUP (cCollective molecular activities of useful plants)|ChEBI NPs|ChemSpider NPs|GNPS (Global Natural Products Social Molecular Networking)|Latin America dataset|NANPDB (Natural Products from Northern African Sources)|NPASS|NuBBEDB|Phyto4Health|PhytoLab phyproof® Reference Substances|SANCDB|Super Natural II|TCMDB-Taiwan (Traditional Chinese Medicine database)|VietHerb|WikiData Natural Products|ZINC NP

>  <dois>  (1859) 
10.1002/(SICI)1099-1565(199805/06)9:3<145::AID-PCA393>3.0.CO;2-K|10.1002/(SICI)1099-1573(199812)12:8<562::AID-PTR356>3.0.CO;2-6|10.1002/CHIN.200117207|10.1002/CHIN.200537180|10.1002/CHIN.200537209|10.1002/CHIN.200639205|10.1002/CJOC.20030210222|10.1002/HLCA.200890142|10.1002/JCCS.199400031|10.1002/JCCS.199900034|10.1002/JCCS.200800067|10.1002/JCCS.201190020|10.1002/PRAC.19953370109|10.1007/BF00563465|10.1007/BF00567876|10.1007/BF00598319|10.1007/BF00598598|10.1007/BF02892023|10.1007/BF02976549|10.1007/BF02976598|10.1007/S10600-006-0099-1|10.1007/S10600-008-9165-1|10.1007/S10600-009-9247-8|10.1007/S11418-009-0382-0|10.1007/S11418-012-0692-5|10.1016/0021-9673(92)85026-P|10.1016/0021-9673(95)00765-2|10.1016/0031-6865(96)00009-X|10.1016/0031-9422(83)80021-1|10.1016/0031-9422(83)80112-5|10.1016/0031-9422(83)83073-8|10.1016/0031-9422(84)83045-9|10.1016/0031-9422(88)83027-9|10.1016/0031-9422(88)83050-4|10.1016/0031-9422(88)84102-5|10.1016/0031-9422(90)85069-R|10.1016/0031-9422(91)80109-E|10.1016/0031-9422(91)83656-6|10.1016/0031-9422(93)85262-P|10.1016/0031-9422(93)85287-2|10.1016/0031-9422(93)85416-O|10.1016/0031-9422(94)00784-Q|10.1016/0031-9422(94)00961-R|10.1016/0031-9422(94)85098-4|10.1016/0031-9422(96)00122-7|10.1016/0305-1978(85)90089-4|10.1016/0305-1978(88)90110-X|10.1016/0305-1978(94)00092-U|10.1016/J.BMC.2008.09.021|10.1016/J.BMCL.2007.09.003|10.1016/J.BMCL.2010.11.126|10.1016/J.BMCL.2015.02.048|10.1016/J.BSE.2015.09.007|10.1016/J.FITOTE.2003.08.004|10.1016/J.FITOTE.2004.01.011|10.1016/J.FITOTE.2008.03.005|10.1016/J.FITOTE.2010.08.007|10.1016/J.FITOTE.2016.08.013|10.1016/J.FOODCHEM.2008.11.094|10.1016/J.PHYTOCHEM.2003.10.025|10.1016/J.PHYTOCHEM.2005.07.019|10.1016/J.PHYTOCHEM.2006.01.005|10.1016/J.PHYTOCHEM.2007.05.035|10.1016/J.PHYTOCHEM.2008.01.006|10.1016/J.PHYTOCHEM.2008.10.008|10.1016/J.PHYTOCHEM.2010.08.007|10.1016/J.PHYTOCHEM.2010.08.018|10.1016/J.TET.2005.07.047|10.1016/S0021-9673(97)00900-X|10.1016/S0031-9422(00)00479-9|10.1016/S0031-9422(00)80349-0|10.1016/S0031-9422(00)80549-X|10.1016/S0031-9422(00)86728-X|10.1016/S0031-9422(00)97569-1|10.1016/S0031-9422(01)00248-5|10.1016/S0031-9422(03)00105-5|10.1016/S0031-9422(03)00374-1|10.1016/S0031-9422(97)00306-3|10.1016/S0031-9422(97)00370-1|10.1016/S0031-9422(97)00697-3|10.1016/S0031-9422(97)00747-4|10.1016/S0031-9422(97)01057-1|10.1016/S0031-9422(99)00049-7|10.1016/S0031-9422(99)00074-6|10.1016/S0031-9422(99)00502-6|10.1016/S0305-1978(01)00089-8|10.1016/S0305-1978(02)00055-8|10.1016/S0305-1978(02)00250-8|10.1016/S0305-1978(97)00032-X|10.1016/S0944-7113(96)80075-4|10.1016/S0944-7113(97)80045-1|10.1016/S0968-0896(01)00321-2|10.1016/j.bmcl.2007.09.003|10.1016/j.bmcl.2010.11.126|10.1016/j.bmcl.2015.02.048|10.1016/j.fitote.2016.08.013|10.1016/s0031-9422(00)86214-7|10.1016/s0031-9422(99)00049-7|10.1016/s0305-1978(02)00226-0|10.1021/JF000388H|10.1021/JF030374M|10.1021/JF049526J|10.1021/JF802974M|10.1021/JF903515F|10.1021/JF9913256|10.1021/NP020285O|10.1021/NP020442J|10.1021/NP030556A|10.1021/NP050185T|10.1021/NP070119M|10.1021/NP50027A025|10.1021/NP50087A014|10.1021/NP50117A005|10.1021/NP9702190|10.1021/acs.jnatprod.6b00703|10.1021/jf901635s|10.1021/jf9810261|10.1021/np020285o|10.1021/np020442j|10.1021/np030556a|10.1021/np50117a005|10.1021/np970171q|10.1039/NP9941100219|10.1055/S-0034-1383145|10.1055/S-2004-818927|10.1055/S-2004-827163|10.1055/S-2005-871292|10.1055/S-2006-957657|10.1055/S-2006-957671|10.1055/S-2006-960867|10.1055/S-2007-993759|10.1071/ch9710431|10.1080/10.575630290015736|10.1080/1028602021000049087|10.1080/10575639308043880|10.1080/14786410601035811|10.1080/14786410802214009|10.1080/14786419.2010.482057|10.1080/14786419.2013.869693|10.1177/1934578X1501000817|10.1211/146080899128735009|10.1248/BPB.26.1042|10.1248/CPB.31.919|10.1248/CPB.36.1180|10.1248/CPB.38.411|10.1248/CPB.43.1800|10.1248/CPB.48.194|10.1248/CPB.53.1519|10.1248/CPB.53.1600|10.1248/CPB.53.342|10.1248/CPB.54.740|10.1248/CPB.57.1089|10.1248/CPB.57.1227|10.1248/CPB.57.269|10.1248/CPB.57.280|10.1248/CPB.58.1369|10.1248/CPB.60.129|10.1248/YAKUSHI1947.103.6_679|10.1271/BBB.80421|10.1515/ZNC-1988-1-210|10.1515/ZNC-2001-11-1204|10.1590/S0100-46702002000200004|10.3390/70200245|10.3390/MOLECULES19033173|10.3390/molecules19033173|10.3742/OPEM.2007.7.4.336|10.3987/COM-00-8926|10.4268/CJCMM20141227

>  <synonyms>  (1859) 
nan

>  <cas>  (1859) 
482-39-3|786711-07-7

$$$$

     RDKit          2D

 10 10  0  0  0  0  0  0  0  0999 V2000
   -4.4665    0.2305    0.0000 O   0  0  0  0  0  0  0  0  0  0  0  0
   -2.9915    0.5034    0.0000 C   0  0  0  0  0  0  0  0  0  0  0  0
   -2.0177   -0.6375    0.0000 C   0  0  0  0  0  0  0  0  0  0  0  0
   -0.5427   -0.3646    0.0000 C   0  0  0  0  0  0  0  0  0  0  0  0
   -0.0416    1.0492    0.0000 C   0  0  0  0  0  0  0  0  0  0  0  0
    1.4334    1.3221    0.0000 C   0  0  0  0  0  0  0  0  0  0  0  0
    2.4072    0.1811    0.0000 C   0  0  0  0  0  0  0  0  0  0  0  0
    3.8822    0.4540    0.0000 O   0  0  0  0  0  0  0  0  0  0  0  0
    1.9061   -1.2327    0.0000 C   0  0  0  0  0  0  0  0  0  0  0  0
    0.4311   -1.5055    0.0000 C   0  0  0  0  0  0  0  0  0  0  0  0
  1  2  1  0
  2  3  1  0
  3  4  1  0
  4  5  2  0
  5  6  1  0
  6  7  2  0
  7  8  1  0
  7  9  1  0
  9 10  2  0
 10  4  1  0
M  END
>  <identifier>  (1860) 
CNP0160217.0

>  <canonical_smiles>  (1860) 
OCCC1=CC=C(O)C=C1

>  <standard_inchi>  (1860) 
InChI=1S/C8H10O2/c9-6-5-7-1-3-8(10)4-2-7/h1-4,9-10H,5-6H2

>  <standard_inchi_key>  (1860) 
YCCILVSKPBXVIP-UHFFFAOYSA-N

>  <name>  (1860) 
2-(4-Hydroxyphenyl)ethanol

>  <iupac_name>  (1860) 
4-(2-hydroxyethyl)phenol

>  <annotation_level>  (1860) 
5

>  <total_atom_count>  (1860) 
20

>  <heavy_atom_count>  (1860) 
10

>  <molecular_weight>  (1860) 
138.17

>  <exact_molecular_weight>  (1860) 
138.06808

>  <molecular_formula>  (1860) 
C8H10O2

>  <alogp>  (1860) 
0.93

>  <topological_polar_surface_area>  (1860) 
40.46

>  <rotatable_bond_count>  (1860) 
2

>  <hydrogen_bond_acceptors>  (1860) 
2

>  <hydrogen_bond_donors>  (1860) 
2

>  <hydrogen_bond_acceptors_lipinski>  (1860) 
2

>  <hydrogen_bond_donors_lipinski>  (1860) 
2

>  <lipinski_rule_of_five_violations>  (1860) 
0

>  <aromatic_rings_count>  (1860) 
1

>  <qed_drug_likeliness>  (1860) 
0.64

>  <formal_charge>  (1860) 
0

>  <fractioncsp3>  (1860) 
0.25

>  <number_of_minimal_rings>  (1860) 
1

>  <van_der_walls_volume>  (1860) 
134.01

>  <contains_sugar>  (1860) 
False

>  <contains_ring_sugars>  (1860) 
False

>  <contains_linear_sugars>  (1860) 
False

>  <murcko_framework>  (1860) 
c1ccccc1

>  <np_likeness>  (1860) 
0.81

>  <chemical_class>  (1860) 
Phenols

>  <chemical_sub_class>  (1860) 
Tyrosols and derivatives

>  <chemical_super_class>  (1860) 
Benzenoids

>  <direct_parent_classification>  (1860) 
Tyrosols

>  <np_classifier_pathway>  (1860) 
Shikimates and Phenylpropanoids

>  <np_classifier_superclass>  (1860) 
Phenylethanoids (C6-C2)

>  <np_classifier_class>  (1860) 
Phenylethanoids

>  <np_classifier_is_glycoside>  (1860) 
False

>  <organisms>  (1860) 
Acacia catechu|Acanthopanax ricinifolius|Achlys triphylla|Aconitum violaceum|Acorus gramineus|Acorus tatarinowii|Actinidia arguta|Adenia fruticosa|Aeromonas hydrophila|Agaricus|Agelas linnaei|Aglaia foveolata|Albizia julibrissin|Albizia procera|Alectoria ochroleuca|Alternaria japonica|Alternaria tagetica|Amsinckia tessellata|Anacardium occidentale|Anchusa officinalis|Anemone tomentosa|Anolis lineatopus|Aplophyllum pedicellatum|Aristolochia gehrtii|Artemisia caucasica|Artemisia gilvescens|Artemisia giraldii|Artemisia porrecta|Ascidia ahodori|Aspalathus linearis|Aspergillus falconensis|Aspergillus mutabilis|Aster ptarmicoides|Asteracantha longifolia|Aucuba chinensis|Aurelia aurita|Azadirachta indica|Billbergia buchholtzii|Bistorta vivipara|Bleekeria vitiensis|Bohadschia vitiensis|Bongardia chrysogonum|Botryosphaeria obtusa|Botryosphaeria rhodina|Brassica napus|Brickellia vernicosa|Bryophyllum calycinum|Bulbophyllum protractum|Bupleurum salicifolium|Bursera tonkinensis|Calocera viscosa|Calystegia pubescens|Carica dodecaphylla|Carica papaya|Caryopteris mongholica|Casearia sylvestris|Caulerpa serrulata|Cedronella canariensis|Centaurea huber-morathii|Centrosema haitense|Ceramium rubrum|Ceratocystis fimbriata|Ceratocystis ips|Cestrum parqui|Cheilanthes chusana|Chrysosplenium americanum|Cistanche deserticola|Cistanche tubulosa|Citrullus lanatus|Citrus tangerina|Codonopsis pilosula|Colletotrichum gloeosporioides|Colpomenia sinuosa|Coriandrum sativum|Corydalis gigantea|Crella incrustans|Cremastra appendiculata|Crocus minimus|Crocus sativus|Croton chilensis|Croton lechleri|Cunonia macrophylla|Curculigo pilosa|Cyberlindnera jadinii|Cyclopia intermedia|Cynometra lujae|Cypripedium calceolus|Dalbergia rubiginosa|Datura stramonium|Delphinium fangshanense|Delphinium shawurense|Dimorphotheca sinuata|Diospyros glaucifolia|Distylium racemosum|Dysidea amblia|Dysosma delavayi|Echinochloa esculenta|Echinopepon bigelovii|Elymnias thryallis|Engelhardia roxburghiana|Entada rheedei|Epichloe typhina|Epimedium brevicornum|Eritrichium sericeum|Erylus trisphaerus|Eupatorium areolare|Euphorbia kansui|Euplotes raikovi|Exobasidium vaccinii|FOOD SAKE|Fagraea gracilipes|Felimida luteorosea|Forsythia suspensa|Forsythia viridissima|Fraxinus americana|Fraxinus floribunda|Fraxinus formosana|Fraxinus griffithii|Fraxinus japonica|Fraxinus longicuspis|Fraxinus malacophylla|Fraxinus micrantha|Fucus vesiculosus|Galium album|Garcinia atroviridis|Garcinia xipshuanbannaensis|Gardenia jasminoides|Gesneria cardinalis|Gleditsia caspica|Gloeophyllum|Gloeophyllum sp.97022|Gomphostemma crinitum|Gracilaria textorii|Grosmannia crassivaginata|Grosmannia huntii|Gutierrezia lucida|Hansfordia|Haplophyllum ramosissimum|Harungana madagascariensis|Helichrysum graveolens|Helichrysum mixtum|Homo sapiens|Hopea brevipetiolaris|Hortonia floribunda|Humata pectinata|Hymenidium lindleyanum|Illicium verum|Inga feuillei|Ipomoea nil|Ipomoea purpurea|Iryanthera paraensis|Isatis tinctoria|Isopyrum thalictroides|Jasminum officinale|Kali turgidum|Lactarius deliciosus|Lactarius vellereus|Lactuca laciniata|Lampranthus sociorum|Lasiodiplodia theobromae|Lathyrus nissolia|Lejeunea pallescens|Leonurus persicus|Leptoxyphium fumago|Leucetta microrhaphis|Ligustrum japonicum|Ligustrum lucidum|Ligustrum obtusifolium|Ligustrum vulgare|Lobophytum schoedei|Lophozia floerkei|Lysiana subfalcata|Macaranga peltata|Macrocystis pyrifera|Magnolia sieboldii|Maharanga bicolor|Malva pucheina|Mappia foetida|Melanargia galathea|Mesembryanthemum tortuosum|Metapenaeus macleayi|Methylobacterium organophilum|Millettia pinnata|Millettia rubiginosa|Monomorium delagoense|Mosla japonica|Nauclea rhynchophylla|Nigrospora|Nigrospora oryzae|Nigrospora sp. PSU-F18|Nigrospora sphaerica|Nocardia pseudobrasiliensis|Nostoc spongiaeforme|Oenanthe fistulosa|Oenanthe javanica|Olea europaea|Olea sp.|Ootheca mantidis|Ormosia balansae|Osteospermum hyoseroides|Osteospermum muricatum|Papaver rhoeas|Papulaspora immersa|Parablechnum minus|Parahancornia fasciculata|Paraphaeosphaeria minitans|Pedicularis artselaeri|Peltogyne porphyrocardia|Penicillium chrysogenum|Penicillium cyclopium|Penicillium sp.|Peperomia heyneana|Peperomia vulcanica|Pertusaria amara|Perymenium mendezii|Pestalotia palmarum|Pestalotiopsis palmarum|Peyronellaea obtusa|Phaeolus schweinitzii|Phallusia nigra|Pharbitis nil|Phellodendron amurense|Phialophora alba|Phlogacanthus tubiflorus|Physalis edulis|Picea glauca|Pichia membranaefaciens|Pichia membranifaciens|Picris evae|Pinus brutia var. eldarica|Pinus massoniana|Plagiomnium undulatum|Plantago major|Platycarya strobilacea|Pleione bulbocodioides|Pleione yunnanensis|Podophyllum hexandrum|Polyporus anthracophilus|Premna tomentosa|Prunus armeniaca|Prunus domestica|Prunus persica|Pseudeurotium zonatum|Pseudoalteromonas rubra|Quercus phillyraeoides|Ramalina terebrata|Raphanus sativus|Ratibida mexicana|Rehmannia glutinosa|Retiboletus ornatipes|Rhinanthus angustifolius|Rhinanthus major|Rhizochalina incrustata|Rhodiola crenulata|Rhodiola crenulata (HOOK.f.et Thoms.) H.OHBA|Rhodiola fastigiata|Rhodiola gelida|Rhodiola heterodonta|Rhodiola kirilowii|Rhodiola rosea|Rhodiola sachalinensis|Rhodiola sacra|Ribes nigrum|Roboastra tigris|Rubus phoenicolasius|Russula delica|Sabia japonica|Sagittaria sagittifolia|Salilagenidium callinectes|Sarcandra glabra|Sargentodoxa cuneata|Satureja atropatana|Saussurea amara|Saussurea pulchella|Schefflera capitata|Schisandra propinqua|Sedum cepaea|Senecio mexicanus|Senegalia catechu|Sesamoides canescens|Sia ferox|Sideritis euboea|Sinopodophyllum emodi (WALL.) YING|Sinopodophyllum hexandrum|Sisyrinchium californicum|Sorbus tianschanica|Stachylidium|Stephania elegans|Stereospermum acuminatissimum|Stigma croci|Streptomyces AC-2|Streptomyces albospinus|Streptomyces albospinus RLe7|Streptomyces argenteolus|Streptomyces goshikiensis|Streptomyces olivaceus|Streptomyces pentaticus|Swertia swertopsis|Syringa oblata|Syringa reticulata|Syringa vulgaris|Taraxacum alpinum|Tarchonanthus camphoratus|Taxus brevifolia|Thalictrum petaloideum|Thea sasanqua|Torricellia tiliifolia|Trichoderma koningi|Trichoderma koningii|Trichoderma viride|Tsuga chinensis|Uncaria tomentosa|Urbanodendron verrucosum|Uruparia lanosa|Usnea undulata|Utricularia australis|Vasconcellea cundinamarcensis|Veronica persica|Virgilia divaricata|Vitis vinifera|Woodsia manchuriensis|Xanthoceras sorbifolia|Xanthoceras sorbifolium|Xylaria longipes|Zyzzya fuliginosa|peanut|rooibos

>  <collections>  (1860) 
ANPDB|AnalytiCon Discovery NPs|Australian natural products|BIOFACQUIM|CMAUP (cCollective molecular activities of useful plants)|CMNPD|ChEBI NPs|ChemSpider NPs|ConMedNP|EMNPD|FooDB|HIM (Herbal Ingredients in-vivo Metabolism database)|KNApSaCK|Latin America dataset|Marine Natural Products|Mitishamba database|NANPDB (Natural Products from Northern African Sources)|NPASS|NPAtlas|NPEdia|NuBBEDB|Phenol-explorer|Phyto4Health|PhytoLab phyproof® Reference Substances|PubChem NPs|SANCDB|StreptomeDB|Super Natural II|TCMDB-Taiwan (Traditional Chinese Medicine database)|TCMID (Traditional Chinese Medicine Integrated Database)|TIPdb (database of Taiwan indigenous plants)|UNPD (Universal Natural Products Database)|Watermelon|WikiData Natural Products

>  <dois>  (1860) 
10.1002/(SICI)1521-4133(199909)101:9<328::AID-LIPI328>3.0.CO;2-M|10.1002/CBDV.201000011|10.1002/CHIN.200313168|10.1002/CHIN.200352233|10.1002/CHIN.200438214|10.1002/CHIN.200740173|10.1002/EJLT.200400942|10.1002/EJLT.200500227|10.1002/EJOC.200700579|10.1002/ELPS.200500202|10.1002/HLCA.200390229|10.1002/HLCA.200900081|10.1002/JSFA.2384|10.1002/JSFA.2449|10.1002/JSSC.200390053|10.1002/JSSC.200390054|10.1002/PTR.3439|10.1002/cbdv.201000011|10.1007/BF00564116|10.1007/BF00564822|10.1007/BF00565596|10.1007/BF00575035|10.1007/BF00597667|10.1007/BF00629750|10.1007/BF00629789|10.1007/BF02273935|10.1007/BF02523530|10.1007/BF02552708|10.1007/S00217-002-0604-0|10.1007/S00217-005-0160-5|10.1007/S10811-013-0171-8|10.1007/S12272-001-1276-4|10.1007/s10811-013-0171-8|10.1007/s12272-001-1276-4|10.1016/0021-9673(95)01375-X|10.1016/0031-9422(88)80188-2|10.1016/0031-9422(88)80280-2|10.1016/0031-9422(88)80450-3|10.1016/0031-9422(91)80032-V|10.1016/0031-9422(92)80118-X|10.1016/0031-9422(92)80196-L|10.1016/0031-9422(92)80382-O|10.1016/0031-9422(92)80479-X|10.1016/0031-9422(93)85460-9|10.1016/0031-9422(94)00630-C|10.1016/0031-9422(95)00930-2|10.1016/0031-9422(96)00166-5|10.1016/B978-0-12-374420-3.00099-1|10.1016/B978-0-12-811655-5.00006-4|10.1016/J.BMCL.2006.08.071|10.1016/J.FITOTE.2007.04.005|10.1016/J.FITOTE.2009.05.013|10.1016/J.FITOTE.2009.12.009|10.1016/J.FITOTE.2011.10.014|10.1016/J.FOODCHEM.2003.07.012|10.1016/J.FOODCHEM.2005.02.007|10.1016/J.FOODCHEM.2005.09.003|10.1016/J.FOODCHEM.2006.08.014|10.1016/J.JFF.2015.04.049|10.1016/J.JFOODENG.2005.05.061|10.1016/J.LWT.2006.07.003|10.1016/J.PHYMED.2007.10.003|10.1016/J.PHYTOCHEM.2005.11.023|10.1016/J.PHYTOCHEM.2005.12.021|10.1016/J.PHYTOCHEM.2006.07.026|10.1016/J.PHYTOCHEM.2007.01.018|10.1016/J.PHYTOCHEM.2009.01.008|10.1016/J.PHYTOCHEM.2009.09.009|10.1016/J.PHYTOL.2013.09.001|10.1016/J.SCIENTA.2006.12.036|10.1016/J.TET.2009.04.051|10.1016/S0003-2670(01)01241-7|10.1016/S0031-9422(00)00137-0|10.1016/S0031-9422(00)00319-8|10.1016/S0031-9422(00)88243-6|10.1016/S0031-9422(00)90529-6|10.1016/S0031-9422(00)90536-3|10.1016/S0031-9422(00)91068-9|10.1016/S0031-9422(00)94288-2|10.1016/S0031-9422(00)94849-0|10.1016/S0031-9422(00)95166-5|10.1016/S0031-9422(01)00129-7|10.1016/S0031-9422(98)00150-2|10.1016/S0040-4020(01)90430-2|10.1016/S0305-1978(99)00122-2|10.1016/S0308-8146(00)00322-8|10.1016/S0308-8146(02)00590-3|10.1016/S0308-8146(98)00146-0|10.1016/S0367-326X(01)00269-6|10.1016/S0963-9969(00)00072-7|10.1016/j.jchromb.2013.08.025|10.1016/j.micres.2018.04.005|10.1016/j.phytol.2013.09.001|10.1016/s0014-5793(00)01216-3|10.1021/JF00004A032|10.1021/JF000872K|10.1021/JF0115138|10.1021/JF0205211|10.1021/JF0210730|10.1021/JF035300P|10.1021/JF049847V|10.1021/JF0602267|10.1021/JF060798R|10.1021/JF061122Z|10.1021/JF0617925|10.1021/JF070082B|10.1021/JF204660C|10.1021/JF9507349|10.1021/JF9601628|10.1021/JF9800256|10.1021/JF980049C|10.1021/JF980264T|10.1021/NP030247K|10.1021/NP0302854|10.1021/NP070605+|10.1021/NP1005345|10.1021/NP1008976|10.1021/NP50064A024|10.1021/NP50072A044|10.1021/NP50104A021|10.1021/NP50108A026|10.1021/NP50110A009|10.1021/NP800192F|10.1021/NP900483G|10.1021/NP9800553|10.1021/acs.jafc.8b02066|10.1021/acs.jnatprod.8b01054|10.1021/jf070082b|10.1021/np1005345|10.1021/np1008976|10.1021/np800192f|10.1021/np900483g|10.1039/np9941100355|10.1055/S-0028-1099839|10.1055/S-2001-14319|10.1055/S-2004-818956|10.1055/S-2006-957556|10.1055/S-2006-959567|10.1055/S-2006-959610|10.1055/S-2006-960003|10.1080/10286020.2011.597384|10.1080/10286029808039851|10.1080/10575639608044894|10.1080/10575639708043728|10.1080/14786419.2017.1385020|10.1086/325089|10.1111/J.1574-695X.2007.00331.X|10.1111/J.1745-4514.2007.00107.X|10.1139/V86-149|10.1248/BPB.29.1271|10.1248/CPB.29.2391|10.1248/CPB.31.2262|10.1248/CPB.37.2030|10.1248/CPB.43.1035|10.1248/CPB.43.1663|10.1248/CPB.47.1582|10.1248/CPB.49.1474|10.1248/CPB.49.1628|10.1248/CPB.49.396|10.1248/CPB.50.1305|10.1248/CPB.51.467|10.1248/CPB.55.1505|10.1248/CPB.56.536|10.1248/CPB.57.863|10.1248/CPB.59.1425|10.1248/YAKUSHI1947.103.3_360|10.1248/YAKUSHI1947.104.4_390|10.1248/YAKUSHI1947.107.1_23|10.1515/ZNC-1996-11-1206|10.1590/S0102-695X2008000500004|10.1590/S0103-50532001000400004|10.3746/JKFN.2006.35.6.713|10.3987/COM-03-9777|10.4268/CJCMM20111209|10.4268/CJCMM20111611|10.5246/JCPS.2011.02.019

>  <synonyms>  (1860) 
1AK4MU3SNX|2-(4-Hydroxyphenyl)-1-ethanol|2-(4-Hydroxyphenyl)ethanol (Tyrosol)|2-(4-Hydroxyphenyl)ethanol, 98%|2-(4-Hydroxyphenyl)ethanol, analytical standard|2-(4-Hydroxyphenyl)ethyl Alcohol|2-(P-HYDROXYPHENYL)ETHANOL|2-(p-hydroxyphenyl) ethanol|4-(2-Hydroxyethyl)phenol|4-Hydroxybenzeneethanol|4-Hydroxyphenethyl alcohol|4-Hydroxyphenylethanol|4-Hydroxyphenylmethylcarbinol|4-hydroxy-Benzeneethanol|4-hydroxy-Benzeneethanol;4-Hydroxyphenylethanol;beta-(4-Hydroxyphenyl)ethanol|4-tyrosol|501-94-0|947D0361-23C6-4863-8346-22AB05108AC5|AC-2493|AKOS000280287|AM20060146|BCP34277|BDBM50339585|Benzeneethanol, 4-hydroxy-|C06044|CCG-266147|CHEBI:1879|CHEMBL53566|CS-W019782|DB-019455|DTXCID7040780|DTXSID8060111|EINECS 207-930-8|EN300-116733|Ethanol, 2-(4-hydroxyphenyl)|F0001-1309|H0720|HMS2230E12|HY-N0474|HYDROXYPHENETHYL ALCOHOL, P-|InChI=1\/C8H10O2\/c9-6-5-7-1-3-8(10)4-2-7\/h1-4,9-10H,5-6H|KS-5274|METOPROLOL SUCCINATE IMPURITY G (EP IMPURITY)|METOPROLOL TARTRATE IMPURITY G (EP IMPURITY)|MFCD00002902|MLS001332423|Metoprolol IMpurity 07|NCGC00246994-01|NS00014657|NSC 59876|NSC 59876; p-HPEA;4-Hydroxyphenethyl alcohol|NSC-59876|No Data|Phenethyl alcohol, p-hydroxy-|Q402607|SCHEMBL10620528|SCHEMBL43838|SMR000857159|STR02735|SY001653|TYROSOL (CONSTITUENT OF RHODIOLA ROSEA)|TYROSOL [MI]|Tyrosol|Tyrosol ,(S)|Tyrosol C|UNII-1AK4MU3SNX|YRL|Z1250886919|beta-(4-Hydroxyphenyl)ethanol|bmse000173|n-tyrosol|p-HPEA|p-Hydroxyphenethyl alcohol|p-Tyrosol|para-hydroxyphenylethanol|s3773|tyrosol

>  <cas>  (1860) 
501-94-0

$$$$

     RDKit          2D

 30 34  0  0  0  0  0  0  0  0999 V2000
    3.2586   -3.1413    0.0000 C   0  0  0  0  0  0  0  0  0  0  0  0
    3.4272   -1.6508    0.0000 N   0  0  0  0  0  0  0  0  0  0  0  0
    2.2207   -0.7596    0.0000 C   0  0  0  0  0  0  0  0  0  0  0  0
    0.8456   -1.3588    0.0000 O   0  0  0  0  0  0  0  0  0  0  0  0
    2.3893    0.7309    0.0000 N   0  0  0  0  0  0  0  0  0  0  0  0
    1.1828    1.6222    0.0000 C   0  0  0  0  0  0  0  0  0  0  0  0
   -0.1923    1.0230    0.0000 C   0  0  0  0  0  0  0  0  0  0  0  0
   -1.3988    1.9142    0.0000 C   0  0  0  0  0  0  0  0  0  0  0  0
   -1.3869    3.4142    0.0000 C   0  0  0  0  0  0  0  0  0  0  0  0
   -2.8097    3.8890    0.0000 N   0  0  0  0  0  0  0  0  0  0  0  0
   -3.7010    2.6825    0.0000 C   0  0  0  0  0  0  0  0  0  0  0  0
   -5.1940    2.5375    0.0000 C   0  0  0  0  0  0  0  0  0  0  0  0
   -5.8149    1.1721    0.0000 C   0  0  0  0  0  0  0  0  0  0  0  0
   -4.9429   -0.0484    0.0000 C   0  0  0  0  0  0  0  0  0  0  0  0
   -5.5638   -1.4138    0.0000 O   0  0  0  0  0  0  0  0  0  0  0  0
   -4.6918   -2.6343    0.0000 C   0  0  0  0  0  0  0  0  0  0  0  0
   -4.2898   -4.0794    0.0000 C   0  0  0  0  0  0  0  0  0  0  0  0
   -6.0452   -3.2811    0.0000 C   0  0  0  0  0  0  0  0  0  0  0  0
   -3.1988   -2.4893    0.0000 C   0  0  0  0  0  0  0  0  0  0  0  0
   -2.5779   -1.1239    0.0000 C   0  0  0  0  0  0  0  0  0  0  0  0
   -3.4499    0.0966    0.0000 C   0  0  0  0  0  0  0  0  0  0  0  0
   -2.8290    1.4620    0.0000 C   0  0  0  0  0  0  0  0  0  0  0  0
    3.7645    1.3302    0.0000 C   0  0  0  0  0  0  0  0  0  0  0  0
    3.9331    2.8206    0.0000 O   0  0  0  0  0  0  0  0  0  0  0  0
    4.9710    0.4389    0.0000 C   0  0  0  0  0  0  0  0  0  0  0  0
    6.3461    1.0381    0.0000 C   0  0  0  0  0  0  0  0  0  0  0  0
    7.5526    0.1468    0.0000 C   0  0  0  0  0  0  0  0  0  0  0  0
    7.3840   -1.3436    0.0000 C   0  0  0  0  0  0  0  0  0  0  0  0
    6.0089   -1.9429    0.0000 C   0  0  0  0  0  0  0  0  0  0  0  0
    4.8023   -1.0516    0.0000 C   0  0  0  0  0  0  0  0  0  0  0  0
  1  2  1  0
  2  3  1  0
  3  4  2  0
  3  5  1  0
  5  6  1  0
  6  7  1  0
  7  8  1  0
  8  9  2  0
  9 10  1  0
 10 11  1  0
 11 12  2  0
 12 13  1  0
 13 14  2  0
 14 15  1  0
 15 16  1  0
 16 17  1  0
 16 18  1  0
 16 19  1  0
 19 20  2  0
 20 21  1  0
 21 22  2  0
  5 23  1  0
 23 24  2  0
 23 25  1  0
 25 26  2  0
 26 27  1  0
 27 28  2  0
 28 29  1  0
 29 30  2  0
 30  2  1  0
 22  8  1  0
 30 25  1  0
 22 11  1  0
 21 14  1  0
M  END
>  <identifier>  (1861) 
CNP0413364.0

>  <canonical_smiles>  (1861) 
CN1C(=O)N(CCC2=CNC3=CC=C4OC(C)(C)C=CC4=C23)C(=O)C2=CC=CC=C21

>  <standard_inchi>  (1861) 
InChI=1S/C24H23N3O3/c1-24(2)12-10-17-20(30-24)9-8-18-21(17)15(14-25-18)11-13-27-22(28)16-6-4-5-7-19(16)26(3)23(27)29/h4-10,12,14,25H,11,13H2,1-3H3

>  <standard_inchi_key>  (1861) 
WIPFLYROFHVKGF-UHFFFAOYSA-N

>  <name>  (1861) 
nan

>  <iupac_name>  (1861) 
3-[2-(7,7-dimethyl-3~{H}-pyrano[3,2-e]indol-1-yl)ethyl]-1-methyl-quinazoline-2,4-dione

>  <annotation_level>  (1861) 
4

>  <total_atom_count>  (1861) 
53

>  <heavy_atom_count>  (1861) 
30

>  <molecular_weight>  (1861) 
401.47

>  <exact_molecular_weight>  (1861) 
401.17394

>  <molecular_formula>  (1861) 
C24H23N3O3

>  <alogp>  (1861) 
3.61

>  <topological_polar_surface_area>  (1861) 
69.02

>  <rotatable_bond_count>  (1861) 
3

>  <hydrogen_bond_acceptors>  (1861) 
5

>  <hydrogen_bond_donors>  (1861) 
1

>  <hydrogen_bond_acceptors_lipinski>  (1861) 
5

>  <hydrogen_bond_donors_lipinski>  (1861) 
1

>  <lipinski_rule_of_five_violations>  (1861) 
0

>  <aromatic_rings_count>  (1861) 
4

>  <qed_drug_likeliness>  (1861) 
0.57

>  <formal_charge>  (1861) 
0

>  <fractioncsp3>  (1861) 
0.25

>  <number_of_minimal_rings>  (1861) 
5

>  <van_der_walls_volume>  (1861) 
nan

>  <contains_sugar>  (1861) 
False

>  <contains_ring_sugars>  (1861) 
False

>  <contains_linear_sugars>  (1861) 
False

>  <murcko_framework>  (1861) 
O1c2ccc3[nH]cc(c3c2C=CC1)CCN4CNc5ccccc5C4

>  <np_likeness>  (1861) 
0.32

>  <chemical_class>  (1861) 
Benzopyrans

>  <chemical_sub_class>  (1861) 
1-benzopyrans

>  <chemical_super_class>  (1861) 
Organoheterocyclic compounds

>  <direct_parent_classification>  (1861) 
2,2-dimethyl-1-benzopyrans

>  <np_classifier_pathway>  (1861) 
Alkaloids

>  <np_classifier_superclass>  (1861) 
Anthranilic acid alkaloids

>  <np_classifier_class>  (1861) 
Quinazoline alkaloids

>  <np_classifier_is_glycoside>  (1861) 
False

>  <organisms>  (1861) 
Conchocarpus gaudichaudianus

>  <collections>  (1861) 
Latin America dataset|NuBBEDB

>  <dois>  (1861) 
10.3987/COM-09-11671

>  <synonyms>  (1861) 
3-(2-(77-dimethyl-37-dihydropyrano[32-e]indol-1-yl)ethyl-1-methylquinazoline-24(1H3H)-dione

>  <cas>  (1861) 
nan

$$$$

     RDKit          2D

 25 28  0  0  0  0  0  0  0  0999 V2000
    6.6235   -0.9706    0.0000 C   0  0  0  0  0  0  0  0  0  0  0  0
    5.1723   -1.3500    0.0000 C   0  0  0  0  0  0  0  0  0  0  0  0
    4.1181   -0.2830    0.0000 C   0  0  0  0  0  0  0  0  0  0  0  0
    4.3618    1.1971    0.0000 C   0  0  0  0  0  0  0  0  0  0  0  0
    5.7024    1.8700    0.0000 O   0  0  0  0  0  0  0  0  0  0  0  0
    3.0294    1.8862    0.0000 C   0  0  0  0  0  0  0  0  0  0  0  0
    1.9623    0.8320    0.0000 C   0  0  0  0  0  0  0  0  0  0  0  0
    0.4649    0.9196    0.0000 C   0  0  0  0  0  0  0  0  0  0  0  0
   -0.2080    2.2602    0.0000 C   0  0  0  0  0  0  0  0  0  0  0  0
   -1.7054    2.3478    0.0000 C   0  0  0  0  0  0  0  0  0  0  0  0
   -2.5300    1.0948    0.0000 C   0  0  0  0  0  0  0  0  0  0  0  0
   -4.0274    1.1824    0.0000 C   0  0  0  0  0  0  0  0  0  0  0  0
   -4.7003    2.5230    0.0000 O   0  0  0  0  0  0  0  0  0  0  0  0
   -4.8520   -0.0706    0.0000 C   0  0  0  0  0  0  0  0  0  0  0  0
   -6.3495    0.0170    0.0000 O   0  0  0  0  0  0  0  0  0  0  0  0
   -4.1792   -1.4113    0.0000 C   0  0  0  0  0  0  0  0  0  0  0  0
   -5.0037   -2.6643    0.0000 O   0  0  0  0  0  0  0  0  0  0  0  0
   -2.6817   -1.4988    0.0000 C   0  0  0  0  0  0  0  0  0  0  0  0
   -1.8571   -0.2458    0.0000 C   0  0  0  0  0  0  0  0  0  0  0  0
   -1.1843   -1.5864    0.0000 C   0  0  0  0  0  0  0  0  0  0  0  0
   -0.3597   -0.3334    0.0000 C   0  0  0  0  0  0  0  0  0  0  0  0
    0.3132   -1.6740    0.0000 C   0  0  0  0  0  0  0  0  0  0  0  0
    1.8106   -1.7616    0.0000 C   0  0  0  0  0  0  0  0  0  0  0  0
    2.6352   -0.5086    0.0000 C   0  0  0  0  0  0  0  0  0  0  0  0
    3.4445   -1.7716    0.0000 C   0  0  0  0  0  0  0  0  0  0  0  0
  1  2  1  0
  3  2  1  6
  3  4  1  0
  4  5  2  0
  4  6  1  0
  6  7  1  0
  7  8  1  0
  8  9  1  0
  9 10  1  0
 10 11  1  0
 11 12  1  0
 12 13  1  6
 12 14  1  0
 14 15  1  1
 14 16  1  0
 16 17  1  1
 16 18  1  0
 18 19  1  0
 19 20  1  6
 19 21  1  0
 21 22  1  0
 22 23  1  0
 23 24  1  0
 24 25  1  6
 24  3  1  0
 24  7  1  0
 21  8  1  0
 19 11  1  0
M  END
>  <identifier>  (1862) 
CNP0421515.5

>  <canonical_smiles>  (1862) 
CC[C@H]1C(=O)CC2C3CCC4[C@@H](O)[C@H](O)[C@H](O)C[C@]4(C)C3CC[C@@]21C

>  <standard_inchi>  (1862) 
InChI=1S/C21H34O4/c1-4-12-16(22)9-15-11-5-6-14-18(24)19(25)17(23)10-21(14,3)13(11)7-8-20(12,15)2/h11-15,17-19,23-25H,4-10H2,1-3H3/t11?,12-,13?,14?,15?,17+,18+,19+,20+,21+/m0/s1

>  <standard_inchi_key>  (1862) 
JHBBZIAPXDEPET-BGJBAJBNSA-N

>  <name>  (1862) 
nan

>  <iupac_name>  (1862) 
(2~{R},3~{R},4~{R},10~{R},13~{S},17~{R})-17-ethyl-2,3,4-trihydroxy-10,13-dimethyl-1,2,3,4,5,6,7,8,9,11,12,14,15,17-tetradecahydrocyclopenta[a]phenanthren-16-one

>  <annotation_level>  (1862) 
4

>  <total_atom_count>  (1862) 
59

>  <heavy_atom_count>  (1862) 
25

>  <molecular_weight>  (1862) 
350.5

>  <exact_molecular_weight>  (1862) 
350.24571

>  <molecular_formula>  (1862) 
C21H34O4

>  <alogp>  (1862) 
2.54

>  <topological_polar_surface_area>  (1862) 
77.76

>  <rotatable_bond_count>  (1862) 
1

>  <hydrogen_bond_acceptors>  (1862) 
4

>  <hydrogen_bond_donors>  (1862) 
3

>  <hydrogen_bond_acceptors_lipinski>  (1862) 
4

>  <hydrogen_bond_donors_lipinski>  (1862) 
3

>  <lipinski_rule_of_five_violations>  (1862) 
0

>  <aromatic_rings_count>  (1862) 
0

>  <qed_drug_likeliness>  (1862) 
0.68

>  <formal_charge>  (1862) 
0

>  <fractioncsp3>  (1862) 
0.95

>  <number_of_minimal_rings>  (1862) 
4

>  <van_der_walls_volume>  (1862) 
nan

>  <contains_sugar>  (1862) 
False

>  <contains_ring_sugars>  (1862) 
False

>  <contains_linear_sugars>  (1862) 
False

>  <murcko_framework>  (1862) 
C1CCC2C(C1)CCC3C4CCCC4CCC23

>  <np_likeness>  (1862) 
2.65

>  <chemical_class>  (1862) 
Steroids and steroid derivatives

>  <chemical_sub_class>  (1862) 
Pregnane steroids

>  <chemical_super_class>  (1862) 
Lipids and lipid-like molecules

>  <direct_parent_classification>  (1862) 
Gluco\/mineralocorticoids, progestogins and derivatives

>  <np_classifier_pathway>  (1862) 
Terpenoids

>  <np_classifier_superclass>  (1862) 
Steroids

>  <np_classifier_class>  (1862) 
Pregnane steroids

>  <np_classifier_is_glycoside>  (1862) 
False

>  <organisms>  (1862) 
Trichilia claussenii

>  <collections>  (1862) 
Latin America dataset|NuBBEDB

>  <dois>  (1862) 
10.1016/S0031-9422(97)00167-2

>  <synonyms>  (1862) 
2\u221a\u00e9\u00ac\u00b13\u221a\u00e9\u00ac\u00b14\u221a\u00e9\u00ac\u2264-Trihydroxypregnan-16-one

>  <cas>  (1862) 
nan

$$$$

     RDKit          2D

 28 30  0  0  0  0  0  0  0  0999 V2000
    4.9375   -4.6406    0.0000 C   0  0  0  0  0  0  0  0  0  0  0  0
    4.8320   -3.1443    0.0000 C   0  0  0  0  0  0  0  0  0  0  0  0
    3.4834   -2.4876    0.0000 C   0  0  0  0  0  0  0  0  0  0  0  0
    3.3779   -0.9913    0.0000 C   0  0  0  0  0  0  0  0  0  0  0  0
    4.6209   -0.1518    0.0000 C   0  0  0  0  0  0  0  0  0  0  0  0
    5.9695   -0.8085    0.0000 O   0  0  0  0  0  0  0  0  0  0  0  0
    4.5154    1.3445    0.0000 C   0  0  0  0  0  0  0  0  0  0  0  0
    5.7584    2.1841    0.0000 O   0  0  0  0  0  0  0  0  0  0  0  0
    5.6529    3.6803    0.0000 C   0  0  0  0  0  0  0  0  0  0  0  0
    3.1668    2.0013    0.0000 C   0  0  0  0  0  0  0  0  0  0  0  0
    1.9237    1.1617    0.0000 C   0  0  0  0  0  0  0  0  0  0  0  0
    2.0293   -0.3345    0.0000 C   0  0  0  0  0  0  0  0  0  0  0  0
    0.6388   -0.8973    0.0000 O   0  0  0  0  0  0  0  0  0  0  0  0
   -0.3260    0.2512    0.0000 C   0  0  0  0  0  0  0  0  0  0  0  0
   -1.8223    0.1457    0.0000 C   0  0  0  0  0  0  0  0  0  0  0  0
   -2.6618    1.3887    0.0000 C   0  0  0  0  0  0  0  0  0  0  0  0
   -4.1581    1.2832    0.0000 C   0  0  0  0  0  0  0  0  0  0  0  0
   -4.9977    2.5263    0.0000 O   0  0  0  0  0  0  0  0  0  0  0  0
   -4.3409    3.8749    0.0000 C   0  0  0  0  0  0  0  0  0  0  0  0
   -4.8149   -0.0654    0.0000 C   0  0  0  0  0  0  0  0  0  0  0  0
   -6.3112   -0.1709    0.0000 O   0  0  0  0  0  0  0  0  0  0  0  0
   -6.9679   -1.5195    0.0000 C   0  0  0  0  0  0  0  0  0  0  0  0
   -3.9754   -1.3084    0.0000 C   0  0  0  0  0  0  0  0  0  0  0  0
   -4.6321   -2.6570    0.0000 O   0  0  0  0  0  0  0  0  0  0  0  0
   -3.7926   -3.9001    0.0000 C   0  0  0  0  0  0  0  0  0  0  0  0
   -2.4791   -1.2029    0.0000 C   0  0  0  0  0  0  0  0  0  0  0  0
    0.4681    1.5238    0.0000 C   0  0  0  0  0  0  0  0  0  0  0  0
   -0.0946    2.9142    0.0000 C   0  0  0  0  0  0  0  0  0  0  0  0
  1  2  2  0
  2  3  1  0
  3  4  1  0
  4  5  2  0
  5  6  1  0
  5  7  1  0
  7  8  1  0
  8  9  1  0
  7 10  2  0
 10 11  1  0
 11 12  2  0
 12 13  1  0
 13 14  1  0
 14 15  1  6
 15 16  2  0
 16 17  1  0
 17 18  1  0
 18 19  1  0
 17 20  2  0
 20 21  1  0
 21 22  1  0
 20 23  1  0
 23 24  1  0
 24 25  1  0
 23 26  2  0
 14 27  1  0
 27 28  1  1
 12  4  1  0
 26 15  1  0
 27 11  1  0
M  END
>  <identifier>  (1863) 
CNP0080481.2

>  <canonical_smiles>  (1863) 
C=CCC1=C(O)C(OC)=CC2=C1O[C@H](C1=CC(OC)=C(OC)C(OC)=C1)[C@H]2C

>  <standard_inchi>  (1863) 
InChI=1S/C22H26O6/c1-7-8-14-19(23)16(24-3)11-15-12(2)20(28-21(14)15)13-9-17(25-4)22(27-6)18(10-13)26-5/h7,9-12,20,23H,1,8H2,2-6H3/t12-,20-/m0/s1

>  <standard_inchi_key>  (1863) 
AJYMYDPCSNAOAB-YUNKPMOVSA-N

>  <name>  (1863) 
nan

>  <iupac_name>  (1863) 
(2~{S},3~{S})-7-allyl-5-methoxy-3-methyl-2-(3,4,5-trimethoxyphenyl)-2,3-dihydrobenzofuran-6-ol

>  <annotation_level>  (1863) 
4

>  <total_atom_count>  (1863) 
54

>  <heavy_atom_count>  (1863) 
28

>  <molecular_weight>  (1863) 
386.44

>  <exact_molecular_weight>  (1863) 
386.17294

>  <molecular_formula>  (1863) 
C22H26O6

>  <alogp>  (1863) 
4.39

>  <topological_polar_surface_area>  (1863) 
66.38

>  <rotatable_bond_count>  (1863) 
7

>  <hydrogen_bond_acceptors>  (1863) 
6

>  <hydrogen_bond_donors>  (1863) 
1

>  <hydrogen_bond_acceptors_lipinski>  (1863) 
6

>  <hydrogen_bond_donors_lipinski>  (1863) 
1

>  <lipinski_rule_of_five_violations>  (1863) 
0

>  <aromatic_rings_count>  (1863) 
2

>  <qed_drug_likeliness>  (1863) 
0.71

>  <formal_charge>  (1863) 
0

>  <fractioncsp3>  (1863) 
0.36

>  <number_of_minimal_rings>  (1863) 
3

>  <van_der_walls_volume>  (1863) 
nan

>  <contains_sugar>  (1863) 
False

>  <contains_ring_sugars>  (1863) 
False

>  <contains_linear_sugars>  (1863) 
False

>  <murcko_framework>  (1863) 
O1c2ccccc2CC1c3ccccc3

>  <np_likeness>  (1863) 
1.68

>  <chemical_class>  (1863) 
2-arylbenzofuran flavonoids

>  <chemical_sub_class>  (1863) 
2-arylbenzofuran flavonoids

>  <chemical_super_class>  (1863) 
Phenylpropanoids and polyketides

>  <direct_parent_classification>  (1863) 
2-arylbenzofuran flavonoids

>  <np_classifier_pathway>  (1863) 
Shikimates and Phenylpropanoids

>  <np_classifier_superclass>  (1863) 
Lignans

>  <np_classifier_class>  (1863) 
Neolignans

>  <np_classifier_is_glycoside>  (1863) 
False

>  <organisms>  (1863) 
Aniba|Aniba sp.

>  <collections>  (1863) 
Latin America dataset|NuBBEDB|WikiData Natural Products|ZINC NP

>  <dois>  (1863) 
10.1016/0031-9422(75)85358-1

>  <synonyms>  (1863) 
(2S3S)-7-allyl-6-hydroxy-5-methoxy-2-(345-trimethoxyphenyl)-3-methyl-23-dihydrobenzofuran

>  <cas>  (1863) 
nan

$$$$

     RDKit          2D

  8  7  0  0  0  0  0  0  0  0999 V2000
   -4.5553   -0.2480    0.0000 C   0  0  0  0  0  0  0  0  0  0  0  0
   -3.2359    0.4655    0.0000 C   0  0  0  0  0  0  0  0  0  0  0  0
   -1.9583   -0.3205    0.0000 C   0  0  0  0  0  0  0  0  0  0  0  0
   -0.6388    0.3930    0.0000 C   0  0  0  0  0  0  0  0  0  0  0  0
    0.6388   -0.3930    0.0000 C   0  0  0  0  0  0  0  0  0  0  0  0
    1.9583    0.3205    0.0000 C   0  0  0  0  0  0  0  0  0  0  0  0
    3.2359   -0.4655    0.0000 C   0  0  0  0  0  0  0  0  0  0  0  0
    4.5553    0.2480    0.0000 C   0  0  0  0  0  0  0  0  0  0  0  0
  1  2  2  0
  2  3  1  0
  3  4  1  0
  4  5  1  0
  5  6  1  0
  6  7  1  0
  7  8  1  0
M  END
>  <identifier>  (1864) 
CNP0246919.0

>  <canonical_smiles>  (1864) 
C=CCCCCCC

>  <standard_inchi>  (1864) 
InChI=1S/C8H16/c1-3-5-7-8-6-4-2/h3H,1,4-8H2,2H3

>  <standard_inchi_key>  (1864) 
KWKAKUADMBZCLK-UHFFFAOYSA-N

>  <name>  (1864) 
1-OCTENE

>  <iupac_name>  (1864) 
oct-1-ene

>  <annotation_level>  (1864) 
5

>  <total_atom_count>  (1864) 
24

>  <heavy_atom_count>  (1864) 
8

>  <molecular_weight>  (1864) 
112.22

>  <exact_molecular_weight>  (1864) 
112.1252

>  <molecular_formula>  (1864) 
C8H16

>  <alogp>  (1864) 
3.14

>  <topological_polar_surface_area>  (1864) 
0.00

>  <rotatable_bond_count>  (1864) 
5

>  <hydrogen_bond_acceptors>  (1864) 
0

>  <hydrogen_bond_donors>  (1864) 
0

>  <hydrogen_bond_acceptors_lipinski>  (1864) 
0

>  <hydrogen_bond_donors_lipinski>  (1864) 
0

>  <lipinski_rule_of_five_violations>  (1864) 
0

>  <aromatic_rings_count>  (1864) 
0

>  <qed_drug_likeliness>  (1864) 
0.38

>  <formal_charge>  (1864) 
0

>  <fractioncsp3>  (1864) 
0.75

>  <number_of_minimal_rings>  (1864) 
0

>  <van_der_walls_volume>  (1864) 
139.19

>  <contains_sugar>  (1864) 
False

>  <contains_ring_sugars>  (1864) 
False

>  <contains_linear_sugars>  (1864) 
False

>  <murcko_framework>  (1864) 
nan

>  <np_likeness>  (1864) 
1.27

>  <chemical_class>  (1864) 
Unsaturated hydrocarbons

>  <chemical_sub_class>  (1864) 
Olefins

>  <chemical_super_class>  (1864) 
Hydrocarbons

>  <direct_parent_classification>  (1864) 
Alkenes

>  <np_classifier_pathway>  (1864) 
Fatty acids

>  <np_classifier_superclass>  (1864) 
Fatty acyls

>  <np_classifier_class>  (1864) 
Hydrocarbons

>  <np_classifier_is_glycoside>  (1864) 
False

>  <organisms>  (1864) 
Artemisia argyi|Artemisia montana|Artemisia princeps|Attalea speciosa|Chrysanthemum morifolium|Chrysanthemum x morifolium|Cleome gynandra|Hypericum androsaemum|Kobus ellipsiprymnus|Mesophellia glauca|Orbignya martiana|Oryza sativa|Pinellia ternata|Taxus canadensis

>  <collections>  (1864) 
ANPDB|Australian natural products|CMAUP (cCollective molecular activities of useful plants)|FooDB|Latin America dataset|NANPDB (Natural Products from Northern African Sources)|NPASS|NuBBEDB|TCMDB-Taiwan (Traditional Chinese Medicine database)|TCMID (Traditional Chinese Medicine Integrated Database)|UNPD (Universal Natural Products Database)|WikiData Natural Products

>  <dois>  (1864) 
10.1016/J.RENENE.2017.12.012|10.1021/JF00120A031|10.1021/JF020872F|10.1021/jf00120a031|10.1023/A:1015205716921|10.1080/10412905.1993.9698163|10.3390/MOLECULES20045346

>  <synonyms>  (1864) 
.alpha.-Octylene|1-?Octene|1-C8H16|1-OCTENE [FHFI]|1-OCTENE [HSDB]|1-Octene, 98%|1-Octene, analytical standard|1-Octene, purum, >=97.0% (GC)|1-Octylene|1-n-octene|1-octene|111-66-0|26746-84-9|68527-00-4|AI3-28403|AKOS009031490|Alkenes, C8-9 .alpha.-|BBL027759|C8-9 alpha-Alkenes|CAPRYLENE [MI]|CAS-111-66-0|CHEBI:46708|CHEMBL1376677|Caprylene|D91846|DB-040996|DTXCID705804|DTXSID6025804|E5VK21B9RC|EC 203-893-7|EINECS 203-893-7|EN300-19738|HSDB 1084|InChI=1\/C8H16\/c1-3-5-7-8-6-4-2\/h3H,1,4-8H2,2H|J-002614|MFCD00009548|NCGC00091537-01|NCGC00258206-01|NS00007609|NSC 8457|NSC-8457|Neodene 8|O0041|O0251|OCTENE [INCI]|OCTENE-1|Oct-1-ene|Octene|Octene, 1-|Octylene|Q161664|SHOP C8|STL372709|Tox21_200652|UNII-E5VK21B9RC|VS-08589|alpha-Octene|n-1-Octene|oct-1-ene

>  <cas>  (1864) 
111-66-0

$$$$

     RDKit          2D

 19 20  0  0  0  0  0  0  0  0999 V2000
    5.7314   -0.5724    0.0000 C   0  0  0  0  0  0  0  0  0  0  0  0
    4.4902   -1.4147    0.0000 C   0  0  0  0  0  0  0  0  0  0  0  0
    3.1402   -0.7610    0.0000 C   0  0  0  0  0  0  0  0  0  0  0  0
    2.4864   -2.1110    0.0000 C   0  0  0  0  0  0  0  0  0  0  0  0
    3.7939    0.5891    0.0000 C   0  0  0  0  0  0  0  0  0  0  0  0
    1.7901   -0.1072    0.0000 C   0  0  0  0  0  0  0  0  0  0  0  0
    0.5489   -0.9495    0.0000 C   0  0  0  0  0  0  0  0  0  0  0  0
   -0.8011   -0.2958    0.0000 C   0  0  0  0  0  0  0  0  0  0  0  0
   -2.0423   -1.1380    0.0000 C   0  0  0  0  0  0  0  0  0  0  0  0
   -3.3923   -0.4843    0.0000 C   0  0  0  0  0  0  0  0  0  0  0  0
   -4.6335   -1.3266    0.0000 O   0  0  0  0  0  0  0  0  0  0  0  0
   -4.5247   -2.8226    0.0000 C   0  0  0  0  0  0  0  0  0  0  0  0
   -3.5012    1.0117    0.0000 C   0  0  0  0  0  0  0  0  0  0  0  0
   -4.8512    1.6655    0.0000 O   0  0  0  0  0  0  0  0  0  0  0  0
   -2.2600    1.8540    0.0000 C   0  0  0  0  0  0  0  0  0  0  0  0
   -0.9099    1.2003    0.0000 C   0  0  0  0  0  0  0  0  0  0  0  0
    0.3312    2.0426    0.0000 O   0  0  0  0  0  0  0  0  0  0  0  0
    1.6813    1.3888    0.0000 C   0  0  0  0  0  0  0  0  0  0  0  0
    2.9225    2.2311    0.0000 O   0  0  0  0  0  0  0  0  0  0  0  0
  1  2  2  0
  2  3  1  0
  3  4  1  0
  3  5  1  0
  3  6  1  0
  6  7  2  0
  7  8  1  0
  8  9  2  0
  9 10  1  0
 10 11  1  0
 11 12  1  0
 10 13  2  0
 13 14  1  0
 13 15  1  0
 15 16  2  0
 16 17  1  0
 17 18  1  0
 18 19  2  0
 18  6  1  0
 16  8  1  0
M  END
>  <identifier>  (1865) 
CNP0292971.0

>  <canonical_smiles>  (1865) 
C=CC(C)(C)C1=CC2=CC(OC)=C(O)C=C2OC1=O

>  <standard_inchi>  (1865) 
InChI=1S/C15H16O4/c1-5-15(2,3)10-6-9-7-13(18-4)11(16)8-12(9)19-14(10)17/h5-8,16H,1H2,2-4H3

>  <standard_inchi_key>  (1865) 
NEUWPSXOYGGGFO-UHFFFAOYSA-N

>  <name>  (1865) 
3-(1,1-Dimethylallyl)scopoletin

>  <iupac_name>  (1865) 
3-(1,1-dimethylallyl)-7-hydroxy-6-methoxy-chromen-2-one

>  <annotation_level>  (1865) 
5

>  <total_atom_count>  (1865) 
35

>  <heavy_atom_count>  (1865) 
19

>  <molecular_weight>  (1865) 
260.29

>  <exact_molecular_weight>  (1865) 
260.10486

>  <molecular_formula>  (1865) 
C15H16O4

>  <alogp>  (1865) 
2.97

>  <topological_polar_surface_area>  (1865) 
59.67

>  <rotatable_bond_count>  (1865) 
3

>  <hydrogen_bond_acceptors>  (1865) 
4

>  <hydrogen_bond_donors>  (1865) 
1

>  <hydrogen_bond_acceptors_lipinski>  (1865) 
4

>  <hydrogen_bond_donors_lipinski>  (1865) 
1

>  <lipinski_rule_of_five_violations>  (1865) 
0

>  <aromatic_rings_count>  (1865) 
2

>  <qed_drug_likeliness>  (1865) 
0.68

>  <formal_charge>  (1865) 
0

>  <fractioncsp3>  (1865) 
0.27

>  <number_of_minimal_rings>  (1865) 
2

>  <van_der_walls_volume>  (1865) 
235.70

>  <contains_sugar>  (1865) 
False

>  <contains_ring_sugars>  (1865) 
False

>  <contains_linear_sugars>  (1865) 
False

>  <murcko_framework>  (1865) 
O1c2ccccc2C=CC1

>  <np_likeness>  (1865) 
1.61

>  <chemical_class>  (1865) 
Coumarins and derivatives

>  <chemical_sub_class>  (1865) 
Hydroxycoumarins

>  <chemical_super_class>  (1865) 
Phenylpropanoids and polyketides

>  <direct_parent_classification>  (1865) 
7-hydroxycoumarins

>  <np_classifier_pathway>  (1865) 
Shikimates and Phenylpropanoids

>  <np_classifier_superclass>  (1865) 
Coumarins

>  <np_classifier_class>  (1865) 
Simple coumarins

>  <np_classifier_is_glycoside>  (1865) 
False

>  <organisms>  (1865) 
Antidesma montanum var. montanum|Antidesma pentandrum var. barbatum|Arachniodes mutica|Flavoparmelia caperata|Flueggea microcarpa|Gentiana strictiflora|Glinus oppositifolius|Helminthosporium victoriae|Jasione montana|Jurinea maxima|Machilus odoratissima|Machilus zuihoensis|Mycetia nutans|Naja naja|Notonia grandiflora|Ophiopholis aculeata|Pilocarpus grandiflorus|Psiadia anchusifolia|Ruta graveolens|Sideritis perfoliata|Streptomyces globisporus|Streptomyces griseocarneus|Streptomyces sulfonofaciens|Streptomyces tateyamensis|Takifugu rubripes|Zanthoxylum chiloperone

>  <collections>  (1865) 
CMAUP (cCollective molecular activities of useful plants)|FooDB|Latin America dataset|NPASS|NuBBEDB|Super Natural II|UNPD (Universal Natural Products Database)|WikiData Natural Products

>  <dois>  (1865) 
10.1002/JCCS.200700187|10.1016/S0165-022X(00)00079-8|10.1515/ZNB-2005-0715|10.1515/znb-2005-0715

>  <synonyms>  (1865) 
19723-23-0|2H-1-Benzopyran-2-one, 3-(1,1-dimethyl-2-propenyl)-7-hydroxy-6-methoxy-|3-(1',1'-Dimethylallyl)scopoletin|3-(1,1-Dimethyl-2-propenyl)-7-hydroxy-6-methoxy-2H-1-benzopyran-2-one|3-(1,1-Dimethyl-2-propenyl)-7-hydroxy-6-methoxy-2H-chromen-2-one #|7-hydroxy-6-methoxy-3-(2-methylbut-3-en-2-yl)chromen-2-one|CHEBI:174419|Coumarin, 3-(1,1-dimethylallyl)-7-hydroxy-6-methoxy-|DTXSID801148839|NEUWPSXOYGGGFO-UHFFFAOYSA-N

>  <cas>  (1865) 
19723-23-0

$$$$

     RDKit          2D

 16 17  0  0  0  0  0  0  0  0999 V2000
    1.0244   -3.9925    0.0000 C   0  0  0  0  0  0  0  0  0  0  0  0
    1.0361   -2.4925    0.0000 C   0  0  0  0  0  0  0  0  0  0  0  0
   -0.2571   -1.7324    0.0000 C   0  0  0  0  0  0  0  0  0  0  0  0
   -0.2454   -0.2325    0.0000 C   0  0  0  0  0  0  0  0  0  0  0  0
   -1.5385    0.5276    0.0000 C   0  0  0  0  0  0  0  0  0  0  0  0
   -2.8434   -0.2122    0.0000 C   0  0  0  0  0  0  0  0  0  0  0  0
   -4.1365    0.5479    0.0000 C   0  0  0  0  0  0  0  0  0  0  0  0
   -2.8551   -1.7122    0.0000 C   0  0  0  0  0  0  0  0  0  0  0  0
   -1.5268    2.0276    0.0000 C   0  0  0  0  0  0  0  0  0  0  0  0
   -0.2220    2.7674    0.0000 C   0  0  0  0  0  0  0  0  0  0  0  0
    1.0712    2.0073    0.0000 C   0  0  0  0  0  0  0  0  0  0  0  0
    2.3760    2.7472    0.0000 C   0  0  0  0  0  0  0  0  0  0  0  0
    1.0595    0.5074    0.0000 C   0  0  0  0  0  0  0  0  0  0  0  0
    2.3643    1.2472    0.0000 O   0  0  0  0  0  0  0  0  0  0  0  0
    2.3526   -0.2527    0.0000 C   0  0  0  0  0  0  0  0  0  0  0  0
    2.3409   -1.7527    0.0000 C   0  0  0  0  0  0  0  0  0  0  0  0
  1  2  1  0
  2  3  2  0
  4  3  1  1
  4  5  1  0
  5  6  1  6
  6  7  1  0
  6  8  1  0
  5  9  1  0
  9 10  1  0
 10 11  1  0
 11 12  1  1
 11 13  1  0
 13 14  1  1
 13 15  1  0
 15 16  1  0
 16  2  1  0
 13  4  1  0
M  END
>  <identifier>  (1866) 
CNP0241890.5

>  <canonical_smiles>  (1866) 
CC1=C[C@H]2[C@H](C(C)C)CC[C@@H](C)[C@]2(O)CC1

>  <standard_inchi>  (1866) 
InChI=1S/C15H26O/c1-10(2)13-6-5-12(4)15(16)8-7-11(3)9-14(13)15/h9-10,12-14,16H,5-8H2,1-4H3/t12-,13+,14+,15-/m1/s1

>  <standard_inchi_key>  (1866) 
COGPRPSWSKLKTF-CBBWQLFWSA-N

>  <name>  (1866) 
Cubenol

>  <iupac_name>  (1866) 
(1~{S},4~{R},4~{a}~{R},8~{a}~{R})-1-isopropyl-4,7-dimethyl-2,3,4,5,6,8~{a}-hexahydro-1~{H}-naphthalen-4~{a}-ol

>  <annotation_level>  (1866) 
5

>  <total_atom_count>  (1866) 
42

>  <heavy_atom_count>  (1866) 
16

>  <molecular_weight>  (1866) 
222.37

>  <exact_molecular_weight>  (1866) 
222.19837

>  <molecular_formula>  (1866) 
C15H26O

>  <alogp>  (1866) 
3.78

>  <topological_polar_surface_area>  (1866) 
20.23

>  <rotatable_bond_count>  (1866) 
1

>  <hydrogen_bond_acceptors>  (1866) 
1

>  <hydrogen_bond_donors>  (1866) 
1

>  <hydrogen_bond_acceptors_lipinski>  (1866) 
1

>  <hydrogen_bond_donors_lipinski>  (1866) 
1

>  <lipinski_rule_of_five_violations>  (1866) 
0

>  <aromatic_rings_count>  (1866) 
0

>  <qed_drug_likeliness>  (1866) 
0.67

>  <formal_charge>  (1866) 
0

>  <fractioncsp3>  (1866) 
0.87

>  <number_of_minimal_rings>  (1866) 
2

>  <van_der_walls_volume>  (1866) 
236.80

>  <contains_sugar>  (1866) 
False

>  <contains_ring_sugars>  (1866) 
False

>  <contains_linear_sugars>  (1866) 
False

>  <murcko_framework>  (1866) 
C1=CC2CCCCC2CC1

>  <np_likeness>  (1866) 
3.06

>  <chemical_class>  (1866) 
Prenol lipids

>  <chemical_sub_class>  (1866) 
Sesquiterpenoids

>  <chemical_super_class>  (1866) 
Lipids and lipid-like molecules

>  <direct_parent_classification>  (1866) 
Sesquiterpenoids

>  <np_classifier_pathway>  (1866) 
Terpenoids

>  <np_classifier_superclass>  (1866) 
Sesquiterpenoids

>  <np_classifier_class>  (1866) 
Cadinane sesquiterpenoids

>  <np_classifier_is_glycoside>  (1866) 
False

>  <organisms>  (1866) 
Aca sellowiana|Aguacate|Aquilaria agallochum|Aquilaria sinensis|Aristolochia elegans|Aristolochia littoralis|Artemisia annua|Artemisia annua L.|Artemisia apiacea|Artemisia capillaris|Austrobaileya scandens|Azadirachta indica|Baccharis articulata|Baccharis dracunculifolia|Baccharis rufescens|Baccharis sessiliflora|Bazzania japonica|Breonia chinensis|Cabralea toona|Callistemon linearis|Campylotropis hirtella|Carapichea ipecacuanha|Ceropegia dichotoma|Chamaecyparis obtusa|Chamaecyparis obtusa var. formosana|Chamaecyparis pisifera|Chamomilla recutita|Chisocheton paniculatus|Chrysanthemum indicum|Chrysanthemum x morifolium|Cistus creticus|Citrus|Citrus maxima|Citrus reticulata|Citrus unshiu|Cleistopholis patens|Corymbia citriodora|Crinum moorei|Crotalaria candicans|Cryptomeria japonica|Cyperus rotundus|Daniellia oliveri|Delonix regia|Dendrobium loddigesii|Dictyopteris delicatula|Dictyopteris divaricata|Distephanus angulifolius|Duguetia confinis|Ekimia bornmuelleri|Eria japonica|Erigeron canadensis|Etlingera pavieana|Eucalyptus apodophylla|Eucalyptus citriodora|Eucalyptus globulus subsp. bicostata|Eugenia dysenterica|Ferula jaeschkeana|Flueggea virosa|Glycosmis macrophylla|Grindelia hirsutula|Guatteriopsis blepharophylla|Gymnodinium nagasakiense|Gypsophila perfoliata|Hedychium spicatum|Heterotheca grandiflora|Humulus lupulus|Hypericum perforatum|Hypericum polyanthemum|Juniperus drupacea|Juniperus oxycedrus|Karenia mikimotoi|Kumquat|Lentinellus cochleatus|Lepechinia chamaedryoides|Lepechinia chilensis|Leplaea cedrata|Lippia Myriocephala|Liquidambar styraciflua|Magnolia biondii|Magnolia denudata|Magnolia kobus|Magnolia salicifolia|Magnolia sprengeri|Manekia naranjoana|Mangifera indica|Martensia denticulata|Matricaria chamomilla|Melaleuca acacioides|Melaleuca alternifolia|Melaleuca cajuputi|Melaleuca linariifolia|Mentha cardiaca|Neolentinus lepideus|Ononis spinosa|Oplopanax elatus|Panax ginseng|Pelargonium endlicherianum|Pentaclethra macrophylla|Periploca sepium|Persea tolimanensis|Persicaria hydropiperoides|Persicaria minor|Pilgerodendron uviferum|Pinellia ternata|Pinus sylvestris|Piper arboreum|Piper auritum|Piper cubeba|Piper fimbriulatum|Piper obliquum|Plectranthus myrianthus|Polygonum minus|Porphyra tenera|Psiadia altissima|Psidium friedrichsthalianum|Psidium guajava|Psidium salutare|Pterocaulon virgatum|Resina liquidambaris|Rhamnus petiolaris|Rhodiola semenovii|Salvia mirzayanii|Salvia sessei|Santolina chamaecyparissus|Scutellaria barbata|Scytosiphon lomentaria|Sideritis argyrea|Sideritis brevidens|Sideritis congesta|Sideritis lyciae|Sideritis rubriflora|Sonneratia caseolaris|Spondias mombin|Stephania zippeliana|Swertia japonica|Talaromyces variabilis|Taonia atomaria|Thymus camphoratus|Thymus willkommii|Toona ciliata|Tristania conferta|Uncaria macrophylla|Uvaria chamae|Valeriana jatamansi|Vernonia cistifolia|Veronica polita|West African Pepper|Zanthoxylum bungeanum|Zanthoxylum piperitum|Zanthoxylum schinifolium|Zea mays|Zingiber cassumunar Roxb.|Zingiber officinale

>  <collections>  (1866) 
Australian natural products|CMAUP (cCollective molecular activities of useful plants)|CMNPD|KNApSaCK|Latin America dataset|NAPRORE-CR|NPASS|NPDBEjeCol|NuBBEDB|WikiData Natural Products|ZINC NP

>  <dois>  (1866) 
10.1002/(SICI)1099-1026(199601)11:1<15::AID-FFJ541>3.0.CO;2-H|10.1002/1099-1026(200005/06)15:3<151::AID-FFJ884>3.0.CO;2-E|10.1002/1099-1026(200009/10)15:5<352::AID-FFJ925>3.0.CO;2-R|10.1002/CBDV.201400340|10.1002/FFJ.1128|10.1002/FFJ.2730030208|10.1002/FFJ.2730070109|10.1002/FFJ.2730100310|10.1002/JSSC.200800253|10.1002/MRC.1260330305|10.1007/BF02238211|10.1016/0031-9422(88)80286-3|10.1016/0031-9422(88)80461-8|10.1016/0031-9422(89)80069-X|10.1016/0031-9422(89)80070-6|10.1016/0031-9422(90)83036-Z|10.1016/0031-9422(91)83632-U|10.1016/0031-9422(91)84207-9|10.1016/0031-9422(91)85017-T|10.1016/0031-9422(92)80160-G|10.1016/0031-9422(95)00357-D|10.1016/0031-9422(95)00601-X|10.1016/J.FOODCHEM.2018.09.082|10.1016/J.PHYTOCHEM.2003.08.004|10.1016/J.PHYTOCHEM.2009.06.013|10.1016/S0031-9422(00)81118-8|10.1016/S0031-9422(00)81313-8|10.1016/S0031-9422(00)83061-7|10.1016/S0031-9422(03)00188-2|10.1016/S0031-9422(97)00117-9|10.1016/S0031-9422(97)00400-7|10.1016/S0031-9422(97)00762-0|10.1016/S0378-8741(00)00214-2|10.1016/j.foodchem.2020.127109|10.1021/JA02260A021|10.1021/JF00034A020|10.1021/JF00035A029|10.1021/JF00083A001|10.1021/JF00118A056|10.1021/JF0116303|10.1021/JF0402633|10.1021/NP0101402|10.1021/NP400872M|10.1021/jf011456i|10.1021/np400872m|10.1039/np9840100251|10.1055/S-2006-957488|10.1055/S-2006-960872|10.1055/S-2006-961452|10.1055/S-2006-962016|10.1055/S-2006-962450|10.1080/07373937.2011.634976|10.1080/0972060X.2014.895210|10.1080/10412905.1992.9698127|10.1080/10412905.1994.9698380|10.1080/10412905.1994.9698408|10.1080/10412905.1994.9699347|10.1080/10412905.1994.9699362|10.1080/10412905.1995.9698496|10.1080/10412905.1995.9698502|10.1080/10412905.1998.9700913|10.1080/10412905.1999.9701096|10.1080/10412905.2000.9712159|10.1080/10412905.2004.9698688|10.1080/10412905.2010.9700304|10.1080/10412905.2013.796498|10.1080/10575630108041269|10.1177/1934578X0800301225|10.1177/1934578X1100600135|10.1246/BCSJ.54.2366|10.1246/BCSJ.56.3477|10.1248/CPB.52.354|10.1515/ZNC-1986-11-1201|10.1590/S0103-50532000000600012|10.17660/ACTAHORTIC.2005.679.1|10.2307/2423424|10.3390/MOLECULES191119220|10.3390/MOLECULES21060814|10.5694/J.1326-5377.1998.TB126732.X

>  <synonyms>  (1866) 
(-)-Cubenol|(1S,4R,4aR,8aR)-4,7-dimethyl-1-propan-2-yl-2,3,4,5,6,8a-hexahydro-1H-naphthalen-4a-ol|1-Isopropyl-4,7-dimethyl-1,3,4,5,6,8a-hexahydro-4a(2H)-naphthalenol-, [1S-(1.alpha.,4.beta.,4a.beta.,8a.alpha.)]-|10.beta.H-Cadin-4-en-1-ol|21284-22-0|CHEBI:156224|CHEMBL3120655|Cubenol|SCHEMBL437170|cadin-4-en-1-ol|cubenol|epicubenol

>  <cas>  (1866) 
nan

$$$$

     RDKit          2D

 15 16  0  0  0  0  0  0  0  0999 V2000
   -3.4352    2.7440    0.0000 C   0  0  0  0  0  0  0  0  0  0  0  0
   -3.2727    1.2528    0.0000 O   0  0  0  0  0  0  0  0  0  0  0  0
   -1.9000    0.6480    0.0000 C   0  0  0  0  0  0  0  0  0  0  0  0
   -0.6899    1.5343    0.0000 C   0  0  0  0  0  0  0  0  0  0  0  0
    0.6827    0.9294    0.0000 C   0  0  0  0  0  0  0  0  0  0  0  0
    0.8453   -0.5617    0.0000 C   0  0  0  0  0  0  0  0  0  0  0  0
   -0.3649   -1.4481    0.0000 C   0  0  0  0  0  0  0  0  0  0  0  0
   -1.7375   -0.8432    0.0000 C   0  0  0  0  0  0  0  0  0  0  0  0
   -2.9477   -1.7295    0.0000 O   0  0  0  0  0  0  0  0  0  0  0  0
   -2.7851   -3.2207    0.0000 C   0  0  0  0  0  0  0  0  0  0  0  0
    2.2179   -1.1666    0.0000 O   0  0  0  0  0  0  0  0  0  0  0  0
    3.4280   -0.2802    0.0000 C   0  0  0  0  0  0  0  0  0  0  0  0
    4.8007   -0.8851    0.0000 O   0  0  0  0  0  0  0  0  0  0  0  0
    3.2655    1.2109    0.0000 C   0  0  0  0  0  0  0  0  0  0  0  0
    1.8929    1.8158    0.0000 C   0  0  0  0  0  0  0  0  0  0  0  0
  1  2  1  0
  2  3  1  0
  3  4  2  0
  4  5  1  0
  5  6  2  0
  6  7  1  0
  7  8  2  0
  8  9  1  0
  9 10  1  0
  6 11  1  0
 11 12  1  0
 12 13  2  0
 12 14  1  0
 14 15  2  0
  8  3  1  0
 15  5  1  0
M  END
>  <identifier>  (1867) 
CNP0286100.0

>  <canonical_smiles>  (1867) 
COC1=CC2=C(C=C1OC)OC(=O)C=C2

>  <standard_inchi>  (1867) 
InChI=1S/C11H10O4/c1-13-9-5-7-3-4-11(12)15-8(7)6-10(9)14-2/h3-6H,1-2H3

>  <standard_inchi_key>  (1867) 
GUAFOGOEJLSQBT-UHFFFAOYSA-N

>  <name>  (1867) 
Scoparone

>  <iupac_name>  (1867) 
6,7-dimethoxychromen-2-one

>  <annotation_level>  (1867) 
5

>  <total_atom_count>  (1867) 
25

>  <heavy_atom_count>  (1867) 
15

>  <molecular_weight>  (1867) 
206.2

>  <exact_molecular_weight>  (1867) 
206.05791

>  <molecular_formula>  (1867) 
C11H10O4

>  <alogp>  (1867) 
1.81

>  <topological_polar_surface_area>  (1867) 
48.67

>  <rotatable_bond_count>  (1867) 
2

>  <hydrogen_bond_acceptors>  (1867) 
4

>  <hydrogen_bond_donors>  (1867) 
0

>  <hydrogen_bond_acceptors_lipinski>  (1867) 
4

>  <hydrogen_bond_donors_lipinski>  (1867) 
0

>  <lipinski_rule_of_five_violations>  (1867) 
0

>  <aromatic_rings_count>  (1867) 
2

>  <qed_drug_likeliness>  (1867) 
0.70

>  <formal_charge>  (1867) 
0

>  <fractioncsp3>  (1867) 
0.18

>  <number_of_minimal_rings>  (1867) 
2

>  <van_der_walls_volume>  (1867) 
178.39

>  <contains_sugar>  (1867) 
False

>  <contains_ring_sugars>  (1867) 
False

>  <contains_linear_sugars>  (1867) 
False

>  <murcko_framework>  (1867) 
O1c2ccccc2C=CC1

>  <np_likeness>  (1867) 
0.55

>  <chemical_class>  (1867) 
Coumarins and derivatives

>  <chemical_sub_class>  (1867) 
Coumarins and derivatives

>  <chemical_super_class>  (1867) 
Phenylpropanoids and polyketides

>  <direct_parent_classification>  (1867) 
Coumarins and derivatives

>  <np_classifier_pathway>  (1867) 
Shikimates and Phenylpropanoids

>  <np_classifier_superclass>  (1867) 
Coumarins

>  <np_classifier_class>  (1867) 
Simple coumarins

>  <np_classifier_is_glycoside>  (1867) 
False

>  <organisms>  (1867) 
'Empleurum unicapsularis'|Acanthopanax gracilistylus|Achillea biserrata|Achillea impatiens|Achillea schischkinii|Achyranthes aspera|Achyrocline bogotensis|Acronychia laurifolia|Adenia fruticosa|Aegle Marmelos|Aegle marmelos|Aeglopsis chevalieri|Aeromonas hydrophila|Afraegle paniculata|Agathosma affinis|Agathosma capensis|Agathosma cedrimontana|Agathosma ciliaris|Agathosma collina|Agathosma dielsiana|Agathosma eriantha|Agathosma imbricata|Agathosma lanceolata|Agathosma martiana|Agathosma recurvifolia|Agathosma scaberula|Agave deserti|Aglaia erythrosperma|Aglaia pyramidata|Ajania przewalskii|Aldama robusta|Aldama tucumanensis|Aldama tukumanensis|Aleurites moluccanus|Allamanda schottii|Anagallis arvensis|Angelica dahurica|Anisotome pilifera|Apium graveolens|Arabidopsis thaliana|Aralia Chinensis|Aralia bipinnata|Aralia chinensis|Aralia dasyphylla|Aralia fargesii|Armillaria tabescens|Artemisia Annua|Artemisia Capillaris|Artemisia adamsii|Artemisia annua|Artemisia annua L.|Artemisia apiacea|Artemisia argyi|Artemisia campestris|Artemisia capillaries|Artemisia capillaris|Artemisia carvifolia|Artemisia caucasica|Artemisia dracunculoides|Artemisia dracunculus|Artemisia glauca|Artemisia granatensis|Artemisia laciniata|Artemisia marschalliana|Artemisia montana|Artemisia nova|Artemisia princeps|Artemisia reptans|Artemisia scoparia|Artemisia sp.|Artemisia tridentata|Artemisia turanica|Artemisia vestita|Asclepias subulata|Aster ptarmicoides|Asteraceae|Barbados nut|Barnettia kerrii|Betula davurica|Bombina variegata|Boronella koniambiensis|Boronia koniambiensis|Bothriocline amplifolia|Brassica oleracea var. sabauda|Brickellia baccharidea|Bunium ferulaceum|Bunium incrassatum|Bunium pachypodum|Bupleurum fruticescens|Bupleurum fruticosum|Bupleurum salicifolium|Buxus rugulosa|Buxus wallichiana|Calea ternifolia|Canarium album|Casimiroa edulis|Castanea mollissima|Catunaregam spinosa|Cedrelopsis grevei|Cedrelopsis grevei Baill|Celastrus monospermus|Centaurea collina|Centrosema haitense|Cherry Orange|Chiliadenus candicans|Citrus Sinensis|Citrus jambhiri|Citrus japonica|Citrus macrophylla|Citrus medica|Citrus medica var. etrog|Citrus medica var. sarcodactylis|Citrus reticulata|Citrus sinensis|Citrus sinensis cv.Valencia|Citrus sulcata|Citrus tamurana|Citrus unshiu|Citrus wilsonii|Citrus × deliciosa|Citrus × paradisi|Clerodendranthus spicatus|Colchicum ritchii|Conium maculatum|Cordia multispicata|Coriandrum sativum|Corydalis gigantea|Corydalis suaveolens|Crella incrustans|Cuscuta reflexa|Cyathula officinalis|Cybister lateralimarginalis|Cynanchum viminale|Cystoseira caespitosa|Dendrobium aurantiacum var. denneanum|Dendrobium aurantiacum var.denneanum|Dendrobium candidum|Dendrobium capillipes|Dendrobium chrysanthum|Dendrobium chrysotoxum|Dendrobium densiflorum|Dendrobium fimbriatum|Dendrobium loddigesii|Dendrobium nobile|Dendrobium officinale|Dendrobium thyrsiflorum|Dendrobium tosaense|Deverra tortuosa|Dictamnus albus|Dictamnus angustifolius|Dimelaena oreina|Diosma acmaephylla|Drimia fugax|Duguetia furfuracea|Duranta Repens|Duranta erecta|Duranta repens|Dysidea villosa|Dysosma delavayi|Echinochloa esculenta|Echinopepon bigelovii|Echinosophora koreensis|Eleutherococcus sessiliflorus|Elsholtzia cristata|Empleurum unicapsulare|Enantia chlorantha|Endarachne binghamiae|Epipedobates anthonyi|Eriostemon myoporoides|Eriostemon tomentellus|Erythroxylum barbatum|Erythroxylum passerinum|Esenbeckia flava|Espeletia spectabilis|Ethulia vernonioides|Eupatorium lindleyanum|Euphorbia hirta|Euphorbia iberica|Eutrochium purpureum|Exobasidium vaccinii|Fagara macrophylla|Ferula badhysi|Ferula linkii|Ferula oopoda|Flourensia macrophylla|Forsythia suspensa|Forsythia suspense|Fraxinus excelsior|Fraxinus sp.|Fusarium dimerum|Galium album|Garcinia conrauana|Garcinia kola|Garcinia multiflora|Gardenia jasminoides|Gentiana kuroo|Gentiana kurroo|Gomortega keule|Gomphostemma crinitum|Gonospermum ferulaceum|Gonospermum fruticosum|Gonospermum gomerae|Gonospermum revolutum|Haplophyllum ramosissimum|Haplophyllum thesioides|Herba artemisiae scopariae|Herba dendrobii|Hibiscus taiwanensis|Hopea brevipetiolaris|Hormothamnion enteromorphoides|Hortia longifolia|Hortia regia|Hortonia floribunda|Hosta sieboldiana|Hyphear tanakae|Hypholoma capnoides|Hyuganatsu|Inula salsoloides|Jacobaea cannabifolia|Keetia multiflora|Khaya Senegalensis|Khaya ivorensis|Khaya senegalensis|Khaya senegalensis L.|Kleinia fulgens|Kumquat|Lactarius deliciosus var. deterrimus|Lactarius subpiperatus|Lactarius vellereus|Lanaria lanata|Latrunculia brevis|Laurencia rigida|Lepiniopsis ternatensis|Leptopetalum biflorum|Libanothamnus occultus|Libanothamnus spectabilis|Licaria armeniaca|Liriodendron tulipifera|Lobelia chinensis|Lophozia floerkei|Magnolia coco|Magnolia grandiflora|Magnolia salicifolia|Maharanga bicolor|Melia azedarach|Melicope borbonica|Menyanthes sp.|Menyanthes trifoliata|Metalasia capitata|Metalasia cephalotes|Microtropis japonica|Millettia rubiginosa|Monascus kaoliang|Monodora brevipes|Morinda coreia|Morus macroura|Mosla japonica|Neopringlea integrifolia|Nocardia pseudobrasiliensis|Nostoc commune var. flagelliforme|Notechis scutatus|Ocypus olens|Olea capensis|Olea sp.|Ormosia semicastrata|Osteospermum hyoseroides|Palythoa tuberculosa|Parmelia zollingeri|Passiflora morifolia|Pericome caudata|Phebalium bilobum|Phebalium squamulosum|Phellodendron Amurense|Phellodendron amurense|Phellodendron japonicum|Phellodendron japonicum MAXIM|Philotheca pachyphylla|Pimpinella anisum|Pinus massoniana|Pittosporum illicioides|Plagiomnium undulatum|Plakortis simplex|Platymiscium yucatanum|Polypodiodes formosana|Pometia eximia|Posoqueria latifolia|Prunus serotina|Pseudodistoma novaezelandiae|Pterocaulon sphacelatum|Pueraria lobata|Pueraria montana var. lobata|Pulicaria arabica|Radix moghaniae philippinensis|Ranunculus laetus|Ranunculus sceleratus|Ranunculus sieboldii|Raphanus raphanistrum|Rhizophora mangle|Rosa sp.|Rosa transmorrisonensis|Rubia wallichiana|Rubia wallichiana DECNE|Rubus phoenicolasius|Ruta angustifolia|Salix alba|Sarcandra glabra|Saussurea brunneopilosa|Saussurea eopygmaea|Saussurea pulchella|Schisandra sphaerandra|Schrebera swietenoides|Scoparia dulcis|Sedum cepaea|Selaginella labordei|Senecio flammeus|Senecio gilliesi|Serratula wolffii|Sesbania grandiflora|Simsia cronquistii|Skimmia laureola|Solanum dasyphyllum|Solanum spirale|Sophora koreensis|Sophora leachiana|Stereocaulon azoreum|Streptomyces olivaceus|Suaeda maritima|Suaeda nudiflora|Tagetes lucida|Talipariti tiliaceum|Tephrosia bidwilli|Thielavia terricola|Thymus nummularius|Torricellia tiliifolia|Trifoliate orange|Uncaria perrottetii|Urbanodendron verrucosum|Vahlia capensis|Vepris glomerata|Veratrum sabadilla|Vernonia lilacina|Viola mandshurica|Viola philippica|Vismia baccifera|White sapote|Xanthoria parietina|Zanthoxylum Acanthopodium|Zanthoxylum Nitidum|Zanthoxylum acanthopodium|Zanthoxylum ailanthoides|Zanthoxylum avicennae|Zanthoxylum beecheyanum|Zanthoxylum dimorphophyllum|Zanthoxylum integrifoliolum|Zanthoxylum leprieurii|Zanthoxylum nitidum|Zanthoxylum schinifolium|Zanthoxylum simulans|Zanthoxylum sp.|Zanthoxylum zanthoxyloides|garcinina multiflora|tarragon

>  <collections>  (1867) 
ANPDB|AfroMalariaDB|AnalytiCon Discovery NPs|Australian natural products|BIOFACQUIM|CMAUP (cCollective molecular activities of useful plants)|ChEBI NPs|ConMedNP|FooDB|HIM (Herbal Ingredients in-vivo Metabolism database)|HIT (Herbal Ingredients Targets)|KNApSaCK|Latin America dataset|NANPDB (Natural Products from Northern African Sources)|NAPRORE-CR|NPACT|NPASS|NPEdia|NuBBEDB|Phyto4Health|PhytoLab phyproof® Reference Substances|SANCDB|Specs Natural Products|Super Natural II|TCMDB-Taiwan (Traditional Chinese Medicine database)|TCMID (Traditional Chinese Medicine Integrated Database)|TIPdb (database of Taiwan indigenous plants)|UNPD (Universal Natural Products Database)|VietHerb|WikiData Natural Products

>  <dois>  (1867) 
10.1002/(SICI)1521-4168(19990401)22:4<222::AID-JHRC222>3.0.CO;2-6|10.1002/CBDV.200800107|10.1002/CHIN.200403232|10.1002/CHIN.200533256|10.1002/CHIN.200844208|10.1002/HLCA.201000313|10.1002/JCCS.199800116|10.1002/JCCS.200400159|10.1002/JCCS.200700112|10.1002/JLAC.198619861208|10.1002/JPS.2600560526|10.1002/JPS.3030350906|10.1002/PCA.2800040207|10.1007/BF00565149|10.1007/BF00567821|10.1007/BF00569022|10.1007/BF00579679|10.1007/BF00579978|10.1007/BF00596693|10.1007/BF00607563|10.1007/BF00629809|10.1007/BF00630620|10.1007/BF00993733|10.1007/BF03171392|10.1007/S10600-007-0196-9|10.1007/S10600-009-9408-9|10.1007/S10600-011-9902-8|10.1007/s10600-007-0196-9|10.1016/0031-9422(73)80524-2|10.1016/0031-9422(73)85149-0|10.1016/0031-9422(80)83072-X|10.1016/0031-9422(81)84045-9|10.1016/0031-9422(82)80171-4|10.1016/0031-9422(82)83033-1|10.1016/0031-9422(86)88018-9|10.1016/0031-9422(90)83033-W|10.1016/0031-9422(90)83068-C|10.1016/0031-9422(91)83491-3|10.1016/0031-9422(91)83506-G|10.1016/0031-9422(92)80304-W|10.1016/0031-9422(92)83157-T|10.1016/0031-9422(92)83450-D|10.1016/0031-9422(93)85057-X|10.1016/0031-9422(93)85291-X|10.1016/0031-9422(94)00710-B|10.1016/0031-9422(94)00943-N|10.1016/0031-9422(95)00054-B|10.1016/0031-9422(95)00072-F|10.1016/0031-9422(95)00093-3|10.1016/0031-9422(95)00584-6|10.1016/0031-9422(95)00749-0|10.1016/0031-9422(95)00930-2|10.1016/0039-9140(76)80022-7|10.1016/0305-1978(92)90072-L|10.1016/0305-1978(96)00057-9|10.1016/0378-8741(89)90060-3|10.1016/J.ARABJC.2011.01.022|10.1016/J.BMC.2005.07.050|10.1016/J.FOODCHEM.2009.04.112|10.1016/J.FOODCHEM.2010.09.069|10.1016/J.LFS.2005.11.020|10.1016/J.PHYTOCHEM.2005.04.001|10.1016/J.PHYTOCHEM.2005.11.006|10.1016/J.PHYTOCHEM.2009.12.013|10.1016/J.PHYTOCHEM.2011.11.018|10.1016/J.PHYTOCHEM.2013.04.002|10.1016/S0021-9673(01)00513-1|10.1016/S0021-9673(01)97678-2|10.1016/S0021-9673(99)01062-6|10.1016/S0031-9422(00)80417-3|10.1016/S0031-9422(00)80483-5|10.1016/S0031-9422(00)80557-9|10.1016/S0031-9422(00)81162-0|10.1016/S0031-9422(00)81759-8|10.1016/S0031-9422(00)82480-2|10.1016/S0031-9422(00)83171-4|10.1016/S0031-9422(00)84991-2|10.1016/S0031-9422(00)85199-7|10.1016/S0031-9422(00)88402-2|10.1016/S0031-9422(00)89536-9|10.1016/S0031-9422(00)90741-6|10.1016/S0031-9422(00)97039-0|10.1016/S0031-9422(00)97993-7|10.1016/S0031-9422(01)00168-6|10.1016/S0031-9422(02)00440-5|10.1016/S0031-9422(03)00342-X|10.1016/S0031-9422(97)00280-X|10.1016/S0031-9422(98)00097-1|10.1016/S0031-9422(98)00247-7|10.1016/S0031-9422(98)00519-6|10.1016/S0040-4020(01)90430-2|10.1016/S0305-1978(01)00023-0|10.1016/S0305-1978(02)00047-9|10.1016/S0305-1978(02)00249-1|10.1016/S0367-326X(00)00314-2|10.1016/S0367-326X(02)00070-9|10.1016/S0367-326X(03)00181-3|10.1016/S0367-326X(99)00051-9|10.1016/S0378-8741(98)00137-8|10.1016/S0968-0896(00)00225-X|10.1016/S1875-5364(12)60009-0|10.1016/j.bse.2006.09.011|10.1016/j.phytol.2012.03.017|10.1016/s0031-9422(00)90400-x|10.1021/JF040017R|10.1021/JF053071W|10.1021/JF9609542|10.1021/JO00829A053|10.1021/JO01273A076|10.1021/NP040187Y|10.1021/NP050013W|10.1021/NP060500R|10.1021/NP070186G|10.1021/NP070594K|10.1021/NP50031A025|10.1021/NP50037A032|10.1021/NP50037A033|10.1021/NP50038A036|10.1021/NP50046A035|10.1021/NP50048A057|10.1021/NP50051A030|10.1021/NP50056A018|10.1021/NP50120A010|10.1021/NP800002Z|10.1021/NP800097T|10.1021/NP8004503|10.1021/NP800474V|10.1021/NP8006364|10.1021/NP800689B|10.1021/NP970571D|10.1055/S-0028-1084385|10.1055/S-1999-13965|10.1055/S-2000-8648|10.1055/S-2002-34925|10.1055/S-2003-37717|10.1055/S-2005-873169|10.1055/S-2005-873178|10.1055/S-2006-960819|10.1055/S-2006-961529|10.1055/S-2006-962183|10.1055/S-2006-962794|10.1055/S-2008-1034372|10.1071/CH9683079|10.1071/ch9640975|10.1071/ch9683079|10.1080/10286020008041369|10.1080/10286020108041376|10.1080/10286020903451757|10.1080/10575639308050059|10.1080/14786419.2010.508038|10.1086/325638|10.1094/PHYTO-78-1678|10.1248/BPB.17.150|10.1248/CPB.33.396|10.1248/CPB.35.2717|10.1248/CPB.36.769|10.1248/CPB.39.2509|10.1248/CPB.39.3265|10.1248/CPB.41.1657|10.1248/CPB.42.108|10.1248/CPB.43.1385|10.1248/CPB.43.2014|10.1248/CPB.49.1356|10.1248/CPB.50.112|10.1248/CPB.50.515|10.1248/CPB.51.948|10.1248/CPB.53.1118|10.1248/CPB.53.56|10.1248/CPB.54.1308|10.1248/CPB.58.61|10.1248/YAKUSHI1947.102.3_285|10.1248/YAKUSHI1947.104.10_1030|10.1248/YAKUSHI1947.107.6_435|10.1515/HFSG.1998.52.5.459|10.1515/ZNC-2001-7-802|10.1590/S0103-50532003000100008|10.3109/13880208809053916|10.3109/13880209409083006|10.3390/MOLECULES22020289|10.3390/molecules22020289|10.3987/COM-08-11630|10.3987/COM-99-8782|10.4268/CJCMM20120224|10.5012/BKCS.2010.31.04.1081

>  <synonyms>  (1867) 
nan

>  <cas>  (1867) 
120-08-1

$$$$

     RDKit          2D

 13 12  0  0  0  0  0  0  0  0999 V2000
   -7.7942   -0.3462    0.0000 C   0  0  0  0  0  0  0  0  0  0  0  0
   -6.4952    0.4038    0.0000 C   0  0  0  0  0  0  0  0  0  0  0  0
   -5.1962   -0.3462    0.0000 C   0  0  0  0  0  0  0  0  0  0  0  0
   -3.8971    0.4038    0.0000 C   0  0  0  0  0  0  0  0  0  0  0  0
   -2.5981   -0.3462    0.0000 C   0  0  0  0  0  0  0  0  0  0  0  0
   -1.2990    0.4038    0.0000 C   0  0  0  0  0  0  0  0  0  0  0  0
    0.0000   -0.3462    0.0000 C   0  0  0  0  0  0  0  0  0  0  0  0
    1.2990    0.4038    0.0000 C   0  0  0  0  0  0  0  0  0  0  0  0
    2.5981   -0.3462    0.0000 C   0  0  0  0  0  0  0  0  0  0  0  0
    3.8971    0.4038    0.0000 C   0  0  0  0  0  0  0  0  0  0  0  0
    5.1962   -0.3462    0.0000 C   0  0  0  0  0  0  0  0  0  0  0  0
    6.4952    0.4038    0.0000 C   0  0  0  0  0  0  0  0  0  0  0  0
    7.7942   -0.3462    0.0000 C   0  0  0  0  0  0  0  0  0  0  0  0
  1  2  1  0
  2  3  1  0
  3  4  1  0
  4  5  1  0
  5  6  1  0
  6  7  1  0
  7  8  1  0
  8  9  1  0
  9 10  1  0
 10 11  1  0
 11 12  1  0
 12 13  1  0
M  END
>  <identifier>  (1868) 
CNP0251262.0

>  <canonical_smiles>  (1868) 
CCCCCCCCCCCCC

>  <standard_inchi>  (1868) 
InChI=1S/C13H28/c1-3-5-7-9-11-13-12-10-8-6-4-2/h3-13H2,1-2H3

>  <standard_inchi_key>  (1868) 
IIYFAKIEWZDVMP-UHFFFAOYSA-N

>  <name>  (1868) 
Tridecane

>  <iupac_name>  (1868) 
tridecane

>  <annotation_level>  (1868) 
5

>  <total_atom_count>  (1868) 
41

>  <heavy_atom_count>  (1868) 
13

>  <molecular_weight>  (1868) 
184.37

>  <exact_molecular_weight>  (1868) 
184.2191

>  <molecular_formula>  (1868) 
C13H28

>  <alogp>  (1868) 
5.32

>  <topological_polar_surface_area>  (1868) 
0.00

>  <rotatable_bond_count>  (1868) 
10

>  <hydrogen_bond_acceptors>  (1868) 
0

>  <hydrogen_bond_donors>  (1868) 
0

>  <hydrogen_bond_acceptors_lipinski>  (1868) 
0

>  <hydrogen_bond_donors_lipinski>  (1868) 
0

>  <lipinski_rule_of_five_violations>  (1868) 
1

>  <aromatic_rings_count>  (1868) 
0

>  <qed_drug_likeliness>  (1868) 
0.40

>  <formal_charge>  (1868) 
0

>  <fractioncsp3>  (1868) 
1.00

>  <number_of_minimal_rings>  (1868) 
0

>  <van_der_walls_volume>  (1868) 
227.70

>  <contains_sugar>  (1868) 
False

>  <contains_ring_sugars>  (1868) 
False

>  <contains_linear_sugars>  (1868) 
False

>  <murcko_framework>  (1868) 
nan

>  <np_likeness>  (1868) 
0.19

>  <chemical_class>  (1868) 
Saturated hydrocarbons

>  <chemical_sub_class>  (1868) 
Alkanes

>  <chemical_super_class>  (1868) 
Hydrocarbons

>  <direct_parent_classification>  (1868) 
Alkanes

>  <np_classifier_pathway>  (1868) 
Fatty acids

>  <np_classifier_superclass>  (1868) 
Fatty acyls

>  <np_classifier_class>  (1868) 
Hydrocarbons

>  <np_classifier_is_glycoside>  (1868) 
False

>  <organisms>  (1868) 
Abelmoschus esculentus|Adrisa magna|Aethus indicus|Albatrellus cristatus|Aleuroglyphus ovatus|Alpinia galanga|Alstonia muelleriana|Angelica acutiloba|Angelica gigas|Angelica sinensis|Arctium lappa|Armoracia rusticana|Artemisia cina|Asarum epigynum|Aster scaber|Atractylodes lancea|Atractylodes macrocephala|Attalea speciosa|Brassica napus|Bupleurum chinense|Camellia sinensis|Cannabis sativa|Carthamus tinctorius|Centaurea benedicta|Ceratophyllum demersum|Chrysanthemum indicum|Chrysanthemum x morifolium|Cirsium dipsacolepis|Cistus creticus|Cistus ladanifer|Cistus laurifolius|Cistus monspeliensis|Citrullus lanatus subsp. vulgaris|Citrus aurantiifolia|Cnicus benedictus|Cnidium officinale|Coreopsis nodosa|Croton jimenezii|Cynanchum stauntoni|Cynanchum stauntonii|Dacrydium cupressinum|Daucus carota|Dendrobium officinale|Digitalis purpurea|Dryopteris assimilis|Dryopteris carthusiana|Dryopteris expansa|Dryopteris filix-mas|Dryopteris spinulosa|Edessa meditabunda|Elsholtzia ciliata|Festuca arundinacea|Festuca rubra|Fructus hippophae|Glycine tomentella|Gymnodinium nagasakiense|Haematococcus lacustris|Hamamelis virginiana|Hedgehog-shaped lip Bulbophyllum|Homo sapiens|Humulus lupulus|Hypericum perforatum|Hypoxylon rubiginosum|Juglans nigra|Karenia mikimotoi|Lantana camara|Leonurus heterophyllus|Leonurus japonicus|Ligusticum chuanxiong|Ligusticum sinense|Lycium barbarum|Lycium chinense|Magnolia obovata|Mangifera indica|Manilkara bidentata|Melia azedarach|Melia azedarach var. toosendan|Meliosma simplicifolia|Melissa officinalis|Mimusops elengi|Mosla chinensis|Nelumbo lutea|Nezara viridula|Nicotiana undulata|Oecophylla smaragdina|Ophrys sphegodes|Orbignya martiana|Oryza sativa|Panax ginseng|Panax schinseng|Passiflora incarnata|Perilla frutescens|Persicaria amphibia|Piper marginatum|Piper nigrum|Plakortis lita|Porphyra tenera|Pterocladiella tenuis|Quercus myrsinifolia|Radix chuanxiong|Rhaponticum uniflorum|Rhizoma chuanxiong|Rhizoprionodon acutus|Rhytidoponera metallica|Saccharomyces pastori|Sauromatum venosum|Scutellaria baicalensis|Senecio isatideus|Senecio nemorensis|Senecio paludaffinis|Senna alexandrina|Sideritis hispida|Stellera chamaejasme|Streptomyces flocculus|Tachigalia paniculata|Thyanta perditor|Trigonella foenum-graecum|Trigonella grandiflora|Tripolium pannonicum|Typhonium flagelliforme|Uvaria calamistrata|Vaccinium angustifolium|Verbena officinalis|Vincetoxicum glaucescens|Vincetoxicum stauntonii|Zingiber officinale|bellis perennis|liquorice|potato|tomato

>  <collections>  (1868) 
Australian natural products|CMAUP (cCollective molecular activities of useful plants)|ChEBI NPs|EMNPD|FooDB|KNApSaCK|Latin America dataset|NAPRORE-CR|NPASS|NuBBEDB|Phyto4Health|Super Natural II|TCMDB-Taiwan (Traditional Chinese Medicine database)|TCMID (Traditional Chinese Medicine Integrated Database)|UNPD (Universal Natural Products Database)|WikiData Natural Products|ZINC NP

>  <dois>  (1868) 
10.1002/(SICI)1099-1026(199901/02)14:1<15::AID-FFJ777>3.0.CO;2-M|10.1002/CJOC.201180379|10.1002/FFJ.1588|10.1002/JSFA.8889|10.1007/BF02118429|10.1007/S00709-019-01372-4|10.1007/S10600-011-9920-6|10.1007/S11306-007-0058-2|10.1016/0031-9422(90)83036-Z|10.1016/0031-9422(91)84185-U|10.1016/0031-9422(92)80160-G|10.1016/0031-9422(95)00183-8|10.1016/J.CHROMA.2014.10.058|10.1016/J.FOODCHEM.2008.09.107|10.1016/J.FOODCHEM.2013.02.030|10.1016/J.IJFOODMICRO.2008.10.017|10.1016/J.INDCROP.2014.04.048|10.1016/J.PHYTOCHEM.2009.06.013|10.1016/J.RENENE.2017.12.012|10.1016/S0031-9422(00)80814-6|10.1016/S0031-9422(00)81276-5|10.1016/S0031-9422(00)81427-2|10.1016/S0031-9422(00)90341-8|10.1016/S0031-9422(00)94756-3|10.1016/S0378-8741(01)00274-4|10.1016/j.foodchem.2013.02.030|10.1021/JF00034A033|10.1021/JF00085A053|10.1021/JF00120A031|10.1021/NP50008A001|10.1021/NP50046A033|10.1021/NP50055A014|10.1021/jf00120a031|10.1039/JR9630000677|10.1055/S-0028-1099475|10.1055/S-0028-1099484|10.1055/S-2006-957420|10.1055/S-2007-969591|10.1055/S-2007-969987|10.1080/00021369.1988.10868804|10.1080/00021369.1990.10870456|10.1080/10286020290028992|10.1080/10412905.1991.9697919|10.1080/10412905.1991.9697932|10.1080/10412905.1992.9698128|10.1080/10412905.1994.9698418|10.1080/10412905.1994.9698425|10.1080/10412905.1994.9699345|10.1080/10412905.1995.9698546|10.1080/10412905.2002.9699883|10.1088/1752-7155/8/1/014001|10.1096/fj.06-6927com|10.1111/j.1365-2621.1985.tb01819.x|10.1135/CCCC19811048|10.1155/2017/7436259|10.1248/CPB.30.4518|10.1248/YAKUSHI1947.107.3_209|10.1248/YAKUSHI1947.107.3_219|10.1271/BBB1961.51.1449|10.1271/BBB1961.52.1299|10.1271/BBB1961.54.3335|10.1271/NOGEIKAGAKU1924.61.1119|10.1515/ZNC-1982-1-202|10.1515/ZNC-1984-3-422|10.1515/ZNC-1984-7-802|10.1631/JZUS.B1200086|10.3390/IJMS18020452|10.3390/MOLECULES18010963

>  <synonyms>  (1868) 
629-50-5|757DB156-6441-49B0-A824-1532074AC0F6|A3LZF0L939|AKOS016011009|CAS-629-50-5|CH3-[CH2]11-CH3|CHEBI:35998|CHEMBL135694|CS-0128437|DB-054344|DTXCID307266|DTXSID6027266|Dodecane, methyl-|EC 211-093-4|EINECS 211-093-4|HSDB 5727|HY-W088037|InChI=1\/C13H28\/c1-3-5-7-9-11-13-12-10-8-6-4-2\/h3-13H2,1-2H|LMFA11000001|LS-14257|MFCD00008979|N-TRIDECANE|N-TRIDECANE [HSDB]|NCGC00257175-01|NS00010717|NSC 66205|NSC-66205|Q150788|STL301147|T0411|TRD|TRIDECANE [INCI]|TRIDECANE, N-|Tox21_303043|Tridecane|Tridecane, 99.0%|Tridecane, >=99%|Tridecane, analytical standard|Tridecane-multiple sizes available|Tridecane_GurudeebanSatyavani|Tridekan|UNII-A3LZF0L939|n-tridecane|tridecan

>  <cas>  (1868) 
629-50-5

$$$$

     RDKit          2D

 48 55  0  0  0  0  0  0  0  0999 V2000
    9.7286   -2.7564    0.0000 C   0  0  0  0  0  0  0  0  0  0  0  0
    8.2290   -2.7219    0.0000 C   0  0  0  0  0  0  0  0  0  0  0  0
    7.5091   -1.4060    0.0000 C   0  0  0  0  0  0  0  0  0  0  0  0
    8.2888   -0.1246    0.0000 C   0  0  0  0  0  0  0  0  0  0  0  0
    6.0095   -1.3715    0.0000 C   0  0  0  0  0  0  0  0  0  0  0  0
    5.2298   -2.6530    0.0000 O   0  0  0  0  0  0  0  0  0  0  0  0
    5.2896   -0.0556    0.0000 O   0  0  0  0  0  0  0  0  0  0  0  0
    3.0901   -0.0050    0.0000 C   0  0  0  0  0  0  0  0  0  0  0  0
    2.6743   -0.6885    0.0000 C   0  0  0  0  0  0  0  0  0  0  0  0
    1.8745   -0.6701    0.0000 C   0  0  0  0  0  0  0  0  0  0  0  0
    1.0643   -2.7001    0.0000 O   0  0  0  0  0  0  0  0  0  0  0  0
    0.7907    0.0478    0.0000 C   0  0  0  0  0  0  0  0  0  0  0  0
    1.2214   -1.3890    0.0000 C   0  0  0  0  0  0  0  0  0  0  0  0
   -0.0121   -2.2426    0.0000 O   0  0  0  0  0  0  0  0  0  0  0  0
   -1.2051   -1.3332    0.0000 C   0  0  0  0  0  0  0  0  0  0  0  0
   -2.7034   -1.4036    0.0000 O   0  0  0  0  0  0  0  0  0  0  0  0
   -1.9847   -2.6147    0.0000 C   0  0  0  0  0  0  0  0  0  0  0  0
   -3.4773   -2.7633    0.0000 O   0  0  0  0  0  0  0  0  0  0  0  0
   -1.2648   -3.9306    0.0000 O   0  0  0  0  0  0  0  0  0  0  0  0
   -2.0444   -5.2121    0.0000 C   0  0  0  0  0  0  0  0  0  0  0  0
   -0.7089    0.0823    0.0000 C   0  0  0  0  0  0  0  0  0  0  0  0
   -1.4288    1.3982    0.0000 C   0  0  0  0  0  0  0  0  0  0  0  0
   -2.5554    2.3886    0.0000 C   0  0  0  0  0  0  0  0  0  0  0  0
   -2.5997    0.4607    0.0000 C   0  0  0  0  0  0  0  0  0  0  0  0
   -1.7897   -0.8018    0.0000 O   0  0  0  0  0  0  0  0  0  0  0  0
   -3.2881   -0.8720    0.0000 C   0  0  0  0  0  0  0  0  0  0  0  0
   -3.5568   -2.3477    0.0000 C   0  0  0  0  0  0  0  0  0  0  0  0
   -4.8468   -0.7811    0.0000 C   0  0  0  0  0  0  0  0  0  0  0  0
   -3.5843    0.0289    0.0000 C   0  0  0  0  0  0  0  0  0  0  0  0
   -3.6545    1.5272    0.0000 C   0  0  0  0  0  0  0  0  0  0  0  0
   -4.9872    2.2156    0.0000 O   0  0  0  0  0  0  0  0  0  0  0  0
   -6.2497    1.4056    0.0000 C   0  0  0  0  0  0  0  0  0  0  0  0
   -7.6965    1.8019    0.0000 O   0  0  0  0  0  0  0  0  0  0  0  0
   -8.5204    0.5484    0.0000 C   0  0  0  0  0  0  0  0  0  0  0  0
   -7.5828   -0.6225    0.0000 C   0  0  0  0  0  0  0  0  0  0  0  0
   -6.1795   -0.0927    0.0000 C   0  0  0  0  0  0  0  0  0  0  0  0
   -6.2663   -1.5902    0.0000 O   0  0  0  0  0  0  0  0  0  0  0  0
   -0.6491    2.6797    0.0000 C   0  0  0  0  0  0  0  0  0  0  0  0
   -1.3691    3.9956    0.0000 O   0  0  0  0  0  0  0  0  0  0  0  0
    0.8505    2.6452    0.0000 C   0  0  0  0  0  0  0  0  0  0  0  0
    1.9880    3.6230    0.0000 O   0  0  0  0  0  0  0  0  0  0  0  0
    3.2694    2.8434    0.0000 C   0  0  0  0  0  0  0  0  0  0  0  0
    3.0700    1.2948    0.0000 C   0  0  0  0  0  0  0  0  0  0  0  0
    3.8497    2.5763    0.0000 C   0  0  0  0  0  0  0  0  0  0  0  0
    3.1297    3.8922    0.0000 O   0  0  0  0  0  0  0  0  0  0  0  0
    5.3493    2.5418    0.0000 O   0  0  0  0  0  0  0  0  0  0  0  0
    6.1289    3.8232    0.0000 C   0  0  0  0  0  0  0  0  0  0  0  0
    1.5704    1.3293    0.0000 C   0  0  0  0  0  0  0  0  0  0  0  0
  1  2  1  0
  2  3  2  0
  3  4  1  0
  3  5  1  0
  5  6  2  0
  5  7  1  0
  8  7  1  6
  8  9  1  0
  9 10  1  0
 10 11  1  6
 10 12  1  0
 12 13  1  1
 13 14  1  0
 14 15  1  0
 15 16  1  1
 15 17  1  0
 17 18  2  0
 17 19  1  0
 19 20  1  0
 21 15  1  1
 21 22  1  0
 22 23  1  1
 22 24  1  0
 24 25  1  1
 25 26  1  0
 26 27  1  6
 26 28  1  0
 28 29  1  1
 29 30  1  0
 30 31  1  6
 32 31  1  1
 32 33  1  0
 33 34  1  0
 34 35  2  0
 35 36  1  0
 36 37  1  6
 22 38  1  0
 38 39  1  6
 38 40  1  0
 40 41  1  6
 41 42  1  0
 42 43  1  0
 43 44  1  1
 44 45  2  0
 44 46  1  0
 46 47  1  0
 43 48  1  0
 43  8  1  0
 21 12  1  0
 26 24  1  0
 36 28  1  0
 48 40  1  1
 48 12  1  0
 30 24  1  0
 36 32  1  0
M  END
>  <identifier>  (1869) 
CNP0197595.1

>  <canonical_smiles>  (1869) 
C/C=C(\C)C(=O)O[C@@H]1C[C@H](O)[C@]23CO[C@](O)(C(=O)OC)[C@H]2[C@](C)([C@]24O[C@@]2(C)[C@H]2C[C@@H]4O[C@@H]4OC=C[C@@]42O)[C@H](O)[C@@H]2OC[C@@]1(C(=O)OC)[C@H]23

>  <standard_inchi>  (1869) 
InChI=1S/C33H42O15/c1-7-14(2)22(36)46-17-11-16(34)29-13-45-32(40,25(38)42-6)23(29)27(3,21(35)19-20(29)30(17,12-44-19)24(37)41-5)33-18-10-15(28(33,4)48-33)31(39)8-9-43-26(31)47-18/h7-9,15-21,23,26,34-35,39-40H,10-13H2,1-6H3/b14-7+/t15-,16+,17-,18+,19-,20-,21-,23+,26+,27-,28+,29+,30+,31+,32+,33+/m1/s1

>  <standard_inchi_key>  (1869) 
KAJFOBKSQVMLSY-SEBWSFJVSA-N

>  <name>  (1869) 
nan

>  <iupac_name>  (1869) 
dimethyl (1~{S},4~{S},5~{R},6~{S},7~{S},8~{R},11~{S},12~{R},14~{S},15~{R})-4,7,14-trihydroxy-6-[(1~{S},2~{S},6~{S},8~{S},9~{R},11~{S})-2-hydroxy-11-methyl-5,7,10-trioxatetracyclo[6.3.1.0^{2,6}.0^{9,11}]dodec-3-en-9-yl]-6-methyl-12-[(~{E})-2-methylbut-2-enoyl]oxy-3,9-dioxatetracyclo[6.6.1.0^{1,5}.0^{11,15}]pentadecane-4,11-dicarboxylate

>  <annotation_level>  (1869) 
4

>  <total_atom_count>  (1869) 
90

>  <heavy_atom_count>  (1869) 
48

>  <molecular_weight>  (1869) 
678.68

>  <exact_molecular_weight>  (1869) 
678.25237

>  <molecular_formula>  (1869) 
C33H42O15

>  <alogp>  (1869) 
-0.77

>  <topological_polar_surface_area>  (1869) 
209.27

>  <rotatable_bond_count>  (1869) 
5

>  <hydrogen_bond_acceptors>  (1869) 
15

>  <hydrogen_bond_donors>  (1869) 
4

>  <hydrogen_bond_acceptors_lipinski>  (1869) 
15

>  <hydrogen_bond_donors_lipinski>  (1869) 
4

>  <lipinski_rule_of_five_violations>  (1869) 
2

>  <aromatic_rings_count>  (1869) 
0

>  <qed_drug_likeliness>  (1869) 
0.12

>  <formal_charge>  (1869) 
0

>  <fractioncsp3>  (1869) 
0.79

>  <number_of_minimal_rings>  (1869) 
8

>  <van_der_walls_volume>  (1869) 
nan

>  <contains_sugar>  (1869) 
False

>  <contains_ring_sugars>  (1869) 
False

>  <contains_linear_sugars>  (1869) 
False

>  <murcko_framework>  (1869) 
O1CC2C(CC3OCC4CCCC2(C1)C34)C56OC6C7CC5OC8OC=CC87

>  <np_likeness>  (1869) 
3.54

>  <chemical_class>  (1869) 
Prenol lipids

>  <chemical_sub_class>  (1869) 
Triterpenoids

>  <chemical_super_class>  (1869) 
Lipids and lipid-like molecules

>  <direct_parent_classification>  (1869) 
Limonoids

>  <np_classifier_pathway>  (1869) 
Terpenoids

>  <np_classifier_superclass>  (1869) 
Triterpenoids

>  <np_classifier_class>  (1869) 
Limonoids

>  <np_classifier_is_glycoside>  (1869) 
True

>  <organisms>  (1869) 
Aristolochia indica|Azadirachta indica

>  <collections>  (1869) 
Latin America dataset|NuBBEDB|Super Natural II|WikiData Natural Products

>  <dois>  (1869) 
10.1016/0031-9422(96)00226-9|10.1039/C0AY00008F|10.1039/c0ay00008f

>  <synonyms>  (1869) 
3-tigloylazadirachtol

>  <cas>  (1869) 
nan

$$$$

     RDKit          2D

 38 40  0  0  0  0  0  0  0  0999 V2000
    6.6324   -2.9330    0.0000 C   0  0  0  0  0  0  0  0  0  0  0  0
    5.1751   -2.5774    0.0000 C   0  0  0  0  0  0  0  0  0  0  0  0
    4.1386   -3.6616    0.0000 C   0  0  0  0  0  0  0  0  0  0  0  0
    4.5593   -5.1014    0.0000 C   0  0  0  0  0  0  0  0  0  0  0  0
    2.6813   -3.3061    0.0000 C   0  0  0  0  0  0  0  0  0  0  0  0
    2.2606   -1.8663    0.0000 C   0  0  0  0  0  0  0  0  0  0  0  0
    0.8034   -1.5107    0.0000 C   0  0  0  0  0  0  0  0  0  0  0  0
    0.7063   -3.0076    0.0000 C   0  0  0  0  0  0  0  0  0  0  0  0
    1.4066   -0.1374    0.0000 C   0  0  0  0  0  0  0  0  0  0  0  0
    2.8976    0.0269    0.0000 C   0  0  0  0  0  0  0  0  0  0  0  0
    0.5188    1.0717    0.0000 C   0  0  0  0  0  0  0  0  0  0  0  0
    1.1221    2.4451    0.0000 O   0  0  0  0  0  0  0  0  0  0  0  0
    2.6130    2.6094    0.0000 C   0  0  0  0  0  0  0  0  0  0  0  0
    3.5008    1.4003    0.0000 O   0  0  0  0  0  0  0  0  0  0  0  0
    3.2162    3.9827    0.0000 C   0  0  0  0  0  0  0  0  0  0  0  0
    4.7072    4.1470    0.0000 C   0  0  0  0  0  0  0  0  0  0  0  0
    5.3104    5.5204    0.0000 C   0  0  0  0  0  0  0  0  0  0  0  0
   -0.9721    0.9074    0.0000 C   0  0  0  0  0  0  0  0  0  0  0  0
   -1.5409    2.2954    0.0000 O   0  0  0  0  0  0  0  0  0  0  0  0
   -1.5753   -0.4659    0.0000 C   0  0  0  0  0  0  0  0  0  0  0  0
   -3.0663   -0.6302    0.0000 C   0  0  0  0  0  0  0  0  0  0  0  0
   -3.6695   -2.0036    0.0000 C   0  0  0  0  0  0  0  0  0  0  0  0
   -2.7818   -3.2127    0.0000 C   0  0  0  0  0  0  0  0  0  0  0  0
   -3.3850   -4.5860    0.0000 O   0  0  0  0  0  0  0  0  0  0  0  0
   -4.8759   -4.7503    0.0000 C   0  0  0  0  0  0  0  0  0  0  0  0
   -1.2908   -3.0484    0.0000 C   0  0  0  0  0  0  0  0  0  0  0  0
   -0.6876   -1.6750    0.0000 C   0  0  0  0  0  0  0  0  0  0  0  0
   -2.6491   -0.9932    0.0000 C   0  0  0  0  0  0  0  0  0  0  0  0
   -5.1521    1.0415    0.0000 O   0  0  0  0  0  0  0  0  0  0  0  0
   -5.6228    2.4657    0.0000 C   0  0  0  0  0  0  0  0  0  0  0  0
   -7.0915    2.7702    0.0000 C   0  0  0  0  0  0  0  0  0  0  0  0
   -4.6247    3.5855    0.0000 O   0  0  0  0  0  0  0  0  0  0  0  0
   -2.3436   -0.3411    0.0000 O   0  0  0  0  0  0  0  0  0  0  0  0
   -1.9036   -0.9111    0.0000 C   0  0  0  0  0  0  0  0  0  0  0  0
    0.0964    1.6198    0.0000 O   0  0  0  0  0  0  0  0  0  0  0  0
    0.2457    3.1124    0.0000 C   0  0  0  0  0  0  0  0  0  0  0  0
    1.6129    3.7294    0.0000 C   0  0  0  0  0  0  0  0  0  0  0  0
   -0.9723    3.9879    0.0000 O   0  0  0  0  0  0  0  0  0  0  0  0
  1  2  2  0
  2  3  1  0
  3  4  1  0
  3  5  2  0
  5  6  1  0
  6  7  1  0
  7  8  1  6
  7  9  1  0
  9 10  1  1
  9 11  1  0
 11 12  1  6
 12 13  1  0
 13 14  2  0
 13 15  1  0
 15 16  1  0
 16 17  1  0
 11 18  1  0
 18 19  1  1
 18 20  1  0
 20 21  1  6
 21 22  2  0
 22 23  1  0
 23 24  1  1
 24 25  1  0
 23 26  1  0
 27 26  1  6
 21 28  1  0
 28 29  1  6
 29 30  1  0
 30 31  1  0
 30 32  2  0
 28 33  1  0
 33 34  1  0
 34 35  1  6
 35 36  1  0
 36 37  1  0
 36 38  2  0
 27  7  1  0
 27 20  1  0
 34 20  1  0
M  END
>  <identifier>  (1870) 
CNP0246702.1

>  <canonical_smiles>  (1870) 
C=C/C(C)=C\C[C@]1(C)[C@H](C)[C@@H](OC(=O)CCC)[C@H](O)[C@@]23C(=C[C@H](OC)C[C@@H]12)[C@@H](OC(C)=O)O[C@H]3OC(C)=O

>  <standard_inchi>  (1870) 
InChI=1S/C29H42O9/c1-9-11-23(32)37-24-17(4)28(7,13-12-16(3)10-2)22-15-20(34-8)14-21-26(35-18(5)30)38-27(36-19(6)31)29(21,22)25(24)33/h10,12,14,17,20,22,24-27,33H,2,9,11,13,15H2,1,3-8H3/b16-12-/t17-,20+,22+,24-,25+,26+,27-,28-,29-/m1/s1

>  <standard_inchi_key>  (1870) 
UOIYIHSDINFKRJ-RVLVUDRFSA-N

>  <name>  (1870) 
nan

>  <iupac_name>  (1870) 
[(1~{S},3~{R},5~{R},6~{a}~{S},7~{S},8~{S},9~{R},10~{R},10~{a}~{S})-1,3-diacetoxy-10-hydroxy-5-methoxy-7,8-dimethyl-7-[(2~{Z})-3-methylpenta-2,4-dienyl]-1,3,5,6,6~{a},8,9,10-octahydrobenzo[d]isobenzofuran-9-yl] butanoate

>  <annotation_level>  (1870) 
5

>  <total_atom_count>  (1870) 
80

>  <heavy_atom_count>  (1870) 
38

>  <molecular_weight>  (1870) 
534.65

>  <exact_molecular_weight>  (1870) 
534.28288

>  <molecular_formula>  (1870) 
C29H42O9

>  <alogp>  (1870) 
3.99

>  <topological_polar_surface_area>  (1870) 
117.59

>  <rotatable_bond_count>  (1870) 
9

>  <hydrogen_bond_acceptors>  (1870) 
9

>  <hydrogen_bond_donors>  (1870) 
1

>  <hydrogen_bond_acceptors_lipinski>  (1870) 
9

>  <hydrogen_bond_donors_lipinski>  (1870) 
1

>  <lipinski_rule_of_five_violations>  (1870) 
1

>  <aromatic_rings_count>  (1870) 
0

>  <qed_drug_likeliness>  (1870) 
0.20

>  <formal_charge>  (1870) 
0

>  <fractioncsp3>  (1870) 
0.69

>  <number_of_minimal_rings>  (1870) 
3

>  <van_der_walls_volume>  (1870) 
498.62

>  <contains_sugar>  (1870) 
False

>  <contains_ring_sugars>  (1870) 
False

>  <contains_linear_sugars>  (1870) 
False

>  <murcko_framework>  (1870) 
O1CC2=CCCC3CCCCC23C1

>  <np_likeness>  (1870) 
3.41

>  <chemical_class>  (1870) 
Prenol lipids

>  <chemical_sub_class>  (1870) 
Diterpenoids

>  <chemical_super_class>  (1870) 
Lipids and lipid-like molecules

>  <direct_parent_classification>  (1870) 
Colensane and clerodane diterpenoids

>  <np_classifier_pathway>  (1870) 
Terpenoids

>  <np_classifier_superclass>  (1870) 
Diterpenoids

>  <np_classifier_class>  (1870) 
Colensane and Clerodane diterpenoids

>  <np_classifier_is_glycoside>  (1870) 
True

>  <organisms>  (1870) 
Casearia sylvestris

>  <collections>  (1870) 
ChemSpider NPs|Latin America dataset|NuBBEDB|Super Natural II|Supernatural3|WikiData Natural Products|ZINC NP

>  <dois>  (1870) 
10.1002/PCA.902|10.1002/pca.902|10.1248/CPB.38.3384

>  <synonyms>  (1870) 
Casearin A|{[1,3-bis(acetyloxy)-9-(butanoyloxy)-10-hydroxy-7,8-dimethyl-7-[(2E)-3-methylpenta-2,4-dien-1-yl]-1H,3H,5H,6H,6aH,7H,8H,9H,10H-naphtho[1,8a-c]furan-5-yl]oxy}methanide

>  <cas>  (1870) 
nan

$$$$

     RDKit          2D

 28 30  0  0  0  0  0  0  0  0999 V2000
    7.4861   -3.8932    0.0000 C   0  0  0  0  0  0  0  0  0  0  0  0
    7.2775   -2.4077    0.0000 C   0  0  0  0  0  0  0  0  0  0  0  0
    5.8868   -1.8456    0.0000 C   0  0  0  0  0  0  0  0  0  0  0  0
    5.6783   -0.3602    0.0000 O   0  0  0  0  0  0  0  0  0  0  0  0
    4.2876    0.2019    0.0000 C   0  0  0  0  0  0  0  0  0  0  0  0
    3.1054   -0.7214    0.0000 C   0  0  0  0  0  0  0  0  0  0  0  0
    1.7147   -0.1593    0.0000 C   0  0  0  0  0  0  0  0  0  0  0  0
    1.5062    1.3262    0.0000 C   0  0  0  0  0  0  0  0  0  0  0  0
    2.6884    2.2495    0.0000 C   0  0  0  0  0  0  0  0  0  0  0  0
    4.0791    1.6874    0.0000 C   0  0  0  0  0  0  0  0  0  0  0  0
    5.2612    2.6107    0.0000 O   0  0  0  0  0  0  0  0  0  0  0  0
    6.6519    2.0486    0.0000 C   0  0  0  0  0  0  0  0  0  0  0  0
    0.0290    1.5869    0.0000 C   0  0  0  0  0  0  0  0  0  0  0  0
   -0.6283    2.9352    0.0000 C   0  0  0  0  0  0  0  0  0  0  0  0
   -0.6754    0.2625    0.0000 C   0  0  0  0  0  0  0  0  0  0  0  0
   -2.1608    0.0540    0.0000 C   0  0  0  0  0  0  0  0  0  0  0  0
   -3.0841    1.2362    0.0000 C   0  0  0  0  0  0  0  0  0  0  0  0
   -4.5696    1.0276    0.0000 C   0  0  0  0  0  0  0  0  0  0  0  0
   -5.4929    2.2098    0.0000 O   0  0  0  0  0  0  0  0  0  0  0  0
   -4.9308    3.6005    0.0000 C   0  0  0  0  0  0  0  0  0  0  0  0
   -5.1317   -0.3631    0.0000 C   0  0  0  0  0  0  0  0  0  0  0  0
   -6.6171   -0.5716    0.0000 O   0  0  0  0  0  0  0  0  0  0  0  0
   -7.1792   -1.9623    0.0000 C   0  0  0  0  0  0  0  0  0  0  0  0
   -4.2084   -1.5452    0.0000 C   0  0  0  0  0  0  0  0  0  0  0  0
   -4.7705   -2.9359    0.0000 O   0  0  0  0  0  0  0  0  0  0  0  0
   -3.8471   -4.1181    0.0000 C   0  0  0  0  0  0  0  0  0  0  0  0
   -2.7229   -1.3367    0.0000 C   0  0  0  0  0  0  0  0  0  0  0  0
    0.3665   -0.8166    0.0000 O   0  0  0  0  0  0  0  0  0  0  0  0
  1  2  2  0
  2  3  1  0
  3  4  1  0
  4  5  1  0
  5  6  2  0
  6  7  1  0
  7  8  2  0
  8  9  1  0
  9 10  2  0
 10 11  1  0
 11 12  1  0
  8 13  1  0
 13 14  1  1
 13 15  1  0
 15 16  1  6
 16 17  2  0
 17 18  1  0
 18 19  1  0
 19 20  1  0
 18 21  2  0
 21 22  1  0
 22 23  1  0
 21 24  1  0
 24 25  1  0
 25 26  1  0
 24 27  2  0
 15 28  1  0
 10  5  1  0
 27 16  1  0
 28  7  1  0
M  END
>  <identifier>  (1871) 
CNP0149096.1

>  <canonical_smiles>  (1871) 
C=CCOC1=CC2=C(C=C1OC)[C@H](C)[C@@H](C1=CC(OC)=C(OC)C(OC)=C1)O2

>  <standard_inchi>  (1871) 
InChI=1S/C22H26O6/c1-7-8-27-18-12-16-15(11-17(18)23-3)13(2)21(28-16)14-9-19(24-4)22(26-6)20(10-14)25-5/h7,9-13,21H,1,8H2,2-6H3/t13-,21-/m0/s1

>  <standard_inchi_key>  (1871) 
ZGQYHQOOZPFHFF-ZSEKCTLFSA-N

>  <name>  (1871) 
nan

>  <iupac_name>  (1871) 
(2~{S},3~{S})-6-allyloxy-5-methoxy-3-methyl-2-(3,4,5-trimethoxyphenyl)-2,3-dihydrobenzofuran

>  <annotation_level>  (1871) 
4

>  <total_atom_count>  (1871) 
54

>  <heavy_atom_count>  (1871) 
28

>  <molecular_weight>  (1871) 
386.44

>  <exact_molecular_weight>  (1871) 
386.17294

>  <molecular_formula>  (1871) 
C22H26O6

>  <alogp>  (1871) 
4.52

>  <topological_polar_surface_area>  (1871) 
55.38

>  <rotatable_bond_count>  (1871) 
8

>  <hydrogen_bond_acceptors>  (1871) 
6

>  <hydrogen_bond_donors>  (1871) 
0

>  <hydrogen_bond_acceptors_lipinski>  (1871) 
6

>  <hydrogen_bond_donors_lipinski>  (1871) 
0

>  <lipinski_rule_of_five_violations>  (1871) 
0

>  <aromatic_rings_count>  (1871) 
2

>  <qed_drug_likeliness>  (1871) 
0.62

>  <formal_charge>  (1871) 
0

>  <fractioncsp3>  (1871) 
0.36

>  <number_of_minimal_rings>  (1871) 
3

>  <van_der_walls_volume>  (1871) 
nan

>  <contains_sugar>  (1871) 
False

>  <contains_ring_sugars>  (1871) 
False

>  <contains_linear_sugars>  (1871) 
False

>  <murcko_framework>  (1871) 
O1c2ccccc2CC1c3ccccc3

>  <np_likeness>  (1871) 
1.06

>  <chemical_class>  (1871) 
2-arylbenzofuran flavonoids

>  <chemical_sub_class>  (1871) 
2-arylbenzofuran flavonoids

>  <chemical_super_class>  (1871) 
Phenylpropanoids and polyketides

>  <direct_parent_classification>  (1871) 
2-arylbenzofuran flavonoids

>  <np_classifier_pathway>  (1871) 
Shikimates and Phenylpropanoids

>  <np_classifier_superclass>  (1871) 
Lignans

>  <np_classifier_class>  (1871) 
Neolignans

>  <np_classifier_is_glycoside>  (1871) 
False

>  <organisms>  (1871) 
Aniba sp.|Rhodostemonodaphne miranda

>  <collections>  (1871) 
Latin America dataset|NuBBEDB|WikiData Natural Products|ZINC NP

>  <dois>  (1871) 
10.1016/0031-9422(75)85358-1|10.1016/S0031-9422(00)89245-6

>  <synonyms>  (1871) 
(2S3S)-6-O-Allyl-5-methoxy-2-(3'4'5'-trimethoxyphenyl)-3-methyl-23-dihydrobenzofuran

>  <cas>  (1871) 
nan

$$$$

     RDKit          2D

 24 26  0  0  0  0  0  0  0  0999 V2000
   -6.9177    2.2126    0.0000 C   0  0  0  0  0  0  0  0  0  0  0  0
   -6.5123    0.7684    0.0000 O   0  0  0  0  0  0  0  0  0  0  0  0
   -5.0589    0.3975    0.0000 C   0  0  0  0  0  0  0  0  0  0  0  0
   -4.0109    1.4707    0.0000 C   0  0  0  0  0  0  0  0  0  0  0  0
   -2.5575    1.0997    0.0000 C   0  0  0  0  0  0  0  0  0  0  0  0
   -2.1521   -0.3445    0.0000 C   0  0  0  0  0  0  0  0  0  0  0  0
   -0.6986   -0.7155    0.0000 C   0  0  0  0  0  0  0  0  0  0  0  0
   -0.2932   -2.1596    0.0000 C   0  0  0  0  0  0  0  0  0  0  0  0
    1.1602   -2.5306    0.0000 O   0  0  0  0  0  0  0  0  0  0  0  0
    2.2082   -1.4574    0.0000 C   0  0  0  0  0  0  0  0  0  0  0  0
    3.6616   -1.8284    0.0000 C   0  0  0  0  0  0  0  0  0  0  0  0
    4.7095   -0.7552    0.0000 C   0  0  0  0  0  0  0  0  0  0  0  0
    6.1629   -1.1262    0.0000 O   0  0  0  0  0  0  0  0  0  0  0  0
    4.3041    0.6890    0.0000 C   0  0  0  0  0  0  0  0  0  0  0  0
    5.3521    1.7622    0.0000 O   0  0  0  0  0  0  0  0  0  0  0  0
    6.8055    1.3912    0.0000 C   0  0  0  0  0  0  0  0  0  0  0  0
    2.8507    1.0600    0.0000 C   0  0  0  0  0  0  0  0  0  0  0  0
    2.4453    2.5041    0.0000 O   0  0  0  0  0  0  0  0  0  0  0  0
    1.8027   -0.0132    0.0000 C   0  0  0  0  0  0  0  0  0  0  0  0
    0.3493    0.3577    0.0000 C   0  0  0  0  0  0  0  0  0  0  0  0
   -0.0561    1.8019    0.0000 O   0  0  0  0  0  0  0  0  0  0  0  0
   -3.2000   -1.4177    0.0000 C   0  0  0  0  0  0  0  0  0  0  0  0
   -4.6534   -1.0467    0.0000 C   0  0  0  0  0  0  0  0  0  0  0  0
   -5.7014   -2.1199    0.0000 O   0  0  0  0  0  0  0  0  0  0  0  0
  1  2  1  0
  2  3  1  0
  3  4  2  0
  4  5  1  0
  5  6  2  0
  6  7  1  0
  7  8  2  0
  8  9  1  0
  9 10  1  0
 10 11  2  0
 11 12  1  0
 12 13  1  0
 12 14  2  0
 14 15  1  0
 15 16  1  0
 14 17  1  0
 17 18  1  0
 17 19  2  0
 19 20  1  0
 20 21  2  0
  6 22  1  0
 22 23  2  0
 23 24  1  0
 23  3  1  0
 20  7  1  0
 19 10  1  0
M  END
>  <identifier>  (1872) 
CNP0224733.0

>  <canonical_smiles>  (1872) 
COC1=CC=C(C2=COC3=CC(O)=C(OC)C(O)=C3C2=O)C=C1O

>  <standard_inchi>  (1872) 
InChI=1S/C17H14O7/c1-22-12-4-3-8(5-10(12)18)9-7-24-13-6-11(19)17(23-2)16(21)14(13)15(9)20/h3-7,18-19,21H,1-2H3

>  <standard_inchi_key>  (1872) 
WRZOUWHPDDOJNR-UHFFFAOYSA-N

>  <name>  (1872) 
Iristectorigenin B

>  <iupac_name>  (1872) 
5,7-dihydroxy-3-(3-hydroxy-4-methoxy-phenyl)-6-methoxy-chromen-4-one

>  <annotation_level>  (1872) 
5

>  <total_atom_count>  (1872) 
38

>  <heavy_atom_count>  (1872) 
24

>  <molecular_weight>  (1872) 
330.29

>  <exact_molecular_weight>  (1872) 
330.07395

>  <molecular_formula>  (1872) 
C17H14O7

>  <alogp>  (1872) 
2.59

>  <topological_polar_surface_area>  (1872) 
109.36

>  <rotatable_bond_count>  (1872) 
3

>  <hydrogen_bond_acceptors>  (1872) 
7

>  <hydrogen_bond_donors>  (1872) 
3

>  <hydrogen_bond_acceptors_lipinski>  (1872) 
7

>  <hydrogen_bond_donors_lipinski>  (1872) 
3

>  <lipinski_rule_of_five_violations>  (1872) 
0

>  <aromatic_rings_count>  (1872) 
3

>  <qed_drug_likeliness>  (1872) 
0.68

>  <formal_charge>  (1872) 
0

>  <fractioncsp3>  (1872) 
0.12

>  <number_of_minimal_rings>  (1872) 
3

>  <van_der_walls_volume>  (1872) 
273.51

>  <contains_sugar>  (1872) 
False

>  <contains_ring_sugars>  (1872) 
False

>  <contains_linear_sugars>  (1872) 
False

>  <murcko_framework>  (1872) 
O1C=C(c2ccccc2)Cc3ccccc13

>  <np_likeness>  (1872) 
1.42

>  <chemical_class>  (1872) 
Isoflavonoids

>  <chemical_sub_class>  (1872) 
O-methylated isoflavonoids

>  <chemical_super_class>  (1872) 
Phenylpropanoids and polyketides

>  <direct_parent_classification>  (1872) 
3'-hydroxy,4'-methoxyisoflavonoids

>  <np_classifier_pathway>  (1872) 
Shikimates and Phenylpropanoids

>  <np_classifier_superclass>  (1872) 
Isoflavonoids

>  <np_classifier_class>  (1872) 
Isoflavones

>  <np_classifier_is_glycoside>  (1872) 
False

>  <organisms>  (1872) 
Belamcanda Chinensis|Belamcanda chinensis|Eriocaulon buergerianum|Eriocaulon sieboldianum|Iris domestica|Iris japonica|Iris pseudacorus|Iris spuria|Iris tectorum|Iris x germanica|Monopterix inpae|Monopteryx inpae|Sophora tomentosa

>  <collections>  (1872) 
CMAUP (cCollective molecular activities of useful plants)|KNApSaCK|Latin America dataset|NPASS|NPEdia|NuBBEDB|Super Natural II|TCMDB-Taiwan (Traditional Chinese Medicine database)|TCMID (Traditional Chinese Medicine Integrated Database)|TIPdb (database of Taiwan indigenous plants)|UNPD (Universal Natural Products Database)|VietHerb|WikiData Natural Products|ZINC NP

>  <dois>  (1872) 
10.1002/JPS.2600640504|10.1007/BF00910057|10.1007/S11418-007-0147-6|10.1016/0031-9422(81)85097-2|10.1016/0031-9422(91)84117-B|10.1016/0031-9422(95)00736-9|10.1016/S0031-9422(00)80573-7|10.1016/S0031-9422(97)00474-3|10.1248/CPB.49.1229|10.5650/JOS.50.545

>  <synonyms>  (1872) 
3',5,7-Trihydroxy-4',6-dimethoxyisoflavone|37744-62-0|4H-1-Benzopyran-4-one, 5,7-dihydroxy-3-(3-hydroxy-4-methoxyphenyl)-6-methoxy-|5,7,3'-Trihydroxy-6,4'-dimethoxyisoflavone|5,7-Dihydroxy-3-(3-hydroxy-4-methoxyphenyl)-6-methoxy-4H-1-benzopyran-4-one|5,7-dihydroxy-3-(3-hydroxy-4-methoxyphenyl)-6-methoxychromen-4-one|86849-77-6|AC-34673|AKOS030530362|CHEMBL486825|CS-0022780|DTXSID70235862|HY-N2509|Iristectorigenin|LMPK12050402|SCHEMBL6337637|TF3VR8KUL4

>  <cas>  (1872) 
86849-77-6|37744-62-0

$$$$

     RDKit          2D

  9  8  0  0  0  0  0  0  0  0999 V2000
   -5.1962   -0.3333    0.0000 C   0  0  0  0  0  0  0  0  0  0  0  0
   -3.8971    0.4167    0.0000 C   0  0  0  0  0  0  0  0  0  0  0  0
   -2.5981   -0.3333    0.0000 C   0  0  0  0  0  0  0  0  0  0  0  0
   -1.2990    0.4167    0.0000 C   0  0  0  0  0  0  0  0  0  0  0  0
    0.0000   -0.3333    0.0000 C   0  0  0  0  0  0  0  0  0  0  0  0
    1.2990    0.4167    0.0000 C   0  0  0  0  0  0  0  0  0  0  0  0
    2.5981   -0.3333    0.0000 C   0  0  0  0  0  0  0  0  0  0  0  0
    3.8971    0.4167    0.0000 C   0  0  0  0  0  0  0  0  0  0  0  0
    5.1962   -0.3333    0.0000 C   0  0  0  0  0  0  0  0  0  0  0  0
  1  2  1  0
  2  3  1  0
  3  4  1  0
  4  5  1  0
  5  6  1  0
  6  7  1  0
  7  8  1  0
  8  9  1  0
M  END
>  <identifier>  (1873) 
CNP0402619.0

>  <canonical_smiles>  (1873) 
CCCCCCCCC

>  <standard_inchi>  (1873) 
InChI=1S/C9H20/c1-3-5-7-9-8-6-4-2/h3-9H2,1-2H3

>  <standard_inchi_key>  (1873) 
BKIMMITUMNQMOS-UHFFFAOYSA-N

>  <name>  (1873) 
NONANE

>  <iupac_name>  (1873) 
nonane

>  <annotation_level>  (1873) 
5

>  <total_atom_count>  (1873) 
29

>  <heavy_atom_count>  (1873) 
9

>  <molecular_weight>  (1873) 
128.26

>  <exact_molecular_weight>  (1873) 
128.1565

>  <molecular_formula>  (1873) 
C9H20

>  <alogp>  (1873) 
3.76

>  <topological_polar_surface_area>  (1873) 
0.00

>  <rotatable_bond_count>  (1873) 
6

>  <hydrogen_bond_acceptors>  (1873) 
0

>  <hydrogen_bond_donors>  (1873) 
0

>  <hydrogen_bond_acceptors_lipinski>  (1873) 
0

>  <hydrogen_bond_donors_lipinski>  (1873) 
0

>  <lipinski_rule_of_five_violations>  (1873) 
0

>  <aromatic_rings_count>  (1873) 
0

>  <qed_drug_likeliness>  (1873) 
0.48

>  <formal_charge>  (1873) 
0

>  <fractioncsp3>  (1873) 
1.00

>  <number_of_minimal_rings>  (1873) 
0

>  <van_der_walls_volume>  (1873) 
161.49

>  <contains_sugar>  (1873) 
False

>  <contains_ring_sugars>  (1873) 
False

>  <contains_linear_sugars>  (1873) 
False

>  <murcko_framework>  (1873) 
nan

>  <np_likeness>  (1873) 
0.27

>  <chemical_class>  (1873) 
Saturated hydrocarbons

>  <chemical_sub_class>  (1873) 
Alkanes

>  <chemical_super_class>  (1873) 
Hydrocarbons

>  <direct_parent_classification>  (1873) 
Alkanes

>  <np_classifier_pathway>  (1873) 
Fatty acids

>  <np_classifier_superclass>  (1873) 
Fatty acyls

>  <np_classifier_class>  (1873) 
Hydrocarbons

>  <np_classifier_is_glycoside>  (1873) 
False

>  <organisms>  (1873) 
Abrus pulchellus|Angelica Pubescens|Angelica acutiloba|Angelica dahurica|Angelica gigas|Angelica pubescens|Angelica pubescens f.biserrata|Angelica sinensis|Araucaria cunninghamii|Aristolochia birostris|Aristolochia cymbifera|Aristolochia didyma|Aristolochia gigantea|Aristolochia macroura|Aristolochia triangularis|Aster scaber|Asystasia gangetica|Brassica napus|Burkholderia tropica|Cannabis sativa|Centaurea benedicta|Citrus aurantiifolia|Clematis chinensis|Clematis hexapetala|Clematis manshurica|Clematis terniflora var. mandshurica|Cnicus benedictus|Conyza bonariensis|Cryptomeria japonica var. sinensis|Dryopteris abbreviata|Elaeis guineensis|Erigeron bonariensis|Ganoderma lucidum|Gossypium herbaceum|Hamamelis virginiana|Helenium mexicanum|Homo sapiens|Homo sapiens (Exhaled breath)|Houttuynia cordata|Humulus lupulus|Hypericum androsaemum|Hypericum foliosum|Hypericum gentianoides|Hypericum hircinum|Hypericum japonicum|Hypericum perfoliatum|Hypericum perforatum|Hypericum triquetrifolium|Inga umbellifera|Iotrochota birotulata|Juniperus chinensis|Lactarius flavidulus|Lepraria chlorina|Lycopersicon Esculentum|Lycopersicon esculentum Mill.|Micromeria myrtifolia|Moschus berezovskii|Moschus chrysogaster|Moschus moschiferus|Moschus sifanicus|Nepeta racemosa|Nigella sativa|Nigella sativa L|Oenanthe aquatica|Orbignya martiana|Origanum vulgare|Oryza sativa|Pellia epiphylla|Perilla frutescens|Petasites hybridus|Pogostemon cablin|Quercus coccifera|Sideritis dichotoma|Sideritis hispida|Vallesia glabra|Zanthoxylum zanthoxyloides|Zingiber Officinale|Zingiber officinale

>  <collections>  (1873) 
ANPDB|Australian natural products|CMAUP (cCollective molecular activities of useful plants)|ChEBI NPs|EMNPD|FooDB|HIT (Herbal Ingredients Targets)|KNApSaCK|Latin America dataset|NANPDB (Natural Products from Northern African Sources)|NPASS|NuBBEDB|Phyto4Health|Super Natural II|TCMDB-Taiwan (Traditional Chinese Medicine database)|TCMID (Traditional Chinese Medicine Integrated Database)|TIPdb (database of Taiwan indigenous plants)|UNPD (Universal Natural Products Database)|VietHerb|WikiData Natural Products

>  <dois>  (1873) 
10.1002/(SICI)1099-1026(199909/10)14:5<283::AID-FFJ826>3.0.CO;2-2|10.1002/CBDV.201800531|10.1002/FFJ.1161|10.1002/FFJ.979|10.1016/0041-0101(92)90044-6|10.1016/J.INDCROP.2014.04.048|10.1016/J.PHYTOCHEM.2004.08.014|10.1016/J.PHYTOCHEM.2005.10.025|10.1016/J.RENENE.2017.12.012|10.1016/J.TALANTA.2005.04.043|10.1016/S0031-9422(00)86412-2|10.1016/S0031-9422(00)90341-8|10.1016/j.cgh.2013.02.015|10.1021/JA01337A051|10.1021/JF00034A033|10.1021/JF00120A031|10.1021/JF020872F|10.1021/NP50008A001|10.1021/NP50046A035|10.1021/jf00120a031|10.1055/S-0028-1097637|10.1055/S-0028-1099484|10.1055/S-2006-957420|10.1071/CH9600367|10.1071/ch9600367|10.1080/0972060x.2011.10643975|10.1080/10412905.1991.9697974|10.1080/10412905.1992.9698015|10.1080/10412905.1992.9698149|10.1080/10412905.1993.9698205|10.1080/10412905.1993.9698253|10.1080/10412905.1994.9698418|10.1080/10412905.2000.9712171|10.1080/14786419.2010.513685|10.1088/1752-7155/8/1/014001|10.1515/ZNC-2003-9-1004|10.17660/ACTAHORTIC.1999.500.11|10.4161/BIOE.23808

>  <synonyms>  (1873) 
111-84-2|144637-82-1|2-ISOPROPYL-4-METHYL-6-HYDROPYRIMIDINE|61193-19-9|66039-00-7|A802420|AKOS015904046|C8F3CAB9-DAF5-4085-84EB-07C0AB04D3A1|CAS-111-84-2|CCRIS 6081|CH3-(CH2)7-CH3|CH3-[CH2]7-CH3|CHEBI:32892|CHEMBL335900|DB-041010|DB-063623|DD9|DTXCID005796|DTXSID9025796|EC 203-913-4|EINECS 203-913-4|HSDB 107|Heptane, ethyl-|InChI=1\/C9H20\/c1-3-5-7-9-8-6-4-2\/h3-9H2,1-2H|Iotrochotin|LMFA11000579|LS-13716|Lodyne S|Lodyne S 100|MFCD00009574|N0286|NCGC00091787-01|NCGC00257029-01|NCGC00259030-01|NONANE  MFC9 H20|NONANE [HSDB]|NONANE-5-C12|NS00007716|NSC 72430|NSC-72430|Nonane, 99%|Nonane, ReagentPlus(R), 99%|Nonane, analytical standard|Nonane, anhydrous, >=99%|Nonane; NSC 72430; Nonane-5-C12; Shellsol 140; n-Nonane|Nonanes|Nonyl hydride|Q150694|S0281|Shellsol 140|T9W3VH6G10|Tox21_201479|Tox21_303148|UN 1920|UNII-T9W3VH6G10|W-108667|n-C9H20|n-Nonane|n-Nonane 10 microg\/mL in Cyclohexane|n-Nonane 1000 microg\/mL in Methanol|n-nonane|nonan

>  <cas>  (1873) 
111-84-2|66039-00-7|144637-82-1|61193-19-9

$$$$

     RDKit          2D

 15 16  0  0  0  0  0  0  0  0999 V2000
    3.0000   -2.7713    0.0000 C   0  0  0  0  0  0  0  0  0  0  0  0
    2.2500   -1.4722    0.0000 C   0  0  0  0  0  0  0  0  0  0  0  0
    0.7500   -1.4722    0.0000 C   0  0  0  0  0  0  0  0  0  0  0  0
    0.0000   -0.1732    0.0000 C   0  0  0  0  0  0  0  0  0  0  0  0
    0.7500    1.1258    0.0000 C   0  0  0  0  0  0  0  0  0  0  0  0
    2.2500    1.1258    0.0000 C   0  0  0  0  0  0  0  0  0  0  0  0
    3.0000   -0.1732    0.0000 C   0  0  0  0  0  0  0  0  0  0  0  0
   -0.0000    2.4249    0.0000 C   0  0  0  0  0  0  0  0  0  0  0  0
    0.7500    3.7239    0.0000 C   0  0  0  0  0  0  0  0  0  0  0  0
   -1.5000    2.4249    0.0000 C   0  0  0  0  0  0  0  0  0  0  0  0
   -2.2500    1.1258    0.0000 C   0  0  0  0  0  0  0  0  0  0  0  0
   -1.5000   -0.1732    0.0000 C   0  0  0  0  0  0  0  0  0  0  0  0
   -2.2500   -1.4722    0.0000 C   0  0  0  0  0  0  0  0  0  0  0  0
   -3.7500   -1.4722    0.0000 C   0  0  0  0  0  0  0  0  0  0  0  0
   -1.5000   -2.7713    0.0000 C   0  0  0  0  0  0  0  0  0  0  0  0
  1  2  1  0
  2  3  2  0
  4  3  1  1
  4  5  1  0
  5  6  2  0
  6  7  1  0
  5  8  1  0
  8  9  1  6
  8 10  1  0
 10 11  1  0
 11 12  1  0
 12 13  1  6
 13 14  1  0
 13 15  1  0
  7  2  1  0
 12  4  1  0
M  END
>  <identifier>  (1874) 
CNP0256711.6

>  <canonical_smiles>  (1874) 
CC1=C[C@@H]2C(=CC1)[C@@H](C)CC[C@H]2C(C)C

>  <standard_inchi>  (1874) 
InChI=1S/C15H24/c1-10(2)13-8-6-12(4)14-7-5-11(3)9-15(13)14/h7,9-10,12-13,15H,5-6,8H2,1-4H3/t12-,13-,15-/m0/s1

>  <standard_inchi_key>  (1874) 
JUQGWBAOQUBVFP-YDHLFZDLSA-N

>  <name>  (1874) 
Cadina-1,4-diene

>  <iupac_name>  (1874) 
(1~{S},4~{S},4~{a}~{R})-4-isopropyl-1,6-dimethyl-1,2,3,4,4~{a},7-hexahydronaphthalene

>  <annotation_level>  (1874) 
5

>  <total_atom_count>  (1874) 
39

>  <heavy_atom_count>  (1874) 
15

>  <molecular_weight>  (1874) 
204.36

>  <exact_molecular_weight>  (1874) 
204.1878

>  <molecular_formula>  (1874) 
C15H24

>  <alogp>  (1874) 
4.58

>  <topological_polar_surface_area>  (1874) 
0.00

>  <rotatable_bond_count>  (1874) 
1

>  <hydrogen_bond_acceptors>  (1874) 
0

>  <hydrogen_bond_donors>  (1874) 
0

>  <hydrogen_bond_acceptors_lipinski>  (1874) 
0

>  <hydrogen_bond_donors_lipinski>  (1874) 
0

>  <lipinski_rule_of_five_violations>  (1874) 
0

>  <aromatic_rings_count>  (1874) 
0

>  <qed_drug_likeliness>  (1874) 
0.55

>  <formal_charge>  (1874) 
0

>  <fractioncsp3>  (1874) 
0.73

>  <number_of_minimal_rings>  (1874) 
2

>  <van_der_walls_volume>  (1874) 
225.40

>  <contains_sugar>  (1874) 
False

>  <contains_ring_sugars>  (1874) 
False

>  <contains_linear_sugars>  (1874) 
False

>  <murcko_framework>  (1874) 
C1=CC2C(=CC1)CCCC2

>  <np_likeness>  (1874) 
2.74

>  <chemical_class>  (1874) 
Prenol lipids

>  <chemical_sub_class>  (1874) 
Sesquiterpenoids

>  <chemical_super_class>  (1874) 
Lipids and lipid-like molecules

>  <direct_parent_classification>  (1874) 
Sesquiterpenoids

>  <np_classifier_pathway>  (1874) 
Terpenoids

>  <np_classifier_superclass>  (1874) 
Sesquiterpenoids

>  <np_classifier_class>  (1874) 
Cadinane sesquiterpenoids

>  <np_classifier_is_glycoside>  (1874) 
False

>  <organisms>  (1874) 
Acca sellowiana|Cedrus libani|Cinnamomum illicioides|Cistus creticus|Foeniculum vulgare|Illicium anisatum|Leptospermum scoparium|Mangifera indica|Melaleuca leucadendra|Murraya paniculata|Petasites albus|Pinus halepensis|Pinus heldreichii|Piper arboreum|Piper fimbriulatum|Psidium guajava|Streptomyces|Streptomyces sp. strain GWS-BW-H5|Swietenia macrophylla|Zingiber officinale|basil

>  <collections>  (1874) 
Australian natural products|KNApSaCK|Latin America dataset|NPAtlas|NuBBEDB|Super Natural II|WikiData Natural Products|ZINC NP

>  <dois>  (1874) 
10.1002/CBDV.200590062|10.1002/CBDV.201100039|10.1002/CBDV.201800531|10.1002/ECE3.5390|10.1002/FFJ.1175|10.1002/FFJ.1804|10.1002/cbdv.200590062|10.1002/ffj.2730030109|10.1006/JFCA.1999.0841|10.1016/J.FOODCONT.2013.06.056|10.1016/J.INDCROP.2017.12.016|10.1016/J.PHYMED.2007.03.013|10.1016/J.PHYTOCHEM.2004.03.019|10.1016/J.PHYTOCHEM.2009.06.013|10.1016/S0031-9422(97)00762-0|10.1021/JF0402633|10.1023/A:1025694720727|10.1080/10412905.2000.9699486|10.2478/V10007-009-0022-Y|10.3390/12030283|10.3390/MOLECULES24112053|10.5530/PJ.2016.3.3

>  <synonyms>  (1874) 
(1S,4S,4aR)-1,6-dimethyl-4-propan-2-yl-1,2,3,4,4a,7-hexahydronaphthalene|Cadina-1,4-diene

>  <cas>  (1874) 
nan

$$$$

     RDKit          2D

 23 25  0  0  0  0  0  0  0  0999 V2000
   -4.1495    3.9497    0.0000 C   0  0  0  0  0  0  0  0  0  0  0  0
   -4.6997    2.5543    0.0000 O   0  0  0  0  0  0  0  0  0  0  0  0
   -3.7664    1.3801    0.0000 C   0  0  0  0  0  0  0  0  0  0  0  0
   -2.2828    1.6012    0.0000 C   0  0  0  0  0  0  0  0  0  0  0  0
   -1.3494    0.4270    0.0000 C   0  0  0  0  0  0  0  0  0  0  0  0
   -1.8997   -0.9684    0.0000 C   0  0  0  0  0  0  0  0  0  0  0  0
   -3.3833   -1.1896    0.0000 C   0  0  0  0  0  0  0  0  0  0  0  0
   -3.9336   -2.5850    0.0000 O   0  0  0  0  0  0  0  0  0  0  0  0
   -4.3167   -0.0154    0.0000 C   0  0  0  0  0  0  0  0  0  0  0  0
   -5.8003   -0.2365    0.0000 O   0  0  0  0  0  0  0  0  0  0  0  0
   -0.9664   -2.1427    0.0000 C   0  0  0  0  0  0  0  0  0  0  0  0
   -1.5166   -3.5381    0.0000 O   0  0  0  0  0  0  0  0  0  0  0  0
    0.5172   -1.9215    0.0000 C   0  0  0  0  0  0  0  0  0  0  0  0
    1.0675   -0.5261    0.0000 C   0  0  0  0  0  0  0  0  0  0  0  0
    2.5511   -0.3049    0.0000 C   0  0  0  0  0  0  0  0  0  0  0  0
    3.4844   -1.4792    0.0000 C   0  0  0  0  0  0  0  0  0  0  0  0
    4.9681   -1.2580    0.0000 C   0  0  0  0  0  0  0  0  0  0  0  0
    5.5183    0.1374    0.0000 C   0  0  0  0  0  0  0  0  0  0  0  0
    7.0019    0.3586    0.0000 O   0  0  0  0  0  0  0  0  0  0  0  0
    4.5850    1.3116    0.0000 C   0  0  0  0  0  0  0  0  0  0  0  0
    5.1352    2.7071    0.0000 O   0  0  0  0  0  0  0  0  0  0  0  0
    3.1014    1.0905    0.0000 C   0  0  0  0  0  0  0  0  0  0  0  0
    0.1342    0.6481    0.0000 O   0  0  0  0  0  0  0  0  0  0  0  0
  1  2  1  0
  2  3  1  0
  3  4  2  0
  4  5  1  0
  5  6  2  0
  6  7  1  0
  7  8  1  0
  7  9  2  0
  9 10  1  0
  6 11  1  0
 11 12  2  0
 11 13  1  0
 13 14  2  0
 14 15  1  0
 15 16  2  0
 16 17  1  0
 17 18  2  0
 18 19  1  0
 18 20  1  0
 20 21  1  0
 20 22  2  0
 14 23  1  0
  9  3  1  0
 22 15  1  0
 23  5  1  0
M  END
>  <identifier>  (1875) 
CNP0159741.0

>  <canonical_smiles>  (1875) 
COC1=CC2=C(C(O)=C1O)C(=O)C=C(C1=CC=C(O)C(O)=C1)O2

>  <standard_inchi>  (1875) 
InChI=1S/C16H12O7/c1-22-13-6-12-14(16(21)15(13)20)10(19)5-11(23-12)7-2-3-8(17)9(18)4-7/h2-6,17-18,20-21H,1H3

>  <standard_inchi_key>  (1875) 
QWUHUBDKQQPMQG-UHFFFAOYSA-N

>  <name>  (1875) 
Pedalitin

>  <iupac_name>  (1875) 
2-(3,4-dihydroxyphenyl)-5,6-dihydroxy-7-methoxy-chromen-4-one

>  <annotation_level>  (1875) 
5

>  <total_atom_count>  (1875) 
35

>  <heavy_atom_count>  (1875) 
23

>  <molecular_weight>  (1875) 
316.27

>  <exact_molecular_weight>  (1875) 
316.0583

>  <molecular_formula>  (1875) 
C16H12O7

>  <alogp>  (1875) 
2.29

>  <topological_polar_surface_area>  (1875) 
120.36

>  <rotatable_bond_count>  (1875) 
2

>  <hydrogen_bond_acceptors>  (1875) 
7

>  <hydrogen_bond_donors>  (1875) 
4

>  <hydrogen_bond_acceptors_lipinski>  (1875) 
7

>  <hydrogen_bond_donors_lipinski>  (1875) 
4

>  <lipinski_rule_of_five_violations>  (1875) 
0

>  <aromatic_rings_count>  (1875) 
3

>  <qed_drug_likeliness>  (1875) 
0.54

>  <formal_charge>  (1875) 
0

>  <fractioncsp3>  (1875) 
0.06

>  <number_of_minimal_rings>  (1875) 
3

>  <van_der_walls_volume>  (1875) 
255.69

>  <contains_sugar>  (1875) 
False

>  <contains_ring_sugars>  (1875) 
False

>  <contains_linear_sugars>  (1875) 
False

>  <murcko_framework>  (1875) 
O1c2ccccc2CC=C1c3ccccc3

>  <np_likeness>  (1875) 
1.41

>  <chemical_class>  (1875) 
Flavonoids

>  <chemical_sub_class>  (1875) 
O-methylated flavonoids

>  <chemical_super_class>  (1875) 
Phenylpropanoids and polyketides

>  <direct_parent_classification>  (1875) 
7-O-methylated flavonoids

>  <np_classifier_pathway>  (1875) 
Shikimates and Phenylpropanoids

>  <np_classifier_superclass>  (1875) 
Flavonoids

>  <np_classifier_class>  (1875) 
Flavones

>  <np_classifier_is_glycoside>  (1875) 
False

>  <organisms>  (1875) 
Aiphanes horrida|Alternaria tagetica|Artemisia arborescens|Artemisia capillaris|Artemisia indica|Artemisia vestita|Austroeupatorium inulaefolium|Caulerpa flexilis|Chenopodium vulvaria|Cirisum japonica var. takaoense|Elateriospermum tapos|Erigeron breviscapus|Erysimum marschallianum|Eupatorium inulaefolium|Frullania dilatata|Frullania spp.|Halleria lucida|Halophila johnsonii|Isodon amethystoides|Isodon enanderianus|Isodon japonica var. glaucocalyx|Isodon japonicus|Isodon japonicus var. glaucocalyx|Isodon rubescens|Isodon rubescens var. lushiensis|Isodon rubescens var.lushiensis|Isodon sculponeatus|Isodon serra|Isodon umbrosus|Jungia spectabilis|Kerria japonica|Leiothrix flavescens|Linaria vulgaris|Mentha pulegium|Mentha suaveolens|Micromonospora lacustris|Monoclea gottschei|Ophiarachna incrassata|Physalis angulata|Physalis viscosa|Pterogyne nitens|Pyrobaculum neutrophilum|Rabdosia excisa|Rabdosia rubescens|Salvia blepharophylla|Salvia circinata|Sesamum Indicum|Sesamum indicum|Sesamum orientale|Sullivantia hapemanii|Sullivantia oregana|Sullivantia renifolia|Sullivantia spp.|Sullivantia sullivantii|Tanacetum vulgare|Tanacetum vulgare L.|Teucrium hircanicum|Trachycladiella aurea|Tricholoma orirubens|Viguiera spp.

>  <collections>  (1875) 
ANPDB|Australian natural products|BIOFACQUIM|CMAUP (cCollective molecular activities of useful plants)|ChEBI NPs|ChemSpider NPs|FooDB|KNApSaCK|Latin America dataset|NANPDB (Natural Products from Northern African Sources)|NPASS|NPCARE|NPEdia|NuBBEDB|Phyto4Health|SANCDB|Super Natural II|TCMDB-Taiwan (Traditional Chinese Medicine database)|TCMID (Traditional Chinese Medicine Integrated Database)|UNPD (Universal Natural Products Database)|VietHerb|WikiData Natural Products

>  <dois>  (1875) 
10.1002/CHIN.200624175|10.1002/PTR.2373|10.1007/BF00596665|10.1007/S10600-005-0118-7|10.1007/s10600-014-0840-0|10.1016/0031-9422(77)84046-6|10.1016/J.PHYTOCHEM.2008.07.007|10.1016/J.PHYTOCHEM.2017.08.009|10.1016/S0031-9422(00)00480-5|10.1016/S0031-9422(97)01042-X|10.1016/S0031-9422(99)00021-7|10.1016/S0031-9422(99)00324-6|10.1016/S0031-9422(99)00578-6|10.1016/s0031-9422(97)01042-x|10.1021/ACS.JNATPROD.7B00155|10.1021/NP030165W|10.1021/NP50013A009|10.1021/NP800612X|10.1021/acs.jnatprod.7b00155|10.1080/14786410601129606|10.1111/J.2042-7158.2012.01544.X|10.1246/NIKKASHI.1985.1513|10.1246/NIKKASHI.1994.493|10.1248/CPB.48.148|10.1248/CPB.56.723|10.1248/YAKUSHI.130.447|10.1248/cpb.56.723|10.1515/ZNC-1992-11-1203|10.3987/R-1977-03-0267

>  <synonyms>  (1875) 
2-(3,4-Dihydroxyphenyl)-5,6-dihydroxy-7-methoxy-4H-1-benzopyran-4-one; 5,6,3',4'-Tetrahydroxy-7-methoxyflavone; 6-Hydroxyluteolin-7-methyl ether|2-(3,4-dihydroxyphenyl)-5,6-dihydroxy-7-methoxy-4H-1-benzopyran-4-one|2-(3,4-dihydroxyphenyl)-5,6-dihydroxy-7-methoxychromen-4-one|22384-63-0|3',4',5,6-Tetrahydroxy-7-methoxyflavone|4H-1-Benzopyran-4-one, 2-(3,4-dihydroxyphenyl)-5,6-dihydroxy-7-methoxy-|5,6,3',4'-Tetrahydroxy-7-methoxyflavone|6-HYDROXYLUTEOLIN-7-METHYL ETHER|6-Hydroxyluteolin 6-methyl ether|AKOS040760097|BDBM50412283|BRN 1296526|CHEBI:7947|CHEMBL476314|CS-0023226|DS9S9Z36F2|DTXSID40176915|FLAVONE, 3',4',5,6-TETRAHYDROXY-7-METHOXY-|FS-8633|HY-N3101|LMPK12111231|Pedalitin|Q27089369|QWUHUBDKQQPMQG-UHFFFAOYSA-N|SCHEMBL6240689|UNII-DS9S9Z36F2|pedalitin

>  <cas>  (1875) 
22384-63-0

$$$$

     RDKit          2D

 30 33  0  0  0  0  0  0  0  0999 V2000
   -2.1836   -4.3355    0.0000 C   0  0  0  0  0  0  0  0  0  0  0  0
   -0.7410   -3.9244    0.0000 C   0  0  0  0  0  0  0  0  0  0  0  0
    0.3363   -4.9681    0.0000 C   0  0  0  0  0  0  0  0  0  0  0  0
   -0.3758   -2.4695    0.0000 C   0  0  0  0  0  0  0  0  0  0  0  0
    1.0667   -2.0584    0.0000 C   0  0  0  0  0  0  0  0  0  0  0  0
    1.4320   -0.6035    0.0000 C   0  0  0  0  0  0  0  0  0  0  0  0
    2.8745   -0.1924    0.0000 C   0  0  0  0  0  0  0  0  0  0  0  0
    3.9518   -1.2361    0.0000 O   0  0  0  0  0  0  0  0  0  0  0  0
    5.3944   -0.8249    0.0000 C   0  0  0  0  0  0  0  0  0  0  0  0
    6.8906   -0.9320    0.0000 C   0  0  0  0  0  0  0  0  0  0  0  0
    5.5488   -2.3170    0.0000 C   0  0  0  0  0  0  0  0  0  0  0  0
    5.7596    0.6299    0.0000 C   0  0  0  0  0  0  0  0  0  0  0  0
    4.6823    1.6736    0.0000 C   0  0  0  0  0  0  0  0  0  0  0  0
    3.2397    1.2625    0.0000 C   0  0  0  0  0  0  0  0  0  0  0  0
    2.1624    2.3062    0.0000 C   0  0  0  0  0  0  0  0  0  0  0  0
    2.5276    3.7611    0.0000 O   0  0  0  0  0  0  0  0  0  0  0  0
    0.7198    1.8951    0.0000 C   0  0  0  0  0  0  0  0  0  0  0  0
    0.3546    0.4402    0.0000 C   0  0  0  0  0  0  0  0  0  0  0  0
   -1.0879    0.0291    0.0000 O   0  0  0  0  0  0  0  0  0  0  0  0
   -2.1653    1.0728    0.0000 C   0  0  0  0  0  0  0  0  0  0  0  0
   -3.6078    0.6616    0.0000 C   0  0  0  0  0  0  0  0  0  0  0  0
   -4.6852    1.7054    0.0000 C   0  0  0  0  0  0  0  0  0  0  0  0
   -6.1277    1.2942    0.0000 C   0  0  0  0  0  0  0  0  0  0  0  0
   -6.4929   -0.1606    0.0000 C   0  0  0  0  0  0  0  0  0  0  0  0
   -7.9355   -0.5718    0.0000 O   0  0  0  0  0  0  0  0  0  0  0  0
   -5.4156   -1.2044    0.0000 C   0  0  0  0  0  0  0  0  0  0  0  0
   -3.9730   -0.7932    0.0000 C   0  0  0  0  0  0  0  0  0  0  0  0
   -1.8001    2.5276    0.0000 C   0  0  0  0  0  0  0  0  0  0  0  0
   -0.3575    2.9388    0.0000 C   0  0  0  0  0  0  0  0  0  0  0  0
    0.0077    4.3936    0.0000 O   0  0  0  0  0  0  0  0  0  0  0  0
  1  2  1  0
  2  3  1  0
  2  4  2  0
  4  5  1  0
  5  6  1  0
  6  7  2  0
  7  8  1  0
  8  9  1  0
  9 10  1  0
  9 11  1  0
  9 12  1  0
 12 13  2  0
 13 14  1  0
 14 15  2  0
 15 16  1  0
 15 17  1  0
 17 18  2  0
 18 19  1  0
 19 20  1  0
 20 21  1  6
 21 22  2  0
 22 23  1  0
 23 24  2  0
 24 25  1  0
 24 26  1  0
 26 27  2  0
 20 28  1  0
 28 29  1  0
 29 30  2  0
 18  6  1  0
 27 21  1  0
 14  7  1  0
 29 17  1  0
M  END
>  <identifier>  (1876) 
CNP0317311.1

>  <canonical_smiles>  (1876) 
CC(C)=CCC1=C2OC(C)(C)C=CC2=C(O)C2=C1O[C@H](C1=CC=C(O)C=C1)CC2=O

>  <standard_inchi>  (1876) 
InChI=1S/C25H26O5/c1-14(2)5-10-18-23-17(11-12-25(3,4)30-23)22(28)21-19(27)13-20(29-24(18)21)15-6-8-16(26)9-7-15/h5-9,11-12,20,26,28H,10,13H2,1-4H3/t20-/m0/s1

>  <standard_inchi_key>  (1876) 
PDTJZCUQXSFLDW-FQEVSTJZSA-N

>  <name>  (1876) 
lupinifolin

>  <iupac_name>  (1876) 
(8~{S})-5-hydroxy-8-(4-hydroxyphenyl)-2,2-dimethyl-10-(3-methylbut-2-enyl)-7,8-dihydropyrano[3,2-g]chromen-6-one

>  <annotation_level>  (1876) 
5

>  <total_atom_count>  (1876) 
56

>  <heavy_atom_count>  (1876) 
30

>  <molecular_weight>  (1876) 
406.48

>  <exact_molecular_weight>  (1876) 
406.17802

>  <molecular_formula>  (1876) 
C25H26O5

>  <alogp>  (1876) 
5.50

>  <topological_polar_surface_area>  (1876) 
75.99

>  <rotatable_bond_count>  (1876) 
3

>  <hydrogen_bond_acceptors>  (1876) 
5

>  <hydrogen_bond_donors>  (1876) 
2

>  <hydrogen_bond_acceptors_lipinski>  (1876) 
5

>  <hydrogen_bond_donors_lipinski>  (1876) 
2

>  <lipinski_rule_of_five_violations>  (1876) 
1

>  <aromatic_rings_count>  (1876) 
2

>  <qed_drug_likeliness>  (1876) 
0.66

>  <formal_charge>  (1876) 
0

>  <fractioncsp3>  (1876) 
0.32

>  <number_of_minimal_rings>  (1876) 
4

>  <van_der_walls_volume>  (1876) 
373.19

>  <contains_sugar>  (1876) 
False

>  <contains_ring_sugars>  (1876) 
False

>  <contains_linear_sugars>  (1876) 
False

>  <murcko_framework>  (1876) 
O1c2cc3OC(c4ccccc4)CCc3cc2C=CC1

>  <np_likeness>  (1876) 
2.80

>  <chemical_class>  (1876) 
Flavonoids

>  <chemical_sub_class>  (1876) 
Pyranoflavonoids

>  <chemical_super_class>  (1876) 
Phenylpropanoids and polyketides

>  <direct_parent_classification>  (1876) 
Pyranoflavonoids

>  <np_classifier_pathway>  (1876) 
Shikimates and Phenylpropanoids

>  <np_classifier_superclass>  (1876) 
Flavonoids

>  <np_classifier_class>  (1876) 
Flavanones

>  <np_classifier_is_glycoside>  (1876) 
False

>  <organisms>  (1876) 
Citrus medica|Citrus medica var. sarcodactylis|Citrus sinensis|Deguelia hatschbachii|Derris hainesiana|Derris reticulata|Eriosema chinense|Eriosema tuberosum|Erythrina Fusca|Erythrina fusca|Erythrina senegalensis|Euchresta formosana|Flemingia Macrophylla|Flemingia macrophylla|Flemingia philippinensis|Flemingia wallichii|Lonchocarpus guatemalensis|Lonchocarpus miniflorus|Lonchocarpus minimiflorus|Maclura pomifera|Macrotyloma biflorum var. biflorum|Mundulea sericea|Rhynchosia precatoria|Sophora tetraptera|Sophora tonkinensis|Tephrosia lupinifolia

>  <collections>  (1876) 
AfroDB|AfroMalariaDB|Australian natural products|BIOFACQUIM|CMAUP (cCollective molecular activities of useful plants)|KNApSaCK|Latin America dataset|Mitishamba database|NPACT|NPASS|NuBBEDB|Super Natural II|TCMDB-Taiwan (Traditional Chinese Medicine database)|TIPdb (database of Taiwan indigenous plants)|VietHerb|WikiData Natural Products|ZINC NP

>  <dois>  (1876) 
10.1016/0031-9422(94)00971-U|10.1016/0305-1978(95)00054-X|10.1016/S0031-9422(00)00509-4|10.1016/S0031-9422(96)00494-3|10.1016/S0031-9422(97)00001-0|10.1016/S0031-9422(98)00551-2|10.1016/S0040-4020(01)97085-1|10.1016/j.jep.2017.05.019|10.1016/s0031-9422(98)00551-2|10.1021/NP50040A025|10.1021/NP900021H|10.1021/jf801103p|10.1055/S-2006-959446|10.1248/CPB.39.3132|10.1248/CPB.57.993|10.1248/CPB.58.61|10.1515/ZNC-1988-11-1205|10.3987/COM-03-9994|10.3987/COM-08-11630

>  <synonyms>  (1876) 
(8S)-5-hydroxy-8-(4-hydroxyphenyl)-2,2-dimethyl-10-(3-methylbut-2-enyl)-7,8-dihy|(8S)-5-hydroxy-8-(4-hydroxyphenyl)-2,2-dimethyl-10-(3-methylbut-2-enyl)-7,8-dihydropyrano[3,2-g]chromen-6-one|55890-27-2|BDBM50495310|CHEMBL559980|DTXSID201318262|Lupinifolin

>  <cas>  (1876) 
55890-27-2

$$$$

     RDKit          2D

 42 46  0  0  0  0  0  0  0  0999 V2000
   -3.3110   -2.8733    0.0000 C   0  0  0  0  0  0  0  0  0  0  0  0
   -2.2428   -1.8202    0.0000 O   0  0  0  0  0  0  0  0  0  0  0  0
   -0.7967   -2.2187    0.0000 C   0  0  0  0  0  0  0  0  0  0  0  0
   -0.4188   -3.6703    0.0000 C   0  0  0  0  0  0  0  0  0  0  0  0
    1.0273   -4.0689    0.0000 C   0  0  0  0  0  0  0  0  0  0  0  0
    1.4052   -5.5205    0.0000 O   0  0  0  0  0  0  0  0  0  0  0  0
    2.0955   -3.0158    0.0000 C   0  0  0  0  0  0  0  0  0  0  0  0
    3.5416   -3.4143    0.0000 C   0  0  0  0  0  0  0  0  0  0  0  0
    3.9195   -4.8659    0.0000 O   0  0  0  0  0  0  0  0  0  0  0  0
    4.6098   -2.3612    0.0000 C   0  0  0  0  0  0  0  0  0  0  0  0
    4.2319   -0.9096    0.0000 C   0  0  0  0  0  0  0  0  0  0  0  0
    5.3000    0.1435    0.0000 C   0  0  0  0  0  0  0  0  0  0  0  0
    6.7461   -0.2550    0.0000 C   0  0  0  0  0  0  0  0  0  0  0  0
    7.8143    0.7980    0.0000 C   0  0  0  0  0  0  0  0  0  0  0  0
    7.4364    2.2497    0.0000 C   0  0  0  0  0  0  0  0  0  0  0  0
    8.5046    3.3027    0.0000 O   0  0  0  0  0  0  0  0  0  0  0  0
    5.9903    2.6482    0.0000 C   0  0  0  0  0  0  0  0  0  0  0  0
    4.9221    1.5951    0.0000 C   0  0  0  0  0  0  0  0  0  0  0  0
    2.7858   -0.5111    0.0000 O   0  0  0  0  0  0  0  0  0  0  0  0
    1.7176   -1.5642    0.0000 C   0  0  0  0  0  0  0  0  0  0  0  0
    0.2715   -1.1656    0.0000 C   0  0  0  0  0  0  0  0  0  0  0  0
   -0.1064    0.2860    0.0000 C   0  0  0  0  0  0  0  0  0  0  0  0
    0.9618    1.3391    0.0000 O   0  0  0  0  0  0  0  0  0  0  0  0
    0.5839    2.7907    0.0000 C   0  0  0  0  0  0  0  0  0  0  0  0
    1.6520    3.8438    0.0000 C   0  0  0  0  0  0  0  0  0  0  0  0
    3.0981    3.4452    0.0000 O   0  0  0  0  0  0  0  0  0  0  0  0
   -0.8622    3.1892    0.0000 C   0  0  0  0  0  0  0  0  0  0  0  0
   -1.2401    4.6408    0.0000 O   0  0  0  0  0  0  0  0  0  0  0  0
   -1.9304    2.1361    0.0000 C   0  0  0  0  0  0  0  0  0  0  0  0
   -3.3765    2.5347    0.0000 O   0  0  0  0  0  0  0  0  0  0  0  0
   -1.5525    0.6845    0.0000 C   0  0  0  0  0  0  0  0  0  0  0  0
   -2.6207   -0.3686    0.0000 O   0  0  0  0  0  0  0  0  0  0  0  0
   -4.0668    0.0300    0.0000 C   0  0  0  0  0  0  0  0  0  0  0  0
   -4.4447    1.4816    0.0000 O   0  0  0  0  0  0  0  0  0  0  0  0
   -5.8908    1.8801    0.0000 C   0  0  0  0  0  0  0  0  0  0  0  0
   -6.2687    3.3317    0.0000 C   0  0  0  0  0  0  0  0  0  0  0  0
   -6.9590    0.8270    0.0000 C   0  0  0  0  0  0  0  0  0  0  0  0
   -8.4050    1.2255    0.0000 O   0  0  0  0  0  0  0  0  0  0  0  0
   -6.5810   -0.6246    0.0000 C   0  0  0  0  0  0  0  0  0  0  0  0
   -7.6492   -1.6777    0.0000 O   0  0  0  0  0  0  0  0  0  0  0  0
   -5.1350   -1.0231    0.0000 C   0  0  0  0  0  0  0  0  0  0  0  0
   -4.7570   -2.4747    0.0000 O   0  0  0  0  0  0  0  0  0  0  0  0
  1  2  1  0
  2  3  1  0
  3  4  2  0
  4  5  1  0
  5  6  1  0
  5  7  2  0
  7  8  1  0
  8  9  2  0
  8 10  1  0
 10 11  2  0
 11 12  1  0
 12 13  2  0
 13 14  1  0
 14 15  2  0
 15 16  1  0
 15 17  1  0
 17 18  2  0
 11 19  1  0
 19 20  1  0
 20 21  2  0
 22 21  1  1
 22 23  1  0
 23 24  1  0
 24 25  1  1
 25 26  1  0
 24 27  1  0
 27 28  1  6
 27 29  1  0
 29 30  1  1
 29 31  1  0
 31 32  1  6
 33 32  1  1
 33 34  1  0
 34 35  1  0
 35 36  1  6
 35 37  1  0
 37 38  1  1
 37 39  1  0
 39 40  1  6
 39 41  1  0
 41 42  1  6
 21  3  1  0
 31 22  1  0
 41 33  1  0
 20  7  1  0
 18 12  1  0
M  END
>  <identifier>  (1877) 
CNP0289877.1

>  <canonical_smiles>  (1877) 
COC1=CC(O)=C2C(=O)C=C(C3=CC=C(O)C=C3)OC2=C1[C@@H]1O[C@H](CO)[C@@H](O)[C@H](O)[C@H]1O[C@@H]1O[C@@H](C)[C@H](O)[C@@H](O)[C@H]1O

>  <standard_inchi>  (1877) 
InChI=1S/C28H32O14/c1-10-20(33)22(35)24(37)28(39-10)42-27-23(36)21(34)17(9-29)41-26(27)19-16(38-2)8-14(32)18-13(31)7-15(40-25(18)19)11-3-5-12(30)6-4-11/h3-8,10,17,20-24,26-30,32-37H,9H2,1-2H3/t10-,17+,20-,21+,22+,23-,24+,26-,27+,28-/m0/s1

>  <standard_inchi_key>  (1877) 
HFUYHHROXLKXRR-WBXLRLGPSA-N

>  <name>  (1877) 
Isoswertisin 2''-rhamnoside

>  <iupac_name>  (1877) 
8-[(2~{S},3~{R},4~{S},5~{S},6~{R})-4,5-dihydroxy-6-(hydroxymethyl)-3-[(2~{S},3~{R},4~{R},5~{R},6~{S})-3,4,5-trihydroxy-6-methyl-tetrahydropyran-2-yl]oxy-tetrahydropyran-2-yl]-5-hydroxy-2-(4-hydroxyphenyl)-7-methoxy-chromen-4-one

>  <annotation_level>  (1877) 
5

>  <total_atom_count>  (1877) 
74

>  <heavy_atom_count>  (1877) 
42

>  <molecular_weight>  (1877) 
592.55

>  <exact_molecular_weight>  (1877) 
592.17921

>  <molecular_formula>  (1877) 
C28H32O14

>  <alogp>  (1877) 
-0.75

>  <topological_polar_surface_area>  (1877) 
228.97

>  <rotatable_bond_count>  (1877) 
6

>  <hydrogen_bond_acceptors>  (1877) 
14

>  <hydrogen_bond_donors>  (1877) 
8

>  <hydrogen_bond_acceptors_lipinski>  (1877) 
14

>  <hydrogen_bond_donors_lipinski>  (1877) 
8

>  <lipinski_rule_of_five_violations>  (1877) 
3

>  <aromatic_rings_count>  (1877) 
3

>  <qed_drug_likeliness>  (1877) 
0.18

>  <formal_charge>  (1877) 
0

>  <fractioncsp3>  (1877) 
0.46

>  <number_of_minimal_rings>  (1877) 
5

>  <van_der_walls_volume>  (1877) 
489.41

>  <contains_sugar>  (1877) 
True

>  <contains_ring_sugars>  (1877) 
True

>  <contains_linear_sugars>  (1877) 
False

>  <murcko_framework>  (1877) 
O1C(=CCc2cccc(c12)C3OCCCC3OC4OCCCC4)c5ccccc5

>  <np_likeness>  (1877) 
2.10

>  <chemical_class>  (1877) 
Flavonoids

>  <chemical_sub_class>  (1877) 
Flavonoid glycosides

>  <chemical_super_class>  (1877) 
Phenylpropanoids and polyketides

>  <direct_parent_classification>  (1877) 
Flavonoid 8-C-glycosides

>  <np_classifier_pathway>  (1877) 
Shikimates and Phenylpropanoids

>  <np_classifier_superclass>  (1877) 
Flavonoids

>  <np_classifier_class>  (1877) 
Flavones

>  <np_classifier_is_glycoside>  (1877) 
True

>  <organisms>  (1877) 
Peperomia obtusifolia

>  <collections>  (1877) 
ChEBI NPs|ChemSpider NPs|Latin America dataset|NuBBEDB|Super Natural II|WikiData Natural Products|ZINC NP

>  <dois>  (1877) 
10.1055/S-0029-1185364|10.1055/s-0029-1185364|10.1080/14786410903244954

>  <synonyms>  (1877) 
(1S)-1,5-anhydro-2-O-(6-deoxy-alpha-L-mannopyranosyl)-1-[5,7-dihydroxy-2-(4-hydroxyphenyl)-7-methoxy-4-oxo-4H-chromen-8-yl]-D-glucitol|2''-O-Rhamnosylisoswertisin|64821-00-7|7-O-methylvitexin 2''-O-alpha-L-rhamnoside|8-[(2S,3R,4S,5S,6R)-4,5-dihydroxy-6-(hydroxymethyl)-3-[(2S,3R,4R,5R,6S)-3,4,5-trihydroxy-6-methyloxan-2-yl]oxyoxan-2-yl]-5-hydroxy-2-(4-hydroxyphenyl)-7-methoxychromen-4-one|CHEBI:31143|CHEMBL4638241|DTXSID60332137|Isoswertisin-2''\u221a\u00e9\u00ac\u00b11-L-rhamnoside|Q27114176

>  <cas>  (1877) 
64821-00-7

$$$$

     RDKit          2D

 24 26  0  0  0  0  0  0  0  0999 V2000
   -7.0534    1.5194    0.0000 C   0  0  0  0  0  0  0  0  0  0  0  0
   -6.4154    0.1618    0.0000 O   0  0  0  0  0  0  0  0  0  0  0  0
   -4.9207    0.0355    0.0000 C   0  0  0  0  0  0  0  0  0  0  0  0
   -4.0640    1.2668    0.0000 C   0  0  0  0  0  0  0  0  0  0  0  0
   -2.5694    1.1405    0.0000 C   0  0  0  0  0  0  0  0  0  0  0  0
   -1.9314   -0.2171    0.0000 C   0  0  0  0  0  0  0  0  0  0  0  0
   -0.4367   -0.3433    0.0000 C   0  0  0  0  0  0  0  0  0  0  0  0
    0.2013   -1.7009    0.0000 C   0  0  0  0  0  0  0  0  0  0  0  0
    1.6959   -1.8272    0.0000 O   0  0  0  0  0  0  0  0  0  0  0  0
    2.5526   -0.5959    0.0000 C   0  0  0  0  0  0  0  0  0  0  0  0
    4.0473   -0.7222    0.0000 C   0  0  0  0  0  0  0  0  0  0  0  0
    4.6853   -2.0798    0.0000 O   0  0  0  0  0  0  0  0  0  0  0  0
    3.8286   -3.3110    0.0000 C   0  0  0  0  0  0  0  0  0  0  0  0
    4.9040    0.5091    0.0000 C   0  0  0  0  0  0  0  0  0  0  0  0
    6.3987    0.3828    0.0000 O   0  0  0  0  0  0  0  0  0  0  0  0
    4.2660    1.8667    0.0000 C   0  0  0  0  0  0  0  0  0  0  0  0
    2.7714    1.9929    0.0000 C   0  0  0  0  0  0  0  0  0  0  0  0
    2.1334    3.3505    0.0000 O   0  0  0  0  0  0  0  0  0  0  0  0
    1.9147    0.7617    0.0000 C   0  0  0  0  0  0  0  0  0  0  0  0
    0.4200    0.8879    0.0000 C   0  0  0  0  0  0  0  0  0  0  0  0
   -0.2180    2.2455    0.0000 O   0  0  0  0  0  0  0  0  0  0  0  0
   -2.7881   -1.4483    0.0000 C   0  0  0  0  0  0  0  0  0  0  0  0
   -4.2828   -1.3221    0.0000 C   0  0  0  0  0  0  0  0  0  0  0  0
   -5.1395   -2.5533    0.0000 O   0  0  0  0  0  0  0  0  0  0  0  0
  1  2  1  0
  2  3  1  0
  3  4  2  0
  4  5  1  0
  5  6  2  0
  6  7  1  0
  7  8  2  0
  8  9  1  0
  9 10  1  0
 10 11  2  0
 11 12  1  0
 12 13  1  0
 11 14  1  0
 14 15  1  0
 14 16  2  0
 16 17  1  0
 17 18  1  0
 17 19  2  0
 19 20  1  0
 20 21  2  0
  6 22  1  0
 22 23  2  0
 23 24  1  0
 23  3  1  0
 20  7  1  0
 19 10  1  0
M  END
>  <identifier>  (1878) 
CNP0161020.0

>  <canonical_smiles>  (1878) 
COC1=CC=C(C2=COC3=C(OC)C(O)=CC(O)=C3C2=O)C=C1O

>  <standard_inchi>  (1878) 
InChI=1S/C17H14O7/c1-22-13-4-3-8(5-10(13)18)9-7-24-17-14(15(9)21)11(19)6-12(20)16(17)23-2/h3-7,18-20H,1-2H3

>  <standard_inchi_key>  (1878) 
GWHLXSNSYSNMEV-UHFFFAOYSA-N

>  <name>  (1878) 
3',5,7-Trihydroxy-4',8-dimethoxyisoflavone

>  <iupac_name>  (1878) 
5,7-dihydroxy-3-(3-hydroxy-4-methoxy-phenyl)-8-methoxy-chromen-4-one

>  <annotation_level>  (1878) 
5

>  <total_atom_count>  (1878) 
38

>  <heavy_atom_count>  (1878) 
24

>  <molecular_weight>  (1878) 
330.29

>  <exact_molecular_weight>  (1878) 
330.07395

>  <molecular_formula>  (1878) 
C17H14O7

>  <alogp>  (1878) 
2.59

>  <topological_polar_surface_area>  (1878) 
109.36

>  <rotatable_bond_count>  (1878) 
3

>  <hydrogen_bond_acceptors>  (1878) 
7

>  <hydrogen_bond_donors>  (1878) 
3

>  <hydrogen_bond_acceptors_lipinski>  (1878) 
7

>  <hydrogen_bond_donors_lipinski>  (1878) 
3

>  <lipinski_rule_of_five_violations>  (1878) 
0

>  <aromatic_rings_count>  (1878) 
3

>  <qed_drug_likeliness>  (1878) 
0.68

>  <formal_charge>  (1878) 
0

>  <fractioncsp3>  (1878) 
0.12

>  <number_of_minimal_rings>  (1878) 
3

>  <van_der_walls_volume>  (1878) 
273.66

>  <contains_sugar>  (1878) 
False

>  <contains_ring_sugars>  (1878) 
False

>  <contains_linear_sugars>  (1878) 
False

>  <murcko_framework>  (1878) 
O1C=C(c2ccccc2)Cc3ccccc13

>  <np_likeness>  (1878) 
1.49

>  <chemical_class>  (1878) 
Isoflavonoids

>  <chemical_sub_class>  (1878) 
O-methylated isoflavonoids

>  <chemical_super_class>  (1878) 
Phenylpropanoids and polyketides

>  <direct_parent_classification>  (1878) 
3'-hydroxy,4'-methoxyisoflavonoids

>  <np_classifier_pathway>  (1878) 
Shikimates and Phenylpropanoids

>  <np_classifier_superclass>  (1878) 
Isoflavonoids

>  <np_classifier_class>  (1878) 
Isoflavones

>  <np_classifier_is_glycoside>  (1878) 
False

>  <organisms>  (1878) 
Belamcanda Chinensis|Iris domestica|Monopterix inpae|Monopteryx inpae|Streptomyces|Streptomyces roseolus|Streptomyces roseolus ISP 5174

>  <collections>  (1878) 
ChemSpider NPs|Latin America dataset|NPAtlas|NPEdia|NuBBEDB|StreptomeDB|Super Natural II|TIPdb (database of Taiwan indigenous plants)|UNPD (Universal Natural Products Database)|VietHerb|WikiData Natural Products|ZINC NP

>  <dois>  (1878) 
10.1016/0031-9422(81)85097-2|10.1016/0031-9422(93)85311-E|10.7164/ANTIBIOTICS.28.619|10.7164/ANTIBIOTICS.51.963|10.7164/antibiotics.28.619

>  <synonyms>  (1878) 
3',5,7-trihydroxy-4',8-dimethoxyisoflavone|4H-1-Benzopyran-4-one, 5,7-dihydroxy-3-(3-hydroxy-4-methoxyphenyl)-8-methoxy-|5,7,3'-Trihydroxy-8,4'-dimethoxyisoflavone|5,7-Dihydroxy-3-(3-hydroxy-4-methoxyphenyl)-8-methoxy-4H-1-benzopyran-4-one|5,7-dihydroxy-3-(3-hydroxy-4-methoxyphenyl)-8-methoxychromen-4-one|56419-18-2|BRN 1354521|CHEBI:202445|DTXSID20204982|LMPK12050434|SCHEMBL6338407

>  <cas>  (1878) 
56419-18-2

$$$$

     RDKit          2D

 30 33  0  0  0  0  0  0  0  0999 V2000
   -6.8705    2.1075    0.0000 C   0  0  0  0  0  0  0  0  0  0  0  0
   -5.4446    1.6419    0.0000 C   0  0  0  0  0  0  0  0  0  0  0  0
   -5.1349    0.1742    0.0000 C   0  0  0  0  0  0  0  0  0  0  0  0
   -3.7090   -0.2915    0.0000 C   0  0  0  0  0  0  0  0  0  0  0  0
   -2.5928    0.7105    0.0000 O   0  0  0  0  0  0  0  0  0  0  0  0
   -3.3994   -1.7592    0.0000 C   0  0  0  0  0  0  0  0  0  0  0  0
   -4.5156   -2.7612    0.0000 C   0  0  0  0  0  0  0  0  0  0  0  0
   -1.9735   -2.2248    0.0000 C   0  0  0  0  0  0  0  0  0  0  0  0
   -1.5121   -3.6521    0.0000 C   0  0  0  0  0  0  0  0  0  0  0  0
   -0.0121   -3.6543    0.0000 C   0  0  0  0  0  0  0  0  0  0  0  0
    0.4536   -2.2285    0.0000 C   0  0  0  0  0  0  0  0  0  0  0  0
    1.8248   -1.6204    0.0000 C   0  0  0  0  0  0  0  0  0  0  0  0
    3.0370   -2.5039    0.0000 C   0  0  0  0  0  0  0  0  0  0  0  0
    4.4082   -1.8958    0.0000 C   0  0  0  0  0  0  0  0  0  0  0  0
    4.5673   -0.4043    0.0000 C   0  0  0  0  0  0  0  0  0  0  0  0
    5.9385    0.2038    0.0000 C   0  0  0  0  0  0  0  0  0  0  0  0
    6.0975    1.6953    0.0000 C   0  0  0  0  0  0  0  0  0  0  0  0
    7.4687    2.3034    0.0000 O   0  0  0  0  0  0  0  0  0  0  0  0
    4.8853    2.5788    0.0000 C   0  0  0  0  0  0  0  0  0  0  0  0
    3.5141    1.9707    0.0000 C   0  0  0  0  0  0  0  0  0  0  0  0
    3.3550    0.4792    0.0000 C   0  0  0  0  0  0  0  0  0  0  0  0
    2.1428    1.3627    0.0000 C   0  0  0  0  0  0  0  0  0  0  0  0
    1.9838   -0.1289    0.0000 C   0  0  0  0  0  0  0  0  0  0  0  0
    0.7716    0.7546    0.0000 C   0  0  0  0  0  0  0  0  0  0  0  0
   -0.5996    0.1466    0.0000 C   0  0  0  0  0  0  0  0  0  0  0  0
   -0.7586   -1.3450    0.0000 C   0  0  0  0  0  0  0  0  0  0  0  0
   -2.0566   -0.5930    0.0000 C   0  0  0  0  0  0  0  0  0  0  0  0
   -4.3284    2.6439    0.0000 C   0  0  0  0  0  0  0  0  0  0  0  0
   -4.6381    4.1116    0.0000 C   0  0  0  0  0  0  0  0  0  0  0  0
   -2.9025    2.1782    0.0000 C   0  0  0  0  0  0  0  0  0  0  0  0
  1  2  2  0
  2  3  1  0
  3  4  1  0
  4  5  1  0
  4  6  1  0
  6  7  1  0
  6  8  1  0
  8  9  1  0
  9 10  1  0
 10 11  1  0
 11 12  1  0
 12 13  1  0
 13 14  1  0
 14 15  2  0
 15 16  1  0
 16 17  1  0
 17 18  1  6
 17 19  1  0
 19 20  1  0
 20 21  1  0
 21 22  1  6
 21 23  1  0
 23 24  1  0
 24 25  1  0
 25 26  1  0
 26 27  1  6
  2 28  1  0
 28 29  1  0
 28 30  1  0
 26  8  1  0
 26 11  1  0
 23 12  1  0
 21 15  1  0
M  END
>  <identifier>  (1879) 
CNP0126090.1

>  <canonical_smiles>  (1879) 
C=C(CC(O)C(C)C1CCC2C3CC=C4C[C@@H](O)CC[C@]4(C)C3CC[C@]12C)C(C)C

>  <standard_inchi>  (1879) 
InChI=1S/C28H46O2/c1-17(2)18(3)15-26(30)19(4)23-9-10-24-22-8-7-20-16-21(29)11-13-27(20,5)25(22)12-14-28(23,24)6/h7,17,19,21-26,29-30H,3,8-16H2,1-2,4-6H3/t19?,21-,22?,23?,24?,25?,26?,27-,28+/m0/s1

>  <standard_inchi_key>  (1879) 
ABTDMVGTVHLKEM-LVVCFWQASA-N

>  <name>  (1879) 
nan

>  <iupac_name>  (1879) 
(3~{S},10~{R},13~{S})-17-(2-hydroxy-1,5-dimethyl-4-methylene-hexyl)-10,13-dimethyl-2,3,4,7,8,9,11,12,14,15,16,17-dodecahydro-1~{H}-cyclopenta[a]phenanthren-3-ol

>  <annotation_level>  (1879) 
4

>  <total_atom_count>  (1879) 
76

>  <heavy_atom_count>  (1879) 
30

>  <molecular_weight>  (1879) 
414.67

>  <exact_molecular_weight>  (1879) 
414.34978

>  <molecular_formula>  (1879) 
C28H46O2

>  <alogp>  (1879) 
6.53

>  <topological_polar_surface_area>  (1879) 
40.46

>  <rotatable_bond_count>  (1879) 
5

>  <hydrogen_bond_acceptors>  (1879) 
2

>  <hydrogen_bond_donors>  (1879) 
2

>  <hydrogen_bond_acceptors_lipinski>  (1879) 
2

>  <hydrogen_bond_donors_lipinski>  (1879) 
2

>  <lipinski_rule_of_five_violations>  (1879) 
1

>  <aromatic_rings_count>  (1879) 
0

>  <qed_drug_likeliness>  (1879) 
0.50

>  <formal_charge>  (1879) 
0

>  <fractioncsp3>  (1879) 
0.86

>  <number_of_minimal_rings>  (1879) 
4

>  <van_der_walls_volume>  (1879) 
nan

>  <contains_sugar>  (1879) 
False

>  <contains_ring_sugars>  (1879) 
False

>  <contains_linear_sugars>  (1879) 
False

>  <murcko_framework>  (1879) 
C1=C2CCCCC2C3CCC4CCCC4C3C1

>  <np_likeness>  (1879) 
2.98

>  <chemical_class>  (1879) 
Steroids and steroid derivatives

>  <chemical_sub_class>  (1879) 
Bile acids, alcohols and derivatives

>  <chemical_super_class>  (1879) 
Lipids and lipid-like molecules

>  <direct_parent_classification>  (1879) 
Bile acids, alcohols and derivatives

>  <np_classifier_pathway>  (1879) 
Terpenoids

>  <np_classifier_superclass>  (1879) 
Steroids

>  <np_classifier_class>  (1879) 
Ergostane steroids

>  <np_classifier_is_glycoside>  (1879) 
False

>  <organisms>  (1879) 
Trichilia pallida

>  <collections>  (1879) 
Latin America dataset|NuBBEDB|WikiData Natural Products

>  <dois>  (1879) 
10.1590/S1519-566X2008000600013

>  <synonyms>  (1879) 
24-methylene-322-dihydroxycholesterol

>  <cas>  (1879) 
nan

$$$$

     RDKit          2D

 30 33  0  0  0  0  0  0  0  0999 V2000
   -3.3988   -3.6784    0.0000 C   0  0  0  0  0  0  0  0  0  0  0  0
   -3.4437   -2.1791    0.0000 C   0  0  0  0  0  0  0  0  0  0  0  0
   -2.1677   -1.3905    0.0000 O   0  0  0  0  0  0  0  0  0  0  0  0
   -2.2126    0.1088    0.0000 C   0  0  0  0  0  0  0  0  0  0  0  0
   -0.9366    0.8974    0.0000 O   0  0  0  0  0  0  0  0  0  0  0  0
    0.3843    0.1866    0.0000 C   0  0  0  0  0  0  0  0  0  0  0  0
    0.4292   -1.3127    0.0000 C   0  0  0  0  0  0  0  0  0  0  0  0
    1.7501   -2.0235    0.0000 C   0  0  0  0  0  0  0  0  0  0  0  0
    1.7951   -3.5228    0.0000 C   0  0  0  0  0  0  0  0  0  0  0  0
    0.5191   -4.3114    0.0000 O   0  0  0  0  0  0  0  0  0  0  0  0
    3.1160   -4.2336    0.0000 C   0  0  0  0  0  0  0  0  0  0  0  0
    4.3920   -3.4450    0.0000 C   0  0  0  0  0  0  0  0  0  0  0  0
    5.7129   -4.1558    0.0000 O   0  0  0  0  0  0  0  0  0  0  0  0
    4.3470   -1.9457    0.0000 C   0  0  0  0  0  0  0  0  0  0  0  0
    3.0261   -1.2349    0.0000 C   0  0  0  0  0  0  0  0  0  0  0  0
    2.9812    0.2644    0.0000 O   0  0  0  0  0  0  0  0  0  0  0  0
    1.6603    0.9752    0.0000 C   0  0  0  0  0  0  0  0  0  0  0  0
    1.6154    2.4745    0.0000 C   0  0  0  0  0  0  0  0  0  0  0  0
    2.8914    3.2631    0.0000 C   0  0  0  0  0  0  0  0  0  0  0  0
    2.8464    4.7624    0.0000 C   0  0  0  0  0  0  0  0  0  0  0  0
    1.5255    5.4731    0.0000 C   0  0  0  0  0  0  0  0  0  0  0  0
    1.4806    6.9725    0.0000 O   0  0  0  0  0  0  0  0  0  0  0  0
    0.2495    4.6846    0.0000 C   0  0  0  0  0  0  0  0  0  0  0  0
    0.2945    3.1852    0.0000 C   0  0  0  0  0  0  0  0  0  0  0  0
   -3.5335    0.8195    0.0000 C   0  0  0  0  0  0  0  0  0  0  0  0
   -3.5785    2.3189    0.0000 O   0  0  0  0  0  0  0  0  0  0  0  0
   -4.8095    0.0310    0.0000 C   0  0  0  0  0  0  0  0  0  0  0  0
   -6.1304    0.7417    0.0000 O   0  0  0  0  0  0  0  0  0  0  0  0
   -4.7646   -1.4683    0.0000 C   0  0  0  0  0  0  0  0  0  0  0  0
   -6.0406   -2.2569    0.0000 O   0  0  0  0  0  0  0  0  0  0  0  0
  2  1  1  6
  2  3  1  0
  3  4  1  0
  4  5  1  1
  6  5  1  6
  6  7  1  0
  7  8  1  0
  8  9  2  0
  9 10  1  0
  9 11  1  0
 11 12  2  0
 12 13  1  0
 12 14  1  0
 14 15  2  0
 15 16  1  0
 16 17  1  0
 17 18  1  1
 18 19  2  0
 19 20  1  0
 20 21  2  0
 21 22  1  0
 21 23  1  0
 23 24  2  0
  4 25  1  0
 25 26  1  6
 25 27  1  0
 27 28  1  6
 27 29  1  0
 29 30  1  1
 29  2  1  0
 17  6  1  0
 24 18  1  0
 15  8  1  0
M  END
>  <identifier>  (1880) 
CNP0182506.5

>  <canonical_smiles>  (1880) 
C[C@H]1O[C@H](O[C@H]2CC3=C(O)C=C(O)C=C3O[C@@H]2C2=CC=C(O)C=C2)[C@@H](O)[C@@H](O)[C@@H]1O

>  <standard_inchi>  (1880) 
InChI=1S/C21H24O9/c1-9-17(25)18(26)19(27)21(28-9)30-16-8-13-14(24)6-12(23)7-15(13)29-20(16)10-2-4-11(22)5-3-10/h2-7,9,16-27H,8H2,1H3/t9-,16+,17-,18+,19+,20-,21-/m1/s1

>  <standard_inchi_key>  (1880) 
SQJLTDFIOMWZDE-IRSMJBIBSA-N

>  <name>  (1880) 
nan

>  <iupac_name>  (1880) 
(2~{R},3~{S},4~{S},5~{S},6~{R})-2-[(2~{R},3~{S})-5,7-dihydroxy-2-(4-hydroxyphenyl)chroman-3-yl]oxy-6-methyl-tetrahydropyran-3,4,5-triol

>  <annotation_level>  (1880) 
4

>  <total_atom_count>  (1880) 
54

>  <heavy_atom_count>  (1880) 
30

>  <molecular_weight>  (1880) 
420.41

>  <exact_molecular_weight>  (1880) 
420.14203

>  <molecular_formula>  (1880) 
C21H24O9

>  <alogp>  (1880) 
0.69

>  <topological_polar_surface_area>  (1880) 
149.07

>  <rotatable_bond_count>  (1880) 
3

>  <hydrogen_bond_acceptors>  (1880) 
9

>  <hydrogen_bond_donors>  (1880) 
6

>  <hydrogen_bond_acceptors_lipinski>  (1880) 
9

>  <hydrogen_bond_donors_lipinski>  (1880) 
6

>  <lipinski_rule_of_five_violations>  (1880) 
1

>  <aromatic_rings_count>  (1880) 
2

>  <qed_drug_likeliness>  (1880) 
0.42

>  <formal_charge>  (1880) 
0

>  <fractioncsp3>  (1880) 
0.43

>  <number_of_minimal_rings>  (1880) 
4

>  <van_der_walls_volume>  (1880) 
nan

>  <contains_sugar>  (1880) 
True

>  <contains_ring_sugars>  (1880) 
True

>  <contains_linear_sugars>  (1880) 
False

>  <murcko_framework>  (1880) 
O1c2ccccc2CC(OC3OCCCC3)C1c4ccccc4

>  <np_likeness>  (1880) 
2.34

>  <chemical_class>  (1880) 
Flavonoids

>  <chemical_sub_class>  (1880) 
Flavonoid glycosides

>  <chemical_super_class>  (1880) 
Phenylpropanoids and polyketides

>  <direct_parent_classification>  (1880) 
Flavonoid-3-O-glycosides

>  <np_classifier_pathway>  (1880) 
Shikimates and Phenylpropanoids

>  <np_classifier_superclass>  (1880) 
Flavonoids

>  <np_classifier_class>  (1880) 
Flavan-3-ols

>  <np_classifier_is_glycoside>  (1880) 
True

>  <organisms>  (1880) 
Vochysia thyrsoidea

>  <collections>  (1880) 
Latin America dataset|NuBBEDB|WikiData Natural Products|ZINC NP

>  <dois>  (1880) 
10.5935/0100-4042.20140049

>  <synonyms>  (1880) 
Catechin-3-O-\u221a\u00e9\u00ac\u00b1-rhamnopyranoside

>  <cas>  (1880) 
nan

$$$$

     RDKit          2D

 32 36  0  0  0  0  0  0  0  0999 V2000
    2.7933   -2.1480    0.0000 C   0  0  0  0  0  0  0  0  0  0  0  0
    4.2894   -2.2565    0.0000 C   0  0  0  0  0  0  0  0  0  0  0  0
    5.7854   -2.3650    0.0000 C   0  0  0  0  0  0  0  0  0  0  0  0
    4.1809   -3.7526    0.0000 O   0  0  0  0  0  0  0  0  0  0  0  0
    4.3978   -0.7604    0.0000 C   0  0  0  0  0  0  0  0  0  0  0  0
    5.6719    0.0312    0.0000 C   0  0  0  0  0  0  0  0  0  0  0  0
    5.3128    1.4876    0.0000 C   0  0  0  0  0  0  0  0  0  0  0  0
    3.8167    1.5960    0.0000 C   0  0  0  0  0  0  0  0  0  0  0  0
    4.5243    2.9186    0.0000 C   0  0  0  0  0  0  0  0  0  0  0  0
    2.8962    2.7804    0.0000 C   0  0  0  0  0  0  0  0  0  0  0  0
    1.4103    2.5754    0.0000 C   0  0  0  0  0  0  0  0  0  0  0  0
    0.8448    1.1861    0.0000 C   0  0  0  0  0  0  0  0  0  0  0  0
   -0.0756    2.3705    0.0000 C   0  0  0  0  0  0  0  0  0  0  0  0
    1.7653    0.0017    0.0000 C   0  0  0  0  0  0  0  0  0  0  0  0
    1.1998   -1.3876    0.0000 C   0  0  0  0  0  0  0  0  0  0  0  0
   -0.2861   -1.5926    0.0000 C   0  0  0  0  0  0  0  0  0  0  0  0
   -1.2066   -0.4082    0.0000 C   0  0  0  0  0  0  0  0  0  0  0  0
   -2.6925   -0.6132    0.0000 C   0  0  0  0  0  0  0  0  0  0  0  0
   -1.7720   -1.7975    0.0000 C   0  0  0  0  0  0  0  0  0  0  0  0
   -3.2580   -2.0025    0.0000 C   0  0  0  0  0  0  0  0  0  0  0  0
   -4.7439   -2.2075    0.0000 C   0  0  0  0  0  0  0  0  0  0  0  0
   -5.6644   -1.0231    0.0000 C   0  0  0  0  0  0  0  0  0  0  0  0
   -7.1503   -1.2281    0.0000 O   0  0  0  0  0  0  0  0  0  0  0  0
   -5.0989    0.3662    0.0000 C   0  0  0  0  0  0  0  0  0  0  0  0
   -5.0427    1.8652    0.0000 C   0  0  0  0  0  0  0  0  0  0  0  0
   -6.5653    0.6819    0.0000 C   0  0  0  0  0  0  0  0  0  0  0  0
   -3.6130    0.5712    0.0000 C   0  0  0  0  0  0  0  0  0  0  0  0
   -3.0475    1.9605    0.0000 C   0  0  0  0  0  0  0  0  0  0  0  0
   -1.5616    2.1655    0.0000 C   0  0  0  0  0  0  0  0  0  0  0  0
   -0.6411    0.9811    0.0000 C   0  0  0  0  0  0  0  0  0  0  0  0
    0.2794   -0.2032    0.0000 C   0  0  0  0  0  0  0  0  0  0  0  0
    3.2512    0.2067    0.0000 C   0  0  0  0  0  0  0  0  0  0  0  0
  1  2  1  0
  2  3  1  0
  2  4  1  0
  5  2  1  1
  5  6  1  0
  6  7  1  0
  7  8  1  0
  8  9  1  6
  8 10  1  0
 10 11  1  0
 11 12  1  0
 12 13  1  1
 12 14  1  0
 14 15  1  0
 15 16  1  0
 16 17  1  0
 17 18  1  0
 18 19  1  6
 18 20  1  0
 20 21  1  0
 21 22  1  0
 22 23  1  6
 22 24  1  0
 24 25  1  0
 24 26  1  0
 24 27  1  0
 27 28  1  0
 28 29  1  0
 29 30  1  0
 30 31  1  6
 14 32  1  0
 32  5  1  0
 32  8  1  0
 30 12  1  0
 30 17  1  0
 27 18  1  0
M  END
>  <identifier>  (1881) 
CNP0283224.4

>  <canonical_smiles>  (1881) 
CC(C)(O)[C@@H]1CC[C@]2(C)CC[C@]3(C)C(CCC4[C@@]5(C)CC[C@H](O)C(C)(C)C5CC[C@]43C)C12

>  <standard_inchi>  (1881) 
InChI=1S/C30H52O2/c1-25(2)21-12-16-30(8)22(28(21,6)15-13-23(25)31)10-9-20-24-19(26(3,4)32)11-14-27(24,5)17-18-29(20,30)7/h19-24,31-32H,9-18H2,1-8H3/t19-,20?,21?,22?,23+,24?,27-,28+,29-,30-/m1/s1

>  <standard_inchi_key>  (1881) 
YDNYDUBBAZTLTQ-FIFSTZHWSA-N

>  <name>  (1881) 
(1R,2R,5R,8R,14R,17S)-8-(2-hydroxypropan-2-yl)-1,2,5,14,18,18-hexamethylpentacyclo[11.8.0.0^{2,10}.0^{5,9}.0^{14,19}]henicosan-17-ol

>  <iupac_name>  (1881) 
(1~{R},3~{a}~{R},5~{a}~{R},5~{b}~{R},9~{S},11~{a}~{R})-1-(1-hydroxy-1-methyl-ethyl)-3~{a},5~{a},5~{b},8,8,11~{a}-hexamethyl-1,2,3,4,5,6,7,7~{a},9,10,11,11~{b},12,13,13~{a},13~{b}-hexadecahydrocyclopenta[a]chrysen-9-ol

>  <annotation_level>  (1881) 
5

>  <total_atom_count>  (1881) 
84

>  <heavy_atom_count>  (1881) 
32

>  <molecular_weight>  (1881) 
444.74

>  <exact_molecular_weight>  (1881) 
444.39673

>  <molecular_formula>  (1881) 
C30H52O2

>  <alogp>  (1881) 
7.22

>  <topological_polar_surface_area>  (1881) 
40.46

>  <rotatable_bond_count>  (1881) 
1

>  <hydrogen_bond_acceptors>  (1881) 
2

>  <hydrogen_bond_donors>  (1881) 
2

>  <hydrogen_bond_acceptors_lipinski>  (1881) 
2

>  <hydrogen_bond_donors_lipinski>  (1881) 
2

>  <lipinski_rule_of_five_violations>  (1881) 
1

>  <aromatic_rings_count>  (1881) 
0

>  <qed_drug_likeliness>  (1881) 
0.45

>  <formal_charge>  (1881) 
0

>  <fractioncsp3>  (1881) 
1.00

>  <number_of_minimal_rings>  (1881) 
5

>  <van_der_walls_volume>  (1881) 
nan

>  <contains_sugar>  (1881) 
False

>  <contains_ring_sugars>  (1881) 
False

>  <contains_linear_sugars>  (1881) 
False

>  <murcko_framework>  (1881) 
C1CCC2C(C1)CCC3C2CCC4C5CCCC5CCC43

>  <np_likeness>  (1881) 
2.96

>  <chemical_class>  (1881) 
Prenol lipids

>  <chemical_sub_class>  (1881) 
Triterpenoids

>  <chemical_super_class>  (1881) 
Lipids and lipid-like molecules

>  <direct_parent_classification>  (1881) 
Lupane triterpenoids

>  <np_classifier_pathway>  (1881) 
Terpenoids

>  <np_classifier_superclass>  (1881) 
Triterpenoids

>  <np_classifier_class>  (1881) 
Lupane triterpenoids

>  <np_classifier_is_glycoside>  (1881) 
False

>  <organisms>  (1881) 
Almeidea coerulea|Conchocarpus coeruleus

>  <collections>  (1881) 
Latin America dataset|NuBBEDB|WikiData Natural Products

>  <dois>  (1881) 
10.1590/S0102-695X2006000200006|10.1590/S1516-89132011000100008

>  <synonyms>  (1881) 
20-hydroxy-dihydrolupeol|SCHEMBL17124265

>  <cas>  (1881) 
nan

$$$$

     RDKit          2D

 24 27  0  0  0  0  0  0  0  0999 V2000
    3.8387   -3.8562    0.0000 C   0  0  0  0  0  0  0  0  0  0  0  0
    3.7184   -2.3610    0.0000 C   0  0  0  0  0  0  0  0  0  0  0  0
    2.3634   -1.7176    0.0000 C   0  0  0  0  0  0  0  0  0  0  0  0
    2.2431   -0.2225    0.0000 C   0  0  0  0  0  0  0  0  0  0  0  0
    3.6580   -0.7207    0.0000 C   0  0  0  0  0  0  0  0  0  0  0  0
    4.7969    0.2554    0.0000 C   0  0  0  0  0  0  0  0  0  0  0  0
    4.5210    1.7298    0.0000 C   0  0  0  0  0  0  0  0  0  0  0  0
    3.1061    2.2281    0.0000 C   0  0  0  0  0  0  0  0  0  0  0  0
    2.8302    3.7025    0.0000 O   0  0  0  0  0  0  0  0  0  0  0  0
    1.9672    1.2519    0.0000 C   0  0  0  0  0  0  0  0  0  0  0  0
    1.5387    2.6894    0.0000 O   0  0  0  0  0  0  0  0  0  0  0  0
    0.4797    1.4452    0.0000 O   0  0  0  0  0  0  0  0  0  0  0  0
   -0.1637    0.0902    0.0000 C   0  0  0  0  0  0  0  0  0  0  0  0
   -1.6381   -0.1858    0.0000 C   0  0  0  0  0  0  0  0  0  0  0  0
   -2.1364   -1.6006    0.0000 C   0  0  0  0  0  0  0  0  0  0  0  0
   -3.6108   -1.8765    0.0000 C   0  0  0  0  0  0  0  0  0  0  0  0
   -4.5869   -0.7376    0.0000 C   0  0  0  0  0  0  0  0  0  0  0  0
   -6.0865   -0.7009    0.0000 O   0  0  0  0  0  0  0  0  0  0  0  0
   -6.5150    0.7366    0.0000 C   0  0  0  0  0  0  0  0  0  0  0  0
   -5.2803    1.5883    0.0000 O   0  0  0  0  0  0  0  0  0  0  0  0
   -4.0887    0.6772    0.0000 C   0  0  0  0  0  0  0  0  0  0  0  0
   -2.6143    0.9532    0.0000 C   0  0  0  0  0  0  0  0  0  0  0  0
    0.9262   -0.9405    0.0000 C   0  0  0  0  0  0  0  0  0  0  0  0
    0.7329   -2.4280    0.0000 C   0  0  0  0  0  0  0  0  0  0  0  0
  1  2  2  0
  2  3  1  0
  4  3  1  1
  4  5  1  0
  5  6  1  0
  6  7  2  0
  7  8  1  0
  8  9  2  0
  8 10  1  0
 10 11  1  1
 10 12  1  0
 12 13  1  0
 13 14  1  1
 14 15  2  0
 15 16  1  0
 16 17  2  0
 17 18  1  0
 18 19  1  0
 19 20  1  0
 20 21  1  0
 21 22  2  0
 13 23  1  0
 23 24  1  6
 10  4  1  0
 22 14  1  0
 23  4  1  0
 21 17  1  0
M  END
>  <identifier>  (1882) 
CNP0365907.5

>  <canonical_smiles>  (1882) 
C=CC[C@]12CC=CC(=O)[C@@]1(O)O[C@H](C1=CC=C3OCOC3=C1)[C@H]2C

>  <standard_inchi>  (1882) 
InChI=1S/C19H20O5/c1-3-8-18-9-4-5-16(20)19(18,21)24-17(12(18)2)13-6-7-14-15(10-13)23-11-22-14/h3-7,10,12,17,21H,1,8-9,11H2,2H3/t12-,17+,18-,19-/m1/s1

>  <standard_inchi_key>  (1882) 
ZWZOJVXHAOTSDM-YJQAKTFBSA-N

>  <name>  (1882) 
(2S,3S,3aR,7aS)-2-(2H-1,3-benzodioxol-5-yl)-7a-hydroxy-3-methyl-3a-(prop-2-en-1-yl)-2,3,3a,4,7,7a-hexahydro-1-benzofuran-7-one

>  <iupac_name>  (1882) 
(2~{S},3~{S},3~{a}~{R},7~{a}~{S})-3~{a}-allyl-2-(1,3-benzodioxol-5-yl)-7~{a}-hydroxy-3-methyl-3,4-dihydro-2~{H}-benzofuran-7-one

>  <annotation_level>  (1882) 
5

>  <total_atom_count>  (1882) 
44

>  <heavy_atom_count>  (1882) 
24

>  <molecular_weight>  (1882) 
328.36

>  <exact_molecular_weight>  (1882) 
328.13107

>  <molecular_formula>  (1882) 
C19H20O5

>  <alogp>  (1882) 
2.90

>  <topological_polar_surface_area>  (1882) 
64.99

>  <rotatable_bond_count>  (1882) 
3

>  <hydrogen_bond_acceptors>  (1882) 
5

>  <hydrogen_bond_donors>  (1882) 
1

>  <hydrogen_bond_acceptors_lipinski>  (1882) 
5

>  <hydrogen_bond_donors_lipinski>  (1882) 
1

>  <lipinski_rule_of_five_violations>  (1882) 
0

>  <aromatic_rings_count>  (1882) 
1

>  <qed_drug_likeliness>  (1882) 
0.86

>  <formal_charge>  (1882) 
0

>  <fractioncsp3>  (1882) 
0.42

>  <number_of_minimal_rings>  (1882) 
4

>  <van_der_walls_volume>  (1882) 
nan

>  <contains_sugar>  (1882) 
False

>  <contains_ring_sugars>  (1882) 
False

>  <contains_linear_sugars>  (1882) 
False

>  <murcko_framework>  (1882) 
O1c2ccc(cc2OC1)C3OC4CC=CCC4C3

>  <np_likeness>  (1882) 
1.84

>  <chemical_class>  (1882) 
Benzodioxoles

>  <chemical_sub_class>  (1882) 
Benzodioxoles

>  <chemical_super_class>  (1882) 
Organoheterocyclic compounds

>  <direct_parent_classification>  (1882) 
Benzodioxoles

>  <np_classifier_pathway>  (1882) 
Shikimates and Phenylpropanoids

>  <np_classifier_superclass>  (1882) 
Lignans

>  <np_classifier_class>  (1882) 
Neolignans

>  <np_classifier_is_glycoside>  (1882) 
True

>  <organisms>  (1882) 
Ocotea catharinensis

>  <collections>  (1882) 
Latin America dataset|NuBBEDB|Super Natural II|WikiData Natural Products|ZINC NP

>  <dois>  (1882) 
10.1016/0031-9422(91)83479-5

>  <synonyms>  (1882) 
SCHEMBL13998571|rel-(7S8S1'R2'S)-D4'8'-2'-Hydroxy-34-methylenedioxy-3'-oxo-8.1'7.O2'-neolignan

>  <cas>  (1882) 
nan

$$$$

     RDKit          2D

 31 33  0  0  0  0  0  0  0  0999 V2000
   -7.2028    2.0936    0.0000 C   0  0  0  0  0  0  0  0  0  0  0  0
   -6.6453    0.7011    0.0000 O   0  0  0  0  0  0  0  0  0  0  0  0
   -5.1605    0.4877    0.0000 C   0  0  0  0  0  0  0  0  0  0  0  0
   -4.2334    1.6668    0.0000 C   0  0  0  0  0  0  0  0  0  0  0  0
   -2.7486    1.4534    0.0000 C   0  0  0  0  0  0  0  0  0  0  0  0
   -1.8214    2.6325    0.0000 O   0  0  0  0  0  0  0  0  0  0  0  0
   -2.3790    4.0251    0.0000 C   0  0  0  0  0  0  0  0  0  0  0  0
   -2.1910    0.0609    0.0000 C   0  0  0  0  0  0  0  0  0  0  0  0
   -0.7063   -0.1525    0.0000 C   0  0  0  0  0  0  0  0  0  0  0  0
   -0.1487   -1.5450    0.0000 C   0  0  0  0  0  0  0  0  0  0  0  0
   -1.0759   -2.7241    0.0000 O   0  0  0  0  0  0  0  0  0  0  0  0
   -2.5607   -2.5108    0.0000 C   0  0  0  0  0  0  0  0  0  0  0  0
    1.3360   -1.7584    0.0000 C   0  0  0  0  0  0  0  0  0  0  0  0
    1.8936   -3.1509    0.0000 O   0  0  0  0  0  0  0  0  0  0  0  0
    2.2632   -0.5793    0.0000 C   0  0  0  0  0  0  0  0  0  0  0  0
    3.7479   -0.7927    0.0000 C   0  0  0  0  0  0  0  0  0  0  0  0
    4.3055   -2.1852    0.0000 O   0  0  0  0  0  0  0  0  0  0  0  0
    5.7902   -2.3986    0.0000 C   0  0  0  0  0  0  0  0  0  0  0  0
    4.6751    0.3864    0.0000 C   0  0  0  0  0  0  0  0  0  0  0  0
    6.1599    0.1731    0.0000 O   0  0  0  0  0  0  0  0  0  0  0  0
    6.7174   -1.2195    0.0000 C   0  0  0  0  0  0  0  0  0  0  0  0
    4.1175    1.7790    0.0000 C   0  0  0  0  0  0  0  0  0  0  0  0
    5.0447    2.9581    0.0000 O   0  0  0  0  0  0  0  0  0  0  0  0
    6.5295    2.7447    0.0000 C   0  0  0  0  0  0  0  0  0  0  0  0
    2.6328    1.9924    0.0000 C   0  0  0  0  0  0  0  0  0  0  0  0
    1.7056    0.8132    0.0000 C   0  0  0  0  0  0  0  0  0  0  0  0
    0.2209    1.0266    0.0000 O   0  0  0  0  0  0  0  0  0  0  0  0
   -3.1182   -1.1182    0.0000 C   0  0  0  0  0  0  0  0  0  0  0  0
   -4.6030   -0.9048    0.0000 C   0  0  0  0  0  0  0  0  0  0  0  0
   -5.5301   -2.0840    0.0000 O   0  0  0  0  0  0  0  0  0  0  0  0
   -7.0149   -1.8706    0.0000 C   0  0  0  0  0  0  0  0  0  0  0  0
  1  2  1  0
  2  3  1  0
  3  4  2  0
  4  5  1  0
  5  6  1  0
  6  7  1  0
  5  8  2  0
  8  9  1  0
  9 10  2  0
 10 11  1  0
 11 12  1  0
 10 13  1  0
 13 14  2  0
 13 15  1  0
 15 16  2  0
 16 17  1  0
 17 18  1  0
 16 19  1  0
 19 20  1  0
 20 21  1  0
 19 22  2  0
 22 23  1  0
 23 24  1  0
 22 25  1  0
 25 26  2  0
 26 27  1  0
  8 28  1  0
 28 29  2  0
 29 30  1  0
 30 31  1  0
 29  3  1  0
 27  9  1  0
 26 15  1  0
M  END
>  <identifier>  (1883) 
CNP0275468.0

>  <canonical_smiles>  (1883) 
COC1=CC(OC)=C(C2=C(OC)C(=O)C3=C(OC)C(OC)=C(OC)C=C3O2)C=C1OC

>  <standard_inchi>  (1883) 
InChI=1S/C22H24O9/c1-24-12-9-14(26-3)13(25-2)8-11(12)19-22(30-7)18(23)17-15(31-19)10-16(27-4)20(28-5)21(17)29-6/h8-10H,1-7H3

>  <standard_inchi_key>  (1883) 
IMHDYMBDJDIPRX-UHFFFAOYSA-N

>  <name>  (1883) 
Benthamitin

>  <iupac_name>  (1883) 
3,5,6,7-tetramethoxy-2-(2,4,5-trimethoxyphenyl)chromen-4-one

>  <annotation_level>  (1883) 
5

>  <total_atom_count>  (1883) 
55

>  <heavy_atom_count>  (1883) 
31

>  <molecular_weight>  (1883) 
432.43

>  <exact_molecular_weight>  (1883) 
432.14203

>  <molecular_formula>  (1883) 
C22H24O9

>  <alogp>  (1883) 
3.52

>  <topological_polar_surface_area>  (1883) 
94.82

>  <rotatable_bond_count>  (1883) 
8

>  <hydrogen_bond_acceptors>  (1883) 
9

>  <hydrogen_bond_donors>  (1883) 
0

>  <hydrogen_bond_acceptors_lipinski>  (1883) 
9

>  <hydrogen_bond_donors_lipinski>  (1883) 
0

>  <lipinski_rule_of_five_violations>  (1883) 
0

>  <aromatic_rings_count>  (1883) 
3

>  <qed_drug_likeliness>  (1883) 
0.53

>  <formal_charge>  (1883) 
0

>  <fractioncsp3>  (1883) 
0.32

>  <number_of_minimal_rings>  (1883) 
3

>  <van_der_walls_volume>  (1883) 
375.25

>  <contains_sugar>  (1883) 
False

>  <contains_ring_sugars>  (1883) 
False

>  <contains_linear_sugars>  (1883) 
False

>  <murcko_framework>  (1883) 
O1c2ccccc2CC=C1c3ccccc3

>  <np_likeness>  (1883) 
0.89

>  <chemical_class>  (1883) 
Flavonoids

>  <chemical_sub_class>  (1883) 
O-methylated flavonoids

>  <chemical_super_class>  (1883) 
Phenylpropanoids and polyketides

>  <direct_parent_classification>  (1883) 
6-O-methylated flavonoids

>  <np_classifier_pathway>  (1883) 
Shikimates and Phenylpropanoids

>  <np_classifier_superclass>  (1883) 
Flavonoids

>  <np_classifier_class>  (1883) 
Flavonols

>  <np_classifier_is_glycoside>  (1883) 
False

>  <organisms>  (1883) 
Acacia pycnantha|Afrocarpus falcatus|Agelas nakamurai|Aloe vulgaris|Alpinia allughas|Apuleia leiocarpa|Asterogyne martiana|Baccharis magellanica|Beilschmiedia volckii|Berkheya zeyheri|Beta vulgaris|Calonectria cylindrospora|Canella winterana|Carlina acaulis|Chaetomium globosum|Chaetomium subaffine|Chrysosplenium echinus|Cirsium tanakae|Clausena lansium|Crangon vulgaris|Cystoseira jabukae|Daphne giraldii|Decachaeta thieleana|Distemonanthus benthamianus|Ericameria diffusa|Eriostemon thryptomenoides|Eumorphia sericea|Eupatorium birmanicum|Flemingia chappar|Garcinia pseudoguttifera|Gutierrezia microcephala|Halobacterium salinarum|Heliotropium eichwaldii|Kuehneromyces mutabilis|Ligularia lamarum|Lippia mexicana|Narcissus obesus|Nicotiana debneyi|Ocotea pulchella|Phorbas amaranthus|Phyllanthus discoideus|Salvia digitaloides|Sophora exigua|Sporobolus cynosuroides|Streptomyces chattanoogensis|Thalictrum cultratum|Thermopsis alpina|Trichoderma polysporum|Turricula parryi|Uncaria laevigata|Xanthium pungens

>  <collections>  (1883) 
CMAUP (cCollective molecular activities of useful plants)|KNApSaCK|Latin America dataset|NPASS|NPEdia|NuBBEDB|Super Natural II|UNPD (Universal Natural Products Database)|WikiData Natural Products|ZINC NP

>  <dois>  (1883) 
10.1016/0031-9422(85)80050-9|10.1016/S0031-9422(00)83952-7|10.1016/S0031-9422(00)89891-X

>  <synonyms>  (1883) 
3,5,6,7,2',4',5'-heptamethoxyflavone|3,5,6,7-tetramethoxy-2-(2,4,5-trimethoxyphenyl)chromen-4-one|Apulein dimethyl ether|Benthamitin|CHEBI:196401|LMPK12113064

>  <cas>  (1883) 
nan

$$$$

     RDKit          2D

 17 18  0  0  0  0  0  0  0  0999 V2000
   -3.2954    2.9610    0.0000 C   0  0  0  0  0  0  0  0  0  0  0  0
   -3.2155    1.4631    0.0000 O   0  0  0  0  0  0  0  0  0  0  0  0
   -1.8783    0.7834    0.0000 C   0  0  0  0  0  0  0  0  0  0  0  0
   -0.6211    1.6015    0.0000 C   0  0  0  0  0  0  0  0  0  0  0  0
    0.7161    0.9218    0.0000 C   0  0  0  0  0  0  0  0  0  0  0  0
    0.7960   -0.5761    0.0000 C   0  0  0  0  0  0  0  0  0  0  0  0
   -0.4613   -1.3942    0.0000 C   0  0  0  0  0  0  0  0  0  0  0  0
   -0.3814   -2.8921    0.0000 O   0  0  0  0  0  0  0  0  0  0  0  0
   -1.7984   -0.7145    0.0000 C   0  0  0  0  0  0  0  0  0  0  0  0
   -3.0557   -1.5326    0.0000 O   0  0  0  0  0  0  0  0  0  0  0  0
   -4.3928   -0.8529    0.0000 C   0  0  0  0  0  0  0  0  0  0  0  0
    2.1331   -1.2558    0.0000 C   0  0  0  0  0  0  0  0  0  0  0  0
    2.2130   -2.7537    0.0000 O   0  0  0  0  0  0  0  0  0  0  0  0
    3.3903   -0.4377    0.0000 C   0  0  0  0  0  0  0  0  0  0  0  0
    3.3104    1.0602    0.0000 C   0  0  0  0  0  0  0  0  0  0  0  0
    4.5677    1.8783    0.0000 C   0  0  0  0  0  0  0  0  0  0  0  0
    1.9733    1.7399    0.0000 O   0  0  0  0  0  0  0  0  0  0  0  0
  1  2  1  0
  2  3  1  0
  3  4  2  0
  4  5  1  0
  5  6  2  0
  6  7  1  0
  7  8  1  0
  7  9  2  0
  9 10  1  0
 10 11  1  0
  6 12  1  0
 12 13  2  0
 12 14  1  0
 14 15  2  0
 15 16  1  0
 15 17  1  0
  9  3  1  0
 17  5  1  0
M  END
>  <identifier>  (1884) 
CNP0159284.0

>  <canonical_smiles>  (1884) 
COC1=CC2=C(C(O)=C1OC)C(=O)C=C(C)O2

>  <standard_inchi>  (1884) 
InChI=1S/C12H12O5/c1-6-4-7(13)10-8(17-6)5-9(15-2)12(16-3)11(10)14/h4-5,14H,1-3H3

>  <standard_inchi_key>  (1884) 
PJCFJNHVNWMRPD-UHFFFAOYSA-N

>  <name>  (1884) 
STELLATIN

>  <iupac_name>  (1884) 
5-hydroxy-6,7-dimethoxy-2-methyl-chromen-4-one

>  <annotation_level>  (1884) 
5

>  <total_atom_count>  (1884) 
29

>  <heavy_atom_count>  (1884) 
17

>  <molecular_weight>  (1884) 
236.22

>  <exact_molecular_weight>  (1884) 
236.06847

>  <molecular_formula>  (1884) 
C12H12O5

>  <alogp>  (1884) 
1.82

>  <topological_polar_surface_area>  (1884) 
68.90

>  <rotatable_bond_count>  (1884) 
2

>  <hydrogen_bond_acceptors>  (1884) 
5

>  <hydrogen_bond_donors>  (1884) 
1

>  <hydrogen_bond_acceptors_lipinski>  (1884) 
5

>  <hydrogen_bond_donors_lipinski>  (1884) 
1

>  <lipinski_rule_of_five_violations>  (1884) 
0

>  <aromatic_rings_count>  (1884) 
2

>  <qed_drug_likeliness>  (1884) 
0.86

>  <formal_charge>  (1884) 
0

>  <fractioncsp3>  (1884) 
0.25

>  <number_of_minimal_rings>  (1884) 
2

>  <van_der_walls_volume>  (1884) 
202.39

>  <contains_sugar>  (1884) 
False

>  <contains_ring_sugars>  (1884) 
False

>  <contains_linear_sugars>  (1884) 
False

>  <murcko_framework>  (1884) 
O1C=CCc2ccccc12

>  <np_likeness>  (1884) 
1.50

>  <chemical_class>  (1884) 
Benzopyrans

>  <chemical_sub_class>  (1884) 
1-benzopyrans

>  <chemical_super_class>  (1884) 
Organoheterocyclic compounds

>  <direct_parent_classification>  (1884) 
Chromones

>  <np_classifier_pathway>  (1884) 
Polyketides

>  <np_classifier_superclass>  (1884) 
Chromanes

>  <np_classifier_class>  (1884) 
Chromones

>  <np_classifier_is_glycoside>  (1884) 
False

>  <organisms>  (1884) 
Aspergillus nidulans|Aspergillus stellatus|Dysophylla stellata|Muyocopron sahnii|Mycoleptodiscus indicus|Pisonia aculeata|Pogostemon stellatus

>  <collections>  (1884) 
CMAUP (cCollective molecular activities of useful plants)|ChEBI NPs|Latin America dataset|NPASS|NuBBEDB|Super Natural II|UNPD (Universal Natural Products Database)|WikiData Natural Products|ZINC NP

>  <dois>  (1884) 
10.1016/0031-9422(88)80722-2|10.1016/J.FITOTE.2009.07.004|10.1016/S0031-9422(00)97789-6|10.1021/NP1008575|10.1021/NP4006822|10.1021/np1008575|10.1021/np4006822|10.1039/C39780000627

>  <synonyms>  (1884) 
4H-1-Benzopyran-4-one, 5-hydroxy-6,7-dimethoxy-2-methyl-|5-Hydroxy-6,7-dimethoxy-2-methyl-4H-1-benzopyran-4-one|5-Hydroxy-6,7-dimethoxy-2-methylchromone|5-hydroxy-6,7-dimethoxy-2-methyl-4H-chromen-4-one|6-Methoxyeugenin|62995-11-3|816P6563TH|BDBM50338661|CHEBI:67369|CHEMBL1684136|DB-296127|DTXSID101316849|Q27135827|Stellatin (C12)|UNII-816P6563TH

>  <cas>  (1884) 
62995-11-3

$$$$

     RDKit          2D

 35 38  0  0  0  0  0  0  0  0999 V2000
   -1.1505    4.1170    0.0000 C   0  0  0  0  0  0  0  0  0  0  0  0
   -1.4425    2.6457    0.0000 O   0  0  0  0  0  0  0  0  0  0  0  0
   -0.3143    1.6572    0.0000 C   0  0  0  0  0  0  0  0  0  0  0  0
    1.1058    2.1399    0.0000 C   0  0  0  0  0  0  0  0  0  0  0  0
    2.2340    1.1514    0.0000 C   0  0  0  0  0  0  0  0  0  0  0  0
    1.9420   -0.3199    0.0000 C   0  0  0  0  0  0  0  0  0  0  0  0
    3.0702   -1.3085    0.0000 O   0  0  0  0  0  0  0  0  0  0  0  0
    4.4904   -0.8257    0.0000 C   0  0  0  0  0  0  0  0  0  0  0  0
    5.6185   -1.8143    0.0000 C   0  0  0  0  0  0  0  0  0  0  0  0
    5.3265   -3.2856    0.0000 O   0  0  0  0  0  0  0  0  0  0  0  0
    7.0387   -1.3315    0.0000 C   0  0  0  0  0  0  0  0  0  0  0  0
    7.3307    0.1398    0.0000 C   0  0  0  0  0  0  0  0  0  0  0  0
    8.7509    0.6225    0.0000 C   0  0  0  0  0  0  0  0  0  0  0  0
    9.0430    2.0938    0.0000 O   0  0  0  0  0  0  0  0  0  0  0  0
    9.8791   -0.3660    0.0000 O   0  0  0  0  0  0  0  0  0  0  0  0
    6.2026    1.1283    0.0000 C   0  0  0  0  0  0  0  0  0  0  0  0
    4.7824    0.6456    0.0000 C   0  0  0  0  0  0  0  0  0  0  0  0
    3.6542    1.6341    0.0000 O   0  0  0  0  0  0  0  0  0  0  0  0
    0.5218   -0.8027    0.0000 C   0  0  0  0  0  0  0  0  0  0  0  0
    0.2298   -2.2740    0.0000 O   0  0  0  0  0  0  0  0  0  0  0  0
   -1.1904   -2.7567    0.0000 C   0  0  0  0  0  0  0  0  0  0  0  0
   -0.6064    0.1859    0.0000 C   0  0  0  0  0  0  0  0  0  0  0  0
   -2.0266   -0.2969    0.0000 O   0  0  0  0  0  0  0  0  0  0  0  0
   -3.1547    0.6917    0.0000 C   0  0  0  0  0  0  0  0  0  0  0  0
   -4.5749    0.2090    0.0000 C   0  0  0  0  0  0  0  0  0  0  0  0
   -5.7031    1.1975    0.0000 O   0  0  0  0  0  0  0  0  0  0  0  0
   -7.1233    0.7148    0.0000 C   0  0  0  0  0  0  0  0  0  0  0  0
   -8.2515    1.7033    0.0000 C   0  0  0  0  0  0  0  0  0  0  0  0
   -7.9594    3.1746    0.0000 O   0  0  0  0  0  0  0  0  0  0  0  0
   -7.4153   -0.7565    0.0000 C   0  0  0  0  0  0  0  0  0  0  0  0
   -8.8355   -1.2393    0.0000 O   0  0  0  0  0  0  0  0  0  0  0  0
   -6.2872   -1.7451    0.0000 C   0  0  0  0  0  0  0  0  0  0  0  0
   -6.5792   -3.2164    0.0000 O   0  0  0  0  0  0  0  0  0  0  0  0
   -4.8670   -1.2623    0.0000 C   0  0  0  0  0  0  0  0  0  0  0  0
   -3.7388   -2.2509    0.0000 O   0  0  0  0  0  0  0  0  0  0  0  0
  1  2  1  0
  2  3  1  0
  3  4  2  0
  4  5  1  0
  5  6  2  0
  6  7  1  0
  7  8  1  0
  8  9  2  0
  9 10  1  0
  9 11  1  0
 11 12  2  0
 12 13  1  0
 13 14  2  0
 13 15  1  0
 12 16  1  0
 16 17  2  0
 17 18  1  0
  6 19  1  0
 19 20  1  0
 20 21  1  0
 19 22  2  0
 22 23  1  0
 23 24  1  0
 25 24  1  1
 25 26  1  0
 26 27  1  0
 27 28  1  1
 28 29  1  0
 27 30  1  0
 30 31  1  6
 30 32  1  0
 32 33  1  1
 32 34  1  0
 34 35  1  6
 22  3  1  0
 34 25  1  0
 18  5  1  0
 17  8  1  0
M  END
>  <identifier>  (1885) 
CNP0080466.1

>  <canonical_smiles>  (1885) 
COC1=CC2=C(OC3=C(O)C=C(C(=O)O)C=C3O2)C(OC)=C1OC[C@@H]1O[C@H](CO)[C@@H](O)[C@H](O)[C@H]1O

>  <standard_inchi>  (1885) 
InChI=1S/C22H24O13/c1-30-10-5-12-20(35-18-9(24)3-8(22(28)29)4-11(18)33-12)21(31-2)19(10)32-7-14-16(26)17(27)15(25)13(6-23)34-14/h3-5,13-17,23-27H,6-7H2,1-2H3,(H,28,29)/t13-,14+,15-,16+,17+/m1/s1

>  <standard_inchi_key>  (1885) 
QSKHZQUOPBBPSH-ALYAQQCSSA-N

>  <name>  (1885) 
nan

>  <iupac_name>  (1885) 
4-hydroxy-6,8-dimethoxy-7-[[(2~{S},3~{R},4~{S},5~{S},6~{R})-3,4,5-trihydroxy-6-(hydroxymethyl)tetrahydropyran-2-yl]methoxy]dibenzo-p-dioxin-2-carboxylic acid

>  <annotation_level>  (1885) 
4

>  <total_atom_count>  (1885) 
59

>  <heavy_atom_count>  (1885) 
35

>  <molecular_weight>  (1885) 
496.42

>  <exact_molecular_weight>  (1885) 
496.12169

>  <molecular_formula>  (1885) 
C22H24O13

>  <alogp>  (1885) 
0.23

>  <topological_polar_surface_area>  (1885) 
193.83

>  <rotatable_bond_count>  (1885) 
7

>  <hydrogen_bond_acceptors>  (1885) 
12

>  <hydrogen_bond_donors>  (1885) 
6

>  <hydrogen_bond_acceptors_lipinski>  (1885) 
12

>  <hydrogen_bond_donors_lipinski>  (1885) 
6

>  <lipinski_rule_of_five_violations>  (1885) 
2

>  <aromatic_rings_count>  (1885) 
2

>  <qed_drug_likeliness>  (1885) 
0.26

>  <formal_charge>  (1885) 
0

>  <fractioncsp3>  (1885) 
0.41

>  <number_of_minimal_rings>  (1885) 
4

>  <van_der_walls_volume>  (1885) 
nan

>  <contains_sugar>  (1885) 
True

>  <contains_ring_sugars>  (1885) 
True

>  <contains_linear_sugars>  (1885) 
False

>  <murcko_framework>  (1885) 
O1c2ccccc2Oc3cc(OCC4OCCCC4)ccc13

>  <np_likeness>  (1885) 
1.50

>  <chemical_class>  (1885) 
Benzodioxins

>  <chemical_sub_class>  (1885) 
Benzo-p-dioxins

>  <chemical_super_class>  (1885) 
Organoheterocyclic compounds

>  <direct_parent_classification>  (1885) 
Dibenzo-p-dioxins

>  <np_classifier_pathway>  (1885) 
Polyketides

>  <np_classifier_superclass>  (1885) 
Aromatic polyketides

>  <np_classifier_class>  (1885) 
Depsidones

>  <np_classifier_is_glycoside>  (1885) 
False

>  <organisms>  (1885) 
Siphoneugena densiflora

>  <collections>  (1885) 
Latin America dataset|NuBBEDB|WikiData Natural Products|ZINC NP

>  <dois>  (1885) 
10.1002/PS.1278|10.1590/S0103-50532006000200010

>  <synonyms>  (1885) 
siphoneugenin

>  <cas>  (1885) 
nan

$$$$

     RDKit          2D

 31 35  0  0  0  0  0  0  0  0999 V2000
   -7.2736   -2.1301    0.0000 C   0  0  0  0  0  0  0  0  0  0  0  0
   -5.8398   -1.6894    0.0000 C   0  0  0  0  0  0  0  0  0  0  0  0
   -5.5046   -0.2273    0.0000 C   0  0  0  0  0  0  0  0  0  0  0  0
   -4.0708    0.2134    0.0000 C   0  0  0  0  0  0  0  0  0  0  0  0
   -3.7356    1.6754    0.0000 C   0  0  0  0  0  0  0  0  0  0  0  0
   -4.8341    2.6968    0.0000 C   0  0  0  0  0  0  0  0  0  0  0  0
   -2.3018    2.1161    0.0000 C   0  0  0  0  0  0  0  0  0  0  0  0
   -1.8155    3.5352    0.0000 C   0  0  0  0  0  0  0  0  0  0  0  0
   -0.3157    3.5112    0.0000 C   0  0  0  0  0  0  0  0  0  0  0  0
    0.1250    2.0774    0.0000 C   0  0  0  0  0  0  0  0  0  0  0  0
    1.2556    3.0632    0.0000 C   0  0  0  0  0  0  0  0  0  0  0  0
    1.4854    1.4455    0.0000 C   0  0  0  0  0  0  0  0  0  0  0  0
    2.7128    2.3078    0.0000 C   0  0  0  0  0  0  0  0  0  0  0  0
    4.0732    1.6759    0.0000 C   0  0  0  0  0  0  0  0  0  0  0  0
    4.2062    0.1818    0.0000 C   0  0  0  0  0  0  0  0  0  0  0  0
    5.5666   -0.4501    0.0000 C   0  0  0  0  0  0  0  0  0  0  0  0
    6.7941    0.4121    0.0000 C   0  0  0  0  0  0  0  0  0  0  0  0
    5.6996   -1.9442    0.0000 C   0  0  0  0  0  0  0  0  0  0  0  0
    7.0600   -2.5761    0.0000 O   0  0  0  0  0  0  0  0  0  0  0  0
    4.4722   -2.8064    0.0000 C   0  0  0  0  0  0  0  0  0  0  0  0
    3.1118   -2.1745    0.0000 C   0  0  0  0  0  0  0  0  0  0  0  0
    2.9788   -0.6804    0.0000 C   0  0  0  0  0  0  0  0  0  0  0  0
    1.7513   -1.5426    0.0000 C   0  0  0  0  0  0  0  0  0  0  0  0
    1.6184   -0.0485    0.0000 C   0  0  0  0  0  0  0  0  0  0  0  0
    0.3909   -0.9108    0.0000 C   0  0  0  0  0  0  0  0  0  0  0  0
   -0.9695   -0.2789    0.0000 C   0  0  0  0  0  0  0  0  0  0  0  0
   -1.1025    1.2152    0.0000 C   0  0  0  0  0  0  0  0  0  0  0  0
   -2.4133    0.4860    0.0000 C   0  0  0  0  0  0  0  0  0  0  0  0
   -4.7413   -2.7107    0.0000 C   0  0  0  0  0  0  0  0  0  0  0  0
   -5.0765   -4.1728    0.0000 C   0  0  0  0  0  0  0  0  0  0  0  0
   -3.3075   -2.2700    0.0000 C   0  0  0  0  0  0  0  0  0  0  0  0
  1  2  2  0
  2  3  1  0
  3  4  1  0
  4  5  1  0
  5  6  1  1
  5  7  1  0
  7  8  1  1
  8  9  1  0
  9 10  1  0
 10 11  1  6
 10 12  1  0
 12 13  1  6
 13 14  1  0
 15 14  1  1
 15 16  1  0
 16 17  1  6
 16 18  1  0
 18 19  1  1
 18 20  1  0
 20 21  1  0
 22 21  1  6
 22 23  1  0
 24 23  1  1
 24 25  1  0
 25 26  1  0
 26 27  1  0
 27 28  1  1
  2 29  1  0
 29 30  1  0
 29 31  1  0
 27  7  1  0
 27 10  1  0
 24 12  1  0
 22 15  1  0
 24 22  1  0
M  END
>  <identifier>  (1886) 
CNP0258822.2

>  <canonical_smiles>  (1886) 
C=C(CC[C@@H](C)[C@H]1CC[C@@]2(C)[C@@H]3CC[C@H]4[C@H](C)[C@@H](O)CC[C@@]45C[C@@]35CC[C@]12C)C(C)C

>  <standard_inchi>  (1886) 
InChI=1S/C30H50O/c1-19(2)20(3)8-9-21(4)23-12-14-28(7)26-11-10-24-22(5)25(31)13-15-29(24)18-30(26,29)17-16-27(23,28)6/h19,21-26,31H,3,8-18H2,1-2,4-7H3/t21-,22+,23-,24+,25+,26+,27-,28+,29-,30+/m1/s1

>  <standard_inchi_key>  (1886) 
HUNLTIZKNQDZEI-PGFZVWMDSA-N

>  <name>  (1886) 
Cycloeucalenol

>  <iupac_name>  (1886) 
(1~{S},3~{R},6~{S},7~{S},8~{S},11~{S},12~{S},15~{R},16~{R})-15-[(1~{R})-1,5-dimethyl-4-methylene-hexyl]-7,12,16-trimethyl-pentacyclo[9.7.0.0^{1,3}.0^{3,8}.0^{12,16}]octadecan-6-ol

>  <annotation_level>  (1886) 
5

>  <total_atom_count>  (1886) 
81

>  <heavy_atom_count>  (1886) 
31

>  <molecular_weight>  (1886) 
426.73

>  <exact_molecular_weight>  (1886) 
426.38617

>  <molecular_formula>  (1886) 
C30H50O

>  <alogp>  (1886) 
8.02

>  <topological_polar_surface_area>  (1886) 
20.23

>  <rotatable_bond_count>  (1886) 
5

>  <hydrogen_bond_acceptors>  (1886) 
1

>  <hydrogen_bond_donors>  (1886) 
1

>  <hydrogen_bond_acceptors_lipinski>  (1886) 
1

>  <hydrogen_bond_donors_lipinski>  (1886) 
1

>  <lipinski_rule_of_five_violations>  (1886) 
1

>  <aromatic_rings_count>  (1886) 
0

>  <qed_drug_likeliness>  (1886) 
0.44

>  <formal_charge>  (1886) 
0

>  <fractioncsp3>  (1886) 
0.93

>  <number_of_minimal_rings>  (1886) 
5

>  <van_der_walls_volume>  (1886) 
451.90

>  <contains_sugar>  (1886) 
False

>  <contains_ring_sugars>  (1886) 
False

>  <contains_linear_sugars>  (1886) 
False

>  <murcko_framework>  (1886) 
C1CCC23CC43CCC5CCCC5C4CCC2C1

>  <np_likeness>  (1886) 
3.60

>  <chemical_class>  (1886) 
Steroids and steroid derivatives

>  <chemical_sub_class>  (1886) 
Cycloartanols and derivatives

>  <chemical_super_class>  (1886) 
Lipids and lipid-like molecules

>  <direct_parent_classification>  (1886) 
Cycloartanols and derivatives

>  <np_classifier_pathway>  (1886) 
Terpenoids

>  <np_classifier_superclass>  (1886) 
Steroids

>  <np_classifier_class>  (1886) 
Cycloartane triterpenoids

>  <np_classifier_is_glycoside>  (1886) 
False

>  <organisms>  (1886) 
Acicarpha tribuloides|Aconitum palmatum|Aconitum tianschanicum|Ageratina riparia|Albatrellus caeruleoporus|Amanita pseudoporphyria|Ammocharis coranica|Aniba rosaeodora|Aplysilla rosea|Aplysinella rhax|Arabidopsis thaliana|Arbacia pustulosa|Ariocarpus fissuratus|Aristolochia tagala|Armoracia rusticana|Artocarpus integer|Asparagus thunbergianus|Aspergillus wentii|Astragalus interpositus|Baccharoides anthelmintica|Bidens tripartita|Botryotrichum piluliferum|Brassica rapa|Bryonia dioica|Buddleja officinalis|Cacalia robusta|Caesalpinia pulcherrima|Calea clausseniana|Camellia reticulata|Carpesium faberi|Cedrela odorata|Centaurea arbutifolia|Centaurea musimomum|Chalciporus piperatus|Chlamydomonas allensworthii|Chromodoris inornata|Chromodoris willani|Cineraria saxifraga|Cladonia pityrea|Claviceps microcephala|Codonopsis cordifolioidea|Conus marmoreus|Corydalis sewerzowi|Corymbia citriodora|Costus tonkinensis|Crematogaster africana|Cryptolestes pusillus|Cuscuta campestris|Cylicodaphne sebifera|Dactylosporangium aurantiacum|Dahlstedtia pentaphylla|Dilodendron bipinnatum|Diplopterygium glaucum|Dolichothele uberiformis|Dryopteris sacrosancta|Ecballium elaterium|Eleusine indica|Erium villosum|Erylus nobilis|Eucalyptus citriodora|Euphausia superba|Euphorbia antiquorum|Euphorbia boetica|Euphorbia bupleuroides|Euphorbia caducifolia|Euphorbia guyoniana|Euphorbia nivulia|Euphorbia retusa|Euphorbia sulcata|Euphorbia tuckeyana|Flemingia philippinensis|Genista sessilifolia|Gleichenia japonica|Globba racemosa|Gomphostemma parviflorum|Goniophlebium formosanum|Gymnocladus dioicus|Heimia salicifolia|Helleborus thibetanus|Hippobroma longiflora|Hoya australis|Hypericum japonicum|Hypopitys monotropa|Jungermannia subulata|Justicia simplex|Lambertella corni|Lemna trisulca|Lepidorhinus squamosus|Libocedrus yateensis|Lobelia chinensis|Lotus albus|Machaerium kuhlmannii|Melia azedarach|Microlepia speluncae|Monotropa hypopitys|Monotropa uniflora|Mycena haematopus|Mycobacterium avium subsp. paratuberculosis|Mytilus galloprovincialis|Narcissus asturiensis|Nervilia plicata|Nicotiana benthamiana|Nigella sativa|Niphogeton ternata|Olea europaea|Onoseris alata|Oryza aristata|Oryza sativa|Panax ginseng|Papaver commutatum|Periploca sepium|Petasites fragrans|Petrosia corticata|Phaseolus vulgaris|Piper acutifolium|Piptadenia peregrina|Psilotum nudum|Pyrrosia petiolosa|Rhoiptelea chiliantha|Rubus cochinchinensis|Rubus koehneanus|Rubus plicatus|Ruscus hypophyllum|Scutellaria discolor|Scutellaria orientalis|Scytonema ocellatum|Senecio zoellneri|Sesamum alatum|Sesamum angustifolium|Sesamum radiatum|Sideritis discolor|Solanum diflorum|Staehelina fruticosa|Stemphylium radicinum|Streptomyces aureus|Streptomyces fradiae|Streptomyces ipomoeae|Symphoricarpos albus|Tinospora crispa|Trapa bicornis|Trichosanthes kirilowii|Trichosanthes palmata|Trichosanthes tricuspidata|Tripteris vaillantii|Vallaris heynei|Vellozia streptophylla|Vigna angularis|Vincetoxicum hemsleyanum|Wrightia tinctoria|Xyris indica|Zygosaccharomyces rouxii|maize|potato|sesame|tomato

>  <collections>  (1886) 
ANPDB|Australian natural products|CMAUP (cCollective molecular activities of useful plants)|ChEBI NPs|KNApSaCK|Latin America dataset|NANPDB (Natural Products from Northern African Sources)|NPASS|NuBBEDB|Phyto4Health|Super Natural II|TCMDB-Taiwan (Traditional Chinese Medicine database)|WikiData Natural Products

>  <dois>  (1886) 
10.1002/CHIN.199152281|10.1002/JCCS.200000074|10.1002/JSFA.2740590309|10.1007/BF02541591|10.1007/BF02637687|10.1007/BF02645749|10.1016/0031-9422(73)80529-1|10.1016/0031-9422(74)80221-9|10.1016/0031-9422(77)84040-5|10.1016/0031-9422(86)88046-3|10.1016/0031-9422(88)80603-4|10.1016/0031-9422(88)83136-4|10.1016/0031-9422(89)80213-4|10.1016/0031-9422(90)80134-3|10.1016/0031-9422(92)80289-Q|10.1016/0031-9422(92)83142-L|10.1016/J.PHYTOCHEM.2007.01.017|10.1016/J.PHYTOCHEM.2009.05.011|10.1016/J.PHYTOL.2014.09.011|10.1016/S0031-9422(00)00039-X|10.1016/S0031-9422(00)80074-6|10.1016/S0031-9422(00)81419-3|10.1016/S0031-9422(96)00747-9|10.1016/S0031-9422(97)00101-5|10.1016/S0305-1978(02)00174-6|10.1016/S0378-8741(02)00210-6|10.1016/j.phytochem.2007.01.017|10.1016/s0031-9422(00)90067-0|10.1021/JO00961A006|10.1021/NP50100A022|10.1021/NP900127J|10.1021/NP960330Q|10.1038/NPLANTS.2016.205|10.1055/S-0028-1097188|10.1055/S-0028-1097228|10.1055/S-2006-962523|10.1055/S-2007-969107|10.1080/1028602031000066843|10.1080/1028602042000325591|10.1080/10575630108041304|10.1093/JXB/ERG184|10.1248/CPB.29.2073|10.1248/CPB.33.1914|10.1248/CPB.41.624|10.1248/CPB.44.1202|10.1248/CPB.44.1540|10.1248/CPB.57.401|10.1271/NOGEIKAGAKU1924.59.895|10.1590/S0100-40422010001000014|10.3390/MOLECULES16031917|10.3724/SP.J.1009.2010.00192|10.4268/CJCMM20110820|10.4268/CJCMM20110919|10.5246/JCPS.2020.06.041|10.5650/JOS1996.49.719

>  <synonyms>  (1886) 
(1S,3R,6S,7S,8S,11S,12S,15R,16R)-7,12,16-trimethyl-15-[(2R)-6-methyl-5-methylideneheptan-2-yl]pentacyclo[9.7.0.01,3.03,8.012,16]octadecan-6-ol|296B38AD-04D4-47A1-8AC8-D97BD9BE6224|3.BETA.-CYCLOEUCALENOL|3beta,4alpha,5alpha-4,14-dimethyl-9,19-cycloergost-24(28)-en-3-ol|3beta-Cycloeucalenol|4.ALPHA.,14.ALPHA.-DIMETHYL-9,19-CYCLOPROPANE-24(28)-METHYLENECHOLESTAN-3.BETA.-OL|469-39-6|4alpha,14-dimethyl-9beta,19-cyclo-5alpha-ergost-24(28)-en-3beta-ol|7OF1Q9UE9R|9,19-Cyclo-5,9-ergost-24(28)-en-3-ol, 4,14-dimethyl-|9,19-Cyclo-5.alpha.,9.beta.-ergost-24(28)-en-3.beta.-ol, 4.alpha.,14-dimethyl-|9,19-Cycloergost-24(28)-en-3-ol, 4,14-dimethyl-, (3.beta.,4.alpha.,5.alpha.)-|AKOS040761557|C02141|CHEBI:16653|CHEMBL225634|CS-0024024|CYCLOARTANOL, 4.BETA.-DEMETHYL-24-METHYLENE|Cycloleucalenol|DTXSID70963693|FS-9905|GLXC-17775|HY-N3666|LMST01100011|Q27102014|SCHEMBL569261|UNII-7OF1Q9UE9R|cycloeucalenol

>  <cas>  (1886) 
469-39-6

$$$$

     RDKit          2D

 23 24  0  0  0  0  0  0  0  0999 V2000
   -9.2405   -0.7621    0.0000 C   0  0  0  0  0  0  0  0  0  0  0  0
   -7.8856   -0.1186    0.0000 C   0  0  0  0  0  0  0  0  0  0  0  0
   -7.7654    1.3766    0.0000 C   0  0  0  0  0  0  0  0  0  0  0  0
   -6.6508   -0.9703    0.0000 C   0  0  0  0  0  0  0  0  0  0  0  0
   -5.2958   -0.3268    0.0000 C   0  0  0  0  0  0  0  0  0  0  0  0
   -4.0611   -1.1784    0.0000 O   0  0  0  0  0  0  0  0  0  0  0  0
   -2.7061   -0.5349    0.0000 C   0  0  0  0  0  0  0  0  0  0  0  0
   -2.5859    0.9603    0.0000 C   0  0  0  0  0  0  0  0  0  0  0  0
   -1.2310    1.6038    0.0000 C   0  0  0  0  0  0  0  0  0  0  0  0
    0.0038    0.7521    0.0000 C   0  0  0  0  0  0  0  0  0  0  0  0
    1.3587    1.3956    0.0000 C   0  0  0  0  0  0  0  0  0  0  0  0
    1.4789    2.8908    0.0000 O   0  0  0  0  0  0  0  0  0  0  0  0
    2.5935    0.5440    0.0000 C   0  0  0  0  0  0  0  0  0  0  0  0
    3.9485    1.1875    0.0000 C   0  0  0  0  0  0  0  0  0  0  0  0
    5.1832    0.3358    0.0000 C   0  0  0  0  0  0  0  0  0  0  0  0
    5.0631   -1.1594    0.0000 C   0  0  0  0  0  0  0  0  0  0  0  0
    6.2978   -2.0110    0.0000 C   0  0  0  0  0  0  0  0  0  0  0  0
    7.6528   -1.3675    0.0000 C   0  0  0  0  0  0  0  0  0  0  0  0
    7.7730    0.1277    0.0000 C   0  0  0  0  0  0  0  0  0  0  0  0
    6.5382    0.9793    0.0000 C   0  0  0  0  0  0  0  0  0  0  0  0
   -0.1164   -0.7431    0.0000 C   0  0  0  0  0  0  0  0  0  0  0  0
    1.1184   -1.5947    0.0000 O   0  0  0  0  0  0  0  0  0  0  0  0
   -1.4713   -1.3866    0.0000 C   0  0  0  0  0  0  0  0  0  0  0  0
  1  2  1  0
  2  3  1  0
  2  4  2  0
  4  5  1  0
  5  6  1  0
  6  7  1  0
  7  8  2  0
  8  9  1  0
  9 10  2  0
 10 11  1  0
 11 12  2  0
 11 13  1  0
 13 14  2  0
 14 15  1  0
 15 16  2  0
 16 17  1  0
 17 18  2  0
 18 19  1  0
 19 20  2  0
 10 21  1  0
 21 22  1  0
 21 23  2  0
 23  7  1  0
 20 15  1  0
M  END
>  <identifier>  (1887) 
CNP0113957.1

>  <canonical_smiles>  (1887) 
CC(C)=CCOC1=CC=C(C(=O)/C=C/C2=CC=CC=C2)C(O)=C1

>  <standard_inchi>  (1887) 
InChI=1S/C20H20O3/c1-15(2)12-13-23-17-9-10-18(20(22)14-17)19(21)11-8-16-6-4-3-5-7-16/h3-12,14,22H,13H2,1-2H3/b11-8+

>  <standard_inchi_key>  (1887) 
DGUGLZYULGVSIZ-DHZHZOJOSA-N

>  <name>  (1887) 
nan

>  <iupac_name>  (1887) 
nan

>  <annotation_level>  (1887) 
0

>  <total_atom_count>  (1887) 
43

>  <heavy_atom_count>  (1887) 
23

>  <molecular_weight>  (1887) 
308.38

>  <exact_molecular_weight>  (1887) 
308.14124

>  <molecular_formula>  (1887) 
C20H20O3

>  <alogp>  (1887) 
4.63

>  <topological_polar_surface_area>  (1887) 
46.53

>  <rotatable_bond_count>  (1887) 
6

>  <hydrogen_bond_acceptors>  (1887) 
3

>  <hydrogen_bond_donors>  (1887) 
1

>  <hydrogen_bond_acceptors_lipinski>  (1887) 
3

>  <hydrogen_bond_donors_lipinski>  (1887) 
1

>  <lipinski_rule_of_five_violations>  (1887) 
0

>  <aromatic_rings_count>  (1887) 
2

>  <qed_drug_likeliness>  (1887) 
0.48

>  <formal_charge>  (1887) 
0

>  <fractioncsp3>  (1887) 
0.15

>  <number_of_minimal_rings>  (1887) 
2

>  <van_der_walls_volume>  (1887) 
294.83

>  <contains_sugar>  (1887) 
False

>  <contains_ring_sugars>  (1887) 
False

>  <contains_linear_sugars>  (1887) 
False

>  <murcko_framework>  (1887) 
c1ccc(cc1)C=CCc2ccccc2

>  <np_likeness>  (1887) 
0.70

>  <chemical_class>  (1887) 
nan

>  <chemical_sub_class>  (1887) 
nan

>  <chemical_super_class>  (1887) 
nan

>  <direct_parent_classification>  (1887) 
nan

>  <np_classifier_pathway>  (1887) 
Shikimates and Phenylpropanoids

>  <np_classifier_superclass>  (1887) 
Flavonoids

>  <np_classifier_class>  (1887) 
Chalcones

>  <np_classifier_is_glycoside>  (1887) 
False

>  <organisms>  (1887) 
Crotalaria dura|Derris floribunda|Derris sericea|Derris trifoliata|Duguetia staudtii|Echinogorgia complexa|Fasciospongia cavernosa|Liquidambar orientalis|Lonchocarpus guatemalensis|Lonchocarpus neuroscapha|Lonchocarpus xuul|Millettia erythrocalyx|Quamoclit pennata|Salvia phlomoides|Solidago arguta

>  <collections>  (1887) 
CMAUP (cCollective molecular activities of useful plants)|KNApSaCK|Latin America dataset|NPASS|NPEdia|NuBBEDB|TCMDB-Taiwan (Traditional Chinese Medicine database)|WikiData Natural Products|ZINC NP

>  <dois>  (1887) 
10.1016/0031-9422(72)80097-9|10.1016/J.PHYTOCHEM.2006.01.013|10.1016/S0031-9422(00)98664-3|10.1016/S0031-9422(02)00337-0|10.1021/NP010513Z

>  <synonyms>  (1887) 
nan

>  <cas>  (1887) 
nan

$$$$

     RDKit          2D

 23 24  0  0  0  0  0  0  0  0999 V2000
    4.7731   -3.3640    0.0000 C   0  0  0  0  0  0  0  0  0  0  0  0
    4.9517   -1.8747    0.0000 O   0  0  0  0  0  0  0  0  0  0  0  0
    3.7512   -0.9753    0.0000 C   0  0  0  0  0  0  0  0  0  0  0  0
    2.3721   -1.5653    0.0000 C   0  0  0  0  0  0  0  0  0  0  0  0
    1.1716   -0.6660    0.0000 C   0  0  0  0  0  0  0  0  0  0  0  0
   -0.2075   -1.2560    0.0000 C   0  0  0  0  0  0  0  0  0  0  0  0
   -1.4080   -0.3566    0.0000 C   0  0  0  0  0  0  0  0  0  0  0  0
   -2.7871   -0.9466    0.0000 C   0  0  0  0  0  0  0  0  0  0  0  0
   -2.9657   -2.4360    0.0000 O   0  0  0  0  0  0  0  0  0  0  0  0
   -3.9876   -0.0473    0.0000 N   0  0  0  0  0  0  0  0  0  0  0  0
   -3.8090    1.4420    0.0000 C   0  0  0  0  0  0  0  0  0  0  0  0
   -5.0095    2.3414    0.0000 C   0  0  0  0  0  0  0  0  0  0  0  0
   -6.3886    1.7514    0.0000 C   0  0  0  0  0  0  0  0  0  0  0  0
   -6.5672    0.2621    0.0000 C   0  0  0  0  0  0  0  0  0  0  0  0
   -5.3667   -0.6373    0.0000 C   0  0  0  0  0  0  0  0  0  0  0  0
   -5.5453   -2.1266    0.0000 O   0  0  0  0  0  0  0  0  0  0  0  0
    1.3502    0.8234    0.0000 C   0  0  0  0  0  0  0  0  0  0  0  0
    2.7293    1.4133    0.0000 C   0  0  0  0  0  0  0  0  0  0  0  0
    2.9079    2.9027    0.0000 O   0  0  0  0  0  0  0  0  0  0  0  0
    4.2870    3.4927    0.0000 C   0  0  0  0  0  0  0  0  0  0  0  0
    3.9298    0.5140    0.0000 C   0  0  0  0  0  0  0  0  0  0  0  0
    5.3089    1.1040    0.0000 O   0  0  0  0  0  0  0  0  0  0  0  0
    6.5094    0.2047    0.0000 C   0  0  0  0  0  0  0  0  0  0  0  0
  1  2  1  0
  2  3  1  0
  3  4  2  0
  4  5  1  0
  5  6  1  0
  6  7  1  0
  7  8  1  0
  8  9  2  0
  8 10  1  0
 10 11  1  0
 11 12  1  0
 12 13  1  0
 13 14  2  0
 14 15  1  0
 15 16  2  0
  5 17  2  0
 17 18  1  0
 18 19  1  0
 19 20  1  0
 18 21  2  0
 21 22  1  0
 22 23  1  0
 21  3  1  0
 15 10  1  0
M  END
>  <identifier>  (1888) 
CNP0303709.0

>  <canonical_smiles>  (1888) 
COC1=CC(CCC(=O)N2CCC=CC2=O)=CC(OC)=C1OC

>  <standard_inchi>  (1888) 
InChI=1S/C17H21NO5/c1-21-13-10-12(11-14(22-2)17(13)23-3)7-8-16(20)18-9-5-4-6-15(18)19/h4,6,10-11H,5,7-9H2,1-3H3

>  <standard_inchi_key>  (1888) 
WAGZSQGCUXDBOA-UHFFFAOYSA-N

>  <name>  (1888) 
Dihydropiplartine

>  <iupac_name>  (1888) 
1-[3-(3,4,5-trimethoxyphenyl)propanoyl]-2,3-dihydropyridin-6-one

>  <annotation_level>  (1888) 
5

>  <total_atom_count>  (1888) 
44

>  <heavy_atom_count>  (1888) 
23

>  <molecular_weight>  (1888) 
319.36

>  <exact_molecular_weight>  (1888) 
319.14197

>  <molecular_formula>  (1888) 
C17H21NO5

>  <alogp>  (1888) 
1.96

>  <topological_polar_surface_area>  (1888) 
65.07

>  <rotatable_bond_count>  (1888) 
6

>  <hydrogen_bond_acceptors>  (1888) 
5

>  <hydrogen_bond_donors>  (1888) 
0

>  <hydrogen_bond_acceptors_lipinski>  (1888) 
5

>  <hydrogen_bond_donors_lipinski>  (1888) 
0

>  <lipinski_rule_of_five_violations>  (1888) 
0

>  <aromatic_rings_count>  (1888) 
1

>  <qed_drug_likeliness>  (1888) 
0.80

>  <formal_charge>  (1888) 
0

>  <fractioncsp3>  (1888) 
0.41

>  <number_of_minimal_rings>  (1888) 
2

>  <van_der_walls_volume>  (1888) 
294.89

>  <contains_sugar>  (1888) 
False

>  <contains_ring_sugars>  (1888) 
False

>  <contains_linear_sugars>  (1888) 
False

>  <murcko_framework>  (1888) 
c1ccc(cc1)CCCN2CC=CCC2

>  <np_likeness>  (1888) 
0.65

>  <chemical_class>  (1888) 
Phenol ethers

>  <chemical_sub_class>  (1888) 
Anisoles

>  <chemical_super_class>  (1888) 
Benzenoids

>  <direct_parent_classification>  (1888) 
Anisoles

>  <np_classifier_pathway>  (1888) 
Alkaloids

>  <np_classifier_superclass>  (1888) 
Tyrosine alkaloids

>  <np_classifier_class>  (1888) 
Isoquinoline alkaloids

>  <np_classifier_is_glycoside>  (1888) 
False

>  <organisms>  (1888) 
Piper swartzianum|Piper tuberculatum

>  <collections>  (1888) 
ChemSpider NPs|EMNPD|Latin America dataset|NuBBEDB|Super Natural II|TCMDB-Taiwan (Traditional Chinese Medicine database)|UNPD (Universal Natural Products Database)|WikiData Natural Products|ZINC NP

>  <dois>  (1888) 
10.1002/PCA.716|10.1007/S00044-008-9161-9|10.1016/S0031-9422(00)00226-0|10.1016/S0031-9422(01)00431-9|10.1016/S0367-326X(02)00321-0

>  <synonyms>  (1888) 
1-(3-(3,4,5-Trimethoxyphenyl)propanoyl)-5,6-dihydropyridin-2(1H)-one|1-[3-(3,4,5-Trimethoxyphenyl)propanoyl]-5,6-dihydro-2(1H)-pyridinone #|1-[3-(3,4,5-trimethoxyphenyl)propanoyl]-2,3-dihydropyridin-6-one|137760-69-1|8,9-DIHYDROPIPLARTINE|89-dihydropiplartine, N-(121314-trimethoxydihydrocinnamoyl)-\u221a\u00e9\u201a\u00c4\u00f93-pyridin-2-one|ACon1_001503|BRD-K26531177|BRD-K26531177-001-01-4|BRD1177|CHEBI:182635|CHEMBL2260448|NCGC00180438-01|Propan-1-one, 3-(3,4,5-trimethoxyphenyl)-1-(2,3-dihydropyridin-5(1H)-one-1-yl)-|SCHEMBL15422095|WAGZSQGCUXDBOA-UHFFFAOYSA-N

>  <cas>  (1888) 
137760-69-1

$$$$

     RDKit          2D

 25 27  0  0  0  0  0  0  0  0999 V2000
   -6.8992    2.4805    0.0000 C   0  0  0  0  0  0  0  0  0  0  0  0
   -6.4775    1.0410    0.0000 O   0  0  0  0  0  0  0  0  0  0  0  0
   -5.0200    0.6864    0.0000 C   0  0  0  0  0  0  0  0  0  0  0  0
   -3.9842    1.7714    0.0000 C   0  0  0  0  0  0  0  0  0  0  0  0
   -2.5267    1.4168    0.0000 C   0  0  0  0  0  0  0  0  0  0  0  0
   -2.1050   -0.0227    0.0000 C   0  0  0  0  0  0  0  0  0  0  0  0
   -0.6475   -0.3773    0.0000 C   0  0  0  0  0  0  0  0  0  0  0  0
   -0.2258   -1.8168    0.0000 C   0  0  0  0  0  0  0  0  0  0  0  0
    1.2317   -2.1713    0.0000 O   0  0  0  0  0  0  0  0  0  0  0  0
    2.2675   -1.0864    0.0000 C   0  0  0  0  0  0  0  0  0  0  0  0
    3.7250   -1.4409    0.0000 C   0  0  0  0  0  0  0  0  0  0  0  0
    4.7608   -0.3560    0.0000 C   0  0  0  0  0  0  0  0  0  0  0  0
    6.2183   -0.7105    0.0000 O   0  0  0  0  0  0  0  0  0  0  0  0
    6.6400   -2.1500    0.0000 C   0  0  0  0  0  0  0  0  0  0  0  0
    4.3391    1.0835    0.0000 C   0  0  0  0  0  0  0  0  0  0  0  0
    5.3749    2.1685    0.0000 O   0  0  0  0  0  0  0  0  0  0  0  0
    6.8324    1.8139    0.0000 C   0  0  0  0  0  0  0  0  0  0  0  0
    2.8816    1.4381    0.0000 C   0  0  0  0  0  0  0  0  0  0  0  0
    1.8458    0.3531    0.0000 C   0  0  0  0  0  0  0  0  0  0  0  0
    0.3883    0.7077    0.0000 C   0  0  0  0  0  0  0  0  0  0  0  0
   -0.0334    2.1472    0.0000 O   0  0  0  0  0  0  0  0  0  0  0  0
   -3.1408   -1.1076    0.0000 C   0  0  0  0  0  0  0  0  0  0  0  0
   -4.5983   -0.7531    0.0000 C   0  0  0  0  0  0  0  0  0  0  0  0
   -5.6341   -1.8380    0.0000 O   0  0  0  0  0  0  0  0  0  0  0  0
   -5.2124   -3.2775    0.0000 C   0  0  0  0  0  0  0  0  0  0  0  0
  1  2  1  0
  2  3  1  0
  3  4  2  0
  4  5  1  0
  5  6  2  0
  6  7  1  0
  7  8  2  0
  8  9  1  0
  9 10  1  0
 10 11  2  0
 11 12  1  0
 12 13  1  0
 13 14  1  0
 12 15  2  0
 15 16  1  0
 16 17  1  0
 15 18  1  0
 18 19  2  0
 19 20  1  0
 20 21  2  0
  6 22  1  0
 22 23  2  0
 23 24  1  0
 24 25  1  0
 23  3  1  0
 20  7  1  0
 19 10  1  0
M  END
>  <identifier>  (1889) 
CNP0323071.0

>  <canonical_smiles>  (1889) 
COC1=CC=C(C2=COC3=CC(OC)=C(OC)C=C3C2=O)C=C1OC

>  <standard_inchi>  (1889) 
InChI=1S/C19H18O6/c1-21-14-6-5-11(7-16(14)22-2)13-10-25-15-9-18(24-4)17(23-3)8-12(15)19(13)20/h5-10H,1-4H3

>  <standard_inchi_key>  (1889) 
OYSKBZHHLYECLU-UHFFFAOYSA-N

>  <name>  (1889) 
6,7,3',4'-Tetramethoxyisoflavone

>  <iupac_name>  (1889) 
3-(3,4-dimethoxyphenyl)-6,7-dimethoxy-chromen-4-one

>  <annotation_level>  (1889) 
5

>  <total_atom_count>  (1889) 
43

>  <heavy_atom_count>  (1889) 
25

>  <molecular_weight>  (1889) 
342.35

>  <exact_molecular_weight>  (1889) 
342.11034

>  <molecular_formula>  (1889) 
C19H18O6

>  <alogp>  (1889) 
3.49

>  <topological_polar_surface_area>  (1889) 
67.13

>  <rotatable_bond_count>  (1889) 
5

>  <hydrogen_bond_acceptors>  (1889) 
6

>  <hydrogen_bond_donors>  (1889) 
0

>  <hydrogen_bond_acceptors_lipinski>  (1889) 
6

>  <hydrogen_bond_donors_lipinski>  (1889) 
0

>  <lipinski_rule_of_five_violations>  (1889) 
0

>  <aromatic_rings_count>  (1889) 
3

>  <qed_drug_likeliness>  (1889) 
0.71

>  <formal_charge>  (1889) 
0

>  <fractioncsp3>  (1889) 
0.21

>  <number_of_minimal_rings>  (1889) 
3

>  <van_der_walls_volume>  (1889) 
nan

>  <contains_sugar>  (1889) 
False

>  <contains_ring_sugars>  (1889) 
False

>  <contains_linear_sugars>  (1889) 
False

>  <murcko_framework>  (1889) 
O1C=C(c2ccccc2)Cc3ccccc13

>  <np_likeness>  (1889) 
0.42

>  <chemical_class>  (1889) 
Isoflavonoids

>  <chemical_sub_class>  (1889) 
O-methylated isoflavonoids

>  <chemical_super_class>  (1889) 
Phenylpropanoids and polyketides

>  <direct_parent_classification>  (1889) 
7-O-methylisoflavones

>  <np_classifier_pathway>  (1889) 
Shikimates and Phenylpropanoids

>  <np_classifier_superclass>  (1889) 
Isoflavonoids

>  <np_classifier_class>  (1889) 
Isoflavones

>  <np_classifier_is_glycoside>  (1889) 
False

>  <organisms>  (1889) 
Astropecten aurantiacus|Ateleia herbert-smithii|Cordyla africana|Eucalyptus mckieana|Hibiscus mutabilis|Pterodon apparicioi|Pterodon emarginatus|Pterodon pubescens|ateleia glazioviana

>  <collections>  (1889) 
Latin America dataset|NPASS|NPEdia|NuBBEDB|Super Natural II|UNPD (Universal Natural Products Database)|WikiData Natural Products|ZINC NP

>  <dois>  (1889) 
10.1016/0031-9422(75)85263-0|10.1016/S0031-9422(00)97301-1|10.1016/j.bmcl.2007.03.044|10.1021/NP020425U|10.1039/P19730002222

>  <synonyms>  (1889) 
24126-93-0|3',4',6,7-Tetramethoxyisoflavone|3-(3,4-Dimethoxyphenyl)-6,7-dimethoxy-4H-chromen-4-one|4H-1-Benzopyran-4-one, 3-(3,4-dimethoxyphenyl)-6,7-dimethoxy-|6,7,3',4'-Tetramethoxyisoflavone|6,7-dimethoxy-3-(3,4-dimethoxyphenyl)-4h-1-benzopyran-4-one|AKOS024285556|CHEMBL234932|Isoflavone, 3',4',6,7-tetramethoxy-|LMPK12050117|OYSKBZHHLYECLU-UHFFFAOYSA-N|SCHEMBL4844181|STL574052

>  <cas>  (1889) 
24126-93-0

$$$$

     RDKit          2D

 32 35  0  0  0  0  0  0  0  0999 V2000
   -2.9608    4.5279    0.0000 C   0  0  0  0  0  0  0  0  0  0  0  0
   -3.1812    3.0442    0.0000 O   0  0  0  0  0  0  0  0  0  0  0  0
   -2.0065    2.1114    0.0000 C   0  0  0  0  0  0  0  0  0  0  0  0
   -0.6113    2.6624    0.0000 C   0  0  0  0  0  0  0  0  0  0  0  0
   -0.3909    4.1462    0.0000 O   0  0  0  0  0  0  0  0  0  0  0  0
    0.5634    1.7297    0.0000 C   0  0  0  0  0  0  0  0  0  0  0  0
    1.9586    2.2807    0.0000 C   0  0  0  0  0  0  0  0  0  0  0  0
    2.1789    3.7644    0.0000 O   0  0  0  0  0  0  0  0  0  0  0  0
    3.1333    1.3480    0.0000 C   0  0  0  0  0  0  0  0  0  0  0  0
    2.9129   -0.1357    0.0000 C   0  0  0  0  0  0  0  0  0  0  0  0
    4.0876   -1.0685    0.0000 O   0  0  0  0  0  0  0  0  0  0  0  0
    5.4828   -0.5175    0.0000 C   0  0  0  0  0  0  0  0  0  0  0  0
    6.9822   -0.4769    0.0000 C   0  0  0  0  0  0  0  0  0  0  0  0
    5.7831   -1.9871    0.0000 C   0  0  0  0  0  0  0  0  0  0  0  0
    5.7032    0.9663    0.0000 C   0  0  0  0  0  0  0  0  0  0  0  0
    4.5284    1.8990    0.0000 C   0  0  0  0  0  0  0  0  0  0  0  0
    1.5178   -0.6867    0.0000 C   0  0  0  0  0  0  0  0  0  0  0  0
    1.2974   -2.1705    0.0000 C   0  0  0  0  0  0  0  0  0  0  0  0
   -0.0978   -2.7215    0.0000 C   0  0  0  0  0  0  0  0  0  0  0  0
   -0.3182   -4.2052    0.0000 C   0  0  0  0  0  0  0  0  0  0  0  0
   -1.7133   -4.7562    0.0000 C   0  0  0  0  0  0  0  0  0  0  0  0
    0.8566   -5.1379    0.0000 C   0  0  0  0  0  0  0  0  0  0  0  0
    0.3430    0.2460    0.0000 C   0  0  0  0  0  0  0  0  0  0  0  0
   -1.0521   -0.3050    0.0000 O   0  0  0  0  0  0  0  0  0  0  0  0
   -2.2269    0.6277    0.0000 C   0  0  0  0  0  0  0  0  0  0  0  0
   -3.6220    0.0767    0.0000 C   0  0  0  0  0  0  0  0  0  0  0  0
   -4.7967    1.0095    0.0000 C   0  0  0  0  0  0  0  0  0  0  0  0
   -6.1919    0.4585    0.0000 C   0  0  0  0  0  0  0  0  0  0  0  0
   -6.4123   -1.0253    0.0000 C   0  0  0  0  0  0  0  0  0  0  0  0
   -5.2375   -1.9580    0.0000 C   0  0  0  0  0  0  0  0  0  0  0  0
   -3.8424   -1.4070    0.0000 C   0  0  0  0  0  0  0  0  0  0  0  0
   -2.6676   -2.3397    0.0000 O   0  0  0  0  0  0  0  0  0  0  0  0
  1  2  1  0
  3  2  1  1
  3  4  1  0
  4  5  2  0
  4  6  1  0
  6  7  2  0
  7  8  1  0
  7  9  1  0
  9 10  2  0
 10 11  1  0
 11 12  1  0
 12 13  1  0
 12 14  1  0
 12 15  1  0
 15 16  2  0
 10 17  1  0
 17 18  1  0
 18 19  1  0
 19 20  2  0
 20 21  1  0
 20 22  1  0
 17 23  2  0
 23 24  1  0
 24 25  1  0
 25 26  1  6
 26 27  2  0
 27 28  1  0
 28 29  2  0
 29 30  1  0
 30 31  2  0
 31 32  1  0
 25  3  1  0
 31 26  1  0
 23  6  1  0
 16  9  1  0
M  END
>  <identifier>  (1890) 
CNP0181155.2

>  <canonical_smiles>  (1890) 
CO[C@H]1C(=O)C2=C(O)C3=C(OC(C)(C)C=C3)C(CC=C(C)C)=C2O[C@@H]1C1=CC=CC=C1O

>  <standard_inchi>  (1890) 
InChI=1S/C26H28O6/c1-14(2)10-11-17-22-16(12-13-26(3,4)32-22)20(28)19-21(29)25(30-5)24(31-23(17)19)15-8-6-7-9-18(15)27/h6-10,12-13,24-25,27-28H,11H2,1-5H3/t24-,25+/m1/s1

>  <standard_inchi_key>  (1890) 
ZQNJQIORXQNFHJ-RPBOFIJWSA-N

>  <name>  (1890) 
3-methoxyminimiflorin

>  <iupac_name>  (1890) 
(7~{R},8~{R})-5-hydroxy-8-(2-hydroxyphenyl)-7-methoxy-2,2-dimethyl-10-(3-methylbut-2-enyl)-7,8-dihydropyrano[3,2-g]chromen-6-one

>  <annotation_level>  (1890) 
5

>  <total_atom_count>  (1890) 
60

>  <heavy_atom_count>  (1890) 
32

>  <molecular_weight>  (1890) 
436.5

>  <exact_molecular_weight>  (1890) 
436.18859

>  <molecular_formula>  (1890) 
C26H28O6

>  <alogp>  (1890) 
5.12

>  <topological_polar_surface_area>  (1890) 
85.22

>  <rotatable_bond_count>  (1890) 
4

>  <hydrogen_bond_acceptors>  (1890) 
6

>  <hydrogen_bond_donors>  (1890) 
2

>  <hydrogen_bond_acceptors_lipinski>  (1890) 
6

>  <hydrogen_bond_donors_lipinski>  (1890) 
2

>  <lipinski_rule_of_five_violations>  (1890) 
1

>  <aromatic_rings_count>  (1890) 
2

>  <qed_drug_likeliness>  (1890) 
0.65

>  <formal_charge>  (1890) 
0

>  <fractioncsp3>  (1890) 
0.35

>  <number_of_minimal_rings>  (1890) 
4

>  <van_der_walls_volume>  (1890) 
nan

>  <contains_sugar>  (1890) 
False

>  <contains_ring_sugars>  (1890) 
False

>  <contains_linear_sugars>  (1890) 
False

>  <murcko_framework>  (1890) 
O1c2cc3OC(c4ccccc4)CCc3cc2C=CC1

>  <np_likeness>  (1890) 
2.94

>  <chemical_class>  (1890) 
Flavonoids

>  <chemical_sub_class>  (1890) 
Pyranoflavonoids

>  <chemical_super_class>  (1890) 
Phenylpropanoids and polyketides

>  <direct_parent_classification>  (1890) 
Pyranoflavonoids

>  <np_classifier_pathway>  (1890) 
Shikimates and Phenylpropanoids

>  <np_classifier_superclass>  (1890) 
Flavonoids

>  <np_classifier_class>  (1890) 
Dihydroflavonols

>  <np_classifier_is_glycoside>  (1890) 
False

>  <organisms>  (1890) 
Bessera tenuiflora|Bucida buceras|Cymbopogon flexuosus|Hedysarum setigerum|Heimia montana|Laguncularia racemosa|Lonchocarpus atropurpureus|Oria flava|Oxalis triangularis|Pterorhachis zenkeri|Schizanthus pinnatus|Terminalia buceras|Vitex polygama|Wedelia paludosa

>  <collections>  (1890) 
Latin America dataset|NPASS|NPEdia|NuBBEDB|Super Natural II|TCMDB-Taiwan (Traditional Chinese Medicine database)|WikiData Natural Products|ZINC NP

>  <dois>  (1890) 
10.1016/S0031-9422(99)00401-X|10.1021/CC100076K|10.1021/NP0203483|10.1021/cc100076k|10.1021/np0203483

>  <synonyms>  (1890) 
(3R)-3-Methoxyminimiflorin|2'5-dihydroxy-3-methoxy-8-dimethylallyl-6 7-(2' '2''-dimethylpyrano)-dihydroflavonol|259812-80-1|2H,6H-Benzo[1,2-b:5,4-ba(2)]dipyran-6-one, 7,8-dihydro-5-hydroxy-8-(2-hydroxyphenyl)-7-methoxy-2,2-dimethyl-10-(3-methyl-2-butenyl)-, (7R,8R)-|CHEMBL521624|DTXSID401101344

>  <cas>  (1890) 
259812-80-1

$$$$

     RDKit          2D

 35 39  0  0  0  0  0  0  0  0999 V2000
   -1.3649   -1.8738    0.0000 C   0  0  0  0  0  0  0  0  0  0  0  0
   -0.1717   -0.9648    0.0000 C   0  0  0  0  0  0  0  0  0  0  0  0
   -0.3624    0.5230    0.0000 C   0  0  0  0  0  0  0  0  0  0  0  0
   -1.7462    1.1019    0.0000 C   0  0  0  0  0  0  0  0  0  0  0  0
   -1.9369    2.5897    0.0000 C   0  0  0  0  0  0  0  0  0  0  0  0
   -3.3207    3.1685    0.0000 C   0  0  0  0  0  0  0  0  0  0  0  0
   -4.5139    2.2595    0.0000 C   0  0  0  0  0  0  0  0  0  0  0  0
   -5.8977    2.8383    0.0000 O   0  0  0  0  0  0  0  0  0  0  0  0
   -4.3232    0.7716    0.0000 C   0  0  0  0  0  0  0  0  0  0  0  0
   -4.6529   -0.6917    0.0000 C   0  0  0  0  0  0  0  0  0  0  0  0
   -5.8215    0.8422    0.0000 C   0  0  0  0  0  0  0  0  0  0  0  0
   -2.9394    0.1928    0.0000 C   0  0  0  0  0  0  0  0  0  0  0  0
   -2.7487   -1.2950    0.0000 C   0  0  0  0  0  0  0  0  0  0  0  0
   -3.9419   -2.2040    0.0000 C   0  0  0  0  0  0  0  0  0  0  0  0
   -5.3257   -1.6252    0.0000 O   0  0  0  0  0  0  0  0  0  0  0  0
   -3.7512   -3.6919    0.0000 O   0  0  0  0  0  0  0  0  0  0  0  0
   -4.9444   -4.6009    0.0000 C   0  0  0  0  0  0  0  0  0  0  0  0
    0.8308    1.4321    0.0000 C   0  0  0  0  0  0  0  0  0  0  0  0
    0.6401    2.9199    0.0000 O   0  0  0  0  0  0  0  0  0  0  0  0
    1.8333    3.8289    0.0000 C   0  0  0  0  0  0  0  0  0  0  0  0
    1.6427    5.3168    0.0000 C   0  0  0  0  0  0  0  0  0  0  0  0
    3.2171    3.2501    0.0000 O   0  0  0  0  0  0  0  0  0  0  0  0
    2.2146    0.8533    0.0000 C   0  0  0  0  0  0  0  0  0  0  0  0
    2.4053   -0.6346    0.0000 C   0  0  0  0  0  0  0  0  0  0  0  0
    3.6869    0.1448    0.0000 C   0  0  0  0  0  0  0  0  0  0  0  0
    3.6385   -1.4884    0.0000 C   0  0  0  0  0  0  0  0  0  0  0  0
    5.0542   -0.9926    0.0000 C   0  0  0  0  0  0  0  0  0  0  0  0
    5.4852    0.4441    0.0000 C   0  0  0  0  0  0  0  0  0  0  0  0
    6.9848    0.4782    0.0000 O   0  0  0  0  0  0  0  0  0  0  0  0
    7.4806   -0.9374    0.0000 C   0  0  0  0  0  0  0  0  0  0  0  0
    6.2875   -1.8465    0.0000 C   0  0  0  0  0  0  0  0  0  0  0  0
    3.2075   -2.9252    0.0000 C   0  0  0  0  0  0  0  0  0  0  0  0
    1.7079   -2.9593    0.0000 C   0  0  0  0  0  0  0  0  0  0  0  0
    0.2340   -2.6808    0.0000 O   0  0  0  0  0  0  0  0  0  0  0  0
    1.2121   -1.5436    0.0000 C   0  0  0  0  0  0  0  0  0  0  0  0
  1  2  2  0
  2  3  1  0
  3  4  1  1
  4  5  1  0
  5  6  2  0
  6  7  1  0
  7  8  2  0
  7  9  1  0
  9 10  1  0
  9 11  1  0
  9 12  1  0
 12 13  1  1
 13 14  1  0
 14 15  2  0
 14 16  1  0
 16 17  1  0
  3 18  1  0
 18 19  1  6
 19 20  1  0
 20 21  1  0
 20 22  2  0
 18 23  1  0
 23 24  1  0
 24 25  1  6
 24 26  1  0
 26 27  1  6
 27 28  2  0
 28 29  1  0
 29 30  1  0
 30 31  2  0
 26 32  1  0
 33 32  1  6
 33 34  1  0
 35 34  1  1
 35  2  1  0
 12  4  1  0
 35 24  1  0
 31 27  1  0
 35 33  1  0
M  END
>  <identifier>  (1891) 
CNP0290533.1

>  <canonical_smiles>  (1891) 
C=C1[C@@H](C2C=CC(=O)C(C)(C)[C@@H]2CC(=O)OC)[C@H](OC(C)=O)C[C@@]2(C)[C@H](C3=COC=C3)C[C@@H]3O[C@]132

>  <standard_inchi>  (1891) 
InChI=1S/C28H34O7/c1-15-25(18-7-8-22(30)26(3,4)20(18)12-24(31)32-6)21(34-16(2)29)13-27(5)19(17-9-10-33-14-17)11-23-28(15,27)35-23/h7-10,14,18-21,23,25H,1,11-13H2,2-6H3/t18?,19-,20+,21+,23-,25-,27-,28+/m0/s1

>  <standard_inchi_key>  (1891) 
GQARDYJAWJOMJY-BCOREWIWSA-N

>  <name>  (1891) 
nan

>  <iupac_name>  (1891) 
methyl 2-[(1~{R})-2-[(1~{a}~{S},3~{S},3~{a}~{S},5~{R},6~{R},7~{a}~{S})-5-acetoxy-3-(3-furyl)-3~{a}-methyl-7-methylene-1~{a},2,3,4,5,6-hexahydroindeno[1,7~{a}-b]oxiren-6-yl]-6,6-dimethyl-5-oxo-cyclohex-3-en-1-yl]acetate

>  <annotation_level>  (1891) 
4

>  <total_atom_count>  (1891) 
69

>  <heavy_atom_count>  (1891) 
35

>  <molecular_weight>  (1891) 
482.57

>  <exact_molecular_weight>  (1891) 
482.23045

>  <molecular_formula>  (1891) 
C28H34O7

>  <alogp>  (1891) 
4.38

>  <topological_polar_surface_area>  (1891) 
95.34

>  <rotatable_bond_count>  (1891) 
5

>  <hydrogen_bond_acceptors>  (1891) 
7

>  <hydrogen_bond_donors>  (1891) 
0

>  <hydrogen_bond_acceptors_lipinski>  (1891) 
7

>  <hydrogen_bond_donors_lipinski>  (1891) 
0

>  <lipinski_rule_of_five_violations>  (1891) 
0

>  <aromatic_rings_count>  (1891) 
1

>  <qed_drug_likeliness>  (1891) 
0.35

>  <formal_charge>  (1891) 
0

>  <fractioncsp3>  (1891) 
0.61

>  <number_of_minimal_rings>  (1891) 
5

>  <van_der_walls_volume>  (1891) 
nan

>  <contains_sugar>  (1891) 
False

>  <contains_ring_sugars>  (1891) 
False

>  <contains_linear_sugars>  (1891) 
False

>  <murcko_framework>  (1891) 
o1ccc(c1)C2CC3OC43CC(CCC24)C5C=CCCC5

>  <np_likeness>  (1891) 
2.71

>  <chemical_class>  (1891) 
Organooxygen compounds

>  <chemical_sub_class>  (1891) 
Carbonyl compounds

>  <chemical_super_class>  (1891) 
Organic oxygen compounds

>  <direct_parent_classification>  (1891) 
Cyclohexenones

>  <np_classifier_pathway>  (1891) 
Terpenoids

>  <np_classifier_superclass>  (1891) 
Triterpenoids

>  <np_classifier_class>  (1891) 
Limonoids

>  <np_classifier_is_glycoside>  (1891) 
False

>  <organisms>  (1891) 
Toona ciliata

>  <collections>  (1891) 
Latin America dataset|NuBBEDB|WikiData Natural Products

>  <dois>  (1891) 
10.1016/0031-9422(94)00568-E

>  <synonyms>  (1891) 
12-deacetoxytoonacilin

>  <cas>  (1891) 
nan

$$$$

     RDKit          2D

 21 23  0  0  0  0  0  0  0  0999 V2000
   -6.8394    1.4263    0.0000 C   0  0  0  0  0  0  0  0  0  0  0  0
   -6.2583    0.0434    0.0000 O   0  0  0  0  0  0  0  0  0  0  0  0
   -4.7702   -0.1448    0.0000 C   0  0  0  0  0  0  0  0  0  0  0  0
   -3.8631    1.0498    0.0000 C   0  0  0  0  0  0  0  0  0  0  0  0
   -2.3749    0.8616    0.0000 C   0  0  0  0  0  0  0  0  0  0  0  0
   -1.7939   -0.5213    0.0000 C   0  0  0  0  0  0  0  0  0  0  0  0
   -0.3057   -0.7095    0.0000 C   0  0  0  0  0  0  0  0  0  0  0  0
    0.2753   -2.0924    0.0000 C   0  0  0  0  0  0  0  0  0  0  0  0
    1.7634   -2.2807    0.0000 O   0  0  0  0  0  0  0  0  0  0  0  0
    2.6705   -1.0860    0.0000 C   0  0  0  0  0  0  0  0  0  0  0  0
    4.1587   -1.2743    0.0000 C   0  0  0  0  0  0  0  0  0  0  0  0
    5.0658   -0.0796    0.0000 C   0  0  0  0  0  0  0  0  0  0  0  0
    6.5539   -0.2679    0.0000 O   0  0  0  0  0  0  0  0  0  0  0  0
    4.4847    1.3033    0.0000 C   0  0  0  0  0  0  0  0  0  0  0  0
    2.9966    1.4915    0.0000 C   0  0  0  0  0  0  0  0  0  0  0  0
    2.4155    2.8744    0.0000 O   0  0  0  0  0  0  0  0  0  0  0  0
    2.0895    0.2969    0.0000 C   0  0  0  0  0  0  0  0  0  0  0  0
    0.6013    0.4851    0.0000 C   0  0  0  0  0  0  0  0  0  0  0  0
    0.0203    1.8680    0.0000 O   0  0  0  0  0  0  0  0  0  0  0  0
   -2.7010   -1.7160    0.0000 C   0  0  0  0  0  0  0  0  0  0  0  0
   -4.1891   -1.5277    0.0000 C   0  0  0  0  0  0  0  0  0  0  0  0
  1  2  1  0
  2  3  1  0
  3  4  2  0
  4  5  1  0
  5  6  2  0
  6  7  1  0
  7  8  2  0
  8  9  1  0
  9 10  1  0
 10 11  2  0
 11 12  1  0
 12 13  1  0
 12 14  2  0
 14 15  1  0
 15 16  1  0
 15 17  2  0
 17 18  1  0
 18 19  2  0
  6 20  1  0
 20 21  2  0
 21  3  1  0
 18  7  1  0
 17 10  1  0
M  END
>  <identifier>  (1892) 
CNP0314566.0

>  <canonical_smiles>  (1892) 
COC1=CC=C(C2=COC3=CC(O)=CC(O)=C3C2=O)C=C1

>  <standard_inchi>  (1892) 
InChI=1S/C16H12O5/c1-20-11-4-2-9(3-5-11)12-8-21-14-7-10(17)6-13(18)15(14)16(12)19/h2-8,17-18H,1H3

>  <standard_inchi_key>  (1892) 
WUADCCWRTIWANL-UHFFFAOYSA-N

>  <name>  (1892) 
biochanin A

>  <iupac_name>  (1892) 
5,7-dihydroxy-3-(4-methoxyphenyl)chromen-4-one

>  <annotation_level>  (1892) 
5

>  <total_atom_count>  (1892) 
33

>  <heavy_atom_count>  (1892) 
21

>  <molecular_weight>  (1892) 
284.27

>  <exact_molecular_weight>  (1892) 
284.06847

>  <molecular_formula>  (1892) 
C16H12O5

>  <alogp>  (1892) 
2.88

>  <topological_polar_surface_area>  (1892) 
79.90

>  <rotatable_bond_count>  (1892) 
2

>  <hydrogen_bond_acceptors>  (1892) 
5

>  <hydrogen_bond_donors>  (1892) 
2

>  <hydrogen_bond_acceptors_lipinski>  (1892) 
5

>  <hydrogen_bond_donors_lipinski>  (1892) 
2

>  <lipinski_rule_of_five_violations>  (1892) 
0

>  <aromatic_rings_count>  (1892) 
3

>  <qed_drug_likeliness>  (1892) 
0.76

>  <formal_charge>  (1892) 
0

>  <fractioncsp3>  (1892) 
0.06

>  <number_of_minimal_rings>  (1892) 
3

>  <van_der_walls_volume>  (1892) 
239.53

>  <contains_sugar>  (1892) 
False

>  <contains_ring_sugars>  (1892) 
False

>  <contains_linear_sugars>  (1892) 
False

>  <murcko_framework>  (1892) 
O1C=C(c2ccccc2)Cc3ccccc13

>  <np_likeness>  (1892) 
1.12

>  <chemical_class>  (1892) 
Isoflavonoids

>  <chemical_sub_class>  (1892) 
Isoflav-2-enes

>  <chemical_super_class>  (1892) 
Phenylpropanoids and polyketides

>  <direct_parent_classification>  (1892) 
Isoflavones

>  <np_classifier_pathway>  (1892) 
Shikimates and Phenylpropanoids

>  <np_classifier_superclass>  (1892) 
Isoflavonoids

>  <np_classifier_class>  (1892) 
Isoflavones

>  <np_classifier_is_glycoside>  (1892) 
False

>  <organisms>  (1892) 
A new engineered strain of Bacillus subtilis [yyzE ypqE ptsG]|Abelia chinensis|Albizia Procera|Albizia procera|Anaxagorea luzonensis|Anaxagorea luzonensis A.GRAY|Andira inermis|Andira parviflora|Andira surinamensis|Annona squamosa|Apis mellifera ligustica|Aplophyllum alberti-regelii|Arabidopsis thaliana|Arachis hypogaea|Arum maximum|Asclepias vestita|Asimina parviflora|Aspilia parvifolia|Astragalus adsurgens|Astragalus membranaceus|Astragalus mongholicus|Atraphaxis spinosa|Baccharis neglecta|Bacillus subtilis|Baphicacanthus cusia|Baptisia alba|Baptisia australis|Baptisia calycosa|Baptisia sp.|Baptisia sphaerocarpa|Baptisia tinctoria|Barringtonia acutangula|Bolusanthus speciosus|Bolusanthus specious|Brazilian Red Propolis|Butea superba|Cacospongia scalaris|Candida albicans|Capsicum annuum|Caulis millettiae|Caulis spatholobi|Centaurea maculosa|Chamomilla recutita|Chondrodendron tomentosum|Cicer anatolicum|Cicer arietinum|Cicer bijugum|Cicer canariense|Cicer canariensis|Cicer chorassanicum|Cicer cuneatum|Cicer echinospermum|Cicer flexuosum|Cicer judaicum|Cicer judicum|Cicer kopetdaghense|Cicer macracanthum|Cicer microphyllum|Cicer mogolatvicum|Cicer mogoltavicum|Cicer montbretii|Cicer nuristanicum|Cicer oxyodon|Cicer pinnatifidum|Cicer pungens|Cicer rechingeri|Cicer reticulatum|Cicer songaricum|Cicer tragacanthoides|Cicer yamashitae|Citrus wilsonii|Clerodendrum bungei|Conus mus|Cordia leucocephala|Corydalis densiflora|Cotoneaster pannosus|Craibiodendron yunnanense|Crotalaria thebaica|Croton megistocarpus|Cudrania tricuspidata|Cullen corylifolia|Cullen corylifolium|Cymbopogon citratus|Cystoseira mediterranea|Dalbergia Lanceolaria|Dalbergia Volubilis|Dalbergia congestiflora|Dalbergia cultrata|Dalbergia frutescens|Dalbergia lanceolaria|Dalbergia monetaria|Dalbergia nigrescens|Dalbergia nitidula|Dalbergia oliveri|Dalbergia ovalis|Dalbergia parviflora|Dalbergia sissoides|Dalbergia sissoo|Dalbergia spruceana|Dalbergia volubilis|Dendronephthya griffini|Dermatophyllum secundiflorum|Desmodium canadense|Dianthus caryophyllus|Diospyros assimilis|Dolabella californica|Echinospartum horridum|Embelia parviflora|Embelia ribes|Embelia schimperi|Ephedra sinica|Epilobium hirsutum|Eria anomala|Erysimum leptophyllum|Erythrina melanacantha|Esenbeckia leiocarpa|Euchresta formosana|Euphorbia nematocypha|Fallopia multiflora|Faramea salicifolia|Flemingia macrophylla|Flemingia prostrata|Fructus psoraleae corylifoliae|Ganoderma lucidum|Ganoderma sinense|Geranium sibiricum|Glycine Max|Glycine max|Glycyrrhiza inflata|Glycyrrhiza uralensis|Gymnocalycium schickendantzii|Gynerium sagittatum|Halotydeus destructor|Haplophyllum obtusifolium|Haplormosia monophylla|Hedysarum multijugum|Helichrysum tenuifolium|Heliotropium hirsutissimum|Herba acalyphae|Homo sapiens|Hypericum styphelioides|Inulanthera calva|Iris pseudacorus|Khaya grandifoliola|Klasea sogdiana|Knema furfuracea|Knema glomerata|Lagerstroemia indica|Latrunculia magnifica|Lemaireocereus longispinus|Lupinus albus|Lycogala epidendrum|Lythrum salicaria|Mabea fistulifera|Maclura tricuspidata|Medicago Sativa|Medicago sativa|Millettia dielsiana|Mirabilis jalapa|Moghania philippinensis|Momordica charantia|Monopterix inpae|Monopteryx inpae|Monopteryx uaucu|Monsonia senegalensis|Morella rubra|Murraya exotica|Murraya paniculata|Myristica ceylanica|Myristica malabarica|Myroxylon peruiferum|Myxococcus stipitatus|Napoleonaea vogelii|Nicotiana raimondii|Ononis sp.|Ononis spinosa|Onopordum acanthium|Ormosia henryi|Pancratium sickenbergeri|Pericopsis elata|Pericopsis laxiflora|Pericopsis mooniana|Persea kusanoi|Piper regnellii|Planchonia grandis|Plathymenia reticulata|Podocarpus amarus|Propolis|Prunus avium|Pteridium esculentum|Pueraria Montana|Pueraria montana var. lobata|Pueraria montana var. thomsonii|Pycnanthus angolensis|Retama raetam|Rhinella marina|Schleichera trijuga|Schultesia guianensis|Scolopia chinensis|Senecio isatideus|Shigella dysenteriae|Simarouba glauca|Siphonaria capensis|Sophora Japonica|Sophora flavescens|Sophora japonica|Sophora mollis|Sophora secundiflora|Spatholobus suberectus|Streptomyces filamentosus|Styphnolobium japonicum|Sundacarpus amarus|Swartzia polyphylla|Syzygium jambos|Syzygium polycephaloides|Theonella conica|Thermopsis macrophylla|Thermopsis rhombifolia|Tricholoma columbetta|Triclisia subcordata|Trifolium alpestre|Trifolium apertum|Trifolium arvense|Trifolium aureum|Trifolium canescens|Trifolium caucasicum|Trifolium diffusum|Trifolium echinatum|Trifolium fragiferum|Trifolium incarnatum|Trifolium medium|Trifolium pannonicum|Trifolium pratense|Trifolium pratense L.|Trifolium repens|Trifolium repens L.|Trifolium repensl|Trifolium rubens|Trifolium sp.|Trifolium subterraneum|Trifolium trichocephalum|Trigonella foenum-graecum|Trollius europaeus|Vellozia nanuzae|Vernonia fagifolia|Virola caducifolia|Virola cadudifolia|Virola surinamensis|Vitex negundo|Vitis vinifera|Wisteria brachybotrys|garlic|liquorice|mountain clover|peanut|pomegranate|soybean|zigzag clover

>  <collections>  (1892) 
ANPDB|AnalytiCon Discovery NPs|Australian natural products|BitterDB|CMAUP (cCollective molecular activities of useful plants)|ChEBI NPs|ChemSpider NPs|ConMedNP|ETM (Ethiopian Traditional Medicine) DB|FooDB|GNPS (Global Natural Products Social Molecular Networking)|HIM (Herbal Ingredients in-vivo Metabolism database)|KNApSaCK|Latin America dataset|NANPDB (Natural Products from Northern African Sources)|NPACT|NPASS|NPCARE|NPEdia|NuBBEDB|Phenol-explorer|Phyto4Health|PhytoLab phyproof® Reference Substances|PubChem NPs|Specs Natural Products|Super Natural II|TCMDB-Taiwan (Traditional Chinese Medicine database)|TCMID (Traditional Chinese Medicine Integrated Database)|TIPdb (database of Taiwan indigenous plants)|TPPT (Toxic Plants–PhytoToxins)|UNPD (Universal Natural Products Database)|VietHerb|WikiData Natural Products|p-ANAPL

>  <dois>  (1892) 
10.1002/(SICI)1099-1565(199707)8:4<176::AID-PCA351>3.0.CO;2-K|10.1002/(SICI)1099-1573(199903)13:2<163::AID-PTR405>3.0.CO;2-|10.1002/9780470744307.gat218|10.1002/BIOT.201700020|10.1002/CHIN.200052210|10.1002/CHIN.200432208|10.1002/JPS.2600640504|10.1002/JSSC.200500003|10.1002/MRC.2138|10.1007/BF00564927|10.1007/BF00565710|10.1007/BF00579982|10.1007/BF00595030|10.1007/BF00599277|10.1007/BF00629810|10.1007/BF00629811|10.1007/BF00630553|10.1007/BF02249145|10.1007/BF02282376|10.1007/BF02969267|10.1007/S10600-019-02831-3|10.1007/S11240-014-0506-4|10.1007/S11418-010-0407-8|10.1016/0021-9673(83)80060-0|10.1016/0031-9422(74)85043-0|10.1016/0031-9422(79)80020-5|10.1016/0031-9422(81)85097-2|10.1016/0031-9422(83)80186-1|10.1016/0031-9422(88)80628-9|10.1016/0031-9422(91)84117-B|10.1016/0160-9327(76)90004-1|10.1016/0304-3835(91)90044-I|10.1016/0305-1978(81)90030-2|10.1016/J.BMC.2007.10.004|10.1016/J.BMC.2008.04.016|10.1016/J.BMCL.2011.12.036|10.1016/J.BMCL.2015.07.017|10.1016/J.FITOTE.2006.01.004|10.1016/J.FITOTE.2009.05.005|10.1016/J.FITOTE.2009.06.002|10.1016/J.FITOTE.2011.10.007|10.1016/J.FOODCHEM.2014.10.145|10.1016/J.FOODCHEM.2019.125629|10.1016/J.FOODRES.2014.04.036|10.1016/J.PHYTOCHEM.2003.08.010|10.1016/J.PHYTOCHEM.2003.09.003|10.1016/J.PHYTOCHEM.2007.03.007|10.1016/J.PLAPHY.2005.11.006|10.1016/J.TALANTA.2009.03.011|10.1016/S0003-2670(01)01370-8|10.1016/S0021-9150(99)00029-5|10.1016/S0021-9673(00)91555-3|10.1016/S0021-9673(01)01231-6|10.1016/S0021-9673(01)89464-4|10.1016/S0021-9673(01)96392-7|10.1016/S0021-9673(96)00578-X|10.1016/S0021-9673(97)00989-8|10.1016/S0021-9673(99)00110-7|10.1016/S0031-9422(00)81307-2|10.1016/S0031-9422(00)85740-4|10.1016/S0031-9422(00)88458-7|10.1016/S0031-9422(00)88981-5|10.1016/S0031-9422(00)89039-1|10.1016/S0031-9422(00)89103-7|10.1016/S0031-9422(00)94255-9|10.1016/S0031-9422(00)94601-6|10.1016/S0031-9422(01)00295-3|10.1016/S0031-9422(96)00408-6|10.1016/S0031-9422(97)00798-X|10.1016/S0031-9422(97)00802-9|10.1016/S0031-9422(97)00920-5|10.1016/S0031-9422(97)01092-3|10.1016/S0031-9422(98)00132-0|10.1016/S0031-9422(98)00709-2|10.1016/S0031-9422(99)00489-6|10.1016/S0378-8741(00)00285-3|10.1016/S1570-0232(02)00079-X|10.1017/S0007114507811974|10.1021/ACS.ANALCHEM.6B04919|10.1021/JF00049A020|10.1021/JF050448P|10.1021/JF062148T|10.1021/JF60116A026|10.1021/JF991002+|10.1021/NP000010D|10.1021/NP0004092|10.1021/NP010606G|10.1021/NP0302450|10.1021/NP50043A014|10.1021/NP50105A007|10.1021/NP50118A028|10.1021/NP900676Y|10.1021/NP960122Y|10.1021/NP970503R|10.1021/es200567b|10.1021/es901034u|10.1021/jf071661j|10.1039/JR9620004906|10.1039/JR9620005194|10.1039/P19760000186|10.1046/J.1432-1033.2003.03729.X|10.1055/S-0028-1099407|10.1055/S-2006-957534|10.1055/S-2006-957548|10.1055/S-2007-967103|10.1055/S-2007-969907|10.1071/CH9850485|10.1071/ch9640428|10.1071/ch9741377|10.1076/PHBI.37.1.54.6310|10.1080/10575639908041222|10.1080/1478641031000103669|10.1080/14786419.2010.522577|10.1093/CHROMSCI/39.10.441|10.1093/OXFORDJOURNALS.JHERED.A102397|10.1097/GME.0B013E318156F9D6|10.1111/J.1365-4632.2009.04269.X|10.1128/AEM.57.2.434-439.1991|10.1248/BPB.20.865|10.1248/CPB.40.2970|10.1248/CPB.48.1219|10.1248/CPB.52.1255|10.1248/CPB.54.278|10.1271/BBB.100878|10.13005/bbra/2145|10.1371/journal.pone.0073076|10.14233/AJCHEM.2014.16143A|10.1515/ZNC-1985-9-1005|10.1515/ZNC-1988-7-809|10.1515/ZNC-1991-1-208|10.2134/jeq2010.0121|10.21608/BFSA.2000.66404|10.22456/2527-2616.102027|10.3906/KIM-1206-45|10.3987/COM-05-10350|10.4268/CJCMM20140916|10.48141/SBJCHEM.V1.N1.1993.16_1993.PDF

>  <synonyms>  (1892) 
nan

>  <cas>  (1892) 
491-80-5

$$$$

     RDKit          2D

 31 35  0  0  0  0  0  0  0  0999 V2000
   -7.6770    1.6481    0.0000 C   0  0  0  0  0  0  0  0  0  0  0  0
   -6.9222    0.3518    0.0000 O   0  0  0  0  0  0  0  0  0  0  0  0
   -5.4223    0.3573    0.0000 C   0  0  0  0  0  0  0  0  0  0  0  0
   -4.6770    1.6591    0.0000 C   0  0  0  0  0  0  0  0  0  0  0  0
   -3.1770    1.6646    0.0000 C   0  0  0  0  0  0  0  0  0  0  0  0
   -2.4223    0.3683    0.0000 C   0  0  0  0  0  0  0  0  0  0  0  0
   -3.1675   -0.9335    0.0000 C   0  0  0  0  0  0  0  0  0  0  0  0
   -4.6675   -0.9390    0.0000 C   0  0  0  0  0  0  0  0  0  0  0  0
   -5.4127   -2.2408    0.0000 O   0  0  0  0  0  0  0  0  0  0  0  0
   -6.9127   -2.2463    0.0000 C   0  0  0  0  0  0  0  0  0  0  0  0
   -0.9223    0.3738    0.0000 C   0  0  0  0  0  0  0  0  0  0  0  0
   -1.6675   -0.9280    0.0000 O   0  0  0  0  0  0  0  0  0  0  0  0
   -0.1675   -0.9225    0.0000 C   0  0  0  0  0  0  0  0  0  0  0  0
   -0.9128   -2.2243    0.0000 O   0  0  0  0  0  0  0  0  0  0  0  0
    1.3325   -0.9170    0.0000 C   0  0  0  0  0  0  0  0  0  0  0  0
    2.0872   -2.2133    0.0000 C   0  0  0  0  0  0  0  0  0  0  0  0
    1.3420   -3.5151    0.0000 O   0  0  0  0  0  0  0  0  0  0  0  0
    3.5872   -2.2078    0.0000 C   0  0  0  0  0  0  0  0  0  0  0  0
    4.3324   -0.9060    0.0000 C   0  0  0  0  0  0  0  0  0  0  0  0
    5.8324   -0.9005    0.0000 O   0  0  0  0  0  0  0  0  0  0  0  0
    6.5777    0.4012    0.0000 C   0  0  0  0  0  0  0  0  0  0  0  0
    7.7232    1.3696    0.0000 C   0  0  0  0  0  0  0  0  0  0  0  0
    7.7303   -0.5587    0.0000 C   0  0  0  0  0  0  0  0  0  0  0  0
    5.8229    1.6975    0.0000 C   0  0  0  0  0  0  0  0  0  0  0  0
    4.3229    1.6920    0.0000 C   0  0  0  0  0  0  0  0  0  0  0  0
    3.5777    0.3902    0.0000 C   0  0  0  0  0  0  0  0  0  0  0  0
    2.0777    0.3848    0.0000 C   0  0  0  0  0  0  0  0  0  0  0  0
    1.3229    1.6810    0.0000 O   0  0  0  0  0  0  0  0  0  0  0  0
   -0.1770    1.6755    0.0000 C   0  0  0  0  0  0  0  0  0  0  0  0
   -0.9318    2.9718    0.0000 C   0  0  0  0  0  0  0  0  0  0  0  0
   -2.4318    2.9663    0.0000 O   0  0  0  0  0  0  0  0  0  0  0  0
  1  2  1  0
  2  3  1  0
  3  4  2  0
  4  5  1  0
  5  6  2  0
  6  7  1  0
  7  8  2  0
  8  9  1  0
  9 10  1  0
  6 11  1  0
 11 12  1  1
 11 13  1  0
 13 14  2  0
 13 15  1  0
 15 16  2  0
 16 17  1  0
 16 18  1  0
 18 19  2  0
 19 20  1  0
 20 21  1  0
 21 22  1  0
 21 23  1  0
 21 24  1  0
 24 25  2  0
 25 26  1  0
 26 27  2  0
 27 28  1  0
 28 29  1  0
 29 30  1  0
 30 31  1  0
  8  3  1  0
 29 11  1  0
 31  5  1  0
 27 15  1  0
 26 19  1  0
M  END
>  <identifier>  (1893) 
CNP0252907.4

>  <canonical_smiles>  (1893) 
COC1=CC2=C(C=C1OC)[C@@]1(O)C(=O)C3=C(O)C=C4OC(C)(C)C=CC4=C3OC1CO2

>  <standard_inchi>  (1893) 
InChI=1S/C23H22O8/c1-22(2)6-5-11-14(31-22)8-13(24)19-20(11)30-18-10-29-15-9-17(28-4)16(27-3)7-12(15)23(18,26)21(19)25/h5-9,18,24,26H,10H2,1-4H3/t18?,23-/m0/s1

>  <standard_inchi_key>  (1893) 
OFLCPNIRDVOOEZ-IMMUGOHXSA-N

>  <name>  (1893) 
nan

>  <iupac_name>  (1893) 
(14~{S})-11,14-dihydroxy-17,18-dimethoxy-7,7-dimethyl-2,8,21-trioxapentacyclo[12.8.0.0^{3,12}.0^{4,9}.0^{15,20}]docosa-3,5,9,11,15(20),16,18-heptaen-13-one

>  <annotation_level>  (1893) 
4

>  <total_atom_count>  (1893) 
53

>  <heavy_atom_count>  (1893) 
31

>  <molecular_weight>  (1893) 
426.42

>  <exact_molecular_weight>  (1893) 
426.13147

>  <molecular_formula>  (1893) 
C23H22O8

>  <alogp>  (1893) 
2.82

>  <topological_polar_surface_area>  (1893) 
103.68

>  <rotatable_bond_count>  (1893) 
2

>  <hydrogen_bond_acceptors>  (1893) 
8

>  <hydrogen_bond_donors>  (1893) 
2

>  <hydrogen_bond_acceptors_lipinski>  (1893) 
8

>  <hydrogen_bond_donors_lipinski>  (1893) 
2

>  <lipinski_rule_of_five_violations>  (1893) 
0

>  <aromatic_rings_count>  (1893) 
2

>  <qed_drug_likeliness>  (1893) 
0.76

>  <formal_charge>  (1893) 
0

>  <fractioncsp3>  (1893) 
0.35

>  <number_of_minimal_rings>  (1893) 
5

>  <van_der_walls_volume>  (1893) 
nan

>  <contains_sugar>  (1893) 
False

>  <contains_ring_sugars>  (1893) 
False

>  <contains_linear_sugars>  (1893) 
False

>  <murcko_framework>  (1893) 
O1c2ccc3c(OC4COc5ccccc5C4C3)c2C=CC1

>  <np_likeness>  (1893) 
2.69

>  <chemical_class>  (1893) 
Isoflavonoids

>  <chemical_sub_class>  (1893) 
Rotenoids

>  <chemical_super_class>  (1893) 
Phenylpropanoids and polyketides

>  <direct_parent_classification>  (1893) 
Rotenones

>  <np_classifier_pathway>  (1893) 
Shikimates and Phenylpropanoids

>  <np_classifier_superclass>  (1893) 
Isoflavonoids

>  <np_classifier_class>  (1893) 
Rotenoids

>  <np_classifier_is_glycoside>  (1893) 
False

>  <organisms>  (1893) 
Tephrosia candida

>  <collections>  (1893) 
Latin America dataset|NuBBEDB

>  <dois>  (1893) 
10.1002/(SICI)1521-4168(19980901)21:9<513::AID-JHRC513>3.0.CO,2-F

>  <synonyms>  (1893) 
12a-hydroxy-\u221a\u00e9\u00ac\u00b1-toxicarol

>  <cas>  (1893) 
nan

$$$$

     RDKit          2D

 32 33  0  0  0  0  0  0  0  0999 V2000
  -12.6118   -0.0815    0.0000 C   0  0  0  0  0  0  0  0  0  0  0  0
  -11.2205    0.4793    0.0000 C   0  0  0  0  0  0  0  0  0  0  0  0
  -11.0106    1.9646    0.0000 C   0  0  0  0  0  0  0  0  0  0  0  0
  -10.0393   -0.4451    0.0000 C   0  0  0  0  0  0  0  0  0  0  0  0
   -8.6480    0.1157    0.0000 C   0  0  0  0  0  0  0  0  0  0  0  0
   -7.4668   -0.8087    0.0000 C   0  0  0  0  0  0  0  0  0  0  0  0
   -6.0755   -0.2479    0.0000 C   0  0  0  0  0  0  0  0  0  0  0  0
   -4.8943   -1.1724    0.0000 C   0  0  0  0  0  0  0  0  0  0  0  0
   -3.5030   -0.6116    0.0000 C   0  0  0  0  0  0  0  0  0  0  0  0
   -2.3218   -1.5360    0.0000 C   0  0  0  0  0  0  0  0  0  0  0  0
   -0.9305   -0.9752    0.0000 C   0  0  0  0  0  0  0  0  0  0  0  0
   -0.7206    0.5100    0.0000 C   0  0  0  0  0  0  0  0  0  0  0  0
    0.2508   -1.8996    0.0000 C   0  0  0  0  0  0  0  0  0  0  0  0
    1.6420   -1.3388    0.0000 C   0  0  0  0  0  0  0  0  0  0  0  0
    2.8233   -2.2633    0.0000 C   0  0  0  0  0  0  0  0  0  0  0  0
    4.2145   -1.7025    0.0000 C   0  0  0  0  0  0  0  0  0  0  0  0
    4.5252   -3.1699    0.0000 C   0  0  0  0  0  0  0  0  0  0  0  0
    3.4206   -0.4297    0.0000 C   0  0  0  0  0  0  0  0  0  0  0  0
    4.1259    0.8941    0.0000 C   0  0  0  0  0  0  0  0  0  0  0  0
    5.6250    0.9453    0.0000 C   0  0  0  0  0  0  0  0  0  0  0  0
    6.3303    2.2691    0.0000 C   0  0  0  0  0  0  0  0  0  0  0  0
    7.8294    2.3203    0.0000 C   0  0  0  0  0  0  0  0  0  0  0  0
    8.5347    3.6441    0.0000 O   0  0  0  0  0  0  0  0  0  0  0  0
    8.6233    1.0476    0.0000 C   0  0  0  0  0  0  0  0  0  0  0  0
   10.1224    1.0987    0.0000 C   0  0  0  0  0  0  0  0  0  0  0  0
    7.9180   -0.2763    0.0000 C   0  0  0  0  0  0  0  0  0  0  0  0
    8.7119   -1.5490    0.0000 C   0  0  0  0  0  0  0  0  0  0  0  0
    6.4189   -0.3274    0.0000 C   0  0  0  0  0  0  0  0  0  0  0  0
    5.7136   -1.6513    0.0000 O   0  0  0  0  0  0  0  0  0  0  0  0
   -5.8656    1.2373    0.0000 C   0  0  0  0  0  0  0  0  0  0  0  0
   -4.4744    1.7981    0.0000 O   0  0  0  0  0  0  0  0  0  0  0  0
   -7.0469    2.1618    0.0000 O   0  0  0  0  0  0  0  0  0  0  0  0
  1  2  1  0
  2  3  1  0
  2  4  2  0
  4  5  1  0
  5  6  1  0
  6  7  1  0
  7  8  2  0
  8  9  1  0
  9 10  1  0
 10 11  1  0
 11 12  1  0
 11 13  2  0
 13 14  1  0
 14 15  1  0
 15 16  1  0
 16 17  1  0
 16 18  1  0
 18 19  2  0
 19 20  1  0
 20 21  2  0
 21 22  1  0
 22 23  1  0
 22 24  2  0
 24 25  1  0
 24 26  1  0
 26 27  1  0
 26 28  2  0
 28 29  1  0
  7 30  1  0
 30 31  2  0
 30 32  1  0
 29 16  1  0
 28 20  1  0
M  END
>  <identifier>  (1894) 
CNP0158414.4

>  <canonical_smiles>  (1894) 
CC(C)=CCC/C(=C/CC/C(C)=C/CCC1(C)C=CC2=CC(O)=C(C)C(C)=C2O1)C(=O)O

>  <standard_inchi>  (1894) 
InChI=1S/C28H38O4/c1-19(2)10-7-13-23(27(30)31)14-8-11-20(3)12-9-16-28(6)17-15-24-18-25(29)21(4)22(5)26(24)32-28/h10,12,14-15,17-18,29H,7-9,11,13,16H2,1-6H3,(H,30,31)/b20-12+,23-14-

>  <standard_inchi_key>  (1894) 
CEDDAIQBDLSHBB-HVZPBUQRSA-N

>  <name>  (1894) 
nan

>  <iupac_name>  (1894) 
nan

>  <annotation_level>  (1894) 
0

>  <total_atom_count>  (1894) 
70

>  <heavy_atom_count>  (1894) 
32

>  <molecular_weight>  (1894) 
438.61

>  <exact_molecular_weight>  (1894) 
438.27701

>  <molecular_formula>  (1894) 
C28H38O4

>  <alogp>  (1894) 
7.44

>  <topological_polar_surface_area>  (1894) 
66.76

>  <rotatable_bond_count>  (1894) 
10

>  <hydrogen_bond_acceptors>  (1894) 
3

>  <hydrogen_bond_donors>  (1894) 
2

>  <hydrogen_bond_acceptors_lipinski>  (1894) 
3

>  <hydrogen_bond_donors_lipinski>  (1894) 
2

>  <lipinski_rule_of_five_violations>  (1894) 
1

>  <aromatic_rings_count>  (1894) 
1

>  <qed_drug_likeliness>  (1894) 
0.29

>  <formal_charge>  (1894) 
0

>  <fractioncsp3>  (1894) 
0.46

>  <number_of_minimal_rings>  (1894) 
2

>  <van_der_walls_volume>  (1894) 
441.92

>  <contains_sugar>  (1894) 
False

>  <contains_ring_sugars>  (1894) 
False

>  <contains_linear_sugars>  (1894) 
False

>  <murcko_framework>  (1894) 
O1c2ccccc2C=CC1

>  <np_likeness>  (1894) 
2.74

>  <chemical_class>  (1894) 
nan

>  <chemical_sub_class>  (1894) 
nan

>  <chemical_super_class>  (1894) 
nan

>  <direct_parent_classification>  (1894) 
nan

>  <np_classifier_pathway>  (1894) 
Terpenoids

>  <np_classifier_superclass>  (1894) 
Meroterpenoids

>  <np_classifier_class>  (1894) 
Merosesquiterpenoids

>  <np_classifier_is_glycoside>  (1894) 
False

>  <organisms>  (1894) 
Iryanthera juruensis

>  <collections>  (1894) 
Latin America dataset|NuBBEDB

>  <dois>  (1894) 
10.1016/S0031-9422(00)00477-5

>  <synonyms>  (1894) 
nan

>  <cas>  (1894) 
nan

$$$$

     RDKit          2D

 16 17  0  0  0  0  0  0  0  0999 V2000
   -1.9036   -3.7450    0.0000 C   0  0  0  0  0  0  0  0  0  0  0  0
   -0.8993   -2.6308    0.0000 C   0  0  0  0  0  0  0  0  0  0  0  0
   -1.3620   -1.2040    0.0000 C   0  0  0  0  0  0  0  0  0  0  0  0
   -0.3577   -0.0898    0.0000 C   0  0  0  0  0  0  0  0  0  0  0  0
   -0.8205    1.3370    0.0000 C   0  0  0  0  0  0  0  0  0  0  0  0
   -2.2875    1.6497    0.0000 C   0  0  0  0  0  0  0  0  0  0  0  0
   -2.7502    3.0766    0.0000 C   0  0  0  0  0  0  0  0  0  0  0  0
   -3.2918    0.5356    0.0000 C   0  0  0  0  0  0  0  0  0  0  0  0
    0.1839    2.4512    0.0000 C   0  0  0  0  0  0  0  0  0  0  0  0
    1.6509    2.1385    0.0000 C   0  0  0  0  0  0  0  0  0  0  0  0
    2.1136    0.7117    0.0000 C   0  0  0  0  0  0  0  0  0  0  0  0
    3.0365   -0.4708    0.0000 C   0  0  0  0  0  0  0  0  0  0  0  0
    3.4385    1.4152    0.0000 O   0  0  0  0  0  0  0  0  0  0  0  0
    1.1093   -0.4025    0.0000 C   0  0  0  0  0  0  0  0  0  0  0  0
    1.5721   -1.8293    0.0000 C   0  0  0  0  0  0  0  0  0  0  0  0
    0.5678   -2.9435    0.0000 C   0  0  0  0  0  0  0  0  0  0  0  0
  1  2  1  0
  2  3  2  0
  4  3  1  1
  4  5  1  0
  5  6  1  6
  6  7  1  0
  6  8  1  0
  5  9  1  0
  9 10  1  0
 10 11  1  0
 11 12  1  1
 11 13  1  0
 11 14  1  0
 14 15  1  1
 15 16  1  0
 16  2  1  0
 14  4  1  0
M  END
>  <identifier>  (1895) 
CNP0262195.2

>  <canonical_smiles>  (1895) 
CC1=C[C@H]2[C@H](C(C)C)CC[C@](C)(O)[C@H]2CC1

>  <standard_inchi>  (1895) 
InChI=1S/C15H26O/c1-10(2)12-7-8-15(4,16)14-6-5-11(3)9-13(12)14/h9-10,12-14,16H,5-8H2,1-4H3/t12-,13-,14-,15-/m0/s1

>  <standard_inchi_key>  (1895) 
LHYHMMRYTDARSZ-AJNGGQMLSA-N

>  <name>  (1895) 
T-Muurolol

>  <iupac_name>  (1895) 
(1~{S},4~{S},4~{a}~{R},8~{a}~{S})-4-isopropyl-1,6-dimethyl-3,4,4~{a},7,8,8~{a}-hexahydro-2~{H}-naphthalen-1-ol

>  <annotation_level>  (1895) 
5

>  <total_atom_count>  (1895) 
42

>  <heavy_atom_count>  (1895) 
16

>  <molecular_weight>  (1895) 
222.37

>  <exact_molecular_weight>  (1895) 
222.19837

>  <molecular_formula>  (1895) 
C15H26O

>  <alogp>  (1895) 
3.78

>  <topological_polar_surface_area>  (1895) 
20.23

>  <rotatable_bond_count>  (1895) 
1

>  <hydrogen_bond_acceptors>  (1895) 
1

>  <hydrogen_bond_donors>  (1895) 
1

>  <hydrogen_bond_acceptors_lipinski>  (1895) 
1

>  <hydrogen_bond_donors_lipinski>  (1895) 
1

>  <lipinski_rule_of_five_violations>  (1895) 
0

>  <aromatic_rings_count>  (1895) 
0

>  <qed_drug_likeliness>  (1895) 
0.67

>  <formal_charge>  (1895) 
0

>  <fractioncsp3>  (1895) 
0.87

>  <number_of_minimal_rings>  (1895) 
2

>  <van_der_walls_volume>  (1895) 
238.72

>  <contains_sugar>  (1895) 
False

>  <contains_ring_sugars>  (1895) 
False

>  <contains_linear_sugars>  (1895) 
False

>  <murcko_framework>  (1895) 
C1=CC2CCCCC2CC1

>  <np_likeness>  (1895) 
3.14

>  <chemical_class>  (1895) 
Prenol lipids

>  <chemical_sub_class>  (1895) 
Sesquiterpenoids

>  <chemical_super_class>  (1895) 
Lipids and lipid-like molecules

>  <direct_parent_classification>  (1895) 
Sesquiterpenoids

>  <np_classifier_pathway>  (1895) 
Terpenoids

>  <np_classifier_superclass>  (1895) 
Sesquiterpenoids

>  <np_classifier_class>  (1895) 
Cadinane sesquiterpenoids

>  <np_classifier_is_glycoside>  (1895) 
False

>  <organisms>  (1895) 
Acicarpha tribuloides|Aconitum palmatum|Aconitum tianschanicum|Aguacate|Aiouea costaricensis|Akebia quinata|Akebia trifoliata|Albatrellus caeruleoporus|Amanita pseudoporphyria|Aniba rosaeodora|Annona cascarilloides|Antidesma laciniatum|Aplysilla rosea|Aplysinella rhax|Arbacia pustulosa|Ariocarpus fissuratus|Arnica longifolia|Artemisia capillaris|Artemisia vulgaris|Austrobaileya scandens|Baccharis articulata|Baccharis dracunculifolia|Baccharis rufescens|Beilschmiedia pendula|Bidens tripartita|Bouchardatia neurococca|Cacalia robusta|Calocedrus macrolepis|Calypogeia muelleriana|Cananga odorata|Carpesium faberi|Cedrela odorata|Centaurea arbutifolia|Centaurea musimomum|Chamaecyparis obtusa|Chamaecyparis pisifera|Cheilanthes farinosa|Chiliadenus lopadusanus|Chlamydomonas allensworthii|Chrysanthemum indicum|Chrysanthemum viscidehirtum|Chrysanthemum x morifolium|Cinnamomum sieboldii|Cistus albidus|Cladonia pityrea|Claviceps microcephala|Cleistopholis patens|Clinopodium brownei|Codonopsis cordifolioidea|Corydalis sewerzowi|Corymbia citriodora|Coscinoderma matthewsi|Crematogaster africana|Croton hemiargyreus|Cryptolestes pusillus|Cunninghamia konishii|Curcuma Aeruginosa|Cynanchum stauntoni|Dahlstedtia pentaphylla|Daniellia oliveri|Drimys brasiliensis|Duguetia confinis|Echinophora tournefortii|Ekimia bornmuelleri|Entandrophragma cylindricum|Eriostemon banksii|Erium villosum|Erylus nobilis|Etlingera pavieana|Eucalyptus|Eucalyptus citriodora|Euphausia superba|Flemingia philippinensis|Fokienia hodginsii|Genista sessilifolia|Gomphostemma parviflorum|Grindelia hirsutula|Hamamelis virginiana|Hedychium spicatum|Helenium arizonicum|Heteranthemis viscidehirta|Hippobroma longiflora|Homalomena aromatica|Hypericum japonicum|Hypericum perforatum|Hyptis suaveolens|Juglans regia|Jugo|Juniperus oxycedrus|Lambertella corni|Lepechinia floribunda|Lepidorhinus squamosus|Lippia Myriocephala|Liquidambar styraciflua|Machaerium kuhlmannii|Melaleuca alternifolia|Melissa officinalis|Morina persica|Murraya exotica|Murraya paniculata|Mytilus galloprovincialis|Nectandra salicina|Neolentinus lepideus|Neoscopelus microchir|Nepeta viscida|Ochrosperma lineare|Ocotea gomezii|Ocotea morae|Onoseris alata|Panax ginseng|Pelargonium endlicherianum|Persea tolimanensis|Petrosia corticata|Pinus sylvestris|Piper acutifolium|Piper cernuum|Piper nigrum|Pittosporum phillyraeoides|Placida dendritica|Platycladus orientalis|Polygala senega|Prangos uechtritzii|Psiadia altissima|Psidium friedrichsthalianum|Psidium salutare|Psilotum nudum|Salvia syriaca|Saussurea involucrata|Schefflera taiwaniana|Schinus molle|Scytonema ocellatum|Senecio zoellneri|Sideritis brevidens|Sideritis paulii|Smallanthus maculatus|Solanum diflorum|Solidago canadensis|Staehelina fruticosa|Streptomyces|Streptomyces fradiae|Streptomyces sp. m491|Strobilanthes auriculata|Strobilanthes auriculatus|Taiwania cryptomerioides|Teucrium pseudoscorodonia|Trapa bicornis|Triticum aestivum|Uvaria chamae|Vallaris heynei|Vellozia streptophylla|Vincetoxicum glaucescens|Vincetoxicum stauntonii|Vitex agnus-castus|West African Pepper|Xyris indica|Zygosaccharomyces rouxii|potato

>  <collections>  (1895) 
ANPDB|Australian natural products|CMAUP (cCollective molecular activities of useful plants)|ChEBI NPs|ETM (Ethiopian Traditional Medicine) DB|FooDB|Latin America dataset|NANPDB (Natural Products from Northern African Sources)|NAPRORE-CR|NPACT|NPASS|NuBBEDB|Phyto4Health|Super Natural II|TIPdb (database of Taiwan indigenous plants)|VietHerb|WikiData Natural Products|ZINC NP

>  <dois>  (1895) 
10.1002/(SICI)1097-0231(199608)10:11<1345::AID-RCM631>3.0.CO;2-4|10.1002/(SICI)1099-1026(199601)11:1<15::AID-FFJ541>3.0.CO;2-H|10.1002/1521-4168(20000901)23:9<554::aid-jhrc554>3.0.co;2-f|10.1002/CHIN.200403183|10.1002/FFJ.2730030208|10.1002/FFJ.2730070111|10.1002/FFJ.2730100310|10.1002/FFJ.2730100408|10.1002/HLCA.201200359|10.1002/JCCS.200000074|10.1002/JCCS.200200067|10.1002/JLAC.19717450107|10.1002/JLAC.198719870105|10.1002/ffj.991|10.1002/hlca.201200359|10.1002/hlca.201200359/pdf|10.1007/BF02238211|10.1007/S10086-012-1280-8|10.1007/s10086-012-1280-8|10.1016/0031-9422(91)84207-9|10.1016/0031-9422(92)83123-G|10.1016/J.BIORTECH.2007.12.005|10.1016/J.MYCMED.2011.10.007|10.1016/J.PHYTOCHEM.2003.08.004|10.1016/J.PHYTOCHEM.2011.09.002|10.1016/S0031-9422(00)00275-2|10.1016/S0031-9422(00)81118-8|10.1016/S0031-9422(00)83061-7|10.1016/S0031-9422(00)83062-9|10.1016/S0031-9422(00)97172-3|10.1016/S0031-9422(97)01124-2|10.1016/S0031-9422(98)00283-0|10.1016/S0367-326X(00)00154-4|10.1016/j.biortech.2007.12.005|10.1016/j.mycmed.2011.10.007|10.1021/JF00035A029|10.1021/JF00069A028|10.1021/JF00083A001|10.1021/JF00116A075|10.1021/JF0116303|10.1021/NP0101402|10.1021/NP8006843|10.1021/jf011456i|10.1021/jf2042196|10.1021/np8006843|10.1055/S-0028-1099547|10.1055/S-2000-8627|10.1055/S-2001-18363|10.1055/S-2006-957378|10.1055/S-2006-957420|10.1055/S-2006-957488|10.1055/S-2006-959673|10.1055/S-2006-960872|10.1055/S-2006-962016|10.1055/S-2006-962018|10.1055/S-2006-962450|10.1055/S-2007-969487|10.1055/S-2007-969499|10.1071/sb96010|10.1080/10412905.1992.9698080|10.1080/10412905.1994.9698380|10.1080/10412905.1994.9698435|10.1080/10412905.1994.9698446|10.1080/10412905.1994.9699347|10.1080/10412905.1994.9699348|10.1080/10412905.1994.9699362|10.1080/10412905.1995.9698591|10.1080/10412905.1995.9700529|10.1080/10412905.1996.9700568|10.1080/10412905.1997.9700785|10.1080/10412905.1998.9700856|10.1080/10412905.1998.9700918|10.1080/10412905.1998.9701015|10.1080/10412905.1999.9701096|10.1080/10412905.1999.9701102|10.1080/10412905.1999.9701189|10.1080/10412905.2000.9712167|10.1080/10412905.2003.9698602|10.1080/10412905.2004.9698688|10.1080/10412905.2004.9698740|10.1080/10412905.2010.9700320|10.1080/10412905.2010.9700389|10.1093/CHROMSCI/38.6.234|10.1155/2013/413237|10.1248/CPB.51.986|10.1248/YAKUSHI1947.106.1_17|10.1515/HF.2000.041|10.1515/HFSG.1973.27.3.93|10.1590/S0100-40422009000200028|10.1590/S0103-50532000000600012|10.1590/S0103-50532010000900024|10.1590/S0103-50532011000400018|10.2307/2423424|10.23893/1307-2080.APS.05611

>  <synonyms>  (1895) 
(-)-T-Muurolol|(-)-tau-muurolol|(1S,4S,4aR,8aS)-1,6-dimethyl-4-propan-2-yl-3,4,4a,7,8,8a-hexahydro-2H-naphthalen-1-ol|(1S,4S,4aR,8aS)-4-isopropyl-1,6-dimethyl-1,2,3,4,4a,7,8,8a-octahydronaphthalen-1-ol|.alpha.-epi-Muurolol|.tau.-Muurolol|1-Naphthalenol, 1,2,3,4,4a,7,8,8a-octahydro-1,6-dimethyl-4-(1-methylethyl)-, (1S-(1alpha,4alpha,4aalpha,8aalpha))-|10-epi-alpha-muurolol|19912-62-0|4-Isopropyl-1,6-dimethyl-1,2,3,4,4a,7,8,8a-octahydro-1-naphthalenol-, [1S-(1.alpha.,4.alpha.,4a.alpha.,8a.alpha.)]-|CHEBI:132906|CHEMBL2228956|DTXSID10173698|LHYHMMRYTDARSZ-AJNGGQMLSA-N|Muurolol T|NS00123144|Q63409422|SCHEMBL5653479|T-MuuroloI|T-muurolol|\u03c4-muurolol|alpha-epi-muurolol|epi-\u03b1-muurolol|epi-\u221a\u00e9\u00ac\u00b1-Muurolol|epi-_-muurolol|epi-alpha-Muurolol|tau-muurolol

>  <cas>  (1895) 
19912-62-0

$$$$

     RDKit          2D

 16 18  0  0  0  0  0  0  0  0999 V2000
   -1.8419   -3.2042    0.0000 C   0  0  0  0  0  0  0  0  0  0  0  0
   -0.5305   -2.4759    0.0000 O   0  0  0  0  0  0  0  0  0  0  0  0
   -0.5056   -0.9761    0.0000 C   0  0  0  0  0  0  0  0  0  0  0  0
   -1.7920   -0.2046    0.0000 C   0  0  0  0  0  0  0  0  0  0  0  0
   -3.2261   -0.6444    0.0000 O   0  0  0  0  0  0  0  0  0  0  0  0
   -4.0875    0.5837    0.0000 C   0  0  0  0  0  0  0  0  0  0  0  0
   -3.1857    1.7824    0.0000 C   0  0  0  0  0  0  0  0  0  0  0  0
   -1.7671    1.2952    0.0000 C   0  0  0  0  0  0  0  0  0  0  0  0
   -0.4557    2.0235    0.0000 C   0  0  0  0  0  0  0  0  0  0  0  0
    0.8307    1.2520    0.0000 C   0  0  0  0  0  0  0  0  0  0  0  0
    0.8057   -0.2478    0.0000 C   0  0  0  0  0  0  0  0  0  0  0  0
    2.0921   -1.0193    0.0000 O   0  0  0  0  0  0  0  0  0  0  0  0
    3.4034   -0.2910    0.0000 C   0  0  0  0  0  0  0  0  0  0  0  0
    4.6898   -1.0625    0.0000 O   0  0  0  0  0  0  0  0  0  0  0  0
    3.4284    1.2088    0.0000 C   0  0  0  0  0  0  0  0  0  0  0  0
    2.1420    1.9803    0.0000 C   0  0  0  0  0  0  0  0  0  0  0  0
  1  2  1  0
  2  3  1  0
  3  4  2  0
  4  5  1  0
  5  6  1  0
  6  7  2  0
  7  8  1  0
  8  9  2  0
  9 10  1  0
 10 11  2  0
 11 12  1  0
 12 13  1  0
 13 14  2  0
 13 15  1  0
 15 16  2  0
 11  3  1  0
  8  4  1  0
 16 10  1  0
M  END
>  <identifier>  (1896) 
CNP0214931.0

>  <canonical_smiles>  (1896) 
COC1=C2OC=CC2=CC2=C1OC(=O)C=C2

>  <standard_inchi>  (1896) 
InChI=1S/C12H8O4/c1-14-12-10-8(4-5-15-10)6-7-2-3-9(13)16-11(7)12/h2-6H,1H3

>  <standard_inchi_key>  (1896) 
QXKHYNVANLEOEG-UHFFFAOYSA-N

>  <name>  (1896) 
methoxsalen

>  <iupac_name>  (1896) 
9-methoxyfuro[3,2-g]chromen-7-one

>  <annotation_level>  (1896) 
5

>  <total_atom_count>  (1896) 
24

>  <heavy_atom_count>  (1896) 
16

>  <molecular_weight>  (1896) 
216.19

>  <exact_molecular_weight>  (1896) 
216.04226

>  <molecular_formula>  (1896) 
C12H8O4

>  <alogp>  (1896) 
2.55

>  <topological_polar_surface_area>  (1896) 
52.58

>  <rotatable_bond_count>  (1896) 
1

>  <hydrogen_bond_acceptors>  (1896) 
4

>  <hydrogen_bond_donors>  (1896) 
0

>  <hydrogen_bond_acceptors_lipinski>  (1896) 
4

>  <hydrogen_bond_donors_lipinski>  (1896) 
0

>  <lipinski_rule_of_five_violations>  (1896) 
0

>  <aromatic_rings_count>  (1896) 
3

>  <qed_drug_likeliness>  (1896) 
0.59

>  <formal_charge>  (1896) 
0

>  <fractioncsp3>  (1896) 
0.08

>  <number_of_minimal_rings>  (1896) 
3

>  <van_der_walls_volume>  (1896) 
177.65

>  <contains_sugar>  (1896) 
False

>  <contains_ring_sugars>  (1896) 
False

>  <contains_linear_sugars>  (1896) 
False

>  <murcko_framework>  (1896) 
o1ccc2cc3C=CCOc3cc12

>  <np_likeness>  (1896) 
1.26

>  <chemical_class>  (1896) 
Coumarins and derivatives

>  <chemical_sub_class>  (1896) 
Furanocoumarins

>  <chemical_super_class>  (1896) 
Phenylpropanoids and polyketides

>  <direct_parent_classification>  (1896) 
8-methoxypsoralens

>  <np_classifier_pathway>  (1896) 
Shikimates and Phenylpropanoids

>  <np_classifier_superclass>  (1896) 
Coumarins

>  <np_classifier_class>  (1896) 
Furocoumarins

>  <np_classifier_is_glycoside>  (1896) 
False

>  <organisms>  (1896) 
Acanthus montanus|Acronychia baeuerlenii|Aegle marmelos|Afraegle paniculata|Ageratina saltillensis|Ajania fastigiata|Ambrosia arborescens|Ammi majus|Ammi majus L.|Ammi visnaga|Anethum graveolens|Angelica Pubescens|Angelica acutiloba|Angelica archangelica|Angelica biserrata|Angelica dahurica|Angelica decursiva|Angelica gigas|Angelica japonica|Angelica keiskei|Angelica officinalis|Angelica pubescens|Angelica pubescens f.biserrata|Angelica sinensis|Angelica sp.Carum sp.|Angelica sylvestris L.|Angelica taiwaniana|Angelica talwaniana|Angelica tarokoensis|Angelica ursina|Angelica ursina Maxim|Annona haematantha|Anthriscus sylvestris (L.) Hoffm.|Antidesma membranaceum|Apium Graveolens|Apium graveolens|Apium graveolens L.|Arabidopsis thaliana|Aralia continentalis|Arracacia tolucensis|Ashitaba|Asterolasia phebalioides|Asterolasia trymalioides|Astragalus zahlbruckneri|Atalantia ceylanica|Atalantia racemosa|Axinella cannabina|Axinella polycapella|Azotobacter chroococcum|Bidens pilosa|Bituminaria bituminosa|Boenninghausenia albiflora|Cachrys sicula|Campylotropis hirtella|Caragana frutex|Caragana spinosa|Carassius auratus|Carum carvi|Carum montanum|Cirsium canum|Citrus sp.|Clausena anisata|Cnidium Monnieri|Cnidium monieri|Cnidium monnieri|Conium sp.|Coriandrum sativum|Cornicularia normoerica|Coussarea paniculata|Crocodylus niloticus|Cryptodiscus didymus|Cullen corylifolia|Cullen corylifolium|Cullen drupaceum|Cuminum cyminum|Cystoseira caespitosa|Daucus carota|Deverra tortuosa|Dictamnus albus|Dictamnus albus L.|Dictamnus dasycarpus|Dictamnus hispanicus|Dictamnus sp.|Dinosperma melanophloium|Diplotaenia damavandica|Dystaenia takesimana|Earias insulana|Eleutherococcus senticosus|Eriosema kraussianum|Esenbeckia grandiflora|Esenbeckia hartmanii|Esperiopsis edwardii|Eunicea pinta|Fagara mayu|Fagara sp|Fagara sp.|Fagara spp.|Feronia limonia|Feroniella lucida|Ferula lutea|Ferula moschata|Ferula sumbul|Ferulago lutea|Ficus carica L.|Ficus elastica Roxb.|Ficus sp.|Foeniculum sp.|Foeniculum vulgare|Fructus psoraleae corylifoliae|Garcinia parvifolia|Glehnia littoralis|Gloeophyllum sepiarium|Grewia villosa|Heracleum asperum|Heracleum canescens|Heracleum dissectum|Heracleum granatense|Heracleum grandiflorum|Heracleum lanatum|Heracleum leskovii|Heracleum mantegazzianum|Heracleum mantegazzianum Sommier & Levier|Heracleum maximum|Heracleum moellendorffii|Heracleum moellendorffii Hance|Heracleum moellendorffii Hance var.paucivitatum|Heracleum moellendorffii var. paucivittatum|Heracleum persicum (Fisch.) Desf.|Heracleum pinnatum|Heracleum ponticum|Heracleum sosnowskyi Manden.|Heracleum sp.|Heracleum sphondylium|Heracleum sphondylium L. s.l. (H. sphondylium L. s.str., H. sphondylium subsp. alpinum (L.) Bonnier & Layens, H. sphondylium subsp. elegans (Crantz) Schuebl. & G. Martens and H. sphondylium  subsp. pyrenaicum (Lam.) Bonnier & Layens)|Heracleum woroschiklowii|Heracleum yungningense|Hortia oreadica|Hydrocotyle leucocephala|Hygrophila spinosa|Hymenocallis speciosa|Hypholoma capnoides|Hypoxylon carneum|Hypoxylon sclerophaeum|Indian beech tree|Kniphofia tuckii|Lactarius deliciosus var. deterrimus|Leionema ambiens|Leonurus heterophyllus|Leptothyrsa sprucei|Levisticum officinale|Ligularia pleurocaulis|Ligusticum multivittatum|Limonia acidissima|Lonchocarpus salvadorensis|Macaranga denticulata|Macrococculus pomiferus|Magydaris pastinacea|Metrodorea flavida|Metrodorea nigra|Murraya koenigii|Myelois cribrella|Nierembergia hippomanica|Nigritella suaveolens|Niphogeton ternata|Nocardia brasiliensis|Notobubon galbanum|Odontosyllis undecimdonta|Ophioglossum petiolatum|Opopanax chironium|Oppopanax chironium|Opuntia vulgaris|Oreoseris delavayi|Orixa japonica|Oyedaea verbesinoides|Pamburus missionis|Pasinaca sativa|Pastinaca sativa|Pastinaca sativa L.|Pastinaca sp.|Patrinia villosa|Petroselinum Crispum|Petroselinum crispum|Petroselinum crispum (Mill.) Fuss|Petroselinum sp.|Peucedanum austriacum (Jacq.) W. D. J. Koch s.l.|Peucedanum carvifolia Vill.|Peucedanum cervaria (L.) Lapeyr.|Peucedanum japonicum|Peucedanum officinale|Peucedanum oreoselinum (L.) Moench|Peucedanum palustre (L.) Moench|Peucedanum praeruptorum|Peucedanum ruthenicum|Peucedanum venetum (Spreng.) W. D. J. Koch|Peucedanum verticillare (L.) Mert. & W. D. J. Koch|Phebalium anceps|Phebalium canaliculatum|Phebalium filifolium|Phebalium squamulosum|Phellodendron chinense|Pilocarpus goudotianus|Pimpinella anisum|Pimpinella nigra Mill.|Pimpinella peregrina L.|Pimpinella saxifraga L.|Pimpinella sp.|Pinus krempfii|Pinus peuce|Piper hancei|Pleurospermum rivulorum|Podocarpus henckelii|Prangos ferulacea|Prangos lipskyi|Prangos tschimganica|Prangos uloptera|Psilopeganum sinense|Psoralea Corylifolia|Psoralea corylifolia|Pyrola calliantha|Quercus sessilis|Radix adenophorae|Rapanea umbellata|Rhadinothamnus anceps|Rhadinothamnus rudis|Rosa transmorrisonensis|Ruta|Ruta chalepensis|Ruta corsica|Ruta graveolens|Ruta graveolens L.|Ruta montana|Ruta pinnata|Ruta sp|Ruta sp.|Ruta spp.|Salta triflora|Salvia lasiantha|Salvia polystachya|Saposhnikovia divaricata|Saposhnikovia divaricata Schischkin|Schenkia spicata|Seseli buchtormense|Seseli elatum|Seseli mucronatum|Seseli tortuosum|Seseli tortuosum LBS.Eur.|Seseli webbii Cosson.|Sideritis syriaca|Sideritis taurica|Skimmia japonica|Skimmia laureola|Solanum berthaultii|Sphoeroides vermicularis|Stauranthus perforatus|Streptomyces chryseus|Tetradium daniellii|Thamnosma texana|Thermus thermophilus|Tordyliopsis brunonis|Tordylium apulum|Torilis japonica|Trachyopsis halichondrioides|Trichocline caulescens|Trichocline sinuata|Trifoliate orange|Trifolium montanum|Trixis inula|Ulosa spongia|Vicia sativa|Zanthoxylum americanum|Zanthoxylum echinocarpum|Zanthoxylum mayu|Zanthoxylum sp.|Zanthoxylum spinosum|Zanthoxylum zanthoxyloides|garden chervil|maize|parsley

>  <collections>  (1896) 
ANPDB|AnalytiCon Discovery NPs|Australian natural products|BIOFACQUIM|BitterDB|CMAUP (cCollective molecular activities of useful plants)|ChEBI NPs|DrugBankNP|ETM (Ethiopian Traditional Medicine) DB|FooDB|GNPS (Global Natural Products Social Molecular Networking)|HIM (Herbal Ingredients in-vivo Metabolism database)|InterBioScreen Ltd|KNApSaCK|Latin America dataset|NANPDB (Natural Products from Northern African Sources)|NCI DTP data|NPASS|NPCARE|NPEdia|NuBBEDB|Phenol-explorer|Phyto4Health|PhytoLab phyproof® Reference Substances|PubChem NPs|Specs Natural Products|Super Natural II|TCMDB-Taiwan (Traditional Chinese Medicine database)|TCMID (Traditional Chinese Medicine Integrated Database)|TIPdb (database of Taiwan indigenous plants)|TPPT (Toxic Plants–PhytoToxins)|UNPD (Universal Natural Products Database)|VietHerb|WikiData Natural Products|ZINC NP

>  <dois>  (1896) 
10.1002/(SICI)1099-1565(199909/10)10:5<268::AID-PCA467>3.0.CO;2-Z|10.1002/(SICI)1099-1573(1998)12:1+<S25::AID-PTR239>3.0.CO;2-N|10.1002/9780470744307.gat218|10.1002/CHIN.200047207|10.1002/CHIN.200333216|10.1002/HLCA.19970800507|10.1002/HLCA.201000017|10.1002/JCCS.197000012|10.1002/JCCS.200300024|10.1002/JHRC.1240181213|10.1002/PCA.2800030108|10.1002/PCA.687|10.1002/PTR.2650040604|10.1002/PTR.2650080409|10.1002/RCM.3559|10.1002/RECL.19680870808|10.1002/biuz.19840140514|10.1002/food.19880321030|10.1007/BF00391272|10.1007/BF00563460|10.1007/BF00563962|10.1007/BF00566351|10.1007/BF00569816|10.1007/BF00570686|10.1007/BF00575186|10.1007/BF00575725|10.1007/BF00579494|10.1007/BF00580082|10.1007/BF00598366|10.1007/BF00600845|10.1007/BF00630133|10.1007/BF00993729|10.1007/BF01014095|10.1007/BF01016480|10.1007/BF01134615|10.1007/BF01946434|10.1007/BF02066241|10.1007/BF02098388|10.1007/BF02249699|10.1007/BF02968244|10.1007/BF02975883|10.1007/BF02976373|10.1007/BF02976999|10.1007/PL00010251|10.1007/S007060050230|10.1007/S10600-012-0124-5|10.1016/0031-9422(73)80515-1|10.1016/0031-9422(75)85267-8|10.1016/0031-9422(83)80173-3|10.1016/0031-9422(86)88019-0|10.1016/0031-9422(88)80276-0|10.1016/0031-9422(88)80782-9|10.1016/0031-9422(89)80056-1|10.1016/0031-9422(89)80215-8|10.1016/0031-9422(90)85357-L|10.1016/0031-9422(90)85390-2|10.1016/0031-9422(92)83450-D|10.1016/0031-9422(95)00125-Q|10.1016/0031-9422(95)00504-Z|10.1016/0031-9422(95)00564-1|10.1016/0031-9422(95)00625-7|10.1016/0031-9422(96)00232-4|10.1016/0041-5553(76)90065-3|10.1016/0098-8472(91)90043-N|10.1016/0278-6915(83)90231-4|10.1016/0305-1978(88)90011-7|10.1016/0305-1978(88)90076-2|10.1016/0305-1978(94)90036-1|10.1016/0960-894X(96)00315-0|10.1016/J.BMC.2009.04.023|10.1016/J.BMCL.2013.04.081|10.1016/J.BSE.2004.12.020|10.1016/J.BSE.2006.02.007|10.1016/J.CHROMA.2010.04.076|10.1016/J.FITOTE.2003.08.004|10.1016/J.FITOTE.2003.12.014|10.1016/J.FITOTE.2007.04.004|10.1016/J.FOODCHEM.2011.09.099|10.1016/J.JEP.2007.05.015|10.1016/J.JHAZMAT.2018.11.065|10.1016/J.JPBA.2007.03.011|10.1016/J.PHYMED.2003.12.005|10.1016/S0021-9673(00)00321-6|10.1016/S0021-9673(01)84214-X|10.1016/S0031-9422(00)00407-6|10.1016/S0031-9422(00)80348-9|10.1016/S0031-9422(00)81503-4|10.1016/S0031-9422(00)81759-8|10.1016/S0031-9422(00)81908-1|10.1016/S0031-9422(00)82233-5|10.1016/S0031-9422(00)83503-7|10.1016/S0031-9422(00)84549-5|10.1016/S0031-9422(00)84993-6|10.1016/S0031-9422(00)85511-9|10.1016/S0031-9422(00)85512-0|10.1016/S0031-9422(00)90453-9|10.1016/S0031-9422(00)90455-2|10.1016/S0031-9422(00)94506-0|10.1016/S0031-9422(00)97421-1|10.1016/S0031-9422(00)98112-3|10.1016/S0031-9422(01)00248-5|10.1016/S0031-9422(01)00423-X|10.1016/S0031-9422(02)00748-3|10.1016/S0031-9422(97)00123-4|10.1016/S0031-9422(97)00528-1|10.1016/S0031-9422(98)00018-1|10.1016/S0031-9422(98)00638-4|10.1016/S0031-9422(98)00650-5|10.1016/S0031-9422(99)00486-0|10.1016/S0031-9422(99)00554-3|10.1016/S0040-4039(00)72373-2|10.1016/S0168-9452(01)00597-0|10.1016/S0254-6299(16)30778-5|10.1016/S0305-1978(01)00104-1|10.1016/S0305-1978(96)00067-1|10.1016/S0305-1978(97)00116-6|10.1016/S0305-1978(98)00107-0|10.1016/S0367-326X(02)00083-7|10.1016/S0367-326X(02)00211-3|10.1016/S0367-326X(02)00313-1|10.1016/S0367-326X(99)00163-X|10.1016/S0378-8741(02)00172-1|10.1016/j.bmcl.2013.04.081|10.1016/j.bmcl.2015.04.003|10.1016/j.jep.2007.05.015|10.1021/JA01166A523|10.1021/JF00029A027|10.1021/JF00089A050|10.1021/JF00111A001|10.1021/JF0259361|10.1021/JF0497049|10.1021/JF0497298|10.1021/JF60220A023|10.1021/NP000441W|10.1021/NP0340652|10.1021/NP058080D|10.1021/NP50039A030|10.1021/NP50046A035|10.1021/NP50050A046|10.1021/NP50053A050|10.1021/NP50059A021|10.1021/NP50059A040|10.1021/NP50067A034|10.1021/NP50113A012|10.1021/NP990522W|10.1021/acs.jnatprod.9b00547|10.1021/jf0259361|10.1021/np058080d|10.1021/np50001a005|10.1039/c7md00388a|10.1055/S-2000-8595|10.1055/S-2001-12013|10.1055/S-2003-45188|10.1055/S-2006-957507|10.1055/S-2006-957872|10.1055/S-2006-957985|10.1055/S-2006-957987|10.1055/S-2006-958144|10.1055/S-2006-959710|10.1055/S-2006-960082|10.1055/S-2006-960965|10.1055/S-2006-962141|10.1055/S-2006-962473|10.1055/S-2007-969171|10.1055/S-2007-969254|10.1055/S-2008-1074910|10.1076/1388-0209(200009)3841-AFT308|10.1076/PHBI.37.2.161.6080|10.1080/00021369.1977.10862665|10.1080/10286020.2011.572878|10.1080/15287398409530517|10.1093/JAOAC/84.4.1135|10.1094/PHYTO-79-170|10.1104/PP.104.1.67|10.1111/J.1432-1033.1983.TB07277.X|10.1111/J.1432-1033.2004.03995.X|10.1111/J.1600-0536.1989.TB04747.X|10.1111/J.2042-7158.1950.TB12975.X|10.1111/j.1432-1033.2004.03995.x|10.1135/CCCC19861509|10.1139/B00-112|10.1139/B89-120|10.1139/B91-065|10.1139/B91-212|10.1139/B93-109|10.1186/2191-2858-2-1|10.1248/BPB.24.1012|10.1248/BPB.28.1229|10.1248/CPB.28.1782|10.1248/CPB.28.1847|10.1248/CPB.29.2565|10.1248/CPB.38.1084|10.1248/CPB.47.96|10.1248/CPB.49.154|10.1248/CPB.49.877|10.1248/CPB.50.115|10.1248/CPB.53.701|10.1248/CPB.54.897|10.1248/CPB.56.1338|10.1248/YAKUSHI1947.103.10_1091|10.1271/BBB.80859|10.1271/BBB1961.41.1263|10.1271/BBB1961.54.2141|10.1371/journal.pone.0019825|10.1515/ZNB-2005-0514|10.1590/S0102-695X2008000100002|10.1590/S0103-50532003000100008|10.1590/S0103-50532011000100024|10.3390/MOLECULES16086339|10.3390/MOLECULES190812031|10.4268/CJCMM20101214|10.4315/0362-028X-60.1.72|10.5012/JKCS.2010.54.6.701|10.5586/ASBP.1997.039

>  <synonyms>  (1896) 
nan

>  <cas>  (1896) 
298-81-7|12692-94-3

$$$$

     RDKit          2D

 36 40  0  0  0  0  0  0  0  0999 V2000
    5.7132   -4.5869    0.0000 C   0  0  0  0  0  0  0  0  0  0  0  0
    5.8005   -3.0894    0.0000 O   0  0  0  0  0  0  0  0  0  0  0  0
    4.5472   -2.2651    0.0000 C   0  0  0  0  0  0  0  0  0  0  0  0
    3.2068   -2.9383    0.0000 O   0  0  0  0  0  0  0  0  0  0  0  0
    4.6345   -0.7677    0.0000 C   0  0  0  0  0  0  0  0  0  0  0  0
    6.0940   -1.1136    0.0000 C   0  0  0  0  0  0  0  0  0  0  0  0
    3.1446   -0.9418    0.0000 C   0  0  0  0  0  0  0  0  0  0  0  0
    2.2489    0.2614    0.0000 C   0  0  0  0  0  0  0  0  0  0  0  0
    2.8430    1.6387    0.0000 C   0  0  0  0  0  0  0  0  0  0  0  0
    3.4371    3.0160    0.0000 C   0  0  0  0  0  0  0  0  0  0  0  0
    1.9473    2.8419    0.0000 C   0  0  0  0  0  0  0  0  0  0  0  0
    0.4574    2.6678    0.0000 C   0  0  0  0  0  0  0  0  0  0  0  0
   -0.4383    3.8710    0.0000 C   0  0  0  0  0  0  0  0  0  0  0  0
   -0.1367    1.2905    0.0000 C   0  0  0  0  0  0  0  0  0  0  0  0
   -1.6266    1.1163    0.0000 C   0  0  0  0  0  0  0  0  0  0  0  0
   -2.5223    2.3195    0.0000 C   0  0  0  0  0  0  0  0  0  0  0  0
   -4.0122    2.1454    0.0000 C   0  0  0  0  0  0  0  0  0  0  0  0
   -4.6063    0.7681    0.0000 C   0  0  0  0  0  0  0  0  0  0  0  0
   -3.7106   -0.4351    0.0000 C   0  0  0  0  0  0  0  0  0  0  0  0
   -4.3047   -1.8125    0.0000 C   0  0  0  0  0  0  0  0  0  0  0  0
   -5.7946   -1.9866    0.0000 C   0  0  0  0  0  0  0  0  0  0  0  0
   -6.3887   -3.3639    0.0000 O   0  0  0  0  0  0  0  0  0  0  0  0
   -6.6903   -0.7834    0.0000 C   0  0  0  0  0  0  0  0  0  0  0  0
   -8.1801   -0.9575    0.0000 O   0  0  0  0  0  0  0  0  0  0  0  0
   -6.0962    0.5939    0.0000 C   0  0  0  0  0  0  0  0  0  0  0  0
   -6.9919    1.7971    0.0000 C   0  0  0  0  0  0  0  0  0  0  0  0
   -2.2207   -0.2610    0.0000 C   0  0  0  0  0  0  0  0  0  0  0  0
   -2.8148   -1.6383    0.0000 C   0  0  0  0  0  0  0  0  0  0  0  0
   -1.3250   -1.4642    0.0000 C   0  0  0  0  0  0  0  0  0  0  0  0
    0.1649   -1.2901    0.0000 C   0  0  0  0  0  0  0  0  0  0  0  0
    0.7590    0.0873    0.0000 C   0  0  0  0  0  0  0  0  0  0  0  0
    1.6547   -1.1159    0.0000 C   0  0  0  0  0  0  0  0  0  0  0  0
    4.3329    1.8128    0.0000 C   0  0  0  0  0  0  0  0  0  0  0  0
    4.9270    3.1902    0.0000 O   0  0  0  0  0  0  0  0  0  0  0  0
    5.2286    0.6097    0.0000 C   0  0  0  0  0  0  0  0  0  0  0  0
    6.7184    0.7838    0.0000 O   0  0  0  0  0  0  0  0  0  0  0  0
  1  2  1  0
  2  3  1  0
  3  4  2  0
  3  5  1  0
  5  6  1  6
  5  7  1  0
  8  7  1  1
  8  9  1  0
  9 10  1  6
  9 11  1  0
 11 12  1  0
 12 13  1  0
 12 14  2  0
 14 15  1  0
 15 16  2  0
 16 17  1  0
 17 18  2  0
 18 19  1  0
 19 20  2  0
 20 21  1  0
 21 22  2  0
 21 23  1  0
 23 24  1  0
 23 25  2  0
 25 26  1  0
 19 27  1  0
 27 28  1  6
 27 29  1  0
 29 30  1  0
 30 31  1  0
 31 32  1  1
  9 33  1  0
 33 34  2  0
 33 35  1  0
 35 36  1  6
 35  5  1  0
 31  8  1  0
 31 14  1  0
 27 15  1  0
 25 18  1  0
M  END
>  <identifier>  (1897) 
CNP0287896.1

>  <canonical_smiles>  (1897) 
COC(=O)[C@@]1(C)C[C@@H]2[C@@](C)(CC(C)=C3C4=CC=C5C(=CC(=O)C(O)=C5C)[C@]4(C)CC[C@]32C)C(=O)[C@@H]1O

>  <standard_inchi>  (1897) 
InChI=1S/C30H36O6/c1-15-13-29(5)21(14-30(6,26(35)36-7)25(34)24(29)33)28(4)11-10-27(3)18(22(15)28)9-8-17-16(2)23(32)20(31)12-19(17)27/h8-9,12,21,25,32,34H,10-11,13-14H2,1-7H3/t21-,25-,27+,28-,29+,30-/m0/s1

>  <standard_inchi_key>  (1897) 
JBKXDADFFNVBTG-ZYWUOJASSA-N

>  <name>  (1897) 
methyl (2S,3R,4aR,6aS,14aS,14bS)-3,10-dihydroxy-2,4a,6,6a,9,14a-hexamethyl-4,11-dioxo-1,3,5,13,14,14b-hexahydropicene-2-carboxylate

>  <iupac_name>  (1897) 
methyl (2~{S},3~{R},4~{a}~{R},6~{a}~{S},14~{a}~{S},14~{b}~{S})-3,10-dihydroxy-2,4~{a},6,6~{a},9,14~{a}-hexamethyl-4,11-dioxo-1,3,5,13,14,14~{b}-hexahydropicene-2-carboxylate

>  <annotation_level>  (1897) 
5

>  <total_atom_count>  (1897) 
72

>  <heavy_atom_count>  (1897) 
36

>  <molecular_weight>  (1897) 
492.61

>  <exact_molecular_weight>  (1897) 
492.25119

>  <molecular_formula>  (1897) 
C30H36O6

>  <alogp>  (1897) 
4.86

>  <topological_polar_surface_area>  (1897) 
100.90

>  <rotatable_bond_count>  (1897) 
1

>  <hydrogen_bond_acceptors>  (1897) 
6

>  <hydrogen_bond_donors>  (1897) 
2

>  <hydrogen_bond_acceptors_lipinski>  (1897) 
6

>  <hydrogen_bond_donors_lipinski>  (1897) 
2

>  <lipinski_rule_of_five_violations>  (1897) 
0

>  <aromatic_rings_count>  (1897) 
0

>  <qed_drug_likeliness>  (1897) 
0.51

>  <formal_charge>  (1897) 
0

>  <fractioncsp3>  (1897) 
0.57

>  <number_of_minimal_rings>  (1897) 
5

>  <van_der_walls_volume>  (1897) 
452.72

>  <contains_sugar>  (1897) 
False

>  <contains_ring_sugars>  (1897) 
False

>  <contains_linear_sugars>  (1897) 
False

>  <murcko_framework>  (1897) 
C=1C=C2C3=CCC4CCCCC4C3CCC2C5=CCC=CC15

>  <np_likeness>  (1897) 
2.94

>  <chemical_class>  (1897) 
Steroids and steroid derivatives

>  <chemical_sub_class>  (1897) 
Hydroxysteroids

>  <chemical_super_class>  (1897) 
Lipids and lipid-like molecules

>  <direct_parent_classification>  (1897) 
3-hydroxysteroids

>  <np_classifier_pathway>  (1897) 
Terpenoids

>  <np_classifier_superclass>  (1897) 
Triterpenoids

>  <np_classifier_class>  (1897) 
nan

>  <np_classifier_is_glycoside>  (1897) 
False

>  <organisms>  (1897) 
Cheiloclinium cognatum|Orthosphenia mexicana|Peritassa campestris

>  <collections>  (1897) 
ChemSpider NPs|Latin America dataset|NuBBEDB|Super Natural II|WikiData Natural Products|ZINC NP

>  <dois>  (1897) 
10.1016/0031-9422(88)83123-6|10.1016/J.PHYTOCHEM.2004.03.039|10.1016/S0031-9422(00)00285-5|10.1016/S0040-4039(00)88088-0|10.1016/j.phytochem.2004.03.039|10.1021/NP50066A028

>  <synonyms>  (1897) 
Netzahualcoyone

>  <cas>  (1897) 
nan

$$$$

     RDKit          2D

 25 27  0  0  0  0  0  0  0  0999 V2000
   -2.3351    3.8926    0.0000 C   0  0  0  0  0  0  0  0  0  0  0  0
   -3.2177    2.6797    0.0000 C   0  0  0  0  0  0  0  0  0  0  0  0
   -2.6087    1.3089    0.0000 C   0  0  0  0  0  0  0  0  0  0  0  0
   -4.0644    0.9472    0.0000 C   0  0  0  0  0  0  0  0  0  0  0  0
   -1.3645    2.1467    0.0000 C   0  0  0  0  0  0  0  0  0  0  0  0
   -0.0168    1.4881    0.0000 C   0  0  0  0  0  0  0  0  0  0  0  0
    0.0867   -0.0083    0.0000 C   0  0  0  0  0  0  0  0  0  0  0  0
   -1.1576   -0.8461    0.0000 C   0  0  0  0  0  0  0  0  0  0  0  0
   -2.5052   -0.1875    0.0000 C   0  0  0  0  0  0  0  0  0  0  0  0
   -3.7495   -1.0253    0.0000 O   0  0  0  0  0  0  0  0  0  0  0  0
   -3.6460   -2.5217    0.0000 C   0  0  0  0  0  0  0  0  0  0  0  0
   -4.8902   -3.3595    0.0000 C   0  0  0  0  0  0  0  0  0  0  0  0
   -2.2983   -3.1804    0.0000 O   0  0  0  0  0  0  0  0  0  0  0  0
    1.4343   -0.6669    0.0000 C   0  0  0  0  0  0  0  0  0  0  0  0
    0.1901   -1.5047    0.0000 C   0  0  0  0  0  0  0  0  0  0  0  0
    1.5378   -2.1634    0.0000 C   0  0  0  0  0  0  0  0  0  0  0  0
    2.8855   -2.8220    0.0000 C   0  0  0  0  0  0  0  0  0  0  0  0
    4.1297   -1.9842    0.0000 C   0  0  0  0  0  0  0  0  0  0  0  0
    4.0262   -0.4877    0.0000 C   0  0  0  0  0  0  0  0  0  0  0  0
    4.4408    0.9538    0.0000 C   0  0  0  0  0  0  0  0  0  0  0  0
    5.5179   -0.6457    0.0000 C   0  0  0  0  0  0  0  0  0  0  0  0
    2.6785    0.1709    0.0000 C   0  0  0  0  0  0  0  0  0  0  0  0
    2.5751    1.6673    0.0000 C   0  0  0  0  0  0  0  0  0  0  0  0
    1.2274    2.3259    0.0000 C   0  0  0  0  0  0  0  0  0  0  0  0
    1.1240    3.8224    0.0000 O   0  0  0  0  0  0  0  0  0  0  0  0
  1  2  2  0
  2  3  1  0
  3  4  1  1
  3  5  1  0
  5  6  1  0
  6  7  2  0
  7  8  1  0
  8  9  1  0
  9 10  1  1
 10 11  1  0
 11 12  1  0
 11 13  2  0
  7 14  1  0
 14 15  1  1
 14 16  1  0
 16 17  1  0
 17 18  1  0
 18 19  1  0
 19 20  1  0
 19 21  1  0
 19 22  1  0
 22 23  1  1
 23 24  1  0
 24 25  2  0
  9  3  1  0
 22 14  1  0
 24  6  1  0
M  END
>  <identifier>  (1898) 
CNP0080609.1

>  <canonical_smiles>  (1898) 
C=C[C@]1(C)CC2=C(C[C@H]1OC(C)=O)[C@@]1(C)CCCC(C)(C)[C@@H]1CC2=O

>  <standard_inchi>  (1898) 
InChI=1S/C22H32O3/c1-7-21(5)13-15-16(11-19(21)25-14(2)23)22(6)10-8-9-20(3,4)18(22)12-17(15)24/h7,18-19H,1,8-13H2,2-6H3/t18-,19+,21+,22+/m0/s1

>  <standard_inchi_key>  (1898) 
QSGPAMWFRMOPST-YVNJGZBMSA-N

>  <name>  (1898) 
nan

>  <iupac_name>  (1898) 
[(2~{S},3~{R},4~{b}~{S},8~{a}~{S})-2,4~{b},8,8-tetramethyl-10-oxo-2-vinyl-1,3,4,5,6,7,8~{a},9-octahydrophenanthren-3-yl] acetate

>  <annotation_level>  (1898) 
3

>  <total_atom_count>  (1898) 
57

>  <heavy_atom_count>  (1898) 
25

>  <molecular_weight>  (1898) 
344.5

>  <exact_molecular_weight>  (1898) 
344.23514

>  <molecular_formula>  (1898) 
C22H32O3

>  <alogp>  (1898) 
5.01

>  <topological_polar_surface_area>  (1898) 
43.37

>  <rotatable_bond_count>  (1898) 
2

>  <hydrogen_bond_acceptors>  (1898) 
3

>  <hydrogen_bond_donors>  (1898) 
0

>  <hydrogen_bond_acceptors_lipinski>  (1898) 
3

>  <hydrogen_bond_donors_lipinski>  (1898) 
0

>  <lipinski_rule_of_five_violations>  (1898) 
1

>  <aromatic_rings_count>  (1898) 
0

>  <qed_drug_likeliness>  (1898) 
0.52

>  <formal_charge>  (1898) 
0

>  <fractioncsp3>  (1898) 
0.73

>  <number_of_minimal_rings>  (1898) 
3

>  <van_der_walls_volume>  (1898) 
nan

>  <contains_sugar>  (1898) 
False

>  <contains_ring_sugars>  (1898) 
False

>  <contains_linear_sugars>  (1898) 
False

>  <murcko_framework>  (1898) 
C12=C(CCCC1)C3CCCCC3CC2

>  <np_likeness>  (1898) 
2.92

>  <chemical_class>  (1898) 
Prenol lipids

>  <chemical_sub_class>  (1898) 
Diterpenoids

>  <chemical_super_class>  (1898) 
Lipids and lipid-like molecules

>  <direct_parent_classification>  (1898) 
Diterpenoids

>  <np_classifier_pathway>  (1898) 
Terpenoids

>  <np_classifier_superclass>  (1898) 
Diterpenoids

>  <np_classifier_class>  (1898) 
Pimarane and Isopimarane diterpenoids

>  <np_classifier_is_glycoside>  (1898) 
False

>  <organisms>  (1898) 
Vellozia compacta

>  <collections>  (1898) 
Latin America dataset|NuBBEDB|WikiData Natural Products|ZINC NP

>  <dois>  (1898) 
10.1016/0031-9422(83)80034-X

>  <synonyms>  (1898) 
nan

>  <cas>  (1898) 
nan

$$$$

     RDKit          2D

 17 18  0  0  0  0  0  0  0  0999 V2000
   -3.0912   -2.6466    0.0000 C   0  0  0  0  0  0  0  0  0  0  0  0
   -2.7326   -1.1901    0.0000 C   0  0  0  0  0  0  0  0  0  0  0  0
   -3.8146   -0.1513    0.0000 C   0  0  0  0  0  0  0  0  0  0  0  0
   -3.4561    1.3052    0.0000 C   0  0  0  0  0  0  0  0  0  0  0  0
   -2.0154    1.7229    0.0000 C   0  0  0  0  0  0  0  0  0  0  0  0
   -1.6568    3.1794    0.0000 C   0  0  0  0  0  0  0  0  0  0  0  0
   -0.9333    0.6841    0.0000 C   0  0  0  0  0  0  0  0  0  0  0  0
    0.5074    1.1018    0.0000 C   0  0  0  0  0  0  0  0  0  0  0  0
    1.5894    0.0630    0.0000 C   0  0  0  0  0  0  0  0  0  0  0  0
    3.0301    0.4807    0.0000 C   0  0  0  0  0  0  0  0  0  0  0  0
    2.6124    1.9214    0.0000 C   0  0  0  0  0  0  0  0  0  0  0  0
    3.4478   -0.9599    0.0000 C   0  0  0  0  0  0  0  0  0  0  0  0
    4.4708    0.8984    0.0000 O   0  0  0  0  0  0  0  0  0  0  0  0
    1.2308   -1.3935    0.0000 C   0  0  0  0  0  0  0  0  0  0  0  0
    2.3129   -2.4323    0.0000 O   0  0  0  0  0  0  0  0  0  0  0  0
   -0.2098   -1.8112    0.0000 C   0  0  0  0  0  0  0  0  0  0  0  0
   -1.2919   -0.7724    0.0000 C   0  0  0  0  0  0  0  0  0  0  0  0
  1  2  1  0
  2  3  2  0
  3  4  1  0
  4  5  2  0
  5  6  1  0
  5  7  1  0
  7  8  2  0
  8  9  1  0
  9 10  1  0
 10 11  1  0
 10 12  1  0
 10 13  1  0
  9 14  2  0
 14 15  1  0
 14 16  1  0
 16 17  2  0
 17  2  1  0
 17  7  1  0
M  END
>  <identifier>  (1899) 
CNP0375822.0

>  <canonical_smiles>  (1899) 
CC1=CC=C(C)C2=CC(C(C)(C)O)=C(O)C=C12

>  <standard_inchi>  (1899) 
InChI=1S/C15H18O2/c1-9-5-6-10(2)12-8-14(16)13(7-11(9)12)15(3,4)17/h5-8,16-17H,1-4H3

>  <standard_inchi_key>  (1899) 
YKSYPXGCQRATJS-UHFFFAOYSA-N

>  <name>  (1899) 
61263-73-8

>  <iupac_name>  (1899) 
3-(1-hydroxy-1-methyl-ethyl)-5,8-dimethyl-naphthalen-2-ol

>  <annotation_level>  (1899) 
5

>  <total_atom_count>  (1899) 
35

>  <heavy_atom_count>  (1899) 
17

>  <molecular_weight>  (1899) 
230.31

>  <exact_molecular_weight>  (1899) 
230.13068

>  <molecular_formula>  (1899) 
C15H18O2

>  <alogp>  (1899) 
3.39

>  <topological_polar_surface_area>  (1899) 
40.46

>  <rotatable_bond_count>  (1899) 
1

>  <hydrogen_bond_acceptors>  (1899) 
2

>  <hydrogen_bond_donors>  (1899) 
2

>  <hydrogen_bond_acceptors_lipinski>  (1899) 
2

>  <hydrogen_bond_donors_lipinski>  (1899) 
2

>  <lipinski_rule_of_five_violations>  (1899) 
0

>  <aromatic_rings_count>  (1899) 
2

>  <qed_drug_likeliness>  (1899) 
0.79

>  <formal_charge>  (1899) 
0

>  <fractioncsp3>  (1899) 
0.33

>  <number_of_minimal_rings>  (1899) 
2

>  <van_der_walls_volume>  (1899) 
223.74

>  <contains_sugar>  (1899) 
False

>  <contains_ring_sugars>  (1899) 
False

>  <contains_linear_sugars>  (1899) 
False

>  <murcko_framework>  (1899) 
c1ccc2ccccc2c1

>  <np_likeness>  (1899) 
0.89

>  <chemical_class>  (1899) 
Naphthalenes

>  <chemical_sub_class>  (1899) 
Naphthols and derivatives

>  <chemical_super_class>  (1899) 
Benzenoids

>  <direct_parent_classification>  (1899) 
Naphthols and derivatives

>  <np_classifier_pathway>  (1899) 
Terpenoids

>  <np_classifier_superclass>  (1899) 
Sesquiterpenoids

>  <np_classifier_class>  (1899) 
Cadinane sesquiterpenoids

>  <np_classifier_is_glycoside>  (1899) 
False

>  <organisms>  (1899) 
Emmotum nitens

>  <collections>  (1899) 
KNApSaCK|Latin America dataset|NPEdia|NuBBEDB|Super Natural II|UNPD (Universal Natural Products Database)|WikiData Natural Products|ZINC NP

>  <dois>  (1899) 
10.1016/0031-9422(76)85091-1

>  <synonyms>  (1899) 
3-(1-Methyl-1-hydroxyethyl)-5,8-dimethylnaphthalene-2-ol|DB-303685|Emmotin G|Emmotin-G

>  <cas>  (1899) 
nan

$$$$

     RDKit          2D

 32 33  0  0  0  0  0  0  0  0999 V2000
   -5.1962   -3.6101    0.0000 C   0  0  0  0  0  0  0  0  0  0  0  0
   -5.1962   -2.1101    0.0000 O   0  0  0  0  0  0  0  0  0  0  0  0
   -3.8971   -1.3601    0.0000 C   0  0  0  0  0  0  0  0  0  0  0  0
   -2.5981   -2.1101    0.0000 C   0  0  0  0  0  0  0  0  0  0  0  0
   -1.2990   -1.3601    0.0000 C   0  0  0  0  0  0  0  0  0  0  0  0
    0.0000   -2.1101    0.0000 O   0  0  0  0  0  0  0  0  0  0  0  0
   -0.1828   -3.5989    0.0000 C   0  0  0  0  0  0  0  0  0  0  0  0
   -1.2990    0.1399    0.0000 C   0  0  0  0  0  0  0  0  0  0  0  0
   -0.0000    0.8899    0.0000 C   0  0  0  0  0  0  0  0  0  0  0  0
   -0.0000    2.3899    0.0000 O   0  0  0  0  0  0  0  0  0  0  0  0
    1.2990    0.1399    0.0000 C   0  0  0  0  0  0  0  0  0  0  0  0
    1.2990   -1.3601    0.0000 C   0  0  0  0  0  0  0  0  0  0  0  0
    0.0000   -2.1101    0.0000 O   0  0  0  0  0  0  0  0  0  0  0  0
    0.1828   -3.5989    0.0000 C   0  0  0  0  0  0  0  0  0  0  0  0
    2.5981   -2.1101    0.0000 C   0  0  0  0  0  0  0  0  0  0  0  0
    3.8971   -1.3601    0.0000 C   0  0  0  0  0  0  0  0  0  0  0  0
    5.1962   -2.1101    0.0000 O   0  0  0  0  0  0  0  0  0  0  0  0
    5.1962   -3.6101    0.0000 C   0  0  0  0  0  0  0  0  0  0  0  0
    3.8971    0.1399    0.0000 C   0  0  0  0  0  0  0  0  0  0  0  0
    5.1962    0.8899    0.0000 C   0  0  0  0  0  0  0  0  0  0  0  0
    2.5981    0.8899    0.0000 C   0  0  0  0  0  0  0  0  0  0  0  0
    2.5981    2.3899    0.0000 O   0  0  0  0  0  0  0  0  0  0  0  0
    3.8971    3.1399    0.0000 C   0  0  0  0  0  0  0  0  0  0  0  0
    3.8971    4.6399    0.0000 C   0  0  0  0  0  0  0  0  0  0  0  0
    5.1962    2.3899    0.0000 O   0  0  0  0  0  0  0  0  0  0  0  0
   -2.5981    0.8899    0.0000 C   0  0  0  0  0  0  0  0  0  0  0  0
   -2.5981    2.3899    0.0000 O   0  0  0  0  0  0  0  0  0  0  0  0
   -3.8971    3.1399    0.0000 C   0  0  0  0  0  0  0  0  0  0  0  0
   -3.8971    4.6399    0.0000 C   0  0  0  0  0  0  0  0  0  0  0  0
   -5.1962    2.3899    0.0000 O   0  0  0  0  0  0  0  0  0  0  0  0
   -3.8971    0.1399    0.0000 C   0  0  0  0  0  0  0  0  0  0  0  0
   -5.1962    0.8899    0.0000 C   0  0  0  0  0  0  0  0  0  0  0  0
  1  2  1  0
  2  3  1  0
  3  4  2  0
  4  5  1  0
  5  6  1  0
  6  7  1  0
  5  8  2  0
  8  9  1  0
  9 10  2  0
  9 11  1  0
 11 12  2  0
 12 13  1  0
 13 14  1  0
 12 15  1  0
 15 16  2  0
 16 17  1  0
 17 18  1  0
 16 19  1  0
 19 20  1  0
 19 21  2  0
 21 22  1  0
 22 23  1  0
 23 24  1  0
 23 25  2  0
  8 26  1  0
 26 27  1  0
 27 28  1  0
 28 29  1  0
 28 30  2  0
 26 31  2  0
 31 32  1  0
 31  3  1  0
 21 11  1  0
M  END
>  <identifier>  (1900) 
CNP0214210.0

>  <canonical_smiles>  (1900) 
COC1=CC(OC)=C(C(=O)C2=C(OC)C=C(OC)C(C)=C2OC(C)=O)C(OC(C)=O)=C1C

>  <standard_inchi>  (1900) 
InChI=1S/C23H26O9/c1-11-15(27-5)9-17(29-7)19(22(11)31-13(3)24)21(26)20-18(30-8)10-16(28-6)12(2)23(20)32-14(4)25/h9-10H,1-8H3

>  <standard_inchi_key>  (1900) 
YCVHMRXQLPBYDW-UHFFFAOYSA-N

>  <name>  (1900) 
nan

>  <iupac_name>  (1900) 
[2-(2-acetoxy-4,6-dimethoxy-3-methyl-benzoyl)-3,5-dimethoxy-6-methyl-phenyl] acetate

>  <annotation_level>  (1900) 
4

>  <total_atom_count>  (1900) 
58

>  <heavy_atom_count>  (1900) 
32

>  <molecular_weight>  (1900) 
446.45

>  <exact_molecular_weight>  (1900) 
446.15768

>  <molecular_formula>  (1900) 
C23H26O9

>  <alogp>  (1900) 
3.42

>  <topological_polar_surface_area>  (1900) 
106.59

>  <rotatable_bond_count>  (1900) 
8

>  <hydrogen_bond_acceptors>  (1900) 
9

>  <hydrogen_bond_donors>  (1900) 
0

>  <hydrogen_bond_acceptors_lipinski>  (1900) 
9

>  <hydrogen_bond_donors_lipinski>  (1900) 
0

>  <lipinski_rule_of_five_violations>  (1900) 
0

>  <aromatic_rings_count>  (1900) 
2

>  <qed_drug_likeliness>  (1900) 
0.34

>  <formal_charge>  (1900) 
0

>  <fractioncsp3>  (1900) 
0.35

>  <number_of_minimal_rings>  (1900) 
2

>  <van_der_walls_volume>  (1900) 
nan

>  <contains_sugar>  (1900) 
False

>  <contains_ring_sugars>  (1900) 
False

>  <contains_linear_sugars>  (1900) 
False

>  <murcko_framework>  (1900) 
c1ccc(cc1)Cc2ccccc2

>  <np_likeness>  (1900) 
0.40

>  <chemical_class>  (1900) 
Benzene and substituted derivatives

>  <chemical_sub_class>  (1900) 
Benzophenones

>  <chemical_super_class>  (1900) 
Benzenoids

>  <direct_parent_classification>  (1900) 
Benzophenones

>  <np_classifier_pathway>  (1900) 
Polyketides

>  <np_classifier_superclass>  (1900) 
Phloroglucinols

>  <np_classifier_class>  (1900) 
Acyl phloroglucinols

>  <np_classifier_is_glycoside>  (1900) 
False

>  <organisms>  (1900) 
Qualea labouriauana

>  <collections>  (1900) 
Latin America dataset|NuBBEDB|WikiData Natural Products|ZINC NP

>  <dois>  (1900) 
10.1016/0031-9422(81)85112-6

>  <synonyms>  (1900) 
22'-Diacetate-44'66'-tetramethoxy-33'-dimethylbenzophenone

>  <cas>  (1900) 
nan

$$$$

     RDKit          2D

 17 19  0  0  0  0  0  0  0  0999 V2000
   -2.8696   -2.4476    0.0000 C   0  0  0  0  0  0  0  0  0  0  0  0
   -2.7839   -0.9501    0.0000 C   0  0  0  0  0  0  0  0  0  0  0  0
   -4.2735   -1.1256    0.0000 C   0  0  0  0  0  0  0  0  0  0  0  0
   -3.2154    0.4865    0.0000 C   0  0  0  0  0  0  0  0  0  0  0  0
   -2.1871    1.5786    0.0000 C   0  0  0  0  0  0  0  0  0  0  0  0
   -0.7272    1.2341    0.0000 C   0  0  0  0  0  0  0  0  0  0  0  0
   -0.2956   -0.2025    0.0000 C   0  0  0  0  0  0  0  0  0  0  0  0
   -1.3240   -1.2946    0.0000 O   0  0  0  0  0  0  0  0  0  0  0  0
    1.1643   -0.5470    0.0000 C   0  0  0  0  0  0  0  0  0  0  0  0
    1.5959   -1.9836    0.0000 C   0  0  0  0  0  0  0  0  0  0  0  0
    3.0558   -2.3281    0.0000 C   0  0  0  0  0  0  0  0  0  0  0  0
    4.0841   -1.2360    0.0000 C   0  0  0  0  0  0  0  0  0  0  0  0
    3.6525    0.2005    0.0000 C   0  0  0  0  0  0  0  0  0  0  0  0
    2.1926    0.5450    0.0000 C   0  0  0  0  0  0  0  0  0  0  0  0
    1.7610    1.9816    0.0000 N   0  0  0  0  0  0  0  0  0  0  0  0
    0.3011    2.3261    0.0000 C   0  0  0  0  0  0  0  0  0  0  0  0
   -0.1305    3.7627    0.0000 O   0  0  0  0  0  0  0  0  0  0  0  0
  1  2  1  0
  2  3  1  0
  2  4  1  0
  4  5  2  0
  5  6  1  0
  6  7  2  0
  7  8  1  0
  7  9  1  0
  9 10  2  0
 10 11  1  0
 11 12  2  0
 12 13  1  0
 13 14  2  0
 14 15  1  0
 15 16  1  0
 16 17  2  0
  8  2  1  0
 14  9  1  0
 16  6  1  0
M  END
>  <identifier>  (1901) 
CNP0289498.0

>  <canonical_smiles>  (1901) 
CC1(C)C=CC2=C(O1)C1=CC=CC=C1NC2=O

>  <standard_inchi>  (1901) 
InChI=1S/C14H13NO2/c1-14(2)8-7-10-12(17-14)9-5-3-4-6-11(9)15-13(10)16/h3-8H,1-2H3,(H,15,16)

>  <standard_inchi_key>  (1901) 
PXNMNABLQWUMCX-UHFFFAOYSA-N

>  <name>  (1901) 
Flindersine

>  <iupac_name>  (1901) 
2,2-dimethyl-6~{H}-pyrano[3,2-c]quinolin-5-one

>  <annotation_level>  (1901) 
5

>  <total_atom_count>  (1901) 
30

>  <heavy_atom_count>  (1901) 
17

>  <molecular_weight>  (1901) 
227.26

>  <exact_molecular_weight>  (1901) 
227.09463

>  <molecular_formula>  (1901) 
C14H13NO2

>  <alogp>  (1901) 
2.71

>  <topological_polar_surface_area>  (1901) 
42.09

>  <rotatable_bond_count>  (1901) 
0

>  <hydrogen_bond_acceptors>  (1901) 
2

>  <hydrogen_bond_donors>  (1901) 
1

>  <hydrogen_bond_acceptors_lipinski>  (1901) 
2

>  <hydrogen_bond_donors_lipinski>  (1901) 
1

>  <lipinski_rule_of_five_violations>  (1901) 
0

>  <aromatic_rings_count>  (1901) 
2

>  <qed_drug_likeliness>  (1901) 
0.75

>  <formal_charge>  (1901) 
0

>  <fractioncsp3>  (1901) 
0.21

>  <number_of_minimal_rings>  (1901) 
3

>  <van_der_walls_volume>  (1901) 
204.56

>  <contains_sugar>  (1901) 
False

>  <contains_ring_sugars>  (1901) 
False

>  <contains_linear_sugars>  (1901) 
False

>  <murcko_framework>  (1901) 
O1C=2c3ccccc3NCC2C=CC1

>  <np_likeness>  (1901) 
1.74

>  <chemical_class>  (1901) 
Quinolines and derivatives

>  <chemical_sub_class>  (1901) 
Quinolones and derivatives

>  <chemical_super_class>  (1901) 
Organoheterocyclic compounds

>  <direct_parent_classification>  (1901) 
Pyranoquinolines

>  <np_classifier_pathway>  (1901) 
Alkaloids

>  <np_classifier_superclass>  (1901) 
Tryptophan alkaloids

>  <np_classifier_class>  (1901) 
Quinoline alkaloids

>  <np_classifier_is_glycoside>  (1901) 
False

>  <organisms>  (1901) 
Conium maculatum|Fagara chalybea and Fagara holtziana|Flindersia australis|Geijera balansae|Glycosmis parviflora|Haplophyllum|Haplophyllum acutifolium|Haplophyllum bucharicum|Haplophyllum perforatum|Haplophyllum suaveolens|Haplophyllum thesioides|Haplophyllum tuberculatum|Haplophyllum tuberculatum (Forssk.) Al Juss.|Helietta apiculata|Micromelum minutum|Neoraputia paraensis|Zanthoxylum beecheyanum|Zanthoxylum chalybaeum|Zanthoxylum chalybeum|Zanthoxylum coco|Zanthoxylum heitzii|Zanthoxylum integrifoliolum|Zanthoxylum nitidum|Zanthoxylum simulans|Zanthoxylum zanthoxyloides

>  <collections>  (1901) 
ANPDB|AnalytiCon Discovery NPs|Australian natural products|ChEBI NPs|ChemSpider NPs|KNApSaCK|Latin America dataset|NANPDB (Natural Products from Northern African Sources)|NuBBEDB|Phyto4Health|TCMDB-Taiwan (Traditional Chinese Medicine database)|TCMID (Traditional Chinese Medicine Integrated Database)|TIPdb (database of Taiwan indigenous plants)|UNPD (Universal Natural Products Database)|WikiData Natural Products|ZINC NP

>  <dois>  (1901) 
10.1002/CBDV.200800107|10.1002/JCCS.200400159|10.1002/JCCS.200700112|10.1002/JLAC.199319930160|10.1007/978-0-85729-323-7_2697|10.1007/BF00563653|10.1007/BF00567798|10.1007/BF00568498|10.1007/BF00579795|10.1007/BF00598335|10.1007/BF00630180|10.1007/BF00714932|10.1007/BF02238348|10.1007/BF02323307|10.1007/PL00010305|10.1016/J.JEP.2005.11.001|10.1016/S0031-9422(00)81200-5|10.1016/S0031-9422(00)85006-2|10.1016/S0031-9422(01)00041-3|10.1016/S0031-9422(01)00186-8|10.1016/S0031-9422(01)00188-1|10.1016/S0031-9422(02)00268-6|10.1016/S0040-4020(01)98709-5|10.1021/JO00150A028|10.1021/NP50021A023|10.1021/NP50032A035|10.1021/NP50041A009|10.1021/NP50085A008|10.1021/np50099a012|10.1039/C19660000467|10.1055/S-2002-32898|10.1055/S-2007-971491|10.1071/CH9540348|10.1071/ch9540348|10.1080/10575639308050059|10.1271/BBB1961.49.3051|10.1590/S0103-50532003000300007

>  <synonyms>  (1901) 
2,2'-DIMETHYL-.ALPHA.-PYRANO(5',6',3,4)-2(1H)-QUINOLONE|2,2-DIMETHYL-2H,5H,6H-PYRANO[3,2-C]QUINOLIN-5-ONE|2,2-dimethyl-2,6-dihydro-5H-pyrano[3,2-c]quinolin-5-one|2,2-dimethyl-6H-pyrano[3,2-c]quinolin-5-one|2,6-DIHYDRO-2,2-DIMETHYL-5H-PYRANO(3,2-C)QUINOLIN-5-ONE|2,6-Dihydro-2,2-dimethyl-5H-pyrano[3,2-c]-quinolin-5-one|2h-pyrano[3,2-c]quinolin-5-ol, 2,2-dimethyl-|523-64-8|5H-Pyrano(3,2-c)quinolin-5-one, 2,6-dihydro-2,2-dimethyl-|5H-Pyrano[3, 2,6-dihydro-2,2-dimethyl-|6A8PD12CKP|AKOS000635152|CHEBI:5094|CHEMBL1507844|DTXSID80200324|F0722-8699|FLINDERSINE [MI]|Flindersine|HMS1648O08|HMS2303K10|InChI=1\/C14H13NO2\/c1-14(2)8-7-10-12(17-14)9-5-3-4-6-11(9)15-13(10)16\/h3-8H,1-2H3,(H,15,16)|MLS000071803|NSC 94655|NSC-94655|Oprea1_017316|Oprea1_138192|PXNMNABLQWUMCX-UHFFFAOYSA-|Q5862594|SCHEMBL3125149|SMR000009047|ST044783|STK722191|UNII-6A8PD12CKP|starbld0041951

>  <cas>  (1901) 
523-64-8

$$$$

     RDKit          2D

 29 31  0  0  0  0  0  0  0  0999 V2000
    6.9105   -1.0693    0.0000 C   0  0  0  0  0  0  0  0  0  0  0  0
    5.7770   -0.0869    0.0000 C   0  0  0  0  0  0  0  0  0  0  0  0
    4.3594   -0.5773    0.0000 O   0  0  0  0  0  0  0  0  0  0  0  0
    3.2259    0.4051    0.0000 C   0  0  0  0  0  0  0  0  0  0  0  0
    1.8083   -0.0853    0.0000 O   0  0  0  0  0  0  0  0  0  0  0  0
    1.5243   -1.5582    0.0000 C   0  0  0  0  0  0  0  0  0  0  0  0
    0.1067   -2.0487    0.0000 C   0  0  0  0  0  0  0  0  0  0  0  0
   -1.0268   -1.0662    0.0000 O   0  0  0  0  0  0  0  0  0  0  0  0
   -2.4443   -1.5567    0.0000 C   0  0  0  0  0  0  0  0  0  0  0  0
   -3.5778   -0.5743    0.0000 O   0  0  0  0  0  0  0  0  0  0  0  0
   -3.2938    0.8986    0.0000 C   0  0  0  0  0  0  0  0  0  0  0  0
   -4.4273    1.8810    0.0000 C   0  0  0  0  0  0  0  0  0  0  0  0
   -4.1433    3.3539    0.0000 C   0  0  0  0  0  0  0  0  0  0  0  0
   -5.2768    4.3363    0.0000 C   0  0  0  0  0  0  0  0  0  0  0  0
   -6.6944    3.8458    0.0000 C   0  0  0  0  0  0  0  0  0  0  0  0
   -6.9784    2.3730    0.0000 C   0  0  0  0  0  0  0  0  0  0  0  0
   -5.8449    1.3906    0.0000 C   0  0  0  0  0  0  0  0  0  0  0  0
   -2.7284   -3.0296    0.0000 C   0  0  0  0  0  0  0  0  0  0  0  0
   -4.1459   -3.5200    0.0000 O   0  0  0  0  0  0  0  0  0  0  0  0
   -1.5949   -4.0120    0.0000 C   0  0  0  0  0  0  0  0  0  0  0  0
   -1.8789   -5.4848    0.0000 O   0  0  0  0  0  0  0  0  0  0  0  0
   -0.1773   -3.5215    0.0000 C   0  0  0  0  0  0  0  0  0  0  0  0
    0.9562   -4.5039    0.0000 O   0  0  0  0  0  0  0  0  0  0  0  0
    3.5099    1.8780    0.0000 C   0  0  0  0  0  0  0  0  0  0  0  0
    2.3764    2.8604    0.0000 O   0  0  0  0  0  0  0  0  0  0  0  0
    4.9275    2.3684    0.0000 C   0  0  0  0  0  0  0  0  0  0  0  0
    5.2115    3.8413    0.0000 O   0  0  0  0  0  0  0  0  0  0  0  0
    6.0610    1.3860    0.0000 C   0  0  0  0  0  0  0  0  0  0  0  0
    7.4786    1.8764    0.0000 O   0  0  0  0  0  0  0  0  0  0  0  0
  2  1  1  6
  2  3  1  0
  3  4  1  0
  4  5  1  1
  5  6  1  0
  7  6  1  6
  7  8  1  0
  8  9  1  0
  9 10  1  6
 10 11  1  0
 11 12  1  0
 12 13  2  0
 13 14  1  0
 14 15  2  0
 15 16  1  0
 16 17  2  0
  9 18  1  0
 18 19  1  1
 18 20  1  0
 20 21  1  6
 20 22  1  0
 22 23  1  1
  4 24  1  0
 24 25  1  6
 24 26  1  0
 26 27  1  6
 26 28  1  0
 28 29  1  1
 28  2  1  0
 22  7  1  0
 17 12  1  0
M  END
>  <identifier>  (1902) 
CNP0268352.1

>  <canonical_smiles>  (1902) 
C[C@@H]1O[C@@H](OC[C@H]2O[C@@H](OCC3=CC=CC=C3)[C@H](O)[C@@H](O)[C@@H]2O)[C@H](O)[C@H](O)[C@H]1O

>  <standard_inchi>  (1902) 
InChI=1S/C19H28O10/c1-9-12(20)14(22)16(24)18(28-9)27-8-11-13(21)15(23)17(25)19(29-11)26-7-10-5-3-2-4-6-10/h2-6,9,11-25H,7-8H2,1H3/t9-,11+,12-,13+,14+,15-,16+,17+,18+,19+/m0/s1

>  <standard_inchi_key>  (1902) 
SMUMBCREXHTKFN-VZOUQOBNSA-N

>  <name>  (1902) 
hydrangeifolin I

>  <iupac_name>  (1902) 
(2~{R},3~{R},4~{R},5~{R},6~{S})-2-[[(2~{R},3~{S},4~{S},5~{R},6~{R})-6-benzyloxy-3,4,5-trihydroxy-tetrahydropyran-2-yl]methoxy]-6-methyl-tetrahydropyran-3,4,5-triol

>  <annotation_level>  (1902) 
5

>  <total_atom_count>  (1902) 
57

>  <heavy_atom_count>  (1902) 
29

>  <molecular_weight>  (1902) 
416.42

>  <exact_molecular_weight>  (1902) 
416.16825

>  <molecular_formula>  (1902) 
C19H28O10

>  <alogp>  (1902) 
-2.15

>  <topological_polar_surface_area>  (1902) 
158.30

>  <rotatable_bond_count>  (1902) 
6

>  <hydrogen_bond_acceptors>  (1902) 
10

>  <hydrogen_bond_donors>  (1902) 
6

>  <hydrogen_bond_acceptors_lipinski>  (1902) 
10

>  <hydrogen_bond_donors_lipinski>  (1902) 
6

>  <lipinski_rule_of_five_violations>  (1902) 
1

>  <aromatic_rings_count>  (1902) 
1

>  <qed_drug_likeliness>  (1902) 
0.30

>  <formal_charge>  (1902) 
0

>  <fractioncsp3>  (1902) 
0.68

>  <number_of_minimal_rings>  (1902) 
3

>  <van_der_walls_volume>  (1902) 
361.38

>  <contains_sugar>  (1902) 
True

>  <contains_ring_sugars>  (1902) 
True

>  <contains_linear_sugars>  (1902) 
False

>  <murcko_framework>  (1902) 
O(Cc1ccccc1)C2OC(COC3OCCCC3)CCC2

>  <np_likeness>  (1902) 
1.49

>  <chemical_class>  (1902) 
Organooxygen compounds

>  <chemical_sub_class>  (1902) 
Carbohydrates and carbohydrate conjugates

>  <chemical_super_class>  (1902) 
Organic oxygen compounds

>  <direct_parent_classification>  (1902) 
Monosaccharides

>  <np_classifier_pathway>  (1902) 
Shikimates and Phenylpropanoids

>  <np_classifier_superclass>  (1902) 
nan

>  <np_classifier_class>  (1902) 
nan

>  <np_classifier_is_glycoside>  (1902) 
True

>  <organisms>  (1902) 
Acacia confusa|Acanthella acuta|Acer nikoense|Carthamus tinctorius|Castanopsis fissa|Coussarea hydrangeifolia|Davallia mariesii|Dracocephalum ruyschiana|Erica arborea|Idesia polycarpa|Isodon lihsienensis|Itoa orientalis|Parthenocissus tricuspidata|Phoebe clemensii|Siphula decumbens|dracocephalum ruyschiana

>  <collections>  (1902) 
AnalytiCon Discovery NPs|CMAUP (cCollective molecular activities of useful plants)|ChemSpider NPs|FooDB|GNPS (Global Natural Products Social Molecular Networking)|Latin America dataset|NPASS|NuBBEDB|Super Natural II|TCMDB-Taiwan (Traditional Chinese Medicine database)|WikiData Natural Products|ZINC NP

>  <dois>  (1902) 
10.1002/HLCA.200800379|10.1016/J.BMCL.2013.04.011|10.1016/J.PHYTOCHEM.2005.06.019|10.1016/J.PHYTOCHEM.2011.07.007|10.1016/j.bmcl.2013.04.011|10.1016/j.phytochem.2005.06.019|10.1021/NP300609U|10.1021/NP800014S|10.1021/np300609u|10.1021/np800014s|10.1248/CPB.51.62

>  <synonyms>  (1902) 
1'-O-benzyl-\u221a\u00e9\u00ac\u00b1-L-rhamnopyranosyl-(1\u221a\u00a2\u201a\u00c4\u2020\u201a\u00c4\u00f460)-\u221a\u00e9\u00ac\u2264-D-glucopyranoside|ACon1_002472|AKOS040739644|BRD-K77144086-001-01-4|Benzyl alcohol beta-D-rutinoside|CHEMBL511744|Compound NP-006165|NCGC00169814-01|NCGC00169814-02_C19H28O10_Benzyl 6-O-(6-deoxy-alpha-L-mannopyranosyl)-beta-D-glucopyranoside|benzyl 6-O-alpha-l-rhamnopyranosyl-beta-d-glucopyranoside

>  <cas>  (1902) 
nan

$$$$

     RDKit          2D

 34 37  0  0  0  0  0  0  0  0999 V2000
    6.0340   -2.1480    0.0000 C   0  0  0  0  0  0  0  0  0  0  0  0
    4.9469   -3.1815    0.0000 C   0  0  0  0  0  0  0  0  0  0  0  0
    3.8598   -4.2150    0.0000 C   0  0  0  0  0  0  0  0  0  0  0  0
    5.9805   -4.2686    0.0000 O   0  0  0  0  0  0  0  0  0  0  0  0
    3.9134   -2.0944    0.0000 C   0  0  0  0  0  0  0  0  0  0  0  0
    4.3381   -0.6558    0.0000 C   0  0  0  0  0  0  0  0  0  0  0  0
    3.3045    0.4313    0.0000 C   0  0  0  0  0  0  0  0  0  0  0  0
    1.8463    0.0798    0.0000 O   0  0  0  0  0  0  0  0  0  0  0  0
    3.7292    1.8700    0.0000 C   0  0  0  0  0  0  0  0  0  0  0  0
    5.1679    1.4453    0.0000 C   0  0  0  0  0  0  0  0  0  0  0  0
    4.1539    3.3086    0.0000 O   0  0  0  0  0  0  0  0  0  0  0  0
    2.2906    2.2946    0.0000 C   0  0  0  0  0  0  0  0  0  0  0  0
    1.7886    3.7081    0.0000 C   0  0  0  0  0  0  0  0  0  0  0  0
    0.2891    3.6675    0.0000 C   0  0  0  0  0  0  0  0  0  0  0  0
   -0.1355    2.2289    0.0000 C   0  0  0  0  0  0  0  0  0  0  0  0
   -1.2771    3.2020    0.0000 O   0  0  0  0  0  0  0  0  0  0  0  0
   -1.4888    1.5819    0.0000 C   0  0  0  0  0  0  0  0  0  0  0  0
   -2.7258    2.4303    0.0000 C   0  0  0  0  0  0  0  0  0  0  0  0
   -4.0791    1.7833    0.0000 C   0  0  0  0  0  0  0  0  0  0  0  0
   -5.3161    2.6318    0.0000 O   0  0  0  0  0  0  0  0  0  0  0  0
   -4.1954    0.2878    0.0000 C   0  0  0  0  0  0  0  0  0  0  0  0
   -5.5487   -0.3592    0.0000 C   0  0  0  0  0  0  0  0  0  0  0  0
   -5.6650   -1.8547    0.0000 C   0  0  0  0  0  0  0  0  0  0  0  0
   -7.0183   -2.5017    0.0000 O   0  0  0  0  0  0  0  0  0  0  0  0
   -4.4280   -2.7032    0.0000 C   0  0  0  0  0  0  0  0  0  0  0  0
   -4.5443   -4.1986    0.0000 O   0  0  0  0  0  0  0  0  0  0  0  0
   -3.0747   -2.0561    0.0000 C   0  0  0  0  0  0  0  0  0  0  0  0
   -2.9584   -0.5606    0.0000 C   0  0  0  0  0  0  0  0  0  0  0  0
   -1.7214   -1.4091    0.0000 C   0  0  0  0  0  0  0  0  0  0  0  0
   -1.6051    0.0864    0.0000 C   0  0  0  0  0  0  0  0  0  0  0  0
   -0.3682   -0.7621    0.0000 C   0  0  0  0  0  0  0  0  0  0  0  0
    0.9851   -0.1151    0.0000 C   0  0  0  0  0  0  0  0  0  0  0  0
    1.1014    1.3804    0.0000 C   0  0  0  0  0  0  0  0  0  0  0  0
    2.4203    0.6659    0.0000 C   0  0  0  0  0  0  0  0  0  0  0  0
  1  2  1  0
  2  3  1  0
  2  4  1  0
  2  5  1  0
  5  6  1  0
  6  7  1  0
  7  8  1  1
  7  9  1  0
  9 10  1  6
  9 11  1  0
  9 12  1  0
 12 13  1  6
 13 14  1  0
 14 15  1  0
 15 16  1  1
 15 17  1  0
 17 18  2  0
 18 19  1  0
 19 20  2  0
 19 21  1  0
 21 22  1  1
 22 23  1  0
 23 24  1  6
 23 25  1  0
 25 26  1  6
 25 27  1  0
 27 28  1  0
 28 29  1  6
 28 30  1  0
 30 31  1  0
 31 32  1  0
 32 33  1  0
 33 34  1  6
 33 12  1  0
 33 15  1  0
 30 17  1  0
 28 21  1  0
M  END
>  <identifier>  (1903) 
CNP0146238.2

>  <canonical_smiles>  (1903) 
CC(C)(O)CC[C@@H](O)[C@](C)(O)[C@H]1CC[C@@]2(O)C3=CC(=O)[C@@H]4C[C@@H](O)[C@@H](O)C[C@]4(C)C3CC[C@]12C

>  <standard_inchi>  (1903) 
InChI=1S/C27H44O7/c1-23(2,32)9-8-22(31)26(5,33)21-7-11-27(34)16-12-18(28)17-13-19(29)20(30)14-24(17,3)15(16)6-10-25(21,27)4/h12,15,17,19-22,29-34H,6-11,13-14H2,1-5H3/t15?,17-,19+,20-,21-,22+,24+,25+,26+,27+/m0/s1

>  <standard_inchi_key>  (1903) 
NKDFYOWSKOHCCO-MQMWGCQISA-N

>  <name>  (1903) 
(2S,3R,5R,10R,13R,14S,17S)-2,3,14-trihydroxy-10,13-dimethyl-17-[(2R,3R)-2,3,6-trihydroxy-6-methylheptan-2-yl]-2,3,4,5,9,11,12,15,16,17-decahydro-1H-cyclopenta[a]phenanthren-6-one

>  <iupac_name>  (1903) 
(2~{S},3~{R},5~{R},10~{R},13~{R},14~{S},17~{S})-2,3,14-trihydroxy-10,13-dimethyl-17-[(1~{R},2~{R})-1,2,5-trihydroxy-1,5-dimethyl-hexyl]-2,3,4,5,9,11,12,15,16,17-decahydro-1~{H}-cyclopenta[a]phenanthren-6-one

>  <annotation_level>  (1903) 
5

>  <total_atom_count>  (1903) 
78

>  <heavy_atom_count>  (1903) 
34

>  <molecular_weight>  (1903) 
480.64

>  <exact_molecular_weight>  (1903) 
480.3087

>  <molecular_formula>  (1903) 
C27H44O7

>  <alogp>  (1903) 
1.85

>  <topological_polar_surface_area>  (1903) 
138.45

>  <rotatable_bond_count>  (1903) 
5

>  <hydrogen_bond_acceptors>  (1903) 
7

>  <hydrogen_bond_donors>  (1903) 
6

>  <hydrogen_bond_acceptors_lipinski>  (1903) 
7

>  <hydrogen_bond_donors_lipinski>  (1903) 
6

>  <lipinski_rule_of_five_violations>  (1903) 
1

>  <aromatic_rings_count>  (1903) 
0

>  <qed_drug_likeliness>  (1903) 
0.35

>  <formal_charge>  (1903) 
0

>  <fractioncsp3>  (1903) 
0.89

>  <number_of_minimal_rings>  (1903) 
4

>  <van_der_walls_volume>  (1903) 
455.43

>  <contains_sugar>  (1903) 
False

>  <contains_ring_sugars>  (1903) 
False

>  <contains_linear_sugars>  (1903) 
False

>  <murcko_framework>  (1903) 
C1=C2C3CCCC3CCC2C4CCCCC4C1

>  <np_likeness>  (1903) 
3.63

>  <chemical_class>  (1903) 
Steroids and steroid derivatives

>  <chemical_sub_class>  (1903) 
Bile acids, alcohols and derivatives

>  <chemical_super_class>  (1903) 
Lipids and lipid-like molecules

>  <direct_parent_classification>  (1903) 
Bile acids, alcohols and derivatives

>  <np_classifier_pathway>  (1903) 
Terpenoids

>  <np_classifier_superclass>  (1903) 
Steroids

>  <np_classifier_class>  (1903) 
Ecdysteroids

>  <np_classifier_is_glycoside>  (1903) 
False

>  <organisms>  (1903) 
Vitex polygama

>  <collections>  (1903) 
AnalytiCon Discovery NPs|CMAUP (cCollective molecular activities of useful plants)|GNPS (Global Natural Products Social Molecular Networking)|NuBBEDB|PubChem NPs|WikiData Natural Products

>  <dois>  (1903) 
10.1016/j.jchromb.2005.12.006|10.1515/ZNC-2008-5-611

>  <synonyms>  (1903) 
20 Hydroxyecdysone|20-hydroxyecdysone, polypodine A|20beta-hydroxyecdysone|ACon0_000426|ACon1_000053|BRD-A50090566-001-01-1|CHEBI:183878|CHEMBL2354392|HMS2270K10|MEGxp0_001058|MLS000876951|NCGC00168839-01|SCHEMBL14733261|SMR000440684|SR-01000758986

>  <cas>  (1903) 
nan

$$$$

     RDKit          2D

 19 21  0  0  0  0  0  0  0  0999 V2000
    1.3448    3.3138    0.0000 O   0  0  0  0  0  0  0  0  0  0  0  0
    0.9439    1.8683    0.0000 C   0  0  0  0  0  0  0  0  0  0  0  0
   -0.5083    1.4928    0.0000 C   0  0  0  0  0  0  0  0  0  0  0  0
   -1.5597    2.5627    0.0000 O   0  0  0  0  0  0  0  0  0  0  0  0
   -0.9092    0.0474    0.0000 C   0  0  0  0  0  0  0  0  0  0  0  0
   -2.3615   -0.3282    0.0000 C   0  0  0  0  0  0  0  0  0  0  0  0
   -3.4128    0.7417    0.0000 C   0  0  0  0  0  0  0  0  0  0  0  0
   -4.8650    0.3662    0.0000 C   0  0  0  0  0  0  0  0  0  0  0  0
   -5.2659   -1.0793    0.0000 C   0  0  0  0  0  0  0  0  0  0  0  0
   -4.2146   -2.1492    0.0000 C   0  0  0  0  0  0  0  0  0  0  0  0
   -2.7623   -1.7736    0.0000 C   0  0  0  0  0  0  0  0  0  0  0  0
    0.1421   -1.0225    0.0000 O   0  0  0  0  0  0  0  0  0  0  0  0
    1.5943   -0.6470    0.0000 C   0  0  0  0  0  0  0  0  0  0  0  0
    2.6457   -1.7169    0.0000 C   0  0  0  0  0  0  0  0  0  0  0  0
    4.0979   -1.3414    0.0000 C   0  0  0  0  0  0  0  0  0  0  0  0
    5.1493   -2.4113    0.0000 O   0  0  0  0  0  0  0  0  0  0  0  0
    4.4988    0.1041    0.0000 C   0  0  0  0  0  0  0  0  0  0  0  0
    3.4475    1.1740    0.0000 C   0  0  0  0  0  0  0  0  0  0  0  0
    1.9952    0.7984    0.0000 C   0  0  0  0  0  0  0  0  0  0  0  0
  1  2  2  0
  2  3  1  0
  3  4  1  0
  3  5  2  0
  5  6  1  0
  6  7  2  0
  7  8  1  0
  8  9  2  0
  9 10  1  0
 10 11  2  0
  5 12  1  0
 12 13  1  0
 13 14  2  0
 14 15  1  0
 15 16  1  0
 15 17  2  0
 17 18  1  0
 18 19  2  0
 19  2  1  0
 11  6  1  0
 19 13  1  0
M  END
>  <identifier>  (1904) 
CNP0155313.0

>  <canonical_smiles>  (1904) 
O=C1C(O)=C(C2=CC=CC=C2)OC2=CC(O)=CC=C12

>  <standard_inchi>  (1904) 
InChI=1S/C15H10O4/c16-10-6-7-11-12(8-10)19-15(14(18)13(11)17)9-4-2-1-3-5-9/h1-8,16,18H

>  <standard_inchi_key>  (1904) 
UWQJWDYDYIJWKY-UHFFFAOYSA-N

>  <name>  (1904) 
3,7-dihydroxyflavone

>  <iupac_name>  (1904) 
3,7-dihydroxy-2-phenyl-chromen-4-one

>  <annotation_level>  (1904) 
5

>  <total_atom_count>  (1904) 
29

>  <heavy_atom_count>  (1904) 
19

>  <molecular_weight>  (1904) 
254.24

>  <exact_molecular_weight>  (1904) 
254.05791

>  <molecular_formula>  (1904) 
C15H10O4

>  <alogp>  (1904) 
2.87

>  <topological_polar_surface_area>  (1904) 
70.67

>  <rotatable_bond_count>  (1904) 
1

>  <hydrogen_bond_acceptors>  (1904) 
4

>  <hydrogen_bond_donors>  (1904) 
2

>  <hydrogen_bond_acceptors_lipinski>  (1904) 
4

>  <hydrogen_bond_donors_lipinski>  (1904) 
2

>  <lipinski_rule_of_five_violations>  (1904) 
0

>  <aromatic_rings_count>  (1904) 
3

>  <qed_drug_likeliness>  (1904) 
0.70

>  <formal_charge>  (1904) 
0

>  <fractioncsp3>  (1904) 
0.00

>  <number_of_minimal_rings>  (1904) 
3

>  <van_der_walls_volume>  (1904) 
213.94

>  <contains_sugar>  (1904) 
False

>  <contains_ring_sugars>  (1904) 
False

>  <contains_linear_sugars>  (1904) 
False

>  <murcko_framework>  (1904) 
O1c2ccccc2CC=C1c3ccccc3

>  <np_likeness>  (1904) 
0.95

>  <chemical_class>  (1904) 
Flavonoids

>  <chemical_sub_class>  (1904) 
Flavones

>  <chemical_super_class>  (1904) 
Phenylpropanoids and polyketides

>  <direct_parent_classification>  (1904) 
Flavonols

>  <np_classifier_pathway>  (1904) 
Shikimates and Phenylpropanoids

>  <np_classifier_superclass>  (1904) 
Flavonoids

>  <np_classifier_class>  (1904) 
Flavonols

>  <np_classifier_is_glycoside>  (1904) 
False

>  <organisms>  (1904) 
Ageratina ixiocladon|Aglaia duperreana|Aspergillus tamarii|Astragalus centralpinus|Camptorrhiza strumosa|Croton macrostachys|Dictyostelium discoideum|Dryas octopetala|Medicago arabica|Platymiscium praecox|Rheum coreanum|Rhododendron schlippenbachii|Uvaria dulcis|Zuccagnia punctata

>  <collections>  (1904) 
CMAUP (cCollective molecular activities of useful plants)|GNPS (Global Natural Products Social Molecular Networking)|KNApSaCK|Latin America dataset|NPASS|NPEdia|NuBBEDB|Super Natural II|UNPD (Universal Natural Products Database)|WikiData Natural Products|ZINC NP

>  <dois>  (1904) 
10.1016/S0031-9422(00)80459-8|10.1016/S0031-9422(00)89849-0

>  <synonyms>  (1904) 
3,7-Dihydroxy-2-phenyl-4H-1-benzopyran-4-one|3,7-dihydroxy-2-phenyl-4H-chromen-4-one|3,7-dihydroxy-flavone|492-00-2|4H-1-Benzopyran-4-one, 3,7-dihydroxy-2-phenyl-|5-Deoxygalangin|7,3-dihydroxyflavone|7,3\/'-DIHYDROXYFLAVONE|7-Hydroxyflavonol|A827674|AKOS000600301|BDBM26660|BRD-K35133923-001-02-3|BSPBio_003285|CCG-38768|CHEBI:109535|CHEMBL210276|DB-022136|DB-350680|DTXSID80197705|DivK1c_006874|HHF|KBio1_001818|KBio2_001942|KBio2_004510|KBio2_007078|KBio3_002505|KBioGR_002253|KBioSS_001942|LMPK12111545|MFCD00016790|NCGC00095686-01|NCGC00178162-01|NS00116344|O948D0K9BQ|Oprea1_793720|PD001272|Q27188682|Resogalangin|SCHEMBL2396684|SDCCGMLS-0066816.P001|SPBio_001803|SPECTRUM1504130|SR-01000314616|SpecPlus_000778|Spectrum4_001767|Spectrum5_000353|Spectrum_001462|UNII-O948D0K9BQ|UWQJWDYDYIJWKY-UHFFFAOYSA-N

>  <cas>  (1904) 
492-00-2

$$$$

     RDKit          2D

 29 31  0  0  0  0  0  0  0  0999 V2000
   -4.0470    3.8238    0.0000 C   0  0  0  0  0  0  0  0  0  0  0  0
   -4.9095    2.5965    0.0000 O   0  0  0  0  0  0  0  0  0  0  0  0
   -4.2778    1.2360    0.0000 C   0  0  0  0  0  0  0  0  0  0  0  0
   -2.7837    1.1027    0.0000 C   0  0  0  0  0  0  0  0  0  0  0  0
   -2.1521   -0.2578    0.0000 C   0  0  0  0  0  0  0  0  0  0  0  0
   -0.6580   -0.3910    0.0000 C   0  0  0  0  0  0  0  0  0  0  0  0
   -0.0264   -1.7516    0.0000 C   0  0  0  0  0  0  0  0  0  0  0  0
    1.4677   -1.8848    0.0000 C   0  0  0  0  0  0  0  0  0  0  0  0
    2.0993   -3.2453    0.0000 O   0  0  0  0  0  0  0  0  0  0  0  0
    2.3301   -0.6575    0.0000 C   0  0  0  0  0  0  0  0  0  0  0  0
    3.8242   -0.7908    0.0000 C   0  0  0  0  0  0  0  0  0  0  0  0
    4.4558   -2.1513    0.0000 O   0  0  0  0  0  0  0  0  0  0  0  0
    5.9499   -2.2845    0.0000 C   0  0  0  0  0  0  0  0  0  0  0  0
    4.6866    0.4365    0.0000 C   0  0  0  0  0  0  0  0  0  0  0  0
    6.1807    0.3033    0.0000 O   0  0  0  0  0  0  0  0  0  0  0  0
    6.8123   -1.0572    0.0000 C   0  0  0  0  0  0  0  0  0  0  0  0
    4.0550    1.7971    0.0000 C   0  0  0  0  0  0  0  0  0  0  0  0
    4.9174    3.0243    0.0000 O   0  0  0  0  0  0  0  0  0  0  0  0
    6.4115    2.8911    0.0000 C   0  0  0  0  0  0  0  0  0  0  0  0
    2.5609    1.9303    0.0000 C   0  0  0  0  0  0  0  0  0  0  0  0
    1.6985    0.7030    0.0000 C   0  0  0  0  0  0  0  0  0  0  0  0
    0.2044    0.8362    0.0000 O   0  0  0  0  0  0  0  0  0  0  0  0
   -3.0145   -1.4851    0.0000 C   0  0  0  0  0  0  0  0  0  0  0  0
   -4.5086   -1.3519    0.0000 C   0  0  0  0  0  0  0  0  0  0  0  0
   -5.3710   -2.5791    0.0000 O   0  0  0  0  0  0  0  0  0  0  0  0
   -6.8651   -2.4459    0.0000 C   0  0  0  0  0  0  0  0  0  0  0  0
   -5.1402    0.0087    0.0000 C   0  0  0  0  0  0  0  0  0  0  0  0
   -6.6343    0.1419    0.0000 O   0  0  0  0  0  0  0  0  0  0  0  0
   -7.2660    1.5024    0.0000 C   0  0  0  0  0  0  0  0  0  0  0  0
  1  2  1  0
  2  3  1  0
  3  4  2  0
  4  5  1  0
  5  6  1  0
  6  7  2  0
  7  8  1  0
  8  9  2  0
  8 10  1  0
 10 11  2  0
 11 12  1  0
 12 13  1  0
 11 14  1  0
 14 15  1  0
 15 16  1  0
 14 17  2  0
 17 18  1  0
 18 19  1  0
 17 20  1  0
 20 21  2  0
 21 22  1  0
  5 23  2  0
 23 24  1  0
 24 25  1  0
 25 26  1  0
 24 27  2  0
 27 28  1  0
 28 29  1  0
 27  3  1  0
 22  6  1  0
 21 10  1  0
M  END
>  <identifier>  (1905) 
CNP0295246.0

>  <canonical_smiles>  (1905) 
COC1=CC(C2=CC(=O)C3=C(OC)C(OC)=C(OC)C=C3O2)=CC(OC)=C1OC

>  <standard_inchi>  (1905) 
InChI=1S/C21H22O8/c1-23-15-7-11(8-16(24-2)19(15)26-4)13-9-12(22)18-14(29-13)10-17(25-3)20(27-5)21(18)28-6/h7-10H,1-6H3

>  <standard_inchi_key>  (1905) 
DYDFNKUHYXHWFM-UHFFFAOYSA-N

>  <name>  (1905) 
29043-07-0

>  <iupac_name>  (1905) 
5,6,7-trimethoxy-2-(3,4,5-trimethoxyphenyl)chromen-4-one

>  <annotation_level>  (1905) 
5

>  <total_atom_count>  (1905) 
51

>  <heavy_atom_count>  (1905) 
29

>  <molecular_weight>  (1905) 
402.4

>  <exact_molecular_weight>  (1905) 
402.13147

>  <molecular_formula>  (1905) 
C21H22O8

>  <alogp>  (1905) 
3.51

>  <topological_polar_surface_area>  (1905) 
85.59

>  <rotatable_bond_count>  (1905) 
7

>  <hydrogen_bond_acceptors>  (1905) 
8

>  <hydrogen_bond_donors>  (1905) 
0

>  <hydrogen_bond_acceptors_lipinski>  (1905) 
8

>  <hydrogen_bond_donors_lipinski>  (1905) 
0

>  <lipinski_rule_of_five_violations>  (1905) 
0

>  <aromatic_rings_count>  (1905) 
3

>  <qed_drug_likeliness>  (1905) 
0.59

>  <formal_charge>  (1905) 
0

>  <fractioncsp3>  (1905) 
0.29

>  <number_of_minimal_rings>  (1905) 
3

>  <van_der_walls_volume>  (1905) 
350.88

>  <contains_sugar>  (1905) 
False

>  <contains_ring_sugars>  (1905) 
False

>  <contains_linear_sugars>  (1905) 
False

>  <murcko_framework>  (1905) 
O1c2ccccc2CC=C1c3ccccc3

>  <np_likeness>  (1905) 
0.81

>  <chemical_class>  (1905) 
Flavonoids

>  <chemical_sub_class>  (1905) 
O-methylated flavonoids

>  <chemical_super_class>  (1905) 
Phenylpropanoids and polyketides

>  <direct_parent_classification>  (1905) 
6-O-methylated flavonoids

>  <np_classifier_pathway>  (1905) 
Shikimates and Phenylpropanoids

>  <np_classifier_superclass>  (1905) 
Flavonoids

>  <np_classifier_class>  (1905) 
Flavones

>  <np_classifier_is_glycoside>  (1905) 
False

>  <organisms>  (1905) 
Ageratum Conyzoides|Ageratum conyzoides|Ageratum houstonianum|Bauhinia championii|Bauhinia championll|Blumea fistulosa|Blumea glomerata|Citrus reticulata|Citrus reticulate|Citrus × deliciosa|Ficus maxima|Murraya Paniculata|Murraya paniculata|Neoraputia magnifica|Neoraputia paraensis|Phanera championii

>  <collections>  (1905) 
Australian natural products|CMAUP (cCollective molecular activities of useful plants)|GNPS (Global Natural Products Social Molecular Networking)|KNApSaCK|Latin America dataset|NPASS|NPEdia|NuBBEDB|Super Natural II|TCMDB-Taiwan (Traditional Chinese Medicine database)|TCMID (Traditional Chinese Medicine Integrated Database)|TIPdb (database of Taiwan indigenous plants)|UNPD (Universal Natural Products Database)|VietHerb|WikiData Natural Products|ZINC NP

>  <dois>  (1905) 
10.1016/0031-9422(93)85261-O|10.1016/0031-9422(96)00058-1|10.1016/J.JPBA.2019.03.056|10.1016/S0031-9422(00)81761-6|10.1016/S0031-9422(00)84523-9|10.1016/S0031-9422(96)00729-7|10.1016/S0031-9422(97)00140-4|10.1016/S0031-9422(97)00598-0|10.1016/j.jpba.2011.08.019|10.1016/s0031-9422(97)00598-0|10.1039/c2ay25242b|10.1055/S-2004-835847|10.1211/JPP.61.02.0017|10.1248/CPB.32.166

>  <synonyms>  (1905) 
3 inverted exclamation marka,4 inverted exclamation marka,5 inverted exclamation marka,5,6,7-Hexamethoxyflavone|3',4',5',5,6,7-HEXAMETHOXYFLAVONE|3',4',5,5',6,7-Hexamethoxyflavone|3??,4??,5??,5,6,7-Hexamethoxyflavone|4H-1-Benzopyran-4-one, 5,6,7-trimethoxy-2-(3,4,5-trimethoxyphenyl)-|5,6,7,3',4',5'-Hexamethoxyflavone|5,6,7-trimethoxy-2-(3,4,5-trimethoxyphenyl)-4H-chromen-4-one|5673'4'5'-hexamethoxyflavone|A819732|AKOS027380195|BDBM50420208|CHEMBL370963|CS-0158930|DB-047508|DTXSID40183280|FS-6823|HY-N9179|LMPK12111278|MFCD00017679|SCHEMBL1765114

>  <cas>  (1905) 
nan

$$$$

     RDKit          2D

 33 36  0  0  0  0  0  0  0  0999 V2000
    8.5227   -0.2641    0.0000 C   0  0  0  0  0  0  0  0  0  0  0  0
    7.0747    0.1272    0.0000 C   0  0  0  0  0  0  0  0  0  0  0  0
    6.0118   -0.9312    0.0000 C   0  0  0  0  0  0  0  0  0  0  0  0
    4.5637   -0.5399    0.0000 C   0  0  0  0  0  0  0  0  0  0  0  0
    3.5008   -1.5984    0.0000 C   0  0  0  0  0  0  0  0  0  0  0  0
    2.4379   -2.6568    0.0000 C   0  0  0  0  0  0  0  0  0  0  0  0
    4.5592   -2.6613    0.0000 O   0  0  0  0  0  0  0  0  0  0  0  0
    2.4424   -0.5355    0.0000 C   0  0  0  0  0  0  0  0  0  0  0  0
    2.6802    0.9456    0.0000 C   0  0  0  0  0  0  0  0  0  0  0  0
    1.3451    1.6294    0.0000 C   0  0  0  0  0  0  0  0  0  0  0  0
    0.2822    0.5710    0.0000 C   0  0  0  0  0  0  0  0  0  0  0  0
   -0.2524    1.9725    0.0000 C   0  0  0  0  0  0  0  0  0  0  0  0
    0.9604   -0.7670    0.0000 C   0  0  0  0  0  0  0  0  0  0  0  0
    0.1407   -2.0233    0.0000 C   0  0  0  0  0  0  0  0  0  0  0  0
   -1.3570   -1.9416    0.0000 C   0  0  0  0  0  0  0  0  0  0  0  0
   -2.0352   -0.6036    0.0000 C   0  0  0  0  0  0  0  0  0  0  0  0
   -3.5330   -0.5220    0.0000 C   0  0  0  0  0  0  0  0  0  0  0  0
   -2.8548   -1.8599    0.0000 C   0  0  0  0  0  0  0  0  0  0  0  0
   -4.3526   -1.7782    0.0000 C   0  0  0  0  0  0  0  0  0  0  0  0
   -5.8504   -1.6966    0.0000 C   0  0  0  0  0  0  0  0  0  0  0  0
   -6.5285   -0.3586    0.0000 C   0  0  0  0  0  0  0  0  0  0  0  0
   -8.0263   -0.2770    0.0000 O   0  0  0  0  0  0  0  0  0  0  0  0
   -5.7089    0.8976    0.0000 C   0  0  0  0  0  0  0  0  0  0  0  0
   -5.3684    2.3585    0.0000 C   0  0  0  0  0  0  0  0  0  0  0  0
   -7.0884    1.4867    0.0000 C   0  0  0  0  0  0  0  0  0  0  0  0
   -4.2111    0.8160    0.0000 C   0  0  0  0  0  0  0  0  0  0  0  0
   -3.3915    2.0723    0.0000 C   0  0  0  0  0  0  0  0  0  0  0  0
   -1.8937    1.9906    0.0000 C   0  0  0  0  0  0  0  0  0  0  0  0
   -1.2156    0.6526    0.0000 C   0  0  0  0  0  0  0  0  0  0  0  0
   -0.5374   -0.6853    0.0000 C   0  0  0  0  0  0  0  0  0  0  0  0
    6.6895    1.5769    0.0000 C   0  0  0  0  0  0  0  0  0  0  0  0
    7.7524    2.6353    0.0000 C   0  0  0  0  0  0  0  0  0  0  0  0
    5.2414    1.9682    0.0000 C   0  0  0  0  0  0  0  0  0  0  0  0
  1  2  2  0
  2  3  1  0
  3  4  1  0
  4  5  1  0
  5  6  1  6
  5  7  1  0
  5  8  1  0
  8  9  1  6
  9 10  1  0
 10 11  1  0
 11 12  1  1
 11 13  1  0
 13 14  1  1
 14 15  1  0
 16 15  1  6
 16 17  1  0
 17 18  1  6
 17 19  1  0
 19 20  1  0
 20 21  1  0
 21 22  2  0
 21 23  1  0
 23 24  1  0
 23 25  1  0
 23 26  1  0
 26 27  1  6
 27 28  1  0
 28 29  1  0
 29 30  1  6
  2 31  1  0
 31 32  1  0
 31 33  1  0
 13  8  1  0
 29 16  1  0
 29 11  1  0
 26 17  1  0
M  END
>  <identifier>  (1906) 
CNP0144093.1

>  <canonical_smiles>  (1906) 
C=C(CC[C@@](C)(O)[C@H]1CC[C@]2(C)[C@@H]1CC[C@@H]1[C@@]3(C)CCC(=O)C(C)(C)[C@@H]3CC[C@]12C)C(C)C

>  <standard_inchi>  (1906) 
InChI=1S/C31H52O2/c1-20(2)21(3)12-19-31(9,33)23-13-17-29(7)22(23)10-11-25-28(6)16-15-26(32)27(4,5)24(28)14-18-30(25,29)8/h20,22-25,33H,3,10-19H2,1-2,4-9H3/t22-,23+,24+,25-,28+,29-,30-,31-/m1/s1

>  <standard_inchi_key>  (1906) 
YRHMEESSJBQXOF-ISNUIVIGSA-N

>  <name>  (1906) 
nan

>  <iupac_name>  (1906) 
(5~{R},8~{R},9~{R},10~{R},13~{R},14~{R},17~{S})-17-[(1~{R})-1-hydroxy-1,5-dimethyl-4-methylene-hexyl]-4,4,8,10,14-pentamethyl-1,2,5,6,7,9,11,12,13,15,16,17-dodecahydrocyclopenta[a]phenanthren-3-one

>  <annotation_level>  (1906) 
4

>  <total_atom_count>  (1906) 
85

>  <heavy_atom_count>  (1906) 
33

>  <molecular_weight>  (1906) 
456.76

>  <exact_molecular_weight>  (1906) 
456.39673

>  <molecular_formula>  (1906) 
C31H52O2

>  <alogp>  (1906) 
7.98

>  <topological_polar_surface_area>  (1906) 
37.30

>  <rotatable_bond_count>  (1906) 
5

>  <hydrogen_bond_acceptors>  (1906) 
2

>  <hydrogen_bond_donors>  (1906) 
1

>  <hydrogen_bond_acceptors_lipinski>  (1906) 
2

>  <hydrogen_bond_donors_lipinski>  (1906) 
1

>  <lipinski_rule_of_five_violations>  (1906) 
1

>  <aromatic_rings_count>  (1906) 
0

>  <qed_drug_likeliness>  (1906) 
0.43

>  <formal_charge>  (1906) 
0

>  <fractioncsp3>  (1906) 
0.90

>  <number_of_minimal_rings>  (1906) 
4

>  <van_der_walls_volume>  (1906) 
nan

>  <contains_sugar>  (1906) 
False

>  <contains_ring_sugars>  (1906) 
False

>  <contains_linear_sugars>  (1906) 
False

>  <murcko_framework>  (1906) 
C1CCC2C(C1)CCC3C4CCCC4CCC23

>  <np_likeness>  (1906) 
2.99

>  <chemical_class>  (1906) 
Steroids and steroid derivatives

>  <chemical_sub_class>  (1906) 
Oxosteroids

>  <chemical_super_class>  (1906) 
Lipids and lipid-like molecules

>  <direct_parent_classification>  (1906) 
Oxosteroids

>  <np_classifier_pathway>  (1906) 
Terpenoids

>  <np_classifier_superclass>  (1906) 
Triterpenoids

>  <np_classifier_class>  (1906) 
Dammarane and Protostane triterpenoids

>  <np_classifier_is_glycoside>  (1906) 
False

>  <organisms>  (1906) 
Trichilia|Vellozia stipitata

>  <collections>  (1906) 
Latin America dataset|NuBBEDB|Super Natural II|WikiData Natural Products

>  <dois>  (1906) 
10.1016/S0031-9422(00)91063-X|10.1016/S0031-9422(98)00234-9

>  <synonyms>  (1906) 
Vellozone

>  <cas>  (1906) 
nan

$$$$

     RDKit          2D

 12 11  0  0  0  0  0  0  0  0999 V2000
    4.5609    0.1026    0.0000 O   0  0  0  0  0  0  0  0  0  0  0  0
    3.1906    0.7126    0.0000 C   0  0  0  0  0  0  0  0  0  0  0  0
    1.9771   -0.1691    0.0000 C   0  0  0  0  0  0  0  0  0  0  0  0
    2.1340   -1.6609    0.0000 O   0  0  0  0  0  0  0  0  0  0  0  0
    0.6067    0.4409    0.0000 C   0  0  0  0  0  0  0  0  0  0  0  0
    0.4498    1.9327    0.0000 O   0  0  0  0  0  0  0  0  0  0  0  0
   -0.6067   -0.4409    0.0000 C   0  0  0  0  0  0  0  0  0  0  0  0
   -0.4498   -1.9327    0.0000 O   0  0  0  0  0  0  0  0  0  0  0  0
   -1.9771    0.1691    0.0000 C   0  0  0  0  0  0  0  0  0  0  0  0
   -2.1340    1.6609    0.0000 O   0  0  0  0  0  0  0  0  0  0  0  0
   -3.1906   -0.7126    0.0000 C   0  0  0  0  0  0  0  0  0  0  0  0
   -4.5609   -0.1026    0.0000 O   0  0  0  0  0  0  0  0  0  0  0  0
  1  2  1  0
  2  3  1  0
  3  4  1  1
  3  5  1  0
  5  6  1  6
  5  7  1  0
  7  8  1  6
  7  9  1  0
  9 10  1  1
  9 11  1  0
 11 12  1  0
M  END
>  <identifier>  (1907) 
CNP0190948.1

>  <canonical_smiles>  (1907) 
OC[C@@H](O)[C@@H](O)[C@H](O)[C@H](O)CO

>  <standard_inchi>  (1907) 
InChI=1S/C6H14O6/c7-1-3(9)5(11)6(12)4(10)2-8/h3-12H,1-2H2/t3-,4-,5-,6-/m1/s1

>  <standard_inchi_key>  (1907) 
FBPFZTCFMRRESA-KVTDHHQDSA-N

>  <name>  (1907) 
D-mannitol

>  <iupac_name>  (1907) 
(2~{R},3~{R},4~{R},5~{R})-hexane-1,2,3,4,5,6-hexol

>  <annotation_level>  (1907) 
5

>  <total_atom_count>  (1907) 
26

>  <heavy_atom_count>  (1907) 
12

>  <molecular_weight>  (1907) 
182.17

>  <exact_molecular_weight>  (1907) 
182.07904

>  <molecular_formula>  (1907) 
C6H14O6

>  <alogp>  (1907) 
-3.59

>  <topological_polar_surface_area>  (1907) 
121.38

>  <rotatable_bond_count>  (1907) 
5

>  <hydrogen_bond_acceptors>  (1907) 
6

>  <hydrogen_bond_donors>  (1907) 
6

>  <hydrogen_bond_acceptors_lipinski>  (1907) 
6

>  <hydrogen_bond_donors_lipinski>  (1907) 
6

>  <lipinski_rule_of_five_violations>  (1907) 
1

>  <aromatic_rings_count>  (1907) 
0

>  <qed_drug_likeliness>  (1907) 
0.26

>  <formal_charge>  (1907) 
0

>  <fractioncsp3>  (1907) 
1.00

>  <number_of_minimal_rings>  (1907) 
0

>  <van_der_walls_volume>  (1907) 
161.50

>  <contains_sugar>  (1907) 
True

>  <contains_ring_sugars>  (1907) 
False

>  <contains_linear_sugars>  (1907) 
True

>  <murcko_framework>  (1907) 
nan

>  <np_likeness>  (1907) 
1.14

>  <chemical_class>  (1907) 
Organooxygen compounds

>  <chemical_sub_class>  (1907) 
Carbohydrates and carbohydrate conjugates

>  <chemical_super_class>  (1907) 
Organic oxygen compounds

>  <direct_parent_classification>  (1907) 
Monosaccharides

>  <np_classifier_pathway>  (1907) 
Carbohydrates

>  <np_classifier_superclass>  (1907) 
Saccharides

>  <np_classifier_class>  (1907) 
Monosaccharides

>  <np_classifier_is_glycoside>  (1907) 
False

>  <organisms>  (1907) 
Abutilon indicum|Acanthospermum hispidum|Achaetomium cristalliferum|Achillea clypeolata|Actinosynnema mirum|Adenium somalense|Aegiceras corniculatum|Agaricus hortensis|Agaricus xanthodermus|Agathosma scaberula|Aglaia elaeagnoidea|Alaria angusta|Alibertia sessilis|Allium Tuberosum|Allium tuberosum|Allium tuberosum Rottl.ex Spreng.|Alternaria cucumerina|Amaranthus hybridus|Ammi majus|Andrachne rotundifolia|Angelica decursiva|Angylocalyx oligophyllus|Anisotes sessiliflorus|Anopterus glandulosus|Apium graveolens|Aplidium orthium|Apterostigma dentigerum|Arabidopsis thaliana|Aralia decaisneaa|Aralia decaisneana|Arisaema amurense|Arisaema consanguineum|Aristolochia clematitis|Aristolochia elegans|Armillaria mellea|Artemisia koidzumii|Ascophyllum nodosum|Ascoseira mirabilis|Aspergillus candidus|Aspergillus niger|Aspergillus quadrilineatus|Astragalus gummifer|Athanasia crithmifolia|Atroxima afzeliana|Balanophora harlandii|Beauveria felina|Benzoin praecox|Berberis julianae|Bifurcaria bifurcata|Bombyx mori|Brandisia hancei|Brenneria rubrifaciens|Bridelia ferruginea|Buddleja officinalis|Buddleja scordioides|Bystropogon origanifolius|Caesalpinia brevifolia|Cajanus cajan|Campylanthus salsoloides|Canella winterana|Cannabis sativa|Capsella bursa-pastoris|Cardamine pinnata|Cardiospermum halicacabum|Carum carvi|Carum carvi L.|Catunaregam spinosa|Centaurea nigrescens|Centella asiatica|Cerbera dilatata|Cetraria aculeata|Changium smyrnioides|Chiococca alba|Chorda filum|Chromolaena opadoclinia|Cichorium intybus|Cinnamosma fragrans|Cinnamosma madagascariensis|Cirsium japonicum|Cistanche deserticola|Cistanche phelypaea|Cistanche salsa|Cistanche tubulosa|Citrus japonica var. margarita|Cladiella krempfi|Cladonia convoluta|Cladonia foliacea|Cladonia grayi|Cladonia sandstedei|Cladostephus spongiosus var. verticillatus|Cleistanthus gracilis|Clerodendron serratum|Clerodendrum Serratum|Clerodendrum serratum|Cneorum pulverulentum|Cnidium monnieri|Cocos nucifera|Codonocarpus australis|Commelina Communis|Commelina communis|Conyza canadensis|Coptis teeta|Cordia sinensis|Cordiera sessilis|Cordyceps sinensis|Coreopsis fasciculata|Coriandrum sativum|Crataegus pinnatifida|Crateva nurvala|Crepis foetida|Crinum defixum|Croton setiger|Cuminum cymimum L|Cuminum cyminum|Cuphea appendiculata|Cuphea carthagenensis|Cuphea epilobiifolia|Cuphea wrightii|Curvularia ellisii|Cystoseira algeriensis|Cystoseira barbata|Cystoseira crinita|Cystoseira foeniculacea|Delphinium dzavakhischwilii|Delphinium freynii|Delphinium schmalhausenii|Dendrobium draconis|Deverra tortuosa|Dianella tasmanica|Dictyota dichotoma|Dioscoreophyllum cumminsii|Diospyros blancoi|Diospyros verrucosa|Distoma olivaceum|Dorstenia lindeniana|Dystaenia takesimana|Eleutherococcus giraldii|Emericella desertorum|Endarachne binghamiae|Eritrichium incanum|Escherichia coli|Eskemukerjea megacarpum|Euonymus nanoides|Euphorbia biglandulosa|Euphorbia neriifolia|Euphorbia plumerioides|Euphorbia segetalis|Evernia prunastri|Exocarpos cupressiformis|FOOD SAKE|Foeniculum vulgare|Fraxinus floribunda|Fraxinus ornus|Fraxinus raibocarpa|Fucus serratus|Fucus spiralis|Fucus vesiculosus|Ganoderma lucidum|Ganoderma sinense|Garcinia hombroniana|Gardenia erubescens|Gardenia jasminoides|Gardenia jasminoides var. grandiflora|Gardenia jasminoides var.grandiflora|Genipa americana|Globularia vulgaris|Globularia vulgaris L.|Goodenia strophiolata|Gymnocarpium dryopteris|Halopteris|Hansenia weberbaueriana|Hedera rhombea|Hedophyllum bongardianum|Helenium pinnatifidum|Hesperocyparis bakeri|Himalrandia tetrasperma|Himanthalia elongata|Himantormia lugubris|Hohenbuehelia serotina|Homo sapiens|Hypericum perforatum|Inga spectabilis|Inonotus obliquus|Iostephane heterophylla|Isaria cicadae|Ishige okamurae|Jaborosa odonelliana|Jacobaea subalpina|Jasminum azoricum|Jasminum fluminense|Jasminum sambac|Jasonia tuberosa|Juncus effusus|Kandelia candel|Lactobacillus casei|Laggera crispata|Laggera pterodonta|Laminaria digitata|Laminaria japonica|Laminaria saccharina|Leptolobium dasycarpum|Licaria aurea|Ligustrum lucidum|Ligustrum obtusifolium|Lumnitzera littorea|Lumnitzera racemosa|Lupinus cosentinii|Malus pumila|Mariannaea elegans|Melandryum firmum|Melodinus insulae-pinorum|Modiolus demissus|Montanoa revealii|Morinda citrifolia|Mortierella elongata|Murraya paniculata|Mycobacterium tuberculosis|Nectandra hihua|Neofusicoccum mangiferae|Neopicrorhiza scrophulariiflora|Nierembergia hippomanica|Nierembergia linariifolia|Nyctanthes Arbor|Nyctanthes arbor-tristis Linn.|Olea europaea|Olea verrucosa|Ophiocordyceps sinensis|Origanum vulgare|Orobanche coerulescens|Orobanche pycnostachya|Oscillatoria princeps|Osmanthus heterophyllus|Osmanthus ilicifolius|Osmanthus × fortunei|Oxyceros horridus|Ozoroa insignis|Padina antillarum|Padina tetrastromatica|Parastrephia lepidophylla|Pavetta indica|Paxillus involutus|Pedicularis chamissonis|Pedicularis muscicola|Penstemon secundiflorus|Perovskia abrotanoides|Peucedanum mashanense|Peucedanum praeruptorum|Phasianus colchicus|Phedimus kamtschaticus|Phialophora alba|Phlogacanthus thyrsiflorus|Phoebe porosa|Phormia regina|Photinia serratifolia|Phyllanthus tenellus|Phyllanthus velutinus|Phytolacca acinosa|Picrorhiza kurrooa|Picrorhiza scrophulariiflora|Pimpinella anisum|Piper arboreum|Pisolithus arhizus|Pisolithus tinctorius|Plagiochasma intermedium|Platycodon grandiflorus|Plectranthus comosus|Pleogyne cunninghami|Pleogyne cunninghamii|Pleurotus lampas|Pleurotus ostreatus|Plocamium angustum|Poa annua|Podanthus mitiqui|Pogostemon cablin|Polemonium caeruleum|Polyalthia nemoralis|Polygala amara|Polygala glomerata|Polyporus umbellatus|Pouzolzia occidentalis|Primula pulverulenta|Prunus armeniaca|Pseudallescheria boydii|Psydrax subcordatus|Pteris ensiformis|Punica granatum|Pyrola decorata|Quercus serrata|Ramalina fraxinea|Rehmannia Glutinosa|Rehmannia glutinosa|Retzia capensis|Rhamnus japonica|Rheum maximowiczii|Rhinella arenarum|Rothmannia longiflora|Rubus idaeus|Rubus rosa|Ruta graveolens|Ruta microcarpa|Saccharina cichorioides|Saccharina japonica|Saccharina latissima|Saccorhiza polyschides|Salsola collina|Salvia deserta|Salvia deserti|Salvia mirzayanii|Salvia sclarea|Saposhnikovia divaricata|Sarcomyxa serotina|Sargassum muticum|Schizonepeta multifida|Schumanniophyton magnificum|Scoparia dulcis|Scrophulariaceae|Scyphiphora hydrophylacea|Scyphiphora hydrophyllacea|Selaginella pulvinata|Selaginella tamariscina|Selinum carvifolium|Septoria pistaciarum|Sesamoides pygmaea|Seseli|Seseli foliosum|Sidastrum acuminatum|Silene tunicoides|Siraitia grosvenorii|Sonchus Arvensis|Sonchus arvensis|Sonchus asper|Sonneratia alba|Sorbus aucuparia|Sphaerotrichia divaricata|Stenocarpus sinuatus|Stephania sutchuenensis|Stereocaulon ramulosum|Stiff silkworm|Streptomyces filamentosus|Streptomyces fumanus|Streptomyces lavendofoliae|Streptomyces odorifer|Streptomyces roseosporus Lsr2-deletion mutant|Strychnos ledermannii|Stypocaulon|Suckleya suckleyana|Swertia japonica|Syncolostemon parviflorus|Talaromyces verruculosus|Tamarix gallica|Tamilnadia uliginosa|Taonia atomaria|Tarenna gracilipes|Tarenna gracilipes (HAY.) OHWI|Taxus cuspidata|Tephrosia procumbens|Tetraneuris acaulis|Teucrium lepicephalum|Thuja plicata|Thyanta pallidovirens|Tolypothrix tjipanasensis|Torilis japonica|Tovomita brasiliensis|Tricalysia okelensis|Triglochin maritima|Turbo argyrostoma|Typha Angustata|Typha angustata|Unonopsis glaucopetala|Urtica triangularis|Vaccaria hispanica|Vaccinium oxycoccos|Vellozia declinans|Veronica austriaca L.|Veronica japonensis|Veronica kiusiana|Veronica lavaudiana|Veronica ligustrifolia A.Cunn|Veronica spuria|Veronica thomsonii|Veronica x andersonii Lindl. et Pax|Veronicastrum sibiricum|Veronicastrum virginicum (L.) Farw.|Viburnum davidii|Viburnum phlebotrichum|Wolfiporia cocos|Wulfenia baldaccii Degen|Wulfenia orientalis BOISS.|Xestia c-nigrum|Zanthoxylum monophyllum|Zieria smithii|channelled wrack|pomegranate|straw mushroom|tomato

>  <collections>  (1907) 
ANPDB|Australian natural products|CMAUP (cCollective molecular activities of useful plants)|ChEBI NPs|ChemSpider NPs|DrugBankNP|EMNPD|KNApSaCK|Latin America dataset|NANPDB (Natural Products from Northern African Sources)|NPASS|NPEdia|NuBBEDB|Phyto4Health|StreptomeDB|Super Natural II|TCMDB-Taiwan (Traditional Chinese Medicine database)|TIPdb (database of Taiwan indigenous plants)|VietHerb|WikiData Natural Products

>  <dois>  (1907) 
10.1002/ANIE.198510631|10.1002/CHIN.200331232|10.1002/JSFA.2740500106|10.1007/978-3-642-58439-8_19|10.1007/BF00198210|10.1007/BF00564007|10.1007/BF00568227|10.1007/BF00570205|10.1007/BF00598313|10.1007/BF00629879|10.1007/BF00630328|10.1007/BF00697055|10.1007/BF01185929|10.1007/BF02855699|10.1007/BF02968244|10.1007/S11240-012-0199-5|10.1016/0008-6215(88)85057-2|10.1016/0031-9422(88)80021-9|10.1016/0031-9422(88)80770-2|10.1016/0031-9422(88)80771-4|10.1016/0031-9422(89)85058-7|10.1016/0031-9422(91)83759-E|10.1016/0031-9422(91)84139-J|10.1016/0031-9422(91)85062-5|10.1016/0031-9422(93)85365-X|10.1016/0031-9422(95)00731-8|10.1016/0378-8741(90)90067-4|10.1016/J.BSE.2012.02.004|10.1016/J.FOODCHEM.2019.125649|10.1016/J.PHYTOCHEM.2006.07.008|10.1016/S0021-9673(01)88498-3|10.1016/S0031-9422(00)80808-0|10.1016/S0031-9422(00)83125-8|10.1016/S0031-9422(00)84092-3|10.1016/S0031-9422(00)84808-6|10.1016/S0031-9422(00)85498-9|10.1016/S0031-9422(00)86666-2|10.1016/S0031-9422(00)91068-9|10.1016/S0031-9422(00)97305-9|10.1016/S0031-9422(00)97906-8|10.1016/S0031-9422(00)97948-2|10.1016/S0031-9422(01)00216-3|10.1016/S0031-9422(01)00238-2|10.1016/S0031-9422(02)00288-1|10.1016/S0031-9422(03)00103-1|10.1016/S0031-9422(03)00179-1|10.1016/S0031-9422(98)00752-3|10.1016/S0044-328X(84)80097-5|10.1016/S0140-6736(01)46204-0|10.1016/S0176-1617(84)80038-3|10.1016/S0305-1978(02)00032-7|10.1016/S0305-1978(02)00061-3|10.1016/S0305-1978(02)00159-X|10.1016/S0308-8146(00)00268-5|10.1016/S0969-2126(98)00029-X|10.1021/JF9703314|10.1021/NP0495985|10.1021/NP0495985.S001|10.1021/NP0495985.S002|10.1021/NP0601298|10.1021/NP070474C|10.1021/NP100902F|10.1021/NP200233P|10.1021/NP50008A001|10.1021/NP50036A025|10.1021/NP50062A026|10.1021/NP50071A041|10.1021/NP960456N|10.1038/MSB.2011.65|10.1038/msb.2011.65|10.1039/P19870001735|10.1055/S-0028-1097592|10.1055/S-0036-1596440|10.1055/S-2004-827240|10.1055/S-2006-957645|10.1055/S-2006-959585|10.1055/S-2006-962416|10.1055/S-2006-962751|10.1071/ch9600150|10.1071/ch9680783|10.1080/14786419.2018.1484457|10.1080/15592324.2016.1249080|10.1111/J.1365-2621.1980.TB02616.X|10.1111/J.1365-2621.1985.TB13790.X|10.1128/JB.112.2.840-848.1972|10.1128/JB.122.3.1189-1199.1975|10.1128/JB.124.1.26-38.1975|10.1177/1934578X1501001233|10.1186/S12870-019-2042-1|10.1248/CPB.32.1729|10.1248/CPB.33.1367|10.1248/CPB.40.942|10.1248/CPB.46.1583|10.1248/CPB.47.988|10.1248/CPB.51.32|10.1248/CPB.54.669|10.1248/CPB.56.1153|10.1248/YAKUSHI1947.104.4_390|10.1248/YAKUSHI1947.105.5_442|10.1248/YAKUSHI1947.105.6_542|10.1248/YAKUSHI1947.115.12_992|10.1248/YAKUSHI1947.91.1_137|10.1271/BBB.60.654|10.1351/PAC198658050653|10.1515/BOTM.1987.30.5.371|10.1515/ZNB-1985-0230|10.1515/ZNB-2011-0613|10.1590/S0103-50532003000100008|10.1590/S0103-50532007000700017|10.21608/BFSA.1984.89861|10.21767/2172-0479.100132|10.3109/13880208509070685|10.3109/13880209109082857|10.3136/NSKKK1962.32.338|10.4197/SCI.16-1.4|10.4268/CJCMM20101214|10.4268/CJCMM20111611|10.4268/CJCMM20150419|10.4268/CJCMM20150722|10.5586/ASBP.1979.002

>  <synonyms>  (1907) 
(2R,3R,4R,5R)-hexane-1,2,3,4,5,6-hexol|(D)-mannitol|1,2,3,4,5,6-Hexanehexol|133-43-7|287100-73-6|3OWL53L36A|4-01-00-02841 (Beilstein Handbook Reference)|69-65-8|85085-15-0|87-78-5|AB00443917_06|AC-12776|AC-14054|AI3-19511|AKOS006280947|AMY33410|ARIDOL KIT|AS-30501|Aridol|Aridol Bronchial Challenge Test Kit|BCP9000575|BRN 1721898|Bronchitol|Bronchitol (TN)|C00392|CAS-69-65-8|CCG-266445|CCRIS 369|CHEBI:16899|CHEBI:29864|CHEMBL689|CURESTEM CELL HEALER C20|Cordycepate|Cordycepic acid|Crystalline mannitol extra-fine|Crystalline mannitol fine|Crystalline mannitol standard|D-(-)-Mannitol|D-MANNITOL [JAN]|D-MANNITOL [WHO-IP]|D-Mannit|D-Mannit 1000 microg\/mL in Methanol|D-Mannitol (JP17)|D-Mannitol (Osmitrol)|D-Mannitol, >=98%|D-Mannitol, >=99.9999% (metals basis), for boron determination|D-Mannitol, ACS reagent|D-Mannitol, ACS reagent, for microbiology, >=99.0%|D-Mannitol, AR, >=99%|D-Mannitol, BioUltra, >=99.0% (sum of enantiomers, HPLC)|D-Mannitol, BioXtra, >=98% (GC)|D-Mannitol, Biochemical grade|D-Mannitol, EP, USP grade|D-Mannitol, NIST(R) SRM(R) 920|D-Mannitol, SAJ first grade, >=99.0%|D-Mannitol, SAJ special grade, >=99.0%|D-Mannitol, meets EP, FCC, USP testing specifications|D-Mannitol, p.a., 96.0-101.5%|D-Mannitol, plant cell culture tested|D-Mannitol, tested according to Ph.Eur.|D-mitobronitol|D00062|DB00742|DL-Mannitol|DTXCID001324372|DTXCID603235|DTXSID1023235|DTXSID30858955|Diosmol|E 421|E-421|E421|ED1D1E61-FEFB-430A-AFDC-D1F4A957FC3D|EINECS 200-711-8|EINECS 201-770-2|EN300-212188|Epitope ID:114705|GD11 Rx SCM C5|HMS2230N11|HSDB 714|HY-N0378|Hexahydroxyhexane|INS NO.421|INS-421|ISOMALT IMPURITY B (EP IMPURITY)|ISOMALT IMPURITY, MANNITOL- [USP IMPURITY]|Invenex|Isomalt impurity, mannitol-|Isotol|LACTITOL MONOHYDRATE IMPURITY C [EP IMPURITY]|M0044|MANNITOL (EP IMPURITY)|MANNITOL (EP MONOGRAPH)|MANNITOL (II)|MANNITOL (MART.)|MANNITOL (USP-RS)|MANNITOL 10% W\/ DEXTROSE 5% IN DISTILLED WATER|MANNITOL 15% W\/ DEXTROSE 5% IN SODIUM CHLORIDE 0.45%|MANNITOL 25%|MANNITOL COMPONENT OF SORBITOL-MANNITOL|MANNITOL [FCC]|MANNITOL [HSDB]|MANNITOL [II]|MANNITOL [MART.]|MANNITOL [ORANGE BOOK]|MANNITOL [USP MONOGRAPH]|MANNITOL [USP-RS]|MANNITOL [VANDF]|MANNITOL [WHO-DD]|MANNITOLUM [WHO-IP LATIN]|MFCD00064287|MLS001335977|MTL|Manitol|Maniton s|Maniton-S|Manna sugar|Mannazucker|Mannidex|Mannidex 16700|Mannigen|Mannistol|Mannit p|Mannite|Mannitol (USP)|Mannitol (VAN)|Mannitol 10%|Mannitol 200|Mannitol 5%|Mannitol 5% In Plastic Container|Mannitol 60|Mannitol [USAN]|Mannitol [USP]|Mannitol m300|Mannitol, D-|Mannitol, European Pharmacopoeia (EP) Reference Standard|Mannitol, Pharmaceutical Secondary Standard; Certified Reference Material|Mannitol, United States Pharmacopeia (USP) Reference Standard|Mannitol,(S)|Mannitol;Mannite|Mannitolum|Mannogem 2080|Marine Crystal|NCGC00164246-01|NCGC00254277-01|NCGC00259038-01|NCI-C50362|NS00068035|NSC 407017|NSC 9256|OSMITROL 5% IN WATER IN PLASTIC CONTAINER|Osmitrol|Osmitrol (TN)|Osmitrol 5% In Water|Osmofundin|Osmosal|POTASSIUMNONAFLUORO-T-BUTOXIDE|Pearlitol 160 c|Pearlitol 200 sd|Pearlitol 25 c|Pearlitol 300 dc|Q-101039|Q407646|Resectisol|Resectisol In Plastic Container|S2381|SCHEMBL919|SDM No. 35|SMR000857324|SORBITOL-MANNITOL COMPONENT MANNITOL|SR-01000838849|SW220287-1|Tox21_112092|Tox21_201487|Tox21_300483|UNII-3OWL53L36A|Z1198149813|bmse000099|manita|mannitol|mannitol-d

>  <cas>  (1907) 
69-65-8|87-78-5|133-43-7|287100-73-6|85085-15-0

$$$$

     RDKit          2D

 27 29  0  0  0  0  0  0  0  0999 V2000
   -4.6291   -3.3069    0.0000 C   0  0  0  0  0  0  0  0  0  0  0  0
   -3.1399   -3.1278    0.0000 O   0  0  0  0  0  0  0  0  0  0  0  0
   -2.5503   -1.7486    0.0000 C   0  0  0  0  0  0  0  0  0  0  0  0
   -1.0611   -1.5695    0.0000 C   0  0  0  0  0  0  0  0  0  0  0  0
   -0.1613   -2.7697    0.0000 C   0  0  0  0  0  0  0  0  0  0  0  0
    1.3279   -2.5906    0.0000 C   0  0  0  0  0  0  0  0  0  0  0  0
    1.9175   -1.2113    0.0000 C   0  0  0  0  0  0  0  0  0  0  0  0
    3.4067   -1.0322    0.0000 O   0  0  0  0  0  0  0  0  0  0  0  0
    4.3065   -2.2324    0.0000 C   0  0  0  0  0  0  0  0  0  0  0  0
    5.7957   -2.0533    0.0000 C   0  0  0  0  0  0  0  0  0  0  0  0
    3.7169   -3.6117    0.0000 O   0  0  0  0  0  0  0  0  0  0  0  0
    1.0177   -0.0111    0.0000 C   0  0  0  0  0  0  0  0  0  0  0  0
    0.5828    1.4245    0.0000 C   0  0  0  0  0  0  0  0  0  0  0  0
    1.6085    2.5189    0.0000 C   0  0  0  0  0  0  0  0  0  0  0  0
    1.1735    3.9545    0.0000 C   0  0  0  0  0  0  0  0  0  0  0  0
   -0.2620    3.5195    0.0000 C   0  0  0  0  0  0  0  0  0  0  0  0
    2.6090    4.3895    0.0000 C   0  0  0  0  0  0  0  0  0  0  0  0
    0.7385    5.3900    0.0000 O   0  0  0  0  0  0  0  0  0  0  0  0
    2.3559    0.6666    0.0000 O   0  0  0  0  0  0  0  0  0  0  0  0
    3.6119   -0.1535    0.0000 C   0  0  0  0  0  0  0  0  0  0  0  0
   -0.4715   -0.1902    0.0000 C   0  0  0  0  0  0  0  0  0  0  0  0
   -1.3713    1.0100    0.0000 N   0  0  0  0  0  0  0  0  0  0  0  0
   -2.8605    0.8309    0.0000 C   0  0  0  0  0  0  0  0  0  0  0  0
   -3.4501   -0.5484    0.0000 C   0  0  0  0  0  0  0  0  0  0  0  0
   -4.9440   -0.4139    0.0000 C   0  0  0  0  0  0  0  0  0  0  0  0
   -5.2778    1.0485    0.0000 C   0  0  0  0  0  0  0  0  0  0  0  0
   -3.9901    1.8178    0.0000 O   0  0  0  0  0  0  0  0  0  0  0  0
  1  2  1  0
  2  3  1  0
  3  4  2  0
  4  5  1  0
  5  6  1  0
  6  7  1  0
  7  8  1  6
  8  9  1  0
  9 10  1  0
  9 11  2  0
  7 12  1  0
 12 13  1  0
 13 14  2  0
 14 15  1  0
 15 16  1  0
 15 17  1  0
 15 18  1  0
 12 19  1  1
 19 20  1  0
 12 21  1  0
 21 22  2  0
 22 23  1  0
 23 24  2  0
 24 25  1  0
 25 26  2  0
 26 27  1  0
 24  3  1  0
 21  4  1  0
 27 23  1  0
M  END
>  <identifier>  (1908) 
CNP0229630.1

>  <canonical_smiles>  (1908) 
COC1=C2CC[C@@H](OC(C)=O)[C@](/C=C/C(C)(C)O)(OC)C2=NC2=C1C=CO2

>  <standard_inchi>  (1908) 
InChI=1S/C20H25NO6/c1-12(22)27-15-7-6-13-16(24-4)14-8-11-26-18(14)21-17(13)20(15,25-5)10-9-19(2,3)23/h8-11,15,23H,6-7H2,1-5H3/b10-9+/t15-,20+/m1/s1

>  <standard_inchi_key>  (1908) 
COPSXBJZFMKKPE-VYJOMICCSA-N

>  <name>  (1908) 
nan

>  <iupac_name>  (1908) 
[(7~{R},8~{R})-8-[(~{E})-3-hydroxy-3-methyl-but-1-enyl]-4,8-dimethoxy-6,7-dihydro-5~{H}-furo[2,3-b]quinolin-7-yl] acetate

>  <annotation_level>  (1908) 
4

>  <total_atom_count>  (1908) 
52

>  <heavy_atom_count>  (1908) 
27

>  <molecular_weight>  (1908) 
375.42

>  <exact_molecular_weight>  (1908) 
375.16819

>  <molecular_formula>  (1908) 
C20H25NO6

>  <alogp>  (1908) 
2.88

>  <topological_polar_surface_area>  (1908) 
91.02

>  <rotatable_bond_count>  (1908) 
5

>  <hydrogen_bond_acceptors>  (1908) 
7

>  <hydrogen_bond_donors>  (1908) 
1

>  <hydrogen_bond_acceptors_lipinski>  (1908) 
7

>  <hydrogen_bond_donors_lipinski>  (1908) 
1

>  <lipinski_rule_of_five_violations>  (1908) 
0

>  <aromatic_rings_count>  (1908) 
2

>  <qed_drug_likeliness>  (1908) 
0.63

>  <formal_charge>  (1908) 
0

>  <fractioncsp3>  (1908) 
0.50

>  <number_of_minimal_rings>  (1908) 
3

>  <van_der_walls_volume>  (1908) 
nan

>  <contains_sugar>  (1908) 
False

>  <contains_ring_sugars>  (1908) 
False

>  <contains_linear_sugars>  (1908) 
False

>  <murcko_framework>  (1908) 
n1c2occc2cc3c1CCCC3

>  <np_likeness>  (1908) 
1.99

>  <chemical_class>  (1908) 
Furopyridines

>  <chemical_sub_class>  (1908) 
Furopyridines

>  <chemical_super_class>  (1908) 
Organoheterocyclic compounds

>  <direct_parent_classification>  (1908) 
Furopyridines

>  <np_classifier_pathway>  (1908) 
Alkaloids

>  <np_classifier_superclass>  (1908) 
Tryptophan alkaloids

>  <np_classifier_class>  (1908) 
Quinoline alkaloids

>  <np_classifier_is_glycoside>  (1908) 
False

>  <organisms>  (1908) 
Almeidea rubra

>  <collections>  (1908) 
Latin America dataset|NuBBEDB|WikiData Natural Products|ZINC NP

>  <dois>  (1908) 
10.1590/S0103-50532005000300018

>  <synonyms>  (1908) 
rel-(7R8R)-8-[(E)-3-hydroxy-3-methyl-1-butenyl]-48-dimethoxy-5678- tetrahydrofuro[23-b]quinoline-7-yl acetate

>  <cas>  (1908) 
nan

$$$$

     RDKit          2D

 30 33  0  0  0  0  0  0  0  0999 V2000
    7.2099   -2.1046    0.0000 C   0  0  0  0  0  0  0  0  0  0  0  0
    5.7808   -1.6487    0.0000 C   0  0  0  0  0  0  0  0  0  0  0  0
    5.4611   -0.1831    0.0000 C   0  0  0  0  0  0  0  0  0  0  0  0
    4.0321    0.2728    0.0000 C   0  0  0  0  0  0  0  0  0  0  0  0
    3.7123    1.7383    0.0000 C   0  0  0  0  0  0  0  0  0  0  0  0
    4.8217    2.7479    0.0000 C   0  0  0  0  0  0  0  0  0  0  0  0
    2.2833    2.1942    0.0000 C   0  0  0  0  0  0  0  0  0  0  0  0
    1.8121    3.6183    0.0000 C   0  0  0  0  0  0  0  0  0  0  0  0
    0.3122    3.6102    0.0000 C   0  0  0  0  0  0  0  0  0  0  0  0
   -0.1437    2.1812    0.0000 C   0  0  0  0  0  0  0  0  0  0  0  0
   -1.5108    1.5638    0.0000 C   0  0  0  0  0  0  0  0  0  0  0  0
   -2.7290    2.4389    0.0000 C   0  0  0  0  0  0  0  0  0  0  0  0
   -4.0960    1.8215    0.0000 C   0  0  0  0  0  0  0  0  0  0  0  0
   -4.2448    0.3289    0.0000 C   0  0  0  0  0  0  0  0  0  0  0  0
   -5.6119   -0.2885    0.0000 C   0  0  0  0  0  0  0  0  0  0  0  0
   -6.8301    0.5866    0.0000 C   0  0  0  0  0  0  0  0  0  0  0  0
   -5.7607   -1.7811    0.0000 C   0  0  0  0  0  0  0  0  0  0  0  0
   -7.1277   -2.3986    0.0000 O   0  0  0  0  0  0  0  0  0  0  0  0
   -4.5424   -2.6563    0.0000 C   0  0  0  0  0  0  0  0  0  0  0  0
   -3.1754   -2.0389    0.0000 C   0  0  0  0  0  0  0  0  0  0  0  0
   -3.0266   -0.5463    0.0000 C   0  0  0  0  0  0  0  0  0  0  0  0
   -1.8084   -1.4214    0.0000 C   0  0  0  0  0  0  0  0  0  0  0  0
   -1.6596    0.0712    0.0000 C   0  0  0  0  0  0  0  0  0  0  0  0
   -0.4413   -0.8040    0.0000 C   0  0  0  0  0  0  0  0  0  0  0  0
    0.9257   -0.1866    0.0000 C   0  0  0  0  0  0  0  0  0  0  0  0
    1.0745    1.3060    0.0000 C   0  0  0  0  0  0  0  0  0  0  0  0
    2.3775    0.5630    0.0000 C   0  0  0  0  0  0  0  0  0  0  0  0
    4.6715   -2.6583    0.0000 C   0  0  0  0  0  0  0  0  0  0  0  0
    4.9912   -4.1238    0.0000 C   0  0  0  0  0  0  0  0  0  0  0  0
    3.2424   -2.2024    0.0000 C   0  0  0  0  0  0  0  0  0  0  0  0
  1  2  2  0
  2  3  1  0
  3  4  1  0
  4  5  1  0
  5  6  1  6
  5  7  1  0
  7  8  1  6
  8  9  1  0
 10  9  1  6
 10 11  1  0
 11 12  1  1
 12 13  1  0
 14 13  1  6
 14 15  1  0
 15 16  1  1
 15 17  1  0
 17 18  1  6
 17 19  1  0
 19 20  1  0
 20 21  1  0
 21 22  1  6
 21 23  1  0
 23 24  1  6
 24 25  1  0
 25 26  1  0
 26 27  1  6
  2 28  1  0
 28 29  1  0
 28 30  1  0
 26  7  1  0
 26 10  1  0
 23 11  1  0
 21 14  1  0
M  END
>  <identifier>  (1909) 
CNP0144365.1

>  <canonical_smiles>  (1909) 
C=C(CC[C@@H](C)[C@H]1CC[C@H]2[C@@H]3CC[C@H]4[C@H](C)[C@@H](O)CC[C@]4(C)[C@H]3CC[C@]12C)C(C)C

>  <standard_inchi>  (1909) 
InChI=1S/C29H50O/c1-18(2)19(3)8-9-20(4)23-12-13-25-22-10-11-24-21(5)27(30)15-17-29(24,7)26(22)14-16-28(23,25)6/h18,20-27,30H,3,8-17H2,1-2,4-7H3/t20-,21+,22+,23-,24+,25+,26+,27+,28-,29+/m1/s1

>  <standard_inchi_key>  (1909) 
BTBRBCIRTOKWDH-CNDFOAKRSA-N

>  <name>  (1909) 
(3S,4S,5S,8S,9S,10R,13R,14S,17R)-4,10,13-trimethyl-17-[(2R)-6-methyl-5-methylideneheptan-2-yl]-2,3,4,5,6,7,8,9,11,12,14,15,16,17-tetradecahydro-1H-cyclopenta[a]phenanthren-3-ol

>  <iupac_name>  (1909) 
(3~{S},4~{S},5~{S},8~{S},9~{S},10~{R},13~{R},14~{S},17~{R})-17-[(1~{R})-1,5-dimethyl-4-methylene-hexyl]-4,10,13-trimethyl-2,3,4,5,6,7,8,9,11,12,14,15,16,17-tetradecahydro-1~{H}-cyclopenta[a]phenanthren-3-ol

>  <annotation_level>  (1909) 
5

>  <total_atom_count>  (1909) 
80

>  <heavy_atom_count>  (1909) 
30

>  <molecular_weight>  (1909) 
414.72

>  <exact_molecular_weight>  (1909) 
414.38617

>  <molecular_formula>  (1909) 
C29H50O

>  <alogp>  (1909) 
7.88

>  <topological_polar_surface_area>  (1909) 
20.23

>  <rotatable_bond_count>  (1909) 
5

>  <hydrogen_bond_acceptors>  (1909) 
1

>  <hydrogen_bond_donors>  (1909) 
1

>  <hydrogen_bond_acceptors_lipinski>  (1909) 
1

>  <hydrogen_bond_donors_lipinski>  (1909) 
1

>  <lipinski_rule_of_five_violations>  (1909) 
1

>  <aromatic_rings_count>  (1909) 
0

>  <qed_drug_likeliness>  (1909) 
0.45

>  <formal_charge>  (1909) 
0

>  <fractioncsp3>  (1909) 
0.93

>  <number_of_minimal_rings>  (1909) 
4

>  <van_der_walls_volume>  (1909) 
445.61

>  <contains_sugar>  (1909) 
False

>  <contains_ring_sugars>  (1909) 
False

>  <contains_linear_sugars>  (1909) 
False

>  <murcko_framework>  (1909) 
C1CCC2C(C1)CCC3C4CCCC4CCC23

>  <np_likeness>  (1909) 
2.69

>  <chemical_class>  (1909) 
Steroids and steroid derivatives

>  <chemical_sub_class>  (1909) 
Ergostane steroids

>  <chemical_super_class>  (1909) 
Lipids and lipid-like molecules

>  <direct_parent_classification>  (1909) 
Ergosterols and derivatives

>  <np_classifier_pathway>  (1909) 
Terpenoids

>  <np_classifier_superclass>  (1909) 
Steroids

>  <np_classifier_class>  (1909) 
Cholestane steroids

>  <np_classifier_is_glycoside>  (1909) 
False

>  <organisms>  (1909) 
Amietophrynus mauritanicus|Bruguiera parviflora|Cordylanthus parviflorus|Feretia apodanthera|Gorgonia mariae|Guarea kunthiana|Lycoris incarnata|Oplopanax japonicus|Phallusia nigra|Plexaura homomalla|Rabdosia inflexa|Rumex crispus|Salvia forskahlei|Scutellaria altissima|Sinularia depressa|Zoanthus sociatus

>  <collections>  (1909) 
CMAUP (cCollective molecular activities of useful plants)|Latin America dataset|NPASS|NuBBEDB|Super Natural II|WikiData Natural Products

>  <dois>  (1909) 
10.1002/BSCB.19810900913|10.1002/bscb.19810900913|10.1016/0031-9422(82)80085-X|10.1016/0039-128X(82)90021-6|10.1016/S0039-128X(83)90220-9|10.1016/j.bmcl.2012.12.087

>  <synonyms>  (1909) 
(3beta,4alpha,5alpha)-4-methylergost-24(28)-ene-3-ol|BDBM50427029|CHEMBL2322192|Zoanthosterol, 4\u221a\u00e9\u00ac\u00b1-methyl-5\u221a\u00e9\u00ac\u00b1-ergosta-24(28)-en-3\u221a\u00e9\u00ac\u2264-ol

>  <cas>  (1909) 
nan

$$$$

     RDKit          2D

 16 18  0  0  0  0  0  0  0  0999 V2000
   -1.5512    3.2487    0.0000 C   0  0  0  0  0  0  0  0  0  0  0  0
   -0.6269    2.0673    0.0000 C   0  0  0  0  0  0  0  0  0  0  0  0
    0.7994    2.5319    0.0000 C   0  0  0  0  0  0  0  0  0  0  0  0
    2.1906    1.9710    0.0000 C   0  0  0  0  0  0  0  0  0  0  0  0
    2.8957    0.6471    0.0000 C   0  0  0  0  0  0  0  0  0  0  0  0
    4.0112   -0.3558    0.0000 O   0  0  0  0  0  0  0  0  0  0  0  0
    2.5849   -0.8203    0.0000 C   0  0  0  0  0  0  0  0  0  0  0  0
    3.2901   -2.1443    0.0000 C   0  0  0  0  0  0  0  0  0  0  0  0
    1.4036   -1.7447    0.0000 C   0  0  0  0  0  0  0  0  0  0  0  0
   -0.0955   -1.6935    0.0000 C   0  0  0  0  0  0  0  0  0  0  0  0
   -1.2110   -0.6906    0.0000 C   0  0  0  0  0  0  0  0  0  0  0  0
   -1.4208    0.7947    0.0000 C   0  0  0  0  0  0  0  0  0  0  0  0
   -2.9061    0.5848    0.0000 C   0  0  0  0  0  0  0  0  0  0  0  0
   -2.6962   -0.9004    0.0000 C   0  0  0  0  0  0  0  0  0  0  0  0
   -2.4864   -2.3857    0.0000 C   0  0  0  0  0  0  0  0  0  0  0  0
   -4.1815   -1.1103    0.0000 C   0  0  0  0  0  0  0  0  0  0  0  0
  1  2  2  0
  2  3  1  0
  3  4  1  0
  5  4  1  1
  5  6  1  0
  6  7  1  0
  7  8  1  1
  7  9  1  0
  9 10  1  0
 11 10  1  1
 11 12  1  0
 12 13  1  6
 13 14  1  0
 14 15  1  0
 14 16  1  0
 12  2  1  0
  7  5  1  0
 14 11  1  0
M  END
>  <identifier>  (1910) 
CNP0274815.1

>  <canonical_smiles>  (1910) 
C=C1CC[C@H]2O[C@]2(C)CC[C@@H]2[C@@H]1CC2(C)C

>  <standard_inchi>  (1910) 
InChI=1S/C15H24O/c1-10-5-6-13-15(4,16-13)8-7-12-11(10)9-14(12,2)3/h11-13H,1,5-9H2,2-4H3/t11-,12-,13-,15-/m1/s1

>  <standard_inchi_key>  (1910) 
NVEQFIOZRFFVFW-RGCMKSIDSA-N

>  <name>  (1910) 
Caryophyllene oxide

>  <iupac_name>  (1910) 
(1~{R},4~{R},6~{R},10~{S})-4,12,12-trimethyl-9-methylene-5-oxatricyclo[8.2.0.0^{4,6}]dodecane

>  <annotation_level>  (1910) 
5

>  <total_atom_count>  (1910) 
40

>  <heavy_atom_count>  (1910) 
16

>  <molecular_weight>  (1910) 
220.36

>  <exact_molecular_weight>  (1910) 
220.18272

>  <molecular_formula>  (1910) 
C15H24O

>  <alogp>  (1910) 
3.94

>  <topological_polar_surface_area>  (1910) 
12.53

>  <rotatable_bond_count>  (1910) 
0

>  <hydrogen_bond_acceptors>  (1910) 
1

>  <hydrogen_bond_donors>  (1910) 
0

>  <hydrogen_bond_acceptors_lipinski>  (1910) 
1

>  <hydrogen_bond_donors_lipinski>  (1910) 
0

>  <lipinski_rule_of_five_violations>  (1910) 
0

>  <aromatic_rings_count>  (1910) 
0

>  <qed_drug_likeliness>  (1910) 
0.44

>  <formal_charge>  (1910) 
0

>  <fractioncsp3>  (1910) 
0.87

>  <number_of_minimal_rings>  (1910) 
3

>  <van_der_walls_volume>  (1910) 
231.74

>  <contains_sugar>  (1910) 
False

>  <contains_ring_sugars>  (1910) 
False

>  <contains_linear_sugars>  (1910) 
False

>  <murcko_framework>  (1910) 
O1C2CCCC3CCC3CCC12

>  <np_likeness>  (1910) 
3.68

>  <chemical_class>  (1910) 
Prenol lipids

>  <chemical_sub_class>  (1910) 
Sesquiterpenoids

>  <chemical_super_class>  (1910) 
Lipids and lipid-like molecules

>  <direct_parent_classification>  (1910) 
Sesquiterpenoids

>  <np_classifier_pathway>  (1910) 
Terpenoids

>  <np_classifier_superclass>  (1910) 
Sesquiterpenoids

>  <np_classifier_class>  (1910) 
Caryophyllane sesquiterpenoids

>  <np_classifier_is_glycoside>  (1910) 
False

>  <organisms>  (1910) 
Abies cilicica|Ables balsamea|Abutilon indicum|Acamptopappus sphaerocephalus|Acer spicatum|Achillea coarctata|Achillea erba-rotta|Achillea millefolium|Achillea moschata|Achillea nana|Achillea nobilis|Achillea ptarmica|Achyrospermum africanum|Aconitum sajanense|Acorus calamus|Acorus calanus L.|Acronychia laurifolia|Actinobole uliginosum|Actinoplanes ianthinogenes|Aegle marmelos|Aframomum angustifolium|Aframomum cereum|Aframomum melegueta|Aframomum sceptrum|Agastache foeniculum|Agastache rugosa|Agave deserti|Ageratina ligustrina|Ageratum conyzoides|Aglaia foveolata|Aglaia leucophylla|Aglaia pyramidata|Agrimonia pilosa|Aiouea costaricensis|Akebia quinata|Akebia trifoliata|Aloysia citriodora|Aloysia citrodora|Aloysia gratissima|Aloysia triphylla|Alpinia breviligulata|Alpinia chinensis|Alpinia flabellata|Alpinia galanga|Alpinia latilabris|Alpinia oxyphylla|Alpinia zerumbet|Alternaria bataticola|Amyris elemifera|Andinobates bombetes|Anemone coronaria|Angelica japonica|Annona reticulata|Annona squamosa|Anthemis aciphylla|Anthemis aciphylla BOISS.var.discoidea BOISS|Anthyllis hermanniae|Antidesma laciniatum|Aphyllocladus denticulatus|Apium graveolens|Aquilaria agallochum|Aquilaria sinensis|Aristolochia birostris|Arnebia euchroma|Arnebia guttata|Artabotrys Uncinatus|Artabotrys hexapetalus|Artabotrys lastoursvillensis|Artabotrys stenopetalus|Artabotrys uncinatus|Artemisia Annua|Artemisia Vulgaris|Artemisia absinthium|Artemisia annua|Artemisia annua L.|Artemisia annua L.cultivar Jwarharti|Artemisia apiacea|Artemisia arborescens|Artemisia argyi|Artemisia capillaris|Artemisia jacutica|Artemisia lagocephala|Artemisia montana|Artemisia princeps|Artemisia rubripes|Artemisia santolinifolia|Artemisia scoparia|Artemisia stechmanniana|Artemisia thuscula|Artemisia vulgaris|Asclepias subulata|Asplenium ruprechtii|Aster scaber|Astragalus eximius|Astroloma humifusum|Athamanta vayredana|Atractylodes chinensis|Atractylodes lancea|Atractylodes macrocephala|Austrobaileya scandens|Austrobrickellia patens|Austroeupatorium inulifolium|Austromyrtus dulcis|Austromyrtus tenuifolia|Avrainvillea rawsonii|Baccharis articulata|Baccharis bigelovii|Baccharis coridifolia|Baccharis dracunculifolia|Baccharis halimifolia|Baccharis heterophylla|Baccharis pteronioides|Baccharis rufescens|Baccharis salicina|Baccharis sarothroides|Baccharis truncata|Baeckea frutescens L.|Bassia longifolia|Beilschmiedia erythrophloia|Benincasa hispida|Bersama abyssinica|Bethencourtia palmensis|Betula pendula|Betula platyphylla|Betula pubescens|Betula pubescens litwinowii|Biancaea decapetala|Bidens graveolens|Bipolaris sacchari|Bitter bush|Blepharispermum zanguebaricum|Blepharocalyx salicifolius|Blepharocalyx tweediei|Boehmeria japonica|Boenninghausenia albiflora|Boswellia carteri|Boswellia frereana|Boswellia sacra|Bothriochloa bladhii|Bouchardatia neurococca|Brickellia californica|Brickellia laciniata|Buphthalmum salicifolium|Bupleurum acutifolium|Bupleurum chinense|Bupleurum falcatum|Bupleurum scorzonerifolium|Bystropogon canariensis|Bystropogon mollis|Caesalpinia Pulcherrima|Caesalpinia decapetala|Caesalpinia pulcherrima|Calamintha incana|Calea jamaicensis|Calea pilosa|Calea prunifolia|Callyspongia spinosissima|Calycolpus warszewiczianus|Camellia sinensis|Canella winterana|Cannabis sativa|Cantinoa mutabilis|Capillipedium parviflorum|Carapichea ipecacuanha|Cassia jahnii|Cedrela odorata|Celastrus monospermus|Centaurea aegyptiaca|Centaurea benedicta|Centella asiatica|Cephalaria procera|Chamaecyparis formosensis|Chamomilla recutita|Chiliadenus lopadusanus|Chloranthus fortunei|Chromolaena connivens|Chromolaena laevigata|Chrysanthemum indicum|Chrysanthemum x morifolium|Chrysocephalum ambiguum|Chuquiraga erinacea|Cinnamomum Subavenium|Cinnamomum parthenoxylon|Cinnamomum sieboldii|Cinnamomum subavenium|Cinnamomum subavenium MIQ.|Cinnamomum zeylanicum|Cinnamon|Cissus adnata|Cistus albidus|Cistus creticus|Citrus aurantium|Citrus maxima|Citrus medica|Citrus paradisi|Citrus reticulata|Citrus unshiu|Citrus × deliciosa|Clausena excavata|Cleistopholis patens|Cleonia lusitanica|Clerodendrum brachyanthum|Clinopodium album|Clinopodium ashei|Clinopodium barbatum|Clinopodium brevifolium|Clinopodium brownei|Clinopodium carolinianum|Clinopodium grandiflorum|Clinopodium insulare|Clinopodium thymifolium|Conium maculatum|Conyza bonariensis|Conyza sumatrensis|Copaifera guianensis|Copaifera langsdorffii|Copaifera langsdorfii|Copaifera multijuga|Corymbia citriodora|Cratoxylum cochinchinense|Croton cortesianus|Croton eluteria|Croton jimenezii|Croton nepetifolius|Croton ovalifolius|Cryptocarya agathophylla|Cullen plicatum|Cunila fasciculata|Cunila microcephala|Cupania cinerea|Cuphea hyssopifolia|Cupressus sempervirens|Curcuma Aeruginosa|Curcuma Xanthorrhiza|Curcuma aeruginosa|Curcuma amada|Curcuma amanda Roxb|Curcuma aromatica|Curcuma kwangsiensis|Curcuma longa|Curcuma phaeocaulis|Curcuma pierreana|Curcuma trichosantha|Curcuma wenyujin|Curcuma xanthorrhiza|Curcuma zedoaria|Cyathocline purpurea|Cymbopogon flexuosus|Cymbopogon khasianus|Cymbopogon martinii|Cynanchum sibiricum|Cynanchum stauntoni|Cyperus erectus|Cyperus rotundus|Cyphelium chrysocephalum|Cystoseira fimbriata|Cytisus ciliatus|Dacrydium cupressinum|Dacrydium nausoriense|Dacryodes normandii|Damnacanthus major|Daucus carota|Dendropanax trifidus|Diospyros maritima|Diospyros virginiana|Dolomiaea souliei|Domohinea perrieri|Dracaena mannii|Duguetia confinis|Dumortiera hirsuta|Dysidea villosa|Echinoclathria subhispida|Echinophora tournefortii|Elsholtzia ciliata|Elsholtzia eriostachya|Epigaea asiatica|Eria rigida|Erica manipuliflora|Erigeron bonariensis|Eryngium foetidum|Esenbeckia stephanii|Etlingera elatior|Eucalyptus|Eucalyptus angulosa|Eucalyptus behriana|Eucalyptus camaldulensis|Eucalyptus ceratocorys|Eucalyptus cuprea|Eucalyptus dealbata|Eucalyptus dolichorhyncha|Eucalyptus fasciculosa|Eucalyptus forrestiana|Eucalyptus globulus|Eucalyptus incrassata|Eucalyptus intertexta|Eucalyptus lansdowneana|Eucalyptus leucoxylon|Eucalyptus maidenii|Eucalyptus melanophloia|Eucalyptus ochrophloia|Eucalyptus odorata|Eucalyptus populnea|Eucalyptus porosa|Eucalyptus sparsa|Eucalyptus stoatei|Eucalyptus tetraptera|Eucalyptus viridis|Eugenia caryophyllata|Eugenia exsucca|Eupatorium altissimum|Euphorbia palustris|Euphorbia pithyusa|Euphorbia pulcherrima|Eutrochium purpureum|Farfugium japonicum|Fleischmannia pratensis|Flemingia paniculata|Flourensia cernua|Foeniculum vulgare|Fouquieria diguetii|Friesodielsia velutina|Fritillaria hupehensis|Frullania probosciphora|Fusarium sambucinum|Galeocerdo arcticus|Garcinia cymosa|Garcinia hermonii|Geigeria ornativa|Geigeria plumosa|Geigeria schinzii|Glehnia littoralis|Greenmaniella resinosa|Grindelia scorzonerifolia|Guatteria blepharophylla|Gundelia tournefortii|Gynoxys verrucosa|Gynura japonica|Haplopappus glutinosus|Haplopappus paucidentatus|Hedychium spicatum|Helichrysum ambiguum|Helichrysum bracteiferum|Helichrysum dasyanthum|Helichrysum kraussii|Helichrysum petiolare|Helichrysum revolutum|Helichrysum setosum|Helipterum propinquum|Herba artemisiae scopariae|Hesperozygis rhododon|Hesperozygis ringens|Heteranthemis viscidehirta|Hexalobus crispiflorus|Hexalobus monopetalus|Holarrhena floribunda|Holothuria squamifera|Hortonia floribunda|Hosta sieboldiana|Houttuynia Cordata|Houttuynia cordata|Hugonia castaneifolia|Humulus lupulus|Hymenocrater incanus|Hypericum chinense|Hypericum hircinum|Hypericum hyssopifolium|Hypericum japonicum|Hypericum lysimachioides|Hypericum monogynum|Hypericum perforatum|Hypericum triquetrifolium|Hypogymnia vittata|Hyptis mutabilis|Hyptis suaveolens|Hyssopus officinalis|Illicium anisatum|Illicium merrillianum|Illicium verum|Inula helenium|Inula salsoloides|Ipomoea obscura|Iris xiphium|Isodon japonica var. glaucocalyx|Jacobaea cannabifolia|Jugo|Juniperus chinensis|Juniperus communis|Juniperus taxifolia|Lactarius subpiperatus|Lactifluus subvellereus|Laennecia filaginoides|Laggera pterodonta|Lantana xenica|Lasthenia glabrata|Lathyrus latifolius|Launaea resedifolia|Launea|Lavandula angustifolia|Lavandula latifolia|Lecanora rupicola|Leonotis leonurus|Leonurus heterophyllus|Lepechinia chamaedryoides|Lepechinia chilensis|Lepechinia floribunda|Leplaea cedrata|Leptospermum scoparium|Licaria triandra|Limnodynastes interioris|Lindera neesiana|Liparis kumokiri|Lippia Myriocephala|Lippia alba|Lippia javanica|Lippia multiflora|Lippia ukambensis|Liquidambar formosana|Lithocolletis coryli|Lithospermum erythrorhizon|Litsea cubeba|Litsea glaucescens|Lobelia chinensis|Lobophytum denticulatum|Lonicera japonica|Lophostemon confertus|Macrococculus pomiferus|Magnolia liliiflora|Magnolia obovata|Magnolia officinalis|Mamestra brassicae|Manekia naranjoana|Mangifera indica|Mannia fragrans|Marchantia paleacea|Matricaria chamomilla|Melaleuca Leucadendra|Melaleuca leucadendra L.|Melaleuca quinquenervia|Melaleuca styphelioides|Melampodium divaricatum|Melia azedarach|Melia azedarach var. toosendan|Melissa officinalis|Mentha|Mentha Piperita|Mentha arvensis|Mentha arvensis L.|Mentha canadensis|Mentha piperita|Mesua beccariana|Micromeria biflora|Micromeria croatica|Mikania banisteriae|Mikania pohlii|Millettia pinnata|Minthostachys mollis|Monanthotaxis capea|Monocyclanthus vignei|Montanoa karwinskii|Morinda coreia|Mosla cavaleriei|Mosla chinensis|Mulguraea tridens|Murraya exotica|Murraya koenigii|Murraya paniculata|Myrcia tricona|Myrtus communis|Nardophyllum lanatum|Nelumbo lutea|Neolitsea hiiranensis|Nepeta caesarea|Nepeta cataria|Nepeta cilicia|Nepeta concolor|Nepeta fissa|Nepeta nuda|Nepeta racemosa|Nepeta trachonitica|Nepeta viscida|Nephthea armata|Nerium oleander|Nidorella aegyptiaca|Nidorella ivifolia|Notechis scutatus|Ocimum tenuiflorum|Ocotea gomezii|Ocotea morae|Olearia phlogopappa|Ononis viscosa|Origanum acutidens|Origanum adanense|Origanum cordifolium|Origanum dictamnus|Origanum dubium|Origanum hypericifolium|Origanum laevigatum|Origanum onites|Origanum syriacum|Origanum vulgare|Osteospermum corymbosum|Ozothamnus adnatus|Ozothamnus bilobus|Parectatosoma mocquerysi|Parmelia barbata|Parmelia zollingeri|Parthenium bipinnatifidum|Passiflora morifolia|Pedicularis rex|Pelargonium endlicherianum|Pelargonium quercifolium|Pelargonium ternifolium|Pellicularia sasakii|Perilla frutescens|Perilla frutescens var. hirtella|Persicaria hydropiperoides|Persicaria minor|Persicaria pubescens|Petasites albus|Petasites hybridus|Phlomis lanata|Phlomis olivieri|Phyllobates bicolor|Pimenta dioica|Pimenta racemosa|Pimpinella serbica|Pinus densiflora|Pinus edulis|Pinus halepensis|Pinus massoniana|Pinus merkusii|Pinus sp.|Piper aduncum|Piper attenuatum|Piper auritum|Piper cubeba|Piper gaudichaudianum|Piper marginatum|Piper mullesua|Piper nigrum|Piper obliquum|Piper philippinum|Piper retrofractum|Piptocarpha chontalensis|Piscidia mollis|Pittosporum undulatum|Plagiochasma rupestre|Plakortis simplex|Plectranthus fruticosus|Plectranthus marrubioides|Pogostemon cablin|Polydora steetziana|Polygala senega|Polygonum Minus|Polygonum minus|Poncirus trifoliata|Posidonia oceanica|Prangos tschimganica|Prangos uloptera|Prostanthera melissifolia|Pseudocyphellaria coronata|Pseudomonas savastanoi|Pseudoplexaura wagenaari|Psiadia altissima|Psiadia ceylanica|Psidium friedrichsthalianum|Psidium guajava|Pterocarpus erinaceus|Pteronia camphorata|Ptychopetalum olacoides|Puccinia lagenophorae|Pulicaria angustifolia|Pyrus bourgaeana|Rhanterium epapposum|Riccia fluitans|Rosmarinus Officinalis|Rosmarinus eriocalyx|Rosmarinus officinalis|Rosmarinus tomentosus|Rubus sanctus|Rudbeckia subtomentosa|Rutidosis murchisonii|Salvia absconditiflora|Salvia broussonetii|Salvia caespitosa|Salvia cyanescens|Salvia dorisiana|Salvia fruticosa|Salvia granatensis|Salvia hydrangea|Salvia jordanii|Salvia nemorosa|Salvia officinalis|Salvia palaefolia|Salvia pomifera|Salvia reflexa|Salvia sclarea|Salvia staminea|Salvia syriaca|Salvia triloba|Salvia vermifolia|Salvia × sylvestris|Sandoricum koetjape|Santol|Santolina corsica|Santolina corsica Jordan et Fourr|Santolina rosmarinifolia|Satureja cuneifolia|Satureja spicigera|Satureja wiedemanniana|Saturnia pavonia|Saussurea lappa|Scandix australis|Schinus lentiscifolia|Schinus lentiscifolius|Schinus molle|Schizonepeta tenuifolia|Schizonepeta tenuisfolia|Schrebera swietenoides|Sclerocarpus sessilifolius|Scutellaria barbata|Sedum sarmentosum|Senecio alcicornis|Senecio brasiliensis|Senecio chionophilus|Senecio chrysanthemoides|Senecio crassissimus|Senecio doria|Senecio gilliesi|Senecio subulatus|Senecio tricephalus|Senna alexandrina|Serratula wolfi|Shorea robusta|Sideritis amasiaca|Sideritis curvidens|Sideritis hispida|Sideritis lanata|Sideritis lyciae|Sideritis rubriflora|Sideritis tragoriganum|Sideritis varoi|Sigillina signifera|Sindora sumatrana|Sinocrassula indica|Siphonaria australis|Smallanthus maculatus|Smallanthus macvaughii|Solanum linearifolium|Solanum spirale|Sophora leachiana|Sorbus torminalis|Spiranthera odoratissima|Spondias mombin|Stachys recta|Stauntonia hexaphylla|Stauranthus perforatus|Steganotaenia araliacea|Stephanitis rhododendri|Stevia amambayensis|Streptomyces luteosporeus|Strychnos triplinervia|Suaeda maritima|Synoicum macroglossum|Syzygium aromaticum|Syzygium formosanum|Syzygium nervosum|Tagetes erecta|Tagetes lucida|Tagetes patula|Talipariti tiliaceum|Tamarix ramosissima|Tanacetum parthenium|Tarchonanthus camphoratus|Tasmannia lanceolata|Tephrosia bidwilli|Tersonia brevipes|Tessaria fastigiata|Teucrium cyprium|Teucrium kotschyanum|Teucrium micropodioides|Teucrium pestalozzae|Teucrium polium|Teucrium pseudoscorodonia|Thapsia villosa|Thecocarpus carvifolius|Thelephora aurantiotincta|Thielavia terricola|Thioalkalivibrio versutus|Thuja occidentalis|Thymbra capitata|Thymbra spicata|Thymus camphoratus|Thymus capitatus|Thymus carnosus|Thymus eigii|Thymus funkii|Thymus longicaulis|Thymus longiflorus|Thymus maroccanus|Thymus quinquecostatus|Thymus revolutus|Thymus riatarum|Thymus thracicus|Thymus vulgaris|Thymus willkommii|Thymus zygioides|Tilesia baccata|Tithonia diversifolia|Tordylium apulum|Trichilia claussenii|Trichilia lepidota|Trichostema dichotomum|Trifoliate orange|Trifolium echinatum|Tripetalum cymosum|Triunia erythrocarpa|Urospermum picroides|Ursinia speciosa|Usnea magellanica|Uvaria|Uvaria chamae|Valeriana fauriei|Valeriana jatamansi|Valeriana officinalis|Verbesina persicifolia|Vernonia lilacina|Vernonia mollissima|Vincetoxicum glaucescens|Vincetoxicum stauntonii|Vitex agnus-castus|Vitex limonifolia|Vitex negundo|Waitzia acuminata|West African Pepper|Xanthoria parietina|Xestospongia bergquistia|Xylopia aethiopica|Xylopia emarginata|Xylopia phloiodora|Zanthoxylum ailanthoides|Zanthoxylum bungeanum|Zanthoxylum decaryi|Zanthoxylum piperitum|Zanthoxylum schinifolium|Zanthoxylum simulans|Zingiber Zerumbet|Zingiber cassumunar Roxb.|Zingiber officinale|Zingiber zerumbet|Zingiber zerumbet Smith|Zinnia elegans|Zinnia violacea|Ziziphora hispanica|Ziziphus jujuba|basil|candyleaf|clove|common myrtle|common sunflower|marjoram|potato|tomato|water mint

>  <collections>  (1910) 
ANPDB|Australian natural products|BIOFACQUIM|CMAUP (cCollective molecular activities of useful plants)|ChEBI NPs|EMNPD|KNApSaCK|Latin America dataset|NANPDB (Natural Products from Northern African Sources)|NAPRORE-CR|NPACT|NPASS|NPEdia|NuBBEDB|Phyto4Health|PhytoLab phyproof® Reference Substances|SANCDB|Super Natural II|TCMDB-Taiwan (Traditional Chinese Medicine database)|TIPdb (database of Taiwan indigenous plants)|VietHerb|WikiData Natural Products|ZINC NP

>  <dois>  (1910) 
10.1002/(SICI)1097-0231(199608)10:11<1345::AID-RCM631>3.0.CO;2-4|10.1002/(SICI)1099-1026(199601)11:1<15::AID-FFJ541>3.0.CO;2-H|10.1002/(SICI)1099-1026(199605)11:3<167::AID-FFJ567>3.0.CO;2-A|10.1002/(SICI)1099-1026(199701)12:1<47::AID-FFJ610>3.0.CO;2-7|10.1002/(SICI)1099-1026(199901/02)14:1<47::AID-FFJ782>3.0.CO;2-R|10.1002/(SICI)1099-1026(199907/08)14:4<230::AID-FFJ816>3.0.CO;2-L|10.1002/(SICI)1099-1573(199611)10:7<600::AID-PTR918>3.0.CO;2-7|10.1002/(SICI)1099-1573(1998)12:1+<S92::AID-PTR261>3.0.CO;2-9|10.1002/(sici)1099-1026(200001/02)15:1<17::aid-ffj859>3.0.co;2-d|10.1002/1099-1026(200005/06)15:3<144::AID-FFJ882>3.0.CO;2-C|10.1002/1099-1573(200011)14:7<549::AID-PTR623>3.0.CO;2-T|10.1002/BSCB.19860950903|10.1002/CBDV.201100039|10.1002/CBDV.201700436|10.1002/CBDV.201800531|10.1002/CHIN.200412183|10.1002/ECE3.5390|10.1002/FFJ.1156|10.1002/FFJ.1161|10.1002/FFJ.1174|10.1002/FFJ.1305|10.1002/FFJ.1582|10.1002/FFJ.2730010103|10.1002/FFJ.2730010304|10.1002/FFJ.2730020106|10.1002/FFJ.2730050110|10.1002/FFJ.2730060307|10.1002/FFJ.2730060314|10.1002/FFJ.2730080504|10.1002/FFJ.2730090107|10.1002/FFJ.2730090305|10.1002/FFJ.2730100203|10.1002/FFJ.2730100204|10.1002/FFJ.2730100310|10.1002/FFJ.2730100408|10.1002/FFJ.2730100605|10.1002/FFJ.2730100609|10.1002/FFJ.983|10.1002/HLCA.200890229|10.1002/HLCA.201000207|10.1002/HLCA.201200359|10.1002/JCCS.199300062|10.1002/JCCS.200100158|10.1002/JCCS.200300178|10.1002/JLAC.198319831116|10.1002/JSFA.8889|10.1002/JSSC.200900378|10.1002/MRC.1260280207|10.1002/RCM.1290091307|10.1002/ffj.1026|10.1007/BF00323974|10.1007/BF00574326|10.1007/BF00596639|10.1007/BF00629951|10.1007/BF00630335|10.1007/BF02236421|10.1007/BF02238211|10.1007/BF02980091|10.1007/BF02985250|10.1007/S004030050433|10.1007/S10068-015-0261-2|10.1007/S10600-006-0193-4|10.1007/S10600-012-0333-Y|10.1007/S10886-012-0201-Z|10.1007/S11418-007-0175-2|10.1007/S11418-008-0253-0|10.1007/S13765-012-1162-1|10.1007/s10600-012-0333-y|10.1016/0031-9422(74)80113-5|10.1016/0031-9422(75)85073-4|10.1016/0031-9422(81)85166-7|10.1016/0031-9422(82)80140-4|10.1016/0031-9422(83)80242-8|10.1016/0031-9422(83)85052-3|10.1016/0031-9422(88)80025-6|10.1016/0031-9422(88)80056-6|10.1016/0031-9422(88)80452-7|10.1016/0031-9422(88)80610-1|10.1016/0031-9422(88)80681-2|10.1016/0031-9422(88)80683-6|10.1016/0031-9422(88)83027-9|10.1016/0031-9422(88)87021-3|10.1016/0031-9422(89)80048-2|10.1016/0031-9422(89)80072-X|10.1016/0031-9422(89)80195-5|10.1016/0031-9422(89)80275-4|10.1016/0031-9422(89)80289-4|10.1016/0031-9422(90)83041-X|10.1016/0031-9422(90)83046-4|10.1016/0031-9422(90)85117-X|10.1016/0031-9422(90)85280-S|10.1016/0031-9422(90)85433-G|10.1016/0031-9422(90)85434-H|10.1016/0031-9422(91)83036-K|10.1016/0031-9422(91)83197-S|10.1016/0031-9422(91)83632-U|10.1016/0031-9422(91)84214-D|10.1016/0031-9422(91)85072-8|10.1016/0031-9422(91)85116-H|10.1016/0031-9422(92)80176-F|10.1016/0031-9422(92)80456-O|10.1016/0031-9422(92)80479-X|10.1016/0031-9422(92)83718-E|10.1016/0031-9422(93)85408-J|10.1016/0031-9422(94)00791-Q|10.1016/0031-9422(94)85021-6|10.1016/0031-9422(95)00415-4|10.1016/0031-9422(95)00522-9|10.1016/0031-9422(95)00969-8|10.1016/0305-1978(85)90081-X|10.1016/0305-1978(89)90098-7|10.1016/0305-1978(91)90073-9|10.1016/0305-1978(93)90031-L|10.1016/0305-1978(94)90116-3|10.1016/0378-8741(91)90062-I|10.1016/0378-8741(91)90063-J|10.1016/J.APJTM.2016.06.009|10.1016/J.BSE.2010.01.009|10.1016/J.CHROMA.2004.11.095|10.1016/J.CHROMA.2014.10.058|10.1016/J.FITOTE.2005.08.019|10.1016/J.FOODCHEM.2008.09.107|10.1016/J.FOODCHEM.2010.08.043|10.1016/J.FOODCHEM.2018.09.082|10.1016/J.FOODRES.2018.12.054|10.1016/J.INDCROP.2014.04.048|10.1016/J.INDCROP.2014.11.043|10.1016/J.JEP.2011.02.025|10.1016/J.JEP.2012.11.045|10.1016/J.LWT.2008.09.015|10.1016/J.PHYMED.2008.04.018|10.1016/J.PHYMED.2009.05.016|10.1016/J.PHYTOCHEM.2003.08.004|10.1016/J.PHYTOCHEM.2004.03.019|10.1016/J.PHYTOCHEM.2004.04.003|10.1016/J.PHYTOCHEM.2005.01.007|10.1016/J.PHYTOCHEM.2006.04.025|10.1016/J.PHYTOCHEM.2007.04.027|10.1016/J.PHYTOCHEM.2007.05.003|10.1016/J.PHYTOCHEM.2007.06.021|10.1016/J.PHYTOCHEM.2009.06.013|10.1016/J.PHYTOCHEM.2011.01.006|10.1016/J.PHYTOCHEM.2011.09.002|10.1016/J.PHYTOCHEM.2014.09.010|10.1016/J.PHYTOCHEM.2018.06.006|10.1016/J.PHYTOCHEM.2019.112249|10.1016/J.PHYTOL.2011.04.006|10.1016/J.PHYTOL.2011.11.006|10.1016/S0021-9673(00)94572-2|10.1016/S0021-9673(01)90672-7|10.1016/S0031-9422(00)00284-3|10.1016/S0031-9422(00)00407-6|10.1016/S0031-9422(00)80081-3|10.1016/S0031-9422(00)80600-7|10.1016/S0031-9422(00)80814-6|10.1016/S0031-9422(00)80840-7|10.1016/S0031-9422(00)81099-7|10.1016/S0031-9422(00)81166-8|10.1016/S0031-9422(00)81176-0|10.1016/S0031-9422(00)81232-7|10.1016/S0031-9422(00)81255-8|10.1016/S0031-9422(00)81286-8|10.1016/S0031-9422(00)81573-3|10.1016/S0031-9422(00)81746-X|10.1016/S0031-9422(00)82284-0|10.1016/S0031-9422(00)83061-7|10.1016/S0031-9422(00)84168-0|10.1016/S0031-9422(00)84709-3|10.1016/S0031-9422(00)84721-4|10.1016/S0031-9422(00)84733-0|10.1016/S0031-9422(00)89545-X|10.1016/S0031-9422(00)89759-9|10.1016/S0031-9422(00)90474-6|10.1016/S0031-9422(00)90514-4|10.1016/S0031-9422(00)91034-3|10.1016/S0031-9422(00)95190-2|10.1016/S0031-9422(00)95214-2|10.1016/S0031-9422(00)97891-9|10.1016/S0031-9422(00)98076-2|10.1016/S0031-9422(00)98080-4|10.1016/S0031-9422(00)98279-7|10.1016/S0031-9422(01)00433-2|10.1016/S0031-9422(02)00268-6|10.1016/S0031-9422(02)00542-3|10.1016/S0031-9422(96)00726-1|10.1016/S0031-9422(97)00105-2|10.1016/S0031-9422(97)00117-9|10.1016/S0031-9422(97)00228-8|10.1016/S0031-9422(97)00273-2|10.1016/S0031-9422(97)00312-9|10.1016/S0031-9422(97)00762-0|10.1016/S0031-9422(97)00795-4|10.1016/S0031-9422(98)00305-7|10.1016/S0031-9422(98)00565-2|10.1016/S0031-9422(98)00772-9|10.1016/S0031-9422(99)00047-3|10.1016/S0031-9422(99)00074-6|10.1016/S0031-9422(99)00082-5|10.1016/S0031-9422(99)00452-5|10.1016/S0031-9422(99)00601-9|10.1016/S0040-4020(01)88015-7|10.1016/S0040-4020(01)96789-4|10.1016/S0305-1978(02)00041-8|10.1016/S0305-1978(02)00180-1|10.1016/S0305-1978(03)00039-5|10.1016/S0305-1978(03)00098-X|10.1016/S0305-1978(97)00103-8|10.1016/S0367-326X(00)00154-4|10.1016/S0367-326X(01)00327-6|10.1016/S0367-326X(02)00167-3|10.1016/S0367-326X(98)00016-1|10.1016/S0367-326X(99)00067-2|10.1016/S0378-8741(01)00238-0|10.1016/S0926-6690(03)00076-1|10.1016/S0944-7113(11)80031-0|10.1016/S0960-894X(01)00781-8|10.1016/j.phytochem.2004.12.028|10.1016/j.phytochem.2019.112249|10.1016/s0031-9422(00)90471-0|10.1017/S174275840001345X|10.1021/JF00008A025|10.1021/JF00034A033|10.1021/JF00037A027|10.1021/JF00067A018|10.1021/JF00073A015|10.1021/JF00083A001|10.1021/JF00118A056|10.1021/JF030212Q|10.1021/JF0402633|10.1021/JF60218A031|10.1021/JF950653C|10.1021/JF970031M|10.1021/JF9708296|10.1021/JF981170M|10.1021/JO040272A|10.1021/NP000442O|10.1021/NP0105533|10.1021/NP020493G|10.1021/NP030475E|10.1021/NP040174K|10.1021/NP040174K.S001|10.1021/NP049831Z|10.1021/NP100415M|10.1021/NP50008A001|10.1021/NP50035A008|10.1021/NP50039A032|10.1021/NP50046A047|10.1021/NP50066A019|10.1021/NP50083A016|10.1021/NP50121A011|10.1021/NP900109Y|10.1021/NP970282P|10.1021/NP980313W|10.1021/NP980445P|10.1021/NP990523O|10.1021/acs.jnatprod.5b01127|10.1021/jf011456i|10.1021/np100415m|10.1055/S-1999-14025|10.1055/S-2000-9780|10.1055/S-2001-18857|10.1055/S-2002-33803|10.1055/S-2003-39704|10.1055/S-2003-39705|10.1055/S-2003-42796|10.1055/S-2004-827162|10.1055/S-2006-957433|10.1055/S-2006-957552|10.1055/S-2006-957640|10.1055/S-2006-957814|10.1055/S-2006-959548|10.1055/S-2006-959714|10.1055/S-2006-960024|10.1055/S-2006-960872|10.1055/S-2006-960936|10.1055/S-2006-961434|10.1055/S-2006-961452|10.1055/S-2006-962016|10.1055/S-2006-962410|10.1055/S-2006-962450|10.1055/S-2006-962640|10.1055/S-2006-962685|10.1055/S-2006-962688|10.1055/S-2007-969050|10.1055/S-2007-969445|10.1055/S-2007-969446|10.1055/S-2007-969499|10.1055/S-2007-969883|10.1076/1388-0209(200004)3821-1FT106|10.1076/PHBI.35.3.218.13295|10.1076/PHBI.40.1.67.5852|10.1080/07373937.2011.634976|10.1080/0972060X.2007.10643581|10.1080/0972060X.2010.10643892|10.1080/10412905.1989.9697751|10.1080/10412905.1989.9697754|10.1080/10412905.1989.9697769|10.1080/10412905.1989.9699439|10.1080/10412905.1990.9697831|10.1080/10412905.1990.9697840|10.1080/10412905.1990.9697847|10.1080/10412905.1990.9697854|10.1080/10412905.1991.9697905|10.1080/10412905.1991.9697923|10.1080/10412905.1991.9697932|10.1080/10412905.1991.9697952|10.1080/10412905.1991.9697953|10.1080/10412905.1991.9697959|10.1080/10412905.1991.9697971|10.1080/10412905.1991.9697973|10.1080/10412905.1991.9697980|10.1080/10412905.1991.9697985|10.1080/10412905.1991.9697991|10.1080/10412905.1991.9697994|10.1080/10412905.1991.9700500|10.1080/10412905.1992.9698007|10.1080/10412905.1992.9698043|10.1080/10412905.1992.9698068|10.1080/10412905.1992.9698069|10.1080/10412905.1992.9698070|10.1080/10412905.1992.9698084|10.1080/10412905.1992.9698095|10.1080/10412905.1992.9698101|10.1080/10412905.1992.9698125|10.1080/10412905.1992.9698129|10.1080/10412905.1992.9698130|10.1080/10412905.1992.9698139|10.1080/10412905.1992.9698144|10.1080/10412905.1992.9698155|10.1080/10412905.1993.9698167|10.1080/10412905.1993.9698174|10.1080/10412905.1993.9698177|10.1080/10412905.1993.9698189|10.1080/10412905.1993.9698195|10.1080/10412905.1993.9698205|10.1080/10412905.1993.9698215|10.1080/10412905.1993.9698216|10.1080/10412905.1993.9698218|10.1080/10412905.1993.9698231|10.1080/10412905.1993.9698243|10.1080/10412905.1993.9698248|10.1080/10412905.1993.9698251|10.1080/10412905.1993.9698256|10.1080/10412905.1993.9698260|10.1080/10412905.1993.9698277|10.1080/10412905.1993.9698279|10.1080/10412905.1993.9698282|10.1080/10412905.1994.9698330|10.1080/10412905.1994.9698334|10.1080/10412905.1994.9698337|10.1080/10412905.1994.9698350|10.1080/10412905.1994.9698359|10.1080/10412905.1994.9698361|10.1080/10412905.1994.9698380|10.1080/10412905.1994.9698382|10.1080/10412905.1994.9698395|10.1080/10412905.1994.9698405|10.1080/10412905.1994.9698407|10.1080/10412905.1994.9698414|10.1080/10412905.1994.9698417|10.1080/10412905.1994.9698418|10.1080/10412905.1994.9698427|10.1080/10412905.1994.9698428|10.1080/10412905.1994.9698433|10.1080/10412905.1994.9698435|10.1080/10412905.1994.9698440|10.1080/10412905.1994.9698446|10.1080/10412905.1994.9698447|10.1080/10412905.1994.9699347|10.1080/10412905.1994.9699355|10.1080/10412905.1994.9699357|10.1080/10412905.1994.9699366|10.1080/10412905.1995.9698462|10.1080/10412905.1995.9698469|10.1080/10412905.1995.9698473|10.1080/10412905.1995.9698478|10.1080/10412905.1995.9698479|10.1080/10412905.1995.9698496|10.1080/10412905.1995.9698502|10.1080/10412905.1995.9698503|10.1080/10412905.1995.9698508|10.1080/10412905.1995.9698516|10.1080/10412905.1995.9698520|10.1080/10412905.1995.9698524|10.1080/10412905.1995.9698531|10.1080/10412905.1995.9698555|10.1080/10412905.1995.9698575|10.1080/10412905.1995.9698585|10.1080/10412905.1995.9698587|10.1080/10412905.1995.9700523|10.1080/10412905.1995.9700529|10.1080/10412905.1995.9700530|10.1080/10412905.1995.9700531|10.1080/10412905.1995.9700534|10.1080/10412905.1996.9700547|10.1080/10412905.1996.9700554|10.1080/10412905.1996.9700558|10.1080/10412905.1996.9700562|10.1080/10412905.1996.9700567|10.1080/10412905.1996.9700569|10.1080/10412905.1996.9701028|10.1080/10412905.1996.9701048|10.1080/10412905.1997.9700708|10.1080/10412905.1997.9700709|10.1080/10412905.1997.9700721|10.1080/10412905.1997.9700724|10.1080/10412905.1997.9700727|10.1080/10412905.1997.9700731|10.1080/10412905.1997.9700774|10.1080/10412905.1997.9700785|10.1080/10412905.1997.9700809|10.1080/10412905.1997.9700812|10.1080/10412905.1998.9700854|10.1080/10412905.1998.9700906|10.1080/10412905.1998.9700913|10.1080/10412905.1998.9700934|10.1080/10412905.1999.9701056|10.1080/10412905.1999.9701059|10.1080/10412905.1999.9701135|10.1080/10412905.1999.9701146|10.1080/10412905.1999.9701189|10.1080/10412905.1999.9711991|10.1080/10412905.1999.9711999|10.1080/10412905.1999.9712010|10.1080/10412905.2000.9699552|10.1080/10412905.2000.9699564|10.1080/10412905.2000.9699569|10.1080/10412905.2000.9712037|10.1080/10412905.2000.9712044|10.1080/10412905.2000.9712167|10.1080/10412905.2000.9712168|10.1080/10412905.2000.9712169|10.1080/10412905.2000.9712171|10.1080/10412905.2001.9699592|10.1080/10412905.2001.9699593|10.1080/10412905.2001.9699608|10.1080/10412905.2002.9699852|10.1080/10412905.2002.9699883|10.1080/10412905.2003.9698598|10.1080/10412905.2004.9698639|10.1080/10412905.2004.9698688|10.1080/10412905.2004.9698740|10.1080/10412905.2010.9700389|10.1080/10412905.2012.747271|10.1080/10412905.2012.755478|10.1080/10412905.2018.1431966|10.1080/13880200500220268|10.1080/14786410500528478|10.1080/14786419.2010.513685|10.1111/j.1365-2621.1985.tb01819.x|10.1177/1934578X1100600135|10.1186/1752-153X-7-61|10.1186/2191-2858-2-2|10.1246/BCSJ.51.3395|10.1248/CPB.38.2283|10.1248/CPB.42.941|10.1248/CPB.44.1033|10.1248/CPB.49.716|10.1248/CPB.50.133|10.1248/CPB.51.1208|10.1248/CPB.53.428|10.1248/CPB.54.1465|10.1248/CPB.54.222|10.1248/CPB.54.725|10.1248/CPB.54.936|10.1248/CPB.55.1597|10.1248/CPB.56.839|10.1248/CPB.56.97|10.1248/CPB.57.245|10.1248/YAKUSHI1947.106.1_17|10.1248/cpb.53.428|10.12692/IJB/12.4.370-382|10.1271/BBB1961.47.2099|10.1271/BBB1961.50.1903|10.1271/NOGEIKAGAKU1924.67.1417|10.1365/S10337-008-0921-Y|10.1515/ZNB-1989-1219|10.1515/ZNC-1996-9-1009|10.1515/ZNC-2002-11-1206|10.1590/S0103-50532000000600012|10.1590/S0103-50532002000300014|10.1590/S0103-50532011000400018|10.1590/S0103-50532011000600016|10.17660/ACTAHORTIC.2005.677.9|10.2307/4114957|10.23893/1307-2080.APS.05611|10.2478/V10007-009-0022-Y|10.2478/V10136-009-0002-Z|10.2987/5642.1|10.3109/13880208209055190|10.3390/12030389|10.3390/FOODS8020053|10.3390/MOLECULES18021368|10.3390/MOLECULES191119220|10.3390/MOLECULES24234244|10.4314/BCSE.V11I1.21012|10.4314/BCSE.V15I1.71732|10.5694/J.1326-5377.1998.TB126732.X|10.5897/JMPR11.972|10.7897/2230-8407.089160

>  <synonyms>  (1910) 
(-)-.beta.-Caryophyllene epoxide|(-)-5-Oxatricyclo[8.2.0.0(4,6)]dodecane,4,12,12-trimethyl-9-methylene-|(-)-BETA-CARYOPHYLLENE EPOXIDE|(-)-BETA-CARYOPHYLLENE EPOXIDE [HSDB]|(-)-Caryophyllene oxide|(-)-Caryophyllene oxide, >=99.0% (sum of enantiomers, GC)|(-)-Caryophyllene oxide, analytical reference material|(-)-Epoxycaryophyllene|(-)-Epoxydihydrocaryophyllene|(1R,4R,5R,9S)-4,5-epoxycaryophyllan-8(13)-ene|(1R,4R,6R,10S)- 4,12,12-trimethyl-9-methylene-5-oxatricyclo[8.2.0.]dodecane (caryophyllene oxide) 5-Oxatricyclo(8.2.0.0(4,6))dodecane|(1R,4R,6R,10S)- 5-Oxatricyclo[8.2.0.0(4,6)-]dodecane|(1R,4R,6R,10S)-4,12,12-TRIMETHYL-9-METHYLIDENE-5-OXATRICYCLO[8.2.0.0?,?]DODECANE|(1R,4R,6R,10S)-4,12,12-trimethyl-9-methylidene-5-oxatricyclo[8.2.0.04,6]dodecane|(1R,4R,6R,10S)-9-Methylene-4,12,12-trimethyl-5-oxatricyclo[8.2.0.04,6]dodecane|(1R-(1R*,4R*,6R*,10S*))-4,12,12-Trimethyl-9-methylene-5-oxatricyclo(8.2.0.04,6)dodecane|.BETA.-CARYOPHYLLENE OXIDE [FHFI]|1139-30-6|4 5-epoxi-\u0152\u2264-caryophyllene|4,11,11-Trimethyl-8-methylene-5-oxatricyclo(8.2.0.0(4,6))dodecane|4,12,12-Trimethyl-9-methylene-5-oxatricyclo(8.2.0.04,6)dodecane, (1R,4R,6R,10S)-|4,12,12-trimethyl-9-methylene-|4,12,12-trimethyl-9-methylene-5-oxatricyclo[8.2.0.0~4,6~]dodecane|4-12,12-TRIMETHYL-9-METHYLENE-5-OXATRICYLO (8.2.0.04,6) DODECANE|4.BETA.,5.ALPHA.-EPOXYCARYOPHYLLENE|4beta,5alpha-EPOXYCARYOPHYLLENE|5-OXATRICYCLO(8.2.0.04,6)DODECANE, 4,12,12-TRIMETHYL-9-METHYLENE-, (1R-(1R*,4R*,6R*,10S*))-|5-Oxatricyclo(8.2.0.0(4,6))dodecane, 4,12,12-trimethyl-9-methylene-, (1R,4R,6R,10S)-|?-caryophyllene oxide|AKOS030241571|AS-58060|BDBM50241720|BETA-CARYOPHYLLENE EPOXIDE, (-)-|C16908|CARYOPHYLLENE 4.BETA.,5.ALPHA.-OXIDE|CARYOPHYLLENE 4beta,5alpha-OXIDE|CARYOPHYLLENE, EPOXIDE|CAS-1139-30-6|CCG-208462|CHEBI:67818|CHEMBL508894|CS-0023810|Caryophylene oxide|Caryophyllene Oxide 1000 microg\/mL in Isopropanol|Caryophyllene Oxide 90001|DTXCID8030138|DTXSID4051586|E80731|EINECS 214-519-7|FEMA NO. 4085|HSDB 5466|HY-N3544|MFCD00134216|NCGC00357089-01|NVEQFIOZRFFVFW-RGCMKSIDSA-N|Q27136294|S2XU9K448U|SCHEMBL127077|SR-05000002236|Tox21_303807|UNII-S2XU9K448U|W-108611|[1R-(1R*,4R*,6R*,10S*)]- (-)-Epoxydihydrocaryophyllene (-)-<<beta>>-Caryophyllene epoxide (-)-<<beta>>-Caryophyllene oxide 4,11,11-Trimethyl-8-methylene-5-oxatricyclo(8.2.0.0(4,6))dodecane|[1R-(1R*,4R*,6R*,10S*)]- Caryophylene oxide Caryophyllene epoxide Caryophyllene oxyde Epoxycaryophyllene [1R-(1R*,4R*,6R*,10S*)]-4,12,12-trimethyl-9-methylene-5-oxatricyclo[8.2.0.04,6]dodecane <<beta>>-Caryophyllene epoxide <<beta>>-Caryophyllene oxide|\u03b2-Caryophyllene epoxide|\u03b2-caryophyllene epoxide|\u221a\u00e9\u00ac\u2264-Caryophyllene epoxide|ambar crystal|b-Caryophyllene Epoxide|bcp oxide|beta-Caryophyllene oxide|epoxide|inverted exclamation markY99.0% (sum of enantiomers, GC)|s3983|trans-Caryophyllene oxide|trans-caryophyllene oxide|trimethyl(methylene)[?]

>  <cas>  (1910) 
1139-30-6

$$$$

     RDKit          2D

 14 15  0  0  0  0  0  0  0  0999 V2000
    3.8971   -1.7143    0.0000 C   0  0  0  0  0  0  0  0  0  0  0  0
    2.5981   -0.9643    0.0000 C   0  0  0  0  0  0  0  0  0  0  0  0
    1.2990   -1.7143    0.0000 C   0  0  0  0  0  0  0  0  0  0  0  0
   -0.0000   -0.9643    0.0000 C   0  0  0  0  0  0  0  0  0  0  0  0
   -1.2990   -1.7143    0.0000 C   0  0  0  0  0  0  0  0  0  0  0  0
   -2.5981   -0.9643    0.0000 C   0  0  0  0  0  0  0  0  0  0  0  0
   -3.8971   -1.7143    0.0000 O   0  0  0  0  0  0  0  0  0  0  0  0
   -2.5981    0.5357    0.0000 C   0  0  0  0  0  0  0  0  0  0  0  0
   -1.2990    1.2857    0.0000 C   0  0  0  0  0  0  0  0  0  0  0  0
   -1.2990    2.7857    0.0000 O   0  0  0  0  0  0  0  0  0  0  0  0
   -0.0000    0.5357    0.0000 C   0  0  0  0  0  0  0  0  0  0  0  0
    1.2990    1.2857    0.0000 C   0  0  0  0  0  0  0  0  0  0  0  0
    1.2990    2.7857    0.0000 O   0  0  0  0  0  0  0  0  0  0  0  0
    2.5981    0.5357    0.0000 O   0  0  0  0  0  0  0  0  0  0  0  0
  1  2  1  0
  2  3  2  0
  3  4  1  0
  4  5  2  0
  5  6  1  0
  6  7  1  0
  6  8  2  0
  8  9  1  0
  9 10  1  0
  9 11  2  0
 11 12  1  0
 12 13  2  0
 12 14  1  0
 14  2  1  0
 11  4  1  0
M  END
>  <identifier>  (1911) 
CNP0389619.0

>  <canonical_smiles>  (1911) 
CC1=CC2=CC(O)=CC(O)=C2C(=O)O1

>  <standard_inchi>  (1911) 
InChI=1S/C10H8O4/c1-5-2-6-3-7(11)4-8(12)9(6)10(13)14-5/h2-4,11-12H,1H3

>  <standard_inchi_key>  (1911) 
OHHKDUWFPNAEHQ-UHFFFAOYSA-N

>  <name>  (1911) 
1204-37-1

>  <iupac_name>  (1911) 
6,8-dihydroxy-3-methyl-isochromen-1-one

>  <annotation_level>  (1911) 
5

>  <total_atom_count>  (1911) 
22

>  <heavy_atom_count>  (1911) 
14

>  <molecular_weight>  (1911) 
192.17

>  <exact_molecular_weight>  (1911) 
192.04226

>  <molecular_formula>  (1911) 
C10H8O4

>  <alogp>  (1911) 
1.51

>  <topological_polar_surface_area>  (1911) 
70.67

>  <rotatable_bond_count>  (1911) 
0

>  <hydrogen_bond_acceptors>  (1911) 
4

>  <hydrogen_bond_donors>  (1911) 
2

>  <hydrogen_bond_acceptors_lipinski>  (1911) 
4

>  <hydrogen_bond_donors_lipinski>  (1911) 
2

>  <lipinski_rule_of_five_violations>  (1911) 
0

>  <aromatic_rings_count>  (1911) 
2

>  <qed_drug_likeliness>  (1911) 
0.66

>  <formal_charge>  (1911) 
0

>  <fractioncsp3>  (1911) 
0.10

>  <number_of_minimal_rings>  (1911) 
2

>  <van_der_walls_volume>  (1911) 
159.62

>  <contains_sugar>  (1911) 
False

>  <contains_ring_sugars>  (1911) 
False

>  <contains_linear_sugars>  (1911) 
False

>  <murcko_framework>  (1911) 
O1C=Cc2ccccc2C1

>  <np_likeness>  (1911) 
1.54

>  <chemical_class>  (1911) 
Isocoumarins and derivatives

>  <chemical_sub_class>  (1911) 
Isocoumarins and derivatives

>  <chemical_super_class>  (1911) 
Phenylpropanoids and polyketides

>  <direct_parent_classification>  (1911) 
Isocoumarins and derivatives

>  <np_classifier_pathway>  (1911) 
Shikimates and Phenylpropanoids

>  <np_classifier_superclass>  (1911) 
Coumarins

>  <np_classifier_class>  (1911) 
Isocoumarins

>  <np_classifier_is_glycoside>  (1911) 
False

>  <organisms>  (1911) 
Artemisia gilvescens|Aster conspicuus|Aurapex penicillata|Bryophyllum calycinum|Ceratocystis fimbriata|Ceratocystis ips|Ceratocystis minor|Cheilanthes chusana|Clitocybula oculus|Colletotrichum lagenarium|Conoideocrella tenuis|Crotalaria ferruginea|Datura stramonium|Endophytic fungi|Kleinia tomentosa|Melanocarpus albomyces|Murrayella periclados|Oenanthe fistulosa|Papulaspora immersa|Picris evae|Senna didymobotrya|Sorocea ilicifolia|Streptomyces|Streptomyces ANK 302|Streptomyces eurocidicus|Streptomyces microflavus|Streptomyces sp. ANK302|Streptomyces sp. MBT76-1|Torrubiella tenuis BCC12732|Xylariaceae sp. CR1546C|Zanthoxylum parviflorum|torrubiella tenuis bcc 12732

>  <collections>  (1911) 
AnalytiCon Discovery NPs|CMAUP (cCollective molecular activities of useful plants)|ChEBI NPs|ChemSpider NPs|EMNPD|KNApSaCK|Latin America dataset|NAPRORE-CR|NPASS|NPEdia|NuBBEDB|Phyto4Health|StreptomeDB|Super Natural II|UNPD (Universal Natural Products Database)|WikiData Natural Products|ZINC NP

>  <dois>  (1911) 
10.1002/cbdv.201000011.|10.1016/0031-9422(96)00166-5|10.1016/S0031-9422(00)94393-0|10.1016/j.bmcl.2012.07.075|10.1021/ACS.JNATPROD.6B00478|10.1021/NP900082H|10.1021/acs.jnatprod.6b00478|10.1021/acschembio.9b00049|10.1021/np900082h|10.1139/V86-149|10.1139/V87-130|10.3184/174751914X14175406270662|10.7164/ANTIBIOTICS.47.541

>  <synonyms>  (1911) 
1H-2-benzopyran-1-one, 6,8-dihydroxy-3-methyl-|3,4-Dehydro-6-hydroxymellein|6,8-Dihydroxy-3-methyl-1H-2-benzopyran-1-one|6,8-Dihydroxy-3-methylisocoumarin, >=95% (LC\/MS-UV)|6,8-dihydroxy-3-methyl-1H-isochromen-1-one|6,8-dihydroxy-3-methylisochromen-1-one|6,8-dihydroxy-3-methylisocoumarin|AC1NQXBQ|ACon1_002418|AKOS022643888|BDBM50485548|BRD-K15024928-001-01-5|C03830|CHEBI:1369|CHEMBL559789|DTXSID50415064|InChI=1\/C10H8O4\/c1-5-2-6-3-7(11)4-8(12)9(6)10(13)14-5\/h2-4,11-12H,1H|MEGxm0_000264|NCGC00169867-01|NS00134339|Q27105447|SCHEMBL1520526|SureCN1520526

>  <cas>  (1911) 
nan

$$$$

     RDKit          2D

 39 41  0  0  0  0  0  0  0  0999 V2000
    7.6261   -0.8059    0.0000 C   0  0  0  0  0  0  0  0  0  0  0  0
    6.1332   -0.9512    0.0000 C   0  0  0  0  0  0  0  0  0  0  0  0
    5.5126   -2.3168    0.0000 C   0  0  0  0  0  0  0  0  0  0  0  0
    6.3849   -3.5371    0.0000 C   0  0  0  0  0  0  0  0  0  0  0  0
    4.0196   -2.4621    0.0000 C   0  0  0  0  0  0  0  0  0  0  0  0
    3.1473   -1.2418    0.0000 C   0  0  0  0  0  0  0  0  0  0  0  0
    1.6544   -1.3872    0.0000 C   0  0  0  0  0  0  0  0  0  0  0  0
    2.0567   -2.8322    0.0000 C   0  0  0  0  0  0  0  0  0  0  0  0
    1.7705    0.1083    0.0000 C   0  0  0  0  0  0  0  0  0  0  0  0
    3.1237    0.7555    0.0000 C   0  0  0  0  0  0  0  0  0  0  0  0
    0.5334    0.9567    0.0000 C   0  0  0  0  0  0  0  0  0  0  0  0
    0.6496    2.4522    0.0000 O   0  0  0  0  0  0  0  0  0  0  0  0
    2.0028    3.0993    0.0000 C   0  0  0  0  0  0  0  0  0  0  0  0
    3.2399    2.2510    0.0000 O   0  0  0  0  0  0  0  0  0  0  0  0
    2.1189    4.5948    0.0000 C   0  0  0  0  0  0  0  0  0  0  0  0
    3.4721    5.2420    0.0000 C   0  0  0  0  0  0  0  0  0  0  0  0
    3.5883    6.7375    0.0000 C   0  0  0  0  0  0  0  0  0  0  0  0
   -0.8198    0.3095    0.0000 C   0  0  0  0  0  0  0  0  0  0  0  0
   -1.8148    1.4320    0.0000 O   0  0  0  0  0  0  0  0  0  0  0  0
   -0.9359   -1.1860    0.0000 C   0  0  0  0  0  0  0  0  0  0  0  0
   -2.2891   -1.8332    0.0000 C   0  0  0  0  0  0  0  0  0  0  0  0
   -2.4053   -3.3287    0.0000 C   0  0  0  0  0  0  0  0  0  0  0  0
   -1.1682   -4.1770    0.0000 C   0  0  0  0  0  0  0  0  0  0  0  0
   -1.2843   -5.6725    0.0000 O   0  0  0  0  0  0  0  0  0  0  0  0
    0.1850   -3.5298    0.0000 C   0  0  0  0  0  0  0  0  0  0  0  0
    0.3011   -2.0343    0.0000 C   0  0  0  0  0  0  0  0  0  0  0  0
   -1.7754   -2.0381    0.0000 C   0  0  0  0  0  0  0  0  0  0  0  0
   -4.8097   -0.9435    0.0000 O   0  0  0  0  0  0  0  0  0  0  0  0
   -5.7241    0.2456    0.0000 C   0  0  0  0  0  0  0  0  0  0  0  0
   -5.1515    1.6320    0.0000 O   0  0  0  0  0  0  0  0  0  0  0  0
   -7.2111    0.0483    0.0000 C   0  0  0  0  0  0  0  0  0  0  0  0
   -8.1255    1.2374    0.0000 C   0  0  0  0  0  0  0  0  0  0  0  0
   -9.6124    1.0400    0.0000 C   0  0  0  0  0  0  0  0  0  0  0  0
   -1.7024   -1.3217    0.0000 O   0  0  0  0  0  0  0  0  0  0  0  0
   -1.0988   -1.7145    0.0000 C   0  0  0  0  0  0  0  0  0  0  0  0
   -0.0463    1.3346    0.0000 O   0  0  0  0  0  0  0  0  0  0  0  0
   -0.3979    2.7928    0.0000 C   0  0  0  0  0  0  0  0  0  0  0  0
    0.6891    3.8265    0.0000 C   0  0  0  0  0  0  0  0  0  0  0  0
   -1.8366    3.2174    0.0000 O   0  0  0  0  0  0  0  0  0  0  0  0
  1  2  2  0
  2  3  1  0
  3  4  1  0
  3  5  2  0
  5  6  1  0
  6  7  1  0
  7  8  1  6
  7  9  1  0
  9 10  1  1
  9 11  1  0
 11 12  1  6
 12 13  1  0
 13 14  2  0
 13 15  1  0
 15 16  1  0
 16 17  1  0
 11 18  1  0
 18 19  1  1
 18 20  1  0
 20 21  1  6
 21 22  2  0
 22 23  1  0
 23 24  1  1
 23 25  1  0
 26 25  1  6
 21 27  1  0
 27 28  1  6
 28 29  1  0
 29 30  2  0
 29 31  1  0
 31 32  1  0
 32 33  1  0
 27 34  1  0
 34 35  1  0
 35 36  1  6
 36 37  1  0
 37 38  1  0
 37 39  2  0
 26  7  1  0
 26 20  1  0
 35 20  1  0
M  END
>  <identifier>  (1912) 
CNP0294395.1

>  <canonical_smiles>  (1912) 
C=C/C(C)=C\C[C@]1(C)[C@H](C)[C@@H](OC(=O)CCC)[C@H](O)[C@@]23C(=C[C@H](O)C[C@@H]12)[C@@H](OC(=O)CCC)O[C@H]3OC(C)=O

>  <standard_inchi>  (1912) 
InChI=1S/C30H44O9/c1-8-11-23(33)37-25-18(5)29(7,14-13-17(4)10-3)22-16-20(32)15-21-27(38-24(34)12-9-2)39-28(36-19(6)31)30(21,22)26(25)35/h10,13,15,18,20,22,25-28,32,35H,3,8-9,11-12,14,16H2,1-2,4-7H3/b17-13-/t18-,20+,22+,25-,26+,27+,28-,29-,30-/m1/s1

>  <standard_inchi_key>  (1912) 
UPJCAOKQHBUOLB-QCBPRUOOSA-N

>  <name>  (1912) 
nan

>  <iupac_name>  (1912) 
[(1~{S},3~{R},5~{R},6~{a}~{S},7~{S},8~{S},9~{R},10~{R},10~{a}~{S})-1-acetoxy-3-butanoyloxy-5,10-dihydroxy-7,8-dimethyl-7-[(2~{Z})-3-methylpenta-2,4-dienyl]-1,3,5,6,6~{a},8,9,10-octahydrobenzo[d]isobenzofuran-9-yl] butanoate

>  <annotation_level>  (1912) 
5

>  <total_atom_count>  (1912) 
83

>  <heavy_atom_count>  (1912) 
39

>  <molecular_weight>  (1912) 
548.67

>  <exact_molecular_weight>  (1912) 
548.29853

>  <molecular_formula>  (1912) 
C30H44O9

>  <alogp>  (1912) 
4.12

>  <topological_polar_surface_area>  (1912) 
128.59

>  <rotatable_bond_count>  (1912) 
10

>  <hydrogen_bond_acceptors>  (1912) 
9

>  <hydrogen_bond_donors>  (1912) 
2

>  <hydrogen_bond_acceptors_lipinski>  (1912) 
9

>  <hydrogen_bond_donors_lipinski>  (1912) 
2

>  <lipinski_rule_of_five_violations>  (1912) 
1

>  <aromatic_rings_count>  (1912) 
0

>  <qed_drug_likeliness>  (1912) 
0.18

>  <formal_charge>  (1912) 
0

>  <fractioncsp3>  (1912) 
0.70

>  <number_of_minimal_rings>  (1912) 
3

>  <van_der_walls_volume>  (1912) 
513.86

>  <contains_sugar>  (1912) 
False

>  <contains_ring_sugars>  (1912) 
False

>  <contains_linear_sugars>  (1912) 
False

>  <murcko_framework>  (1912) 
O1CC2=CCCC3CCCCC23C1

>  <np_likeness>  (1912) 
3.16

>  <chemical_class>  (1912) 
Prenol lipids

>  <chemical_sub_class>  (1912) 
Diterpenoids

>  <chemical_super_class>  (1912) 
Lipids and lipid-like molecules

>  <direct_parent_classification>  (1912) 
Colensane and clerodane diterpenoids

>  <np_classifier_pathway>  (1912) 
Terpenoids

>  <np_classifier_superclass>  (1912) 
Diterpenoids

>  <np_classifier_class>  (1912) 
Colensane and Clerodane diterpenoids

>  <np_classifier_is_glycoside>  (1912) 
True

>  <organisms>  (1912) 
Casearia sylvestris

>  <collections>  (1912) 
ChemSpider NPs|Latin America dataset|NuBBEDB|Super Natural II|WikiData Natural Products|ZINC NP

>  <dois>  (1912) 
10.1002/CBDV.200800342|10.1002/cbdv.200800342|10.1248/CPB.38.3384

>  <synonyms>  (1912) 
Casearin D, (1R*3S*5S*6aR*7R*8R*9S*10S*10aR*)-1-(Acetyloxy)-3566a78910-octahydro-510-dihydroxy-78-dimethyl-7-[(2Z)-3-methylpenta-24-dien-1-yl]naphtho[18a-c]furan-39-diyl Dibutanoate

>  <cas>  (1912) 
nan

$$$$

     RDKit          2D

 22 23  0  0  0  0  0  0  0  0999 V2000
   -4.7000   -1.6808    0.0000 C   0  0  0  0  0  0  0  0  0  0  0  0
   -3.5653   -0.6996    0.0000 C   0  0  0  0  0  0  0  0  0  0  0  0
   -3.8477    0.7736    0.0000 C   0  0  0  0  0  0  0  0  0  0  0  0
   -5.2647    1.2656    0.0000 C   0  0  0  0  0  0  0  0  0  0  0  0
   -6.3993    0.2845    0.0000 O   0  0  0  0  0  0  0  0  0  0  0  0
   -5.5471    2.7388    0.0000 O   0  0  0  0  0  0  0  0  0  0  0  0
   -2.1483   -1.1917    0.0000 C   0  0  0  0  0  0  0  0  0  0  0  0
   -1.0137   -0.2105    0.0000 C   0  0  0  0  0  0  0  0  0  0  0  0
    0.4033   -0.7026    0.0000 C   0  0  0  0  0  0  0  0  0  0  0  0
    0.6857   -2.1758    0.0000 C   0  0  0  0  0  0  0  0  0  0  0  0
   -0.4490   -3.1569    0.0000 C   0  0  0  0  0  0  0  0  0  0  0  0
    2.1027   -2.6678    0.0000 C   0  0  0  0  0  0  0  0  0  0  0  0
    3.2373   -1.6867    0.0000 C   0  0  0  0  0  0  0  0  0  0  0  0
    2.9549   -0.2135    0.0000 C   0  0  0  0  0  0  0  0  0  0  0  0
    4.0895    0.7676    0.0000 C   0  0  0  0  0  0  0  0  0  0  0  0
    5.4913    1.3015    0.0000 C   0  0  0  0  0  0  0  0  0  0  0  0
    4.8587   -0.5201    0.0000 C   0  0  0  0  0  0  0  0  0  0  0  0
    3.8072    2.2408    0.0000 C   0  0  0  0  0  0  0  0  0  0  0  0
    2.3902    2.7329    0.0000 C   0  0  0  0  0  0  0  0  0  0  0  0
    1.2555    1.7517    0.0000 C   0  0  0  0  0  0  0  0  0  0  0  0
    1.5379    0.2785    0.0000 C   0  0  0  0  0  0  0  0  0  0  0  0
    0.1209    0.7706    0.0000 C   0  0  0  0  0  0  0  0  0  0  0  0
  1  2  1  0
  2  3  2  3
  3  4  1  0
  4  5  2  0
  4  6  1  0
  2  7  1  0
  7  8  1  0
  9  8  1  1
  9 10  1  0
 10 11  1  0
 10 12  2  0
 12 13  1  0
 14 13  1  1
 14 15  1  0
 15 16  1  0
 15 17  1  0
 15 18  1  0
 18 19  1  0
 19 20  1  0
 20 21  1  0
 21 22  1  1
 21  9  1  0
 21 14  1  0
M  END
>  <identifier>  (1913) 
CNP0243635.4

>  <canonical_smiles>  (1913) 
CC(=CC(=O)O)CC[C@@H]1C(C)=CC[C@@H]2C(C)(C)CCC[C@@]12C

>  <standard_inchi>  (1913) 
InChI=1S/C20H32O2/c1-14(13-18(21)22)7-9-16-15(2)8-10-17-19(3,4)11-6-12-20(16,17)5/h8,13,16-17H,6-7,9-12H2,1-5H3,(H,21,22)/t16-,17-,20+/m1/s1

>  <standard_inchi_key>  (1913) 
YUYHINCTHBQFIT-HLIPFELVSA-N

>  <name>  (1913) 
DTXSID001106516

>  <iupac_name>  (1913) 
5-[(1~{R},4~{a}~{R},8~{a}~{R})-2,5,5,8~{a}-tetramethyl-1,4,4~{a},6,7,8-hexahydronaphthalen-1-yl]-3-methyl-pent-2-enoic acid

>  <annotation_level>  (1913) 
5

>  <total_atom_count>  (1913) 
54

>  <heavy_atom_count>  (1913) 
22

>  <molecular_weight>  (1913) 
304.47

>  <exact_molecular_weight>  (1913) 
304.24023

>  <molecular_formula>  (1913) 
C20H32O2

>  <alogp>  (1913) 
5.60

>  <topological_polar_surface_area>  (1913) 
37.30

>  <rotatable_bond_count>  (1913) 
4

>  <hydrogen_bond_acceptors>  (1913) 
1

>  <hydrogen_bond_donors>  (1913) 
1

>  <hydrogen_bond_acceptors_lipinski>  (1913) 
1

>  <hydrogen_bond_donors_lipinski>  (1913) 
1

>  <lipinski_rule_of_five_violations>  (1913) 
1

>  <aromatic_rings_count>  (1913) 
0

>  <qed_drug_likeliness>  (1913) 
0.54

>  <formal_charge>  (1913) 
0

>  <fractioncsp3>  (1913) 
0.75

>  <number_of_minimal_rings>  (1913) 
2

>  <van_der_walls_volume>  (1913) 
nan

>  <contains_sugar>  (1913) 
False

>  <contains_ring_sugars>  (1913) 
False

>  <contains_linear_sugars>  (1913) 
False

>  <murcko_framework>  (1913) 
C1=CCC2CCCCC2C1

>  <np_likeness>  (1913) 
2.95

>  <chemical_class>  (1913) 
Prenol lipids

>  <chemical_sub_class>  (1913) 
Diterpenoids

>  <chemical_super_class>  (1913) 
Lipids and lipid-like molecules

>  <direct_parent_classification>  (1913) 
Diterpenoids

>  <np_classifier_pathway>  (1913) 
Terpenoids

>  <np_classifier_superclass>  (1913) 
Diterpenoids

>  <np_classifier_class>  (1913) 
Labdane diterpenoids

>  <np_classifier_is_glycoside>  (1913) 
False

>  <organisms>  (1913) 
Hymenea coubaril

>  <collections>  (1913) 
NuBBEDB

>  <dois>  (1913) 
10.1016/0031-9422(75)85324-6

>  <synonyms>  (1913) 
2-Pentenoic acid, 3-methyl-5-(1,4,4a,5,6,7,8,8a-octahydro-2,5,5,8a-tetramethyl-1-naphthalenyl)-, [1R-(1I+\/-,4aI(2),8aI+\/-)]-|Eperua-7,13-dien-15-oic acid

>  <cas>  (1913) 
14022-43-6

$$$$

     RDKit          2D

 13 13  0  0  0  0  0  0  0  0999 V2000
   -3.8981    1.1227    0.0000 C   0  0  0  0  0  0  0  0  0  0  0  0
   -3.0570   -0.1193    0.0000 O   0  0  0  0  0  0  0  0  0  0  0  0
   -1.5608   -0.0119    0.0000 C   0  0  0  0  0  0  0  0  0  0  0  0
   -0.9058    1.3375    0.0000 C   0  0  0  0  0  0  0  0  0  0  0  0
    0.5903    1.4450    0.0000 C   0  0  0  0  0  0  0  0  0  0  0  0
    1.2454    2.7944    0.0000 C   0  0  0  0  0  0  0  0  0  0  0  0
    2.7415    2.9018    0.0000 O   0  0  0  0  0  0  0  0  0  0  0  0
    1.4314    0.2030    0.0000 C   0  0  0  0  0  0  0  0  0  0  0  0
    0.7764   -1.1465    0.0000 C   0  0  0  0  0  0  0  0  0  0  0  0
    1.6175   -2.3884    0.0000 O   0  0  0  0  0  0  0  0  0  0  0  0
    3.1137   -2.2810    0.0000 C   0  0  0  0  0  0  0  0  0  0  0  0
   -0.7197   -1.2539    0.0000 C   0  0  0  0  0  0  0  0  0  0  0  0
   -1.3748   -2.6033    0.0000 O   0  0  0  0  0  0  0  0  0  0  0  0
  1  2  1  0
  2  3  1  0
  3  4  2  0
  4  5  1  0
  5  6  1  0
  6  7  2  0
  5  8  2  0
  8  9  1  0
  9 10  1  0
 10 11  1  0
  9 12  2  0
 12 13  1  0
 12  3  1  0
M  END
>  <identifier>  (1914) 
CNP0113041.0

>  <canonical_smiles>  (1914) 
COC1=CC(C=O)=CC(OC)=C1O

>  <standard_inchi>  (1914) 
InChI=1S/C9H10O4/c1-12-7-3-6(5-10)4-8(13-2)9(7)11/h3-5,11H,1-2H3

>  <standard_inchi_key>  (1914) 
KCDXJAYRVLXPFO-UHFFFAOYSA-N

>  <name>  (1914) 
SYRINGALDEHYDE

>  <iupac_name>  (1914) 
4-hydroxy-3,5-dimethoxy-benzaldehyde

>  <annotation_level>  (1914) 
5

>  <total_atom_count>  (1914) 
23

>  <heavy_atom_count>  (1914) 
13

>  <molecular_weight>  (1914) 
182.17

>  <exact_molecular_weight>  (1914) 
182.05791

>  <molecular_formula>  (1914) 
C9H10O4

>  <alogp>  (1914) 
1.22

>  <topological_polar_surface_area>  (1914) 
55.76

>  <rotatable_bond_count>  (1914) 
3

>  <hydrogen_bond_acceptors>  (1914) 
4

>  <hydrogen_bond_donors>  (1914) 
1

>  <hydrogen_bond_acceptors_lipinski>  (1914) 
4

>  <hydrogen_bond_donors_lipinski>  (1914) 
1

>  <lipinski_rule_of_five_violations>  (1914) 
0

>  <aromatic_rings_count>  (1914) 
1

>  <qed_drug_likeliness>  (1914) 
0.71

>  <formal_charge>  (1914) 
0

>  <fractioncsp3>  (1914) 
0.22

>  <number_of_minimal_rings>  (1914) 
1

>  <van_der_walls_volume>  (1914) 
162.46

>  <contains_sugar>  (1914) 
False

>  <contains_ring_sugars>  (1914) 
False

>  <contains_linear_sugars>  (1914) 
False

>  <murcko_framework>  (1914) 
c1ccccc1

>  <np_likeness>  (1914) 
0.71

>  <chemical_class>  (1914) 
Phenols

>  <chemical_sub_class>  (1914) 
Methoxyphenols

>  <chemical_super_class>  (1914) 
Benzenoids

>  <direct_parent_classification>  (1914) 
Methoxyphenols

>  <np_classifier_pathway>  (1914) 
Shikimates and Phenylpropanoids

>  <np_classifier_superclass>  (1914) 
Phenolic acids (C6-C1)

>  <np_classifier_class>  (1914) 
Cinnamic acids and derivatives

>  <np_classifier_is_glycoside>  (1914) 
False

>  <organisms>  (1914) 
Achyranthes aspera|Acicarpha tribuloides|Acinetobacter baumannii|Acinetobacter calcoaceticus|Aconitum palmatum|Aconitum tianschanicum|Aeschynanthus bracteatus|Aframomum giganteum|Agardhiella subulata|Albatrellus caeruleoporus|Alchornea cordifolia|Alexandrium excavatum|Alstonia angustiloba|Alstonia undulifolia|Amanita pseudoporphyria|Ambrosia cumanensis|Ambrosia psilostachya|Amomum daniellii|Angelica saxatilis|Aniba rosaeodora|Annona cherimola|Annona montana|Aphis nerii|Aplysilla rosea|Aplysinella rhax|Arabidopsis thaliana|Arachniodes mutica|Aralia bipinnata|Aralidium pinnatifidum|Arbacia pustulosa|Aria dentata|Ariocarpus fissuratus|Artemisia pectinata|Aspergillus microcysticus|Asteriscus aquaticus|Atalantia wightii|Baccharis grandicapitulata|Balanophora japonica|Balsamorhiza macrophylla|Barnettia kerrii|Beesia calthifolia|Bersama swinnyi|Beta vulgaris|Betula davurica|Betula platyphylla|Bidens tripartita|Blainvillea latifolia|Boletinus paluster|Boronella koniambiensis|Boronia koniambiensis|Boronia pinnata|Boschniakia rossica|Botrychium ternatum|Brosimum acutifolium|Brucea javanica|Bursera kerberi|Cacalia robusta|Caesalpinia bonducella|Calcarisporium thermophilum|Capparis ovata|Carpesium faberi|Casearia membranacea|Cassine papillosa|Centaurea africana|Centaurea arbutifolia|Centaurea musimomum|Centaurea nicolai|Charpentiera obovata|Cheilanthes marantae|Chlamydomonas allensworthii|Chromodoris youngbleuthi|Cinnamomum Subavenium|Cinnamomum burmannii Nees ex BI|Cinnamomum kotoense|Cinnamomum subavenium|Cissus discolor|Cissus sicyoides|Cladonia pityrea|Clathria prolifera|Clausena excavata|Claviceps microcephala|Clerodendrum trichotomum|Clinacanthus nutans|Codonopsis cordifolioidea|Codonopsis pilosula|Coffea liberica var. dewevrei|Conus pulicarius|Coriandrum sativum|Coronopus squamatus|Corydalis persica|Corydalis sewerzowi|Corymbia citriodora|Corynanthe pachyceras|Costasiella ocellifera|Cota tinctoria|Crematogaster africana|Creosphaeria sassafras|Crotalaria stolzii|Croton montevidensis|Cryptolestes pusillus|Curcuma aeruginosa|Cybister lateralimarginalis|Cynoglossum amabile|Cystoseira caespitosa|Dahlstedtia pentaphylla|Dalbergia sympathetica|Daphne feddei|Datisca glomerata|Delisea elegans|Delphinium giraldii|Dendrobium hainanense|Dendrobium nobile|Dendrobium officinale|Dermocybe cardinalis|Dianthus versicolor|Dioscorea olfersiana|Diospyros maritima|Diplospora dubia|Drimia fugax|Ecballium elaterium|Echinus microtuberculatus|Emericellopsis minima|Epipedobates anthonyi|Erium villosum|Erylus nobilis|Eucalyptus albens|Eucalyptus citriodora|Eucalyptus regnans|Eugenia sandwicensis|Euonymus alatus|Euonymus fortunei|Euphausia superba|Euphorbia lagascae|Euphorbia latazi|Euphorbia resinifera|Euploca racemosa|Eurycoma longifolia|Fagraea racemosa|Fagus fusca|Fatoua pilosa|Fatoua villosa|Fibraurea tinctoria|Ficus septica|Flavoparmelia caperata|Flemingia philippinensis|Flueggea microcarpa|Fructus choerospondiatis|Fuscospora fusca|Garcinia conrauana|Garcinia linii|Gardenia carinata|Gardenia jasminoides|Geigeria schinzii|Genista sessilifolia|Gentiana strictiflora|Glinus oppositifolius|Glycosmis pseudoracemosa|Gomphostemma parviflorum|Goniothalamus undulatus|Guilandina bonduc|Gutierrezia dracunculoides|Gymnadenia conopsea|Gymnadenia conopsea R.BR.|Gymnosporia pyria|Gymnosporia trigyna|Gynura elliptica|Hedysarum gmelini|Helenium integrifolium|Helichrysum angustifolium|Helichrysum auriceps|Helichrysum rugulosum|Helichrysum sutherlandii|Helminthosporium victoriae|Heterosigma akashiwo|Hibiscus cannabinus|Hibiscus taiwanensis|Hippobroma longiflora|Hubertia tomentosa|Hydrangea chinensis|Hygrophorus eburneus|Hypericum foliosum|Hypericum japonicum|Hypholoma capnoides|Ilex rotunda|Illicium difengpi|Imperata cylindrica|Inula grantioides|Iotrochota purpurea|Isatis quadrialata|Isatis tinctoria|Jasione montana|Jatropha dioica|Juglans regia|Jugo|Juniperus horizontalis|Juniperus scopulorum|Jurinea maxima|Lactarius deliciosus var. deterrimus|Laguncularia racemosa|Lambertella corni|Lasianthaea podocephala|Lathyrus tingitanus|Laurencia rigida|Leontice kiangnanensis|Lepidorhinus squamosus|Libidibia ferrea|Licaria puchury-major|Ligustrum obtusifolium|Lithospermum erythrorhizon|Lophiostoma vaginatispora|Lophocereus marginatus|Lotus ucrainicus|Lupinus cosentinii|Machaerium kuhlmannii|Machilus obovatifolia|Machilus odoratissima|Machilus zuihoensis|Magnolia compressa|Magnolia grandiflora|Magnolia kachirachirai|Magnolia officinalis|Magnolia sinica|Medium grandiflorum|Melampodium leucanthum|Melicope semecarpifolia|Metridium senile|Micromonospora echinospora|Microtropis japonica|Mikania shushunensis|Monanchora unguiculata|Monascus purpureus|Morella pensylvanica|Morus macroura|Moullava digyna|Moullava tortuosa|Mycetia nutans|Myelobia smerintha|Myristica cagayanensis|Mytilus galloprovincialis|Naja naja|Nemuaron humboldtii|Neolitsea hiiranensis|Neopringlea integrifolia|Notonia grandiflora|Ocypus olens|Onoseris alata|Ophidiaster ophidianus|Ophiopholis aculeata|Ophryosporus charua|Ormosia dasycarpa|Orobanche crenata|Orobanche variegata|Pachycereus pringlei|Panax bipinnatifidus var. bipinnatifidus|Panax japonicus|Panax japonicus var. major (burk.) wu et feng|Papaver pseudocanescens|Papaver radicatum|Pellacalyx axillaris|Penicillium alutaceum|Pestalotiopsis oenotherae|Petrosia corticata|Peucedanum oroselinum|Phaseolus vulgaris|Phebalium bilobum|Phebalium dentatum|Phlomis crinita|Phyllanthus oligospermus|Phyllostachys nigra|Picris rhagadioloides|Pilocarpus grandiflorus|Pinus glauca|Piper acutifolium|Piper brachystachyum|Piper solmsianum|Pisonia aculeata|Pisonia umbellifera|Platycarya strobilacea|Plectosphaerella cucumerina|Plectranthus caninus|Pluchea indica|Polygonum flaccidum|Populus euphratica|Populus lasiocarpa|Posidonia oceanica|Premna tomentosa|Prosopis kuntzei|Pseudocyphellaria australiensis|Pseudowintera colorata|Psiadia anchusifolia|Psidium acutangulum|Psilotum nudum|Pteris spinulosa|Punica granatum|Quercus faginea|Quercus humboldtii|Quercus imbricaria|Quercus petraea|Quercus pyrenaica|Quercus robur|Raphanus raphanistrum|Rauvolfia salicifolia|Renealmia alpinia|Rhinacanthus Nasutus|Rhinacanthus nasutus|Rhizophora apiculata|Rhizophora mangle|Rhizoplaca baranowii|Rhododendron mucronulatum|Rhododendron vaccinioides|Rosa transmorrisonensis|Russula sardonia|Salix alba|Salmonella enterica subsp. enterica serovar bovismorbificans|Sarcophyton flexuosum|Saussurea lappa|Schisandra sphaerandra|Scrophularia koelzii|Scytonema ocellatum|Selinum libanotis|Semen sojae praeparata|Senecio congestus|Senecio zoellneri|Senna|Senra incana|Sesamum orientale|Sesbania grandiflora|Seseli tortuosum LBS.Eur.|Sideritis dasygnaphala|Sideritis perfoliata|Solanum andigena|Solanum diflorum|Spiracantha cornifolia|Staehelina fruticosa|Stellaria media|Stenocereus thurberi|Stereocaulon azoreum|Stereospermum acuminatissimum|Streblognathus aethiopicus|Streptomyces fradiae|Streptomyces globisporus|Streptomyces griseocarneus|Streptomyces melanogenes|Streptomyces parvisporogenes|Streptomyces platensis|Streptomyces sulfonofaciens|Streptomyces tateyamensis|Strobilanthes dimorphotricha|Strobilanthes formosana|Strobilanthes pentstemonoides|Strobilanthes psilostachys|Strychnos spinosa|Syzygium corticosum|Syzygium sandwicense|Takifugu rubripes|Taraxacum formosanum|Taraxacum mongolicum|Tarenna attenuata|Tephroseris kirilowii|Tetradium glabrifolium|Trapa bicornis|Tricalysia dubia|Triticum aestivum|Tylophora tanakae|Vallaris heynei|Vellozia streptophylla|Vepris uguenensis|Verbesina turbacensis|Viscum coloratum|Vitex negundo|Vitis vinifera|Viviparus japonicus|Wikstroemia canescens|Xyris indica|Zanthoxylum ailanthoides|Zanthoxylum chiloperone|Zanthoxylum gilletii|Zanthoxylum integrifoliolum|Zanthoxylum nitidum|Zanthoxylum wutaiense|Zephyranthes flava|Zizania aquatica|Zygosaccharomyces rouxii|asparagus|basil|pomegranate|tomato

>  <collections>  (1914) 
ANPDB|AfroDB|Australian natural products|CMAUP (cCollective molecular activities of useful plants)|ChEBI NPs|ConMedNP|EMNPD|ETM (Ethiopian Traditional Medicine) DB|FooDB|GNPS (Global Natural Products Social Molecular Networking)|InterBioScreen Ltd|KNApSaCK|Latin America dataset|NANPDB (Natural Products from Northern African Sources)|NPASS|NPDBEjeCol|NPEdia|NuBBEDB|Phenol-explorer|Phyto4Health|ReSpect|Super Natural II|TCMDB-Taiwan (Traditional Chinese Medicine database)|TCMID (Traditional Chinese Medicine Integrated Database)|TIPdb (database of Taiwan indigenous plants)|UNPD (Universal Natural Products Database)|VietHerb|WikiData Natural Products

>  <dois>  (1914) 
10.1002/CBDV.200900326|10.1002/CBDV.200900418|10.1002/CHIN.200533256|10.1002/JCCS.199900010|10.1002/JCCS.200000074|10.1002/JCCS.200200019|10.1002/JCCS.200300178|10.1002/JCCS.200500117|10.1002/JCCS.200700112|10.1002/jccs.200000074|10.1007/978-1-4020-4585-1_2417|10.1007/S10600-008-0003-2|10.1007/S10600-010-9463-2|10.1007/S10600-010-9591-8|10.1007/S10600-011-9885-5|10.1007/S11101-023-09858-Z|10.1007/S11418-008-0248-X|10.1016/0031-9422(73)80047-0|10.1016/0031-9422(81)85100-X|10.1016/0031-9422(88)80758-1|10.1016/0031-9422(88)83034-6|10.1016/0031-9422(91)85032-U|10.1016/0031-9422(93)85036-Q|10.1016/0031-9422(94)00943-N|10.1016/0031-9422(95)00072-F|10.1016/0031-9422(95)00248-6|10.1016/0031-9422(95)00499-8|10.1016/0031-9422(95)00930-2|10.1016/0031-9422(96)00212-9|10.1016/J.BMC.2003.11.017|10.1016/J.BMC.2008.09.023|10.1016/J.BMCL.2009.08.002|10.1016/J.FITOTE.2011.09.018|10.1016/J.FITOTE.2011.10.014|10.1016/J.FITOTE.2011.11.015|10.1016/J.FOODCHEM.2006.01.045|10.1016/J.FOODCHEM.2010.09.069|10.1016/J.PHYTOCHEM.2003.12.009|10.1016/J.PHYTOCHEM.2007.12.013|10.1016/J.PHYTOCHEM.2008.05.012|10.1016/J.PHYTOCHEM.2009.03.021|10.1016/J.PHYTOCHEM.2009.04.019|10.1016/J.PHYTOCHEM.2009.11.008|10.1016/J.PHYTOCHEM.2010.04.013|10.1016/J.PHYTOCHEM.2011.01.006|10.1016/J.PHYTOCHEM.2011.02.020|10.1016/J.PHYTOL.2011.08.003|10.1016/J.TETLET.2010.10.102|10.1016/S0021-9673(01)00598-2|10.1016/S0031-9422(00)00473-8|10.1016/S0031-9422(00)83140-4|10.1016/S0031-9422(00)86988-5|10.1016/S0031-9422(00)97488-0|10.1016/S0031-9422(01)00180-7|10.1016/S0031-9422(03)00356-X|10.1016/S0031-9422(97)01118-7|10.1016/S0031-9422(98)00425-7|10.1016/S0031-9422(99)00207-1|10.1016/S0031-9422(99)00599-3|10.1016/S0031-9422(99)00608-1|10.1016/S0926-6690(00)00088-1|10.1016/j.bmc.2018.07.025|10.1016/j.bse.2008.07.006|10.1016/j.phytochem.2007.12.013|10.1021/ACS.JAFC.5B05575|10.1021/JF050721N|10.1021/JF900695S|10.1021/JF902310J|10.1021/JF940651C|10.1021/JF9502461|10.1021/NP0000318|10.1021/NP000084P|10.1021/NP010091T|10.1021/NP050013W|10.1021/NP0580210|10.1021/NP060107L|10.1021/NP060425K|10.1021/NP060500R|10.1021/NP070186G|10.1021/NP070594K|10.1021/NP100851S|10.1021/NP1008575|10.1021/NP50048A057|10.1021/NP700719E|10.1021/NP800097T|10.1021/NP8004166|10.1021/NP800494E|10.1021/NP800689B|10.1021/OL062854F|10.1021/np0000318|10.1021/np0580210|10.1021/np070186g|10.1021/np100851s|10.1021/np1008575|10.1021/np800097t|10.1021/np8004166|10.1051/ctv/20173202093|10.1055/S-0028-1084385|10.1055/S-0029-1234991|10.1055/S-0030-1250534|10.1055/S-2000-8654|10.1055/S-2001-16480|10.1055/S-2003-41120|10.1055/S-2005-871295|10.1055/S-2005-873125|10.1055/S-2005-916253|10.1055/S-2006-958035|10.1055/S-2006-958118|10.1055/S-2006-961380|10.1055/S-2007-967165|10.1071/ch9500642|10.1080/09637486.2017.1418845|10.1080/10286020.2018.1475476|10.1093/pcp/pcn183|10.1155/2017/7436259|10.1248/CPB.22.2650|10.1248/CPB.32.578|10.1248/CPB.43.2200|10.1248/CPB.46.413|10.1248/CPB.53.56|10.1248/CPB.53.853|10.1248/CPB.54.1063|10.1248/CPB.54.506|10.1248/CPB.55.804|10.1248/CPB.56.97|10.1248/CPB.57.1089|10.1248/CPB.60.554|10.1271/BBB.61.1674|10.1271/BBB.61.1995|10.1271/BBB1961.44.205|10.1515/ZNB-2005-0715|10.1515/znb-2005-0715|10.1590/S0102-695X2008000100013|10.3186/JJPHYTOPATH.61.103|10.3390/MOLECULES13020444|10.3390/MOLECULES14125281|10.3390/MOLECULES22101606|10.3390/MOLECULES23020383|10.3390/MOLECULES23092104|10.3390/molecules27020483|10.4314/NJNPM.V1I1.11800|10.5650/JOS1996.45.671|10.5650/JOS1996.46.1399

>  <synonyms>  (1914) 
134-96-3|2,6-DIMETHOXY-4-FORMYLPHENOL|2ZR01KTT21|3,5-Dimethoxy-4-hydroxybenzaldehyde|3,5-Dimethoxy-4-hydroxybenzene carbonal|3,5-dimethoxy-4-oxidanyl-benzaldehyde|4-FORMYL-2,6-DIMETHOXYPHENOL|4-HYDROXY-3,5-DIMETHOXYBENZALDEHYDE [FHFI]|4-Hydroksy-3,5-dwumetoksybenzaldehyd|4-Hydroksy-3,5-dwumetoksybenzaldehyd [Polish]|4-Hydroxy-3,5-dimethoxybenzaldehyde|86220_FLUKA|A887790|AC-7993|AC7930|AI3-28796|AKOS000119539|AP-065\/41884112|BBL023037|BP-12551|BRN 0784514|Benzaldehyde, 3,5-dimethoxy-4-hydroxy-|Benzaldehyde, 4-hydroxy-3,5-dimethoxy-|CCG-266448|CHEBI:67380|CHEMBL225303|CS-0016810|Cedar aldehyde|D0635|DTXSID2059643|EINECS 205-167-5|EN300-21558|F2190-0619|FEMA NO. 4049|Gallaldehyde 3,5-dimethyl ether|HY-N1390|IJV|InChI=1\/C9H10O4\/c1-12-7-3-6(5-10)4-8(13-2)9(7)11\/h3-5,11H,1-2H|MFCD00006943|NS00020999|NSC 41153|NSC-41153|Q411695|SCHEMBL150376|STK801968|STR09162|SY014703|SYRINGALDEHYDE [MI]|Springaldehyde|Syringaldehyde (3,5-Dimethoxy-4-hydroxybenzaldehyde)|Syringaldehyde, 98%|Syringaldehyde, >=98%, FG|Syringaldehyde, Vetec(TM) reagent grade, 98%|Syringaldehyde, analytical standard|Syringic aldehyde|Syringylaldehyde|UNII-2ZR01KTT21|W-108274|Z104501688|ZINC00152926|bmse000595|bmse010204|not relevant|s4765|syringaldehye

>  <cas>  (1914) 
134-96-3

$$$$

     RDKit          2D

 25 28  0  0  0  0  0  0  0  0999 V2000
    5.9766   -1.8944    0.0000 C   0  0  0  0  0  0  0  0  0  0  0  0
    4.4871   -2.0709    0.0000 C   0  0  0  0  0  0  0  0  0  0  0  0
    4.9196   -3.5072    0.0000 C   0  0  0  0  0  0  0  0  0  0  0  0
    3.1477   -2.7463    0.0000 C   0  0  0  0  0  0  0  0  0  0  0  0
    1.8931   -1.9241    0.0000 C   0  0  0  0  0  0  0  0  0  0  0  0
    1.9779   -0.4265    0.0000 C   0  0  0  0  0  0  0  0  0  0  0  0
    3.3173    0.2489    0.0000 C   0  0  0  0  0  0  0  0  0  0  0  0
    3.4020    1.7465    0.0000 C   0  0  0  0  0  0  0  0  0  0  0  0
    2.1475    2.5687    0.0000 C   0  0  0  0  0  0  0  0  0  0  0  0
    2.2322    4.0663    0.0000 O   0  0  0  0  0  0  0  0  0  0  0  0
    0.8081    1.8933    0.0000 C   0  0  0  0  0  0  0  0  0  0  0  0
    0.7233    0.3957    0.0000 C   0  0  0  0  0  0  0  0  0  0  0  0
   -0.6160   -0.2797    0.0000 O   0  0  0  0  0  0  0  0  0  0  0  0
   -1.8706    0.5425    0.0000 C   0  0  0  0  0  0  0  0  0  0  0  0
   -3.2099   -0.1328    0.0000 C   0  0  0  0  0  0  0  0  0  0  0  0
   -4.4645    0.6894    0.0000 C   0  0  0  0  0  0  0  0  0  0  0  0
   -5.8039    0.0140    0.0000 C   0  0  0  0  0  0  0  0  0  0  0  0
   -5.8886   -1.4836    0.0000 C   0  0  0  0  0  0  0  0  0  0  0  0
   -7.2280   -2.1590    0.0000 O   0  0  0  0  0  0  0  0  0  0  0  0
   -4.6341   -2.3058    0.0000 C   0  0  0  0  0  0  0  0  0  0  0  0
   -3.2947   -1.6304    0.0000 C   0  0  0  0  0  0  0  0  0  0  0  0
   -1.7858    2.0402    0.0000 C   0  0  0  0  0  0  0  0  0  0  0  0
   -0.4465    2.7155    0.0000 C   0  0  0  0  0  0  0  0  0  0  0  0
   -0.3617    4.2131    0.0000 O   0  0  0  0  0  0  0  0  0  0  0  0
    4.5718   -0.5733    0.0000 O   0  0  0  0  0  0  0  0  0  0  0  0
  1  2  1  0
  2  3  1  0
  2  4  1  0
  4  5  2  0
  5  6  1  0
  6  7  2  0
  7  8  1  0
  8  9  2  0
  9 10  1  0
  9 11  1  0
 11 12  2  0
 12 13  1  0
 13 14  1  0
 14 15  1  0
 15 16  2  0
 16 17  1  0
 17 18  2  0
 18 19  1  0
 18 20  1  0
 20 21  2  0
 14 22  2  0
 22 23  1  0
 23 24  2  0
  7 25  1  0
 25  2  1  0
 12  6  1  0
 21 15  1  0
 23 11  1  0
M  END
>  <identifier>  (1915) 
CNP0291525.0

>  <canonical_smiles>  (1915) 
CC1(C)C=CC2=C(C=C(O)C3=C2OC(C2=CC=C(O)C=C2)=CC3=O)O1

>  <standard_inchi>  (1915) 
InChI=1S/C20H16O5/c1-20(2)8-7-13-17(25-20)10-15(23)18-14(22)9-16(24-19(13)18)11-3-5-12(21)6-4-11/h3-10,21,23H,1-2H3

>  <standard_inchi_key>  (1915) 
YEUHAZULDUVZLA-UHFFFAOYSA-N

>  <name>  (1915) 
atalantoflavone

>  <iupac_name>  (1915) 
5-hydroxy-2-(4-hydroxyphenyl)-8,8-dimethyl-pyrano[2,3-h]chromen-4-one

>  <annotation_level>  (1915) 
5

>  <total_atom_count>  (1915) 
41

>  <heavy_atom_count>  (1915) 
25

>  <molecular_weight>  (1915) 
336.34

>  <exact_molecular_weight>  (1915) 
336.09977

>  <molecular_formula>  (1915) 
C20H16O5

>  <alogp>  (1915) 
4.06

>  <topological_polar_surface_area>  (1915) 
79.90

>  <rotatable_bond_count>  (1915) 
1

>  <hydrogen_bond_acceptors>  (1915) 
5

>  <hydrogen_bond_donors>  (1915) 
2

>  <hydrogen_bond_acceptors_lipinski>  (1915) 
5

>  <hydrogen_bond_donors_lipinski>  (1915) 
2

>  <lipinski_rule_of_five_violations>  (1915) 
0

>  <aromatic_rings_count>  (1915) 
3

>  <qed_drug_likeliness>  (1915) 
0.70

>  <formal_charge>  (1915) 
0

>  <fractioncsp3>  (1915) 
0.15

>  <number_of_minimal_rings>  (1915) 
4

>  <van_der_walls_volume>  (1915) 
288.29

>  <contains_sugar>  (1915) 
False

>  <contains_ring_sugars>  (1915) 
False

>  <contains_linear_sugars>  (1915) 
False

>  <murcko_framework>  (1915) 
O1C(=CCc2ccc3OCC=Cc3c12)c4ccccc4

>  <np_likeness>  (1915) 
2.29

>  <chemical_class>  (1915) 
Flavonoids

>  <chemical_sub_class>  (1915) 
Pyranoflavonoids

>  <chemical_super_class>  (1915) 
Phenylpropanoids and polyketides

>  <direct_parent_classification>  (1915) 
Pyranoflavonoids

>  <np_classifier_pathway>  (1915) 
Shikimates and Phenylpropanoids

>  <np_classifier_superclass>  (1915) 
Flavonoids

>  <np_classifier_class>  (1915) 
Flavones

>  <np_classifier_is_glycoside>  (1915) 
False

>  <organisms>  (1915) 
Absidia caerulea|Alsidium corallinum|Anthotroche myoporoides|Astragalus flexus|Atalantia buxifolia|Atalantia racemosa|Axinella weltneri|Boswellia papyrifera|Cestrum laevigatum|Citrus limon|Citrus medica|Citrus sinensis|Dactynotus ambrosiae|Erythrina vogelii|Galdieria sulphuraria|Helenium virginicum|Heliotropium digynum|Hypericum caprifoliatum|Lactococcus lactis|Lupinus argenteus|Morus alba|Morus mongolica|Nannoglottis ravida|Phyllidia ocellata|Solanum pennellii|Tephrosia linearis|Trifoliate orange|Ulex airensis|Ulex europaeus|Ulex europaeus subsp. europaeus|Ulmus pumila|ulex europaeus ssp. europaeus

>  <collections>  (1915) 
CMAUP (cCollective molecular activities of useful plants)|KNApSaCK|Latin America dataset|NPASS|NPEdia|NuBBEDB|Super Natural II|TCMDB-Taiwan (Traditional Chinese Medicine database)|TCMID (Traditional Chinese Medicine Integrated Database)|UNPD (Universal Natural Products Database)|WikiData Natural Products

>  <dois>  (1915) 
10.1002/MRC.2548|10.1016/0031-9422(88)80782-9|10.1016/J.PHYTOCHEM.2005.09.022|10.1016/S0031-9422(98)00638-4|10.1021/NP000317C|10.1021/NP010147J|10.1021/acs.jnatprod.7b00938|10.1021/acs.jnatprod.9b00922|10.1021/jf801103p|10.1021/np010147j|10.1248/CPB.58.61|10.1248/CPB.58.971|10.3987/COM-08-11630

>  <synonyms>  (1915) 
119309-02-3|2-(4-hydroxyphenyl)-8,8-dimethyl-5-oxidanyl-pyrano(2,3-h)chromen-4-one|4H,8H-Benzo[1,2-b:3,4-b']dipyran-4-one, 5-hydroxy-2-(4-hydroxyphenyl)-8,8-dimethyl-|5,4'-Dihydroxy-7,8-(2,2-dimethylpyrano)flavone|5-HYDROXY-2-(4-HYDROXYPHENYL)-8,8-DIMETHYL-4H,8H-PYRANO[2,3-F]CHROMEN-4-ONE|5-Hydroxy-2-(4-hydroxyphenyl)-8,8-dimethyl-4H,8H-benzo[1,2-b:3,4-b']dipyran-4-one|5-hydroxy-2-(4-hydroxyphenyl)-8,8-dimethylpyrano[2,3-h]chromen-4-one|AKOS040761385|Atalantoflavone|CHEBI:175275|CHEMBL465808|CS-0023501|DTXSID701316885|F93998|FS-9509|HY-N2906|LMPK12110420|Limonianin|X9PW4WPE82|starbld0000825

>  <cas>  (1915) 
119309-02-3

$$$$

     RDKit          2D

 31 33  0  0  0  0  0  0  0  0999 V2000
   -4.2058    4.3597    0.0000 C   0  0  0  0  0  0  0  0  0  0  0  0
   -5.3726    3.4171    0.0000 O   0  0  0  0  0  0  0  0  0  0  0  0
   -5.1398    1.9353    0.0000 C   0  0  0  0  0  0  0  0  0  0  0  0
   -3.7401    1.3960    0.0000 C   0  0  0  0  0  0  0  0  0  0  0  0
   -3.5073   -0.0858    0.0000 C   0  0  0  0  0  0  0  0  0  0  0  0
   -2.1076   -0.6250    0.0000 C   0  0  0  0  0  0  0  0  0  0  0  0
   -1.8747   -2.1069    0.0000 C   0  0  0  0  0  0  0  0  0  0  0  0
   -3.0416   -3.0494    0.0000 O   0  0  0  0  0  0  0  0  0  0  0  0
   -4.4413   -2.5101    0.0000 C   0  0  0  0  0  0  0  0  0  0  0  0
   -0.4750   -2.6461    0.0000 C   0  0  0  0  0  0  0  0  0  0  0  0
   -0.2422   -4.1279    0.0000 O   0  0  0  0  0  0  0  0  0  0  0  0
    0.6919   -1.7036    0.0000 C   0  0  0  0  0  0  0  0  0  0  0  0
    2.0916   -2.2428    0.0000 C   0  0  0  0  0  0  0  0  0  0  0  0
    2.3244   -3.7247    0.0000 O   0  0  0  0  0  0  0  0  0  0  0  0
    3.2585   -1.3003    0.0000 C   0  0  0  0  0  0  0  0  0  0  0  0
    3.0256    0.1815    0.0000 C   0  0  0  0  0  0  0  0  0  0  0  0
    4.1925    1.1241    0.0000 O   0  0  0  0  0  0  0  0  0  0  0  0
    5.5922    0.5848    0.0000 C   0  0  0  0  0  0  0  0  0  0  0  0
    6.7591    1.5274    0.0000 C   0  0  0  0  0  0  0  0  0  0  0  0
    8.1588    0.9881    0.0000 C   0  0  0  0  0  0  0  0  0  0  0  0
    9.3257    1.9306    0.0000 C   0  0  0  0  0  0  0  0  0  0  0  0
    8.3916   -0.4937    0.0000 C   0  0  0  0  0  0  0  0  0  0  0  0
    1.6259    0.7208    0.0000 C   0  0  0  0  0  0  0  0  0  0  0  0
    1.3931    2.2026    0.0000 O   0  0  0  0  0  0  0  0  0  0  0  0
    2.5599    3.1452    0.0000 C   0  0  0  0  0  0  0  0  0  0  0  0
    0.4590   -0.2218    0.0000 C   0  0  0  0  0  0  0  0  0  0  0  0
   -0.9407    0.3175    0.0000 O   0  0  0  0  0  0  0  0  0  0  0  0
   -4.6741   -1.0283    0.0000 C   0  0  0  0  0  0  0  0  0  0  0  0
   -6.0739   -0.4891    0.0000 C   0  0  0  0  0  0  0  0  0  0  0  0
   -6.3067    0.9928    0.0000 C   0  0  0  0  0  0  0  0  0  0  0  0
   -7.7064    1.5320    0.0000 O   0  0  0  0  0  0  0  0  0  0  0  0
  1  2  1  0
  2  3  1  0
  3  4  2  0
  4  5  1  0
  5  6  1  0
  6  7  2  0
  7  8  1  0
  8  9  1  0
  7 10  1  0
 10 11  2  0
 10 12  1  0
 12 13  2  0
 13 14  1  0
 13 15  1  0
 15 16  2  0
 16 17  1  0
 17 18  1  0
 18 19  1  0
 19 20  2  0
 20 21  1  0
 20 22  1  0
 16 23  1  0
 23 24  1  0
 24 25  1  0
 23 26  2  0
 26 27  1  0
  5 28  2  0
 28 29  1  0
 29 30  2  0
 30 31  1  0
 30  3  1  0
 27  6  1  0
 26 12  1  0
M  END
>  <identifier>  (1916) 
CNP0321164.0

>  <canonical_smiles>  (1916) 
COC1=CC(C2=C(OC)C(=O)C3=C(O)C=C(OCC=C(C)C)C(OC)=C3O2)=CC=C1O

>  <standard_inchi>  (1916) 
InChI=1S/C23H24O8/c1-12(2)8-9-30-17-11-15(25)18-19(26)23(29-5)20(31-22(18)21(17)28-4)13-6-7-14(24)16(10-13)27-3/h6-8,10-11,24-25H,9H2,1-5H3

>  <standard_inchi_key>  (1916) 
ZUQNZVKHXXKXSY-UHFFFAOYSA-N

>  <name>  (1916) 
5,4'-Dihydroxy-3,8,3'-trimethoxy-7-prenyloxyflavone

>  <iupac_name>  (1916) 
5-hydroxy-2-(4-hydroxy-3-methoxy-phenyl)-3,8-dimethoxy-7-(3-methylbut-2-enoxy)chromen-4-one

>  <annotation_level>  (1916) 
5

>  <total_atom_count>  (1916) 
55

>  <heavy_atom_count>  (1916) 
31

>  <molecular_weight>  (1916) 
428.44

>  <exact_molecular_weight>  (1916) 
428.14712

>  <molecular_formula>  (1916) 
C23H24O8

>  <alogp>  (1916) 
4.24

>  <topological_polar_surface_area>  (1916) 
107.59

>  <rotatable_bond_count>  (1916) 
7

>  <hydrogen_bond_acceptors>  (1916) 
8

>  <hydrogen_bond_donors>  (1916) 
2

>  <hydrogen_bond_acceptors_lipinski>  (1916) 
8

>  <hydrogen_bond_donors_lipinski>  (1916) 
2

>  <lipinski_rule_of_five_violations>  (1916) 
0

>  <aromatic_rings_count>  (1916) 
3

>  <qed_drug_likeliness>  (1916) 
0.54

>  <formal_charge>  (1916) 
0

>  <fractioncsp3>  (1916) 
0.26

>  <number_of_minimal_rings>  (1916) 
3

>  <van_der_walls_volume>  (1916) 
377.22

>  <contains_sugar>  (1916) 
False

>  <contains_ring_sugars>  (1916) 
False

>  <contains_linear_sugars>  (1916) 
False

>  <murcko_framework>  (1916) 
O1c2ccccc2CC=C1c3ccccc3

>  <np_likeness>  (1916) 
1.48

>  <chemical_class>  (1916) 
Flavonoids

>  <chemical_sub_class>  (1916) 
O-methylated flavonoids

>  <chemical_super_class>  (1916) 
Phenylpropanoids and polyketides

>  <direct_parent_classification>  (1916) 
3-O-methylated flavonoids

>  <np_classifier_pathway>  (1916) 
Shikimates and Phenylpropanoids

>  <np_classifier_superclass>  (1916) 
Flavonoids

>  <np_classifier_class>  (1916) 
Flavonols

>  <np_classifier_is_glycoside>  (1916) 
False

>  <organisms>  (1916) 
Amomum latifolium|Boronia coerulescens|Diospyros maingayi|Dryopteris dickinsii|Murraya paniculata|Striga asiatica

>  <collections>  (1916) 
Australian natural products|KNApSaCK|Latin America dataset|NPASS|NPEdia|NuBBEDB|UNPD (Universal Natural Products Database)|WikiData Natural Products|ZINC NP

>  <dois>  (1916) 
10.1016/0031-9422(94)85037-2|10.1016/S0031-9422(97)00598-0

>  <synonyms>  (1916) 
4',5-dihydroxy-3,3',8-trimethoxy-7-(3-methylbut-2-enyloxy)flavone|5,4'-Dihydroxy-3,8,3'-trimethoxy-7-prenyloxyflavone|LMPK12113223

>  <cas>  (1916) 
nan

$$$$

     RDKit          2D

 22 24  0  0  0  0  0  0  0  0999 V2000
   -7.2830    1.0363    0.0000 C   0  0  0  0  0  0  0  0  0  0  0  0
   -6.5494   -0.2720    0.0000 O   0  0  0  0  0  0  0  0  0  0  0  0
   -5.0495   -0.2909    0.0000 C   0  0  0  0  0  0  0  0  0  0  0  0
   -4.2832    0.9986    0.0000 C   0  0  0  0  0  0  0  0  0  0  0  0
   -2.7834    0.9798    0.0000 C   0  0  0  0  0  0  0  0  0  0  0  0
   -2.0497   -0.3286    0.0000 C   0  0  0  0  0  0  0  0  0  0  0  0
   -0.5499   -0.3474    0.0000 C   0  0  0  0  0  0  0  0  0  0  0  0
    0.1838   -1.6558    0.0000 C   0  0  0  0  0  0  0  0  0  0  0  0
    1.6836   -1.6746    0.0000 O   0  0  0  0  0  0  0  0  0  0  0  0
    2.4499   -0.3851    0.0000 C   0  0  0  0  0  0  0  0  0  0  0  0
    3.9498   -0.4039    0.0000 C   0  0  0  0  0  0  0  0  0  0  0  0
    4.6834   -1.7123    0.0000 O   0  0  0  0  0  0  0  0  0  0  0  0
    3.9171   -3.0018    0.0000 C   0  0  0  0  0  0  0  0  0  0  0  0
    4.7160    0.8856    0.0000 C   0  0  0  0  0  0  0  0  0  0  0  0
    6.2159    0.8667    0.0000 O   0  0  0  0  0  0  0  0  0  0  0  0
    3.9824    2.1939    0.0000 C   0  0  0  0  0  0  0  0  0  0  0  0
    2.4825    2.2128    0.0000 C   0  0  0  0  0  0  0  0  0  0  0  0
    1.7163    0.9233    0.0000 C   0  0  0  0  0  0  0  0  0  0  0  0
    0.2164    0.9421    0.0000 C   0  0  0  0  0  0  0  0  0  0  0  0
   -0.5172    2.2505    0.0000 O   0  0  0  0  0  0  0  0  0  0  0  0
   -2.8160   -1.6181    0.0000 C   0  0  0  0  0  0  0  0  0  0  0  0
   -4.3159   -1.5992    0.0000 C   0  0  0  0  0  0  0  0  0  0  0  0
  1  2  1  0
  2  3  1  0
  3  4  2  0
  4  5  1  0
  5  6  2  0
  6  7  1  0
  7  8  2  0
  8  9  1  0
  9 10  1  0
 10 11  2  0
 11 12  1  0
 12 13  1  0
 11 14  1  0
 14 15  1  0
 14 16  2  0
 16 17  1  0
 17 18  2  0
 18 19  1  0
 19 20  2  0
  6 21  1  0
 21 22  2  0
 22  3  1  0
 19  7  1  0
 18 10  1  0
M  END
>  <identifier>  (1917) 
CNP0326374.0

>  <canonical_smiles>  (1917) 
COC1=CC=C(C2=COC3=C(OC)C(O)=CC=C3C2=O)C=C1

>  <standard_inchi>  (1917) 
InChI=1S/C17H14O5/c1-20-11-5-3-10(4-6-11)13-9-22-16-12(15(13)19)7-8-14(18)17(16)21-2/h3-9,18H,1-2H3

>  <standard_inchi_key>  (1917) 
SELGEUSJRWRBQR-UHFFFAOYSA-N

>  <name>  (1917) 
8-O-methylretusin

>  <iupac_name>  (1917) 
7-hydroxy-8-methoxy-3-(4-methoxyphenyl)chromen-4-one

>  <annotation_level>  (1917) 
5

>  <total_atom_count>  (1917) 
36

>  <heavy_atom_count>  (1917) 
22

>  <molecular_weight>  (1917) 
298.29

>  <exact_molecular_weight>  (1917) 
298.08412

>  <molecular_formula>  (1917) 
C17H14O5

>  <alogp>  (1917) 
3.18

>  <topological_polar_surface_area>  (1917) 
68.90

>  <rotatable_bond_count>  (1917) 
3

>  <hydrogen_bond_acceptors>  (1917) 
5

>  <hydrogen_bond_donors>  (1917) 
1

>  <hydrogen_bond_acceptors_lipinski>  (1917) 
5

>  <hydrogen_bond_donors_lipinski>  (1917) 
1

>  <lipinski_rule_of_five_violations>  (1917) 
0

>  <aromatic_rings_count>  (1917) 
3

>  <qed_drug_likeliness>  (1917) 
0.80

>  <formal_charge>  (1917) 
0

>  <fractioncsp3>  (1917) 
0.12

>  <number_of_minimal_rings>  (1917) 
3

>  <van_der_walls_volume>  (1917) 
257.52

>  <contains_sugar>  (1917) 
False

>  <contains_ring_sugars>  (1917) 
False

>  <contains_linear_sugars>  (1917) 
False

>  <murcko_framework>  (1917) 
O1C=C(c2ccccc2)Cc3ccccc13

>  <np_likeness>  (1917) 
0.95

>  <chemical_class>  (1917) 
Isoflavonoids

>  <chemical_sub_class>  (1917) 
Isoflav-2-enes

>  <chemical_super_class>  (1917) 
Phenylpropanoids and polyketides

>  <direct_parent_classification>  (1917) 
Isoflavones

>  <np_classifier_pathway>  (1917) 
Shikimates and Phenylpropanoids

>  <np_classifier_superclass>  (1917) 
Isoflavonoids

>  <np_classifier_class>  (1917) 
Isoflavones

>  <np_classifier_is_glycoside>  (1917) 
False

>  <organisms>  (1917) 
Amorpha fruticosa|Dalbergia frutescens|Dalbergia retusa|Dipteryx alata|Euchresta Horsfieldii|Euchresta formosana|Euchresta horsfieldii|Millettia dielsiana|Millettia oblata|Millettia pinnata|Monopterix uaucu|Monopteryx uaucu|Pericopsis angolensis|Pongamia pinnata|Sophora tetraptera|Sophora tonkinensis|Wisteria brachybotrys|Xanthocercis zambesiaca

>  <collections>  (1917) 
ANPDB|Australian natural products|CMAUP (cCollective molecular activities of useful plants)|Latin America dataset|Mitishamba database|NANPDB (Natural Products from Northern African Sources)|NPASS|NPEdia|NuBBEDB|SANCDB|Super Natural II|TCMDB-Taiwan (Traditional Chinese Medicine database)|TIPdb (database of Taiwan indigenous plants)|UNPD (Universal Natural Products Database)|VietHerb|WikiData Natural Products|ZINC NP

>  <dois>  (1917) 
10.1016/0031-9422(81)85097-2|10.1016/0031-9422(88)80154-7|10.1016/0031-9422(88)80628-9|10.1016/0031-9422(90)85211-W|10.1016/J.BMCL.2014.11.015|10.1016/S0031-9422(00)88532-5|10.1016/S0031-9422(00)94596-5|10.1016/S0031-9422(00)94600-4|10.1016/S0031-9422(98)00551-2|10.1016/S0040-4039(01)84791-2|10.1016/S1875-5364(13)60081-3|10.1016/j.bmcl.2014.11.015|10.1016/j.phytol.2014.02.001|10.1016/s0031-9422(98)00551-2|10.1021/NP50095A005|10.1021/np50095a005|10.1039/P19760000186|10.1055/S-2002-20248|10.3390/MOLECULES15118193|10.4314/ajtcam.v11i5.5

>  <synonyms>  (1917) 
37816-20-9|4H-1-Benzopyran-4-one, 7-hydroxy-8-methoxy-3-(4-methoxyphenyl)-|7-HYDROXY-8,4;-DIMETHOXYISOFLAVONE|7-hydroxy-8,4'-dimethoxyisoflavone|7-hydroxy-8-methoxy-3-(4-methoxyphenyl)-1-benzopyran-4-one|7-hydroxy-8-methoxy-3-(4-methoxyphenyl)chromen-4-one|8-O-Methylretusin|8-methylretusin|BRD-K09100418-001-02-6|BSPBio_001795|CCG-38805|CHEBI:108582|CHEMBL477720|DTXSID90191259|DivK1c_006413|Isoafrormosin|KBio1_001357|KBio2_001175|KBio2_003743|KBio2_006311|KBio3_001295|KBioGR_001947|KBioSS_001175|LMPK12050135|NCGC00179000-01|Q27187506|Retusin 8-methyl ether|SCHEMBL4293075|SPBio_001888|SpecPlus_000317|Spectrum2_001754|Spectrum3_000208|Spectrum4_001604|Spectrum5_000327|Spectrum_000695|XM161627

>  <cas>  (1917) 
37816-20-9

$$$$

     RDKit          2D

  8  8  0  0  0  0  0  0  0  0999 V2000
   -3.0851    0.4695    0.0000 O   0  0  0  0  0  0  0  0  0  0  0  0
   -2.0677   -0.6327    0.0000 C   0  0  0  0  0  0  0  0  0  0  0  0
   -0.6045   -0.3028    0.0000 C   0  0  0  0  0  0  0  0  0  0  0  0
   -0.1586    1.1294    0.0000 C   0  0  0  0  0  0  0  0  0  0  0  0
    1.3047    1.4594    0.0000 C   0  0  0  0  0  0  0  0  0  0  0  0
    2.3221    0.3572    0.0000 C   0  0  0  0  0  0  0  0  0  0  0  0
    1.8762   -1.0750    0.0000 C   0  0  0  0  0  0  0  0  0  0  0  0
    0.4129   -1.4050    0.0000 C   0  0  0  0  0  0  0  0  0  0  0  0
  1  2  2  0
  2  3  1  0
  3  4  2  0
  4  5  1  0
  5  6  2  0
  6  7  1  0
  7  8  2  0
  8  3  1  0
M  END
>  <identifier>  (1918) 
CNP0105179.0

>  <canonical_smiles>  (1918) 
O=CC1=CC=CC=C1

>  <standard_inchi>  (1918) 
InChI=1S/C7H6O/c8-6-7-4-2-1-3-5-7/h1-6H

>  <standard_inchi_key>  (1918) 
HUMNYLRZRPPJDN-UHFFFAOYSA-N

>  <name>  (1918) 
benzaldehyde

>  <iupac_name>  (1918) 
benzaldehyde

>  <annotation_level>  (1918) 
5

>  <total_atom_count>  (1918) 
14

>  <heavy_atom_count>  (1918) 
8

>  <molecular_weight>  (1918) 
106.12

>  <exact_molecular_weight>  (1918) 
106.04186

>  <molecular_formula>  (1918) 
C7H6O

>  <alogp>  (1918) 
1.50

>  <topological_polar_surface_area>  (1918) 
17.07

>  <rotatable_bond_count>  (1918) 
1

>  <hydrogen_bond_acceptors>  (1918) 
1

>  <hydrogen_bond_donors>  (1918) 
0

>  <hydrogen_bond_acceptors_lipinski>  (1918) 
1

>  <hydrogen_bond_donors_lipinski>  (1918) 
0

>  <lipinski_rule_of_five_violations>  (1918) 
0

>  <aromatic_rings_count>  (1918) 
1

>  <qed_drug_likeliness>  (1918) 
0.50

>  <formal_charge>  (1918) 
0

>  <fractioncsp3>  (1918) 
0.00

>  <number_of_minimal_rings>  (1918) 
1

>  <van_der_walls_volume>  (1918) 
102.80

>  <contains_sugar>  (1918) 
False

>  <contains_ring_sugars>  (1918) 
False

>  <contains_linear_sugars>  (1918) 
False

>  <murcko_framework>  (1918) 
c1ccccc1

>  <np_likeness>  (1918) 
0.11

>  <chemical_class>  (1918) 
Benzene and substituted derivatives

>  <chemical_sub_class>  (1918) 
Benzoyl derivatives

>  <chemical_super_class>  (1918) 
Benzenoids

>  <direct_parent_classification>  (1918) 
Benzoyl derivatives

>  <np_classifier_pathway>  (1918) 
Shikimates and Phenylpropanoids

>  <np_classifier_superclass>  (1918) 
nan

>  <np_classifier_class>  (1918) 
nan

>  <np_classifier_is_glycoside>  (1918) 
False

>  <organisms>  (1918) 
Aca sellowiana|Achillea abrotanoides|Aconitum leucostomum|Aconitum sajanense|Actaea dahurica|Actaea heracleifolia|Actaea simplex|Actinidia chinensis|Aesculus hippocastanum|Agaricus bisporus|Agaricus smithii|Agastache foeniculum|Akebia quinata|Akebia trifoliata|Alangium premnifolium|Alliaria petiolata|Aloe africana|Aloe ferox|Aloe spicata|Aloe vera|Alpinia katsumadai|Alpinia latilabris|Amauris echeria|Amelanchier alnifolia|Anarsia lineatella|Andinobates bombetes|Angelica tarokoensis|Aniba canelilla|Aniba riparia|Apollonias barbujana|Aquilegia ecalcarata|Arabidopsis thaliana|Arctium lappa|Ardisiae japonicae|Aronia melanocarpa|Artemisia ammaniana|Artemisia argyi|Artemisia capillaris|Artemisia hanseniana|Artemisia jacutica|Artemisia montana|Artemisia princeps|Artemisia sericea|Asarum canadense|Aspergillus violaceus|Aster scaber|Avena sativa|Avrainvillea rawsonii|Bersama abyssinica|Bistorta manshuriensis|Bistorta officinalis|Blumea mollis|Bombax ceiba|Botrytis cinerea|Bragantia wallichii|Brassica campestris|Brassica juncea|Brassica napus|Brassica nigra|Brassica oleracea|Brassica rapa|Camellia saluenensis|Camellia sinensis|Camphora|Camptotheca acuminata|Campylobacter jejuni|Cananga odorata|Capsella bursa-pastoris|Capsicum annuum|Carica papaya|Carthamus tinctorius|Cassia jahnii|Castanopsis cuspidata|Catharanthus roseus|Caulis perillae frutescentis|Ceanothus velutinus|Cedronella canariensis|Centaurea armena|Centaurea benedicta|Centaurea involucrata|Centaurea oltensis|Centaurea sessilis|Centranthus longiflorus ssp. longiflorus|Chaenomeles sinensis|Chlorophytum borivilianum|Chrysanthemum indicum|Chrysanthemum x morifolium|Cichorium endivia|Cimicifuga foetida|Cinamomum cassia|Cinnamomum aromaticum|Cinnamomum osmophloeum|Cinnamomum parthenoxylon|Cinnamomum sieboldii|Cinnamomum verum|Cinnamomum zeylanicum|Cinnamon|Citrullus lanatus|Citrus Aurantifolia|Citrus Aurantium|Citrus Paradisi|Citrus Reticulata|Citrus Sinensis|Citrus aurantifolia|Citrus aurantium|Citrus limon|Citrus paradisi|Citrus reticulata|Citrus sinensis|Citrus × deliciosa|Citrus × paradisi|Clinopodium barbatum|Clinopodium suaveolens|Clostridium difficile|Cnicus benedictus|Codium fragile|Colobocentrotus atratus|Conocephalum conicum|Couroupita guianensis|Crocus sativus|Cucumis melo|Cucurbita maxima|Curcuma longa|Curio articulatus|Cyphelium chrysocephalum|Damnacanthus major|Daphne mezereum|Daphne odora|Daucus carota|Decalepis hamiltonii|Delphinium andersoni|Dendrobium chrysanthum|Dendrobium fimbriatum var. oculatum|Dianthus caryophyllus L.|Diphasia angolensis|Dipterocarpus dyeri|Elsholtzia blanda|Elsholtzia bodinieri|Elsholtzia ciliata|Elsholtzia fruticosa|Elsholtzia splendens|Ephedra sinica|Epimedium davidii|Eryngium foetidum|Erysimum odoratum|Escherichia coli|Eschweilera coriacea|Eucalyptus|Eucalyptus camaldulensis|Eucalyptus cladocalyx|Eucalyptus punctata|Eucalyptus saligna|Eucheuma muricatum|Eugenia caryopyhllata|Eupatorium fortunei|Eupolyphaga sinensis|Eutypella scoparia|Exodermis poria|FOOD SAKE|Festuca arundinacea|Festuca rubra|Ficus carica|Flos lonicerae|Flos mume|Foeniculum vulgare|Folium perillae|Fragaria vesca|Fructus arctii lappae|Fructus caryophylli|Fructus syzygii|Frullania tamarisci|Galenia africana|Galeocerdo arcticus|Garcinia dulcis|Garcinia mangostana|Garcinia scortechinii|Gardenia tubifera|Geum heterocarpum|Globba malaccensis|Gnidia lamprantha|Gomphrena globosa|Gossypium herbaceum|Gossypium hirsutum|Gymnodinium nagasakiense|Gynandropsis gynandra|Herba artemisiae anomalae|Hericium erinaceus|Hesperis matronalis|Heterotheca inuloides|Hippophae rhamnoides|Hoffmannia strigillosa|Homo sapiens|Humulus japonicus|Humulus lupulus|Ilex amara|Inula racemosa|Ipomoea cairica|Isodon japonicus|Isodon lophanthoides|Juglans nigra|Karenia mikimotoi|Knightia excelsa|Kopsia grandifolia|Lactifluus subvellereus|Laggera alata|Laminaria japonica|Lasianthus fordii|Laurencia distichophylla|Ledebouria socialis|Leonurus glaucescens|Lepidium draba|Lepidium meyenii|Leptogenys processionalis|Linaria vulgaris|Liquidambar orientalis|Litchi chinensis|Lithocolletis coryli|Lonicera japonica|Lucensosergia lucens|Lycium barbarum|Lycium chinense|Lycopersicon Esculentum|Lycopersicon esculentum Mill.|Lycopus europaeus|Maba buxifolia|Macrococculus pomiferus|Malus domestica|Malus pumila|Mangifera indica|Manilkara zapota|Marsupella emarginata|Matsutake|Medicago sativa|Melaleuca Leucadendra|Melaleuca leucadendra|Melaleuca leucadendra L.|Melissa officinalis|Mentha arvensis|Mentha canadensis|Micromeria pineolens|Micromeria sinaica|Mimusops elengi|Monosis parishii|Mosla chinensis|Murraya paniculata|Mycobacterium bovis|Myrcianthes fragrans|Narcissus tazetta l var. chinensis roem.|Narcissus tazetta var. chinensis|Nemalion vermiculare|Nepeta nepetella|Nicotiana alata|Nicotiana langsdorffii|Nicotiana tabacum|Nidula candida|Nymphaea lasiophylla|Ocimum gratissimum|Ocotea morae|Ophiocoma scolopendrina|Ophrys sphegodes|Opuntia ficus-indica|Paeonia anomala|Paeonia lactiflora|Paeonia veitchii|Panax ginseng|Panax innovans|Panax notoginseng|Pellicularia sasakii|Peltodon longipes|Penicillium cinerascens|Penicillium citreonigrum|Perilla frutescens|Perilla frutescens (l.) britt. var. crispa (thunb.) hand.-mazz.|Perilla frutescens var. acuta|Perilla frutescens var. arguta|Perilla frutescens var. hirtella|Persea mexicana|Petiveria alliacea|Phallus impudicus|Phaseolus vulgaris|Phyla nodiflora|Physarum polycephalum|Pimenta racemosa|Pimpinella anisum|Pinellia ternata|Piper attenuatum|Pleurotus ostreatus|Plumeria rubra|Podocarpus elongata|Pogonomyrmex rugosus|Pogostemon cablin|Polygala senega|Polyporus tuberaster|Proteaceae|Prunus amygdalus|Prunus armeniaca|Prunus avium|Prunus cerasus|Prunus domestica|Prunus dulcis|Prunus mandshurica|Prunus mume|Prunus myrtifolia|Prunus padus|Prunus persica|Prunus sibirica|Prunus spinosa|Psidium friedrichsthalianum|Psidium guajava|Puccinia lagenophorae|Pyrus pyrifolia|Quercus sessiliflora|Ramulus cinnamomi preparata|Rhizophora mangle|Rhodiola rosea|Rhodiola rosea L.|Rhodobacter sphaeroides|Robinia pseudoacacia|Rosa gallica|Rosa taiwanensis|Rosa × damascena|Rubus sanctus|Sagittaria sagittifolia|Salacia madagascariensis|Salvadora persica|Salvia sclarea|Santolina corsica|Santolina corsica Jordan et Fourr|Saussurea carthamoides|Scleromitrion diffusum|Scutellaria barbata|Senna alexandrina|Simicratea welwitschii|Sinapis alba|Siphonaria australis|Siphonostegia chinensis|Solanum acaule|Solanum incisum|Solanum stuckertii|Sordaria araneosa|Spodoptera eridania|Spondias mombin|Stauntonia hexaphylla|Streptomyces ERI-CPDA-1|Streptomyces ansochromogenes|Streptomyces ansochromogenes 7100|Streptomyces griseovariabilis|Strychnos triplinervia|Styrax benzoin|Swertia delavayi|Swertia japonica|Syringa vulgaris|Syzygium aromaticum|Tanacetum parthenium|Terminalia chebula|Thapsia garganica|Tricholoma inamoenum|Trichosanthes kirilowii|Triticum aestivum|Ulva pertusa|Umbellularia californica|Uvariopsis tripetala|Vaccinium angustifolium|Vaccinium ashei|Vaccinium corymbosum|Vaccinium macrocarpon|Vaccinium virgatum|Vaccinium vitis-idaea|Vallota purpurea|Vismia jefensis|Vitis rotundifolia|Xylopia aromatica|Zea mays|Zieria arborescens|Zieria compacta|Zieria cytisoides|Zieria laevigata|Zieria laxiflora|Zingiber officinale|Ziziphus jujuba|basil|bellis perennis|cacao|clove|giraffe|liquorice|maize|parsley|pomegranate|potato|rooibos|star fruit|tomato|watermelon

>  <collections>  (1918) 
ANPDB|Australian natural products|BitterDB|CMAUP (cCollective molecular activities of useful plants)|ChemSpider NPs|EMNPD|ETM (Ethiopian Traditional Medicine) DB|FooDB|HIM (Herbal Ingredients in-vivo Metabolism database)|KNApSaCK|Latin America dataset|NANPDB (Natural Products from Northern African Sources)|NAPRORE-CR|NPACT|NPASS|NPDBEjeCol|NuBBEDB|PeruNPDB|Phyto4Health|ReSpect|StreptomeDB|Super Natural II|TCMDB-Taiwan (Traditional Chinese Medicine database)|TCMID (Traditional Chinese Medicine Integrated Database)|TIPdb (database of Taiwan indigenous plants)|UNPD (Universal Natural Products Database)|VietHerb|Watermelon|WikiData Natural Products

>  <dois>  (1918) 
10.1002/(SICI)1099-1026(199611)11:6<367::AID-FFJ598>3.0.CO;2-R|10.1002/1099-1026(200101/02)16:1<27::AID-FFJ937>3.0.CO;2-F|10.1002/CBDV.200900162|10.1002/CBDV.201100039|10.1002/CBER.19660991121|10.1002/CJOC.201180379|10.1002/FFJ.1187|10.1002/FFJ.2730050207|10.1002/FFJ.2730050305|10.1002/FFJ.2730050307|10.1002/FFJ.2730070108|10.1002/FFJ.2730100408|10.1002/FFJ.958|10.1002/JCCS.199500076|10.1002/JSFA.2740360908|10.1002/JSFA.8889|10.1002/OMS.1210190505|10.1002/PCA.2778|10.1002/PCA.2800040308|10.1006/JFCA.1997.0535|10.1007/BF00629664|10.1007/BF00988325|10.1007/S10600-020-02963-X|10.1007/S10886-013-0311-2|10.1016/0031-9422(74)85146-0|10.1016/0031-9422(81)84057-5|10.1016/0031-9422(82)80025-3|10.1016/0031-9422(82)80138-6|10.1016/0031-9422(83)83016-7|10.1016/0031-9422(88)80099-2|10.1016/0031-9422(88)83085-1|10.1016/0031-9422(90)85281-J|10.1016/0031-9422(91)84185-U|10.1016/0031-9422(92)80160-G|10.1016/0031-9422(95)00183-8|10.1016/0031-9422(95)00241-X|10.1016/0031-9422(95)00801-2|10.1016/0305-1978(92)90070-T|10.1016/J.BIORTECH.2012.02.059|10.1016/J.BSE.2020.104004|10.1016/J.CHROMA.2004.03.057|10.1016/J.FCT.2010.01.017|10.1016/J.INDCROP.2012.02.029|10.1016/J.JFCA.2018.09.004|10.1016/J.JMB.2009.07.023|10.1016/J.PHYTOCHEM.2004.08.007|10.1016/J.PHYTOCHEM.2005.04.006|10.1016/J.PHYTOCHEM.2006.05.038|10.1016/J.PHYTOCHEM.2006.12.009|10.1016/J.PHYTOCHEM.2007.04.027|10.1016/J.PHYTOCHEM.2009.07.031|10.1016/J.PHYTOCHEM.2014.04.007|10.1016/S0031-9422(00)80682-2|10.1016/S0031-9422(00)81276-5|10.1016/S0031-9422(00)82268-2|10.1016/S0031-9422(00)82634-5|10.1016/S0031-9422(00)83760-7|10.1016/S0031-9422(00)88985-2|10.1016/S0031-9422(00)94541-2|10.1016/S0031-9422(00)94756-3|10.1016/S0031-9422(01)00304-1|10.1016/S0031-9422(02)00004-3|10.1016/S0031-9422(02)00208-X|10.1016/S0031-9422(02)00214-5|10.1016/S0031-9422(97)00119-2|10.1016/S0031-9422(97)00141-6|10.1016/S0031-9422(98)00022-3|10.1016/S0031-9422(98)00507-X|10.1016/S0305-1978(02)00037-6|10.1016/S0305-1978(98)00116-1|10.1016/S0378-8741(01)00273-2|10.1016/S0925-5214(02)00250-8|10.1016/j.biortech.2012.02.059|10.1016/j.bmc.2017.12.011|10.1016/j.foodchem.2020.127109|10.1016/s0031-9422(00)82268-2|10.1021/BK-1993-0525.CH013|10.1021/JF00004A032|10.1021/JF00008A025|10.1021/JF00014A016|10.1021/JF00022A034|10.1021/JF00023A054|10.1021/JF00025A025|10.1021/JF00034A033|10.1021/JF00047A034|10.1021/JF00055A023|10.1021/JF00062A009|10.1021/JF00062A024|10.1021/JF00064A054|10.1021/JF00065A004|10.1021/JF00068A014|10.1021/JF00069A028|10.1021/JF00069A050|10.1021/JF00073A014|10.1021/JF00085A053|10.1021/JF00097A027|10.1021/JF00111A026|10.1021/JF00112A014|10.1021/JF00112A045|10.1021/JF00119A021|10.1021/JF0402633|10.1021/JF60160A011|10.1021/JF60199A053|10.1021/JF60200A011|10.1021/JF60214A042|10.1021/JF60218A022|10.1021/JF60218A031|10.1021/JF60218A053|10.1021/JF60224A025|10.1021/JF60228A025|10.1021/JF60230A020|10.1021/JF60230A021|10.1021/JF902669D|10.1021/JF960876I|10.1021/JF980653N|10.1021/JF991395C|10.1021/NP50039A037|10.1021/jf00055a023|10.1021/jf011456i|10.1038/SREP36966|10.1039/AN9285300411|10.1055/S-0028-1099484|10.1055/S-0028-1099572|10.1055/S-2006-960216|10.1055/S-2006-961490|10.1055/S-2006-961495|10.1055/S-2006-962451|10.1055/S-2007-969632|10.1055/S-2007-969917|10.1076/PHBI.35.3.218.13295|10.1080/00021369.1984.10866348|10.1080/10412905.1990.9697889|10.1080/10412905.1991.9697919|10.1080/10412905.1991.9697921|10.1080/10412905.1991.9697952|10.1080/10412905.1991.9697994|10.1080/10412905.1992.9698059|10.1080/10412905.1992.9698065|10.1080/10412905.1992.9698071|10.1080/10412905.1992.9698128|10.1080/10412905.1992.9698130|10.1080/10412905.1992.9698151|10.1080/10412905.1993.9698250|10.1080/10412905.1993.9698259|10.1080/10412905.1994.9698335|10.1080/10412905.1994.9698398|10.1080/10412905.1994.9698401|10.1080/10412905.1994.9698425|10.1080/10412905.1994.9698432|10.1080/10412905.1994.9698447|10.1080/10412905.1995.9698462|10.1080/10412905.1995.9698507|10.1080/10412905.1995.9698555|10.1080/10412905.1995.9698580|10.1080/10412905.1997.9700728|10.1080/10412905.1999.9701070|10.1080/10412905.1999.9711991|10.1080/10412905.2000.9699486|10.1080/10412905.2001.9699622|10.1080/10412905.2004.9698765|10.1080/10942912.2016.1155057|10.1088/1752-7155/8/1/014001|10.1093/pcp/pcn183|10.1096/fj.06-6927com|10.1111/J.1365-2621.1984.TB13669.X|10.1111/J.1365-2621.1985.TB13419.X|10.1111/J.1365-2621.1987.TB14284.X|10.1111/J.1600-0536.1991.TB01726.X|10.1111/NPH.13652|10.1111/TPJ.13440|10.1128/JB.187.16.5782-5789.2005|10.1246/BCSJ.56.3477|10.1248/CPB.31.659|10.1248/CPB.32.797|10.1248/CPB.50.1393|10.1248/YAKUSHI1947.106.1_17|10.12692/IJB/12.4.370-382|10.1271/BBB.57.1745|10.1271/BBB1961.45.373|10.1271/BBB1961.47.483|10.1271/BBB1961.48.2847|10.1271/BBB1961.49.1583|10.1271/BBB1961.49.3145|10.1271/BBB1961.50.1039|10.1271/NOGEIKAGAKU1924.59.389|10.1515/ZNC-1988-1-219|10.1515/ZNC-1990-9-1023|10.1515/ZNC-2002-11-1206|10.1590/S0103-50532011000400018|10.21273/HORTSCI.20.4.742|10.2135/CROPSCI1968.0011183X000800010040X|10.2307/3807439|10.2503/JJSHS.58.429|10.3109/13880209109082869|10.3109/13880209109082877|10.3390/MOLECULES200712093|10.3891/ACTA.CHEM.SCAND.21-0945|10.3891/ACTA.CHEM.SCAND.21-2076|10.3891/ACTA.CHEM.SCAND.32B-0588|10.4324/9780203219430_CHAPTER_13

>  <synonyms>  (1918) 
100-52-7|2vj1|8013-76-1|A800226|AI3-09931|AKOS000119172|AMFETAMINE SULFATE IMPURITY D (EP IMPURITY)|Ald3-H_000012|Ald3.1-H_000160|Ald3.1-H_000479|Aromatic aldehyde|B2379|BDBM50139371|BDBM60953|BENZALDEHYDE (II)|BENZALDEHYDE (MART.)|BENZALDEHYDE (USP IMPURITY)|BENZALDEHYDE [FCC]|BENZALDEHYDE [FHFI]|BENZALDEHYDE [HSDB]|BENZALDEHYDE [II]|BENZALDEHYDE [USP-RS]|BENZALDEHYDE [VANDF]|BENZALKONIUM CHLORIDE IMPURITY B (EP IMPURITY)|BENZOYLL PEROXIDE HYDROUS IMPURITY A (EP IMPURITY)|BENZYL ALCOHOL IMPURITY A (EP IMPURITY)|BIDD:ER0249|Benzadehyde|Benzaldehyde (NF)|Benzaldehyde (natural)|Benzaldehyde 1000 microg\/mL in Dichloromethane|Benzaldehyde FFC|Benzaldehyde [NF]|Benzaldehyde [UN1990]  [Class 9]|Benzaldehyde, >=98%, FG, FCC|Benzaldehyde, AR, >=99%|Benzaldehyde, European Pharmacopoeia (EP) Reference Standard|Benzaldehyde, Pharmaceutical Secondary Standard; Certified Reference Material|Benzaldehyde, ReagentPlus(R), >=99%|Benzaldehyde, SAJ special grade, >=98.0%|Benzaldehyde, United States Pharmacopeia (USP) Reference Standard|Benzaldehyde, Vetec(TM) reagent grade, 98%|Benzaldehyde, analytical standard|Benzaldehyde, for synthesis, 95.0%|Benzaldehyde, methyl-|Benzaldehyde, natural, >=98%, FCC, FG|Benzaldehyde, purified by redistillation, >=99.5%|Benzaldehyde, puriss. p.a., >=99.0% (GC)|Benzaldehyde, purum, >=98.0% (GC)|Benzaldehyde,(S)|Benzaldehyde-alpha-d1|Benzaldehyde-carbonyl-13C|Benzaldehyde-formyl-d|Benzenecarbonal|Benzenecarboxaldehyde|Benzenemethylal|Benzoic acid aldehyde|Benzoic aldehyde|Benzoyl hydride|Benzoylwasserstoff|Benzylaldehyde|C00193|C00261|C7H6O|CAS-100-52-7|CCG-266041|CCRIS 2376|CHEBI:17169|CHEMBL15972|Caswell No. 076|D02314|DB-023673|DTXCID90134|DTXSID8039241|EC 202-860-4|EINECS 202-860-4|EPA Pesticide Chemical Code 008601|F1294-0144|FEMA No. 2127|FENTANYL CITRATE IMPURITY E (EP IMPURITY)|FENTANYL IMPURITY E (EP IMPURITY)|Flavor and Extract Manufacturers' Association No. 2127|GLYCOPYRRONIUM BROMIDE IMPURITY F (EP IMPURITY)|HSDB 388|HYDROUS BENZOYL PEROXIDE IMPURITY A (EP IMPURITY)|InChI=1\/C7H6O\/c8-6-7-4-2-1-3-5-7\/h1-6|MFCD00003299|NA 1989|NCGC00091819-01|NCGC00258188-01|NCI-C56133|NS00008510|NSC 7917|NSC-7917|PS-11959|PhCHO|Phenylformaldehyde|Phenylmethanal|Phenylmethanal benzenecarboxaldehyde|Q372524|SCHEMBL573|SR-01000944375|STL194067|TA269SD04T|TRIBENOSIDE IMPURITY C (EP IMPURITY)|Tox21_113069|Tox21_113244|Tox21_200634|UN1990|UNII-TA269SD04T|WLN: VHR|benzaidehyde|benzaldehvde|benzaldehyd|benzanoaldehyde|ghl.PD_Mitscher_leg0.170|phenyl-methanone|s5574

>  <cas>  (1918) 
100-52-7|8013-76-1

$$$$

     RDKit          2D

 15 15  0  0  0  0  0  0  0  0999 V2000
   -0.2576   -2.2502    0.0000 C   0  0  0  0  0  0  0  0  0  0  0  0
    0.0828   -0.7894    0.0000 C   0  0  0  0  0  0  0  0  0  0  0  0
   -1.0121    0.2359    0.0000 C   0  0  0  0  0  0  0  0  0  0  0  0
   -2.4475   -0.1997    0.0000 C   0  0  0  0  0  0  0  0  0  0  0  0
   -3.5424    0.8255    0.0000 C   0  0  0  0  0  0  0  0  0  0  0  0
   -4.9777    0.3899    0.0000 C   0  0  0  0  0  0  0  0  0  0  0  0
   -6.0727    1.4152    0.0000 C   0  0  0  0  0  0  0  0  0  0  0  0
   -5.3182   -1.0709    0.0000 C   0  0  0  0  0  0  0  0  0  0  0  0
    1.5182   -0.3538    0.0000 C   0  0  0  0  0  0  0  0  0  0  0  0
    1.8586    1.1071    0.0000 C   0  0  0  0  0  0  0  0  0  0  0  0
    3.2940    1.5426    0.0000 C   0  0  0  0  0  0  0  0  0  0  0  0
    4.3889    0.5174    0.0000 C   0  0  0  0  0  0  0  0  0  0  0  0
    5.8242    0.9530    0.0000 C   0  0  0  0  0  0  0  0  0  0  0  0
    4.0484   -0.9435    0.0000 C   0  0  0  0  0  0  0  0  0  0  0  0
    2.6131   -1.3791    0.0000 C   0  0  0  0  0  0  0  0  0  0  0  0
  1  2  2  0
  2  3  1  0
  3  4  1  0
  4  5  1  0
  5  6  2  0
  6  7  1  0
  6  8  1  0
  9  2  1  1
  9 10  1  0
 10 11  1  0
 11 12  2  0
 12 13  1  0
 12 14  1  0
 14 15  1  0
 15  9  1  0
M  END
>  <identifier>  (1919) 
CNP0410487.1

>  <canonical_smiles>  (1919) 
C=C(CCC=C(C)C)[C@H]1CC=C(C)CC1

>  <standard_inchi>  (1919) 
InChI=1S/C15H24/c1-12(2)6-5-7-14(4)15-10-8-13(3)9-11-15/h6,8,15H,4-5,7,9-11H2,1-3H3/t15-/m0/s1

>  <standard_inchi_key>  (1919) 
XZRVRYFILCSYSP-HNNXBMFYSA-N

>  <name>  (1919) 
(R)-beta-bisabolene

>  <iupac_name>  (1919) 
(4~{R})-1-methyl-4-(5-methyl-1-methylene-hex-4-enyl)cyclohexene

>  <annotation_level>  (1919) 
5

>  <total_atom_count>  (1919) 
39

>  <heavy_atom_count>  (1919) 
15

>  <molecular_weight>  (1919) 
204.36

>  <exact_molecular_weight>  (1919) 
204.1878

>  <molecular_formula>  (1919) 
C15H24

>  <alogp>  (1919) 
5.04

>  <topological_polar_surface_area>  (1919) 
0.00

>  <rotatable_bond_count>  (1919) 
4

>  <hydrogen_bond_acceptors>  (1919) 
0

>  <hydrogen_bond_donors>  (1919) 
0

>  <hydrogen_bond_acceptors_lipinski>  (1919) 
0

>  <hydrogen_bond_donors_lipinski>  (1919) 
0

>  <lipinski_rule_of_five_violations>  (1919) 
1

>  <aromatic_rings_count>  (1919) 
0

>  <qed_drug_likeliness>  (1919) 
0.56

>  <formal_charge>  (1919) 
0

>  <fractioncsp3>  (1919) 
0.60

>  <number_of_minimal_rings>  (1919) 
1

>  <van_der_walls_volume>  (1919) 
230.96

>  <contains_sugar>  (1919) 
False

>  <contains_ring_sugars>  (1919) 
False

>  <contains_linear_sugars>  (1919) 
False

>  <murcko_framework>  (1919) 
C1=CCCCC1

>  <np_likeness>  (1919) 
2.87

>  <chemical_class>  (1919) 
Prenol lipids

>  <chemical_sub_class>  (1919) 
Sesquiterpenoids

>  <chemical_super_class>  (1919) 
Lipids and lipid-like molecules

>  <direct_parent_classification>  (1919) 
Sesquiterpenoids

>  <np_classifier_pathway>  (1919) 
Terpenoids

>  <np_classifier_superclass>  (1919) 
Sesquiterpenoids

>  <np_classifier_class>  (1919) 
Bisabolane sesquiterpenoids

>  <np_classifier_is_glycoside>  (1919) 
False

>  <organisms>  (1919) 
Abies nordmanniana|Abies sibirica|Acacia armata|Achillea erba-rotta|Achillea grandifolia|Achillea moschata|Achillea nana|Achillea nobilis|Achillea ptarmica|Adina trichotoma|Adonis sutchuenensis|Aethalium septicum|Afraegle paniculata|Aframomum angustifolium|Ageratum conyzoides|Aguacate|Aldama oblongifolia|Aloysia gratissima|Alpinia chinensis|Alpinia conchigera|Alpinia galanga|Alpinia latilabris|Alpinia mutica|Ambrosia microcephala|Ambrosia trifida|Amyris balsamifera|Angelica archangelica|Angostura trifoliata|Aniba puchury-minor|Aristolochia triangularis|Armina maculata|Artemisia|Artemisia absinthium|Artemisia argyi|Asarum asperum|Asarum epigynum|Aspergillus ruber|Aster scaber|Astragalus ernestii|Astragalus glycyphyllos|Atalantia buxifolia|Athrixia elata|Avena fatua|Berneuxia thibetica|Bongardia chrysogonum|Botryotrichum murorum|Briareum asbestinum|Bunodosoma caissarum|Cannabis sativa|Cantinoa mutabilis|Carpesium abrotanoides|Cassinia subtropica|Centaurea cheiranthifolia|Centella asiatica|Ceratiomyxa fruticulosa|Chromolaena laevigata|Cinnamomum parthenoxylon|Cinnamomum sieboldii|Citrus medica|Cladanthus arabicus|Cladogynos orientalis|Clinopodium carolinianum|Clinopodium grandiflorum|Clusia ellipticifolia|Cochlospermum tinctorium|Colchicum arenarium|Copaifera duckei|Copaifera guianensis|Copaifera multijuga|Cortinellus berkeleyanus|Cratoxylum pruniflorum|Cryptocarya agathophylla|Cryptomeria japonica|Culcitium canescens|Curcuma longa|Curcuma pierreana|Cymbopogon martinii|Daphnandra johnsonii|Daucus carota|Dianella revoluta|Dumoria heckeli|Elizabethkingia meningoseptica|Elsholtzia ciliata|Encelia canescens|Eragrostis curvula|Eremanthus arboreus|Erodendrum neriifolium|Eryngium foetidum|Erythrina burttii|Eupatorium cannabinum|Eupatorium capillifolium|Ferulago thirkeana|Fritillaria meleagris|Gyrothyra underwoodiana|Hamamelis virginiana|Hardwickia pinnata|Hedychium coronarium|Hedychium spicatum|Hippeastrum aulicum|Hyptis mutabilis|Isophysis tasmanica|Jacobaea argunensis|Jamesoniella autumnalis|Jerusalem artichoke|Juniperus comitana|Kokoona ochracea|Laggera aurita|Lamprolobium fruticosum|Lantana camara|Lavandula latifolia|Lepechinia chamaedryoides|Lepechinia chilensis|Lippia dulcis|Litsea glaucescens|Lonchocarpus laxiflorus|Magnolia officinalis|Mantella aurantiaca|Marasmius graminum|Matricaria matricarioides|Mentha pulegium|Metacalypogeia alternifolia|Metacalypogeia cordifolia|Metasequoia glyptostroboides|Microcitrus|Mikania grazielae|Mosla cavaleriei|Murraya gleniei|Nepeta nuda|Nepeta racemosa|Nepeta viscida|Ocimum carnosum|Ocimum gratissimum|Ocimum selloi|Origanum cordifolium|Origanum dictamnus|Origanum dubium|Origanum onites|Origanum vulgare|Otostegia fruticosa|Pelargonium x hortorum|Perilla frutescens|Perilla frutescens var. hirtella|Persea obovatifolia|Petasites albus|Petasites hybridus|Petasites japonicus|Phyla nodiflora|Picea glehnii|Picea koraiensis|Pimpinella anisum|Pinna muricata|Pinus koraiensis|Pinus massoniana|Pinus pumila|Piper auritum|Piper callosum|Piper obliquum|Pittocaulon bombycophole|Plantago lundborgii|Plectranthus fruticosus|Polyachyrus sphaerocephalus|Polygala senega|Porella vernicosa|Poterium sanguisorba|Prangos heyniae|Psidium guajava|Pterocaulon virgatum|Ptychopetalum olacoides|Rhododendron mucronulatum|Rubus pungens|Russula queletii|Salvia dichroa|Salvia fruticosa|Salvia hydrangea|Santalum spicatum|Sapium sebiferum|Satureja spicigera|Satureja wiedemanniana|Scytalidium uredinicola|Senecio duriaei|Senecio lividus|Senecio nebrodensis|Sideritis amasiaca|Sideritis arborescens|Sideritis dichotoma|Sideritis lanata|Sideritis romana|Siphula roccellaeformis|Smallanthus uvedalia|Solanum pseudoquina|Solidago canadensis|Spondias mombin|Stilpnopappus pickelii|Streptomyces ehimensis|Suillus granulatus|Swertia japonica|Syzygiella autumnalis|Syzygium cumini|Tagetes lucida|Tamarix gallica|Tethya amamensis|Teucrium cyprium|Teucrium kotschyanum|Teucrium micropodioides|Thymbra spicata|Thymus|Thymus camphoratus|Thymus funkii|Thymus kotschyanus|Thymus longicaulis|Thymus longiflorus|Thymus nummularius|Thymus riatarum|Thymus sibthorpii|Thymus thracicus|Thymus vulgaris|Tilesia baccata|Toona ciliata|Tussilago farfara|Umbellularia californica|Umbilicaria pustulata|Valeriana officinalis|Valeriana wolgensis|Viola hondoensis|Vitex negundo|West African Pepper|Wettsteinia schusteriana|Widdringtonia whytei|Zingiber officinale|Zingiber ottensii|Zingiber zerumbet|Ziziphus jujuba|basil|cicely|common myrtle|marjoram|parsley|potato

>  <collections>  (1919) 
CMAUP (cCollective molecular activities of useful plants)|ETM (Ethiopian Traditional Medicine) DB|Latin America dataset|NPASS|NuBBEDB|Phyto4Health|Super Natural II|TCMDB-Taiwan (Traditional Chinese Medicine database)|WikiData Natural Products

>  <dois>  (1919) 
10.1002/(SICI)1099-1026(199601)11:1<53::AID-FFJ535>3.0.CO;2-8|10.1002/(SICI)1099-1026(199701)12:1<47::AID-FFJ610>3.0.CO;2-7|10.1002/(SICI)1099-1026(199901/02)14:1<15::AID-FFJ777>3.0.CO;2-M|10.1002/(SICI)1099-1026(199909/10)14:5<268::AID-FFJ823>3.0.CO;2-Z|10.1002/(SICI)1099-1026(200001/02)15:1<47::AID-FFJ869>3.0.CO;2-9|10.1002/1099-1565(200009/10)11:5<304::AID-PCA531>3.0.CO;2-G|10.1002/FFJ.2730030303|10.1002/FFJ.2730100310|10.1002/FFJ.2730100311|10.1002/FFJ.2730100317|10.1002/FFJ.2730100408|10.1002/FFJ.2730100609|10.1002/JCCS.200200091|10.1002/PCA.2800020106|10.1002/PCA.594|10.1007/BF00568367|10.1007/BF00568368|10.1007/BF00570218|10.1007/BF00575168|10.1007/BF00577187|10.1007/BF00597721|10.1007/BF00629852|10.1007/BF00713346|10.1007/BF01386197|10.1007/BF01959201|10.1007/BF02282508|10.1007/BF02860163|10.1007/BF02907824|10.1007/BF02985250|10.1016/0021-9673(96)00103-3|10.1016/0031-9422(74)85146-0|10.1016/0031-9422(82)80138-6|10.1016/0031-9422(83)83045-3|10.1016/0031-9422(83)85052-3|10.1016/0031-9422(83)85057-2|10.1016/0031-9422(88)80300-5|10.1016/0031-9422(88)80463-1|10.1016/0031-9422(91)83485-4|10.1016/0031-9422(93)85098-C|10.1016/0031-9422(93)85405-G|10.1016/0305-1978(84)90011-5|10.1016/0305-1978(89)90100-2|10.1016/0378-8741(91)90062-I|10.1016/0378-8741(91)90063-J|10.1016/S0021-9673(01)90672-7|10.1016/S0021-9673(96)00802-3|10.1016/S0031-9422(00)00284-3|10.1016/S0031-9422(00)80682-2|10.1016/S0031-9422(00)80757-8|10.1016/S0031-9422(00)80814-6|10.1016/S0031-9422(00)81284-4|10.1016/S0031-9422(00)81286-8|10.1016/S0031-9422(00)81445-4|10.1016/S0031-9422(00)82638-2|10.1016/S0031-9422(00)84581-1|10.1016/S0031-9422(00)84709-3|10.1016/S0031-9422(00)86893-4|10.1016/S0031-9422(00)97558-7|10.1016/S0031-9422(00)97885-3|10.1016/S0031-9422(82)85033-4|10.1016/S0031-9422(96)00691-7|10.1016/S0031-9422(97)00117-9|10.1016/S0031-9422(97)00172-6|10.1016/S0031-9422(97)00762-0|10.1016/S0031-9422(97)00795-4|10.1016/S0031-9422(98)00022-3|10.1021/JF00034A033|10.1021/JF00046A030|10.1021/JF00073A015|10.1021/JF00083A001|10.1021/JF60160A012|10.1021/JF60215A043|10.1021/JF950540T|10.1021/JF970031M|10.1021/NP50008A001|10.1021/NP50034A044|10.1021/NP50038A026|10.1021/NP50039A037|10.1021/NP50040A040|10.1021/NP50058A023|10.1021/NP50107A017|10.1021/np50107a017|10.1055/S-2002-32557|10.1055/S-2006-957420|10.1055/S-2006-957640|10.1055/S-2006-957857|10.1055/S-2006-959548|10.1055/S-2006-959580|10.1055/S-2006-959673|10.1055/S-2006-959714|10.1055/S-2006-960024|10.1055/S-2006-960908|10.1055/S-2006-961401|10.1055/S-2006-961452|10.1055/S-2006-962688|10.1055/S-2007-969261|10.1055/S-2007-969599|10.1076/1388-0209(200004)3821-1FT106|10.1080/10412905.1989.9697751|10.1080/10412905.1990.9697816|10.1080/10412905.1990.9697836|10.1080/10412905.1991.9697905|10.1080/10412905.1991.9697930|10.1080/10412905.1991.9697970|10.1080/10412905.1991.9700498|10.1080/10412905.1992.9698016|10.1080/10412905.1992.9698067|10.1080/10412905.1992.9698070|10.1080/10412905.1992.9698084|10.1080/10412905.1992.9698127|10.1080/10412905.1992.9698149|10.1080/10412905.1993.9698170|10.1080/10412905.1993.9698179|10.1080/10412905.1993.9698184|10.1080/10412905.1993.9698205|10.1080/10412905.1993.9698222|10.1080/10412905.1993.9698232|10.1080/10412905.1993.9698253|10.1080/10412905.1993.9698256|10.1080/10412905.1993.9698309|10.1080/10412905.1994.9698333|10.1080/10412905.1994.9698334|10.1080/10412905.1994.9698359|10.1080/10412905.1994.9698382|10.1080/10412905.1994.9698387|10.1080/10412905.1994.9698400|10.1080/10412905.1994.9698405|10.1080/10412905.1994.9698407|10.1080/10412905.1994.9698427|10.1080/10412905.1994.9698447|10.1080/10412905.1994.9699356|10.1080/10412905.1994.9699357|10.1080/10412905.1995.9698462|10.1080/10412905.1995.9698473|10.1080/10412905.1995.9698478|10.1080/10412905.1995.9698499|10.1080/10412905.1995.9698516|10.1080/10412905.1995.9698522|10.1080/10412905.1995.9698591|10.1080/10412905.1995.9700523|10.1080/10412905.1995.9700536|10.1080/10412905.1996.9700547|10.1080/10412905.1996.9700554|10.1080/10412905.1996.9700569|10.1080/10412905.1997.9700723|10.1080/10412905.1997.9700731|10.1080/10412905.1997.9700787|10.1080/10412905.1998.9700844|10.1080/10412905.1998.9700913|10.1080/10412905.1999.9701080|10.1080/10412905.1999.9701184|10.1080/10412905.2000.9699539|10.1080/10412905.2000.9699552|10.1135/CCCC19621870|10.1135/CCCC19622711|10.1246/BCSJ.56.3477|10.1248/BPB.23.359|10.1248/CPB.49.924|10.1248/YAKUSHI1947.106.1_17|10.1248/YAKUSHI1947.107.3_209|10.1248/YAKUSHI1947.107.3_219|10.1248/YAKUSHI1947.107.3_227|10.1248/YAKUSHI1947.112.11_817|10.1248/YAKUSHI1947.112.8_571|10.1248/YAKUSHI1947.112.9_645|10.1248/YAKUSHI1947.113.10_712|10.1248/YAKUSHI1947.92.5_635|10.1271/BBB.57.792|10.1271/BBB1961.50.2915|10.1271/BBB1961.52.2961|10.1271/NOGEIKAGAKU1924.63.185|10.1515/ZNC-2002-9-1013|10.1590/S0103-50532000000600012|10.3403/30245698

>  <synonyms>  (1919) 
(1R)-bisabola-4,7(11),10(15)-triene|(1R)-bisabola-4,7(11),10(15)-triene (4R)-1-methyl-4-(5-methyl-1-methylenehex-4-en-1-yl)cyclohexene|(4R)-1-methyl-4-(5-methyl-1-methylenehex-4-en-1-yl)cyclohexene|(4r)-1-methyl-4-(6-methylhepta-1,5-dien-2-yl)cyclohexene|(R)-?-BISABOLENE|CHEBI:49266|CHEMBL444389|LMPR0103060014|NS00126811|Q27121577|\u221a\u00e9\u00ac\u2264-Bisabolene

>  <cas>  (1919) 
nan

$$$$

     RDKit          2D

 35 39  0  0  0  0  0  0  0  0999 V2000
    6.5275   -3.1338    0.0000 C   0  0  0  0  0  0  0  0  0  0  0  0
    5.7920   -1.8265    0.0000 O   0  0  0  0  0  0  0  0  0  0  0  0
    4.2921   -1.8097    0.0000 C   0  0  0  0  0  0  0  0  0  0  0  0
    3.5277   -3.1003    0.0000 O   0  0  0  0  0  0  0  0  0  0  0  0
    3.5566   -0.5024    0.0000 C   0  0  0  0  0  0  0  0  0  0  0  0
    5.0565   -0.5191    0.0000 C   0  0  0  0  0  0  0  0  0  0  0  0
    5.8210    0.7715    0.0000 C   0  0  0  0  0  0  0  0  0  0  0  0
    5.0855    2.0788    0.0000 C   0  0  0  0  0  0  0  0  0  0  0  0
    4.8415    3.5588    0.0000 C   0  0  0  0  0  0  0  0  0  0  0  0
    6.5007    2.5761    0.0000 C   0  0  0  0  0  0  0  0  0  0  0  0
    3.5856    2.0955    0.0000 C   0  0  0  0  0  0  0  0  0  0  0  0
    2.8211    0.8049    0.0000 C   0  0  0  0  0  0  0  0  0  0  0  0
    1.3212    0.8216    0.0000 C   0  0  0  0  0  0  0  0  0  0  0  0
    0.5858    2.1289    0.0000 C   0  0  0  0  0  0  0  0  0  0  0  0
   -0.9141    2.1456    0.0000 C   0  0  0  0  0  0  0  0  0  0  0  0
   -1.6786    0.8550    0.0000 C   0  0  0  0  0  0  0  0  0  0  0  0
   -3.1785    0.8718    0.0000 C   0  0  0  0  0  0  0  0  0  0  0  0
   -2.4141    2.1624    0.0000 C   0  0  0  0  0  0  0  0  0  0  0  0
   -3.9140    2.1791    0.0000 C   0  0  0  0  0  0  0  0  0  0  0  0
   -5.4139    2.1958    0.0000 C   0  0  0  0  0  0  0  0  0  0  0  0
   -6.1783    0.9052    0.0000 C   0  0  0  0  0  0  0  0  0  0  0  0
   -7.6782    0.9219    0.0000 O   0  0  0  0  0  0  0  0  0  0  0  0
   -5.4428   -0.4021    0.0000 C   0  0  0  0  0  0  0  0  0  0  0  0
   -5.1988   -1.8821    0.0000 C   0  0  0  0  0  0  0  0  0  0  0  0
   -6.8580   -0.8994    0.0000 C   0  0  0  0  0  0  0  0  0  0  0  0
   -7.1349   -2.3736    0.0000 O   0  0  0  0  0  0  0  0  0  0  0  0
   -3.9429   -0.4188    0.0000 C   0  0  0  0  0  0  0  0  0  0  0  0
   -3.2074   -1.7262    0.0000 C   0  0  0  0  0  0  0  0  0  0  0  0
   -1.7075   -1.7429    0.0000 C   0  0  0  0  0  0  0  0  0  0  0  0
   -0.9431   -0.4523    0.0000 C   0  0  0  0  0  0  0  0  0  0  0  0
   -0.2076   -1.7596    0.0000 C   0  0  0  0  0  0  0  0  0  0  0  0
    0.5568   -0.4690    0.0000 C   0  0  0  0  0  0  0  0  0  0  0  0
    2.0567   -0.4857    0.0000 C   0  0  0  0  0  0  0  0  0  0  0  0
    1.2923   -1.7763    0.0000 C   0  0  0  0  0  0  0  0  0  0  0  0
    2.7922   -1.7930    0.0000 C   0  0  0  0  0  0  0  0  0  0  0  0
  1  2  1  0
  2  3  1  0
  3  4  2  0
  5  3  1  1
  5  6  1  0
  6  7  1  0
  7  8  1  0
  8  9  1  0
  8 10  1  0
  8 11  1  0
 12 11  1  6
 12 13  1  0
 13 14  2  0
 14 15  1  0
 16 15  1  1
 16 17  1  0
 17 18  1  1
 17 19  1  0
 19 20  1  0
 20 21  1  0
 21 22  1  1
 21 23  1  0
 23 24  1  1
 23 25  1  0
 25 26  1  0
 23 27  1  0
 27 28  1  1
 28 29  1  0
 29 30  1  0
 30 31  1  1
 30 32  1  0
 32 33  1  6
 32 34  1  0
 34 35  1  0
 12  5  1  0
 32 13  1  0
 35  5  1  0
 30 16  1  0
 27 17  1  0
M  END
>  <identifier>  (1920) 
CNP0163358.1

>  <canonical_smiles>  (1920) 
COC(=O)[C@]12CCC(C)(C)C[C@H]1C1=CC[C@@H]3[C@@]4(C)CC[C@H](O)[C@@](C)(CO)[C@@H]4CC[C@@]3(C)[C@]1(C)CC2

>  <standard_inchi>  (1920) 
InChI=1S/C31H50O4/c1-26(2)14-16-31(25(34)35-7)17-15-29(5)20(21(31)18-26)8-9-23-27(3)12-11-24(33)28(4,19-32)22(27)10-13-30(23,29)6/h8,21-24,32-33H,9-19H2,1-7H3/t21-,22+,23+,24-,27-,28-,29+,30+,31-/m0/s1

>  <standard_inchi_key>  (1920) 
PLMKQQMDOMTZGG-HDUSDABTSA-N

>  <name>  (1920) 
Hederagenin methyl ester

>  <iupac_name>  (1920) 
methyl (4~{a}~{S},6~{a}~{R},6~{a}~{S},6~{b}~{R},8~{a}~{R},9~{R},10~{S},12~{a}~{R},14~{b}~{S})-10-hydroxy-9-(hydroxymethyl)-2,2,6~{a},6~{b},9,12~{a}-hexamethyl-1,3,4,5,6,6~{a},7,8,8~{a},10,11,12,13,14~{b}-tetradecahydropicene-4~{a}-carboxylate

>  <annotation_level>  (1920) 
5

>  <total_atom_count>  (1920) 
85

>  <heavy_atom_count>  (1920) 
35

>  <molecular_weight>  (1920) 
486.74

>  <exact_molecular_weight>  (1920) 
486.37091

>  <molecular_formula>  (1920) 
C31H50O4

>  <alogp>  (1920) 
6.29

>  <topological_polar_surface_area>  (1920) 
66.76

>  <rotatable_bond_count>  (1920) 
2

>  <hydrogen_bond_acceptors>  (1920) 
4

>  <hydrogen_bond_donors>  (1920) 
2

>  <hydrogen_bond_acceptors_lipinski>  (1920) 
4

>  <hydrogen_bond_donors_lipinski>  (1920) 
2

>  <lipinski_rule_of_five_violations>  (1920) 
1

>  <aromatic_rings_count>  (1920) 
0

>  <qed_drug_likeliness>  (1920) 
0.36

>  <formal_charge>  (1920) 
0

>  <fractioncsp3>  (1920) 
0.90

>  <number_of_minimal_rings>  (1920) 
5

>  <van_der_walls_volume>  (1920) 
481.15

>  <contains_sugar>  (1920) 
False

>  <contains_ring_sugars>  (1920) 
False

>  <contains_linear_sugars>  (1920) 
False

>  <murcko_framework>  (1920) 
C1=C2C3CCCCC3CCC2C4CCC5CCCCC5C4C1

>  <np_likeness>  (1920) 
3.12

>  <chemical_class>  (1920) 
Prenol lipids

>  <chemical_sub_class>  (1920) 
Triterpenoids

>  <chemical_super_class>  (1920) 
Lipids and lipid-like molecules

>  <direct_parent_classification>  (1920) 
Oleanane triterpenoids

>  <np_classifier_pathway>  (1920) 
Terpenoids

>  <np_classifier_superclass>  (1920) 
Triterpenoids

>  <np_classifier_class>  (1920) 
Oleanane triterpenoids

>  <np_classifier_is_glycoside>  (1920) 
False

>  <organisms>  (1920) 
Abrus precatorius|Alibertia edulis|Eucalyptus perriniana

>  <collections>  (1920) 
Australian natural products|CMAUP (cCollective molecular activities of useful plants)|ChemSpider NPs|Latin America dataset|NPASS|NuBBEDB|Super Natural II|TCMDB-Taiwan (Traditional Chinese Medicine database)|WikiData Natural Products|ZINC NP

>  <dois>  (1920) 
10.1016/S0031-9422(00)84771-8|10.1016/S0031-9422(00)89654-5|10.1248/cpb.39.116

>  <synonyms>  (1920) 
17736-04-8|23-hydroxyoleanolic acid methyl ester|3M463IF95D|CHEMBL4763379|Caulosapogenin, methyl ester|DTXSID80170290|Hederagenin methyl ester [MI]|Methyl hederagenate|Methyl hederagenin|OLEAN-12-EN-28-OIC ACID, 3,23-DIHYDROXY-, METHYL ESTER, (3.BETA.,4.ALPHA.)-|OLEAN-12-EN-28-OIC ACID, 3.BETA.,23-DIHYDROXY-, METHYL ESTER|Olean-12-en-28-oic acid, 3,23-dihydroxy-, methyl ester, (3beta,4alpha)-|Olean-12-en-28-oic acid, 3beta,23-dihydroxy-, methyl ester|Q27257624|SCHEMBL12958651|UNII-3M463IF95D|hederagenin methyl ester

>  <cas>  (1920) 
17736-04-8

$$$$

     RDKit          2D

 41 45  0  0  0  0  0  0  0  0999 V2000
   -0.6405    2.2122    0.0000 C   0  0  0  0  0  0  0  0  0  0  0  0
    0.2029    0.9717    0.0000 C   0  0  0  0  0  0  0  0  0  0  0  0
   -0.4497   -0.3789    0.0000 C   0  0  0  0  0  0  0  0  0  0  0  0
    0.3936   -1.6193    0.0000 C   0  0  0  0  0  0  0  0  0  0  0  0
    1.8896   -1.5092    0.0000 C   0  0  0  0  0  0  0  0  0  0  0  0
    2.5422   -0.1586    0.0000 C   0  0  0  0  0  0  0  0  0  0  0  0
    1.6988    1.0819    0.0000 N   0  0  0  0  0  0  0  0  0  0  0  0
    2.3514    2.4325    0.0000 C   0  0  0  0  0  0  0  0  0  0  0  0
    1.5081    3.6729    0.0000 C   0  0  0  0  0  0  0  0  0  0  0  0
    0.0121    3.5628    0.0000 O   0  0  0  0  0  0  0  0  0  0  0  0
    2.1607    5.0235    0.0000 O   0  0  0  0  0  0  0  0  0  0  0  0
    3.8474    2.5426    0.0000 C   0  0  0  0  0  0  0  0  0  0  0  0
    4.6907    1.3021    0.0000 C   0  0  0  0  0  0  0  0  0  0  0  0
    4.0381   -0.0485    0.0000 C   0  0  0  0  0  0  0  0  0  0  0  0
    5.1210   -1.0865    0.0000 N   0  0  0  0  0  0  0  0  0  0  0  0
    6.4428   -0.3774    0.0000 C   0  0  0  0  0  0  0  0  0  0  0  0
    7.8542   -0.8852    0.0000 C   0  0  0  0  0  0  0  0  0  0  0  0
    8.9997    0.0832    0.0000 C   0  0  0  0  0  0  0  0  0  0  0  0
    8.7338    1.5594    0.0000 C   0  0  0  0  0  0  0  0  0  0  0  0
    7.3224    2.0672    0.0000 C   0  0  0  0  0  0  0  0  0  0  0  0
    6.1769    1.0988    0.0000 C   0  0  0  0  0  0  0  0  0  0  0  0
   -0.2589   -2.9699    0.0000 C   0  0  0  0  0  0  0  0  0  0  0  0
    0.5844   -4.2104    0.0000 C   0  0  0  0  0  0  0  0  0  0  0  0
    2.0804   -4.1003    0.0000 O   0  0  0  0  0  0  0  0  0  0  0  0
   -0.0682   -5.5610    0.0000 O   0  0  0  0  0  0  0  0  0  0  0  0
    0.7752   -6.8015    0.0000 C   0  0  0  0  0  0  0  0  0  0  0  0
   -1.7549   -3.0801    0.0000 C   0  0  0  0  0  0  0  0  0  0  0  0
   -2.5983   -1.8396    0.0000 O   0  0  0  0  0  0  0  0  0  0  0  0
   -1.9457   -0.4890    0.0000 C   0  0  0  0  0  0  0  0  0  0  0  0
   -2.7890    0.7515    0.0000 O   0  0  0  0  0  0  0  0  0  0  0  0
   -4.2850    0.6413    0.0000 C   0  0  0  0  0  0  0  0  0  0  0  0
   -5.1283    1.8818    0.0000 O   0  0  0  0  0  0  0  0  0  0  0  0
   -6.6243    1.7716    0.0000 C   0  0  0  0  0  0  0  0  0  0  0  0
   -7.4676    3.0121    0.0000 C   0  0  0  0  0  0  0  0  0  0  0  0
   -6.8150    4.3627    0.0000 O   0  0  0  0  0  0  0  0  0  0  0  0
   -7.2769    0.4210    0.0000 C   0  0  0  0  0  0  0  0  0  0  0  0
   -8.7728    0.3109    0.0000 O   0  0  0  0  0  0  0  0  0  0  0  0
   -6.4335   -0.8194    0.0000 C   0  0  0  0  0  0  0  0  0  0  0  0
   -7.0861   -2.1700    0.0000 O   0  0  0  0  0  0  0  0  0  0  0  0
   -4.9376   -0.7093    0.0000 C   0  0  0  0  0  0  0  0  0  0  0  0
   -4.0942   -1.9497    0.0000 O   0  0  0  0  0  0  0  0  0  0  0  0
  1  2  2  0
  2  3  1  0
  3  4  1  0
  4  5  1  0
  6  5  1  6
  6  7  1  0
  7  8  1  0
  8  9  1  6
  9 10  2  0
  9 11  1  0
  8 12  1  0
 12 13  1  0
 13 14  2  0
 14 15  1  0
 15 16  1  0
 16 17  2  0
 17 18  1  0
 18 19  2  0
 19 20  1  0
 20 21  2  0
  4 22  1  0
 22 23  1  0
 23 24  2  0
 23 25  1  0
 25 26  1  0
 22 27  2  0
 27 28  1  0
 28 29  1  0
 29 30  1  1
 31 30  1  1
 31 32  1  0
 32 33  1  0
 33 34  1  1
 34 35  1  0
 33 36  1  0
 36 37  1  6
 36 38  1  0
 38 39  1  1
 38 40  1  0
 40 41  1  6
 29  3  1  0
 40 31  1  0
 14  6  1  0
 21 16  1  0
 21 13  1  0
M  END
>  <identifier>  (1921) 
CNP0186179.5

>  <canonical_smiles>  (1921) 
C=CC1C(C[C@@H]2N[C@H](C(=O)O)CC3=C2NC2=CC=CC=C32)C(C(=O)OC)=CO[C@H]1O[C@@H]1O[C@H](CO)[C@@H](O)[C@H](O)[C@H]1O

>  <standard_inchi>  (1921) 
InChI=1S/C28H34N2O11/c1-3-12-14(8-18-21-15(9-19(29-18)25(35)36)13-6-4-5-7-17(13)30-21)16(26(37)38-2)11-39-27(12)41-28-24(34)23(33)22(32)20(10-31)40-28/h3-7,11-12,14,18-20,22-24,27-34H,1,8-10H2,2H3,(H,35,36)/t12?,14?,18-,19-,20+,22+,23-,24+,27-,28-/m0/s1

>  <standard_inchi_key>  (1921) 
LHKZIVMTXZLOTP-KBRGVUMASA-N

>  <name>  (1921) 
nan

>  <iupac_name>  (1921) 
(1~{S},3~{S})-1-[[(2~{S})-5-methoxycarbonyl-2-[(2~{S},3~{R},4~{S},5~{S},6~{R})-3,4,5-trihydroxy-6-(hydroxymethyl)tetrahydropyran-2-yl]oxy-3-vinyl-3,4-dihydro-2~{H}-pyran-4-yl]methyl]-2,3,4,9-tetrahydro-1~{H}-pyrido[3,4-b]indole-3-carboxylic acid

>  <annotation_level>  (1921) 
4

>  <total_atom_count>  (1921) 
75

>  <heavy_atom_count>  (1921) 
41

>  <molecular_weight>  (1921) 
574.58

>  <exact_molecular_weight>  (1921) 
574.21626

>  <molecular_formula>  (1921) 
C28H34N2O11

>  <alogp>  (1921) 
-0.15

>  <topological_polar_surface_area>  (1921) 
200.03

>  <rotatable_bond_count>  (1921) 
8

>  <hydrogen_bond_acceptors>  (1921) 
11

>  <hydrogen_bond_donors>  (1921) 
7

>  <hydrogen_bond_acceptors_lipinski>  (1921) 
11

>  <hydrogen_bond_donors_lipinski>  (1921) 
7

>  <lipinski_rule_of_five_violations>  (1921) 
3

>  <aromatic_rings_count>  (1921) 
2

>  <qed_drug_likeliness>  (1921) 
0.16

>  <formal_charge>  (1921) 
0

>  <fractioncsp3>  (1921) 
0.50

>  <number_of_minimal_rings>  (1921) 
5

>  <van_der_walls_volume>  (1921) 
nan

>  <contains_sugar>  (1921) 
True

>  <contains_ring_sugars>  (1921) 
True

>  <contains_linear_sugars>  (1921) 
False

>  <murcko_framework>  (1921) 
O1C=CC(CC1OC2OCCCC2)CC3NCCc4c5ccccc5[nH]c43

>  <np_likeness>  (1921) 
2.04

>  <chemical_class>  (1921) 
Harmala alkaloids

>  <chemical_sub_class>  (1921) 
Harmala alkaloids

>  <chemical_super_class>  (1921) 
Alkaloids and derivatives

>  <direct_parent_classification>  (1921) 
Harmala alkaloids

>  <np_classifier_pathway>  (1921) 
Alkaloids

>  <np_classifier_superclass>  (1921) 
Tryptophan alkaloids

>  <np_classifier_class>  (1921) 
Carboline alkaloids

>  <np_classifier_is_glycoside>  (1921) 
True

>  <organisms>  (1921) 
Chimarrhis turbinata

>  <collections>  (1921) 
Latin America dataset|NuBBEDB|WikiData Natural Products

>  <dois>  (1921) 
10.1021/np020547m|10.1590/S0102-695X2008000100007

>  <synonyms>  (1921) 
5\u221a\u00e9\u00ac\u00b1-carboxystrictosidine

>  <cas>  (1921) 
nan

$$$$

     RDKit          2D

 14 15  0  0  0  0  0  0  0  0999 V2000
    0.7140    2.9529    0.0000 O   0  0  0  0  0  0  0  0  0  0  0  0
   -0.0670    1.6723    0.0000 C   0  0  0  0  0  0  0  0  0  0  0  0
   -1.5665    1.7083    0.0000 C   0  0  0  0  0  0  0  0  0  0  0  0
   -2.3475    0.4277    0.0000 C   0  0  0  0  0  0  0  0  0  0  0  0
   -3.8471    0.4638    0.0000 O   0  0  0  0  0  0  0  0  0  0  0  0
   -1.6290   -0.8890    0.0000 C   0  0  0  0  0  0  0  0  0  0  0  0
   -2.4100   -2.1696    0.0000 O   0  0  0  0  0  0  0  0  0  0  0  0
   -0.1294   -0.9250    0.0000 C   0  0  0  0  0  0  0  0  0  0  0  0
    0.5891   -2.2417    0.0000 C   0  0  0  0  0  0  0  0  0  0  0  0
    2.0887   -2.2778    0.0000 C   0  0  0  0  0  0  0  0  0  0  0  0
    2.8697   -0.9971    0.0000 C   0  0  0  0  0  0  0  0  0  0  0  0
    2.1512    0.3195    0.0000 C   0  0  0  0  0  0  0  0  0  0  0  0
    2.9322    1.6002    0.0000 O   0  0  0  0  0  0  0  0  0  0  0  0
    0.6516    0.3556    0.0000 C   0  0  0  0  0  0  0  0  0  0  0  0
  1  2  2  0
  2  3  1  0
  3  4  1  0
  4  5  1  6
  4  6  1  0
  6  7  1  6
  6  8  1  0
  8  9  2  0
  9 10  1  0
 10 11  2  0
 11 12  1  0
 12 13  1  0
 12 14  2  0
 14  2  1  0
 14  8  1  0
M  END
>  <identifier>  (1922) 
CNP0204009.1

>  <canonical_smiles>  (1922) 
O=C1C[C@@H](O)[C@@H](O)C2=CC=CC(O)=C12

>  <standard_inchi>  (1922) 
InChI=1S/C10H10O4/c11-6-3-1-2-5-9(6)7(12)4-8(13)10(5)14/h1-3,8,10-11,13-14H,4H2/t8-,10+/m1/s1

>  <standard_inchi_key>  (1922) 
HPIFRXWPEZBFHJ-SCZZXKLOSA-N

>  <name>  (1922) 
Cis-4-hydroxy-6-deoxyscytalone

>  <iupac_name>  (1922) 
(3~{R},4~{S})-3,4,8-trihydroxytetralin-1-one

>  <annotation_level>  (1922) 
5

>  <total_atom_count>  (1922) 
24

>  <heavy_atom_count>  (1922) 
14

>  <molecular_weight>  (1922) 
194.19

>  <exact_molecular_weight>  (1922) 
194.05791

>  <molecular_formula>  (1922) 
C10H10O4

>  <alogp>  (1922) 
0.37

>  <topological_polar_surface_area>  (1922) 
77.76

>  <rotatable_bond_count>  (1922) 
0

>  <hydrogen_bond_acceptors>  (1922) 
4

>  <hydrogen_bond_donors>  (1922) 
3

>  <hydrogen_bond_acceptors_lipinski>  (1922) 
4

>  <hydrogen_bond_donors_lipinski>  (1922) 
3

>  <lipinski_rule_of_five_violations>  (1922) 
0

>  <aromatic_rings_count>  (1922) 
1

>  <qed_drug_likeliness>  (1922) 
0.56

>  <formal_charge>  (1922) 
0

>  <fractioncsp3>  (1922) 
0.30

>  <number_of_minimal_rings>  (1922) 
2

>  <van_der_walls_volume>  (1922) 
166.51

>  <contains_sugar>  (1922) 
False

>  <contains_ring_sugars>  (1922) 
False

>  <contains_linear_sugars>  (1922) 
False

>  <murcko_framework>  (1922) 
c1ccc2c(c1)CCCC2

>  <np_likeness>  (1922) 
2.03

>  <chemical_class>  (1922) 
Tetralins

>  <chemical_sub_class>  (1922) 
Tetralins

>  <chemical_super_class>  (1922) 
Benzenoids

>  <direct_parent_classification>  (1922) 
Tetralins

>  <np_classifier_pathway>  (1922) 
Polyketides

>  <np_classifier_superclass>  (1922) 
Naphthalenes

>  <np_classifier_class>  (1922) 
Naphthalenones

>  <np_classifier_is_glycoside>  (1922) 
False

>  <organisms>  (1922) 
Aspergillus fumigatus|Astragalus eremophilus|Ayapana amygdalina|Bryoria implexa|Colletotrichum acutatum|Colletotrichum gloeosporioides|Daldinia eschscholtzii|Fejervarya limnocharis|Glycosmis trichanthera|Magnaporthe oryzae|Phialophora|Phialophora sp.|Polyporus tuberaster|Protea neriifolia|Senecio chrysocoma|Viola philippica

>  <collections>  (1922) 
CMAUP (cCollective molecular activities of useful plants)|ChemSpider NPs|EMNPD|Latin America dataset|NPASS|NPAtlas|NuBBEDB|Super Natural II|WikiData Natural Products|ZINC NP

>  <dois>  (1922) 
10.1002/ANIE.200801284|10.1016/J.BSE.2006.06.007|10.1016/J.TET.2009.02.054|10.1016/j.bse.2006.06.007|10.1021/JF300146N|10.1248/CPB.29.3536|10.1248/cpb.29.3536

>  <synonyms>  (1922) 
(3R,4S)-3,4,8-trihydroxy-3,4-dihydro-2H-naphthalen-1-one|CHEBI:205158|CHEMBL2229113|Cis-4-hydroxy-6-deoxyscytalone

>  <cas>  (1922) 
nan

$$$$

     RDKit          2D

 28 30  0  0  0  0  0  0  0  0999 V2000
    7.5570   -2.2322    0.0000 C   0  0  0  0  0  0  0  0  0  0  0  0
    6.1730   -1.6538    0.0000 C   0  0  0  0  0  0  0  0  0  0  0  0
    5.9820   -0.1660    0.0000 C   0  0  0  0  0  0  0  0  0  0  0  0
    4.5980    0.4124    0.0000 C   0  0  0  0  0  0  0  0  0  0  0  0
    3.4050   -0.4970    0.0000 C   0  0  0  0  0  0  0  0  0  0  0  0
    2.0211    0.0815    0.0000 C   0  0  0  0  0  0  0  0  0  0  0  0
    2.0556   -1.4181    0.0000 O   0  0  0  0  0  0  0  0  0  0  0  0
    3.3715   -2.1381    0.0000 C   0  0  0  0  0  0  0  0  0  0  0  0
    1.8300    1.5693    0.0000 C   0  0  0  0  0  0  0  0  0  0  0  0
    3.0229    2.4786    0.0000 C   0  0  0  0  0  0  0  0  0  0  0  0
    4.4069    1.9002    0.0000 C   0  0  0  0  0  0  0  0  0  0  0  0
    5.5998    2.8095    0.0000 O   0  0  0  0  0  0  0  0  0  0  0  0
    0.3560    1.8473    0.0000 O   0  0  0  0  0  0  0  0  0  0  0  0
   -0.3639    0.5313    0.0000 C   0  0  0  0  0  0  0  0  0  0  0  0
   -1.8517    0.3403    0.0000 C   0  0  0  0  0  0  0  0  0  0  0  0
   -2.7611    1.5332    0.0000 C   0  0  0  0  0  0  0  0  0  0  0  0
   -4.2489    1.3421    0.0000 C   0  0  0  0  0  0  0  0  0  0  0  0
   -5.1582    2.5351    0.0000 O   0  0  0  0  0  0  0  0  0  0  0  0
   -4.5798    3.9190    0.0000 C   0  0  0  0  0  0  0  0  0  0  0  0
   -4.8273   -0.0419    0.0000 C   0  0  0  0  0  0  0  0  0  0  0  0
   -6.3151   -0.2329    0.0000 O   0  0  0  0  0  0  0  0  0  0  0  0
   -6.8935   -1.6169    0.0000 C   0  0  0  0  0  0  0  0  0  0  0  0
   -3.9179   -1.2348    0.0000 C   0  0  0  0  0  0  0  0  0  0  0  0
   -4.4964   -2.6188    0.0000 O   0  0  0  0  0  0  0  0  0  0  0  0
   -3.5870   -3.8117    0.0000 C   0  0  0  0  0  0  0  0  0  0  0  0
   -2.4301   -1.0437    0.0000 C   0  0  0  0  0  0  0  0  0  0  0  0
    0.6651   -0.5600    0.0000 C   0  0  0  0  0  0  0  0  0  0  0  0
    0.3871   -2.0340    0.0000 C   0  0  0  0  0  0  0  0  0  0  0  0
  1  2  2  0
  2  3  1  0
  3  4  1  0
  4  5  2  0
  5  6  1  0
  6  7  1  1
  7  8  1  0
  6  9  1  0
  9 10  2  0
 10 11  1  0
 11 12  2  0
  9 13  1  0
 13 14  1  0
 14 15  1  1
 15 16  2  0
 16 17  1  0
 17 18  1  0
 18 19  1  0
 17 20  2  0
 20 21  1  0
 21 22  1  0
 20 23  1  0
 23 24  1  0
 24 25  1  0
 23 26  2  0
 14 27  1  0
 27 28  1  6
 11  4  1  0
 26 15  1  0
 27  6  1  0
M  END
>  <identifier>  (1923) 
CNP0200881.3

>  <canonical_smiles>  (1923) 
C=CCC1=C[C@@]2(OC)C(=CC1=O)O[C@H](C1=CC(OC)=C(OC)C(OC)=C1)[C@H]2C

>  <standard_inchi>  (1923) 
InChI=1S/C22H26O6/c1-7-8-14-12-22(27-6)13(2)20(28-19(22)11-16(14)23)15-9-17(24-3)21(26-5)18(10-15)25-4/h7,9-13,20H,1,8H2,2-6H3/t13-,20+,22+/m1/s1

>  <standard_inchi_key>  (1923) 
MRRHZTMSIVTFSK-XOJPMGEXSA-N

>  <name>  (1923) 
Mirandin A

>  <iupac_name>  (1923) 
(2~{S},3~{R},3~{a}~{S})-5-allyl-3~{a}-methoxy-3-methyl-2-(3,4,5-trimethoxyphenyl)-2,3-dihydrobenzofuran-6-one

>  <annotation_level>  (1923) 
5

>  <total_atom_count>  (1923) 
54

>  <heavy_atom_count>  (1923) 
28

>  <molecular_weight>  (1923) 
386.44

>  <exact_molecular_weight>  (1923) 
386.17294

>  <molecular_formula>  (1923) 
C22H26O6

>  <alogp>  (1923) 
3.77

>  <topological_polar_surface_area>  (1923) 
63.22

>  <rotatable_bond_count>  (1923) 
7

>  <hydrogen_bond_acceptors>  (1923) 
6

>  <hydrogen_bond_donors>  (1923) 
0

>  <hydrogen_bond_acceptors_lipinski>  (1923) 
6

>  <hydrogen_bond_donors_lipinski>  (1923) 
0

>  <lipinski_rule_of_five_violations>  (1923) 
0

>  <aromatic_rings_count>  (1923) 
1

>  <qed_drug_likeliness>  (1923) 
0.66

>  <formal_charge>  (1923) 
0

>  <fractioncsp3>  (1923) 
0.41

>  <number_of_minimal_rings>  (1923) 
3

>  <van_der_walls_volume>  (1923) 
nan

>  <contains_sugar>  (1923) 
False

>  <contains_ring_sugars>  (1923) 
False

>  <contains_linear_sugars>  (1923) 
False

>  <murcko_framework>  (1923) 
O1C2=CCC=CC2CC1c3ccccc3

>  <np_likeness>  (1923) 
2.18

>  <chemical_class>  (1923) 
2-arylbenzofuran flavonoids

>  <chemical_sub_class>  (1923) 
2-arylbenzofuran flavonoids

>  <chemical_super_class>  (1923) 
Phenylpropanoids and polyketides

>  <direct_parent_classification>  (1923) 
2-arylbenzofuran flavonoids

>  <np_classifier_pathway>  (1923) 
Shikimates and Phenylpropanoids

>  <np_classifier_superclass>  (1923) 
Lignans

>  <np_classifier_class>  (1923) 
Neolignans

>  <np_classifier_is_glycoside>  (1923) 
False

>  <organisms>  (1923) 
Magnolia denudata|Nectandra amazonum|Nectandra sp.|Ocotea macrophylla|Pleurothyrium cinereum|Rhodostemonodaphne miranda

>  <collections>  (1923) 
Latin America dataset|NPASS|NuBBEDB|Super Natural II|WikiData Natural Products|ZINC NP

>  <dois>  (1923) 
10.1016/0031-9422(80)87033-6|10.1016/j.bmcl.2009.10.069|10.1248/CPB.48.832

>  <synonyms>  (1923) 
BDBM50303151|CHEMBL570291|mirandin A

>  <cas>  (1923) 
nan

$$$$

     RDKit          2D

 26 25  0  0  0  0  0  0  0  0999 V2000
  -12.4388    0.2383    0.0000 C   0  0  0  0  0  0  0  0  0  0  0  0
  -11.1206    0.9541    0.0000 O   0  0  0  0  0  0  0  0  0  0  0  0
   -9.8416    0.1705    0.0000 C   0  0  0  0  0  0  0  0  0  0  0  0
   -9.8808   -1.3290    0.0000 O   0  0  0  0  0  0  0  0  0  0  0  0
   -8.5234    0.8863    0.0000 C   0  0  0  0  0  0  0  0  0  0  0  0
   -7.2444    0.1026    0.0000 C   0  0  0  0  0  0  0  0  0  0  0  0
   -7.2836   -1.3969    0.0000 C   0  0  0  0  0  0  0  0  0  0  0  0
   -5.9263    0.8185    0.0000 C   0  0  0  0  0  0  0  0  0  0  0  0
   -4.6472    0.0348    0.0000 C   0  0  0  0  0  0  0  0  0  0  0  0
   -3.3291    0.7506    0.0000 C   0  0  0  0  0  0  0  0  0  0  0  0
   -2.0500   -0.0330    0.0000 C   0  0  0  0  0  0  0  0  0  0  0  0
   -2.0892   -1.5325    0.0000 C   0  0  0  0  0  0  0  0  0  0  0  0
   -0.7319    0.6828    0.0000 C   0  0  0  0  0  0  0  0  0  0  0  0
    0.5471   -0.1009    0.0000 C   0  0  0  0  0  0  0  0  0  0  0  0
    1.8653    0.6150    0.0000 C   0  0  0  0  0  0  0  0  0  0  0  0
    3.1443   -0.1687    0.0000 C   0  0  0  0  0  0  0  0  0  0  0  0
    3.1052   -1.6682    0.0000 C   0  0  0  0  0  0  0  0  0  0  0  0
    4.4625    0.5471    0.0000 C   0  0  0  0  0  0  0  0  0  0  0  0
    5.7415   -0.2365    0.0000 C   0  0  0  0  0  0  0  0  0  0  0  0
    7.0597    0.4793    0.0000 C   0  0  0  0  0  0  0  0  0  0  0  0
    8.3387   -0.3043    0.0000 C   0  0  0  0  0  0  0  0  0  0  0  0
    8.2996   -1.8038    0.0000 C   0  0  0  0  0  0  0  0  0  0  0  0
    9.6569    0.4115    0.0000 C   0  0  0  0  0  0  0  0  0  0  0  0
    9.6961    1.9110    0.0000 O   0  0  0  0  0  0  0  0  0  0  0  0
   10.9359   -0.3722    0.0000 O   0  0  0  0  0  0  0  0  0  0  0  0
   12.2541    0.3437    0.0000 C   0  0  0  0  0  0  0  0  0  0  0  0
  1  2  1  0
  2  3  1  0
  3  4  2  0
  3  5  1  0
  5  6  2  0
  6  7  1  0
  6  8  1  0
  8  9  1  0
  9 10  1  0
 10 11  2  0
 11 12  1  0
 11 13  1  0
 13 14  1  0
 14 15  1  0
 15 16  2  0
 16 17  1  0
 16 18  1  0
 18 19  1  0
 19 20  1  0
 20 21  2  0
 21 22  1  0
 21 23  1  0
 23 24  2  0
 23 25  1  0
 25 26  1  0
M  END
>  <identifier>  (1924) 
CNP0296304.1

>  <canonical_smiles>  (1924) 
COC(=O)/C=C(\C)CC/C=C(\C)CC/C=C(\C)CC/C=C(\C)C(=O)OC

>  <standard_inchi>  (1924) 
InChI=1S/C22H34O4/c1-17(12-8-14-19(3)16-21(23)25-5)10-7-11-18(2)13-9-15-20(4)22(24)26-6/h11-12,15-16H,7-10,13-14H2,1-6H3/b17-12+,18-11+,19-16+,20-15+

>  <standard_inchi_key>  (1924) 
DWAPBSKEYARVMF-VNNXFBFOSA-N

>  <name>  (1924) 
nan

>  <iupac_name>  (1924) 
nan

>  <annotation_level>  (1924) 
0

>  <total_atom_count>  (1924) 
60

>  <heavy_atom_count>  (1924) 
26

>  <molecular_weight>  (1924) 
362.51

>  <exact_molecular_weight>  (1924) 
362.24571

>  <molecular_formula>  (1924) 
C22H34O4

>  <alogp>  (1924) 
5.46

>  <topological_polar_surface_area>  (1924) 
52.60

>  <rotatable_bond_count>  (1924) 
11

>  <hydrogen_bond_acceptors>  (1924) 
4

>  <hydrogen_bond_donors>  (1924) 
0

>  <hydrogen_bond_acceptors_lipinski>  (1924) 
4

>  <hydrogen_bond_donors_lipinski>  (1924) 
0

>  <lipinski_rule_of_five_violations>  (1924) 
1

>  <aromatic_rings_count>  (1924) 
0

>  <qed_drug_likeliness>  (1924) 
0.28

>  <formal_charge>  (1924) 
0

>  <fractioncsp3>  (1924) 
0.55

>  <number_of_minimal_rings>  (1924) 
0

>  <van_der_walls_volume>  (1924) 
376.21

>  <contains_sugar>  (1924) 
False

>  <contains_ring_sugars>  (1924) 
False

>  <contains_linear_sugars>  (1924) 
False

>  <murcko_framework>  (1924) 
nan

>  <np_likeness>  (1924) 
1.53

>  <chemical_class>  (1924) 
nan

>  <chemical_sub_class>  (1924) 
nan

>  <chemical_super_class>  (1924) 
nan

>  <direct_parent_classification>  (1924) 
nan

>  <np_classifier_pathway>  (1924) 
Terpenoids

>  <np_classifier_superclass>  (1924) 
nan

>  <np_classifier_class>  (1924) 
nan

>  <np_classifier_is_glycoside>  (1924) 
False

>  <organisms>  (1924) 
Nectandra puberula

>  <collections>  (1924) 
Latin America dataset|NuBBEDB|WikiData Natural Products|ZINC NP

>  <dois>  (1924) 
10.1016/S0031-9422(00)81526-5

>  <synonyms>  (1924) 
nan

>  <cas>  (1924) 
nan

$$$$

     RDKit          2D

 28 30  0  0  0  0  0  0  0  0999 V2000
   -7.2729    2.2811    0.0000 C   0  0  0  0  0  0  0  0  0  0  0  0
   -6.7529    0.8741    0.0000 O   0  0  0  0  0  0  0  0  0  0  0  0
   -5.2745    0.6209    0.0000 C   0  0  0  0  0  0  0  0  0  0  0  0
   -4.3159    1.7747    0.0000 C   0  0  0  0  0  0  0  0  0  0  0  0
   -2.8375    1.5215    0.0000 C   0  0  0  0  0  0  0  0  0  0  0  0
   -1.8789    2.6753    0.0000 O   0  0  0  0  0  0  0  0  0  0  0  0
   -2.3175    0.1145    0.0000 C   0  0  0  0  0  0  0  0  0  0  0  0
   -0.8390   -0.1387    0.0000 C   0  0  0  0  0  0  0  0  0  0  0  0
   -0.3191   -1.5457    0.0000 C   0  0  0  0  0  0  0  0  0  0  0  0
   -1.2776   -2.6995    0.0000 O   0  0  0  0  0  0  0  0  0  0  0  0
   -2.7561   -2.4463    0.0000 C   0  0  0  0  0  0  0  0  0  0  0  0
    1.1594   -1.7989    0.0000 C   0  0  0  0  0  0  0  0  0  0  0  0
    1.6794   -3.2059    0.0000 O   0  0  0  0  0  0  0  0  0  0  0  0
    2.1179   -0.6451    0.0000 C   0  0  0  0  0  0  0  0  0  0  0  0
    3.5964   -0.8983    0.0000 C   0  0  0  0  0  0  0  0  0  0  0  0
    4.1164   -2.3053    0.0000 O   0  0  0  0  0  0  0  0  0  0  0  0
    4.5549    0.2555    0.0000 C   0  0  0  0  0  0  0  0  0  0  0  0
    6.0334    0.0023    0.0000 O   0  0  0  0  0  0  0  0  0  0  0  0
    6.5533   -1.4047    0.0000 C   0  0  0  0  0  0  0  0  0  0  0  0
    4.0350    1.6625    0.0000 C   0  0  0  0  0  0  0  0  0  0  0  0
    4.9935    2.8163    0.0000 O   0  0  0  0  0  0  0  0  0  0  0  0
    6.4719    2.5631    0.0000 C   0  0  0  0  0  0  0  0  0  0  0  0
    2.5565    1.9157    0.0000 C   0  0  0  0  0  0  0  0  0  0  0  0
    1.5980    0.7619    0.0000 C   0  0  0  0  0  0  0  0  0  0  0  0
    0.1195    1.0151    0.0000 O   0  0  0  0  0  0  0  0  0  0  0  0
   -3.2760   -1.0393    0.0000 C   0  0  0  0  0  0  0  0  0  0  0  0
   -4.7545   -0.7861    0.0000 C   0  0  0  0  0  0  0  0  0  0  0  0
   -5.7130   -1.9399    0.0000 O   0  0  0  0  0  0  0  0  0  0  0  0
  1  2  1  0
  2  3  1  0
  3  4  2  0
  4  5  1  0
  5  6  1  0
  5  7  2  0
  7  8  1  0
  8  9  2  0
  9 10  1  0
 10 11  1  0
  9 12  1  0
 12 13  2  0
 12 14  1  0
 14 15  2  0
 15 16  1  0
 15 17  1  0
 17 18  1  0
 18 19  1  0
 17 20  2  0
 20 21  1  0
 21 22  1  0
 20 23  1  0
 23 24  2  0
 24 25  1  0
  7 26  1  0
 26 27  2  0
 27 28  1  0
 27  3  1  0
 25  8  1  0
 24 14  1  0
M  END
>  <identifier>  (1925) 
CNP0274576.0

>  <canonical_smiles>  (1925) 
COC1=CC(O)=C(C2=C(OC)C(=O)C3=C(O)C(OC)=C(OC)C=C3O2)C=C1O

>  <standard_inchi>  (1925) 
InChI=1S/C19H18O9/c1-24-11-6-9(20)8(5-10(11)21)17-19(27-4)16(23)14-12(28-17)7-13(25-2)18(26-3)15(14)22/h5-7,20-22H,1-4H3

>  <standard_inchi_key>  (1925) 
KMDMMDZJQFJXCU-UHFFFAOYSA-N

>  <name>  (1925) 
5-O-Demethylapulein

>  <iupac_name>  (1925) 
2-(2,5-dihydroxy-4-methoxy-phenyl)-5-hydroxy-3,6,7-trimethoxy-chromen-4-one

>  <annotation_level>  (1925) 
5

>  <total_atom_count>  (1925) 
46

>  <heavy_atom_count>  (1925) 
28

>  <molecular_weight>  (1925) 
390.34

>  <exact_molecular_weight>  (1925) 
390.09508

>  <molecular_formula>  (1925) 
C19H18O9

>  <alogp>  (1925) 
2.61

>  <topological_polar_surface_area>  (1925) 
127.82

>  <rotatable_bond_count>  (1925) 
5

>  <hydrogen_bond_acceptors>  (1925) 
9

>  <hydrogen_bond_donors>  (1925) 
3

>  <hydrogen_bond_acceptors_lipinski>  (1925) 
9

>  <hydrogen_bond_donors_lipinski>  (1925) 
3

>  <lipinski_rule_of_five_violations>  (1925) 
0

>  <aromatic_rings_count>  (1925) 
3

>  <qed_drug_likeliness>  (1925) 
0.56

>  <formal_charge>  (1925) 
0

>  <fractioncsp3>  (1925) 
0.21

>  <number_of_minimal_rings>  (1925) 
3

>  <van_der_walls_volume>  (1925) 
325.24

>  <contains_sugar>  (1925) 
False

>  <contains_ring_sugars>  (1925) 
False

>  <contains_linear_sugars>  (1925) 
False

>  <murcko_framework>  (1925) 
O1c2ccccc2CC=C1c3ccccc3

>  <np_likeness>  (1925) 
1.47

>  <chemical_class>  (1925) 
Flavonoids

>  <chemical_sub_class>  (1925) 
O-methylated flavonoids

>  <chemical_super_class>  (1925) 
Phenylpropanoids and polyketides

>  <direct_parent_classification>  (1925) 
6-O-methylated flavonoids

>  <np_classifier_pathway>  (1925) 
Shikimates and Phenylpropanoids

>  <np_classifier_superclass>  (1925) 
Flavonoids

>  <np_classifier_class>  (1925) 
Flavonols

>  <np_classifier_is_glycoside>  (1925) 
False

>  <organisms>  (1925) 
Adiantum monochlamys|Apuleia leiocarpa|Baileya pauciradiata|Becium grandiflorum|Centaurea webbiana|Commiphora erythraea|Crinum yemense|Gutierrezia microcephala|Lissoclinum bistratum|Pachyphragma macrophyllum|Spilanthes mauritiana|Vernonanthura chamaedrys|Vicia faba

>  <collections>  (1925) 
CMAUP (cCollective molecular activities of useful plants)|KNApSaCK|Latin America dataset|NPASS|NPEdia|NuBBEDB|Super Natural II|UNPD (Universal Natural Products Database)|WikiData Natural Products|ZINC NP

>  <dois>  (1925) 
10.1016/S0031-9422(00)89891-X

>  <synonyms>  (1925) 
2-(2,5-dihydroxy-4-methoxyphenyl)-5-hydroxy-3,6,7-trimethoxychromen-4-one|5-O-Demethylapulein|CHEBI:196375|LMPK12113054

>  <cas>  (1925) 
nan

$$$$

     RDKit          2D

 21 21  0  0  0  0  0  0  0  0999 V2000
  -11.3139    0.3776    0.0000 C   0  0  0  0  0  0  0  0  0  0  0  0
  -10.0432   -0.4193    0.0000 O   0  0  0  0  0  0  0  0  0  0  0  0
   -8.7176    0.2828    0.0000 C   0  0  0  0  0  0  0  0  0  0  0  0
   -8.6628    1.7818    0.0000 O   0  0  0  0  0  0  0  0  0  0  0  0
   -7.4468   -0.5142    0.0000 C   0  0  0  0  0  0  0  0  0  0  0  0
   -6.1213    0.1879    0.0000 C   0  0  0  0  0  0  0  0  0  0  0  0
   -4.8505   -0.6090    0.0000 C   0  0  0  0  0  0  0  0  0  0  0  0
   -3.5249    0.0930    0.0000 C   0  0  0  0  0  0  0  0  0  0  0  0
   -2.2541   -0.7039    0.0000 C   0  0  0  0  0  0  0  0  0  0  0  0
   -0.9286   -0.0018    0.0000 C   0  0  0  0  0  0  0  0  0  0  0  0
    0.3422   -0.7987    0.0000 C   0  0  0  0  0  0  0  0  0  0  0  0
    1.6678   -0.0967    0.0000 C   0  0  0  0  0  0  0  0  0  0  0  0
    2.9386   -0.8936    0.0000 C   0  0  0  0  0  0  0  0  0  0  0  0
    4.2641   -0.1915    0.0000 C   0  0  0  0  0  0  0  0  0  0  0  0
    5.5349   -0.9885    0.0000 C   0  0  0  0  0  0  0  0  0  0  0  0
    6.8605   -0.2864    0.0000 C   0  0  0  0  0  0  0  0  0  0  0  0
    6.9152    1.2126    0.0000 C   0  0  0  0  0  0  0  0  0  0  0  0
    8.2408    1.9147    0.0000 C   0  0  0  0  0  0  0  0  0  0  0  0
    9.5116    1.1178    0.0000 C   0  0  0  0  0  0  0  0  0  0  0  0
    9.4568   -0.3812    0.0000 C   0  0  0  0  0  0  0  0  0  0  0  0
    8.1313   -1.0833    0.0000 C   0  0  0  0  0  0  0  0  0  0  0  0
  1  2  1  0
  2  3  1  0
  3  4  2  0
  3  5  1  0
  5  6  1  0
  6  7  1  0
  7  8  1  0
  8  9  1  0
  9 10  1  0
 10 11  1  0
 11 12  1  0
 12 13  1  0
 13 14  1  0
 14 15  1  0
 15 16  1  0
 16 17  2  0
 17 18  1  0
 18 19  2  0
 19 20  1  0
 20 21  2  0
 21 16  1  0
M  END
>  <identifier>  (1926) 
CNP0080379.0

>  <canonical_smiles>  (1926) 
COC(=O)CCCCCCCCCCCC1=CC=CC=C1

>  <standard_inchi>  (1926) 
InChI=1S/C19H30O2/c1-21-19(20)17-13-8-6-4-2-3-5-7-10-14-18-15-11-9-12-16-18/h9,11-12,15-16H,2-8,10,13-14,17H2,1H3

>  <standard_inchi_key>  (1926) 
UOGDZQUHDFHJKP-UHFFFAOYSA-N

>  <name>  (1926) 
METHYL 12-PHENYLDODECANOATE

>  <iupac_name>  (1926) 
methyl 12-phenyldodecanoate

>  <annotation_level>  (1926) 
5

>  <total_atom_count>  (1926) 
51

>  <heavy_atom_count>  (1926) 
21

>  <molecular_weight>  (1926) 
290.45

>  <exact_molecular_weight>  (1926) 
290.22458

>  <molecular_formula>  (1926) 
C19H30O2

>  <alogp>  (1926) 
5.30

>  <topological_polar_surface_area>  (1926) 
26.30

>  <rotatable_bond_count>  (1926) 
12

>  <hydrogen_bond_acceptors>  (1926) 
2

>  <hydrogen_bond_donors>  (1926) 
0

>  <hydrogen_bond_acceptors_lipinski>  (1926) 
2

>  <hydrogen_bond_donors_lipinski>  (1926) 
0

>  <lipinski_rule_of_five_violations>  (1926) 
1

>  <aromatic_rings_count>  (1926) 
1

>  <qed_drug_likeliness>  (1926) 
0.39

>  <formal_charge>  (1926) 
0

>  <fractioncsp3>  (1926) 
0.63

>  <number_of_minimal_rings>  (1926) 
1

>  <van_der_walls_volume>  (1926) 
310.05

>  <contains_sugar>  (1926) 
False

>  <contains_ring_sugars>  (1926) 
False

>  <contains_linear_sugars>  (1926) 
False

>  <murcko_framework>  (1926) 
c1ccccc1

>  <np_likeness>  (1926) 
0.12

>  <chemical_class>  (1926) 
Fatty Acyls

>  <chemical_sub_class>  (1926) 
Fatty acid esters

>  <chemical_super_class>  (1926) 
Lipids and lipid-like molecules

>  <direct_parent_classification>  (1926) 
Fatty acid methyl esters

>  <np_classifier_pathway>  (1926) 
Fatty acids

>  <np_classifier_superclass>  (1926) 
Fatty Acids and Conjugates

>  <np_classifier_class>  (1926) 
Carbocyclic fatty acids

>  <np_classifier_is_glycoside>  (1926) 
False

>  <organisms>  (1926) 
Trichilia claussenii

>  <collections>  (1926) 
Latin America dataset|Marine Natural Products|NuBBEDB|WikiData Natural Products|ZINC NP

>  <dois>  (1926) 
10.1016/0031-9422(95)00969-8

>  <synonyms>  (1926) 
38795-65-2|DTXSID00784313|SCHEMBL20717644|phenyl dodecanoic acid methyl ester

>  <cas>  (1926) 
38795-65-2

$$$$

     RDKit          2D

 15 17  0  0  0  0  0  0  0  0999 V2000
   -3.2201    2.0112    0.0000 C   0  0  0  0  0  0  0  0  0  0  0  0
   -1.7954    1.5417    0.0000 C   0  0  0  0  0  0  0  0  0  0  0  0
   -0.7544    2.6216    0.0000 C   0  0  0  0  0  0  0  0  0  0  0  0
    0.7390    2.4809    0.0000 C   0  0  0  0  0  0  0  0  0  0  0  0
    1.5602    1.2257    0.0000 C   0  0  0  0  0  0  0  0  0  0  0  0
    1.0907   -0.1990    0.0000 C   0  0  0  0  0  0  0  0  0  0  0  0
   -0.3158   -0.7202    0.0000 C   0  0  0  0  0  0  0  0  0  0  0  0
   -0.6556   -2.1812    0.0000 C   0  0  0  0  0  0  0  0  0  0  0  0
    0.3266   -3.3149    0.0000 C   0  0  0  0  0  0  0  0  0  0  0  0
   -2.1502   -2.3095    0.0000 C   0  0  0  0  0  0  0  0  0  0  0  0
   -2.7340   -0.9277    0.0000 C   0  0  0  0  0  0  0  0  0  0  0  0
   -1.6003    0.0545    0.0000 C   0  0  0  0  0  0  0  0  0  0  0  0
    2.5592    0.1068    0.0000 C   0  0  0  0  0  0  0  0  0  0  0  0
    3.1154   -1.2863    0.0000 C   0  0  0  0  0  0  0  0  0  0  0  0
    3.8346    0.8964    0.0000 C   0  0  0  0  0  0  0  0  0  0  0  0
  1  2  2  0
  2  3  1  0
  3  4  1  0
  5  4  1  1
  5  6  1  0
  6  7  1  0
  7  8  1  6
  8  9  1  6
  8 10  1  0
 10 11  1  0
 12 11  1  6
  6 13  1  1
 13 14  1  0
 13 15  1  0
 12  2  1  0
 13  5  1  0
 12  7  1  0
M  END
>  <identifier>  (1927) 
CNP0284102.3

>  <canonical_smiles>  (1927) 
C=C1CC[C@@H]2[C@H]([C@@H]3[C@H](C)CC[C@H]13)C2(C)C

>  <standard_inchi>  (1927) 
InChI=1S/C15H24/c1-9-6-8-12-14(15(12,3)4)13-10(2)5-7-11(9)13/h10-14H,1,5-8H2,2-4H3/t10-,11-,12-,13-,14-/m1/s1

>  <standard_inchi_key>  (1927) 
ITYNGVSTWVVPIC-DHGKCCLASA-N

>  <name>  (1927) 
(-)-Alloaromadendrene

>  <iupac_name>  (1927) 
(1~{a}~{R},4~{a}~{S},7~{R},7~{a}~{R},7~{b}~{S})-1,1,7-trimethyl-4-methylene-2,3,4~{a},5,6,7,7~{a},7~{b}-octahydro-1~{a}~{H}-cyclopropa[e]azulene

>  <annotation_level>  (1927) 
5

>  <total_atom_count>  (1927) 
39

>  <heavy_atom_count>  (1927) 
15

>  <molecular_weight>  (1927) 
204.36

>  <exact_molecular_weight>  (1927) 
204.1878

>  <molecular_formula>  (1927) 
C15H24

>  <alogp>  (1927) 
4.27

>  <topological_polar_surface_area>  (1927) 
0.00

>  <rotatable_bond_count>  (1927) 
0

>  <hydrogen_bond_acceptors>  (1927) 
0

>  <hydrogen_bond_donors>  (1927) 
0

>  <hydrogen_bond_acceptors_lipinski>  (1927) 
0

>  <hydrogen_bond_donors_lipinski>  (1927) 
0

>  <lipinski_rule_of_five_violations>  (1927) 
0

>  <aromatic_rings_count>  (1927) 
0

>  <qed_drug_likeliness>  (1927) 
0.52

>  <formal_charge>  (1927) 
0

>  <fractioncsp3>  (1927) 
0.87

>  <number_of_minimal_rings>  (1927) 
3

>  <van_der_walls_volume>  (1927) 
222.57

>  <contains_sugar>  (1927) 
False

>  <contains_ring_sugars>  (1927) 
False

>  <contains_linear_sugars>  (1927) 
False

>  <murcko_framework>  (1927) 
C1CC2CCCC2C3CC3C1

>  <np_likeness>  (1927) 
3.36

>  <chemical_class>  (1927) 
Prenol lipids

>  <chemical_sub_class>  (1927) 
Sesquiterpenoids

>  <chemical_super_class>  (1927) 
Lipids and lipid-like molecules

>  <direct_parent_classification>  (1927) 
Guaianes

>  <np_classifier_pathway>  (1927) 
Terpenoids

>  <np_classifier_superclass>  (1927) 
Sesquiterpenoids

>  <np_classifier_class>  (1927) 
Aromadendrane sesquiterpenoids

>  <np_classifier_is_glycoside>  (1927) 
False

>  <organisms>  (1927) 
Abrus pulchellus|Aca sellowiana|Acorus calamus|Acorus gramineus|Acorus tatarinowii|Allium victorialis|Alpinia oxyphylla|Alstonia muelleriana|Artemisia capillaris|Artemisia cina|Arthrophytum leptocladum|Atractylodes chinensis|Atractylodes lancea|Atractylodes macrocephala|Blepharis sindica|Cellulomonas biazotea|Chrysanthemum indicum|Chrysanthemum x morifolium|Citrus Sinensis|Cladosporium tenuissimum|Commiphora quadricincta|Corbicula fluminea|Coreopsis nodosa|Corymbia citriodora|Curcuma kwangsiensis|Curcuma longa|Curcuma phaeocaulis|Curcuma wenyujin|Curcuma zedoaria|Cyperus Rotundus|Cyperus rotundus|Dacrydium cupressinum|Dacryodes normandii|Dendrobium chrysanthum|Dendrobium fimbriatum var. oculatum|Eucalyptus citriodora|Exodermis poria|Folium callicarpae nudiflorae|Fragaria indica|Fructus syzygii|Frullania brittoniae|Glycine tomentella|Haematococcus lacustris|Hypericum perforatum|Hypoestes phyllostachya|Hypoxylon rubiginosum|Laggera pterodonta|Lamellodysidea herbacea|Latua pubiflora|Leptospermum lanigerum|Lindera aggregata|Lindera strichnifolia|Lippia alnifolia|Lobelia st|Lophomyrtus bullata|Magnolia officinalis|Melaleuca Leucadendra|Melaleuca alternifolia|Melaleuca leucadendra|Mulguraea tridens|Murraya exotica|Murraya paniculata|Myrcia tylophylla|Nicotiana undulata|Panax ginseng|Panax schinseng|Passiflora incarnata|Phebalium gracile|Pinus densiflora var. densiflora|Pogostemon cablin|Polygonum Minus|Portulaca oleracea|Pterocladiella tenuis|Remijia pedunculata|Rhododendron groenlandicum|Rhododendron tomentosum|Riccia fluitans|Rudbeckia hirta|Saccharomyces pastori|Santol|Saracha viscosa|Sarcodon aspratus|Saussurea lappa|Schisandra chinensis|Senecio paludaffinis|Sideritis chamaedryfolia|Sideritis hirsuta|Sideritis leucantha|Sinopodophyllum emodi|Solanum toxicarum|Sphaerococcus coronopifolius|Spongia australis|Stelletta inconspicua|Streptomyces flocculus|Tachigalia paniculata|Teucrium bidentatum|Thymus camphoratus|Toona australis|Toona ciliata|Toona hexandra|Trichia favoginea|Trigonella grandiflora|Tripolium pannonicum|Uvaria calamistrata|Valeriana officinalis|Zanthoxylum bungeanum|Zanthoxylum piperitum|Zanthoxylum schinifolium|Zingiber officinale

>  <collections>  (1927) 
ANPDB|Australian natural products|CMAUP (cCollective molecular activities of useful plants)|Latin America dataset|NANPDB (Natural Products from Northern African Sources)|NPASS|NPDBEjeCol|NuBBEDB|Phyto4Health|Super Natural II|VietHerb|WikiData Natural Products

>  <dois>  (1927) 
10.1007/BF00579758|10.1016/0031-9422(88)80468-0|10.1016/J.BMC.2009.12.025|10.1016/J.TALANTA.2009.11.047|10.1016/S0031-9422(00)80081-3|10.1016/S0031-9422(00)80325-8|10.1016/S0031-9422(00)80600-7|10.1016/S0031-9422(01)00018-8|10.1016/S0031-9422(96)00559-6|10.1016/S0031-9422(97)00117-9|10.1016/S0040-4039(01)99055-0|10.1016/j.bmc.2009.12.025|10.1016/j.foodchem.2020.127109|10.1016/s0031-9422(00)82731-4|10.1016/s0031-9422(01)00405-8|10.1016/s0040-4039(01)99055-0|10.1021/NP400872M|10.1021/NP50083A016|10.1021/NP9606052|10.1021/np400872m|10.1021/np50017a018|10.1039/J39710003077|10.1135/CCCC19661113

>  <synonyms>  (1927) 
(-)-Alloaromadendrene, >=98.0% (sum of enantiomers, GC)|(-)-allo-Aromadendrene|(1Ar,4as,7r,7ar,7bs)-decahydro-1,1,7-trimethyl-4-methylene-1H-cycloprop[e]azulene|(1aR,4aR,7R,7aR,7bS)-1,1,7-Trimethyl-4-methylenedecahydro-1H-cyclopropa[e]azulene|(1aR,4aS,7R,7aR,7bS)-1,1,7-trimethyl-4-methylidene-2,3,4a,5,6,7,7a,7b-octahydro-1aH-cyclopropa[e]azulene|25246-27-9|6-Methoxysalicylicacid|AKOS015914134|ALLOAKUMADENDRENE|Alloaromadendrene|CHEBI:228351|CHEMBL3120657|CS-0089442|DB-234598|DTXSID70881267|HY-125134|ITYNGVSTWVVPIC-DHGKCCLASA-N|J-015889|NS00113748|Q63408945|alloaramadendrene

>  <cas>  (1927) 
25246-27-9

$$$$

     RDKit          2D

 25 27  0  0  0  0  0  0  0  0999 V2000
    6.4940   -2.4840    0.0000 C   0  0  0  0  0  0  0  0  0  0  0  0
    6.4386   -0.9850    0.0000 O   0  0  0  0  0  0  0  0  0  0  0  0
    5.1127   -0.2835    0.0000 C   0  0  0  0  0  0  0  0  0  0  0  0
    3.8423   -1.0811    0.0000 C   0  0  0  0  0  0  0  0  0  0  0  0
    2.5164   -0.3796    0.0000 C   0  0  0  0  0  0  0  0  0  0  0  0
    2.4609    1.1193    0.0000 C   0  0  0  0  0  0  0  0  0  0  0  0
    3.7313    1.9169    0.0000 C   0  0  0  0  0  0  0  0  0  0  0  0
    5.0572    1.2154    0.0000 C   0  0  0  0  0  0  0  0  0  0  0  0
    6.3276    2.0130    0.0000 O   0  0  0  0  0  0  0  0  0  0  0  0
    1.0181    1.5298    0.0000 O   0  0  0  0  0  0  0  0  0  0  0  0
    0.1819    0.2845    0.0000 C   0  0  0  0  0  0  0  0  0  0  0  0
   -1.3170    0.2290    0.0000 C   0  0  0  0  0  0  0  0  0  0  0  0
   -2.1146    1.4994    0.0000 C   0  0  0  0  0  0  0  0  0  0  0  0
   -3.6135    1.4440    0.0000 C   0  0  0  0  0  0  0  0  0  0  0  0
   -4.4111    2.7144    0.0000 O   0  0  0  0  0  0  0  0  0  0  0  0
   -3.7096    4.0403    0.0000 C   0  0  0  0  0  0  0  0  0  0  0  0
   -4.3150    0.1181    0.0000 C   0  0  0  0  0  0  0  0  0  0  0  0
   -5.8139    0.0626    0.0000 O   0  0  0  0  0  0  0  0  0  0  0  0
   -6.5154   -1.2633    0.0000 C   0  0  0  0  0  0  0  0  0  0  0  0
   -3.5174   -1.1523    0.0000 C   0  0  0  0  0  0  0  0  0  0  0  0
   -4.2189   -2.4782    0.0000 O   0  0  0  0  0  0  0  0  0  0  0  0
   -3.4214   -3.7486    0.0000 C   0  0  0  0  0  0  0  0  0  0  0  0
   -2.0185   -1.0969    0.0000 C   0  0  0  0  0  0  0  0  0  0  0  0
    1.1079   -0.8956    0.0000 C   0  0  0  0  0  0  0  0  0  0  0  0
    0.6975   -2.3384    0.0000 C   0  0  0  0  0  0  0  0  0  0  0  0
  1  2  1  0
  2  3  1  0
  3  4  2  0
  4  5  1  0
  5  6  2  0
  6  7  1  0
  7  8  2  0
  8  9  1  0
  6 10  1  0
 10 11  1  0
 11 12  1  6
 12 13  2  0
 13 14  1  0
 14 15  1  0
 15 16  1  0
 14 17  2  0
 17 18  1  0
 18 19  1  0
 17 20  1  0
 20 21  1  0
 21 22  1  0
 20 23  2  0
 11 24  1  0
 24 25  1  6
  8  3  1  0
 23 12  1  0
 24  5  1  0
M  END
>  <identifier>  (1928) 
CNP0317599.1

>  <canonical_smiles>  (1928) 
COC1=CC2=C(C=C1O)O[C@@H](C1=CC(OC)=C(OC)C(OC)=C1)[C@H]2C

>  <standard_inchi>  (1928) 
InChI=1S/C19H22O6/c1-10-12-8-15(21-2)13(20)9-14(12)25-18(10)11-6-16(22-3)19(24-5)17(7-11)23-4/h6-10,18,20H,1-5H3/t10-,18+/m0/s1

>  <standard_inchi_key>  (1928) 
CXZSMUPWCVAGRO-XTZNXHDOSA-N

>  <name>  (1928) 
nan

>  <iupac_name>  (1928) 
(2~{R},3~{S})-5-methoxy-3-methyl-2-(3,4,5-trimethoxyphenyl)-2,3-dihydrobenzofuran-6-ol

>  <annotation_level>  (1928) 
4

>  <total_atom_count>  (1928) 
47

>  <heavy_atom_count>  (1928) 
25

>  <molecular_weight>  (1928) 
346.38

>  <exact_molecular_weight>  (1928) 
346.14164

>  <molecular_formula>  (1928) 
C19H22O6

>  <alogp>  (1928) 
3.66

>  <topological_polar_surface_area>  (1928) 
66.38

>  <rotatable_bond_count>  (1928) 
5

>  <hydrogen_bond_acceptors>  (1928) 
6

>  <hydrogen_bond_donors>  (1928) 
1

>  <hydrogen_bond_acceptors_lipinski>  (1928) 
6

>  <hydrogen_bond_donors_lipinski>  (1928) 
1

>  <lipinski_rule_of_five_violations>  (1928) 
0

>  <aromatic_rings_count>  (1928) 
2

>  <qed_drug_likeliness>  (1928) 
0.89

>  <formal_charge>  (1928) 
0

>  <fractioncsp3>  (1928) 
0.37

>  <number_of_minimal_rings>  (1928) 
3

>  <van_der_walls_volume>  (1928) 
nan

>  <contains_sugar>  (1928) 
False

>  <contains_ring_sugars>  (1928) 
False

>  <contains_linear_sugars>  (1928) 
False

>  <murcko_framework>  (1928) 
O1c2ccccc2CC1c3ccccc3

>  <np_likeness>  (1928) 
1.51

>  <chemical_class>  (1928) 
2-arylbenzofuran flavonoids

>  <chemical_sub_class>  (1928) 
2-arylbenzofuran flavonoids

>  <chemical_super_class>  (1928) 
Phenylpropanoids and polyketides

>  <direct_parent_classification>  (1928) 
2-arylbenzofuran flavonoids

>  <np_classifier_pathway>  (1928) 
Shikimates and Phenylpropanoids

>  <np_classifier_superclass>  (1928) 
Lignans

>  <np_classifier_class>  (1928) 
Neolignans

>  <np_classifier_is_glycoside>  (1928) 
False

>  <organisms>  (1928) 
Aniba|Aniba sp.

>  <collections>  (1928) 
Latin America dataset|NuBBEDB|WikiData Natural Products|ZINC NP

>  <dois>  (1928) 
10.1016/0031-9422(75)85358-1

>  <synonyms>  (1928) 
(2R3S)-6-hydroxy-5-methoxy-2-(3-methoxy-45-methylenedioxyphenyl)-3-methyl-23-dihydrobenzofuran

>  <cas>  (1928) 
nan

$$$$

     RDKit          2D

 34 38  0  0  0  0  0  0  0  0999 V2000
   -2.9132   -4.9560    0.0000 O   0  0  0  0  0  0  0  0  0  0  0  0
   -2.7714   -3.4627    0.0000 C   0  0  0  0  0  0  0  0  0  0  0  0
   -3.9937   -2.5933    0.0000 C   0  0  0  0  0  0  0  0  0  0  0  0
   -3.8519   -1.1000    0.0000 C   0  0  0  0  0  0  0  0  0  0  0  0
   -5.0742   -0.2306    0.0000 O   0  0  0  0  0  0  0  0  0  0  0  0
   -2.4878   -0.4762    0.0000 C   0  0  0  0  0  0  0  0  0  0  0  0
   -1.2655   -1.3456    0.0000 C   0  0  0  0  0  0  0  0  0  0  0  0
    0.0987   -0.7218    0.0000 C   0  0  0  0  0  0  0  0  0  0  0  0
    1.3210   -1.5912    0.0000 C   0  0  0  0  0  0  0  0  0  0  0  0
    2.6851   -0.9674    0.0000 C   0  0  0  0  0  0  0  0  0  0  0  0
    3.9074   -1.8368    0.0000 C   0  0  0  0  0  0  0  0  0  0  0  0
    5.2716   -1.2130    0.0000 C   0  0  0  0  0  0  0  0  0  0  0  0
    5.4133    0.2803    0.0000 C   0  0  0  0  0  0  0  0  0  0  0  0
    6.7775    0.9042    0.0000 O   0  0  0  0  0  0  0  0  0  0  0  0
    4.1910    1.1498    0.0000 C   0  0  0  0  0  0  0  0  0  0  0  0
    2.8269    0.5259    0.0000 C   0  0  0  0  0  0  0  0  0  0  0  0
   -1.4072   -2.8389    0.0000 C   0  0  0  0  0  0  0  0  0  0  0  0
   -1.9020   -1.6367    0.0000 C   0  0  0  0  0  0  0  0  0  0  0  0
    0.0987   -0.7218    0.0000 C   0  0  0  0  0  0  0  0  0  0  0  0
    1.3210   -1.5912    0.0000 C   0  0  0  0  0  0  0  0  0  0  0  0
    2.6851   -0.9674    0.0000 C   0  0  0  0  0  0  0  0  0  0  0  0
    2.8269    0.5259    0.0000 C   0  0  0  0  0  0  0  0  0  0  0  0
    4.3014    0.8011    0.0000 O   0  0  0  0  0  0  0  0  0  0  0  0
    1.6046    1.3953    0.0000 C   0  0  0  0  0  0  0  0  0  0  0  0
    0.2405    0.7715    0.0000 C   0  0  0  0  0  0  0  0  0  0  0  0
   -2.5539   -1.1730    0.0000 C   0  0  0  0  0  0  0  0  0  0  0  0
   -2.3460    1.0171    0.0000 C   0  0  0  0  0  0  0  0  0  0  0  0
   -0.9819    1.6409    0.0000 C   0  0  0  0  0  0  0  0  0  0  0  0
   -0.8401    3.1342    0.0000 C   0  0  0  0  0  0  0  0  0  0  0  0
    0.5241    3.7581    0.0000 O   0  0  0  0  0  0  0  0  0  0  0  0
   -2.0624    4.0037    0.0000 C   0  0  0  0  0  0  0  0  0  0  0  0
   -3.4265    3.3798    0.0000 C   0  0  0  0  0  0  0  0  0  0  0  0
   -4.6488    4.2493    0.0000 O   0  0  0  0  0  0  0  0  0  0  0  0
   -3.5683    1.8865    0.0000 C   0  0  0  0  0  0  0  0  0  0  0  0
  1  2  2  0
  2  3  1  0
  3  4  1  0
  4  5  1  0
  4  6  1  0
  6  7  2  0
  7  8  1  0
  8  9  2  0
  9 10  1  0
 10 11  2  0
 11 12  1  0
 12 13  2  0
 13 14  1  0
 13 15  1  0
 15 16  2  0
  7 17  1  0
 17 18  1  0
 18 19  1  0
 19 20  2  0
 20 21  1  0
 21 22  2  0
 22 23  1  0
 22 24  1  0
 24 25  2  0
 18 26  1  0
 26 27  1  0
 27 28  2  0
 28 29  1  0
 29 30  1  0
 29 31  2  0
 31 32  1  0
 32 33  1  0
 32 34  2  0
 17  2  1  0
 25 19  1  0
 34 27  1  0
 26  4  1  0
 16 10  1  0
M  END
>  <identifier>  (1929) 
CNP0080570.2

>  <canonical_smiles>  (1929) 
O=C1CC2(O)C=C(/C=C/C3=CC=C(O)C=C3)C1C(C1=CC=C(O)C=C1)C2C1=CC(O)=CC(O)=C1

>  <standard_inchi>  (1929) 
InChI=1S/C28H24O6/c29-20-7-2-16(3-8-20)1-4-18-14-28(34)15-24(33)25(18)26(17-5-9-21(30)10-6-17)27(28)19-11-22(31)13-23(32)12-19/h1-14,25-27,29-32,34H,15H2/b4-1+

>  <standard_inchi_key>  (1929) 
QUEXSCXHRATYBJ-DAFODLJHSA-N

>  <name>  (1929) 
nan

>  <iupac_name>  (1929) 
nan

>  <annotation_level>  (1929) 
0

>  <total_atom_count>  (1929) 
58

>  <heavy_atom_count>  (1929) 
34

>  <molecular_weight>  (1929) 
456.49

>  <exact_molecular_weight>  (1929) 
456.15729

>  <molecular_formula>  (1929) 
C28H24O6

>  <alogp>  (1929) 
4.35

>  <topological_polar_surface_area>  (1929) 
118.22

>  <rotatable_bond_count>  (1929) 
4

>  <hydrogen_bond_acceptors>  (1929) 
6

>  <hydrogen_bond_donors>  (1929) 
5

>  <hydrogen_bond_acceptors_lipinski>  (1929) 
6

>  <hydrogen_bond_donors_lipinski>  (1929) 
5

>  <lipinski_rule_of_five_violations>  (1929) 
0

>  <aromatic_rings_count>  (1929) 
3

>  <qed_drug_likeliness>  (1929) 
0.40

>  <formal_charge>  (1929) 
0

>  <fractioncsp3>  (1929) 
0.18

>  <number_of_minimal_rings>  (1929) 
6

>  <van_der_walls_volume>  (1929) 
403.31

>  <contains_sugar>  (1929) 
False

>  <contains_ring_sugars>  (1929) 
False

>  <contains_linear_sugars>  (1929) 
False

>  <murcko_framework>  (1929) 
c1ccc(cc1)C=CC2=CC3CCC2C(c4ccccc4)C3c5ccccc5

>  <np_likeness>  (1929) 
1.00

>  <chemical_class>  (1929) 
nan

>  <chemical_sub_class>  (1929) 
nan

>  <chemical_super_class>  (1929) 
nan

>  <direct_parent_classification>  (1929) 
nan

>  <np_classifier_pathway>  (1929) 
Shikimates and Phenylpropanoids

>  <np_classifier_superclass>  (1929) 
Stilbenoids

>  <np_classifier_class>  (1929) 
Oligomeric stibenes

>  <np_classifier_is_glycoside>  (1929) 
False

>  <organisms>  (1929) 
Gnetum leybodii|Gnetum leyboldii

>  <collections>  (1929) 
Latin America dataset|NuBBEDB|WikiData Natural Products

>  <dois>  (1929) 
10.1021/NP50024A022|10.1021/np50024a022

>  <synonyms>  (1929) 
nan

>  <cas>  (1929) 
nan

$$$$

     RDKit          2D

 32 35  0  0  0  0  0  0  0  0999 V2000
   -1.7319   -4.8524    0.0000 O   0  0  0  0  0  0  0  0  0  0  0  0
   -1.3520   -3.4013    0.0000 C   0  0  0  0  0  0  0  0  0  0  0  0
   -2.4187   -2.3468    0.0000 C   0  0  0  0  0  0  0  0  0  0  0  0
   -2.0389   -0.8957    0.0000 C   0  0  0  0  0  0  0  0  0  0  0  0
   -3.1056    0.1589    0.0000 C   0  0  0  0  0  0  0  0  0  0  0  0
   -2.7258    1.6100    0.0000 C   0  0  0  0  0  0  0  0  0  0  0  0
   -3.7925    2.6645    0.0000 C   0  0  0  0  0  0  0  0  0  0  0  0
   -5.2391    2.2679    0.0000 C   0  0  0  0  0  0  0  0  0  0  0  0
   -6.3059    3.3225    0.0000 O   0  0  0  0  0  0  0  0  0  0  0  0
   -5.6190    0.8168    0.0000 C   0  0  0  0  0  0  0  0  0  0  0  0
   -7.0656    0.4202    0.0000 O   0  0  0  0  0  0  0  0  0  0  0  0
   -4.5523   -0.2377    0.0000 C   0  0  0  0  0  0  0  0  0  0  0  0
   -0.5922   -0.4991    0.0000 O   0  0  0  0  0  0  0  0  0  0  0  0
    0.4745   -1.5536    0.0000 C   0  0  0  0  0  0  0  0  0  0  0  0
    1.9211   -1.1571    0.0000 C   0  0  0  0  0  0  0  0  0  0  0  0
    2.3010    0.2940    0.0000 C   0  0  0  0  0  0  0  0  0  0  0  0
    3.7476    0.6906    0.0000 O   0  0  0  0  0  0  0  0  0  0  0  0
    4.1275    2.1417    0.0000 C   0  0  0  0  0  0  0  0  0  0  0  0
    5.5741    2.5383    0.0000 C   0  0  0  0  0  0  0  0  0  0  0  0
    6.6409    1.4838    0.0000 O   0  0  0  0  0  0  0  0  0  0  0  0
    3.0608    3.1963    0.0000 C   0  0  0  0  0  0  0  0  0  0  0  0
    3.4406    4.6474    0.0000 O   0  0  0  0  0  0  0  0  0  0  0  0
    1.6141    2.7997    0.0000 C   0  0  0  0  0  0  0  0  0  0  0  0
    0.5474    3.8542    0.0000 O   0  0  0  0  0  0  0  0  0  0  0  0
    1.2343    1.3486    0.0000 C   0  0  0  0  0  0  0  0  0  0  0  0
   -0.2124    0.9520    0.0000 O   0  0  0  0  0  0  0  0  0  0  0  0
    2.9879   -2.2116    0.0000 C   0  0  0  0  0  0  0  0  0  0  0  0
    4.4345   -1.8150    0.0000 O   0  0  0  0  0  0  0  0  0  0  0  0
    2.6080   -3.6627    0.0000 C   0  0  0  0  0  0  0  0  0  0  0  0
    1.1614   -4.0593    0.0000 C   0  0  0  0  0  0  0  0  0  0  0  0
    0.7815   -5.5104    0.0000 O   0  0  0  0  0  0  0  0  0  0  0  0
    0.0946   -3.0047    0.0000 C   0  0  0  0  0  0  0  0  0  0  0  0
  1  2  2  0
  2  3  1  0
  3  4  2  0
  4  5  1  0
  5  6  2  0
  6  7  1  0
  7  8  2  0
  8  9  1  0
  8 10  1  0
 10 11  1  0
 10 12  2  0
  4 13  1  0
 13 14  1  0
 14 15  2  0
 16 15  1  1
 16 17  1  0
 17 18  1  0
 18 19  1  1
 19 20  1  0
 18 21  1  0
 21 22  1  6
 21 23  1  0
 23 24  1  1
 23 25  1  0
 25 26  1  6
 15 27  1  0
 27 28  1  0
 27 29  2  0
 29 30  1  0
 30 31  1  0
 30 32  2  0
 32  2  1  0
 12  5  1  0
 32 14  1  0
 25 16  1  0
M  END
>  <identifier>  (1930) 
CNP0221949.2

>  <canonical_smiles>  (1930) 
O=C1C=C(C2=CC=C(O)C(O)=C2)OC2=C([C@@H]3O[C@H](CO)[C@@H](O)[C@H](O)[C@H]3O)C(O)=CC(O)=C12

>  <standard_inchi>  (1930) 
InChI=1S/C21H20O11/c22-6-14-17(28)18(29)19(30)21(32-14)16-11(26)4-10(25)15-12(27)5-13(31-20(15)16)7-1-2-8(23)9(24)3-7/h1-5,14,17-19,21-26,28-30H,6H2/t14-,17-,18+,19-,21+/m1/s1

>  <standard_inchi_key>  (1930) 
PLAPMLGJVGLZOV-VPRICQMDSA-N

>  <name>  (1930) 
Orientin

>  <iupac_name>  (1930) 
2-(3,4-dihydroxyphenyl)-5,7-dihydroxy-8-[(2~{S},3~{R},4~{R},5~{S},6~{R})-3,4,5-trihydroxy-6-(hydroxymethyl)tetrahydropyran-2-yl]chromen-4-one

>  <annotation_level>  (1930) 
5

>  <total_atom_count>  (1930) 
52

>  <heavy_atom_count>  (1930) 
32

>  <molecular_weight>  (1930) 
448.38

>  <exact_molecular_weight>  (1930) 
448.10056

>  <molecular_formula>  (1930) 
C21H20O11

>  <alogp>  (1930) 
-0.20

>  <topological_polar_surface_area>  (1930) 
201.28

>  <rotatable_bond_count>  (1930) 
3

>  <hydrogen_bond_acceptors>  (1930) 
11

>  <hydrogen_bond_donors>  (1930) 
8

>  <hydrogen_bond_acceptors_lipinski>  (1930) 
11

>  <hydrogen_bond_donors_lipinski>  (1930) 
8

>  <lipinski_rule_of_five_violations>  (1930) 
2

>  <aromatic_rings_count>  (1930) 
3

>  <qed_drug_likeliness>  (1930) 
0.25

>  <formal_charge>  (1930) 
0

>  <fractioncsp3>  (1930) 
0.29

>  <number_of_minimal_rings>  (1930) 
4

>  <van_der_walls_volume>  (1930) 
359.72

>  <contains_sugar>  (1930) 
True

>  <contains_ring_sugars>  (1930) 
True

>  <contains_linear_sugars>  (1930) 
False

>  <murcko_framework>  (1930) 
O1C(=CCc2cccc(c12)C3OCCCC3)c4ccccc4

>  <np_likeness>  (1930) 
2.01

>  <chemical_class>  (1930) 
Flavonoids

>  <chemical_sub_class>  (1930) 
Flavonoid glycosides

>  <chemical_super_class>  (1930) 
Phenylpropanoids and polyketides

>  <direct_parent_classification>  (1930) 
Flavonoid 8-C-glycosides

>  <np_classifier_pathway>  (1930) 
Shikimates and Phenylpropanoids

>  <np_classifier_superclass>  (1930) 
Flavonoids

>  <np_classifier_class>  (1930) 
Flavones

>  <np_classifier_is_glycoside>  (1930) 
False

>  <organisms>  (1930) 
Acacia pycnantha|Achillea nobilis|Achillea pseudopectinata|Adenia volkensii|Adenocarpus anagyrifolius|Adenocarpus artemisiifolius|Adenocarpus bacquei|Adenocarpus cincinnatus|Adenocarpus decorticans|Adenocarpus telonensis|Adonis sp.|Adonis tianschanica|Aeluropus lagopoides|Afrocarpus falcatus|Agelas nakamurai|Aglaia australiensis|Allagopappus viscosissimus|Aloe vulgaris|Alpinia allughas|Amsinckia tessellata|Anaxyrus fowleri|Anolis lineatopus|Aplysia vaccaria|Arrhenatherum longifolium|Artemisia sibirica|Arum maculatum|Arum sp.|Ascarina lucida|Aspalathus linearis|Aspalathus sp.|Aspergillus mutabilis|Asterogyne martiana|Astragalus pycnanthus|Astragalus spinosus|Athyrium niponicum|Atractylis gummifera|Atuna racemosa|Aucuba chinensis|Aurelia aurita|Baccharis angustifolia|Baccharis magellanica|Barbacenia flava|Beilschmiedia volckii|Berberis floribunda|Berkheya zeyheri|Berlinia tomentosa|Beta vulgaris|Bistorta vivipara|Bonamia spectabilis|Boscia salicifolia|Botrydium granulatum|Brickellia vernicosa|Buxus papillosa|Cajanus cajan|Calonectria cylindrospora|Calycotome villosa|Camchaya loloana|Canella winterana|Cannabis sativa|Cannabis sp.|Capsicum annuum|Capsicum sp.|Carallia brachiata|Carica dodecaphylla|Carlina acaulis|Carlina corymbosa|Carlina gummifera|Carlina macrocephala|Carlina sp.|Cecropia glaziovii|Cecropia hololeuca|Cecropia pachystachya|Cedronella canariensis|Centaurea horrida|Centaurea huber-morathii|Centaurea pseudomaculosa|Chaetomium globosum|Chaetomium subaffine|Chamaecytisus eriocarpus|Chamaecytisus hirsutus|Chamaecytisus pygmaeus|Chamaecytisus sp.|Chamaecytisus supinus|Chamaeleon gummifer|Chrysanthemum uliginosum|Chrysosplenium echinus|Cinnamomum zeylanicum|Cinnamon|Cirsium tanakae|Citrus rugulosa|Citrus tangerina|Clausena lansium|Clinacanthus Nutans|Combretum micranthum|Commelina Communis|Conyza japonica|Corydalis speciosa|Crangon vulgaris|Crataegus curvisepala|Crataegus monogyna|Crataegus rhipidophylla|Crepidomanes minutum|Crocus minimus|Crossopteryx febrifuga|Crotalaria sessiliflora|Crotalus atrox|Croton dichogamus|Cryptolestes ferrugineus|Cucumis Sativus|Cucumis sativus|Cunonia macrophylla|Curculigo pilosa|Cymbopogon citratus|Cymodocea nodosa|Cynometra lujae|Cyperus alopecuroides|Cystoseira jabukae|Dactylis glomerata|Daphne giraldii|Daphne gnidium|Daphne laureola|Daphne sp.|Datura cornigera|Decachaeta thieleana|Decaryia madagascariensis|Delphinium trifoliolatum|Dendrobium candidum|Deschampsia antarctica|Desmodium canadense|Desmodium styracifolium|Dianthus arenarius|Dianthus crinitus|Didymoglossum krausii|Didymoglossum kraussii|Dinophysis fortii|Diplacus longiflorus|Dissotis rotundifolia|Drosophyllum lusitanicum|Dunalia solanacea|Eleutherococcus brachypus|Entada rheedei|Eremochloa ophiuroides|Ericameria diffusa|Eriostemon thryptomenoides|Erylus trisphaerus|Erysimum siliculosum|Escherichia coli + Escherichia coli coculture|Eumorphia sericea|Eupatorium areolare|Eupatorium birmanicum|Eupatorium rufescens|Euphorbia clarkeana|Euphrasia stricta|Fagara naranjillo|Fagopyrum Esculentum|Fagopyrum esculentum|Fagopyrum sp.|Felimida luteorosea|Flemingia chappar|Fumaria micrantha|Gaillardia aristata|Gaillardia pulchella|Galium melanantherum|Garcinia pseudoguttifera|Genista morisii|Gentiana algida|Gleditsia caspica|Gonocytisus angulatus|Gracilaria textorii|Grona styracifolia|Gutierrezia microcephala|Gypsophila paniculata|Gypsophila sp.|Halobacterium salinarum|Haplophyllum ramosissimum|Helenium sp.|Helichrysum mixtum|Heliotropium eichwaldii|Heterotis rotundifolia|Hordeum Vulgare|Humata pectinata|Hydrangea serrata|Hydrocotyle ranunculoides|Hymenoxys scaposa|Hyparrhenia hirta|Hypericum sp.|Iris ensata|Iris lactea|Iris pallasii|Iris triflora|Itea amoena|Itea chinensis|Itea ilicifolia|Itea indochinensis|Itea japonica|Itea macrophylla|Itea maesaefolia|Itea nutans|Itea oldhamii|Itea parviflora|Itea yunnanensis|Itoa orientalis|Iyengaria stellata|Jamesoniella colorata|Jatropha ciliata|Jeotgalibacillus marinus|Kaempferia rotunda|Kali turgidum|Kuehneromyces mutabilis|Lamyropsis cynaroides|Lemna sp.|Lepidosperma ustulatum|Lepisorus ussuriensis|Lespedeza bicolor|Lespedeza davurica|Ligularia lamarum|Linum Usitatissimum|Linum sp.|Lippia mexicana|Lomatium columbianum|Lophatherum gracile|Lunularia cruciata|Lupinus polyphyllus|Lupinus texensis|Lychnis fulgens|Lysiana subfalcata|Lythrum salicaria|Lythrum sp.|Macadamia ternifolia|Macaranga peltata|Melanargia galathea|Melilotus indicus|Micromeria juliana|Mimosa pudica|Moraea sisyrinchium|Musanga cecropioides|Narcissus obesus|Nelumbo nucifera|Nicotiana debneyi|Nostoc spongiaeforme|Nylandtia spinosa|Nymphaea alba|Ocimum sp.|Ocimum tenuiflorum|Ocotea pulchella|Odontosoria gymnogrammoides|Oenothera canescens|Oenothera macrocarpa|Origanum sp.|Osteospermum muricatum|Paenibacillus alvei|Paeonia lactiflora|Paeonia rockii|Panzeria canescens|Papaver albiflorum|Papaver orientale|Papaver tatricum|Parablechnum minus|Parkinsonia aculeata|Parnassius phoebus|Parthenium hysterophorus|Passiflora alata|Passiflora allantophylla|Passiflora ambigua|Passiflora colinvauxii|Passiflora edulis|Passiflora incarnata|Passiflora menispermifolia|Passiflora misera|Passiflora oerstedii|Passiflora pinnatistipula|Passiflora serratifolia|Passiflora sexflora|Passiflora sp.|Pelargonium reniforme|Peltogyne pubescens|Peperomia vulcanica|Persicaria orientalis|Phaeolus schweinitzii|Phoenix loureiroi|Phoenix loureiroi var. loureiroi|Phoma medicaginis|Phorbas amaranthus|Phyllanthus discoideus|Phyllostachys nigra|Physalis edulis|Piper solmsianum|Pistia stratiotes|Platycarya strobilacea|Pleurotus japonicus|Poa annua|Podocarpus nivalis|Polygonum Orientale|Premna tomentosa|Pseudoceratina arabica|Pterodon emarginatus|Pulsatilla campanella|Pyrrosia lingua|Pyrrosia petiolosa|Pyrrosia sheareri|Pyrrosia tricuspis|Rabelera holostea|Ranunculus illyricus|Ranunculus peltatus|Retama raetam|Retama sphaerocarpa|Rhizopus stolonifer|Rhynchosia beddomei|Rhynchosia cana|Rhynchosia capitata|Rhynchosia heynei|Rhynchosia minima|Rhynchosia rothii|Rhynchosia rufescens|Rhynchosia suaveolens|Rosulabryum capillare|Rumex acetosa|Rumex bucephalophorus|Rumex cyprius|Rumex limoniastrum|Rumex pictus|Rumex simpliciflorus|Rumex vesicarius|Sagittaria pygmaea|Sagittaria sagittifolia|Salvia digitaloides|Salvia miltiorrhiza|Sarcodon glaucopus|Saussurea amara|Scutellaria albida|Setaria italica|Sia ferox|Sideritis euboea|Siegesbeckia orientalis|Sigesbeckia sp.|Silene banksia|Silene fulgens|Silene saxatilis|Silene wilfordii|Sisyrinchium californicum|Sophora exigua|Sorbus tianschanica|Spirodela polyrhiza|Spirodela polyrrhiza|Sporobolus cynosuroides|Stellaria holostea|Stellaria media|Stephania elegans|Streptomyces chattanoogensis|Streptomyces clavifer|Streptomyces griseochromogenes|Sugarcane|Swertia decussata|Swertia swertopsis|Syzygium nervosum|Talaromyces pinophilus|Tamarindus Indica|Tamarindus sp.|Tanacetum sp.|Tanacetum vulgare|Tarenna ebracteata|Taxus brevifolia|Terminalia brachystemma|Terminalia myriocarpa|Thalictrum cultratum|Thalictrum minus|Theobroma Cacao|Thermopsis alpina|Tinospora crispa|Tragopogon orientalis|Tragopogon pratensis|Trichoderma koningi|Trichoderma polysporum|Trichomanes crispum|Trichomanes cupressoides|Trichomanes holopterum|Trichomanes lucens|Trichomanes polypodioides|Trichomanes reptans|Trigonella foenum-graecum|Trigonella grandiflora|Trogoderma granarium|Trollius chinensis|Trollius ledebouri|Trollius ledebourii|Tsuga chinensis|Turricula parryi|Uncaria laevigata|Usnea undulata|Utricularia australis|Vellozia coronata|Vellozia epidendroides|Vellozia lilacina|Vellozia scoparia|Vellozia streptophylla|Viola sp.|Virgilia divaricata|Vitex agnus-castus|Vitex negundo|Vitex negundo var. cannabifolia|Vitex polygama|Vitex sp.|Vitis aestivalis|Vitis cinerea|Wikstroemia sp.|Wilbrandia ebracteata|Xanthium pungens|cacao|rooibos

>  <collections>  (1930) 
ANPDB|Australian natural products|CMAUP (cCollective molecular activities of useful plants)|ChEBI NPs|EMNPD|Latin America dataset|NANPDB (Natural Products from Northern African Sources)|NPASS|NuBBEDB|Phyto4Health|PhytoLab phyproof® Reference Substances|Super Natural II|TCMDB-Taiwan (Traditional Chinese Medicine database)|VietHerb|WikiData Natural Products|ZINC NP

>  <dois>  (1930) 
10.1002/(SICI)1099-1565(200003/04)11:2<90::AID-PCA497>3.0.CO;2-R|10.1002/ARDP.19142520309|10.1002/CHIN.198618358|10.1002/HLCA.19860690130|10.1002/J.1537-2197.1988.TB13465.X|10.1002/J.1537-2197.1996.TB13914.X|10.1002/JMS.395|10.1002/JPS.2600660947|10.1002/PCA.688|10.1002/PS.1278|10.1002/ps.1278|10.1007/BF00563474|10.1007/BF00563973|10.1007/BF00564266|10.1007/BF00564824|10.1007/BF00565265|10.1007/BF00566811|10.1007/BF00567822|10.1007/BF00571143|10.1007/BF00574225|10.1007/BF00574811|10.1007/BF00579081|10.1007/BF00579155|10.1007/BF00579784|10.1007/BF00598320|10.1007/BF00630667|10.1007/BF00636015|10.1007/BF02002621|10.1007/BF02491247|10.1007/BF02688048|10.1007/S10600-010-9746-7|10.1007/S10600-011-9906-4|10.1007/S11746-003-0652-X|10.1007/SPRINGERREFERENCE_68291|10.1016/0021-9673(93)80317-2|10.1016/0031-9422(72)80069-4|10.1016/0031-9422(75)85315-5|10.1016/0031-9422(79)83089-7|10.1016/0031-9422(83)83059-3|10.1016/0031-9422(86)80029-2|10.1016/0031-9422(88)87036-5|10.1016/0031-9422(89)80274-2|10.1016/0031-9422(91)83059-T|10.1016/0031-9422(91)83679-F|10.1016/0031-9422(91)85140-U|10.1016/0031-9422(92)90037-Q|10.1016/0031-9422(95)00599-4|10.1016/0304-3770(77)90003-1|10.1016/0305-1978(84)90034-6|10.1016/0305-1978(87)90085-8|10.1016/0305-1978(87)90107-4|10.1016/0305-1978(87)90109-8|10.1016/0305-1978(91)90116-H|10.1016/0305-1978(93)90049-W|10.1016/J.BMC.2015.04.053|10.1016/J.BSE.2011.12.023|10.1016/J.FITOTE.2004.09.019|10.1016/J.FITOTE.2005.04.011|10.1016/J.FITOTE.2006.04.007|10.1016/J.FITOTE.2009.05.006|10.1016/J.PHYMED.2008.02.006|10.1016/J.PHYTOCHEM.2005.03.021|10.1016/J.PHYTOCHEM.2007.01.015|10.1016/J.PHYTOCHEM.2007.04.014|10.1016/J.PHYTOCHEM.2009.06.006|10.1016/S0021-9673(97)00260-4|10.1016/S0031-9422(00)82535-2|10.1016/S0031-9422(00)84808-6|10.1016/S0031-9422(00)84968-7|10.1016/S0031-9422(00)86879-X|10.1016/S0031-9422(00)89660-0|10.1016/S0031-9422(00)89915-X|10.1016/S0031-9422(00)90131-6|10.1016/S0031-9422(00)90808-2|10.1016/S0031-9422(00)94342-5|10.1016/S0031-9422(00)95162-8|10.1016/S0031-9422(00)98008-7|10.1016/S0031-9422(01)00403-4|10.1016/S0031-9422(02)00060-2|10.1016/S0031-9422(02)00258-3|10.1016/S0031-9422(96)00417-7|10.1016/S0031-9422(96)00800-X|10.1016/S0031-9422(97)00100-3|10.1016/S0031-9422(98)00416-6|10.1016/S0305-1978(01)00028-X|10.1016/S0305-1978(01)00086-2|10.1016/S0305-1978(01)00116-8|10.1016/S0305-1978(02)00055-8|10.1016/S0305-1978(99)00121-0|10.1016/S0367-326X(03)00061-3|10.1016/S0378-8741(01)00410-X|10.1016/S0378-8741(97)00042-1|10.1016/j.bioorg.2021.104926|10.1016/j.bmc.2015.04.053|10.1016/j.bse.2011.12.023|10.1021/ACS.JNATPROD.6B00839|10.1021/JF0347721|10.1021/JF0479766|10.1021/NP030150Y|10.1021/NP50007A017|10.1021/NP50008A001|10.1021/NP50015A025|10.1021/NP50022A009|10.1021/NP50024A029|10.1021/NP50024A030|10.1021/NP50029A031|10.1021/NP50031A032|10.1021/NP50037A042|10.1021/NP50048A048|10.1021/NP50050A058|10.1021/NP800014S|10.1055/S-0033-1352160|10.1055/S-2002-32549|10.1055/S-2003-39699|10.1055/S-2006-960869|10.1055/S-2006-962425|10.1055/S-2007-969273|10.1055/S-2007-969715|10.1055/S-2007-987153|10.1071/ch9650531|10.1076/PHBI.34.4.300.13233|10.1076/PHBI.37.1.92.6318|10.1076/PHBI.40.2.81.5844|10.1078/0944-7113-00003|10.1078/0944-7113-00036|10.1080/1028602031000147393|10.1080/10575639808044951|10.1080/10826079408013630|10.1080/14786410701592612|10.1080/14786410701642532|10.1080/14786410701782544|10.1248/BPB.28.1527|10.1248/CPB.38.2277|10.1248/CPB.39.1455|10.1248/CPB.44.333|10.1248/CPB.59.135|10.1248/CPB.59.1393|10.1248/YAKUSHI1947.107.10_774|10.1271/BBB.67.410|10.1371/JOURNAL.PONE.0108860|10.1501/ECZFAK_0000000200|10.1515/ZNC-1985-3-402|10.1515/ZNC-2000-1-209|10.1515/ZNC-2001-1-203|10.1515/ZNC-2002-5-606|10.1515/ZNC-2003-1-202|10.1556/018.68.2017.2.10|10.1590/S0100-40422009000500005|10.1590/S0103-50532011000600014|10.21608/ZJPS.1994.186618|10.2307/3579750|10.2307/4040974|10.3390/MOLECULES14031032|10.3390/MOLECULES15118251|10.3390/foods9060770|10.5586/ASBP.1988.009

>  <synonyms>  (1930) 
nan

>  <cas>  (1930) 
28608-75-5

$$$$

     RDKit          2D

 34 38  0  0  0  0  0  0  0  0999 V2000
   -6.5781   -1.0807    0.0000 C   0  0  0  0  0  0  0  0  0  0  0  0
   -6.2928    0.3919    0.0000 C   0  0  0  0  0  0  0  0  0  0  0  0
   -7.7925    0.4172    0.0000 C   0  0  0  0  0  0  0  0  0  0  0  0
   -6.5283    1.8733    0.0000 C   0  0  0  0  0  0  0  0  0  0  0  0
   -7.9290    2.4100    0.0000 O   0  0  0  0  0  0  0  0  0  0  0  0
   -5.3632    2.8180    0.0000 C   0  0  0  0  0  0  0  0  0  0  0  0
   -3.9625    2.2813    0.0000 C   0  0  0  0  0  0  0  0  0  0  0  0
   -3.7269    0.7999    0.0000 C   0  0  0  0  0  0  0  0  0  0  0  0
   -2.5618    1.7446    0.0000 C   0  0  0  0  0  0  0  0  0  0  0  0
   -2.3262    0.2632    0.0000 C   0  0  0  0  0  0  0  0  0  0  0  0
   -1.1611    1.2079    0.0000 C   0  0  0  0  0  0  0  0  0  0  0  0
    0.2396    0.6713    0.0000 C   0  0  0  0  0  0  0  0  0  0  0  0
    0.4752   -0.8101    0.0000 C   0  0  0  0  0  0  0  0  0  0  0  0
    1.7337   -1.6263    0.0000 C   0  0  0  0  0  0  0  0  0  0  0  0
    3.1337   -1.0879    0.0000 C   0  0  0  0  0  0  0  0  0  0  0  0
    3.5211    0.3612    0.0000 C   0  0  0  0  0  0  0  0  0  0  0  0
    5.0190    0.4406    0.0000 C   0  0  0  0  0  0  0  0  0  0  0  0
    5.8351    1.6992    0.0000 C   0  0  0  0  0  0  0  0  0  0  0  0
    5.1533    3.0352    0.0000 O   0  0  0  0  0  0  0  0  0  0  0  0
    7.3331    1.6216    0.0000 C   0  0  0  0  0  0  0  0  0  0  0  0
    7.2556    0.1236    0.0000 C   0  0  0  0  0  0  0  0  0  0  0  0
    7.4107    3.1196    0.0000 C   0  0  0  0  0  0  0  0  0  0  0  0
    8.8311    1.5440    0.0000 O   0  0  0  0  0  0  0  0  0  0  0  0
    5.5574   -0.9594    0.0000 C   0  0  0  0  0  0  0  0  0  0  0  0
    4.3922   -1.9041    0.0000 C   0  0  0  0  0  0  0  0  0  0  0  0
    4.4717   -3.4020    0.0000 O   0  0  0  0  0  0  0  0  0  0  0  0
    1.3464   -3.0754    0.0000 C   0  0  0  0  0  0  0  0  0  0  0  0
   -0.1515   -3.1549    0.0000 C   0  0  0  0  0  0  0  0  0  0  0  0
   -0.6900   -1.7548    0.0000 C   0  0  0  0  0  0  0  0  0  0  0  0
   -1.7500   -2.8161    0.0000 C   0  0  0  0  0  0  0  0  0  0  0  0
   -2.0907   -1.2181    0.0000 C   0  0  0  0  0  0  0  0  0  0  0  0
   -3.2558   -2.1628    0.0000 C   0  0  0  0  0  0  0  0  0  0  0  0
   -4.6565   -1.6261    0.0000 C   0  0  0  0  0  0  0  0  0  0  0  0
   -4.8921   -0.1448    0.0000 C   0  0  0  0  0  0  0  0  0  0  0  0
  1  2  1  0
  2  3  1  0
  2  4  1  0
  4  5  2  0
  4  6  1  0
  6  7  1  0
  7  8  1  0
  8  9  1  1
  8 10  1  0
 10 11  1  0
 11 12  1  0
 13 12  1  1
 13 14  1  0
 14 15  1  0
 15 16  1  1
 16 17  1  0
 17 18  1  0
 18 19  1  1
 18 20  1  0
 20 21  1  0
 20 22  1  0
 20 23  1  0
 17 24  1  0
 24 25  1  0
 25 26  1  0
 14 27  1  6
 27 28  1  0
 28 29  1  0
 29 30  1  1
 29 31  1  0
 31 32  2  0
 32 33  1  0
 33 34  1  0
 34  2  1  0
 34  8  1  0
 31 10  1  0
 29 13  1  0
 25 15  1  0
M  END
>  <identifier>  (1931) 
CNP0283528.1

>  <canonical_smiles>  (1931) 
CC1(C)C(=O)CC[C@]2(C)C3CC[C@H]4[C@H]([C@H]5CC([C@@H](O)C(C)(C)O)CC5O)CC[C@]4(C)C3=CCC12

>  <standard_inchi>  (1931) 
InChI=1S/C30H48O4/c1-27(2)24-10-9-21-22(30(24,6)14-12-25(27)32)8-7-20-18(11-13-29(20,21)5)19-15-17(16-23(19)31)26(33)28(3,4)34/h9,17-20,22-24,26,31,33-34H,7-8,10-16H2,1-6H3/t17?,18-,19+,20-,22?,23?,24?,26+,29-,30+/m0/s1

>  <standard_inchi_key>  (1931) 
SCSCDZCUQOCOFN-MEYAQVRBSA-N

>  <name>  (1931) 
nan

>  <iupac_name>  (1931) 
(10~{R},13~{S},14~{S},17~{R})-17-[(1~{R})-4-[(1~{R})-1,2-dihydroxy-2-methyl-propyl]-2-hydroxy-cyclopentyl]-4,4,10,14-tetramethyl-2,5,6,9,11,12,13,15,16,17-decahydro-1~{H}-cyclopenta[a]phenanthren-3-one

>  <annotation_level>  (1931) 
4

>  <total_atom_count>  (1931) 
82

>  <heavy_atom_count>  (1931) 
34

>  <molecular_weight>  (1931) 
472.71

>  <exact_molecular_weight>  (1931) 
472.35526

>  <molecular_formula>  (1931) 
C30H48O4

>  <alogp>  (1931) 
5.29

>  <topological_polar_surface_area>  (1931) 
77.76

>  <rotatable_bond_count>  (1931) 
3

>  <hydrogen_bond_acceptors>  (1931) 
4

>  <hydrogen_bond_donors>  (1931) 
3

>  <hydrogen_bond_acceptors_lipinski>  (1931) 
4

>  <hydrogen_bond_donors_lipinski>  (1931) 
3

>  <lipinski_rule_of_five_violations>  (1931) 
1

>  <aromatic_rings_count>  (1931) 
0

>  <qed_drug_likeliness>  (1931) 
0.49

>  <formal_charge>  (1931) 
0

>  <fractioncsp3>  (1931) 
0.90

>  <number_of_minimal_rings>  (1931) 
5

>  <van_der_walls_volume>  (1931) 
nan

>  <contains_sugar>  (1931) 
False

>  <contains_ring_sugars>  (1931) 
False

>  <contains_linear_sugars>  (1931) 
False

>  <murcko_framework>  (1931) 
C1=C2C(CCC3C2CCC3C4CCCC4)C5CCCCC5C1

>  <np_likeness>  (1931) 
3.21

>  <chemical_class>  (1931) 
Steroids and steroid derivatives

>  <chemical_sub_class>  (1931) 
Oxosteroids

>  <chemical_super_class>  (1931) 
Lipids and lipid-like molecules

>  <direct_parent_classification>  (1931) 
3-oxosteroids

>  <np_classifier_pathway>  (1931) 
Terpenoids

>  <np_classifier_superclass>  (1931) 
Triterpenoids

>  <np_classifier_class>  (1931) 
Lanostane, Tirucallane and Euphane triterpenoids

>  <np_classifier_is_glycoside>  (1931) 
False

>  <organisms>  (1931) 
Raulinoa echinata

>  <collections>  (1931) 
Latin America dataset|NuBBEDB

>  <dois>  (1931) 
10.1078/0944-7113-00016.

>  <synonyms>  (1931) 
Melianodiol

>  <cas>  (1931) 
nan

$$$$

     RDKit          2D

 40 45  0  0  0  0  0  0  0  0999 V2000
   -7.8545   -3.9865    0.0000 C   0  0  0  0  0  0  0  0  0  0  0  0
   -7.3978   -2.5577    0.0000 C   0  0  0  0  0  0  0  0  0  0  0  0
   -8.4068   -1.4478    0.0000 C   0  0  0  0  0  0  0  0  0  0  0  0
   -7.9501   -0.0191    0.0000 C   0  0  0  0  0  0  0  0  0  0  0  0
   -6.4844    0.2998    0.0000 C   0  0  0  0  0  0  0  0  0  0  0  0
   -7.4934    1.4097    0.0000 C   0  0  0  0  0  0  0  0  0  0  0  0
   -6.0277    1.7286    0.0000 C   0  0  0  0  0  0  0  0  0  0  0  0
   -4.5620    2.0475    0.0000 C   0  0  0  0  0  0  0  0  0  0  0  0
   -3.5530    0.9376    0.0000 C   0  0  0  0  0  0  0  0  0  0  0  0
   -2.5440   -0.1723    0.0000 C   0  0  0  0  0  0  0  0  0  0  0  0
   -4.0097   -0.4912    0.0000 C   0  0  0  0  0  0  0  0  0  0  0  0
   -3.0007   -1.6011    0.0000 C   0  0  0  0  0  0  0  0  0  0  0  0
   -1.5350   -1.2822    0.0000 C   0  0  0  0  0  0  0  0  0  0  0  0
   -1.0783    0.1466    0.0000 C   0  0  0  0  0  0  0  0  0  0  0  0
    0.3874    0.4654    0.0000 C   0  0  0  0  0  0  0  0  0  0  0  0
   -0.0693   -0.9634    0.0000 C   0  0  0  0  0  0  0  0  0  0  0  0
    1.3964   -0.6445    0.0000 C   0  0  0  0  0  0  0  0  0  0  0  0
    2.8622   -0.3256    0.0000 C   0  0  0  0  0  0  0  0  0  0  0  0
    3.3189    1.1032    0.0000 C   0  0  0  0  0  0  0  0  0  0  0  0
    4.7846    1.4221    0.0000 O   0  0  0  0  0  0  0  0  0  0  0  0
    5.7936    0.3122    0.0000 C   0  0  0  0  0  0  0  0  0  0  0  0
    5.3369   -1.1166    0.0000 O   0  0  0  0  0  0  0  0  0  0  0  0
    7.2593    0.6310    0.0000 C   0  0  0  0  0  0  0  0  0  0  0  0
    8.2683   -0.4789    0.0000 C   0  0  0  0  0  0  0  0  0  0  0  0
    7.8116   -1.9076    0.0000 C   0  0  0  0  0  0  0  0  0  0  0  0
    8.8206   -3.0176    0.0000 C   0  0  0  0  0  0  0  0  0  0  0  0
   10.2863   -2.6987    0.0000 C   0  0  0  0  0  0  0  0  0  0  0  0
   10.7430   -1.2699    0.0000 C   0  0  0  0  0  0  0  0  0  0  0  0
    9.7340   -0.1600    0.0000 C   0  0  0  0  0  0  0  0  0  0  0  0
    2.3098    2.2131    0.0000 C   0  0  0  0  0  0  0  0  0  0  0  0
    1.7413    3.6012    0.0000 C   0  0  0  0  0  0  0  0  0  0  0  0
    3.5781    3.0140    0.0000 C   0  0  0  0  0  0  0  0  0  0  0  0
    0.8441    1.8942    0.0000 C   0  0  0  0  0  0  0  0  0  0  0  0
   -0.1649    3.0041    0.0000 C   0  0  0  0  0  0  0  0  0  0  0  0
   -1.6306    2.6852    0.0000 C   0  0  0  0  0  0  0  0  0  0  0  0
   -2.0873    1.2565    0.0000 C   0  0  0  0  0  0  0  0  0  0  0  0
   -3.0963    2.3664    0.0000 C   0  0  0  0  0  0  0  0  0  0  0  0
   -5.4754   -0.8101    0.0000 C   0  0  0  0  0  0  0  0  0  0  0  0
   -5.9321   -2.2389    0.0000 C   0  0  0  0  0  0  0  0  0  0  0  0
   -4.9231   -3.3488    0.0000 C   0  0  0  0  0  0  0  0  0  0  0  0
  2  1  1  6
  2  3  1  0
  3  4  1  0
  4  5  1  0
  5  6  1  1
  5  7  1  0
  7  8  1  0
  8  9  1  0
  9 10  1  6
  9 11  1  0
 11 12  2  0
 12 13  1  0
 13 14  1  0
 14 15  1  0
 15 16  1  1
 15 17  1  0
 17 18  1  0
 18 19  1  0
 19 20  1  1
 20 21  1  0
 21 22  2  0
 21 23  1  0
 23 24  1  0
 24 25  2  0
 25 26  1  0
 26 27  2  0
 27 28  1  0
 28 29  2  0
 19 30  1  0
 30 31  1  0
 30 32  1  0
 30 33  1  0
 33 34  1  0
 34 35  1  0
 35 36  1  0
 36 37  1  1
 11 38  1  0
 38 39  1  0
 39 40  1  1
 39  2  1  0
 38  5  1  0
 36  9  1  0
 36 14  1  0
 33 15  1  0
 29 24  1  0
M  END
>  <identifier>  (1932) 
CNP0080557.1

>  <canonical_smiles>  (1932) 
C[C@@H]1CC[C@]2(C)CC[C@]3(C)C(=CCC4[C@@]5(C)CC[C@H](OC(=O)CC6=CC=CC=C6)C(C)(C)C5CC[C@]43C)C2[C@H]1C

>  <standard_inchi>  (1932) 
InChI=1S/C38H56O2/c1-25-16-19-35(5)22-23-37(7)28(33(35)26(25)2)14-15-30-36(6)20-18-31(34(3,4)29(36)17-21-38(30,37)8)40-32(39)24-27-12-10-9-11-13-27/h9-14,25-26,29-31,33H,15-24H2,1-8H3/t25-,26+,29?,30?,31+,33?,35-,36+,37-,38-/m1/s1

>  <standard_inchi_key>  (1932) 
GJPKTQOFZAVPOY-KBSTWQTDSA-N

>  <name>  (1932) 
nan

>  <iupac_name>  (1932) 
[(3~{S},6~{a}~{R},6~{b}~{S},8~{a}~{R},11~{R},12~{S},14~{b}~{R})-4,4,6~{a},6~{b},8~{a},11,12,14~{b}-octamethyl-2,3,4~{a},5,6,7,8,9,10,11,12,12~{a},14,14~{a}-tetradecahydro-1~{H}-picen-3-yl] 2-phenylacetate

>  <annotation_level>  (1932) 
4

>  <total_atom_count>  (1932) 
96

>  <heavy_atom_count>  (1932) 
40

>  <molecular_weight>  (1932) 
544.86

>  <exact_molecular_weight>  (1932) 
544.42803

>  <molecular_formula>  (1932) 
C38H56O2

>  <alogp>  (1932) 
9.82

>  <topological_polar_surface_area>  (1932) 
26.30

>  <rotatable_bond_count>  (1932) 
3

>  <hydrogen_bond_acceptors>  (1932) 
2

>  <hydrogen_bond_donors>  (1932) 
0

>  <hydrogen_bond_acceptors_lipinski>  (1932) 
2

>  <hydrogen_bond_donors_lipinski>  (1932) 
0

>  <lipinski_rule_of_five_violations>  (1932) 
2

>  <aromatic_rings_count>  (1932) 
1

>  <qed_drug_likeliness>  (1932) 
0.28

>  <formal_charge>  (1932) 
0

>  <fractioncsp3>  (1932) 
0.76

>  <number_of_minimal_rings>  (1932) 
6

>  <van_der_walls_volume>  (1932) 
nan

>  <contains_sugar>  (1932) 
False

>  <contains_ring_sugars>  (1932) 
False

>  <contains_linear_sugars>  (1932) 
False

>  <murcko_framework>  (1932) 
O(CCc1ccccc1)C2CCC3C(CCC4C5C(=CCC43)C6CCCCC6CC5)C2

>  <np_likeness>  (1932) 
2.48

>  <chemical_class>  (1932) 
Prenol lipids

>  <chemical_sub_class>  (1932) 
Triterpenoids

>  <chemical_super_class>  (1932) 
Lipids and lipid-like molecules

>  <direct_parent_classification>  (1932) 
Taraxastane, ursane, and bauerane triterpenoids

>  <np_classifier_pathway>  (1932) 
Terpenoids

>  <np_classifier_superclass>  (1932) 
Triterpenoids

>  <np_classifier_class>  (1932) 
Ursane and Taraxastane triterpenoids

>  <np_classifier_is_glycoside>  (1932) 
False

>  <organisms>  (1932) 
Trattinnickia burserifolia

>  <collections>  (1932) 
Latin America dataset|NuBBEDB|WikiData Natural Products

>  <dois>  (1932) 
10.1590/S0103-50532004000300008

>  <synonyms>  (1932) 
3\u221a\u00e9\u00ac\u2264- phenylacetoxyurs-12-ene

>  <cas>  (1932) 
nan

$$$$

     RDKit          2D

 32 35  0  0  0  0  0  0  0  0999 V2000
    3.9537    5.2190    0.0000 C   0  0  0  0  0  0  0  0  0  0  0  0
    3.9156    3.7195    0.0000 C   0  0  0  0  0  0  0  0  0  0  0  0
    2.5979    3.0028    0.0000 C   0  0  0  0  0  0  0  0  0  0  0  0
    2.5597    1.5033    0.0000 C   0  0  0  0  0  0  0  0  0  0  0  0
    3.8392    0.7205    0.0000 C   0  0  0  0  0  0  0  0  0  0  0  0
    3.8011   -0.7790    0.0000 C   0  0  0  0  0  0  0  0  0  0  0  0
    5.0806   -1.5618    0.0000 O   0  0  0  0  0  0  0  0  0  0  0  0
    5.0424   -3.0614    0.0000 C   0  0  0  0  0  0  0  0  0  0  0  0
    2.4834   -1.4957    0.0000 C   0  0  0  0  0  0  0  0  0  0  0  0
    2.4452   -2.9953    0.0000 O   0  0  0  0  0  0  0  0  0  0  0  0
    1.1275   -3.7120    0.0000 C   0  0  0  0  0  0  0  0  0  0  0  0
    1.0893   -5.2115    0.0000 C   0  0  0  0  0  0  0  0  0  0  0  0
   -0.1520   -2.9292    0.0000 O   0  0  0  0  0  0  0  0  0  0  0  0
    1.2038   -0.7129    0.0000 C   0  0  0  0  0  0  0  0  0  0  0  0
   -0.1139   -1.4296    0.0000 O   0  0  0  0  0  0  0  0  0  0  0  0
   -1.1570   -1.1016    0.0000 C   0  0  0  0  0  0  0  0  0  0  0  0
    0.2288    0.4270    0.0000 C   0  0  0  0  0  0  0  0  0  0  0  0
   -1.2665    0.3082    0.0000 C   0  0  0  0  0  0  0  0  0  0  0  0
   -2.1170    1.5437    0.0000 C   0  0  0  0  0  0  0  0  0  0  0  0
   -3.6123    1.4250    0.0000 C   0  0  0  0  0  0  0  0  0  0  0  0
   -4.4628    2.6605    0.0000 O   0  0  0  0  0  0  0  0  0  0  0  0
   -3.8180    4.0149    0.0000 C   0  0  0  0  0  0  0  0  0  0  0  0
   -4.2570    0.0706    0.0000 C   0  0  0  0  0  0  0  0  0  0  0  0
   -5.6950   -0.3565    0.0000 O   0  0  0  0  0  0  0  0  0  0  0  0
   -5.7331   -1.8560    0.0000 C   0  0  0  0  0  0  0  0  0  0  0  0
   -4.3188   -2.3557    0.0000 O   0  0  0  0  0  0  0  0  0  0  0  0
   -3.4065   -1.1650    0.0000 C   0  0  0  0  0  0  0  0  0  0  0  0
   -1.9112   -1.0462    0.0000 C   0  0  0  0  0  0  0  0  0  0  0  0
    1.0116    1.7065    0.0000 C   0  0  0  0  0  0  0  0  0  0  0  0
    0.4366    3.0919    0.0000 C   0  0  0  0  0  0  0  0  0  0  0  0
    1.2420    0.7866    0.0000 C   0  0  0  0  0  0  0  0  0  0  0  0
   -0.0375    1.5694    0.0000 O   0  0  0  0  0  0  0  0  0  0  0  0
  1  2  2  0
  2  3  1  0
  4  3  1  1
  4  5  1  0
  5  6  1  0
  6  7  1  1
  7  8  1  0
  6  9  1  0
  9 10  1  6
 10 11  1  0
 11 12  1  0
 11 13  2  0
  9 14  1  0
 14 15  1  1
 15 16  1  0
 14 17  1  0
 17 18  1  1
 18 19  2  0
 19 20  1  0
 20 21  1  0
 21 22  1  0
 20 23  2  0
 23 24  1  0
 24 25  1  0
 25 26  1  0
 26 27  1  0
 27 28  2  0
 17 29  1  0
 29 30  1  6
 14 31  1  0
 31 32  1  1
 29  4  1  0
 31  4  1  0
 28 18  1  0
 27 23  1  0
M  END
>  <identifier>  (1933) 
CNP0080454.1

>  <canonical_smiles>  (1933) 
C=CC[C@]12C[C@@H](OC)[C@H](OC(C)=O)[C@](OC)([C@@H](C3=CC(OC)=C4OCOC4=C3)[C@@H]1C)[C@H]2O

>  <standard_inchi>  (1933) 
InChI=1S/C24H32O8/c1-7-8-23-11-18(28-5)21(32-14(3)25)24(29-6,22(23)26)19(13(23)2)15-9-16(27-4)20-17(10-15)30-12-31-20/h7,9-10,13,18-19,21-22,26H,1,8,11-12H2,2-6H3/t13-,18+,19+,21-,22-,23-,24+/m0/s1

>  <standard_inchi_key>  (1933) 
BXYAGWZSLYCQHT-HVAIITNISA-N

>  <name>  (1933) 
nan

>  <iupac_name>  (1933) 
[(1~{S},2~{S},3~{R},5~{S},6~{S},7~{R},8~{S})-5-allyl-8-hydroxy-1,3-dimethoxy-7-(7-methoxy-1,3-benzodioxol-5-yl)-6-methyl-2-bicyclo[3.2.1]octanyl] acetate

>  <annotation_level>  (1933) 
3

>  <total_atom_count>  (1933) 
64

>  <heavy_atom_count>  (1933) 
32

>  <molecular_weight>  (1933) 
448.51

>  <exact_molecular_weight>  (1933) 
448.20972

>  <molecular_formula>  (1933) 
C24H32O8

>  <alogp>  (1933) 
2.82

>  <topological_polar_surface_area>  (1933) 
92.68

>  <rotatable_bond_count>  (1933) 
7

>  <hydrogen_bond_acceptors>  (1933) 
8

>  <hydrogen_bond_donors>  (1933) 
1

>  <hydrogen_bond_acceptors_lipinski>  (1933) 
8

>  <hydrogen_bond_donors_lipinski>  (1933) 
1

>  <lipinski_rule_of_five_violations>  (1933) 
0

>  <aromatic_rings_count>  (1933) 
1

>  <qed_drug_likeliness>  (1933) 
0.50

>  <formal_charge>  (1933) 
0

>  <fractioncsp3>  (1933) 
0.63

>  <number_of_minimal_rings>  (1933) 
4

>  <van_der_walls_volume>  (1933) 
nan

>  <contains_sugar>  (1933) 
False

>  <contains_ring_sugars>  (1933) 
False

>  <contains_linear_sugars>  (1933) 
False

>  <murcko_framework>  (1933) 
O1c2ccc(cc2OC1)C3CC4CCCC3C4

>  <np_likeness>  (1933) 
2.20

>  <chemical_class>  (1933) 
Benzodioxoles

>  <chemical_sub_class>  (1933) 
Benzodioxoles

>  <chemical_super_class>  (1933) 
Organoheterocyclic compounds

>  <direct_parent_classification>  (1933) 
Benzodioxoles

>  <np_classifier_pathway>  (1933) 
Shikimates and Phenylpropanoids

>  <np_classifier_superclass>  (1933) 
Lignans

>  <np_classifier_class>  (1933) 
Neolignans

>  <np_classifier_is_glycoside>  (1933) 
False

>  <organisms>  (1933) 
Aniba|Aniba sp.

>  <collections>  (1933) 
Latin America dataset|NuBBEDB|WikiData Natural Products

>  <dois>  (1933) 
10.1016/S0031-9422(82)85050-4

>  <synonyms>  (1933) 
nan

>  <cas>  (1933) 
nan

$$$$

     RDKit          2D

 19 20  0  0  0  0  0  0  0  0999 V2000
    6.0069    0.4651    0.0000 C   0  0  0  0  0  0  0  0  0  0  0  0
    4.5070    0.4856    0.0000 C   0  0  0  0  0  0  0  0  0  0  0  0
    3.7748    1.7947    0.0000 O   0  0  0  0  0  0  0  0  0  0  0  0
    3.7394   -0.8031    0.0000 O   0  0  0  0  0  0  0  0  0  0  0  0
    2.2395   -0.7827    0.0000 C   0  0  0  0  0  0  0  0  0  0  0  0
    2.2600    0.7172    0.0000 C   0  0  0  0  0  0  0  0  0  0  0  0
    2.2191   -2.2825    0.0000 C   0  0  0  0  0  0  0  0  0  0  0  0
    0.7397   -0.7622    0.0000 C   0  0  0  0  0  0  0  0  0  0  0  0
   -0.0280   -2.0509    0.0000 C   0  0  0  0  0  0  0  0  0  0  0  0
   -1.5278   -2.0305    0.0000 C   0  0  0  0  0  0  0  0  0  0  0  0
   -2.2600   -0.7213    0.0000 C   0  0  0  0  0  0  0  0  0  0  0  0
   -3.7599   -0.7009    0.0000 C   0  0  0  0  0  0  0  0  0  0  0  0
   -4.5275   -1.9896    0.0000 C   0  0  0  0  0  0  0  0  0  0  0  0
   -4.4921    0.6082    0.0000 C   0  0  0  0  0  0  0  0  0  0  0  0
   -3.7245    1.8969    0.0000 C   0  0  0  0  0  0  0  0  0  0  0  0
   -2.2246    1.8765    0.0000 C   0  0  0  0  0  0  0  0  0  0  0  0
   -1.4570    3.1652    0.0000 C   0  0  0  0  0  0  0  0  0  0  0  0
   -1.4924    0.5674    0.0000 C   0  0  0  0  0  0  0  0  0  0  0  0
    0.0075    0.5469    0.0000 C   0  0  0  0  0  0  0  0  0  0  0  0
  1  2  1  0
  2  3  2  0
  2  4  1  0
  4  5  1  0
  5  6  1  0
  5  7  1  0
  8  5  1  6
  8  9  1  0
  9 10  1  0
 10 11  1  0
 11 12  2  0
 12 13  1  0
 12 14  1  0
 14 15  2  0
 15 16  1  0
 16 17  1  0
 16 18  2  0
 18 19  1  0
 19  8  1  0
 18 11  1  0
M  END
>  <identifier>  (1934) 
CNP0327942.1

>  <canonical_smiles>  (1934) 
CC(=O)OC(C)(C)[C@@H]1CCC2=C(C)C=CC(C)=C2C1

>  <standard_inchi>  (1934) 
InChI=1S/C17H24O2/c1-11-6-7-12(2)16-10-14(8-9-15(11)16)17(4,5)19-13(3)18/h6-7,14H,8-10H2,1-5H3/t14-/m1/s1

>  <standard_inchi_key>  (1934) 
JBIUFFGIDNZYFQ-CQSZACIVSA-N

>  <name>  (1934) 
2-[(2R)-5,8-dimethyl-1,2,3,4-tetrahydronaphthalen-2-yl]propan-2-yl acetate

>  <iupac_name>  (1934) 
[1-[(2~{R})-5,8-dimethyltetralin-2-yl]-1-methyl-ethyl] acetate

>  <annotation_level>  (1934) 
5

>  <total_atom_count>  (1934) 
43

>  <heavy_atom_count>  (1934) 
19

>  <molecular_weight>  (1934) 
260.38

>  <exact_molecular_weight>  (1934) 
260.17763

>  <molecular_formula>  (1934) 
C17H24O2

>  <alogp>  (1934) 
3.75

>  <topological_polar_surface_area>  (1934) 
26.30

>  <rotatable_bond_count>  (1934) 
2

>  <hydrogen_bond_acceptors>  (1934) 
2

>  <hydrogen_bond_donors>  (1934) 
0

>  <hydrogen_bond_acceptors_lipinski>  (1934) 
2

>  <hydrogen_bond_donors_lipinski>  (1934) 
0

>  <lipinski_rule_of_five_violations>  (1934) 
0

>  <aromatic_rings_count>  (1934) 
1

>  <qed_drug_likeliness>  (1934) 
0.76

>  <formal_charge>  (1934) 
0

>  <fractioncsp3>  (1934) 
0.59

>  <number_of_minimal_rings>  (1934) 
2

>  <van_der_walls_volume>  (1934) 
nan

>  <contains_sugar>  (1934) 
False

>  <contains_ring_sugars>  (1934) 
False

>  <contains_linear_sugars>  (1934) 
False

>  <murcko_framework>  (1934) 
c1ccc2c(c1)CCCC2

>  <np_likeness>  (1934) 
0.75

>  <chemical_class>  (1934) 
Tetralins

>  <chemical_sub_class>  (1934) 
Tetralins

>  <chemical_super_class>  (1934) 
Benzenoids

>  <direct_parent_classification>  (1934) 
Tetralins

>  <np_classifier_pathway>  (1934) 
Terpenoids

>  <np_classifier_superclass>  (1934) 
Sesquiterpenoids

>  <np_classifier_class>  (1934) 
nan

>  <np_classifier_is_glycoside>  (1934) 
False

>  <organisms>  (1934) 
Emmotum nitens|Nicotiana rustica|Nicotiana undulata

>  <collections>  (1934) 
Latin America dataset|NuBBEDB|WikiData Natural Products

>  <dois>  (1934) 
10.1016/0031-9422(76)85091-1|10.1016/0031-9422(83)80220-9|10.1016/0031-9422(88)83099-1

>  <synonyms>  (1934) 
SCHEMBL11126467|occidol acetate

>  <cas>  (1934) 
nan

$$$$

     RDKit          2D

 23 25  0  0  0  0  0  0  0  0999 V2000
   -4.5823    3.8221    0.0000 C   0  0  0  0  0  0  0  0  0  0  0  0
   -3.3368    2.9861    0.0000 O   0  0  0  0  0  0  0  0  0  0  0  0
   -3.4381    1.4896    0.0000 C   0  0  0  0  0  0  0  0  0  0  0  0
   -4.7848    0.8289    0.0000 C   0  0  0  0  0  0  0  0  0  0  0  0
   -4.8860   -0.6676    0.0000 C   0  0  0  0  0  0  0  0  0  0  0  0
   -3.6405   -1.5036    0.0000 C   0  0  0  0  0  0  0  0  0  0  0  0
   -2.2938   -0.8430    0.0000 C   0  0  0  0  0  0  0  0  0  0  0  0
   -2.1926    0.6536    0.0000 C   0  0  0  0  0  0  0  0  0  0  0  0
   -0.8459    1.3142    0.0000 C   0  0  0  0  0  0  0  0  0  0  0  0
    0.3996    0.4783    0.0000 C   0  0  0  0  0  0  0  0  0  0  0  0
    1.7462    1.1389    0.0000 C   0  0  0  0  0  0  0  0  0  0  0  0
    2.9917    0.3029    0.0000 C   0  0  0  0  0  0  0  0  0  0  0  0
    2.8905   -1.1937    0.0000 C   0  0  0  0  0  0  0  0  0  0  0  0
    4.1359   -2.0296    0.0000 C   0  0  0  0  0  0  0  0  0  0  0  0
    5.4826   -1.3690    0.0000 C   0  0  0  0  0  0  0  0  0  0  0  0
    6.7281   -2.2050    0.0000 O   0  0  0  0  0  0  0  0  0  0  0  0
    5.5839    0.1276    0.0000 C   0  0  0  0  0  0  0  0  0  0  0  0
    6.9306    0.7882    0.0000 C   0  0  0  0  0  0  0  0  0  0  0  0
    4.3384    0.9635    0.0000 C   0  0  0  0  0  0  0  0  0  0  0  0
    4.4396    2.4601    0.0000 O   0  0  0  0  0  0  0  0  0  0  0  0
   -4.0507   -2.9464    0.0000 O   0  0  0  0  0  0  0  0  0  0  0  0
   -5.5497   -3.0022    0.0000 C   0  0  0  0  0  0  0  0  0  0  0  0
   -6.0659   -1.5938    0.0000 O   0  0  0  0  0  0  0  0  0  0  0  0
  1  2  1  0
  2  3  1  0
  3  4  2  0
  4  5  1  0
  5  6  2  0
  6  7  1  0
  7  8  2  0
  8  9  1  0
  9 10  1  0
 10 11  1  0
 11 12  1  0
 12 13  2  0
 13 14  1  0
 14 15  2  0
 15 16  1  0
 15 17  1  0
 17 18  1  0
 17 19  2  0
 19 20  1  0
  6 21  1  0
 21 22  1  0
 22 23  1  0
  8  3  1  0
 19 12  1  0
 23  5  1  0
M  END
>  <identifier>  (1935) 
CNP0196323.0

>  <canonical_smiles>  (1935) 
COC1=CC2=C(C=C1CCCC1=CC=C(O)C(C)=C1O)OCO2

>  <standard_inchi>  (1935) 
InChI=1S/C18H20O5/c1-11-14(19)7-6-12(18(11)20)4-3-5-13-8-16-17(23-10-22-16)9-15(13)21-2/h6-9,19-20H,3-5,10H2,1-2H3

>  <standard_inchi_key>  (1935) 
ZHXRQKSQLJACJY-UHFFFAOYSA-N

>  <name>  (1935) 
nan

>  <iupac_name>  (1935) 
4-[3-(6-methoxy-1,3-benzodioxol-5-yl)propyl]-2-methyl-benzene-1,3-diol

>  <annotation_level>  (1935) 
4

>  <total_atom_count>  (1935) 
43

>  <heavy_atom_count>  (1935) 
23

>  <molecular_weight>  (1935) 
316.35

>  <exact_molecular_weight>  (1935) 
316.13107

>  <molecular_formula>  (1935) 
C18H20O5

>  <alogp>  (1935) 
3.32

>  <topological_polar_surface_area>  (1935) 
68.15

>  <rotatable_bond_count>  (1935) 
5

>  <hydrogen_bond_acceptors>  (1935) 
5

>  <hydrogen_bond_donors>  (1935) 
2

>  <hydrogen_bond_acceptors_lipinski>  (1935) 
5

>  <hydrogen_bond_donors_lipinski>  (1935) 
2

>  <lipinski_rule_of_five_violations>  (1935) 
0

>  <aromatic_rings_count>  (1935) 
2

>  <qed_drug_likeliness>  (1935) 
0.89

>  <formal_charge>  (1935) 
0

>  <fractioncsp3>  (1935) 
0.33

>  <number_of_minimal_rings>  (1935) 
3

>  <van_der_walls_volume>  (1935) 
nan

>  <contains_sugar>  (1935) 
False

>  <contains_ring_sugars>  (1935) 
False

>  <contains_linear_sugars>  (1935) 
False

>  <murcko_framework>  (1935) 
O1c2ccc(cc2OC1)CCCc3ccccc3

>  <np_likeness>  (1935) 
0.79

>  <chemical_class>  (1935) 
Benzodioxoles

>  <chemical_sub_class>  (1935) 
Benzodioxoles

>  <chemical_super_class>  (1935) 
Organoheterocyclic compounds

>  <direct_parent_classification>  (1935) 
Benzodioxoles

>  <np_classifier_pathway>  (1935) 
Polyketides

>  <np_classifier_superclass>  (1935) 
Aromatic polyketides

>  <np_classifier_class>  (1935) 
Catechols with side chains

>  <np_classifier_is_glycoside>  (1935) 
False

>  <organisms>  (1935) 
Iryanthera hostmannii|Iryanthera polyneura|Iryanthera ulei

>  <collections>  (1935) 
Latin America dataset|NuBBEDB|Super Natural II|UNPD (Universal Natural Products Database)|WikiData Natural Products|ZINC NP

>  <dois>  (1935) 
10.1016/0031-9422(90)85388-V|10.1016/S0031-9422(00)91467-5

>  <synonyms>  (1935) 
1-(2'4'-dihydroxy-3'-methylphenyl)-3-(2''-methoxy-4''5''-methylenedioxyphenyl)-propane

>  <cas>  (1935) 
nan

$$$$

     RDKit          2D

 31 35  0  0  0  0  0  0  0  0999 V2000
   -7.7597    1.3405    0.0000 C   0  0  0  0  0  0  0  0  0  0  0  0
   -6.2785    1.5771    0.0000 C   0  0  0  0  0  0  0  0  0  0  0  0
   -5.3330    0.4126    0.0000 C   0  0  0  0  0  0  0  0  0  0  0  0
   -5.7194   -1.0368    0.0000 C   0  0  0  0  0  0  0  0  0  0  0  0
   -7.1190   -1.5762    0.0000 O   0  0  0  0  0  0  0  0  0  0  0  0
   -4.4603   -1.8521    0.0000 C   0  0  0  0  0  0  0  0  0  0  0  0
   -3.2958   -0.9066    0.0000 C   0  0  0  0  0  0  0  0  0  0  0  0
   -1.8140   -1.1393    0.0000 C   0  0  0  0  0  0  0  0  0  0  0  0
   -1.2746   -2.5390    0.0000 C   0  0  0  0  0  0  0  0  0  0  0  0
    0.2073   -2.7717    0.0000 C   0  0  0  0  0  0  0  0  0  0  0  0
    1.1497   -1.6047    0.0000 C   0  0  0  0  0  0  0  0  0  0  0  0
    2.6484   -1.6681    0.0000 C   0  0  0  0  0  0  0  0  0  0  0  0
    3.4526   -0.4019    0.0000 C   0  0  0  0  0  0  0  0  0  0  0  0
    4.9512   -0.4652    0.0000 O   0  0  0  0  0  0  0  0  0  0  0  0
    5.6457   -1.7948    0.0000 C   0  0  0  0  0  0  0  0  0  0  0  0
    7.1444   -1.8581    0.0000 C   0  0  0  0  0  0  0  0  0  0  0  0
    4.8415   -3.0610    0.0000 O   0  0  0  0  0  0  0  0  0  0  0  0
    2.7581    0.9277    0.0000 C   0  0  0  0  0  0  0  0  0  0  0  0
    4.2372    1.1773    0.0000 O   0  0  0  0  0  0  0  0  0  0  0  0
    4.7605    2.5830    0.0000 C   0  0  0  0  0  0  0  0  0  0  0  0
    6.2396    2.8326    0.0000 C   0  0  0  0  0  0  0  0  0  0  0  0
    3.8048    3.7391    0.0000 O   0  0  0  0  0  0  0  0  0  0  0  0
    2.0907   -0.4157    0.0000 C   0  0  0  0  0  0  0  0  0  0  0  0
    0.6068   -0.1960    0.0000 C   0  0  0  0  0  0  0  0  0  0  0  0
    0.3572    1.2831    0.0000 C   0  0  0  0  0  0  0  0  0  0  0  0
    1.6868    1.9775    0.0000 O   0  0  0  0  0  0  0  0  0  0  0  0
   -0.8715    0.0276    0.0000 C   0  0  0  0  0  0  0  0  0  0  0  0
   -1.4109    1.4273    0.0000 C   0  0  0  0  0  0  0  0  0  0  0  0
   -2.8927    1.6600    0.0000 C   0  0  0  0  0  0  0  0  0  0  0  0
   -3.8352    0.4931    0.0000 C   0  0  0  0  0  0  0  0  0  0  0  0
   -4.5179    1.8287    0.0000 C   0  0  0  0  0  0  0  0  0  0  0  0
  1  2  1  0
  3  2  1  6
  3  4  1  0
  4  5  2  0
  4  6  1  0
  6  7  1  0
  7  8  1  0
  8  9  1  0
  9 10  1  0
 10 11  1  0
 11 12  1  0
 12 13  1  0
 13 14  1  6
 14 15  1  0
 15 16  1  0
 15 17  2  0
 13 18  1  0
 18 19  1  6
 19 20  1  0
 20 21  1  0
 20 22  2  0
 18 23  1  0
 23 24  1  0
 24 25  1  6
 25 26  1  0
 24 27  1  0
 27 28  1  0
 28 29  1  0
 29 30  1  0
 30 31  1  6
 30  3  1  0
 30  7  1  0
 27  8  1  0
 24 11  1  0
 26 18  1  0
M  END
>  <identifier>  (1936) 
CNP0410153.2

>  <canonical_smiles>  (1936) 
CC[C@H]1C(=O)CC2C3CCC4C[C@@H](OC(C)=O)[C@@]5(OC(C)=O)C[C@]4(CO5)C3CC[C@@]21C

>  <standard_inchi>  (1936) 
InChI=1S/C25H36O6/c1-5-18-21(28)11-20-17-7-6-16-10-22(30-14(2)26)25(31-15(3)27)12-24(16,13-29-25)19(17)8-9-23(18,20)4/h16-20,22H,5-13H2,1-4H3/t16?,17?,18-,19?,20?,22+,23+,24+,25-/m0/s1

>  <standard_inchi_key>  (1936) 
ODKKQQNHCONUGL-VKGIYJMWSA-N

>  <name>  (1936) 
nan

>  <iupac_name>  (1936) 
[(1~{R},5~{S},6~{R},15~{R},16~{S})-16-acetoxy-6-ethyl-5-methyl-7-oxo-17-oxapentacyclo[14.2.1.0^{1,13}.0^{2,10}.0^{5,9}]nonadecan-15-yl] acetate

>  <annotation_level>  (1936) 
4

>  <total_atom_count>  (1936) 
67

>  <heavy_atom_count>  (1936) 
31

>  <molecular_weight>  (1936) 
432.56

>  <exact_molecular_weight>  (1936) 
432.25119

>  <molecular_formula>  (1936) 
C25H36O6

>  <alogp>  (1936) 
4.05

>  <topological_polar_surface_area>  (1936) 
78.90

>  <rotatable_bond_count>  (1936) 
3

>  <hydrogen_bond_acceptors>  (1936) 
6

>  <hydrogen_bond_donors>  (1936) 
0

>  <hydrogen_bond_acceptors_lipinski>  (1936) 
6

>  <hydrogen_bond_donors_lipinski>  (1936) 
0

>  <lipinski_rule_of_five_violations>  (1936) 
0

>  <aromatic_rings_count>  (1936) 
0

>  <qed_drug_likeliness>  (1936) 
0.63

>  <formal_charge>  (1936) 
0

>  <fractioncsp3>  (1936) 
0.88

>  <number_of_minimal_rings>  (1936) 
5

>  <van_der_walls_volume>  (1936) 
nan

>  <contains_sugar>  (1936) 
False

>  <contains_ring_sugars>  (1936) 
False

>  <contains_linear_sugars>  (1936) 
False

>  <murcko_framework>  (1936) 
O1CC23CC1CCC3CCC4C5CCCC5CCC42

>  <np_likeness>  (1936) 
2.58

>  <chemical_class>  (1936) 
Steroids and steroid derivatives

>  <chemical_sub_class>  (1936) 
Steroid esters

>  <chemical_super_class>  (1936) 
Lipids and lipid-like molecules

>  <direct_parent_classification>  (1936) 
Steroid esters

>  <np_classifier_pathway>  (1936) 
Terpenoids

>  <np_classifier_superclass>  (1936) 
Steroids

>  <np_classifier_class>  (1936) 
Pregnane steroids

>  <np_classifier_is_glycoside>  (1936) 
True

>  <organisms>  (1936) 
Trichilia claussenii

>  <collections>  (1936) 
Latin America dataset|NuBBEDB

>  <dois>  (1936) 
10.1016/S0031-9422(97)00167-2

>  <synonyms>  (1936) 
2\u221a\u00e9\u00ac\u00b13\u221a\u00e9\u00ac\u2264-Diacetoxypregnan-16-one 2\u221a\u00e9\u00ac\u226419-hemiketal

>  <cas>  (1936) 
nan

$$$$

     RDKit          2D

 32 36  0  0  0  0  0  0  0  0999 V2000
   -7.7443    1.0203    0.0000 C   0  0  0  0  0  0  0  0  0  0  0  0
   -6.3304    0.5195    0.0000 C   0  0  0  0  0  0  0  0  0  0  0  0
   -5.1897    1.4936    0.0000 O   0  0  0  0  0  0  0  0  0  0  0  0
   -3.7758    0.9928    0.0000 C   0  0  0  0  0  0  0  0  0  0  0  0
   -2.6351    1.9669    0.0000 O   0  0  0  0  0  0  0  0  0  0  0  0
   -1.2212    1.4661    0.0000 C   0  0  0  0  0  0  0  0  0  0  0  0
   -0.9479   -0.0088    0.0000 C   0  0  0  0  0  0  0  0  0  0  0  0
    0.4660   -0.5096    0.0000 C   0  0  0  0  0  0  0  0  0  0  0  0
    1.6067    0.4645    0.0000 C   0  0  0  0  0  0  0  0  0  0  0  0
    1.3334    1.9394    0.0000 C   0  0  0  0  0  0  0  0  0  0  0  0
   -0.0805    2.4402    0.0000 C   0  0  0  0  0  0  0  0  0  0  0  0
   -0.3538    3.9151    0.0000 O   0  0  0  0  0  0  0  0  0  0  0  0
    2.4741    2.9135    0.0000 O   0  0  0  0  0  0  0  0  0  0  0  0
    3.8880    2.4127    0.0000 C   0  0  0  0  0  0  0  0  0  0  0  0
    5.0287    3.3868    0.0000 O   0  0  0  0  0  0  0  0  0  0  0  0
    4.1613    0.9378    0.0000 C   0  0  0  0  0  0  0  0  0  0  0  0
    5.5752    0.4370    0.0000 C   0  0  0  0  0  0  0  0  0  0  0  0
    5.8484   -1.0379    0.0000 C   0  0  0  0  0  0  0  0  0  0  0  0
    7.2624   -1.5387    0.0000 O   0  0  0  0  0  0  0  0  0  0  0  0
    4.7078   -2.0120    0.0000 C   0  0  0  0  0  0  0  0  0  0  0  0
    4.9810   -3.4869    0.0000 O   0  0  0  0  0  0  0  0  0  0  0  0
    3.2938   -1.5112    0.0000 C   0  0  0  0  0  0  0  0  0  0  0  0
    3.0206   -0.0363    0.0000 C   0  0  0  0  0  0  0  0  0  0  0  0
    2.1532   -2.4853    0.0000 O   0  0  0  0  0  0  0  0  0  0  0  0
    0.7392   -1.9845    0.0000 C   0  0  0  0  0  0  0  0  0  0  0  0
   -0.4014   -2.9586    0.0000 O   0  0  0  0  0  0  0  0  0  0  0  0
   -3.5025   -0.4821    0.0000 C   0  0  0  0  0  0  0  0  0  0  0  0
   -2.0886   -0.9829    0.0000 O   0  0  0  0  0  0  0  0  0  0  0  0
   -4.6432   -1.4562    0.0000 C   0  0  0  0  0  0  0  0  0  0  0  0
   -4.3700   -2.9311    0.0000 O   0  0  0  0  0  0  0  0  0  0  0  0
   -6.0572   -0.9554    0.0000 C   0  0  0  0  0  0  0  0  0  0  0  0
   -7.1978   -1.9295    0.0000 O   0  0  0  0  0  0  0  0  0  0  0  0
  2  1  1  6
  2  3  1  0
  3  4  1  0
  4  5  1  1
  5  6  1  0
  6  7  2  0
  7  8  1  0
  8  9  2  0
  9 10  1  0
 10 11  2  0
 11 12  1  0
 10 13  1  0
 13 14  1  0
 14 15  2  0
 14 16  1  0
 16 17  2  0
 17 18  1  0
 18 19  1  0
 18 20  2  0
 20 21  1  0
 20 22  1  0
 22 23  2  0
 22 24  1  0
 24 25  1  0
 25 26  2  0
  4 27  1  0
 27 28  1  6
 27 29  1  0
 29 30  1  6
 29 31  1  0
 31 32  1  1
 31  2  1  0
 11  6  1  0
 23 16  1  0
 25  8  1  0
 23  9  1  0
M  END
>  <identifier>  (1937) 
CNP0225141.1

>  <canonical_smiles>  (1937) 
C[C@@H]1O[C@@H](OC2=CC3=C4C(=C2O)OC(=O)C2=CC(O)=C(O)C(=C24)OC3=O)[C@H](O)[C@H](O)[C@H]1O

>  <standard_inchi>  (1937) 
InChI=1S/C20H16O12/c1-4-11(22)14(25)15(26)20(29-4)30-8-3-6-10-9-5(18(27)32-17(10)13(8)24)2-7(21)12(23)16(9)31-19(6)28/h2-4,11,14-15,20-26H,1H3/t4-,11-,14+,15+,20-/m0/s1

>  <standard_inchi_key>  (1937) 
NLOYJHDXNPMFKW-RGYXEVLJSA-N

>  <name>  (1937) 
ESCHWEILENOL C

>  <iupac_name>  (1937) 
6,7,14-trihydroxy-13-[(2~{S},3~{R},4~{R},5~{R},6~{S})-3,4,5-trihydroxy-6-methyl-tetrahydropyran-2-yl]oxy-2,9-dioxatetracyclo[6.6.2.0^{4,16}.0^{11,15}]hexadeca-1(14),4,6,8(16),11(15),12-hexaene-3,10-dione

>  <annotation_level>  (1937) 
5

>  <total_atom_count>  (1937) 
48

>  <heavy_atom_count>  (1937) 
32

>  <molecular_weight>  (1937) 
448.34

>  <exact_molecular_weight>  (1937) 
448.06418

>  <molecular_formula>  (1937) 
C20H16O12

>  <alogp>  (1937) 
-0.19

>  <topological_polar_surface_area>  (1937) 
200.26

>  <rotatable_bond_count>  (1937) 
2

>  <hydrogen_bond_acceptors>  (1937) 
12

>  <hydrogen_bond_donors>  (1937) 
6

>  <hydrogen_bond_acceptors_lipinski>  (1937) 
12

>  <hydrogen_bond_donors_lipinski>  (1937) 
6

>  <lipinski_rule_of_five_violations>  (1937) 
2

>  <aromatic_rings_count>  (1937) 
4

>  <qed_drug_likeliness>  (1937) 
0.13

>  <formal_charge>  (1937) 
0

>  <fractioncsp3>  (1937) 
0.30

>  <number_of_minimal_rings>  (1937) 
5

>  <van_der_walls_volume>  (1937) 
342.21

>  <contains_sugar>  (1937) 
True

>  <contains_ring_sugars>  (1937) 
True

>  <contains_linear_sugars>  (1937) 
False

>  <murcko_framework>  (1937) 
O1c2cccc3c2-c4c(OC3)cc(OC5OCCCC5)cc4C1

>  <np_likeness>  (1937) 
1.99

>  <chemical_class>  (1937) 
Tannins

>  <chemical_sub_class>  (1937) 
Hydrolyzable tannins

>  <chemical_super_class>  (1937) 
Phenylpropanoids and polyketides

>  <direct_parent_classification>  (1937) 
Hydrolyzable tannins

>  <np_classifier_pathway>  (1937) 
Shikimates and Phenylpropanoids

>  <np_classifier_superclass>  (1937) 
Coumarins

>  <np_classifier_class>  (1937) 
Simple coumarins

>  <np_classifier_is_glycoside>  (1937) 
True

>  <organisms>  (1937) 
Aglaia elaeagnoidea|Aplidium orthium|Apterostigma dentigerum|Aristolochia elegans|Aspergillus candidus|Astragalus gummifer|Beauveria felina|Brenneria rubrifaciens|Cardiospermum halicacabum|Centaurea nigrescens|Cirsium japonicum|Cladiella krempfi|Combretum griffithii var. yunnanense|Combretum wallichii var. ternatum|Combretum yunnanensis|Conyza canadensis|Coreopsis fasciculata|Crepis foetida|Crinum defixum|Cuphea carthagenensis|Dioscoreophyllum cumminsii|Dorstenia lindeniana|Eschweilera coriacea|Eskemukerjea megacarpum|Euphorbia segetalis|Garcinia hombroniana|Modiolus demissus|Myrciaria dubia|Nymphaea alba|Oscillatoria princeps|Ozoroa insignis|Parastrephia lepidophylla|Penstemon secundiflorus|Phedimus kamtschaticus|Phlogacanthus thyrsiflorus|Phormia regina|Phytolacca acinosa|Piper arboreum|Pouzolzia occidentalis|Punica granatum|Ruta microcarpa|Selinum carvifolium|Sidastrum acuminatum|Siphoneugena densiflora|Syncolostemon parviflorus|Terminalia brownii|Thuja plicata|Triglochin maritima|Urtica triangularis|Zanthoxylum monophyllum|buchenavia parviflora|pomegranate

>  <collections>  (1937) 
ANPDB|Australian natural products|CMAUP (cCollective molecular activities of useful plants)|KNApSaCK|Latin America dataset|NANPDB (Natural Products from Northern African Sources)|NPASS|NuBBEDB|Phyto4Health|WikiData Natural Products|ZINC NP

>  <dois>  (1937) 
10.1002/ps.1278|10.1016/J.MRGENTOX.2010.08.001|10.1016/J.PHYMED.2003.12.002|10.1016/j.phytochem.2017.02.006|10.1021/NP030041J|10.1021/NP980046U|10.1021/np020289t|10.1021/np030041j|10.1021/np980046u|10.1186/S12906-017-1561-2|10.1515/ZNC-2008-5-611|10.1515/znc-2008-5-611|10.1590/S0103-50532006000200010|10.3390/MOLECULES171214821|10.3390/MOLECULES22101606

>  <synonyms>  (1937) 
211371-02-7|4-(alpha-Rhamnopyranosyl)ellagic acid|6,7,14-trihydroxy-13-[(2S,3R,4R,5R,6S)-3,4,5-trihydroxy-6-methyloxan-2-yl]oxy-2,9-dioxatetracyclo[6.6.2.04,16.011,15]hexadeca-1(15),4,6,8(16),11,13-hexaene-3,10-dione|AKOS040735356|BDBM50478560|CHEBI:167701|CHEMBL516559|CS-0898876|Ellagic acid deoxyhexoside|Eschweilenol C|FS-8438|HY-N12352|ellagic acid 4-O-\u221a\u00e9\u00ac\u00b1-L-rhamnopyranoside, eschweilenol C

>  <cas>  (1937) 
211371-02-7

$$$$

     RDKit          2D

 25 27  0  0  0  0  0  0  0  0999 V2000
   -7.2209    1.2914    0.0000 C   0  0  0  0  0  0  0  0  0  0  0  0
   -6.3399    0.0774    0.0000 C   0  0  0  0  0  0  0  0  0  0  0  0
   -6.9508   -1.2926    0.0000 C   0  0  0  0  0  0  0  0  0  0  0  0
   -4.8480    0.2333    0.0000 C   0  0  0  0  0  0  0  0  0  0  0  0
   -3.9671   -0.9807    0.0000 C   0  0  0  0  0  0  0  0  0  0  0  0
   -2.4752   -0.8248    0.0000 C   0  0  0  0  0  0  0  0  0  0  0  0
   -1.5942   -2.0388    0.0000 C   0  0  0  0  0  0  0  0  0  0  0  0
   -2.2051   -3.4088    0.0000 O   0  0  0  0  0  0  0  0  0  0  0  0
   -0.1023   -1.8829    0.0000 C   0  0  0  0  0  0  0  0  0  0  0  0
    0.5086   -0.5129    0.0000 C   0  0  0  0  0  0  0  0  0  0  0  0
    2.0004   -0.3570    0.0000 O   0  0  0  0  0  0  0  0  0  0  0  0
    2.6113    1.0130    0.0000 C   0  0  0  0  0  0  0  0  0  0  0  0
    3.6539    2.0914    0.0000 C   0  0  0  0  0  0  0  0  0  0  0  0
    3.8544    0.1734    0.0000 C   0  0  0  0  0  0  0  0  0  0  0  0
    3.7489   -1.3228    0.0000 C   0  0  0  0  0  0  0  0  0  0  0  0
    4.9920   -2.1623    0.0000 C   0  0  0  0  0  0  0  0  0  0  0  0
    6.3405   -1.5056    0.0000 C   0  0  0  0  0  0  0  0  0  0  0  0
    6.4460   -0.0093    0.0000 C   0  0  0  0  0  0  0  0  0  0  0  0
    5.2030    0.8302    0.0000 C   0  0  0  0  0  0  0  0  0  0  0  0
    1.7304    2.2270    0.0000 C   0  0  0  0  0  0  0  0  0  0  0  0
    0.2385    2.0711    0.0000 C   0  0  0  0  0  0  0  0  0  0  0  0
   -0.6425    3.2851    0.0000 O   0  0  0  0  0  0  0  0  0  0  0  0
   -0.3724    0.7011    0.0000 C   0  0  0  0  0  0  0  0  0  0  0  0
   -1.8643    0.5452    0.0000 C   0  0  0  0  0  0  0  0  0  0  0  0
   -2.7453    1.7592    0.0000 O   0  0  0  0  0  0  0  0  0  0  0  0
  1  2  1  0
  2  3  1  0
  2  4  2  0
  4  5  1  0
  5  6  1  0
  6  7  2  0
  7  8  1  0
  7  9  1  0
  9 10  2  0
 10 11  1  0
 11 12  1  0
 12 13  1  6
 12 14  1  0
 14 15  2  0
 15 16  1  0
 16 17  2  0
 17 18  1  0
 18 19  2  0
 12 20  1  0
 20 21  1  0
 21 22  2  0
 21 23  1  0
 23 24  2  0
 24 25  1  0
 24  6  1  0
 23 10  1  0
 19 14  1  0
M  END
>  <identifier>  (1938) 
CNP0080612.1

>  <canonical_smiles>  (1938) 
CC(C)=CCC1=C(O)C=C2O[C@](C)(C3=CC=CC=C3)CC(=O)C2=C1O

>  <standard_inchi>  (1938) 
InChI=1S/C21H22O4/c1-13(2)9-10-15-16(22)11-18-19(20(15)24)17(23)12-21(3,25-18)14-7-5-4-6-8-14/h4-9,11,22,24H,10,12H2,1-3H3/t21-/m0/s1

>  <standard_inchi_key>  (1938) 
VVRRONQTBZDWOB-NRFANRHFSA-N

>  <name>  (1938) 
nan

>  <iupac_name>  (1938) 
(2~{S})-5,7-dihydroxy-2-methyl-6-(3-methylbut-2-enyl)-2-phenyl-chroman-4-one

>  <annotation_level>  (1938) 
4

>  <total_atom_count>  (1938) 
47

>  <heavy_atom_count>  (1938) 
25

>  <molecular_weight>  (1938) 
338.4

>  <exact_molecular_weight>  (1938) 
338.15181

>  <molecular_formula>  (1938) 
C21H22O4

>  <alogp>  (1938) 
4.49

>  <topological_polar_surface_area>  (1938) 
66.76

>  <rotatable_bond_count>  (1938) 
3

>  <hydrogen_bond_acceptors>  (1938) 
4

>  <hydrogen_bond_donors>  (1938) 
2

>  <hydrogen_bond_acceptors_lipinski>  (1938) 
4

>  <hydrogen_bond_donors_lipinski>  (1938) 
2

>  <lipinski_rule_of_five_violations>  (1938) 
0

>  <aromatic_rings_count>  (1938) 
2

>  <qed_drug_likeliness>  (1938) 
0.81

>  <formal_charge>  (1938) 
0

>  <fractioncsp3>  (1938) 
0.29

>  <number_of_minimal_rings>  (1938) 
3

>  <van_der_walls_volume>  (1938) 
nan

>  <contains_sugar>  (1938) 
False

>  <contains_ring_sugars>  (1938) 
False

>  <contains_linear_sugars>  (1938) 
False

>  <murcko_framework>  (1938) 
O1c2ccccc2CCC1c3ccccc3

>  <np_likeness>  (1938) 
1.86

>  <chemical_class>  (1938) 
Flavonoids

>  <chemical_sub_class>  (1938) 
Hydroxyflavonoids

>  <chemical_super_class>  (1938) 
Phenylpropanoids and polyketides

>  <direct_parent_classification>  (1938) 
5-hydroxyflavonoids

>  <np_classifier_pathway>  (1938) 
Shikimates and Phenylpropanoids

>  <np_classifier_superclass>  (1938) 
Flavonoids

>  <np_classifier_class>  (1938) 
Flavanones

>  <np_classifier_is_glycoside>  (1938) 
False

>  <organisms>  (1938) 
Deguelia rariflora|Derris rariflora

>  <collections>  (1938) 
Latin America dataset|NuBBEDB|WikiData Natural Products|ZINC NP

>  <dois>  (1938) 
10.1016/0031-9422(75)85051-5

>  <synonyms>  (1938) 
(2S)-57-dihydroxy-6-prenylflavanone

>  <cas>  (1938) 
nan

$$$$

     RDKit          2D

 21 23  0  0  0  0  0  0  0  0999 V2000
   -3.9459    3.0282    0.0000 C   0  0  0  0  0  0  0  0  0  0  0  0
   -4.0489    1.5317    0.0000 O   0  0  0  0  0  0  0  0  0  0  0  0
   -2.8044    0.6943    0.0000 C   0  0  0  0  0  0  0  0  0  0  0  0
   -1.4570    1.3533    0.0000 C   0  0  0  0  0  0  0  0  0  0  0  0
   -0.2125    0.5158    0.0000 C   0  0  0  0  0  0  0  0  0  0  0  0
   -0.3155   -0.9806    0.0000 C   0  0  0  0  0  0  0  0  0  0  0  0
    0.9289   -1.8181    0.0000 O   0  0  0  0  0  0  0  0  0  0  0  0
    2.2764   -1.1591    0.0000 C   0  0  0  0  0  0  0  0  0  0  0  0
    3.5208   -1.9966    0.0000 C   0  0  0  0  0  0  0  0  0  0  0  0
    4.8683   -1.3376    0.0000 C   0  0  0  0  0  0  0  0  0  0  0  0
    4.9714    0.1589    0.0000 C   0  0  0  0  0  0  0  0  0  0  0  0
    3.7269    0.9963    0.0000 C   0  0  0  0  0  0  0  0  0  0  0  0
    3.8300    2.4928    0.0000 O   0  0  0  0  0  0  0  0  0  0  0  0
    2.3794    0.3373    0.0000 C   0  0  0  0  0  0  0  0  0  0  0  0
    1.1350    1.1748    0.0000 C   0  0  0  0  0  0  0  0  0  0  0  0
    1.2380    2.6713    0.0000 O   0  0  0  0  0  0  0  0  0  0  0  0
   -1.6630   -1.6396    0.0000 C   0  0  0  0  0  0  0  0  0  0  0  0
   -1.7661   -3.1361    0.0000 O   0  0  0  0  0  0  0  0  0  0  0  0
   -2.9075   -0.8022    0.0000 C   0  0  0  0  0  0  0  0  0  0  0  0
   -4.2550   -1.4612    0.0000 O   0  0  0  0  0  0  0  0  0  0  0  0
   -5.4994   -0.6237    0.0000 C   0  0  0  0  0  0  0  0  0  0  0  0
  1  2  1  0
  2  3  1  0
  3  4  2  0
  4  5  1  0
  5  6  2  0
  6  7  1  0
  7  8  1  0
  8  9  2  0
  9 10  1  0
 10 11  2  0
 11 12  1  0
 12 13  1  0
 12 14  2  0
 14 15  1  0
 15 16  2  0
  6 17  1  0
 17 18  1  0
 17 19  2  0
 19 20  1  0
 20 21  1  0
 19  3  1  0
 15  5  1  0
 14  8  1  0
M  END
>  <identifier>  (1939) 
CNP0263902.0

>  <canonical_smiles>  (1939) 
COC1=CC2=C(OC3=CC=CC(O)=C3C2=O)C(O)=C1OC

>  <standard_inchi>  (1939) 
InChI=1S/C15H12O6/c1-19-10-6-7-12(17)11-8(16)4-3-5-9(11)21-14(7)13(18)15(10)20-2/h3-6,16,18H,1-2H3

>  <standard_inchi_key>  (1939) 
HJFHTGGYJGLTDE-UHFFFAOYSA-N

>  <name>  (1939) 
1,5-dihydroxy-6,7-dimethoxyxanthone

>  <iupac_name>  (1939) 
1,5-dihydroxy-6,7-dimethoxy-xanthen-9-one

>  <annotation_level>  (1939) 
5

>  <total_atom_count>  (1939) 
33

>  <heavy_atom_count>  (1939) 
21

>  <molecular_weight>  (1939) 
288.26

>  <exact_molecular_weight>  (1939) 
288.06339

>  <molecular_formula>  (1939) 
C15H12O6

>  <alogp>  (1939) 
2.37

>  <topological_polar_surface_area>  (1939) 
89.13

>  <rotatable_bond_count>  (1939) 
2

>  <hydrogen_bond_acceptors>  (1939) 
6

>  <hydrogen_bond_donors>  (1939) 
2

>  <hydrogen_bond_acceptors_lipinski>  (1939) 
6

>  <hydrogen_bond_donors_lipinski>  (1939) 
2

>  <lipinski_rule_of_five_violations>  (1939) 
0

>  <aromatic_rings_count>  (1939) 
3

>  <qed_drug_likeliness>  (1939) 
0.70

>  <formal_charge>  (1939) 
0

>  <fractioncsp3>  (1939) 
0.13

>  <number_of_minimal_rings>  (1939) 
3

>  <van_der_walls_volume>  (1939) 
237.22

>  <contains_sugar>  (1939) 
False

>  <contains_ring_sugars>  (1939) 
False

>  <contains_linear_sugars>  (1939) 
False

>  <murcko_framework>  (1939) 
O1c2ccccc2Cc3ccccc13

>  <np_likeness>  (1939) 
1.37

>  <chemical_class>  (1939) 
Benzopyrans

>  <chemical_sub_class>  (1939) 
1-benzopyrans

>  <chemical_super_class>  (1939) 
Organoheterocyclic compounds

>  <direct_parent_classification>  (1939) 
Xanthones

>  <np_classifier_pathway>  (1939) 
Shikimates and Phenylpropanoids

>  <np_classifier_superclass>  (1939) 
Xanthones

>  <np_classifier_class>  (1939) 
Plant xanthones

>  <np_classifier_is_glycoside>  (1939) 
False

>  <organisms>  (1939) 
Calophyllum caledonicum|Caraipa densiflora|Caraipa grandifolia|Caraipa psidifolia|Caraipa valioi|Dryopteris crenata|Durio zibethinus|Hypericum chinense|Hypericum japonicum|Ixora chinensis|Micromelum minutum|Tovomita brasiliensis|Tovomita fructipendula

>  <collections>  (1939) 
CMAUP (cCollective molecular activities of useful plants)|KNApSaCK|Latin America dataset|NPASS|NuBBEDB|Super Natural II|UNPD (Universal Natural Products Database)|WikiData Natural Products|ZINC NP

>  <dois>  (1939) 
10.1016/J.PHYTOCHEM.2006.05.043|10.1021/NP000215M|10.1590/1809-43921982124801

>  <synonyms>  (1939) 
1,5-dihydroxy-6,7-dimethoxyxanthen-9-one|15-Dihydroxy-67-dimethoxyxantone|38710-31-5|9H-Xanthen-9-one, 1,5-dihydroxy-6,7-dimethoxy-|AKOS040763026|DTXSID501256384

>  <cas>  (1939) 
38710-31-5

$$$$

     RDKit          2D

 13 12  0  0  0  0  0  0  0  0999 V2000
   -7.7942   -0.3462    0.0000 C   0  0  0  0  0  0  0  0  0  0  0  0
   -6.4952    0.4038    0.0000 C   0  0  0  0  0  0  0  0  0  0  0  0
   -5.1962   -0.3462    0.0000 C   0  0  0  0  0  0  0  0  0  0  0  0
   -3.8971    0.4038    0.0000 C   0  0  0  0  0  0  0  0  0  0  0  0
   -2.5981   -0.3462    0.0000 C   0  0  0  0  0  0  0  0  0  0  0  0
   -1.2990    0.4038    0.0000 C   0  0  0  0  0  0  0  0  0  0  0  0
    0.0000   -0.3462    0.0000 C   0  0  0  0  0  0  0  0  0  0  0  0
    1.2990    0.4038    0.0000 C   0  0  0  0  0  0  0  0  0  0  0  0
    2.5981   -0.3462    0.0000 C   0  0  0  0  0  0  0  0  0  0  0  0
    3.8971    0.4038    0.0000 C   0  0  0  0  0  0  0  0  0  0  0  0
    5.1962   -0.3462    0.0000 C   0  0  0  0  0  0  0  0  0  0  0  0
    6.4952    0.4038    0.0000 C   0  0  0  0  0  0  0  0  0  0  0  0
    7.7942   -0.3462    0.0000 C   0  0  0  0  0  0  0  0  0  0  0  0
  1  2  2  0
  2  3  1  0
  3  4  1  0
  4  5  1  0
  5  6  1  0
  6  7  1  0
  7  8  1  0
  8  9  1  0
  9 10  1  0
 10 11  1  0
 11 12  1  0
 12 13  1  0
M  END
>  <identifier>  (1940) 
CNP0324663.0

>  <canonical_smiles>  (1940) 
C=CCCCCCCCCCCC

>  <standard_inchi>  (1940) 
InChI=1S/C13H26/c1-3-5-7-9-11-13-12-10-8-6-4-2/h3H,1,4-13H2,2H3

>  <standard_inchi_key>  (1940) 
VQOXUMQBYILCKR-UHFFFAOYSA-N

>  <name>  (1940) 
1-TRIDECENE

>  <iupac_name>  (1940) 
tridec-1-ene

>  <annotation_level>  (1940) 
5

>  <total_atom_count>  (1940) 
39

>  <heavy_atom_count>  (1940) 
13

>  <molecular_weight>  (1940) 
182.35

>  <exact_molecular_weight>  (1940) 
182.20345

>  <molecular_formula>  (1940) 
C13H26

>  <alogp>  (1940) 
5.09

>  <topological_polar_surface_area>  (1940) 
0.00

>  <rotatable_bond_count>  (1940) 
10

>  <hydrogen_bond_acceptors>  (1940) 
0

>  <hydrogen_bond_donors>  (1940) 
0

>  <hydrogen_bond_acceptors_lipinski>  (1940) 
0

>  <hydrogen_bond_donors_lipinski>  (1940) 
0

>  <lipinski_rule_of_five_violations>  (1940) 
1

>  <aromatic_rings_count>  (1940) 
0

>  <qed_drug_likeliness>  (1940) 
0.33

>  <formal_charge>  (1940) 
0

>  <fractioncsp3>  (1940) 
0.85

>  <number_of_minimal_rings>  (1940) 
0

>  <van_der_walls_volume>  (1940) 
221.13

>  <contains_sugar>  (1940) 
False

>  <contains_ring_sugars>  (1940) 
False

>  <contains_linear_sugars>  (1940) 
False

>  <murcko_framework>  (1940) 
nan

>  <np_likeness>  (1940) 
0.78

>  <chemical_class>  (1940) 
Unsaturated hydrocarbons

>  <chemical_sub_class>  (1940) 
Olefins

>  <chemical_super_class>  (1940) 
Hydrocarbons

>  <direct_parent_classification>  (1940) 
Alkenes

>  <np_classifier_pathway>  (1940) 
Fatty acids

>  <np_classifier_superclass>  (1940) 
Fatty acyls

>  <np_classifier_class>  (1940) 
Hydrocarbons

>  <np_classifier_is_glycoside>  (1940) 
False

>  <organisms>  (1940) 
Angelica sinensis|Asarum heterotropoides|Asarum sieboldii|Asiasarum heterotropoides|Asiasarum sieboldii|Astilbe chinensis|Camellia saluenensis|Caulocystis cephalornithos|Elaeis guineensis|Eucheuma muricatum|Hoehnephytum imbricatum|Homo sapiens|Inula helenium|Ophrys sphegodes|Oryza sativa|Panax notoginseng|Pectis elongata|Rhaponticum uniflorum|Tussilago farfara

>  <collections>  (1940) 
Australian natural products|CMAUP (cCollective molecular activities of useful plants)|ChEBI NPs|EMNPD|FooDB|Latin America dataset|NPASS|NuBBEDB|Phyto4Health|Super Natural II|TCMDB-Taiwan (Traditional Chinese Medicine database)|TCMID (Traditional Chinese Medicine Integrated Database)|UNPD (Universal Natural Products Database)|WikiData Natural Products

>  <dois>  (1940) 
10.1016/0031-9422(81)83055-5|10.1016/J.BSE.2006.03.004|10.1016/J.RENENE.2017.12.012|10.1016/S0031-9422(00)81276-5|10.1016/j.bse.2006.03.004|10.1021/JF00120A031|10.1021/jf00120a031|10.1080/10412905.1995.9698464|10.1248/YAKUSHI1947.112.8_571

>  <synonyms>  (1940) 
1-C13H26|1-TRIDECENE [HSDB]|1-Tridecene|1-Tridecene [Standard Material for GC]|1-Tridecene, 97%|2437-56-1|4-01-00-00921 (Beilstein Handbook Reference)|5B0U2S314C|AKOS015903313|BP-13303|BRN 1744660|CAA43756|CAS-2437-56-1|CCRIS 5719|CHEBI:89815|CHEMBL3186542|CS-0186370|D92374|DB-046427|DTXCID209235|DTXSID3029235|EINECS 219-443-8|HSDB 1088|J-015475|LMFA11000331|LS-14252|MFCD00008976|N-(2-AMINOETHYL)-N-METHYL-N-PHENYLAMINEDIHYDROCHLORIDE|N-Tridec-1-ene|NCGC00260542-01|NS00027640|NSC 78473|NSC-78473|Q27162003|SY049393|T0637|Tox21_202997|Tridecene-1|Tridecylene|UNII-5B0U2S314C|Undecylethylene|alpha-Tridecene|tridec-1-ene

>  <cas>  (1940) 
2437-56-1

$$$$

     RDKit          2D

 29 33  0  0  0  0  0  0  0  0999 V2000
   -7.5884    2.2001    0.0000 C   0  0  0  0  0  0  0  0  0  0  0  0
   -6.9539    0.8409    0.0000 C   0  0  0  0  0  0  0  0  0  0  0  0
   -8.4026    0.4521    0.0000 C   0  0  0  0  0  0  0  0  0  0  0  0
   -6.8225   -0.6533    0.0000 C   0  0  0  0  0  0  0  0  0  0  0  0
   -5.4628   -1.2867    0.0000 C   0  0  0  0  0  0  0  0  0  0  0  0
   -4.2344   -0.4258    0.0000 C   0  0  0  0  0  0  0  0  0  0  0  0
   -2.8747   -1.0592    0.0000 C   0  0  0  0  0  0  0  0  0  0  0  0
   -1.6464   -0.1983    0.0000 C   0  0  0  0  0  0  0  0  0  0  0  0
   -0.2866   -0.8317    0.0000 C   0  0  0  0  0  0  0  0  0  0  0  0
   -0.1553   -2.3259    0.0000 C   0  0  0  0  0  0  0  0  0  0  0  0
    1.2045   -2.9593    0.0000 C   0  0  0  0  0  0  0  0  0  0  0  0
    1.3358   -4.4535    0.0000 O   0  0  0  0  0  0  0  0  0  0  0  0
    2.4328   -2.0984    0.0000 C   0  0  0  0  0  0  0  0  0  0  0  0
    3.7925   -2.7318    0.0000 C   0  0  0  0  0  0  0  0  0  0  0  0
    5.0209   -1.8709    0.0000 C   0  0  0  0  0  0  0  0  0  0  0  0
    4.8896   -0.3767    0.0000 C   0  0  0  0  0  0  0  0  0  0  0  0
    6.1179    0.4842    0.0000 O   0  0  0  0  0  0  0  0  0  0  0  0
    5.9866    1.9785    0.0000 C   0  0  0  0  0  0  0  0  0  0  0  0
    6.3742    3.4275    0.0000 C   0  0  0  0  0  0  0  0  0  0  0  0
    7.4809    1.8483    0.0000 C   0  0  0  0  0  0  0  0  0  0  0  0
    4.6269    2.6118    0.0000 C   0  0  0  0  0  0  0  0  0  0  0  0
    3.3985    1.7509    0.0000 C   0  0  0  0  0  0  0  0  0  0  0  0
    3.5298    0.2567    0.0000 C   0  0  0  0  0  0  0  0  0  0  0  0
    2.3015   -0.6042    0.0000 C   0  0  0  0  0  0  0  0  0  0  0  0
    0.9417    0.0292    0.0000 O   0  0  0  0  0  0  0  0  0  0  0  0
   -1.7777    1.2959    0.0000 C   0  0  0  0  0  0  0  0  0  0  0  0
   -3.1374    1.9293    0.0000 C   0  0  0  0  0  0  0  0  0  0  0  0
   -4.3658    1.0684    0.0000 C   0  0  0  0  0  0  0  0  0  0  0  0
   -5.7255    1.7018    0.0000 O   0  0  0  0  0  0  0  0  0  0  0  0
  1  2  1  0
  2  3  1  0
  2  4  1  0
  4  5  2  0
  5  6  1  0
  6  7  2  0
  7  8  1  0
  9  8  1  1
  9 10  1  0
 10 11  1  0
 11 12  2  0
 11 13  1  0
 13 14  2  0
 14 15  1  0
 15 16  2  0
 16 17  1  0
 17 18  1  0
 18 19  1  0
 18 20  1  0
 18 21  1  0
 21 22  2  0
 22 23  1  0
 23 24  2  0
 24 25  1  0
  8 26  2  0
 26 27  1  0
 27 28  2  0
 28 29  1  0
 29  2  1  0
 28  6  1  0
 25  9  1  0
 24 13  1  0
 23 16  1  0
M  END
>  <identifier>  (1941) 
CNP0213222.1

>  <canonical_smiles>  (1941) 
CC1(C)C=CC2=CC([C@@H]3CC(=O)C4=CC=C5OC(C)(C)C=CC5=C4O3)=CC=C2O1

>  <standard_inchi>  (1941) 
InChI=1S/C25H24O4/c1-24(2)11-9-16-13-15(5-7-20(16)28-24)22-14-19(26)17-6-8-21-18(23(17)27-22)10-12-25(3,4)29-21/h5-13,22H,14H2,1-4H3/t22-/m0/s1

>  <standard_inchi_key>  (1941) 
FGJUXFVUOCKRCY-QFIPXVFZSA-N

>  <name>  (1941) 
XAMBIOONA

>  <iupac_name>  (1941) 
(2~{S})-2-(2,2-dimethylchromen-6-yl)-8,8-dimethyl-2,3-dihydropyrano[2,3-f]chromen-4-one

>  <annotation_level>  (1941) 
5

>  <total_atom_count>  (1941) 
53

>  <heavy_atom_count>  (1941) 
29

>  <molecular_weight>  (1941) 
388.46

>  <exact_molecular_weight>  (1941) 
388.16746

>  <molecular_formula>  (1941) 
C25H24O4

>  <alogp>  (1941) 
5.76

>  <topological_polar_surface_area>  (1941) 
44.76

>  <rotatable_bond_count>  (1941) 
1

>  <hydrogen_bond_acceptors>  (1941) 
4

>  <hydrogen_bond_donors>  (1941) 
0

>  <hydrogen_bond_acceptors_lipinski>  (1941) 
4

>  <hydrogen_bond_donors_lipinski>  (1941) 
0

>  <lipinski_rule_of_five_violations>  (1941) 
1

>  <aromatic_rings_count>  (1941) 
2

>  <qed_drug_likeliness>  (1941) 
0.62

>  <formal_charge>  (1941) 
0

>  <fractioncsp3>  (1941) 
0.32

>  <number_of_minimal_rings>  (1941) 
5

>  <van_der_walls_volume>  (1941) 
353.43

>  <contains_sugar>  (1941) 
False

>  <contains_ring_sugars>  (1941) 
False

>  <contains_linear_sugars>  (1941) 
False

>  <murcko_framework>  (1941) 
O1c2ccc(cc2C=CC1)C3Oc4c5C=CCOc5ccc4CC3

>  <np_likeness>  (1941) 
2.05

>  <chemical_class>  (1941) 
Flavonoids

>  <chemical_sub_class>  (1941) 
Pyranoflavonoids

>  <chemical_super_class>  (1941) 
Phenylpropanoids and polyketides

>  <direct_parent_classification>  (1941) 
Pyranoflavonoids

>  <np_classifier_pathway>  (1941) 
Shikimates and Phenylpropanoids

>  <np_classifier_superclass>  (1941) 
Flavonoids

>  <np_classifier_class>  (1941) 
Flavanones

>  <np_classifier_is_glycoside>  (1941) 
False

>  <organisms>  (1941) 
Calopogonium mucunoides|Euchresta formosana|Glycyrrhiza glabra|liquorice

>  <collections>  (1941) 
CMAUP (cCollective molecular activities of useful plants)|Latin America dataset|NPASS|NuBBEDB|Super Natural II|WikiData Natural Products|ZINC NP

>  <dois>  (1941) 
10.1016/J.BMC.2009.11.027|10.1016/S0031-9422(00)95305-6|10.1016/S0031-9422(00)98095-6|10.1016/S0031-9422(97)00591-8|10.1021/ACS.JNATPROD.6B00783|10.1021/acs.jnatprod.6b00783

>  <synonyms>  (1941) 
CHEMBL2437375|Xambioona

>  <cas>  (1941) 
nan

$$$$

     RDKit          2D

 25 27  0  0  0  0  0  0  0  0999 V2000
    2.5511    3.7238    0.0000 C   0  0  0  0  0  0  0  0  0  0  0  0
    1.0563    3.8481    0.0000 O   0  0  0  0  0  0  0  0  0  0  0  0
    0.2012    2.6157    0.0000 C   0  0  0  0  0  0  0  0  0  0  0  0
   -1.2936    2.7400    0.0000 C   0  0  0  0  0  0  0  0  0  0  0  0
   -2.1487    1.5075    0.0000 C   0  0  0  0  0  0  0  0  0  0  0  0
   -3.6435    1.6318    0.0000 N   0  0  0  0  0  0  0  0  0  0  0  0
   -4.4986    0.3994    0.0000 C   0  0  0  0  0  0  0  0  0  0  0  0
   -3.8588   -0.9573    0.0000 C   0  0  0  0  0  0  0  0  0  0  0  0
   -4.9514   -1.9850    0.0000 C   0  0  0  0  0  0  0  0  0  0  0  0
   -6.2665   -1.2635    0.0000 C   0  0  0  0  0  0  0  0  0  0  0  0
   -5.9866    0.2102    0.0000 O   0  0  0  0  0  0  0  0  0  0  0  0
   -2.3640   -1.0816    0.0000 C   0  0  0  0  0  0  0  0  0  0  0  0
   -1.7242   -2.4383    0.0000 O   0  0  0  0  0  0  0  0  0  0  0  0
   -2.5792   -3.6707    0.0000 C   0  0  0  0  0  0  0  0  0  0  0  0
   -1.5089    0.1508    0.0000 C   0  0  0  0  0  0  0  0  0  0  0  0
   -0.0141    0.0265    0.0000 C   0  0  0  0  0  0  0  0  0  0  0  0
    0.8410    1.2590    0.0000 C   0  0  0  0  0  0  0  0  0  0  0  0
    2.3358    1.1347    0.0000 O   0  0  0  0  0  0  0  0  0  0  0  0
    2.9756   -0.2220    0.0000 C   0  0  0  0  0  0  0  0  0  0  0  0
    4.4705   -0.3463    0.0000 C   0  0  0  0  0  0  0  0  0  0  0  0
    5.3255    0.8861    0.0000 O   0  0  0  0  0  0  0  0  0  0  0  0
    5.1103   -1.7030    0.0000 C   0  0  0  0  0  0  0  0  0  0  0  0
    3.7535   -2.3428    0.0000 C   0  0  0  0  0  0  0  0  0  0  0  0
    6.4670   -1.0633    0.0000 C   0  0  0  0  0  0  0  0  0  0  0  0
    5.7500   -3.0598    0.0000 O   0  0  0  0  0  0  0  0  0  0  0  0
  1  2  1  0
  2  3  1  0
  3  4  2  0
  4  5  1  0
  5  6  2  0
  6  7  1  0
  7  8  2  0
  8  9  1  0
  9 10  2  0
 10 11  1  0
  8 12  1  0
 12 13  1  0
 13 14  1  0
 12 15  2  0
 15 16  1  0
 16 17  2  0
 17 18  1  0
 18 19  1  0
 19 20  1  0
 20 21  1  1
 20 22  1  0
 22 23  1  0
 22 24  1  0
 22 25  1  0
 17  3  1  0
 15  5  1  0
 11  7  1  0
M  END
>  <identifier>  (1942) 
CNP0180820.2

>  <canonical_smiles>  (1942) 
COC1=CC2=NC3=C(C=CO3)C(OC)=C2C=C1OC[C@@H](O)C(C)(C)O

>  <standard_inchi>  (1942) 
InChI=1S/C18H21NO6/c1-18(2,21)15(20)9-25-14-7-11-12(8-13(14)22-3)19-17-10(5-6-24-17)16(11)23-4/h5-8,15,20-21H,9H2,1-4H3/t15-/m1/s1

>  <standard_inchi_key>  (1942) 
CODUJIFHJTUEBU-OAHLLOKOSA-N

>  <name>  (1942) 
nan

>  <iupac_name>  (1942) 
(2~{R})-1-(4,7-dimethoxyfuro[2,3-b]quinolin-6-yl)oxy-3-methyl-butane-2,3-diol

>  <annotation_level>  (1942) 
4

>  <total_atom_count>  (1942) 
46

>  <heavy_atom_count>  (1942) 
25

>  <molecular_weight>  (1942) 
347.37

>  <exact_molecular_weight>  (1942) 
347.13689

>  <molecular_formula>  (1942) 
C18H21NO6

>  <alogp>  (1942) 
2.51

>  <topological_polar_surface_area>  (1942) 
94.18

>  <rotatable_bond_count>  (1942) 
6

>  <hydrogen_bond_acceptors>  (1942) 
7

>  <hydrogen_bond_donors>  (1942) 
2

>  <hydrogen_bond_acceptors_lipinski>  (1942) 
7

>  <hydrogen_bond_donors_lipinski>  (1942) 
2

>  <lipinski_rule_of_five_violations>  (1942) 
0

>  <aromatic_rings_count>  (1942) 
3

>  <qed_drug_likeliness>  (1942) 
0.71

>  <formal_charge>  (1942) 
0

>  <fractioncsp3>  (1942) 
0.39

>  <number_of_minimal_rings>  (1942) 
3

>  <van_der_walls_volume>  (1942) 
306.91

>  <contains_sugar>  (1942) 
False

>  <contains_ring_sugars>  (1942) 
False

>  <contains_linear_sugars>  (1942) 
False

>  <murcko_framework>  (1942) 
n1c2occc2cc3ccccc13

>  <np_likeness>  (1942) 
1.19

>  <chemical_class>  (1942) 
Quinolines and derivatives

>  <chemical_sub_class>  (1942) 
Furanoquinolines

>  <chemical_super_class>  (1942) 
Organoheterocyclic compounds

>  <direct_parent_classification>  (1942) 
Furanoquinolines

>  <np_classifier_pathway>  (1942) 
Alkaloids

>  <np_classifier_superclass>  (1942) 
Tryptophan alkaloids

>  <np_classifier_class>  (1942) 
Quinoline alkaloids

>  <np_classifier_is_glycoside>  (1942) 
False

>  <organisms>  (1942) 
Ertela trifolia|Haplophyllum vulcanicum|Monniera trifolia|Monnieria trifolia|Oricia suaveolens|Teclea nobilis|Teclea ouabanguiensis|Teclea verdoorniana|Vepris nobilis|Vepris oubanguensis|Vepris suaveolens|Vepris verdoorniana

>  <collections>  (1942) 
ANPDB|KNApSaCK|Latin America dataset|NANPDB (Natural Products from Northern African Sources)|NuBBEDB|WikiData Natural Products|ZINC NP

>  <dois>  (1942) 
10.1016/J.PHYTOL.2011.08.012|10.1016/j.phytol.2011.08.012|10.1021/NP50020A012|10.1021/NP50024A012|10.1021/NP800276F|10.3987/R-1981-03-0371|10.3987/R-1984-12-2821

>  <synonyms>  (1942) 
(-)-Montrifoline|(R)-(+)-Montrifoline|montrifoline

>  <cas>  (1942) 
nan

$$$$

     RDKit          2D

 51 58  0  0  0  0  0  0  0  0999 V2000
  -13.7993   -2.1477    0.0000 O   0  0  0  0  0  0  0  0  0  0  0  0
  -12.3825   -1.6551    0.0000 C   0  0  0  0  0  0  0  0  0  0  0  0
  -12.1006   -0.1819    0.0000 C   0  0  0  0  0  0  0  0  0  0  0  0
  -10.6838    0.3107    0.0000 C   0  0  0  0  0  0  0  0  0  0  0  0
   -9.5488   -0.6701    0.0000 C   0  0  0  0  0  0  0  0  0  0  0  0
   -8.1320   -0.1775    0.0000 C   0  0  0  0  0  0  0  0  0  0  0  0
   -6.9970   -1.1583    0.0000 C   0  0  0  0  0  0  0  0  0  0  0  0
   -5.5802   -0.6657    0.0000 C   0  0  0  0  0  0  0  0  0  0  0  0
   -4.4452   -1.6465    0.0000 C   0  0  0  0  0  0  0  0  0  0  0  0
   -3.0284   -1.1539    0.0000 C   0  0  0  0  0  0  0  0  0  0  0  0
   -1.8934   -2.1347    0.0000 O   0  0  0  0  0  0  0  0  0  0  0  0
   -2.7465    0.3194    0.0000 C   0  0  0  0  0  0  0  0  0  0  0  0
   -3.8815    1.3001    0.0000 C   0  0  0  0  0  0  0  0  0  0  0  0
   -5.2983    0.8076    0.0000 C   0  0  0  0  0  0  0  0  0  0  0  0
   -3.2995    2.6826    0.0000 O   0  0  0  0  0  0  0  0  0  0  0  0
   -1.8048    2.5563    0.0000 C   0  0  0  0  0  0  0  0  0  0  0  0
   -0.8241    3.6912    0.0000 C   0  0  0  0  0  0  0  0  0  0  0  0
    0.6492    3.4094    0.0000 C   0  0  0  0  0  0  0  0  0  0  0  0
    1.6300    4.5443    0.0000 C   0  0  0  0  0  0  0  0  0  0  0  0
    1.1374    5.9612    0.0000 C   0  0  0  0  0  0  0  0  0  0  0  0
    2.1182    7.0961    0.0000 O   0  0  0  0  0  0  0  0  0  0  0  0
   -0.3359    6.2430    0.0000 C   0  0  0  0  0  0  0  0  0  0  0  0
   -1.3166    5.1081    0.0000 C   0  0  0  0  0  0  0  0  0  0  0  0
   -1.4631    1.0957    0.0000 C   0  0  0  0  0  0  0  0  0  0  0  0
   -0.0806    0.5137    0.0000 C   0  0  0  0  0  0  0  0  0  0  0  0
    0.1066   -0.9746    0.0000 C   0  0  0  0  0  0  0  0  0  0  0  0
    1.4891   -1.5566    0.0000 C   0  0  0  0  0  0  0  0  0  0  0  0
    1.6763   -3.0449    0.0000 O   0  0  0  0  0  0  0  0  0  0  0  0
    2.6844   -0.6503    0.0000 C   0  0  0  0  0  0  0  0  0  0  0  0
    2.4972    0.8379    0.0000 C   0  0  0  0  0  0  0  0  0  0  0  0
    1.1147    1.4200    0.0000 C   0  0  0  0  0  0  0  0  0  0  0  0
    3.8548    1.4759    0.0000 O   0  0  0  0  0  0  0  0  0  0  0  0
    4.8810    0.3819    0.0000 C   0  0  0  0  0  0  0  0  0  0  0  0
    6.3693    0.5691    0.0000 C   0  0  0  0  0  0  0  0  0  0  0  0
    7.2755   -0.6262    0.0000 C   0  0  0  0  0  0  0  0  0  0  0  0
    8.7638   -0.4390    0.0000 C   0  0  0  0  0  0  0  0  0  0  0  0
    9.3458    0.9435    0.0000 C   0  0  0  0  0  0  0  0  0  0  0  0
   10.8341    1.1307    0.0000 O   0  0  0  0  0  0  0  0  0  0  0  0
    8.4396    2.1388    0.0000 C   0  0  0  0  0  0  0  0  0  0  0  0
    6.9513    1.9516    0.0000 C   0  0  0  0  0  0  0  0  0  0  0  0
    4.1577   -0.9322    0.0000 C   0  0  0  0  0  0  0  0  0  0  0  0
    4.7956   -2.2898    0.0000 C   0  0  0  0  0  0  0  0  0  0  0  0
    3.9389   -3.5210    0.0000 C   0  0  0  0  0  0  0  0  0  0  0  0
    4.5768   -4.8786    0.0000 C   0  0  0  0  0  0  0  0  0  0  0  0
    3.7201   -6.1099    0.0000 O   0  0  0  0  0  0  0  0  0  0  0  0
    6.0715   -5.0050    0.0000 C   0  0  0  0  0  0  0  0  0  0  0  0
    6.9282   -3.7737    0.0000 C   0  0  0  0  0  0  0  0  0  0  0  0
    8.4229   -3.9000    0.0000 O   0  0  0  0  0  0  0  0  0  0  0  0
    6.2903   -2.4161    0.0000 C   0  0  0  0  0  0  0  0  0  0  0  0
   -9.8307   -2.1433    0.0000 C   0  0  0  0  0  0  0  0  0  0  0  0
  -11.2475   -2.6359    0.0000 C   0  0  0  0  0  0  0  0  0  0  0  0
  1  2  1  0
  2  3  2  0
  3  4  1  0
  4  5  2  0
  5  6  1  0
  6  7  2  0
  7  8  1  0
  8  9  2  0
  9 10  1  0
 10 11  1  0
 10 12  2  0
 12 13  1  0
 13 14  2  0
 13 15  1  0
 15 16  1  0
 16 17  1  6
 17 18  2  0
 18 19  1  0
 19 20  2  0
 20 21  1  0
 20 22  1  0
 22 23  2  0
 16 24  1  0
 24 25  1  1
 25 26  2  0
 26 27  1  0
 27 28  1  0
 27 29  2  0
 29 30  1  0
 30 31  2  0
 30 32  1  0
 32 33  1  0
 33 34  1  6
 34 35  2  0
 35 36  1  0
 36 37  2  0
 37 38  1  0
 37 39  1  0
 39 40  2  0
 33 41  1  0
 41 42  1  1
 42 43  2  0
 43 44  1  0
 44 45  1  0
 44 46  2  0
 46 47  1  0
 47 48  1  0
 47 49  2  0
  5 50  1  0
 50 51  2  0
 51  2  1  0
 14  8  1  0
 23 17  1  0
 31 25  1  0
 40 34  1  0
 49 42  1  0
 24 12  1  0
 41 29  1  0
M  END
>  <identifier>  (1943) 
CNP0248228.2

>  <canonical_smiles>  (1943) 
OC1=CC=C(/C=C/C2=CC(O)=C3C(=C2)O[C@H](C2=CC=C(O)C=C2)[C@H]3C2=CC(O)=C3C(=C2)O[C@H](C2=CC=C(O)C=C2)[C@H]3C2=CC(O)=CC(O)=C2)C=C1

>  <standard_inchi>  (1943) 
InChI=1S/C42H32O9/c43-28-9-3-22(4-10-28)1-2-23-15-33(48)39-35(16-23)50-42(25-7-13-30(45)14-8-25)38(39)27-19-34(49)40-36(20-27)51-41(24-5-11-29(44)12-6-24)37(40)26-17-31(46)21-32(47)18-26/h1-21,37-38,41-49H/b2-1+/t37-,38-,41+,42+/m0/s1

>  <standard_inchi_key>  (1943) 
RZIMZQMLANTRFI-LCCNWPCHSA-N

>  <name>  (1943) 
nan

>  <iupac_name>  (1943) 
5-[(2~{S},3~{S})-4-hydroxy-6-[(2~{S},3~{S})-4-hydroxy-2-(4-hydroxyphenyl)-6-[(~{E})-2-(4-hydroxyphenyl)vinyl]-2,3-dihydrobenzofuran-3-yl]-2-(4-hydroxyphenyl)-2,3-dihydrobenzofuran-3-yl]benzene-1,3-diol

>  <annotation_level>  (1943) 
4

>  <total_atom_count>  (1943) 
83

>  <heavy_atom_count>  (1943) 
51

>  <molecular_weight>  (1943) 
680.71

>  <exact_molecular_weight>  (1943) 
680.20463

>  <molecular_formula>  (1943) 
C42H32O9

>  <alogp>  (1943) 
8.33

>  <topological_polar_surface_area>  (1943) 
160.07

>  <rotatable_bond_count>  (1943) 
6

>  <hydrogen_bond_acceptors>  (1943) 
9

>  <hydrogen_bond_donors>  (1943) 
7

>  <hydrogen_bond_acceptors_lipinski>  (1943) 
9

>  <hydrogen_bond_donors_lipinski>  (1943) 
7

>  <lipinski_rule_of_five_violations>  (1943) 
3

>  <aromatic_rings_count>  (1943) 
6

>  <qed_drug_likeliness>  (1943) 
0.09

>  <formal_charge>  (1943) 
0

>  <fractioncsp3>  (1943) 
0.10

>  <number_of_minimal_rings>  (1943) 
8

>  <van_der_walls_volume>  (1943) 
nan

>  <contains_sugar>  (1943) 
False

>  <contains_ring_sugars>  (1943) 
False

>  <contains_linear_sugars>  (1943) 
False

>  <murcko_framework>  (1943) 
O1c2cc(C=Cc3ccccc3)ccc2C(c4ccc5c(OC(c6ccccc6)C5c7ccccc7)c4)C1c8ccccc8

>  <np_likeness>  (1943) 
0.91

>  <chemical_class>  (1943) 
2-arylbenzofuran flavonoids

>  <chemical_sub_class>  (1943) 
2-arylbenzofuran flavonoids

>  <chemical_super_class>  (1943) 
Phenylpropanoids and polyketides

>  <direct_parent_classification>  (1943) 
2-arylbenzofuran flavonoids

>  <np_classifier_pathway>  (1943) 
Shikimates and Phenylpropanoids

>  <np_classifier_superclass>  (1943) 
Stilbenoids

>  <np_classifier_class>  (1943) 
Oligomeric stibenes

>  <np_classifier_is_glycoside>  (1943) 
False

>  <organisms>  (1943) 
Cyphostemma crotalarioides|Gnetum Latifolium|Gnetum africanum|Gnetum gnemon|Gnetum gnemonoides|Gnetum klossii|Gnetum latifolium|Gnetum leybodii|Gnetum leyboldii|Gnetum venosum|Spirotropis longifolia

>  <collections>  (1943) 
ANPDB|Latin America dataset|NANPDB (Natural Products from Northern African Sources)|NPEdia|NuBBEDB|Super Natural II|VietHerb|WikiData Natural Products|ZINC NP

>  <dois>  (1943) 
10.1002/(SICI)1096-9063(199902)55:2<206::AID-PS871>3.0.CO;2-Z|10.1002/1522-2675(200208)85:8<2394::AID-HLCA2394>3.0.CO;2-6|10.1002/1522-2675(200208)85:8<2538::AID-HLCA2538>3.0.CO;2-J|10.1016/0031-9422(73)85143-X|10.1016/0031-9422(91)80038-3|10.1016/J.PHYTOCHEM.2011.10.011|10.1016/S0031-9422(02)00289-3|10.1016/S0040-4039(98)02207-2|10.1021/NP020532O|10.1021/NP50024A022|10.1021/np50024a022|10.1111/J.1439-0434.2000.TB04620.X|10.1248/CPB.50.796|10.3987/COM-01-9317|10.3987/COM-02-9471

>  <synonyms>  (1943) 
Gnetin E|Gnetin-E|gnetin E

>  <cas>  (1943) 
nan

$$$$

     RDKit          2D

 30 32  0  0  0  0  0  0  0  0999 V2000
   -7.3496   -1.2847    0.0000 C   0  0  0  0  0  0  0  0  0  0  0  0
   -6.4992   -0.0491    0.0000 O   0  0  0  0  0  0  0  0  0  0  0  0
   -5.0039   -0.1677    0.0000 C   0  0  0  0  0  0  0  0  0  0  0  0
   -4.3590   -1.5220    0.0000 C   0  0  0  0  0  0  0  0  0  0  0  0
   -2.8637   -1.6406    0.0000 C   0  0  0  0  0  0  0  0  0  0  0  0
   -2.0133   -0.4050    0.0000 C   0  0  0  0  0  0  0  0  0  0  0  0
   -0.5180   -0.5236    0.0000 C   0  0  0  0  0  0  0  0  0  0  0  0
    0.1269   -1.8779    0.0000 C   0  0  0  0  0  0  0  0  0  0  0  0
   -0.7235   -3.1135    0.0000 O   0  0  0  0  0  0  0  0  0  0  0  0
   -2.2188   -2.9949    0.0000 C   0  0  0  0  0  0  0  0  0  0  0  0
    1.6222   -1.9965    0.0000 C   0  0  0  0  0  0  0  0  0  0  0  0
    2.2671   -3.3508    0.0000 O   0  0  0  0  0  0  0  0  0  0  0  0
    2.4726   -0.7608    0.0000 C   0  0  0  0  0  0  0  0  0  0  0  0
    3.9679   -0.8795    0.0000 C   0  0  0  0  0  0  0  0  0  0  0  0
    4.6128   -2.2338    0.0000 O   0  0  0  0  0  0  0  0  0  0  0  0
    4.8183    0.3562    0.0000 C   0  0  0  0  0  0  0  0  0  0  0  0
    6.3136    0.2376    0.0000 O   0  0  0  0  0  0  0  0  0  0  0  0
    6.9585   -1.1167    0.0000 C   0  0  0  0  0  0  0  0  0  0  0  0
    4.1733    1.7105    0.0000 C   0  0  0  0  0  0  0  0  0  0  0  0
    5.0237    2.9461    0.0000 O   0  0  0  0  0  0  0  0  0  0  0  0
    6.5190    2.8275    0.0000 C   0  0  0  0  0  0  0  0  0  0  0  0
    2.6780    1.8291    0.0000 C   0  0  0  0  0  0  0  0  0  0  0  0
    1.8277    0.5934    0.0000 C   0  0  0  0  0  0  0  0  0  0  0  0
    0.3324    0.7121    0.0000 O   0  0  0  0  0  0  0  0  0  0  0  0
   -2.6582    0.9493    0.0000 C   0  0  0  0  0  0  0  0  0  0  0  0
   -1.8079    2.1850    0.0000 O   0  0  0  0  0  0  0  0  0  0  0  0
   -2.4528    3.5393    0.0000 C   0  0  0  0  0  0  0  0  0  0  0  0
   -4.1535    1.0680    0.0000 C   0  0  0  0  0  0  0  0  0  0  0  0
   -4.7985    2.4222    0.0000 O   0  0  0  0  0  0  0  0  0  0  0  0
   -6.2938    2.5409    0.0000 C   0  0  0  0  0  0  0  0  0  0  0  0
  1  2  1  0
  2  3  1  0
  3  4  2  0
  4  5  1  0
  5  6  2  0
  6  7  1  0
  7  8  2  0
  8  9  1  0
  9 10  1  0
  8 11  1  0
 11 12  2  0
 11 13  1  0
 13 14  2  0
 14 15  1  0
 14 16  1  0
 16 17  1  0
 17 18  1  0
 16 19  2  0
 19 20  1  0
 20 21  1  0
 19 22  1  0
 22 23  2  0
 23 24  1  0
  6 25  1  0
 25 26  1  0
 26 27  1  0
 25 28  2  0
 28 29  1  0
 29 30  1  0
 28  3  1  0
 24  7  1  0
 23 13  1  0
M  END
>  <identifier>  (1944) 
CNP0080472.0

>  <canonical_smiles>  (1944) 
COC1=CC=C(C2=C(OC)C(=O)C3=C(O)C(OC)=C(OC)C=C3O2)C(OC)=C1OC

>  <standard_inchi>  (1944) 
InChI=1S/C21H22O9/c1-24-11-8-7-10(17(26-3)20(11)28-5)18-21(29-6)16(23)14-12(30-18)9-13(25-2)19(27-4)15(14)22/h7-9,22H,1-6H3

>  <standard_inchi_key>  (1944) 
DCAKXIWUFTUXIT-UHFFFAOYSA-N

>  <name>  (1944) 
nan

>  <iupac_name>  (1944) 
5-hydroxy-3,6,7-trimethoxy-2-(2,3,4-trimethoxyphenyl)chromen-4-one

>  <annotation_level>  (1944) 
4

>  <total_atom_count>  (1944) 
52

>  <heavy_atom_count>  (1944) 
30

>  <molecular_weight>  (1944) 
418.4

>  <exact_molecular_weight>  (1944) 
418.12638

>  <molecular_formula>  (1944) 
C21H22O9

>  <alogp>  (1944) 
3.22

>  <topological_polar_surface_area>  (1944) 
105.82

>  <rotatable_bond_count>  (1944) 
7

>  <hydrogen_bond_acceptors>  (1944) 
9

>  <hydrogen_bond_donors>  (1944) 
1

>  <hydrogen_bond_acceptors_lipinski>  (1944) 
9

>  <hydrogen_bond_donors_lipinski>  (1944) 
1

>  <lipinski_rule_of_five_violations>  (1944) 
0

>  <aromatic_rings_count>  (1944) 
3

>  <qed_drug_likeliness>  (1944) 
0.62

>  <formal_charge>  (1944) 
0

>  <fractioncsp3>  (1944) 
0.29

>  <number_of_minimal_rings>  (1944) 
3

>  <van_der_walls_volume>  (1944) 
nan

>  <contains_sugar>  (1944) 
False

>  <contains_ring_sugars>  (1944) 
False

>  <contains_linear_sugars>  (1944) 
False

>  <murcko_framework>  (1944) 
O1c2ccccc2CC=C1c3ccccc3

>  <np_likeness>  (1944) 
1.10

>  <chemical_class>  (1944) 
Flavonoids

>  <chemical_sub_class>  (1944) 
O-methylated flavonoids

>  <chemical_super_class>  (1944) 
Phenylpropanoids and polyketides

>  <direct_parent_classification>  (1944) 
6-O-methylated flavonoids

>  <np_classifier_pathway>  (1944) 
Shikimates and Phenylpropanoids

>  <np_classifier_superclass>  (1944) 
Flavonoids

>  <np_classifier_class>  (1944) 
Flavonols

>  <np_classifier_is_glycoside>  (1944) 
False

>  <organisms>  (1944) 
Apuleia leiocarpa

>  <collections>  (1944) 
Latin America dataset|NuBBEDB|WikiData Natural Products|ZINC NP

>  <dois>  (1944) 
10.1016/S0031-9422(00)89891-X

>  <synonyms>  (1944) 
2'3'6-tri-O-methylapuleisin

>  <cas>  (1944) 
nan

$$$$

     RDKit          2D

 26 29  0  0  0  0  0  0  0  0999 V2000
   -2.6624    4.3213    0.0000 C   0  0  0  0  0  0  0  0  0  0  0  0
   -1.9728    2.9892    0.0000 O   0  0  0  0  0  0  0  0  0  0  0  0
   -2.7816    1.7260    0.0000 C   0  0  0  0  0  0  0  0  0  0  0  0
   -4.2800    1.7948    0.0000 O   0  0  0  0  0  0  0  0  0  0  0  0
   -2.0920    0.3939    0.0000 C   0  0  0  0  0  0  0  0  0  0  0  0
   -2.9008   -0.8694    0.0000 C   0  0  0  0  0  0  0  0  0  0  0  0
   -2.2112   -2.2014    0.0000 C   0  0  0  0  0  0  0  0  0  0  0  0
   -0.7128   -2.2703    0.0000 C   0  0  0  0  0  0  0  0  0  0  0  0
    0.0961   -1.0070    0.0000 C   0  0  0  0  0  0  0  0  0  0  0  0
   -0.5936    0.3251    0.0000 C   0  0  0  0  0  0  0  0  0  0  0  0
    0.2152    1.5883    0.0000 C   0  0  0  0  0  0  0  0  0  0  0  0
   -0.4744    2.9204    0.0000 O   0  0  0  0  0  0  0  0  0  0  0  0
    1.7137    1.5195    0.0000 C   0  0  0  0  0  0  0  0  0  0  0  0
    2.5225    2.7828    0.0000 O   0  0  0  0  0  0  0  0  0  0  0  0
    2.4033    0.1874    0.0000 C   0  0  0  0  0  0  0  0  0  0  0  0
    3.9017    0.1186    0.0000 C   0  0  0  0  0  0  0  0  0  0  0  0
    5.3333    0.5665    0.0000 C   0  0  0  0  0  0  0  0  0  0  0  0
    3.7093    1.6062    0.0000 C   0  0  0  0  0  0  0  0  0  0  0  0
    4.5913   -1.2134    0.0000 C   0  0  0  0  0  0  0  0  0  0  0  0
    3.7825   -2.4767    0.0000 C   0  0  0  0  0  0  0  0  0  0  0  0
    2.2841   -2.4079    0.0000 C   0  0  0  0  0  0  0  0  0  0  0  0
    1.5945   -1.0758    0.0000 C   0  0  0  0  0  0  0  0  0  0  0  0
    0.7857   -2.3391    0.0000 C   0  0  0  0  0  0  0  0  0  0  0  0
   -3.2650   -3.2689    0.0000 O   0  0  0  0  0  0  0  0  0  0  0  0
   -4.6058   -2.5966    0.0000 C   0  0  0  0  0  0  0  0  0  0  0  0
   -4.3808   -1.1136    0.0000 C   0  0  0  0  0  0  0  0  0  0  0  0
  1  2  1  0
  2  3  1  0
  3  4  2  0
  5  3  1  1
  5  6  1  0
  6  7  2  0
  7  8  1  0
  9  8  1  1
  9 10  1  0
 10 11  1  0
 11 12  1  1
 11 13  1  0
 13 14  1  6
 13 15  1  0
 15 16  1  1
 16 17  1  0
 16 18  1  0
 16 19  1  0
 19 20  1  0
 20 21  1  0
 21 22  1  0
 22 23  1  1
  7 24  1  0
 24 25  1  0
 25 26  2  0
 10  5  1  6
 22 15  1  0
 26  6  1  0
 22  9  1  0
M  END
>  <identifier>  (1945) 
CNP0273435.1

>  <canonical_smiles>  (1945) 
COC(=O)[C@@H]1C2=C(C[C@H]3[C@H]1[C@@H](O)[C@H](O)[C@H]1C(C)(C)CCC[C@]31C)OC=C2

>  <standard_inchi>  (1945) 
InChI=1S/C21H30O5/c1-20(2)7-5-8-21(3)12-10-13-11(6-9-26-13)14(19(24)25-4)15(12)16(22)17(23)18(20)21/h6,9,12,14-18,22-23H,5,7-8,10H2,1-4H3/t12-,14+,15+,16+,17-,18-,21+/m0/s1

>  <standard_inchi_key>  (1945) 
MTERRCUWEHAXPL-NZIWOHBDSA-N

>  <name>  (1945) 
methyl (4aS,5R,6R,6aR,7S,11aS,11bR)-5,6-dihydroxy-4,4,11b-trimethyl-1,2,3,4a,5,6,6a,7,11,11a-decahydronaphtho[2,1-f][1]benzofuran-7-carboxylate

>  <iupac_name>  (1945) 
methyl (4~{a}~{S},5~{R},6~{R},6~{a}~{R},7~{S},11~{a}~{S},11~{b}~{R})-5,6-dihydroxy-4,4,11~{b}-trimethyl-1,2,3,4~{a},5,6,6~{a},7,11,11~{a}-decahydronaphtho[2,1-f]benzofuran-7-carboxylate

>  <annotation_level>  (1945) 
5

>  <total_atom_count>  (1945) 
56

>  <heavy_atom_count>  (1945) 
26

>  <molecular_weight>  (1945) 
362.47

>  <exact_molecular_weight>  (1945) 
362.20932

>  <molecular_formula>  (1945) 
C21H30O5

>  <alogp>  (1945) 
2.89

>  <topological_polar_surface_area>  (1945) 
79.90

>  <rotatable_bond_count>  (1945) 
1

>  <hydrogen_bond_acceptors>  (1945) 
5

>  <hydrogen_bond_donors>  (1945) 
2

>  <hydrogen_bond_acceptors_lipinski>  (1945) 
5

>  <hydrogen_bond_donors_lipinski>  (1945) 
2

>  <lipinski_rule_of_five_violations>  (1945) 
0

>  <aromatic_rings_count>  (1945) 
1

>  <qed_drug_likeliness>  (1945) 
0.75

>  <formal_charge>  (1945) 
0

>  <fractioncsp3>  (1945) 
0.76

>  <number_of_minimal_rings>  (1945) 
4

>  <van_der_walls_volume>  (1945) 
nan

>  <contains_sugar>  (1945) 
False

>  <contains_ring_sugars>  (1945) 
False

>  <contains_linear_sugars>  (1945) 
False

>  <murcko_framework>  (1945) 
o1ccc2c1CC3C(C2)CCC4CCCCC43

>  <np_likeness>  (1945) 
2.56

>  <chemical_class>  (1945) 
Prenol lipids

>  <chemical_sub_class>  (1945) 
Diterpenoids

>  <chemical_super_class>  (1945) 
Lipids and lipid-like molecules

>  <direct_parent_classification>  (1945) 
Diterpenoids

>  <np_classifier_pathway>  (1945) 
Terpenoids

>  <np_classifier_superclass>  (1945) 
Diterpenoids

>  <np_classifier_class>  (1945) 
Cassane diterpenoids

>  <np_classifier_is_glycoside>  (1945) 
False

>  <organisms>  (1945) 
Bowdichia virgilioides|Pterodon emarginatus|Pterodon polygalaeflorus

>  <collections>  (1945) 
Latin America dataset|NPASS|NuBBEDB|WikiData Natural Products

>  <dois>  (1945) 
10.1016/S0031-9422(00)89084-6|10.1021/acs.jnatprod.7b00249

>  <synonyms>  (1945) 
CHEMBL4168416|Methyl 6\u221a\u00e9\u00ac\u00b17\u221a\u00e9\u00ac\u2264-dihydroxyvouacapan-17\u221a\u00e9\u00ac\u2264-oate

>  <cas>  (1945) 
nan

$$$$

     RDKit          2D

 27 30  0  0  0  0  0  0  0  0999 V2000
   -5.1368    3.5884    0.0000 C   0  0  0  0  0  0  0  0  0  0  0  0
   -5.4091    2.1133    0.0000 O   0  0  0  0  0  0  0  0  0  0  0  0
   -4.2678    1.1400    0.0000 C   0  0  0  0  0  0  0  0  0  0  0  0
   -2.8542    1.6417    0.0000 C   0  0  0  0  0  0  0  0  0  0  0  0
   -1.7129    0.6684    0.0000 C   0  0  0  0  0  0  0  0  0  0  0  0
   -1.9852   -0.8067    0.0000 C   0  0  0  0  0  0  0  0  0  0  0  0
   -3.3988   -1.3084    0.0000 C   0  0  0  0  0  0  0  0  0  0  0  0
   -4.5401   -0.3351    0.0000 C   0  0  0  0  0  0  0  0  0  0  0  0
   -5.9537   -0.8368    0.0000 O   0  0  0  0  0  0  0  0  0  0  0  0
   -7.0950    0.1365    0.0000 C   0  0  0  0  0  0  0  0  0  0  0  0
   -0.8439   -1.7801    0.0000 C   0  0  0  0  0  0  0  0  0  0  0  0
   -1.1162   -3.2551    0.0000 O   0  0  0  0  0  0  0  0  0  0  0  0
    0.5697   -1.2783    0.0000 C   0  0  0  0  0  0  0  0  0  0  0  0
    1.7110   -2.2517    0.0000 C   0  0  0  0  0  0  0  0  0  0  0  0
    1.4387   -3.7268    0.0000 O   0  0  0  0  0  0  0  0  0  0  0  0
    2.5801   -4.7001    0.0000 C   0  0  0  0  0  0  0  0  0  0  0  0
    3.1246   -1.7500    0.0000 C   0  0  0  0  0  0  0  0  0  0  0  0
    3.3969   -0.2749    0.0000 C   0  0  0  0  0  0  0  0  0  0  0  0
    4.8105    0.2269    0.0000 O   0  0  0  0  0  0  0  0  0  0  0  0
    5.0828    1.7019    0.0000 C   0  0  0  0  0  0  0  0  0  0  0  0
    5.8432    2.9949    0.0000 C   0  0  0  0  0  0  0  0  0  0  0  0
    6.4882    1.1776    0.0000 C   0  0  0  0  0  0  0  0  0  0  0  0
    3.9415    2.6753    0.0000 C   0  0  0  0  0  0  0  0  0  0  0  0
    2.5279    2.1736    0.0000 C   0  0  0  0  0  0  0  0  0  0  0  0
    2.2556    0.6985    0.0000 C   0  0  0  0  0  0  0  0  0  0  0  0
    0.8420    0.1968    0.0000 C   0  0  0  0  0  0  0  0  0  0  0  0
   -0.2993    1.1701    0.0000 O   0  0  0  0  0  0  0  0  0  0  0  0
  1  2  1  0
  2  3  1  0
  3  4  2  0
  4  5  1  0
  5  6  2  0
  6  7  1  0
  7  8  2  0
  8  9  1  0
  9 10  1  0
  6 11  1  0
 11 12  2  0
 11 13  1  0
 13 14  2  0
 14 15  1  0
 15 16  1  0
 14 17  1  0
 17 18  2  0
 18 19  1  0
 19 20  1  0
 20 21  1  0
 20 22  1  0
 20 23  1  0
 23 24  2  0
 24 25  1  0
 25 26  2  0
 26 27  1  0
  8  3  1  0
 26 13  1  0
 27  5  1  0
 25 18  1  0
M  END
>  <identifier>  (1946) 
CNP0080602.0

>  <canonical_smiles>  (1946) 
COC1=CC2=C(C=C1OC)C(=O)C1=C(OC)C=C3OC(C)(C)C=CC3=C1O2

>  <standard_inchi>  (1946) 
InChI=1S/C21H20O6/c1-21(2)7-6-11-14(27-21)10-17(25-5)18-19(22)12-8-15(23-3)16(24-4)9-13(12)26-20(11)18/h6-10H,1-5H3

>  <standard_inchi_key>  (1946) 
HOKSIMRGJUSYMV-UHFFFAOYSA-N

>  <name>  (1946) 
nan

>  <iupac_name>  (1946) 
6,9,10-trimethoxy-3,3-dimethyl-pyrano[2,3-c]xanthen-7-one

>  <annotation_level>  (1946) 
4

>  <total_atom_count>  (1946) 
47

>  <heavy_atom_count>  (1946) 
27

>  <molecular_weight>  (1946) 
368.39

>  <exact_molecular_weight>  (1946) 
368.12599

>  <molecular_formula>  (1946) 
C21H20O6

>  <alogp>  (1946) 
4.16

>  <topological_polar_surface_area>  (1946) 
67.13

>  <rotatable_bond_count>  (1946) 
3

>  <hydrogen_bond_acceptors>  (1946) 
6

>  <hydrogen_bond_donors>  (1946) 
0

>  <hydrogen_bond_acceptors_lipinski>  (1946) 
6

>  <hydrogen_bond_donors_lipinski>  (1946) 
0

>  <lipinski_rule_of_five_violations>  (1946) 
0

>  <aromatic_rings_count>  (1946) 
3

>  <qed_drug_likeliness>  (1946) 
0.65

>  <formal_charge>  (1946) 
0

>  <fractioncsp3>  (1946) 
0.29

>  <number_of_minimal_rings>  (1946) 
4

>  <van_der_walls_volume>  (1946) 
nan

>  <contains_sugar>  (1946) 
False

>  <contains_ring_sugars>  (1946) 
False

>  <contains_linear_sugars>  (1946) 
False

>  <murcko_framework>  (1946) 
O1c2ccccc2Cc3ccc4OCC=Cc4c13

>  <np_likeness>  (1946) 
1.86

>  <chemical_class>  (1946) 
Benzopyrans

>  <chemical_sub_class>  (1946) 
1-benzopyrans

>  <chemical_super_class>  (1946) 
Organoheterocyclic compounds

>  <direct_parent_classification>  (1946) 
Pyranoxanthones

>  <np_classifier_pathway>  (1946) 
Shikimates and Phenylpropanoids

>  <np_classifier_superclass>  (1946) 
Xanthones

>  <np_classifier_class>  (1946) 
Plant xanthones

>  <np_classifier_is_glycoside>  (1946) 
False

>  <organisms>  (1946) 
Lorostemon coelhoi

>  <collections>  (1946) 
Latin America dataset|NuBBEDB|WikiData Natural Products|ZINC NP

>  <dois>  (1946) 
10.1016/0031-9422(73)80714-9

>  <synonyms>  (1946) 
Di-O-Methyllorostemin

>  <cas>  (1946) 
nan

$$$$

     RDKit          2D

 21 21  0  0  0  0  0  0  0  0999 V2000
    0.7324   -2.6905    0.0000 C   0  0  0  0  0  0  0  0  0  0  0  0
    0.2746   -1.2621    0.0000 O   0  0  0  0  0  0  0  0  0  0  0  0
   -1.1914   -0.9444    0.0000 C   0  0  0  0  0  0  0  0  0  0  0  0
   -2.1995   -2.0551    0.0000 C   0  0  0  0  0  0  0  0  0  0  0  0
   -3.6655   -1.7374    0.0000 C   0  0  0  0  0  0  0  0  0  0  0  0
   -4.1233   -0.3089    0.0000 C   0  0  0  0  0  0  0  0  0  0  0  0
   -5.5893    0.0088    0.0000 C   0  0  0  0  0  0  0  0  0  0  0  0
   -6.5974   -1.1019    0.0000 O   0  0  0  0  0  0  0  0  0  0  0  0
   -6.0471    1.4372    0.0000 O   0  0  0  0  0  0  0  0  0  0  0  0
   -3.1151    0.8018    0.0000 C   0  0  0  0  0  0  0  0  0  0  0  0
   -1.6492    0.4840    0.0000 C   0  0  0  0  0  0  0  0  0  0  0  0
   -0.6410    1.5947    0.0000 C   0  0  0  0  0  0  0  0  0  0  0  0
    0.8249    1.2770    0.0000 C   0  0  0  0  0  0  0  0  0  0  0  0
    1.8331    2.3877    0.0000 C   0  0  0  0  0  0  0  0  0  0  0  0
    1.3752    3.8161    0.0000 C   0  0  0  0  0  0  0  0  0  0  0  0
    3.2990    2.0700    0.0000 C   0  0  0  0  0  0  0  0  0  0  0  0
    3.7569    0.6415    0.0000 C   0  0  0  0  0  0  0  0  0  0  0  0
    5.2228    0.3238    0.0000 C   0  0  0  0  0  0  0  0  0  0  0  0
    5.6806   -1.1046    0.0000 C   0  0  0  0  0  0  0  0  0  0  0  0
    7.1466   -1.4223    0.0000 C   0  0  0  0  0  0  0  0  0  0  0  0
    4.6725   -2.2153    0.0000 C   0  0  0  0  0  0  0  0  0  0  0  0
  1  2  1  0
  2  3  1  0
  3  4  2  0
  4  5  1  0
  5  6  2  0
  6  7  1  0
  7  8  2  0
  7  9  1  0
  6 10  1  0
 10 11  2  0
 11 12  1  0
 12 13  1  0
 13 14  2  0
 14 15  1  0
 14 16  1  0
 16 17  1  0
 17 18  1  0
 18 19  2  0
 19 20  1  0
 19 21  1  0
 11  3  1  0
M  END
>  <identifier>  (1947) 
CNP0171759.1

>  <canonical_smiles>  (1947) 
COC1=CC=C(C(=O)O)C=C1C/C=C(\C)CCC=C(C)C

>  <standard_inchi>  (1947) 
InChI=1S/C18H24O3/c1-13(2)6-5-7-14(3)8-9-15-12-16(18(19)20)10-11-17(15)21-4/h6,8,10-12H,5,7,9H2,1-4H3,(H,19,20)/b14-8+

>  <standard_inchi_key>  (1947) 
IHSAYXMNBDVWDA-RIYZIHGNSA-N

>  <name>  (1947) 
nan

>  <iupac_name>  (1947) 
nan

>  <annotation_level>  (1947) 
0

>  <total_atom_count>  (1947) 
45

>  <heavy_atom_count>  (1947) 
21

>  <molecular_weight>  (1947) 
288.39

>  <exact_molecular_weight>  (1947) 
288.17254

>  <molecular_formula>  (1947) 
C18H24O3

>  <alogp>  (1947) 
4.63

>  <topological_polar_surface_area>  (1947) 
46.53

>  <rotatable_bond_count>  (1947) 
7

>  <hydrogen_bond_acceptors>  (1947) 
2

>  <hydrogen_bond_donors>  (1947) 
1

>  <hydrogen_bond_acceptors_lipinski>  (1947) 
2

>  <hydrogen_bond_donors_lipinski>  (1947) 
1

>  <lipinski_rule_of_five_violations>  (1947) 
0

>  <aromatic_rings_count>  (1947) 
1

>  <qed_drug_likeliness>  (1947) 
0.74

>  <formal_charge>  (1947) 
0

>  <fractioncsp3>  (1947) 
0.39

>  <number_of_minimal_rings>  (1947) 
1

>  <van_der_walls_volume>  (1947) 
291.27

>  <contains_sugar>  (1947) 
False

>  <contains_ring_sugars>  (1947) 
False

>  <contains_linear_sugars>  (1947) 
False

>  <murcko_framework>  (1947) 
c1ccccc1

>  <np_likeness>  (1947) 
1.45

>  <chemical_class>  (1947) 
nan

>  <chemical_sub_class>  (1947) 
nan

>  <chemical_super_class>  (1947) 
nan

>  <direct_parent_classification>  (1947) 
nan

>  <np_classifier_pathway>  (1947) 
Shikimates and Phenylpropanoids

>  <np_classifier_superclass>  (1947) 
Phenolic acids (C6-C1)

>  <np_classifier_class>  (1947) 
Shikimic acids and derivatives

>  <np_classifier_is_glycoside>  (1947) 
False

>  <organisms>  (1947) 
Peperomia macrostachya|Peperomia macrostachyos|Piper aduncum|piper sp.

>  <collections>  (1947) 
ChemSpider NPs|Latin America dataset|NPASS|NuBBEDB|Super Natural II|TCMDB-Taiwan (Traditional Chinese Medicine database)|WikiData Natural Products|ZINC NP

>  <dois>  (1947) 
10.1016/S0031-9422(99)00132-6|10.1021/NP030530J|10.3136/FSTI9596T9798.3.285

>  <synonyms>  (1947) 
nan

>  <cas>  (1947) 
nan

$$$$

     RDKit          2D

 43 47  0  0  0  0  0  0  0  0999 V2000
    9.3137    1.4280    0.0000 C   0  0  0  0  0  0  0  0  0  0  0  0
    7.9730    0.7553    0.0000 C   0  0  0  0  0  0  0  0  0  0  0  0
    6.7201    1.5801    0.0000 O   0  0  0  0  0  0  0  0  0  0  0  0
    5.3794    0.9075    0.0000 C   0  0  0  0  0  0  0  0  0  0  0  0
    4.1265    1.7323    0.0000 O   0  0  0  0  0  0  0  0  0  0  0  0
    2.7857    1.0596    0.0000 C   0  0  0  0  0  0  0  0  0  0  0  0
    1.5329    1.8844    0.0000 C   0  0  0  0  0  0  0  0  0  0  0  0
    0.1921    1.2118    0.0000 O   0  0  0  0  0  0  0  0  0  0  0  0
   -1.0608    2.0365    0.0000 C   0  0  0  0  0  0  0  0  0  0  0  0
   -2.4015    1.3639    0.0000 O   0  0  0  0  0  0  0  0  0  0  0  0
   -2.4893   -0.1335    0.0000 C   0  0  0  0  0  0  0  0  0  0  0  0
   -3.8301   -0.8062    0.0000 C   0  0  0  0  0  0  0  0  0  0  0  0
   -5.0829    0.0186    0.0000 C   0  0  0  0  0  0  0  0  0  0  0  0
   -4.9951    1.5160    0.0000 C   0  0  0  0  0  0  0  0  0  0  0  0
   -6.2480    2.3408    0.0000 C   0  0  0  0  0  0  0  0  0  0  0  0
   -7.5887    1.6682    0.0000 C   0  0  0  0  0  0  0  0  0  0  0  0
   -8.8416    2.4930    0.0000 O   0  0  0  0  0  0  0  0  0  0  0  0
   -7.6766    0.1707    0.0000 C   0  0  0  0  0  0  0  0  0  0  0  0
   -9.0173   -0.5019    0.0000 O   0  0  0  0  0  0  0  0  0  0  0  0
   -6.4237   -0.6540    0.0000 C   0  0  0  0  0  0  0  0  0  0  0  0
   -3.9179   -2.3036    0.0000 O   0  0  0  0  0  0  0  0  0  0  0  0
   -2.6650   -3.1284    0.0000 C   0  0  0  0  0  0  0  0  0  0  0  0
   -2.7528   -4.6258    0.0000 C   0  0  0  0  0  0  0  0  0  0  0  0
   -1.4999   -5.4506    0.0000 C   0  0  0  0  0  0  0  0  0  0  0  0
   -1.5878   -6.9480    0.0000 O   0  0  0  0  0  0  0  0  0  0  0  0
   -0.1592   -4.7779    0.0000 C   0  0  0  0  0  0  0  0  0  0  0  0
   -0.0714   -3.2805    0.0000 C   0  0  0  0  0  0  0  0  0  0  0  0
    1.2693   -2.6079    0.0000 O   0  0  0  0  0  0  0  0  0  0  0  0
   -1.3243   -2.4557    0.0000 C   0  0  0  0  0  0  0  0  0  0  0  0
   -1.2364   -0.9583    0.0000 C   0  0  0  0  0  0  0  0  0  0  0  0
    0.1043   -0.2857    0.0000 O   0  0  0  0  0  0  0  0  0  0  0  0
   -0.9729    3.5340    0.0000 C   0  0  0  0  0  0  0  0  0  0  0  0
   -2.2258    4.3587    0.0000 O   0  0  0  0  0  0  0  0  0  0  0  0
    0.3678    4.2066    0.0000 C   0  0  0  0  0  0  0  0  0  0  0  0
    0.4556    5.7040    0.0000 O   0  0  0  0  0  0  0  0  0  0  0  0
    1.6207    3.3818    0.0000 C   0  0  0  0  0  0  0  0  0  0  0  0
    2.9614    4.0545    0.0000 O   0  0  0  0  0  0  0  0  0  0  0  0
    5.2915   -0.5899    0.0000 C   0  0  0  0  0  0  0  0  0  0  0  0
    3.9508   -1.2626    0.0000 O   0  0  0  0  0  0  0  0  0  0  0  0
    6.5444   -1.4147    0.0000 C   0  0  0  0  0  0  0  0  0  0  0  0
    6.4566   -2.9122    0.0000 O   0  0  0  0  0  0  0  0  0  0  0  0
    7.8851   -0.7421    0.0000 C   0  0  0  0  0  0  0  0  0  0  0  0
    9.1380   -1.5669    0.0000 O   0  0  0  0  0  0  0  0  0  0  0  0
  2  1  1  1
  2  3  1  0
  3  4  1  0
  4  5  1  6
  5  6  1  0
  7  6  1  1
  7  8  1  0
  8  9  1  0
  9 10  1  1
 10 11  1  0
 11 12  2  0
 12 13  1  0
 13 14  2  0
 14 15  1  0
 15 16  2  0
 16 17  1  0
 16 18  1  0
 18 19  1  0
 18 20  2  0
 12 21  1  0
 21 22  1  0
 22 23  2  0
 23 24  1  0
 24 25  1  0
 24 26  2  0
 26 27  1  0
 27 28  1  0
 27 29  2  0
 29 30  1  0
 30 31  2  0
  9 32  1  0
 32 33  1  6
 32 34  1  0
 34 35  1  1
 34 36  1  0
 36 37  1  6
  4 38  1  0
 38 39  1  1
 38 40  1  0
 40 41  1  1
 40 42  1  0
 42 43  1  6
 42  2  1  0
 36  7  1  0
 30 11  1  0
 20 13  1  0
 29 22  1  0
M  END
>  <identifier>  (1948) 
CNP0268715.1

>  <canonical_smiles>  (1948) 
C[C@@H]1O[C@@H](OC[C@H]2O[C@@H](OC3=C(C4=CC=C(O)C(O)=C4)OC4=CC(O)=CC(O)=C4C3=O)[C@H](O)[C@@H](O)[C@@H]2O)[C@H](O)[C@H](O)[C@H]1O

>  <standard_inchi>  (1948) 
InChI=1S/C27H30O16/c1-8-17(32)20(35)22(37)26(40-8)39-7-15-18(33)21(36)23(38)27(42-15)43-25-19(34)16-13(31)5-10(28)6-14(16)41-24(25)9-2-3-11(29)12(30)4-9/h2-6,8,15,17-18,20-23,26-33,35-38H,7H2,1H3/t8-,15+,17-,18+,20+,21-,22+,23+,26+,27-/m0/s1

>  <standard_inchi_key>  (1948) 
IKGXIBQEEMLURG-NVPNHPEKSA-N

>  <name>  (1948) 
RUTIN

>  <iupac_name>  (1948) 
2-(3,4-dihydroxyphenyl)-5,7-dihydroxy-3-[(2~{S},3~{R},4~{S},5~{S},6~{R})-3,4,5-trihydroxy-6-[[(2~{R},3~{R},4~{R},5~{R},6~{S})-3,4,5-trihydroxy-6-methyl-tetrahydropyran-2-yl]oxymethyl]tetrahydropyran-2-yl]oxy-chromen-4-one

>  <annotation_level>  (1948) 
5

>  <total_atom_count>  (1948) 
73

>  <heavy_atom_count>  (1948) 
43

>  <molecular_weight>  (1948) 
610.52

>  <exact_molecular_weight>  (1948) 
610.15338

>  <molecular_formula>  (1948) 
C27H30O16

>  <alogp>  (1948) 
-1.69

>  <topological_polar_surface_area>  (1948) 
269.43

>  <rotatable_bond_count>  (1948) 
6

>  <hydrogen_bond_acceptors>  (1948) 
16

>  <hydrogen_bond_donors>  (1948) 
10

>  <hydrogen_bond_acceptors_lipinski>  (1948) 
16

>  <hydrogen_bond_donors_lipinski>  (1948) 
10

>  <lipinski_rule_of_five_violations>  (1948) 
3

>  <aromatic_rings_count>  (1948) 
3

>  <qed_drug_likeliness>  (1948) 
0.14

>  <formal_charge>  (1948) 
0

>  <fractioncsp3>  (1948) 
0.44

>  <number_of_minimal_rings>  (1948) 
5

>  <van_der_walls_volume>  (1948) 
491.62

>  <contains_sugar>  (1948) 
True

>  <contains_ring_sugars>  (1948) 
True

>  <contains_linear_sugars>  (1948) 
False

>  <murcko_framework>  (1948) 
O1c2ccccc2CC(OC3OC(COC4OCCCC4)CCC3)=C1c5ccccc5

>  <np_likeness>  (1948) 
2.01

>  <chemical_class>  (1948) 
Flavonoids

>  <chemical_sub_class>  (1948) 
Flavonoid glycosides

>  <chemical_super_class>  (1948) 
Phenylpropanoids and polyketides

>  <direct_parent_classification>  (1948) 
Flavonoid-3-O-glycosides

>  <np_classifier_pathway>  (1948) 
Shikimates and Phenylpropanoids

>  <np_classifier_superclass>  (1948) 
Flavonoids

>  <np_classifier_class>  (1948) 
Flavonols

>  <np_classifier_is_glycoside>  (1948) 
True

>  <organisms>  (1948) 
Aaptos aaptos|Abelia chinensis|Abeliophyllum distichum|Abelmoschus manihot|Abies bifolia|Abutilon theophrasti|Acacia armata|Acacia aulacocarpa|Acacia cambagei|Acacia floribunda|Acacia kempeana|Acacia latifolia|Acacia sp.|Acalypha australis|Acalypha hispida|Acalypha indica|Acanthias vulgaris|Acanthophyllum elatius|Acanthospermum australe|Acer glabrum|Acer negundo|Achillea Millefolium|Achillea alexandri-regis|Achillea biebersteinii|Achillea collina|Achillea millefolium|Achillea nana|Achillea pannonica|Achillea roseo-alba|Achillea sp.|Acicarpha tribuloides|Acmella ciliata|Acmella oleracea|Acnistus breviflorus|Aconitum brevicalcaratum|Aconitum kamtschaticum|Aconitum napellus|Aconitum nevadense|Aconitum seravschanicum|Aconitum tasiromontanum|Aconitum variegatum|Aconitum vilmorinianum|Acrisione denticulata|Acritopappus longifolius|Acrotrema uniflorum|Actinidia chinensis|Actinidia chinensis var. deliciosa|Actinidia chinensis var. hispida|Actinidia deliciosa|Actinidia kolomikta|Actinobacillus pleuropneumoniae|Adansonia grandidieri|Adenocarpus viscosus|Adiantum sp.|Adonis sutchuenensis|Aesculus hippocastanum|Aesculus indica|Aesculus sp.|Aethusa sp.|Aframomum amaniense|Aframomum sulcatum|Aganosma heynei|Agave salmiana|Ageratina saltillensis|Ageratina tomentella|Aglaia formosana|Aglaia tsangii|Agrimonia Pilosa|Agrimonia eupatoria|Agrimonia pilosa|Aguacate|Ailanthus altissima|Ailanthus giraldii|Aizopsis selskiana|Ajuga integrifolia|Akebia quinata|Alangium kurzii|Alangium platanifolium|Albizia inundata|Albizia myriophylla|Alchemilla speciosa|Alchornea cordifolia|Alectoria divergens|Aleuritopteris farinosa|Aleuritopteris formosana|Alexandrium excavatum|Alexandrium hiranoi|Alhagi graecorum|Alhagi persarum|Alkanna cappadocica|Alkanna orientalis|Alkanna sp.|Allium cepa|Allium sativum|Aloe Vera|Aloe africana|Aloe ferox|Aloe spicata|Aloe vera|Alpinia flabellata|Alpinia katsumadai|Alpinia zerumbet|Alseodaphne corneri|Alternaria bataticola|Alyxia reinwardtii|Amaracus akhdarensis|Amaranthus Spinosus|Amaranthus caudatus|Amaranthus cruentus|Amaranthus hybridus|Amaranthus hypochondriacus|Amaranthus retroflexus|Amaranthus sp.|Amaranthus viridis|Amelanchier alnifolia|Amelanchier bartramiana|Amelanchier humilis|Amelanchier oligocarpa|Amelanchier sanguinea|Amelanchier spicata|Ammannia coccinea|Ammi visnaga|Ammodendron conollyi|Amomum daniellii|Amomum villosum|Amoora yunnanensis|Amphilophis odorata|Amphorogyne spicata|Amsinckia tessellata|Amsonia orientalis|Amyris marshii|Anacardium humile|Anagallis arvensis|Anagallis sp.|Anaphalis lactea|Anastatica hierochuntica|Anaxagorea dolichocarpa|Anchusa azurea|Anchusa sp.|Androsace septentrionalis|Androsace umbellata|Anemone flaccida|Angelica|Angelica formosana|Angelica japonica|Angelica taiwaniana|Angophora hispida|Anigozanthos pulcherrimus|Anigozanthos rufus|Anisodus luridus|Anisopappus pinnatifidus|Annona impressivenia|Annona rensoniana|Annulohypoxylon cohaerens|Anolis lineatopus|Anthriscus sylvestris|Anthyllis onobrychoides|Aphis graminum|Aphis pini|Aphyllocladus denticulatus|Aplidium caelestis|Aplophyllum alberti-regelii|Aplysia punctata|Apocynum venetum|Arachniodes dimorphophylla|Archidendron ellipticum|Arctium sp.|Arctostaphylos sp.|Ardisia japonica|Ardisia neriifolia|Argemone mexicana|Argemone platyceras|Argemone polyanthemos|Aria edulis|Aristeguietia discolor|Aristeguietia gayana|Aristolochia Kaempferi|Aristolochia cucurbitifolia|Aristolochia kaempferi|Aristolochia maxima|Aristolochia zollingeriana|Arnica chamissonis|Arnica viscosa|Aronia melanocarpa|Artemisia Annua|Artemisia alba|Artemisia annua|Artemisia apiacea|Artemisia armeniaca|Artemisia capillaris|Artemisia cina|Artemisia dentata|Artemisia dracunculus|Artemisia dracunculus var. glauca|Artemisia herba-alba|Artemisia igniaria|Artemisia iwayomogi|Artemisia monosperma|Artemisia rehan|Artemisia salsoloides|Artemisia sp.|Artemisia sylvatica|Artemisia vachanica|Artemisia vulgaris|Artocarpus altilis|Arum maculatum|Arum sp.|Aruncus dioicus|Ascarina lucida|Asclepias sp.|Asimina parviflora|Aspalathus linearis|Asparagus officinalis|Asparagus racemosus|Asparagus sp.|Aspergillus|Aspergillus desertorum|Aspergillus fischeri|Aspergillus fumisynnematus|Aspergillus mutabilis|Aspergillus nomius|Aspergillus unguis|Aspergillus wentii|Aspidosperma subincanum|Aster alpinus|Aster indicus|Aster sedifolius|Asterias glacialis|Astilbe chinensis|Astilbe myriantha|Astilbe rubra|Astilbe thunbergii|Astraeus pteridis|Astragalus aegobromus|Astragalus angustifolius|Astragalus arguricus|Astragalus asper|Astragalus babatagi|Astragalus bisulcatus|Astragalus bornmuellerianus|Astragalus bungeanus|Astragalus captiosus|Astragalus cicer|Astragalus ciceroides|Astragalus circassicus|Astragalus coluteocarpus|Astragalus dissectus|Astragalus ernestii|Astragalus eupeplus|Astragalus floccosifolius|Astragalus goktschaicus|Astragalus interpositus|Astragalus kabadianus|Astragalus levieri|Astragalus macropterus|Astragalus membranaceus|Astragalus mongholicus|Astragalus monspessulanus|Astragalus onobrychis|Astragalus quisqualis|Astragalus saganlugensis|Astragalus sevangensis|Astragalus trimestris|Astragalus verrucosus|Astragalus wagneri|Astrantia sp.|Atalantia racemosa|Atalantia wightii|Athanasia dregeana|Atraphaxis spinosa|Atropa sp.|Atta cephalotes|Attagenus elongatulus|Aucuba chinensis|Audouinia tentaculata|Aulacocephalus temmincki|Aulosira fertilissima|Aurelia aurita|Avena sativa|Avicennia marina|Avrainvillea longicaulis|Axinyssa variabilis|Azadirachta indica|Baccharis dracunculifolia|Baccharis gaudichaudiana|Baccharis neglecta|Baccharis rosmarinifolia|Baccharis sagittalis|Baccharis solieri|Baccharis thesioides|Baccharis trimera|Baccharis truncata|Baccharoides lasiopus|Bacillus thuringiensis|Bacterium sa|Badilloa salicina|Baillonella toxisperma|Balanophora involucrata|Balanophora japonica|Balanophora laxiflora|Ballota limbata|Baptisia sp.|Barosma sp.|Barringtonia racemosa|Bartramia pomiformis|Bassia muricata|Bauhinia tomentosa|Begonia fagifolia|Begonia sp.|Beilschmiedia anacardioides|Bellium bellidioides|Benincasa hispida|Berberis crataegina|Berberis heteropoda|Berberis integerrima|Berberis koreana|Berberis orthobotrys|Berberis repens|Berberis sieboldii|Berberis vulgaris|Berchemia floribunda|Berchemia formosana|Berchemia racemosa|Bergenia crassifolia|Bergenia purpurascens|Berneuxia thibetica|Bersama yangambiensis|Beta vulgaris|Betula alnoides|Betula dahurica|Betula fruticosa|Betula humilis|Betula mandshurica|Betula ovalifolia|Betula pubescens|Betula sp.|Bidens pilosa|Bidens sp.|Bipolaris heveae|Bipolaris sacchari|Bischofia trifoliata|Bistorta vivipara|Bitter bush|Blumea eriantha|Boehmeria nivea|Boenninghausenia albiflora|Bongardia chrysogonum|Boopis graminea|Boraginaceae|Boronella koniambiensis|Boronia coerulescens|Boronia gracilipes|Bothriocline ripensis|Botrydium granulatum|Botryosphaeria berengeriana|Botryotrichum piluliferum|Brachyglottis bidwillii|Brachyglottis cassinioides|Brachyspira hyodysenteriae|Brassica oleracea|Brassica rapa|Bredemeyera brevifolia|Bredemeyera floribunda|Breea segeta|Breonia chinensis|Brevibacillus laterosporus|Briareum asbestinum|Brickellia vernicosa|Brickelliastrum fendleri|Bridelia ferruginea|Bridelia sp.|Bruguiera rhynchopetala|Bryum argenteum|Buchanania cochinchinensis|Buchanania lanzan|Buddleja cordata|Buddleja globosa|Bulbinella floribunda|Bunodosoma caissarum|Buphane fischeri|Bupleurum chinense|Bupleurum exaltatum|Bupleurum falcatum|Bupleurum fruticescens|Bupleurum lancifolium|Bupleurum nanum|Bupleurum rotundifolium|Bupleurum semicompositum|Bupleurum sp.|Burkholderia cepacia|Caesalpinia Pulcherrima|Caesalpinia pulcherrima|Calamagrostis arundinacea|Calamagrostis canadensis var. langsdorffii|Calamagrostis deschampsioides|Calamagrostis fauriei|Calamagrostis gigas|Calamagrostis hakonensis|Calamagrostis matsumurae|Calamagrostis sachalinensis|Calamagrostis tashiroi|Calcarisporium thermophilum|Calceolaria thyrsiflora|Calea lantanoides|Calendula Officinalis|Calendula officinalis|Calendula sp.|Calicotome villosa|Callicarpa japonica|Calliphora vicina|Callyspongia spinosissima|Calodendrum capense|Calophyllum thwaitesii|Calycera crassifolia|Calycera crassifolia var. spinulosa|Calycera eryngioides|Calycera herbacea|Calycera leucanthema|Calycera sympaganthera|Calycotome villosa|Camellia crassicolumna|Camellia crassicolumna var. multiplex|Camellia japonica|Camellia sinensis|Campanula alata|Campanula barbata|Campanula bayerniana|Campanula maleevii|Campanula persicifolia|Campanula takhtadzhianii|Campanula zangezura|Campylotropis hirtella|Canarium strictum|Capparis decidua|Capparis orientalis|Capparis spinosa|Capsella sp.|Capsicum annuum|Caragana arborescens|Caragana aurantiaca|Caragana pygmaea|Caragana spinosa|Caragana tibetica|Caralluma stalagmifera|Carduus nutans|Carduus tenuiflorus|Carex folliculata|Carex sp.|Carica dodecaphylla|Carpobrotus edulis|Carteriospongia foliascens|Carthamus Tinctorius|Carthamus lanatus|Carthamus tinctorius|Caryocar villosum|Casimiroa tetrameria|Cassia Hirsuta|Cassipourea gerrardii|Cassytha Filiformis|Cassytha filiformis|Castanea sativa|Castanea sp.|Castanopsis cuspidata|Castanopsis sclerophylla|Casuarina sp.|Cathormion altissimum|Caucasalia pontica|Caulerpa peltata|Caulocystis cephalornithos|Ceanothus sp.|Cecropia glaziovii|Cecropia pachystachya|Cedrela fissilis|Cedronella canariensis|Cedrus libani|Celastrus hindsii|Centaurea alexandrina|Centaurea benedicta|Centaurea calcitrapa|Centaurea cana|Centaurea glomerata|Centaurea horrida|Centaurea huber-morathii|Centaurea linifolia|Centaurea maculosa|Centaurea solstitialis|Centella asiatica|Cephalaria grossheimii|Cephalaria paphlagonica|Cephalotaxus harringtonii var. harringtonii|Cephalotus follicularis|Cereus blanckii|Cereus candicans|Cereus polyrhizus|Cerinthe minor|Ceriops decandra|Ceropegia dichotoma|Chaenomeles sinensis|Chaenomeles speciosa|Chaerophyllum sp.|Chaetomium carinthiacum|Chaetomium cochliodes|Chaiturus marrubiastrum|Chamomilla recutita|Chara ceratophylla|Cheilanthes fragrans|Chelidonium majus|Chelonia japonica|Chenopodiastrum murale|Chenopodium album|Chenopodium murale|Chenopodium pallidicaule|Chiloscyphus rivularis|Chimarrhis turbinata|Chiton tuberculatus|Chloranthus fortunei|Chlorociboria aeruginascens|Chondrodendron tomentosum|Chromodoris inornata|Chromolaena moritziana|Chromolaena odorata|Chroogomphus helveticus|Chrozophora obliqua|Chrozophora plicata|Chrozophora rottleri|Chrozophora tinctoria|Chrozophora verbascifolia|Chrysanthemum indicum|Chrysanthemum x morifolium|Chrysolina fastuosa|Chuanminshen violaceum|Chuquiraga atacamensis|Chuquiraga erinacea|Chuquiraga parviflora|Chuquiraga spinosa|Chuquiraga straminea|Cibotium barometz|Cichorium intybus|Cicuta sp.|Cineraria abyssinica|Cinnamomum zeylanicum|Cinnamon|Cipadessa fruticosa|Cirsium dipsacolepis|Cirsium setosum|Cirsium sp.|Cissus discolor|Cissus sicyoides|Cistus creticus|Cistus ladanifer|Citrus aurantium|Citrus excelsa|Citrus grandis|Citrus hystrix|Citrus jambhiri|Citrus limon|Citrus macrophylla|Citrus medica|Citrus natsudaidai|Citrus reticulata|Citrus shunkokan|Citrus tangerina|Citrus tengu|Citrus ujukitsu|Citrus unshiu|Citrus webberi|Citrus wilsonii|Citrus × deliciosa|Citrus × paradisi|Cladiella australis|Cladogynos orientalis|Cladonia impexa|Cladophora laetevirens|Cladosporium cucumerinum|Cladrastis platycarpa|Clarkia heterandra|Clausena excavata|Clausena lenis|Clavariopsis aquatica|Clematis koreana|Clematis stans|Clematis terniflora|Cleome|Clerodendrum bungei|Clinopodium carolinianum|Clinopodium grandiflorum|Clione antarctica|Clitoria Ternatea|Clitoria ternatea|Clusia ellipticifolia|Cneoridium dumosum|Cocculus diversifolius|Coccus ilicis|Codium dwarkense|Coelogorgia palmosa|Coffea bengalensis|Colchicum laetum|Coleus esquirolii|Colladonia triquetra|Colubrina Asiatica|Colubrina asiatica|Coniochaeta saccardoi|Conocarpus erectus|Conocephalum japonicum|Consolida hohenackeri|Conus marmoreus|Conus mus|Conyza canadensis|Conyza filaginoides|Coprinellus flocculosus|Coprosma areolata|Coprosma rhamnoides|Coptis trifolia subsp. groenlandica|Cordia francisci|Cordia leucocephala|Cordia martinicensis|Cordia myxa|Cordia serratifolia|Cordiera sessilis|Cordylanthus kingii|Coreopsis auriculata|Coreopsis basalis|Coreopsis grandiflora|Coreopsis intermedia|Coreopsis lanceolata|Coreopsis nuecensis|Coreopsis nuecensoides|Coreopsis pubescens|Coreopsis wrightii|Coriandrum sativum|Coriandrum sp.|Cornus controversa|Cornus mas|Cornus sp.|Coronilla cretica|Corticium simplex|Cortinarius orellanus|Corydalis bungeana|Corydalis persica|Corymbia citriodora|Corynanthe pachyceras|Corynocarpus laevigatus|Cosmos diversifolius|Cota tinctoria|Cotoneaster orbicularis|Couepia paraensis|Crambe tatarica|Craspidospermum verticillatum|Crassocephalum mannii|Crassostrea gigas|Crataegus laciniata|Crataegus laevigata|Crataegus monogyna|Crataegus orientalis|Crataegus oxyacantha L. (1753)|Crataegus pinnatifida|Crataegus pontica|Crataegus sanguinea|Crataegus sinaica|Crataegus sp.|Crataegus viridis|Crepidomanes minutum|Crescentia alata|Cressa cretica|Crinipellis scabella|Crinum kirkii|Crinum moorei|Crocus minimus|Crocus sativus|Crossopteryx febrifuga|Crotalaria candicans|Croton caudatus|Croton celtidifolius|Croton cumingii|Croton laccifer|Croton menthodorus|Croton rhamnifolius|Cryptocarya aschersoniana|Cryptocarya lividula|Cryptocarya oblata|Cryptolestes ferrugineus|Cryptomonas ovata|Cryptotaenia japonica|Cucumis sativus|Cucurbita maxima|Cucurbita moschata|Cucurbita pepo|Cucurbita sp.|Cunonia macrophylla|Cuphea hyssopifolia|Cupressus sempervirens|Curarea candicans|Curculigo pilosa|Curcuma caesia|Curio ficoides|Curio hallianus|Curio herreanus|Curio ovoideus|Curio radicans|Curio repens|Curio rowleyanus|Curio sulcicalyx|Curio talinoides var. chordifolius|Curio talinoides var. mandraliscae|Curvularia coicis|Cuscuta australis|Cuscuta chinensis|Cussonia arborea|Cyamopsis sp.|Cyathea phalerata|Cyclamen persicum|Cyclea racemosa|Cydonia|Cydonia oblonga|Cydonia vulgaris|Cylindrospermum muscicola|Cymbastela coralliophila|Cynara cornigera|Cynara humilis|Cynara sp.|Cynoglossum amabile|Cynometra lujae|Cynomorium songaricum|Cystophora scalaris|Cystoseira crinita|Cytisus scoparius|Cytophaga hutchinsoni|Dactylorhiza maculata|Dalbergia ecastaphyllum|Dalbergia lanceolaria subsp. paniculata|Dalbergia sissoo|Daniellia oliveri|Daphnandra aromatica|Daphnis nerii|Datura ceratocaula|Datura inoxia|Datura stramonium|Daucus carota|Debregeasia orientalis|Decaisnea fargesii|Degenia velebitica|Delphinium dzavakhischwilii|Delphinium fissum|Delphinium formosum|Delphinium freynii|Delphinium nuttallianum|Delphinium schmalhausenii|Delphinium thamarae|Delphinium virgatum|Delphinus globiceps|Dendrilla cavernosa|Dendriopoterium menendezii|Dendrobates azureus|Dendrobium bigibbum var. superbum|Dendrobium crepidatum|Dendrobium loddigesii|Dendrobium thyrsiflorum|Dendrodoris krebsii|Dendronephthya griffini|Dermasterias imbricata|Dermatophyllum secundiflorum|Desmanthus illinoensis|Desmodium canadense|Desmodium gangeticum|Desmodium styracifolium|Deverra tortuosa|Diaphus suborbitalis|Dichrocephala bicolor|Dicranopteris linearis|Dicranum elongatum|Dictamnus albus|Dictamnus dasycarpus|Dictamnus sp.|Dictyochaeta simplex|Dictyopteris acrostichoides|Dictyopteris australis|Didymium bahiense|Didymoglossum krausii|Didymoglossum kraussii|Dillenia indica|Dimerostemma brasilianum|Dimorphandra mollis|Dioscorea japonica|Diospyros assimilis|Diospyros buxifolia|Diospyros cathayensis|Diospyros eriantha|Diospyros montana|Diphasiastrum thyoides|Diplazium esculentum|Diplazium nipponicum|Diplodia natalensis|Dipsacus azureus|Dipteronia dyeriana|Discaria chacaye|Discaria crenata|Distephanus angulifolius|Disynaphia halimifolia|Dodonaea polyandra|Dodonaea viscosa|Dolabella californica|Dolichospermum affine|Dolichothele uberiformis|Doniophyton anomalum|Doodia picta|Doronicum austriacum|Doronicum caucasicum|Doronicum corsicum|Doronicum grandiflorum|Doronicum macrophyllum|Doronicum orientale|Doronicum pardalianches|Dorycnium suffruticosum|Doryopteris concolor|Dracaena ombet|Dracocephalum moldavica|Drosera indica|Drummondita hassellii|Drymaria cordata|Dryopteris aitoniana|Dryopteris polylepis|Dryopteris sacrosancta|Dumoria heckeli|Dysosma pleianthum|Dysoxylum cumingianum|Dytiscus marginalis|Ebenus sibthorpii|Echinacea angustifolia|Echinacea pallida|Echinacea purpurea|Echinacea sp.|Echinoclathria subhispida|Echinocystis lobata|Echinopsis spachiana|Echinosophora koreensis|Ectropis bicolor|Ehretia dicksonii|Elaeocarpus fuscoides|Elaeodendron alluaudianum|Elatophilus hebraicus|Elegia deusta|Elephantopus hirtiflorus|Eleusine indica|Eleutherococcus senticosus|Elizabethkingia meningoseptica|Elsholtzia cristata|Embelia parviflora|Embelia schimperi|Empetrum nigrum|Enceliopsis argophylla|Entada phaseoloides|Entada rheedei|Enterococcus faecalis|Ephedra campylopoda|Ephedra distachya|Ephedra foeminea|Ephedra sinica|Ephedra sp.|Epichloe festucae var. lolii|Epilobium hirsutum|Epilobium parviflorum|Epimedium brevicornu|Epimedium grandiflorum|Epimedium koreanum|Epimedium pubescens|Epimedium sagittatum|Epimedium sempervirens|Epimedium wushanense|Equisetum bogotense|Equisetum hyemale|Equisetum sylvaticum|Eragrostis curvula|Eragrostis viscosa|Eremanthus seidelii|Eremocitrus glauca|Eria anomala|Eria japonica|Eria mollis|Eria rigida|Eria subsessilis|Erica cinerea|Erica glauca|Erica sp.|Erigeron canadensis|Erinaceus europaeus|Eriobotrya japonica|Eriocephalus pauperrimus|Eriocheir sinensis|Eriostemon tomentellus|Erodium crassifolium|Erodium stephanianum|Erylus trisphaerus|Eryngium campestre|Erysimum cheiranthoides|Erysimum leptophyllum|Erythrina americana|Erythrina folkersii|Erythrina melanacantha|Erythrina pallida|Erythrophleum couminga|Erythrophleum ivorense|Erythroxylum argentinum|Erythroxylum cambodianum|Erythroxylum engleri|Erythroxylum passerinum|Erythroxylum pruinosum|Erythroxylum sp.|Erythroxylum subracemosum|Erythroxylum vacciniifolium|Eschenbachia blinii|Eschscholzia californica|Esenbeckia hartmanii|Esenbeckia leiocarpa|Esenbeckia pumila|Esox saurus|Eucalyptus Camaldulensis|Eucalyptus Globulus|Eucalyptus alpina|Eucalyptus apodophylla|Eucalyptus australiana|Eucalyptus camaldulensis|Eucalyptus cypellocarpa|Eucalyptus dalrympleana|Eucalyptus globulus subsp. bicostata|Eucalyptus sideroxylon|Eucalyptus sp.|Eucommia Ulmoides|Eucommia ulmoides|Eudistoma bituminis|Eunicella cavolinii|Euodia rutaecarpa|Euonymus alatus|Euonymus laxiflorus|Eupatorium areolare|Eupatorium argentinum|Eupatorium cannabinum|Eupatorium lindleyanum|Eupatorium petiolare|Eupatorium villosum|Euphorbia Hirta|Euphorbia amygdaloides|Euphorbia chamaesyce|Euphorbia ebracteolata|Euphorbia ferganensis|Euphorbia formosana|Euphorbia granulata|Euphorbia heteradena|Euphorbia hirta|Euphorbia humifusa|Euphorbia larica|Euphorbia myrsinites|Euphorbia nematocypha|Euphorbia palustris|Euphorbia pannonica|Euphorbia pekinensis|Euphorbia petiolata|Euphorbia pithyusa|Euphorbia retusa|Euphorbia scripta|Euphorbia smirnovii|Euphorbia sp.|Euphorbia sulcata|Euphorbia virgata|Euphoria longan|Euphrasia sp.|Euryops arabicus|Euthamia graminifolia|Excoecaria agallocha|Fabiana imbricata|Fadogia agrestis|Fagonia arabica|Fagonia glutinosa|Fagonia indica|Fagonia latifolia|Fagonia scabra|Fagopyrum Esculentum|Fagopyrum acutatum|Fagopyrum cymosum|Fagopyrum dibotrys|Fagopyrum esculentum|Fagopyrum sp.|Fagopyrum tataricum|Falconeria insignis|Fallopia multiflora|Fallopia sp.|Faramea salicifolia|Farfugium japonicum|Farlowia mollis|Felicia amelloides|Felimida luteorosea|Ferulago sylvatica|Ficus Carica|Ficus Pumila|Ficus carica|Ficus nervosa|Ficus pandurata|Ficus pumila|Ficus ruficaulis|Ficus sp.|Ficus variifolia|Ficus virens|Filipendula sp.|Filipendula ulmaria|Firmiana simplex|Flacourtia jangomas|Flindersia xanthoxyla|Flueggea sp.|Foeniculum sp.|Foeniculum vulgare|Fomes robiniae|Forsteronia refracta|Forsythia europaea|Forsythia giraldiana|Forsythia japonica|Forsythia koreana|Forsythia ovata|Forsythia suspensa|Forsythia suspense|Forsythia viridissima|Fouquieria diguetii|Fragaria sp.|Fragaria x ananassa|Fraxinus americana|Fraxinus chinensis|Fraxinus chinensis subsp. rhynchophylla|Fraxinus raibocarpa|Fraxinus sp.|Fraxinus stylosa|Fraxinus szaboana|Fridericia chica|Fridericia platyphylla|Fritillaria hupehensis|Fritillaria meleagris|Fritillaria ningguoensis|Fuchsia excorticata|Fuchsia fulgens|Fuchsia splendens|Fucus spiralis|Fumaria officinalis|Fumaria sp.|Gadus morhua callarias|Galium aparine|Galium heldreichii|Galium melanantherum|Galium mollugo|Galium sp.|Galium tricornutum|Gambierdiscus toxicus|Gamocarpha alpina|Ganoderma australe|Ganoderma lucidum|Ganoderma sinense|Garcinia intermedia|Garcinia macrophylla|Gardenia imperialis|Gardenia jasminoides|Gardenia thailandica|Garrya elliptica|Gemmingia chinensis|Genista cinerea|Genista pichisermolliana|Genista tridentata|Gentiana davidii var. formosana|Gentiana germanica|Gentianodes tianschanica|Geranium carolinianum|Geranium pusillum|Geranium rectum|Geranium robertianum|Geranium sanguineum|Geranium sp.|Geranium thunbergii|Geranium wilfordii|Ginkgo biloba|Ginkgo sp.|Gleditsia caspica|Glehnia Littoralis|Glehnia littoralis|Gleichenia quadripartita|Glinus lotoides|Globularia sp.|Glochidion philippicum|Glycosmis cochinchinensis|Glycosmis macrophylla|Glycosmis pseudoracemosa|Glycyrrhiza Uralensis|Glycyrrhiza echinata|Glycyrrhiza glabra|Glycyrrhiza inflata|Glycyrrhiza macedonica|Glycyrrhiza pallidiflora|Glycyrrhiza sp.|Glycyrrhiza uralensis|Gmelina asiatica|Gomesa radicans|Gomphocarpus fruticosus|Gomphocarpus sinaicus|Goodyera schlechtendaliana|Gossypium|Gossypium hirsutum|Gossypium sp.|Gouania microcarpa|Gracilaria textorii|Grangea maderaspatana|Graphis cognata|Grass-of-Parnassus|Grataegus pinnatifida|Grevillea robusta|Grewia mollis|Grewia villosa|Grindelia scorzonerifolia|Griselinia littoralis|Guatteria boliviana|Gutierrezia alamanii|Gymnanthemum amygdalinum|Gymnema sylvestre|Gymnocalycium schickendantzii|Gymnocarpium robertianum|Gymnothorax javanicus|Gynostemma Pentaphyllum|Gynoxys verrucosa|Gypsophila perfoliata|Habropetalum dawei|Haemanthus toxicarius|Haematomma porphyrium|Haematoxylum campechianum|Haliclona cribricutis|Haliclona nigra|Halleria lucida|Haloxylon scoparium|Hammada scoparia|Hancornia speciosa|Hannoa undulata|Haplophyllum obtusifolium|Haplophyllum ramosissimum|Haplophyllum tuberculatum|Harziella entomophila|Hedera colchica|Hedera helix|Hedera rhombea|Hedera sp.|Hedychium villosum|Hedyosmum arborescens|Hedysarum coronarium|Hedysarum setigerum|Hedysarum varium|Heimia salicifolia|Helenium quadridentatum|Helichrysum arenarium|Helichrysum cephaloideum|Helichrysum chionosphaerum|Helichrysum mixtum|Helichrysum tenuifolium|Helicteres angustifolia|Helietta longifoliata|Heliotropium floridum|Helminthostachys zeylanica|Hemerocallis fulva|Hemionitis japonica|Hemitomes congestum|Herba acalyphae|Herniaria polygama|Hesperis matronalis|Heteropappus altaicus|Heterotheca grandiflora|Heterotheca inuloides|Heterotheca sp.|Hibiscus palustris|Hibiscus sabdariffa|Himalaiella deltoidea|Hippeastrum papilio|Hippophae rhamnoides|Hoffmannia strigillosa|Holarrhena floribunda|Holothuria squamifera|Honorius nutans|Houttuynia Cordata|Houttuynia cordata|Hovenia acerba|Humata pectinata|Humulus lupulus|Humulus sp.|Hydrangea paniculata|Hygrophorus chrysodon|Hygrophorus eburneus|Hylocereus undatus|Hylotelephium ewersii|Hymenaea courbaril|Hyoscyamus niger|Hyoscyamus sp.|Hypericum Ascyron|Hypericum ascyron|Hypericum attenuatum|Hypericum balearicum|Hypericum bithynicum|Hypericum caprifolium|Hypericum connatum|Hypericum elegans|Hypericum erectum|Hypericum glandulosum|Hypericum graveolens|Hypericum hirsutum|Hypericum humifusum|Hypericum kamtschaticum|Hypericum laricifolium|Hypericum maculatum|Hypericum monogynum|Hypericum montanum|Hypericum perforatum|Hypericum polyanthemum|Hypericum pseudomaculatum|Hypericum pseudopetiolatum|Hypericum punctatum|Hypericum reflexum|Hypericum richeri|Hypericum sp.|Hypericum styphelioides|Hypericum tetrapterum|Hypericum triquetrifolium|Hypericum undulatum|Hypericum venustum|Hypogymnia vittata|Hypolepis punctata|Hypomyces semitranslucens|Ilex aquifolium|Ilex argentina|Ilex brevicuspis|Ilex dumosa|Ilex dunniana|Ilex hainanensis|Ilex macropoda|Ilex microdonta|Ilex pseudobuxus|Ilex purpurea|Ilex sp.|Ilex taubertiana|Ilex theezans|Illicium sp.|Impatiens balsamina|Inga velutina|Inula britannica|Inula grantioides|Inula japonica|Ipomoea muricata|Ips confusus|Ircinia dendroides|Ircinia ramosa|Iris florentina|Iryanthera coriacea|Isaria felina|Isaria fumosorosea|Isodon japonicus|Isodon rubescens|Isophysis tasmanica|Ixeris chinensis|Ixeris stolonifera|Jaborosa kurtzii|Jacaranda decurrens|Jackiella javanica|Jacobaea adonidifolia|Jacobaea aquatica var. erratica|Jacobaea vulgaris|Jacquemontia paniculata|Jasminum azoricum|Jasminum fluminense|Jasminum grandiflorum|Jasminum mesnyi|Jasminum officinale|Jasminum sambac|Jatropha macrorhiza|Juglans nigra|Julocroton camporum|Juniperus brevifolia|Juniperus communis|Juniperus communis depressa|Juniperus communis var. depressa|Juniperus drupacea|Juniperus horizontalis|Juniperus phoenicea|Juniperus rigida var. conferta|Juniperus sabina|Juniperus sp.|Juniperus utahensis|Justicia paniculata|Justicia secunda|Kaempferia marginata|Kaempferia parviflora|Kalanchoe pinnata|Kali turgidum|Kandelia candel|Kaunia saltensis|Khaya ivorensis|Khaya senegalensis|Kielmeyera coriacea|Klebsiella pneumoniae|Knautia montana|Knightia deplanchei|Koompassia malaccensis|Kopsia profunda|Lablab niger|Laburnum watereri|Lactarius sanguifluus|Lactarius spinosulus|Lactobacillus delbrueckii subsp. bulgaricus|Lactuca indica|Lactuca sativa|Lactuca serriola|Laennecia filaginoides|Laetiporus versisporus|Lagochilus leiacanthus|Lagochilus platycalyx|Lamium album|Lamium sp.|Lamyropsis cynaroides|Larix cajanderi|Larrea sp.|Laserpitium latifolium|Lasiocephalus ovatus|Lathyrus aphaca|Lathyrus davidii|Lathyrus incurvus|Lathyrus japonicus|Lathyrus latifolius|Lathyrus laxiflorus|Lathyrus tingitanus|Latrunculia magnifica|Launaea arborescens|Laurus sp.|Lavandula pedunculata|Lavandula vera|Lechevalieria aerocolonigenes|Leishmania major|Lemaireocereus griseus|Lemaireocereus longispinus|Lemna trisulca|Lens culinaris|Lenzites betulinus|Leonurus Heterophyllus|Leonurus cardiaca|Leonurus heterophyllus|Leonurus japonicus|Leonurus sp.|Lepidium cartilagineum|Lepidium graminifolium|Lepidium sp.|Lepidium syvaschicum|Lepisorus thunbergianus|Lepraria xanthina|Leptobalanus apetalus|Leptocereus quadricostatus|Lepuropetalon spathulatum|Lespedeza tomentosa|Leucadendron microcephalum|Leucas neufliseana|Leucopaxillus giganteus|Liatris gracilis|Licania apetala|Licania cariae|Ligularia cymbulifera|Ligularia platyglossa|Ligustrum obtusifolium|Lilium brownii|Lilium brownii f. e. brown var. colchesteri wils|Lilium lancifolium|Lilium pumilum|Lilium umbellatum|Limnocharis flava|Limonium gmelini|Limonium gmelinii|Lindera megaphylla|Liparis loeselii|Lipschitziella deltoidea|Liquidambar sp.|Liriodendron chinense|Liriodendron sp.|Liriodendron tulipifera|Litchi chinensis|Lithodora fruticosa|Lithospermum officinale|Lithospermum sp.|Litsea glutinosa|Littorina littorea|Lobophytum laevigatum|Lonchocarpus atropurpureus|Lonchocarpus laxiflorus|Lonicera confusa|Lonicera confuse|Lonicera dasystyla|Lonicera fulvotomentosa|Lonicera hypoglauca|Lonicera japonica|Lonicera macranthoides|Lotus corniculatus|Lotus japonicus|Lupinus corymbosus|Lupinus pilosus|Lupinus verbasciformis|Luxemburgia nobilis|Lycium barbarum|Lycium chinense|Lycium sp.|Lycogala epidendrum|Lycopersicon Esculentum|Lycopus asper|Lycopus europaeus|Lycopus lucidus|Lycopus sp.|Lysiana subfalcata|Lysimachia christinae|Lysimachia fordiana|Lysimachia fortunei|Lysimachia nummularia|Lysimachia sp.|Lythrum salicaria|Macaranga peltata|Macaranga tanarius|Machilus macrantha|Machilus thunbergii|Maclura pomifera|Macropidia fuliginosa|Macrothelypteris torresiana|Macrotomia ugamensis|Macrotyloma axillare|Macrozamia macdonnellii|Maesa lanceolata|Magnolia fraseri|Magnolia montana|Magnolia mutabilis|Magnolia obovata|Magnolia pterocarpa|Magnolia yunnanensis|Mahonia simonsii|Mallotus japonicus|Mallotus sp.|Mallotus villosus|Malus asiatica|Malus domestica|Malus pumila|Malus sp.|Malva sylvestris|Mamestra brassicae|Mandragora autumnalis|Mangifera indica|Manihot esculenta|Mantella aurantiaca|Marah fabacea|Marah fabaceus|Markhamia stipulata|Marrubium cylleneum|Marrubium velutinum|Marsypianthes chamaedrys|Martensia denticulata|Matricaria chamomilla|Matricaria matricarioides|Matricaria suffruticosa|Mayaca fluviatilis|Maytenus buxifolia|Maytenus loeseneri|Maytenus retusa|Maytenus serrata|Meadow vetchling|Meconopsis horridula|Medicago truncatula|Melaleuca decora|Melaleuca rhaphiophylla|Melanelixia fuliginosa subsp. glabratula|Melastoma candidum|Melastoma septemnervium|Melia azedarach|Melia azedarach var. toosendan|Melia volkensii|Melilotus albus|Melilotus sulcatus|Melilotus tauricus|Melochia tomentosa|Menegazzia asahinae|Mentha cardiaca|Mentha suaveolens|Mentzelia cordifolia|Mentzelia decapetala|Mentzelia sp.|Menyanthes sp.|Menyanthes trifoliata|Mercurialis annua|Mesembryanthemum anatomicum|Metanarthecium luteoviride|Metapenaeus bennettae|Metasequoia glyptostroboides|Metatrichia vesparium|Metrodorea nigra|Meum sp.|Micranthes tolmiei|Microbispora rosea subsp. aerata|Microciona eurypa|Microcitrus australasica|Microlepia speluncae|Microtea debilis|Microtropis fokienensis|Mikania obtusata|Miliusa balansae|Miliusa velutina|Millettia erythrocalyx|Millettia ferruginea|Mitracarpus hirtus|Mitragyna speciosa|Mola mola|Mollinedia costaricensis|Mollugo spergula|Monanthotaxis congoensis|Monodora brevipes|Monomorium floricola|Monsonia senegalensis|Montanoa guatemalensis|Montrouziera sphaeroidea|Moquilea cariae|Morella rubra|Morina kokanica|Morinda Citrifolia|Morinda citrifolia|Morinda morindoides|Morinda sp.|Moringa concanensis|Moringa pterygosperma|Moringa sp.|Moringa stenopetala|Morus Alba|Morus alba|Morus bombycis|Morus sp.|Muehlenbeckia hastulata|Mukdenia rossii|Murraya exotica|Murraya kwangsiensis|Murraya paniculata|Mus striatus|Musa cavendishii|Mycena fagetorum|Mycobacterium avium subsp. paratuberculosis|Mycobacterium leprae|Myoporum platycarpum|Myrica multiflora|Myrica rubra|Myrsine africana|Myrsine capitellata|Myxococcus stipitatus|Nama hispidum|Narcissus asturiensis|Narcissus concolor|Nardostachys jatamansi|Nassauvia cumingii|Nastanthus scapigerus|Nastanthus spathulatus|Nauclea officinalis|Navanax inermis|Negombata magnifica|Nelumbo nucifera|Nematolepis phebalioides|Neobalanocarpus heimii|Neocussonia bojeri|Neocussonia longipedicellata|Neocussonia vantsilana|Neolentinus lepideus|Nepenthes thorelii|Nepeta granatensis|Nephelium lappaceum|Nephroma antarcticum|Nerium Oleander|Nerium indicum|Nerium oleander|Nerium sp.|Nicotiana affinis|Nicotiana glauca|Nicotiana tabacum|Nigella sativa|Nostoc commune|Nostoc spongiaeforme|Oceanapia ramsayi|Ochradenus baccatus|Ocimum gratissimum|Ocimum pilosum|Ocotea minarum|Odontites rubra|Oenothera canescens|Oenothera coryi|Oenothera deserticola|Oenothera dissecta|Oenothera fruticosa|Oenothera havardii|Oenothera macrocarpa|Oenothera purpusii|Oenothera rosea|Oenothera sp.|Oldenlandia diffusa|Olea Europaea|Olea europaea|Olea sp.|Oncoba echinata|Ongokea gore|Ongokea klaineana|Onobrychis amoena|Onobrychis angustifolia|Onobrychis arenaria|Onobrychis biebersteinii|Onobrychis bobrovii|Onobrychis chorassanica|Onobrychis cornuta|Onobrychis cyri|Onobrychis echidna|Onobrychis ferganica|Onobrychis grandis|Onobrychis kachetica|Onobrychis michauxii|Onobrychis saravschanica|Onobrychis tanaitica|Onobrychis viciifolia|Ononis sp.|Ononis spinosa|Ononis vaginalis|Ononis viscosa|Onopordum acanthium|Onychium siliculosum|Oophaga granulifera|Oophaga histrionica|Operculina turpethum|Ophiarthrum elegans|Ophiolepis superba|Ophioparma ventosa|Ophiorrhiza blumeana|Opuntia Dillenii|Opuntia ficus-indica|Orchis sp.|Oreocnide rubescens|Oreopteris quelpaertensis|Oreosolen wattii|Origanum majorana|Origanum majoricum|Ormopteris cymbiformis|Ormopteris gleichenioides|Ormopteris pinnata|Ormopteris riedelii|Ormosia nobilis|Oryctes nevadensis|Oryza aristata|Oryza sativa|Oscillochloris trichoides|Osmanthus heterophyllus|Osmanthus ilicifolius|Osmanthus × fortunei|Osteospermum fruticosum|Osteospermum muricatum|Ostericum citriodorum|Ostericum maximowiczii|Ostrya carpinifolia|Ouratea semiserrata|Oxalis purpurea|Oxera splendida|Oxytropis racemosa|Oxytropis strobilacea|Paeonia lactiflora|Paeonia rockii|Paeonia suffruticosa|Paesia anfractuosa|Palaquium canaliculatum|Paliurus spina-christi|Pancratium sickenbergeri|Pangium edule|Panzerina lanata|Papilio phorcas|Parabenzoin trilobum|Parablechnum minus|Paracalyx scariosus|Paracoccus denitrificans|Paralemnalia clavata|Paramignya griffithii|Parectatosoma mocquerysi|Parerythropodium fulvum|Parietaria officinalis|Parinari campestris|Parinari nonda|Parinari occidentalis|Parmelia subrudecta|Parnassia asarifolia|Parnassia caroliniana|Parnassia fimbriata|Parnassia glauca|Parnassia grandifolia|Parnassia kotzebuei|Paronychia kapela|Passiflora|Passiflora ligularis|Pastinaca sativa|Pedicularis procera|Pedicularis rex|Pelargonium graveolens|Pelargonium reniforme|Pelargonium roseum|Pellaea regnelliana|Pelvetia wrightii|Penicillium bilaiae|Penicillium crustaceum|Penicillium kewense|Penicillium paxilli|Penicillium shearii|Penstemon gentianoides|Penstemon linarioides|Pentaclethra macrophylla|Pentapora fascialis|Peperomia vulcanica|Perenniporia subacida|Perezia carpholepis|Periploca sepium|Peritassa compta|Persicaria amphibia|Persicaria lapathifolia|Persicaria orientalis|Persicaria pensylvanica|Persicaria pubescens|Persicaria salicifolia|Persicaria senticosa|Persicaria stelligera|Petasites japonicus|Petroselinum crispum|Petunia integrifolia subsp. inflata|Peucedanum japonicum|Peucedanum morisonii|Peucedanum oroselinum|Peucedanum palustre|Peucedanum praeruptorum|Peyrousea umbellata|Phaeolus schweinitzii|Phalaenopsis aphrodite|Phalium undulatum|Phaseolus vulgaris|Phebalium stenophyllum|Phelline lucida|Phellinus igniarius|Philadelphus lewisii|Philydrum Lanuginosum|Phlebodium aureum|Phlebodium decumanum|Phlebodium dictyocallis|Phlojodicarpus sibiricus|Phlomoides hamosa|Phlomoides medicinalis|Phlomoides rotata|Phoenix canariensis|Phomopsis archeri|Phomopsis leptostromiformis|Phora gregaria|Phora scalaris|Phora velutina|Photinia serratifolia|Phyllanthus Emblica|Phyllanthus amarus|Phyllanthus emblica|Phyllanthus klotzschianus|Phyllanthus sellowianus|Phyllanthus sp.|Phyllanthus urinaria|Phyllanthus virgatus|Phyllobates bicolor|Phyllopsora haemophaea|Phyllospongia madagascarensis|Physalis alkekengi|Physalis edulis|Physalis longifolia|Physalis peruviana|Physalis solanaceus|Physalis sordida|Physochlaina physaloides|Picea abies|Picea rubens|Picrasma quassioides|Picris conyzoides|Picrorhiza kurrooa|Pieris napi|Pimpinella saxifraga|Pimpinella sp.|Pinalia stricta|Pinus banksiana|Pinus edulis|Pinus flexilis|Pinus resinosa|Pinus strobus|Pinus sylvestris|Piper guayranum|Piper regnellii|Piptanthus mongolicus|Piptanthus nepalensis|Piptostigma fugax|Pisaster giganteus|Pistacia atlantica|Pistacia lentiscus|Pistacia vera|Pithecellobium clypearia|Pithecellobium racemosum|Planchonia grandis|Plantago coronopus|Plantago lacustris|Plantago lanceolata|Plantago lundborgii|Plantago major|Platanus sp.|Plathymenia reticulata|Platonia insignis|Platycarpha glomerata|Platycarya strobilacea|Platycladus orientalis|Plectosphaerella cucumerina|Plectranthus caninus|Plectranthus mollis|Plectranthus myrianthus|Pleurobranchus albiguttatus|Pleurolobus gangeticus|Plexaura homomalla|Plexaurella nutans|Plinia cauliflora|Pluchea dioscoridis|Pluchea lanceolata|Poacynum pictum|Poacynum venetum|Podocarpus fasciculus|Podocarpus montanus|Podocarpus salignus|Podolepis longipedata|Podophyllum hexandrum|Polycephalomyces nipponicus|Polygala amarella|Polygala chamaebuxus|Polygala flavescens ssp. flavescens|Polygala myrtifolia|Polygala paniculata|Polygala sp.|Polygonatum stenophyllum|Polygonum Cuspidatum|Polygonum cognatum|Polygonum cuspidatum|Polygonum senticosum|Polygonum weyrichii|Polypodium virginianum|Polypodium vulgare|Polyporus betulinus|Polyporus dryadeus|Polytolypa hystricis|Polyzonium rosalbum|Populus alba|Populus ussuriensis|Porophyllum ruderale|Portulaca oleracea|Posidonia oceanica|Premna tomentosa|Primula grandiflora|Primula sp.|Prorocentrum micans|Prosopis farcta|Prosopis ruscifolia|Prosopis spicigera|Protoreaster nodosus|Prumnopitys ferruginea|Prunella vulgaris|Prunus Mume|Prunus armeniaca|Prunus avium|Prunus cerasus|Prunus domestica|Prunus dulcis|Prunus fruticosa|Prunus mume|Prunus persica|Prunus prostrata|Pseudocyphellaria coronata|Pseudocyphellaria faveolata|Pseudophryne coriacea|Psiadia dentata|Psilotum nudum|Psorospermum adamauense|Psychotria bahiensis|Psychotria stachyoides|Psydrax dicoccos|Ptarmica ptarmicifolia|Pteridium esculentum|Pteris deflexa|Pteris inaequalis|Pteris linearis|Pteris pacifica|Pteris semipinnata|Pteris vittata|Pterocarpus erinaceus|Pterocarpus sp.|Pterocaulon virgatum|Pterogyne nitens|Ptilidium ciliare|Pueraria montana var. lobata|Pulicaria mauritanica|Pulicaria salviifolia|Pulicaria wightiana|Punica Granatum|Punica granatum|Punica granatum L.|Pyrostegia venusta|Pyrrosia lingua|Pyrrosia petiolosa|Pyrrosia sheareri|Pyrrosia tricuspis|Pyrus bourgaeana|Pyrus communis|Quercus glauca|Quercus rubra|Quillaja brasiliensis|Radianthus kuekenthali|Ramalina sayreana|Ranunculus aquatilis|Ranunculus aquatilis var. diffusus|Ranunculus fluitans|Ranunculus hederaceus|Ranunculus peltatus|Ranunculus penicillatus|Ranunculus rionii|Ranunculus sardous|Ranunculus sphaerospermus|Raoulia australis|Raoulia glabra|Raoulia hookeri|Raoulia monroi|Raoulia petriensis|Raoulia subsericea|Raoulia tenuicaulis|Rapanea lancifolia|Rapanea myricoides|Raputia praetermissa|Rattus rattus|Rauvolfia salicifolia|Reaumuria hirtella|Reichardia gaditana|Rhamnus|Rhamnus lotus|Rheedia acuminata|Rheum moorcroftianum|Rheum officinale|Rheum rhabarbarum|Rheum sp.|Rhinella marina|Rhizobium leguminosarum|Rhizoctonia repens|Rhizoplaca baranowii|Rhizopus stolonifer|Rhodiola heterodonta|Rhodiola krylovii|Rhodiola rosea|Rhodiola semenovii|Rhodococcus erythropolis|Rhododendron anthopogon|Rhododendron dahuricum|Rhododendron dauricum|Rhododendron farrerae|Rhododendron mucronatum|Rhododendron ungerni|Rhodoglossum japonicum|Rhodomicrobium vannielii|Rhus coriaria|Rhus vulgaris|Rhynchophorus ferrugineus|Rhynchosia beddomei|Rhynchosia hirta|Rhynchosporium orthosporum|Rhytidoponera metallica|Ribes nigrum|Ribes rubrum|Ribes sp.|Ribes viscosissimum|Ricinus communis|Ripariosida hermaphrodita|Rivularia firma|Roccellaria mollis|Roldana angulifolia|Roldana lobata|Rosa|Rosa foetida|Rosa pomifera|Rosa rugosa|Rosa sp.|Rosmarinus officinalis|Rubia cordifolia|Rubia oncotricha|Rubia tinctorum|Rubrivivax gelatinosus|Rubus|Rubus chingii|Rubus coreanus|Rubus idaeus|Rubus koehneanus|Rubus occidentalis|Rubus xanthocarpus|Rumex acetosa|Rumex chalepensis|Rumex japonicus|Rusavskia elegans|Ruscus aculeatus|Ruscus sp.|Russula japonica|Ruta Graveolens|Ruta angustifolia|Ruta chalepensis|Ruta graveolens|Ruta montana|Ruta oreojasme|Ruta pinnata|Ruta sp.|Sabadilla officinalis|Sagittaria sagittifolia|Salacia longipes|Salix caprea|Salix chaenomeloides|Salmonella enterica subsp. enterica serovar bovismorbificans|Salsola collina|Salta triflora|Salvia broussonetii|Salvia dorrii|Salvia greggii|Salvia hispanica|Salvia munzii|Salvia officinalis|Salvia polystachya|Salvia sessei|Sambucus ebulus|Sambucus nigra|Sambucus sp.|Sandoricum koetjape|Sanguisorba sp.|Sanicula epipactis|Sanicula sp.|Sapindus emarginatus|Sapium sebiferum|Saprospira grandis|Sarcandra glabra|Sarcococca vagans|Sarcomelicope argyrophylla|Sarcomphalus mistol|Sarcophyton buitendijki|Sarcophyton elegans|Sarcopoterium spinosum|Saruma henryi|Saururus chinensis|Saussurea amara|Saussurea controversa|Saussurea involucrata|Saxifraga cuneifolia|Saxifraga tricuspidata|Scandosorbus intermedia|Scarlet firethorn|Schenkia spicata|Schinus molle|Schisandra arisanensis|Schisandra chinensis|Schistostephium rotundifolium|Scleromitrion diffusum|Scopolia atropoides|Scopolia lurida|Scorzonera pseudodivaricata|Scrophularia ilwensis|Scurrula atropurpurea|Scutellaria orientalis|Scutellaria rehderiana|Scutellaria seleriana|Sedum litoreum|Sedum obtuso-lineare|Sedum sarmentosum|Selenicereus sp.|Selenicereus undatus|Senecio Nemorensis|Senecio acaulis|Senecio adenophyllus|Senecio ambraceus|Senecio behnii|Senecio breviscapus|Senecio densiflorus|Senecio heliopsis|Senecio herreianus|Senecio incanus|Senecio kleiniiformis|Senecio macroglossus|Senecio polyodon|Senecio praecox|Senecio renardii|Senecio sandersonii|Senecio sp.|Senecio subdentatus|Senecio variabilis|Senecio viscosus|Senegalia mellifera|Senna auriculata|Senna hirsuta var. hirsuta|Senna italica|Senna rugosa|Senna siamea|Senna sophera|Senna wislizeni|Sepia officinalis|Serenoa repens|Serenoa sp.|Serratula inermis|Serratula wolffii|Sextonia rubra|Shigella dysenteriae|Sia ferox|Sida hermaphrodita|Sida veronicaefolia|Sideritis arborescens|Sideritis euboea|Sideritis soluta|Sideritis syriaca|Sideritis trojana|Siegesbeckia pubescens|Sigesbeckia glabrescens|Sigillina signifera|Silphium perfoliatum|Simarouba glauca|Simsia foetida|Sindora wallichii|Sinoadina racemosa|Sinopodophyllum hexandrum|Sinularia maxima|Siphocampylus verticillatus|Siphonaria capensis|Sisyrinchium californicum|Smilax bockii|Smilax china|Smilax glabra|Smilax ornata|Solanum Tuberosum|Solanum bahamense|Solanum incanum|Solanum lycopersicum|Solanum melongena|Solanum nigrum|Solanum pseudoquina|Solanum racemigerum|Solanum transcaucasicum|Solenopsis punctaticeps|Solenostemma argel|Solenostemma oleifolium|Solidago Virgaurea|Solidago altissima|Solidago canadensis|Solidago flexicaulis|Solidago petiolaris|Solidago sp.|Solidago virgaurea|Sonneratia caseolaris|Sophora Japonica|Sophora angustifolia|Sophora flavescens|Sophora japonica|Sophora lehmanni|Sophora lehmannii|Sophora mollis|Sophora sp.|Sophora tetraptera|Sorbus aria|Sorbus aucuparia|Sorbus intermedia|Sorbus tianschanica|Sorbus torminalis|Sparganium stoloniferum|Spermacoce pusilla|Sphaerella laricina|Sphaerella rosigena|Spinacia oleracea|Spiranthes sinensis|Spirotropis longifolia|Spongia bilamellata|Spongia matamata|Stauranthus perforatus|Stemphylium radicinum|Stephania dielsiana|Stephania elegans|Stephania zippeliana|Stephanitis takeyai|Sterculia foetida|Stevia aristata|Stevia polycephala|Stevia purpurea|Stigmatella erecta|Stilpnopappus pickelii|Stizolobium deeringianum|Streptomyces chryseus|Streptomyces clavifer|Streptomyces diastatochromogenes|Streptomyces ehimensis|Streptomyces eurythermus|Streptomyces fervens|Streptomyces hachijoensis|Streptomyces kanamyceticus|Streptomyces lavendulae|Streptomyces parvisporogenes|Streptomyces parvulus|Streptomyces paulus|Streptomyces purpeofuscus|Streptomyces purpurogeneiscleroticus|Streptomyces roseoverticillatus|Streptomyces viridogenes|Strongylocentrotus droebachiensis|Strychnos pseudoquina|Strychnos spinosa|Strychnos tricalysioides|Stylosanthes erecta|Styphnolobium japonicum|Suaeda maritima|Sulla coronaria|Sutherlandia frutescens|Swartzia madagascariensis|Swertia swertopsis|Symphyocladia latiuscula|Symphyopappus compressus|Syncarpia hillii|Synurus excelsus|Syringa vulgaris|Syzygium cumini|Syzygium jambos|Syzygium polycephaloides|Tabebuia ochracea|Tabernaemontana divaricata|Tagetes filifolia|Tagetes lucida|Talaromyces coalescens|Talaromyces stipitatus|Talaromyces variabilis|Tanacetum coccineum|Taonia australasica|Taraxacum borealisinense|Taraxacum coreanum|Taraxacum mongolicum|Taraxacum officinale|Taraxacum platycarpum|Taxus brevifolia|Taxus drupacea|Tecoma pentaphylla|Tephroseris flammea|Tephrosia hookeriana|Tephrosia purpurea|Tephrosia vogelii|Terminalia calamansanay|Terminalia catappa|Terminalia chebula|Terminalia myriocarpa|Tethya amamensis|Tetradium glabrifolium|Tetraena mongolica|Tetragonia tetragonioides|Tetrahymena pyriformis|Teucrium asiaticum|Teucrium depressum|Teucrium heterophyllum|Teucrium lanigerum|Teucrium pestalozzae|Teucrium yemense|Thelephora aurantiotincta|Theobroma sp.|Theonella conica|Thermoplasma acidophilum|Thermopsis dolichocarpa|Thioalkalivibrio versutus|Thymus|Thymus algeriensis|Thymus piperella|Thymus quinquecostatus|Thymus vulgaris|Tilia sp.|Tilia tomentosa|Tinospora smilacina|Tipuana tipu|Toona sinensis|Tordylium apulum|Torreya jackii|Toxicodendron succedaneum|Trachelospermum lucidum|Triaenophora rupestris|Trianthema portulacastrum|Tribulus Terrestris|Tribulus pentandrus|Tribulus terrestris|Trichilia rubescens|Trichoderma koningi|Trichoderma longibrachiatum|Trichoderma viride|Trichodesma incanum|Tricholoma acerbum|Tricholoma batschii|Tricholoma columbetta|Trichomanes alatum Sw.|Trichomanes crispum|Trichomanes godmanii|Trichomanes holopterum|Trichomanes lucens|Trichomanes polypodioides|Trichomanes reptans|Trichomanes scandens|Trichophyton mentagrophytes|Trichosanthes kirilowii|Trichosanthes multiloba|Trichosanthes ovigera|Trichosanthes pilosa|Trichosanthes rosthornii|Tridachia crispata|Tridacna gigas|Trifolium apertum|Trifolium aureum|Trifolium montanum|Trifolium polyphyllum|Trigonella foenum-graecum|Trigonostemon reidioides|Trillium undulatum|Tripodanthus acutifolius|Tripteris vaillantii|Tristania conferta|Triunia erythrocarpa|Trixis pallida|Trollius chinensis|Tropaeolum majus|Tropaeolum speciosum|Tropiometra afra|Tsuga chinensis|Turraea nilotica|Tussilago farfara|Typha Angustata|Typha latifolia|Udotea petiolata|Ulmus americana|Ulva conglobata|Umbellularia californica|Umbilicaria esculenta|Uncaria hirsuta|Uncaria macrophylla|Uncaria rhynchophylla|Uncaria sinensis|Uncaria sp.|Uncaria sterrophylla|Urena lobata|Urochloa decumbens|Urtica dioica|Urtica sp.|Usnea florida|Usnea undulata|Utricularia australis|Uvaria kirkii|Vaccinium corymbosum|Vachellia tortilis|Vahlia capensis|Vandenboschia collariata|Vandenboschia davallioides|Varronia curassavica|Varronia linnaei|Varronia polycephala|Varronia serratifolia|Vatica diospyroides|Vatica oblongifolia|Vellozia nanuzae|Vepris pilosa|Veratrum stenophyllum|Verbascum phlomoides|Verbascum sp.|Verbascum thapsiforme|Verbena stricta|Vernonia cistifolia|Vernonia fagifolia|Vernonia fasciculata|Veronica pectinata|Veronica polita|Verpa digitaliformis|Viburnum chingii|Viburnum lantana L.|Viburnum opulus L.|Viburnum plicatum|Viburnum plicatum Thunb.|Viburnum rhytidophyllum Hemsl.|Viburnum tinus|Viburnum tinus L.|Viburnum x bodnantense Aberc.|Vicia amoena|Vicia amurensis|Vicia sativa|Vigna angularis|Vigna mungo|Vigna radiata|Vigna trilobata|Vigna umbellata|Vigna umbeuata|Viguiera annua|Viguiera linearis|Viguiera procumbens|Viguiera stenoloba|Vinca minor|Vinca sp.|Viola odorata|Viola sp.|Viola tricolor|Virgilia divaricata|Virola multinervia|Visnea mocanera|Vitellaria paradoxa|Vitex pinnata|Vitis aestivalis|Vitis cinerea|Vitis riparia|Vitis vinifera|Vitis vulpina|Wallago attu|Wedelia montevidensis|Wedelia prostrata|Wikstroemia chamaedaphne|Wilcoxia viperina|Withania somnifera|Wolfiporia cocos|Wrightia tinctoria|Wyethia mollis|Xanthoceras sorbifolia|Xanthoceras sorbifolia Bunge|Xanthoceras sorbifolium|Xanthoparmelia pokornyi|Xanthoria aureola|Xanthorrhoea resinosa|Xenia florida|Xenia obscuronata|Xenoacremonium recifei|Zalerion maritima|Zaluzania grayana|Zanthoxylum acutifolium|Zanthoxylum bungeanum|Zanthoxylum chiriquinum|Zanthoxylum fraxineum|Zanthoxylum sp.|Zeora sordida|Zingiber officinale|Ziziphus jujuba|Ziziphus lotus|Ziziphus mauritiana|Ziziphus spina-christi|[polyangium] brachysporum|asparagus|bellis perennis|liquorice|microtea debilis|moringa|peanut|pomegranate|pomelo|potato|rooibos|soybean|tarragon|tomato|yerba mate

>  <collections>  (1948) 
ANPDB|AnalytiCon Discovery NPs|Australian natural products|CMAUP (cCollective molecular activities of useful plants)|ChEBI NPs|ChEMBL NPs|ChemSpider NPs|DrugBankNP|EMNPD|FooDB|GNPS (Global Natural Products Social Molecular Networking)|InterBioScreen Ltd|Latin America dataset|NANPDB (Natural Products from Northern African Sources)|NAPRORE-CR|NPACT|NPASS|NuBBEDB|Phenol-explorer|Phyto4Health|PhytoLab phyproof® Reference Substances|PubChem NPs|SANCDB|Super Natural II|TCMDB-Taiwan (Traditional Chinese Medicine database)|TIPdb (database of Taiwan indigenous plants)|TPPT (Toxic Plants–PhytoToxins)|VietHerb|WikiData Natural Products

>  <dois>  (1948) 
10.1002/(SICI)1096-9888(199912)34:12<1361::AID-JMS895>3.0.CO;2-6|10.1002/(SICI)1097-0231(20000130)14:2<95::AID-RCM843>3.0.CO;2-6|10.1002/(SICI)1099-1565(199601)7:1<42::AID-PCA282>3.0.CO;2-K|10.1002/(SICI)1099-1565(199707)8:4<176::AID-PCA351>3.0.CO;2-K|10.1002/(SICI)1099-1565(199805/06)9:3<145::AID-PCA393>3.0.CO;2-K|10.1002/(SICI)1099-1573(199605)10:3<202::AID-PTR805>3.0.CO;2-0|10.1002/(SICI)1099-1573(199809)12:6<442::AID-PTR320>3.0.CO;2-Y|10.1002/(SICI)1099-1573(199908/09)13:5<433::AID-PTR457>3.0.CO;2-4|10.1002/(SICI)1099-1573(199909)13:6<521::AID-PTR535>3.0.CO;2-A|10.1002/(SICI)1099-1573(200005)14:3<156::AID-PTR630>3.0.CO;2-V|10.1002/1099-1565(200007/08)11:4<257::AID-PCA521>3.0.CO;2-A|10.1002/1099-1573(200008)14:5<371::AID-PTR625>3.0.CO;2-F|10.1002/1099-1573(200011)14:7<510::AID-PTR646>3.0.CO;2-B|10.1002/1099-1573(200011)14:7<538::AID-PTR631>3.0.CO;2-1|10.1002/9780470330319.CH85|10.1002/9780470744307.gat218|10.1002/ARDP.19552880807|10.1002/ARDP.19833160916|10.1002/ARDP.19843170808|10.1002/ARDP.19893220211|10.1002/CBDV.201000284|10.1002/CBDV.201100002|10.1002/CHIN.199848194|10.1002/CHIN.200303150|10.1002/CHIN.200323205|10.1002/CHIN.200332113|10.1002/CHIN.200543206|10.1002/CHIN.200603190|10.1002/EJLT.200500227|10.1002/ELPS.200500714|10.1002/HLCA.200800415|10.1002/HLCA.200900232|10.1002/HLCA.201000385|10.1002/J.1537-2197.1988.TB13465.X|10.1002/J.1537-2197.1996.TB13914.X|10.1002/JCCS.199400031|10.1002/JCCS.199500018|10.1002/JCCS.199500128|10.1002/JCCS.199700075|10.1002/JCCS.200000030|10.1002/JPS.10057|10.1002/JSFA.1885|10.1002/JSFA.2740500306|10.1002/JSFA.2740580128|10.1002/JSFA.6627|10.1002/JSFA.7075|10.1002/JSFA.914|10.1002/JSSC.200500003|10.1002/MCS.1047|10.1002/MNFR.200400064|10.1002/MNFR.200500064|10.1002/PCA.638|10.1002/PCA.656|10.1002/PTR.1062|10.1002/PTR.1068|10.1002/PTR.2403|10.1002/PTR.2650030108|10.1002/PTR.2650090313|10.1002/PTR.883|10.1002/RCM.574|10.1002/food.19880321030|10.1007/0-387-28822-8_5|10.1007/978-0-85729-323-7_2078|10.1007/978-1-4020-4585-1_2243|10.1007/978-3-540-71095-0_9011|10.1007/978-3-642-40872-4_692-2|10.1007/978-4-431-68416-9_22|10.1007/BF00016355|10.1007/BF00563361|10.1007/BF00563466|10.1007/BF00563488|10.1007/BF00563636|10.1007/BF00563833|10.1007/BF00563837|10.1007/BF00564010|10.1007/BF00564011|10.1007/BF00564021|10.1007/BF00564766|10.1007/BF00564820|10.1007/BF00564822|10.1007/BF00565261|10.1007/BF00565808|10.1007/BF00566073|10.1007/BF00566810|10.1007/BF00567817|10.1007/BF00567886|10.1007/BF00567887|10.1007/BF00567951|10.1007/BF00567952|10.1007/BF00568247|10.1007/BF00570205|10.1007/BF00570212|10.1007/BF00570868|10.1007/BF00571238|10.1007/BF00571240|10.1007/BF00574220|10.1007/BF00574226|10.1007/BF00574227|10.1007/BF00574348|10.1007/BF00574349|10.1007/BF00574360|10.1007/BF00574383|10.1007/BF00574390|10.1007/BF00574391|10.1007/BF00575061|10.1007/BF00575724|10.1007/BF00575725|10.1007/BF00576105|10.1007/BF00576107|10.1007/BF00577206|10.1007/BF00577212|10.1007/BF00577213|10.1007/BF00577214|10.1007/BF00579083|10.1007/BF00579157|10.1007/BF00579158|10.1007/BF00579160|10.1007/BF00579445|10.1007/BF00579458|10.1007/BF00579494|10.1007/BF00579786|10.1007/BF00579837|10.1007/BF00579838|10.1007/BF00579979|10.1007/BF00579981|10.1007/BF00579982|10.1007/BF00580044|10.1007/BF00580085|10.1007/BF00580089|10.1007/BF00580091|10.1007/BF00580573|10.1007/BF00597817|10.1007/BF00597867|10.1007/BF00598296|10.1007/BF00598321|10.1007/BF00598323|10.1007/BF00598325|10.1007/BF00598366|10.1007/BF00598370|10.1007/BF00598371|10.1007/BF00598372|10.1007/BF00598596|10.1007/BF00598598|10.1007/BF00598601|10.1007/BF00598669|10.1007/BF00599015|10.1007/BF00599276|10.1007/BF00600850|10.1007/BF00600854|10.1007/BF00602480|10.1007/BF00605216|10.1007/BF00605218|10.1007/BF00607552|10.1007/BF00607553|10.1007/BF00607555|10.1007/BF00607556|10.1007/BF00629788|10.1007/BF00630230|10.1007/BF00630375|10.1007/BF00630377|10.1007/BF00630448|10.1007/BF00630451|10.1007/BF00636587|10.1007/BF00638415|10.1007/BF00713341|10.1007/BF00714926|10.1007/BF00985673|10.1007/BF01032045|10.1007/BF01193268|10.1007/BF01202512|10.1007/BF01959464|10.1007/BF02002621|10.1007/BF02236305|10.1007/BF02275745|10.1007/BF02275920|10.1007/BF02291545|10.1007/BF02311521|10.1007/BF02323285|10.1007/BF02323302|10.1007/BF02329592|10.1007/BF02488698|10.1007/BF02490693|10.1007/BF02490789|10.1007/BF02491797|10.1007/BF02492150|10.1007/BF02517954|10.1007/BF02524937|10.1007/BF02859211|10.1007/BF02908196|10.1007/BF02976442|10.1007/BF02977526|10.1007/BF02978239|10.1007/BF02980079|10.1007/BF03047143|10.1007/PL00010251|10.1007/S00217-003-0845-6|10.1007/S002170000220|10.1007/S006040170028|10.1007/S007060050230|10.1007/S10600-005-0010-5|10.1007/S10600-005-0012-3|10.1007/S10600-005-0087-X|10.1007/S10600-007-0056-7|10.1007/S10600-007-0061-X|10.1007/S10600-007-0118-X|10.1007/S10600-007-0209-8|10.1007/S10600-008-9065-4|10.1007/S10600-008-9066-3|10.1007/S10600-008-9079-Y|10.1007/S10600-009-9197-1|10.1007/S10600-009-9387-X|10.1007/S10600-009-9409-8|10.1007/S10600-010-9597-2|10.1007/S10600-011-0025-Z|10.1007/S10600-011-0065-4|10.1007/S10600-011-9799-2|10.1007/S10600-011-9800-0|10.1007/S10600-011-9896-2|10.1007/S10600-011-9907-3|10.1007/S10600-011-9908-2|10.1007/S10600-012-0124-5|10.1007/S10600-012-0125-4|10.1007/S10600-012-0285-2|10.1007/S10600-013-0640-Y|10.1007/S10600-014-0983-Z|10.1007/S10600-019-02925-Y|10.1007/S11094-015-1200-5|10.1007/S11094-020-02277-W|10.1007/S11130-020-00822-2|10.1007/S11418-006-0027-5|10.1007/S11418-006-0122-7|10.1007/S11418-009-0382-0|10.1007/bf02908118|10.1007/s11130-012-0286-0|10.1007/s11130-020-00822-2|10.1016/0021-9673(91)80135-4|10.1016/0021-9673(92)80282-Y|10.1016/0021-9673(94)80541-5|10.1016/0021-9673(94)89051-X|10.1016/0021-9673(95)00755-5|10.1016/0031-6865(96)00010-6|10.1016/0031-9422(73)80719-8|10.1016/0031-9422(75)85315-5|10.1016/0031-9422(80)83210-9|10.1016/0031-9422(82)83030-6|10.1016/0031-9422(83)80021-1|10.1016/0031-9422(83)80148-4|10.1016/0031-9422(88)83168-6|10.1016/0031-9422(88)84102-5|10.1016/0031-9422(89)80126-8|10.1016/0031-9422(89)80346-2|10.1016/0031-9422(89)85049-6|10.1016/0031-9422(90)80155-A|10.1016/0031-9422(90)85309-4|10.1016/0031-9422(91)85140-U|10.1016/0031-9422(92)80355-I|10.1016/0031-9422(92)80400-9|10.1016/0031-9422(92)83300-N|10.1016/0031-9422(92)83334-U|10.1016/0031-9422(93)85092-6|10.1016/0031-9422(93)85108-4|10.1016/0031-9422(93)85130-J|10.1016/0031-9422(93)85134-D|10.1016/0031-9422(93)85237-L|10.1016/0031-9422(93)85409-K|10.1016/0031-9422(93)85414-M|10.1016/0031-9422(93)85545-3|10.1016/0031-9422(94)00567-D|10.1016/0031-9422(94)00658-G|10.1016/0031-9422(94)00689-Q|10.1016/0031-9422(94)00727-B|10.1016/0031-9422(94)00784-Q|10.1016/0031-9422(94)00965-V|10.1016/0031-9422(94)85017-8|10.1016/0031-9422(95)00071-E|10.1016/0031-9422(95)00383-I|10.1016/0031-9422(95)00398-Q|10.1016/0031-9422(95)00528-5|10.1016/0031-9422(95)00764-4|10.1016/0031-9422(95)00837-3|10.1016/0031-9422(96)00188-4|10.1016/0304-4238(78)90069-9|10.1016/0305-1978(84)90068-1|10.1016/0305-1978(85)90003-1|10.1016/0305-1978(85)90036-5|10.1016/0305-1978(85)90068-7|10.1016/0305-1978(85)90089-4|10.1016/0305-1978(86)90025-6|10.1016/0305-1978(86)90046-3|10.1016/0305-1978(86)90060-8|10.1016/0305-1978(86)90088-8|10.1016/0305-1978(86)90089-X|10.1016/0305-1978(86)90090-6|10.1016/0305-1978(87)90042-1|10.1016/0305-1978(87)90085-8|10.1016/0305-1978(88)90012-9|10.1016/0305-1978(88)90118-4|10.1016/0305-1978(89)90056-2|10.1016/0305-1978(90)90051-G|10.1016/0305-1978(91)90116-H|10.1016/0305-1978(92)90060-Q|10.1016/0305-1978(92)90063-J|10.1016/0305-1978(92)90087-T|10.1016/0305-1978(93)90060-5|10.1016/0305-1978(93)90066-Z|10.1016/0305-1978(93)90077-5|10.1016/0305-1978(93)90083-4|10.1016/0305-1978(93)90084-5|10.1016/0305-1978(93)90100-6|10.1016/0305-1978(94)00083-S|10.1016/0305-1978(94)90063-9|10.1016/0305-1978(95)00014-L|10.1016/0306-3623(95)02143-4|10.1016/0378-4347(95)00265-9|10.1016/0378-8741(84)90075-8|10.1016/0378-8741(86)90156-X|10.1016/0378-8741(88)90058-X|10.1016/0378-8741(88)90069-4|10.1016/0378-8741(94)90098-1|10.1016/0952-3278(94)90141-4|10.1016/B978-0-08-028853-6.50009-7|10.1016/J.ARABJC.2013.12.011|10.1016/J.BMC.2004.10.020|10.1016/J.BMC.2007.01.035|10.1016/J.BMC.2009.08.036|10.1016/J.BMC.2010.01.046|10.1016/J.BMCL.2005.07.020|10.1016/J.BMCL.2007.10.046|10.1016/J.BMCL.2010.11.126|10.1016/J.BMCL.2011.12.036|10.1016/J.BMCL.2014.01.028|10.1016/J.BMCL.2015.02.048|10.1016/J.BMCL.2015.07.056|10.1016/J.BSE.2006.03.001|10.1016/J.BSE.2007.03.023|10.1016/J.BSE.2013.04.001|10.1016/J.BSE.2019.103959|10.1016/J.CARRES.2003.12.017|10.1016/J.CCLET.2010.02.022|10.1016/J.EJPHAR.2005.08.046|10.1016/J.EJPHAR.2008.03.021|10.1016/J.FCT.2004.01.008|10.1016/J.FITOTE.2004.01.019|10.1016/J.FITOTE.2004.05.008|10.1016/J.FITOTE.2005.02.008|10.1016/J.FITOTE.2006.04.007|10.1016/J.FITOTE.2006.10.001|10.1016/J.FITOTE.2007.04.005|10.1016/J.FITOTE.2007.11.012|10.1016/J.FITOTE.2009.11.003|10.1016/J.FOODCHEM.2005.02.007|10.1016/J.FOODCHEM.2005.11.053|10.1016/J.FOODCHEM.2008.11.094|10.1016/J.FOODCHEM.2009.04.098|10.1016/J.FOODCHEM.2009.07.063|10.1016/J.FSHW.2014.05.001|10.1016/J.JEP.2004.03.042|10.1016/J.JEP.2004.08.010|10.1016/J.JEP.2006.02.010|10.1016/J.JEP.2006.06.002|10.1016/J.JEP.2006.06.006|10.1016/J.JEP.2006.09.006|10.1016/J.JEP.2009.10.011|10.1016/J.JEP.2009.11.018|10.1016/J.JEP.2010.05.015|10.1016/J.LEUKRES.2010.12.011|10.1016/J.LWT.2014.11.023|10.1016/J.PHYMED.2009.03.022|10.1016/J.PHYTOCHEM.2003.10.020|10.1016/J.PHYTOCHEM.2003.10.025|10.1016/J.PHYTOCHEM.2004.09.009|10.1016/J.PHYTOCHEM.2004.12.005|10.1016/J.PHYTOCHEM.2005.07.019|10.1016/J.PHYTOCHEM.2006.01.005|10.1016/J.PHYTOCHEM.2006.06.026|10.1016/J.PHYTOCHEM.2007.05.027|10.1016/J.PHYTOCHEM.2007.05.032|10.1016/J.PHYTOCHEM.2008.01.006|10.1016/J.PHYTOCHEM.2008.09.001|10.1016/J.PHYTOCHEM.2009.04.003|10.1016/J.PHYTOCHEM.2009.07.020|10.1016/J.PHYTOL.2009.11.004|10.1016/J.PHYTOL.2011.02.011|10.1016/J.PHYTOL.2011.07.005|10.1016/J.PHYTOL.2015.05.008|10.1016/J.TETLET.2010.11.040|10.1016/S0014-827X(01)01068-0|10.1016/S0021-9673(00)00555-0|10.1016/S0021-9673(00)91555-3|10.1016/S0021-9673(01)00913-X|10.1016/S0021-9673(01)01294-8|10.1016/S0021-9673(01)82447-X|10.1016/S0021-9673(01)83892-9|10.1016/S0021-9673(01)88492-2|10.1016/S0021-9673(98)00294-5|10.1016/S0021-9673(98)00697-9|10.1016/S0021-9673(99)01225-X|10.1016/S0024-3205(01)01425-4|10.1016/S0031-9422(00)00027-3|10.1016/S0031-9422(00)00143-6|10.1016/S0031-9422(00)00319-8|10.1016/S0031-9422(00)00423-4|10.1016/S0031-9422(00)80176-4|10.1016/S0031-9422(00)80559-2|10.1016/S0031-9422(00)80646-9|10.1016/S0031-9422(00)80824-9|10.1016/S0031-9422(00)80845-6|10.1016/S0031-9422(00)82558-3|10.1016/S0031-9422(00)82811-3|10.1016/S0031-9422(00)83456-1|10.1016/S0031-9422(00)83511-6|10.1016/S0031-9422(00)83550-5|10.1016/S0031-9422(00)83562-1|10.1016/S0031-9422(00)83749-8|10.1016/S0031-9422(00)83876-5|10.1016/S0031-9422(00)84026-1|10.1016/S0031-9422(00)84461-1|10.1016/S0031-9422(00)84593-8|10.1016/S0031-9422(00)84999-7|10.1016/S0031-9422(00)85282-6|10.1016/S0031-9422(00)85741-6|10.1016/S0031-9422(00)86978-2|10.1016/S0031-9422(00)88703-8|10.1016/S0031-9422(00)89563-1|10.1016/S0031-9422(00)89642-9|10.1016/S0031-9422(00)89738-1|10.1016/S0031-9422(00)89888-X|10.1016/S0031-9422(00)90736-2|10.1016/S0031-9422(00)91129-4|10.1016/S0031-9422(00)95013-1|10.1016/S0031-9422(00)97469-7|10.1016/S0031-9422(00)97572-1|10.1016/S0031-9422(00)97746-X|10.1016/S0031-9422(00)97758-6|10.1016/S0031-9422(00)97951-2|10.1016/S0031-9422(00)98486-3|10.1016/S0031-9422(01)00320-X|10.1016/S0031-9422(01)00401-0|10.1016/S0031-9422(01)00403-4|10.1016/S0031-9422(01)00441-1|10.1016/S0031-9422(02)00064-X|10.1016/S0031-9422(02)00133-4|10.1016/S0031-9422(02)00263-7|10.1016/S0031-9422(02)00486-7|10.1016/S0031-9422(03)00374-1|10.1016/S0031-9422(03)00504-1|10.1016/S0031-9422(06)80132-9|10.1016/S0031-9422(82)85088-7|10.1016/S0031-9422(96)00329-9|10.1016/S0031-9422(96)00571-7|10.1016/S0031-9422(96)00706-6|10.1016/S0031-9422(97)00091-5|10.1016/S0031-9422(97)00296-3|10.1016/S0031-9422(98)00018-1|10.1016/S0031-9422(98)00028-4|10.1016/S0031-9422(98)00223-4|10.1016/S0031-9422(98)00503-2|10.1016/S0031-9422(99)00297-6|10.1016/S0031-9422(99)00484-7|10.1016/S0031-9422(99)00502-6|10.1016/S0031-9422(99)00598-1|10.1016/S0305-1978(00)00053-3|10.1016/S0305-1978(00)00072-7|10.1016/S0305-1978(00)00094-6|10.1016/S0305-1978(01)00089-8|10.1016/S0305-1978(01)00098-9|10.1016/S0305-1978(01)00147-8|10.1016/S0305-1978(02)00051-0|10.1016/S0305-1978(02)00055-8|10.1016/S0305-1978(02)00072-8|10.1016/S0305-1978(96)00099-3|10.1016/S0305-1978(97)00021-5|10.1016/S0305-1978(97)00034-3|10.1016/S0305-1978(97)00061-6|10.1016/S0305-1978(98)00032-5|10.1016/S0305-1978(98)00076-3|10.1016/S0305-1978(98)00079-9|10.1016/S0305-1978(98)90077-1|10.1016/S0305-1978(99)00064-2|10.1016/S0305-1978(99)00113-1|10.1016/S0305-1978(99)00121-0|10.1016/S0308-8146(00)00134-5|10.1016/S0308-8146(99)00099-0|10.1016/S0367-326X(00)00155-6|10.1016/S0367-326X(00)00302-6|10.1016/S0367-326X(01)00331-8|10.1016/S0367-326X(02)00087-4|10.1016/S0367-326X(02)00126-0|10.1016/S0367-326X(99)00108-2|10.1016/S0367-326X(99)00116-1|10.1016/S0367-326X(99)00131-8|10.1016/S0378-4347(01)00404-2|10.1016/S0378-5173(00)00660-8|10.1016/S0378-8741(01)00197-0|10.1016/S0378-8741(01)00379-8|10.1016/S0378-8741(97)00111-6|10.1016/S0378-8741(98)00180-9|10.1016/S0731-7085(00)00264-8|10.1016/S0944-7113(96)80010-9|10.1016/S0963-9969(01)00185-5|10.1016/S1350-4177(00)00075-4|10.1016/j.bmc.2007.01.035|10.1016/j.bmc.2009.08.036|10.1016/j.bmc.2010.01.046|10.1016/j.bmcl.2010.11.126|10.1016/j.bmcl.2011.12.036|10.1016/j.bmcl.2014.01.028|10.1016/j.bmcl.2014.09.087|10.1016/j.bmcl.2015.02.048|10.1016/j.bmcl.2015.07.056|10.1016/j.bmcl.2016.08.094|10.1016/j.bse.2006.07.006|10.1016/j.foodres.2019.108899|10.1016/j.jep.2006.09.006|10.1016/j.jep.2007.10.011|10.1016/j.jep.2011.12.005|10.1016/j.lwt.2014.11.023|10.1016/s0031-9422(00)86214-7|10.1021/AC990598X|10.1021/ACS.JAFC.9B00846.S001|10.1021/JA01195A031|10.1021/JA01224A501|10.1021/JF0000833|10.1021/JF000388H|10.1021/JF000422S|10.1021/JF00042A002|10.1021/JF00048A016|10.1021/JF00052A008|10.1021/JF00056A012|10.1021/JF000596+|10.1021/JF000815R|10.1021/JF00088A050|10.1021/JF0009753|10.1021/JF001497Z|10.1021/JF0104681|10.1021/JF010492E|10.1021/JF010622J|10.1021/JF010697N|10.1021/JF0115894|10.1021/JF0201327|10.1021/JF020661A|10.1021/JF025929C|10.1021/JF0262458|10.1021/JF030123D|10.1021/JF030595S|10.1021/JF030813H|10.1021/JF0344587|10.1021/JF034543E|10.1021/JF0346298|10.1021/JF0347517|10.1021/JF0347721|10.1021/JF049317Z|10.1021/JF052736R|10.1021/JF052743F|10.1021/JF063635B|10.1021/JF102871G|10.1021/JF2014759|10.1021/JF302848U|10.1021/JF703709R|10.1021/JF800059R|10.1021/JF800421J|10.1021/JF802974M|10.1021/JF901716J|10.1021/JF903836K|10.1021/JF950310E|10.1021/JF9505335|10.1021/JF9507001|10.1021/JF9508357|10.1021/JF9601628|10.1021/JF9605557|10.1021/JF9707546|10.1021/JF970831X|10.1021/JF9800211|10.1021/JF9801264|10.1021/JF980264T|10.1021/JF980687V|10.1021/JF990121M|10.1021/JF990186P|10.1021/JF990608V|10.1021/JF9909860|10.1021/JF991086M|10.1021/NP0001981|10.1021/NP000225N|10.1021/NP000442O|10.1021/NP000488H|10.1021/NP000582Y|10.1021/NP010073B|10.1021/NP010081S|10.1021/NP010518W|10.1021/NP020058M|10.1021/NP0205349|10.1021/NP030382X|10.1021/NP030440E|10.1021/NP0401056|10.1021/NP0600999|10.1021/NP0604073|10.1021/NP068016B|10.1021/NP068065O|10.1021/NP068065O.S001|10.1021/NP0700671|10.1021/NP070327E|10.1021/NP070396T|10.1021/NP070564H|10.1021/NP0780046|10.1021/NP200635R|10.1021/NP50011A021|10.1021/NP50022A009|10.1021/NP50022A016|10.1021/NP50023A005|10.1021/NP50025A011|10.1021/NP50025A019|10.1021/NP50028A037|10.1021/NP50034A043|10.1021/NP50037A030|10.1021/NP50037A041|10.1021/NP50038A033|10.1021/NP50039A028|10.1021/NP50043A030|10.1021/NP50043A042|10.1021/NP50044A034|10.1021/NP50045A045|10.1021/NP50047A040|10.1021/NP50050A047|10.1021/NP50052A045|10.1021/NP50053A018|10.1021/NP50077A042|10.1021/NP50086A021|10.1021/NP50094A022|10.1021/NP50102A017|10.1021/NP50103A030|10.1021/NP50117A005|10.1021/NP50123A013|10.1021/NP900644X|10.1021/NP970025K|10.1021/NP970336V|10.1021/NP970449E|10.1021/NP980153O|10.1021/acs.jafc.9b00846|10.1021/acs.jnatprod.5b00161|10.1021/acs.jnatprod.5b00372|10.1021/acs.jnatprod.5b00502|10.1021/acs.jnatprod.6b00981|10.1021/acs.jnatprod.7b00063|10.1021/acs.jnatprod.7b00295|10.1021/acs.jnatprod.7b00564|10.1021/acs.jnatprod.9b00212|10.1021/jf9810261|10.1021/np000442o|10.1021/np020018i|10.1021/np068016b|10.1021/np068065o|10.1021/np200635r|10.1021/np50096a018|10.1021/np50117a005|10.1021/np970025k|10.1021/np980153o|10.1023/B:CONC.0000025478.84294.5B|10.1023/B:CONC.0000033945.16862.19|10.1024/0300-9831.73.2.152|10.1039/AN9891401021|10.1039/J39660001140|10.1039/JR9380000282|10.1046/J.1472-765X.2000.00692.X|10.1055/S-0028-1099447|10.1055/S-0028-1099718|10.1055/S-0029-1234521|10.1055/S-0029-1240621|10.1055/S-0029-1240814|10.1055/S-0031-1300225|10.1055/S-0032-1321052|10.1055/S-0033-1352389|10.1055/S-2000-8632|10.1055/S-2001-14319|10.1055/S-2001-18338|10.1055/S-2002-20053|10.1055/S-2002-32549|10.1055/S-2003-45114|10.1055/S-2003-45150|10.1055/S-2003-818009|10.1055/S-2006-957431|10.1055/S-2006-957540|10.1055/S-2006-957598|10.1055/S-2006-957620|10.1055/S-2006-957627|10.1055/S-2006-957639|10.1055/S-2006-957671|10.1055/S-2006-957738|10.1055/S-2006-957753|10.1055/S-2006-957782|10.1055/S-2006-957796|10.1055/S-2006-957866|10.1055/S-2006-957962|10.1055/S-2006-958024|10.1055/S-2006-958120|10.1055/S-2006-958151|10.1055/S-2006-959436|10.1055/S-2006-959503|10.1055/S-2006-959675|10.1055/S-2006-959678|10.1055/S-2006-959679|10.1055/S-2006-959756|10.1055/S-2006-959763|10.1055/S-2006-959913|10.1055/S-2006-960003|10.1055/S-2006-960142|10.1055/S-2006-960798|10.1055/S-2006-960845|10.1055/S-2006-961649|10.1055/S-2006-961661|10.1055/S-2006-961904|10.1055/S-2006-962418|10.1055/S-2006-962425|10.1055/S-2007-969351|10.1055/S-2007-979339|10.1055/S-2007-979340|10.1055/S-2007-981565|10.1055/S-2007-990223|10.1055/S-2008-1034291|10.1071/ch9640428|10.1076/1388-0209(200007)3831-SFT222|10.1076/PHBI.37.5.366.6050|10.1076/PHBI.40.2.92.5839|10.1078/094471103322331476|10.1080/00021369.1985.10866832|10.1080/01483918808076772|10.1080/01483919008049044|10.1080/09637480500524299|10.1080/10286020.2010.489040|10.1080/10286020.2011.586944|10.1080/1028602031000105867|10.1080/10575630290034302|10.1080/10575639508043160|10.1080/10575639708048311|10.1080/10575639908048789|10.1080/1071576021000006707|10.1080/10826079208020870|10.1080/10826079408013630|10.1080/13102818.2006.10817302|10.1080/13880200490505663|10.1080/14786410310001608055|10.1080/14786410410001715596|10.1080/14786410601035811|10.1080/14786410802044885|10.1080/14786410802278327|10.1080/14786410802401390|10.1080/14786410902757899|10.1080/14786419.2010.523827|10.1080/14786419.2010.529809|10.1080/14786419.2010.537271|10.1081/JLC-100100418|10.1081/JLC-120027086|10.1093/CHROMSCI/41.2.87|10.1094/CCHEM.2004.81.2.172|10.1111/1750-3841.12404|10.1111/1750-3841.15463|10.1111/J.1365-2621.1986.TB13100.X|10.1111/J.1365-2621.1992.TB11286.X|10.1111/J.1365-2621.1998.TB15675.X|10.1111/J.1745-4557.2006.00096.X|10.1135/CCCC19590646|10.1139/B95-209|10.1142/S0192415X89000279|10.1177/089198879400700118|10.1177/089198879400701S18|10.1177/1934578X0800300227|10.1177/1934578X1501000817|10.1177/1934578x0700200111|10.1186/s12906-015-0873-3|10.1201/9781420023305-8|10.1211/0022357011775893|10.1211/0022357011776009|10.1211/146080899128735009|10.1246/NIKKASHI.1985.1513|10.1246/NIKKASHI.1987.1853|10.1246/NIKKASHI1948.70.36|10.1248/BPB.23.602|10.1248/BPB.30.1150|10.1248/CPB.14.877|10.1248/CPB.32.4620|10.1248/CPB.34.1419|10.1248/CPB.35.1234|10.1248/CPB.35.4317|10.1248/CPB.36.3667|10.1248/CPB.36.578|10.1248/CPB.39.2053|10.1248/CPB.41.1472|10.1248/CPB.43.1800|10.1248/CPB.43.2187|10.1248/CPB.45.1533|10.1248/CPB.46.166|10.1248/CPB.46.169|10.1248/CPB.47.571|10.1248/CPB.48.77|10.1248/CPB.49.1036|10.1248/CPB.49.1474|10.1248/CPB.49.863|10.1248/CPB.50.1122|10.1248/CPB.50.73|10.1248/CPB.50.841|10.1248/CPB.51.1338|10.1248/CPB.51.1439|10.1248/CPB.51.197|10.1248/CPB.51.343|10.1248/CPB.52.1462|10.1248/CPB.53.591|10.1248/CPB.53.881|10.1248/CPB.54.9|10.1248/CPB.55.1175|10.1248/CPB.55.343|10.1248/CPB.55.815|10.1248/CPB.56.1164|10.1248/CPB.56.559|10.1248/CPB.56.585|10.1248/CPB.57.1089|10.1248/CPB.57.1289|10.1248/CPB.57.257|10.1248/CPB.57.361|10.1248/CPB.57.853|10.1248/CPB.58.1587|10.1248/CPB.59.129|10.1248/YAKUSHI1947.104.4_340|10.1248/YAKUSHI1947.105.5_442|10.1248/YAKUSHI1947.105.6_542|10.1248/YAKUSHI1947.107.7_491|10.1248/YAKUSHI1947.108.6_538|10.1248/YAKUSHI1947.108.7_647|10.1248/YAKUSHI1947.110.5_315|10.1248/YAKUSHI1947.110.5_354|10.1248/YAKUSHI1947.71.12_1493|10.1271/BBB.100200|10.1271/BBB.60112|10.1271/BBB.61.332|10.1271/BBB.64.1588|10.1271/BBB.66.1571|10.1271/BBB1961.46.1079|10.1271/BBB1961.49.909|10.1300/J044V09N02_12|10.1300/J044V09N04_12|10.14264/UQL.2014.538|10.1515/ZNB-2005-0316|10.1515/ZNB-2008-0317|10.1515/ZNC-1983-1-226|10.1515/ZNC-1985-1-204|10.1515/ZNC-1985-3-402|10.1515/ZNC-1986-11-1215|10.1515/ZNC-1994-1-210|10.1515/ZNC-1995-3-423|10.1515/ZNC-2001-7-808|10.1515/ZNC-2001-9-1012|10.1515/ZNC-2002-9-1008|10.1515/ZNC-2003-11-1216|10.1515/ZNC-2003-7-808|10.1515/ZNC-2003-7-826|10.1515/ZNC-2003-9-1019|10.15406/MOJFPT.2016.02.00030|10.1590/S0103-50531997000300013|10.1590/S0103-50532002000100020|10.1590/S0103-50532005000800008|10.1787/9789264253421-7-EN|10.18535/IJETST/V2I8.18|10.18845/tm.v37i7.7298|10.21273/HORTSCI.40.5.1221|10.21608/BFSA.1984.89568|10.21608/BFSA.1984.89861|10.21608/BFSA.1997.68739|10.21608/BFSA.2000.66313|10.21608/BFSA.2000.66324|10.21608/BFSA.2001.65755|10.21608/BFSA.2003.65470|10.21608/ZJPS.1993.188983|10.21608/ZJPS.1994.186742|10.2174/1381612825666190313121608|10.2307/2331491|10.2307/2806097|10.2307/J.CTT22728B6.4|10.3109/10408447709082600|10.3109/13880208209083302|10.3109/13880209109082906|10.3136/FSTI9596T9798.4.278|10.3136/NSKKK.42.892|10.32861/JBR.66.57.61|10.3390/12020263|10.3390/12030423|10.3390/70200245|10.3390/MOLECULES15096244|10.3390/MOLECULES15107153|10.3390/MOLECULES16031917|10.3390/MOLECULES19044466|10.3390/MOLECULES22122101|10.3390/PLANTS10071330|10.3390/foods9060770|10.3390/molecules24162945|10.3390/molecules24183212|10.3390/plants11030377|10.3797/SCIPHARM.2006.74.203|10.3797/SCIPHARM.AUT-01-09|10.3797/SCIPHARM.AUT-01-22|10.3987/COM-03-9804|10.3987/COM-97-7906|10.3998/ARK.5550190.0012.214|10.4000/BOOKS.IRDEDITIONS.5257|10.4268/CJCMM20100813|10.4268/CJCMM20102316|10.4268/CJCMM20120222|10.4268/CJCMM20120313|10.4268/CJCMM20121613|10.4268/CJCMM20131220|10.4268/CJCMM20141334|10.4268/CJCMM20142423|10.4268/CJCMM20152219|10.4314/BCSE.V11I1.21013|10.4314/BCSE.V14I1.72018|10.5344/AJEV.1996.47.2.186|10.5586/ASBP.1976.034|10.5586/ASBP.1982.038|10.5897/AJPP10.363|10.5897/JMPR.9000078

>  <synonyms>  (1948) 
nan

>  <cas>  (1948) 
153-18-4|207671-50-9

$$$$

     RDKit          2D

 25 25  0  0  0  0  0  0  0  0999 V2000
  -13.8726   -0.3762    0.0000 C   0  0  0  0  0  0  0  0  0  0  0  0
  -12.5760    0.3782    0.0000 C   0  0  0  0  0  0  0  0  0  0  0  0
  -11.2745   -0.3675    0.0000 C   0  0  0  0  0  0  0  0  0  0  0  0
   -9.9780    0.3868    0.0000 C   0  0  0  0  0  0  0  0  0  0  0  0
   -8.6764   -0.3589    0.0000 C   0  0  0  0  0  0  0  0  0  0  0  0
   -7.3799    0.3954    0.0000 C   0  0  0  0  0  0  0  0  0  0  0  0
   -6.0784   -0.3502    0.0000 C   0  0  0  0  0  0  0  0  0  0  0  0
   -4.7818    0.4041    0.0000 C   0  0  0  0  0  0  0  0  0  0  0  0
   -3.4803   -0.3416    0.0000 C   0  0  0  0  0  0  0  0  0  0  0  0
   -2.1838    0.4127    0.0000 C   0  0  0  0  0  0  0  0  0  0  0  0
   -0.8822   -0.3329    0.0000 C   0  0  0  0  0  0  0  0  0  0  0  0
    0.4143    0.4214    0.0000 C   0  0  0  0  0  0  0  0  0  0  0  0
    1.7158   -0.3243    0.0000 C   0  0  0  0  0  0  0  0  0  0  0  0
    3.0124    0.4300    0.0000 C   0  0  0  0  0  0  0  0  0  0  0  0
    4.3139   -0.3156    0.0000 C   0  0  0  0  0  0  0  0  0  0  0  0
    5.6104    0.4387    0.0000 C   0  0  0  0  0  0  0  0  0  0  0  0
    5.6054    1.9387    0.0000 C   0  0  0  0  0  0  0  0  0  0  0  0
    6.9020    2.6930    0.0000 C   0  0  0  0  0  0  0  0  0  0  0  0
    8.2035    1.9473    0.0000 C   0  0  0  0  0  0  0  0  0  0  0  0
    8.2085    0.4473    0.0000 C   0  0  0  0  0  0  0  0  0  0  0  0
    9.5100   -0.2984    0.0000 O   0  0  0  0  0  0  0  0  0  0  0  0
    6.9119   -0.3070    0.0000 C   0  0  0  0  0  0  0  0  0  0  0  0
    6.9169   -1.8070    0.0000 C   0  0  0  0  0  0  0  0  0  0  0  0
    5.6204   -2.5613    0.0000 O   0  0  0  0  0  0  0  0  0  0  0  0
    8.2185   -2.5527    0.0000 O   0  0  0  0  0  0  0  0  0  0  0  0
  1  2  1  0
  2  3  1  0
  3  4  1  0
  4  5  1  0
  5  6  1  0
  6  7  1  0
  7  8  1  0
  8  9  1  0
  9 10  1  0
 10 11  1  0
 11 12  1  0
 12 13  1  0
 13 14  1  0
 14 15  1  0
 15 16  1  0
 16 17  2  0
 17 18  1  0
 18 19  2  0
 19 20  1  0
 20 21  1  0
 20 22  2  0
 22 23  1  0
 23 24  2  0
 23 25  1  0
 22 16  1  0
M  END
>  <identifier>  (1949) 
CNP0159086.0

>  <canonical_smiles>  (1949) 
CCCCCCCCCCCCCCCC1=CC=CC(O)=C1C(=O)O

>  <standard_inchi>  (1949) 
InChI=1S/C22H36O3/c1-2-3-4-5-6-7-8-9-10-11-12-13-14-16-19-17-15-18-20(23)21(19)22(24)25/h15,17-18,23H,2-14,16H2,1H3,(H,24,25)

>  <standard_inchi_key>  (1949) 
ADFWQBGTDJIESE-UHFFFAOYSA-N

>  <name>  (1949) 
ANACARDIC ACID

>  <iupac_name>  (1949) 
2-hydroxy-6-pentadecyl-benzoic acid

>  <annotation_level>  (1949) 
5

>  <total_atom_count>  (1949) 
61

>  <heavy_atom_count>  (1949) 
25

>  <molecular_weight>  (1949) 
348.53

>  <exact_molecular_weight>  (1949) 
348.26645

>  <molecular_formula>  (1949) 
C22H36O3

>  <alogp>  (1949) 
6.72

>  <topological_polar_surface_area>  (1949) 
57.53

>  <rotatable_bond_count>  (1949) 
15

>  <hydrogen_bond_acceptors>  (1949) 
2

>  <hydrogen_bond_donors>  (1949) 
2

>  <hydrogen_bond_acceptors_lipinski>  (1949) 
2

>  <hydrogen_bond_donors_lipinski>  (1949) 
2

>  <lipinski_rule_of_five_violations>  (1949) 
1

>  <aromatic_rings_count>  (1949) 
1

>  <qed_drug_likeliness>  (1949) 
0.35

>  <formal_charge>  (1949) 
0

>  <fractioncsp3>  (1949) 
0.68

>  <number_of_minimal_rings>  (1949) 
1

>  <van_der_walls_volume>  (1949) 
366.98

>  <contains_sugar>  (1949) 
False

>  <contains_ring_sugars>  (1949) 
False

>  <contains_linear_sugars>  (1949) 
False

>  <murcko_framework>  (1949) 
c1ccccc1

>  <np_likeness>  (1949) 
0.51

>  <chemical_class>  (1949) 
Benzene and substituted derivatives

>  <chemical_sub_class>  (1949) 
Benzoic acids and derivatives

>  <chemical_super_class>  (1949) 
Benzenoids

>  <direct_parent_classification>  (1949) 
Salicylic acids

>  <np_classifier_pathway>  (1949) 
Polyketides

>  <np_classifier_superclass>  (1949) 
Aromatic polyketides

>  <np_classifier_class>  (1949) 
Catechols with side chains

>  <np_classifier_is_glycoside>  (1949) 
False

>  <organisms>  (1949) 
Amphipterygium adstringens|Anacardium Occidentale|Anacardium occidentale|Aronia arbutifolia|Aspilia eenii|Calocedrus decurrens|Cashew|Caulocystis cephalornithos|Clibadium mexiae|Discaria serratifolia|Ginkgo biloba|Ginkgo biloba L.|Helichrysum platypterum|Ideopsis similis|Iva asperifolia|Justicia hayatai|Knema elegans|Nelumbo nucifera|Ozoroa insignis|Pteris dactylina|Pyrostegia venusta|Rana amurensis|Rhus chinensis|Schoepfia californica|Sclerotinia sclerotiorum|Tanacetum aucherianum|Thymus caespititius|Viscaria viscosa

>  <collections>  (1949) 
ANPDB|Australian natural products|BIOFACQUIM|CMAUP (cCollective molecular activities of useful plants)|ChEBI NPs|FooDB|KNApSaCK|Latin America dataset|NANPDB (Natural Products from Northern African Sources)|NPASS|NPCARE|NPEdia|NuBBEDB|Super Natural II|TCMDB-Taiwan (Traditional Chinese Medicine database)|TCMID (Traditional Chinese Medicine Integrated Database)|TPPT (Toxic Plants–PhytoToxins)|UNPD (Universal Natural Products Database)|VietHerb|WikiData Natural Products

>  <dois>  (1949) 
10.1002/PCA.2800040408|10.1002/PTR.2650010307|10.1002/PTR.2650070309|10.1002/PTR.3109|10.1002/RECL.19410600906|10.1002/food.19880321030|10.1016/0031-9422(92)83267-3|10.1016/0378-8741(91)90032-9|10.1016/J.BSE.2006.03.004|10.1016/J.CHROMA.2009.01.013|10.1016/J.FITOTE.2003.08.007|10.1016/S0021-9673(02)00172-3|10.1016/j.bse.2006.03.004|10.1021/JF00002A039|10.1021/JF00030A035|10.1021/NP50012A005|10.1021/jf00030a035|10.1039/A807053I|10.1055/S-2006-960083|10.1055/S-2006-962108|10.1055/S-2007-969561|10.1076/PHBI.40.1.74.5862|10.1080/10575639208048898|10.1080/14786419.2010.534996|10.1248/CPB.35.3016|10.2903/j.efsa.2012.2663

>  <synonyms>  (1949) 
(15:0)-Anacardic acid|(15:0)-Anacardic acid, analytical standard|11034-77-8|16611-84-0|2-Hydroxy-6-pentadecylbenzoic acid|2-OXIDANYL-6-PENTADECYL-BENZOIC ACID|22:0-Anacardic acid|6-(Pentadecyl)Salicylic Acid|6-PDSA|6-Pentadecyl-2-hydroxybenzoic acid|6-Pentadecylsalicylic acid|8H693KBS2W|A925109|AKOS024457416|AS-63256|Anacardic Acid - CAS 16611-84-0|Anacardic Acid?|Anacardic acid A|Anacardsaure|Anarcadic Acid|BCP27645|BDBM50240436|BRD-K66989831-001-01-3|Benzoic acid,|Benzoic acid, 2-hydroxy-6-pentadecyl-|C22H36O3|CCG-208707|CHEBI:2696|CHEMBL33778|CS-0018377|DTXSID00168078|EX-A3352|Ginkgolic acid C15:0|HB1380|HMS3426M05|HY-N2020|Hydroginkgolic acid|J-010259|LMPK15040002|MFCD07368254|NCGC00263625-09|NS- 623096|NS00094589|NSC-229596|NSC-333857|NSC623096|PA-9A|Pentadecylsalicylic acid, 6-|SCHEMBL627981|Salicylic acid, 6-pentadecyl-|cyclogallipharic acid|s7582

>  <cas>  (1949) 
16611-84-0|Anacardic Acid - CAS 16611-84-0|11034-77-8

$$$$

     RDKit          2D

 36 40  0  0  0  0  0  0  0  0999 V2000
   -9.3154    1.1298    0.0000 C   0  0  0  0  0  0  0  0  0  0  0  0
   -7.8182    1.2213    0.0000 C   0  0  0  0  0  0  0  0  0  0  0  0
   -7.1489    2.5637    0.0000 O   0  0  0  0  0  0  0  0  0  0  0  0
   -6.9904   -0.0295    0.0000 O   0  0  0  0  0  0  0  0  0  0  0  0
   -5.4932    0.0620    0.0000 C   0  0  0  0  0  0  0  0  0  0  0  0
   -4.8238    1.4043    0.0000 C   0  0  0  0  0  0  0  0  0  0  0  0
   -3.3266    1.4958    0.0000 C   0  0  0  0  0  0  0  0  0  0  0  0
   -2.4988    0.2450    0.0000 C   0  0  0  0  0  0  0  0  0  0  0  0
   -1.8294    1.5873    0.0000 C   0  0  0  0  0  0  0  0  0  0  0  0
   -1.0016    0.3365    0.0000 C   0  0  0  0  0  0  0  0  0  0  0  0
   -0.3322    1.6788    0.0000 C   0  0  0  0  0  0  0  0  0  0  0  0
    1.1650    1.7703    0.0000 C   0  0  0  0  0  0  0  0  0  0  0  0
    1.9929    0.5195    0.0000 C   0  0  0  0  0  0  0  0  0  0  0  0
    2.6622    1.8618    0.0000 C   0  0  0  0  0  0  0  0  0  0  0  0
    1.3235   -0.8229    0.0000 C   0  0  0  0  0  0  0  0  0  0  0  0
    2.1513   -2.0738    0.0000 C   0  0  0  0  0  0  0  0  0  0  0  0
    3.6485   -1.9823    0.0000 C   0  0  0  0  0  0  0  0  0  0  0  0
    4.3179   -0.6399    0.0000 C   0  0  0  0  0  0  0  0  0  0  0  0
    5.1458   -1.8908    0.0000 C   0  0  0  0  0  0  0  0  0  0  0  0
    6.6430   -1.7993    0.0000 O   0  0  0  0  0  0  0  0  0  0  0  0
    4.4764   -3.2332    0.0000 O   0  0  0  0  0  0  0  0  0  0  0  0
    5.8151   -0.5484    0.0000 C   0  0  0  0  0  0  0  0  0  0  0  0
    6.4845    0.7940    0.0000 C   0  0  0  0  0  0  0  0  0  0  0  0
    5.6566    2.0448    0.0000 C   0  0  0  0  0  0  0  0  0  0  0  0
    5.3065    3.5034    0.0000 C   0  0  0  0  0  0  0  0  0  0  0  0
    7.0323    2.6429    0.0000 C   0  0  0  0  0  0  0  0  0  0  0  0
    4.1594    1.9533    0.0000 C   0  0  0  0  0  0  0  0  0  0  0  0
    3.4901    0.6110    0.0000 C   0  0  0  0  0  0  0  0  0  0  0  0
   -0.1737   -0.9144    0.0000 C   0  0  0  0  0  0  0  0  0  0  0  0
    0.6541   -2.1653    0.0000 C   0  0  0  0  0  0  0  0  0  0  0  0
   -0.8431   -2.2568    0.0000 C   0  0  0  0  0  0  0  0  0  0  0  0
   -2.3403   -2.3483    0.0000 C   0  0  0  0  0  0  0  0  0  0  0  0
   -3.1681   -1.0974    0.0000 C   0  0  0  0  0  0  0  0  0  0  0  0
   -4.6653   -1.1889    0.0000 C   0  0  0  0  0  0  0  0  0  0  0  0
   -4.3152   -2.6475    0.0000 C   0  0  0  0  0  0  0  0  0  0  0  0
   -6.0410   -1.7870    0.0000 C   0  0  0  0  0  0  0  0  0  0  0  0
  1  2  1  0
  2  3  2  0
  2  4  1  0
  5  4  1  1
  5  6  1  0
  6  7  1  0
  7  8  1  0
  8  9  1  1
  8 10  1  0
 10 11  1  1
 11 12  1  0
 12 13  1  0
 13 14  1  6
 13 15  1  0
 15 16  2  0
 16 17  1  0
 17 18  1  0
 18 19  1  1
 19 20  2  0
 19 21  1  0
 18 22  1  0
 22 23  1  0
 23 24  1  0
 24 25  1  0
 24 26  1  0
 24 27  1  0
 28 27  1  6
 15 29  1  0
 29 30  1  1
 29 31  1  0
 31 32  1  0
 33 32  1  1
 33 34  1  0
 34 35  1  0
 34 36  1  0
 34  5  1  0
 33  8  1  0
 29 10  1  0
 28 13  1  0
 28 18  1  0
M  END
>  <identifier>  (1950) 
CNP0172010.1

>  <canonical_smiles>  (1950) 
CC(=O)O[C@H]1CC[C@]2(C)[C@H]3CC[C@]4(C)C(=CC[C@@]5(C(=O)O)CCC(C)(C)C[C@H]54)[C@]3(C)CC[C@H]2C1(C)C

>  <standard_inchi>  (1950) 
InChI=1S/C32H50O4/c1-20(33)36-25-12-15-29(6)21(28(25,4)5)9-13-30(7)22(29)10-14-31(8)23(30)11-16-32(26(34)35)18-17-27(2,3)19-24(31)32/h11,21-22,24-25H,9-10,12-19H2,1-8H3,(H,34,35)/t21-,22+,24-,25-,29-,30+,31+,32+/m0/s1

>  <standard_inchi_key>  (1950) 
UROPGAQBZGIPQC-VUHMTIHWSA-N

>  <name>  (1950) 
Acetyl aleuritolic acid

>  <iupac_name>  (1950) 
(4~{a}~{S},6~{a}~{R},6~{b}~{R},8~{a}~{R},10~{S},12~{a}~{R},14~{a}~{S},14~{b}~{S})-10-acetoxy-2,2,6~{b},9,9,12~{a},14~{a}-heptamethyl-1,3,4,5,6~{a},7,8,8~{a},10,11,12,13,14,14~{b}-tetradecahydropicene-4~{a}-carboxylic acid

>  <annotation_level>  (1950) 
5

>  <total_atom_count>  (1950) 
86

>  <heavy_atom_count>  (1950) 
36

>  <molecular_weight>  (1950) 
498.75

>  <exact_molecular_weight>  (1950) 
498.37091

>  <molecular_formula>  (1950) 
C32H50O4

>  <alogp>  (1950) 
7.80

>  <topological_polar_surface_area>  (1950) 
63.60

>  <rotatable_bond_count>  (1950) 
2

>  <hydrogen_bond_acceptors>  (1950) 
3

>  <hydrogen_bond_donors>  (1950) 
1

>  <hydrogen_bond_acceptors_lipinski>  (1950) 
3

>  <hydrogen_bond_donors_lipinski>  (1950) 
1

>  <lipinski_rule_of_five_violations>  (1950) 
1

>  <aromatic_rings_count>  (1950) 
0

>  <qed_drug_likeliness>  (1950) 
0.31

>  <formal_charge>  (1950) 
0

>  <fractioncsp3>  (1950) 
0.88

>  <number_of_minimal_rings>  (1950) 
5

>  <van_der_walls_volume>  (1950) 
496.13

>  <contains_sugar>  (1950) 
False

>  <contains_ring_sugars>  (1950) 
False

>  <contains_linear_sugars>  (1950) 
False

>  <murcko_framework>  (1950) 
C1=C2C(CCC3C2CCC4CCCCC43)C5CCCCC5C1

>  <np_likeness>  (1950) 
2.91

>  <chemical_class>  (1950) 
Prenol lipids

>  <chemical_sub_class>  (1950) 
Sesterterpenoids

>  <chemical_super_class>  (1950) 
Lipids and lipid-like molecules

>  <direct_parent_classification>  (1950) 
Scalarane sesterterpenoids

>  <np_classifier_pathway>  (1950) 
Terpenoids

>  <np_classifier_superclass>  (1950) 
Triterpenoids

>  <np_classifier_class>  (1950) 
Taraxerane triterpenoids

>  <np_classifier_is_glycoside>  (1950) 
False

>  <organisms>  (1950) 
Acalypha spiciflora|Alchornea cordifolia|Blainvillea acmella|Clausena dunniana|Cleidion Spiciflorum|Cleidion spiciflorum (Burm. f.) Merr.|Cnidoscolus vitifolius|Croton alienus|Croton aromaticus|Croton cajucara|Croton cascarilloides|Croton insularis|Croton laccifer|Croton lacciferus|Croton macrostachys|Croton megalocarpoides|Croton megalocarpus|Croton urucurana|Croton urucurana Baill.|Elateriospermum tapos|Garcia parviflora|Jatropha weddeliana|Jatropha weddelliana|Macaranga tanarius|Mallotus apelta|Maprounea africana|Neoboutonia glabrescens Prain|Neoboutonia macrocalyx|Neoboutonia mannii|Phytolacca acinosa|Phytolacca americana|Sapium discolor|Sapium rigidifolium|Shirakiopsis elliptica|Spilanthes acmella|Spirostachys africana|Trianthema Portulacastrum|Trianthema portulacastrum

>  <collections>  (1950) 
ANPDB|BIOFACQUIM|CMAUP (cCollective molecular activities of useful plants)|ChEBI NPs|ChemSpider NPs|KNApSaCK|Latin America dataset|NANPDB (Natural Products from Northern African Sources)|NPASS|NuBBEDB|SANCDB|Super Natural II|TIPdb (database of Taiwan indigenous plants)|VietHerb|WikiData Natural Products

>  <dois>  (1950) 
10.1002/(SICI)1099-1573(199805)12:3<209::AID-PTR215>3.0.CO;2-P|10.1007/S10600-010-9512-X|10.1016/0031-9422(88)84109-8|10.1016/0031-9422(92)80362-I|10.1016/0031-9422(93)85112-5|10.1016/0041-0101(90)90059-G|10.1016/J.JEP.2007.11.017|10.1016/J.PHYTOCHEM.2006.03.024|10.1016/S0031-9422(00)00166-7|10.1016/S0031-9422(00)00270-3|10.1016/S0031-9422(00)83203-3|10.1016/S0031-9422(03)00158-4|10.1016/S0031-9422(98)00069-7|10.1016/S0031-9422(98)00159-9|10.1016/S0031-9422(98)00163-0|10.1016/S0378-8741(97)00039-1|10.1016/j.jep.2007.11.017|10.1016/j.jep.2014.12.018|10.1021/NP030423P|10.1021/NP070629G|10.1021/NP100440P|10.1021/NP50010A013|10.1021/acs.jnatprod.8b00585|10.1021/np070629g|10.1021/np100440p|10.1021/np50105a017|10.1055/s-0033-1351044|10.1055/s-0042-108857|10.1080/13880200902933039|10.1590/S0102-695X2007000400008|10.3390/MOLECULES14020850

>  <synonyms>  (1950) 
(4aS,6aR,6bR,8aR,10S,12aR,14aS,14bS)-10-acetyloxy-2,2,6b,9,9,12a,14a-heptamethyl-1,3,4,5,6a,7,8,8a,10,11,12,13,14,14b-tetradecahydropicene-4a-carboxylic acid|(4as,6br,8ar,10s,12ar,12br,14as,14bs)-10-(acetyloxy)-2,2,6b,9,9,12a,14a-heptamethyl-1,3,4,5,6b,7,8,8a,9,10,11,12,12a,12b,13,14,14a,14b-octadecahydropicene-4a(2h)-carboxylic acid|28937-85-1|3-O-acetyloleuritolic acid|3beta-acetoxyfriedoolean-14-ene-28-oic acid|AKOS040746500|ALEURITOLIC ACID, ACETYL-|Acetylaleuritolic acid|BDBM50478510|CHEBI:70418|CHEMBL439422|D-Friedoolean-14-en-28-oic acid, 3-(acetyloxy)-, (3beta)-|D-Friedoolean-14-en-oic acid|HEXADECNOIC ACID (ACETYLOXY) DIHYDROXY-|Hexadecanoic acid, (acetyloxy)dihydroxy-, (R*,S*)-(+-)-|Maprounic Acid Acetate|NSC 266221|Q27138756

>  <cas>  (1950) 
28937-85-1

$$$$

     RDKit          2D

 26 28  0  0  0  0  0  0  0  0999 V2000
    7.5534   -1.0972    0.0000 C   0  0  0  0  0  0  0  0  0  0  0  0
    6.8755    0.2409    0.0000 O   0  0  0  0  0  0  0  0  0  0  0  0
    5.3777    0.3229    0.0000 C   0  0  0  0  0  0  0  0  0  0  0  0
    4.5578   -0.9332    0.0000 C   0  0  0  0  0  0  0  0  0  0  0  0
    3.0601   -0.8513    0.0000 C   0  0  0  0  0  0  0  0  0  0  0  0
    2.2402   -2.1074    0.0000 C   0  0  0  0  0  0  0  0  0  0  0  0
    0.7425   -2.0254    0.0000 C   0  0  0  0  0  0  0  0  0  0  0  0
   -0.2042   -3.1890    0.0000 C   0  0  0  0  0  0  0  0  0  0  0  0
   -1.6033   -2.6482    0.0000 O   0  0  0  0  0  0  0  0  0  0  0  0
   -1.5214   -1.1504    0.0000 C   0  0  0  0  0  0  0  0  0  0  0  0
   -2.6849   -0.2038    0.0000 C   0  0  0  0  0  0  0  0  0  0  0  0
   -2.4468    1.2772    0.0000 C   0  0  0  0  0  0  0  0  0  0  0  0
   -3.6104    2.2239    0.0000 C   0  0  0  0  0  0  0  0  0  0  0  0
   -5.0120    1.6896    0.0000 C   0  0  0  0  0  0  0  0  0  0  0  0
   -6.1755    2.6362    0.0000 O   0  0  0  0  0  0  0  0  0  0  0  0
   -5.2500    0.2086    0.0000 C   0  0  0  0  0  0  0  0  0  0  0  0
   -6.6517   -0.3258    0.0000 O   0  0  0  0  0  0  0  0  0  0  0  0
   -6.8897   -1.8067    0.0000 C   0  0  0  0  0  0  0  0  0  0  0  0
   -4.0865   -0.7381    0.0000 C   0  0  0  0  0  0  0  0  0  0  0  0
   -0.0716   -0.7656    0.0000 C   0  0  0  0  0  0  0  0  0  0  0  0
    0.4692    0.6336    0.0000 C   0  0  0  0  0  0  0  0  0  0  0  0
   -0.4721    1.8015    0.0000 O   0  0  0  0  0  0  0  0  0  0  0  0
    2.3822    0.4868    0.0000 C   0  0  0  0  0  0  0  0  0  0  0  0
    3.2020    1.7429    0.0000 C   0  0  0  0  0  0  0  0  0  0  0  0
    4.6998    1.6610    0.0000 C   0  0  0  0  0  0  0  0  0  0  0  0
    5.5197    2.9171    0.0000 O   0  0  0  0  0  0  0  0  0  0  0  0
  1  2  1  0
  2  3  1  0
  3  4  2  0
  4  5  1  0
  5  6  1  0
  7  6  1  1
  7  8  1  0
  8  9  1  0
  9 10  1  0
 10 11  1  6
 11 12  2  0
 12 13  1  0
 13 14  2  0
 14 15  1  0
 14 16  1  0
 16 17  1  0
 17 18  1  0
 16 19  2  0
 10 20  1  0
 20 21  1  1
 21 22  1  0
  5 23  2  0
 23 24  1  0
 24 25  2  0
 25 26  1  0
 25  3  1  0
 20  7  1  0
 19 11  1  0
M  END
>  <identifier>  (1951) 
CNP0193057.1

>  <canonical_smiles>  (1951) 
COC1=CC(C[C@H]2CO[C@H](C3=CC=C(O)C(OC)=C3)[C@H]2CO)=CC=C1O

>  <standard_inchi>  (1951) 
InChI=1S/C20H24O6/c1-24-18-8-12(3-5-16(18)22)7-14-11-26-20(15(14)10-21)13-4-6-17(23)19(9-13)25-2/h3-6,8-9,14-15,20-23H,7,10-11H2,1-2H3/t14-,15-,20+/m0/s1

>  <standard_inchi_key>  (1951) 
MHXCIKYXNYCMHY-AUSJPIAWSA-N

>  <name>  (1951) 
Lariciresinol

>  <iupac_name>  (1951) 
4-[[(3~{R},4~{R},5~{S})-5-(4-hydroxy-3-methoxy-phenyl)-4-(hydroxymethyl)tetrahydrofuran-3-yl]methyl]-2-methoxy-phenol

>  <annotation_level>  (1951) 
5

>  <total_atom_count>  (1951) 
50

>  <heavy_atom_count>  (1951) 
26

>  <molecular_weight>  (1951) 
360.41

>  <exact_molecular_weight>  (1951) 
360.15729

>  <molecular_formula>  (1951) 
C20H24O6

>  <alogp>  (1951) 
2.65

>  <topological_polar_surface_area>  (1951) 
88.38

>  <rotatable_bond_count>  (1951) 
6

>  <hydrogen_bond_acceptors>  (1951) 
6

>  <hydrogen_bond_donors>  (1951) 
3

>  <hydrogen_bond_acceptors_lipinski>  (1951) 
6

>  <hydrogen_bond_donors_lipinski>  (1951) 
3

>  <lipinski_rule_of_five_violations>  (1951) 
0

>  <aromatic_rings_count>  (1951) 
2

>  <qed_drug_likeliness>  (1951) 
0.73

>  <formal_charge>  (1951) 
0

>  <fractioncsp3>  (1951) 
0.40

>  <number_of_minimal_rings>  (1951) 
3

>  <van_der_walls_volume>  (1951) 
327.94

>  <contains_sugar>  (1951) 
False

>  <contains_ring_sugars>  (1951) 
False

>  <contains_linear_sugars>  (1951) 
False

>  <murcko_framework>  (1951) 
O1CC(Cc2ccccc2)CC1c3ccccc3

>  <np_likeness>  (1951) 
1.59

>  <chemical_class>  (1951) 
Furanoid lignans

>  <chemical_sub_class>  (1951) 
Tetrahydrofuran lignans

>  <chemical_super_class>  (1951) 
Lignans, neolignans and related compounds

>  <direct_parent_classification>  (1951) 
7,9'-epoxylignans

>  <np_classifier_pathway>  (1951) 
Shikimates and Phenylpropanoids

>  <np_classifier_superclass>  (1951) 
Lignans

>  <np_classifier_class>  (1951) 
Furanoid lignans

>  <np_classifier_is_glycoside>  (1951) 
False

>  <organisms>  (1951) 
Abies pinsapo|Abies pinsapo subsp. marocana|Abies sachalinensis|Actinidia chinensis|Actinoplanes durhamensis|Aglaia elaeagnoidea|Allium sativum|Ananas comosus|Anastatica hierochuntica|Aquilaria sinensis|Arachis hypogaea|Araucaria angustifolia|Arum italicum|Asparagus officinalis|Astragalus mongholicus|Avena sativa|Balanophora harlandii|Berberis koreana|Brassica fruticulosa|Brassica oleracea var. botrytis|Brassica oleracea var. capitata|Brassica oleracea var. sabauda|Brassica oleracea var. viridis|Cajanus scarabaeoides|Callicarpa furfuracea|Camellia sinensis|Capsicum annum|Capsicum annuum|Carduus assoi|Carya illinoinensis|Cashew|Castanea|Cedrus deodara|Cichorium intybus|Citrullus lanatus subsp. vulgaris|Citrus paradisi|Citrus reticulata|Citrus × deliciosa|Citrus × paradisi|Clematis armandii|Clematis montana|Clematis stans|Clerodendrum Indicum|Clerodendrum indicum|Coffea|Comptonia asplenifolia|Coptis chinensis|Coptis deltoidea|Coptis japonica|Coptis japonica var. dissecta|Coptis teeta|Corylus|Corynebacterium matruchotii|Cucumis melo|Cucumis melo var. dudaim|Cucumis sativus|Cucurbita pepo|Cycas revoluta|Daphne feddei|Daphne genkwa|Daphne mezereum|Daphne odora|Daphne oleoides|Daphne oleoides spp.|Daphne tangutica|Daucus carota|Dirca occidentalis|Enterococcus faecalis|Ephedra viridis|Eucommia ulmoides|Euterpe oleracea|Fagopyrum esculentum|Fagraea Racemosa|Fagraea racemosa|Forsythia intermedia|Fragaria|Fragaria x ananassa|Gliricidia sepium|Glycine|Glycine max|Gnetum montanum|Hemerocallis fulva|Hibiscus Cannabinus|Hibiscus cannabinus|Hordeum vulgare|Isatis indigotica|Isatis tinctoria|Jasminum hemsleyi|Jugo|Justicia diffusa|Justicia diffusa var. prostrata|Justicia glauca|Justicia tranquebariensis|Larix dahurica|Larix leptolepis|Larix sibirica|Leitneria floridana|Linum album|Linum usitatissimum|Magnolia Coco|Magnolia coco|Magnolia denudata|Magnolia kachirachirai|Magnolia kobus|Malus domestica|Malus pumila|Morina chinensis|Musa|Nectandra rodiei|Nepeta cadmea|Nierembergia aristata|Oenothera odorata|Olea europaea|Oscillatoria borneti|Osmanthus asiaticus|Papaver|Parsonsia laevigata|Pedicularis artselaeri|Perovskia atriplicifolia|Persicaria tinctoria|Phaseolus vulgaris|Phlomis spinidens|Phoenix dactylifera|Picea abies|Picea excelsa|Picea jezoensis var. jezoensis|Picea koraiensis|Picea obovata|Pinellia ternata|Pistacia vera|Premna recinosa|Premna resinosa|Prosopis juliflora|Prunus armeniaca|Prunus avium|Prunus domestica|Prunus dulcis|Prunus persica|Pteris vittata|Putoria calabrica|Pyrus communis|Raphanus sativus var. sativus|Rhodiola rosea|Ribes nigrum|Rubia cordifolia|Rubia yunnanensis|Rubus chamaemorus|Sambucus nigra|Sambucus williamsii|Saussurea medusa|Scenedesmus basiliensis|Secale cereale|Sesamum orientale|Solanum lycopersicum|Solanum melongena|Solanum tuberosum|Spinacia oleracea|Stellera chamaejasme|Stereum complicatum|Stevia viscida|Styrax camporum|Syringa vulgaris|Taiwania cryptomerioides|Taxus baccata|Taxus cuspidata|Taxus mairei|Taxus wallichiana|Taxus yunnanensis|Tectona grandis|Thonningia sanguinea|Tinospora baenzigeri|Triticum aestivum|Tsuga heterophylla|Vaccinium myrtillus|Vaccinium vitis-idaea|Vitex peduncularis|Vitex rotundifolia|Vitis vinifera|Wikstroemia elliptica|Wikstroemia sikokiana|asparagus|broccoli|common sunflower|garlic|lettuce|maize|peanut|pomegranate|potato|sesame|tomato

>  <collections>  (1951) 
ANPDB|Australian natural products|CMAUP (cCollective molecular activities of useful plants)|ChEBI NPs|ChemSpider NPs|FooDB|KNApSaCK|Latin America dataset|NANPDB (Natural Products from Northern African Sources)|NPACT|NPASS|NPEdia|NuBBEDB|Phenol-explorer|Phyto4Health|Super Natural II|TCMDB-Taiwan (Traditional Chinese Medicine database)|TIPdb (database of Taiwan indigenous plants)|VietHerb|WikiData Natural Products|ZINC NP

>  <dois>  (1951) 
10.1002/CHIN.200533260|10.1002/HLCA.200690013|10.1002/HLCA.201000289|10.1002/JPS.2600721112|10.1007/BF00563906|10.1007/BF00636560|10.1007/BF00777366|10.1007/S10600-009-9325-Y|10.1007/SPRINGERREFERENCE_68783|10.1016/0031-9422(80)83107-4|10.1016/0031-9422(90)85290-V|10.1016/0031-9422(90)87120-J|10.1016/0031-9422(95)00600-1|10.1016/0305-1978(94)00066-P|10.1016/J.BMC.2010.01.046|10.1016/J.BMCL.2011.02.104|10.1016/J.BMCL.2013.08.004|10.1016/J.FOODCHEM.2012.03.133|10.1016/J.LFS.2004.03.002|10.1016/J.LFS.2004.07.001|10.1016/J.MOLSTRUC.2003.12.035|10.1016/J.PHYTOL.2012.03.008|10.1016/S0031-9422(00)00108-4|10.1016/S0031-9422(00)00126-6|10.1016/S0031-9422(00)00239-9|10.1016/S0031-9422(00)89347-4|10.1016/S0031-9422(01)00311-9|10.1016/S0031-9422(01)00401-0|10.1016/S0031-9422(01)00429-0|10.1016/S0031-9422(97)00957-6|10.1016/S0031-9422(97)00977-1|10.1016/S0031-9422(98)00468-3|10.1016/S0040-4020(99)00933-3|10.1016/S0308-8146(03)00222-X|10.1016/S0367-326X(00)00233-1|10.1016/S0367-326X(01)00290-8|10.1016/j.bmc.2010.01.046|10.1016/j.phytol.2012.03.008|10.1021/JF034644C|10.1021/JF048945D|10.1021/JF051488W|10.1021/JF061694J|10.1021/JF203598M|10.1021/JF801792N|10.1021/NP000260U|10.1021/NP0205710|10.1021/NP0301083|10.1021/NP0305472|10.1021/NP040219H|10.1021/NP100665J|10.1021/NP2002918|10.1021/NP50078A023|10.1021/NP50108A005|10.1021/NP50120A005|10.1021/NP8004166|10.1055/S-0029-1240743|10.1055/S-2005-871254|10.1055/S-2006-960221|10.1079/BJN20051371|10.1080/10286020008041368|10.1207/S15327914NC5402_5|10.1248/CPB.43.2200|10.1248/CPB.50.137|10.1248/CPB.51.508|10.1248/CPB.51.654|10.1248/CPB.58.939|10.1248/cpb.43.2200|10.1515/HF-2018-0026|10.1515/HF.2003.005|10.1590/S0100-40422002000300002|10.3390/MOLECULES15064011|10.3987/COM-03-9804|10.3987/COM-93-6424

>  <synonyms>  (1951) 
(+)-Lariciresinol|(+)-Lariciresinol, >=95.0% (HPLC)|(2S,3R,4R)-Tetrahydro-2-(4-hydroxy-3-methoxyphenyl)-4-[(4-hydroxy-3-methoxyphenyl)methyl]-3-furanmethanol; (+)-Lariciresinol|27003-73-2|3-Furanmethanol, tetrahydro-2-(4-hydroxy-3-methoxyphenyl)-4-((4-hydroxy-3-methoxyphenyl)methyl)-, (2S,3R,4R)-|3-Furanmethanol, tetrahydro-2-(4-hydroxy-3-methoxyphenyl)-4-vanillyl-|4-((2S,3R,4R)-4-(4-hydroxy-3-methoxybenzyl)-3-(hydroxymethyl)tetrahydrofuran-2-yl)-2-methoxyphenol|4-[[(3R,4R,5S)-4-(hydroxymethyl)-5-(3-methoxy-4-oxidanyl-phenyl)oxolan-3-yl]methyl]-2-methoxy-phenol|4-[[(3R,4R,5S)-5-(4-hydroxy-3-methoxyphenyl)-4-(hydroxymethyl)oxolan-3-yl]methyl]-2-methoxyphenol|73XCE5OZB0|AKOS032948405|BDBM50335920|CHEBI:67246|CHEMBL518421|DTXCID70269485|DTXSID30318362|E87137|FS-9698|Lariciresinol|Lariciresinol, (+)-|NSC-329247|Q6489358|SCHEMBL121881|UNII-73XCE5OZB0|larici-resinol

>  <cas>  (1951) 
27003-73-2

$$$$

     RDKit          2D

 35 36  0  0  0  0  0  0  0  0999 V2000
    6.1718   -4.0114    0.0000 C   0  0  0  0  0  0  0  0  0  0  0  0
    4.7926   -3.4217    0.0000 O   0  0  0  0  0  0  0  0  0  0  0  0
    4.6137   -1.9324    0.0000 C   0  0  0  0  0  0  0  0  0  0  0  0
    5.4673   -1.4426    0.0000 O   0  0  0  0  0  0  0  0  0  0  0  0
    3.2345   -1.3426    0.0000 C   0  0  0  0  0  0  0  0  0  0  0  0
    2.0341   -2.2422    0.0000 C   0  0  0  0  0  0  0  0  0  0  0  0
    0.6549   -1.6525    0.0000 O   0  0  0  0  0  0  0  0  0  0  0  0
    0.4760   -0.1632    0.0000 C   0  0  0  0  0  0  0  0  0  0  0  0
   -0.9032    0.4265    0.0000 O   0  0  0  0  0  0  0  0  0  0  0  0
   -2.1035   -0.4730    0.0000 C   0  0  0  0  0  0  0  0  0  0  0  0
   -3.4827    0.1167    0.0000 O   0  0  0  0  0  0  0  0  0  0  0  0
   -4.6830   -0.7829    0.0000 C   0  0  0  0  0  0  0  0  0  0  0  0
   -6.0622   -0.1931    0.0000 C   0  0  0  0  0  0  0  0  0  0  0  0
   -6.2411    1.2962    0.0000 O   0  0  0  0  0  0  0  0  0  0  0  0
   -7.6203    1.8859    0.0000 C   0  0  0  0  0  0  0  0  0  0  0  0
   -7.7992    3.3752    0.0000 C   0  0  0  0  0  0  0  0  0  0  0  0
   -8.8207    0.9863    0.0000 O   0  0  0  0  0  0  0  0  0  0  0  0
   -4.5041   -2.2722    0.0000 C   0  0  0  0  0  0  0  0  0  0  0  0
   -5.7045   -3.1717    0.0000 O   0  0  0  0  0  0  0  0  0  0  0  0
   -3.1249   -2.8619    0.0000 C   0  0  0  0  0  0  0  0  0  0  0  0
   -2.9460   -4.3512    0.0000 O   0  0  0  0  0  0  0  0  0  0  0  0
   -1.9246   -1.9623    0.0000 C   0  0  0  0  0  0  0  0  0  0  0  0
   -0.5454   -2.5520    0.0000 O   0  0  0  0  0  0  0  0  0  0  0  0
    1.6764    0.7364    0.0000 C   0  0  0  0  0  0  0  0  0  0  0  0
    1.4975    2.2257    0.0000 C   0  0  0  0  0  0  0  0  0  0  0  0
    0.1183    2.8154    0.0000 C   0  0  0  0  0  0  0  0  0  0  0  0
    2.6978    3.1252    0.0000 O   0  0  0  0  0  0  0  0  0  0  0  0
    2.5189    4.6145    0.0000 C   0  0  0  0  0  0  0  0  0  0  0  0
    3.7192    5.5141    0.0000 C   0  0  0  0  0  0  0  0  0  0  0  0
    1.1397    5.2043    0.0000 O   0  0  0  0  0  0  0  0  0  0  0  0
    3.0556    0.1467    0.0000 C   0  0  0  0  0  0  0  0  0  0  0  0
    4.2559    1.0462    0.0000 C   0  0  0  0  0  0  0  0  0  0  0  0
    5.6351    0.4565    0.0000 C   0  0  0  0  0  0  0  0  0  0  0  0
    5.8707   -0.4990    0.0000 O   0  0  0  0  0  0  0  0  0  0  0  0
    6.8354    1.3561    0.0000 O   0  0  0  0  0  0  0  0  0  0  0  0
  1  2  1  0
  2  3  1  0
  3  4  2  0
  3  5  1  0
  5  6  2  0
  6  7  1  0
  7  8  1  0
  8  9  1  1
 10  9  1  1
 10 11  1  0
 11 12  1  0
 12 13  1  1
 13 14  1  0
 14 15  1  0
 15 16  1  0
 15 17  2  0
 12 18  1  0
 18 19  1  6
 18 20  1  0
 20 21  1  1
 20 22  1  0
 22 23  1  6
  8 24  1  0
 24 25  1  6
 25 26  1  1
 25 27  1  0
 27 28  1  0
 28 29  1  0
 28 30  2  0
 24 31  1  0
 31 32  1  6
 32 33  1  0
 33 34  2  0
 33 35  1  0
 31  5  1  0
 22 10  1  0
M  END
>  <identifier>  (1952) 
CNP0183681.2

>  <canonical_smiles>  (1952) 
COC(=O)C1=CO[C@@H](O[C@@H]2O[C@H](COC(C)=O)[C@@H](O)[C@H](O)[C@H]2O)[C@H]([C@@H](C)OC(C)=O)[C@@H]1CC(=O)O

>  <standard_inchi>  (1952) 
InChI=1S/C21H30O14/c1-8(33-10(3)23)15-11(5-14(24)25)12(19(29)30-4)6-32-20(15)35-21-18(28)17(27)16(26)13(34-21)7-31-9(2)22/h6,8,11,13,15-18,20-21,26-28H,5,7H2,1-4H3,(H,24,25)/t8-,11-,13-,15-,16-,17+,18-,20+,21+/m1/s1

>  <standard_inchi_key>  (1952) 
FWVFWBXGZOLBJL-IVKCGISMSA-N

>  <name>  (1952) 
nan

>  <iupac_name>  (1952) 
2-[(2~{S},3~{S},4~{S})-3-[(1~{R})-1-acetoxyethyl]-2-[(2~{S},3~{R},4~{S},5~{S},6~{R})-6-(acetoxymethyl)-3,4,5-trihydroxy-tetrahydropyran-2-yl]oxy-5-methoxycarbonyl-3,4-dihydro-2~{H}-pyran-4-yl]acetic acid

>  <annotation_level>  (1952) 
3

>  <total_atom_count>  (1952) 
65

>  <heavy_atom_count>  (1952) 
35

>  <molecular_weight>  (1952) 
506.46

>  <exact_molecular_weight>  (1952) 
506.16356

>  <molecular_formula>  (1952) 
C21H30O14

>  <alogp>  (1952) 
-1.55

>  <topological_polar_surface_area>  (1952) 
204.58

>  <rotatable_bond_count>  (1952) 
9

>  <hydrogen_bond_acceptors>  (1952) 
13

>  <hydrogen_bond_donors>  (1952) 
4

>  <hydrogen_bond_acceptors_lipinski>  (1952) 
13

>  <hydrogen_bond_donors_lipinski>  (1952) 
4

>  <lipinski_rule_of_five_violations>  (1952) 
2

>  <aromatic_rings_count>  (1952) 
0

>  <qed_drug_likeliness>  (1952) 
0.21

>  <formal_charge>  (1952) 
0

>  <fractioncsp3>  (1952) 
0.71

>  <number_of_minimal_rings>  (1952) 
2

>  <van_der_walls_volume>  (1952) 
nan

>  <contains_sugar>  (1952) 
True

>  <contains_ring_sugars>  (1952) 
True

>  <contains_linear_sugars>  (1952) 
False

>  <murcko_framework>  (1952) 
O1C=CCCC1OC2OCCCC2

>  <np_likeness>  (1952) 
2.15

>  <chemical_class>  (1952) 
Carboxylic acids and derivatives

>  <chemical_sub_class>  (1952) 
Tetracarboxylic acids and derivatives

>  <chemical_super_class>  (1952) 
Organic acids and derivatives

>  <direct_parent_classification>  (1952) 
Tetracarboxylic acids and derivatives

>  <np_classifier_pathway>  (1952) 
Terpenoids

>  <np_classifier_superclass>  (1952) 
Monoterpenoids

>  <np_classifier_class>  (1952) 
Secoiridoid monoterpenoids

>  <np_classifier_is_glycoside>  (1952) 
True

>  <organisms>  (1952) 
Calycophyllum spruceanum

>  <collections>  (1952) 
Latin America dataset|NuBBEDB|Super Natural II|WikiData Natural Products|ZINC NP

>  <dois>  (1952) 
10.1016/S0031-9422(03)00153-5

>  <synonyms>  (1952) 
nan

>  <cas>  (1952) 
nan

$$$$

     RDKit          2D

 39 43  0  0  0  0  0  0  0  0999 V2000
   -1.1802   -4.6774    0.0000 C   0  0  0  0  0  0  0  0  0  0  0  0
   -2.2345   -3.6104    0.0000 O   0  0  0  0  0  0  0  0  0  0  0  0
   -1.8376   -2.1638    0.0000 C   0  0  0  0  0  0  0  0  0  0  0  0
   -0.3864   -1.7843    0.0000 O   0  0  0  0  0  0  0  0  0  0  0  0
   -2.8919   -1.0968    0.0000 C   0  0  0  0  0  0  0  0  0  0  0  0
   -2.4950    0.3497    0.0000 C   0  0  0  0  0  0  0  0  0  0  0  0
   -3.4319    1.5210    0.0000 C   0  0  0  0  0  0  0  0  0  0  0  0
   -4.5920    2.4720    0.0000 C   0  0  0  0  0  0  0  0  0  0  0  0
   -4.4989    0.4668    0.0000 C   0  0  0  0  0  0  0  0  0  0  0  0
   -4.1194   -0.9844    0.0000 O   0  0  0  0  0  0  0  0  0  0  0  0
   -5.1864   -2.0387    0.0000 C   0  0  0  0  0  0  0  0  0  0  0  0
   -4.8069   -3.4899    0.0000 C   0  0  0  0  0  0  0  0  0  0  0  0
   -6.6329   -1.6418    0.0000 O   0  0  0  0  0  0  0  0  0  0  0  0
   -5.9455    0.8637    0.0000 C   0  0  0  0  0  0  0  0  0  0  0  0
   -7.0125   -0.1906    0.0000 C   0  0  0  0  0  0  0  0  0  0  0  0
   -6.3250    2.3149    0.0000 O   0  0  0  0  0  0  0  0  0  0  0  0
   -2.6074    2.7741    0.0000 C   0  0  0  0  0  0  0  0  0  0  0  0
   -1.1609    2.3772    0.0000 C   0  0  0  0  0  0  0  0  0  0  0  0
   -1.2304    3.8756    0.0000 O   0  0  0  0  0  0  0  0  0  0  0  0
    0.2427    2.9064    0.0000 O   0  0  0  0  0  0  0  0  0  0  0  0
    1.1796    1.7350    0.0000 C   0  0  0  0  0  0  0  0  0  0  0  0
    0.3551    0.4819    0.0000 C   0  0  0  0  0  0  0  0  0  0  0  0
    1.0281   -0.8587    0.0000 C   0  0  0  0  0  0  0  0  0  0  0  0
    2.5255   -0.9461    0.0000 C   0  0  0  0  0  0  0  0  0  0  0  0
    3.3500    0.3069    0.0000 C   0  0  0  0  0  0  0  0  0  0  0  0
    4.0230   -1.0336    0.0000 C   0  0  0  0  0  0  0  0  0  0  0  0
    2.6771    1.6475    0.0000 C   0  0  0  0  0  0  0  0  0  0  0  0
    3.5016    2.9006    0.0000 C   0  0  0  0  0  0  0  0  0  0  0  0
    4.9990    2.8131    0.0000 C   0  0  0  0  0  0  0  0  0  0  0  0
    5.8235    4.0662    0.0000 O   0  0  0  0  0  0  0  0  0  0  0  0
    5.6720    1.4725    0.0000 O   0  0  0  0  0  0  0  0  0  0  0  0
    4.8475    0.2195    0.0000 C   0  0  0  0  0  0  0  0  0  0  0  0
    5.5204   -1.1211    0.0000 C   0  0  0  0  0  0  0  0  0  0  0  0
    7.0005   -1.3646    0.0000 C   0  0  0  0  0  0  0  0  0  0  0  0
    7.2263   -2.8476    0.0000 O   0  0  0  0  0  0  0  0  0  0  0  0
    5.8857   -3.5205    0.0000 C   0  0  0  0  0  0  0  0  0  0  0  0
    4.8314   -2.4535    0.0000 C   0  0  0  0  0  0  0  0  0  0  0  0
   -1.0914    0.8788    0.0000 C   0  0  0  0  0  0  0  0  0  0  0  0
   -1.0219   -0.6196    0.0000 C   0  0  0  0  0  0  0  0  0  0  0  0
  1  2  1  0
  2  3  1  0
  3  4  2  0
  3  5  1  0
  6  5  1  1
  6  7  1  0
  7  8  1  6
  7  9  1  0
  9 10  1  1
 10 11  1  0
 11 12  1  0
 11 13  2  0
  9 14  1  0
 14 15  1  0
 14 16  2  0
  7 17  1  0
 17 18  1  0
 18 19  1  1
 18 20  1  0
 20 21  1  0
 21 22  2  0
 22 23  1  0
 23 24  1  0
 24 25  1  0
 25 26  1  1
 25 27  1  0
 27 28  2  0
 28 29  1  0
 29 30  2  0
 29 31  1  0
 31 32  1  0
 32 33  1  1
 33 34  2  0
 34 35  1  0
 35 36  1  0
 36 37  2  0
 22 38  1  0
 38 39  1  1
 38  6  1  0
 38 18  1  0
 27 21  1  0
 37 33  1  0
 32 25  1  0
M  END
>  <identifier>  (1953) 
CNP0165216.1

>  <canonical_smiles>  (1953) 
COC(=O)C[C@H]1[C@@](C)([C@@H](OC(C)=O)C(C)=O)C[C@]2(O)OC3=C(CC[C@]4(C)C3=CC(=O)O[C@H]4C3=COC=C3)[C@]12C

>  <standard_inchi>  (1953) 
InChI=1S/C29H34O10/c1-15(30)24(37-16(2)31)27(4)14-29(34)28(5,20(27)12-21(32)35-6)18-7-9-26(3)19(23(18)39-29)11-22(33)38-25(26)17-8-10-36-13-17/h8,10-11,13,20,24-25,34H,7,9,12,14H2,1-6H3/t20-,24-,25-,26+,27-,28+,29-/m0/s1

>  <standard_inchi_key>  (1953) 
KRYPAGFLOBJWAI-OHAIWLLTSA-N

>  <name>  (1953) 
nan

>  <iupac_name>  (1953) 
methyl 2-[(6~{R},7~{R},11~{S},12~{S},13~{S},15~{S})-13-[(1~{R})-1-acetoxy-2-oxo-propyl]-6-(3-furyl)-15-hydroxy-7,11,13-trimethyl-4-oxo-5,16-dioxatetracyclo[8.6.0.0^{2,7}.0^{11,15}]hexadeca-1(10),2-dien-12-yl]acetate

>  <annotation_level>  (1953) 
4

>  <total_atom_count>  (1953) 
73

>  <heavy_atom_count>  (1953) 
39

>  <molecular_weight>  (1953) 
542.58

>  <exact_molecular_weight>  (1953) 
542.2152

>  <molecular_formula>  (1953) 
C29H34O10

>  <alogp>  (1953) 
3.69

>  <topological_polar_surface_area>  (1953) 
138.57

>  <rotatable_bond_count>  (1953) 
6

>  <hydrogen_bond_acceptors>  (1953) 
10

>  <hydrogen_bond_donors>  (1953) 
1

>  <hydrogen_bond_acceptors_lipinski>  (1953) 
10

>  <hydrogen_bond_donors_lipinski>  (1953) 
1

>  <lipinski_rule_of_five_violations>  (1953) 
1

>  <aromatic_rings_count>  (1953) 
1

>  <qed_drug_likeliness>  (1953) 
0.42

>  <formal_charge>  (1953) 
0

>  <fractioncsp3>  (1953) 
0.59

>  <number_of_minimal_rings>  (1953) 
5

>  <van_der_walls_volume>  (1953) 
nan

>  <contains_sugar>  (1953) 
False

>  <contains_ring_sugars>  (1953) 
False

>  <contains_linear_sugars>  (1953) 
False

>  <murcko_framework>  (1953) 
o1ccc(c1)C2OCC=C3C=4OC5CCCC5C4CCC32

>  <np_likeness>  (1953) 
2.19

>  <chemical_class>  (1953) 
Prenol lipids

>  <chemical_sub_class>  (1953) 
Terpene lactones

>  <chemical_super_class>  (1953) 
Lipids and lipid-like molecules

>  <direct_parent_classification>  (1953) 
Terpene lactones

>  <np_classifier_pathway>  (1953) 
Terpenoids

>  <np_classifier_superclass>  (1953) 
Triterpenoids

>  <np_classifier_class>  (1953) 
Limonoids

>  <np_classifier_is_glycoside>  (1953) 
True

>  <organisms>  (1953) 
Khaya anthotheca

>  <collections>  (1953) 
Latin America dataset|NuBBEDB|Super Natural II|WikiData Natural Products|ZINC NP

>  <dois>  (1953) 
10.1021/NP0496845|10.1021/np0496845

>  <synonyms>  (1953) 
3-acetoxy-814-dien-830-seco-khayalactone

>  <cas>  (1953) 
nan

$$$$

     RDKit          2D

 35 39  0  0  0  0  0  0  0  0999 V2000
    6.6303   -3.0941    0.0000 C   0  0  0  0  0  0  0  0  0  0  0  0
    5.8834   -1.7933    0.0000 O   0  0  0  0  0  0  0  0  0  0  0  0
    4.3834   -1.7897    0.0000 C   0  0  0  0  0  0  0  0  0  0  0  0
    3.6303   -3.0869    0.0000 O   0  0  0  0  0  0  0  0  0  0  0  0
    3.6365   -0.4888    0.0000 C   0  0  0  0  0  0  0  0  0  0  0  0
    5.1365   -0.4924    0.0000 C   0  0  0  0  0  0  0  0  0  0  0  0
    5.8896    0.8048    0.0000 C   0  0  0  0  0  0  0  0  0  0  0  0
    5.1427    2.1056    0.0000 C   0  0  0  0  0  0  0  0  0  0  0  0
    5.8959    3.4029    0.0000 C   0  0  0  0  0  0  0  0  0  0  0  0
    3.6428    2.1092    0.0000 C   0  0  0  0  0  0  0  0  0  0  0  0
    2.8959    3.4101    0.0000 C   0  0  0  0  0  0  0  0  0  0  0  0
    2.8896    0.8120    0.0000 C   0  0  0  0  0  0  0  0  0  0  0  0
    1.3896    0.8156    0.0000 C   0  0  0  0  0  0  0  0  0  0  0  0
    0.6428    2.1164    0.0000 C   0  0  0  0  0  0  0  0  0  0  0  0
   -0.8572    2.1200    0.0000 C   0  0  0  0  0  0  0  0  0  0  0  0
   -1.6103    0.8228    0.0000 C   0  0  0  0  0  0  0  0  0  0  0  0
   -3.1103    0.8264    0.0000 C   0  0  0  0  0  0  0  0  0  0  0  0
   -2.3572    2.1236    0.0000 C   0  0  0  0  0  0  0  0  0  0  0  0
   -3.8572    2.1272    0.0000 C   0  0  0  0  0  0  0  0  0  0  0  0
   -5.3572    2.1308    0.0000 C   0  0  0  0  0  0  0  0  0  0  0  0
   -6.1103    0.8336    0.0000 C   0  0  0  0  0  0  0  0  0  0  0  0
   -7.6103    0.8372    0.0000 O   0  0  0  0  0  0  0  0  0  0  0  0
   -5.3634   -0.4673    0.0000 C   0  0  0  0  0  0  0  0  0  0  0  0
   -5.1065   -1.9451    0.0000 C   0  0  0  0  0  0  0  0  0  0  0  0
   -6.7742   -0.9769    0.0000 C   0  0  0  0  0  0  0  0  0  0  0  0
   -7.0382   -2.4535    0.0000 O   0  0  0  0  0  0  0  0  0  0  0  0
   -3.8635   -0.4709    0.0000 C   0  0  0  0  0  0  0  0  0  0  0  0
   -3.1166   -1.7717    0.0000 C   0  0  0  0  0  0  0  0  0  0  0  0
   -1.6166   -1.7753    0.0000 C   0  0  0  0  0  0  0  0  0  0  0  0
   -0.8635   -0.4780    0.0000 C   0  0  0  0  0  0  0  0  0  0  0  0
   -0.1166   -1.7789    0.0000 C   0  0  0  0  0  0  0  0  0  0  0  0
    0.6365   -0.4816    0.0000 C   0  0  0  0  0  0  0  0  0  0  0  0
    2.1365   -0.4852    0.0000 C   0  0  0  0  0  0  0  0  0  0  0  0
    1.3834   -1.7825    0.0000 C   0  0  0  0  0  0  0  0  0  0  0  0
    2.8834   -1.7861    0.0000 C   0  0  0  0  0  0  0  0  0  0  0  0
  1  2  1  0
  2  3  1  0
  3  4  2  0
  5  3  1  1
  5  6  1  0
  6  7  1  0
  7  8  1  0
  8  9  1  6
  8 10  1  0
 10 11  1  1
 10 12  1  0
 12 13  1  6
 13 14  2  0
 14 15  1  0
 16 15  1  1
 16 17  1  0
 17 18  1  1
 17 19  1  0
 19 20  1  0
 20 21  1  0
 21 22  1  1
 21 23  1  0
 23 24  1  1
 23 25  1  0
 25 26  1  0
 23 27  1  0
 27 28  1  0
 28 29  1  0
 29 30  1  0
 30 31  1  1
 30 32  1  0
 32 33  1  6
 32 34  1  0
 34 35  1  0
 12  5  1  0
 32 13  1  0
 35  5  1  0
 30 16  1  0
 27 17  1  0
M  END
>  <identifier>  (1954) 
CNP0308759.1

>  <canonical_smiles>  (1954) 
COC(=O)[C@]12CC[C@@H](C)[C@H](C)[C@H]1C1=CC[C@@H]3[C@@]4(C)CC[C@H](O)[C@@](C)(CO)C4CC[C@@]3(C)[C@]1(C)CC2

>  <standard_inchi>  (1954) 
InChI=1S/C31H50O4/c1-19-10-15-31(26(34)35-7)17-16-29(5)21(25(31)20(19)2)8-9-23-27(3)13-12-24(33)28(4,18-32)22(27)11-14-30(23,29)6/h8,19-20,22-25,32-33H,9-18H2,1-7H3/t19-,20+,22?,23-,24+,25+,27+,28+,29-,30-,31+/m1/s1

>  <standard_inchi_key>  (1954) 
NNDZXJBMKVWZKK-CFCBXCGLSA-N

>  <name>  (1954) 
nan

>  <iupac_name>  (1954) 
methyl (1~{S},2~{R},4~{a}~{S},6~{a}~{R},6~{a}~{S},6~{b}~{R},9~{R},10~{S},12~{a}~{R},14~{b}~{S})-10-hydroxy-9-(hydroxymethyl)-1,2,6~{a},6~{b},9,12~{a}-hexamethyl-2,3,4,5,6,6~{a},7,8,8~{a},10,11,12,13,14~{b}-tetradecahydro-1~{H}-picene-4~{a}-carboxylate

>  <annotation_level>  (1954) 
4

>  <total_atom_count>  (1954) 
85

>  <heavy_atom_count>  (1954) 
35

>  <molecular_weight>  (1954) 
486.74

>  <exact_molecular_weight>  (1954) 
486.37091

>  <molecular_formula>  (1954) 
C31H50O4

>  <alogp>  (1954) 
6.15

>  <topological_polar_surface_area>  (1954) 
66.76

>  <rotatable_bond_count>  (1954) 
2

>  <hydrogen_bond_acceptors>  (1954) 
4

>  <hydrogen_bond_donors>  (1954) 
2

>  <hydrogen_bond_acceptors_lipinski>  (1954) 
4

>  <hydrogen_bond_donors_lipinski>  (1954) 
2

>  <lipinski_rule_of_five_violations>  (1954) 
1

>  <aromatic_rings_count>  (1954) 
0

>  <qed_drug_likeliness>  (1954) 
0.36

>  <formal_charge>  (1954) 
0

>  <fractioncsp3>  (1954) 
0.90

>  <number_of_minimal_rings>  (1954) 
5

>  <van_der_walls_volume>  (1954) 
nan

>  <contains_sugar>  (1954) 
False

>  <contains_ring_sugars>  (1954) 
False

>  <contains_linear_sugars>  (1954) 
False

>  <murcko_framework>  (1954) 
C1=C2C3CCCCC3CCC2C4CCC5CCCCC5C4C1

>  <np_likeness>  (1954) 
3.04

>  <chemical_class>  (1954) 
Prenol lipids

>  <chemical_sub_class>  (1954) 
Triterpenoids

>  <chemical_super_class>  (1954) 
Lipids and lipid-like molecules

>  <direct_parent_classification>  (1954) 
Taraxastane, ursane, and bauerane triterpenoids

>  <np_classifier_pathway>  (1954) 
Terpenoids

>  <np_classifier_superclass>  (1954) 
Triterpenoids

>  <np_classifier_class>  (1954) 
Ursane and Taraxastane triterpenoids

>  <np_classifier_is_glycoside>  (1954) 
False

>  <organisms>  (1954) 
Alibertia edulis

>  <collections>  (1954) 
Latin America dataset|NuBBEDB|WikiData Natural Products

>  <dois>  (1954) 
10.1016/S0031-9422(00)89654-5

>  <synonyms>  (1954) 
23-hydroxyursolic acid methyl ester

>  <cas>  (1954) 
nan

$$$$

     RDKit          2D

 29 31  0  0  0  0  0  0  0  0999 V2000
    7.4791   -2.4207    0.0000 C   0  0  0  0  0  0  0  0  0  0  0  0
    6.1017   -1.8268    0.0000 C   0  0  0  0  0  0  0  0  0  0  0  0
    5.9274   -0.3370    0.0000 C   0  0  0  0  0  0  0  0  0  0  0  0
    4.5499    0.2569    0.0000 C   0  0  0  0  0  0  0  0  0  0  0  0
    3.3469   -0.6390    0.0000 C   0  0  0  0  0  0  0  0  0  0  0  0
    1.9695   -0.0451    0.0000 C   0  0  0  0  0  0  0  0  0  0  0  0
    1.9872   -1.5450    0.0000 O   0  0  0  0  0  0  0  0  0  0  0  0
    3.2949   -2.2796    0.0000 C   0  0  0  0  0  0  0  0  0  0  0  0
    0.6064   -0.6713    0.0000 C   0  0  0  0  0  0  0  0  0  0  0  0
    0.3119   -2.1421    0.0000 C   0  0  0  0  0  0  0  0  0  0  0  0
   -0.4103    0.4315    0.0000 C   0  0  0  0  0  0  0  0  0  0  0  0
   -1.9001    0.2572    0.0000 C   0  0  0  0  0  0  0  0  0  0  0  0
   -2.7961    1.4602    0.0000 C   0  0  0  0  0  0  0  0  0  0  0  0
   -4.2859    1.2859    0.0000 C   0  0  0  0  0  0  0  0  0  0  0  0
   -5.1818    2.4889    0.0000 O   0  0  0  0  0  0  0  0  0  0  0  0
   -4.5879    3.8663    0.0000 C   0  0  0  0  0  0  0  0  0  0  0  0
   -4.8798   -0.0916    0.0000 C   0  0  0  0  0  0  0  0  0  0  0  0
   -6.3696   -0.2659    0.0000 O   0  0  0  0  0  0  0  0  0  0  0  0
   -6.9636   -1.6433    0.0000 C   0  0  0  0  0  0  0  0  0  0  0  0
   -3.9839   -1.2946    0.0000 C   0  0  0  0  0  0  0  0  0  0  0  0
   -4.5778   -2.6720    0.0000 O   0  0  0  0  0  0  0  0  0  0  0  0
   -3.6819   -3.8751    0.0000 C   0  0  0  0  0  0  0  0  0  0  0  0
   -2.4941   -1.1202    0.0000 C   0  0  0  0  0  0  0  0  0  0  0  0
    0.3243    1.7393    0.0000 O   0  0  0  0  0  0  0  0  0  0  0  0
    1.7951    1.4448    0.0000 C   0  0  0  0  0  0  0  0  0  0  0  0
    1.4660    2.9082    0.0000 O   0  0  0  0  0  0  0  0  0  0  0  0
    2.9982    2.3407    0.0000 C   0  0  0  0  0  0  0  0  0  0  0  0
    4.3756    1.7468    0.0000 C   0  0  0  0  0  0  0  0  0  0  0  0
    5.5786    2.6427    0.0000 O   0  0  0  0  0  0  0  0  0  0  0  0
  1  2  2  0
  2  3  1  0
  3  4  1  0
  4  5  2  0
  5  6  1  0
  6  7  1  1
  7  8  1  0
  6  9  1  0
  9 10  1  6
  9 11  1  0
 11 12  1  1
 12 13  2  0
 13 14  1  0
 14 15  1  0
 15 16  1  0
 14 17  2  0
 17 18  1  0
 18 19  1  0
 17 20  1  0
 20 21  1  0
 21 22  1  0
 20 23  2  0
 11 24  1  0
 24 25  1  0
 25 26  1  1
 25 27  1  0
 27 28  1  0
 28 29  2  0
 28  4  1  0
 25  6  1  0
 23 12  1  0
M  END
>  <identifier>  (1955) 
CNP0080477.1

>  <canonical_smiles>  (1955) 
C=CCC1=C[C@]2(OC)[C@H](C)[C@@H](C3=CC(OC)=C(OC)C(OC)=C3)O[C@]2(O)CC1=O

>  <standard_inchi>  (1955) 
InChI=1S/C22H28O7/c1-7-8-14-11-21(28-6)13(2)19(29-22(21,24)12-16(14)23)15-9-17(25-3)20(27-5)18(10-15)26-4/h7,9-11,13,19,24H,1,8,12H2,2-6H3/t13-,19+,21+,22-/m1/s1

>  <standard_inchi_key>  (1955) 
KOZUXOZTQZOISI-UQAXRIGDSA-N

>  <name>  (1955) 
nan

>  <iupac_name>  (1955) 
(2~{S},3~{R},3~{a}~{S},7~{a}~{R})-5-allyl-7~{a}-hydroxy-3~{a}-methoxy-3-methyl-2-(3,4,5-trimethoxyphenyl)-3,7-dihydro-2~{H}-benzofuran-6-one

>  <annotation_level>  (1955) 
3

>  <total_atom_count>  (1955) 
57

>  <heavy_atom_count>  (1955) 
29

>  <molecular_weight>  (1955) 
404.46

>  <exact_molecular_weight>  (1955) 
404.1835

>  <molecular_formula>  (1955) 
C22H28O7

>  <alogp>  (1955) 
2.97

>  <topological_polar_surface_area>  (1955) 
83.45

>  <rotatable_bond_count>  (1955) 
7

>  <hydrogen_bond_acceptors>  (1955) 
7

>  <hydrogen_bond_donors>  (1955) 
1

>  <hydrogen_bond_acceptors_lipinski>  (1955) 
7

>  <hydrogen_bond_donors_lipinski>  (1955) 
1

>  <lipinski_rule_of_five_violations>  (1955) 
0

>  <aromatic_rings_count>  (1955) 
1

>  <qed_drug_likeliness>  (1955) 
0.70

>  <formal_charge>  (1955) 
0

>  <fractioncsp3>  (1955) 
0.50

>  <number_of_minimal_rings>  (1955) 
3

>  <van_der_walls_volume>  (1955) 
nan

>  <contains_sugar>  (1955) 
False

>  <contains_ring_sugars>  (1955) 
False

>  <contains_linear_sugars>  (1955) 
False

>  <murcko_framework>  (1955) 
O1C(c2ccccc2)CC3C=CCCC13

>  <np_likeness>  (1955) 
1.75

>  <chemical_class>  (1955) 
Phenol ethers

>  <chemical_sub_class>  (1955) 
Anisoles

>  <chemical_super_class>  (1955) 
Benzenoids

>  <direct_parent_classification>  (1955) 
Anisoles

>  <np_classifier_pathway>  (1955) 
Shikimates and Phenylpropanoids

>  <np_classifier_superclass>  (1955) 
Lignans

>  <np_classifier_class>  (1955) 
Neolignans

>  <np_classifier_is_glycoside>  (1955) 
True

>  <organisms>  (1955) 
Nectandra|Nectandra sp.

>  <collections>  (1955) 
Latin America dataset|NuBBEDB|WikiData Natural Products

>  <dois>  (1955) 
10.1016/0031-9422(80)87033-6

>  <synonyms>  (1955) 
nan

>  <cas>  (1955) 
nan

$$$$

     RDKit          2D

 17 18  0  0  0  0  0  0  0  0999 V2000
   -1.8477   -1.9740    0.0000 O   0  0  0  0  0  0  0  0  0  0  0  0
   -2.7804   -0.7992    0.0000 C   0  0  0  0  0  0  0  0  0  0  0  0
   -4.2641   -1.0195    0.0000 N   0  0  0  0  0  0  0  0  0  0  0  0
   -5.1968    0.1552    0.0000 C   0  0  0  0  0  0  0  0  0  0  0  0
   -4.6458    1.5504    0.0000 C   0  0  0  0  0  0  0  0  0  0  0  0
   -3.1621    1.7707    0.0000 C   0  0  0  0  0  0  0  0  0  0  0  0
   -2.2294    0.5959    0.0000 C   0  0  0  0  0  0  0  0  0  0  0  0
   -0.7457    0.8163    0.0000 C   0  0  0  0  0  0  0  0  0  0  0  0
    0.1870   -0.3585    0.0000 C   0  0  0  0  0  0  0  0  0  0  0  0
   -0.3640   -1.7536    0.0000 O   0  0  0  0  0  0  0  0  0  0  0  0
    1.6708   -0.1381    0.0000 C   0  0  0  0  0  0  0  0  0  0  0  0
    2.6035   -1.3129    0.0000 C   0  0  0  0  0  0  0  0  0  0  0  0
    4.0872   -1.0925    0.0000 C   0  0  0  0  0  0  0  0  0  0  0  0
    4.6382    0.3026    0.0000 C   0  0  0  0  0  0  0  0  0  0  0  0
    6.1220    0.5229    0.0000 O   0  0  0  0  0  0  0  0  0  0  0  0
    3.7055    1.4773    0.0000 C   0  0  0  0  0  0  0  0  0  0  0  0
    2.2218    1.2570    0.0000 C   0  0  0  0  0  0  0  0  0  0  0  0
  1  2  2  0
  2  3  1  0
  3  4  1  0
  4  5  1  0
  5  6  1  0
  6  7  2  0
  7  8  1  0
  8  9  1  0
  9 10  2  0
  9 11  1  0
 11 12  2  0
 12 13  1  0
 13 14  2  0
 14 15  1  0
 14 16  1  0
 16 17  2  0
  7  2  1  0
 17 11  1  0
M  END
>  <identifier>  (1956) 
CNP0105154.0

>  <canonical_smiles>  (1956) 
O=C1NCCC=C1CC(=O)C1=CC=C(O)C=C1

>  <standard_inchi>  (1956) 
InChI=1S/C13H13NO3/c15-11-5-3-9(4-6-11)12(16)8-10-2-1-7-14-13(10)17/h2-6,15H,1,7-8H2,(H,14,17)

>  <standard_inchi_key>  (1956) 
OPXGVSONLRUDAA-UHFFFAOYSA-N

>  <name>  (1956) 
3-(2-(4-hydroxyphenyl)-2-oxoethyl)-5,6-dihydropyridin-2(1h)-one

>  <iupac_name>  (1956) 
5-[2-(4-hydroxyphenyl)-2-oxo-ethyl]-2,3-dihydro-1~{H}-pyridin-6-one

>  <annotation_level>  (1956) 
5

>  <total_atom_count>  (1956) 
30

>  <heavy_atom_count>  (1956) 
17

>  <molecular_weight>  (1956) 
231.25

>  <exact_molecular_weight>  (1956) 
231.08954

>  <molecular_formula>  (1956) 
C13H13NO3

>  <alogp>  (1956) 
1.41

>  <topological_polar_surface_area>  (1956) 
66.40

>  <rotatable_bond_count>  (1956) 
3

>  <hydrogen_bond_acceptors>  (1956) 
3

>  <hydrogen_bond_donors>  (1956) 
2

>  <hydrogen_bond_acceptors_lipinski>  (1956) 
3

>  <hydrogen_bond_donors_lipinski>  (1956) 
2

>  <lipinski_rule_of_five_violations>  (1956) 
0

>  <aromatic_rings_count>  (1956) 
1

>  <qed_drug_likeliness>  (1956) 
0.77

>  <formal_charge>  (1956) 
0

>  <fractioncsp3>  (1956) 
0.23

>  <number_of_minimal_rings>  (1956) 
2

>  <van_der_walls_volume>  (1956) 
209.34

>  <contains_sugar>  (1956) 
False

>  <contains_ring_sugars>  (1956) 
False

>  <contains_linear_sugars>  (1956) 
False

>  <murcko_framework>  (1956) 
c1ccc(cc1)CCC2=CCCNC2

>  <np_likeness>  (1956) 
0.80

>  <chemical_class>  (1956) 
Organooxygen compounds

>  <chemical_sub_class>  (1956) 
Carbonyl compounds

>  <chemical_super_class>  (1956) 
Organic oxygen compounds

>  <direct_parent_classification>  (1956) 
Alkyl-phenylketones

>  <np_classifier_pathway>  (1956) 
Alkaloids

>  <np_classifier_superclass>  (1956) 
nan

>  <np_classifier_class>  (1956) 
nan

>  <np_classifier_is_glycoside>  (1956) 
False

>  <organisms>  (1956) 
Halichondria|Halichondria (Halichondria) melanadocia|Humicola grisea|Trichocladium griseum

>  <collections>  (1956) 
CMNPD|Latin America dataset|Marine Natural Products|NPAtlas|NuBBEDB|Super Natural II|UNPD (Universal Natural Products Database)|WikiData Natural Products|ZINC NP

>  <dois>  (1956) 
10.1021/JO00394A062|10.1039/np9840100551|10.1080/14786419.2011.647020

>  <synonyms>  (1956) 
3-(2-(4-Hydroxyphenyl)-2-oxoethyl)-5,6-dihydropyridin-2(1H)-one|5-[2-(4-hydroxyphenyl)-2-oxoethyl]-2,3-dihydro-1H-pyridin-6-one|CHEBI:202745|No Data

>  <cas>  (1956) 
nan

$$$$

     RDKit          2D

 18 19  0  0  0  0  0  0  0  0999 V2000
    3.0000   -2.7424    0.0000 C   0  0  0  0  0  0  0  0  0  0  0  0
    2.2500   -1.4434    0.0000 C   0  0  0  0  0  0  0  0  0  0  0  0
    0.7500   -1.4434    0.0000 C   0  0  0  0  0  0  0  0  0  0  0  0
    0.0000   -0.1443    0.0000 C   0  0  0  0  0  0  0  0  0  0  0  0
    0.7500    1.1547    0.0000 C   0  0  0  0  0  0  0  0  0  0  0  0
    2.2500    1.1547    0.0000 C   0  0  0  0  0  0  0  0  0  0  0  0
    3.0000   -0.1443    0.0000 C   0  0  0  0  0  0  0  0  0  0  0  0
    4.5000   -0.1443    0.0000 O   0  0  0  0  0  0  0  0  0  0  0  0
   -0.0000    2.4537    0.0000 C   0  0  0  0  0  0  0  0  0  0  0  0
    0.7500    3.7528    0.0000 C   0  0  0  0  0  0  0  0  0  0  0  0
   -1.5000    2.4537    0.0000 C   0  0  0  0  0  0  0  0  0  0  0  0
   -2.2500    3.7528    0.0000 O   0  0  0  0  0  0  0  0  0  0  0  0
   -2.2500    1.1547    0.0000 C   0  0  0  0  0  0  0  0  0  0  0  0
   -1.5000   -0.1443    0.0000 C   0  0  0  0  0  0  0  0  0  0  0  0
   -2.2500   -1.4434    0.0000 C   0  0  0  0  0  0  0  0  0  0  0  0
   -3.7500   -1.4434    0.0000 C   0  0  0  0  0  0  0  0  0  0  0  0
   -1.5000   -2.7424    0.0000 C   0  0  0  0  0  0  0  0  0  0  0  0
   -2.2500   -4.0415    0.0000 O   0  0  0  0  0  0  0  0  0  0  0  0
  1  2  1  0
  2  3  2  0
  3  4  1  0
  4  5  2  0
  5  6  1  0
  6  7  2  0
  7  8  1  0
  5  9  1  0
  9 10  1  6
  9 11  1  0
 11 12  1  1
 11 13  1  0
 14 13  1  6
 14 15  1  0
 15 16  1  1
 15 17  1  0
 17 18  1  0
  7  2  1  0
 14  4  1  0
M  END
>  <identifier>  (1957) 
CNP0173859.2

>  <canonical_smiles>  (1957) 
CC1=CC2=C(C=C1O)[C@@H](C)[C@H](O)C[C@H]2[C@H](C)CO

>  <standard_inchi>  (1957) 
InChI=1S/C15H22O3/c1-8-4-13-11(9(2)7-16)5-15(18)10(3)12(13)6-14(8)17/h4,6,9-11,15-18H,5,7H2,1-3H3/t9-,10-,11+,15-/m1/s1

>  <standard_inchi_key>  (1957) 
MGBUZVXHLLSUJN-YYHMBLRTSA-N

>  <name>  (1957) 
nan

>  <iupac_name>  (1957) 
(1~{R},2~{R},4~{S})-4-[(1~{S})-2-hydroxy-1-methyl-ethyl]-1,6-dimethyl-tetralin-2,7-diol

>  <annotation_level>  (1957) 
5

>  <total_atom_count>  (1957) 
40

>  <heavy_atom_count>  (1957) 
18

>  <molecular_weight>  (1957) 
250.34

>  <exact_molecular_weight>  (1957) 
250.15689

>  <molecular_formula>  (1957) 
C15H22O3

>  <alogp>  (1957) 
2.28

>  <topological_polar_surface_area>  (1957) 
60.69

>  <rotatable_bond_count>  (1957) 
2

>  <hydrogen_bond_acceptors>  (1957) 
3

>  <hydrogen_bond_donors>  (1957) 
3

>  <hydrogen_bond_acceptors_lipinski>  (1957) 
3

>  <hydrogen_bond_donors_lipinski>  (1957) 
3

>  <lipinski_rule_of_five_violations>  (1957) 
0

>  <aromatic_rings_count>  (1957) 
1

>  <qed_drug_likeliness>  (1957) 
0.75

>  <formal_charge>  (1957) 
0

>  <fractioncsp3>  (1957) 
0.60

>  <number_of_minimal_rings>  (1957) 
2

>  <van_der_walls_volume>  (1957) 
245.11

>  <contains_sugar>  (1957) 
False

>  <contains_ring_sugars>  (1957) 
False

>  <contains_linear_sugars>  (1957) 
False

>  <murcko_framework>  (1957) 
c1ccc2c(c1)CCCC2

>  <np_likeness>  (1957) 
2.37

>  <chemical_class>  (1957) 
Prenol lipids

>  <chemical_sub_class>  (1957) 
Sesquiterpenoids

>  <chemical_super_class>  (1957) 
Lipids and lipid-like molecules

>  <direct_parent_classification>  (1957) 
Sesquiterpenoids

>  <np_classifier_pathway>  (1957) 
Terpenoids

>  <np_classifier_superclass>  (1957) 
Sesquiterpenoids

>  <np_classifier_class>  (1957) 
Cadinane sesquiterpenoids

>  <np_classifier_is_glycoside>  (1957) 
False

>  <organisms>  (1957) 
Phomopsis cassiae

>  <collections>  (1957) 
ChemSpider NPs|Latin America dataset|NuBBEDB|Super Natural II|WikiData Natural Products|ZINC NP

>  <dois>  (1957) 
10.1016/J.PHYTOCHEM.2006.06.004|10.1016/j.phytochem.2006.06.004

>  <synonyms>  (1957) 
Rel-(+)-(7S9R10S)-3912-trihydroxycalamenene

>  <cas>  (1957) 
nan

$$$$

     RDKit          2D

 28 30  0  0  0  0  0  0  0  0999 V2000
   -5.9591   -1.8707    0.0000 C   0  0  0  0  0  0  0  0  0  0  0  0
   -4.7790   -2.7967    0.0000 C   0  0  0  0  0  0  0  0  0  0  0  0
   -3.3871   -2.2378    0.0000 C   0  0  0  0  0  0  0  0  0  0  0  0
   -3.0783   -3.7056    0.0000 C   0  0  0  0  0  0  0  0  0  0  0  0
   -4.1792   -0.9640    0.0000 C   0  0  0  0  0  0  0  0  0  0  0  0
   -3.4722    0.3589    0.0000 C   0  0  0  0  0  0  0  0  0  0  0  0
   -1.9730    0.4081    0.0000 C   0  0  0  0  0  0  0  0  0  0  0  0
   -1.1809   -0.8657    0.0000 C   0  0  0  0  0  0  0  0  0  0  0  0
   -0.3887   -2.1394    0.0000 C   0  0  0  0  0  0  0  0  0  0  0  0
    0.3183   -0.8165    0.0000 C   0  0  0  0  0  0  0  0  0  0  0  0
    1.0254    0.5064    0.0000 C   0  0  0  0  0  0  0  0  0  0  0  0
    2.5246    0.5555    0.0000 O   0  0  0  0  0  0  0  0  0  0  0  0
    3.3167   -0.7182    0.0000 C   0  0  0  0  0  0  0  0  0  0  0  0
    2.6097   -2.0411    0.0000 O   0  0  0  0  0  0  0  0  0  0  0  0
    4.8159   -0.6691    0.0000 C   0  0  0  0  0  0  0  0  0  0  0  0
    5.6081   -1.9428    0.0000 C   0  0  0  0  0  0  0  0  0  0  0  0
    4.9011   -3.2657    0.0000 O   0  0  0  0  0  0  0  0  0  0  0  0
    7.1073   -1.8937    0.0000 O   0  0  0  0  0  0  0  0  0  0  0  0
    0.2332    1.7802    0.0000 C   0  0  0  0  0  0  0  0  0  0  0  0
    0.9402    3.1031    0.0000 C   0  0  0  0  0  0  0  0  0  0  0  0
    2.0571    4.1044    0.0000 C   0  0  0  0  0  0  0  0  0  0  0  0
    2.1203    2.1771    0.0000 C   0  0  0  0  0  0  0  0  0  0  0  0
    0.1481    4.3768    0.0000 C   0  0  0  0  0  0  0  0  0  0  0  0
   -1.3511    4.3277    0.0000 C   0  0  0  0  0  0  0  0  0  0  0  0
   -2.0582    3.0048    0.0000 C   0  0  0  0  0  0  0  0  0  0  0  0
   -1.2660    1.7310    0.0000 C   0  0  0  0  0  0  0  0  0  0  0  0
   -2.7652    1.6818    0.0000 C   0  0  0  0  0  0  0  0  0  0  0  0
   -1.8879   -2.1886    0.0000 O   0  0  0  0  0  0  0  0  0  0  0  0
  1  2  2  0
  2  3  1  0
  3  4  1  6
  3  5  1  0
  5  6  1  0
  6  7  1  0
  7  8  1  0
  8  9  1  6
  8 10  1  0
 10 11  1  0
 11 12  1  1
 12 13  1  0
 13 14  2  0
 13 15  1  0
 15 16  1  0
 16 17  2  0
 16 18  1  0
 11 19  1  0
 19 20  1  6
 20 21  1  0
 20 22  1  0
 20 23  1  0
 23 24  1  0
 24 25  1  0
 25 26  1  0
 26 27  1  6
  8 28  1  0
 28  3  1  0
 26  7  1  0
 26 19  1  0
M  END
>  <identifier>  (1958) 
CNP0314762.2

>  <canonical_smiles>  (1958) 
C=C[C@@]1(C)CCC2[C@@](C)(C[C@H](OC(=O)CC(=O)O)[C@H]3C(C)(C)CCC[C@]23C)O1

>  <standard_inchi>  (1958) 
InChI=1S/C23H36O5/c1-7-21(4)12-9-16-22(5)11-8-10-20(2,3)19(22)15(14-23(16,6)28-21)27-18(26)13-17(24)25/h7,15-16,19H,1,8-14H2,2-6H3,(H,24,25)/t15-,16?,19-,21-,22+,23+/m0/s1

>  <standard_inchi_key>  (1958) 
JZRGFUZJIZSKTF-LOOVXMMKSA-N

>  <name>  (1958) 
nan

>  <iupac_name>  (1958) 
3-[[(3~{R},4~{a}~{R},6~{S},6~{a}~{S},10~{a}~{S})-3,4~{a},7,7,10~{a}-pentamethyl-3-vinyl-2,5,6,6~{a},8,9,10,10~{b}-octahydro-1~{H}-benzo[f]chromen-6-yl]oxy]-3-oxo-propanoic acid

>  <annotation_level>  (1958) 
4

>  <total_atom_count>  (1958) 
64

>  <heavy_atom_count>  (1958) 
28

>  <molecular_weight>  (1958) 
392.54

>  <exact_molecular_weight>  (1958) 
392.25627

>  <molecular_formula>  (1958) 
C23H36O5

>  <alogp>  (1958) 
4.74

>  <topological_polar_surface_area>  (1958) 
72.83

>  <rotatable_bond_count>  (1958) 
4

>  <hydrogen_bond_acceptors>  (1958) 
4

>  <hydrogen_bond_donors>  (1958) 
1

>  <hydrogen_bond_acceptors_lipinski>  (1958) 
4

>  <hydrogen_bond_donors_lipinski>  (1958) 
1

>  <lipinski_rule_of_five_violations>  (1958) 
0

>  <aromatic_rings_count>  (1958) 
0

>  <qed_drug_likeliness>  (1958) 
0.42

>  <formal_charge>  (1958) 
0

>  <fractioncsp3>  (1958) 
0.83

>  <number_of_minimal_rings>  (1958) 
3

>  <van_der_walls_volume>  (1958) 
nan

>  <contains_sugar>  (1958) 
False

>  <contains_ring_sugars>  (1958) 
False

>  <contains_linear_sugars>  (1958) 
False

>  <murcko_framework>  (1958) 
O1CCCC2C1CCC3CCCCC32

>  <np_likeness>  (1958) 
3.14

>  <chemical_class>  (1958) 
Prenol lipids

>  <chemical_sub_class>  (1958) 
Triterpenoids

>  <chemical_super_class>  (1958) 
Lipids and lipid-like molecules

>  <direct_parent_classification>  (1958) 
Triterpenoids

>  <np_classifier_pathway>  (1958) 
Terpenoids

>  <np_classifier_superclass>  (1958) 
Diterpenoids

>  <np_classifier_class>  (1958) 
Labdane diterpenoids

>  <np_classifier_is_glycoside>  (1958) 
False

>  <organisms>  (1958) 
Stemodia foliosa

>  <collections>  (1958) 
Latin America dataset|NuBBEDB

>  <dois>  (1958) 
10.1021/np800106x

>  <synonyms>  (1958) 
6\u221a\u00e9\u00ac\u00b1-malonyloxymanoyl oxide

>  <cas>  (1958) 
nan

$$$$

     RDKit          2D

 26 30  0  0  0  0  0  0  0  0999 V2000
    4.8747    2.1491    0.0000 C   0  0  0  0  0  0  0  0  0  0  0  0
    3.6326    1.3082    0.0000 C   0  0  0  0  0  0  0  0  0  0  0  0
    3.7397   -0.1880    0.0000 C   0  0  0  0  0  0  0  0  0  0  0  0
    5.0890   -0.8433    0.0000 O   0  0  0  0  0  0  0  0  0  0  0  0
    2.4976   -1.0288    0.0000 C   0  0  0  0  0  0  0  0  0  0  0  0
    2.6047   -2.5250    0.0000 C   0  0  0  0  0  0  0  0  0  0  0  0
    1.3625   -3.3659    0.0000 C   0  0  0  0  0  0  0  0  0  0  0  0
    0.0132   -2.7106    0.0000 C   0  0  0  0  0  0  0  0  0  0  0  0
   -1.3766   -3.2748    0.0000 O   0  0  0  0  0  0  0  0  0  0  0  0
   -2.3427   -2.1273    0.0000 C   0  0  0  0  0  0  0  0  0  0  0  0
   -1.5499   -0.8539    0.0000 O   0  0  0  0  0  0  0  0  0  0  0  0
   -0.0939   -1.2144    0.0000 C   0  0  0  0  0  0  0  0  0  0  0  0
    1.1483   -0.3735    0.0000 C   0  0  0  0  0  0  0  0  0  0  0  0
    1.0411    1.1226    0.0000 C   0  0  0  0  0  0  0  0  0  0  0  0
    0.4288    2.4919    0.0000 O   0  0  0  0  0  0  0  0  0  0  0  0
   -0.4137    0.7573    0.0000 C   0  0  0  0  0  0  0  0  0  0  0  0
   -0.8247   -0.6853    0.0000 C   0  0  0  0  0  0  0  0  0  0  0  0
   -2.2796   -1.0506    0.0000 C   0  0  0  0  0  0  0  0  0  0  0  0
   -3.3234    0.0267    0.0000 C   0  0  0  0  0  0  0  0  0  0  0  0
   -4.8224   -0.0281    0.0000 O   0  0  0  0  0  0  0  0  0  0  0  0
   -5.3377    1.3805    0.0000 C   0  0  0  0  0  0  0  0  0  0  0  0
   -4.1573    2.3060    0.0000 O   0  0  0  0  0  0  0  0  0  0  0  0
   -2.9123    1.4693    0.0000 C   0  0  0  0  0  0  0  0  0  0  0  0
   -1.4575    1.8346    0.0000 C   0  0  0  0  0  0  0  0  0  0  0  0
    2.2833    1.9635    0.0000 C   0  0  0  0  0  0  0  0  0  0  0  0
    2.1762    3.4597    0.0000 C   0  0  0  0  0  0  0  0  0  0  0  0
  2  1  1  6
  2  3  1  0
  3  4  2  0
  3  5  1  0
  5  6  2  0
  6  7  1  0
  7  8  2  0
  8  9  1  0
  9 10  1  0
 10 11  1  0
 11 12  1  0
 12 13  2  0
 13 14  1  0
 14 15  1  1
 14 16  1  0
 16 17  2  0
 17 18  1  0
 18 19  2  0
 19 20  1  0
 20 21  1  0
 21 22  1  0
 22 23  1  0
 23 24  2  0
 14 25  1  0
 25 26  1  1
 25  2  1  0
 13  5  1  0
 24 16  1  0
 12  8  1  0
 23 19  1  0
M  END
>  <identifier>  (1959) 
CNP0231106.1

>  <canonical_smiles>  (1959) 
C[C@@H]1C(=O)C2=CC=C3OCOC3=C2[C@](O)(C2=CC=C3OCOC3=C2)[C@H]1C

>  <standard_inchi>  (1959) 
InChI=1S/C20H18O6/c1-10-11(2)20(22,12-3-5-14-16(7-12)25-8-23-14)17-13(18(10)21)4-6-15-19(17)26-9-24-15/h3-7,10-11,22H,8-9H2,1-2H3/t10-,11-,20+/m0/s1

>  <standard_inchi_key>  (1959) 
YQLKOOGRXMGOOT-SULUTDIPSA-N

>  <name>  (1959) 
nan

>  <iupac_name>  (1959) 
(7~{S},8~{S},9~{R})-9-(1,3-benzodioxol-5-yl)-9-hydroxy-7,8-dimethyl-7,8-dihydrobenzo[e][1,3]benzodioxol-6-one

>  <annotation_level>  (1959) 
5

>  <total_atom_count>  (1959) 
44

>  <heavy_atom_count>  (1959) 
26

>  <molecular_weight>  (1959) 
354.36

>  <exact_molecular_weight>  (1959) 
354.11034

>  <molecular_formula>  (1959) 
C20H18O6

>  <alogp>  (1959) 
2.85

>  <topological_polar_surface_area>  (1959) 
74.22

>  <rotatable_bond_count>  (1959) 
1

>  <hydrogen_bond_acceptors>  (1959) 
6

>  <hydrogen_bond_donors>  (1959) 
1

>  <hydrogen_bond_acceptors_lipinski>  (1959) 
6

>  <hydrogen_bond_donors_lipinski>  (1959) 
1

>  <lipinski_rule_of_five_violations>  (1959) 
0

>  <aromatic_rings_count>  (1959) 
2

>  <qed_drug_likeliness>  (1959) 
0.85

>  <formal_charge>  (1959) 
0

>  <fractioncsp3>  (1959) 
0.35

>  <number_of_minimal_rings>  (1959) 
5

>  <van_der_walls_volume>  (1959) 
299.62

>  <contains_sugar>  (1959) 
False

>  <contains_ring_sugars>  (1959) 
False

>  <contains_linear_sugars>  (1959) 
False

>  <murcko_framework>  (1959) 
O1c2ccc(cc2OC1)C3c4c5OCOc5ccc4CCC3

>  <np_likeness>  (1959) 
1.28

>  <chemical_class>  (1959) 
Aryltetralin lignans

>  <chemical_sub_class>  (1959) 
Aryltetralin lignans

>  <chemical_super_class>  (1959) 
Lignans, neolignans and related compounds

>  <direct_parent_classification>  (1959) 
Aryltetralin lignans

>  <np_classifier_pathway>  (1959) 
Shikimates and Phenylpropanoids

>  <np_classifier_superclass>  (1959) 
Lignans

>  <np_classifier_class>  (1959) 
Arylnaphthalene and aryltetralin lignans

>  <np_classifier_is_glycoside>  (1959) 
False

>  <organisms>  (1959) 
Virola elongata|Virola sebifera

>  <collections>  (1959) 
ChemSpider NPs|Latin America dataset|NuBBEDB|Super Natural II|WikiData Natural Products|ZINC NP

>  <dois>  (1959) 
10.1002/1099-1565(200011/12)11:6<383::AID-PCA543>3.0.CO,2-M|10.1016/0031-9422(82)83181-6|10.1016/0031-9422(90)85020-G

>  <synonyms>  (1959) 
(2S3S4R)-4-Hydroxy-23-dimethyl-56-methylenedioxy-4-piperonyl-1- tetralone

>  <cas>  (1959) 
nan

$$$$

     RDKit          2D

 22 24  0  0  0  0  0  0  0  0999 V2000
   -4.9012    2.5538    0.0000 C   0  0  0  0  0  0  0  0  0  0  0  0
   -4.7164    1.0652    0.0000 C   0  0  0  0  0  0  0  0  0  0  0  0
   -5.9131    0.1608    0.0000 C   0  0  0  0  0  0  0  0  0  0  0  0
   -3.3348    0.4810    0.0000 C   0  0  0  0  0  0  0  0  0  0  0  0
   -2.1381    1.3853    0.0000 C   0  0  0  0  0  0  0  0  0  0  0  0
   -0.7566    0.8011    0.0000 C   0  0  0  0  0  0  0  0  0  0  0  0
   -0.5717   -0.6875    0.0000 C   0  0  0  0  0  0  0  0  0  0  0  0
    0.7073   -1.4711    0.0000 C   0  0  0  0  0  0  0  0  0  0  0  0
    2.1174   -0.9597    0.0000 C   0  0  0  0  0  0  0  0  0  0  0  0
    3.1087   -2.0855    0.0000 C   0  0  0  0  0  0  0  0  0  0  0  0
    4.5793   -1.7900    0.0000 C   0  0  0  0  0  0  0  0  0  0  0  0
    5.0586   -0.3686    0.0000 C   0  0  0  0  0  0  0  0  0  0  0  0
    4.0674    0.7572    0.0000 C   0  0  0  0  0  0  0  0  0  0  0  0
    3.5210    2.1541    0.0000 C   0  0  0  0  0  0  0  0  0  0  0  0
    5.3482    1.5379    0.0000 C   0  0  0  0  0  0  0  0  0  0  0  0
    2.5968    0.4616    0.0000 C   0  0  0  0  0  0  0  0  0  0  0  0
    1.7844    1.7226    0.0000 C   0  0  0  0  0  0  0  0  0  0  0  0
    0.2920    1.8737    0.0000 C   0  0  0  0  0  0  0  0  0  0  0  0
   -1.7685   -1.5918    0.0000 C   0  0  0  0  0  0  0  0  0  0  0  0
   -1.5837   -3.0804    0.0000 O   0  0  0  0  0  0  0  0  0  0  0  0
   -3.1500   -1.0076    0.0000 C   0  0  0  0  0  0  0  0  0  0  0  0
   -4.3468   -1.9120    0.0000 O   0  0  0  0  0  0  0  0  0  0  0  0
  1  2  1  0
  2  3  1  0
  2  4  1  0
  4  5  2  0
  5  6  1  0
  6  7  2  0
  7  8  1  0
  8  9  1  0
  9 10  1  0
 10 11  1  0
 11 12  1  0
 12 13  1  0
 13 14  1  0
 13 15  1  0
 13 16  1  0
 16 17  1  1
 17 18  1  0
  7 19  1  0
 19 20  1  0
 19 21  2  0
 21 22  1  0
 21  4  1  0
 18  6  1  0
 16  9  1  0
M  END
>  <identifier>  (1960) 
CNP0371784.1

>  <canonical_smiles>  (1960) 
CC(C)C1=CC2=C(CC3CCCC(C)(C)[C@@H]3CC2)C(O)=C1O

>  <standard_inchi>  (1960) 
InChI=1S/C20H30O2/c1-12(2)15-10-13-7-8-17-14(6-5-9-20(17,3)4)11-16(13)19(22)18(15)21/h10,12,14,17,21-22H,5-9,11H2,1-4H3/t14?,17-/m1/s1

>  <standard_inchi_key>  (1960) 
BPLSSVSOQVAUAE-FBMWCMRBSA-N

>  <name>  (1960) 
nan

>  <iupac_name>  (1960) 
(11~{R})-6-isopropyl-12,12-dimethyl-tricyclo[9.4.0.0^{3,8}]pentadeca-3(8),4,6-triene-4,5-diol

>  <annotation_level>  (1960) 
4

>  <total_atom_count>  (1960) 
52

>  <heavy_atom_count>  (1960) 
22

>  <molecular_weight>  (1960) 
302.46

>  <exact_molecular_weight>  (1960) 
302.22458

>  <molecular_formula>  (1960) 
C20H30O2

>  <alogp>  (1960) 
5.15

>  <topological_polar_surface_area>  (1960) 
40.46

>  <rotatable_bond_count>  (1960) 
1

>  <hydrogen_bond_acceptors>  (1960) 
2

>  <hydrogen_bond_donors>  (1960) 
2

>  <hydrogen_bond_acceptors_lipinski>  (1960) 
2

>  <hydrogen_bond_donors_lipinski>  (1960) 
2

>  <lipinski_rule_of_five_violations>  (1960) 
1

>  <aromatic_rings_count>  (1960) 
1

>  <qed_drug_likeliness>  (1960) 
0.70

>  <formal_charge>  (1960) 
0

>  <fractioncsp3>  (1960) 
0.70

>  <number_of_minimal_rings>  (1960) 
3

>  <van_der_walls_volume>  (1960) 
nan

>  <contains_sugar>  (1960) 
False

>  <contains_ring_sugars>  (1960) 
False

>  <contains_linear_sugars>  (1960) 
False

>  <murcko_framework>  (1960) 
c1ccc2c(c1)CCC3CCCCC3C2

>  <np_likeness>  (1960) 
2.10

>  <chemical_class>  (1960) 
Prenol lipids

>  <chemical_sub_class>  (1960) 
Diterpenoids

>  <chemical_super_class>  (1960) 
Lipids and lipid-like molecules

>  <direct_parent_classification>  (1960) 
Diterpenoids

>  <np_classifier_pathway>  (1960) 
Terpenoids

>  <np_classifier_superclass>  (1960) 
Diterpenoids

>  <np_classifier_class>  (1960) 
Abietane diterpenoids

>  <np_classifier_is_glycoside>  (1960) 
False

>  <organisms>  (1960) 
Coleus barbatus|Plectranthus barbatus

>  <collections>  (1960) 
Latin America dataset|NuBBEDB|WikiData Natural Products

>  <dois>  (1960) 
10.1016/S0040-4020(01)88671-3

>  <synonyms>  (1960) 
dihydro-(-)-Barbatusol

>  <cas>  (1960) 
nan

$$$$

     RDKit          2D

 19 21  0  0  0  0  0  0  0  0999 V2000
    1.3448   -3.3138    0.0000 O   0  0  0  0  0  0  0  0  0  0  0  0
    0.9439   -1.8683    0.0000 C   0  0  0  0  0  0  0  0  0  0  0  0
    1.9952   -0.7984    0.0000 C   0  0  0  0  0  0  0  0  0  0  0  0
    3.4475   -1.1740    0.0000 C   0  0  0  0  0  0  0  0  0  0  0  0
    4.4988   -0.1041    0.0000 C   0  0  0  0  0  0  0  0  0  0  0  0
    4.0979    1.3414    0.0000 C   0  0  0  0  0  0  0  0  0  0  0  0
    5.1493    2.4113    0.0000 O   0  0  0  0  0  0  0  0  0  0  0  0
    2.6457    1.7169    0.0000 C   0  0  0  0  0  0  0  0  0  0  0  0
    1.5943    0.6470    0.0000 C   0  0  0  0  0  0  0  0  0  0  0  0
    0.1421    1.0225    0.0000 O   0  0  0  0  0  0  0  0  0  0  0  0
   -0.9092   -0.0474    0.0000 C   0  0  0  0  0  0  0  0  0  0  0  0
   -2.3615    0.3282    0.0000 C   0  0  0  0  0  0  0  0  0  0  0  0
   -2.7623    1.7736    0.0000 C   0  0  0  0  0  0  0  0  0  0  0  0
   -4.2146    2.1492    0.0000 C   0  0  0  0  0  0  0  0  0  0  0  0
   -5.2659    1.0793    0.0000 C   0  0  0  0  0  0  0  0  0  0  0  0
   -4.8650   -0.3662    0.0000 C   0  0  0  0  0  0  0  0  0  0  0  0
   -3.4128   -0.7417    0.0000 C   0  0  0  0  0  0  0  0  0  0  0  0
   -0.5083   -1.4928    0.0000 C   0  0  0  0  0  0  0  0  0  0  0  0
   -1.5597   -2.5627    0.0000 O   0  0  0  0  0  0  0  0  0  0  0  0
  1  2  2  0
  2  3  1  0
  3  4  2  0
  4  5  1  0
  5  6  2  0
  6  7  1  0
  6  8  1  0
  8  9  2  0
  9 10  1  0
 10 11  1  0
 11 12  1  6
 12 13  2  0
 13 14  1  0
 14 15  2  0
 15 16  1  0
 16 17  2  0
 11 18  1  0
 18 19  1  1
 18  2  1  0
  9  3  1  0
 17 12  1  0
M  END
>  <identifier>  (1961) 
CNP0356937.3

>  <canonical_smiles>  (1961) 
O=C1C2=CC=C(O)C=C2O[C@@H](C2=CC=CC=C2)[C@@H]1O

>  <standard_inchi>  (1961) 
InChI=1S/C15H12O4/c16-10-6-7-11-12(8-10)19-15(14(18)13(11)17)9-4-2-1-3-5-9/h1-8,14-16,18H/t14-,15+/m1/s1

>  <standard_inchi_key>  (1961) 
LVCUVLHYCYWHDY-CABCVRRESA-N

>  <name>  (1961) 
(2S,3S)-3,7-dihydroxy-2-phenyl-3,4-dihydro-2H-1-benzopyran-4-one

>  <iupac_name>  (1961) 
(2~{S},3~{S})-3,7-dihydroxy-2-phenyl-chroman-4-one

>  <annotation_level>  (1961) 
5

>  <total_atom_count>  (1961) 
31

>  <heavy_atom_count>  (1961) 
19

>  <molecular_weight>  (1961) 
256.26

>  <exact_molecular_weight>  (1961) 
256.07356

>  <molecular_formula>  (1961) 
C15H12O4

>  <alogp>  (1961) 
2.07

>  <topological_polar_surface_area>  (1961) 
66.76

>  <rotatable_bond_count>  (1961) 
1

>  <hydrogen_bond_acceptors>  (1961) 
4

>  <hydrogen_bond_donors>  (1961) 
2

>  <hydrogen_bond_acceptors_lipinski>  (1961) 
4

>  <hydrogen_bond_donors_lipinski>  (1961) 
2

>  <lipinski_rule_of_five_violations>  (1961) 
0

>  <aromatic_rings_count>  (1961) 
2

>  <qed_drug_likeliness>  (1961) 
0.82

>  <formal_charge>  (1961) 
0

>  <fractioncsp3>  (1961) 
0.13

>  <number_of_minimal_rings>  (1961) 
3

>  <van_der_walls_volume>  (1961) 
nan

>  <contains_sugar>  (1961) 
False

>  <contains_ring_sugars>  (1961) 
False

>  <contains_linear_sugars>  (1961) 
False

>  <murcko_framework>  (1961) 
O1c2ccccc2CCC1c3ccccc3

>  <np_likeness>  (1961) 
1.79

>  <chemical_class>  (1961) 
Flavonoids

>  <chemical_sub_class>  (1961) 
Flavans

>  <chemical_super_class>  (1961) 
Phenylpropanoids and polyketides

>  <direct_parent_classification>  (1961) 
Flavanonols

>  <np_classifier_pathway>  (1961) 
Shikimates and Phenylpropanoids

>  <np_classifier_superclass>  (1961) 
Flavonoids

>  <np_classifier_class>  (1961) 
Dihydroflavonols

>  <np_classifier_is_glycoside>  (1961) 
False

>  <organisms>  (1961) 
Platymiscium praecox

>  <collections>  (1961) 
Latin America dataset|NuBBEDB|Super Natural II|ZINC NP

>  <dois>  (1961) 
10.1016/S0031-9422(00)89849-0

>  <synonyms>  (1961) 
(2S3S)-37-dihydroxyflavanone|SCHEMBL2398445

>  <cas>  (1961) 
nan

$$$$

     RDKit          2D

 24 26  0  0  0  0  0  0  0  0999 V2000
   -6.4509   -1.3746    0.0000 O   0  0  0  0  0  0  0  0  0  0  0  0
   -5.7936   -0.0263    0.0000 C   0  0  0  0  0  0  0  0  0  0  0  0
   -6.6326    1.2171    0.0000 C   0  0  0  0  0  0  0  0  0  0  0  0
   -5.9753    2.5654    0.0000 C   0  0  0  0  0  0  0  0  0  0  0  0
   -4.4789    2.6703    0.0000 C   0  0  0  0  0  0  0  0  0  0  0  0
   -3.6399    1.4269    0.0000 C   0  0  0  0  0  0  0  0  0  0  0  0
   -2.1436    1.5318    0.0000 C   0  0  0  0  0  0  0  0  0  0  0  0
   -1.3046    0.2884    0.0000 C   0  0  0  0  0  0  0  0  0  0  0  0
   -1.9619   -1.0599    0.0000 C   0  0  0  0  0  0  0  0  0  0  0  0
   -1.1229   -2.3033    0.0000 C   0  0  0  0  0  0  0  0  0  0  0  0
   -1.7803   -3.6517    0.0000 O   0  0  0  0  0  0  0  0  0  0  0  0
    0.3734   -2.1985    0.0000 C   0  0  0  0  0  0  0  0  0  0  0  0
    1.2124   -3.4419    0.0000 O   0  0  0  0  0  0  0  0  0  0  0  0
    1.0307   -0.8502    0.0000 C   0  0  0  0  0  0  0  0  0  0  0  0
    2.5270   -0.7453    0.0000 C   0  0  0  0  0  0  0  0  0  0  0  0
    3.1844    0.6030    0.0000 C   0  0  0  0  0  0  0  0  0  0  0  0
    4.6807    0.7079    0.0000 C   0  0  0  0  0  0  0  0  0  0  0  0
    5.5197   -0.5355    0.0000 C   0  0  0  0  0  0  0  0  0  0  0  0
    7.0160   -0.4306    0.0000 C   0  0  0  0  0  0  0  0  0  0  0  0
    7.6734    0.9177    0.0000 C   0  0  0  0  0  0  0  0  0  0  0  0
    6.8344    2.1611    0.0000 C   0  0  0  0  0  0  0  0  0  0  0  0
    5.3380    2.0562    0.0000 C   0  0  0  0  0  0  0  0  0  0  0  0
    0.1917    0.3933    0.0000 O   0  0  0  0  0  0  0  0  0  0  0  0
   -4.2973    0.0786    0.0000 O   0  0  0  0  0  0  0  0  0  0  0  0
  1  2  2  0
  2  3  1  0
  3  4  2  0
  4  5  1  0
  5  6  1  0
  6  7  1  6
  8  7  1  1
  8  9  1  0
  9 10  1  0
 10 11  1  6
 10 12  1  0
 12 13  1  1
 12 14  1  0
 14 15  1  6
 15 16  2  0
 16 17  1  0
 17 18  2  0
 18 19  1  0
 19 20  2  0
 20 21  1  0
 21 22  2  0
 14 23  1  0
  6 24  1  0
 24  2  1  0
 23  8  1  0
 22 17  1  0
M  END
>  <identifier>  (1962) 
CNP0210429.1

>  <canonical_smiles>  (1962) 
O=C1C=CC[C@H](C[C@@H]2C[C@@H](O)[C@H](O)[C@@H](/C=C/C3=CC=CC=C3)O2)O1

>  <standard_inchi>  (1962) 
InChI=1S/C19H22O5/c20-16-12-15(11-14-7-4-8-18(21)24-14)23-17(19(16)22)10-9-13-5-2-1-3-6-13/h1-6,8-10,14-17,19-20,22H,7,11-12H2/b10-9+/t14-,15-,16-,17-,19+/m1/s1

>  <standard_inchi_key>  (1962) 
JKIRIPQYXPLBKK-VSNJVWGFSA-N

>  <name>  (1962) 
nan

>  <iupac_name>  (1962) 
(2~{R})-2-[[(2~{S},4~{R},5~{S},6~{R})-4,5-dihydroxy-6-[(~{E})-styryl]tetrahydropyran-2-yl]methyl]-2,3-dihydropyran-6-one

>  <annotation_level>  (1962) 
5

>  <total_atom_count>  (1962) 
46

>  <heavy_atom_count>  (1962) 
24

>  <molecular_weight>  (1962) 
330.38

>  <exact_molecular_weight>  (1962) 
330.14672

>  <molecular_formula>  (1962) 
C19H22O5

>  <alogp>  (1962) 
1.84

>  <topological_polar_surface_area>  (1962) 
75.99

>  <rotatable_bond_count>  (1962) 
4

>  <hydrogen_bond_acceptors>  (1962) 
5

>  <hydrogen_bond_donors>  (1962) 
2

>  <hydrogen_bond_acceptors_lipinski>  (1962) 
5

>  <hydrogen_bond_donors_lipinski>  (1962) 
2

>  <lipinski_rule_of_five_violations>  (1962) 
0

>  <aromatic_rings_count>  (1962) 
1

>  <qed_drug_likeliness>  (1962) 
0.82

>  <formal_charge>  (1962) 
0

>  <fractioncsp3>  (1962) 
0.42

>  <number_of_minimal_rings>  (1962) 
3

>  <van_der_walls_volume>  (1962) 
301.81

>  <contains_sugar>  (1962) 
False

>  <contains_ring_sugars>  (1962) 
False

>  <contains_linear_sugars>  (1962) 
False

>  <murcko_framework>  (1962) 
O1CC=CCC1CC2OC(C=Cc3ccccc3)CCC2

>  <np_likeness>  (1962) 
2.55

>  <chemical_class>  (1962) 
Pyrans

>  <chemical_sub_class>  (1962) 
Pyranones and derivatives

>  <chemical_super_class>  (1962) 
Organoheterocyclic compounds

>  <direct_parent_classification>  (1962) 
Dihydropyranones

>  <np_classifier_pathway>  (1962) 
Shikimates and Phenylpropanoids

>  <np_classifier_superclass>  (1962) 
Styrylpyrones

>  <np_classifier_class>  (1962) 
Kavalactones and derivatives

>  <np_classifier_is_glycoside>  (1962) 
False

>  <organisms>  (1962) 
Cryptocarya moschata

>  <collections>  (1962) 
ChemSpider NPs|Latin America dataset|NuBBEDB|Super Natural II|WikiData Natural Products|ZINC NP

>  <dois>  (1962) 
10.1016/S0031-9422(99)00532-4

>  <synonyms>  (1962) 
Cryptopyranmoscatone A1, (6R)-56-dihydro-6-[(2'S4'R5'S6'R7'E)-2'6'-epoxy-4'5'-dihydroxy-8'-phenyl-7'-octenyl]-2-pyrone

>  <cas>  (1962) 
nan

$$$$

     RDKit          2D

 41 44  0  0  0  0  0  0  0  0999 V2000
   -8.4612   -6.3837    0.0000 C   0  0  0  0  0  0  0  0  0  0  0  0
   -7.5864   -5.1652    0.0000 C   0  0  0  0  0  0  0  0  0  0  0  0
   -6.0938   -5.3134    0.0000 C   0  0  0  0  0  0  0  0  0  0  0  0
   -5.4759   -6.6803    0.0000 C   0  0  0  0  0  0  0  0  0  0  0  0
   -5.2191   -4.0949    0.0000 C   0  0  0  0  0  0  0  0  0  0  0  0
   -5.8370   -2.7281    0.0000 C   0  0  0  0  0  0  0  0  0  0  0  0
   -4.9622   -1.5096    0.0000 C   0  0  0  0  0  0  0  0  0  0  0  0
   -5.5802   -0.1427    0.0000 C   0  0  0  0  0  0  0  0  0  0  0  0
   -4.7054    1.0758    0.0000 C   0  0  0  0  0  0  0  0  0  0  0  0
   -5.3233    2.4426    0.0000 C   0  0  0  0  0  0  0  0  0  0  0  0
   -6.8160    2.5909    0.0000 Cl  0  0  0  0  0  0  0  0  0  0  0  0
   -4.4486    3.6612    0.0000 C   0  0  0  0  0  0  0  0  0  0  0  0
   -5.0665    5.0280    0.0000 O   0  0  0  0  0  0  0  0  0  0  0  0
   -2.9560    3.5129    0.0000 C   0  0  0  0  0  0  0  0  0  0  0  0
   -3.4276    4.9368    0.0000 C   0  0  0  0  0  0  0  0  0  0  0  0
   -1.8470    4.5229    0.0000 O   0  0  0  0  0  0  0  0  0  0  0  0
   -0.5437    3.7803    0.0000 C   0  0  0  0  0  0  0  0  0  0  0  0
    0.8231    4.3983    0.0000 O   0  0  0  0  0  0  0  0  0  0  0  0
   -0.8472    2.3114    0.0000 C   0  0  0  0  0  0  0  0  0  0  0  0
    0.1629    1.2024    0.0000 C   0  0  0  0  0  0  0  0  0  0  0  0
   -0.2925   -0.2268    0.0000 O   0  0  0  0  0  0  0  0  0  0  0  0
    1.6283    1.5226    0.0000 C   0  0  0  0  0  0  0  0  0  0  0  0
    2.0837    2.9518    0.0000 C   0  0  0  0  0  0  0  0  0  0  0  0
    2.6383    0.4137    0.0000 C   0  0  0  0  0  0  0  0  0  0  0  0
    2.1830   -1.0155    0.0000 C   0  0  0  0  0  0  0  0  0  0  0  0
    4.1037    0.7339    0.0000 O   0  0  0  0  0  0  0  0  0  0  0  0
    5.1138   -0.3751    0.0000 C   0  0  0  0  0  0  0  0  0  0  0  0
    4.6584   -1.8043    0.0000 O   0  0  0  0  0  0  0  0  0  0  0  0
    6.5792   -0.0548    0.0000 C   0  0  0  0  0  0  0  0  0  0  0  0
    7.0346    1.3744    0.0000 O   0  0  0  0  0  0  0  0  0  0  0  0
    8.5000    1.6946    0.0000 C   0  0  0  0  0  0  0  0  0  0  0  0
    7.5893   -1.1638    0.0000 C   0  0  0  0  0  0  0  0  0  0  0  0
    7.1339   -2.5930    0.0000 C   0  0  0  0  0  0  0  0  0  0  0  0
    8.1439   -3.7020    0.0000 C   0  0  0  0  0  0  0  0  0  0  0  0
    9.6093   -3.3817    0.0000 C   0  0  0  0  0  0  0  0  0  0  0  0
   10.0647   -1.9525    0.0000 C   0  0  0  0  0  0  0  0  0  0  0  0
    9.0547   -0.8436    0.0000 C   0  0  0  0  0  0  0  0  0  0  0  0
   -2.3380    2.1461    0.0000 C   0  0  0  0  0  0  0  0  0  0  0  0
   -3.2128    0.9275    0.0000 C   0  0  0  0  0  0  0  0  0  0  0  0
   -2.5949   -0.4393    0.0000 C   0  0  0  0  0  0  0  0  0  0  0  0
   -3.4696   -1.6578    0.0000 O   0  0  0  0  0  0  0  0  0  0  0  0
  1  2  1  0
  2  3  1  0
  3  4  1  1
  3  5  1  0
  5  6  2  0
  6  7  1  0
  7  8  2  0
  8  9  1  0
  9 10  2  0
 10 11  1  0
 10 12  1  0
 12 13  2  0
 12 14  1  0
 14 15  1  6
 14 16  1  0
 16 17  1  0
 17 18  2  0
 17 19  1  0
 19 20  1  0
 20 21  2  0
 20 22  1  0
 22 23  1  6
 22 24  1  0
 24 25  1  6
 24 26  1  0
 26 27  1  0
 27 28  2  0
 27 29  1  0
 29 30  1  1
 30 31  1  0
 29 32  1  0
 32 33  2  0
 33 34  1  0
 34 35  2  0
 35 36  1  0
 36 37  2  0
 19 38  2  0
 38 39  1  0
 39 40  2  0
 40 41  1  0
 41  7  1  0
 39  9  1  0
 38 14  1  0
 37 32  1  0
M  END
>  <identifier>  (1963) 
CNP0080401.1

>  <canonical_smiles>  (1963) 
CC[C@H](C)/C=C/C1=CC2=C(Cl)C(=O)[C@@]3(C)OC(=O)C(C(=O)[C@H](C)[C@@H](C)OC(=O)[C@@H](OC)C4=CC=CC=C4)=C3C2=CO1

>  <standard_inchi>  (1963) 
InChI=1S/C32H33ClO8/c1-7-17(2)13-14-21-15-22-23(16-39-21)25-24(30(36)41-32(25,5)29(35)26(22)33)27(34)18(3)19(4)40-31(37)28(38-6)20-11-9-8-10-12-20/h8-19,28H,7H2,1-6H3/b14-13+/t17-,18+,19+,28-,32-/m0/s1

>  <standard_inchi_key>  (1963) 
JLOJAJHRUNYSHQ-RDVBMFLWSA-N

>  <name>  (1963) 
nan

>  <iupac_name>  (1963) 
[(1~{R},2~{R})-3-[(6~{a}~{S})-5-chloro-6~{a}-methyl-3-[(~{E},3~{S})-3-methylpent-1-enyl]-6,8-dioxo-furo[2,3-h]isochromen-9-yl]-1,2-dimethyl-3-oxo-propyl] (2~{S})-2-methoxy-2-phenyl-acetate

>  <annotation_level>  (1963) 
4

>  <total_atom_count>  (1963) 
74

>  <heavy_atom_count>  (1963) 
41

>  <molecular_weight>  (1963) 
581.06

>  <exact_molecular_weight>  (1963) 
580.1864

>  <molecular_formula>  (1963) 
C32H33ClO8

>  <alogp>  (1963) 
5.60

>  <topological_polar_surface_area>  (1963) 
105.20

>  <rotatable_bond_count>  (1963) 
10

>  <hydrogen_bond_acceptors>  (1963) 
8

>  <hydrogen_bond_donors>  (1963) 
0

>  <hydrogen_bond_acceptors_lipinski>  (1963) 
8

>  <hydrogen_bond_donors_lipinski>  (1963) 
0

>  <lipinski_rule_of_five_violations>  (1963) 
2

>  <aromatic_rings_count>  (1963) 
1

>  <qed_drug_likeliness>  (1963) 
0.26

>  <formal_charge>  (1963) 
0

>  <fractioncsp3>  (1963) 
0.38

>  <number_of_minimal_rings>  (1963) 
4

>  <van_der_walls_volume>  (1963) 
nan

>  <contains_sugar>  (1963) 
False

>  <contains_ring_sugars>  (1963) 
False

>  <contains_linear_sugars>  (1963) 
False

>  <murcko_framework>  (1963) 
O1C=CC2=CCC3OCC(=C3C2=C1)CCCOCCc4ccccc4

>  <np_likeness>  (1963) 
1.89

>  <chemical_class>  (1963) 
Benzene and substituted derivatives

>  <chemical_sub_class>  (1963) 
Benzylethers

>  <chemical_super_class>  (1963) 
Benzenoids

>  <direct_parent_classification>  (1963) 
Benzylethers

>  <np_classifier_pathway>  (1963) 
Polyketides

>  <np_classifier_superclass>  (1963) 
Chromanes

>  <np_classifier_class>  (1963) 
Azaphilones

>  <np_classifier_is_glycoside>  (1963) 
False

>  <organisms>  (1963) 
Chaetomium globosum

>  <collections>  (1963) 
Latin America dataset|NuBBEDB|WikiData Natural Products|ZINC NP

>  <dois>  (1963) 
10.1021/NP200110F|10.1021/np200110f

>  <synonyms>  (1963) 
(S)-MPA-4'-epichaetoviridin A

>  <cas>  (1963) 
nan

$$$$
